# Generated by pormake.
# Topology pyr, (3,6)-cn, num edge types: 1
# Building blocks:
#     Node 0, Type 0, BuildingBlock: OLANEW_clean_sbu_2, # of connection points: 3
#     Node 1, Type 0, BuildingBlock: OLANEW_clean_sbu_2, # of connection points: 3
#     Node 2, Type 0, BuildingBlock: OLANEW_clean_sbu_2, # of connection points: 3
#     Node 3, Type 0, BuildingBlock: OLANEW_clean_sbu_2, # of connection points: 3
#     Node 4, Type 0, BuildingBlock: OLANEW_clean_sbu_2, # of connection points: 3
#     Node 5, Type 0, BuildingBlock: OLANEW_clean_sbu_2, # of connection points: 3
#     Node 6, Type 0, BuildingBlock: OLANEW_clean_sbu_2, # of connection points: 3
#     Node 7, Type 0, BuildingBlock: OLANEW_clean_sbu_2, # of connection points: 3
#     Node 8, Type 1, BuildingBlock: JUFBIX_clean_sbu_0, # of connection points: 6
#     Node 9, Type 1, BuildingBlock: JUFBIX_clean_sbu_0, # of connection points: 6
#     Node 10, Type 1, BuildingBlock: JUFBIX_clean_sbu_0, # of connection points: 6
#     Node 11, Type 1, BuildingBlock: JUFBIX_clean_sbu_0, # of connection points: 6
#     Edge 12, Type (0, 1), BuildingBlock: MIFKUJ_clean_linker_0, # of connection points: 2
#     Edge 13, Type (0, 1), BuildingBlock: MIFKUJ_clean_linker_0, # of connection points: 2
#     Edge 14, Type (0, 1), BuildingBlock: MIFKUJ_clean_linker_0, # of connection points: 2
#     Edge 15, Type (0, 1), BuildingBlock: MIFKUJ_clean_linker_0, # of connection points: 2
#     Edge 16, Type (0, 1), BuildingBlock: MIFKUJ_clean_linker_0, # of connection points: 2
#     Edge 17, Type (0, 1), BuildingBlock: MIFKUJ_clean_linker_0, # of connection points: 2
#     Edge 18, Type (0, 1), BuildingBlock: MIFKUJ_clean_linker_0, # of connection points: 2
#     Edge 19, Type (0, 1), BuildingBlock: MIFKUJ_clean_linker_0, # of connection points: 2
#     Edge 20, Type (0, 1), BuildingBlock: MIFKUJ_clean_linker_0, # of connection points: 2
#     Edge 21, Type (0, 1), BuildingBlock: MIFKUJ_clean_linker_0, # of connection points: 2
#     Edge 22, Type (0, 1), BuildingBlock: MIFKUJ_clean_linker_0, # of connection points: 2
#     Edge 23, Type (0, 1), BuildingBlock: MIFKUJ_clean_linker_0, # of connection points: 2
#     Edge 24, Type (0, 1), BuildingBlock: MIFKUJ_clean_linker_0, # of connection points: 2
#     Edge 25, Type (0, 1), BuildingBlock: MIFKUJ_clean_linker_0, # of connection points: 2
#     Edge 26, Type (0, 1), BuildingBlock: MIFKUJ_clean_linker_0, # of connection points: 2
#     Edge 27, Type (0, 1), BuildingBlock: MIFKUJ_clean_linker_0, # of connection points: 2
#     Edge 28, Type (0, 1), BuildingBlock: MIFKUJ_clean_linker_0, # of connection points: 2
#     Edge 29, Type (0, 1), BuildingBlock: MIFKUJ_clean_linker_0, # of connection points: 2
#     Edge 30, Type (0, 1), BuildingBlock: MIFKUJ_clean_linker_0, # of connection points: 2
#     Edge 31, Type (0, 1), BuildingBlock: MIFKUJ_clean_linker_0, # of connection points: 2
#     Edge 32, Type (0, 1), BuildingBlock: MIFKUJ_clean_linker_0, # of connection points: 2
#     Edge 33, Type (0, 1), BuildingBlock: MIFKUJ_clean_linker_0, # of connection points: 2
#     Edge 34, Type (0, 1), BuildingBlock: MIFKUJ_clean_linker_0, # of connection points: 2
#     Edge 35, Type (0, 1), BuildingBlock: MIFKUJ_clean_linker_0, # of connection points: 2
# Relax obj value: 0.099
# Max RMSD: 0.169
# Mean RMSD: 0.118
data_MOF--net-pry--node1-OLANEW_clean_sbu_2--node2-JUFBIX_clean_sbu_0--edge1-MIFKUJ_clean_linker_0
_symmetry_space_group_name_H-M    P1
_symmetry_Int_Tables_number       1
_symmetry_cell_setting            triclinic
loop_
_symmetry_equiv_pos_as_xyz
'x, y, z'
_cell_length_a     51.391014
_cell_length_b     49.139855
_cell_length_c     50.394311
_cell_angle_alpha  90.959509
_cell_angle_beta   90.11745
_cell_angle_gamma 96.847719
loop_
_atom_site_label
_atom_site_type_symbol
_atom_site_fract_x
_atom_site_fract_y
_atom_site_fract_z
_atom_type_partial_charge
O0 O 0.21076 0.16646 0.17403 0.0
Cd1 Cd 0.16765 0.1842 0.18177 0.0
O2 O 0.21277 0.13711 0.20705 0.0
Cd3 Cd 0.17832 0.1375 0.23411 0.0
O4 O 0.15229 0.1256 0.26885 0.0
C5 C 0.16236 0.11703 0.28987 0.0
O6 O 0.18778 0.11599 0.29044 0.0
C7 C 0.22251 0.14867 0.1861 0.0
C8 C 0.15185 0.22811 0.15159 0.0
O9 O 0.14974 0.20354 0.14217 0.0
O10 O 0.1624 0.23229 0.17461 0.0
O11 O 0.47746 0.92054 0.68493 0.0
Cd12 Cd 0.47602 0.90993 0.63746 0.0
O13 O 0.43505 0.90912 0.6845 0.0
Cd14 Cd 0.39478 0.90204 0.69909 0.0
O15 O 0.35262 0.90428 0.6997 0.0
C16 C 0.34568 0.92582 0.68961 0.0
O17 O 0.36394 0.94448 0.6808 0.0
C18 C 0.4558 0.91806 0.69726 0.0
C19 C 0.48125 0.85523 0.62605 0.0
O20 O 0.45868 0.86287 0.63074 0.0
O21 O 0.50129 0.87346 0.62697 0.0
O22 O 0.70678 0.45789 0.88691 0.0
Cd23 Cd 0.66256 0.46415 0.87205 0.0
O24 O 0.68796 0.41997 0.90392 0.0
Cd25 Cd 0.68463 0.38054 0.92381 0.0
O26 O 0.66729 0.3395 0.93471 0.0
C27 C 0.65598 0.33576 0.95697 0.0
O28 O 0.65602 0.3566 0.97365 0.0
C29 C 0.70853 0.43662 0.90048 0.0
C30 C 0.657 0.47607 0.81858 0.0
O31 O 0.66241 0.49524 0.83599 0.0
O32 O 0.65494 0.45121 0.82637 0.0
O33 O 0.02465 0.66635 0.44084 0.0
Cd34 Cd 0.01785 0.61936 0.42369 0.0
O35 O 0.99199 0.65303 0.4671 0.0
Cd36 Cd 0.95974 0.65794 0.4943 0.0
O37 O 0.91947 0.65358 0.50865 0.0
C38 C 0.90268 0.66336 0.49419 0.0
O39 O 0.91073 0.6765 0.47267 0.0
C40 C 0.00899 0.67199 0.45903 0.0
C41 C 0.00386 0.61659 0.37015 0.0
O42 O 0.98656 0.61846 0.38815 0.0
O43 O 0.02772 0.61625 0.37748 0.0
O44 O 0.86577 0.84974 0.86579 0.0
Cd45 Cd 0.84969 0.81988 0.90347 0.0
O46 O 0.83756 0.88067 0.86103 0.0
Cd47 Cd 0.80576 0.87838 0.89163 0.0
O48 O 0.76889 0.89 0.91065 0.0
C49 C 0.76914 0.90668 0.93038 0.0
O50 O 0.79187 0.91674 0.94062 0.0
C51 C 0.858 0.87001 0.85362 0.0
C52 C 0.87851 0.77649 0.919 0.0
O53 O 0.86302 0.77389 0.89891 0.0
O54 O 0.88122 0.79973 0.93128 0.0
O55 O 0.59648 0.08816 0.43982 0.0
Cd56 Cd 0.61083 0.09854 0.48546 0.0
O57 O 0.60447 0.13235 0.43428 0.0
Cd58 Cd 0.60395 0.1716 0.41459 0.0
O59 O 0.6016 0.2153 0.41 0.0
C60 C 0.57936 0.22389 0.41242 0.0
O61 O 0.55859 0.20599 0.41594 0.0
C62 C 0.59684 0.10862 0.42471 0.0
C63 C 0.66307 0.09065 0.49326 0.0
O64 O 0.64445 0.07154 0.49778 0.0
O65 O 0.657 0.11359 0.48495 0.0
O66 O 0.39941 0.70404 0.17789 0.0
Cd67 Cd 0.38069 0.65703 0.1872 0.0
O68 O 0.38258 0.70209 0.1376 0.0
Cd69 Cd 0.35938 0.66207 0.14028 0.0
O70 O 0.32506 0.63359 0.12915 0.0
C71 C 0.30299 0.638 0.13852 0.0
O72 O 0.30208 0.65827 0.15572 0.0
C73 C 0.39658 0.7151 0.15559 0.0
C74 C 0.4 0.63825 0.23449 0.0
O75 O 0.41249 0.63664 0.21264 0.0
O76 O 0.37834 0.64875 0.23402 0.0
O77 O 0.11137 0.47615 0.65478 0.0
Cd78 Cd 0.11512 0.48402 0.60717 0.0
O79 O 0.10067 0.43244 0.64655 0.0
Cd80 Cd 0.09079 0.38835 0.65252 0.0
O81 O 0.0783 0.34429 0.64978 0.0
C82 C 0.0572 0.33578 0.63746 0.0
O83 O 0.04326 0.35379 0.62724 0.0
C84 C 0.10524 0.45207 0.66338 0.0
C85 C 0.16761 0.48831 0.59226 0.0
O86 O 0.15693 0.50962 0.5991 0.0
O87 O 0.15334 0.46506 0.59213 0.0
Co88 Co 0.98679 0.99798 0.56264 0.0
C89 C 0.01087 0.94965 0.55498 0.0
Co90 Co 0.02636 0.99829 0.58 0.0
C91 C 0.93686 0.01313 0.54347 0.0
C92 C 0.93701 0.96984 0.54722 0.0
N93 N 0.9526 0.99391 0.54954 0.0
N94 N 0.91212 1.00193 0.53779 0.0
C95 C 0.9123 0.97468 0.53991 0.0
H96 H 0.94301 0.03496 0.54458 0.0
H97 H 0.94278 0.94997 0.5517 0.0
C98 C 1.00266 0.04671 0.58764 0.0
N99 N 0.06039 0.00264 0.59307 0.0
C100 C 0.07502 0.98462 0.60404 0.0
C101 C 0.07658 0.02629 0.59176 0.0
N102 N 0.09974 0.9962 0.60944 0.0
C103 C 0.10058 0.02246 0.60188 0.0
C104 C 0.02496 0.01701 0.52693 0.0
O105 O 0.98353 0.03437 0.57457 0.0
O106 O 0.02245 0.03432 0.59218 0.0
O107 O 0.03943 0.01245 0.54653 0.0
O108 O 1.00018 0.01197 0.52932 0.0
O109 O 0.02999 0.96224 0.56792 0.0
H110 H 0.07142 0.04512 0.58353 0.0
H111 H 0.0679 0.96331 0.60726 0.0
O112 O 0.99079 0.96171 0.55067 0.0
O113 O 0.97364 0.98409 0.59617 0.0
O114 O 0.01296 0.984 0.61316 0.0
C115 C 0.98817 0.97927 0.61566 0.0
H116 H 0.89558 0.9593 0.5371 0.0
H117 H 0.11735 0.03796 0.60352 0.0
Co118 Co 0.4889 0.02947 0.04102 0.0
C119 C 0.4853 0.99007 0.08088 0.0
Co120 Co 0.51129 0.04173 0.07754 0.0
C121 C 0.47609 0.01554 0.98614 0.0
C122 C 0.4428 0.00862 0.01166 0.0
N123 N 0.46858 0.0179 0.01165 0.0
N124 N 0.45601 0.00513 0.97025 0.0
C125 C 0.43501 1.00086 0.98626 0.0
H126 H 0.49596 0.0212 0.97941 0.0
H127 H 0.43056 0.00699 0.02913 0.0
C128 C 0.51536 0.08109 0.03783 0.0
N129 N 0.53174 0.05352 0.10674 0.0
C130 C 0.52533 0.0544 0.1327 0.0
C131 C 0.55692 0.06491 0.10572 0.0
N132 N 0.5455 0.06613 0.14784 0.0
C133 C 0.56541 0.07264 0.13086 0.0
C134 C 0.53945 0.01474 0.03899 0.0
O135 O 0.50071 0.06331 0.02429 0.0
O136 O 0.52171 0.07561 0.06131 0.0
O137 O 0.54087 0.02646 0.06178 0.0
O138 O 0.518 0.01347 0.02617 0.0
O139 O 0.50073 0.00775 0.09369 0.0
H140 H 0.56828 0.06781 0.08772 0.0
H141 H 0.50604 0.04728 0.1402 0.0
O142 O 0.47757 0.99576 0.05785 0.0
O143 O 0.4598 0.04551 0.05619 0.0
O144 O 0.48156 0.05675 0.09291 0.0
C145 C 0.46049 0.05614 0.07942 0.0
H146 H 0.4156 0.99186 0.98024 0.0
H147 H 0.58481 0.08224 0.13621 0.0
Co148 Co 0.55425 0.55039 0.51073 0.0
C149 C 0.51197 0.55081 0.47575 0.0
Co150 Co 0.51661 0.53009 0.52568 0.0
C151 C 0.60999 0.56695 0.50332 0.0
C152 C 0.58568 0.59269 0.48344 0.0
N153 N 0.58469 0.56993 0.49815 0.0
N154 N 0.62671 0.58705 0.49246 0.0
C155 C 0.61135 0.60318 0.47987 0.0
H156 H 0.61596 0.55069 0.5153 0.0
H157 H 0.56876 0.60178 0.47662 0.0
C158 C 0.55874 0.52969 0.56075 0.0
N159 N 0.48613 0.51095 0.5383 0.0
C160 C 0.46155 0.51801 0.53797 0.0
C161 C 0.48392 0.48602 0.54942 0.0
N162 N 0.44404 0.49836 0.5483 0.0
C163 C 0.4581 0.47822 0.55555 0.0
C164 C 0.54699 0.49606 0.49685 0.0
O165 O 0.57161 0.54293 0.54264 0.0
O166 O 0.53447 0.522 0.55718 0.0
O167 O 0.52561 0.49744 0.50918 0.0
O168 O 0.56344 0.51744 0.49519 0.0
O169 O 0.49892 0.53839 0.49422 0.0
H170 H 0.50007 0.47422 0.55274 0.0
H171 H 0.45656 0.53697 0.52981 0.0
O172 O 0.53644 0.55754 0.47889 0.0
O173 O 0.54488 0.58324 0.52637 0.0
O174 O 0.50787 0.56293 0.54189 0.0
C175 C 0.52383 0.58453 0.53927 0.0
H176 H 0.61806 0.62202 0.46986 0.0
H177 H 0.45033 0.4593 0.56488 0.0
Co178 Co 0.01694 0.48957 1.00242 0.0
C179 C 0.96459 0.46842 0.01157 0.0
Co180 Co 1.0028 0.4958 0.04323 0.0
C181 C 0.0461 0.47579 0.9552 0.0
C182 C 0.01114 0.49392 0.94669 0.0
N183 N 0.02569 0.48615 0.96695 0.0
N184 N 0.04477 0.47726 0.92854 0.0
C185 C 0.0229 0.48858 0.92309 0.0
H186 H 0.06147 0.4673 0.96588 0.0
H187 H 0.99289 0.50262 0.9489 0.0
C188 C 0.05492 0.51728 0.03403 0.0
N189 N 0.99401 0.49926 0.07892 0.0
C190 C 0.97739 0.51477 0.09121 0.0
C191 C 0.00556 0.4871 0.09889 0.0
N192 N 0.97792 0.51213 0.11787 0.0
C193 C 0.9956 0.49472 0.12263 0.0
C194 C 0.02689 0.44693 0.03397 0.0
O195 O 0.05075 0.50804 0.01048 0.0
O196 O 0.03654 0.51418 0.05095 0.0
O197 O 0.01532 0.46121 0.05043 0.0
O198 O 0.02959 0.45516 0.01021 0.0
O199 O 0.96891 0.47745 0.03517 0.0
H200 H 0.02129 0.47454 0.09668 0.0
H201 H 0.96566 0.52822 0.08097 0.0
O202 O 0.98308 0.47119 0.99475 0.0
O203 O 0.00431 0.52415 0.99491 0.0
O204 O 0.99053 0.53024 0.03538 0.0
C205 C 0.99315 0.53855 0.01166 0.0
H206 H 0.01575 0.49221 0.90338 0.0
H207 H 1.0021 0.48924 0.14207 0.0
H208 H 0.17927 0.09905 0.33716 0.0
H209 H 0.15346 0.08261 0.37538 0.0
H210 H 0.08256 0.09682 0.33472 0.0
H211 H 0.10853 0.11382 0.29618 0.0
H212 H 0.08058 0.11265 0.38629 0.0
H213 H 0.09956 0.03166 0.34064 0.0
H214 H 0.12697 1.00035 0.31835 0.0
H215 H 0.17084 0.99493 0.39028 0.0
H216 H 0.14392 0.02653 0.41292 0.0
H217 H 1.00066 0.03327 0.48195 0.0
H218 H 0.0213 0.05066 0.44071 0.0
H219 H 0.0975 0.04273 0.47355 0.0
H220 H 0.07712 0.02539 0.51462 0.0
H221 H 0.09331 0.02233 0.42349 0.0
H222 H 0.07517 0.10552 0.46823 0.0
H223 H 0.04714 0.13653 0.49011 0.0
H224 H 1.00046 0.13666 0.41939 0.0
H225 H 0.02806 0.10544 0.39714 0.0
C226 C 0.15819 0.09876 0.33619 0.0
C227 C 0.14606 0.10767 0.31335 0.0
C228 C 0.14337 0.08919 0.35816 0.0
C229 C 0.11591 0.08795 0.35796 0.0
C230 C 0.10369 0.09741 0.33543 0.0
C231 C 0.11858 0.10707 0.31334 0.0
C232 C 0.10027 0.07661 0.38127 0.0
C233 C 0.08306 0.09269 0.39413 0.0
C234 C 0.10361 0.0507 0.39193 0.0
C235 C 0.11985 0.03166 0.37841 0.0
C236 C 0.11518 0.02396 0.35165 0.0
C237 C 0.13061 0.00613 0.33896 0.0
C238 C 0.15067 0.9957 0.35288 0.0
C239 C 0.15531 0.00304 0.37952 0.0
C240 C 0.13995 0.0209 0.3923 0.0
C241 C 0.02181 0.03527 0.48042 0.0
C242 C 0.03716 0.02786 0.50173 0.0
C243 C 0.03362 0.04535 0.45682 0.0
C244 C 0.06106 0.04823 0.45393 0.0
C245 C 0.07634 0.04073 0.47515 0.0
C246 C 0.0646 0.03084 0.49873 0.0
C247 C 0.074 0.05855 0.42878 0.0
C248 C 0.09071 0.04221 0.41556 0.0
C249 C 0.07007 0.08412 0.41777 0.0
C250 C 0.0535 0.1029 0.43112 0.0
C251 C 0.0588 0.11198 0.45742 0.0
C252 C 0.04302 0.12962 0.46988 0.0
C253 C 0.02198 0.13846 0.45619 0.0
C254 C 0.01673 0.12975 0.42998 0.0
C255 C 0.03245 0.11211 0.41743 0.0
H256 H 0.00979 0.15212 0.46588 0.0
H257 H 0.16259 0.98189 0.34302 0.0
H258 H 0.49483 0.91724 0.7336 0.0
H259 H 0.49507 0.93236 0.78006 0.0
H260 H 0.41602 0.95237 0.77149 0.0
H261 H 0.41616 0.93851 0.72472 0.0
H262 H 0.44559 0.99228 0.79721 0.0
H263 H 0.42926 0.89464 0.80456 0.0
H264 H 0.43723 0.84666 0.79681 0.0
H265 H 0.51235 0.86308 0.83504 0.0
H266 H 0.50497 0.91129 0.8427 0.0
H267 H 0.41666 0.00459 0.93446 0.0
H268 H 0.41738 0.99035 0.88779 0.0
H269 H 0.49812 0.97587 0.89607 0.0
H270 H 0.49736 0.98961 0.94296 0.0
H271 H 0.46812 0.93323 0.8707 0.0
H272 H 0.48369 0.03102 0.86384 0.0
H273 H 0.47494 0.0787 0.87197 0.0
H274 H 0.4002 0.0615 0.83313 0.0
H275 H 0.40834 0.01358 0.8251 0.0
C276 C 0.47743 0.92471 0.74167 0.0
C277 C 0.45518 0.92594 0.72568 0.0
C278 C 0.47755 0.9332 0.76827 0.0
C279 C 0.45538 0.94302 0.77941 0.0
C280 C 0.43323 0.94455 0.7634 0.0
C281 C 0.43314 0.93613 0.73676 0.0
C282 C 0.4556 0.95244 0.80756 0.0
C283 C 0.45015 0.97923 0.81331 0.0
C284 C 0.46219 0.93564 0.82851 0.0
C285 C 0.46667 0.90665 0.82397 0.0
C286 C 0.44757 0.88808 0.81113 0.0
C287 C 0.45196 0.86083 0.80679 0.0
C288 C 0.47531 0.85185 0.81537 0.0
C289 C 0.49429 0.87008 0.82837 0.0
C290 C 0.49 0.89736 0.83274 0.0
C291 C 0.43455 0.99835 0.92636 0.0
C292 C 0.45695 0.99822 0.9424 0.0
C293 C 0.435 0.99042 0.89964 0.0
C294 C 0.45786 0.98224 0.88844 0.0
C295 C 0.48031 0.98219 0.90434 0.0
C296 C 0.47991 0.99027 0.93105 0.0
C297 C 0.45806 0.973 0.8603 0.0
C298 C 0.46359 0.94626 0.85457 0.0
C299 C 0.45143 0.98979 0.83939 0.0
C300 C 0.44653 0.01863 0.8441 0.0
C301 C 0.46529 0.03734 0.85723 0.0
C302 C 0.46046 0.06442 0.86178 0.0
C303 C 0.437 0.07311 0.85313 0.0
C304 C 0.41835 0.05473 0.83985 0.0
C305 C 0.42308 0.02762 0.83527 0.0
H306 H 0.4333 0.09408 0.85668 0.0
H307 H 0.47868 0.83074 0.81199 0.0
H308 H 0.64433 0.44005 0.77726 0.0
H309 H 0.6321 0.45077 0.73206 0.0
H310 H 0.64567 0.53718 0.7513 0.0
H311 H 0.65767 0.52665 0.79662 0.0
H312 H 0.59938 0.52453 0.72749 0.0
H313 H 0.68757 0.50743 0.71096 0.0
H314 H 0.72574 0.48147 0.71229 0.0
H315 H 0.68306 0.41566 0.66738 0.0
H316 H 0.64448 0.44106 0.66609 0.0
H317 H 0.61024 0.54299 0.57502 0.0
H318 H 0.6307 0.53504 0.61769 0.0
H319 H 0.55698 0.49495 0.64597 0.0
H320 H 0.53633 0.50297 0.6036 0.0
H321 H 0.63699 0.4886 0.64525 0.0
H322 H 0.55009 0.5133 0.71061 0.0
H323 H 0.51342 0.54139 0.7088 0.0
H324 H 0.55732 0.59684 0.65583 0.0
H325 H 0.59437 0.56938 0.65769 0.0
C326 C 0.64501 0.46135 0.7718 0.0
C327 C 0.65191 0.4825 0.79057 0.0
C328 C 0.6381 0.46744 0.74591 0.0
C329 C 0.63809 0.49478 0.73825 0.0
C330 C 0.64552 0.51594 0.75679 0.0
C331 C 0.65245 0.50987 0.78267 0.0
C332 C 0.62886 0.50127 0.71142 0.0
C333 C 0.60769 0.51674 0.70952 0.0
C334 C 0.63986 0.49137 0.68795 0.0
C335 C 0.66305 0.47606 0.68862 0.0
C336 C 0.68625 0.48733 0.70154 0.0
C337 C 0.70797 0.47273 0.70225 0.0
C338 C 0.70681 0.44691 0.68997 0.0
C339 C 0.68392 0.43565 0.6769 0.0
C340 C 0.66213 0.45016 0.67614 0.0
C341 C 0.5984 0.53239 0.59029 0.0
C342 C 0.5716 0.52381 0.58599 0.0
C343 C 0.61016 0.52778 0.61461 0.0
C344 C 0.59529 0.51469 0.63508 0.0
C345 C 0.56872 0.50544 0.63056 0.0
C346 C 0.55697 0.51 0.6063 0.0
C347 C 0.60725 0.51136 0.66145 0.0
C348 C 0.62882 0.49646 0.66325 0.0
C349 C 0.59686 0.52207 0.68486 0.0
C350 C 0.5749 0.53912 0.68411 0.0
C351 C 0.55196 0.53158 0.6987 0.0
C352 C 0.5311 0.54738 0.69766 0.0
C353 C 0.53299 0.57084 0.68216 0.0
C354 C 0.55581 0.57863 0.66778 0.0
C355 C 0.57675 0.56294 0.66881 0.0
H356 H 0.51679 0.58298 0.68133 0.0
H357 H 0.72365 0.43564 0.69055 0.0
H358 H 0.95874 0.62896 0.34655 0.0
H359 H 0.94579 0.62172 0.29991 0.0
H360 H 0.01872 0.5893 0.28368 0.0
H361 H 0.03219 0.59778 0.32972 0.0
H362 H 0.00821 0.61715 0.24401 0.0
H363 H 0.95731 0.54804 0.29684 0.0
H364 H 0.92585 0.53182 0.33172 0.0
H365 H 0.86654 0.57294 0.29461 0.0
H366 H 0.89778 0.58963 0.25966 0.0
H367 H 0.95901 0.49331 0.16442 0.0
H368 H 0.95255 0.52112 0.20371 0.0
H369 H 0.96395 0.59424 0.15676 0.0
H370 H 0.97148 0.56615 0.11736 0.0
H371 H 0.92555 0.55707 0.22471 0.0
H372 H 0.00344 0.64229 0.19201 0.0
H373 H 0.03856 0.65083 0.15871 0.0
H374 H 0.04984 0.56562 0.15866 0.0
H375 H 0.01503 0.55671 0.19216 0.0
C376 C 0.97208 0.62055 0.33291 0.0
C377 C 0.99642 0.61376 0.3418 0.0
C378 C 0.96462 0.61633 0.30628 0.0
C379 C 0.98107 0.60456 0.28826 0.0
C380 C 0.00567 0.59852 0.29707 0.0
C381 C 0.01334 0.60325 0.32348 0.0
C382 C 0.97251 0.59699 0.26061 0.0
C383 C 0.98993 0.60435 0.23979 0.0
C384 C 0.94866 0.5803 0.25488 0.0
C385 C 0.92994 0.57038 0.2759 0.0
C386 C 0.93761 0.55378 0.29626 0.0
C387 C 0.91982 0.54448 0.31601 0.0
C388 C 0.89424 0.55143 0.31544 0.0
C389 C 0.88638 0.56763 0.29507 0.0
C390 C 0.90411 0.57702 0.27529 0.0
C391 C 0.95941 0.51526 0.16238 0.0
C392 C 0.9663 0.52766 0.1381 0.0
C393 C 0.95554 0.53117 0.1848 0.0
C394 C 0.95841 0.55987 0.18337 0.0
C395 C 0.96214 0.57215 0.15842 0.0
C396 C 0.9662 0.55611 0.13588 0.0
C397 C 0.96182 0.57617 0.2085 0.0
C398 C 0.94338 0.57068 0.22881 0.0
C399 C 0.98525 0.59362 0.21405 0.0
C400 C 0.00645 0.59882 0.19426 0.0
C401 C 0.01348 0.62543 0.1849 0.0
C402 C 0.03332 0.63033 0.16601 0.0
C403 C 0.04635 0.60876 0.1565 0.0
C404 C 0.03968 0.58229 0.16597 0.0
C405 C 0.01991 0.57731 0.18491 0.0
H406 H 0.06166 0.61258 0.14184 0.0
H407 H 0.88049 0.5442 0.33074 0.0
H408 H 0.25054 0.10841 0.20405 0.0
H409 H 0.2912 0.0943 0.18657 0.0
H410 H 0.29277 0.15568 0.12631 0.0
H411 H 0.25197 0.17009 0.1438 0.0
H412 H 0.30305 0.07283 0.13998 0.0
H413 H 0.35748 0.17788 0.11133 0.0
H414 H 0.35991 0.22651 0.12521 0.0
H415 H 0.33582 0.20276 0.20387 0.0
H416 H 0.33358 0.15402 0.19056 0.0
H417 H 0.41147 0.05353 0.05721 0.0
H418 H 0.37229 0.07028 0.07565 0.0
H419 H 0.41601 0.10033 0.14537 0.0
H420 H 0.45548 0.08362 0.12697 0.0
H421 H 0.38397 0.13743 0.12877 0.0
H422 H 0.3749 0.04144 0.1475 0.0
H423 H 0.3737 0.99217 0.13674 0.0
H424 H 0.30877 0.99658 0.08385 0.0
H425 H 0.30983 0.046 0.09401 0.0
C426 C 0.25948 0.11908 0.18712 0.0
C427 C 0.24778 0.14053 0.17546 0.0
C428 C 0.2828 0.11085 0.17705 0.0
C429 C 0.29534 0.12393 0.15514 0.0
C430 C 0.28377 0.14539 0.14341 0.0
C431 C 0.26031 0.15358 0.15342 0.0
C432 C 0.32027 0.1148 0.14456 0.0
C433 C 0.32067 0.08705 0.13746 0.0
C434 C 0.34358 0.13308 0.14155 0.0
C435 C 0.34509 0.16231 0.14984 0.0
C436 C 0.35278 0.18305 0.1316 0.0
C437 C 0.35411 0.21063 0.13937 0.0
C438 C 0.34793 0.21772 0.16537 0.0
C439 C 0.34049 0.19725 0.1837 0.0
C440 C 0.33915 0.16964 0.17604 0.0
C441 C 0.41288 0.06376 0.07645 0.0
C442 C 0.43677 0.06709 0.09059 0.0
C443 C 0.39033 0.07329 0.08704 0.0
C444 C 0.39096 0.08642 0.11208 0.0
C445 C 0.4149 0.09029 0.12603 0.0
C446 C 0.43748 0.08061 0.11551 0.0
C447 C 0.36655 0.09559 0.1238 0.0
C448 C 0.36627 0.12329 0.13113 0.0
C449 C 0.34341 0.07722 0.12734 0.0
C450 C 0.34261 0.04747 0.12133 0.0
C451 C 0.36049 0.03195 0.13343 0.0
C452 C 0.35981 0.00399 0.12746 0.0
C453 C 0.34121 0.99127 0.10957 0.0
C454 C 0.32319 0.00647 0.09767 0.0
C455 C 0.32381 0.03445 0.10355 0.0
H456 H 0.34072 0.96962 0.10497 0.0
H457 H 0.34896 0.23909 0.17134 0.0
H458 H 0.30242 0.89073 0.70387 0.0
H459 H 0.25622 0.89683 0.6969 0.0
H460 H 0.27971 0.975 0.66101 0.0
H461 H 0.32555 0.96931 0.66823 0.0
H462 H 0.24022 0.97854 0.69433 0.0
H463 H 0.26132 0.91588 0.62388 0.0
H464 H 0.27549 0.87293 0.6062 0.0
H465 H 0.21228 0.82627 0.64697 0.0
H466 H 0.19793 0.86898 0.66515 0.0
H467 H 0.15132 0.01175 0.60141 0.0
H468 H 0.18805 0.9935 0.6222 0.0
H469 H 0.13492 0.93286 0.66171 0.0
H470 H 0.09748 0.9517 0.64136 0.0
H471 H 0.18296 0.914 0.63652 0.0
H472 H 0.15759 0.97948 0.69957 0.0
H473 H 0.14362 0.02368 0.71392 0.0
H474 H 0.21553 0.0661 0.68485 0.0
H475 H 0.22977 0.02218 0.66993 0.0
C476 C 0.29769 0.90927 0.69463 0.0
C477 C 0.31767 0.92951 0.68654 0.0
C478 C 0.2713 0.91267 0.69059 0.0
C479 C 0.26452 0.93629 0.67828 0.0
C480 C 0.28446 0.95664 0.67063 0.0
C481 C 0.31071 0.95331 0.6747 0.0
C482 C 0.23682 0.94008 0.67272 0.0
C483 C 0.22769 0.96436 0.68178 0.0
C484 C 0.22011 0.92118 0.65702 0.0
C485 C 0.22878 0.89556 0.64615 0.0
C486 C 0.25059 0.89644 0.62925 0.0
C487 C 0.25863 0.87215 0.61911 0.0
C488 C 0.24486 0.84688 0.62554 0.0
C489 C 0.22297 0.84585 0.64207 0.0
C490 C 0.21488 0.87009 0.65229 0.0
C491 C 0.14724 0.99471 0.61468 0.0
C492 C 0.12135 0.98358 0.62013 0.0
C493 C 0.16834 0.98416 0.6264 0.0
C494 C 0.16413 0.96213 0.64374 0.0
C495 C 0.13847 0.94998 0.64842 0.0
C496 C 0.11716 0.96072 0.63675 0.0
C497 C 0.18697 0.95289 0.65733 0.0
C498 C 0.19519 0.9277 0.64978 0.0
C499 C 0.203 0.97103 0.67427 0.0
C500 C 0.1947 0.99751 0.68354 0.0
C501 C 0.17036 0.99824 0.69609 0.0
C502 C 0.1624 0.02325 0.70434 0.0
C503 C 0.17867 0.04768 0.70028 0.0
C504 C 0.20296 0.04715 0.688 0.0
C505 C 0.211 0.0222 0.67968 0.0
H506 H 0.17246 0.06703 0.70667 0.0
H507 H 0.2511 0.8281 0.61765 0.0
H508 H 0.75724 0.44962 0.87996 0.0
H509 H 0.79944 0.44662 0.90187 0.0
H510 H 0.75915 0.41248 0.97085 0.0
H511 H 0.71685 0.41481 0.94879 0.0
H512 H 0.79969 0.4638 0.97693 0.0
H513 H 0.7871 0.37066 0.94338 0.0
H514 H 0.7774 0.33496 0.90863 0.0
H515 H 0.84371 0.3699 0.86377 0.0
H516 H 0.85358 0.40609 0.89807 0.0
H517 H 0.92065 0.45571 0.04202 0.0
H518 H 0.87577 0.44222 0.02625 0.0
H519 H 0.90323 0.44395 0.94534 0.0
H520 H 0.94797 0.45631 0.96092 0.0
H521 H 0.86637 0.40395 0.94927 0.0
H522 H 0.87646 0.49899 0.97568 0.0
H523 H 0.88707 0.53848 0.00627 0.0
H524 H 0.82689 0.50506 0.05956 0.0
H525 H 0.81616 0.46516 0.02941 0.0
C526 C 0.75742 0.44103 0.89961 0.0
C527 C 0.73383 0.43216 0.91258 0.0
C528 C 0.78147 0.43932 0.91207 0.0
C529 C 0.78231 0.42926 0.9379 0.0
C530 C 0.75882 0.42013 0.95083 0.0
C531 C 0.73474 0.42126 0.93813 0.0
C532 C 0.80777 0.43001 0.95181 0.0
C533 C 0.81412 0.45033 0.97139 0.0
C534 C 0.82675 0.41304 0.9438 0.0
C535 C 0.82093 0.39124 0.92319 0.0
C536 C 0.79947 0.3709 0.92599 0.0
C537 C 0.79397 0.35053 0.9064 0.0
C538 C 0.80989 0.35019 0.88398 0.0
C539 C 0.83138 0.3702 0.88113 0.0
C540 C 0.83695 0.39062 0.90066 0.0
C541 C 0.91714 0.45278 0.0209 0.0
C542 C 0.93787 0.45727 0.00274 0.0
C543 C 0.89146 0.44522 0.01189 0.0
C544 C 0.88599 0.44257 0.98454 0.0
C545 C 0.90686 0.44585 0.96652 0.0
C546 C 0.9325 0.45302 0.9755 0.0
C547 C 0.85856 0.43798 0.97439 0.0
C548 C 0.85185 0.4171 0.95533 0.0
C549 C 0.83942 0.45494 0.98237 0.0
C550 C 0.84573 0.47894 1.00047 0.0
C551 C 0.86562 0.49998 0.99402 0.0
C552 C 0.87164 0.52244 0.01126 0.0
C553 C 0.85772 0.52423 0.03489 0.0
C554 C 0.8377 0.50361 0.04128 0.0
C555 C 0.83163 0.48107 0.02413 0.0
H556 H 0.8624 0.54164 0.04821 0.0
H557 H 0.80561 0.33441 0.86883 0.0
H558 H 0.87887 0.63267 0.5343 0.0
H559 H 0.83182 0.61961 0.54051 0.0
H560 H 0.81547 0.66729 0.47266 0.0
H561 H 0.86226 0.6808 0.46663 0.0
H562 H 0.78134 0.67343 0.51152 0.0
H563 H 0.81704 0.59744 0.46796 0.0
H564 H 0.8465 0.56148 0.46391 0.0
H565 H 0.81586 0.52572 0.53627 0.0
H566 H 0.78643 0.56171 0.5409 0.0
H567 H 0.6609 0.61583 0.45961 0.0
H568 H 0.70769 0.62841 0.46675 0.0
H569 H 0.70381 0.58216 0.53886 0.0
H570 H 0.65657 0.56995 0.53226 0.0
H571 H 0.74756 0.57454 0.50606 0.0
H572 H 0.70744 0.6476 0.5459 0.0
H573 H 0.67731 0.68301 0.54847 0.0
H574 H 0.7159 0.72413 0.4823 0.0
H575 H 0.74602 0.68871 0.47905 0.0
C576 C 0.86523 0.64063 0.5209 0.0
C577 C 0.87432 0.65756 0.4998 0.0
C578 C 0.83836 0.63303 0.5244 0.0
C579 C 0.82015 0.64211 0.50679 0.0
C580 C 0.82916 0.65996 0.48645 0.0
C581 C 0.85595 0.6676 0.48297 0.0
C582 C 0.79177 0.63232 0.50865 0.0
C583 C 0.77397 0.65182 0.51023 0.0
C584 C 0.78214 0.60406 0.50774 0.0
C585 C 0.79979 0.58244 0.50495 0.0
C586 C 0.81675 0.58204 0.48311 0.0
C587 C 0.8334 0.56163 0.48069 0.0
C588 C 0.83312 0.54138 0.49987 0.0
C589 C 0.81611 0.54145 0.52146 0.0
C590 C 0.79943 0.56184 0.52399 0.0
C591 C 0.66985 0.60842 0.4771 0.0
C592 C 0.6548 0.59217 0.49553 0.0
C593 C 0.69665 0.61557 0.48109 0.0
C594 C 0.70908 0.60658 0.50354 0.0
C595 C 0.69449 0.58939 0.52146 0.0
C596 C 0.66752 0.58233 0.51757 0.0
C597 C 0.73725 0.61571 0.50818 0.0
C598 C 0.75497 0.59612 0.50784 0.0
C599 C 0.74683 0.64388 0.51014 0.0
C600 C 0.72888 0.66537 0.51212 0.0
C601 C 0.70938 0.66407 0.53176 0.0
C602 C 0.69232 0.68417 0.53336 0.0
C603 C 0.69466 0.70578 0.51553 0.0
C604 C 0.71411 0.70737 0.49609 0.0
C605 C 0.7312 0.68731 0.49438 0.0
H606 H 0.68143 0.72132 0.5168 0.0
H607 H 0.84602 0.5256 0.49796 0.0
H608 H 0.13995 0.27728 0.17163 0.0
H609 H 0.11902 0.3126 0.14875 0.0
H610 H 0.11853 0.26568 0.07573 0.0
H611 H 0.13886 0.22979 0.09869 0.0
H612 H 0.13595 0.32736 0.0731 0.0
H613 H 0.06509 0.26084 0.10224 0.0
H614 H 0.04079 0.23163 0.13544 0.0
H615 H 0.03024 0.30283 0.18293 0.0
H616 H 0.05484 0.33244 0.15017 0.0
H617 H 0.05175 0.40941 0.00482 0.0
H618 H 0.07275 0.37075 0.02154 0.0
H619 H 0.05087 0.3912 0.10139 0.0
H620 H 0.02888 0.42855 0.08474 0.0
H621 H 0.0448 0.34013 0.09797 0.0
H622 H 0.11597 0.40693 0.07327 0.0
H623 H 0.14217 0.43853 0.04336 0.0
H624 H 0.1548 0.37101 0.99169 0.0
H625 H 0.12837 0.33904 0.02114 0.0
C626 C 0.13563 0.27452 0.15065 0.0
C627 C 0.14111 0.2506 0.13705 0.0
C628 C 0.1236 0.29475 0.13759 0.0
C629 C 0.11715 0.29184 0.1105 0.0
C630 C 0.12336 0.26844 0.09661 0.0
C631 C 0.13493 0.2479 0.1098 0.0
C632 C 0.10287 0.31266 0.09714 0.0
C633 C 0.11588 0.32993 0.0782 0.0
C634 C 0.07695 0.31657 0.10427 0.0
C635 C 0.06203 0.29882 0.12389 0.0
C636 C 0.05779 0.27024 0.11988 0.0
C637 C 0.04392 0.25362 0.13859 0.0
C638 C 0.03403 0.26536 0.16132 0.0
C639 C 0.03794 0.29376 0.16533 0.0
C640 C 0.05182 0.31047 0.14669 0.0
C641 C 0.05122 0.40549 0.02591 0.0
C642 C 0.03862 0.42232 0.04337 0.0
C643 C 0.0635 0.38347 0.03555 0.0
C644 C 0.06398 0.37808 0.06295 0.0
C645 C 0.05095 0.39464 0.08021 0.0
C646 C 0.03838 0.41625 0.07059 0.0
C647 C 0.07789 0.35541 0.07396 0.0
C648 C 0.06482 0.33766 0.09258 0.0
C649 C 0.10398 0.35152 0.06692 0.0
C650 C 0.11994 0.37065 0.04924 0.0
C651 C 0.12418 0.39885 0.05542 0.0
C652 C 0.13909 0.41682 0.03857 0.0
C653 C 0.15007 0.40679 0.01559 0.0
C654 C 0.14623 0.37875 0.00947 0.0
C655 C 0.1313 0.3607 0.02623 0.0
H656 H 0.16161 0.42073 0.00257 0.0
H657 H 0.02329 0.25246 0.17578 0.0
H658 H 0.6338 0.31974 0.00426 0.0
H659 H 0.60945 0.27546 0.01471 0.0
H660 H 0.62134 0.24628 0.93499 0.0
H661 H 0.6458 0.29059 0.9243 0.0
H662 H 0.56958 0.23376 0.95265 0.0
H663 H 0.65674 0.22465 0.98252 0.0
H664 H 0.69803 0.23847 0.0068 0.0
H665 H 0.65616 0.23618 0.08053 0.0
H666 H 0.61454 0.22273 0.05664 0.0
H667 H 0.52475 0.09366 0.98559 0.0
H668 H 0.54802 0.13629 0.96853 0.0
H669 H 0.55281 0.17092 0.04795 0.0
H670 H 0.53068 0.12823 0.06504 0.0
H671 H 0.59826 0.17886 0.02659 0.0
H672 H 0.51089 0.191 0.99742 0.0
H673 H 0.46907 0.17803 0.97377 0.0
H674 H 0.51019 0.17536 0.89986 0.0
H675 H 0.55231 0.188 0.92313 0.0
C676 C 0.63133 0.30391 0.98895 0.0
C677 C 0.64184 0.30866 0.96348 0.0
C678 C 0.61742 0.2786 0.99496 0.0
C679 C 0.61373 0.25756 0.97565 0.0
C680 C 0.62398 0.26227 0.95015 0.0
C681 C 0.63807 0.28754 0.94415 0.0
C682 C 0.59926 0.23064 0.9823 0.0
C683 C 0.57598 0.22149 0.96856 0.0
C684 C 0.60747 0.21494 0.00331 0.0
C685 C 0.63249 0.2229 0.01775 0.0
C686 C 0.65631 0.2273 0.00389 0.0
C687 C 0.67978 0.23503 0.01759 0.0
C688 C 0.67971 0.23826 0.04519 0.0
C689 C 0.65618 0.2337 0.05915 0.0
C690 C 0.63265 0.22599 0.04554 0.0
C691 C 0.53046 0.11057 0.99926 0.0
C692 C 0.52605 0.10764 0.02663 0.0
C693 C 0.54372 0.13494 0.98952 0.0
C694 C 0.55218 0.15691 0.00695 0.0
C695 C 0.54672 0.15424 0.03412 0.0
C696 C 0.53397 0.12985 0.04387 0.0
C697 C 0.568 0.18218 0.9975 0.0
C698 C 0.59175 0.19099 0.01062 0.0
C699 C 0.56007 0.19761 0.97607 0.0
C700 C 0.53476 0.19016 0.96206 0.0
C701 C 0.51103 0.18745 0.97615 0.0
C702 C 0.48727 0.18019 0.96281 0.0
C703 C 0.48698 0.17579 0.93534 0.0
C704 C 0.51045 0.17873 0.92114 0.0
C705 C 0.53426 0.18597 0.93439 0.0
H706 H 0.46857 0.17016 0.92505 0.0
H707 H 0.6979 0.24425 0.05576 0.0
H708 H 0.99775 0.68884 0.50924 0.0
H709 H 0.99864 0.73596 0.52594 0.0
H710 H 0.02365 0.76619 0.44905 0.0
H711 H 0.02311 0.71907 0.43243 0.0
H712 H 0.05026 0.7952 0.48571 0.0
H713 H 0.95914 0.76591 0.47017 0.0
H714 H 0.91775 0.73522 0.47396 0.0
H715 H 0.91897 0.74756 0.55852 0.0
H716 H 0.96048 0.77824 0.55524 0.0
H717 H 0.97599 0.92012 0.52165 0.0
H718 H 0.97654 0.87309 0.50568 0.0
H719 H 0.04698 0.86722 0.55093 0.0
H720 H 0.04695 0.91468 0.56649 0.0
H721 H 0.97224 0.82619 0.52938 0.0
H722 H 0.08433 0.82463 0.51899 0.0
H723 H 0.1239 0.85665 0.5098 0.0
H724 H 0.07733 0.90868 0.46746 0.0
H725 H 0.03756 0.8768 0.47609 0.0
C726 C 1.00303 0.70553 0.49582 0.0
C727 C 0.00979 0.70034 0.46939 0.0
C728 C 0.00367 0.73246 0.5054 0.0
C729 C 0.01078 0.75464 0.48862 0.0
C730 C 0.01806 0.74943 0.46235 0.0
C731 C 0.01769 0.72252 0.45286 0.0
C732 C 0.01056 0.7833 0.49835 0.0
C733 C 0.03322 0.80196 0.49531 0.0
C734 C 0.98818 0.79228 0.51044 0.0
C735 C 0.96304 0.77416 0.51248 0.0
C736 C 0.95065 0.76196 0.48959 0.0
C737 C 0.92716 0.74458 0.49164 0.0
C738 C 0.91579 0.73933 0.51648 0.0
C739 C 0.92782 0.7516 0.5393 0.0
C740 C 0.9513 0.76904 0.53735 0.0
C741 C 0.99168 0.90889 0.52816 0.0
C742 C 0.01152 0.92119 0.54524 0.0
C743 C 0.99189 0.88193 0.51909 0.0
C744 C 0.01187 0.86665 0.52694 0.0
C745 C 0.03158 0.87875 0.54426 0.0
C746 C 0.03152 0.90586 0.55318 0.0
C747 C 0.01201 0.83809 0.51685 0.0
C748 C 0.98934 0.81942 0.5199 0.0
C749 C 0.03411 0.82933 0.50402 0.0
C750 C 0.05795 0.84847 0.49845 0.0
C751 C 0.08256 0.84286 0.50765 0.0
C752 C 0.10502 0.86099 0.50255 0.0
C753 C 0.10312 0.88473 0.48814 0.0
C754 C 0.07876 0.89034 0.47871 0.0
C755 C 0.05626 0.87226 0.48373 0.0
H756 H 0.12052 0.89875 0.48423 0.0
H757 H 0.89764 0.72581 0.51803 0.0
H758 H 0.52548 0.83415 0.60989 0.0
H759 H 0.52977 0.78689 0.59654 0.0
H760 H 0.44791 0.76366 0.61306 0.0
H761 H 0.44338 0.81103 0.6265 0.0
H762 H 0.48056 0.72613 0.63188 0.0
H763 H 0.4649 0.77182 0.55118 0.0
H764 H 0.47198 0.80841 0.51818 0.0
H765 H 0.55087 0.79034 0.50624 0.0
H766 H 0.54438 0.75388 0.53947 0.0
H767 H 0.4784 0.59669 0.56281 0.0
H768 H 0.46863 0.64157 0.57921 0.0
H769 H 0.54646 0.67706 0.55778 0.0
H770 H 0.55616 0.63263 0.54095 0.0
H771 H 0.51145 0.70776 0.54083 0.0
H772 H 0.52887 0.66503 0.62341 0.0
H773 H 0.5231 0.62929 0.65731 0.0
H774 H 0.44225 0.64174 0.66596 0.0
H775 H 0.44754 0.67758 0.63199 0.0
C776 C 0.50839 0.819 0.61082 0.0
C777 C 0.48405 0.82637 0.61911 0.0
C778 C 0.51087 0.79203 0.60311 0.0
C779 C 0.48909 0.7719 0.60356 0.0
C780 C 0.46492 0.77895 0.61253 0.0
C781 C 0.46237 0.80602 0.6201 0.0
C782 C 0.4916 0.74366 0.59407 0.0
C783 C 0.48691 0.72197 0.61185 0.0
C784 C 0.50027 0.73842 0.56807 0.0
C785 C 0.50422 0.76027 0.54799 0.0
C786 C 0.48383 0.77579 0.54168 0.0
C787 C 0.48772 0.79648 0.5229 0.0
C788 C 0.51188 0.80174 0.51016 0.0
C789 C 0.53217 0.78626 0.51614 0.0
C790 C 0.52839 0.76556 0.53493 0.0
C791 C 0.49346 0.61404 0.56176 0.0
C792 C 0.51803 0.61112 0.55052 0.0
C793 C 0.48789 0.63964 0.57122 0.0
C794 C 0.50687 0.66265 0.56984 0.0
C795 C 0.53148 0.65963 0.55896 0.0
C796 C 0.53701 0.63417 0.54939 0.0
C797 C 0.50103 0.69019 0.5788 0.0
C798 C 0.50496 0.71179 0.56083 0.0
C799 C 0.49179 0.69532 0.60464 0.0
C800 C 0.48852 0.67374 0.62496 0.0
C801 C 0.50981 0.65999 0.63239 0.0
C802 C 0.50663 0.63974 0.65165 0.0
C803 C 0.48229 0.63312 0.66369 0.0
C804 C 0.46108 0.64684 0.65657 0.0
C805 C 0.46417 0.66716 0.63736 0.0
H806 H 0.47987 0.61742 0.6786 0.0
H807 H 0.51485 0.81777 0.49563 0.0
H808 H 0.90765 0.86176 0.83705 0.0
H809 H 0.93104 0.87996 0.79753 0.0
H810 H 0.86486 0.92134 0.77618 0.0
H811 H 0.84152 0.90361 0.8157 0.0
H812 H 0.88445 0.89244 0.73338 0.0
H813 H 0.91736 0.9576 0.80179 0.0
H814 H 0.93847 0.97172 0.84463 0.0
H815 H 0.00805 0.9378 0.82028 0.0
H816 H 0.98719 0.92313 0.77741 0.0
H817 H 0.93716 0.97826 0.63136 0.0
H818 H 0.9168 0.95978 0.67195 0.0
H819 H 0.99082 0.93565 0.6973 0.0
H820 H 0.0116 0.95533 0.65705 0.0
H821 H 0.96849 0.95352 0.73841 0.0
H822 H 0.9379 0.88871 0.67064 0.0
H823 H 0.91794 0.87251 0.62782 0.0
H824 H 0.84567 0.90188 0.65065 0.0
H825 H 0.86532 0.9186 0.69348 0.0
C826 C 0.89807 0.87479 0.82401 0.0
C827 C 0.87264 0.88121 0.82974 0.0
C828 C 0.91153 0.88526 0.80141 0.0
C829 C 0.8998 0.90214 0.78382 0.0
C830 C 0.87437 0.90838 0.78937 0.0
C831 C 0.86107 0.89828 0.81212 0.0
C832 C 0.91379 0.91315 0.75951 0.0
C833 C 0.90268 0.90604 0.73449 0.0
C834 C 0.93806 0.93017 0.76078 0.0
C835 C 0.95061 0.939 0.78652 0.0
C836 C 0.93707 0.95292 0.80567 0.0
C837 C 0.94901 0.96108 0.82994 0.0
C838 C 0.97456 0.95558 0.83521 0.0
C839 C 0.98824 0.942 0.81619 0.0
C840 C 0.97638 0.93378 0.7919 0.0
C841 C 0.94917 0.96904 0.64555 0.0
C842 C 0.97604 0.96817 0.64077 0.0
C843 C 0.93742 0.95824 0.66879 0.0
C844 C 0.95199 0.94559 0.68768 0.0
C845 C 0.97897 0.94512 0.68315 0.0
C846 C 0.99087 0.95635 0.66004 0.0
C847 C 0.93905 0.93305 0.71207 0.0
C848 C 0.95034 0.93982 0.73715 0.0
C849 C 0.91512 0.91531 0.71085 0.0
C850 C 0.90316 0.90512 0.68518 0.0
C851 C 0.9178 0.89187 0.66646 0.0
C852 C 0.90654 0.88258 0.64219 0.0
C853 C 0.88058 0.88622 0.63649 0.0
C854 C 0.86579 0.8991 0.65508 0.0
C855 C 0.87697 0.90846 0.67937 0.0
H856 H 0.87189 0.87902 0.61769 0.0
H857 H 0.98377 0.96192 0.85401 0.0
H858 H 0.61433 0.13859 0.38174 0.0
H859 H 0.60008 0.13148 0.33565 0.0
H860 H 0.54609 0.06177 0.35834 0.0
H861 H 0.56038 0.06883 0.40461 0.0
H862 H 0.57242 0.05009 0.3153 0.0
H863 H 0.52434 0.12314 0.34246 0.0
H864 H 0.51886 0.16805 0.36285 0.0
H865 H 0.57008 0.20836 0.30467 0.0
H866 H 0.57623 0.16364 0.28417 0.0
H867 H 0.51695 0.03706 0.18538 0.0
H868 H 0.51992 0.04457 0.23357 0.0
H869 H 0.57831 0.11405 0.22238 0.0
H870 H 0.57491 0.10714 0.17442 0.0
H871 H 0.54413 0.12454 0.26083 0.0
H872 H 0.59608 0.0519 0.23743 0.0
H873 H 0.60344 0.00717 0.21777 0.0
H874 H 0.54544 0.96648 0.26941 0.0
H875 H 0.5375 0.01105 0.28915 0.0
C876 C 0.59896 0.1222 0.37704 0.0
C877 C 0.58798 0.1047 0.39687 0.0
C878 C 0.59093 0.11803 0.35065 0.0
C879 C 0.57162 0.09641 0.3436 0.0
C880 C 0.56088 0.07868 0.36335 0.0
C881 C 0.56904 0.08275 0.38974 0.0
C882 C 0.56339 0.0918 0.31548 0.0
C883 C 0.56571 0.0662 0.30354 0.0
C884 C 0.55507 0.11298 0.30001 0.0
C885 C 0.55089 0.13999 0.31188 0.0
C886 C 0.53454 0.14157 0.33408 0.0
C887 C 0.53132 0.16699 0.34566 0.0
C888 C 0.54416 0.19104 0.3351 0.0
C889 C 0.56016 0.18971 0.31284 0.0
C890 C 0.5635 0.16433 0.30121 0.0
C891 C 0.53012 0.05415 0.1932 0.0
C892 C 0.54593 0.07129 0.17609 0.0
C893 C 0.53192 0.05832 0.22072 0.0
C894 C 0.54958 0.07968 0.23156 0.0
C895 C 0.56462 0.0974 0.21446 0.0
C896 C 0.56286 0.09322 0.18704 0.0
C897 C 0.55349 0.08297 0.26066 0.0
C898 C 0.55041 0.10832 0.27275 0.0
C899 C 0.56114 0.0616 0.27629 0.0
C900 C 0.56598 0.03481 0.26453 0.0
C901 C 0.58476 0.03342 0.24444 0.0
C902 C 0.58905 0.0081 0.23331 0.0
C903 C 0.57485 0.984 0.24227 0.0
C904 C 0.55638 0.98517 0.26245 0.0
C905 C 0.55198 0.01045 0.27362 0.0
H906 H 0.57821 0.96442 0.23363 0.0
H907 H 0.54169 0.2107 0.34414 0.0
H908 H 0.37405 0.62864 0.28135 0.0
H909 H 0.39117 0.61192 0.32251 0.0
H910 H 0.46661 0.60953 0.28563 0.0
H911 H 0.44929 0.6252 0.24413 0.0
H912 H 0.45596 0.56598 0.31319 0.0
H913 H 0.45299 0.66178 0.33089 0.0
H914 H 0.43289 0.70484 0.33425 0.0
H915 H 0.37808 0.6688 0.3916 0.0
H916 H 0.39766 0.62539 0.38833 0.0
H917 H 0.5352 0.56753 0.42924 0.0
H918 H 0.5139 0.58015 0.38858 0.0
H919 H 0.43826 0.5632 0.42559 0.0
H920 H 0.45941 0.55018 0.46639 0.0
H921 H 0.44695 0.61472 0.3991 0.0
H922 H 0.45345 0.51922 0.38233 0.0
H923 H 0.4764 0.47798 0.37946 0.0
H924 H 0.528 0.51605 0.32037 0.0
H925 H 0.5056 0.5577 0.32317 0.0
C926 C 0.39429 0.62457 0.28203 0.0
C927 C 0.41035 0.62833 0.25952 0.0
C928 C 0.40411 0.61512 0.30562 0.0
C929 C 0.43033 0.60985 0.30737 0.0
C930 C 0.44632 0.61344 0.28482 0.0
C931 C 0.43641 0.62248 0.26111 0.0
C932 C 0.44114 0.6004 0.33257 0.0
C933 C 0.45421 0.57686 0.33189 0.0
C934 C 0.43845 0.6142 0.35717 0.0
C935 C 0.42661 0.64025 0.35914 0.0
C936 C 0.43652 0.66297 0.34405 0.0
C937 C 0.42525 0.68745 0.34597 0.0
C938 C 0.40417 0.68953 0.36307 0.0
C939 C 0.39438 0.66715 0.37833 0.0
C940 C 0.40556 0.64261 0.37647 0.0
C941 C 0.51402 0.56637 0.42873 0.0
C942 C 0.49896 0.55781 0.451 0.0
C943 C 0.5019 0.57352 0.40546 0.0
C944 C 0.47453 0.57246 0.40409 0.0
C945 C 0.45942 0.56409 0.4263 0.0
C946 C 0.47151 0.55657 0.44951 0.0
C947 C 0.46186 0.58059 0.37951 0.0
C948 C 0.44849 0.60384 0.38036 0.0
C949 C 0.46462 0.56679 0.35502 0.0
C950 C 0.47798 0.54168 0.35313 0.0
C951 C 0.46982 0.51889 0.36888 0.0
C952 C 0.48271 0.49542 0.36724 0.0
C953 C 0.50368 0.49442 0.34979 0.0
C954 C 0.51177 0.51686 0.3339 0.0
C955 C 0.49896 0.5404 0.33548 0.0
H956 H 0.51364 0.47623 0.34855 0.0
H957 H 0.39548 0.7085 0.36454 0.0
H958 H 0.12862 0.48564 0.70202 0.0
H959 H 0.12484 0.48088 0.74986 0.0
H960 H 0.07581 0.40391 0.73874 0.0
H961 H 0.078 0.40959 0.69078 0.0
H962 H 0.05483 0.43255 0.77331 0.0
H963 H 0.14102 0.40849 0.76431 0.0
H964 H 0.1869 0.41231 0.74926 0.0
H965 H 0.20357 0.48892 0.79169 0.0
H966 H 0.1577 0.48579 0.80671 0.0
H967 H 0.04501 0.42529 0.91176 0.0
H968 H 0.0634 0.41109 0.8694 0.0
H969 H 0.09908 0.49403 0.85787 0.0
H970 H 0.08041 0.50803 0.90003 0.0
H971 H 0.12909 0.45241 0.83657 0.0
H972 H 0.04031 0.47906 0.83677 0.0
H973 H 0.99454 0.47462 0.85232 0.0
H974 H 0.98367 0.39041 0.82609 0.0
H975 H 0.02957 0.39427 0.81079 0.0
C976 C 0.11717 0.46755 0.7097 0.0
C977 C 0.10407 0.44768 0.69241 0.0
C978 C 0.11531 0.46468 0.73715 0.0
C979 C 0.10061 0.44166 0.74805 0.0
C980 C 0.08763 0.42165 0.73085 0.0
C981 C 0.08922 0.42471 0.70331 0.0
C982 C 0.0969 0.43994 0.77727 0.0
C983 C 0.07119 0.43613 0.78707 0.0
C984 C 0.11814 0.44498 0.79542 0.0
C985 C 0.14583 0.44695 0.78653 0.0
C986 C 0.15441 0.42625 0.7703 0.0
C987 C 0.18044 0.42828 0.76179 0.0
C988 C 0.19813 0.45086 0.76949 0.0
C989 C 0.18985 0.47143 0.78575 0.0
C990 C 0.16384 0.46952 0.79431 0.0
C991 C 0.05781 0.44003 0.90065 0.0
C992 C 0.06167 0.46758 0.90896 0.0
C993 C 0.06816 0.43202 0.8765 0.0
C994 C 0.08242 0.45159 0.86046 0.0
C995 C 0.08829 0.47861 0.87003 0.0
C996 C 0.07772 0.48661 0.89403 0.0
C997 C 0.0872 0.44542 0.83216 0.0
C998 C 0.11296 0.44799 0.82263 0.0
C999 C 0.06608 0.439 0.81419 0.0
C1000 C 0.03841 0.43685 0.82295 0.0
C1001 C 0.0282 0.45955 0.8345 0.0
C1002 C 1.00225 0.45715 0.84325 0.0
C1003 C 0.98623 0.43223 0.84027 0.0
C1004 C 0.99612 0.40968 0.82844 0.0
C1005 C 0.0221 0.41196 0.81974 0.0
H1006 H 0.96614 0.4304 0.84705 0.0
H1007 H 0.21827 0.45239 0.76287 0.0
H1008 H 0.71851 0.89558 0.91106 0.0
H1009 H 0.67862 0.91199 0.92877 0.0
H1010 H 0.72378 0.9547 0.99216 0.0
H1011 H 0.76352 0.93836 0.97474 0.0
H1012 H 0.67865 0.92895 0.01106 0.0
H1013 H 0.7034 0.98862 0.93791 0.0
H1014 H 0.71426 0.99945 0.89132 0.0
H1015 H 0.63871 0.96049 0.86641 0.0
H1016 H 0.62754 0.94911 0.91284 0.0
H1017 H 0.58969 0.01811 0.05868 0.0
H1018 H 0.6272 0.99839 0.03983 0.0
H1019 H 0.5789 0.96361 0.97476 0.0
H1020 H 0.54149 0.98398 0.99314 0.0
H1021 H 0.62418 0.98295 0.9559 0.0
H1022 H 0.59822 0.92424 0.02815 0.0
H1023 H 0.58664 0.91249 0.07437 0.0
H1024 H 0.66308 0.94755 0.10054 0.0
H1025 H 0.67504 0.95984 0.05451 0.0
C1026 C 0.71995 0.90838 0.92882 0.0
C1027 C 0.74439 0.91564 0.94136 0.0
C1028 C 0.69709 0.9179 0.93889 0.0
C1029 C 0.69806 0.93489 0.96176 0.0
C1030 C 0.72235 0.94168 0.97454 0.0
C1031 C 0.74517 0.93233 0.96444 0.0
C1032 C 0.67399 0.9458 0.97243 0.0
C1033 C 0.66692 0.94099 0.99903 0.0
C1034 C 0.65806 0.96091 0.9567 0.0
C1035 C 0.66475 0.96775 0.9288 0.0
C1036 C 0.68919 0.98217 0.92247 0.0
C1037 C 0.69538 0.98844 0.8961 0.0
C1038 C 0.67722 0.98059 0.87591 0.0
C1039 C 0.65279 0.96651 0.88206 0.0
C1040 C 0.64651 0.96016 0.9084 0.0
C1041 C 0.58699 0.00624 0.04037 0.0
C1042 C 0.56242 0.0026 0.02756 0.0
C1043 C 0.6085 0.99478 0.02963 0.0
C1044 C 0.60601 0.97898 0.00598 0.0
C1045 C 0.58152 0.97559 0.99302 0.0
C1046 C 0.56004 0.98722 0.00364 0.0
C1047 C 0.62891 0.96632 0.99466 0.0
C1048 C 0.63578 0.97078 0.96793 0.0
C1049 C 0.64453 0.95066 0.01021 0.0
C1050 C 0.63744 0.94318 0.0379 0.0
C1051 C 0.6125 0.92962 0.04378 0.0
C1052 C 0.60588 0.92283 0.06994 0.0
C1053 C 0.62408 0.92933 0.09038 0.0
C1054 C 0.64899 0.94256 0.08469 0.0
C1055 C 0.65572 0.94941 0.05856 0.0
H1056 H 0.61891 0.92406 0.11061 0.0
H1057 H 0.68205 0.98547 0.8555 0.0
H1058 H 0.68137 0.04708 0.51674 0.0
H1059 H 0.7269 0.03995 0.52465 0.0
H1060 H 0.75304 0.11698 0.48787 0.0
H1061 H 0.70732 0.12438 0.47988 0.0
H1062 H 0.78066 0.07397 0.47081 0.0
H1063 H 0.75764 0.11507 0.55216 0.0
H1064 H 0.73035 0.12211 0.59128 0.0
H1065 H 0.73824 0.04068 0.61715 0.0
H1066 H 0.76527 0.03298 0.57796 0.0
H1067 H 0.91035 0.0514 0.51495 0.0
H1068 H 0.87109 0.07449 0.50766 0.0
H1069 H 0.82348 0.00694 0.54384 0.0
H1070 H 0.86229 0.98432 0.55163 0.0
H1071 H 0.81066 0.05569 0.56175 0.0
H1072 H 0.82722 0.01257 0.47679 0.0
H1073 H 0.8538 0.00481 0.43729 0.0
H1074 H 0.8579 0.09009 0.41835 0.0
H1075 H 0.83159 0.09841 0.45796 0.0
C1076 C 0.69676 0.06255 0.51032 0.0
C1077 C 0.69073 0.08635 0.49776 0.0
C1078 C 0.72277 0.05849 0.51495 0.0
C1079 C 0.7433 0.07809 0.5071 0.0
C1080 C 0.73744 0.10169 0.49417 0.0
C1081 C 0.71134 0.10589 0.4897 0.0
C1082 C 0.77078 0.07346 0.51233 0.0
C1083 C 0.78748 0.07057 0.49074 0.0
C1084 C 0.77954 0.06887 0.53832 0.0
C1085 C 0.76336 0.0734 0.56201 0.0
C1086 C 0.7534 0.09859 0.56608 0.0
C1087 C 0.738 0.10271 0.58829 0.0
C1088 C 0.73253 0.08184 0.60667 0.0
C1089 C 0.74249 0.05682 0.60289 0.0
C1090 C 0.75789 0.05259 0.5807 0.0
C1091 C 0.8915 0.04165 0.52147 0.0
C1092 C 0.88939 0.0159 0.53359 0.0
C1093 C 0.86912 0.05475 0.51719 0.0
C1094 C 0.84436 0.04232 0.52507 0.0
C1095 C 0.84237 0.0169 0.53758 0.0
C1096 C 0.86458 0.00383 0.54175 0.0
C1097 C 0.82017 0.05516 0.52015 0.0
C1098 C 0.80408 0.05967 0.54186 0.0
C1099 C 0.812 0.06119 0.49429 0.0
C1100 C 0.82775 0.05618 0.4705 0.0
C1101 C 0.83398 0.02971 0.46432 0.0
C1102 C 0.84896 0.0252 0.4419 0.0
C1103 C 0.85761 0.04696 0.42537 0.0
C1104 C 0.85123 0.07326 0.4312 0.0
C1105 C 0.83629 0.07789 0.45363 0.0
H1106 H 0.8692 0.04343 0.40801 0.0
H1107 H 0.72061 0.08508 0.62385 0.0
H1108 H 0.25315 0.64089 0.1561 0.0
H1109 H 0.21238 0.61784 0.13729 0.0
H1110 H 0.25623 0.57705 0.0791 0.0
H1111 H 0.29723 0.60015 0.09774 0.0
H1112 H 0.21547 0.60057 0.05689 0.0
H1113 H 0.2279 0.54122 0.12924 0.0
H1114 H 0.23616 0.52985 0.17574 0.0
H1115 H 0.16632 0.56334 0.19995 0.0
H1116 H 0.15783 0.57527 0.15363 0.0
H1117 H 0.10216 0.51397 0.00982 0.0
H1118 H 0.14564 0.53248 0.02643 0.0
H1119 H 0.10996 0.56897 0.09359 0.0
H1120 H 0.06673 0.54977 0.07762 0.0
H1121 H 0.14861 0.54452 0.11006 0.0
H1122 H 0.13732 0.607 0.03953 0.0
H1123 H 0.12871 0.62008 0.99359 0.0
H1124 H 0.19558 0.58288 0.96657 0.0
H1125 H 0.2044 0.56927 0.01233 0.0
C1126 C 0.25419 0.62683 0.13945 0.0
C1127 C 0.27845 0.62236 0.12843 0.0
C1128 C 0.23085 0.61362 0.12877 0.0
C1129 C 0.2313 0.59563 0.10689 0.0
C1130 C 0.25548 0.59086 0.09599 0.0
C1131 C 0.27887 0.60398 0.10676 0.0
C1132 C 0.20642 0.58255 0.09494 0.0
C1133 C 0.20099 0.58792 0.06835 0.0
C1134 C 0.18735 0.56661 0.1101 0.0
C1135 C 0.19235 0.55934 0.13798 0.0
C1136 C 0.21441 0.54635 0.1445 0.0
C1137 C 0.21911 0.53977 0.17082 0.0
C1138 C 0.2018 0.54592 0.19079 0.0
C1139 C 0.17972 0.55861 0.18446 0.0
C1140 C 0.17493 0.56525 0.15817 0.0
C1141 C 0.10363 0.5262 0.02796 0.0
C1142 C 0.08106 0.53042 0.04242 0.0
C1143 C 0.12848 0.53681 0.03743 0.0
C1144 C 0.13111 0.5523 0.06121 0.0
C1145 C 0.10848 0.55699 0.07529 0.0
C1146 C 0.08376 0.54608 0.06607 0.0
C1147 C 0.15733 0.56293 0.07208 0.0
C1148 C 0.16309 0.55704 0.09848 0.0
C1149 C 0.17657 0.57862 0.05681 0.0
C1150 C 0.17134 0.58686 0.02931 0.0
C1151 C 0.15007 0.60142 0.02376 0.0
C1152 C 0.14517 0.60897 0.99776 0.0
C1153 C 0.16154 0.60224 0.97717 0.0
C1154 C 0.18289 0.58803 0.98254 0.0
C1155 C 0.18786 0.58042 0.0085 0.0
H1156 H 0.15772 0.6081 0.95705 0.0
H1157 H 0.20548 0.54081 0.21116 0.0
H1158 H 0.2028 0.53463 0.59007 0.0
H1159 H 0.24976 0.53758 0.58086 0.0
H1160 H 0.24307 0.44977 0.56989 0.0
H1161 H 0.19618 0.44659 0.5793 0.0
H1162 H 0.28361 0.46846 0.60219 0.0
H1163 H 0.25078 0.49184 0.51711 0.0
H1164 H 0.22626 0.51788 0.48629 0.0
H1165 H 0.27429 0.59225 0.50883 0.0
H1166 H 0.29888 0.5667 0.54007 0.0
H1167 H 0.40698 0.4544 0.5473 0.0
H1168 H 0.35991 0.45435 0.55354 0.0
H1169 H 0.37053 0.54253 0.56149 0.0
H1170 H 0.41781 0.5427 0.55509 0.0
H1171 H 0.32824 0.52537 0.53146 0.0
H1172 H 0.36131 0.50261 0.61605 0.0
H1173 H 0.38594 0.47716 0.6473 0.0
H1174 H 0.33741 0.40253 0.62663 0.0
H1175 H 0.31271 0.42746 0.59496 0.0
C1176 C 0.21129 0.51595 0.58553 0.0
C1177 C 0.19576 0.49036 0.58543 0.0
C1178 C 0.23811 0.5177 0.58017 0.0
C1179 C 0.24986 0.49391 0.57452 0.0
C1180 C 0.23437 0.46838 0.57421 0.0
C1181 C 0.20757 0.46661 0.57952 0.0
C1182 C 0.27847 0.49546 0.56987 0.0
C1183 C 0.29332 0.48061 0.5865 0.0
C1184 C 0.29122 0.51201 0.54994 0.0
C1185 C 0.27649 0.5274 0.53113 0.0
C1186 C 0.25597 0.51379 0.51566 0.0
C1187 C 0.24209 0.52845 0.49808 0.0
C1188 C 0.24867 0.55672 0.49566 0.0
C1189 C 0.26919 0.57037 0.51076 0.0
C1190 C 0.28312 0.5558 0.52839 0.0
C1191 C 0.39935 0.47378 0.55053 0.0
C1192 C 0.41616 0.49854 0.55098 0.0
C1193 C 0.37242 0.47373 0.55405 0.0
C1194 C 0.36176 0.4984 0.55844 0.0
C1195 C 0.37837 0.52325 0.5582 0.0
C1196 C 0.40535 0.52332 0.5545 0.0
C1197 C 0.33332 0.4981 0.5636 0.0
C1198 C 0.31853 0.51324 0.54717 0.0
C1199 C 0.32058 0.48191 0.58382 0.0
C1200 C 0.33531 0.46687 0.60295 0.0
C1201 C 0.35601 0.48073 0.61802 0.0
C1202 C 0.36996 0.46641 0.63583 0.0
C1203 C 0.36328 0.43824 0.6389 0.0
C1204 C 0.34258 0.42434 0.62421 0.0
C1205 C 0.32858 0.43857 0.60634 0.0
H1206 H 0.37411 0.42718 0.6527 0.0
H1207 H 0.2379 0.56803 0.48203 0.0
H1208 H 0.88713 0.72976 0.89146 0.0
H1209 H 0.9076 0.69065 0.9074 0.0
H1210 H 0.91941 0.73015 0.98432 0.0
H1211 H 0.90026 0.76996 0.96791 0.0
H1212 H 0.95916 0.70616 0.97583 0.0
H1213 H 0.86792 0.67441 0.96827 0.0
H1214 H 0.8246 0.66506 0.94665 0.0
H1215 H 0.85625 0.61293 0.88891 0.0
H1216 H 0.89986 0.62225 0.90998 0.0
H1217 H 0.9767 0.58004 0.0426 0.0
H1218 H 0.95827 0.62113 0.02764 0.0
H1219 H 0.96599 0.59513 0.94623 0.0
H1220 H 0.98482 0.55449 0.96091 0.0
H1221 H 0.91596 0.61177 0.95866 0.0
H1222 H 0.00792 0.64474 0.96895 0.0
H1223 H 0.04954 0.65324 0.99385 0.0
H1224 H 0.01343 0.70234 0.05107 0.0
H1225 H 0.97147 0.6938 0.0267 0.0
C1226 C 0.89421 0.73019 0.91174 0.0
C1227 C 0.89192 0.75303 0.9284 0.0
C1228 C 0.90575 0.70761 0.92098 0.0
C1229 C 0.9146 0.70682 0.94742 0.0
C1230 C 0.91277 0.72993 0.9639 0.0
C1231 C 0.90173 0.75277 0.95449 0.0
C1232 C 0.9257 0.68204 0.95786 0.0
C1233 C 0.94939 0.68561 0.97233 0.0
C1234 C 0.91339 0.65489 0.9533 0.0
C1235 C 0.88721 0.64926 0.94055 0.0
C1236 C 0.86568 0.66111 0.95085 0.0
C1237 C 0.84107 0.65579 0.93871 0.0
C1238 C 0.8377 0.63848 0.91638 0.0
C1239 C 0.85891 0.62638 0.90618 0.0
C1240 C 0.88357 0.63165 0.91823 0.0
C1241 C 0.9746 0.58314 0.02151 0.0
C1242 C 0.9824 0.56394 0.00299 0.0
C1243 C 0.96408 0.60667 0.01297 0.0
C1244 C 0.96076 0.61133 0.98576 0.0
C1245 C 0.96832 0.59206 0.9673 0.0
C1246 C 0.97922 0.56884 0.97577 0.0
C1247 C 0.94925 0.63607 0.97637 0.0
C1248 C 0.92554 0.63242 0.96215 0.0
C1249 C 0.96123 0.66309 0.98162 0.0
C1250 C 0.98649 0.66839 0.99616 0.0
C1251 C 0.0088 0.65716 0.98697 0.0
C1252 C 0.03246 0.66202 1.00096 0.0
C1253 C 0.03411 0.67825 0.02407 0.0
C1254 C 0.01212 0.68973 0.03319 0.0
C1255 C 0.98839 0.68491 0.01929 0.0
H1256 H 0.05245 0.68199 0.03487 0.0
H1257 H 0.81863 0.63438 0.90702 0.0
H1258 H 0.42815 0.74976 0.18882 0.0
H1259 H 0.44755 0.79673 0.1799 0.0
H1260 H 0.41209 0.79112 0.10203 0.0
H1261 H 0.39312 0.74435 0.11052 0.0
H1262 H 0.46156 0.81429 0.09964 0.0
H1263 H 0.38568 0.8244 0.15464 0.0
H1264 H 0.35885 0.81777 0.19506 0.0
H1265 H 0.42246 0.85792 0.24197 0.0
H1266 H 0.44979 0.86448 0.20183 0.0
H1267 H 0.45387 0.94761 0.05769 0.0
H1268 H 0.44295 0.90142 0.07444 0.0
H1269 H 0.48779 0.92384 0.14558 0.0
H1270 H 0.49876 0.97042 0.12901 0.0
H1271 H 0.44037 0.89255 0.15578 0.0
H1272 H 0.51413 0.88782 0.0995 0.0
H1273 H 0.54015 0.89556 0.05869 0.0
H1274 H 0.48073 0.84551 0.01407 0.0
H1275 H 0.45408 0.83788 0.0545 0.0
C1276 C 0.42458 0.75852 0.16977 0.0
C1277 C 0.40901 0.74329 0.15042 0.0
C1278 C 0.43561 0.78539 0.16474 0.0
C1279 C 0.43109 0.79751 0.14036 0.0
C1280 C 0.41589 0.78218 0.12095 0.0
C1281 C 0.40497 0.75542 0.1259 0.0
C1282 C 0.44175 0.82625 0.13482 0.0
C1283 C 0.45682 0.8314 0.11185 0.0
C1284 C 0.4363 0.84854 0.15122 0.0
C1285 C 0.41987 0.84462 0.17531 0.0
C1286 C 0.39401 0.83161 0.17361 0.0
C1287 C 0.3787 0.8279 0.19646 0.0
C1288 C 0.38897 0.83733 0.22108 0.0
C1289 C 0.41455 0.85057 0.22289 0.0
C1290 C 0.42995 0.8543 0.2001 0.0
C1291 C 0.46133 0.94284 0.07697 0.0
C1292 C 0.47735 0.96265 0.09194 0.0
C1293 C 0.45514 0.91638 0.08647 0.0
C1294 C 0.46492 0.90911 0.11104 0.0
C1295 C 0.48018 0.92903 0.12649 0.0
C1296 C 0.48645 0.95559 0.11697 0.0
C1297 C 0.45939 0.88051 0.12016 0.0
C1298 C 0.44543 0.87541 0.1438 0.0
C1299 C 0.46586 0.85821 0.10438 0.0
C1300 C 0.48202 0.86242 0.08004 0.0
C1301 C 0.50652 0.8786 0.08096 0.0
C1302 C 0.5214 0.88296 0.05789 0.0
C1303 C 0.5121 0.87105 0.03381 0.0
C1304 C 0.48791 0.85472 0.03274 0.0
C1305 C 0.47291 0.85035 0.05574 0.0
H1306 H 0.52364 0.87446 0.01597 0.0
H1307 H 0.37709 0.83445 0.23875 0.0
H1308 H 0.01364 0.31099 0.61152 0.0
H1309 H 1.00103 0.26193 0.60387 0.0
H1310 H 0.06929 0.24418 0.64725 0.0
H1311 H 0.08222 0.2932 0.65473 0.0
H1312 H 0.06391 0.21566 0.60116 0.0
H1313 H 0.00817 0.23389 0.67449 0.0
H1314 H 0.97509 0.25757 0.698 0.0
H1315 H 0.91875 0.23239 0.63669 0.0
H1316 H 0.95163 0.20886 0.61263 0.0
H1317 H 0.03756 0.0756 0.62115 0.0
H1318 H 0.0427 0.12475 0.63037 0.0
H1319 H 0.97505 0.13328 0.58179 0.0
H1320 H 0.9695 0.08367 0.57263 0.0
H1321 H 0.97799 0.16678 0.62759 0.0
H1322 H 0.03321 0.14643 0.55539 0.0
H1323 H 0.06598 0.12143 0.53293 0.0
H1324 H 0.12336 0.15071 0.59197 0.0
H1325 H 0.09077 0.17533 0.6152 0.0
C1326 C 0.02592 0.29666 0.61956 0.0
C1327 C 0.04896 0.30603 0.63374 0.0
C1328 C 0.01861 0.2686 0.61525 0.0
C1329 C 0.03412 0.24938 0.62515 0.0
C1330 C 0.05705 0.25867 0.63942 0.0
C1331 C 0.06437 0.2867 0.64374 0.0
C1332 C 0.02694 0.2196 0.62003 0.0
C1333 C 0.04523 0.20494 0.60721 0.0
C1334 C 1.00223 0.20577 0.62717 0.0
C1335 C 0.98244 0.21987 0.64162 0.0
C1336 C 0.9888 0.2336 0.66591 0.0
C1337 C 0.97007 0.24696 0.67936 0.0
C1338 C 0.94486 0.24656 0.66881 0.0
C1339 C 0.9383 0.23273 0.64482 0.0
C1340 C 0.95697 0.21936 0.63128 0.0
C1341 C 0.02352 0.0878 0.61266 0.0
C1342 C 0.00328 0.07579 0.5959 0.0
C1343 C 0.02653 0.11592 0.61794 0.0
C1344 C 0.00957 0.13269 0.60634 0.0
C1345 C 0.98842 0.12065 0.59081 0.0
C1346 C 0.98529 0.09235 0.58559 0.0
C1347 C 0.01517 0.16288 0.60923 0.0
C1348 C 0.99659 0.17759 0.62145 0.0
C1349 C 0.03961 0.17684 0.60149 0.0
C1350 C 0.05946 0.16258 0.58717 0.0
C1351 C 0.05277 0.14742 0.56369 0.0
C1352 C 0.07131 0.13331 0.55081 0.0
C1353 C 0.09672 0.13449 0.56101 0.0
C1354 C 0.10366 0.14981 0.58409 0.0
C1355 C 0.08516 0.16384 0.59714 0.0
H1356 H 0.11105 0.12355 0.55101 0.0
H1357 H 0.93039 0.2569 0.67925 0.0
H1358 H 0.53556 0.24869 0.42261 0.0
H1359 H 0.53295 0.29729 0.43084 0.0
H1360 H 0.61563 0.31529 0.41498 0.0
H1361 H 0.61854 0.26645 0.40727 0.0
H1362 H 0.60364 0.33983 0.45943 0.0
H1363 H 0.56907 0.3342 0.37162 0.0
H1364 H 0.5408 0.3155 0.33445 0.0
H1365 H 0.47247 0.33159 0.37812 0.0
H1366 H 0.5003 0.35002 0.41573 0.0
H1367 H 0.59241 0.48358 0.47352 0.0
H1368 H 0.60061 0.43957 0.45351 0.0
H1369 H 0.52163 0.40543 0.47199 0.0
H1370 H 0.51326 0.44908 0.49193 0.0
H1371 H 0.53608 0.392 0.42114 0.0
H1372 H 0.57093 0.39207 0.51055 0.0
H1373 H 0.59926 0.41066 0.54775 0.0
H1374 H 0.66757 0.40518 0.49995 0.0
H1375 H 0.63959 0.3869 0.46232 0.0
C1376 C 0.55315 0.26298 0.42052 0.0
C1377 C 0.57728 0.25365 0.41438 0.0
C1378 C 0.5516 0.29083 0.4251 0.0
C1379 C 0.57406 0.31002 0.42331 0.0
C1380 C 0.59805 0.30086 0.41647 0.0
C1381 C 0.59966 0.27295 0.41199 0.0
C1382 C 0.57269 0.33927 0.43039 0.0
C1383 C 0.58925 0.35143 0.4506 0.0
C1384 C 0.55365 0.3543 0.41922 0.0
C1385 C 0.5368 0.34333 0.39659 0.0
C1386 C 0.54801 0.33357 0.37338 0.0
C1387 C 0.53206 0.32305 0.35222 0.0
C1388 C 0.50485 0.32232 0.35394 0.0
C1389 C 0.49354 0.33216 0.37682 0.0
C1390 C 0.5094 0.34269 0.39806 0.0
C1391 C 0.57679 0.4667 0.47326 0.0
C1392 C 0.55223 0.46978 0.48442 0.0
C1393 C 0.58151 0.4416 0.46185 0.0
C1394 C 0.56174 0.41925 0.46137 0.0
C1395 C 0.53711 0.42245 0.47209 0.0
C1396 C 0.53243 0.44739 0.48361 0.0
C1397 C 0.56667 0.39218 0.45041 0.0
C1398 C 0.55076 0.38048 0.42954 0.0
C1399 C 0.58635 0.37759 0.46089 0.0
C1400 C 0.60317 0.38845 0.48353 0.0
C1401 C 0.59198 0.39505 0.5079 0.0
C1402 C 0.60797 0.40549 0.52907 0.0
C1403 C 0.63519 0.40918 0.52619 0.0
C1404 C 0.64648 0.40236 0.50214 0.0
C1405 C 0.63057 0.39196 0.48089 0.0
H1406 H 0.64754 0.41726 0.5426 0.0
H1407 H 0.49253 0.31416 0.33753 0.0
loop_
_geom_bond_atom_site_label_1
_geom_bond_atom_site_label_2
_geom_bond_distance
_geom_bond_site_symmetry_2
_ccdc_geom_bond_type
O0 Cd1 2.300 . S
O0 C7 1.275 . S
Cd1 O0 2.300 . S
Cd1 O9 2.381 . S
Cd1 O10 2.378 . S
O2 Cd3 2.385 . S
O2 C7 1.255 . S
Cd3 O2 2.385 . S
Cd3 O4 2.317 . S
O4 Cd3 2.317 . S
O4 C5 1.232 . S
C5 O4 1.232 . S
C5 O6 1.218 . S
O6 C5 1.218 . S
C7 O0 1.275 . S
C7 O2 1.255 . S
C8 O9 1.258 . S
C8 O10 1.256 . S
O9 Cd1 2.381 . S
O9 C8 1.258 . S
O10 Cd1 2.378 . S
O10 C8 1.256 . S
O11 Cd12 2.300 . S
O11 C18 1.275 . S
Cd12 O11 2.300 . S
Cd12 O20 2.381 . S
Cd12 O21 2.378 . S
O13 Cd14 2.385 . S
O13 C18 1.255 . S
Cd14 O13 2.385 . S
Cd14 O15 2.317 . S
O15 Cd14 2.317 . S
O15 C16 1.232 . S
C16 O15 1.232 . S
C16 O17 1.218 . S
O17 C16 1.218 . S
C18 O11 1.275 . S
C18 O13 1.255 . S
C19 O20 1.258 . S
C19 O21 1.256 . S
O20 Cd12 2.381 . S
O20 C19 1.258 . S
O21 Cd12 2.378 . S
O21 C19 1.256 . S
O22 Cd23 2.300 . S
O22 C29 1.275 . S
Cd23 O22 2.300 . S
Cd23 O31 2.381 . S
Cd23 O32 2.378 . S
O24 Cd25 2.385 . S
O24 C29 1.255 . S
Cd25 O24 2.385 . S
Cd25 O26 2.317 . S
O26 Cd25 2.317 . S
O26 C27 1.232 . S
C27 O26 1.232 . S
C27 O28 1.218 . S
O28 C27 1.218 . S
C29 O22 1.275 . S
C29 O24 1.255 . S
C30 O31 1.258 . S
C30 O32 1.256 . S
O31 Cd23 2.381 . S
O31 C30 1.258 . S
O32 Cd23 2.378 . S
O32 C30 1.256 . S
O33 Cd34 2.300 . S
O33 C40 1.275 . S
Cd34 O33 2.300 . S
Cd34 O42 2.381 . S
Cd34 O43 2.378 . S
O35 Cd36 2.385 . S
O35 C40 1.255 . S
Cd36 O35 2.385 . S
Cd36 O37 2.317 . S
O37 Cd36 2.317 . S
O37 C38 1.232 . S
C38 O37 1.232 . S
C38 O39 1.218 . S
O39 C38 1.218 . S
C40 O33 1.275 . S
C40 O35 1.255 . S
C41 O42 1.258 . S
C41 O43 1.256 . S
O42 Cd34 2.381 . S
O42 C41 1.258 . S
O43 Cd34 2.378 . S
O43 C41 1.256 . S
O44 Cd45 2.300 . S
O44 C51 1.275 . S
Cd45 O44 2.300 . S
Cd45 O53 2.381 . S
Cd45 O54 2.378 . S
O46 Cd47 2.385 . S
O46 C51 1.255 . S
Cd47 O46 2.385 . S
Cd47 O48 2.317 . S
O48 Cd47 2.317 . S
O48 C49 1.232 . S
C49 O48 1.232 . S
C49 O50 1.218 . S
O50 C49 1.218 . S
C51 O44 1.275 . S
C51 O46 1.255 . S
C52 O53 1.258 . S
C52 O54 1.256 . S
O53 Cd45 2.381 . S
O53 C52 1.258 . S
O54 Cd45 2.378 . S
O54 C52 1.256 . S
O55 Cd56 2.300 . S
O55 C62 1.275 . S
Cd56 O55 2.300 . S
Cd56 O64 2.381 . S
Cd56 O65 2.378 . S
O57 Cd58 2.385 . S
O57 C62 1.255 . S
Cd58 O57 2.385 . S
Cd58 O59 2.317 . S
O59 Cd58 2.317 . S
O59 C60 1.232 . S
C60 O59 1.232 . S
C60 O61 1.218 . S
O61 C60 1.218 . S
C62 O55 1.275 . S
C62 O57 1.255 . S
C63 O64 1.258 . S
C63 O65 1.256 . S
O64 Cd56 2.381 . S
O64 C63 1.258 . S
O65 Cd56 2.378 . S
O65 C63 1.256 . S
O66 Cd67 2.300 . S
O66 C73 1.275 . S
Cd67 O66 2.300 . S
Cd67 O75 2.381 . S
Cd67 O76 2.378 . S
O68 Cd69 2.385 . S
O68 C73 1.255 . S
Cd69 O68 2.385 . S
Cd69 O70 2.317 . S
O70 Cd69 2.317 . S
O70 C71 1.232 . S
C71 O70 1.232 . S
C71 O72 1.218 . S
O72 C71 1.218 . S
C73 O66 1.275 . S
C73 O68 1.255 . S
C74 O75 1.258 . S
C74 O76 1.256 . S
O75 Cd67 2.381 . S
O75 C74 1.258 . S
O76 Cd67 2.378 . S
O76 C74 1.256 . S
O77 Cd78 2.300 . S
O77 C84 1.275 . S
Cd78 O77 2.300 . S
Cd78 O86 2.381 . S
Cd78 O87 2.378 . S
O79 Cd80 2.385 . S
O79 C84 1.255 . S
Cd80 O79 2.385 . S
Cd80 O81 2.317 . S
O81 Cd80 2.317 . S
O81 C82 1.232 . S
C82 O81 1.232 . S
C82 O83 1.218 . S
O83 C82 1.218 . S
C84 O77 1.275 . S
C84 O79 1.255 . S
C85 O86 1.258 . S
C85 O87 1.256 . S
O86 Cd78 2.381 . S
O86 C85 1.258 . S
O87 Cd78 2.378 . S
O87 C85 1.256 . S
Co88 N93 2.057 . S
Co88 O105 2.021 . S
Co88 O108 2.062 . S
Co88 O112 2.117 1_545 S
Co88 O113 2.034 . S
C89 O109 1.259 1_655 S
C89 O112 1.258 . S
Co90 N99 2.057 . S
Co90 O106 2.117 1_565 S
Co90 O107 2.020 1_565 S
Co90 O109 2.021 . S
Co90 O114 2.062 . S
C91 N93 1.316 . S
C91 N94 1.347 . S
C91 H96 0.931 . S
C92 N93 1.375 1_565 S
C92 C95 1.350 1_565 S
C92 H97 0.930 . S
N93 Co88 2.057 . S
N93 C91 1.316 . S
N93 C92 1.375 1_545 S
N94 C91 1.347 . S
N94 C95 1.373 . S
C95 C92 1.350 1_545 S
C95 N94 1.373 . S
C95 H116 0.931 1_545 S
H96 C91 0.931 . S
H97 C92 0.930 . S
C98 O105 1.259 1_455 S
C98 O106 1.258 . S
N99 Co90 2.057 . S
N99 C100 1.316 . S
N99 C101 1.375 1_565 S
C100 N99 1.316 . S
C100 N102 1.347 . S
C100 H111 0.931 . S
C101 N99 1.375 1_545 S
C101 C103 1.350 . S
C101 H110 0.930 . S
N102 C100 1.347 . S
N102 C103 1.373 1_565 S
C103 C101 1.350 . S
C103 N102 1.373 1_545 S
C103 H117 0.931 . S
C104 O107 1.256 . S
C104 O108 1.255 1_455 S
O105 Co88 2.021 . S
O105 C98 1.259 1_655 S
O106 Co90 2.117 1_545 S
O106 C98 1.258 . S
O107 Co90 2.020 1_545 S
O107 C104 1.256 . S
O108 Co88 2.062 . S
O108 C104 1.255 1_655 S
O109 C89 1.259 1_455 S
O109 Co90 2.021 . S
H110 C101 0.930 . S
H111 C100 0.931 . S
O112 Co88 2.117 1_565 S
O112 C89 1.258 . S
O113 Co88 2.034 . S
O113 C115 1.235 1_545 S
O114 Co90 2.062 . S
O114 C115 1.255 1_455 S
C115 O113 1.235 1_565 S
C115 O114 1.255 1_655 S
H116 C95 0.931 1_565 S
H117 C103 0.931 . S
Co118 N123 2.068 1_554 S
Co118 O135 2.021 . S
Co118 O138 2.062 . S
Co118 O142 2.117 1_545 S
Co118 O143 2.020 . S
C119 O139 1.259 . S
C119 O142 1.258 . S
Co120 N129 2.057 . S
Co120 O136 2.117 . S
Co120 O137 2.020 . S
Co120 O139 2.021 1_545 S
Co120 O144 2.062 . S
C121 N123 1.325 . S
C121 N124 1.347 1_545 S
C121 H126 0.931 . S
C122 N123 1.352 1_565 S
C122 C125 1.350 . S
C122 H127 0.930 1_556 S
N123 Co118 2.068 1_556 S
N123 C121 1.325 . S
N123 C122 1.352 1_545 S
N124 C121 1.347 1_565 S
N124 C125 1.373 . S
C125 C122 1.350 . S
C125 N124 1.373 . S
C125 H146 0.931 . S
H126 C121 0.931 . S
H127 C122 0.930 1_554 S
C128 O135 1.259 . S
C128 O136 1.258 . S
N129 Co120 2.057 . S
N129 C130 1.316 . S
N129 C131 1.375 . S
C130 N129 1.316 . S
C130 N132 1.347 . S
C130 H141 0.931 . S
C131 N129 1.375 . S
C131 C133 1.350 . S
C131 H140 0.930 . S
N132 C130 1.347 . S
N132 C133 1.373 . S
C133 C131 1.350 . S
C133 N132 1.373 . S
C133 H147 0.931 . S
C134 O137 1.256 . S
C134 O138 1.255 . S
O135 Co118 2.021 . S
O135 C128 1.259 . S
O136 Co120 2.117 . S
O136 C128 1.258 . S
O137 Co120 2.020 . S
O137 C134 1.256 . S
O138 Co118 2.062 . S
O138 C134 1.255 . S
O139 C119 1.259 . S
O139 Co120 2.021 1_565 S
H140 C131 0.930 . S
H141 C130 0.931 . S
O142 Co118 2.117 1_565 S
O142 C119 1.258 . S
O143 Co118 2.020 . S
O143 C145 1.256 . S
O144 Co120 2.062 . S
O144 C145 1.255 . S
C145 O143 1.256 . S
C145 O144 1.255 . S
H146 C125 0.931 . S
H147 C133 0.931 . S
Co148 N153 2.057 . S
Co148 O165 2.021 . S
Co148 O168 2.062 . S
Co148 O172 2.117 . S
Co148 O173 2.020 . S
C149 O169 1.259 . S
C149 O172 1.258 . S
Co150 N159 2.057 . S
Co150 O166 2.117 . S
Co150 O167 2.020 . S
Co150 O169 2.021 . S
Co150 O174 2.062 . S
C151 N153 1.316 . S
C151 N154 1.347 . S
C151 H156 0.931 . S
C152 N153 1.375 . S
C152 C155 1.350 . S
C152 H157 0.930 . S
N153 Co148 2.057 . S
N153 C151 1.316 . S
N153 C152 1.375 . S
N154 C151 1.347 . S
N154 C155 1.373 . S
C155 C152 1.350 . S
C155 N154 1.373 . S
C155 H176 0.931 . S
H156 C151 0.931 . S
H157 C152 0.930 . S
C158 O165 1.259 . S
C158 O166 1.258 . S
N159 Co150 2.057 . S
N159 C160 1.316 . S
N159 C161 1.375 . S
C160 N159 1.316 . S
C160 N162 1.347 . S
C160 H171 0.931 . S
C161 N159 1.375 . S
C161 C163 1.350 . S
C161 H170 0.930 . S
N162 C160 1.347 . S
N162 C163 1.373 . S
C163 C161 1.350 . S
C163 N162 1.373 . S
C163 H177 0.931 . S
C164 O167 1.256 . S
C164 O168 1.255 . S
O165 Co148 2.021 . S
O165 C158 1.259 . S
O166 Co150 2.117 . S
O166 C158 1.258 . S
O167 Co150 2.020 . S
O167 C164 1.256 . S
O168 Co148 2.062 . S
O168 C164 1.255 . S
O169 C149 1.259 . S
O169 Co150 2.021 . S
H170 C161 0.930 . S
H171 C160 0.931 . S
O172 Co148 2.117 . S
O172 C149 1.258 . S
O173 Co148 2.020 . S
O173 C175 1.256 . S
O174 Co150 2.062 . S
O174 C175 1.255 . S
C175 O173 1.256 . S
C175 O174 1.255 . S
H176 C155 0.931 . S
H177 C163 0.931 . S
Co178 N183 2.057 . S
Co178 O195 2.021 1_556 S
Co178 O198 2.062 1_556 S
Co178 O202 2.117 1_455 S
Co178 O203 2.020 . S
C179 O199 1.259 . S
C179 O202 1.258 1_554 S
Co180 N189 2.057 . S
Co180 O196 2.117 . S
Co180 O197 2.020 . S
Co180 O199 2.021 1_455 S
Co180 O204 2.062 . S
C181 N183 1.316 . S
C181 N184 1.347 . S
C181 H186 0.931 . S
C182 N183 1.375 . S
C182 C185 1.350 . S
C182 H187 0.930 1_455 S
N183 Co178 2.057 . S
N183 C181 1.316 . S
N183 C182 1.375 . S
N184 C181 1.347 . S
N184 C185 1.373 . S
C185 C182 1.350 . S
C185 N184 1.373 . S
C185 H206 0.931 . S
H186 C181 0.931 . S
H187 C182 0.930 1_655 S
C188 O195 1.259 . S
C188 O196 1.258 . S
N189 Co180 2.057 . S
N189 C190 1.316 1_455 S
N189 C191 1.375 . S
C190 N189 1.316 1_655 S
C190 N192 1.347 . S
C190 H201 0.931 . S
C191 N189 1.375 . S
C191 C193 1.350 . S
C191 H200 0.930 . S
N192 C190 1.347 . S
N192 C193 1.373 1_655 S
C193 C191 1.350 . S
C193 N192 1.373 1_455 S
C193 H207 0.931 . S
C194 O197 1.256 . S
C194 O198 1.255 . S
O195 Co178 2.021 1_554 S
O195 C188 1.259 . S
O196 Co180 2.117 . S
O196 C188 1.258 . S
O197 Co180 2.020 . S
O197 C194 1.256 . S
O198 Co178 2.062 1_554 S
O198 C194 1.255 . S
O199 C179 1.259 . S
O199 Co180 2.021 1_655 S
H200 C191 0.930 . S
H201 C190 0.931 . S
O202 Co178 2.117 1_655 S
O202 C179 1.258 1_556 S
O203 Co178 2.020 . S
O203 C205 1.256 1_556 S
O204 Co180 2.062 . S
O204 C205 1.255 . S
C205 O203 1.256 1_554 S
C205 O204 1.255 . S
H206 C185 0.931 . S
H207 C193 0.931 . S
H208 C226 0.951 . S
H209 C228 0.951 . S
H210 C230 0.950 . S
H211 C231 0.950 . S
H212 C233 0.950 . S
H213 C236 0.950 . S
H214 C237 0.950 . S
H215 C239 0.950 . S
H216 C240 0.951 . S
H217 C241 0.910 1_655 S
H218 C243 0.951 . S
H219 C245 0.950 . S
H220 C246 0.950 . S
H221 C248 0.950 . S
H222 C251 0.950 . S
H223 C252 0.950 . S
H224 C254 0.950 . S
H225 C255 0.950 . S
C226 H208 0.951 . S
C226 C227 1.366 . S
C226 C228 1.388 . S
C227 C226 1.366 . S
C227 C231 1.385 . S
C228 H209 0.951 . S
C228 C226 1.388 . S
C228 C229 1.366 . S
C229 C228 1.366 . S
C229 C230 1.414 . S
C229 C232 1.499 . S
C230 H210 0.950 . S
C230 C229 1.414 . S
C230 C231 1.374 . S
C231 H211 0.950 . S
C231 C227 1.385 . S
C231 C230 1.374 . S
C232 C229 1.499 . S
C232 C233 1.373 . S
C232 C234 1.389 . S
C233 H212 0.950 . S
C233 C232 1.373 . S
C233 C249 1.377 . S
C234 C232 1.389 . S
C234 C235 1.524 . S
C234 C248 1.377 . S
C235 C234 1.524 . S
C235 C236 1.397 . S
C235 C240 1.363 1_545 S
C236 H213 0.950 . S
C236 C235 1.397 . S
C236 C237 1.334 1_545 S
C237 H214 0.950 . S
C237 C236 1.334 1_565 S
C237 C238 1.287 . S
C238 C237 1.287 . S
C238 C239 1.524 . S
C238 H257 0.913 . S
C239 H215 0.950 . S
C239 C238 1.524 . S
C239 C240 1.415 . S
C240 H216 0.951 . S
C240 C235 1.363 1_565 S
C240 C239 1.415 . S
C241 H217 0.910 1_455 S
C241 C242 1.366 . S
C241 C243 1.388 . S
C242 C241 1.366 . S
C242 C246 1.385 . S
C243 H218 0.951 . S
C243 C241 1.388 . S
C243 C244 1.366 . S
C244 C243 1.366 . S
C244 C245 1.414 . S
C244 C247 1.499 . S
C245 H219 0.950 . S
C245 C244 1.414 . S
C245 C246 1.374 . S
C246 H220 0.950 . S
C246 C242 1.385 . S
C246 C245 1.374 . S
C247 C244 1.499 . S
C247 C248 1.373 . S
C247 C249 1.389 . S
C248 H221 0.950 . S
C248 C234 1.377 . S
C248 C247 1.373 . S
C249 C233 1.377 . S
C249 C247 1.389 . S
C249 C250 1.524 . S
C250 C249 1.524 . S
C250 C251 1.397 . S
C250 C255 1.363 . S
C251 H222 0.950 . S
C251 C250 1.397 . S
C251 C252 1.334 . S
C252 H223 0.950 . S
C252 C251 1.334 . S
C252 C253 1.287 . S
C253 C252 1.287 . S
C253 C254 1.524 . S
C253 H256 0.999 . S
C254 H224 0.950 . S
C254 C253 1.524 . S
C254 C255 1.415 . S
C255 H225 0.950 . S
C255 C250 1.363 . S
C255 C254 1.415 . S
H256 C253 0.999 . S
H257 C238 0.913 . S
H258 C276 0.951 . S
H259 C278 0.951 . S
H260 C280 0.950 . S
H261 C281 0.950 . S
H262 C283 0.950 . S
H263 C286 0.950 . S
H264 C287 0.950 . S
H265 C289 0.950 . S
H266 C290 0.950 . S
H267 C291 0.951 1_545 S
H268 C293 0.951 . S
H269 C295 0.950 . S
H270 C296 0.950 . S
H271 C298 0.950 . S
H272 C301 0.950 . S
H273 C302 0.950 . S
H274 C304 0.950 . S
H275 C305 0.950 . S
C276 H258 0.951 . S
C276 C277 1.366 . S
C276 C278 1.388 . S
C277 C276 1.366 . S
C277 C281 1.385 . S
C278 H259 0.951 . S
C278 C276 1.388 . S
C278 C279 1.366 . S
C279 C278 1.366 . S
C279 C280 1.414 . S
C279 C282 1.499 . S
C280 H260 0.950 . S
C280 C279 1.414 . S
C280 C281 1.374 . S
C281 H261 0.950 . S
C281 C277 1.385 . S
C281 C280 1.374 . S
C282 C279 1.499 . S
C282 C283 1.373 . S
C282 C284 1.389 . S
C283 H262 0.950 . S
C283 C282 1.373 . S
C283 C299 1.377 . S
C284 C282 1.389 . S
C284 C285 1.524 . S
C284 C298 1.377 . S
C285 C284 1.524 . S
C285 C286 1.397 . S
C285 C290 1.363 . S
C286 H263 0.950 . S
C286 C285 1.397 . S
C286 C287 1.334 . S
C287 H264 0.950 . S
C287 C286 1.334 . S
C287 C288 1.287 . S
C288 C287 1.287 . S
C288 C289 1.524 . S
C288 H307 0.913 . S
C289 H265 0.950 . S
C289 C288 1.524 . S
C289 C290 1.415 . S
C290 H266 0.950 . S
C290 C285 1.363 . S
C290 C289 1.415 . S
C291 H267 0.951 1_565 S
C291 C292 1.366 . S
C291 C293 1.388 . S
C292 C291 1.366 . S
C292 C296 1.385 . S
C293 H268 0.951 . S
C293 C291 1.388 . S
C293 C294 1.366 . S
C294 C293 1.366 . S
C294 C295 1.414 . S
C294 C297 1.499 . S
C295 H269 0.950 . S
C295 C294 1.414 . S
C295 C296 1.374 . S
C296 H270 0.950 . S
C296 C292 1.385 . S
C296 C295 1.374 . S
C297 C294 1.499 . S
C297 C298 1.373 . S
C297 C299 1.389 . S
C298 H271 0.950 . S
C298 C284 1.377 . S
C298 C297 1.373 . S
C299 C283 1.377 . S
C299 C297 1.389 . S
C299 C300 1.524 1_565 S
C300 C299 1.524 1_545 S
C300 C301 1.397 . S
C300 C305 1.363 . S
C301 H272 0.950 . S
C301 C300 1.397 . S
C301 C302 1.334 . S
C302 H273 0.950 . S
C302 C301 1.334 . S
C302 C303 1.287 . S
C303 C302 1.287 . S
C303 C304 1.524 . S
C303 H306 0.999 . S
C304 H274 0.950 . S
C304 C303 1.524 . S
C304 C305 1.415 . S
C305 H275 0.950 . S
C305 C300 1.363 . S
C305 C304 1.415 . S
H306 C303 0.999 . S
H307 C288 0.913 . S
H308 C326 0.951 . S
H309 C328 0.951 . S
H310 C330 0.950 . S
H311 C331 0.950 . S
H312 C333 0.950 . S
H313 C336 0.950 . S
H314 C337 0.950 . S
H315 C339 0.950 . S
H316 C340 0.950 . S
H317 C341 0.951 . S
H318 C343 0.951 . S
H319 C345 0.950 . S
H320 C346 0.950 . S
H321 C348 0.950 . S
H322 C351 0.950 . S
H323 C352 0.950 . S
H324 C354 0.950 . S
H325 C355 0.950 . S
C326 H308 0.951 . S
C326 C327 1.366 . S
C326 C328 1.388 . S
C327 C326 1.366 . S
C327 C331 1.385 . S
C328 H309 0.951 . S
C328 C326 1.388 . S
C328 C329 1.366 . S
C329 C328 1.366 . S
C329 C330 1.414 . S
C329 C332 1.499 . S
C330 H310 0.950 . S
C330 C329 1.414 . S
C330 C331 1.374 . S
C331 H311 0.950 . S
C331 C327 1.385 . S
C331 C330 1.374 . S
C332 C329 1.499 . S
C332 C333 1.373 . S
C332 C334 1.389 . S
C333 H312 0.950 . S
C333 C332 1.373 . S
C333 C349 1.377 . S
C334 C332 1.389 . S
C334 C335 1.524 . S
C334 C348 1.377 . S
C335 C334 1.524 . S
C335 C336 1.397 . S
C335 C340 1.363 . S
C336 H313 0.950 . S
C336 C335 1.397 . S
C336 C337 1.334 . S
C337 H314 0.950 . S
C337 C336 1.334 . S
C337 C338 1.287 . S
C338 C337 1.287 . S
C338 C339 1.524 . S
C338 H357 0.913 . S
C339 H315 0.950 . S
C339 C338 1.524 . S
C339 C340 1.415 . S
C340 H316 0.950 . S
C340 C335 1.363 . S
C340 C339 1.415 . S
C341 H317 0.951 . S
C341 C342 1.366 . S
C341 C343 1.388 . S
C342 C341 1.366 . S
C342 C346 1.385 . S
C343 H318 0.951 . S
C343 C341 1.388 . S
C343 C344 1.366 . S
C344 C343 1.366 . S
C344 C345 1.414 . S
C344 C347 1.499 . S
C345 H319 0.950 . S
C345 C344 1.414 . S
C345 C346 1.374 . S
C346 H320 0.950 . S
C346 C342 1.385 . S
C346 C345 1.374 . S
C347 C344 1.499 . S
C347 C348 1.373 . S
C347 C349 1.389 . S
C348 H321 0.950 . S
C348 C334 1.377 . S
C348 C347 1.373 . S
C349 C333 1.377 . S
C349 C347 1.389 . S
C349 C350 1.524 . S
C350 C349 1.524 . S
C350 C351 1.397 . S
C350 C355 1.363 . S
C351 H322 0.950 . S
C351 C350 1.397 . S
C351 C352 1.334 . S
C352 H323 0.950 . S
C352 C351 1.334 . S
C352 C353 1.287 . S
C353 C352 1.287 . S
C353 C354 1.524 . S
C353 H356 0.999 . S
C354 H324 0.950 . S
C354 C353 1.524 . S
C354 C355 1.415 . S
C355 H325 0.950 . S
C355 C350 1.363 . S
C355 C354 1.415 . S
H356 C353 0.999 . S
H357 C338 0.913 . S
H358 C376 0.951 . S
H359 C378 0.951 . S
H360 C380 0.950 . S
H361 C381 0.950 . S
H362 C383 0.950 1_455 S
H363 C386 0.950 . S
H364 C387 0.950 . S
H365 C389 0.950 . S
H366 C390 0.950 . S
H367 C391 0.951 . S
H368 C393 0.951 . S
H369 C395 0.950 . S
H370 C396 0.950 . S
H371 C398 0.950 . S
H372 C401 0.950 . S
H373 C402 0.950 . S
H374 C404 0.950 . S
H375 C405 0.950 . S
C376 H358 0.951 . S
C376 C377 1.366 . S
C376 C378 1.388 . S
C377 C376 1.366 . S
C377 C381 1.385 . S
C378 H359 0.951 . S
C378 C376 1.388 . S
C378 C379 1.366 . S
C379 C378 1.366 . S
C379 C380 1.414 . S
C379 C382 1.499 . S
C380 H360 0.950 . S
C380 C379 1.414 . S
C380 C381 1.374 . S
C381 H361 0.950 . S
C381 C377 1.385 . S
C381 C380 1.374 . S
C382 C379 1.499 . S
C382 C383 1.373 . S
C382 C384 1.389 . S
C383 H362 0.950 1_655 S
C383 C382 1.373 . S
C383 C399 1.377 . S
C384 C382 1.389 . S
C384 C385 1.524 . S
C384 C398 1.377 . S
C385 C384 1.524 . S
C385 C386 1.397 . S
C385 C390 1.363 . S
C386 H363 0.950 . S
C386 C385 1.397 . S
C386 C387 1.334 . S
C387 H364 0.950 . S
C387 C386 1.334 . S
C387 C388 1.287 . S
C388 C387 1.287 . S
C388 C389 1.524 . S
C388 H407 0.913 . S
C389 H365 0.950 . S
C389 C388 1.524 . S
C389 C390 1.415 . S
C390 H366 0.950 . S
C390 C385 1.363 . S
C390 C389 1.415 . S
C391 H367 0.951 . S
C391 C392 1.366 . S
C391 C393 1.388 . S
C392 C391 1.366 . S
C392 C396 1.385 . S
C393 H368 0.951 . S
C393 C391 1.388 . S
C393 C394 1.366 . S
C394 C393 1.366 . S
C394 C395 1.414 . S
C394 C397 1.499 . S
C395 H369 0.950 . S
C395 C394 1.414 . S
C395 C396 1.374 . S
C396 H370 0.950 . S
C396 C392 1.385 . S
C396 C395 1.374 . S
C397 C394 1.499 . S
C397 C398 1.373 . S
C397 C399 1.389 . S
C398 H371 0.950 . S
C398 C384 1.377 . S
C398 C397 1.373 . S
C399 C383 1.377 . S
C399 C397 1.389 . S
C399 C400 1.524 1_655 S
C400 C399 1.524 1_455 S
C400 C401 1.397 . S
C400 C405 1.363 . S
C401 H372 0.950 . S
C401 C400 1.397 . S
C401 C402 1.334 . S
C402 H373 0.950 . S
C402 C401 1.334 . S
C402 C403 1.287 . S
C403 C402 1.287 . S
C403 C404 1.524 . S
C403 H406 0.999 . S
C404 H374 0.950 . S
C404 C403 1.524 . S
C404 C405 1.415 . S
C405 H375 0.950 . S
C405 C400 1.363 . S
C405 C404 1.415 . S
H406 C403 0.999 . S
H407 C388 0.913 . S
H408 C426 0.951 . S
H409 C428 0.951 . S
H410 C430 0.950 . S
H411 C431 0.950 . S
H412 C433 0.950 . S
H413 C436 0.950 . S
H414 C437 0.950 . S
H415 C439 0.950 . S
H416 C440 0.950 . S
H417 C441 0.951 . S
H418 C443 0.951 . S
H419 C445 0.950 . S
H420 C446 0.950 . S
H421 C448 0.950 . S
H422 C451 0.950 . S
H423 C452 0.950 . S
H424 C454 0.950 . S
H425 C455 0.950 . S
C426 H408 0.951 . S
C426 C427 1.366 . S
C426 C428 1.388 . S
C427 C426 1.366 . S
C427 C431 1.385 . S
C428 H409 0.951 . S
C428 C426 1.388 . S
C428 C429 1.366 . S
C429 C428 1.366 . S
C429 C430 1.414 . S
C429 C432 1.499 . S
C430 H410 0.950 . S
C430 C429 1.414 . S
C430 C431 1.374 . S
C431 H411 0.950 . S
C431 C427 1.385 . S
C431 C430 1.374 . S
C432 C429 1.499 . S
C432 C433 1.373 . S
C432 C434 1.389 . S
C433 H412 0.950 . S
C433 C432 1.373 . S
C433 C449 1.377 . S
C434 C432 1.389 . S
C434 C435 1.524 . S
C434 C448 1.377 . S
C435 C434 1.524 . S
C435 C436 1.397 . S
C435 C440 1.363 . S
C436 H413 0.950 . S
C436 C435 1.397 . S
C436 C437 1.334 . S
C437 H414 0.950 . S
C437 C436 1.334 . S
C437 C438 1.287 . S
C438 C437 1.287 . S
C438 C439 1.524 . S
C438 H457 0.913 . S
C439 H415 0.950 . S
C439 C438 1.524 . S
C439 C440 1.415 . S
C440 H416 0.950 . S
C440 C435 1.363 . S
C440 C439 1.415 . S
C441 H417 0.951 . S
C441 C442 1.366 . S
C441 C443 1.388 . S
C442 C441 1.366 . S
C442 C446 1.385 . S
C443 H418 0.951 . S
C443 C441 1.388 . S
C443 C444 1.366 . S
C444 C443 1.366 . S
C444 C445 1.414 . S
C444 C447 1.499 . S
C445 H419 0.950 . S
C445 C444 1.414 . S
C445 C446 1.374 . S
C446 H420 0.950 . S
C446 C442 1.385 . S
C446 C445 1.374 . S
C447 C444 1.499 . S
C447 C448 1.373 . S
C447 C449 1.389 . S
C448 H421 0.950 . S
C448 C434 1.377 . S
C448 C447 1.373 . S
C449 C433 1.377 . S
C449 C447 1.389 . S
C449 C450 1.524 . S
C450 C449 1.524 . S
C450 C451 1.397 . S
C450 C455 1.363 . S
C451 H422 0.950 . S
C451 C450 1.397 . S
C451 C452 1.334 1_545 S
C452 H423 0.950 . S
C452 C451 1.334 1_565 S
C452 C453 1.287 . S
C453 C452 1.287 . S
C453 C454 1.524 . S
C453 H456 0.999 . S
C454 H424 0.950 . S
C454 C453 1.524 . S
C454 C455 1.415 1_565 S
C455 H425 0.950 . S
C455 C450 1.363 . S
C455 C454 1.415 1_545 S
H456 C453 0.999 . S
H457 C438 0.913 . S
H458 C476 0.951 . S
H459 C478 0.951 . S
H460 C480 0.950 . S
H461 C481 0.950 . S
H462 C483 0.950 . S
H463 C486 0.950 . S
H464 C487 0.950 . S
H465 C489 0.950 . S
H466 C490 0.950 . S
H467 C491 0.954 1_545 S
H468 C493 0.951 . S
H469 C495 0.950 . S
H470 C496 0.950 . S
H471 C498 0.950 . S
H472 C501 0.950 . S
H473 C502 0.950 . S
H474 C504 0.950 . S
H475 C505 0.950 . S
C476 H458 0.951 . S
C476 C477 1.366 . S
C476 C478 1.388 . S
C477 C476 1.366 . S
C477 C481 1.385 . S
C478 H459 0.951 . S
C478 C476 1.388 . S
C478 C479 1.366 . S
C479 C478 1.366 . S
C479 C480 1.414 . S
C479 C482 1.499 . S
C480 H460 0.950 . S
C480 C479 1.414 . S
C480 C481 1.374 . S
C481 H461 0.950 . S
C481 C477 1.385 . S
C481 C480 1.374 . S
C482 C479 1.499 . S
C482 C483 1.373 . S
C482 C484 1.389 . S
C483 H462 0.950 . S
C483 C482 1.373 . S
C483 C499 1.377 . S
C484 C482 1.389 . S
C484 C485 1.524 . S
C484 C498 1.377 . S
C485 C484 1.524 . S
C485 C486 1.397 . S
C485 C490 1.363 . S
C486 H463 0.950 . S
C486 C485 1.397 . S
C486 C487 1.334 . S
C487 H464 0.950 . S
C487 C486 1.334 . S
C487 C488 1.287 . S
C488 C487 1.287 . S
C488 C489 1.524 . S
C488 H507 0.913 . S
C489 H465 0.950 . S
C489 C488 1.524 . S
C489 C490 1.415 . S
C490 H466 0.950 . S
C490 C485 1.363 . S
C490 C489 1.415 . S
C491 H467 0.954 1_565 S
C491 C492 1.366 . S
C491 C493 1.388 . S
C492 C491 1.366 . S
C492 C496 1.385 . S
C493 H468 0.951 . S
C493 C491 1.388 . S
C493 C494 1.366 . S
C494 C493 1.366 . S
C494 C495 1.414 . S
C494 C497 1.499 . S
C495 H469 0.950 . S
C495 C494 1.414 . S
C495 C496 1.374 . S
C496 H470 0.950 . S
C496 C492 1.385 . S
C496 C495 1.374 . S
C497 C494 1.499 . S
C497 C498 1.373 . S
C497 C499 1.389 . S
C498 H471 0.950 . S
C498 C484 1.377 . S
C498 C497 1.373 . S
C499 C483 1.377 . S
C499 C497 1.389 . S
C499 C500 1.524 . S
C500 C499 1.524 . S
C500 C501 1.397 . S
C500 C505 1.363 1_565 S
C501 H472 0.950 . S
C501 C500 1.397 . S
C501 C502 1.334 1_565 S
C502 H473 0.950 . S
C502 C501 1.334 1_545 S
C502 C503 1.287 . S
C503 C502 1.287 . S
C503 C504 1.524 . S
C503 H506 0.999 . S
C504 H474 0.950 . S
C504 C503 1.524 . S
C504 C505 1.415 . S
C505 H475 0.950 . S
C505 C500 1.363 1_545 S
C505 C504 1.415 . S
H506 C503 0.999 . S
H507 C488 0.913 . S
H508 C526 0.951 . S
H509 C528 0.951 . S
H510 C530 0.950 . S
H511 C531 0.950 . S
H512 C533 0.950 . S
H513 C536 0.950 . S
H514 C537 0.950 . S
H515 C539 0.950 . S
H516 C540 0.950 . S
H517 C541 0.951 . S
H518 C543 0.951 . S
H519 C545 0.950 . S
H520 C546 0.950 . S
H521 C548 0.950 . S
H522 C551 0.950 . S
H523 C552 0.950 1_556 S
H524 C554 0.950 . S
H525 C555 0.950 . S
C526 H508 0.951 . S
C526 C527 1.366 . S
C526 C528 1.388 . S
C527 C526 1.366 . S
C527 C531 1.385 . S
C528 H509 0.951 . S
C528 C526 1.388 . S
C528 C529 1.366 . S
C529 C528 1.366 . S
C529 C530 1.414 . S
C529 C532 1.499 . S
C530 H510 0.950 . S
C530 C529 1.414 . S
C530 C531 1.374 . S
C531 H511 0.950 . S
C531 C527 1.385 . S
C531 C530 1.374 . S
C532 C529 1.499 . S
C532 C533 1.373 . S
C532 C534 1.389 . S
C533 H512 0.950 . S
C533 C532 1.373 . S
C533 C549 1.377 . S
C534 C532 1.389 . S
C534 C535 1.524 . S
C534 C548 1.377 . S
C535 C534 1.524 . S
C535 C536 1.397 . S
C535 C540 1.363 . S
C536 H513 0.950 . S
C536 C535 1.397 . S
C536 C537 1.334 . S
C537 H514 0.950 . S
C537 C536 1.334 . S
C537 C538 1.287 . S
C538 C537 1.287 . S
C538 C539 1.524 . S
C538 H557 0.913 . S
C539 H515 0.950 . S
C539 C538 1.524 . S
C539 C540 1.415 . S
C540 H516 0.950 . S
C540 C535 1.363 . S
C540 C539 1.415 . S
C541 H517 0.951 . S
C541 C542 1.366 1_554 S
C541 C543 1.388 . S
C542 C541 1.366 1_556 S
C542 C546 1.385 . S
C543 H518 0.951 . S
C543 C541 1.388 . S
C543 C544 1.366 1_554 S
C544 C543 1.366 1_556 S
C544 C545 1.414 . S
C544 C547 1.499 . S
C545 H519 0.950 . S
C545 C544 1.414 . S
C545 C546 1.374 . S
C546 H520 0.950 . S
C546 C542 1.385 . S
C546 C545 1.374 . S
C547 C544 1.499 . S
C547 C548 1.373 . S
C547 C549 1.389 . S
C548 H521 0.950 . S
C548 C534 1.377 . S
C548 C547 1.373 . S
C549 C533 1.377 . S
C549 C547 1.389 . S
C549 C550 1.524 1_556 S
C550 C549 1.524 1_554 S
C550 C551 1.397 1_554 S
C550 C555 1.363 . S
C551 H522 0.950 . S
C551 C550 1.397 1_556 S
C551 C552 1.334 1_556 S
C552 H523 0.950 1_554 S
C552 C551 1.334 1_554 S
C552 C553 1.287 . S
C553 C552 1.287 . S
C553 C554 1.524 . S
C553 H556 0.999 . S
C554 H524 0.950 . S
C554 C553 1.524 . S
C554 C555 1.415 . S
C555 H525 0.950 . S
C555 C550 1.363 . S
C555 C554 1.415 . S
H556 C553 0.999 . S
H557 C538 0.913 . S
H558 C576 0.951 . S
H559 C578 0.951 . S
H560 C580 0.950 . S
H561 C581 0.950 . S
H562 C583 0.950 . S
H563 C586 0.950 . S
H564 C587 0.950 . S
H565 C589 0.950 . S
H566 C590 0.950 . S
H567 C591 0.951 . S
H568 C593 0.951 . S
H569 C595 0.950 . S
H570 C596 0.950 . S
H571 C598 0.950 . S
H572 C601 0.950 . S
H573 C602 0.950 . S
H574 C604 0.950 . S
H575 C605 0.950 . S
C576 H558 0.951 . S
C576 C577 1.366 . S
C576 C578 1.388 . S
C577 C576 1.366 . S
C577 C581 1.385 . S
C578 H559 0.951 . S
C578 C576 1.388 . S
C578 C579 1.366 . S
C579 C578 1.366 . S
C579 C580 1.414 . S
C579 C582 1.499 . S
C580 H560 0.950 . S
C580 C579 1.414 . S
C580 C581 1.374 . S
C581 H561 0.950 . S
C581 C577 1.385 . S
C581 C580 1.374 . S
C582 C579 1.499 . S
C582 C583 1.373 . S
C582 C584 1.389 . S
C583 H562 0.950 . S
C583 C582 1.373 . S
C583 C599 1.377 . S
C584 C582 1.389 . S
C584 C585 1.524 . S
C584 C598 1.377 . S
C585 C584 1.524 . S
C585 C586 1.397 . S
C585 C590 1.363 . S
C586 H563 0.950 . S
C586 C585 1.397 . S
C586 C587 1.334 . S
C587 H564 0.950 . S
C587 C586 1.334 . S
C587 C588 1.287 . S
C588 C587 1.287 . S
C588 C589 1.524 . S
C588 H607 0.913 . S
C589 H565 0.950 . S
C589 C588 1.524 . S
C589 C590 1.415 . S
C590 H566 0.950 . S
C590 C585 1.363 . S
C590 C589 1.415 . S
C591 H567 0.951 . S
C591 C592 1.366 . S
C591 C593 1.388 . S
C592 C591 1.366 . S
C592 C596 1.385 . S
C593 H568 0.951 . S
C593 C591 1.388 . S
C593 C594 1.366 . S
C594 C593 1.366 . S
C594 C595 1.414 . S
C594 C597 1.499 . S
C595 H569 0.950 . S
C595 C594 1.414 . S
C595 C596 1.374 . S
C596 H570 0.950 . S
C596 C592 1.385 . S
C596 C595 1.374 . S
C597 C594 1.499 . S
C597 C598 1.373 . S
C597 C599 1.389 . S
C598 H571 0.950 . S
C598 C584 1.377 . S
C598 C597 1.373 . S
C599 C583 1.377 . S
C599 C597 1.389 . S
C599 C600 1.524 . S
C600 C599 1.524 . S
C600 C601 1.397 . S
C600 C605 1.363 . S
C601 H572 0.950 . S
C601 C600 1.397 . S
C601 C602 1.334 . S
C602 H573 0.950 . S
C602 C601 1.334 . S
C602 C603 1.287 . S
C603 C602 1.287 . S
C603 C604 1.524 . S
C603 H606 0.999 . S
C604 H574 0.950 . S
C604 C603 1.524 . S
C604 C605 1.415 . S
C605 H575 0.950 . S
C605 C600 1.363 . S
C605 C604 1.415 . S
H606 C603 0.999 . S
H607 C588 0.913 . S
H608 C626 0.951 . S
H609 C628 0.951 . S
H610 C630 0.950 . S
H611 C631 0.950 . S
H612 C633 0.950 . S
H613 C636 0.950 . S
H614 C637 0.950 . S
H615 C639 0.950 . S
H616 C640 0.950 . S
H617 C641 0.951 . S
H618 C643 0.951 . S
H619 C645 0.950 . S
H620 C646 0.950 . S
H621 C648 0.950 . S
H622 C651 0.950 . S
H623 C652 0.950 . S
H624 C654 0.950 . S
H625 C655 0.950 . S
C626 H608 0.951 . S
C626 C627 1.366 . S
C626 C628 1.388 . S
C627 C626 1.366 . S
C627 C631 1.385 . S
C628 H609 0.951 . S
C628 C626 1.388 . S
C628 C629 1.366 . S
C629 C628 1.366 . S
C629 C630 1.414 . S
C629 C632 1.499 . S
C630 H610 0.950 . S
C630 C629 1.414 . S
C630 C631 1.374 . S
C631 H611 0.950 . S
C631 C627 1.385 . S
C631 C630 1.374 . S
C632 C629 1.499 . S
C632 C633 1.373 . S
C632 C634 1.389 . S
C633 H612 0.950 . S
C633 C632 1.373 . S
C633 C649 1.377 . S
C634 C632 1.389 . S
C634 C635 1.524 . S
C634 C648 1.377 . S
C635 C634 1.524 . S
C635 C636 1.397 . S
C635 C640 1.363 . S
C636 H613 0.950 . S
C636 C635 1.397 . S
C636 C637 1.334 1_455 S
C637 H614 0.950 . S
C637 C636 1.334 1_655 S
C637 C638 1.287 . S
C638 C637 1.287 . S
C638 C639 1.524 . S
C638 H657 0.913 . S
C639 H615 0.950 . S
C639 C638 1.524 . S
C639 C640 1.415 1_655 S
C640 H616 0.950 . S
C640 C635 1.363 . S
C640 C639 1.415 1_455 S
C641 H617 0.951 . S
C641 C642 1.366 . S
C641 C643 1.388 . S
C642 C641 1.366 . S
C642 C646 1.385 . S
C643 H618 0.951 . S
C643 C641 1.388 . S
C643 C644 1.366 . S
C644 C643 1.366 . S
C644 C645 1.414 . S
C644 C647 1.499 . S
C645 H619 0.950 . S
C645 C644 1.414 . S
C645 C646 1.374 . S
C646 H620 0.950 . S
C646 C642 1.385 . S
C646 C645 1.374 . S
C647 C644 1.499 . S
C647 C648 1.373 . S
C647 C649 1.389 . S
C648 H621 0.950 . S
C648 C634 1.377 . S
C648 C647 1.373 . S
C649 C633 1.377 . S
C649 C647 1.389 . S
C649 C650 1.524 . S
C650 C649 1.524 . S
C650 C651 1.397 . S
C650 C655 1.363 . S
C651 H622 0.950 . S
C651 C650 1.397 . S
C651 C652 1.334 . S
C652 H623 0.950 . S
C652 C651 1.334 . S
C652 C653 1.287 . S
C653 C652 1.287 . S
C653 C654 1.524 . S
C653 H656 0.999 . S
C654 H624 0.950 . S
C654 C653 1.524 . S
C654 C655 1.415 . S
C655 H625 0.950 . S
C655 C650 1.363 . S
C655 C654 1.415 . S
H656 C653 0.999 . S
H657 C638 0.913 . S
H658 C676 0.951 . S
H659 C678 0.951 1_554 S
H660 C680 0.950 . S
H661 C681 0.950 . S
H662 C683 0.950 . S
H663 C686 0.950 1_556 S
H664 C687 0.950 . S
H665 C689 0.950 . S
H666 C690 0.950 . S
H667 C691 0.951 . S
H668 C693 0.951 . S
H669 C695 0.950 . S
H670 C696 0.950 . S
H671 C698 0.950 . S
H672 C701 0.950 . S
H673 C702 0.950 . S
H674 C704 0.950 . S
H675 C705 0.950 . S
C676 H658 0.951 . S
C676 C677 1.366 . S
C676 C678 1.388 . S
C677 C676 1.366 . S
C677 C681 1.385 . S
C678 H659 0.951 1_556 S
C678 C676 1.388 . S
C678 C679 1.366 . S
C679 C678 1.366 . S
C679 C680 1.414 . S
C679 C682 1.499 . S
C680 H660 0.950 . S
C680 C679 1.414 . S
C680 C681 1.374 . S
C681 H661 0.950 . S
C681 C677 1.385 . S
C681 C680 1.374 . S
C682 C679 1.499 . S
C682 C683 1.373 . S
C682 C684 1.389 1_556 S
C683 H662 0.950 . S
C683 C682 1.373 . S
C683 C699 1.377 . S
C684 C682 1.389 1_554 S
C684 C685 1.524 . S
C684 C698 1.377 . S
C685 C684 1.524 . S
C685 C686 1.397 . S
C685 C690 1.363 . S
C686 H663 0.950 1_554 S
C686 C685 1.397 . S
C686 C687 1.334 . S
C687 H664 0.950 . S
C687 C686 1.334 . S
C687 C688 1.287 . S
C688 C687 1.287 . S
C688 C689 1.524 . S
C688 H707 0.913 . S
C689 H665 0.950 . S
C689 C688 1.524 . S
C689 C690 1.415 . S
C690 H666 0.950 . S
C690 C685 1.363 . S
C690 C689 1.415 . S
C691 H667 0.951 . S
C691 C692 1.366 1_556 S
C691 C693 1.388 . S
C692 C691 1.366 1_554 S
C692 C696 1.385 . S
C693 H668 0.951 . S
C693 C691 1.388 . S
C693 C694 1.366 1_556 S
C694 C693 1.366 1_554 S
C694 C695 1.414 . S
C694 C697 1.487 1_554 S
C695 H669 0.950 . S
C695 C694 1.414 . S
C695 C696 1.374 . S
C696 H670 0.950 . S
C696 C692 1.385 . S
C696 C695 1.374 . S
C697 C694 1.487 1_556 S
C697 C698 1.349 1_556 S
C697 C699 1.429 . S
C698 H671 0.950 . S
C698 C684 1.377 . S
C698 C697 1.349 1_554 S
C699 C683 1.377 . S
C699 C697 1.429 . S
C699 C700 1.524 . S
C700 C699 1.524 . S
C700 C701 1.397 . S
C700 C705 1.363 . S
C701 H672 0.950 . S
C701 C700 1.397 . S
C701 C702 1.334 . S
C702 H673 0.950 . S
C702 C701 1.334 . S
C702 C703 1.287 . S
C703 C702 1.287 . S
C703 C704 1.524 . S
C703 H706 0.999 . S
C704 H674 0.950 . S
C704 C703 1.524 . S
C704 C705 1.415 . S
C705 H675 0.950 . S
C705 C700 1.363 . S
C705 C704 1.415 . S
H706 C703 0.999 . S
H707 C688 0.913 . S
H708 C726 0.951 . S
H709 C728 0.951 . S
H710 C730 0.950 . S
H711 C731 0.950 . S
H712 C733 0.950 . S
H713 C736 0.950 . S
H714 C737 0.950 . S
H715 C739 0.950 . S
H716 C740 0.950 . S
H717 C741 0.951 . S
H718 C743 0.951 . S
H719 C745 0.950 . S
H720 C746 0.950 . S
H721 C748 0.950 . S
H722 C751 0.950 . S
H723 C752 0.950 . S
H724 C754 0.950 . S
H725 C755 0.950 . S
C726 H708 0.951 . S
C726 C727 1.366 . S
C726 C728 1.388 . S
C727 C726 1.366 . S
C727 C731 1.385 . S
C728 H709 0.951 . S
C728 C726 1.388 . S
C728 C729 1.366 . S
C729 C728 1.366 . S
C729 C730 1.414 . S
C729 C732 1.499 . S
C730 H710 0.950 . S
C730 C729 1.414 . S
C730 C731 1.374 . S
C731 H711 0.950 . S
C731 C727 1.385 . S
C731 C730 1.374 . S
C732 C729 1.499 . S
C732 C733 1.373 . S
C732 C734 1.389 . S
C733 H712 0.950 . S
C733 C732 1.373 . S
C733 C749 1.377 . S
C734 C732 1.389 . S
C734 C735 1.524 . S
C734 C748 1.377 . S
C735 C734 1.524 . S
C735 C736 1.397 . S
C735 C740 1.363 . S
C736 H713 0.950 . S
C736 C735 1.397 . S
C736 C737 1.334 . S
C737 H714 0.950 . S
C737 C736 1.334 . S
C737 C738 1.287 . S
C738 C737 1.287 . S
C738 C739 1.524 . S
C738 H757 0.913 . S
C739 H715 0.950 . S
C739 C738 1.524 . S
C739 C740 1.415 . S
C740 H716 0.950 . S
C740 C735 1.363 . S
C740 C739 1.415 . S
C741 H717 0.951 . S
C741 C742 1.366 . S
C741 C743 1.388 . S
C742 C741 1.366 . S
C742 C746 1.385 . S
C743 H718 0.951 . S
C743 C741 1.388 . S
C743 C744 1.366 . S
C744 C743 1.366 . S
C744 C745 1.414 . S
C744 C747 1.499 . S
C745 H719 0.950 . S
C745 C744 1.414 . S
C745 C746 1.374 . S
C746 H720 0.950 . S
C746 C742 1.385 . S
C746 C745 1.374 . S
C747 C744 1.499 . S
C747 C748 1.373 . S
C747 C749 1.389 . S
C748 H721 0.950 . S
C748 C734 1.377 . S
C748 C747 1.373 . S
C749 C733 1.377 . S
C749 C747 1.389 . S
C749 C750 1.536 . S
C750 C749 1.536 . S
C750 C751 1.383 1_655 S
C750 C755 1.365 . S
C751 H722 0.950 . S
C751 C750 1.383 1_455 S
C751 C752 1.334 . S
C752 H723 0.950 . S
C752 C751 1.334 . S
C752 C753 1.287 . S
C753 C752 1.287 . S
C753 C754 1.524 . S
C753 H756 0.999 . S
C754 H724 0.950 . S
C754 C753 1.524 . S
C754 C755 1.415 1_455 S
C755 H725 0.950 . S
C755 C750 1.365 . S
C755 C754 1.415 1_655 S
H756 C753 0.999 . S
H757 C738 0.913 . S
H758 C776 0.951 . S
H759 C778 0.951 . S
H760 C780 0.950 . S
H761 C781 0.950 . S
H762 C783 0.950 . S
H763 C786 0.950 . S
H764 C787 0.950 . S
H765 C789 0.950 . S
H766 C790 0.950 . S
H767 C791 0.951 . S
H768 C793 0.951 . S
H769 C795 0.950 . S
H770 C796 0.950 . S
H771 C798 0.950 . S
H772 C801 0.950 . S
H773 C802 0.950 . S
H774 C804 0.950 . S
H775 C805 0.950 . S
C776 H758 0.951 . S
C776 C777 1.366 . S
C776 C778 1.388 . S
C777 C776 1.366 . S
C777 C781 1.385 . S
C778 H759 0.951 . S
C778 C776 1.388 . S
C778 C779 1.366 . S
C779 C778 1.366 . S
C779 C780 1.414 . S
C779 C782 1.499 . S
C780 H760 0.950 . S
C780 C779 1.414 . S
C780 C781 1.374 . S
C781 H761 0.950 . S
C781 C777 1.385 . S
C781 C780 1.374 . S
C782 C779 1.499 . S
C782 C783 1.373 . S
C782 C784 1.389 . S
C783 H762 0.950 . S
C783 C782 1.373 . S
C783 C799 1.377 . S
C784 C782 1.389 . S
C784 C785 1.524 . S
C784 C798 1.377 . S
C785 C784 1.524 . S
C785 C786 1.397 . S
C785 C790 1.363 . S
C786 H763 0.950 . S
C786 C785 1.397 . S
C786 C787 1.334 . S
C787 H764 0.950 . S
C787 C786 1.334 . S
C787 C788 1.287 . S
C788 C787 1.287 . S
C788 C789 1.524 . S
C788 H807 0.913 . S
C789 H765 0.950 . S
C789 C788 1.524 . S
C789 C790 1.415 . S
C790 H766 0.950 . S
C790 C785 1.363 . S
C790 C789 1.415 . S
C791 H767 0.951 . S
C791 C792 1.366 . S
C791 C793 1.388 . S
C792 C791 1.366 . S
C792 C796 1.385 . S
C793 H768 0.951 . S
C793 C791 1.388 . S
C793 C794 1.366 . S
C794 C793 1.366 . S
C794 C795 1.414 . S
C794 C797 1.499 . S
C795 H769 0.950 . S
C795 C794 1.414 . S
C795 C796 1.374 . S
C796 H770 0.950 . S
C796 C792 1.385 . S
C796 C795 1.374 . S
C797 C794 1.499 . S
C797 C798 1.373 . S
C797 C799 1.389 . S
C798 H771 0.950 . S
C798 C784 1.377 . S
C798 C797 1.373 . S
C799 C783 1.377 . S
C799 C797 1.389 . S
C799 C800 1.524 . S
C800 C799 1.524 . S
C800 C801 1.397 . S
C800 C805 1.363 . S
C801 H772 0.950 . S
C801 C800 1.397 . S
C801 C802 1.334 . S
C802 H773 0.950 . S
C802 C801 1.334 . S
C802 C803 1.287 . S
C803 C802 1.287 . S
C803 C804 1.524 . S
C803 H806 0.999 . S
C804 H774 0.950 . S
C804 C803 1.524 . S
C804 C805 1.415 . S
C805 H775 0.950 . S
C805 C800 1.363 . S
C805 C804 1.415 . S
H806 C803 0.999 . S
H807 C788 0.913 . S
H808 C826 0.951 . S
H809 C828 0.951 . S
H810 C830 0.950 . S
H811 C831 0.950 . S
H812 C833 0.950 . S
H813 C836 0.948 1_565 S
H814 C837 0.950 . S
H815 C839 0.950 . S
H816 C840 0.950 1_455 S
H817 C841 0.951 . S
H818 C843 0.951 . S
H819 C845 0.921 1_455 S
H820 C846 0.950 1_455 S
H821 C848 0.950 . S
H822 C851 0.950 . S
H823 C852 0.950 . S
H824 C854 0.950 . S
H825 C855 0.950 . S
C826 H808 0.951 . S
C826 C827 1.366 . S
C826 C828 1.388 . S
C827 C826 1.366 . S
C827 C831 1.385 . S
C828 H809 0.951 . S
C828 C826 1.388 . S
C828 C829 1.366 . S
C829 C828 1.366 . S
C829 C830 1.414 . S
C829 C832 1.499 . S
C830 H810 0.950 . S
C830 C829 1.414 . S
C830 C831 1.374 . S
C831 H811 0.950 . S
C831 C827 1.385 . S
C831 C830 1.374 . S
C832 C829 1.499 . S
C832 C833 1.373 . S
C832 C834 1.389 . S
C833 H812 0.950 . S
C833 C832 1.373 . S
C833 C849 1.377 . S
C834 C832 1.389 . S
C834 C835 1.524 . S
C834 C848 1.377 . S
C835 C834 1.524 . S
C835 C836 1.397 1_565 S
C835 C840 1.363 . S
C836 H813 0.948 1_545 S
C836 C835 1.397 1_545 S
C836 C837 1.334 . S
C837 H814 0.950 . S
C837 C836 1.334 . S
C837 C838 1.287 . S
C838 C837 1.287 . S
C838 C839 1.524 1_655 S
C838 H857 0.913 . S
C839 H815 0.950 . S
C839 C838 1.524 1_455 S
C839 C840 1.415 1_445 S
C840 H816 0.950 1_655 S
C840 C835 1.363 . S
C840 C839 1.415 1_665 S
C841 H817 0.951 . S
C841 C842 1.366 . S
C841 C843 1.388 . S
C842 C841 1.366 . S
C842 C846 1.385 . S
C843 H818 0.951 . S
C843 C841 1.388 . S
C843 C844 1.366 . S
C844 C843 1.366 . S
C844 C845 1.414 . S
C844 C847 1.499 . S
C845 H819 0.921 1_655 S
C845 C844 1.414 . S
C845 C846 1.374 . S
C846 H820 0.950 1_655 S
C846 C842 1.385 . S
C846 C845 1.374 . S
C847 C844 1.499 . S
C847 C848 1.373 . S
C847 C849 1.389 . S
C848 H821 0.950 . S
C848 C834 1.377 . S
C848 C847 1.373 . S
C849 C833 1.377 . S
C849 C847 1.389 . S
C849 C850 1.524 . S
C850 C849 1.524 . S
C850 C851 1.397 . S
C850 C855 1.363 . S
C851 H822 0.950 . S
C851 C850 1.397 . S
C851 C852 1.334 . S
C852 H823 0.950 . S
C852 C851 1.334 . S
C852 C853 1.287 . S
C853 C852 1.287 . S
C853 C854 1.524 . S
C853 H856 0.999 . S
C854 H824 0.950 . S
C854 C853 1.524 . S
C854 C855 1.415 . S
C855 H825 0.950 . S
C855 C850 1.363 . S
C855 C854 1.415 . S
H856 C853 0.999 . S
H857 C838 0.913 . S
H858 C876 0.951 . S
H859 C878 0.951 . S
H860 C880 0.950 . S
H861 C881 0.950 . S
H862 C883 0.950 . S
H863 C886 0.950 . S
H864 C887 0.950 . S
H865 C889 0.950 . S
H866 C890 0.950 . S
H867 C891 0.951 . S
H868 C893 0.951 . S
H869 C895 0.950 . S
H870 C896 0.950 . S
H871 C898 0.950 . S
H872 C901 0.950 . S
H873 C902 0.950 . S
H874 C904 0.916 1_565 S
H875 C905 0.950 . S
C876 H858 0.951 . S
C876 C877 1.366 . S
C876 C878 1.388 . S
C877 C876 1.366 . S
C877 C881 1.385 . S
C878 H859 0.951 . S
C878 C876 1.388 . S
C878 C879 1.366 . S
C879 C878 1.366 . S
C879 C880 1.414 . S
C879 C882 1.499 . S
C880 H860 0.950 . S
C880 C879 1.414 . S
C880 C881 1.374 . S
C881 H861 0.950 . S
C881 C877 1.385 . S
C881 C880 1.374 . S
C882 C879 1.499 . S
C882 C883 1.373 . S
C882 C884 1.389 . S
C883 H862 0.950 . S
C883 C882 1.373 . S
C883 C899 1.377 . S
C884 C882 1.389 . S
C884 C885 1.524 . S
C884 C898 1.377 . S
C885 C884 1.524 . S
C885 C886 1.397 . S
C885 C890 1.363 . S
C886 H863 0.950 . S
C886 C885 1.397 . S
C886 C887 1.334 . S
C887 H864 0.950 . S
C887 C886 1.334 . S
C887 C888 1.287 . S
C888 C887 1.287 . S
C888 C889 1.524 . S
C888 H907 0.913 . S
C889 H865 0.950 . S
C889 C888 1.524 . S
C889 C890 1.415 . S
C890 H866 0.950 . S
C890 C885 1.363 . S
C890 C889 1.415 . S
C891 H867 0.951 . S
C891 C892 1.366 . S
C891 C893 1.388 . S
C892 C891 1.366 . S
C892 C896 1.385 . S
C893 H868 0.951 . S
C893 C891 1.388 . S
C893 C894 1.366 . S
C894 C893 1.366 . S
C894 C895 1.414 . S
C894 C897 1.499 . S
C895 H869 0.950 . S
C895 C894 1.414 . S
C895 C896 1.374 . S
C896 H870 0.950 . S
C896 C892 1.385 . S
C896 C895 1.374 . S
C897 C894 1.499 . S
C897 C898 1.373 . S
C897 C899 1.389 . S
C898 H871 0.950 . S
C898 C884 1.377 . S
C898 C897 1.373 . S
C899 C883 1.377 . S
C899 C897 1.389 . S
C899 C900 1.524 . S
C900 C899 1.524 . S
C900 C901 1.397 . S
C900 C905 1.363 . S
C901 H872 0.950 . S
C901 C900 1.397 . S
C901 C902 1.334 . S
C902 H873 0.950 . S
C902 C901 1.334 . S
C902 C903 1.287 . S
C903 C902 1.287 . S
C903 C904 1.524 . S
C903 H906 0.999 . S
C904 H874 0.916 1_545 S
C904 C903 1.524 . S
C904 C905 1.415 . S
C905 H875 0.950 . S
C905 C900 1.363 . S
C905 C904 1.415 . S
H906 C903 0.999 . S
H907 C888 0.913 . S
H908 C926 0.951 . S
H909 C928 0.951 . S
H910 C930 0.950 . S
H911 C931 0.950 . S
H912 C933 0.950 . S
H913 C936 0.950 . S
H914 C937 0.950 . S
H915 C939 0.950 . S
H916 C940 0.950 . S
H917 C941 0.951 . S
H918 C943 0.951 . S
H919 C945 0.950 . S
H920 C946 0.950 . S
H921 C948 0.950 . S
H922 C951 0.950 . S
H923 C952 0.950 . S
H924 C954 0.950 . S
H925 C955 0.950 . S
C926 H908 0.951 . S
C926 C927 1.366 . S
C926 C928 1.388 . S
C927 C926 1.366 . S
C927 C931 1.385 . S
C928 H909 0.951 . S
C928 C926 1.388 . S
C928 C929 1.366 . S
C929 C928 1.366 . S
C929 C930 1.414 . S
C929 C932 1.499 . S
C930 H910 0.950 . S
C930 C929 1.414 . S
C930 C931 1.374 . S
C931 H911 0.950 . S
C931 C927 1.385 . S
C931 C930 1.374 . S
C932 C929 1.499 . S
C932 C933 1.373 . S
C932 C934 1.389 . S
C933 H912 0.950 . S
C933 C932 1.373 . S
C933 C949 1.377 . S
C934 C932 1.389 . S
C934 C935 1.524 . S
C934 C948 1.377 . S
C935 C934 1.524 . S
C935 C936 1.397 . S
C935 C940 1.363 . S
C936 H913 0.950 . S
C936 C935 1.397 . S
C936 C937 1.334 . S
C937 H914 0.950 . S
C937 C936 1.334 . S
C937 C938 1.287 . S
C938 C937 1.287 . S
C938 C939 1.524 . S
C938 H957 0.913 . S
C939 H915 0.950 . S
C939 C938 1.524 . S
C939 C940 1.415 . S
C940 H916 0.950 . S
C940 C935 1.363 . S
C940 C939 1.415 . S
C941 H917 0.951 . S
C941 C942 1.366 . S
C941 C943 1.388 . S
C942 C941 1.366 . S
C942 C946 1.385 . S
C943 H918 0.951 . S
C943 C941 1.388 . S
C943 C944 1.366 . S
C944 C943 1.366 . S
C944 C945 1.414 . S
C944 C947 1.499 . S
C945 H919 0.950 . S
C945 C944 1.414 . S
C945 C946 1.374 . S
C946 H920 0.950 . S
C946 C942 1.385 . S
C946 C945 1.374 . S
C947 C944 1.499 . S
C947 C948 1.373 . S
C947 C949 1.389 . S
C948 H921 0.950 . S
C948 C934 1.377 . S
C948 C947 1.373 . S
C949 C933 1.377 . S
C949 C947 1.389 . S
C949 C950 1.524 . S
C950 C949 1.524 . S
C950 C951 1.397 . S
C950 C955 1.363 . S
C951 H922 0.950 . S
C951 C950 1.397 . S
C951 C952 1.334 . S
C952 H923 0.950 . S
C952 C951 1.334 . S
C952 C953 1.287 . S
C953 C952 1.287 . S
C953 C954 1.524 . S
C953 H956 0.999 . S
C954 H924 0.950 . S
C954 C953 1.524 . S
C954 C955 1.415 . S
C955 H925 0.950 . S
C955 C950 1.363 . S
C955 C954 1.415 . S
H956 C953 0.999 . S
H957 C938 0.913 . S
H958 C976 0.951 . S
H959 C978 0.951 . S
H960 C980 0.950 . S
H961 C981 0.950 . S
H962 C983 0.950 . S
H963 C986 0.950 . S
H964 C987 0.950 . S
H965 C989 0.950 . S
H966 C990 0.950 . S
H967 C991 0.951 . S
H968 C993 0.951 . S
H969 C995 0.950 . S
H970 C996 0.950 . S
H971 C998 0.950 . S
H972 C1001 0.950 . S
H973 C1002 0.950 . S
H974 C1004 0.950 . S
H975 C1005 0.950 . S
C976 H958 0.951 . S
C976 C977 1.366 . S
C976 C978 1.388 . S
C977 C976 1.366 . S
C977 C981 1.385 . S
C978 H959 0.951 . S
C978 C976 1.388 . S
C978 C979 1.366 . S
C979 C978 1.366 . S
C979 C980 1.414 . S
C979 C982 1.499 . S
C980 H960 0.950 . S
C980 C979 1.414 . S
C980 C981 1.374 . S
C981 H961 0.950 . S
C981 C977 1.385 . S
C981 C980 1.374 . S
C982 C979 1.499 . S
C982 C983 1.373 . S
C982 C984 1.389 . S
C983 H962 0.950 . S
C983 C982 1.373 . S
C983 C999 1.377 . S
C984 C982 1.389 . S
C984 C985 1.524 . S
C984 C998 1.377 . S
C985 C984 1.524 . S
C985 C986 1.397 . S
C985 C990 1.363 . S
C986 H963 0.950 . S
C986 C985 1.397 . S
C986 C987 1.334 . S
C987 H964 0.950 . S
C987 C986 1.334 . S
C987 C988 1.287 . S
C988 C987 1.287 . S
C988 C989 1.524 . S
C988 H1007 0.913 . S
C989 H965 0.950 . S
C989 C988 1.524 . S
C989 C990 1.415 . S
C990 H966 0.950 . S
C990 C985 1.363 . S
C990 C989 1.415 . S
C991 H967 0.951 . S
C991 C992 1.366 . S
C991 C993 1.388 . S
C992 C991 1.366 . S
C992 C996 1.385 . S
C993 H968 0.951 . S
C993 C991 1.388 . S
C993 C994 1.366 . S
C994 C993 1.366 . S
C994 C995 1.414 . S
C994 C997 1.499 . S
C995 H969 0.950 . S
C995 C994 1.414 . S
C995 C996 1.374 . S
C996 H970 0.950 . S
C996 C992 1.385 . S
C996 C995 1.374 . S
C997 C994 1.499 . S
C997 C998 1.373 . S
C997 C999 1.389 . S
C998 H971 0.950 . S
C998 C984 1.377 . S
C998 C997 1.373 . S
C999 C983 1.377 . S
C999 C997 1.389 . S
C999 C1000 1.524 . S
C1000 C999 1.524 . S
C1000 C1001 1.397 . S
C1000 C1005 1.363 . S
C1001 H972 0.950 . S
C1001 C1000 1.397 . S
C1001 C1002 1.334 1_455 S
C1002 H973 0.950 . S
C1002 C1001 1.334 1_655 S
C1002 C1003 1.287 . S
C1003 C1002 1.287 . S
C1003 C1004 1.524 . S
C1003 H1006 0.999 . S
C1004 H974 0.950 . S
C1004 C1003 1.524 . S
C1004 C1005 1.415 1_655 S
C1005 H975 0.950 . S
C1005 C1000 1.363 . S
C1005 C1004 1.415 1_455 S
H1006 C1003 0.999 . S
H1007 C988 0.913 . S
H1008 C1026 0.951 . S
H1009 C1028 0.951 . S
H1010 C1030 0.950 . S
H1011 C1031 0.950 . S
H1012 C1033 0.950 . S
H1013 C1036 0.950 . S
H1014 C1037 0.950 . S
H1015 C1039 0.950 . S
H1016 C1040 0.950 . S
H1017 C1041 0.951 . S
H1018 C1043 0.951 . S
H1019 C1045 0.950 . S
H1020 C1046 0.950 . S
H1021 C1048 0.950 . S
H1022 C1051 0.950 . S
H1023 C1052 0.950 . S
H1024 C1054 0.950 . S
H1025 C1055 0.950 . S
C1026 H1008 0.951 . S
C1026 C1027 1.366 . S
C1026 C1028 1.388 . S
C1027 C1026 1.366 . S
C1027 C1031 1.385 . S
C1028 H1009 0.951 . S
C1028 C1026 1.388 . S
C1028 C1029 1.366 . S
C1029 C1028 1.366 . S
C1029 C1030 1.414 . S
C1029 C1032 1.499 . S
C1030 H1010 0.950 . S
C1030 C1029 1.414 . S
C1030 C1031 1.374 . S
C1031 H1011 0.950 . S
C1031 C1027 1.385 . S
C1031 C1030 1.374 . S
C1032 C1029 1.499 . S
C1032 C1033 1.373 1_556 S
C1032 C1034 1.389 . S
C1033 H1012 0.950 . S
C1033 C1032 1.373 1_554 S
C1033 C1049 1.377 . S
C1034 C1032 1.389 . S
C1034 C1035 1.524 . S
C1034 C1048 1.377 . S
C1035 C1034 1.524 . S
C1035 C1036 1.397 . S
C1035 C1040 1.363 . S
C1036 H1013 0.950 . S
C1036 C1035 1.397 . S
C1036 C1037 1.334 . S
C1037 H1014 0.950 . S
C1037 C1036 1.334 . S
C1037 C1038 1.287 . S
C1038 C1037 1.287 . S
C1038 C1039 1.524 . S
C1038 H1057 0.913 . S
C1039 H1015 0.950 . S
C1039 C1038 1.524 . S
C1039 C1040 1.415 . S
C1040 H1016 0.950 . S
C1040 C1035 1.363 . S
C1040 C1039 1.415 . S
C1041 H1017 0.951 . S
C1041 C1042 1.366 1_545 S
C1041 C1043 1.388 . S
C1042 C1041 1.366 1_565 S
C1042 C1046 1.385 . S
C1043 H1018 0.951 . S
C1043 C1041 1.388 . S
C1043 C1044 1.366 1_545 S
C1044 C1043 1.366 1_565 S
C1044 C1045 1.414 . S
C1044 C1047 1.499 . S
C1045 H1019 0.950 . S
C1045 C1044 1.414 . S
C1045 C1046 1.374 . S
C1046 H1020 0.950 . S
C1046 C1042 1.385 . S
C1046 C1045 1.374 . S
C1047 C1044 1.499 . S
C1047 C1048 1.373 1_554 S
C1047 C1049 1.389 . S
C1048 H1021 0.950 . S
C1048 C1034 1.377 . S
C1048 C1047 1.373 1_556 S
C1049 C1033 1.377 . S
C1049 C1047 1.389 . S
C1049 C1050 1.524 . S
C1050 C1049 1.524 . S
C1050 C1051 1.397 . S
C1050 C1055 1.363 1_565 S
C1051 H1022 0.950 . S
C1051 C1050 1.397 . S
C1051 C1052 1.334 . S
C1052 H1023 0.950 . S
C1052 C1051 1.334 . S
C1052 C1053 1.287 1_565 S
C1053 C1052 1.287 1_545 S
C1053 C1054 1.524 . S
C1053 H1056 0.999 . S
C1054 H1024 0.950 . S
C1054 C1053 1.524 . S
C1054 C1055 1.415 . S
C1055 H1025 0.950 . S
C1055 C1050 1.363 1_545 S
C1055 C1054 1.415 . S
H1056 C1053 0.999 . S
H1057 C1038 0.913 . S
H1058 C1076 0.951 . S
H1059 C1078 0.951 . S
H1060 C1080 0.950 . S
H1061 C1081 0.950 . S
H1062 C1083 0.950 . S
H1063 C1086 0.950 . S
H1064 C1087 0.950 . S
H1065 C1089 0.950 . S
H1066 C1090 0.950 . S
H1067 C1091 0.951 . S
H1068 C1093 0.951 . S
H1069 C1095 0.950 . S
H1070 C1096 0.950 . S
H1071 C1098 0.950 . S
H1072 C1101 0.950 . S
H1073 C1102 0.950 . S
H1074 C1104 0.950 . S
H1075 C1105 0.950 . S
C1076 H1058 0.951 . S
C1076 C1077 1.366 . S
C1076 C1078 1.388 . S
C1077 C1076 1.366 . S
C1077 C1081 1.385 . S
C1078 H1059 0.951 . S
C1078 C1076 1.388 . S
C1078 C1079 1.366 . S
C1079 C1078 1.366 . S
C1079 C1080 1.414 . S
C1079 C1082 1.499 . S
C1080 H1060 0.950 . S
C1080 C1079 1.414 . S
C1080 C1081 1.374 . S
C1081 H1061 0.950 . S
C1081 C1077 1.385 . S
C1081 C1080 1.374 . S
C1082 C1079 1.499 . S
C1082 C1083 1.373 . S
C1082 C1084 1.389 . S
C1083 H1062 0.950 . S
C1083 C1082 1.373 . S
C1083 C1099 1.377 . S
C1084 C1082 1.389 . S
C1084 C1085 1.524 . S
C1084 C1098 1.377 . S
C1085 C1084 1.524 . S
C1085 C1086 1.397 . S
C1085 C1090 1.363 . S
C1086 H1063 0.950 . S
C1086 C1085 1.397 . S
C1086 C1087 1.334 . S
C1087 H1064 0.950 . S
C1087 C1086 1.334 . S
C1087 C1088 1.287 . S
C1088 C1087 1.287 . S
C1088 C1089 1.524 . S
C1088 H1107 0.913 . S
C1089 H1065 0.950 . S
C1089 C1088 1.524 . S
C1089 C1090 1.415 . S
C1090 H1066 0.950 . S
C1090 C1085 1.363 . S
C1090 C1089 1.415 . S
C1091 H1067 0.951 . S
C1091 C1092 1.366 . S
C1091 C1093 1.388 . S
C1092 C1091 1.366 . S
C1092 C1096 1.385 . S
C1093 H1068 0.951 . S
C1093 C1091 1.388 . S
C1093 C1094 1.366 . S
C1094 C1093 1.366 . S
C1094 C1095 1.414 . S
C1094 C1097 1.499 . S
C1095 H1069 0.950 . S
C1095 C1094 1.414 . S
C1095 C1096 1.374 . S
C1096 H1070 0.950 . S
C1096 C1092 1.385 . S
C1096 C1095 1.374 . S
C1097 C1094 1.499 . S
C1097 C1098 1.373 . S
C1097 C1099 1.389 . S
C1098 H1071 0.950 . S
C1098 C1084 1.377 . S
C1098 C1097 1.373 . S
C1099 C1083 1.377 . S
C1099 C1097 1.389 . S
C1099 C1100 1.524 . S
C1100 C1099 1.524 . S
C1100 C1101 1.397 . S
C1100 C1105 1.363 . S
C1101 H1072 0.950 . S
C1101 C1100 1.397 . S
C1101 C1102 1.334 . S
C1102 H1073 0.950 . S
C1102 C1101 1.334 . S
C1102 C1103 1.287 . S
C1103 C1102 1.287 . S
C1103 C1104 1.524 . S
C1103 H1106 0.999 . S
C1104 H1074 0.950 . S
C1104 C1103 1.524 . S
C1104 C1105 1.415 . S
C1105 H1075 0.950 . S
C1105 C1100 1.363 . S
C1105 C1104 1.415 . S
H1106 C1103 0.999 . S
H1107 C1088 0.913 . S
H1108 C1126 0.951 . S
H1109 C1128 0.951 . S
H1110 C1130 0.950 . S
H1111 C1131 0.950 . S
H1112 C1133 0.950 . S
H1113 C1136 0.950 . S
H1114 C1137 0.950 . S
H1115 C1139 0.950 . S
H1116 C1140 0.950 . S
H1117 C1141 0.951 . S
H1118 C1143 0.951 . S
H1119 C1145 0.950 . S
H1120 C1146 0.950 . S
H1121 C1148 0.950 . S
H1122 C1151 0.950 . S
H1123 C1152 0.950 . S
H1124 C1154 0.950 . S
H1125 C1155 0.950 . S
C1126 H1108 0.951 . S
C1126 C1127 1.366 . S
C1126 C1128 1.388 . S
C1127 C1126 1.366 . S
C1127 C1131 1.385 . S
C1128 H1109 0.951 . S
C1128 C1126 1.388 . S
C1128 C1129 1.366 . S
C1129 C1128 1.366 . S
C1129 C1130 1.414 . S
C1129 C1132 1.499 . S
C1130 H1110 0.950 . S
C1130 C1129 1.414 . S
C1130 C1131 1.374 . S
C1131 H1111 0.950 . S
C1131 C1127 1.385 . S
C1131 C1130 1.374 . S
C1132 C1129 1.499 . S
C1132 C1133 1.373 . S
C1132 C1134 1.389 . S
C1133 H1112 0.950 . S
C1133 C1132 1.373 . S
C1133 C1149 1.377 . S
C1134 C1132 1.389 . S
C1134 C1135 1.524 . S
C1134 C1148 1.377 . S
C1135 C1134 1.524 . S
C1135 C1136 1.397 . S
C1135 C1140 1.363 . S
C1136 H1113 0.950 . S
C1136 C1135 1.397 . S
C1136 C1137 1.334 . S
C1137 H1114 0.950 . S
C1137 C1136 1.334 . S
C1137 C1138 1.287 . S
C1138 C1137 1.287 . S
C1138 C1139 1.524 . S
C1138 H1157 0.913 . S
C1139 H1115 0.950 . S
C1139 C1138 1.524 . S
C1139 C1140 1.415 . S
C1140 H1116 0.950 . S
C1140 C1135 1.363 . S
C1140 C1139 1.415 . S
C1141 H1117 0.951 . S
C1141 C1142 1.366 . S
C1141 C1143 1.388 . S
C1142 C1141 1.366 . S
C1142 C1146 1.385 . S
C1143 H1118 0.951 . S
C1143 C1141 1.388 . S
C1143 C1144 1.366 . S
C1144 C1143 1.366 . S
C1144 C1145 1.414 . S
C1144 C1147 1.499 . S
C1145 H1119 0.950 . S
C1145 C1144 1.414 . S
C1145 C1146 1.374 . S
C1146 H1120 0.950 . S
C1146 C1142 1.385 . S
C1146 C1145 1.374 . S
C1147 C1144 1.499 . S
C1147 C1148 1.373 . S
C1147 C1149 1.389 . S
C1148 H1121 0.950 . S
C1148 C1134 1.377 . S
C1148 C1147 1.373 . S
C1149 C1133 1.377 . S
C1149 C1147 1.389 . S
C1149 C1150 1.524 . S
C1150 C1149 1.524 . S
C1150 C1151 1.397 . S
C1150 C1155 1.363 . S
C1151 H1122 0.950 . S
C1151 C1150 1.397 . S
C1151 C1152 1.334 1_554 S
C1152 H1123 0.950 . S
C1152 C1151 1.334 1_556 S
C1152 C1153 1.287 . S
C1153 C1152 1.287 . S
C1153 C1154 1.524 . S
C1153 H1156 0.999 . S
C1154 H1124 0.950 . S
C1154 C1153 1.524 . S
C1154 C1155 1.415 1_556 S
C1155 H1125 0.950 . S
C1155 C1150 1.363 . S
C1155 C1154 1.415 1_554 S
H1156 C1153 0.999 . S
H1157 C1138 0.913 . S
H1158 C1176 0.951 . S
H1159 C1178 0.951 . S
H1160 C1180 0.950 . S
H1161 C1181 0.950 . S
H1162 C1183 0.950 . S
H1163 C1186 0.950 . S
H1164 C1187 0.950 . S
H1165 C1189 0.950 . S
H1166 C1190 0.950 . S
H1167 C1191 0.951 . S
H1168 C1193 0.951 . S
H1169 C1195 0.950 . S
H1170 C1196 0.950 . S
H1171 C1198 0.950 . S
H1172 C1201 0.950 . S
H1173 C1202 0.950 . S
H1174 C1204 0.950 . S
H1175 C1205 0.950 . S
C1176 H1158 0.951 . S
C1176 C1177 1.366 . S
C1176 C1178 1.388 . S
C1177 C1176 1.366 . S
C1177 C1181 1.385 . S
C1178 H1159 0.951 . S
C1178 C1176 1.388 . S
C1178 C1179 1.366 . S
C1179 C1178 1.366 . S
C1179 C1180 1.414 . S
C1179 C1182 1.499 . S
C1180 H1160 0.950 . S
C1180 C1179 1.414 . S
C1180 C1181 1.374 . S
C1181 H1161 0.950 . S
C1181 C1177 1.385 . S
C1181 C1180 1.374 . S
C1182 C1179 1.499 . S
C1182 C1183 1.373 . S
C1182 C1184 1.389 . S
C1183 H1162 0.950 . S
C1183 C1182 1.373 . S
C1183 C1199 1.377 . S
C1184 C1182 1.389 . S
C1184 C1185 1.524 . S
C1184 C1198 1.377 . S
C1185 C1184 1.524 . S
C1185 C1186 1.397 . S
C1185 C1190 1.363 . S
C1186 H1163 0.950 . S
C1186 C1185 1.397 . S
C1186 C1187 1.334 . S
C1187 H1164 0.950 . S
C1187 C1186 1.334 . S
C1187 C1188 1.287 . S
C1188 C1187 1.287 . S
C1188 C1189 1.524 . S
C1188 H1207 0.913 . S
C1189 H1165 0.950 . S
C1189 C1188 1.524 . S
C1189 C1190 1.415 . S
C1190 H1166 0.950 . S
C1190 C1185 1.363 . S
C1190 C1189 1.415 . S
C1191 H1167 0.951 . S
C1191 C1192 1.366 . S
C1191 C1193 1.388 . S
C1192 C1191 1.366 . S
C1192 C1196 1.385 . S
C1193 H1168 0.951 . S
C1193 C1191 1.388 . S
C1193 C1194 1.366 . S
C1194 C1193 1.366 . S
C1194 C1195 1.414 . S
C1194 C1197 1.499 . S
C1195 H1169 0.950 . S
C1195 C1194 1.414 . S
C1195 C1196 1.374 . S
C1196 H1170 0.950 . S
C1196 C1192 1.385 . S
C1196 C1195 1.374 . S
C1197 C1194 1.499 . S
C1197 C1198 1.373 . S
C1197 C1199 1.389 . S
C1198 H1171 0.950 . S
C1198 C1184 1.377 . S
C1198 C1197 1.373 . S
C1199 C1183 1.377 . S
C1199 C1197 1.389 . S
C1199 C1200 1.524 . S
C1200 C1199 1.524 . S
C1200 C1201 1.397 . S
C1200 C1205 1.363 . S
C1201 H1172 0.950 . S
C1201 C1200 1.397 . S
C1201 C1202 1.334 . S
C1202 H1173 0.950 . S
C1202 C1201 1.334 . S
C1202 C1203 1.287 . S
C1203 C1202 1.287 . S
C1203 C1204 1.524 . S
C1203 H1206 0.999 . S
C1204 H1174 0.950 . S
C1204 C1203 1.524 . S
C1204 C1205 1.415 . S
C1205 H1175 0.950 . S
C1205 C1200 1.363 . S
C1205 C1204 1.415 . S
H1206 C1203 0.999 . S
H1207 C1188 0.913 . S
H1208 C1226 0.951 . S
H1209 C1228 0.951 . S
H1210 C1230 0.950 1_554 S
H1211 C1231 0.950 . S
H1212 C1233 0.950 . S
H1213 C1236 0.950 . S
H1214 C1237 0.950 . S
H1215 C1239 0.950 . S
H1216 C1240 0.950 . S
H1217 C1241 0.951 . S
H1218 C1243 0.951 . S
H1219 C1245 0.950 1_455 S
H1220 C1246 0.950 . S
H1221 C1248 0.950 . S
H1222 C1251 0.950 . S
H1223 C1252 0.950 . S
H1224 C1254 0.950 . S
H1225 C1255 0.950 . S
C1226 H1208 0.951 . S
C1226 C1227 1.366 . S
C1226 C1228 1.388 . S
C1227 C1226 1.366 . S
C1227 C1231 1.385 . S
C1228 H1209 0.951 . S
C1228 C1226 1.388 . S
C1228 C1229 1.366 . S
C1229 C1228 1.366 . S
C1229 C1230 1.414 . S
C1229 C1232 1.499 . S
C1230 H1210 0.950 1_556 S
C1230 C1229 1.414 . S
C1230 C1231 1.374 . S
C1231 H1211 0.950 . S
C1231 C1227 1.385 . S
C1231 C1230 1.374 . S
C1232 C1229 1.499 . S
C1232 C1233 1.373 1_556 S
C1232 C1234 1.389 . S
C1233 H1212 0.950 . S
C1233 C1232 1.373 1_554 S
C1233 C1249 1.377 . S
C1234 C1232 1.389 . S
C1234 C1235 1.524 . S
C1234 C1248 1.377 . S
C1235 C1234 1.524 . S
C1235 C1236 1.397 . S
C1235 C1240 1.363 . S
C1236 H1213 0.950 . S
C1236 C1235 1.397 . S
C1236 C1237 1.334 . S
C1237 H1214 0.950 . S
C1237 C1236 1.334 . S
C1237 C1238 1.287 . S
C1238 C1237 1.287 . S
C1238 C1239 1.524 . S
C1238 H1257 0.913 . S
C1239 H1215 0.950 . S
C1239 C1238 1.524 . S
C1239 C1240 1.415 . S
C1240 H1216 0.950 . S
C1240 C1235 1.363 . S
C1240 C1239 1.415 . S
C1241 H1217 0.951 . S
C1241 C1242 1.366 1_554 S
C1241 C1243 1.388 . S
C1242 C1241 1.366 1_556 S
C1242 C1246 1.385 1_655 S
C1243 H1218 0.951 . S
C1243 C1241 1.388 . S
C1243 C1244 1.366 1_554 S
C1244 C1243 1.366 1_556 S
C1244 C1245 1.414 . S
C1244 C1247 1.499 . S
C1245 H1219 0.950 1_655 S
C1245 C1244 1.414 . S
C1245 C1246 1.374 1_655 S
C1246 H1220 0.950 . S
C1246 C1242 1.385 1_455 S
C1246 C1245 1.374 1_455 S
C1247 C1244 1.499 . S
C1247 C1248 1.373 . S
C1247 C1249 1.389 1_556 S
C1248 H1221 0.950 . S
C1248 C1234 1.377 . S
C1248 C1247 1.373 . S
C1249 C1233 1.377 . S
C1249 C1247 1.389 1_554 S
C1249 C1250 1.524 . S
C1250 C1249 1.524 . S
C1250 C1251 1.397 1_655 S
C1250 C1255 1.363 . S
C1251 H1222 0.950 . S
C1251 C1250 1.397 1_455 S
C1251 C1252 1.334 . S
C1252 H1223 0.950 . S
C1252 C1251 1.334 . S
C1252 C1253 1.287 . S
C1253 C1252 1.287 . S
C1253 C1254 1.524 1_455 S
C1253 H1256 0.999 . S
C1254 H1224 0.950 . S
C1254 C1253 1.524 1_655 S
C1254 C1255 1.415 . S
C1255 H1225 0.950 . S
C1255 C1250 1.363 . S
C1255 C1254 1.415 . S
H1256 C1253 0.999 . S
H1257 C1238 0.913 . S
H1258 C1276 0.951 . S
H1259 C1278 0.951 . S
H1260 C1280 0.950 . S
H1261 C1281 0.950 . S
H1262 C1283 0.950 . S
H1263 C1286 0.950 . S
H1264 C1287 0.950 . S
H1265 C1289 0.950 . S
H1266 C1290 0.950 . S
H1267 C1291 0.951 . S
H1268 C1293 0.951 . S
H1269 C1295 0.950 . S
H1270 C1296 0.950 . S
H1271 C1298 0.950 . S
H1272 C1301 0.950 . S
H1273 C1302 0.950 . S
H1274 C1304 0.950 . S
H1275 C1305 0.950 . S
C1276 H1258 0.951 . S
C1276 C1277 1.366 . S
C1276 C1278 1.388 . S
C1277 C1276 1.366 . S
C1277 C1281 1.385 . S
C1278 H1259 0.951 . S
C1278 C1276 1.388 . S
C1278 C1279 1.366 . S
C1279 C1278 1.366 . S
C1279 C1280 1.414 . S
C1279 C1282 1.499 . S
C1280 H1260 0.950 . S
C1280 C1279 1.414 . S
C1280 C1281 1.374 . S
C1281 H1261 0.950 . S
C1281 C1277 1.385 . S
C1281 C1280 1.374 . S
C1282 C1279 1.499 . S
C1282 C1283 1.373 . S
C1282 C1284 1.389 . S
C1283 H1262 0.950 . S
C1283 C1282 1.373 . S
C1283 C1299 1.377 . S
C1284 C1282 1.389 . S
C1284 C1285 1.524 . S
C1284 C1298 1.377 . S
C1285 C1284 1.524 . S
C1285 C1286 1.397 . S
C1285 C1290 1.363 . S
C1286 H1263 0.950 . S
C1286 C1285 1.397 . S
C1286 C1287 1.334 . S
C1287 H1264 0.950 . S
C1287 C1286 1.334 . S
C1287 C1288 1.287 . S
C1288 C1287 1.287 . S
C1288 C1289 1.524 . S
C1288 H1307 0.913 . S
C1289 H1265 0.950 . S
C1289 C1288 1.524 . S
C1289 C1290 1.415 . S
C1290 H1266 0.950 . S
C1290 C1285 1.363 . S
C1290 C1289 1.415 . S
C1291 H1267 0.951 . S
C1291 C1292 1.366 . S
C1291 C1293 1.388 . S
C1292 C1291 1.366 . S
C1292 C1296 1.385 . S
C1293 H1268 0.951 . S
C1293 C1291 1.388 . S
C1293 C1294 1.366 . S
C1294 C1293 1.366 . S
C1294 C1295 1.414 . S
C1294 C1297 1.499 . S
C1295 H1269 0.950 . S
C1295 C1294 1.414 . S
C1295 C1296 1.374 . S
C1296 H1270 0.950 . S
C1296 C1292 1.385 . S
C1296 C1295 1.374 . S
C1297 C1294 1.499 . S
C1297 C1298 1.373 . S
C1297 C1299 1.389 . S
C1298 H1271 0.950 . S
C1298 C1284 1.377 . S
C1298 C1297 1.373 . S
C1299 C1283 1.377 . S
C1299 C1297 1.389 . S
C1299 C1300 1.524 . S
C1300 C1299 1.524 . S
C1300 C1301 1.397 . S
C1300 C1305 1.363 . S
C1301 H1272 0.950 . S
C1301 C1300 1.397 . S
C1301 C1302 1.334 . S
C1302 H1273 0.950 . S
C1302 C1301 1.334 . S
C1302 C1303 1.302 . S
C1303 C1302 1.302 . S
C1303 C1304 1.538 . S
C1303 H1306 0.967 1_554 S
C1304 H1274 0.950 . S
C1304 C1303 1.538 . S
C1304 C1305 1.415 . S
C1305 H1275 0.950 . S
C1305 C1300 1.363 . S
C1305 C1304 1.415 . S
H1306 C1303 0.967 1_556 S
H1307 C1288 0.913 . S
H1308 C1326 0.951 . S
H1309 C1328 0.951 . S
H1310 C1330 0.950 . S
H1311 C1331 0.950 . S
H1312 C1333 0.950 . S
H1313 C1336 0.950 . S
H1314 C1337 0.947 1_455 S
H1315 C1339 0.950 . S
H1316 C1340 0.950 . S
H1317 C1341 0.951 . S
H1318 C1343 0.951 . S
H1319 C1345 0.950 . S
H1320 C1346 0.950 1_655 S
H1321 C1348 0.950 . S
H1322 C1351 0.950 . S
H1323 C1352 0.950 . S
H1324 C1354 0.950 . S
H1325 C1355 0.950 . S
C1326 H1308 0.951 . S
C1326 C1327 1.366 . S
C1326 C1328 1.388 . S
C1327 C1326 1.366 . S
C1327 C1331 1.385 . S
C1328 H1309 0.951 . S
C1328 C1326 1.388 . S
C1328 C1329 1.366 . S
C1329 C1328 1.366 . S
C1329 C1330 1.414 . S
C1329 C1332 1.499 . S
C1330 H1310 0.950 . S
C1330 C1329 1.414 . S
C1330 C1331 1.374 . S
C1331 H1311 0.950 . S
C1331 C1327 1.385 . S
C1331 C1330 1.374 . S
C1332 C1329 1.499 . S
C1332 C1333 1.373 . S
C1332 C1334 1.389 . S
C1333 H1312 0.950 . S
C1333 C1332 1.373 . S
C1333 C1349 1.377 . S
C1334 C1332 1.389 . S
C1334 C1335 1.524 . S
C1334 C1348 1.377 . S
C1335 C1334 1.524 . S
C1335 C1336 1.397 . S
C1335 C1340 1.363 1_455 S
C1336 H1313 0.950 . S
C1336 C1335 1.397 . S
C1336 C1337 1.334 1_455 S
C1337 H1314 0.947 1_655 S
C1337 C1336 1.334 1_655 S
C1337 C1338 1.287 . S
C1338 C1337 1.287 . S
C1338 C1339 1.524 . S
C1338 H1357 0.913 . S
C1339 H1315 0.950 . S
C1339 C1338 1.524 . S
C1339 C1340 1.415 . S
C1340 H1316 0.950 . S
C1340 C1335 1.363 1_655 S
C1340 C1339 1.415 . S
C1341 H1317 0.951 . S
C1341 C1342 1.366 . S
C1341 C1343 1.388 . S
C1342 C1341 1.366 . S
C1342 C1346 1.385 . S
C1343 H1318 0.951 . S
C1343 C1341 1.388 . S
C1343 C1344 1.366 . S
C1344 C1343 1.366 . S
C1344 C1345 1.414 . S
C1344 C1347 1.499 . S
C1345 H1319 0.950 . S
C1345 C1344 1.414 . S
C1345 C1346 1.374 . S
C1346 H1320 0.950 1_455 S
C1346 C1342 1.385 . S
C1346 C1345 1.374 . S
C1347 C1344 1.499 . S
C1347 C1348 1.373 . S
C1347 C1349 1.389 . S
C1348 H1321 0.950 . S
C1348 C1334 1.377 . S
C1348 C1347 1.373 . S
C1349 C1333 1.377 . S
C1349 C1347 1.389 . S
C1349 C1350 1.524 . S
C1350 C1349 1.524 . S
C1350 C1351 1.397 . S
C1350 C1355 1.363 . S
C1351 H1322 0.950 . S
C1351 C1350 1.397 . S
C1351 C1352 1.334 . S
C1352 H1323 0.950 . S
C1352 C1351 1.334 . S
C1352 C1353 1.287 . S
C1353 C1352 1.287 . S
C1353 C1354 1.524 . S
C1353 H1356 0.999 . S
C1354 H1324 0.950 . S
C1354 C1353 1.524 . S
C1354 C1355 1.415 . S
C1355 H1325 0.950 . S
C1355 C1350 1.363 . S
C1355 C1354 1.415 . S
H1356 C1353 0.999 . S
H1357 C1338 0.913 . S
H1358 C1376 0.951 . S
H1359 C1378 0.951 . S
H1360 C1380 0.950 . S
H1361 C1381 0.950 . S
H1362 C1383 0.950 . S
H1363 C1386 0.950 . S
H1364 C1387 0.950 . S
H1365 C1389 0.950 . S
H1366 C1390 0.950 . S
H1367 C1391 0.951 . S
H1368 C1393 0.951 . S
H1369 C1395 0.950 . S
H1370 C1396 0.950 . S
H1371 C1398 0.950 . S
H1372 C1401 0.950 . S
H1373 C1402 0.950 . S
H1374 C1404 0.950 . S
H1375 C1405 0.950 . S
C1376 H1358 0.951 . S
C1376 C1377 1.366 . S
C1376 C1378 1.388 . S
C1377 C1376 1.366 . S
C1377 C1381 1.385 . S
C1378 H1359 0.951 . S
C1378 C1376 1.388 . S
C1378 C1379 1.366 . S
C1379 C1378 1.366 . S
C1379 C1380 1.414 . S
C1379 C1382 1.499 . S
C1380 H1360 0.950 . S
C1380 C1379 1.414 . S
C1380 C1381 1.374 . S
C1381 H1361 0.950 . S
C1381 C1377 1.385 . S
C1381 C1380 1.374 . S
C1382 C1379 1.499 . S
C1382 C1383 1.373 . S
C1382 C1384 1.389 . S
C1383 H1362 0.950 . S
C1383 C1382 1.373 . S
C1383 C1399 1.377 . S
C1384 C1382 1.389 . S
C1384 C1385 1.524 . S
C1384 C1398 1.377 . S
C1385 C1384 1.524 . S
C1385 C1386 1.397 . S
C1385 C1390 1.363 . S
C1386 H1363 0.950 . S
C1386 C1385 1.397 . S
C1386 C1387 1.334 . S
C1387 H1364 0.950 . S
C1387 C1386 1.334 . S
C1387 C1388 1.287 . S
C1388 C1387 1.287 . S
C1388 C1389 1.524 . S
C1388 H1407 0.913 . S
C1389 H1365 0.950 . S
C1389 C1388 1.524 . S
C1389 C1390 1.415 . S
C1390 H1366 0.950 . S
C1390 C1385 1.363 . S
C1390 C1389 1.415 . S
C1391 H1367 0.951 . S
C1391 C1392 1.366 . S
C1391 C1393 1.388 . S
C1392 C1391 1.366 . S
C1392 C1396 1.385 . S
C1393 H1368 0.951 . S
C1393 C1391 1.388 . S
C1393 C1394 1.366 . S
C1394 C1393 1.366 . S
C1394 C1395 1.414 . S
C1394 C1397 1.499 . S
C1395 H1369 0.950 . S
C1395 C1394 1.414 . S
C1395 C1396 1.374 . S
C1396 H1370 0.950 . S
C1396 C1392 1.385 . S
C1396 C1395 1.374 . S
C1397 C1394 1.499 . S
C1397 C1398 1.373 . S
C1397 C1399 1.389 . S
C1398 H1371 0.950 . S
C1398 C1384 1.377 . S
C1398 C1397 1.373 . S
C1399 C1383 1.377 . S
C1399 C1397 1.389 . S
C1399 C1400 1.524 . S
C1400 C1399 1.524 . S
C1400 C1401 1.397 . S
C1400 C1405 1.363 . S
C1401 H1372 0.950 . S
C1401 C1400 1.397 . S
C1401 C1402 1.334 . S
C1402 H1373 0.950 . S
C1402 C1401 1.334 . S
C1402 C1403 1.287 . S
C1403 C1402 1.287 . S
C1403 C1404 1.524 . S
C1403 H1406 0.999 . S
C1404 H1374 0.950 . S
C1404 C1403 1.524 . S
C1404 C1405 1.415 . S
C1405 H1375 0.950 . S
C1405 C1400 1.363 . S
C1405 C1404 1.415 . S
H1406 C1403 0.999 . S
H1407 C1388 0.913 . S
C227 C5 2.417 . S
C242 C104 2.562 . S
C277 C18 1.132 . S
C292 N124 1.166 . S
C342 C158 1.718 . S
C327 C30 1.681 . S
C377 C41 1.015 . S
C392 N192 0.974 . S
C442 C145 2.693 . S
C427 C7 2.635 . S
C492 N102 1.391 . S
C477 C16 1.177 . S
C542 C179 2.007 1_556 S
C527 C29 1.896 . S
C592 N154 0.603 . S
C577 C38 0.634 . S
C627 C8 1.964 . S
C642 C194 1.962 . S
C692 C128 1.843 . S
C677 C27 1.539 . S
C727 C40 1.389 . S
C742 C89 1.391 . S
C777 C19 0.977 . S
C792 C175 0.998 . S
C842 C115 2.244 . S
C827 C51 2.172 . S
C877 C62 1.210 . S
C892 N132 1.259 . S
C927 C74 1.785 . S
C942 C149 1.824 . S
C977 C84 1.062 . S
C992 N184 1.105 . S
C1027 C49 2.604 . S
C1042 C134 2.766 1_565 S
C1092 N94 1.098 . S
C1077 C63 1.097 . S
C1142 C188 1.829 . S
C1127 C71 1.525 . S
C1192 N162 0.681 . S
C1177 C85 0.683 . S
C1227 C52 1.899 . S
C1242 C205 1.898 1_656 S
C1292 C119 1.959 . S
C1277 C73 1.842 . S
C1342 C98 1.171 . S
C1327 C82 0.949 . S
C1377 C60 1.308 . S
C1392 C164 1.608 . S
