# Generated by pormake.
# Topology ocu, (6,8)-cn, num edge types: 1
# Building blocks:
#     Node 0, Type 0, BuildingBlock: KUMBOL_clean_sbu_0, # of connection points: 6
#     Node 1, Type 0, BuildingBlock: KUMBOL_clean_sbu_0, # of connection points: 6
#     Node 2, Type 0, BuildingBlock: KUMBOL_clean_sbu_0, # of connection points: 6
#     Node 3, Type 0, BuildingBlock: KUMBOL_clean_sbu_0, # of connection points: 6
#     Node 4, Type 0, BuildingBlock: KUMBOL_clean_sbu_0, # of connection points: 6
#     Node 5, Type 0, BuildingBlock: KUMBOL_clean_sbu_0, # of connection points: 6
#     Node 6, Type 0, BuildingBlock: KUMBOL_clean_sbu_0, # of connection points: 6
#     Node 7, Type 0, BuildingBlock: KUMBOL_clean_sbu_0, # of connection points: 6
#     Node 8, Type 1, BuildingBlock: AJUNOK_clean_sbu_0, # of connection points: 8
#     Node 9, Type 1, BuildingBlock: AJUNOK_clean_sbu_0, # of connection points: 8
#     Node 10, Type 1, BuildingBlock: AJUNOK_clean_sbu_0, # of connection points: 8
#     Node 11, Type 1, BuildingBlock: AJUNOK_clean_sbu_0, # of connection points: 8
#     Node 12, Type 1, BuildingBlock: AJUNOK_clean_sbu_0, # of connection points: 8
#     Node 13, Type 1, BuildingBlock: AJUNOK_clean_sbu_0, # of connection points: 8
#     Edge 14, Type (0, 1), BuildingBlock: KIFKEQ_clean_linker_1, # of connection points: 2
#     Edge 15, Type (0, 1), BuildingBlock: KIFKEQ_clean_linker_1, # of connection points: 2
#     Edge 16, Type (0, 1), BuildingBlock: KIFKEQ_clean_linker_1, # of connection points: 2
#     Edge 17, Type (0, 1), BuildingBlock: KIFKEQ_clean_linker_1, # of connection points: 2
#     Edge 18, Type (0, 1), BuildingBlock: KIFKEQ_clean_linker_1, # of connection points: 2
#     Edge 19, Type (0, 1), BuildingBlock: KIFKEQ_clean_linker_1, # of connection points: 2
#     Edge 20, Type (0, 1), BuildingBlock: KIFKEQ_clean_linker_1, # of connection points: 2
#     Edge 21, Type (0, 1), BuildingBlock: KIFKEQ_clean_linker_1, # of connection points: 2
#     Edge 22, Type (0, 1), BuildingBlock: KIFKEQ_clean_linker_1, # of connection points: 2
#     Edge 23, Type (0, 1), BuildingBlock: KIFKEQ_clean_linker_1, # of connection points: 2
#     Edge 24, Type (0, 1), BuildingBlock: KIFKEQ_clean_linker_1, # of connection points: 2
#     Edge 25, Type (0, 1), BuildingBlock: KIFKEQ_clean_linker_1, # of connection points: 2
#     Edge 26, Type (0, 1), BuildingBlock: KIFKEQ_clean_linker_1, # of connection points: 2
#     Edge 27, Type (0, 1), BuildingBlock: KIFKEQ_clean_linker_1, # of connection points: 2
#     Edge 28, Type (0, 1), BuildingBlock: KIFKEQ_clean_linker_1, # of connection points: 2
#     Edge 29, Type (0, 1), BuildingBlock: KIFKEQ_clean_linker_1, # of connection points: 2
#     Edge 30, Type (0, 1), BuildingBlock: KIFKEQ_clean_linker_1, # of connection points: 2
#     Edge 31, Type (0, 1), BuildingBlock: KIFKEQ_clean_linker_1, # of connection points: 2
#     Edge 32, Type (0, 1), BuildingBlock: KIFKEQ_clean_linker_1, # of connection points: 2
#     Edge 33, Type (0, 1), BuildingBlock: KIFKEQ_clean_linker_1, # of connection points: 2
#     Edge 34, Type (0, 1), BuildingBlock: KIFKEQ_clean_linker_1, # of connection points: 2
#     Edge 35, Type (0, 1), BuildingBlock: KIFKEQ_clean_linker_1, # of connection points: 2
#     Edge 36, Type (0, 1), BuildingBlock: KIFKEQ_clean_linker_1, # of connection points: 2
#     Edge 37, Type (0, 1), BuildingBlock: KIFKEQ_clean_linker_1, # of connection points: 2
#     Edge 38, Type (0, 1), BuildingBlock: KIFKEQ_clean_linker_1, # of connection points: 2
#     Edge 39, Type (0, 1), BuildingBlock: KIFKEQ_clean_linker_1, # of connection points: 2
#     Edge 40, Type (0, 1), BuildingBlock: KIFKEQ_clean_linker_1, # of connection points: 2
#     Edge 41, Type (0, 1), BuildingBlock: KIFKEQ_clean_linker_1, # of connection points: 2
#     Edge 42, Type (0, 1), BuildingBlock: KIFKEQ_clean_linker_1, # of connection points: 2
#     Edge 43, Type (0, 1), BuildingBlock: KIFKEQ_clean_linker_1, # of connection points: 2
#     Edge 44, Type (0, 1), BuildingBlock: KIFKEQ_clean_linker_1, # of connection points: 2
#     Edge 45, Type (0, 1), BuildingBlock: KIFKEQ_clean_linker_1, # of connection points: 2
#     Edge 46, Type (0, 1), BuildingBlock: KIFKEQ_clean_linker_1, # of connection points: 2
#     Edge 47, Type (0, 1), BuildingBlock: KIFKEQ_clean_linker_1, # of connection points: 2
#     Edge 48, Type (0, 1), BuildingBlock: KIFKEQ_clean_linker_1, # of connection points: 2
#     Edge 49, Type (0, 1), BuildingBlock: KIFKEQ_clean_linker_1, # of connection points: 2
#     Edge 50, Type (0, 1), BuildingBlock: KIFKEQ_clean_linker_1, # of connection points: 2
#     Edge 51, Type (0, 1), BuildingBlock: KIFKEQ_clean_linker_1, # of connection points: 2
#     Edge 52, Type (0, 1), BuildingBlock: KIFKEQ_clean_linker_1, # of connection points: 2
#     Edge 53, Type (0, 1), BuildingBlock: KIFKEQ_clean_linker_1, # of connection points: 2
#     Edge 54, Type (0, 1), BuildingBlock: KIFKEQ_clean_linker_1, # of connection points: 2
#     Edge 55, Type (0, 1), BuildingBlock: KIFKEQ_clean_linker_1, # of connection points: 2
#     Edge 56, Type (0, 1), BuildingBlock: KIFKEQ_clean_linker_1, # of connection points: 2
#     Edge 57, Type (0, 1), BuildingBlock: KIFKEQ_clean_linker_1, # of connection points: 2
#     Edge 58, Type (0, 1), BuildingBlock: KIFKEQ_clean_linker_1, # of connection points: 2
#     Edge 59, Type (0, 1), BuildingBlock: KIFKEQ_clean_linker_1, # of connection points: 2
#     Edge 60, Type (0, 1), BuildingBlock: KIFKEQ_clean_linker_1, # of connection points: 2
#     Edge 61, Type (0, 1), BuildingBlock: KIFKEQ_clean_linker_1, # of connection points: 2
# Relax obj value: 0.175
# Max RMSD: 0.266
# Mean RMSD: 0.204
data_MOF--net-ocu--node1-KUMBOL_clean_sbu_0--node2-AJUNOK_clean_sbu_0--edge1-KIFKEQ_clean_linker_1
_symmetry_space_group_name_H-M    P1
_symmetry_Int_Tables_number       1
_symmetry_cell_setting            triclinic
loop_
_symmetry_equiv_pos_as_xyz
'x, y, z'
_cell_length_a     44.820687
_cell_length_b     41.946456
_cell_length_c     40.318513
_cell_angle_alpha  91.452811
_cell_angle_beta   100.61658
_cell_angle_gamma 111.25283
loop_
_atom_site_label
_atom_site_type_symbol
_atom_site_fract_x
_atom_site_fract_y
_atom_site_fract_z
_atom_type_partial_charge
Gd0 Gd 0.29715 0.30801 0.29831 0.0
Gd1 Gd 0.2603 0.24462 0.23128 0.0
C2 C 0.18289 0.24847 0.14196 0.0
C3 C 0.1379 0.19456 0.14264 0.0
C4 C 0.18819 0.21094 0.18554 0.0
C5 C 0.2013 0.24119 0.17107 0.0
C6 C 0.15652 0.18705 0.17112 0.0
C7 C 0.15103 0.22523 0.12813 0.0
C8 C 0.19731 0.27845 0.12702 0.0
C9 C 0.22958 0.29989 0.14053 0.0
N10 N 0.23249 0.26276 0.18449 0.0
C11 C 0.24703 0.29141 0.16905 0.0
H12 H 0.27203 0.30834 0.17862 0.0
C13 C 0.19621 0.17306 0.22563 0.0
N14 N 0.2069 0.20409 0.21274 0.0
C15 C 0.1649 0.1487 0.21238 0.0
C16 C 0.14486 0.15583 0.18517 0.0
H17 H 0.2118 0.1673 0.24646 0.0
H18 H 0.13658 0.23042 0.10581 0.0
H19 H 0.2869 0.24543 0.35237 0.0
H20 H 0.18397 0.28493 0.10468 0.0
H21 H 0.24118 0.32288 0.12885 0.0
H22 H 0.11352 0.17655 0.13127 0.0
H23 H 0.34472 0.38537 0.28177 0.0
H24 H 0.37696 0.26892 0.42307 0.0
H25 H 0.31923 0.23119 0.40108 0.0
H26 H 0.44611 0.37663 0.39386 0.0
H27 H 0.15634 0.12438 0.22302 0.0
H28 H 0.12071 0.13681 0.17476 0.0
H29 H 0.42406 0.32306 0.42012 0.0
H30 H 0.40048 0.42837 0.30363 0.0
N31 N 0.32601 0.29068 0.3449 0.0
C32 C 0.36293 0.27529 0.40119 0.0
C33 C 0.33036 0.25399 0.38892 0.0
C34 C 0.37676 0.30504 0.38567 0.0
C35 C 0.35746 0.31218 0.35719 0.0
C36 C 0.31206 0.26232 0.36099 0.0
N37 N 0.35053 0.34897 0.3156 0.0
C38 C 0.37001 0.34228 0.34225 0.0
C39 C 0.39228 0.4042 0.3146 0.0
C40 C 0.41309 0.39718 0.34114 0.0
C41 C 0.36077 0.37982 0.30227 0.0
C42 C 0.40197 0.36612 0.35557 0.0
H43 H 0.43745 0.41616 0.35073 0.0
O44 O 0.29323 0.35598 0.31369 0.0
O45 O 0.25415 0.2925 0.2526 0.0
O46 O 0.30308 0.28799 0.21963 0.0
O47 O 0.33732 0.3131 0.27088 0.0
O48 O 0.28583 0.34226 0.25841 0.0
O49 O 0.27752 0.31221 0.34279 0.0
O50 O 0.26508 0.19686 0.21699 0.0
O51 O 0.30286 0.25998 0.27702 0.0
O52 O 0.25546 0.26448 0.31082 0.0
O53 O 0.22061 0.23792 0.26018 0.0
O54 O 0.27133 0.21019 0.27126 0.0
O55 O 0.27931 0.23961 0.18643 0.0
C56 C 0.25776 0.32196 0.24101 0.0
C57 C 0.42148 0.35868 0.38336 0.0
C58 C 0.40892 0.32818 0.39832 0.0
C59 C 0.28205 0.34447 0.34042 0.0
C60 C 0.29506 0.36741 0.37203 0.0
C61 C 0.32668 0.39289 0.37936 0.0
C62 C 0.27414 0.36469 0.39449 0.0
C63 C 0.28405 0.38772 0.42384 0.0
C64 C 0.33704 0.41546 0.4089 0.0
C65 C 0.31585 0.41306 0.43102 0.0
C66 C 0.33232 0.30581 0.23802 0.0
C67 C 0.29924 0.23067 0.28885 0.0
C68 C 0.2753 0.20756 0.18959 0.0
C69 C 0.26164 0.18357 0.15859 0.0
C70 C 0.23128 0.15612 0.15393 0.0
C71 C 0.28093 0.1869 0.13432 0.0
C72 C 0.27078 0.16249 0.10597 0.0
C73 C 0.22052 0.13232 0.12532 0.0
C74 C 0.24018 0.13527 0.10154 0.0
C75 C 0.22628 0.24558 0.29313 0.0
H76 H 0.34316 0.39572 0.36221 0.0
H77 H 0.24976 0.34489 0.38865 0.0
H78 H 0.36133 0.4353 0.41434 0.0
H79 H 0.324 0.43163 0.45312 0.0
H80 H 0.21618 0.15257 0.17252 0.0
H81 H 0.3044 0.2081 0.13813 0.0
H82 H 0.19726 0.11099 0.12205 0.0
H83 H 0.23194 0.11557 0.0804 0.0
Gd84 Gd 0.75307 0.28906 0.27371 0.0
Gd85 Gd 0.81142 0.25046 0.25581 0.0
C86 C 0.90359 0.31355 0.21672 0.0
C87 C 0.88836 0.29132 0.15738 0.0
C88 C 0.85065 0.26856 0.19516 0.0
C89 C 0.87301 0.29079 0.22204 0.0
C90 C 0.8587 0.2677 0.16291 0.0
C91 C 0.91067 0.31435 0.18418 0.0
C92 C 0.9268 0.33403 0.24443 0.0
C93 C 0.92042 0.3297 0.27678 0.0
N94 N 0.86595 0.28853 0.25362 0.0
C95 C 0.89047 0.30586 0.28106 0.0
H96 H 0.88829 0.30132 0.30681 0.0
C97 C 0.80253 0.21933 0.17696 0.0
N98 N 0.82205 0.24605 0.20098 0.0
C99 C 0.80947 0.21741 0.14478 0.0
C100 C 0.83736 0.24215 0.13747 0.0
H101 H 0.78101 0.19961 0.1823 0.0
H102 H 0.93387 0.33185 0.17974 0.0
H103 H 0.6824 0.21941 0.26021 0.0
H104 H 0.95037 0.35194 0.24133 0.0
H105 H 0.93899 0.34402 0.29866 0.0
H106 H 0.89471 0.29128 0.13271 0.0
H107 H 0.78609 0.36972 0.314 0.0
H108 H 0.64527 0.20863 0.351 0.0
H109 H 0.64084 0.18812 0.29167 0.0
H110 H 0.71497 0.31165 0.42125 0.0
H111 H 0.79339 0.1967 0.12574 0.0
H112 H 0.84284 0.2405 0.11255 0.0
H113 H 0.67401 0.2541 0.39982 0.0
H114 H 0.78925 0.39856 0.36924 0.0
N115 N 0.71218 0.25652 0.30193 0.0
C116 C 0.66411 0.22233 0.33748 0.0
C117 C 0.66149 0.2107 0.30399 0.0
C118 C 0.68993 0.25261 0.35243 0.0
C119 C 0.71353 0.26983 0.33348 0.0
C120 C 0.68561 0.22839 0.28637 0.0
N121 N 0.75551 0.3203 0.32437 0.0
C122 C 0.73613 0.3026 0.34521 0.0
C123 C 0.77446 0.37148 0.36296 0.0
C124 C 0.75673 0.35295 0.38585 0.0
C125 C 0.7727 0.35497 0.3317 0.0
C126 C 0.73633 0.31844 0.37662 0.0
H127 H 0.7577 0.36595 0.40982 0.0
O128 O 0.74015 0.30871 0.22591 0.0
O129 O 0.79168 0.29088 0.24628 0.0
O130 O 0.83476 0.28658 0.3041 0.0
O131 O 0.79574 0.30685 0.31879 0.0
O132 O 0.79399 0.33791 0.2671 0.0
O133 O 0.70882 0.30007 0.26201 0.0
O134 O 0.7861 0.19511 0.24518 0.0
O135 O 0.76703 0.24373 0.27665 0.0
O136 O 0.73077 0.23904 0.24016 0.0
O137 O 0.77127 0.24738 0.21056 0.0
O138 O 0.80398 0.23258 0.30718 0.0
O139 O 0.8389 0.21718 0.26281 0.0
C140 C 0.80777 0.32263 0.25027 0.0
C141 C 0.71488 0.30004 0.3969 0.0
C142 C 0.69159 0.26725 0.38473 0.0
C143 C 0.71433 0.31157 0.23334 0.0
C144 C 0.70859 0.34287 0.22514 0.0
C145 C 0.70939 0.36727 0.25009 0.0
C146 C 0.6991 0.34637 0.19093 0.0
C147 C 0.68808 0.37263 0.1811 0.0
C148 C 0.69989 0.39454 0.24051 0.0
C149 C 0.68891 0.39707 0.20623 0.0
C150 C 0.82496 0.30454 0.32431 0.0
C151 C 0.77493 0.2329 0.30436 0.0
C152 C 0.81261 0.18913 0.25612 0.0
C153 C 0.80994 0.16314 0.28041 0.0
C154 C 0.78958 0.12885 0.26961 0.0
C155 C 0.82723 0.17216 0.31425 0.0
C156 C 0.82455 0.14707 0.33719 0.0
C157 C 0.78653 0.10382 0.29226 0.0
C158 C 0.8039 0.11276 0.32579 0.0
C159 C 0.74001 0.23536 0.21163 0.0
H160 H 0.71663 0.36486 0.27678 0.0
H161 H 0.6989 0.32747 0.17192 0.0
H162 H 0.69997 0.41308 0.25973 0.0
H163 H 0.67991 0.41727 0.19958 0.0
H164 H 0.7761 0.12144 0.24361 0.0
H165 H 0.84293 0.19867 0.3227 0.0
H166 H 0.77099 0.07731 0.28369 0.0
H167 H 0.80192 0.09256 0.34244 0.0
Gd168 Gd 0.76811 0.74408 0.29395 0.0
Gd169 Gd 0.79417 0.80869 0.24157 0.0
C170 C 0.86248 0.81375 0.16871 0.0
C171 C 0.90722 0.86823 0.18916 0.0
C172 C 0.86154 0.84752 0.21789 0.0
C173 C 0.84711 0.81836 0.19505 0.0
C174 C 0.89163 0.87295 0.215 0.0
C175 C 0.89268 0.83868 0.16607 0.0
C176 C 0.84672 0.78459 0.14531 0.0
C177 C 0.81614 0.76124 0.14809 0.0
N178 N 0.81752 0.79515 0.19779 0.0
C179 C 0.80168 0.76712 0.17428 0.0
H180 H 0.77797 0.74867 0.17549 0.0
C181 C 0.85774 0.8813 0.26361 0.0
N182 N 0.84552 0.85173 0.24208 0.0
C183 C 0.8877 0.90699 0.26204 0.0
C184 C 0.90479 0.90277 0.2377 0.0
H185 H 0.84454 0.88489 0.28233 0.0
H186 H 0.90477 0.83559 0.14597 0.0
H187 H 0.78051 0.80272 0.35951 0.0
H188 H 0.85772 0.78013 0.12476 0.0
H189 H 0.80354 0.73875 0.12991 0.0
H190 H 0.93031 0.8875 0.18651 0.0
H191 H 0.71965 0.66775 0.25105 0.0
H192 H 0.69838 0.76835 0.4068 0.0
H193 H 0.75259 0.81116 0.40367 0.0
H194 H 0.62941 0.66082 0.3429 0.0
H195 H 0.8975 0.93012 0.27949 0.0
H196 H 0.92784 0.92287 0.23631 0.0
H197 H 0.65268 0.71228 0.38405 0.0
H198 H 0.66686 0.62151 0.25179 0.0
N199 N 0.74241 0.75574 0.33635 0.0
C200 C 0.71047 0.76455 0.38697 0.0
C201 C 0.74107 0.78871 0.38534 0.0
C202 C 0.69607 0.73549 0.36332 0.0
C203 C 0.71283 0.73177 0.33795 0.0
C204 C 0.75688 0.7837 0.36003 0.0
N205 N 0.71694 0.69969 0.29139 0.0
C206 C 0.6997 0.70288 0.31478 0.0
C207 C 0.67578 0.64427 0.26963 0.0
C208 C 0.65754 0.64741 0.2932 0.0
C209 C 0.70574 0.6706 0.2693 0.0
C210 C 0.66952 0.67682 0.31634 0.0
H211 H 0.63447 0.62684 0.29358 0.0
O212 O 0.77824 0.69845 0.30546 0.0
O213 O 0.80384 0.76113 0.25799 0.0
O214 O 0.75151 0.76261 0.21501 0.0
O215 O 0.7234 0.74015 0.25636 0.0
O216 O 0.77369 0.71079 0.25134 0.0
O217 O 0.79762 0.74298 0.34285 0.0
O218 O 0.78576 0.85537 0.23073 0.0
O219 O 0.75877 0.79189 0.27764 0.0
O220 O 0.80992 0.79055 0.32122 0.0
O221 O 0.83854 0.81352 0.28032 0.0
O222 O 0.78867 0.84223 0.28405 0.0
O223 O 0.76344 0.81042 0.19374 0.0
C224 C 0.79837 0.73215 0.2412 0.0
C225 C 0.65259 0.68058 0.34128 0.0
C226 C 0.66583 0.70987 0.36471 0.0
C227 C 0.79499 0.71146 0.33588 0.0
C228 C 0.78981 0.68867 0.36293 0.0
C229 C 0.75842 0.66739 0.36639 0.0
C230 C 0.81736 0.68708 0.38463 0.0
C231 C 0.81395 0.66424 0.40982 0.0
C232 C 0.75474 0.64475 0.39151 0.0
C233 C 0.78228 0.64308 0.4131 0.0
C234 C 0.72413 0.74533 0.2245 0.0
C235 C 0.76397 0.82087 0.29424 0.0
C236 C 0.76756 0.8424 0.20086 0.0
C237 C 0.77206 0.8647 0.1734 0.0
C238 C 0.80317 0.88556 0.16875 0.0
C239 C 0.7441 0.86624 0.15252 0.0
C240 C 0.74678 0.88865 0.12701 0.0
C241 C 0.80611 0.90778 0.14326 0.0
C242 C 0.77814 0.90945 0.12252 0.0
C243 C 0.83727 0.80892 0.31221 0.0
H244 H 0.73689 0.66791 0.34953 0.0
H245 H 0.84153 0.70291 0.38104 0.0
H246 H 0.73048 0.62823 0.39408 0.0
H247 H 0.77879 0.62527 0.43233 0.0
H248 H 0.82503 0.88502 0.18497 0.0
H249 H 0.72018 0.85074 0.15702 0.0
H250 H 0.83013 0.92399 0.13977 0.0
H251 H 0.78102 0.92696 0.10301 0.0
Gd252 Gd 0.25528 0.79933 0.25669 0.0
Gd253 Gd 0.30544 0.74714 0.27912 0.0
C254 C 0.2725 0.65821 0.34381 0.0
C255 C 0.31282 0.67964 0.3966 0.0
C256 C 0.31613 0.71405 0.3488 0.0
C257 C 0.2883 0.68881 0.32988 0.0
C258 C 0.32924 0.7094 0.38206 0.0
C259 C 0.28443 0.65413 0.37753 0.0
C260 C 0.24565 0.63231 0.32318 0.0
C261 C 0.23593 0.63686 0.28928 0.0
N262 N 0.27746 0.6936 0.29738 0.0
C263 C 0.2524 0.6677 0.27662 0.0
H264 H 0.24433 0.67096 0.25052 0.0
C265 C 0.36096 0.76621 0.35013 0.0
N266 N 0.33119 0.74259 0.33412 0.0
C267 C 0.37507 0.76265 0.38309 0.0
C268 C 0.35887 0.7344 0.39935 0.0
H269 H 0.37324 0.78839 0.33779 0.0
H270 H 0.27238 0.63098 0.38881 0.0
H271 H 0.31662 0.87618 0.28021 0.0
H272 H 0.23276 0.60848 0.33295 0.0
H273 H 0.21555 0.61676 0.27294 0.0
H274 H 0.32226 0.67577 0.42227 0.0
H275 H 0.18453 0.75556 0.20285 0.0
H276 H 0.31868 0.93719 0.1967 0.0
H277 H 0.34175 0.93001 0.25539 0.0
H278 H 0.22331 0.86755 0.11462 0.0
H279 H 0.39823 0.78185 0.39603 0.0
H280 H 0.36977 0.73177 0.42493 0.0
H281 H 0.27449 0.91353 0.1441 0.0
H282 H 0.15465 0.76025 0.14648 0.0
N283 N 0.27988 0.85251 0.23589 0.0
C284 C 0.30743 0.91347 0.20752 0.0
C285 C 0.32047 0.90954 0.24068 0.0
C286 C 0.27947 0.8871 0.18908 0.0
C287 C 0.26593 0.85669 0.20432 0.0
C288 C 0.30606 0.87889 0.25469 0.0
N289 N 0.22454 0.80272 0.20386 0.0
C290 C 0.23725 0.83098 0.18779 0.0
C291 C 0.17789 0.78033 0.15779 0.0
C292 C 0.19127 0.80871 0.14037 0.0
C293 C 0.19484 0.77783 0.18979 0.0
C294 C 0.22116 0.83468 0.15547 0.0
H295 H 0.17815 0.81056 0.11554 0.0
O296 O 0.20926 0.79754 0.26784 0.0
O297 O 0.26054 0.75563 0.28303 0.0
O298 O 0.26843 0.72589 0.22891 0.0
O299 O 0.25651 0.77257 0.20875 0.0
O300 O 0.21407 0.74839 0.25886 0.0
O301 O 0.25574 0.83531 0.29599 0.0
O302 O 0.35414 0.75128 0.27552 0.0
O303 O 0.29972 0.79011 0.25165 0.0
O304 O 0.29528 0.82206 0.30406 0.0
O305 O 0.30347 0.77473 0.32645 0.0
O306 O 0.34649 0.79795 0.27554 0.0
O307 O 0.31089 0.70919 0.24528 0.0
C308 C 0.23146 0.73461 0.27783 0.0
C309 C 0.23514 0.86434 0.13959 0.0
C310 C 0.26428 0.8905 0.15636 0.0
C311 C 0.22395 0.823 0.29167 0.0
C312 C 0.20899 0.84795 0.29517 0.0
C313 C 0.19967 0.86503 0.26818 0.0
C314 C 0.2054 0.85549 0.32763 0.0
C315 C 0.19233 0.88001 0.33383 0.0
C316 C 0.18654 0.88974 0.27414 0.0
C317 C 0.18293 0.89734 0.30687 0.0
C318 C 0.25713 0.74154 0.20415 0.0
C319 C 0.32875 0.81111 0.25617 0.0
C320 C 0.34278 0.7241 0.25366 0.0
C321 C 0.36475 0.71126 0.24014 0.0
C322 C 0.39462 0.71393 0.26064 0.0
C323 C 0.35693 0.69843 0.206 0.0
C324 C 0.37922 0.68895 0.19198 0.0
C325 C 0.41655 0.70373 0.24702 0.0
C326 C 0.40902 0.69141 0.21284 0.0
C327 C 0.30412 0.80634 0.33001 0.0
H328 H 0.20272 0.85947 0.24291 0.0
H329 H 0.21343 0.84254 0.34839 0.0
H330 H 0.17922 0.90304 0.25344 0.0
H331 H 0.17253 0.91635 0.31104 0.0
H332 H 0.40099 0.72397 0.2871 0.0
H333 H 0.33414 0.69718 0.19006 0.0
H334 H 0.43953 0.70563 0.2629 0.0
H335 H 0.4264 0.68362 0.20276 0.0
Gd336 Gd 0.26015 0.80815 0.77368 0.0
Gd337 Gd 0.29819 0.74824 0.75243 0.0
C338 C 0.38561 0.7841 0.7 0.0
C339 C 0.36424 0.74673 0.64725 0.0
C340 C 0.33011 0.74195 0.68883 0.0
C341 C 0.35542 0.76816 0.71 0.0
C342 C 0.33456 0.73039 0.65758 0.0
C343 C 0.38967 0.77359 0.66837 0.0
C344 C 0.41089 0.81021 0.72202 0.0
C345 C 0.40588 0.81975 0.75321 0.0
N346 N 0.35058 0.77812 0.74027 0.0
C347 C 0.37558 0.80343 0.76197 0.0
H348 H 0.37225 0.81282 0.78539 0.0
C349 C 0.27768 0.69791 0.68126 0.0
N350 N 0.30153 0.72689 0.69923 0.0
C351 C 0.28097 0.68549 0.65017 0.0
C352 C 0.30933 0.70214 0.63801 0.0
H353 H 0.25559 0.68506 0.69052 0.0
H354 H 0.41255 0.7858 0.6602 0.0
H355 H 0.18425 0.74725 0.74063 0.0
H356 H 0.43429 0.82322 0.71515 0.0
H357 H 0.42516 0.84019 0.77034 0.0
H358 H 0.36795 0.73843 0.62319 0.0
H359 H 0.30421 0.87192 0.83497 0.0
H360 H 0.12659 0.73314 0.81576 0.0
H361 H 0.13249 0.71914 0.75806 0.0
H362 H 0.19696 0.81468 0.90862 0.0
H363 H 0.2616 0.66316 0.63559 0.0
H364 H 0.31183 0.69249 0.6139 0.0
H365 H 0.15112 0.7681 0.87203 0.0
H366 H 0.30068 0.89244 0.8917 0.0
N367 N 0.20854 0.77868 0.78744 0.0
C368 C 0.14953 0.74628 0.80802 0.0
C369 C 0.15272 0.7384 0.77543 0.0
C370 C 0.17584 0.77127 0.83012 0.0
C371 C 0.20531 0.78753 0.81888 0.0
C372 C 0.18241 0.7549 0.76549 0.0
N373 N 0.2589 0.82935 0.82784 0.0
C374 C 0.23128 0.81347 0.83971 0.0
C375 C 0.28109 0.87006 0.87745 0.0
C376 C 0.2539 0.85245 0.8911 0.0
C377 C 0.28296 0.85847 0.84536 0.0
C378 C 0.22828 0.82418 0.87198 0.0
H379 H 0.2525 0.86146 0.91598 0.0
O380 O 0.27095 0.86253 0.77075 0.0
O381 O 0.2934 0.79819 0.74365 0.0
O382 O 0.32598 0.77965 0.80321 0.0
O383 O 0.29119 0.80282 0.82206 0.0
O384 O 0.30929 0.84713 0.76695 0.0
O385 O 0.22401 0.82472 0.74419 0.0
O386 O 0.28582 0.69352 0.75432 0.0
O387 O 0.26465 0.75809 0.78217 0.0
O388 O 0.23242 0.77622 0.72324 0.0
O389 O 0.26691 0.75295 0.70387 0.0
O390 O 0.24838 0.70962 0.75789 0.0
O391 O 0.3324 0.72997 0.78317 0.0
C392 C 0.31569 0.82758 0.74642 0.0
C393 C 0.19952 0.80711 0.88373 0.0
C394 C 0.17338 0.78067 0.86286 0.0
C395 C 0.24405 0.85692 0.74845 0.0
C396 C 0.24795 0.87514 0.71791 0.0
C397 C 0.26589 0.91065 0.72147 0.0
C398 C 0.23308 0.85777 0.68535 0.0
C399 C 0.23406 0.87601 0.65653 0.0
C400 C 0.26854 0.92871 0.69295 0.0
C401 C 0.25248 0.91173 0.66077 0.0
C402 C 0.31783 0.79539 0.82701 0.0
C403 C 0.24198 0.72891 0.77868 0.0
C404 C 0.31161 0.69805 0.77779 0.0
C405 C 0.30523 0.67946 0.80766 0.0
C406 C 0.28902 0.64367 0.80344 0.0
C407 C 0.31585 0.69693 0.84037 0.0
C408 C 0.31352 0.67866 0.86913 0.0
C409 C 0.28427 0.62544 0.83165 0.0
C410 C 0.29686 0.64258 0.86425 0.0
C411 C 0.2403 0.76047 0.69921 0.0
H412 H 0.27753 0.92449 0.74636 0.0
H413 H 0.21965 0.83025 0.68255 0.0
H414 H 0.28211 0.9562 0.69589 0.0
H415 H 0.2532 0.9271 0.63956 0.0
H416 H 0.28036 0.62981 0.77834 0.0
H417 H 0.32741 0.72468 0.84339 0.0
H418 H 0.27205 0.59774 0.82829 0.0
H419 H 0.29504 0.62707 0.88535 0.0
Gd420 Gd 0.31056 0.28819 0.73404 0.0
Gd421 Gd 0.25357 0.26745 0.79392 0.0
C422 C 0.26472 0.20733 0.88524 0.0
C423 C 0.21541 0.15568 0.87083 0.0
C424 C 0.22604 0.20044 0.83249 0.0
C425 C 0.25516 0.21955 0.85437 0.0
C426 C 0.20543 0.16864 0.84078 0.0
C427 C 0.24504 0.17497 0.893 0.0
C428 C 0.29318 0.22848 0.90787 0.0
C429 C 0.31057 0.26142 0.90006 0.0
N430 N 0.27315 0.25101 0.84641 0.0
C431 C 0.29983 0.27255 0.86934 0.0
H432 H 0.31354 0.29811 0.86382 0.0
C433 C 0.18663 0.1981 0.78366 0.0
N434 N 0.21691 0.21401 0.80404 0.0
C435 C 0.16538 0.16638 0.79067 0.0
C436 C 0.17497 0.15138 0.81917 0.0
H437 H 0.17914 0.20956 0.76156 0.0
H438 H 0.25208 0.16507 0.91649 0.0
H439 H 0.24902 0.25683 0.66519 0.0
H440 H 0.30143 0.22001 0.93179 0.0
H441 H 0.33223 0.27829 0.9177 0.0
H442 H 0.20002 0.13119 0.87756 0.0
H443 H 0.38724 0.34286 0.75916 0.0
H444 H 0.25698 0.33485 0.59769 0.0
H445 H 0.22814 0.27614 0.61212 0.0
H446 H 0.35951 0.42396 0.64817 0.0
H447 H 0.14167 0.15354 0.7741 0.0
H448 H 0.1584 0.12691 0.82467 0.0
H449 H 0.3059 0.3903 0.6117 0.0
H450 H 0.42392 0.39886 0.74548 0.0
N451 N 0.28912 0.30429 0.68186 0.0
C452 C 0.2663 0.32651 0.62123 0.0
C453 C 0.25006 0.29333 0.6292 0.0
C454 C 0.29516 0.34798 0.64306 0.0
C455 C 0.30615 0.33585 0.67343 0.0
C456 C 0.26216 0.28241 0.65947 0.0
N457 N 0.34668 0.34073 0.7212 0.0
C458 C 0.33602 0.35478 0.69388 0.0
C459 C 0.39913 0.38693 0.73094 0.0
C460 C 0.38781 0.40283 0.70411 0.0
C461 C 0.3783 0.35535 0.73872 0.0
C462 C 0.35614 0.38636 0.68466 0.0
H463 H 0.40408 0.42709 0.69786 0.0
O464 O 0.35326 0.27528 0.73298 0.0
O465 O 0.29805 0.26347 0.78036 0.0
O466 O 0.29657 0.31734 0.8105 0.0
O467 O 0.32093 0.33802 0.76454 0.0
O468 O 0.34706 0.28973 0.78154 0.0
O469 O 0.30856 0.24945 0.69597 0.0
O470 O 0.20968 0.27801 0.79546 0.0
O471 O 0.26652 0.29303 0.74813 0.0
O472 O 0.26666 0.23901 0.71869 0.0
O473 O 0.24774 0.21739 0.76667 0.0
O474 O 0.21749 0.26606 0.74612 0.0
O475 O 0.25473 0.306 0.83151 0.0
C476 C 0.32637 0.27103 0.79831 0.0
C477 C 0.34458 0.39957 0.65552 0.0
C478 C 0.31407 0.38041 0.63475 0.0
C479 C 0.33909 0.25341 0.70608 0.0
C480 C 0.35796 0.25597 0.67935 0.0
C481 C 0.36808 0.28607 0.66313 0.0
C482 C 0.36557 0.22783 0.66963 0.0
C483 C 0.38314 0.22964 0.64363 0.0
C484 C 0.38564 0.28814 0.63754 0.0
C485 C 0.39311 0.26019 0.62778 0.0
C486 C 0.31543 0.34202 0.79528 0.0
C487 C 0.2383 0.28555 0.72999 0.0
C488 C 0.22377 0.30063 0.82189 0.0
C489 C 0.20557 0.29806 0.84923 0.0
C490 C 0.19978 0.26998 0.8686 0.0
C491 C 0.19503 0.32464 0.85696 0.0
C492 C 0.17928 0.32345 0.88438 0.0
C493 C 0.18396 0.26854 0.89559 0.0
C494 C 0.17392 0.29514 0.9036 0.0
C495 C 0.25093 0.21334 0.73504 0.0
H496 H 0.3624 0.30791 0.67019 0.0
H497 H 0.35746 0.20446 0.68201 0.0
H498 H 0.39355 0.31153 0.62523 0.0
H499 H 0.40714 0.2627 0.60815 0.0
H500 H 0.20768 0.24935 0.86306 0.0
H501 H 0.19967 0.34649 0.84215 0.0
H502 H 0.17957 0.24679 0.91045 0.0
H503 H 0.16157 0.29338 0.92458 0.0
Gd504 Gd 0.75527 0.29645 0.75919 0.0
Gd505 Gd 0.80333 0.2432 0.77025 0.0
C506 C 0.75171 0.14875 0.82285 0.0
C507 C 0.77533 0.16867 0.88229 0.0
C508 C 0.79414 0.20523 0.83847 0.0
C509 C 0.77192 0.18048 0.8138 0.0
C510 C 0.79715 0.19894 0.87296 0.0
C511 C 0.75257 0.14358 0.85723 0.0
C512 C 0.73231 0.12265 0.79712 0.0
C513 C 0.73503 0.12777 0.76362 0.0
N514 N 0.77194 0.18633 0.78086 0.0
C515 C 0.7557 0.15952 0.75605 0.0
H516 H 0.75878 0.16203 0.73027 0.0
C517 C 0.84268 0.25433 0.85126 0.0
N518 N 0.8152 0.23378 0.82842 0.0
C519 C 0.84658 0.24953 0.88572 0.0
C520 C 0.82316 0.22224 0.89681 0.0
H521 H 0.86212 0.27453 0.84331 0.0
H522 H 0.7368 0.11967 0.86463 0.0
H523 H 0.8226 0.36719 0.78916 0.0
H524 H 0.71648 0.09795 0.80298 0.0
H525 H 0.72155 0.10711 0.74363 0.0
H526 H 0.77689 0.16371 0.90868 0.0
H527 H 0.68236 0.27259 0.70647 0.0
H528 H 0.8416 0.43261 0.71003 0.0
H529 H 0.857 0.41976 0.76883 0.0
H530 H 0.74562 0.38031 0.6226 0.0
H531 H 0.86793 0.26661 0.90362 0.0
H532 H 0.82643 0.21828 0.92348 0.0
H533 H 0.80023 0.4171 0.65502 0.0
H534 H 0.65795 0.28585 0.65092 0.0
N535 N 0.78863 0.34875 0.7421 0.0
C536 C 0.8265 0.40915 0.71879 0.0
C537 C 0.83523 0.40202 0.75198 0.0
C538 C 0.7975 0.38673 0.69788 0.0
C539 C 0.77869 0.3566 0.71063 0.0
C540 C 0.81572 0.37178 0.76336 0.0
N541 N 0.73003 0.30915 0.70713 0.0
C542 C 0.7483 0.33596 0.69242 0.0
C543 C 0.68353 0.29994 0.6621 0.0
C544 C 0.70282 0.32575 0.64537 0.0
C545 C 0.69742 0.29248 0.69347 0.0
C546 C 0.73542 0.34479 0.66094 0.0
H547 H 0.69197 0.33173 0.62121 0.0
O548 O 0.7096 0.29465 0.77141 0.0
O549 O 0.76345 0.25415 0.78728 0.0
O550 O 0.76035 0.21766 0.72519 0.0
O551 O 0.73643 0.25795 0.71155 0.0
O552 O 0.71613 0.24562 0.76194 0.0
O553 O 0.75496 0.33576 0.7949 0.0
O554 O 0.85597 0.25455 0.78084 0.0
O555 O 0.80151 0.29238 0.75174 0.0
O556 O 0.79041 0.31236 0.81084 0.0
O557 O 0.83186 0.29516 0.80166 0.0
O558 O 0.80809 0.25881 0.71806 0.0
O559 O 0.82273 0.21349 0.74265 0.0
C560 C 0.73406 0.2331 0.78192 0.0
C561 C 0.75489 0.37338 0.64697 0.0
C562 C 0.78595 0.39433 0.66543 0.0
C563 C 0.72338 0.32302 0.79141 0.0
C564 C 0.70715 0.34759 0.78849 0.0
C565 C 0.69128 0.35343 0.75721 0.0
C566 C 0.70762 0.36546 0.81834 0.0
C567 C 0.69222 0.3891 0.81733 0.0
C568 C 0.67578 0.37697 0.75601 0.0
C569 C 0.67621 0.39481 0.78593 0.0
C570 C 0.73936 0.22808 0.70506 0.0
C571 C 0.80704 0.2888 0.72249 0.0
C572 C 0.85293 0.23077 0.75768 0.0
C573 C 0.87556 0.21255 0.76115 0.0
C574 C 0.90096 0.21867 0.78959 0.0
C575 C 0.87398 0.19184 0.73263 0.0
C576 C 0.89759 0.17757 0.73177 0.0
C577 C 0.92451 0.20412 0.78911 0.0
C578 C 0.92309 0.18391 0.76021 0.0
C579 C 0.82072 0.31349 0.81979 0.0
H580 H 0.69075 0.33991 0.73387 0.0
H581 H 0.7201 0.36097 0.84244 0.0
H582 H 0.66328 0.38127 0.73192 0.0
H583 H 0.66356 0.41253 0.7846 0.0
H584 H 0.90301 0.23516 0.81169 0.0
H585 H 0.85513 0.18827 0.71012 0.0
H586 H 0.94427 0.20905 0.81092 0.0
H587 H 0.94182 0.17335 0.76004 0.0
Gd588 Gd 0.79188 0.8098 0.80021 0.0
Gd589 Gd 0.76679 0.74163 0.72998 0.0
C590 C 0.69713 0.74352 0.63235 0.0
C591 C 0.64987 0.69135 0.63206 0.0
C592 C 0.69789 0.70704 0.67778 0.0
C593 C 0.71303 0.73647 0.66325 0.0
C594 C 0.66653 0.68359 0.66187 0.0
C595 C 0.66515 0.7213 0.61734 0.0
C596 C 0.71433 0.77189 0.61677 0.0
C597 C 0.74694 0.79152 0.63129 0.0
N598 N 0.74419 0.75687 0.67803 0.0
C599 C 0.76172 0.78331 0.66179 0.0
H600 H 0.78693 0.79887 0.67251 0.0
C601 C 0.70352 0.6685 0.71794 0.0
N602 N 0.71498 0.69997 0.70606 0.0
C603 C 0.67232 0.64459 0.70343 0.0
C604 C 0.65349 0.6524 0.67558 0.0
H605 H 0.71844 0.66213 0.7389 0.0
H606 H 0.65245 0.72644 0.59376 0.0
H607 H 0.77164 0.75189 0.85731 0.0
H608 H 0.703 0.7782 0.59305 0.0
H609 H 0.76075 0.81303 0.61904 0.0
H610 H 0.62563 0.67382 0.61961 0.0
H611 H 0.8405 0.88904 0.79095 0.0
H612 H 0.85461 0.77363 0.93805 0.0
H613 H 0.79735 0.73804 0.91108 0.0
H614 H 0.93151 0.87898 0.91279 0.0
H615 H 0.66298 0.62006 0.71351 0.0
H616 H 0.62948 0.63369 0.6641 0.0
H617 H 0.90476 0.82607 0.93824 0.0
H618 H 0.89526 0.93175 0.81744 0.0
N619 N 0.81417 0.79454 0.85238 0.0
C620 C 0.8435 0.77981 0.91413 0.0
C621 C 0.81116 0.75975 0.89906 0.0
C622 C 0.86067 0.80842 0.89885 0.0
C623 C 0.84506 0.8153 0.86768 0.0
C624 C 0.79665 0.76781 0.86834 0.0
N625 N 0.84331 0.85178 0.82481 0.0
C626 C 0.86014 0.84493 0.85341 0.0
C627 C 0.88582 0.9073 0.82765 0.0
C628 C 0.90424 0.8999 0.85613 0.0
C629 C 0.85495 0.88306 0.81262 0.0
C630 C 0.89118 0.8687 0.8698 0.0
H631 H 0.928 0.91886 0.86799 0.0
O632 O 0.77981 0.85505 0.80545 0.0
O633 O 0.76072 0.78893 0.74867 0.0
O634 O 0.81161 0.78709 0.72578 0.0
O635 O 0.83636 0.81923 0.77854 0.0
O636 O 0.78568 0.8413 0.75651 0.0
O637 O 0.76058 0.8122 0.8345 0.0
O638 O 0.77952 0.69676 0.72569 0.0
O639 O 0.79811 0.76271 0.78131 0.0
O640 O 0.74741 0.76416 0.80471 0.0
O641 O 0.72249 0.73215 0.75195 0.0
O642 O 0.77332 0.71033 0.7738 0.0
O643 O 0.79599 0.73774 0.69377 0.0
C644 C 0.76472 0.8166 0.7349 0.0
C645 C 0.90754 0.86118 0.89994 0.0
C646 C 0.89231 0.83106 0.91443 0.0
C647 C 0.7627 0.84318 0.82834 0.0
C648 C 0.76785 0.86717 0.8577 0.0
C649 C 0.79808 0.88128 0.88051 0.0
C650 C 0.74171 0.87608 0.86273 0.0
C651 C 0.74547 0.89934 0.8903 0.0
C652 C 0.80201 0.90426 0.90816 0.0
C653 C 0.77589 0.91329 0.9131 0.0
C654 C 0.83661 0.81004 0.74714 0.0
C655 C 0.79433 0.73517 0.79525 0.0
C656 C 0.79461 0.70723 0.70103 0.0
C657 C 0.78745 0.68166 0.67233 0.0
C658 C 0.75525 0.66238 0.6554 0.0
C659 C 0.81353 0.67582 0.66246 0.0
C660 C 0.80771 0.65029 0.63618 0.0
C661 C 0.74922 0.63713 0.62914 0.0
C662 C 0.77522 0.63095 0.61962 0.0
C663 C 0.7224 0.74117 0.78345 0.0
H664 H 0.8185 0.87461 0.87697 0.0
H665 H 0.7183 0.86468 0.84514 0.0
H666 H 0.82541 0.91526 0.92568 0.0
H667 H 0.77967 0.93161 0.93437 0.0
H668 H 0.73483 0.66658 0.66256 0.0
H669 H 0.83836 0.69117 0.67543 0.0
H670 H 0.72431 0.62203 0.61638 0.0
H671 H 0.7698 0.61057 0.59978 0.0
Cd672 Cd 0.99436 0.98339 0.54614 0.0
Cd673 Cd 0.0698 0.0586 0.48998 0.0
C674 C 0.03954 0.94569 0.5702 0.0
N675 N 0.02247 0.94778 0.53939 0.0
C676 C 0.04204 0.90989 0.51281 0.0
C677 C 0.06118 0.90889 0.54421 0.0
C678 C 0.05906 0.92633 0.57324 0.0
C679 C 0.02295 0.93009 0.51084 0.0
H680 H 0.03843 0.95971 0.5925 0.0
H681 H 1.00937 0.93212 0.48653 0.0
C682 C 1.0028 0.00422 0.46486 0.0
C683 C 0.02404 0.09593 0.46146 0.0
C684 C 1.00117 0.11128 0.45866 0.0
C685 C 0.99651 0.12581 0.48793 0.0
C686 C 1.01687 0.1272 0.51926 0.0
C687 C 0.03927 0.11079 0.521 0.0
N688 N 0.04116 0.09428 0.49242 0.0
H689 H 0.02709 0.08392 0.43897 0.0
H690 H 0.05387 0.10981 0.54522 0.0
C691 C 0.07815 0.99038 0.46826 0.0
N692 N 0.08793 0.01361 0.49593 0.0
C693 C 0.12324 0.98708 0.52382 0.0
C694 C 0.11417 0.96329 0.49524 0.0
C695 C 0.09081 0.96474 0.46745 0.0
C696 C 0.10943 0.01195 0.52376 0.0
H697 H 0.0616 0.99264 0.44614 0.0
H698 H 0.11703 0.03065 0.54536 0.0
C699 C 0.06099 0.04574 0.57767 0.0
C700 C 0.95757 0.9386 0.58445 0.0
N701 N 0.96037 0.01331 0.5333 0.0
C702 C 0.97541 0.04709 0.54462 0.0
C703 C 0.95705 0.06695 0.54804 0.0
C704 C 0.92277 0.05182 0.53997 0.0
C705 C 0.90785 0.01745 0.52554 0.0
C706 C 0.92735 -0.00162 0.5225 0.0
C707 C 0.11012 0.09852 0.45099 0.0
O708 O 1.01163 0.00711 0.49672 0.0
O709 O 0.02256 0.02363 0.44873 0.0
O710 O 0.05856 0.04574 0.5459 0.0
O711 O 0.0376 0.02462 0.58878 0.0
O712 O 0.94852 0.933 0.5522 0.0
O713 O 0.98205 0.96551 0.59746 0.0
O714 O 0.1187 0.10576 0.48317 0.0
O715 O 0.0853 0.07166 0.43911 0.0
H716 H 1.00152 0.05777 0.55405 0.0
H717 H 0.91606 0.97117 0.5142 0.0
H718 H 0.04306 0.89672 0.48988 0.0
H719 H 0.07316 0.92582 0.59799 0.0
H720 H 0.98622 0.11051 0.43401 0.0
H721 H 1.01408 0.13886 0.54217 0.0
H722 H 0.14167 0.98731 0.54544 0.0
H723 H 0.08377 0.94753 0.44446 0.0
H724 H 0.96958 0.09286 0.56039 0.0
H725 H 0.88145 0.00481 0.51927 0.0
Cd726 Cd 0.47601 0.00535 0.04385 0.0
Cd727 Cd 0.52319 0.07454 0.95628 0.0
C728 C 0.53946 0.99141 0.03915 0.0
N729 N 0.50709 0.97293 0.03622 0.0
C730 C 0.51613 0.92024 0.03207 0.0
C731 C 0.54986 0.93896 0.03542 0.0
C732 C 0.56128 0.975 0.03876 0.0
C733 C 0.49499 0.93794 0.03267 0.0
H734 H 0.54859 0.01904 0.04292 0.0
H735 H 0.46912 0.92384 0.03099 0.0
C736 C 0.46944 0.00045 0.95577 0.0
C737 C 0.46386 0.08791 0.91049 0.0
C738 C 0.44137 0.10296 0.89841 0.0
C739 C 0.43729 0.12753 0.91959 0.0
C740 C 0.45503 0.13498 0.95332 0.0
C741 C 0.47739 0.11923 0.96442 0.0
N742 N 0.48177 0.09671 0.94272 0.0
H743 H 0.46791 0.07002 0.89375 0.0
H744 H 0.49204 0.12589 -0.01007 0.0
C745 C 0.53785 0.02034 0.91048 0.0
N746 N 0.54337 0.0333 0.94329 0.0
C747 C 0.5806 0.00537 0.96067 0.0
C748 C 0.57544 0.99172 0.92707 0.0
C749 C 0.55362 -0.00085 0.90178 0.0
C750 C 0.56435 0.02646 0.96823 0.0
H751 H 0.522 0.02739 0.89094 0.0
H752 H 0.56969 0.03888 -0.00641 0.0
C753 C 0.53939 0.07925 0.05251 0.0
C754 C 0.4391 0.96402 0.08864 0.0
N755 N 0.44727 0.04092 0.03014 0.0
C756 C 0.45517 0.06905 0.05228 0.0
C757 C 0.43973 0.09227 0.04556 0.0
C758 C 0.4158 0.08648 0.01574 0.0
C759 C 0.40859 0.05751 -0.00703 0.0
C760 C 0.42453 0.03476 0.00088 0.0
C761 C 0.5729 0.12025 0.92514 0.0
O762 O 0.47987 0.01416 0.98596 0.0
O763 O 0.4794 0.01858 0.9325 0.0
O764 O 0.53218 0.07576 0.02007 0.0
O765 O 0.52238 0.05657 0.06916 0.0
O766 O 0.42751 0.95954 0.05675 0.0
O767 O 0.4671 0.98768 0.09913 0.0
O768 O 0.57832 0.11845 0.95701 0.0
O769 O 0.54402 0.10316 0.90883 0.0
H770 H 0.47309 0.07313 0.07553 0.0
H771 H 0.41852 0.01203 0.9839 0.0
H772 H 0.50635 0.89241 0.0296 0.0
H773 H 0.58712 0.99057 0.04252 0.0
H774 H 0.42794 0.09612 0.87237 0.0
H775 H 0.45285 0.15398 0.9704 0.0
H776 H 0.5985 0.00155 0.98043 0.0
H777 H 0.54965 0.98955 0.8755 0.0
H778 H 0.44547 0.11366 0.06436 0.0
H779 H 0.39037 0.0521 0.96968 0.0
Cd780 Cd 1.00921 0.52523 0.10084 0.0
Cd781 Cd 0.03876 0.586 0.97848 0.0
C782 C 0.07927 0.50628 0.1499 0.0
N783 N 0.05312 0.49355 0.12272 0.0
C784 C 0.06856 0.44236 0.11918 0.0
C785 C 0.0958 0.45465 0.14723 0.0
C786 C 0.1003 0.48785 0.16208 0.0
C787 C 0.04816 0.46159 0.10771 0.0
H788 H 0.08408 0.531 0.16305 0.0
H789 H 0.02776 0.45013 0.08649 0.0
C790 C 0.98095 0.50417 0.0011 0.0
C791 C 0.9823 0.59986 0.92189 0.0
C792 C 0.96108 0.61559 0.90659 0.0
C793 C 0.95512 0.64053 0.92555 0.0
C794 C 0.97071 0.64833 0.96009 0.0
C795 C 0.99194 0.63214 0.97433 0.0
N796 N 0.9975 0.60842 0.95519 0.0
H797 H 0.98721 0.58128 0.90689 0.0
H798 H 1.00465 0.63918 0.00057 0.0
C799 C 0.04578 0.52461 0.93261 0.0
N800 N 0.05487 0.54077 0.96458 0.0
C801 C 0.08973 0.50971 0.98152 0.0
C802 C 0.08147 0.49319 0.94848 0.0
C803 C 0.05877 0.5006 0.92401 0.0
C804 C 0.07608 0.53348 -0.01097 0.0
H805 H 0.02906 0.53103 0.91352 0.0
H806 H 0.0829 0.54667 0.01426 0.0
C807 C 0.05999 0.59632 0.06976 0.0
C808 C 0.96453 0.47118 0.12394 0.0
N809 N 0.97876 0.56501 0.12431 0.0
C810 C 0.99288 0.59086 0.15065 0.0
C811 C 0.97537 0.6102 0.16282 0.0
C812 C 0.94188 0.60415 0.14866 0.0
C813 C 0.92822 0.5773 0.12141 0.0
C814 C 0.9465 0.55859 0.11002 0.0
C815 C 0.08866 0.62449 0.94131 0.0
O816 O 0.98576 0.5048 0.03393 0.0
O817 O 0.99775 0.52946 0.98669 0.0
O818 O 0.04341 0.58293 0.04043 0.0
O819 O 0.05244 0.58118 0.09586 0.0
O820 O 0.95894 0.47688 0.09294 0.0
O821 O 0.99053 0.49157 0.14374 0.0
O822 O 0.09261 0.63322 0.97301 0.0
O823 O 0.06216 0.5998 0.928 0.0
H824 H 1.01812 0.59682 0.16295 0.0
H825 H 0.9342 0.53844 0.08933 0.0
H826 H 0.06265 0.41761 0.10554 0.0
H827 H 0.1199 0.49991 0.18382 0.0
H828 H 0.94945 0.60827 0.88006 0.0
H829 H 0.96734 0.66757 0.97578 0.0
H830 H 0.10669 0.50448 0.00138 0.0
H831 H 0.05189 0.48884 0.89813 0.0
H832 H 0.98848 0.62976 0.18383 0.0
H833 H 0.90312 0.57034 0.10825 0.0
Cd834 Cd 0.48539 0.49787 0.04538 0.0
Cd835 Cd 0.55 0.57315 0.9796 0.0
C836 C 0.54078 0.47171 0.04038 0.0
N837 N 0.50791 0.4604 0.02913 0.0
C838 C 0.50593 0.40508 0.01026 0.0
C839 C 0.53997 0.41643 0.02146 0.0
C840 C 0.55739 0.45015 0.03665 0.0
C841 C 0.49018 0.4278 0.01444 0.0
H842 H 0.55404 0.49722 0.05319 0.0
H843 H 0.46381 0.41911 0.00718 0.0
C844 C 0.48238 0.51752 0.96127 0.0
C845 C 0.51345 0.61889 0.95381 0.0
C846 C 0.49387 0.63817 0.95067 0.0
C847 C 0.48665 0.65005 0.97983 0.0
C848 C 0.50106 0.6441 0.01182 0.0
C849 C 0.52046 0.62433 0.01377 0.0
N850 N 0.52556 0.61171 0.98485 0.0
H851 H 0.51787 0.60827 0.93134 0.0
H852 H 0.53004 0.61784 0.0381 0.0
C853 C 0.55756 0.50184 0.97223 0.0
N854 N 0.57469 0.53399 -0.012 0.0
C855 C 0.62454 0.52405 -0.00327 0.0
C856 C 0.60785 0.49205 0.97749 0.0
C857 C 0.57366 0.48001 0.96736 0.0
C858 C 0.60723 0.54494 0.00166 0.0
H859 H 0.53184 0.49393 0.96124 0.0
H860 H 0.62019 0.57099 0.01349 0.0
C861 C 0.55126 0.56087 0.06726 0.0
C862 C 0.45445 0.45603 0.08945 0.0
N863 N 0.44944 0.52535 0.03249 0.0
C864 C 0.46152 0.55902 0.04451 0.0
C865 C 0.44113 0.57748 0.04146 0.0
C866 C 0.40788 0.56095 0.02624 0.0
C867 C 0.39619 0.52636 0.01305 0.0
C868 C 0.41771 0.50889 0.01633 0.0
C869 C 0.58996 0.60944 0.93848 0.0
O870 O 0.49482 0.51972 -0.00765 0.0
O871 O 0.49945 0.53685 0.94274 0.0
O872 O 0.5435 0.55794 0.03538 0.0
O873 O 0.53213 0.5398 0.08301 0.0
O874 O 0.44207 0.45019 0.05771 0.0
O875 O 0.48038 0.48236 0.10005 0.0
O876 O 0.59801 0.61904 0.97026 0.0
O877 O 0.56471 0.58258 0.9276 0.0
H878 H 0.48671 0.57105 0.05782 0.0
H879 H 0.4089 0.48195 0.00719 0.0
H880 H 0.49172 0.3788 -0.00043 0.0
H881 H 0.58351 0.45935 0.04684 0.0
H882 H 0.4833 0.64247 0.92559 0.0
H883 H 0.49573 0.65275 0.03477 0.0
H884 H 0.65096 0.53428 0.00467 0.0
H885 H 0.5599 0.45513 0.95304 0.0
H886 H 0.45079 0.60379 0.05293 0.0
H887 H 0.37059 0.5128 0.00154 0.0
Cd888 Cd 0.03338 0.47596 0.57688 0.0
Cd889 Cd 0.08201 0.54578 0.49184 0.0
C890 C 0.10098 0.47051 0.61555 0.0
N891 N 0.07558 0.45445 0.58908 0.0
C892 C 0.09629 0.41005 0.58172 0.0
C893 C 0.12227 0.42544 0.60981 0.0
C894 C 0.1248 0.45669 0.62605 0.0
C895 C 0.07317 0.42508 0.57173 0.0
H896 H 0.10234 0.4936 0.62927 0.0
H897 H 0.05264 0.41267 0.55088 0.0
C898 C 1.01985 0.47161 0.48133 0.0
C899 C 1.01798 0.5601 0.49372 0.0
C900 C 0.99662 0.57705 0.49459 0.0
C901 C 1.00897 0.61287 0.50194 0.0
C902 C 0.04297 0.63095 0.50809 0.0
C903 C 0.06361 0.61281 0.50673 0.0
N904 N 0.05073 0.57799 0.49973 0.0
H905 H 1.00828 0.53267 0.48725 0.0
H906 H 0.08974 0.62657 0.51033 0.0
C907 C 0.10253 0.48311 0.47964 0.0
N908 N 0.10895 0.5084 0.50463 0.0
C909 C 0.1427 0.48562 0.54156 0.0
C910 C 0.13669 0.45934 0.51601 0.0
C911 C 0.11605 0.45817 0.48482 0.0
C912 C 0.12858 0.51016 0.53524 0.0
H913 H 0.08718 0.48261 0.45541 0.0
H914 H 0.13359 0.53071 0.55466 0.0
C915 C 0.08588 0.55133 0.58031 0.0
C916 C 0.98349 0.42921 0.6064 0.0
N917 N 1.0085 0.51488 0.58296 0.0
C918 C 1.01295 0.53259 0.61338 0.0
C919 C 0.99491 0.55299 0.61695 0.0
C920 C 0.97128 0.5541 0.58929 0.0
C921 C 0.96694 0.53508 0.5584 0.0
C922 C 0.98594 0.5156 0.55578 0.0
C923 C 0.11902 0.58708 0.44721 0.0
O924 O 0.02684 0.47582 0.51372 0.0
O925 O 0.0363 0.49466 0.46466 0.0
O926 O 0.07798 0.53797 0.54999 0.0
O927 O 0.07443 0.53228 0.60244 0.0
O928 O 0.97948 0.43073 0.57452 0.0
O929 O 1.0115 0.44733 0.62409 0.0
O930 O 0.13114 0.59066 0.47893 0.0
O931 O 0.09046 0.56441 0.4369 0.0
H932 H 0.02988 0.53018 0.63513 0.0
H933 H 0.98198 0.50008 0.53239 0.0
H934 H 0.09292 0.38587 0.56841 0.0
H935 H 0.14466 0.47017 0.64722 0.0
H936 H 0.97053 0.56232 0.48836 0.0
H937 H 0.05334 0.65868 0.51332 0.0
H938 H 0.1586 0.48755 0.56587 0.0
H939 H 0.11155 0.43912 0.46396 0.0
H940 H 0.99839 0.56645 0.64148 0.0
H941 H 0.94872 0.53484 0.53657 0.0
Cd942 Cd 0.52161 0.96607 0.54839 0.0
Cd943 Cd 0.54558 0.02391 0.42453 0.0
C944 C 0.5746 0.94768 0.60474 0.0
N945 N 0.56256 0.94253 0.57061 0.0
C946 C 0.59246 0.90577 0.56486 0.0
C947 C 0.60457 0.9099 0.6002 0.0
C948 C 0.59546 0.93156 0.62002 0.0
C949 C 0.57128 0.9221 0.55061 0.0
H950 H 0.56746 0.96384 0.62039 0.0
H951 H 0.56122 0.9178 0.52362 0.0
C952 C 0.49695 0.95489 0.45832 0.0
C953 C 0.46975 0.04063 0.38877 0.0
C954 C 0.44872 0.05928 0.37741 0.0
C955 C 0.46024 0.09603 0.37906 0.0
C956 C 0.49449 0.11161 0.39316 0.0
C957 C 0.51468 0.09209 0.40421 0.0
N958 N 0.50279 0.05665 0.40219 0.0
H959 H 0.459 0.01284 0.38654 0.0
H960 H 0.54044 0.10605 0.41461 0.0
C961 C 0.56202 0.95323 0.3832 0.0
N962 N 0.57679 0.98395 0.40356 0.0
C963 C 0.62942 0.97749 0.4022 0.0
C964 C 0.61515 0.94574 0.38097 0.0
C965 C 0.58027 0.93424 0.37199 0.0
C966 C 0.61039 0.99562 0.41286 0.0
H967 H 0.53566 0.94298 0.37501 0.0
H968 H 0.62318 0.01968 0.42877 0.0
C969 C 0.57669 0.04435 0.5246 0.0
C970 C 0.47234 0.92607 0.58577 0.0
N971 N 0.50564 0.01109 0.56323 0.0
C972 C 0.5088 0.02197 0.59622 0.0
C973 C 0.49431 0.04473 0.60446 0.0
C974 C 0.47669 0.05667 0.57852 0.0
C975 C 0.475 0.04605 0.54467 0.0
C976 C 0.48958 0.02301 0.53758 0.0
C977 C 0.59495 0.07418 0.40235 0.0
O978 O 0.51627 0.96902 0.48626 0.0
O979 O 0.50207 0.96842 0.43082 0.0
O980 O 0.56648 0.03759 0.49199 0.0
O981 O 0.56429 0.02298 0.54518 0.0
O982 O 0.46545 0.92323 0.55328 0.0
O983 O 0.50137 0.94571 0.59962 0.0
O984 O 0.59314 0.07584 0.43351 0.0
O985 O 0.57286 0.04982 0.3819 0.0
H986 H 0.52173 0.01222 0.6162 0.0
H987 H 0.48727 0.0138 0.51158 0.0
H988 H 0.59848 0.88922 0.54841 0.0
H989 H 0.6044 0.93611 0.64722 0.0
H990 H 0.42322 0.04426 0.36705 0.0
H991 H 0.5063 0.1393 0.39609 0.0
H992 H 0.65562 0.98889 0.41113 0.0
H993 H 0.56654 0.91056 0.35581 0.0
H994 H 0.49665 0.05271 0.63088 0.0
H995 H 0.46157 0.05447 0.52389 0.0
H996 H 0.17066 0.18761 0.27438 0.0
H997 H 0.22386 0.26857 0.3556 0.0
H998 H 0.14005 0.15317 0.31301 0.0
H999 H 0.19164 0.23542 0.39376 0.0
H1000 H 0.17205 0.14723 0.46123 0.0
H1001 H 0.19498 0.18669 0.42082 0.0
H1002 H 0.1026 0.14353 0.34868 0.0
H1003 H 0.08066 0.10318 0.38799 0.0
C1004 C 0.17543 0.19828 0.30023 0.0
C1005 C 0.20099 0.22968 0.31247 0.0
C1006 C 0.15759 0.17877 0.3224 0.0
C1007 C 0.16445 0.19115 0.3568 0.0
C1008 C 0.18694 0.22462 0.36776 0.0
C1009 C 0.2052 0.24367 0.3458 0.0
C1010 C 0.15694 0.14626 0.43665 0.0
C1011 C 0.12496 0.12208 0.42744 0.0
C1012 C 0.16976 0.169 0.41369 0.0
C1013 C 0.15041 0.16829 0.38165 0.0
C1014 C 0.11823 0.14436 0.37289 0.0
C1015 C 0.10574 0.12126 0.39544 0.0
H1016 H 0.88809 0.19202 0.35639 0.0
H1017 H 0.80873 0.1221 0.39665 0.0
H1018 H 0.92585 0.19594 0.40889 0.0
H1019 H 0.84713 0.12558 0.44944 0.0
H1020 H 0.93377 0.08295 0.47292 0.0
H1021 H 0.88712 0.09777 0.45006 0.0
H1022 H 0.94834 0.20576 0.47087 0.0
H1023 H 0.99541 0.19038 0.49424 0.0
C1024 C 0.87836 0.17846 0.37687 0.0
C1025 C 0.8455 0.15587 0.37186 0.0
C1026 C 0.90013 0.1809 0.40724 0.0
C1027 C 0.88959 0.16054 0.4331 0.0
C1028 C 0.85602 0.14113 0.42968 0.0
C1029 C 0.83414 0.13883 0.39931 0.0
C1030 C 0.93684 0.10983 0.474 0.0
C1031 C 0.96793 0.13561 0.48501 0.0
C1032 C 0.91008 0.11842 0.46113 0.0
C1033 C 0.91414 0.153 0.45823 0.0
C1034 C 0.94463 0.17891 0.47262 0.0
C1035 C 0.97147 0.17022 0.48602 0.0
H1036 H 0.83733 0.81769 0.37927 0.0
H1037 H 0.89887 0.84912 0.30572 0.0
H1038 H 0.87498 0.86546 0.41901 0.0
H1039 H 0.93791 0.89593 0.34656 0.0
H1040 H 0.97457 -7e-05 0.39887 0.0
H1041 H 0.93482 0.94866 0.36472 0.0
H1042 H 0.92566 0.89508 0.45492 0.0
H1043 H 0.9633 0.94765 0.48936 0.0
C1044 C 0.85927 0.83442 0.37181 0.0
C1045 C 0.86439 0.83096 0.33877 0.0
C1046 C 0.88102 0.86168 0.3948 0.0
C1047 C 0.90863 0.88524 0.38533 0.0
C1048 C 0.9159 0.87903 0.35387 0.0
C1049 C 0.89379 0.85211 0.33062 0.0
C1050 C 0.96347 0.9774 0.41144 0.0
C1051 C 0.973 0.97698 0.44647 0.0
C1052 C 0.94118 0.94789 0.39187 0.0
C1053 C 0.92861 0.91738 0.40697 0.0
C1054 C 0.93549 0.91805 0.44248 0.0
C1055 C 0.95708 0.94806 0.46221 0.0
H1056 H 0.20932 0.94237 0.3689 0.0
H1057 H 0.16832 0.83322 0.37737 0.0
H1058 H 0.20033 0.95377 0.42493 0.0
H1059 H 0.16006 0.84463 0.43397 0.0
H1060 H 0.08859 0.89623 0.4684 0.0
H1061 H 0.11791 0.8675 0.44287 0.0
H1062 H 0.20947 0.94931 0.48804 0.0
H1063 H 0.17992 0.97833 0.51379 0.0
C1064 C 0.19879 0.9209 0.383 0.0
C1065 C 0.18883 0.88702 0.36862 0.0
C1066 C 0.1944 0.92735 0.41543 0.0
C1067 C 0.17973 0.9 0.43392 0.0
C1068 C 0.17162 0.86611 0.42033 0.0
C1069 C 0.17609 0.85967 0.3879 0.0
C1070 C 0.11505 0.90739 0.47417 0.0
C1071 C 0.13186 0.94021 0.49178 0.0
C1072 C 0.13198 0.89066 0.45986 0.0
C1073 C 0.16584 0.90705 0.46237 0.0
C1074 C 0.18321 0.93669 0.48513 0.0
C1075 C 0.16623 0.95331 0.49979 0.0
H1076 H 0.17302 0.8243 0.64585 0.0
H1077 H 0.24287 0.88992 0.5916 0.0
H1078 H 0.1293 0.81758 0.59827 0.0
H1079 H 0.198 0.88447 0.54455 0.0
H1080 H 0.12416 0.93935 0.57585 0.0
H1081 H 0.16668 0.91621 0.58292 0.0
H1082 H 0.09823 0.81988 0.52849 0.0
H1083 H 0.0552 0.84447 0.51907 0.0
C1084 C 0.17958 0.83592 0.62326 0.0
C1085 C 0.21142 0.8596 0.62353 0.0
C1086 C 0.15421 0.83164 0.59561 0.0
C1087 C 0.16026 0.85171 0.56857 0.0
C1088 C 0.19278 0.86923 0.56558 0.0
C1089 C 0.21835 0.87304 0.59297 0.0
C1090 C 0.11824 0.91362 0.5644 0.0
C1091 C 0.08648 0.89379 0.54676 0.0
C1092 C 0.14273 0.90048 0.56807 0.0
C1093 C 0.13587 0.86658 0.55544 0.0
C1094 C 0.10417 0.84642 0.53756 0.0
C1095 C 0.07965 0.86027 0.53262 0.0
H1096 H 0.24598 0.19962 0.66787 0.0
H1097 H 0.212 0.15214 0.75471 0.0
H1098 H 0.20256 0.15622 0.63073 0.0
H1099 H 0.1695 0.10487 0.71687 0.0
H1100 H 0.06982 0.05938 0.64588 0.0
H1101 H 0.12016 0.0932 0.68499 0.0
H1102 H 0.17108 0.10902 0.60137 0.0
H1103 H 0.11967 0.08219 0.56238 0.0
C1104 C 0.22944 0.17929 0.67916 0.0
C1105 C 0.2309 0.18071 0.71422 0.0
C1106 C 0.20442 0.15344 0.65749 0.0
C1107 C 0.18101 0.12709 0.6703 0.0
C1108 C 0.18565 0.12572 0.70576 0.0
C1109 C 0.21023 0.15262 0.7276 0.0
C1110 C 0.09186 0.07085 0.63605 0.0
C1111 C 0.09104 0.06756 0.60118 0.0
C1112 C 0.12108 0.08961 0.65861 0.0
C1113 C 0.15044 0.1041 0.64691 0.0
C1114 C 0.14934 0.09961 0.61187 0.0
C1115 C 0.11977 0.08318 0.58924 0.0
H1116 H 0.84461 0.12628 0.69361 0.0
H1117 H 0.94674 0.18614 0.69783 0.0
H1118 H 0.84061 0.0977 0.63845 0.0
H1119 H 0.943 0.15716 0.64309 0.0
H1120 H 0.93025 0.11968 0.53948 0.0
H1121 H 0.91735 0.15167 0.58209 0.0
H1122 H 0.86263 0.0564 0.61844 0.0
H1123 H 0.87502 0.02438 0.57552 0.0
C1124 C 0.86622 0.13315 0.68273 0.0
C1125 C 0.89609 0.15813 0.70003 0.0
C1126 C 0.86388 0.11692 0.65119 0.0
C1127 C 0.89133 0.12555 0.63627 0.0
C1128 C 0.92122 0.15051 0.65364 0.0
C1129 C 0.92359 0.16659 0.68526 0.0
C1130 C 0.91411 0.10545 0.55538 0.0
C1131 C 0.90417 0.0695 0.55445 0.0
C1132 C 0.9071 0.12383 0.58013 0.0
C1133 C 0.89002 0.10653 0.60429 0.0
C1134 C 0.87607 0.07045 0.60028 0.0
C1135 C 0.88302 0.05204 0.57544 0.0
H1136 H 0.8562 0.87753 0.74054 0.0
H1137 H 0.87419 0.78598 0.71719 0.0
H1138 H 0.88823 0.90685 0.69981 0.0
H1139 H 0.90679 0.8156 0.67657 0.0
H1140 H 0.98741 0.91529 0.63641 0.0
H1141 H 0.96246 0.88284 0.68039 0.0
H1142 H 0.86759 0.87797 0.62781 0.0
H1143 H 0.89248 0.90974 0.58312 0.0
C1144 C 0.86854 0.86443 0.72806 0.0
C1145 C 0.86369 0.83004 0.7323 0.0
C1146 C 0.8862 0.88087 0.7044 0.0
C1147 C 0.8993 0.86301 0.68524 0.0
C1148 C 0.89667 0.82951 0.69134 0.0
C1149 C 0.8785 0.81286 0.71461 0.0
C1150 C 0.96112 0.90655 0.63401 0.0
C1151 C 0.94157 0.91467 0.60681 0.0
C1152 C 0.94705 0.88819 0.65898 0.0
C1153 C 0.9135 0.8786 0.65719 0.0
C1154 C 0.89367 0.88553 0.62933 0.0
C1155 C 0.90769 0.90326 0.60388 0.0
H1156 H 0.25632 0.14771 0.0367 0.0
H1157 H 0.33665 0.17885 0.12377 0.0
H1158 H 0.29266 0.1404 0.00125 0.0
H1159 H 0.37257 0.17217 0.08865 0.0
H1160 H 0.43567 0.15633 0.02993 0.0
H1161 H 0.40068 0.18668 0.041 0.0
H1162 H 0.31525 0.09499 0.00307 0.0
H1163 H 0.34986 0.06483 -0.00772 0.0
C1164 C 0.28179 0.15361 0.04813 0.0
C1165 C 0.29347 0.16349 0.08312 0.0
C1166 C 0.30261 0.14972 0.02779 0.0
C1167 C 0.33545 0.15571 0.04212 0.0
C1168 C 0.3476 0.16801 0.07658 0.0
C1169 C 0.32685 0.1717 0.09685 0.0
C1170 C 0.40936 0.14302 0.02307 0.0
C1171 C 0.39555 0.10783 0.01141 0.0
C1172 C 0.38936 0.16044 0.02922 0.0
C1173 C 0.35531 0.14289 0.02385 0.0
C1174 C 0.3414 0.10927 0.00757 0.0
C1175 C 0.36137 0.09186 0.00144 0.0
H1176 H 0.80294 0.30811 0.1836 0.0
H1177 H 0.86319 0.37807 0.27135 0.0
H1178 H 0.84102 0.33953 0.14858 0.0
H1179 H 0.90109 0.40989 0.23645 0.0
H1180 H 0.89875 0.44008 0.09989 0.0
H1181 H 0.85968 0.39934 0.12856 0.0
H1182 H 0.93989 0.3974 0.20554 0.0
H1183 H 0.97866 0.43821 0.17737 0.0
C1184 C 0.8246 0.33005 0.19529 0.0
C1185 C 0.83108 0.34044 0.23005 0.0
C1186 C 0.84603 0.34811 0.17531 0.0
C1187 C 0.87403 0.37667 0.19005 0.0
C1188 C 0.87997 0.38739 0.22477 0.0
C1189 C 0.85843 0.36946 0.24464 0.0
C1190 C 0.90788 0.43029 0.12257 0.0
C1191 C 0.94142 0.44268 0.13711 0.0
C1192 C 0.88565 0.40703 0.13883 0.0
C1193 C 0.89699 0.39599 0.16952 0.0
C1194 C 0.93068 0.40625 0.18231 0.0
C1195 C 0.95276 0.42954 0.16627 0.0
H1196 H 0.68816 0.83665 0.09968 0.0
H1197 H 0.73747 0.94713 0.10914 0.0
H1198 H 0.63753 0.84216 0.07056 0.0
H1199 H 0.68731 0.95248 0.07977 0.0
H1200 H 0.60394 0.9559 0.00775 0.0
H1201 H 0.64991 0.938 0.02305 0.0
H1202 H 0.59792 0.86719 0.08764 0.0
H1203 H 0.55116 0.88462 0.07142 0.0
C1204 C 0.68825 0.86206 0.09535 0.0
C1205 C 0.71687 0.89149 0.10663 0.0
C1206 C 0.65932 0.86514 0.07865 0.0
C1207 C 0.65858 0.89767 0.07266 0.0
C1208 C 0.68734 0.92697 0.08335 0.0
C1209 C 0.71612 0.92393 0.10015 0.0
C1210 C 0.60177 0.93574 0.0243 0.0
C1211 C 0.57398 0.922 0.03855 0.0
C1212 C 0.62826 0.92567 0.0333 0.0
C1213 C 0.62779 0.90187 0.05716 0.0
C1214 C 0.59893 0.88566 0.06917 0.0
C1215 C 0.57215 0.89562 0.05986 0.0
H1216 H 0.24248 0.76789 0.14504 0.0
H1217 H 0.23165 0.67191 0.1881 0.0
H1218 H 0.1968 0.73739 0.09821 0.0
H1219 H 0.187 0.64154 0.14031 0.0
H1220 H 0.0799 0.65121 0.11586 0.0
H1221 H 0.13634 0.69123 0.13555 0.0
H1222 H 0.16578 0.6466 0.05588 0.0
H1223 H 0.10876 0.60732 0.03513 0.0
C1224 C 0.23133 0.74013 0.14376 0.0
C1225 C 0.23963 0.72233 0.17088 0.0
C1226 C 0.20551 0.7228 0.11674 0.0
C1227 C 0.1887 0.68742 0.11606 0.0
C1228 C 0.20009 0.66894 0.14045 0.0
C1229 C 0.22552 0.68633 0.16784 0.0
C1230 C 0.09816 0.65113 0.10161 0.0
C1231 C 0.09038 0.62632 0.07424 0.0
C1232 C 0.13027 0.67392 0.11277 0.0
C1233 C 0.15494 0.67154 0.09712 0.0
C1234 C 0.14684 0.64881 0.06794 0.0
C1235 C 0.11439 0.62652 0.05616 0.0
H1236 H 0.38417 0.81013 0.84188 0.0
H1237 H 0.30467 0.81216 0.88703 0.0
H1238 H 0.42272 0.85535 0.88453 0.0
H1239 H 0.34331 0.85716 0.93013 0.0
H1240 H 0.40409 0.97592 0.93123 0.0
H1241 H 0.36832 0.91622 0.91289 0.0
H1242 H 0.4504 0.88466 0.94239 0.0
H1243 H 0.48616 0.9449 0.96065 0.0
C1244 C 0.37497 0.81954 0.8614 0.0
C1245 C 0.34122 0.80975 0.85958 0.0
C1246 C 0.39717 0.84527 0.88616 0.0
C1247 C 0.38575 0.86087 0.90966 0.0
C1248 C 0.3526 0.84645 0.91148 0.0
C1249 C 0.3305 0.82081 0.88673 0.0
C1250 C 0.41414 0.95603 0.93463 0.0
C1251 C 0.44745 0.96448 0.94785 0.0
C1252 C 0.39373 0.92185 0.9244 0.0
C1253 C 0.40649 0.89564 0.92667 0.0
C1254 C 0.43988 0.90424 0.94063 0.0
C1255 C 0.46022 0.9385 0.95115 0.0
H1256 H 0.19005 0.35773 0.94655 0.0
H1257 H 0.14294 0.35177 0.84185 0.0
H1258 H 0.16775 0.4 0.96189 0.0
H1259 H 0.1206 0.39412 0.85713 0.0
H1260 H 0.05291 0.43276 0.90683 0.0
H1261 H 0.07862 0.39423 0.89053 0.0
H1262 H 0.17083 0.46002 0.95333 0.0
H1263 H 0.14532 0.49901 0.96925 0.0
C1264 C 0.17506 0.36565 0.9268 0.0
C1265 C 0.16806 0.35132 0.89304 0.0
C1266 C 0.16246 0.38999 0.93554 0.0
C1267 C 0.14219 0.40021 0.91077 0.0
C1268 C 0.13582 0.38646 0.87685 0.0
C1269 C 0.14882 0.36246 0.86804 0.0
C1270 C 0.07875 0.43928 0.9169 0.0
C1271 C 0.097 0.46909 0.93932 0.0
C1272 C 0.09349 0.41716 0.90753 0.0
C1273 C 0.12681 0.42416 0.92047 0.0
C1274 C 0.14504 0.45376 0.94314 0.0
C1275 C 0.13035 0.47602 0.95237 0.0
H1276 H 0.68604 0.17037 0.76873 0.0
H1277 H 0.74593 0.24811 0.85051 0.0
H1278 H 0.64991 0.14123 0.80609 0.0
H1279 H 0.70879 0.22024 0.88777 0.0
H1280 H 0.63922 0.1506 0.95081 0.0
H1281 H 0.68262 0.17393 0.91891 0.0
H1282 H 0.60933 0.15387 0.82661 0.0
H1283 H 0.5665 0.12984 0.8581 0.0
C1284 C 0.69181 0.1807 0.79504 0.0
C1285 C 0.71879 0.2112 0.80687 0.0
C1286 C 0.67085 0.16441 0.81637 0.0
C1287 C 0.6757 0.17893 0.84976 0.0
C1288 C 0.70416 0.20823 0.86229 0.0
C1289 C 0.72557 0.22418 0.84102 0.0
C1290 C 0.63248 0.15147 0.92373 0.0
C1291 C 0.59935 0.1383 0.90702 0.0
C1292 C 0.65737 0.16479 0.90541 0.0
C1293 C 0.64967 0.16524 0.86997 0.0
C1294 C 0.61643 0.15303 0.85364 0.0
C1295 C 0.59171 0.13965 0.87183 0.0
H1296 H 0.86166 0.76793 0.80818 0.0
H1297 H 0.78407 0.68524 0.83795 0.0
H1298 H 0.90222 0.74831 0.84191 0.0
H1299 H 0.82439 0.66637 0.87242 0.0
H1300 H 0.9095 0.65777 0.95165 0.0
H1301 H 0.87289 0.68529 0.92436 0.0
H1302 H 0.91455 0.69211 0.83535 0.0
H1303 H 0.95105 0.66448 0.86244 0.0
C1304 C 0.85332 0.74618 0.82265 0.0
C1305 C 0.81961 0.72828 0.82057 0.0
C1306 C 0.87653 0.73473 0.84176 0.0
C1307 C 0.86663 0.70558 0.85982 0.0
C1308 C 0.83299 0.68892 0.85904 0.0
C1309 C 0.80985 0.69975 0.83927 0.0
C1310 C 0.91112 0.66535 0.92637 0.0
C1311 C 0.93326 0.65851 0.9093 0.0
C1312 C 0.88997 0.68105 0.91065 0.0
C1313 C 0.89073 0.69105 0.87762 0.0
C1314 C 0.91344 0.68508 0.86089 0.0
C1315 C 0.93416 0.66883 0.87635 0.0
H1316 H 0.26738 0.39013 0.23275 0.0
H1317 H 0.18713 0.2925 0.21297 0.0
H1318 H 0.23073 0.41912 0.21158 0.0
H1319 H 0.14967 0.32185 0.19093 0.0
H1320 H 0.08728 0.38362 0.13382 0.0
H1321 H 0.12246 0.35208 0.15409 0.0
H1322 H 0.19315 0.44416 0.21291 0.0
H1323 H 0.15854 0.47569 0.19238 0.0
C1324 C 0.24176 0.37427 0.22389 0.0
C1325 C 0.23158 0.338 0.22537 0.0
C1326 C 0.22 0.39151 0.21155 0.0
C1327 C 0.18572 0.37415 0.19903 0.0
C1328 C 0.17531 0.33752 0.19984 0.0
C1329 C 0.19729 0.32014 0.21278 0.0
C1330 C 0.11033 0.39783 0.15093 0.0
C1331 C 0.11863 0.43362 0.16055 0.0
C1332 C 0.13103 0.37902 0.16312 0.0
C1333 C 0.16213 0.39431 0.18581 0.0
C1334 C 0.17034 0.43003 0.19541 0.0
C1335 C 0.14961 0.44871 0.18346 0.0
H1336 H 0.1838 0.67447 0.76761 0.0
H1337 H 0.25307 0.74907 0.8473 0.0
H1338 H 0.14822 0.65083 0.80696 0.0
H1339 H 0.21843 0.72456 0.88761 0.0
H1340 H 0.13527 0.69116 0.94789 0.0
H1341 H 0.17237 0.71671 0.90966 0.0
H1342 H 0.13667 0.61834 0.84981 0.0
H1343 H 0.09866 0.59411 0.8864 0.0
C1344 C 0.19157 0.68566 0.79375 0.0
C1345 C 0.2209 0.71434 0.80386 0.0
C1346 C 0.17122 0.67186 0.81672 0.0
C1347 C 0.17993 0.68541 0.85116 0.0
C1348 C 0.21005 0.71352 0.86146 0.0
C1349 C 0.23017 0.72767 0.83823 0.0
C1350 C 0.13546 0.67512 0.92652 0.0
C1351 C 0.1136 0.64059 0.92017 0.0
C1352 C 0.15695 0.68972 0.90448 0.0
C1353 C 0.15775 0.67004 0.87578 0.0
C1354 C 0.13652 0.63515 0.87052 0.0
C1355 C 0.1147 0.62093 0.89194 0.0
H1356 H 0.29461 0.20302 0.80709 0.0
H1357 H 0.38232 0.29201 0.84568 0.0
H1358 H 0.31796 0.16717 0.84192 0.0
H1359 H 0.40572 0.25603 0.87985 0.0
H1360 H 0.43638 0.15544 0.85947 0.0
H1361 H 0.40491 0.18939 0.83597 0.0
H1362 H 0.36124 0.17955 0.92377 0.0
H1363 H 0.39287 0.14508 0.94769 0.0
C1364 C 0.31832 0.21511 0.82386 0.0
C1365 C 0.33656 0.25038 0.82398 0.0
C1366 C 0.33165 0.1946 0.8437 0.0
C1367 C 0.36347 0.20903 0.86362 0.0
C1368 C 0.38099 0.24449 0.86498 0.0
C1369 C 0.36765 0.26497 0.84538 0.0
C1370 C 0.41976 0.15999 0.87367 0.0
C1371 C 0.41701 0.14733 0.9054 0.0
C1372 C 0.4019 0.17955 0.86024 0.0
C1373 C 0.38068 0.18681 0.87804 0.0
C1374 C 0.37743 0.17406 0.9096 0.0
C1375 C 0.39563 0.15458 0.92329 0.0
H1376 H 0.80582 0.34699 0.87055 0.0
H1377 H 0.88801 0.33736 0.83601 0.0
H1378 H 0.84354 0.38975 0.91682 0.0
H1379 H 0.92545 0.3796 0.88218 0.0
H1380 H 0.98021 0.48864 0.93497 0.0
H1381 H 0.94207 0.44154 0.89479 0.0
H1382 H 0.88711 0.40139 0.97173 0.0
H1383 H 0.92644 0.44937 0.01306 0.0
C1384 C 0.8319 0.35372 0.8729 0.0
C1385 C 0.84368 0.3385 0.84925 0.0
C1386 C 0.85357 0.37813 0.8997 0.0
C1387 C 0.88775 0.38848 0.90345 0.0
C1388 C 0.89939 0.37272 0.88012 0.0
C1389 C 0.8778 0.3482 0.8536 0.0
C1390 C 0.96033 0.46982 0.94386 0.0
C1391 C 0.9569 0.47319 0.97775 0.0
C1392 C 0.9383 0.44244 0.92052 0.0
C1393 C 0.91137 0.41719 0.92971 0.0
C1394 C 0.9075 0.42032 0.96357 0.0
C1395 C 0.93018 0.44775 -0.01261 0.0
H1396 H 0.70326 0.91427 0.8411 0.0
H1397 H 0.72518 0.90727 0.949 0.0
H1398 H 0.65824 0.9316 0.84775 0.0
H1399 H 0.6807 0.92586 0.9558 0.0
H1400 H 0.58053 0.93333 0.95103 0.0
H1401 H 0.62002 0.9078 0.94163 0.0
H1402 H 0.65474 0.98351 0.87269 0.0
H1403 H 0.61583 0.00906 0.88274 0.0
C1404 C 0.69832 0.9162 0.86623 0.0
C1405 C 0.71784 0.90948 0.89456 0.0
C1406 C 0.6727 0.92641 0.87005 0.0
C1407 C 0.66604 0.93022 0.90229 0.0
C1408 C 0.6851 0.92285 0.93059 0.0
C1409 C 0.71081 0.91267 0.92676 0.0
C1410 C 0.59685 0.94442 0.9341 0.0
C1411 C 0.59575 0.97337 0.91806 0.0
C1412 C 0.61925 0.92983 0.92858 0.0
C1413 C 0.64059 0.94381 0.90657 0.0
C1414 C 0.63839 0.97194 0.8895 0.0
C1415 C 0.61616 0.98657 0.89519 0.0
H1416 H 0.78253 0.66887 0.20658 0.0
H1417 H 0.868 0.76046 0.24036 0.0
H1418 H 0.81512 0.64069 0.18594 0.0
H1419 H 0.90147 0.73216 0.21892 0.0
H1420 H 0.9624 0.66539 0.19474 0.0
H1421 H 0.93116 0.69623 0.21488 0.0
H1422 H 0.84266 0.62323 0.15294 0.0
H1423 H 0.87339 0.59208 0.13371 0.0
C1424 C 0.80847 0.68359 0.20946 0.0
C1425 C 0.82154 0.71778 0.22564 0.0
C1426 C 0.82777 0.66697 0.19711 0.0
C1427 C 0.86222 0.68295 0.19986 0.0
C1428 C 0.87552 0.71759 0.21583 0.0
C1429 C 0.85592 0.73443 0.2282 0.0
C1430 C 0.93624 0.65525 0.1852 0.0
C1431 C 0.92173 0.62485 0.1618 0.0
C1432 C 0.9178 0.67371 0.19695 0.0
C1433 C 0.88313 0.66338 0.1865 0.0
C1434 C 0.86873 0.63314 0.16301 0.0
C1435 C 0.8871 0.61478 0.15126 0.0
H1436 H 0.30613 0.80722 0.18764 0.0
H1437 H 0.38305 0.86967 0.26997 0.0
H1438 H 0.33138 0.84454 0.14754 0.0
H1439 H 0.40787 0.90856 0.23018 0.0
H1440 H 0.46574 0.94953 0.14963 0.0
H1441 H 0.43814 0.91382 0.18956 0.0
H1442 H 0.3446 0.89555 0.12335 0.0
H1443 H 0.37289 0.92955 0.08223 0.0
C1444 C 0.32797 0.82956 0.19734 0.0
C1445 C 0.34228 0.83582 0.23211 0.0
C1446 C 0.34261 0.85118 0.1742 0.0
C1447 C 0.37199 0.87983 0.18521 0.0
C1448 C 0.38579 0.88641 0.2203 0.0
C1449 C 0.37143 0.86434 0.24331 0.0
C1450 C 0.43926 0.93784 0.14361 0.0
C1451 C 0.42151 0.94237 0.11278 0.0
C1452 C 0.42326 0.91753 0.16676 0.0
C1453 C 0.38887 0.90177 0.16022 0.0
C1454 C 0.37108 0.90662 0.12931 0.0
C1455 C 0.38724 0.92632 0.10571 0.0
H1456 H 0.71985 0.25303 0.14928 0.0
H1457 H 0.70528 0.16821 0.21075 0.0
H1458 H 0.67151 0.21738 0.10621 0.0
H1459 H 0.65805 0.13244 0.16785 0.0
H1460 H 0.55284 0.09986 0.11941 0.0
H1461 H 0.60407 0.13885 0.15372 0.0
H1462 H 0.64508 0.16106 0.0642 0.0
H1463 H 0.59296 0.12152 0.02918 0.0
C1464 C 0.70678 0.22646 0.15295 0.0
C1465 C 0.71573 0.21308 0.18308 0.0
C1466 C 0.67929 0.20617 0.12847 0.0
C1467 C 0.66076 0.17242 0.13408 0.0
C1468 C 0.67145 0.15862 0.16326 0.0
C1469 C 0.69848 0.1789 0.18769 0.0
C1470 C 0.57257 0.11321 0.10681 0.0
C1471 C 0.56902 0.1072 0.07162 0.0
C1472 C 0.60201 0.13543 0.12655 0.0
C1473 C 0.62878 0.15223 0.11171 0.0
C1474 C 0.62482 0.14814 0.07624 0.0
C1475 C 0.59505 0.12564 0.05626 0.0
H1476 H 0.68851 0.76598 0.81838 0.0
H1477 H 0.69883 0.67261 0.78515 0.0
H1478 H 0.6535 0.73418 0.85619 0.0
H1479 H 0.66329 0.64086 0.82191 0.0
H1480 H 0.65203 0.65796 0.95095 0.0
H1481 H 0.68009 0.69119 0.90884 0.0
H1482 H 0.59483 0.63907 0.82994 0.0
H1483 H 0.56668 0.60609 0.8714 0.0
C1484 C 0.68217 0.73845 0.81825 0.0
C1485 C 0.69526 0.72125 0.79829 0.0
C1486 C 0.66261 0.72055 0.83989 0.0
C1487 C 0.6562 0.6855 0.84151 0.0
C1488 C 0.66788 0.66794 0.82038 0.0
C1489 C 0.68756 0.68586 0.79893 0.0
C1490 C 0.63933 0.65388 0.92467 0.0
C1491 C 0.60744 0.62948 0.91424 0.0
C1492 C 0.65519 0.67282 0.90085 0.0
C1493 C 0.6391 0.66743 0.86672 0.0
C1494 C 0.6073 0.64333 0.85632 0.0
C1495 C 0.59149 0.62447 0.87998 0.0
H1496 H 0.30311 0.66162 0.93318 0.0
H1497 H 0.37164 0.73544 0.88325 0.0
H1498 H 0.3481 0.6671 0.97993 0.0
H1499 H 0.41503 0.74239 0.93089 0.0
H1500 H 0.48762 0.70859 0.01312 0.0
H1501 H 0.44347 0.73156 0.00466 0.0
H1502 H 0.38363 0.64489 0.93122 0.0
H1503 H 0.42724 0.62286 0.93859 0.0
C1504 C 0.32719 0.68022 0.93272 0.0
C1505 C 0.33406 0.69566 0.90298 0.0
C1506 C 0.35279 0.68406 0.96007 0.0
C1507 C 0.38504 0.70394 0.95794 0.0
C1508 C 0.39032 0.72635 0.93264 0.0
C1509 C 0.36506 0.72187 0.90487 0.0
C1510 C 0.46483 0.69453 -0.00456 0.0
C1511 C 0.46082 0.66429 0.97617 0.0
C1512 C 0.43969 0.70742 -0.00906 0.0
C1513 C 0.41011 0.68934 0.96812 0.0
C1514 C 0.40604 0.65877 0.94958 0.0
C1515 C 0.43121 0.64658 0.95326 0.0
H1516 H 0.38001 0.37861 0.80106 0.0
H1517 H 0.29553 0.37525 0.83995 0.0
H1518 H 0.4154 0.42187 0.84687 0.0
H1519 H 0.33138 0.41878 0.88651 0.0
H1520 H 0.42832 0.52848 0.93192 0.0
H1521 H 0.38139 0.48683 0.89171 0.0
H1522 H 0.42074 0.40808 0.91447 0.0
H1523 H 0.46745 0.44967 0.95416 0.0
C1524 C 0.3689 0.38814 0.81847 0.0
C1525 C 0.33516 0.37391 0.81683 0.0
C1526 C 0.38915 0.41236 0.84507 0.0
C1527 C 0.37584 0.42275 0.87022 0.0
C1528 C 0.34192 0.41067 0.86733 0.0
C1529 C 0.32161 0.38607 0.84078 0.0
C1530 C 0.42596 0.50185 0.92917 0.0
C1531 C 0.45076 0.49167 0.94607 0.0
C1532 C 0.39935 0.47824 0.90639 0.0
C1533 C 0.39805 0.44474 0.90011 0.0
C1534 C 0.42153 0.43395 0.91919 0.0
C1535 C 0.44787 0.45743 0.94212 0.0
H1536 H 0.70486 0.45704 0.83089 0.0
H1537 H 0.67848 0.36058 0.87545 0.0
H1538 H 0.69394 0.48386 0.87937 0.0
H1539 H 0.66765 0.38767 0.92394 0.0
H1540 H 0.66262 0.47837 0.00558 0.0
H1541 H 0.69413 0.45518 0.97429 0.0
H1542 H 0.62495 0.44641 0.88132 0.0
H1543 H 0.59425 0.46936 0.91149 0.0
C1544 C 0.69758 0.44189 0.85146 0.0
C1545 C 0.69171 0.40668 0.84918 0.0
C1546 C 0.69196 0.45733 0.87935 0.0
C1547 C 0.6802 0.43767 0.90513 0.0
C1548 C 0.6773 0.4033 0.90453 0.0
C1549 C 0.68311 0.38783 0.87665 0.0
C1550 C 0.65428 0.47123 0.97851 0.0
C1551 C 0.62589 0.47535 0.96098 0.0
C1552 C 0.67215 0.45806 0.96082 0.0
C1553 C 0.66192 0.44973 0.92559 0.0
C1554 C 0.6333 0.45311 0.90849 0.0
C1555 C 0.61555 0.46582 0.92591 0.0
H1556 H 0.69155 0.42693 0.1434 0.0
H1557 H 0.64786 0.31599 0.13783 0.0
H1558 H 0.65694 0.42525 0.0886 0.0
H1559 H 0.61432 0.31448 0.08276 0.0
H1560 H 0.59383 0.42281 -0.00361 0.0
H1561 H 0.63641 0.40332 0.02429 0.0
H1562 H 0.56831 0.33772 0.07989 0.0
H1563 H 0.52647 0.35807 0.05269 0.0
C1564 C 0.67528 0.40221 0.13013 0.0
C1565 C 0.67213 0.37172 0.14527 0.0
C1566 C 0.6559 0.40116 0.09847 0.0
C1567 C 0.633 0.36963 0.08155 0.0
C1568 C 0.63187 0.33902 0.0953 0.0
C1569 C 0.65119 0.34003 0.12689 0.0
C1570 C 0.58769 0.40296 0.01325 0.0
C1571 C 0.55747 0.39268 0.02325 0.0
C1572 C 0.61197 0.39184 0.02922 0.0
C1573 C 0.6058 0.36978 0.05481 0.0
C1574 C 0.57371 0.35481 0.06024 0.0
C1575 C 0.54961 0.36632 0.04455 0.0
H1576 H 0.72028 0.74249 0.15634 0.0
H1577 H 0.66315 0.70568 0.23286 0.0
H1578 H 0.67893 0.69893 0.11451 0.0
H1579 H 0.62097 0.66302 0.19044 0.0
H1580 H 0.58343 0.56181 0.13078 0.0
H1581 H 0.62453 0.6116 0.16611 0.0
H1582 H 0.6244 0.67277 0.08128 0.0
H1583 H 0.58509 0.62185 0.04509 0.0
C1584 C 0.69856 0.72554 0.16408 0.0
C1585 C 0.69558 0.72606 0.19817 0.0
C1586 C 0.67478 0.7008 0.13999 0.0
C1587 C 0.64757 0.67686 0.14971 0.0
C1588 C 0.64257 0.68042 0.18279 0.0
C1589 C 0.66654 0.70486 0.20698 0.0
C1590 C 0.59254 0.58582 0.11965 0.0
C1591 C 0.58022 0.58872 0.08586 0.0
C1592 C 0.61565 0.61434 0.13988 0.0
C1593 C 0.62614 0.6463 0.12677 0.0
C1594 C 0.61604 0.64851 0.09211 0.0
C1595 C 0.5935 0.61955 0.07154 0.0
H1596 H 0.41964 0.70785 0.14756 0.0
H1597 H 0.3215 0.64295 0.15433 0.0
H1598 H 0.41183 0.67997 0.09189 0.0
H1599 H 0.31269 0.61571 0.09724 0.0
H1600 H 0.35357 0.53776 0.05318 0.0
H1601 H 0.333 0.57457 0.08141 0.0
H1602 H 0.39043 0.66135 0.03498 0.0
H1603 H 0.41333 0.62466 0.00994 0.0
C1604 C 0.39607 0.68803 0.13666 0.0
C1605 C 0.37166 0.67662 0.15565 0.0
C1606 C 0.39119 0.67239 0.10428 0.0
C1607 C 0.36167 0.64495 0.09007 0.0
C1608 C 0.33593 0.63622 0.10768 0.0
C1609 C 0.34093 0.65185 0.14033 0.0
C1610 C 0.36059 0.56435 0.04777 0.0
C1611 C 0.38544 0.57868 0.02976 0.0
C1612 C 0.34866 0.58562 0.06388 0.0
C1613 C 0.36121 0.62137 0.06169 0.0
C1614 C 0.38121 0.63418 0.03824 0.0
C1615 C 0.39396 0.61314 0.02324 0.0
H1616 H 0.39147 0.35837 0.26125 0.0
H1617 H 0.3347 0.28477 0.17479 0.0
H1618 H 0.42615 0.39304 0.22558 0.0
H1619 H 0.37117 0.31743 0.13986 0.0
H1620 H 0.39211 0.41083 0.08079 0.0
H1621 H 0.3693 0.36932 0.11902 0.0
H1622 H 0.46351 0.40443 0.18836 0.0
H1623 H 0.48586 0.4473 0.15062 0.0
C1624 C 0.38675 0.34935 0.23483 0.0
C1625 C 0.35901 0.3205 0.22014 0.0
C1626 C 0.40702 0.3688 0.21449 0.0
C1627 C 0.40029 0.35862 0.17959 0.0
C1628 C 0.37583 0.32667 0.16637 0.0
C1629 C 0.35503 0.30794 0.1864 0.0
C1630 C 0.40784 0.40959 0.1042 0.0
C1631 C 0.44054 0.43201 0.11295 0.0
C1632 C 0.39501 0.38557 0.12589 0.0
C1633 C 0.41491 0.38313 0.15631 0.0
C1634 C 0.44769 0.40576 0.16509 0.0
C1635 C 0.46038 0.43027 0.14361 0.0
H1636 H 0.86239 0.64933 0.67896 0.0
H1637 H 0.81558 0.63438 0.57284 0.0
H1638 H 0.90522 0.63228 0.66456 0.0
H1639 H 0.85825 0.61653 0.55864 0.0
H1640 H 0.90574 0.53349 0.56397 0.0
H1641 H 0.86967 0.56314 0.57202 0.0
H1642 H 0.95149 0.64692 0.63229 0.0
H1643 H 0.98811 0.61754 0.62351 0.0
C1644 C 0.86154 0.64309 0.65249 0.0
C1645 C 0.83531 0.64286 0.62707 0.0
C1646 C 0.88614 0.63335 0.64428 0.0
C1647 C 0.88487 0.6229 0.61054 0.0
C1648 C 0.85951 0.62408 0.58492 0.0
C1649 C 0.83502 0.63406 0.59309 0.0
C1650 C 0.91625 0.55855 0.57835 0.0
C1651 C 0.94978 0.57309 0.59323 0.0
C1652 C 0.89557 0.57555 0.5829 0.0
C1653 C 0.90783 0.60731 0.60272 0.0
C1654 C 0.94144 0.62231 0.61708 0.0
C1655 C 0.96228 0.60541 0.61225 0.0
H1656 H 0.37107 0.88545 0.75539 0.0
H1657 H 0.30762 0.80291 0.67957 0.0
H1658 H 0.40692 0.90839 0.71583 0.0
H1659 H 0.34407 0.82478 0.64022 0.0
H1660 H 0.40495 0.89063 0.56692 0.0
H1661 H 0.36613 0.86725 0.60407 0.0
H1662 H 0.44644 0.89894 0.69098 0.0
H1663 H 0.48458 0.92297 0.65427 0.0
C1664 C 0.36487 0.87201 0.73028 0.0
C1665 C 0.33699 0.84158 0.72127 0.0
C1666 C 0.38566 0.88499 0.70751 0.0
C1667 C 0.37916 0.86824 0.67463 0.0
C1668 C 0.35025 0.83866 0.66508 0.0
C1669 C 0.32941 0.82572 0.68794 0.0
C1670 C 0.41428 0.89243 0.59395 0.0
C1671 C 0.44808 0.90896 0.60739 0.0
C1672 C 0.39196 0.87891 0.61541 0.0
C1673 C 0.40274 0.88143 0.65099 0.0
C1674 C 0.43669 0.89715 0.66406 0.0
C1675 C 0.45881 0.91074 0.64276 0.0
H1676 H 0.26802 0.3549 0.72733 0.0
H1677 H 0.18494 0.26523 0.67901 0.0
H1678 H 0.24469 0.39164 0.69394 0.0
H1679 H 0.16221 0.30179 0.64493 0.0
H1680 H 0.14525 0.38426 0.57523 0.0
H1681 H 0.17837 0.35184 0.59943 0.0
H1682 H 0.18515 0.39537 0.69979 0.0
H1683 H 0.15075 0.42606 0.67641 0.0
C1684 C 0.24534 0.34302 0.70881 0.0
C1685 C 0.22828 0.30727 0.70555 0.0
C1686 C 0.232 0.36399 0.68981 0.0
C1687 C 0.20172 0.34946 0.66686 0.0
C1688 C 0.18572 0.31357 0.66218 0.0
C1689 C 0.19863 0.29272 0.68175 0.0
C1690 C 0.15366 0.38694 0.60246 0.0
C1691 C 0.1451 0.40801 0.6237 0.0
C1692 C 0.17289 0.36857 0.61622 0.0
C1693 C 0.18455 0.37147 0.65141 0.0
C1694 C 0.17701 0.39326 0.67251 0.0
C1695 C 0.15733 0.41101 0.65893 0.0
H1696 H 0.68365 0.23067 0.6646 0.0
H1697 H 0.74552 0.17183 0.6738 0.0
H1698 H 0.64748 0.19222 0.61595 0.0
H1699 H 0.708 0.13161 0.62611 0.0
H1700 H 0.64306 0.07158 0.52624 0.0
H1701 H 0.68439 0.11866 0.56658 0.0
H1702 H 0.6071 0.13708 0.60393 0.0
H1703 H 0.56656 0.09093 0.56351 0.0
C1704 C 0.6898 0.20971 0.65636 0.0
C1705 C 0.7177 0.20469 0.67391 0.0
C1706 C 0.66859 0.18707 0.62838 0.0
C1707 C 0.67419 0.15813 0.61688 0.0
C1708 C 0.70265 0.15353 0.63377 0.0
C1709 C 0.72405 0.17646 0.6617 0.0
C1710 C 0.63508 0.08674 0.54216 0.0
C1711 C 0.60149 0.07816 0.54094 0.0
C1712 C 0.65876 0.11334 0.56585 0.0
C1713 C 0.64944 0.132 0.58899 0.0
C1714 C 0.61567 0.12411 0.58646 0.0
C1715 C 0.59221 0.0976 0.56303 0.0
H1716 H 0.86422 0.28381 0.37167 0.0
H1717 H 0.84167 0.37198 0.34207 0.0
H1718 H 0.91082 0.32121 0.41554 0.0
H1719 H 0.888 0.40904 0.38529 0.0
H1720 H 1.0023 0.45577 0.41319 0.0
H1721 H 0.9526 0.41202 0.38065 0.0
H1722 H 0.92253 0.37655 0.47307 0.0
H1723 H 0.97268 0.42116 0.5064 0.0
C1724 C 0.86879 0.311 0.37519 0.0
C1725 C 0.84932 0.32517 0.35395 0.0
C1726 C 0.89519 0.3322 0.40024 0.0
C1727 C 0.90262 0.36777 0.40366 0.0
C1728 C 0.88234 0.38157 0.38327 0.0
C1729 C 0.85577 0.3604 0.35876 0.0
C1730 C 0.98535 0.43865 0.42683 0.0
C1731 C 0.99125 0.44229 0.46246 0.0
C1732 C 0.95694 0.41361 0.4081 0.0
C1733 C 0.93386 0.39139 0.42449 0.0
C1734 C 0.94016 0.3936 0.46006 0.0
C1735 C 0.96873 0.41905 0.479 0.0
H1736 H 0.69525 0.79022 0.29888 0.0
H1737 H 0.77731 0.88626 0.32241 0.0
H1738 H 0.66081 0.81775 0.31923 0.0
H1739 H 0.74376 0.91376 0.34148 0.0
H1740 H 0.68418 0.9659 0.38575 0.0
H1741 H 0.71628 0.93603 0.36796 0.0
H1742 H 0.62851 0.84803 0.32794 0.0
H1743 H 0.59607 0.87791 0.34696 0.0
C1744 C 0.70638 0.81715 0.30844 0.0
C1745 C 0.74015 0.83521 0.30859 0.0
C1746 C 0.68616 0.83355 0.32021 0.0
C1747 C 0.6981 0.86924 0.33284 0.0
C1748 C 0.73196 0.8867 0.33294 0.0
C1749 C 0.75191 0.87043 0.32148 0.0
C1750 C 0.67094 0.94012 0.37346 0.0
C1751 C 0.63612 0.92564 0.36866 0.0
C1752 C 0.69011 0.92235 0.36248 0.0
C1753 C 0.6764 0.88833 0.34541 0.0
C1754 C 0.64153 0.87368 0.34066 0.0
C1755 C 0.62228 0.89152 0.35176 0.0
H1756 H 0.177 0.6762 0.26471 0.0
H1757 H 0.25272 0.74107 0.34672 0.0
H1758 H 0.15136 0.63896 0.30528 0.0
H1759 H 0.22676 0.70522 0.38745 0.0
H1760 H 0.1853 0.62077 0.4536 0.0
H1761 H 0.21385 0.6539 0.41215 0.0
H1762 H 0.1206 0.6362 0.34571 0.0
H1763 H 0.09262 0.60152 0.38607 0.0
C1764 C 0.18821 0.68236 0.29145 0.0
C1765 C 0.21735 0.71095 0.30239 0.0
C1766 C 0.17339 0.66126 0.31486 0.0
C1767 C 0.18677 0.66893 0.34998 0.0
C1768 C 0.21596 0.6978 0.36076 0.0
C1769 C 0.231 0.71851 0.33729 0.0
C1770 C 0.17105 0.62397 0.43004 0.0
C1771 C 0.13675 0.6084 0.42301 0.0
C1772 C 0.18736 0.64313 0.40627 0.0
C1773 C 0.16969 0.6478 0.37521 0.0
C1774 C 0.13529 0.63257 0.3687 0.0
C1775 C 0.11912 0.61287 0.39207 0.0
H1776 H 0.28837 0.16626 0.31079 0.0
H1777 H 0.37067 0.25701 0.30405 0.0
H1778 H 0.32449 0.13674 0.33166 0.0
H1779 H 0.40781 0.22707 0.32478 0.0
H1780 H 0.47564 0.16809 0.37081 0.0
H1781 H 0.44078 0.20005 0.3521 0.0
H1782 H 0.35597 0.10619 0.33823 0.0
H1783 H 0.39051 0.07464 0.35756 0.0
C1784 C 0.31442 0.18041 0.3137 0.0
C1785 C 0.32533 0.21491 0.30506 0.0
C1786 C 0.3359 0.16282 0.32582 0.0
C1787 C 0.37067 0.17793 0.33034 0.0
C1788 C 0.38185 0.213 0.32228 0.0
C1789 C 0.36007 0.2308 0.31011 0.0
C1790 C 0.44958 0.15364 0.36412 0.0
C1791 C 0.43743 0.11731 0.36658 0.0
C1792 C 0.42888 0.17266 0.3528 0.0
C1793 C 0.394 0.15721 0.34291 0.0
C1794 C 0.38195 0.1209 0.34536 0.0
C1795 C 0.40258 0.10195 0.35664 0.0
H1796 H 0.69745 0.78213 0.71825 0.0
H1797 H 0.77577 0.8686 0.69461 0.0
H1798 H 0.65724 0.80095 0.6828 0.0
H1799 H 0.73595 0.88715 0.65899 0.0
H1800 H 0.65567 0.89984 0.57815 0.0
H1801 H 0.69232 0.87274 0.60621 0.0
H1802 H 0.6394 0.85138 0.68736 0.0
H1803 H 0.60275 0.87832 0.65934 0.0
C1804 C 0.7061 0.80469 0.70489 0.0
C1805 C 0.73988 0.82374 0.7091 0.0
C1806 C 0.68306 0.8157 0.68478 0.0
C1807 C 0.6932 0.84579 0.66803 0.0
C1808 C 0.72706 0.8638 0.67117 0.0
C1809 C 0.74996 0.8532 0.69169 0.0
C1810 C 0.65158 0.88908 0.6018 0.0
C1811 C 0.62624 0.89171 0.61648 0.0
C1812 C 0.67278 0.87366 0.61804 0.0
C1813 C 0.66902 0.85981 0.64922 0.0
C1814 C 0.64303 0.86144 0.66332 0.0
C1815 C 0.62217 0.87732 0.64737 0.0
H1816 H 0.72365 0.17749 0.2746 0.0
H1817 H 0.77354 0.23595 0.37147 0.0
H1818 H 0.68134 0.13921 0.30044 0.0
H1819 H 0.73161 0.19648 0.39841 0.0
H1820 H 0.62906 0.14229 0.42318 0.0
H1821 H 0.6753 0.18104 0.40144 0.0
H1822 H 0.67146 0.0956 0.33596 0.0
H1823 H 0.62437 0.05803 0.35601 0.0
C1824 C 0.72553 0.18173 0.30166 0.0
C1825 C 0.75105 0.20966 0.32119 0.0
C1826 C 0.70162 0.1596 0.31662 0.0
C1827 C 0.70319 0.16466 0.35159 0.0
C1828 C 0.72954 0.19222 0.37135 0.0
C1829 C 0.75354 0.21456 0.35617 0.0
C1830 C 0.63825 0.13215 0.40404 0.0
C1831 C 0.62306 0.09762 0.39061 0.0
C1832 C 0.66481 0.1541 0.39185 0.0
C1833 C 0.67681 0.14144 0.3667 0.0
C1834 C 0.66223 0.10643 0.35456 0.0
C1835 C 0.63533 0.08487 0.36604 0.0
H1836 H 0.82287 0.60575 0.42865 0.0
H1837 H 0.8721 0.71627 0.43867 0.0
H1838 H 0.87253 0.60046 0.45953 0.0
H1839 H 0.92225 0.71079 0.46917 0.0
H1840 H 1.00846 0.66822 0.46767 0.0
H1841 H 0.96187 0.6861 0.45225 0.0
H1842 H 0.90997 0.61455 0.51642 0.0
H1843 H 0.95624 0.59655 0.53114 0.0
C1844 C 0.84406 0.62898 0.43808 0.0
C1845 C 0.84347 0.66141 0.43121 0.0
C1846 C 0.87257 0.62595 0.45579 0.0
C1847 C 0.90122 0.65526 0.46694 0.0
C1848 C 0.90055 0.68779 0.46073 0.0
C1849 C 0.8719 0.69085 0.44319 0.0
C1850 C 0.98755 0.65726 0.47936 0.0
C1851 C 0.98561 0.63056 0.5002 0.0
C1852 C 0.96086 0.66744 0.47053 0.0
C1853 C 0.93203 0.65108 0.48254 0.0
C1854 C 0.93159 0.62703 0.50618 0.0
C1855 C 0.95811 0.61685 0.51481 0.0
H1856 H 0.32724 0.87602 0.3451 0.0
H1857 H 0.31719 0.7814 0.39056 0.0
H1858 H 0.36906 0.90808 0.39433 0.0
H1859 H 0.36071 0.81356 0.43874 0.0
H1860 H 0.44788 0.95467 0.48861 0.0
H1861 H 0.39075 0.91454 0.47164 0.0
H1862 H 0.42037 0.85136 0.40893 0.0
H1863 H 0.47691 0.89225 0.42443 0.0
C1864 C 0.33309 0.86217 0.36604 0.0
C1865 C 0.32035 0.82612 0.36329 0.0
C1866 C 0.3568 0.88056 0.39435 0.0
C1867 C 0.36811 0.86301 0.41981 0.0
C1868 C 0.3522 0.82745 0.41928 0.0
C1869 C 0.32782 0.80914 0.39142 0.0
C1870 C 0.44221 0.9314 0.47237 0.0
C1871 C 0.46629 0.92625 0.45756 0.0
C1872 C 0.40972 0.90856 0.46284 0.0
C1873 C 0.40159 0.88003 0.43933 0.0
C1874 C 0.42639 0.87298 0.42762 0.0
C1875 C 0.45856 0.89631 0.43626 0.0
H1876 H 0.2946 0.39609 0.49334 0.0
H1877 H 0.21974 0.37773 0.40266 0.0
H1878 H 0.25638 0.40078 0.5277 0.0
H1879 H 0.18194 0.38203 0.4366 0.0
H1880 H 0.11506 0.39079 0.49388 0.0
H1881 H 0.14976 0.36112 0.48023 0.0
H1882 H 0.23546 0.44689 0.53162 0.0
H1883 H 0.20111 0.47642 0.54492 0.0
C1884 C 0.26992 0.3926 0.48083 0.0
C1885 C 0.26028 0.38679 0.4453 0.0
C1886 C 0.24801 0.39497 0.50048 0.0
C1887 C 0.21611 0.39159 0.48492 0.0
C1888 C 0.20604 0.38393 0.44955 0.0
C1889 C 0.22787 0.38167 0.42999 0.0
C1890 C 0.14128 0.40277 0.50315 0.0
C1891 C 0.15547 0.4365 0.51925 0.0
C1892 C 0.1611 0.38574 0.49544 0.0
C1893 C 0.19534 0.40222 0.50385 0.0
C1894 C 0.20917 0.43355 0.52459 0.0
C1895 C 0.18937 0.45059 0.53223 0.0
H1896 H 0.40627 0.18882 0.68449 0.0
H1897 H 0.37968 0.20402 0.57932 0.0
H1898 H 0.42566 0.14477 0.66773 0.0
H1899 H 0.39849 0.15958 0.5624 0.0
H1900 H 0.47516 0.11419 0.54889 0.0
H1901 H 0.44897 0.15276 0.5636 0.0
H1902 H 0.41256 0.08878 0.64084 0.0
H1903 H 0.43947 0.05065 0.6265 0.0
C1904 C 0.40402 0.18231 0.65774 0.0
C1905 C 0.39182 0.20028 0.63329 0.0
C1906 C 0.4151 0.15697 0.64806 0.0
C1907 C 0.41408 0.14879 0.61366 0.0
C1908 C 0.40048 0.16573 0.58916 0.0
C1909 C 0.3896 0.19119 0.59885 0.0
C1910 C 0.46136 0.10825 0.56884 0.0
C1911 C 0.45972 0.07957 0.58676 0.0
C1912 C 0.44616 0.13028 0.57722 0.0
C1913 C 0.42865 0.12407 0.60356 0.0
C1914 C 0.42635 0.09484 0.6209 0.0
C1915 C 0.44178 0.07295 0.61269 0.0
H1916 H 0.86188 0.34318 0.75197 0.0
H1917 H 0.80076 0.29396 0.65519 0.0
H1918 H 0.90255 0.38127 0.72365 0.0
H1919 H 0.84241 0.32983 0.62648 0.0
H1920 H 0.91798 0.40889 0.58045 0.0
H1921 H 0.87302 0.38126 0.60885 0.0
H1922 H 0.94251 0.37732 0.69717 0.0
H1923 H 0.98726 0.40684 0.66939 0.0
C1924 C 0.85675 0.34133 0.72451 0.0
C1925 C 0.82776 0.31653 0.70566 0.0
C1926 C 0.88046 0.36253 0.70818 0.0
C1927 C 0.87633 0.35839 0.6726 0.0
C1928 C 0.84656 0.3343 0.65379 0.0
C1929 C 0.82259 0.31362 0.67018 0.0
C1930 C 0.92353 0.4019 0.60588 0.0
C1931 C 0.95613 0.40972 0.62258 0.0
C1932 C 0.89772 0.38602 0.62225 0.0
C1933 C 0.90382 0.37697 0.65553 0.0
C1934 C 0.93659 0.38455 0.67195 0.0
C1935 C 0.96237 0.40105 0.65584 0.0
H1936 H 0.24975 0.73529 0.64034 0.0
H1937 H 0.17586 0.75423 0.68354 0.0
H1938 H 0.20768 0.68849 0.60197 0.0
H1939 H 0.13342 0.70891 0.64359 0.0
H1940 H 0.09035 0.58989 0.63712 0.0
H1941 H 0.12366 0.65002 0.6537 0.0
H1942 H 0.15924 0.65664 0.5604 0.0
H1943 H 0.12626 0.59546 0.54433 0.0
C1944 C 0.22441 0.72984 0.64116 0.0
C1945 C 0.2161 0.74572 0.6672 0.0
C1946 C 0.20018 0.70344 0.61864 0.0
C1947 C 0.16728 0.69365 0.6212 0.0
C1948 C 0.15877 0.71472 0.64235 0.0
C1949 C 0.1831 0.7407 0.66529 0.0
C1950 C 0.10521 0.60417 0.62008 0.0
C1951 C 0.10596 0.58804 0.58955 0.0
C1952 C 0.12386 0.6389 0.62925 0.0
C1953 C 0.14377 0.65842 0.60811 0.0
C1954 C 0.14409 0.64237 0.57718 0.0
C1955 C 0.12531 0.60742 0.568 0.0
loop_
_geom_bond_atom_site_label_1
_geom_bond_atom_site_label_2
_geom_bond_distance
_geom_bond_site_symmetry_2
_ccdc_geom_bond_type
Gd0 N31 2.661 . S
Gd0 N37 2.601 . S
Gd0 O44 2.545 . S
Gd0 O45 2.606 . S
Gd0 O47 2.429 . S
Gd0 O48 2.545 . S
Gd0 O49 2.412 . S
Gd0 O51 2.362 . S
Gd0 O52 2.324 . S
Gd0 C59 2.828 . S
Gd1 N10 2.661 . S
Gd1 N14 2.601 . S
Gd1 O45 2.362 . S
Gd1 O46 2.324 . S
Gd1 O50 2.545 . S
Gd1 O51 2.606 . S
Gd1 O53 2.429 . S
Gd1 O54 2.545 . S
Gd1 O55 2.412 . S
Gd1 C68 2.828 . S
C2 C5 1.417 . S
C2 C7 1.431 . S
C2 C8 1.412 . S
C3 C6 1.437 . S
C3 C7 1.317 . S
C3 H22 0.929 . S
C4 C5 1.426 . S
C4 C6 1.413 . S
C4 N14 1.359 . S
C5 C2 1.417 . S
C5 C4 1.426 . S
C5 N10 1.350 . S
C6 C3 1.437 . S
C6 C4 1.413 . S
C6 C16 1.391 . S
C7 C2 1.431 . S
C7 C3 1.317 . S
C7 H18 0.930 . S
C8 C2 1.412 . S
C8 C9 1.355 . S
C8 H20 0.930 . S
C9 C8 1.355 . S
C9 C11 1.402 . S
C9 H21 0.930 . S
N10 Gd1 2.661 . S
N10 C5 1.350 . S
N10 C11 1.307 . S
C11 C9 1.402 . S
C11 N10 1.307 . S
C11 H12 0.930 . S
H12 C11 0.930 . S
C13 N14 1.334 . S
C13 C15 1.394 . S
C13 H17 0.930 . S
N14 Gd1 2.601 . S
N14 C4 1.359 . S
N14 C13 1.334 . S
C15 C13 1.394 . S
C15 C16 1.359 . S
C15 H27 0.930 . S
C16 C6 1.391 . S
C16 C15 1.359 . S
C16 H28 0.929 . S
H17 C13 0.930 . S
H18 C7 0.930 . S
H19 C36 0.930 . S
H20 C8 0.930 . S
H21 C9 0.930 . S
H22 C3 0.929 . S
H23 C41 0.930 . S
H24 C32 0.930 . S
H25 C33 0.930 . S
H26 C57 0.929 . S
H27 C15 0.930 . S
H28 C16 0.929 . S
H29 C58 0.930 . S
H30 C39 0.930 . S
N31 Gd0 2.661 . S
N31 C35 1.350 . S
N31 C36 1.307 . S
C32 H24 0.930 . S
C32 C33 1.355 . S
C32 C34 1.412 . S
C33 H25 0.930 . S
C33 C32 1.355 . S
C33 C36 1.402 . S
C34 C32 1.412 . S
C34 C35 1.417 . S
C34 C58 1.431 . S
C35 N31 1.350 . S
C35 C34 1.417 . S
C35 C38 1.426 . S
C36 H19 0.930 . S
C36 N31 1.307 . S
C36 C33 1.402 . S
N37 Gd0 2.601 . S
N37 C38 1.359 . S
N37 C41 1.334 . S
C38 C35 1.426 . S
C38 N37 1.359 . S
C38 C42 1.413 . S
C39 H30 0.930 . S
C39 C40 1.359 . S
C39 C41 1.394 . S
C40 C39 1.359 . S
C40 C42 1.391 . S
C40 H43 0.929 . S
C41 H23 0.930 . S
C41 N37 1.334 . S
C41 C39 1.394 . S
C42 C38 1.413 . S
C42 C40 1.391 . S
C42 C57 1.437 . S
H43 C40 0.929 . S
O44 Gd0 2.545 . S
O44 C59 1.258 . S
O45 Gd0 2.606 . S
O45 Gd1 2.362 . S
O45 C56 1.284 . S
O46 Gd1 2.324 . S
O46 C66 1.254 . S
O47 Gd0 2.429 . S
O47 C66 1.268 . S
O48 Gd0 2.545 . S
O48 C56 1.250 . S
O49 Gd0 2.412 . S
O49 C59 1.252 . S
O50 Gd1 2.545 . S
O50 C68 1.258 . S
O51 Gd0 2.362 . S
O51 Gd1 2.606 . S
O51 C67 1.284 . S
O52 Gd0 2.324 . S
O52 C75 1.254 . S
O53 Gd1 2.429 . S
O53 C75 1.268 . S
O54 Gd1 2.545 . S
O54 C67 1.250 . S
O55 Gd1 2.412 . S
O55 C68 1.252 . S
C56 O45 1.284 . S
C56 O48 1.250 . S
C57 H26 0.929 . S
C57 C42 1.437 . S
C57 C58 1.317 . S
C58 H29 0.930 . S
C58 C34 1.431 . S
C58 C57 1.317 . S
C59 Gd0 2.828 . S
C59 O44 1.258 . S
C59 O49 1.252 . S
C59 C60 1.497 . S
C60 C59 1.497 . S
C60 C61 1.395 . S
C60 C62 1.380 . S
C61 C60 1.395 . S
C61 C64 1.398 . S
C61 H76 0.930 . S
C62 C60 1.380 . S
C62 C63 1.391 . S
C62 H77 0.930 . S
C63 C62 1.391 . S
C63 C65 1.387 . S
C64 C61 1.398 . S
C64 C65 1.380 . S
C64 H78 0.930 . S
C65 C63 1.387 . S
C65 C64 1.380 . S
C65 H79 0.930 . S
C66 O46 1.254 . S
C66 O47 1.268 . S
C67 O51 1.284 . S
C67 O54 1.250 . S
C68 Gd1 2.828 . S
C68 O50 1.258 . S
C68 O55 1.252 . S
C68 C69 1.497 . S
C69 C68 1.497 . S
C69 C70 1.395 . S
C69 C71 1.380 . S
C70 C69 1.395 . S
C70 C73 1.398 . S
C70 H80 0.930 . S
C71 C69 1.380 . S
C71 C72 1.391 . S
C71 H81 0.930 . S
C72 C71 1.391 . S
C72 C74 1.387 . S
C73 C70 1.398 . S
C73 C74 1.380 . S
C73 H82 0.930 . S
C74 C72 1.387 . S
C74 C73 1.380 . S
C74 H83 0.930 . S
C75 O52 1.254 . S
C75 O53 1.268 . S
H76 C61 0.930 . S
H77 C62 0.930 . S
H78 C64 0.930 . S
H79 C65 0.930 . S
H80 C70 0.930 . S
H81 C71 0.930 . S
H82 C73 0.930 . S
H83 C74 0.930 . S
Gd84 N115 2.661 . S
Gd84 N121 2.601 . S
Gd84 O128 2.545 . S
Gd84 O129 2.606 . S
Gd84 O131 2.429 . S
Gd84 O132 2.545 . S
Gd84 O133 2.412 . S
Gd84 O135 2.362 . S
Gd84 O136 2.324 . S
Gd84 C143 2.828 . S
Gd85 N94 2.661 . S
Gd85 N98 2.601 . S
Gd85 O129 2.362 . S
Gd85 O130 2.324 . S
Gd85 O134 2.545 . S
Gd85 O135 2.606 . S
Gd85 O137 2.429 . S
Gd85 O138 2.545 . S
Gd85 O139 2.412 . S
Gd85 C152 2.828 . S
C86 C89 1.417 . S
C86 C91 1.431 . S
C86 C92 1.412 . S
C87 C90 1.437 . S
C87 C91 1.317 . S
C87 H106 0.929 . S
C88 C89 1.426 . S
C88 C90 1.413 . S
C88 N98 1.359 . S
C89 C86 1.417 . S
C89 C88 1.426 . S
C89 N94 1.350 . S
C90 C87 1.437 . S
C90 C88 1.413 . S
C90 C100 1.391 . S
C91 C86 1.431 . S
C91 C87 1.317 . S
C91 H102 0.930 . S
C92 C86 1.412 . S
C92 C93 1.355 . S
C92 H104 0.930 . S
C93 C92 1.355 . S
C93 C95 1.402 . S
C93 H105 0.930 . S
N94 Gd85 2.661 . S
N94 C89 1.350 . S
N94 C95 1.307 . S
C95 C93 1.402 . S
C95 N94 1.307 . S
C95 H96 0.930 . S
H96 C95 0.930 . S
C97 N98 1.334 . S
C97 C99 1.394 . S
C97 H101 0.930 . S
N98 Gd85 2.601 . S
N98 C88 1.359 . S
N98 C97 1.334 . S
C99 C97 1.394 . S
C99 C100 1.359 . S
C99 H111 0.930 . S
C100 C90 1.391 . S
C100 C99 1.359 . S
C100 H112 0.929 . S
H101 C97 0.930 . S
H102 C91 0.930 . S
H103 C120 0.930 . S
H104 C92 0.930 . S
H105 C93 0.930 . S
H106 C87 0.929 . S
H107 C125 0.930 . S
H108 C116 0.930 . S
H109 C117 0.930 . S
H110 C141 0.929 . S
H111 C99 0.930 . S
H112 C100 0.929 . S
H113 C142 0.930 . S
H114 C123 0.930 . S
N115 Gd84 2.661 . S
N115 C119 1.350 . S
N115 C120 1.307 . S
C116 H108 0.930 . S
C116 C117 1.355 . S
C116 C118 1.412 . S
C117 H109 0.930 . S
C117 C116 1.355 . S
C117 C120 1.402 . S
C118 C116 1.412 . S
C118 C119 1.417 . S
C118 C142 1.431 . S
C119 N115 1.350 . S
C119 C118 1.417 . S
C119 C122 1.426 . S
C120 H103 0.930 . S
C120 N115 1.307 . S
C120 C117 1.402 . S
N121 Gd84 2.601 . S
N121 C122 1.359 . S
N121 C125 1.334 . S
C122 C119 1.426 . S
C122 N121 1.359 . S
C122 C126 1.413 . S
C123 H114 0.930 . S
C123 C124 1.359 . S
C123 C125 1.394 . S
C124 C123 1.359 . S
C124 C126 1.391 . S
C124 H127 0.929 . S
C125 H107 0.930 . S
C125 N121 1.334 . S
C125 C123 1.394 . S
C126 C122 1.413 . S
C126 C124 1.391 . S
C126 C141 1.437 . S
H127 C124 0.929 . S
O128 Gd84 2.545 . S
O128 C143 1.258 . S
O129 Gd84 2.606 . S
O129 Gd85 2.362 . S
O129 C140 1.284 . S
O130 Gd85 2.324 . S
O130 C150 1.254 . S
O131 Gd84 2.429 . S
O131 C150 1.268 . S
O132 Gd84 2.545 . S
O132 C140 1.250 . S
O133 Gd84 2.412 . S
O133 C143 1.252 . S
O134 Gd85 2.545 . S
O134 C152 1.258 . S
O135 Gd84 2.362 . S
O135 Gd85 2.606 . S
O135 C151 1.284 . S
O136 Gd84 2.324 . S
O136 C159 1.254 . S
O137 Gd85 2.429 . S
O137 C159 1.268 . S
O138 Gd85 2.545 . S
O138 C151 1.250 . S
O139 Gd85 2.412 . S
O139 C152 1.252 . S
C140 O129 1.284 . S
C140 O132 1.250 . S
C141 H110 0.929 . S
C141 C126 1.437 . S
C141 C142 1.317 . S
C142 H113 0.930 . S
C142 C118 1.431 . S
C142 C141 1.317 . S
C143 Gd84 2.828 . S
C143 O128 1.258 . S
C143 O133 1.252 . S
C143 C144 1.497 . S
C144 C143 1.497 . S
C144 C145 1.395 . S
C144 C146 1.380 . S
C145 C144 1.395 . S
C145 C148 1.398 . S
C145 H160 0.930 . S
C146 C144 1.380 . S
C146 C147 1.391 . S
C146 H161 0.930 . S
C147 C146 1.391 . S
C147 C149 1.387 . S
C148 C145 1.398 . S
C148 C149 1.380 . S
C148 H162 0.930 . S
C149 C147 1.387 . S
C149 C148 1.380 . S
C149 H163 0.930 . S
C150 O130 1.254 . S
C150 O131 1.268 . S
C151 O135 1.284 . S
C151 O138 1.250 . S
C152 Gd85 2.828 . S
C152 O134 1.258 . S
C152 O139 1.252 . S
C152 C153 1.497 . S
C153 C152 1.497 . S
C153 C154 1.395 . S
C153 C155 1.380 . S
C154 C153 1.395 . S
C154 C157 1.398 . S
C154 H164 0.930 . S
C155 C153 1.380 . S
C155 C156 1.391 . S
C155 H165 0.930 . S
C156 C155 1.391 . S
C156 C158 1.387 . S
C157 C154 1.398 . S
C157 C158 1.380 . S
C157 H166 0.930 . S
C158 C156 1.387 . S
C158 C157 1.380 . S
C158 H167 0.930 . S
C159 O136 1.254 . S
C159 O137 1.268 . S
H160 C145 0.930 . S
H161 C146 0.930 . S
H162 C148 0.930 . S
H163 C149 0.930 . S
H164 C154 0.930 . S
H165 C155 0.930 . S
H166 C157 0.930 . S
H167 C158 0.930 . S
Gd168 N199 2.661 . S
Gd168 N205 2.601 . S
Gd168 O212 2.545 . S
Gd168 O213 2.606 . S
Gd168 O215 2.429 . S
Gd168 O216 2.545 . S
Gd168 O217 2.412 . S
Gd168 O219 2.362 . S
Gd168 O220 2.324 . S
Gd168 C227 2.828 . S
Gd169 N178 2.661 . S
Gd169 N182 2.601 . S
Gd169 O213 2.362 . S
Gd169 O214 2.324 . S
Gd169 O218 2.545 . S
Gd169 O219 2.606 . S
Gd169 O221 2.429 . S
Gd169 O222 2.545 . S
Gd169 O223 2.412 . S
Gd169 C236 2.828 . S
C170 C173 1.417 . S
C170 C175 1.431 . S
C170 C176 1.412 . S
C171 C174 1.437 . S
C171 C175 1.317 . S
C171 H190 0.929 . S
C172 C173 1.426 . S
C172 C174 1.413 . S
C172 N182 1.359 . S
C173 C170 1.417 . S
C173 C172 1.426 . S
C173 N178 1.350 . S
C174 C171 1.437 . S
C174 C172 1.413 . S
C174 C184 1.391 . S
C175 C170 1.431 . S
C175 C171 1.317 . S
C175 H186 0.930 . S
C176 C170 1.412 . S
C176 C177 1.355 . S
C176 H188 0.930 . S
C177 C176 1.355 . S
C177 C179 1.402 . S
C177 H189 0.930 . S
N178 Gd169 2.661 . S
N178 C173 1.350 . S
N178 C179 1.307 . S
C179 C177 1.402 . S
C179 N178 1.307 . S
C179 H180 0.930 . S
H180 C179 0.930 . S
C181 N182 1.334 . S
C181 C183 1.394 . S
C181 H185 0.930 . S
N182 Gd169 2.601 . S
N182 C172 1.359 . S
N182 C181 1.334 . S
C183 C181 1.394 . S
C183 C184 1.359 . S
C183 H195 0.930 . S
C184 C174 1.391 . S
C184 C183 1.359 . S
C184 H196 0.929 . S
H185 C181 0.930 . S
H186 C175 0.930 . S
H187 C204 0.930 . S
H188 C176 0.930 . S
H189 C177 0.930 . S
H190 C171 0.929 . S
H191 C209 0.930 . S
H192 C200 0.930 . S
H193 C201 0.930 . S
H194 C225 0.929 . S
H195 C183 0.930 . S
H196 C184 0.929 . S
H197 C226 0.930 . S
H198 C207 0.930 . S
N199 Gd168 2.661 . S
N199 C203 1.350 . S
N199 C204 1.307 . S
C200 H192 0.930 . S
C200 C201 1.355 . S
C200 C202 1.412 . S
C201 H193 0.930 . S
C201 C200 1.355 . S
C201 C204 1.402 . S
C202 C200 1.412 . S
C202 C203 1.417 . S
C202 C226 1.431 . S
C203 N199 1.350 . S
C203 C202 1.417 . S
C203 C206 1.426 . S
C204 H187 0.930 . S
C204 N199 1.307 . S
C204 C201 1.402 . S
N205 Gd168 2.601 . S
N205 C206 1.359 . S
N205 C209 1.334 . S
C206 C203 1.426 . S
C206 N205 1.359 . S
C206 C210 1.413 . S
C207 H198 0.930 . S
C207 C208 1.359 . S
C207 C209 1.394 . S
C208 C207 1.359 . S
C208 C210 1.391 . S
C208 H211 0.929 . S
C209 H191 0.930 . S
C209 N205 1.334 . S
C209 C207 1.394 . S
C210 C206 1.413 . S
C210 C208 1.391 . S
C210 C225 1.437 . S
H211 C208 0.929 . S
O212 Gd168 2.545 . S
O212 C227 1.258 . S
O213 Gd168 2.606 . S
O213 Gd169 2.362 . S
O213 C224 1.284 . S
O214 Gd169 2.324 . S
O214 C234 1.254 . S
O215 Gd168 2.429 . S
O215 C234 1.268 . S
O216 Gd168 2.545 . S
O216 C224 1.250 . S
O217 Gd168 2.412 . S
O217 C227 1.252 . S
O218 Gd169 2.545 . S
O218 C236 1.258 . S
O219 Gd168 2.362 . S
O219 Gd169 2.606 . S
O219 C235 1.284 . S
O220 Gd168 2.324 . S
O220 C243 1.254 . S
O221 Gd169 2.429 . S
O221 C243 1.268 . S
O222 Gd169 2.545 . S
O222 C235 1.250 . S
O223 Gd169 2.412 . S
O223 C236 1.252 . S
C224 O213 1.284 . S
C224 O216 1.250 . S
C225 H194 0.929 . S
C225 C210 1.437 . S
C225 C226 1.317 . S
C226 H197 0.930 . S
C226 C202 1.431 . S
C226 C225 1.317 . S
C227 Gd168 2.828 . S
C227 O212 1.258 . S
C227 O217 1.252 . S
C227 C228 1.497 . S
C228 C227 1.497 . S
C228 C229 1.395 . S
C228 C230 1.380 . S
C229 C228 1.395 . S
C229 C232 1.398 . S
C229 H244 0.930 . S
C230 C228 1.380 . S
C230 C231 1.391 . S
C230 H245 0.930 . S
C231 C230 1.391 . S
C231 C233 1.387 . S
C232 C229 1.398 . S
C232 C233 1.380 . S
C232 H246 0.930 . S
C233 C231 1.387 . S
C233 C232 1.380 . S
C233 H247 0.930 . S
C234 O214 1.254 . S
C234 O215 1.268 . S
C235 O219 1.284 . S
C235 O222 1.250 . S
C236 Gd169 2.828 . S
C236 O218 1.258 . S
C236 O223 1.252 . S
C236 C237 1.497 . S
C237 C236 1.497 . S
C237 C238 1.395 . S
C237 C239 1.380 . S
C238 C237 1.395 . S
C238 C241 1.398 . S
C238 H248 0.930 . S
C239 C237 1.380 . S
C239 C240 1.391 . S
C239 H249 0.930 . S
C240 C239 1.391 . S
C240 C242 1.387 . S
C241 C238 1.398 . S
C241 C242 1.380 . S
C241 H250 0.930 . S
C242 C240 1.387 . S
C242 C241 1.380 . S
C242 H251 0.930 . S
C243 O220 1.254 . S
C243 O221 1.268 . S
H244 C229 0.930 . S
H245 C230 0.930 . S
H246 C232 0.930 . S
H247 C233 0.930 . S
H248 C238 0.930 . S
H249 C239 0.930 . S
H250 C241 0.930 . S
H251 C242 0.930 . S
Gd252 N283 2.661 . S
Gd252 N289 2.601 . S
Gd252 O296 2.545 . S
Gd252 O297 2.606 . S
Gd252 O299 2.429 . S
Gd252 O300 2.545 . S
Gd252 O301 2.412 . S
Gd252 O303 2.362 . S
Gd252 O304 2.324 . S
Gd252 C311 2.828 . S
Gd253 N262 2.661 . S
Gd253 N266 2.601 . S
Gd253 O297 2.362 . S
Gd253 O298 2.324 . S
Gd253 O302 2.545 . S
Gd253 O303 2.606 . S
Gd253 O305 2.429 . S
Gd253 O306 2.545 . S
Gd253 O307 2.412 . S
Gd253 C320 2.828 . S
C254 C257 1.417 . S
C254 C259 1.431 . S
C254 C260 1.412 . S
C255 C258 1.437 . S
C255 C259 1.317 . S
C255 H274 0.929 . S
C256 C257 1.426 . S
C256 C258 1.413 . S
C256 N266 1.359 . S
C257 C254 1.417 . S
C257 C256 1.426 . S
C257 N262 1.350 . S
C258 C255 1.437 . S
C258 C256 1.413 . S
C258 C268 1.391 . S
C259 C254 1.431 . S
C259 C255 1.317 . S
C259 H270 0.930 . S
C260 C254 1.412 . S
C260 C261 1.355 . S
C260 H272 0.930 . S
C261 C260 1.355 . S
C261 C263 1.402 . S
C261 H273 0.930 . S
N262 Gd253 2.661 . S
N262 C257 1.350 . S
N262 C263 1.307 . S
C263 C261 1.402 . S
C263 N262 1.307 . S
C263 H264 0.930 . S
H264 C263 0.930 . S
C265 N266 1.334 . S
C265 C267 1.394 . S
C265 H269 0.930 . S
N266 Gd253 2.601 . S
N266 C256 1.359 . S
N266 C265 1.334 . S
C267 C265 1.394 . S
C267 C268 1.359 . S
C267 H279 0.930 . S
C268 C258 1.391 . S
C268 C267 1.359 . S
C268 H280 0.929 . S
H269 C265 0.930 . S
H270 C259 0.930 . S
H271 C288 0.930 . S
H272 C260 0.930 . S
H273 C261 0.930 . S
H274 C255 0.929 . S
H275 C293 0.930 . S
H276 C284 0.930 . S
H277 C285 0.930 . S
H278 C309 0.929 . S
H279 C267 0.930 . S
H280 C268 0.929 . S
H281 C310 0.930 . S
H282 C291 0.930 . S
N283 Gd252 2.661 . S
N283 C287 1.350 . S
N283 C288 1.307 . S
C284 H276 0.930 . S
C284 C285 1.355 . S
C284 C286 1.412 . S
C285 H277 0.930 . S
C285 C284 1.355 . S
C285 C288 1.402 . S
C286 C284 1.412 . S
C286 C287 1.417 . S
C286 C310 1.431 . S
C287 N283 1.350 . S
C287 C286 1.417 . S
C287 C290 1.426 . S
C288 H271 0.930 . S
C288 N283 1.307 . S
C288 C285 1.402 . S
N289 Gd252 2.601 . S
N289 C290 1.359 . S
N289 C293 1.334 . S
C290 C287 1.426 . S
C290 N289 1.359 . S
C290 C294 1.413 . S
C291 H282 0.930 . S
C291 C292 1.359 . S
C291 C293 1.394 . S
C292 C291 1.359 . S
C292 C294 1.391 . S
C292 H295 0.929 . S
C293 H275 0.930 . S
C293 N289 1.334 . S
C293 C291 1.394 . S
C294 C290 1.413 . S
C294 C292 1.391 . S
C294 C309 1.437 . S
H295 C292 0.929 . S
O296 Gd252 2.545 . S
O296 C311 1.258 . S
O297 Gd252 2.606 . S
O297 Gd253 2.362 . S
O297 C308 1.284 . S
O298 Gd253 2.324 . S
O298 C318 1.254 . S
O299 Gd252 2.429 . S
O299 C318 1.268 . S
O300 Gd252 2.545 . S
O300 C308 1.250 . S
O301 Gd252 2.412 . S
O301 C311 1.252 . S
O302 Gd253 2.545 . S
O302 C320 1.258 . S
O303 Gd252 2.362 . S
O303 Gd253 2.606 . S
O303 C319 1.284 . S
O304 Gd252 2.324 . S
O304 C327 1.254 . S
O305 Gd253 2.429 . S
O305 C327 1.268 . S
O306 Gd253 2.545 . S
O306 C319 1.250 . S
O307 Gd253 2.412 . S
O307 C320 1.252 . S
C308 O297 1.284 . S
C308 O300 1.250 . S
C309 H278 0.929 . S
C309 C294 1.437 . S
C309 C310 1.317 . S
C310 H281 0.930 . S
C310 C286 1.431 . S
C310 C309 1.317 . S
C311 Gd252 2.828 . S
C311 O296 1.258 . S
C311 O301 1.252 . S
C311 C312 1.497 . S
C312 C311 1.497 . S
C312 C313 1.395 . S
C312 C314 1.380 . S
C313 C312 1.395 . S
C313 C316 1.398 . S
C313 H328 0.930 . S
C314 C312 1.380 . S
C314 C315 1.391 . S
C314 H329 0.930 . S
C315 C314 1.391 . S
C315 C317 1.387 . S
C316 C313 1.398 . S
C316 C317 1.380 . S
C316 H330 0.930 . S
C317 C315 1.387 . S
C317 C316 1.380 . S
C317 H331 0.930 . S
C318 O298 1.254 . S
C318 O299 1.268 . S
C319 O303 1.284 . S
C319 O306 1.250 . S
C320 Gd253 2.828 . S
C320 O302 1.258 . S
C320 O307 1.252 . S
C320 C321 1.497 . S
C321 C320 1.497 . S
C321 C322 1.395 . S
C321 C323 1.380 . S
C322 C321 1.395 . S
C322 C325 1.398 . S
C322 H332 0.930 . S
C323 C321 1.380 . S
C323 C324 1.391 . S
C323 H333 0.930 . S
C324 C323 1.391 . S
C324 C326 1.387 . S
C325 C322 1.398 . S
C325 C326 1.380 . S
C325 H334 0.930 . S
C326 C324 1.387 . S
C326 C325 1.380 . S
C326 H335 0.930 . S
C327 O304 1.254 . S
C327 O305 1.268 . S
H328 C313 0.930 . S
H329 C314 0.930 . S
H330 C316 0.930 . S
H331 C317 0.930 . S
H332 C322 0.930 . S
H333 C323 0.930 . S
H334 C325 0.930 . S
H335 C326 0.930 . S
Gd336 N367 2.661 . S
Gd336 N373 2.601 . S
Gd336 O380 2.545 . S
Gd336 O381 2.606 . S
Gd336 O383 2.429 . S
Gd336 O384 2.545 . S
Gd336 O385 2.412 . S
Gd336 O387 2.362 . S
Gd336 O388 2.324 . S
Gd336 C395 2.828 . S
Gd337 N346 2.661 . S
Gd337 N350 2.601 . S
Gd337 O381 2.362 . S
Gd337 O382 2.324 . S
Gd337 O386 2.545 . S
Gd337 O387 2.606 . S
Gd337 O389 2.429 . S
Gd337 O390 2.545 . S
Gd337 O391 2.412 . S
Gd337 C404 2.828 . S
C338 C341 1.417 . S
C338 C343 1.431 . S
C338 C344 1.412 . S
C339 C342 1.437 . S
C339 C343 1.317 . S
C339 H358 0.929 . S
C340 C341 1.426 . S
C340 C342 1.413 . S
C340 N350 1.359 . S
C341 C338 1.417 . S
C341 C340 1.426 . S
C341 N346 1.350 . S
C342 C339 1.437 . S
C342 C340 1.413 . S
C342 C352 1.391 . S
C343 C338 1.431 . S
C343 C339 1.317 . S
C343 H354 0.930 . S
C344 C338 1.412 . S
C344 C345 1.355 . S
C344 H356 0.930 . S
C345 C344 1.355 . S
C345 C347 1.402 . S
C345 H357 0.930 . S
N346 Gd337 2.661 . S
N346 C341 1.350 . S
N346 C347 1.307 . S
C347 C345 1.402 . S
C347 N346 1.307 . S
C347 H348 0.930 . S
H348 C347 0.930 . S
C349 N350 1.334 . S
C349 C351 1.394 . S
C349 H353 0.930 . S
N350 Gd337 2.601 . S
N350 C340 1.359 . S
N350 C349 1.334 . S
C351 C349 1.394 . S
C351 C352 1.359 . S
C351 H363 0.930 . S
C352 C342 1.391 . S
C352 C351 1.359 . S
C352 H364 0.929 . S
H353 C349 0.930 . S
H354 C343 0.930 . S
H355 C372 0.930 . S
H356 C344 0.930 . S
H357 C345 0.930 . S
H358 C339 0.929 . S
H359 C377 0.930 . S
H360 C368 0.930 . S
H361 C369 0.930 . S
H362 C393 0.929 . S
H363 C351 0.930 . S
H364 C352 0.929 . S
H365 C394 0.930 . S
H366 C375 0.930 . S
N367 Gd336 2.661 . S
N367 C371 1.350 . S
N367 C372 1.307 . S
C368 H360 0.930 . S
C368 C369 1.355 . S
C368 C370 1.412 . S
C369 H361 0.930 . S
C369 C368 1.355 . S
C369 C372 1.402 . S
C370 C368 1.412 . S
C370 C371 1.417 . S
C370 C394 1.431 . S
C371 N367 1.350 . S
C371 C370 1.417 . S
C371 C374 1.426 . S
C372 H355 0.930 . S
C372 N367 1.307 . S
C372 C369 1.402 . S
N373 Gd336 2.601 . S
N373 C374 1.359 . S
N373 C377 1.334 . S
C374 C371 1.426 . S
C374 N373 1.359 . S
C374 C378 1.413 . S
C375 H366 0.930 . S
C375 C376 1.359 . S
C375 C377 1.394 . S
C376 C375 1.359 . S
C376 C378 1.391 . S
C376 H379 0.929 . S
C377 H359 0.930 . S
C377 N373 1.334 . S
C377 C375 1.394 . S
C378 C374 1.413 . S
C378 C376 1.391 . S
C378 C393 1.437 . S
H379 C376 0.929 . S
O380 Gd336 2.545 . S
O380 C395 1.258 . S
O381 Gd336 2.606 . S
O381 Gd337 2.362 . S
O381 C392 1.284 . S
O382 Gd337 2.324 . S
O382 C402 1.254 . S
O383 Gd336 2.429 . S
O383 C402 1.268 . S
O384 Gd336 2.545 . S
O384 C392 1.250 . S
O385 Gd336 2.412 . S
O385 C395 1.252 . S
O386 Gd337 2.545 . S
O386 C404 1.258 . S
O387 Gd336 2.362 . S
O387 Gd337 2.606 . S
O387 C403 1.284 . S
O388 Gd336 2.324 . S
O388 C411 1.254 . S
O389 Gd337 2.429 . S
O389 C411 1.268 . S
O390 Gd337 2.545 . S
O390 C403 1.250 . S
O391 Gd337 2.412 . S
O391 C404 1.252 . S
C392 O381 1.284 . S
C392 O384 1.250 . S
C393 H362 0.929 . S
C393 C378 1.437 . S
C393 C394 1.317 . S
C394 H365 0.930 . S
C394 C370 1.431 . S
C394 C393 1.317 . S
C395 Gd336 2.828 . S
C395 O380 1.258 . S
C395 O385 1.252 . S
C395 C396 1.497 . S
C396 C395 1.497 . S
C396 C397 1.395 . S
C396 C398 1.380 . S
C397 C396 1.395 . S
C397 C400 1.398 . S
C397 H412 0.930 . S
C398 C396 1.380 . S
C398 C399 1.391 . S
C398 H413 0.930 . S
C399 C398 1.391 . S
C399 C401 1.387 . S
C400 C397 1.398 . S
C400 C401 1.380 . S
C400 H414 0.930 . S
C401 C399 1.387 . S
C401 C400 1.380 . S
C401 H415 0.930 . S
C402 O382 1.254 . S
C402 O383 1.268 . S
C403 O387 1.284 . S
C403 O390 1.250 . S
C404 Gd337 2.828 . S
C404 O386 1.258 . S
C404 O391 1.252 . S
C404 C405 1.497 . S
C405 C404 1.497 . S
C405 C406 1.395 . S
C405 C407 1.380 . S
C406 C405 1.395 . S
C406 C409 1.398 . S
C406 H416 0.930 . S
C407 C405 1.380 . S
C407 C408 1.391 . S
C407 H417 0.930 . S
C408 C407 1.391 . S
C408 C410 1.387 . S
C409 C406 1.398 . S
C409 C410 1.380 . S
C409 H418 0.930 . S
C410 C408 1.387 . S
C410 C409 1.380 . S
C410 H419 0.930 . S
C411 O388 1.254 . S
C411 O389 1.268 . S
H412 C397 0.930 . S
H413 C398 0.930 . S
H414 C400 0.930 . S
H415 C401 0.930 . S
H416 C406 0.930 . S
H417 C407 0.930 . S
H418 C409 0.930 . S
H419 C410 0.930 . S
Gd420 N451 2.661 . S
Gd420 N457 2.601 . S
Gd420 O464 2.545 . S
Gd420 O465 2.606 . S
Gd420 O467 2.429 . S
Gd420 O468 2.545 . S
Gd420 O469 2.412 . S
Gd420 O471 2.362 . S
Gd420 O472 2.324 . S
Gd420 C479 2.828 . S
Gd421 N430 2.661 . S
Gd421 N434 2.601 . S
Gd421 O465 2.362 . S
Gd421 O466 2.324 . S
Gd421 O470 2.545 . S
Gd421 O471 2.606 . S
Gd421 O473 2.429 . S
Gd421 O474 2.545 . S
Gd421 O475 2.412 . S
Gd421 C488 2.828 . S
C422 C425 1.417 . S
C422 C427 1.431 . S
C422 C428 1.412 . S
C423 C426 1.437 . S
C423 C427 1.317 . S
C423 H442 0.929 . S
C424 C425 1.426 . S
C424 C426 1.413 . S
C424 N434 1.359 . S
C425 C422 1.417 . S
C425 C424 1.426 . S
C425 N430 1.350 . S
C426 C423 1.437 . S
C426 C424 1.413 . S
C426 C436 1.391 . S
C427 C422 1.431 . S
C427 C423 1.317 . S
C427 H438 0.930 . S
C428 C422 1.412 . S
C428 C429 1.355 . S
C428 H440 0.930 . S
C429 C428 1.355 . S
C429 C431 1.402 . S
C429 H441 0.930 . S
N430 Gd421 2.661 . S
N430 C425 1.350 . S
N430 C431 1.307 . S
C431 C429 1.402 . S
C431 N430 1.307 . S
C431 H432 0.930 . S
H432 C431 0.930 . S
C433 N434 1.334 . S
C433 C435 1.394 . S
C433 H437 0.930 . S
N434 Gd421 2.601 . S
N434 C424 1.359 . S
N434 C433 1.334 . S
C435 C433 1.394 . S
C435 C436 1.359 . S
C435 H447 0.930 . S
C436 C426 1.391 . S
C436 C435 1.359 . S
C436 H448 0.929 . S
H437 C433 0.930 . S
H438 C427 0.930 . S
H439 C456 0.930 . S
H440 C428 0.930 . S
H441 C429 0.930 . S
H442 C423 0.929 . S
H443 C461 0.930 . S
H444 C452 0.930 . S
H445 C453 0.930 . S
H446 C477 0.929 . S
H447 C435 0.930 . S
H448 C436 0.929 . S
H449 C478 0.930 . S
H450 C459 0.930 . S
N451 Gd420 2.661 . S
N451 C455 1.350 . S
N451 C456 1.307 . S
C452 H444 0.930 . S
C452 C453 1.355 . S
C452 C454 1.412 . S
C453 H445 0.930 . S
C453 C452 1.355 . S
C453 C456 1.402 . S
C454 C452 1.412 . S
C454 C455 1.417 . S
C454 C478 1.431 . S
C455 N451 1.350 . S
C455 C454 1.417 . S
C455 C458 1.426 . S
C456 H439 0.930 . S
C456 N451 1.307 . S
C456 C453 1.402 . S
N457 Gd420 2.601 . S
N457 C458 1.359 . S
N457 C461 1.334 . S
C458 C455 1.426 . S
C458 N457 1.359 . S
C458 C462 1.413 . S
C459 H450 0.930 . S
C459 C460 1.359 . S
C459 C461 1.394 . S
C460 C459 1.359 . S
C460 C462 1.391 . S
C460 H463 0.929 . S
C461 H443 0.930 . S
C461 N457 1.334 . S
C461 C459 1.394 . S
C462 C458 1.413 . S
C462 C460 1.391 . S
C462 C477 1.437 . S
H463 C460 0.929 . S
O464 Gd420 2.545 . S
O464 C479 1.258 . S
O465 Gd420 2.606 . S
O465 Gd421 2.362 . S
O465 C476 1.284 . S
O466 Gd421 2.324 . S
O466 C486 1.254 . S
O467 Gd420 2.429 . S
O467 C486 1.268 . S
O468 Gd420 2.545 . S
O468 C476 1.250 . S
O469 Gd420 2.412 . S
O469 C479 1.252 . S
O470 Gd421 2.545 . S
O470 C488 1.258 . S
O471 Gd420 2.362 . S
O471 Gd421 2.606 . S
O471 C487 1.284 . S
O472 Gd420 2.324 . S
O472 C495 1.254 . S
O473 Gd421 2.429 . S
O473 C495 1.268 . S
O474 Gd421 2.545 . S
O474 C487 1.250 . S
O475 Gd421 2.412 . S
O475 C488 1.252 . S
C476 O465 1.284 . S
C476 O468 1.250 . S
C477 H446 0.929 . S
C477 C462 1.437 . S
C477 C478 1.317 . S
C478 H449 0.930 . S
C478 C454 1.431 . S
C478 C477 1.317 . S
C479 Gd420 2.828 . S
C479 O464 1.258 . S
C479 O469 1.252 . S
C479 C480 1.497 . S
C480 C479 1.497 . S
C480 C481 1.395 . S
C480 C482 1.380 . S
C481 C480 1.395 . S
C481 C484 1.398 . S
C481 H496 0.930 . S
C482 C480 1.380 . S
C482 C483 1.391 . S
C482 H497 0.930 . S
C483 C482 1.391 . S
C483 C485 1.387 . S
C484 C481 1.398 . S
C484 C485 1.380 . S
C484 H498 0.930 . S
C485 C483 1.387 . S
C485 C484 1.380 . S
C485 H499 0.930 . S
C486 O466 1.254 . S
C486 O467 1.268 . S
C487 O471 1.284 . S
C487 O474 1.250 . S
C488 Gd421 2.828 . S
C488 O470 1.258 . S
C488 O475 1.252 . S
C488 C489 1.497 . S
C489 C488 1.497 . S
C489 C490 1.395 . S
C489 C491 1.380 . S
C490 C489 1.395 . S
C490 C493 1.398 . S
C490 H500 0.930 . S
C491 C489 1.380 . S
C491 C492 1.391 . S
C491 H501 0.930 . S
C492 C491 1.391 . S
C492 C494 1.387 . S
C493 C490 1.398 . S
C493 C494 1.380 . S
C493 H502 0.930 . S
C494 C492 1.387 . S
C494 C493 1.380 . S
C494 H503 0.930 . S
C495 O472 1.254 . S
C495 O473 1.268 . S
H496 C481 0.930 . S
H497 C482 0.930 . S
H498 C484 0.930 . S
H499 C485 0.930 . S
H500 C490 0.930 . S
H501 C491 0.930 . S
H502 C493 0.930 . S
H503 C494 0.930 . S
Gd504 N535 2.661 . S
Gd504 N541 2.601 . S
Gd504 O548 2.545 . S
Gd504 O549 2.606 . S
Gd504 O551 2.429 . S
Gd504 O552 2.545 . S
Gd504 O553 2.412 . S
Gd504 O555 2.362 . S
Gd504 O556 2.324 . S
Gd504 C563 2.828 . S
Gd505 N514 2.661 . S
Gd505 N518 2.601 . S
Gd505 O549 2.362 . S
Gd505 O550 2.324 . S
Gd505 O554 2.545 . S
Gd505 O555 2.606 . S
Gd505 O557 2.429 . S
Gd505 O558 2.545 . S
Gd505 O559 2.412 . S
Gd505 C572 2.828 . S
C506 C509 1.417 . S
C506 C511 1.431 . S
C506 C512 1.412 . S
C507 C510 1.437 . S
C507 C511 1.317 . S
C507 H526 0.929 . S
C508 C509 1.426 . S
C508 C510 1.413 . S
C508 N518 1.359 . S
C509 C506 1.417 . S
C509 C508 1.426 . S
C509 N514 1.350 . S
C510 C507 1.437 . S
C510 C508 1.413 . S
C510 C520 1.391 . S
C511 C506 1.431 . S
C511 C507 1.317 . S
C511 H522 0.930 . S
C512 C506 1.412 . S
C512 C513 1.355 . S
C512 H524 0.930 . S
C513 C512 1.355 . S
C513 C515 1.402 . S
C513 H525 0.930 . S
N514 Gd505 2.661 . S
N514 C509 1.350 . S
N514 C515 1.307 . S
C515 C513 1.402 . S
C515 N514 1.307 . S
C515 H516 0.930 . S
H516 C515 0.930 . S
C517 N518 1.334 . S
C517 C519 1.394 . S
C517 H521 0.930 . S
N518 Gd505 2.601 . S
N518 C508 1.359 . S
N518 C517 1.334 . S
C519 C517 1.394 . S
C519 C520 1.359 . S
C519 H531 0.930 . S
C520 C510 1.391 . S
C520 C519 1.359 . S
C520 H532 0.929 . S
H521 C517 0.930 . S
H522 C511 0.930 . S
H523 C540 0.930 . S
H524 C512 0.930 . S
H525 C513 0.930 . S
H526 C507 0.929 . S
H527 C545 0.930 . S
H528 C536 0.930 . S
H529 C537 0.930 . S
H530 C561 0.929 . S
H531 C519 0.930 . S
H532 C520 0.929 . S
H533 C562 0.930 . S
H534 C543 0.930 . S
N535 Gd504 2.661 . S
N535 C539 1.350 . S
N535 C540 1.307 . S
C536 H528 0.930 . S
C536 C537 1.355 . S
C536 C538 1.412 . S
C537 H529 0.930 . S
C537 C536 1.355 . S
C537 C540 1.402 . S
C538 C536 1.412 . S
C538 C539 1.417 . S
C538 C562 1.431 . S
C539 N535 1.350 . S
C539 C538 1.417 . S
C539 C542 1.426 . S
C540 H523 0.930 . S
C540 N535 1.307 . S
C540 C537 1.402 . S
N541 Gd504 2.601 . S
N541 C542 1.359 . S
N541 C545 1.334 . S
C542 C539 1.426 . S
C542 N541 1.359 . S
C542 C546 1.413 . S
C543 H534 0.930 . S
C543 C544 1.359 . S
C543 C545 1.394 . S
C544 C543 1.359 . S
C544 C546 1.391 . S
C544 H547 0.929 . S
C545 H527 0.930 . S
C545 N541 1.334 . S
C545 C543 1.394 . S
C546 C542 1.413 . S
C546 C544 1.391 . S
C546 C561 1.437 . S
H547 C544 0.929 . S
O548 Gd504 2.545 . S
O548 C563 1.258 . S
O549 Gd504 2.606 . S
O549 Gd505 2.362 . S
O549 C560 1.284 . S
O550 Gd505 2.324 . S
O550 C570 1.254 . S
O551 Gd504 2.429 . S
O551 C570 1.268 . S
O552 Gd504 2.545 . S
O552 C560 1.250 . S
O553 Gd504 2.412 . S
O553 C563 1.252 . S
O554 Gd505 2.545 . S
O554 C572 1.258 . S
O555 Gd504 2.362 . S
O555 Gd505 2.606 . S
O555 C571 1.284 . S
O556 Gd504 2.324 . S
O556 C579 1.254 . S
O557 Gd505 2.429 . S
O557 C579 1.268 . S
O558 Gd505 2.545 . S
O558 C571 1.250 . S
O559 Gd505 2.412 . S
O559 C572 1.252 . S
C560 O549 1.284 . S
C560 O552 1.250 . S
C561 H530 0.929 . S
C561 C546 1.437 . S
C561 C562 1.317 . S
C562 H533 0.930 . S
C562 C538 1.431 . S
C562 C561 1.317 . S
C563 Gd504 2.828 . S
C563 O548 1.258 . S
C563 O553 1.252 . S
C563 C564 1.497 . S
C564 C563 1.497 . S
C564 C565 1.395 . S
C564 C566 1.380 . S
C565 C564 1.395 . S
C565 C568 1.398 . S
C565 H580 0.930 . S
C566 C564 1.380 . S
C566 C567 1.391 . S
C566 H581 0.930 . S
C567 C566 1.391 . S
C567 C569 1.387 . S
C568 C565 1.398 . S
C568 C569 1.380 . S
C568 H582 0.930 . S
C569 C567 1.387 . S
C569 C568 1.380 . S
C569 H583 0.930 . S
C570 O550 1.254 . S
C570 O551 1.268 . S
C571 O555 1.284 . S
C571 O558 1.250 . S
C572 Gd505 2.828 . S
C572 O554 1.258 . S
C572 O559 1.252 . S
C572 C573 1.497 . S
C573 C572 1.497 . S
C573 C574 1.395 . S
C573 C575 1.380 . S
C574 C573 1.395 . S
C574 C577 1.398 . S
C574 H584 0.930 . S
C575 C573 1.380 . S
C575 C576 1.391 . S
C575 H585 0.930 . S
C576 C575 1.391 . S
C576 C578 1.387 . S
C577 C574 1.398 . S
C577 C578 1.380 . S
C577 H586 0.930 . S
C578 C576 1.387 . S
C578 C577 1.380 . S
C578 H587 0.930 . S
C579 O556 1.254 . S
C579 O557 1.268 . S
H580 C565 0.930 . S
H581 C566 0.930 . S
H582 C568 0.930 . S
H583 C569 0.930 . S
H584 C574 0.930 . S
H585 C575 0.930 . S
H586 C577 0.930 . S
H587 C578 0.930 . S
Gd588 N619 2.661 . S
Gd588 N625 2.601 . S
Gd588 O632 2.545 . S
Gd588 O633 2.606 . S
Gd588 O635 2.429 . S
Gd588 O636 2.545 . S
Gd588 O637 2.412 . S
Gd588 O639 2.362 . S
Gd588 O640 2.324 . S
Gd588 C647 2.828 . S
Gd589 N598 2.661 . S
Gd589 N602 2.601 . S
Gd589 O633 2.362 . S
Gd589 O634 2.324 . S
Gd589 O638 2.545 . S
Gd589 O639 2.606 . S
Gd589 O641 2.429 . S
Gd589 O642 2.545 . S
Gd589 O643 2.412 . S
Gd589 C656 2.828 . S
C590 C593 1.417 . S
C590 C595 1.431 . S
C590 C596 1.412 . S
C591 C594 1.437 . S
C591 C595 1.317 . S
C591 H610 0.929 . S
C592 C593 1.426 . S
C592 C594 1.413 . S
C592 N602 1.359 . S
C593 C590 1.417 . S
C593 C592 1.426 . S
C593 N598 1.350 . S
C594 C591 1.437 . S
C594 C592 1.413 . S
C594 C604 1.391 . S
C595 C590 1.431 . S
C595 C591 1.317 . S
C595 H606 0.930 . S
C596 C590 1.412 . S
C596 C597 1.355 . S
C596 H608 0.930 . S
C597 C596 1.355 . S
C597 C599 1.402 . S
C597 H609 0.930 . S
N598 Gd589 2.661 . S
N598 C593 1.350 . S
N598 C599 1.307 . S
C599 C597 1.402 . S
C599 N598 1.307 . S
C599 H600 0.930 . S
H600 C599 0.930 . S
C601 N602 1.334 . S
C601 C603 1.394 . S
C601 H605 0.930 . S
N602 Gd589 2.601 . S
N602 C592 1.359 . S
N602 C601 1.334 . S
C603 C601 1.394 . S
C603 C604 1.359 . S
C603 H615 0.930 . S
C604 C594 1.391 . S
C604 C603 1.359 . S
C604 H616 0.929 . S
H605 C601 0.930 . S
H606 C595 0.930 . S
H607 C624 0.930 . S
H608 C596 0.930 . S
H609 C597 0.930 . S
H610 C591 0.929 . S
H611 C629 0.930 . S
H612 C620 0.930 . S
H613 C621 0.930 . S
H614 C645 0.929 . S
H615 C603 0.930 . S
H616 C604 0.929 . S
H617 C646 0.930 . S
H618 C627 0.930 . S
N619 Gd588 2.661 . S
N619 C623 1.350 . S
N619 C624 1.307 . S
C620 H612 0.930 . S
C620 C621 1.355 . S
C620 C622 1.412 . S
C621 H613 0.930 . S
C621 C620 1.355 . S
C621 C624 1.402 . S
C622 C620 1.412 . S
C622 C623 1.417 . S
C622 C646 1.431 . S
C623 N619 1.350 . S
C623 C622 1.417 . S
C623 C626 1.426 . S
C624 H607 0.930 . S
C624 N619 1.307 . S
C624 C621 1.402 . S
N625 Gd588 2.601 . S
N625 C626 1.359 . S
N625 C629 1.334 . S
C626 C623 1.426 . S
C626 N625 1.359 . S
C626 C630 1.413 . S
C627 H618 0.930 . S
C627 C628 1.359 . S
C627 C629 1.394 . S
C628 C627 1.359 . S
C628 C630 1.391 . S
C628 H631 0.929 . S
C629 H611 0.930 . S
C629 N625 1.334 . S
C629 C627 1.394 . S
C630 C626 1.413 . S
C630 C628 1.391 . S
C630 C645 1.437 . S
H631 C628 0.929 . S
O632 Gd588 2.545 . S
O632 C647 1.258 . S
O633 Gd588 2.606 . S
O633 Gd589 2.362 . S
O633 C644 1.284 . S
O634 Gd589 2.324 . S
O634 C654 1.254 . S
O635 Gd588 2.429 . S
O635 C654 1.268 . S
O636 Gd588 2.545 . S
O636 C644 1.250 . S
O637 Gd588 2.412 . S
O637 C647 1.252 . S
O638 Gd589 2.545 . S
O638 C656 1.258 . S
O639 Gd588 2.362 . S
O639 Gd589 2.606 . S
O639 C655 1.284 . S
O640 Gd588 2.324 . S
O640 C663 1.254 . S
O641 Gd589 2.429 . S
O641 C663 1.268 . S
O642 Gd589 2.545 . S
O642 C655 1.250 . S
O643 Gd589 2.412 . S
O643 C656 1.252 . S
C644 O633 1.284 . S
C644 O636 1.250 . S
C645 H614 0.929 . S
C645 C630 1.437 . S
C645 C646 1.317 . S
C646 H617 0.930 . S
C646 C622 1.431 . S
C646 C645 1.317 . S
C647 Gd588 2.828 . S
C647 O632 1.258 . S
C647 O637 1.252 . S
C647 C648 1.497 . S
C648 C647 1.497 . S
C648 C649 1.395 . S
C648 C650 1.380 . S
C649 C648 1.395 . S
C649 C652 1.398 . S
C649 H664 0.930 . S
C650 C648 1.380 . S
C650 C651 1.391 . S
C650 H665 0.930 . S
C651 C650 1.391 . S
C651 C653 1.387 . S
C652 C649 1.398 . S
C652 C653 1.380 . S
C652 H666 0.930 . S
C653 C651 1.387 . S
C653 C652 1.380 . S
C653 H667 0.930 . S
C654 O634 1.254 . S
C654 O635 1.268 . S
C655 O639 1.284 . S
C655 O642 1.250 . S
C656 Gd589 2.828 . S
C656 O638 1.258 . S
C656 O643 1.252 . S
C656 C657 1.497 . S
C657 C656 1.497 . S
C657 C658 1.395 . S
C657 C659 1.380 . S
C658 C657 1.395 . S
C658 C661 1.398 . S
C658 H668 0.930 . S
C659 C657 1.380 . S
C659 C660 1.391 . S
C659 H669 0.930 . S
C660 C659 1.391 . S
C660 C662 1.387 . S
C661 C658 1.398 . S
C661 C662 1.380 . S
C661 H670 0.930 . S
C662 C660 1.387 . S
C662 C661 1.380 . S
C662 H671 0.930 . S
C663 O640 1.254 . S
C663 O641 1.268 . S
H664 C649 0.930 . S
H665 C650 0.930 . S
H666 C652 0.930 . S
H667 C653 0.930 . S
H668 C658 0.930 . S
H669 C659 0.930 . S
H670 C661 0.930 . S
H671 C662 0.930 . S
Cd672 N675 2.334 1_655 S
Cd672 N701 2.304 1_565 S
Cd672 O708 2.268 . S
Cd672 O711 2.273 1_665 S
Cd672 O712 2.417 . S
Cd672 O713 2.330 . S
Cd673 N688 2.304 . S
Cd673 N692 2.334 . S
Cd673 O709 2.273 1_445 S
Cd673 O710 2.268 . S
Cd673 O714 2.417 . S
Cd673 O715 2.330 . S
C674 N675 1.332 . S
C674 C678 1.381 . S
C674 H680 0.931 . S
N675 Cd672 2.334 1_455 S
N675 C674 1.332 . S
N675 C679 1.328 . S
C676 C677 1.396 . S
C676 C679 1.378 . S
C676 H718 0.931 . S
C677 C676 1.396 . S
C677 C678 1.382 . S
C678 C674 1.381 . S
C678 C677 1.382 . S
C678 H719 0.930 . S
C679 N675 1.328 . S
C679 C676 1.378 . S
C679 H681 0.930 . S
H680 C674 0.931 . S
H681 C679 0.930 . S
C682 O708 1.238 . S
C682 O709 1.253 . S
C683 C684 1.379 . S
C683 N688 1.337 1_655 S
C683 H689 0.929 . S
C684 C683 1.379 . S
C684 C685 1.380 . S
C684 H720 0.929 . S
C685 C684 1.380 . S
C685 C686 1.399 . S
C686 C685 1.399 . S
C686 C687 1.376 1_655 S
C686 H721 0.931 1_655 S
C687 C686 1.376 1_455 S
C687 N688 1.338 . S
C687 H690 0.930 . S
N688 Cd673 2.304 . S
N688 C683 1.337 1_455 S
N688 C687 1.338 . S
H689 C683 0.929 . S
H690 C687 0.930 . S
C691 N692 1.332 1_565 S
C691 C695 1.381 . S
C691 H697 0.931 . S
N692 Cd673 2.334 . S
N692 C691 1.332 1_545 S
N692 C696 1.328 . S
C693 C694 1.396 . S
C693 C696 1.378 1_565 S
C693 H722 0.931 1_565 S
C694 C693 1.396 . S
C694 C695 1.382 . S
C695 C691 1.381 . S
C695 C694 1.382 . S
C695 H723 0.930 . S
C696 N692 1.328 . S
C696 C693 1.378 1_545 S
C696 H698 0.930 . S
H697 C691 0.931 . S
H698 C696 0.930 . S
C699 O710 1.238 . S
C699 O711 1.253 . S
C700 O712 1.239 . S
C700 O713 1.230 . S
N701 Cd672 2.304 1_545 S
N701 C702 1.337 . S
N701 C706 1.338 . S
C702 N701 1.337 . S
C702 C703 1.379 . S
C702 H716 0.929 . S
C703 C702 1.379 . S
C703 C704 1.380 . S
C703 H724 0.929 . S
C704 C703 1.380 . S
C704 C705 1.399 . S
C705 C704 1.399 . S
C705 C706 1.376 . S
C705 H725 0.931 . S
C706 N701 1.338 . S
C706 C705 1.376 . S
C706 H717 0.930 . S
C707 O714 1.239 . S
C707 O715 1.230 . S
O708 Cd672 2.268 . S
O708 C682 1.238 . S
O709 Cd673 2.273 1_665 S
O709 C682 1.253 . S
O710 Cd673 2.268 . S
O710 C699 1.238 . S
O711 Cd672 2.273 1_445 S
O711 C699 1.253 . S
O712 Cd672 2.417 . S
O712 C700 1.239 . S
O713 Cd672 2.330 . S
O713 C700 1.230 . S
O714 Cd673 2.417 . S
O714 C707 1.239 . S
O715 Cd673 2.330 . S
O715 C707 1.230 . S
H716 C702 0.929 . S
H717 C706 0.930 . S
H718 C676 0.931 . S
H719 C678 0.930 . S
H720 C684 0.929 . S
H721 C686 0.931 1_455 S
H722 C693 0.931 1_545 S
H723 C695 0.930 . S
H724 C703 0.929 . S
H725 C705 0.931 . S
Cd726 N729 2.334 1_545 S
Cd726 N755 2.304 . S
Cd726 O762 2.268 1_544 S
Cd726 O765 2.273 . S
Cd726 O766 2.417 1_545 S
Cd726 O767 2.330 1_545 S
Cd727 N742 2.304 . S
Cd727 N746 2.334 . S
Cd727 O763 2.273 . S
Cd727 O764 2.268 1_556 S
Cd727 O768 2.417 . S
Cd727 O769 2.330 . S
C728 N729 1.332 . S
C728 C732 1.381 . S
C728 H734 0.931 1_565 S
N729 Cd726 2.334 1_565 S
N729 C728 1.332 . S
N729 C733 1.328 . S
C730 C731 1.396 . S
C730 C733 1.378 . S
C730 H772 0.931 1_554 S
C731 C730 1.396 . S
C731 C732 1.382 . S
C732 C728 1.381 . S
C732 C731 1.382 . S
C732 H773 0.930 . S
C733 N729 1.328 . S
C733 C730 1.378 . S
C733 H735 0.930 1_554 S
H734 C728 0.931 1_545 S
H735 C733 0.930 1_556 S
C736 O762 1.238 . S
C736 O763 1.253 1_565 S
C737 C738 1.379 . S
C737 N742 1.337 . S
C737 H743 0.929 . S
C738 C737 1.379 . S
C738 C739 1.380 . S
C738 H774 0.929 . S
C739 C738 1.380 . S
C739 C740 1.399 . S
C740 C739 1.399 . S
C740 C741 1.376 . S
C740 H775 0.931 1_556 S
C741 C740 1.376 . S
C741 N742 1.338 . S
C741 H744 0.930 1_556 S
N742 Cd727 2.304 . S
N742 C737 1.337 . S
N742 C741 1.338 . S
H743 C737 0.929 . S
H744 C741 0.930 1_554 S
C745 N746 1.332 1_565 S
C745 C749 1.381 . S
C745 H751 0.931 . S
N746 Cd727 2.334 . S
N746 C745 1.332 1_545 S
N746 C750 1.328 . S
C747 C748 1.396 1_545 S
C747 C750 1.378 . S
C747 H776 0.931 1_556 S
C748 C747 1.396 1_565 S
C748 C749 1.382 . S
C749 C745 1.381 . S
C749 C748 1.382 . S
C749 H777 0.930 . S
C750 N746 1.328 . S
C750 C747 1.378 . S
C750 H752 0.930 1_556 S
H751 C745 0.931 . S
H752 C750 0.930 1_554 S
C753 O764 1.238 . S
C753 O765 1.253 . S
C754 O766 1.239 . S
C754 O767 1.230 . S
N755 Cd726 2.304 . S
N755 C756 1.337 . S
N755 C760 1.338 . S
C756 N755 1.337 . S
C756 C757 1.379 . S
C756 H770 0.929 . S
C757 C756 1.379 . S
C757 C758 1.380 . S
C757 H778 0.929 . S
C758 C757 1.380 . S
C758 C759 1.399 . S
C759 C758 1.399 . S
C759 C760 1.376 . S
C759 H779 0.931 1_554 S
C760 N755 1.338 . S
C760 C759 1.376 . S
C760 H771 0.930 1_554 S
C761 O768 1.239 . S
C761 O769 1.230 . S
O762 Cd726 2.268 1_566 S
O762 C736 1.238 . S
O763 Cd727 2.273 . S
O763 C736 1.253 1_545 S
O764 Cd727 2.268 1_554 S
O764 C753 1.238 . S
O765 Cd726 2.273 . S
O765 C753 1.253 . S
O766 Cd726 2.417 1_565 S
O766 C754 1.239 . S
O767 Cd726 2.330 1_565 S
O767 C754 1.230 . S
O768 Cd727 2.417 . S
O768 C761 1.239 . S
O769 Cd727 2.330 . S
O769 C761 1.230 . S
H770 C756 0.929 . S
H771 C760 0.930 1_556 S
H772 C730 0.931 1_556 S
H773 C732 0.930 . S
H774 C738 0.929 . S
H775 C740 0.931 1_554 S
H776 C747 0.931 1_554 S
H777 C749 0.930 . S
H778 C757 0.929 . S
H779 C759 0.931 1_556 S
Cd780 N783 2.334 1_655 S
Cd780 N809 2.304 . S
Cd780 O816 2.268 . S
Cd780 O819 2.273 1_655 S
Cd780 O820 2.417 . S
Cd780 O821 2.330 . S
Cd781 N796 2.304 1_455 S
Cd781 N800 2.334 . S
Cd781 O817 2.273 1_454 S
Cd781 O818 2.268 . S
Cd781 O822 2.415 1_554 S
Cd781 O823 2.330 1_554 S
C782 N783 1.332 . S
C782 C786 1.381 . S
C782 H788 0.931 . S
N783 Cd780 2.334 1_455 S
N783 C782 1.332 . S
N783 C787 1.328 . S
C784 C785 1.396 . S
C784 C787 1.378 . S
C784 H826 0.931 . S
C785 C784 1.396 . S
C785 C786 1.382 . S
C786 C782 1.381 . S
C786 C785 1.382 . S
C786 H827 0.930 . S
C787 N783 1.328 . S
C787 C784 1.378 . S
C787 H789 0.930 1_455 S
H788 C782 0.931 . S
H789 C787 0.930 1_655 S
C790 O816 1.216 1_556 S
C790 O817 1.270 . S
C791 C792 1.379 . S
C791 N796 1.337 1_556 S
C791 H797 0.929 . S
C792 C791 1.379 . S
C792 C793 1.380 1_556 S
C792 H828 0.929 . S
C793 C792 1.380 1_554 S
C793 C794 1.399 . S
C794 C793 1.399 . S
C794 C795 1.376 1_655 S
C794 H829 0.931 . S
C795 C794 1.376 1_455 S
C795 N796 1.338 1_455 S
C795 H798 0.930 . S
N796 Cd781 2.304 1_655 S
N796 C791 1.337 1_554 S
N796 C795 1.338 1_655 S
H797 C791 0.929 . S
H798 C795 0.930 . S
C799 N800 1.332 1_556 S
C799 C803 1.381 . S
C799 H805 0.931 . S
N800 Cd781 2.334 . S
N800 C799 1.332 1_554 S
N800 C804 1.328 . S
C801 C802 1.396 . S
C801 C804 1.378 . S
C801 H830 0.931 . S
C802 C801 1.396 . S
C802 C803 1.382 1_554 S
C803 C799 1.381 . S
C803 C802 1.382 1_556 S
C803 H831 0.930 . S
C804 N800 1.328 . S
C804 C801 1.378 . S
C804 H806 0.930 . S
H805 C799 0.931 . S
H806 C804 0.930 . S
C807 O818 1.238 . S
C807 O819 1.253 . S
C808 O820 1.239 . S
C808 O821 1.230 . S
N809 Cd780 2.304 . S
N809 C810 1.337 . S
N809 C814 1.338 . S
C810 N809 1.337 . S
C810 C811 1.379 . S
C810 H824 0.929 . S
C811 C810 1.379 . S
C811 C812 1.380 . S
C811 H832 0.929 . S
C812 C811 1.380 . S
C812 C813 1.399 . S
C813 C812 1.399 . S
C813 C814 1.376 . S
C813 H833 0.931 . S
C814 N809 1.338 . S
C814 C813 1.376 . S
C814 H825 0.930 . S
C815 O822 1.243 . S
C815 O823 1.230 . S
O816 Cd780 2.268 . S
O816 C790 1.216 1_554 S
O817 Cd781 2.273 1_656 S
O817 C790 1.270 . S
O818 Cd781 2.268 . S
O818 C807 1.238 . S
O819 Cd780 2.273 1_455 S
O819 C807 1.253 . S
O820 Cd780 2.417 . S
O820 C808 1.239 . S
O821 Cd780 2.330 . S
O821 C808 1.230 . S
O822 Cd781 2.415 1_556 S
O822 C815 1.243 . S
O823 Cd781 2.330 1_556 S
O823 C815 1.230 . S
H824 C810 0.929 . S
H825 C814 0.930 . S
H826 C784 0.931 . S
H827 C786 0.930 . S
H828 C792 0.929 . S
H829 C794 0.931 . S
H830 C801 0.931 . S
H831 C803 0.930 . S
H832 C811 0.929 . S
H833 C813 0.931 . S
Cd834 N837 2.334 . S
Cd834 N863 2.304 . S
Cd834 O870 2.268 . S
Cd834 O873 2.273 . S
Cd834 O874 2.417 . S
Cd834 O875 2.330 . S
Cd835 N850 2.304 . S
Cd835 N854 2.334 . S
Cd835 O871 2.273 . S
Cd835 O872 2.268 1_556 S
Cd835 O876 2.417 . S
Cd835 O877 2.330 . S
C836 N837 1.332 . S
C836 C840 1.381 . S
C836 H842 0.931 . S
N837 Cd834 2.334 . S
N837 C836 1.332 . S
N837 C841 1.328 . S
C838 C839 1.396 . S
C838 C841 1.378 . S
C838 H880 0.931 . S
C839 C838 1.396 . S
C839 C840 1.382 . S
C840 C836 1.381 . S
C840 C839 1.382 . S
C840 H881 0.930 . S
C841 N837 1.328 . S
C841 C838 1.378 . S
C841 H843 0.930 . S
H842 C836 0.931 . S
H843 C841 0.930 . S
C844 O870 1.238 1_556 S
C844 O871 1.253 . S
C845 C846 1.379 . S
C845 N850 1.337 . S
C845 H851 0.929 . S
C846 C845 1.379 . S
C846 C847 1.380 . S
C846 H882 0.929 . S
C847 C846 1.380 . S
C847 C848 1.399 1_556 S
C848 C847 1.399 1_554 S
C848 C849 1.376 . S
C848 H883 0.931 . S
C849 C848 1.376 . S
C849 N850 1.338 1_554 S
C849 H852 0.930 . S
N850 Cd835 2.304 . S
N850 C845 1.337 . S
N850 C849 1.338 1_556 S
H851 C845 0.929 . S
H852 C849 0.930 . S
C853 N854 1.332 . S
C853 C857 1.381 . S
C853 H859 0.931 . S
N854 Cd835 2.334 . S
N854 C853 1.332 . S
N854 C858 1.328 1_556 S
C855 C856 1.396 1_554 S
C855 C858 1.378 . S
C855 H884 0.931 . S
C856 C855 1.396 1_556 S
C856 C857 1.382 . S
C857 C853 1.381 . S
C857 C856 1.382 . S
C857 H885 0.930 . S
C858 N854 1.328 1_554 S
C858 C855 1.378 . S
C858 H860 0.930 . S
H859 C853 0.931 . S
H860 C858 0.930 . S
C861 O872 1.238 . S
C861 O873 1.253 . S
C862 O874 1.239 . S
C862 O875 1.230 . S
N863 Cd834 2.304 . S
N863 C864 1.337 . S
N863 C868 1.338 . S
C864 N863 1.337 . S
C864 C865 1.379 . S
C864 H878 0.929 . S
C865 C864 1.379 . S
C865 C866 1.380 . S
C865 H886 0.929 . S
C866 C865 1.380 . S
C866 C867 1.399 . S
C867 C866 1.399 . S
C867 C868 1.376 . S
C867 H887 0.931 . S
C868 N863 1.338 . S
C868 C867 1.376 . S
C868 H879 0.930 . S
C869 O876 1.239 . S
C869 O877 1.230 . S
O870 Cd834 2.268 . S
O870 C844 1.238 1_554 S
O871 Cd835 2.273 . S
O871 C844 1.253 . S
O872 Cd835 2.268 1_554 S
O872 C861 1.238 . S
O873 Cd834 2.273 . S
O873 C861 1.253 . S
O874 Cd834 2.417 . S
O874 C862 1.239 . S
O875 Cd834 2.330 . S
O875 C862 1.230 . S
O876 Cd835 2.417 . S
O876 C869 1.239 . S
O877 Cd835 2.330 . S
O877 C869 1.230 . S
H878 C864 0.929 . S
H879 C868 0.930 . S
H880 C838 0.931 . S
H881 C840 0.930 . S
H882 C846 0.929 . S
H883 C848 0.931 . S
H884 C855 0.931 . S
H885 C857 0.930 . S
H886 C865 0.929 . S
H887 C867 0.931 . S
Cd888 N891 2.334 . S
Cd888 N917 2.304 1_455 S
Cd888 O924 2.268 1_455 S
Cd888 O927 2.273 . S
Cd888 O928 2.417 1_455 S
Cd888 O929 2.330 1_455 S
Cd889 N904 2.304 . S
Cd889 N908 2.334 . S
Cd889 O925 2.273 . S
Cd889 O926 2.268 . S
Cd889 O930 2.417 . S
Cd889 O931 2.330 . S
C890 N891 1.332 . S
C890 C894 1.381 . S
C890 H896 0.931 . S
N891 Cd888 2.334 . S
N891 C890 1.332 . S
N891 C895 1.328 . S
C892 C893 1.396 . S
C892 C895 1.378 . S
C892 H934 0.931 . S
C893 C892 1.396 . S
C893 C894 1.382 . S
C894 C890 1.381 . S
C894 C893 1.382 . S
C894 H935 0.930 . S
C895 N891 1.328 . S
C895 C892 1.378 . S
C895 H897 0.930 . S
H896 C890 0.931 . S
H897 C895 0.930 . S
C898 O924 1.238 . S
C898 O925 1.253 1_655 S
C899 C900 1.379 . S
C899 N904 1.337 1_655 S
C899 H905 0.929 . S
C900 C899 1.379 . S
C900 C901 1.380 . S
C900 H936 0.929 . S
C901 C900 1.380 . S
C901 C902 1.399 1_655 S
C902 C901 1.399 1_455 S
C902 C903 1.376 . S
C902 H937 0.931 . S
C903 C902 1.376 . S
C903 N904 1.338 . S
C903 H906 0.930 . S
N904 Cd889 2.304 . S
N904 C899 1.337 1_455 S
N904 C903 1.338 . S
H905 C899 0.929 . S
H906 C903 0.930 . S
C907 N908 1.332 . S
C907 C911 1.381 . S
C907 H913 0.931 . S
N908 Cd889 2.334 . S
N908 C907 1.332 . S
N908 C912 1.328 . S
C909 C910 1.396 . S
C909 C912 1.378 . S
C909 H938 0.931 . S
C910 C909 1.396 . S
C910 C911 1.382 . S
C911 C907 1.381 . S
C911 C910 1.382 . S
C911 H939 0.930 . S
C912 N908 1.328 . S
C912 C909 1.378 . S
C912 H914 0.930 . S
H913 C907 0.931 . S
H914 C912 0.930 . S
C915 O926 1.238 . S
C915 O927 1.253 . S
C916 O928 1.239 . S
C916 O929 1.230 . S
N917 Cd888 2.304 1_655 S
N917 C918 1.337 . S
N917 C922 1.338 . S
C918 N917 1.337 . S
C918 C919 1.379 . S
C918 H932 0.929 1_655 S
C919 C918 1.379 . S
C919 C920 1.380 . S
C919 H940 0.929 . S
C920 C919 1.380 . S
C920 C921 1.399 . S
C921 C920 1.399 . S
C921 C922 1.376 . S
C921 H941 0.931 . S
C922 N917 1.338 . S
C922 C921 1.376 . S
C922 H933 0.930 . S
C923 O930 1.239 . S
C923 O931 1.230 . S
O924 Cd888 2.268 1_655 S
O924 C898 1.238 . S
O925 Cd889 2.273 . S
O925 C898 1.253 1_455 S
O926 Cd889 2.268 . S
O926 C915 1.238 . S
O927 Cd888 2.273 . S
O927 C915 1.253 . S
O928 Cd888 2.417 1_655 S
O928 C916 1.239 . S
O929 Cd888 2.330 1_655 S
O929 C916 1.230 . S
O930 Cd889 2.417 . S
O930 C923 1.239 . S
O931 Cd889 2.330 . S
O931 C923 1.230 . S
H932 C918 0.929 1_455 S
H933 C922 0.930 . S
H934 C892 0.931 . S
H935 C894 0.930 . S
H936 C900 0.929 . S
H937 C902 0.931 . S
H938 C909 0.931 . S
H939 C911 0.930 . S
H940 C919 0.929 . S
H941 C921 0.931 . S
Cd942 N945 2.334 . S
Cd942 N971 2.304 1_565 S
Cd942 O978 2.268 . S
Cd942 O981 2.273 1_565 S
Cd942 O982 2.417 . S
Cd942 O983 2.330 . S
Cd943 N958 2.304 . S
Cd943 N962 2.334 1_545 S
Cd943 O979 2.273 1_545 S
Cd943 O980 2.268 . S
Cd943 O984 2.417 . S
Cd943 O985 2.330 . S
C944 N945 1.332 . S
C944 C948 1.381 . S
C944 H950 0.931 . S
N945 Cd942 2.334 . S
N945 C944 1.332 . S
N945 C949 1.328 . S
C946 C947 1.396 . S
C946 C949 1.378 . S
C946 H988 0.931 . S
C947 C946 1.396 . S
C947 C948 1.382 . S
C948 C944 1.381 . S
C948 C947 1.382 . S
C948 H989 0.930 . S
C949 N945 1.328 . S
C949 C946 1.378 . S
C949 H951 0.930 . S
H950 C944 0.931 . S
H951 C949 0.930 . S
C952 O978 1.238 . S
C952 O979 1.253 . S
C953 C954 1.379 . S
C953 N958 1.337 . S
C953 H959 0.929 . S
C954 C953 1.379 . S
C954 C955 1.380 . S
C954 H990 0.929 . S
C955 C954 1.380 . S
C955 C956 1.399 . S
C956 C955 1.399 . S
C956 C957 1.376 . S
C956 H991 0.931 . S
C957 C956 1.376 . S
C957 N958 1.338 . S
C957 H960 0.930 . S
N958 Cd943 2.304 . S
N958 C953 1.337 . S
N958 C957 1.338 . S
H959 C953 0.929 . S
H960 C957 0.930 . S
C961 N962 1.332 . S
C961 C965 1.381 . S
C961 H967 0.931 . S
N962 Cd943 2.334 1_565 S
N962 C961 1.332 . S
N962 C966 1.328 1_565 S
C963 C964 1.396 . S
C963 C966 1.378 1_565 S
C963 H992 0.931 . S
C964 C963 1.396 . S
C964 C965 1.382 . S
C965 C961 1.381 . S
C965 C964 1.382 . S
C965 H993 0.930 . S
C966 N962 1.328 1_545 S
C966 C963 1.378 1_545 S
C966 H968 0.930 . S
H967 C961 0.931 . S
H968 C966 0.930 . S
C969 O980 1.238 . S
C969 O981 1.253 . S
C970 O982 1.239 . S
C970 O983 1.230 . S
N971 Cd942 2.304 1_545 S
N971 C972 1.337 . S
N971 C976 1.338 . S
C972 N971 1.337 . S
C972 C973 1.379 . S
C972 H986 0.929 . S
C973 C972 1.379 . S
C973 C974 1.380 . S
C973 H994 0.929 . S
C974 C973 1.380 . S
C974 C975 1.399 . S
C975 C974 1.399 . S
C975 C976 1.376 . S
C975 H995 0.931 . S
C976 N971 1.338 . S
C976 C975 1.376 . S
C976 H987 0.930 1_545 S
C977 O984 1.239 . S
C977 O985 1.230 . S
O978 Cd942 2.268 . S
O978 C952 1.238 . S
O979 Cd943 2.273 1_565 S
O979 C952 1.253 . S
O980 Cd943 2.268 . S
O980 C969 1.238 . S
O981 Cd942 2.273 1_545 S
O981 C969 1.253 . S
O982 Cd942 2.417 . S
O982 C970 1.239 . S
O983 Cd942 2.330 . S
O983 C970 1.230 . S
O984 Cd943 2.417 . S
O984 C977 1.239 . S
O985 Cd943 2.330 . S
O985 C977 1.230 . S
H986 C972 0.929 . S
H987 C976 0.930 1_565 S
H988 C946 0.931 . S
H989 C948 0.930 . S
H990 C954 0.929 . S
H991 C956 0.931 . S
H992 C963 0.931 . S
H993 C965 0.930 . S
H994 C973 0.929 . S
H995 C975 0.931 . S
H996 C1004 0.950 . S
H997 C1009 0.950 . S
H998 C1006 0.950 . S
H999 C1008 0.950 . S
H1000 C1010 0.950 . S
H1001 C1012 0.950 . S
H1002 C1014 0.950 . S
H1003 C1015 0.950 . S
C1004 H996 0.950 . S
C1004 C1005 1.386 . S
C1004 C1006 1.391 . S
C1005 C1004 1.386 . S
C1005 C1009 1.393 . S
C1006 H998 0.950 . S
C1006 C1004 1.391 . S
C1006 C1007 1.400 . S
C1007 C1006 1.400 . S
C1007 C1008 1.398 . S
C1007 C1013 1.491 . S
C1008 H999 0.950 . S
C1008 C1007 1.398 . S
C1008 C1009 1.391 . S
C1009 H997 0.950 . S
C1009 C1005 1.393 . S
C1009 C1008 1.391 . S
C1010 H1000 0.950 . S
C1010 C1011 1.386 . S
C1010 C1012 1.391 . S
C1011 C1010 1.386 . S
C1011 C1015 1.393 . S
C1012 H1001 0.950 . S
C1012 C1010 1.391 . S
C1012 C1013 1.400 . S
C1013 C1007 1.491 . S
C1013 C1012 1.400 . S
C1013 C1014 1.398 . S
C1014 H1002 0.950 . S
C1014 C1013 1.398 . S
C1014 C1015 1.391 . S
C1015 H1003 0.950 . S
C1015 C1011 1.393 . S
C1015 C1014 1.391 . S
H1016 C1024 0.950 . S
H1017 C1029 0.950 . S
H1018 C1026 0.950 . S
H1019 C1028 0.950 . S
H1020 C1030 0.950 . S
H1021 C1032 0.950 . S
H1022 C1034 0.950 . S
H1023 C1035 0.950 . S
C1024 H1016 0.950 . S
C1024 C1025 1.386 . S
C1024 C1026 1.391 . S
C1025 C1024 1.386 . S
C1025 C1029 1.393 . S
C1026 H1018 0.950 . S
C1026 C1024 1.391 . S
C1026 C1027 1.400 . S
C1027 C1026 1.400 . S
C1027 C1028 1.398 . S
C1027 C1033 1.491 . S
C1028 H1019 0.950 . S
C1028 C1027 1.398 . S
C1028 C1029 1.391 . S
C1029 H1017 0.950 . S
C1029 C1025 1.393 . S
C1029 C1028 1.391 . S
C1030 H1020 0.950 . S
C1030 C1031 1.386 . S
C1030 C1032 1.391 . S
C1031 C1030 1.386 . S
C1031 C1035 1.393 . S
C1032 H1021 0.950 . S
C1032 C1030 1.391 . S
C1032 C1033 1.400 . S
C1033 C1027 1.491 . S
C1033 C1032 1.400 . S
C1033 C1034 1.398 . S
C1034 H1022 0.950 . S
C1034 C1033 1.398 . S
C1034 C1035 1.391 . S
C1035 H1023 0.950 . S
C1035 C1031 1.393 . S
C1035 C1034 1.391 . S
H1036 C1044 0.950 . S
H1037 C1049 0.950 . S
H1038 C1046 0.950 . S
H1039 C1048 0.950 . S
H1040 C1050 0.950 . S
H1041 C1052 0.950 . S
H1042 C1054 0.950 . S
H1043 C1055 0.950 . S
C1044 H1036 0.950 . S
C1044 C1045 1.386 . S
C1044 C1046 1.391 . S
C1045 C1044 1.386 . S
C1045 C1049 1.393 . S
C1046 H1038 0.950 . S
C1046 C1044 1.391 . S
C1046 C1047 1.400 . S
C1047 C1046 1.400 . S
C1047 C1048 1.398 . S
C1047 C1053 1.491 . S
C1048 H1039 0.950 . S
C1048 C1047 1.398 . S
C1048 C1049 1.391 . S
C1049 H1037 0.950 . S
C1049 C1045 1.393 . S
C1049 C1048 1.391 . S
C1050 H1040 0.950 . S
C1050 C1051 1.386 . S
C1050 C1052 1.391 . S
C1051 C1050 1.386 . S
C1051 C1055 1.393 . S
C1052 H1041 0.950 . S
C1052 C1050 1.391 . S
C1052 C1053 1.400 . S
C1053 C1047 1.491 . S
C1053 C1052 1.400 . S
C1053 C1054 1.398 . S
C1054 H1042 0.950 . S
C1054 C1053 1.398 . S
C1054 C1055 1.391 . S
C1055 H1043 0.950 . S
C1055 C1051 1.393 . S
C1055 C1054 1.391 . S
H1056 C1064 0.950 . S
H1057 C1069 0.950 . S
H1058 C1066 0.950 . S
H1059 C1068 0.950 . S
H1060 C1070 0.950 . S
H1061 C1072 0.950 . S
H1062 C1074 0.950 . S
H1063 C1075 0.950 . S
C1064 H1056 0.950 . S
C1064 C1065 1.386 . S
C1064 C1066 1.391 . S
C1065 C1064 1.386 . S
C1065 C1069 1.393 . S
C1066 H1058 0.950 . S
C1066 C1064 1.391 . S
C1066 C1067 1.400 . S
C1067 C1066 1.400 . S
C1067 C1068 1.398 . S
C1067 C1073 1.491 . S
C1068 H1059 0.950 . S
C1068 C1067 1.398 . S
C1068 C1069 1.391 . S
C1069 H1057 0.950 . S
C1069 C1065 1.393 . S
C1069 C1068 1.391 . S
C1070 H1060 0.950 . S
C1070 C1071 1.386 . S
C1070 C1072 1.391 . S
C1071 C1070 1.386 . S
C1071 C1075 1.393 . S
C1072 H1061 0.950 . S
C1072 C1070 1.391 . S
C1072 C1073 1.400 . S
C1073 C1067 1.491 . S
C1073 C1072 1.400 . S
C1073 C1074 1.398 . S
C1074 H1062 0.950 . S
C1074 C1073 1.398 . S
C1074 C1075 1.391 . S
C1075 H1063 0.950 . S
C1075 C1071 1.393 . S
C1075 C1074 1.391 . S
H1076 C1084 0.950 . S
H1077 C1089 0.950 . S
H1078 C1086 0.950 . S
H1079 C1088 0.950 . S
H1080 C1090 0.950 . S
H1081 C1092 0.950 . S
H1082 C1094 0.950 . S
H1083 C1095 0.950 . S
C1084 H1076 0.950 . S
C1084 C1085 1.386 . S
C1084 C1086 1.391 . S
C1085 C1084 1.386 . S
C1085 C1089 1.393 . S
C1086 H1078 0.950 . S
C1086 C1084 1.391 . S
C1086 C1087 1.400 . S
C1087 C1086 1.400 . S
C1087 C1088 1.398 . S
C1087 C1093 1.491 . S
C1088 H1079 0.950 . S
C1088 C1087 1.398 . S
C1088 C1089 1.391 . S
C1089 H1077 0.950 . S
C1089 C1085 1.393 . S
C1089 C1088 1.391 . S
C1090 H1080 0.950 . S
C1090 C1091 1.386 . S
C1090 C1092 1.391 . S
C1091 C1090 1.386 . S
C1091 C1095 1.393 . S
C1092 H1081 0.950 . S
C1092 C1090 1.391 . S
C1092 C1093 1.400 . S
C1093 C1087 1.491 . S
C1093 C1092 1.400 . S
C1093 C1094 1.398 . S
C1094 H1082 0.950 . S
C1094 C1093 1.398 . S
C1094 C1095 1.391 . S
C1095 H1083 0.950 . S
C1095 C1091 1.393 . S
C1095 C1094 1.391 . S
H1096 C1104 0.950 . S
H1097 C1109 0.950 . S
H1098 C1106 0.950 . S
H1099 C1108 0.950 . S
H1100 C1110 0.950 . S
H1101 C1112 0.950 . S
H1102 C1114 0.950 . S
H1103 C1115 0.950 . S
C1104 H1096 0.950 . S
C1104 C1105 1.386 . S
C1104 C1106 1.391 . S
C1105 C1104 1.386 . S
C1105 C1109 1.393 . S
C1106 H1098 0.950 . S
C1106 C1104 1.391 . S
C1106 C1107 1.400 . S
C1107 C1106 1.400 . S
C1107 C1108 1.398 . S
C1107 C1113 1.491 . S
C1108 H1099 0.950 . S
C1108 C1107 1.398 . S
C1108 C1109 1.391 . S
C1109 H1097 0.950 . S
C1109 C1105 1.393 . S
C1109 C1108 1.391 . S
C1110 H1100 0.950 . S
C1110 C1111 1.386 . S
C1110 C1112 1.391 . S
C1111 C1110 1.386 . S
C1111 C1115 1.393 . S
C1112 H1101 0.950 . S
C1112 C1110 1.391 . S
C1112 C1113 1.400 . S
C1113 C1107 1.491 . S
C1113 C1112 1.400 . S
C1113 C1114 1.398 . S
C1114 H1102 0.950 . S
C1114 C1113 1.398 . S
C1114 C1115 1.391 . S
C1115 H1103 0.950 . S
C1115 C1111 1.393 . S
C1115 C1114 1.391 . S
H1116 C1124 0.950 . S
H1117 C1129 0.950 . S
H1118 C1126 0.950 . S
H1119 C1128 0.950 . S
H1120 C1130 0.950 . S
H1121 C1132 0.950 . S
H1122 C1134 0.950 . S
H1123 C1135 0.950 . S
C1124 H1116 0.950 . S
C1124 C1125 1.386 . S
C1124 C1126 1.391 . S
C1125 C1124 1.386 . S
C1125 C1129 1.393 . S
C1126 H1118 0.950 . S
C1126 C1124 1.391 . S
C1126 C1127 1.400 . S
C1127 C1126 1.400 . S
C1127 C1128 1.398 . S
C1127 C1133 1.491 . S
C1128 H1119 0.950 . S
C1128 C1127 1.398 . S
C1128 C1129 1.391 . S
C1129 H1117 0.950 . S
C1129 C1125 1.393 . S
C1129 C1128 1.391 . S
C1130 H1120 0.950 . S
C1130 C1131 1.386 . S
C1130 C1132 1.391 . S
C1131 C1130 1.386 . S
C1131 C1135 1.393 . S
C1132 H1121 0.950 . S
C1132 C1130 1.391 . S
C1132 C1133 1.400 . S
C1133 C1127 1.491 . S
C1133 C1132 1.400 . S
C1133 C1134 1.398 . S
C1134 H1122 0.950 . S
C1134 C1133 1.398 . S
C1134 C1135 1.391 . S
C1135 H1123 0.950 . S
C1135 C1131 1.393 . S
C1135 C1134 1.391 . S
H1136 C1144 0.950 . S
H1137 C1149 0.950 . S
H1138 C1146 0.950 . S
H1139 C1148 0.950 . S
H1140 C1150 0.950 . S
H1141 C1152 0.950 . S
H1142 C1154 0.950 . S
H1143 C1155 0.950 . S
C1144 H1136 0.950 . S
C1144 C1145 1.386 . S
C1144 C1146 1.391 . S
C1145 C1144 1.386 . S
C1145 C1149 1.393 . S
C1146 H1138 0.950 . S
C1146 C1144 1.391 . S
C1146 C1147 1.400 . S
C1147 C1146 1.400 . S
C1147 C1148 1.398 . S
C1147 C1153 1.491 . S
C1148 H1139 0.950 . S
C1148 C1147 1.398 . S
C1148 C1149 1.391 . S
C1149 H1137 0.950 . S
C1149 C1145 1.393 . S
C1149 C1148 1.391 . S
C1150 H1140 0.950 . S
C1150 C1151 1.386 . S
C1150 C1152 1.391 . S
C1151 C1150 1.386 . S
C1151 C1155 1.393 . S
C1152 H1141 0.950 . S
C1152 C1150 1.391 . S
C1152 C1153 1.400 . S
C1153 C1147 1.491 . S
C1153 C1152 1.400 . S
C1153 C1154 1.398 . S
C1154 H1142 0.950 . S
C1154 C1153 1.398 . S
C1154 C1155 1.391 . S
C1155 H1143 0.950 . S
C1155 C1151 1.393 . S
C1155 C1154 1.391 . S
H1156 C1164 0.950 . S
H1157 C1169 0.950 . S
H1158 C1166 0.950 . S
H1159 C1168 0.950 . S
H1160 C1170 0.950 . S
H1161 C1172 0.950 . S
H1162 C1174 0.950 . S
H1163 C1175 0.950 . S
C1164 H1156 0.950 . S
C1164 C1165 1.386 . S
C1164 C1166 1.391 . S
C1165 C1164 1.386 . S
C1165 C1169 1.393 . S
C1166 H1158 0.950 . S
C1166 C1164 1.391 . S
C1166 C1167 1.400 . S
C1167 C1166 1.400 . S
C1167 C1168 1.398 . S
C1167 C1173 1.491 . S
C1168 H1159 0.950 . S
C1168 C1167 1.398 . S
C1168 C1169 1.391 . S
C1169 H1157 0.950 . S
C1169 C1165 1.393 . S
C1169 C1168 1.391 . S
C1170 H1160 0.950 . S
C1170 C1171 1.386 . S
C1170 C1172 1.391 . S
C1171 C1170 1.386 . S
C1171 C1175 1.393 . S
C1172 H1161 0.950 . S
C1172 C1170 1.391 . S
C1172 C1173 1.400 . S
C1173 C1167 1.491 . S
C1173 C1172 1.400 . S
C1173 C1174 1.398 . S
C1174 H1162 0.950 . S
C1174 C1173 1.398 . S
C1174 C1175 1.391 . S
C1175 H1163 0.950 . S
C1175 C1171 1.393 . S
C1175 C1174 1.391 . S
H1176 C1184 0.950 . S
H1177 C1189 0.950 . S
H1178 C1186 0.950 . S
H1179 C1188 0.950 . S
H1180 C1190 0.950 . S
H1181 C1192 0.950 . S
H1182 C1194 0.950 . S
H1183 C1195 0.950 . S
C1184 H1176 0.950 . S
C1184 C1185 1.386 . S
C1184 C1186 1.391 . S
C1185 C1184 1.386 . S
C1185 C1189 1.393 . S
C1186 H1178 0.950 . S
C1186 C1184 1.391 . S
C1186 C1187 1.400 . S
C1187 C1186 1.400 . S
C1187 C1188 1.398 . S
C1187 C1193 1.491 . S
C1188 H1179 0.950 . S
C1188 C1187 1.398 . S
C1188 C1189 1.391 . S
C1189 H1177 0.950 . S
C1189 C1185 1.393 . S
C1189 C1188 1.391 . S
C1190 H1180 0.950 . S
C1190 C1191 1.386 . S
C1190 C1192 1.391 . S
C1191 C1190 1.386 . S
C1191 C1195 1.393 . S
C1192 H1181 0.950 . S
C1192 C1190 1.391 . S
C1192 C1193 1.400 . S
C1193 C1187 1.491 . S
C1193 C1192 1.400 . S
C1193 C1194 1.398 . S
C1194 H1182 0.950 . S
C1194 C1193 1.398 . S
C1194 C1195 1.391 . S
C1195 H1183 0.950 . S
C1195 C1191 1.393 . S
C1195 C1194 1.391 . S
H1196 C1204 0.950 . S
H1197 C1209 0.950 . S
H1198 C1206 0.950 . S
H1199 C1208 0.950 . S
H1200 C1210 0.950 . S
H1201 C1212 0.950 . S
H1202 C1214 0.950 . S
H1203 C1215 0.950 . S
C1204 H1196 0.950 . S
C1204 C1205 1.386 . S
C1204 C1206 1.391 . S
C1205 C1204 1.386 . S
C1205 C1209 1.393 . S
C1206 H1198 0.950 . S
C1206 C1204 1.391 . S
C1206 C1207 1.400 . S
C1207 C1206 1.400 . S
C1207 C1208 1.398 . S
C1207 C1213 1.491 . S
C1208 H1199 0.950 . S
C1208 C1207 1.398 . S
C1208 C1209 1.391 . S
C1209 H1197 0.950 . S
C1209 C1205 1.393 . S
C1209 C1208 1.391 . S
C1210 H1200 0.950 . S
C1210 C1211 1.386 . S
C1210 C1212 1.391 . S
C1211 C1210 1.386 . S
C1211 C1215 1.393 . S
C1212 H1201 0.950 . S
C1212 C1210 1.391 . S
C1212 C1213 1.400 . S
C1213 C1207 1.491 . S
C1213 C1212 1.400 . S
C1213 C1214 1.398 . S
C1214 H1202 0.950 . S
C1214 C1213 1.398 . S
C1214 C1215 1.391 . S
C1215 H1203 0.950 . S
C1215 C1211 1.393 . S
C1215 C1214 1.391 . S
H1216 C1224 0.950 . S
H1217 C1229 0.950 . S
H1218 C1226 0.950 . S
H1219 C1228 0.950 . S
H1220 C1230 0.950 . S
H1221 C1232 0.950 . S
H1222 C1234 0.950 . S
H1223 C1235 0.950 . S
C1224 H1216 0.950 . S
C1224 C1225 1.386 . S
C1224 C1226 1.391 . S
C1225 C1224 1.386 . S
C1225 C1229 1.393 . S
C1226 H1218 0.950 . S
C1226 C1224 1.391 . S
C1226 C1227 1.400 . S
C1227 C1226 1.400 . S
C1227 C1228 1.398 . S
C1227 C1233 1.491 . S
C1228 H1219 0.950 . S
C1228 C1227 1.398 . S
C1228 C1229 1.391 . S
C1229 H1217 0.950 . S
C1229 C1225 1.393 . S
C1229 C1228 1.391 . S
C1230 H1220 0.950 . S
C1230 C1231 1.386 . S
C1230 C1232 1.391 . S
C1231 C1230 1.386 . S
C1231 C1235 1.393 . S
C1232 H1221 0.950 . S
C1232 C1230 1.391 . S
C1232 C1233 1.400 . S
C1233 C1227 1.491 . S
C1233 C1232 1.400 . S
C1233 C1234 1.398 . S
C1234 H1222 0.950 . S
C1234 C1233 1.398 . S
C1234 C1235 1.391 . S
C1235 H1223 0.950 . S
C1235 C1231 1.393 . S
C1235 C1234 1.391 . S
H1236 C1244 0.950 . S
H1237 C1249 0.950 . S
H1238 C1246 0.950 . S
H1239 C1248 0.950 . S
H1240 C1250 0.950 . S
H1241 C1252 0.950 . S
H1242 C1254 0.950 . S
H1243 C1255 0.950 . S
C1244 H1236 0.950 . S
C1244 C1245 1.386 . S
C1244 C1246 1.391 . S
C1245 C1244 1.386 . S
C1245 C1249 1.393 . S
C1246 H1238 0.950 . S
C1246 C1244 1.391 . S
C1246 C1247 1.400 . S
C1247 C1246 1.400 . S
C1247 C1248 1.398 . S
C1247 C1253 1.491 . S
C1248 H1239 0.950 . S
C1248 C1247 1.398 . S
C1248 C1249 1.391 . S
C1249 H1237 0.950 . S
C1249 C1245 1.393 . S
C1249 C1248 1.391 . S
C1250 H1240 0.950 . S
C1250 C1251 1.386 . S
C1250 C1252 1.391 . S
C1251 C1250 1.386 . S
C1251 C1255 1.393 . S
C1252 H1241 0.950 . S
C1252 C1250 1.391 . S
C1252 C1253 1.400 . S
C1253 C1247 1.491 . S
C1253 C1252 1.400 . S
C1253 C1254 1.398 . S
C1254 H1242 0.950 . S
C1254 C1253 1.398 . S
C1254 C1255 1.391 . S
C1255 H1243 0.950 . S
C1255 C1251 1.393 . S
C1255 C1254 1.391 . S
H1256 C1264 0.950 . S
H1257 C1269 0.950 . S
H1258 C1266 0.950 . S
H1259 C1268 0.950 . S
H1260 C1270 0.950 . S
H1261 C1272 0.950 . S
H1262 C1274 0.952 . S
H1263 C1275 0.950 . S
C1264 H1256 0.950 . S
C1264 C1265 1.386 . S
C1264 C1266 1.391 . S
C1265 C1264 1.386 . S
C1265 C1269 1.393 . S
C1266 H1258 0.950 . S
C1266 C1264 1.391 . S
C1266 C1267 1.400 . S
C1267 C1266 1.400 . S
C1267 C1268 1.398 . S
C1267 C1273 1.491 . S
C1268 H1259 0.950 . S
C1268 C1267 1.398 . S
C1268 C1269 1.391 . S
C1269 H1257 0.950 . S
C1269 C1265 1.393 . S
C1269 C1268 1.391 . S
C1270 H1260 0.950 . S
C1270 C1271 1.386 1_556 S
C1270 C1272 1.391 . S
C1271 C1270 1.386 1_554 S
C1271 C1275 1.393 . S
C1272 H1261 0.950 . S
C1272 C1270 1.391 . S
C1272 C1273 1.400 . S
C1273 C1267 1.491 . S
C1273 C1272 1.400 . S
C1273 C1274 1.398 . S
C1274 H1262 0.952 . S
C1274 C1273 1.398 . S
C1274 C1275 1.391 1_556 S
C1275 H1263 0.950 . S
C1275 C1271 1.393 . S
C1275 C1274 1.391 1_554 S
H1276 C1284 0.950 . S
H1277 C1289 0.950 . S
H1278 C1286 0.950 . S
H1279 C1288 0.950 . S
H1280 C1290 0.950 . S
H1281 C1292 0.950 . S
H1282 C1294 0.950 . S
H1283 C1295 0.950 . S
C1284 H1276 0.950 . S
C1284 C1285 1.386 . S
C1284 C1286 1.391 . S
C1285 C1284 1.386 . S
C1285 C1289 1.393 . S
C1286 H1278 0.950 . S
C1286 C1284 1.391 . S
C1286 C1287 1.400 . S
C1287 C1286 1.400 . S
C1287 C1288 1.398 . S
C1287 C1293 1.491 . S
C1288 H1279 0.950 . S
C1288 C1287 1.398 . S
C1288 C1289 1.391 . S
C1289 H1277 0.950 . S
C1289 C1285 1.393 . S
C1289 C1288 1.391 . S
C1290 H1280 0.950 . S
C1290 C1291 1.386 . S
C1290 C1292 1.391 . S
C1291 C1290 1.386 . S
C1291 C1295 1.393 . S
C1292 H1281 0.950 . S
C1292 C1290 1.391 . S
C1292 C1293 1.400 . S
C1293 C1287 1.491 . S
C1293 C1292 1.400 . S
C1293 C1294 1.398 . S
C1294 H1282 0.950 . S
C1294 C1293 1.398 . S
C1294 C1295 1.391 . S
C1295 H1283 0.950 . S
C1295 C1291 1.393 . S
C1295 C1294 1.391 . S
H1296 C1304 0.950 . S
H1297 C1309 0.950 . S
H1298 C1306 0.950 . S
H1299 C1308 0.950 . S
H1300 C1310 0.950 1_554 S
H1301 C1312 0.950 . S
H1302 C1314 0.950 . S
H1303 C1315 0.950 . S
C1304 H1296 0.950 . S
C1304 C1305 1.386 . S
C1304 C1306 1.391 . S
C1305 C1304 1.386 . S
C1305 C1309 1.393 . S
C1306 H1298 0.950 . S
C1306 C1304 1.391 . S
C1306 C1307 1.400 . S
C1307 C1306 1.400 . S
C1307 C1308 1.398 . S
C1307 C1313 1.491 . S
C1308 H1299 0.950 . S
C1308 C1307 1.398 . S
C1308 C1309 1.391 . S
C1309 H1297 0.950 . S
C1309 C1305 1.393 . S
C1309 C1308 1.391 . S
C1310 H1300 0.950 1_556 S
C1310 C1311 1.386 . S
C1310 C1312 1.391 . S
C1311 C1310 1.386 . S
C1311 C1315 1.393 . S
C1312 H1301 0.950 . S
C1312 C1310 1.391 . S
C1312 C1313 1.400 . S
C1313 C1307 1.491 . S
C1313 C1312 1.400 . S
C1313 C1314 1.398 . S
C1314 H1302 0.950 . S
C1314 C1313 1.398 . S
C1314 C1315 1.391 . S
C1315 H1303 0.950 . S
C1315 C1311 1.393 . S
C1315 C1314 1.391 . S
H1316 C1324 0.950 . S
H1317 C1329 0.950 . S
H1318 C1326 0.950 . S
H1319 C1328 0.950 . S
H1320 C1330 0.950 . S
H1321 C1332 0.950 . S
H1322 C1334 0.950 . S
H1323 C1335 0.950 . S
C1324 H1316 0.950 . S
C1324 C1325 1.386 . S
C1324 C1326 1.391 . S
C1325 C1324 1.386 . S
C1325 C1329 1.393 . S
C1326 H1318 0.950 . S
C1326 C1324 1.391 . S
C1326 C1327 1.400 . S
C1327 C1326 1.400 . S
C1327 C1328 1.398 . S
C1327 C1333 1.491 . S
C1328 H1319 0.950 . S
C1328 C1327 1.398 . S
C1328 C1329 1.391 . S
C1329 H1317 0.950 . S
C1329 C1325 1.393 . S
C1329 C1328 1.391 . S
C1330 H1320 0.950 . S
C1330 C1331 1.386 . S
C1330 C1332 1.391 . S
C1331 C1330 1.386 . S
C1331 C1335 1.393 . S
C1332 H1321 0.950 . S
C1332 C1330 1.391 . S
C1332 C1333 1.400 . S
C1333 C1327 1.491 . S
C1333 C1332 1.400 . S
C1333 C1334 1.398 . S
C1334 H1322 0.950 . S
C1334 C1333 1.398 . S
C1334 C1335 1.391 . S
C1335 H1323 0.950 . S
C1335 C1331 1.393 . S
C1335 C1334 1.391 . S
H1336 C1344 0.950 . S
H1337 C1349 0.950 . S
H1338 C1346 0.950 . S
H1339 C1348 0.950 . S
H1340 C1350 0.950 . S
H1341 C1352 0.950 . S
H1342 C1354 0.950 . S
H1343 C1355 0.950 . S
C1344 H1336 0.950 . S
C1344 C1345 1.386 . S
C1344 C1346 1.391 . S
C1345 C1344 1.386 . S
C1345 C1349 1.393 . S
C1346 H1338 0.950 . S
C1346 C1344 1.391 . S
C1346 C1347 1.400 . S
C1347 C1346 1.400 . S
C1347 C1348 1.398 . S
C1347 C1353 1.491 . S
C1348 H1339 0.950 . S
C1348 C1347 1.398 . S
C1348 C1349 1.391 . S
C1349 H1337 0.950 . S
C1349 C1345 1.393 . S
C1349 C1348 1.391 . S
C1350 H1340 0.950 . S
C1350 C1351 1.386 . S
C1350 C1352 1.391 . S
C1351 C1350 1.386 . S
C1351 C1355 1.393 . S
C1352 H1341 0.950 . S
C1352 C1350 1.391 . S
C1352 C1353 1.400 . S
C1353 C1347 1.491 . S
C1353 C1352 1.400 . S
C1353 C1354 1.398 . S
C1354 H1342 0.950 . S
C1354 C1353 1.398 . S
C1354 C1355 1.391 . S
C1355 H1343 0.950 . S
C1355 C1351 1.393 . S
C1355 C1354 1.391 . S
H1356 C1364 0.950 . S
H1357 C1369 0.950 . S
H1358 C1366 0.950 . S
H1359 C1368 0.950 . S
H1360 C1370 0.950 . S
H1361 C1372 0.950 . S
H1362 C1374 0.950 . S
H1363 C1375 0.950 . S
C1364 H1356 0.950 . S
C1364 C1365 1.386 . S
C1364 C1366 1.391 . S
C1365 C1364 1.386 . S
C1365 C1369 1.393 . S
C1366 H1358 0.950 . S
C1366 C1364 1.391 . S
C1366 C1367 1.400 . S
C1367 C1366 1.400 . S
C1367 C1368 1.398 . S
C1367 C1373 1.491 . S
C1368 H1359 0.950 . S
C1368 C1367 1.398 . S
C1368 C1369 1.391 . S
C1369 H1357 0.950 . S
C1369 C1365 1.393 . S
C1369 C1368 1.391 . S
C1370 H1360 0.950 . S
C1370 C1371 1.386 . S
C1370 C1372 1.391 . S
C1371 C1370 1.386 . S
C1371 C1375 1.393 . S
C1372 H1361 0.950 . S
C1372 C1370 1.391 . S
C1372 C1373 1.400 . S
C1373 C1367 1.491 . S
C1373 C1372 1.400 . S
C1373 C1374 1.398 . S
C1374 H1362 0.950 . S
C1374 C1373 1.398 . S
C1374 C1375 1.391 . S
C1375 H1363 0.950 . S
C1375 C1371 1.393 . S
C1375 C1374 1.391 . S
H1376 C1384 0.950 . S
H1377 C1389 0.950 . S
H1378 C1386 0.950 . S
H1379 C1388 0.950 . S
H1380 C1390 0.950 . S
H1381 C1392 0.950 . S
H1382 C1394 0.950 . S
H1383 C1395 0.950 1_554 S
C1384 H1376 0.950 . S
C1384 C1385 1.386 . S
C1384 C1386 1.391 . S
C1385 C1384 1.386 . S
C1385 C1389 1.393 . S
C1386 H1378 0.950 . S
C1386 C1384 1.391 . S
C1386 C1387 1.400 . S
C1387 C1386 1.400 . S
C1387 C1388 1.398 . S
C1387 C1393 1.491 . S
C1388 H1379 0.950 . S
C1388 C1387 1.398 . S
C1388 C1389 1.391 . S
C1389 H1377 0.950 . S
C1389 C1385 1.393 . S
C1389 C1388 1.391 . S
C1390 H1380 0.950 . S
C1390 C1391 1.386 . S
C1390 C1392 1.391 . S
C1391 C1390 1.386 . S
C1391 C1395 1.393 . S
C1392 H1381 0.950 . S
C1392 C1390 1.391 . S
C1392 C1393 1.400 . S
C1393 C1387 1.491 . S
C1393 C1392 1.400 . S
C1393 C1394 1.398 . S
C1394 H1382 0.950 . S
C1394 C1393 1.398 . S
C1394 C1395 1.391 . S
C1395 H1383 0.950 1_556 S
C1395 C1391 1.393 . S
C1395 C1394 1.391 . S
H1396 C1404 0.950 . S
H1397 C1409 0.950 . S
H1398 C1406 0.950 . S
H1399 C1408 0.950 . S
H1400 C1410 0.950 . S
H1401 C1412 0.950 . S
H1402 C1414 0.950 . S
H1403 C1415 0.950 . S
C1404 H1396 0.950 . S
C1404 C1405 1.386 . S
C1404 C1406 1.391 . S
C1405 C1404 1.386 . S
C1405 C1409 1.393 . S
C1406 H1398 0.950 . S
C1406 C1404 1.391 . S
C1406 C1407 1.400 . S
C1407 C1406 1.400 . S
C1407 C1408 1.398 . S
C1407 C1413 1.491 . S
C1408 H1399 0.950 . S
C1408 C1407 1.398 . S
C1408 C1409 1.391 . S
C1409 H1397 0.950 . S
C1409 C1405 1.393 . S
C1409 C1408 1.391 . S
C1410 H1400 0.950 . S
C1410 C1411 1.386 . S
C1410 C1412 1.391 . S
C1411 C1410 1.386 . S
C1411 C1415 1.393 . S
C1412 H1401 0.950 . S
C1412 C1410 1.391 . S
C1412 C1413 1.400 . S
C1413 C1407 1.491 . S
C1413 C1412 1.400 . S
C1413 C1414 1.398 . S
C1414 H1402 0.950 . S
C1414 C1413 1.398 . S
C1414 C1415 1.391 . S
C1415 H1403 0.950 . S
C1415 C1411 1.393 . S
C1415 C1414 1.391 . S
H1416 C1424 0.950 . S
H1417 C1429 0.950 . S
H1418 C1426 0.950 . S
H1419 C1428 0.950 . S
H1420 C1430 0.950 . S
H1421 C1432 0.950 . S
H1422 C1434 0.950 . S
H1423 C1435 0.950 . S
C1424 H1416 0.950 . S
C1424 C1425 1.386 . S
C1424 C1426 1.391 . S
C1425 C1424 1.386 . S
C1425 C1429 1.393 . S
C1426 H1418 0.950 . S
C1426 C1424 1.391 . S
C1426 C1427 1.400 . S
C1427 C1426 1.400 . S
C1427 C1428 1.398 . S
C1427 C1433 1.491 . S
C1428 H1419 0.950 . S
C1428 C1427 1.398 . S
C1428 C1429 1.391 . S
C1429 H1417 0.950 . S
C1429 C1425 1.393 . S
C1429 C1428 1.391 . S
C1430 H1420 0.950 . S
C1430 C1431 1.386 . S
C1430 C1432 1.391 . S
C1431 C1430 1.386 . S
C1431 C1435 1.393 . S
C1432 H1421 0.950 . S
C1432 C1430 1.391 . S
C1432 C1433 1.400 . S
C1433 C1427 1.491 . S
C1433 C1432 1.400 . S
C1433 C1434 1.398 . S
C1434 H1422 0.950 . S
C1434 C1433 1.398 . S
C1434 C1435 1.391 . S
C1435 H1423 0.950 . S
C1435 C1431 1.393 . S
C1435 C1434 1.391 . S
H1436 C1444 0.950 . S
H1437 C1449 0.950 . S
H1438 C1446 0.950 . S
H1439 C1448 0.950 . S
H1440 C1450 0.950 . S
H1441 C1452 0.950 . S
H1442 C1454 0.950 . S
H1443 C1455 0.950 . S
C1444 H1436 0.950 . S
C1444 C1445 1.386 . S
C1444 C1446 1.391 . S
C1445 C1444 1.386 . S
C1445 C1449 1.393 . S
C1446 H1438 0.950 . S
C1446 C1444 1.391 . S
C1446 C1447 1.400 . S
C1447 C1446 1.400 . S
C1447 C1448 1.398 . S
C1447 C1453 1.491 . S
C1448 H1439 0.950 . S
C1448 C1447 1.398 . S
C1448 C1449 1.391 . S
C1449 H1437 0.950 . S
C1449 C1445 1.393 . S
C1449 C1448 1.391 . S
C1450 H1440 0.950 . S
C1450 C1451 1.386 . S
C1450 C1452 1.391 . S
C1451 C1450 1.386 . S
C1451 C1455 1.393 . S
C1452 H1441 0.950 . S
C1452 C1450 1.391 . S
C1452 C1453 1.400 . S
C1453 C1447 1.491 . S
C1453 C1452 1.400 . S
C1453 C1454 1.398 . S
C1454 H1442 0.950 . S
C1454 C1453 1.398 . S
C1454 C1455 1.391 . S
C1455 H1443 0.950 . S
C1455 C1451 1.393 . S
C1455 C1454 1.391 . S
H1456 C1464 0.950 . S
H1457 C1469 0.950 . S
H1458 C1466 0.950 . S
H1459 C1468 0.950 . S
H1460 C1470 0.950 . S
H1461 C1472 0.950 . S
H1462 C1474 0.950 . S
H1463 C1475 0.950 . S
C1464 H1456 0.950 . S
C1464 C1465 1.386 . S
C1464 C1466 1.391 . S
C1465 C1464 1.386 . S
C1465 C1469 1.393 . S
C1466 H1458 0.950 . S
C1466 C1464 1.391 . S
C1466 C1467 1.400 . S
C1467 C1466 1.400 . S
C1467 C1468 1.398 . S
C1467 C1473 1.491 . S
C1468 H1459 0.950 . S
C1468 C1467 1.398 . S
C1468 C1469 1.391 . S
C1469 H1457 0.950 . S
C1469 C1465 1.393 . S
C1469 C1468 1.391 . S
C1470 H1460 0.950 . S
C1470 C1471 1.386 . S
C1470 C1472 1.391 . S
C1471 C1470 1.386 . S
C1471 C1475 1.393 . S
C1472 H1461 0.950 . S
C1472 C1470 1.391 . S
C1472 C1473 1.400 . S
C1473 C1467 1.491 . S
C1473 C1472 1.400 . S
C1473 C1474 1.398 . S
C1474 H1462 0.950 . S
C1474 C1473 1.398 . S
C1474 C1475 1.391 . S
C1475 H1463 0.950 . S
C1475 C1471 1.393 . S
C1475 C1474 1.391 . S
H1476 C1484 0.950 . S
H1477 C1489 0.950 . S
H1478 C1486 0.950 . S
H1479 C1488 0.950 . S
H1480 C1490 0.950 . S
H1481 C1492 0.950 . S
H1482 C1494 0.950 . S
H1483 C1495 0.950 . S
C1484 H1476 0.950 . S
C1484 C1485 1.386 . S
C1484 C1486 1.391 . S
C1485 C1484 1.386 . S
C1485 C1489 1.393 . S
C1486 H1478 0.950 . S
C1486 C1484 1.391 . S
C1486 C1487 1.400 . S
C1487 C1486 1.400 . S
C1487 C1488 1.398 . S
C1487 C1493 1.491 . S
C1488 H1479 0.950 . S
C1488 C1487 1.398 . S
C1488 C1489 1.391 . S
C1489 H1477 0.950 . S
C1489 C1485 1.393 . S
C1489 C1488 1.391 . S
C1490 H1480 0.950 . S
C1490 C1491 1.386 . S
C1490 C1492 1.391 . S
C1491 C1490 1.386 . S
C1491 C1495 1.393 . S
C1492 H1481 0.950 . S
C1492 C1490 1.391 . S
C1492 C1493 1.400 . S
C1493 C1487 1.491 . S
C1493 C1492 1.400 . S
C1493 C1494 1.398 . S
C1494 H1482 0.950 . S
C1494 C1493 1.398 . S
C1494 C1495 1.391 . S
C1495 H1483 0.950 . S
C1495 C1491 1.393 . S
C1495 C1494 1.391 . S
H1496 C1504 0.950 . S
H1497 C1509 0.950 . S
H1498 C1506 0.950 . S
H1499 C1508 0.950 . S
H1500 C1510 0.950 . S
H1501 C1512 0.950 . S
H1502 C1514 0.950 . S
H1503 C1515 0.950 . S
C1504 H1496 0.950 . S
C1504 C1505 1.386 . S
C1504 C1506 1.391 . S
C1505 C1504 1.386 . S
C1505 C1509 1.393 . S
C1506 H1498 0.950 . S
C1506 C1504 1.391 . S
C1506 C1507 1.400 . S
C1507 C1506 1.400 . S
C1507 C1508 1.398 . S
C1507 C1513 1.491 . S
C1508 H1499 0.950 . S
C1508 C1507 1.398 . S
C1508 C1509 1.391 . S
C1509 H1497 0.950 . S
C1509 C1505 1.393 . S
C1509 C1508 1.391 . S
C1510 H1500 0.950 . S
C1510 C1511 1.386 . S
C1510 C1512 1.391 . S
C1511 C1510 1.386 . S
C1511 C1515 1.393 . S
C1512 H1501 0.950 . S
C1512 C1510 1.391 . S
C1512 C1513 1.400 . S
C1513 C1507 1.491 . S
C1513 C1512 1.400 . S
C1513 C1514 1.398 . S
C1514 H1502 0.950 . S
C1514 C1513 1.398 . S
C1514 C1515 1.391 . S
C1515 H1503 0.950 . S
C1515 C1511 1.393 . S
C1515 C1514 1.391 . S
H1516 C1524 0.950 . S
H1517 C1529 0.950 . S
H1518 C1526 0.950 . S
H1519 C1528 0.950 . S
H1520 C1530 0.950 . S
H1521 C1532 0.950 . S
H1522 C1534 0.950 . S
H1523 C1535 0.950 . S
C1524 H1516 0.950 . S
C1524 C1525 1.386 . S
C1524 C1526 1.391 . S
C1525 C1524 1.386 . S
C1525 C1529 1.393 . S
C1526 H1518 0.950 . S
C1526 C1524 1.391 . S
C1526 C1527 1.400 . S
C1527 C1526 1.400 . S
C1527 C1528 1.398 . S
C1527 C1533 1.491 . S
C1528 H1519 0.950 . S
C1528 C1527 1.398 . S
C1528 C1529 1.391 . S
C1529 H1517 0.950 . S
C1529 C1525 1.393 . S
C1529 C1528 1.391 . S
C1530 H1520 0.950 . S
C1530 C1531 1.386 . S
C1530 C1532 1.391 . S
C1531 C1530 1.386 . S
C1531 C1535 1.393 . S
C1532 H1521 0.950 . S
C1532 C1530 1.391 . S
C1532 C1533 1.400 . S
C1533 C1527 1.491 . S
C1533 C1532 1.400 . S
C1533 C1534 1.398 . S
C1534 H1522 0.950 . S
C1534 C1533 1.398 . S
C1534 C1535 1.391 . S
C1535 H1523 0.950 . S
C1535 C1531 1.393 . S
C1535 C1534 1.391 . S
H1536 C1544 0.950 . S
H1537 C1549 0.950 . S
H1538 C1546 0.950 . S
H1539 C1548 0.950 . S
H1540 C1550 0.950 1_554 S
H1541 C1552 0.950 . S
H1542 C1554 0.950 . S
H1543 C1555 0.950 . S
C1544 H1536 0.950 . S
C1544 C1545 1.386 . S
C1544 C1546 1.391 . S
C1545 C1544 1.386 . S
C1545 C1549 1.393 . S
C1546 H1538 0.950 . S
C1546 C1544 1.391 . S
C1546 C1547 1.400 . S
C1547 C1546 1.400 . S
C1547 C1548 1.398 . S
C1547 C1553 1.491 . S
C1548 H1539 0.950 . S
C1548 C1547 1.398 . S
C1548 C1549 1.391 . S
C1549 H1537 0.950 . S
C1549 C1545 1.393 . S
C1549 C1548 1.391 . S
C1550 H1540 0.950 1_556 S
C1550 C1551 1.386 . S
C1550 C1552 1.391 . S
C1551 C1550 1.386 . S
C1551 C1555 1.393 . S
C1552 H1541 0.950 . S
C1552 C1550 1.391 . S
C1552 C1553 1.400 . S
C1553 C1547 1.491 . S
C1553 C1552 1.400 . S
C1553 C1554 1.398 . S
C1554 H1542 0.950 . S
C1554 C1553 1.398 . S
C1554 C1555 1.391 . S
C1555 H1543 0.950 . S
C1555 C1551 1.393 . S
C1555 C1554 1.391 . S
H1556 C1564 0.950 . S
H1557 C1569 0.950 . S
H1558 C1566 0.950 . S
H1559 C1568 0.950 . S
H1560 C1570 0.950 . S
H1561 C1572 0.950 . S
H1562 C1574 0.950 . S
H1563 C1575 0.950 . S
C1564 H1556 0.950 . S
C1564 C1565 1.386 . S
C1564 C1566 1.391 . S
C1565 C1564 1.386 . S
C1565 C1569 1.393 . S
C1566 H1558 0.950 . S
C1566 C1564 1.391 . S
C1566 C1567 1.400 . S
C1567 C1566 1.400 . S
C1567 C1568 1.398 . S
C1567 C1573 1.491 . S
C1568 H1559 0.950 . S
C1568 C1567 1.398 . S
C1568 C1569 1.391 . S
C1569 H1557 0.950 . S
C1569 C1565 1.393 . S
C1569 C1568 1.391 . S
C1570 H1560 0.950 . S
C1570 C1571 1.386 . S
C1570 C1572 1.391 . S
C1571 C1570 1.386 . S
C1571 C1575 1.393 . S
C1572 H1561 0.950 . S
C1572 C1570 1.391 . S
C1572 C1573 1.400 . S
C1573 C1567 1.491 . S
C1573 C1572 1.400 . S
C1573 C1574 1.398 . S
C1574 H1562 0.950 . S
C1574 C1573 1.398 . S
C1574 C1575 1.391 . S
C1575 H1563 0.950 . S
C1575 C1571 1.393 . S
C1575 C1574 1.391 . S
H1576 C1584 0.950 . S
H1577 C1589 0.950 . S
H1578 C1586 0.950 . S
H1579 C1588 0.950 . S
H1580 C1590 0.950 . S
H1581 C1592 0.950 . S
H1582 C1594 0.950 . S
H1583 C1595 0.950 . S
C1584 H1576 0.950 . S
C1584 C1585 1.386 . S
C1584 C1586 1.391 . S
C1585 C1584 1.386 . S
C1585 C1589 1.393 . S
C1586 H1578 0.950 . S
C1586 C1584 1.391 . S
C1586 C1587 1.400 . S
C1587 C1586 1.400 . S
C1587 C1588 1.398 . S
C1587 C1593 1.491 . S
C1588 H1579 0.950 . S
C1588 C1587 1.398 . S
C1588 C1589 1.391 . S
C1589 H1577 0.950 . S
C1589 C1585 1.393 . S
C1589 C1588 1.391 . S
C1590 H1580 0.950 . S
C1590 C1591 1.386 . S
C1590 C1592 1.391 . S
C1591 C1590 1.386 . S
C1591 C1595 1.393 . S
C1592 H1581 0.950 . S
C1592 C1590 1.391 . S
C1592 C1593 1.400 . S
C1593 C1587 1.491 . S
C1593 C1592 1.400 . S
C1593 C1594 1.398 . S
C1594 H1582 0.950 . S
C1594 C1593 1.398 . S
C1594 C1595 1.391 . S
C1595 H1583 0.950 . S
C1595 C1591 1.393 . S
C1595 C1594 1.391 . S
H1596 C1604 0.950 . S
H1597 C1609 0.950 . S
H1598 C1606 0.950 . S
H1599 C1608 0.950 . S
H1600 C1610 0.950 . S
H1601 C1612 0.950 . S
H1602 C1614 0.950 . S
H1603 C1615 0.950 . S
C1604 H1596 0.950 . S
C1604 C1605 1.386 . S
C1604 C1606 1.391 . S
C1605 C1604 1.386 . S
C1605 C1609 1.393 . S
C1606 H1598 0.950 . S
C1606 C1604 1.391 . S
C1606 C1607 1.400 . S
C1607 C1606 1.400 . S
C1607 C1608 1.398 . S
C1607 C1613 1.491 . S
C1608 H1599 0.950 . S
C1608 C1607 1.398 . S
C1608 C1609 1.391 . S
C1609 H1597 0.950 . S
C1609 C1605 1.393 . S
C1609 C1608 1.391 . S
C1610 H1600 0.950 . S
C1610 C1611 1.386 . S
C1610 C1612 1.391 . S
C1611 C1610 1.386 . S
C1611 C1615 1.393 . S
C1612 H1601 0.950 . S
C1612 C1610 1.391 . S
C1612 C1613 1.400 . S
C1613 C1607 1.491 . S
C1613 C1612 1.400 . S
C1613 C1614 1.398 . S
C1614 H1602 0.950 . S
C1614 C1613 1.398 . S
C1614 C1615 1.391 . S
C1615 H1603 0.950 . S
C1615 C1611 1.393 . S
C1615 C1614 1.391 . S
H1616 C1624 0.950 . S
H1617 C1629 0.950 . S
H1618 C1626 0.950 . S
H1619 C1628 0.950 . S
H1620 C1630 0.950 . S
H1621 C1632 0.950 . S
H1622 C1634 0.950 . S
H1623 C1635 0.950 . S
C1624 H1616 0.950 . S
C1624 C1625 1.386 . S
C1624 C1626 1.391 . S
C1625 C1624 1.386 . S
C1625 C1629 1.393 . S
C1626 H1618 0.950 . S
C1626 C1624 1.391 . S
C1626 C1627 1.400 . S
C1627 C1626 1.400 . S
C1627 C1628 1.398 . S
C1627 C1633 1.491 . S
C1628 H1619 0.950 . S
C1628 C1627 1.398 . S
C1628 C1629 1.391 . S
C1629 H1617 0.950 . S
C1629 C1625 1.393 . S
C1629 C1628 1.391 . S
C1630 H1620 0.950 . S
C1630 C1631 1.386 . S
C1630 C1632 1.391 . S
C1631 C1630 1.386 . S
C1631 C1635 1.393 . S
C1632 H1621 0.950 . S
C1632 C1630 1.391 . S
C1632 C1633 1.400 . S
C1633 C1627 1.491 . S
C1633 C1632 1.400 . S
C1633 C1634 1.398 . S
C1634 H1622 0.950 . S
C1634 C1633 1.398 . S
C1634 C1635 1.391 . S
C1635 H1623 0.950 . S
C1635 C1631 1.393 . S
C1635 C1634 1.391 . S
H1636 C1644 0.950 . S
H1637 C1649 0.950 . S
H1638 C1646 0.950 . S
H1639 C1648 0.950 . S
H1640 C1650 0.950 . S
H1641 C1652 0.950 . S
H1642 C1654 0.950 . S
H1643 C1655 0.950 . S
C1644 H1636 0.950 . S
C1644 C1645 1.386 . S
C1644 C1646 1.391 . S
C1645 C1644 1.386 . S
C1645 C1649 1.393 . S
C1646 H1638 0.950 . S
C1646 C1644 1.391 . S
C1646 C1647 1.400 . S
C1647 C1646 1.400 . S
C1647 C1648 1.398 . S
C1647 C1653 1.491 . S
C1648 H1639 0.950 . S
C1648 C1647 1.398 . S
C1648 C1649 1.391 . S
C1649 H1637 0.950 . S
C1649 C1645 1.393 . S
C1649 C1648 1.391 . S
C1650 H1640 0.950 . S
C1650 C1651 1.386 . S
C1650 C1652 1.391 . S
C1651 C1650 1.386 . S
C1651 C1655 1.393 . S
C1652 H1641 0.950 . S
C1652 C1650 1.391 . S
C1652 C1653 1.400 . S
C1653 C1647 1.491 . S
C1653 C1652 1.400 . S
C1653 C1654 1.398 . S
C1654 H1642 0.950 . S
C1654 C1653 1.398 . S
C1654 C1655 1.391 . S
C1655 H1643 0.950 . S
C1655 C1651 1.393 . S
C1655 C1654 1.391 . S
H1656 C1664 0.950 . S
H1657 C1669 0.950 . S
H1658 C1666 0.950 . S
H1659 C1668 0.950 . S
H1660 C1670 0.950 . S
H1661 C1672 0.950 . S
H1662 C1674 0.950 . S
H1663 C1675 0.950 . S
C1664 H1656 0.950 . S
C1664 C1665 1.386 . S
C1664 C1666 1.391 . S
C1665 C1664 1.386 . S
C1665 C1669 1.393 . S
C1666 H1658 0.950 . S
C1666 C1664 1.391 . S
C1666 C1667 1.400 . S
C1667 C1666 1.400 . S
C1667 C1668 1.398 . S
C1667 C1673 1.491 . S
C1668 H1659 0.950 . S
C1668 C1667 1.398 . S
C1668 C1669 1.391 . S
C1669 H1657 0.950 . S
C1669 C1665 1.393 . S
C1669 C1668 1.391 . S
C1670 H1660 0.950 . S
C1670 C1671 1.386 . S
C1670 C1672 1.391 . S
C1671 C1670 1.386 . S
C1671 C1675 1.393 . S
C1672 H1661 0.950 . S
C1672 C1670 1.391 . S
C1672 C1673 1.400 . S
C1673 C1667 1.491 . S
C1673 C1672 1.400 . S
C1673 C1674 1.398 . S
C1674 H1662 0.950 . S
C1674 C1673 1.398 . S
C1674 C1675 1.391 . S
C1675 H1663 0.950 . S
C1675 C1671 1.393 . S
C1675 C1674 1.391 . S
H1676 C1684 0.950 . S
H1677 C1689 0.950 . S
H1678 C1686 0.950 . S
H1679 C1688 0.950 . S
H1680 C1690 0.950 . S
H1681 C1692 0.950 . S
H1682 C1694 0.950 . S
H1683 C1695 0.950 . S
C1684 H1676 0.950 . S
C1684 C1685 1.386 . S
C1684 C1686 1.391 . S
C1685 C1684 1.386 . S
C1685 C1689 1.393 . S
C1686 H1678 0.950 . S
C1686 C1684 1.391 . S
C1686 C1687 1.400 . S
C1687 C1686 1.400 . S
C1687 C1688 1.398 . S
C1687 C1693 1.491 . S
C1688 H1679 0.950 . S
C1688 C1687 1.398 . S
C1688 C1689 1.391 . S
C1689 H1677 0.950 . S
C1689 C1685 1.393 . S
C1689 C1688 1.391 . S
C1690 H1680 0.950 . S
C1690 C1691 1.386 . S
C1690 C1692 1.391 . S
C1691 C1690 1.386 . S
C1691 C1695 1.393 . S
C1692 H1681 0.950 . S
C1692 C1690 1.391 . S
C1692 C1693 1.400 . S
C1693 C1687 1.491 . S
C1693 C1692 1.400 . S
C1693 C1694 1.398 . S
C1694 H1682 0.950 . S
C1694 C1693 1.398 . S
C1694 C1695 1.391 . S
C1695 H1683 0.950 . S
C1695 C1691 1.393 . S
C1695 C1694 1.391 . S
H1696 C1704 0.950 . S
H1697 C1709 0.950 . S
H1698 C1706 0.950 . S
H1699 C1708 0.950 . S
H1700 C1710 0.950 . S
H1701 C1712 0.950 . S
H1702 C1714 0.950 . S
H1703 C1715 0.950 . S
C1704 H1696 0.950 . S
C1704 C1705 1.386 . S
C1704 C1706 1.391 . S
C1705 C1704 1.386 . S
C1705 C1709 1.393 . S
C1706 H1698 0.950 . S
C1706 C1704 1.391 . S
C1706 C1707 1.400 . S
C1707 C1706 1.400 . S
C1707 C1708 1.398 . S
C1707 C1713 1.491 . S
C1708 H1699 0.950 . S
C1708 C1707 1.398 . S
C1708 C1709 1.391 . S
C1709 H1697 0.950 . S
C1709 C1705 1.393 . S
C1709 C1708 1.391 . S
C1710 H1700 0.950 . S
C1710 C1711 1.386 . S
C1710 C1712 1.391 . S
C1711 C1710 1.386 . S
C1711 C1715 1.393 . S
C1712 H1701 0.950 . S
C1712 C1710 1.391 . S
C1712 C1713 1.400 . S
C1713 C1707 1.491 . S
C1713 C1712 1.400 . S
C1713 C1714 1.398 . S
C1714 H1702 0.950 . S
C1714 C1713 1.398 . S
C1714 C1715 1.391 . S
C1715 H1703 0.950 . S
C1715 C1711 1.393 . S
C1715 C1714 1.391 . S
H1716 C1724 0.950 . S
H1717 C1729 0.950 . S
H1718 C1726 0.950 . S
H1719 C1728 0.950 . S
H1720 C1730 0.950 . S
H1721 C1732 0.950 . S
H1722 C1734 0.950 . S
H1723 C1735 0.950 . S
C1724 H1716 0.950 . S
C1724 C1725 1.386 . S
C1724 C1726 1.391 . S
C1725 C1724 1.386 . S
C1725 C1729 1.393 . S
C1726 H1718 0.950 . S
C1726 C1724 1.391 . S
C1726 C1727 1.400 . S
C1727 C1726 1.400 . S
C1727 C1728 1.398 . S
C1727 C1733 1.491 . S
C1728 H1719 0.950 . S
C1728 C1727 1.398 . S
C1728 C1729 1.391 . S
C1729 H1717 0.950 . S
C1729 C1725 1.393 . S
C1729 C1728 1.391 . S
C1730 H1720 0.950 . S
C1730 C1731 1.386 . S
C1730 C1732 1.391 . S
C1731 C1730 1.386 . S
C1731 C1735 1.393 . S
C1732 H1721 0.950 . S
C1732 C1730 1.391 . S
C1732 C1733 1.400 . S
C1733 C1727 1.491 . S
C1733 C1732 1.400 . S
C1733 C1734 1.398 . S
C1734 H1722 0.950 . S
C1734 C1733 1.398 . S
C1734 C1735 1.391 . S
C1735 H1723 0.950 . S
C1735 C1731 1.393 . S
C1735 C1734 1.391 . S
H1736 C1744 0.950 . S
H1737 C1749 0.950 . S
H1738 C1746 0.950 . S
H1739 C1748 0.950 . S
H1740 C1750 0.950 . S
H1741 C1752 0.950 . S
H1742 C1754 0.950 . S
H1743 C1755 0.950 . S
C1744 H1736 0.950 . S
C1744 C1745 1.386 . S
C1744 C1746 1.391 . S
C1745 C1744 1.386 . S
C1745 C1749 1.393 . S
C1746 H1738 0.950 . S
C1746 C1744 1.391 . S
C1746 C1747 1.400 . S
C1747 C1746 1.400 . S
C1747 C1748 1.398 . S
C1747 C1753 1.491 . S
C1748 H1739 0.950 . S
C1748 C1747 1.398 . S
C1748 C1749 1.391 . S
C1749 H1737 0.950 . S
C1749 C1745 1.393 . S
C1749 C1748 1.391 . S
C1750 H1740 0.950 . S
C1750 C1751 1.386 . S
C1750 C1752 1.391 . S
C1751 C1750 1.386 . S
C1751 C1755 1.393 . S
C1752 H1741 0.950 . S
C1752 C1750 1.391 . S
C1752 C1753 1.400 . S
C1753 C1747 1.491 . S
C1753 C1752 1.400 . S
C1753 C1754 1.398 . S
C1754 H1742 0.950 . S
C1754 C1753 1.398 . S
C1754 C1755 1.391 . S
C1755 H1743 0.950 . S
C1755 C1751 1.393 . S
C1755 C1754 1.391 . S
H1756 C1764 0.950 . S
H1757 C1769 0.950 . S
H1758 C1766 0.950 . S
H1759 C1768 0.950 . S
H1760 C1770 0.950 . S
H1761 C1772 0.950 . S
H1762 C1774 0.950 . S
H1763 C1775 0.950 . S
C1764 H1756 0.950 . S
C1764 C1765 1.386 . S
C1764 C1766 1.391 . S
C1765 C1764 1.386 . S
C1765 C1769 1.393 . S
C1766 H1758 0.950 . S
C1766 C1764 1.391 . S
C1766 C1767 1.400 . S
C1767 C1766 1.400 . S
C1767 C1768 1.398 . S
C1767 C1773 1.491 . S
C1768 H1759 0.950 . S
C1768 C1767 1.398 . S
C1768 C1769 1.391 . S
C1769 H1757 0.950 . S
C1769 C1765 1.393 . S
C1769 C1768 1.391 . S
C1770 H1760 0.950 . S
C1770 C1771 1.386 . S
C1770 C1772 1.391 . S
C1771 C1770 1.386 . S
C1771 C1775 1.393 . S
C1772 H1761 0.950 . S
C1772 C1770 1.391 . S
C1772 C1773 1.400 . S
C1773 C1767 1.491 . S
C1773 C1772 1.400 . S
C1773 C1774 1.398 . S
C1774 H1762 0.950 . S
C1774 C1773 1.398 . S
C1774 C1775 1.391 . S
C1775 H1763 0.950 . S
C1775 C1771 1.393 . S
C1775 C1774 1.391 . S
H1776 C1784 0.950 . S
H1777 C1789 0.950 . S
H1778 C1786 0.950 . S
H1779 C1788 0.950 . S
H1780 C1790 0.950 . S
H1781 C1792 0.950 . S
H1782 C1794 0.950 . S
H1783 C1795 0.950 . S
C1784 H1776 0.950 . S
C1784 C1785 1.386 . S
C1784 C1786 1.391 . S
C1785 C1784 1.386 . S
C1785 C1789 1.393 . S
C1786 H1778 0.950 . S
C1786 C1784 1.391 . S
C1786 C1787 1.400 . S
C1787 C1786 1.400 . S
C1787 C1788 1.398 . S
C1787 C1793 1.491 . S
C1788 H1779 0.950 . S
C1788 C1787 1.398 . S
C1788 C1789 1.391 . S
C1789 H1777 0.950 . S
C1789 C1785 1.393 . S
C1789 C1788 1.391 . S
C1790 H1780 0.950 . S
C1790 C1791 1.386 . S
C1790 C1792 1.391 . S
C1791 C1790 1.386 . S
C1791 C1795 1.393 . S
C1792 H1781 0.950 . S
C1792 C1790 1.391 . S
C1792 C1793 1.400 . S
C1793 C1787 1.491 . S
C1793 C1792 1.400 . S
C1793 C1794 1.398 . S
C1794 H1782 0.950 . S
C1794 C1793 1.398 . S
C1794 C1795 1.391 . S
C1795 H1783 0.950 . S
C1795 C1791 1.393 . S
C1795 C1794 1.391 . S
H1796 C1804 0.950 . S
H1797 C1809 0.950 . S
H1798 C1806 0.950 . S
H1799 C1808 0.950 . S
H1800 C1810 0.950 . S
H1801 C1812 0.950 . S
H1802 C1814 0.950 . S
H1803 C1815 0.950 . S
C1804 H1796 0.950 . S
C1804 C1805 1.386 . S
C1804 C1806 1.391 . S
C1805 C1804 1.386 . S
C1805 C1809 1.393 . S
C1806 H1798 0.950 . S
C1806 C1804 1.391 . S
C1806 C1807 1.400 . S
C1807 C1806 1.400 . S
C1807 C1808 1.398 . S
C1807 C1813 1.491 . S
C1808 H1799 0.950 . S
C1808 C1807 1.398 . S
C1808 C1809 1.391 . S
C1809 H1797 0.950 . S
C1809 C1805 1.393 . S
C1809 C1808 1.391 . S
C1810 H1800 0.950 . S
C1810 C1811 1.386 . S
C1810 C1812 1.391 . S
C1811 C1810 1.386 . S
C1811 C1815 1.393 . S
C1812 H1801 0.950 . S
C1812 C1810 1.391 . S
C1812 C1813 1.400 . S
C1813 C1807 1.491 . S
C1813 C1812 1.400 . S
C1813 C1814 1.398 . S
C1814 H1802 0.950 . S
C1814 C1813 1.398 . S
C1814 C1815 1.391 . S
C1815 H1803 0.950 . S
C1815 C1811 1.393 . S
C1815 C1814 1.391 . S
H1816 C1824 0.950 . S
H1817 C1829 0.950 . S
H1818 C1826 0.950 . S
H1819 C1828 0.950 . S
H1820 C1830 0.950 . S
H1821 C1832 0.950 . S
H1822 C1834 0.950 . S
H1823 C1835 0.950 . S
C1824 H1816 0.950 . S
C1824 C1825 1.386 . S
C1824 C1826 1.391 . S
C1825 C1824 1.386 . S
C1825 C1829 1.393 . S
C1826 H1818 0.950 . S
C1826 C1824 1.391 . S
C1826 C1827 1.400 . S
C1827 C1826 1.400 . S
C1827 C1828 1.398 . S
C1827 C1833 1.491 . S
C1828 H1819 0.950 . S
C1828 C1827 1.398 . S
C1828 C1829 1.391 . S
C1829 H1817 0.950 . S
C1829 C1825 1.393 . S
C1829 C1828 1.391 . S
C1830 H1820 0.950 . S
C1830 C1831 1.386 . S
C1830 C1832 1.391 . S
C1831 C1830 1.386 . S
C1831 C1835 1.393 . S
C1832 H1821 0.950 . S
C1832 C1830 1.391 . S
C1832 C1833 1.400 . S
C1833 C1827 1.491 . S
C1833 C1832 1.400 . S
C1833 C1834 1.398 . S
C1834 H1822 0.950 . S
C1834 C1833 1.398 . S
C1834 C1835 1.391 . S
C1835 H1823 0.950 . S
C1835 C1831 1.393 . S
C1835 C1834 1.391 . S
H1836 C1844 0.950 . S
H1837 C1849 0.950 . S
H1838 C1846 0.950 . S
H1839 C1848 0.950 . S
H1840 C1850 0.948 . S
H1841 C1852 0.950 . S
H1842 C1854 0.950 . S
H1843 C1855 0.950 . S
C1844 H1836 0.950 . S
C1844 C1845 1.386 . S
C1844 C1846 1.391 . S
C1845 C1844 1.386 . S
C1845 C1849 1.393 . S
C1846 H1838 0.950 . S
C1846 C1844 1.391 . S
C1846 C1847 1.400 . S
C1847 C1846 1.400 . S
C1847 C1848 1.398 . S
C1847 C1853 1.491 . S
C1848 H1839 0.950 . S
C1848 C1847 1.398 . S
C1848 C1849 1.391 . S
C1849 H1837 0.950 . S
C1849 C1845 1.393 . S
C1849 C1848 1.391 . S
C1850 H1840 0.948 . S
C1850 C1851 1.386 . S
C1850 C1852 1.391 . S
C1851 C1850 1.386 . S
C1851 C1855 1.393 . S
C1852 H1841 0.950 . S
C1852 C1850 1.391 . S
C1852 C1853 1.400 . S
C1853 C1847 1.491 . S
C1853 C1852 1.400 . S
C1853 C1854 1.398 . S
C1854 H1842 0.950 . S
C1854 C1853 1.398 . S
C1854 C1855 1.391 . S
C1855 H1843 0.950 . S
C1855 C1851 1.393 . S
C1855 C1854 1.391 . S
H1856 C1864 0.950 . S
H1857 C1869 0.950 . S
H1858 C1866 0.950 . S
H1859 C1868 0.950 . S
H1860 C1870 0.950 . S
H1861 C1872 0.950 . S
H1862 C1874 0.950 . S
H1863 C1875 0.950 . S
C1864 H1856 0.950 . S
C1864 C1865 1.386 . S
C1864 C1866 1.391 . S
C1865 C1864 1.386 . S
C1865 C1869 1.393 . S
C1866 H1858 0.950 . S
C1866 C1864 1.391 . S
C1866 C1867 1.400 . S
C1867 C1866 1.400 . S
C1867 C1868 1.398 . S
C1867 C1873 1.491 . S
C1868 H1859 0.950 . S
C1868 C1867 1.398 . S
C1868 C1869 1.391 . S
C1869 H1857 0.950 . S
C1869 C1865 1.393 . S
C1869 C1868 1.391 . S
C1870 H1860 0.950 . S
C1870 C1871 1.386 . S
C1870 C1872 1.391 . S
C1871 C1870 1.386 . S
C1871 C1875 1.393 . S
C1872 H1861 0.950 . S
C1872 C1870 1.391 . S
C1872 C1873 1.400 . S
C1873 C1867 1.491 . S
C1873 C1872 1.400 . S
C1873 C1874 1.398 . S
C1874 H1862 0.950 . S
C1874 C1873 1.398 . S
C1874 C1875 1.391 . S
C1875 H1863 0.950 . S
C1875 C1871 1.393 . S
C1875 C1874 1.391 . S
H1876 C1884 0.950 . S
H1877 C1889 0.950 . S
H1878 C1886 0.950 . S
H1879 C1888 0.950 . S
H1880 C1890 0.950 . S
H1881 C1892 0.950 . S
H1882 C1894 0.950 . S
H1883 C1895 0.950 . S
C1884 H1876 0.950 . S
C1884 C1885 1.386 . S
C1884 C1886 1.391 . S
C1885 C1884 1.386 . S
C1885 C1889 1.393 . S
C1886 H1878 0.950 . S
C1886 C1884 1.391 . S
C1886 C1887 1.400 . S
C1887 C1886 1.400 . S
C1887 C1888 1.398 . S
C1887 C1893 1.491 . S
C1888 H1879 0.950 . S
C1888 C1887 1.398 . S
C1888 C1889 1.391 . S
C1889 H1877 0.950 . S
C1889 C1885 1.393 . S
C1889 C1888 1.391 . S
C1890 H1880 0.950 . S
C1890 C1891 1.386 . S
C1890 C1892 1.391 . S
C1891 C1890 1.386 . S
C1891 C1895 1.393 . S
C1892 H1881 0.950 . S
C1892 C1890 1.391 . S
C1892 C1893 1.400 . S
C1893 C1887 1.491 . S
C1893 C1892 1.400 . S
C1893 C1894 1.398 . S
C1894 H1882 0.950 . S
C1894 C1893 1.398 . S
C1894 C1895 1.391 . S
C1895 H1883 0.950 . S
C1895 C1891 1.393 . S
C1895 C1894 1.391 . S
H1896 C1904 0.950 . S
H1897 C1909 0.950 . S
H1898 C1906 0.950 . S
H1899 C1908 0.950 . S
H1900 C1910 0.950 . S
H1901 C1912 0.950 . S
H1902 C1914 0.950 . S
H1903 C1915 0.950 . S
C1904 H1896 0.950 . S
C1904 C1905 1.386 . S
C1904 C1906 1.391 . S
C1905 C1904 1.386 . S
C1905 C1909 1.393 . S
C1906 H1898 0.950 . S
C1906 C1904 1.391 . S
C1906 C1907 1.400 . S
C1907 C1906 1.400 . S
C1907 C1908 1.398 . S
C1907 C1913 1.491 . S
C1908 H1899 0.950 . S
C1908 C1907 1.398 . S
C1908 C1909 1.391 . S
C1909 H1897 0.950 . S
C1909 C1905 1.393 . S
C1909 C1908 1.391 . S
C1910 H1900 0.950 . S
C1910 C1911 1.386 . S
C1910 C1912 1.391 . S
C1911 C1910 1.386 . S
C1911 C1915 1.393 . S
C1912 H1901 0.950 . S
C1912 C1910 1.391 . S
C1912 C1913 1.400 . S
C1913 C1907 1.491 . S
C1913 C1912 1.400 . S
C1913 C1914 1.398 . S
C1914 H1902 0.950 . S
C1914 C1913 1.398 . S
C1914 C1915 1.391 . S
C1915 H1903 0.950 . S
C1915 C1911 1.393 . S
C1915 C1914 1.391 . S
H1916 C1924 0.950 . S
H1917 C1929 0.950 . S
H1918 C1926 0.950 . S
H1919 C1928 0.950 . S
H1920 C1930 0.950 . S
H1921 C1932 0.950 . S
H1922 C1934 0.950 . S
H1923 C1935 0.950 . S
C1924 H1916 0.950 . S
C1924 C1925 1.386 . S
C1924 C1926 1.391 . S
C1925 C1924 1.386 . S
C1925 C1929 1.393 . S
C1926 H1918 0.950 . S
C1926 C1924 1.391 . S
C1926 C1927 1.400 . S
C1927 C1926 1.400 . S
C1927 C1928 1.398 . S
C1927 C1933 1.491 . S
C1928 H1919 0.950 . S
C1928 C1927 1.398 . S
C1928 C1929 1.391 . S
C1929 H1917 0.950 . S
C1929 C1925 1.393 . S
C1929 C1928 1.391 . S
C1930 H1920 0.950 . S
C1930 C1931 1.386 . S
C1930 C1932 1.391 . S
C1931 C1930 1.386 . S
C1931 C1935 1.393 . S
C1932 H1921 0.950 . S
C1932 C1930 1.391 . S
C1932 C1933 1.400 . S
C1933 C1927 1.491 . S
C1933 C1932 1.400 . S
C1933 C1934 1.398 . S
C1934 H1922 0.950 . S
C1934 C1933 1.398 . S
C1934 C1935 1.391 . S
C1935 H1923 0.950 . S
C1935 C1931 1.393 . S
C1935 C1934 1.391 . S
H1936 C1944 0.950 . S
H1937 C1949 0.950 . S
H1938 C1946 0.950 . S
H1939 C1948 0.950 . S
H1940 C1950 0.950 . S
H1941 C1952 0.950 . S
H1942 C1954 0.950 . S
H1943 C1955 0.950 . S
C1944 H1936 0.950 . S
C1944 C1945 1.386 . S
C1944 C1946 1.391 . S
C1945 C1944 1.386 . S
C1945 C1949 1.393 . S
C1946 H1938 0.950 . S
C1946 C1944 1.391 . S
C1946 C1947 1.400 . S
C1947 C1946 1.400 . S
C1947 C1948 1.398 . S
C1947 C1953 1.491 . S
C1948 H1939 0.950 . S
C1948 C1947 1.398 . S
C1948 C1949 1.391 . S
C1949 H1937 0.950 . S
C1949 C1945 1.393 . S
C1949 C1948 1.391 . S
C1950 H1940 0.950 . S
C1950 C1951 1.386 . S
C1950 C1952 1.391 . S
C1951 C1950 1.386 . S
C1951 C1955 1.393 . S
C1952 H1941 0.950 . S
C1952 C1950 1.391 . S
C1952 C1953 1.400 . S
C1953 C1947 1.491 . S
C1953 C1952 1.400 . S
C1953 C1954 1.398 . S
C1954 H1942 0.950 . S
C1954 C1953 1.398 . S
C1954 C1955 1.391 . S
C1955 H1943 0.950 . S
C1955 C1951 1.393 . S
C1955 C1954 1.391 . S
C1011 C707 1.236 . S
C1005 C75 1.139 . S
C1031 C685 0.844 . S
C1025 C156 0.839 . S
C1051 C682 0.807 . S
C1045 C243 0.819 . S
C1065 C315 0.972 . S
C1071 C694 1.067 . S
C1085 C399 0.645 . S
C1091 C677 0.426 . S
C1111 C699 0.763 . S
C1105 C495 0.789 . S
C1125 C576 1.476 . S
C1131 C704 1.522 . S
C1145 C654 1.160 . S
C1151 C700 1.214 . S
C1171 C758 1.152 . S
C1165 C72 1.142 . S
C1185 C140 1.179 . S
C1191 C808 1.234 . S
C1211 C731 1.256 . S
C1205 C240 1.205 . S
C1231 C807 0.449 . S
C1225 C318 0.559 . S
C1245 C402 0.510 . S
C1251 C736 0.400 . S
C1271 C802 1.898 . S
C1265 C492 1.818 . S
C1285 C560 1.182 . S
C1291 C761 1.265 . S
C1305 C655 2.966 . S
C1311 C793 3.005 1_556 S
C1325 C56 3.289 . S
C1331 C785 3.402 . S
C1345 C403 1.487 . S
C1351 C815 1.540 . S
C1371 C739 2.538 . S
C1365 C476 2.423 . S
C1391 C790 1.182 . S
C1385 C579 1.117 . S
C1405 C651 1.491 . S
C1411 C748 1.549 . S
C1425 C224 3.314 . S
C1431 C812 3.391 . S
C1451 C754 1.490 . S
C1445 C319 1.412 . S
C1465 C159 1.169 . S
C1471 C753 1.231 . S
C1485 C663 1.148 . S
C1491 C869 1.211 . S
C1505 C408 0.642 . S
C1511 C847 0.423 . S
C1531 C844 0.778 . S
C1525 C486 0.780 . S
C1551 C856 1.518 . S
C1545 C567 1.461 . S
C1565 C147 0.838 . S
C1571 C839 0.838 . S
C1591 C861 0.791 . S
C1585 C234 0.759 . S
C1605 C324 0.959 . S
C1611 C866 1.065 . S
C1625 C66 1.175 . S
C1631 C862 1.241 . S
C1645 C660 1.456 . S
C1651 C920 1.551 . S
C1671 C970 1.529 . S
C1665 C392 1.493 . S
C1685 C487 2.415 . S
C1691 C893 2.513 . S
C1705 C570 1.125 . S
C1711 C969 1.154 . S
C1731 C898 1.216 . S
C1725 C150 1.165 . S
C1745 C235 3.295 . S
C1751 C964 3.373 . S
C1771 C923 1.483 . S
C1765 C308 1.409 . S
C1791 C955 3.408 . S
C1785 C67 3.283 . S
C1811 C947 3.006 . S
C1805 C644 2.947 . S
C1825 C151 1.172 . S
C1831 C977 1.241 . S
C1845 C231 1.220 . S
C1851 C901 1.274 . S
C1871 C952 0.454 . S
C1865 C327 0.591 . S
C1885 C63 1.127 . S
C1891 C910 1.187 . S
C1905 C483 1.835 . S
C1911 C974 1.898 . S
C1931 C916 1.263 . S
C1925 C571 1.159 . S
C1951 C915 0.400 . S
C1945 C411 0.519 . S
