# Generated by pormake.
# Topology pts, (4,4)-cn, num edge types: 1
# Building blocks:
#     Node 0, Type 0, BuildingBlock: NAWXER_clean_sbu_0, # of connection points: 4
#     Node 1, Type 0, BuildingBlock: NAWXER_clean_sbu_0, # of connection points: 4
#     Node 2, Type 1, BuildingBlock: UXUYUI_clean_sbu_0, # of connection points: 4
#     Node 3, Type 1, BuildingBlock: UXUYUI_clean_sbu_0, # of connection points: 4
#     Edge 4, Type (0, 1), BuildingBlock: MIFKUJ_clean_linker_0, # of connection points: 2
#     Edge 5, Type (0, 1), BuildingBlock: MIFKUJ_clean_linker_0, # of connection points: 2
#     Edge 6, Type (0, 1), BuildingBlock: MIFKUJ_clean_linker_0, # of connection points: 2
#     Edge 7, Type (0, 1), BuildingBlock: MIFKUJ_clean_linker_0, # of connection points: 2
#     Edge 8, Type (0, 1), BuildingBlock: MIFKUJ_clean_linker_0, # of connection points: 2
#     Edge 9, Type (0, 1), BuildingBlock: MIFKUJ_clean_linker_0, # of connection points: 2
#     Edge 10, Type (0, 1), BuildingBlock: MIFKUJ_clean_linker_0, # of connection points: 2
#     Edge 11, Type (0, 1), BuildingBlock: MIFKUJ_clean_linker_0, # of connection points: 2
# Relax obj value: 0.015
# Max RMSD: 0.059
# Mean RMSD: 0.051
data_MOF--net-pts--node1-NAWXER_clean_sbu_0--node2-UXUYUI_clean_sbu_0--edge1-MIFKUJ_clean_linker_0
_symmetry_space_group_name_H-M    P1
_symmetry_Int_Tables_number       1
_symmetry_cell_setting            triclinic
loop_
_symmetry_equiv_pos_as_xyz
'x, y, z'
_cell_length_a     35.810252
_cell_length_b     35.822825
_cell_length_c     57.374786
_cell_angle_alpha  89.899411
_cell_angle_beta   89.946494
_cell_angle_gamma 90.019427
loop_
_atom_site_label
_atom_site_type_symbol
_atom_site_fract_x
_atom_site_fract_y
_atom_site_fract_z
_atom_type_partial_charge
C0 C 0.46096 0.98119 0.97469 0.0
C1 C 0.55075 0.97915 0.03889 0.0
O2 O 0.47518 0.95268 0.98447 0.0
Zn3 Zn 0.50634 0.97919 0.00663 0.0
O4 O 0.47077 0.01388 0.98138 0.0
Zn5 Zn 0.50691 0.03867 0.00675 0.0
O6 O 0.54276 0.06553 0.98761 0.0
O7 O 0.54873 1.00435 0.98531 0.0
O8 O 0.54191 0.01229 0.03241 0.0
O9 O 0.53636 0.95122 0.0286 0.0
O10 O 0.46549 1.0051 0.02875 0.0
O11 O 0.47183 0.06621 0.02595 0.0
C12 C 0.55977 0.03717 0.97959 0.0
C13 C 0.45504 0.03806 0.03454 0.0
C14 C 0.03195 0.55305 0.47598 0.0
C15 C 0.03368 0.4562 0.53629 0.0
O16 O 0.99927 0.54286 0.48255 0.0
Zn17 Zn 0.97436 0.50385 0.50624 0.0
O18 O 0.06048 0.53729 0.48477 0.0
Zn19 Zn 0.03384 0.50397 0.50584 0.0
O20 O 0.00834 0.46514 0.48249 0.0
O21 O 0.94724 0.47014 0.48576 0.0
O22 O 0.06164 0.47075 0.52604 0.0
O23 O 1.00054 0.46634 0.53063 0.0
O24 O 0.94697 0.53723 0.52643 0.0
O25 O 0.0082 0.54206 0.53017 0.0
C26 C 0.97551 0.45471 0.47644 0.0
C27 C 0.97516 0.55218 0.53612 0.0
Li28 Li 0.99978 0.03825 0.27189 0.0
Li29 Li 0.01082 0.97028 0.27071 0.0
Li30 Li 0.03854 0.01255 0.23965 0.0
Li31 Li 0.97167 0.99726 0.24058 0.0
C32 C 0.07612 0.02741 0.28643 0.0
N33 N 0.13274 0.06039 0.31183 0.0
C34 C 0.08636 0.01285 0.30812 0.0
C35 C 0.09514 0.05837 0.2775 0.0
C36 C 0.11491 0.03003 0.32075 0.0
C37 C 0.12357 0.07474 0.29063 0.0
C38 C 0.94462 0.97912 0.29253 0.0
C39 C 0.91174 0.92535 0.30741 0.0
N40 N 0.91005 0.94171 0.32876 0.0
C41 C 0.94226 0.99556 0.31456 0.0
C42 C 0.92895 0.94389 0.28884 0.0
C43 C 0.92475 0.97614 0.33267 0.0
C44 C 0.9684 0.10798 0.28466 0.0
N45 N 0.99191 0.08043 0.2918 0.0
C46 C 1.00482 0.11341 0.3271 0.0
C47 C 0.0095 0.08231 0.31276 0.0
C48 C 0.98135 0.14268 0.31998 0.0
C49 C 0.96266 0.13952 0.29855 0.0
H50 H 0.95436 0.1056 0.26805 0.0
H51 H 0.02696 0.05956 0.31849 0.0
C52 C 0.02837 0.89416 0.28004 0.0
N53 N 0.0195 0.92744 0.29 0.0
C54 C 0.03364 0.86243 0.2939 0.0
C55 C 0.02077 0.89983 0.32798 0.0
C56 C 0.01631 0.93089 0.31352 0.0
C57 C 0.02938 0.86499 0.31819 0.0
H58 H 0.03114 0.8922 0.26132 0.0
H59 H 0.01005 0.95778 0.32107 0.0
C60 C 1.00215 0.08008 0.22618 0.0
N61 N 0.01586 0.14637 0.20297 0.0
C62 C 0.98635 0.0866 0.20427 0.0
C63 C 0.02439 0.10757 0.23643 0.0
C64 C 0.99378 0.1202 0.19277 0.0
C65 C 0.03113 0.14082 0.22439 0.0
C66 C 1.00342 0.93949 0.21888 0.0
C67 C 0.01792 0.94395 0.19643 0.0
C68 C 0.97701 0.91159 0.22321 0.0
C69 C 1.00526 0.92076 0.17854 0.0
C70 C 0.96502 0.88899 0.20486 0.0
N71 N 0.97925 0.89403 0.18309 0.0
C72 C 0.11518 0.01131 0.22736 0.0
C73 C 0.07557 0.03652 0.1983 0.0
C74 C 0.14649 0.01715 0.21325 0.0
N75 N 0.08064 0.02136 0.21981 0.0
C76 C 0.10606 0.04285 0.18361 0.0
C77 C 0.14219 0.03317 0.19102 0.0
H78 H 0.1184 0.99853 0.24433 0.0
H79 H 0.04779 0.04328 0.19237 0.0
C80 C 0.89505 0.98325 0.23058 0.0
N81 N 0.92911 0.98993 0.22096 0.0
C82 C 0.86374 0.97836 0.21636 0.0
C83 C 0.90317 0.98718 0.18261 0.0
C84 C 0.93362 0.99211 0.19747 0.0
C85 C 0.86751 0.98038 0.19198 0.0
H86 H 0.89208 0.98215 0.24932 0.0
H87 H 0.96092 0.99778 0.19025 0.0
O88 O 0.04817 0.01087 0.27386 0.0
O89 O 0.96207 0.99752 0.27467 0.0
O90 O 0.99515 0.04727 0.23766 0.0
O91 O 0.01508 0.96229 0.23653 0.0
H92 H 0.07228 0.98866 0.3152 0.0
H93 H 0.08846 0.06935 0.26047 0.0
H94 H 0.12292 0.0192 0.33763 0.0
H95 H 0.13846 0.09875 0.28393 0.0
H96 H 0.89974 0.89794 0.30484 0.0
H97 H 0.95402 0.02289 0.31769 0.0
H98 H 0.93025 0.93091 0.27187 0.0
H99 H 0.92292 0.98843 0.34984 0.0
H100 H 0.01914 0.11436 0.34371 0.0
H101 H 0.9444 0.16151 0.29239 0.0
H102 H 0.04013 0.83601 0.28569 0.0
H103 H 0.01775 0.90307 0.34666 0.0
H104 H 0.96869 0.06587 0.19618 0.0
H105 H 0.03593 0.10355 0.25363 0.0
H106 H 0.98194 0.12548 0.17574 0.0
H107 H 0.04835 0.16229 0.23213 0.0
H108 H 0.03853 0.96525 0.1928 0.0
H109 H 0.96579 0.90754 0.24052 0.0
H110 H 0.01607 0.92405 0.16105 0.0
H111 H 0.94441 0.86745 0.20793 0.0
H112 H 0.17367 0.00854 0.21953 0.0
H113 H 0.10136 0.05539 0.16668 0.0
H114 H 0.83677 0.97384 0.22443 0.0
H115 H 0.90761 0.98854 0.16396 0.0
Li116 Li 0.97302 0.01059 0.77116 0.0
Li117 Li 0.04058 0.99715 0.7714 0.0
Li118 Li 0.01055 0.03773 0.74043 0.0
Li119 Li 1.00148 0.97003 0.73981 0.0
C120 C 1.00457 0.06735 0.7934 0.0
N121 N 0.98161 0.10808 0.8317 0.0
C122 C 0.01995 0.06025 0.81535 0.0
C123 C 0.97786 0.09553 0.7909 0.0
C124 C 0.00791 0.08107 0.83451 0.0
C125 C 0.9665 0.11569 0.81048 0.0
C126 C 0.0067 0.9288 0.78575 0.0
C127 C 0.04162 0.87138 0.7887 0.0
N128 N 0.0242 0.86363 0.80922 0.0
C129 C 0.98882 0.92001 0.80673 0.0
C130 C 0.03305 0.90409 0.77656 0.0
C131 C 0.99817 0.88703 0.81838 0.0
C132 C 0.89728 0.02772 0.78292 0.0
N133 N 0.93115 0.0175 0.79152 0.0
C134 C 0.90687 0.01692 0.83037 0.0
C135 C 0.93639 0.01211 0.81475 0.0
C136 C 0.87157 0.02753 0.82203 0.0
C137 C 0.86699 0.03312 0.79795 0.0
H138 H 0.89366 0.03148 0.76437 0.0
H139 H 0.96362 1.00418 0.82117 0.0
C140 C 0.11625 0.00665 0.78369 0.0
N141 N 0.08373 0.99059 0.79077 0.0
C142 C 0.14844 1.00351 0.79732 0.0
C143 C 0.11311 0.96753 0.82535 0.0
C144 C 0.08159 0.97155 0.81126 0.0
C145 C 0.14712 0.98371 0.81848 0.0
H146 H 0.11712 0.02196 0.76743 0.0
H147 H 0.05526 0.96012 0.81699 0.0
C148 C 0.94445 0.02982 0.72026 0.0
N149 N 0.90951 0.07129 0.68595 0.0
C150 C 0.93962 0.01496 0.69796 0.0
C151 C 0.93097 0.06556 0.72519 0.0
C152 C 0.922 0.0364 0.68083 0.0
C153 C 0.91357 0.08616 0.70759 0.0
C154 C 0.07565 0.9797 0.72405 0.0
C155 C 0.08061 0.98841 0.70049 0.0
C156 C 0.0986 0.95284 0.73442 0.0
C157 C 0.10754 0.9693 0.68754 0.0
C158 C 0.12528 0.93437 0.72092 0.0
N159 N 0.12911 0.94285 0.69793 0.0
C160 C 0.02244 0.11477 0.7308 0.0
C161 C 0.01725 0.07648 0.69733 0.0
C162 C 0.02696 0.14649 0.71684 0.0
N163 N 0.01757 0.08066 0.72088 0.0
C164 C 0.02217 0.10734 0.68272 0.0
C165 C 0.02701 0.14293 0.69246 0.0
H166 H 0.02283 0.11738 0.74955 0.0
H167 H 0.01271 0.0492 0.68985 0.0
C168 C 0.98025 0.8952 0.72888 0.0
N169 N 0.99428 0.9275 0.71992 0.0
C170 C 0.97568 0.86387 0.71469 0.0
C171 C 0.99762 0.90021 0.68192 0.0
C172 C 1.00259 0.93058 0.69685 0.0
C173 C 0.98441 0.86625 0.6909 0.0
H174 H 0.97242 0.89369 0.74703 0.0
H175 H 0.01259 0.95681 0.68995 0.0
O176 O 0.01553 0.04676 0.77451 0.0
O177 O 0.99821 0.96129 0.77428 0.0
O178 O 0.96227 0.0095 0.73715 0.0
O179 O 0.04946 0.99836 0.73702 0.0
H180 H 0.04072 0.03871 0.81765 0.0
H181 H 0.96586 0.10167 0.77407 0.0
H182 H 0.01942 0.07568 0.85161 0.0
H183 H 0.94567 0.13738 0.80881 0.0
H184 H 0.06197 0.85206 0.78175 0.0
H185 H 0.96793 0.93839 0.81398 0.0
H186 H 0.04616 0.9097 0.75999 0.0
H187 H 0.98467 0.88001 0.83468 0.0
H188 H 0.91174 0.01273 0.84882 0.0
H189 H 0.84013 0.0409 0.79078 0.0
H190 H 0.17412 0.01627 0.7913 0.0
H191 H 0.11064 0.95272 0.84176 0.0
H192 H 0.94934 0.9872 0.69389 0.0
H193 H 0.93424 0.07742 0.74236 0.0
H194 H 0.91826 0.0253 0.66347 0.0
H195 H 0.90332 0.11398 0.71114 0.0
H196 H 0.0637 0.0095 0.69218 0.0
H197 H 0.09626 0.9465 0.75276 0.0
H198 H 0.11136 0.97555 0.66924 0.0
H199 H 0.14306 0.91342 0.72875 0.0
H200 H 0.03088 0.17345 0.72501 0.0
H201 H 0.02153 0.1035 0.664 0.0
H202 H 0.96486 0.83823 0.72212 0.0
H203 H 1.00447 0.90307 0.6636 0.0
H204 H 0.42667 0.10291 0.05325 0.0
H205 H 0.37505 0.10883 0.08121 0.0
H206 H 0.35994 0.98939 0.0804 0.0
H207 H 0.4114 0.98316 0.05297 0.0
H208 H 0.3014 0.09008 0.07933 0.0
H209 H 0.33813 0.95848 0.13362 0.0
H210 H 0.39399 0.92251 0.14493 0.0
H211 H 0.46187 0.02063 0.13738 0.0
H212 H 0.40634 0.05731 0.12635 0.0
H213 H 0.14682 0.02181 0.14386 0.0
H214 H 0.20108 0.03031 0.1186 0.0
H215 H 0.26647 0.06576 0.17765 0.0
H216 H 0.21216 0.05764 0.20305 0.0
H217 H 0.30386 0.01608 0.15253 0.0
H218 H 0.23777 0.12868 0.13685 0.0
H219 H 0.18351 0.16762 0.12645 0.0
H220 H 0.17747 0.11456 0.05952 0.0
H221 H 0.23138 0.07488 0.06964 0.0
C222 C 0.41235 0.07794 0.05907 0.0
C223 C 0.42344 0.04254 0.05103 0.0
C224 C 0.3828 0.08138 0.07498 0.0
C225 C 0.36401 0.0495 0.08316 0.0
C226 C 0.37449 0.01432 0.0747 0.0
C227 C 0.40394 0.01085 0.05893 0.0
C228 C 0.33358 0.05252 0.10067 0.0
C229 C 0.30197 0.07407 0.09539 0.0
C230 C 0.33463 0.0322 0.12185 0.0
C231 C 0.36808 0.01057 0.12901 0.0
C232 C 0.36493 0.97244 0.13452 0.0
C233 C 0.39655 0.95191 0.14085 0.0
C234 C 0.43147 0.96926 0.14182 0.0
C235 C 0.43482 0.00721 0.13655 0.0
C236 C 0.40329 0.02787 0.13024 0.0
C237 C 0.17256 0.03196 0.15145 0.0
C238 C 0.17506 0.0391 0.17552 0.0
C239 C 0.2036 0.03678 0.13696 0.0
C240 C 0.23778 0.04905 0.14617 0.0
C241 C 0.24039 0.05626 0.17016 0.0
C242 C 0.20935 0.05144 0.18467 0.0
C243 C 0.27114 0.05281 0.1309 0.0
C244 C 0.30334 0.03242 0.13659 0.0
C245 C 0.27079 0.07467 0.1103 0.0
C246 C 0.23846 0.0986 0.10409 0.0
C247 C 0.22471 0.12512 0.11998 0.0
C248 C 0.19404 0.14735 0.11412 0.0
C249 C 0.17701 0.14352 0.09236 0.0
C250 C 0.19068 0.11748 0.07638 0.0
C251 C 0.22132 0.09514 0.08216 0.0
H252 H 0.15326 0.16076 0.08786 0.0
H253 H 0.45592 0.9533 0.14668 0.0
H254 H 0.092 0.4073 0.5412 0.0
H255 H 0.09655 0.35499 0.56883 0.0
H256 H 0.99133 0.38695 0.59942 0.0
H257 H 0.98613 0.43853 0.5716 0.0
H258 H 0.05225 0.36754 0.63235 0.0
H259 H 0.98626 0.32216 0.56394 0.0
H260 H 0.97997 0.31068 0.52175 0.0
H261 H 0.07965 0.2441 0.52267 0.0
H262 H 0.08685 0.25572 0.56483 0.0
H263 H 0.99103 0.20991 0.6955 0.0
H264 H 0.99773 0.26412 0.6699 0.0
H265 H 0.08114 0.2055 0.62979 0.0
H266 H 0.07346 0.15072 0.65494 0.0
H267 H 0.03778 0.23911 0.60137 0.0
H268 H 0.10297 0.27855 0.66917 0.0
H269 H 0.11328 0.29057 0.71098 0.0
H270 H 0.02212 0.3684 0.71139 0.0
H271 H 0.01091 0.35646 0.66965 0.0
C272 C 0.07009 0.40338 0.554 0.0
C273 C 0.03863 0.42686 0.55419 0.0
C274 C 0.07268 0.37351 0.5697 0.0
C275 C 0.04421 0.36715 0.58609 0.0
C276 C 0.01359 0.39146 0.58692 0.0
C277 C 0.0106 0.42079 0.57096 0.0
C278 C 0.04514 0.33406 0.60161 0.0
C279 C 0.04887 0.33942 0.62569 0.0
C280 C 0.04185 0.29744 0.59273 0.0
C281 C 0.03735 0.29019 0.56746 0.0
C282 C 0.00703 0.30538 0.5551 0.0
C283 C 1.00326 0.29879 0.53121 0.0
C284 C 0.02946 0.27677 0.51952 0.0
C285 C 0.05942 0.26121 0.53173 0.0
C286 C 0.06336 0.26778 0.55562 0.0
C287 C 0.01098 0.20874 0.68132 0.0
C288 C 0.03181 0.17617 0.67725 0.0
C289 C 0.01494 0.2398 0.66673 0.0
C290 C 0.04047 0.2393 0.64809 0.0
C291 C 0.06129 0.2067 0.64403 0.0
C292 C 0.0569 0.1754 0.6584 0.0
C293 C 0.04451 0.27231 0.63243 0.0
C294 C 0.04164 0.26705 0.60822 0.0
C295 C 0.04924 0.30901 0.6412 0.0
C296 C 0.0559 0.31636 0.66631 0.0
C297 C 0.08494 0.29803 0.67821 0.0
C298 C 0.09098 0.30486 0.70189 0.0
C299 C 0.06832 0.33017 0.71384 0.0
C300 C 0.03963 0.34878 0.70212 0.0
C301 C 0.03345 0.34202 0.67844 0.0
H302 H 0.07304 0.33543 0.73218 0.0
H303 H 0.02649 0.2717 0.50103 0.0
H304 H 0.57479 0.03119 0.06996 0.0
H305 H 0.62616 0.02583 0.09766 0.0
H306 H 0.6427 0.91109 0.07751 0.0
H307 H 0.591 0.9162 0.04963 0.0
H308 H 0.64163 0.98049 0.13539 0.0
H309 H 0.74183 0.90063 0.07412 0.0
H310 H 0.74946 0.88876 0.03203 0.0
H311 H 0.69405 0.99202 0.01628 0.0
H312 H 0.68768 1.00535 0.05819 0.0
H313 H 0.80792 0.93259 0.19687 0.0
H314 H 0.75266 0.9278 0.17203 0.0
H315 H 0.79694 0.01347 0.12692 0.0
H316 H 0.85186 0.01903 0.15185 0.0
H317 H 0.76712 0.95597 0.10195 0.0
H318 H 0.7314 0.03511 0.16584 0.0
H319 H 0.72293 0.05166 0.20721 0.0
H320 H 0.64878 0.95855 0.21636 0.0
H321 H 0.65724 0.94113 0.17509 0.0
C322 C 0.58902 1.00464 0.07158 0.0
C323 C 0.57904 0.9742 0.05744 0.0
C324 C 0.61825 1.00158 0.08754 0.0
C325 C 0.63843 0.96819 0.0895 0.0
C326 C 0.62759 0.9372 0.07614 0.0
C327 C 0.59803 0.94013 0.06027 0.0
C328 C 0.67241 0.96705 0.10426 0.0
C329 C 0.66902 0.97472 0.12814 0.0
C330 C 0.70823 0.96034 0.09466 0.0
C331 C 0.71373 0.95365 0.06935 0.0
C332 C 0.73162 0.92098 0.06167 0.0
C333 C 0.73585 0.91407 0.03783 0.0
C334 C 0.72224 0.93962 0.02149 0.0
C335 C 0.7047 0.97231 0.02895 0.0
C336 C 0.70088 0.9796 0.05275 0.0
C337 C 0.80584 0.95062 0.18176 0.0
C338 C 0.83438 0.97632 0.17646 0.0
C339 C 0.77429 0.94768 0.16751 0.0
C340 C 0.77059 0.97041 0.14768 0.0
C341 C 0.79932 0.9955 0.14206 0.0
C342 C 0.83078 0.99856 0.15633 0.0
C343 C 0.7363 0.96898 0.13316 0.0
C344 C 0.73966 0.96104 0.10929 0.0
C345 C 0.7005 0.9761 0.14267 0.0
C346 C 0.69529 0.98658 0.16746 0.0
C347 C 0.71354 0.01798 0.17673 0.0
C348 C 0.7087 0.02756 0.20014 0.0
C349 C 0.68542 1.00611 0.21442 0.0
C350 C 0.66685 0.97509 0.20529 0.0
C351 C 0.67165 0.96537 0.18188 0.0
H352 H 0.6817 0.01357 0.23255 0.0
H353 H 0.72531 0.93411 1.00304 0.0
H354 H 0.02313 0.57071 0.57096 0.0
H355 H 0.01812 0.62294 0.59826 0.0
H356 H 0.91299 0.65459 0.56752 0.0
H357 H 0.91724 0.60156 0.54049 0.0
H358 H 0.97668 0.71307 0.57231 0.0
H359 H 0.90135 0.62386 0.61489 0.0
H360 H 0.88905 0.56247 0.63282 0.0
H361 H 0.98452 0.57591 0.67725 0.0
H362 H 0.99772 0.63717 0.65932 0.0
H363 H 0.94381 0.86168 0.65086 0.0
H364 H 0.93629 0.80741 0.6254 0.0
H365 H 0.00868 0.74331 0.67041 0.0
H366 H 0.01435 0.79702 0.69652 0.0
H367 H 0.95685 0.70048 0.65755 0.0
H368 H 0.03708 0.78387 0.61572 0.0
H369 H 0.05672 0.84313 0.59753 0.0
H370 H 0.96232 0.83896 0.55151 0.0
H371 H 0.94183 0.77988 0.56966 0.0
C372 C 0.99874 0.58854 0.57017 0.0
C373 C 0.97055 0.58209 0.55362 0.0
C374 C 0.99592 0.61829 0.58578 0.0
C375 C 0.96522 0.6425 0.58485 0.0
C376 C 0.93685 0.63607 0.56848 0.0
C377 C 0.93923 0.60574 0.55317 0.0
C378 C 0.96386 0.67539 0.6004 0.0
C379 C 0.97163 0.7106 0.5909 0.0
C380 C 0.95875 0.67165 0.6247 0.0
C381 C 0.95072 0.63494 0.63559 0.0
C382 C 0.91993 0.61357 0.62832 0.0
C383 C 0.91275 0.57883 0.63852 0.0
C384 C 0.93605 0.56525 0.65612 0.0
C385 C 0.96652 0.58644 0.6636 0.0
C386 C 0.97384 0.62119 0.65344 0.0
C387 C 0.95801 0.83591 0.65525 0.0
C388 C 0.97978 0.83344 0.67553 0.0
C389 C 0.9539 0.80495 0.64065 0.0
C390 C 0.97252 0.77129 0.64564 0.0
C391 C 0.99399 0.76883 0.66611 0.0
C392 C 0.99734 0.79952 0.68099 0.0
C393 C 0.96984 0.73871 0.62958 0.0
C394 C 0.96153 0.70336 0.63895 0.0
C395 C 0.97545 0.74218 0.60518 0.0
C396 C 0.9877 0.77768 0.59423 0.0
C397 C 0.02036 0.79574 0.60184 0.0
C398 C 0.03166 0.82927 0.59152 0.0
C399 C 0.01072 0.84486 0.57342 0.0
C400 C 0.97847 0.82689 0.56557 0.0
C401 C 0.96701 0.79337 0.57585 0.0
H402 H 0.01953 0.87082 0.56545 0.0
H403 H 0.93044 0.53835 0.664 0.0
H404 H 0.4332 0.03598 0.94672 0.0
H405 H 0.38105 0.03206 0.91963 0.0
H406 H 0.36921 0.91467 0.93475 0.0
H407 H 0.42219 0.91821 0.96179 0.0
H408 H 0.3588 0.9289 0.88863 0.0
H409 H 0.31179 0.97672 0.96035 0.0
H410 H 0.30996 0.01807 0.99464 0.0
H411 H 0.29435 0.11318 0.95007 0.0
H412 H 0.29669 0.07247 0.91546 0.0
H413 H 0.17282 0.92223 0.84199 0.0
H414 H 0.22701 0.91821 0.86791 0.0
H415 H 0.25148 0.03433 0.85502 0.0
H416 H 0.19707 0.0387 0.8294 0.0
H417 H 0.25361 0.01666 0.90154 0.0
H418 H 0.30297 0.96729 0.82964 0.0
H419 H 0.3043 0.9247 0.79593 0.0
H420 H 0.31362 0.83056 0.84198 0.0
H421 H 0.31182 0.87258 0.876 0.0
C422 C 0.41977 0.00919 0.9442 0.0
C423 C 0.43165 0.97746 0.95662 0.0
C424 C 0.38983 0.00705 0.92874 0.0
C425 C 0.3707 0.97326 0.92553 0.0
C426 C 0.38344 0.94109 0.93708 0.0
C427 C 0.41369 0.94316 0.95252 0.0
C428 C 0.33673 0.9722 0.91069 0.0
C429 C 0.33553 0.94767 0.89166 0.0
C430 C 0.3065 0.99697 0.91449 0.0
C431 C 0.30473 0.02155 0.93529 0.0
C432 C 0.30823 0.00649 0.95784 0.0
C433 C 0.30707 0.0298 0.97734 0.0
C434 C 0.30211 0.06823 0.97453 0.0
C435 C 0.29822 0.08341 0.95221 0.0
C436 C 0.29943 0.06022 0.93265 0.0
C437 C 0.18971 0.94692 0.84473 0.0
C438 C 0.18069 0.98078 0.83361 0.0
C439 C 0.22081 0.94451 0.8594 0.0
C440 C 0.24343 0.97591 0.86327 0.0
C441 C 0.23445 0.00973 0.85223 0.0
C442 C 0.20353 0.01211 0.83746 0.0
C443 C 0.27599 0.97389 0.87923 0.0
C444 C 0.27681 0.99778 0.89856 0.0
C445 C 0.30563 0.94832 0.8758 0.0
C446 C 0.30685 0.92305 0.85536 0.0
C447 C 0.30498 0.93748 0.83258 0.0
C448 C 0.30588 0.91345 0.81342 0.0
C449 C 0.30893 0.87494 0.81681 0.0
C450 C 0.3112 0.86039 0.83938 0.0
C451 C 0.31027 0.8843 0.85861 0.0
H452 H 0.30963 0.85638 0.80196 0.0
H453 H 0.30123 0.08624 0.98965 0.0
H454 H 0.03108 0.41496 0.45569 0.0
H455 H 0.02549 0.36487 0.42741 0.0
H456 H 0.90552 0.37527 0.42894 0.0
H457 H 0.91084 0.42551 0.45785 0.0
H458 H 0.92667 0.30282 0.43003 0.0
H459 H 0.95458 0.40798 0.38245 0.0
H460 H 0.9882 0.4648 0.37022 0.0
H461 H 0.08894 0.40132 0.36161 0.0
H462 H 0.05607 0.34418 0.37413 0.0
H463 H 0.91672 0.17977 0.33103 0.0
H464 H 0.90986 0.23512 0.35581 0.0
H465 H 0.02891 0.2369 0.36706 0.0
H466 H 0.03597 0.18195 0.34223 0.0
H467 H 1.00018 0.30666 0.3567 0.0
H468 H 0.97268 0.20317 0.40825 0.0
H469 H 0.93863 0.14663 0.42058 0.0
H470 H 0.83567 0.20804 0.42097 0.0
H471 H 0.86907 0.26486 0.40831 0.0
C472 C 1.00341 0.40684 0.45002 0.0
C473 C 0.97138 0.4245 0.45897 0.0
C474 C 1.00029 0.3782 0.43372 0.0
C475 C 0.96513 0.3667 0.42571 0.0
C476 C 0.93296 0.38385 0.43478 0.0
C477 C 0.93605 0.41261 0.45124 0.0
C478 C 0.96249 0.33627 0.40819 0.0
C479 C 0.9421 0.30398 0.41376 0.0
C480 C 0.983 0.33754 0.38708 0.0
C481 C 1.00288 0.37181 0.37938 0.0
C482 C 0.98397 0.40617 0.3781 0.0
C483 C 1.00289 0.43843 0.3711 0.0
C484 C 0.0407 0.43669 0.36518 0.0
C485 C 0.05965 0.40264 0.3662 0.0
C486 C 0.04087 0.37028 0.37322 0.0
C487 C 0.94142 0.19214 0.33868 0.0
C488 C 0.97688 0.17643 0.33476 0.0
C489 C 0.93744 0.22359 0.35294 0.0
C490 C 0.96886 0.23998 0.36339 0.0
C491 C 1.0043 0.22467 0.35919 0.0
C492 C 0.00825 0.19311 0.34514 0.0
C493 C 0.96512 0.273 0.37881 0.0
C494 C 0.98431 0.30578 0.37281 0.0
C495 C 0.94335 0.27223 0.39942 0.0
C496 C 0.92329 0.23812 0.40705 0.0
C497 C 0.94273 0.20453 0.41075 0.0
C498 C 0.92356 0.17245 0.41785 0.0
C499 C 0.88499 0.17371 0.42148 0.0
C500 C 0.86553 0.20709 0.41809 0.0
C501 C 0.88456 0.23923 0.41097 0.0
H502 H 0.8702 0.14885 0.42698 0.0
H503 H 0.0553 0.4617 0.35976 0.0
H504 H 0.61397 0.98571 0.97143 0.0
H505 H 0.66798 0.99113 0.94567 0.0
H506 H 0.63446 0.10279 0.92687 0.0
H507 H 0.58027 0.09778 0.95306 0.0
H508 H 0.65208 0.05529 0.88825 0.0
H509 H 0.70605 0.09542 0.96005 0.0
H510 H 0.72236 0.09282 1.00175 0.0
H511 H 0.78136 0.99003 0.99078 0.0
H512 H 0.76485 0.99162 0.94906 0.0
H513 H 0.81973 0.08377 0.82302 0.0
H514 H 0.76748 0.09125 0.85018 0.0
H515 H 0.79886 0.98895 0.88483 0.0
H516 H 0.85139 0.98175 0.85801 0.0
H517 H 0.78228 0.0393 0.91597 0.0
H518 H 0.72376 0.99478 0.84587 0.0
H519 H 0.70782 0.99544 0.80406 0.0
H520 H 0.65692 0.10323 0.8118 0.0
H521 H 0.673 0.10342 0.85362 0.0
C522 C 0.61805 0.0115 0.96187 0.0
C523 C 0.59276 0.0413 0.96421 0.0
C524 C 0.64907 0.0146 0.94725 0.0
C525 C 0.65531 0.04741 0.93446 0.0
C526 C 0.63013 0.07726 0.93666 0.0
C527 C 0.5993 0.07441 0.95163 0.0
C528 C 0.68758 0.04965 0.91829 0.0
C529 C 0.68065 0.05254 0.89429 0.0
C530 C 0.7247 0.04506 0.92621 0.0
C531 C 0.73397 0.04353 0.95142 0.0
C532 C 0.72216 0.07204 0.96656 0.0
C533 C 0.73155 0.07081 0.99019 0.0
C534 C 0.753 0.04135 0.99888 0.0
C535 C 0.76489 0.01292 0.98399 0.0
C536 C 0.7555 0.01396 0.96035 0.0
C537 C 0.81531 0.06279 0.83635 0.0
C538 C 0.83965 0.03215 0.83836 0.0
C539 C 0.78543 0.06707 0.85186 0.0
C540 C 0.77891 0.04045 0.86944 0.0
C541 C 0.80333 0.00995 0.87149 0.0
C542 C 0.83338 1.00586 0.85616 0.0
C543 C 0.74684 0.04423 0.8858 0.0
C544 C 0.75379 0.04242 0.90986 0.0
C545 C 0.70969 0.04938 0.87793 0.0
C546 C 0.69997 0.0493 0.8528 0.0
C547 C 0.70944 0.01875 0.83861 0.0
C548 C 0.70033 0.01895 0.81492 0.0
C549 C 0.68148 0.04941 0.80527 0.0
C550 C 0.67159 0.07969 0.8193 0.0
C551 C 0.68068 0.07965 0.84299 0.0
H552 H 0.67444 0.0495 0.78692 0.0
H553 H 0.76027 0.04047 0.01718 0.0
H554 H 0.0936 0.57305 0.45006 0.0
H555 H 0.09794 0.62342 0.42113 0.0
H556 H 0.98322 0.6532 0.43482 0.0
H557 H 0.97838 0.60246 0.46286 0.0
H558 H 0.99349 0.6545 0.39075 0.0
H559 H 0.06143 0.70377 0.4564 0.0
H560 H 0.11043 0.7043 0.48658 0.0
H561 H 0.19513 0.70186 0.43358 0.0
H562 H 0.14658 0.70086 0.40307 0.0
H563 H 0.98215 0.84199 0.35259 0.0
H564 H 0.98758 0.78644 0.37727 0.0
H565 H 0.09028 0.75677 0.34269 0.0
H566 H 0.08485 0.81235 0.31773 0.0
H567 H 0.09153 0.75226 0.39366 0.0
H568 H 0.0201 0.70941 0.32809 0.0
H569 H 0.969 0.71238 0.29937 0.0
H570 H 0.88817 0.70613 0.35457 0.0
H571 H 0.93881 0.7037 0.38366 0.0
C572 C 0.06937 0.5904 0.44686 0.0
C573 C 0.03564 0.58369 0.45873 0.0
C574 C 0.07191 0.61929 0.4304 0.0
C575 C 0.04098 0.64244 0.42588 0.0
C576 C 0.00743 0.63571 0.43783 0.0
C577 C 1.00474 0.60665 0.45395 0.0
C578 C 0.0429 0.67354 0.40862 0.0
C579 C 0.01483 0.67596 0.39158 0.0
C580 C 0.0712 0.70121 0.40918 0.0
C581 C 0.10039 0.70178 0.42748 0.0
C582 C 0.09051 0.70304 0.45119 0.0
C583 C 0.11819 0.70348 0.46835 0.0
C584 C 0.15587 0.70298 0.462 0.0
C585 C 0.16594 0.70216 0.43847 0.0
C586 C 0.13835 0.70168 0.42124 0.0
C587 C 1.00599 0.82374 0.35033 0.0
C588 C 0.03308 0.83145 0.33324 0.0
C589 C 0.00898 0.79197 0.36436 0.0
C590 C 0.03926 0.76748 0.36173 0.0
C591 C 0.06671 0.77536 0.34495 0.0
C592 C 0.06345 0.80691 0.33065 0.0
C593 C 0.04167 0.73343 0.37638 0.0
C594 C 0.07052 0.73047 0.39281 0.0
C595 C 0.01379 0.70553 0.37553 0.0
C596 C 0.98327 0.70668 0.35806 0.0
C597 C 0.99143 0.70897 0.33412 0.0
C598 C 0.96254 0.7105 0.31777 0.0
C599 C 0.92536 0.70952 0.32514 0.0
C600 C 0.91698 0.70691 0.34888 0.0
C601 C 0.94577 0.70541 0.36531 0.0
H602 H 0.90303 0.71071 0.31246 0.0
H603 H 0.17726 0.70333 0.47531 0.0
loop_
_geom_bond_atom_site_label_1
_geom_bond_atom_site_label_2
_geom_bond_distance
_geom_bond_site_symmetry_2
_ccdc_geom_bond_type
C0 O2 1.244 . S
C0 O4 1.261 1_565 S
C1 O8 1.251 . S
C1 O9 1.253 1_545 S
O2 C0 1.244 . S
O2 Zn3 2.028 1_556 S
Zn3 O2 2.028 1_554 S
Zn3 O7 2.035 1_554 S
Zn3 O9 2.035 . S
Zn3 O10 2.028 . S
O4 C0 1.261 1_545 S
O4 Zn5 2.035 1_556 S
Zn5 O4 2.035 1_554 S
Zn5 O6 2.028 1_554 S
Zn5 O8 2.028 . S
Zn5 O11 2.035 . S
O6 Zn5 2.028 1_556 S
O6 C12 1.252 . S
O7 Zn3 2.035 1_556 S
O7 C12 1.253 1_565 S
O8 C1 1.251 . S
O8 Zn5 2.028 . S
O9 C1 1.253 1_565 S
O9 Zn3 2.035 . S
O10 Zn3 2.028 . S
O10 C13 1.244 . S
O11 Zn5 2.035 . S
O11 C13 1.261 1_545 S
C12 O6 1.252 . S
C12 O7 1.253 1_545 S
C13 O10 1.244 . S
C13 O11 1.261 1_565 S
C14 O16 1.245 . S
C14 O18 1.260 1_655 S
C15 O22 1.251 . S
C15 O23 1.254 1_455 S
O16 C14 1.245 . S
O16 Zn17 2.028 . S
Zn17 O16 2.028 . S
Zn17 O21 2.035 . S
Zn17 O23 2.035 . S
Zn17 O24 2.028 . S
O18 C14 1.260 1_455 S
O18 Zn19 2.035 . S
Zn19 O18 2.035 . S
Zn19 O20 2.028 . S
Zn19 O22 2.028 . S
Zn19 O25 2.035 . S
O20 Zn19 2.028 . S
O20 C26 1.251 . S
O21 Zn17 2.035 . S
O21 C26 1.254 1_655 S
O22 C15 1.251 . S
O22 Zn19 2.028 . S
O23 C15 1.254 1_655 S
O23 Zn17 2.035 . S
O24 Zn17 2.028 . S
O24 C27 1.245 . S
O25 Zn19 2.035 . S
O25 C27 1.260 1_455 S
C26 O20 1.251 . S
C26 O21 1.254 1_455 S
C27 O24 1.245 . S
C27 O25 1.260 1_655 S
Li28 N45 1.990 . S
Li28 O88 1.956 1_545 S
Li28 O89 1.970 1_455 S
Li28 O90 1.961 1_455 S
Li29 N53 1.990 . S
Li29 O88 1.970 1_655 S
Li29 O89 1.956 1_565 S
Li29 O91 1.961 1_655 S
Li30 N75 1.990 . S
Li30 O88 1.961 1_545 S
Li30 O90 1.956 1_455 S
Li30 O91 1.970 1_545 S
Li31 N81 1.990 . S
Li31 O89 1.961 1_565 S
Li31 O90 1.970 1_565 S
Li31 O91 1.956 1_655 S
C32 C34 1.348 1_545 S
C32 C35 1.356 . S
C32 O88 1.325 1_545 S
N33 C36 1.314 1_545 S
N33 C37 1.279 . S
C34 C32 1.348 1_565 S
C34 C36 1.353 . S
C34 H92 0.929 . S
C35 C32 1.356 . S
C35 C37 1.358 . S
C35 H93 0.930 . S
C36 N33 1.314 1_565 S
C36 C34 1.353 . S
C36 H94 0.930 . S
C37 N33 1.279 . S
C37 C35 1.358 . S
C37 H95 0.930 . S
C38 C41 1.348 . S
C38 C42 1.355 1_545 S
C38 O89 1.325 . S
C39 N40 1.279 . S
C39 C42 1.358 . S
C39 H96 0.930 . S
N40 C39 1.279 . S
N40 C43 1.314 1_565 S
C41 C38 1.348 . S
C41 C43 1.353 . S
C41 H97 0.929 . S
C42 C38 1.355 1_565 S
C42 C39 1.358 . S
C42 H98 0.930 . S
C43 N40 1.314 1_545 S
C43 C41 1.353 . S
C43 H99 0.930 . S
C44 N45 1.314 1_655 S
C44 C49 1.353 . S
C44 H50 0.930 . S
N45 Li28 1.990 . S
N45 C44 1.314 1_455 S
N45 C47 1.279 . S
C46 C47 1.358 . S
C46 C48 1.356 . S
C46 H100 0.930 . S
C47 N45 1.279 . S
C47 C46 1.358 . S
C47 H51 0.930 . S
C48 C46 1.356 . S
C48 C49 1.348 1_455 S
C49 C44 1.353 . S
C49 C48 1.348 1_655 S
C49 H101 0.929 . S
H50 C44 0.930 . S
H51 C47 0.930 . S
C52 N53 1.314 1_455 S
C52 C54 1.353 . S
C52 H58 0.930 . S
N53 Li29 1.990 . S
N53 C52 1.314 1_655 S
N53 C56 1.279 . S
C54 C52 1.353 . S
C54 C57 1.348 . S
C54 H102 0.929 . S
C55 C56 1.358 . S
C55 C57 1.356 1_655 S
C55 H103 0.930 . S
C56 N53 1.279 . S
C56 C55 1.358 . S
C56 H59 0.930 . S
C57 C54 1.348 . S
C57 C55 1.356 1_455 S
H58 C52 0.930 . S
H59 C56 0.930 . S
C60 C62 1.348 1_455 S
C60 C63 1.356 . S
C60 O90 1.325 1_455 S
N61 C64 1.314 1_455 S
N61 C65 1.279 . S
C62 C60 1.348 1_655 S
C62 C64 1.353 . S
C62 H104 0.929 . S
C63 C60 1.356 . S
C63 C65 1.358 . S
C63 H105 0.930 . S
C64 N61 1.314 1_655 S
C64 C62 1.353 . S
C64 H106 0.930 . S
C65 N61 1.279 . S
C65 C63 1.358 . S
C65 H107 0.930 . S
C66 C67 1.348 . S
C66 C68 1.356 1_455 S
C66 O91 1.325 . S
C67 C66 1.348 . S
C67 C69 1.353 . S
C67 H108 0.929 . S
C68 C66 1.356 1_655 S
C68 C70 1.358 . S
C68 H109 0.930 . S
C69 C67 1.353 . S
C69 N71 1.314 1_455 S
C69 H110 0.930 . S
C70 C68 1.358 . S
C70 N71 1.279 . S
C70 H111 0.930 . S
N71 C69 1.314 1_655 S
N71 C70 1.279 . S
C72 C74 1.353 . S
C72 N75 1.314 1_565 S
C72 H78 0.930 . S
C73 N75 1.279 . S
C73 C76 1.358 . S
C73 H79 0.930 . S
C74 C72 1.353 . S
C74 C77 1.348 1_565 S
C74 H112 0.929 . S
N75 Li30 1.990 . S
N75 C72 1.314 1_545 S
N75 C73 1.279 . S
C76 C73 1.358 . S
C76 C77 1.356 . S
C76 H113 0.930 . S
C77 C74 1.348 1_545 S
C77 C76 1.356 . S
H78 C72 0.930 . S
H79 C73 0.930 . S
C80 N81 1.314 1_545 S
C80 C82 1.353 . S
C80 H86 0.930 . S
N81 Li31 1.990 . S
N81 C80 1.314 1_565 S
N81 C84 1.279 . S
C82 C80 1.353 . S
C82 C85 1.348 . S
C82 H114 0.929 . S
C83 C84 1.358 . S
C83 C85 1.355 1_565 S
C83 H115 0.930 . S
C84 N81 1.279 . S
C84 C83 1.358 . S
C84 H87 0.930 . S
C85 C82 1.348 . S
C85 C83 1.355 1_545 S
H86 C80 0.930 . S
H87 C84 0.930 . S
O88 Li28 1.956 1_565 S
O88 Li29 1.970 1_455 S
O88 Li30 1.961 1_565 S
O88 C32 1.325 1_565 S
O89 Li28 1.970 1_655 S
O89 Li29 1.956 1_545 S
O89 Li31 1.961 1_545 S
O89 C38 1.325 . S
O90 Li28 1.961 1_655 S
O90 Li30 1.956 1_655 S
O90 Li31 1.970 1_545 S
O90 C60 1.325 1_655 S
O91 Li29 1.961 1_455 S
O91 Li30 1.970 1_565 S
O91 Li31 1.956 1_455 S
O91 C66 1.325 . S
H92 C34 0.929 . S
H93 C35 0.930 . S
H94 C36 0.930 . S
H95 C37 0.930 . S
H96 C39 0.930 . S
H97 C41 0.929 . S
H98 C42 0.930 . S
H99 C43 0.930 . S
H100 C46 0.930 . S
H101 C49 0.929 . S
H102 C54 0.929 . S
H103 C55 0.930 . S
H104 C62 0.929 . S
H105 C63 0.930 . S
H106 C64 0.930 . S
H107 C65 0.930 . S
H108 C67 0.929 . S
H109 C68 0.930 . S
H110 C69 0.930 . S
H111 C70 0.930 . S
H112 C74 0.929 . S
H113 C76 0.930 . S
H114 C82 0.929 . S
H115 C83 0.930 . S
Li116 N133 1.990 . S
Li116 O176 1.956 1_655 S
Li116 O177 1.970 1_545 S
Li116 O178 1.961 1_545 S
Li117 N141 1.990 . S
Li117 O176 1.970 1_565 S
Li117 O177 1.956 1_455 S
Li117 O179 1.961 1_565 S
Li118 N163 1.990 . S
Li118 O176 1.961 1_655 S
Li118 O178 1.956 1_545 S
Li118 O179 1.970 1_655 S
Li119 N169 1.990 . S
Li119 O177 1.961 1_455 S
Li119 O178 1.970 1_455 S
Li119 O179 1.956 1_565 S
C120 C122 1.348 . S
C120 C123 1.356 1_455 S
C120 O176 1.325 . S
N121 C124 1.314 1_655 S
N121 C125 1.279 . S
C122 C120 1.348 . S
C122 C124 1.353 . S
C122 H180 0.929 . S
C123 C120 1.356 1_655 S
C123 C125 1.358 . S
C123 H181 0.930 . S
C124 N121 1.314 1_455 S
C124 C122 1.353 . S
C124 H182 0.930 . S
C125 N121 1.279 . S
C125 C123 1.358 . S
C125 H183 0.930 . S
C126 C129 1.348 1_455 S
C126 C130 1.356 . S
C126 O177 1.325 1_455 S
C127 N128 1.279 . S
C127 C130 1.358 . S
C127 H184 0.930 . S
N128 C127 1.279 . S
N128 C131 1.314 1_455 S
C129 C126 1.348 1_655 S
C129 C131 1.353 . S
C129 H185 0.929 . S
C130 C126 1.356 . S
C130 C127 1.358 . S
C130 H186 0.930 . S
C131 N128 1.314 1_655 S
C131 C129 1.353 . S
C131 H187 0.930 . S
C132 N133 1.314 1_565 S
C132 C137 1.353 . S
C132 H138 0.930 . S
N133 Li116 1.990 . S
N133 C132 1.314 1_545 S
N133 C135 1.279 . S
C134 C135 1.358 . S
C134 C136 1.356 . S
C134 H188 0.930 . S
C135 N133 1.279 . S
C135 C134 1.358 . S
C135 H139 0.930 . S
C136 C134 1.356 . S
C136 C137 1.348 1_545 S
C137 C132 1.353 . S
C137 C136 1.348 1_565 S
C137 H189 0.929 . S
H138 C132 0.930 . S
H139 C135 0.930 . S
C140 N141 1.314 1_545 S
C140 C142 1.353 . S
C140 H146 0.930 . S
N141 Li117 1.990 . S
N141 C140 1.314 1_565 S
N141 C144 1.279 . S
C142 C140 1.353 . S
C142 C145 1.348 . S
C142 H190 0.929 . S
C143 C144 1.358 . S
C143 C145 1.355 1_565 S
C143 H191 0.930 . S
C144 N141 1.279 . S
C144 C143 1.358 . S
C144 H147 0.930 . S
C145 C142 1.348 . S
C145 C143 1.355 1_545 S
H146 C140 0.930 . S
H147 C144 0.930 . S
C148 C150 1.348 1_545 S
C148 C151 1.356 . S
C148 O178 1.325 1_545 S
N149 C152 1.314 1_545 S
N149 C153 1.279 . S
C150 C148 1.348 1_565 S
C150 C152 1.353 . S
C150 H192 0.929 . S
C151 C148 1.356 . S
C151 C153 1.358 . S
C151 H193 0.930 . S
C152 N149 1.314 1_565 S
C152 C150 1.353 . S
C152 H194 0.930 . S
C153 N149 1.279 . S
C153 C151 1.358 . S
C153 H195 0.930 . S
C154 C155 1.348 . S
C154 C156 1.355 1_545 S
C154 O179 1.325 . S
C155 C154 1.348 . S
C155 C157 1.353 . S
C155 H196 0.929 . S
C156 C154 1.355 1_565 S
C156 C158 1.358 . S
C156 H197 0.930 . S
C157 C155 1.353 . S
C157 N159 1.314 1_545 S
C157 H198 0.930 . S
C158 C156 1.358 . S
C158 N159 1.279 . S
C158 H199 0.930 . S
N159 C157 1.314 1_565 S
N159 C158 1.279 . S
C160 C162 1.353 . S
C160 N163 1.314 1_455 S
C160 H166 0.930 . S
C161 N163 1.279 . S
C161 C164 1.358 . S
C161 H167 0.930 . S
C162 C160 1.353 . S
C162 C165 1.348 . S
C162 H200 0.929 . S
N163 Li118 1.990 . S
N163 C160 1.314 1_655 S
N163 C161 1.279 . S
C164 C161 1.358 . S
C164 C165 1.356 1_655 S
C164 H201 0.930 . S
C165 C162 1.348 . S
C165 C164 1.356 1_455 S
H166 C160 0.930 . S
H167 C161 0.930 . S
C168 N169 1.314 1_655 S
C168 C170 1.353 . S
C168 H174 0.930 . S
N169 Li119 1.990 . S
N169 C168 1.314 1_455 S
N169 C172 1.279 . S
C170 C168 1.353 . S
C170 C173 1.348 1_655 S
C170 H202 0.929 . S
C171 C172 1.358 . S
C171 C173 1.356 . S
C171 H203 0.930 . S
C172 N169 1.279 . S
C172 C171 1.358 . S
C172 H175 0.930 . S
C173 C170 1.348 1_455 S
C173 C171 1.356 . S
H174 C168 0.930 . S
H175 C172 0.930 . S
O176 Li116 1.956 1_455 S
O176 Li117 1.970 1_545 S
O176 Li118 1.961 1_455 S
O176 C120 1.325 . S
O177 Li116 1.970 1_565 S
O177 Li117 1.956 1_655 S
O177 Li119 1.961 1_655 S
O177 C126 1.325 1_655 S
O178 Li116 1.961 1_565 S
O178 Li118 1.956 1_565 S
O178 Li119 1.970 1_655 S
O178 C148 1.325 1_565 S
O179 Li117 1.961 1_545 S
O179 Li118 1.970 1_455 S
O179 Li119 1.956 1_545 S
O179 C154 1.325 . S
H180 C122 0.929 . S
H181 C123 0.930 . S
H182 C124 0.930 . S
H183 C125 0.930 . S
H184 C127 0.930 . S
H185 C129 0.929 . S
H186 C130 0.930 . S
H187 C131 0.930 . S
H188 C134 0.930 . S
H189 C137 0.929 . S
H190 C142 0.929 . S
H191 C143 0.930 . S
H192 C150 0.929 . S
H193 C151 0.930 . S
H194 C152 0.930 . S
H195 C153 0.930 . S
H196 C155 0.929 . S
H197 C156 0.930 . S
H198 C157 0.930 . S
H199 C158 0.930 . S
H200 C162 0.929 . S
H201 C164 0.930 . S
H202 C170 0.929 . S
H203 C171 0.930 . S
H204 C222 0.952 . S
H205 C224 0.951 . S
H206 C226 0.950 1_545 S
H207 C227 0.950 . S
H208 C229 0.950 . S
H209 C232 0.950 . S
H210 C233 0.950 . S
H211 C235 0.950 . S
H212 C236 0.950 . S
H213 C237 0.951 . S
H214 C239 0.951 . S
H215 C241 0.951 . S
H216 C242 0.951 . S
H217 C244 0.950 . S
H218 C247 0.950 . S
H219 C248 0.950 . S
H220 C250 0.950 . S
H221 C251 0.950 . S
C222 H204 0.952 . S
C222 C223 1.365 1_565 S
C222 C224 1.389 . S
C223 C222 1.365 1_545 S
C223 C227 1.385 . S
C224 H205 0.951 . S
C224 C222 1.389 . S
C224 C225 1.366 . S
C225 C224 1.366 . S
C225 C226 1.414 . S
C225 C228 1.499 . S
C226 H206 0.950 1_565 S
C226 C225 1.414 . S
C226 C227 1.374 1_565 S
C227 H207 0.950 . S
C227 C223 1.385 . S
C227 C226 1.374 1_545 S
C228 C225 1.499 . S
C228 C229 1.373 1_565 S
C228 C230 1.389 . S
C229 H208 0.950 . S
C229 C228 1.373 1_545 S
C229 C245 1.377 . S
C230 C228 1.389 . S
C230 C231 1.524 . S
C230 C244 1.377 . S
C231 C230 1.524 . S
C231 C232 1.397 . S
C231 C236 1.363 . S
C232 H209 0.950 . S
C232 C231 1.397 . S
C232 C233 1.334 . S
C233 H210 0.950 . S
C233 C232 1.334 . S
C233 C234 1.287 . S
C234 C233 1.287 . S
C234 C235 1.524 . S
C234 H253 0.913 . S
C235 H211 0.950 . S
C235 C234 1.524 . S
C235 C236 1.415 . S
C236 H212 0.950 . S
C236 C231 1.363 . S
C236 C235 1.415 . S
C237 H213 0.951 . S
C237 C238 1.365 1_545 S
C237 C239 1.388 . S
C238 C237 1.365 1_565 S
C238 C242 1.385 . S
C239 H214 0.951 . S
C239 C237 1.388 . S
C239 C240 1.366 . S
C240 C239 1.366 . S
C240 C241 1.413 1_545 S
C240 C243 1.499 . S
C241 H215 0.951 . S
C241 C240 1.413 1_565 S
C241 C242 1.374 . S
C242 H216 0.951 . S
C242 C238 1.385 . S
C242 C241 1.374 . S
C243 C240 1.499 . S
C243 C244 1.373 1_545 S
C243 C245 1.389 . S
C244 H217 0.950 . S
C244 C230 1.377 . S
C244 C243 1.373 1_565 S
C245 C229 1.377 . S
C245 C243 1.389 . S
C245 C246 1.524 . S
C246 C245 1.524 . S
C246 C247 1.397 . S
C246 C251 1.363 . S
C247 H218 0.950 . S
C247 C246 1.397 . S
C247 C248 1.334 . S
C248 H219 0.950 . S
C248 C247 1.334 . S
C248 C249 1.287 . S
C249 C248 1.287 . S
C249 C250 1.524 . S
C249 H252 0.999 . S
C250 H220 0.950 . S
C250 C249 1.524 . S
C250 C251 1.415 . S
C251 H221 0.950 . S
C251 C246 1.363 . S
C251 C250 1.415 . S
H252 C249 0.999 . S
H253 C234 0.913 . S
H254 C272 0.951 . S
H255 C274 0.951 . S
H256 C276 0.950 . S
H257 C277 0.950 . S
H258 C279 0.950 . S
H259 C282 0.950 . S
H260 C283 0.950 . S
H261 C285 0.950 . S
H262 C286 0.950 . S
H263 C287 0.951 . S
H264 C289 0.951 . S
H265 C291 0.950 . S
H266 C292 0.950 . S
H267 C294 0.950 . S
H268 C297 0.950 . S
H269 C298 0.950 . S
H270 C300 0.950 . S
H271 C301 0.950 . S
C272 H254 0.951 . S
C272 C273 1.367 . S
C272 C274 1.388 . S
C273 C272 1.367 . S
C273 C277 1.383 1_455 S
C274 H255 0.951 . S
C274 C272 1.388 . S
C274 C275 1.366 1_455 S
C275 C274 1.366 1_655 S
C275 C276 1.414 . S
C275 C278 1.499 . S
C276 H256 0.950 . S
C276 C275 1.414 . S
C276 C277 1.374 . S
C277 H257 0.950 . S
C277 C273 1.383 1_655 S
C277 C276 1.374 . S
C278 C275 1.499 . S
C278 C279 1.373 1_655 S
C278 C280 1.389 . S
C279 H258 0.950 . S
C279 C278 1.373 1_455 S
C279 C295 1.377 . S
C280 C278 1.389 . S
C280 C281 1.524 . S
C280 C294 1.377 . S
C281 C280 1.524 . S
C281 C282 1.397 . S
C281 C286 1.363 . S
C282 H259 0.950 . S
C282 C281 1.397 . S
C282 C283 1.334 . S
C283 H260 0.950 . S
C283 C282 1.334 . S
C283 C284 1.287 . S
C284 C283 1.287 . S
C284 C285 1.524 . S
C284 H303 0.913 . S
C285 H261 0.950 . S
C285 C284 1.524 . S
C285 C286 1.415 . S
C286 H262 0.950 . S
C286 C281 1.363 . S
C286 C285 1.415 . S
C287 H263 0.951 . S
C287 C288 1.356 1_655 S
C287 C289 1.388 . S
C288 C287 1.356 1_455 S
C288 C292 1.395 . S
C289 H264 0.951 . S
C289 C287 1.388 . S
C289 C290 1.366 1_655 S
C290 C289 1.366 1_455 S
C290 C291 1.414 . S
C290 C293 1.499 . S
C291 H265 0.950 . S
C291 C290 1.414 . S
C291 C292 1.374 . S
C292 H266 0.950 . S
C292 C288 1.395 . S
C292 C291 1.374 . S
C293 C290 1.499 . S
C293 C294 1.373 1_455 S
C293 C295 1.389 . S
C294 H267 0.950 . S
C294 C280 1.377 . S
C294 C293 1.373 1_655 S
C295 C279 1.377 . S
C295 C293 1.389 . S
C295 C296 1.524 . S
C296 C295 1.524 . S
C296 C297 1.397 . S
C296 C301 1.363 . S
C297 H268 0.950 . S
C297 C296 1.397 . S
C297 C298 1.334 . S
C298 H269 0.950 . S
C298 C297 1.334 . S
C298 C299 1.287 . S
C299 C298 1.287 . S
C299 C300 1.524 . S
C299 H302 0.999 . S
C300 H270 0.950 . S
C300 C299 1.524 . S
C300 C301 1.415 . S
C301 H271 0.950 . S
C301 C296 1.363 . S
C301 C300 1.415 . S
H302 C299 0.999 . S
H303 C284 0.913 . S
H304 C322 0.951 . S
H305 C324 0.953 . S
H306 C326 0.950 . S
H307 C327 0.950 . S
H308 C329 0.950 . S
H309 C332 0.950 . S
H310 C333 0.950 . S
H311 C335 0.950 . S
H312 C336 0.950 . S
H313 C337 0.952 . S
H314 C339 0.951 1_565 S
H315 C341 0.950 . S
H316 C342 0.950 . S
H317 C344 0.950 . S
H318 C347 0.950 . S
H319 C348 0.950 . S
H320 C350 0.950 . S
H321 C351 0.950 . S
C322 H304 0.951 . S
C322 C323 1.366 . S
C322 C324 1.389 . S
C323 C322 1.366 . S
C323 C327 1.384 1_545 S
C324 H305 0.953 . S
C324 C322 1.389 . S
C324 C325 1.364 1_545 S
C325 C324 1.364 1_565 S
C325 C326 1.414 . S
C325 C328 1.499 . S
C326 H306 0.950 . S
C326 C325 1.414 . S
C326 C327 1.374 . S
C327 H307 0.950 . S
C327 C323 1.384 1_565 S
C327 C326 1.374 . S
C328 C325 1.499 . S
C328 C329 1.373 1_565 S
C328 C330 1.389 . S
C329 H308 0.950 . S
C329 C328 1.373 1_545 S
C329 C345 1.377 . S
C330 C328 1.389 . S
C330 C331 1.524 . S
C330 C344 1.377 . S
C331 C330 1.524 . S
C331 C332 1.397 . S
C331 C336 1.363 . S
C332 H309 0.950 . S
C332 C331 1.397 . S
C332 C333 1.334 . S
C333 H310 0.950 . S
C333 C332 1.334 . S
C333 C334 1.287 . S
C334 C333 1.287 . S
C334 C335 1.524 . S
C334 H353 0.913 . S
C335 H311 0.950 . S
C335 C334 1.524 . S
C335 C336 1.415 . S
C336 H312 0.950 . S
C336 C331 1.363 . S
C336 C335 1.415 . S
C337 H313 0.952 . S
C337 C338 1.365 1_565 S
C337 C339 1.387 1_565 S
C338 C337 1.365 1_545 S
C338 C342 1.386 . S
C339 H314 0.951 1_545 S
C339 C337 1.387 1_545 S
C339 C340 1.366 . S
C340 C339 1.366 . S
C340 C341 1.414 . S
C340 C343 1.499 . S
C341 H315 0.950 . S
C341 C340 1.414 . S
C341 C342 1.374 . S
C342 H316 0.950 . S
C342 C338 1.386 . S
C342 C341 1.374 . S
C343 C340 1.499 . S
C343 C344 1.373 1_545 S
C343 C345 1.389 . S
C344 H317 0.950 . S
C344 C330 1.377 . S
C344 C343 1.373 1_565 S
C345 C329 1.377 . S
C345 C343 1.389 . S
C345 C346 1.524 . S
C346 C345 1.524 . S
C346 C347 1.397 . S
C346 C351 1.363 . S
C347 H318 0.950 . S
C347 C346 1.397 . S
C347 C348 1.334 . S
C348 H319 0.950 . S
C348 C347 1.334 . S
C348 C349 1.287 . S
C349 C348 1.287 . S
C349 C350 1.524 . S
C349 H352 0.999 . S
C350 H320 0.950 . S
C350 C349 1.524 . S
C350 C351 1.415 . S
C351 H321 0.950 . S
C351 C346 1.363 . S
C351 C350 1.415 . S
H352 C349 0.999 . S
H353 C334 0.913 . S
H354 C372 0.951 . S
H355 C374 0.951 . S
H356 C376 0.950 . S
H357 C377 0.950 . S
H358 C379 0.950 . S
H359 C382 0.950 . S
H360 C383 0.950 . S
H361 C385 0.950 1_455 S
H362 C386 0.950 . S
H363 C387 0.951 . S
H364 C389 0.951 . S
H365 C391 0.950 . S
H366 C392 0.950 . S
H367 C394 0.950 . S
H368 C397 0.950 . S
H369 C398 0.950 . S
H370 C400 0.950 1_655 S
H371 C401 0.950 . S
C372 H354 0.951 . S
C372 C373 1.366 . S
C372 C374 1.388 . S
C373 C372 1.366 . S
C373 C377 1.385 1_455 S
C374 H355 0.951 . S
C374 C372 1.388 . S
C374 C375 1.366 1_455 S
C375 C374 1.366 1_655 S
C375 C376 1.414 . S
C375 C378 1.499 . S
C376 H356 0.950 . S
C376 C375 1.414 . S
C376 C377 1.374 . S
C377 H357 0.950 . S
C377 C373 1.385 1_655 S
C377 C376 1.374 . S
C378 C375 1.499 . S
C378 C379 1.373 1_655 S
C378 C380 1.389 . S
C379 H358 0.950 . S
C379 C378 1.373 1_455 S
C379 C395 1.377 . S
C380 C378 1.389 . S
C380 C381 1.524 . S
C380 C394 1.377 . S
C381 C380 1.524 . S
C381 C382 1.397 . S
C381 C386 1.363 1_655 S
C382 H359 0.950 . S
C382 C381 1.397 . S
C382 C383 1.334 . S
C383 H360 0.950 . S
C383 C382 1.334 . S
C383 C384 1.287 . S
C384 C383 1.287 . S
C384 C385 1.524 . S
C384 H403 0.913 . S
C385 H361 0.950 1_655 S
C385 C384 1.524 . S
C385 C386 1.415 1_655 S
C386 H362 0.950 . S
C386 C381 1.363 1_455 S
C386 C385 1.415 1_455 S
C387 H363 0.951 . S
C387 C388 1.378 . S
C387 C389 1.388 . S
C388 C387 1.378 . S
C388 C392 1.372 1_655 S
C389 H364 0.951 . S
C389 C387 1.388 . S
C389 C390 1.366 1_655 S
C390 C389 1.366 1_455 S
C390 C391 1.414 . S
C390 C393 1.499 . S
C391 H365 0.950 . S
C391 C390 1.414 . S
C391 C392 1.374 . S
C392 H366 0.950 . S
C392 C388 1.372 1_455 S
C392 C391 1.374 . S
C393 C390 1.499 . S
C393 C394 1.373 1_455 S
C393 C395 1.389 . S
C394 H367 0.950 . S
C394 C380 1.377 . S
C394 C393 1.373 1_655 S
C395 C379 1.377 . S
C395 C393 1.389 . S
C395 C396 1.524 . S
C396 C395 1.524 . S
C396 C397 1.397 . S
C396 C401 1.363 1_455 S
C397 H368 0.950 . S
C397 C396 1.397 . S
C397 C398 1.334 . S
C398 H369 0.950 . S
C398 C397 1.334 . S
C398 C399 1.287 . S
C399 C398 1.287 . S
C399 C400 1.524 . S
C399 H402 0.999 . S
C400 H370 0.950 1_455 S
C400 C399 1.524 . S
C400 C401 1.415 1_455 S
C401 H371 0.950 . S
C401 C396 1.363 1_655 S
C401 C400 1.415 1_655 S
H402 C399 0.999 . S
H403 C384 0.913 . S
H404 C422 0.951 . S
H405 C424 0.951 . S
H406 C426 0.950 . S
H407 C427 0.950 . S
H408 C429 0.950 . S
H409 C432 0.950 . S
H410 C433 0.950 . S
H411 C435 0.950 . S
H412 C436 0.950 . S
H413 C437 0.951 . S
H414 C439 0.951 . S
H415 C441 0.950 . S
H416 C442 0.950 . S
H417 C444 0.950 . S
H418 C447 0.950 . S
H419 C448 0.950 . S
H420 C450 0.950 . S
H421 C451 0.950 . S
C422 H404 0.951 . S
C422 C423 1.367 . S
C422 C424 1.388 . S
C423 C422 1.367 . S
C423 C427 1.384 1_545 S
C424 H405 0.951 . S
C424 C422 1.388 . S
C424 C425 1.386 . S
C425 C424 1.386 . S
C425 C426 1.393 1_545 S
C425 C428 1.498 1_545 S
C426 H406 0.950 . S
C426 C425 1.393 1_565 S
C426 C427 1.374 . S
C427 H407 0.950 . S
C427 C423 1.384 1_565 S
C427 C426 1.374 . S
C428 C425 1.498 1_565 S
C428 C429 1.375 . S
C428 C430 1.388 1_565 S
C429 H408 0.950 . S
C429 C428 1.375 . S
C429 C445 1.377 . S
C430 C428 1.388 1_545 S
C430 C431 1.524 . S
C430 C444 1.377 . S
C431 C430 1.524 . S
C431 C432 1.397 . S
C431 C436 1.363 . S
C432 H409 0.950 . S
C432 C431 1.397 . S
C432 C433 1.334 . S
C433 H410 0.950 . S
C433 C432 1.334 . S
C433 C434 1.287 . S
C434 C433 1.287 . S
C434 C435 1.524 . S
C434 H453 0.913 . S
C435 H411 0.950 . S
C435 C434 1.524 . S
C435 C436 1.415 . S
C436 H412 0.950 . S
C436 C431 1.363 . S
C436 C435 1.415 . S
C437 H413 0.951 . S
C437 C438 1.341 1_565 S
C437 C439 1.388 . S
C438 C437 1.341 1_545 S
C438 C442 1.410 . S
C439 H414 0.951 . S
C439 C437 1.388 . S
C439 C440 1.360 1_565 S
C440 C439 1.360 1_545 S
C440 C441 1.419 . S
C440 C443 1.499 . S
C441 H415 0.950 . S
C441 C440 1.419 . S
C441 C442 1.374 . S
C442 H416 0.950 . S
C442 C438 1.410 . S
C442 C441 1.374 . S
C443 C440 1.499 . S
C443 C444 1.373 . S
C443 C445 1.389 1_545 S
C444 H417 0.950 . S
C444 C430 1.377 . S
C444 C443 1.373 . S
C445 C429 1.377 . S
C445 C443 1.389 1_565 S
C445 C446 1.524 . S
C446 C445 1.524 . S
C446 C447 1.397 . S
C446 C451 1.363 . S
C447 H418 0.950 . S
C447 C446 1.397 . S
C447 C448 1.334 . S
C448 H419 0.950 . S
C448 C447 1.334 . S
C448 C449 1.287 . S
C449 C448 1.287 . S
C449 C450 1.524 . S
C449 H452 0.999 . S
C450 H420 0.950 . S
C450 C449 1.524 . S
C450 C451 1.415 . S
C451 H421 0.950 . S
C451 C446 1.363 . S
C451 C450 1.415 . S
H452 C449 0.999 . S
H453 C434 0.913 . S
H454 C472 0.951 . S
H455 C474 0.951 . S
H456 C476 0.950 . S
H457 C477 0.950 . S
H458 C479 0.950 . S
H459 C482 0.950 1_655 S
H460 C483 0.950 . S
H461 C485 0.950 . S
H462 C486 0.950 . S
H463 C487 0.951 . S
H464 C489 0.951 . S
H465 C491 0.950 . S
H466 C492 0.950 . S
H467 C494 0.950 . S
H468 C497 0.950 1_455 S
H469 C498 0.950 . S
H470 C500 0.950 . S
H471 C501 0.950 . S
C472 H454 0.951 . S
C472 C473 1.364 . S
C472 C474 1.388 . S
C473 C472 1.364 . S
C473 C477 1.386 1_455 S
C474 H455 0.951 . S
C474 C472 1.388 . S
C474 C475 1.358 1_455 S
C475 C474 1.358 1_655 S
C475 C476 1.422 . S
C475 C478 1.499 . S
C476 H456 0.950 . S
C476 C475 1.422 . S
C476 C477 1.374 . S
C477 H457 0.950 . S
C477 C473 1.386 1_655 S
C477 C476 1.374 . S
C478 C475 1.499 . S
C478 C479 1.373 . S
C478 C480 1.389 1_655 S
C479 H458 0.950 . S
C479 C478 1.373 . S
C479 C495 1.377 . S
C480 C478 1.389 1_455 S
C480 C481 1.524 . S
C480 C494 1.377 . S
C481 C480 1.524 . S
C481 C482 1.397 . S
C481 C486 1.363 . S
C482 H459 0.950 1_455 S
C482 C481 1.397 . S
C482 C483 1.334 . S
C483 H460 0.950 . S
C483 C482 1.334 . S
C483 C484 1.287 . S
C484 C483 1.287 . S
C484 C485 1.524 . S
C484 H503 0.913 . S
C485 H461 0.950 . S
C485 C484 1.524 . S
C485 C486 1.415 . S
C486 H462 0.950 . S
C486 C481 1.363 . S
C486 C485 1.415 . S
C487 H463 0.951 . S
C487 C488 1.384 . S
C487 C489 1.388 . S
C488 C487 1.384 . S
C488 C492 1.366 1_655 S
C489 H464 0.951 . S
C489 C487 1.388 . S
C489 C490 1.372 . S
C490 C489 1.372 . S
C490 C491 1.408 1_655 S
C490 C493 1.498 1_655 S
C491 H465 0.950 . S
C491 C490 1.408 1_455 S
C491 C492 1.374 . S
C492 H466 0.950 . S
C492 C488 1.366 1_455 S
C492 C491 1.374 . S
C493 C490 1.498 1_455 S
C493 C494 1.389 . S
C493 C495 1.373 1_455 S
C494 H467 0.950 . S
C494 C480 1.377 . S
C494 C493 1.389 . S
C495 C479 1.377 . S
C495 C493 1.373 1_655 S
C495 C496 1.524 . S
C496 C495 1.524 . S
C496 C497 1.397 . S
C496 C501 1.363 . S
C497 H468 0.950 1_655 S
C497 C496 1.397 . S
C497 C498 1.334 . S
C498 H469 0.950 . S
C498 C497 1.334 . S
C498 C499 1.287 . S
C499 C498 1.287 . S
C499 C500 1.524 . S
C499 H502 0.999 . S
C500 H470 0.950 . S
C500 C499 1.524 . S
C500 C501 1.415 . S
C501 H471 0.950 . S
C501 C496 1.363 . S
C501 C500 1.415 . S
H502 C499 0.999 . S
H503 C484 0.913 . S
H504 C522 0.951 . S
H505 C524 0.951 . S
H506 C526 0.950 . S
H507 C527 0.950 . S
H508 C529 0.950 . S
H509 C532 0.950 . S
H510 C533 0.950 . S
H511 C535 0.950 . S
H512 C536 0.950 1_565 S
H513 C537 0.951 . S
H514 C539 0.951 . S
H515 C541 0.950 . S
H516 C542 0.950 . S
H517 C544 0.950 . S
H518 C547 0.950 . S
H519 C548 0.950 . S
H520 C550 0.950 . S
H521 C551 0.950 1_545 S
C522 H504 0.951 . S
C522 C523 1.367 1_565 S
C522 C524 1.388 . S
C523 C522 1.367 1_545 S
C523 C527 1.383 . S
C524 H505 0.951 . S
C524 C522 1.388 . S
C524 C525 1.366 1_565 S
C525 C524 1.366 1_545 S
C525 C526 1.414 . S
C525 C528 1.499 . S
C526 H506 0.950 . S
C526 C525 1.414 . S
C526 C527 1.374 . S
C527 H507 0.950 . S
C527 C523 1.383 . S
C527 C526 1.374 . S
C528 C525 1.499 . S
C528 C529 1.373 1_545 S
C528 C530 1.389 . S
C529 H508 0.950 . S
C529 C528 1.373 1_565 S
C529 C545 1.377 . S
C530 C528 1.389 . S
C530 C531 1.524 . S
C530 C544 1.377 . S
C531 C530 1.524 . S
C531 C532 1.397 . S
C531 C536 1.363 . S
C532 H509 0.950 . S
C532 C531 1.397 . S
C532 C533 1.334 . S
C533 H510 0.950 . S
C533 C532 1.334 . S
C533 C534 1.287 . S
C534 C533 1.287 . S
C534 C535 1.524 . S
C534 H553 0.913 . S
C535 H511 0.950 . S
C535 C534 1.524 . S
C535 C536 1.415 . S
C536 H512 0.950 1_545 S
C536 C531 1.363 . S
C536 C535 1.415 . S
C537 H513 0.951 . S
C537 C538 1.355 1_545 S
C537 C539 1.388 . S
C538 C537 1.355 1_565 S
C538 C542 1.396 . S
C539 H514 0.951 . S
C539 C537 1.388 . S
C539 C540 1.366 1_545 S
C540 C539 1.366 1_565 S
C540 C541 1.414 . S
C540 C543 1.499 . S
C541 H515 0.950 . S
C541 C540 1.414 . S
C541 C542 1.374 . S
C542 H516 0.950 . S
C542 C538 1.396 . S
C542 C541 1.374 . S
C543 C540 1.499 . S
C543 C544 1.373 1_565 S
C543 C545 1.389 . S
C544 H517 0.950 . S
C544 C530 1.377 . S
C544 C543 1.373 1_545 S
C545 C529 1.377 . S
C545 C543 1.389 . S
C545 C546 1.524 . S
C546 C545 1.524 . S
C546 C547 1.397 . S
C546 C551 1.363 . S
C547 H518 0.950 . S
C547 C546 1.397 . S
C547 C548 1.334 . S
C548 H519 0.950 . S
C548 C547 1.334 . S
C548 C549 1.287 . S
C549 C548 1.287 . S
C549 C550 1.524 . S
C549 H552 0.999 . S
C550 H520 0.950 . S
C550 C549 1.524 . S
C550 C551 1.415 . S
C551 H521 0.950 1_565 S
C551 C546 1.363 . S
C551 C550 1.415 . S
H552 C549 0.999 . S
H553 C534 0.913 . S
H554 C572 0.951 . S
H555 C574 0.951 . S
H556 C576 0.950 . S
H557 C577 0.950 . S
H558 C579 0.950 . S
H559 C582 0.950 . S
H560 C583 0.950 . S
H561 C585 0.950 . S
H562 C586 0.950 . S
H563 C587 0.951 . S
H564 C589 0.951 . S
H565 C591 0.950 . S
H566 C592 0.950 . S
H567 C594 0.950 . S
H568 C597 0.950 . S
H569 C598 0.950 . S
H570 C600 0.950 . S
H571 C601 0.950 . S
C572 H554 0.951 . S
C572 C573 1.366 . S
C572 C574 1.388 . S
C573 C572 1.366 . S
C573 C577 1.385 1_455 S
C574 H555 0.951 . S
C574 C572 1.388 . S
C574 C575 1.366 . S
C575 C574 1.366 . S
C575 C576 1.414 1_455 S
C575 C578 1.499 . S
C576 H556 0.950 . S
C576 C575 1.414 1_655 S
C576 C577 1.374 . S
C577 H557 0.950 . S
C577 C573 1.385 1_655 S
C577 C576 1.374 . S
C578 C575 1.499 . S
C578 C579 1.360 1_455 S
C578 C580 1.403 . S
C579 H558 0.950 . S
C579 C578 1.360 1_655 S
C579 C595 1.377 . S
C580 C578 1.403 . S
C580 C581 1.524 . S
C580 C594 1.377 . S
C581 C580 1.524 . S
C581 C582 1.397 . S
C581 C586 1.363 . S
C582 H559 0.950 . S
C582 C581 1.397 . S
C582 C583 1.334 . S
C583 H560 0.950 . S
C583 C582 1.334 . S
C583 C584 1.287 . S
C584 C583 1.287 . S
C584 C585 1.524 . S
C584 H603 0.913 . S
C585 H561 0.950 . S
C585 C584 1.524 . S
C585 C586 1.415 . S
C586 H562 0.950 . S
C586 C581 1.363 . S
C586 C585 1.415 . S
C587 H563 0.951 . S
C587 C588 1.344 1_655 S
C587 C589 1.388 . S
C588 C587 1.344 1_455 S
C588 C592 1.407 . S
C589 H564 0.951 . S
C589 C587 1.388 . S
C589 C590 1.370 . S
C590 C589 1.370 . S
C590 C591 1.410 1_655 S
C590 C593 1.498 1_655 S
C591 H565 0.950 . S
C591 C590 1.410 1_455 S
C591 C592 1.374 . S
C592 H566 0.950 . S
C592 C588 1.407 . S
C592 C591 1.374 . S
C593 C590 1.498 1_455 S
C593 C594 1.385 . S
C593 C595 1.378 1_455 S
C594 H567 0.950 . S
C594 C580 1.377 . S
C594 C593 1.385 . S
C595 C579 1.377 . S
C595 C593 1.378 1_655 S
C595 C596 1.524 . S
C596 C595 1.524 . S
C596 C597 1.397 . S
C596 C601 1.363 . S
C597 H568 0.950 . S
C597 C596 1.397 . S
C597 C598 1.334 . S
C598 H569 0.950 . S
C598 C597 1.334 . S
C598 C599 1.287 . S
C599 C598 1.287 . S
C599 C600 1.524 . S
C599 H602 0.999 . S
C600 H570 0.950 . S
C600 C599 1.524 . S
C600 C601 1.415 . S
C601 H571 0.950 . S
C601 C596 1.363 . S
C601 C600 1.415 . S
H602 C599 0.999 . S
H603 C584 0.913 . S
C238 C77 1.447 1_565 S
C223 C13 1.441 1_545 S
C288 C165 1.447 . S
C273 C15 1.447 . S
C338 C85 1.447 . S
C323 C1 1.447 . S
C388 C173 1.447 1_655 S
C373 C27 1.447 1_455 S
C438 C145 1.447 . S
C423 C0 1.448 1_545 S
C488 C48 1.447 1_655 S
C473 C26 1.447 . S
C538 C136 1.447 1_565 S
C523 C12 1.454 . S
C573 C14 1.447 1_455 S
C588 C57 1.447 . S
