# Generated by pormake.
# Topology pyr, (3,6)-cn, num edge types: 1
# Building blocks:
#     Node 0, Type 0, BuildingBlock: WUSLED_clean_sbu_0, # of connection points: 3
#     Node 1, Type 0, BuildingBlock: WUSLED_clean_sbu_0, # of connection points: 3
#     Node 2, Type 0, BuildingBlock: WUSLED_clean_sbu_0, # of connection points: 3
#     Node 3, Type 0, BuildingBlock: WUSLED_clean_sbu_0, # of connection points: 3
#     Node 4, Type 0, BuildingBlock: WUSLED_clean_sbu_0, # of connection points: 3
#     Node 5, Type 0, BuildingBlock: WUSLED_clean_sbu_0, # of connection points: 3
#     Node 6, Type 0, BuildingBlock: WUSLED_clean_sbu_0, # of connection points: 3
#     Node 7, Type 0, BuildingBlock: WUSLED_clean_sbu_0, # of connection points: 3
#     Node 8, Type 1, BuildingBlock: MIFKUJ_clean_sbu_0, # of connection points: 6
#     Node 9, Type 1, BuildingBlock: MIFKUJ_clean_sbu_0, # of connection points: 6
#     Node 10, Type 1, BuildingBlock: MIFKUJ_clean_sbu_0, # of connection points: 6
#     Node 11, Type 1, BuildingBlock: MIFKUJ_clean_sbu_0, # of connection points: 6
#     Edge 12, Type (0, 1), BuildingBlock: XIVTED_clean_linker_0, # of connection points: 2
#     Edge 13, Type (0, 1), BuildingBlock: XIVTED_clean_linker_0, # of connection points: 2
#     Edge 14, Type (0, 1), BuildingBlock: XIVTED_clean_linker_0, # of connection points: 2
#     Edge 15, Type (0, 1), BuildingBlock: XIVTED_clean_linker_0, # of connection points: 2
#     Edge 16, Type (0, 1), BuildingBlock: XIVTED_clean_linker_0, # of connection points: 2
#     Edge 17, Type (0, 1), BuildingBlock: XIVTED_clean_linker_0, # of connection points: 2
#     Edge 18, Type (0, 1), BuildingBlock: XIVTED_clean_linker_0, # of connection points: 2
#     Edge 19, Type (0, 1), BuildingBlock: XIVTED_clean_linker_0, # of connection points: 2
#     Edge 20, Type (0, 1), BuildingBlock: XIVTED_clean_linker_0, # of connection points: 2
#     Edge 21, Type (0, 1), BuildingBlock: XIVTED_clean_linker_0, # of connection points: 2
#     Edge 22, Type (0, 1), BuildingBlock: XIVTED_clean_linker_0, # of connection points: 2
#     Edge 23, Type (0, 1), BuildingBlock: XIVTED_clean_linker_0, # of connection points: 2
#     Edge 24, Type (0, 1), BuildingBlock: XIVTED_clean_linker_0, # of connection points: 2
#     Edge 25, Type (0, 1), BuildingBlock: XIVTED_clean_linker_0, # of connection points: 2
#     Edge 26, Type (0, 1), BuildingBlock: XIVTED_clean_linker_0, # of connection points: 2
#     Edge 27, Type (0, 1), BuildingBlock: XIVTED_clean_linker_0, # of connection points: 2
#     Edge 28, Type (0, 1), BuildingBlock: XIVTED_clean_linker_0, # of connection points: 2
#     Edge 29, Type (0, 1), BuildingBlock: XIVTED_clean_linker_0, # of connection points: 2
#     Edge 30, Type (0, 1), BuildingBlock: XIVTED_clean_linker_0, # of connection points: 2
#     Edge 31, Type (0, 1), BuildingBlock: XIVTED_clean_linker_0, # of connection points: 2
#     Edge 32, Type (0, 1), BuildingBlock: XIVTED_clean_linker_0, # of connection points: 2
#     Edge 33, Type (0, 1), BuildingBlock: XIVTED_clean_linker_0, # of connection points: 2
#     Edge 34, Type (0, 1), BuildingBlock: XIVTED_clean_linker_0, # of connection points: 2
#     Edge 35, Type (0, 1), BuildingBlock: XIVTED_clean_linker_0, # of connection points: 2
# Relax obj value: 0.025
# Max RMSD: 0.081
# Mean RMSD: 0.045
data_MOF--net-pyr--node1-WUSLED_clean_sbu_0--node2-MIFKUJ_clean_sbu_0--edge1-XIVTED_clean_linker_0
_symmetry_space_group_name_H-M    P1
_symmetry_Int_Tables_number       1
_symmetry_cell_setting            triclinic
loop_
_symmetry_equiv_pos_as_xyz
'x, y, z'
_cell_length_a     51.174806
_cell_length_b     46.168955
_cell_length_c     49.900836
_cell_angle_alpha  85.721111
_cell_angle_beta   88.980931
_cell_angle_gamma 95.907499
loop_
_atom_site_label
_atom_site_type_symbol
_atom_site_fract_x
_atom_site_fract_y
_atom_site_fract_z
_atom_type_partial_charge
C0 C 0.18401 0.2288 0.13802 0.0
C1 C 0.166 0.24112 0.15414 0.0
C2 C 0.15789 0.27609 0.11691 0.0
C3 C 0.15306 0.2646 0.14369 0.0
C4 C 0.17564 0.26321 0.10079 0.0
C5 C 0.18859 0.23984 0.11128 0.0
U6 U 0.19353 0.16773 0.19165 0.0
O7 O 0.20396 0.12325 0.18747 0.0
O8 O 0.22991 0.15388 0.2091 0.0
C9 C 0.22667 0.12826 0.19911 0.0
C10 C 0.19823 0.20456 0.14875 0.0
C11 C 0.24975 0.11957 0.18488 0.0
C12 C 0.27486 0.11501 0.14381 0.0
C13 C 0.25308 0.12432 0.15684 0.0
C14 C 0.29046 0.09682 0.18677 0.0
C15 C 0.29372 0.10089 0.15861 0.0
C16 C 0.26868 0.10601 0.19971 0.0
C17 C 0.14587 0.15462 0.25283 0.0
C18 C 0.13058 0.10968 0.27966 0.0
C19 C 0.12951 0.1563 0.2987 0.0
C20 C 0.14006 0.17059 0.27462 0.0
C21 C 0.12435 0.12569 0.30138 0.0
C22 C 0.14134 0.12398 0.25566 0.0
C23 C 0.1556 0.17045 0.22719 0.0
O24 O 0.21105 0.20904 0.17091 0.0
O25 O 0.18519 0.17848 0.14914 0.0
O26 O 0.15257 0.15608 0.20548 0.0
O27 O 0.17855 0.18604 0.22778 0.0
H28 H 0.16216 0.23276 0.17486 0.0
H29 H 0.13972 0.27413 0.15674 0.0
H30 H 0.17949 0.27109 0.07996 0.0
H31 H 0.20228 0.23042 0.0985 0.0
H32 H 0.27661 0.11833 0.12212 0.0
H33 H 0.23872 0.13493 0.14502 0.0
H34 H 0.30482 0.08662 0.19889 0.0
H35 H 0.26656 0.10239 0.22139 0.0
H36 H 0.12713 0.08606 0.28124 0.0
H37 H 0.12471 0.16927 0.31496 0.0
H38 H 0.14332 0.19423 0.27288 0.0
H39 H 0.14582 0.11106 0.23925 0.0
C40 C 0.27454 0.85436 0.6328 0.0
C41 C 0.27485 0.88492 0.63145 0.0
C42 C 0.22893 0.88108 0.61883 0.0
C43 C 0.2523 0.89813 0.62439 0.0
C44 C 0.22858 0.8505 0.6206 0.0
C45 C 0.25121 0.8373 0.62741 0.0
U46 U 0.33399 0.8439 0.67649 0.0
O47 O 0.35087 0.80392 0.691 0.0
O48 O 0.37462 0.83749 0.66497 0.0
C49 C 0.37293 0.81105 0.67703 0.0
C50 C 0.29827 0.83989 0.63952 0.0
C51 C 0.38183 0.78837 0.66088 0.0
C52 C 0.37292 0.74839 0.6322 0.0
C53 C 0.36402 0.77029 0.64687 0.0
C54 C 0.41757 0.7629 0.64488 0.0
C55 C 0.39982 0.74432 0.63113 0.0
C56 C 0.40863 0.78465 0.65964 0.0
C57 C 0.34714 0.8883 0.73658 0.0
C58 C 0.38472 0.88088 0.76435 0.0
C59 C 0.35466 0.91553 0.77599 0.0
C60 C 0.3397 0.90895 0.75363 0.0
C61 C 0.37731 0.90149 0.78168 0.0
C62 C 0.36975 0.87435 0.74201 0.0
C63 C 0.33103 0.88102 0.71349 0.0
O64 O 0.32092 0.85613 0.6359 0.0
O65 O 0.29675 0.82299 0.66201 0.0
O66 O 0.31847 0.85462 0.71549 0.0
O67 O 0.34245 0.8882 0.68978 0.0
H68 H 0.2925 0.89864 0.63576 0.0
H69 H 0.25307 0.92172 0.62352 0.0
H70 H 0.21093 0.8368 0.61622 0.0
H71 H 0.25054 0.81371 0.62832 0.0
H72 H 0.35865 0.73431 0.62214 0.0
H73 H 0.34322 0.7729 0.64748 0.0
H74 H 0.43845 0.7608 0.64413 0.0
H75 H 0.42267 0.79856 0.67018 0.0
H76 H 0.40222 0.86998 0.76791 0.0
H77 H 0.34823 0.93123 0.78908 0.0
H78 H 0.32222 0.91982 0.74975 0.0
H79 H 0.37577 0.85835 0.72898 0.0
C80 C 0.62171 0.37271 0.76575 0.0
C81 C 0.59507 0.37347 0.76004 0.0
C82 C 0.60649 0.40523 0.7194 0.0
C83 C 0.58752 0.38955 0.73716 0.0
C84 C 0.63325 0.4046 0.7253 0.0
C85 C 0.6408 0.38857 0.74833 0.0
U86 U 0.66722 0.35422 0.82395 0.0
O87 O 0.65665 0.33859 0.86591 0.0
O88 O 0.67749 0.31139 0.84023 0.0
C89 C 0.66564 0.31322 0.86356 0.0
C90 C 0.6289 0.35475 0.78963 0.0
C91 C 0.6482 0.28741 0.87422 0.0
C92 C 0.63158 0.25522 0.91284 0.0
C93 C 0.64735 0.27994 0.90197 0.0
C94 C 0.61709 0.24499 0.86824 0.0
C95 C 0.61633 0.23735 0.89612 0.0
C96 C 0.63282 0.26989 0.85738 0.0
C97 C 0.73129 0.40096 0.83585 0.0
C98 C 0.77082 0.38595 0.85694 0.0
C99 C 0.75987 0.43548 0.85943 0.0
C100 C 0.73735 0.42901 0.84459 0.0
C101 C 0.77694 0.41407 0.86566 0.0
C102 C 0.74816 0.3794 0.84232 0.0
C103 C 0.70731 0.3947 0.82024 0.0
O104 O 0.64932 0.34002 0.78676 0.0
O105 O 0.62836 0.36698 0.81256 0.0
O106 O 0.68504 0.39793 0.83263 0.0
O107 O 0.70609 0.37125 0.80667 0.0
H108 H 0.58005 0.36131 0.77319 0.0
H109 H 0.56677 0.38918 0.73308 0.0
H110 H 0.64835 0.41667 0.71221 0.0
H111 H 0.6615 0.38841 0.75245 0.0
H112 H 0.63177 0.24978 0.93432 0.0
H113 H 0.65912 0.29314 0.91528 0.0
H114 H 0.60539 0.23184 0.85486 0.0
H115 H 0.63307 0.27537 0.83588 0.0
H116 H 0.78343 0.36891 0.86165 0.0
H117 H 0.76418 0.45743 0.8656 0.0
H118 H 0.72466 0.44598 0.83986 0.0
H119 H 0.74389 0.35747 0.8361 0.0
C120 C 0.79276 0.60396 0.3165 0.0
C121 C 0.78601 0.62007 0.33787 0.0
C122 C 0.74526 0.58821 0.34591 0.0
C123 C 0.76248 0.61225 0.35249 0.0
C124 C 0.75222 0.5721 0.32449 0.0
C125 C 0.7758 0.57993 0.30991 0.0
U126 U 0.85346 0.65677 0.30246 0.0
O127 O 0.89449 0.64995 0.29354 0.0
O128 O 0.87263 0.67521 0.2642 0.0
C129 C 0.89397 0.66226 0.26893 0.0
C130 C 0.81724 0.6125 0.30084 0.0
C131 C 0.90251 0.64509 0.24722 0.0
C132 C 0.90815 0.59855 0.22914 0.0
C133 C 0.90024 0.6144 0.25013 0.0
C134 C 0.92018 0.64374 0.20185 0.0
C135 C 0.91812 0.61305 0.20475 0.0
C136 C 0.91253 0.65959 0.22294 0.0
C137 C 0.86041 0.72208 0.34739 0.0
C138 C 0.89824 0.75024 0.36498 0.0
C139 C 0.85575 0.76903 0.36481 0.0
C140 C 0.84489 0.74431 0.35293 0.0
C141 C 0.88241 0.77199 0.37159 0.0
C142 C 0.88733 0.72545 0.35299 0.0
C143 C 0.8474 0.69489 0.33792 0.0
O144 O 0.81736 0.63671 0.28521 0.0
O145 O 0.83888 0.61109 0.31447 0.0
O146 O 0.85889 0.67098 0.34319 0.0
O147 O 0.8375 0.69682 0.31381 0.0
H148 H 0.79888 0.63883 0.34311 0.0
H149 H 0.75757 0.62532 0.36863 0.0
H150 H 0.73957 0.55325 0.31914 0.0
H151 H 0.78076 0.56726 0.29347 0.0
H152 H 0.90607 0.57492 0.23184 0.0
H153 H 0.89225 0.60264 0.26855 0.0
H154 H 0.92803 0.65552 0.18339 0.0
H155 H 0.91437 0.68323 0.22026 0.0
H156 H 0.91881 0.75181 0.37003 0.0
H157 H 0.84314 0.78565 0.36912 0.0
H158 H 0.82411 0.74218 0.34871 0.0
H159 H 0.89974 0.70859 0.34884 0.0
C160 C 0.83442 0.78231 0.87636 0.0
C161 C 0.8609 0.78136 0.86897 0.0
C162 C 0.8622 0.73636 0.89758 0.0
C163 C 0.87469 0.75864 0.87954 0.0
C164 C 0.83548 0.73721 0.90444 0.0
C165 C 0.82178 0.76 0.89397 0.0
U166 U 0.82464 0.84448 0.82408 0.0
O167 O 0.78854 0.85871 0.80655 0.0
O168 O 0.81396 0.88876 0.82928 0.0
C169 C 0.79156 0.88409 0.81703 0.0
C170 C 0.81978 0.80644 0.86609 0.0
C171 C 0.76831 0.89251 0.83107 0.0
C172 C 0.73234 0.8823 0.86405 0.0
C173 C 0.7549 0.87404 0.85159 0.0
C174 C 0.73675 0.9277 0.8359 0.0
C175 C 0.72285 0.90915 0.85617 0.0
C176 C 0.7592 0.91941 0.82347 0.0
C177 C 0.87267 0.85931 0.76334 0.0
C178 C 0.8876 0.90478 0.73714 0.0
C179 C 0.88839 0.85867 0.71712 0.0
C180 C 0.87821 0.84386 0.74111 0.0
C181 C 0.89344 0.88928 0.71494 0.0
C182 C 0.8772 0.88996 0.76108 0.0
C183 C 0.86296 0.84291 0.78872 0.0
O184 O 0.83226 0.83276 0.86648 0.0
O185 O 0.8073 0.80236 0.84367 0.0
O186 O 0.84014 0.82716 0.78771 0.0
O187 O 0.8657 0.85678 0.81075 0.0
H188 H 0.87098 0.79836 0.85525 0.0
H189 H 0.89526 0.75887 0.87397 0.0
H190 H 0.82504 0.72015 0.9178 0.0
H191 H 0.80128 0.76024 0.89972 0.0
H192 H 0.72203 0.8674 0.87943 0.0
H193 H 0.76171 0.85317 0.85775 0.0
H194 H 0.73036 0.94875 0.82967 0.0
H195 H 0.76941 0.93401 0.80778 0.0
H196 H 0.89099 0.9284 0.73597 0.0
H197 H 0.89293 0.84609 0.70049 0.0
H198 H 0.87495 0.82022 0.74242 0.0
H199 H 0.87293 0.90249 0.77783 0.0
C200 C 0.63381 0.16695 0.28609 0.0
C201 C 0.64351 0.1419 0.27715 0.0
C202 C 0.61601 0.14455 0.23784 0.0
C203 C 0.63461 0.13072 0.25323 0.0
C204 C 0.60655 0.16976 0.24691 0.0
C205 C 0.61537 0.18082 0.27082 0.0
U206 U 0.68076 0.17173 0.34474 0.0
O207 O 0.6974 0.21002 0.36465 0.0
O208 O 0.67192 0.17538 0.38766 0.0
C209 C 0.68438 0.20177 0.38735 0.0
C210 C 0.64252 0.17885 0.31131 0.0
C211 C 0.66949 0.22396 0.39837 0.0
C212 C 0.64087 0.26271 0.3924 0.0
C213 C 0.65385 0.24068 0.38187 0.0
C214 C 0.65831 0.25081 0.43621 0.0
C215 C 0.64321 0.2683 0.41965 0.0
C216 C 0.67137 0.22891 0.42563 0.0
C217 C 0.73933 0.12609 0.34831 0.0
C218 C 0.7619 0.10612 0.38691 0.0
C219 C 0.78533 0.11777 0.34426 0.0
C220 C 0.76261 0.12715 0.33287 0.0
C221 C 0.78523 0.10685 0.37137 0.0
C222 C 0.7392 0.11572 0.37553 0.0
C223 C 0.71552 0.1355 0.3354 0.0
O224 O 0.64012 0.1603 0.33273 0.0
O225 O 0.665 0.1955 0.30977 0.0
O226 O 0.71754 0.16266 0.32499 0.0
O227 O 0.69291 0.12732 0.34811 0.0
H228 H 0.65789 0.131 0.28869 0.0
H229 H 0.64247 0.11146 0.24667 0.0
H230 H 0.59194 0.18069 0.23576 0.0
H231 H 0.60766 0.20014 0.27747 0.0
H232 H 0.62964 0.27589 0.379 0.0
H233 H 0.65206 0.23704 0.36074 0.0
H234 H 0.66015 0.2541 0.45739 0.0
H235 H 0.68318 0.21604 0.4387 0.0
H236 H 0.76098 0.09757 0.40775 0.0
H237 H 0.80301 0.1192 0.33178 0.0
H238 H 0.76321 0.13518 0.31188 0.0
H239 H 0.72154 0.11473 0.38799 0.0
C240 C 0.28977 0.61018 0.1851 0.0
C241 C 0.28571 0.62534 0.16032 0.0
C242 C 0.243 0.59716 0.15718 0.0
C243 C 0.26254 0.61882 0.14643 0.0
C244 C 0.24733 0.58203 0.182 0.0
C245 C 0.27048 0.5885 0.19579 0.0
U246 U 0.35362 0.65781 0.1962 0.0
O247 O 0.37055 0.67252 0.23378 0.0
O248 O 0.39234 0.64573 0.20858 0.0
C249 C 0.39104 0.65779 0.23158 0.0
C250 C 0.31378 0.61693 0.20022 0.0
C251 C 0.39776 0.64025 0.25609 0.0
C252 C 0.40883 0.59486 0.27912 0.0
C253 C 0.40085 0.61033 0.25597 0.0
C254 C 0.4102 0.63872 0.30299 0.0
C255 C 0.41374 0.60892 0.30287 0.0
C256 C 0.4024 0.65419 0.27985 0.0
C257 C 0.37294 0.72575 0.1474 0.0
C258 C 0.4153 0.74981 0.13064 0.0
C259 C 0.37775 0.77753 0.13283 0.0
C260 C 0.36218 0.75242 0.14322 0.0
C261 C 0.40444 0.77648 0.12618 0.0
C262 C 0.39974 0.7247 0.14124 0.0
C263 C 0.35552 0.69931 0.15704 0.0
O264 O 0.33602 0.61409 0.18758 0.0
O265 O 0.31456 0.6408 0.2131 0.0
O266 O 0.34292 0.70061 0.18004 0.0
O267 O 0.36454 0.67395 0.15453 0.0
H268 H 0.30039 0.64228 0.15183 0.0
H269 H 0.25974 0.63106 0.12751 0.0
H270 H 0.23291 0.56492 0.19067 0.0
H271 H 0.27332 0.57655 0.21486 0.0
H272 H 0.41111 0.57186 0.27843 0.0
H273 H 0.39738 0.59891 0.23798 0.0
H274 H 0.41414 0.65034 0.3208 0.0
H275 H 0.40038 0.67728 0.28041 0.0
H276 H 0.43586 0.74836 0.12599 0.0
H277 H 0.36869 0.79763 0.12933 0.0
H278 H 0.34155 0.75374 0.14764 0.0
H279 H 0.40865 0.70446 0.14433 0.0
C280 C 0.11407 0.28941 0.70122 0.0
C281 C 0.12886 0.28722 0.67765 0.0
C282 C 0.10307 0.24148 0.66985 0.0
C283 C 0.12337 0.26357 0.66209 0.0
C284 C 0.08806 0.24394 0.69335 0.0
C285 C 0.09357 0.26774 0.70896 0.0
U286 U 0.16215 0.35267 0.71489 0.0
O287 O 0.15775 0.39738 0.72515 0.0
O288 O 0.17854 0.36845 0.75229 0.0
C289 C 0.16902 0.39377 0.74847 0.0
C290 C 0.12098 0.31375 0.71799 0.0
C291 C 0.15499 0.40335 0.77164 0.0
C292 C 0.11509 0.40497 0.79837 0.0
C293 C 0.12814 0.39475 0.77664 0.0
C294 C 0.15573 0.43202 0.81051 0.0
C295 C 0.12874 0.42379 0.81552 0.0
C296 C 0.16869 0.4219 0.78875 0.0
C297 C 0.22251 0.36577 0.66702 0.0
C298 C 0.26575 0.38999 0.67526 0.0
C299 C 0.25162 0.38527 0.62957 0.0
C300 C 0.22764 0.37079 0.6393 0.0
C301 C 0.27108 0.39486 0.64741 0.0
C302 C 0.24165 0.37568 0.68498 0.0
C303 C 0.19732 0.34973 0.67656 0.0
O304 O 0.14191 0.31106 0.73249 0.0
O305 O 0.12091 0.33989 0.70558 0.0
O306 O 0.17652 0.36396 0.67317 0.0
O307 O 0.19732 0.33476 0.70004 0.0
H308 H 0.14482 0.30375 0.6714 0.0
H309 H 0.13503 0.26266 0.6439 0.0
H310 H 0.07245 0.22717 0.70002 0.0
H311 H 0.08209 0.26902 0.7272 0.0
H312 H 0.09438 0.39795 0.80188 0.0
H313 H 0.11728 0.38029 0.76367 0.0
H314 H 0.16674 0.44675 0.8231 0.0
H315 H 0.18942 0.4288 0.78513 0.0
H316 H 0.28036 0.39677 0.68959 0.0
H317 H 0.2548 0.38912 0.60803 0.0
H318 H 0.21305 0.36343 0.62513 0.0
H319 H 0.2381 0.37214 0.7065 0.0
Zn320 Zn 0.04097 0.02209 0.53379 0.0
Zn321 Zn 0.97739 0.99679 0.48456 0.0
C322 C 0.06928 0.07111 0.55642 0.0
O323 O 0.08933 0.06071 0.54506 0.0
C324 C 0.94928 0.94443 0.47153 0.0
O325 O 0.93293 0.95399 0.4886 0.0
O326 O 0.07069 0.99801 0.54376 0.0
O327 O 0.00696 1.00017 0.54814 0.0
O328 O 0.97228 0.98619 0.5244 0.0
C329 C 0.07032 0.98105 0.56507 0.0
O330 O 0.04949 0.97816 0.5812 0.0
O331 O 0.0463 0.05844 0.55388 0.0
C332 C 0.94472 0.02316 0.44687 0.0
O333 O 0.961 0.01205 0.43078 0.0
O334 O 0.94797 0.02017 0.4721 0.0
O335 O 0.01126 0.01902 0.46994 0.0
O336 O 0.0454 0.034 0.49411 0.0
O337 O 0.97141 0.95916 0.46639 0.0
C338 C 0.98374 0.98776 0.5467 0.0
C339 C 0.03423 0.03207 0.47166 0.0
Zn340 Zn 0.51914 0.98332 0.9756 0.0
Zn341 Zn 0.49968 0.02877 0.04266 0.0
C342 C 0.48817 0.94892 0.94007 0.0
O343 O 0.49964 0.92805 0.953 0.0
C344 C 0.52902 0.06667 0.07567 0.0
O345 O 0.51983 0.08564 0.05829 0.0
O346 O 0.55291 0.96818 0.96354 0.0
O347 O 0.52629 0.02717 0.9753 0.0
O348 O 0.51554 0.05217 0.00949 0.0
C349 C 0.56094 0.97581 0.93953 0.0
O350 O 0.54738 0.99315 0.92453 0.0
O351 O 0.49311 0.97499 0.94656 0.0
C352 C 0.45413 0.03206 0.07454 0.0
O353 O 0.46609 0.0127 0.089 0.0
O354 O 0.46466 0.04275 0.0522 0.0
O355 O 0.49433 0.9848 0.04324 0.0
O356 O 0.50476 0.95937 0.00922 0.0
O357 O 0.52334 0.03957 0.07313 0.0
C358 C 0.52522 0.0512 0.98597 0.0
C359 C 0.49575 0.96058 0.033 0.0
Zn360 Zn 0.54192 0.49343 0.48766 0.0
Zn361 Zn 0.4814 0.5221 0.53382 0.0
C362 C 0.57607 0.51867 0.44606 0.0
O363 O 0.557 0.50521 0.43292 0.0
C364 C 0.44212 0.49797 0.57231 0.0
O365 O 0.45658 0.5152 0.58729 0.0
O366 O 0.54671 0.45295 0.4767 0.0
O367 O 0.54402 0.49114 0.52829 0.0
O368 O 0.51203 0.5063 0.55256 0.0
C369 C 0.56799 0.44375 0.48493 0.0
O370 O 0.58318 0.46023 0.49992 0.0
O371 O 0.57414 0.51786 0.47156 0.0
C372 C 0.45725 0.57434 0.53931 0.0
O373 O 0.44097 0.56164 0.52265 0.0
O374 O 0.47727 0.56188 0.54662 0.0
O375 O 0.48008 0.52531 0.4934 0.0
O376 O 0.51109 0.50914 0.46849 0.0
O377 O 0.44909 0.49657 0.54789 0.0
C378 C 0.53381 0.4955 0.55087 0.0
C379 C 0.48973 0.52074 0.47064 0.0
Zn380 Zn 0.9779 0.51798 0.98524 0.0
Zn381 Zn 0.04307 0.49718 0.03316 0.0
C382 C 0.94541 0.48178 0.95201 0.0
O383 O 0.96586 0.48842 0.93562 0.0
C384 C 0.07592 0.52649 0.06941 0.0
O385 O 0.05705 0.51317 0.08543 0.0
O386 O 0.96957 0.55744 0.96912 0.0
O387 O 0.97825 0.52067 0.02556 0.0
O388 O 0.01106 0.50936 0.05168 0.0
C389 C 0.94822 0.56535 0.97815 0.0
O390 O 0.93464 0.54824 0.99678 0.0
O391 O 0.9463 0.49074 0.97552 0.0
C392 C 0.07361 0.45094 0.0412 0.0
O393 O 0.088 0.46956 0.02436 0.0
O394 O 0.05107 0.45728 0.04853 0.0
O395 O 0.04313 0.49585 0.99284 0.0
O396 O 0.01024 0.50637 0.9665 0.0
O397 O 0.07426 0.52417 0.04422 0.0
C398 C 0.98841 0.51795 0.04859 0.0
C399 C 0.03318 0.49855 0.96971 0.0
H400 H 0.08422 0.08141 0.30618 0.0
H401 H 0.08071 0.06778 0.46716 0.0
H402 H 0.13569 0.13588 0.35364 0.0
H403 H 0.01989 0.02702 0.41934 0.0
H404 H 0.10331 0.08985 0.42589 0.0
H405 H 0.06283 0.05792 0.34756 0.0
C406 C 0.09117 0.08826 0.32533 0.0
C407 C 0.11178 0.11066 0.32645 0.0
C408 C 0.08501 0.07608 0.42445 0.0
C409 C 0.08724 0.08398 0.37394 0.0
C410 C 0.0721 0.06341 0.44802 0.0
C411 C 0.04829 0.04551 0.4468 0.0
C412 C 0.07419 0.07069 0.39941 0.0
C413 C 0.03812 0.04071 0.42134 0.0
C414 C 0.07882 0.07499 0.34894 0.0
C415 C 0.1197 0.11892 0.35183 0.0
N416 N 0.05114 0.05316 0.3987 0.0
N417 N 0.10746 0.10555 0.37456 0.0
H418 H 0.40006 0.86329 0.81652 0.0
H419 H 0.46278 0.98704 0.9076 0.0
H420 H 0.39041 0.95484 0.8016 0.0
H421 H 0.47381 0.89568 0.92098 0.0
H422 H 0.43516 0.97559 0.86953 0.0
H423 H 0.42636 0.8747 0.85543 0.0
C424 C 0.40358 0.88583 0.82133 0.0
C425 C 0.39306 0.90815 0.80565 0.0
C426 C 0.44358 0.95804 0.88083 0.0
C427 C 0.42297 0.92135 0.85048 0.0
C428 C 0.45933 0.96456 0.90261 0.0
C429 C 0.47068 0.94229 0.91751 0.0
C430 C 0.43911 0.92905 0.87387 0.0
C431 C 0.46552 0.91357 0.91007 0.0
C432 C 0.41848 0.89231 0.84367 0.0
C433 C 0.39788 0.93688 0.81322 0.0
N434 N 0.45017 0.90779 0.88877 0.0
N435 N 0.41252 0.94265 0.83504 0.0
H436 H 0.62855 0.40886 0.66843 0.0
H437 H 0.51764 0.5003 0.60294 0.0
H438 H 0.56541 0.43885 0.71383 0.0
H439 H 0.57902 0.46822 0.55645 0.0
H440 H 0.53694 0.481 0.64399 0.0
H441 H 0.61288 0.43356 0.62761 0.0
C442 C 0.61156 0.42089 0.66989 0.0
C443 C 0.5982 0.42159 0.69464 0.0
C444 C 0.54629 0.47829 0.62483 0.0
C445 C 0.57997 0.44972 0.64786 0.0
C446 C 0.53529 0.48938 0.6013 0.0
C447 C 0.5466 0.4858 0.57605 0.0
C448 C 0.56881 0.46341 0.62325 0.0
C449 C 0.56952 0.47146 0.57538 0.0
C450 C 0.60253 0.43485 0.64653 0.0
C451 C 0.5761 0.43727 0.69518 0.0
N452 N 0.57977 0.46068 0.59859 0.0
N453 N 0.56766 0.45059 0.67218 0.0
H454 H 0.9477 0.56674 0.20741 0.0
H455 H 0.94545 0.54896 0.04908 0.0
H456 H 0.9075 0.62116 0.15127 0.0
H457 H 1.00042 0.5103 0.1019 0.0
H458 H 0.92632 0.56977 0.08747 0.0
H459 H 0.96239 0.54041 0.17002 0.0
C460 C 0.9418 0.57299 0.18724 0.0
C461 C 0.92648 0.59628 0.18241 0.0
C462 C 0.94246 0.55658 0.09067 0.0
C463 C 0.94319 0.56628 0.13958 0.0
C464 C 0.95332 0.54451 0.06876 0.0
C465 C 0.97473 0.52796 0.07214 0.0
C466 C 0.95293 0.55194 0.11627 0.0
C467 C 0.98408 0.52308 0.09824 0.0
C468 C 0.95028 0.55806 0.16591 0.0
C469 C 0.91958 0.60361 0.15584 0.0
N470 N 0.97319 0.53509 0.11926 0.0
N471 N 0.92798 0.58867 0.13544 0.0
H472 H 0.31559 0.0499 0.17074 0.0
H473 H 0.42734 0.07738 0.05437 0.0
H474 H 0.32372 0.12663 0.11501 0.0
H475 H 0.42464 0.009 0.11856 0.0
H476 H 0.38744 0.09386 0.07359 0.0
H477 H 0.35366 0.03286 0.14932 0.0
C478 C 0.32545 0.06331 0.15409 0.0
C479 C 0.31649 0.08995 0.14491 0.0
C480 C 0.39559 0.07521 0.08339 0.0
C481 C 0.36012 0.07018 0.11985 0.0
C482 C 0.41831 0.06574 0.07239 0.0
C483 C 0.42942 0.04181 0.08491 0.0
C484 C 0.38384 0.06052 0.10696 0.0
C485 C 0.41689 0.02761 0.10825 0.0
C486 C 0.34716 0.05344 0.14173 0.0
C487 C 0.32977 0.10588 0.12271 0.0
N488 N 0.39485 0.03718 0.11848 0.0
N489 N 0.35095 0.0958 0.11099 0.0
H490 H 0.178 0.86578 0.6366 0.0
H491 H 0.119 0.98813 0.5403 0.0
H492 H 0.22564 0.92836 0.58299 0.0
H493 H 0.07463 0.93893 0.60603 0.0
H494 H 0.15743 0.96344 0.55307 0.0
H495 H 0.13905 0.88936 0.62309 0.0
C496 C 0.18024 0.88441 0.6219 0.0
C497 C 0.20511 0.89516 0.61093 0.0
C498 C 0.13928 0.95804 0.5647 0.0
C499 C 0.16065 0.92224 0.59539 0.0
C500 C 0.11729 0.97205 0.55736 0.0
C501 C 0.09353 0.96562 0.57214 0.0
C502 C 0.13752 0.93724 0.58686 0.0
C503 C 0.09254 0.94463 0.5941 0.0
C504 C 0.15803 0.89795 0.61431 0.0
C505 C 0.2069 0.91956 0.59217 0.0
N506 N 0.1142 0.93116 0.60077 0.0
N507 N 0.18498 0.9322 0.58493 0.0
H508 H 0.78294 0.44507 0.9104 0.0
H509 H 0.9393 0.45194 0.90694 0.0
H510 H 0.82647 0.39955 0.85509 0.0
H511 H 0.89532 0.47911 0.97354 0.0
H512 H 0.89815 0.43278 0.88761 0.0
H513 H 0.82373 0.45844 0.93355 0.0
C514 C 0.80108 0.43788 0.90314 0.0
C515 C 0.80131 0.42126 0.8807 0.0
C516 C 0.89747 0.44267 0.90658 0.0
C517 C 0.84807 0.43646 0.90711 0.0
C518 C 0.92098 0.45364 0.91764 0.0
C519 C 0.92077 0.46724 0.94187 0.0
C520 C 0.87345 0.44566 0.91961 0.0
C521 C 0.89642 0.46873 0.95486 0.0
C522 C 0.82433 0.44535 0.91647 0.0
C523 C 0.82534 0.4122 0.8724 0.0
N524 N 0.87372 0.45838 0.94342 0.0
N525 N 0.84775 0.42012 0.88545 0.0
H526 H 0.73604 0.58718 0.40041 0.0
H527 H 0.58449 0.5263 0.39177 0.0
H528 H 0.69697 0.57089 0.32624 0.0
H529 H 0.62249 0.54174 0.46669 0.0
H530 H 0.62511 0.5452 0.36751 0.0
H531 H 0.69436 0.57313 0.42504 0.0
C532 C 0.71867 0.58083 0.38928 0.0
C533 C 0.72006 0.58009 0.3612 0.0
C534 C 0.6246 0.5446 0.38924 0.0
C535 C 0.67232 0.56377 0.38931 0.0
C536 C 0.60135 0.53382 0.40315 0.0
C537 C 0.60011 0.53227 0.43134 0.0
C538 C 0.6469 0.55386 0.40357 0.0
C539 C 0.62259 0.5425 0.44495 0.0
C540 C 0.69491 0.57269 0.40338 0.0
C541 C 0.69696 0.57134 0.3479 0.0
N542 N 0.64513 0.55271 0.43094 0.0
N543 N 0.6741 0.5635 0.36206 0.0
H544 H 0.17958 0.32241 0.08352 0.0
H545 H 0.05069 0.40745 0.07773 0.0
H546 H 0.10696 0.28868 0.12533 0.0
H547 H 0.12153 0.43342 0.02993 0.0
H548 H 0.07061 0.36442 0.0965 0.0
H549 H 0.15839 0.36395 0.0649 0.0
C550 C 0.15909 0.32358 0.08864 0.0
C551 C 0.14502 0.30179 0.10588 0.0
C552 C 0.0817 0.37954 0.08184 0.0
C553 C 0.12058 0.34985 0.08482 0.0
C554 C 0.07034 0.40407 0.07111 0.0
C555 C 0.08445 0.42412 0.05223 0.0
C556 C 0.10735 0.37515 0.0737 0.0
C557 C 0.10987 0.41865 0.04442 0.0
C558 C 0.147 0.34747 0.07809 0.0
C559 C 0.11865 0.30503 0.11229 0.0
N560 N 0.12047 0.39481 0.05522 0.0
N561 N 0.10727 0.32859 0.10174 0.0
H562 H 0.58593 0.23079 0.94239 0.0
H563 H 0.54972 0.05848 0.93606 0.0
H564 H 0.61001 0.18291 0.87679 0.0
H565 H 0.52647 0.10707 1.00161 0.0
H566 H 0.56984 0.10402 0.91281 0.0
H567 H 0.56207 0.18597 0.96311 0.0
C568 C 0.5862 0.21083 0.93233 0.0
C569 C 0.60019 0.21061 0.90789 0.0
C570 C 0.56023 0.10472 0.93223 0.0
C571 C 0.57272 0.15907 0.9315 0.0
C572 C 0.5487 0.07869 0.94554 0.0
C573 C 0.53643 0.07882 0.97096 0.0
C574 C 0.55955 0.13113 0.94437 0.0
C575 C 0.53577 0.10578 0.98215 0.0
C576 C 0.57247 0.18524 0.94413 0.0
C577 C 0.59938 0.18417 0.89554 0.0
N578 N 0.54723 0.13076 0.96885 0.0
N579 N 0.58604 0.15944 0.90756 0.0
H580 H 0.85883 0.79518 0.41334 0.0
H581 H 0.97621 0.92027 0.43201 0.0
H582 H 0.93038 0.8052 0.36491 0.0
H583 H 0.90373 0.90829 0.47902 0.0
H584 H 0.96089 0.87757 0.40792 0.0
H585 H 0.87588 0.8362 0.43803 0.0
C586 C 0.87809 0.80617 0.40774 0.0
C587 C 0.89307 0.79688 0.38679 0.0
C588 C 0.94842 0.88427 0.42358 0.0
C589 C 0.913 0.84386 0.41542 0.0
C590 C 0.95716 0.9086 0.43737 0.0
C591 C 0.9412 0.91793 0.45753 0.0
C592 C 0.92356 0.86922 0.43002 0.0
C593 C 0.91669 0.902 0.4636 0.0
C594 C 0.88792 0.82952 0.42201 0.0
C595 C 0.91819 0.81155 0.38096 0.0
N596 N 0.90864 0.87853 0.44988 0.0
N597 N 0.92735 0.83441 0.39514 0.0
H598 H 0.38291 0.7251 0.58287 0.0
H599 H 0.48221 0.60197 0.58001 0.0
H600 H 0.43839 0.70918 0.64511 0.0
H601 H 0.41781 0.60807 0.52586 0.0
H602 H 0.46941 0.64457 0.60134 0.0
H603 H 0.39804 0.68515 0.55932 0.0
C604 C 0.3982 0.71318 0.59167 0.0
C605 C 0.40929 0.72055 0.61612 0.0
C606 C 0.45815 0.63665 0.58472 0.0
C607 C 0.42701 0.67498 0.58896 0.0
C608 C 0.46551 0.61239 0.57246 0.0
C609 C 0.451 0.60134 0.55117 0.0
C610 C 0.43619 0.65006 0.57557 0.0
C611 C 0.42951 0.61574 0.54228 0.0
C612 C 0.40694 0.69046 0.5781 0.0
C613 C 0.42945 0.70462 0.62618 0.0
N614 N 0.42272 0.63929 0.55454 0.0
N615 N 0.4376 0.6826 0.6126 0.0
H616 H 0.88097 0.88003 0.66279 0.0
H617 H 0.99825 0.9935 0.59885 0.0
H618 H 0.93337 0.93382 0.70993 0.0
H619 H 0.93751 0.95164 0.55164 0.0
H620 H 0.97561 0.97053 0.63968 0.0
H621 H 0.90226 0.90468 0.62177 0.0
C622 C 0.89697 0.89702 0.6645 0.0
C623 C 0.90542 0.90485 0.68984 0.0
C624 C 0.96718 0.96644 0.6204 0.0
C625 C 0.92989 0.93318 0.64296 0.0
C626 C 0.98015 0.97949 0.59703 0.0
C627 C 0.96984 0.97447 0.57169 0.0
C628 C 0.94378 0.94802 0.61851 0.0
C629 C 0.9462 0.9562 0.57069 0.0
C630 C 0.90903 0.91118 0.64108 0.0
C631 C 0.92604 0.92728 0.69084 0.0
N632 N 0.93405 0.94355 0.59374 0.0
N633 N 0.93765 0.94052 0.66776 0.0
H634 H 0.607 0.1749 0.1902 0.0
H635 H 0.54664 0.0341 0.11876 0.0
H636 H 0.60255 0.08723 0.22786 0.0
H637 H 0.5468 0.12283 0.08463 0.0
H638 H 0.57029 0.05241 0.15735 0.0
H639 H 0.58808 0.1555 0.14988 0.0
C640 C 0.60201 0.15154 0.19001 0.0
C641 C 0.60615 0.13271 0.21258 0.0
C642 C 0.56524 0.06783 0.14134 0.0
C643 C 0.58458 0.11024 0.16627 0.0
C644 C 0.55178 0.0574 0.11929 0.0
C645 C 0.54458 0.07697 0.09849 0.0
C646 C 0.5716 0.09805 0.14257 0.0
C647 C 0.55178 0.10693 0.10025 0.0
C648 C 0.5913 0.14045 0.16691 0.0
C649 C 0.59983 0.10256 0.2109 0.0
N650 N 0.56479 0.11652 0.12191 0.0
N651 N 0.58921 0.09227 0.18821 0.0
H652 H 0.45065 0.56967 0.3058 0.0
H653 H 0.44549 0.54961 0.46683 0.0
H654 H 0.3986 0.61188 0.35558 0.0
H655 H 0.50363 0.51516 0.41785 0.0
H656 H 0.42556 0.56876 0.42609 0.0
H657 H 0.4676 0.54572 0.34632 0.0
C658 C 0.44258 0.57368 0.32522 0.0
C659 C 0.42322 0.59294 0.32725 0.0
C660 C 0.44262 0.55693 0.42423 0.0
C661 C 0.44274 0.56574 0.3738 0.0
C662 C 0.45403 0.54589 0.44754 0.0
C663 C 0.47644 0.53082 0.4459 0.0
C664 C 0.45359 0.55289 0.39894 0.0
C665 C 0.48647 0.52672 0.42019 0.0
C666 C 0.4524 0.56013 0.34837 0.0
C667 C 0.41377 0.59755 0.35303 0.0
N668 N 0.47504 0.53776 0.39777 0.0
N669 N 0.42363 0.58411 0.37524 0.0
H670 H 0.14613 0.4299 0.86666 0.0
H671 H 0.01798 0.49832 0.91714 0.0
H672 H 0.08 0.44366 0.81651 0.0
H673 H 0.08206 0.47908 0.96843 0.0
H674 H 0.04127 0.48068 0.87949 0.0
H675 H 0.12368 0.44979 0.90365 0.0
C676 C 0.12692 0.43722 0.86339 0.0
C677 C 0.11495 0.43513 0.8384 0.0
C678 C 0.05025 0.48039 0.89897 0.0
C679 C 0.08903 0.45783 0.88079 0.0
C680 C 0.03698 0.49053 0.92052 0.0
C681 C 0.04794 0.49005 0.94615 0.0
C682 C 0.07474 0.46973 0.90298 0.0
C683 C 0.07273 0.4798 0.94914 0.0
C684 C 0.11405 0.44847 0.88457 0.0
C685 C 0.08985 0.44455 0.83549 0.0
N686 N 0.08522 0.46999 0.92788 0.0
N687 N 0.07775 0.45553 0.8564 0.0
H688 H 0.68376 0.93645 0.83131 0.0
H689 H 0.59567 0.94176 0.96496 0.0
H690 H 0.70588 0.90136 0.90927 0.0
H691 H 0.58058 0.98529 0.88806 0.0
H692 H 0.63483 0.92443 0.94505 0.0
H693 H 0.64457 0.95208 0.85183 0.0
C694 C 0.68049 0.93217 0.85281 0.0
C695 C 0.69838 0.91779 0.86858 0.0
C696 C 0.62292 0.93779 0.93259 0.0
C697 C 0.65307 0.93538 0.8923 0.0
C698 C 0.60056 0.94768 0.94393 0.0
C699 C 0.58481 0.96507 0.92819 0.0
C700 C 0.62948 0.94522 0.90529 0.0
C701 C 0.59211 0.97202 0.90103 0.0
C702 C 0.65797 0.94099 0.86452 0.0
C703 C 0.69261 0.91221 0.89626 0.0
N704 N 0.61384 0.96207 0.89049 0.0
N705 N 0.6705 0.92108 0.90725 0.0
H706 H 0.80428 0.11203 0.42234 0.0
H707 H 0.93062 0.02887 0.39438 0.0
H708 H 0.82092 0.07595 0.34725 0.0
H709 H 0.90728 0.0495 0.47373 0.0
H710 H 0.89244 0.05017 0.37618 0.0
H711 H 0.84344 0.09275 0.44103 0.0
C712 C 0.81605 0.09999 0.40979 0.0
C713 C 0.80919 0.09569 0.3831 0.0
C714 C 0.89564 0.05009 0.39758 0.0
C715 C 0.85432 0.07394 0.40433 0.0
C716 C 0.91752 0.03799 0.40801 0.0
C717 C 0.92216 0.03729 0.43567 0.0
C718 C 0.8782 0.06176 0.41486 0.0
C719 C 0.90445 0.0495 0.45228 0.0
C720 C 0.8385 0.08912 0.42046 0.0
C721 C 0.82555 0.08031 0.36773 0.0
N722 N 0.88323 0.06122 0.44162 0.0
N723 N 0.84729 0.07005 0.37855 0.0
H724 H 0.23616 0.59257 0.10296 0.0
H725 H 0.0824 0.53999 0.12127 0.0
H726 H 0.19298 0.5862 0.17861 0.0
H727 H 0.12355 0.54659 0.04446 0.0
H728 H 0.12242 0.56015 0.14169 0.0
H729 H 0.19504 0.57901 0.08037 0.0
C730 C 0.21803 0.58858 0.1148 0.0
C731 C 0.21811 0.59029 0.1428 0.0
C732 C 0.12276 0.55739 0.12034 0.0
C733 C 0.171 0.57457 0.11707 0.0
C734 C 0.09984 0.54587 0.10862 0.0
C735 C 0.09961 0.5414 0.08111 0.0
C736 C 0.14585 0.56441 0.10454 0.0
C737 C 0.12283 0.54964 0.06575 0.0
C738 C 0.19458 0.58071 0.10189 0.0
C739 C 0.19401 0.58462 0.15709 0.0
N740 N 0.14508 0.56054 0.07772 0.0
N741 N 0.17154 0.57694 0.14411 0.0
H742 H 0.30091 0.44096 0.66743 0.0
H743 H 0.40952 0.4569 0.54866 0.0
H744 H 0.30009 0.38276 0.60351 0.0
H745 H 0.41856 0.50175 0.62134 0.0
H746 H 0.36822 0.43119 0.56721 0.0
H747 H 0.34305 0.46507 0.64977 0.0
C748 C 0.30963 0.43308 0.6498 0.0
C749 C 0.29682 0.40975 0.63697 0.0
C750 C 0.3793 0.44658 0.57913 0.0
C751 C 0.34496 0.43766 0.61636 0.0
C752 C 0.40286 0.4613 0.56854 0.0
C753 C 0.41752 0.48153 0.58346 0.0
C754 C 0.37022 0.45231 0.60474 0.0
C755 C 0.40794 0.48632 0.60913 0.0
C756 C 0.33366 0.44698 0.63965 0.0
C757 C 0.30895 0.40094 0.61386 0.0
N758 N 0.38485 0.47192 0.61889 0.0
N759 N 0.33227 0.41494 0.60428 0.0
H760 H 0.90003 0.70777 0.87351 0.0
H761 H 0.90899 0.59255 0.99966 0.0
H762 H 0.85815 0.71054 0.94902 0.0
H763 H 0.96337 0.59969 0.93182 0.0
H764 H 0.88963 0.63524 0.98056 0.0
H765 H 0.92308 0.66793 0.89361 0.0
C766 C 0.89579 0.7002 0.89435 0.0
C767 C 0.87691 0.7125 0.90949 0.0
C768 C 0.90589 0.62764 0.96986 0.0
C769 C 0.90304 0.6666 0.9325 0.0
C770 C 0.91695 0.60319 0.98075 0.0
C771 C 0.93779 0.59245 0.96727 0.0
C772 C 0.9155 0.64143 0.94509 0.0
C773 C 0.94735 0.60727 0.9429 0.0
C774 C 0.90891 0.67736 0.90577 0.0
C775 C 0.87207 0.70143 0.93632 0.0
N776 N 0.93599 0.6309 0.93246 0.0
N777 N 0.88493 0.6791 0.94687 0.0
H778 H 0.43981 0.78056 0.08374 0.0
H779 H 0.47129 0.95427 0.08281 0.0
H780 H 0.40569 0.83282 0.14056 0.0
H781 H 0.49557 0.90411 0.01884 0.0
H782 H 0.45117 0.90928 0.10677 0.0
H783 H 0.46438 0.82483 0.06241 0.0
C784 C 0.43769 0.8013 0.09191 0.0
C785 C 0.42057 0.80298 0.11393 0.0
C786 C 0.46099 0.90809 0.08754 0.0
C787 C 0.44851 0.8538 0.08946 0.0
C788 C 0.47257 0.93382 0.07383 0.0
C789 C 0.48507 0.93312 0.04862 0.0
C790 C 0.46194 0.88133 0.07609 0.0
C791 C 0.48608 0.90581 0.03814 0.0
C792 C 0.4516 0.82659 0.07961 0.0
C793 C 0.41838 0.83053 0.12342 0.0
N794 N 0.47461 0.88106 0.05187 0.0
N795 N 0.43215 0.85481 0.11113 0.0
H796 H 0.13918 0.21117 0.64594 0.0
H797 H 0.03233 0.09857 0.58259 0.0
H798 H 0.05553 0.2132 0.65676 0.0
H799 H 0.11599 0.10149 0.56785 0.0
H800 H 0.04018 0.13978 0.61053 0.0
H801 H 0.13081 0.17019 0.61812 0.0
C802 C 0.11902 0.20311 0.64235 0.0
C803 C 0.09803 0.21586 0.65358 0.0
C804 C 0.0568 0.13143 0.60114 0.0
C805 C 0.08828 0.1685 0.62189 0.0
C806 C 0.05234 0.1079 0.58516 0.0
C807 C 0.07354 0.09653 0.57283 0.0
C808 C 0.08264 0.14364 0.60489 0.0
C809 C 0.09904 0.10951 0.57692 0.0
C810 C 0.11425 0.17957 0.62655 0.0
C811 C 0.07232 0.20396 0.6487 0.0
N812 N 0.10286 0.13231 0.59261 0.0
N813 N 0.06817 0.181 0.63317 0.0
H814 H 0.66366 0.30603 0.45555 0.0
H815 H 0.54457 0.40595 0.45003 0.0
H816 H 0.59488 0.28726 0.40842 0.0
H817 H 0.61166 0.41868 0.50069 0.0
H818 H 0.56166 0.36197 0.43491 0.0
H819 H 0.64397 0.3469 0.4727 0.0
C820 C 0.64426 0.31027 0.449 0.0
C821 C 0.6309 0.29298 0.43056 0.0
C822 C 0.57253 0.37436 0.44943 0.0
C823 C 0.6083 0.34042 0.44986 0.0
C824 C 0.56276 0.39942 0.4581 0.0
C825 C 0.57674 0.41611 0.47658 0.0
C826 C 0.59644 0.36603 0.4593 0.0
C827 C 0.60023 0.40663 0.48634 0.0
C828 C 0.63307 0.33382 0.45869 0.0
C829 C 0.60605 0.30013 0.42237 0.0
N830 N 0.60934 0.38236 0.47752 0.0
N831 N 0.59556 0.32333 0.43204 0.0
loop_
_geom_bond_atom_site_label_1
_geom_bond_atom_site_label_2
_geom_bond_distance
_geom_bond_site_symmetry_2
_ccdc_geom_bond_type
C0 C1 1.264 . S
C0 C5 1.479 . S
C0 C10 1.465 . S
C1 C0 1.264 . S
C1 C3 1.339 . S
C1 H28 0.931 . S
C2 C3 1.395 . S
C2 C4 1.320 . S
C3 C1 1.339 . S
C3 C2 1.395 . S
C3 H29 0.929 . S
C4 C2 1.320 . S
C4 C5 1.405 . S
C4 H30 0.930 . S
C5 C0 1.479 . S
C5 C4 1.405 . S
C5 H31 0.931 . S
U6 O7 2.454 . S
U6 O8 2.458 . S
U6 C9 2.984 . S
U6 C10 2.847 . S
U6 C23 2.882 . S
U6 O24 2.441 . S
U6 O25 2.420 . S
U6 O26 2.455 . S
U6 O27 2.449 . S
O7 U6 2.454 . S
O7 C9 1.353 . S
O8 U6 2.458 . S
O8 C9 1.286 . S
C9 U6 2.984 . S
C9 O7 1.353 . S
C9 O8 1.286 . S
C9 C11 1.363 . S
C10 C0 1.465 . S
C10 U6 2.847 . S
C10 O24 1.249 . S
C10 O25 1.202 . S
C11 C9 1.363 . S
C11 C13 1.408 . S
C11 C16 1.342 . S
C12 C13 1.310 . S
C12 C15 1.461 . S
C12 H32 0.932 . S
C13 C11 1.408 . S
C13 C12 1.310 . S
C13 H33 0.930 . S
C14 C15 1.474 . S
C14 C16 1.285 . S
C14 H34 0.929 . S
C15 C12 1.461 . S
C15 C14 1.474 . S
C16 C11 1.342 . S
C16 C14 1.285 . S
C16 H35 0.930 . S
C17 C20 1.424 . S
C17 C22 1.245 . S
C17 C23 1.428 . S
C18 C21 1.260 . S
C18 C22 1.477 . S
C18 H36 0.932 . S
C19 C20 1.384 . S
C19 C21 1.479 . S
C19 H37 0.929 . S
C20 C17 1.424 . S
C20 C19 1.384 . S
C20 H38 0.928 . S
C21 C18 1.260 . S
C21 C19 1.479 . S
C22 C17 1.245 . S
C22 C18 1.477 . S
C22 H39 0.932 . S
C23 U6 2.882 . S
C23 C17 1.428 . S
C23 O26 1.301 . S
C23 O27 1.282 . S
O24 U6 2.441 . S
O24 C10 1.249 . S
O25 U6 2.420 . S
O25 C10 1.202 . S
O26 U6 2.455 . S
O26 C23 1.301 . S
O27 U6 2.449 . S
O27 C23 1.282 . S
H28 C1 0.931 . S
H29 C3 0.929 . S
H30 C4 0.930 . S
H31 C5 0.931 . S
H32 C12 0.932 . S
H33 C13 0.930 . S
H34 C14 0.929 . S
H35 C16 0.930 . S
H36 C18 0.932 . S
H37 C19 0.929 . S
H38 C20 0.928 . S
H39 C22 0.932 . S
C40 C41 1.264 . S
C40 C45 1.479 . S
C40 C50 1.465 . S
C41 C40 1.264 . S
C41 C43 1.339 . S
C41 H68 0.931 . S
C42 C43 1.395 . S
C42 C44 1.320 . S
C43 C41 1.339 . S
C43 C42 1.395 . S
C43 H69 0.929 . S
C44 C42 1.320 . S
C44 C45 1.405 . S
C44 H70 0.930 . S
C45 C40 1.479 . S
C45 C44 1.405 . S
C45 H71 0.931 . S
U46 O47 2.454 . S
U46 O48 2.458 . S
U46 C49 2.984 . S
U46 C50 2.847 . S
U46 C63 2.882 . S
U46 O64 2.441 . S
U46 O65 2.420 . S
U46 O66 2.455 . S
U46 O67 2.449 . S
O47 U46 2.454 . S
O47 C49 1.353 . S
O48 U46 2.458 . S
O48 C49 1.286 . S
C49 U46 2.984 . S
C49 O47 1.353 . S
C49 O48 1.286 . S
C49 C51 1.363 . S
C50 C40 1.465 . S
C50 U46 2.847 . S
C50 O64 1.249 . S
C50 O65 1.202 . S
C51 C49 1.363 . S
C51 C53 1.408 . S
C51 C56 1.342 . S
C52 C53 1.310 . S
C52 C55 1.461 . S
C52 H72 0.932 . S
C53 C51 1.408 . S
C53 C52 1.310 . S
C53 H73 0.930 . S
C54 C55 1.474 . S
C54 C56 1.285 . S
C54 H74 0.929 . S
C55 C52 1.461 . S
C55 C54 1.474 . S
C56 C51 1.342 . S
C56 C54 1.285 . S
C56 H75 0.930 . S
C57 C60 1.424 . S
C57 C62 1.245 . S
C57 C63 1.428 . S
C58 C61 1.260 . S
C58 C62 1.477 . S
C58 H76 0.932 . S
C59 C60 1.384 . S
C59 C61 1.479 . S
C59 H77 0.929 . S
C60 C57 1.424 . S
C60 C59 1.384 . S
C60 H78 0.928 . S
C61 C58 1.260 . S
C61 C59 1.479 . S
C62 C57 1.245 . S
C62 C58 1.477 . S
C62 H79 0.932 . S
C63 U46 2.882 . S
C63 C57 1.428 . S
C63 O66 1.301 . S
C63 O67 1.282 . S
O64 U46 2.441 . S
O64 C50 1.249 . S
O65 U46 2.420 . S
O65 C50 1.202 . S
O66 U46 2.455 . S
O66 C63 1.301 . S
O67 U46 2.449 . S
O67 C63 1.282 . S
H68 C41 0.931 . S
H69 C43 0.929 . S
H70 C44 0.930 . S
H71 C45 0.931 . S
H72 C52 0.932 . S
H73 C53 0.930 . S
H74 C54 0.929 . S
H75 C56 0.930 . S
H76 C58 0.932 . S
H77 C59 0.929 . S
H78 C60 0.928 . S
H79 C62 0.932 . S
C80 C81 1.264 . S
C80 C85 1.479 . S
C80 C90 1.465 . S
C81 C80 1.264 . S
C81 C83 1.339 . S
C81 H108 0.931 . S
C82 C83 1.395 . S
C82 C84 1.320 . S
C83 C81 1.339 . S
C83 C82 1.395 . S
C83 H109 0.929 . S
C84 C82 1.320 . S
C84 C85 1.405 . S
C84 H110 0.930 . S
C85 C80 1.479 . S
C85 C84 1.405 . S
C85 H111 0.931 . S
U86 O87 2.454 . S
U86 O88 2.458 . S
U86 C89 2.984 . S
U86 C90 2.847 . S
U86 C103 2.882 . S
U86 O104 2.441 . S
U86 O105 2.420 . S
U86 O106 2.455 . S
U86 O107 2.449 . S
O87 U86 2.454 . S
O87 C89 1.353 . S
O88 U86 2.458 . S
O88 C89 1.286 . S
C89 U86 2.984 . S
C89 O87 1.353 . S
C89 O88 1.286 . S
C89 C91 1.363 . S
C90 C80 1.465 . S
C90 U86 2.847 . S
C90 O104 1.249 . S
C90 O105 1.202 . S
C91 C89 1.363 . S
C91 C93 1.408 . S
C91 C96 1.342 . S
C92 C93 1.310 . S
C92 C95 1.461 . S
C92 H112 0.932 . S
C93 C91 1.408 . S
C93 C92 1.310 . S
C93 H113 0.930 . S
C94 C95 1.474 . S
C94 C96 1.285 . S
C94 H114 0.929 . S
C95 C92 1.461 . S
C95 C94 1.474 . S
C96 C91 1.342 . S
C96 C94 1.285 . S
C96 H115 0.930 . S
C97 C100 1.424 . S
C97 C102 1.245 . S
C97 C103 1.428 . S
C98 C101 1.260 . S
C98 C102 1.477 . S
C98 H116 0.932 . S
C99 C100 1.384 . S
C99 C101 1.479 . S
C99 H117 0.929 . S
C100 C97 1.424 . S
C100 C99 1.384 . S
C100 H118 0.928 . S
C101 C98 1.260 . S
C101 C99 1.479 . S
C102 C97 1.245 . S
C102 C98 1.477 . S
C102 H119 0.932 . S
C103 U86 2.882 . S
C103 C97 1.428 . S
C103 O106 1.301 . S
C103 O107 1.282 . S
O104 U86 2.441 . S
O104 C90 1.249 . S
O105 U86 2.420 . S
O105 C90 1.202 . S
O106 U86 2.455 . S
O106 C103 1.301 . S
O107 U86 2.449 . S
O107 C103 1.282 . S
H108 C81 0.931 . S
H109 C83 0.929 . S
H110 C84 0.930 . S
H111 C85 0.931 . S
H112 C92 0.932 . S
H113 C93 0.930 . S
H114 C94 0.929 . S
H115 C96 0.930 . S
H116 C98 0.932 . S
H117 C99 0.929 . S
H118 C100 0.928 . S
H119 C102 0.932 . S
C120 C121 1.264 . S
C120 C125 1.479 . S
C120 C130 1.465 . S
C121 C120 1.264 . S
C121 C123 1.339 . S
C121 H148 0.931 . S
C122 C123 1.395 . S
C122 C124 1.320 . S
C123 C121 1.339 . S
C123 C122 1.395 . S
C123 H149 0.929 . S
C124 C122 1.320 . S
C124 C125 1.405 . S
C124 H150 0.930 . S
C125 C120 1.479 . S
C125 C124 1.405 . S
C125 H151 0.931 . S
U126 O127 2.454 . S
U126 O128 2.458 . S
U126 C129 2.984 . S
U126 C130 2.847 . S
U126 C143 2.882 . S
U126 O144 2.441 . S
U126 O145 2.420 . S
U126 O146 2.455 . S
U126 O147 2.449 . S
O127 U126 2.454 . S
O127 C129 1.353 . S
O128 U126 2.458 . S
O128 C129 1.286 . S
C129 U126 2.984 . S
C129 O127 1.353 . S
C129 O128 1.286 . S
C129 C131 1.363 . S
C130 C120 1.465 . S
C130 U126 2.847 . S
C130 O144 1.249 . S
C130 O145 1.202 . S
C131 C129 1.363 . S
C131 C133 1.408 . S
C131 C136 1.342 . S
C132 C133 1.310 . S
C132 C135 1.461 . S
C132 H152 0.932 . S
C133 C131 1.408 . S
C133 C132 1.310 . S
C133 H153 0.930 . S
C134 C135 1.474 . S
C134 C136 1.285 . S
C134 H154 0.929 . S
C135 C132 1.461 . S
C135 C134 1.474 . S
C136 C131 1.342 . S
C136 C134 1.285 . S
C136 H155 0.930 . S
C137 C140 1.424 . S
C137 C142 1.245 . S
C137 C143 1.428 . S
C138 C141 1.260 . S
C138 C142 1.477 . S
C138 H156 0.932 . S
C139 C140 1.384 . S
C139 C141 1.479 . S
C139 H157 0.929 . S
C140 C137 1.424 . S
C140 C139 1.384 . S
C140 H158 0.928 . S
C141 C138 1.260 . S
C141 C139 1.479 . S
C142 C137 1.245 . S
C142 C138 1.477 . S
C142 H159 0.932 . S
C143 U126 2.882 . S
C143 C137 1.428 . S
C143 O146 1.301 . S
C143 O147 1.282 . S
O144 U126 2.441 . S
O144 C130 1.249 . S
O145 U126 2.420 . S
O145 C130 1.202 . S
O146 U126 2.455 . S
O146 C143 1.301 . S
O147 U126 2.449 . S
O147 C143 1.282 . S
H148 C121 0.931 . S
H149 C123 0.929 . S
H150 C124 0.930 . S
H151 C125 0.931 . S
H152 C132 0.932 . S
H153 C133 0.930 . S
H154 C134 0.929 . S
H155 C136 0.930 . S
H156 C138 0.932 . S
H157 C139 0.929 . S
H158 C140 0.928 . S
H159 C142 0.932 . S
C160 C161 1.264 . S
C160 C165 1.479 . S
C160 C170 1.465 . S
C161 C160 1.264 . S
C161 C163 1.339 . S
C161 H188 0.931 . S
C162 C163 1.395 . S
C162 C164 1.320 . S
C163 C161 1.339 . S
C163 C162 1.395 . S
C163 H189 0.929 . S
C164 C162 1.320 . S
C164 C165 1.405 . S
C164 H190 0.930 . S
C165 C160 1.479 . S
C165 C164 1.405 . S
C165 H191 0.931 . S
U166 O167 2.454 . S
U166 O168 2.458 . S
U166 C169 2.984 . S
U166 C170 2.847 . S
U166 C183 2.882 . S
U166 O184 2.441 . S
U166 O185 2.420 . S
U166 O186 2.455 . S
U166 O187 2.449 . S
O167 U166 2.454 . S
O167 C169 1.353 . S
O168 U166 2.458 . S
O168 C169 1.286 . S
C169 U166 2.984 . S
C169 O167 1.353 . S
C169 O168 1.286 . S
C169 C171 1.363 . S
C170 C160 1.465 . S
C170 U166 2.847 . S
C170 O184 1.249 . S
C170 O185 1.202 . S
C171 C169 1.363 . S
C171 C173 1.408 . S
C171 C176 1.342 . S
C172 C173 1.310 . S
C172 C175 1.461 . S
C172 H192 0.932 . S
C173 C171 1.408 . S
C173 C172 1.310 . S
C173 H193 0.930 . S
C174 C175 1.474 . S
C174 C176 1.285 . S
C174 H194 0.929 . S
C175 C172 1.461 . S
C175 C174 1.474 . S
C176 C171 1.342 . S
C176 C174 1.285 . S
C176 H195 0.930 . S
C177 C180 1.424 . S
C177 C182 1.245 . S
C177 C183 1.428 . S
C178 C181 1.260 . S
C178 C182 1.477 . S
C178 H196 0.932 . S
C179 C180 1.384 . S
C179 C181 1.479 . S
C179 H197 0.929 . S
C180 C177 1.424 . S
C180 C179 1.384 . S
C180 H198 0.928 . S
C181 C178 1.260 . S
C181 C179 1.479 . S
C182 C177 1.245 . S
C182 C178 1.477 . S
C182 H199 0.932 . S
C183 U166 2.882 . S
C183 C177 1.428 . S
C183 O186 1.301 . S
C183 O187 1.282 . S
O184 U166 2.441 . S
O184 C170 1.249 . S
O185 U166 2.420 . S
O185 C170 1.202 . S
O186 U166 2.455 . S
O186 C183 1.301 . S
O187 U166 2.449 . S
O187 C183 1.282 . S
H188 C161 0.931 . S
H189 C163 0.929 . S
H190 C164 0.930 . S
H191 C165 0.931 . S
H192 C172 0.932 . S
H193 C173 0.930 . S
H194 C174 0.929 . S
H195 C176 0.930 . S
H196 C178 0.932 . S
H197 C179 0.929 . S
H198 C180 0.928 . S
H199 C182 0.932 . S
C200 C201 1.264 . S
C200 C205 1.479 . S
C200 C210 1.465 . S
C201 C200 1.264 . S
C201 C203 1.339 . S
C201 H228 0.931 . S
C202 C203 1.395 . S
C202 C204 1.320 . S
C203 C201 1.339 . S
C203 C202 1.395 . S
C203 H229 0.929 . S
C204 C202 1.320 . S
C204 C205 1.405 . S
C204 H230 0.930 . S
C205 C200 1.479 . S
C205 C204 1.405 . S
C205 H231 0.931 . S
U206 O207 2.454 . S
U206 O208 2.458 . S
U206 C209 2.984 . S
U206 C210 2.847 . S
U206 C223 2.882 . S
U206 O224 2.441 . S
U206 O225 2.420 . S
U206 O226 2.455 . S
U206 O227 2.449 . S
O207 U206 2.454 . S
O207 C209 1.353 . S
O208 U206 2.458 . S
O208 C209 1.286 . S
C209 U206 2.984 . S
C209 O207 1.353 . S
C209 O208 1.286 . S
C209 C211 1.363 . S
C210 C200 1.465 . S
C210 U206 2.847 . S
C210 O224 1.249 . S
C210 O225 1.202 . S
C211 C209 1.363 . S
C211 C213 1.408 . S
C211 C216 1.342 . S
C212 C213 1.310 . S
C212 C215 1.461 . S
C212 H232 0.932 . S
C213 C211 1.408 . S
C213 C212 1.310 . S
C213 H233 0.930 . S
C214 C215 1.474 . S
C214 C216 1.285 . S
C214 H234 0.929 . S
C215 C212 1.461 . S
C215 C214 1.474 . S
C216 C211 1.342 . S
C216 C214 1.285 . S
C216 H235 0.930 . S
C217 C220 1.424 . S
C217 C222 1.245 . S
C217 C223 1.428 . S
C218 C221 1.260 . S
C218 C222 1.477 . S
C218 H236 0.932 . S
C219 C220 1.384 . S
C219 C221 1.479 . S
C219 H237 0.929 . S
C220 C217 1.424 . S
C220 C219 1.384 . S
C220 H238 0.928 . S
C221 C218 1.260 . S
C221 C219 1.479 . S
C222 C217 1.245 . S
C222 C218 1.477 . S
C222 H239 0.932 . S
C223 U206 2.882 . S
C223 C217 1.428 . S
C223 O226 1.301 . S
C223 O227 1.282 . S
O224 U206 2.441 . S
O224 C210 1.249 . S
O225 U206 2.420 . S
O225 C210 1.202 . S
O226 U206 2.455 . S
O226 C223 1.301 . S
O227 U206 2.449 . S
O227 C223 1.282 . S
H228 C201 0.931 . S
H229 C203 0.929 . S
H230 C204 0.930 . S
H231 C205 0.931 . S
H232 C212 0.932 . S
H233 C213 0.930 . S
H234 C214 0.929 . S
H235 C216 0.930 . S
H236 C218 0.932 . S
H237 C219 0.929 . S
H238 C220 0.928 . S
H239 C222 0.932 . S
C240 C241 1.264 . S
C240 C245 1.479 . S
C240 C250 1.465 . S
C241 C240 1.264 . S
C241 C243 1.339 . S
C241 H268 0.931 . S
C242 C243 1.395 . S
C242 C244 1.320 . S
C243 C241 1.339 . S
C243 C242 1.395 . S
C243 H269 0.929 . S
C244 C242 1.320 . S
C244 C245 1.405 . S
C244 H270 0.930 . S
C245 C240 1.479 . S
C245 C244 1.405 . S
C245 H271 0.931 . S
U246 O247 2.454 . S
U246 O248 2.458 . S
U246 C249 2.984 . S
U246 C250 2.847 . S
U246 C263 2.882 . S
U246 O264 2.441 . S
U246 O265 2.420 . S
U246 O266 2.455 . S
U246 O267 2.449 . S
O247 U246 2.454 . S
O247 C249 1.353 . S
O248 U246 2.458 . S
O248 C249 1.286 . S
C249 U246 2.984 . S
C249 O247 1.353 . S
C249 O248 1.286 . S
C249 C251 1.363 . S
C250 C240 1.465 . S
C250 U246 2.847 . S
C250 O264 1.249 . S
C250 O265 1.202 . S
C251 C249 1.363 . S
C251 C253 1.408 . S
C251 C256 1.342 . S
C252 C253 1.310 . S
C252 C255 1.461 . S
C252 H272 0.932 . S
C253 C251 1.408 . S
C253 C252 1.310 . S
C253 H273 0.930 . S
C254 C255 1.474 . S
C254 C256 1.285 . S
C254 H274 0.929 . S
C255 C252 1.461 . S
C255 C254 1.474 . S
C256 C251 1.342 . S
C256 C254 1.285 . S
C256 H275 0.930 . S
C257 C260 1.424 . S
C257 C262 1.245 . S
C257 C263 1.428 . S
C258 C261 1.260 . S
C258 C262 1.477 . S
C258 H276 0.932 . S
C259 C260 1.384 . S
C259 C261 1.479 . S
C259 H277 0.929 . S
C260 C257 1.424 . S
C260 C259 1.384 . S
C260 H278 0.928 . S
C261 C258 1.260 . S
C261 C259 1.479 . S
C262 C257 1.245 . S
C262 C258 1.477 . S
C262 H279 0.932 . S
C263 U246 2.882 . S
C263 C257 1.428 . S
C263 O266 1.301 . S
C263 O267 1.282 . S
O264 U246 2.441 . S
O264 C250 1.249 . S
O265 U246 2.420 . S
O265 C250 1.202 . S
O266 U246 2.455 . S
O266 C263 1.301 . S
O267 U246 2.449 . S
O267 C263 1.282 . S
H268 C241 0.931 . S
H269 C243 0.929 . S
H270 C244 0.930 . S
H271 C245 0.931 . S
H272 C252 0.932 . S
H273 C253 0.930 . S
H274 C254 0.929 . S
H275 C256 0.930 . S
H276 C258 0.932 . S
H277 C259 0.929 . S
H278 C260 0.928 . S
H279 C262 0.932 . S
C280 C281 1.264 . S
C280 C285 1.479 . S
C280 C290 1.465 . S
C281 C280 1.264 . S
C281 C283 1.339 . S
C281 H308 0.931 . S
C282 C283 1.395 . S
C282 C284 1.320 . S
C283 C281 1.339 . S
C283 C282 1.395 . S
C283 H309 0.929 . S
C284 C282 1.320 . S
C284 C285 1.405 . S
C284 H310 0.930 . S
C285 C280 1.479 . S
C285 C284 1.405 . S
C285 H311 0.931 . S
U286 O287 2.454 . S
U286 O288 2.458 . S
U286 C289 2.984 . S
U286 C290 2.847 . S
U286 C303 2.882 . S
U286 O304 2.441 . S
U286 O305 2.420 . S
U286 O306 2.455 . S
U286 O307 2.449 . S
O287 U286 2.454 . S
O287 C289 1.353 . S
O288 U286 2.458 . S
O288 C289 1.286 . S
C289 U286 2.984 . S
C289 O287 1.353 . S
C289 O288 1.286 . S
C289 C291 1.363 . S
C290 C280 1.465 . S
C290 U286 2.847 . S
C290 O304 1.249 . S
C290 O305 1.202 . S
C291 C289 1.363 . S
C291 C293 1.408 . S
C291 C296 1.342 . S
C292 C293 1.310 . S
C292 C295 1.461 . S
C292 H312 0.932 . S
C293 C291 1.408 . S
C293 C292 1.310 . S
C293 H313 0.930 . S
C294 C295 1.474 . S
C294 C296 1.285 . S
C294 H314 0.929 . S
C295 C292 1.461 . S
C295 C294 1.474 . S
C296 C291 1.342 . S
C296 C294 1.285 . S
C296 H315 0.930 . S
C297 C300 1.424 . S
C297 C302 1.245 . S
C297 C303 1.428 . S
C298 C301 1.260 . S
C298 C302 1.477 . S
C298 H316 0.932 . S
C299 C300 1.384 . S
C299 C301 1.479 . S
C299 H317 0.929 . S
C300 C297 1.424 . S
C300 C299 1.384 . S
C300 H318 0.928 . S
C301 C298 1.260 . S
C301 C299 1.479 . S
C302 C297 1.245 . S
C302 C298 1.477 . S
C302 H319 0.932 . S
C303 U286 2.882 . S
C303 C297 1.428 . S
C303 O306 1.301 . S
C303 O307 1.282 . S
O304 U286 2.441 . S
O304 C290 1.249 . S
O305 U286 2.420 . S
O305 C290 1.202 . S
O306 U286 2.455 . S
O306 C303 1.301 . S
O307 U286 2.449 . S
O307 C303 1.282 . S
H308 C281 0.931 . S
H309 C283 0.929 . S
H310 C284 0.930 . S
H311 C285 0.931 . S
H312 C292 0.932 . S
H313 C293 0.930 . S
H314 C294 0.929 . S
H315 C296 0.930 . S
H316 C298 0.932 . S
H317 C299 0.929 . S
H318 C300 0.928 . S
H319 C302 0.932 . S
Zn320 O326 1.969 1_545 S
Zn320 O327 1.965 1_545 S
Zn320 O331 2.024 . S
Zn320 O336 1.969 . S
Zn321 O328 1.969 . S
Zn321 O334 1.969 1_565 S
Zn321 O335 1.965 1_665 S
Zn321 O337 2.024 . S
C322 O323 1.229 . S
C322 O331 1.058 . S
O323 C322 1.229 . S
C324 O325 1.229 . S
C324 O337 1.058 . S
O325 C324 1.229 . S
O326 Zn320 1.969 1_565 S
O326 C329 1.267 . S
O327 Zn320 1.965 1_565 S
O327 C338 1.260 1_455 S
O328 Zn321 1.969 . S
O328 C338 1.258 . S
C329 O326 1.267 . S
C329 O330 1.228 . S
O330 C329 1.228 . S
O331 Zn320 2.024 . S
O331 C322 1.058 . S
C332 O333 1.228 . S
C332 O334 1.267 . S
O333 C332 1.228 . S
O334 Zn321 1.969 1_545 S
O334 C332 1.267 . S
O335 Zn321 1.965 1_445 S
O335 C339 1.260 . S
O336 Zn320 1.969 . S
O336 C339 1.258 . S
O337 Zn321 2.024 . S
O337 C324 1.058 . S
C338 O327 1.260 1_655 S
C338 O328 1.258 . S
C339 O335 1.260 . S
C339 O336 1.258 . S
Zn340 O346 1.969 . S
Zn340 O347 1.965 1_565 S
Zn340 O351 2.024 . S
Zn340 O356 1.969 1_556 S
Zn341 O348 1.969 . S
Zn341 O354 1.969 . S
Zn341 O355 1.965 1_545 S
Zn341 O357 2.024 . S
C342 O343 1.229 . S
C342 O351 1.058 . S
O343 C342 1.229 . S
C344 O345 1.229 . S
C344 O357 1.058 . S
O345 C344 1.229 . S
O346 Zn340 1.969 . S
O346 C349 1.267 . S
O347 Zn340 1.965 1_545 S
O347 C358 1.260 . S
O348 Zn341 1.969 . S
O348 C358 1.258 1_554 S
C349 O346 1.267 . S
C349 O350 1.228 . S
O350 C349 1.228 . S
O351 Zn340 2.024 . S
O351 C342 1.058 . S
C352 O353 1.228 . S
C352 O354 1.267 . S
O353 C352 1.228 . S
O354 Zn341 1.969 . S
O354 C352 1.267 . S
O355 Zn341 1.965 1_565 S
O355 C359 1.260 . S
O356 Zn340 1.969 1_554 S
O356 C359 1.258 . S
O357 Zn341 2.024 . S
O357 C344 1.058 . S
C358 O347 1.260 . S
C358 O348 1.258 1_556 S
C359 O355 1.260 . S
C359 O356 1.258 . S
Zn360 O366 1.969 . S
Zn360 O367 1.965 . S
Zn360 O371 2.024 . S
Zn360 O376 1.969 . S
Zn361 O368 1.969 . S
Zn361 O374 1.969 . S
Zn361 O375 1.965 . S
Zn361 O377 2.024 . S
C362 O363 1.229 . S
C362 O371 1.058 . S
O363 C362 1.229 . S
C364 O365 1.229 . S
C364 O377 1.058 . S
O365 C364 1.229 . S
O366 Zn360 1.969 . S
O366 C369 1.267 . S
O367 Zn360 1.965 . S
O367 C378 1.260 . S
O368 Zn361 1.969 . S
O368 C378 1.258 . S
C369 O366 1.267 . S
C369 O370 1.228 . S
O370 C369 1.228 . S
O371 Zn360 2.024 . S
O371 C362 1.058 . S
C372 O373 1.228 . S
C372 O374 1.267 . S
O373 C372 1.228 . S
O374 Zn361 1.969 . S
O374 C372 1.267 . S
O375 Zn361 1.965 . S
O375 C379 1.260 . S
O376 Zn360 1.969 . S
O376 C379 1.258 . S
O377 Zn361 2.024 . S
O377 C364 1.058 . S
C378 O367 1.260 . S
C378 O368 1.258 . S
C379 O375 1.260 . S
C379 O376 1.258 . S
Zn380 O386 1.969 . S
Zn380 O387 1.965 1_556 S
Zn380 O391 2.024 . S
Zn380 O396 1.969 1_655 S
Zn381 O388 1.969 . S
Zn381 O394 1.969 . S
Zn381 O395 1.965 1_554 S
Zn381 O397 2.024 . S
C382 O383 1.229 . S
C382 O391 1.058 . S
O383 C382 1.229 . S
C384 O385 1.229 . S
C384 O397 1.058 . S
O385 C384 1.229 . S
O386 Zn380 1.969 . S
O386 C389 1.267 . S
O387 Zn380 1.965 1_554 S
O387 C398 1.260 . S
O388 Zn381 1.969 . S
O388 C398 1.258 1_455 S
C389 O386 1.267 . S
C389 O390 1.228 . S
O390 C389 1.228 . S
O391 Zn380 2.024 . S
O391 C382 1.058 . S
C392 O393 1.228 . S
C392 O394 1.267 . S
O393 C392 1.228 . S
O394 Zn381 1.969 . S
O394 C392 1.267 . S
O395 Zn381 1.965 1_556 S
O395 C399 1.260 . S
O396 Zn380 1.969 1_455 S
O396 C399 1.258 . S
O397 Zn381 2.024 . S
O397 C384 1.058 . S
C398 O387 1.260 . S
C398 O388 1.258 1_655 S
C399 O395 1.260 . S
C399 O396 1.258 . S
H400 C406 0.930 . S
H401 C410 0.930 . S
H402 C415 0.929 . S
H403 C413 0.929 . S
H404 C408 0.929 . S
H405 C414 0.929 . S
C406 H400 0.930 . S
C406 C407 1.367 . S
C406 C414 1.378 . S
C407 C406 1.367 . S
C407 C415 1.433 . S
C408 H404 0.929 . S
C408 C410 1.378 . S
C408 C412 1.350 . S
C409 C412 1.463 . S
C409 C414 1.350 . S
C409 N417 1.427 . S
C410 H401 0.930 . S
C410 C408 1.378 . S
C410 C411 1.367 . S
C411 C410 1.367 . S
C411 C413 1.433 . S
C412 C408 1.350 . S
C412 C409 1.463 . S
C412 N416 1.427 . S
C413 H403 0.929 . S
C413 C411 1.433 . S
C413 N416 1.384 . S
C414 H405 0.929 . S
C414 C406 1.378 . S
C414 C409 1.350 . S
C415 H402 0.929 . S
C415 C407 1.433 . S
C415 N417 1.384 . S
N416 C412 1.427 . S
N416 C413 1.384 . S
N417 C409 1.427 . S
N417 C415 1.384 . S
H418 C424 0.930 . S
H419 C428 0.930 . S
H420 C433 0.929 . S
H421 C431 0.929 . S
H422 C426 0.929 . S
H423 C432 0.929 . S
C424 H418 0.930 . S
C424 C425 1.367 . S
C424 C432 1.378 . S
C425 C424 1.367 . S
C425 C433 1.433 . S
C426 H422 0.929 . S
C426 C428 1.378 . S
C426 C430 1.350 . S
C427 C430 1.463 . S
C427 C432 1.350 . S
C427 N435 1.427 . S
C428 H419 0.930 . S
C428 C426 1.378 . S
C428 C429 1.367 . S
C429 C428 1.367 . S
C429 C431 1.433 . S
C430 C426 1.350 . S
C430 C427 1.463 . S
C430 N434 1.427 . S
C431 H421 0.929 . S
C431 C429 1.433 . S
C431 N434 1.384 . S
C432 H423 0.929 . S
C432 C424 1.378 . S
C432 C427 1.350 . S
C433 H420 0.929 . S
C433 C425 1.433 . S
C433 N435 1.384 . S
N434 C430 1.427 . S
N434 C431 1.384 . S
N435 C427 1.427 . S
N435 C433 1.384 . S
H436 C442 0.930 . S
H437 C446 0.930 . S
H438 C451 0.929 . S
H439 C449 0.929 . S
H440 C444 0.929 . S
H441 C450 0.929 . S
C442 H436 0.930 . S
C442 C443 1.367 . S
C442 C450 1.378 . S
C443 C442 1.367 . S
C443 C451 1.433 . S
C444 H440 0.929 . S
C444 C446 1.378 . S
C444 C448 1.350 . S
C445 C448 1.463 . S
C445 C450 1.350 . S
C445 N453 1.427 . S
C446 H437 0.930 . S
C446 C444 1.378 . S
C446 C447 1.367 . S
C447 C446 1.367 . S
C447 C449 1.433 . S
C448 C444 1.350 . S
C448 C445 1.463 . S
C448 N452 1.427 . S
C449 H439 0.929 . S
C449 C447 1.433 . S
C449 N452 1.384 . S
C450 H441 0.929 . S
C450 C442 1.378 . S
C450 C445 1.350 . S
C451 H438 0.929 . S
C451 C443 1.433 . S
C451 N453 1.384 . S
N452 C448 1.427 . S
N452 C449 1.384 . S
N453 C445 1.427 . S
N453 C451 1.384 . S
H454 C460 0.930 . S
H455 C464 0.930 . S
H456 C469 0.929 . S
H457 C467 0.929 . S
H458 C462 0.929 . S
H459 C468 0.929 . S
C460 H454 0.930 . S
C460 C461 1.367 . S
C460 C468 1.378 . S
C461 C460 1.367 . S
C461 C469 1.433 . S
C462 H458 0.929 . S
C462 C464 1.378 . S
C462 C466 1.350 . S
C463 C466 1.463 . S
C463 C468 1.350 . S
C463 N471 1.427 . S
C464 H455 0.930 . S
C464 C462 1.378 . S
C464 C465 1.367 . S
C465 C464 1.367 . S
C465 C467 1.433 . S
C466 C462 1.350 . S
C466 C463 1.463 . S
C466 N470 1.427 . S
C467 H457 0.929 . S
C467 C465 1.433 . S
C467 N470 1.384 . S
C468 H459 0.929 . S
C468 C460 1.378 . S
C468 C463 1.350 . S
C469 H456 0.929 . S
C469 C461 1.433 . S
C469 N471 1.384 . S
N470 C466 1.427 . S
N470 C467 1.384 . S
N471 C463 1.427 . S
N471 C469 1.384 . S
H472 C478 0.930 . S
H473 C482 0.930 . S
H474 C487 0.929 . S
H475 C485 0.929 . S
H476 C480 0.929 . S
H477 C486 0.929 . S
C478 H472 0.930 . S
C478 C479 1.367 . S
C478 C486 1.378 . S
C479 C478 1.367 . S
C479 C487 1.433 . S
C480 H476 0.929 . S
C480 C482 1.378 . S
C480 C484 1.350 . S
C481 C484 1.463 . S
C481 C486 1.350 . S
C481 N489 1.427 . S
C482 H473 0.930 . S
C482 C480 1.378 . S
C482 C483 1.367 . S
C483 C482 1.367 . S
C483 C485 1.433 . S
C484 C480 1.350 . S
C484 C481 1.463 . S
C484 N488 1.427 . S
C485 H475 0.929 . S
C485 C483 1.433 . S
C485 N488 1.384 . S
C486 H477 0.929 . S
C486 C478 1.378 . S
C486 C481 1.350 . S
C487 H474 0.929 . S
C487 C479 1.433 . S
C487 N489 1.384 . S
N488 C484 1.427 . S
N488 C485 1.384 . S
N489 C481 1.427 . S
N489 C487 1.384 . S
H490 C496 0.930 . S
H491 C500 0.930 . S
H492 C505 0.929 . S
H493 C503 0.929 . S
H494 C498 0.929 . S
H495 C504 0.929 . S
C496 H490 0.930 . S
C496 C497 1.367 . S
C496 C504 1.378 . S
C497 C496 1.367 . S
C497 C505 1.433 . S
C498 H494 0.929 . S
C498 C500 1.378 . S
C498 C502 1.350 . S
C499 C502 1.463 . S
C499 C504 1.350 . S
C499 N507 1.427 . S
C500 H491 0.930 . S
C500 C498 1.378 . S
C500 C501 1.367 . S
C501 C500 1.367 . S
C501 C503 1.433 . S
C502 C498 1.350 . S
C502 C499 1.463 . S
C502 N506 1.427 . S
C503 H493 0.929 . S
C503 C501 1.433 . S
C503 N506 1.384 . S
C504 H495 0.929 . S
C504 C496 1.378 . S
C504 C499 1.350 . S
C505 H492 0.929 . S
C505 C497 1.433 . S
C505 N507 1.384 . S
N506 C502 1.427 . S
N506 C503 1.384 . S
N507 C499 1.427 . S
N507 C505 1.384 . S
H508 C514 0.930 . S
H509 C518 0.930 . S
H510 C523 0.929 . S
H511 C521 0.929 . S
H512 C516 0.929 . S
H513 C522 0.929 . S
C514 H508 0.930 . S
C514 C515 1.367 . S
C514 C522 1.378 . S
C515 C514 1.367 . S
C515 C523 1.433 . S
C516 H512 0.929 . S
C516 C518 1.378 . S
C516 C520 1.350 . S
C517 C520 1.463 . S
C517 C522 1.350 . S
C517 N525 1.427 . S
C518 H509 0.930 . S
C518 C516 1.378 . S
C518 C519 1.367 . S
C519 C518 1.367 . S
C519 C521 1.433 . S
C520 C516 1.350 . S
C520 C517 1.463 . S
C520 N524 1.427 . S
C521 H511 0.929 . S
C521 C519 1.433 . S
C521 N524 1.384 . S
C522 H513 0.929 . S
C522 C514 1.378 . S
C522 C517 1.350 . S
C523 H510 0.929 . S
C523 C515 1.433 . S
C523 N525 1.384 . S
N524 C520 1.427 . S
N524 C521 1.384 . S
N525 C517 1.427 . S
N525 C523 1.384 . S
H526 C532 0.930 . S
H527 C536 0.930 . S
H528 C541 0.929 . S
H529 C539 0.929 . S
H530 C534 0.929 . S
H531 C540 0.929 . S
C532 H526 0.930 . S
C532 C533 1.367 . S
C532 C540 1.378 . S
C533 C532 1.367 . S
C533 C541 1.433 . S
C534 H530 0.929 . S
C534 C536 1.378 . S
C534 C538 1.350 . S
C535 C538 1.463 . S
C535 C540 1.350 . S
C535 N543 1.427 . S
C536 H527 0.930 . S
C536 C534 1.378 . S
C536 C537 1.367 . S
C537 C536 1.367 . S
C537 C539 1.433 . S
C538 C534 1.350 . S
C538 C535 1.463 . S
C538 N542 1.427 . S
C539 H529 0.929 . S
C539 C537 1.433 . S
C539 N542 1.384 . S
C540 H531 0.929 . S
C540 C532 1.378 . S
C540 C535 1.350 . S
C541 H528 0.929 . S
C541 C533 1.433 . S
C541 N543 1.384 . S
N542 C538 1.427 . S
N542 C539 1.384 . S
N543 C535 1.427 . S
N543 C541 1.384 . S
H544 C550 0.930 . S
H545 C554 0.930 . S
H546 C559 0.929 . S
H547 C557 0.929 . S
H548 C552 0.929 . S
H549 C558 0.929 . S
C550 H544 0.930 . S
C550 C551 1.367 . S
C550 C558 1.378 . S
C551 C550 1.367 . S
C551 C559 1.433 . S
C552 H548 0.929 . S
C552 C554 1.378 . S
C552 C556 1.350 . S
C553 C556 1.463 . S
C553 C558 1.350 . S
C553 N561 1.427 . S
C554 H545 0.930 . S
C554 C552 1.378 . S
C554 C555 1.367 . S
C555 C554 1.367 . S
C555 C557 1.433 . S
C556 C552 1.350 . S
C556 C553 1.463 . S
C556 N560 1.427 . S
C557 H547 0.929 . S
C557 C555 1.433 . S
C557 N560 1.384 . S
C558 H549 0.929 . S
C558 C550 1.378 . S
C558 C553 1.350 . S
C559 H546 0.929 . S
C559 C551 1.433 . S
C559 N561 1.384 . S
N560 C556 1.427 . S
N560 C557 1.384 . S
N561 C553 1.427 . S
N561 C559 1.384 . S
H562 C568 0.930 . S
H563 C572 0.930 . S
H564 C577 0.929 . S
H565 C575 0.929 . S
H566 C570 0.929 . S
H567 C576 0.929 . S
C568 H562 0.930 . S
C568 C569 1.367 . S
C568 C576 1.378 . S
C569 C568 1.367 . S
C569 C577 1.433 . S
C570 H566 0.929 . S
C570 C572 1.378 . S
C570 C574 1.350 . S
C571 C574 1.463 . S
C571 C576 1.350 . S
C571 N579 1.427 . S
C572 H563 0.930 . S
C572 C570 1.378 . S
C572 C573 1.367 . S
C573 C572 1.367 . S
C573 C575 1.433 . S
C574 C570 1.350 . S
C574 C571 1.463 . S
C574 N578 1.427 . S
C575 H565 0.929 . S
C575 C573 1.433 . S
C575 N578 1.384 . S
C576 H567 0.929 . S
C576 C568 1.378 . S
C576 C571 1.350 . S
C577 H564 0.929 . S
C577 C569 1.433 . S
C577 N579 1.384 . S
N578 C574 1.427 . S
N578 C575 1.384 . S
N579 C571 1.427 . S
N579 C577 1.384 . S
H580 C586 0.930 . S
H581 C590 0.930 . S
H582 C595 0.929 . S
H583 C593 0.929 . S
H584 C588 0.929 . S
H585 C594 0.929 . S
C586 H580 0.930 . S
C586 C587 1.367 . S
C586 C594 1.378 . S
C587 C586 1.367 . S
C587 C595 1.433 . S
C588 H584 0.929 . S
C588 C590 1.378 . S
C588 C592 1.350 . S
C589 C592 1.463 . S
C589 C594 1.350 . S
C589 N597 1.427 . S
C590 H581 0.930 . S
C590 C588 1.378 . S
C590 C591 1.367 . S
C591 C590 1.367 . S
C591 C593 1.433 . S
C592 C588 1.350 . S
C592 C589 1.463 . S
C592 N596 1.427 . S
C593 H583 0.929 . S
C593 C591 1.433 . S
C593 N596 1.384 . S
C594 H585 0.929 . S
C594 C586 1.378 . S
C594 C589 1.350 . S
C595 H582 0.929 . S
C595 C587 1.433 . S
C595 N597 1.384 . S
N596 C592 1.427 . S
N596 C593 1.384 . S
N597 C589 1.427 . S
N597 C595 1.384 . S
H598 C604 0.930 . S
H599 C608 0.930 . S
H600 C613 0.929 . S
H601 C611 0.929 . S
H602 C606 0.929 . S
H603 C612 0.929 . S
C604 H598 0.930 . S
C604 C605 1.367 . S
C604 C612 1.378 . S
C605 C604 1.367 . S
C605 C613 1.433 . S
C606 H602 0.929 . S
C606 C608 1.378 . S
C606 C610 1.350 . S
C607 C610 1.463 . S
C607 C612 1.350 . S
C607 N615 1.427 . S
C608 H599 0.930 . S
C608 C606 1.378 . S
C608 C609 1.367 . S
C609 C608 1.367 . S
C609 C611 1.433 . S
C610 C606 1.350 . S
C610 C607 1.463 . S
C610 N614 1.427 . S
C611 H601 0.929 . S
C611 C609 1.433 . S
C611 N614 1.384 . S
C612 H603 0.929 . S
C612 C604 1.378 . S
C612 C607 1.350 . S
C613 H600 0.929 . S
C613 C605 1.433 . S
C613 N615 1.384 . S
N614 C610 1.427 . S
N614 C611 1.384 . S
N615 C607 1.427 . S
N615 C613 1.384 . S
H616 C622 0.930 . S
H617 C626 0.930 . S
H618 C631 0.929 . S
H619 C629 0.929 . S
H620 C624 0.929 . S
H621 C630 0.929 . S
C622 H616 0.930 . S
C622 C623 1.367 . S
C622 C630 1.378 . S
C623 C622 1.367 . S
C623 C631 1.433 . S
C624 H620 0.929 . S
C624 C626 1.378 . S
C624 C628 1.350 . S
C625 C628 1.463 . S
C625 C630 1.350 . S
C625 N633 1.427 . S
C626 H617 0.930 . S
C626 C624 1.378 . S
C626 C627 1.367 . S
C627 C626 1.367 . S
C627 C629 1.433 . S
C628 C624 1.350 . S
C628 C625 1.463 . S
C628 N632 1.427 . S
C629 H619 0.929 . S
C629 C627 1.433 . S
C629 N632 1.384 . S
C630 H621 0.929 . S
C630 C622 1.378 . S
C630 C625 1.350 . S
C631 H618 0.929 . S
C631 C623 1.433 . S
C631 N633 1.384 . S
N632 C628 1.427 . S
N632 C629 1.384 . S
N633 C625 1.427 . S
N633 C631 1.384 . S
H634 C640 0.930 . S
H635 C644 0.930 . S
H636 C649 0.929 . S
H637 C647 0.929 . S
H638 C642 0.929 . S
H639 C648 0.929 . S
C640 H634 0.930 . S
C640 C641 1.367 . S
C640 C648 1.378 . S
C641 C640 1.367 . S
C641 C649 1.433 . S
C642 H638 0.929 . S
C642 C644 1.378 . S
C642 C646 1.350 . S
C643 C646 1.463 . S
C643 C648 1.350 . S
C643 N651 1.427 . S
C644 H635 0.930 . S
C644 C642 1.378 . S
C644 C645 1.367 . S
C645 C644 1.367 . S
C645 C647 1.433 . S
C646 C642 1.350 . S
C646 C643 1.463 . S
C646 N650 1.427 . S
C647 H637 0.929 . S
C647 C645 1.433 . S
C647 N650 1.384 . S
C648 H639 0.929 . S
C648 C640 1.378 . S
C648 C643 1.350 . S
C649 H636 0.929 . S
C649 C641 1.433 . S
C649 N651 1.384 . S
N650 C646 1.427 . S
N650 C647 1.384 . S
N651 C643 1.427 . S
N651 C649 1.384 . S
H652 C658 0.930 . S
H653 C662 0.930 . S
H654 C667 0.929 . S
H655 C665 0.929 . S
H656 C660 0.929 . S
H657 C666 0.929 . S
C658 H652 0.930 . S
C658 C659 1.367 . S
C658 C666 1.378 . S
C659 C658 1.367 . S
C659 C667 1.433 . S
C660 H656 0.929 . S
C660 C662 1.378 . S
C660 C664 1.350 . S
C661 C664 1.463 . S
C661 C666 1.350 . S
C661 N669 1.427 . S
C662 H653 0.930 . S
C662 C660 1.378 . S
C662 C663 1.367 . S
C663 C662 1.367 . S
C663 C665 1.433 . S
C664 C660 1.350 . S
C664 C661 1.463 . S
C664 N668 1.427 . S
C665 H655 0.929 . S
C665 C663 1.433 . S
C665 N668 1.384 . S
C666 H657 0.929 . S
C666 C658 1.378 . S
C666 C661 1.350 . S
C667 H654 0.929 . S
C667 C659 1.433 . S
C667 N669 1.384 . S
N668 C664 1.427 . S
N668 C665 1.384 . S
N669 C661 1.427 . S
N669 C667 1.384 . S
H670 C676 0.930 . S
H671 C680 0.930 . S
H672 C685 0.929 . S
H673 C683 0.929 . S
H674 C678 0.929 . S
H675 C684 0.929 . S
C676 H670 0.930 . S
C676 C677 1.367 . S
C676 C684 1.378 . S
C677 C676 1.367 . S
C677 C685 1.433 . S
C678 H674 0.929 . S
C678 C680 1.378 . S
C678 C682 1.350 . S
C679 C682 1.463 . S
C679 C684 1.350 . S
C679 N687 1.427 . S
C680 H671 0.930 . S
C680 C678 1.378 . S
C680 C681 1.367 . S
C681 C680 1.367 . S
C681 C683 1.433 . S
C682 C678 1.350 . S
C682 C679 1.463 . S
C682 N686 1.427 . S
C683 H673 0.929 . S
C683 C681 1.433 . S
C683 N686 1.384 . S
C684 H675 0.929 . S
C684 C676 1.378 . S
C684 C679 1.350 . S
C685 H672 0.929 . S
C685 C677 1.433 . S
C685 N687 1.384 . S
N686 C682 1.427 . S
N686 C683 1.384 . S
N687 C679 1.427 . S
N687 C685 1.384 . S
H688 C694 0.930 . S
H689 C698 0.930 . S
H690 C703 0.929 . S
H691 C701 0.929 . S
H692 C696 0.929 . S
H693 C702 0.929 . S
C694 H688 0.930 . S
C694 C695 1.367 . S
C694 C702 1.378 . S
C695 C694 1.367 . S
C695 C703 1.433 . S
C696 H692 0.929 . S
C696 C698 1.378 . S
C696 C700 1.350 . S
C697 C700 1.463 . S
C697 C702 1.350 . S
C697 N705 1.427 . S
C698 H689 0.930 . S
C698 C696 1.378 . S
C698 C699 1.367 . S
C699 C698 1.367 . S
C699 C701 1.433 . S
C700 C696 1.350 . S
C700 C697 1.463 . S
C700 N704 1.427 . S
C701 H691 0.929 . S
C701 C699 1.433 . S
C701 N704 1.384 . S
C702 H693 0.929 . S
C702 C694 1.378 . S
C702 C697 1.350 . S
C703 H690 0.929 . S
C703 C695 1.433 . S
C703 N705 1.384 . S
N704 C700 1.427 . S
N704 C701 1.384 . S
N705 C697 1.427 . S
N705 C703 1.384 . S
H706 C712 0.930 . S
H707 C716 0.930 . S
H708 C721 0.929 . S
H709 C719 0.929 . S
H710 C714 0.929 . S
H711 C720 0.929 . S
C712 H706 0.930 . S
C712 C713 1.367 . S
C712 C720 1.378 . S
C713 C712 1.367 . S
C713 C721 1.433 . S
C714 H710 0.929 . S
C714 C716 1.378 . S
C714 C718 1.350 . S
C715 C718 1.463 . S
C715 C720 1.350 . S
C715 N723 1.427 . S
C716 H707 0.930 . S
C716 C714 1.378 . S
C716 C717 1.367 . S
C717 C716 1.367 . S
C717 C719 1.433 . S
C718 C714 1.350 . S
C718 C715 1.463 . S
C718 N722 1.427 . S
C719 H709 0.929 . S
C719 C717 1.433 . S
C719 N722 1.384 . S
C720 H711 0.929 . S
C720 C712 1.378 . S
C720 C715 1.350 . S
C721 H708 0.929 . S
C721 C713 1.433 . S
C721 N723 1.384 . S
N722 C718 1.427 . S
N722 C719 1.384 . S
N723 C715 1.427 . S
N723 C721 1.384 . S
H724 C730 0.930 . S
H725 C734 0.930 . S
H726 C739 0.929 . S
H727 C737 0.929 . S
H728 C732 0.929 . S
H729 C738 0.929 . S
C730 H724 0.930 . S
C730 C731 1.367 . S
C730 C738 1.378 . S
C731 C730 1.367 . S
C731 C739 1.433 . S
C732 H728 0.929 . S
C732 C734 1.378 . S
C732 C736 1.350 . S
C733 C736 1.463 . S
C733 C738 1.350 . S
C733 N741 1.427 . S
C734 H725 0.930 . S
C734 C732 1.378 . S
C734 C735 1.367 . S
C735 C734 1.367 . S
C735 C737 1.433 . S
C736 C732 1.350 . S
C736 C733 1.463 . S
C736 N740 1.427 . S
C737 H727 0.929 . S
C737 C735 1.433 . S
C737 N740 1.384 . S
C738 H729 0.929 . S
C738 C730 1.378 . S
C738 C733 1.350 . S
C739 H726 0.929 . S
C739 C731 1.433 . S
C739 N741 1.384 . S
N740 C736 1.427 . S
N740 C737 1.384 . S
N741 C733 1.427 . S
N741 C739 1.384 . S
H742 C748 0.930 . S
H743 C752 0.930 . S
H744 C757 0.929 . S
H745 C755 0.929 . S
H746 C750 0.929 . S
H747 C756 0.929 . S
C748 H742 0.930 . S
C748 C749 1.367 . S
C748 C756 1.378 . S
C749 C748 1.367 . S
C749 C757 1.433 . S
C750 H746 0.929 . S
C750 C752 1.378 . S
C750 C754 1.350 . S
C751 C754 1.463 . S
C751 C756 1.350 . S
C751 N759 1.427 . S
C752 H743 0.930 . S
C752 C750 1.378 . S
C752 C753 1.367 . S
C753 C752 1.367 . S
C753 C755 1.433 . S
C754 C750 1.350 . S
C754 C751 1.463 . S
C754 N758 1.427 . S
C755 H745 0.929 . S
C755 C753 1.433 . S
C755 N758 1.384 . S
C756 H747 0.929 . S
C756 C748 1.378 . S
C756 C751 1.350 . S
C757 H744 0.929 . S
C757 C749 1.433 . S
C757 N759 1.384 . S
N758 C754 1.427 . S
N758 C755 1.384 . S
N759 C751 1.427 . S
N759 C757 1.384 . S
H760 C766 0.930 . S
H761 C770 0.930 . S
H762 C775 0.929 . S
H763 C773 0.929 . S
H764 C768 0.929 . S
H765 C774 0.929 . S
C766 H760 0.930 . S
C766 C767 1.367 . S
C766 C774 1.378 . S
C767 C766 1.367 . S
C767 C775 1.433 . S
C768 H764 0.929 . S
C768 C770 1.378 . S
C768 C772 1.350 . S
C769 C772 1.463 . S
C769 C774 1.350 . S
C769 N777 1.427 . S
C770 H761 0.930 . S
C770 C768 1.378 . S
C770 C771 1.367 . S
C771 C770 1.367 . S
C771 C773 1.433 . S
C772 C768 1.350 . S
C772 C769 1.463 . S
C772 N776 1.427 . S
C773 H763 0.929 . S
C773 C771 1.433 . S
C773 N776 1.384 . S
C774 H765 0.929 . S
C774 C766 1.378 . S
C774 C769 1.350 . S
C775 H762 0.929 . S
C775 C767 1.433 . S
C775 N777 1.384 . S
N776 C772 1.427 . S
N776 C773 1.384 . S
N777 C769 1.427 . S
N777 C775 1.384 . S
H778 C784 0.930 . S
H779 C788 0.930 . S
H780 C793 0.929 . S
H781 C791 0.929 . S
H782 C786 0.929 . S
H783 C792 0.929 . S
C784 H778 0.930 . S
C784 C785 1.367 . S
C784 C792 1.378 . S
C785 C784 1.367 . S
C785 C793 1.433 . S
C786 H782 0.929 . S
C786 C788 1.378 . S
C786 C790 1.350 . S
C787 C790 1.463 . S
C787 C792 1.350 . S
C787 N795 1.427 . S
C788 H779 0.930 . S
C788 C786 1.378 . S
C788 C789 1.367 . S
C789 C788 1.367 . S
C789 C791 1.433 . S
C790 C786 1.350 . S
C790 C787 1.463 . S
C790 N794 1.427 . S
C791 H781 0.929 . S
C791 C789 1.433 . S
C791 N794 1.384 . S
C792 H783 0.929 . S
C792 C784 1.378 . S
C792 C787 1.350 . S
C793 H780 0.929 . S
C793 C785 1.433 . S
C793 N795 1.384 . S
N794 C790 1.427 . S
N794 C791 1.384 . S
N795 C787 1.427 . S
N795 C793 1.384 . S
H796 C802 0.930 . S
H797 C806 0.930 . S
H798 C811 0.929 . S
H799 C809 0.929 . S
H800 C804 0.929 . S
H801 C810 0.929 . S
C802 H796 0.930 . S
C802 C803 1.367 . S
C802 C810 1.378 . S
C803 C802 1.367 . S
C803 C811 1.433 . S
C804 H800 0.929 . S
C804 C806 1.378 . S
C804 C808 1.350 . S
C805 C808 1.463 . S
C805 C810 1.350 . S
C805 N813 1.427 . S
C806 H797 0.930 . S
C806 C804 1.378 . S
C806 C807 1.367 . S
C807 C806 1.367 . S
C807 C809 1.433 . S
C808 C804 1.350 . S
C808 C805 1.463 . S
C808 N812 1.427 . S
C809 H799 0.929 . S
C809 C807 1.433 . S
C809 N812 1.384 . S
C810 H801 0.929 . S
C810 C802 1.378 . S
C810 C805 1.350 . S
C811 H798 0.929 . S
C811 C803 1.433 . S
C811 N813 1.384 . S
N812 C808 1.427 . S
N812 C809 1.384 . S
N813 C805 1.427 . S
N813 C811 1.384 . S
H814 C820 0.930 . S
H815 C824 0.930 . S
H816 C829 0.929 . S
H817 C827 0.929 . S
H818 C822 0.929 . S
H819 C828 0.929 . S
C820 H814 0.930 . S
C820 C821 1.367 . S
C820 C828 1.378 . S
C821 C820 1.367 . S
C821 C829 1.433 . S
C822 H818 0.929 . S
C822 C824 1.378 . S
C822 C826 1.350 . S
C823 C826 1.463 . S
C823 C828 1.350 . S
C823 N831 1.427 . S
C824 H815 0.930 . S
C824 C822 1.378 . S
C824 C825 1.367 . S
C825 C824 1.367 . S
C825 C827 1.433 . S
C826 C822 1.350 . S
C826 C823 1.463 . S
C826 N830 1.427 . S
C827 H817 0.929 . S
C827 C825 1.433 . S
C827 N830 1.384 . S
C828 H819 0.929 . S
C828 C820 1.378 . S
C828 C823 1.350 . S
C829 H816 0.929 . S
C829 C821 1.433 . S
C829 N831 1.384 . S
N830 C826 1.427 . S
N830 C827 1.384 . S
N831 C823 1.427 . S
N831 C829 1.384 . S
C407 C21 1.516 . S
C411 C339 1.525 . S
C425 C61 1.327 . S
C429 C342 1.293 . S
C447 C378 1.702 . S
C443 C82 1.682 . S
C461 C135 1.673 . S
C465 C398 1.655 . S
C483 C352 1.722 . S
C479 C15 1.754 . S
C501 C329 1.555 . S
C497 C42 1.568 . S
C519 C382 1.560 . S
C515 C101 1.655 . S
C537 C362 1.371 . S
C533 C122 1.431 . S
C551 C2 1.378 . S
C555 C392 1.357 . S
C573 C358 1.543 . S
C569 C95 1.567 . S
C587 C141 1.659 . S
C591 C324 1.633 . S
C605 C55 1.338 . S
C609 C372 1.302 . S
C627 C338 1.555 . S
C623 C181 1.601 . S
C641 C202 1.301 . S
C645 C344 1.274 . S
C659 C255 1.728 . S
C663 C379 1.702 . S
C677 C295 1.660 . S
C681 C399 1.641 . S
C695 C175 1.754 . S
C699 C349 1.716 . S
C717 C332 1.563 . S
C713 C221 1.583 . S
C735 C384 1.485 . S
C731 C242 1.627 . S
C753 C364 1.434 . S
C749 C301 1.477 . S
C767 C162 1.387 . S
C771 C389 1.319 . S
C789 C359 1.588 . S
C785 C261 1.606 . S
C807 C322 1.606 . S
C803 C282 1.649 . S
C821 C215 1.370 . S
C825 C369 1.343 . S
