# Generated by pormake.
# Topology gar, (4,6)-cn, num edge types: 1
# Building blocks:
#     Node 0, Type 0, BuildingBlock: KUFVIS_clean_sbu_0, # of connection points: 4
#     Node 1, Type 0, BuildingBlock: KUFVIS_clean_sbu_0, # of connection points: 4
#     Node 2, Type 0, BuildingBlock: KUFVIS_clean_sbu_0, # of connection points: 4
#     Node 3, Type 0, BuildingBlock: KUFVIS_clean_sbu_0, # of connection points: 4
#     Node 4, Type 0, BuildingBlock: KUFVIS_clean_sbu_0, # of connection points: 4
#     Node 5, Type 0, BuildingBlock: KUFVIS_clean_sbu_0, # of connection points: 4
#     Node 6, Type 0, BuildingBlock: KUFVIS_clean_sbu_0, # of connection points: 4
#     Node 7, Type 0, BuildingBlock: KUFVIS_clean_sbu_0, # of connection points: 4
#     Node 8, Type 0, BuildingBlock: KUFVIS_clean_sbu_0, # of connection points: 4
#     Node 9, Type 0, BuildingBlock: KUFVIS_clean_sbu_0, # of connection points: 4
#     Node 10, Type 0, BuildingBlock: KUFVIS_clean_sbu_0, # of connection points: 4
#     Node 11, Type 0, BuildingBlock: KUFVIS_clean_sbu_0, # of connection points: 4
#     Node 12, Type 0, BuildingBlock: KUFVIS_clean_sbu_0, # of connection points: 4
#     Node 13, Type 0, BuildingBlock: KUFVIS_clean_sbu_0, # of connection points: 4
#     Node 14, Type 0, BuildingBlock: KUFVIS_clean_sbu_0, # of connection points: 4
#     Node 15, Type 0, BuildingBlock: KUFVIS_clean_sbu_0, # of connection points: 4
#     Node 16, Type 0, BuildingBlock: KUFVIS_clean_sbu_0, # of connection points: 4
#     Node 17, Type 0, BuildingBlock: KUFVIS_clean_sbu_0, # of connection points: 4
#     Node 18, Type 0, BuildingBlock: KUFVIS_clean_sbu_0, # of connection points: 4
#     Node 19, Type 0, BuildingBlock: KUFVIS_clean_sbu_0, # of connection points: 4
#     Node 20, Type 0, BuildingBlock: KUFVIS_clean_sbu_0, # of connection points: 4
#     Node 21, Type 0, BuildingBlock: KUFVIS_clean_sbu_0, # of connection points: 4
#     Node 22, Type 0, BuildingBlock: KUFVIS_clean_sbu_0, # of connection points: 4
#     Node 23, Type 0, BuildingBlock: KUFVIS_clean_sbu_0, # of connection points: 4
#     Node 24, Type 1, BuildingBlock: CUKXOW_clean_sbu_0, # of connection points: 6
#     Node 25, Type 1, BuildingBlock: CUKXOW_clean_sbu_0, # of connection points: 6
#     Node 26, Type 1, BuildingBlock: CUKXOW_clean_sbu_0, # of connection points: 6
#     Node 27, Type 1, BuildingBlock: CUKXOW_clean_sbu_0, # of connection points: 6
#     Node 28, Type 1, BuildingBlock: CUKXOW_clean_sbu_0, # of connection points: 6
#     Node 29, Type 1, BuildingBlock: CUKXOW_clean_sbu_0, # of connection points: 6
#     Node 30, Type 1, BuildingBlock: CUKXOW_clean_sbu_0, # of connection points: 6
#     Node 31, Type 1, BuildingBlock: CUKXOW_clean_sbu_0, # of connection points: 6
#     Node 32, Type 1, BuildingBlock: CUKXOW_clean_sbu_0, # of connection points: 6
#     Node 33, Type 1, BuildingBlock: CUKXOW_clean_sbu_0, # of connection points: 6
#     Node 34, Type 1, BuildingBlock: CUKXOW_clean_sbu_0, # of connection points: 6
#     Node 35, Type 1, BuildingBlock: CUKXOW_clean_sbu_0, # of connection points: 6
#     Node 36, Type 1, BuildingBlock: CUKXOW_clean_sbu_0, # of connection points: 6
#     Node 37, Type 1, BuildingBlock: CUKXOW_clean_sbu_0, # of connection points: 6
#     Node 38, Type 1, BuildingBlock: CUKXOW_clean_sbu_0, # of connection points: 6
#     Node 39, Type 1, BuildingBlock: CUKXOW_clean_sbu_0, # of connection points: 6
#     Edge 40, Type (0, 1), BuildingBlock: CIFDUS_clean_linker_0, # of connection points: 2
#     Edge 41, Type (0, 1), BuildingBlock: CIFDUS_clean_linker_0, # of connection points: 2
#     Edge 42, Type (0, 1), BuildingBlock: CIFDUS_clean_linker_0, # of connection points: 2
#     Edge 43, Type (0, 1), BuildingBlock: CIFDUS_clean_linker_0, # of connection points: 2
#     Edge 44, Type (0, 1), BuildingBlock: CIFDUS_clean_linker_0, # of connection points: 2
#     Edge 45, Type (0, 1), BuildingBlock: CIFDUS_clean_linker_0, # of connection points: 2
#     Edge 46, Type (0, 1), BuildingBlock: CIFDUS_clean_linker_0, # of connection points: 2
#     Edge 47, Type (0, 1), BuildingBlock: CIFDUS_clean_linker_0, # of connection points: 2
#     Edge 48, Type (0, 1), BuildingBlock: CIFDUS_clean_linker_0, # of connection points: 2
#     Edge 49, Type (0, 1), BuildingBlock: CIFDUS_clean_linker_0, # of connection points: 2
#     Edge 50, Type (0, 1), BuildingBlock: CIFDUS_clean_linker_0, # of connection points: 2
#     Edge 51, Type (0, 1), BuildingBlock: CIFDUS_clean_linker_0, # of connection points: 2
#     Edge 52, Type (0, 1), BuildingBlock: CIFDUS_clean_linker_0, # of connection points: 2
#     Edge 53, Type (0, 1), BuildingBlock: CIFDUS_clean_linker_0, # of connection points: 2
#     Edge 54, Type (0, 1), BuildingBlock: CIFDUS_clean_linker_0, # of connection points: 2
#     Edge 55, Type (0, 1), BuildingBlock: CIFDUS_clean_linker_0, # of connection points: 2
#     Edge 56, Type (0, 1), BuildingBlock: CIFDUS_clean_linker_0, # of connection points: 2
#     Edge 57, Type (0, 1), BuildingBlock: CIFDUS_clean_linker_0, # of connection points: 2
#     Edge 58, Type (0, 1), BuildingBlock: CIFDUS_clean_linker_0, # of connection points: 2
#     Edge 59, Type (0, 1), BuildingBlock: CIFDUS_clean_linker_0, # of connection points: 2
#     Edge 60, Type (0, 1), BuildingBlock: CIFDUS_clean_linker_0, # of connection points: 2
#     Edge 61, Type (0, 1), BuildingBlock: CIFDUS_clean_linker_0, # of connection points: 2
#     Edge 62, Type (0, 1), BuildingBlock: CIFDUS_clean_linker_0, # of connection points: 2
#     Edge 63, Type (0, 1), BuildingBlock: CIFDUS_clean_linker_0, # of connection points: 2
#     Edge 64, Type (0, 1), BuildingBlock: CIFDUS_clean_linker_0, # of connection points: 2
#     Edge 65, Type (0, 1), BuildingBlock: CIFDUS_clean_linker_0, # of connection points: 2
#     Edge 66, Type (0, 1), BuildingBlock: CIFDUS_clean_linker_0, # of connection points: 2
#     Edge 67, Type (0, 1), BuildingBlock: CIFDUS_clean_linker_0, # of connection points: 2
#     Edge 68, Type (0, 1), BuildingBlock: CIFDUS_clean_linker_0, # of connection points: 2
#     Edge 69, Type (0, 1), BuildingBlock: CIFDUS_clean_linker_0, # of connection points: 2
#     Edge 70, Type (0, 1), BuildingBlock: CIFDUS_clean_linker_0, # of connection points: 2
#     Edge 71, Type (0, 1), BuildingBlock: CIFDUS_clean_linker_0, # of connection points: 2
#     Edge 72, Type (0, 1), BuildingBlock: CIFDUS_clean_linker_0, # of connection points: 2
#     Edge 73, Type (0, 1), BuildingBlock: CIFDUS_clean_linker_0, # of connection points: 2
#     Edge 74, Type (0, 1), BuildingBlock: CIFDUS_clean_linker_0, # of connection points: 2
#     Edge 75, Type (0, 1), BuildingBlock: CIFDUS_clean_linker_0, # of connection points: 2
#     Edge 76, Type (0, 1), BuildingBlock: CIFDUS_clean_linker_0, # of connection points: 2
#     Edge 77, Type (0, 1), BuildingBlock: CIFDUS_clean_linker_0, # of connection points: 2
#     Edge 78, Type (0, 1), BuildingBlock: CIFDUS_clean_linker_0, # of connection points: 2
#     Edge 79, Type (0, 1), BuildingBlock: CIFDUS_clean_linker_0, # of connection points: 2
#     Edge 80, Type (0, 1), BuildingBlock: CIFDUS_clean_linker_0, # of connection points: 2
#     Edge 81, Type (0, 1), BuildingBlock: CIFDUS_clean_linker_0, # of connection points: 2
#     Edge 82, Type (0, 1), BuildingBlock: CIFDUS_clean_linker_0, # of connection points: 2
#     Edge 83, Type (0, 1), BuildingBlock: CIFDUS_clean_linker_0, # of connection points: 2
#     Edge 84, Type (0, 1), BuildingBlock: CIFDUS_clean_linker_0, # of connection points: 2
#     Edge 85, Type (0, 1), BuildingBlock: CIFDUS_clean_linker_0, # of connection points: 2
#     Edge 86, Type (0, 1), BuildingBlock: CIFDUS_clean_linker_0, # of connection points: 2
#     Edge 87, Type (0, 1), BuildingBlock: CIFDUS_clean_linker_0, # of connection points: 2
#     Edge 88, Type (0, 1), BuildingBlock: CIFDUS_clean_linker_0, # of connection points: 2
#     Edge 89, Type (0, 1), BuildingBlock: CIFDUS_clean_linker_0, # of connection points: 2
#     Edge 90, Type (0, 1), BuildingBlock: CIFDUS_clean_linker_0, # of connection points: 2
#     Edge 91, Type (0, 1), BuildingBlock: CIFDUS_clean_linker_0, # of connection points: 2
#     Edge 92, Type (0, 1), BuildingBlock: CIFDUS_clean_linker_0, # of connection points: 2
#     Edge 93, Type (0, 1), BuildingBlock: CIFDUS_clean_linker_0, # of connection points: 2
#     Edge 94, Type (0, 1), BuildingBlock: CIFDUS_clean_linker_0, # of connection points: 2
#     Edge 95, Type (0, 1), BuildingBlock: CIFDUS_clean_linker_0, # of connection points: 2
#     Edge 96, Type (0, 1), BuildingBlock: CIFDUS_clean_linker_0, # of connection points: 2
#     Edge 97, Type (0, 1), BuildingBlock: CIFDUS_clean_linker_0, # of connection points: 2
#     Edge 98, Type (0, 1), BuildingBlock: CIFDUS_clean_linker_0, # of connection points: 2
#     Edge 99, Type (0, 1), BuildingBlock: CIFDUS_clean_linker_0, # of connection points: 2
#     Edge 100, Type (0, 1), BuildingBlock: CIFDUS_clean_linker_0, # of connection points: 2
#     Edge 101, Type (0, 1), BuildingBlock: CIFDUS_clean_linker_0, # of connection points: 2
#     Edge 102, Type (0, 1), BuildingBlock: CIFDUS_clean_linker_0, # of connection points: 2
#     Edge 103, Type (0, 1), BuildingBlock: CIFDUS_clean_linker_0, # of connection points: 2
#     Edge 104, Type (0, 1), BuildingBlock: CIFDUS_clean_linker_0, # of connection points: 2
#     Edge 105, Type (0, 1), BuildingBlock: CIFDUS_clean_linker_0, # of connection points: 2
#     Edge 106, Type (0, 1), BuildingBlock: CIFDUS_clean_linker_0, # of connection points: 2
#     Edge 107, Type (0, 1), BuildingBlock: CIFDUS_clean_linker_0, # of connection points: 2
#     Edge 108, Type (0, 1), BuildingBlock: CIFDUS_clean_linker_0, # of connection points: 2
#     Edge 109, Type (0, 1), BuildingBlock: CIFDUS_clean_linker_0, # of connection points: 2
#     Edge 110, Type (0, 1), BuildingBlock: CIFDUS_clean_linker_0, # of connection points: 2
#     Edge 111, Type (0, 1), BuildingBlock: CIFDUS_clean_linker_0, # of connection points: 2
#     Edge 112, Type (0, 1), BuildingBlock: CIFDUS_clean_linker_0, # of connection points: 2
#     Edge 113, Type (0, 1), BuildingBlock: CIFDUS_clean_linker_0, # of connection points: 2
#     Edge 114, Type (0, 1), BuildingBlock: CIFDUS_clean_linker_0, # of connection points: 2
#     Edge 115, Type (0, 1), BuildingBlock: CIFDUS_clean_linker_0, # of connection points: 2
#     Edge 116, Type (0, 1), BuildingBlock: CIFDUS_clean_linker_0, # of connection points: 2
#     Edge 117, Type (0, 1), BuildingBlock: CIFDUS_clean_linker_0, # of connection points: 2
#     Edge 118, Type (0, 1), BuildingBlock: CIFDUS_clean_linker_0, # of connection points: 2
#     Edge 119, Type (0, 1), BuildingBlock: CIFDUS_clean_linker_0, # of connection points: 2
#     Edge 120, Type (0, 1), BuildingBlock: CIFDUS_clean_linker_0, # of connection points: 2
#     Edge 121, Type (0, 1), BuildingBlock: CIFDUS_clean_linker_0, # of connection points: 2
#     Edge 122, Type (0, 1), BuildingBlock: CIFDUS_clean_linker_0, # of connection points: 2
#     Edge 123, Type (0, 1), BuildingBlock: CIFDUS_clean_linker_0, # of connection points: 2
#     Edge 124, Type (0, 1), BuildingBlock: CIFDUS_clean_linker_0, # of connection points: 2
#     Edge 125, Type (0, 1), BuildingBlock: CIFDUS_clean_linker_0, # of connection points: 2
#     Edge 126, Type (0, 1), BuildingBlock: CIFDUS_clean_linker_0, # of connection points: 2
#     Edge 127, Type (0, 1), BuildingBlock: CIFDUS_clean_linker_0, # of connection points: 2
#     Edge 128, Type (0, 1), BuildingBlock: CIFDUS_clean_linker_0, # of connection points: 2
#     Edge 129, Type (0, 1), BuildingBlock: CIFDUS_clean_linker_0, # of connection points: 2
#     Edge 130, Type (0, 1), BuildingBlock: CIFDUS_clean_linker_0, # of connection points: 2
#     Edge 131, Type (0, 1), BuildingBlock: CIFDUS_clean_linker_0, # of connection points: 2
#     Edge 132, Type (0, 1), BuildingBlock: CIFDUS_clean_linker_0, # of connection points: 2
#     Edge 133, Type (0, 1), BuildingBlock: CIFDUS_clean_linker_0, # of connection points: 2
#     Edge 134, Type (0, 1), BuildingBlock: CIFDUS_clean_linker_0, # of connection points: 2
#     Edge 135, Type (0, 1), BuildingBlock: CIFDUS_clean_linker_0, # of connection points: 2
# Relax obj value: 0.111
# Max RMSD: 0.226
# Mean RMSD: 0.117
data_MOF--net-gar--node1-KUFVIS_clean_sbu_0--node2-CUKXOW_clean_sbu_0--edge1-CIFDUS_clean_linker_0
_symmetry_space_group_name_H-M    P1
_symmetry_Int_Tables_number       1
_symmetry_cell_setting            triclinic
loop_
_symmetry_equiv_pos_as_xyz
'x, y, z'
_cell_length_a     47.853422
_cell_length_b     46.638657
_cell_length_c     48.072156
_cell_angle_alpha  93.59884
_cell_angle_beta   95.069304
_cell_angle_gamma 98.814402
loop_
_atom_site_label
_atom_site_type_symbol
_atom_site_fract_x
_atom_site_fract_y
_atom_site_fract_z
_atom_type_partial_charge
Mn0 Mn 0.02964 0.28287 0.42897 0.0
Mn1 Mn 0.02252 0.31786 0.37001 0.0
C2 C 0.98498 0.28939 0.40993 0.0
C3 C 0.0341 0.24161 0.45245 0.0
C4 C 0.04486 0.34844 0.42693 0.0
O5 O 0.06734 0.28136 0.41212 0.0
O6 O 0.05683 0.2993 0.37069 0.0
C7 C 0.01116 0.26604 0.32928 0.0
N8 N 1.00372 0.29127 0.33982 0.0
C9 C 0.96294 0.28619 0.30576 0.0
C10 C 0.97054 0.2605 0.29413 0.0
C11 C 0.9946 0.25023 0.30612 0.0
C12 C 0.98003 0.30075 0.32909 0.0
H13 H 0.02942 0.25791 0.33866 0.0
C14 C 0.07263 0.28667 0.38717 0.0
O15 O 0.04425 0.26748 0.46372 0.0
O16 O 0.02141 0.23943 0.42716 0.0
N17 N 0.98961 0.33658 0.3661 0.0
C18 C 0.98451 0.36108 0.3805 0.0
C19 C 0.96123 0.37421 0.37122 0.0
C20 C 0.94365 0.36232 0.34702 0.0
C21 C 0.94928 0.33714 0.33252 0.0
C22 C 0.97288 0.32509 0.34268 0.0
H23 H 0.99828 0.37079 0.39873 0.0
O24 O 0.98894 0.28425 0.43612 0.0
O25 O 1.00701 0.29051 0.39613 0.0
O26 O 0.04046 0.32594 0.44047 0.0
O27 O 0.04118 0.34762 0.4002 0.0
C28 C 0.93227 0.3234 0.30852 0.0
C29 C 0.9389 0.29774 0.29534 0.0
H30 H 0.95788 0.24832 0.27621 0.0
H31 H 1.00038 0.2302 0.29753 0.0
H32 H 0.95698 0.39361 0.38256 0.0
H33 H 0.92568 0.37249 0.33996 0.0
H34 H 0.91375 0.33209 0.30032 0.0
H35 H 0.92532 0.28702 0.27728 0.0
Mn36 Mn 0.00806 0.79936 0.60649 0.0
Mn37 Mn 0.03034 0.84798 0.66217 0.0
C38 C 0.05311 0.80272 0.62941 0.0
C39 C 0.98896 0.75414 0.58412 0.0
C40 C 0.0225 0.86492 0.60278 0.0
O41 O 0.97076 0.8081 0.61997 0.0
O42 O 0.98837 0.83887 0.65795 0.0
C43 C 0.01213 0.81155 0.70764 0.0
N44 N 0.03312 0.82801 0.69561 0.0
C45 C 0.06818 0.82104 0.7326 0.0
C46 C 0.04691 0.80409 0.74542 0.0
C47 C 0.01879 0.79926 0.73284 0.0
C48 C 0.06028 0.83266 0.70747 0.0
H49 H 0.99048 0.80779 0.69806 0.0
C50 C 0.96764 0.82411 0.64182 0.0
O51 O 0.98946 0.77782 0.57138 0.0
O52 O 0.99758 0.75679 0.61074 0.0
N53 N 0.07087 0.85775 0.66841 0.0
C54 C 0.08909 0.87337 0.65265 0.0
C55 C 0.11814 0.87978 0.66212 0.0
C56 C 0.12813 0.87021 0.68772 0.0
C57 C 0.10897 0.85419 0.70359 0.0
C58 C 0.08023 0.8486 0.69317 0.0
H59 H 0.08153 0.88084 0.63299 0.0
O60 O 0.04831 0.79296 0.60326 0.0
O61 O 0.03199 0.8114 0.64057 0.0
O62 O 0.01538 0.83913 0.59181 0.0
O63 O 0.0288 0.87117 0.62901 0.0
C64 C 0.11734 0.8431 0.72907 0.0
C65 C 0.09697 0.82646 0.74353 0.0
H66 H 0.05197 0.79451 0.76482 0.0
H67 H 1.00228 0.78612 0.74256 0.0
H68 H 0.13281 0.89206 0.64969 0.0
H69 H 0.15058 0.87501 0.69485 0.0
H70 H 0.13945 0.84681 0.73748 0.0
H71 H 0.10373 0.81769 0.76288 0.0
Mn72 Mn 0.52787 0.77833 0.9316 0.0
Mn73 Mn 0.51436 0.81268 0.87333 0.0
C74 C 0.48158 0.78352 0.91657 0.0
C75 C 0.53601 0.73692 0.95363 0.0
C76 C 0.54112 0.8438 0.92885 0.0
O77 O 0.5639 0.77859 0.91136 0.0
O78 O 0.54844 0.79431 0.8702 0.0
C79 C 0.49944 0.76096 0.83265 0.0
N80 N 0.49308 0.78622 0.84433 0.0
C81 C 0.45052 0.78235 0.8128 0.0
C82 C 0.45695 0.75665 0.79996 0.0
C83 C 0.48135 0.74572 0.81016 0.0
C84 C 0.46905 0.79624 0.83548 0.0
H85 H 0.51801 0.75243 0.84062 0.0
C86 C 0.56634 0.78308 0.88563 0.0
O87 O 0.54608 0.76285 0.96483 0.0
O88 O 0.52126 0.73484 0.92934 0.0
N89 N 0.48136 0.83132 0.87295 0.0
C90 C 0.4774 0.85552 0.88858 0.0
C91 C 0.45376 0.86903 0.88141 0.0
C92 C 0.43473 0.85789 0.85794 0.0
C93 C 0.43923 0.83301 0.84213 0.0
C94 C 0.46311 0.82044 0.85033 0.0
H95 H 0.49232 0.86475 0.90616 0.0
O96 O 0.48798 0.77813 0.94235 0.0
O97 O 0.50215 0.78536 0.9008 0.0
O98 O 0.53791 0.8216 0.94298 0.0
O99 O 0.5356 0.84242 0.90223 0.0
C100 C 0.42088 0.82012 0.81863 0.0
C101 C 0.42631 0.79458 0.8042 0.0
H102 H 0.44314 0.74495 0.78249 0.0
H103 H 0.48624 0.72567 0.80065 0.0
H104 H 0.45041 0.8882 0.89374 0.0
H105 H 0.41656 0.86842 0.85244 0.0
H106 H 0.40221 0.82934 0.81184 0.0
H107 H 0.41166 0.78445 0.78661 0.0
Mn108 Mn 0.50102 0.29087 0.11334 0.0
Mn109 Mn 0.44798 0.27296 0.06111 0.0
C110 C 0.4822 0.24255 0.10051 0.0
C111 C 0.54823 0.30073 0.13185 0.0
C112 C 0.43934 0.29771 0.11903 0.0
O113 O 0.50371 0.32752 0.0919 0.0
O114 O 0.46891 0.31238 0.05683 0.0
C115 C 0.48192 0.26975 0.01268 0.0
N116 N 0.46198 0.25694 0.0285 0.0
C117 C 0.45454 0.21262 0.99844 0.0
C118 C 0.47477 0.22546 0.98168 0.0
C119 C 0.48858 0.25411 0.9889 0.0
C120 C 0.44863 0.22934 0.02179 0.0
H121 H 0.49273 0.29169 0.01821 0.0
C122 C 0.48938 0.33125 0.06899 0.0
O123 O 0.52839 0.31064 0.14433 0.0
O124 O 0.54097 0.28606 0.10771 0.0
N125 N 0.42675 0.2349 0.06272 0.0
C126 C 0.4095 0.22493 0.08228 0.0
C127 C 0.39516 0.19612 0.07896 0.0
C128 C 0.39864 0.17791 0.05553 0.0
C129 C 0.41642 0.18868 0.03563 0.0
C130 C 0.43001 0.21764 0.03995 0.0
H131 H 0.40685 0.23876 0.1004 0.0
O132 O 0.49456 0.25015 0.12561 0.0
O133 O 0.48068 0.26343 0.08417 0.0
O134 O 0.46501 0.29954 0.12906 0.0
O135 O 0.43065 0.28848 0.0937 0.0
C136 C 0.42166 0.17163 0.01198 0.0
C137 C 0.44065 0.18361 0.99337 0.0
H138 H 0.48017 0.21338 0.96347 0.0
H139 H 0.5044 0.26408 0.9762 0.0
H140 H 0.38156 0.18793 0.09447 0.0
H141 H 0.38775 0.15563 0.05318 0.0
H142 H 0.41152 0.14914 1.00814 0.0
H143 H 0.44489 0.17013 0.97553 0.0
Mn144 Mn 1.00376 0.76277 0.16822 0.0
Mn145 Mn 0.95527 0.74371 0.11217 0.0
C146 C 0.99628 0.71533 0.14593 0.0
C147 C 0.05171 0.77846 0.18709 0.0
C148 C 0.93892 0.75613 0.17138 0.0
O149 O 0.99884 0.80221 0.15252 0.0
O150 O 0.96988 0.78597 0.11301 0.0
C151 C 0.99182 0.75355 0.06597 0.0
N152 N 0.97362 0.73525 0.07954 0.0
C153 C 0.97683 0.69476 0.047 0.0
C154 C 0.9955 0.71322 0.03261 0.0
C155 C 1.00305 0.74272 0.04217 0.0
C156 C 0.96619 0.70682 0.0705 0.0
H157 H 0.99782 0.77621 0.07333 0.0
C158 C 0.98559 0.80642 0.12898 0.0
O159 O 0.03068 0.78097 0.20193 0.0
O160 O 0.04473 0.7686 0.16123 0.0
N161 N 0.94066 0.70293 0.10946 0.0
C162 C 0.92414 0.68761 0.12689 0.0
C163 C 0.9155 0.65756 0.12085 0.0
C164 C 0.92389 0.64359 0.09698 0.0
C165 C 0.94077 0.65979 0.07926 0.0
C166 C 0.94863 0.68973 0.08628 0.0
H167 H 0.91773 0.69819 0.14536 0.0
O168 O 1.00641 0.71997 0.17206 0.0
O169 O 0.98923 0.73808 0.13499 0.0
O170 O 0.96416 0.75942 0.18388 0.0
O171 O 0.93392 0.75125 0.14478 0.0
C172 C 0.95083 0.64728 0.05541 0.0
C173 C 0.96887 0.66475 0.03931 0.0
H174 H 1.00439 0.70491 0.01438 0.0
H175 H 0.01758 0.75706 0.03126 0.0
H176 H 0.90255 0.64515 0.13467 0.0
H177 H 0.91762 0.62034 0.09274 0.0
H178 H 0.94525 0.62416 0.04957 0.0
H179 H 0.97686 0.65479 0.02131 0.0
Mn180 Mn 0.52513 0.79063 0.38001 0.0
Mn181 Mn 0.52267 0.8282 0.32218 0.0
C182 C 0.48146 0.792 0.3543 0.0
C183 C 0.52974 0.7488 0.4038 0.0
C184 C 0.52677 0.85711 0.38158 0.0
O185 O 0.56616 0.79448 0.36957 0.0
O186 O 0.56286 0.82196 0.33299 0.0
C187 C 0.53809 0.78253 0.28313 0.0
N188 N 0.51953 0.80054 0.29033 0.0
C189 C 0.48649 0.78096 0.25049 0.0
C190 C 0.50532 0.76236 0.24269 0.0
C191 C 0.53122 0.76316 0.2591 0.0
C192 C 0.49443 0.79976 0.27474 0.0
H193 H 0.55799 0.78277 0.29561 0.0
C194 C 0.57702 0.80762 0.34955 0.0
O195 O 0.53568 0.77467 0.41643 0.0
O196 O 0.52178 0.74719 0.3771 0.0
N197 N 0.48589 0.8353 0.30767 0.0
C198 C 0.47147 0.85679 0.31606 0.0
C199 C 0.44527 0.85933 0.30159 0.0
C200 C 0.43468 0.84049 0.27784 0.0
C201 C 0.45085 0.81992 0.26833 0.0
C202 C 0.4768 0.8184 0.28372 0.0
H203 H 0.48025 0.87235 0.33314 0.0
O204 O 0.48276 0.78674 0.38055 0.0
O205 O 0.50579 0.79638 0.34372 0.0
O206 O 0.52954 0.83405 0.39373 0.0
O207 O 0.52393 0.85764 0.3548 0.0
C208 C 0.44237 0.80109 0.24398 0.0
C209 C 0.46013 0.78153 0.23514 0.0
H210 H 0.50011 0.74739 0.22415 0.0
H211 H 0.54586 0.74882 0.25326 0.0
H212 H 0.43344 0.876 0.30853 0.0
H213 H 0.41444 0.84245 0.26673 0.0
H214 H 0.4223 0.80157 0.23184 0.0
H215 H 0.4534 0.76718 0.21636 0.0
Mn216 Mn 0.49962 0.25795 0.66581 0.0
Mn217 Mn 0.44505 0.24414 0.615 0.0
C218 C 0.48581 0.20999 0.64467 0.0
C219 C 0.54852 0.27033 0.68081 0.0
C220 C 0.43692 0.25715 0.67647 0.0
O221 O 0.49759 0.29828 0.65188 0.0
O222 O 0.46296 0.28561 0.61648 0.0
C223 C 0.47813 0.25297 0.56609 0.0
N224 N 0.4589 0.23594 0.57974 0.0
C225 C 0.45093 0.19871 0.54166 0.0
C226 C 0.47051 0.2159 0.52711 0.0
C227 C 0.4843 0.24308 0.53947 0.0
C228 C 0.44598 0.20954 0.5683 0.0
H229 H 0.48867 0.27393 0.57545 0.0
C230 C 0.48207 0.30439 0.6307 0.0
O231 O 0.5293 0.27466 0.69733 0.0
O232 O 0.53935 0.25978 0.65548 0.0
N233 N 0.42575 0.20489 0.61039 0.0
C234 C 0.40837 0.19048 0.62769 0.0
C235 C 0.39266 0.1631 0.61836 0.0
C236 C 0.3948 0.15097 0.5913 0.0
C237 C 0.41285 0.16614 0.57386 0.0
C238 C 0.42784 0.19342 0.58424 0.0
H239 H 0.40626 0.19994 0.64832 0.0
O240 O 0.4981 0.21511 0.67007 0.0
O241 O 0.48 0.23333 0.63342 0.0
O242 O 0.46315 0.25919 0.68533 0.0
O243 O 0.42785 0.25182 0.65056 0.0
C244 C 0.41689 0.15511 0.54679 0.0
C245 C 0.43616 0.17124 0.53082 0.0
H246 H 0.47518 0.20842 0.5065 0.0
H247 H 0.49951 0.25644 0.52842 0.0
H248 H 0.37873 0.15149 0.6319 0.0
H249 H 0.38254 0.12999 0.58416 0.0
H250 H 0.40576 0.134 0.53827 0.0
H251 H 0.43945 0.16231 0.51024 0.0
Mn252 Mn 0.02392 0.29435 0.88187 0.0
Mn253 Mn 0.00845 0.3359 0.82911 0.0
C254 C 0.97663 0.29272 0.86247 0.0
C255 C 0.03423 0.25149 0.90125 0.0
C256 C 0.02387 0.36042 0.88965 0.0
O257 O 0.06298 0.30379 0.86521 0.0
O258 O 0.04836 0.32886 0.82958 0.0
C259 C 0.01282 0.29473 0.78076 0.0
N260 N 0.99755 0.31222 0.79478 0.0
C261 C 0.9579 0.30069 0.75932 0.0
C262 C 0.97334 0.28281 0.74437 0.0
C263 C 1.00088 0.27973 0.7552 0.0
C264 C 0.97092 0.31511 0.78468 0.0
H265 H 0.03392 0.29215 0.78905 0.0
C266 C 0.06747 0.31697 0.84287 0.0
O267 O 0.04061 0.27672 0.91506 0.0
O268 O 0.0236 0.2513 0.87537 0.0
N269 N 0.97019 0.34374 0.82596 0.0
C270 C 0.95753 0.36057 0.84365 0.0
C271 C 0.92963 0.36525 0.83622 0.0
C272 C 0.91509 0.35278 0.81061 0.0
C273 C 0.9286 0.33572 0.79266 0.0
C274 C 0.95651 0.33197 0.8011 0.0
H275 H 0.96859 0.37032 0.86332 0.0
O276 O 0.98211 0.28568 0.88784 0.0
O277 O 0.99877 0.30116 0.84959 0.0
O278 O 0.02642 0.33614 0.89952 0.0
O279 O 0.01851 0.36289 0.86349 0.0
C280 C 0.91531 0.3219 0.76693 0.0
C281 C 0.92991 0.30433 0.75032 0.0
H282 H 0.96417 0.27112 0.72469 0.0
H283 H 0.01285 0.2658 0.74388 0.0
H284 H 0.91933 0.37838 0.85022 0.0
H285 H 0.89348 0.35623 0.80506 0.0
H286 H 0.89369 0.32428 0.75994 0.0
H287 H 0.9193 0.29344 0.7308 0.0
Mn288 Mn 0.41193 0.0693 0.25185 0.0
Mn289 Mn 0.35819 0.06803 0.29406 0.0
C290 C 0.38672 0.02531 0.26305 0.0
C291 C 0.43049 0.06853 0.20706 0.0
C292 C 0.42054 0.07894 0.31701 0.0
O293 O 0.40077 0.11068 0.24963 0.0
O294 O 0.3654 0.1063 0.27801 0.0
C295 C 0.31171 0.07147 0.24993 0.0
N296 N 0.32259 0.05771 0.27157 0.0
C297 C 0.28047 0.02157 0.26797 0.0
C298 C 0.26878 0.03548 0.24577 0.0
C299 C 0.28453 0.06047 0.23664 0.0
C300 C 0.30777 0.0334 0.28024 0.0
H301 H 0.32368 0.09067 0.24282 0.0
C302 C 0.38074 0.12063 0.2615 0.0
O303 O 0.4462 0.07827 0.2301 0.0
O304 O 0.40366 0.06092 0.20973 0.0
N305 N 0.34788 0.03234 0.31109 0.0
C306 C 0.36203 0.02158 0.33296 0.0
C307 C 0.34895 0.99691 0.34491 0.0
C308 C 0.32132 0.98372 0.33453 0.0
C309 C 0.30696 0.99545 0.31237 0.0
C310 C 0.32096 0.02026 0.30148 0.0
H311 H 0.38315 0.03169 0.34129 0.0
O312 O 0.41208 0.02648 0.25514 0.0
O313 O 0.37683 0.04968 0.26427 0.0
O314 O 0.43062 0.07771 0.29316 0.0
O315 O 0.39394 0.07737 0.31928 0.0
C316 C 0.27932 0.98341 0.30061 0.0
C317 C 0.26617 0.99634 0.27829 0.0
H318 H 0.24777 0.0271 0.23551 0.0
H319 H 0.2757 0.07127 0.21944 0.0
H320 H 0.36016 0.98805 0.36206 0.0
H321 H 0.3114 0.96454 0.34363 0.0
H322 H 0.26808 0.96407 0.30843 0.0
H323 H 0.24502 0.98671 0.26922 0.0
Mn324 Mn 0.28053 0.16156 0.5029 0.0
Mn325 Mn 0.25942 0.10664 0.453 0.0
C326 C 0.2328 0.14603 0.48884 0.0
C327 C 0.28974 0.17982 0.54934 0.0
C328 C 0.28513 0.16744 0.44034 0.0
O329 O 0.31494 0.14041 0.50368 0.0
O330 O 0.29825 0.10424 0.46993 0.0
C331 C 0.25635 0.0572 0.48902 0.0
N332 N 0.24341 0.07282 0.47019 0.0
C333 C 0.19844 0.04185 0.47118 0.0
C334 C 0.21134 0.02535 0.49045 0.0
C335 C 0.24042 0.03308 0.49941 0.0
C336 C 0.21544 0.06553 0.46137 0.0
H337 H 0.27864 0.06314 0.49618 0.0
C338 C 0.31724 0.11716 0.48902 0.0
O339 O 0.30048 0.19421 0.5295 0.0
O340 O 0.27554 0.154 0.54239 0.0
N341 N 0.22164 0.10657 0.43602 0.0
C342 C 0.21201 0.12576 0.41872 0.0
C343 C 0.18316 0.12155 0.40846 0.0
C344 C 0.16452 0.09771 0.41609 0.0
C345 C 0.17491 0.07821 0.43387 0.0
C346 C 0.20393 0.08333 0.44321 0.0
H347 H 0.22619 0.14425 0.41294 0.0
O348 O 0.24136 0.17251 0.4995 0.0
O349 O 0.25261 0.13051 0.48554 0.0
O350 O 0.28886 0.17827 0.46563 0.0
O351 O 0.27474 0.14078 0.43334 0.0
C352 C 0.15748 0.0543 0.44321 0.0
C353 C 0.16923 0.03614 0.46185 0.0
H354 H 0.19907 0.00688 0.49871 0.0
H355 H 0.2505 0.02055 0.5144 0.0
H356 H 0.17528 0.13677 0.39484 0.0
H357 H 0.14221 0.09474 0.40841 0.0
H358 H 0.13492 0.04993 0.43649 0.0
H359 H 0.15553 0.01806 0.46919 0.0
Mn360 Mn 0.15239 0.01663 0.79908 0.0
Mn361 Mn 0.20762 0.04049 0.84742 0.0
C362 C 0.1682 0.06648 0.80959 0.0
C363 C 0.13385 1.00517 0.75231 0.0
C364 C 0.14861 0.01484 0.86236 0.0
O365 O 0.17294 0.98074 0.80155 0.0
O366 O 0.21104 1.00097 0.83132 0.0
C367 C 0.25355 0.04576 0.80964 0.0
N368 N 0.23932 0.05803 0.82937 0.0
C369 C 0.2681 0.10484 0.8274 0.0
C370 C 0.28344 0.09251 0.80755 0.0
C371 C 0.27604 0.06287 0.79854 0.0
C372 C 0.246 0.08666 0.83786 0.0
H373 H 0.24754 0.02319 0.80211 0.0
C374 C 0.19751 0.97998 0.81443 0.0
O375 O 0.1199 0.99553 0.7727 0.0
O376 O 0.1593 0.01924 0.75907 0.0
N377 N 0.20693 0.07898 0.86362 0.0
C378 C 0.18869 0.08809 0.88124 0.0
C379 C 0.19265 0.11742 0.89154 0.0
C380 C 0.21528 0.13711 0.88364 0.0
C381 C 0.23379 0.12726 0.86552 0.0
C382 C 0.22903 0.09769 0.85621 0.0
H383 H 0.1712 0.07315 0.88737 0.0
O384 O 0.14229 0.05725 0.79895 0.0
O385 O 0.1831 0.0462 0.81462 0.0
O386 O 0.13662 0.01103 0.8373 0.0
O387 O 0.17529 0.02398 0.86804 0.0
C388 C 0.2563 0.14581 0.85574 0.0
C389 C 0.27337 0.13463 0.83662 0.0
H390 H 0.30063 0.10569 0.79874 0.0
H391 H 0.28748 0.05329 0.78289 0.0
H392 H 0.17819 0.12487 0.90542 0.0
H393 H 0.21803 0.15979 0.89134 0.0
H394 H 0.26032 0.16882 0.86238 0.0
H395 H 0.29026 0.14921 0.82882 0.0
Mn396 Mn 0.23141 0.88952 0.03948 0.0
Mn397 Mn 0.24206 0.94606 0.99804 0.0
C398 C 0.27731 0.90774 0.02845 0.0
C399 C 0.22928 0.86753 0.08356 0.0
C400 C 0.21831 0.884 0.97462 0.0
O401 O 0.19446 0.90888 0.04174 0.0
O402 O 0.20642 0.94761 0.01665 0.0
C403 C 0.25265 0.99602 0.04096 0.0
N404 N 0.26116 0.9809 0.01899 0.0
C405 C 0.30312 0.01666 0.01847 0.0
C406 C 0.29462 0.03269 0.04098 0.0
C407 C 0.26933 0.02222 0.05236 0.0
C408 C 0.28564 0.99062 1.00808 0.0
H409 H 0.23332 0.9881 0.04963 0.0
C410 C 0.18958 0.93307 0.03196 0.0
O411 O 0.21682 0.85467 0.06004 0.0
O412 O 0.24113 0.89432 0.0821 0.0
N413 N 0.27587 0.94771 0.97911 0.0
C414 C 0.28208 0.92882 0.95859 0.0
C415 C 0.30731 0.93548 0.94582 0.0
C416 C 0.32577 0.96163 0.95398 0.0
C417 C 0.31883 0.9809 0.97486 0.0
C418 C 0.29337 0.9731 0.98687 0.0
H419 H 0.26801 0.90874 0.95202 0.0
O420 O 0.27116 0.88146 0.03594 0.0
O421 O 0.25653 0.92275 0.02749 0.0
O422 O 0.22008 0.87236 0.99801 0.0
O423 O 0.22338 0.91153 0.97312 0.0
C424 C 0.33638 0.00735 0.98453 0.0
C425 C 0.32851 0.02524 1.00629 0.0
H426 H 0.30746 0.05289 0.04985 0.0
H427 H 0.26267 0.03436 0.06985 0.0
H428 H 0.31252 0.92047 0.9297 0.0
H429 H 0.34529 0.96662 0.94418 0.0
H430 H 0.35621 0.01391 0.97569 0.0
H431 H 0.34243 0.04528 0.01389 0.0
Mn432 Mn 0.276 0.42359 0.05817 0.0
Mn433 Mn 0.29906 0.48172 0.02275 0.0
C434 C 0.32384 0.44106 0.06123 0.0
C435 C 0.25746 0.40453 0.09748 0.0
C436 C 0.28064 0.4205 0.99556 0.0
O437 O 0.2401 0.43983 0.0465 0.0
O438 O 0.25871 0.48136 0.02894 0.0
C439 C 0.29608 0.52883 0.06602 0.0
N440 N 0.31119 0.5156 0.04779 0.0
C441 C 0.35135 0.55389 0.05747 0.0
C442 C 0.33623 0.56799 0.07636 0.0
C443 C 0.30855 0.55529 0.0808 0.0
C444 C 0.33804 0.52727 0.04383 0.0
H445 H 0.27462 0.51931 0.06907 0.0
C446 C 0.2377 0.4639 0.03603 0.0
O447 O 0.25367 0.38957 0.07338 0.0
O448 O 0.27119 0.43091 0.09845 0.0
N449 N 0.33775 0.48566 0.01437 0.0
C450 C 0.34953 0.46913 0.99564 0.0
C451 C 0.37726 0.47865 0.98897 0.0
C452 C 0.3923 0.50544 1.001 0.0
C453 C 0.37948 0.52244 0.01962 0.0
C454 C 0.35194 0.51166 0.02574 0.0
H455 H 0.33781 0.44888 0.98578 0.0
O456 O 0.31487 0.4151 0.06825 0.0
O457 O 0.30454 0.45671 0.05369 0.0
O458 O 0.2771 0.40755 0.01785 0.0
O459 O 0.28749 0.44801 0.99513 0.0
C460 C 0.39298 0.54964 0.03242 0.0
C461 C 0.37903 0.56524 0.05153 0.0
H462 H 0.34566 0.58856 0.08756 0.0
H463 H 0.29675 0.56604 0.09534 0.0
H464 H 0.38693 0.4655 0.9744 0.0
H465 H 0.41368 0.51272 0.99587 0.0
H466 H 0.41429 0.55853 0.02808 0.0
H467 H 0.38981 0.58588 0.0616 0.0
Mn468 Mn 0.80705 0.18639 0.0232 0.0
Mn469 Mn 0.79224 0.134 0.96943 0.0
C470 C 0.76055 0.16254 0.01042 0.0
C471 C 0.81395 0.20203 0.0723 0.0
C472 C 0.80336 0.19872 0.95994 0.0
O473 O 0.84641 0.17251 0.02003 0.0
O474 O 0.83358 0.13873 0.98328 0.0
C475 C 0.80274 0.08294 1.00024 0.0
N476 N 0.7849 0.09658 0.98397 0.0
C477 C 0.74692 0.05612 0.98343 0.0
C478 C 0.76496 0.04164 1.00006 0.0
C479 C 0.79298 0.05513 1.00851 0.0
C480 C 0.75789 0.08374 0.97565 0.0
H481 H 0.82424 0.09319 1.00692 0.0
C482 C 0.85204 0.15249 1.00249 0.0
O483 O 0.8212 0.21965 0.05336 0.0
O484 O 0.80582 0.17511 0.06293 0.0
N485 N 0.75295 0.12667 0.95487 0.0
C486 C 0.73767 0.14418 0.94026 0.0
C487 C 0.709 0.13415 0.93088 0.0
C488 C 0.6963 0.10624 0.93658 0.0
C489 C 0.71242 0.08859 0.95159 0.0
C490 C 0.74101 0.09962 0.96017 0.0
H491 H 0.74715 0.16575 0.93597 0.0
O492 O 0.76528 0.18861 0.02267 0.0
O493 O 0.78304 0.15179 1.00482 0.0
O494 O 0.80871 0.20772 0.98599 0.0
O495 O 0.79803 0.17163 0.95185 0.0
C496 C 0.70108 0.06067 0.95883 0.0
C497 C 0.71831 0.04446 0.97474 0.0
H498 H 0.75746 0.02026 1.00665 0.0
H499 H 0.80701 0.04414 0.02145 0.0
H500 H 0.69667 0.14797 0.91941 0.0
H501 H 0.6741 0.09869 0.92953 0.0
H502 H 0.67904 0.05161 0.95255 0.0
H503 H 0.70925 0.02317 0.98048 0.0
Mn504 Mn 0.11269 0.49916 0.27861 0.0
Mn505 Mn 0.1678 0.51724 0.32919 0.0
C506 C 0.13632 0.54722 0.28776 0.0
C507 C 0.09097 0.48937 0.2315 0.0
C508 C 0.10639 0.5034 0.34281 0.0
O509 O 0.12801 0.45969 0.28223 0.0
O510 O 0.16338 0.475 0.31687 0.0
C511 C 0.21488 0.50707 0.29548 0.0
N512 N 0.20254 0.52526 0.31208 0.0
C513 C 0.24072 0.56479 0.30921 0.0
C514 C 0.25385 0.54641 0.2922 0.0
C515 C 0.24084 0.51745 0.28528 0.0
C516 C 0.21487 0.55322 0.31881 0.0
H517 H 0.20501 0.48482 0.28996 0.0
C518 C 0.14951 0.45526 0.29878 0.0
O519 O 0.07741 0.48265 0.25295 0.0
O520 O 0.11793 0.49908 0.23716 0.0
N521 N 0.17483 0.55778 0.34187 0.0
C522 C 0.15873 0.57323 0.35719 0.0
C523 C 0.16869 0.60266 0.36565 0.0
C524 C 0.19501 0.61599 0.35818 0.0
C525 C 0.21114 0.59975 0.34226 0.0
C526 C 0.20031 0.57036 0.33476 0.0
H527 H 0.13835 0.56327 0.36276 0.0
O528 O 0.10986 0.54204 0.27758 0.0
O529 O 0.14727 0.52451 0.29394 0.0
O530 O 0.09599 0.49732 0.31726 0.0
O531 O 0.13308 0.51076 0.34959 0.0
C532 C 0.23731 0.61172 0.33317 0.0
C533 C 0.25205 0.59427 0.31659 0.0
H534 H 0.27381 0.55436 0.28419 0.0
H535 H 0.25078 0.50317 0.27207 0.0
H536 H 0.15603 0.61509 0.37779 0.0
H537 H 0.20249 0.63878 0.36452 0.0
H538 H 0.24611 0.63441 0.33851 0.0
H539 H 0.27197 0.60381 0.30942 0.0
Mn540 Mn 0.77079 0.93033 0.54881 0.0
Mn541 Mn 0.79514 0.99186 0.51836 0.0
C542 C 0.81892 0.94693 0.5524 0.0
C543 C 0.75128 0.90665 0.58548 0.0
C544 C 0.77831 0.93287 0.48657 0.0
O545 O 0.73505 0.94749 0.53887 0.0
O546 O 0.7541 0.98945 0.52256 0.0
C547 C 0.78853 0.03326 0.56562 0.0
N548 N 0.80508 0.02305 0.54688 0.0
C549 C 0.84461 0.06031 0.56346 0.0
C550 C 0.82798 0.07131 0.58292 0.0
C551 C 0.79987 0.05761 0.58411 0.0
C552 C 0.83235 0.0356 0.54604 0.0
H553 H 0.76684 0.02291 0.56637 0.0
C554 C 0.73289 0.97183 0.52894 0.0
O555 O 0.74787 0.89453 0.56014 0.0
O556 O 0.76533 0.93299 0.58939 0.0
N557 N 0.83439 0.99862 0.51178 0.0
C558 C 0.84699 0.98636 0.49069 0.0
C559 C 0.87474 0.99826 0.48576 0.0
C560 C 0.88901 0.02309 0.50205 0.0
C561 C 0.87533 0.03592 0.52303 0.0
C562 C 0.84763 0.02314 0.52692 0.0
H563 H 0.83589 0.96774 0.47755 0.0
O564 O 0.80931 0.92049 0.55761 0.0
O565 O 0.80008 0.96382 0.54692 0.0
O566 O 0.77237 0.91867 0.50765 0.0
O567 O 0.78608 0.96044 0.4879 0.0
C568 C 0.88797 0.06108 0.54003 0.0
C569 C 0.87275 0.07304 0.56049 0.0
H570 H 0.83654 0.09029 0.59698 0.0
H571 H 0.78691 0.06595 0.59908 0.0
H572 H 0.88503 0.98841 0.46931 0.0
H573 H 0.91041 0.0322 0.49819 0.0
H574 H 0.90945 0.07128 0.53766 0.0
H575 H 0.88278 0.09223 0.5736 0.0
Mn576 Mn 0.87422 0.05236 0.24273 0.0
Mn577 Mn 0.81807 0.03229 0.27975 0.0
C578 C 0.85922 1.00324 0.2487 0.0
C579 C 0.8943 0.061 0.20014 0.0
C580 C 0.87736 0.05568 0.30723 0.0
O581 O 0.85555 0.08968 0.24504 0.0
O582 O 0.81897 0.07282 0.26902 0.0
C583 C 0.77335 0.03201 0.23303 0.0
N584 N 0.78569 0.01802 0.25367 0.0
C585 C 0.75106 0.97476 0.24236 0.0
C586 C 0.73789 0.98874 0.22106 0.0
C587 C 0.74915 0.01746 0.21632 0.0
C588 C 0.77528 0.99026 0.25813 0.0
H589 H 0.78194 0.05408 0.22934 0.0
C590 C 0.83317 0.09315 0.25697 0.0
O591 O 0.90764 0.07177 0.2241 0.0
O592 O 0.8685 0.04776 0.20085 0.0
N593 N 0.81359 0.99382 0.29222 0.0
C594 C 0.82816 0.98383 0.31429 0.0
C595 C 0.81925 0.95567 0.32224 0.0
C596 C 0.79513 0.93827 0.30782 0.0
C597 C 0.77992 0.94935 0.2858 0.0
C598 C 0.78972 0.97764 0.27893 0.0
H599 H 0.8465 0.99723 0.32571 0.0
O600 O 0.88459 0.01235 0.24224 0.0
O601 O 0.84285 0.02299 0.25102 0.0
O602 O 0.88916 0.05968 0.28459 0.0
O603 O 0.85094 0.04592 0.30776 0.0
C604 C 0.75541 0.93343 0.27039 0.0
C605 C 0.74112 0.94605 0.24854 0.0
H606 H 0.71916 0.97764 0.20821 0.0
H607 H 0.73916 0.02837 0.19987 0.0
H608 H 0.83093 0.9474 0.33947 0.0
H609 H 0.78842 0.91649 0.31391 0.0
H610 H 0.74749 0.9114 0.27505 0.0
H611 H 0.72244 0.93352 0.2367 0.0
Mn612 Mn 0.30462 0.68274 0.53074 0.0
Mn613 Mn 0.28674 0.63049 0.47714 0.0
C614 C 0.25727 0.66154 0.51823 0.0
C615 C 0.31208 0.69748 0.58004 0.0
C616 C 0.30071 0.695 0.46756 0.0
O617 O 0.34314 0.66685 0.52685 0.0
O618 O 0.32765 0.6327 0.49111 0.0
C619 C 0.29384 0.57873 0.50825 0.0
N620 N 0.27714 0.59341 0.4918 0.0
C621 C 0.23716 0.55504 0.49122 0.0
C622 C 0.25401 0.53946 0.50797 0.0
C623 C 0.28246 0.55138 0.51654 0.0
C624 C 0.24971 0.58211 0.48343 0.0
H625 H 0.31566 0.58781 0.5151 0.0
C626 C 0.34717 0.64555 0.50981 0.0
O627 O 0.32011 0.71521 0.56142 0.0
O628 O 0.30311 0.67087 0.57022 0.0
N629 N 0.24753 0.62551 0.46252 0.0
C630 C 0.23364 0.64386 0.44754 0.0
C631 C 0.20478 0.63542 0.43796 0.0
C632 C 0.19048 0.60821 0.44382 0.0
C633 C 0.20521 0.58962 0.45912 0.0
C634 C 0.23406 0.59906 0.46786 0.0
H635 H 0.24441 0.66485 0.44298 0.0
O636 O 0.26345 0.68737 0.53087 0.0
O637 O 0.27886 0.64937 0.51242 0.0
O638 O 0.3064 0.70414 0.49358 0.0
O639 O 0.29481 0.6679 0.45955 0.0
C640 C 0.19228 0.56227 0.46638 0.0
C641 C 0.20823 0.54501 0.48244 0.0
H642 H 0.24527 0.51845 0.51458 0.0
H643 H 0.29556 0.53956 0.52961 0.0
H644 H 0.19357 0.64988 0.42613 0.0
H645 H 0.16816 0.60187 0.43659 0.0
H646 H 0.16999 0.55445 0.45998 0.0
H647 H 0.19796 0.52417 0.48818 0.0
Mn648 Mn 0.37403 0.55109 0.74532 0.0
Mn649 Mn 0.31893 0.532 0.78384 0.0
C650 C 0.35752 0.50205 0.7505 0.0
C651 C 0.39389 0.56088 0.70301 0.0
C652 C 0.37924 0.55119 0.80986 0.0
O653 O 0.35717 0.58921 0.74868 0.0
O654 O 0.3231 0.57362 0.77592 0.0
C655 C 0.27425 0.53891 0.73916 0.0
N656 N 0.28535 0.52229 0.75827 0.0
C657 C 0.24671 0.48277 0.74595 0.0
C658 C 0.23481 0.49951 0.72624 0.0
C659 C 0.2487 0.52766 0.72276 0.0
C660 C 0.2724 0.495 0.76143 0.0
H661 H 0.28479 0.56058 0.73644 0.0
C662 C 0.33671 0.59363 0.76304 0.0
O663 O 0.40763 0.57015 0.72717 0.0
O664 O 0.36794 0.54785 0.70344 0.0
N665 N 0.31101 0.49262 0.79375 0.0
C666 C 0.32466 0.47969 0.81441 0.0
C667 C 0.31306 0.45176 0.82115 0.0
C668 C 0.28727 0.43758 0.80696 0.0
C669 C 0.27315 0.45162 0.78636 0.0
C670 C 0.28565 0.47955 0.78068 0.0
H671 H 0.34439 0.49048 0.82549 0.0
O672 O 0.38292 0.51049 0.74377 0.0
O673 O 0.34187 0.52237 0.75354 0.0
O674 O 0.38964 0.5574 0.78696 0.0
O675 O 0.35307 0.54083 0.81118 0.0
C676 C 0.24715 0.43898 0.77124 0.0
C677 C 0.23407 0.45445 0.75087 0.0
H678 H 0.21502 0.49098 0.71366 0.0
H679 H 0.23969 0.5407 0.70754 0.0
H680 H 0.32402 0.44117 0.83721 0.0
H681 H 0.2785 0.41595 0.81206 0.0
H682 H 0.23714 0.41731 0.77499 0.0
H683 H 0.21419 0.44443 0.73923 0.0
Mn684 Mn 0.61278 0.99508 0.77733 0.0
Mn685 Mn 0.66595 0.0173 0.82926 0.0
C686 C 0.63412 0.04385 0.78559 0.0
C687 C 0.59311 0.98351 0.72974 0.0
C688 C 0.60424 1.00171 0.84092 0.0
O689 O 0.62961 0.95673 0.78324 0.0
O690 O 0.66285 0.97499 0.81899 0.0
C691 C 0.71466 0.00701 0.79797 0.0
N692 N 0.70128 0.02541 0.81323 0.0
C693 C 0.73922 0.06527 0.81074 0.0
C694 C 0.75341 0.0467 0.7951 0.0
C695 C 0.74104 0.01748 0.78863 0.0
C696 C 0.71296 0.05363 0.81946 0.0
H697 H 0.70531 0.98453 0.7929 0.0
C698 C 0.65037 0.95401 0.80152 0.0
O699 O 0.57888 0.97657 0.75074 0.0
O700 O 0.61972 0.99427 0.73626 0.0
N701 N 0.67164 0.05817 0.84035 0.0
C702 C 0.65467 0.07364 0.8545 0.0
C703 C 0.6639 0.10333 0.86235 0.0
C704 C 0.69047 0.11683 0.85561 0.0
C705 C 0.70757 0.10051 0.84105 0.0
C706 C 0.69738 0.07091 0.83401 0.0
H707 H 0.63417 0.06349 0.85962 0.0
O708 O 0.60802 0.03725 0.77451 0.0
O709 O 0.64603 0.02217 0.79303 0.0
O710 O 0.59471 0.99379 0.81538 0.0
O711 O 0.63058 0.01072 0.84826 0.0
C712 C 0.73415 0.11256 0.83289 0.0
C713 C 0.74992 0.09498 0.81766 0.0
H714 H 0.77373 0.0547 0.78779 0.0
H715 H 0.75182 1.00303 0.77648 0.0
H716 H 0.65054 0.1158 0.87351 0.0
H717 H 0.69742 0.13979 0.86149 0.0
H718 H 0.74249 0.13541 0.8379 0.0
H719 H 0.77015 0.10458 0.81117 0.0
Mn720 Mn 0.76461 0.6587 0.99482 0.0
Mn721 Mn 0.74986 0.60968 0.93863 0.0
C722 C 0.71818 0.64124 0.97761 0.0
C723 C 0.77266 0.672 0.04247 0.0
C724 C 0.77001 0.67378 0.93451 0.0
O725 O 0.80161 0.64217 0.99338 0.0
O726 O 0.78883 0.60911 0.95625 0.0
C727 C 0.75019 0.55546 0.96755 0.0
N728 N 0.73636 0.57207 0.95043 0.0
C729 C 0.69434 0.5357 0.94435 0.0
C730 C 0.7082 0.51816 0.96177 0.0
C731 C 0.73624 0.5281 0.97344 0.0
C732 C 0.70941 0.56266 0.93901 0.0
H733 H 0.77167 0.56305 0.97674 0.0
C734 C 0.80654 0.62151 0.97664 0.0
O735 O 0.78143 0.68966 0.02416 0.0
O736 O 0.76062 0.64584 0.03325 0.0
N737 N 0.7123 0.60779 0.9204 0.0
C738 C 0.7012 0.62824 0.9058 0.0
C739 C 0.67292 0.62219 0.89375 0.0
C740 C 0.65636 0.59518 0.89677 0.0
C741 C 0.66827 0.57443 0.91178 0.0
C742 C 0.69666 0.58157 0.9231 0.0
H743 H 0.71374 0.64913 0.90359 0.0
O744 O 0.72449 0.66614 0.99219 0.0
O745 O 0.73923 0.62748 0.9734 0.0
O746 O 0.77149 0.68113 0.96053 0.0
O747 O 0.76275 0.64766 0.9239 0.0
C748 C 0.65286 0.54721 0.91648 0.0
C749 C 0.6659 0.52784 0.93272 0.0
H750 H 0.69742 0.49717 0.9666 0.0
H751 H 0.74702 0.51476 0.98705 0.0
H752 H 0.66384 0.63836 0.8823 0.0
H753 H 0.63445 0.59072 0.88771 0.0
H754 H 0.63084 0.54113 0.90807 0.0
H755 H 0.6537 0.50718 0.93658 0.0
Mn756 Mn 0.91326 0.57246 0.75599 0.0
Mn757 Mn 0.85644 0.56286 0.79438 0.0
C758 C 0.89206 0.52587 0.76495 0.0
C759 C 0.93277 0.57404 0.71157 0.0
C760 C 0.91723 0.58057 0.82118 0.0
O761 O 0.89841 0.61245 0.75441 0.0
O762 O 0.86115 0.60157 0.77951 0.0
C763 C 0.81069 0.56336 0.74877 0.0
N764 N 0.82213 0.55013 0.77049 0.0
C765 C 0.78111 0.51268 0.7672 0.0
C766 C 0.76883 0.52593 0.74482 0.0
C767 C 0.78377 0.55127 0.73546 0.0
C768 C 0.80814 0.5255 0.77937 0.0
H769 H 0.82195 0.58305 0.74176 0.0
C770 C 0.87625 0.619 0.76521 0.0
O771 O 0.94778 0.58452 0.73484 0.0
O772 O 0.9062 0.56485 0.71385 0.0
N773 N 0.84855 0.52625 0.81031 0.0
C774 C 0.86387 0.51549 0.83135 0.0
C775 C 0.85233 0.48966 0.84249 0.0
C776 C 0.82492 0.47555 0.83238 0.0
C777 C 0.8093 0.48737 0.81116 0.0
C778 C 0.82201 0.51301 0.80067 0.0
H779 H 0.88477 0.52648 0.83954 0.0
O780 O 0.91797 0.53066 0.75848 0.0
O781 O 0.87896 0.54825 0.76593 0.0
O782 O 0.92967 0.58117 0.79847 0.0
O783 O 0.89028 0.57508 0.82111 0.0
C784 C 0.78174 0.47455 0.79977 0.0
C785 C 0.76768 0.48716 0.77776 0.0
H786 H 0.74801 0.51677 0.7346 0.0
H787 H 0.77445 0.56159 0.71818 0.0
H788 H 0.86448 0.48074 0.85895 0.0
H789 H 0.8161 0.45562 0.84102 0.0
H790 H 0.77138 0.4547 0.80744 0.0
H791 H 0.74671 0.47681 0.76884 0.0
Mn792 Mn 0.73017 0.38993 0.54017 0.0
Mn793 Mn 0.74311 0.44055 0.49277 0.0
C794 C 0.77679 0.40764 0.53098 0.0
C795 C 0.72742 0.37378 0.58675 0.0
C796 C 0.72505 0.37622 0.47505 0.0
O797 O 0.69181 0.40774 0.53699 0.0
O798 O 0.70447 0.43918 0.50495 0.0
C799 C 0.74192 0.49308 0.53046 0.0
N800 N 0.75549 0.47809 0.51205 0.0
C801 C 0.79379 0.51827 0.51315 0.0
C802 C 0.78017 0.53418 0.53202 0.0
C803 C 0.7542 0.52146 0.54082 0.0
C804 C 0.78067 0.48999 0.50374 0.0
H805 H 0.72185 0.48351 0.53713 0.0
C806 C 0.68654 0.4281 0.52114 0.0
O807 O 0.7163 0.35752 0.56443 0.0
O808 O 0.73737 0.40042 0.58233 0.0
N809 N 0.77982 0.44522 0.47912 0.0
C810 C 0.79087 0.42654 0.46182 0.0
C811 C 0.81724 0.43562 0.45182 0.0
C812 C 0.8317 0.46399 0.4592 0.0
C813 C 0.81966 0.48303 0.47656 0.0
C814 C 0.7934 0.4727 0.48604 0.0
H815 H 0.77975 0.4048 0.45579 0.0
O816 O 0.77047 0.38258 0.54097 0.0
O817 O 0.7558 0.42201 0.52647 0.0
O818 O 0.7223 0.36808 0.49988 0.0
O819 O 0.73152 0.40287 0.47021 0.0
C820 C 0.83288 0.51171 0.48516 0.0
C821 C 0.81999 0.52929 0.50351 0.0
H822 H 0.78952 0.55611 0.54 0.0
H823 H 0.74359 0.53356 0.55544 0.0
H824 H 0.82636 0.42082 0.43837 0.0
H825 H 0.85208 0.47089 0.45152 0.0
H826 H 0.85321 0.52028 0.4782 0.0
H827 H 0.83061 0.55113 0.51036 0.0
Mn828 Mn 0.65433 0.51885 0.30424 0.0
Mn829 Mn 0.71133 0.53588 0.35179 0.0
C830 C 0.67713 0.56689 0.31337 0.0
C831 C 0.63191 0.50812 0.25905 0.0
C832 C 0.651 0.52355 0.36794 0.0
O833 O 0.66805 0.4794 0.30646 0.0
O834 O 0.70388 0.49313 0.3407 0.0
C835 C 0.75454 0.52122 0.31497 0.0
N836 N 0.74446 0.54107 0.33183 0.0
C837 C 0.78203 0.57894 0.32281 0.0
C838 C 0.7928 0.55886 0.30546 0.0
C839 C 0.779 0.52988 0.30155 0.0
C840 C 0.75764 0.56902 0.33576 0.0
H841 H 0.74398 0.49895 0.31164 0.0
C842 C 0.68867 0.47387 0.32302 0.0
O843 O 0.61867 0.50192 0.28085 0.0
O844 O 0.65881 0.51857 0.26343 0.0
N845 N 0.72149 0.57653 0.3634 0.0
C846 C 0.70875 0.59319 0.38112 0.0
C847 C 0.71998 0.62276 0.38724 0.0
C848 C 0.74442 0.63486 0.37533 0.0
C849 C 0.75765 0.61714 0.35776 0.0
C850 C 0.74561 0.58773 0.35264 0.0
H851 H 0.69022 0.58398 0.39058 0.0
O852 O 0.65044 0.56122 0.30409 0.0
O853 O 0.68926 0.54435 0.31798 0.0
O854 O 0.63958 0.51652 0.34304 0.0
O855 O 0.6777 0.53218 0.37385 0.0
C856 C 0.7822 0.62756 0.34498 0.0
C857 C 0.79435 0.60848 0.32748 0.0
H858 H 0.81159 0.56548 0.29495 0.0
H859 H 0.78714 0.51426 0.28811 0.0
H860 H 0.70977 0.63622 0.40104 0.0
H861 H 0.75287 0.65775 0.37987 0.0
H862 H 0.79183 0.65024 0.34838 0.0
H863 H 0.81315 0.61678 0.31766 0.0
Tb864 Tb 0.02961 0.06851 0.02322 0.0
C865 C 0.03514 0.02035 0.97458 0.0
Tb866 Tb 1.00014 1.00358 0.02658 0.0
O867 O 0.07334 0.05745 0.03105 0.0
O868 O 0.03859 0.03021 0.04099 0.0
O869 O 0.03962 0.04821 0.98395 0.0
C870 C 0.99478 0.94974 0.04393 0.0
O871 O 0.02014 0.99934 0.98719 0.0
C872 C 0.96437 0.04061 0.01437 0.0
C873 C 0.99561 0.05193 0.07571 0.0
O874 O 0.9807 0.9573 0.02175 0.0
O875 O 0.01208 0.97227 0.05557 0.0
O876 O 0.95718 0.01493 0.02331 0.0
O877 O 0.9901 0.04202 0.0088 0.0
O878 O 0.99352 0.02382 0.06734 0.0
O879 O 0.00802 0.07337 0.06157 0.0
C880 C 0.03415 0.12049 1.00171 0.0
O881 O 0.04655 0.11566 0.02597 0.0
O882 O 0.01901 0.09643 0.99054 0.0
C883 C 0.06485 0.03136 0.03858 0.0
Tb884 Tb 0.27075 0.81989 0.29116 0.0
C885 C 0.32155 0.78523 0.28254 0.0
Tb886 Tb 0.25775 0.75612 0.26837 0.0
O887 O 0.26002 0.80826 0.33359 0.0
O888 O 0.27485 0.77924 0.30679 0.0
O889 O 0.31138 0.80974 0.27848 0.0
C890 C 0.22829 0.70414 0.27624 0.0
O891 O 0.30381 0.76006 0.2819 0.0
C892 C 0.26564 0.79269 0.22841 0.0
C893 C 0.2066 0.79464 0.27198 0.0
O894 O 0.24673 0.7085 0.25772 0.0
O895 O 0.22735 0.72867 0.29005 0.0
O896 O 0.26807 0.76505 0.22553 0.0
O897 O 0.25569 0.79674 0.2517 0.0
O898 O 0.21533 0.76945 0.26567 0.0
O899 O 0.22452 0.81826 0.28273 0.0
C900 C 0.29584 0.87573 0.29596 0.0
O901 O 0.30025 0.85644 0.31338 0.0
O902 O 0.27604 0.86396 0.27669 0.0
C903 C 0.26524 0.78166 0.33026 0.0
Tb904 Tb 0.5411 0.03936 0.51202 0.0
C905 C 0.53521 0.01423 0.5722 0.0
Tb906 Tb 0.48247 0.02029 0.5288 0.0
O907 O 0.54831 0.0778 0.54217 0.0
O908 O 0.50745 0.06076 0.52442 0.0
O909 O 0.55171 0.02114 0.55194 0.0
C910 C 0.43038 0.02144 0.5451 0.0
O911 O 0.50708 0.0132 0.56837 0.0
C912 C 0.50174 0.98102 0.49704 0.0
C913 C 0.48909 0.04888 0.47027 0.0
O914 O 0.4541 0.03489 0.55817 0.0
O915 O 0.43694 1.00454 0.52507 0.0
O916 O 0.47504 0.98265 0.49795 0.0
O917 O 0.51588 0.99868 0.51609 0.0
O918 O 0.47365 0.04433 0.4918 0.0
O919 O 0.51647 0.04612 0.47244 0.0
C920 C 0.59121 0.03605 0.49272 0.0
O921 O 0.56884 0.01624 0.48878 0.0
O922 O 0.58471 0.05877 0.50616 0.0
C923 C 0.52145 0.07914 0.54289 0.0
Tb924 Tb 0.27332 0.29293 0.80625 0.0
C925 C 0.28108 0.33881 0.76014 0.0
Tb926 Tb 0.24882 0.27413 0.74335 0.0
O927 O 0.31735 0.29353 0.79585 0.0
O928 O 0.28374 0.26773 0.7714 0.0
O929 O 0.28236 0.3341 0.78716 0.0
C930 C 0.24928 0.2521 0.69106 0.0
O931 O 0.27013 0.31862 0.73967 0.0
C932 C 0.211 0.29494 0.77319 0.0
C933 C 0.23836 0.22991 0.79032 0.0
O934 O 0.26792 0.27304 0.70378 0.0
O935 O 0.22973 0.24433 0.70746 0.0
O936 O 0.20585 0.28621 0.74662 0.0
O937 O 0.23659 0.29288 0.7796 0.0
O938 O 0.24151 0.23306 0.76335 0.0
O939 O 0.24699 0.25111 0.81046 0.0
C940 C 0.27514 0.31497 0.85853 0.0
O941 O 0.28679 0.29251 0.85107 0.0
O942 O 0.26273 0.32452 0.83671 0.0
C943 C 0.31005 0.2772 0.77256 0.0
Tb944 Tb 0.0099 0.04824 0.49454 0.0
C945 C 0.97484 0.02551 0.54389 0.0
Tb946 Tb 0.03953 0.05501 0.55598 0.0
O947 O 0.00891 1.00099 0.4929 0.0
O948 O 0.03988 0.02873 0.51874 0.0
O949 O 0.97413 0.03191 0.51727 0.0
C950 C 0.06649 0.04532 0.60498 0.0
O951 O 0.99769 0.03181 0.56231 0.0
C952 C 0.01981 0.10112 0.53873 0.0
C953 C 0.07362 0.07719 0.50715 0.0
O954 O 0.04495 0.02814 0.59157 0.0
O955 O 0.07234 0.06809 0.59108 0.0
O956 O 0.03932 0.1021 0.55953 0.0
O957 O 0.01 0.07486 0.5318 0.0
O958 O 0.07451 0.06269 0.53007 0.0
O959 O 0.04941 0.07808 0.49171 0.0
C960 C 0.98475 0.05517 0.44391 0.0
O961 O 0.00805 0.04437 0.44859 0.0
O962 O 0.97577 0.06214 0.46772 0.0
C963 C 0.02958 1.00248 0.51264 0.0
Tb964 Tb 0.29235 0.79505 0.79378 0.0
C965 C 0.24033 0.79251 0.83266 0.0
Tb966 Tb 0.22928 0.7743 0.76693 0.0
O967 O 0.29174 0.83851 0.77777 0.0
O968 O 0.2549 0.81254 0.78522 0.0
O969 O 0.26769 0.79064 0.83062 0.0
C970 C 0.18806 0.78292 0.72963 0.0
O971 O 0.22126 0.7894 0.80999 0.0
C972 C 0.25451 0.72988 0.77999 0.0
C973 C 0.28323 0.77273 0.72958 0.0
O974 O 0.18428 0.7669 0.75079 0.0
O975 O 0.21462 0.79427 0.73014 0.0
O976 O 0.22749 0.72707 0.77132 0.0
O977 O 0.26404 0.75666 0.78188 0.0
O978 O 0.25519 0.76987 0.73114 0.0
O979 O 0.30226 0.78219 0.75146 0.0
C980 C 0.33845 0.79634 0.82922 0.0
O981 O 0.3249 0.81807 0.82558 0.0
O982 O 0.32693 0.77438 0.8119 0.0
C983 C 0.26402 0.83606 0.77541 0.0
Tb984 Tb 0.48711 0.0237 0.01909 0.0
C985 C 0.53687 0.98889 0.02133 0.0
Tb986 Tb 0.54862 0.05678 0.02755 0.0
O987 O 0.49061 0.00948 0.97464 0.0
O988 O 0.51654 0.04567 0.99375 0.0
O989 O 0.51223 0.99059 0.03153 0.0
C990 C 0.60056 0.08538 0.02041 0.0
O991 O 0.55371 0.01236 0.01496 0.0
C992 C 0.52225 0.05488 0.07406 0.0
C993 C 0.49849 0.09239 0.02335 0.0
O994 O 0.59566 0.0615 0.0331 0.0
O995 O 0.57641 0.09279 0.01208 0.0
O996 O 0.54447 0.07338 0.07025 0.0
O997 O 0.51883 0.03512 0.05402 0.0
O998 O 0.52487 0.09138 0.01761 0.0
O999 O 0.48025 0.06875 0.0268 0.0
C1000 C 0.43325 0.99879 0.0249 0.0
O1001 O 0.44476 0.02524 0.03335 0.0
O1002 O 0.45201 0.98641 0.01292 0.0
C1003 C 0.51309 0.02817 0.97214 0.0
Tb1004 Tb 0.24293 0.27252 0.27721 0.0
C1005 C 0.28747 0.28767 0.3312 0.0
Tb1006 Tb 0.30133 0.3131 0.27468 0.0
O1007 O 0.25864 0.23597 0.25438 0.0
O1008 O 0.2861 0.26835 0.27745 0.0
O1009 O 0.26022 0.28362 0.32108 0.0
C1010 C 0.34569 0.31713 0.24511 0.0
O1011 O 0.3085 0.29682 0.31586 0.0
C1012 C 0.26143 0.34411 0.28781 0.0
C1013 C 0.25169 0.30751 0.22428 0.0
O1014 O 0.34552 0.33219 0.26909 0.0
O1015 O 0.32172 0.29991 0.23903 0.0
O1016 O 0.28839 0.35512 0.28816 0.0
O1017 O 0.25958 0.31712 0.28141 0.0
O1018 O 0.27879 0.31548 0.23366 0.0
O1019 O 0.23288 0.29221 0.2384 0.0
C1020 C 0.19261 0.25188 0.29417 0.0
O1021 O 0.19656 0.26364 0.2708 0.0
O1022 O 0.21712 0.2508 0.30745 0.0
C1023 C 0.2855 0.24636 0.26081 0.0
Tb1024 Tb 0.50698 0.53463 0.99932 0.0
C1025 C 0.47566 0.52784 0.05463 0.0
Tb1026 Tb 0.54207 0.54482 0.05793 0.0
O1027 O 0.52206 0.4928 0.99103 0.0
O1028 O 0.52029 0.5093 0.03128 0.0
O1029 O 0.47364 0.53297 0.02765 0.0
C1030 C 0.571 0.53718 0.10602 0.0
O1031 O 0.50016 0.52874 0.07018 0.0
C1032 C 0.53351 0.59213 0.03353 0.0
C1033 C 0.57272 0.54889 1.0035 0.0
O1034 O 0.54796 0.54885 0.10385 0.0
O1035 O 0.57784 0.53027 0.08126 0.0
O1036 O 0.55438 0.59152 0.05256 0.0
O1037 O 0.51729 0.56816 0.0319 0.0
O1038 O 0.5731 0.53887 0.02867 0.0
O1039 O 0.54902 0.55353 0.98933 0.0
C1040 C 0.47097 0.53674 0.95392 0.0
O1041 O 0.49442 0.55475 0.96094 0.0
O1042 O 0.46804 0.51754 0.97227 0.0
C1043 C 0.5287 0.48934 0.0173 0.0
Tb1044 Tb 0.79321 0.2951 0.28732 0.0
C1045 C 0.74149 0.29541 0.32473 0.0
Tb1046 Tb 0.73324 0.27712 0.25978 0.0
O1047 O 0.78606 0.33854 0.30085 0.0
O1048 O 0.76269 0.31643 0.26526 0.0
O1049 O 0.76809 0.29034 0.32401 0.0
C1050 C 0.68536 0.27595 0.22631 0.0
O1051 O 0.72408 0.29341 0.3013 0.0
C1052 C 0.75747 0.23462 0.28097 0.0
C1053 C 0.78531 0.27826 0.22131 0.0
O1054 O 0.69864 0.29824 0.24216 0.0
O1055 O 0.69859 0.25398 0.22987 0.0
O1056 O 0.73039 0.23599 0.28058 0.0
O1057 O 0.7686 0.25614 0.26919 0.0
O1058 O 0.75727 0.27401 0.22279 0.0
O1059 O 0.80388 0.28742 0.24376 0.0
C1060 C 0.84308 0.29392 0.3152 0.0
O1061 O 0.83728 0.31466 0.29983 0.0
O1062 O 0.8212 0.27349 0.31403 0.0
C1063 C 0.76481 0.33877 0.28227 0.0
Tb1064 Tb 0.98478 0.52345 0.51942 0.0
C1065 C 0.03541 0.48968 0.52289 0.0
Tb1066 Tb 0.04549 0.55704 0.53224 0.0
O1067 O 0.99226 0.50703 0.47666 0.0
O1068 O 0.01669 0.54425 0.49585 0.0
O1069 O 0.01007 0.49039 0.53173 0.0
C1070 C 0.09618 0.58957 0.52786 0.0
O1071 O 0.0519 0.51372 0.51756 0.0
C1072 C 0.01972 0.54195 0.57812 0.0
C1073 C 0.9942 0.59271 0.52994 0.0
O1074 O 0.09213 0.56553 0.54015 0.0
O1075 O 0.07167 0.59554 0.51849 0.0
O1076 O 0.04704 0.54676 0.57663 0.0
O1077 O 0.00896 0.54803 0.5548 0.0
O1078 O 0.02224 0.59382 0.53126 0.0
O1079 O 0.97586 0.56791 0.52684 0.0
C1080 C 0.9318 0.4972 0.52369 0.0
O1081 O 0.93881 0.5176 0.50716 0.0
O1082 O 0.95452 0.49162 0.53778 0.0
C1083 C 0.01473 0.52608 0.47481 0.0
Tb1084 Tb 0.77827 0.79488 0.30441 0.0
C1085 C 0.78964 0.83756 0.25674 0.0
Tb1086 Tb 0.75691 0.77198 0.2429 0.0
O1087 O 0.82297 0.78729 0.30415 0.0
O1088 O 0.79433 0.77624 0.26973 0.0
O1089 O 0.79097 0.83425 0.28399 0.0
C1090 C 0.75659 0.75113 0.19009 0.0
O1091 O 0.77826 0.81639 0.23718 0.0
C1092 C 0.71697 0.78463 0.27453 0.0
C1093 C 0.74759 0.72994 0.29108 0.0
O1094 O 0.74577 0.77394 0.19792 0.0
O1095 O 0.76711 0.74002 0.21193 0.0
O1096 O 0.71212 0.76638 0.25236 0.0
O1097 O 0.74242 0.79723 0.27549 0.0
O1098 O 0.75254 0.73176 0.26442 0.0
O1099 O 0.75246 0.75295 0.30956 0.0
C1100 C 0.77849 0.82254 0.35424 0.0
O1101 O 0.78489 0.7966 0.35019 0.0
O1102 O 0.77203 0.8326 0.33044 0.0
C1103 C 0.82013 0.77686 0.2781 0.0
Tb1104 Tb 0.76991 0.32138 0.78108 0.0
C1105 C 0.81714 0.28083 0.79078 0.0
Tb1106 Tb 0.75366 0.25278 0.7678 0.0
O1107 O 0.77869 0.31783 0.827 0.0
O1108 O 0.75495 0.28425 0.80161 0.0
O1109 O 0.81127 0.30682 0.78469 0.0
C1110 C 0.72346 0.20169 0.77682 0.0
O1111 O 0.79784 0.2566 0.78724 0.0
C1112 C 0.75992 0.28063 0.7209 0.0
C1113 C 0.70635 0.2943 0.75815 0.0
O1114 O 0.74631 0.20467 0.76355 0.0
O1115 O 0.71849 0.22715 0.78524 0.0
O1116 O 0.75483 0.25238 0.72177 0.0
O1117 O 0.76384 0.29045 0.74636 0.0
O1118 O 0.71291 0.26763 0.75858 0.0
O1119 O 0.72481 0.31853 0.76594 0.0
C1120 C 0.79126 0.37504 0.77078 0.0
O1121 O 0.77112 0.36864 0.78707 0.0
O1122 O 0.79915 0.3515 0.76062 0.0
C1123 C 0.76744 0.29043 0.82611 0.0
Tb1124 Tb 0.72822 0.76605 0.75728 0.0
C1125 C 0.77737 0.77279 0.80801 0.0
Tb1126 Tb 0.78801 0.80325 0.75418 0.0
O1127 O 0.74054 0.7224 0.75078 0.0
O1128 O 0.76896 0.75937 0.74943 0.0
O1129 O 0.74983 0.77083 0.79991 0.0
C1130 C 0.83612 0.81733 0.73113 0.0
O1131 O 0.79731 0.78185 0.79175 0.0
C1132 C 0.74774 0.8311 0.77293 0.0
C1133 C 0.73992 0.79684 0.70168 0.0
O1134 O 0.81695 0.79484 0.72361 0.0
O1135 O 0.82869 0.83202 0.75246 0.0
O1136 O 0.77493 0.83956 0.77977 0.0
O1137 O 0.74551 0.81 0.75495 0.0
O1138 O 0.76653 0.80635 0.71262 0.0
O1139 O 0.72037 0.78159 0.71547 0.0
C1140 C 0.68091 0.75908 0.78225 0.0
O1141 O 0.68309 0.74737 0.75723 0.0
O1142 O 0.70473 0.77485 0.7922 0.0
C1143 C 0.76724 0.73205 0.74831 0.0
Tb1144 Tb 0.53216 0.57001 0.52919 0.0
C1145 C 0.53698 0.52186 0.48104 0.0
Tb1146 Tb 0.50301 0.50437 0.53293 0.0
O1147 O 0.57512 0.55744 0.53151 0.0
O1148 O 0.54213 0.5316 0.54727 0.0
O1149 O 0.53502 0.54946 0.48778 0.0
C1150 C 0.49594 0.45097 0.55111 0.0
O1151 O 0.52741 0.50037 0.49648 0.0
C1152 C 0.46624 0.5386 0.5139 0.0
C1153 C 0.49637 0.55346 0.58069 0.0
O1154 O 0.48573 0.45774 0.52679 0.0
O1155 O 0.51021 0.47419 0.56491 0.0
O1156 O 0.45948 0.51068 0.51598 0.0
O1157 O 0.49265 0.54389 0.52057 0.0
O1158 O 0.49219 0.52535 0.57162 0.0
O1159 O 0.51144 0.57458 0.56807 0.0
C1160 C 0.53463 0.62178 0.50801 0.0
O1161 O 0.54907 0.61708 0.5313 0.0
O1162 O 0.51876 0.59775 0.49776 0.0
C1163 C 0.56761 0.53236 0.54154 0.0
Tb1164 Tb 0.04649 0.54142 0.01457 0.0
C1165 C 0.03278 0.51699 0.07299 0.0
Tb1166 Tb 0.98473 0.52963 0.02788 0.0
O1167 O 0.0579 0.57736 0.04787 0.0
O1168 O 0.01657 0.56603 0.02971 0.0
O1169 O 0.04918 0.51765 0.05215 0.0
C1170 C 0.93186 0.53991 0.03259 0.0
O1171 O 1.00645 0.52323 0.06934 0.0
C1172 C 1.00475 0.4839 1.00755 0.0
C1173 C 1.00081 0.55493 0.96834 0.0
O1174 O 0.95412 0.55106 0.04938 0.0
O1175 O 0.93927 0.52158 0.0143 0.0
O1176 O 0.98515 0.48244 0.02485 0.0
O1177 O 0.01027 0.50987 1.00129 0.0
O1178 O 0.98142 0.54863 0.98644 0.0
O1179 O 0.02814 0.55313 0.97449 0.0
C1180 C 0.09531 0.52746 1.00099 0.0
O1181 O 0.08921 0.55385 1.00151 0.0
O1182 O 0.07364 0.5095 1.00702 0.0
C1183 C 0.03173 0.58088 0.04987 0.0
H1184 H 0.05465 0.2458 0.95541 0.0
H1185 H 0.01627 0.19555 0.8794 0.0
H1186 H 0.01294 0.15107 0.90394 0.0
H1187 H 0.01877 0.12657 0.94729 0.0
H1188 H 0.05818 0.17575 0.02331 0.0
H1189 H 0.06313 0.22053 0.99856 0.0
C1190 C 0.04587 0.22507 0.94411 0.0
C1191 C 0.03568 0.22416 0.91549 0.0
C1192 C 0.0439 0.19942 0.95846 0.0
C1193 C 0.02435 0.19703 0.9013 0.0
C1194 C 0.02229 0.17154 0.91539 0.0
C1195 C 0.02847 0.14709 0.9585 0.0
C1196 C 0.03785 0.14788 0.98722 0.0
C1197 C 0.03158 0.17253 0.94403 0.0
C1198 C 0.05067 0.17458 1.00128 0.0
C1199 C 0.05352 0.20015 0.98708 0.0
H1200 H 0.07596 0.80292 0.23976 0.0
H1201 H 0.09643 0.76412 0.16167 0.0
H1202 H 0.14537 0.76625 0.18099 0.0
H1203 H 0.18224 0.77664 0.22029 0.0
H1204 H 0.1648 0.81811 0.29799 0.0
H1205 H 0.11518 0.81764 0.27872 0.0
C1206 C 0.09121 0.79522 0.22692 0.0
C1207 C 0.08216 0.78318 0.1992 0.0
C1208 C 0.11995 0.7968 0.23817 0.0
C1209 C 0.10245 0.77348 0.18296 0.0
C1210 C 0.13059 0.77457 0.19403 0.0
C1211 C 0.16758 0.78565 0.23305 0.0
C1212 C 0.17706 0.79699 0.26069 0.0
C1213 C 0.13949 0.78576 0.22166 0.0
C1214 C 0.15801 0.80916 0.2767 0.0
C1215 C 0.12962 0.80878 0.26566 0.0
H1216 H 0.55906 0.88778 0.42801 0.0
H1217 H 0.4791 0.8814 0.3775 0.0
H1218 H 0.46553 0.9198 0.40713 0.0
H1219 H 0.47459 0.95367 0.44894 0.0
H1220 H 0.55302 0.96023 0.50195 0.0
H1221 H 0.56889 0.92372 0.47035 0.0
C1222 C 0.53895 0.89527 0.42326 0.0
C1223 C 0.52081 0.88261 0.39934 0.0
C1224 C 0.53078 0.91728 0.44124 0.0
C1225 C 0.49441 0.89196 0.39421 0.0
C1226 C 0.48626 0.91358 0.41172 0.0
C1227 C 0.49525 0.94723 0.45357 0.0
C1228 C 0.51262 0.95983 0.47776 0.0
C1229 C 0.50411 0.92625 0.43537 0.0
C1230 C 0.53934 0.95119 0.48333 0.0
C1231 C 0.54833 0.93015 0.46529 0.0
H1232 H 0.37945 0.23613 0.67418 0.0
H1233 H 0.44797 0.29103 0.72564 0.0
H1234 H 0.41507 0.30237 0.75916 0.0
H1235 H 0.36668 0.29747 0.77397 0.0
H1236 H 0.29899 0.23854 0.72586 0.0
H1237 H 0.33132 0.22835 0.69101 0.0
C1238 C 0.3872 0.25052 0.69276 0.0
C1239 C 0.41633 0.26273 0.69718 0.0
C1240 C 0.36814 0.25648 0.71253 0.0
C1241 C 0.42585 0.28113 0.72161 0.0
C1242 C 0.40697 0.28775 0.74083 0.0
C1243 C 0.35897 0.28235 0.75588 0.0
C1244 C 0.33007 0.26962 0.75207 0.0
C1245 C 0.37806 0.27565 0.73653 0.0
C1246 C 0.32075 0.24961 0.72876 0.0
C1247 C 0.33938 0.24349 0.70897 0.0
H1248 H 0.05802 0.91695 0.60382 0.0
H1249 H 0.98311 0.86502 0.55932 0.0
H1250 H 0.97924 0.90256 0.52688 0.0
H1251 H 0.9965 0.95026 0.51144 0.0
H1252 H 0.07294 1.00161 0.55322 0.0
H1253 H 0.07711 0.96421 0.58631 0.0
C1254 C 0.04091 0.914 0.58702 0.0
C1255 C 0.02088 0.88837 0.58391 0.0
C1256 C 0.03917 0.93545 0.5679 0.0
C1257 C 0.99889 0.88456 0.56196 0.0
C1258 C 0.99662 0.90598 0.54341 0.0
C1259 C 0.01425 0.95308 0.52758 0.0
C1260 C 0.03411 0.9787 0.53032 0.0
C1261 C 0.01664 0.93144 0.54614 0.0
C1262 C 0.05714 0.98211 0.55113 0.0
C1263 C 0.05952 0.96078 0.57 0.0
H1264 H 0.44034 0.81664 0.92401 0.0
H1265 H 0.45781 0.7387 0.88061 0.0
H1266 H 0.41241 0.73342 0.85184 0.0
H1267 H 0.3716 0.755 0.83433 0.0
H1268 H 0.35638 0.83602 0.87366 0.0
H1269 H 0.39659 0.83607 0.90892 0.0
C1270 C 0.43369 0.79822 0.90869 0.0
C1271 C 0.45217 0.77829 0.90392 0.0
C1272 C 0.40814 0.79613 0.89131 0.0
C1273 C 0.44373 0.75439 0.8842 0.0
C1274 C 0.4179 0.75142 0.86775 0.0
C1275 C 0.37698 0.7725 0.8508 0.0
C1276 C 0.36161 0.79573 0.85121 0.0
C1277 C 0.40058 0.77287 0.87026 0.0
C1278 C 0.36842 0.81818 0.87272 0.0
C1279 C 0.39123 0.81811 0.89297 0.0
H1280 H 0.50381 0.22501 0.05445 0.0
H1281 H 0.45631 0.19265 0.12102 0.0
H1282 H 0.45357 0.14247 0.10046 0.0
H1283 H 0.46725 0.10805 0.06456 0.0
H1284 H 0.51588 0.14185 0.99903 0.0
H1285 H 0.5148 0.19152 0.01758 0.0
C1286 C 0.49242 0.20696 0.06416 0.0
C1287 C 0.4796 0.2123 0.08867 0.0
C1288 C 0.49094 0.1786 0.05222 0.0
C1289 C 0.46593 0.18885 0.10184 0.0
C1290 C 0.46429 0.1603 0.09002 0.0
C1291 C 0.47675 0.12636 0.05386 0.0
C1292 C 0.4914 0.12143 0.03031 0.0
C1293 C 0.47681 0.15492 0.0652 0.0
C1294 C 0.50435 0.14522 0.01706 0.0
C1295 C 0.50401 0.17356 0.02783 0.0
H1296 H 0.07747 0.27554 0.33244 0.0
H1297 H 0.12155 0.27267 0.41429 0.0
H1298 H 0.16174 0.257 0.39231 0.0
H1299 H 0.18565 0.24881 0.34943 0.0
H1300 H 0.14026 0.25247 0.26837 0.0
H1301 H 0.09847 0.26217 0.29066 0.0
C1302 C 0.0957 0.27134 0.34569 0.0
C1303 C 0.09673 0.27581 0.37501 0.0
C1304 C 0.11825 0.26216 0.33301 0.0
C1305 C 0.1204 0.26973 0.39167 0.0
C1306 C 0.14329 0.26071 0.3791 0.0
C1307 C 0.16631 0.25096 0.3367 0.0
C1308 C 0.16592 0.25011 0.30733 0.0
C1309 C 0.14262 0.25739 0.34974 0.0
C1310 C 0.14094 0.25307 0.291 0.0
C1311 C 0.11719 0.25887 0.30373 0.0
H1312 H 0.9433 0.09475 0.1859 0.0
H1313 H 0.87917 0.02113 0.15601 0.0
H1314 H 0.90547 0.0113 0.11642 0.0
H1315 H 0.94746 0.02168 0.09118 0.0
H1316 H 0.00916 0.09846 0.11586 0.0
H1317 H 0.98345 0.10873 0.15659 0.0
C1318 C 0.93493 0.07682 0.17049 0.0
C1319 C 0.90919 0.05866 0.17419 0.0
C1320 C 0.94999 0.07156 0.147 0.0
C1321 C 0.8987 0.03562 0.15383 0.0
C1322 C 0.91388 0.02979 0.13118 0.0
C1323 C 0.95534 0.04079 0.10536 0.0
C1324 C 0.98048 0.05906 0.10056 0.0
C1325 C 0.9397 0.04729 0.12777 0.0
C1326 C 0.99 0.08391 0.11906 0.0
C1327 C 0.97522 0.0898 0.14234 0.0
H1328 H 0.29472 0.68415 0.41021 0.0
H1329 H 0.29752 0.75382 0.47428 0.0
H1330 H 0.28554 0.78623 0.43835 0.0
H1331 H 0.27279 0.79473 0.38813 0.0
H1332 H 0.27295 0.72515 0.32474 0.0
H1333 H 0.28449 0.69307 0.3607 0.0
C1334 C 0.29307 0.70651 0.41649 0.0
C1335 C 0.29729 0.71624 0.44534 0.0
C1336 C 0.28606 0.72513 0.39561 0.0
C1337 C 0.29482 0.74547 0.45251 0.0
C1338 C 0.28767 0.76406 0.43185 0.0
C1339 C 0.27512 0.77248 0.3822 0.0
C1340 C 0.27118 0.76235 0.35345 0.0
C1341 C 0.28289 0.75411 0.40326 0.0
C1342 C 0.27508 0.73356 0.34645 0.0
C1343 C 0.28201 0.71516 0.36712 0.0
H1344 H 0.61635 1.00121 0.68194 0.0
H1345 H 0.53648 0.96724 0.71182 0.0
H1346 H 0.51139 0.97335 0.66654 0.0
H1347 H 0.51156 0.99063 0.61845 0.0
H1348 H 0.59206 0.02366 0.58898 0.0
H1349 H 0.61685 0.01569 0.63344 0.0
C1350 C 0.5935 0.99471 0.67849 0.0
C1351 C 0.57854 0.98364 0.7006 0.0
C1352 C 0.579 0.99842 0.65222 0.0
C1353 C 0.54881 0.97564 0.69542 0.0
C1354 C 0.53431 0.97931 0.66943 0.0
C1355 C 0.53452 0.996 0.62167 0.0
C1356 C 0.54962 0.0079 0.59993 0.0
C1357 C 0.54907 0.99109 0.64767 0.0
C1358 C 0.57952 0.01447 0.60489 0.0
C1359 C 0.59391 0.00993 0.63054 0.0
H1360 H 0.29202 0.36568 0.9848 0.0
H1361 H 0.26014 0.43673 0.94584 0.0
H1362 H 0.25454 0.4094 0.90028 0.0
H1363 H 0.25994 0.36643 0.87147 0.0
H1364 H 0.29452 0.29597 0.90854 0.0
H1365 H 0.29784 0.32192 0.95515 0.0
C1366 C 0.28364 0.37496 0.96631 0.0
C1367 C 0.27644 0.40308 0.96854 0.0
C1368 C 0.2811 0.35936 0.94001 0.0
C1369 C 0.26596 0.41516 0.94451 0.0
C1370 C 0.26271 0.39956 0.91851 0.0
C1371 C 0.26809 0.35664 0.88976 0.0
C1372 C 0.27692 0.3294 0.88679 0.0
C1373 C 0.27043 0.37182 0.91602 0.0
C1374 C 0.28763 0.31701 0.91051 0.0
C1375 C 0.2895 0.33182 0.93705 0.0
H1376 H 0.93347 0.05117 0.31764 0.0
H1377 H 0.86097 0.07073 0.35821 0.0
H1378 H 0.8884 0.07411 0.40392 0.0
H1379 H 0.93203 0.0686 0.4327 0.0
H1380 H 1.00369 0.04607 0.3927 0.0
H1381 H 0.97773 0.04687 0.34656 0.0
C1382 C 0.92385 0.05664 0.33647 0.0
C1383 C 0.89523 0.0608 0.33447 0.0
C1384 C 0.93955 0.05777 0.36284 0.0
C1385 C 0.88293 0.06738 0.35913 0.0
C1386 C 0.89859 0.06928 0.38531 0.0
C1387 C 0.94202 0.06411 0.41386 0.0
C1388 C 0.9697 0.05728 0.41605 0.0
C1389 C 0.92675 0.06404 0.38746 0.0
C1390 C 0.98236 0.05134 0.39151 0.0
C1391 C 0.96752 0.05179 0.36513 0.0
H1392 H 0.33104 0.75116 0.61083 0.0
H1393 H 0.28254 0.66611 0.61669 0.0
H1394 H 0.26921 0.68166 0.66219 0.0
H1395 H 0.26903 0.71985 0.70014 0.0
H1396 H 0.32047 0.80364 0.69763 0.0
H1397 H 0.33476 0.78838 0.65174 0.0
C1398 C 0.31789 0.7359 0.62221 0.0
C1399 C 0.30788 0.70732 0.6098 0.0
C1400 C 0.31047 0.74492 0.64917 0.0
C1401 C 0.29082 0.68811 0.62528 0.0
C1402 C 0.28295 0.69705 0.65147 0.0
C1403 C 0.28343 0.73477 0.68956 0.0
C1404 C 0.29331 0.76306 0.70226 0.0
C1405 C 0.29225 0.72548 0.66352 0.0
C1406 C 0.31241 0.78183 0.6884 0.0
C1407 C 0.32056 0.77305 0.66206 0.0
H1408 H 0.61316 0.03151 0.89289 0.0
H1409 H 0.54893 0.9733 0.83937 0.0
H1410 H 0.51553 0.97562 0.87501 0.0
H1411 H 0.50402 0.99515 0.92151 0.0
H1412 H 0.56764 0.0558 0.97264 0.0
H1413 H 0.60146 0.05186 0.93808 0.0
C1414 C 0.59189 0.01925 0.88884 0.0
C1415 C 0.58385 1.00218 0.86314 0.0
C1416 C 0.57244 0.02135 0.90915 0.0
C1417 C 0.55595 0.98665 0.85871 0.0
C1418 C 0.53675 0.988 0.87918 0.0
C1419 C 0.52525 0.00762 0.92501 0.0
C1420 C 0.53313 0.02608 0.94991 0.0
C1421 C 0.54463 0.00548 0.90446 0.0
C1422 C 0.5608 0.04186 0.95386 0.0
C1423 C 0.58025 0.03942 0.934 0.0
H1424 H 0.23634 0.34771 0.10327 0.0
H1425 H 0.26124 0.43132 0.14988 0.0
H1426 H 0.25706 0.40829 0.19375 0.0
H1427 H 0.25343 0.36399 0.21877 0.0
H1428 H 0.23041 0.28005 0.17314 0.0
H1429 H 0.22626 0.3035 0.12886 0.0
C1430 C 0.24028 0.36094 0.12301 0.0
C1431 C 0.24955 0.39115 0.12333 0.0
C1432 C 0.23836 0.34744 0.14827 0.0
C1433 C 0.2544 0.40802 0.14905 0.0
C1434 C 0.25208 0.39486 0.17417 0.0
C1435 C 0.24677 0.35096 0.19911 0.0
C1436 C 0.24223 0.32053 0.19887 0.0
C1437 C 0.24513 0.36455 0.17401 0.0
C1438 C 0.23372 0.30358 0.17358 0.0
C1439 C 0.23165 0.317 0.14835 0.0
H1440 H 0.13122 0.92439 0.01398 0.0
H1441 H 0.19505 0.97792 0.07164 0.0
H1442 H 0.1636 0.0138 0.0775 0.0
H1443 H 0.11892 0.03246 0.06336 0.0
H1444 H 0.05076 0.97417 0.01543 0.0
H1445 H 0.08211 0.93821 0.0089 0.0
C1446 C 0.13796 0.94342 0.02851 0.0
C1447 C 0.16622 0.94863 0.04163 0.0
C1448 C 0.11886 0.96363 0.03317 0.0
C1449 C 0.17412 0.97362 0.06035 0.0
C1450 C 0.15594 0.99423 0.0639 0.0
C1451 C 0.11073 0.01173 0.05178 0.0
C1452 C 0.08248 0.00694 0.03894 0.0
C1453 C 0.1285 0.98998 0.0498 0.0
C1454 C 0.07239 0.97942 0.02474 0.0
C1455 C 0.09045 0.95849 0.02116 0.0
H1456 H 0.70137 0.58838 0.99381 0.0
H1457 H 0.66978 0.66087 0.95792 0.0
H1458 H 0.62065 0.63619 0.95881 0.0
H1459 H 0.58722 0.59574 0.97411 0.0
H1460 H 0.62015 0.52439 0.01137 0.0
H1461 H 0.66847 0.54625 1.00451 0.0
C1462 C 0.68369 0.59833 0.9854 0.0
C1463 C 0.68888 0.62585 0.97506 0.0
C1464 C 0.65591 0.58414 0.98614 0.0
C1465 C 0.66601 0.63936 0.96549 0.0
C1466 C 0.63806 0.62526 0.96598 0.0
C1467 C 0.60495 0.58461 0.97988 0.0
C1468 C 0.60033 0.55858 0.99323 0.0
C1469 C 0.63278 0.59781 0.9767 0.0
C1470 C 0.62337 0.54453 1.00114 0.0
C1471 C 0.65095 0.5571 0.99743 0.0
H1472 H 0.68413 0.43513 0.2762 0.0
H1473 H 0.71576 0.44781 0.36378 0.0
H1474 H 0.74071 0.40641 0.35868 0.0
H1475 H 0.75792 0.37027 0.32886 0.0
H1476 H 0.72674 0.35513 0.24152 0.0
H1477 H 0.69736 0.39379 0.2469 0.0
C1478 C 0.69591 0.42836 0.29428 0.0
C1479 C 0.69818 0.44487 0.32035 0.0
C1480 C 0.71077 0.40447 0.29112 0.0
C1481 C 0.71377 0.43581 0.34347 0.0
C1482 C 0.72822 0.41217 0.34055 0.0
C1483 C 0.74451 0.37518 0.31096 0.0
C1484 C 0.74467 0.35995 0.28477 0.0
C1485 C 0.72764 0.39702 0.31436 0.0
C1486 C 0.72693 0.36643 0.26193 0.0
C1487 C 0.71022 0.38862 0.26504 0.0
H1488 H 0.80456 0.46151 0.54962 0.0
H1489 H 0.81667 0.38014 0.50875 0.0
H1490 H 0.86633 0.4001 0.50397 0.0
H1491 H 0.90588 0.4417 0.5096 0.0
H1492 H 0.89264 0.524 0.54756 0.0
H1493 H 0.84411 0.50289 0.55561 0.0
C1494 C 0.81807 0.44835 0.53939 0.0
C1495 C 0.80682 0.41982 0.52855 0.0
C1496 C 0.84644 0.46016 0.53637 0.0
C1497 C 0.82479 0.40242 0.51661 0.0
C1498 C 0.85313 0.41382 0.51387 0.0
C1499 C 0.89221 0.45491 0.51952 0.0
C1500 C 0.90251 0.48431 0.52786 0.0
C1501 C 0.86409 0.44282 0.52327 0.0
C1502 C 0.88489 0.50135 0.5408 0.0
C1503 C 0.85725 0.48926 0.54549 0.0
H1504 H 0.38213 0.17177 0.29286 0.0
H1505 H 0.35227 0.12803 0.21183 0.0
H1506 H 0.31957 0.16296 0.20363 0.0
H1507 H 0.2951 0.20282 0.22234 0.0
H1508 H 0.32973 0.24964 0.30108 0.0
H1509 H 0.36449 0.21708 0.30728 0.0
C1510 C 0.3694 0.17067 0.27289 0.0
C1511 C 0.37013 0.14751 0.2528 0.0
C1512 C 0.35072 0.19107 0.26823 0.0
C1513 C 0.3528 0.14603 0.22735 0.0
C1514 C 0.33366 0.16577 0.22287 0.0
C1515 C 0.3105 0.2061 0.24064 0.0
C1516 C 0.30899 0.2283 0.26161 0.0
C1517 C 0.33169 0.18786 0.24358 0.0
C1518 C 0.3297 0.23252 0.28484 0.0
C1519 C 0.34984 0.21388 0.28841 0.0
H1520 H 0.33978 0.10666 0.54072 0.0
H1521 H 0.34697 0.09145 0.45238 0.0
H1522 H 0.38024 0.05781 0.46225 0.0
H1523 H 0.40629 0.03211 0.49542 0.0
H1524 H 0.40202 0.04789 0.58411 0.0
H1525 H 0.36697 0.08039 0.5747 0.0
C1526 C 0.3492 0.09643 0.52377 0.0
C1527 C 0.34136 0.10181 0.49586 0.0
C1528 C 0.36791 0.07651 0.5296 0.0
C1529 C 0.35306 0.0879 0.47399 0.0
C1530 C 0.37182 0.06848 0.4796 0.0
C1531 C 0.39742 0.04234 0.51276 0.0
C1532 C 0.40605 0.03705 0.54042 0.0
C1533 C 0.37902 0.06232 0.50723 0.0
C1534 C 0.39513 0.05121 0.56264 0.0
C1535 C 0.37561 0.07024 0.55724 0.0
H1536 H 0.67204 0.62134 0.33484 0.0
H1537 H 0.71938 0.57543 0.27982 0.0
H1538 H 0.74556 0.62154 0.26784 0.0
H1539 H 0.75394 0.67525 0.2718 0.0
H1540 H 0.71041 0.72118 0.33066 0.0
H1541 H 0.68417 0.6751 0.34258 0.0
C1542 C 0.68825 0.62158 0.32042 0.0
C1543 C 0.69397 0.59513 0.30837 0.0
C1544 C 0.70387 0.64824 0.31425 0.0
C1545 C 0.71491 0.59558 0.2896 0.0
C1546 C 0.7298 0.62193 0.28267 0.0
C1547 C 0.73879 0.67512 0.28732 0.0
C1548 C 0.73382 0.70166 0.29997 0.0
C1549 C 0.72434 0.64844 0.2947 0.0
C1550 C 0.71452 0.70111 0.32044 0.0
C1551 C 0.69941 0.67473 0.32723 0.0
H1552 H 0.84125 0.50022 0.73905 0.0
H1553 H 0.91194 0.48436 0.7946 0.0
H1554 H 0.88699 0.43555 0.80084 0.0
H1555 H 0.84374 0.39865 0.7926 0.0
H1556 H 0.77211 0.41529 0.73883 0.0
H1557 H 0.79861 0.46255 0.72945 0.0
C1558 C 0.85099 0.48603 0.75262 0.0
C1559 C 0.87776 0.49601 0.76728 0.0
C1560 C 0.83631 0.45832 0.7564 0.0
C1561 C 0.89099 0.47718 0.78372 0.0
C1562 C 0.87672 0.4494 0.78733 0.0
C1563 C 0.83393 0.41292 0.77915 0.0
C1564 C 0.80596 0.40422 0.76692 0.0
C1565 C 0.84911 0.44005 0.77431 0.0
C1566 C 0.79345 0.42217 0.74893 0.0
C1567 C 0.80867 0.44893 0.7434 0.0
H1568 H 0.96066 0.82245 0.0804 0.0
H1569 H 0.01971 0.85695 0.15218 0.0
H1570 H 0.02808 0.90399 0.13184 0.0
H1571 H 0.01918 0.9351 0.09318 0.0
H1572 H 0.96004 0.90011 0.02182 0.0
H1573 H 0.95142 0.85326 0.04245 0.0
C1574 C 0.97531 0.84019 0.09185 0.0
C1575 C 0.98949 0.83592 0.11799 0.0
C1576 C 0.9802 0.86705 0.07992 0.0
C1577 C 0.00837 0.85943 0.13219 0.0
C1578 C 0.01326 0.88635 0.12047 0.0
C1579 C 1.00447 0.91716 0.0821 0.0
C1580 C 0.99033 0.92102 0.05589 0.0
C1581 C 0.99944 0.89035 0.09426 0.0
C1582 C 0.97124 0.89767 0.04191 0.0
C1583 C 0.96627 0.87092 0.05376 0.0
H1584 H 0.92712 0.30872 0.87718 0.0
H1585 H 0.96116 0.25809 0.81434 0.0
H1586 H 0.91434 0.24691 0.78741 0.0
H1587 H 0.86396 0.25505 0.77968 0.0
H1588 H 0.83178 0.30889 0.84149 0.0
H1589 H 0.87691 0.31521 0.87053 0.0
C1590 C 0.92414 0.29506 0.8577 0.0
C1591 C 0.94766 0.28485 0.84741 0.0
C1592 C 0.89726 0.28934 0.84196 0.0
C1593 C 0.94346 0.26679 0.82235 0.0
C1594 C 0.91664 0.26031 0.80697 0.0
C1595 C 0.86679 0.2677 0.79972 0.0
C1596 C 0.84436 0.28124 0.8085 0.0
C1597 C 0.89341 0.27201 0.81619 0.0
C1598 C 0.84856 0.29805 0.8343 0.0
C1599 C 0.87446 0.30177 0.85097 0.0
H1600 H 0.45505 0.15951 0.61614 0.0
H1601 H 0.53982 0.20663 0.63556 0.0
H1602 H 0.55856 0.17024 0.60726 0.0
H1603 H 0.55101 0.12539 0.57587 0.0
H1604 H 0.46556 0.08496 0.54688 0.0
H1605 H 0.44674 0.11791 0.57932 0.0
C1606 C 0.4773 0.16267 0.61296 0.0
C1607 C 0.49566 0.18671 0.627 0.0
C1608 C 0.48787 0.1424 0.59511 0.0
C1609 C 0.525 0.18879 0.62462 0.0
C1610 C 0.53581 0.16794 0.60835 0.0
C1611 C 0.52823 0.12392 0.57645 0.0
C1612 C 0.50979 0.10149 0.56009 0.0
C1613 C 0.51746 0.14477 0.59327 0.0
C1614 C 0.48033 0.10064 0.56054 0.0
C1615 C 0.46952 0.12007 0.57865 0.0
H1616 H 0.61724 0.84227 0.32297 0.0
H1617 H 0.60052 0.7587 0.35711 0.0
H1618 H 0.64187 0.74416 0.33719 0.0
H1619 H 0.68107 0.75357 0.3068 0.0
H1620 H 0.70142 0.83861 0.27696 0.0
H1621 H 0.66078 0.85411 0.29819 0.0
C1622 C 0.62296 0.8211 0.32654 0.0
C1623 C 0.6055 0.8017 0.34169 0.0
C1624 C 0.6474 0.81295 0.3154 0.0
C1625 C 0.61348 0.77433 0.34595 0.0
C1626 C 0.6371 0.76582 0.33427 0.0
C1627 C 0.67684 0.77562 0.30534 0.0
C1628 C 0.6942 0.79485 0.29015 0.0
C1629 C 0.65394 0.78469 0.3185 0.0
C1630 C 0.68845 0.82339 0.28853 0.0
C1631 C 0.66512 0.83223 0.30064 0.0
H1632 H 0.99608 0.19168 0.45081 0.0
H1633 H 0.07708 0.23519 0.49065 0.0
H1634 H 0.07979 0.19537 0.5209 0.0
H1635 H 0.05849 0.14919 0.53715 0.0
H1636 H 0.97598 0.10694 0.50036 0.0
H1637 H 0.97429 0.14518 0.46774 0.0
C1638 C 0.01442 0.19215 0.46591 0.0
C1639 C 0.03642 0.21612 0.46851 0.0
C1640 C 0.01539 0.1696 0.48388 0.0
C1641 C 0.0599 0.21688 0.48838 0.0
C1642 C 0.06143 0.19421 0.50571 0.0
C1643 C 0.04005 0.1485 0.52213 0.0
C1644 C 0.01755 0.12518 0.52071 0.0
C1645 C 0.03911 0.17072 0.50394 0.0
C1646 C 0.99383 0.12439 0.50117 0.0
C1647 C 0.99281 0.14631 0.48272 0.0
H1648 H 0.58208 0.25937 0.13254 0.0
H1649 H 0.57693 0.34615 0.16591 0.0
H1650 H 0.61985 0.34651 0.19768 0.0
H1651 H 0.65655 0.32069 0.21844 0.0
H1652 H 0.65983 0.23256 0.1876 0.0
H1653 H 0.61975 0.23391 0.15258 0.0
C1654 C 0.59085 0.27857 0.14631 0.0
C1655 C 0.57674 0.30285 0.14675 0.0
C1656 C 0.61476 0.27808 0.16537 0.0
C1657 C 0.58771 0.32735 0.16514 0.0
C1658 C 0.61206 0.32746 0.18343 0.0
C1659 C 0.64846 0.30181 0.20403 0.0
C1660 C 0.66086 0.27649 0.20565 0.0
C1661 C 0.62532 0.30268 0.1842 0.0
C1662 C 0.65036 0.25219 0.18684 0.0
C1663 C 0.62758 0.25302 0.16675 0.0
H1664 H 0.53314 0.85734 0.98287 0.0
H1665 H 0.56359 0.89569 0.90958 0.0
H1666 H 0.56887 0.94424 0.93385 0.0
H1667 H 0.56026 0.97575 0.97408 0.0
H1668 H 0.52433 0.93736 0.04486 0.0
H1669 H 0.52627 0.88867 0.02362 0.0
C1670 C 0.54152 0.87623 0.97235 0.0
C1671 C 0.54812 0.87284 0.94446 0.0
C1672 C 0.54344 0.90404 0.98603 0.0
C1673 C 0.55841 0.89767 0.93103 0.0
C1674 C 0.56138 0.92543 0.94488 0.0
C1675 C 0.55351 0.95673 0.98515 0.0
C1676 C 0.54246 0.96003 0.01115 0.0
C1677 C 0.55336 0.92888 0.97215 0.0
C1678 C 0.53308 0.93525 0.02494 0.0
C1679 C 0.53407 0.90748 0.01273 0.0
H1680 H 0.95281 0.85793 0.68434 0.0
H1681 H 0.9182 0.78824 0.6214 0.0
H1682 H 0.87371 0.78126 0.64319 0.0
H1683 H 0.84672 0.79169 0.68254 0.0
H1684 H 0.88162 0.86027 0.74617 0.0
H1685 H 0.92445 0.87079 0.72169 0.0
C1686 C 0.93547 0.84139 0.67509 0.0
C1687 C 0.93903 0.82336 0.65142 0.0
C1688 C 0.91031 0.83701 0.68811 0.0
C1689 C 0.91613 0.80237 0.6396 0.0
C1690 C 0.89076 0.79821 0.65219 0.0
C1691 C 0.86368 0.80902 0.691 0.0
C1692 C 0.86139 0.82498 0.71626 0.0
C1693 C 0.888 0.81483 0.67687 0.0
C1694 C 0.88318 0.84761 0.72686 0.0
C1695 C 0.90754 0.85361 0.71285 0.0
H1696 H 0.09008 1.00102 0.86106 0.0
H1697 H 0.16645 0.02159 0.91836 0.0
H1698 H 0.13799 0.02306 0.95773 0.0
H1699 H 0.09162 0.02283 0.97606 0.0
H1700 H 0.01484 1.00164 0.92011 0.0
H1701 H 0.04306 0.99598 0.88027 0.0
C1702 C 0.10056 0.0054 0.88216 0.0
C1703 C 0.13062 0.01143 0.88639 0.0
C1704 C 0.08392 0.00634 0.90508 0.0
C1705 C 0.14353 0.01699 0.91411 0.0
C1706 C 0.12723 0.01795 0.9368 0.0
C1707 C 0.08109 0.0165 0.95516 0.0
C1708 C 0.05123 0.01259 0.95095 0.0
C1709 C 0.09746 0.01331 0.93252 0.0
C1710 C 0.03779 1.00451 0.92385 0.0
C1711 C 0.05397 1.00145 0.90109 0.0
H1712 H 0.72657 0.31671 0.59799 0.0
H1713 H 0.74094 0.40302 0.63935 0.0
H1714 H 0.75252 0.38312 0.68434 0.0
H1715 H 0.75921 0.34028 0.71257 0.0
H1716 H 0.74735 0.25499 0.66876 0.0
H1717 H 0.73452 0.27521 0.62502 0.0
C1718 C 0.73189 0.33126 0.61684 0.0
C1719 C 0.73233 0.36146 0.61494 0.0
C1720 C 0.7394 0.3197 0.64263 0.0
C1721 C 0.74002 0.37971 0.63986 0.0
C1722 C 0.74683 0.36827 0.66574 0.0
C1723 C 0.75414 0.32619 0.69342 0.0
C1724 C 0.75452 0.29586 0.69443 0.0
C1725 C 0.74683 0.33819 0.66752 0.0
C1726 C 0.74748 0.27825 0.66909 0.0
C1727 C 0.73996 0.28983 0.6438 0.0
H1728 H 0.40703 0.08356 0.37117 0.0
H1729 H 0.47697 0.07119 0.32335 0.0
H1730 H 0.50495 0.06202 0.36617 0.0
H1731 H 0.50837 0.05389 0.41733 0.0
H1732 H 0.4371 0.0658 0.4636 0.0
H1733 H 0.41126 0.07843 0.42158 0.0
C1734 C 0.42854 0.07928 0.36995 0.0
C1735 C 0.43963 0.07818 0.34364 0.0
C1736 C 0.44437 0.07344 0.39463 0.0
C1737 C 0.46768 0.07247 0.34304 0.0
C1738 C 0.4837 0.06695 0.36763 0.0
C1739 C 0.4873 0.05949 0.41829 0.0
C1740 C 0.47485 0.05851 0.44398 0.0
C1741 C 0.4721 0.0668 0.39358 0.0
C1742 C 0.4474 0.06591 0.44443 0.0
C1743 C 0.43246 0.07328 0.42026 0.0
H1744 H 0.76636 0.72571 0.06155 0.0
H1745 H 0.77783 0.64167 0.08898 0.0
H1746 H 0.77458 0.65919 0.13763 0.0
H1747 H 0.76719 0.69823 0.17196 0.0
H1748 H 0.75113 0.78057 0.14343 0.0
H1749 H 0.7572 0.76388 0.09536 0.0
C1750 C 0.7685 0.71136 0.07827 0.0
C1751 C 0.77277 0.68263 0.07195 0.0
C1752 C 0.76543 0.72121 0.1058 0.0
C1753 C 0.77476 0.66395 0.09354 0.0
C1754 C 0.77281 0.67393 0.12125 0.0
C1755 C 0.76496 0.71243 0.15514 0.0
C1756 C 0.75875 0.74054 0.16103 0.0
C1757 C 0.76788 0.70245 0.12756 0.0
C1758 C 0.75574 0.75877 0.13922 0.0
C1759 C 0.75934 0.7493 0.11183 0.0
H1760 H 0.1501 0.04097 0.71278 0.0
H1761 H 0.08545 0.97 0.72768 0.0
H1762 H 0.05935 0.97499 0.68239 0.0
H1763 H 0.05345 1.00207 0.63986 0.0
H1764 H 0.11683 0.07547 0.62799 0.0
H1765 H 0.14478 0.06711 0.67078 0.0
C1766 C 0.13055 0.02621 0.70596 0.0
C1767 C 0.11985 1.00498 0.72349 0.0
C1768 C 0.11519 0.03 0.68056 0.0
C1769 C 0.0942 0.98643 0.7145 0.0
C1770 C 0.07921 0.9894 0.68868 0.0
C1771 C 0.0734 0.01614 0.64671 0.0
C1772 C 0.083 0.03948 0.63091 0.0
C1773 C 0.0892 0.01154 0.67178 0.0
C1774 C 0.10889 0.05752 0.6399 0.0
C1775 C 0.12495 0.05271 0.66433 0.0
H1776 H 0.69897 0.37336 0.42126 0.0
H1777 H 0.75487 0.3308 0.47377 0.0
H1778 H 0.76524 0.30182 0.43269 0.0
H1779 H 0.7613 0.2911 0.38061 0.0
H1780 H 0.70073 0.32981 0.32944 0.0
H1781 H 0.68949 0.35725 0.37062 0.0
C1782 C 0.71281 0.35716 0.42385 0.0
C1783 C 0.72579 0.35417 0.4509 0.0
C1784 C 0.71825 0.33997 0.40003 0.0
C1785 C 0.74401 0.33325 0.45352 0.0
C1786 C 0.75024 0.31685 0.42985 0.0
C1787 C 0.7453 0.30515 0.37849 0.0
C1788 C 0.73224 0.30837 0.35145 0.0
C1789 C 0.73792 0.32034 0.40281 0.0
C1790 C 0.71132 0.32664 0.34961 0.0
C1791 C 0.70485 0.34256 0.37332 0.0
H1792 H 0.48628 0.08072 0.19612 0.0
H1793 H 0.40294 0.04556 0.15588 0.0
H1794 H 0.42338 0.03583 0.11191 0.0
H1795 H 0.46555 0.03781 0.08419 0.0
H1796 H 0.54812 0.07482 0.12506 0.0
H1797 H 0.52764 0.0827 0.16894 0.0
C1798 C 0.47247 0.07104 0.17775 0.0
C1799 C 0.44294 0.06409 0.17962 0.0
C1800 C 0.48442 0.06542 0.15239 0.0
C1801 C 0.42566 0.05139 0.15533 0.0
C1802 C 0.43742 0.04565 0.13006 0.0
C1803 C 0.47907 0.04714 0.10275 0.0
C1804 C 0.50857 0.0553 0.10108 0.0
C1805 C 0.46687 0.05248 0.12824 0.0
C1806 C 0.52548 0.06803 0.12551 0.0
C1807 C 0.51373 0.07275 0.15075 0.0
H1808 H 0.80902 0.68818 0.89755 0.0
H1809 H 0.73337 0.71136 0.9293 0.0
H1810 H 0.73085 0.74744 0.89482 0.0
H1811 H 0.74732 0.76854 0.85285 0.0
H1812 H 0.82431 0.74783 0.82192 0.0
H1813 H 0.82979 0.71534 0.85938 0.0
C1814 C 0.79232 0.7015 0.89701 0.0
C1815 C 0.77124 0.69719 0.91552 0.0
C1816 C 0.79134 0.72265 0.87747 0.0
C1817 C 0.74975 0.71454 0.91507 0.0
C1818 C 0.74829 0.73508 0.89542 0.0
C1819 C 0.76566 0.75743 0.85469 0.0
C1820 C 0.78507 0.76009 0.8344 0.0
C1821 C 0.76861 0.73885 0.87615 0.0
C1822 C 0.80903 0.74605 0.8373 0.0
C1823 C 0.812 0.72721 0.85853 0.0
H1824 H 0.86886 0.11662 0.04084 0.0
H1825 H 0.89599 0.15949 0.96902 0.0
H1826 H 0.93534 0.1313 0.96744 0.0
H1827 H 0.95939 0.08991 0.98375 0.0
H1828 H 0.92673 0.04402 0.05209 0.0
H1829 H 0.89322 0.07744 0.05786 0.0
C1830 C 0.88396 0.12052 0.02541 0.0
C1831 C 0.87987 0.14106 1.00571 0.0
C1832 C 0.9057 0.10304 0.02375 0.0
C1833 C 0.899 0.14462 0.98504 0.0
C1834 C 0.92139 0.12812 0.98392 0.0
C1835 C 0.94538 0.08764 1.00026 0.0
C1836 C 0.94643 0.06446 0.01793 0.0
C1837 C 0.92466 0.1066 1.00277 0.0
C1838 C 0.9272 0.0617 0.03855 0.0
C1839 C 0.90765 0.08083 0.04179 0.0
H1840 H 0.35371 0.4897 0.08956 0.0
H1841 H 0.36192 0.41388 0.03682 0.0
H1842 H 0.41211 0.43261 0.03395 0.0
H1843 H 0.45084 0.47387 0.04027 0.0
H1844 H 0.44346 0.55038 0.09226 0.0
H1845 H 0.39577 0.52799 0.10237 0.0
C1846 C 0.36673 0.47737 0.07768 0.0
C1847 C 0.35432 0.4513 0.06228 0.0
C1848 C 0.39548 0.48833 0.07616 0.0
C1849 C 0.37121 0.43451 0.04803 0.0
C1850 C 0.39978 0.44514 0.04645 0.0
C1851 C 0.43887 0.4853 0.05424 0.0
C1852 C 0.44987 0.51367 0.06519 0.0
C1853 C 0.4117 0.47255 0.05942 0.0
C1854 C 0.4349 0.52848 0.08359 0.0
C1855 C 0.40777 0.51571 0.08925 0.0
H1856 H 0.29255 0.60794 0.78979 0.0
H1857 H 0.35891 0.64533 0.74146 0.0
H1858 H 0.34143 0.69218 0.74523 0.0
H1859 H 0.30524 0.72184 0.76042 0.0
H1860 H 0.23787 0.68176 0.8059 0.0
H1861 H 0.25822 0.63686 0.80562 0.0
C1862 C 0.30351 0.62623 0.78009 0.0
C1863 C 0.32713 0.62279 0.76525 0.0
C1864 C 0.29323 0.65285 0.78214 0.0
C1865 C 0.34069 0.64709 0.75293 0.0
C1866 C 0.3307 0.67396 0.75515 0.0
C1867 C 0.29553 0.70346 0.77084 0.0
C1868 C 0.27035 0.70524 0.7837 0.0
C1869 C 0.30681 0.67708 0.76957 0.0
C1870 C 0.25742 0.681 0.79628 0.0
C1871 C 0.26894 0.65526 0.79592 0.0
H1872 H 0.20521 0.6753 0.50196 0.0
H1873 H 0.2465 0.60983 0.54041 0.0
H1874 H 0.20044 0.58145 0.54649 0.0
H1875 H 0.14831 0.5757 0.54193 0.0
H1876 H 0.10646 0.64102 0.50379 0.0
H1877 H 0.15256 0.66894 0.49649 0.0
C1878 C 0.20395 0.6547 0.51144 0.0
C1879 C 0.22906 0.64418 0.51999 0.0
C1880 C 0.17728 0.63857 0.51509 0.0
C1881 C 0.22735 0.61785 0.53287 0.0
C1882 C 0.20104 0.60174 0.53658 0.0
C1883 C 0.14932 0.59608 0.53208 0.0
C1884 C 0.12408 0.60644 0.52364 0.0
C1885 C 0.17586 0.61193 0.52788 0.0
C1886 C 0.12565 0.63272 0.51065 0.0
C1887 C 0.15199 0.64867 0.50644 0.0
H1888 H 0.65075 0.91036 0.75892 0.0
H1889 H 0.68283 0.93729 0.84487 0.0
H1890 H 0.71588 0.9028 0.84382 0.0
H1891 H 0.73944 0.86769 0.8175 0.0
H1892 H 0.70429 0.83604 0.73371 0.0
H1893 H 0.66942 0.86916 0.73494 0.0
C1894 C 0.66436 0.90814 0.77766 0.0
C1895 C 0.66427 0.9271 0.80176 0.0
C1896 C 0.68355 0.88764 0.77719 0.0
C1897 C 0.68239 0.92355 0.82576 0.0
C1898 C 0.7016 0.90379 0.82523 0.0
C1899 C 0.72404 0.86795 0.7996 0.0
C1900 C 0.72514 0.84987 0.77529 0.0
C1901 C 0.70307 0.88631 0.80084 0.0
C1902 C 0.70444 0.85004 0.75255 0.0
C1903 C 0.6843 0.86899 0.75326 0.0
H1904 H 0.71959 0.02536 0.52013 0.0
H1905 H 0.68214 0.93518 0.52182 0.0
H1906 H 0.63554 0.94695 0.50651 0.0
H1907 H 0.60543 0.98273 0.49385 0.0
H1908 H 0.64144 0.07356 0.49628 0.0
H1909 H 0.68908 0.06149 0.50773 0.0
C1910 C 0.70122 0.00828 0.51721 0.0
C1911 C 0.70434 0.97943 0.52218 0.0
C1912 C 0.67446 0.01522 0.50859 0.0
C1913 C 0.6803 0.95759 0.51845 0.0
C1914 C 0.6537 0.96425 0.50943 0.0
C1915 C 0.62376 0.99985 0.49631 0.0
C1916 C 0.62014 0.02895 0.49386 0.0
C1917 C 0.65058 0.99294 0.50441 0.0
C1918 C 0.64392 0.05098 0.49771 0.0
C1919 C 0.67101 0.04411 0.50456 0.0
H1920 H 0.31118 0.46695 0.72302 0.0
H1921 H 0.38337 0.46695 0.78325 0.0
H1922 H 0.36682 0.41593 0.79072 0.0
H1923 H 0.32973 0.37258 0.78295 0.0
H1924 H 0.25902 0.37095 0.72052 0.0
H1925 H 0.27684 0.42125 0.71107 0.0
C1926 C 0.32319 0.45565 0.73773 0.0
C1927 C 0.34775 0.47086 0.75353 0.0
C1928 C 0.31375 0.4261 0.74153 0.0
C1929 C 0.36396 0.45578 0.77151 0.0
C1930 C 0.35453 0.42665 0.77575 0.0
C1931 C 0.31835 0.38322 0.76715 0.0
C1932 C 0.2929 0.3683 0.75273 0.0
C1933 C 0.32908 0.41182 0.76142 0.0
C1934 C 0.27863 0.38206 0.73192 0.0
C1935 C 0.28882 0.4108 0.72653 0.0
H1936 H 0.13326 0.60342 0.30552 0.0
H1937 H 0.18106 0.55118 0.25707 0.0
H1938 H 0.21368 0.59463 0.24824 0.0
H1939 H 0.22952 0.64797 0.25524 0.0
H1940 H 0.18333 0.69942 0.30667 0.0
H1941 H 0.14981 0.6563 0.31362 0.0
C1942 C 0.15075 0.60171 0.29295 0.0
C1943 C 0.15495 0.57423 0.2822 0.0
C1944 C 0.16995 0.62678 0.28858 0.0
C1945 C 0.17763 0.57219 0.26583 0.0
C1946 C 0.1963 0.59702 0.26075 0.0
C1947 C 0.21208 0.64966 0.26788 0.0
C1948 C 0.20892 0.67694 0.28024 0.0
C1949 C 0.19288 0.6245 0.27222 0.0
C1950 C 0.18633 0.67871 0.29684 0.0
C1951 C 0.16698 0.65404 0.30079 0.0
H1952 H 0.55096 0.74547 0.4582 0.0
H1953 H 0.50975 0.69257 0.3847 0.0
H1954 H 0.5076 0.6492 0.41073 0.0
H1955 H 0.51616 0.62632 0.45434 0.0
H1956 H 0.55901 0.67767 0.52784 0.0
H1957 H 0.56176 0.7217 0.5019 0.0
C1958 C 0.54164 0.72442 0.44785 0.0
C1959 C 0.53042 0.72236 0.41947 0.0
C1960 C 0.54063 0.69936 0.463 0.0
C1961 C 0.51858 0.69487 0.40641 0.0
C1962 C 0.51725 0.67002 0.42133 0.0
C1963 C 0.52609 0.64716 0.46478 0.0
C1964 C 0.53712 0.64881 0.49308 0.0
C1965 C 0.52796 0.67205 0.44964 0.0
C1966 C 0.55027 0.67588 0.50613 0.0
C1967 C 0.55182 0.701 0.49127 0.0
H1968 H 0.57694 0.30467 0.72641 0.0
H1969 H 0.58942 0.2455 0.65757 0.0
H1970 H 0.63922 0.24847 0.67507 0.0
H1971 H 0.67879 0.26571 0.71104 0.0
H1972 H 0.66854 0.32734 0.77842 0.0
H1973 H 0.61854 0.3259 0.76037 0.0
C1974 C 0.59065 0.29262 0.71518 0.0
C1975 C 0.57932 0.27469 0.69078 0.0
C1976 C 0.61967 0.29483 0.72514 0.0
C1977 C 0.59748 0.25947 0.67632 0.0
C1978 C 0.626 0.26107 0.68637 0.0
C1979 C 0.66561 0.27896 0.72168 0.0
C1980 C 0.67713 0.29633 0.7462 0.0
C1981 C 0.63723 0.27834 0.71092 0.0
C1982 C 0.66008 0.3138 0.75952 0.0
C1983 C 0.63148 0.31284 0.74925 0.0
H1984 H 0.01393 0.36241 0.94496 0.0
H1985 H 0.03573 0.41782 0.87899 0.0
H1986 H 0.03405 0.46086 0.91021 0.0
H1987 H 0.02375 0.48289 0.95555 0.0
H1988 H 0.99841 0.4273 0.02023 0.0
H1989 H 1.00434 0.38446 0.99049 0.0
C1990 C 0.0187 0.38391 0.93748 0.0
C1991 C 0.02513 0.38671 0.90956 0.0
C1992 C 0.01692 0.40865 0.95539 0.0
C1993 C 0.03075 0.41485 0.90027 0.0
C1994 C 0.02977 0.43955 0.91815 0.0
C1995 C 0.01983 0.46142 0.96324 0.0
C1996 C 0.0107 0.45833 0.99017 0.0
C1997 C 0.0225 0.43674 0.94565 0.0
C1998 C 1.00543 0.4303 0.99965 0.0
C1999 C 0.00879 0.40578 0.9826 0.0
H2000 H 0.93735 0.76467 0.22885 0.0
H2001 H 0.88297 0.75222 0.15106 0.0
H2002 H 0.84178 0.7566 0.17636 0.0
H2003 H 0.82059 0.76547 0.2208 0.0
H2004 H 0.87472 0.77715 0.2985 0.0
H2005 H 0.91589 0.77172 0.27328 0.0
C2006 C 0.91653 0.76284 0.21737 0.0
C2007 C 0.91376 0.75821 0.18785 0.0
C2008 C 0.8925 0.76531 0.23216 0.0
C2009 C 0.88625 0.75585 0.17366 0.0
C2010 C 0.86243 0.75836 0.18817 0.0
C2011 C 0.84129 0.7664 0.23222 0.0
C2012 C 0.8443 0.77153 0.26165 0.0
C2013 C 0.86521 0.76324 0.21745 0.0
C2014 C 0.87157 0.77316 0.27592 0.0
C2015 C 0.89528 0.77009 0.26146 0.0
H2016 H 0.52255 0.38226 0.09056 0.0
H2017 H 0.4738 0.34076 0.01486 0.0
H2018 H 0.48535 0.38475 0.99091 0.0
H2019 H 0.50632 0.43622 0.99214 0.0
H2020 H 0.55139 0.47914 0.06863 0.0
H2021 H 0.54497 0.4335 0.09127 0.0
C2022 C 0.5146 0.38278 0.06879 0.0
C2023 C 0.49716 0.35821 0.05471 0.0
C2024 C 0.52092 0.40844 0.05511 0.0
C2025 C 0.48702 0.35937 0.02644 0.0
C2026 C 0.49372 0.38453 0.01258 0.0
C2027 C 0.51536 0.43535 0.01351 0.0
C2028 C 0.52974 0.46085 0.0286 0.0
C2029 C 0.51034 0.40931 0.02678 0.0
C2030 C 0.54067 0.45966 0.05651 0.0
C2031 C 0.53672 0.43361 0.06955 0.0
H2032 H 0.94341 0.32298 0.41131 0.0
H2033 H 0.96383 0.24309 0.37461 0.0
H2034 H 0.91977 0.23565 0.3434 0.0
H2035 H 0.878 0.25459 0.32313 0.0
H2036 H 0.8614 0.33814 0.35461 0.0
H2037 H 0.90083 0.34151 0.39149 0.0
C2038 C 0.93776 0.30378 0.39679 0.0
C2039 C 0.95656 0.28371 0.39485 0.0
C2040 C 0.91318 0.3005 0.37786 0.0
C2041 C 0.94944 0.25883 0.3761 0.0
C2042 C 0.9244 0.25464 0.35823 0.0
C2043 C 0.88323 0.27349 0.33808 0.0
C2044 C 0.86751 0.29631 0.33615 0.0
C2045 C 0.90662 0.27583 0.35825 0.0
C2046 C 0.87392 0.32067 0.35558 0.0
C2047 C 0.89616 0.32243 0.37677 0.0
H2048 H 0.96776 0.70069 0.60043 0.0
H2049 H 1.00128 0.74423 0.53108 0.0
H2050 H 1.0037 0.69759 0.50642 0.0
H2051 H 1.0021 0.64464 0.50731 0.0
H2052 H 0.96456 0.6004 0.57419 0.0
H2053 H 0.95751 0.64682 0.59692 0.0
C2054 C 0.97497 0.69982 0.57967 0.0
C2055 C 0.98463 0.72576 0.56773 0.0
C2056 C 0.97576 0.67281 0.56524 0.0
C2057 C 0.99368 0.7245 0.5407 0.0
C2058 C 0.99526 0.69784 0.52661 0.0
C2059 C 0.99164 0.64524 0.52642 0.0
C2060 C 0.98392 0.61944 0.5392 0.0
C2061 C 0.98718 0.67191 0.53904 0.0
C2062 C 0.97043 0.62017 0.56396 0.0
C2063 C 0.96663 0.64669 0.57707 0.0
H2064 H 0.56531 0.76376 0.8316 0.0
H2065 H 0.62089 0.78245 0.90842 0.0
H2066 H 0.66137 0.77369 0.88287 0.0
H2067 H 0.68106 0.76576 0.83795 0.0
H2068 H 0.62502 0.74616 0.76153 0.0
H2069 H 0.58394 0.74973 0.78797 0.0
C2070 C 0.58618 0.76558 0.84291 0.0
C2071 C 0.59027 0.77421 0.87178 0.0
C2072 C 0.60902 0.76042 0.82817 0.0
C2073 C 0.61734 0.776 0.88619 0.0
C2074 C 0.6404 0.7711 0.87157 0.0
C2075 C 0.65976 0.7619 0.82717 0.0
C2076 C 0.65582 0.75615 0.79788 0.0
C2077 C 0.63652 0.76407 0.84246 0.0
C2078 C 0.62834 0.75067 0.78407 0.0
C2079 C 0.605 0.75289 0.79914 0.0
H2080 H 0.44736 0.58834 0.69437 0.0
H2081 H 0.3729 0.53339 0.65221 0.0
H2082 H 0.39789 0.52704 0.61084 0.0
H2083 H 0.44178 0.53395 0.58759 0.0
H2084 H 0.51585 0.59071 0.62751 0.0
H2085 H 0.49025 0.5996 0.66862 0.0
C2086 C 0.43648 0.57533 0.67598 0.0
C2087 C 0.40823 0.56119 0.67664 0.0
C2088 C 0.45104 0.57182 0.65192 0.0
C2089 C 0.39452 0.54454 0.65248 0.0
C2090 C 0.40888 0.54074 0.62876 0.0
C2091 C 0.45229 0.54836 0.60529 0.0
C2092 C 0.48082 0.56125 0.60478 0.0
C2093 C 0.43728 0.55372 0.62846 0.0
C2094 C 0.49397 0.58041 0.6275 0.0
C2095 C 0.47932 0.58541 0.65101 0.0
H2096 H 0.7849 0.1872 0.90385 0.0
H2097 H 0.81463 0.2591 0.96557 0.0
H2098 H 0.8065 0.2934 0.9302 0.0
H2099 H 0.78955 0.30329 0.88146 0.0
H2100 H 0.75979 0.23081 0.82086 0.0
H2101 H 0.76878 0.19686 0.85579 0.0
C2102 C 0.78987 0.21036 0.90976 0.0
C2103 C 0.8006 0.2202 0.93778 0.0
C2104 C 0.78463 0.2301 0.88933 0.0
C2105 C 0.80654 0.25053 0.94445 0.0
C2106 C 0.80175 0.27028 0.92412 0.0
C2107 C 0.7849 0.28005 0.87591 0.0
C2108 C 0.77312 0.2698 0.84828 0.0
C2109 C 0.79053 0.26038 0.89648 0.0
C2110 C 0.76773 0.23954 0.84178 0.0
C2111 C 0.77332 0.22001 0.86186 0.0
H2112 H 0.11348 0.50178 0.1821 0.0
H2113 H 0.03338 0.47946 0.21619 0.0
H2114 H 0.00788 0.48607 0.1712 0.0
H2115 H 0.00812 0.50018 0.12168 0.0
H2116 H 0.08917 0.52069 0.08844 0.0
H2117 H 0.11377 0.51294 0.13283 0.0
C2118 C 0.09043 0.49798 0.17967 0.0
C2119 C 0.07559 0.49002 0.20282 0.0
C2120 C 0.07574 0.50178 0.15355 0.0
C2121 C 0.04561 0.4854 0.19893 0.0
C2122 C 0.0309 0.48936 0.1731 0.0
C2123 C 0.03112 0.50285 0.12412 0.0
C2124 C 0.04643 0.51105 0.10119 0.0
C2125 C 0.04568 0.49791 0.15018 0.0
C2126 C 0.07639 0.51423 0.10518 0.0
C2127 C 0.09074 0.50985 0.13081 0.0
H2128 H 0.78102 0.8756 0.4778 0.0
H2129 H 0.77381 0.95292 0.43445 0.0
H2130 H 0.77291 0.9251 0.38949 0.0
H2131 H 0.77437 0.87903 0.36279 0.0
H2132 H 0.7835 0.8022 0.40605 0.0
H2133 H 0.7834 0.82976 0.45114 0.0
C2134 C 0.77902 0.88635 0.45852 0.0
C2135 C 0.77724 0.9162 0.45938 0.0
C2136 C 0.77893 0.87038 0.4329 0.0
C2137 C 0.77518 0.92994 0.43428 0.0
C2138 C 0.77464 0.91407 0.40861 0.0
C2139 C 0.77628 0.86834 0.38212 0.0
C2140 C 0.77882 0.83874 0.38136 0.0
C2141 C 0.77655 0.88433 0.40774 0.0
C2142 C 0.78153 0.82505 0.40636 0.0
C2143 C 0.78143 0.84075 0.43202 0.0
H2144 H 0.37028 0.5258 0.85842 0.0
H2145 H 0.43267 0.58329 0.82015 0.0
H2146 H 0.46619 0.58518 0.86196 0.0
H2147 H 0.47855 0.56857 0.90875 0.0
H2148 H 0.41727 0.50735 0.94425 0.0
H2149 H 0.38264 0.50865 0.90413 0.0
C2150 C 0.39115 0.53879 0.8591 0.0
C2151 C 0.39889 0.55424 0.83599 0.0
C2152 C 0.41063 0.53896 0.88274 0.0
C2153 C 0.42612 0.57105 0.83753 0.0
C2154 C 0.44534 0.57212 0.86143 0.0
C2155 C 0.45757 0.55562 0.90764 0.0
C2156 C 0.45038 0.538 0.92945 0.0
C2157 C 0.43797 0.55583 0.88403 0.0
C2158 C 0.42325 0.52115 0.92776 0.0
C2159 C 0.40343 0.52187 0.90481 0.0
H2160 H 0.83212 0.25636 0.10209 0.0
H2161 H 0.78583 0.17068 0.10988 0.0
H2162 H 0.77303 0.18653 0.15551 0.0
H2163 H 0.77257 0.22506 0.19291 0.0
H2164 H 0.82166 0.30975 0.18855 0.0
H2165 H 0.83566 0.29417 0.14256 0.0
C2166 C 0.81957 0.24104 0.11392 0.0
C2167 C 0.81 0.21217 0.10203 0.0
C2168 C 0.81246 0.25027 0.14095 0.0
C2169 C 0.79374 0.19288 0.11807 0.0
C2170 C 0.78618 0.202 0.14433 0.0
C2171 C 0.78644 0.24011 0.18194 0.0
C2172 C 0.79572 0.26872 0.19413 0.0
C2173 C 0.79502 0.23069 0.15586 0.0
C2174 C 0.81409 0.28769 0.17974 0.0
C2175 C 0.82205 0.27873 0.15334 0.0
H2176 H 0.11529 0.53332 0.39519 0.0
H2177 H 0.05214 0.47333 0.34219 0.0
H2178 H 0.01902 0.47425 0.37812 0.0
H2179 H 1.00713 0.49306 0.42448 0.0
H2180 H 0.06879 0.5562 0.47546 0.0
H2181 H 0.10289 0.55335 0.4407 0.0
C2182 C 0.0943 0.52041 0.39136 0.0
C2183 C 0.0865 0.50323 0.36563 0.0
C2184 C 0.07482 0.52183 0.41188 0.0
C2185 C 0.05898 0.48682 0.36148 0.0
C2186 C 0.03991 0.48736 0.38213 0.0
C2187 C 0.02799 0.50631 0.42794 0.0
C2188 C 0.0352 0.52497 0.45279 0.0
C2189 C 0.04743 0.50499 0.40735 0.0
C2190 C 0.06243 0.54188 0.45668 0.0
C2191 C 0.08205 0.54013 0.43673 0.0
H2192 H 0.73225 0.84843 0.58511 0.0
H2193 H 0.75022 0.9278 0.63933 0.0
H2194 H 0.74293 0.89995 0.68006 0.0
H2195 H 0.73879 0.8532 0.70057 0.0
H2196 H 0.72377 0.77331 0.64771 0.0
H2197 H 0.72213 0.80112 0.60587 0.0
C2198 C 0.73401 0.85966 0.60579 0.0
C2199 C 0.74214 0.89014 0.60925 0.0
C2200 C 0.73046 0.84338 0.62926 0.0
C2201 C 0.74429 0.90438 0.63614 0.0
C2202 C 0.74015 0.88847 0.65944 0.0
C2203 C 0.73415 0.8419 0.67986 0.0
C2204 C 0.73108 0.81141 0.67697 0.0
C2205 C 0.73424 0.85799 0.65629 0.0
C2206 C 0.72573 0.7968 0.65023 0.0
C2207 C 0.72514 0.81273 0.62643 0.0
H2208 H 0.6489 0.43625 0.56301 0.0
H2209 H 0.66321 0.45292 0.47756 0.0
H2210 H 0.62917 0.48617 0.47658 0.0
H2211 H 0.59862 0.51499 0.5007 0.0
H2212 H 0.57679 0.49491 0.58289 0.0
H2213 H 0.61004 0.45937 0.58448 0.0
C2214 C 0.64405 0.44649 0.54394 0.0
C2215 C 0.65968 0.44205 0.52059 0.0
C2216 C 0.62327 0.46575 0.54303 0.0
C2217 C 0.65248 0.45591 0.4962 0.0
C2218 C 0.63284 0.47524 0.49551 0.0
C2219 C 0.60055 0.50242 0.51876 0.0
C2220 C 0.58509 0.50792 0.54164 0.0
C2221 C 0.61872 0.48107 0.51898 0.0
C2222 C 0.58825 0.49128 0.56488 0.0
C2223 C 0.60742 0.47089 0.56579 0.0
H2224 H 0.18038 0.15649 0.4678 0.0
H2225 H 0.22275 0.10295 0.52214 0.0
H2226 H 0.17731 0.0764 0.53181 0.0
H2227 H 0.12607 0.06817 0.52508 0.0
H2228 H 0.08177 0.12033 0.47084 0.0
H2229 H 0.12736 0.1472 0.46026 0.0
C2230 C 0.1794 0.13902 0.48171 0.0
C2231 C 0.20463 0.13123 0.49391 0.0
C2232 C 0.15301 0.12348 0.48699 0.0
C2233 C 0.20345 0.10886 0.51218 0.0
C2234 C 0.17754 0.09371 0.51776 0.0
C2235 C 0.12626 0.08543 0.51094 0.0
C2236 C 0.10064 0.09234 0.49888 0.0
C2237 C 0.15226 0.10075 0.50522 0.0
C2238 C 0.10131 0.11451 0.48031 0.0
C2239 C 0.12734 0.13001 0.47442 0.0
H2240 H 0.17681 0.92461 0.78943 0.0
H2241 H 0.25433 0.97965 0.82483 0.0
H2242 H 0.28176 0.94206 0.81253 0.0
H2243 H 0.28445 0.89271 0.79313 0.0
H2244 H 0.20696 0.83483 0.76422 0.0
H2245 H 0.17937 0.87391 0.77196 0.0
C2246 C 0.19967 0.92837 0.79448 0.0
C2247 C 0.21321 0.9553 0.80791 0.0
C2248 C 0.21565 0.90604 0.78809 0.0
C2249 C 0.24298 0.95941 0.81445 0.0
C2250 C 0.25892 0.93783 0.80735 0.0
C2251 C 0.2616 0.88883 0.78793 0.0
C2252 C 0.24802 0.86104 0.77694 0.0
C2253 C 0.24557 0.91103 0.79418 0.0
C2254 C 0.2182 0.85618 0.77152 0.0
C2255 C 0.20228 0.87852 0.77639 0.0
H2256 H 0.30722 0.95819 0.05386 0.0
H2257 H 0.31483 0.88471 0.99784 0.0
H2258 H 0.36403 0.90581 0.9922 0.0
H2259 H 0.40448 0.94628 1.00196 0.0
H2260 H 0.39628 0.02019 0.05741 0.0
H2261 H 0.34802 0.99795 0.06465 0.0
C2262 C 0.31966 0.94699 0.04026 0.0
C2263 C 0.30718 0.92046 0.02547 0.0
C2264 C 0.34791 0.95933 0.03713 0.0
C2265 C 0.32384 0.90547 0.00891 0.0
C2266 C 0.35194 0.91756 1.00569 0.0
C2267 C 0.39209 0.95749 0.01561 0.0
C2268 C 0.40393 0.98494 0.02902 0.0
C2269 C 0.36412 0.94467 0.01942 0.0
C2270 C 0.38764 0.99914 0.04672 0.0
C2271 C 0.36005 0.98637 0.05095 0.0
H2272 H 0.84252 0.64454 0.79767 0.0
H2273 H 0.8826 0.65556 0.72136 0.0
H2274 H 0.85451 0.69428 0.71032 0.0
H2275 H 0.81386 0.72124 0.72024 0.0
H2276 H 0.77163 0.70354 0.79439 0.0
H2277 H 0.80494 0.67137 0.80823 0.0
C2278 C 0.84552 0.6555 0.77865 0.0
C2279 C 0.86473 0.64676 0.76034 0.0
C2280 C 0.82843 0.67654 0.7719 0.0
C2281 C 0.86827 0.66176 0.73604 0.0
C2282 C 0.85187 0.68373 0.72958 0.0
C2283 C 0.81237 0.71064 0.7396 0.0
C2284 C 0.7904 0.71519 0.75653 0.0
C2285 C 0.83118 0.69078 0.74697 0.0
C2286 C 0.78838 0.70073 0.78118 0.0
C2287 C 0.80742 0.6822 0.78908 0.0
H2288 H 0.83636 0.61927 0.02732 0.0
H2289 H 0.83379 0.59275 0.93933 0.0
H2290 H 0.87077 0.56326 0.94941 0.0
H2291 H 0.90258 0.54362 0.98309 0.0
H2292 H 0.90689 0.57045 0.07094 0.0
H2293 H 0.86987 0.60068 0.06122 0.0
C2294 C 0.84431 0.6075 0.01033 0.0
C2295 C 0.83238 0.60828 0.9826 0.0
C2296 C 0.86526 0.59003 0.01634 0.0
C2297 C 0.84262 0.59253 0.96085 0.0
C2298 C 0.8636 0.57546 0.9666 0.0
C2299 C 0.89502 0.55567 1.00018 0.0
C2300 C 0.90688 0.55448 0.02776 0.0
C2301 C 0.87462 0.57358 0.99428 0.0
C2302 C 0.89762 0.57084 0.04961 0.0
C2303 C 0.87673 0.58827 0.044 0.0
H2304 H 0.16253 0.12052 0.83237 0.0
H2305 H 0.20594 0.07641 0.77212 0.0
H2306 H 0.23118 0.12287 0.76024 0.0
H2307 H 0.24139 0.17612 0.76718 0.0
H2308 H 0.20233 0.2206 0.83084 0.0
H2309 H 0.1754 0.17423 0.84161 0.0
C2310 C 0.17751 0.12128 0.81667 0.0
C2311 C 0.18258 0.09525 0.80322 0.0
C2312 C 0.19285 0.14815 0.81069 0.0
C2313 C 0.20196 0.09629 0.78286 0.0
C2314 C 0.21639 0.12282 0.77607 0.0
C2315 C 0.227 0.17561 0.78343 0.0
C2316 C 0.2237 0.20167 0.79807 0.0
C2317 C 0.21214 0.14887 0.78992 0.0
C2318 C 0.20531 0.20073 0.81936 0.0
C2319 C 0.18974 0.17426 0.82538 0.0
H2320 H 0.39494 0.98244 0.29717 0.0
H2321 H 0.33753 0.00553 0.23126 0.0
H2322 H 0.30425 0.96086 0.23505 0.0
H2323 H 0.29018 0.91668 0.25914 0.0
H2324 H 0.34579 0.89545 0.32769 0.0
H2325 H 0.3807 0.93809 0.32144 0.0
C2326 C 0.37523 0.9774 0.28355 0.0
C2327 C 0.36827 0.99723 0.26434 0.0
C2328 C 0.3557 0.95226 0.28667 0.0
C2329 C 0.34293 0.99061 0.24652 0.0
C2330 C 0.32393 0.96515 0.2487 0.0
C2331 C 0.30985 0.92157 0.27283 0.0
C2332 C 0.31529 0.90319 0.29402 0.0
C2333 C 0.32976 0.94618 0.26918 0.0
C2334 C 0.34095 0.90956 0.31148 0.0
C2335 C 0.36107 0.93374 0.30771 0.0
H2336 H 0.46071 0.32175 0.58137 0.0
H2337 H 0.51539 0.35393 0.65671 0.0
H2338 H 0.52464 0.40205 0.6386 0.0
H2339 H 0.51731 0.43493 0.60109 0.0
H2340 H 0.46334 0.40181 0.52571 0.0
H2341 H 0.45382 0.35397 0.54414 0.0
C2342 C 0.47454 0.33924 0.59406 0.0
C2343 C 0.48716 0.33411 0.62056 0.0
C2344 C 0.48001 0.36668 0.58339 0.0
C2345 C 0.50528 0.35716 0.63634 0.0
C2346 C 0.51062 0.3847 0.62595 0.0
C2347 C 0.5035 0.41719 0.58871 0.0
C2348 C 0.491 0.42186 0.56206 0.0
C2349 C 0.49816 0.38968 0.59947 0.0
C2350 C 0.47322 0.39873 0.54623 0.0
C2351 C 0.46773 0.37141 0.55679 0.0
H2352 H 0.43672 0.82004 0.36151 0.0
H2353 H 0.46299 0.75265 0.30948 0.0
H2354 H 0.41579 0.74299 0.28291 0.0
H2355 H 0.36618 0.75418 0.27433 0.0
H2356 H 0.34265 0.82452 0.32514 0.0
H2357 H 0.38904 0.83261 0.35179 0.0
C2358 C 0.43209 0.80336 0.34424 0.0
C2359 C 0.45344 0.78748 0.33714 0.0
C2360 C 0.40513 0.79842 0.32869 0.0
C2361 C 0.44705 0.7656 0.31497 0.0
C2362 C 0.41998 0.75998 0.29987 0.0
C2363 C 0.3713 0.77121 0.29122 0.0
C2364 C 0.35078 0.78877 0.29753 0.0
C2365 C 0.39871 0.77632 0.30643 0.0
C2366 C 0.35797 0.81088 0.31948 0.0
C2367 C 0.38455 0.81548 0.33495 0.0
H2368 H 0.98038 0.65558 0.14232 0.0
H2369 H 0.03441 0.72472 0.10857 0.0
H2370 H 0.05088 0.68967 0.07656 0.0
H2371 H 0.04932 0.63922 0.05705 0.0
H2372 H 0.99326 0.57016 0.08837 0.0
H2373 H 0.97792 0.6048 0.12166 0.0
C2374 C 0.99585 0.6628 0.12804 0.0
C2375 C 1.00603 0.6927 0.12769 0.0
C2376 C 1.00469 0.64245 0.10892 0.0
C2377 C 0.02608 0.70182 0.10906 0.0
C2378 C 0.03553 0.68179 0.09072 0.0
C2379 C 0.03374 0.63183 0.07119 0.0
C2380 C 0.02217 0.60215 0.06987 0.0
C2381 C 0.02484 0.65205 0.09024 0.0
C2382 C 1.002 0.59289 0.08833 0.0
C2383 C 0.99344 0.61273 0.1077 0.0
H2384 H 0.11944 0.29957 0.86186 0.0
H2385 H 0.07707 0.33427 0.79124 0.0
H2386 H 0.11701 0.3312 0.76482 0.0
H2387 H 0.16312 0.31665 0.75949 0.0
H2388 H 0.20903 0.28542 0.8293 0.0
H2389 H 0.16934 0.28938 0.85782 0.0
C2390 C 0.11905 0.30669 0.84082 0.0
C2391 C 0.09456 0.31685 0.82889 0.0
C2392 C 0.14296 0.30548 0.82524 0.0
C2393 C 0.09504 0.32616 0.80147 0.0
C2394 C 0.11808 0.32443 0.786 0.0
C2395 C 0.16461 0.31103 0.78108 0.0
C2396 C 0.18901 0.3007 0.79213 0.0
C2397 C 0.14196 0.31382 0.79741 0.0
C2398 C 0.1906 0.29365 0.82023 0.0
C2399 C 0.16774 0.29575 0.83652 0.0
H2400 H 0.50097 0.685 0.95143 0.0
H2401 H 0.58133 0.73156 0.98981 0.0
H2402 H 0.58824 0.69034 0.0172 0.0
H2403 H 0.57061 0.64176 0.03158 0.0
H2404 H 0.48826 0.59702 0.99667 0.0
H2405 H 0.4829 0.63657 0.96651 0.0
C2406 C 0.52009 0.6859 0.96559 0.0
C2407 C 0.54068 0.71112 0.96855 0.0
C2408 C 0.52347 0.66249 0.98197 0.0
C2409 C 0.56518 0.71232 0.98726 0.0
C2410 C 0.56912 0.6888 1.00294 0.0
C2411 C 0.55151 0.64074 0.01736 0.0
C2412 C 0.53005 0.61638 0.01594 0.0
C2413 C 0.54825 0.66394 1.00074 0.0
C2414 C 0.50533 0.61531 0.99761 0.0
C2415 C 0.50218 0.638 0.98052 0.0
H2416 H 0.11025 0.81688 0.62821 0.0
H2417 H 0.04584 0.76745 0.67087 0.0
H2418 H 0.08203 0.75513 0.7051 0.0
H2419 H 0.1317 0.76183 0.7252 0.0
H2420 H 0.19606 0.81385 0.68441 0.0
H2421 H 0.16044 0.82205 0.64748 0.0
C2422 C 0.10439 0.80313 0.64483 0.0
C2423 C 0.07571 0.79344 0.64753 0.0
C2424 C 0.12527 0.79689 0.66496 0.0
C2425 C 0.06801 0.77545 0.66887 0.0
C2426 C 0.08861 0.76842 0.6884 0.0
C2427 C 0.13785 0.77479 0.70812 0.0
C2428 C 0.16627 0.78729 0.7075 0.0
C2429 C 0.11725 0.77966 0.68711 0.0
C2430 C 0.17415 0.80409 0.68533 0.0
C2431 C 0.15386 0.80869 0.66413 0.0
H2432 H 0.03448 0.35986 0.48055 0.0
H2433 H 0.06777 0.40151 0.41001 0.0
H2434 H 0.07191 0.44917 0.43591 0.0
H2435 H 0.06172 0.47889 0.47676 0.0
H2436 H 0.02236 0.43705 0.54416 0.0
H2437 H 0.02565 0.38929 0.52163 0.0
C2438 C 0.0432 0.37926 0.47095 0.0
C2439 C 0.05097 0.37706 0.44338 0.0
C2440 C 0.04442 0.4065 0.48548 0.0
C2441 C 0.0617 0.40256 0.43118 0.0
C2442 C 0.06403 0.42979 0.44598 0.0
C2443 C 0.05437 0.45932 0.48677 0.0
C2444 C 0.04196 0.46139 0.51218 0.0
C2445 C 0.05486 0.43203 0.4729 0.0
C2446 C 0.03211 0.43591 0.5247 0.0
C2447 C 0.03385 0.40867 0.51174 0.0
H2448 H 0.44997 0.32156 0.17316 0.0
H2449 H 0.38148 0.28887 0.10887 0.0
H2450 H 0.34693 0.29419 0.14232 0.0
H2451 H 0.33624 0.30412 0.19012 0.0
H2452 H 0.40347 0.33675 0.25522 0.0
H2453 H 0.43871 0.33564 0.22091 0.0
C2454 C 0.42748 0.31584 0.16635 0.0
C2455 C 0.41841 0.30448 0.13849 0.0
C2456 C 0.40762 0.31875 0.18581 0.0
C2457 C 0.38915 0.29753 0.13007 0.0
C2458 C 0.36934 0.30046 0.14923 0.0
C2459 C 0.35863 0.31116 0.19685 0.0
C2460 C 0.36744 0.3201 0.22516 0.0
C2461 C 0.37839 0.31039 0.17719 0.0
C2462 C 0.39633 0.32971 0.23352 0.0
C2463 C 0.41636 0.32894 0.21393 0.0
H2464 H 0.61401 0.48092 0.38904 0.0
H2465 H 0.64316 0.57343 0.39505 0.0
H2466 H 0.6096 0.58091 0.42892 0.0
H2467 H 0.57207 0.5618 0.45664 0.0
H2468 H 0.54322 0.46928 0.45394 0.0
H2469 H 0.57615 0.46117 0.41886 0.0
C2470 C 0.61313 0.50261 0.3981 0.0
C2471 C 0.6317 0.52657 0.39011 0.0
C2472 C 0.59352 0.50679 0.41784 0.0
C2473 C 0.63003 0.55458 0.40161 0.0
C2474 C 0.61047 0.55891 0.42071 0.0
C2475 C 0.57252 0.53977 0.44822 0.0
C2476 C 0.55461 0.51623 0.45769 0.0
C2477 C 0.59209 0.53525 0.4289 0.0
C2478 C 0.55633 0.48789 0.44682 0.0
C2479 C 0.57535 0.48324 0.42687 0.0
H2480 H 0.25667 0.88631 0.13696 0.0
H2481 H 0.20919 0.81039 0.08889 0.0
H2482 H 0.21668 0.78095 0.12814 0.0
H2483 H 0.23756 0.77564 0.17621 0.0
H2484 H 0.28359 0.85113 0.22546 0.0
H2485 H 0.27589 0.88132 0.18637 0.0
C2486 C 0.2477 0.8634 0.13512 0.0
C2487 C 0.23227 0.85089 0.10952 0.0
C2488 C 0.25201 0.8462 0.15823 0.0
C2489 C 0.22105 0.82098 0.10797 0.0
C2490 C 0.22543 0.80391 0.13055 0.0
C2491 C 0.24601 0.79869 0.17838 0.0
C2492 C 0.26123 0.81096 0.20402 0.0
C2493 C 0.2411 0.8161 0.15573 0.0
C2494 C 0.27157 0.84102 0.20632 0.0
C2495 C 0.26725 0.85834 0.18377 0.0
H2496 H 0.97084 0.56717 0.83783 0.0
H2497 H 0.8994 0.5999 0.86989 0.0
H2498 H 0.91854 0.59527 0.9176 0.0
H2499 H 0.95343 0.57825 0.95083 0.0
H2500 H 0.02632 0.54756 0.92006 0.0
H2501 H 0.009 0.55515 0.87207 0.0
C2502 C 0.95988 0.57406 0.85525 0.0
C2503 C 0.93348 0.58378 0.84982 0.0
C2504 C 0.97109 0.57128 0.88324 0.0
C2505 C 0.9196 0.59219 0.87303 0.0
C2506 C 0.93048 0.58943 0.90055 0.0
C2507 C 0.96571 0.57346 0.93369 0.0
C2508 C 0.99116 0.56216 0.93933 0.0
C2509 C 0.95582 0.57831 0.90597 0.0
C2510 C 1.00674 0.55636 0.91662 0.0
C2511 C 0.99677 0.56064 0.889 0.0
H2512 H 0.2499 0.16696 0.58461 0.0
H2513 H 0.32696 0.22575 0.57601 0.0
H2514 H 0.32116 0.25366 0.61951 0.0
H2515 H 0.29266 0.26253 0.65859 0.0
H2516 H 0.21423 0.20497 0.66512 0.0
H2517 H 0.22175 0.1756 0.62336 0.0
C2518 C 0.26572 0.18558 0.59252 0.0
C2519 C 0.28898 0.19418 0.57738 0.0
C2520 C 0.2616 0.20207 0.61674 0.0
C2521 C 0.30898 0.21868 0.58749 0.0
C2522 C 0.30554 0.23472 0.61219 0.0
C2523 C 0.27714 0.24369 0.65067 0.0
C2524 C 0.2528 0.236 0.66464 0.0
C2525 C 0.28162 0.22693 0.62667 0.0
C2526 C 0.23297 0.21142 0.65448 0.0
C2527 C 0.23736 0.19453 0.63076 0.0
H2528 H 0.65361 0.51494 0.209 0.0
H2529 H 0.57458 0.50185 0.24682 0.0
H2530 H 0.54872 0.51042 0.2029 0.0
H2531 H 0.54888 0.52484 0.1545 0.0
H2532 H 0.62718 0.53472 0.11561 0.0
H2533 H 0.6531 0.52456 0.1592 0.0
C2534 C 0.63068 0.51352 0.20748 0.0
C2535 C 0.61609 0.50797 0.23119 0.0
C2536 C 0.61589 0.51843 0.18211 0.0
C2537 C 0.58635 0.50603 0.22887 0.0
C2538 C 0.57153 0.51117 0.20382 0.0
C2539 C 0.57163 0.52482 0.15571 0.0
C2540 C 0.58632 0.53103 0.13227 0.0
C2541 C 0.58616 0.51804 0.1805 0.0
C2542 C 0.6156 0.53026 0.13364 0.0
C2543 C 0.63037 0.52438 0.15848 0.0
H2544 H 0.23822 0.83286 0.9614 0.0
H2545 H 0.19003 0.89447 0.92519 0.0
H2546 H 0.18953 0.86983 0.87863 0.0
H2547 H 0.20675 0.83337 0.84699 0.0
H2548 H 0.25862 0.77472 0.883 0.0
H2549 H 0.25352 0.79507 0.93009 0.0
C2550 C 0.22691 0.84042 0.94346 0.0
C2551 C 0.21371 0.86537 0.94722 0.0
C2552 C 0.22762 0.82666 0.91629 0.0
C2553 C 0.20007 0.87523 0.92328 0.0
C2554 C 0.19992 0.86118 0.89646 0.0
C2555 C 0.21628 0.8245 0.86518 0.0
C2556 C 0.23266 0.802 0.8612 0.0
C2557 C 0.21412 0.83719 0.89251 0.0
C2558 C 0.24562 0.79167 0.88521 0.0
C2559 C 0.24283 0.80346 0.91228 0.0
H2560 H 0.98824 0.56955 0.70248 0.0
H2561 H 0.90542 0.56772 0.65856 0.0
H2562 H 0.92416 0.55706 0.61394 0.0
H2563 H 0.9642 0.54739 0.58682 0.0
H2564 H 0.04648 0.54721 0.6312 0.0
H2565 H 0.02791 0.55886 0.67556 0.0
C2566 C 0.97433 0.56716 0.68314 0.0
C2567 C 0.94538 0.5699 0.68415 0.0
C2568 C 0.98516 0.56017 0.65735 0.0
C2569 C 0.92775 0.56603 0.65867 0.0
C2570 C 0.93848 0.55976 0.63302 0.0
C2571 C 0.97805 0.54975 0.60621 0.0
C2572 C 1.00689 0.5464 0.60534 0.0
C2573 C 0.96713 0.55654 0.63201 0.0
C2574 C 0.02429 0.54953 0.63092 0.0
C2575 C 0.01367 0.55638 0.65645 0.0
H2576 H 0.29401 0.22706 0.44424 0.0
H2577 H 0.28873 0.15215 0.38521 0.0
H2578 H 0.29222 0.18376 0.34682 0.0
H2579 H 0.29163 0.23175 0.32945 0.0
H2580 H 0.29492 0.3069 0.38704 0.0
H2581 H 0.29732 0.27617 0.42677 0.0
C2582 C 0.2941 0.21766 0.42305 0.0
C2583 C 0.29093 0.18715 0.41769 0.0
C2584 C 0.29558 0.236 0.40086 0.0
C2585 C 0.29094 0.17544 0.39002 0.0
C2586 C 0.2929 0.19351 0.36799 0.0
C2587 C 0.29387 0.2415 0.35078 0.0
C2588 C 0.29387 0.27148 0.35557 0.0
C2589 C 0.29458 0.22367 0.37312 0.0
C2590 C 0.29549 0.28389 0.38308 0.0
C2591 C 0.29664 0.26628 0.40566 0.0
H2592 H 0.35878 0.5976 0.47994 0.0
H2593 H 0.39715 0.6621 0.54609 0.0
H2594 H 0.4386 0.63674 0.55171 0.0
H2595 H 0.46302 0.59376 0.5394 0.0
H2596 H 0.42087 0.52856 0.47556 0.0
H2597 H 0.38236 0.55666 0.46749 0.0
C2598 C 0.37618 0.60661 0.49554 0.0
C2599 C 0.37436 0.63223 0.51245 0.0
C2600 C 0.39961 0.59149 0.49909 0.0
C2601 C 0.39755 0.64275 0.53255 0.0
C2602 C 0.42137 0.62807 0.53583 0.0
C2603 C 0.44567 0.58604 0.52337 0.0
C2604 C 0.44529 0.55903 0.50771 0.0
C2605 C 0.4226 0.60212 0.51942 0.0
C2606 C 0.42207 0.54919 0.48766 0.0
C2607 C 0.39986 0.56527 0.48311 0.0
H2608 H 0.85429 0.99008 0.58394 0.0
H2609 H 0.85168 0.92111 0.51938 0.0
H2610 H 0.90177 0.93721 0.51341 0.0
H2611 H 0.94377 0.97533 0.52178 0.0
H2612 H 0.9475 0.04351 0.58732 0.0
H2613 H 0.89956 0.02332 0.5981 0.0
C2614 C 0.86493 0.9786 0.56879 0.0
C2615 C 0.84943 0.95547 0.55112 0.0
C2616 C 0.89374 0.98784 0.56571 0.0
C2617 C 0.86333 0.93962 0.53247 0.0
C2618 C 0.89187 0.94874 0.52913 0.0
C2619 C 0.93415 0.98536 0.53871 0.0
C2620 C 0.94847 0.01103 0.55341 0.0
C2621 C 0.90689 0.97354 0.54481 0.0
C2622 C 0.93645 0.02376 0.5757 0.0
C2623 C 0.90915 0.01226 0.58181 0.0
H2624 H 0.78592 0.10643 0.27966 0.0
H2625 H 0.85719 0.14555 0.23833 0.0
H2626 H 0.84086 0.1928 0.24343 0.0
H2627 H 0.80614 0.22306 0.25966 0.0
H2628 H 0.7348 0.18308 0.3002 0.0
H2629 H 0.75174 0.13621 0.29579 0.0
C2630 C 0.79806 0.12516 0.27164 0.0
C2631 C 0.82294 0.12208 0.25853 0.0
C2632 C 0.78862 0.15227 0.2748 0.0
C2633 C 0.83802 0.14695 0.24839 0.0
C2634 C 0.8287 0.17408 0.25143 0.0
C2635 C 0.79442 0.20415 0.26778 0.0
C2636 C 0.76919 0.20671 0.28045 0.0
C2637 C 0.80408 0.17704 0.26469 0.0
C2638 C 0.75423 0.18185 0.29054 0.0
C2639 C 0.76389 0.15499 0.28788 0.0
H2640 H 0.70758 0.17362 0.99401 0.0
H2641 H 0.75179 0.11016 0.03227 0.0
H2642 H 0.70654 0.0799 0.03823 0.0
H2643 H 0.65388 0.0722 0.03398 0.0
H2644 H 0.60994 0.13605 0.99573 0.0
H2645 H 0.65514 0.16513 0.98827 0.0
C2646 C 0.70718 0.15303 1.00341 0.0
C2647 C 0.7329 0.14373 0.012 0.0
C2648 C 0.68101 0.13582 1.00693 0.0
C2649 C 0.7322 0.11733 0.02472 0.0
C2650 C 0.70632 0.10014 0.02835 0.0
C2651 C 0.65427 0.09245 0.024 0.0
C2652 C 0.62855 0.10202 0.01566 0.0
C2653 C 0.68051 0.10921 0.0197 0.0
C2654 C 0.62941 0.12822 1.00253 0.0
C2655 C 0.65529 0.14493 0.99823 0.0
H2656 H 0.19197 0.43864 0.33277 0.0
H2657 H 0.13775 0.41002 0.25648 0.0
H2658 H 0.16549 0.3707 0.24772 0.0
H2659 H 0.20889 0.34744 0.25948 0.0
H2660 H 0.26419 0.38044 0.33395 0.0
H2661 H 0.23246 0.41471 0.34555 0.0
C2662 C 0.18571 0.42367 0.31431 0.0
C2663 C 0.16246 0.42772 0.29535 0.0
C2664 C 0.20235 0.40177 0.30895 0.0
C2665 C 0.15519 0.40767 0.27167 0.0
C2666 C 0.17131 0.38521 0.26652 0.0
C2667 C 0.21353 0.36167 0.27858 0.0
C2668 C 0.23882 0.36096 0.29613 0.0
C2669 C 0.19543 0.3824 0.28468 0.0
C2670 C 0.24487 0.38022 0.3203 0.0
C2671 C 0.22673 0.39997 0.32688 0.0
H2672 H 0.22428 0.5152 0.0191 0.0
H2673 H 0.18659 0.42954 0.03899 0.0
H2674 H 0.13936 0.44103 0.02642 0.0
H2675 H 0.10894 0.47538 0.01108 0.0
H2676 H 0.14557 0.56207 0.99384 0.0
H2677 H 0.19344 0.54976 1.00318 0.0
C2678 C 0.20577 0.499 0.02073 0.0
C2679 C 0.20904 0.47154 0.03009 0.0
C2680 C 0.17863 0.50575 0.01352 0.0
C2681 C 0.18476 0.4509 0.0321 0.0
C2682 C 0.15773 0.45737 0.02472 0.0
C2683 C 0.12738 0.49152 0.00897 0.0
C2684 C 0.1239 0.51955 1.0017 0.0
C2685 C 0.15449 0.48467 0.01546 0.0
C2686 C 0.14788 0.54028 0.99922 0.0
C2687 C 0.17514 0.53332 1.00482 0.0
H2688 H 0.81552 0.96593 0.2192 0.0
H2689 H 0.88477 0.97014 0.28373 0.0
H2690 H 0.87059 0.91857 0.29054 0.0
H2691 H 0.83638 0.87339 0.28073 0.0
H2692 H 0.76848 0.86748 0.21447 0.0
H2693 H 0.78418 0.91844 0.20555 0.0
C2694 C 0.82735 0.95543 0.23476 0.0
C2695 C 0.85036 0.97194 0.25189 0.0
C2696 C 0.81938 0.92551 0.23812 0.0
C2697 C 0.86648 0.95795 0.27098 0.0
C2698 C 0.85843 0.92849 0.2748 0.0
C2699 C 0.82522 0.88317 0.26409 0.0
C2700 C 0.80118 0.8668 0.24841 0.0
C2701 C 0.83457 0.91223 0.25893 0.0
C2702 C 0.78713 0.8796 0.22671 0.0
C2703 C 0.79604 0.90877 0.22172 0.0
H2704 H 0.62775 0.09961 0.80124 0.0
H2705 H 0.68031 0.04885 0.75722 0.0
H2706 H 0.71293 0.09288 0.75022 0.0
H2707 H 0.72765 0.14602 0.75817 0.0
H2708 H 0.67611 0.19656 0.80404 0.0
H2709 H 0.64252 0.15279 0.80922 0.0
C2710 C 0.64622 0.0984 0.78994 0.0
C2711 C 0.65193 0.0712 0.78009 0.0
C2712 C 0.66533 0.12381 0.78659 0.0
C2713 C 0.67579 0.06969 0.7653 0.0
C2714 C 0.69446 0.09483 0.76131 0.0
C2715 C 0.70909 0.14735 0.7693 0.0
C2716 C 0.70438 0.17444 0.78065 0.0
C2717 C 0.68973 0.12201 0.77224 0.0
C2718 C 0.68024 0.17591 0.79508 0.0
C2719 C 0.66089 0.15091 0.79796 0.0
loop_
_geom_bond_atom_site_label_1
_geom_bond_atom_site_label_2
_geom_bond_distance
_geom_bond_site_symmetry_2
_ccdc_geom_bond_type
Mn0 O5 2.095 . S
Mn0 O15 2.162 . S
Mn0 O16 2.297 . S
Mn0 O24 2.385 1_455 S
Mn0 O25 2.209 1_455 S
Mn0 O26 2.094 . S
Mn1 O6 2.121 . S
Mn1 N8 2.254 1_455 S
Mn1 N17 2.282 1_455 S
Mn1 O25 2.215 1_455 S
Mn1 O27 2.117 . S
C2 O24 1.234 . S
C2 O25 1.283 . S
C3 O15 1.281 . S
C3 O16 1.236 . S
C4 O26 1.240 . S
C4 O27 1.264 . S
O5 Mn0 2.095 . S
O5 C14 1.250 . S
O6 Mn1 2.121 . S
O6 C14 1.258 . S
C7 N8 1.318 1_455 S
C7 C11 1.460 . S
C7 H13 0.929 . S
N8 Mn1 2.254 1_655 S
N8 C7 1.318 1_655 S
N8 C12 1.374 . S
C9 C10 1.258 . S
C9 C12 1.431 . S
C9 C29 1.449 . S
C10 C9 1.258 . S
C10 C11 1.477 1_655 S
C10 H30 0.931 . S
C11 C7 1.460 . S
C11 C10 1.477 1_455 S
C11 H31 0.930 . S
C12 N8 1.374 . S
C12 C9 1.431 . S
C12 C22 1.476 . S
H13 C7 0.929 . S
C14 O5 1.250 . S
C14 O6 1.258 . S
O15 Mn0 2.162 . S
O15 C3 1.281 . S
O16 Mn0 2.297 . S
O16 C3 1.236 . S
N17 Mn1 2.282 1_655 S
N17 C18 1.328 . S
N17 C22 1.318 . S
C18 N17 1.328 . S
C18 C19 1.457 . S
C18 H23 0.929 . S
C19 C18 1.457 . S
C19 C20 1.291 . S
C19 H32 0.931 . S
C20 C19 1.291 . S
C20 C21 1.373 . S
C20 H33 0.929 . S
C21 C20 1.373 . S
C21 C22 1.396 . S
C21 C28 1.403 . S
C22 C12 1.476 . S
C22 N17 1.318 . S
C22 C21 1.396 . S
H23 C18 0.929 . S
O24 Mn0 2.385 1_655 S
O24 C2 1.234 . S
O25 Mn0 2.209 1_655 S
O25 Mn1 2.215 1_655 S
O25 C2 1.283 . S
O26 Mn0 2.094 . S
O26 C4 1.240 . S
O27 Mn1 2.117 . S
O27 C4 1.264 . S
C28 C21 1.403 . S
C28 C29 1.399 . S
C28 H34 0.929 . S
C29 C9 1.449 . S
C29 C28 1.399 . S
C29 H35 0.930 . S
H30 C10 0.931 . S
H31 C11 0.930 . S
H32 C19 0.931 . S
H33 C20 0.929 . S
H34 C28 0.929 . S
H35 C29 0.930 . S
Mn36 O41 2.074 1_455 S
Mn36 O51 2.162 1_455 S
Mn36 O52 2.299 1_455 S
Mn36 O60 2.407 . S
Mn36 O61 2.218 . S
Mn36 O62 2.093 . S
Mn37 O42 2.121 1_455 S
Mn37 N44 2.257 . S
Mn37 N53 2.282 . S
Mn37 O61 2.215 . S
Mn37 O63 2.117 . S
C38 O60 1.234 . S
C38 O61 1.283 . S
C39 O51 1.281 . S
C39 O52 1.236 . S
C40 O62 1.240 . S
C40 O63 1.264 . S
O41 Mn36 2.074 1_655 S
O41 C50 1.250 . S
O42 Mn37 2.121 1_655 S
O42 C50 1.258 . S
C43 N44 1.326 . S
C43 C47 1.460 . S
C43 H49 0.929 1_455 S
N44 Mn37 2.257 . S
N44 C43 1.326 . S
N44 C48 1.362 . S
C45 C46 1.258 . S
C45 C48 1.431 . S
C45 C65 1.449 . S
C46 C45 1.258 . S
C46 C47 1.477 . S
C46 H66 0.931 . S
C47 C43 1.460 . S
C47 C46 1.477 . S
C47 H67 0.930 . S
C48 N44 1.362 . S
C48 C45 1.431 . S
C48 C58 1.476 . S
H49 C43 0.929 1_655 S
C50 O41 1.250 . S
C50 O42 1.258 . S
O51 Mn36 2.162 1_655 S
O51 C39 1.281 . S
O52 Mn36 2.299 1_655 S
O52 C39 1.236 . S
N53 Mn37 2.282 . S
N53 C54 1.328 . S
N53 C58 1.318 . S
C54 N53 1.328 . S
C54 C55 1.457 . S
C54 H59 0.929 . S
C55 C54 1.457 . S
C55 C56 1.291 . S
C55 H68 0.931 . S
C56 C55 1.291 . S
C56 C57 1.373 . S
C56 H69 0.929 . S
C57 C56 1.373 . S
C57 C58 1.396 . S
C57 C64 1.403 . S
C58 C48 1.476 . S
C58 N53 1.318 . S
C58 C57 1.396 . S
H59 C54 0.929 . S
O60 Mn36 2.407 . S
O60 C38 1.234 . S
O61 Mn36 2.218 . S
O61 Mn37 2.215 . S
O61 C38 1.283 . S
O62 Mn36 2.093 . S
O62 C40 1.240 . S
O63 Mn37 2.117 . S
O63 C40 1.264 . S
C64 C57 1.403 . S
C64 C65 1.399 . S
C64 H70 0.929 . S
C65 C45 1.449 . S
C65 C64 1.399 . S
C65 H71 0.930 . S
H66 C46 0.931 . S
H67 C47 0.930 . S
H68 C55 0.931 . S
H69 C56 0.929 . S
H70 C64 0.929 . S
H71 C65 0.930 . S
Mn72 O77 2.095 . S
Mn72 O87 2.162 . S
Mn72 O88 2.297 . S
Mn72 O96 2.385 . S
Mn72 O97 2.209 . S
Mn72 O98 2.094 . S
Mn73 O78 2.121 . S
Mn73 N80 2.257 . S
Mn73 N89 2.282 . S
Mn73 O97 2.215 . S
Mn73 O99 2.117 . S
C74 O96 1.234 . S
C74 O97 1.283 . S
C75 O87 1.281 . S
C75 O88 1.236 . S
C76 O98 1.240 . S
C76 O99 1.264 . S
O77 Mn72 2.095 . S
O77 C86 1.250 . S
O78 Mn73 2.121 . S
O78 C86 1.258 . S
C79 N80 1.326 . S
C79 C83 1.460 . S
C79 H85 0.929 . S
N80 Mn73 2.257 . S
N80 C79 1.326 . S
N80 C84 1.362 . S
C81 C82 1.258 . S
C81 C84 1.431 . S
C81 C101 1.449 . S
C82 C81 1.258 . S
C82 C83 1.477 . S
C82 H102 0.931 . S
C83 C79 1.460 . S
C83 C82 1.477 . S
C83 H103 0.930 . S
C84 N80 1.362 . S
C84 C81 1.431 . S
C84 C94 1.476 . S
H85 C79 0.929 . S
C86 O77 1.250 . S
C86 O78 1.258 . S
O87 Mn72 2.162 . S
O87 C75 1.281 . S
O88 Mn72 2.297 . S
O88 C75 1.236 . S
N89 Mn73 2.282 . S
N89 C90 1.328 . S
N89 C94 1.318 . S
C90 N89 1.328 . S
C90 C91 1.457 . S
C90 H95 0.929 . S
C91 C90 1.457 . S
C91 C92 1.291 . S
C91 H104 0.931 . S
C92 C91 1.291 . S
C92 C93 1.373 . S
C92 H105 0.929 . S
C93 C92 1.373 . S
C93 C94 1.396 . S
C93 C100 1.403 . S
C94 C84 1.476 . S
C94 N89 1.318 . S
C94 C93 1.396 . S
H95 C90 0.929 . S
O96 Mn72 2.385 . S
O96 C74 1.234 . S
O97 Mn72 2.209 . S
O97 Mn73 2.215 . S
O97 C74 1.283 . S
O98 Mn72 2.094 . S
O98 C76 1.240 . S
O99 Mn73 2.117 . S
O99 C76 1.264 . S
C100 C93 1.403 . S
C100 C101 1.399 . S
C100 H106 0.929 . S
C101 C81 1.449 . S
C101 C100 1.399 . S
C101 H107 0.930 . S
H102 C82 0.931 . S
H103 C83 0.930 . S
H104 C91 0.931 . S
H105 C92 0.929 . S
H106 C100 0.929 . S
H107 C101 0.930 . S
Mn108 O113 2.095 . S
Mn108 O123 2.162 . S
Mn108 O124 2.297 . S
Mn108 O132 2.385 . S
Mn108 O133 2.209 . S
Mn108 O134 2.094 . S
Mn109 O114 2.121 . S
Mn109 N116 2.257 . S
Mn109 N125 2.282 . S
Mn109 O133 2.215 . S
Mn109 O135 2.117 . S
C110 O132 1.234 . S
C110 O133 1.283 . S
C111 O123 1.281 . S
C111 O124 1.236 . S
C112 O134 1.240 . S
C112 O135 1.264 . S
O113 Mn108 2.095 . S
O113 C122 1.250 . S
O114 Mn109 2.121 . S
O114 C122 1.258 . S
C115 N116 1.326 . S
C115 C119 1.460 . S
C115 H121 0.929 . S
N116 Mn109 2.257 . S
N116 C115 1.326 . S
N116 C120 1.362 . S
C117 C118 1.258 1_554 S
C117 C120 1.431 . S
C117 C137 1.449 . S
C118 C117 1.258 1_556 S
C118 C119 1.477 1_556 S
C118 H138 0.931 . S
C119 C115 1.460 . S
C119 C118 1.477 1_554 S
C119 H139 0.930 1_554 S
C120 N116 1.362 . S
C120 C117 1.431 . S
C120 C130 1.476 . S
H121 C115 0.929 . S
C122 O113 1.250 . S
C122 O114 1.258 . S
O123 Mn108 2.162 . S
O123 C111 1.281 . S
O124 Mn108 2.297 . S
O124 C111 1.236 . S
N125 Mn109 2.282 . S
N125 C126 1.328 . S
N125 C130 1.318 . S
C126 N125 1.328 . S
C126 C127 1.457 . S
C126 H131 0.929 . S
C127 C126 1.457 . S
C127 C128 1.291 . S
C127 H140 0.931 . S
C128 C127 1.291 . S
C128 C129 1.373 . S
C128 H141 0.929 . S
C129 C128 1.373 . S
C129 C130 1.396 . S
C129 C136 1.403 . S
C130 C120 1.476 . S
C130 N125 1.318 . S
C130 C129 1.396 . S
H131 C126 0.929 . S
O132 Mn108 2.385 . S
O132 C110 1.234 . S
O133 Mn108 2.209 . S
O133 Mn109 2.215 . S
O133 C110 1.283 . S
O134 Mn108 2.094 . S
O134 C112 1.240 . S
O135 Mn109 2.117 . S
O135 C112 1.264 . S
C136 C129 1.403 . S
C136 C137 1.399 . S
C136 H142 0.929 . S
C137 C117 1.449 . S
C137 C136 1.399 . S
C137 H143 0.930 1_554 S
H138 C118 0.931 . S
H139 C119 0.930 1_556 S
H140 C127 0.931 . S
H141 C128 0.929 . S
H142 C136 0.929 . S
H143 C137 0.930 1_556 S
Mn144 O149 2.095 . S
Mn144 O159 2.162 . S
Mn144 O160 2.297 . S
Mn144 O168 2.385 . S
Mn144 O169 2.209 1_455 S
Mn144 O170 2.094 1_455 S
Mn145 O150 2.121 . S
Mn145 N152 2.257 . S
Mn145 N161 2.282 . S
Mn145 O169 2.215 . S
Mn145 O171 2.117 . S
C146 O168 1.234 . S
C146 O169 1.283 1_455 S
C147 O159 1.281 . S
C147 O160 1.236 . S
C148 O170 1.240 . S
C148 O171 1.264 . S
O149 Mn144 2.095 . S
O149 C158 1.250 . S
O150 Mn145 2.121 . S
O150 C158 1.258 1_655 S
C151 N152 1.326 . S
C151 C155 1.460 . S
C151 H157 0.929 . S
N152 Mn145 2.257 . S
N152 C151 1.326 . S
N152 C156 1.362 . S
C153 C154 1.248 1_554 S
C153 C156 1.431 . S
C153 C173 1.449 . S
C154 C153 1.248 1_556 S
C154 C155 1.475 1_556 S
C154 H174 0.942 . S
C155 C151 1.460 . S
C155 C154 1.475 1_554 S
C155 H175 0.930 1_554 S
C156 N152 1.362 . S
C156 C153 1.431 . S
C156 C166 1.476 . S
H157 C151 0.929 . S
C158 O149 1.250 . S
C158 O150 1.258 1_455 S
O159 Mn144 2.162 . S
O159 C147 1.281 . S
O160 Mn144 2.297 . S
O160 C147 1.236 . S
N161 Mn145 2.282 . S
N161 C162 1.328 . S
N161 C166 1.318 . S
C162 N161 1.328 . S
C162 C163 1.457 . S
C162 H167 0.929 . S
C163 C162 1.457 . S
C163 C164 1.291 . S
C163 H176 0.931 . S
C164 C163 1.291 . S
C164 C165 1.373 . S
C164 H177 0.929 . S
C165 C164 1.373 . S
C165 C166 1.396 . S
C165 C172 1.403 . S
C166 C156 1.476 . S
C166 N161 1.318 . S
C166 C165 1.396 . S
H167 C162 0.929 . S
O168 Mn144 2.385 . S
O168 C146 1.234 . S
O169 Mn144 2.209 1_655 S
O169 Mn145 2.215 . S
O169 C146 1.283 1_655 S
O170 Mn144 2.094 1_655 S
O170 C148 1.240 . S
O171 Mn145 2.117 . S
O171 C148 1.264 . S
C172 C165 1.403 . S
C172 C173 1.399 . S
C172 H178 0.929 . S
C173 C153 1.449 . S
C173 C172 1.399 . S
C173 H179 0.930 1_554 S
H174 C154 0.942 . S
H175 C155 0.930 1_556 S
H176 C163 0.931 . S
H177 C164 0.929 . S
H178 C172 0.929 . S
H179 C173 0.930 1_556 S
Mn180 O185 2.095 . S
Mn180 O195 2.162 . S
Mn180 O196 2.297 . S
Mn180 O204 2.385 . S
Mn180 O205 2.209 . S
Mn180 O206 2.094 . S
Mn181 O186 2.121 . S
Mn181 N188 2.257 . S
Mn181 N197 2.282 . S
Mn181 O205 2.215 . S
Mn181 O207 2.117 . S
C182 O204 1.234 . S
C182 O205 1.283 . S
C183 O195 1.281 . S
C183 O196 1.236 . S
C184 O206 1.240 . S
C184 O207 1.264 . S
O185 Mn180 2.095 . S
O185 C194 1.250 . S
O186 Mn181 2.121 . S
O186 C194 1.258 . S
C187 N188 1.326 . S
C187 C191 1.460 . S
C187 H193 0.929 . S
N188 Mn181 2.257 . S
N188 C187 1.326 . S
N188 C192 1.362 . S
C189 C190 1.258 . S
C189 C192 1.431 . S
C189 C209 1.449 . S
C190 C189 1.258 . S
C190 C191 1.477 . S
C190 H210 0.931 . S
C191 C187 1.460 . S
C191 C190 1.477 . S
C191 H211 0.930 . S
C192 N188 1.362 . S
C192 C189 1.431 . S
C192 C202 1.476 . S
H193 C187 0.929 . S
C194 O185 1.250 . S
C194 O186 1.258 . S
O195 Mn180 2.162 . S
O195 C183 1.281 . S
O196 Mn180 2.297 . S
O196 C183 1.236 . S
N197 Mn181 2.282 . S
N197 C198 1.328 . S
N197 C202 1.318 . S
C198 N197 1.328 . S
C198 C199 1.457 . S
C198 H203 0.929 . S
C199 C198 1.457 . S
C199 C200 1.291 . S
C199 H212 0.931 . S
C200 C199 1.291 . S
C200 C201 1.373 . S
C200 H213 0.929 . S
C201 C200 1.373 . S
C201 C202 1.396 . S
C201 C208 1.403 . S
C202 C192 1.476 . S
C202 N197 1.318 . S
C202 C201 1.396 . S
H203 C198 0.929 . S
O204 Mn180 2.385 . S
O204 C182 1.234 . S
O205 Mn180 2.209 . S
O205 Mn181 2.215 . S
O205 C182 1.283 . S
O206 Mn180 2.094 . S
O206 C184 1.240 . S
O207 Mn181 2.117 . S
O207 C184 1.264 . S
C208 C201 1.403 . S
C208 C209 1.399 . S
C208 H214 0.929 . S
C209 C189 1.449 . S
C209 C208 1.399 . S
C209 H215 0.930 . S
H210 C190 0.931 . S
H211 C191 0.930 . S
H212 C199 0.931 . S
H213 C200 0.929 . S
H214 C208 0.929 . S
H215 C209 0.930 . S
Mn216 O221 2.095 . S
Mn216 O231 2.162 . S
Mn216 O232 2.297 . S
Mn216 O240 2.385 . S
Mn216 O241 2.209 . S
Mn216 O242 2.094 . S
Mn217 O222 2.121 . S
Mn217 N224 2.257 . S
Mn217 N233 2.282 . S
Mn217 O241 2.215 . S
Mn217 O243 2.117 . S
C218 O240 1.234 . S
C218 O241 1.283 . S
C219 O231 1.281 . S
C219 O232 1.236 . S
C220 O242 1.240 . S
C220 O243 1.264 . S
O221 Mn216 2.095 . S
O221 C230 1.250 . S
O222 Mn217 2.121 . S
O222 C230 1.258 . S
C223 N224 1.326 . S
C223 C227 1.460 . S
C223 H229 0.929 . S
N224 Mn217 2.257 . S
N224 C223 1.326 . S
N224 C228 1.362 . S
C225 C226 1.258 . S
C225 C228 1.431 . S
C225 C245 1.449 . S
C226 C225 1.258 . S
C226 C227 1.477 . S
C226 H246 0.931 . S
C227 C223 1.460 . S
C227 C226 1.477 . S
C227 H247 0.930 . S
C228 N224 1.362 . S
C228 C225 1.431 . S
C228 C238 1.476 . S
H229 C223 0.929 . S
C230 O221 1.250 . S
C230 O222 1.258 . S
O231 Mn216 2.162 . S
O231 C219 1.281 . S
O232 Mn216 2.297 . S
O232 C219 1.236 . S
N233 Mn217 2.282 . S
N233 C234 1.328 . S
N233 C238 1.318 . S
C234 N233 1.328 . S
C234 C235 1.457 . S
C234 H239 0.929 . S
C235 C234 1.457 . S
C235 C236 1.291 . S
C235 H248 0.931 . S
C236 C235 1.291 . S
C236 C237 1.373 . S
C236 H249 0.929 . S
C237 C236 1.373 . S
C237 C238 1.396 . S
C237 C244 1.403 . S
C238 C228 1.476 . S
C238 N233 1.318 . S
C238 C237 1.396 . S
H239 C234 0.929 . S
O240 Mn216 2.385 . S
O240 C218 1.234 . S
O241 Mn216 2.209 . S
O241 Mn217 2.215 . S
O241 C218 1.283 . S
O242 Mn216 2.094 . S
O242 C220 1.240 . S
O243 Mn217 2.117 . S
O243 C220 1.264 . S
C244 C237 1.403 . S
C244 C245 1.399 . S
C244 H250 0.929 . S
C245 C225 1.449 . S
C245 C244 1.399 . S
C245 H251 0.930 . S
H246 C226 0.931 . S
H247 C227 0.930 . S
H248 C235 0.931 . S
H249 C236 0.929 . S
H250 C244 0.929 . S
H251 C245 0.930 . S
Mn252 O257 2.095 . S
Mn252 O267 2.162 . S
Mn252 O268 2.297 . S
Mn252 O276 2.385 1_455 S
Mn252 O277 2.209 1_455 S
Mn252 O278 2.094 . S
Mn253 O258 2.121 . S
Mn253 N260 2.257 1_455 S
Mn253 N269 2.282 1_455 S
Mn253 O277 2.215 1_455 S
Mn253 O279 2.117 . S
C254 O276 1.234 . S
C254 O277 1.283 . S
C255 O267 1.281 . S
C255 O268 1.236 . S
C256 O278 1.240 . S
C256 O279 1.264 . S
O257 Mn252 2.095 . S
O257 C266 1.250 . S
O258 Mn253 2.121 . S
O258 C266 1.258 . S
C259 N260 1.326 1_455 S
C259 C263 1.460 1_455 S
C259 H265 0.929 . S
N260 Mn253 2.257 1_655 S
N260 C259 1.326 1_655 S
N260 C264 1.362 . S
C261 C262 1.258 . S
C261 C264 1.431 . S
C261 C281 1.449 . S
C262 C261 1.258 . S
C262 C263 1.477 . S
C262 H282 0.931 . S
C263 C259 1.460 1_655 S
C263 C262 1.477 . S
C263 H283 0.930 1_655 S
C264 N260 1.362 . S
C264 C261 1.431 . S
C264 C274 1.476 . S
H265 C259 0.929 . S
C266 O257 1.250 . S
C266 O258 1.258 . S
O267 Mn252 2.162 . S
O267 C255 1.281 . S
O268 Mn252 2.297 . S
O268 C255 1.236 . S
N269 Mn253 2.282 1_655 S
N269 C270 1.328 . S
N269 C274 1.318 . S
C270 N269 1.328 . S
C270 C271 1.457 . S
C270 H275 0.929 . S
C271 C270 1.457 . S
C271 C272 1.291 . S
C271 H284 0.931 . S
C272 C271 1.291 . S
C272 C273 1.373 . S
C272 H285 0.929 . S
C273 C272 1.373 . S
C273 C274 1.396 . S
C273 C280 1.403 . S
C274 C264 1.476 . S
C274 N269 1.318 . S
C274 C273 1.396 . S
H275 C270 0.929 . S
O276 Mn252 2.385 1_655 S
O276 C254 1.234 . S
O277 Mn252 2.209 1_655 S
O277 Mn253 2.215 1_655 S
O277 C254 1.283 . S
O278 Mn252 2.094 . S
O278 C256 1.240 . S
O279 Mn253 2.117 . S
O279 C256 1.264 . S
C280 C273 1.403 . S
C280 C281 1.399 . S
C280 H286 0.929 . S
C281 C261 1.449 . S
C281 C280 1.399 . S
C281 H287 0.930 . S
H282 C262 0.931 . S
H283 C263 0.930 1_455 S
H284 C271 0.931 . S
H285 C272 0.929 . S
H286 C280 0.929 . S
H287 C281 0.930 . S
Mn288 O293 2.095 . S
Mn288 O303 2.162 . S
Mn288 O304 2.297 . S
Mn288 O312 2.385 . S
Mn288 O313 2.209 . S
Mn288 O314 2.094 . S
Mn289 O294 2.121 . S
Mn289 N296 2.257 . S
Mn289 N305 2.321 . S
Mn289 O313 2.215 . S
Mn289 O315 2.117 . S
C290 O312 1.234 . S
C290 O313 1.283 . S
C291 O303 1.281 . S
C291 O304 1.236 . S
C292 O314 1.240 . S
C292 O315 1.264 . S
O293 Mn288 2.095 . S
O293 C302 1.250 . S
O294 Mn289 2.121 . S
O294 C302 1.258 . S
C295 N296 1.326 . S
C295 C299 1.460 . S
C295 H301 0.929 . S
N296 Mn289 2.257 . S
N296 C295 1.326 . S
N296 C300 1.379 . S
C297 C298 1.258 . S
C297 C300 1.426 1_565 S
C297 C317 1.449 . S
C298 C297 1.258 . S
C298 C299 1.477 1_565 S
C298 H318 0.931 . S
C299 C295 1.460 . S
C299 C298 1.477 1_545 S
C299 H319 0.930 . S
C300 N296 1.379 . S
C300 C297 1.426 1_545 S
C300 C310 1.464 1_545 S
H301 C295 0.929 . S
C302 O293 1.250 . S
C302 O294 1.258 . S
O303 Mn288 2.162 . S
O303 C291 1.281 . S
O304 Mn288 2.297 . S
O304 C291 1.236 . S
N305 Mn289 2.321 . S
N305 C306 1.303 1_545 S
N305 C310 1.303 1_545 S
C306 N305 1.303 1_565 S
C306 C307 1.457 . S
C306 H311 0.929 . S
C307 C306 1.457 . S
C307 C308 1.291 . S
C307 H320 0.931 . S
C308 C307 1.291 . S
C308 C309 1.373 . S
C308 H321 0.929 . S
C309 C308 1.373 . S
C309 C310 1.396 . S
C309 C316 1.403 . S
C310 C300 1.464 1_565 S
C310 N305 1.303 1_565 S
C310 C309 1.396 . S
H311 C306 0.929 . S
O312 Mn288 2.385 . S
O312 C290 1.234 . S
O313 Mn288 2.209 . S
O313 Mn289 2.215 . S
O313 C290 1.283 . S
O314 Mn288 2.094 . S
O314 C292 1.240 . S
O315 Mn289 2.117 . S
O315 C292 1.264 . S
C316 C309 1.403 . S
C316 C317 1.399 . S
C316 H322 0.929 . S
C317 C297 1.449 . S
C317 C316 1.399 . S
C317 H323 0.930 . S
H318 C298 0.931 . S
H319 C299 0.930 . S
H320 C307 0.931 . S
H321 C308 0.929 . S
H322 C316 0.929 . S
H323 C317 0.930 . S
Mn324 O329 2.095 . S
Mn324 O339 2.162 . S
Mn324 O340 2.297 . S
Mn324 O348 2.385 . S
Mn324 O349 2.209 . S
Mn324 O350 2.094 . S
Mn325 O330 2.121 . S
Mn325 N332 2.257 . S
Mn325 N341 2.282 . S
Mn325 O349 2.215 . S
Mn325 O351 2.117 . S
C326 O348 1.234 . S
C326 O349 1.283 . S
C327 O339 1.281 . S
C327 O340 1.236 . S
C328 O350 1.240 . S
C328 O351 1.264 . S
O329 Mn324 2.095 . S
O329 C338 1.250 . S
O330 Mn325 2.121 . S
O330 C338 1.258 . S
C331 N332 1.326 . S
C331 C335 1.460 . S
C331 H337 0.929 . S
N332 Mn325 2.257 . S
N332 C331 1.326 . S
N332 C336 1.362 . S
C333 C334 1.258 . S
C333 C336 1.431 . S
C333 C353 1.449 . S
C334 C333 1.258 . S
C334 C335 1.477 . S
C334 H354 0.931 . S
C335 C331 1.460 . S
C335 C334 1.477 . S
C335 H355 0.930 . S
C336 N332 1.362 . S
C336 C333 1.431 . S
C336 C346 1.476 . S
H337 C331 0.929 . S
C338 O329 1.250 . S
C338 O330 1.258 . S
O339 Mn324 2.162 . S
O339 C327 1.281 . S
O340 Mn324 2.297 . S
O340 C327 1.236 . S
N341 Mn325 2.282 . S
N341 C342 1.328 . S
N341 C346 1.318 . S
C342 N341 1.328 . S
C342 C343 1.457 . S
C342 H347 0.929 . S
C343 C342 1.457 . S
C343 C344 1.291 . S
C343 H356 0.931 . S
C344 C343 1.291 . S
C344 C345 1.373 . S
C344 H357 0.929 . S
C345 C344 1.373 . S
C345 C346 1.396 . S
C345 C352 1.403 . S
C346 C336 1.476 . S
C346 N341 1.318 . S
C346 C345 1.396 . S
H347 C342 0.929 . S
O348 Mn324 2.385 . S
O348 C326 1.234 . S
O349 Mn324 2.209 . S
O349 Mn325 2.215 . S
O349 C326 1.283 . S
O350 Mn324 2.094 . S
O350 C328 1.240 . S
O351 Mn325 2.117 . S
O351 C328 1.264 . S
C352 C345 1.403 . S
C352 C353 1.399 . S
C352 H358 0.929 . S
C353 C333 1.449 . S
C353 C352 1.399 . S
C353 H359 0.930 . S
H354 C334 0.931 . S
H355 C335 0.930 . S
H356 C343 0.931 . S
H357 C344 0.929 . S
H358 C352 0.929 . S
H359 C353 0.930 . S
Mn360 O365 2.092 1_545 S
Mn360 O375 2.162 1_545 S
Mn360 O376 2.297 . S
Mn360 O384 2.388 . S
Mn360 O385 2.210 . S
Mn360 O386 2.094 1_545 S
Mn361 O366 2.121 1_545 S
Mn361 N368 2.257 . S
Mn361 N377 2.282 . S
Mn361 O385 2.215 . S
Mn361 O387 2.117 . S
C362 O384 1.234 . S
C362 O385 1.283 . S
C363 O375 1.281 . S
C363 O376 1.236 1_565 S
C364 O386 1.240 1_545 S
C364 O387 1.264 . S
O365 Mn360 2.092 1_565 S
O365 C374 1.250 . S
O366 Mn361 2.121 1_565 S
O366 C374 1.258 . S
C367 N368 1.326 . S
C367 C371 1.460 . S
C367 H373 0.929 1_545 S
N368 Mn361 2.257 . S
N368 C367 1.326 . S
N368 C372 1.362 . S
C369 C370 1.258 . S
C369 C372 1.431 . S
C369 C389 1.449 . S
C370 C369 1.258 . S
C370 C371 1.477 . S
C370 H390 0.931 . S
C371 C367 1.460 . S
C371 C370 1.477 . S
C371 H391 0.930 . S
C372 N368 1.362 . S
C372 C369 1.431 . S
C372 C382 1.476 . S
H373 C367 0.929 1_565 S
C374 O365 1.250 . S
C374 O366 1.258 . S
O375 Mn360 2.162 1_565 S
O375 C363 1.281 . S
O376 Mn360 2.297 . S
O376 C363 1.236 1_545 S
N377 Mn361 2.282 . S
N377 C378 1.328 . S
N377 C382 1.318 . S
C378 N377 1.328 . S
C378 C379 1.457 . S
C378 H383 0.929 . S
C379 C378 1.457 . S
C379 C380 1.291 . S
C379 H392 0.931 . S
C380 C379 1.291 . S
C380 C381 1.373 . S
C380 H393 0.929 . S
C381 C380 1.373 . S
C381 C382 1.396 . S
C381 C388 1.403 . S
C382 C372 1.476 . S
C382 N377 1.318 . S
C382 C381 1.396 . S
H383 C378 0.929 . S
O384 Mn360 2.388 . S
O384 C362 1.234 . S
O385 Mn360 2.210 . S
O385 Mn361 2.215 . S
O385 C362 1.283 . S
O386 Mn360 2.094 1_565 S
O386 C364 1.240 1_565 S
O387 Mn361 2.117 . S
O387 C364 1.264 . S
C388 C381 1.403 . S
C388 C389 1.399 . S
C388 H394 0.929 . S
C389 C369 1.449 . S
C389 C388 1.399 . S
C389 H395 0.930 . S
H390 C370 0.931 . S
H391 C371 0.930 . S
H392 C379 0.931 . S
H393 C380 0.929 . S
H394 C388 0.929 . S
H395 C389 0.930 . S
Mn396 O401 2.095 . S
Mn396 O411 2.162 . S
Mn396 O412 2.297 . S
Mn396 O420 2.385 . S
Mn396 O421 2.209 . S
Mn396 O422 2.094 1_554 S
Mn397 O402 2.121 1_556 S
Mn397 N404 2.257 . S
Mn397 N413 2.282 . S
Mn397 O421 2.215 1_556 S
Mn397 O423 2.117 . S
C398 O420 1.234 . S
C398 O421 1.283 . S
C399 O411 1.281 . S
C399 O412 1.236 . S
C400 O422 1.240 . S
C400 O423 1.264 . S
O401 Mn396 2.095 . S
O401 C410 1.250 . S
O402 Mn397 2.121 1_554 S
O402 C410 1.258 . S
C403 N404 1.326 1_544 S
C403 C407 1.460 . S
C403 H409 0.929 . S
N404 Mn397 2.257 . S
N404 C403 1.326 1_566 S
N404 C408 1.362 1_565 S
C405 C406 1.255 1_556 S
C405 C408 1.431 . S
C405 C425 1.449 . S
C406 C405 1.255 1_554 S
C406 C407 1.481 . S
C406 H426 0.930 . S
C407 C403 1.460 . S
C407 C406 1.481 . S
C407 H427 0.930 . S
C408 N404 1.362 1_545 S
C408 C405 1.431 . S
C408 C418 1.476 1_545 S
H409 C403 0.929 . S
C410 O401 1.250 . S
C410 O402 1.258 . S
O411 Mn396 2.162 . S
O411 C399 1.281 . S
O412 Mn396 2.297 . S
O412 C399 1.236 . S
N413 Mn397 2.282 . S
N413 C414 1.328 . S
N413 C418 1.318 . S
C414 N413 1.328 . S
C414 C415 1.457 . S
C414 H419 0.929 . S
C415 C414 1.457 . S
C415 C416 1.291 . S
C415 H428 0.931 . S
C416 C415 1.291 . S
C416 C417 1.373 . S
C416 H429 0.929 . S
C417 C416 1.373 . S
C417 C418 1.396 . S
C417 C424 1.403 1_565 S
C418 C408 1.476 1_565 S
C418 N413 1.318 . S
C418 C417 1.396 . S
H419 C414 0.929 . S
O420 Mn396 2.385 . S
O420 C398 1.234 . S
O421 Mn396 2.209 . S
O421 Mn397 2.215 1_554 S
O421 C398 1.283 . S
O422 Mn396 2.094 1_556 S
O422 C400 1.240 . S
O423 Mn397 2.117 . S
O423 C400 1.264 . S
C424 C417 1.403 1_545 S
C424 C425 1.399 . S
C424 H430 0.929 . S
C425 C405 1.449 . S
C425 C424 1.399 . S
C425 H431 0.930 . S
H426 C406 0.930 . S
H427 C407 0.930 . S
H428 C415 0.931 . S
H429 C416 0.929 . S
H430 C424 0.929 . S
H431 C425 0.930 . S
Mn432 O437 2.095 . S
Mn432 O447 2.162 . S
Mn432 O448 2.297 . S
Mn432 O456 2.385 . S
Mn432 O457 2.209 . S
Mn432 O458 2.094 1_554 S
Mn433 O438 2.121 1_556 S
Mn433 N440 2.257 . S
Mn433 N449 2.282 . S
Mn433 O457 2.215 1_556 S
Mn433 O459 2.117 . S
C434 O456 1.234 . S
C434 O457 1.283 . S
C435 O447 1.281 . S
C435 O448 1.236 . S
C436 O458 1.240 . S
C436 O459 1.264 . S
O437 Mn432 2.095 . S
O437 C446 1.250 . S
O438 Mn433 2.121 1_554 S
O438 C446 1.258 . S
C439 N440 1.326 1_554 S
C439 C443 1.460 . S
C439 H445 0.929 . S
N440 Mn433 2.257 . S
N440 C439 1.326 1_556 S
N440 C444 1.362 . S
C441 C442 1.258 1_556 S
C441 C444 1.431 . S
C441 C461 1.449 . S
C442 C441 1.258 1_554 S
C442 C443 1.477 . S
C442 H462 0.931 . S
C443 C439 1.460 . S
C443 C442 1.477 . S
C443 H463 0.930 . S
C444 N440 1.362 . S
C444 C441 1.431 . S
C444 C454 1.476 . S
H445 C439 0.929 . S
C446 O437 1.250 . S
C446 O438 1.258 . S
O447 Mn432 2.162 . S
O447 C435 1.281 . S
O448 Mn432 2.297 . S
O448 C435 1.236 . S
N449 Mn433 2.282 . S
N449 C450 1.328 . S
N449 C454 1.318 . S
C450 N449 1.328 . S
C450 C451 1.457 . S
C450 H455 0.929 . S
C451 C450 1.457 . S
C451 C452 1.291 . S
C451 H464 0.931 . S
C452 C451 1.291 . S
C452 C453 1.373 . S
C452 H465 0.929 . S
C453 C452 1.373 . S
C453 C454 1.396 . S
C453 C460 1.403 . S
C454 C444 1.476 . S
C454 N449 1.318 . S
C454 C453 1.396 . S
H455 C450 0.929 . S
O456 Mn432 2.385 . S
O456 C434 1.234 . S
O457 Mn432 2.209 . S
O457 Mn433 2.215 1_554 S
O457 C434 1.283 . S
O458 Mn432 2.094 1_556 S
O458 C436 1.240 . S
O459 Mn433 2.117 . S
O459 C436 1.264 . S
C460 C453 1.403 . S
C460 C461 1.399 . S
C460 H466 0.929 . S
C461 C441 1.449 . S
C461 C460 1.399 . S
C461 H467 0.930 . S
H462 C442 0.931 . S
H463 C443 0.930 . S
H464 C451 0.931 . S
H465 C452 0.929 . S
H466 C460 0.929 . S
H467 C461 0.930 . S
Mn468 O473 2.095 1_554 S
Mn468 O483 2.162 . S
Mn468 O484 2.297 . S
Mn468 O492 2.385 . S
Mn468 O493 2.209 1_554 S
Mn468 O494 2.094 1_554 S
Mn469 O474 2.121 . S
Mn469 N476 2.257 . S
Mn469 N485 2.282 . S
Mn469 O493 2.215 . S
Mn469 O495 2.117 . S
C470 O492 1.234 1_556 S
C470 O493 1.283 . S
C471 O483 1.281 . S
C471 O484 1.236 . S
C472 O494 1.240 . S
C472 O495 1.264 . S
O473 Mn468 2.095 1_556 S
O473 C482 1.250 . S
O474 Mn469 2.121 . S
O474 C482 1.258 . S
C475 N476 1.326 . S
C475 C479 1.460 . S
C475 H481 0.929 . S
N476 Mn469 2.257 . S
N476 C475 1.326 . S
N476 C480 1.362 . S
C477 C478 1.258 . S
C477 C480 1.431 . S
C477 C497 1.449 . S
C478 C477 1.258 . S
C478 C479 1.477 . S
C478 H498 0.931 1_545 S
C479 C475 1.460 . S
C479 C478 1.477 . S
C479 H499 0.930 . S
C480 N476 1.362 . S
C480 C477 1.431 . S
C480 C490 1.476 . S
H481 C475 0.929 . S
C482 O473 1.250 . S
C482 O474 1.258 . S
O483 Mn468 2.162 . S
O483 C471 1.281 . S
O484 Mn468 2.297 . S
O484 C471 1.236 . S
N485 Mn469 2.282 . S
N485 C486 1.328 . S
N485 C490 1.318 . S
C486 N485 1.328 . S
C486 C487 1.457 . S
C486 H491 0.929 . S
C487 C486 1.457 . S
C487 C488 1.291 . S
C487 H500 0.931 . S
C488 C487 1.291 . S
C488 C489 1.373 . S
C488 H501 0.929 . S
C489 C488 1.373 . S
C489 C490 1.396 . S
C489 C496 1.403 . S
C490 C480 1.476 . S
C490 N485 1.318 . S
C490 C489 1.396 . S
H491 C486 0.929 . S
O492 Mn468 2.385 . S
O492 C470 1.234 1_554 S
O493 Mn468 2.209 1_556 S
O493 Mn469 2.215 . S
O493 C470 1.283 . S
O494 Mn468 2.094 1_556 S
O494 C472 1.240 . S
O495 Mn469 2.117 . S
O495 C472 1.264 . S
C496 C489 1.403 . S
C496 C497 1.399 . S
C496 H502 0.929 . S
C497 C477 1.449 . S
C497 C496 1.399 . S
C497 H503 0.930 . S
H498 C478 0.931 1_565 S
H499 C479 0.930 . S
H500 C487 0.931 . S
H501 C488 0.929 . S
H502 C496 0.929 . S
H503 C497 0.930 . S
Mn504 O509 2.095 . S
Mn504 O519 2.162 . S
Mn504 O520 2.297 . S
Mn504 O528 2.385 . S
Mn504 O529 2.209 . S
Mn504 O530 2.094 . S
Mn505 O510 2.121 . S
Mn505 N512 2.257 . S
Mn505 N521 2.282 . S
Mn505 O529 2.215 . S
Mn505 O531 2.117 . S
C506 O528 1.234 . S
C506 O529 1.283 . S
C507 O519 1.281 . S
C507 O520 1.236 . S
C508 O530 1.240 . S
C508 O531 1.264 . S
O509 Mn504 2.095 . S
O509 C518 1.250 . S
O510 Mn505 2.121 . S
O510 C518 1.258 . S
C511 N512 1.326 . S
C511 C515 1.460 . S
C511 H517 0.929 . S
N512 Mn505 2.257 . S
N512 C511 1.326 . S
N512 C516 1.362 . S
C513 C514 1.258 . S
C513 C516 1.431 . S
C513 C533 1.449 . S
C514 C513 1.258 . S
C514 C515 1.477 . S
C514 H534 0.931 . S
C515 C511 1.460 . S
C515 C514 1.477 . S
C515 H535 0.930 . S
C516 N512 1.362 . S
C516 C513 1.431 . S
C516 C526 1.476 . S
H517 C511 0.929 . S
C518 O509 1.250 . S
C518 O510 1.258 . S
O519 Mn504 2.162 . S
O519 C507 1.281 . S
O520 Mn504 2.297 . S
O520 C507 1.236 . S
N521 Mn505 2.282 . S
N521 C522 1.328 . S
N521 C526 1.318 . S
C522 N521 1.328 . S
C522 C523 1.457 . S
C522 H527 0.929 . S
C523 C522 1.457 . S
C523 C524 1.291 . S
C523 H536 0.931 . S
C524 C523 1.291 . S
C524 C525 1.373 . S
C524 H537 0.929 . S
C525 C524 1.373 . S
C525 C526 1.396 . S
C525 C532 1.403 . S
C526 C516 1.476 . S
C526 N521 1.318 . S
C526 C525 1.396 . S
H527 C522 0.929 . S
O528 Mn504 2.385 . S
O528 C506 1.234 . S
O529 Mn504 2.209 . S
O529 Mn505 2.215 . S
O529 C506 1.283 . S
O530 Mn504 2.094 . S
O530 C508 1.240 . S
O531 Mn505 2.117 . S
O531 C508 1.264 . S
C532 C525 1.403 . S
C532 C533 1.399 . S
C532 H538 0.929 . S
C533 C513 1.449 . S
C533 C532 1.399 . S
C533 H539 0.930 . S
H534 C514 0.931 . S
H535 C515 0.930 . S
H536 C523 0.931 . S
H537 C524 0.929 . S
H538 C532 0.929 . S
H539 C533 0.930 . S
Mn540 O545 2.095 . S
Mn540 O555 2.162 . S
Mn540 O556 2.297 . S
Mn540 O564 2.385 . S
Mn540 O565 2.209 . S
Mn540 O566 2.094 . S
Mn541 O546 2.121 . S
Mn541 N548 2.257 . S
Mn541 N557 2.282 . S
Mn541 O565 2.215 . S
Mn541 O567 2.117 . S
C542 O564 1.234 . S
C542 O565 1.283 . S
C543 O555 1.281 . S
C543 O556 1.236 . S
C544 O566 1.240 . S
C544 O567 1.264 . S
O545 Mn540 2.095 . S
O545 C554 1.250 . S
O546 Mn541 2.121 . S
O546 C554 1.258 . S
C547 N548 1.326 1_545 S
C547 C551 1.460 . S
C547 H553 0.929 1_545 S
N548 Mn541 2.257 . S
N548 C547 1.326 1_565 S
N548 C552 1.362 . S
C549 C550 1.258 . S
C549 C552 1.431 1_545 S
C549 C569 1.449 . S
C550 C549 1.258 . S
C550 C551 1.477 . S
C550 H570 0.931 . S
C551 C547 1.460 . S
C551 C550 1.477 . S
C551 H571 0.930 . S
C552 N548 1.362 . S
C552 C549 1.431 1_565 S
C552 C562 1.476 . S
H553 C547 0.929 1_565 S
C554 O545 1.250 . S
C554 O546 1.258 . S
O555 Mn540 2.162 . S
O555 C543 1.281 . S
O556 Mn540 2.297 . S
O556 C543 1.236 . S
N557 Mn541 2.282 . S
N557 C558 1.328 . S
N557 C562 1.318 . S
C558 N557 1.328 . S
C558 C559 1.457 . S
C558 H563 0.929 . S
C559 C558 1.457 . S
C559 C560 1.291 . S
C559 H572 0.931 . S
C560 C559 1.291 . S
C560 C561 1.373 . S
C560 H573 0.929 . S
C561 C560 1.373 . S
C561 C562 1.396 . S
C561 C568 1.403 1_565 S
C562 C552 1.476 . S
C562 N557 1.318 . S
C562 C561 1.396 . S
H563 C558 0.929 . S
O564 Mn540 2.385 . S
O564 C542 1.234 . S
O565 Mn540 2.209 . S
O565 Mn541 2.215 . S
O565 C542 1.283 . S
O566 Mn540 2.094 . S
O566 C544 1.240 . S
O567 Mn541 2.117 . S
O567 C544 1.264 . S
C568 C561 1.403 1_545 S
C568 C569 1.399 . S
C568 H574 0.929 . S
C569 C549 1.449 . S
C569 C568 1.399 . S
C569 H575 0.930 . S
H570 C550 0.931 . S
H571 C551 0.930 . S
H572 C559 0.931 . S
H573 C560 0.929 . S
H574 C568 0.929 . S
H575 C569 0.930 . S
Mn576 O581 2.095 . S
Mn576 O591 2.162 . S
Mn576 O592 2.297 . S
Mn576 O600 2.385 . S
Mn576 O601 2.209 . S
Mn576 O602 2.094 . S
Mn577 O582 2.121 . S
Mn577 N584 2.257 . S
Mn577 N593 2.282 . S
Mn577 O601 2.215 . S
Mn577 O603 2.117 . S
C578 O600 1.234 . S
C578 O601 1.283 . S
C579 O591 1.281 . S
C579 O592 1.236 . S
C580 O602 1.240 . S
C580 O603 1.264 . S
O581 Mn576 2.095 . S
O581 C590 1.250 . S
O582 Mn577 2.121 . S
O582 C590 1.258 . S
C583 N584 1.326 . S
C583 C587 1.460 . S
C583 H589 0.929 . S
N584 Mn577 2.257 . S
N584 C583 1.326 . S
N584 C588 1.362 . S
C585 C586 1.258 1_565 S
C585 C588 1.431 1_565 S
C585 C605 1.449 . S
C586 C585 1.258 1_545 S
C586 C587 1.477 . S
C586 H606 0.931 . S
C587 C583 1.460 . S
C587 C586 1.477 . S
C587 H607 0.930 . S
C588 N584 1.362 . S
C588 C585 1.431 1_545 S
C588 C598 1.476 1_545 S
H589 C583 0.929 . S
C590 O581 1.250 . S
C590 O582 1.258 . S
O591 Mn576 2.162 . S
O591 C579 1.281 . S
O592 Mn576 2.297 . S
O592 C579 1.236 . S
N593 Mn577 2.282 . S
N593 C594 1.328 1_545 S
N593 C598 1.318 1_545 S
C594 N593 1.328 1_565 S
C594 C595 1.457 . S
C594 H599 0.929 1_565 S
C595 C594 1.457 . S
C595 C596 1.291 . S
C595 H608 0.931 . S
C596 C595 1.291 . S
C596 C597 1.373 . S
C596 H609 0.929 . S
C597 C596 1.373 . S
C597 C598 1.396 . S
C597 C604 1.403 . S
C598 C588 1.476 1_565 S
C598 N593 1.318 1_565 S
C598 C597 1.396 . S
H599 C594 0.929 1_545 S
O600 Mn576 2.385 . S
O600 C578 1.234 . S
O601 Mn576 2.209 . S
O601 Mn577 2.215 . S
O601 C578 1.283 . S
O602 Mn576 2.094 . S
O602 C580 1.240 . S
O603 Mn577 2.117 . S
O603 C580 1.264 . S
C604 C597 1.403 . S
C604 C605 1.399 . S
C604 H610 0.929 . S
C605 C585 1.449 . S
C605 C604 1.399 . S
C605 H611 0.930 . S
H606 C586 0.931 . S
H607 C587 0.930 . S
H608 C595 0.931 . S
H609 C596 0.929 . S
H610 C604 0.929 . S
H611 C605 0.930 . S
Mn612 O617 2.095 . S
Mn612 O627 2.162 . S
Mn612 O628 2.297 . S
Mn612 O636 2.385 . S
Mn612 O637 2.209 . S
Mn612 O638 2.094 . S
Mn613 O618 2.121 . S
Mn613 N620 2.257 . S
Mn613 N629 2.282 . S
Mn613 O637 2.215 . S
Mn613 O639 2.117 . S
C614 O636 1.234 . S
C614 O637 1.283 . S
C615 O627 1.281 . S
C615 O628 1.236 . S
C616 O638 1.240 . S
C616 O639 1.264 . S
O617 Mn612 2.095 . S
O617 C626 1.250 . S
O618 Mn613 2.121 . S
O618 C626 1.258 . S
C619 N620 1.326 . S
C619 C623 1.460 . S
C619 H625 0.929 . S
N620 Mn613 2.257 . S
N620 C619 1.326 . S
N620 C624 1.362 . S
C621 C622 1.258 . S
C621 C624 1.431 . S
C621 C641 1.449 . S
C622 C621 1.258 . S
C622 C623 1.477 . S
C622 H642 0.931 . S
C623 C619 1.460 . S
C623 C622 1.477 . S
C623 H643 0.930 . S
C624 N620 1.362 . S
C624 C621 1.431 . S
C624 C634 1.476 . S
H625 C619 0.929 . S
C626 O617 1.250 . S
C626 O618 1.258 . S
O627 Mn612 2.162 . S
O627 C615 1.281 . S
O628 Mn612 2.297 . S
O628 C615 1.236 . S
N629 Mn613 2.282 . S
N629 C630 1.328 . S
N629 C634 1.318 . S
C630 N629 1.328 . S
C630 C631 1.457 . S
C630 H635 0.929 . S
C631 C630 1.457 . S
C631 C632 1.291 . S
C631 H644 0.931 . S
C632 C631 1.291 . S
C632 C633 1.373 . S
C632 H645 0.929 . S
C633 C632 1.373 . S
C633 C634 1.396 . S
C633 C640 1.403 . S
C634 C624 1.476 . S
C634 N629 1.318 . S
C634 C633 1.396 . S
H635 C630 0.929 . S
O636 Mn612 2.385 . S
O636 C614 1.234 . S
O637 Mn612 2.209 . S
O637 Mn613 2.215 . S
O637 C614 1.283 . S
O638 Mn612 2.094 . S
O638 C616 1.240 . S
O639 Mn613 2.117 . S
O639 C616 1.264 . S
C640 C633 1.403 . S
C640 C641 1.399 . S
C640 H646 0.929 . S
C641 C621 1.449 . S
C641 C640 1.399 . S
C641 H647 0.930 . S
H642 C622 0.931 . S
H643 C623 0.930 . S
H644 C631 0.931 . S
H645 C632 0.929 . S
H646 C640 0.929 . S
H647 C641 0.930 . S
Mn648 O653 2.095 . S
Mn648 O663 2.162 . S
Mn648 O664 2.297 . S
Mn648 O672 2.385 . S
Mn648 O673 2.209 . S
Mn648 O674 2.094 . S
Mn649 O654 2.121 . S
Mn649 N656 2.257 . S
Mn649 N665 2.282 . S
Mn649 O673 2.215 . S
Mn649 O675 2.117 . S
C650 O672 1.234 . S
C650 O673 1.283 . S
C651 O663 1.281 . S
C651 O664 1.236 . S
C652 O674 1.240 . S
C652 O675 1.264 . S
O653 Mn648 2.095 . S
O653 C662 1.250 . S
O654 Mn649 2.121 . S
O654 C662 1.258 . S
C655 N656 1.326 . S
C655 C659 1.460 . S
C655 H661 0.929 . S
N656 Mn649 2.257 . S
N656 C655 1.326 . S
N656 C660 1.362 . S
C657 C658 1.258 . S
C657 C660 1.431 . S
C657 C677 1.449 . S
C658 C657 1.258 . S
C658 C659 1.477 . S
C658 H678 0.931 . S
C659 C655 1.460 . S
C659 C658 1.477 . S
C659 H679 0.930 . S
C660 N656 1.362 . S
C660 C657 1.431 . S
C660 C670 1.476 . S
H661 C655 0.929 . S
C662 O653 1.250 . S
C662 O654 1.258 . S
O663 Mn648 2.162 . S
O663 C651 1.281 . S
O664 Mn648 2.297 . S
O664 C651 1.236 . S
N665 Mn649 2.282 . S
N665 C666 1.328 . S
N665 C670 1.318 . S
C666 N665 1.328 . S
C666 C667 1.457 . S
C666 H671 0.929 . S
C667 C666 1.457 . S
C667 C668 1.291 . S
C667 H680 0.931 . S
C668 C667 1.291 . S
C668 C669 1.373 . S
C668 H681 0.929 . S
C669 C668 1.373 . S
C669 C670 1.396 . S
C669 C676 1.403 . S
C670 C660 1.476 . S
C670 N665 1.318 . S
C670 C669 1.396 . S
H671 C666 0.929 . S
O672 Mn648 2.385 . S
O672 C650 1.234 . S
O673 Mn648 2.209 . S
O673 Mn649 2.215 . S
O673 C650 1.283 . S
O674 Mn648 2.094 . S
O674 C652 1.240 . S
O675 Mn649 2.117 . S
O675 C652 1.264 . S
C676 C669 1.403 . S
C676 C677 1.399 . S
C676 H682 0.929 . S
C677 C657 1.449 . S
C677 C676 1.399 . S
C677 H683 0.930 . S
H678 C658 0.931 . S
H679 C659 0.930 . S
H680 C667 0.931 . S
H681 C668 0.929 . S
H682 C676 0.929 . S
H683 C677 0.930 . S
Mn684 O689 2.095 1_545 S
Mn684 O699 2.162 . S
Mn684 O700 2.297 . S
Mn684 O708 2.385 . S
Mn684 O709 2.209 . S
Mn684 O710 2.094 . S
Mn685 O690 2.121 1_545 S
Mn685 N692 2.257 . S
Mn685 N701 2.282 . S
Mn685 O709 2.215 . S
Mn685 O711 2.117 . S
C686 O708 1.234 . S
C686 O709 1.283 . S
C687 O699 1.281 . S
C687 O700 1.236 . S
C688 O710 1.240 . S
C688 O711 1.264 . S
O689 Mn684 2.095 1_565 S
O689 C698 1.250 . S
O690 Mn685 2.121 1_565 S
O690 C698 1.258 . S
C691 N692 1.326 . S
C691 C695 1.460 . S
C691 H697 0.929 . S
N692 Mn685 2.257 . S
N692 C691 1.326 . S
N692 C696 1.362 . S
C693 C694 1.258 . S
C693 C696 1.431 . S
C693 C713 1.449 . S
C694 C693 1.258 . S
C694 C695 1.477 . S
C694 H714 0.931 . S
C695 C691 1.460 . S
C695 C694 1.477 . S
C695 H715 0.930 . S
C696 N692 1.362 . S
C696 C693 1.431 . S
C696 C706 1.476 . S
H697 C691 0.929 . S
C698 O689 1.250 . S
C698 O690 1.258 . S
O699 Mn684 2.162 . S
O699 C687 1.281 . S
O700 Mn684 2.297 . S
O700 C687 1.236 . S
N701 Mn685 2.282 . S
N701 C702 1.328 . S
N701 C706 1.318 . S
C702 N701 1.328 . S
C702 C703 1.457 . S
C702 H707 0.929 . S
C703 C702 1.457 . S
C703 C704 1.291 . S
C703 H716 0.931 . S
C704 C703 1.291 . S
C704 C705 1.373 . S
C704 H717 0.929 . S
C705 C704 1.373 . S
C705 C706 1.396 . S
C705 C712 1.403 . S
C706 C696 1.476 . S
C706 N701 1.318 . S
C706 C705 1.396 . S
H707 C702 0.929 . S
O708 Mn684 2.385 . S
O708 C686 1.234 . S
O709 Mn684 2.209 . S
O709 Mn685 2.215 . S
O709 C686 1.283 . S
O710 Mn684 2.094 . S
O710 C688 1.240 . S
O711 Mn685 2.117 . S
O711 C688 1.264 . S
C712 C705 1.403 . S
C712 C713 1.399 . S
C712 H718 0.929 . S
C713 C693 1.449 . S
C713 C712 1.399 . S
C713 H719 0.930 . S
H714 C694 0.931 . S
H715 C695 0.930 . S
H716 C703 0.931 . S
H717 C704 0.929 . S
H718 C712 0.929 . S
H719 C713 0.930 . S
Mn720 O725 2.095 1_554 S
Mn720 O735 2.162 . S
Mn720 O736 2.297 . S
Mn720 O744 2.385 . S
Mn720 O745 2.209 1_554 S
Mn720 O746 2.094 1_554 S
Mn721 O726 2.121 . S
Mn721 N728 2.257 . S
Mn721 N737 2.282 . S
Mn721 O745 2.215 . S
Mn721 O747 2.117 . S
C722 O744 1.234 1_556 S
C722 O745 1.283 . S
C723 O735 1.281 . S
C723 O736 1.236 . S
C724 O746 1.240 . S
C724 O747 1.264 . S
O725 Mn720 2.095 1_556 S
O725 C734 1.250 . S
O726 Mn721 2.121 . S
O726 C734 1.258 . S
C727 N728 1.326 . S
C727 C731 1.460 . S
C727 H733 0.929 . S
N728 Mn721 2.257 . S
N728 C727 1.326 . S
N728 C732 1.362 . S
C729 C730 1.258 . S
C729 C732 1.431 . S
C729 C749 1.449 . S
C730 C729 1.258 . S
C730 C731 1.477 . S
C730 H750 0.931 . S
C731 C727 1.460 . S
C731 C730 1.477 . S
C731 H751 0.930 . S
C732 N728 1.362 . S
C732 C729 1.431 . S
C732 C742 1.476 . S
H733 C727 0.929 . S
C734 O725 1.250 . S
C734 O726 1.258 . S
O735 Mn720 2.162 . S
O735 C723 1.281 . S
O736 Mn720 2.297 . S
O736 C723 1.236 . S
N737 Mn721 2.282 . S
N737 C738 1.328 . S
N737 C742 1.318 . S
C738 N737 1.328 . S
C738 C739 1.457 . S
C738 H743 0.929 . S
C739 C738 1.457 . S
C739 C740 1.291 . S
C739 H752 0.931 . S
C740 C739 1.291 . S
C740 C741 1.373 . S
C740 H753 0.929 . S
C741 C740 1.373 . S
C741 C742 1.396 . S
C741 C748 1.403 . S
C742 C732 1.476 . S
C742 N737 1.318 . S
C742 C741 1.396 . S
H743 C738 0.929 . S
O744 Mn720 2.385 . S
O744 C722 1.234 1_554 S
O745 Mn720 2.209 1_556 S
O745 Mn721 2.215 . S
O745 C722 1.283 . S
O746 Mn720 2.094 1_556 S
O746 C724 1.240 . S
O747 Mn721 2.117 . S
O747 C724 1.264 . S
C748 C741 1.403 . S
C748 C749 1.399 . S
C748 H754 0.929 . S
C749 C729 1.449 . S
C749 C748 1.399 . S
C749 H755 0.930 . S
H750 C730 0.931 . S
H751 C731 0.930 . S
H752 C739 0.931 . S
H753 C740 0.929 . S
H754 C748 0.929 . S
H755 C749 0.930 . S
Mn756 O761 2.095 . S
Mn756 O771 2.162 . S
Mn756 O772 2.297 . S
Mn756 O780 2.385 . S
Mn756 O781 2.209 . S
Mn756 O782 2.094 . S
Mn757 O762 2.121 . S
Mn757 N764 2.257 . S
Mn757 N773 2.282 . S
Mn757 O781 2.215 . S
Mn757 O783 2.117 . S
C758 O780 1.234 . S
C758 O781 1.283 . S
C759 O771 1.281 . S
C759 O772 1.236 . S
C760 O782 1.240 . S
C760 O783 1.264 . S
O761 Mn756 2.095 . S
O761 C770 1.250 . S
O762 Mn757 2.121 . S
O762 C770 1.258 . S
C763 N764 1.326 . S
C763 C767 1.460 . S
C763 H769 0.929 . S
N764 Mn757 2.257 . S
N764 C763 1.326 . S
N764 C768 1.362 . S
C765 C766 1.258 . S
C765 C768 1.431 . S
C765 C785 1.449 . S
C766 C765 1.258 . S
C766 C767 1.477 . S
C766 H786 0.931 . S
C767 C763 1.460 . S
C767 C766 1.477 . S
C767 H787 0.930 . S
C768 N764 1.362 . S
C768 C765 1.431 . S
C768 C778 1.476 . S
H769 C763 0.929 . S
C770 O761 1.250 . S
C770 O762 1.258 . S
O771 Mn756 2.162 . S
O771 C759 1.281 . S
O772 Mn756 2.297 . S
O772 C759 1.236 . S
N773 Mn757 2.282 . S
N773 C774 1.328 . S
N773 C778 1.318 . S
C774 N773 1.328 . S
C774 C775 1.457 . S
C774 H779 0.929 . S
C775 C774 1.457 . S
C775 C776 1.291 . S
C775 H788 0.931 . S
C776 C775 1.291 . S
C776 C777 1.373 . S
C776 H789 0.929 . S
C777 C776 1.373 . S
C777 C778 1.396 . S
C777 C784 1.403 . S
C778 C768 1.476 . S
C778 N773 1.318 . S
C778 C777 1.396 . S
H779 C774 0.929 . S
O780 Mn756 2.385 . S
O780 C758 1.234 . S
O781 Mn756 2.209 . S
O781 Mn757 2.215 . S
O781 C758 1.283 . S
O782 Mn756 2.094 . S
O782 C760 1.240 . S
O783 Mn757 2.117 . S
O783 C760 1.264 . S
C784 C777 1.403 . S
C784 C785 1.399 . S
C784 H790 0.929 . S
C785 C765 1.449 . S
C785 C784 1.399 . S
C785 H791 0.930 . S
H786 C766 0.931 . S
H787 C767 0.930 . S
H788 C775 0.931 . S
H789 C776 0.929 . S
H790 C784 0.929 . S
H791 C785 0.930 . S
Mn792 O797 2.095 . S
Mn792 O807 2.162 . S
Mn792 O808 2.297 . S
Mn792 O816 2.385 . S
Mn792 O817 2.209 . S
Mn792 O818 2.094 . S
Mn793 O798 2.121 . S
Mn793 N800 2.257 . S
Mn793 N809 2.282 . S
Mn793 O817 2.215 . S
Mn793 O819 2.117 . S
C794 O816 1.234 . S
C794 O817 1.283 . S
C795 O807 1.281 . S
C795 O808 1.236 . S
C796 O818 1.240 . S
C796 O819 1.264 . S
O797 Mn792 2.095 . S
O797 C806 1.250 . S
O798 Mn793 2.121 . S
O798 C806 1.258 . S
C799 N800 1.326 . S
C799 C803 1.460 . S
C799 H805 0.929 . S
N800 Mn793 2.257 . S
N800 C799 1.326 . S
N800 C804 1.362 . S
C801 C802 1.258 . S
C801 C804 1.431 . S
C801 C821 1.449 . S
C802 C801 1.258 . S
C802 C803 1.477 . S
C802 H822 0.931 . S
C803 C799 1.460 . S
C803 C802 1.477 . S
C803 H823 0.930 . S
C804 N800 1.362 . S
C804 C801 1.431 . S
C804 C814 1.476 . S
H805 C799 0.929 . S
C806 O797 1.250 . S
C806 O798 1.258 . S
O807 Mn792 2.162 . S
O807 C795 1.281 . S
O808 Mn792 2.297 . S
O808 C795 1.236 . S
N809 Mn793 2.282 . S
N809 C810 1.328 . S
N809 C814 1.318 . S
C810 N809 1.328 . S
C810 C811 1.457 . S
C810 H815 0.929 . S
C811 C810 1.457 . S
C811 C812 1.291 . S
C811 H824 0.931 . S
C812 C811 1.291 . S
C812 C813 1.373 . S
C812 H825 0.929 . S
C813 C812 1.373 . S
C813 C814 1.396 . S
C813 C820 1.403 . S
C814 C804 1.476 . S
C814 N809 1.318 . S
C814 C813 1.396 . S
H815 C810 0.929 . S
O816 Mn792 2.385 . S
O816 C794 1.234 . S
O817 Mn792 2.209 . S
O817 Mn793 2.215 . S
O817 C794 1.283 . S
O818 Mn792 2.094 . S
O818 C796 1.240 . S
O819 Mn793 2.117 . S
O819 C796 1.264 . S
C820 C813 1.403 . S
C820 C821 1.399 . S
C820 H826 0.929 . S
C821 C801 1.449 . S
C821 C820 1.399 . S
C821 H827 0.930 . S
H822 C802 0.931 . S
H823 C803 0.930 . S
H824 C811 0.931 . S
H825 C812 0.929 . S
H826 C820 0.929 . S
H827 C821 0.930 . S
Mn828 O833 2.095 . S
Mn828 O843 2.162 . S
Mn828 O844 2.297 . S
Mn828 O852 2.385 . S
Mn828 O853 2.209 . S
Mn828 O854 2.094 . S
Mn829 O834 2.121 . S
Mn829 N836 2.257 . S
Mn829 N845 2.282 . S
Mn829 O853 2.215 . S
Mn829 O855 2.117 . S
C830 O852 1.234 . S
C830 O853 1.283 . S
C831 O843 1.281 . S
C831 O844 1.236 . S
C832 O854 1.240 . S
C832 O855 1.264 . S
O833 Mn828 2.095 . S
O833 C842 1.250 . S
O834 Mn829 2.121 . S
O834 C842 1.258 . S
C835 N836 1.326 . S
C835 C839 1.460 . S
C835 H841 0.929 . S
N836 Mn829 2.257 . S
N836 C835 1.326 . S
N836 C840 1.362 . S
C837 C838 1.258 . S
C837 C840 1.431 . S
C837 C857 1.449 . S
C838 C837 1.258 . S
C838 C839 1.477 . S
C838 H858 0.931 . S
C839 C835 1.460 . S
C839 C838 1.477 . S
C839 H859 0.930 . S
C840 N836 1.362 . S
C840 C837 1.431 . S
C840 C850 1.476 . S
H841 C835 0.929 . S
C842 O833 1.250 . S
C842 O834 1.258 . S
O843 Mn828 2.162 . S
O843 C831 1.281 . S
O844 Mn828 2.297 . S
O844 C831 1.236 . S
N845 Mn829 2.282 . S
N845 C846 1.328 . S
N845 C850 1.318 . S
C846 N845 1.328 . S
C846 C847 1.457 . S
C846 H851 0.929 . S
C847 C846 1.457 . S
C847 C848 1.291 . S
C847 H860 0.931 . S
C848 C847 1.291 . S
C848 C849 1.373 . S
C848 H861 0.929 . S
C849 C848 1.373 . S
C849 C850 1.396 . S
C849 C856 1.403 . S
C850 C840 1.476 . S
C850 N845 1.318 . S
C850 C849 1.396 . S
H851 C846 0.929 . S
O852 Mn828 2.385 . S
O852 C830 1.234 . S
O853 Mn828 2.209 . S
O853 Mn829 2.215 . S
O853 C830 1.283 . S
O854 Mn828 2.094 . S
O854 C832 1.240 . S
O855 Mn829 2.117 . S
O855 C832 1.264 . S
C856 C849 1.403 . S
C856 C857 1.399 . S
C856 H862 0.929 . S
C857 C837 1.449 . S
C857 C856 1.399 . S
C857 H863 0.930 . S
H858 C838 0.931 . S
H859 C839 0.930 . S
H860 C847 0.931 . S
H861 C848 0.929 . S
H862 C856 0.929 . S
H863 C857 0.930 . S
Tb864 O867 2.453 . S
Tb864 O868 2.596 . S
Tb864 O869 2.374 1_554 S
Tb864 O877 2.343 1_455 S
Tb864 O879 2.353 . S
Tb864 O881 2.427 . S
Tb864 O882 2.513 1_554 S
C865 O869 1.251 . S
C865 O871 1.263 1_445 S
Tb866 O868 2.343 1_665 S
Tb866 O871 2.353 1_554 S
Tb866 O874 2.427 . S
Tb866 O875 2.513 . S
Tb866 O876 2.453 1_564 S
Tb866 O877 2.596 1_565 S
Tb866 O878 2.374 1_565 S
O867 Tb864 2.453 . S
O867 C883 1.245 . S
O868 Tb864 2.596 . S
O868 Tb866 2.343 1_445 S
O868 C883 1.259 . S
O869 Tb864 2.374 1_556 S
O869 C865 1.251 . S
C870 O874 1.275 . S
C870 O875 1.246 . S
O871 C865 1.263 1_665 S
O871 Tb866 2.353 1_556 S
C872 O876 1.245 . S
C872 O877 1.259 1_556 S
C873 O878 1.250 . S
C873 O879 1.263 1_655 S
O874 Tb866 2.427 . S
O874 C870 1.275 . S
O875 Tb866 2.513 . S
O875 C870 1.246 . S
O876 Tb866 2.453 1_546 S
O876 C872 1.245 . S
O877 Tb864 2.343 1_655 S
O877 Tb866 2.596 1_545 S
O877 C872 1.259 1_554 S
O878 Tb866 2.374 1_545 S
O878 C873 1.250 . S
O879 Tb864 2.353 . S
O879 C873 1.263 1_455 S
C880 O881 1.275 1_556 S
C880 O882 1.246 . S
O881 Tb864 2.427 . S
O881 C880 1.275 1_554 S
O882 Tb864 2.513 1_556 S
O882 C880 1.246 . S
C883 O867 1.245 . S
C883 O868 1.259 . S
Tb884 O887 2.453 . S
Tb884 O888 2.596 . S
Tb884 O889 2.374 . S
Tb884 O897 2.343 . S
Tb884 O899 2.353 . S
Tb884 O901 2.427 . S
Tb884 O902 2.513 . S
C885 O889 1.251 . S
C885 O891 1.263 . S
Tb886 O888 2.343 . S
Tb886 O891 2.353 . S
Tb886 O894 2.427 . S
Tb886 O895 2.513 . S
Tb886 O896 2.453 . S
Tb886 O897 2.596 . S
Tb886 O898 2.374 . S
O887 Tb884 2.453 . S
O887 C903 1.245 . S
O888 Tb884 2.596 . S
O888 Tb886 2.343 . S
O888 C903 1.259 . S
O889 Tb884 2.374 . S
O889 C885 1.251 . S
C890 O894 1.275 . S
C890 O895 1.246 . S
O891 C885 1.263 . S
O891 Tb886 2.353 . S
C892 O896 1.245 . S
C892 O897 1.259 . S
C893 O898 1.250 . S
C893 O899 1.263 . S
O894 Tb886 2.427 . S
O894 C890 1.275 . S
O895 Tb886 2.513 . S
O895 C890 1.246 . S
O896 Tb886 2.453 . S
O896 C892 1.245 . S
O897 Tb884 2.343 . S
O897 Tb886 2.596 . S
O897 C892 1.259 . S
O898 Tb886 2.374 . S
O898 C893 1.250 . S
O899 Tb884 2.353 . S
O899 C893 1.263 . S
C900 O901 1.275 . S
C900 O902 1.246 . S
O901 Tb884 2.427 . S
O901 C900 1.275 . S
O902 Tb884 2.513 . S
O902 C900 1.246 . S
C903 O887 1.245 . S
C903 O888 1.259 . S
Tb904 O907 2.453 . S
Tb904 O908 2.596 . S
Tb904 O909 2.374 . S
Tb904 O917 2.343 . S
Tb904 O919 2.353 . S
Tb904 O921 2.427 . S
Tb904 O922 2.513 . S
C905 O909 1.251 . S
C905 O911 1.263 . S
Tb906 O908 2.343 . S
Tb906 O911 2.353 . S
Tb906 O914 2.427 . S
Tb906 O915 2.513 . S
Tb906 O916 2.453 1_545 S
Tb906 O917 2.596 . S
Tb906 O918 2.374 . S
O907 Tb904 2.453 . S
O907 C923 1.245 . S
O908 Tb904 2.596 . S
O908 Tb906 2.343 . S
O908 C923 1.259 . S
O909 Tb904 2.374 . S
O909 C905 1.251 . S
C910 O914 1.275 . S
C910 O915 1.246 . S
O911 C905 1.263 . S
O911 Tb906 2.353 . S
C912 O916 1.245 . S
C912 O917 1.259 1_565 S
C913 O918 1.250 . S
C913 O919 1.263 . S
O914 Tb906 2.427 . S
O914 C910 1.275 . S
O915 Tb906 2.513 . S
O915 C910 1.246 . S
O916 Tb906 2.453 1_565 S
O916 C912 1.245 . S
O917 Tb904 2.343 . S
O917 Tb906 2.596 . S
O917 C912 1.259 1_545 S
O918 Tb906 2.374 . S
O918 C913 1.250 . S
O919 Tb904 2.353 . S
O919 C913 1.263 . S
C920 O921 1.275 . S
C920 O922 1.246 . S
O921 Tb904 2.427 . S
O921 C920 1.275 . S
O922 Tb904 2.513 . S
O922 C920 1.246 . S
C923 O907 1.245 . S
C923 O908 1.259 . S
Tb924 O927 2.453 . S
Tb924 O928 2.596 . S
Tb924 O929 2.374 . S
Tb924 O937 2.343 . S
Tb924 O939 2.353 . S
Tb924 O941 2.427 . S
Tb924 O942 2.513 . S
C925 O929 1.251 . S
C925 O931 1.263 . S
Tb926 O928 2.343 . S
Tb926 O931 2.353 . S
Tb926 O934 2.427 . S
Tb926 O935 2.513 . S
Tb926 O936 2.453 . S
Tb926 O937 2.596 . S
Tb926 O938 2.374 . S
O927 Tb924 2.453 . S
O927 C943 1.245 . S
O928 Tb924 2.596 . S
O928 Tb926 2.343 . S
O928 C943 1.259 . S
O929 Tb924 2.374 . S
O929 C925 1.251 . S
C930 O934 1.275 . S
C930 O935 1.246 . S
O931 C925 1.263 . S
O931 Tb926 2.353 . S
C932 O936 1.245 . S
C932 O937 1.259 . S
C933 O938 1.250 . S
C933 O939 1.263 . S
O934 Tb926 2.427 . S
O934 C930 1.275 . S
O935 Tb926 2.513 . S
O935 C930 1.246 . S
O936 Tb926 2.453 . S
O936 C932 1.245 . S
O937 Tb924 2.343 . S
O937 Tb926 2.596 . S
O937 C932 1.259 . S
O938 Tb926 2.374 . S
O938 C933 1.250 . S
O939 Tb924 2.353 . S
O939 C933 1.263 . S
C940 O941 1.275 . S
C940 O942 1.246 . S
O941 Tb924 2.427 . S
O941 C940 1.275 . S
O942 Tb924 2.513 . S
O942 C940 1.246 . S
C943 O927 1.245 . S
C943 O928 1.259 . S
Tb944 O947 2.453 1_545 S
Tb944 O948 2.596 . S
Tb944 O949 2.374 1_455 S
Tb944 O957 2.343 . S
Tb944 O959 2.353 . S
Tb944 O961 2.427 . S
Tb944 O962 2.513 1_455 S
C945 O949 1.251 . S
C945 O951 1.263 . S
Tb946 O948 2.343 . S
Tb946 O951 2.353 1_455 S
Tb946 O954 2.427 . S
Tb946 O955 2.513 . S
Tb946 O956 2.448 1_455 S
Tb946 O957 2.596 . S
Tb946 O958 2.374 . S
O947 Tb944 2.453 1_565 S
O947 C963 1.245 . S
O948 Tb944 2.596 . S
O948 Tb946 2.343 . S
O948 C963 1.259 1_545 S
O949 Tb944 2.374 1_655 S
O949 C945 1.251 . S
C950 O954 1.275 . S
C950 O955 1.246 . S
O951 C945 1.263 . S
O951 Tb946 2.353 1_655 S
C952 O956 1.241 1_455 S
C952 O957 1.259 . S
C953 O958 1.250 . S
C953 O959 1.263 . S
O954 Tb946 2.427 . S
O954 C950 1.275 . S
O955 Tb946 2.513 . S
O955 C950 1.246 . S
O956 Tb946 2.448 1_655 S
O956 C952 1.241 1_655 S
O957 Tb944 2.343 . S
O957 Tb946 2.596 . S
O957 C952 1.259 . S
O958 Tb946 2.374 . S
O958 C953 1.250 . S
O959 Tb944 2.353 . S
O959 C953 1.263 . S
C960 O961 1.275 1_655 S
C960 O962 1.246 . S
O961 Tb944 2.427 . S
O961 C960 1.275 1_455 S
O962 Tb944 2.513 1_655 S
O962 C960 1.246 . S
C963 O947 1.245 . S
C963 O948 1.259 1_565 S
Tb964 O967 2.453 . S
Tb964 O968 2.596 . S
Tb964 O969 2.374 . S
Tb964 O977 2.343 . S
Tb964 O979 2.353 . S
Tb964 O981 2.427 . S
Tb964 O982 2.513 . S
C965 O969 1.251 . S
C965 O971 1.263 . S
Tb966 O968 2.343 . S
Tb966 O971 2.353 . S
Tb966 O974 2.427 . S
Tb966 O975 2.513 . S
Tb966 O976 2.453 . S
Tb966 O977 2.596 . S
Tb966 O978 2.374 . S
O967 Tb964 2.453 . S
O967 C983 1.245 . S
O968 Tb964 2.596 . S
O968 Tb966 2.343 . S
O968 C983 1.259 . S
O969 Tb964 2.374 . S
O969 C965 1.251 . S
C970 O974 1.275 . S
C970 O975 1.246 . S
O971 C965 1.263 . S
O971 Tb966 2.353 . S
C972 O976 1.245 . S
C972 O977 1.259 . S
C973 O978 1.250 . S
C973 O979 1.263 . S
O974 Tb966 2.427 . S
O974 C970 1.275 . S
O975 Tb966 2.513 . S
O975 C970 1.246 . S
O976 Tb966 2.453 . S
O976 C972 1.245 . S
O977 Tb964 2.343 . S
O977 Tb966 2.596 . S
O977 C972 1.259 . S
O978 Tb966 2.374 . S
O978 C973 1.250 . S
O979 Tb964 2.353 . S
O979 C973 1.263 . S
C980 O981 1.275 . S
C980 O982 1.246 . S
O981 Tb964 2.427 . S
O981 C980 1.275 . S
O982 Tb964 2.513 . S
O982 C980 1.246 . S
C983 O967 1.245 . S
C983 O968 1.259 . S
Tb984 O987 2.453 . S
Tb984 O988 2.596 . S
Tb984 O989 2.374 1_545 S
Tb984 O997 2.343 1_556 S
Tb984 O999 2.353 1_556 S
Tb984 O1001 2.427 1_556 S
Tb984 O1002 2.513 1_546 S
C985 O989 1.251 . S
C985 O991 1.263 1_556 S
Tb986 O988 2.343 1_554 S
Tb986 O991 2.353 1_545 S
Tb986 O994 2.427 . S
Tb986 O995 2.513 . S
Tb986 O996 2.453 . S
Tb986 O997 2.596 . S
Tb986 O998 2.374 . S
O987 Tb984 2.453 . S
O987 C1003 1.245 . S
O988 Tb984 2.596 . S
O988 Tb986 2.343 1_556 S
O988 C1003 1.259 . S
O989 Tb984 2.374 1_565 S
O989 C985 1.251 . S
C990 O994 1.275 . S
C990 O995 1.246 . S
O991 C985 1.263 1_554 S
O991 Tb986 2.353 1_565 S
C992 O996 1.245 . S
C992 O997 1.259 . S
C993 O998 1.250 . S
C993 O999 1.263 . S
O994 Tb986 2.427 . S
O994 C990 1.275 . S
O995 Tb986 2.513 . S
O995 C990 1.246 . S
O996 Tb986 2.453 . S
O996 C992 1.245 . S
O997 Tb984 2.343 1_554 S
O997 Tb986 2.596 . S
O997 C992 1.259 . S
O998 Tb986 2.374 . S
O998 C993 1.250 . S
O999 Tb984 2.353 1_554 S
O999 C993 1.263 . S
C1000 O1001 1.275 . S
C1000 O1002 1.246 1_545 S
O1001 Tb984 2.427 1_554 S
O1001 C1000 1.275 . S
O1002 Tb984 2.513 1_564 S
O1002 C1000 1.246 1_565 S
C1003 O987 1.245 . S
C1003 O988 1.259 . S
Tb1004 O1007 2.453 . S
Tb1004 O1008 2.596 . S
Tb1004 O1009 2.374 . S
Tb1004 O1017 2.343 . S
Tb1004 O1019 2.353 . S
Tb1004 O1021 2.427 . S
Tb1004 O1022 2.513 . S
C1005 O1009 1.251 . S
C1005 O1011 1.263 . S
Tb1006 O1008 2.343 . S
Tb1006 O1011 2.353 . S
Tb1006 O1014 2.427 . S
Tb1006 O1015 2.513 . S
Tb1006 O1016 2.453 . S
Tb1006 O1017 2.596 . S
Tb1006 O1018 2.374 . S
O1007 Tb1004 2.453 . S
O1007 C1023 1.245 . S
O1008 Tb1004 2.596 . S
O1008 Tb1006 2.343 . S
O1008 C1023 1.259 . S
O1009 Tb1004 2.374 . S
O1009 C1005 1.251 . S
C1010 O1014 1.275 . S
C1010 O1015 1.246 . S
O1011 C1005 1.263 . S
O1011 Tb1006 2.353 . S
C1012 O1016 1.245 . S
C1012 O1017 1.259 . S
C1013 O1018 1.250 . S
C1013 O1019 1.263 . S
O1014 Tb1006 2.427 . S
O1014 C1010 1.275 . S
O1015 Tb1006 2.513 . S
O1015 C1010 1.246 . S
O1016 Tb1006 2.453 . S
O1016 C1012 1.245 . S
O1017 Tb1004 2.343 . S
O1017 Tb1006 2.596 . S
O1017 C1012 1.259 . S
O1018 Tb1006 2.374 . S
O1018 C1013 1.250 . S
O1019 Tb1004 2.353 . S
O1019 C1013 1.263 . S
C1020 O1021 1.275 . S
C1020 O1022 1.246 . S
O1021 Tb1004 2.427 . S
O1021 C1020 1.275 . S
O1022 Tb1004 2.513 . S
O1022 C1020 1.246 . S
C1023 O1007 1.245 . S
C1023 O1008 1.259 . S
Tb1024 O1027 2.453 1_556 S
Tb1024 O1028 2.596 1_556 S
Tb1024 O1029 2.374 . S
Tb1024 O1037 2.343 . S
Tb1024 O1039 2.353 . S
Tb1024 O1041 2.427 . S
Tb1024 O1042 2.513 . S
C1025 O1029 1.251 1_554 S
C1025 O1031 1.263 . S
Tb1026 O1028 2.343 . S
Tb1026 O1031 2.353 . S
Tb1026 O1034 2.427 . S
Tb1026 O1035 2.513 . S
Tb1026 O1036 2.453 . S
Tb1026 O1037 2.596 1_554 S
Tb1026 O1038 2.374 . S
O1027 Tb1024 2.453 1_554 S
O1027 C1043 1.245 . S
O1028 Tb1024 2.596 1_554 S
O1028 Tb1026 2.343 . S
O1028 C1043 1.259 . S
O1029 Tb1024 2.374 . S
O1029 C1025 1.251 1_556 S
C1030 O1034 1.275 . S
C1030 O1035 1.246 . S
O1031 C1025 1.263 . S
O1031 Tb1026 2.353 . S
C1032 O1036 1.264 . S
C1032 O1037 1.258 1_554 S
C1033 O1038 1.250 . S
C1033 O1039 1.263 1_554 S
O1034 Tb1026 2.427 . S
O1034 C1030 1.275 . S
O1035 Tb1026 2.513 . S
O1035 C1030 1.246 . S
O1036 Tb1026 2.453 . S
O1036 C1032 1.264 . S
O1037 Tb1024 2.343 . S
O1037 Tb1026 2.596 1_556 S
O1037 C1032 1.258 1_556 S
O1038 Tb1026 2.374 . S
O1038 C1033 1.250 . S
O1039 Tb1024 2.353 . S
O1039 C1033 1.263 1_556 S
C1040 O1041 1.275 . S
C1040 O1042 1.246 . S
O1041 Tb1024 2.427 . S
O1041 C1040 1.275 . S
O1042 Tb1024 2.513 . S
O1042 C1040 1.246 . S
C1043 O1027 1.245 . S
C1043 O1028 1.259 . S
Tb1044 O1047 2.453 . S
Tb1044 O1048 2.596 . S
Tb1044 O1049 2.374 . S
Tb1044 O1057 2.343 . S
Tb1044 O1059 2.353 . S
Tb1044 O1061 2.427 . S
Tb1044 O1062 2.513 . S
C1045 O1049 1.251 . S
C1045 O1051 1.263 . S
Tb1046 O1048 2.343 . S
Tb1046 O1051 2.353 . S
Tb1046 O1054 2.427 . S
Tb1046 O1055 2.513 . S
Tb1046 O1056 2.453 . S
Tb1046 O1057 2.596 . S
Tb1046 O1058 2.374 . S
O1047 Tb1044 2.453 . S
O1047 C1063 1.245 . S
O1048 Tb1044 2.596 . S
O1048 Tb1046 2.343 . S
O1048 C1063 1.259 . S
O1049 Tb1044 2.374 . S
O1049 C1045 1.251 . S
C1050 O1054 1.275 . S
C1050 O1055 1.246 . S
O1051 C1045 1.263 . S
O1051 Tb1046 2.353 . S
C1052 O1056 1.245 . S
C1052 O1057 1.259 . S
C1053 O1058 1.250 . S
C1053 O1059 1.263 . S
O1054 Tb1046 2.427 . S
O1054 C1050 1.275 . S
O1055 Tb1046 2.513 . S
O1055 C1050 1.246 . S
O1056 Tb1046 2.453 . S
O1056 C1052 1.245 . S
O1057 Tb1044 2.343 . S
O1057 Tb1046 2.596 . S
O1057 C1052 1.259 . S
O1058 Tb1046 2.374 . S
O1058 C1053 1.250 . S
O1059 Tb1044 2.353 . S
O1059 C1053 1.263 . S
C1060 O1061 1.275 . S
C1060 O1062 1.246 . S
O1061 Tb1044 2.427 . S
O1061 C1060 1.275 . S
O1062 Tb1044 2.513 . S
O1062 C1060 1.246 . S
C1063 O1047 1.245 . S
C1063 O1048 1.259 . S
Tb1064 O1067 2.453 1_655 S
Tb1064 O1068 2.596 1_655 S
Tb1064 O1069 2.374 . S
Tb1064 O1077 2.343 . S
Tb1064 O1079 2.353 . S
Tb1064 O1081 2.427 . S
Tb1064 O1082 2.513 . S
C1065 O1069 1.251 1_455 S
C1065 O1071 1.263 . S
Tb1066 O1068 2.343 . S
Tb1066 O1071 2.353 . S
Tb1066 O1074 2.427 . S
Tb1066 O1075 2.513 . S
Tb1066 O1076 2.453 . S
Tb1066 O1077 2.596 1_455 S
Tb1066 O1078 2.374 . S
O1067 Tb1064 2.453 1_455 S
O1067 C1083 1.244 . S
O1068 Tb1064 2.596 1_455 S
O1068 Tb1066 2.343 . S
O1068 C1083 1.259 . S
O1069 Tb1064 2.374 . S
O1069 C1065 1.251 1_655 S
C1070 O1074 1.275 . S
C1070 O1075 1.246 . S
O1071 C1065 1.263 . S
O1071 Tb1066 2.353 . S
C1072 O1076 1.245 1_655 S
C1072 O1077 1.259 . S
C1073 O1078 1.250 . S
C1073 O1079 1.263 1_455 S
O1074 Tb1066 2.427 . S
O1074 C1070 1.275 . S
O1075 Tb1066 2.513 . S
O1075 C1070 1.246 . S
O1076 Tb1066 2.453 . S
O1076 C1072 1.245 1_455 S
O1077 Tb1064 2.343 . S
O1077 Tb1066 2.596 1_655 S
O1077 C1072 1.259 . S
O1078 Tb1066 2.374 . S
O1078 C1073 1.250 . S
O1079 Tb1064 2.353 . S
O1079 C1073 1.263 1_655 S
C1080 O1081 1.275 . S
C1080 O1082 1.246 . S
O1081 Tb1064 2.427 . S
O1081 C1080 1.275 . S
O1082 Tb1064 2.513 . S
O1082 C1080 1.246 . S
C1083 O1067 1.244 . S
C1083 O1068 1.259 . S
Tb1084 O1087 2.453 . S
Tb1084 O1088 2.596 . S
Tb1084 O1089 2.374 . S
Tb1084 O1097 2.343 . S
Tb1084 O1099 2.353 . S
Tb1084 O1101 2.427 . S
Tb1084 O1102 2.513 . S
C1085 O1089 1.251 . S
C1085 O1091 1.263 . S
Tb1086 O1088 2.343 . S
Tb1086 O1091 2.353 . S
Tb1086 O1094 2.427 . S
Tb1086 O1095 2.513 . S
Tb1086 O1096 2.453 . S
Tb1086 O1097 2.596 . S
Tb1086 O1098 2.374 . S
O1087 Tb1084 2.453 . S
O1087 C1103 1.245 . S
O1088 Tb1084 2.596 . S
O1088 Tb1086 2.343 . S
O1088 C1103 1.259 . S
O1089 Tb1084 2.374 . S
O1089 C1085 1.251 . S
C1090 O1094 1.275 . S
C1090 O1095 1.246 . S
O1091 C1085 1.263 . S
O1091 Tb1086 2.353 . S
C1092 O1096 1.245 . S
C1092 O1097 1.259 . S
C1093 O1098 1.250 . S
C1093 O1099 1.263 . S
O1094 Tb1086 2.427 . S
O1094 C1090 1.275 . S
O1095 Tb1086 2.513 . S
O1095 C1090 1.246 . S
O1096 Tb1086 2.453 . S
O1096 C1092 1.245 . S
O1097 Tb1084 2.343 . S
O1097 Tb1086 2.596 . S
O1097 C1092 1.259 . S
O1098 Tb1086 2.374 . S
O1098 C1093 1.250 . S
O1099 Tb1084 2.353 . S
O1099 C1093 1.263 . S
C1100 O1101 1.275 . S
C1100 O1102 1.246 . S
O1101 Tb1084 2.427 . S
O1101 C1100 1.275 . S
O1102 Tb1084 2.513 . S
O1102 C1100 1.246 . S
C1103 O1087 1.245 . S
C1103 O1088 1.259 . S
Tb1104 O1107 2.453 . S
Tb1104 O1108 2.596 . S
Tb1104 O1109 2.374 . S
Tb1104 O1117 2.343 . S
Tb1104 O1119 2.353 . S
Tb1104 O1121 2.427 . S
Tb1104 O1122 2.513 . S
C1105 O1109 1.251 . S
C1105 O1111 1.263 . S
Tb1106 O1108 2.343 . S
Tb1106 O1111 2.353 . S
Tb1106 O1114 2.427 . S
Tb1106 O1115 2.513 . S
Tb1106 O1116 2.453 . S
Tb1106 O1117 2.596 . S
Tb1106 O1118 2.374 . S
O1107 Tb1104 2.453 . S
O1107 C1123 1.245 . S
O1108 Tb1104 2.596 . S
O1108 Tb1106 2.343 . S
O1108 C1123 1.259 . S
O1109 Tb1104 2.374 . S
O1109 C1105 1.251 . S
C1110 O1114 1.275 . S
C1110 O1115 1.246 . S
O1111 C1105 1.263 . S
O1111 Tb1106 2.353 . S
C1112 O1116 1.245 . S
C1112 O1117 1.259 . S
C1113 O1118 1.250 . S
C1113 O1119 1.263 . S
O1114 Tb1106 2.427 . S
O1114 C1110 1.275 . S
O1115 Tb1106 2.513 . S
O1115 C1110 1.246 . S
O1116 Tb1106 2.453 . S
O1116 C1112 1.245 . S
O1117 Tb1104 2.343 . S
O1117 Tb1106 2.596 . S
O1117 C1112 1.259 . S
O1118 Tb1106 2.374 . S
O1118 C1113 1.250 . S
O1119 Tb1104 2.353 . S
O1119 C1113 1.263 . S
C1120 O1121 1.275 . S
C1120 O1122 1.246 . S
O1121 Tb1104 2.427 . S
O1121 C1120 1.275 . S
O1122 Tb1104 2.513 . S
O1122 C1120 1.246 . S
C1123 O1107 1.245 . S
C1123 O1108 1.259 . S
Tb1124 O1127 2.453 . S
Tb1124 O1128 2.596 . S
Tb1124 O1129 2.374 . S
Tb1124 O1137 2.343 . S
Tb1124 O1139 2.353 . S
Tb1124 O1141 2.427 . S
Tb1124 O1142 2.513 . S
C1125 O1129 1.251 . S
C1125 O1131 1.263 . S
Tb1126 O1128 2.343 . S
Tb1126 O1131 2.353 . S
Tb1126 O1134 2.427 . S
Tb1126 O1135 2.513 . S
Tb1126 O1136 2.453 . S
Tb1126 O1137 2.596 . S
Tb1126 O1138 2.374 . S
O1127 Tb1124 2.453 . S
O1127 C1143 1.245 . S
O1128 Tb1124 2.596 . S
O1128 Tb1126 2.343 . S
O1128 C1143 1.259 . S
O1129 Tb1124 2.374 . S
O1129 C1125 1.251 . S
C1130 O1134 1.275 . S
C1130 O1135 1.246 . S
O1131 C1125 1.263 . S
O1131 Tb1126 2.353 . S
C1132 O1136 1.245 . S
C1132 O1137 1.259 . S
C1133 O1138 1.250 . S
C1133 O1139 1.263 . S
O1134 Tb1126 2.427 . S
O1134 C1130 1.275 . S
O1135 Tb1126 2.513 . S
O1135 C1130 1.246 . S
O1136 Tb1126 2.453 . S
O1136 C1132 1.245 . S
O1137 Tb1124 2.343 . S
O1137 Tb1126 2.596 . S
O1137 C1132 1.259 . S
O1138 Tb1126 2.374 . S
O1138 C1133 1.250 . S
O1139 Tb1124 2.353 . S
O1139 C1133 1.263 . S
C1140 O1141 1.275 . S
C1140 O1142 1.246 . S
O1141 Tb1124 2.427 . S
O1141 C1140 1.275 . S
O1142 Tb1124 2.513 . S
O1142 C1140 1.246 . S
C1143 O1127 1.245 . S
C1143 O1128 1.259 . S
Tb1144 O1147 2.453 . S
Tb1144 O1148 2.596 . S
Tb1144 O1149 2.374 . S
Tb1144 O1157 2.343 . S
Tb1144 O1159 2.353 . S
Tb1144 O1161 2.427 . S
Tb1144 O1162 2.513 . S
C1145 O1149 1.251 . S
C1145 O1151 1.263 . S
Tb1146 O1148 2.343 . S
Tb1146 O1151 2.353 . S
Tb1146 O1154 2.427 . S
Tb1146 O1155 2.513 . S
Tb1146 O1156 2.453 . S
Tb1146 O1157 2.596 . S
Tb1146 O1158 2.374 . S
O1147 Tb1144 2.453 . S
O1147 C1163 1.245 . S
O1148 Tb1144 2.596 . S
O1148 Tb1146 2.343 . S
O1148 C1163 1.259 . S
O1149 Tb1144 2.374 . S
O1149 C1145 1.251 . S
C1150 O1154 1.275 . S
C1150 O1155 1.246 . S
O1151 C1145 1.263 . S
O1151 Tb1146 2.353 . S
C1152 O1156 1.245 . S
C1152 O1157 1.259 . S
C1153 O1158 1.250 . S
C1153 O1159 1.263 . S
O1154 Tb1146 2.427 . S
O1154 C1150 1.275 . S
O1155 Tb1146 2.513 . S
O1155 C1150 1.246 . S
O1156 Tb1146 2.453 . S
O1156 C1152 1.245 . S
O1157 Tb1144 2.343 . S
O1157 Tb1146 2.596 . S
O1157 C1152 1.259 . S
O1158 Tb1146 2.374 . S
O1158 C1153 1.250 . S
O1159 Tb1144 2.353 . S
O1159 C1153 1.263 . S
C1160 O1161 1.275 . S
C1160 O1162 1.246 . S
O1161 Tb1144 2.427 . S
O1161 C1160 1.275 . S
O1162 Tb1144 2.513 . S
O1162 C1160 1.246 . S
C1163 O1147 1.245 . S
C1163 O1148 1.259 . S
Tb1164 O1167 2.453 . S
Tb1164 O1168 2.596 . S
Tb1164 O1169 2.374 . S
Tb1164 O1177 2.343 . S
Tb1164 O1179 2.353 1_554 S
Tb1164 O1181 2.427 1_554 S
Tb1164 O1182 2.513 . S
C1165 O1169 1.251 . S
C1165 O1171 1.263 1_455 S
Tb1166 O1168 2.343 1_655 S
Tb1166 O1171 2.353 . S
Tb1166 O1174 2.427 . S
Tb1166 O1175 2.513 . S
Tb1166 O1176 2.453 . S
Tb1166 O1177 2.596 1_655 S
Tb1166 O1178 2.374 1_554 S
O1167 Tb1164 2.453 . S
O1167 C1183 1.245 . S
O1168 Tb1164 2.596 . S
O1168 Tb1166 2.343 1_455 S
O1168 C1183 1.259 . S
O1169 Tb1164 2.374 . S
O1169 C1165 1.251 . S
C1170 O1174 1.275 . S
C1170 O1175 1.246 . S
O1171 C1165 1.263 1_655 S
O1171 Tb1166 2.353 . S
C1172 O1176 1.245 1_456 S
C1172 O1177 1.259 1_556 S
C1173 O1178 1.250 1_455 S
C1173 O1179 1.263 . S
O1174 Tb1166 2.427 . S
O1174 C1170 1.275 . S
O1175 Tb1166 2.513 . S
O1175 C1170 1.246 . S
O1176 Tb1166 2.453 . S
O1176 C1172 1.245 1_654 S
O1177 Tb1164 2.343 . S
O1177 Tb1166 2.596 1_455 S
O1177 C1172 1.259 1_554 S
O1178 Tb1166 2.374 1_556 S
O1178 C1173 1.250 1_655 S
O1179 Tb1164 2.353 1_556 S
O1179 C1173 1.263 . S
C1180 O1181 1.275 . S
C1180 O1182 1.246 1_556 S
O1181 Tb1164 2.427 1_556 S
O1181 C1180 1.275 . S
O1182 Tb1164 2.513 . S
O1182 C1180 1.246 1_554 S
C1183 O1167 1.245 . S
C1183 O1168 1.259 . S
H1184 C1190 0.930 . S
H1185 C1193 0.930 . S
H1186 C1194 0.930 . S
H1187 C1195 0.930 . S
H1188 C1198 0.930 . S
H1189 C1199 0.930 . S
C1190 H1184 0.930 . S
C1190 C1191 1.355 . S
C1190 C1192 1.415 . S
C1191 C1190 1.355 . S
C1191 C1193 1.419 1_455 S
C1192 C1190 1.415 . S
C1192 C1197 1.425 1_455 S
C1192 C1199 1.409 . S
C1193 H1185 0.930 . S
C1193 C1191 1.419 1_655 S
C1193 C1194 1.362 . S
C1194 H1186 0.930 . S
C1194 C1193 1.362 . S
C1194 C1197 1.409 . S
C1195 H1187 0.930 . S
C1195 C1196 1.355 1_655 S
C1195 C1197 1.415 . S
C1196 C1195 1.355 1_455 S
C1196 C1198 1.419 1_556 S
C1197 C1192 1.425 1_655 S
C1197 C1194 1.409 . S
C1197 C1195 1.415 . S
C1198 H1188 0.930 . S
C1198 C1196 1.419 1_554 S
C1198 C1199 1.362 1_554 S
C1199 H1189 0.930 . S
C1199 C1192 1.409 . S
C1199 C1198 1.362 1_556 S
H1200 C1206 0.930 . S
H1201 C1209 0.930 . S
H1202 C1210 0.930 . S
H1203 C1211 0.930 . S
H1204 C1214 0.930 . S
H1205 C1215 0.930 . S
C1206 H1200 0.930 . S
C1206 C1207 1.355 . S
C1206 C1208 1.415 . S
C1207 C1206 1.355 . S
C1207 C1209 1.419 . S
C1208 C1206 1.415 . S
C1208 C1213 1.425 . S
C1208 C1215 1.409 . S
C1209 H1201 0.930 . S
C1209 C1207 1.419 . S
C1209 C1210 1.362 . S
C1210 H1202 0.930 . S
C1210 C1209 1.362 . S
C1210 C1213 1.409 . S
C1211 H1203 0.930 . S
C1211 C1212 1.355 . S
C1211 C1213 1.415 . S
C1212 C1211 1.355 . S
C1212 C1214 1.419 . S
C1213 C1208 1.425 . S
C1213 C1210 1.409 . S
C1213 C1211 1.415 . S
C1214 H1204 0.930 . S
C1214 C1212 1.419 . S
C1214 C1215 1.362 . S
C1215 H1205 0.930 . S
C1215 C1208 1.409 . S
C1215 C1214 1.362 . S
H1216 C1222 0.930 . S
H1217 C1225 0.930 . S
H1218 C1226 0.930 . S
H1219 C1227 0.930 . S
H1220 C1230 0.930 . S
H1221 C1231 0.930 . S
C1222 H1216 0.930 . S
C1222 C1223 1.355 . S
C1222 C1224 1.415 . S
C1223 C1222 1.355 . S
C1223 C1225 1.419 . S
C1224 C1222 1.415 . S
C1224 C1229 1.425 . S
C1224 C1231 1.409 . S
C1225 H1217 0.930 . S
C1225 C1223 1.419 . S
C1225 C1226 1.362 . S
C1226 H1218 0.930 . S
C1226 C1225 1.362 . S
C1226 C1229 1.409 . S
C1227 H1219 0.930 . S
C1227 C1228 1.355 . S
C1227 C1229 1.415 . S
C1228 C1227 1.355 . S
C1228 C1230 1.419 . S
C1229 C1224 1.425 . S
C1229 C1226 1.409 . S
C1229 C1227 1.415 . S
C1230 H1220 0.930 . S
C1230 C1228 1.419 . S
C1230 C1231 1.362 . S
C1231 H1221 0.930 . S
C1231 C1224 1.409 . S
C1231 C1230 1.362 . S
H1232 C1238 0.930 . S
H1233 C1241 0.930 . S
H1234 C1242 0.930 . S
H1235 C1243 0.930 . S
H1236 C1246 0.930 . S
H1237 C1247 0.930 . S
C1238 H1232 0.930 . S
C1238 C1239 1.355 . S
C1238 C1240 1.415 . S
C1239 C1238 1.355 . S
C1239 C1241 1.419 . S
C1240 C1238 1.415 . S
C1240 C1245 1.425 . S
C1240 C1247 1.409 . S
C1241 H1233 0.930 . S
C1241 C1239 1.419 . S
C1241 C1242 1.362 . S
C1242 H1234 0.930 . S
C1242 C1241 1.362 . S
C1242 C1245 1.409 . S
C1243 H1235 0.930 . S
C1243 C1244 1.355 . S
C1243 C1245 1.415 . S
C1244 C1243 1.355 . S
C1244 C1246 1.419 . S
C1245 C1240 1.425 . S
C1245 C1242 1.409 . S
C1245 C1243 1.415 . S
C1246 H1236 0.930 . S
C1246 C1244 1.419 . S
C1246 C1247 1.362 . S
C1247 H1237 0.930 . S
C1247 C1240 1.409 . S
C1247 C1246 1.362 . S
H1248 C1254 0.930 . S
H1249 C1257 0.930 . S
H1250 C1258 0.930 . S
H1251 C1259 0.930 . S
H1252 C1262 0.930 . S
H1253 C1263 0.930 . S
C1254 H1248 0.930 . S
C1254 C1255 1.355 . S
C1254 C1256 1.415 . S
C1255 C1254 1.355 . S
C1255 C1257 1.419 . S
C1256 C1254 1.415 . S
C1256 C1261 1.425 . S
C1256 C1263 1.409 . S
C1257 H1249 0.930 . S
C1257 C1255 1.419 . S
C1257 C1258 1.362 . S
C1258 H1250 0.930 . S
C1258 C1257 1.362 . S
C1258 C1261 1.409 . S
C1259 H1251 0.930 . S
C1259 C1260 1.355 . S
C1259 C1261 1.415 . S
C1260 C1259 1.355 . S
C1260 C1262 1.419 . S
C1261 C1256 1.425 . S
C1261 C1258 1.409 . S
C1261 C1259 1.415 . S
C1262 H1252 0.930 . S
C1262 C1260 1.419 . S
C1262 C1263 1.362 . S
C1263 H1253 0.930 . S
C1263 C1256 1.409 . S
C1263 C1262 1.362 . S
H1264 C1270 0.930 . S
H1265 C1273 0.930 . S
H1266 C1274 0.930 . S
H1267 C1275 0.930 . S
H1268 C1278 0.930 . S
H1269 C1279 0.930 . S
C1270 H1264 0.930 . S
C1270 C1271 1.355 . S
C1270 C1272 1.415 . S
C1271 C1270 1.355 . S
C1271 C1273 1.419 . S
C1272 C1270 1.415 . S
C1272 C1277 1.425 . S
C1272 C1279 1.409 . S
C1273 H1265 0.930 . S
C1273 C1271 1.419 . S
C1273 C1274 1.362 . S
C1274 H1266 0.930 . S
C1274 C1273 1.362 . S
C1274 C1277 1.409 . S
C1275 H1267 0.930 . S
C1275 C1276 1.355 . S
C1275 C1277 1.415 . S
C1276 C1275 1.355 . S
C1276 C1278 1.419 . S
C1277 C1272 1.425 . S
C1277 C1274 1.409 . S
C1277 C1275 1.415 . S
C1278 H1268 0.930 . S
C1278 C1276 1.419 . S
C1278 C1279 1.362 . S
C1279 H1269 0.930 . S
C1279 C1272 1.409 . S
C1279 C1278 1.362 . S
H1280 C1286 0.930 . S
H1281 C1289 0.930 . S
H1282 C1290 0.930 . S
H1283 C1291 0.930 . S
H1284 C1294 0.930 . S
H1285 C1295 0.930 . S
C1286 H1280 0.930 . S
C1286 C1287 1.355 . S
C1286 C1288 1.415 . S
C1287 C1286 1.355 . S
C1287 C1289 1.419 . S
C1288 C1286 1.415 . S
C1288 C1293 1.425 . S
C1288 C1295 1.409 . S
C1289 H1281 0.930 . S
C1289 C1287 1.419 . S
C1289 C1290 1.362 . S
C1290 H1282 0.930 . S
C1290 C1289 1.362 . S
C1290 C1293 1.409 . S
C1291 H1283 0.930 . S
C1291 C1292 1.355 . S
C1291 C1293 1.415 . S
C1292 C1291 1.355 . S
C1292 C1294 1.419 . S
C1293 C1288 1.425 . S
C1293 C1290 1.409 . S
C1293 C1291 1.415 . S
C1294 H1284 0.930 . S
C1294 C1292 1.419 . S
C1294 C1295 1.362 . S
C1295 H1285 0.930 . S
C1295 C1288 1.409 . S
C1295 C1294 1.362 . S
H1296 C1302 0.930 . S
H1297 C1305 0.930 . S
H1298 C1306 0.930 . S
H1299 C1307 0.930 . S
H1300 C1310 0.930 . S
H1301 C1311 0.930 . S
C1302 H1296 0.930 . S
C1302 C1303 1.355 . S
C1302 C1304 1.415 . S
C1303 C1302 1.355 . S
C1303 C1305 1.419 . S
C1304 C1302 1.415 . S
C1304 C1309 1.425 . S
C1304 C1311 1.409 . S
C1305 H1297 0.930 . S
C1305 C1303 1.419 . S
C1305 C1306 1.362 . S
C1306 H1298 0.930 . S
C1306 C1305 1.362 . S
C1306 C1309 1.409 . S
C1307 H1299 0.930 . S
C1307 C1308 1.355 . S
C1307 C1309 1.415 . S
C1308 C1307 1.355 . S
C1308 C1310 1.419 . S
C1309 C1304 1.425 . S
C1309 C1306 1.409 . S
C1309 C1307 1.415 . S
C1310 H1300 0.930 . S
C1310 C1308 1.419 . S
C1310 C1311 1.362 . S
C1311 H1301 0.930 . S
C1311 C1304 1.409 . S
C1311 C1310 1.362 . S
H1312 C1318 0.930 . S
H1313 C1321 0.930 . S
H1314 C1322 0.930 . S
H1315 C1323 0.930 . S
H1316 C1326 0.930 1_455 S
H1317 C1327 0.930 . S
C1318 H1312 0.930 . S
C1318 C1319 1.355 . S
C1318 C1320 1.415 . S
C1319 C1318 1.355 . S
C1319 C1321 1.419 . S
C1320 C1318 1.415 . S
C1320 C1325 1.425 . S
C1320 C1327 1.409 . S
C1321 H1313 0.930 . S
C1321 C1319 1.419 . S
C1321 C1322 1.362 . S
C1322 H1314 0.930 . S
C1322 C1321 1.362 . S
C1322 C1325 1.409 . S
C1323 H1315 0.930 . S
C1323 C1324 1.355 . S
C1323 C1325 1.415 . S
C1324 C1323 1.355 . S
C1324 C1326 1.419 . S
C1325 C1320 1.425 . S
C1325 C1322 1.409 . S
C1325 C1323 1.415 . S
C1326 H1316 0.930 1_655 S
C1326 C1324 1.419 . S
C1326 C1327 1.362 . S
C1327 H1317 0.930 . S
C1327 C1320 1.409 . S
C1327 C1326 1.362 . S
H1328 C1334 0.930 . S
H1329 C1337 0.930 . S
H1330 C1338 0.930 . S
H1331 C1339 0.930 . S
H1332 C1342 0.930 . S
H1333 C1343 0.930 . S
C1334 H1328 0.930 . S
C1334 C1335 1.355 . S
C1334 C1336 1.415 . S
C1335 C1334 1.355 . S
C1335 C1337 1.419 . S
C1336 C1334 1.415 . S
C1336 C1341 1.425 . S
C1336 C1343 1.409 . S
C1337 H1329 0.930 . S
C1337 C1335 1.419 . S
C1337 C1338 1.362 . S
C1338 H1330 0.930 . S
C1338 C1337 1.362 . S
C1338 C1341 1.409 . S
C1339 H1331 0.930 . S
C1339 C1340 1.355 . S
C1339 C1341 1.415 . S
C1340 C1339 1.355 . S
C1340 C1342 1.419 . S
C1341 C1336 1.425 . S
C1341 C1338 1.409 . S
C1341 C1339 1.415 . S
C1342 H1332 0.930 . S
C1342 C1340 1.419 . S
C1342 C1343 1.362 . S
C1343 H1333 0.930 . S
C1343 C1336 1.409 . S
C1343 C1342 1.362 . S
H1344 C1350 0.930 . S
H1345 C1353 0.930 . S
H1346 C1354 0.930 . S
H1347 C1355 0.930 1_565 S
H1348 C1358 0.930 . S
H1349 C1359 0.930 . S
C1350 H1344 0.930 . S
C1350 C1351 1.355 . S
C1350 C1352 1.415 . S
C1351 C1350 1.355 . S
C1351 C1353 1.419 1_545 S
C1352 C1350 1.415 . S
C1352 C1357 1.425 . S
C1352 C1359 1.409 . S
C1353 H1345 0.930 . S
C1353 C1351 1.419 1_565 S
C1353 C1354 1.362 . S
C1354 H1346 0.930 . S
C1354 C1353 1.362 . S
C1354 C1357 1.409 1_565 S
C1355 H1347 0.930 1_545 S
C1355 C1356 1.355 . S
C1355 C1357 1.415 . S
C1356 C1355 1.355 . S
C1356 C1358 1.419 . S
C1357 C1352 1.425 . S
C1357 C1354 1.409 1_545 S
C1357 C1355 1.415 . S
C1358 H1348 0.930 . S
C1358 C1356 1.419 . S
C1358 C1359 1.362 . S
C1359 H1349 0.930 . S
C1359 C1352 1.409 . S
C1359 C1358 1.362 . S
H1360 C1366 0.930 . S
H1361 C1369 0.930 . S
H1362 C1370 0.930 . S
H1363 C1371 0.930 . S
H1364 C1374 0.930 . S
H1365 C1375 0.930 . S
C1366 H1360 0.930 . S
C1366 C1367 1.355 . S
C1366 C1368 1.415 . S
C1367 C1366 1.355 . S
C1367 C1369 1.419 . S
C1368 C1366 1.415 . S
C1368 C1373 1.425 . S
C1368 C1375 1.409 . S
C1369 H1361 0.930 . S
C1369 C1367 1.419 . S
C1369 C1370 1.362 . S
C1370 H1362 0.930 . S
C1370 C1369 1.362 . S
C1370 C1373 1.409 . S
C1371 H1363 0.930 . S
C1371 C1372 1.355 . S
C1371 C1373 1.415 . S
C1372 C1371 1.355 . S
C1372 C1374 1.419 . S
C1373 C1368 1.425 . S
C1373 C1370 1.409 . S
C1373 C1371 1.415 . S
C1374 H1364 0.930 . S
C1374 C1372 1.419 . S
C1374 C1375 1.362 . S
C1375 H1365 0.930 . S
C1375 C1368 1.409 . S
C1375 C1374 1.362 . S
H1376 C1382 0.930 . S
H1377 C1385 0.930 . S
H1378 C1386 0.930 . S
H1379 C1387 0.930 . S
H1380 C1390 0.930 . S
H1381 C1391 0.930 . S
C1382 H1376 0.930 . S
C1382 C1383 1.355 . S
C1382 C1384 1.415 . S
C1383 C1382 1.355 . S
C1383 C1385 1.419 . S
C1384 C1382 1.415 . S
C1384 C1389 1.425 . S
C1384 C1391 1.409 . S
C1385 H1377 0.930 . S
C1385 C1383 1.419 . S
C1385 C1386 1.362 . S
C1386 H1378 0.930 . S
C1386 C1385 1.362 . S
C1386 C1389 1.409 . S
C1387 H1379 0.930 . S
C1387 C1388 1.355 . S
C1387 C1389 1.415 . S
C1388 C1387 1.355 . S
C1388 C1390 1.419 . S
C1389 C1384 1.425 . S
C1389 C1386 1.409 . S
C1389 C1387 1.415 . S
C1390 H1380 0.930 . S
C1390 C1388 1.419 . S
C1390 C1391 1.362 . S
C1391 H1381 0.930 . S
C1391 C1384 1.409 . S
C1391 C1390 1.362 . S
H1392 C1398 0.930 . S
H1393 C1401 0.930 . S
H1394 C1402 0.930 . S
H1395 C1403 0.930 . S
H1396 C1406 0.930 . S
H1397 C1407 0.930 . S
C1398 H1392 0.930 . S
C1398 C1399 1.355 . S
C1398 C1400 1.415 . S
C1399 C1398 1.355 . S
C1399 C1401 1.419 . S
C1400 C1398 1.415 . S
C1400 C1405 1.425 . S
C1400 C1407 1.409 . S
C1401 H1393 0.930 . S
C1401 C1399 1.419 . S
C1401 C1402 1.362 . S
C1402 H1394 0.930 . S
C1402 C1401 1.362 . S
C1402 C1405 1.409 . S
C1403 H1395 0.930 . S
C1403 C1404 1.355 . S
C1403 C1405 1.415 . S
C1404 C1403 1.355 . S
C1404 C1406 1.419 . S
C1405 C1400 1.425 . S
C1405 C1402 1.409 . S
C1405 C1403 1.415 . S
C1406 H1396 0.930 . S
C1406 C1404 1.419 . S
C1406 C1407 1.362 . S
C1407 H1397 0.930 . S
C1407 C1400 1.409 . S
C1407 C1406 1.362 . S
H1408 C1414 0.930 1_565 S
H1409 C1417 0.930 . S
H1410 C1418 0.930 . S
H1411 C1419 0.930 . S
H1412 C1422 0.930 . S
H1413 C1423 0.930 1_565 S
C1414 H1408 0.930 1_545 S
C1414 C1415 1.355 . S
C1414 C1416 1.415 . S
C1415 C1414 1.355 . S
C1415 C1417 1.419 . S
C1416 C1414 1.415 . S
C1416 C1421 1.425 . S
C1416 C1423 1.409 . S
C1417 H1409 0.930 . S
C1417 C1415 1.419 . S
C1417 C1418 1.362 . S
C1418 H1410 0.930 . S
C1418 C1417 1.362 . S
C1418 C1421 1.409 . S
C1419 H1411 0.930 . S
C1419 C1420 1.355 . S
C1419 C1421 1.415 . S
C1420 C1419 1.355 . S
C1420 C1422 1.419 . S
C1421 C1416 1.425 . S
C1421 C1418 1.409 . S
C1421 C1419 1.415 . S
C1422 H1412 0.930 . S
C1422 C1420 1.419 . S
C1422 C1423 1.362 . S
C1423 H1413 0.930 1_545 S
C1423 C1416 1.409 . S
C1423 C1422 1.362 . S
H1424 C1430 0.930 . S
H1425 C1433 0.930 . S
H1426 C1434 0.930 . S
H1427 C1435 0.930 . S
H1428 C1438 0.930 . S
H1429 C1439 0.930 . S
C1430 H1424 0.930 . S
C1430 C1431 1.355 . S
C1430 C1432 1.415 . S
C1431 C1430 1.355 . S
C1431 C1433 1.419 . S
C1432 C1430 1.415 . S
C1432 C1437 1.425 . S
C1432 C1439 1.409 . S
C1433 H1425 0.930 . S
C1433 C1431 1.419 . S
C1433 C1434 1.362 . S
C1434 H1426 0.930 . S
C1434 C1433 1.362 . S
C1434 C1437 1.409 . S
C1435 H1427 0.930 . S
C1435 C1436 1.355 . S
C1435 C1437 1.415 . S
C1436 C1435 1.355 . S
C1436 C1438 1.419 . S
C1437 C1432 1.425 . S
C1437 C1434 1.409 . S
C1437 C1435 1.415 . S
C1438 H1428 0.930 . S
C1438 C1436 1.419 . S
C1438 C1439 1.362 . S
C1439 H1429 0.930 . S
C1439 C1432 1.409 . S
C1439 C1438 1.362 . S
H1440 C1446 0.948 . S
H1441 C1449 0.930 . S
H1442 C1450 0.898 1_545 S
H1443 C1451 0.930 1_545 S
H1444 C1454 0.930 1_556 S
H1445 C1455 0.930 1_556 S
C1446 H1440 0.948 . S
C1446 C1447 1.355 . S
C1446 C1448 1.415 . S
C1447 C1446 1.355 . S
C1447 C1449 1.419 . S
C1448 C1446 1.415 . S
C1448 C1453 1.425 . S
C1448 C1455 1.409 . S
C1449 H1441 0.930 . S
C1449 C1447 1.419 . S
C1449 C1450 1.362 . S
C1450 H1442 0.898 1_565 S
C1450 C1449 1.362 . S
C1450 C1453 1.409 . S
C1451 H1443 0.930 1_565 S
C1451 C1452 1.355 . S
C1451 C1453 1.415 . S
C1452 C1451 1.355 . S
C1452 C1454 1.419 . S
C1453 C1448 1.425 . S
C1453 C1450 1.409 . S
C1453 C1451 1.415 . S
C1454 H1444 0.930 1_554 S
C1454 C1452 1.419 . S
C1454 C1455 1.362 . S
C1455 H1445 0.930 1_554 S
C1455 C1448 1.409 . S
C1455 C1454 1.362 . S
H1456 C1462 0.930 . S
H1457 C1465 0.930 . S
H1458 C1466 0.930 . S
H1459 C1467 0.930 . S
H1460 C1470 0.930 . S
H1461 C1471 0.930 . S
C1462 H1456 0.930 . S
C1462 C1463 1.355 1_554 S
C1462 C1464 1.415 . S
C1463 C1462 1.355 1_556 S
C1463 C1465 1.419 . S
C1464 C1462 1.415 . S
C1464 C1469 1.425 1_554 S
C1464 C1471 1.409 . S
C1465 H1457 0.930 . S
C1465 C1463 1.419 . S
C1465 C1466 1.362 . S
C1466 H1458 0.930 . S
C1466 C1465 1.362 . S
C1466 C1469 1.409 . S
C1467 H1459 0.930 . S
C1467 C1468 1.355 1_556 S
C1467 C1469 1.415 . S
C1468 C1467 1.355 1_554 S
C1468 C1470 1.419 . S
C1469 C1464 1.425 1_556 S
C1469 C1466 1.409 . S
C1469 C1467 1.415 . S
C1470 H1460 0.930 . S
C1470 C1468 1.419 . S
C1470 C1471 1.362 . S
C1471 H1461 0.930 . S
C1471 C1464 1.409 . S
C1471 C1470 1.362 . S
H1472 C1478 0.930 . S
H1473 C1481 0.930 . S
H1474 C1482 0.930 . S
H1475 C1483 0.930 . S
H1476 C1486 0.930 . S
H1477 C1487 0.930 . S
C1478 H1472 0.930 . S
C1478 C1479 1.355 . S
C1478 C1480 1.415 . S
C1479 C1478 1.355 . S
C1479 C1481 1.419 . S
C1480 C1478 1.415 . S
C1480 C1485 1.425 . S
C1480 C1487 1.409 . S
C1481 H1473 0.930 . S
C1481 C1479 1.419 . S
C1481 C1482 1.362 . S
C1482 H1474 0.930 . S
C1482 C1481 1.362 . S
C1482 C1485 1.409 . S
C1483 H1475 0.930 . S
C1483 C1484 1.355 . S
C1483 C1485 1.415 . S
C1484 C1483 1.355 . S
C1484 C1486 1.419 . S
C1485 C1480 1.425 . S
C1485 C1482 1.409 . S
C1485 C1483 1.415 . S
C1486 H1476 0.930 . S
C1486 C1484 1.419 . S
C1486 C1487 1.362 . S
C1487 H1477 0.930 . S
C1487 C1480 1.409 . S
C1487 C1486 1.362 . S
H1488 C1494 0.930 . S
H1489 C1497 0.930 . S
H1490 C1498 0.930 . S
H1491 C1499 0.930 . S
H1492 C1502 0.930 . S
H1493 C1503 0.930 . S
C1494 H1488 0.930 . S
C1494 C1495 1.355 . S
C1494 C1496 1.415 . S
C1495 C1494 1.355 . S
C1495 C1497 1.419 . S
C1496 C1494 1.415 . S
C1496 C1501 1.425 . S
C1496 C1503 1.409 . S
C1497 H1489 0.930 . S
C1497 C1495 1.419 . S
C1497 C1498 1.362 . S
C1498 H1490 0.930 . S
C1498 C1497 1.362 . S
C1498 C1501 1.409 . S
C1499 H1491 0.930 . S
C1499 C1500 1.355 . S
C1499 C1501 1.415 . S
C1500 C1499 1.355 . S
C1500 C1502 1.419 . S
C1501 C1496 1.425 . S
C1501 C1498 1.409 . S
C1501 C1499 1.415 . S
C1502 H1492 0.930 . S
C1502 C1500 1.419 . S
C1502 C1503 1.362 . S
C1503 H1493 0.930 . S
C1503 C1496 1.409 . S
C1503 C1502 1.362 . S
H1504 C1510 0.930 . S
H1505 C1513 0.930 . S
H1506 C1514 0.930 . S
H1507 C1515 0.930 . S
H1508 C1518 0.930 . S
H1509 C1519 0.930 . S
C1510 H1504 0.930 . S
C1510 C1511 1.355 . S
C1510 C1512 1.415 . S
C1511 C1510 1.355 . S
C1511 C1513 1.419 . S
C1512 C1510 1.415 . S
C1512 C1517 1.425 . S
C1512 C1519 1.409 . S
C1513 H1505 0.930 . S
C1513 C1511 1.419 . S
C1513 C1514 1.362 . S
C1514 H1506 0.930 . S
C1514 C1513 1.362 . S
C1514 C1517 1.409 . S
C1515 H1507 0.930 . S
C1515 C1516 1.355 . S
C1515 C1517 1.415 . S
C1516 C1515 1.355 . S
C1516 C1518 1.419 . S
C1517 C1512 1.425 . S
C1517 C1514 1.409 . S
C1517 C1515 1.415 . S
C1518 H1508 0.930 . S
C1518 C1516 1.419 . S
C1518 C1519 1.362 . S
C1519 H1509 0.930 . S
C1519 C1512 1.409 . S
C1519 C1518 1.362 . S
H1520 C1526 0.930 . S
H1521 C1529 0.930 . S
H1522 C1530 0.930 . S
H1523 C1531 0.930 . S
H1524 C1534 0.930 . S
H1525 C1535 0.930 . S
C1526 H1520 0.930 . S
C1526 C1527 1.355 . S
C1526 C1528 1.415 . S
C1527 C1526 1.355 . S
C1527 C1529 1.419 . S
C1528 C1526 1.415 . S
C1528 C1533 1.425 . S
C1528 C1535 1.409 . S
C1529 H1521 0.930 . S
C1529 C1527 1.419 . S
C1529 C1530 1.362 . S
C1530 H1522 0.930 . S
C1530 C1529 1.362 . S
C1530 C1533 1.409 . S
C1531 H1523 0.930 . S
C1531 C1532 1.355 . S
C1531 C1533 1.415 . S
C1532 C1531 1.355 . S
C1532 C1534 1.419 . S
C1533 C1528 1.425 . S
C1533 C1530 1.409 . S
C1533 C1531 1.415 . S
C1534 H1524 0.930 . S
C1534 C1532 1.419 . S
C1534 C1535 1.362 . S
C1535 H1525 0.930 . S
C1535 C1528 1.409 . S
C1535 C1534 1.362 . S
H1536 C1542 0.930 . S
H1537 C1545 0.930 . S
H1538 C1546 0.930 . S
H1539 C1547 0.930 . S
H1540 C1550 0.930 . S
H1541 C1551 0.930 . S
C1542 H1536 0.930 . S
C1542 C1543 1.355 . S
C1542 C1544 1.415 . S
C1543 C1542 1.355 . S
C1543 C1545 1.419 . S
C1544 C1542 1.415 . S
C1544 C1549 1.425 . S
C1544 C1551 1.409 . S
C1545 H1537 0.930 . S
C1545 C1543 1.419 . S
C1545 C1546 1.362 . S
C1546 H1538 0.930 . S
C1546 C1545 1.362 . S
C1546 C1549 1.409 . S
C1547 H1539 0.930 . S
C1547 C1548 1.355 . S
C1547 C1549 1.415 . S
C1548 C1547 1.355 . S
C1548 C1550 1.419 . S
C1549 C1544 1.425 . S
C1549 C1546 1.409 . S
C1549 C1547 1.415 . S
C1550 H1540 0.930 . S
C1550 C1548 1.419 . S
C1550 C1551 1.362 . S
C1551 H1541 0.930 . S
C1551 C1544 1.409 . S
C1551 C1550 1.362 . S
H1552 C1558 0.930 . S
H1553 C1561 0.930 . S
H1554 C1562 0.930 . S
H1555 C1563 0.930 . S
H1556 C1566 0.930 . S
H1557 C1567 0.930 . S
C1558 H1552 0.930 . S
C1558 C1559 1.355 . S
C1558 C1560 1.415 . S
C1559 C1558 1.355 . S
C1559 C1561 1.419 . S
C1560 C1558 1.415 . S
C1560 C1565 1.425 . S
C1560 C1567 1.409 . S
C1561 H1553 0.930 . S
C1561 C1559 1.419 . S
C1561 C1562 1.362 . S
C1562 H1554 0.930 . S
C1562 C1561 1.362 . S
C1562 C1565 1.409 . S
C1563 H1555 0.930 . S
C1563 C1564 1.355 . S
C1563 C1565 1.415 . S
C1564 C1563 1.355 . S
C1564 C1566 1.419 . S
C1565 C1560 1.425 . S
C1565 C1562 1.409 . S
C1565 C1563 1.415 . S
C1566 H1556 0.930 . S
C1566 C1564 1.419 . S
C1566 C1567 1.362 . S
C1567 H1557 0.930 . S
C1567 C1560 1.409 . S
C1567 C1566 1.362 . S
H1568 C1574 0.930 . S
H1569 C1577 0.930 . S
H1570 C1578 0.930 . S
H1571 C1579 0.930 . S
H1572 C1582 0.930 . S
H1573 C1583 0.930 . S
C1574 H1568 0.930 . S
C1574 C1575 1.355 1_655 S
C1574 C1576 1.415 1_655 S
C1575 C1574 1.355 1_455 S
C1575 C1577 1.419 . S
C1576 C1574 1.415 1_455 S
C1576 C1581 1.425 . S
C1576 C1583 1.409 1_455 S
C1577 H1569 0.930 . S
C1577 C1575 1.419 . S
C1577 C1578 1.362 . S
C1578 H1570 0.930 . S
C1578 C1577 1.362 . S
C1578 C1581 1.409 . S
C1579 H1571 0.930 . S
C1579 C1580 1.355 . S
C1579 C1581 1.415 . S
C1580 C1579 1.355 . S
C1580 C1582 1.419 1_455 S
C1581 C1576 1.425 . S
C1581 C1578 1.409 . S
C1581 C1579 1.415 . S
C1582 H1572 0.930 . S
C1582 C1580 1.419 1_655 S
C1582 C1583 1.362 . S
C1583 H1573 0.930 . S
C1583 C1576 1.409 1_655 S
C1583 C1582 1.362 . S
H1584 C1590 0.930 . S
H1585 C1593 0.930 . S
H1586 C1594 0.930 . S
H1587 C1595 0.930 . S
H1588 C1598 0.930 . S
H1589 C1599 0.930 . S
C1590 H1584 0.930 . S
C1590 C1591 1.355 . S
C1590 C1592 1.415 . S
C1591 C1590 1.355 . S
C1591 C1593 1.419 . S
C1592 C1590 1.415 . S
C1592 C1597 1.425 . S
C1592 C1599 1.409 . S
C1593 H1585 0.930 . S
C1593 C1591 1.419 . S
C1593 C1594 1.362 . S
C1594 H1586 0.930 . S
C1594 C1593 1.362 . S
C1594 C1597 1.409 . S
C1595 H1587 0.930 . S
C1595 C1596 1.355 . S
C1595 C1597 1.415 . S
C1596 C1595 1.355 . S
C1596 C1598 1.419 . S
C1597 C1592 1.425 . S
C1597 C1594 1.409 . S
C1597 C1595 1.415 . S
C1598 H1588 0.930 . S
C1598 C1596 1.419 . S
C1598 C1599 1.362 . S
C1599 H1589 0.930 . S
C1599 C1592 1.409 . S
C1599 C1598 1.362 . S
H1600 C1606 0.930 . S
H1601 C1609 0.930 . S
H1602 C1610 0.930 . S
H1603 C1611 0.930 . S
H1604 C1614 0.930 . S
H1605 C1615 0.930 . S
C1606 H1600 0.930 . S
C1606 C1607 1.355 . S
C1606 C1608 1.415 . S
C1607 C1606 1.355 . S
C1607 C1609 1.419 . S
C1608 C1606 1.415 . S
C1608 C1613 1.425 . S
C1608 C1615 1.409 . S
C1609 H1601 0.930 . S
C1609 C1607 1.419 . S
C1609 C1610 1.362 . S
C1610 H1602 0.930 . S
C1610 C1609 1.362 . S
C1610 C1613 1.409 . S
C1611 H1603 0.930 . S
C1611 C1612 1.355 . S
C1611 C1613 1.415 . S
C1612 C1611 1.355 . S
C1612 C1614 1.419 . S
C1613 C1608 1.425 . S
C1613 C1610 1.409 . S
C1613 C1611 1.415 . S
C1614 H1604 0.930 . S
C1614 C1612 1.419 . S
C1614 C1615 1.362 . S
C1615 H1605 0.930 . S
C1615 C1608 1.409 . S
C1615 C1614 1.362 . S
H1616 C1622 0.930 . S
H1617 C1625 0.930 . S
H1618 C1626 0.930 . S
H1619 C1627 0.930 . S
H1620 C1630 0.930 . S
H1621 C1631 0.930 . S
C1622 H1616 0.930 . S
C1622 C1623 1.355 . S
C1622 C1624 1.415 . S
C1623 C1622 1.355 . S
C1623 C1625 1.419 . S
C1624 C1622 1.415 . S
C1624 C1629 1.425 . S
C1624 C1631 1.409 . S
C1625 H1617 0.930 . S
C1625 C1623 1.419 . S
C1625 C1626 1.362 . S
C1626 H1618 0.930 . S
C1626 C1625 1.362 . S
C1626 C1629 1.409 . S
C1627 H1619 0.930 . S
C1627 C1628 1.355 . S
C1627 C1629 1.415 . S
C1628 C1627 1.355 . S
C1628 C1630 1.419 . S
C1629 C1624 1.425 . S
C1629 C1626 1.409 . S
C1629 C1627 1.415 . S
C1630 H1620 0.930 . S
C1630 C1628 1.419 . S
C1630 C1631 1.362 . S
C1631 H1621 0.930 . S
C1631 C1624 1.409 . S
C1631 C1630 1.362 . S
H1632 C1638 0.930 . S
H1633 C1641 0.930 . S
H1634 C1642 0.930 . S
H1635 C1643 0.930 . S
H1636 C1646 0.930 . S
H1637 C1647 0.930 . S
C1638 H1632 0.930 . S
C1638 C1639 1.355 1_655 S
C1638 C1640 1.415 . S
C1639 C1638 1.355 1_455 S
C1639 C1641 1.419 . S
C1640 C1638 1.415 . S
C1640 C1645 1.425 1_655 S
C1640 C1647 1.409 . S
C1641 H1633 0.930 . S
C1641 C1639 1.419 . S
C1641 C1642 1.362 . S
C1642 H1634 0.930 . S
C1642 C1641 1.362 . S
C1642 C1645 1.409 . S
C1643 H1635 0.930 . S
C1643 C1644 1.355 . S
C1643 C1645 1.415 . S
C1644 C1643 1.355 . S
C1644 C1646 1.419 1_455 S
C1645 C1640 1.425 1_455 S
C1645 C1642 1.409 . S
C1645 C1643 1.415 . S
C1646 H1636 0.930 . S
C1646 C1644 1.419 1_655 S
C1646 C1647 1.362 . S
C1647 H1637 0.930 . S
C1647 C1640 1.409 . S
C1647 C1646 1.362 . S
H1648 C1654 0.930 . S
H1649 C1657 0.930 . S
H1650 C1658 0.930 . S
H1651 C1659 0.930 . S
H1652 C1662 0.930 . S
H1653 C1663 0.930 . S
C1654 H1648 0.930 . S
C1654 C1655 1.355 . S
C1654 C1656 1.415 . S
C1655 C1654 1.355 . S
C1655 C1657 1.419 . S
C1656 C1654 1.415 . S
C1656 C1661 1.425 . S
C1656 C1663 1.409 . S
C1657 H1649 0.930 . S
C1657 C1655 1.419 . S
C1657 C1658 1.362 . S
C1658 H1650 0.930 . S
C1658 C1657 1.362 . S
C1658 C1661 1.409 . S
C1659 H1651 0.930 . S
C1659 C1660 1.355 . S
C1659 C1661 1.415 . S
C1660 C1659 1.355 . S
C1660 C1662 1.419 . S
C1661 C1656 1.425 . S
C1661 C1658 1.409 . S
C1661 C1659 1.415 . S
C1662 H1652 0.930 . S
C1662 C1660 1.419 . S
C1662 C1663 1.362 . S
C1663 H1653 0.930 . S
C1663 C1656 1.409 . S
C1663 C1662 1.362 . S
H1664 C1670 0.930 . S
H1665 C1673 0.930 . S
H1666 C1674 0.930 . S
H1667 C1675 0.930 . S
H1668 C1678 0.930 . S
H1669 C1679 0.930 1_554 S
C1670 H1664 0.930 . S
C1670 C1671 1.355 . S
C1670 C1672 1.415 . S
C1671 C1670 1.355 . S
C1671 C1673 1.419 . S
C1672 C1670 1.415 . S
C1672 C1677 1.425 . S
C1672 C1679 1.409 . S
C1673 H1665 0.930 . S
C1673 C1671 1.419 . S
C1673 C1674 1.362 . S
C1674 H1666 0.930 . S
C1674 C1673 1.362 . S
C1674 C1677 1.409 . S
C1675 H1667 0.930 . S
C1675 C1676 1.355 . S
C1675 C1677 1.415 . S
C1676 C1675 1.355 . S
C1676 C1678 1.419 1_556 S
C1677 C1672 1.425 . S
C1677 C1674 1.409 . S
C1677 C1675 1.415 . S
C1678 H1668 0.930 . S
C1678 C1676 1.419 1_554 S
C1678 C1679 1.362 1_554 S
C1679 H1669 0.930 1_556 S
C1679 C1672 1.409 . S
C1679 C1678 1.362 1_556 S
H1680 C1686 0.930 . S
H1681 C1689 0.930 . S
H1682 C1690 0.930 . S
H1683 C1691 0.930 . S
H1684 C1694 0.930 . S
H1685 C1695 0.930 . S
C1686 H1680 0.930 . S
C1686 C1687 1.355 . S
C1686 C1688 1.415 . S
C1687 C1686 1.355 . S
C1687 C1689 1.419 . S
C1688 C1686 1.415 . S
C1688 C1693 1.425 . S
C1688 C1695 1.409 . S
C1689 H1681 0.930 . S
C1689 C1687 1.419 . S
C1689 C1690 1.362 . S
C1690 H1682 0.930 . S
C1690 C1689 1.362 . S
C1690 C1693 1.409 . S
C1691 H1683 0.930 . S
C1691 C1692 1.355 . S
C1691 C1693 1.415 . S
C1692 C1691 1.355 . S
C1692 C1694 1.419 . S
C1693 C1688 1.425 . S
C1693 C1690 1.409 . S
C1693 C1691 1.415 . S
C1694 H1684 0.930 . S
C1694 C1692 1.419 . S
C1694 C1695 1.362 . S
C1695 H1685 0.930 . S
C1695 C1688 1.409 . S
C1695 C1694 1.362 . S
H1696 C1702 0.930 . S
H1697 C1705 0.930 . S
H1698 C1706 0.930 . S
H1699 C1707 0.930 . S
H1700 C1710 0.930 1_655 S
H1701 C1711 0.930 . S
C1702 H1696 0.930 . S
C1702 C1703 1.355 1_565 S
C1702 C1704 1.415 . S
C1703 C1702 1.355 1_545 S
C1703 C1705 1.419 . S
C1704 C1702 1.415 . S
C1704 C1709 1.425 1_565 S
C1704 C1711 1.409 . S
C1705 H1697 0.930 . S
C1705 C1703 1.419 . S
C1705 C1706 1.362 . S
C1706 H1698 0.930 . S
C1706 C1705 1.362 . S
C1706 C1709 1.409 . S
C1707 H1699 0.930 . S
C1707 C1708 1.355 1_545 S
C1707 C1709 1.415 . S
C1708 C1707 1.355 1_565 S
C1708 C1710 1.419 . S
C1709 C1704 1.425 1_545 S
C1709 C1706 1.409 . S
C1709 C1707 1.415 . S
C1710 H1700 0.930 1_455 S
C1710 C1708 1.419 . S
C1710 C1711 1.362 . S
C1711 H1701 0.930 . S
C1711 C1704 1.409 . S
C1711 C1710 1.362 . S
H1712 C1718 0.930 . S
H1713 C1721 0.930 . S
H1714 C1722 0.930 . S
H1715 C1723 0.930 . S
H1716 C1726 0.930 . S
H1717 C1727 0.930 . S
C1718 H1712 0.930 . S
C1718 C1719 1.355 . S
C1718 C1720 1.415 . S
C1719 C1718 1.355 . S
C1719 C1721 1.419 . S
C1720 C1718 1.415 . S
C1720 C1725 1.425 . S
C1720 C1727 1.409 . S
C1721 H1713 0.930 . S
C1721 C1719 1.419 . S
C1721 C1722 1.362 . S
C1722 H1714 0.930 . S
C1722 C1721 1.362 . S
C1722 C1725 1.409 . S
C1723 H1715 0.930 . S
C1723 C1724 1.355 . S
C1723 C1725 1.415 . S
C1724 C1723 1.355 . S
C1724 C1726 1.419 . S
C1725 C1720 1.425 . S
C1725 C1722 1.409 . S
C1725 C1723 1.415 . S
C1726 H1716 0.930 . S
C1726 C1724 1.419 . S
C1726 C1727 1.362 . S
C1727 H1717 0.930 . S
C1727 C1720 1.409 . S
C1727 C1726 1.362 . S
H1728 C1734 0.930 . S
H1729 C1737 0.930 . S
H1730 C1738 0.918 1_565 S
H1731 C1739 0.930 . S
H1732 C1742 0.930 . S
H1733 C1743 0.930 . S
C1734 H1728 0.930 . S
C1734 C1735 1.355 . S
C1734 C1736 1.415 . S
C1735 C1734 1.355 . S
C1735 C1737 1.419 . S
C1736 C1734 1.415 . S
C1736 C1741 1.425 . S
C1736 C1743 1.409 . S
C1737 H1729 0.930 . S
C1737 C1735 1.419 . S
C1737 C1738 1.362 . S
C1738 H1730 0.918 1_545 S
C1738 C1737 1.362 . S
C1738 C1741 1.409 . S
C1739 H1731 0.930 . S
C1739 C1740 1.355 . S
C1739 C1741 1.415 . S
C1740 C1739 1.355 . S
C1740 C1742 1.419 . S
C1741 C1736 1.425 . S
C1741 C1738 1.409 . S
C1741 C1739 1.415 . S
C1742 H1732 0.930 . S
C1742 C1740 1.419 . S
C1742 C1743 1.362 . S
C1743 H1733 0.930 . S
C1743 C1736 1.409 . S
C1743 C1742 1.362 . S
H1744 C1750 0.930 . S
H1745 C1753 0.930 . S
H1746 C1754 0.930 . S
H1747 C1755 0.930 . S
H1748 C1758 0.930 . S
H1749 C1759 0.930 . S
C1750 H1744 0.930 . S
C1750 C1751 1.355 . S
C1750 C1752 1.415 . S
C1751 C1750 1.355 . S
C1751 C1753 1.419 . S
C1752 C1750 1.415 . S
C1752 C1757 1.425 . S
C1752 C1759 1.409 . S
C1753 H1745 0.930 . S
C1753 C1751 1.419 . S
C1753 C1754 1.362 . S
C1754 H1746 0.930 . S
C1754 C1753 1.362 . S
C1754 C1757 1.409 . S
C1755 H1747 0.930 . S
C1755 C1756 1.355 . S
C1755 C1757 1.415 . S
C1756 C1755 1.355 . S
C1756 C1758 1.419 . S
C1757 C1752 1.425 . S
C1757 C1754 1.409 . S
C1757 C1755 1.415 . S
C1758 H1748 0.930 . S
C1758 C1756 1.419 . S
C1758 C1759 1.362 . S
C1759 H1749 0.930 . S
C1759 C1752 1.409 . S
C1759 C1758 1.362 . S
H1760 C1766 0.930 . S
H1761 C1769 0.930 . S
H1762 C1770 0.930 . S
H1763 C1771 0.930 . S
H1764 C1774 0.922 1_565 S
H1765 C1775 0.930 . S
C1766 H1760 0.930 . S
C1766 C1767 1.356 . S
C1766 C1768 1.410 1_565 S
C1767 C1766 1.356 . S
C1767 C1769 1.416 1_565 S
C1768 C1766 1.410 1_545 S
C1768 C1773 1.433 . S
C1768 C1775 1.407 1_545 S
C1769 H1761 0.930 . S
C1769 C1767 1.416 1_545 S
C1769 C1770 1.362 . S
C1770 H1762 0.930 . S
C1770 C1769 1.362 . S
C1770 C1773 1.409 . S
C1771 H1763 0.930 . S
C1771 C1772 1.355 . S
C1771 C1773 1.415 . S
C1772 C1771 1.355 . S
C1772 C1774 1.447 . S
C1773 C1768 1.433 . S
C1773 C1770 1.409 . S
C1773 C1771 1.415 . S
C1774 H1764 0.922 1_545 S
C1774 C1772 1.447 . S
C1774 C1775 1.344 1_545 S
C1775 H1765 0.930 . S
C1775 C1768 1.407 1_565 S
C1775 C1774 1.344 1_565 S
H1776 C1782 0.930 . S
H1777 C1785 0.930 . S
H1778 C1786 0.930 . S
H1779 C1787 0.930 . S
H1780 C1790 0.930 . S
H1781 C1791 0.930 . S
C1782 H1776 0.930 . S
C1782 C1783 1.355 . S
C1782 C1784 1.415 . S
C1783 C1782 1.355 . S
C1783 C1785 1.419 . S
C1784 C1782 1.415 . S
C1784 C1789 1.425 . S
C1784 C1791 1.409 . S
C1785 H1777 0.930 . S
C1785 C1783 1.419 . S
C1785 C1786 1.362 . S
C1786 H1778 0.930 . S
C1786 C1785 1.362 . S
C1786 C1789 1.409 . S
C1787 H1779 0.930 . S
C1787 C1788 1.355 . S
C1787 C1789 1.415 . S
C1788 C1787 1.355 . S
C1788 C1790 1.419 . S
C1789 C1784 1.425 . S
C1789 C1786 1.409 . S
C1789 C1787 1.415 . S
C1790 H1780 0.930 . S
C1790 C1788 1.419 . S
C1790 C1791 1.362 . S
C1791 H1781 0.930 . S
C1791 C1784 1.409 . S
C1791 C1790 1.362 . S
H1792 C1798 0.930 . S
H1793 C1801 0.930 . S
H1794 C1802 0.930 1_565 S
H1795 C1803 0.930 1_565 S
H1796 C1806 0.930 . S
H1797 C1807 0.930 . S
C1798 H1792 0.930 . S
C1798 C1799 1.355 . S
C1798 C1800 1.415 . S
C1799 C1798 1.355 . S
C1799 C1801 1.419 . S
C1800 C1798 1.415 . S
C1800 C1805 1.425 . S
C1800 C1807 1.409 . S
C1801 H1793 0.930 . S
C1801 C1799 1.419 . S
C1801 C1802 1.362 . S
C1802 H1794 0.930 1_545 S
C1802 C1801 1.362 . S
C1802 C1805 1.409 . S
C1803 H1795 0.930 1_545 S
C1803 C1804 1.355 . S
C1803 C1805 1.415 . S
C1804 C1803 1.355 . S
C1804 C1806 1.419 . S
C1805 C1800 1.425 . S
C1805 C1802 1.409 . S
C1805 C1803 1.415 . S
C1806 H1796 0.930 . S
C1806 C1804 1.419 . S
C1806 C1807 1.362 . S
C1807 H1797 0.930 . S
C1807 C1800 1.409 . S
C1807 C1806 1.362 . S
H1808 C1814 0.930 . S
H1809 C1817 0.930 . S
H1810 C1818 0.930 . S
H1811 C1819 0.930 . S
H1812 C1822 0.930 . S
H1813 C1823 0.930 . S
C1814 H1808 0.930 . S
C1814 C1815 1.355 . S
C1814 C1816 1.415 . S
C1815 C1814 1.355 . S
C1815 C1817 1.419 . S
C1816 C1814 1.415 . S
C1816 C1821 1.425 . S
C1816 C1823 1.409 . S
C1817 H1809 0.930 . S
C1817 C1815 1.419 . S
C1817 C1818 1.362 . S
C1818 H1810 0.930 . S
C1818 C1817 1.362 . S
C1818 C1821 1.409 . S
C1819 H1811 0.930 . S
C1819 C1820 1.355 . S
C1819 C1821 1.415 . S
C1820 C1819 1.355 . S
C1820 C1822 1.419 . S
C1821 C1816 1.425 . S
C1821 C1818 1.409 . S
C1821 C1819 1.415 . S
C1822 H1812 0.930 . S
C1822 C1820 1.419 . S
C1822 C1823 1.362 . S
C1823 H1813 0.930 . S
C1823 C1816 1.409 . S
C1823 C1822 1.362 . S
H1824 C1830 0.930 . S
H1825 C1833 0.930 . S
H1826 C1834 0.930 . S
H1827 C1835 0.930 . S
H1828 C1838 0.930 . S
H1829 C1839 0.930 . S
C1830 H1824 0.930 . S
C1830 C1831 1.354 . S
C1830 C1832 1.415 . S
C1831 C1830 1.354 . S
C1831 C1833 1.419 1_554 S
C1832 C1830 1.415 . S
C1832 C1837 1.425 1_554 S
C1832 C1839 1.409 . S
C1833 H1825 0.930 . S
C1833 C1831 1.419 1_556 S
C1833 C1834 1.362 . S
C1834 H1826 0.930 . S
C1834 C1833 1.362 . S
C1834 C1837 1.409 . S
C1835 H1827 0.930 . S
C1835 C1836 1.355 . S
C1835 C1837 1.415 . S
C1836 C1835 1.355 . S
C1836 C1838 1.419 1_556 S
C1837 C1832 1.425 1_556 S
C1837 C1834 1.409 . S
C1837 C1835 1.415 . S
C1838 H1828 0.930 . S
C1838 C1836 1.419 1_554 S
C1838 C1839 1.362 . S
C1839 H1829 0.930 . S
C1839 C1832 1.409 . S
C1839 C1838 1.362 . S
H1840 C1846 0.930 . S
H1841 C1849 0.930 . S
H1842 C1850 0.930 . S
H1843 C1851 0.930 . S
H1844 C1854 0.930 1_556 S
H1845 C1855 0.930 1_556 S
C1846 H1840 0.930 . S
C1846 C1847 1.355 . S
C1846 C1848 1.415 . S
C1847 C1846 1.355 . S
C1847 C1849 1.419 . S
C1848 C1846 1.415 . S
C1848 C1853 1.425 . S
C1848 C1855 1.409 . S
C1849 H1841 0.930 . S
C1849 C1847 1.419 . S
C1849 C1850 1.362 . S
C1850 H1842 0.930 . S
C1850 C1849 1.362 . S
C1850 C1853 1.409 . S
C1851 H1843 0.930 . S
C1851 C1852 1.355 . S
C1851 C1853 1.415 . S
C1852 C1851 1.355 . S
C1852 C1854 1.419 . S
C1853 C1848 1.425 . S
C1853 C1850 1.409 . S
C1853 C1851 1.415 . S
C1854 H1844 0.930 1_554 S
C1854 C1852 1.419 . S
C1854 C1855 1.362 . S
C1855 H1845 0.930 1_554 S
C1855 C1848 1.409 . S
C1855 C1854 1.362 . S
H1856 C1862 0.930 . S
H1857 C1865 0.930 . S
H1858 C1866 0.930 . S
H1859 C1867 0.930 . S
H1860 C1870 0.930 . S
H1861 C1871 0.930 . S
C1862 H1856 0.930 . S
C1862 C1863 1.355 . S
C1862 C1864 1.415 . S
C1863 C1862 1.355 . S
C1863 C1865 1.419 . S
C1864 C1862 1.415 . S
C1864 C1869 1.425 . S
C1864 C1871 1.409 . S
C1865 H1857 0.930 . S
C1865 C1863 1.419 . S
C1865 C1866 1.362 . S
C1866 H1858 0.930 . S
C1866 C1865 1.362 . S
C1866 C1869 1.409 . S
C1867 H1859 0.930 . S
C1867 C1868 1.355 . S
C1867 C1869 1.415 . S
C1868 C1867 1.355 . S
C1868 C1870 1.419 . S
C1869 C1864 1.425 . S
C1869 C1866 1.409 . S
C1869 C1867 1.415 . S
C1870 H1860 0.930 . S
C1870 C1868 1.419 . S
C1870 C1871 1.362 . S
C1871 H1861 0.930 . S
C1871 C1864 1.409 . S
C1871 C1870 1.362 . S
H1872 C1878 0.930 . S
H1873 C1881 0.930 . S
H1874 C1882 0.930 . S
H1875 C1883 0.930 . S
H1876 C1886 0.930 . S
H1877 C1887 0.930 . S
C1878 H1872 0.930 . S
C1878 C1879 1.355 . S
C1878 C1880 1.415 . S
C1879 C1878 1.355 . S
C1879 C1881 1.419 . S
C1880 C1878 1.415 . S
C1880 C1885 1.425 . S
C1880 C1887 1.409 . S
C1881 H1873 0.930 . S
C1881 C1879 1.419 . S
C1881 C1882 1.362 . S
C1882 H1874 0.930 . S
C1882 C1881 1.362 . S
C1882 C1885 1.409 . S
C1883 H1875 0.930 . S
C1883 C1884 1.355 . S
C1883 C1885 1.415 . S
C1884 C1883 1.355 . S
C1884 C1886 1.419 . S
C1885 C1880 1.425 . S
C1885 C1882 1.409 . S
C1885 C1883 1.415 . S
C1886 H1876 0.930 . S
C1886 C1884 1.419 . S
C1886 C1887 1.362 . S
C1887 H1877 0.930 . S
C1887 C1880 1.409 . S
C1887 C1886 1.362 . S
H1888 C1894 0.930 . S
H1889 C1897 0.930 . S
H1890 C1898 0.930 . S
H1891 C1899 0.930 . S
H1892 C1902 0.930 . S
H1893 C1903 0.930 . S
C1894 H1888 0.930 . S
C1894 C1895 1.355 . S
C1894 C1896 1.415 . S
C1895 C1894 1.355 . S
C1895 C1897 1.419 . S
C1896 C1894 1.415 . S
C1896 C1901 1.425 . S
C1896 C1903 1.409 . S
C1897 H1889 0.930 . S
C1897 C1895 1.419 . S
C1897 C1898 1.362 . S
C1898 H1890 0.930 . S
C1898 C1897 1.362 . S
C1898 C1901 1.409 . S
C1899 H1891 0.930 . S
C1899 C1900 1.355 . S
C1899 C1901 1.415 . S
C1900 C1899 1.355 . S
C1900 C1902 1.419 . S
C1901 C1896 1.425 . S
C1901 C1898 1.409 . S
C1901 C1899 1.415 . S
C1902 H1892 0.930 . S
C1902 C1900 1.419 . S
C1902 C1903 1.362 . S
C1903 H1893 0.930 . S
C1903 C1896 1.409 . S
C1903 C1902 1.362 . S
H1904 C1910 0.930 . S
H1905 C1913 0.930 . S
H1906 C1914 0.930 . S
H1907 C1915 0.930 1_545 S
H1908 C1918 0.930 . S
H1909 C1919 0.930 . S
C1910 H1904 0.930 . S
C1910 C1911 1.355 . S
C1910 C1912 1.415 . S
C1911 C1910 1.355 . S
C1911 C1913 1.419 . S
C1912 C1910 1.415 . S
C1912 C1917 1.425 . S
C1912 C1919 1.409 . S
C1913 H1905 0.930 . S
C1913 C1911 1.419 . S
C1913 C1914 1.362 . S
C1914 H1906 0.930 . S
C1914 C1913 1.362 . S
C1914 C1917 1.409 . S
C1915 H1907 0.930 1_565 S
C1915 C1916 1.355 . S
C1915 C1917 1.415 . S
C1916 C1915 1.355 . S
C1916 C1918 1.419 . S
C1917 C1912 1.425 . S
C1917 C1914 1.409 . S
C1917 C1915 1.415 . S
C1918 H1908 0.930 . S
C1918 C1916 1.419 . S
C1918 C1919 1.362 . S
C1919 H1909 0.930 . S
C1919 C1912 1.409 . S
C1919 C1918 1.362 . S
H1920 C1926 0.930 . S
H1921 C1929 0.930 . S
H1922 C1930 0.930 . S
H1923 C1931 0.930 . S
H1924 C1934 0.930 . S
H1925 C1935 0.930 . S
C1926 H1920 0.930 . S
C1926 C1927 1.355 . S
C1926 C1928 1.415 . S
C1927 C1926 1.355 . S
C1927 C1929 1.419 . S
C1928 C1926 1.415 . S
C1928 C1933 1.425 . S
C1928 C1935 1.409 . S
C1929 H1921 0.930 . S
C1929 C1927 1.419 . S
C1929 C1930 1.362 . S
C1930 H1922 0.930 . S
C1930 C1929 1.362 . S
C1930 C1933 1.409 . S
C1931 H1923 0.930 . S
C1931 C1932 1.355 . S
C1931 C1933 1.415 . S
C1932 C1931 1.355 . S
C1932 C1934 1.419 . S
C1933 C1928 1.425 . S
C1933 C1930 1.409 . S
C1933 C1931 1.415 . S
C1934 H1924 0.930 . S
C1934 C1932 1.419 . S
C1934 C1935 1.362 . S
C1935 H1925 0.930 . S
C1935 C1928 1.409 . S
C1935 C1934 1.362 . S
H1936 C1942 0.930 . S
H1937 C1945 0.930 . S
H1938 C1946 0.930 . S
H1939 C1947 0.930 . S
H1940 C1950 0.930 . S
H1941 C1951 0.930 . S
C1942 H1936 0.930 . S
C1942 C1943 1.355 . S
C1942 C1944 1.415 . S
C1943 C1942 1.355 . S
C1943 C1945 1.419 . S
C1944 C1942 1.415 . S
C1944 C1949 1.425 . S
C1944 C1951 1.409 . S
C1945 H1937 0.930 . S
C1945 C1943 1.419 . S
C1945 C1946 1.362 . S
C1946 H1938 0.930 . S
C1946 C1945 1.362 . S
C1946 C1949 1.409 . S
C1947 H1939 0.930 . S
C1947 C1948 1.355 . S
C1947 C1949 1.415 . S
C1948 C1947 1.355 . S
C1948 C1950 1.419 . S
C1949 C1944 1.425 . S
C1949 C1946 1.409 . S
C1949 C1947 1.415 . S
C1950 H1940 0.930 . S
C1950 C1948 1.419 . S
C1950 C1951 1.362 . S
C1951 H1941 0.930 . S
C1951 C1944 1.409 . S
C1951 C1950 1.362 . S
H1952 C1958 0.930 . S
H1953 C1961 0.930 . S
H1954 C1962 0.930 . S
H1955 C1963 0.930 . S
H1956 C1966 0.930 . S
H1957 C1967 0.930 . S
C1958 H1952 0.930 . S
C1958 C1959 1.355 . S
C1958 C1960 1.415 . S
C1959 C1958 1.355 . S
C1959 C1961 1.419 . S
C1960 C1958 1.415 . S
C1960 C1965 1.425 . S
C1960 C1967 1.409 . S
C1961 H1953 0.930 . S
C1961 C1959 1.419 . S
C1961 C1962 1.362 . S
C1962 H1954 0.930 . S
C1962 C1961 1.362 . S
C1962 C1965 1.409 . S
C1963 H1955 0.930 . S
C1963 C1964 1.355 . S
C1963 C1965 1.415 . S
C1964 C1963 1.355 . S
C1964 C1966 1.419 . S
C1965 C1960 1.425 . S
C1965 C1962 1.409 . S
C1965 C1963 1.415 . S
C1966 H1956 0.930 . S
C1966 C1964 1.419 . S
C1966 C1967 1.362 . S
C1967 H1957 0.930 . S
C1967 C1960 1.409 . S
C1967 C1966 1.362 . S
H1968 C1974 0.930 . S
H1969 C1977 0.930 . S
H1970 C1978 0.930 . S
H1971 C1979 0.930 . S
H1972 C1982 0.930 . S
H1973 C1983 0.930 . S
C1974 H1968 0.930 . S
C1974 C1975 1.355 . S
C1974 C1976 1.415 . S
C1975 C1974 1.355 . S
C1975 C1977 1.419 . S
C1976 C1974 1.415 . S
C1976 C1981 1.425 . S
C1976 C1983 1.409 . S
C1977 H1969 0.930 . S
C1977 C1975 1.419 . S
C1977 C1978 1.362 . S
C1978 H1970 0.930 . S
C1978 C1977 1.362 . S
C1978 C1981 1.409 . S
C1979 H1971 0.930 . S
C1979 C1980 1.355 . S
C1979 C1981 1.415 . S
C1980 C1979 1.355 . S
C1980 C1982 1.419 . S
C1981 C1976 1.425 . S
C1981 C1978 1.409 . S
C1981 C1979 1.415 . S
C1982 H1972 0.930 . S
C1982 C1980 1.419 . S
C1982 C1983 1.362 . S
C1983 H1973 0.930 . S
C1983 C1976 1.409 . S
C1983 C1982 1.362 . S
H1984 C1990 0.930 . S
H1985 C1993 0.930 . S
H1986 C1994 0.930 . S
H1987 C1995 0.930 . S
H1988 C1998 0.930 . S
H1989 C1999 0.930 . S
C1990 H1984 0.930 . S
C1990 C1991 1.355 1_655 S
C1990 C1992 1.414 . S
C1991 C1990 1.355 1_455 S
C1991 C1993 1.419 . S
C1992 C1990 1.414 . S
C1992 C1997 1.421 1_655 S
C1992 C1999 1.414 . S
C1993 H1985 0.930 . S
C1993 C1991 1.419 . S
C1993 C1994 1.362 . S
C1994 H1986 0.930 . S
C1994 C1993 1.362 . S
C1994 C1997 1.409 . S
C1995 H1987 0.930 . S
C1995 C1996 1.355 . S
C1995 C1997 1.415 . S
C1996 C1995 1.355 . S
C1996 C1998 1.419 1_455 S
C1997 C1992 1.421 1_455 S
C1997 C1994 1.409 . S
C1997 C1995 1.415 . S
C1998 H1988 0.930 . S
C1998 C1996 1.419 1_655 S
C1998 C1999 1.362 . S
C1999 H1989 0.930 . S
C1999 C1992 1.414 . S
C1999 C1998 1.362 . S
H2000 C2006 0.930 . S
H2001 C2009 0.930 . S
H2002 C2010 0.930 . S
H2003 C2011 0.930 . S
H2004 C2014 0.930 . S
H2005 C2015 0.930 . S
C2006 H2000 0.930 . S
C2006 C2007 1.355 . S
C2006 C2008 1.415 . S
C2007 C2006 1.355 . S
C2007 C2009 1.419 . S
C2008 C2006 1.415 . S
C2008 C2013 1.425 . S
C2008 C2015 1.409 . S
C2009 H2001 0.930 . S
C2009 C2007 1.419 . S
C2009 C2010 1.362 . S
C2010 H2002 0.930 . S
C2010 C2009 1.362 . S
C2010 C2013 1.409 . S
C2011 H2003 0.930 . S
C2011 C2012 1.355 . S
C2011 C2013 1.415 . S
C2012 C2011 1.355 . S
C2012 C2014 1.419 . S
C2013 C2008 1.425 . S
C2013 C2010 1.409 . S
C2013 C2011 1.415 . S
C2014 H2004 0.930 . S
C2014 C2012 1.419 . S
C2014 C2015 1.362 . S
C2015 H2005 0.930 . S
C2015 C2008 1.409 . S
C2015 C2014 1.362 . S
H2016 C2022 0.930 . S
H2017 C2025 0.930 . S
H2018 C2026 0.930 . S
H2019 C2027 0.930 . S
H2020 C2030 0.930 . S
H2021 C2031 0.930 . S
C2022 H2016 0.930 . S
C2022 C2023 1.355 . S
C2022 C2024 1.415 . S
C2023 C2022 1.355 . S
C2023 C2025 1.419 . S
C2024 C2022 1.415 . S
C2024 C2029 1.425 . S
C2024 C2031 1.409 . S
C2025 H2017 0.930 . S
C2025 C2023 1.419 . S
C2025 C2026 1.362 . S
C2026 H2018 0.930 . S
C2026 C2025 1.362 . S
C2026 C2029 1.409 . S
C2027 H2019 0.930 . S
C2027 C2028 1.355 . S
C2027 C2029 1.415 . S
C2028 C2027 1.355 . S
C2028 C2030 1.419 . S
C2029 C2024 1.425 . S
C2029 C2026 1.409 . S
C2029 C2027 1.415 . S
C2030 H2020 0.930 . S
C2030 C2028 1.419 . S
C2030 C2031 1.362 . S
C2031 H2021 0.930 . S
C2031 C2024 1.409 . S
C2031 C2030 1.362 . S
H2032 C2038 0.930 . S
H2033 C2041 0.930 . S
H2034 C2042 0.930 . S
H2035 C2043 0.930 . S
H2036 C2046 0.930 . S
H2037 C2047 0.930 . S
C2038 H2032 0.930 . S
C2038 C2039 1.355 . S
C2038 C2040 1.415 . S
C2039 C2038 1.355 . S
C2039 C2041 1.419 . S
C2040 C2038 1.415 . S
C2040 C2045 1.425 . S
C2040 C2047 1.409 . S
C2041 H2033 0.930 . S
C2041 C2039 1.419 . S
C2041 C2042 1.362 . S
C2042 H2034 0.930 . S
C2042 C2041 1.362 . S
C2042 C2045 1.409 . S
C2043 H2035 0.930 . S
C2043 C2044 1.355 . S
C2043 C2045 1.415 . S
C2044 C2043 1.355 . S
C2044 C2046 1.419 . S
C2045 C2040 1.425 . S
C2045 C2042 1.409 . S
C2045 C2043 1.415 . S
C2046 H2036 0.930 . S
C2046 C2044 1.419 . S
C2046 C2047 1.362 . S
C2047 H2037 0.930 . S
C2047 C2040 1.409 . S
C2047 C2046 1.362 . S
H2048 C2054 0.930 . S
H2049 C2057 0.930 . S
H2050 C2058 0.930 . S
H2051 C2059 0.930 . S
H2052 C2062 0.930 . S
H2053 C2063 0.930 . S
C2054 H2048 0.930 . S
C2054 C2055 1.355 . S
C2054 C2056 1.415 . S
C2055 C2054 1.355 . S
C2055 C2057 1.419 1_655 S
C2056 C2054 1.415 . S
C2056 C2061 1.424 1_655 S
C2056 C2063 1.409 . S
C2057 H2049 0.930 . S
C2057 C2055 1.419 1_455 S
C2057 C2058 1.362 . S
C2058 H2050 0.930 . S
C2058 C2057 1.362 . S
C2058 C2061 1.409 . S
C2059 H2051 0.930 . S
C2059 C2060 1.355 1_455 S
C2059 C2061 1.416 . S
C2060 C2059 1.355 1_655 S
C2060 C2062 1.419 . S
C2061 C2056 1.424 1_455 S
C2061 C2058 1.409 . S
C2061 C2059 1.416 . S
C2062 H2052 0.930 . S
C2062 C2060 1.419 . S
C2062 C2063 1.362 . S
C2063 H2053 0.930 . S
C2063 C2056 1.409 . S
C2063 C2062 1.362 . S
H2064 C2070 0.930 . S
H2065 C2073 0.930 . S
H2066 C2074 0.930 . S
H2067 C2075 0.930 . S
H2068 C2078 0.930 . S
H2069 C2079 0.930 . S
C2070 H2064 0.930 . S
C2070 C2071 1.355 . S
C2070 C2072 1.415 . S
C2071 C2070 1.355 . S
C2071 C2073 1.419 . S
C2072 C2070 1.415 . S
C2072 C2077 1.425 . S
C2072 C2079 1.409 . S
C2073 H2065 0.930 . S
C2073 C2071 1.419 . S
C2073 C2074 1.362 . S
C2074 H2066 0.930 . S
C2074 C2073 1.362 . S
C2074 C2077 1.409 . S
C2075 H2067 0.930 . S
C2075 C2076 1.355 . S
C2075 C2077 1.415 . S
C2076 C2075 1.355 . S
C2076 C2078 1.419 . S
C2077 C2072 1.425 . S
C2077 C2074 1.409 . S
C2077 C2075 1.415 . S
C2078 H2068 0.930 . S
C2078 C2076 1.419 . S
C2078 C2079 1.362 . S
C2079 H2069 0.930 . S
C2079 C2072 1.409 . S
C2079 C2078 1.362 . S
H2080 C2086 0.930 . S
H2081 C2089 0.930 . S
H2082 C2090 0.930 . S
H2083 C2091 0.930 . S
H2084 C2094 0.930 . S
H2085 C2095 0.930 . S
C2086 H2080 0.930 . S
C2086 C2087 1.355 . S
C2086 C2088 1.415 . S
C2087 C2086 1.355 . S
C2087 C2089 1.419 . S
C2088 C2086 1.415 . S
C2088 C2093 1.425 . S
C2088 C2095 1.409 . S
C2089 H2081 0.930 . S
C2089 C2087 1.419 . S
C2089 C2090 1.362 . S
C2090 H2082 0.930 . S
C2090 C2089 1.362 . S
C2090 C2093 1.409 . S
C2091 H2083 0.930 . S
C2091 C2092 1.355 . S
C2091 C2093 1.415 . S
C2092 C2091 1.355 . S
C2092 C2094 1.419 . S
C2093 C2088 1.425 . S
C2093 C2090 1.409 . S
C2093 C2091 1.415 . S
C2094 H2084 0.930 . S
C2094 C2092 1.419 . S
C2094 C2095 1.362 . S
C2095 H2085 0.930 . S
C2095 C2088 1.409 . S
C2095 C2094 1.362 . S
H2096 C2102 0.930 . S
H2097 C2105 0.930 . S
H2098 C2106 0.930 . S
H2099 C2107 0.930 . S
H2100 C2110 0.930 . S
H2101 C2111 0.930 . S
C2102 H2096 0.930 . S
C2102 C2103 1.355 . S
C2102 C2104 1.415 . S
C2103 C2102 1.355 . S
C2103 C2105 1.419 . S
C2104 C2102 1.415 . S
C2104 C2109 1.425 . S
C2104 C2111 1.409 . S
C2105 H2097 0.930 . S
C2105 C2103 1.419 . S
C2105 C2106 1.362 . S
C2106 H2098 0.930 . S
C2106 C2105 1.362 . S
C2106 C2109 1.409 . S
C2107 H2099 0.930 . S
C2107 C2108 1.355 . S
C2107 C2109 1.415 . S
C2108 C2107 1.355 . S
C2108 C2110 1.419 . S
C2109 C2104 1.425 . S
C2109 C2106 1.409 . S
C2109 C2107 1.415 . S
C2110 H2100 0.930 . S
C2110 C2108 1.419 . S
C2110 C2111 1.362 . S
C2111 H2101 0.930 . S
C2111 C2104 1.409 . S
C2111 C2110 1.362 . S
H2112 C2118 0.930 . S
H2113 C2121 0.930 . S
H2114 C2122 0.930 . S
H2115 C2123 0.930 . S
H2116 C2126 0.930 . S
H2117 C2127 0.930 . S
C2118 H2112 0.930 . S
C2118 C2119 1.355 . S
C2118 C2120 1.415 . S
C2119 C2118 1.355 . S
C2119 C2121 1.419 . S
C2120 C2118 1.415 . S
C2120 C2125 1.425 . S
C2120 C2127 1.409 . S
C2121 H2113 0.930 . S
C2121 C2119 1.419 . S
C2121 C2122 1.362 . S
C2122 H2114 0.930 . S
C2122 C2121 1.362 . S
C2122 C2125 1.409 . S
C2123 H2115 0.930 . S
C2123 C2124 1.355 . S
C2123 C2125 1.415 . S
C2124 C2123 1.355 . S
C2124 C2126 1.419 . S
C2125 C2120 1.425 . S
C2125 C2122 1.409 . S
C2125 C2123 1.415 . S
C2126 H2116 0.930 . S
C2126 C2124 1.419 . S
C2126 C2127 1.362 . S
C2127 H2117 0.930 . S
C2127 C2120 1.409 . S
C2127 C2126 1.362 . S
H2128 C2134 0.930 . S
H2129 C2137 0.930 . S
H2130 C2138 0.930 . S
H2131 C2139 0.930 . S
H2132 C2142 0.930 . S
H2133 C2143 0.930 . S
C2134 H2128 0.930 . S
C2134 C2135 1.355 . S
C2134 C2136 1.415 . S
C2135 C2134 1.355 . S
C2135 C2137 1.419 . S
C2136 C2134 1.415 . S
C2136 C2141 1.425 . S
C2136 C2143 1.409 . S
C2137 H2129 0.930 . S
C2137 C2135 1.419 . S
C2137 C2138 1.362 . S
C2138 H2130 0.930 . S
C2138 C2137 1.362 . S
C2138 C2141 1.409 . S
C2139 H2131 0.930 . S
C2139 C2140 1.355 . S
C2139 C2141 1.415 . S
C2140 C2139 1.355 . S
C2140 C2142 1.419 . S
C2141 C2136 1.425 . S
C2141 C2138 1.409 . S
C2141 C2139 1.415 . S
C2142 H2132 0.930 . S
C2142 C2140 1.419 . S
C2142 C2143 1.362 . S
C2143 H2133 0.930 . S
C2143 C2136 1.409 . S
C2143 C2142 1.362 . S
H2144 C2150 0.930 . S
H2145 C2153 0.930 . S
H2146 C2154 0.930 . S
H2147 C2155 0.930 . S
H2148 C2158 0.930 . S
H2149 C2159 0.930 . S
C2150 H2144 0.930 . S
C2150 C2151 1.355 . S
C2150 C2152 1.415 . S
C2151 C2150 1.355 . S
C2151 C2153 1.419 . S
C2152 C2150 1.415 . S
C2152 C2157 1.425 . S
C2152 C2159 1.409 . S
C2153 H2145 0.930 . S
C2153 C2151 1.419 . S
C2153 C2154 1.362 . S
C2154 H2146 0.930 . S
C2154 C2153 1.362 . S
C2154 C2157 1.409 . S
C2155 H2147 0.930 . S
C2155 C2156 1.355 . S
C2155 C2157 1.415 . S
C2156 C2155 1.355 . S
C2156 C2158 1.419 . S
C2157 C2152 1.425 . S
C2157 C2154 1.409 . S
C2157 C2155 1.415 . S
C2158 H2148 0.930 . S
C2158 C2156 1.419 . S
C2158 C2159 1.362 . S
C2159 H2149 0.930 . S
C2159 C2152 1.409 . S
C2159 C2158 1.362 . S
H2160 C2166 0.930 . S
H2161 C2169 0.930 . S
H2162 C2170 0.930 . S
H2163 C2171 0.930 . S
H2164 C2174 0.930 . S
H2165 C2175 0.930 . S
C2166 H2160 0.930 . S
C2166 C2167 1.355 . S
C2166 C2168 1.415 . S
C2167 C2166 1.355 . S
C2167 C2169 1.419 . S
C2168 C2166 1.415 . S
C2168 C2173 1.425 . S
C2168 C2175 1.409 . S
C2169 H2161 0.930 . S
C2169 C2167 1.419 . S
C2169 C2170 1.362 . S
C2170 H2162 0.930 . S
C2170 C2169 1.362 . S
C2170 C2173 1.409 . S
C2171 H2163 0.930 . S
C2171 C2172 1.355 . S
C2171 C2173 1.415 . S
C2172 C2171 1.355 . S
C2172 C2174 1.419 . S
C2173 C2168 1.425 . S
C2173 C2170 1.409 . S
C2173 C2171 1.415 . S
C2174 H2164 0.930 . S
C2174 C2172 1.419 . S
C2174 C2175 1.362 . S
C2175 H2165 0.930 . S
C2175 C2168 1.409 . S
C2175 C2174 1.362 . S
H2176 C2182 0.930 . S
H2177 C2185 0.930 . S
H2178 C2186 0.930 . S
H2179 C2187 0.930 . S
H2180 C2190 0.930 . S
H2181 C2191 0.930 . S
C2182 H2176 0.930 . S
C2182 C2183 1.355 . S
C2182 C2184 1.415 . S
C2183 C2182 1.355 . S
C2183 C2185 1.419 . S
C2184 C2182 1.415 . S
C2184 C2189 1.425 . S
C2184 C2191 1.409 . S
C2185 H2177 0.930 . S
C2185 C2183 1.419 . S
C2185 C2186 1.362 . S
C2186 H2178 0.930 . S
C2186 C2185 1.362 . S
C2186 C2189 1.409 . S
C2187 H2179 0.930 . S
C2187 C2188 1.355 . S
C2187 C2189 1.415 . S
C2188 C2187 1.355 . S
C2188 C2190 1.419 . S
C2189 C2184 1.425 . S
C2189 C2186 1.409 . S
C2189 C2187 1.415 . S
C2190 H2180 0.930 . S
C2190 C2188 1.419 . S
C2190 C2191 1.362 . S
C2191 H2181 0.930 . S
C2191 C2184 1.409 . S
C2191 C2190 1.362 . S
H2192 C2198 0.930 . S
H2193 C2201 0.930 . S
H2194 C2202 0.930 . S
H2195 C2203 0.930 . S
H2196 C2206 0.930 . S
H2197 C2207 0.930 . S
C2198 H2192 0.930 . S
C2198 C2199 1.355 . S
C2198 C2200 1.415 . S
C2199 C2198 1.355 . S
C2199 C2201 1.419 . S
C2200 C2198 1.415 . S
C2200 C2205 1.425 . S
C2200 C2207 1.409 . S
C2201 H2193 0.930 . S
C2201 C2199 1.419 . S
C2201 C2202 1.362 . S
C2202 H2194 0.930 . S
C2202 C2201 1.362 . S
C2202 C2205 1.409 . S
C2203 H2195 0.930 . S
C2203 C2204 1.355 . S
C2203 C2205 1.415 . S
C2204 C2203 1.355 . S
C2204 C2206 1.419 . S
C2205 C2200 1.425 . S
C2205 C2202 1.409 . S
C2205 C2203 1.415 . S
C2206 H2196 0.930 . S
C2206 C2204 1.419 . S
C2206 C2207 1.362 . S
C2207 H2197 0.930 . S
C2207 C2200 1.409 . S
C2207 C2206 1.362 . S
H2208 C2214 0.930 . S
H2209 C2217 0.930 . S
H2210 C2218 0.930 . S
H2211 C2219 0.930 . S
H2212 C2222 0.930 . S
H2213 C2223 0.930 . S
C2214 H2208 0.930 . S
C2214 C2215 1.355 . S
C2214 C2216 1.415 . S
C2215 C2214 1.355 . S
C2215 C2217 1.419 . S
C2216 C2214 1.415 . S
C2216 C2221 1.425 . S
C2216 C2223 1.409 . S
C2217 H2209 0.930 . S
C2217 C2215 1.419 . S
C2217 C2218 1.362 . S
C2218 H2210 0.930 . S
C2218 C2217 1.362 . S
C2218 C2221 1.409 . S
C2219 H2211 0.930 . S
C2219 C2220 1.355 . S
C2219 C2221 1.415 . S
C2220 C2219 1.355 . S
C2220 C2222 1.419 . S
C2221 C2216 1.425 . S
C2221 C2218 1.409 . S
C2221 C2219 1.415 . S
C2222 H2212 0.930 . S
C2222 C2220 1.419 . S
C2222 C2223 1.362 . S
C2223 H2213 0.930 . S
C2223 C2216 1.409 . S
C2223 C2222 1.362 . S
H2224 C2230 0.930 . S
H2225 C2233 0.930 . S
H2226 C2234 0.930 . S
H2227 C2235 0.930 . S
H2228 C2238 0.930 . S
H2229 C2239 0.930 . S
C2230 H2224 0.930 . S
C2230 C2231 1.355 . S
C2230 C2232 1.415 . S
C2231 C2230 1.355 . S
C2231 C2233 1.419 . S
C2232 C2230 1.415 . S
C2232 C2237 1.425 . S
C2232 C2239 1.409 . S
C2233 H2225 0.930 . S
C2233 C2231 1.419 . S
C2233 C2234 1.362 . S
C2234 H2226 0.930 . S
C2234 C2233 1.362 . S
C2234 C2237 1.409 . S
C2235 H2227 0.930 . S
C2235 C2236 1.355 . S
C2235 C2237 1.415 . S
C2236 C2235 1.355 . S
C2236 C2238 1.419 . S
C2237 C2232 1.425 . S
C2237 C2234 1.409 . S
C2237 C2235 1.415 . S
C2238 H2228 0.930 . S
C2238 C2236 1.419 . S
C2238 C2239 1.362 . S
C2239 H2229 0.930 . S
C2239 C2232 1.409 . S
C2239 C2238 1.362 . S
H2240 C2246 0.930 . S
H2241 C2249 0.930 . S
H2242 C2250 0.930 . S
H2243 C2251 0.930 . S
H2244 C2254 0.930 . S
H2245 C2255 0.930 . S
C2246 H2240 0.930 . S
C2246 C2247 1.355 . S
C2246 C2248 1.415 . S
C2247 C2246 1.355 . S
C2247 C2249 1.419 . S
C2248 C2246 1.415 . S
C2248 C2253 1.425 . S
C2248 C2255 1.409 . S
C2249 H2241 0.930 . S
C2249 C2247 1.419 . S
C2249 C2250 1.362 . S
C2250 H2242 0.930 . S
C2250 C2249 1.362 . S
C2250 C2253 1.409 . S
C2251 H2243 0.930 . S
C2251 C2252 1.355 . S
C2251 C2253 1.415 . S
C2252 C2251 1.355 . S
C2252 C2254 1.419 . S
C2253 C2248 1.425 . S
C2253 C2250 1.409 . S
C2253 C2251 1.415 . S
C2254 H2244 0.930 . S
C2254 C2252 1.419 . S
C2254 C2255 1.362 . S
C2255 H2245 0.930 . S
C2255 C2248 1.409 . S
C2255 C2254 1.362 . S
H2256 C2262 0.930 . S
H2257 C2265 0.930 1_556 S
H2258 C2266 0.930 . S
H2259 C2267 0.930 1_556 S
H2260 C2270 0.930 1_545 S
H2261 C2271 0.930 . S
C2262 H2256 0.930 . S
C2262 C2263 1.355 . S
C2262 C2264 1.415 . S
C2263 C2262 1.355 . S
C2263 C2265 1.419 . S
C2264 C2262 1.415 . S
C2264 C2269 1.425 . S
C2264 C2271 1.409 . S
C2265 H2257 0.930 1_554 S
C2265 C2263 1.419 . S
C2265 C2266 1.362 1_554 S
C2266 H2258 0.930 . S
C2266 C2265 1.362 1_556 S
C2266 C2269 1.409 1_556 S
C2267 H2259 0.930 1_554 S
C2267 C2268 1.350 1_565 S
C2267 C2269 1.415 . S
C2268 C2267 1.350 1_545 S
C2268 C2270 1.414 1_545 S
C2269 C2264 1.425 . S
C2269 C2266 1.409 1_554 S
C2269 C2267 1.415 . S
C2270 H2260 0.930 1_565 S
C2270 C2268 1.414 1_565 S
C2270 C2271 1.362 . S
C2271 H2261 0.930 . S
C2271 C2264 1.409 . S
C2271 C2270 1.362 . S
H2272 C2278 0.930 . S
H2273 C2281 0.930 . S
H2274 C2282 0.930 . S
H2275 C2283 0.930 . S
H2276 C2286 0.930 . S
H2277 C2287 0.930 . S
C2278 H2272 0.930 . S
C2278 C2279 1.355 . S
C2278 C2280 1.415 . S
C2279 C2278 1.355 . S
C2279 C2281 1.419 . S
C2280 C2278 1.415 . S
C2280 C2285 1.425 . S
C2280 C2287 1.409 . S
C2281 H2273 0.930 . S
C2281 C2279 1.419 . S
C2281 C2282 1.362 . S
C2282 H2274 0.930 . S
C2282 C2281 1.362 . S
C2282 C2285 1.409 . S
C2283 H2275 0.930 . S
C2283 C2284 1.355 . S
C2283 C2285 1.415 . S
C2284 C2283 1.355 . S
C2284 C2286 1.419 . S
C2285 C2280 1.425 . S
C2285 C2282 1.409 . S
C2285 C2283 1.415 . S
C2286 H2276 0.930 . S
C2286 C2284 1.419 . S
C2286 C2287 1.362 . S
C2287 H2277 0.930 . S
C2287 C2280 1.409 . S
C2287 C2286 1.362 . S
H2288 C2294 0.930 . S
H2289 C2297 0.930 . S
H2290 C2298 0.930 . S
H2291 C2299 0.930 1_556 S
H2292 C2302 0.930 . S
H2293 C2303 0.930 . S
C2294 H2288 0.930 . S
C2294 C2295 1.355 . S
C2294 C2296 1.415 . S
C2295 C2294 1.355 . S
C2295 C2297 1.419 1_554 S
C2296 C2294 1.415 . S
C2296 C2301 1.425 . S
C2296 C2303 1.409 . S
C2297 H2289 0.930 . S
C2297 C2295 1.419 1_556 S
C2297 C2298 1.362 . S
C2298 H2290 0.930 . S
C2298 C2297 1.362 . S
C2298 C2301 1.409 1_556 S
C2299 H2291 0.930 1_554 S
C2299 C2300 1.355 . S
C2299 C2301 1.415 . S
C2300 C2299 1.355 . S
C2300 C2302 1.419 . S
C2301 C2296 1.425 . S
C2301 C2298 1.409 1_554 S
C2301 C2299 1.415 . S
C2302 H2292 0.930 . S
C2302 C2300 1.419 . S
C2302 C2303 1.362 . S
C2303 H2293 0.930 . S
C2303 C2296 1.409 . S
C2303 C2302 1.362 . S
H2304 C2310 0.930 . S
H2305 C2313 0.930 . S
H2306 C2314 0.930 . S
H2307 C2315 0.930 . S
H2308 C2318 0.930 . S
H2309 C2319 0.930 . S
C2310 H2304 0.930 . S
C2310 C2311 1.355 . S
C2310 C2312 1.415 . S
C2311 C2310 1.355 . S
C2311 C2313 1.419 . S
C2312 C2310 1.415 . S
C2312 C2317 1.425 . S
C2312 C2319 1.409 . S
C2313 H2305 0.930 . S
C2313 C2311 1.419 . S
C2313 C2314 1.362 . S
C2314 H2306 0.930 . S
C2314 C2313 1.362 . S
C2314 C2317 1.409 . S
C2315 H2307 0.930 . S
C2315 C2316 1.355 . S
C2315 C2317 1.415 . S
C2316 C2315 1.355 . S
C2316 C2318 1.419 . S
C2317 C2312 1.425 . S
C2317 C2314 1.409 . S
C2317 C2315 1.415 . S
C2318 H2308 0.930 . S
C2318 C2316 1.419 . S
C2318 C2319 1.362 . S
C2319 H2309 0.930 . S
C2319 C2312 1.409 . S
C2319 C2318 1.362 . S
H2320 C2326 0.930 . S
H2321 C2329 0.938 . S
H2322 C2330 0.930 . S
H2323 C2331 0.930 . S
H2324 C2334 0.930 . S
H2325 C2335 0.930 . S
C2326 H2320 0.930 . S
C2326 C2327 1.355 . S
C2326 C2328 1.415 . S
C2327 C2326 1.355 . S
C2327 C2329 1.419 . S
C2328 C2326 1.415 . S
C2328 C2333 1.425 . S
C2328 C2335 1.409 . S
C2329 H2321 0.938 . S
C2329 C2327 1.419 . S
C2329 C2330 1.362 . S
C2330 H2322 0.930 . S
C2330 C2329 1.362 . S
C2330 C2333 1.409 . S
C2331 H2323 0.930 . S
C2331 C2332 1.355 . S
C2331 C2333 1.415 . S
C2332 C2331 1.355 . S
C2332 C2334 1.419 . S
C2333 C2328 1.425 . S
C2333 C2330 1.409 . S
C2333 C2331 1.415 . S
C2334 H2324 0.930 . S
C2334 C2332 1.419 . S
C2334 C2335 1.362 . S
C2335 H2325 0.930 . S
C2335 C2328 1.409 . S
C2335 C2334 1.362 . S
H2336 C2342 0.930 . S
H2337 C2345 0.930 . S
H2338 C2346 0.930 . S
H2339 C2347 0.930 . S
H2340 C2350 0.930 . S
H2341 C2351 0.930 . S
C2342 H2336 0.930 . S
C2342 C2343 1.355 . S
C2342 C2344 1.415 . S
C2343 C2342 1.355 . S
C2343 C2345 1.419 . S
C2344 C2342 1.415 . S
C2344 C2349 1.425 . S
C2344 C2351 1.409 . S
C2345 H2337 0.930 . S
C2345 C2343 1.419 . S
C2345 C2346 1.362 . S
C2346 H2338 0.930 . S
C2346 C2345 1.362 . S
C2346 C2349 1.409 . S
C2347 H2339 0.930 . S
C2347 C2348 1.355 . S
C2347 C2349 1.415 . S
C2348 C2347 1.355 . S
C2348 C2350 1.419 . S
C2349 C2344 1.425 . S
C2349 C2346 1.409 . S
C2349 C2347 1.415 . S
C2350 H2340 0.930 . S
C2350 C2348 1.419 . S
C2350 C2351 1.362 . S
C2351 H2341 0.930 . S
C2351 C2344 1.409 . S
C2351 C2350 1.362 . S
H2352 C2358 0.930 . S
H2353 C2361 0.930 . S
H2354 C2362 0.930 . S
H2355 C2363 0.930 . S
H2356 C2366 0.930 . S
H2357 C2367 0.930 . S
C2358 H2352 0.930 . S
C2358 C2359 1.355 . S
C2358 C2360 1.415 . S
C2359 C2358 1.355 . S
C2359 C2361 1.419 . S
C2360 C2358 1.415 . S
C2360 C2365 1.425 . S
C2360 C2367 1.409 . S
C2361 H2353 0.930 . S
C2361 C2359 1.419 . S
C2361 C2362 1.362 . S
C2362 H2354 0.930 . S
C2362 C2361 1.362 . S
C2362 C2365 1.409 . S
C2363 H2355 0.930 . S
C2363 C2364 1.355 . S
C2363 C2365 1.415 . S
C2364 C2363 1.355 . S
C2364 C2366 1.419 . S
C2365 C2360 1.425 . S
C2365 C2362 1.409 . S
C2365 C2363 1.415 . S
C2366 H2356 0.930 . S
C2366 C2364 1.419 . S
C2366 C2367 1.362 . S
C2367 H2357 0.930 . S
C2367 C2360 1.409 . S
C2367 C2366 1.362 . S
H2368 C2374 0.930 . S
H2369 C2377 0.930 . S
H2370 C2378 0.930 . S
H2371 C2379 0.930 . S
H2372 C2382 0.930 . S
H2373 C2383 0.930 . S
C2374 H2368 0.930 . S
C2374 C2375 1.355 1_655 S
C2374 C2376 1.415 . S
C2375 C2374 1.355 1_455 S
C2375 C2377 1.419 . S
C2376 C2374 1.415 . S
C2376 C2381 1.425 1_655 S
C2376 C2383 1.409 . S
C2377 H2369 0.930 . S
C2377 C2375 1.419 . S
C2377 C2378 1.362 . S
C2378 H2370 0.930 . S
C2378 C2377 1.362 . S
C2378 C2381 1.409 . S
C2379 H2371 0.930 . S
C2379 C2380 1.355 . S
C2379 C2381 1.415 . S
C2380 C2379 1.355 . S
C2380 C2382 1.419 1_455 S
C2381 C2376 1.425 1_455 S
C2381 C2378 1.409 . S
C2381 C2379 1.415 . S
C2382 H2372 0.930 . S
C2382 C2380 1.419 1_655 S
C2382 C2383 1.362 . S
C2383 H2373 0.930 . S
C2383 C2376 1.409 . S
C2383 C2382 1.362 . S
H2384 C2390 0.930 . S
H2385 C2393 0.930 . S
H2386 C2394 0.930 . S
H2387 C2395 0.930 . S
H2388 C2398 0.930 . S
H2389 C2399 0.930 . S
C2390 H2384 0.930 . S
C2390 C2391 1.355 . S
C2390 C2392 1.415 . S
C2391 C2390 1.355 . S
C2391 C2393 1.419 . S
C2392 C2390 1.415 . S
C2392 C2397 1.425 . S
C2392 C2399 1.409 . S
C2393 H2385 0.930 . S
C2393 C2391 1.419 . S
C2393 C2394 1.362 . S
C2394 H2386 0.930 . S
C2394 C2393 1.362 . S
C2394 C2397 1.409 . S
C2395 H2387 0.930 . S
C2395 C2396 1.355 . S
C2395 C2397 1.415 . S
C2396 C2395 1.355 . S
C2396 C2398 1.419 . S
C2397 C2392 1.425 . S
C2397 C2394 1.409 . S
C2397 C2395 1.415 . S
C2398 H2388 0.930 . S
C2398 C2396 1.419 . S
C2398 C2399 1.362 . S
C2399 H2389 0.930 . S
C2399 C2392 1.409 . S
C2399 C2398 1.362 . S
H2400 C2406 0.930 . S
H2401 C2409 0.930 . S
H2402 C2410 0.930 . S
H2403 C2411 0.930 1_554 S
H2404 C2414 0.930 . S
H2405 C2415 0.930 . S
C2406 H2400 0.930 . S
C2406 C2407 1.355 . S
C2406 C2408 1.415 . S
C2407 C2406 1.355 . S
C2407 C2409 1.419 . S
C2408 C2406 1.415 . S
C2408 C2413 1.425 . S
C2408 C2415 1.409 . S
C2409 H2401 0.930 . S
C2409 C2407 1.419 . S
C2409 C2410 1.362 . S
C2410 H2402 0.930 . S
C2410 C2409 1.362 . S
C2410 C2413 1.409 . S
C2411 H2403 0.930 1_556 S
C2411 C2412 1.355 . S
C2411 C2413 1.415 . S
C2412 C2411 1.355 . S
C2412 C2414 1.419 . S
C2413 C2408 1.425 . S
C2413 C2410 1.409 . S
C2413 C2411 1.415 . S
C2414 H2404 0.930 . S
C2414 C2412 1.419 . S
C2414 C2415 1.362 . S
C2415 H2405 0.930 . S
C2415 C2408 1.409 . S
C2415 C2414 1.362 . S
H2416 C2422 0.930 . S
H2417 C2425 0.930 . S
H2418 C2426 0.930 . S
H2419 C2427 0.930 . S
H2420 C2430 0.930 . S
H2421 C2431 0.930 . S
C2422 H2416 0.930 . S
C2422 C2423 1.355 . S
C2422 C2424 1.415 . S
C2423 C2422 1.355 . S
C2423 C2425 1.419 . S
C2424 C2422 1.415 . S
C2424 C2429 1.425 . S
C2424 C2431 1.409 . S
C2425 H2417 0.930 . S
C2425 C2423 1.419 . S
C2425 C2426 1.362 . S
C2426 H2418 0.930 . S
C2426 C2425 1.362 . S
C2426 C2429 1.409 . S
C2427 H2419 0.930 . S
C2427 C2428 1.355 . S
C2427 C2429 1.415 . S
C2428 C2427 1.355 . S
C2428 C2430 1.419 . S
C2429 C2424 1.425 . S
C2429 C2426 1.409 . S
C2429 C2427 1.415 . S
C2430 H2420 0.930 . S
C2430 C2428 1.419 . S
C2430 C2431 1.362 . S
C2431 H2421 0.930 . S
C2431 C2424 1.409 . S
C2431 C2430 1.362 . S
H2432 C2438 0.930 1_655 S
H2433 C2441 0.930 . S
H2434 C2442 0.930 . S
H2435 C2443 0.930 . S
H2436 C2446 0.908 1_655 S
H2437 C2447 0.930 . S
C2438 H2432 0.930 1_455 S
C2438 C2439 1.355 . S
C2438 C2440 1.415 . S
C2439 C2438 1.355 . S
C2439 C2441 1.419 . S
C2440 C2438 1.415 . S
C2440 C2445 1.425 . S
C2440 C2447 1.409 1_455 S
C2441 H2433 0.930 . S
C2441 C2439 1.419 . S
C2441 C2442 1.362 . S
C2442 H2434 0.930 . S
C2442 C2441 1.362 . S
C2442 C2445 1.409 . S
C2443 H2435 0.930 . S
C2443 C2444 1.355 . S
C2443 C2445 1.415 . S
C2444 C2443 1.355 . S
C2444 C2446 1.438 . S
C2445 C2440 1.425 . S
C2445 C2442 1.409 . S
C2445 C2443 1.415 . S
C2446 H2436 0.908 1_455 S
C2446 C2444 1.438 . S
C2446 C2447 1.367 1_455 S
C2447 H2437 0.930 . S
C2447 C2440 1.409 1_655 S
C2447 C2446 1.367 1_655 S
H2448 C2454 0.930 . S
H2449 C2457 0.930 . S
H2450 C2458 0.930 . S
H2451 C2459 0.930 . S
H2452 C2462 0.930 . S
H2453 C2463 0.930 . S
C2454 H2448 0.930 . S
C2454 C2455 1.355 . S
C2454 C2456 1.415 . S
C2455 C2454 1.355 . S
C2455 C2457 1.419 . S
C2456 C2454 1.415 . S
C2456 C2461 1.425 . S
C2456 C2463 1.409 . S
C2457 H2449 0.930 . S
C2457 C2455 1.419 . S
C2457 C2458 1.362 . S
C2458 H2450 0.930 . S
C2458 C2457 1.362 . S
C2458 C2461 1.409 . S
C2459 H2451 0.930 . S
C2459 C2460 1.355 . S
C2459 C2461 1.415 . S
C2460 C2459 1.355 . S
C2460 C2462 1.419 . S
C2461 C2456 1.425 . S
C2461 C2458 1.409 . S
C2461 C2459 1.415 . S
C2462 H2452 0.930 . S
C2462 C2460 1.419 . S
C2462 C2463 1.362 . S
C2463 H2453 0.930 . S
C2463 C2456 1.409 . S
C2463 C2462 1.362 . S
H2464 C2470 0.930 . S
H2465 C2473 0.930 . S
H2466 C2474 0.930 . S
H2467 C2475 0.930 . S
H2468 C2478 0.930 . S
H2469 C2479 0.930 . S
C2470 H2464 0.930 . S
C2470 C2471 1.355 . S
C2470 C2472 1.415 . S
C2471 C2470 1.355 . S
C2471 C2473 1.419 . S
C2472 C2470 1.415 . S
C2472 C2477 1.425 . S
C2472 C2479 1.409 . S
C2473 H2465 0.930 . S
C2473 C2471 1.419 . S
C2473 C2474 1.362 . S
C2474 H2466 0.930 . S
C2474 C2473 1.362 . S
C2474 C2477 1.409 . S
C2475 H2467 0.930 . S
C2475 C2476 1.355 . S
C2475 C2477 1.415 . S
C2476 C2475 1.355 . S
C2476 C2478 1.419 . S
C2477 C2472 1.425 . S
C2477 C2474 1.409 . S
C2477 C2475 1.415 . S
C2478 H2468 0.930 . S
C2478 C2476 1.419 . S
C2478 C2479 1.362 . S
C2479 H2469 0.930 . S
C2479 C2472 1.409 . S
C2479 C2478 1.362 . S
H2480 C2486 0.930 . S
H2481 C2489 0.930 . S
H2482 C2490 0.930 . S
H2483 C2491 0.930 . S
H2484 C2494 0.930 . S
H2485 C2495 0.930 . S
C2486 H2480 0.930 . S
C2486 C2487 1.355 . S
C2486 C2488 1.415 . S
C2487 C2486 1.355 . S
C2487 C2489 1.419 . S
C2488 C2486 1.415 . S
C2488 C2493 1.425 . S
C2488 C2495 1.409 . S
C2489 H2481 0.930 . S
C2489 C2487 1.419 . S
C2489 C2490 1.362 . S
C2490 H2482 0.930 . S
C2490 C2489 1.362 . S
C2490 C2493 1.409 . S
C2491 H2483 0.930 . S
C2491 C2492 1.355 . S
C2491 C2493 1.415 . S
C2492 C2491 1.355 . S
C2492 C2494 1.419 . S
C2493 C2488 1.425 . S
C2493 C2490 1.409 . S
C2493 C2491 1.415 . S
C2494 H2484 0.930 . S
C2494 C2492 1.419 . S
C2494 C2495 1.362 . S
C2495 H2485 0.930 . S
C2495 C2488 1.409 . S
C2495 C2494 1.362 . S
H2496 C2502 0.930 . S
H2497 C2505 0.930 . S
H2498 C2506 0.930 . S
H2499 C2507 0.930 . S
H2500 C2510 0.930 . S
H2501 C2511 0.930 . S
C2502 H2496 0.930 . S
C2502 C2503 1.355 . S
C2502 C2504 1.415 . S
C2503 C2502 1.355 . S
C2503 C2505 1.419 . S
C2504 C2502 1.415 . S
C2504 C2509 1.425 . S
C2504 C2511 1.409 1_655 S
C2505 H2497 0.930 . S
C2505 C2503 1.419 . S
C2505 C2506 1.362 . S
C2506 H2498 0.930 . S
C2506 C2505 1.362 . S
C2506 C2509 1.409 . S
C2507 H2499 0.930 . S
C2507 C2508 1.355 . S
C2507 C2509 1.415 . S
C2508 C2507 1.355 . S
C2508 C2510 1.419 1_655 S
C2509 C2504 1.425 . S
C2509 C2506 1.409 . S
C2509 C2507 1.415 . S
C2510 H2500 0.930 . S
C2510 C2508 1.419 1_455 S
C2510 C2511 1.362 . S
C2511 H2501 0.930 . S
C2511 C2504 1.409 1_455 S
C2511 C2510 1.362 . S
H2512 C2518 0.930 . S
H2513 C2521 0.930 . S
H2514 C2522 0.930 . S
H2515 C2523 0.930 . S
H2516 C2526 0.930 . S
H2517 C2527 0.930 . S
C2518 H2512 0.930 . S
C2518 C2519 1.355 . S
C2518 C2520 1.415 . S
C2519 C2518 1.355 . S
C2519 C2521 1.419 . S
C2520 C2518 1.415 . S
C2520 C2525 1.425 . S
C2520 C2527 1.409 . S
C2521 H2513 0.930 . S
C2521 C2519 1.419 . S
C2521 C2522 1.362 . S
C2522 H2514 0.930 . S
C2522 C2521 1.362 . S
C2522 C2525 1.409 . S
C2523 H2515 0.930 . S
C2523 C2524 1.355 . S
C2523 C2525 1.415 . S
C2524 C2523 1.355 . S
C2524 C2526 1.419 . S
C2525 C2520 1.425 . S
C2525 C2522 1.409 . S
C2525 C2523 1.415 . S
C2526 H2516 0.930 . S
C2526 C2524 1.419 . S
C2526 C2527 1.362 . S
C2527 H2517 0.930 . S
C2527 C2520 1.409 . S
C2527 C2526 1.362 . S
H2528 C2534 0.930 . S
H2529 C2537 0.930 . S
H2530 C2538 0.930 . S
H2531 C2539 0.930 . S
H2532 C2542 0.930 . S
H2533 C2543 0.930 . S
C2534 H2528 0.930 . S
C2534 C2535 1.355 . S
C2534 C2536 1.415 . S
C2535 C2534 1.355 . S
C2535 C2537 1.419 . S
C2536 C2534 1.415 . S
C2536 C2541 1.425 . S
C2536 C2543 1.409 . S
C2537 H2529 0.930 . S
C2537 C2535 1.419 . S
C2537 C2538 1.362 . S
C2538 H2530 0.930 . S
C2538 C2537 1.362 . S
C2538 C2541 1.409 . S
C2539 H2531 0.930 . S
C2539 C2540 1.355 . S
C2539 C2541 1.415 . S
C2540 C2539 1.355 . S
C2540 C2542 1.419 . S
C2541 C2536 1.425 . S
C2541 C2538 1.409 . S
C2541 C2539 1.415 . S
C2542 H2532 0.930 . S
C2542 C2540 1.419 . S
C2542 C2543 1.362 . S
C2543 H2533 0.930 . S
C2543 C2536 1.409 . S
C2543 C2542 1.362 . S
H2544 C2550 0.930 . S
H2545 C2553 0.930 . S
H2546 C2554 0.930 . S
H2547 C2555 0.930 . S
H2548 C2558 0.930 . S
H2549 C2559 0.930 . S
C2550 H2544 0.930 . S
C2550 C2551 1.355 . S
C2550 C2552 1.415 . S
C2551 C2550 1.355 . S
C2551 C2553 1.419 . S
C2552 C2550 1.415 . S
C2552 C2557 1.425 . S
C2552 C2559 1.409 . S
C2553 H2545 0.930 . S
C2553 C2551 1.419 . S
C2553 C2554 1.362 . S
C2554 H2546 0.930 . S
C2554 C2553 1.362 . S
C2554 C2557 1.409 . S
C2555 H2547 0.930 . S
C2555 C2556 1.355 . S
C2555 C2557 1.415 . S
C2556 C2555 1.355 . S
C2556 C2558 1.419 . S
C2557 C2552 1.425 . S
C2557 C2554 1.409 . S
C2557 C2555 1.415 . S
C2558 H2548 0.930 . S
C2558 C2556 1.419 . S
C2558 C2559 1.362 . S
C2559 H2549 0.930 . S
C2559 C2552 1.409 . S
C2559 C2558 1.362 . S
H2560 C2566 0.930 . S
H2561 C2569 0.930 . S
H2562 C2570 0.930 . S
H2563 C2571 0.930 . S
H2564 C2574 0.904 1_455 S
H2565 C2575 0.930 1_455 S
C2566 H2560 0.930 . S
C2566 C2567 1.355 . S
C2566 C2568 1.415 . S
C2567 C2566 1.355 . S
C2567 C2569 1.419 . S
C2568 C2566 1.415 . S
C2568 C2573 1.425 . S
C2568 C2575 1.409 . S
C2569 H2561 0.930 . S
C2569 C2567 1.419 . S
C2569 C2570 1.362 . S
C2570 H2562 0.930 . S
C2570 C2569 1.362 . S
C2570 C2573 1.409 . S
C2571 H2563 0.930 . S
C2571 C2572 1.355 . S
C2571 C2573 1.415 . S
C2572 C2571 1.355 . S
C2572 C2574 1.433 . S
C2573 C2568 1.425 . S
C2573 C2570 1.409 . S
C2573 C2571 1.415 . S
C2574 H2564 0.904 1_655 S
C2574 C2572 1.433 . S
C2574 C2575 1.375 . S
C2575 H2565 0.930 1_655 S
C2575 C2568 1.409 . S
C2575 C2574 1.375 . S
H2576 C2582 0.930 . S
H2577 C2585 0.930 . S
H2578 C2586 0.930 . S
H2579 C2587 0.930 . S
H2580 C2590 0.930 . S
H2581 C2591 0.930 . S
C2582 H2576 0.930 . S
C2582 C2583 1.355 . S
C2582 C2584 1.415 . S
C2583 C2582 1.355 . S
C2583 C2585 1.419 . S
C2584 C2582 1.415 . S
C2584 C2589 1.425 . S
C2584 C2591 1.409 . S
C2585 H2577 0.930 . S
C2585 C2583 1.419 . S
C2585 C2586 1.362 . S
C2586 H2578 0.930 . S
C2586 C2585 1.362 . S
C2586 C2589 1.409 . S
C2587 H2579 0.930 . S
C2587 C2588 1.355 . S
C2587 C2589 1.415 . S
C2588 C2587 1.355 . S
C2588 C2590 1.419 . S
C2589 C2584 1.425 . S
C2589 C2586 1.409 . S
C2589 C2587 1.415 . S
C2590 H2580 0.930 . S
C2590 C2588 1.419 . S
C2590 C2591 1.362 . S
C2591 H2581 0.930 . S
C2591 C2584 1.409 . S
C2591 C2590 1.362 . S
H2592 C2598 0.930 . S
H2593 C2601 0.930 . S
H2594 C2602 0.930 . S
H2595 C2603 0.930 . S
H2596 C2606 0.930 . S
H2597 C2607 0.930 . S
C2598 H2592 0.930 . S
C2598 C2599 1.355 . S
C2598 C2600 1.415 . S
C2599 C2598 1.355 . S
C2599 C2601 1.419 . S
C2600 C2598 1.415 . S
C2600 C2605 1.425 . S
C2600 C2607 1.409 . S
C2601 H2593 0.930 . S
C2601 C2599 1.419 . S
C2601 C2602 1.362 . S
C2602 H2594 0.930 . S
C2602 C2601 1.362 . S
C2602 C2605 1.409 . S
C2603 H2595 0.930 . S
C2603 C2604 1.355 . S
C2603 C2605 1.415 . S
C2604 C2603 1.355 . S
C2604 C2606 1.419 . S
C2605 C2600 1.425 . S
C2605 C2602 1.409 . S
C2605 C2603 1.415 . S
C2606 H2596 0.930 . S
C2606 C2604 1.419 . S
C2606 C2607 1.362 . S
C2607 H2597 0.930 . S
C2607 C2600 1.409 . S
C2607 C2606 1.362 . S
H2608 C2614 0.930 . S
H2609 C2617 0.930 . S
H2610 C2618 0.930 . S
H2611 C2619 0.930 . S
H2612 C2622 0.930 . S
H2613 C2623 0.930 . S
C2614 H2608 0.930 . S
C2614 C2615 1.355 . S
C2614 C2616 1.415 . S
C2615 C2614 1.355 . S
C2615 C2617 1.419 . S
C2616 C2614 1.415 . S
C2616 C2621 1.425 . S
C2616 C2623 1.409 1_565 S
C2617 H2609 0.930 . S
C2617 C2615 1.419 . S
C2617 C2618 1.362 . S
C2618 H2610 0.930 . S
C2618 C2617 1.362 . S
C2618 C2621 1.409 . S
C2619 H2611 0.930 . S
C2619 C2620 1.355 . S
C2619 C2621 1.415 . S
C2620 C2619 1.355 . S
C2620 C2622 1.419 1_565 S
C2621 C2616 1.425 . S
C2621 C2618 1.409 . S
C2621 C2619 1.415 . S
C2622 H2612 0.930 . S
C2622 C2620 1.419 1_545 S
C2622 C2623 1.362 . S
C2623 H2613 0.930 . S
C2623 C2616 1.409 1_545 S
C2623 C2622 1.362 . S
H2624 C2630 0.930 . S
H2625 C2633 0.930 . S
H2626 C2634 0.930 . S
H2627 C2635 0.930 . S
H2628 C2638 0.930 . S
H2629 C2639 0.930 . S
C2630 H2624 0.930 . S
C2630 C2631 1.355 . S
C2630 C2632 1.415 . S
C2631 C2630 1.355 . S
C2631 C2633 1.419 . S
C2632 C2630 1.415 . S
C2632 C2637 1.425 . S
C2632 C2639 1.409 . S
C2633 H2625 0.930 . S
C2633 C2631 1.419 . S
C2633 C2634 1.362 . S
C2634 H2626 0.930 . S
C2634 C2633 1.362 . S
C2634 C2637 1.409 . S
C2635 H2627 0.930 . S
C2635 C2636 1.355 . S
C2635 C2637 1.415 . S
C2636 C2635 1.355 . S
C2636 C2638 1.419 . S
C2637 C2632 1.425 . S
C2637 C2634 1.409 . S
C2637 C2635 1.415 . S
C2638 H2628 0.930 . S
C2638 C2636 1.419 . S
C2638 C2639 1.362 . S
C2639 H2629 0.930 . S
C2639 C2632 1.409 . S
C2639 C2638 1.362 . S
H2640 C2646 0.930 . S
H2641 C2649 0.930 . S
H2642 C2650 0.930 . S
H2643 C2651 0.930 . S
H2644 C2654 0.930 . S
H2645 C2655 0.930 . S
C2646 H2640 0.930 . S
C2646 C2647 1.355 1_554 S
C2646 C2648 1.415 . S
C2647 C2646 1.355 1_556 S
C2647 C2649 1.419 . S
C2648 C2646 1.415 . S
C2648 C2653 1.425 1_554 S
C2648 C2655 1.409 . S
C2649 H2641 0.930 . S
C2649 C2647 1.419 . S
C2649 C2650 1.362 . S
C2650 H2642 0.930 . S
C2650 C2649 1.362 . S
C2650 C2653 1.409 . S
C2651 H2643 0.930 . S
C2651 C2652 1.355 1_556 S
C2651 C2653 1.415 . S
C2652 C2651 1.355 1_554 S
C2652 C2654 1.419 . S
C2653 C2648 1.425 1_556 S
C2653 C2650 1.409 . S
C2653 C2651 1.415 . S
C2654 H2644 0.930 . S
C2654 C2652 1.419 . S
C2654 C2655 1.362 . S
C2655 H2645 0.930 . S
C2655 C2648 1.409 . S
C2655 C2654 1.362 . S
H2656 C2662 0.930 . S
H2657 C2665 0.930 . S
H2658 C2666 0.930 . S
H2659 C2667 0.930 . S
H2660 C2670 0.930 . S
H2661 C2671 0.930 . S
C2662 H2656 0.930 . S
C2662 C2663 1.355 . S
C2662 C2664 1.415 . S
C2663 C2662 1.355 . S
C2663 C2665 1.419 . S
C2664 C2662 1.415 . S
C2664 C2669 1.425 . S
C2664 C2671 1.409 . S
C2665 H2657 0.930 . S
C2665 C2663 1.419 . S
C2665 C2666 1.362 . S
C2666 H2658 0.930 . S
C2666 C2665 1.362 . S
C2666 C2669 1.409 . S
C2667 H2659 0.930 . S
C2667 C2668 1.355 . S
C2667 C2669 1.415 . S
C2668 C2667 1.355 . S
C2668 C2670 1.419 . S
C2669 C2664 1.425 . S
C2669 C2666 1.409 . S
C2669 C2667 1.415 . S
C2670 H2660 0.930 . S
C2670 C2668 1.419 . S
C2670 C2671 1.362 . S
C2671 H2661 0.930 . S
C2671 C2664 1.409 . S
C2671 C2670 1.362 . S
H2672 C2678 0.930 . S
H2673 C2681 0.930 . S
H2674 C2682 0.930 . S
H2675 C2683 0.930 . S
H2676 C2686 0.930 . S
H2677 C2687 0.930 . S
C2678 H2672 0.930 . S
C2678 C2679 1.355 . S
C2678 C2680 1.415 . S
C2679 C2678 1.355 . S
C2679 C2681 1.419 . S
C2680 C2678 1.415 . S
C2680 C2685 1.425 . S
C2680 C2687 1.409 1_554 S
C2681 H2673 0.930 . S
C2681 C2679 1.419 . S
C2681 C2682 1.362 . S
C2682 H2674 0.930 . S
C2682 C2681 1.362 . S
C2682 C2685 1.409 . S
C2683 H2675 0.930 . S
C2683 C2684 1.355 1_554 S
C2683 C2685 1.415 . S
C2684 C2683 1.355 1_556 S
C2684 C2686 1.419 . S
C2685 C2680 1.425 . S
C2685 C2682 1.409 . S
C2685 C2683 1.415 . S
C2686 H2676 0.930 . S
C2686 C2684 1.419 . S
C2686 C2687 1.362 . S
C2687 H2677 0.930 . S
C2687 C2680 1.409 1_556 S
C2687 C2686 1.362 . S
H2688 C2694 0.930 . S
H2689 C2697 0.930 . S
H2690 C2698 0.930 . S
H2691 C2699 0.930 . S
H2692 C2702 0.930 . S
H2693 C2703 0.930 . S
C2694 H2688 0.930 . S
C2694 C2695 1.355 . S
C2694 C2696 1.415 . S
C2695 C2694 1.355 . S
C2695 C2697 1.419 . S
C2696 C2694 1.415 . S
C2696 C2701 1.425 . S
C2696 C2703 1.409 . S
C2697 H2689 0.930 . S
C2697 C2695 1.419 . S
C2697 C2698 1.362 . S
C2698 H2690 0.930 . S
C2698 C2697 1.362 . S
C2698 C2701 1.409 . S
C2699 H2691 0.930 . S
C2699 C2700 1.355 . S
C2699 C2701 1.415 . S
C2700 C2699 1.355 . S
C2700 C2702 1.419 . S
C2701 C2696 1.425 . S
C2701 C2698 1.409 . S
C2701 C2699 1.415 . S
C2702 H2692 0.930 . S
C2702 C2700 1.419 . S
C2702 C2703 1.362 . S
C2703 H2693 0.930 . S
C2703 C2696 1.409 . S
C2703 C2702 1.362 . S
H2704 C2710 0.930 . S
H2705 C2713 0.930 . S
H2706 C2714 0.930 . S
H2707 C2715 0.930 . S
H2708 C2718 0.930 . S
H2709 C2719 0.930 . S
C2710 H2704 0.930 . S
C2710 C2711 1.355 . S
C2710 C2712 1.415 . S
C2711 C2710 1.355 . S
C2711 C2713 1.419 . S
C2712 C2710 1.415 . S
C2712 C2717 1.425 . S
C2712 C2719 1.409 . S
C2713 H2705 0.930 . S
C2713 C2711 1.419 . S
C2713 C2714 1.362 . S
C2714 H2706 0.930 . S
C2714 C2713 1.362 . S
C2714 C2717 1.409 . S
C2715 H2707 0.930 . S
C2715 C2716 1.355 . S
C2715 C2717 1.415 . S
C2716 C2715 1.355 . S
C2716 C2718 1.419 . S
C2717 C2712 1.425 . S
C2717 C2714 1.409 . S
C2717 C2715 1.415 . S
C2718 H2708 0.930 . S
C2718 C2716 1.419 . S
C2718 C2719 1.362 . S
C2719 H2709 0.930 . S
C2719 C2712 1.409 . S
C2719 C2718 1.362 . S
C1191 C255 1.280 . S
C1196 C880 1.256 . S
C1207 C147 1.330 . S
C1212 C893 1.289 . S
C1223 C184 1.324 . S
C1228 C912 1.358 . S
C1244 C943 1.861 . S
C1239 C220 1.900 . S
C1255 C40 1.656 . S
C1260 C963 1.650 . S
C1276 C980 0.949 . S
C1271 C74 0.984 . S
C1292 C993 1.480 . S
C1287 C110 1.503 . S
C1303 C14 1.028 . S
C1308 C1020 1.031 . S
C1324 C873 1.294 . S
C1319 C579 1.301 . S
C1335 C616 1.516 . S
C1340 C903 1.516 . S
C1356 C905 1.703 . S
C1351 C687 1.756 . S
C1372 C940 0.926 . S
C1367 C436 0.974 . S
C1383 C580 1.186 . S
C1388 C960 1.188 . S
C1404 C973 1.755 . S
C1399 C615 1.778 . S
C1420 C1003 1.373 . S
C1415 C688 1.372 . S
C1436 C1013 1.228 . S
C1431 C435 1.254 . S
C1452 C883 1.638 1_565 S
C1447 C410 1.591 . S
C1463 C722 1.785 . S
C1468 C1033 1.763 . S
C1484 C1063 1.697 . S
C1479 C842 1.645 . S
C1500 C1080 1.273 . S
C1495 C794 1.242 . S
C1511 C302 1.873 . S
C1516 C1023 1.921 . S
C1527 C338 1.300 . S
C1532 C910 1.243 . S
C1543 C830 1.871 . S
C1548 C1093 1.894 . S
C1564 C1120 1.100 . S
C1559 C758 1.083 . S
C1580 C870 1.158 1_455 S
C1575 C158 1.165 . S
C1596 C1105 1.302 . S
C1591 C254 1.350 . S
C1607 C218 1.326 . S
C1612 C923 1.348 . S
C1623 C194 1.834 . S
C1628 C1092 1.864 . S
C1644 C952 1.631 . S
C1639 C3 1.619 . S
C1655 C111 0.842 . S
C1660 C1050 0.854 . S
C1676 C985 1.451 . S
C1671 C76 1.444 . S
C1692 C1130 1.011 . S
C1687 C50 0.994 . S
C1708 C865 1.255 1_565 S
C1703 C364 1.253 . S
C1724 C1112 1.482 . S
C1719 C795 1.529 . S
C1735 C292 1.678 . S
C1740 C913 1.620 . S
C1751 C723 0.911 . S
C1756 C1090 0.858 . S
C1767 C363 1.153 . S
C1772 C950 1.166 . S
C1788 C1045 1.771 . S
C1783 C796 1.731 . S
C1799 C291 1.371 . S
C1804 C992 1.304 . S
C1815 C724 1.248 . S
C1820 C1125 1.253 . S
C1831 C482 1.557 1_554 S
C1836 C872 1.572 . S
C1847 C434 1.769 . S
C1852 C1025 1.760 . S
C1863 C662 1.588 . S
C1868 C972 1.628 . S
C1879 C614 1.267 . S
C1884 C1070 1.196 . S
C1900 C1132 1.921 . S
C1895 C698 1.842 . S
C1911 C554 1.162 . S
C1916 C920 1.238 1_565 S
C1932 C925 1.849 . S
C1927 C650 1.821 . S
C1948 C890 1.111 . S
C1943 C506 1.085 . S
C1959 C183 1.265 . S
C1964 C1160 1.265 . S
C1980 C1113 1.304 . S
C1975 C219 1.334 . S
C1991 C256 1.352 . S
C1996 C1172 1.304 . S
C2007 C148 1.888 . S
C2012 C1103 1.832 . S
C2023 C122 1.670 . S
C2028 C1043 1.690 . S
C2044 C1060 0.862 . S
C2039 C2 0.941 . S
C2060 C1073 1.399 1_655 S
C2055 C39 1.377 . S
C2076 C1140 1.106 . S
C2071 C86 1.105 . S
C2092 C1153 1.292 . S
C2087 C651 1.321 . S
C2103 C472 1.519 . S
C2108 C1123 1.521 . S
C2124 C1165 1.653 . S
C2119 C507 1.731 . S
C2140 C1100 0.986 . S
C2135 C544 0.916 . S
C2156 C1040 1.165 . S
C2151 C652 1.217 . S
C2167 C471 1.742 . S
C2172 C1053 1.751 . S
C2188 C1083 1.380 . S
C2183 C508 1.388 . S
C2199 C543 1.251 . S
C2204 C1133 1.200 . S
C2220 C1163 1.652 . S
C2215 C806 1.587 . S
C2231 C326 1.771 . S
C2236 C953 1.782 . S
C2252 C983 1.650 . S
C2247 C374 1.646 . S
C2268 C1000 1.287 . S
C2263 C398 1.277 . S
C2284 C1143 1.890 . S
C2279 C770 1.882 . S
C2295 C734 1.265 1_554 S
C2300 C1170 1.272 . S
C2316 C933 1.894 . S
C2311 C362 1.873 . S
C2332 C900 1.032 . S
C2327 C290 1.124 1_565 S
C2343 C230 1.208 . S
C2348 C1150 1.243 . S
C2364 C885 1.304 . S
C2359 C182 1.352 . S
C2375 C146 1.325 . S
C2380 C1183 1.353 . S
C2391 C266 1.822 . S
C2396 C932 1.849 . S
C2407 C75 1.685 . S
C2412 C1032 1.673 1_556 S
C2428 C970 0.947 . S
C2423 C38 0.953 . S
C2439 C4 1.394 . S
C2444 C1065 1.385 . S
C2455 C112 1.059 . S
C2460 C1010 1.064 . S
C2476 C1145 1.249 . S
C2471 C832 1.264 . S
C2487 C399 1.508 . S
C2492 C892 1.486 . S
C2508 C1173 1.643 1_655 S
C2503 C760 1.661 . S
C2519 C327 0.880 . S
C2524 C930 0.896 . S
C2535 C831 1.172 . S
C2540 C1030 1.176 . S
C2556 C965 1.744 . S
C2551 C400 1.739 . S
C2567 C759 1.380 . S
C2572 C1072 1.310 . S
C2588 C1005 1.251 . S
C2583 C328 1.240 . S
C2604 C1152 1.600 . S
C2599 C626 1.599 . S
C2620 C945 1.771 1_565 S
C2615 C542 1.763 . S
C2631 C590 1.519 . S
C2636 C1052 1.576 . S
C2652 C990 1.215 . S
C2647 C470 1.274 . S
C2663 C518 1.841 . S
C2668 C1012 1.908 . S
C2679 C446 1.270 . S
C2684 C1180 1.285 . S
C2700 C1085 1.855 . S
C2695 C578 1.827 1_565 S
C2716 C1110 1.055 . S
C2711 C686 1.066 . S
