# Generated by pormake.
# Topology gar, (4,6)-cn, num edge types: 1
# Building blocks:
#     Node 0, Type 0, BuildingBlock: GALJAG_clean_sbu_0, # of connection points: 4
#     Node 1, Type 0, BuildingBlock: GALJAG_clean_sbu_0, # of connection points: 4
#     Node 2, Type 0, BuildingBlock: GALJAG_clean_sbu_0, # of connection points: 4
#     Node 3, Type 0, BuildingBlock: GALJAG_clean_sbu_0, # of connection points: 4
#     Node 4, Type 0, BuildingBlock: GALJAG_clean_sbu_0, # of connection points: 4
#     Node 5, Type 0, BuildingBlock: GALJAG_clean_sbu_0, # of connection points: 4
#     Node 6, Type 0, BuildingBlock: GALJAG_clean_sbu_0, # of connection points: 4
#     Node 7, Type 0, BuildingBlock: GALJAG_clean_sbu_0, # of connection points: 4
#     Node 8, Type 0, BuildingBlock: GALJAG_clean_sbu_0, # of connection points: 4
#     Node 9, Type 0, BuildingBlock: GALJAG_clean_sbu_0, # of connection points: 4
#     Node 10, Type 0, BuildingBlock: GALJAG_clean_sbu_0, # of connection points: 4
#     Node 11, Type 0, BuildingBlock: GALJAG_clean_sbu_0, # of connection points: 4
#     Node 12, Type 0, BuildingBlock: GALJAG_clean_sbu_0, # of connection points: 4
#     Node 13, Type 0, BuildingBlock: GALJAG_clean_sbu_0, # of connection points: 4
#     Node 14, Type 0, BuildingBlock: GALJAG_clean_sbu_0, # of connection points: 4
#     Node 15, Type 0, BuildingBlock: GALJAG_clean_sbu_0, # of connection points: 4
#     Node 16, Type 0, BuildingBlock: GALJAG_clean_sbu_0, # of connection points: 4
#     Node 17, Type 0, BuildingBlock: GALJAG_clean_sbu_0, # of connection points: 4
#     Node 18, Type 0, BuildingBlock: GALJAG_clean_sbu_0, # of connection points: 4
#     Node 19, Type 0, BuildingBlock: GALJAG_clean_sbu_0, # of connection points: 4
#     Node 20, Type 0, BuildingBlock: GALJAG_clean_sbu_0, # of connection points: 4
#     Node 21, Type 0, BuildingBlock: GALJAG_clean_sbu_0, # of connection points: 4
#     Node 22, Type 0, BuildingBlock: GALJAG_clean_sbu_0, # of connection points: 4
#     Node 23, Type 0, BuildingBlock: GALJAG_clean_sbu_0, # of connection points: 4
#     Node 24, Type 1, BuildingBlock: BETDIP_clean_sbu_0, # of connection points: 6
#     Node 25, Type 1, BuildingBlock: BETDIP_clean_sbu_0, # of connection points: 6
#     Node 26, Type 1, BuildingBlock: BETDIP_clean_sbu_0, # of connection points: 6
#     Node 27, Type 1, BuildingBlock: BETDIP_clean_sbu_0, # of connection points: 6
#     Node 28, Type 1, BuildingBlock: BETDIP_clean_sbu_0, # of connection points: 6
#     Node 29, Type 1, BuildingBlock: BETDIP_clean_sbu_0, # of connection points: 6
#     Node 30, Type 1, BuildingBlock: BETDIP_clean_sbu_0, # of connection points: 6
#     Node 31, Type 1, BuildingBlock: BETDIP_clean_sbu_0, # of connection points: 6
#     Node 32, Type 1, BuildingBlock: BETDIP_clean_sbu_0, # of connection points: 6
#     Node 33, Type 1, BuildingBlock: BETDIP_clean_sbu_0, # of connection points: 6
#     Node 34, Type 1, BuildingBlock: BETDIP_clean_sbu_0, # of connection points: 6
#     Node 35, Type 1, BuildingBlock: BETDIP_clean_sbu_0, # of connection points: 6
#     Node 36, Type 1, BuildingBlock: BETDIP_clean_sbu_0, # of connection points: 6
#     Node 37, Type 1, BuildingBlock: BETDIP_clean_sbu_0, # of connection points: 6
#     Node 38, Type 1, BuildingBlock: BETDIP_clean_sbu_0, # of connection points: 6
#     Node 39, Type 1, BuildingBlock: BETDIP_clean_sbu_0, # of connection points: 6
#     Edge 40, Type (0, 1), BuildingBlock: XIVTED_clean_linker_0, # of connection points: 2
#     Edge 41, Type (0, 1), BuildingBlock: XIVTED_clean_linker_0, # of connection points: 2
#     Edge 42, Type (0, 1), BuildingBlock: XIVTED_clean_linker_0, # of connection points: 2
#     Edge 43, Type (0, 1), BuildingBlock: XIVTED_clean_linker_0, # of connection points: 2
#     Edge 44, Type (0, 1), BuildingBlock: XIVTED_clean_linker_0, # of connection points: 2
#     Edge 45, Type (0, 1), BuildingBlock: XIVTED_clean_linker_0, # of connection points: 2
#     Edge 46, Type (0, 1), BuildingBlock: XIVTED_clean_linker_0, # of connection points: 2
#     Edge 47, Type (0, 1), BuildingBlock: XIVTED_clean_linker_0, # of connection points: 2
#     Edge 48, Type (0, 1), BuildingBlock: XIVTED_clean_linker_0, # of connection points: 2
#     Edge 49, Type (0, 1), BuildingBlock: XIVTED_clean_linker_0, # of connection points: 2
#     Edge 50, Type (0, 1), BuildingBlock: XIVTED_clean_linker_0, # of connection points: 2
#     Edge 51, Type (0, 1), BuildingBlock: XIVTED_clean_linker_0, # of connection points: 2
#     Edge 52, Type (0, 1), BuildingBlock: XIVTED_clean_linker_0, # of connection points: 2
#     Edge 53, Type (0, 1), BuildingBlock: XIVTED_clean_linker_0, # of connection points: 2
#     Edge 54, Type (0, 1), BuildingBlock: XIVTED_clean_linker_0, # of connection points: 2
#     Edge 55, Type (0, 1), BuildingBlock: XIVTED_clean_linker_0, # of connection points: 2
#     Edge 56, Type (0, 1), BuildingBlock: XIVTED_clean_linker_0, # of connection points: 2
#     Edge 57, Type (0, 1), BuildingBlock: XIVTED_clean_linker_0, # of connection points: 2
#     Edge 58, Type (0, 1), BuildingBlock: XIVTED_clean_linker_0, # of connection points: 2
#     Edge 59, Type (0, 1), BuildingBlock: XIVTED_clean_linker_0, # of connection points: 2
#     Edge 60, Type (0, 1), BuildingBlock: XIVTED_clean_linker_0, # of connection points: 2
#     Edge 61, Type (0, 1), BuildingBlock: XIVTED_clean_linker_0, # of connection points: 2
#     Edge 62, Type (0, 1), BuildingBlock: XIVTED_clean_linker_0, # of connection points: 2
#     Edge 63, Type (0, 1), BuildingBlock: XIVTED_clean_linker_0, # of connection points: 2
#     Edge 64, Type (0, 1), BuildingBlock: XIVTED_clean_linker_0, # of connection points: 2
#     Edge 65, Type (0, 1), BuildingBlock: XIVTED_clean_linker_0, # of connection points: 2
#     Edge 66, Type (0, 1), BuildingBlock: XIVTED_clean_linker_0, # of connection points: 2
#     Edge 67, Type (0, 1), BuildingBlock: XIVTED_clean_linker_0, # of connection points: 2
#     Edge 68, Type (0, 1), BuildingBlock: XIVTED_clean_linker_0, # of connection points: 2
#     Edge 69, Type (0, 1), BuildingBlock: XIVTED_clean_linker_0, # of connection points: 2
#     Edge 70, Type (0, 1), BuildingBlock: XIVTED_clean_linker_0, # of connection points: 2
#     Edge 71, Type (0, 1), BuildingBlock: XIVTED_clean_linker_0, # of connection points: 2
#     Edge 72, Type (0, 1), BuildingBlock: XIVTED_clean_linker_0, # of connection points: 2
#     Edge 73, Type (0, 1), BuildingBlock: XIVTED_clean_linker_0, # of connection points: 2
#     Edge 74, Type (0, 1), BuildingBlock: XIVTED_clean_linker_0, # of connection points: 2
#     Edge 75, Type (0, 1), BuildingBlock: XIVTED_clean_linker_0, # of connection points: 2
#     Edge 76, Type (0, 1), BuildingBlock: XIVTED_clean_linker_0, # of connection points: 2
#     Edge 77, Type (0, 1), BuildingBlock: XIVTED_clean_linker_0, # of connection points: 2
#     Edge 78, Type (0, 1), BuildingBlock: XIVTED_clean_linker_0, # of connection points: 2
#     Edge 79, Type (0, 1), BuildingBlock: XIVTED_clean_linker_0, # of connection points: 2
#     Edge 80, Type (0, 1), BuildingBlock: XIVTED_clean_linker_0, # of connection points: 2
#     Edge 81, Type (0, 1), BuildingBlock: XIVTED_clean_linker_0, # of connection points: 2
#     Edge 82, Type (0, 1), BuildingBlock: XIVTED_clean_linker_0, # of connection points: 2
#     Edge 83, Type (0, 1), BuildingBlock: XIVTED_clean_linker_0, # of connection points: 2
#     Edge 84, Type (0, 1), BuildingBlock: XIVTED_clean_linker_0, # of connection points: 2
#     Edge 85, Type (0, 1), BuildingBlock: XIVTED_clean_linker_0, # of connection points: 2
#     Edge 86, Type (0, 1), BuildingBlock: XIVTED_clean_linker_0, # of connection points: 2
#     Edge 87, Type (0, 1), BuildingBlock: XIVTED_clean_linker_0, # of connection points: 2
#     Edge 88, Type (0, 1), BuildingBlock: XIVTED_clean_linker_0, # of connection points: 2
#     Edge 89, Type (0, 1), BuildingBlock: XIVTED_clean_linker_0, # of connection points: 2
#     Edge 90, Type (0, 1), BuildingBlock: XIVTED_clean_linker_0, # of connection points: 2
#     Edge 91, Type (0, 1), BuildingBlock: XIVTED_clean_linker_0, # of connection points: 2
#     Edge 92, Type (0, 1), BuildingBlock: XIVTED_clean_linker_0, # of connection points: 2
#     Edge 93, Type (0, 1), BuildingBlock: XIVTED_clean_linker_0, # of connection points: 2
#     Edge 94, Type (0, 1), BuildingBlock: XIVTED_clean_linker_0, # of connection points: 2
#     Edge 95, Type (0, 1), BuildingBlock: XIVTED_clean_linker_0, # of connection points: 2
#     Edge 96, Type (0, 1), BuildingBlock: XIVTED_clean_linker_0, # of connection points: 2
#     Edge 97, Type (0, 1), BuildingBlock: XIVTED_clean_linker_0, # of connection points: 2
#     Edge 98, Type (0, 1), BuildingBlock: XIVTED_clean_linker_0, # of connection points: 2
#     Edge 99, Type (0, 1), BuildingBlock: XIVTED_clean_linker_0, # of connection points: 2
#     Edge 100, Type (0, 1), BuildingBlock: XIVTED_clean_linker_0, # of connection points: 2
#     Edge 101, Type (0, 1), BuildingBlock: XIVTED_clean_linker_0, # of connection points: 2
#     Edge 102, Type (0, 1), BuildingBlock: XIVTED_clean_linker_0, # of connection points: 2
#     Edge 103, Type (0, 1), BuildingBlock: XIVTED_clean_linker_0, # of connection points: 2
#     Edge 104, Type (0, 1), BuildingBlock: XIVTED_clean_linker_0, # of connection points: 2
#     Edge 105, Type (0, 1), BuildingBlock: XIVTED_clean_linker_0, # of connection points: 2
#     Edge 106, Type (0, 1), BuildingBlock: XIVTED_clean_linker_0, # of connection points: 2
#     Edge 107, Type (0, 1), BuildingBlock: XIVTED_clean_linker_0, # of connection points: 2
#     Edge 108, Type (0, 1), BuildingBlock: XIVTED_clean_linker_0, # of connection points: 2
#     Edge 109, Type (0, 1), BuildingBlock: XIVTED_clean_linker_0, # of connection points: 2
#     Edge 110, Type (0, 1), BuildingBlock: XIVTED_clean_linker_0, # of connection points: 2
#     Edge 111, Type (0, 1), BuildingBlock: XIVTED_clean_linker_0, # of connection points: 2
#     Edge 112, Type (0, 1), BuildingBlock: XIVTED_clean_linker_0, # of connection points: 2
#     Edge 113, Type (0, 1), BuildingBlock: XIVTED_clean_linker_0, # of connection points: 2
#     Edge 114, Type (0, 1), BuildingBlock: XIVTED_clean_linker_0, # of connection points: 2
#     Edge 115, Type (0, 1), BuildingBlock: XIVTED_clean_linker_0, # of connection points: 2
#     Edge 116, Type (0, 1), BuildingBlock: XIVTED_clean_linker_0, # of connection points: 2
#     Edge 117, Type (0, 1), BuildingBlock: XIVTED_clean_linker_0, # of connection points: 2
#     Edge 118, Type (0, 1), BuildingBlock: XIVTED_clean_linker_0, # of connection points: 2
#     Edge 119, Type (0, 1), BuildingBlock: XIVTED_clean_linker_0, # of connection points: 2
#     Edge 120, Type (0, 1), BuildingBlock: XIVTED_clean_linker_0, # of connection points: 2
#     Edge 121, Type (0, 1), BuildingBlock: XIVTED_clean_linker_0, # of connection points: 2
#     Edge 122, Type (0, 1), BuildingBlock: XIVTED_clean_linker_0, # of connection points: 2
#     Edge 123, Type (0, 1), BuildingBlock: XIVTED_clean_linker_0, # of connection points: 2
#     Edge 124, Type (0, 1), BuildingBlock: XIVTED_clean_linker_0, # of connection points: 2
#     Edge 125, Type (0, 1), BuildingBlock: XIVTED_clean_linker_0, # of connection points: 2
#     Edge 126, Type (0, 1), BuildingBlock: XIVTED_clean_linker_0, # of connection points: 2
#     Edge 127, Type (0, 1), BuildingBlock: XIVTED_clean_linker_0, # of connection points: 2
#     Edge 128, Type (0, 1), BuildingBlock: XIVTED_clean_linker_0, # of connection points: 2
#     Edge 129, Type (0, 1), BuildingBlock: XIVTED_clean_linker_0, # of connection points: 2
#     Edge 130, Type (0, 1), BuildingBlock: XIVTED_clean_linker_0, # of connection points: 2
#     Edge 131, Type (0, 1), BuildingBlock: XIVTED_clean_linker_0, # of connection points: 2
#     Edge 132, Type (0, 1), BuildingBlock: XIVTED_clean_linker_0, # of connection points: 2
#     Edge 133, Type (0, 1), BuildingBlock: XIVTED_clean_linker_0, # of connection points: 2
#     Edge 134, Type (0, 1), BuildingBlock: XIVTED_clean_linker_0, # of connection points: 2
#     Edge 135, Type (0, 1), BuildingBlock: XIVTED_clean_linker_0, # of connection points: 2
# Relax obj value: 0.196
# Max RMSD: 0.300
# Mean RMSD: 0.165
data_MOF--net-gar--node1-GALJAG_clean_sbu_0--node2-BETDIP_clean_sbu_0--edge1-XIVTED_clean_linker_0
_symmetry_space_group_name_H-M    P1
_symmetry_Int_Tables_number       1
_symmetry_cell_setting            triclinic
loop_
_symmetry_equiv_pos_as_xyz
'x, y, z'
_cell_length_a     64.407676
_cell_length_b     56.944896
_cell_length_c     54.520165
_cell_angle_alpha  96.318096
_cell_angle_beta   98.445458
_cell_angle_gamma 100.53642
loop_
_atom_site_label
_atom_site_type_symbol
_atom_site_fract_x
_atom_site_fract_y
_atom_site_fract_z
_atom_type_partial_charge
In0 In 0.03643 0.32179 0.40277 0.0
O1 O 0.04818 0.31138 0.36805 0.0
O2 O 0.07127 0.33049 0.39982 0.0
C3 C 0.99796 0.32036 0.37855 0.0
C4 C 0.03341 0.28049 0.42023 0.0
C5 C 0.04285 0.36265 0.43253 0.0
O6 O 1.01444 0.33133 0.37168 0.0
O7 O 1.00101 0.30929 0.39705 0.0
O8 O 0.04651 0.34367 0.44079 0.0
O9 O 0.03763 0.36112 0.40915 0.0
C10 C 0.06752 0.32006 0.37745 0.0
O11 O 0.02716 0.2979 0.43129 0.0
O12 O 0.04152 0.28434 0.40108 0.0
In13 In 0.07351 0.76239 0.7177 0.0
O14 O 0.06392 0.78335 0.68744 0.0
O15 O 0.08242 0.80283 0.72177 0.0
C16 C 0.07077 0.72287 0.68725 0.0
C17 C 0.11422 0.76507 0.73536 0.0
C18 C 0.03912 0.75751 0.73885 0.0
O19 O 0.07226 0.74335 0.68021 0.0
O20 O 0.06974 0.72186 0.71013 0.0
O21 O 0.0575 0.76659 0.75141 0.0
O22 O 0.03843 0.75047 0.71599 0.0
C23 C 0.07403 0.80328 0.69948 0.0
O24 O 0.10042 0.76314 0.74972 0.0
O25 O 0.10731 0.76576 0.71274 0.0
In26 In 0.53605 0.81884 0.90088 0.0
O27 O 0.5475 0.80908 0.86549 0.0
O28 O 0.57058 0.82754 0.89734 0.0
C29 C 0.49668 0.81627 0.87904 0.0
C30 C 0.53337 0.77877 0.92055 0.0
C31 C 0.54268 0.86133 0.92796 0.0
O32 O 0.51255 0.82647 0.87041 0.0
O33 O 0.50067 0.80656 0.89838 0.0
O34 O 0.54971 0.84401 0.93648 0.0
O35 O 0.53327 0.85728 0.90554 0.0
C36 C 0.56681 0.81785 0.87476 0.0
O37 O 0.53223 0.79832 0.93316 0.0
O38 O 0.53645 0.77981 0.89838 0.0
In39 In 0.57405 0.26157 0.22124 0.0
O40 O 0.56222 0.24506 0.18178 0.0
O41 O 0.56933 0.22164 0.20853 0.0
C42 C 0.58075 0.30099 0.2012 0.0
C43 C 0.54026 0.26376 0.24216 0.0
C44 C 0.6142 0.26416 0.24012 0.0
O45 O 0.57001 0.28122 0.18931 0.0
O46 O 0.58768 0.30126 0.22422 0.0
O47 O 0.60072 0.26582 0.25458 0.0
O48 O 0.60701 0.26011 0.21706 0.0
C49 C 0.56377 0.22415 0.18589 0.0
O50 O 0.55094 0.24773 0.2466 0.0
O51 O 0.54758 0.27882 0.2289 0.0
In52 In 0.08379 0.80514 0.16547 0.0
O53 O 0.08562 0.77862 0.13112 0.0
O54 O 0.07512 0.76486 0.16305 0.0
C55 C 0.08159 0.84608 0.14418 0.0
C56 C 0.04736 0.79788 0.18544 0.0
C57 C 0.12356 0.80753 0.19294 0.0
O58 O 0.07522 0.82529 0.13183 0.0
O59 O 0.08957 0.84614 0.16669 0.0
O60 O 0.10814 0.81322 0.20249 0.0
O61 O 0.11918 0.80136 0.16952 0.0
C62 C 0.07891 0.76028 0.14116 0.0
O63 O 0.06539 0.80788 0.19831 0.0
O64 O 0.04759 0.79224 0.16251 0.0
In65 In 0.52551 0.77402 0.44996 0.0
O66 O 0.54517 0.7697 0.41781 0.0
O67 O 0.56161 0.78896 0.45269 0.0
C68 C 0.48402 0.77191 0.42554 0.0
C69 C 0.52965 0.73498 0.47436 0.0
C70 C 0.52936 0.81879 0.47336 0.0
O71 O 0.49839 0.76534 0.41446 0.0
O72 O 0.4901 0.77796 0.44879 0.0
O73 O 0.52829 0.8008 0.48519 0.0
O74 O 0.52897 0.8141 0.45006 0.0
C75 C 0.56285 0.78111 0.43057 0.0
O76 O 0.53215 0.75606 0.48571 0.0
O77 O 0.5239 0.73334 0.45098 0.0
In78 In 0.58382 0.30435 0.666 0.0
O79 O 0.57883 0.27733 0.62988 0.0
O80 O 0.58061 0.26403 0.66495 0.0
C81 C 0.58258 0.34568 0.64528 0.0
C82 C 0.54697 0.29653 0.68512 0.0
C83 C 0.62438 0.30903 0.69229 0.0
O84 O 0.58039 0.32536 0.63223 0.0
O85 O 0.58627 0.3453 0.6686 0.0
O86 O 0.60948 0.31613 0.70183 0.0
O87 O 0.61919 0.30088 0.66926 0.0
C88 C 0.57833 0.25922 0.64147 0.0
O89 O 0.56516 0.29828 0.69828 0.0
O90 O 0.54741 0.29944 0.66264 0.0
In91 In 0.02483 0.27345 0.94959 0.0
O92 O 0.03142 0.25562 0.98529 0.0
O93 O 0.0241 0.23294 0.95047 0.0
C94 C 0.02872 0.31804 0.9735 0.0
C95 C 0.06212 0.27985 0.93031 0.0
C96 C 0.98355 0.27096 0.92447 0.0
O97 O 0.02812 0.3 0.9852 0.0
O98 O 0.02767 0.31347 0.95011 0.0
O99 O 0.99927 0.26928 0.9134 0.0
O100 O 0.98828 0.27225 0.94795 0.0
C101 C 0.02953 0.23464 0.97391 0.0
O102 O 0.04481 0.26669 0.91843 0.0
O103 O 0.06054 0.28984 0.95153 0.0
In104 In 0.42235 0.05841 0.29009 0.0
O105 O 0.45055 0.07151 0.26581 0.0
O106 O 0.42482 0.04507 0.24712 0.0
C107 C 0.44933 0.05712 0.33776 0.0
C108 C 0.39903 0.09835 0.28881 0.0
C109 C 0.39602 1.01243 0.29026 0.0
O110 O 0.45123 0.04667 0.31673 0.0
O111 O 0.43486 0.06936 0.33488 0.0
O112 O 0.39296 0.03188 0.30141 0.0
O113 O 0.41141 1.01625 0.27843 0.0
C114 C 0.44272 0.05767 0.24529 0.0
O115 O 0.39191 0.07721 0.27702 0.0
O116 O 0.41779 0.09962 0.30066 0.0
In117 In 0.27802 0.17626 0.53817 0.0
O118 O 0.27834 0.21053 0.5652 0.0
O119 O 0.28808 0.18059 0.58004 0.0
C120 C 0.28076 0.19724 0.49609 0.0
C121 C 0.31406 0.15745 0.54343 0.0
C122 C 0.23732 0.14978 0.5353 0.0
O123 O 0.28586 0.20887 0.5179 0.0
O124 O 0.27362 0.17491 0.4953 0.0
O125 O 0.25309 0.14053 0.53114 0.0
O126 O 0.24175 0.17253 0.53969 0.0
C127 C 0.28507 0.20174 0.58438 0.0
O128 O 0.29617 0.14626 0.54696 0.0
O129 O 0.31362 0.17761 0.53611 0.0
In130 In 0.15466 0.06854 0.83332 0.0
O131 O 0.12949 0.04728 0.80101 0.0
O132 O 0.14238 0.08385 0.79857 0.0
C133 C 0.13833 0.0677 0.87576 0.0
C134 C 0.17294 0.03135 0.8225 0.0
C135 C 0.18432 0.10876 0.83884 0.0
O136 O 0.12744 0.06954 0.85513 0.0
O137 O 0.15763 0.06682 0.87513 0.0
O138 O 0.18874 0.08808 0.83863 0.0
O139 O 0.16468 0.10949 0.83769 0.0
C140 C 0.13044 0.06425 0.78799 0.0
O141 O 0.18119 0.05274 0.82063 0.0
O142 O 0.15557 0.0286 0.83097 0.0
In143 In 0.25625 0.86666 1.00915 0.0
O144 O 0.26466 0.83527 0.02779 0.0
O145 O 0.25109 0.86132 0.04767 0.0
C146 C 0.2465 0.84806 0.96168 0.0
C147 C 0.22677 0.89161 0.0151 0.0
C148 C 0.29687 0.89107 0.01609 0.0
O149 O 0.24697 0.83475 0.97881 0.0
O150 O 0.2477 0.8701 0.96897 0.0
O151 O 0.2838 0.89615 0.02982 0.0
O152 O 0.28959 0.8737 0.99886 0.0
C153 C 0.25951 0.8431 0.04818 0.0
O154 O 0.24439 0.9007 1.00907 0.0
O155 O 0.22341 0.86921 0.01635 0.0
In156 In 0.32983 0.40917 0.07783 0.0
O157 O 0.32322 0.37527 0.09578 0.0
O158 O 0.33199 0.40823 0.12054 0.0
C159 C 0.32456 0.38341 0.03278 0.0
C160 C 0.29246 0.42613 0.07203 0.0
C161 C 0.3716 0.43257 0.07864 0.0
O162 O 0.32564 0.37393 0.05262 0.0
O163 O 0.32618 0.40602 0.03562 0.0
O164 O 0.35656 0.44358 0.08151 0.0
O165 O 0.3659 0.40996 0.07681 0.0
C166 C 0.32611 0.38551 0.11796 0.0
O167 O 0.31057 0.43998 0.07945 0.0
O168 O 0.29331 0.40421 0.06787 0.0
In169 In 0.84244 0.20091 0.09994 0.0
O170 O 0.85558 0.16779 0.0954 0.0
O171 O 0.87409 0.20145 0.08926 0.0
C172 C 0.80147 0.18128 0.0991 0.0
C173 C 0.86251 0.22212 0.14496 0.0
C174 C 0.83475 0.21849 0.05785 0.0
O175 O 0.81619 0.16937 0.10104 0.0
O176 O 0.80755 0.2037 0.09951 0.0
O177 O 0.83893 0.23173 0.07891 0.0
O178 O 0.83563 0.19655 0.05821 0.0
C179 C 0.87276 0.17926 0.09027 0.0
O180 O 0.86049 0.23347 0.1264 0.0
O181 O 0.85304 0.2003 0.14087 0.0
In182 In 0.17975 0.52108 0.31963 0.0
O183 O 0.21109 0.50156 0.32014 0.0
O184 O 0.18202 0.4783 0.31717 0.0
C185 C 0.20635 0.56793 0.32428 0.0
C186 C 0.15347 0.51989 0.27192 0.0
C187 C 0.15489 0.52694 0.35972 0.0
O188 O 0.20017 0.55867 0.34275 0.0
O189 O 0.2005 0.55322 0.30428 0.0
O190 O 0.14936 0.53043 0.33737 0.0
O191 O 0.17263 0.52007 0.36204 0.0
C192 C 0.20199 0.47954 0.31828 0.0
O193 O 0.14954 0.50446 0.28663 0.0
O194 O 0.17037 0.53518 0.28092 0.0
In195 In 0.8301 0.90986 0.5779 0.0
O196 O 0.83288 0.87856 0.59974 0.0
O197 O 0.82438 0.90931 0.6185 0.0
C198 C 0.8248 0.88249 0.53329 0.0
C199 C 0.79247 0.92589 0.57236 0.0
C200 C 0.87137 0.9355 0.57979 0.0
O201 O 0.82316 0.87337 0.5531 0.0
O202 O 0.82896 0.90518 0.53604 0.0
O203 O 0.85472 0.94306 0.57193 0.0
O204 O 0.86738 0.91588 0.58856 0.0
C205 C 0.82731 0.88798 0.61913 0.0
O206 O 0.81045 0.94012 0.57948 0.0
O207 O 0.79352 0.90397 0.56845 0.0
In208 In 0.95181 1.01165 0.28345 0.0
O209 O 0.98283 0.02387 0.26944 0.0
O210 O 0.95475 1.01048 0.2422 0.0
C211 C 0.97692 1.01429 0.32714 0.0
C212 C 0.93356 0.04998 0.28589 0.0
C213 C 0.92394 0.97085 0.28531 0.0
O214 O 0.97622 0.9974 0.3097 0.0
O215 O 0.96525 0.02914 0.32207 0.0
O216 O 0.92255 0.99117 0.29581 0.0
O217 O 0.93902 0.97107 0.27291 0.0
C218 C 0.97453 0.01957 0.24664 0.0
O219 O 0.92592 0.03179 0.26942 0.0
O220 O 0.95033 0.04878 0.30029 0.0
In221 In 0.34193 0.69916 0.60199 0.0
O222 O 0.3578 0.66811 0.60091 0.0
O223 O 0.37043 0.69941 0.58449 0.0
C224 C 0.30151 0.67663 0.59632 0.0
C225 C 0.36251 0.71794 0.64754 0.0
C226 C 0.33226 0.72355 0.56581 0.0
O227 O 0.31534 0.66762 0.58655 0.0
O228 O 0.30844 0.69607 0.61116 0.0
O229 O 0.33405 0.73263 0.58846 0.0
O230 O 0.33644 0.70286 0.56182 0.0
C231 C 0.37184 0.6787 0.58969 0.0
O232 O 0.36237 0.72971 0.62918 0.0
O233 O 0.35173 0.69658 0.64267 0.0
In234 In 0.45215 0.5125 0.78204 0.0
O235 O 0.4252 0.53194 0.77072 0.0
O236 O 0.45209 0.55081 0.79769 0.0
C237 C 0.42545 0.47033 0.78214 0.0
C238 C 0.47501 0.51953 0.74517 0.0
C239 C 0.47409 0.51532 0.82738 0.0
O240 O 0.41901 0.48873 0.77573 0.0
O241 O 0.44552 0.47276 0.78727 0.0
O242 O 0.47968 0.50461 0.80862 0.0
O243 O 0.45735 0.52375 0.82304 0.0
C244 C 0.43405 0.55109 0.78533 0.0
O245 O 0.48117 0.52998 0.76722 0.0
O246 O 0.45732 0.5048 0.74155 0.0
In247 In 0.67997 0.02109 0.81932 0.0
O248 O 0.71061 1.00104 0.82806 0.0
O249 O 0.68285 0.97883 0.80852 0.0
C250 C 0.70625 0.06833 0.82415 0.0
C251 C 0.65394 0.01997 0.77163 0.0
C252 C 0.65452 0.02582 0.85904 0.0
O253 O 0.69973 0.05902 0.84238 0.0
O254 O 0.70083 0.05355 0.8042 0.0
O255 O 0.6504 0.03212 0.83761 0.0
O256 O 0.67101 1.01651 0.86052 0.0
C257 C 0.70223 0.9796 0.81786 0.0
O258 O 0.64783 1.00801 0.78854 0.0
O259 O 0.67296 0.03164 0.77837 0.0
In260 In 0.7787 0.67662 0.03723 0.0
O261 O 0.79804 0.64706 0.02965 0.0
O262 O 0.81375 0.67892 0.05417 0.0
C263 C 0.73874 0.64933 0.03603 0.0
C264 C 0.78281 0.70076 0.08329 0.0
C265 C 0.78247 0.69959 0.9962 0.0
O266 O 0.75436 0.64032 0.03088 0.0
O267 O 0.74305 0.67199 0.041 0.0
O268 O 0.7877 0.71035 0.01831 0.0
O269 O 0.77491 0.67736 0.99466 0.0
C270 C 0.81499 0.65846 0.04388 0.0
O271 O 0.77619 0.70956 0.06398 0.0
O272 O 0.78695 0.67999 0.07916 0.0
In273 In 0.92271 0.55867 0.79058 0.0
O274 O 0.89157 0.57668 0.77966 0.0
O275 O 0.91861 0.60023 0.79996 0.0
C276 C 0.89803 0.51187 0.79038 0.0
C277 C 0.94259 0.55695 0.74532 0.0
C278 C 0.9482 0.55906 0.83943 0.0
O279 O 0.8899 0.53049 0.78952 0.0
O280 O 0.91796 0.51671 0.79044 0.0
O281 O 0.95542 0.55854 0.819 0.0
O282 O 0.92877 0.56095 0.83566 0.0
C283 C 0.89924 0.59834 0.7897 0.0
O284 O 0.94689 0.57463 0.76285 0.0
O285 O 0.92838 0.54051 0.75026 0.0
In286 In 0.75293 0.36735 0.5057 0.0
O287 O 0.75302 0.33847 0.53121 0.0
O288 O 0.76185 0.37578 0.54677 0.0
C289 C 0.74399 0.34145 0.46083 0.0
C290 C 0.72278 0.39109 0.51315 0.0
C291 C 0.79245 0.39294 0.50787 0.0
O292 O 0.74934 0.33243 0.48034 0.0
O293 O 0.7405 0.36249 0.46465 0.0
O294 O 0.77627 0.40218 0.50868 0.0
O295 O 0.78886 0.37022 0.50457 0.0
C296 C 0.75949 0.35413 0.55048 0.0
O297 O 0.73776 0.39886 0.50179 0.0
O298 O 0.72136 0.36956 0.51764 0.0
In299 In 0.65329 0.56864 0.33255 0.0
O300 O 0.6821 0.55162 0.33576 0.0
O301 O 0.6533 0.53175 0.31244 0.0
C302 C 0.68169 0.61003 0.33805 0.0
C303 C 0.63003 0.56417 0.28715 0.0
C304 C 0.63596 0.56489 0.37405 0.0
O305 O 0.68688 0.59077 0.34366 0.0
O306 O 0.66195 0.60872 0.3306 0.0
O307 O 0.629 0.57659 0.35743 0.0
O308 O 0.65121 0.55521 0.36946 0.0
C309 C 0.6727 0.53277 0.32113 0.0
O310 O 0.62544 0.54958 0.30235 0.0
O311 O 0.64554 0.58154 0.29547 0.0
Tb312 Tb 0.04204 0.03541 0.0565 0.0
Tb313 Tb 0.08742 0.06004 0.08397 0.0
C314 C 1.00265 0.02784 0.04962 0.0
C315 C 0.99122 0.04713 0.04496 0.0
C316 C 0.99665 0.06883 0.06169 0.0
C317 C 0.98775 0.0883 0.05619 0.0
C318 C 0.97294 0.08618 0.0342 0.0
C319 C 0.9684 0.06518 0.01675 0.0
C320 C 0.97763 0.04569 0.02208 0.0
C321 C 0.06796 0.03837 0.02371 0.0
C322 C 0.06014 0.09235 0.05726 0.0
C323 C 0.12658 0.06812 0.09965 0.0
C324 C 0.1401 0.05036 0.09871 0.0
C325 C 0.13447 0.0309 0.07921 0.0
C326 C 0.14619 1.01287 0.07871 0.0
C327 C 0.16378 1.01423 0.09753 0.0
C328 C 0.16919 0.03316 0.11744 0.0
C329 C 0.15714 0.05117 0.11818 0.0
C330 C 0.05648 0.05995 0.1102 0.0
C331 C 0.07017 1.00134 0.07677 0.0
O332 O 1.0141 0.03054 0.072 0.0
O333 O 1.01306 0.02164 0.03186 0.0
O334 O 0.07282 0.04541 0.04698 0.0
O335 O 0.048 0.02757 0.01871 0.0
O336 O 0.04353 0.074 0.05401 0.0
O337 O 0.07966 0.09093 0.06755 0.0
O338 O 0.11843 0.07303 0.07775 0.0
O339 O 0.11238 0.06413 0.11435 0.0
O340 O 0.05859 0.04358 0.09395 0.0
O341 O 0.07284 0.0777 0.11283 0.0
O342 O 0.08611 0.02064 0.08386 0.0
O343 O 0.05092 1.00266 0.06561 0.0
H344 H 1.00766 0.07087 0.0792 0.0
H345 H 0.99097 0.10421 0.07017 0.0
H346 H 0.95662 0.06335 0.99992 0.0
H347 H 0.97395 0.02943 1.00858 0.0
H348 H 0.12112 0.02971 0.06419 0.0
H349 H 0.14212 0.99841 0.06305 0.0
H350 H 0.18298 0.03432 0.13187 0.0
H351 H 0.16122 0.06578 0.13365 0.0
Tb352 Tb 0.30784 0.78285 0.29459 0.0
Tb353 Tb 0.29576 0.80238 0.33487 0.0
C354 C 0.31768 0.775 0.25264 0.0
C355 C 0.32264 0.79361 0.23695 0.0
C356 C 0.30826 0.8089 0.2317 0.0
C357 C 0.3135 0.82758 0.2181 0.0
C358 C 0.33313 0.83115 0.20931 0.0
C359 C 0.34836 0.81746 0.21683 0.0
C360 C 0.34303 0.79858 0.23037 0.0
C361 C 0.33562 0.77976 0.33478 0.0
C362 C 0.32128 0.84052 0.30903 0.0
C363 C 0.28585 0.814 0.37641 0.0
C364 C 0.27287 0.80025 0.3915 0.0
C365 C 0.27422 0.77621 0.39329 0.0
C366 C 0.26406 0.76424 0.41033 0.0
C367 C 0.25334 0.77669 0.42642 0.0
C368 C 0.24922 0.7993 0.42186 0.0
C369 C 0.2592 0.81121 0.40448 0.0
C370 C 0.26823 0.80521 0.29433 0.0
C371 C 0.28059 0.74435 0.31876 0.0
O372 O 0.29786 0.77029 0.25638 0.0
O373 O 0.33146 0.77753 0.27323 0.0
O374 O 0.32778 0.79818 0.33059 0.0
O375 O 0.32636 0.76228 0.31724 0.0
O376 O 0.3165 0.82217 0.29058 0.0
O377 O 0.3167 0.83615 0.33098 0.0
O378 O 0.30397 0.80755 0.37387 0.0
O379 O 0.27525 0.8174 0.35539 0.0
O380 O 0.2761 0.78703 0.29898 0.0
O381 O 0.2768 0.82268 0.31206 0.0
O382 O 0.2837 0.76284 0.33704 0.0
O383 O 0.2877 0.74852 0.29795 0.0
H384 H 0.29275 0.80624 0.23761 0.0
H385 H 0.30126 0.83765 0.21257 0.0
H386 H 0.36366 0.82009 0.21044 0.0
H387 H 0.35466 0.78761 0.23537 0.0
H388 H 0.28454 0.76733 0.38321 0.0
H389 H 0.26757 0.74681 0.41356 0.0
H390 H 0.24095 0.80906 0.43417 0.0
H391 H 0.25757 0.82956 0.40258 0.0
Tb392 Tb 0.57 0.03787 0.54938 0.0
Tb393 Tb 0.52814 0.03676 0.56746 0.0
C394 C 0.60861 0.03348 0.55134 0.0
C395 C 0.62216 1.01507 0.54822 0.0
C396 C 0.62835 1.00286 0.56833 0.0
C397 C 0.64428 0.98917 0.56749 0.0
C398 C 0.65458 0.98722 0.54651 0.0
C399 C 0.64741 0.9982 0.52576 0.0
C400 C 0.63153 1.01207 0.52668 0.0
C401 C 0.53975 0.04005 0.50883 0.0
C402 C 0.53744 0.98855 0.54522 0.0
C403 C 0.49294 0.04285 0.57928 0.0
C404 C 0.47814 0.05976 0.57751 0.0
C405 C 0.47163 0.06822 0.55497 0.0
C406 C 0.45601 0.08242 0.55347 0.0
C407 C 0.44669 0.08852 0.5745 0.0
C408 C 0.45397 0.08079 0.59727 0.0
C409 C 0.46947 0.06652 0.59871 0.0
C410 C 0.55979 0.02783 0.60164 0.0
C411 C 0.55796 0.08697 0.56536 0.0
O412 O 0.59832 0.03285 0.57022 0.0
O413 O 0.59725 0.03894 0.53161 0.0
O414 O 0.53749 0.03881 0.53164 0.0
O415 O 0.55985 0.03966 0.50876 0.0
O416 O 0.55767 0.9996 0.54839 0.0
O417 O 0.52191 1.00023 0.54808 0.0
O418 O 0.49461 0.02989 0.55854 0.0
O419 O 0.51142 0.05079 0.59398 0.0
O420 O 0.56125 0.04324 0.58632 0.0
O421 O 0.53989 1.01689 0.59747 0.0
O422 O 0.53819 0.07487 0.56417 0.0
O423 O 0.57401 0.07612 0.56216 0.0
H424 H 0.62167 1.00483 0.58538 0.0
H425 H 0.64933 0.98128 0.58398 0.0
H426 H 0.65451 0.99671 0.50899 0.0
H427 H 0.62723 0.02124 0.51088 0.0
H428 H 0.47816 0.06335 0.53835 0.0
H429 H 0.45068 0.08784 0.53557 0.0
H430 H 0.4475 0.08551 0.61396 0.0
H431 H 0.47438 0.0603 0.61633 0.0
Tb432 Tb 0.28847 0.29298 0.81291 0.0
Tb433 Tb 0.33169 0.27735 0.81541 0.0
C434 C 0.25185 0.29971 0.81929 0.0
C435 C 0.23676 0.29882 0.83757 0.0
C436 C 0.22674 0.27681 0.84397 0.0
C437 C 0.20997 0.27588 0.85777 0.0
C438 C 0.20248 0.29685 0.86522 0.0
C439 C 0.2133 0.31907 0.86 0.0
C440 C 0.2302 0.32001 0.84631 0.0
C441 C 0.31995 0.32492 0.80303 0.0
C442 C 0.31902 0.29577 0.86479 0.0
C443 C 0.36845 0.27031 0.81084 0.0
C444 C 0.38252 0.26853 0.79195 0.0
C445 C 0.38882 0.28786 0.77894 0.0
C446 C 0.40441 0.28694 0.76372 0.0
C447 C 0.41398 0.26667 0.76115 0.0
C448 C 0.40688 0.24689 0.77327 0.0
C449 C 0.39135 0.24786 0.78856 0.0
C450 C 0.29998 0.24607 0.8255 0.0
C451 C 0.30135 0.27398 0.76298 0.0
O452 O 0.25546 0.27925 0.80893 0.0
O453 O 0.26914 0.31676 0.8243 0.0
O454 O 0.3215 0.31095 0.81925 0.0
O455 O 0.3 0.3225 0.79307 0.0
O456 O 0.29908 0.2918 0.85267 0.0
O457 O 0.33552 0.29463 0.85334 0.0
O458 O 0.36434 0.29155 0.81758 0.0
O459 O 0.35166 0.2529 0.80863 0.0
O460 O 0.29883 0.25984 0.80921 0.0
O461 O 0.31983 0.24763 0.83525 0.0
O462 O 0.32102 0.2761 0.77538 0.0
O463 O 0.28495 0.27741 0.77401 0.0
H464 H 0.23117 0.26009 0.83744 0.0
H465 H 0.2024 0.2585 0.8619 0.0
H466 H 0.20799 0.33559 0.86528 0.0
H467 H 0.23748 0.33723 0.84152 0.0
H468 H 0.38229 0.30405 0.78118 0.0
H469 H 0.40964 0.3026 0.75491 0.0
H470 H 0.41365 0.23086 0.77138 0.0
H471 H 0.38671 0.23272 0.79839 0.0
Tb472 Tb 0.05136 0.06111 0.56002 0.0
Tb473 Tb 0.06184 1.00877 0.55122 0.0
C474 C 0.05277 0.10489 0.56232 0.0
C475 C 0.04706 0.11686 0.54089 0.0
C476 C 0.05487 0.11146 0.51863 0.0
C477 C 0.04773 0.12083 0.49735 0.0
C478 C 0.03295 0.13601 0.49815 0.0
C479 C 0.02423 0.14028 0.51997 0.0
C480 C 0.03123 0.13065 0.54124 0.0
C481 C 0.01716 0.0262 0.56082 0.0
C482 C 0.04335 0.03218 0.50556 0.0
C483 C 0.05886 0.96477 0.54844 0.0
C484 C 0.07049 0.95218 0.56601 0.0
C485 C 0.06239 0.94692 0.58775 0.0
C486 C 0.07426 0.93731 0.60586 0.0
C487 C 0.0942 0.93236 0.60227 0.0
C488 C 0.10259 0.93792 0.5809 0.0
C489 C 0.09082 0.94792 0.56284 0.0
C490 C 0.09616 0.04317 0.54976 0.0
C491 C 0.07239 0.03858 0.60548 0.0
O492 O 0.06998 0.09565 0.56243 0.0
O493 O 0.03659 0.09016 0.56785 0.0
O494 O 0.03611 0.02477 0.55861 0.0
O495 O 0.01709 0.04901 0.56269 0.0
O496 O 0.04643 0.05353 0.51948 0.0
O497 O 0.04603 1.01219 0.51462 0.0
O498 O 0.04502 0.97594 0.55771 0.0
O499 O 0.07059 0.97781 0.53513 0.0
O500 O 0.07731 0.04512 0.55237 0.0
O501 O 0.09599 0.02023 0.54826 0.0
O502 O 0.07045 1.01732 0.59172 0.0
O503 O 0.06679 0.05775 0.59688 0.0
H504 H 0.06646 0.09996 0.51753 0.0
H505 H 0.05438 0.11699 0.48056 0.0
H506 H 1.01289 0.15209 0.52109 0.0
H507 H 0.02441 0.13406 0.55799 0.0
H508 H 0.04685 0.95017 0.59082 0.0
H509 H 0.06727 0.93239 0.62196 0.0
H510 H 0.11781 0.93366 0.57781 0.0
H511 H 0.09757 0.95216 0.54642 0.0
Tb512 Tb 0.31605 0.77874 0.78662 0.0
Tb513 Tb 0.3093 0.83057 0.79006 0.0
C514 C 0.31946 0.73577 0.77891 0.0
C515 C 0.33687 0.72321 0.78663 0.0
C516 C 0.35129 0.71935 0.77036 0.0
C517 C 0.36621 0.70512 0.77608 0.0
C518 C 0.36691 0.69454 0.7981 0.0
C519 C 0.35373 0.69976 0.81534 0.0
C520 C 0.33875 0.71407 0.80965 0.0
C521 C 0.32532 0.80384 0.83191 0.0
C522 C 0.35469 0.81831 0.78943 0.0
C523 C 0.30831 0.87376 0.80092 0.0
C524 C 0.29066 0.88652 0.7959 0.0
C525 C 0.27781 0.8898 0.81415 0.0
C526 C 0.26026 0.90051 0.80911 0.0
C527 C 0.25535 0.90832 0.78582 0.0
C528 C 0.26805 0.90492 0.76745 0.0
C529 C 0.28561 0.89409 0.77245 0.0
C530 C 0.29884 0.80537 0.74562 0.0
C531 C 0.27009 0.78956 0.78608 0.0
O532 O 0.3232 0.75105 0.76306 0.0
O533 O 0.30983 0.74399 0.7966 0.0
O534 O 0.31042 0.80441 0.81461 0.0
O535 O 0.33506 0.78714 0.82444 0.0
O536 O 0.34504 0.79715 0.777 0.0
O537 O 0.34379 0.83359 0.79873 0.0
O538 O 0.30577 0.85807 0.8167 0.0
O539 O 0.31586 0.86564 0.7813 0.0
O540 O 0.31427 0.80483 0.76225 0.0
O541 O 0.29007 0.82331 0.75202 0.0
O542 O 0.27835 0.81231 0.79548 0.0
O543 O 0.28155 0.7743 0.77789 0.0
H544 H 0.35037 0.72632 0.75262 0.0
H545 H 0.37615 0.7009 0.76246 0.0
H546 H 0.35392 0.69134 0.83223 0.0
H547 H 0.32799 0.71696 0.82269 0.0
H548 H 0.28133 0.88412 0.83237 0.0
H549 H 0.25101 0.90349 0.82382 0.0
H550 H 0.26455 0.91091 0.74939 0.0
H551 H 0.29516 0.89167 0.75794 0.0
Tb552 Tb 0.52168 0.05005 0.02525 0.0
Tb553 Tb 0.5601 0.04573 0.06276 0.0
C554 C 0.48565 0.04043 0.99799 0.0
C555 C 0.46404 0.03126 1.00274 0.0
C556 C 0.45648 1.00622 1.00018 0.0
C557 C 0.4371 0.99713 1.00706 0.0
C558 C 0.42475 1.01284 0.0161 0.0
C559 C 0.4316 0.03781 0.01777 0.0
C560 C 0.45132 0.04704 0.0112 0.0
C561 C 0.54527 0.0903 0.04898 0.0
C562 C 0.51717 0.04509 0.08543 0.0
C563 C 0.59738 0.05959 0.08561 0.0
C564 C 0.61679 0.06871 0.07548 0.0
C565 C 0.62279 0.09357 0.07455 0.0
C566 C 0.64101 0.10262 0.06505 0.0
C567 C 0.65381 0.08705 0.0566 0.0
C568 C 0.64701 0.06202 0.05584 0.0
C569 C 0.62867 0.05292 0.06533 0.0
C570 C 0.53621 1.00519 0.04077 0.0
C571 C 0.56523 0.04906 1.00327 0.0
O572 O 0.49861 0.02526 0.99995 0.0
O573 O 0.49495 0.06236 1.00856 0.0
O574 O 0.5405 0.07058 0.05674 0.0
O575 O 0.53504 0.08874 0.02625 0.0
O576 O 0.50756 0.04386 0.06126 0.0
O577 O 0.53835 0.04684 0.09064 0.0
O578 O 0.58331 0.07345 0.08405 0.0
O579 O 0.58855 0.03657 0.07945 0.0
O580 O 0.54076 0.02425 0.03132 0.0
O581 O 0.54672 1.00805 0.06366 0.0
O582 O 0.57403 0.04829 0.02699 0.0
O583 O 0.54448 0.04995 0.99798 0.0
H584 H 0.46572 0.99358 0.99333 0.0
H585 H 0.43161 0.97774 1.00517 0.0
H586 H 0.42186 0.05 0.02429 0.0
H587 H 0.45671 0.06641 0.01306 0.0
H588 H 0.61373 0.10623 0.08177 0.0
H589 H 0.64587 0.122 0.06614 0.0
H590 H 0.65648 0.0496 0.04913 0.0
H591 H 0.62412 0.03363 0.0652 0.0
Tb592 Tb 0.27803 0.27034 0.29178 0.0
Tb593 Tb 0.31811 0.3023 0.31251 0.0
C594 C 0.24037 0.24799 0.28715 0.0
C595 C 0.22157 0.25712 0.29269 0.0
C596 C 0.22108 0.26769 0.31712 0.0
C597 C 0.2041 0.27827 0.32186 0.0
C598 C 0.18744 0.27831 0.30233 0.0
C599 C 0.18778 0.26791 0.27797 0.0
C600 C 0.20489 0.25742 0.27313 0.0
C601 C 0.29747 0.28994 0.25784 0.0
C602 C 0.27825 0.32853 0.30995 0.0
C603 C 0.35615 0.32205 0.31522 0.0
C604 C 0.37299 0.31003 0.30782 0.0
C605 C 0.37095 0.2988 0.28301 0.0
C606 C 0.38638 0.28662 0.27611 0.0
C607 C 0.40421 0.28563 0.29376 0.0
C608 C 0.40571 0.2955 0.31883 0.0
C609 C 0.39013 0.30768 0.32583 0.0
C610 C 0.29883 0.28361 0.34692 0.0
C611 C 0.31797 0.24443 0.29397 0.0
O612 O 0.25501 0.24807 0.30654 0.0
O613 O 0.24851 0.25621 0.26842 0.0
O614 O 0.29618 0.2999 0.27914 0.0
O615 O 0.28682 0.26784 0.25442 0.0
O616 O 0.26701 0.30566 0.3034 0.0
O617 O 0.29959 0.33188 0.31385 0.0
O618 O 0.34115 0.32357 0.29685 0.0
O619 O 0.34843 0.3153 0.3348 0.0
O620 O 0.29986 0.27285 0.32572 0.0
O621 O 0.30931 0.30579 0.34947 0.0
O622 O 0.32901 0.26701 0.30212 0.0
O623 O 0.29671 0.24101 0.28867 0.0
H624 H 0.23383 0.268 0.33258 0.0
H625 H 0.20369 0.28589 0.34086 0.0
H626 H 0.17478 0.26779 0.26286 0.0
H627 H 0.20521 0.24973 0.25414 0.0
H628 H 0.35755 0.2995 0.26876 0.0
H629 H 0.38484 0.27879 0.25672 0.0
H630 H 0.41944 0.2949 0.33268 0.0
H631 H 0.3916 0.31554 0.34518 0.0
Tb632 Tb 0.55355 0.55791 0.05887 0.0
Tb633 Tb 0.56439 0.51159 0.04895 0.0
C634 C 0.55812 0.60204 0.05896 0.0
C635 C 0.54892 0.61488 0.03989 0.0
C636 C 0.56227 0.62557 0.02435 0.0
C637 C 0.55366 0.63534 1.00405 0.0
C638 C 0.53161 0.63492 0.99931 0.0
C639 C 0.51813 0.62379 0.01445 0.0
C640 C 0.52672 0.6137 0.03463 0.0
C641 C 0.51739 0.52693 0.05948 0.0
C642 C 0.54132 0.52942 1.00449 0.0
C643 C 0.5732 0.47094 0.04668 0.0
C644 C 0.58013 0.45814 0.06671 0.0
C645 C 0.56807 0.45445 0.0859 0.0
C646 C 0.57553 0.44301 0.10547 0.0
C647 C 0.59507 0.43557 0.10591 0.0
C648 C 0.60775 0.44063 0.08775 0.0
C649 C 0.60025 0.45189 0.06807 0.0
C650 C 0.5935 0.54814 0.04154 0.0
C651 C 0.57146 0.53691 0.10502 0.0
O652 O 0.57143 0.58942 0.05104 0.0
O653 O 0.54499 0.59026 0.07174 0.0
O654 O 0.53496 0.52117 0.05554 0.0
O655 O 0.5201 0.55017 0.06292 0.0
O656 O 0.54603 0.55074 0.0183 0.0
O657 O 0.54443 0.50993 0.01378 0.0
O658 O 0.55347 0.47428 0.04451 0.0
O659 O 0.58706 0.49034 0.0454 0.0
O660 O 0.58357 0.547 0.05984 0.0
O661 O 0.58608 0.52872 0.02581 0.0
O662 O 0.57049 0.51665 0.09009 0.0
O663 O 0.56622 0.55602 0.09657 0.0
H664 H 0.57939 0.62617 0.0278 0.0
H665 H 0.56441 0.64429 0.99286 0.0
H666 H 0.50108 0.62352 0.01103 0.0
H667 H 0.51601 0.60498 0.04598 0.0
H668 H 0.55276 0.45984 0.08554 0.0
H669 H 0.56542 0.43844 0.1192 0.0
H670 H 0.62266 0.43433 0.0879 0.0
H671 H 0.60995 0.45535 0.05371 0.0
Tb672 Tb 0.81589 0.27818 0.28841 0.0
Tb673 Tb 0.80949 0.32992 0.28957 0.0
C674 C 0.81887 0.23504 0.28227 0.0
C675 C 0.83679 0.22289 0.28857 0.0
C676 C 0.85269 0.22306 0.27345 0.0
C677 C 0.86802 0.20903 0.27762 0.0
C678 C 0.86758 0.19451 0.29678 0.0
C679 C 0.85307 0.1961 0.3134 0.0
C680 C 0.83767 0.21017 0.30924 0.0
C681 C 0.82588 0.305 0.33265 0.0
C682 C 0.85464 0.31723 0.2892 0.0
C683 C 0.80802 0.37303 0.29789 0.0
C684 C 0.78974 0.3845 0.29207 0.0
C685 C 0.7714 0.37854 0.30307 0.0
C686 C 0.75464 0.39049 0.29844 0.0
C687 C 0.75603 0.40836 0.28277 0.0
C688 C 0.77334 0.41284 0.27001 0.0
C689 C 0.79022 0.40091 0.27468 0.0
C690 C 0.79828 0.3032 0.24606 0.0
C691 C 0.77011 0.28943 0.28696 0.0
O692 O 0.82052 0.24896 0.2648 0.0
O693 O 0.8114 0.24459 0.30122 0.0
O694 O 0.81061 0.30501 0.31553 0.0
O695 O 0.83552 0.28801 0.32573 0.0
O696 O 0.84487 0.29564 0.27789 0.0
O697 O 0.84394 0.33307 0.29774 0.0
O698 O 0.80674 0.35869 0.31513 0.0
O699 O 0.81514 0.36407 0.27832 0.0
O700 O 0.81392 0.30301 0.26262 0.0
O701 O 0.79002 0.32167 0.25187 0.0
O702 O 0.7783 0.31248 0.29484 0.0
O703 O 0.78145 0.2735 0.28036 0.0
H704 H 0.85274 0.23306 0.25767 0.0
H705 H 0.87931 0.2082 0.26479 0.0
H706 H 0.85249 0.18499 0.32829 0.0
H707 H 0.82581 0.21012 0.32143 0.0
H708 H 0.77031 0.36544 0.31604 0.0
H709 H 0.74144 0.38727 0.30872 0.0
H710 H 0.77464 0.42695 0.25818 0.0
H711 H 0.804 0.40522 0.26554 0.0
Tb712 Tb 0.02171 0.55274 0.52526 0.0
Tb713 Tb 0.05888 0.54664 0.56251 0.0
C714 C 0.98535 0.54464 0.49919 0.0
C715 C 0.96456 0.53557 0.50566 0.0
C716 C 0.96305 0.52016 0.52402 0.0
C717 C 0.94311 0.50922 0.52832 0.0
C718 C 0.92459 0.51349 0.51419 0.0
C719 C 0.92602 0.53007 0.49703 0.0
C720 C 0.94607 0.54127 0.49289 0.0
C721 C 0.04661 0.59251 0.54775 0.0
C722 C 0.01663 0.54724 0.5854 0.0
C723 C 0.09592 0.55862 0.58561 0.0
C724 C 0.11525 0.56696 0.5752 0.0
C725 C 0.11799 0.58871 0.56483 0.0
C726 C 0.137 0.59723 0.55654 0.0
C727 C 0.15342 0.58416 0.55862 0.0
C728 C 0.14977 0.56125 0.56627 0.0
C729 C 0.13081 0.55275 0.57468 0.0
C730 C 0.03356 0.50694 0.54047 0.0
C731 C 0.06489 0.55015 0.50329 0.0
O732 O 0.99806 0.52912 0.49928 0.0
O733 O 0.99502 0.56617 0.51049 0.0
O734 O 0.0411 0.57341 0.55661 0.0
O735 O 0.03678 0.59016 0.52475 0.0
O736 O 1.0077 0.54862 0.5616 0.0
O737 O 0.03731 0.54643 0.5905 0.0
O738 O 0.08234 0.57323 0.58549 0.0
O739 O 0.0866 0.53587 0.57851 0.0
O740 O 0.03919 0.52572 0.53108 0.0
O741 O 0.04396 0.50929 0.56333 0.0
O742 O 0.07331 0.54871 0.52699 0.0
O743 O 0.04436 0.55193 0.49791 0.0
H744 H 0.9772 0.51552 0.53405 0.0
H745 H 0.94213 0.49606 0.54126 0.0
H746 H 0.91169 0.53325 0.48591 0.0
H747 H 0.94712 0.55339 0.47893 0.0
H748 H 0.10594 0.59974 0.56415 0.0
H749 H 0.13963 0.61505 0.55087 0.0
H750 H 0.16239 0.55099 0.56793 0.0
H751 H 0.12871 0.53561 0.58182 0.0
Tb752 Tb 0.78856 0.79193 0.31179 0.0
Tb753 Tb 0.83164 0.776 0.31581 0.0
C754 C 0.75187 0.79887 0.31772 0.0
C755 C 0.73684 0.79818 0.3361 0.0
C756 C 0.7272 0.7763 0.34315 0.0
C757 C 0.71018 0.77537 0.35662 0.0
C758 C 0.70235 0.79627 0.36345 0.0
C759 C 0.71296 0.81842 0.35789 0.0
C760 C 0.72992 0.81932 0.34426 0.0
C761 C 0.82086 0.82321 0.30267 0.0
C762 C 0.81838 0.79507 0.3645 0.0
C763 C 0.86809 0.76809 0.31113 0.0
C764 C 0.88217 0.76737 0.29213 0.0
C765 C 0.88798 0.78738 0.27986 0.0
C766 C 0.9041 0.78793 0.26527 0.0
C767 C 0.91456 0.76844 0.26249 0.0
C768 C 0.90761 0.74766 0.27312 0.0
C769 C 0.89159 0.74721 0.28797 0.0
C770 C 0.79953 0.74484 0.32495 0.0
C771 C 0.80239 0.77304 0.26257 0.0
O772 O 0.75552 0.77833 0.30768 0.0
O773 O 0.76913 0.81596 0.32243 0.0
O774 O 0.82156 0.8095 0.3191 0.0
O775 O 0.80114 0.82156 0.29222 0.0
O776 O 0.79859 0.79107 0.35185 0.0
O777 O 0.83511 0.79361 0.35355 0.0
O778 O 0.86459 0.78925 0.31957 0.0
O779 O 0.85086 0.75106 0.30763 0.0
O780 O 0.7988 0.75855 0.30851 0.0
O781 O 0.81909 0.7472 0.33627 0.0
O782 O 0.82189 0.77584 0.27575 0.0
O783 O 0.7856 0.77619 0.27301 0.0
H784 H 0.73217 0.75967 0.33739 0.0
H785 H 0.70267 0.75808 0.36102 0.0
H786 H 0.70738 0.83486 0.3628 0.0
H787 H 0.73696 0.83645 0.33906 0.0
H788 H 0.88079 0.80306 0.28241 0.0
H789 H 0.90904 0.80404 0.25698 0.0
H790 H 0.91545 0.73243 0.27126 0.0
H791 H 0.88727 0.73153 0.29718 0.0
Tb792 Tb 0.807 0.28356 0.7958 0.0
Tb793 Tb 0.79541 0.30366 0.83706 0.0
C794 C 0.81496 0.27479 0.75299 0.0
C795 C 0.82112 0.29275 0.73704 0.0
C796 C 0.809 0.31057 0.73317 0.0
C797 C 0.8152 0.32806 0.71854 0.0
C798 C 0.8335 0.32786 0.70739 0.0
C799 C 0.84675 0.31158 0.71339 0.0
C800 C 0.84047 0.29394 0.72802 0.0
C801 C 0.8353 0.28101 0.83579 0.0
C802 C 0.82088 0.34135 0.81001 0.0
C803 C 0.78664 0.31555 0.87921 0.0
C804 C 0.77609 0.30105 0.89577 0.0
C805 C 0.78142 0.27881 0.89942 0.0
C806 C 0.77109 0.26477 0.91484 0.0
C807 C 0.75533 0.27281 0.92699 0.0
C808 C 0.74907 0.29438 0.92207 0.0
C809 C 0.75942 0.30846 0.9064 0.0
C810 C 0.76782 0.30659 0.79673 0.0
C811 C 0.78046 0.24545 0.82122 0.0
O812 O 0.79542 0.27257 0.75763 0.0
O813 O 0.82905 0.27585 0.77304 0.0
O814 O 0.827 0.29913 0.83162 0.0
O815 O 0.82666 0.2636 0.81791 0.0
O816 O 0.81723 0.32263 0.7921 0.0
O817 O 0.81517 0.33779 0.8317 0.0
O818 O 0.80552 0.31181 0.87581 0.0
O819 O 0.77427 0.31634 0.85834 0.0
O820 O 0.77561 0.28831 0.80132 0.0
O821 O 0.77646 0.32403 0.81448 0.0
O822 O 0.78385 0.26396 0.83962 0.0
O823 O 0.78709 0.24956 0.80014 0.0
H824 H 0.7944 0.31067 0.74082 0.0
H825 H 0.80449 0.34019 0.71406 0.0
H826 H 0.86094 0.31124 0.70498 0.0
H827 H 0.8504 0.28088 0.73179 0.0
H828 H 0.79398 0.27251 0.89097 0.0
H829 H 0.77679 0.2486 0.91885 0.0
H830 H 0.73723 0.30102 0.93161 0.0
H831 H 0.75483 0.32537 0.90309 0.0
Tb832 Tb 0.77859 0.76998 0.79053 0.0
Tb833 Tb 0.81827 0.80286 0.81059 0.0
C834 C 0.74115 0.74718 0.78656 0.0
C835 C 0.72236 0.75613 0.79251 0.0
C836 C 0.72192 0.76605 0.81717 0.0
C837 C 0.70512 0.77674 0.82238 0.0
C838 C 0.68855 0.77777 0.80305 0.0
C839 C 0.68887 0.76787 0.77843 0.0
C840 C 0.70571 0.75707 0.77319 0.0
C841 C 0.79777 0.78954 0.75647 0.0
C842 C 0.77802 0.82822 0.80853 0.0
C843 C 0.85589 0.82313 0.81105 0.0
C844 C 0.87368 0.81169 0.80541 0.0
C845 C 0.87482 0.80306 0.78052 0.0
C846 C 0.89121 0.79146 0.77531 0.0
C847 C 0.90671 0.78825 0.79487 0.0
C848 C 0.905 0.79582 0.81976 0.0
C849 C 0.88872 0.80761 0.82498 0.0
C850 C 0.79977 0.78396 0.84548 0.0
C851 C 0.81893 0.74484 0.79351 0.0
O852 O 0.75607 0.74753 0.80576 0.0
O853 O 0.74894 0.75533 0.76757 0.0
O854 O 0.79588 0.79971 0.77743 0.0
O855 O 0.78805 0.76708 0.75347 0.0
O856 O 0.76714 0.80525 0.80124 0.0
O857 O 0.79937 0.832 0.81305 0.0
O858 O 0.84052 0.82189 0.79207 0.0
O859 O 0.84859 0.8185 0.83159 0.0
O860 O 0.80077 0.77327 0.82425 0.0
O861 O 0.81026 0.80616 0.84806 0.0
O862 O 0.82967 0.76765 0.80116 0.0
O863 O 0.79765 0.74101 0.78833 0.0
H864 H 0.73464 0.76587 0.8325 0.0
H865 H 0.70494 0.78386 0.8416 0.0
H866 H 0.67617 0.76862 0.7633 0.0
H867 H 0.70594 0.74984 0.75402 0.0
H868 H 0.86321 0.80544 0.76495 0.0
H869 H 0.89222 0.78595 0.75593 0.0
H870 H 0.91655 0.7931 0.8352 0.0
H871 H 0.88793 0.81356 0.84432 0.0
Tb872 Tb 0.54222 0.53316 0.55338 0.0
Tb873 Tb 0.58737 0.55957 0.58294 0.0
C874 C 0.50274 0.52414 0.54439 0.0
C875 C 0.4915 0.544 0.54405 0.0
C876 C 0.50056 0.56513 0.56089 0.0
C877 C 0.49294 0.58594 0.55853 0.0
C878 C 0.47488 0.58535 0.54074 0.0
C879 C 0.46606 0.56472 0.52325 0.0
C880 C 0.4747 0.54407 0.52462 0.0
C881 C 0.57045 0.53673 0.52336 0.0
C882 C 0.55987 0.59078 0.55496 0.0
C883 C 0.62646 0.56815 0.59887 0.0
C884 C 0.64041 0.55071 0.59866 0.0
C885 C 0.63646 0.53205 0.57844 0.0
C886 C 0.64831 0.51411 0.5788 0.0
C887 C 0.66418 0.51453 0.5994 0.0
C888 C 0.66799 0.53277 0.61988 0.0
C889 C 0.65594 0.5508 0.6196 0.0
C890 C 0.55512 0.55982 0.60715 0.0
C891 C 0.5708 0.50072 0.57687 0.0
O892 O 0.51338 0.5226 0.56635 0.0
O893 O 0.51417 0.52271 0.52655 0.0
O894 O 0.57343 0.5432 0.54656 0.0
O895 O 0.55063 0.52574 0.51641 0.0
O896 O 0.54361 0.57194 0.55112 0.0
O897 O 0.57939 0.58997 0.56583 0.0
O898 O 0.61835 0.57256 0.57669 0.0
O899 O 0.61219 0.56437 0.61356 0.0
O900 O 0.55774 0.54333 0.59133 0.0
O901 O 0.57184 0.57728 0.6107 0.0
O902 O 0.58613 0.5205 0.58482 0.0
O903 O 0.55201 0.50102 0.56355 0.0
H904 H 0.51369 0.56573 0.576 0.0
H905 H 0.49958 0.60171 0.57242 0.0
H906 H 0.45174 0.5641 0.50978 0.0
H907 H 0.46806 0.52815 0.51101 0.0
H908 H 0.62407 0.53118 0.56242 0.0
H909 H 0.64544 0.50016 0.56275 0.0
H910 H 0.68033 0.53313 0.63581 0.0
H911 H 0.65863 0.56468 0.63564 0.0
Tb912 Tb 0.06996 0.53834 0.04972 0.0
Tb913 Tb 0.02809 0.5359 0.06769 0.0
C914 C 0.10856 0.53386 0.05213 0.0
C915 C 0.12216 0.51572 0.04785 0.0
C916 C 0.12588 0.49985 0.0654 0.0
C917 C 0.14209 0.48653 0.06434 0.0
C918 C 0.15511 0.48876 0.04579 0.0
C919 C 0.15036 0.50331 0.02726 0.0
C920 C 0.13418 0.51669 0.02835 0.0
C921 C 0.03999 0.54033 1.00905 0.0
C922 C 0.0378 0.48843 0.04434 0.0
C923 C 0.99236 0.54108 0.07877 0.0
C924 C 0.97796 0.55841 0.07774 0.0
C925 C 0.97672 0.57303 0.05869 0.0
C926 C 0.96118 0.58731 0.05663 0.0
C927 C 0.94661 0.5872 0.07357 0.0
C928 C 0.94875 0.5735 0.09341 0.0
C929 C 0.96427 0.55925 0.09543 0.0
C930 C 0.05988 0.52711 0.10155 0.0
C931 C 0.05791 0.58694 0.06749 0.0
O932 O 0.09769 0.5317 0.07044 0.0
O933 O 0.0978 0.54085 0.03292 0.0
O934 O 0.03726 0.53867 0.0317 0.0
O935 O 0.06025 0.54058 1.00939 0.0
O936 O 0.0579 0.49978 0.04718 0.0
O937 O 0.02217 0.49964 0.04804 0.0
O938 O 0.9947 0.52991 0.05737 0.0
O939 O 1.01044 0.54775 0.09442 0.0
O940 O 0.06109 0.54291 0.08664 0.0
O941 O 0.04014 0.5155 0.09706 0.0
O942 O 0.03853 0.57443 0.06767 0.0
O943 O 0.07373 0.57668 0.06192 0.0
H944 H 0.11704 0.49863 0.08081 0.0
H945 H 0.14525 0.47564 0.07901 0.0
H946 H 0.15969 0.50507 0.01234 0.0
H947 H 0.13179 0.5287 0.01458 0.0
H948 H 0.98734 0.5729 0.04502 0.0
H949 H 0.96028 0.59804 0.04144 0.0
H950 H 0.93778 0.57285 0.1067 0.0
H951 H 0.96508 0.54817 0.11035 0.0
H952 H 0.02824 0.18859 0.95262 0.0
H953 H 0.0716 0.13995 0.07935 0.0
H954 H 0.04303 0.23387 0.02426 0.0
H955 H 0.04171 0.09451 1.01009 0.0
H956 H 0.06505 0.1756 0.05966 0.0
H957 H 0.03725 0.15502 0.9733 0.0
C958 C 0.03323 0.19145 0.97276 0.0
C959 C 0.03454 0.21403 0.98671 0.0
C960 C 0.05998 0.15782 0.0488 0.0
C961 C 0.04509 0.17546 1.01069 0.0
C962 C 0.06374 0.13755 0.06 0.0
C963 C 0.05687 0.11432 0.04635 0.0
C964 C 0.0498 0.15474 0.02363 0.0
C965 C 0.04686 0.11209 0.02136 0.0
C966 C 0.03844 0.17224 0.98459 0.0
C967 C 0.04153 0.21669 0.01277 0.0
N968 N 0.04374 0.13197 0.01082 0.0
N969 N 0.04651 0.19764 0.02394 0.0
H970 H 0.14139 0.8315 0.23995 0.0
H971 H 0.24551 0.77133 0.25439 0.0
H972 H 0.15392 0.78233 0.18058 0.0
H973 H 0.24172 0.83719 0.29918 0.0
H974 H 0.21011 0.77134 0.22976 0.0
H975 H 0.1762 0.83024 0.26459 0.0
C976 C 0.15145 0.82042 0.2321 0.0
C977 C 0.14476 0.80716 0.20806 0.0
C978 C 0.21709 0.78578 0.24498 0.0
C979 C 0.18462 0.80525 0.23642 0.0
C980 C 0.23729 0.78576 0.25905 0.0
C981 C 0.2468 0.8044 0.27878 0.0
C982 C 0.2061 0.80433 0.25094 0.0
C983 C 0.23523 0.82256 0.28402 0.0
C984 C 0.17136 0.81971 0.24617 0.0
C985 C 0.15851 0.79306 0.19891 0.0
N986 N 0.21559 0.82199 0.27037 0.0
N987 N 0.17766 0.79235 0.2131 0.0
H988 H 0.51848 0.85569 0.45039 0.0
H989 H 0.55678 0.95626 0.56754 0.0
H990 H 0.54027 0.83741 0.52321 0.0
H991 H 0.50804 0.96194 0.50651 0.0
H992 H 0.55314 0.91345 0.55161 0.0
H993 H 0.51757 0.89607 0.46993 0.0
C994 C 0.52316 0.86025 0.47052 0.0
C995 C 0.52948 0.84329 0.48526 0.0
C996 C 0.54301 0.92397 0.54194 0.0
C997 C 0.52848 0.88937 0.50766 0.0
C998 C 0.54507 0.94827 0.55099 0.0
C999 C 0.53263 0.96235 0.53824 0.0
C1000 C 0.52889 0.91403 0.5196 0.0
C1001 C 0.51773 0.95147 0.5169 0.0
C1002 C 0.52243 0.88319 0.48165 0.0
C1003 C 0.53525 0.85002 0.51125 0.0
N1004 N 0.51652 0.92794 0.50793 0.0
N1005 N 0.53481 0.87272 0.52167 0.0
H1006 H 0.50679 0.3 0.66339 0.0
H1007 H 0.45071 0.24967 0.77407 0.0
H1008 H 0.54101 0.2787 0.72864 0.0
H1009 H 0.41941 0.28474 0.71727 0.0
H1010 H 0.48234 0.25428 0.7539 0.0
H1011 H 0.47336 0.28953 0.67976 0.0
C1012 C 0.50725 0.29312 0.68117 0.0
C1013 C 0.52671 0.29048 0.69486 0.0
C1014 C 0.46852 0.26088 0.74579 0.0
C1015 C 0.48855 0.27817 0.7135 0.0
C1016 C 0.45033 0.25804 0.75716 0.0
C1017 C 0.43238 0.26704 0.7475 0.0
C1018 C 0.46881 0.2728 0.7246 0.0
C1019 C 0.43301 0.27795 0.72566 0.0
C1020 C 0.48818 0.28712 0.69047 0.0
C1021 C 0.52639 0.28132 0.71768 0.0
N1022 N 0.45096 0.28065 0.71504 0.0
N1023 N 0.50761 0.27549 0.72628 0.0
H1024 H 0.09555 0.84839 0.72031 0.0
H1025 H 0.09983 0.88834 0.58612 0.0
H1026 H 0.06679 0.80424 0.64958 0.0
H1027 H 0.10631 0.93919 0.6529 0.0
H1028 H 0.10003 0.85594 0.61164 0.0
H1029 H 0.10948 0.88084 0.69748 0.0
C1030 C 0.09196 0.84571 0.70003 0.0
C1031 C 0.07973 0.82397 0.68671 0.0
C1032 C 0.10221 0.87431 0.62081 0.0
C1033 C 0.09615 0.86014 0.66089 0.0
C1034 C 0.10247 0.89278 0.60633 0.0
C1035 C 0.10309 0.91619 0.61767 0.0
C1036 C 0.10256 0.87953 0.64661 0.0
C1037 C 0.10586 0.92118 0.64376 0.0
C1038 C 0.10012 0.86398 0.68712 0.0
C1039 C 0.07582 0.82098 0.66052 0.0
N1040 N 0.10508 0.90276 0.65749 0.0
N1041 N 0.08407 0.83895 0.6484 0.0
H1042 H 0.45997 0.78503 0.88092 0.0
H1043 H 0.38399 0.85942 0.80929 0.0
H1044 H 0.48518 0.85174 0.85499 0.0
H1045 H 0.3741 0.78147 0.79852 0.0
H1046 H 0.41832 0.86093 0.83662 0.0
H1047 H 0.42381 0.78813 0.86192 0.0
C1048 C 0.45776 0.80034 0.87136 0.0
C1049 C 0.4752 0.81787 0.86874 0.0
C1050 C 0.40846 0.84364 0.82804 0.0
C1051 C 0.43476 0.82175 0.84792 0.0
C1052 C 0.38926 0.84279 0.81229 0.0
C1053 C 0.37668 0.8204 0.80122 0.0
C1054 C 0.41442 0.82194 0.83296 0.0
C1055 C 0.38366 0.79919 0.80608 0.0
C1056 C 0.43734 0.80215 0.86073 0.0
C1057 C 0.47191 0.8376 0.85663 0.0
N1058 N 0.40208 0.8005 0.82184 0.0
N1059 N 0.45189 0.83901 0.84644 0.0
H1060 H 0.56444 0.17722 0.18898 0.0
H1061 H 0.54857 0.13799 0.04122 0.0
H1062 H 0.55959 0.22825 0.13636 0.0
H1063 H 0.55549 0.09192 0.09855 0.0
H1064 H 0.55506 0.17274 0.07472 0.0
H1065 H 0.56334 0.14606 0.15453 0.0
C1066 C 0.56299 0.18173 0.17008 0.0
C1067 C 0.56175 0.205 0.1653 0.0
C1068 C 0.55565 0.15493 0.07963 0.0
C1069 C 0.56079 0.16982 0.1258 0.0
C1070 C 0.55206 0.13529 0.06063 0.0
C1071 C 0.55207 0.11219 0.06708 0.0
C1072 C 0.55911 0.15094 0.10481 0.0
C1073 C 0.55615 0.10936 0.09243 0.0
C1074 C 0.56251 0.16407 0.15039 0.0
C1075 C 0.56018 0.21022 0.1406 0.0
N1076 N 0.55945 0.12843 0.11024 0.0
N1077 N 0.55968 0.19264 0.12158 0.0
H1078 H 0.06643 0.28005 0.34605 0.0
H1079 H 0.18525 0.32362 0.32145 0.0
H1080 H 0.10669 0.34845 0.37998 0.0
H1081 H 0.14793 0.25153 0.29798 0.0
H1082 H 0.15474 0.33534 0.33815 0.0
H1083 H 0.09498 0.27087 0.3244 0.0
C1084 C 0.08128 0.29327 0.34854 0.0
C1085 C 0.08441 0.31514 0.36429 0.0
C1086 C 0.15318 0.31704 0.32911 0.0
C1087 C 0.11685 0.30494 0.3398 0.0
C1088 C 0.17041 0.3105 0.31949 0.0
C1089 C 0.16866 0.28678 0.3083 0.0
C1090 C 0.13448 0.29953 0.3277 0.0
C1091 C 0.14949 0.27011 0.3062 0.0
C1092 C 0.09754 0.28801 0.33633 0.0
C1093 C 0.10392 0.33146 0.36773 0.0
N1094 N 0.13309 0.27677 0.31611 0.0
N1095 N 0.11955 0.32606 0.35537 0.0
H1096 H 1.01401 0.04858 0.25215 0.0
H1097 H 0.02796 0.01879 0.11186 0.0
H1098 H 0.96303 1.00482 0.19641 0.0
H1099 H 0.05785 0.08807 0.15482 0.0
H1100 H 1.00728 1.00977 0.14469 0.0
H1101 H 0.0341 0.05944 0.2188 0.0
C1102 C 1.00711 0.04119 0.2329 0.0
C1103 C 0.98691 0.02573 0.2269 0.0
C1104 C 0.01814 0.02708 0.14677 0.0
C1105 C 1.00969 0.03797 0.18904 0.0
C1106 C 0.02967 0.03247 0.12782 0.0
C1107 C 0.04372 0.05482 0.12996 0.0
C1108 C 0.02142 0.04367 0.16857 0.0
C1109 C 0.04663 0.07097 0.15211 0.0
C1110 C 0.01849 0.04753 0.21397 0.0
C1111 C 0.97858 1.01677 0.20174 0.0
N1112 N 0.03564 0.065 0.17076 0.0
N1113 N 0.99011 0.02289 0.18368 0.0
H1114 H 0.29148 0.70396 0.54842 0.0
H1115 H 0.27647 0.8068 0.46601 0.0
H1116 H 0.3431 0.76089 0.54014 0.0
H1117 H 0.23921 0.73439 0.44379 0.0
H1118 H 0.29521 0.79382 0.50228 0.0
H1119 H 0.26734 0.71812 0.51695 0.0
C1120 C 0.2976 0.71941 0.53971 0.0
C1121 C 0.3189 0.73167 0.54654 0.0
C1122 C 0.28243 0.781 0.4899 0.0
C1123 C 0.29189 0.74775 0.51146 0.0
C1124 C 0.27132 0.78846 0.46958 0.0
C1125 C 0.25612 0.77157 0.45213 0.0
C1126 C 0.27797 0.75668 0.49291 0.0
C1127 C 0.25065 0.74786 0.45712 0.0
C1128 C 0.28395 0.7274 0.52199 0.0
C1129 C 0.32654 0.75146 0.53526 0.0
N1130 N 0.2619 0.74091 0.47707 0.0
N1131 N 0.31287 0.75905 0.51804 0.0
H1132 H 0.61311 0.99348 0.7499 0.0
H1133 H 0.60053 0.05686 0.62272 0.0
H1134 H 0.66271 0.04896 0.73479 0.0
H1135 H 0.55411 0.99777 0.63741 0.0
H1136 H 0.62323 0.05525 0.66314 0.0
H1137 H 0.5914 0.99568 0.70936 0.0
C1138 C 0.61956 1.00616 0.73818 0.0
C1139 C 0.64011 0.02093 0.74631 0.0
C1140 C 0.6081 0.04256 0.65753 0.0
C1141 C 0.61471 0.02377 0.69881 0.0
C1142 C 0.59505 0.04345 0.63422 0.0
C1143 C 0.57509 0.02737 0.62605 0.0
C1144 C 0.60138 0.0255 0.6733 0.0
C1145 C 0.56919 1.01061 0.64243 0.0
C1146 C 0.60704 1.00744 0.71478 0.0
C1147 C 0.64716 0.037 0.7297 0.0
N1148 N 0.58202 1.01017 0.66483 0.0
N1149 N 0.63465 0.03799 0.70714 0.0
H1150 H 0.31032 0.33493 0.01974 0.0
H1151 H 0.3483 0.33489 0.88765 0.0
H1152 H 0.33543 0.39981 0.99065 0.0
H1153 H 0.29778 0.27913 0.90085 0.0
H1154 H 0.34991 0.35585 0.92973 0.0
H1155 H 0.31048 0.31131 0.97936 0.0
C1156 C 0.31581 0.34414 1.0048 0.0
C1157 C 0.32295 0.36924 1.00833 0.0
C1158 C 0.33871 0.33883 0.92354 0.0
C1159 C 0.32361 0.34255 0.96286 0.0
C1160 C 0.338 0.32679 0.89979 0.0
C1161 C 0.32292 0.30542 0.89118 0.0
C1162 C 0.32451 0.32909 0.93871 0.0
C1163 C 0.30955 0.2957 0.90712 0.0
C1164 C 0.31589 0.33072 0.98191 0.0
C1165 C 0.32977 0.38047 0.98853 0.0
N1166 N 0.31064 0.30767 0.93033 0.0
N1167 N 0.33013 0.36697 0.96661 0.0
H1168 H 1.0003 0.9829 0.34704 0.0
H1169 H 0.03031 0.06665 0.4798 0.0
H1170 H 0.98193 0.05137 0.36396 0.0
H1171 H 0.03984 0.9932 0.4699 0.0
H1172 H 0.01671 0.06258 0.43536 0.0
H1173 H 0.01902 0.98747 0.39056 0.0
C1174 C 1.00039 0.99889 0.35983 0.0
C1175 C 0.98959 1.01674 0.3521 0.0
C1176 C 0.02184 0.04734 0.44286 0.0
C1177 C 1.01062 0.02204 0.40116 0.0
C1178 C 0.02968 0.04972 0.46825 0.0
C1179 C 0.03607 0.03024 0.47855 0.0
C1180 C 0.0204 0.02533 0.42766 0.0
C1181 C 0.03486 1.00864 0.46269 0.0
C1182 C 1.01094 1.00146 0.38454 0.0
C1183 C 0.99002 0.03713 0.36919 0.0
N1184 N 0.02704 1.00671 0.43792 0.0
N1185 N 1.0003 0.03916 0.39292 0.0
H1186 H 0.38398 0.76448 0.66405 0.0
H1187 H 0.28147 0.75855 0.72836 0.0
H1188 H 0.35301 0.70108 0.69064 0.0
H1189 H 0.31543 0.82359 0.70757 0.0
H1190 H 0.3064 0.73634 0.71164 0.0
H1191 H 0.3631 0.78829 0.68633 0.0
C1192 C 0.37355 0.75574 0.6757 0.0
C1193 C 0.36792 0.73054 0.67317 0.0
C1194 C 0.30828 0.75545 0.7104 0.0
C1195 C 0.34426 0.75702 0.69809 0.0
C1196 C 0.29351 0.76792 0.71895 0.0
C1197 C 0.29744 0.79309 0.72064 0.0
C1198 C 0.32645 0.7685 0.70306 0.0
C1199 C 0.3126 0.80423 0.70749 0.0
C1200 C 0.36112 0.76922 0.68773 0.0
C1201 C 0.35604 0.72038 0.69028 0.0
N1202 N 0.32741 0.79211 0.7003 0.0
N1203 N 0.34326 0.7334 0.70086 0.0
H1204 H 0.65713 1.00842 0.90541 0.0
H1205 H 0.56152 0.0663 0.95657 0.0
H1206 H 0.62149 0.05173 0.86288 0.0
H1207 H 0.60003 0.02628 1.00004 0.0
H1208 H 0.58269 0.06146 0.92266 0.0
H1209 H 0.6363 1.01434 0.93933 0.0
C1210 C 0.64498 0.01923 0.90301 0.0
C1211 C 0.64141 0.02939 0.88055 0.0
C1212 C 0.58656 0.05361 0.93953 0.0
C1213 C 0.61684 0.03659 0.92062 0.0
C1214 C 0.57434 0.0564 0.95916 0.0
C1215 C 0.57866 0.04686 0.98189 0.0
C1216 C 0.60338 0.04062 0.94178 0.0
C1217 C 0.59586 0.03432 0.98339 0.0
C1218 C 0.63295 0.02266 0.92266 0.0
C1219 C 0.62509 0.04322 0.87935 0.0
N1220 N 0.60721 0.03151 0.96395 0.0
N1221 N 0.61369 0.04635 0.89873 0.0
H1222 H 0.30525 0.33884 0.11407 0.0
H1223 H 0.31626 0.33741 0.26192 0.0
H1224 H 0.33645 0.40049 0.16878 0.0
H1225 H 0.28849 0.27472 0.20719 0.0
H1226 H 0.32304 0.36099 0.22816 0.0
H1227 H 0.29776 0.31559 0.14787 0.0
C1228 C 0.31067 0.34746 0.13325 0.0
C1229 C 0.32172 0.37161 0.13865 0.0
C1230 C 0.31555 0.34206 0.22348 0.0
C1231 C 0.31318 0.34497 0.17752 0.0
C1232 C 0.31185 0.32851 0.24278 0.0
C1233 C 0.3023 0.30391 0.23737 0.0
C1234 C 0.30937 0.33105 0.1985 0.0
C1235 C 0.29629 0.29352 0.21219 0.0
C1236 C 0.30632 0.33416 0.15255 0.0
C1237 C 0.32799 0.38192 0.16382 0.0
N1238 N 0.29989 0.30717 0.19367 0.0
N1239 N 0.32372 0.3685 0.18234 0.0
H1240 H 0.20816 0.88527 0.05577 0.0
H1241 H 0.19573 0.02202 0.07175 0.0
H1242 H 0.22014 0.93417 1.00199 0.0
H1243 H 0.16261 0.96966 0.11143 0.0
H1244 H 0.2123 0.99105 0.05275 0.0
H1245 H 0.19661 0.91679 0.08158 0.0
C1246 C 0.20751 0.90236 0.04899 0.0
C1247 C 0.21453 0.90724 0.02661 0.0
C1248 C 0.20184 0.98642 0.06609 0.0
C1249 C 0.20233 0.94312 0.05611 0.0
C1250 C 0.19275 1.00412 0.07718 0.0
C1251 C 0.17823 0.99812 0.09324 0.0
C1252 C 0.19612 0.96269 0.07107 0.0
C1253 C 0.17407 0.97471 0.09929 0.0
C1254 C 0.20136 0.92037 0.06388 0.0
C1255 C 0.21447 0.92982 0.01902 0.0
N1256 N 0.1829 0.95755 0.08792 0.0
N1257 N 0.20848 0.94706 0.03384 0.0
H1258 H 0.72175 0.60277 0.0143 0.0
H1259 H 0.61322 0.59086 0.07244 0.0
H1260 H 0.70705 0.66218 0.06006 0.0
H1261 H 0.62225 0.54169 1.01074 0.0
H1262 H 0.6485 0.61601 0.07142 0.0
H1263 H 0.6865 0.57868 0.01611 0.0
C1264 C 0.71111 0.61073 0.02476 0.0
C1265 C 0.71732 0.63457 0.03689 0.0
C1266 C 0.64269 0.59973 0.05809 0.0
C1267 C 0.67688 0.60694 0.03938 0.0
C1268 C 0.62254 0.58539 0.05865 0.0
C1269 C 0.6146 0.56421 0.04148 0.0
C1270 C 0.6552 0.59258 0.04058 0.0
C1271 C 0.62755 0.55793 0.02421 0.0
C1272 C 0.69093 0.59699 0.02577 0.0
C1273 C 0.70282 0.64394 0.05021 0.0
N1274 N 0.64713 0.57189 0.0243 0.0
N1275 N 0.68336 0.6301 0.05122 0.0
H1276 H 0.66316 0.50008 0.27867 0.0
H1277 H 0.76315 0.44156 0.32257 0.0
H1278 H 0.70742 0.52268 0.3484 0.0
H1279 H 0.72159 0.41682 0.25137 0.0
H1280 H 0.74258 0.47212 0.33129 0.0
H1281 H 0.68375 0.4695 0.26728 0.0
C1282 C 0.6771 0.49837 0.2916 0.0
C1283 C 0.68381 0.5137 0.31442 0.0
C1284 C 0.73782 0.46014 0.3137 0.0
C1285 C 0.70707 0.47932 0.30173 0.0
C1286 C 0.74956 0.44278 0.30879 0.0
C1287 C 0.74369 0.42689 0.28644 0.0
C1288 C 0.72004 0.46151 0.29609 0.0
C1289 C 0.72626 0.42894 0.26887 0.0
C1290 C 0.68883 0.48112 0.28507 0.0
C1291 C 0.70194 0.51123 0.33054 0.0
N1292 N 0.7148 0.44607 0.27415 0.0
N1293 N 0.71294 0.49427 0.32388 0.0
H1294 H 0.80622 0.43336 0.54072 0.0
H1295 H 0.90619 0.47726 0.47766 0.0
H1296 H 0.82671 0.38683 0.48523 0.0
H1297 H 0.89916 0.51086 0.54993 0.0
H1298 H 0.87568 0.44498 0.47868 0.0
H1299 H 0.8397 0.46245 0.54427 0.0
C1300 C 0.81798 0.42927 0.52945 0.0
C1301 C 0.81379 0.4081 0.51234 0.0
C1302 C 0.88074 0.45943 0.49428 0.0
C1303 C 0.85171 0.44121 0.51596 0.0
C1304 C 0.89781 0.47794 0.49349 0.0
C1305 C 0.90457 0.49667 0.51351 0.0
C1306 C 0.87038 0.45997 0.51514 0.0
C1307 C 0.89393 0.49674 0.53403 0.0
C1308 C 0.83704 0.44578 0.53154 0.0
C1309 C 0.82947 0.40317 0.49847 0.0
N1310 N 0.87711 0.47862 0.53427 0.0
N1311 N 0.84775 0.41995 0.50024 0.0
H1312 H 0.40711 0.14169 0.32184 0.0
H1313 H 0.30664 0.19966 0.2619 0.0
H1314 H 0.3617 0.10489 0.25718 0.0
H1315 H 0.3563 0.23756 0.32203 0.0
H1316 H 0.32514 0.16515 0.26005 0.0
H1317 H 0.38785 0.17535 0.32283 0.0
C1318 C 0.39319 0.14052 0.30762 0.0
C1319 C 0.38658 0.1197 0.2893 0.0
C1320 C 0.33207 0.1809 0.27377 0.0
C1321 C 0.36364 0.15979 0.29027 0.0
C1322 C 0.32137 0.20095 0.27487 0.0
C1323 C 0.3296 0.22245 0.29209 0.0
C1324 C 0.35135 0.18135 0.29039 0.0
C1325 C 0.34904 0.22206 0.30812 0.0
C1326 C 0.38201 0.16008 0.30824 0.0
C1327 C 0.36788 0.12006 0.27182 0.0
N1328 N 0.35885 0.20228 0.30697 0.0
N1329 N 0.3574 0.13939 0.27271 0.0
H1330 H 0.32196 0.12441 0.57429 0.0
H1331 H 0.44113 0.12572 0.54747 0.0
H1332 H 0.35209 0.17093 0.5268 0.0
H1333 H 0.41074 0.08099 0.59641 0.0
H1334 H 0.4097 0.14429 0.54148 0.0
H1335 H 0.35535 0.11023 0.58459 0.0
C1336 C 0.33557 0.13144 0.56582 0.0
C1337 C 0.33415 0.14853 0.54932 0.0
C1338 C 0.41 0.13054 0.55368 0.0
C1339 C 0.3725 0.13238 0.56099 0.0
C1340 C 0.4279 0.11982 0.55701 0.0
C1341 C 0.42859 0.10157 0.57231 0.0
C1342 C 0.39257 0.12292 0.56565 0.0
C1343 C 0.41111 0.09508 0.58459 0.0
C1344 C 0.35469 0.12347 0.57182 0.0
C1345 C 0.35246 0.15755 0.53942 0.0
N1346 N 0.39381 0.10561 0.58086 0.0
N1347 N 0.37083 0.1492 0.54522 0.0
H1348 H 0.67923 0.64395 0.30704 0.0
H1349 H 0.79819 0.71705 0.36212 0.0
H1350 H 0.72097 0.62399 0.36715 0.0
H1351 H 0.7603 0.73113 0.2953 0.0
H1352 H 0.76868 0.68495 0.36641 0.0
H1353 H 0.70766 0.678 0.30418 0.0
C1354 C 0.69427 0.6471 0.31995 0.0
C1355 C 0.69782 0.63157 0.33762 0.0
C1356 C 0.76678 0.69508 0.35083 0.0
C1357 C 0.73021 0.67012 0.33448 0.0
C1358 C 0.78357 0.71337 0.34843 0.0
C1359 C 0.78153 0.72656 0.32837 0.0
C1360 C 0.74791 0.69003 0.33298 0.0
C1361 C 0.76234 0.72135 0.31114 0.0
C1362 C 0.71051 0.66635 0.3182 0.0
C1363 C 0.71768 0.6358 0.35343 0.0
N1364 N 0.74622 0.70334 0.31378 0.0
N1365 N 0.73316 0.6548 0.35156 0.0
H1366 H 0.91352 0.4699 0.79196 0.0
H1367 H 0.80486 0.38335 0.81312 0.0
H1368 H 0.85469 0.49541 0.79331 0.0
H1369 H 0.86082 0.35715 0.7978 0.0
H1370 H 0.82246 0.4243 0.8075 0.0
H1371 H 0.89474 0.42936 0.79601 0.0
C1372 C 0.8966 0.46708 0.79299 0.0
C1373 C 0.88588 0.48657 0.79215 0.0
C1374 C 0.83096 0.40966 0.80538 0.0
C1375 C 0.86385 0.43918 0.79705 0.0
C1376 C 0.82087 0.38617 0.80861 0.0
C1377 C 0.83123 0.36647 0.80582 0.0
C1378 C 0.85197 0.41399 0.7999 0.0
C1379 C 0.85202 0.37151 0.79989 0.0
C1380 C 0.88581 0.4437 0.79532 0.0
C1381 C 0.86383 0.48124 0.79377 0.0
N1382 N 0.86164 0.39454 0.7974 0.0
N1383 N 0.85368 0.45832 0.7962 0.0
H1384 H 0.09819 0.89217 0.16654 0.0
H1385 H 0.04625 0.95652 0.05703 0.0
H1386 H 0.0603 0.85154 0.09804 0.0
H1387 H 0.09962 0.99243 0.11433 0.0
H1388 H 0.0483 0.91831 0.07304 0.0
H1389 H 0.09539 0.92949 0.14941 0.0
C1390 C 0.08932 0.89109 0.14782 0.0
C1391 C 0.07973 0.86867 0.13358 0.0
C1392 C 0.05967 0.93451 0.08193 0.0
C1393 C 0.07638 0.91151 0.11383 0.0
C1394 C 0.05858 0.95633 0.07279 0.0
C1395 C 0.07298 0.97771 0.08421 0.0
C1396 C 0.07505 0.9341 0.1029 0.0
C1397 C 0.08844 0.97639 0.1047 0.0
C1398 C 0.08777 0.91244 0.13803 0.0
C1399 C 0.0682 0.86844 0.10954 0.0
N1400 N 0.08894 0.95502 0.11349 0.0
N1401 N 0.06681 0.88956 0.1004 0.0
H1402 H 0.9676 0.2627 0.87383 0.0
H1403 H 0.85506 0.30372 0.88365 0.0
H1404 H 0.94998 0.2847 0.94477 0.0
H1405 H 0.86698 0.26139 0.81866 0.0
H1406 H 0.89125 0.30229 0.9055 0.0
H1407 H 0.93249 0.26717 0.85258 0.0
C1408 C 0.95635 0.26839 0.885 0.0
C1409 C 0.96183 0.27298 0.91125 0.0
C1410 C 0.88594 0.29341 0.88641 0.0
C1411 C 0.92132 0.27864 0.88679 0.0
C1412 C 0.86529 0.29433 0.87389 0.0
C1413 C 0.85774 0.28244 0.84931 0.0
C1414 C 0.89939 0.28093 0.87411 0.0
C1415 C 0.87186 0.27055 0.83769 0.0
C1416 C 0.93623 0.27099 0.87281 0.0
C1417 C 0.94647 0.28061 0.92455 0.0
N1418 N 0.89181 0.27019 0.85005 0.0
N1419 N 0.92707 0.28325 0.91226 0.0
H1420 H 0.59094 0.22181 0.66205 0.0
H1421 H 0.53375 0.11918 0.55067 0.0
H1422 H 0.56012 0.23985 0.5929 0.0
H1423 H 0.59141 0.11387 0.59918 0.0
H1424 H 0.53924 0.16203 0.56805 0.0
H1425 H 0.58698 0.18031 0.64194 0.0
C1426 C 0.58332 0.217 0.6426 0.0
C1427 C 0.57596 0.23427 0.62903 0.0
C1428 C 0.55079 0.15151 0.57463 0.0
C1429 C 0.57113 0.18678 0.60606 0.0
C1430 C 0.5477 0.12718 0.56474 0.0
C1431 C 0.56234 0.11322 0.57328 0.0
C1432 C 0.56825 0.16162 0.59375 0.0
C1433 C 0.58001 0.12421 0.59177 0.0
C1434 C 0.58117 0.19337 0.63113 0.0
C1435 C 0.56618 0.22708 0.60391 0.0
N1436 N 0.58232 0.14771 0.60167 0.0
N1437 N 0.56385 0.20375 0.59324 0.0
H1438 H 0.60139 0.81058 0.45243 0.0
H1439 H 0.66527 0.76269 0.34827 0.0
H1440 H 0.57156 0.75972 0.38666 0.0
H1441 H 0.69276 0.82593 0.40237 0.0
H1442 H 0.63171 0.75985 0.36446 0.0
H1443 H 0.6355 0.81526 0.43661 0.0
C1444 C 0.60198 0.80042 0.43463 0.0
C1445 C 0.5835 0.78469 0.42084 0.0
C1446 C 0.64505 0.77435 0.37289 0.0
C1447 C 0.62266 0.78982 0.40275 0.0
C1448 C 0.66435 0.77587 0.36378 0.0
C1449 C 0.68204 0.79443 0.37408 0.0
C1450 C 0.64323 0.79139 0.39273 0.0
C1451 C 0.67957 0.81131 0.39381 0.0
C1452 C 0.62148 0.80315 0.42561 0.0
C1453 C 0.5853 0.77207 0.39791 0.0
N1454 N 0.6606 0.80931 0.40259 0.0
N1455 N 0.60448 0.77479 0.38971 0.0
H1456 H 1.00438 0.26073 0.44757 0.0
H1457 H 0.06373 0.15832 0.47511 0.0
H1458 H 0.05655 0.24715 0.41017 0.0
H1459 H 0.99597 0.14903 0.47775 0.0
H1460 H 0.06117 0.19089 0.45087 0.0
H1461 H 1.00073 0.22022 0.45995 0.0
C1462 C 1.01502 0.24917 0.44207 0.0
C1463 C 0.03095 0.25699 0.42824 0.0
C1464 C 0.04669 0.18127 0.45607 0.0
C1465 C 0.02673 0.21142 0.44169 0.0
C1466 C 0.04809 0.16249 0.46973 0.0
C1467 C 0.02999 0.15105 0.47842 0.0
C1468 C 0.02719 0.18884 0.45149 0.0
C1469 C 1.0103 0.15776 0.4716 0.0
C1470 C 1.01272 0.22611 0.44871 0.0
C1471 C 0.04415 0.24157 0.42098 0.0
N1472 N 1.00947 0.17675 0.45886 0.0
N1473 N 0.0419 0.21947 0.42807 0.0
H1474 H 0.63522 0.25551 0.28434 0.0
H1475 H 0.74846 0.30372 0.24819 0.0
H1476 H 0.64443 0.28211 0.21471 0.0
H1477 H 0.74122 0.26042 0.30765 0.0
H1478 H 0.70986 0.29653 0.23627 0.0
H1479 H 0.6742 0.25922 0.2953 0.0
C1480 C 0.64553 0.26224 0.27157 0.0
C1481 C 0.63699 0.26818 0.24859 0.0
C1482 C 0.71658 0.28844 0.25187 0.0
C1483 C 0.68062 0.27227 0.26058 0.0
C1484 C 0.73851 0.29261 0.25864 0.0
C1485 C 0.74743 0.28301 0.27912 0.0
C1486 C 0.70373 0.27484 0.26603 0.0
C1487 C 0.73441 0.2683 0.29195 0.0
C1488 C 0.66754 0.2641 0.27761 0.0
C1489 C 0.65059 0.27692 0.23245 0.0
N1490 N 0.71287 0.26483 0.28535 0.0
N1491 N 0.67184 0.27868 0.23877 0.0
H1492 H 0.56428 0.87658 0.9753 0.0
H1493 H 0.52206 0.99711 0.99071 0.0
H1494 H 0.51992 0.89539 0.91679 0.0
H1495 H 0.54094 0.96144 0.05383 0.0
H1496 H 0.52251 0.96138 0.96257 0.0
H1497 H 0.55949 0.9108 1.0036 0.0
C1498 C 0.5537 0.88806 0.96844 0.0
C1499 C 0.54247 0.88337 0.94389 0.0
C1500 C 0.52602 0.96116 0.98259 0.0
C1501 C 0.53653 0.92162 0.97593 0.0
C1502 C 0.52541 0.98141 0.99874 0.0
C1503 C 0.53114 0.98205 0.02467 0.0
C1504 C 0.53289 0.94173 0.99252 0.0
C1505 C 0.53628 0.96153 0.03394 0.0
C1506 C 0.55078 0.90728 0.98457 0.0
C1507 C 0.52897 0.89863 0.93565 0.0
N1508 N 0.53741 0.94219 0.01775 0.0
N1509 N 0.52628 0.91716 0.95176 0.0
H1510 H 0.99871 0.73527 0.71685 0.0
H1511 H 0.94772 0.80652 0.81745 0.0
H1512 H 0.0353 0.78031 0.7838 0.0
H1513 H 0.90958 0.75169 0.75889 0.0
H1514 H 0.97992 0.79572 0.80582 0.0
H1515 H 0.96571 0.73969 0.73219 0.0
C1516 C 0.99974 0.74577 0.73497 0.0
C1517 C 0.01959 0.75742 0.74923 0.0
C1518 C 0.96454 0.78577 0.79569 0.0
C1519 C 0.98222 0.76269 0.76662 0.0
C1520 C 0.94611 0.7918 0.80247 0.0
C1521 C 0.92597 0.77982 0.78925 0.0
C1522 C 0.96285 0.7678 0.77537 0.0
C1523 C 0.92486 0.76144 0.76945 0.0
C1524 C 0.98096 0.74829 0.74368 0.0
C1525 C 0.02024 0.77091 0.77241 0.0
N1526 N 0.94315 0.75606 0.76295 0.0
N1527 N 1.00173 0.77336 0.78032 0.0
H1528 H 0.0961 0.05862 0.87875 0.0
H1529 H 0.1113 0.05866 0.02717 0.0
H1530 H 0.15896 0.07076 0.92405 0.0
H1531 H 0.05265 0.03016 0.97473 0.0
H1532 H 0.12972 0.06729 0.9914 0.0
H1533 H 0.08014 0.05263 0.91582 0.0
C1534 C 0.10654 0.06025 0.89662 0.0
C1535 C 0.12882 0.06526 0.89845 0.0
C1536 C 0.11282 0.05909 0.98796 0.0
C1537 C 0.11071 0.05831 0.94108 0.0
C1538 C 0.10239 0.0542 1.00827 0.0
C1539 C 0.08053 0.04356 1.00384 0.0
C1540 C 0.10105 0.05355 0.96343 0.0
C1541 C 0.06958 0.03819 0.97907 0.0
C1542 C 0.09745 0.05671 0.9178 0.0
C1543 C 0.14165 0.0669 0.92199 0.0
N1544 N 0.07992 0.04329 0.95993 0.0
N1545 N 0.13239 0.06345 0.94254 0.0
H1546 H 0.77413 0.31375 0.56018 0.0
H1547 H 0.82871 0.37321 0.69861 0.0
H1548 H 0.76622 0.38272 0.59487 0.0
H1549 H 0.83764 0.30508 0.66298 0.0
H1550 H 0.81063 0.3804 0.65839 0.0
H1551 H 0.799 0.31101 0.59758 0.0
C1552 C 0.77719 0.32794 0.57599 0.0
C1553 C 0.7684 0.34853 0.57463 0.0
C1554 C 0.81708 0.36417 0.65929 0.0
C1555 C 0.79723 0.34613 0.61663 0.0
C1556 C 0.82777 0.36036 0.68208 0.0
C1557 C 0.83406 0.33828 0.68411 0.0
C1558 C 0.81288 0.34573 0.6388 0.0
C1559 C 0.83276 0.32224 0.66226 0.0
C1560 C 0.79171 0.32668 0.59706 0.0
C1561 C 0.77292 0.36663 0.59534 0.0
N1562 N 0.82166 0.32593 0.64055 0.0
N1563 N 0.78726 0.36513 0.61551 0.0
H1564 H 0.47707 0.02576 0.34921 0.0
H1565 H 0.50578 0.06571 0.50135 0.0
H1566 H 0.45114 0.08158 0.38628 0.0
H1567 H 0.53718 1.01781 0.46057 0.0
H1568 H 0.48399 0.07004 0.46115 0.0
H1569 H 0.49684 0.02092 0.39 0.0
C1570 C 0.47553 0.03723 0.36578 0.0
C1571 C 0.46219 0.05436 0.36347 0.0
C1572 C 0.49546 0.05832 0.46093 0.0
C1573 C 0.48545 0.04866 0.4118 0.0
C1574 C 0.5079 0.05565 0.48417 0.0
C1575 C 0.52357 0.04108 0.48504 0.0
C1576 C 0.49813 0.04612 0.43779 0.0
C1577 C 0.52549 0.02919 0.46144 0.0
C1578 C 0.48695 0.03437 0.3894 0.0
C1579 C 0.46107 0.06817 0.38645 0.0
N1580 N 0.51313 0.03183 0.43936 0.0
N1581 N 0.47236 0.06509 0.40917 0.0
H1582 H 0.76556 0.73894 0.10036 0.0
H1583 H 0.82781 0.74815 0.23975 0.0
H1584 H 0.80717 0.69145 0.12446 0.0
H1585 H 0.77054 0.77711 0.22436 0.0
H1586 H 0.82331 0.7321 0.19582 0.0
H1587 H 0.77005 0.75801 0.14415 0.0
C1588 C 0.77568 0.73265 0.11483 0.0
C1589 C 0.78587 0.7135 0.10894 0.0
C1590 C 0.81173 0.74204 0.20194 0.0
C1591 C 0.79117 0.73516 0.15851 0.0
C1592 C 0.81435 0.75137 0.22703 0.0
C1593 C 0.79957 0.76412 0.23567 0.0
C1594 C 0.79433 0.74567 0.18512 0.0
C1595 C 0.78226 0.76735 0.21838 0.0
C1596 C 0.77814 0.7434 0.13972 0.0
C1597 C 0.79884 0.70599 0.12825 0.0
N1598 N 0.78014 0.75824 0.19376 0.0
N1599 N 0.80115 0.71687 0.15213 0.0
H1600 H 0.10171 0.02508 0.76188 0.0
H1601 H 0.09816 0.07871 0.6325 0.0
H1602 H 0.13812 0.09449 0.75363 0.0
H1603 H 0.0681 1.00577 0.63821 0.0
H1604 H 0.11259 0.08496 0.67712 0.0
H1605 H 0.08822 1.01799 0.71682 0.0
C1606 C 0.10668 0.0389 0.75059 0.0
C1607 C 0.12074 0.06055 0.76143 0.0
C1608 C 0.10286 0.06757 0.66869 0.0
C1609 C 0.1058 0.05241 0.71007 0.0
C1610 C 0.0946 0.06403 0.64328 0.0
C1611 C 0.08189 0.04174 0.63193 0.0
C1612 C 0.09808 0.04878 0.68286 0.0
C1613 C 0.07794 0.02316 0.64644 0.0
C1614 C 0.09911 0.03479 0.72491 0.0
C1615 C 0.12696 0.07775 0.74602 0.0
N1616 N 0.08589 0.02717 0.67133 0.0
N1617 N 0.11946 0.07329 0.72107 0.0
H1618 H 0.75672 0.36936 0.42672 0.0
H1619 H 0.81315 0.27276 0.36248 0.0
H1620 H 0.74967 0.2965 0.44434 0.0
H1621 H 0.82889 0.34893 0.35844 0.0
H1622 H 0.79108 0.28064 0.39394 0.0
H1623 H 0.78189 0.36102 0.3997 0.0
C1624 C 0.75976 0.35123 0.42406 0.0
C1625 C 0.75118 0.33351 0.43778 0.0
C1626 C 0.79993 0.29573 0.38684 0.0
C1627 C 0.78043 0.32411 0.40744 0.0
C1628 C 0.8129 0.29129 0.36936 0.0
C1629 C 0.82277 0.31034 0.3582 0.0
C1630 C 0.79696 0.31932 0.39288 0.0
C1631 C 0.82145 0.33391 0.36685 0.0
C1632 C 0.77458 0.34668 0.4091 0.0
C1633 C 0.75601 0.31056 0.434 0.0
N1634 N 0.80836 0.33777 0.38348 0.0
N1635 N 0.77054 0.30652 0.41925 0.0
H1636 H 0.43219 0.02251 0.20258 0.0
H1637 H 0.52692 0.07916 0.12813 0.0
H1638 H 0.47823 0.08796 0.23178 0.0
H1639 H 0.47931 1.0158 0.09604 0.0
H1640 H 0.5094 0.08237 0.16526 0.0
H1641 H 0.44892 0.01921 0.1647 0.0
C1642 C 0.44575 0.03639 0.20122 0.0
C1643 C 0.4534 0.05568 0.22124 0.0
C1644 C 0.50265 0.06765 0.15026 0.0
C1645 C 0.47323 0.05192 0.17626 0.0
C1646 C 0.51276 0.06578 0.12869 0.0
C1647 C 0.50487 0.04724 0.10804 0.0
C1648 C 0.4843 0.05057 0.15241 0.0
C1649 C 0.48619 0.0307 0.11078 0.0
C1650 C 0.45542 0.03442 0.17923 0.0
C1651 C 0.47138 0.07266 0.21747 0.0
N1652 N 0.47688 0.03266 0.1322 0.0
N1653 N 0.48039 0.07041 0.1959 0.0
H1654 H 0.79869 0.74728 0.99525 0.0
H1655 H 0.78389 0.73579 0.84531 0.0
H1656 H 0.77279 0.68005 0.94657 0.0
H1657 H 0.80804 0.8027 0.895 0.0
H1658 H 0.77998 0.71473 0.88179 0.0
H1659 H 0.80293 0.76752 0.9585 0.0
C1660 C 0.79385 0.73677 0.97681 0.0
C1661 C 0.78521 0.71197 0.97398 0.0
C1662 C 0.78606 0.73403 0.88471 0.0
C1663 C 0.79002 0.73507 0.93168 0.0
C1664 C 0.78819 0.74608 0.86388 0.0
C1665 C 0.79608 0.77109 0.86712 0.0
C1666 C 0.79199 0.74708 0.90896 0.0
C1667 C 0.80169 0.78346 0.89161 0.0
C1668 C 0.79628 0.74834 0.9558 0.0
C1669 C 0.77938 0.69925 0.9496 0.0
N1670 N 0.79958 0.77134 0.91154 0.0
N1671 N 0.78185 0.71093 0.9294 0.0
H1672 H 0.87731 0.1346 0.09884 0.0
H1673 H 0.98002 0.13511 0.03564 0.0
H1674 H 0.90619 0.19736 0.06868 0.0
H1675 H 0.93203 0.07171 0.03699 0.0
H1676 H 0.95651 0.16027 0.05197 0.0
H1677 H 0.90318 0.11295 0.08359 0.0
C1678 C 0.8892 0.14375 0.08908 0.0
C1679 C 0.88956 0.16736 0.08432 0.0
C1680 C 0.95108 0.14086 0.04808 0.0
C1681 C 0.91848 0.14302 0.0667 0.0
C1682 C 0.96418 0.12672 0.0384 0.0
C1683 C 0.95749 0.10161 0.03454 0.0
C1684 C 0.93178 0.12944 0.05436 0.0
C1685 C 0.93731 0.09113 0.03908 0.0
C1686 C 0.9038 0.13148 0.08035 0.0
C1687 C 0.90543 0.17892 0.07227 0.0
N1688 N 0.92524 0.10515 0.04922 0.0
N1689 N 0.91928 0.16642 0.06347 0.0
H1690 H 0.40653 0.41256 0.07018 0.0
H1691 H 0.48003 0.54114 0.06252 0.0
H1692 H 0.38712 0.48101 0.08014 0.0
H1693 H 0.5059 0.47641 0.05896 0.0
H1694 H 0.4456 0.51778 0.06653 0.0
H1695 H 0.44209 0.43367 0.06425 0.0
C1696 C 0.40974 0.43203 0.07131 0.0
C1697 C 0.3937 0.44499 0.07594 0.0
C1698 C 0.45866 0.50845 0.06489 0.0
C1699 C 0.43451 0.46933 0.06887 0.0
C1700 C 0.47853 0.52188 0.06254 0.0
C1701 C 0.49621 0.51094 0.06051 0.0
C1702 C 0.45591 0.48349 0.06535 0.0
C1703 C 0.49284 0.48575 0.0605 0.0
C1704 C 0.43009 0.44406 0.06784 0.0
C1705 C 0.39886 0.47016 0.07684 0.0
N1706 N 0.47314 0.4729 0.06297 0.0
N1707 N 0.41862 0.48134 0.07335 0.0
H1708 H 0.39515 0.55576 0.76179 0.0
H1709 H 0.40398 0.69062 0.82824 0.0
H1710 H 0.44978 0.59351 0.81654 0.0
H1711 H 0.35215 0.65139 0.77091 0.0
H1712 H 0.42052 0.65476 0.82702 0.0
H1713 H 0.37836 0.59042 0.76742 0.0
C1714 C 0.40361 0.57142 0.77496 0.0
C1715 C 0.42389 0.57195 0.78853 0.0
C1716 C 0.40547 0.65404 0.81484 0.0
C1717 C 0.40484 0.61168 0.7952 0.0
C1718 C 0.39612 0.67436 0.8156 0.0
C1719 C 0.37693 0.67363 0.79949 0.0
C1720 C 0.39531 0.63321 0.79795 0.0
C1721 C 0.36711 0.65245 0.78342 0.0
C1722 C 0.39403 0.5912 0.77825 0.0
C1723 C 0.43413 0.59256 0.80556 0.0
N1724 N 0.37644 0.63308 0.783 0.0
N1725 N 0.4245 0.61175 0.80838 0.0
H1726 H 0.28149 0.65471 0.55025 0.0
H1727 H 0.18305 0.59148 0.59965 0.0
H1728 H 0.27009 0.67655 0.62459 0.0
H1729 H 0.1728 0.60812 0.52401 0.0
H1730 H 0.21795 0.61829 0.60748 0.0
H1731 H 0.2436 0.63491 0.53808 0.0
C1732 C 0.27093 0.65526 0.56395 0.0
C1733 C 0.27876 0.66643 0.58865 0.0
C1734 C 0.20812 0.61604 0.58914 0.0
C1735 C 0.23611 0.6441 0.57498 0.0
C1736 C 0.18846 0.60043 0.58451 0.0
C1737 C 0.17544 0.59735 0.56103 0.0
C1738 C 0.21494 0.62838 0.57006 0.0
C1739 C 0.18273 0.60991 0.54222 0.0
C1740 C 0.24942 0.64432 0.55691 0.0
C1741 C 0.26457 0.66761 0.60555 0.0
N1742 N 0.20235 0.62486 0.54705 0.0
N1743 N 0.24388 0.656 0.59854 0.0
H1744 H 0.74403 0.97562 0.84015 0.0
H1745 H 0.73516 0.83163 0.79031 0.0
H1746 H 0.68788 0.93152 0.79327 0.0
H1747 H 0.79362 0.87694 0.83094 0.0
H1748 H 0.71778 0.86696 0.79229 0.0
H1749 H 0.76176 0.94052 0.83834 0.0
C1750 C 0.73522 0.95871 0.82937 0.0
C1751 C 0.71392 0.95744 0.8169 0.0
C1752 C 0.7344 0.86935 0.80095 0.0
C1753 C 0.73497 0.91552 0.81467 0.0
C1754 C 0.74451 0.84881 0.79988 0.0
C1755 C 0.76632 0.85033 0.8105 0.0
C1756 C 0.74565 0.89253 0.81306 0.0
C1757 C 0.77694 0.87401 0.82233 0.0
C1758 C 0.74556 0.93832 0.82834 0.0
C1759 C 0.70407 0.9342 0.80342 0.0
N1760 N 0.76672 0.89354 0.82333 0.0
N1761 N 0.71442 0.91477 0.80275 0.0
H1762 H 0.75311 0.90211 0.57872 0.0
H1763 H 0.69071 1.00038 0.52566 0.0
H1764 H 0.7845 0.96758 0.55577 0.0
H1765 H 0.66301 0.94797 0.56944 0.0
H1766 H 0.72338 0.98426 0.53044 0.0
H1767 H 0.71873 0.91521 0.57066 0.0
C1768 C 0.75274 0.91925 0.57197 0.0
C1769 C 0.77172 0.93395 0.56819 0.0
C1770 C 0.71014 0.97627 0.53899 0.0
C1771 C 0.73237 0.94875 0.55829 0.0
C1772 C 0.69126 0.98529 0.53602 0.0
C1773 C 0.67386 0.97575 0.54728 0.0
C1774 C 0.71185 0.95749 0.55334 0.0
C1775 C 0.676 0.95633 0.56077 0.0
C1776 C 0.73312 0.9267 0.56737 0.0
C1777 C 0.77032 0.95591 0.55933 0.0
N1778 N 0.69462 0.94793 0.56349 0.0
N1779 N 0.751 0.96256 0.55453 0.0
H1780 H 0.38228 0.45983 0.76766 0.0
H1781 H 0.36222 0.33693 0.82648 0.0
H1782 H 0.4346 0.43129 0.80376 0.0
H1783 H 0.31561 0.35944 0.77372 0.0
H1784 H 0.38903 0.37212 0.82157 0.0
H1785 H 0.35732 0.4242 0.77356 0.0
C1786 C 0.38852 0.44593 0.77668 0.0
C1787 C 0.41052 0.4483 0.7849 0.0
C1788 C 0.37295 0.36919 0.81102 0.0
C1789 C 0.382 0.40743 0.79192 0.0
C1790 C 0.35772 0.3491 0.8137 0.0
C1791 C 0.33678 0.3452 0.80023 0.0
C1792 C 0.36692 0.38551 0.79512 0.0
C1793 C 0.3316 0.36172 0.78434 0.0
C1794 C 0.37426 0.42557 0.78007 0.0
C1795 C 0.41773 0.4299 0.79681 0.0
N1796 N 0.34651 0.38117 0.78234 0.0
N1797 N 0.40346 0.41016 0.80002 0.0
H1798 H 0.22397 0.60397 0.36545 0.0
H1799 H 0.26431 0.70647 0.28092 0.0
H1800 H 0.21515 0.59278 0.2849 0.0
H1801 H 0.27041 0.72273 0.361 0.0
H1802 H 0.24689 0.66504 0.28302 0.0
H1803 H 0.24147 0.64642 0.36525 0.0
C1804 C 0.2257 0.61026 0.34768 0.0
C1805 C 0.21798 0.59417 0.32515 0.0
C1806 C 0.25199 0.6775 0.30025 0.0
C1807 C 0.23814 0.64366 0.32478 0.0
C1808 C 0.26208 0.70146 0.29909 0.0
C1809 C 0.26914 0.71871 0.32079 0.0
C1810 C 0.24879 0.66987 0.32339 0.0
C1811 C 0.26535 0.71047 0.34364 0.0
C1812 C 0.23572 0.63471 0.3476 0.0
C1813 C 0.22084 0.60398 0.30286 0.0
N1814 N 0.25565 0.68686 0.34432 0.0
N1815 N 0.23051 0.62768 0.30329 0.0
H1816 H 0.52693 0.6887 0.45286 0.0
H1817 H 0.5731 0.63834 0.57711 0.0
H1818 H 0.54389 0.73386 0.52457 0.0
H1819 H 0.53844 0.59368 0.50928 0.0
H1820 H 0.56634 0.67444 0.55841 0.0
H1821 H 0.53544 0.65471 0.47309 0.0
C1822 C 0.53228 0.69145 0.47293 0.0
C1823 C 0.53434 0.71414 0.48702 0.0
C1824 C 0.56027 0.65673 0.54766 0.0
C1825 C 0.54433 0.67503 0.51051 0.0
C1826 C 0.56415 0.63618 0.55829 0.0
C1827 C 0.55613 0.61302 0.54473 0.0
C1828 C 0.54882 0.65401 0.52309 0.0
C1829 C 0.54464 0.61116 0.52048 0.0
C1830 C 0.53719 0.67199 0.48452 0.0
C1831 C 0.54179 0.71661 0.51299 0.0
N1832 N 0.54149 0.63129 0.51042 0.0
N1833 N 0.5465 0.6973 0.52392 0.0
H1834 H 0.65312 0.28118 0.68094 0.0
H1835 H 0.74235 0.33964 0.80105 0.0
H1836 H 0.64382 0.33498 0.73808 0.0
H1837 H 0.74416 0.27248 0.75722 0.0
H1838 H 0.7075 0.33958 0.77645 0.0
H1839 H 0.68734 0.27914 0.70647 0.0
C1840 C 0.65837 0.29276 0.69876 0.0
C1841 C 0.64562 0.30846 0.70724 0.0
C1842 C 0.71544 0.32482 0.77212 0.0
C1843 C 0.68498 0.30626 0.73663 0.0
C1844 C 0.73548 0.32485 0.78614 0.0
C1845 C 0.74645 0.30609 0.78118 0.0
C1846 C 0.70613 0.30608 0.75247 0.0
C1847 C 0.73643 0.28737 0.76169 0.0
C1848 C 0.67787 0.29144 0.71341 0.0
C1849 C 0.65313 0.3227 0.7307 0.0
N1850 N 0.71697 0.28794 0.74794 0.0
N1851 N 0.67231 0.3214 0.74441 0.0
H1852 H 0.04106 0.33632 0.02336 0.0
H1853 H 1.01039 0.46355 1.00342 0.0
H1854 H 0.01801 0.35536 0.9513 0.0
H1855 H 0.05522 0.45498 0.06708 0.0
H1856 H 1.00705 0.42088 0.98708 0.0
H1857 H 0.04135 0.37754 0.04268 0.0
C1858 C 0.03602 0.34915 0.01168 0.0
C1859 C 0.0295 0.34256 0.98575 0.0
C1860 C 0.01739 0.42826 1.00481 0.0
C1861 C 0.0294 0.38913 1.00757 0.0
C1862 C 0.01911 0.45243 0.01416 0.0
C1863 C 0.03305 0.46242 0.03648 0.0
C1864 C 0.02947 0.41411 0.01816 0.0
C1865 C 0.04437 0.44765 0.04969 0.0
C1866 C 0.03619 0.37256 0.02266 0.0
C1867 C 0.02322 0.35978 0.97136 0.0
N1868 N 0.04234 0.4241 0.04033 0.0
N1869 N 0.02321 0.38224 0.98248 0.0
H1870 H 1.01072 0.76422 0.16634 0.0
H1871 H 0.94927 0.80465 0.27548 0.0
H1872 H 0.03955 0.81837 0.2298 0.0
H1873 H 0.92491 0.73845 0.22478 0.0
H1874 H 0.9818 0.81052 0.25722 0.0
H1875 H 0.9785 0.75493 0.18556 0.0
C1876 C 1.0102 0.77423 0.18425 0.0
C1877 C 0.02774 0.79223 0.19649 0.0
C1878 C 0.96942 0.79466 0.25 0.0
C1879 C 0.99106 0.7818 0.21839 0.0
C1880 C 0.95078 0.79141 0.26032 0.0
C1881 C 0.93431 0.77127 0.25132 0.0
C1882 C 0.97162 0.77779 0.23026 0.0
C1883 C 0.93725 0.75432 0.23207 0.0
C1884 C 0.9919 0.76881 0.19524 0.0
C1885 C 0.02639 0.80441 0.21975 0.0
N1886 N 0.95552 0.75808 0.22194 0.0
N1887 N 1.00833 0.7991 0.22983 0.0
H1888 H 0.60528 0.3454 0.22032 0.0
H1889 H 0.58545 0.38942 0.08736 0.0
H1890 H 0.56756 0.30259 0.15254 0.0
H1891 H 0.61125 0.43875 0.15539 0.0
H1892 H 0.58603 0.35569 0.11075 0.0
H1893 H 0.61395 0.3789 0.19646 0.0
C1894 C 0.59882 0.34316 0.20052 0.0
C1895 C 0.5856 0.32155 0.18828 0.0
C1896 C 0.59195 0.37382 0.12063 0.0
C1897 C 0.59556 0.35888 0.16134 0.0
C1898 C 0.59174 0.39289 0.10729 0.0
C1899 C 0.59853 0.41634 0.11983 0.0
C1900 C 0.59874 0.3785 0.14664 0.0
C1901 C 0.60606 0.42057 0.14551 0.0
C1902 C 0.60385 0.36206 0.18699 0.0
C1903 C 0.57772 0.31911 0.16267 0.0
N1904 N 0.60584 0.40156 0.15836 0.0
N1905 N 0.58282 0.33767 0.15003 0.0
H1906 H 0.98758 0.35174 0.34737 0.0
H1907 H 0.87245 0.28116 0.30419 0.0
H1908 H 0.96049 0.2937 0.38529 0.0
H1909 H 0.88523 0.3584 0.30389 0.0
H1910 H 0.90635 0.28492 0.3312 0.0
H1911 H 0.95142 0.35461 0.32876 0.0
C1912 C 0.97398 0.33966 0.35173 0.0
C1913 C 0.97672 0.32214 0.36732 0.0
C1914 C 0.90179 0.30105 0.32514 0.0
C1915 C 0.93607 0.32555 0.34666 0.0
C1916 C 0.88272 0.2989 0.30924 0.0
C1917 C 0.87653 0.31952 0.30124 0.0
C1918 C 0.91501 0.32381 0.3324 0.0
C1919 C 0.88994 0.34213 0.30927 0.0
C1920 C 0.95352 0.34159 0.34151 0.0
C1921 C 0.95885 0.30719 0.37299 0.0
N1922 N 0.90898 0.34371 0.32429 0.0
N1923 N 0.93908 0.30901 0.36229 0.0
H1924 H 0.04748 0.67753 0.68479 0.0
H1925 H 0.07947 0.63146 0.55491 0.0
H1926 H 0.09261 0.72182 0.6492 0.0
H1927 H 0.02044 0.6024 0.57919 0.0
H1928 H 0.08768 0.66315 0.59144 0.0
H1929 H 0.04179 0.64555 0.64903 0.0
C1930 C 0.05649 0.68017 0.66966 0.0
C1931 C 0.07025 0.70205 0.66938 0.0
C1932 C 0.07284 0.64991 0.58851 0.0
C1933 C 0.06379 0.66649 0.62896 0.0
C1934 C 0.0681 0.63225 0.56762 0.0
C1935 C 0.04939 0.61473 0.56443 0.0
C1936 C 0.05886 0.64932 0.60608 0.0
C1937 C 0.03508 0.61585 0.58134 0.0
C1938 C 0.0531 0.66222 0.64925 0.0
C1939 C 0.08161 0.70507 0.64959 0.0
N1940 N 0.04026 0.63273 0.60175 0.0
N1941 N 0.07801 0.68745 0.62992 0.0
H1942 H 0.56392 0.78715 0.83239 0.0
H1943 H 0.6894 0.81957 0.833 0.0
H1944 H 0.60811 0.84182 0.88606 0.0
H1945 H 0.64649 0.75792 0.7874 0.0
H1946 H 0.65877 0.83231 0.84795 0.0
H1947 H 0.59332 0.78019 0.81107 0.0
C1948 C 0.57981 0.79794 0.83938 0.0
C1949 C 0.58383 0.8151 0.86081 0.0
C1950 C 0.65606 0.81618 0.83442 0.0
C1951 C 0.61725 0.80729 0.8368 0.0
C1952 C 0.67346 0.80894 0.82594 0.0
C1953 C 0.67029 0.78766 0.80913 0.0
C1954 C 0.63553 0.80195 0.82597 0.0
C1955 C 0.64946 0.77456 0.80022 0.0
C1956 C 0.59654 0.79393 0.82731 0.0
C1957 C 0.60457 0.82841 0.86951 0.0
N1958 N 0.63279 0.78182 0.80898 0.0
N1959 N 0.62066 0.82415 0.85744 0.0
H1960 H 0.5109 0.55415 0.74849 0.0
H1961 H 0.52772 0.51795 0.60935 0.0
H1962 H 0.46679 0.498 0.69651 0.0
H1963 H 0.55495 0.58859 0.65078 0.0
H1964 H 0.50787 0.50825 0.64268 0.0
H1965 H 0.53042 0.56453 0.71471 0.0
C1966 C 0.50539 0.54395 0.72996 0.0
C1967 C 0.48724 0.52518 0.72517 0.0
C1968 C 0.51793 0.526 0.64433 0.0
C1969 C 0.5094 0.537 0.68667 0.0
C1970 C 0.52898 0.53175 0.62507 0.0
C1971 C 0.54217 0.55457 0.62671 0.0
C1972 C 0.52063 0.5429 0.66581 0.0
C1973 C 0.54444 0.57104 0.64848 0.0
C1974 C 0.51646 0.54998 0.71073 0.0
C1975 C 0.48073 0.51258 0.70092 0.0
N1976 N 0.53382 0.56483 0.66733 0.0
N1977 N 0.49186 0.51869 0.68251 0.0
H1978 H 0.83425 0.26443 0.04968 0.0
H1979 H 0.7422 0.22544 0.93254 0.0
H1980 H 0.80897 0.19005 0.01768 0.0
H1981 H 0.76095 0.29729 0.97346 0.0
H1982 H 0.76151 0.21039 0.96732 0.0
H1983 H 0.80629 0.27642 0.02159 0.0
C1984 C 0.82304 0.25073 0.03632 0.0
C1985 C 0.82356 0.22631 0.03611 0.0
C1986 C 0.76076 0.22933 0.96908 0.0
C1987 C 0.79117 0.23955 1.00496 0.0
C1988 C 0.74923 0.23779 0.94953 0.0
C1989 C 0.75117 0.26273 0.94974 0.0
C1990 C 0.77357 0.24611 0.98874 0.0
C1991 C 0.75987 0.27798 0.97224 0.0
C1992 C 0.80683 0.25746 0.02072 0.0
C1993 C 0.80896 0.20913 0.0184 0.0
N1994 N 0.77172 0.2696 0.99057 0.0
N1995 N 0.79307 0.21608 1.00364 0.0
H1996 H 0.11847 0.48599 0.24421 0.0
H1997 H 0.09596 0.56148 0.12748 0.0
H1998 H 0.1566 0.55562 0.24081 0.0
H1999 H 0.0588 0.49173 0.13226 0.0
H2000 H 0.11836 0.56004 0.16811 0.0
H2001 H 0.09695 0.48793 0.20342 0.0
C2002 C 0.12239 0.50176 0.23505 0.0
C2003 C 0.13968 0.52061 0.24652 0.0
C2004 C 0.1054 0.54494 0.16024 0.0
C2005 C 0.1145 0.5231 0.1988 0.0
C2006 C 0.09256 0.54573 0.13679 0.0
C2007 C 0.07524 0.52665 0.12586 0.0
C2008 C 0.10124 0.52483 0.17326 0.0
C2009 C 0.0718 0.50695 0.13954 0.0
C2010 C 0.10999 0.50288 0.21152 0.0
C2011 C 0.14364 0.54048 0.23308 0.0
N2012 N 0.08448 0.50658 0.16208 0.0
N2013 N 0.13131 0.54119 0.21034 0.0
H2014 H 0.80826 0.8342 0.51951 0.0
H2015 H 0.84865 0.83294 0.38843 0.0
H2016 H 0.83817 0.89801 0.49204 0.0
H2017 H 0.79549 0.77947 0.39977 0.0
H2018 H 0.85064 0.8534 0.43078 0.0
H2019 H 0.80795 0.81047 0.47891 0.0
C2020 C 0.81473 0.84315 0.50494 0.0
C2021 C 0.82333 0.86799 0.50898 0.0
C2022 C 0.83874 0.837 0.42412 0.0
C2023 C 0.82341 0.84118 0.46329 0.0
C2024 C 0.83778 0.82523 0.40018 0.0
C2025 C 0.8219 0.80465 0.39095 0.0
C2026 C 0.82394 0.82779 0.4389 0.0
C2027 C 0.80786 0.79546 0.40648 0.0
C2028 C 0.81454 0.82967 0.48192 0.0
C2029 C 0.8314 0.87888 0.4896 0.0
N2030 N 0.80919 0.80714 0.42989 0.0
N2031 N 0.83139 0.86534 0.46761 0.0
H2032 H 0.47072 0.54685 0.86635 0.0
H2033 H 0.5419 0.49305 0.96773 0.0
H2034 H 0.50465 0.49101 0.84545 0.0
H2035 H 0.52285 0.56165 0.98096 0.0
H2036 H 0.5277 0.49037 0.92313 0.0
H2037 H 0.48903 0.55102 0.9091 0.0
C2038 C 0.48212 0.53548 0.87085 0.0
C2039 C 0.48612 0.5184 0.85263 0.0
C2040 C 0.52679 0.50603 0.93584 0.0
C2041 C 0.50715 0.52309 0.9014 0.0
C2042 C 0.53468 0.50748 0.96121 0.0
C2043 C 0.53325 0.52751 0.97787 0.0
C2044 C 0.51728 0.52459 0.92746 0.0
C2045 C 0.52417 0.54591 0.96865 0.0
C2046 C 0.49266 0.53795 0.8952 0.0
C2047 C 0.50118 0.50431 0.85921 0.0
N2048 N 0.51635 0.5439 0.944 0.0
N2049 N 0.51111 0.5068 0.88335 0.0
H2050 H 0.88269 0.26933 0.15994 0.0
H2051 H 0.7834 0.25587 0.22953 0.0
H2052 H 0.8575 0.20505 0.18928 0.0
H2053 H 0.81248 0.32249 0.2072 0.0
H2054 H 0.80974 0.23616 0.21249 0.0
H2055 H 0.86203 0.29161 0.18423 0.0
C2056 C 0.87365 0.26015 0.17261 0.0
C2057 C 0.86922 0.23494 0.17037 0.0
C2058 C 0.81025 0.25507 0.21103 0.0
C2059 C 0.84591 0.2596 0.19754 0.0
C2060 C 0.79465 0.26603 0.2197 0.0
C2061 C 0.79697 0.29105 0.22113 0.0
C2062 C 0.82743 0.26943 0.20309 0.0
C2063 C 0.81102 0.30326 0.20739 0.0
C2064 C 0.86133 0.27271 0.18584 0.0
C2065 C 0.85934 0.22427 0.18873 0.0
N2066 N 0.82663 0.29263 0.19996 0.0
N2067 N 0.84654 0.23631 0.20049 0.0
H2068 H 0.15779 0.51018 0.40639 0.0
H2069 H 0.06256 0.56898 0.45745 0.0
H2070 H 0.12161 0.55254 0.36318 0.0
H2071 H 0.09875 0.52589 0.49958 0.0
H2072 H 0.08397 0.56423 0.42375 0.0
H2073 H 0.13677 0.51602 0.44015 0.0
C2074 C 0.14552 0.52082 0.40383 0.0
C2075 C 0.14181 0.53068 0.38122 0.0
C2076 C 0.08726 0.55566 0.44026 0.0
C2077 C 0.11708 0.53789 0.42114 0.0
C2078 C 0.0749 0.5584 0.45977 0.0
C2079 C 0.07849 0.54795 0.48206 0.0
C2080 C 0.10351 0.54187 0.4422 0.0
C2081 C 0.09515 0.53463 0.48327 0.0
C2082 C 0.13336 0.52418 0.42338 0.0
C2083 C 0.1253 0.54424 0.37978 0.0
N2084 N 0.10666 0.53194 0.46396 0.0
N2085 N 0.11386 0.54743 0.39912 0.0
H2086 H 0.8026 0.89637 0.65479 0.0
H2087 H 0.82027 0.77959 0.71928 0.0
H2088 H 0.84145 0.8474 0.6299 0.0
H2089 H 0.78387 0.83025 0.74645 0.0
H2090 H 0.82728 0.80353 0.68545 0.0
H2091 H 0.79428 0.8716 0.6875 0.0
C2092 C 0.80964 0.88062 0.65648 0.0
C2093 C 0.82305 0.87415 0.63992 0.0
C2094 C 0.81763 0.80934 0.6987 0.0
C2095 C 0.81354 0.84565 0.67714 0.0
C2096 C 0.81362 0.79564 0.7179 0.0
C2097 C 0.80159 0.80308 0.73554 0.0
C2098 C 0.80924 0.83039 0.697 0.0
C2099 C 0.79343 0.82411 0.73325 0.0
C2100 C 0.80478 0.86639 0.67503 0.0
C2101 C 0.83122 0.85316 0.64244 0.0
N2102 N 0.79733 0.83699 0.71427 0.0
N2103 N 0.82643 0.83975 0.66075 0.0
H2104 H 0.69825 0.38242 0.54909 0.0
H2105 H 0.70297 0.52256 0.58616 0.0
H2106 H 0.72691 0.43885 0.5103 0.0
H2107 H 0.65536 0.46744 0.60569 0.0
H2108 H 0.72004 0.49131 0.56832 0.0
H2109 H 0.68879 0.41306 0.5781 0.0
C2110 C 0.70203 0.40117 0.54629 0.0
C2111 C 0.71285 0.40814 0.52695 0.0
C2112 C 0.70626 0.48607 0.57721 0.0
C2113 C 0.70301 0.44298 0.56046 0.0
C2114 C 0.69679 0.50385 0.58768 0.0
C2115 C 0.67805 0.49725 0.59745 0.0
C2116 C 0.69668 0.46176 0.57651 0.0
C2117 C 0.67002 0.47293 0.59845 0.0
C2118 C 0.697 0.41859 0.56308 0.0
C2119 C 0.71814 0.43269 0.52466 0.0
N2120 N 0.67927 0.45586 0.58771 0.0
N2121 N 0.71319 0.44929 0.54131 0.0
H2122 H 0.22743 0.10169 0.53863 0.0
H2123 H 0.10132 0.09164 0.54059 0.0
H2124 H 0.19853 0.16413 0.5364 0.0
H2125 H 0.13685 0.03662 0.55765 0.0
H2126 H 0.13528 0.11877 0.53767 0.0
H2127 H 0.1932 0.07765 0.54342 0.0
C2128 C 0.2138 0.11034 0.53889 0.0
C2129 C 0.21595 0.13499 0.53693 0.0
C2130 C 0.13558 0.10082 0.54232 0.0
C2131 C 0.17617 0.10729 0.54248 0.0
C2132 C 0.11616 0.08539 0.54428 0.0
C2133 C 0.11605 0.06178 0.5498 0.0
C2134 C 0.15501 0.09247 0.54557 0.0
C2135 C 0.13593 0.05458 0.55343 0.0
C2136 C 0.19417 0.09658 0.54179 0.0
C2137 C 0.19763 0.14516 0.53777 0.0
N2138 N 0.15434 0.06965 0.55117 0.0
N2139 N 0.17852 0.13129 0.54035 0.0
H2140 H 0.16023 0.9835 0.8261 0.0
H2141 H 0.25829 0.95042 0.76642 0.0
H2142 H 0.20649 0.03376 0.79777 0.0
H2143 H 0.21522 0.89935 0.7979 0.0
H2144 H 0.23464 0.9788 0.76994 0.0
H2145 H 0.17638 0.95051 0.80996 0.0
C2146 C 0.17375 0.98752 0.81647 0.0
C2147 C 0.18228 1.01126 0.81349 0.0
C2148 C 0.23011 0.96124 0.77569 0.0
C2149 C 0.20042 0.974 0.79476 0.0
C2150 C 0.2435 0.94492 0.7734 0.0
C2151 C 0.23877 0.92274 0.78225 0.0
C2152 C 0.21207 0.95533 0.78715 0.0
C2153 C 0.21955 0.91658 0.79138 0.0
C2154 C 0.18283 0.96877 0.80714 0.0
C2155 C 0.19962 1.01568 0.80073 0.0
N2156 N 0.20701 0.93303 0.79403 0.0
N2157 N 0.20818 0.99719 0.79191 0.0
H2158 H 0.31105 0.9103 0.97739 0.0
H2159 H 0.41737 0.99195 0.05696 0.0
H2160 H 0.32778 0.90926 0.05672 0.0
H2161 H 0.3864 1.00762 0.98683 0.0
H2162 H 0.38561 0.96125 0.05824 0.0
H2163 H 0.34118 0.94398 0.98002 0.0
C2164 C 0.3215 0.91689 0.99523 0.0
C2165 C 0.3172 0.90734 0.0169 0.0
C2166 C 0.38553 0.97186 0.04293 0.0
C2167 C 0.35118 0.94574 0.02021 0.0
C2168 C 0.40343 0.98953 0.04242 0.0
C2169 C 0.40409 1.00219 0.02188 0.0
C2170 C 0.36866 0.96676 0.02247 0.0
C2171 C 0.38613 0.99827 1.00308 0.0
C2172 C 0.33841 0.93628 0.99684 0.0
C2173 C 0.33076 0.9165 0.03972 0.0
N2174 N 0.36917 0.98048 1.00357 0.0
N2175 N 0.34733 0.9353 0.04083 0.0
H2176 H 0.85626 0.59892 0.76923 0.0
H2177 H 0.8625 0.74372 0.80864 0.0
H2178 H 0.91291 0.64746 0.81004 0.0
H2179 H 0.80332 0.69504 0.77534 0.0
H2180 H 0.88088 0.70931 0.80765 0.0
H2181 H 0.83708 0.63286 0.76962 0.0
C2182 C 0.86487 0.6166 0.77832 0.0
C2183 C 0.88671 0.61957 0.78961 0.0
C2184 C 0.86387 0.70596 0.80045 0.0
C2185 C 0.86409 0.6599 0.79006 0.0
C2186 C 0.85318 0.72593 0.80097 0.0
C2187 C 0.8309 0.72313 0.79208 0.0
C2188 C 0.85269 0.68214 0.79076 0.0
C2189 C 0.82035 0.69886 0.78252 0.0
C2190 C 0.85371 0.63626 0.77854 0.0
C2191 C 0.89632 0.64357 0.80096 0.0
N2192 N 0.83113 0.67982 0.78208 0.0
N2193 N 0.8852 0.66227 0.80082 0.0
H2194 H 0.84452 0.66715 0.08685 0.0
H2195 H 0.92207 0.58984 0.02897 0.0
H2196 H 0.82992 0.62738 0.01236 0.0
H2197 H 0.92868 0.6123 0.10847 0.0
H2198 H 0.89058 0.60782 0.0221 0.0
H2199 H 0.87714 0.65064 0.09486 0.0
C2200 C 0.84829 0.65503 0.07215 0.0
C2201 C 0.83459 0.64856 0.04889 0.0
C2202 C 0.89891 0.60886 0.04106 0.0
C2203 C 0.87191 0.63 0.05774 0.0
C2204 C 0.91709 0.59883 0.045 0.0
C2205 C 0.92818 0.5996 0.06934 0.0
C2206 C 0.89164 0.61988 0.06156 0.0
C2207 C 0.92056 0.61108 0.08939 0.0
C2208 C 0.86683 0.64557 0.07676 0.0
C2209 C 0.84001 0.63266 0.03057 0.0
N2210 N 0.90277 0.62079 0.08505 0.0
N2211 N 0.85834 0.62408 0.03532 0.0
H2212 H 0.18361 0.15663 0.85059 0.0
H2213 H 0.29627 0.19936 0.80697 0.0
H2214 H 0.22194 0.10834 0.82275 0.0
H2215 H 0.265 0.2482 0.84686 0.0
H2216 H 0.26691 0.16597 0.80892 0.0
H2217 H 0.2114 0.19104 0.84626 0.0
C2218 C 0.19789 0.15335 0.84365 0.0
C2219 C 0.20075 0.12979 0.83737 0.0
C2220 C 0.26642 0.18395 0.81734 0.0
C2221 C 0.2321 0.1686 0.83193 0.0
C2222 C 0.28315 0.20286 0.81626 0.0
C2223 C 0.28277 0.22616 0.82694 0.0
C2224 C 0.24941 0.18854 0.82937 0.0
C2225 C 0.2655 0.23026 0.83839 0.0
C2226 C 0.21367 0.17288 0.84115 0.0
C2227 C 0.21936 0.12629 0.82826 0.0
N2228 N 0.24941 0.21152 0.83945 0.0
N2229 N 0.2343 0.1455 0.82575 0.0
H2230 H 0.39915 0.96865 0.26507 0.0
H2231 H 0.32116 0.88384 0.33753 0.0
H2232 H 0.36464 0.99776 0.31904 0.0
H2233 H 0.34395 0.85634 0.27194 0.0
H2234 H 0.33777 0.92503 0.3323 0.0
H2235 H 0.38052 0.92779 0.2686 0.0
C2236 C 0.38758 0.96659 0.27762 0.0
C2237 C 0.38363 0.98716 0.29169 0.0
C2238 C 0.3392 0.91006 0.31901 0.0
C2239 C 0.36202 0.93945 0.29611 0.0
C2240 C 0.3297 0.88633 0.32202 0.0
C2241 C 0.33109 0.86612 0.30527 0.0
C2242 C 0.35074 0.91411 0.2993 0.0
C2243 C 0.34232 0.87105 0.28542 0.0
C2244 C 0.37688 0.94304 0.27963 0.0
C2245 C 0.36836 0.98277 0.30769 0.0
N2246 N 0.35177 0.89425 0.28318 0.0
N2247 N 0.35834 0.95965 0.30953 0.0
H2248 H 0.56723 0.3503 0.59655 0.0
H2249 H 0.59588 0.49446 0.61957 0.0
H2250 H 0.59235 0.39207 0.66922 0.0
H2251 H 0.55141 0.4546 0.55513 0.0
H2252 H 0.59768 0.45662 0.63629 0.0
H2253 H 0.56375 0.38778 0.57931 0.0
C2254 C 0.57213 0.36734 0.60885 0.0
C2255 C 0.58038 0.36807 0.63432 0.0
C2256 C 0.58765 0.45611 0.61839 0.0
C2257 C 0.57656 0.41096 0.6147 0.0
C2258 C 0.58681 0.47769 0.6087 0.0
C2259 C 0.57375 0.47767 0.58574 0.0
C2260 C 0.57566 0.4342 0.60485 0.0
C2261 C 0.56186 0.45542 0.57281 0.0
C2262 C 0.57003 0.38869 0.59902 0.0
C2263 C 0.58613 0.39064 0.64944 0.0
N2264 N 0.56321 0.43455 0.58244 0.0
N2265 N 0.58428 0.41114 0.63938 0.0
H2266 H 0.45889 0.80376 0.43891 0.0
H2267 H 0.3586 0.74432 0.33091 0.0
H2268 H 0.45973 0.74546 0.38187 0.0
H2269 H 0.36342 0.81532 0.3708 0.0
H2270 H 0.39441 0.74352 0.35205 0.0
H2271 H 0.42358 0.80754 0.41708 0.0
C2272 C 0.45158 0.79159 0.42189 0.0
C2273 C 0.46235 0.77408 0.41239 0.0
C2274 C 0.38776 0.75933 0.35631 0.0
C2275 C 0.42153 0.77816 0.38732 0.0
C2276 C 0.36711 0.75981 0.34425 0.0
C2277 C 0.35762 0.77989 0.349 0.0
C2278 C 0.3994 0.77892 0.37386 0.0
C2279 C 0.36986 0.79937 0.36653 0.0
C2280 C 0.43144 0.79388 0.40935 0.0
C2281 C 0.45215 0.75917 0.39 0.0
N2282 N 0.38999 0.79833 0.37841 0.0
N2283 N 0.43236 0.76137 0.37849 0.0
H2284 H 0.05862 0.72035 0.15698 0.0
H2285 H 0.0845 0.62471 0.05272 0.0
H2286 H 0.09173 0.743 0.09762 0.0
H2287 H 0.04124 0.60782 0.10455 0.0
H2288 H 0.08989 0.66786 0.06966 0.0
H2289 H 0.05438 0.67866 0.13868 0.0
C2290 C 0.06502 0.71652 0.14001 0.0
C2291 C 0.07568 0.73516 0.1289 0.0
C2292 C 0.07921 0.65462 0.0772 0.0
C2293 C 0.07088 0.68712 0.10767 0.0
C2294 C 0.0762 0.63011 0.06762 0.0
C2295 C 0.06212 0.61287 0.07698 0.0
C2296 C 0.06841 0.66159 0.09656 0.0
C2297 C 0.05185 0.62061 0.0964 0.0
C2298 C 0.06256 0.69263 0.12951 0.0
C2299 C 0.08345 0.72909 0.10678 0.0
N2300 N 0.05525 0.64431 0.10555 0.0
N2301 N 0.081 0.70549 0.09689 0.0
H2302 H 0.07133 0.25521 0.88858 0.0
H2303 H 0.19268 0.32801 0.90274 0.0
H2304 H 0.10002 0.31164 0.95 0.0
H2305 H 0.16589 0.26193 0.8524 0.0
H2306 H 0.15866 0.32476 0.91879 0.0
H2307 H 0.10556 0.25987 0.87346 0.0
C2308 C 0.08481 0.26867 0.89883 0.0
C2309 C 0.08274 0.28302 0.92058 0.0
C2310 C 0.16034 0.31093 0.90434 0.0
C2311 C 0.1222 0.28855 0.90332 0.0
C2312 C 0.17974 0.31281 0.89508 0.0
C2313 C 0.18236 0.2951 0.87627 0.0
C2314 C 0.14332 0.29134 0.89454 0.0
C2315 C 0.16494 0.27579 0.86721 0.0
C2316 C 0.10442 0.27129 0.89025 0.0
C2317 C 0.10087 0.30013 0.93315 0.0
N2318 N 0.14629 0.27451 0.87633 0.0
N2319 N 0.1198 0.30247 0.92433 0.0
H2320 H 0.51819 0.76987 0.96312 0.0
H2321 H 0.53898 0.63739 0.9516 0.0
H2322 H 0.53971 0.73612 0.8992 0.0
H2323 H 0.5078 0.66798 1.00862 0.0
H2324 H 0.53514 0.67134 0.92883 0.0
H2325 H 0.51117 0.73099 0.97812 0.0
C2326 C 0.52148 0.75422 0.95234 0.0
C2327 C 0.52973 0.75597 0.93017 0.0
C2328 C 0.52858 0.67023 0.94595 0.0
C2329 C 0.52155 0.71176 0.94679 0.0
C2330 C 0.53068 0.65088 0.95879 0.0
C2331 C 0.52375 0.65017 0.9819 0.0
C2332 C 0.51971 0.68884 0.95661 0.0
C2333 C 0.51315 0.66788 0.99069 0.0
C2334 C 0.51726 0.73204 0.9607 0.0
C2335 C 0.53346 0.73533 0.91655 0.0
N2336 N 0.5118 0.68684 0.9782 0.0
N2337 N 0.52948 0.71396 0.92523 0.0
H2338 H 0.14334 0.75596 0.70663 0.0
H2339 H 0.24264 0.80456 0.81439 0.0
H2340 H 0.13623 0.77762 0.7829 0.0
H2341 H 0.24569 0.75819 0.74734 0.0
H2342 H 0.20364 0.7966 0.80288 0.0
H2343 H 0.18157 0.7593 0.72051 0.0
C2344 C 0.1499 0.7613 0.72635 0.0
C2345 C 0.13685 0.76638 0.74384 0.0
C2346 C 0.21286 0.7879 0.79092 0.0
C2347 C 0.18017 0.77019 0.75966 0.0
C2348 C 0.23496 0.79243 0.79745 0.0
C2349 C 0.24704 0.78199 0.78169 0.0
C2350 C 0.2031 0.77322 0.76834 0.0
C2351 C 0.2367 0.76637 0.76 0.0
C2352 C 0.1716 0.76306 0.73423 0.0
C2353 C 0.1459 0.7733 0.76905 0.0
N2354 N 0.21516 0.76268 0.75371 0.0
N2355 N 0.16721 0.77518 0.77628 0.0
H2356 H 0.04461 0.36717 0.48288 0.0
H2357 H 0.02288 0.49969 0.48996 0.0
H2358 H 0.03468 0.40475 0.41883 0.0
H2359 H 0.03022 0.46206 0.55431 0.0
H2360 H 0.02156 0.46277 0.46284 0.0
H2361 H 0.03581 0.40027 0.50895 0.0
C2362 C 0.04092 0.3826 0.47445 0.0
C2363 C 0.04071 0.3836 0.44891 0.0
C2364 C 0.02294 0.46236 0.48283 0.0
C2365 C 0.03014 0.42093 0.47821 0.0
C2366 C 0.02342 0.48341 0.49836 0.0
C2367 C 0.0268 0.48382 0.52442 0.0
C2368 C 0.02607 0.44176 0.49354 0.0
C2369 C 0.02777 0.46238 0.53429 0.0
C2370 C 0.03559 0.40126 0.4892 0.0
C2371 C 0.03532 0.40357 0.43861 0.0
N2372 N 0.0278 0.44214 0.51876 0.0
N2373 N 0.03027 0.42157 0.45338 0.0
H2374 H 0.50991 0.28377 0.21889 0.0
H2375 H 0.42883 0.25538 0.31355 0.0
H2376 H 0.52329 0.24339 0.27991 0.0
H2377 H 0.42179 0.29979 0.25475 0.0
H2378 H 0.46165 0.24663 0.29975 0.0
H2379 H 0.47524 0.28528 0.22968 0.0
C2380 C 0.50551 0.27534 0.23478 0.0
C2381 C 0.51942 0.26384 0.24897 0.0
C2382 C 0.45268 0.25804 0.2898 0.0
C2383 C 0.47976 0.26553 0.26151 0.0
C2384 C 0.43411 0.26301 0.29764 0.0
C2385 C 0.42266 0.27806 0.28503 0.0
C2386 C 0.45959 0.26841 0.26948 0.0
C2387 C 0.42994 0.28766 0.26461 0.0
C2388 C 0.48565 0.27609 0.24087 0.0
C2389 C 0.51285 0.25262 0.26884 0.0
N2390 N 0.44801 0.28274 0.25755 0.0
N2391 N 0.49336 0.25397 0.27482 0.0
H2392 H 0.65075 0.54277 0.41266 0.0
H2393 H 0.55717 0.56171 0.48765 0.0
H2394 H 0.60215 0.58234 0.38837 0.0
H2395 H 0.61135 0.53308 0.51805 0.0
H2396 H 0.5743 0.57113 0.45201 0.0
H2397 H 0.63696 0.5396 0.45167 0.0
C2398 C 0.63718 0.55085 0.4156 0.0
C2399 C 0.62753 0.56287 0.39738 0.0
C2400 C 0.58271 0.56322 0.46663 0.0
C2401 C 0.61182 0.55943 0.44193 0.0
C2402 C 0.573 0.55797 0.48699 0.0
C2403 C 0.5831 0.54683 0.50564 0.0
C2404 C 0.60249 0.55686 0.46481 0.0
C2405 C 0.60336 0.54201 0.50407 0.0
C2406 C 0.62941 0.54914 0.43792 0.0
C2407 C 0.61002 0.57297 0.40203 0.0
N2408 N 0.61237 0.5468 0.48368 0.0
N2409 N 0.60264 0.57094 0.4239 0.0
H2410 H 0.28813 0.81393 0.05638 0.0
H2411 H 0.32123 0.87347 0.19897 0.0
H2412 H 0.2537 0.861 0.09429 0.0
H2413 H 0.34564 0.81343 0.16705 0.0
H2414 H 0.30323 0.87667 0.15716 0.0
H2415 H 0.31318 0.81722 0.09532 0.0
C2416 C 0.28548 0.82436 0.07308 0.0
C2417 C 0.26907 0.83745 0.07216 0.0
C2418 C 0.31303 0.86322 0.15933 0.0
C2419 C 0.29802 0.84218 0.11608 0.0
C2420 C 0.32365 0.86175 0.18303 0.0
C2421 C 0.33405 0.84248 0.18651 0.0
C2422 C 0.31339 0.8456 0.13935 0.0
C2423 C 0.3373 0.82819 0.16533 0.0
C2424 C 0.30003 0.82667 0.0951 0.0
C2425 C 0.26633 0.85079 0.09424 0.0
N2426 N 0.32633 0.82948 0.14262 0.0
N2427 N 0.28092 0.85312 0.11532 0.0
H2428 H 0.93712 0.56414 0.88754 0.0
H2429 H 0.04623 0.53229 0.96048 0.0
H2430 H 0.98865 0.54731 0.85138 0.0
H2431 H 0.99785 0.55173 1.00082 0.0
H2432 H 0.02429 0.53633 0.92117 0.0
H2433 H 0.95739 0.55907 0.92819 0.0
C2434 C 0.9527 0.55945 0.88793 0.0
C2435 C 0.96092 0.55648 0.86525 0.0
C2436 C 0.01826 0.53977 0.93845 0.0
C2437 C 0.98474 0.55018 0.91302 0.0
C2438 C 0.03092 0.53739 0.9613 0.0
C2439 C 0.02436 0.54159 0.98481 0.0
C2440 C 0.99831 0.54674 0.93809 0.0
C2441 C 1.00398 0.54808 0.98365 0.0
C2442 C 0.96437 0.55649 0.91145 0.0
C2443 C 0.98136 0.55016 0.86783 0.0
N2444 N 0.99195 0.55052 0.96103 0.0
N2445 N 0.99225 0.54727 0.89077 0.0
H2446 H 0.28117 0.24815 0.60043 0.0
H2447 H 0.30971 0.23196 0.74464 0.0
H2448 H 0.29624 0.18359 0.62708 0.0
H2449 H 0.28488 0.29299 0.72196 0.0
H2450 H 0.30623 0.21521 0.70089 0.0
H2451 H 0.28469 0.26679 0.64419 0.0
C2452 C 0.28522 0.23795 0.61545 0.0
C2453 C 0.28822 0.21424 0.61018 0.0
C2454 C 0.30148 0.23225 0.70528 0.0
C2455 C 0.2921 0.2352 0.65983 0.0
C2456 C 0.30345 0.24175 0.73024 0.0
C2457 C 0.29753 0.26374 0.73659 0.0
C2458 C 0.29382 0.24504 0.68647 0.0
C2459 C 0.28942 0.27583 0.71751 0.0
C2460 C 0.28715 0.24853 0.64032 0.0
C2461 C 0.29367 0.20186 0.63024 0.0
N2462 N 0.28793 0.26638 0.6931 0.0
N2463 N 0.29533 0.21245 0.65409 0.0
H2464 H 0.60484 0.5225 0.26114 0.0
H2465 H 0.58975 0.57893 0.13453 0.0
H2466 H 0.634 0.59517 0.25306 0.0
H2467 H 0.57433 0.502 0.13585 0.0
H2468 H 0.60408 0.58507 0.17873 0.0
H2469 H 0.59133 0.51456 0.21598 0.0
C2470 C 0.6081 0.53685 0.24989 0.0
C2471 C 0.62019 0.55963 0.26073 0.0
C2472 C 0.59763 0.56681 0.16946 0.0
C2473 C 0.60519 0.55062 0.2095 0.0
C2474 C 0.58929 0.56324 0.1442 0.0
C2475 C 0.58058 0.53987 0.13164 0.0
C2476 C 0.59713 0.54689 0.18244 0.0
C2477 C 0.58083 0.52028 0.145 0.0
C2478 C 0.60063 0.53223 0.22418 0.0
C2479 C 0.6245 0.57745 0.2454 0.0
N2480 N 0.58886 0.52425 0.16992 0.0
N2481 N 0.61692 0.57257 0.22053 0.0
H2482 H 0.27042 0.87785 0.93662 0.0
H2483 H 0.30152 0.77138 0.85326 0.0
H2484 H 0.2427 0.80286 0.93697 0.0
H2485 H 0.33689 0.84474 0.86514 0.0
H2486 H 0.28072 0.78183 0.88517 0.0
H2487 H 0.29413 0.86578 0.90922 0.0
C2488 C 0.26869 0.8588 0.93007 0.0
C2489 C 0.25445 0.8412 0.93883 0.0
C2490 C 0.29357 0.79546 0.88157 0.0
C2491 C 0.28199 0.82736 0.90809 0.0
C2492 C 0.30572 0.78937 0.86378 0.0
C2493 C 0.32106 0.80723 0.85718 0.0
C2494 C 0.29692 0.81954 0.89262 0.0
C2495 C 0.32536 0.83053 0.87022 0.0
C2496 C 0.28263 0.85194 0.91491 0.0
C2497 C 0.25337 0.81687 0.93038 0.0
N2498 N 0.31308 0.83618 0.88726 0.0
N2499 N 0.2671 0.81061 0.91546 0.0
H2500 H 0.94826 0.51623 0.7149 0.0
H2501 H 0.99171 0.58011 0.60112 0.0
H2502 H 0.96174 0.59352 0.71959 0.0
H2503 H 1.01272 0.51666 0.62229 0.0
H2504 H 0.97476 0.58296 0.63902 0.0
H2505 H 0.96539 0.51355 0.67723 0.0
C2506 C 0.95467 0.53276 0.70814 0.0
C2507 C 0.95328 0.55521 0.72132 0.0
C2508 C 0.98288 0.56822 0.63536 0.0
C2509 C 0.97297 0.55209 0.6763 0.0
C2510 C 0.99254 0.56644 0.61333 0.0
C2511 C 1.00381 0.5479 0.6076 0.0
C2512 C 0.98355 0.55095 0.65216 0.0
C2513 C 1.00429 0.53124 0.6252 0.0
C2514 C 0.96462 0.53116 0.68636 0.0
C2515 C 0.96224 0.5757 0.71076 0.0
N2516 N 0.99426 0.53295 0.64599 0.0
N2517 N 0.97123 0.57363 0.68917 0.0
H2518 H 0.26598 0.17839 0.44665 0.0
H2519 H 0.31357 0.30078 0.39627 0.0
H2520 H 0.30234 0.24275 0.49411 0.0
H2521 H 0.27823 0.23693 0.34721 0.0
H2522 H 0.31024 0.27908 0.4321 0.0
H2523 H 0.27069 0.19876 0.40984 0.0
C2524 C 0.27497 0.19677 0.44932 0.0
C2525 C 0.28358 0.20897 0.4735 0.0
C2526 C 0.30301 0.26981 0.41355 0.0
C2527 C 0.28916 0.23233 0.43152 0.0
C2528 C 0.30481 0.28227 0.39306 0.0
C2529 C 0.29579 0.27079 0.36874 0.0
C2530 C 0.29189 0.24571 0.40983 0.0
C2531 C 0.28511 0.24657 0.36568 0.0
C2532 C 0.27767 0.20839 0.42831 0.0
C2533 C 0.29518 0.23274 0.47585 0.0
N2534 N 0.28333 0.23486 0.386 0.0
N2535 N 0.2976 0.24361 0.45518 0.0
H2536 H 0.3911 0.64999 0.61671 0.0
H2537 H 0.46276 0.62084 0.51495 0.0
H2538 H 0.39168 0.68432 0.54996 0.0
H2539 H 0.45697 0.58657 0.58112 0.0
H2540 H 0.43997 0.64834 0.52888 0.0
H2541 H 0.41996 0.63106 0.60625 0.0
C2542 C 0.39738 0.6533 0.59974 0.0
C2543 C 0.38915 0.66803 0.58378 0.0
C2544 C 0.44396 0.63489 0.54033 0.0
C2545 C 0.42152 0.64654 0.57141 0.0
C2546 C 0.45667 0.6193 0.53232 0.0
C2547 C 0.46145 0.60187 0.5471 0.0
C2548 C 0.43635 0.63249 0.563 0.0
C2549 C 0.45355 0.60009 0.56945 0.0
C2550 C 0.41385 0.64272 0.59379 0.0
C2551 C 0.39784 0.67266 0.56239 0.0
N2552 N 0.44135 0.61528 0.57674 0.0
N2553 N 0.41355 0.66151 0.55648 0.0
H2554 H 0.88213 0.96957 0.54974 0.0
H2555 H 1.01062 0.9861 0.58615 0.0
H2556 H 0.91107 0.92791 0.60133 0.0
H2557 H 0.97812 0.02454 0.5341 0.0
H2558 H 0.9754 0.96219 0.59031 0.0
H2559 H 0.91769 0.98782 0.54259 0.0
C2560 C 0.896 0.96444 0.55984 0.0
C2561 C 0.89344 0.94738 0.57648 0.0
C2562 C 0.97603 0.97555 0.57762 0.0
C2563 C 0.93484 0.96841 0.56825 0.0
C2564 C 0.99619 0.98898 0.57499 0.0
C2565 C 0.9974 1.00721 0.55948 0.0
C2566 C 0.95696 0.98039 0.56463 0.0
C2567 C 0.97804 1.01062 0.54613 0.0
C2568 C 0.91643 0.9748 0.55562 0.0
C2569 C 0.91219 0.94113 0.58851 0.0
N2570 N 0.95884 0.99754 0.54906 0.0
N2571 N 0.93203 0.95172 0.58432 0.0
H2572 H 0.94351 0.08676 0.32464 0.0
H2573 H 0.86663 0.1625 0.25641 0.0
H2574 H 0.90145 0.06105 0.25374 0.0
H2575 H 0.89285 0.18013 0.33525 0.0
H2576 H 0.88257 0.12711 0.25452 0.0
H2577 H 0.92775 0.12263 0.32857 0.0
C2578 C 0.93094 0.0887 0.30991 0.0
C2579 C 0.92378 0.07111 0.28869 0.0
C2580 C 0.88497 0.13871 0.27225 0.0
C2581 C 0.90593 0.11186 0.29308 0.0
C2582 C 0.87612 0.15907 0.27327 0.0
C2583 C 0.87884 0.17436 0.29592 0.0
C2584 C 0.89668 0.13357 0.29403 0.0
C2585 C 0.89063 0.16875 0.31742 0.0
C2586 C 0.92195 0.10907 0.31224 0.0
C2587 C 0.90741 0.07426 0.2703 0.0
N2588 N 0.89929 0.1487 0.31594 0.0
N2589 N 0.8991 0.09439 0.27286 0.0
H2590 H 0.7688 0.19496 0.06973 0.0
H2591 H 0.68941 0.07131 0.07475 0.0
H2592 H 0.78374 0.13908 0.11259 0.0
H2593 H 0.66902 0.1269 0.0349 0.0
H2594 H 0.72568 0.09419 0.08272 0.0
H2595 H 0.73302 0.16994 0.0534 0.0
C2596 C 0.76431 0.17768 0.07613 0.0
C2597 C 0.77898 0.16901 0.09269 0.0
C2598 C 0.71341 0.10134 0.07188 0.0
C2599 C 0.73877 0.14034 0.07375 0.0
C2600 C 0.69265 0.08798 0.06689 0.0
C2601 C 0.67608 0.09734 0.0544 0.0
C2602 C 0.71769 0.12435 0.06457 0.0
C2603 C 0.68134 0.11932 0.04508 0.0
C2604 C 0.7441 0.16332 0.06655 0.0
C2605 C 0.7728 0.14636 0.09992 0.0
N2606 N 0.70173 0.13239 0.05075 0.0
N2607 N 0.75316 0.13282 0.0904 0.0
H2608 H 0.18579 0.43053 0.32096 0.0
H2609 H 0.29555 0.37807 0.31174 0.0
H2610 H 0.24502 0.476 0.31373 0.0
H2611 H 0.23477 0.33204 0.31219 0.0
H2612 H 0.27821 0.41333 0.31369 0.0
H2613 H 0.20346 0.3955 0.31944 0.0
C2614 C 0.2025 0.43344 0.31896 0.0
C2615 C 0.21343 0.45718 0.31746 0.0
C2616 C 0.26852 0.39563 0.31347 0.0
C2617 C 0.23461 0.41538 0.31553 0.0
C2618 C 0.27856 0.37507 0.3124 0.0
C2619 C 0.26708 0.35106 0.31179 0.0
C2620 C 0.24631 0.39318 0.31428 0.0
C2621 C 0.24483 0.34955 0.31253 0.0
C2622 C 0.21275 0.41303 0.31808 0.0
C2623 C 0.2354 0.45865 0.31506 0.0
N2624 N 0.23552 0.36981 0.31381 0.0
N2625 N 0.24494 0.43854 0.31416 0.0
H2626 H 0.25166 0.39905 0.06497 0.0
H2627 H 0.19466 0.50892 0.03639 0.0
H2628 H 0.28611 0.47221 0.06913 0.0
H2629 H 0.16086 0.4444 0.05908 0.0
H2630 H 0.22744 0.49302 0.04172 0.0
H2631 H 0.21772 0.41303 0.05724 0.0
C2632 C 0.2521 0.41807 0.06429 0.0
C2633 C 0.27182 0.43454 0.06787 0.0
C2634 C 0.21285 0.4823 0.04548 0.0
C2635 C 0.23297 0.45055 0.05862 0.0
C2636 C 0.19398 0.49124 0.04216 0.0
C2637 C 0.17478 0.47804 0.04723 0.0
C2638 C 0.21273 0.45984 0.05384 0.0
C2639 C 0.17525 0.45538 0.05515 0.0
C2640 C 0.23271 0.42601 0.0599 0.0
C2641 C 0.27135 0.45892 0.06669 0.0
N2642 N 0.19388 0.44699 0.05818 0.0
N2643 N 0.25229 0.46614 0.06203 0.0
H2644 H 0.89799 0.96518 0.32017 0.0
H2645 H 0.84508 0.82809 0.26625 0.0
H2646 H 0.91812 0.92589 0.25866 0.0
H2647 H 0.83566 0.86335 0.33662 0.0
H2648 H 0.87238 0.86341 0.26318 0.0
H2649 H 0.87496 0.92801 0.32636 0.0
C2650 C 0.89745 0.9487 0.30788 0.0
C2651 C 0.90978 0.94855 0.28873 0.0
C2652 C 0.86443 0.8634 0.27935 0.0
C2653 C 0.88352 0.906 0.29569 0.0
C2654 C 0.8489 0.84335 0.28103 0.0
C2655 C 0.83818 0.84327 0.30151 0.0
C2656 C 0.86882 0.88351 0.29812 0.0
C2657 C 0.84364 0.86307 0.32046 0.0
C2658 C 0.88443 0.92746 0.31153 0.0
C2659 C 0.90876 0.92671 0.27356 0.0
N2660 N 0.85846 0.88261 0.31818 0.0
N2661 N 0.89569 0.90628 0.27725 0.0
H2662 H 0.7233 0.10402 0.86566 0.0
H2663 H 0.76448 0.20786 0.78309 0.0
H2664 H 0.71569 0.09365 0.78519 0.0
H2665 H 0.77011 0.22318 0.86322 0.0
H2666 H 0.74718 0.16631 0.78455 0.0
H2667 H 0.74085 0.14657 0.86616 0.0
C2668 C 0.72529 0.11052 0.84805 0.0
C2669 C 0.71789 0.09463 0.82533 0.0
C2670 C 0.75215 0.17857 0.80193 0.0
C2671 C 0.73813 0.14426 0.82579 0.0
C2672 C 0.76217 0.20263 0.80117 0.0
C2673 C 0.76907 0.2197 0.82307 0.0
C2674 C 0.7488 0.1706 0.82486 0.0
C2675 C 0.76519 0.2111 0.84572 0.0
C2676 C 0.73535 0.13502 0.84837 0.0
C2677 C 0.72112 0.1047 0.80327 0.0
N2678 N 0.7555 0.18738 0.84601 0.0
N2679 N 0.73081 0.12846 0.80409 0.0
loop_
_geom_bond_atom_site_label_1
_geom_bond_atom_site_label_2
_geom_bond_distance
_geom_bond_site_symmetry_2
_ccdc_geom_bond_type
In0 O1 2.294 . S
In0 O2 2.326 . S
In0 O6 2.266 1_455 S
In0 O7 2.326 1_455 S
In0 O8 2.266 . S
In0 O9 2.326 . S
In0 O11 2.294 . S
In0 O12 2.326 . S
O1 In0 2.294 . S
O1 C10 1.240 . S
O2 In0 2.326 . S
O2 C10 1.252 . S
C3 O6 1.252 . S
C3 O7 1.260 . S
C4 O11 1.240 . S
C4 O12 1.252 . S
C5 O8 1.252 . S
C5 O9 1.260 . S
O6 In0 2.266 1_655 S
O6 C3 1.252 . S
O7 In0 2.326 1_655 S
O7 C3 1.260 . S
O8 In0 2.266 . S
O8 C5 1.252 . S
O9 In0 2.326 . S
O9 C5 1.260 . S
C10 O1 1.240 . S
C10 O2 1.252 . S
O11 In0 2.294 . S
O11 C4 1.240 . S
O12 In0 2.326 . S
O12 C4 1.252 . S
In13 O14 2.294 . S
In13 O15 2.326 . S
In13 O19 2.266 . S
In13 O20 2.326 . S
In13 O21 2.266 . S
In13 O22 2.326 . S
In13 O24 2.294 . S
In13 O25 2.326 . S
O14 In13 2.294 . S
O14 C23 1.240 . S
O15 In13 2.326 . S
O15 C23 1.252 . S
C16 O19 1.252 . S
C16 O20 1.260 . S
C17 O24 1.240 . S
C17 O25 1.252 . S
C18 O21 1.252 . S
C18 O22 1.260 . S
O19 In13 2.266 . S
O19 C16 1.252 . S
O20 In13 2.326 . S
O20 C16 1.260 . S
O21 In13 2.266 . S
O21 C18 1.252 . S
O22 In13 2.326 . S
O22 C18 1.260 . S
C23 O14 1.240 . S
C23 O15 1.252 . S
O24 In13 2.294 . S
O24 C17 1.240 . S
O25 In13 2.326 . S
O25 C17 1.252 . S
In26 O27 2.294 . S
In26 O28 2.326 . S
In26 O32 2.266 . S
In26 O33 2.326 . S
In26 O34 2.266 . S
In26 O35 2.326 . S
In26 O37 2.294 . S
In26 O38 2.326 . S
O27 In26 2.294 . S
O27 C36 1.240 . S
O28 In26 2.326 . S
O28 C36 1.252 . S
C29 O32 1.252 . S
C29 O33 1.260 . S
C30 O37 1.240 . S
C30 O38 1.252 . S
C31 O34 1.252 . S
C31 O35 1.260 . S
O32 In26 2.266 . S
O32 C29 1.252 . S
O33 In26 2.326 . S
O33 C29 1.260 . S
O34 In26 2.266 . S
O34 C31 1.252 . S
O35 In26 2.326 . S
O35 C31 1.260 . S
C36 O27 1.240 . S
C36 O28 1.252 . S
O37 In26 2.294 . S
O37 C30 1.240 . S
O38 In26 2.326 . S
O38 C30 1.252 . S
In39 O40 2.294 . S
In39 O41 2.326 . S
In39 O45 2.266 . S
In39 O46 2.326 . S
In39 O47 2.266 . S
In39 O48 2.326 . S
In39 O50 2.294 . S
In39 O51 2.326 . S
O40 In39 2.294 . S
O40 C49 1.240 . S
O41 In39 2.326 . S
O41 C49 1.252 . S
C42 O45 1.252 . S
C42 O46 1.260 . S
C43 O50 1.240 . S
C43 O51 1.252 . S
C44 O47 1.252 . S
C44 O48 1.260 . S
O45 In39 2.266 . S
O45 C42 1.252 . S
O46 In39 2.326 . S
O46 C42 1.260 . S
O47 In39 2.266 . S
O47 C44 1.252 . S
O48 In39 2.326 . S
O48 C44 1.260 . S
C49 O40 1.240 . S
C49 O41 1.252 . S
O50 In39 2.294 . S
O50 C43 1.240 . S
O51 In39 2.326 . S
O51 C43 1.252 . S
In52 O53 2.294 . S
In52 O54 2.326 . S
In52 O58 2.266 . S
In52 O59 2.326 . S
In52 O60 2.266 . S
In52 O61 2.326 . S
In52 O63 2.294 . S
In52 O64 2.326 . S
O53 In52 2.294 . S
O53 C62 1.240 . S
O54 In52 2.326 . S
O54 C62 1.252 . S
C55 O58 1.252 . S
C55 O59 1.260 . S
C56 O63 1.240 . S
C56 O64 1.252 . S
C57 O60 1.252 . S
C57 O61 1.260 . S
O58 In52 2.266 . S
O58 C55 1.252 . S
O59 In52 2.326 . S
O59 C55 1.260 . S
O60 In52 2.266 . S
O60 C57 1.252 . S
O61 In52 2.326 . S
O61 C57 1.260 . S
C62 O53 1.240 . S
C62 O54 1.252 . S
O63 In52 2.294 . S
O63 C56 1.240 . S
O64 In52 2.326 . S
O64 C56 1.252 . S
In65 O66 2.294 . S
In65 O67 2.326 . S
In65 O71 2.266 . S
In65 O72 2.326 . S
In65 O73 2.266 . S
In65 O74 2.326 . S
In65 O76 2.294 . S
In65 O77 2.326 . S
O66 In65 2.294 . S
O66 C75 1.240 . S
O67 In65 2.326 . S
O67 C75 1.252 . S
C68 O71 1.252 . S
C68 O72 1.260 . S
C69 O76 1.240 . S
C69 O77 1.252 . S
C70 O73 1.252 . S
C70 O74 1.260 . S
O71 In65 2.266 . S
O71 C68 1.252 . S
O72 In65 2.326 . S
O72 C68 1.260 . S
O73 In65 2.266 . S
O73 C70 1.252 . S
O74 In65 2.326 . S
O74 C70 1.260 . S
C75 O66 1.240 . S
C75 O67 1.252 . S
O76 In65 2.294 . S
O76 C69 1.240 . S
O77 In65 2.326 . S
O77 C69 1.252 . S
In78 O79 2.294 . S
In78 O80 2.326 . S
In78 O84 2.266 . S
In78 O85 2.326 . S
In78 O86 2.266 . S
In78 O87 2.326 . S
In78 O89 2.294 . S
In78 O90 2.326 . S
O79 In78 2.294 . S
O79 C88 1.240 . S
O80 In78 2.326 . S
O80 C88 1.252 . S
C81 O84 1.252 . S
C81 O85 1.260 . S
C82 O89 1.240 . S
C82 O90 1.252 . S
C83 O86 1.252 . S
C83 O87 1.260 . S
O84 In78 2.266 . S
O84 C81 1.252 . S
O85 In78 2.326 . S
O85 C81 1.260 . S
O86 In78 2.266 . S
O86 C83 1.252 . S
O87 In78 2.326 . S
O87 C83 1.260 . S
C88 O79 1.240 . S
C88 O80 1.252 . S
O89 In78 2.294 . S
O89 C82 1.240 . S
O90 In78 2.326 . S
O90 C82 1.252 . S
In91 O92 2.294 . S
In91 O93 2.326 . S
In91 O97 2.266 . S
In91 O98 2.326 . S
In91 O99 2.266 1_455 S
In91 O100 2.326 1_455 S
In91 O102 2.294 . S
In91 O103 2.326 . S
O92 In91 2.294 . S
O92 C101 1.240 . S
O93 In91 2.326 . S
O93 C101 1.252 . S
C94 O97 1.252 . S
C94 O98 1.260 . S
C95 O102 1.240 . S
C95 O103 1.252 . S
C96 O99 1.252 . S
C96 O100 1.260 . S
O97 In91 2.266 . S
O97 C94 1.252 . S
O98 In91 2.326 . S
O98 C94 1.260 . S
O99 In91 2.266 1_655 S
O99 C96 1.252 . S
O100 In91 2.326 1_655 S
O100 C96 1.260 . S
C101 O92 1.240 . S
C101 O93 1.252 . S
O102 In91 2.294 . S
O102 C95 1.240 . S
O103 In91 2.326 . S
O103 C95 1.252 . S
In104 O105 2.294 . S
In104 O106 2.326 . S
In104 O110 2.266 . S
In104 O111 2.326 . S
In104 O112 2.266 1_545 S
In104 O113 2.326 1_545 S
In104 O115 2.294 . S
In104 O116 2.326 . S
O105 In104 2.294 . S
O105 C114 1.240 . S
O106 In104 2.326 . S
O106 C114 1.252 . S
C107 O110 1.252 . S
C107 O111 1.260 . S
C108 O115 1.240 . S
C108 O116 1.252 . S
C109 O112 1.252 . S
C109 O113 1.260 . S
O110 In104 2.266 . S
O110 C107 1.252 . S
O111 In104 2.326 . S
O111 C107 1.260 . S
O112 In104 2.266 1_565 S
O112 C109 1.252 . S
O113 In104 2.326 1_565 S
O113 C109 1.260 . S
C114 O105 1.240 . S
C114 O106 1.252 . S
O115 In104 2.294 . S
O115 C108 1.240 . S
O116 In104 2.326 . S
O116 C108 1.252 . S
In117 O118 2.294 . S
In117 O119 2.326 . S
In117 O123 2.266 . S
In117 O124 2.326 . S
In117 O125 2.266 . S
In117 O126 2.326 . S
In117 O128 2.294 . S
In117 O129 2.326 . S
O118 In117 2.294 . S
O118 C127 1.240 . S
O119 In117 2.326 . S
O119 C127 1.252 . S
C120 O123 1.252 . S
C120 O124 1.260 . S
C121 O128 1.240 . S
C121 O129 1.252 . S
C122 O125 1.252 . S
C122 O126 1.260 . S
O123 In117 2.266 . S
O123 C120 1.252 . S
O124 In117 2.326 . S
O124 C120 1.260 . S
O125 In117 2.266 . S
O125 C122 1.252 . S
O126 In117 2.326 . S
O126 C122 1.260 . S
C127 O118 1.240 . S
C127 O119 1.252 . S
O128 In117 2.294 . S
O128 C121 1.240 . S
O129 In117 2.326 . S
O129 C121 1.252 . S
In130 O131 2.294 . S
In130 O132 2.326 . S
In130 O136 2.266 . S
In130 O137 2.326 . S
In130 O138 2.266 . S
In130 O139 2.326 . S
In130 O141 2.294 . S
In130 O142 2.326 . S
O131 In130 2.294 . S
O131 C140 1.240 . S
O132 In130 2.326 . S
O132 C140 1.252 . S
C133 O136 1.252 . S
C133 O137 1.260 . S
C134 O141 1.240 . S
C134 O142 1.252 . S
C135 O138 1.252 . S
C135 O139 1.260 . S
O136 In130 2.266 . S
O136 C133 1.252 . S
O137 In130 2.326 . S
O137 C133 1.260 . S
O138 In130 2.266 . S
O138 C135 1.252 . S
O139 In130 2.326 . S
O139 C135 1.260 . S
C140 O131 1.240 . S
C140 O132 1.252 . S
O141 In130 2.294 . S
O141 C134 1.240 . S
O142 In130 2.326 . S
O142 C134 1.252 . S
In143 O144 2.296 . S
In143 O145 2.329 . S
In143 O149 2.264 1_554 S
In143 O150 2.322 1_554 S
In143 O151 2.267 . S
In143 O152 2.326 . S
In143 O154 2.294 . S
In143 O155 2.326 . S
O144 In143 2.296 . S
O144 C153 1.240 . S
O145 In143 2.329 . S
O145 C153 1.252 . S
C146 O149 1.252 . S
C146 O150 1.260 . S
C147 O154 1.240 . S
C147 O155 1.252 . S
C148 O151 1.252 . S
C148 O152 1.263 . S
O149 In143 2.264 1_556 S
O149 C146 1.252 . S
O150 In143 2.322 1_556 S
O150 C146 1.260 . S
O151 In143 2.267 . S
O151 C148 1.252 . S
O152 In143 2.326 . S
O152 C148 1.263 . S
C153 O144 1.240 . S
C153 O145 1.252 . S
O154 In143 2.294 . S
O154 C147 1.240 . S
O155 In143 2.326 . S
O155 C147 1.252 . S
In156 O157 2.294 . S
In156 O158 2.326 . S
In156 O162 2.266 . S
In156 O163 2.326 . S
In156 O164 2.266 . S
In156 O165 2.326 . S
In156 O167 2.294 . S
In156 O168 2.326 . S
O157 In156 2.294 . S
O157 C166 1.240 . S
O158 In156 2.326 . S
O158 C166 1.252 . S
C159 O162 1.252 . S
C159 O163 1.260 . S
C160 O167 1.240 . S
C160 O168 1.252 . S
C161 O164 1.252 . S
C161 O165 1.260 . S
O162 In156 2.266 . S
O162 C159 1.252 . S
O163 In156 2.326 . S
O163 C159 1.260 . S
O164 In156 2.266 . S
O164 C161 1.252 . S
O165 In156 2.326 . S
O165 C161 1.260 . S
C166 O157 1.240 . S
C166 O158 1.252 . S
O167 In156 2.294 . S
O167 C160 1.240 . S
O168 In156 2.326 . S
O168 C160 1.252 . S
In169 O170 2.294 . S
In169 O171 2.326 . S
In169 O175 2.266 . S
In169 O176 2.326 . S
In169 O177 2.266 . S
In169 O178 2.326 . S
In169 O180 2.294 . S
In169 O181 2.326 . S
O170 In169 2.294 . S
O170 C179 1.240 . S
O171 In169 2.326 . S
O171 C179 1.252 . S
C172 O175 1.252 . S
C172 O176 1.260 . S
C173 O180 1.240 . S
C173 O181 1.252 . S
C174 O177 1.252 . S
C174 O178 1.260 . S
O175 In169 2.266 . S
O175 C172 1.252 . S
O176 In169 2.326 . S
O176 C172 1.260 . S
O177 In169 2.266 . S
O177 C174 1.252 . S
O178 In169 2.326 . S
O178 C174 1.260 . S
C179 O170 1.240 . S
C179 O171 1.252 . S
O180 In169 2.294 . S
O180 C173 1.240 . S
O181 In169 2.326 . S
O181 C173 1.252 . S
In182 O183 2.294 . S
In182 O184 2.326 . S
In182 O188 2.266 . S
In182 O189 2.326 . S
In182 O190 2.266 . S
In182 O191 2.326 . S
In182 O193 2.294 . S
In182 O194 2.326 . S
O183 In182 2.294 . S
O183 C192 1.240 . S
O184 In182 2.326 . S
O184 C192 1.252 . S
C185 O188 1.252 . S
C185 O189 1.260 . S
C186 O193 1.240 . S
C186 O194 1.252 . S
C187 O190 1.252 . S
C187 O191 1.260 . S
O188 In182 2.266 . S
O188 C185 1.252 . S
O189 In182 2.326 . S
O189 C185 1.260 . S
O190 In182 2.266 . S
O190 C187 1.252 . S
O191 In182 2.326 . S
O191 C187 1.260 . S
C192 O183 1.240 . S
C192 O184 1.252 . S
O193 In182 2.294 . S
O193 C186 1.240 . S
O194 In182 2.326 . S
O194 C186 1.252 . S
In195 O196 2.294 . S
In195 O197 2.326 . S
In195 O201 2.266 . S
In195 O202 2.326 . S
In195 O203 2.266 . S
In195 O204 2.326 . S
In195 O206 2.294 . S
In195 O207 2.326 . S
O196 In195 2.294 . S
O196 C205 1.240 . S
O197 In195 2.326 . S
O197 C205 1.252 . S
C198 O201 1.252 . S
C198 O202 1.260 . S
C199 O206 1.240 . S
C199 O207 1.252 . S
C200 O203 1.252 . S
C200 O204 1.260 . S
O201 In195 2.266 . S
O201 C198 1.252 . S
O202 In195 2.326 . S
O202 C198 1.260 . S
O203 In195 2.266 . S
O203 C200 1.252 . S
O204 In195 2.326 . S
O204 C200 1.260 . S
C205 O196 1.240 . S
C205 O197 1.252 . S
O206 In195 2.294 . S
O206 C199 1.240 . S
O207 In195 2.326 . S
O207 C199 1.252 . S
In208 O209 2.294 . S
In208 O210 2.326 . S
In208 O214 2.266 . S
In208 O215 2.326 . S
In208 O216 2.266 1_545 S
In208 O217 2.326 1_545 S
In208 O219 2.294 . S
In208 O220 2.326 . S
O209 In208 2.294 . S
O209 C218 1.240 . S
O210 In208 2.326 . S
O210 C218 1.252 . S
C211 O214 1.252 . S
C211 O215 1.260 . S
C212 O219 1.240 . S
C212 O220 1.252 . S
C213 O216 1.252 . S
C213 O217 1.260 . S
O214 In208 2.266 . S
O214 C211 1.252 . S
O215 In208 2.326 . S
O215 C211 1.260 . S
O216 In208 2.266 1_565 S
O216 C213 1.252 . S
O217 In208 2.326 1_565 S
O217 C213 1.260 . S
C218 O209 1.240 . S
C218 O210 1.252 . S
O219 In208 2.294 . S
O219 C212 1.240 . S
O220 In208 2.326 . S
O220 C212 1.252 . S
In221 O222 2.294 . S
In221 O223 2.326 . S
In221 O227 2.266 . S
In221 O228 2.326 . S
In221 O229 2.266 . S
In221 O230 2.326 . S
In221 O232 2.294 . S
In221 O233 2.326 . S
O222 In221 2.294 . S
O222 C231 1.240 . S
O223 In221 2.326 . S
O223 C231 1.252 . S
C224 O227 1.252 . S
C224 O228 1.260 . S
C225 O232 1.240 . S
C225 O233 1.252 . S
C226 O229 1.252 . S
C226 O230 1.260 . S
O227 In221 2.266 . S
O227 C224 1.252 . S
O228 In221 2.326 . S
O228 C224 1.260 . S
O229 In221 2.266 . S
O229 C226 1.252 . S
O230 In221 2.326 . S
O230 C226 1.260 . S
C231 O222 1.240 . S
C231 O223 1.252 . S
O232 In221 2.294 . S
O232 C225 1.240 . S
O233 In221 2.326 . S
O233 C225 1.252 . S
In234 O235 2.294 . S
In234 O236 2.326 . S
In234 O240 2.266 . S
In234 O241 2.326 . S
In234 O242 2.266 . S
In234 O243 2.326 . S
In234 O245 2.294 . S
In234 O246 2.326 . S
O235 In234 2.294 . S
O235 C244 1.240 . S
O236 In234 2.326 . S
O236 C244 1.252 . S
C237 O240 1.252 . S
C237 O241 1.260 . S
C238 O245 1.240 . S
C238 O246 1.252 . S
C239 O242 1.252 . S
C239 O243 1.260 . S
O240 In234 2.266 . S
O240 C237 1.252 . S
O241 In234 2.326 . S
O241 C237 1.260 . S
O242 In234 2.266 . S
O242 C239 1.252 . S
O243 In234 2.326 . S
O243 C239 1.260 . S
C244 O235 1.240 . S
C244 O236 1.252 . S
O245 In234 2.294 . S
O245 C238 1.240 . S
O246 In234 2.326 . S
O246 C238 1.252 . S
In247 O248 2.294 1_545 S
In247 O249 2.326 1_545 S
In247 O253 2.266 . S
In247 O254 2.326 . S
In247 O255 2.266 . S
In247 O256 2.326 . S
In247 O258 2.294 . S
In247 O259 2.326 . S
O248 In247 2.294 1_565 S
O248 C257 1.240 . S
O249 In247 2.326 1_565 S
O249 C257 1.252 . S
C250 O253 1.252 . S
C250 O254 1.260 . S
C251 O258 1.240 . S
C251 O259 1.252 . S
C252 O255 1.252 . S
C252 O256 1.260 . S
O253 In247 2.266 . S
O253 C250 1.252 . S
O254 In247 2.326 . S
O254 C250 1.260 . S
O255 In247 2.266 . S
O255 C252 1.252 . S
O256 In247 2.326 . S
O256 C252 1.260 . S
C257 O248 1.240 . S
C257 O249 1.252 . S
O258 In247 2.294 . S
O258 C251 1.240 . S
O259 In247 2.326 . S
O259 C251 1.252 . S
In260 O261 2.294 . S
In260 O262 2.326 . S
In260 O266 2.266 . S
In260 O267 2.326 . S
In260 O268 2.266 . S
In260 O269 2.321 . S
In260 O271 2.294 . S
In260 O272 2.326 . S
O261 In260 2.294 . S
O261 C270 1.240 . S
O262 In260 2.326 . S
O262 C270 1.252 . S
C263 O266 1.252 . S
C263 O267 1.260 . S
C264 O271 1.240 . S
C264 O272 1.252 . S
C265 O268 1.247 1_556 S
C265 O269 1.260 1_556 S
O266 In260 2.266 . S
O266 C263 1.252 . S
O267 In260 2.326 . S
O267 C263 1.260 . S
O268 In260 2.266 . S
O268 C265 1.247 1_554 S
O269 In260 2.321 . S
O269 C265 1.260 1_554 S
C270 O261 1.240 . S
C270 O262 1.252 . S
O271 In260 2.294 . S
O271 C264 1.240 . S
O272 In260 2.326 . S
O272 C264 1.252 . S
In273 O274 2.294 . S
In273 O275 2.326 . S
In273 O279 2.266 . S
In273 O280 2.326 . S
In273 O281 2.266 . S
In273 O282 2.326 . S
In273 O284 2.294 . S
In273 O285 2.326 . S
O274 In273 2.294 . S
O274 C283 1.240 . S
O275 In273 2.326 . S
O275 C283 1.252 . S
C276 O279 1.252 . S
C276 O280 1.260 . S
C277 O284 1.240 . S
C277 O285 1.252 . S
C278 O281 1.252 . S
C278 O282 1.260 . S
O279 In273 2.266 . S
O279 C276 1.252 . S
O280 In273 2.326 . S
O280 C276 1.260 . S
O281 In273 2.266 . S
O281 C278 1.252 . S
O282 In273 2.326 . S
O282 C278 1.260 . S
C283 O274 1.240 . S
C283 O275 1.252 . S
O284 In273 2.294 . S
O284 C277 1.240 . S
O285 In273 2.326 . S
O285 C277 1.252 . S
In286 O287 2.294 . S
In286 O288 2.326 . S
In286 O292 2.266 . S
In286 O293 2.326 . S
In286 O294 2.266 . S
In286 O295 2.326 . S
In286 O297 2.294 . S
In286 O298 2.326 . S
O287 In286 2.294 . S
O287 C296 1.240 . S
O288 In286 2.326 . S
O288 C296 1.252 . S
C289 O292 1.252 . S
C289 O293 1.260 . S
C290 O297 1.240 . S
C290 O298 1.252 . S
C291 O294 1.252 . S
C291 O295 1.260 . S
O292 In286 2.266 . S
O292 C289 1.252 . S
O293 In286 2.326 . S
O293 C289 1.260 . S
O294 In286 2.266 . S
O294 C291 1.252 . S
O295 In286 2.326 . S
O295 C291 1.260 . S
C296 O287 1.240 . S
C296 O288 1.252 . S
O297 In286 2.294 . S
O297 C290 1.240 . S
O298 In286 2.326 . S
O298 C290 1.252 . S
In299 O300 2.294 . S
In299 O301 2.326 . S
In299 O305 2.266 . S
In299 O306 2.326 . S
In299 O307 2.266 . S
In299 O308 2.326 . S
In299 O310 2.294 . S
In299 O311 2.326 . S
O300 In299 2.294 . S
O300 C309 1.240 . S
O301 In299 2.326 . S
O301 C309 1.252 . S
C302 O305 1.252 . S
C302 O306 1.260 . S
C303 O310 1.240 . S
C303 O311 1.252 . S
C304 O307 1.252 . S
C304 O308 1.260 . S
O305 In299 2.266 . S
O305 C302 1.252 . S
O306 In299 2.326 . S
O306 C302 1.260 . S
O307 In299 2.266 . S
O307 C304 1.252 . S
O308 In299 2.326 . S
O308 C304 1.260 . S
C309 O300 1.240 . S
C309 O301 1.252 . S
O310 In299 2.294 . S
O310 C303 1.240 . S
O311 In299 2.326 . S
O311 C303 1.252 . S
Tb312 C314 2.809 1_455 S
Tb312 O332 2.512 . S
Tb312 O333 2.440 1_455 S
Tb312 O334 2.658 . S
Tb312 O335 2.409 . S
Tb312 O336 2.378 . S
Tb312 O340 2.325 . S
Tb312 O343 2.341 1_545 S
Tb313 C323 2.809 . S
Tb313 O334 2.325 . S
Tb313 O337 2.341 . S
Tb313 O338 2.484 . S
Tb313 O339 2.440 . S
Tb313 O340 2.658 . S
Tb313 O341 2.409 . S
Tb313 O342 2.378 . S
C314 Tb312 2.809 1_655 S
C314 C315 1.514 . S
C314 O332 1.235 1_655 S
C314 O333 1.266 . S
C315 C314 1.514 . S
C315 C316 1.359 . S
C315 C320 1.348 . S
C316 C315 1.359 . S
C316 C317 1.380 . S
C316 H344 0.929 . S
C317 C316 1.380 . S
C317 C318 1.347 . S
C317 H345 0.931 . S
C318 C317 1.347 . S
C318 C319 1.369 . S
C319 C318 1.369 . S
C319 C320 1.408 . S
C319 H346 0.930 1_554 S
C320 C315 1.348 . S
C320 C319 1.408 . S
C320 H347 0.930 . S
C321 O334 1.281 . S
C321 O335 1.254 . S
C322 O336 1.236 . S
C322 O337 1.266 . S
C323 Tb313 2.809 . S
C323 C324 1.514 . S
C323 O338 1.248 . S
C323 O339 1.266 . S
C324 C323 1.514 . S
C324 C325 1.359 1_545 S
C324 C329 1.348 . S
C325 C324 1.359 1_565 S
C325 C326 1.380 . S
C325 H348 0.929 . S
C326 C325 1.380 . S
C326 C327 1.347 . S
C326 H349 0.931 . S
C327 C326 1.347 . S
C327 C328 1.369 . S
C328 C327 1.369 . S
C328 C329 1.408 1_565 S
C328 H350 0.930 . S
C329 C324 1.348 . S
C329 C328 1.408 1_545 S
C329 H351 0.930 . S
C330 O340 1.281 . S
C330 O341 1.254 . S
C331 O342 1.236 1_565 S
C331 O343 1.266 . S
O332 Tb312 2.512 . S
O332 C314 1.235 1_455 S
O333 Tb312 2.440 1_655 S
O333 C314 1.266 . S
O334 Tb312 2.658 . S
O334 Tb313 2.325 . S
O334 C321 1.281 . S
O335 Tb312 2.409 . S
O335 C321 1.254 . S
O336 Tb312 2.378 . S
O336 C322 1.236 . S
O337 Tb313 2.341 . S
O337 C322 1.266 . S
O338 Tb313 2.484 . S
O338 C323 1.248 . S
O339 Tb313 2.440 . S
O339 C323 1.266 . S
O340 Tb312 2.325 . S
O340 Tb313 2.658 . S
O340 C330 1.281 . S
O341 Tb313 2.409 . S
O341 C330 1.254 . S
O342 Tb313 2.378 . S
O342 C331 1.236 1_545 S
O343 Tb312 2.341 1_565 S
O343 C331 1.266 . S
H344 C316 0.929 . S
H345 C317 0.931 . S
H346 C319 0.930 1_556 S
H347 C320 0.930 . S
H348 C325 0.929 . S
H349 C326 0.931 . S
H350 C328 0.930 . S
H351 C329 0.930 . S
Tb352 C354 2.809 . S
Tb352 O372 2.484 . S
Tb352 O373 2.440 . S
Tb352 O374 2.658 . S
Tb352 O375 2.409 . S
Tb352 O376 2.378 . S
Tb352 O380 2.325 . S
Tb352 O383 2.341 . S
Tb353 C363 2.809 . S
Tb353 O374 2.325 . S
Tb353 O377 2.341 . S
Tb353 O378 2.484 . S
Tb353 O379 2.440 . S
Tb353 O380 2.658 . S
Tb353 O381 2.409 . S
Tb353 O382 2.378 . S
C354 Tb352 2.809 . S
C354 C355 1.514 . S
C354 O372 1.248 . S
C354 O373 1.266 . S
C355 C354 1.514 . S
C355 C356 1.359 . S
C355 C360 1.348 . S
C356 C355 1.359 . S
C356 C357 1.380 . S
C356 H384 0.929 . S
C357 C356 1.380 . S
C357 C358 1.347 . S
C357 H385 0.931 . S
C358 C357 1.347 . S
C358 C359 1.369 . S
C359 C358 1.369 . S
C359 C360 1.408 . S
C359 H386 0.930 . S
C360 C355 1.348 . S
C360 C359 1.408 . S
C360 H387 0.930 . S
C361 O374 1.281 . S
C361 O375 1.254 . S
C362 O376 1.236 . S
C362 O377 1.266 . S
C363 Tb353 2.809 . S
C363 C364 1.514 . S
C363 O378 1.248 . S
C363 O379 1.266 . S
C364 C363 1.514 . S
C364 C365 1.359 . S
C364 C369 1.348 . S
C365 C364 1.359 . S
C365 C366 1.380 . S
C365 H388 0.929 . S
C366 C365 1.380 . S
C366 C367 1.347 . S
C366 H389 0.931 . S
C367 C366 1.347 . S
C367 C368 1.369 . S
C368 C367 1.369 . S
C368 C369 1.408 . S
C368 H390 0.930 . S
C369 C364 1.348 . S
C369 C368 1.408 . S
C369 H391 0.930 . S
C370 O380 1.281 . S
C370 O381 1.254 . S
C371 O382 1.236 . S
C371 O383 1.266 . S
O372 Tb352 2.484 . S
O372 C354 1.248 . S
O373 Tb352 2.440 . S
O373 C354 1.266 . S
O374 Tb352 2.658 . S
O374 Tb353 2.325 . S
O374 C361 1.281 . S
O375 Tb352 2.409 . S
O375 C361 1.254 . S
O376 Tb352 2.378 . S
O376 C362 1.236 . S
O377 Tb353 2.341 . S
O377 C362 1.266 . S
O378 Tb353 2.484 . S
O378 C363 1.248 . S
O379 Tb353 2.440 . S
O379 C363 1.266 . S
O380 Tb352 2.325 . S
O380 Tb353 2.658 . S
O380 C370 1.281 . S
O381 Tb353 2.409 . S
O381 C370 1.254 . S
O382 Tb353 2.378 . S
O382 C371 1.236 . S
O383 Tb352 2.341 . S
O383 C371 1.266 . S
H384 C356 0.929 . S
H385 C357 0.931 . S
H386 C359 0.930 . S
H387 C360 0.930 . S
H388 C365 0.929 . S
H389 C366 0.931 . S
H390 C368 0.930 . S
H391 C369 0.930 . S
Tb392 C394 2.809 1_545 S
Tb392 O412 2.484 1_545 S
Tb392 O413 2.440 . S
Tb392 O414 2.658 . S
Tb392 O415 2.409 . S
Tb392 O416 2.378 1_545 S
Tb392 O420 2.325 . S
Tb392 O423 2.341 . S
Tb393 C403 2.809 . S
Tb393 O414 2.325 . S
Tb393 O417 2.341 1_545 S
Tb393 O418 2.484 . S
Tb393 O419 2.440 . S
Tb393 O420 2.658 . S
Tb393 O421 2.409 . S
Tb393 O422 2.378 . S
C394 Tb392 2.809 1_565 S
C394 C395 1.514 . S
C394 O412 1.248 . S
C394 O413 1.266 1_565 S
C395 C394 1.514 . S
C395 C396 1.359 . S
C395 C400 1.348 . S
C396 C395 1.359 . S
C396 C397 1.380 . S
C396 H424 0.929 . S
C397 C396 1.380 . S
C397 C398 1.347 . S
C397 H425 0.931 . S
C398 C397 1.347 . S
C398 C399 1.369 . S
C399 C398 1.369 . S
C399 C400 1.408 . S
C399 H426 0.930 . S
C400 C395 1.348 . S
C400 C399 1.408 . S
C400 H427 0.930 . S
C401 O414 1.281 . S
C401 O415 1.254 . S
C402 O416 1.236 . S
C402 O417 1.266 . S
C403 Tb393 2.809 . S
C403 C404 1.514 . S
C403 O418 1.248 . S
C403 O419 1.266 . S
C404 C403 1.514 . S
C404 C405 1.359 . S
C404 C409 1.348 . S
C405 C404 1.359 . S
C405 C406 1.380 . S
C405 H428 0.929 . S
C406 C405 1.380 . S
C406 C407 1.347 . S
C406 H429 0.931 . S
C407 C406 1.347 . S
C407 C408 1.369 . S
C408 C407 1.369 . S
C408 C409 1.408 . S
C408 H430 0.930 . S
C409 C404 1.348 . S
C409 C408 1.408 . S
C409 H431 0.930 . S
C410 O420 1.281 . S
C410 O421 1.254 . S
C411 O422 1.236 . S
C411 O423 1.266 . S
O412 Tb392 2.484 1_565 S
O412 C394 1.248 . S
O413 Tb392 2.440 . S
O413 C394 1.266 1_545 S
O414 Tb392 2.658 . S
O414 Tb393 2.325 . S
O414 C401 1.281 . S
O415 Tb392 2.409 . S
O415 C401 1.254 . S
O416 Tb392 2.378 1_565 S
O416 C402 1.236 . S
O417 Tb393 2.341 1_565 S
O417 C402 1.266 . S
O418 Tb393 2.484 . S
O418 C403 1.248 . S
O419 Tb393 2.440 . S
O419 C403 1.266 . S
O420 Tb392 2.325 . S
O420 Tb393 2.658 . S
O420 C410 1.281 . S
O421 Tb393 2.409 . S
O421 C410 1.254 . S
O422 Tb393 2.378 . S
O422 C411 1.236 . S
O423 Tb392 2.341 . S
O423 C411 1.266 . S
H424 C396 0.929 . S
H425 C397 0.931 . S
H426 C399 0.930 . S
H427 C400 0.930 . S
H428 C405 0.929 . S
H429 C406 0.931 . S
H430 C408 0.930 . S
H431 C409 0.930 . S
Tb432 C434 2.809 . S
Tb432 O452 2.484 . S
Tb432 O453 2.440 . S
Tb432 O454 2.658 . S
Tb432 O455 2.409 . S
Tb432 O456 2.378 . S
Tb432 O460 2.325 . S
Tb432 O463 2.341 . S
Tb433 C443 2.809 . S
Tb433 O454 2.325 . S
Tb433 O457 2.341 . S
Tb433 O458 2.484 . S
Tb433 O459 2.440 . S
Tb433 O460 2.658 . S
Tb433 O461 2.409 . S
Tb433 O462 2.378 . S
C434 Tb432 2.809 . S
C434 C435 1.514 . S
C434 O452 1.248 . S
C434 O453 1.266 . S
C435 C434 1.514 . S
C435 C436 1.359 . S
C435 C440 1.348 . S
C436 C435 1.359 . S
C436 C437 1.380 . S
C436 H464 0.929 . S
C437 C436 1.380 . S
C437 C438 1.347 . S
C437 H465 0.931 . S
C438 C437 1.347 . S
C438 C439 1.369 . S
C439 C438 1.369 . S
C439 C440 1.408 . S
C439 H466 0.930 . S
C440 C435 1.348 . S
C440 C439 1.408 . S
C440 H467 0.930 . S
C441 O454 1.281 . S
C441 O455 1.254 . S
C442 O456 1.236 . S
C442 O457 1.266 . S
C443 Tb433 2.809 . S
C443 C444 1.514 . S
C443 O458 1.248 . S
C443 O459 1.266 . S
C444 C443 1.514 . S
C444 C445 1.359 . S
C444 C449 1.348 . S
C445 C444 1.359 . S
C445 C446 1.380 . S
C445 H468 0.929 . S
C446 C445 1.380 . S
C446 C447 1.347 . S
C446 H469 0.931 . S
C447 C446 1.347 . S
C447 C448 1.369 . S
C448 C447 1.369 . S
C448 C449 1.408 . S
C448 H470 0.930 . S
C449 C444 1.348 . S
C449 C448 1.408 . S
C449 H471 0.930 . S
C450 O460 1.281 . S
C450 O461 1.254 . S
C451 O462 1.236 . S
C451 O463 1.266 . S
O452 Tb432 2.484 . S
O452 C434 1.248 . S
O453 Tb432 2.440 . S
O453 C434 1.266 . S
O454 Tb432 2.658 . S
O454 Tb433 2.325 . S
O454 C441 1.281 . S
O455 Tb432 2.409 . S
O455 C441 1.254 . S
O456 Tb432 2.378 . S
O456 C442 1.236 . S
O457 Tb433 2.341 . S
O457 C442 1.266 . S
O458 Tb433 2.484 . S
O458 C443 1.248 . S
O459 Tb433 2.440 . S
O459 C443 1.266 . S
O460 Tb432 2.325 . S
O460 Tb433 2.658 . S
O460 C450 1.281 . S
O461 Tb433 2.409 . S
O461 C450 1.254 . S
O462 Tb433 2.378 . S
O462 C451 1.236 . S
O463 Tb432 2.341 . S
O463 C451 1.266 . S
H464 C436 0.929 . S
H465 C437 0.931 . S
H466 C439 0.930 . S
H467 C440 0.930 . S
H468 C445 0.929 . S
H469 C446 0.931 . S
H470 C448 0.930 . S
H471 C449 0.930 . S
Tb472 C474 2.809 . S
Tb472 O492 2.484 . S
Tb472 O493 2.440 . S
Tb472 O494 2.708 . S
Tb472 O495 2.409 . S
Tb472 O496 2.378 . S
Tb472 O500 2.325 . S
Tb472 O503 2.341 . S
Tb473 C483 2.809 . S
Tb473 O494 2.299 1_565 S
Tb473 O497 2.341 . S
Tb473 O498 2.484 . S
Tb473 O499 2.440 . S
Tb473 O500 2.658 1_565 S
Tb473 O501 2.409 1_565 S
Tb473 O502 2.378 1_565 S
C474 Tb472 2.809 . S
C474 C475 1.514 . S
C474 O492 1.248 . S
C474 O493 1.266 . S
C475 C474 1.514 . S
C475 C476 1.359 . S
C475 C480 1.348 . S
C476 C475 1.359 . S
C476 C477 1.380 . S
C476 H504 0.929 . S
C477 C476 1.380 . S
C477 C478 1.347 . S
C477 H505 0.931 . S
C478 C477 1.347 . S
C478 C479 1.369 . S
C479 C478 1.369 . S
C479 C480 1.408 . S
C479 H506 0.930 1_455 S
C480 C475 1.348 . S
C480 C479 1.408 . S
C480 H507 0.930 1_455 S
C481 O494 1.298 . S
C481 O495 1.254 . S
C482 O496 1.236 . S
C482 O497 1.266 1_545 S
C483 Tb473 2.809 . S
C483 C484 1.514 . S
C483 O498 1.248 . S
C483 O499 1.266 . S
C484 C483 1.514 . S
C484 C485 1.359 . S
C484 C489 1.348 . S
C485 C484 1.359 . S
C485 C486 1.380 . S
C485 H508 0.929 . S
C486 C485 1.380 . S
C486 C487 1.347 . S
C486 H509 0.931 . S
C487 C486 1.347 . S
C487 C488 1.369 . S
C488 C487 1.369 . S
C488 C489 1.408 . S
C488 H510 0.930 . S
C489 C484 1.348 . S
C489 C488 1.408 . S
C489 H511 0.930 . S
C490 O500 1.281 . S
C490 O501 1.254 . S
C491 O502 1.236 . S
C491 O503 1.266 . S
O492 Tb472 2.484 . S
O492 C474 1.248 . S
O493 Tb472 2.440 . S
O493 C474 1.266 . S
O494 Tb472 2.708 . S
O494 Tb473 2.299 1_545 S
O494 C481 1.298 . S
O495 Tb472 2.409 . S
O495 C481 1.254 . S
O496 Tb472 2.378 . S
O496 C482 1.236 . S
O497 Tb473 2.341 . S
O497 C482 1.266 1_565 S
O498 Tb473 2.484 . S
O498 C483 1.248 . S
O499 Tb473 2.440 . S
O499 C483 1.266 . S
O500 Tb472 2.325 . S
O500 Tb473 2.658 1_545 S
O500 C490 1.281 . S
O501 Tb473 2.409 1_545 S
O501 C490 1.254 . S
O502 Tb473 2.378 1_545 S
O502 C491 1.236 . S
O503 Tb472 2.341 . S
O503 C491 1.266 . S
H504 C476 0.929 . S
H505 C477 0.931 . S
H506 C479 0.930 1_655 S
H507 C480 0.930 1_655 S
H508 C485 0.929 . S
H509 C486 0.931 . S
H510 C488 0.930 . S
H511 C489 0.930 . S
Tb512 C514 2.809 . S
Tb512 O532 2.484 . S
Tb512 O533 2.440 . S
Tb512 O534 2.658 . S
Tb512 O535 2.409 . S
Tb512 O536 2.378 . S
Tb512 O540 2.325 . S
Tb512 O543 2.341 . S
Tb513 C523 2.809 . S
Tb513 O534 2.325 . S
Tb513 O537 2.341 . S
Tb513 O538 2.484 . S
Tb513 O539 2.440 . S
Tb513 O540 2.658 . S
Tb513 O541 2.409 . S
Tb513 O542 2.378 . S
C514 Tb512 2.809 . S
C514 C515 1.514 . S
C514 O532 1.248 . S
C514 O533 1.266 . S
C515 C514 1.514 . S
C515 C516 1.359 . S
C515 C520 1.348 . S
C516 C515 1.359 . S
C516 C517 1.380 . S
C516 H544 0.929 . S
C517 C516 1.380 . S
C517 C518 1.347 . S
C517 H545 0.931 . S
C518 C517 1.347 . S
C518 C519 1.369 . S
C519 C518 1.369 . S
C519 C520 1.408 . S
C519 H546 0.930 . S
C520 C515 1.348 . S
C520 C519 1.408 . S
C520 H547 0.930 . S
C521 O534 1.281 . S
C521 O535 1.254 . S
C522 O536 1.236 . S
C522 O537 1.266 . S
C523 Tb513 2.809 . S
C523 C524 1.514 . S
C523 O538 1.248 . S
C523 O539 1.266 . S
C524 C523 1.514 . S
C524 C525 1.359 . S
C524 C529 1.348 . S
C525 C524 1.359 . S
C525 C526 1.380 . S
C525 H548 0.929 . S
C526 C525 1.380 . S
C526 C527 1.347 . S
C526 H549 0.931 . S
C527 C526 1.347 . S
C527 C528 1.369 . S
C528 C527 1.369 . S
C528 C529 1.408 . S
C528 H550 0.930 . S
C529 C524 1.348 . S
C529 C528 1.408 . S
C529 H551 0.930 . S
C530 O540 1.281 . S
C530 O541 1.254 . S
C531 O542 1.236 . S
C531 O543 1.266 . S
O532 Tb512 2.484 . S
O532 C514 1.248 . S
O533 Tb512 2.440 . S
O533 C514 1.266 . S
O534 Tb512 2.658 . S
O534 Tb513 2.325 . S
O534 C521 1.281 . S
O535 Tb512 2.409 . S
O535 C521 1.254 . S
O536 Tb512 2.378 . S
O536 C522 1.236 . S
O537 Tb513 2.341 . S
O537 C522 1.266 . S
O538 Tb513 2.484 . S
O538 C523 1.248 . S
O539 Tb513 2.440 . S
O539 C523 1.266 . S
O540 Tb512 2.325 . S
O540 Tb513 2.658 . S
O540 C530 1.281 . S
O541 Tb513 2.409 . S
O541 C530 1.254 . S
O542 Tb513 2.378 . S
O542 C531 1.236 . S
O543 Tb512 2.341 . S
O543 C531 1.266 . S
H544 C516 0.929 . S
H545 C517 0.931 . S
H546 C519 0.930 . S
H547 C520 0.930 . S
H548 C525 0.929 . S
H549 C526 0.931 . S
H550 C528 0.930 . S
H551 C529 0.930 . S
Tb552 C554 2.809 . S
Tb552 O572 2.484 . S
Tb552 O573 2.440 . S
Tb552 O574 2.658 . S
Tb552 O575 2.409 . S
Tb552 O576 2.378 . S
Tb552 O580 2.325 . S
Tb552 O583 2.341 1_554 S
Tb553 C563 2.809 . S
Tb553 O574 2.325 . S
Tb553 O577 2.341 . S
Tb553 O578 2.484 . S
Tb553 O579 2.440 . S
Tb553 O580 2.658 . S
Tb553 O581 2.409 1_545 S
Tb553 O582 2.378 . S
C554 Tb552 2.809 . S
C554 C555 1.514 . S
C554 O572 1.248 . S
C554 O573 1.266 . S
C555 C554 1.514 . S
C555 C556 1.359 1_545 S
C555 C560 1.348 . S
C556 C555 1.359 1_565 S
C556 C557 1.380 . S
C556 H584 0.929 . S
C557 C556 1.380 . S
C557 C558 1.347 . S
C557 H585 0.931 . S
C558 C557 1.347 . S
C558 C559 1.369 1_565 S
C559 C558 1.369 1_545 S
C559 C560 1.408 . S
C559 H586 0.930 . S
C560 C555 1.348 . S
C560 C559 1.408 . S
C560 H587 0.930 . S
C561 O574 1.281 . S
C561 O575 1.254 . S
C562 O576 1.236 . S
C562 O577 1.266 . S
C563 Tb553 2.809 . S
C563 C564 1.514 . S
C563 O578 1.248 . S
C563 O579 1.266 . S
C564 C563 1.514 . S
C564 C565 1.359 . S
C564 C569 1.348 . S
C565 C564 1.359 . S
C565 C566 1.380 . S
C565 H588 0.929 . S
C566 C565 1.380 . S
C566 C567 1.347 . S
C566 H589 0.931 . S
C567 C566 1.347 . S
C567 C568 1.369 . S
C568 C567 1.369 . S
C568 C569 1.408 . S
C568 H590 0.930 . S
C569 C564 1.348 . S
C569 C568 1.408 . S
C569 H591 0.930 . S
C570 O580 1.281 1_565 S
C570 O581 1.254 . S
C571 O582 1.236 1_556 S
C571 O583 1.266 . S
O572 Tb552 2.484 . S
O572 C554 1.248 . S
O573 Tb552 2.440 . S
O573 C554 1.266 . S
O574 Tb552 2.658 . S
O574 Tb553 2.325 . S
O574 C561 1.281 . S
O575 Tb552 2.409 . S
O575 C561 1.254 . S
O576 Tb552 2.378 . S
O576 C562 1.236 . S
O577 Tb553 2.341 . S
O577 C562 1.266 . S
O578 Tb553 2.484 . S
O578 C563 1.248 . S
O579 Tb553 2.440 . S
O579 C563 1.266 . S
O580 Tb552 2.325 . S
O580 Tb553 2.658 . S
O580 C570 1.281 1_545 S
O581 Tb553 2.409 1_565 S
O581 C570 1.254 . S
O582 Tb553 2.378 . S
O582 C571 1.236 1_554 S
O583 Tb552 2.341 1_556 S
O583 C571 1.266 . S
H584 C556 0.929 . S
H585 C557 0.931 . S
H586 C559 0.930 . S
H587 C560 0.930 . S
H588 C565 0.929 . S
H589 C566 0.931 . S
H590 C568 0.930 . S
H591 C569 0.930 . S
Tb592 C594 2.809 . S
Tb592 O612 2.484 . S
Tb592 O613 2.440 . S
Tb592 O614 2.658 . S
Tb592 O615 2.409 . S
Tb592 O616 2.378 . S
Tb592 O620 2.325 . S
Tb592 O623 2.341 . S
Tb593 C603 2.809 . S
Tb593 O614 2.325 . S
Tb593 O617 2.341 . S
Tb593 O618 2.484 . S
Tb593 O619 2.440 . S
Tb593 O620 2.658 . S
Tb593 O621 2.409 . S
Tb593 O622 2.378 . S
C594 Tb592 2.809 . S
C594 C595 1.514 . S
C594 O612 1.248 . S
C594 O613 1.266 . S
C595 C594 1.514 . S
C595 C596 1.359 . S
C595 C600 1.348 . S
C596 C595 1.359 . S
C596 C597 1.380 . S
C596 H624 0.929 . S
C597 C596 1.380 . S
C597 C598 1.347 . S
C597 H625 0.931 . S
C598 C597 1.347 . S
C598 C599 1.369 . S
C599 C598 1.369 . S
C599 C600 1.408 . S
C599 H626 0.930 . S
C600 C595 1.348 . S
C600 C599 1.408 . S
C600 H627 0.930 . S
C601 O614 1.281 . S
C601 O615 1.254 . S
C602 O616 1.236 . S
C602 O617 1.266 . S
C603 Tb593 2.809 . S
C603 C604 1.514 . S
C603 O618 1.248 . S
C603 O619 1.266 . S
C604 C603 1.514 . S
C604 C605 1.359 . S
C604 C609 1.348 . S
C605 C604 1.359 . S
C605 C606 1.380 . S
C605 H628 0.929 . S
C606 C605 1.380 . S
C606 C607 1.347 . S
C606 H629 0.931 . S
C607 C606 1.347 . S
C607 C608 1.369 . S
C608 C607 1.369 . S
C608 C609 1.408 . S
C608 H630 0.930 . S
C609 C604 1.348 . S
C609 C608 1.408 . S
C609 H631 0.930 . S
C610 O620 1.281 . S
C610 O621 1.254 . S
C611 O622 1.236 . S
C611 O623 1.266 . S
O612 Tb592 2.484 . S
O612 C594 1.248 . S
O613 Tb592 2.440 . S
O613 C594 1.266 . S
O614 Tb592 2.658 . S
O614 Tb593 2.325 . S
O614 C601 1.281 . S
O615 Tb592 2.409 . S
O615 C601 1.254 . S
O616 Tb592 2.378 . S
O616 C602 1.236 . S
O617 Tb593 2.341 . S
O617 C602 1.266 . S
O618 Tb593 2.484 . S
O618 C603 1.248 . S
O619 Tb593 2.440 . S
O619 C603 1.266 . S
O620 Tb592 2.325 . S
O620 Tb593 2.658 . S
O620 C610 1.281 . S
O621 Tb593 2.409 . S
O621 C610 1.254 . S
O622 Tb593 2.378 . S
O622 C611 1.236 . S
O623 Tb592 2.341 . S
O623 C611 1.266 . S
H624 C596 0.929 . S
H625 C597 0.931 . S
H626 C599 0.930 . S
H627 C600 0.930 . S
H628 C605 0.929 . S
H629 C606 0.931 . S
H630 C608 0.930 . S
H631 C609 0.930 . S
Tb632 C634 2.809 . S
Tb632 O652 2.484 . S
Tb632 O653 2.440 . S
Tb632 O654 2.658 . S
Tb632 O655 2.409 . S
Tb632 O656 2.378 . S
Tb632 O660 2.325 . S
Tb632 O663 2.341 . S
Tb633 C643 2.809 . S
Tb633 O654 2.325 . S
Tb633 O657 2.341 1_554 S
Tb633 O658 2.484 . S
Tb633 O659 2.440 . S
Tb633 O660 2.658 . S
Tb633 O661 2.409 . S
Tb633 O662 2.378 . S
C634 Tb632 2.809 . S
C634 C635 1.514 1_554 S
C634 O652 1.248 . S
C634 O653 1.266 . S
C635 C634 1.514 1_556 S
C635 C636 1.359 . S
C635 C640 1.348 . S
C636 C635 1.359 . S
C636 C637 1.380 . S
C636 H664 0.929 . S
C637 C636 1.380 . S
C637 C638 1.347 . S
C637 H665 0.931 . S
C638 C637 1.347 . S
C638 C639 1.369 . S
C639 C638 1.369 . S
C639 C640 1.408 . S
C639 H666 0.930 . S
C640 C635 1.348 . S
C640 C639 1.408 . S
C640 H667 0.930 1_556 S
C641 O654 1.281 . S
C641 O655 1.254 . S
C642 O656 1.236 1_556 S
C642 O657 1.266 . S
C643 Tb633 2.809 . S
C643 C644 1.514 . S
C643 O658 1.248 . S
C643 O659 1.266 . S
C644 C643 1.514 . S
C644 C645 1.359 . S
C644 C649 1.348 . S
C645 C644 1.359 . S
C645 C646 1.380 . S
C645 H668 0.929 . S
C646 C645 1.380 . S
C646 C647 1.347 . S
C646 H669 0.931 . S
C647 C646 1.347 . S
C647 C648 1.369 . S
C648 C647 1.369 . S
C648 C649 1.408 . S
C648 H670 0.930 . S
C649 C644 1.348 . S
C649 C648 1.408 . S
C649 H671 0.930 . S
C650 O660 1.281 . S
C650 O661 1.254 . S
C651 O662 1.236 . S
C651 O663 1.266 . S
O652 Tb632 2.484 . S
O652 C634 1.248 . S
O653 Tb632 2.440 . S
O653 C634 1.266 . S
O654 Tb632 2.658 . S
O654 Tb633 2.325 . S
O654 C641 1.281 . S
O655 Tb632 2.409 . S
O655 C641 1.254 . S
O656 Tb632 2.378 . S
O656 C642 1.236 1_554 S
O657 Tb633 2.341 1_556 S
O657 C642 1.266 . S
O658 Tb633 2.484 . S
O658 C643 1.248 . S
O659 Tb633 2.440 . S
O659 C643 1.266 . S
O660 Tb632 2.325 . S
O660 Tb633 2.658 . S
O660 C650 1.281 . S
O661 Tb633 2.409 . S
O661 C650 1.254 . S
O662 Tb633 2.378 . S
O662 C651 1.236 . S
O663 Tb632 2.341 . S
O663 C651 1.266 . S
H664 C636 0.929 . S
H665 C637 0.931 . S
H666 C639 0.930 . S
H667 C640 0.930 1_554 S
H668 C645 0.929 . S
H669 C646 0.931 . S
H670 C648 0.930 . S
H671 C649 0.930 . S
Tb672 C674 2.809 . S
Tb672 O692 2.484 . S
Tb672 O693 2.440 . S
Tb672 O694 2.658 . S
Tb672 O695 2.409 . S
Tb672 O696 2.378 . S
Tb672 O700 2.325 . S
Tb672 O703 2.341 . S
Tb673 C683 2.809 . S
Tb673 O694 2.325 . S
Tb673 O697 2.341 . S
Tb673 O698 2.484 . S
Tb673 O699 2.440 . S
Tb673 O700 2.658 . S
Tb673 O701 2.409 . S
Tb673 O702 2.378 . S
C674 Tb672 2.809 . S
C674 C675 1.514 . S
C674 O692 1.248 . S
C674 O693 1.266 . S
C675 C674 1.514 . S
C675 C676 1.359 . S
C675 C680 1.348 . S
C676 C675 1.359 . S
C676 C677 1.380 . S
C676 H704 0.929 . S
C677 C676 1.380 . S
C677 C678 1.347 . S
C677 H705 0.931 . S
C678 C677 1.347 . S
C678 C679 1.369 . S
C679 C678 1.369 . S
C679 C680 1.408 . S
C679 H706 0.930 . S
C680 C675 1.348 . S
C680 C679 1.408 . S
C680 H707 0.930 . S
C681 O694 1.281 . S
C681 O695 1.254 . S
C682 O696 1.236 . S
C682 O697 1.266 . S
C683 Tb673 2.809 . S
C683 C684 1.514 . S
C683 O698 1.248 . S
C683 O699 1.266 . S
C684 C683 1.514 . S
C684 C685 1.359 . S
C684 C689 1.348 . S
C685 C684 1.359 . S
C685 C686 1.380 . S
C685 H708 0.929 . S
C686 C685 1.380 . S
C686 C687 1.347 . S
C686 H709 0.931 . S
C687 C686 1.347 . S
C687 C688 1.369 . S
C688 C687 1.369 . S
C688 C689 1.408 . S
C688 H710 0.930 . S
C689 C684 1.348 . S
C689 C688 1.408 . S
C689 H711 0.930 . S
C690 O700 1.281 . S
C690 O701 1.254 . S
C691 O702 1.236 . S
C691 O703 1.266 . S
O692 Tb672 2.484 . S
O692 C674 1.248 . S
O693 Tb672 2.440 . S
O693 C674 1.266 . S
O694 Tb672 2.658 . S
O694 Tb673 2.325 . S
O694 C681 1.281 . S
O695 Tb672 2.409 . S
O695 C681 1.254 . S
O696 Tb672 2.378 . S
O696 C682 1.236 . S
O697 Tb673 2.341 . S
O697 C682 1.266 . S
O698 Tb673 2.484 . S
O698 C683 1.248 . S
O699 Tb673 2.440 . S
O699 C683 1.266 . S
O700 Tb672 2.325 . S
O700 Tb673 2.658 . S
O700 C690 1.281 . S
O701 Tb673 2.409 . S
O701 C690 1.254 . S
O702 Tb673 2.378 . S
O702 C691 1.236 . S
O703 Tb672 2.341 . S
O703 C691 1.266 . S
H704 C676 0.929 . S
H705 C677 0.931 . S
H706 C679 0.930 . S
H707 C680 0.930 . S
H708 C685 0.929 . S
H709 C686 0.931 . S
H710 C688 0.930 . S
H711 C689 0.930 . S
Tb712 C714 2.809 . S
Tb712 O732 2.484 . S
Tb712 O733 2.440 . S
Tb712 O734 2.658 1_655 S
Tb712 O735 2.409 1_655 S
Tb712 O736 2.378 . S
Tb712 O740 2.325 1_655 S
Tb712 O743 2.341 1_655 S
Tb713 C723 2.809 . S
Tb713 O734 2.325 . S
Tb713 O737 2.341 . S
Tb713 O738 2.484 . S
Tb713 O739 2.440 . S
Tb713 O740 2.658 . S
Tb713 O741 2.409 . S
Tb713 O742 2.378 . S
C714 Tb712 2.809 . S
C714 C715 1.514 . S
C714 O732 1.248 . S
C714 O733 1.266 . S
C715 C714 1.514 . S
C715 C716 1.359 . S
C715 C720 1.348 . S
C716 C715 1.359 . S
C716 C717 1.380 . S
C716 H744 0.929 . S
C717 C716 1.380 . S
C717 C718 1.347 . S
C717 H745 0.931 . S
C718 C717 1.347 . S
C718 C719 1.369 . S
C719 C718 1.369 . S
C719 C720 1.408 . S
C719 H746 0.930 . S
C720 C715 1.348 . S
C720 C719 1.408 . S
C720 H747 0.930 . S
C721 O734 1.281 . S
C721 O735 1.254 . S
C722 O736 1.236 1_455 S
C722 O737 1.266 . S
C723 Tb713 2.809 . S
C723 C724 1.514 . S
C723 O738 1.248 . S
C723 O739 1.266 . S
C724 C723 1.514 . S
C724 C725 1.359 . S
C724 C729 1.348 . S
C725 C724 1.359 . S
C725 C726 1.380 . S
C725 H748 0.929 . S
C726 C725 1.380 . S
C726 C727 1.347 . S
C726 H749 0.931 . S
C727 C726 1.347 . S
C727 C728 1.369 . S
C728 C727 1.369 . S
C728 C729 1.408 . S
C728 H750 0.930 . S
C729 C724 1.348 . S
C729 C728 1.408 . S
C729 H751 0.930 . S
C730 O740 1.281 . S
C730 O741 1.254 . S
C731 O742 1.236 . S
C731 O743 1.266 . S
O732 Tb712 2.484 . S
O732 C714 1.248 . S
O733 Tb712 2.440 . S
O733 C714 1.266 . S
O734 Tb712 2.658 1_455 S
O734 Tb713 2.325 . S
O734 C721 1.281 . S
O735 Tb712 2.409 1_455 S
O735 C721 1.254 . S
O736 Tb712 2.378 . S
O736 C722 1.236 1_655 S
O737 Tb713 2.341 . S
O737 C722 1.266 . S
O738 Tb713 2.484 . S
O738 C723 1.248 . S
O739 Tb713 2.440 . S
O739 C723 1.266 . S
O740 Tb712 2.325 1_455 S
O740 Tb713 2.658 . S
O740 C730 1.281 . S
O741 Tb713 2.409 . S
O741 C730 1.254 . S
O742 Tb713 2.378 . S
O742 C731 1.236 . S
O743 Tb712 2.341 1_455 S
O743 C731 1.266 . S
H744 C716 0.929 . S
H745 C717 0.931 . S
H746 C719 0.930 . S
H747 C720 0.930 . S
H748 C725 0.929 . S
H749 C726 0.931 . S
H750 C728 0.930 . S
H751 C729 0.930 . S
Tb752 C754 2.809 . S
Tb752 O772 2.484 . S
Tb752 O773 2.440 . S
Tb752 O774 2.658 . S
Tb752 O775 2.409 . S
Tb752 O776 2.378 . S
Tb752 O780 2.325 . S
Tb752 O783 2.341 . S
Tb753 C763 2.809 . S
Tb753 O774 2.325 . S
Tb753 O777 2.341 . S
Tb753 O778 2.484 . S
Tb753 O779 2.440 . S
Tb753 O780 2.658 . S
Tb753 O781 2.409 . S
Tb753 O782 2.378 . S
C754 Tb752 2.809 . S
C754 C755 1.514 . S
C754 O772 1.248 . S
C754 O773 1.266 . S
C755 C754 1.514 . S
C755 C756 1.359 . S
C755 C760 1.348 . S
C756 C755 1.359 . S
C756 C757 1.380 . S
C756 H784 0.929 . S
C757 C756 1.380 . S
C757 C758 1.347 . S
C757 H785 0.931 . S
C758 C757 1.347 . S
C758 C759 1.369 . S
C759 C758 1.369 . S
C759 C760 1.408 . S
C759 H786 0.930 . S
C760 C755 1.348 . S
C760 C759 1.408 . S
C760 H787 0.930 . S
C761 O774 1.281 . S
C761 O775 1.254 . S
C762 O776 1.236 . S
C762 O777 1.266 . S
C763 Tb753 2.809 . S
C763 C764 1.514 . S
C763 O778 1.248 . S
C763 O779 1.266 . S
C764 C763 1.514 . S
C764 C765 1.359 . S
C764 C769 1.348 . S
C765 C764 1.359 . S
C765 C766 1.380 . S
C765 H788 0.929 . S
C766 C765 1.380 . S
C766 C767 1.347 . S
C766 H789 0.931 . S
C767 C766 1.347 . S
C767 C768 1.369 . S
C768 C767 1.369 . S
C768 C769 1.408 . S
C768 H790 0.930 . S
C769 C764 1.348 . S
C769 C768 1.408 . S
C769 H791 0.930 . S
C770 O780 1.281 . S
C770 O781 1.254 . S
C771 O782 1.236 . S
C771 O783 1.266 . S
O772 Tb752 2.484 . S
O772 C754 1.248 . S
O773 Tb752 2.440 . S
O773 C754 1.266 . S
O774 Tb752 2.658 . S
O774 Tb753 2.325 . S
O774 C761 1.281 . S
O775 Tb752 2.409 . S
O775 C761 1.254 . S
O776 Tb752 2.378 . S
O776 C762 1.236 . S
O777 Tb753 2.341 . S
O777 C762 1.266 . S
O778 Tb753 2.484 . S
O778 C763 1.248 . S
O779 Tb753 2.440 . S
O779 C763 1.266 . S
O780 Tb752 2.325 . S
O780 Tb753 2.658 . S
O780 C770 1.281 . S
O781 Tb753 2.409 . S
O781 C770 1.254 . S
O782 Tb753 2.378 . S
O782 C771 1.236 . S
O783 Tb752 2.341 . S
O783 C771 1.266 . S
H784 C756 0.929 . S
H785 C757 0.931 . S
H786 C759 0.930 . S
H787 C760 0.930 . S
H788 C765 0.929 . S
H789 C766 0.931 . S
H790 C768 0.930 . S
H791 C769 0.930 . S
Tb792 C794 2.809 . S
Tb792 O812 2.484 . S
Tb792 O813 2.440 . S
Tb792 O814 2.658 . S
Tb792 O815 2.409 . S
Tb792 O816 2.378 . S
Tb792 O820 2.325 . S
Tb792 O823 2.341 . S
Tb793 C803 2.809 . S
Tb793 O814 2.325 . S
Tb793 O817 2.341 . S
Tb793 O818 2.484 . S
Tb793 O819 2.440 . S
Tb793 O820 2.658 . S
Tb793 O821 2.409 . S
Tb793 O822 2.378 . S
C794 Tb792 2.809 . S
C794 C795 1.514 . S
C794 O812 1.248 . S
C794 O813 1.266 . S
C795 C794 1.514 . S
C795 C796 1.359 . S
C795 C800 1.348 . S
C796 C795 1.359 . S
C796 C797 1.380 . S
C796 H824 0.929 . S
C797 C796 1.380 . S
C797 C798 1.347 . S
C797 H825 0.931 . S
C798 C797 1.347 . S
C798 C799 1.369 . S
C799 C798 1.369 . S
C799 C800 1.408 . S
C799 H826 0.930 . S
C800 C795 1.348 . S
C800 C799 1.408 . S
C800 H827 0.930 . S
C801 O814 1.281 . S
C801 O815 1.254 . S
C802 O816 1.236 . S
C802 O817 1.266 . S
C803 Tb793 2.809 . S
C803 C804 1.514 . S
C803 O818 1.248 . S
C803 O819 1.266 . S
C804 C803 1.514 . S
C804 C805 1.359 . S
C804 C809 1.348 . S
C805 C804 1.359 . S
C805 C806 1.380 . S
C805 H828 0.929 . S
C806 C805 1.380 . S
C806 C807 1.347 . S
C806 H829 0.931 . S
C807 C806 1.347 . S
C807 C808 1.369 . S
C808 C807 1.369 . S
C808 C809 1.408 . S
C808 H830 0.930 . S
C809 C804 1.348 . S
C809 C808 1.408 . S
C809 H831 0.930 . S
C810 O820 1.281 . S
C810 O821 1.254 . S
C811 O822 1.236 . S
C811 O823 1.266 . S
O812 Tb792 2.484 . S
O812 C794 1.248 . S
O813 Tb792 2.440 . S
O813 C794 1.266 . S
O814 Tb792 2.658 . S
O814 Tb793 2.325 . S
O814 C801 1.281 . S
O815 Tb792 2.409 . S
O815 C801 1.254 . S
O816 Tb792 2.378 . S
O816 C802 1.236 . S
O817 Tb793 2.341 . S
O817 C802 1.266 . S
O818 Tb793 2.484 . S
O818 C803 1.248 . S
O819 Tb793 2.440 . S
O819 C803 1.266 . S
O820 Tb792 2.325 . S
O820 Tb793 2.658 . S
O820 C810 1.281 . S
O821 Tb793 2.409 . S
O821 C810 1.254 . S
O822 Tb793 2.378 . S
O822 C811 1.236 . S
O823 Tb792 2.341 . S
O823 C811 1.266 . S
H824 C796 0.929 . S
H825 C797 0.931 . S
H826 C799 0.930 . S
H827 C800 0.930 . S
H828 C805 0.929 . S
H829 C806 0.931 . S
H830 C808 0.930 . S
H831 C809 0.930 . S
Tb832 C834 2.809 . S
Tb832 O852 2.484 . S
Tb832 O853 2.440 . S
Tb832 O854 2.658 . S
Tb832 O855 2.409 . S
Tb832 O856 2.378 . S
Tb832 O860 2.325 . S
Tb832 O863 2.341 . S
Tb833 C843 2.809 . S
Tb833 O854 2.325 . S
Tb833 O857 2.341 . S
Tb833 O858 2.484 . S
Tb833 O859 2.440 . S
Tb833 O860 2.658 . S
Tb833 O861 2.409 . S
Tb833 O862 2.378 . S
C834 Tb832 2.809 . S
C834 C835 1.514 . S
C834 O852 1.248 . S
C834 O853 1.266 . S
C835 C834 1.514 . S
C835 C836 1.359 . S
C835 C840 1.348 . S
C836 C835 1.359 . S
C836 C837 1.380 . S
C836 H864 0.929 . S
C837 C836 1.380 . S
C837 C838 1.347 . S
C837 H865 0.931 . S
C838 C837 1.347 . S
C838 C839 1.369 . S
C839 C838 1.369 . S
C839 C840 1.408 . S
C839 H866 0.930 . S
C840 C835 1.348 . S
C840 C839 1.408 . S
C840 H867 0.930 . S
C841 O854 1.281 . S
C841 O855 1.254 . S
C842 O856 1.236 . S
C842 O857 1.266 . S
C843 Tb833 2.809 . S
C843 C844 1.514 . S
C843 O858 1.248 . S
C843 O859 1.266 . S
C844 C843 1.514 . S
C844 C845 1.359 . S
C844 C849 1.348 . S
C845 C844 1.359 . S
C845 C846 1.380 . S
C845 H868 0.929 . S
C846 C845 1.380 . S
C846 C847 1.347 . S
C846 H869 0.931 . S
C847 C846 1.347 . S
C847 C848 1.369 . S
C848 C847 1.369 . S
C848 C849 1.408 . S
C848 H870 0.930 . S
C849 C844 1.348 . S
C849 C848 1.408 . S
C849 H871 0.930 . S
C850 O860 1.281 . S
C850 O861 1.254 . S
C851 O862 1.236 . S
C851 O863 1.266 . S
O852 Tb832 2.484 . S
O852 C834 1.248 . S
O853 Tb832 2.440 . S
O853 C834 1.266 . S
O854 Tb832 2.658 . S
O854 Tb833 2.325 . S
O854 C841 1.281 . S
O855 Tb832 2.409 . S
O855 C841 1.254 . S
O856 Tb832 2.378 . S
O856 C842 1.236 . S
O857 Tb833 2.341 . S
O857 C842 1.266 . S
O858 Tb833 2.484 . S
O858 C843 1.248 . S
O859 Tb833 2.440 . S
O859 C843 1.266 . S
O860 Tb832 2.325 . S
O860 Tb833 2.658 . S
O860 C850 1.281 . S
O861 Tb833 2.409 . S
O861 C850 1.254 . S
O862 Tb833 2.378 . S
O862 C851 1.236 . S
O863 Tb832 2.341 . S
O863 C851 1.266 . S
H864 C836 0.929 . S
H865 C837 0.931 . S
H866 C839 0.930 . S
H867 C840 0.930 . S
H868 C845 0.929 . S
H869 C846 0.931 . S
H870 C848 0.930 . S
H871 C849 0.930 . S
Tb872 C874 2.809 . S
Tb872 O892 2.484 . S
Tb872 O893 2.440 . S
Tb872 O894 2.658 . S
Tb872 O895 2.409 . S
Tb872 O896 2.378 . S
Tb872 O900 2.325 . S
Tb872 O903 2.341 . S
Tb873 C883 2.809 . S
Tb873 O894 2.325 . S
Tb873 O897 2.341 . S
Tb873 O898 2.484 . S
Tb873 O899 2.440 . S
Tb873 O900 2.658 . S
Tb873 O901 2.409 . S
Tb873 O902 2.378 . S
C874 Tb872 2.809 . S
C874 C875 1.514 . S
C874 O892 1.248 . S
C874 O893 1.266 . S
C875 C874 1.514 . S
C875 C876 1.359 . S
C875 C880 1.348 . S
C876 C875 1.359 . S
C876 C877 1.380 . S
C876 H904 0.929 . S
C877 C876 1.380 . S
C877 C878 1.347 . S
C877 H905 0.931 . S
C878 C877 1.347 . S
C878 C879 1.369 . S
C879 C878 1.369 . S
C879 C880 1.408 . S
C879 H906 0.930 . S
C880 C875 1.348 . S
C880 C879 1.408 . S
C880 H907 0.930 . S
C881 O894 1.281 . S
C881 O895 1.254 . S
C882 O896 1.236 . S
C882 O897 1.266 . S
C883 Tb873 2.809 . S
C883 C884 1.514 . S
C883 O898 1.248 . S
C883 O899 1.266 . S
C884 C883 1.514 . S
C884 C885 1.359 . S
C884 C889 1.348 . S
C885 C884 1.359 . S
C885 C886 1.380 . S
C885 H908 0.929 . S
C886 C885 1.380 . S
C886 C887 1.347 . S
C886 H909 0.931 . S
C887 C886 1.347 . S
C887 C888 1.369 . S
C888 C887 1.369 . S
C888 C889 1.408 . S
C888 H910 0.930 . S
C889 C884 1.348 . S
C889 C888 1.408 . S
C889 H911 0.930 . S
C890 O900 1.281 . S
C890 O901 1.254 . S
C891 O902 1.236 . S
C891 O903 1.266 . S
O892 Tb872 2.484 . S
O892 C874 1.248 . S
O893 Tb872 2.440 . S
O893 C874 1.266 . S
O894 Tb872 2.658 . S
O894 Tb873 2.325 . S
O894 C881 1.281 . S
O895 Tb872 2.409 . S
O895 C881 1.254 . S
O896 Tb872 2.378 . S
O896 C882 1.236 . S
O897 Tb873 2.341 . S
O897 C882 1.266 . S
O898 Tb873 2.484 . S
O898 C883 1.248 . S
O899 Tb873 2.440 . S
O899 C883 1.266 . S
O900 Tb872 2.325 . S
O900 Tb873 2.658 . S
O900 C890 1.281 . S
O901 Tb873 2.409 . S
O901 C890 1.254 . S
O902 Tb873 2.378 . S
O902 C891 1.236 . S
O903 Tb872 2.341 . S
O903 C891 1.266 . S
H904 C876 0.929 . S
H905 C877 0.931 . S
H906 C879 0.930 . S
H907 C880 0.930 . S
H908 C885 0.929 . S
H909 C886 0.931 . S
H910 C888 0.930 . S
H911 C889 0.930 . S
Tb912 C914 2.809 . S
Tb912 O932 2.484 . S
Tb912 O933 2.440 . S
Tb912 O934 2.658 . S
Tb912 O935 2.409 . S
Tb912 O936 2.378 . S
Tb912 O940 2.325 . S
Tb912 O943 2.341 . S
Tb913 C923 2.809 1_455 S
Tb913 O934 2.325 . S
Tb913 O937 2.341 . S
Tb913 O938 2.484 1_455 S
Tb913 O939 2.440 1_455 S
Tb913 O940 2.658 . S
Tb913 O941 2.409 . S
Tb913 O942 2.378 . S
C914 Tb912 2.809 . S
C914 C915 1.514 . S
C914 O932 1.248 . S
C914 O933 1.266 . S
C915 C914 1.514 . S
C915 C916 1.359 . S
C915 C920 1.348 . S
C916 C915 1.359 . S
C916 C917 1.380 . S
C916 H944 0.929 . S
C917 C916 1.380 . S
C917 C918 1.347 . S
C917 H945 0.931 . S
C918 C917 1.347 . S
C918 C919 1.369 . S
C919 C918 1.369 . S
C919 C920 1.408 . S
C919 H946 0.930 1_554 S
C920 C915 1.348 . S
C920 C919 1.408 . S
C920 H947 0.930 1_554 S
C921 O934 1.281 . S
C921 O935 1.254 . S
C922 O936 1.236 . S
C922 O937 1.266 . S
C923 Tb913 2.809 1_655 S
C923 C924 1.514 . S
C923 O938 1.248 . S
C923 O939 1.266 . S
C924 C923 1.514 . S
C924 C925 1.359 . S
C924 C929 1.348 . S
C925 C924 1.359 . S
C925 C926 1.380 . S
C925 H948 0.929 . S
C926 C925 1.380 . S
C926 C927 1.347 . S
C926 H949 0.931 . S
C927 C926 1.347 . S
C927 C928 1.369 . S
C928 C927 1.369 . S
C928 C929 1.408 . S
C928 H950 0.930 . S
C929 C924 1.348 . S
C929 C928 1.408 . S
C929 H951 0.930 . S
C930 O940 1.281 . S
C930 O941 1.254 . S
C931 O942 1.236 . S
C931 O943 1.266 . S
O932 Tb912 2.484 . S
O932 C914 1.248 . S
O933 Tb912 2.440 . S
O933 C914 1.266 . S
O934 Tb912 2.658 . S
O934 Tb913 2.325 . S
O934 C921 1.281 . S
O935 Tb912 2.409 . S
O935 C921 1.254 . S
O936 Tb912 2.378 . S
O936 C922 1.236 . S
O937 Tb913 2.341 . S
O937 C922 1.266 . S
O938 Tb913 2.484 1_655 S
O938 C923 1.248 . S
O939 Tb913 2.440 1_655 S
O939 C923 1.266 . S
O940 Tb912 2.325 . S
O940 Tb913 2.658 . S
O940 C930 1.281 . S
O941 Tb913 2.409 . S
O941 C930 1.254 . S
O942 Tb913 2.378 . S
O942 C931 1.236 . S
O943 Tb912 2.341 . S
O943 C931 1.266 . S
H944 C916 0.929 . S
H945 C917 0.931 . S
H946 C919 0.930 1_556 S
H947 C920 0.930 1_556 S
H948 C925 0.929 . S
H949 C926 0.931 . S
H950 C928 0.930 . S
H951 C929 0.930 . S
H952 C958 0.930 . S
H953 C962 0.930 . S
H954 C967 0.929 . S
H955 C965 0.929 . S
H956 C960 0.929 . S
H957 C966 0.929 . S
C958 H952 0.930 . S
C958 C959 1.367 . S
C958 C966 1.378 . S
C959 C958 1.367 . S
C959 C967 1.433 1_556 S
C960 H956 0.929 . S
C960 C962 1.378 . S
C960 C964 1.350 . S
C961 C964 1.463 . S
C961 C966 1.350 1_554 S
C961 N969 1.427 . S
C962 H953 0.930 . S
C962 C960 1.378 . S
C962 C963 1.367 . S
C963 C962 1.367 . S
C963 C965 1.433 . S
C964 C960 1.350 . S
C964 C961 1.463 . S
C964 N968 1.427 . S
C965 H955 0.929 . S
C965 C963 1.433 . S
C965 N968 1.384 . S
C966 H957 0.929 . S
C966 C958 1.378 . S
C966 C961 1.350 1_556 S
C967 H954 0.929 . S
C967 C959 1.433 1_554 S
C967 N969 1.384 . S
N968 C964 1.427 . S
N968 C965 1.384 . S
N969 C961 1.427 . S
N969 C967 1.384 . S
H970 C976 0.930 . S
H971 C980 0.930 . S
H972 C985 0.929 . S
H973 C983 0.929 . S
H974 C978 0.929 . S
H975 C984 0.929 . S
C976 H970 0.930 . S
C976 C977 1.367 . S
C976 C984 1.378 . S
C977 C976 1.367 . S
C977 C985 1.433 . S
C978 H974 0.929 . S
C978 C980 1.378 . S
C978 C982 1.350 . S
C979 C982 1.463 . S
C979 C984 1.350 . S
C979 N987 1.427 . S
C980 H971 0.930 . S
C980 C978 1.378 . S
C980 C981 1.367 . S
C981 C980 1.367 . S
C981 C983 1.433 . S
C982 C978 1.350 . S
C982 C979 1.463 . S
C982 N986 1.427 . S
C983 H973 0.929 . S
C983 C981 1.433 . S
C983 N986 1.384 . S
C984 H975 0.929 . S
C984 C976 1.378 . S
C984 C979 1.350 . S
C985 H972 0.929 . S
C985 C977 1.433 . S
C985 N987 1.384 . S
N986 C982 1.427 . S
N986 C983 1.384 . S
N987 C979 1.427 . S
N987 C985 1.384 . S
H988 C994 0.930 . S
H989 C998 0.930 . S
H990 C1003 0.929 . S
H991 C1001 0.929 . S
H992 C996 0.929 . S
H993 C1002 0.929 . S
C994 H988 0.930 . S
C994 C995 1.367 . S
C994 C1002 1.378 . S
C995 C994 1.367 . S
C995 C1003 1.433 . S
C996 H992 0.929 . S
C996 C998 1.378 . S
C996 C1000 1.350 . S
C997 C1000 1.463 . S
C997 C1002 1.350 . S
C997 N1005 1.427 . S
C998 H989 0.930 . S
C998 C996 1.378 . S
C998 C999 1.367 . S
C999 C998 1.367 . S
C999 C1001 1.433 . S
C1000 C996 1.350 . S
C1000 C997 1.463 . S
C1000 N1004 1.427 . S
C1001 H991 0.929 . S
C1001 C999 1.433 . S
C1001 N1004 1.384 . S
C1002 H993 0.929 . S
C1002 C994 1.378 . S
C1002 C997 1.350 . S
C1003 H990 0.929 . S
C1003 C995 1.433 . S
C1003 N1005 1.384 . S
N1004 C1000 1.427 . S
N1004 C1001 1.384 . S
N1005 C997 1.427 . S
N1005 C1003 1.384 . S
H1006 C1012 0.930 . S
H1007 C1016 0.930 . S
H1008 C1021 0.929 . S
H1009 C1019 0.929 . S
H1010 C1014 0.929 . S
H1011 C1020 0.929 . S
C1012 H1006 0.930 . S
C1012 C1013 1.367 . S
C1012 C1020 1.378 . S
C1013 C1012 1.367 . S
C1013 C1021 1.433 . S
C1014 H1010 0.929 . S
C1014 C1016 1.378 . S
C1014 C1018 1.350 . S
C1015 C1018 1.463 . S
C1015 C1020 1.350 . S
C1015 N1023 1.427 . S
C1016 H1007 0.930 . S
C1016 C1014 1.378 . S
C1016 C1017 1.367 . S
C1017 C1016 1.367 . S
C1017 C1019 1.433 . S
C1018 C1014 1.350 . S
C1018 C1015 1.463 . S
C1018 N1022 1.427 . S
C1019 H1009 0.929 . S
C1019 C1017 1.433 . S
C1019 N1022 1.384 . S
C1020 H1011 0.929 . S
C1020 C1012 1.378 . S
C1020 C1015 1.350 . S
C1021 H1008 0.929 . S
C1021 C1013 1.433 . S
C1021 N1023 1.384 . S
N1022 C1018 1.427 . S
N1022 C1019 1.384 . S
N1023 C1015 1.427 . S
N1023 C1021 1.384 . S
H1024 C1030 0.930 . S
H1025 C1034 0.930 . S
H1026 C1039 0.929 . S
H1027 C1037 0.929 . S
H1028 C1032 0.929 . S
H1029 C1038 0.929 . S
C1030 H1024 0.930 . S
C1030 C1031 1.367 . S
C1030 C1038 1.378 . S
C1031 C1030 1.367 . S
C1031 C1039 1.433 . S
C1032 H1028 0.929 . S
C1032 C1034 1.378 . S
C1032 C1036 1.350 . S
C1033 C1036 1.463 . S
C1033 C1038 1.350 . S
C1033 N1041 1.427 . S
C1034 H1025 0.930 . S
C1034 C1032 1.378 . S
C1034 C1035 1.367 . S
C1035 C1034 1.367 . S
C1035 C1037 1.433 . S
C1036 C1032 1.350 . S
C1036 C1033 1.463 . S
C1036 N1040 1.427 . S
C1037 H1027 0.929 . S
C1037 C1035 1.433 . S
C1037 N1040 1.384 . S
C1038 H1029 0.929 . S
C1038 C1030 1.378 . S
C1038 C1033 1.350 . S
C1039 H1026 0.929 . S
C1039 C1031 1.433 . S
C1039 N1041 1.384 . S
N1040 C1036 1.427 . S
N1040 C1037 1.384 . S
N1041 C1033 1.427 . S
N1041 C1039 1.384 . S
H1042 C1048 0.930 . S
H1043 C1052 0.930 . S
H1044 C1057 0.929 . S
H1045 C1055 0.929 . S
H1046 C1050 0.929 . S
H1047 C1056 0.929 . S
C1048 H1042 0.930 . S
C1048 C1049 1.367 . S
C1048 C1056 1.378 . S
C1049 C1048 1.367 . S
C1049 C1057 1.433 . S
C1050 H1046 0.929 . S
C1050 C1052 1.378 . S
C1050 C1054 1.350 . S
C1051 C1054 1.463 . S
C1051 C1056 1.350 . S
C1051 N1059 1.427 . S
C1052 H1043 0.930 . S
C1052 C1050 1.378 . S
C1052 C1053 1.367 . S
C1053 C1052 1.367 . S
C1053 C1055 1.433 . S
C1054 C1050 1.350 . S
C1054 C1051 1.463 . S
C1054 N1058 1.427 . S
C1055 H1045 0.929 . S
C1055 C1053 1.433 . S
C1055 N1058 1.384 . S
C1056 H1047 0.929 . S
C1056 C1048 1.378 . S
C1056 C1051 1.350 . S
C1057 H1044 0.929 . S
C1057 C1049 1.433 . S
C1057 N1059 1.384 . S
N1058 C1054 1.427 . S
N1058 C1055 1.384 . S
N1059 C1051 1.427 . S
N1059 C1057 1.384 . S
H1060 C1066 0.930 . S
H1061 C1070 0.930 . S
H1062 C1075 0.929 . S
H1063 C1073 0.929 . S
H1064 C1068 0.929 . S
H1065 C1074 0.929 . S
C1066 H1060 0.930 . S
C1066 C1067 1.367 . S
C1066 C1074 1.378 . S
C1067 C1066 1.367 . S
C1067 C1075 1.433 . S
C1068 H1064 0.929 . S
C1068 C1070 1.378 . S
C1068 C1072 1.350 . S
C1069 C1072 1.463 . S
C1069 C1074 1.350 . S
C1069 N1077 1.427 . S
C1070 H1061 0.930 . S
C1070 C1068 1.378 . S
C1070 C1071 1.367 . S
C1071 C1070 1.367 . S
C1071 C1073 1.433 . S
C1072 C1068 1.350 . S
C1072 C1069 1.463 . S
C1072 N1076 1.427 . S
C1073 H1063 0.929 . S
C1073 C1071 1.433 . S
C1073 N1076 1.384 . S
C1074 H1065 0.929 . S
C1074 C1066 1.378 . S
C1074 C1069 1.350 . S
C1075 H1062 0.929 . S
C1075 C1067 1.433 . S
C1075 N1077 1.384 . S
N1076 C1072 1.427 . S
N1076 C1073 1.384 . S
N1077 C1069 1.427 . S
N1077 C1075 1.384 . S
H1078 C1084 0.930 . S
H1079 C1088 0.930 . S
H1080 C1093 0.929 . S
H1081 C1091 0.929 . S
H1082 C1086 0.929 . S
H1083 C1092 0.929 . S
C1084 H1078 0.930 . S
C1084 C1085 1.367 . S
C1084 C1092 1.378 . S
C1085 C1084 1.367 . S
C1085 C1093 1.433 . S
C1086 H1082 0.929 . S
C1086 C1088 1.378 . S
C1086 C1090 1.350 . S
C1087 C1090 1.463 . S
C1087 C1092 1.350 . S
C1087 N1095 1.427 . S
C1088 H1079 0.930 . S
C1088 C1086 1.378 . S
C1088 C1089 1.367 . S
C1089 C1088 1.367 . S
C1089 C1091 1.433 . S
C1090 C1086 1.350 . S
C1090 C1087 1.463 . S
C1090 N1094 1.427 . S
C1091 H1081 0.929 . S
C1091 C1089 1.433 . S
C1091 N1094 1.384 . S
C1092 H1083 0.929 . S
C1092 C1084 1.378 . S
C1092 C1087 1.350 . S
C1093 H1080 0.929 . S
C1093 C1085 1.433 . S
C1093 N1095 1.384 . S
N1094 C1090 1.427 . S
N1094 C1091 1.384 . S
N1095 C1087 1.427 . S
N1095 C1093 1.384 . S
H1096 C1102 0.930 . S
H1097 C1106 0.930 . S
H1098 C1111 0.921 1_565 S
H1099 C1109 0.929 . S
H1100 C1104 0.901 1_655 S
H1101 C1110 0.929 . S
C1102 H1096 0.930 . S
C1102 C1103 1.367 . S
C1102 C1110 1.378 1_655 S
C1103 C1102 1.367 . S
C1103 C1111 1.438 . S
C1104 H1100 0.901 1_455 S
C1104 C1106 1.403 . S
C1104 C1108 1.354 . S
C1105 C1108 1.463 1_655 S
C1105 C1110 1.350 1_655 S
C1105 N1113 1.427 . S
C1106 H1097 0.930 . S
C1106 C1104 1.403 . S
C1106 C1107 1.367 . S
C1107 C1106 1.367 . S
C1107 C1109 1.433 . S
C1108 C1104 1.354 . S
C1108 C1105 1.463 1_455 S
C1108 N1112 1.427 . S
C1109 H1099 0.929 . S
C1109 C1107 1.433 . S
C1109 N1112 1.384 . S
C1110 H1101 0.929 . S
C1110 C1102 1.378 1_455 S
C1110 C1105 1.350 1_455 S
C1111 H1098 0.921 1_545 S
C1111 C1103 1.438 . S
C1111 N1113 1.387 . S
N1112 C1108 1.427 . S
N1112 C1109 1.384 . S
N1113 C1105 1.427 . S
N1113 C1111 1.387 . S
H1114 C1120 0.930 . S
H1115 C1124 0.930 . S
H1116 C1129 0.929 . S
H1117 C1127 0.929 . S
H1118 C1122 0.929 . S
H1119 C1128 0.929 . S
C1120 H1114 0.930 . S
C1120 C1121 1.367 . S
C1120 C1128 1.378 . S
C1121 C1120 1.367 . S
C1121 C1129 1.433 . S
C1122 H1118 0.929 . S
C1122 C1124 1.378 . S
C1122 C1126 1.350 . S
C1123 C1126 1.463 . S
C1123 C1128 1.350 . S
C1123 N1131 1.427 . S
C1124 H1115 0.930 . S
C1124 C1122 1.378 . S
C1124 C1125 1.367 . S
C1125 C1124 1.367 . S
C1125 C1127 1.433 . S
C1126 C1122 1.350 . S
C1126 C1123 1.463 . S
C1126 N1130 1.427 . S
C1127 H1117 0.929 . S
C1127 C1125 1.433 . S
C1127 N1130 1.384 . S
C1128 H1119 0.929 . S
C1128 C1120 1.378 . S
C1128 C1123 1.350 . S
C1129 H1116 0.929 . S
C1129 C1121 1.433 . S
C1129 N1131 1.384 . S
N1130 C1126 1.427 . S
N1130 C1127 1.384 . S
N1131 C1123 1.427 . S
N1131 C1129 1.384 . S
H1132 C1138 0.930 . S
H1133 C1142 0.930 . S
H1134 C1147 0.929 . S
H1135 C1145 0.929 . S
H1136 C1140 0.929 . S
H1137 C1146 0.929 . S
C1138 H1132 0.930 . S
C1138 C1139 1.367 1_565 S
C1138 C1146 1.378 . S
C1139 C1138 1.367 1_545 S
C1139 C1147 1.433 . S
C1140 H1136 0.929 . S
C1140 C1142 1.378 . S
C1140 C1144 1.350 . S
C1141 C1144 1.463 . S
C1141 C1146 1.350 1_545 S
C1141 N1149 1.427 . S
C1142 H1133 0.930 . S
C1142 C1140 1.378 . S
C1142 C1143 1.367 . S
C1143 C1142 1.367 . S
C1143 C1145 1.433 1_545 S
C1144 C1140 1.350 . S
C1144 C1141 1.463 . S
C1144 N1148 1.427 1_545 S
C1145 H1135 0.929 . S
C1145 C1143 1.433 1_565 S
C1145 N1148 1.384 . S
C1146 H1137 0.929 . S
C1146 C1138 1.378 . S
C1146 C1141 1.350 1_565 S
C1147 H1134 0.929 . S
C1147 C1139 1.433 . S
C1147 N1149 1.384 . S
N1148 C1144 1.427 1_565 S
N1148 C1145 1.384 . S
N1149 C1141 1.427 . S
N1149 C1147 1.384 . S
H1150 C1156 0.930 . S
H1151 C1160 0.930 . S
H1152 C1165 0.929 . S
H1153 C1163 0.929 . S
H1154 C1158 0.929 . S
H1155 C1164 0.929 . S
C1156 H1150 0.930 . S
C1156 C1157 1.367 . S
C1156 C1164 1.378 . S
C1157 C1156 1.367 . S
C1157 C1165 1.433 . S
C1158 H1154 0.929 . S
C1158 C1160 1.378 . S
C1158 C1162 1.350 . S
C1159 C1162 1.463 . S
C1159 C1164 1.350 . S
C1159 N1167 1.427 . S
C1160 H1151 0.930 . S
C1160 C1158 1.378 . S
C1160 C1161 1.367 . S
C1161 C1160 1.367 . S
C1161 C1163 1.433 . S
C1162 C1158 1.350 . S
C1162 C1159 1.463 . S
C1162 N1166 1.427 . S
C1163 H1153 0.929 . S
C1163 C1161 1.433 . S
C1163 N1166 1.384 . S
C1164 H1155 0.929 . S
C1164 C1156 1.378 . S
C1164 C1159 1.350 . S
C1165 H1152 0.929 . S
C1165 C1157 1.433 . S
C1165 N1167 1.384 . S
N1166 C1162 1.427 . S
N1166 C1163 1.384 . S
N1167 C1159 1.427 . S
N1167 C1165 1.384 . S
H1168 C1174 0.930 . S
H1169 C1178 0.930 . S
H1170 C1183 0.929 . S
H1171 C1181 0.929 . S
H1172 C1176 0.929 1_655 S
H1173 C1182 0.929 . S
C1174 H1168 0.930 . S
C1174 C1175 1.367 1_565 S
C1174 C1182 1.378 . S
C1175 C1174 1.367 1_545 S
C1175 C1183 1.433 . S
C1176 H1172 0.929 1_455 S
C1176 C1178 1.378 . S
C1176 C1180 1.350 . S
C1177 C1180 1.463 1_655 S
C1177 C1182 1.350 1_545 S
C1177 N1185 1.427 . S
C1178 H1169 0.930 . S
C1178 C1176 1.378 . S
C1178 C1179 1.367 . S
C1179 C1178 1.367 . S
C1179 C1181 1.433 1_545 S
C1180 C1176 1.350 . S
C1180 C1177 1.463 1_455 S
C1180 N1184 1.427 1_545 S
C1181 H1171 0.929 . S
C1181 C1179 1.433 1_565 S
C1181 N1184 1.384 . S
C1182 H1173 0.929 . S
C1182 C1174 1.378 . S
C1182 C1177 1.350 1_565 S
C1183 H1170 0.929 . S
C1183 C1175 1.433 . S
C1183 N1185 1.384 . S
N1184 C1180 1.427 1_565 S
N1184 C1181 1.384 . S
N1185 C1177 1.427 . S
N1185 C1183 1.384 . S
H1186 C1192 0.930 . S
H1187 C1196 0.930 . S
H1188 C1201 0.929 . S
H1189 C1199 0.929 . S
H1190 C1194 0.929 . S
H1191 C1200 0.929 . S
C1192 H1186 0.930 . S
C1192 C1193 1.367 . S
C1192 C1200 1.378 . S
C1193 C1192 1.367 . S
C1193 C1201 1.433 . S
C1194 H1190 0.929 . S
C1194 C1196 1.378 . S
C1194 C1198 1.350 . S
C1195 C1198 1.463 . S
C1195 C1200 1.350 . S
C1195 N1203 1.427 . S
C1196 H1187 0.930 . S
C1196 C1194 1.378 . S
C1196 C1197 1.367 . S
C1197 C1196 1.367 . S
C1197 C1199 1.433 . S
C1198 C1194 1.350 . S
C1198 C1195 1.463 . S
C1198 N1202 1.427 . S
C1199 H1189 0.929 . S
C1199 C1197 1.433 . S
C1199 N1202 1.384 . S
C1200 H1191 0.929 . S
C1200 C1192 1.378 . S
C1200 C1195 1.350 . S
C1201 H1188 0.929 . S
C1201 C1193 1.433 . S
C1201 N1203 1.384 . S
N1202 C1198 1.427 . S
N1202 C1199 1.384 . S
N1203 C1195 1.427 . S
N1203 C1201 1.384 . S
H1204 C1210 0.890 1_565 S
H1205 C1214 0.930 . S
H1206 C1219 0.929 . S
H1207 C1217 0.929 . S
H1208 C1212 0.929 . S
H1209 C1218 0.929 . S
C1210 H1204 0.890 1_545 S
C1210 C1211 1.367 . S
C1210 C1218 1.378 . S
C1211 C1210 1.367 . S
C1211 C1219 1.433 . S
C1212 H1208 0.929 . S
C1212 C1214 1.378 . S
C1212 C1216 1.350 . S
C1213 C1216 1.463 . S
C1213 C1218 1.350 . S
C1213 N1221 1.427 . S
C1214 H1205 0.930 . S
C1214 C1212 1.378 . S
C1214 C1215 1.367 . S
C1215 C1214 1.367 . S
C1215 C1217 1.433 . S
C1216 C1212 1.350 . S
C1216 C1213 1.463 . S
C1216 N1220 1.427 . S
C1217 H1207 0.929 . S
C1217 C1215 1.433 . S
C1217 N1220 1.384 . S
C1218 H1209 0.929 . S
C1218 C1210 1.378 . S
C1218 C1213 1.350 . S
C1219 H1206 0.929 . S
C1219 C1211 1.433 . S
C1219 N1221 1.384 . S
N1220 C1216 1.427 . S
N1220 C1217 1.384 . S
N1221 C1213 1.427 . S
N1221 C1219 1.384 . S
H1222 C1228 0.930 . S
H1223 C1232 0.930 . S
H1224 C1237 0.929 . S
H1225 C1235 0.929 . S
H1226 C1230 0.929 . S
H1227 C1236 0.929 . S
C1228 H1222 0.930 . S
C1228 C1229 1.367 . S
C1228 C1236 1.378 . S
C1229 C1228 1.367 . S
C1229 C1237 1.433 . S
C1230 H1226 0.929 . S
C1230 C1232 1.378 . S
C1230 C1234 1.350 . S
C1231 C1234 1.463 . S
C1231 C1236 1.350 . S
C1231 N1239 1.427 . S
C1232 H1223 0.930 . S
C1232 C1230 1.378 . S
C1232 C1233 1.367 . S
C1233 C1232 1.367 . S
C1233 C1235 1.433 . S
C1234 C1230 1.350 . S
C1234 C1231 1.463 . S
C1234 N1238 1.427 . S
C1235 H1225 0.929 . S
C1235 C1233 1.433 . S
C1235 N1238 1.384 . S
C1236 H1227 0.929 . S
C1236 C1228 1.378 . S
C1236 C1231 1.350 . S
C1237 H1224 0.929 . S
C1237 C1229 1.433 . S
C1237 N1239 1.384 . S
N1238 C1234 1.427 . S
N1238 C1235 1.384 . S
N1239 C1231 1.427 . S
N1239 C1237 1.384 . S
H1240 C1246 0.930 . S
H1241 C1250 0.930 . S
H1242 C1255 0.929 1_556 S
H1243 C1253 0.929 . S
H1244 C1248 0.929 . S
H1245 C1254 0.929 . S
C1246 H1240 0.930 . S
C1246 C1247 1.367 . S
C1246 C1254 1.378 . S
C1247 C1246 1.367 . S
C1247 C1255 1.433 . S
C1248 H1244 0.929 . S
C1248 C1250 1.378 . S
C1248 C1252 1.350 . S
C1249 C1252 1.463 . S
C1249 C1254 1.350 . S
C1249 N1257 1.427 . S
C1250 H1241 0.930 . S
C1250 C1248 1.378 . S
C1250 C1251 1.367 . S
C1251 C1250 1.367 . S
C1251 C1253 1.433 . S
C1252 C1248 1.350 . S
C1252 C1249 1.463 . S
C1252 N1256 1.427 . S
C1253 H1243 0.929 . S
C1253 C1251 1.433 . S
C1253 N1256 1.384 . S
C1254 H1245 0.929 . S
C1254 C1246 1.378 . S
C1254 C1249 1.350 . S
C1255 H1242 0.929 1_554 S
C1255 C1247 1.433 . S
C1255 N1257 1.384 . S
N1256 C1252 1.427 . S
N1256 C1253 1.384 . S
N1257 C1249 1.427 . S
N1257 C1255 1.384 . S
H1258 C1264 0.930 . S
H1259 C1268 0.930 . S
H1260 C1273 0.929 . S
H1261 C1271 0.929 . S
H1262 C1266 0.929 . S
H1263 C1272 0.929 . S
C1264 H1258 0.930 . S
C1264 C1265 1.367 . S
C1264 C1272 1.378 . S
C1265 C1264 1.367 . S
C1265 C1273 1.433 . S
C1266 H1262 0.929 . S
C1266 C1268 1.378 . S
C1266 C1270 1.350 . S
C1267 C1270 1.463 . S
C1267 C1272 1.350 . S
C1267 N1275 1.427 . S
C1268 H1259 0.930 . S
C1268 C1266 1.378 . S
C1268 C1269 1.367 . S
C1269 C1268 1.367 . S
C1269 C1271 1.433 . S
C1270 C1266 1.350 . S
C1270 C1267 1.463 . S
C1270 N1274 1.427 . S
C1271 H1261 0.929 . S
C1271 C1269 1.433 . S
C1271 N1274 1.384 . S
C1272 H1263 0.929 . S
C1272 C1264 1.378 . S
C1272 C1267 1.350 . S
C1273 H1260 0.929 . S
C1273 C1265 1.433 . S
C1273 N1275 1.384 . S
N1274 C1270 1.427 . S
N1274 C1271 1.384 . S
N1275 C1267 1.427 . S
N1275 C1273 1.384 . S
H1276 C1282 0.930 . S
H1277 C1286 0.930 . S
H1278 C1291 0.929 . S
H1279 C1289 0.929 . S
H1280 C1284 0.929 . S
H1281 C1290 0.929 . S
C1282 H1276 0.930 . S
C1282 C1283 1.367 . S
C1282 C1290 1.378 . S
C1283 C1282 1.367 . S
C1283 C1291 1.433 . S
C1284 H1280 0.929 . S
C1284 C1286 1.378 . S
C1284 C1288 1.350 . S
C1285 C1288 1.463 . S
C1285 C1290 1.350 . S
C1285 N1293 1.427 . S
C1286 H1277 0.930 . S
C1286 C1284 1.378 . S
C1286 C1287 1.367 . S
C1287 C1286 1.367 . S
C1287 C1289 1.433 . S
C1288 C1284 1.350 . S
C1288 C1285 1.463 . S
C1288 N1292 1.427 . S
C1289 H1279 0.929 . S
C1289 C1287 1.433 . S
C1289 N1292 1.384 . S
C1290 H1281 0.929 . S
C1290 C1282 1.378 . S
C1290 C1285 1.350 . S
C1291 H1278 0.929 . S
C1291 C1283 1.433 . S
C1291 N1293 1.384 . S
N1292 C1288 1.427 . S
N1292 C1289 1.384 . S
N1293 C1285 1.427 . S
N1293 C1291 1.384 . S
H1294 C1300 0.930 . S
H1295 C1304 0.930 . S
H1296 C1309 0.929 . S
H1297 C1307 0.929 . S
H1298 C1302 0.929 . S
H1299 C1308 0.929 . S
C1300 H1294 0.930 . S
C1300 C1301 1.367 . S
C1300 C1308 1.378 . S
C1301 C1300 1.367 . S
C1301 C1309 1.433 . S
C1302 H1298 0.929 . S
C1302 C1304 1.378 . S
C1302 C1306 1.350 . S
C1303 C1306 1.463 . S
C1303 C1308 1.350 . S
C1303 N1311 1.427 . S
C1304 H1295 0.930 . S
C1304 C1302 1.378 . S
C1304 C1305 1.367 . S
C1305 C1304 1.367 . S
C1305 C1307 1.433 . S
C1306 C1302 1.350 . S
C1306 C1303 1.463 . S
C1306 N1310 1.427 . S
C1307 H1297 0.929 . S
C1307 C1305 1.433 . S
C1307 N1310 1.384 . S
C1308 H1299 0.929 . S
C1308 C1300 1.378 . S
C1308 C1303 1.350 . S
C1309 H1296 0.929 . S
C1309 C1301 1.433 . S
C1309 N1311 1.384 . S
N1310 C1306 1.427 . S
N1310 C1307 1.384 . S
N1311 C1303 1.427 . S
N1311 C1309 1.384 . S
H1312 C1318 0.930 . S
H1313 C1322 0.930 . S
H1314 C1327 0.929 . S
H1315 C1325 0.929 . S
H1316 C1320 0.929 . S
H1317 C1326 0.929 . S
C1318 H1312 0.930 . S
C1318 C1319 1.367 . S
C1318 C1326 1.378 . S
C1319 C1318 1.367 . S
C1319 C1327 1.433 . S
C1320 H1316 0.929 . S
C1320 C1322 1.378 . S
C1320 C1324 1.350 . S
C1321 C1324 1.463 . S
C1321 C1326 1.350 . S
C1321 N1329 1.427 . S
C1322 H1313 0.930 . S
C1322 C1320 1.378 . S
C1322 C1323 1.367 . S
C1323 C1322 1.367 . S
C1323 C1325 1.433 . S
C1324 C1320 1.350 . S
C1324 C1321 1.463 . S
C1324 N1328 1.427 . S
C1325 H1315 0.929 . S
C1325 C1323 1.433 . S
C1325 N1328 1.384 . S
C1326 H1317 0.929 . S
C1326 C1318 1.378 . S
C1326 C1321 1.350 . S
C1327 H1314 0.929 . S
C1327 C1319 1.433 . S
C1327 N1329 1.384 . S
N1328 C1324 1.427 . S
N1328 C1325 1.384 . S
N1329 C1321 1.427 . S
N1329 C1327 1.384 . S
H1330 C1336 0.930 . S
H1331 C1340 0.930 . S
H1332 C1345 0.929 . S
H1333 C1343 0.929 . S
H1334 C1338 0.929 . S
H1335 C1344 0.929 . S
C1336 H1330 0.930 . S
C1336 C1337 1.367 . S
C1336 C1344 1.378 . S
C1337 C1336 1.367 . S
C1337 C1345 1.433 . S
C1338 H1334 0.929 . S
C1338 C1340 1.378 . S
C1338 C1342 1.350 . S
C1339 C1342 1.463 . S
C1339 C1344 1.350 . S
C1339 N1347 1.427 . S
C1340 H1331 0.930 . S
C1340 C1338 1.378 . S
C1340 C1341 1.367 . S
C1341 C1340 1.367 . S
C1341 C1343 1.433 . S
C1342 C1338 1.350 . S
C1342 C1339 1.463 . S
C1342 N1346 1.427 . S
C1343 H1333 0.929 . S
C1343 C1341 1.433 . S
C1343 N1346 1.384 . S
C1344 H1335 0.929 . S
C1344 C1336 1.378 . S
C1344 C1339 1.350 . S
C1345 H1332 0.929 . S
C1345 C1337 1.433 . S
C1345 N1347 1.384 . S
N1346 C1342 1.427 . S
N1346 C1343 1.384 . S
N1347 C1339 1.427 . S
N1347 C1345 1.384 . S
H1348 C1354 0.930 . S
H1349 C1358 0.930 . S
H1350 C1363 0.929 . S
H1351 C1361 0.929 . S
H1352 C1356 0.929 . S
H1353 C1362 0.929 . S
C1354 H1348 0.930 . S
C1354 C1355 1.367 . S
C1354 C1362 1.378 . S
C1355 C1354 1.367 . S
C1355 C1363 1.433 . S
C1356 H1352 0.929 . S
C1356 C1358 1.378 . S
C1356 C1360 1.350 . S
C1357 C1360 1.463 . S
C1357 C1362 1.350 . S
C1357 N1365 1.427 . S
C1358 H1349 0.930 . S
C1358 C1356 1.378 . S
C1358 C1359 1.367 . S
C1359 C1358 1.367 . S
C1359 C1361 1.433 . S
C1360 C1356 1.350 . S
C1360 C1357 1.463 . S
C1360 N1364 1.427 . S
C1361 H1351 0.929 . S
C1361 C1359 1.433 . S
C1361 N1364 1.384 . S
C1362 H1353 0.929 . S
C1362 C1354 1.378 . S
C1362 C1357 1.350 . S
C1363 H1350 0.929 . S
C1363 C1355 1.433 . S
C1363 N1365 1.384 . S
N1364 C1360 1.427 . S
N1364 C1361 1.384 . S
N1365 C1357 1.427 . S
N1365 C1363 1.384 . S
H1366 C1372 0.930 . S
H1367 C1376 0.930 . S
H1368 C1381 0.929 . S
H1369 C1379 0.929 . S
H1370 C1374 0.929 . S
H1371 C1380 0.929 . S
C1372 H1366 0.930 . S
C1372 C1373 1.367 . S
C1372 C1380 1.378 . S
C1373 C1372 1.367 . S
C1373 C1381 1.433 . S
C1374 H1370 0.929 . S
C1374 C1376 1.378 . S
C1374 C1378 1.350 . S
C1375 C1378 1.463 . S
C1375 C1380 1.350 . S
C1375 N1383 1.427 . S
C1376 H1367 0.930 . S
C1376 C1374 1.378 . S
C1376 C1377 1.367 . S
C1377 C1376 1.367 . S
C1377 C1379 1.433 . S
C1378 C1374 1.350 . S
C1378 C1375 1.463 . S
C1378 N1382 1.427 . S
C1379 H1369 0.929 . S
C1379 C1377 1.433 . S
C1379 N1382 1.384 . S
C1380 H1371 0.929 . S
C1380 C1372 1.378 . S
C1380 C1375 1.350 . S
C1381 H1368 0.929 . S
C1381 C1373 1.433 . S
C1381 N1383 1.384 . S
N1382 C1378 1.427 . S
N1382 C1379 1.384 . S
N1383 C1375 1.427 . S
N1383 C1381 1.384 . S
H1384 C1390 0.930 . S
H1385 C1394 0.930 . S
H1386 C1399 0.929 . S
H1387 C1397 0.929 . S
H1388 C1392 0.929 . S
H1389 C1398 0.929 . S
C1390 H1384 0.930 . S
C1390 C1391 1.367 . S
C1390 C1398 1.378 . S
C1391 C1390 1.367 . S
C1391 C1399 1.433 . S
C1392 H1388 0.929 . S
C1392 C1394 1.378 . S
C1392 C1396 1.350 . S
C1393 C1396 1.463 . S
C1393 C1398 1.350 . S
C1393 N1401 1.427 . S
C1394 H1385 0.930 . S
C1394 C1392 1.378 . S
C1394 C1395 1.367 . S
C1395 C1394 1.367 . S
C1395 C1397 1.433 . S
C1396 C1392 1.350 . S
C1396 C1393 1.463 . S
C1396 N1400 1.427 . S
C1397 H1387 0.929 . S
C1397 C1395 1.433 . S
C1397 N1400 1.384 . S
C1398 H1389 0.929 . S
C1398 C1390 1.378 . S
C1398 C1393 1.350 . S
C1399 H1386 0.929 . S
C1399 C1391 1.433 . S
C1399 N1401 1.384 . S
N1400 C1396 1.427 . S
N1400 C1397 1.384 . S
N1401 C1393 1.427 . S
N1401 C1399 1.384 . S
H1402 C1408 0.930 . S
H1403 C1412 0.930 . S
H1404 C1417 0.929 . S
H1405 C1415 0.929 . S
H1406 C1410 0.929 . S
H1407 C1416 0.929 . S
C1408 H1402 0.930 . S
C1408 C1409 1.367 . S
C1408 C1416 1.378 . S
C1409 C1408 1.367 . S
C1409 C1417 1.433 . S
C1410 H1406 0.929 . S
C1410 C1412 1.378 . S
C1410 C1414 1.350 . S
C1411 C1414 1.463 . S
C1411 C1416 1.350 . S
C1411 N1419 1.427 . S
C1412 H1403 0.930 . S
C1412 C1410 1.378 . S
C1412 C1413 1.367 . S
C1413 C1412 1.367 . S
C1413 C1415 1.433 . S
C1414 C1410 1.350 . S
C1414 C1411 1.463 . S
C1414 N1418 1.427 . S
C1415 H1405 0.929 . S
C1415 C1413 1.433 . S
C1415 N1418 1.384 . S
C1416 H1407 0.929 . S
C1416 C1408 1.378 . S
C1416 C1411 1.350 . S
C1417 H1404 0.929 . S
C1417 C1409 1.433 . S
C1417 N1419 1.384 . S
N1418 C1414 1.427 . S
N1418 C1415 1.384 . S
N1419 C1411 1.427 . S
N1419 C1417 1.384 . S
H1420 C1426 0.930 . S
H1421 C1430 0.930 . S
H1422 C1435 0.929 . S
H1423 C1433 0.929 . S
H1424 C1428 0.929 . S
H1425 C1434 0.929 . S
C1426 H1420 0.930 . S
C1426 C1427 1.367 . S
C1426 C1434 1.378 . S
C1427 C1426 1.367 . S
C1427 C1435 1.433 . S
C1428 H1424 0.929 . S
C1428 C1430 1.378 . S
C1428 C1432 1.350 . S
C1429 C1432 1.463 . S
C1429 C1434 1.350 . S
C1429 N1437 1.427 . S
C1430 H1421 0.930 . S
C1430 C1428 1.378 . S
C1430 C1431 1.367 . S
C1431 C1430 1.367 . S
C1431 C1433 1.433 . S
C1432 C1428 1.350 . S
C1432 C1429 1.463 . S
C1432 N1436 1.427 . S
C1433 H1423 0.929 . S
C1433 C1431 1.433 . S
C1433 N1436 1.384 . S
C1434 H1425 0.929 . S
C1434 C1426 1.378 . S
C1434 C1429 1.350 . S
C1435 H1422 0.929 . S
C1435 C1427 1.433 . S
C1435 N1437 1.384 . S
N1436 C1432 1.427 . S
N1436 C1433 1.384 . S
N1437 C1429 1.427 . S
N1437 C1435 1.384 . S
H1438 C1444 0.930 . S
H1439 C1448 0.930 . S
H1440 C1453 0.929 . S
H1441 C1451 0.929 . S
H1442 C1446 0.929 . S
H1443 C1452 0.929 . S
C1444 H1438 0.930 . S
C1444 C1445 1.367 . S
C1444 C1452 1.378 . S
C1445 C1444 1.367 . S
C1445 C1453 1.433 . S
C1446 H1442 0.929 . S
C1446 C1448 1.378 . S
C1446 C1450 1.350 . S
C1447 C1450 1.463 . S
C1447 C1452 1.350 . S
C1447 N1455 1.427 . S
C1448 H1439 0.930 . S
C1448 C1446 1.378 . S
C1448 C1449 1.367 . S
C1449 C1448 1.367 . S
C1449 C1451 1.433 . S
C1450 C1446 1.350 . S
C1450 C1447 1.463 . S
C1450 N1454 1.427 . S
C1451 H1441 0.929 . S
C1451 C1449 1.433 . S
C1451 N1454 1.384 . S
C1452 H1443 0.929 . S
C1452 C1444 1.378 . S
C1452 C1447 1.350 . S
C1453 H1440 0.929 . S
C1453 C1445 1.433 . S
C1453 N1455 1.384 . S
N1454 C1450 1.427 . S
N1454 C1451 1.384 . S
N1455 C1447 1.427 . S
N1455 C1453 1.384 . S
H1456 C1462 0.930 . S
H1457 C1466 0.930 . S
H1458 C1471 0.929 . S
H1459 C1469 0.929 . S
H1460 C1464 0.929 . S
H1461 C1470 0.929 . S
C1462 H1456 0.930 . S
C1462 C1463 1.367 1_655 S
C1462 C1470 1.378 . S
C1463 C1462 1.367 1_455 S
C1463 C1471 1.433 . S
C1464 H1460 0.929 . S
C1464 C1466 1.378 . S
C1464 C1468 1.350 . S
C1465 C1468 1.463 . S
C1465 C1470 1.350 1_455 S
C1465 N1473 1.427 . S
C1466 H1457 0.930 . S
C1466 C1464 1.378 . S
C1466 C1467 1.367 . S
C1467 C1466 1.367 . S
C1467 C1469 1.433 1_455 S
C1468 C1464 1.350 . S
C1468 C1465 1.463 . S
C1468 N1472 1.427 1_455 S
C1469 H1459 0.929 . S
C1469 C1467 1.433 1_655 S
C1469 N1472 1.384 . S
C1470 H1461 0.929 . S
C1470 C1462 1.378 . S
C1470 C1465 1.350 1_655 S
C1471 H1458 0.929 . S
C1471 C1463 1.433 . S
C1471 N1473 1.384 . S
N1472 C1468 1.427 1_655 S
N1472 C1469 1.384 . S
N1473 C1465 1.427 . S
N1473 C1471 1.384 . S
H1474 C1480 0.930 . S
H1475 C1484 0.930 . S
H1476 C1489 0.929 . S
H1477 C1487 0.929 . S
H1478 C1482 0.929 . S
H1479 C1488 0.929 . S
C1480 H1474 0.930 . S
C1480 C1481 1.367 . S
C1480 C1488 1.378 . S
C1481 C1480 1.367 . S
C1481 C1489 1.433 . S
C1482 H1478 0.929 . S
C1482 C1484 1.378 . S
C1482 C1486 1.350 . S
C1483 C1486 1.463 . S
C1483 C1488 1.350 . S
C1483 N1491 1.427 . S
C1484 H1475 0.930 . S
C1484 C1482 1.378 . S
C1484 C1485 1.367 . S
C1485 C1484 1.367 . S
C1485 C1487 1.433 . S
C1486 C1482 1.350 . S
C1486 C1483 1.463 . S
C1486 N1490 1.427 . S
C1487 H1477 0.929 . S
C1487 C1485 1.433 . S
C1487 N1490 1.384 . S
C1488 H1479 0.929 . S
C1488 C1480 1.378 . S
C1488 C1483 1.350 . S
C1489 H1476 0.929 . S
C1489 C1481 1.433 . S
C1489 N1491 1.384 . S
N1490 C1486 1.427 . S
N1490 C1487 1.384 . S
N1491 C1483 1.427 . S
N1491 C1489 1.384 . S
H1492 C1498 0.930 . S
H1493 C1502 0.930 . S
H1494 C1507 0.929 . S
H1495 C1505 0.929 . S
H1496 C1500 0.929 . S
H1497 C1506 0.929 . S
C1498 H1492 0.930 . S
C1498 C1499 1.367 . S
C1498 C1506 1.378 . S
C1499 C1498 1.367 . S
C1499 C1507 1.433 . S
C1500 H1496 0.929 . S
C1500 C1502 1.378 . S
C1500 C1504 1.350 . S
C1501 C1504 1.463 . S
C1501 C1506 1.350 . S
C1501 N1509 1.427 . S
C1502 H1493 0.930 . S
C1502 C1500 1.378 . S
C1502 C1503 1.367 . S
C1503 C1502 1.367 . S
C1503 C1505 1.433 1_556 S
C1504 C1500 1.350 . S
C1504 C1501 1.463 . S
C1504 N1508 1.427 . S
C1505 H1495 0.929 . S
C1505 C1503 1.433 1_554 S
C1505 N1508 1.384 1_554 S
C1506 H1497 0.929 . S
C1506 C1498 1.378 . S
C1506 C1501 1.350 . S
C1507 H1494 0.929 . S
C1507 C1499 1.433 . S
C1507 N1509 1.384 . S
N1508 C1504 1.427 . S
N1508 C1505 1.384 1_556 S
N1509 C1501 1.427 . S
N1509 C1507 1.384 . S
H1510 C1516 0.930 . S
H1511 C1520 0.930 . S
H1512 C1525 0.929 . S
H1513 C1523 0.929 . S
H1514 C1518 0.929 . S
H1515 C1524 0.929 . S
C1516 H1510 0.930 . S
C1516 C1517 1.367 1_655 S
C1516 C1524 1.378 . S
C1517 C1516 1.367 1_455 S
C1517 C1525 1.433 . S
C1518 H1514 0.929 . S
C1518 C1520 1.378 . S
C1518 C1522 1.350 . S
C1519 C1522 1.463 . S
C1519 C1524 1.350 . S
C1519 N1527 1.427 . S
C1520 H1511 0.930 . S
C1520 C1518 1.378 . S
C1520 C1521 1.367 . S
C1521 C1520 1.367 . S
C1521 C1523 1.433 . S
C1522 C1518 1.350 . S
C1522 C1519 1.463 . S
C1522 N1526 1.427 . S
C1523 H1513 0.929 . S
C1523 C1521 1.433 . S
C1523 N1526 1.384 . S
C1524 H1515 0.929 . S
C1524 C1516 1.378 . S
C1524 C1519 1.350 . S
C1525 H1512 0.929 . S
C1525 C1517 1.433 . S
C1525 N1527 1.384 1_455 S
N1526 C1522 1.427 . S
N1526 C1523 1.384 . S
N1527 C1519 1.427 . S
N1527 C1525 1.384 1_655 S
H1528 C1534 0.930 . S
H1529 C1538 0.930 1_554 S
H1530 C1543 0.929 . S
H1531 C1541 0.929 . S
H1532 C1536 0.929 . S
H1533 C1542 0.929 . S
C1534 H1528 0.930 . S
C1534 C1535 1.367 . S
C1534 C1542 1.378 . S
C1535 C1534 1.367 . S
C1535 C1543 1.433 . S
C1536 H1532 0.929 . S
C1536 C1538 1.378 . S
C1536 C1540 1.350 . S
C1537 C1540 1.463 . S
C1537 C1542 1.350 . S
C1537 N1545 1.427 . S
C1538 H1529 0.930 1_556 S
C1538 C1536 1.378 . S
C1538 C1539 1.367 . S
C1539 C1538 1.367 . S
C1539 C1541 1.433 . S
C1540 C1536 1.350 . S
C1540 C1537 1.463 . S
C1540 N1544 1.427 . S
C1541 H1531 0.929 . S
C1541 C1539 1.433 . S
C1541 N1544 1.384 . S
C1542 H1533 0.929 . S
C1542 C1534 1.378 . S
C1542 C1537 1.350 . S
C1543 H1530 0.929 . S
C1543 C1535 1.433 . S
C1543 N1545 1.384 . S
N1544 C1540 1.427 . S
N1544 C1541 1.384 . S
N1545 C1537 1.427 . S
N1545 C1543 1.384 . S
H1546 C1552 0.930 . S
H1547 C1556 0.930 . S
H1548 C1561 0.929 . S
H1549 C1559 0.929 . S
H1550 C1554 0.929 . S
H1551 C1560 0.929 . S
C1552 H1546 0.930 . S
C1552 C1553 1.367 . S
C1552 C1560 1.378 . S
C1553 C1552 1.367 . S
C1553 C1561 1.433 . S
C1554 H1550 0.929 . S
C1554 C1556 1.378 . S
C1554 C1558 1.350 . S
C1555 C1558 1.463 . S
C1555 C1560 1.350 . S
C1555 N1563 1.427 . S
C1556 H1547 0.930 . S
C1556 C1554 1.378 . S
C1556 C1557 1.367 . S
C1557 C1556 1.367 . S
C1557 C1559 1.433 . S
C1558 C1554 1.350 . S
C1558 C1555 1.463 . S
C1558 N1562 1.427 . S
C1559 H1549 0.929 . S
C1559 C1557 1.433 . S
C1559 N1562 1.384 . S
C1560 H1551 0.929 . S
C1560 C1552 1.378 . S
C1560 C1555 1.350 . S
C1561 H1548 0.929 . S
C1561 C1553 1.433 . S
C1561 N1563 1.384 . S
N1562 C1558 1.427 . S
N1562 C1559 1.384 . S
N1563 C1555 1.427 . S
N1563 C1561 1.384 . S
H1564 C1570 0.930 1_565 S
H1565 C1574 0.930 . S
H1566 C1579 0.929 . S
H1567 C1577 0.977 . S
H1568 C1572 0.929 . S
H1569 C1578 0.929 1_565 S
C1570 H1564 0.930 1_545 S
C1570 C1571 1.367 . S
C1570 C1578 1.378 . S
C1571 C1570 1.367 . S
C1571 C1579 1.433 . S
C1572 H1568 0.929 . S
C1572 C1574 1.378 . S
C1572 C1576 1.350 . S
C1573 C1576 1.463 . S
C1573 C1578 1.350 . S
C1573 N1581 1.427 . S
C1574 H1565 0.930 . S
C1574 C1572 1.378 . S
C1574 C1575 1.367 . S
C1575 C1574 1.367 . S
C1575 C1577 1.399 1_545 S
C1576 C1572 1.350 . S
C1576 C1573 1.463 . S
C1576 N1580 1.452 . S
C1577 H1567 0.977 . S
C1577 C1575 1.399 1_565 S
C1577 N1580 1.363 1_565 S
C1578 H1569 0.929 1_545 S
C1578 C1570 1.378 . S
C1578 C1573 1.350 . S
C1579 H1566 0.929 . S
C1579 C1571 1.433 . S
C1579 N1581 1.384 . S
N1580 C1576 1.452 . S
N1580 C1577 1.363 1_545 S
N1581 C1573 1.427 . S
N1581 C1579 1.384 . S
H1582 C1588 0.930 . S
H1583 C1592 0.930 . S
H1584 C1597 0.929 . S
H1585 C1595 0.929 . S
H1586 C1590 0.929 . S
H1587 C1596 0.929 . S
C1588 H1582 0.930 . S
C1588 C1589 1.367 . S
C1588 C1596 1.378 . S
C1589 C1588 1.367 . S
C1589 C1597 1.433 . S
C1590 H1586 0.929 . S
C1590 C1592 1.378 . S
C1590 C1594 1.350 . S
C1591 C1594 1.463 . S
C1591 C1596 1.350 . S
C1591 N1599 1.427 . S
C1592 H1583 0.930 . S
C1592 C1590 1.378 . S
C1592 C1593 1.367 . S
C1593 C1592 1.367 . S
C1593 C1595 1.433 . S
C1594 C1590 1.350 . S
C1594 C1591 1.463 . S
C1594 N1598 1.427 . S
C1595 H1585 0.929 . S
C1595 C1593 1.433 . S
C1595 N1598 1.384 . S
C1596 H1587 0.929 . S
C1596 C1588 1.378 . S
C1596 C1591 1.350 . S
C1597 H1584 0.929 . S
C1597 C1589 1.433 . S
C1597 N1599 1.384 . S
N1598 C1594 1.427 . S
N1598 C1595 1.384 . S
N1599 C1591 1.427 . S
N1599 C1597 1.384 . S
H1600 C1606 0.906 1_565 S
H1601 C1610 0.930 . S
H1602 C1615 0.929 . S
H1603 C1613 0.929 1_565 S
H1604 C1608 0.929 . S
H1605 C1614 0.929 1_565 S
C1606 H1600 0.906 1_545 S
C1606 C1607 1.367 . S
C1606 C1614 1.378 . S
C1607 C1606 1.367 . S
C1607 C1615 1.433 . S
C1608 H1604 0.929 . S
C1608 C1610 1.378 . S
C1608 C1612 1.350 . S
C1609 C1612 1.463 . S
C1609 C1614 1.350 . S
C1609 N1617 1.427 . S
C1610 H1601 0.930 . S
C1610 C1608 1.378 . S
C1610 C1611 1.367 . S
C1611 C1610 1.367 . S
C1611 C1613 1.433 . S
C1612 C1608 1.350 . S
C1612 C1609 1.463 . S
C1612 N1616 1.427 . S
C1613 H1603 0.929 1_545 S
C1613 C1611 1.433 . S
C1613 N1616 1.384 . S
C1614 H1605 0.929 1_545 S
C1614 C1606 1.378 . S
C1614 C1609 1.350 . S
C1615 H1602 0.929 . S
C1615 C1607 1.433 . S
C1615 N1617 1.384 . S
N1616 C1612 1.427 . S
N1616 C1613 1.384 . S
N1617 C1609 1.427 . S
N1617 C1615 1.384 . S
H1618 C1624 0.930 . S
H1619 C1628 0.930 . S
H1620 C1633 0.929 . S
H1621 C1631 0.929 . S
H1622 C1626 0.929 . S
H1623 C1632 0.929 . S
C1624 H1618 0.930 . S
C1624 C1625 1.367 . S
C1624 C1632 1.378 . S
C1625 C1624 1.367 . S
C1625 C1633 1.433 . S
C1626 H1622 0.929 . S
C1626 C1628 1.378 . S
C1626 C1630 1.350 . S
C1627 C1630 1.463 . S
C1627 C1632 1.350 . S
C1627 N1635 1.427 . S
C1628 H1619 0.930 . S
C1628 C1626 1.378 . S
C1628 C1629 1.367 . S
C1629 C1628 1.367 . S
C1629 C1631 1.433 . S
C1630 C1626 1.350 . S
C1630 C1627 1.463 . S
C1630 N1634 1.427 . S
C1631 H1621 0.929 . S
C1631 C1629 1.433 . S
C1631 N1634 1.384 . S
C1632 H1623 0.929 . S
C1632 C1624 1.378 . S
C1632 C1627 1.350 . S
C1633 H1620 0.929 . S
C1633 C1625 1.433 . S
C1633 N1635 1.384 . S
N1634 C1630 1.427 . S
N1634 C1631 1.384 . S
N1635 C1627 1.427 . S
N1635 C1633 1.384 . S
H1636 C1642 0.930 1_565 S
H1637 C1646 0.930 . S
H1638 C1651 0.929 . S
H1639 C1649 0.929 . S
H1640 C1644 0.929 . S
H1641 C1650 0.929 1_565 S
C1642 H1636 0.930 1_545 S
C1642 C1643 1.367 . S
C1642 C1650 1.378 . S
C1643 C1642 1.367 . S
C1643 C1651 1.433 . S
C1644 H1640 0.929 . S
C1644 C1646 1.378 . S
C1644 C1648 1.350 . S
C1645 C1648 1.463 . S
C1645 C1650 1.350 . S
C1645 N1653 1.427 . S
C1646 H1637 0.930 . S
C1646 C1644 1.378 . S
C1646 C1647 1.367 . S
C1647 C1646 1.367 . S
C1647 C1649 1.433 1_545 S
C1648 C1644 1.350 . S
C1648 C1645 1.463 . S
C1648 N1652 1.409 1_545 S
C1649 H1639 0.929 . S
C1649 C1647 1.433 1_565 S
C1649 N1652 1.385 . S
C1650 H1641 0.929 1_545 S
C1650 C1642 1.378 . S
C1650 C1645 1.350 . S
C1651 H1638 0.929 . S
C1651 C1643 1.433 . S
C1651 N1653 1.384 . S
N1652 C1648 1.409 1_565 S
N1652 C1649 1.385 . S
N1653 C1645 1.427 . S
N1653 C1651 1.384 . S
H1654 C1660 0.930 . S
H1655 C1664 0.930 . S
H1656 C1669 0.929 . S
H1657 C1667 0.929 . S
H1658 C1662 0.929 . S
H1659 C1668 0.929 . S
C1660 H1654 0.930 . S
C1660 C1661 1.367 . S
C1660 C1668 1.378 . S
C1661 C1660 1.367 . S
C1661 C1669 1.433 . S
C1662 H1658 0.929 . S
C1662 C1664 1.378 . S
C1662 C1666 1.350 . S
C1663 C1666 1.463 . S
C1663 C1668 1.350 . S
C1663 N1671 1.427 . S
C1664 H1655 0.930 . S
C1664 C1662 1.378 . S
C1664 C1665 1.367 . S
C1665 C1664 1.367 . S
C1665 C1667 1.433 . S
C1666 C1662 1.350 . S
C1666 C1663 1.463 . S
C1666 N1670 1.427 . S
C1667 H1657 0.929 . S
C1667 C1665 1.433 . S
C1667 N1670 1.384 . S
C1668 H1659 0.929 . S
C1668 C1660 1.378 . S
C1668 C1663 1.350 . S
C1669 H1656 0.929 . S
C1669 C1661 1.433 . S
C1669 N1671 1.384 . S
N1670 C1666 1.427 . S
N1670 C1667 1.384 . S
N1671 C1663 1.427 . S
N1671 C1669 1.384 . S
H1672 C1678 0.930 . S
H1673 C1682 0.930 . S
H1674 C1687 0.929 . S
H1675 C1685 0.929 . S
H1676 C1680 0.929 . S
H1677 C1686 0.929 . S
C1678 H1672 0.930 . S
C1678 C1679 1.367 . S
C1678 C1686 1.378 . S
C1679 C1678 1.367 . S
C1679 C1687 1.433 . S
C1680 H1676 0.929 . S
C1680 C1682 1.378 . S
C1680 C1684 1.350 . S
C1681 C1684 1.463 . S
C1681 C1686 1.350 . S
C1681 N1689 1.427 . S
C1682 H1673 0.930 . S
C1682 C1680 1.378 . S
C1682 C1683 1.367 . S
C1683 C1682 1.367 . S
C1683 C1685 1.433 . S
C1684 C1680 1.350 . S
C1684 C1681 1.463 . S
C1684 N1688 1.427 . S
C1685 H1675 0.929 . S
C1685 C1683 1.433 . S
C1685 N1688 1.384 . S
C1686 H1677 0.929 . S
C1686 C1678 1.378 . S
C1686 C1681 1.350 . S
C1687 H1674 0.929 . S
C1687 C1679 1.433 . S
C1687 N1689 1.384 . S
N1688 C1684 1.427 . S
N1688 C1685 1.384 . S
N1689 C1681 1.427 . S
N1689 C1687 1.384 . S
H1690 C1696 0.930 . S
H1691 C1700 0.930 . S
H1692 C1705 0.929 . S
H1693 C1703 0.929 . S
H1694 C1698 0.929 . S
H1695 C1704 0.929 . S
C1696 H1690 0.930 . S
C1696 C1697 1.367 . S
C1696 C1704 1.378 . S
C1697 C1696 1.367 . S
C1697 C1705 1.433 . S
C1698 H1694 0.929 . S
C1698 C1700 1.378 . S
C1698 C1702 1.350 . S
C1699 C1702 1.463 . S
C1699 C1704 1.350 . S
C1699 N1707 1.427 . S
C1700 H1691 0.930 . S
C1700 C1698 1.378 . S
C1700 C1701 1.367 . S
C1701 C1700 1.367 . S
C1701 C1703 1.433 . S
C1702 C1698 1.350 . S
C1702 C1699 1.463 . S
C1702 N1706 1.427 . S
C1703 H1693 0.929 . S
C1703 C1701 1.433 . S
C1703 N1706 1.384 . S
C1704 H1695 0.929 . S
C1704 C1696 1.378 . S
C1704 C1699 1.350 . S
C1705 H1692 0.929 . S
C1705 C1697 1.433 . S
C1705 N1707 1.384 . S
N1706 C1702 1.427 . S
N1706 C1703 1.384 . S
N1707 C1699 1.427 . S
N1707 C1705 1.384 . S
H1708 C1714 0.930 . S
H1709 C1718 0.930 . S
H1710 C1723 0.929 . S
H1711 C1721 0.929 . S
H1712 C1716 0.929 . S
H1713 C1722 0.929 . S
C1714 H1708 0.930 . S
C1714 C1715 1.367 . S
C1714 C1722 1.378 . S
C1715 C1714 1.367 . S
C1715 C1723 1.433 . S
C1716 H1712 0.929 . S
C1716 C1718 1.378 . S
C1716 C1720 1.350 . S
C1717 C1720 1.463 . S
C1717 C1722 1.350 . S
C1717 N1725 1.427 . S
C1718 H1709 0.930 . S
C1718 C1716 1.378 . S
C1718 C1719 1.367 . S
C1719 C1718 1.367 . S
C1719 C1721 1.433 . S
C1720 C1716 1.350 . S
C1720 C1717 1.463 . S
C1720 N1724 1.427 . S
C1721 H1711 0.929 . S
C1721 C1719 1.433 . S
C1721 N1724 1.384 . S
C1722 H1713 0.929 . S
C1722 C1714 1.378 . S
C1722 C1717 1.350 . S
C1723 H1710 0.929 . S
C1723 C1715 1.433 . S
C1723 N1725 1.384 . S
N1724 C1720 1.427 . S
N1724 C1721 1.384 . S
N1725 C1717 1.427 . S
N1725 C1723 1.384 . S
H1726 C1732 0.930 . S
H1727 C1736 0.930 . S
H1728 C1741 0.929 . S
H1729 C1739 0.929 . S
H1730 C1734 0.929 . S
H1731 C1740 0.929 . S
C1732 H1726 0.930 . S
C1732 C1733 1.367 . S
C1732 C1740 1.378 . S
C1733 C1732 1.367 . S
C1733 C1741 1.433 . S
C1734 H1730 0.929 . S
C1734 C1736 1.378 . S
C1734 C1738 1.350 . S
C1735 C1738 1.463 . S
C1735 C1740 1.350 . S
C1735 N1743 1.427 . S
C1736 H1727 0.930 . S
C1736 C1734 1.378 . S
C1736 C1737 1.367 . S
C1737 C1736 1.367 . S
C1737 C1739 1.433 . S
C1738 C1734 1.350 . S
C1738 C1735 1.463 . S
C1738 N1742 1.427 . S
C1739 H1729 0.929 . S
C1739 C1737 1.433 . S
C1739 N1742 1.384 . S
C1740 H1731 0.929 . S
C1740 C1732 1.378 . S
C1740 C1735 1.350 . S
C1741 H1728 0.929 . S
C1741 C1733 1.433 . S
C1741 N1743 1.384 . S
N1742 C1738 1.427 . S
N1742 C1739 1.384 . S
N1743 C1735 1.427 . S
N1743 C1741 1.384 . S
H1744 C1750 0.930 . S
H1745 C1754 0.930 . S
H1746 C1759 0.929 . S
H1747 C1757 0.929 . S
H1748 C1752 0.929 . S
H1749 C1758 0.929 . S
C1750 H1744 0.930 . S
C1750 C1751 1.367 . S
C1750 C1758 1.378 . S
C1751 C1750 1.367 . S
C1751 C1759 1.433 . S
C1752 H1748 0.929 . S
C1752 C1754 1.378 . S
C1752 C1756 1.350 . S
C1753 C1756 1.463 . S
C1753 C1758 1.350 . S
C1753 N1761 1.427 . S
C1754 H1745 0.930 . S
C1754 C1752 1.378 . S
C1754 C1755 1.367 . S
C1755 C1754 1.367 . S
C1755 C1757 1.433 . S
C1756 C1752 1.350 . S
C1756 C1753 1.463 . S
C1756 N1760 1.427 . S
C1757 H1747 0.929 . S
C1757 C1755 1.433 . S
C1757 N1760 1.384 . S
C1758 H1749 0.929 . S
C1758 C1750 1.378 . S
C1758 C1753 1.350 . S
C1759 H1746 0.929 . S
C1759 C1751 1.433 . S
C1759 N1761 1.384 . S
N1760 C1756 1.427 . S
N1760 C1757 1.384 . S
N1761 C1753 1.427 . S
N1761 C1759 1.384 . S
H1762 C1768 0.930 . S
H1763 C1772 0.930 . S
H1764 C1777 0.929 . S
H1765 C1775 0.929 . S
H1766 C1770 0.929 . S
H1767 C1776 0.929 . S
C1768 H1762 0.930 . S
C1768 C1769 1.367 . S
C1768 C1776 1.378 . S
C1769 C1768 1.367 . S
C1769 C1777 1.433 . S
C1770 H1766 0.929 . S
C1770 C1772 1.378 . S
C1770 C1774 1.350 . S
C1771 C1774 1.463 . S
C1771 C1776 1.350 . S
C1771 N1779 1.427 . S
C1772 H1763 0.930 . S
C1772 C1770 1.378 . S
C1772 C1773 1.367 . S
C1773 C1772 1.367 . S
C1773 C1775 1.433 . S
C1774 C1770 1.350 . S
C1774 C1771 1.463 . S
C1774 N1778 1.427 . S
C1775 H1765 0.929 . S
C1775 C1773 1.433 . S
C1775 N1778 1.384 . S
C1776 H1767 0.929 . S
C1776 C1768 1.378 . S
C1776 C1771 1.350 . S
C1777 H1764 0.929 . S
C1777 C1769 1.433 . S
C1777 N1779 1.384 . S
N1778 C1774 1.427 . S
N1778 C1775 1.384 . S
N1779 C1771 1.427 . S
N1779 C1777 1.384 . S
H1780 C1786 0.930 . S
H1781 C1790 0.930 . S
H1782 C1795 0.929 . S
H1783 C1793 0.929 . S
H1784 C1788 0.929 . S
H1785 C1794 0.929 . S
C1786 H1780 0.930 . S
C1786 C1787 1.367 . S
C1786 C1794 1.378 . S
C1787 C1786 1.367 . S
C1787 C1795 1.433 . S
C1788 H1784 0.929 . S
C1788 C1790 1.378 . S
C1788 C1792 1.350 . S
C1789 C1792 1.463 . S
C1789 C1794 1.350 . S
C1789 N1797 1.427 . S
C1790 H1781 0.930 . S
C1790 C1788 1.378 . S
C1790 C1791 1.367 . S
C1791 C1790 1.367 . S
C1791 C1793 1.433 . S
C1792 C1788 1.350 . S
C1792 C1789 1.463 . S
C1792 N1796 1.427 . S
C1793 H1783 0.929 . S
C1793 C1791 1.433 . S
C1793 N1796 1.384 . S
C1794 H1785 0.929 . S
C1794 C1786 1.378 . S
C1794 C1789 1.350 . S
C1795 H1782 0.929 . S
C1795 C1787 1.433 . S
C1795 N1797 1.384 . S
N1796 C1792 1.427 . S
N1796 C1793 1.384 . S
N1797 C1789 1.427 . S
N1797 C1795 1.384 . S
H1798 C1804 0.930 . S
H1799 C1808 0.930 . S
H1800 C1813 0.929 . S
H1801 C1811 0.929 . S
H1802 C1806 0.929 . S
H1803 C1812 0.929 . S
C1804 H1798 0.930 . S
C1804 C1805 1.367 . S
C1804 C1812 1.378 . S
C1805 C1804 1.367 . S
C1805 C1813 1.433 . S
C1806 H1802 0.929 . S
C1806 C1808 1.378 . S
C1806 C1810 1.350 . S
C1807 C1810 1.463 . S
C1807 C1812 1.350 . S
C1807 N1815 1.427 . S
C1808 H1799 0.930 . S
C1808 C1806 1.378 . S
C1808 C1809 1.367 . S
C1809 C1808 1.367 . S
C1809 C1811 1.433 . S
C1810 C1806 1.350 . S
C1810 C1807 1.463 . S
C1810 N1814 1.427 . S
C1811 H1801 0.929 . S
C1811 C1809 1.433 . S
C1811 N1814 1.384 . S
C1812 H1803 0.929 . S
C1812 C1804 1.378 . S
C1812 C1807 1.350 . S
C1813 H1800 0.929 . S
C1813 C1805 1.433 . S
C1813 N1815 1.384 . S
N1814 C1810 1.427 . S
N1814 C1811 1.384 . S
N1815 C1807 1.427 . S
N1815 C1813 1.384 . S
H1816 C1822 0.930 . S
H1817 C1826 0.930 . S
H1818 C1831 0.929 . S
H1819 C1829 0.929 . S
H1820 C1824 0.929 . S
H1821 C1830 0.929 . S
C1822 H1816 0.930 . S
C1822 C1823 1.367 . S
C1822 C1830 1.378 . S
C1823 C1822 1.367 . S
C1823 C1831 1.433 . S
C1824 H1820 0.929 . S
C1824 C1826 1.378 . S
C1824 C1828 1.350 . S
C1825 C1828 1.463 . S
C1825 C1830 1.350 . S
C1825 N1833 1.427 . S
C1826 H1817 0.930 . S
C1826 C1824 1.378 . S
C1826 C1827 1.367 . S
C1827 C1826 1.367 . S
C1827 C1829 1.433 . S
C1828 C1824 1.350 . S
C1828 C1825 1.463 . S
C1828 N1832 1.427 . S
C1829 H1819 0.929 . S
C1829 C1827 1.433 . S
C1829 N1832 1.384 . S
C1830 H1821 0.929 . S
C1830 C1822 1.378 . S
C1830 C1825 1.350 . S
C1831 H1818 0.929 . S
C1831 C1823 1.433 . S
C1831 N1833 1.384 . S
N1832 C1828 1.427 . S
N1832 C1829 1.384 . S
N1833 C1825 1.427 . S
N1833 C1831 1.384 . S
H1834 C1840 0.930 . S
H1835 C1844 0.930 . S
H1836 C1849 0.929 . S
H1837 C1847 0.929 . S
H1838 C1842 0.929 . S
H1839 C1848 0.929 . S
C1840 H1834 0.930 . S
C1840 C1841 1.367 . S
C1840 C1848 1.378 . S
C1841 C1840 1.367 . S
C1841 C1849 1.433 . S
C1842 H1838 0.929 . S
C1842 C1844 1.378 . S
C1842 C1846 1.350 . S
C1843 C1846 1.463 . S
C1843 C1848 1.350 . S
C1843 N1851 1.427 . S
C1844 H1835 0.930 . S
C1844 C1842 1.378 . S
C1844 C1845 1.367 . S
C1845 C1844 1.367 . S
C1845 C1847 1.433 . S
C1846 C1842 1.350 . S
C1846 C1843 1.463 . S
C1846 N1850 1.427 . S
C1847 H1837 0.929 . S
C1847 C1845 1.433 . S
C1847 N1850 1.384 . S
C1848 H1839 0.929 . S
C1848 C1840 1.378 . S
C1848 C1843 1.350 . S
C1849 H1836 0.929 . S
C1849 C1841 1.433 . S
C1849 N1851 1.384 . S
N1850 C1846 1.427 . S
N1850 C1847 1.384 . S
N1851 C1843 1.427 . S
N1851 C1849 1.384 . S
H1852 C1858 0.950 . S
H1853 C1862 0.929 1_556 S
H1854 C1867 0.929 . S
H1855 C1865 0.929 . S
H1856 C1860 0.929 . S
H1857 C1866 0.929 . S
C1858 H1852 0.950 . S
C1858 C1859 1.337 1_554 S
C1858 C1866 1.389 . S
C1859 C1858 1.337 1_556 S
C1859 C1867 1.433 . S
C1860 H1856 0.929 . S
C1860 C1862 1.378 1_556 S
C1860 C1864 1.350 1_556 S
C1861 C1864 1.454 1_556 S
C1861 C1866 1.330 1_556 S
C1861 N1869 1.458 . S
C1862 H1853 0.929 1_554 S
C1862 C1860 1.378 1_554 S
C1862 C1863 1.367 . S
C1863 C1862 1.367 . S
C1863 C1865 1.433 . S
C1864 C1860 1.350 1_554 S
C1864 C1861 1.454 1_554 S
C1864 N1868 1.427 . S
C1865 H1855 0.929 . S
C1865 C1863 1.433 . S
C1865 N1868 1.384 . S
C1866 H1857 0.929 . S
C1866 C1858 1.389 . S
C1866 C1861 1.330 1_554 S
C1867 H1854 0.929 . S
C1867 C1859 1.433 . S
C1867 N1869 1.384 . S
N1868 C1864 1.427 . S
N1868 C1865 1.384 . S
N1869 C1861 1.458 . S
N1869 C1867 1.384 . S
H1870 C1876 0.930 . S
H1871 C1880 0.930 . S
H1872 C1885 0.929 1_455 S
H1873 C1883 0.929 . S
H1874 C1878 0.929 . S
H1875 C1884 0.929 . S
C1876 H1870 0.930 . S
C1876 C1877 1.367 1_655 S
C1876 C1884 1.378 . S
C1877 C1876 1.367 1_455 S
C1877 C1885 1.433 1_455 S
C1878 H1874 0.929 . S
C1878 C1880 1.378 . S
C1878 C1882 1.350 . S
C1879 C1882 1.463 . S
C1879 C1884 1.350 . S
C1879 N1887 1.427 . S
C1880 H1871 0.930 . S
C1880 C1878 1.378 . S
C1880 C1881 1.367 . S
C1881 C1880 1.367 . S
C1881 C1883 1.433 . S
C1882 C1878 1.350 . S
C1882 C1879 1.463 . S
C1882 N1886 1.427 . S
C1883 H1873 0.929 . S
C1883 C1881 1.433 . S
C1883 N1886 1.384 . S
C1884 H1875 0.929 . S
C1884 C1876 1.378 . S
C1884 C1879 1.350 . S
C1885 H1872 0.929 1_655 S
C1885 C1877 1.433 1_655 S
C1885 N1887 1.384 . S
N1886 C1882 1.427 . S
N1886 C1883 1.384 . S
N1887 C1879 1.427 . S
N1887 C1885 1.384 . S
H1888 C1894 0.930 . S
H1889 C1898 0.930 . S
H1890 C1903 0.929 . S
H1891 C1901 0.929 . S
H1892 C1896 0.929 . S
H1893 C1902 0.929 . S
C1894 H1888 0.930 . S
C1894 C1895 1.367 . S
C1894 C1902 1.378 . S
C1895 C1894 1.367 . S
C1895 C1903 1.433 . S
C1896 H1892 0.929 . S
C1896 C1898 1.378 . S
C1896 C1900 1.350 . S
C1897 C1900 1.463 . S
C1897 C1902 1.350 . S
C1897 N1905 1.427 . S
C1898 H1889 0.930 . S
C1898 C1896 1.378 . S
C1898 C1899 1.367 . S
C1899 C1898 1.367 . S
C1899 C1901 1.433 . S
C1900 C1896 1.350 . S
C1900 C1897 1.463 . S
C1900 N1904 1.427 . S
C1901 H1891 0.929 . S
C1901 C1899 1.433 . S
C1901 N1904 1.384 . S
C1902 H1893 0.929 . S
C1902 C1894 1.378 . S
C1902 C1897 1.350 . S
C1903 H1890 0.929 . S
C1903 C1895 1.433 . S
C1903 N1905 1.384 . S
N1904 C1900 1.427 . S
N1904 C1901 1.384 . S
N1905 C1897 1.427 . S
N1905 C1903 1.384 . S
H1906 C1912 0.930 . S
H1907 C1916 0.930 . S
H1908 C1921 0.929 . S
H1909 C1919 0.929 . S
H1910 C1914 0.929 . S
H1911 C1920 0.929 . S
C1912 H1906 0.930 . S
C1912 C1913 1.367 . S
C1912 C1920 1.378 . S
C1913 C1912 1.367 . S
C1913 C1921 1.433 . S
C1914 H1910 0.929 . S
C1914 C1916 1.378 . S
C1914 C1918 1.350 . S
C1915 C1918 1.463 . S
C1915 C1920 1.350 . S
C1915 N1923 1.427 . S
C1916 H1907 0.930 . S
C1916 C1914 1.378 . S
C1916 C1917 1.367 . S
C1917 C1916 1.367 . S
C1917 C1919 1.433 . S
C1918 C1914 1.350 . S
C1918 C1915 1.463 . S
C1918 N1922 1.427 . S
C1919 H1909 0.929 . S
C1919 C1917 1.433 . S
C1919 N1922 1.384 . S
C1920 H1911 0.929 . S
C1920 C1912 1.378 . S
C1920 C1915 1.350 . S
C1921 H1908 0.929 . S
C1921 C1913 1.433 . S
C1921 N1923 1.384 . S
N1922 C1918 1.427 . S
N1922 C1919 1.384 . S
N1923 C1915 1.427 . S
N1923 C1921 1.384 . S
H1924 C1930 0.930 . S
H1925 C1934 0.930 . S
H1926 C1939 0.929 . S
H1927 C1937 0.929 . S
H1928 C1932 0.929 . S
H1929 C1938 0.929 . S
C1930 H1924 0.930 . S
C1930 C1931 1.367 . S
C1930 C1938 1.378 . S
C1931 C1930 1.367 . S
C1931 C1939 1.433 . S
C1932 H1928 0.929 . S
C1932 C1934 1.378 . S
C1932 C1936 1.350 . S
C1933 C1936 1.463 . S
C1933 C1938 1.350 . S
C1933 N1941 1.427 . S
C1934 H1925 0.930 . S
C1934 C1932 1.378 . S
C1934 C1935 1.367 . S
C1935 C1934 1.367 . S
C1935 C1937 1.433 . S
C1936 C1932 1.350 . S
C1936 C1933 1.463 . S
C1936 N1940 1.427 . S
C1937 H1927 0.929 . S
C1937 C1935 1.433 . S
C1937 N1940 1.384 . S
C1938 H1929 0.929 . S
C1938 C1930 1.378 . S
C1938 C1933 1.350 . S
C1939 H1926 0.929 . S
C1939 C1931 1.433 . S
C1939 N1941 1.384 . S
N1940 C1936 1.427 . S
N1940 C1937 1.384 . S
N1941 C1933 1.427 . S
N1941 C1939 1.384 . S
H1942 C1948 0.930 . S
H1943 C1952 0.930 . S
H1944 C1957 0.929 . S
H1945 C1955 0.929 . S
H1946 C1950 0.929 . S
H1947 C1956 0.929 . S
C1948 H1942 0.930 . S
C1948 C1949 1.367 . S
C1948 C1956 1.378 . S
C1949 C1948 1.367 . S
C1949 C1957 1.433 . S
C1950 H1946 0.929 . S
C1950 C1952 1.378 . S
C1950 C1954 1.350 . S
C1951 C1954 1.463 . S
C1951 C1956 1.350 . S
C1951 N1959 1.427 . S
C1952 H1943 0.930 . S
C1952 C1950 1.378 . S
C1952 C1953 1.367 . S
C1953 C1952 1.367 . S
C1953 C1955 1.433 . S
C1954 C1950 1.350 . S
C1954 C1951 1.463 . S
C1954 N1958 1.427 . S
C1955 H1945 0.929 . S
C1955 C1953 1.433 . S
C1955 N1958 1.384 . S
C1956 H1947 0.929 . S
C1956 C1948 1.378 . S
C1956 C1951 1.350 . S
C1957 H1944 0.929 . S
C1957 C1949 1.433 . S
C1957 N1959 1.384 . S
N1958 C1954 1.427 . S
N1958 C1955 1.384 . S
N1959 C1951 1.427 . S
N1959 C1957 1.384 . S
H1960 C1966 0.930 . S
H1961 C1970 0.930 . S
H1962 C1975 0.929 . S
H1963 C1973 0.929 . S
H1964 C1968 0.929 . S
H1965 C1974 0.929 . S
C1966 H1960 0.930 . S
C1966 C1967 1.367 . S
C1966 C1974 1.378 . S
C1967 C1966 1.367 . S
C1967 C1975 1.433 . S
C1968 H1964 0.929 . S
C1968 C1970 1.378 . S
C1968 C1972 1.350 . S
C1969 C1972 1.463 . S
C1969 C1974 1.350 . S
C1969 N1977 1.427 . S
C1970 H1961 0.930 . S
C1970 C1968 1.378 . S
C1970 C1971 1.367 . S
C1971 C1970 1.367 . S
C1971 C1973 1.433 . S
C1972 C1968 1.350 . S
C1972 C1969 1.463 . S
C1972 N1976 1.427 . S
C1973 H1963 0.929 . S
C1973 C1971 1.433 . S
C1973 N1976 1.384 . S
C1974 H1965 0.929 . S
C1974 C1966 1.378 . S
C1974 C1969 1.350 . S
C1975 H1962 0.929 . S
C1975 C1967 1.433 . S
C1975 N1977 1.384 . S
N1976 C1972 1.427 . S
N1976 C1973 1.384 . S
N1977 C1969 1.427 . S
N1977 C1975 1.384 . S
H1978 C1984 0.930 . S
H1979 C1988 0.930 . S
H1980 C1993 0.929 . S
H1981 C1991 0.929 . S
H1982 C1986 0.929 . S
H1983 C1992 0.929 . S
C1984 H1978 0.930 . S
C1984 C1985 1.367 . S
C1984 C1992 1.378 . S
C1985 C1984 1.367 . S
C1985 C1993 1.433 . S
C1986 H1982 0.929 . S
C1986 C1988 1.378 . S
C1986 C1990 1.350 . S
C1987 C1990 1.463 1_554 S
C1987 C1992 1.350 . S
C1987 N1995 1.427 . S
C1988 H1979 0.930 . S
C1988 C1986 1.378 . S
C1988 C1989 1.367 . S
C1989 C1988 1.367 . S
C1989 C1991 1.433 . S
C1990 C1986 1.350 . S
C1990 C1987 1.463 1_556 S
C1990 N1994 1.427 . S
C1991 H1981 0.929 . S
C1991 C1989 1.433 . S
C1991 N1994 1.384 . S
C1992 H1983 0.929 . S
C1992 C1984 1.378 . S
C1992 C1987 1.350 . S
C1993 H1980 0.929 . S
C1993 C1985 1.433 . S
C1993 N1995 1.384 . S
N1994 C1990 1.427 . S
N1994 C1991 1.384 . S
N1995 C1987 1.427 . S
N1995 C1993 1.384 . S
H1996 C2002 0.930 . S
H1997 C2006 0.930 . S
H1998 C2011 0.929 . S
H1999 C2009 0.929 . S
H2000 C2004 0.929 . S
H2001 C2010 0.929 . S
C2002 H1996 0.930 . S
C2002 C2003 1.367 . S
C2002 C2010 1.378 . S
C2003 C2002 1.367 . S
C2003 C2011 1.433 . S
C2004 H2000 0.929 . S
C2004 C2006 1.378 . S
C2004 C2008 1.350 . S
C2005 C2008 1.463 . S
C2005 C2010 1.350 . S
C2005 N2013 1.427 . S
C2006 H1997 0.930 . S
C2006 C2004 1.378 . S
C2006 C2007 1.367 . S
C2007 C2006 1.367 . S
C2007 C2009 1.433 . S
C2008 C2004 1.350 . S
C2008 C2005 1.463 . S
C2008 N2012 1.427 . S
C2009 H1999 0.929 . S
C2009 C2007 1.433 . S
C2009 N2012 1.384 . S
C2010 H2001 0.929 . S
C2010 C2002 1.378 . S
C2010 C2005 1.350 . S
C2011 H1998 0.929 . S
C2011 C2003 1.433 . S
C2011 N2013 1.384 . S
N2012 C2008 1.427 . S
N2012 C2009 1.384 . S
N2013 C2005 1.427 . S
N2013 C2011 1.384 . S
H2014 C2020 0.930 . S
H2015 C2024 0.930 . S
H2016 C2029 0.929 . S
H2017 C2027 0.929 . S
H2018 C2022 0.929 . S
H2019 C2028 0.929 . S
C2020 H2014 0.930 . S
C2020 C2021 1.367 . S
C2020 C2028 1.378 . S
C2021 C2020 1.367 . S
C2021 C2029 1.433 . S
C2022 H2018 0.929 . S
C2022 C2024 1.378 . S
C2022 C2026 1.350 . S
C2023 C2026 1.463 . S
C2023 C2028 1.350 . S
C2023 N2031 1.427 . S
C2024 H2015 0.930 . S
C2024 C2022 1.378 . S
C2024 C2025 1.367 . S
C2025 C2024 1.367 . S
C2025 C2027 1.433 . S
C2026 C2022 1.350 . S
C2026 C2023 1.463 . S
C2026 N2030 1.427 . S
C2027 H2017 0.929 . S
C2027 C2025 1.433 . S
C2027 N2030 1.384 . S
C2028 H2019 0.929 . S
C2028 C2020 1.378 . S
C2028 C2023 1.350 . S
C2029 H2016 0.929 . S
C2029 C2021 1.433 . S
C2029 N2031 1.384 . S
N2030 C2026 1.427 . S
N2030 C2027 1.384 . S
N2031 C2023 1.427 . S
N2031 C2029 1.384 . S
H2032 C2038 0.930 . S
H2033 C2042 0.930 . S
H2034 C2047 0.929 . S
H2035 C2045 0.929 . S
H2036 C2040 0.929 . S
H2037 C2046 0.929 . S
C2038 H2032 0.930 . S
C2038 C2039 1.367 . S
C2038 C2046 1.378 . S
C2039 C2038 1.367 . S
C2039 C2047 1.433 . S
C2040 H2036 0.929 . S
C2040 C2042 1.378 . S
C2040 C2044 1.350 . S
C2041 C2044 1.463 . S
C2041 C2046 1.350 . S
C2041 N2049 1.427 . S
C2042 H2033 0.930 . S
C2042 C2040 1.378 . S
C2042 C2043 1.367 . S
C2043 C2042 1.367 . S
C2043 C2045 1.433 . S
C2044 C2040 1.350 . S
C2044 C2041 1.463 . S
C2044 N2048 1.427 . S
C2045 H2035 0.929 . S
C2045 C2043 1.433 . S
C2045 N2048 1.384 . S
C2046 H2037 0.929 . S
C2046 C2038 1.378 . S
C2046 C2041 1.350 . S
C2047 H2034 0.929 . S
C2047 C2039 1.433 . S
C2047 N2049 1.384 . S
N2048 C2044 1.427 . S
N2048 C2045 1.384 . S
N2049 C2041 1.427 . S
N2049 C2047 1.384 . S
H2050 C2056 0.930 . S
H2051 C2060 0.930 . S
H2052 C2065 0.929 . S
H2053 C2063 0.929 . S
H2054 C2058 0.929 . S
H2055 C2064 0.929 . S
C2056 H2050 0.930 . S
C2056 C2057 1.367 . S
C2056 C2064 1.378 . S
C2057 C2056 1.367 . S
C2057 C2065 1.433 . S
C2058 H2054 0.929 . S
C2058 C2060 1.378 . S
C2058 C2062 1.350 . S
C2059 C2062 1.463 . S
C2059 C2064 1.350 . S
C2059 N2067 1.427 . S
C2060 H2051 0.930 . S
C2060 C2058 1.378 . S
C2060 C2061 1.367 . S
C2061 C2060 1.367 . S
C2061 C2063 1.433 . S
C2062 C2058 1.350 . S
C2062 C2059 1.463 . S
C2062 N2066 1.427 . S
C2063 H2053 0.929 . S
C2063 C2061 1.433 . S
C2063 N2066 1.384 . S
C2064 H2055 0.929 . S
C2064 C2056 1.378 . S
C2064 C2059 1.350 . S
C2065 H2052 0.929 . S
C2065 C2057 1.433 . S
C2065 N2067 1.384 . S
N2066 C2062 1.427 . S
N2066 C2063 1.384 . S
N2067 C2059 1.427 . S
N2067 C2065 1.384 . S
H2068 C2074 0.930 . S
H2069 C2078 0.930 . S
H2070 C2083 0.929 . S
H2071 C2081 0.929 . S
H2072 C2076 0.929 . S
H2073 C2082 0.929 . S
C2074 H2068 0.930 . S
C2074 C2075 1.367 . S
C2074 C2082 1.378 . S
C2075 C2074 1.367 . S
C2075 C2083 1.433 . S
C2076 H2072 0.929 . S
C2076 C2078 1.378 . S
C2076 C2080 1.350 . S
C2077 C2080 1.463 . S
C2077 C2082 1.350 . S
C2077 N2085 1.427 . S
C2078 H2069 0.930 . S
C2078 C2076 1.378 . S
C2078 C2079 1.367 . S
C2079 C2078 1.367 . S
C2079 C2081 1.433 . S
C2080 C2076 1.350 . S
C2080 C2077 1.463 . S
C2080 N2084 1.427 . S
C2081 H2071 0.929 . S
C2081 C2079 1.433 . S
C2081 N2084 1.384 . S
C2082 H2073 0.929 . S
C2082 C2074 1.378 . S
C2082 C2077 1.350 . S
C2083 H2070 0.929 . S
C2083 C2075 1.433 . S
C2083 N2085 1.384 . S
N2084 C2080 1.427 . S
N2084 C2081 1.384 . S
N2085 C2077 1.427 . S
N2085 C2083 1.384 . S
H2086 C2092 0.930 . S
H2087 C2096 0.930 . S
H2088 C2101 0.929 . S
H2089 C2099 0.929 . S
H2090 C2094 0.929 . S
H2091 C2100 0.929 . S
C2092 H2086 0.930 . S
C2092 C2093 1.367 . S
C2092 C2100 1.378 . S
C2093 C2092 1.367 . S
C2093 C2101 1.433 . S
C2094 H2090 0.929 . S
C2094 C2096 1.378 . S
C2094 C2098 1.350 . S
C2095 C2098 1.463 . S
C2095 C2100 1.350 . S
C2095 N2103 1.427 . S
C2096 H2087 0.930 . S
C2096 C2094 1.378 . S
C2096 C2097 1.367 . S
C2097 C2096 1.367 . S
C2097 C2099 1.433 . S
C2098 C2094 1.350 . S
C2098 C2095 1.463 . S
C2098 N2102 1.427 . S
C2099 H2089 0.929 . S
C2099 C2097 1.433 . S
C2099 N2102 1.384 . S
C2100 H2091 0.929 . S
C2100 C2092 1.378 . S
C2100 C2095 1.350 . S
C2101 H2088 0.929 . S
C2101 C2093 1.433 . S
C2101 N2103 1.384 . S
N2102 C2098 1.427 . S
N2102 C2099 1.384 . S
N2103 C2095 1.427 . S
N2103 C2101 1.384 . S
H2104 C2110 0.930 . S
H2105 C2114 0.930 . S
H2106 C2119 0.929 . S
H2107 C2117 0.929 . S
H2108 C2112 0.929 . S
H2109 C2118 0.929 . S
C2110 H2104 0.930 . S
C2110 C2111 1.367 . S
C2110 C2118 1.378 . S
C2111 C2110 1.367 . S
C2111 C2119 1.433 . S
C2112 H2108 0.929 . S
C2112 C2114 1.378 . S
C2112 C2116 1.350 . S
C2113 C2116 1.463 . S
C2113 C2118 1.350 . S
C2113 N2121 1.427 . S
C2114 H2105 0.930 . S
C2114 C2112 1.378 . S
C2114 C2115 1.367 . S
C2115 C2114 1.367 . S
C2115 C2117 1.433 . S
C2116 C2112 1.350 . S
C2116 C2113 1.463 . S
C2116 N2120 1.427 . S
C2117 H2107 0.929 . S
C2117 C2115 1.433 . S
C2117 N2120 1.384 . S
C2118 H2109 0.929 . S
C2118 C2110 1.378 . S
C2118 C2113 1.350 . S
C2119 H2106 0.929 . S
C2119 C2111 1.433 . S
C2119 N2121 1.384 . S
N2120 C2116 1.427 . S
N2120 C2117 1.384 . S
N2121 C2113 1.427 . S
N2121 C2119 1.384 . S
H2122 C2128 0.930 . S
H2123 C2132 0.930 . S
H2124 C2137 0.929 . S
H2125 C2135 0.929 . S
H2126 C2130 0.929 . S
H2127 C2136 0.929 . S
C2128 H2122 0.930 . S
C2128 C2129 1.367 . S
C2128 C2136 1.378 . S
C2129 C2128 1.367 . S
C2129 C2137 1.433 . S
C2130 H2126 0.929 . S
C2130 C2132 1.378 . S
C2130 C2134 1.350 . S
C2131 C2134 1.463 . S
C2131 C2136 1.350 . S
C2131 N2139 1.427 . S
C2132 H2123 0.930 . S
C2132 C2130 1.378 . S
C2132 C2133 1.367 . S
C2133 C2132 1.367 . S
C2133 C2135 1.433 . S
C2134 C2130 1.350 . S
C2134 C2131 1.463 . S
C2134 N2138 1.427 . S
C2135 H2125 0.929 . S
C2135 C2133 1.433 . S
C2135 N2138 1.384 . S
C2136 H2127 0.929 . S
C2136 C2128 1.378 . S
C2136 C2131 1.350 . S
C2137 H2124 0.929 . S
C2137 C2129 1.433 . S
C2137 N2139 1.384 . S
N2138 C2134 1.427 . S
N2138 C2135 1.384 . S
N2139 C2131 1.427 . S
N2139 C2137 1.384 . S
H2140 C2146 0.930 . S
H2141 C2150 0.930 . S
H2142 C2155 0.929 1_545 S
H2143 C2153 0.929 . S
H2144 C2148 0.929 . S
H2145 C2154 0.929 . S
C2146 H2140 0.930 . S
C2146 C2147 1.367 . S
C2146 C2154 1.378 . S
C2147 C2146 1.367 . S
C2147 C2155 1.433 . S
C2148 H2144 0.929 . S
C2148 C2150 1.378 . S
C2148 C2152 1.350 . S
C2149 C2152 1.463 . S
C2149 C2154 1.350 . S
C2149 N2157 1.427 . S
C2150 H2141 0.930 . S
C2150 C2148 1.378 . S
C2150 C2151 1.367 . S
C2151 C2150 1.367 . S
C2151 C2153 1.433 . S
C2152 C2148 1.350 . S
C2152 C2149 1.463 . S
C2152 N2156 1.427 . S
C2153 H2143 0.929 . S
C2153 C2151 1.433 . S
C2153 N2156 1.384 . S
C2154 H2145 0.929 . S
C2154 C2146 1.378 . S
C2154 C2149 1.350 . S
C2155 H2142 0.929 1_565 S
C2155 C2147 1.433 . S
C2155 N2157 1.384 . S
N2156 C2152 1.427 . S
N2156 C2153 1.384 . S
N2157 C2149 1.427 . S
N2157 C2155 1.384 . S
H2158 C2164 0.930 . S
H2159 C2168 0.930 . S
H2160 C2173 0.929 . S
H2161 C2171 0.929 . S
H2162 C2166 0.929 . S
H2163 C2172 0.929 . S
C2164 H2158 0.930 . S
C2164 C2165 1.351 1_556 S
C2164 C2172 1.378 . S
C2165 C2164 1.351 1_554 S
C2165 C2173 1.445 . S
C2166 H2162 0.929 . S
C2166 C2168 1.378 . S
C2166 C2170 1.350 . S
C2167 C2170 1.463 . S
C2167 C2172 1.350 1_554 S
C2167 N2175 1.427 . S
C2168 H2159 0.930 . S
C2168 C2166 1.378 . S
C2168 C2169 1.367 . S
C2169 C2168 1.367 . S
C2169 C2171 1.433 1_554 S
C2170 C2166 1.350 . S
C2170 C2167 1.463 . S
C2170 N2174 1.427 1_554 S
C2171 H2161 0.929 . S
C2171 C2169 1.433 1_556 S
C2171 N2174 1.384 . S
C2172 H2163 0.929 . S
C2172 C2164 1.378 . S
C2172 C2167 1.350 1_556 S
C2173 H2160 0.929 . S
C2173 C2165 1.445 . S
C2173 N2175 1.384 . S
N2174 C2170 1.427 1_556 S
N2174 C2171 1.384 . S
N2175 C2167 1.427 . S
N2175 C2173 1.384 . S
H2176 C2182 0.930 . S
H2177 C2186 0.930 . S
H2178 C2191 0.929 . S
H2179 C2189 0.929 . S
H2180 C2184 0.929 . S
H2181 C2190 0.929 . S
C2182 H2176 0.930 . S
C2182 C2183 1.367 . S
C2182 C2190 1.378 . S
C2183 C2182 1.367 . S
C2183 C2191 1.433 . S
C2184 H2180 0.929 . S
C2184 C2186 1.378 . S
C2184 C2188 1.350 . S
C2185 C2188 1.463 . S
C2185 C2190 1.350 . S
C2185 N2193 1.427 . S
C2186 H2177 0.930 . S
C2186 C2184 1.378 . S
C2186 C2187 1.367 . S
C2187 C2186 1.367 . S
C2187 C2189 1.433 . S
C2188 C2184 1.350 . S
C2188 C2185 1.463 . S
C2188 N2192 1.427 . S
C2189 H2179 0.929 . S
C2189 C2187 1.433 . S
C2189 N2192 1.384 . S
C2190 H2181 0.929 . S
C2190 C2182 1.378 . S
C2190 C2185 1.350 . S
C2191 H2178 0.929 . S
C2191 C2183 1.433 . S
C2191 N2193 1.384 . S
N2192 C2188 1.427 . S
N2192 C2189 1.384 . S
N2193 C2185 1.427 . S
N2193 C2191 1.384 . S
H2194 C2200 0.930 . S
H2195 C2204 0.930 . S
H2196 C2209 0.929 . S
H2197 C2207 0.929 . S
H2198 C2202 0.929 . S
H2199 C2208 0.929 . S
C2200 H2194 0.930 . S
C2200 C2201 1.367 . S
C2200 C2208 1.378 . S
C2201 C2200 1.367 . S
C2201 C2209 1.433 . S
C2202 H2198 0.929 . S
C2202 C2204 1.378 . S
C2202 C2206 1.350 . S
C2203 C2206 1.463 . S
C2203 C2208 1.350 . S
C2203 N2211 1.427 . S
C2204 H2195 0.930 . S
C2204 C2202 1.378 . S
C2204 C2205 1.367 . S
C2205 C2204 1.367 . S
C2205 C2207 1.433 . S
C2206 C2202 1.350 . S
C2206 C2203 1.463 . S
C2206 N2210 1.427 . S
C2207 H2197 0.929 . S
C2207 C2205 1.433 . S
C2207 N2210 1.384 . S
C2208 H2199 0.929 . S
C2208 C2200 1.378 . S
C2208 C2203 1.350 . S
C2209 H2196 0.929 . S
C2209 C2201 1.433 . S
C2209 N2211 1.384 . S
N2210 C2206 1.427 . S
N2210 C2207 1.384 . S
N2211 C2203 1.427 . S
N2211 C2209 1.384 . S
H2212 C2218 0.930 . S
H2213 C2222 0.930 . S
H2214 C2227 0.929 . S
H2215 C2225 0.929 . S
H2216 C2220 0.929 . S
H2217 C2226 0.929 . S
C2218 H2212 0.930 . S
C2218 C2219 1.367 . S
C2218 C2226 1.378 . S
C2219 C2218 1.367 . S
C2219 C2227 1.433 . S
C2220 H2216 0.929 . S
C2220 C2222 1.378 . S
C2220 C2224 1.350 . S
C2221 C2224 1.463 . S
C2221 C2226 1.350 . S
C2221 N2229 1.427 . S
C2222 H2213 0.930 . S
C2222 C2220 1.378 . S
C2222 C2223 1.367 . S
C2223 C2222 1.367 . S
C2223 C2225 1.433 . S
C2224 C2220 1.350 . S
C2224 C2221 1.463 . S
C2224 N2228 1.427 . S
C2225 H2215 0.929 . S
C2225 C2223 1.433 . S
C2225 N2228 1.384 . S
C2226 H2217 0.929 . S
C2226 C2218 1.378 . S
C2226 C2221 1.350 . S
C2227 H2214 0.929 . S
C2227 C2219 1.433 . S
C2227 N2229 1.384 . S
N2228 C2224 1.427 . S
N2228 C2225 1.384 . S
N2229 C2221 1.427 . S
N2229 C2227 1.384 . S
H2230 C2236 0.930 . S
H2231 C2240 0.930 . S
H2232 C2245 0.929 . S
H2233 C2243 0.929 . S
H2234 C2238 0.929 . S
H2235 C2244 0.929 . S
C2236 H2230 0.930 . S
C2236 C2237 1.367 . S
C2236 C2244 1.378 . S
C2237 C2236 1.367 . S
C2237 C2245 1.433 . S
C2238 H2234 0.929 . S
C2238 C2240 1.378 . S
C2238 C2242 1.350 . S
C2239 C2242 1.463 . S
C2239 C2244 1.350 . S
C2239 N2247 1.427 . S
C2240 H2231 0.930 . S
C2240 C2238 1.378 . S
C2240 C2241 1.367 . S
C2241 C2240 1.367 . S
C2241 C2243 1.433 . S
C2242 C2238 1.350 . S
C2242 C2239 1.463 . S
C2242 N2246 1.427 . S
C2243 H2233 0.929 . S
C2243 C2241 1.433 . S
C2243 N2246 1.384 . S
C2244 H2235 0.929 . S
C2244 C2236 1.378 . S
C2244 C2239 1.350 . S
C2245 H2232 0.929 . S
C2245 C2237 1.433 . S
C2245 N2247 1.384 . S
N2246 C2242 1.427 . S
N2246 C2243 1.384 . S
N2247 C2239 1.427 . S
N2247 C2245 1.384 . S
H2248 C2254 0.930 . S
H2249 C2258 0.930 . S
H2250 C2263 0.929 . S
H2251 C2261 0.929 . S
H2252 C2256 0.929 . S
H2253 C2262 0.929 . S
C2254 H2248 0.930 . S
C2254 C2255 1.367 . S
C2254 C2262 1.378 . S
C2255 C2254 1.367 . S
C2255 C2263 1.433 . S
C2256 H2252 0.929 . S
C2256 C2258 1.378 . S
C2256 C2260 1.350 . S
C2257 C2260 1.463 . S
C2257 C2262 1.350 . S
C2257 N2265 1.427 . S
C2258 H2249 0.930 . S
C2258 C2256 1.378 . S
C2258 C2259 1.367 . S
C2259 C2258 1.367 . S
C2259 C2261 1.433 . S
C2260 C2256 1.350 . S
C2260 C2257 1.463 . S
C2260 N2264 1.427 . S
C2261 H2251 0.929 . S
C2261 C2259 1.433 . S
C2261 N2264 1.384 . S
C2262 H2253 0.929 . S
C2262 C2254 1.378 . S
C2262 C2257 1.350 . S
C2263 H2250 0.929 . S
C2263 C2255 1.433 . S
C2263 N2265 1.384 . S
N2264 C2260 1.427 . S
N2264 C2261 1.384 . S
N2265 C2257 1.427 . S
N2265 C2263 1.384 . S
H2266 C2272 0.930 . S
H2267 C2276 0.930 . S
H2268 C2281 0.929 . S
H2269 C2279 0.929 . S
H2270 C2274 0.929 . S
H2271 C2280 0.929 . S
C2272 H2266 0.930 . S
C2272 C2273 1.367 . S
C2272 C2280 1.378 . S
C2273 C2272 1.367 . S
C2273 C2281 1.433 . S
C2274 H2270 0.929 . S
C2274 C2276 1.378 . S
C2274 C2278 1.350 . S
C2275 C2278 1.463 . S
C2275 C2280 1.350 . S
C2275 N2283 1.427 . S
C2276 H2267 0.930 . S
C2276 C2274 1.378 . S
C2276 C2277 1.367 . S
C2277 C2276 1.367 . S
C2277 C2279 1.433 . S
C2278 C2274 1.350 . S
C2278 C2275 1.463 . S
C2278 N2282 1.427 . S
C2279 H2269 0.929 . S
C2279 C2277 1.433 . S
C2279 N2282 1.384 . S
C2280 H2271 0.929 . S
C2280 C2272 1.378 . S
C2280 C2275 1.350 . S
C2281 H2268 0.929 . S
C2281 C2273 1.433 . S
C2281 N2283 1.384 . S
N2282 C2278 1.427 . S
N2282 C2279 1.384 . S
N2283 C2275 1.427 . S
N2283 C2281 1.384 . S
H2284 C2290 0.930 . S
H2285 C2294 0.930 . S
H2286 C2299 0.929 . S
H2287 C2297 0.929 . S
H2288 C2292 0.929 . S
H2289 C2298 0.929 . S
C2290 H2284 0.930 . S
C2290 C2291 1.367 . S
C2290 C2298 1.378 . S
C2291 C2290 1.367 . S
C2291 C2299 1.433 . S
C2292 H2288 0.929 . S
C2292 C2294 1.378 . S
C2292 C2296 1.350 . S
C2293 C2296 1.463 . S
C2293 C2298 1.350 . S
C2293 N2301 1.427 . S
C2294 H2285 0.930 . S
C2294 C2292 1.378 . S
C2294 C2295 1.367 . S
C2295 C2294 1.367 . S
C2295 C2297 1.433 . S
C2296 C2292 1.350 . S
C2296 C2293 1.463 . S
C2296 N2300 1.427 . S
C2297 H2287 0.929 . S
C2297 C2295 1.433 . S
C2297 N2300 1.384 . S
C2298 H2289 0.929 . S
C2298 C2290 1.378 . S
C2298 C2293 1.350 . S
C2299 H2286 0.929 . S
C2299 C2291 1.433 . S
C2299 N2301 1.384 . S
N2300 C2296 1.427 . S
N2300 C2297 1.384 . S
N2301 C2293 1.427 . S
N2301 C2299 1.384 . S
H2302 C2308 0.930 . S
H2303 C2312 0.930 . S
H2304 C2317 0.929 . S
H2305 C2315 0.929 . S
H2306 C2310 0.929 . S
H2307 C2316 0.929 . S
C2308 H2302 0.930 . S
C2308 C2309 1.367 . S
C2308 C2316 1.378 . S
C2309 C2308 1.367 . S
C2309 C2317 1.433 . S
C2310 H2306 0.929 . S
C2310 C2312 1.378 . S
C2310 C2314 1.350 . S
C2311 C2314 1.463 . S
C2311 C2316 1.350 . S
C2311 N2319 1.427 . S
C2312 H2303 0.930 . S
C2312 C2310 1.378 . S
C2312 C2313 1.367 . S
C2313 C2312 1.367 . S
C2313 C2315 1.433 . S
C2314 C2310 1.350 . S
C2314 C2311 1.463 . S
C2314 N2318 1.427 . S
C2315 H2305 0.929 . S
C2315 C2313 1.433 . S
C2315 N2318 1.384 . S
C2316 H2307 0.929 . S
C2316 C2308 1.378 . S
C2316 C2311 1.350 . S
C2317 H2304 0.929 . S
C2317 C2309 1.433 . S
C2317 N2319 1.384 . S
N2318 C2314 1.427 . S
N2318 C2315 1.384 . S
N2319 C2311 1.427 . S
N2319 C2317 1.384 . S
H2320 C2326 0.930 . S
H2321 C2330 0.930 . S
H2322 C2335 0.929 . S
H2323 C2333 0.929 . S
H2324 C2328 0.929 . S
H2325 C2334 0.929 . S
C2326 H2320 0.930 . S
C2326 C2327 1.367 . S
C2326 C2334 1.378 . S
C2327 C2326 1.367 . S
C2327 C2335 1.433 . S
C2328 H2324 0.929 . S
C2328 C2330 1.378 . S
C2328 C2332 1.350 . S
C2329 C2332 1.463 . S
C2329 C2334 1.350 . S
C2329 N2337 1.427 . S
C2330 H2321 0.930 . S
C2330 C2328 1.378 . S
C2330 C2331 1.367 . S
C2331 C2330 1.367 . S
C2331 C2333 1.433 . S
C2332 C2328 1.350 . S
C2332 C2329 1.463 . S
C2332 N2336 1.427 . S
C2333 H2323 0.929 . S
C2333 C2331 1.433 . S
C2333 N2336 1.384 . S
C2334 H2325 0.929 . S
C2334 C2326 1.378 . S
C2334 C2329 1.350 . S
C2335 H2322 0.929 . S
C2335 C2327 1.433 . S
C2335 N2337 1.384 . S
N2336 C2332 1.427 . S
N2336 C2333 1.384 . S
N2337 C2329 1.427 . S
N2337 C2335 1.384 . S
H2338 C2344 0.930 . S
H2339 C2348 0.930 . S
H2340 C2353 0.929 . S
H2341 C2351 0.929 . S
H2342 C2346 0.929 . S
H2343 C2352 0.929 . S
C2344 H2338 0.930 . S
C2344 C2345 1.367 . S
C2344 C2352 1.378 . S
C2345 C2344 1.367 . S
C2345 C2353 1.433 . S
C2346 H2342 0.929 . S
C2346 C2348 1.378 . S
C2346 C2350 1.350 . S
C2347 C2350 1.463 . S
C2347 C2352 1.350 . S
C2347 N2355 1.427 . S
C2348 H2339 0.930 . S
C2348 C2346 1.378 . S
C2348 C2349 1.367 . S
C2349 C2348 1.367 . S
C2349 C2351 1.433 . S
C2350 C2346 1.350 . S
C2350 C2347 1.463 . S
C2350 N2354 1.427 . S
C2351 H2341 0.929 . S
C2351 C2349 1.433 . S
C2351 N2354 1.384 . S
C2352 H2343 0.929 . S
C2352 C2344 1.378 . S
C2352 C2347 1.350 . S
C2353 H2340 0.929 . S
C2353 C2345 1.433 . S
C2353 N2355 1.384 . S
N2354 C2350 1.427 . S
N2354 C2351 1.384 . S
N2355 C2347 1.427 . S
N2355 C2353 1.384 . S
H2356 C2362 0.930 . S
H2357 C2366 0.930 . S
H2358 C2371 0.929 . S
H2359 C2369 0.929 . S
H2360 C2364 0.929 . S
H2361 C2370 0.929 . S
C2362 H2356 0.930 . S
C2362 C2363 1.367 . S
C2362 C2370 1.378 . S
C2363 C2362 1.367 . S
C2363 C2371 1.433 . S
C2364 H2360 0.929 . S
C2364 C2366 1.378 . S
C2364 C2368 1.350 . S
C2365 C2368 1.463 . S
C2365 C2370 1.350 . S
C2365 N2373 1.427 . S
C2366 H2357 0.930 . S
C2366 C2364 1.378 . S
C2366 C2367 1.367 . S
C2367 C2366 1.367 . S
C2367 C2369 1.433 . S
C2368 C2364 1.350 . S
C2368 C2365 1.463 . S
C2368 N2372 1.427 . S
C2369 H2359 0.929 . S
C2369 C2367 1.433 . S
C2369 N2372 1.384 . S
C2370 H2361 0.929 . S
C2370 C2362 1.378 . S
C2370 C2365 1.350 . S
C2371 H2358 0.929 . S
C2371 C2363 1.433 . S
C2371 N2373 1.384 . S
N2372 C2368 1.427 . S
N2372 C2369 1.384 . S
N2373 C2365 1.427 . S
N2373 C2371 1.384 . S
H2374 C2380 0.930 . S
H2375 C2384 0.930 . S
H2376 C2389 0.929 . S
H2377 C2387 0.929 . S
H2378 C2382 0.929 . S
H2379 C2388 0.929 . S
C2380 H2374 0.930 . S
C2380 C2381 1.367 . S
C2380 C2388 1.378 . S
C2381 C2380 1.367 . S
C2381 C2389 1.433 . S
C2382 H2378 0.929 . S
C2382 C2384 1.378 . S
C2382 C2386 1.350 . S
C2383 C2386 1.463 . S
C2383 C2388 1.350 . S
C2383 N2391 1.427 . S
C2384 H2375 0.930 . S
C2384 C2382 1.378 . S
C2384 C2385 1.367 . S
C2385 C2384 1.367 . S
C2385 C2387 1.433 . S
C2386 C2382 1.350 . S
C2386 C2383 1.463 . S
C2386 N2390 1.427 . S
C2387 H2377 0.929 . S
C2387 C2385 1.433 . S
C2387 N2390 1.384 . S
C2388 H2379 0.929 . S
C2388 C2380 1.378 . S
C2388 C2383 1.350 . S
C2389 H2376 0.929 . S
C2389 C2381 1.433 . S
C2389 N2391 1.384 . S
N2390 C2386 1.427 . S
N2390 C2387 1.384 . S
N2391 C2383 1.427 . S
N2391 C2389 1.384 . S
H2392 C2398 0.930 . S
H2393 C2402 0.930 . S
H2394 C2407 0.929 . S
H2395 C2405 0.929 . S
H2396 C2400 0.929 . S
H2397 C2406 0.929 . S
C2398 H2392 0.930 . S
C2398 C2399 1.367 . S
C2398 C2406 1.378 . S
C2399 C2398 1.367 . S
C2399 C2407 1.433 . S
C2400 H2396 0.929 . S
C2400 C2402 1.378 . S
C2400 C2404 1.350 . S
C2401 C2404 1.463 . S
C2401 C2406 1.350 . S
C2401 N2409 1.427 . S
C2402 H2393 0.930 . S
C2402 C2400 1.378 . S
C2402 C2403 1.367 . S
C2403 C2402 1.367 . S
C2403 C2405 1.433 . S
C2404 C2400 1.350 . S
C2404 C2401 1.463 . S
C2404 N2408 1.427 . S
C2405 H2395 0.929 . S
C2405 C2403 1.433 . S
C2405 N2408 1.384 . S
C2406 H2397 0.929 . S
C2406 C2398 1.378 . S
C2406 C2401 1.350 . S
C2407 H2394 0.929 . S
C2407 C2399 1.433 . S
C2407 N2409 1.384 . S
N2408 C2404 1.427 . S
N2408 C2405 1.384 . S
N2409 C2401 1.427 . S
N2409 C2407 1.384 . S
H2410 C2416 0.930 . S
H2411 C2420 0.930 . S
H2412 C2425 0.929 . S
H2413 C2423 0.929 . S
H2414 C2418 0.929 . S
H2415 C2424 0.929 . S
C2416 H2410 0.930 . S
C2416 C2417 1.367 . S
C2416 C2424 1.378 . S
C2417 C2416 1.367 . S
C2417 C2425 1.433 . S
C2418 H2414 0.929 . S
C2418 C2420 1.378 . S
C2418 C2422 1.350 . S
C2419 C2422 1.463 . S
C2419 C2424 1.350 . S
C2419 N2427 1.427 . S
C2420 H2411 0.930 . S
C2420 C2418 1.378 . S
C2420 C2421 1.367 . S
C2421 C2420 1.367 . S
C2421 C2423 1.433 . S
C2422 C2418 1.350 . S
C2422 C2419 1.463 . S
C2422 N2426 1.427 . S
C2423 H2413 0.929 . S
C2423 C2421 1.433 . S
C2423 N2426 1.384 . S
C2424 H2415 0.929 . S
C2424 C2416 1.378 . S
C2424 C2419 1.350 . S
C2425 H2412 0.929 . S
C2425 C2417 1.433 . S
C2425 N2427 1.384 . S
N2426 C2422 1.427 . S
N2426 C2423 1.384 . S
N2427 C2419 1.427 . S
N2427 C2425 1.384 . S
H2428 C2434 0.930 . S
H2429 C2438 0.930 . S
H2430 C2443 0.929 . S
H2431 C2441 0.929 . S
H2432 C2436 0.929 . S
H2433 C2442 0.929 . S
C2434 H2428 0.930 . S
C2434 C2435 1.367 . S
C2434 C2442 1.378 . S
C2435 C2434 1.367 . S
C2435 C2443 1.433 . S
C2436 H2432 0.929 . S
C2436 C2438 1.378 1_655 S
C2436 C2440 1.350 . S
C2437 C2440 1.463 . S
C2437 C2442 1.350 . S
C2437 N2445 1.427 . S
C2438 H2429 0.930 . S
C2438 C2436 1.378 1_455 S
C2438 C2439 1.367 1_455 S
C2439 C2438 1.367 1_655 S
C2439 C2441 1.433 . S
C2440 C2436 1.350 . S
C2440 C2437 1.463 . S
C2440 N2444 1.427 . S
C2441 H2431 0.929 . S
C2441 C2439 1.433 . S
C2441 N2444 1.384 . S
C2442 H2433 0.929 . S
C2442 C2434 1.378 . S
C2442 C2437 1.350 . S
C2443 H2430 0.929 . S
C2443 C2435 1.433 . S
C2443 N2445 1.384 . S
N2444 C2440 1.427 . S
N2444 C2441 1.384 . S
N2445 C2437 1.427 . S
N2445 C2443 1.384 . S
H2446 C2452 0.930 . S
H2447 C2456 0.930 . S
H2448 C2461 0.929 . S
H2449 C2459 0.929 . S
H2450 C2454 0.929 . S
H2451 C2460 0.929 . S
C2452 H2446 0.930 . S
C2452 C2453 1.367 . S
C2452 C2460 1.378 . S
C2453 C2452 1.367 . S
C2453 C2461 1.433 . S
C2454 H2450 0.929 . S
C2454 C2456 1.378 . S
C2454 C2458 1.350 . S
C2455 C2458 1.463 . S
C2455 C2460 1.350 . S
C2455 N2463 1.427 . S
C2456 H2447 0.930 . S
C2456 C2454 1.378 . S
C2456 C2457 1.367 . S
C2457 C2456 1.367 . S
C2457 C2459 1.433 . S
C2458 C2454 1.350 . S
C2458 C2455 1.463 . S
C2458 N2462 1.427 . S
C2459 H2449 0.929 . S
C2459 C2457 1.433 . S
C2459 N2462 1.384 . S
C2460 H2451 0.929 . S
C2460 C2452 1.378 . S
C2460 C2455 1.350 . S
C2461 H2448 0.929 . S
C2461 C2453 1.433 . S
C2461 N2463 1.384 . S
N2462 C2458 1.427 . S
N2462 C2459 1.384 . S
N2463 C2455 1.427 . S
N2463 C2461 1.384 . S
H2464 C2470 0.930 . S
H2465 C2474 0.930 . S
H2466 C2479 0.929 . S
H2467 C2477 0.929 . S
H2468 C2472 0.929 . S
H2469 C2478 0.929 . S
C2470 H2464 0.930 . S
C2470 C2471 1.367 . S
C2470 C2478 1.378 . S
C2471 C2470 1.367 . S
C2471 C2479 1.433 . S
C2472 H2468 0.929 . S
C2472 C2474 1.378 . S
C2472 C2476 1.350 . S
C2473 C2476 1.463 . S
C2473 C2478 1.350 . S
C2473 N2481 1.427 . S
C2474 H2465 0.930 . S
C2474 C2472 1.378 . S
C2474 C2475 1.367 . S
C2475 C2474 1.367 . S
C2475 C2477 1.433 . S
C2476 C2472 1.350 . S
C2476 C2473 1.463 . S
C2476 N2480 1.427 . S
C2477 H2467 0.929 . S
C2477 C2475 1.433 . S
C2477 N2480 1.384 . S
C2478 H2469 0.929 . S
C2478 C2470 1.378 . S
C2478 C2473 1.350 . S
C2479 H2466 0.929 . S
C2479 C2471 1.433 . S
C2479 N2481 1.384 . S
N2480 C2476 1.427 . S
N2480 C2477 1.384 . S
N2481 C2473 1.427 . S
N2481 C2479 1.384 . S
H2482 C2488 0.930 . S
H2483 C2492 0.930 . S
H2484 C2497 0.929 . S
H2485 C2495 0.929 . S
H2486 C2490 0.929 . S
H2487 C2496 0.929 . S
C2488 H2482 0.930 . S
C2488 C2489 1.367 . S
C2488 C2496 1.378 . S
C2489 C2488 1.367 . S
C2489 C2497 1.433 . S
C2490 H2486 0.929 . S
C2490 C2492 1.378 . S
C2490 C2494 1.350 . S
C2491 C2494 1.463 . S
C2491 C2496 1.350 . S
C2491 N2499 1.427 . S
C2492 H2483 0.930 . S
C2492 C2490 1.378 . S
C2492 C2493 1.367 . S
C2493 C2492 1.367 . S
C2493 C2495 1.433 . S
C2494 C2490 1.350 . S
C2494 C2491 1.463 . S
C2494 N2498 1.427 . S
C2495 H2485 0.929 . S
C2495 C2493 1.433 . S
C2495 N2498 1.384 . S
C2496 H2487 0.929 . S
C2496 C2488 1.378 . S
C2496 C2491 1.350 . S
C2497 H2484 0.929 . S
C2497 C2489 1.433 . S
C2497 N2499 1.384 . S
N2498 C2494 1.427 . S
N2498 C2495 1.384 . S
N2499 C2491 1.427 . S
N2499 C2497 1.384 . S
H2500 C2506 0.930 . S
H2501 C2510 0.930 . S
H2502 C2515 0.929 . S
H2503 C2513 0.929 . S
H2504 C2508 0.929 . S
H2505 C2514 0.929 . S
C2506 H2500 0.930 . S
C2506 C2507 1.367 . S
C2506 C2514 1.378 . S
C2507 C2506 1.367 . S
C2507 C2515 1.433 . S
C2508 H2504 0.929 . S
C2508 C2510 1.378 . S
C2508 C2512 1.350 . S
C2509 C2512 1.463 . S
C2509 C2514 1.350 . S
C2509 N2517 1.427 . S
C2510 H2501 0.930 . S
C2510 C2508 1.378 . S
C2510 C2511 1.367 . S
C2511 C2510 1.367 . S
C2511 C2513 1.433 . S
C2512 C2508 1.350 . S
C2512 C2509 1.463 . S
C2512 N2516 1.427 . S
C2513 H2503 0.929 . S
C2513 C2511 1.433 . S
C2513 N2516 1.384 . S
C2514 H2505 0.929 . S
C2514 C2506 1.378 . S
C2514 C2509 1.350 . S
C2515 H2502 0.929 . S
C2515 C2507 1.433 . S
C2515 N2517 1.384 . S
N2516 C2512 1.427 . S
N2516 C2513 1.384 . S
N2517 C2509 1.427 . S
N2517 C2515 1.384 . S
H2518 C2524 0.930 . S
H2519 C2528 0.930 . S
H2520 C2533 0.929 . S
H2521 C2531 0.929 . S
H2522 C2526 0.929 . S
H2523 C2532 0.929 . S
C2524 H2518 0.930 . S
C2524 C2525 1.367 . S
C2524 C2532 1.378 . S
C2525 C2524 1.367 . S
C2525 C2533 1.433 . S
C2526 H2522 0.929 . S
C2526 C2528 1.378 . S
C2526 C2530 1.350 . S
C2527 C2530 1.463 . S
C2527 C2532 1.350 . S
C2527 N2535 1.427 . S
C2528 H2519 0.930 . S
C2528 C2526 1.378 . S
C2528 C2529 1.367 . S
C2529 C2528 1.367 . S
C2529 C2531 1.433 . S
C2530 C2526 1.350 . S
C2530 C2527 1.463 . S
C2530 N2534 1.427 . S
C2531 H2521 0.929 . S
C2531 C2529 1.433 . S
C2531 N2534 1.384 . S
C2532 H2523 0.929 . S
C2532 C2524 1.378 . S
C2532 C2527 1.350 . S
C2533 H2520 0.929 . S
C2533 C2525 1.433 . S
C2533 N2535 1.384 . S
N2534 C2530 1.427 . S
N2534 C2531 1.384 . S
N2535 C2527 1.427 . S
N2535 C2533 1.384 . S
H2536 C2542 0.930 . S
H2537 C2546 0.930 . S
H2538 C2551 0.929 . S
H2539 C2549 0.929 . S
H2540 C2544 0.929 . S
H2541 C2550 0.929 . S
C2542 H2536 0.930 . S
C2542 C2543 1.367 . S
C2542 C2550 1.378 . S
C2543 C2542 1.367 . S
C2543 C2551 1.433 . S
C2544 H2540 0.929 . S
C2544 C2546 1.378 . S
C2544 C2548 1.350 . S
C2545 C2548 1.463 . S
C2545 C2550 1.350 . S
C2545 N2553 1.427 . S
C2546 H2537 0.930 . S
C2546 C2544 1.378 . S
C2546 C2547 1.367 . S
C2547 C2546 1.367 . S
C2547 C2549 1.433 . S
C2548 C2544 1.350 . S
C2548 C2545 1.463 . S
C2548 N2552 1.427 . S
C2549 H2539 0.929 . S
C2549 C2547 1.433 . S
C2549 N2552 1.384 . S
C2550 H2541 0.929 . S
C2550 C2542 1.378 . S
C2550 C2545 1.350 . S
C2551 H2538 0.929 . S
C2551 C2543 1.433 . S
C2551 N2553 1.384 . S
N2552 C2548 1.427 . S
N2552 C2549 1.384 . S
N2553 C2545 1.427 . S
N2553 C2551 1.384 . S
H2554 C2560 0.930 . S
H2555 C2564 0.930 . S
H2556 C2569 0.929 . S
H2557 C2567 0.929 . S
H2558 C2562 0.929 . S
H2559 C2568 0.929 . S
C2560 H2554 0.930 . S
C2560 C2561 1.367 . S
C2560 C2568 1.378 . S
C2561 C2560 1.367 . S
C2561 C2569 1.433 . S
C2562 H2558 0.929 . S
C2562 C2564 1.378 . S
C2562 C2566 1.350 . S
C2563 C2566 1.463 . S
C2563 C2568 1.350 . S
C2563 N2571 1.427 . S
C2564 H2555 0.930 . S
C2564 C2562 1.378 . S
C2564 C2565 1.367 . S
C2565 C2564 1.367 . S
C2565 C2567 1.433 . S
C2566 C2562 1.350 . S
C2566 C2563 1.463 . S
C2566 N2570 1.427 . S
C2567 H2557 0.929 . S
C2567 C2565 1.433 . S
C2567 N2570 1.384 . S
C2568 H2559 0.929 . S
C2568 C2560 1.378 . S
C2568 C2563 1.350 . S
C2569 H2556 0.929 . S
C2569 C2561 1.433 . S
C2569 N2571 1.384 . S
N2570 C2566 1.427 . S
N2570 C2567 1.384 . S
N2571 C2563 1.427 . S
N2571 C2569 1.384 . S
H2572 C2578 0.930 . S
H2573 C2582 0.930 . S
H2574 C2587 0.929 . S
H2575 C2585 0.929 . S
H2576 C2580 0.929 . S
H2577 C2586 0.929 . S
C2578 H2572 0.930 . S
C2578 C2579 1.367 . S
C2578 C2586 1.378 . S
C2579 C2578 1.367 . S
C2579 C2587 1.433 . S
C2580 H2576 0.929 . S
C2580 C2582 1.378 . S
C2580 C2584 1.350 . S
C2581 C2584 1.463 . S
C2581 C2586 1.350 . S
C2581 N2589 1.427 . S
C2582 H2573 0.930 . S
C2582 C2580 1.378 . S
C2582 C2583 1.367 . S
C2583 C2582 1.367 . S
C2583 C2585 1.433 . S
C2584 C2580 1.350 . S
C2584 C2581 1.463 . S
C2584 N2588 1.427 . S
C2585 H2575 0.929 . S
C2585 C2583 1.433 . S
C2585 N2588 1.384 . S
C2586 H2577 0.929 . S
C2586 C2578 1.378 . S
C2586 C2581 1.350 . S
C2587 H2574 0.929 . S
C2587 C2579 1.433 . S
C2587 N2589 1.384 . S
N2588 C2584 1.427 . S
N2588 C2585 1.384 . S
N2589 C2581 1.427 . S
N2589 C2587 1.384 . S
H2590 C2596 0.930 . S
H2591 C2600 0.930 . S
H2592 C2605 0.929 . S
H2593 C2603 0.929 . S
H2594 C2598 0.929 . S
H2595 C2604 0.929 . S
C2596 H2590 0.930 . S
C2596 C2597 1.367 . S
C2596 C2604 1.378 . S
C2597 C2596 1.367 . S
C2597 C2605 1.433 . S
C2598 H2594 0.929 . S
C2598 C2600 1.378 . S
C2598 C2602 1.350 . S
C2599 C2602 1.463 . S
C2599 C2604 1.350 . S
C2599 N2607 1.427 . S
C2600 H2591 0.930 . S
C2600 C2598 1.378 . S
C2600 C2601 1.367 . S
C2601 C2600 1.367 . S
C2601 C2603 1.433 . S
C2602 C2598 1.350 . S
C2602 C2599 1.463 . S
C2602 N2606 1.427 . S
C2603 H2593 0.929 . S
C2603 C2601 1.433 . S
C2603 N2606 1.384 . S
C2604 H2595 0.929 . S
C2604 C2596 1.378 . S
C2604 C2599 1.350 . S
C2605 H2592 0.929 . S
C2605 C2597 1.433 . S
C2605 N2607 1.384 . S
N2606 C2602 1.427 . S
N2606 C2603 1.384 . S
N2607 C2599 1.427 . S
N2607 C2605 1.384 . S
H2608 C2614 0.930 . S
H2609 C2618 0.930 . S
H2610 C2623 0.929 . S
H2611 C2621 0.929 . S
H2612 C2616 0.929 . S
H2613 C2622 0.929 . S
C2614 H2608 0.930 . S
C2614 C2615 1.367 . S
C2614 C2622 1.378 . S
C2615 C2614 1.367 . S
C2615 C2623 1.433 . S
C2616 H2612 0.929 . S
C2616 C2618 1.378 . S
C2616 C2620 1.350 . S
C2617 C2620 1.463 . S
C2617 C2622 1.350 . S
C2617 N2625 1.427 . S
C2618 H2609 0.930 . S
C2618 C2616 1.378 . S
C2618 C2619 1.367 . S
C2619 C2618 1.367 . S
C2619 C2621 1.433 . S
C2620 C2616 1.350 . S
C2620 C2617 1.463 . S
C2620 N2624 1.427 . S
C2621 H2611 0.929 . S
C2621 C2619 1.433 . S
C2621 N2624 1.384 . S
C2622 H2613 0.929 . S
C2622 C2614 1.378 . S
C2622 C2617 1.350 . S
C2623 H2610 0.929 . S
C2623 C2615 1.433 . S
C2623 N2625 1.384 . S
N2624 C2620 1.427 . S
N2624 C2621 1.384 . S
N2625 C2617 1.427 . S
N2625 C2623 1.384 . S
H2626 C2632 0.930 . S
H2627 C2636 0.930 . S
H2628 C2641 0.929 . S
H2629 C2639 0.929 . S
H2630 C2634 0.929 . S
H2631 C2640 0.929 . S
C2632 H2626 0.930 . S
C2632 C2633 1.367 . S
C2632 C2640 1.378 . S
C2633 C2632 1.367 . S
C2633 C2641 1.433 . S
C2634 H2630 0.929 . S
C2634 C2636 1.378 . S
C2634 C2638 1.350 . S
C2635 C2638 1.463 . S
C2635 C2640 1.350 . S
C2635 N2643 1.427 . S
C2636 H2627 0.930 . S
C2636 C2634 1.378 . S
C2636 C2637 1.367 . S
C2637 C2636 1.367 . S
C2637 C2639 1.433 . S
C2638 C2634 1.350 . S
C2638 C2635 1.463 . S
C2638 N2642 1.427 . S
C2639 H2629 0.929 . S
C2639 C2637 1.433 . S
C2639 N2642 1.384 . S
C2640 H2631 0.929 . S
C2640 C2632 1.378 . S
C2640 C2635 1.350 . S
C2641 H2628 0.929 . S
C2641 C2633 1.433 . S
C2641 N2643 1.384 . S
N2642 C2638 1.427 . S
N2642 C2639 1.384 . S
N2643 C2635 1.427 . S
N2643 C2641 1.384 . S
H2644 C2650 0.930 . S
H2645 C2654 0.930 . S
H2646 C2659 0.929 . S
H2647 C2657 0.929 . S
H2648 C2652 0.929 . S
H2649 C2658 0.929 . S
C2650 H2644 0.930 . S
C2650 C2651 1.367 . S
C2650 C2658 1.378 . S
C2651 C2650 1.367 . S
C2651 C2659 1.433 . S
C2652 H2648 0.929 . S
C2652 C2654 1.378 . S
C2652 C2656 1.350 . S
C2653 C2656 1.463 . S
C2653 C2658 1.350 . S
C2653 N2661 1.427 . S
C2654 H2645 0.930 . S
C2654 C2652 1.378 . S
C2654 C2655 1.367 . S
C2655 C2654 1.367 . S
C2655 C2657 1.433 . S
C2656 C2652 1.350 . S
C2656 C2653 1.463 . S
C2656 N2660 1.427 . S
C2657 H2647 0.929 . S
C2657 C2655 1.433 . S
C2657 N2660 1.384 . S
C2658 H2649 0.929 . S
C2658 C2650 1.378 . S
C2658 C2653 1.350 . S
C2659 H2646 0.929 . S
C2659 C2651 1.433 . S
C2659 N2661 1.384 . S
N2660 C2656 1.427 . S
N2660 C2657 1.384 . S
N2661 C2653 1.427 . S
N2661 C2659 1.384 . S
H2662 C2668 0.930 . S
H2663 C2672 0.930 . S
H2664 C2677 0.929 . S
H2665 C2675 0.929 . S
H2666 C2670 0.929 . S
H2667 C2676 0.929 . S
C2668 H2662 0.930 . S
C2668 C2669 1.367 . S
C2668 C2676 1.378 . S
C2669 C2668 1.367 . S
C2669 C2677 1.433 . S
C2670 H2666 0.929 . S
C2670 C2672 1.378 . S
C2670 C2674 1.350 . S
C2671 C2674 1.463 . S
C2671 C2676 1.350 . S
C2671 N2679 1.427 . S
C2672 H2663 0.930 . S
C2672 C2670 1.378 . S
C2672 C2673 1.367 . S
C2673 C2672 1.367 . S
C2673 C2675 1.433 . S
C2674 C2670 1.350 . S
C2674 C2671 1.463 . S
C2674 N2678 1.427 . S
C2675 H2665 0.929 . S
C2675 C2673 1.433 . S
C2675 N2678 1.384 . S
C2676 H2667 0.929 . S
C2676 C2668 1.378 . S
C2676 C2671 1.350 . S
C2677 H2664 0.929 . S
C2677 C2669 1.433 . S
C2677 N2679 1.384 . S
N2678 C2674 1.427 . S
N2678 C2675 1.384 . S
N2679 C2671 1.427 . S
N2679 C2677 1.384 . S
C959 C101 2.321 . S
C963 C322 2.220 . S
C977 C57 1.947 . S
C981 C370 1.969 . S
C995 C70 1.155 . S
C999 C402 1.139 . S
C1017 C447 1.601 . S
C1013 C82 1.645 . S
C1031 C23 0.890 . S
C1035 C487 0.882 . S
C1053 C522 0.771 . S
C1049 C29 0.771 . S
C1071 C561 1.342 . S
C1067 C49 1.324 . S
C1085 C10 1.233 . S
C1089 C598 1.221 . S
C1107 C330 2.013 . S
C1103 C218 1.994 . S
C1121 C226 0.350 . S
C1125 C367 0.497 . S
C1143 C410 2.334 . S
C1139 C251 2.322 . S
C1161 C442 0.966 . S
C1157 C159 0.995 1_556 S
C1175 C211 1.156 . S
C1179 C482 1.126 . S
C1197 C530 0.233 . S
C1193 C225 0.334 . S
C1215 C571 1.947 . S
C1211 C252 2.023 . S
C1233 C601 1.998 . S
C1229 C166 2.001 . S
C1251 C327 1.525 . S
C1247 C147 1.554 . S
C1265 C263 2.067 . S
C1269 C650 2.074 . S
C1287 C687 1.276 . S
C1283 C309 1.286 . S
C1305 C718 0.734 . S
C1301 C291 0.738 . S
C1319 C108 2.743 . S
C1323 C611 2.703 . S
C1337 C121 1.418 . S
C1341 C407 1.396 . S
C1355 C302 1.687 . S
C1359 C770 1.741 . S
C1377 C802 1.752 . S
C1373 C276 1.781 . S
C1395 C331 2.308 . S
C1391 C55 2.365 . S
C1413 C801 2.330 . S
C1409 C96 2.345 . S
C1427 C88 1.506 . S
C1431 C411 1.496 . S
C1445 C75 1.787 . S
C1449 C758 1.745 . S
C1467 C478 1.086 . S
C1463 C4 1.094 . S
C1481 C44 1.342 . S
C1485 C691 1.337 . S
C1503 C570 1.313 1_556 S
C1499 C31 1.319 . S
C1521 C847 1.395 . S
C1517 C18 1.395 . S
C1539 C321 2.218 1_556 S
C1535 C133 2.222 . S
C1557 C798 0.497 . S
C1553 C296 0.449 . S
C1571 C107 2.608 . S
C1575 C401 2.582 . S
C1589 C264 1.365 . S
C1593 C771 1.353 . S
C1607 C140 1.523 . S
C1611 C491 1.498 . S
C1629 C681 0.625 . S
C1625 C289 0.623 . S
C1643 C114 2.341 . S
C1647 C562 2.265 . S
C1661 C265 2.116 . S
C1665 C850 2.092 . S
C1679 C179 1.320 . S
C1683 C318 1.309 . S
C1697 C161 2.419 . S
C1701 C641 2.377 . S
C1715 C244 1.359 . S
C1719 C518 1.356 . S
C1733 C224 0.617 . S
C1737 C727 0.623 . S
C1755 C842 2.892 . S
C1751 C257 2.942 . S
C1769 C199 1.612 . S
C1773 C398 1.589 . S
C1791 C441 1.953 . S
C1787 C237 1.944 . S
C1809 C371 2.028 . S
C1805 C185 2.036 . S
C1823 C69 2.322 . S
C1827 C882 2.221 . S
C1845 C810 1.965 . S
C1841 C83 1.946 . S
C1859 C94 1.156 . S
C1863 C922 1.125 . S
C1877 C56 1.639 . S
C1881 C767 1.589 . S
C1895 C42 0.898 . S
C1899 C647 0.888 . S
C1917 C682 0.767 . S
C1913 C3 0.772 . S
C1935 C721 1.353 . S
C1931 C16 1.334 . S
C1953 C838 1.218 . S
C1949 C36 1.233 . S
C1971 C890 2.013 . S
C1967 C238 1.995 . S
C1985 C174 0.388 . S
C1989 C807 0.536 . S
C2007 C930 2.334 . S
C2003 C186 2.324 . S
C2025 C762 0.965 . S
C2021 C198 0.993 . S
C2043 C642 1.130 . S
C2039 C239 1.158 . S
C2057 C173 0.332 . S
C2061 C690 0.231 . S
C2079 C731 1.949 . S
C2075 C187 2.025 . S
C2093 C205 2.003 . S
C2097 C841 1.999 . S
C2115 C887 1.527 . S
C2111 C290 1.558 . S
C2129 C122 2.065 . S
C2133 C490 2.074 . S
C2151 C527 1.292 . S
C2147 C134 1.298 1_565 S
C2169 C558 0.736 . S
C2165 C148 0.741 . S
C2187 C851 2.693 . S
C2183 C283 2.737 . S
C2201 C270 1.418 . S
C2205 C927 1.394 . S
C2223 C450 1.743 . S
C2219 C135 1.694 . S
C2241 C362 1.749 . S
C2237 C109 1.782 . S
C2255 C81 2.363 . S
C2259 C891 2.300 . S
C2277 C361 2.324 . S
C2273 C68 2.344 . S
C2291 C62 1.507 . S
C2295 C931 1.494 . S
C2309 C95 1.790 . S
C2313 C438 1.754 . S
C2327 C30 1.093 . S
C2331 C638 1.088 . S
C2349 C531 1.331 . S
C2345 C17 1.329 . S
C2363 C5 1.320 . S
C2367 C730 1.312 . S
C2381 C43 1.386 . S
C2385 C607 1.386 . S
C2403 C881 2.214 . S
C2399 C304 2.222 . S
C2417 C153 0.437 . S
C2421 C358 0.480 . S
C2439 C921 2.582 1_656 S
C2435 C278 2.611 . S
C2453 C127 1.366 . S
C2457 C451 1.349 . S
C2471 C303 1.520 . S
C2475 C651 1.495 . S
C2493 C521 0.622 . S
C2489 C146 0.623 . S
C2507 C277 2.335 . S
C2511 C722 2.261 1_655 S
C2529 C610 2.084 . S
C2525 C120 2.110 . S
C2547 C878 1.314 . S
C2543 C231 1.326 . S
C2565 C481 2.381 1_665 S
C2561 C200 2.417 . S
C2579 C212 1.359 . S
C2583 C678 1.349 . S
C2601 C567 0.639 . S
C2597 C172 0.627 . S
C2615 C192 2.941 . S
C2619 C602 2.890 . S
C2633 C160 1.611 . S
C2637 C918 1.586 . S
C2655 C761 1.950 . S
C2651 C213 1.944 . S
C2673 C811 2.029 . S
C2669 C250 2.037 . S
