# Generated by pormake.
# Topology myd, (4,6)-cn, num edge types: 1
# Building blocks:
#     Node 0, Type 0, BuildingBlock: NAWXER_clean_sbu_0, # of connection points: 4
#     Node 1, Type 0, BuildingBlock: NAWXER_clean_sbu_0, # of connection points: 4
#     Node 2, Type 0, BuildingBlock: NAWXER_clean_sbu_0, # of connection points: 4
#     Node 3, Type 0, BuildingBlock: NAWXER_clean_sbu_0, # of connection points: 4
#     Node 4, Type 0, BuildingBlock: NAWXER_clean_sbu_0, # of connection points: 4
#     Node 5, Type 0, BuildingBlock: NAWXER_clean_sbu_0, # of connection points: 4
#     Node 6, Type 0, BuildingBlock: NAWXER_clean_sbu_0, # of connection points: 4
#     Node 7, Type 0, BuildingBlock: NAWXER_clean_sbu_0, # of connection points: 4
#     Node 8, Type 0, BuildingBlock: NAWXER_clean_sbu_0, # of connection points: 4
#     Node 9, Type 0, BuildingBlock: NAWXER_clean_sbu_0, # of connection points: 4
#     Node 10, Type 0, BuildingBlock: NAWXER_clean_sbu_0, # of connection points: 4
#     Node 11, Type 0, BuildingBlock: NAWXER_clean_sbu_0, # of connection points: 4
#     Node 12, Type 1, BuildingBlock: CIFDUS_clean_sbu_1, # of connection points: 6
#     Node 13, Type 1, BuildingBlock: CIFDUS_clean_sbu_1, # of connection points: 6
#     Node 14, Type 1, BuildingBlock: CIFDUS_clean_sbu_1, # of connection points: 6
#     Node 15, Type 1, BuildingBlock: CIFDUS_clean_sbu_1, # of connection points: 6
#     Node 16, Type 1, BuildingBlock: CIFDUS_clean_sbu_1, # of connection points: 6
#     Node 17, Type 1, BuildingBlock: CIFDUS_clean_sbu_1, # of connection points: 6
#     Node 18, Type 1, BuildingBlock: CIFDUS_clean_sbu_1, # of connection points: 6
#     Node 19, Type 1, BuildingBlock: CIFDUS_clean_sbu_1, # of connection points: 6
#     Edge 20, Type (0, 1), BuildingBlock: CIFDUS_clean_linker_0, # of connection points: 2
#     Edge 21, Type (0, 1), BuildingBlock: CIFDUS_clean_linker_0, # of connection points: 2
#     Edge 22, Type (0, 1), BuildingBlock: CIFDUS_clean_linker_0, # of connection points: 2
#     Edge 23, Type (0, 1), BuildingBlock: CIFDUS_clean_linker_0, # of connection points: 2
#     Edge 24, Type (0, 1), BuildingBlock: CIFDUS_clean_linker_0, # of connection points: 2
#     Edge 25, Type (0, 1), BuildingBlock: CIFDUS_clean_linker_0, # of connection points: 2
#     Edge 26, Type (0, 1), BuildingBlock: CIFDUS_clean_linker_0, # of connection points: 2
#     Edge 27, Type (0, 1), BuildingBlock: CIFDUS_clean_linker_0, # of connection points: 2
#     Edge 28, Type (0, 1), BuildingBlock: CIFDUS_clean_linker_0, # of connection points: 2
#     Edge 29, Type (0, 1), BuildingBlock: CIFDUS_clean_linker_0, # of connection points: 2
#     Edge 30, Type (0, 1), BuildingBlock: CIFDUS_clean_linker_0, # of connection points: 2
#     Edge 31, Type (0, 1), BuildingBlock: CIFDUS_clean_linker_0, # of connection points: 2
#     Edge 32, Type (0, 1), BuildingBlock: CIFDUS_clean_linker_0, # of connection points: 2
#     Edge 33, Type (0, 1), BuildingBlock: CIFDUS_clean_linker_0, # of connection points: 2
#     Edge 34, Type (0, 1), BuildingBlock: CIFDUS_clean_linker_0, # of connection points: 2
#     Edge 35, Type (0, 1), BuildingBlock: CIFDUS_clean_linker_0, # of connection points: 2
#     Edge 36, Type (0, 1), BuildingBlock: CIFDUS_clean_linker_0, # of connection points: 2
#     Edge 37, Type (0, 1), BuildingBlock: CIFDUS_clean_linker_0, # of connection points: 2
#     Edge 38, Type (0, 1), BuildingBlock: CIFDUS_clean_linker_0, # of connection points: 2
#     Edge 39, Type (0, 1), BuildingBlock: CIFDUS_clean_linker_0, # of connection points: 2
#     Edge 40, Type (0, 1), BuildingBlock: CIFDUS_clean_linker_0, # of connection points: 2
#     Edge 41, Type (0, 1), BuildingBlock: CIFDUS_clean_linker_0, # of connection points: 2
#     Edge 42, Type (0, 1), BuildingBlock: CIFDUS_clean_linker_0, # of connection points: 2
#     Edge 43, Type (0, 1), BuildingBlock: CIFDUS_clean_linker_0, # of connection points: 2
#     Edge 44, Type (0, 1), BuildingBlock: CIFDUS_clean_linker_0, # of connection points: 2
#     Edge 45, Type (0, 1), BuildingBlock: CIFDUS_clean_linker_0, # of connection points: 2
#     Edge 46, Type (0, 1), BuildingBlock: CIFDUS_clean_linker_0, # of connection points: 2
#     Edge 47, Type (0, 1), BuildingBlock: CIFDUS_clean_linker_0, # of connection points: 2
#     Edge 48, Type (0, 1), BuildingBlock: CIFDUS_clean_linker_0, # of connection points: 2
#     Edge 49, Type (0, 1), BuildingBlock: CIFDUS_clean_linker_0, # of connection points: 2
#     Edge 50, Type (0, 1), BuildingBlock: CIFDUS_clean_linker_0, # of connection points: 2
#     Edge 51, Type (0, 1), BuildingBlock: CIFDUS_clean_linker_0, # of connection points: 2
#     Edge 52, Type (0, 1), BuildingBlock: CIFDUS_clean_linker_0, # of connection points: 2
#     Edge 53, Type (0, 1), BuildingBlock: CIFDUS_clean_linker_0, # of connection points: 2
#     Edge 54, Type (0, 1), BuildingBlock: CIFDUS_clean_linker_0, # of connection points: 2
#     Edge 55, Type (0, 1), BuildingBlock: CIFDUS_clean_linker_0, # of connection points: 2
#     Edge 56, Type (0, 1), BuildingBlock: CIFDUS_clean_linker_0, # of connection points: 2
#     Edge 57, Type (0, 1), BuildingBlock: CIFDUS_clean_linker_0, # of connection points: 2
#     Edge 58, Type (0, 1), BuildingBlock: CIFDUS_clean_linker_0, # of connection points: 2
#     Edge 59, Type (0, 1), BuildingBlock: CIFDUS_clean_linker_0, # of connection points: 2
#     Edge 60, Type (0, 1), BuildingBlock: CIFDUS_clean_linker_0, # of connection points: 2
#     Edge 61, Type (0, 1), BuildingBlock: CIFDUS_clean_linker_0, # of connection points: 2
#     Edge 62, Type (0, 1), BuildingBlock: CIFDUS_clean_linker_0, # of connection points: 2
#     Edge 63, Type (0, 1), BuildingBlock: CIFDUS_clean_linker_0, # of connection points: 2
#     Edge 64, Type (0, 1), BuildingBlock: CIFDUS_clean_linker_0, # of connection points: 2
#     Edge 65, Type (0, 1), BuildingBlock: CIFDUS_clean_linker_0, # of connection points: 2
#     Edge 66, Type (0, 1), BuildingBlock: CIFDUS_clean_linker_0, # of connection points: 2
#     Edge 67, Type (0, 1), BuildingBlock: CIFDUS_clean_linker_0, # of connection points: 2
# Relax obj value: 0.215
# Max RMSD: 0.186
# Mean RMSD: 0.133
data_MOF--net-myd--node1-NAWXER_clean_sbu_0--node2-CIFDUS_clean_sbu_1--edge1-CIFDUS_clean_linker_0
_symmetry_space_group_name_H-M    P1
_symmetry_Int_Tables_number       1
_symmetry_cell_setting            triclinic
loop_
_symmetry_equiv_pos_as_xyz
'x, y, z'
_cell_length_a     39.461358
_cell_length_b     39.90991
_cell_length_c     39.078722
_cell_angle_alpha  90.616946
_cell_angle_beta   91.606343
_cell_angle_gamma 92.23769
loop_
_atom_site_label
_atom_site_type_symbol
_atom_site_fract_x
_atom_site_fract_y
_atom_site_fract_z
_atom_type_partial_charge
C0 C 0.99122 0.22788 0.25485 0.0
C1 C 1.00237 0.3186 0.34152 0.0
O2 O 0.02153 0.23611 0.26528 0.0
Zn3 Zn 0.04915 0.26784 0.30133 0.0
O4 O 0.96625 0.24187 0.26832 0.0
Zn5 Zn 0.99415 0.271 0.29998 0.0
O6 O 0.02005 0.30207 0.26471 0.0
O7 O 0.07552 0.29677 0.27016 0.0
O8 O 0.97491 0.3054 0.32876 0.0
O9 O 0.03071 0.30592 0.33424 0.0
O10 O 0.06928 0.23306 0.33111 0.0
O11 O 0.01361 0.23443 0.33366 0.0
C12 C 0.05012 0.31019 0.25569 0.0
C13 C 0.04151 0.22124 0.34276 0.0
C14 C 0.02991 0.80634 0.23307 0.0
C15 C 0.02417 0.71499 0.14464 0.0
O16 O 0.05727 0.79389 0.22269 0.0
Zn17 Zn 0.03433 0.76268 0.18737 0.0
O18 O 1.00146 0.79636 0.21964 0.0
Zn19 Zn 0.97769 0.76441 0.18382 0.0
O20 O 0.95236 0.73423 0.21384 0.0
O21 O 0.00788 0.73072 0.22128 0.0
O22 O 0.99733 0.72896 0.15333 0.0
O23 O 0.05274 0.72627 0.1571 0.0
O24 O 0.0149 0.799 0.15324 0.0
O25 O 0.95872 0.7955 0.15132 0.0
C26 C 0.97774 0.72139 0.22905 0.0
C27 C 0.98647 0.8094 0.14183 0.0
C28 C 0.34879 0.99955 0.19892 0.0
C29 C 0.25558 0.98511 0.27747 0.0
O30 O 0.33582 0.97147 0.20806 0.0
Zn31 Zn 0.305 0.98882 0.24187 0.0
O32 O 0.34089 0.02658 0.2139 0.0
Zn33 Zn 0.30678 0.04254 0.25051 0.0
O34 O 0.33525 0.05956 0.28898 0.0
O35 O 0.33449 1.00425 0.2863 0.0
O36 O 0.26702 0.01537 0.27488 0.0
O37 O 0.26979 0.96119 0.26234 0.0
O38 O 0.27448 0.01669 0.20816 0.0
O39 O 0.28031 0.07091 0.22025 0.0
C40 C 0.34371 0.03175 0.30163 0.0
C41 C 0.26737 0.04694 0.20163 0.0
C42 C 0.74026 0.52536 0.2082 0.0
C43 C 0.65645 0.52453 0.30134 0.0
O44 O 0.72891 0.49636 0.21716 0.0
Zn45 Zn 0.69475 0.47369 0.25252 0.0
O46 O 0.72994 0.55144 0.22321 0.0
Zn47 Zn 0.69703 0.52824 0.25358 0.0
O48 O 0.72995 0.50469 0.28879 0.0
O49 O 0.72509 0.4494 0.28259 0.0
O50 O 0.66753 0.55083 0.28636 0.0
O51 O 0.66444 0.49572 0.29017 0.0
O52 O 0.66225 0.45038 0.22143 0.0
O53 O 0.66267 0.50551 0.21679 0.0
C54 C 0.73803 0.47533 0.29796 0.0
C55 C 0.6519 0.47635 0.20638 0.0
C56 C 0.19595 0.35296 1.00363 0.0
C57 C 0.27932 0.26495 0.98902 0.0
O58 O 0.20081 0.33754 0.97555 0.0
Zn59 Zn 0.23906 0.3108 0.99097 0.0
O60 O 0.21561 0.34827 0.02961 0.0
Zn61 Zn 0.2555 0.31719 0.04519 0.0
O62 O 0.29572 0.34814 0.05399 0.0
O63 O 0.28107 0.34442 0.99915 0.0
O64 O 0.27959 0.27896 0.01854 0.0
O65 O 0.25934 0.27477 0.96523 0.0
O66 O 0.21256 0.28076 0.02455 0.0
O67 O 0.2295 0.28907 0.07839 0.0
C68 C 0.30111 0.35623 0.02303 0.0
C69 C 0.20992 0.27399 0.05605 0.0
C70 C 0.20898 0.75948 0.50765 0.0
C71 C 0.29754 0.67636 0.50441 0.0
O72 O 0.2241 0.7508 0.48072 0.0
Zn73 Zn 0.25063 0.71597 0.50213 0.0
O74 O 0.2155 0.74537 0.53618 0.0
Zn75 Zn 0.24721 0.70839 0.55712 0.0
O76 O 0.27757 0.73578 0.58809 0.0
O77 O 0.28298 0.74659 0.53308 0.0
O78 O 0.28456 0.68 0.53377 0.0
O79 O 0.28469 0.691 0.47858 0.0
O80 O 0.21199 0.68083 0.51591 0.0
O81 O 0.21258 0.67599 0.57215 0.0
C82 C 0.2918 0.7523 0.56429 0.0
C83 C 0.19925 0.66826 0.5429 0.0
C84 C 0.70049 0.85526 0.4989 0.0
C85 C 0.79076 0.77329 0.48924 0.0
O86 O 0.71404 0.84559 0.47143 0.0
Zn87 Zn 0.74957 0.81813 0.49015 0.0
O88 O 0.71441 0.84809 0.52782 0.0
Zn89 Zn 0.75505 0.81766 0.54574 0.0
O90 O 0.79414 0.84668 0.56394 0.0
O91 O 0.78963 0.85024 0.50785 0.0
O92 O 0.78424 0.78252 0.51965 0.0
O93 O 0.77641 0.7872 0.46368 0.0
O94 O 0.71856 0.78274 0.51479 0.0
O95 O 0.72697 0.78431 0.57104 0.0
C96 C 0.80548 0.85799 0.53588 0.0
C97 C 0.71136 0.77202 0.54437 0.0
C98 C 0.4976 0.80464 0.7558 0.0
C99 C 0.50261 0.71859 0.84604 0.0
O100 O 0.47169 0.78834 0.76686 0.0
Zn101 Zn 0.49581 0.76613 0.80408 0.0
O102 O 0.52689 0.80096 0.76983 0.0
Zn103 Zn 0.55057 0.773 0.80967 0.0
O104 O 0.57916 0.74566 0.78026 0.0
O105 O 0.52388 0.73597 0.77245 0.0
O106 O 0.53161 0.73235 0.83991 0.0
O107 O 0.476 0.73159 0.83367 0.0
O108 O 0.51037 0.80846 0.83447 0.0
O109 O 0.56597 0.81087 0.84074 0.0
C110 C 0.55421 0.72986 0.76491 0.0
C111 C 0.53743 0.8237 0.84605 0.0
C112 C 0.48721 0.22067 0.72582 0.0
C113 C 0.50532 0.3123 0.64239 0.0
O114 O 0.46297 0.23319 0.70837 0.0
Zn115 Zn 0.49088 0.26425 0.68086 0.0
O116 O 0.51786 0.23037 0.72088 0.0
Zn117 Zn 0.5469 0.26314 0.69037 0.0
O118 O 0.56635 0.29364 0.72754 0.0
O119 O 0.51065 0.29516 0.7203 0.0
O120 O 0.53164 0.29977 0.65609 0.0
O121 O 0.47612 0.29899 0.64821 0.0
O122 O 0.51392 0.22797 0.65208 0.0
O123 O 0.56933 0.22941 0.66157 0.0
C124 C 0.53795 0.3052 0.73605 0.0
C125 C 0.5428 0.21601 0.64678 0.0
C126 C 0.75631 0.5342 0.7052 0.0
C127 C 0.84523 0.53271 0.79832 0.0
O128 O 0.76901 0.56088 0.71973 0.0
Zn129 Zn 0.80354 0.53856 0.7482 0.0
O130 O 0.76812 0.5058 0.7125 0.0
Zn131 Zn 0.80571 0.48427 0.74392 0.0
O132 O 0.77604 0.45589 0.77127 0.0
O133 O 0.77001 0.51053 0.77889 0.0
O134 O 0.83698 0.50417 0.78481 0.0
O135 O 0.83445 0.55919 0.78442 0.0
O136 O 0.83378 0.52336 0.70753 0.0
O137 O 0.83443 0.46823 0.70748 0.0
C138 C 0.76172 0.48017 0.78583 0.0
C139 C 0.84252 0.49605 0.69355 0.0
C140 C 0.22942 0.98708 0.70496 0.0
C141 C 0.14725 0.98315 0.80058 0.0
O142 O 0.21728 0.95922 0.71623 0.0
Zn143 Zn 0.18643 0.97897 0.75069 0.0
O144 O 0.21939 0.01448 0.71763 0.0
Zn145 Zn 0.18703 0.03501 0.75357 0.0
O146 O 0.22126 0.05749 0.78438 0.0
O147 O 0.22312 1.002 0.78327 0.0
O148 O 0.15672 0.01212 0.79026 0.0
O149 O 0.1567 0.95698 0.78497 0.0
O150 O 0.1527 1.001 0.71689 0.0
O151 O 0.15487 0.05631 0.72228 0.0
C152 C 0.23442 0.03049 0.79459 0.0
C153 C 0.14278 0.02959 0.70759 0.0
C154 C 0.70107 0.16757 0.03927 0.0
C155 C 0.79393 0.25053 0.05772 0.0
O156 O 0.71496 0.17494 0.0683 0.0
Zn157 Zn 0.74905 0.20732 0.05228 0.0
O158 O 0.71313 0.17988 0.01194 0.0
Zn159 Zn 0.75252 0.21259 0.99715 0.0
O160 O 0.78636 0.18649 0.97483 0.0
O161 O 0.78702 0.178 0.03049 0.0
O162 O 0.785 0.24344 0.02689 0.0
O163 O 0.77974 0.23528 0.08243 0.0
O164 O 0.71889 0.24592 0.03008 0.0
O165 O 0.72843 0.24753 0.97448 0.0
C166 C 0.79974 0.17324 1.00118 0.0
C167 C 0.7139 0.25898 1.00063 0.0
O168 O 0.01507 0.08619 0.08542 0.0
Mn169 Mn 0.04028 0.06085 0.04454 0.0
O170 O 0.04249 0.06488 0.12619 0.0
Mn171 Mn 0.07257 0.08404 0.09629 0.0
O172 O 0.06234 0.03809 1.00115 0.0
O173 O 0.99346 0.06327 0.02087 0.0
Mn174 Mn 0.98829 0.02497 0.9972 0.0
O175 O 0.02613 0.01402 0.06431 0.0
O176 O 0.02003 0.02403 0.96397 0.0
O177 O 0.05788 0.10701 0.02614 0.0
O178 O 0.06667 0.12679 0.07835 0.0
O179 O 0.94929 0.04617 0.98842 0.0
O180 O 0.98841 0.98932 0.02728 0.0
C181 C 0.11583 0.06268 0.0876 0.0
C182 C 0.018 0.0819 0.11774 0.0
C183 C 0.05145 0.02764 0.97125 0.0
C184 C 0.96297 0.06885 0.00898 0.0
C185 C 0.00668 0.98892 0.05464 0.0
C186 C 0.06747 0.13114 0.04645 0.0
O187 O 0.08942 0.05463 0.06709 0.0
O188 O 0.1138 0.08377 0.11282 0.0
O189 O 0.98756 0.44159 0.08846 0.0
Mn190 Mn 0.95852 0.46671 0.05057 0.0
O191 O 0.96231 0.44774 0.13659 0.0
Mn192 Mn 0.92609 0.44174 0.10661 0.0
O193 O 0.93169 0.48896 0.00821 0.0
O194 O 1.00012 0.45784 0.02162 0.0
Mn195 Mn 0.00755 0.49563 0.99915 0.0
O196 O 0.98028 0.51304 0.06783 0.0
O197 O 0.97131 0.50255 0.97013 0.0
O198 O 0.93655 0.42093 0.03384 0.0
O199 O 0.92368 0.40079 0.08463 0.0
O200 O 0.0403 0.4689 0.98467 0.0
O201 O 0.0199 0.529 0.03062 0.0
C202 C 0.89051 0.47607 0.10324 0.0
C203 C 0.98809 0.43934 0.12113 0.0
C204 C 0.94045 0.49947 0.97823 0.0
C205 C 0.02712 0.44804 0.00619 0.0
C206 C 0.00462 0.53294 0.05844 0.0
C207 C 0.9265 0.39682 0.05274 0.0
O208 O 0.91612 0.47793 0.08155 0.0
O209 O 0.88708 0.45096 0.12378 0.0
O210 O 0.09397 0.97451 0.42816 0.0
Mn211 Mn 0.04773 0.96509 0.44989 0.0
O212 O 0.09154 0.92817 0.39393 0.0
Mn213 Mn 0.05793 0.90272 0.4167 0.0
O214 O 0.99944 0.94758 0.4695 0.0
O215 O 0.03628 0.0163 0.44221 0.0
Mn216 Mn 0.01131 0.01518 0.48042 0.0
O217 O 0.06932 0.97504 0.49875 0.0
O218 O 0.97043 0.99284 0.4763 0.0
O219 O 0.02854 0.95721 0.39872 0.0
O220 O 0.01279 0.90624 0.40601 0.0
O221 O 0.00824 0.05705 0.46891 0.0
O222 O 0.03446 0.01078 0.52135 0.0
C223 C 0.07449 0.88631 0.46315 0.0
C224 C 0.10568 0.95625 0.40418 0.0
C225 C 0.97118 0.96148 0.47507 0.0
C226 C 0.02621 0.04775 0.44349 0.0
C227 C 0.06006 0.99292 0.52393 0.0
C228 C 0.01212 0.93119 0.38715 0.0
O229 O 0.06471 0.91709 0.4589 0.0
O230 O 0.06951 0.86528 0.43786 0.0
O231 O 0.93263 0.60739 0.47874 0.0
Mn232 Mn 0.95063 0.56619 0.45136 0.0
O233 O 0.88806 0.61577 0.44606 0.0
Mn234 Mn 0.91109 0.60622 0.40724 0.0
O235 O 0.96853 0.52399 0.42482 0.0
O236 O 0.94674 0.53993 0.49624 0.0
Mn237 Mn 0.98586 0.51934 0.49994 0.0
O238 O 1.00024 0.58454 0.46503 0.0
O239 O 0.98925 0.48935 0.46435 0.0
O240 O 0.90184 0.54556 0.43459 0.0
O241 O 0.89117 0.57097 0.38479 0.0
O242 O 0.96332 0.50575 0.53718 0.0
O243 O 0.02055 0.55111 0.50593 0.0
C244 C 0.96073 0.62308 0.39456 0.0
C245 C 0.90406 0.62059 0.47386 0.0
C246 C 0.98104 0.49583 0.43359 0.0
C247 C 0.94037 0.52519 0.52527 0.0
C248 C 0.02316 0.57691 0.48741 0.0
C249 C 0.88775 0.54589 0.40416 0.0
O250 O 0.95445 0.59294 0.40638 0.0
O251 O 0.93526 0.64245 0.39373 0.0
O252 O 0.49075 0.94146 0.58824 0.0
Mn253 Mn 0.46004 0.96593 0.55135 0.0
O254 O 0.47343 0.96485 0.6326 0.0
Mn255 Mn 0.43606 0.94779 0.60783 0.0
O256 O 0.43296 0.98649 0.50875 0.0
O257 O 0.5038 0.9606 0.52451 0.0
Mn258 Mn 0.50801 0.99855 0.50132 0.0
O259 O 0.47787 0.01367 0.56912 0.0
O260 O 0.47229 1.00087 0.47077 0.0
O261 O 0.44048 0.9192 0.53671 0.0
O262 O 0.43344 0.90394 0.59068 0.0
O263 O 0.54415 0.97521 0.48887 0.0
O264 O 0.51474 0.03438 0.53152 0.0
C265 C 0.39185 0.96881 0.60371 0.0
C266 C 0.49589 0.94826 0.61976 0.0
C267 C 0.44151 0.99667 0.47873 0.0
C268 C 0.53227 0.95335 0.51014 0.0
C269 C 0.4989 0.03688 0.55925 0.0
C270 C 0.43153 0.89725 0.55875 0.0
O271 O 0.41334 0.97303 0.57815 0.0
O272 O 0.40053 0.9541 0.63178 0.0
O273 O 0.52747 0.5848 0.59478 0.0
Mn274 Mn 0.54234 0.56365 0.54694 0.0
O275 O 0.5755 0.58946 0.62597 0.0
Mn276 Mn 0.59888 0.59221 0.58717 0.0
O277 O 0.55973 0.54609 0.49923 0.0
O278 O 0.49283 0.57029 0.52919 0.0
Mn279 Mn 0.48766 0.53449 0.50125 0.0
O280 O 0.52844 0.51506 0.56409 0.0
O281 O 0.51462 0.53968 0.4642 0.0
O282 O 0.55545 0.61192 0.52804 0.0
O283 O 0.59589 0.63119 0.56456 0.0
O284 O 0.44753 0.55302 0.49669 0.0
O285 O 0.48866 0.49551 0.52608 0.0
C286 C 0.62275 0.55087 0.57665 0.0
C287 C 0.5437 0.59116 0.62352 0.0
C288 C 0.54628 0.5432 0.46895 0.0
C289 C 0.46152 0.57472 0.51815 0.0
C290 C 0.50697 0.49204 0.55295 0.0
C291 C 0.57666 0.63504 0.53889 0.0
O292 O 0.59115 0.55387 0.56518 0.0
O293 O 0.63998 0.57713 0.58849 0.0
O294 O 0.59265 0.48518 0.92906 0.0
Mn295 Mn 0.54866 0.46644 0.95034 0.0
O296 O 0.59635 0.44156 0.89294 0.0
Mn297 Mn 0.56846 0.41167 0.91679 0.0
O298 O 0.50436 0.44265 0.96984 0.0
O299 O 0.52793 0.51464 0.94407 0.0
Mn300 Mn 0.50758 0.51307 0.98505 0.0
O301 O 0.56868 0.47681 0.99943 0.0
O302 O 0.47174 0.48271 0.9879 0.0
O303 O 0.5297 0.45705 0.89915 0.0
O304 O 0.52368 0.40429 0.9051 0.0
O305 O 0.4956 0.55231 0.97016 0.0
O306 O 0.53704 0.51548 0.0223 0.0
C307 C 0.58675 0.39115 0.95892 0.0
C308 C 0.6062 0.47071 0.90371 0.0
C309 C 0.47646 0.4522 0.982 0.0
C310 C 0.51321 0.54416 0.94404 0.0
C311 C 0.56176 0.49639 0.02404 0.0
C312 C 0.51693 0.42918 0.88769 0.0
O313 O 0.57293 0.42082 0.96086 0.0
O314 O 0.5882 0.37527 0.92988 0.0
O315 O 0.43127 0.10561 0.97793 0.0
Mn316 Mn 0.45201 0.06429 0.95265 0.0
O317 O 0.39425 0.11892 0.93695 0.0
Mn318 Mn 0.41416 0.09509 0.90339 0.0
O319 O 0.47108 0.02244 0.92535 0.0
O320 O 0.4488 0.03882 0.99873 0.0
Mn321 Mn 0.4883 0.01828 0.9979 0.0
O322 O 0.50088 0.08461 0.96577 0.0
O323 O 0.49153 0.98722 0.96384 0.0
O324 O 0.40235 0.04283 0.94272 0.0
O325 O 0.39315 0.05633 0.8895 0.0
O326 O 0.47108 1.00325 0.03649 0.0
O327 O 0.5238 0.04878 1.00243 0.0
C328 C 0.45432 0.11004 0.87847 0.0
C329 C 0.40612 0.12245 0.96714 0.0
C330 C 0.48439 0.99443 0.93324 0.0
C331 C 0.44673 0.0227 0.02792 0.0
C332 C 0.52516 0.07599 0.9861 0.0
C333 C 0.38607 0.03807 0.91428 0.0
O334 O 0.45883 0.09159 0.90636 0.0
O335 O 0.42459 0.12011 0.86913 0.0
H336 H 0.08095 0.1642 0.34515 0.0
H337 H 0.99585 0.21085 0.3909 0.0
H338 H 0.98239 0.16014 0.42176 0.0
H339 H 0.99225 0.10325 0.43459 0.0
H340 H 0.0789 0.05384 0.3961 0.0
H341 H 0.09345 0.10434 0.36235 0.0
C342 C 0.05997 0.16335 0.36247 0.0
C343 C 0.03935 0.19156 0.36557 0.0
C344 C 0.05207 0.13341 0.38063 0.0
C345 C 0.01203 0.18976 0.38781 0.0
C346 C 0.00412 0.16062 0.40538 0.0
C347 C 0.01464 0.10315 0.41909 0.0
C348 C 0.03453 0.07461 0.41826 0.0
C349 C 0.02353 0.13233 0.40158 0.0
C350 C 0.06288 0.07523 0.39717 0.0
C351 C 0.0714 0.10434 0.37824 0.0
H352 H 0.95495 0.36695 0.34031 0.0
H353 H 0.05182 0.34324 0.38592 0.0
H354 H 0.05555 0.39762 0.41523 0.0
H355 H 0.03058 0.45116 0.42967 0.0
H356 H 0.93438 0.47568 0.38449 0.0
H357 H 0.93136 0.42245 0.3524 0.0
C358 C 0.97666 0.37354 0.35698 0.0
C359 C 1.00274 0.35064 0.36141 0.0
C360 C 0.97909 0.40536 0.3732 0.0
C361 C 0.03115 0.36006 0.38239 0.0
C362 C 0.03344 0.39129 0.39901 0.0
C363 C 0.00933 0.44513 0.41216 0.0
C364 C 0.98298 0.46772 0.40869 0.0
C365 C 0.00758 0.4141 0.39466 0.0
C366 C 0.95544 0.45937 0.38636 0.0
C367 C 0.95347 0.42856 0.36868 0.0
H368 H 0.02527 0.86555 0.15285 0.0
H369 H 0.94787 0.82153 0.0845 0.0
H370 H 0.94803 0.87314 0.05086 0.0
H371 H 0.96908 0.93105 0.04214 0.0
H372 H 0.0444 0.97604 0.11269 0.0
H373 H 0.04574 0.92386 0.14464 0.0
C374 C 0.00853 0.86731 0.13048 0.0
C375 C 0.98656 0.83995 0.12098 0.0
C376 C 0.00809 0.89729 0.11204 0.0
C377 C 0.96474 0.84246 0.09229 0.0
C378 C 0.96489 0.8719 0.07314 0.0
C379 C 0.98572 0.92961 0.06459 0.0
C380 C 0.0065 0.95766 0.07499 0.0
C381 C 0.98619 0.89959 0.08302 0.0
C382 C 0.02798 0.95505 0.1041 0.0
C383 C 0.02887 0.92514 0.12236 0.0
H384 H 0.06851 0.66362 0.13219 0.0
H385 H 0.96605 0.69434 0.11174 0.0
H386 H 0.94999 0.63965 0.08881 0.0
H387 H 0.96381 0.58259 0.0739 0.0
H388 H 0.06677 0.55211 0.08547 0.0
H389 H 0.08366 0.60639 0.1124 0.0
C390 C 0.04297 0.65853 0.12204 0.0
C391 C 0.01869 0.68335 0.12426 0.0
C392 C 0.03362 0.62663 0.10768 0.0
C393 C 0.98553 0.67598 0.1109 0.0
C394 C 0.976 0.64446 0.09779 0.0
C395 C 0.98979 0.58774 0.0829 0.0
C396 C 0.01385 0.5634 0.07866 0.0
C397 C 0.99961 0.61948 0.09639 0.0
C398 C 0.04773 0.57052 0.08923 0.0
C399 C 0.05742 0.60162 0.10429 0.0
H400 H 0.32973 1.00023 0.13161 0.0
H401 H 0.41624 0.0103 0.20129 0.0
H402 H 0.45267 0.02582 0.15399 0.0
H403 H 0.46044 0.03404 0.09343 0.0
H404 H 0.3764 0.02053 0.02127 0.0
H405 H 0.33769 0.01072 0.06903 0.0
C406 C 0.35676 1.00502 0.13603 0.0
C407 C 0.37089 1.00273 0.16949 0.0
C408 C 0.37745 0.01441 0.1086 0.0
C409 C 0.40538 0.01063 0.17552 0.0
C410 C 0.42597 0.02002 0.14863 0.0
C411 C 0.43346 0.02959 0.08815 0.0
C412 C 0.42118 0.02795 0.05405 0.0
C413 C 0.4123 0.02187 0.11521 0.0
C414 C 0.38629 0.02235 0.0474 0.0
C415 C 0.36441 0.01605 0.07466 0.0
H416 H 0.64418 0.52524 0.16051 0.0
H417 H 0.61534 0.42166 0.17881 0.0
H418 H 0.58614 0.41804 0.12245 0.0
H419 H 0.5694 0.44486 0.06764 0.0
H420 H 0.59813 0.54869 0.05162 0.0
H421 H 0.62785 0.55152 0.10739 0.0
C422 C 0.63125 0.50185 0.1525 0.0
C423 C 0.6317 0.4738 0.17395 0.0
C424 C 0.61518 0.49991 0.12022 0.0
C425 C 0.61524 0.44364 0.16278 0.0
C426 C 0.59872 0.44154 0.13055 0.0
C427 C 0.58262 0.46786 0.07642 0.0
C428 C 0.58219 0.49649 0.05581 0.0
C429 C 0.59881 0.46948 0.10893 0.0
C430 C 0.59856 0.52644 0.06726 0.0
C431 C 0.61529 0.52807 0.09909 0.0
H432 H 0.32718 1.00056 0.36091 0.0
H433 H 0.40634 0.05981 0.31378 0.0
H434 H 0.44259 0.05514 0.36523 0.0
H435 H 0.45223 0.03348 0.42229 0.0
H436 H 0.37378 0.97503 0.47176 0.0
H437 H 0.33605 0.98127 0.42115 0.0
C438 C 0.35229 0.01266 0.36224 0.0
C439 C 0.36423 0.03065 0.33377 0.0
C440 C 0.37275 0.01038 0.39231 0.0
C441 C 0.39663 0.04625 0.33554 0.0
C442 C 0.41731 0.04348 0.36488 0.0
C443 C 0.4268 0.02212 0.42236 0.0
C444 C 0.41604 1.00352 0.45092 0.0
C445 C 0.40566 0.02557 0.39329 0.0
C446 C 0.38278 0.98953 0.45034 0.0
C447 C 0.36133 0.99289 0.42124 0.0
H448 H 0.60978 0.56907 0.32416 0.0
H449 H 0.66476 0.48221 0.35374 0.0
H450 H 0.63918 0.48239 0.40958 0.0
H451 H 0.59894 0.5054 0.44988 0.0
H452 H 0.53839 0.58758 0.41828 0.0
H453 H 0.56782 0.59107 0.36406 0.0
C454 C 0.61619 0.55036 0.34294 0.0
C455 C 0.63947 0.52591 0.3348 0.0
C456 C 0.60019 0.54969 0.3749 0.0
C457 C 0.64707 0.50146 0.35929 0.0
C458 C 0.63243 0.50148 0.39137 0.0
C459 C 0.59271 0.52434 0.43128 0.0
C460 C 0.56704 0.54652 0.43817 0.0
C461 C 0.60876 0.52529 0.39948 0.0
C462 C 0.55843 0.57044 0.41354 0.0
C463 C 0.57514 0.57238 0.38248 0.0
H464 H 0.1307 0.33971 0.98037 0.0
H465 H 0.19315 0.41002 0.04121 0.0
H466 H 0.14324 0.44121 0.05527 0.0
H467 H 0.08286 0.45148 0.046 0.0
H468 H 0.02008 0.38314 0.98372 0.0
H469 H 0.06835 0.34706 0.97614 0.0
C470 C 0.13332 0.36214 0.99629 0.0
C471 C 0.16576 0.37323 0.00878 0.0
C472 C 0.10423 0.37958 0.00499 0.0
C473 C 0.16862 0.40149 0.03058 0.0
C474 C 0.14003 0.4191 0.03897 0.0
C475 C 0.0794 0.4278 0.03217 0.0
C476 C 0.04778 0.41958 0.01606 0.0
C477 C 0.10777 0.40856 0.02611 0.0
C478 C 0.04387 0.38948 0.99721 0.0
C479 C 0.07176 0.36936 0.99212 0.0
H480 H 0.17232 0.63758 0.48564 0.0
H481 H 0.15141 0.6579 0.5915 0.0
H482 H 0.09376 0.63388 0.58277 0.0
H483 H 0.04925 0.60694 0.54487 0.0
H484 H 0.06972 0.58845 0.43879 0.0
H485 H 0.1277 0.61198 0.44764 0.0
C486 C 0.15528 0.63644 0.50694 0.0
C487 C 0.16634 0.64915 0.53932 0.0
C488 C 0.12201 0.62332 0.50151 0.0
C489 C 0.14386 0.64762 0.56655 0.0
C490 C 0.11074 0.63427 0.56145 0.0
C491 C 0.0663 0.60883 0.52361 0.0
C492 C 0.05523 0.59684 0.49105 0.0
C493 C 0.0995 0.62226 0.529 0.0
C494 C 0.0775 0.5986 0.46375 0.0
C495 C 0.11071 0.61158 0.46896 0.0
H496 H 0.81964 0.91646 0.50472 0.0
H497 H 0.86738 0.83582 0.557 0.0
H498 H 0.92349 0.85776 0.53995 0.0
H499 H 0.95938 0.90088 0.50927 0.0
H500 H 0.90888 0.98107 0.45796 0.0
H501 H 0.85422 0.95864 0.47549 0.0
C502 C 0.84244 0.90428 0.51325 0.0
C503 C 0.83937 0.87534 0.53322 0.0
C504 C 0.87441 0.9168 0.50298 0.0
C505 C 0.8691 0.85906 0.54297 0.0
C506 C 0.90119 0.8713 0.53264 0.0
C507 C 0.93635 0.91299 0.50145 0.0
C508 C 0.93855 0.94266 0.48199 0.0
C509 C 0.90426 0.90016 0.51233 0.0
C510 C 0.90824 0.95822 0.47271 0.0
C511 C 0.87677 0.94553 0.48292 0.0
H512 H 0.3246 0.63319 0.55004 0.0
H513 H 0.34614 0.6859 0.45678 0.0
H514 H 0.40389 0.66586 0.45854 0.0
H515 H 0.44654 0.62969 0.48385 0.0
H516 H 0.42416 0.57438 0.57485 0.0
H517 H 0.36889 0.59996 0.57758 0.0
C518 C 0.34185 0.6401 0.52994 0.0
C519 C 0.33079 0.66047 0.50288 0.0
C520 C 0.37514 0.62873 0.5313 0.0
C521 C 0.35361 0.66946 0.47729 0.0
C522 C 0.38682 0.65846 0.47861 0.0
C523 C 0.43026 0.62476 0.5053 0.0
C524 C 0.43983 0.6012 0.52982 0.0
C525 C 0.39779 0.63797 0.50535 0.0
C526 C 0.41795 0.59364 0.55663 0.0
C527 C 0.38595 0.60753 0.55757 0.0
H528 H 0.55013 0.66957 0.85133 0.0
H529 H 0.44978 0.6942 0.88226 0.0
H530 H 0.44355 0.64045 0.9108 0.0
H531 H 0.46597 0.58755 0.92788 0.0
H532 H 0.56675 0.56115 0.90089 0.0
H533 H 0.57281 0.61364 0.8682 0.0
C534 C 0.52699 0.66318 0.86453 0.0
C535 C 0.50039 0.68621 0.86482 0.0
C536 C 0.52335 0.63161 0.88072 0.0
C537 C 0.4705 0.67721 0.88157 0.0
C538 C 0.46689 0.64635 0.89779 0.0
C539 C 0.4893 0.5929 0.91456 0.0
C540 C 0.51588 0.57026 0.91697 0.0
C541 C 0.49298 0.62344 0.89742 0.0
C542 C 0.54569 0.57773 0.89921 0.0
C543 C 0.54929 0.60807 0.88101 0.0
H544 H 0.48294 0.86337 0.84315 0.0
H545 H 0.58553 0.86107 0.88417 0.0
H546 H 0.57927 0.91624 0.91104 0.0
H547 H 0.54302 0.96291 0.92653 0.0
H548 H 0.44109 0.96569 0.88447 0.0
H549 H 0.44884 0.91263 0.85378 0.0
C550 C 0.50402 0.87479 0.85804 0.0
C551 C 0.53451 0.85752 0.86228 0.0
C552 C 0.50038 0.90674 0.87288 0.0
C553 C 0.56168 0.87335 0.88092 0.0
C554 C 0.55811 0.90499 0.89616 0.0
C555 C 0.52286 0.95234 0.9098 0.0
C556 C 0.49162 0.96839 0.90739 0.0
C557 C 0.52744 0.92167 0.8927 0.0
C558 C 0.46555 0.95428 0.88607 0.0
C559 C 0.46986 0.92367 0.86899 0.0
H560 H 0.45708 0.35454 0.61714 0.0
H561 H 0.56534 0.34353 0.62732 0.0
H562 H 0.57563 0.39894 0.60409 0.0
H563 H 0.55444 0.45129 0.58033 0.0
H564 H 0.44666 0.4614 0.56643 0.0
H565 H 0.43583 0.40647 0.5918 0.0
C566 C 0.48287 0.36408 0.61385 0.0
C567 C 0.51022 0.34456 0.624 0.0
C568 C 0.48888 0.39631 0.60014 0.0
C569 C 0.54357 0.35769 0.61973 0.0
C570 C 0.54965 0.38964 0.60656 0.0
C571 C 0.52865 0.44156 0.58332 0.0
C572 C 0.50144 0.46043 0.57184 0.0
C573 C 0.52257 0.40934 0.59685 0.0
C574 C 0.46808 0.4473 0.57523 0.0
C575 C 0.46183 0.4158 0.58958 0.0
H576 H 0.50331 0.16221 0.66009 0.0
H577 H 0.58044 0.1973 0.59176 0.0
H578 H 0.57317 0.14477 0.55823 0.0
H579 H 0.54366 0.0896 0.548 0.0
H580 H 0.46716 0.05488 0.61776 0.0
H581 H 0.47552 0.10666 0.65126 0.0
C582 C 0.51887 0.15813 0.63806 0.0
C583 C 0.54267 0.18334 0.6285 0.0
C584 C 0.51453 0.12806 0.61922 0.0
C585 C 0.56251 0.17797 0.59992 0.0
C586 C 0.55808 0.14809 0.58067 0.0
C587 C 0.52887 0.09319 0.57062 0.0
C588 C 0.50472 0.06812 0.58024 0.0
C589 C 0.53401 0.12303 0.59001 0.0
C590 C 0.48589 0.07349 0.60966 0.0
C591 C 0.49065 0.10316 0.62887 0.0
H592 H 0.87127 0.55043 0.66171 0.0
H593 H 0.84339 0.44561 0.64593 0.0
H594 H 0.86285 0.44862 0.58725 0.0
H595 H 0.89398 0.4789 0.54307 0.0
H596 H 0.92544 0.58238 0.55932 0.0
H597 H 0.89739 0.58255 0.61459 0.0
C598 C 0.86963 0.52817 0.64551 0.0
C599 C 0.85683 0.49748 0.65872 0.0
C600 C 0.88094 0.53008 0.61163 0.0
C601 C 0.85422 0.46917 0.637 0.0
C602 C 0.86491 0.47101 0.60324 0.0
C603 C 0.8932 0.50193 0.55802 0.0
C604 C 0.91113 0.53074 0.5469 0.0
C605 C 0.87889 0.5011 0.59053 0.0
C606 C 0.91088 0.56021 0.56683 0.0
C607 C 0.8956 0.55998 0.59886 0.0
H608 H 0.16609 0.01934 0.64546 0.0
H609 H 0.07462 0.03574 0.69971 0.0
H610 H 0.04045 0.0225 0.64744 0.0
H611 H 0.03709 1.00587 0.58675 0.0
H612 H 0.1286 0.98727 0.53292 0.0
H613 H 0.16265 1.00118 0.58496 0.0
C614 C 0.13869 0.02104 0.64535 0.0
C615 C 0.1227 0.03004 0.67561 0.0
C616 C 0.11947 0.01228 0.61568 0.0
C617 C 0.08727 0.03051 0.6761 0.0
C618 C 0.06787 0.02234 0.64647 0.0
C619 C 0.0645 1.00465 0.5865 0.0
C620 C 0.08041 0.99569 0.55612 0.0
C621 C 0.08374 0.01304 0.61623 0.0
C622 C 0.11584 0.99377 0.55613 0.0
C623 C 0.13526 1.00212 0.58571 0.0
H624 H 0.82711 0.50528 0.85897 0.0
H625 H 0.90849 0.56055 0.81097 0.0
H626 H 0.94395 0.55628 0.86315 0.0
H627 H 0.95255 0.53537 0.92102 0.0
H628 H 0.87186 0.4804 0.97082 0.0
H629 H 0.83482 0.48714 0.91979 0.0
C630 C 0.85246 0.51685 0.86028 0.0
C631 C 0.86514 0.53361 0.83125 0.0
C632 C 0.87257 0.5146 0.89071 0.0
C633 C 0.89802 0.54817 0.83306 0.0
C634 C 0.91829 0.54553 0.86287 0.0
C635 C 0.92674 0.525 0.92115 0.0
C636 C 0.91522 0.50724 0.95012 0.0
C637 C 0.90591 0.52867 0.8917 0.0
C638 C 0.88152 0.49435 0.94932 0.0
C639 C 0.86043 0.49798 0.91992 0.0
H640 H 0.1671 0.99818 0.86591 0.0
H641 H 0.07952 0.96981 0.80237 0.0
H642 H 0.04229 0.98171 0.84978 0.0
H643 H 0.03464 1.00274 0.90775 0.0
H644 H 0.12171 0.0311 0.97261 0.0
H645 H 0.15934 0.01625 0.92629 0.0
C646 C 0.1399 0.99351 0.86298 0.0
C647 C 0.12602 0.98192 0.83111 0.0
C648 C 0.1187 1.00079 0.89036 0.0
C649 C 0.09076 0.97732 0.82702 0.0
C650 C 0.06952 0.98462 0.85399 0.0
C651 C 0.06186 1.00562 0.91211 0.0
C652 C 0.0752 0.01829 0.94387 0.0
C653 C 0.0832 0.99678 0.88556 0.0
C654 C 0.11062 0.02163 0.94857 0.0
C655 C 0.13214 0.01306 0.92206 0.0
H656 H 0.66704 0.88687 0.55065 0.0
H657 H 0.65522 0.85396 0.4452 0.0
H658 H 0.59772 0.87384 0.44284 0.0
H659 H 0.55313 0.90605 0.468 0.0
H660 H 0.56477 0.94295 0.5716 0.0
H661 H 0.6192 0.91546 0.57785 0.0
C662 C 0.65194 0.88423 0.5271 0.0
C663 C 0.66607 0.86969 0.49779 0.0
C664 C 0.61851 0.89601 0.52578 0.0
C665 C 0.64569 0.86594 0.4678 0.0
C666 C 0.61252 0.87695 0.46652 0.0
C667 C 0.56686 0.9067 0.49247 0.0
C668 C 0.55447 0.92572 0.51954 0.0
C669 C 0.59889 0.89252 0.49507 0.0
C670 C 0.57307 0.9274 0.55077 0.0
C671 C 0.60467 0.91238 0.554 0.0
H672 H 0.64356 0.18584 0.00842 0.0
H673 H 0.68898 0.10382 0.06117 0.0
H674 H 0.63854 0.06773 0.0474 0.0
H675 H 0.583 0.05962 0.01928 0.0
H676 H 0.53599 0.14196 0.96791 0.0
H677 H 0.58611 0.17824 0.98217 0.0
C678 C 0.64201 0.16015 0.01727 0.0
C679 C 0.66944 0.14729 0.03599 0.0
C680 C 0.61309 0.13984 0.00927 0.0
C681 C 0.66771 0.11415 0.04731 0.0
C682 C 0.63912 0.09358 0.03913 0.0
C683 C 0.58349 0.08552 0.01113 0.0
C684 C 0.55574 0.09805 0.99239 0.0
C685 C 0.61188 0.10615 0.0199 0.0
C686 C 0.5571 0.13162 0.982 0.0
C687 C 0.58562 0.15237 0.99035 0.0
H688 H 0.36362 0.36594 0.05649 0.0
H689 H 0.30723 0.3914 0.96476 0.0
H690 H 0.3573 0.41967 0.94227 0.0
H691 H 0.41687 0.43894 0.94866 0.0
H692 H 0.47469 0.41405 0.03913 0.0
H693 H 0.4249 0.38386 0.06193 0.0
C694 C 0.36223 0.37814 0.03187 0.0
C695 C 0.33138 0.37681 0.01265 0.0
C696 C 0.39164 0.3941 0.01852 0.0
C697 C 0.33039 0.39217 0.98036 0.0
C698 C 0.35913 0.40825 0.96727 0.0
C699 C 0.41868 0.42612 0.97296 0.0
C700 C 0.44943 0.4279 0.99185 0.0
C701 C 0.38989 0.40933 0.98599 0.0
C702 C 0.45142 0.41205 0.02372 0.0
C703 C 0.42282 0.39523 0.03694 0.0
H704 H 0.82625 0.1276 0.04485 0.0
H705 H 0.84957 0.18677 0.9562 0.0
H706 H 0.90698 0.16602 0.95673 0.0
H707 H 0.9483 0.1263 0.9782 0.0
H708 H 0.92449 0.06492 0.06471 0.0
H709 H 0.86992 0.09148 0.06973 0.0
C710 C 0.84385 0.1357 0.02548 0.0
C711 C 0.83326 0.15784 0.99978 0.0
C712 C 0.87693 0.12362 0.02593 0.0
C713 C 0.85658 0.1687 0.97537 0.0
C714 C 0.88961 0.15725 0.97598 0.0
C715 C 0.93187 0.12011 0.99921 0.0
C716 C 0.94081 0.09458 0.02173 0.0
C717 C 0.89988 0.13429 1.00074 0.0
C718 C 0.91873 0.08557 0.048 0.0
C719 C 0.88715 0.10016 0.05029 0.0
H720 H 0.03973 0.20737 0.2144 0.0
H721 H 0.93357 0.18968 0.23365 0.0
H722 H 0.93083 0.14378 0.19072 0.0
H723 H 0.96067 0.10659 0.14906 0.0
H724 H 0.06897 0.12318 0.14037 0.0
H725 H 0.06844 0.1717 0.17672 0.0
C726 C 0.01577 0.19367 0.20937 0.0
C727 C 0.98696 0.20195 0.22734 0.0
C728 C 0.01471 0.16713 0.18584 0.0
C729 C 0.95618 0.18395 0.22 0.0
C730 C 0.95468 0.15759 0.19557 0.0
C731 C 0.9839 0.12116 0.15492 0.0
C732 C 0.01452 0.11185 0.14029 0.0
C733 C 0.98403 0.1486 0.17845 0.0
C734 C 0.04464 0.13042 0.14931 0.0
C735 C 0.04461 0.15811 0.17081 0.0
H736 H 0.02773 0.30566 0.1904 0.0
H737 H 0.07654 0.37387 0.26402 0.0
H738 H 0.06429 0.42141 0.22688 0.0
H739 H 0.03158 0.44382 0.17721 0.0
H740 H 0.98572 0.37437 0.1027 0.0
H741 H 0.00451 0.32713 0.13633 0.0
C742 C 0.03693 0.33083 0.19755 0.0
C743 C 0.0535 0.33632 0.22951 0.0
C744 C 0.0296 0.35787 0.17618 0.0
C745 C 0.0645 0.36904 0.23911 0.0
C746 C 0.05701 0.39624 0.21809 0.0
C747 C 0.02694 0.41834 0.16782 0.0
C748 C 0.0077 0.41261 0.1373 0.0
C749 C 0.03849 0.39106 0.18709 0.0
C750 C 1.00109 0.37945 0.12572 0.0
C751 C 0.01161 0.35237 0.14508 0.0
H752 H 0.064 0.86721 0.25194 0.0
H753 H 0.98776 0.79382 0.28283 0.0
H754 H 0.96813 0.8321 0.32545 0.0
H755 H 0.97281 0.88451 0.35582 0.0
H756 H 0.05527 0.95483 0.33678 0.0
H757 H 0.07112 0.92117 0.28698 0.0
C758 C 0.04386 0.85943 0.26876 0.0
C759 C 0.02735 0.82759 0.26409 0.0
C760 C 0.03294 0.88159 0.29459 0.0
C761 C 1.00093 0.81809 0.28584 0.0
C762 C 0.98928 0.84014 0.30999 0.0
C763 C 0.99367 0.89307 0.34015 0.0
C764 C 0.01275 0.92204 0.35018 0.0
C765 C 0.00477 0.87192 0.31438 0.0
C766 C 0.03984 0.93274 0.32961 0.0
C767 C 0.04945 0.91297 0.3016 0.0
H768 H 0.02143 0.70827 0.28152 0.0
H769 H 0.92557 0.67498 0.23443 0.0
H770 H 0.91951 0.63112 0.27738 0.0
H771 H 0.93724 0.60804 0.33217 0.0
H772 H 0.02507 0.65083 0.38674 0.0
H773 H 0.04065 0.68285 0.33576 0.0
C774 C 0.9993 0.69124 0.28057 0.0
C775 C 0.97367 0.69507 0.25512 0.0
C776 C 0.99536 0.66707 0.3062 0.0
C777 C 0.94522 0.67291 0.25413 0.0
C778 C 0.942 0.64762 0.27843 0.0
C779 C 0.96063 0.62333 0.33231 0.0
C780 C 0.98006 0.6271 0.36306 0.0
C781 C 0.96649 0.64505 0.305 0.0
C782 C 0.00993 0.6473 0.36334 0.0
C783 C 0.01823 0.66627 0.33449 0.0
H784 H 0.22201 1.00245 0.17238 0.0
H785 H 0.26374 0.1034 0.16269 0.0
H786 H 0.22645 0.11161 0.11252 0.0
H787 H 0.17572 0.09352 0.07901 0.0
H788 H 0.12793 0.99671 0.09625 0.0
H789 H 0.17572 0.98187 0.13356 0.0
C790 C 0.22321 0.02618 0.15909 0.0
C791 C 0.24506 0.05262 0.17156 0.0
C792 C 0.20126 0.03087 0.13096 0.0
C793 C 0.24646 0.0831 0.15407 0.0
C794 C 0.22552 0.08757 0.12517 0.0
C795 C 0.17687 0.06848 0.08951 0.0
C796 C 0.14827 0.04648 0.08577 0.0
C797 C 0.20211 0.06201 0.11415 0.0
C798 C 0.14973 0.01402 0.0989 0.0
C799 C 0.1765 1.00605 0.12117 0.0
H800 H 0.80649 0.54936 0.2063 0.0
H801 H 0.72551 0.50288 0.14421 0.0
H802 H 0.76522 0.49076 0.09925 0.0
H803 H 0.82455 0.48247 0.08363 0.0
H804 H 0.90585 0.52809 0.14561 0.0
H805 H 0.86499 0.55167 0.18402 0.0
C806 C 0.79744 0.53774 0.18237 0.0
C807 C 0.76309 0.527 0.17859 0.0
C808 C 0.82074 0.53022 0.15666 0.0
C809 C 0.75184 0.51133 0.14772 0.0
C810 C 0.7746 0.50425 0.12202 0.0
C811 C 0.83322 0.49945 0.1042 0.0
C812 C 0.86836 0.50407 0.11117 0.0
C813 C 0.80938 0.51217 0.12686 0.0
C814 C 0.87907 0.52506 0.13886 0.0
C815 C 0.8556 0.5379 0.16143 0.0
H816 H 0.25078 0.96645 0.34328 0.0
H817 H 0.19216 0.99499 0.25444 0.0
H818 H 0.14027 0.99291 0.28746 0.0
H819 H 0.1115 0.98052 0.34095 0.0
H820 H 0.16972 0.95304 0.43038 0.0
H821 H 0.22216 0.95758 0.39822 0.0
C822 C 0.22642 0.9715 0.33123 0.0
C823 C 0.22459 0.97944 0.2964 0.0
C824 C 0.19698 0.97099 0.35058 0.0
C825 C 0.19352 0.98755 0.28102 0.0
C826 C 0.16408 0.98677 0.29993 0.0
C827 C 0.13581 0.9762 0.35341 0.0
C828 C 0.13712 0.9667 0.38776 0.0
C829 C 0.16549 0.97833 0.33464 0.0
C830 C 0.16847 0.9609 0.40396 0.0
C831 C 0.1983 0.96309 0.38549 0.0
H832 H 0.80416 0.46367 0.29584 0.0
H833 H 0.72459 0.48687 0.3641 0.0
H834 H 0.76631 0.50453 0.4087 0.0
H835 H 0.82503 0.52452 0.42305 0.0
H836 H 0.90267 0.50928 0.34994 0.0
H837 H 0.86309 0.47641 0.31322 0.0
C838 C 0.79621 0.4709 0.32115 0.0
C839 C 0.76167 0.47322 0.32721 0.0
C840 C 0.82034 0.48273 0.34584 0.0
C841 C 0.75123 0.48408 0.35941 0.0
C842 C 0.77509 0.49462 0.38472 0.0
C843 C 0.83344 0.51236 0.39999 0.0
C844 C 0.86699 0.5177 0.38994 0.0
C845 C 0.80973 0.49557 0.37763 0.0
C846 C 0.87738 0.50373 0.35901 0.0
C847 C 0.85455 0.48557 0.3376 0.0
H848 H 0.20643 0.209 0.03885 0.0
H849 H 0.14987 0.28702 0.08449 0.0
H850 H 0.09764 0.25167 0.07881 0.0
H851 H 0.06847 0.19763 0.06179 0.0
H852 H 0.12529 0.12094 0.01384 0.0
H853 H 0.17693 0.15659 0.01904 0.0
C854 C 0.18285 0.21762 0.04881 0.0
C855 C 0.1823 0.24973 0.06398 0.0
C856 C 0.15283 0.19779 0.04391 0.0
C857 C 0.15129 0.26156 0.07486 0.0
C858 C 0.12131 0.24169 0.0707 0.0
C859 C 0.09187 0.18946 0.05107 0.0
C860 C 0.09272 0.15714 0.03631 0.0
C861 C 0.12174 0.20985 0.05501 0.0
C862 C 0.12352 0.14627 0.02373 0.0
C863 C 0.15329 0.16631 0.0276 0.0
H864 H 0.21054 0.8244 0.48583 0.0
H865 H 0.14604 0.74728 0.52928 0.0
H866 H 0.09855 0.78472 0.5288 0.0
H867 H 0.07361 0.8363 0.50839 0.0
H868 H 0.13753 0.91455 0.46685 0.0
H869 H 0.18732 0.8807 0.47556 0.0
C870 C 0.18602 0.81602 0.49511 0.0
C871 C 0.18122 0.78297 0.50652 0.0
C872 C 0.15902 0.83811 0.4958 0.0
C873 C 0.14986 0.77249 0.51965 0.0
C874 C 0.12284 0.79393 0.51968 0.0
C875 C 0.09876 0.84671 0.50327 0.0
C876 C 0.10197 0.87782 0.48713 0.0
C877 C 0.12692 0.82653 0.50718 0.0
C878 C 0.13457 0.89089 0.47994 0.0
C879 C 0.16292 0.87109 0.48399 0.0
H880 H 0.7957 0.71454 0.5225 0.0
H881 H 0.84585 0.778 0.44943 0.0
H882 H 0.89285 0.73969 0.44751 0.0
H883 H 0.91589 0.68513 0.46122 0.0
H884 H 0.86194 0.61784 0.52767 0.0
H885 H 0.82091 0.66093 0.53898 0.0
C886 C 0.81685 0.71969 0.50595 0.0
C887 C 0.81701 0.7484 0.48526 0.0
C888 C 0.84337 0.69719 0.50455 0.0
C889 C 0.8447 0.75535 0.46447 0.0
C890 C 0.87175 0.73376 0.46384 0.0
C891 C 0.89612 0.68063 0.47957 0.0
C892 C 0.89237 0.64873 0.49432 0.0
C893 C 0.87105 0.70433 0.48329 0.0
C894 C 0.86596 0.64258 0.51699 0.0
C895 C 0.84199 0.66692 0.52264 0.0
H896 H 0.30124 0.80906 0.53026 0.0
H897 H 0.34624 0.74915 0.60923 0.0
H898 H 0.39772 0.78601 0.60975 0.0
H899 H 0.42846 0.83657 0.58875 0.0
H900 H 0.38269 0.89502 0.50893 0.0
H901 H 0.33311 0.85654 0.50672 0.0
C902 C 0.3222 0.80435 0.54793 0.0
C903 C 0.31983 0.7771 0.57033 0.0
C904 C 0.35172 0.82474 0.54714 0.0
C905 C 0.34715 0.77079 0.59273 0.0
C906 C 0.37671 0.79141 0.59248 0.0
C907 C 0.40811 0.84005 0.57005 0.0
C908 C 0.4094 0.8682 0.54865 0.0
C909 C 0.37923 0.81841 0.56971 0.0
C910 C 0.38276 0.87296 0.52486 0.0
C911 C 0.35406 0.85143 0.52418 0.0
H912 H 0.51767 0.71921 0.70666 0.0
H913 H 0.59624 0.67749 0.77011 0.0
H914 H 0.59102 0.62504 0.73674 0.0
H915 H 0.56529 0.59222 0.68914 0.0
H916 H 0.49332 0.63686 0.62001 0.0
H917 H 0.49205 0.68605 0.65808 0.0
C918 C 0.53414 0.69879 0.71266 0.0
C919 C 0.55789 0.70227 0.74027 0.0
C920 C 0.53078 0.66887 0.69351 0.0
C921 C 0.57867 0.67568 0.7483 0.0
C922 C 0.57506 0.64552 0.72975 0.0
C923 C 0.54854 0.61234 0.68285 0.0
C924 C 0.5296 0.61095 0.6516 0.0
C925 C 0.55104 0.64186 0.70254 0.0
C926 C 0.50782 0.637 0.64397 0.0
C927 C 0.50796 0.66557 0.66521 0.0
H928 H 0.53163 0.86396 0.7486 0.0
H929 H 0.45964 0.79544 0.69681 0.0
H930 H 0.46078 0.83073 0.64584 0.0
H931 H 0.48149 0.88134 0.61708 0.0
H932 H 0.54092 0.95687 0.67394 0.0
H933 H 0.54894 0.91707 0.72077 0.0
C934 C 0.51606 0.85692 0.72615 0.0
C935 C 0.49539 0.8273 0.72634 0.0
C936 C 0.5159 0.87796 0.69757 0.0
C937 C 0.4753 0.81836 0.69729 0.0
C938 C 0.47633 0.8383 0.6681 0.0
C939 C 0.49573 0.88949 0.63978 0.0
C940 C 0.51012 0.92234 0.64216 0.0
C941 C 0.49642 0.8682 0.66807 0.0
C942 C 0.52988 0.93167 0.67135 0.0
C943 C 0.53383 0.90915 0.69833 0.0
H944 H 0.56755 0.36776 0.75312 0.0
H945 H 0.49497 0.29145 0.78506 0.0
H946 H 0.47358 0.32934 0.82746 0.0
H947 H 0.47698 0.38206 0.85797 0.0
H948 H 0.5552 0.45606 0.83558 0.0
H949 H 0.57129 0.42274 0.7858 0.0
C950 C 0.54778 0.35934 0.77011 0.0
C951 C 0.53324 0.32662 0.76638 0.0
C952 C 0.53559 0.38142 0.79519 0.0
C953 C 0.50692 0.3163 0.78785 0.0
C954 C 0.49424 0.33812 0.81174 0.0
C955 C 0.49667 0.39155 0.84135 0.0
C956 C 0.51474 0.42138 0.85056 0.0
C957 C 0.50821 0.37066 0.81555 0.0
C958 C 0.54047 0.43333 0.82896 0.0
C959 C 0.55039 0.41372 0.80106 0.0
H960 H 0.5146 0.21781 0.78976 0.0
H961 H 0.45021 0.16224 0.71652 0.0
H962 H 0.44666 0.1148 0.75579 0.0
H963 H 0.45565 0.09263 0.81311 0.0
H964 H 0.50956 0.15274 0.89044 0.0
H965 H 0.52628 0.19366 0.84699 0.0
C966 C 0.49957 0.19533 0.78264 0.0
C967 C 0.48177 0.19372 0.75081 0.0
C968 C 0.49698 0.16863 0.80574 0.0
C969 C 0.46298 0.1644 0.7414 0.0
C970 C 0.46151 0.13714 0.76358 0.0
C971 C 0.4725 0.11394 0.82006 0.0
C972 C 0.48121 0.11982 0.85488 0.0
C973 C 0.47786 0.13927 0.79601 0.0
C974 C 0.50282 0.14746 0.8638 0.0
C975 C 0.51134 0.17141 0.8391 0.0
H976 H 0.68795 0.52129 0.7037 0.0
H977 H 0.77339 0.54261 0.64014 0.0
H978 H 0.73796 0.53121 0.58867 0.0
H979 H 0.68166 0.52269 0.56197 0.0
H980 H 0.59461 0.50987 0.62448 0.0
H981 H 0.63131 0.50691 0.67577 0.0
C982 C 0.6984 0.52429 0.67849 0.0
C983 C 0.7327 0.53466 0.67546 0.0
C984 C 0.67774 0.51779 0.64892 0.0
C985 C 0.74657 0.5366 0.64285 0.0
C986 C 0.72655 0.52926 0.61351 0.0
C987 C 0.67088 0.51739 0.58667 0.0
C988 C 0.63565 0.5194 0.5899 0.0
C989 C 0.69202 0.52039 0.6162 0.0
C990 C 0.62184 0.51016 0.62144 0.0
C991 C 0.64281 0.50994 0.65108 0.0
H992 H 0.2528 0.9388 0.66001 0.0
H993 H 0.26668 0.04304 0.69026 0.0
H994 H 0.3139 0.04995 0.65271 0.0
H995 H 0.35799 0.02437 0.61943 0.0
H996 H 0.3442 0.92169 0.58595 0.0
H997 H 0.29045 0.91661 0.61534 0.0
C998 C 0.26598 0.96303 0.65813 0.0
C999 C 0.25648 0.98995 0.67897 0.0
C1000 C 0.29334 0.96737 0.63558 0.0
C1001 C 0.27351 0.02145 0.6753 0.0
C1002 C 0.30067 0.02566 0.65358 0.0
C1003 C 0.34215 1.0016 0.61669 0.0
C1004 C 0.35508 0.97362 0.60036 0.0
C1005 C 0.3116 0.99861 0.63446 0.0
C1006 C 0.3345 0.94395 0.59775 0.0
C1007 C 0.30411 0.9407 0.61544 0.0
H1008 H 0.70057 0.50641 0.78536 0.0
H1009 H 0.76762 0.44595 0.84515 0.0
H1010 H 0.72765 0.44529 0.89221 0.0
H1011 H 0.67131 0.45751 0.9135 0.0
H1012 H 0.6029 0.51481 0.852 0.0
H1013 H 0.64598 0.52209 0.80844 0.0
C1014 C 0.70601 0.49266 0.80857 0.0
C1015 C 0.73604 0.47506 0.81163 0.0
C1016 C 0.68306 0.49255 0.83521 0.0
C1017 C 0.74373 0.45821 0.84193 0.0
C1018 C 0.72126 0.45841 0.86891 0.0
C1019 C 0.66657 0.47278 0.89117 0.0
C1020 C 0.6346 0.48635 0.88602 0.0
C1021 C 0.69066 0.47509 0.8656 0.0
C1022 C 0.62788 0.50517 0.85673 0.0
C1023 C 0.65219 0.50865 0.83159 0.0
H1024 H 0.24397 0.05129 0.8614 0.0
H1025 H 0.29195 1.00462 0.77629 0.0
H1026 H 0.33886 0.98864 0.8135 0.0
H1027 H 0.36845 0.9918 0.86815 0.0
H1028 H 0.32893 0.04937 0.95044 0.0
H1029 H 0.27491 0.05391 0.9184 0.0
C1030 C 0.26525 0.03847 0.8511 0.0
C1031 C 0.26521 0.02986 0.81613 0.0
C1032 C 0.29258 0.0296 0.87271 0.0
C1033 C 0.29212 0.01219 0.80304 0.0
C1034 C 0.31852 1.00241 0.82437 0.0
C1035 C 0.34729 1.0039 0.87966 0.0
C1036 C 0.35276 0.02077 0.91101 0.0
C1037 C 0.319 0.01095 0.85914 0.0
C1038 C 0.32532 0.03618 0.92614 0.0
C1039 C 0.29496 0.03996 0.90723 0.0
H1040 H 0.6433 0.77061 0.55515 0.0
H1041 H 0.72656 0.7097 0.5283 0.0
H1042 H 0.68694 0.66522 0.50733 0.0
H1043 H 0.6294 0.64238 0.49965 0.0
H1044 H 0.54665 0.6959 0.53983 0.0
H1045 H 0.58404 0.74602 0.54876 0.0
C1046 C 0.65258 0.74701 0.54599 0.0
C1047 C 0.68779 0.74273 0.54457 0.0
C1048 C 0.62949 0.72123 0.53427 0.0
C1049 C 0.69959 0.7128 0.53104 0.0
C1050 C 0.67696 0.6878 0.51816 0.0
C1051 C 0.61923 0.66563 0.50884 0.0
C1052 C 0.58555 0.66526 0.51965 0.0
C1053 C 0.64192 0.69184 0.51945 0.0
C1054 C 0.57252 0.69546 0.53132 0.0
C1055 C 0.59428 0.72365 0.5378 0.0
H1056 H 0.64903 0.26836 0.01938 0.0
H1057 H 0.73727 0.31889 0.97863 0.0
H1058 H 0.70684 0.37099 0.97427 0.0
H1059 H 0.65279 0.39876 0.97241 0.0
H1060 H 0.5622 0.34603 1.00427 0.0
H1061 H 0.59561 0.29892 0.02336 0.0
C1062 C 0.66143 0.29092 0.0097 0.0
C1063 C 0.69489 0.28986 0.99839 0.0
C1064 C 0.64335 0.32051 0.00625 0.0
C1065 C 0.71111 0.31911 0.98635 0.0
C1066 C 0.69387 0.34891 0.98427 0.0
C1067 C 0.64073 0.37774 0.9854 0.0
C1068 C 0.60524 0.37598 0.98744 0.0
C1069 C 0.65968 0.3496 0.99306 0.0
C1070 C 0.58961 0.34827 1.0033 0.0
C1071 C 0.60864 0.32092 0.01326 0.0
H1072 H 0.34606 0.25865 0.00589 0.0
H1073 H 0.25679 0.20396 0.96624 0.0
H1074 H 0.28743 0.15191 0.96713 0.0
H1075 H 0.34 0.12311 0.97434 0.0
H1076 H 0.43265 0.17827 1.00267 0.0
H1077 H 0.40027 0.22871 0.01332 0.0
C1078 C 0.33364 0.23529 0.99704 0.0
C1079 C 0.29951 0.23502 0.98514 0.0
C1080 C 0.3518 0.20559 0.99673 0.0
C1081 C 0.28329 0.20478 0.97435 0.0
C1082 C 0.30064 0.17503 0.97544 0.0
C1083 C 0.35297 0.14594 0.984 0.0
C1084 C 0.38851 0.14693 0.98809 0.0
C1085 C 0.33487 0.17525 0.98621 0.0
C1086 C 0.40522 0.17664 1.00014 0.0
C1087 C 0.38677 0.20567 0.00527 0.0
H1088 H 0.80595 0.3026 0.01735 0.0
H1089 H 0.8462 0.25167 0.10553 0.0
H1090 H 0.89815 0.28765 0.10423 0.0
H1091 H 0.92921 0.33602 0.08053 0.0
H1092 H 0.88629 0.38904 0.99513 0.0
H1093 H 0.83929 0.34728 0.99046 0.0
C1094 C 0.82606 0.29949 0.03647 0.0
C1095 C 0.82221 0.27515 0.06203 0.0
C1096 C 0.85569 0.31949 0.03495 0.0
C1097 C 0.84831 0.27107 0.08644 0.0
C1098 C 0.87815 0.29105 0.08515 0.0
C1099 C 0.91013 0.33764 0.06011 0.0
C1100 C 0.91066 0.36571 0.03858 0.0
C1101 C 0.8819 0.31543 0.05965 0.0
C1102 C 0.88639 0.36757 0.01187 0.0
C1103 C 0.85907 0.34427 0.00987 0.0
loop_
_geom_bond_atom_site_label_1
_geom_bond_atom_site_label_2
_geom_bond_distance
_geom_bond_site_symmetry_2
_ccdc_geom_bond_type
C0 O2 1.247 . S
C0 O4 1.258 . S
C1 O8 1.247 1_455 S
C1 O9 1.258 . S
O2 C0 1.247 . S
O2 Zn3 2.028 . S
Zn3 O2 2.028 . S
Zn3 O7 2.035 . S
Zn3 O9 2.035 . S
Zn3 O10 2.028 . S
O4 C0 1.258 . S
O4 Zn5 2.035 1_455 S
Zn5 O4 2.035 1_655 S
Zn5 O6 2.028 . S
Zn5 O8 2.028 . S
Zn5 O11 2.035 1_655 S
O6 Zn5 2.028 . S
O6 C12 1.247 1_655 S
O7 Zn3 2.035 . S
O7 C12 1.258 . S
O8 C1 1.247 1_655 S
O8 Zn5 2.028 . S
O9 C1 1.258 . S
O9 Zn3 2.035 . S
O10 Zn3 2.028 . S
O10 C13 1.247 . S
O11 Zn5 2.035 1_455 S
O11 C13 1.258 . S
C12 O6 1.247 1_455 S
C12 O7 1.258 . S
C13 O10 1.247 . S
C13 O11 1.258 . S
C14 O16 1.247 . S
C14 O18 1.258 1_455 S
C15 O22 1.247 1_455 S
C15 O23 1.258 . S
O16 C14 1.247 . S
O16 Zn17 2.028 . S
Zn17 O16 2.028 . S
Zn17 O21 2.035 . S
Zn17 O23 2.035 . S
Zn17 O24 2.028 . S
O18 C14 1.258 1_655 S
O18 Zn19 2.035 . S
Zn19 O18 2.035 . S
Zn19 O20 2.028 . S
Zn19 O22 2.028 . S
Zn19 O25 2.035 . S
O20 Zn19 2.028 . S
O20 C26 1.247 1_655 S
O21 Zn17 2.035 . S
O21 C26 1.258 . S
O22 C15 1.247 1_655 S
O22 Zn19 2.028 . S
O23 C15 1.258 . S
O23 Zn17 2.035 . S
O24 Zn17 2.028 . S
O24 C27 1.247 . S
O25 Zn19 2.035 . S
O25 C27 1.258 1_655 S
C26 O20 1.247 1_455 S
C26 O21 1.258 . S
C27 O24 1.247 . S
C27 O25 1.258 1_455 S
C28 O30 1.247 1_545 S
C28 O32 1.258 . S
C29 O36 1.247 1_565 S
C29 O37 1.258 . S
O30 C28 1.247 1_565 S
O30 Zn31 2.028 . S
Zn31 O30 2.028 . S
Zn31 O35 2.035 . S
Zn31 O37 2.035 . S
Zn31 O38 2.028 . S
O32 C28 1.258 . S
O32 Zn33 2.035 . S
Zn33 O32 2.035 . S
Zn33 O34 2.028 . S
Zn33 O36 2.028 . S
Zn33 O39 2.035 . S
O34 Zn33 2.028 . S
O34 C40 1.247 1_545 S
O35 Zn31 2.035 . S
O35 C40 1.258 . S
O36 C29 1.247 1_545 S
O36 Zn33 2.028 . S
O37 C29 1.258 . S
O37 Zn31 2.035 . S
O38 Zn31 2.028 . S
O38 C41 1.247 1_565 S
O39 Zn33 2.035 . S
O39 C41 1.258 . S
C40 O34 1.247 1_565 S
C40 O35 1.258 . S
C41 O38 1.247 1_545 S
C41 O39 1.258 . S
C42 O44 1.247 . S
C42 O46 1.258 . S
C43 O50 1.247 . S
C43 O51 1.258 . S
O44 C42 1.247 . S
O44 Zn45 2.028 . S
Zn45 O44 2.028 . S
Zn45 O49 2.035 . S
Zn45 O51 2.035 . S
Zn45 O52 2.028 . S
O46 C42 1.258 . S
O46 Zn47 2.035 . S
Zn47 O46 2.035 . S
Zn47 O48 2.028 . S
Zn47 O50 2.028 . S
Zn47 O53 2.035 . S
O48 Zn47 2.028 . S
O48 C54 1.247 . S
O49 Zn45 2.035 . S
O49 C54 1.258 . S
O50 C43 1.247 . S
O50 Zn47 2.028 . S
O51 C43 1.258 . S
O51 Zn45 2.035 . S
O52 Zn45 2.028 . S
O52 C55 1.247 . S
O53 Zn47 2.035 . S
O53 C55 1.258 . S
C54 O48 1.247 . S
C54 O49 1.258 . S
C55 O52 1.247 . S
C55 O53 1.258 . S
C56 O58 1.247 . S
C56 O60 1.258 . S
C57 O64 1.247 . S
C57 O65 1.258 1_554 S
O58 C56 1.247 . S
O58 Zn59 2.028 1_554 S
Zn59 O58 2.028 1_556 S
Zn59 O63 2.035 . S
Zn59 O65 2.035 . S
Zn59 O66 2.028 1_556 S
O60 C56 1.258 . S
O60 Zn61 2.035 . S
Zn61 O60 2.035 . S
Zn61 O62 2.028 . S
Zn61 O64 2.028 . S
Zn61 O67 2.035 . S
O62 Zn61 2.028 . S
O62 C68 1.247 . S
O63 Zn59 2.035 . S
O63 C68 1.258 1_556 S
O64 C57 1.247 . S
O64 Zn61 2.028 . S
O65 C57 1.258 1_556 S
O65 Zn59 2.035 . S
O66 Zn59 2.028 1_554 S
O66 C69 1.247 . S
O67 Zn61 2.035 . S
O67 C69 1.258 . S
C68 O62 1.247 . S
C68 O63 1.258 1_554 S
C69 O66 1.247 . S
C69 O67 1.258 . S
C70 O72 1.247 . S
C70 O74 1.258 . S
C71 O78 1.247 . S
C71 O79 1.258 . S
O72 C70 1.247 . S
O72 Zn73 2.028 . S
Zn73 O72 2.028 . S
Zn73 O77 2.035 . S
Zn73 O79 2.035 . S
Zn73 O80 2.028 . S
O74 C70 1.258 . S
O74 Zn75 2.035 . S
Zn75 O74 2.035 . S
Zn75 O76 2.028 . S
Zn75 O78 2.028 . S
Zn75 O81 2.035 . S
O76 Zn75 2.028 . S
O76 C82 1.247 . S
O77 Zn73 2.035 . S
O77 C82 1.258 . S
O78 C71 1.247 . S
O78 Zn75 2.028 . S
O79 C71 1.258 . S
O79 Zn73 2.035 . S
O80 Zn73 2.028 . S
O80 C83 1.247 . S
O81 Zn75 2.035 . S
O81 C83 1.258 . S
C82 O76 1.247 . S
C82 O77 1.258 . S
C83 O80 1.247 . S
C83 O81 1.258 . S
C84 O86 1.247 . S
C84 O88 1.258 . S
C85 O92 1.247 . S
C85 O93 1.258 . S
O86 C84 1.247 . S
O86 Zn87 2.028 . S
Zn87 O86 2.028 . S
Zn87 O91 2.035 . S
Zn87 O93 2.035 . S
Zn87 O94 2.028 . S
O88 C84 1.258 . S
O88 Zn89 2.035 . S
Zn89 O88 2.035 . S
Zn89 O90 2.028 . S
Zn89 O92 2.028 . S
Zn89 O95 2.035 . S
O90 Zn89 2.028 . S
O90 C96 1.247 . S
O91 Zn87 2.035 . S
O91 C96 1.258 . S
O92 C85 1.247 . S
O92 Zn89 2.028 . S
O93 C85 1.258 . S
O93 Zn87 2.035 . S
O94 Zn87 2.028 . S
O94 C97 1.247 . S
O95 Zn89 2.035 . S
O95 C97 1.258 . S
C96 O90 1.247 . S
C96 O91 1.258 . S
C97 O94 1.247 . S
C97 O95 1.258 . S
C98 O100 1.247 . S
C98 O102 1.258 . S
C99 O106 1.247 . S
C99 O107 1.258 . S
O100 C98 1.247 . S
O100 Zn101 2.028 . S
Zn101 O100 2.028 . S
Zn101 O105 2.035 . S
Zn101 O107 2.035 . S
Zn101 O108 2.028 . S
O102 C98 1.258 . S
O102 Zn103 2.035 . S
Zn103 O102 2.035 . S
Zn103 O104 2.028 . S
Zn103 O106 2.028 . S
Zn103 O109 2.035 . S
O104 Zn103 2.028 . S
O104 C110 1.247 . S
O105 Zn101 2.035 . S
O105 C110 1.258 . S
O106 C99 1.247 . S
O106 Zn103 2.028 . S
O107 C99 1.258 . S
O107 Zn101 2.035 . S
O108 Zn101 2.028 . S
O108 C111 1.247 . S
O109 Zn103 2.035 . S
O109 C111 1.258 . S
C110 O104 1.247 . S
C110 O105 1.258 . S
C111 O108 1.247 . S
C111 O109 1.258 . S
C112 O114 1.247 . S
C112 O116 1.258 . S
C113 O120 1.247 . S
C113 O121 1.258 . S
O114 C112 1.247 . S
O114 Zn115 2.028 . S
Zn115 O114 2.028 . S
Zn115 O119 2.035 . S
Zn115 O121 2.035 . S
Zn115 O122 2.028 . S
O116 C112 1.258 . S
O116 Zn117 2.035 . S
Zn117 O116 2.035 . S
Zn117 O118 2.028 . S
Zn117 O120 2.028 . S
Zn117 O123 2.035 . S
O118 Zn117 2.028 . S
O118 C124 1.247 . S
O119 Zn115 2.035 . S
O119 C124 1.258 . S
O120 C113 1.247 . S
O120 Zn117 2.028 . S
O121 C113 1.258 . S
O121 Zn115 2.035 . S
O122 Zn115 2.028 . S
O122 C125 1.247 . S
O123 Zn117 2.035 . S
O123 C125 1.258 . S
C124 O118 1.247 . S
C124 O119 1.258 . S
C125 O122 1.247 . S
C125 O123 1.258 . S
C126 O128 1.247 . S
C126 O130 1.258 . S
C127 O134 1.247 . S
C127 O135 1.258 . S
O128 C126 1.247 . S
O128 Zn129 2.028 . S
Zn129 O128 2.028 . S
Zn129 O133 2.035 . S
Zn129 O135 2.035 . S
Zn129 O136 2.028 . S
O130 C126 1.258 . S
O130 Zn131 2.035 . S
Zn131 O130 2.035 . S
Zn131 O132 2.028 . S
Zn131 O134 2.028 . S
Zn131 O137 2.035 . S
O132 Zn131 2.028 . S
O132 C138 1.247 . S
O133 Zn129 2.035 . S
O133 C138 1.258 . S
O134 C127 1.247 . S
O134 Zn131 2.028 . S
O135 C127 1.258 . S
O135 Zn129 2.035 . S
O136 Zn129 2.028 . S
O136 C139 1.247 . S
O137 Zn131 2.035 . S
O137 C139 1.258 . S
C138 O132 1.247 . S
C138 O133 1.258 . S
C139 O136 1.247 . S
C139 O137 1.258 . S
C140 O142 1.247 . S
C140 O144 1.258 1_565 S
C141 O148 1.247 . S
C141 O149 1.258 1_545 S
O142 C140 1.247 . S
O142 Zn143 2.028 . S
Zn143 O142 2.028 . S
Zn143 O147 2.035 . S
Zn143 O149 2.035 . S
Zn143 O150 2.028 . S
O144 C140 1.258 1_545 S
O144 Zn145 2.035 . S
Zn145 O144 2.035 . S
Zn145 O146 2.028 . S
Zn145 O148 2.028 . S
Zn145 O151 2.035 . S
O146 Zn145 2.028 . S
O146 C152 1.247 . S
O147 Zn143 2.035 . S
O147 C152 1.258 1_565 S
O148 C141 1.247 . S
O148 Zn145 2.028 . S
O149 C141 1.258 1_565 S
O149 Zn143 2.035 . S
O150 Zn143 2.028 . S
O150 C153 1.247 . S
O151 Zn145 2.035 . S
O151 C153 1.258 1_545 S
C152 O146 1.247 . S
C152 O147 1.258 1_545 S
C153 O150 1.247 . S
C153 O151 1.258 1_565 S
C154 O156 1.247 . S
C154 O158 1.258 1_554 S
C155 O162 1.247 . S
C155 O163 1.258 . S
O156 C154 1.247 . S
O156 Zn157 2.028 . S
Zn157 O156 2.028 . S
Zn157 O161 2.035 . S
Zn157 O163 2.035 . S
Zn157 O164 2.028 . S
O158 C154 1.258 1_556 S
O158 Zn159 2.035 . S
Zn159 O158 2.035 . S
Zn159 O160 2.028 1_556 S
Zn159 O162 2.028 1_556 S
Zn159 O165 2.035 . S
O160 Zn159 2.028 1_554 S
O160 C166 1.247 . S
O161 Zn157 2.035 . S
O161 C166 1.258 . S
O162 C155 1.247 . S
O162 Zn159 2.028 1_554 S
O163 C155 1.258 . S
O163 Zn157 2.035 . S
O164 Zn157 2.028 . S
O164 C167 1.247 . S
O165 Zn159 2.035 . S
O165 C167 1.258 1_556 S
C166 O160 1.247 . S
C166 O161 1.258 . S
C167 O164 1.247 . S
C167 O165 1.258 1_554 S
O168 Mn169 2.163 . S
O168 C182 1.244 . S
Mn169 O168 2.163 . S
Mn169 O172 2.160 1_554 S
Mn169 O173 2.221 1_455 S
Mn169 O175 2.163 . S
Mn169 O177 2.160 . S
Mn169 O187 2.221 . S
O170 Mn171 2.087 . S
O170 C182 1.256 . S
Mn171 O170 2.087 . S
Mn171 O178 2.089 . S
Mn171 O187 2.290 . S
Mn171 O188 2.251 . S
O172 Mn169 2.160 1_556 S
O172 C183 1.239 . S
O173 Mn169 2.221 1_655 S
O173 Mn174 2.290 1_554 S
O173 C184 1.278 . S
Mn174 O173 2.290 1_556 S
Mn174 O176 2.088 1_655 S
Mn174 O179 2.251 1_556 S
Mn174 O180 2.087 1_546 S
O175 Mn169 2.163 . S
O175 C185 1.244 1_545 S
O176 Mn174 2.088 1_455 S
O176 C183 1.254 . S
O177 Mn169 2.160 . S
O177 C186 1.239 . S
O178 Mn171 2.089 . S
O178 C186 1.256 . S
O179 Mn174 2.251 1_554 S
O179 C184 1.241 . S
O180 Mn174 2.087 1_564 S
O180 C185 1.256 1_655 S
C181 O187 1.278 . S
C181 O188 1.241 . S
C182 O168 1.244 . S
C182 O170 1.256 . S
C183 O172 1.239 . S
C183 O176 1.254 . S
C184 O173 1.278 . S
C184 O179 1.241 . S
C185 O175 1.244 1_565 S
C185 O180 1.256 1_455 S
C186 O177 1.239 . S
C186 O178 1.256 . S
O187 Mn169 2.221 . S
O187 Mn171 2.290 . S
O187 C181 1.278 . S
O188 Mn171 2.251 . S
O188 C181 1.241 . S
O189 Mn190 2.163 . S
O189 C203 1.244 . S
Mn190 O189 2.163 . S
Mn190 O193 2.160 1_554 S
Mn190 O194 2.221 . S
Mn190 O196 2.163 . S
Mn190 O198 2.160 . S
Mn190 O208 2.221 . S
O191 Mn192 2.087 . S
O191 C203 1.256 . S
Mn192 O191 2.087 . S
Mn192 O199 2.089 . S
Mn192 O208 2.290 . S
Mn192 O209 2.251 . S
O193 Mn190 2.160 1_556 S
O193 C204 1.239 . S
O194 Mn190 2.221 . S
O194 Mn195 2.290 1_654 S
O194 C205 1.278 1_655 S
Mn195 O194 2.290 1_456 S
Mn195 O197 2.089 1_455 S
Mn195 O200 2.251 1_556 S
Mn195 O201 2.087 1_556 S
O196 Mn190 2.163 . S
O196 C206 1.244 . S
O197 Mn195 2.089 1_655 S
O197 C204 1.256 . S
O198 Mn190 2.160 . S
O198 C207 1.239 . S
O199 Mn192 2.089 . S
O199 C207 1.256 . S
O200 Mn195 2.251 1_554 S
O200 C205 1.241 . S
O201 Mn195 2.087 1_554 S
O201 C206 1.256 1_455 S
C202 O208 1.278 . S
C202 O209 1.241 . S
C203 O189 1.244 . S
C203 O191 1.256 . S
C204 O193 1.239 . S
C204 O197 1.256 . S
C205 O194 1.278 1_455 S
C205 O200 1.241 . S
C206 O196 1.244 . S
C206 O201 1.256 1_655 S
C207 O198 1.239 . S
C207 O199 1.256 . S
O208 Mn190 2.221 . S
O208 Mn192 2.290 . S
O208 C202 1.278 . S
O209 Mn192 2.251 . S
O209 C202 1.241 . S
O210 Mn211 2.163 . S
O210 C224 1.244 . S
Mn211 O210 2.163 . S
Mn211 O214 2.160 1_455 S
Mn211 O215 2.193 1_565 S
Mn211 O217 2.163 . S
Mn211 O219 2.160 . S
Mn211 O229 2.221 . S
O212 Mn213 2.087 . S
O212 C224 1.256 . S
Mn213 O212 2.087 . S
Mn213 O220 2.089 . S
Mn213 O229 2.290 . S
Mn213 O230 2.251 . S
O214 Mn211 2.160 1_655 S
O214 C225 1.239 . S
O215 Mn211 2.193 1_545 S
O215 Mn216 2.300 1_455 S
O215 C226 1.310 . S
Mn216 O215 2.300 1_655 S
Mn216 O218 2.089 1_545 S
Mn216 O221 2.251 1_655 S
Mn216 O222 2.087 1_655 S
O217 Mn211 2.163 . S
O217 C227 1.244 . S
O218 Mn216 2.089 1_565 S
O218 C225 1.256 . S
O219 Mn211 2.160 . S
O219 C228 1.239 . S
O220 Mn213 2.089 . S
O220 C228 1.256 . S
O221 Mn216 2.251 1_455 S
O221 C226 1.241 . S
O222 Mn216 2.087 1_455 S
O222 C227 1.256 1_545 S
C223 O229 1.278 . S
C223 O230 1.241 . S
C224 O210 1.244 . S
C224 O212 1.256 . S
C225 O214 1.239 . S
C225 O218 1.256 . S
C226 O215 1.310 . S
C226 O221 1.241 . S
C227 O217 1.244 . S
C227 O222 1.256 1_565 S
C228 O219 1.239 . S
C228 O220 1.256 . S
O229 Mn211 2.221 . S
O229 Mn213 2.290 . S
O229 C223 1.278 . S
O230 Mn213 2.251 . S
O230 C223 1.241 . S
O231 Mn232 2.163 . S
O231 C245 1.244 . S
Mn232 O231 2.163 . S
Mn232 O235 2.160 . S
Mn232 O236 2.221 . S
Mn232 O238 2.163 . S
Mn232 O240 2.160 . S
Mn232 O250 2.221 . S
O233 Mn234 2.087 . S
O233 C245 1.256 . S
Mn234 O233 2.087 . S
Mn234 O241 2.089 . S
Mn234 O250 2.290 . S
Mn234 O251 2.251 . S
O235 Mn232 2.160 . S
O235 C246 1.239 . S
O236 Mn232 2.221 . S
O236 Mn237 2.290 . S
O236 C247 1.278 . S
Mn237 O236 2.290 . S
Mn237 O239 2.089 1_655 S
Mn237 O242 2.251 . S
Mn237 O243 2.087 1_655 S
O238 Mn232 2.163 . S
O238 C248 1.244 1_655 S
O239 Mn237 2.089 1_455 S
O239 C246 1.256 1_455 S
O240 Mn232 2.160 . S
O240 C249 1.239 . S
O241 Mn234 2.089 . S
O241 C249 1.256 . S
O242 Mn237 2.251 . S
O242 C247 1.241 . S
O243 Mn237 2.087 1_455 S
O243 C248 1.256 . S
C244 O250 1.278 . S
C244 O251 1.241 . S
C245 O231 1.244 . S
C245 O233 1.256 . S
C246 O235 1.239 . S
C246 O239 1.256 1_655 S
C247 O236 1.278 . S
C247 O242 1.241 . S
C248 O238 1.244 1_455 S
C248 O243 1.256 . S
C249 O240 1.239 . S
C249 O241 1.256 . S
O250 Mn232 2.221 . S
O250 Mn234 2.290 . S
O250 C244 1.278 . S
O251 Mn234 2.251 . S
O251 C244 1.241 . S
O252 Mn253 2.163 . S
O252 C266 1.244 . S
Mn253 O252 2.163 . S
Mn253 O256 2.160 . S
Mn253 O257 2.221 . S
Mn253 O259 2.163 1_565 S
Mn253 O261 2.160 . S
Mn253 O271 2.221 . S
O254 Mn255 2.087 . S
O254 C266 1.256 . S
Mn255 O254 2.087 . S
Mn255 O262 2.089 . S
Mn255 O271 2.290 . S
Mn255 O272 2.251 . S
O256 Mn253 2.160 . S
O256 C267 1.239 . S
O257 Mn253 2.221 . S
O257 Mn258 2.290 . S
O257 C268 1.278 . S
Mn258 O257 2.290 . S
Mn258 O260 2.089 1_565 S
Mn258 O263 2.251 . S
Mn258 O264 2.087 1_565 S
O259 Mn253 2.163 1_545 S
O259 C269 1.244 . S
O260 Mn258 2.089 1_545 S
O260 C267 1.256 1_545 S
O261 Mn253 2.160 . S
O261 C270 1.239 . S
O262 Mn255 2.089 . S
O262 C270 1.256 . S
O263 Mn258 2.251 . S
O263 C268 1.241 . S
O264 Mn258 2.087 1_545 S
O264 C269 1.256 . S
C265 O271 1.278 . S
C265 O272 1.241 . S
C266 O252 1.244 . S
C266 O254 1.256 . S
C267 O256 1.239 . S
C267 O260 1.256 1_565 S
C268 O257 1.278 . S
C268 O263 1.241 . S
C269 O259 1.244 . S
C269 O264 1.256 . S
C270 O261 1.239 . S
C270 O262 1.256 . S
O271 Mn253 2.221 . S
O271 Mn255 2.290 . S
O271 C265 1.278 . S
O272 Mn255 2.251 . S
O272 C265 1.241 . S
O273 Mn274 2.163 . S
O273 C287 1.244 . S
Mn274 O273 2.163 . S
Mn274 O277 2.160 . S
Mn274 O278 2.221 . S
Mn274 O280 2.163 . S
Mn274 O282 2.160 . S
Mn274 O292 2.221 . S
O275 Mn276 2.087 . S
O275 C287 1.256 . S
Mn276 O275 2.087 . S
Mn276 O283 2.089 . S
Mn276 O292 2.290 . S
Mn276 O293 2.251 . S
O277 Mn274 2.160 . S
O277 C288 1.239 . S
O278 Mn274 2.221 . S
O278 Mn279 2.290 . S
O278 C289 1.278 . S
Mn279 O278 2.290 . S
Mn279 O281 2.089 . S
Mn279 O284 2.251 . S
Mn279 O285 2.087 . S
O280 Mn274 2.163 . S
O280 C290 1.244 . S
O281 Mn279 2.089 . S
O281 C288 1.256 . S
O282 Mn274 2.160 . S
O282 C291 1.239 . S
O283 Mn276 2.089 . S
O283 C291 1.256 . S
O284 Mn279 2.251 . S
O284 C289 1.241 . S
O285 Mn279 2.087 . S
O285 C290 1.256 . S
C286 O292 1.278 . S
C286 O293 1.241 . S
C287 O273 1.244 . S
C287 O275 1.256 . S
C288 O277 1.239 . S
C288 O281 1.256 . S
C289 O278 1.278 . S
C289 O284 1.241 . S
C290 O280 1.244 . S
C290 O285 1.256 . S
C291 O282 1.239 . S
C291 O283 1.256 . S
O292 Mn274 2.221 . S
O292 Mn276 2.290 . S
O292 C286 1.278 . S
O293 Mn276 2.251 . S
O293 C286 1.241 . S
O294 Mn295 2.163 . S
O294 C308 1.244 . S
Mn295 O294 2.163 . S
Mn295 O298 2.160 . S
Mn295 O299 2.221 . S
Mn295 O301 2.163 . S
Mn295 O303 2.160 . S
Mn295 O313 2.221 . S
O296 Mn297 2.087 . S
O296 C308 1.256 . S
Mn297 O296 2.087 . S
Mn297 O304 2.089 . S
Mn297 O313 2.290 . S
Mn297 O314 2.251 . S
O298 Mn295 2.160 . S
O298 C309 1.239 . S
O299 Mn295 2.221 . S
O299 Mn300 2.290 . S
O299 C310 1.278 . S
Mn300 O299 2.290 . S
Mn300 O302 2.090 . S
Mn300 O305 2.251 . S
Mn300 O306 2.087 1_556 S
O301 Mn295 2.163 . S
O301 C311 1.244 1_556 S
O302 Mn300 2.090 . S
O302 C309 1.258 . S
O303 Mn295 2.160 . S
O303 C312 1.239 . S
O304 Mn297 2.089 . S
O304 C312 1.256 . S
O305 Mn300 2.251 . S
O305 C310 1.241 . S
O306 Mn300 2.087 1_554 S
O306 C311 1.256 . S
C307 O313 1.278 . S
C307 O314 1.241 . S
C308 O294 1.244 . S
C308 O296 1.256 . S
C309 O298 1.239 . S
C309 O302 1.258 . S
C310 O299 1.278 . S
C310 O305 1.241 . S
C311 O301 1.244 1_554 S
C311 O306 1.256 . S
C312 O303 1.239 . S
C312 O304 1.256 . S
O313 Mn295 2.221 . S
O313 Mn297 2.290 . S
O313 C307 1.278 . S
O314 Mn297 2.251 . S
O314 C307 1.241 . S
O315 Mn316 2.163 . S
O315 C329 1.244 . S
Mn316 O315 2.163 . S
Mn316 O319 2.160 . S
Mn316 O320 2.221 . S
Mn316 O322 2.163 . S
Mn316 O324 2.160 . S
Mn316 O334 2.221 . S
O317 Mn318 2.087 . S
O317 C329 1.256 . S
Mn318 O317 2.087 . S
Mn318 O325 2.089 . S
Mn318 O334 2.290 . S
Mn318 O335 2.251 . S
O319 Mn316 2.160 . S
O319 C330 1.239 1_545 S
O320 Mn316 2.221 . S
O320 Mn321 2.290 1_556 S
O320 C331 1.278 1_556 S
Mn321 O320 2.290 1_554 S
Mn321 O323 2.089 1_544 S
Mn321 O326 2.251 . S
Mn321 O327 2.087 . S
O322 Mn316 2.163 . S
O322 C332 1.244 . S
O323 Mn321 2.089 1_566 S
O323 C330 1.256 . S
O324 Mn316 2.160 . S
O324 C333 1.239 . S
O325 Mn318 2.089 . S
O325 C333 1.256 . S
O326 Mn321 2.251 . S
O326 C331 1.241 . S
O327 Mn321 2.087 . S
O327 C332 1.256 1_554 S
C328 O334 1.278 . S
C328 O335 1.241 . S
C329 O315 1.244 . S
C329 O317 1.256 . S
C330 O319 1.239 1_565 S
C330 O323 1.256 . S
C331 O320 1.278 1_554 S
C331 O326 1.241 . S
C332 O322 1.244 . S
C332 O327 1.256 1_556 S
C333 O324 1.239 . S
C333 O325 1.256 . S
O334 Mn316 2.221 . S
O334 Mn318 2.290 . S
O334 C328 1.278 . S
O335 Mn318 2.251 . S
O335 C328 1.241 . S
H336 C342 0.930 . S
H337 C345 0.930 1_655 S
H338 C346 0.930 1_655 S
H339 C347 0.930 1_655 S
H340 C350 0.930 . S
H341 C351 0.930 . S
C342 H336 0.930 . S
C342 C343 1.355 . S
C342 C344 1.415 . S
C343 C342 1.355 . S
C343 C345 1.419 . S
C344 C342 1.415 . S
C344 C349 1.425 . S
C344 C351 1.409 . S
C345 H337 0.930 1_455 S
C345 C343 1.419 . S
C345 C346 1.362 . S
C346 H338 0.930 1_455 S
C346 C345 1.362 . S
C346 C349 1.409 . S
C347 H339 0.930 1_455 S
C347 C348 1.355 . S
C347 C349 1.415 . S
C348 C347 1.355 . S
C348 C350 1.419 . S
C349 C344 1.425 . S
C349 C346 1.409 . S
C349 C347 1.415 . S
C350 H340 0.930 . S
C350 C348 1.419 . S
C350 C351 1.362 . S
C351 H341 0.930 . S
C351 C344 1.409 . S
C351 C350 1.362 . S
H352 C358 0.930 . S
H353 C361 0.930 . S
H354 C362 0.930 . S
H355 C363 0.930 . S
H356 C366 0.930 . S
H357 C367 0.930 . S
C358 H352 0.930 . S
C358 C359 1.355 1_655 S
C358 C360 1.415 . S
C359 C358 1.355 1_455 S
C359 C361 1.419 . S
C360 C358 1.415 . S
C360 C365 1.425 1_655 S
C360 C367 1.409 . S
C361 H353 0.930 . S
C361 C359 1.419 . S
C361 C362 1.362 . S
C362 H354 0.930 . S
C362 C361 1.362 . S
C362 C365 1.409 . S
C363 H355 0.930 . S
C363 C364 1.355 1_455 S
C363 C365 1.415 . S
C364 C363 1.355 1_655 S
C364 C366 1.419 . S
C365 C360 1.425 1_455 S
C365 C362 1.409 . S
C365 C363 1.415 . S
C366 H356 0.930 . S
C366 C364 1.419 . S
C366 C367 1.362 . S
C367 H357 0.930 . S
C367 C360 1.409 . S
C367 C366 1.362 . S
H368 C374 0.930 . S
H369 C377 0.931 . S
H370 C378 0.930 . S
H371 C379 0.913 1_655 S
H372 C382 0.930 . S
H373 C383 0.930 . S
C374 H368 0.930 . S
C374 C375 1.355 . S
C374 C376 1.415 . S
C375 C374 1.355 . S
C375 C377 1.418 1_455 S
C376 C374 1.415 . S
C376 C381 1.425 . S
C376 C383 1.409 . S
C377 H369 0.931 . S
C377 C375 1.418 1_655 S
C377 C378 1.363 . S
C378 H370 0.930 . S
C378 C377 1.363 . S
C378 C381 1.409 1_655 S
C379 H371 0.913 1_455 S
C379 C380 1.365 . S
C379 C381 1.421 . S
C380 C379 1.365 . S
C380 C382 1.419 . S
C381 C376 1.425 . S
C381 C378 1.409 1_455 S
C381 C379 1.421 . S
C382 H372 0.930 . S
C382 C380 1.419 . S
C382 C383 1.362 . S
C383 H373 0.930 . S
C383 C376 1.409 . S
C383 C382 1.362 . S
H384 C390 0.930 . S
H385 C393 0.930 . S
H386 C394 0.930 . S
H387 C395 0.930 . S
H388 C398 0.930 . S
H389 C399 0.930 . S
C390 H384 0.930 . S
C390 C391 1.355 1_455 S
C390 C392 1.415 . S
C391 C390 1.355 1_655 S
C391 C393 1.419 . S
C392 C390 1.415 . S
C392 C397 1.425 1_455 S
C392 C399 1.409 . S
C393 H385 0.930 . S
C393 C391 1.419 . S
C393 C394 1.362 . S
C394 H386 0.930 . S
C394 C393 1.362 . S
C394 C397 1.409 . S
C395 H387 0.930 . S
C395 C396 1.355 . S
C395 C397 1.415 . S
C396 C395 1.355 . S
C396 C398 1.419 1_655 S
C397 C392 1.425 1_655 S
C397 C394 1.409 . S
C397 C395 1.415 . S
C398 H388 0.930 . S
C398 C396 1.419 1_455 S
C398 C399 1.362 . S
C399 H389 0.930 . S
C399 C392 1.409 . S
C399 C398 1.362 . S
H400 C406 0.930 . S
H401 C409 0.930 . S
H402 C410 0.930 . S
H403 C411 0.930 . S
H404 C414 0.930 . S
H405 C415 0.930 . S
C406 H400 0.930 . S
C406 C407 1.355 . S
C406 C408 1.415 . S
C407 C406 1.355 . S
C407 C409 1.419 . S
C408 C406 1.415 . S
C408 C413 1.425 . S
C408 C415 1.409 . S
C409 H401 0.930 . S
C409 C407 1.419 . S
C409 C410 1.362 . S
C410 H402 0.930 . S
C410 C409 1.362 . S
C410 C413 1.409 . S
C411 H403 0.930 . S
C411 C412 1.355 . S
C411 C413 1.415 . S
C412 C411 1.355 . S
C412 C414 1.419 . S
C413 C408 1.425 . S
C413 C410 1.409 . S
C413 C411 1.415 . S
C414 H404 0.930 . S
C414 C412 1.419 . S
C414 C415 1.362 . S
C415 H405 0.930 . S
C415 C408 1.409 . S
C415 C414 1.362 . S
H416 C422 0.930 . S
H417 C425 0.930 . S
H418 C426 0.930 . S
H419 C427 0.930 . S
H420 C430 0.930 . S
H421 C431 0.930 . S
C422 H416 0.930 . S
C422 C423 1.355 . S
C422 C424 1.415 . S
C423 C422 1.355 . S
C423 C425 1.419 . S
C424 C422 1.415 . S
C424 C429 1.425 . S
C424 C431 1.409 . S
C425 H417 0.930 . S
C425 C423 1.419 . S
C425 C426 1.362 . S
C426 H418 0.930 . S
C426 C425 1.362 . S
C426 C429 1.409 . S
C427 H419 0.930 . S
C427 C428 1.355 . S
C427 C429 1.415 . S
C428 C427 1.355 . S
C428 C430 1.419 . S
C429 C424 1.425 . S
C429 C426 1.409 . S
C429 C427 1.415 . S
C430 H420 0.930 . S
C430 C428 1.419 . S
C430 C431 1.362 . S
C431 H421 0.930 . S
C431 C424 1.409 . S
C431 C430 1.362 . S
H432 C438 0.930 . S
H433 C441 0.930 . S
H434 C442 0.930 . S
H435 C443 0.930 . S
H436 C446 0.930 . S
H437 C447 0.930 . S
C438 H432 0.930 . S
C438 C439 1.355 . S
C438 C440 1.415 . S
C439 C438 1.355 . S
C439 C441 1.419 1_565 S
C440 C438 1.415 . S
C440 C445 1.425 1_565 S
C440 C447 1.409 . S
C441 H433 0.930 . S
C441 C439 1.419 1_545 S
C441 C442 1.362 . S
C442 H434 0.930 . S
C442 C441 1.362 . S
C442 C445 1.409 . S
C443 H435 0.930 . S
C443 C444 1.355 1_545 S
C443 C445 1.415 . S
C444 C443 1.355 1_565 S
C444 C446 1.419 . S
C445 C440 1.425 1_545 S
C445 C442 1.409 . S
C445 C443 1.415 . S
C446 H436 0.930 . S
C446 C444 1.419 . S
C446 C447 1.362 . S
C447 H437 0.930 . S
C447 C440 1.409 . S
C447 C446 1.362 . S
H448 C454 0.930 . S
H449 C457 0.930 . S
H450 C458 0.930 . S
H451 C459 0.930 . S
H452 C462 0.930 . S
H453 C463 0.930 . S
C454 H448 0.930 . S
C454 C455 1.355 . S
C454 C456 1.415 . S
C455 C454 1.355 . S
C455 C457 1.419 . S
C456 C454 1.415 . S
C456 C461 1.425 . S
C456 C463 1.409 . S
C457 H449 0.930 . S
C457 C455 1.419 . S
C457 C458 1.362 . S
C458 H450 0.930 . S
C458 C457 1.362 . S
C458 C461 1.409 . S
C459 H451 0.930 . S
C459 C460 1.355 . S
C459 C461 1.415 . S
C460 C459 1.355 . S
C460 C462 1.419 . S
C461 C456 1.425 . S
C461 C458 1.409 . S
C461 C459 1.415 . S
C462 H452 0.930 . S
C462 C460 1.419 . S
C462 C463 1.362 . S
C463 H453 0.930 . S
C463 C456 1.409 . S
C463 C462 1.362 . S
H464 C470 0.930 . S
H465 C473 0.930 . S
H466 C474 0.930 . S
H467 C475 0.930 . S
H468 C478 0.930 1_556 S
H469 C479 0.930 1_556 S
C470 H464 0.930 . S
C470 C471 1.355 . S
C470 C472 1.415 . S
C471 C470 1.355 . S
C471 C473 1.419 . S
C472 C470 1.415 . S
C472 C477 1.425 . S
C472 C479 1.409 . S
C473 H465 0.930 . S
C473 C471 1.419 . S
C473 C474 1.362 . S
C474 H466 0.930 . S
C474 C473 1.362 . S
C474 C477 1.409 . S
C475 H467 0.930 . S
C475 C476 1.355 . S
C475 C477 1.415 . S
C476 C475 1.355 . S
C476 C478 1.419 . S
C477 C472 1.425 . S
C477 C474 1.409 . S
C477 C475 1.415 . S
C478 H468 0.930 1_554 S
C478 C476 1.419 . S
C478 C479 1.362 . S
C479 H469 0.930 1_554 S
C479 C472 1.409 . S
C479 C478 1.362 . S
H480 C486 0.930 . S
H481 C489 0.930 . S
H482 C490 0.930 . S
H483 C491 0.930 . S
H484 C494 0.930 . S
H485 C495 0.930 . S
C486 H480 0.930 . S
C486 C487 1.355 . S
C486 C488 1.415 . S
C487 C486 1.355 . S
C487 C489 1.419 . S
C488 C486 1.415 . S
C488 C493 1.425 . S
C488 C495 1.409 . S
C489 H481 0.930 . S
C489 C487 1.419 . S
C489 C490 1.362 . S
C490 H482 0.930 . S
C490 C489 1.362 . S
C490 C493 1.409 . S
C491 H483 0.930 . S
C491 C492 1.355 . S
C491 C493 1.415 . S
C492 C491 1.355 . S
C492 C494 1.419 . S
C493 C488 1.425 . S
C493 C490 1.409 . S
C493 C491 1.415 . S
C494 H484 0.930 . S
C494 C492 1.419 . S
C494 C495 1.362 . S
C495 H485 0.930 . S
C495 C488 1.409 . S
C495 C494 1.362 . S
H496 C502 0.930 . S
H497 C505 0.930 . S
H498 C506 0.930 . S
H499 C507 0.930 . S
H500 C510 0.930 . S
H501 C511 0.930 . S
C502 H496 0.930 . S
C502 C503 1.355 . S
C502 C504 1.415 . S
C503 C502 1.355 . S
C503 C505 1.419 . S
C504 C502 1.415 . S
C504 C509 1.425 . S
C504 C511 1.409 . S
C505 H497 0.930 . S
C505 C503 1.419 . S
C505 C506 1.362 . S
C506 H498 0.930 . S
C506 C505 1.362 . S
C506 C509 1.409 . S
C507 H499 0.930 . S
C507 C508 1.355 . S
C507 C509 1.415 . S
C508 C507 1.355 . S
C508 C510 1.419 . S
C509 C504 1.425 . S
C509 C506 1.409 . S
C509 C507 1.415 . S
C510 H500 0.930 . S
C510 C508 1.419 . S
C510 C511 1.362 . S
C511 H501 0.930 . S
C511 C504 1.409 . S
C511 C510 1.362 . S
H512 C518 0.930 . S
H513 C521 0.930 . S
H514 C522 0.930 . S
H515 C523 0.930 . S
H516 C526 0.930 . S
H517 C527 0.930 . S
C518 H512 0.930 . S
C518 C519 1.355 . S
C518 C520 1.415 . S
C519 C518 1.355 . S
C519 C521 1.419 . S
C520 C518 1.415 . S
C520 C525 1.425 . S
C520 C527 1.409 . S
C521 H513 0.930 . S
C521 C519 1.419 . S
C521 C522 1.362 . S
C522 H514 0.930 . S
C522 C521 1.362 . S
C522 C525 1.409 . S
C523 H515 0.930 . S
C523 C524 1.355 . S
C523 C525 1.415 . S
C524 C523 1.355 . S
C524 C526 1.419 . S
C525 C520 1.425 . S
C525 C522 1.409 . S
C525 C523 1.415 . S
C526 H516 0.930 . S
C526 C524 1.419 . S
C526 C527 1.362 . S
C527 H517 0.930 . S
C527 C520 1.409 . S
C527 C526 1.362 . S
H528 C534 0.930 . S
H529 C537 0.930 . S
H530 C538 0.930 . S
H531 C539 0.930 . S
H532 C542 0.930 . S
H533 C543 0.930 . S
C534 H528 0.930 . S
C534 C535 1.355 . S
C534 C536 1.415 . S
C535 C534 1.355 . S
C535 C537 1.419 . S
C536 C534 1.415 . S
C536 C541 1.425 . S
C536 C543 1.409 . S
C537 H529 0.930 . S
C537 C535 1.419 . S
C537 C538 1.362 . S
C538 H530 0.930 . S
C538 C537 1.362 . S
C538 C541 1.409 . S
C539 H531 0.930 . S
C539 C540 1.355 . S
C539 C541 1.415 . S
C540 C539 1.355 . S
C540 C542 1.419 . S
C541 C536 1.425 . S
C541 C538 1.409 . S
C541 C539 1.415 . S
C542 H532 0.930 . S
C542 C540 1.419 . S
C542 C543 1.362 . S
C543 H533 0.930 . S
C543 C536 1.409 . S
C543 C542 1.362 . S
H544 C550 0.930 . S
H545 C553 0.930 . S
H546 C554 0.930 . S
H547 C555 0.930 . S
H548 C558 0.930 . S
H549 C559 0.930 . S
C550 H544 0.930 . S
C550 C551 1.355 . S
C550 C552 1.415 . S
C551 C550 1.355 . S
C551 C553 1.419 . S
C552 C550 1.415 . S
C552 C557 1.425 . S
C552 C559 1.409 . S
C553 H545 0.930 . S
C553 C551 1.419 . S
C553 C554 1.362 . S
C554 H546 0.930 . S
C554 C553 1.362 . S
C554 C557 1.409 . S
C555 H547 0.930 . S
C555 C556 1.355 . S
C555 C557 1.415 . S
C556 C555 1.355 . S
C556 C558 1.419 . S
C557 C552 1.425 . S
C557 C554 1.409 . S
C557 C555 1.415 . S
C558 H548 0.930 . S
C558 C556 1.419 . S
C558 C559 1.362 . S
C559 H549 0.930 . S
C559 C552 1.409 . S
C559 C558 1.362 . S
H560 C566 0.930 . S
H561 C569 0.930 . S
H562 C570 0.930 . S
H563 C571 0.930 . S
H564 C574 0.930 . S
H565 C575 0.930 . S
C566 H560 0.930 . S
C566 C567 1.355 . S
C566 C568 1.415 . S
C567 C566 1.355 . S
C567 C569 1.419 . S
C568 C566 1.415 . S
C568 C573 1.425 . S
C568 C575 1.409 . S
C569 H561 0.930 . S
C569 C567 1.419 . S
C569 C570 1.362 . S
C570 H562 0.930 . S
C570 C569 1.362 . S
C570 C573 1.409 . S
C571 H563 0.930 . S
C571 C572 1.355 . S
C571 C573 1.415 . S
C572 C571 1.355 . S
C572 C574 1.419 . S
C573 C568 1.425 . S
C573 C570 1.409 . S
C573 C571 1.415 . S
C574 H564 0.930 . S
C574 C572 1.419 . S
C574 C575 1.362 . S
C575 H565 0.930 . S
C575 C568 1.409 . S
C575 C574 1.362 . S
H576 C582 0.930 . S
H577 C585 0.930 . S
H578 C586 0.930 . S
H579 C587 0.930 . S
H580 C590 0.930 . S
H581 C591 0.930 . S
C582 H576 0.930 . S
C582 C583 1.355 . S
C582 C584 1.415 . S
C583 C582 1.355 . S
C583 C585 1.419 . S
C584 C582 1.415 . S
C584 C589 1.425 . S
C584 C591 1.409 . S
C585 H577 0.930 . S
C585 C583 1.419 . S
C585 C586 1.362 . S
C586 H578 0.930 . S
C586 C585 1.362 . S
C586 C589 1.409 . S
C587 H579 0.930 . S
C587 C588 1.355 . S
C587 C589 1.415 . S
C588 C587 1.355 . S
C588 C590 1.419 . S
C589 C584 1.425 . S
C589 C586 1.409 . S
C589 C587 1.415 . S
C590 H580 0.930 . S
C590 C588 1.419 . S
C590 C591 1.362 . S
C591 H581 0.930 . S
C591 C584 1.409 . S
C591 C590 1.362 . S
H592 C598 0.930 . S
H593 C601 0.930 . S
H594 C602 0.930 . S
H595 C603 0.930 . S
H596 C606 0.930 . S
H597 C607 0.930 . S
C598 H592 0.930 . S
C598 C599 1.355 . S
C598 C600 1.415 . S
C599 C598 1.355 . S
C599 C601 1.419 . S
C600 C598 1.415 . S
C600 C605 1.425 . S
C600 C607 1.409 . S
C601 H593 0.930 . S
C601 C599 1.419 . S
C601 C602 1.362 . S
C602 H594 0.930 . S
C602 C601 1.362 . S
C602 C605 1.409 . S
C603 H595 0.930 . S
C603 C604 1.355 . S
C603 C605 1.415 . S
C604 C603 1.355 . S
C604 C606 1.419 . S
C605 C600 1.425 . S
C605 C602 1.409 . S
C605 C603 1.415 . S
C606 H596 0.930 . S
C606 C604 1.419 . S
C606 C607 1.362 . S
C607 H597 0.930 . S
C607 C600 1.409 . S
C607 C606 1.362 . S
H608 C614 0.930 . S
H609 C617 0.930 . S
H610 C618 0.930 . S
H611 C619 0.930 . S
H612 C622 0.930 . S
H613 C623 0.930 . S
C614 H608 0.930 . S
C614 C615 1.355 . S
C614 C616 1.415 . S
C615 C614 1.355 . S
C615 C617 1.419 . S
C616 C614 1.415 . S
C616 C621 1.425 . S
C616 C623 1.409 . S
C617 H609 0.930 . S
C617 C615 1.419 . S
C617 C618 1.362 . S
C618 H610 0.930 . S
C618 C617 1.362 . S
C618 C621 1.409 . S
C619 H611 0.930 . S
C619 C620 1.355 . S
C619 C621 1.415 . S
C620 C619 1.355 . S
C620 C622 1.419 . S
C621 C616 1.425 . S
C621 C618 1.409 . S
C621 C619 1.415 . S
C622 H612 0.930 . S
C622 C620 1.419 . S
C622 C623 1.362 . S
C623 H613 0.930 . S
C623 C616 1.409 . S
C623 C622 1.362 . S
H624 C630 0.930 . S
H625 C633 0.930 . S
H626 C634 0.930 . S
H627 C635 0.930 . S
H628 C638 0.930 . S
H629 C639 0.930 . S
C630 H624 0.930 . S
C630 C631 1.355 . S
C630 C632 1.415 . S
C631 C630 1.355 . S
C631 C633 1.419 . S
C632 C630 1.415 . S
C632 C637 1.425 . S
C632 C639 1.409 . S
C633 H625 0.930 . S
C633 C631 1.419 . S
C633 C634 1.362 . S
C634 H626 0.930 . S
C634 C633 1.362 . S
C634 C637 1.409 . S
C635 H627 0.930 . S
C635 C636 1.355 . S
C635 C637 1.415 . S
C636 C635 1.355 . S
C636 C638 1.419 . S
C637 C632 1.425 . S
C637 C634 1.409 . S
C637 C635 1.415 . S
C638 H628 0.930 . S
C638 C636 1.419 . S
C638 C639 1.362 . S
C639 H629 0.930 . S
C639 C632 1.409 . S
C639 C638 1.362 . S
H640 C646 0.930 . S
H641 C649 0.930 . S
H642 C650 0.930 . S
H643 C651 0.930 . S
H644 C654 0.930 . S
H645 C655 0.930 . S
C646 H640 0.930 . S
C646 C647 1.355 . S
C646 C648 1.415 . S
C647 C646 1.355 . S
C647 C649 1.419 . S
C648 C646 1.415 . S
C648 C653 1.425 . S
C648 C655 1.409 . S
C649 H641 0.930 . S
C649 C647 1.419 . S
C649 C650 1.362 . S
C650 H642 0.930 . S
C650 C649 1.362 . S
C650 C653 1.409 . S
C651 H643 0.930 . S
C651 C652 1.355 . S
C651 C653 1.415 . S
C652 C651 1.355 . S
C652 C654 1.419 . S
C653 C648 1.425 . S
C653 C650 1.409 . S
C653 C651 1.415 . S
C654 H644 0.930 . S
C654 C652 1.419 . S
C654 C655 1.362 . S
C655 H645 0.930 . S
C655 C648 1.409 . S
C655 C654 1.362 . S
H656 C662 0.930 . S
H657 C665 0.930 . S
H658 C666 0.930 . S
H659 C667 0.930 . S
H660 C670 0.930 . S
H661 C671 0.930 . S
C662 H656 0.930 . S
C662 C663 1.355 . S
C662 C664 1.415 . S
C663 C662 1.355 . S
C663 C665 1.419 . S
C664 C662 1.415 . S
C664 C669 1.425 . S
C664 C671 1.409 . S
C665 H657 0.930 . S
C665 C663 1.419 . S
C665 C666 1.362 . S
C666 H658 0.930 . S
C666 C665 1.362 . S
C666 C669 1.409 . S
C667 H659 0.930 . S
C667 C668 1.355 . S
C667 C669 1.415 . S
C668 C667 1.355 . S
C668 C670 1.419 . S
C669 C664 1.425 . S
C669 C666 1.409 . S
C669 C667 1.415 . S
C670 H660 0.930 . S
C670 C668 1.419 . S
C670 C671 1.362 . S
C671 H661 0.930 . S
C671 C664 1.409 . S
C671 C670 1.362 . S
H672 C678 0.930 . S
H673 C681 0.930 . S
H674 C682 0.930 . S
H675 C683 0.930 . S
H676 C686 0.930 . S
H677 C687 0.930 . S
C678 H672 0.930 . S
C678 C679 1.355 . S
C678 C680 1.415 1_554 S
C679 C678 1.355 . S
C679 C681 1.419 . S
C680 C678 1.415 1_556 S
C680 C685 1.428 . S
C680 C687 1.409 . S
C681 H673 0.930 . S
C681 C679 1.419 . S
C681 C682 1.362 . S
C682 H674 0.930 . S
C682 C681 1.362 . S
C682 C685 1.403 1_554 S
C683 H675 0.930 . S
C683 C684 1.355 . S
C683 C685 1.418 . S
C684 C683 1.355 . S
C684 C686 1.419 . S
C685 C680 1.428 . S
C685 C682 1.403 1_556 S
C685 C683 1.418 . S
C686 H676 0.930 . S
C686 C684 1.419 . S
C686 C687 1.362 . S
C687 H677 0.930 . S
C687 C680 1.409 . S
C687 C686 1.362 . S
H688 C694 0.930 . S
H689 C697 0.930 . S
H690 C698 0.930 . S
H691 C699 0.930 . S
H692 C702 0.930 . S
H693 C703 0.930 . S
C694 H688 0.930 . S
C694 C695 1.355 . S
C694 C696 1.415 . S
C695 C694 1.355 . S
C695 C697 1.419 1_554 S
C696 C694 1.415 . S
C696 C701 1.425 1_554 S
C696 C703 1.409 . S
C697 H689 0.930 . S
C697 C695 1.419 1_556 S
C697 C698 1.362 . S
C698 H690 0.930 . S
C698 C697 1.362 . S
C698 C701 1.409 . S
C699 H691 0.930 . S
C699 C700 1.355 . S
C699 C701 1.415 . S
C700 C699 1.355 . S
C700 C702 1.419 1_556 S
C701 C696 1.425 1_556 S
C701 C698 1.409 . S
C701 C699 1.415 . S
C702 H692 0.930 . S
C702 C700 1.419 1_554 S
C702 C703 1.362 . S
C703 H693 0.930 . S
C703 C696 1.409 . S
C703 C702 1.362 . S
H704 C710 0.930 . S
H705 C713 0.930 . S
H706 C714 0.930 . S
H707 C715 0.930 . S
H708 C718 0.930 . S
H709 C719 0.930 . S
C710 H704 0.930 . S
C710 C711 1.355 . S
C710 C712 1.415 . S
C711 C710 1.355 . S
C711 C713 1.419 . S
C712 C710 1.415 . S
C712 C717 1.425 . S
C712 C719 1.409 . S
C713 H705 0.930 . S
C713 C711 1.419 . S
C713 C714 1.362 . S
C714 H706 0.930 . S
C714 C713 1.362 . S
C714 C717 1.409 . S
C715 H707 0.930 . S
C715 C716 1.355 . S
C715 C717 1.415 . S
C716 C715 1.355 . S
C716 C718 1.419 . S
C717 C712 1.425 . S
C717 C714 1.409 . S
C717 C715 1.415 . S
C718 H708 0.930 . S
C718 C716 1.419 . S
C718 C719 1.362 . S
C719 H709 0.930 . S
C719 C712 1.409 . S
C719 C718 1.362 . S
H720 C726 0.930 . S
H721 C729 0.930 1_655 S
H722 C730 0.930 . S
H723 C731 0.930 1_655 S
H724 C734 0.930 . S
H725 C735 0.930 . S
C726 H720 0.930 . S
C726 C727 1.355 . S
C726 C728 1.415 . S
C727 C726 1.355 . S
C727 C729 1.419 . S
C728 C726 1.415 . S
C728 C733 1.425 . S
C728 C735 1.409 . S
C729 H721 0.930 1_455 S
C729 C727 1.419 . S
C729 C730 1.362 1_455 S
C730 H722 0.930 . S
C730 C729 1.362 1_655 S
C730 C733 1.409 1_655 S
C731 H723 0.930 1_455 S
C731 C732 1.355 . S
C731 C733 1.415 . S
C732 C731 1.355 . S
C732 C734 1.419 . S
C733 C728 1.425 . S
C733 C730 1.409 1_455 S
C733 C731 1.415 . S
C734 H724 0.930 . S
C734 C732 1.419 . S
C734 C735 1.362 . S
C735 H725 0.930 . S
C735 C728 1.409 . S
C735 C734 1.362 . S
H736 C742 0.934 . S
H737 C745 0.930 . S
H738 C746 0.930 . S
H739 C747 0.930 . S
H740 C750 0.930 . S
H741 C751 0.930 . S
C742 H736 0.934 . S
C742 C743 1.348 1_655 S
C742 C744 1.417 . S
C743 C742 1.348 1_455 S
C743 C745 1.419 . S
C744 C742 1.417 . S
C744 C749 1.425 1_655 S
C744 C751 1.409 . S
C745 H737 0.930 . S
C745 C743 1.419 . S
C745 C746 1.362 . S
C746 H738 0.930 . S
C746 C745 1.362 . S
C746 C749 1.409 . S
C747 H739 0.930 . S
C747 C748 1.355 1_455 S
C747 C749 1.415 . S
C748 C747 1.355 1_655 S
C748 C750 1.419 . S
C749 C744 1.425 1_455 S
C749 C746 1.409 . S
C749 C747 1.415 . S
C750 H740 0.930 . S
C750 C748 1.419 . S
C750 C751 1.362 . S
C751 H741 0.930 . S
C751 C744 1.409 . S
C751 C750 1.362 . S
H752 C758 0.930 . S
H753 C761 0.930 . S
H754 C762 0.930 . S
H755 C763 0.930 1_655 S
H756 C766 0.930 . S
H757 C767 0.930 . S
C758 H752 0.930 . S
C758 C759 1.355 . S
C758 C760 1.415 . S
C759 C758 1.355 . S
C759 C761 1.419 1_455 S
C760 C758 1.415 . S
C760 C765 1.425 . S
C760 C767 1.409 . S
C761 H753 0.930 . S
C761 C759 1.419 1_655 S
C761 C762 1.362 . S
C762 H754 0.930 . S
C762 C761 1.362 . S
C762 C765 1.409 1_655 S
C763 H755 0.930 1_455 S
C763 C764 1.355 . S
C763 C765 1.415 . S
C764 C763 1.355 . S
C764 C766 1.419 . S
C765 C760 1.425 . S
C765 C762 1.409 1_455 S
C765 C763 1.415 . S
C766 H756 0.930 . S
C766 C764 1.419 . S
C766 C767 1.362 . S
C767 H757 0.930 . S
C767 C760 1.409 . S
C767 C766 1.362 . S
H768 C774 0.930 . S
H769 C777 0.930 . S
H770 C778 0.930 . S
H771 C779 0.930 . S
H772 C782 0.930 . S
H773 C783 0.930 . S
C774 H768 0.930 . S
C774 C775 1.355 1_455 S
C774 C776 1.415 . S
C775 C774 1.355 1_655 S
C775 C777 1.419 . S
C776 C774 1.415 . S
C776 C781 1.425 1_455 S
C776 C783 1.409 . S
C777 H769 0.930 . S
C777 C775 1.419 . S
C777 C778 1.362 . S
C778 H770 0.930 . S
C778 C777 1.362 . S
C778 C781 1.409 . S
C779 H771 0.930 . S
C779 C780 1.355 . S
C779 C781 1.415 . S
C780 C779 1.355 . S
C780 C782 1.419 1_655 S
C781 C776 1.425 1_655 S
C781 C778 1.409 . S
C781 C779 1.415 . S
C782 H772 0.930 . S
C782 C780 1.419 1_455 S
C782 C783 1.362 . S
C783 H773 0.930 . S
C783 C776 1.409 . S
C783 C782 1.362 . S
H784 C790 0.930 . S
H785 C793 0.930 . S
H786 C794 0.930 . S
H787 C795 0.930 . S
H788 C798 0.930 . S
H789 C799 0.930 . S
C790 H784 0.930 . S
C790 C791 1.355 1_565 S
C790 C792 1.415 1_565 S
C791 C790 1.355 1_545 S
C791 C793 1.419 . S
C792 C790 1.415 1_545 S
C792 C797 1.425 . S
C792 C799 1.409 1_545 S
C793 H785 0.930 . S
C793 C791 1.419 . S
C793 C794 1.362 . S
C794 H786 0.930 . S
C794 C793 1.362 . S
C794 C797 1.409 . S
C795 H787 0.930 . S
C795 C796 1.355 . S
C795 C797 1.415 . S
C796 C795 1.355 . S
C796 C798 1.419 1_545 S
C797 C792 1.425 . S
C797 C794 1.409 . S
C797 C795 1.415 . S
C798 H788 0.930 . S
C798 C796 1.419 1_565 S
C798 C799 1.362 . S
C799 H789 0.930 . S
C799 C792 1.409 1_565 S
C799 C798 1.362 . S
H800 C806 0.930 . S
H801 C809 0.930 . S
H802 C810 0.930 . S
H803 C811 0.930 . S
H804 C814 0.930 . S
H805 C815 0.930 . S
C806 H800 0.930 . S
C806 C807 1.355 . S
C806 C808 1.415 . S
C807 C806 1.355 . S
C807 C809 1.419 . S
C808 C806 1.415 . S
C808 C813 1.425 . S
C808 C815 1.409 . S
C809 H801 0.930 . S
C809 C807 1.419 . S
C809 C810 1.362 . S
C810 H802 0.930 . S
C810 C809 1.362 . S
C810 C813 1.409 . S
C811 H803 0.930 . S
C811 C812 1.355 . S
C811 C813 1.415 . S
C812 C811 1.355 . S
C812 C814 1.419 . S
C813 C808 1.425 . S
C813 C810 1.409 . S
C813 C811 1.415 . S
C814 H804 0.930 . S
C814 C812 1.419 . S
C814 C815 1.362 . S
C815 H805 0.930 . S
C815 C808 1.409 . S
C815 C814 1.362 . S
H816 C822 0.930 . S
H817 C825 0.930 . S
H818 C826 0.930 . S
H819 C827 0.936 . S
H820 C830 0.930 . S
H821 C831 0.930 . S
C822 H816 0.930 . S
C822 C823 1.355 . S
C822 C824 1.415 . S
C823 C822 1.355 . S
C823 C825 1.419 1_565 S
C824 C822 1.415 . S
C824 C829 1.425 . S
C824 C831 1.409 . S
C825 H817 0.930 . S
C825 C823 1.419 1_545 S
C825 C826 1.362 . S
C826 H818 0.930 . S
C826 C825 1.362 . S
C826 C829 1.409 1_545 S
C827 H819 0.936 . S
C827 C828 1.349 1_545 S
C827 C829 1.414 1_545 S
C828 C827 1.349 1_565 S
C828 C830 1.419 . S
C829 C824 1.425 . S
C829 C826 1.409 1_565 S
C829 C827 1.414 1_565 S
C830 H820 0.930 . S
C830 C828 1.419 . S
C830 C831 1.362 . S
C831 H821 0.930 . S
C831 C824 1.409 . S
C831 C830 1.362 . S
H832 C838 0.930 . S
H833 C841 0.930 . S
H834 C842 0.930 . S
H835 C843 0.930 . S
H836 C846 0.930 . S
H837 C847 0.930 . S
C838 H832 0.930 . S
C838 C839 1.355 . S
C838 C840 1.415 . S
C839 C838 1.355 . S
C839 C841 1.419 . S
C840 C838 1.415 . S
C840 C845 1.425 . S
C840 C847 1.409 . S
C841 H833 0.930 . S
C841 C839 1.419 . S
C841 C842 1.362 . S
C842 H834 0.930 . S
C842 C841 1.362 . S
C842 C845 1.409 . S
C843 H835 0.930 . S
C843 C844 1.355 . S
C843 C845 1.415 . S
C844 C843 1.355 . S
C844 C846 1.419 . S
C845 C840 1.425 . S
C845 C842 1.409 . S
C845 C843 1.415 . S
C846 H836 0.930 . S
C846 C844 1.419 . S
C846 C847 1.362 . S
C847 H837 0.930 . S
C847 C840 1.409 . S
C847 C846 1.362 . S
H848 C854 0.930 . S
H849 C857 0.930 . S
H850 C858 0.930 . S
H851 C859 0.930 . S
H852 C862 0.930 . S
H853 C863 0.930 . S
C854 H848 0.930 . S
C854 C855 1.355 . S
C854 C856 1.415 . S
C855 C854 1.355 . S
C855 C857 1.419 . S
C856 C854 1.415 . S
C856 C861 1.425 . S
C856 C863 1.409 . S
C857 H849 0.930 . S
C857 C855 1.419 . S
C857 C858 1.362 . S
C858 H850 0.930 . S
C858 C857 1.362 . S
C858 C861 1.409 . S
C859 H851 0.930 . S
C859 C860 1.355 . S
C859 C861 1.415 . S
C860 C859 1.355 . S
C860 C862 1.419 . S
C861 C856 1.425 . S
C861 C858 1.409 . S
C861 C859 1.415 . S
C862 H852 0.930 . S
C862 C860 1.419 . S
C862 C863 1.362 . S
C863 H853 0.930 . S
C863 C856 1.409 . S
C863 C862 1.362 . S
H864 C870 0.930 . S
H865 C873 0.930 . S
H866 C874 0.930 . S
H867 C875 0.930 . S
H868 C878 0.930 . S
H869 C879 0.930 . S
C870 H864 0.930 . S
C870 C871 1.355 . S
C870 C872 1.415 . S
C871 C870 1.355 . S
C871 C873 1.419 . S
C872 C870 1.415 . S
C872 C877 1.425 . S
C872 C879 1.409 . S
C873 H865 0.930 . S
C873 C871 1.419 . S
C873 C874 1.362 . S
C874 H866 0.930 . S
C874 C873 1.362 . S
C874 C877 1.409 . S
C875 H867 0.930 . S
C875 C876 1.355 . S
C875 C877 1.415 . S
C876 C875 1.355 . S
C876 C878 1.419 . S
C877 C872 1.425 . S
C877 C874 1.409 . S
C877 C875 1.415 . S
C878 H868 0.930 . S
C878 C876 1.419 . S
C878 C879 1.362 . S
C879 H869 0.930 . S
C879 C872 1.409 . S
C879 C878 1.362 . S
H880 C886 0.930 . S
H881 C889 0.930 . S
H882 C890 0.930 . S
H883 C891 0.930 . S
H884 C894 0.930 . S
H885 C895 0.930 . S
C886 H880 0.930 . S
C886 C887 1.355 . S
C886 C888 1.415 . S
C887 C886 1.355 . S
C887 C889 1.419 . S
C888 C886 1.415 . S
C888 C893 1.425 . S
C888 C895 1.409 . S
C889 H881 0.930 . S
C889 C887 1.419 . S
C889 C890 1.362 . S
C890 H882 0.930 . S
C890 C889 1.362 . S
C890 C893 1.409 . S
C891 H883 0.930 . S
C891 C892 1.355 . S
C891 C893 1.415 . S
C892 C891 1.355 . S
C892 C894 1.419 . S
C893 C888 1.425 . S
C893 C890 1.409 . S
C893 C891 1.415 . S
C894 H884 0.930 . S
C894 C892 1.419 . S
C894 C895 1.362 . S
C895 H885 0.930 . S
C895 C888 1.409 . S
C895 C894 1.362 . S
H896 C902 0.930 . S
H897 C905 0.930 . S
H898 C906 0.930 . S
H899 C907 0.930 . S
H900 C910 0.930 . S
H901 C911 0.930 . S
C902 H896 0.930 . S
C902 C903 1.355 . S
C902 C904 1.415 . S
C903 C902 1.355 . S
C903 C905 1.419 . S
C904 C902 1.415 . S
C904 C909 1.425 . S
C904 C911 1.409 . S
C905 H897 0.930 . S
C905 C903 1.419 . S
C905 C906 1.362 . S
C906 H898 0.930 . S
C906 C905 1.362 . S
C906 C909 1.409 . S
C907 H899 0.930 . S
C907 C908 1.355 . S
C907 C909 1.415 . S
C908 C907 1.355 . S
C908 C910 1.419 . S
C909 C904 1.425 . S
C909 C906 1.409 . S
C909 C907 1.415 . S
C910 H900 0.930 . S
C910 C908 1.419 . S
C910 C911 1.362 . S
C911 H901 0.930 . S
C911 C904 1.409 . S
C911 C910 1.362 . S
H912 C918 0.930 . S
H913 C921 0.930 . S
H914 C922 0.930 . S
H915 C923 0.930 . S
H916 C926 0.930 . S
H917 C927 0.930 . S
C918 H912 0.930 . S
C918 C919 1.355 . S
C918 C920 1.415 . S
C919 C918 1.355 . S
C919 C921 1.419 . S
C920 C918 1.415 . S
C920 C925 1.425 . S
C920 C927 1.409 . S
C921 H913 0.930 . S
C921 C919 1.419 . S
C921 C922 1.362 . S
C922 H914 0.930 . S
C922 C921 1.362 . S
C922 C925 1.409 . S
C923 H915 0.930 . S
C923 C924 1.355 . S
C923 C925 1.415 . S
C924 C923 1.355 . S
C924 C926 1.419 . S
C925 C920 1.425 . S
C925 C922 1.409 . S
C925 C923 1.415 . S
C926 H916 0.930 . S
C926 C924 1.419 . S
C926 C927 1.362 . S
C927 H917 0.930 . S
C927 C920 1.409 . S
C927 C926 1.362 . S
H928 C934 0.930 . S
H929 C937 0.930 . S
H930 C938 0.930 . S
H931 C939 0.930 . S
H932 C942 0.930 . S
H933 C943 0.930 . S
C934 H928 0.930 . S
C934 C935 1.355 . S
C934 C936 1.415 . S
C935 C934 1.355 . S
C935 C937 1.419 . S
C936 C934 1.415 . S
C936 C941 1.425 . S
C936 C943 1.409 . S
C937 H929 0.930 . S
C937 C935 1.419 . S
C937 C938 1.362 . S
C938 H930 0.930 . S
C938 C937 1.362 . S
C938 C941 1.409 . S
C939 H931 0.930 . S
C939 C940 1.355 . S
C939 C941 1.415 . S
C940 C939 1.355 . S
C940 C942 1.419 . S
C941 C936 1.425 . S
C941 C938 1.409 . S
C941 C939 1.415 . S
C942 H932 0.930 . S
C942 C940 1.419 . S
C942 C943 1.362 . S
C943 H933 0.930 . S
C943 C936 1.409 . S
C943 C942 1.362 . S
H944 C950 0.930 . S
H945 C953 0.930 . S
H946 C954 0.930 . S
H947 C955 0.930 . S
H948 C958 0.930 . S
H949 C959 0.930 . S
C950 H944 0.930 . S
C950 C951 1.355 . S
C950 C952 1.415 . S
C951 C950 1.355 . S
C951 C953 1.419 . S
C952 C950 1.415 . S
C952 C957 1.425 . S
C952 C959 1.409 . S
C953 H945 0.930 . S
C953 C951 1.419 . S
C953 C954 1.362 . S
C954 H946 0.930 . S
C954 C953 1.362 . S
C954 C957 1.409 . S
C955 H947 0.930 . S
C955 C956 1.355 . S
C955 C957 1.415 . S
C956 C955 1.355 . S
C956 C958 1.419 . S
C957 C952 1.425 . S
C957 C954 1.409 . S
C957 C955 1.415 . S
C958 H948 0.930 . S
C958 C956 1.419 . S
C958 C959 1.362 . S
C959 H949 0.930 . S
C959 C952 1.409 . S
C959 C958 1.362 . S
H960 C966 0.930 . S
H961 C969 0.930 . S
H962 C970 0.930 . S
H963 C971 0.930 . S
H964 C974 0.930 . S
H965 C975 0.930 . S
C966 H960 0.930 . S
C966 C967 1.355 . S
C966 C968 1.415 . S
C967 C966 1.355 . S
C967 C969 1.419 . S
C968 C966 1.415 . S
C968 C973 1.425 . S
C968 C975 1.409 . S
C969 H961 0.930 . S
C969 C967 1.419 . S
C969 C970 1.362 . S
C970 H962 0.930 . S
C970 C969 1.362 . S
C970 C973 1.409 . S
C971 H963 0.930 . S
C971 C972 1.355 . S
C971 C973 1.415 . S
C972 C971 1.355 . S
C972 C974 1.419 . S
C973 C968 1.425 . S
C973 C970 1.409 . S
C973 C971 1.415 . S
C974 H964 0.930 . S
C974 C972 1.419 . S
C974 C975 1.362 . S
C975 H965 0.930 . S
C975 C968 1.409 . S
C975 C974 1.362 . S
H976 C982 0.930 . S
H977 C985 0.930 . S
H978 C986 0.930 . S
H979 C987 0.930 . S
H980 C990 0.930 . S
H981 C991 0.930 . S
C982 H976 0.930 . S
C982 C983 1.355 . S
C982 C984 1.415 . S
C983 C982 1.355 . S
C983 C985 1.419 . S
C984 C982 1.415 . S
C984 C989 1.425 . S
C984 C991 1.409 . S
C985 H977 0.930 . S
C985 C983 1.419 . S
C985 C986 1.362 . S
C986 H978 0.930 . S
C986 C985 1.362 . S
C986 C989 1.409 . S
C987 H979 0.930 . S
C987 C988 1.355 . S
C987 C989 1.415 . S
C988 C987 1.355 . S
C988 C990 1.419 . S
C989 C984 1.425 . S
C989 C986 1.409 . S
C989 C987 1.415 . S
C990 H980 0.930 . S
C990 C988 1.419 . S
C990 C991 1.362 . S
C991 H981 0.930 . S
C991 C984 1.409 . S
C991 C990 1.362 . S
H992 C998 0.930 . S
H993 C1001 0.930 . S
H994 C1002 0.930 . S
H995 C1003 0.930 . S
H996 C1006 0.930 . S
H997 C1007 0.930 . S
C998 H992 0.930 . S
C998 C999 1.355 . S
C998 C1000 1.415 . S
C999 C998 1.355 . S
C999 C1001 1.419 1_565 S
C1000 C998 1.415 . S
C1000 C1005 1.425 1_565 S
C1000 C1007 1.409 . S
C1001 H993 0.930 . S
C1001 C999 1.419 1_545 S
C1001 C1002 1.362 . S
C1002 H994 0.930 . S
C1002 C1001 1.362 . S
C1002 C1005 1.409 . S
C1003 H995 0.930 . S
C1003 C1004 1.355 1_545 S
C1003 C1005 1.415 . S
C1004 C1003 1.355 1_565 S
C1004 C1006 1.419 . S
C1005 C1000 1.425 1_545 S
C1005 C1002 1.409 . S
C1005 C1003 1.415 . S
C1006 H996 0.930 . S
C1006 C1004 1.419 . S
C1006 C1007 1.362 . S
C1007 H997 0.930 . S
C1007 C1000 1.409 . S
C1007 C1006 1.362 . S
H1008 C1014 0.930 . S
H1009 C1017 0.930 . S
H1010 C1018 0.930 . S
H1011 C1019 0.930 . S
H1012 C1022 0.930 . S
H1013 C1023 0.930 . S
C1014 H1008 0.930 . S
C1014 C1015 1.355 . S
C1014 C1016 1.415 . S
C1015 C1014 1.355 . S
C1015 C1017 1.419 . S
C1016 C1014 1.415 . S
C1016 C1021 1.425 . S
C1016 C1023 1.409 . S
C1017 H1009 0.930 . S
C1017 C1015 1.419 . S
C1017 C1018 1.362 . S
C1018 H1010 0.930 . S
C1018 C1017 1.362 . S
C1018 C1021 1.409 . S
C1019 H1011 0.930 . S
C1019 C1020 1.355 . S
C1019 C1021 1.415 . S
C1020 C1019 1.355 . S
C1020 C1022 1.419 . S
C1021 C1016 1.425 . S
C1021 C1018 1.409 . S
C1021 C1019 1.415 . S
C1022 H1012 0.930 . S
C1022 C1020 1.419 . S
C1022 C1023 1.362 . S
C1023 H1013 0.930 . S
C1023 C1016 1.409 . S
C1023 C1022 1.362 . S
H1024 C1030 0.930 . S
H1025 C1033 0.930 1_565 S
H1026 C1034 0.930 1_565 S
H1027 C1035 0.930 . S
H1028 C1038 0.930 . S
H1029 C1039 0.930 . S
C1030 H1024 0.930 . S
C1030 C1031 1.355 . S
C1030 C1032 1.415 . S
C1031 C1030 1.355 . S
C1031 C1033 1.419 . S
C1032 C1030 1.415 . S
C1032 C1037 1.425 . S
C1032 C1039 1.409 . S
C1033 H1025 0.930 1_545 S
C1033 C1031 1.419 . S
C1033 C1034 1.362 . S
C1034 H1026 0.930 1_545 S
C1034 C1033 1.362 . S
C1034 C1037 1.409 . S
C1035 H1027 0.930 . S
C1035 C1036 1.355 . S
C1035 C1037 1.415 . S
C1036 C1035 1.355 . S
C1036 C1038 1.419 . S
C1037 C1032 1.425 . S
C1037 C1034 1.409 . S
C1037 C1035 1.415 . S
C1038 H1028 0.930 . S
C1038 C1036 1.419 . S
C1038 C1039 1.362 . S
C1039 H1029 0.930 . S
C1039 C1032 1.409 . S
C1039 C1038 1.362 . S
H1040 C1046 0.930 . S
H1041 C1049 0.930 . S
H1042 C1050 0.930 . S
H1043 C1051 0.930 . S
H1044 C1054 0.930 . S
H1045 C1055 0.930 . S
C1046 H1040 0.930 . S
C1046 C1047 1.355 . S
C1046 C1048 1.415 . S
C1047 C1046 1.355 . S
C1047 C1049 1.419 . S
C1048 C1046 1.415 . S
C1048 C1053 1.425 . S
C1048 C1055 1.409 . S
C1049 H1041 0.930 . S
C1049 C1047 1.419 . S
C1049 C1050 1.362 . S
C1050 H1042 0.930 . S
C1050 C1049 1.362 . S
C1050 C1053 1.409 . S
C1051 H1043 0.930 . S
C1051 C1052 1.355 . S
C1051 C1053 1.415 . S
C1052 C1051 1.355 . S
C1052 C1054 1.419 . S
C1053 C1048 1.425 . S
C1053 C1050 1.409 . S
C1053 C1051 1.415 . S
C1054 H1044 0.930 . S
C1054 C1052 1.419 . S
C1054 C1055 1.362 . S
C1055 H1045 0.930 . S
C1055 C1048 1.409 . S
C1055 C1054 1.362 . S
H1056 C1062 0.930 . S
H1057 C1065 0.930 . S
H1058 C1066 0.930 . S
H1059 C1067 0.930 . S
H1060 C1070 0.930 . S
H1061 C1071 0.930 . S
C1062 H1056 0.930 . S
C1062 C1063 1.355 . S
C1062 C1064 1.415 . S
C1063 C1062 1.355 . S
C1063 C1065 1.419 1_554 S
C1064 C1062 1.415 . S
C1064 C1069 1.425 1_554 S
C1064 C1071 1.409 . S
C1065 H1057 0.930 . S
C1065 C1063 1.419 1_556 S
C1065 C1066 1.362 . S
C1066 H1058 0.930 . S
C1066 C1065 1.362 . S
C1066 C1069 1.409 . S
C1067 H1059 0.930 . S
C1067 C1068 1.355 . S
C1067 C1069 1.415 . S
C1068 C1067 1.355 . S
C1068 C1070 1.419 1_556 S
C1069 C1064 1.425 1_556 S
C1069 C1066 1.409 . S
C1069 C1067 1.415 . S
C1070 H1060 0.930 . S
C1070 C1068 1.419 1_554 S
C1070 C1071 1.362 . S
C1071 H1061 0.930 . S
C1071 C1064 1.409 . S
C1071 C1070 1.362 . S
H1072 C1078 0.930 . S
H1073 C1081 0.930 . S
H1074 C1082 0.930 . S
H1075 C1083 0.930 . S
H1076 C1086 0.930 . S
H1077 C1087 0.928 1_554 S
C1078 H1072 0.930 . S
C1078 C1079 1.355 . S
C1078 C1080 1.415 1_554 S
C1079 C1078 1.355 . S
C1079 C1081 1.419 1_554 S
C1080 C1078 1.415 1_556 S
C1080 C1085 1.425 . S
C1080 C1087 1.409 . S
C1081 H1073 0.930 . S
C1081 C1079 1.419 1_556 S
C1081 C1082 1.362 . S
C1082 H1074 0.930 . S
C1082 C1081 1.362 . S
C1082 C1085 1.409 . S
C1083 H1075 0.930 . S
C1083 C1084 1.355 . S
C1083 C1085 1.415 . S
C1084 C1083 1.355 . S
C1084 C1086 1.419 . S
C1085 C1080 1.425 . S
C1085 C1082 1.409 . S
C1085 C1083 1.415 . S
C1086 H1076 0.930 . S
C1086 C1084 1.419 . S
C1086 C1087 1.364 . S
C1087 H1077 0.928 1_556 S
C1087 C1080 1.409 . S
C1087 C1086 1.364 . S
H1088 C1094 0.930 . S
H1089 C1097 0.930 . S
H1090 C1098 0.930 . S
H1091 C1099 0.930 . S
H1092 C1102 0.930 1_556 S
H1093 C1103 0.930 1_556 S
C1094 H1088 0.930 . S
C1094 C1095 1.355 . S
C1094 C1096 1.415 . S
C1095 C1094 1.355 . S
C1095 C1097 1.419 . S
C1096 C1094 1.415 . S
C1096 C1101 1.425 . S
C1096 C1103 1.409 . S
C1097 H1089 0.930 . S
C1097 C1095 1.419 . S
C1097 C1098 1.362 . S
C1098 H1090 0.930 . S
C1098 C1097 1.362 . S
C1098 C1101 1.409 . S
C1099 H1091 0.930 . S
C1099 C1100 1.355 . S
C1099 C1101 1.415 . S
C1100 C1099 1.355 . S
C1100 C1102 1.419 . S
C1101 C1096 1.425 . S
C1101 C1098 1.409 . S
C1101 C1099 1.415 . S
C1102 H1092 0.930 1_554 S
C1102 C1100 1.419 . S
C1102 C1103 1.362 . S
C1103 H1093 0.930 1_554 S
C1103 C1096 1.409 . S
C1103 C1102 1.362 . S
C343 C13 1.818 . S
C348 C226 1.688 . S
C364 C246 1.699 . S
C359 C1 1.754 . S
C380 C185 1.611 . S
C375 C27 1.579 . S
C391 C15 1.525 1_655 S
C396 C206 1.513 . S
C407 C28 1.515 . S
C412 C331 1.425 . S
C423 C55 1.464 . S
C428 C311 1.459 . S
C444 C267 1.683 . S
C439 C40 1.726 . S
C455 C43 1.501 . S
C460 C288 1.453 . S
C476 C205 1.499 . S
C471 C56 1.587 . S
C492 C248 1.484 . S
C487 C83 1.479 . S
C503 C96 1.662 . S
C508 C225 1.614 . S
C519 C71 1.536 . S
C524 C289 1.376 . S
C540 C310 1.685 . S
C535 C99 1.817 . S
C556 C330 1.695 . S
C551 C111 1.752 . S
C567 C113 1.601 . S
C572 C290 1.609 . S
C588 C269 1.537 . S
C583 C125 1.527 . S
C599 C139 1.492 . S
C604 C247 1.329 . S
C615 C153 1.457 . S
C620 C227 1.466 . S
C636 C204 1.685 . S
C631 C127 1.730 . S
C647 C141 1.528 . S
C652 C183 1.498 . S
C668 C268 1.418 . S
C663 C84 1.548 . S
C684 C332 1.503 . S
C679 C154 1.505 . S
C695 C68 1.686 . S
C700 C309 1.661 . S
C711 C166 1.536 . S
C716 C184 1.375 . S
C732 C182 1.127 . S
C727 C0 1.282 . S
C743 C12 1.258 . S
C748 C203 1.165 . S
C764 C228 1.221 . S
C759 C14 1.338 . S
C780 C244 1.447 . S
C775 C26 1.744 1_655 S
C791 C41 1.229 . S
C796 C181 1.015 . S
C807 C42 1.728 . S
C812 C202 1.248 . S
C828 C224 1.159 . S
C823 C29 1.224 . S
C839 C54 1.174 . S
C844 C249 1.018 . S
C855 C69 1.149 . S
C860 C186 0.952 . S
C876 C223 1.286 . S
C871 C70 1.708 . S
C887 C85 1.560 . S
C892 C245 1.501 . S
C903 C82 1.197 . S
C908 C270 1.004 . S
C924 C287 1.230 . S
C919 C110 1.332 . S
C935 C98 1.224 . S
C940 C266 1.243 . S
C951 C124 1.338 . S
C956 C312 1.226 . S
C967 C112 1.755 . S
C972 C328 1.383 . S
C983 C126 1.220 . S
C988 C286 0.839 . S
C1004 C265 1.227 . S
C999 C140 1.709 . S
C1015 C138 1.261 . S
C1020 C308 1.165 . S
C1036 C333 1.118 . S
C1031 C152 1.134 . S
C1052 C291 1.099 . S
C1047 C97 1.142 . S
C1068 C307 1.422 . S
C1063 C167 1.688 . S
C1084 C329 1.499 . S
C1079 C57 1.525 . S
C1095 C155 1.208 . S
C1100 C207 1.044 . S
