# Generated by pormake.
# Topology ibd, (4,6)-cn, num edge types: 1
# Building blocks:
#     Node 0, Type 0, BuildingBlock: QUQFOY_clean_sbu_3, # of connection points: 4
#     Node 1, Type 0, BuildingBlock: QUQFOY_clean_sbu_3, # of connection points: 4
#     Node 2, Type 0, BuildingBlock: QUQFOY_clean_sbu_3, # of connection points: 4
#     Node 3, Type 0, BuildingBlock: QUQFOY_clean_sbu_3, # of connection points: 4
#     Node 4, Type 0, BuildingBlock: QUQFOY_clean_sbu_3, # of connection points: 4
#     Node 5, Type 0, BuildingBlock: QUQFOY_clean_sbu_3, # of connection points: 4
#     Node 6, Type 0, BuildingBlock: QUQFOY_clean_sbu_3, # of connection points: 4
#     Node 7, Type 0, BuildingBlock: QUQFOY_clean_sbu_3, # of connection points: 4
#     Node 8, Type 0, BuildingBlock: QUQFOY_clean_sbu_3, # of connection points: 4
#     Node 9, Type 0, BuildingBlock: QUQFOY_clean_sbu_3, # of connection points: 4
#     Node 10, Type 0, BuildingBlock: QUQFOY_clean_sbu_3, # of connection points: 4
#     Node 11, Type 0, BuildingBlock: QUQFOY_clean_sbu_3, # of connection points: 4
#     Node 12, Type 0, BuildingBlock: QUQFOY_clean_sbu_3, # of connection points: 4
#     Node 13, Type 0, BuildingBlock: QUQFOY_clean_sbu_3, # of connection points: 4
#     Node 14, Type 0, BuildingBlock: QUQFOY_clean_sbu_3, # of connection points: 4
#     Node 15, Type 0, BuildingBlock: QUQFOY_clean_sbu_3, # of connection points: 4
#     Node 16, Type 0, BuildingBlock: QUQFOY_clean_sbu_3, # of connection points: 4
#     Node 17, Type 0, BuildingBlock: QUQFOY_clean_sbu_3, # of connection points: 4
#     Node 18, Type 0, BuildingBlock: QUQFOY_clean_sbu_3, # of connection points: 4
#     Node 19, Type 0, BuildingBlock: QUQFOY_clean_sbu_3, # of connection points: 4
#     Node 20, Type 0, BuildingBlock: QUQFOY_clean_sbu_3, # of connection points: 4
#     Node 21, Type 0, BuildingBlock: QUQFOY_clean_sbu_3, # of connection points: 4
#     Node 22, Type 0, BuildingBlock: QUQFOY_clean_sbu_3, # of connection points: 4
#     Node 23, Type 0, BuildingBlock: QUQFOY_clean_sbu_3, # of connection points: 4
#     Node 24, Type 1, BuildingBlock: IZENUY_clean_sbu_0, # of connection points: 6
#     Node 25, Type 1, BuildingBlock: IZENUY_clean_sbu_0, # of connection points: 6
#     Node 26, Type 1, BuildingBlock: IZENUY_clean_sbu_0, # of connection points: 6
#     Node 27, Type 1, BuildingBlock: IZENUY_clean_sbu_0, # of connection points: 6
#     Node 28, Type 1, BuildingBlock: IZENUY_clean_sbu_0, # of connection points: 6
#     Node 29, Type 1, BuildingBlock: IZENUY_clean_sbu_0, # of connection points: 6
#     Node 30, Type 1, BuildingBlock: IZENUY_clean_sbu_0, # of connection points: 6
#     Node 31, Type 1, BuildingBlock: IZENUY_clean_sbu_0, # of connection points: 6
#     Node 32, Type 1, BuildingBlock: IZENUY_clean_sbu_0, # of connection points: 6
#     Node 33, Type 1, BuildingBlock: IZENUY_clean_sbu_0, # of connection points: 6
#     Node 34, Type 1, BuildingBlock: IZENUY_clean_sbu_0, # of connection points: 6
#     Node 35, Type 1, BuildingBlock: IZENUY_clean_sbu_0, # of connection points: 6
#     Node 36, Type 1, BuildingBlock: IZENUY_clean_sbu_0, # of connection points: 6
#     Node 37, Type 1, BuildingBlock: IZENUY_clean_sbu_0, # of connection points: 6
#     Node 38, Type 1, BuildingBlock: IZENUY_clean_sbu_0, # of connection points: 6
#     Node 39, Type 1, BuildingBlock: IZENUY_clean_sbu_0, # of connection points: 6
#     Edge 40, Type (0, 1), None
#     Edge 41, Type (0, 1), None
#     Edge 42, Type (0, 1), None
#     Edge 43, Type (0, 1), None
#     Edge 44, Type (0, 1), None
#     Edge 45, Type (0, 1), None
#     Edge 46, Type (0, 1), None
#     Edge 47, Type (0, 1), None
#     Edge 48, Type (0, 1), None
#     Edge 49, Type (0, 1), None
#     Edge 50, Type (0, 1), None
#     Edge 51, Type (0, 1), None
#     Edge 52, Type (0, 1), None
#     Edge 53, Type (0, 1), None
#     Edge 54, Type (0, 1), None
#     Edge 55, Type (0, 1), None
#     Edge 56, Type (0, 1), None
#     Edge 57, Type (0, 1), None
#     Edge 58, Type (0, 1), None
#     Edge 59, Type (0, 1), None
#     Edge 60, Type (0, 1), None
#     Edge 61, Type (0, 1), None
#     Edge 62, Type (0, 1), None
#     Edge 63, Type (0, 1), None
#     Edge 64, Type (0, 1), None
#     Edge 65, Type (0, 1), None
#     Edge 66, Type (0, 1), None
#     Edge 67, Type (0, 1), None
#     Edge 68, Type (0, 1), None
#     Edge 69, Type (0, 1), None
#     Edge 70, Type (0, 1), None
#     Edge 71, Type (0, 1), None
#     Edge 72, Type (0, 1), None
#     Edge 73, Type (0, 1), None
#     Edge 74, Type (0, 1), None
#     Edge 75, Type (0, 1), None
#     Edge 76, Type (0, 1), None
#     Edge 77, Type (0, 1), None
#     Edge 78, Type (0, 1), None
#     Edge 79, Type (0, 1), None
#     Edge 80, Type (0, 1), None
#     Edge 81, Type (0, 1), None
#     Edge 82, Type (0, 1), None
#     Edge 83, Type (0, 1), None
#     Edge 84, Type (0, 1), None
#     Edge 85, Type (0, 1), None
#     Edge 86, Type (0, 1), None
#     Edge 87, Type (0, 1), None
#     Edge 88, Type (0, 1), None
#     Edge 89, Type (0, 1), None
#     Edge 90, Type (0, 1), None
#     Edge 91, Type (0, 1), None
#     Edge 92, Type (0, 1), None
#     Edge 93, Type (0, 1), None
#     Edge 94, Type (0, 1), None
#     Edge 95, Type (0, 1), None
#     Edge 96, Type (0, 1), None
#     Edge 97, Type (0, 1), None
#     Edge 98, Type (0, 1), None
#     Edge 99, Type (0, 1), None
#     Edge 100, Type (0, 1), None
#     Edge 101, Type (0, 1), None
#     Edge 102, Type (0, 1), None
#     Edge 103, Type (0, 1), None
#     Edge 104, Type (0, 1), None
#     Edge 105, Type (0, 1), None
#     Edge 106, Type (0, 1), None
#     Edge 107, Type (0, 1), None
#     Edge 108, Type (0, 1), None
#     Edge 109, Type (0, 1), None
#     Edge 110, Type (0, 1), None
#     Edge 111, Type (0, 1), None
#     Edge 112, Type (0, 1), None
#     Edge 113, Type (0, 1), None
#     Edge 114, Type (0, 1), None
#     Edge 115, Type (0, 1), None
#     Edge 116, Type (0, 1), None
#     Edge 117, Type (0, 1), None
#     Edge 118, Type (0, 1), None
#     Edge 119, Type (0, 1), None
#     Edge 120, Type (0, 1), None
#     Edge 121, Type (0, 1), None
#     Edge 122, Type (0, 1), None
#     Edge 123, Type (0, 1), None
#     Edge 124, Type (0, 1), None
#     Edge 125, Type (0, 1), None
#     Edge 126, Type (0, 1), None
#     Edge 127, Type (0, 1), None
#     Edge 128, Type (0, 1), None
#     Edge 129, Type (0, 1), None
#     Edge 130, Type (0, 1), None
#     Edge 131, Type (0, 1), None
#     Edge 132, Type (0, 1), None
#     Edge 133, Type (0, 1), None
#     Edge 134, Type (0, 1), None
#     Edge 135, Type (0, 1), None
# Relax obj value: 0.311
# Max RMSD: 0.290
# Mean RMSD: 0.261
data_MOF--net-ibd--node1-QUQFOY_clean_sbu_3--node2-IZENUY_clean_sbu_0--edge1-none
_symmetry_space_group_name_H-M    P1
_symmetry_Int_Tables_number       1
_symmetry_cell_setting            triclinic
loop_
_symmetry_equiv_pos_as_xyz
'x, y, z'
_cell_length_a     23.916822
_cell_length_b     23.924301
_cell_length_c     23.901182
_cell_angle_alpha  90.45135
_cell_angle_beta   90.144565
_cell_angle_gamma 91.616881
loop_
_atom_site_label
_atom_site_type_symbol
_atom_site_fract_x
_atom_site_fract_y
_atom_site_fract_z
_atom_type_partial_charge
C0 C 0.94054 0.14353 0.4361 0.0
O1 O 0.9069 0.13912 0.39548 0.0
Cd2 Cd 0.90788 0.2372 0.3799 0.0
O3 O -0.01952 0.1793 0.43218 0.0
Cd4 Cd 0.00245 0.23096 0.34234 0.0
C5 C 0.02193 0.30504 0.44596 0.0
O6 O 0.91846 0.24127 0.28288 0.0
O7 O 0.96725 0.31708 0.29617 0.0
O8 O 0.03151 0.14698 0.29507 0.0
C9 C 0.92886 0.29114 0.26893 0.0
O10 O 0.97013 0.2908 0.44666 0.0
C11 C 0.07348 0.16985 0.27118 0.0
O12 O 0.05207 0.29149 0.40483 0.0
O13 O 0.08477 0.22054 0.28395 0.0
C14 C 0.02161 0.81861 0.50355 0.0
O15 O 0.9687 0.81573 0.50058 0.0
Cd16 Cd 0.9083 0.7903 0.57537 0.0
O17 O 0.04665 0.80205 0.54737 0.0
Cd18 Cd -0.00499 0.74616 0.61977 0.0
C19 C 0.9188 0.66832 0.53633 0.0
O20 O 0.94377 0.82422 0.66224 0.0
O21 O 0.91241 0.74221 0.68382 0.0
O22 O 0.06872 0.73771 0.68974 0.0
C23 C 0.91474 0.79419 0.69497 0.0
O24 O 0.88298 0.69161 0.56709 0.0
C25 C 0.0607 0.68525 0.69563 0.0
O26 O 0.96895 0.68615 0.53929 0.0
O27 O 0.02702 0.66065 0.66192 0.0
C28 C 0.44049 0.64948 0.94363 0.0
O29 O 0.40687 0.6456 0.90296 0.0
Cd30 Cd 0.4076 0.74429 0.89062 0.0
O31 O 0.48033 0.68526 0.94015 0.0
Cd32 Cd 0.50033 0.73728 0.85079 0.0
C33 C 0.52514 0.80714 0.95557 0.0
O34 O 0.41509 0.74845 0.79327 0.0
O35 O 0.46633 0.82315 0.80346 0.0
O36 O 0.52402 0.6517 0.80502 0.0
C37 C 0.42669 0.79753 0.77768 0.0
O38 O 0.47308 0.79422 0.95727 0.0
C39 C 0.56644 0.67215 0.77993 0.0
O40 O 0.55356 0.79512 0.91275 0.0
O41 O 0.58045 0.72261 0.7911 0.0
C42 C 0.51157 0.30752 0.00492 0.0
O43 O 0.45905 0.3002 -0.00022 0.0
Cd44 Cd 0.3983 0.27289 0.07456 0.0
O45 O 0.53576 0.29365 0.05011 0.0
Cd46 Cd 0.48378 0.23792 0.1226 0.0
C47 C 0.40499 0.15164 0.04155 0.0
O48 O 0.42955 0.31687 0.15924 0.0
O49 O 0.40678 0.23621 0.19221 0.0
O50 O 0.56042 0.23655 0.18995 0.0
C51 C 0.4059 0.289 0.19741 0.0
O52 O 0.36566 0.17502 0.06725 0.0
C53 C 0.55657 0.18394 0.19701 0.0
O54 O 0.45416 0.17123 0.04968 0.0
O55 O 0.52274 0.15641 0.16574 0.0
C56 C 0.90009 0.69767 0.21318 0.0
O57 O 0.90172 0.75059 0.21617 0.0
Cd58 Cd 0.92589 0.81071 0.14122 0.0
O59 O 0.91756 0.67268 0.16949 0.0
Cd60 Cd 0.97261 0.72304 0.09601 0.0
C61 C 0.049 0.80277 0.17949 0.0
O62 O 0.89252 0.77232 0.05531 0.0
O63 O 0.97358 0.80454 0.03128 0.0
O64 O -0.02072 0.64718 0.0273 0.0
C65 C 0.92132 0.80149 0.0217 0.0
O66 O 0.02399 0.83824 0.15004 0.0
C67 C 0.03168 0.65416 0.01987 0.0
O68 O 0.03334 0.75197 0.17533 0.0
O69 O 0.05724 0.68892 0.05184 0.0
C70 C 0.56736 0.78347 0.28278 0.0
O71 O 0.56835 0.81832 0.32266 0.0
Cd72 Cd 0.47059 0.8105 0.33899 0.0
O73 O 0.53255 0.74257 0.28568 0.0
Cd74 Cd 0.47827 0.71981 0.37457 0.0
C75 C 0.40842 0.69431 0.27104 0.0
O76 O 0.46899 0.80257 0.43644 0.0
O77 O 0.39246 0.75524 0.42332 0.0
O78 O 0.56312 0.69216 0.41943 0.0
C79 C 0.41935 0.79246 0.45138 0.0
O80 O 0.42173 0.7463 0.27031 0.0
C81 C 0.54112 0.65013 0.44381 0.0
O82 O 0.41988 0.66553 0.31348 0.0
O83 O 0.49023 0.63832 0.43269 0.0
C84 C 0.39534 0.19503 0.70646 0.0
O85 O 0.40238 0.24726 0.71358 0.0
Cd86 Cd 0.42783 0.3108 0.6421 0.0
O87 O 0.41019 0.17196 0.66087 0.0
Cd88 Cd 0.47054 0.22603 0.59528 0.0
C89 C 0.54763 0.29912 0.68156 0.0
O90 O 0.39244 0.27805 0.55517 0.0
O91 O 0.47428 0.30899 0.53218 0.0
O92 O 0.47928 0.15204 0.52578 0.0
C93 C 0.42204 0.30744 0.52249 0.0
O94 O 0.5266 0.33524 0.64983 0.0
C95 C 0.53184 0.15934 0.51984 0.0
O96 O 0.52825 0.24952 0.6782 0.0
O97 O 0.55654 0.1937 0.55285 0.0
C98 C 0.06428 0.28786 0.77366 0.0
O99 O 0.06477 0.32296 0.8133 0.0
Cd100 Cd 0.96731 0.31432 0.82956 0.0
O101 O 0.03184 0.24526 0.77769 0.0
Cd102 Cd -0.01891 0.22001 0.86666 0.0
C103 C 0.90986 0.19496 0.76282 0.0
O104 O 0.96972 0.30306 0.92674 0.0
O105 O 0.89547 0.25112 0.91703 0.0
O106 O 0.06782 0.1959 0.9097 0.0
C107 C 0.9212 0.29032 0.94339 0.0
O108 O 0.92109 0.24737 0.76165 0.0
C109 C 0.0482 0.15276 0.93406 0.0
O110 O 0.92307 0.16669 0.80512 0.0
O111 O -0.00235 0.13865 0.92369 0.0
C112 C 0.44201 0.90556 0.18093 0.0
O113 O 0.41723 0.87005 0.21181 0.0
Cd114 Cd 0.36897 0.91106 0.28429 0.0
O115 O 0.42873 0.95684 0.18226 0.0
Cd116 Cd 0.34766 0.00458 0.22681 0.0
C117 C 0.44476 0.03545 0.31036 0.0
O118 O 0.28228 0.92735 0.23639 0.0
O119 O 0.29185 0.97695 0.31145 0.0
O120 O 0.30851 0.03247 0.13777 0.0
C121 C 0.26517 0.93848 0.28485 0.0
O122 O 0.43876 -0.01715 0.31668 0.0
C123 C 0.28508 0.07539 0.15722 0.0
O124 O 0.4109 0.06143 0.2802 0.0
O125 O 0.29595 0.08812 0.20772 0.0
C126 C 0.31343 0.01098 0.52945 0.0
O127 O 0.31666 0.00596 0.47668 0.0
Cd128 Cd 0.29389 0.07225 0.40684 0.0
O129 O 0.29079 0.05368 0.55111 0.0
Cd130 Cd 0.23633 0.12144 0.49316 0.0
C131 C 0.1657 0.03226 0.41123 0.0
O132 O 0.31416 0.16383 0.43958 0.0
O133 O 0.23203 0.18486 0.41084 0.0
O134 O 0.23038 0.19719 0.56183 0.0
C135 C 0.28411 0.1964 0.4119 0.0
O136 O 0.19861 0.05433 0.37559 0.0
C137 C 0.17773 0.20107 0.55672 0.0
O138 O 0.1743 0.04195 0.46279 0.0
O139 O 0.15202 0.16351 0.52815 0.0
C140 C 0.20862 0.90857 0.70402 0.0
O141 O 0.21517 0.91237 0.75672 0.0
Cd142 Cd 0.14764 0.93829 0.82602 0.0
O143 O 0.16412 0.926 0.68136 0.0
Cd144 Cd 0.09543 -0.01753 0.7358 0.0
C145 C 0.18093 0.06422 0.81536 0.0
O146 O 0.05824 0.90555 0.794 0.0
O147 O 0.02704 -0.0131 0.81346 0.0
O148 O 0.02368 -0.01678 0.66307 0.0
C149 C 0.02082 0.93421 0.81659 0.0
O150 O 0.159 0.03646 0.85495 0.0
C151 C 0.01987 0.03611 0.66391 0.0
O152 O 0.17031 0.04819 0.76566 0.0
O153 O 0.05481 0.06382 0.69382 0.0
C154 C 0.31774 0.77681 0.03512 0.0
O155 O 0.35344 0.79133 -0.00137 0.0
Cd156 Cd 0.31982 0.83189 0.91818 0.0
O157 O 0.26782 0.79405 0.03279 0.0
Cd158 Cd 0.22643 0.8702 0.97561 0.0
C159 C 0.1874 0.76708 0.90216 0.0
O160 O 0.31165 0.92322 0.956 0.0
O161 O 0.25545 0.91748 0.88657 0.0
O162 O 0.20118 0.92094 0.06 0.0
C163 C 0.29923 0.94004 0.908 0.0
O164 O 0.23998 0.76897 0.89386 0.0
C165 C 0.1588 0.94344 0.03866 0.0
O166 O 0.16461 0.8046 0.93077 0.0
O167 O 0.14668 0.92978 -0.0113 0.0
C168 C 0.18834 0.27751 0.07265 0.0
O169 O 0.22652 0.28598 0.10883 0.0
Cd170 Cd 0.30817 0.33333 0.07539 0.0
O171 O 0.18987 0.30236 0.02573 0.0
Cd172 Cd 0.23828 0.37957 0.97649 0.0
C173 C 0.31692 0.27903 0.93726 0.0
O174 O 0.27634 0.42382 0.06014 0.0
O175 O 0.31607 0.44779 -0.01757 0.0
O176 O 0.15618 0.43617 0.97332 0.0
C177 C 0.30953 0.45638 0.03444 0.0
O178 O 0.32736 0.2804 -0.01051 0.0
C179 C 0.1596 0.4456 0.92127 0.0
O180 O 0.28423 0.31369 0.91589 0.0
O181 O 0.1969 0.42042 0.89407 0.0
C182 C 0.66777 0.01898 0.05839 0.0
O183 O 0.70384 0.03408 0.09476 0.0
Cd184 Cd 0.78342 0.08225 0.06767 0.0
O185 O 0.66914 0.03981 0.00924 0.0
Cd186 Cd 0.72949 0.1223 0.9721 0.0
C187 C 0.80714 0.01809 0.93848 0.0
O188 O 0.74231 0.17223 0.06016 0.0
O189 O 0.81731 0.16612 0.0113 0.0
O190 O 0.64683 0.17173 0.93797 0.0
C191 C 0.7923 0.18826 0.05239 0.0
O192 O 0.81399 0.02038 -0.00874 0.0
C193 C 0.67411 0.20586 0.90722 0.0
O194 O 0.77845 0.05462 0.91413 0.0
O195 O 0.72622 0.19859 0.90295 0.0
C196 C 0.19827 0.55216 0.16042 0.0
O197 O 0.18356 0.51728 0.12269 0.0
Cd198 Cd 0.13485 0.4374 0.14974 0.0
O199 O 0.17695 0.54877 0.20938 0.0
Cd200 Cd 0.09387 0.4869 0.24372 0.0
C201 C 0.19556 0.40866 0.27926 0.0
O202 O 0.04271 0.47518 0.15618 0.0
O203 O 0.05111 0.39891 0.20176 0.0
O204 O 0.04357 0.56848 0.27911 0.0
C205 C 0.02806 0.42453 0.16181 0.0
O206 O 0.19462 0.40339 0.22622 0.0
C207 C 0.0103 0.54051 0.31018 0.0
O208 O 0.15877 0.43721 0.30355 0.0
O209 O 0.01831 0.48853 0.31371 0.0
C210 C 0.67694 0.77526 0.58366 0.0
O211 O 0.72099 0.77916 0.61319 0.0
Cd212 Cd 0.801 0.82982 0.5807 0.0
O213 O 0.67192 0.8037 0.53925 0.0
Cd214 Cd 0.72321 0.87703 0.48788 0.0
C215 C 0.8002 0.77361 0.44622 0.0
O216 O 0.77029 0.92105 0.56681 0.0
O217 O 0.80739 0.93784 0.48599 0.0
O218 O 0.64852 0.94257 0.48138 0.0
C219 C 0.80382 0.95013 0.53756 0.0
O220 O 0.8232 0.7801 0.49402 0.0
C221 C 0.65411 0.94979 0.42905 0.0
O222 O 0.75846 0.80173 0.43209 0.0
O223 O 0.68755 0.91854 0.40321 0.0
C224 C 0.94806 0.03922 0.13117 0.0
O225 O 0.94527 -0.00829 0.10733 0.0
Cd226 Cd 0.88841 0.91573 0.13921 0.0
O227 O 0.91719 0.05011 0.17304 0.0
Cd228 Cd 0.84355 -0.00071 0.22655 0.0
C229 C 0.94314 0.91893 0.27216 0.0
O230 O 0.79801 0.95017 0.14929 0.0
O231 O 0.78123 0.91576 0.23109 0.0
O232 O 0.77738 0.07345 0.23469 0.0
C233 C 0.76837 0.9182 0.17968 0.0
O234 O 0.93351 0.89148 0.22715 0.0
C235 C 0.77042 0.06749 0.28705 0.0
O236 O 0.91936 0.96458 0.282 0.0
O237 O 0.80266 0.0348 0.31227 0.0
C238 C 0.16352 0.52264 0.55138 0.0
O239 O 0.19863 0.53616 0.58924 0.0
Cd240 Cd 0.27914 0.58555 0.56592 0.0
O241 O 0.16711 0.54486 0.50296 0.0
Cd242 Cd 0.23136 0.62739 0.47139 0.0
C243 C 0.30937 0.52363 0.43717 0.0
O244 O 0.23977 0.67723 0.56079 0.0
O245 O 0.31748 0.67079 0.51692 0.0
O246 O 0.15077 0.67747 0.43449 0.0
C247 C 0.29047 0.69252 0.55698 0.0
O248 O 0.31399 0.52506 0.49022 0.0
C249 C 0.17929 0.71116 0.40438 0.0
O250 O 0.28176 0.56074 0.41253 0.0
O251 O 0.23149 0.70367 0.40205 0.0
C252 C 0.44324 0.53115 0.63882 0.0
O253 O 0.44782 0.47916 0.63008 0.0
Cd254 Cd 0.38285 0.40625 0.6516 0.0
O255 O 0.40301 0.54982 0.66733 0.0
Cd256 Cd 0.33865 0.49341 0.72367 0.0
C257 C 0.4333 0.41102 0.77792 0.0
O258 O 0.29415 0.44543 0.64504 0.0
O259 O 0.27052 0.41456 0.72659 0.0
O260 O 0.27513 0.56913 0.73288 0.0
C261 C 0.25994 0.41775 0.67471 0.0
O262 O 0.41213 0.37556 0.74349 0.0
C263 C 0.26782 0.56222 0.78502 0.0
O264 O 0.41949 0.46168 0.77585 0.0
O265 O 0.29868 0.52782 0.80971 0.0
C266 C 0.6996 0.05179 0.65854 0.0
O267 O 0.68304 0.01625 0.62217 0.0
Cd268 Cd 0.63354 0.93728 0.65093 0.0
O269 O 0.68047 0.04972 0.70837 0.0
Cd270 Cd 0.59813 -0.00949 0.74542 0.0
C271 C 0.69646 0.90675 0.77836 0.0
O272 O 0.54292 0.97751 0.66031 0.0
O273 O 0.5504 0.90263 0.70813 0.0
O274 O 0.54661 0.07276 0.7739 0.0
C275 C 0.52707 0.92755 0.66793 0.0
O276 O 0.69387 0.90015 0.7255 0.0
C277 C 0.52107 0.04949 0.81435 0.0
O278 O 0.66255 0.93855 0.80273 0.0
O279 O 0.53397 -0.0003 0.82525 0.0
C280 C 0.81315 0.50666 0.02335 0.0
O281 O 0.81231 0.50106 0.97052 0.0
Cd282 Cd 0.78539 0.56743 0.90275 0.0
O283 O 0.79296 0.54997 0.04623 0.0
Cd284 Cd 0.73615 0.6172 -0.00933 0.0
C285 C 0.6584 0.52792 0.91502 0.0
O286 O 0.81324 0.65791 0.9336 0.0
O287 O 0.73093 0.68167 0.90865 0.0
O288 O 0.7348 0.69173 0.06154 0.0
C289 C 0.78332 0.69157 0.90726 0.0
O290 O 0.68788 0.5516 0.87748 0.0
C291 C 0.6821 0.69677 0.05909 0.0
O292 O 0.67152 0.53656 0.96582 0.0
O293 O 0.65452 0.66094 0.03003 0.0
C294 C 0.93347 0.40684 0.67374 0.0
O295 O 0.90833 0.36908 0.70154 0.0
Cd296 Cd 0.86669 0.40855 0.7793 0.0
O297 O 0.92174 0.45802 0.68133 0.0
Cd298 Cd 0.84156 0.50119 0.73312 0.0
C299 C 0.94239 0.53213 0.80944 0.0
O300 O 0.77504 0.42433 0.74218 0.0
O301 O 0.7883 0.46957 0.81918 0.0
O302 O 0.80032 0.53134 0.64611 0.0
C303 C 0.7593 0.43361 0.79148 0.0
O304 O 0.93828 0.47901 0.81121 0.0
C305 C 0.77675 0.57321 0.66756 0.0
O306 O 0.90497 0.55937 0.78541 0.0
O307 O 0.78813 0.58422 0.71833 0.0
C308 C 0.81573 0.27576 0.53506 0.0
O309 O 0.85123 0.29852 0.50266 0.0
Cd310 Cd 0.81143 0.34711 0.43025 0.0
O311 O 0.76481 0.2905 0.53467 0.0
Cd312 Cd 0.71853 0.37148 0.48826 0.0
C313 C 0.68479 0.27432 0.40575 0.0
O314 O 0.79706 0.43449 0.47811 0.0
O315 O 0.74765 0.42462 0.40305 0.0
O316 O 0.6895 0.41584 0.57485 0.0
C317 C 0.78606 0.45132 0.42968 0.0
O318 O 0.73742 0.27943 0.39867 0.0
C319 C 0.64801 0.43942 0.55288 0.0
O320 O 0.65972 0.30853 0.43656 0.0
O321 O 0.63662 0.42667 0.50254 0.0
C322 C 0.70899 0.4006 0.19513 0.0
O323 O 0.71368 0.39908 0.24798 0.0
Cd324 Cd 0.64623 0.42455 0.31599 0.0
O325 O 0.6665 0.4226 0.17269 0.0
Cd326 Cd 0.59839 0.47908 0.22822 0.0
C327 C 0.68761 0.5517 0.30749 0.0
O328 O 0.55552 0.4017 0.28216 0.0
O329 O 0.5334 0.48402 0.30965 0.0
O330 O 0.52498 0.48516 0.15747 0.0
C331 C 0.52216 0.43189 0.30897 0.0
O332 O 0.66391 0.52103 0.34404 0.0
C333 C 0.52076 0.5378 0.16288 0.0
O334 O 0.67877 0.54084 0.25624 0.0
O335 O 0.55707 0.56345 0.19299 0.0
Fe336 Fe 0.11553 0.05924 0.15209 0.0
Fe337 Fe 0.0633 0.16352 0.1021 0.0
O338 O 0.11477 0.1116 0.1 0.0
Fe339 Fe 0.16539 0.11312 0.04553 0.0
O340 O 0.17263 0.03822 0.04209 0.0
O341 O 0.11053 0.00267 0.10058 0.0
O342 O 0.03967 0.0543 0.15825 0.0
C343 C 0.00085 0.06997 0.12652 0.0
C344 C 0.23003 0.08758 0.13594 0.0
O345 O 0.00679 0.11146 0.09457 0.0
C346 C 0.15601 0.22569 0.07542 0.0
O347 O 0.12118 0.11038 0.20903 0.0
O348 O 0.05577 0.1641 0.17731 0.0
O349 O 0.22343 0.11979 0.09497 0.0
O350 O 0.19108 0.05592 0.15382 0.0
C351 C 0.07173 0.13902 -0.01222 0.0
O352 O 0.11706 0.21843 0.1103 0.0
O353 O 0.16736 0.18888 0.03954 0.0
C354 C 0.08797 0.14973 0.21585 0.0
O355 O 0.0608 0.17242 0.02694 0.0
O356 O 0.11155 0.1059 -0.00829 0.0
C357 C 0.14296 -0.00221 0.05942 0.0
Fe358 Fe 0.05549 0.81144 0.34032 0.0
Fe359 Fe 0.10162 0.92189 0.29419 0.0
O360 O 0.10352 0.86895 0.34524 0.0
Fe361 Fe 0.15239 0.87403 0.40113 0.0
O362 O 0.18197 0.80694 0.38278 0.0
O363 O 0.10175 0.76095 0.37314 0.0
O364 O 0.08217 0.79107 0.27176 0.0
C365 C 0.07811 0.82324 0.23014 0.0
C366 C 0.05234 0.83346 0.45255 0.0
O367 O 0.07782 0.87557 0.23748 0.0
C368 C 0.13072 -0.01579 0.3925 0.0
O369 O -0.00017 0.85081 0.30749 0.0
O370 O 0.0301 0.93798 0.31294 0.0
O371 O 0.10502 0.84129 0.45334 0.0
O372 O 0.02563 0.8293 0.40707 0.0
C373 C 0.21356 0.91323 0.30623 0.0
O374 O 0.12623 0.97857 0.3402 0.0
O375 O 0.12698 0.94182 0.42356 0.0
C376 C -0.0095 0.90249 0.30609 0.0
O377 O 0.17251 0.90841 0.27313 0.0
O378 O 0.20774 0.90789 0.35864 0.0
C379 C 0.15404 0.76139 0.38114 0.0
Fe380 Fe 0.36921 0.91293 0.66236 0.0
Fe381 Fe 0.30459 0.8494 0.56921 0.0
O382 O 0.36214 0.85562 0.61549 0.0
Fe383 Fe 0.41351 0.80403 0.61485 0.0
O384 O 0.39602 0.78483 0.68585 0.0
O385 O 0.40236 0.87152 0.71818 0.0
O386 O 0.30367 0.89546 0.69503 0.0
C387 C 0.25716 0.89174 0.67057 0.0
C388 C 0.47788 0.9031 0.63942 0.0
O389 O 0.25396 0.88192 0.61821 0.0
C390 C 0.39808 0.81565 0.50378 0.0
O391 O 0.33641 0.96427 0.61505 0.0
O392 O 0.32234 0.91538 0.5377 0.0
O393 O 0.4711 0.85053 0.64014 0.0
O394 O 0.43637 0.93362 0.63292 0.0
C395 C 0.3141 0.74017 0.58913 0.0
O396 O 0.34556 0.81689 0.51209 0.0
O397 O 0.43245 0.82177 0.54381 0.0
C398 C 0.32708 0.96165 0.56273 0.0
O399 O 0.28367 0.78162 0.59716 0.0
O400 O 0.36671 0.74685 0.58923 0.0
C401 C 0.40282 0.81901 0.72607 0.0
Fe402 Fe 0.41206 0.16137 0.87176 0.0
Fe403 Fe 0.35098 0.0654 0.80739 0.0
O404 O 0.35469 0.11228 0.86599 0.0
Fe405 Fe 0.30122 0.10993 0.91831 0.0
O406 O 0.30335 0.18438 0.93162 0.0
O407 O 0.36641 0.22128 0.87478 0.0
O408 O 0.41813 0.17258 0.79702 0.0
C409 C 0.38584 0.16186 0.75633 0.0
C410 C 0.39308 0.13066 -0.01493 0.0
O411 O 0.34994 0.1223 0.75749 0.0
C412 C 0.31649 -0.00402 0.89174 0.0
O413 O 0.46379 0.10679 0.87007 0.0
O414 O 0.42633 0.05951 0.79968 0.0
O415 O 0.35057 0.09962 0.97532 0.0
O416 O 0.41568 0.15959 0.94715 0.0
C417 C 0.23655 0.08895 0.82566 0.0
O418 O 0.35088 0.00433 0.85237 0.0
O419 O 0.29021 0.03489 0.91442 0.0
C420 C 0.46704 0.07051 0.83183 0.0
O421 O 0.2754 0.06189 0.80395 0.0
O422 O 0.24543 0.12015 0.86772 0.0
C423 C 0.32648 0.22617 0.90879 0.0
Fe424 Fe 0.54961 0.30525 0.84292 0.0
Fe425 Fe 0.59445 0.41719 0.7989 0.0
O426 O 0.5964 0.36383 0.84965 0.0
Fe427 Fe 0.6444 0.36913 0.90646 0.0
O428 O 0.67491 0.30231 0.88856 0.0
O429 O 0.59596 0.25495 0.87585 0.0
O430 O 0.578 0.28643 0.77466 0.0
C431 C 0.57442 0.31914 0.73346 0.0
C432 C 0.54338 0.32513 0.95524 0.0
O433 O 0.57262 0.37122 0.7415 0.0
C434 C 0.62269 0.47956 0.89762 0.0
O435 O 0.49366 0.344 0.80995 0.0
O436 O 0.52207 0.43185 0.8161 0.0
O437 O 0.59577 0.33572 0.95763 0.0
O438 O 0.51795 0.32111 0.90911 0.0
C439 C 0.70681 0.40954 0.8126 0.0
O440 O 0.61731 0.47387 0.84545 0.0
O441 O 0.61897 0.43715 0.9288 0.0
C442 C 0.48323 0.39546 0.80895 0.0
O443 O 0.66606 0.40518 0.77903 0.0
O444 O 0.70049 0.40331 0.86491 0.0
C445 C 0.64795 0.2563 0.88532 0.0
Fe446 Fe 0.80688 0.34555 0.06131 0.0
Fe447 Fe 0.8702 0.40813 0.15552 0.0
O448 O 0.86419 0.35167 0.10777 0.0
Fe449 Fe 0.91601 0.30065 0.10637 0.0
O450 O 0.93464 0.31957 0.0356 0.0
O451 O 0.84777 0.31319 0.0044 0.0
O452 O 0.8249 0.41155 0.03025 0.0
C453 C 0.82869 0.45754 0.0559 0.0
C454 C 0.81678 0.23666 0.08203 0.0
O455 O 0.8371 0.45959 0.10846 0.0
C456 C 0.90503 0.31357 0.21775 0.0
O457 O 0.75587 0.37779 0.1096 0.0
O458 O 0.80445 0.38903 0.18729 0.0
O459 O 0.86937 0.24351 0.08053 0.0
O460 O 0.78619 0.27803 0.08954 0.0
C461 C -0.02076 0.40011 0.13262 0.0
O462 O 0.90364 0.36623 0.2109 0.0
O463 O 0.89884 0.28013 0.17693 0.0
C464 C 0.75824 0.38555 0.16217 0.0
O465 O 0.93733 0.43025 0.12694 0.0
O466 O 0.97314 0.34743 0.13218 0.0
C467 C 0.90018 0.31322 -0.00426 0.0
Fe468 Fe 0.79959 0.61498 0.42303 0.0
Fe469 Fe 0.90886 0.66315 0.37573 0.0
O470 O 0.85187 0.61444 0.37099 0.0
Fe471 Fe 0.84684 0.56597 0.31453 0.0
O472 O 0.77823 0.59031 0.29354 0.0
O473 O 0.74275 0.59015 0.37773 0.0
O474 O 0.78216 0.68635 0.40578 0.0
C475 C 0.81717 0.72643 0.41217 0.0
C476 C 0.81022 0.5034 0.4089 0.0
O477 O 0.869 0.71793 0.41001 0.0
C478 C 0.95976 0.56563 0.3332 0.0
O479 O 0.8461 0.63885 0.4792 0.0
O480 O 0.93031 0.63616 0.44353 0.0
O481 O 0.81433 0.50991 0.35655 0.0
O482 O 0.81456 0.54415 0.4426 0.0
C483 C 0.88568 0.66682 0.26399 0.0
O484 O 0.95972 0.61787 0.34153 0.0
O485 O 0.91448 0.53728 0.33156 0.0
C486 C 0.89848 0.63925 0.48569 0.0
O487 O 0.88994 0.69331 0.30969 0.0
O488 O 0.8784 0.61412 0.26263 0.0
C489 C 0.73633 0.58609 0.32552 0.0
Fe490 Fe 0.90701 0.80712 0.85844 0.0
Fe491 Fe 0.80083 0.8547 0.90834 0.0
O492 O 0.85515 0.85794 0.85864 0.0
Fe493 Fe 0.85786 0.91225 0.80915 0.0
O494 O 0.92514 0.93755 0.83521 0.0
O495 O 0.96288 0.85491 0.83246 0.0
O496 O 0.92912 0.82691 0.92828 0.0
C497 C 0.89725 0.82278 0.96988 0.0
C498 C 0.89218 0.81695 0.74708 0.0
O499 O 0.8444 0.82361 0.96384 0.0
C500 C 0.74658 0.88839 0.80804 0.0
O501 O 0.86047 0.75038 0.88492 0.0
O502 O 0.7769 0.78618 0.88348 0.0
O503 O 0.8908 0.86962 0.75389 0.0
O504 O 0.88783 0.78469 0.78831 0.0
C505 C 0.82287 0.96679 0.90865 0.0
O506 O 0.74786 0.88554 0.86121 0.0
O507 O 0.79123 0.8894 0.78035 0.0
C508 C 0.80758 0.74425 0.88577 0.0
O509 O 0.82204 0.92238 0.93655 0.0
O510 O 0.82533 0.96493 0.85557 0.0
C511 C 0.96779 0.90786 0.83394 0.0
Fe512 Fe 0.85792 0.06491 0.65729 0.0
Fe513 Fe 0.81537 0.11404 0.54828 0.0
O514 O 0.86536 0.11337 0.6023 0.0
Fe515 Fe 0.92267 0.16174 0.60101 0.0
O516 O 0.90061 0.1925 0.66619 0.0
O517 O 0.88805 0.11296 0.71074 0.0
O518 O 0.78925 0.09004 0.67664 0.0
C519 C 0.74852 0.08644 0.6431 0.0
C520 C 0.97076 0.06319 0.64129 0.0
O521 O 0.75701 0.0894 0.59108 0.0
C522 C 0.91712 0.13199 0.49125 0.0
O523 O 0.82683 0.00927 0.6128 0.0
O524 O 0.83125 0.04339 0.52762 0.0
O525 O 0.97146 0.11586 0.63684 0.0
O526 O 0.92519 0.03563 0.64139 0.0
C527 C 0.8323 0.22515 0.56322 0.0
O528 O 0.86482 0.13711 0.49514 0.0
O529 O 0.94768 0.1342 0.53448 0.0
C530 C 0.82686 0.0024 0.56016 0.0
O531 O 0.79707 0.1851 0.56614 0.0
O532 O 0.88418 0.21627 0.56567 0.0
C533 C 0.89387 0.16588 0.71101 0.0
Fe534 Fe 0.60801 0.06041 0.30546 0.0
Fe535 Fe 0.65841 0.11144 0.41143 0.0
O536 O 0.60762 0.11168 0.35834 0.0
Fe537 Fe 0.55666 0.16294 0.35805 0.0
O538 O 0.58038 0.18825 0.29082 0.0
O539 O 0.57774 0.10536 0.25128 0.0
O540 O 0.67611 0.08529 0.28246 0.0
C541 C 0.71868 0.08485 0.31352 0.0
C542 C 0.49726 0.06336 0.32704 0.0
O543 O 0.71325 0.08176 0.36631 0.0
C544 C 0.55961 0.14062 0.46881 0.0
O545 O 0.63792 0.00609 0.35033 0.0
O546 O 0.63349 0.04338 0.43418 0.0
O547 O 0.50184 0.11643 0.32644 0.0
O548 O 0.54006 0.03395 0.32673 0.0
C549 C 0.65618 0.22202 0.38958 0.0
O550 O 0.61266 0.14171 0.46571 0.0
O551 O 0.53043 0.13993 0.42503 0.0
C552 C 0.63497 0.00078 0.40306 0.0
O553 O 0.6852 0.17908 0.39047 0.0
O554 O 0.60307 0.21787 0.38981 0.0
C555 C 0.57864 0.15825 0.24741 0.0
Fe556 Fe 0.55652 0.79707 0.11793 0.0
Fe557 Fe 0.65445 0.86013 0.06104 0.0
O558 O 0.60533 0.85412 0.116 0.0
Fe559 Fe 0.60427 0.90536 0.16915 0.0
O560 O 0.53335 0.92337 0.15082 0.0
O561 O 0.50169 0.83649 0.15193 0.0
O562 O 0.52681 0.81772 0.05209 0.0
C563 C 0.5539 0.82363 0.00735 0.0
C564 C 0.58362 0.805 0.22804 0.0
O565 O 0.60682 0.8292 0.0078 0.0
C566 C 0.71621 0.89401 0.15778 0.0
O567 O 0.60254 0.74714 0.08357 0.0
O568 O 0.68315 0.79277 0.07809 0.0
O569 O 0.58059 0.85735 0.22307 0.0
O570 O 0.58262 0.7735 0.18531 0.0
C571 C 0.63269 0.97019 0.07341 0.0
O572 O 0.70981 0.89199 0.10516 0.0
O573 O 0.67495 0.89017 0.19033 0.0
C574 C 0.65524 0.74733 0.07939 0.0
O575 O 0.63009 0.92877 0.04036 0.0
O576 O 0.62904 0.9626 0.12546 0.0
C577 C 0.49312 0.88837 0.15382 0.0
Fe578 Fe 0.42199 0.66568 0.10888 0.0
Fe579 Fe 0.31486 0.6204 0.05427 0.0
O580 O 0.36459 0.61736 0.10832 0.0
Fe581 Fe 0.35716 0.56662 0.16117 0.0
O582 O 0.42494 0.53848 0.1445 0.0
O583 O 0.47073 0.61898 0.14357 0.0
O584 O 0.44728 0.63977 0.04183 0.0
C585 C 0.41677 0.63845 -0.00145 0.0
C586 C 0.39241 0.66631 0.21856 0.0
O587 O 0.36471 0.64517 0.00238 0.0
C588 C 0.24732 0.58797 0.14732 0.0
O589 O 0.38401 0.7212 0.07465 0.0
O590 O 0.29689 0.69074 0.07514 0.0
O591 O 0.38645 0.61329 0.21667 0.0
O592 O 0.39931 0.69432 0.17462 0.0
C593 C 0.32806 0.50847 0.06087 0.0
O594 O 0.2562 0.59384 0.09562 0.0
O595 O 0.28786 0.58997 0.1812 0.0
C596 C 0.3323 0.73046 0.07075 0.0
O597 O 0.33088 0.55108 0.03052 0.0
O598 O 0.32713 0.51249 0.11385 0.0
C599 C 0.47045 0.56617 0.14471 0.0
Fe600 Fe 0.1061 0.55753 0.802 0.0
Fe601 Fe 0.15623 0.6043 0.90981 0.0
O602 O 0.10574 0.60705 0.8566 0.0
Fe603 Fe 0.05544 0.65896 0.85778 0.0
O604 O 0.07901 0.68572 0.79096 0.0
O605 O 0.07615 0.60412 0.74901 0.0
O606 O 0.17439 0.58306 0.78024 0.0
C607 C 0.21668 0.58055 0.81152 0.0
C608 C -0.00452 0.56008 0.82441 0.0
O609 O 0.21074 0.57532 0.86404 0.0
C610 C 0.05836 0.63466 0.96836 0.0
O611 O 0.13593 0.50172 0.84505 0.0
O612 O 0.12989 0.5359 0.93 0.0
O613 O -2e-05 0.61327 0.82566 0.0
O614 O 0.0382 0.53063 0.82223 0.0
C615 C 0.15638 0.71527 0.88945 0.0
O616 O 0.11129 0.6341 0.96495 0.0
O617 O 0.02908 0.63516 0.92466 0.0
C618 C 0.13379 0.4945 0.89758 0.0
O619 O 0.18428 0.67168 0.8909 0.0
O620 O 0.10315 0.7127 0.89004 0.0
C621 C 0.0783 0.65707 0.74666 0.0
Fe622 Fe 0.14783 0.36462 0.55305 0.0
Fe623 Fe 0.04946 0.3009 0.60832 0.0
O624 O 0.09736 0.3587 0.60678 0.0
Fe625 Fe 0.09456 0.41012 0.65972 0.0
O626 O 0.16486 0.39581 0.68246 0.0
O627 O 0.20202 0.39668 0.59824 0.0
O628 O 0.17662 0.29765 0.57144 0.0
C629 C 0.14927 0.25196 0.57333 0.0
C630 C 0.12603 0.47478 0.5644 0.0
O631 O 0.09649 0.25128 0.57513 0.0
C632 C -0.01603 0.39127 0.6441 0.0
O633 O 0.10141 0.33285 0.49907 0.0
O634 O 0.02051 0.32055 0.54184 0.0
O635 O 0.1197 0.46745 0.61626 0.0
O636 O 0.12399 0.43323 0.53142 0.0
C637 C 0.07664 0.30996 0.7184 0.0
O638 O -0.00647 0.33958 0.64147 0.0
O639 O 0.02355 0.42699 0.64028 0.0
C640 C 0.04861 0.32536 0.49757 0.0
O641 O 0.07552 0.27821 0.67592 0.0
O642 O 0.07079 0.36196 0.71333 0.0
C643 C 0.20696 0.39813 0.65098 0.0
Fe644 Fe 0.65631 0.60993 0.55676 0.0
Fe645 Fe 0.60743 0.55797 0.66455 0.0
O646 O 0.6059 0.60892 0.61111 0.0
Fe647 Fe 0.5533 0.65984 0.61217 0.0
O648 O 0.5513 0.66876 0.5371 0.0
O649 O 0.60271 0.60255 0.50271 0.0
O650 O 0.66271 0.53457 0.55395 0.0
C651 C 0.63362 0.49439 0.57317 0.0
C652 C 0.64532 0.72308 0.58636 0.0
O653 O 0.6023 0.50002 0.61499 0.0
C654 C 0.57928 0.64961 0.72537 0.0
O655 O 0.71462 0.61688 0.60572 0.0
O656 O 0.68276 0.55464 0.66621 0.0
O657 O 0.6056 0.7159 0.62038 0.0
O658 O 0.65831 0.6859 0.55122 0.0
C659 C 0.49416 0.56454 0.63582 0.0
O660 O 0.61347 0.61106 0.71945 0.0
O661 O 0.54508 0.66053 0.68733 0.0
C662 C 0.72151 0.58579 0.64738 0.0
O663 O 0.53181 0.55284 0.67065 0.0
O664 O 0.49857 0.60631 0.60413 0.0
C665 C 0.56303 0.63566 0.49804 0.0
Fe666 Fe 0.40681 0.31032 0.36055 0.0
Fe667 Fe 0.35843 0.41451 0.30847 0.0
O668 O 0.35547 0.36171 0.35953 0.0
Fe669 Fe 0.30148 0.35993 0.40963 0.0
O670 O 0.27718 0.29075 0.38653 0.0
O671 O 0.36069 0.25524 0.39005 0.0
O672 O 0.38557 0.28522 0.29224 0.0
C673 C 0.38794 0.31549 0.24947 0.0
C674 C 0.39852 0.32979 0.47108 0.0
O675 O 0.38838 0.3686 0.25384 0.0
C676 C 0.32491 0.47193 0.4076 0.0
O677 O 0.46272 0.35552 0.33096 0.0
O678 O 0.42724 0.43902 0.33194 0.0
O679 O 0.34563 0.33024 0.46526 0.0
O680 O 0.43019 0.33301 0.42918 0.0
C681 C 0.24633 0.39233 0.30944 0.0
O682 O 0.32823 0.46936 0.35447 0.0
O683 O 0.32311 0.42797 0.43615 0.0
C684 C 0.46908 0.40823 0.3299 0.0
O685 O 0.29074 0.39287 0.28145 0.0
O686 O 0.24795 0.38995 0.36257 0.0
C687 C 0.30794 0.24892 0.39001 0.0
loop_
_geom_bond_atom_site_label_1
_geom_bond_atom_site_label_2
_geom_bond_distance
_geom_bond_site_symmetry_2
_ccdc_geom_bond_type
C0 O1 1.306 . S
C0 O3 1.160 . S
O1 C0 1.306 . S
O1 Cd2 2.228 . S
Cd2 O1 2.228 . S
Cd2 O6 2.273 . S
Cd2 O10 2.277 . S
O3 C0 1.160 . S
O3 Cd4 2.203 1_655 S
Cd4 O3 2.203 1_455 S
Cd4 O6 2.411 1_455 S
Cd4 O7 2.333 . S
Cd4 O8 2.352 . S
Cd4 O12 2.277 . S
Cd4 O13 2.356 . S
C5 O10 1.209 1_455 S
C5 O12 1.226 . S
O6 Cd2 2.273 . S
O6 Cd4 2.411 1_655 S
O6 C9 1.320 . S
O7 Cd4 2.333 . S
O7 C9 1.214 1_455 S
O8 Cd4 2.352 . S
O8 C11 1.258 . S
C9 O6 1.320 . S
C9 O7 1.214 1_655 S
O10 Cd2 2.277 . S
O10 C5 1.209 1_655 S
C11 O8 1.258 . S
C11 O13 1.282 . S
O12 Cd4 2.277 . S
O12 C5 1.226 . S
O13 Cd4 2.356 . S
O13 C11 1.282 . S
C14 O15 1.306 . S
C14 O17 1.160 . S
O15 C14 1.306 . S
O15 Cd16 2.228 1_455 S
Cd16 O15 2.228 1_655 S
Cd16 O20 2.273 . S
Cd16 O24 2.277 . S
O17 C14 1.160 . S
O17 Cd18 2.203 . S
Cd18 O17 2.203 . S
Cd18 O20 2.411 1_455 S
Cd18 O21 2.333 1_455 S
Cd18 O22 2.352 . S
Cd18 O26 2.277 1_455 S
Cd18 O27 2.356 . S
C19 O24 1.209 . S
C19 O26 1.226 . S
O20 Cd16 2.273 . S
O20 Cd18 2.411 1_655 S
O20 C23 1.320 . S
O21 Cd18 2.333 1_655 S
O21 C23 1.214 . S
O22 Cd18 2.352 . S
O22 C25 1.258 . S
C23 O20 1.320 . S
C23 O21 1.214 . S
O24 Cd16 2.277 . S
O24 C19 1.209 . S
C25 O22 1.258 . S
C25 O27 1.282 . S
O26 Cd18 2.277 1_655 S
O26 C19 1.226 . S
O27 Cd18 2.356 . S
O27 C25 1.282 . S
C28 O29 1.306 . S
C28 O31 1.160 . S
O29 C28 1.306 . S
O29 Cd30 2.228 . S
Cd30 O29 2.228 . S
Cd30 O34 2.273 . S
Cd30 O38 2.277 . S
O31 C28 1.160 . S
O31 Cd32 2.203 . S
Cd32 O31 2.203 . S
Cd32 O34 2.411 . S
Cd32 O35 2.333 . S
Cd32 O36 2.352 . S
Cd32 O40 2.277 . S
Cd32 O41 2.356 . S
C33 O38 1.209 . S
C33 O40 1.226 . S
O34 Cd30 2.273 . S
O34 Cd32 2.411 . S
O34 C37 1.320 . S
O35 Cd32 2.333 . S
O35 C37 1.214 . S
O36 Cd32 2.352 . S
O36 C39 1.258 . S
C37 O34 1.320 . S
C37 O35 1.214 . S
O38 Cd30 2.277 . S
O38 C33 1.209 . S
C39 O36 1.258 . S
C39 O41 1.282 . S
O40 Cd32 2.277 . S
O40 C33 1.226 . S
O41 Cd32 2.356 . S
O41 C39 1.282 . S
C42 O43 1.306 . S
C42 O45 1.160 . S
O43 C42 1.306 . S
O43 Cd44 2.228 . S
Cd44 O43 2.228 . S
Cd44 O48 2.273 . S
Cd44 O52 2.277 . S
O45 C42 1.160 . S
O45 Cd46 2.203 . S
Cd46 O45 2.203 . S
Cd46 O48 2.411 . S
Cd46 O49 2.333 . S
Cd46 O50 2.352 . S
Cd46 O54 2.277 . S
Cd46 O55 2.356 . S
C47 O52 1.209 . S
C47 O54 1.226 . S
O48 Cd44 2.273 . S
O48 Cd46 2.411 . S
O48 C51 1.320 . S
O49 Cd46 2.333 . S
O49 C51 1.214 . S
O50 Cd46 2.352 . S
O50 C53 1.258 . S
C51 O48 1.320 . S
C51 O49 1.214 . S
O52 Cd44 2.277 . S
O52 C47 1.209 . S
C53 O50 1.258 . S
C53 O55 1.282 . S
O54 Cd46 2.277 . S
O54 C47 1.226 . S
O55 Cd46 2.356 . S
O55 C53 1.282 . S
C56 O57 1.306 . S
C56 O59 1.160 . S
O57 C56 1.306 . S
O57 Cd58 2.228 . S
Cd58 O57 2.228 . S
Cd58 O62 2.273 . S
Cd58 O66 2.277 . S
O59 C56 1.160 . S
O59 Cd60 2.203 1_655 S
Cd60 O59 2.203 1_455 S
Cd60 O62 2.411 1_455 S
Cd60 O63 2.333 . S
Cd60 O64 2.352 . S
Cd60 O68 2.277 . S
Cd60 O69 2.356 . S
C61 O66 1.209 1_455 S
C61 O68 1.226 . S
O62 Cd58 2.273 . S
O62 Cd60 2.411 1_655 S
O62 C65 1.320 . S
O63 Cd60 2.333 . S
O63 C65 1.214 1_455 S
O64 Cd60 2.352 . S
O64 C67 1.258 . S
C65 O62 1.320 . S
C65 O63 1.214 1_655 S
O66 Cd58 2.277 . S
O66 C61 1.209 1_655 S
C67 O64 1.258 . S
C67 O69 1.282 . S
O68 Cd60 2.277 . S
O68 C61 1.226 . S
O69 Cd60 2.356 . S
O69 C67 1.282 . S
C70 O71 1.306 . S
C70 O73 1.160 . S
O71 C70 1.306 . S
O71 Cd72 2.228 . S
Cd72 O71 2.228 . S
Cd72 O76 2.273 . S
Cd72 O80 2.277 . S
O73 C70 1.160 . S
O73 Cd74 2.203 . S
Cd74 O73 2.203 . S
Cd74 O76 2.411 . S
Cd74 O77 2.333 . S
Cd74 O78 2.352 . S
Cd74 O82 2.277 . S
Cd74 O83 2.356 . S
C75 O80 1.209 . S
C75 O82 1.226 . S
O76 Cd72 2.273 . S
O76 Cd74 2.411 . S
O76 C79 1.320 . S
O77 Cd74 2.333 . S
O77 C79 1.214 . S
O78 Cd74 2.352 . S
O78 C81 1.258 . S
C79 O76 1.320 . S
C79 O77 1.214 . S
O80 Cd72 2.277 . S
O80 C75 1.209 . S
C81 O78 1.258 . S
C81 O83 1.282 . S
O82 Cd74 2.277 . S
O82 C75 1.226 . S
O83 Cd74 2.356 . S
O83 C81 1.282 . S
C84 O85 1.306 . S
C84 O87 1.160 . S
O85 C84 1.306 . S
O85 Cd86 2.228 . S
Cd86 O85 2.228 . S
Cd86 O90 2.273 . S
Cd86 O94 2.277 . S
O87 C84 1.160 . S
O87 Cd88 2.203 . S
Cd88 O87 2.203 . S
Cd88 O90 2.411 . S
Cd88 O91 2.333 . S
Cd88 O92 2.352 . S
Cd88 O96 2.277 . S
Cd88 O97 2.356 . S
C89 O94 1.209 . S
C89 O96 1.226 . S
O90 Cd86 2.273 . S
O90 Cd88 2.411 . S
O90 C93 1.320 . S
O91 Cd88 2.333 . S
O91 C93 1.214 . S
O92 Cd88 2.352 . S
O92 C95 1.258 . S
C93 O90 1.320 . S
C93 O91 1.214 . S
O94 Cd86 2.277 . S
O94 C89 1.209 . S
C95 O92 1.258 . S
C95 O97 1.282 . S
O96 Cd88 2.277 . S
O96 C89 1.226 . S
O97 Cd88 2.356 . S
O97 C95 1.282 . S
C98 O99 1.306 . S
C98 O101 1.160 . S
O99 C98 1.306 . S
O99 Cd100 2.228 1_455 S
Cd100 O99 2.228 1_655 S
Cd100 O104 2.273 . S
Cd100 O108 2.277 . S
O101 C98 1.160 . S
O101 Cd102 2.203 . S
Cd102 O101 2.203 . S
Cd102 O104 2.411 1_455 S
Cd102 O105 2.333 1_455 S
Cd102 O106 2.352 . S
Cd102 O110 2.277 1_455 S
Cd102 O111 2.356 . S
C103 O108 1.209 . S
C103 O110 1.226 . S
O104 Cd100 2.273 . S
O104 Cd102 2.411 1_655 S
O104 C107 1.320 . S
O105 Cd102 2.333 1_655 S
O105 C107 1.214 . S
O106 Cd102 2.352 . S
O106 C109 1.258 . S
C107 O104 1.320 . S
C107 O105 1.214 . S
O108 Cd100 2.277 . S
O108 C103 1.209 . S
C109 O106 1.258 . S
C109 O111 1.282 . S
O110 Cd102 2.277 1_655 S
O110 C103 1.226 . S
O111 Cd102 2.356 . S
O111 C109 1.282 . S
C112 O113 1.306 . S
C112 O115 1.160 . S
O113 C112 1.306 . S
O113 Cd114 2.228 . S
Cd114 O113 2.228 . S
Cd114 O118 2.273 . S
Cd114 O122 2.277 . S
O115 C112 1.160 . S
O115 Cd116 2.203 1_565 S
Cd116 O115 2.203 1_545 S
Cd116 O118 2.411 1_545 S
Cd116 O119 2.333 . S
Cd116 O120 2.352 . S
Cd116 O124 2.277 . S
Cd116 O125 2.356 . S
C117 O122 1.209 1_545 S
C117 O124 1.226 . S
O118 Cd114 2.273 . S
O118 Cd116 2.411 1_565 S
O118 C121 1.320 . S
O119 Cd116 2.333 . S
O119 C121 1.214 1_545 S
O120 Cd116 2.352 . S
O120 C123 1.258 . S
C121 O118 1.320 . S
C121 O119 1.214 1_565 S
O122 Cd114 2.277 . S
O122 C117 1.209 1_565 S
C123 O120 1.258 . S
C123 O125 1.282 . S
O124 Cd116 2.277 . S
O124 C117 1.226 . S
O125 Cd116 2.356 . S
O125 C123 1.282 . S
C126 O127 1.306 . S
C126 O129 1.160 . S
O127 C126 1.306 . S
O127 Cd128 2.228 . S
Cd128 O127 2.228 . S
Cd128 O132 2.273 . S
Cd128 O136 2.277 . S
O129 C126 1.160 . S
O129 Cd130 2.203 . S
Cd130 O129 2.203 . S
Cd130 O132 2.411 . S
Cd130 O133 2.333 . S
Cd130 O134 2.352 . S
Cd130 O138 2.277 . S
Cd130 O139 2.356 . S
C131 O136 1.209 . S
C131 O138 1.226 . S
O132 Cd128 2.273 . S
O132 Cd130 2.411 . S
O132 C135 1.320 . S
O133 Cd130 2.333 . S
O133 C135 1.214 . S
O134 Cd130 2.352 . S
O134 C137 1.258 . S
C135 O132 1.320 . S
C135 O133 1.214 . S
O136 Cd128 2.277 . S
O136 C131 1.209 . S
C137 O134 1.258 . S
C137 O139 1.282 . S
O138 Cd130 2.277 . S
O138 C131 1.226 . S
O139 Cd130 2.356 . S
O139 C137 1.282 . S
C140 O141 1.306 . S
C140 O143 1.160 . S
O141 C140 1.306 . S
O141 Cd142 2.228 . S
Cd142 O141 2.228 . S
Cd142 O146 2.273 . S
Cd142 O150 2.277 . S
O143 C140 1.160 . S
O143 Cd144 2.203 1_565 S
Cd144 O143 2.203 1_545 S
Cd144 O146 2.411 1_545 S
Cd144 O147 2.333 . S
Cd144 O148 2.352 . S
Cd144 O152 2.277 . S
Cd144 O153 2.356 . S
C145 O150 1.209 1_545 S
C145 O152 1.226 . S
O146 Cd142 2.273 . S
O146 Cd144 2.411 1_565 S
O146 C149 1.320 . S
O147 Cd144 2.333 . S
O147 C149 1.214 1_545 S
O148 Cd144 2.352 . S
O148 C151 1.258 . S
C149 O146 1.320 . S
C149 O147 1.214 1_565 S
O150 Cd142 2.277 . S
O150 C145 1.209 1_565 S
C151 O148 1.258 . S
C151 O153 1.282 . S
O152 Cd144 2.277 . S
O152 C145 1.226 . S
O153 Cd144 2.356 . S
O153 C151 1.282 . S
C154 O155 1.306 . S
C154 O157 1.160 . S
O155 C154 1.306 . S
O155 Cd156 2.228 1_554 S
Cd156 O155 2.228 1_556 S
Cd156 O160 2.273 . S
Cd156 O164 2.277 . S
O157 C154 1.160 . S
O157 Cd158 2.203 . S
Cd158 O157 2.203 . S
Cd158 O160 2.411 1_554 S
Cd158 O161 2.333 1_554 S
Cd158 O162 2.352 . S
Cd158 O166 2.277 1_554 S
Cd158 O167 2.356 . S
C159 O164 1.209 . S
C159 O166 1.226 . S
O160 Cd156 2.273 . S
O160 Cd158 2.411 1_556 S
O160 C163 1.320 . S
O161 Cd158 2.333 1_556 S
O161 C163 1.214 . S
O162 Cd158 2.352 . S
O162 C165 1.258 . S
C163 O160 1.320 . S
C163 O161 1.214 . S
O164 Cd156 2.277 . S
O164 C159 1.209 . S
C165 O162 1.258 . S
C165 O167 1.282 . S
O166 Cd158 2.277 1_556 S
O166 C159 1.226 . S
O167 Cd158 2.356 . S
O167 C165 1.282 . S
C168 O169 1.306 . S
C168 O171 1.160 . S
O169 C168 1.306 . S
O169 Cd170 2.228 . S
Cd170 O169 2.228 . S
Cd170 O174 2.273 . S
Cd170 O178 2.277 . S
O171 C168 1.160 . S
O171 Cd172 2.203 1_554 S
Cd172 O171 2.203 1_556 S
Cd172 O174 2.411 1_556 S
Cd172 O175 2.333 . S
Cd172 O176 2.351 1_556 S
Cd172 O180 2.277 . S
Cd172 O181 2.356 . S
C173 O178 1.209 1_556 S
C173 O180 1.226 . S
O174 Cd170 2.273 . S
O174 Cd172 2.411 1_554 S
O174 C177 1.320 . S
O175 Cd172 2.333 . S
O175 C177 1.214 1_556 S
O176 Cd172 2.351 1_554 S
O176 C179 1.257 1_554 S
C177 O174 1.320 . S
C177 O175 1.214 1_554 S
O178 Cd170 2.277 . S
O178 C173 1.209 1_554 S
C179 O176 1.257 1_556 S
C179 O181 1.282 . S
O180 Cd172 2.277 . S
O180 C173 1.226 . S
O181 Cd172 2.356 . S
O181 C179 1.282 . S
C182 O183 1.306 . S
C182 O185 1.160 . S
O183 C182 1.306 . S
O183 Cd184 2.228 . S
Cd184 O183 2.228 . S
Cd184 O188 2.273 . S
Cd184 O192 2.277 . S
O185 C182 1.160 . S
O185 Cd186 2.203 1_554 S
Cd186 O185 2.203 1_556 S
Cd186 O188 2.411 1_556 S
Cd186 O189 2.333 . S
Cd186 O190 2.352 . S
Cd186 O194 2.277 . S
Cd186 O195 2.356 . S
C187 O192 1.209 1_556 S
C187 O194 1.226 . S
O188 Cd184 2.273 . S
O188 Cd186 2.411 1_554 S
O188 C191 1.320 . S
O189 Cd186 2.333 . S
O189 C191 1.214 1_556 S
O190 Cd186 2.352 . S
O190 C193 1.258 . S
C191 O188 1.320 . S
C191 O189 1.214 1_554 S
O192 Cd184 2.277 . S
O192 C187 1.209 1_554 S
C193 O190 1.258 . S
C193 O195 1.282 . S
O194 Cd186 2.277 . S
O194 C187 1.226 . S
O195 Cd186 2.356 . S
O195 C193 1.282 . S
C196 O197 1.306 . S
C196 O199 1.160 . S
O197 C196 1.306 . S
O197 Cd198 2.228 . S
Cd198 O197 2.228 . S
Cd198 O202 2.273 . S
Cd198 O206 2.277 . S
O199 C196 1.160 . S
O199 Cd200 2.203 . S
Cd200 O199 2.203 . S
Cd200 O202 2.411 . S
Cd200 O203 2.333 . S
Cd200 O204 2.352 . S
Cd200 O208 2.277 . S
Cd200 O209 2.356 . S
C201 O206 1.209 . S
C201 O208 1.226 . S
O202 Cd198 2.273 . S
O202 Cd200 2.411 . S
O202 C205 1.320 . S
O203 Cd200 2.333 . S
O203 C205 1.214 . S
O204 Cd200 2.352 . S
O204 C207 1.258 . S
C205 O202 1.320 . S
C205 O203 1.214 . S
O206 Cd198 2.277 . S
O206 C201 1.209 . S
C207 O204 1.258 . S
C207 O209 1.282 . S
O208 Cd200 2.277 . S
O208 C201 1.226 . S
O209 Cd200 2.356 . S
O209 C207 1.282 . S
C210 O211 1.306 . S
C210 O213 1.160 . S
O211 C210 1.306 . S
O211 Cd212 2.228 . S
Cd212 O211 2.228 . S
Cd212 O216 2.273 . S
Cd212 O220 2.277 . S
O213 C210 1.160 . S
O213 Cd214 2.203 . S
Cd214 O213 2.203 . S
Cd214 O216 2.411 . S
Cd214 O217 2.333 . S
Cd214 O218 2.352 . S
Cd214 O222 2.277 . S
Cd214 O223 2.356 . S
C215 O220 1.209 . S
C215 O222 1.226 . S
O216 Cd212 2.273 . S
O216 Cd214 2.411 . S
O216 C219 1.320 . S
O217 Cd214 2.333 . S
O217 C219 1.214 . S
O218 Cd214 2.352 . S
O218 C221 1.258 . S
C219 O216 1.320 . S
C219 O217 1.214 . S
O220 Cd212 2.277 . S
O220 C215 1.209 . S
C221 O218 1.258 . S
C221 O223 1.282 . S
O222 Cd214 2.277 . S
O222 C215 1.226 . S
O223 Cd214 2.356 . S
O223 C221 1.282 . S
C224 O225 1.306 . S
C224 O227 1.160 . S
O225 C224 1.306 . S
O225 Cd226 2.228 1_545 S
Cd226 O225 2.228 1_565 S
Cd226 O230 2.273 . S
Cd226 O234 2.277 . S
O227 C224 1.160 . S
O227 Cd228 2.203 . S
Cd228 O227 2.203 . S
Cd228 O230 2.411 1_545 S
Cd228 O231 2.333 1_545 S
Cd228 O232 2.352 . S
Cd228 O236 2.277 1_545 S
Cd228 O237 2.356 . S
C229 O234 1.209 . S
C229 O236 1.226 . S
O230 Cd226 2.273 . S
O230 Cd228 2.411 1_565 S
O230 C233 1.320 . S
O231 Cd228 2.333 1_565 S
O231 C233 1.214 . S
O232 Cd228 2.352 . S
O232 C235 1.258 . S
C233 O230 1.320 . S
C233 O231 1.214 . S
O234 Cd226 2.277 . S
O234 C229 1.209 . S
C235 O232 1.258 . S
C235 O237 1.282 . S
O236 Cd228 2.277 1_565 S
O236 C229 1.226 . S
O237 Cd228 2.356 . S
O237 C235 1.282 . S
C238 O239 1.306 . S
C238 O241 1.160 . S
O239 C238 1.306 . S
O239 Cd240 2.228 . S
Cd240 O239 2.228 . S
Cd240 O244 2.273 . S
Cd240 O248 2.277 . S
O241 C238 1.160 . S
O241 Cd242 2.203 . S
Cd242 O241 2.203 . S
Cd242 O244 2.411 . S
Cd242 O245 2.333 . S
Cd242 O246 2.352 . S
Cd242 O250 2.277 . S
Cd242 O251 2.356 . S
C243 O248 1.209 . S
C243 O250 1.226 . S
O244 Cd240 2.273 . S
O244 Cd242 2.411 . S
O244 C247 1.320 . S
O245 Cd242 2.333 . S
O245 C247 1.214 . S
O246 Cd242 2.352 . S
O246 C249 1.258 . S
C247 O244 1.320 . S
C247 O245 1.214 . S
O248 Cd240 2.277 . S
O248 C243 1.209 . S
C249 O246 1.258 . S
C249 O251 1.282 . S
O250 Cd242 2.277 . S
O250 C243 1.226 . S
O251 Cd242 2.356 . S
O251 C249 1.282 . S
C252 O253 1.306 . S
C252 O255 1.160 . S
O253 C252 1.306 . S
O253 Cd254 2.228 . S
Cd254 O253 2.228 . S
Cd254 O258 2.273 . S
Cd254 O262 2.277 . S
O255 C252 1.160 . S
O255 Cd256 2.203 . S
Cd256 O255 2.203 . S
Cd256 O258 2.411 . S
Cd256 O259 2.333 . S
Cd256 O260 2.352 . S
Cd256 O264 2.277 . S
Cd256 O265 2.356 . S
C257 O262 1.209 . S
C257 O264 1.226 . S
O258 Cd254 2.273 . S
O258 Cd256 2.411 . S
O258 C261 1.320 . S
O259 Cd256 2.333 . S
O259 C261 1.214 . S
O260 Cd256 2.352 . S
O260 C263 1.258 . S
C261 O258 1.320 . S
C261 O259 1.214 . S
O262 Cd254 2.277 . S
O262 C257 1.209 . S
C263 O260 1.258 . S
C263 O265 1.282 . S
O264 Cd256 2.277 . S
O264 C257 1.226 . S
O265 Cd256 2.356 . S
O265 C263 1.282 . S
C266 O267 1.306 . S
C266 O269 1.160 . S
O267 C266 1.306 . S
O267 Cd268 2.228 1_545 S
Cd268 O267 2.228 1_565 S
Cd268 O272 2.273 . S
Cd268 O276 2.277 . S
O269 C266 1.160 . S
O269 Cd270 2.203 . S
Cd270 O269 2.203 . S
Cd270 O272 2.411 1_545 S
Cd270 O273 2.333 1_545 S
Cd270 O274 2.352 . S
Cd270 O278 2.277 1_545 S
Cd270 O279 2.356 . S
C271 O276 1.209 . S
C271 O278 1.226 . S
O272 Cd268 2.273 . S
O272 Cd270 2.411 1_565 S
O272 C275 1.320 . S
O273 Cd270 2.333 1_565 S
O273 C275 1.214 . S
O274 Cd270 2.352 . S
O274 C277 1.258 . S
C275 O272 1.320 . S
C275 O273 1.214 . S
O276 Cd268 2.277 . S
O276 C271 1.209 . S
C277 O274 1.258 . S
C277 O279 1.282 . S
O278 Cd270 2.277 1_565 S
O278 C271 1.226 . S
O279 Cd270 2.356 . S
O279 C277 1.282 . S
C280 O281 1.306 . S
C280 O283 1.160 . S
O281 C280 1.306 . S
O281 Cd282 2.228 1_554 S
Cd282 O281 2.228 1_556 S
Cd282 O286 2.273 . S
Cd282 O290 2.277 . S
O283 C280 1.160 . S
O283 Cd284 2.203 . S
Cd284 O283 2.203 . S
Cd284 O286 2.411 1_554 S
Cd284 O287 2.333 1_554 S
Cd284 O288 2.352 . S
Cd284 O292 2.277 1_554 S
Cd284 O293 2.356 . S
C285 O290 1.209 . S
C285 O292 1.226 . S
O286 Cd282 2.273 . S
O286 Cd284 2.411 1_556 S
O286 C289 1.320 . S
O287 Cd284 2.333 1_556 S
O287 C289 1.214 . S
O288 Cd284 2.352 . S
O288 C291 1.258 . S
C289 O286 1.320 . S
C289 O287 1.214 . S
O290 Cd282 2.277 . S
O290 C285 1.209 . S
C291 O288 1.258 . S
C291 O293 1.282 . S
O292 Cd284 2.277 1_556 S
O292 C285 1.226 . S
O293 Cd284 2.356 . S
O293 C291 1.282 . S
C294 O295 1.306 . S
C294 O297 1.160 . S
O295 C294 1.306 . S
O295 Cd296 2.228 . S
Cd296 O295 2.228 . S
Cd296 O300 2.273 . S
Cd296 O304 2.277 . S
O297 C294 1.160 . S
O297 Cd298 2.203 . S
Cd298 O297 2.203 . S
Cd298 O300 2.411 . S
Cd298 O301 2.333 . S
Cd298 O302 2.352 . S
Cd298 O306 2.277 . S
Cd298 O307 2.356 . S
C299 O304 1.209 . S
C299 O306 1.226 . S
O300 Cd296 2.273 . S
O300 Cd298 2.411 . S
O300 C303 1.320 . S
O301 Cd298 2.333 . S
O301 C303 1.214 . S
O302 Cd298 2.352 . S
O302 C305 1.258 . S
C303 O300 1.320 . S
C303 O301 1.214 . S
O304 Cd296 2.277 . S
O304 C299 1.209 . S
C305 O302 1.258 . S
C305 O307 1.282 . S
O306 Cd298 2.277 . S
O306 C299 1.226 . S
O307 Cd298 2.356 . S
O307 C305 1.282 . S
C308 O309 1.306 . S
C308 O311 1.160 . S
O309 C308 1.306 . S
O309 Cd310 2.228 . S
Cd310 O309 2.228 . S
Cd310 O314 2.273 . S
Cd310 O318 2.277 . S
O311 C308 1.160 . S
O311 Cd312 2.203 . S
Cd312 O311 2.203 . S
Cd312 O314 2.411 . S
Cd312 O315 2.333 . S
Cd312 O316 2.352 . S
Cd312 O320 2.277 . S
Cd312 O321 2.356 . S
C313 O318 1.209 . S
C313 O320 1.226 . S
O314 Cd310 2.273 . S
O314 Cd312 2.411 . S
O314 C317 1.320 . S
O315 Cd312 2.333 . S
O315 C317 1.214 . S
O316 Cd312 2.352 . S
O316 C319 1.258 . S
C317 O314 1.320 . S
C317 O315 1.214 . S
O318 Cd310 2.277 . S
O318 C313 1.209 . S
C319 O316 1.258 . S
C319 O321 1.282 . S
O320 Cd312 2.277 . S
O320 C313 1.226 . S
O321 Cd312 2.356 . S
O321 C319 1.282 . S
C322 O323 1.306 . S
C322 O325 1.160 . S
O323 C322 1.306 . S
O323 Cd324 2.228 . S
Cd324 O323 2.228 . S
Cd324 O328 2.273 . S
Cd324 O332 2.277 . S
O325 C322 1.160 . S
O325 Cd326 2.203 . S
Cd326 O325 2.203 . S
Cd326 O328 2.411 . S
Cd326 O329 2.333 . S
Cd326 O330 2.352 . S
Cd326 O334 2.277 . S
Cd326 O335 2.356 . S
C327 O332 1.209 . S
C327 O334 1.226 . S
O328 Cd324 2.273 . S
O328 Cd326 2.411 . S
O328 C331 1.320 . S
O329 Cd326 2.333 . S
O329 C331 1.214 . S
O330 Cd326 2.352 . S
O330 C333 1.258 . S
C331 O328 1.320 . S
C331 O329 1.214 . S
O332 Cd324 2.277 . S
O332 C327 1.209 . S
C333 O330 1.258 . S
C333 O335 1.282 . S
O334 Cd326 2.277 . S
O334 C327 1.226 . S
O335 Cd326 2.356 . S
O335 C333 1.282 . S
Fe336 O338 1.918 . S
Fe336 O341 1.997 . S
Fe336 O342 2.002 . S
Fe336 O347 1.976 . S
Fe336 O350 1.996 . S
Fe337 O338 1.918 . S
Fe337 O345 1.997 . S
Fe337 O348 1.996 . S
Fe337 O352 1.976 . S
Fe337 O355 2.002 . S
O338 Fe336 1.918 . S
O338 Fe337 1.918 . S
O338 Fe339 1.918 . S
Fe339 O338 1.918 . S
Fe339 O340 2.002 . S
Fe339 O349 1.976 . S
Fe339 O353 1.996 . S
Fe339 O356 1.997 . S
O340 Fe339 2.002 . S
O340 C357 1.295 . S
O341 Fe336 1.997 . S
O341 C357 1.235 . S
O342 Fe336 2.002 . S
O342 C343 1.300 . S
C343 O342 1.300 . S
C343 O345 1.236 . S
C344 O349 1.287 . S
C344 O350 1.255 . S
O345 Fe337 1.997 . S
O345 C343 1.236 . S
C346 O352 1.287 . S
C346 O353 1.255 . S
O347 Fe336 1.976 . S
O347 C354 1.287 . S
O348 Fe337 1.996 . S
O348 C354 1.255 . S
O349 Fe339 1.976 . S
O349 C344 1.287 . S
O350 Fe336 1.996 . S
O350 C344 1.255 . S
C351 O355 1.298 . S
C351 O356 1.236 . S
O352 Fe337 1.976 . S
O352 C346 1.287 . S
O353 Fe339 1.996 . S
O353 C346 1.255 . S
C354 O347 1.287 . S
C354 O348 1.255 . S
O355 Fe337 2.002 . S
O355 C351 1.298 . S
O356 Fe339 1.997 . S
O356 C351 1.236 . S
C357 O340 1.295 . S
C357 O341 1.235 . S
Fe358 O360 1.918 . S
Fe358 O363 1.997 . S
Fe358 O364 2.002 . S
Fe358 O369 1.976 . S
Fe358 O372 1.996 . S
Fe359 O360 1.918 . S
Fe359 O367 1.997 . S
Fe359 O370 1.996 . S
Fe359 O374 1.976 1_565 S
Fe359 O377 2.002 . S
O360 Fe358 1.918 . S
O360 Fe359 1.918 . S
O360 Fe361 1.918 . S
Fe361 O360 1.918 . S
Fe361 O362 2.002 . S
Fe361 O371 1.976 . S
Fe361 O375 1.996 . S
Fe361 O378 1.997 . S
O362 Fe361 2.002 . S
O362 C379 1.295 . S
O363 Fe358 1.997 . S
O363 C379 1.235 . S
O364 Fe358 2.002 . S
O364 C365 1.295 . S
C365 O364 1.295 . S
C365 O367 1.235 . S
C366 O371 1.287 . S
C366 O372 1.255 . S
O367 Fe359 1.997 . S
O367 C365 1.235 . S
C368 O374 1.287 . S
C368 O375 1.255 1_545 S
O369 Fe358 1.976 . S
O369 C376 1.287 . S
O370 Fe359 1.996 . S
O370 C376 1.255 . S
O371 Fe361 1.976 . S
O371 C366 1.287 . S
O372 Fe358 1.996 . S
O372 C366 1.255 . S
C373 O377 1.295 . S
C373 O378 1.235 . S
O374 Fe359 1.976 1_545 S
O374 C368 1.287 . S
O375 Fe361 1.996 . S
O375 C368 1.255 1_565 S
C376 O369 1.287 . S
C376 O370 1.255 . S
O377 Fe359 2.002 . S
O377 C373 1.295 . S
O378 Fe361 1.997 . S
O378 C373 1.235 . S
C379 O362 1.295 . S
C379 O363 1.235 . S
Fe380 O382 1.918 . S
Fe380 O385 1.997 . S
Fe380 O386 2.002 . S
Fe380 O391 1.976 1_565 S
Fe380 O394 1.996 . S
Fe381 O382 1.918 . S
Fe381 O389 1.997 . S
Fe381 O392 1.996 . S
Fe381 O396 1.976 . S
Fe381 O399 2.002 . S
O382 Fe380 1.918 . S
O382 Fe381 1.918 . S
O382 Fe383 1.918 . S
Fe383 O382 1.918 . S
Fe383 O384 2.002 . S
Fe383 O393 1.976 . S
Fe383 O397 1.996 . S
Fe383 O400 1.997 . S
O384 Fe383 2.002 . S
O384 C401 1.295 . S
O385 Fe380 1.997 . S
O385 C401 1.235 . S
O386 Fe380 2.002 . S
O386 C387 1.295 . S
C387 O386 1.295 . S
C387 O389 1.235 . S
C388 O393 1.287 . S
C388 O394 1.255 . S
O389 Fe381 1.997 . S
O389 C387 1.235 . S
C390 O396 1.287 . S
C390 O397 1.255 . S
O391 Fe380 1.976 1_545 S
O391 C398 1.287 . S
O392 Fe381 1.996 . S
O392 C398 1.255 1_565 S
O393 Fe383 1.976 . S
O393 C388 1.287 . S
O394 Fe380 1.996 . S
O394 C388 1.255 . S
C395 O399 1.295 . S
C395 O400 1.235 . S
O396 Fe381 1.976 . S
O396 C390 1.287 . S
O397 Fe383 1.996 . S
O397 C390 1.255 . S
C398 O391 1.287 . S
C398 O392 1.255 1_545 S
O399 Fe381 2.002 . S
O399 C395 1.295 . S
O400 Fe383 1.997 . S
O400 C395 1.235 . S
C401 O384 1.295 . S
C401 O385 1.235 . S
Fe402 O404 1.918 . S
Fe402 O407 1.997 . S
Fe402 O408 2.002 . S
Fe402 O413 1.976 . S
Fe402 O416 1.996 . S
Fe403 O404 1.918 . S
Fe403 O411 1.997 . S
Fe403 O414 1.996 . S
Fe403 O418 1.976 . S
Fe403 O421 2.002 . S
O404 Fe402 1.918 . S
O404 Fe403 1.918 . S
O404 Fe405 1.918 . S
Fe405 O404 1.918 . S
Fe405 O406 2.002 . S
Fe405 O415 1.976 1_556 S
Fe405 O419 1.996 . S
Fe405 O422 1.997 . S
O406 Fe405 2.002 . S
O406 C423 1.295 . S
O407 Fe402 1.997 . S
O407 C423 1.235 . S
O408 Fe402 2.002 . S
O408 C409 1.295 . S
C409 O408 1.295 . S
C409 O411 1.235 . S
C410 O415 1.287 . S
C410 O416 1.255 1_554 S
O411 Fe403 1.997 . S
O411 C409 1.235 . S
C412 O418 1.287 . S
C412 O419 1.255 . S
O413 Fe402 1.976 . S
O413 C420 1.287 . S
O414 Fe403 1.996 . S
O414 C420 1.255 . S
O415 Fe405 1.976 1_554 S
O415 C410 1.287 . S
O416 Fe402 1.996 . S
O416 C410 1.255 1_556 S
C417 O421 1.295 . S
C417 O422 1.235 . S
O418 Fe403 1.976 . S
O418 C412 1.287 . S
O419 Fe405 1.996 . S
O419 C412 1.255 . S
C420 O413 1.287 . S
C420 O414 1.255 . S
O421 Fe403 2.002 . S
O421 C417 1.295 . S
O422 Fe405 1.997 . S
O422 C417 1.235 . S
C423 O406 1.295 . S
C423 O407 1.235 . S
Fe424 O426 1.918 . S
Fe424 O429 1.997 . S
Fe424 O430 2.002 . S
Fe424 O435 1.976 . S
Fe424 O438 1.996 . S
Fe425 O426 1.918 . S
Fe425 O433 1.997 . S
Fe425 O436 1.996 . S
Fe425 O440 1.976 . S
Fe425 O443 2.002 . S
O426 Fe424 1.918 . S
O426 Fe425 1.918 . S
O426 Fe427 1.918 . S
Fe427 O426 1.918 . S
Fe427 O428 2.002 . S
Fe427 O437 1.976 1_556 S
Fe427 O441 1.996 . S
Fe427 O444 1.997 . S
O428 Fe427 2.002 . S
O428 C445 1.295 . S
O429 Fe424 1.997 . S
O429 C445 1.235 . S
O430 Fe424 2.002 . S
O430 C431 1.295 . S
C431 O430 1.295 . S
C431 O433 1.235 . S
C432 O437 1.287 . S
C432 O438 1.255 1_554 S
O433 Fe425 1.997 . S
O433 C431 1.235 . S
C434 O440 1.287 . S
C434 O441 1.255 . S
O435 Fe424 1.976 . S
O435 C442 1.287 . S
O436 Fe425 1.996 . S
O436 C442 1.255 . S
O437 Fe427 1.976 1_554 S
O437 C432 1.287 . S
O438 Fe424 1.996 . S
O438 C432 1.255 1_556 S
C439 O443 1.295 . S
C439 O444 1.235 . S
O440 Fe425 1.976 . S
O440 C434 1.287 . S
O441 Fe427 1.996 . S
O441 C434 1.255 . S
C442 O435 1.287 . S
C442 O436 1.255 . S
O443 Fe425 2.002 . S
O443 C439 1.295 . S
O444 Fe427 1.997 . S
O444 C439 1.235 . S
C445 O428 1.295 . S
C445 O429 1.235 . S
Fe446 O448 1.918 . S
Fe446 O451 1.997 . S
Fe446 O452 2.002 . S
Fe446 O457 1.976 . S
Fe446 O460 1.996 . S
Fe447 O448 1.918 . S
Fe447 O455 1.997 . S
Fe447 O458 1.996 . S
Fe447 O462 1.976 . S
Fe447 O465 2.002 . S
O448 Fe446 1.918 . S
O448 Fe447 1.918 . S
O448 Fe449 1.918 . S
Fe449 O448 1.918 . S
Fe449 O450 2.002 . S
Fe449 O459 1.976 . S
Fe449 O463 1.996 . S
Fe449 O466 1.997 1_655 S
O450 Fe449 2.002 . S
O450 C467 1.295 . S
O451 Fe446 1.997 . S
O451 C467 1.235 . S
O452 Fe446 2.002 . S
O452 C453 1.295 . S
C453 O452 1.295 . S
C453 O455 1.235 . S
C454 O459 1.287 . S
C454 O460 1.255 . S
O455 Fe447 1.997 . S
O455 C453 1.235 . S
C456 O462 1.287 . S
C456 O463 1.255 . S
O457 Fe446 1.976 . S
O457 C464 1.287 . S
O458 Fe447 1.996 . S
O458 C464 1.255 . S
O459 Fe449 1.976 . S
O459 C454 1.287 . S
O460 Fe446 1.996 . S
O460 C454 1.255 . S
C461 O465 1.295 1_455 S
C461 O466 1.235 . S
O462 Fe447 1.976 . S
O462 C456 1.287 . S
O463 Fe449 1.996 . S
O463 C456 1.255 . S
C464 O457 1.287 . S
C464 O458 1.255 . S
O465 Fe447 2.002 . S
O465 C461 1.295 1_655 S
O466 Fe449 1.997 1_455 S
O466 C461 1.235 . S
C467 O450 1.295 . S
C467 O451 1.235 . S
Fe468 O470 1.918 . S
Fe468 O473 1.997 . S
Fe468 O474 2.002 . S
Fe468 O479 1.976 . S
Fe468 O482 1.996 . S
Fe469 O470 1.918 . S
Fe469 O477 1.997 . S
Fe469 O480 1.996 . S
Fe469 O484 1.965 1_655 S
Fe469 O487 2.002 . S
O470 Fe468 1.918 . S
O470 Fe469 1.918 . S
O470 Fe471 1.918 . S
Fe471 O470 1.918 . S
Fe471 O472 2.002 . S
Fe471 O481 1.976 . S
Fe471 O485 1.996 . S
Fe471 O488 1.997 . S
O472 Fe471 2.002 . S
O472 C489 1.295 . S
O473 Fe468 1.997 . S
O473 C489 1.235 . S
O474 Fe468 2.002 . S
O474 C475 1.295 . S
C475 O474 1.295 . S
C475 O477 1.235 . S
C476 O481 1.287 . S
C476 O482 1.255 . S
O477 Fe469 1.997 . S
O477 C475 1.235 . S
C478 O484 1.288 . S
C478 O485 1.255 1_455 S
O479 Fe468 1.976 . S
O479 C486 1.287 . S
O480 Fe469 1.996 . S
O480 C486 1.255 . S
O481 Fe471 1.976 . S
O481 C476 1.287 . S
O482 Fe468 1.996 . S
O482 C476 1.255 . S
C483 O487 1.295 . S
C483 O488 1.235 . S
O484 Fe469 1.965 1_455 S
O484 C478 1.288 . S
O485 Fe471 1.996 . S
O485 C478 1.255 1_655 S
C486 O479 1.287 . S
C486 O480 1.255 . S
O487 Fe469 2.002 . S
O487 C483 1.295 . S
O488 Fe471 1.997 . S
O488 C483 1.235 . S
C489 O472 1.295 . S
C489 O473 1.235 . S
Fe490 O492 1.918 . S
Fe490 O495 1.997 1_655 S
Fe490 O496 2.002 . S
Fe490 O501 1.976 . S
Fe490 O504 1.996 . S
Fe491 O492 1.918 . S
Fe491 O499 1.983 1_556 S
Fe491 O502 1.996 . S
Fe491 O506 1.976 . S
Fe491 O509 2.002 . S
O492 Fe490 1.918 . S
O492 Fe491 1.918 . S
O492 Fe493 1.918 . S
Fe493 O492 1.918 . S
Fe493 O494 2.002 . S
Fe493 O503 1.976 . S
Fe493 O507 1.996 . S
Fe493 O510 2.009 . S
O494 Fe493 2.002 . S
O494 C511 1.295 1_655 S
O495 Fe490 1.997 1_455 S
O495 C511 1.235 . S
O496 Fe490 2.002 . S
O496 C497 1.295 1_556 S
C497 O496 1.295 1_554 S
C497 O499 1.237 . S
C498 O503 1.287 . S
C498 O504 1.255 . S
O499 Fe491 1.983 1_554 S
O499 C497 1.237 . S
C500 O506 1.287 . S
C500 O507 1.255 . S
O501 Fe490 1.976 . S
O501 C508 1.287 . S
O502 Fe491 1.996 . S
O502 C508 1.255 . S
O503 Fe493 1.976 . S
O503 C498 1.287 . S
O504 Fe490 1.996 . S
O504 C498 1.255 . S
C505 O509 1.295 1_545 S
C505 O510 1.234 1_545 S
O506 Fe491 1.976 . S
O506 C500 1.287 . S
O507 Fe493 1.996 . S
O507 C500 1.255 . S
C508 O501 1.287 . S
C508 O502 1.255 . S
O509 Fe491 2.002 . S
O509 C505 1.295 1_565 S
O510 Fe493 2.009 . S
O510 C505 1.234 1_565 S
C511 O494 1.295 1_455 S
C511 O495 1.235 . S
Fe512 O514 1.918 . S
Fe512 O517 1.997 . S
Fe512 O518 2.002 . S
Fe512 O523 1.976 . S
Fe512 O526 1.996 . S
Fe513 O514 1.918 . S
Fe513 O521 1.997 . S
Fe513 O524 1.996 . S
Fe513 O528 1.976 . S
Fe513 O531 2.002 . S
O514 Fe512 1.918 . S
O514 Fe513 1.918 . S
O514 Fe515 1.918 . S
Fe515 O514 1.918 . S
Fe515 O516 2.002 . S
Fe515 O525 1.972 1_655 S
Fe515 O529 1.996 . S
Fe515 O532 1.997 . S
O516 Fe515 2.002 . S
O516 C533 1.295 . S
O517 Fe512 1.997 . S
O517 C533 1.235 . S
O518 Fe512 2.002 . S
O518 C519 1.295 . S
C519 O518 1.295 . S
C519 O521 1.235 . S
C520 O525 1.287 . S
C520 O526 1.255 1_455 S
O521 Fe513 1.997 . S
O521 C519 1.235 . S
C522 O528 1.287 . S
C522 O529 1.255 . S
O523 Fe512 1.976 . S
O523 C530 1.287 . S
O524 Fe513 1.996 . S
O524 C530 1.264 . S
O525 Fe515 1.972 1_455 S
O525 C520 1.287 . S
O526 Fe512 1.996 . S
O526 C520 1.255 1_655 S
C527 O531 1.295 . S
C527 O532 1.235 . S
O528 Fe513 1.976 . S
O528 C522 1.287 . S
O529 Fe515 1.996 . S
O529 C522 1.255 . S
C530 O523 1.287 . S
C530 O524 1.264 . S
O531 Fe513 2.002 . S
O531 C527 1.295 . S
O532 Fe515 1.997 . S
O532 C527 1.235 . S
C533 O516 1.295 . S
C533 O517 1.235 . S
Fe534 O536 1.918 . S
Fe534 O539 1.997 . S
Fe534 O540 2.002 . S
Fe534 O545 1.976 . S
Fe534 O548 1.996 . S
Fe535 O536 1.918 . S
Fe535 O543 1.997 . S
Fe535 O546 1.996 . S
Fe535 O550 1.976 . S
Fe535 O553 2.002 . S
O536 Fe534 1.918 . S
O536 Fe535 1.918 . S
O536 Fe537 1.918 . S
Fe537 O536 1.918 . S
Fe537 O538 2.002 . S
Fe537 O547 1.976 . S
Fe537 O551 1.996 . S
Fe537 O554 1.997 . S
O538 Fe537 2.002 . S
O538 C555 1.295 . S
O539 Fe534 1.997 . S
O539 C555 1.235 . S
O540 Fe534 2.002 . S
O540 C541 1.295 . S
C541 O540 1.295 . S
C541 O543 1.235 . S
C542 O547 1.287 . S
C542 O548 1.255 . S
O543 Fe535 1.997 . S
O543 C541 1.235 . S
C544 O550 1.287 . S
C544 O551 1.255 . S
O545 Fe534 1.976 . S
O545 C552 1.287 . S
O546 Fe535 1.996 . S
O546 C552 1.255 . S
O547 Fe537 1.976 . S
O547 C542 1.287 . S
O548 Fe534 1.996 . S
O548 C542 1.255 . S
C549 O553 1.295 . S
C549 O554 1.235 . S
O550 Fe535 1.976 . S
O550 C544 1.287 . S
O551 Fe537 1.996 . S
O551 C544 1.255 . S
C552 O545 1.287 . S
C552 O546 1.255 . S
O553 Fe535 2.002 . S
O553 C549 1.295 . S
O554 Fe537 1.997 . S
O554 C549 1.235 . S
C555 O538 1.295 . S
C555 O539 1.235 . S
Fe556 O558 1.918 . S
Fe556 O561 1.997 . S
Fe556 O562 2.002 . S
Fe556 O567 1.976 . S
Fe556 O570 1.996 . S
Fe557 O558 1.918 . S
Fe557 O565 1.997 . S
Fe557 O568 1.996 . S
Fe557 O572 1.976 . S
Fe557 O575 2.002 . S
O558 Fe556 1.918 . S
O558 Fe557 1.918 . S
O558 Fe559 1.918 . S
Fe559 O558 1.918 . S
Fe559 O560 2.002 . S
Fe559 O569 1.976 . S
Fe559 O573 1.996 . S
Fe559 O576 1.997 1_565 S
O560 Fe559 2.002 . S
O560 C577 1.295 . S
O561 Fe556 1.997 . S
O561 C577 1.235 . S
O562 Fe556 2.002 . S
O562 C563 1.295 . S
C563 O562 1.295 . S
C563 O565 1.235 . S
C564 O569 1.287 . S
C564 O570 1.255 . S
O565 Fe557 1.997 . S
O565 C563 1.235 . S
C566 O572 1.287 . S
C566 O573 1.255 . S
O567 Fe556 1.976 . S
O567 C574 1.287 . S
O568 Fe557 1.996 . S
O568 C574 1.255 . S
O569 Fe559 1.976 . S
O569 C564 1.287 . S
O570 Fe556 1.996 . S
O570 C564 1.255 . S
C571 O575 1.295 1_545 S
C571 O576 1.235 . S
O572 Fe557 1.976 . S
O572 C566 1.287 . S
O573 Fe559 1.996 . S
O573 C566 1.255 . S
C574 O567 1.287 . S
C574 O568 1.255 . S
O575 Fe557 2.002 . S
O575 C571 1.295 1_565 S
O576 Fe559 1.997 1_545 S
O576 C571 1.235 . S
C577 O560 1.295 . S
C577 O561 1.235 . S
Fe578 O580 1.918 . S
Fe578 O583 1.997 . S
Fe578 O584 2.002 . S
Fe578 O589 1.976 . S
Fe578 O592 1.996 . S
Fe579 O580 1.918 . S
Fe579 O587 1.997 . S
Fe579 O590 1.996 . S
Fe579 O594 1.976 . S
Fe579 O597 2.002 . S
O580 Fe578 1.918 . S
O580 Fe579 1.918 . S
O580 Fe581 1.918 . S
Fe581 O580 1.918 . S
Fe581 O582 2.002 . S
Fe581 O591 1.976 . S
Fe581 O595 1.996 . S
Fe581 O598 1.997 . S
O582 Fe581 2.002 . S
O582 C599 1.295 . S
O583 Fe578 1.997 . S
O583 C599 1.235 . S
O584 Fe578 2.002 . S
O584 C585 1.295 1_554 S
C585 O584 1.295 1_556 S
C585 O587 1.235 1_556 S
C586 O591 1.287 . S
C586 O592 1.255 . S
O587 Fe579 1.997 . S
O587 C585 1.235 1_554 S
C588 O594 1.287 . S
C588 O595 1.255 . S
O589 Fe578 1.976 . S
O589 C596 1.287 . S
O590 Fe579 1.996 . S
O590 C596 1.255 . S
O591 Fe581 1.976 . S
O591 C586 1.287 . S
O592 Fe578 1.996 . S
O592 C586 1.255 . S
C593 O597 1.295 . S
C593 O598 1.235 . S
O594 Fe579 1.976 . S
O594 C588 1.287 . S
O595 Fe581 1.996 . S
O595 C588 1.255 . S
C596 O589 1.287 . S
C596 O590 1.255 . S
O597 Fe579 2.002 . S
O597 C593 1.295 . S
O598 Fe581 1.997 . S
O598 C593 1.235 . S
C599 O582 1.295 . S
C599 O583 1.235 . S
Fe600 O602 1.918 . S
Fe600 O605 1.997 . S
Fe600 O606 2.002 . S
Fe600 O611 1.976 . S
Fe600 O614 1.996 . S
Fe601 O602 1.918 . S
Fe601 O609 1.997 . S
Fe601 O612 1.996 . S
Fe601 O616 1.976 1_556 S
Fe601 O619 2.002 . S
O602 Fe600 1.918 . S
O602 Fe601 1.918 . S
O602 Fe603 1.918 . S
Fe603 O602 1.918 . S
Fe603 O604 2.002 . S
Fe603 O613 1.976 . S
Fe603 O617 1.996 . S
Fe603 O620 1.997 . S
O604 Fe603 2.002 . S
O604 C621 1.295 . S
O605 Fe600 1.997 . S
O605 C621 1.235 . S
O606 Fe600 2.002 . S
O606 C607 1.295 . S
C607 O606 1.295 . S
C607 O609 1.235 . S
C608 O613 1.287 1_655 S
C608 O614 1.255 1_655 S
O609 Fe601 1.997 . S
O609 C607 1.235 . S
C610 O616 1.287 . S
C610 O617 1.255 1_554 S
O611 Fe600 1.976 . S
O611 C618 1.287 . S
O612 Fe601 1.996 . S
O612 C618 1.255 . S
O613 Fe603 1.976 . S
O613 C608 1.287 1_455 S
O614 Fe600 1.996 . S
O614 C608 1.255 1_455 S
C615 O619 1.295 . S
C615 O620 1.235 . S
O616 Fe601 1.976 1_554 S
O616 C610 1.287 . S
O617 Fe603 1.996 . S
O617 C610 1.255 1_556 S
C618 O611 1.287 . S
C618 O612 1.255 . S
O619 Fe601 2.002 . S
O619 C615 1.295 . S
O620 Fe603 1.997 . S
O620 C615 1.235 . S
C621 O604 1.295 . S
C621 O605 1.235 . S
Fe622 O624 1.918 . S
Fe622 O627 1.997 . S
Fe622 O628 2.002 . S
Fe622 O633 1.976 . S
Fe622 O636 1.996 . S
Fe623 O624 1.918 . S
Fe623 O631 1.997 . S
Fe623 O634 1.996 . S
Fe623 O638 1.976 . S
Fe623 O641 2.002 . S
O624 Fe622 1.918 . S
O624 Fe623 1.918 . S
O624 Fe625 1.918 . S
Fe625 O624 1.918 . S
Fe625 O626 2.002 . S
Fe625 O635 1.976 . S
Fe625 O639 1.996 . S
Fe625 O642 1.997 . S
O626 Fe625 2.002 . S
O626 C643 1.295 . S
O627 Fe622 1.997 . S
O627 C643 1.235 . S
O628 Fe622 2.002 . S
O628 C629 1.295 . S
C629 O628 1.295 . S
C629 O631 1.235 . S
C630 O635 1.287 . S
C630 O636 1.255 . S
O631 Fe623 1.997 . S
O631 C629 1.235 . S
C632 O638 1.286 1_655 S
C632 O639 1.249 1_655 S
O633 Fe622 1.976 . S
O633 C640 1.287 . S
O634 Fe623 1.996 . S
O634 C640 1.255 . S
O635 Fe625 1.976 . S
O635 C630 1.287 . S
O636 Fe622 1.996 . S
O636 C630 1.255 . S
C637 O641 1.295 . S
C637 O642 1.235 . S
O638 Fe623 1.976 . S
O638 C632 1.286 1_455 S
O639 Fe625 1.996 . S
O639 C632 1.249 1_455 S
C640 O633 1.287 . S
C640 O634 1.255 . S
O641 Fe623 2.002 . S
O641 C637 1.295 . S
O642 Fe625 1.997 . S
O642 C637 1.235 . S
C643 O626 1.295 . S
C643 O627 1.235 . S
Fe644 O646 1.918 . S
Fe644 O649 1.997 . S
Fe644 O650 2.002 . S
Fe644 O655 1.976 . S
Fe644 O658 1.996 . S
Fe645 O646 1.918 . S
Fe645 O653 1.997 . S
Fe645 O656 1.996 . S
Fe645 O660 1.976 . S
Fe645 O663 2.002 . S
O646 Fe644 1.918 . S
O646 Fe645 1.918 . S
O646 Fe647 1.918 . S
Fe647 O646 1.918 . S
Fe647 O648 2.002 . S
Fe647 O657 1.976 . S
Fe647 O661 1.996 . S
Fe647 O664 1.997 . S
O648 Fe647 2.002 . S
O648 C665 1.295 . S
O649 Fe644 1.997 . S
O649 C665 1.235 . S
O650 Fe644 2.002 . S
O650 C651 1.295 . S
C651 O650 1.295 . S
C651 O653 1.235 . S
C652 O657 1.287 . S
C652 O658 1.255 . S
O653 Fe645 1.997 . S
O653 C651 1.235 . S
C654 O660 1.287 . S
C654 O661 1.255 . S
O655 Fe644 1.976 . S
O655 C662 1.287 . S
O656 Fe645 1.996 . S
O656 C662 1.255 . S
O657 Fe647 1.976 . S
O657 C652 1.287 . S
O658 Fe644 1.996 . S
O658 C652 1.255 . S
C659 O663 1.295 . S
C659 O664 1.235 . S
O660 Fe645 1.976 . S
O660 C654 1.287 . S
O661 Fe647 1.996 . S
O661 C654 1.255 . S
C662 O655 1.287 . S
C662 O656 1.255 . S
O663 Fe645 2.002 . S
O663 C659 1.295 . S
O664 Fe647 1.997 . S
O664 C659 1.235 . S
C665 O648 1.295 . S
C665 O649 1.235 . S
Fe666 O668 1.918 . S
Fe666 O671 1.997 . S
Fe666 O672 2.002 . S
Fe666 O677 1.976 . S
Fe666 O680 1.996 . S
Fe667 O668 1.918 . S
Fe667 O675 1.997 . S
Fe667 O678 1.996 . S
Fe667 O682 1.976 . S
Fe667 O685 2.002 . S
O668 Fe666 1.918 . S
O668 Fe667 1.918 . S
O668 Fe669 1.918 . S
Fe669 O668 1.918 . S
Fe669 O670 2.002 . S
Fe669 O679 1.976 . S
Fe669 O683 1.996 . S
Fe669 O686 1.997 . S
O670 Fe669 2.002 . S
O670 C687 1.295 . S
O671 Fe666 1.997 . S
O671 C687 1.235 . S
O672 Fe666 2.002 . S
O672 C673 1.295 . S
C673 O672 1.295 . S
C673 O675 1.235 . S
C674 O679 1.287 . S
C674 O680 1.255 . S
O675 Fe667 1.997 . S
O675 C673 1.235 . S
C676 O682 1.287 . S
C676 O683 1.255 . S
O677 Fe666 1.976 . S
O677 C684 1.287 . S
O678 Fe667 1.996 . S
O678 C684 1.255 . S
O679 Fe669 1.976 . S
O679 C674 1.287 . S
O680 Fe666 1.996 . S
O680 C674 1.255 . S
C681 O685 1.295 . S
C681 O686 1.235 . S
O682 Fe667 1.976 . S
O682 C676 1.287 . S
O683 Fe669 1.996 . S
O683 C676 1.255 . S
C684 O677 1.287 . S
C684 O678 1.255 . S
O685 Fe667 2.002 . S
O685 C681 1.295 . S
O686 Fe669 1.997 . S
O686 C681 1.235 . S
C687 O670 1.295 . S
C687 O671 1.235 . S
C354 C11 1.194 . S
C14 C366 1.295 . S
C401 C37 1.501 . S
C410 C47 1.452 . S
C365 C61 1.426 . S
C79 C390 1.518 . S
C409 C84 1.252 . S
C109 C351 1.207 1_556 S
C123 C344 1.297 . S
C368 C131 1.376 . S
C387 C140 1.398 . S
C412 C163 1.442 1_545 S
C373 C121 1.311 . S
C398 C126 1.384 . S
C145 C417 1.360 . S
C357 C165 1.232 1_545 S
C168 C346 1.179 . S
C193 C445 1.248 . S
C461 C205 1.465 . S
C475 C215 1.453 . S
C224 C343 1.194 1_655 S
C247 C395 1.458 . S
C478 C207 1.260 . S
C442 C257 1.532 . S
C498 C23 1.316 . S
C522 C0 1.119 . S
C53 C555 1.065 . S
C33 C563 1.370 1_556 S
C103 C533 1.356 . S
C95 C544 1.066 . S
C564 C70 1.145 . S
C65 C497 1.355 . S
C271 C500 1.354 . S
C530 C219 1.261 1_545 S
C541 C235 1.119 . S
C571 C182 1.144 . S
C519 C266 1.124 . S
C552 C221 1.064 1_545 S
C566 C233 1.257 . S
C187 C505 1.386 . S
C508 C289 1.197 . S
C154 C596 1.253 . S
C608 C299 1.215 . S
C137 C629 1.218 . S
C511 C149 1.275 . S
C549 C313 1.175 . S
C632 C294 1.199 . S
C333 C599 1.190 . S
C39 C654 1.210 . S
C42 C432 1.268 . S
C456 C9 1.496 . S
C19 C486 1.439 . S
C89 C431 1.400 . S
C107 C467 1.504 1_556 S
C483 C56 1.272 . S
C665 C81 1.184 . S
C662 C305 1.261 . S
C434 C285 1.409 . S
C464 C322 1.438 . S
C317 C476 1.416 . S
C439 C303 1.345 . S
C280 C453 1.355 . S
C489 C327 1.297 . S
C319 C651 1.259 . S
C652 C210 1.191 . S
C249 C379 1.251 . S
C388 C275 1.428 . S
C173 C423 1.472 . S
C659 C252 1.177 . S
C454 C191 1.465 . S
C420 C277 1.276 . S
C376 C229 1.497 1_455 S
C51 C673 1.347 . S
C28 C585 1.138 . S
C25 C621 1.077 . S
C640 C5 1.298 . S
C586 C75 1.306 . S
C67 C610 1.072 . S
C637 C98 1.165 . S
C93 C674 1.339 . S
C681 C201 1.427 . S
C177 C593 1.279 . S
C263 C607 1.105 . S
C630 C238 1.118 . S
C588 C196 1.127 . S
C179 C618 1.067 . S
C643 C261 1.277 . S
C676 C243 1.396 . S
C687 C135 1.218 . S
C527 C308 1.281 . S
C117 C542 1.201 . S
C291 C574 1.217 . S
C684 C331 1.263 . S
C615 C159 1.171 . S
C577 C112 1.220 . S
C520 C151 1.185 . S
