# Generated by pormake.
# Topology myd, (4,6)-cn, num edge types: 1
# Building blocks:
#     Node 0, Type 0, BuildingBlock: KOZSID_clean_sbu_0, # of connection points: 4
#     Node 1, Type 0, BuildingBlock: KOZSID_clean_sbu_0, # of connection points: 4
#     Node 2, Type 0, BuildingBlock: KOZSID_clean_sbu_0, # of connection points: 4
#     Node 3, Type 0, BuildingBlock: KOZSID_clean_sbu_0, # of connection points: 4
#     Node 4, Type 0, BuildingBlock: KOZSID_clean_sbu_0, # of connection points: 4
#     Node 5, Type 0, BuildingBlock: KOZSID_clean_sbu_0, # of connection points: 4
#     Node 6, Type 0, BuildingBlock: KOZSID_clean_sbu_0, # of connection points: 4
#     Node 7, Type 0, BuildingBlock: KOZSID_clean_sbu_0, # of connection points: 4
#     Node 8, Type 0, BuildingBlock: KOZSID_clean_sbu_0, # of connection points: 4
#     Node 9, Type 0, BuildingBlock: KOZSID_clean_sbu_0, # of connection points: 4
#     Node 10, Type 0, BuildingBlock: KOZSID_clean_sbu_0, # of connection points: 4
#     Node 11, Type 0, BuildingBlock: KOZSID_clean_sbu_0, # of connection points: 4
#     Node 12, Type 1, BuildingBlock: FUNLAD_clean_sbu_0, # of connection points: 6
#     Node 13, Type 1, BuildingBlock: FUNLAD_clean_sbu_0, # of connection points: 6
#     Node 14, Type 1, BuildingBlock: FUNLAD_clean_sbu_0, # of connection points: 6
#     Node 15, Type 1, BuildingBlock: FUNLAD_clean_sbu_0, # of connection points: 6
#     Node 16, Type 1, BuildingBlock: FUNLAD_clean_sbu_0, # of connection points: 6
#     Node 17, Type 1, BuildingBlock: FUNLAD_clean_sbu_0, # of connection points: 6
#     Node 18, Type 1, BuildingBlock: FUNLAD_clean_sbu_0, # of connection points: 6
#     Node 19, Type 1, BuildingBlock: FUNLAD_clean_sbu_0, # of connection points: 6
#     Edge 20, Type (0, 1), BuildingBlock: TEMPAE_clean_linker_10, # of connection points: 2
#     Edge 21, Type (0, 1), BuildingBlock: TEMPAE_clean_linker_10, # of connection points: 2
#     Edge 22, Type (0, 1), BuildingBlock: TEMPAE_clean_linker_10, # of connection points: 2
#     Edge 23, Type (0, 1), BuildingBlock: TEMPAE_clean_linker_10, # of connection points: 2
#     Edge 24, Type (0, 1), BuildingBlock: TEMPAE_clean_linker_10, # of connection points: 2
#     Edge 25, Type (0, 1), BuildingBlock: TEMPAE_clean_linker_10, # of connection points: 2
#     Edge 26, Type (0, 1), BuildingBlock: TEMPAE_clean_linker_10, # of connection points: 2
#     Edge 27, Type (0, 1), BuildingBlock: TEMPAE_clean_linker_10, # of connection points: 2
#     Edge 28, Type (0, 1), BuildingBlock: TEMPAE_clean_linker_10, # of connection points: 2
#     Edge 29, Type (0, 1), BuildingBlock: TEMPAE_clean_linker_10, # of connection points: 2
#     Edge 30, Type (0, 1), BuildingBlock: TEMPAE_clean_linker_10, # of connection points: 2
#     Edge 31, Type (0, 1), BuildingBlock: TEMPAE_clean_linker_10, # of connection points: 2
#     Edge 32, Type (0, 1), BuildingBlock: TEMPAE_clean_linker_10, # of connection points: 2
#     Edge 33, Type (0, 1), BuildingBlock: TEMPAE_clean_linker_10, # of connection points: 2
#     Edge 34, Type (0, 1), BuildingBlock: TEMPAE_clean_linker_10, # of connection points: 2
#     Edge 35, Type (0, 1), BuildingBlock: TEMPAE_clean_linker_10, # of connection points: 2
#     Edge 36, Type (0, 1), BuildingBlock: TEMPAE_clean_linker_10, # of connection points: 2
#     Edge 37, Type (0, 1), BuildingBlock: TEMPAE_clean_linker_10, # of connection points: 2
#     Edge 38, Type (0, 1), BuildingBlock: TEMPAE_clean_linker_10, # of connection points: 2
#     Edge 39, Type (0, 1), BuildingBlock: TEMPAE_clean_linker_10, # of connection points: 2
#     Edge 40, Type (0, 1), BuildingBlock: TEMPAE_clean_linker_10, # of connection points: 2
#     Edge 41, Type (0, 1), BuildingBlock: TEMPAE_clean_linker_10, # of connection points: 2
#     Edge 42, Type (0, 1), BuildingBlock: TEMPAE_clean_linker_10, # of connection points: 2
#     Edge 43, Type (0, 1), BuildingBlock: TEMPAE_clean_linker_10, # of connection points: 2
#     Edge 44, Type (0, 1), BuildingBlock: TEMPAE_clean_linker_10, # of connection points: 2
#     Edge 45, Type (0, 1), BuildingBlock: TEMPAE_clean_linker_10, # of connection points: 2
#     Edge 46, Type (0, 1), BuildingBlock: TEMPAE_clean_linker_10, # of connection points: 2
#     Edge 47, Type (0, 1), BuildingBlock: TEMPAE_clean_linker_10, # of connection points: 2
#     Edge 48, Type (0, 1), BuildingBlock: TEMPAE_clean_linker_10, # of connection points: 2
#     Edge 49, Type (0, 1), BuildingBlock: TEMPAE_clean_linker_10, # of connection points: 2
#     Edge 50, Type (0, 1), BuildingBlock: TEMPAE_clean_linker_10, # of connection points: 2
#     Edge 51, Type (0, 1), BuildingBlock: TEMPAE_clean_linker_10, # of connection points: 2
#     Edge 52, Type (0, 1), BuildingBlock: TEMPAE_clean_linker_10, # of connection points: 2
#     Edge 53, Type (0, 1), BuildingBlock: TEMPAE_clean_linker_10, # of connection points: 2
#     Edge 54, Type (0, 1), BuildingBlock: TEMPAE_clean_linker_10, # of connection points: 2
#     Edge 55, Type (0, 1), BuildingBlock: TEMPAE_clean_linker_10, # of connection points: 2
#     Edge 56, Type (0, 1), BuildingBlock: TEMPAE_clean_linker_10, # of connection points: 2
#     Edge 57, Type (0, 1), BuildingBlock: TEMPAE_clean_linker_10, # of connection points: 2
#     Edge 58, Type (0, 1), BuildingBlock: TEMPAE_clean_linker_10, # of connection points: 2
#     Edge 59, Type (0, 1), BuildingBlock: TEMPAE_clean_linker_10, # of connection points: 2
#     Edge 60, Type (0, 1), BuildingBlock: TEMPAE_clean_linker_10, # of connection points: 2
#     Edge 61, Type (0, 1), BuildingBlock: TEMPAE_clean_linker_10, # of connection points: 2
#     Edge 62, Type (0, 1), BuildingBlock: TEMPAE_clean_linker_10, # of connection points: 2
#     Edge 63, Type (0, 1), BuildingBlock: TEMPAE_clean_linker_10, # of connection points: 2
#     Edge 64, Type (0, 1), BuildingBlock: TEMPAE_clean_linker_10, # of connection points: 2
#     Edge 65, Type (0, 1), BuildingBlock: TEMPAE_clean_linker_10, # of connection points: 2
#     Edge 66, Type (0, 1), BuildingBlock: TEMPAE_clean_linker_10, # of connection points: 2
#     Edge 67, Type (0, 1), BuildingBlock: TEMPAE_clean_linker_10, # of connection points: 2
# Relax obj value: 0.245
# Max RMSD: 0.227
# Mean RMSD: 0.151
data_MOF--net-myd--node1-KOZSID_clean_sbu_0--node2-FUNLAD_clean_sbu_0--edge1-TEMPAE_clean_linker_10
_symmetry_space_group_name_H-M    P1
_symmetry_Int_Tables_number       1
_symmetry_cell_setting            triclinic
loop_
_symmetry_equiv_pos_as_xyz
'x, y, z'
_cell_length_a     51.529006
_cell_length_b     51.54195
_cell_length_c     56.162083
_cell_angle_alpha  86.664985
_cell_angle_beta   84.404813
_cell_angle_gamma 90.775813
loop_
_atom_site_label
_atom_site_type_symbol
_atom_site_fract_x
_atom_site_fract_y
_atom_site_fract_z
_atom_type_partial_charge
C0 C 0.98698 0.29417 0.37718 0.0
C1 C 0.96169 0.30035 0.38541 0.0
C2 C 0.94564 0.28232 0.37707 0.0
C3 C 0.96197 0.26638 0.3641 0.0
N4 N 0.98749 0.27253 0.3644 0.0
Co5 Co 0.01753 0.25791 0.34434 0.0
N6 N 0.99383 0.23755 0.32594 0.0
C7 C 0.96788 0.23375 0.33146 0.0
C8 C 0.95686 0.21725 0.31684 0.0
C9 C 0.97702 0.20997 0.30117 0.0
C10 C 0.99929 0.22268 0.30698 0.0
N11 N 0.04771 0.24514 0.32326 0.0
C12 C 0.04815 0.23117 0.30348 0.0
C13 C 0.07351 0.22835 0.29317 0.0
C14 C 0.08958 0.24036 0.30727 0.0
C15 C 0.07324 0.25019 0.32511 0.0
N16 N 0.04101 0.27768 0.36339 0.0
C17 C 0.06715 0.2758 0.36295 0.0
C18 C 0.07799 0.29342 0.37674 0.0
C19 C 0.05764 0.30782 0.38586 0.0
C20 C 0.03551 0.29817 0.37704 0.0
N21 N 0.01886 0.22624 0.36685 0.0
C22 C 0.0171 0.17353 0.38492 0.0
C23 C 0.0405 0.1856 0.37506 0.0
C24 C 0.04105 0.21177 0.36679 0.0
C25 C 0.9953 0.18937 0.38815 0.0
C26 C 0.99671 0.2155 0.37941 0.0
N27 N 0.01617 0.2883 0.32158 0.0
C28 C 0.038 0.32335 0.29676 0.0
C29 C 0.0153 0.32846 0.28568 0.0
C30 C 0.99272 0.31389 0.29379 0.0
C31 C 0.99354 0.29413 0.31175 0.0
C32 C 0.03803 0.30328 0.31454 0.0
H33 H 0.97585 0.28328 0.31708 0.0
H34 H 0.05604 0.2998 0.32207 0.0
H35 H 0.05961 0.2194 0.35959 0.0
H36 H 0.97937 0.2263 0.38253 0.0
C37 C 0.9541 0.24773 0.34903 0.0
C38 C 0.00996 0.31013 0.38045 0.0
C39 C 0.02522 0.21952 0.29438 0.0
C40 C 0.08112 0.26334 0.34443 0.0
H41 H 0.95538 0.31675 0.39551 0.0
H42 H 0.92453 0.28194 0.37893 0.0
H43 H 0.93654 0.21148 0.31731 0.0
H44 H 0.97545 0.19669 0.28713 0.0
H45 H 0.07986 0.21843 0.27723 0.0
H46 H 0.11067 0.24164 0.30486 0.0
H47 H 0.09852 0.29712 0.37806 0.0
H48 H 0.05906 0.32448 0.39657 0.0
H49 H 0.0583 0.17475 0.37259 0.0
H50 H 0.977 0.18159 0.39701 0.0
H51 H 0.05582 0.33448 0.29148 0.0
H52 H 0.97468 0.31694 0.2857 0.0
C53 C 0.98518 0.70611 0.12302 0.0
C54 C 0.96275 0.70123 0.11205 0.0
C55 C 0.94364 0.71586 0.12275 0.0
C56 C 0.95549 0.72888 0.13945 0.0
N57 N 0.98118 0.724 0.1397 0.0
Co58 Co 0.00551 0.73793 0.16184 0.0
N59 N 0.97702 0.75851 0.17827 0.0
C60 C 0.95207 0.76022 0.17287 0.0
C61 C 0.93768 0.77779 0.18563 0.0
C62 C 0.95458 0.78836 0.19976 0.0
C63 C 0.97832 0.7763 0.19491 0.0
N64 N 0.02959 0.75075 0.18455 0.0
C65 C 0.02536 0.76789 0.20174 0.0
C66 C 0.04706 0.7707 0.21432 0.0
C67 C 0.0659 0.75533 0.20414 0.0
C68 C 0.05458 0.74386 0.18621 0.0
N69 N 0.03421 0.71829 0.14442 0.0
C70 C 0.05962 0.71819 0.14863 0.0
C71 C 0.07453 0.70213 0.13454 0.0
C72 C 0.05762 0.69102 0.12071 0.0
C73 C 0.03322 0.70106 0.12712 0.0
N74 N 0.01449 0.76933 0.13972 0.0
C75 C 0.02431 0.82091 0.11949 0.0
C76 C 0.04395 0.80624 0.12912 0.0
C77 C 0.03883 0.78069 0.13853 0.0
C78 C 1.0002 0.80815 0.11845 0.0
C79 C 0.99577 0.78263 0.12851 0.0
N80 N 0.99674 0.70733 0.1851 0.0
C81 C 0.01166 0.67346 0.21215 0.0
C82 C 0.98738 0.67175 0.22568 0.0
C83 C 0.96729 0.68673 0.21733 0.0
C84 C 0.97221 0.70386 0.19691 0.0
C85 C 0.01586 0.69111 0.19214 0.0
H86 H 0.95602 0.7146 0.19139 0.0
H87 H 0.0351 0.69184 0.18323 0.0
H88 H 0.05465 0.77092 0.14583 0.0
H89 H 0.97676 0.77435 0.12777 0.0
C90 C 0.94305 0.74578 0.15508 0.0
C91 C 0.00931 0.6921 0.11788 0.0
C92 C 1.00185 0.78308 0.20568 0.0
C93 C 0.06778 0.72948 0.16871 0.0
H94 H 0.96033 0.68799 0.09812 0.0
H95 H 0.92342 0.71661 0.11907 0.0
H96 H 0.91755 0.78289 0.18429 0.0
H97 H 0.95003 0.80366 0.21178 0.0
H98 H 0.04933 0.7832 0.22884 0.0
H99 H 0.0858 0.75361 0.20859 0.0
H100 H 0.09491 0.69769 0.13534 0.0
H101 H 0.06263 0.6763 0.10821 0.0
H102 H 0.06308 0.81461 0.13047 0.0
H103 H 0.98451 0.81787 0.1103 0.0
H104 H 0.02783 0.66208 0.2176 0.0
H105 H 0.94786 0.68549 0.22667 0.0
C106 C 0.35589 0.98463 0.26366 0.0
C107 C 0.36715 0.96113 0.26965 0.0
C108 C 0.35718 0.94312 0.25597 0.0
C109 C 0.34066 0.95661 0.2423 0.0
N110 N 0.33988 0.98227 0.24605 0.0
Co111 Co 0.31803 0.00887 0.2303 0.0
N112 N 0.29968 0.98161 0.21358 0.0
C113 C 0.30354 0.95569 0.21533 0.0
C114 C 0.28871 0.94185 0.20135 0.0
C115 C 0.27465 0.96 0.18979 0.0
C116 C 0.28171 0.984 0.19746 0.0
N117 N 0.29657 0.03558 0.2142 0.0
C118 C 0.27923 0.03297 0.19773 0.0
C119 C 0.26923 0.0568 0.1907 0.0
C120 C 0.28114 0.07515 0.20265 0.0
C121 C 0.29755 0.06157 0.21633 0.0
N122 N 0.3359 0.03596 0.24767 0.0
C123 C 0.33199 0.06188 0.24606 0.0
C124 C 0.34473 0.07536 0.26186 0.0
C125 C 0.35709 0.05695 0.27477 0.0
C126 C 0.35142 0.03314 0.26589 0.0
N127 N 0.34513 0.01331 0.20212 0.0
C128 C 0.37713 0.02032 0.15788 0.0
C129 C 0.36996 0.04141 0.1716 0.0
C130 C 0.35423 0.03751 0.19341 0.0
C131 C 0.3691 0.99552 0.16754 0.0
C132 C 0.35354 0.99248 0.18949 0.0
N133 N 0.29081 1.00451 0.25815 0.0
C134 C 0.25972 0.02295 0.28746 0.0
C135 C 0.25288 0.99836 0.29833 0.0
C136 C 0.2655 0.97692 0.28862 0.0
C137 C 0.28415 0.98038 0.26874 0.0
C138 C 0.27852 0.02556 0.26763 0.0
H139 H 0.29294 0.96323 0.26219 0.0
H140 H 0.28287 0.04485 0.2603 0.0
H141 H 0.34927 0.05449 0.20263 0.0
H142 H 0.34801 0.97307 0.19549 0.0
C143 C 0.32305 0.94525 0.22842 0.0
C144 C 0.3598 0.00823 0.27623 0.0
C145 C 0.27197 0.00856 0.18786 0.0
C146 C 0.31419 0.07263 0.23127 0.0
H147 H 0.38044 0.95725 0.28315 0.0
H148 H 0.36056 0.92241 0.2568 0.0
H149 H 0.28883 0.92113 0.19913 0.0
H150 H 0.26131 0.95605 0.17665 0.0
H151 H 0.25499 0.0606 0.17804 0.0
H152 H 0.27836 0.09594 0.20133 0.0
H153 H 0.344 0.09598 0.26453 0.0
H154 H 0.36813 0.06075 0.28963 0.0
H155 H 0.37625 0.06101 0.1655 0.0
H156 H 0.37397 0.9784 0.15787 0.0
H157 H 0.25079 0.04026 0.29433 0.0
H158 H 0.26069 0.95738 0.29602 0.0
C159 C 0.6544 0.47463 0.21264 0.0
C160 C 0.64203 0.45174 0.20768 0.0
C161 C 0.65538 0.43186 0.21757 0.0
C162 C 0.67507 0.44367 0.2279 0.0
N163 N 0.6748 0.46994 0.22562 0.0
Co164 Co 0.70034 0.4949 0.23698 0.0
N165 N 0.72124 0.46559 0.24978 0.0
C166 C 0.71704 0.43981 0.24819 0.0
C167 C 0.73351 0.42452 0.26037 0.0
C168 C 0.74867 0.44153 0.27092 0.0
C169 C 0.74056 0.46628 0.26439 0.0
N170 N 0.72576 0.51984 0.24844 0.0
C171 C 0.74477 0.51506 0.26295 0.0
C172 C 0.75745 0.53775 0.26792 0.0
C173 C 0.74536 0.55772 0.25668 0.0
C174 C 0.72615 0.54608 0.24552 0.0
N175 N 0.67943 0.52421 0.22427 0.0
C176 C 0.68408 0.55003 0.22528 0.0
C177 C 0.66672 0.56529 0.21415 0.0
C178 C 0.65032 0.54821 0.20508 0.0
C179 C 0.65873 0.5235 0.21125 0.0
N180 N 0.67944 0.49501 0.26867 0.0
C181 C 0.65744 0.49526 0.31677 0.0
C182 C 0.66338 0.51845 0.30301 0.0
C183 C 0.67428 0.51788 0.2793 0.0
C184 C 0.66131 0.47192 0.30547 0.0
C185 C 0.67198 0.47226 0.28154 0.0
N186 N 0.72182 0.4949 0.20541 0.0
C187 C 0.74846 0.51827 0.17294 0.0
C188 C 0.75735 0.49508 0.16364 0.0
C189 C 0.74676 0.47179 0.17479 0.0
C190 C 0.729 0.47216 0.19531 0.0
C191 C 0.7309 0.51774 0.19357 0.0
H192 H 0.72178 0.45377 0.20295 0.0
H193 H 0.72535 0.53613 0.19975 0.0
H194 H 0.67902 0.53624 0.27015 0.0
H195 H 0.67479 0.45384 0.27404 0.0
C196 C 0.69519 0.43065 0.23817 0.0
C197 C 0.64795 0.50011 0.20248 0.0
C198 C 0.74958 0.48976 0.27435 0.0
C199 C 0.70618 0.55924 0.23503 0.0
H200 H 0.62567 0.4495 0.19724 0.0
H201 H 0.65181 0.41123 0.2165 0.0
H202 H 0.73337 0.40352 0.26262 0.0
H203 H 0.76309 0.43619 0.28298 0.0
H204 H 0.77295 0.53965 0.27945 0.0
H205 H 0.74912 0.57832 0.25772 0.0
H206 H 0.66666 0.58629 0.21202 0.0
H207 H 0.63455 0.55326 0.19437 0.0
H208 H 0.65998 0.53711 0.31055 0.0
H209 H 0.657 0.45336 0.31519 0.0
H210 H 0.75532 0.5369 0.16458 0.0
H211 H 0.75282 0.45322 0.16832 0.0
C212 C 0.3113 0.36108 0.97506 0.0
C213 C 0.31757 0.37279 0.95233 0.0
C214 C 0.29852 0.36511 0.93854 0.0
C215 C 0.28178 0.3491 0.95353 0.0
N216 N 0.28916 0.34642 0.97582 0.0
Co217 Co 0.27206 0.32376 0.0027 0.0
N218 N 0.2543 0.30226 0.98073 0.0
C219 C 0.25087 0.30928 0.95778 0.0
C220 C 0.23762 0.2907 0.94696 0.0
C221 C 0.23203 0.27099 0.96429 0.0
C222 C 0.24205 0.27873 0.9849 0.0
N223 N 0.25517 0.30134 0.02989 0.0
C224 C 0.24281 0.27792 0.03007 0.0
C225 C 0.23274 0.26981 0.05322 0.0
C226 C 0.2388 0.28894 0.06783 0.0
C227 C 0.25215 0.30768 0.05293 0.0
N228 N 0.28986 0.34533 0.02442 0.0
C229 C 0.28302 0.34736 0.04793 0.0
C230 C 0.29996 0.3631 0.05828 0.0
C231 C 0.3186 0.37129 0.04009 0.0
C232 C 0.31195 0.35999 0.01968 0.0
N233 N 0.24175 0.34663 0.00477 0.0
C234 C 0.19741 0.37801 0.00437 0.0
C235 C 0.19509 0.35086 0.00682 0.0
C236 C 0.21723 0.33571 0.00718 0.0
C237 C 0.22267 0.38915 1.00232 0.0
C238 C 0.24456 0.37313 0.00259 0.0
N239 N 0.30194 0.30078 1.00029 0.0
C240 C 0.33423 0.27507 0.01848 0.0
C241 C 0.34435 0.26735 0.99593 0.0
C242 C 0.33285 0.27695 0.9757 0.0
C243 C 0.31179 0.29353 0.97825 0.0
C244 C 0.31306 0.29185 0.02026 0.0
H245 H 0.30331 0.30028 0.96231 0.0
H246 H 0.30558 0.29751 0.03777 0.0
H247 H 0.2143 0.31498 0.00893 0.0
H248 H 0.26377 0.38212 1.00078 0.0
C249 C 0.26334 0.33169 0.94627 0.0
C250 C 0.32615 0.36428 0.99583 0.0
C251 C 0.23722 0.26462 0.00857 0.0
C252 C 0.26477 0.32975 0.06023 0.0
H253 H 0.33432 0.38511 0.94619 0.0
H254 H 0.298 0.36928 0.91948 0.0
H255 H 0.23308 0.29111 0.92853 0.0
H256 H 0.22136 0.2532 0.9621 0.0
H257 H 0.22151 0.25226 0.05891 0.0
H258 H 0.23432 0.28898 0.08706 0.0
H259 H 0.29976 0.36688 0.07705 0.0
H260 H 0.33528 0.38384 0.04167 0.0
H261 H 0.17622 0.34112 0.00797 0.0
H262 H 0.22555 0.41005 1.00064 0.0
H263 H 0.34257 0.26821 0.0346 0.0
H264 H 0.33957 0.27113 0.95795 0.0
C265 C 0.26011 0.66766 0.47054 0.0
C266 C 0.26258 0.65671 0.44847 0.0
C267 C 0.28551 0.66642 0.43654 0.0
C268 C 0.29563 0.68279 0.4519 0.0
N269 N 0.28053 0.68386 0.47271 0.0
Co270 Co 0.28657 0.70603 0.49939 0.0
N271 N 0.311 0.72933 0.47828 0.0
C272 C 0.3225 0.72387 0.45659 0.0
C273 C 0.33844 0.74367 0.44602 0.0
C274 C 0.33729 0.76257 0.46223 0.0
C275 C 0.32083 0.75309 0.482 0.0
N276 N 0.29238 0.72802 0.52632 0.0
C277 C 0.30402 0.75179 0.52615 0.0
C278 C 0.30501 0.75945 0.54938 0.0
C279 C 0.29399 0.73963 0.56449 0.0
C280 C 0.2869 0.72099 0.54979 0.0
N281 N 0.26233 0.68248 0.52029 0.0
C282 C 0.26051 0.6798 0.54434 0.0
C283 C 0.2412 0.66235 0.55364 0.0
C284 C 0.23023 0.65366 0.53416 0.0
C285 C 0.2435 0.66642 0.5141 0.0
N286 N 0.3163 0.68436 0.50738 0.0
C287 C 0.35939 0.65415 0.51896 0.0
C288 C 0.33612 0.64242 0.51324 0.0
C289 C 0.3149 0.65779 0.50757 0.0
C290 C 0.36024 0.68139 0.51883 0.0
C291 C 0.33882 0.69596 0.51292 0.0
N292 N 0.25701 0.72779 0.49144 0.0
C293 C 0.21667 0.74897 0.50359 0.0
C294 C 0.21442 0.75849 0.47996 0.0
C295 C 0.23404 0.75217 0.46223 0.0
C296 C 0.25494 0.73672 0.46827 0.0
C297 C 0.2381 0.73392 0.50896 0.0
H298 H 0.2694 0.73195 0.45411 0.0
H299 H 0.23936 0.72725 0.52735 0.0
H300 H 0.29735 0.64817 0.50329 0.0
H301 H 0.34064 0.71675 0.51295 0.0
C302 C 0.31534 0.70154 0.44553 0.0
C303 C 0.23865 0.66227 0.48937 0.0
C304 C 0.31772 0.76574 0.50489 0.0
C305 C 0.27289 0.69795 0.55722 0.0
H306 H 0.2491 0.64352 0.44148 0.0
H307 H 0.29297 0.66322 0.41828 0.0
H308 H 0.34922 0.74451 0.42845 0.0
H309 H 0.34791 0.78095 0.46 0.0
H310 H 0.31362 0.77711 0.55491 0.0
H311 H 0.29135 0.73898 0.58388 0.0
H312 H 0.23482 0.65766 0.57235 0.0
H313 H 0.21419 0.63981 0.53463 0.0
H314 H 0.33433 0.62151 0.51281 0.0
H315 H 0.37729 0.69163 0.5236 0.0
H316 H 0.2022 0.75351 0.51798 0.0
H317 H 0.2331 0.75883 0.4437 0.0
C318 C 0.79214 0.8355 0.47012 0.0
C319 C 0.79624 0.84593 0.44671 0.0
C320 C 0.77531 0.8381 0.43526 0.0
C321 C 0.75963 0.82325 0.4522 0.0
N322 N 0.76944 0.82142 0.47353 0.0
Co323 Co 0.75438 0.80026 0.50237 0.0
N324 N 0.7332 0.77827 0.48339 0.0
C325 C 0.72762 0.78437 0.46082 0.0
C326 C 0.7122 0.76584 0.45221 0.0
C327 C 0.70745 0.74717 0.47064 0.0
C328 C 0.72011 0.75542 0.48966 0.0
N329 N 0.73961 0.77945 0.53155 0.0
C330 C 0.72603 0.75653 0.53394 0.0
C331 C 0.71826 0.74986 0.55795 0.0
C332 C 0.72702 0.76937 0.57086 0.0
C333 C 0.73958 0.78689 0.55417 0.0
N334 N 0.77566 0.82223 0.52113 0.0
C335 C 0.77157 0.82538 0.54477 0.0
C336 C 0.79021 0.84113 0.55279 0.0
C337 C 0.8071 0.84815 0.53293 0.0
C338 C 0.7978 0.83618 0.51389 0.0
N339 N 0.72485 0.82428 0.50622 0.0
C340 C 0.68094 0.85678 0.50699 0.0
C341 C 0.6782 0.82978 0.51141 0.0
C342 C 0.7001 0.81414 0.51118 0.0
C343 C 0.70651 0.86718 0.50257 0.0
C344 C 0.72815 0.85064 0.50229 0.0
N345 N 0.78328 0.77609 0.49803 0.0
C346 C 0.81612 0.7488 0.51365 0.0
C347 C 0.82377 0.74047 0.49064 0.0
C348 C 0.81102 0.75103 0.47148 0.0
C349 C 0.7908 0.76838 0.47557 0.0
C350 C 0.79596 0.76671 0.51693 0.0
H351 H 0.78118 0.77547 0.4604 0.0
H352 H 0.79041 0.77275 0.53476 0.0
H353 H 0.69669 0.79358 0.5144 0.0
H354 H 0.74751 0.85911 0.4985 0.0
C355 C 0.73974 0.80593 0.4475 0.0
C356 C 0.80958 0.83941 0.489 0.0
C357 C 0.71706 0.74253 0.51401 0.0
C358 C 0.754 0.80883 0.5592 0.0
H359 H 0.8128 0.85747 0.43856 0.0
H360 H 0.77281 0.84135 0.41641 0.0
H361 H 0.7056 0.76564 0.43451 0.0
H362 H 0.69558 0.72975 0.47024 0.0
H363 H 0.70671 0.7331 0.56539 0.0
H364 H 0.72472 0.77047 0.59013 0.0
H365 H 0.79221 0.8457 0.5711 0.0
H366 H 0.82438 0.86042 0.53251 0.0
H367 H 0.65914 0.82042 0.51443 0.0
H368 H 0.70988 0.88792 0.49936 0.0
H369 H 0.82517 0.74116 0.52912 0.0
H370 H 0.81651 0.74595 0.45327 0.0
C371 C 0.49627 0.8123 0.88974 0.0
C372 C 0.47178 0.81872 0.9 0.0
C373 C 0.45479 0.79989 0.8945 0.0
C374 C 0.46976 0.78326 0.88105 0.0
N375 N 0.49538 0.78982 0.8783 0.0
Co376 Co 0.52324 0.77385 0.85665 0.0
N377 N 0.49738 0.75101 0.84302 0.0
C378 C 0.47205 0.74729 0.85147 0.0
C379 C 0.45937 0.729 0.83988 0.0
C380 C 0.47774 0.72039 0.82314 0.0
C381 C 0.50068 0.73415 0.82531 0.0
N382 N 0.55101 0.75955 0.83377 0.0
C383 C 0.54913 0.74337 0.81576 0.0
C384 C 0.57329 0.74007 0.8031 0.0
C385 C 0.59104 0.7541 0.81385 0.0
C386 C 0.5768 0.7655 0.83217 0.0
N387 N 0.54906 0.79595 0.87104 0.0
C388 C 0.57529 0.79463 0.86767 0.0
C389 C 0.5878 0.81341 0.87895 0.0
C390 C 0.56836 0.82791 0.88956 0.0
C391 C 0.54506 0.81715 0.88405 0.0
N392 N 0.52803 0.74471 0.88094 0.0
C393 C 0.5297 0.69442 0.90378 0.0
C394 C 0.55164 0.70569 0.89027 0.0
C395 C 0.55058 0.73078 0.87965 0.0
C396 C 0.508 0.71014 0.90803 0.0
C397 C 0.5077 0.73513 0.89678 0.0
N398 N 0.51843 0.8019 0.83228 0.0
C399 C 0.53664 0.83513 0.80325 0.0
C400 C 0.51247 0.83834 0.79424 0.0
C401 C 0.49104 0.82395 0.8055 0.0
C402 C 0.4944 0.80606 0.8245 0.0
C403 C 0.5392 0.81688 0.82213 0.0
H404 H 0.4775 0.79523 0.83231 0.0
H405 H 0.55825 0.81473 0.82793 0.0
H406 H 0.56806 0.73788 0.86966 0.0
H407 H 0.49048 0.74589 0.90072 0.0
C408 C 0.46023 0.76289 0.8688 0.0
C409 C 0.51968 0.82869 0.88999 0.0
C410 C 0.52517 0.73008 0.81055 0.0
C411 C 0.58707 0.78076 0.84898 0.0
H412 H 0.4665 0.83569 0.90971 0.0
H413 H 0.43383 0.79922 0.89869 0.0
H414 H 0.43908 0.72289 0.84301 0.0
H415 H 0.47458 0.70556 0.81081 0.0
H416 H 0.57774 0.72848 0.78782 0.0
H417 H 0.61189 0.75561 0.80902 0.0
H418 H 0.60855 0.81758 0.87774 0.0
H419 H 0.57099 0.84525 0.89912 0.0
H420 H 0.56932 0.69487 0.88673 0.0
H421 H 0.49097 0.70304 0.91951 0.0
H422 H 0.55367 0.84627 0.79546 0.0
H423 H 0.47193 0.82564 0.79912 0.0
C424 C 0.54074 0.28525 0.65225 0.0
C425 C 0.56632 0.29127 0.64325 0.0
C426 C 0.58078 0.26969 0.64799 0.0
C427 C 0.56355 0.25175 0.65997 0.0
N428 N 0.53916 0.26076 0.66284 0.0
Co429 Co 0.50923 0.24323 0.68256 0.0
N430 N 0.53216 0.22082 0.70097 0.0
C431 C 0.55726 0.21595 0.69395 0.0
C432 C 0.56845 0.19976 0.71016 0.0
C433 C 0.54907 0.19382 0.72829 0.0
C434 C 0.52691 0.20659 0.72207 0.0
N435 N 0.47903 0.22624 0.7023 0.0
C436 C 0.47798 0.2116 0.72332 0.0
C437 C 0.45265 0.20275 0.73025 0.0
C438 C 0.43756 0.21203 0.71287 0.0
C439 C 0.45439 0.22596 0.69624 0.0
N440 N 0.48666 0.26566 0.66402 0.0
C441 C 0.46137 0.26104 0.66158 0.0
C442 C 0.45063 0.28093 0.6486 0.0
C443 C 0.47043 0.2991 0.64281 0.0
C444 C 0.49218 0.28936 0.6527 0.0
N445 N 0.50783 0.2164 0.65933 0.0
C446 C 0.50324 0.17754 0.62699 0.0
C447 C 0.50089 0.1715 0.6517 0.0
C448 C 0.50343 0.19104 0.66746 0.0
C449 C 0.50862 0.20343 0.61866 0.0
C450 C 0.51064 0.22263 0.63517 0.0
N451 N 0.51051 0.26975 0.70546 0.0
C452 C 0.4897 0.30535 0.72466 0.0
C453 C 0.51387 0.31424 0.7305 0.0
C454 C 0.53609 0.2997 0.72485 0.0
C455 C 0.53397 0.27742 0.71234 0.0
C456 C 0.48839 0.28279 0.71239 0.0
H457 H 0.55149 0.26711 0.70725 0.0
H458 H 0.46968 0.27654 0.70755 0.0
H459 H 0.50153 0.18551 0.68633 0.0
H460 H 0.51418 0.24256 0.62846 0.0
C461 C 0.57057 0.2303 0.67436 0.0
C462 C 0.51804 0.3025 0.65057 0.0
C463 C 0.50085 0.20315 0.7355 0.0
C464 C 0.44743 0.24179 0.67664 0.0
H465 H 0.5743 0.30946 0.63503 0.0
H466 H 0.60177 0.26824 0.64499 0.0
H467 H 0.58854 0.19374 0.70936 0.0
H468 H 0.55109 0.18137 0.74415 0.0
H469 H 0.4459 0.19038 0.74592 0.0
H470 H 0.41672 0.20932 0.71266 0.0
H471 H 0.43042 0.28289 0.64519 0.0
H472 H 0.46894 0.31757 0.63289 0.0
H473 H 0.49718 0.15168 0.65886 0.0
H474 H 0.51062 0.20885 0.59964 0.0
H475 H 0.47204 0.31585 0.72937 0.0
H476 H 0.55507 0.30597 0.72935 0.0
C477 C 0.86423 0.48511 0.76377 0.0
C478 C 0.87421 0.46145 0.77123 0.0
C479 C 0.8624 0.44284 0.75949 0.0
C480 C 0.84587 0.45608 0.74565 0.0
N481 N 0.84681 0.48212 0.74742 0.0
Co482 Co 0.82441 0.50853 0.73203 0.0
N483 N 0.80311 0.48076 0.71889 0.0
C484 C 0.80653 0.45478 0.72136 0.0
C485 C 0.78955 0.44051 0.70981 0.0
C486 C 0.77438 0.45839 0.69924 0.0
C487 C 0.78291 0.48269 0.70508 0.0
N488 N 0.80215 0.53502 0.71662 0.0
C489 C 0.78192 0.5319 0.70318 0.0
C490 C 0.77176 0.55568 0.69621 0.0
C491 C 0.78643 0.57443 0.70501 0.0
C492 C 0.80452 0.56118 0.717 0.0
N493 N 0.84543 0.5362 0.74559 0.0
C494 C 0.84315 0.56223 0.74218 0.0
C495 C 0.85903 0.57625 0.75511 0.0
C496 C 0.87175 0.5581 0.76805 0.0
C497 C 0.86279 0.534 0.76224 0.0
N498 N 0.84878 0.50999 0.70187 0.0
C499 C 0.87754 0.51232 0.65592 0.0
C500 C 0.87143 0.53488 0.66784 0.0
C501 C 0.85727 0.53329 0.69051 0.0
C502 C 0.87007 0.48851 0.66807 0.0
C503 C 0.85611 0.48781 0.69082 0.0
N504 N 0.80004 0.50714 0.76186 0.0
C505 C 0.7739 0.52889 0.79264 0.0
C506 C 0.76616 0.50514 0.80475 0.0
C507 C 0.77583 0.48242 0.79496 0.0
C508 C 0.79254 0.48384 0.77371 0.0
C509 C 0.79069 0.52944 0.77144 0.0
H510 H 0.79913 0.46583 0.76713 0.0
H511 H 0.7959 0.54815 0.76312 0.0
H512 H 0.85307 0.55128 0.69822 0.0
H513 H 0.85101 0.46901 0.69879 0.0
C514 C 0.82667 0.44445 0.73369 0.0
C515 C 0.8702 0.50964 0.77403 0.0
C516 C 0.77183 0.50699 0.69635 0.0
C517 C 0.82381 0.57274 0.72894 0.0
H518 H 0.88777 0.45783 0.78452 0.0
H519 H 0.86445 0.422 0.76187 0.0
H520 H 0.78867 0.41962 0.70878 0.0
H521 H 0.75909 0.45399 0.68812 0.0
H522 H 0.75545 0.55919 0.68576 0.0
H523 H 0.78417 0.59526 0.70293 0.0
H524 H 0.86023 0.59716 0.75596 0.0
H525 H 0.88538 0.56208 0.78094 0.0
H526 H 0.87738 0.55386 0.6597 0.0
H527 H 0.8742 0.47035 0.65984 0.0
H528 H 0.76716 0.54707 0.79953 0.0
H529 H 0.7701 0.46349 0.80335 0.0
C530 C 0.17919 0.04071 0.76488 0.0
C531 C 0.17271 0.06559 0.77127 0.0
C532 C 0.18006 0.08203 0.75155 0.0
C533 C 0.19074 0.06639 0.73432 0.0
N534 N 0.1905 0.0412 0.74203 0.0
Co535 Co 0.20538 0.01223 0.72374 0.0
N536 N 0.22781 0.03633 0.70148 0.0
C537 C 0.22423 0.06207 0.69805 0.0
C538 C 0.24208 0.07375 0.68087 0.0
C539 C 0.25764 0.05408 0.67279 0.0
C540 C 0.24843 0.03138 0.68557 0.0
N541 N 0.22003 0.98308 0.70546 0.0
C542 C 0.24138 0.98245 0.68933 0.0
C543 C 0.24436 0.95774 0.68088 0.0
C544 C 0.22373 0.94279 0.69154 0.0
C545 C 0.20942 0.95897 0.70606 0.0
N546 N 0.18292 0.9884 0.74609 0.0
C547 C 0.17579 0.96396 0.74218 0.0
C548 C 0.16079 0.95211 0.76148 0.0
C549 C 0.15848 0.9703 0.7785 0.0
C550 C 0.17231 0.99223 0.7686 0.0
N551 N 0.17767 0.01532 0.70256 0.0
C552 C 0.13796 0.01218 0.67266 0.0
C553 C 0.13194 0.01588 0.697 0.0
C554 C 0.15222 0.0174 0.71174 0.0
C555 C 0.16404 0.01172 0.66329 0.0
C556 C 0.18358 0.01348 0.67849 0.0
N557 N 0.23275 0.00887 0.74502 0.0
C558 C 0.2529 0.98247 0.7743 0.0
C559 C 0.26333 0.00476 0.78308 0.0
C560 C 0.25984 0.02896 0.77125 0.0
C561 C 0.24455 0.03057 0.75213 0.0
C562 C 0.23783 0.98494 0.7551 0.0
H563 H 0.24105 0.0495 0.74402 0.0
H564 H 0.2291 0.9676 0.74931 0.0
H565 H 0.14728 0.01923 0.73068 0.0
H566 H 0.20344 0.01224 0.6708 0.0
C567 C 0.20618 0.07493 0.71333 0.0
C568 C 0.174 0.01682 0.78035 0.0
C569 C 0.25764 0.00529 0.68005 0.0
C570 C 0.18831 0.95138 0.72288 0.0
H571 H 0.16405 0.07141 0.7884 0.0
H572 H 0.17922 0.10303 0.75049 0.0
H573 H 0.24388 0.09417 0.67518 0.0
H574 H 0.2735 0.05615 0.65865 0.0
H575 H 0.25961 0.95122 0.66811 0.0
H576 H 0.22005 0.92237 0.68944 0.0
H577 H 0.15366 0.93218 0.76352 0.0
H578 H 0.14805 0.96771 0.79619 0.0
H579 H 0.11186 0.01639 0.70468 0.0
H580 H 0.16926 0.00914 0.64442 0.0
H581 H 0.25571 0.96338 0.78267 0.0
H582 H 0.26767 0.04666 0.7775 0.0
C583 C 0.77513 0.18001 0.95447 0.0
C584 C 0.7747 0.17277 0.93112 0.0
C585 C 0.79347 0.1875 0.91752 0.0
C586 C 0.80416 0.20288 0.93328 0.0
N587 N 0.79378 0.19842 0.95623 0.0
Co588 Co 0.80154 0.21798 0.98465 0.0
N589 N 0.82561 0.24289 0.96407 0.0
C590 C 0.83176 0.24273 0.94009 0.0
C591 C 0.849 0.26211 0.93098 0.0
C592 C 0.85444 0.2753 0.95032 0.0
C593 C 0.84024 0.26303 0.97022 0.0
N594 N 0.809 0.2376 0.0131 0.0
C595 C 0.82523 0.25824 0.01461 0.0
C596 C 0.82534 0.26533 0.03809 0.0
C597 C 0.80861 0.24862 0.05189 0.0
C598 C 0.79934 0.23226 0.03618 0.0
N599 N 0.77756 0.19301 0.00519 0.0
C600 C 0.77243 0.19205 0.0293 0.0
C601 C 0.75417 0.17343 0.03809 0.0
C602 C 0.74672 0.16224 0.01834 0.0
C603 C 0.7609 0.17483 0.99866 0.0
N604 N 0.83191 0.19504 0.9898 0.0
C605 C 0.87707 0.16595 0.99759 0.0
C606 C 0.85797 0.16999 0.01638 0.0
C607 C 0.83587 0.18455 0.01217 0.0
C608 C 0.87281 0.17615 0.97474 0.0
C609 C 0.85024 0.1902 0.97124 0.0
N610 N 0.77137 0.24089 0.97945 0.0
C611 C 0.73079 0.26047 0.9942 0.0
C612 C 0.72782 0.27218 0.97153 0.0
C613 C 0.74709 0.2679 0.95295 0.0
C614 C 0.76834 0.2522 0.9572 0.0
C615 C 0.75263 0.24527 0.9978 0.0
H616 H 0.782 0.24934 0.94213 0.0
H617 H 0.75398 0.23719 0.01557 0.0
H618 H 0.82253 0.18735 0.02742 0.0
H619 H 0.84827 0.19716 0.95334 0.0
C620 C 0.82144 0.22375 0.9267 0.0
C621 C 0.75617 0.17057 0.97409 0.0
C622 C 0.84174 0.27093 0.99458 0.0
C623 C 0.78269 0.21091 0.04277 0.0
H624 H 0.76151 0.15904 0.92444 0.0
H625 H 0.79779 0.18797 0.89824 0.0
H626 H 0.85689 0.26601 0.91253 0.0
H627 H 0.86761 0.2919 0.94986 0.0
H628 H 0.83676 0.28063 0.04471 0.0
H629 H 0.80422 0.24806 0.07116 0.0
H630 H 0.74622 0.16943 0.05652 0.0
H631 H 0.73173 0.14732 0.01828 0.0
H632 H 0.86038 0.1626 0.03446 0.0
H633 H 0.88682 0.17322 0.9595 0.0
H634 H 0.71654 0.26342 0.00925 0.0
H635 H 0.74559 0.27634 0.93503 0.0
C636 C 0.13481 0.04347 0.07634 0.0
N637 N 0.1083 0.0415 0.00632 0.0
C638 C 0.13332 0.04697 0.99705 0.0
C639 C 0.14156 0.04222 0.97322 0.0
C640 C 0.12397 0.03169 0.95857 0.0
C641 C 0.09848 0.02543 0.96885 0.0
C642 C 0.09101 0.03057 0.9928 0.0
Zn643 Zn 0.09616 0.05356 0.04026 0.0
C644 C 0.06574 0.01224 0.07184 0.0
N645 N 0.07181 0.08281 0.10945 0.0
C646 C 0.09103 0.09372 0.12081 0.0
C647 C 0.04637 0.08409 0.11847 0.0
C648 C 0.0395 0.09746 0.13917 0.0
C649 C 0.059 0.10944 0.15093 0.0
C650 C 0.08511 0.10672 0.1417 0.0
Zn651 Zn 0.08274 0.06817 0.07634 0.0
O652 O 0.13182 0.03917 0.0546 0.0
C653 C 0.11518 0.10818 0.04495 0.0
O654 O 0.11697 0.05471 0.08877 0.0
H655 H 0.03127 0.07554 0.10917 0.0
H656 H 0.14682 0.05573 0.00796 0.0
H657 H 0.11111 0.09314 0.11331 0.0
O658 O 0.11541 0.09006 0.03053 0.0
O659 O 0.10226 0.1047 0.06541 0.0
H660 H 0.07115 0.02654 1.00035 0.0
O661 O 0.04835 0.08213 0.06323 0.0
O662 O 0.0601 0.06871 0.02748 0.0
O663 O 0.06449 0.03025 0.08665 0.0
O664 O 0.07715 0.01703 0.05082 0.0
C665 C 0.04364 0.0801 0.04163 0.0
H666 H 0.16151 0.04701 0.96629 0.0
H667 H 0.08413 0.0175 0.95827 0.0
H668 H 0.01906 0.09912 0.14533 0.0
H669 H 0.10099 0.11492 0.15027 0.0
C670 C 0.92234 0.47923 0.05455 0.0
N671 N 0.95637 0.49111 0.98261 0.0
C672 C 0.93264 0.48203 0.97771 0.0
C673 C 0.92437 0.48596 0.95489 0.0
C674 C 0.9406 0.49934 0.93655 0.0
C675 C 0.96466 0.50938 0.94219 0.0
C676 C 0.97227 0.50491 0.96544 0.0
Zn677 Zn 0.96731 0.47913 0.01608 0.0
C678 C 0.98715 0.5207 0.04421 0.0
N679 N 0.98656 0.44895 0.08468 0.0
C680 C 0.96875 0.43244 0.09731 0.0
C681 C 0.00928 0.45535 0.09358 0.0
C682 C 0.01493 0.44464 0.11593 0.0
C683 C 0.99697 0.42725 0.12915 0.0
C684 C 0.97351 0.42148 0.11964 0.0
Zn685 Zn 0.97779 0.46306 0.05171 0.0
O686 O 0.92787 0.48584 0.0324 0.0
C687 C 0.95706 0.42171 0.02399 0.0
O688 O 0.94 0.46967 0.06636 0.0
H689 H 0.02317 0.46852 0.08323 0.0
H690 H 0.92027 0.47086 0.99134 0.0
H691 H 0.95079 0.42757 0.08999 0.0
O692 O 0.95612 0.44102 0.00907 0.0
O693 O 0.96598 0.42501 0.04391 0.0
H694 H 0.99116 0.51178 0.96954 0.0
O695 O 0.01563 0.45668 0.03723 0.0
O696 O 0.00736 0.4716 1.00128 0.0
O697 O 0.9891 0.50121 0.05889 0.0
O698 O 0.9784 0.5175 0.02409 0.0
C699 C 0.02333 0.4621 0.01536 0.0
H700 H 0.90549 0.47825 0.95157 0.0
H701 H 0.97785 0.51974 0.92858 0.0
H702 H 0.03334 0.44949 0.12254 0.0
H703 H 0.95887 0.40859 0.12939 0.0
C704 C 0.02425 0.97914 0.42059 0.0
N705 N 0.03782 0.91191 0.38252 0.0
C706 C 0.01421 0.91419 0.3738 0.0
C707 C 0.01052 0.90539 0.35138 0.0
C708 C 0.03153 0.8947 0.33762 0.0
C709 C 0.0559 0.89346 0.34681 0.0
C710 C 0.0585 0.90179 0.36955 0.0
Zn711 Zn 0.04278 0.92434 0.41514 0.0
C712 C 0.09444 0.95128 0.41309 0.0
N713 N 0.05395 0.95168 0.48287 0.0
C714 C 0.03376 0.96309 0.4955 0.0
C715 C 0.07771 0.94954 0.49131 0.0
C716 C 0.08196 0.9594 0.51318 0.0
C717 C 0.06158 0.97157 0.52648 0.0
C718 C 0.03715 0.97317 0.51754 0.0
Zn719 Zn 0.04893 0.93847 0.45033 0.0
O720 O 0.02582 0.9616 0.40544 0.0
C721 C 0.99624 0.91023 0.44997 0.0
O722 O 0.03173 0.97401 0.44115 0.0
H723 H 0.09342 0.9403 0.48098 0.0
H724 H 0.99811 0.92252 0.38439 0.0
H725 H 0.01507 0.96465 0.48834 0.0
O726 O 0.00578 0.90852 0.42846 0.0
O727 O 0.00991 0.92169 0.46419 0.0
H728 H 0.07708 0.90007 0.37686 0.0
O729 O 0.06737 0.90324 0.45967 0.0
O730 O 0.06175 0.88802 0.42494 0.0
O731 O 0.08768 0.95491 0.43513 0.0
O732 O 0.07868 0.93947 0.40146 0.0
C733 C 0.07118 0.8854 0.44512 0.0
H734 H 0.99126 0.90634 0.34525 0.0
H735 H 0.07279 0.88587 0.33669 0.0
H736 H 0.10097 0.95735 0.51971 0.0
H737 H 0.02101 0.9825 0.52725 0.0
C738 C 0.94298 0.59378 0.45044 0.0
N739 N 0.01861 0.56422 0.44355 0.0
C740 C 0.02755 0.58797 0.43412 0.0
C741 C 0.05202 0.59739 0.43859 0.0
C742 C 0.06756 0.58237 0.45305 0.0
C743 C 0.05794 0.55784 0.46251 0.0
C744 C 0.03332 0.54907 0.45744 0.0
Zn745 Zn 0.9815 0.553 0.43727 0.0
C746 C 0.95128 0.52709 0.48158 0.0
N747 N 0.90412 0.53147 0.42464 0.0
C748 C 0.88859 0.55124 0.41803 0.0
C749 C 0.89618 0.50623 0.42419 0.0
C750 C 0.87286 0.50012 0.41482 0.0
C751 C 0.85729 0.52024 0.40646 0.0
C752 C 0.86476 0.54603 0.40952 0.0
Zn753 Zn 0.94123 0.54087 0.43149 0.0
O754 O 0.96752 0.59076 0.44751 0.0
C755 C 0.96971 0.56906 0.38739 0.0
O756 O 0.92791 0.57572 0.44546 0.0
H757 H 0.90856 0.49073 0.42979 0.0
H758 H 0.0155 0.59991 0.42338 0.0
H759 H 0.89514 0.57121 0.41808 0.0
O760 O 0.98856 0.56812 0.40047 0.0
O761 O 0.94773 0.5593 0.39598 0.0
H762 H 0.02584 0.53028 0.46482 0.0
O763 O 0.95505 0.50547 0.41839 0.0
O764 O 0.99465 0.51419 0.42709 0.0
O765 O 0.93467 0.52347 0.4667 0.0
O766 O 0.97286 0.53868 0.4742 0.0
C767 C 0.97846 0.49842 0.41939 0.0
H768 H 0.05844 0.61656 0.43123 0.0
H769 H 0.06935 0.54554 0.47361 0.0
H770 H 0.86807 0.47991 0.41278 0.0
H771 H 0.85306 0.56221 0.40409 0.0
C772 C 0.41067 0.97659 0.5589 0.0
N773 N 0.44446 0.98409 0.4856 0.0
C774 C 0.41875 0.98281 0.48177 0.0
C775 C 0.41084 0.98802 0.45887 0.0
C776 C 0.42952 0.99388 0.43939 0.0
C777 C 0.4559 0.99522 0.44367 0.0
C778 C 0.46296 0.99052 0.46706 0.0
Zn779 Zn 0.45456 0.9717 0.51958 0.0
C780 C 0.47852 0.01212 0.54619 0.0
N781 N 0.47253 0.94162 0.58842 0.0
C782 C 0.45429 0.92649 0.60208 0.0
C783 C 0.49564 0.94792 0.59664 0.0
C784 C 0.50117 0.93875 0.61945 0.0
C785 C 0.48268 0.92304 0.6339 0.0
C786 C 0.45894 0.91705 0.62497 0.0
Zn787 Zn 0.46415 0.95518 0.55534 0.0
O788 O 0.4164 0.98344 0.53678 0.0
C789 C 0.4384 0.91549 0.5294 0.0
O790 O 0.42733 0.9646 0.57022 0.0
H791 H 0.50983 0.96002 0.58547 0.0
H792 H 0.40422 0.97685 0.49628 0.0
H793 H 0.43599 0.92178 0.59526 0.0
O794 O 0.43846 0.93475 0.51422 0.0
O795 O 0.44909 0.91797 0.54862 0.0
H796 H 0.48331 0.99133 0.47019 0.0
O797 O 0.50134 0.94551 0.54105 0.0
O798 O 0.4936 0.95898 0.50464 0.0
O799 O 0.47825 0.99284 0.56147 0.0
O800 O 0.47019 0.00902 0.52587 0.0
C801 C 0.50907 0.94894 0.51897 0.0
H802 H 0.39034 0.98646 0.45624 0.0
H803 H 0.4709 0.99968 0.42905 0.0
H804 H 0.51984 0.9436 0.62555 0.0
H805 H 0.44396 0.90536 0.63564 0.0
C806 C 0.61374 0.53 0.60606 0.0
N807 N 0.58267 0.5216 0.53926 0.0
C808 C 0.6081 0.52367 0.53002 0.0
C809 C 0.61557 0.51679 0.50668 0.0
C810 C 0.59666 0.50813 0.49246 0.0
C811 C 0.57064 0.50562 0.50254 0.0
C812 C 0.56407 0.5123 0.52616 0.0
Zn813 Zn 0.57247 0.53655 0.57209 0.0
C814 C 0.54442 0.49719 0.60769 0.0
N815 N 0.55282 0.57227 0.63914 0.0
C816 C 0.5731 0.58465 0.64783 0.0
C817 C 0.52804 0.57444 0.64968 0.0
C818 C 0.52296 0.59014 0.66919 0.0
C819 C 0.54358 0.60365 0.67809 0.0
C820 C 0.56898 0.60003 0.66742 0.0
Zn821 Zn 0.56142 0.55436 0.60709 0.0
O822 O 0.60881 0.52328 0.58545 0.0
C823 C 0.59227 0.59186 0.57114 0.0
O824 O 0.59698 0.54267 0.61839 0.0
H825 H 0.51204 0.5648 0.64244 0.0
H826 H 0.62257 0.53158 0.54043 0.0
H827 H 0.59262 0.58344 0.63908 0.0
O828 O 0.59171 0.5721 0.55869 0.0
O829 O 0.5802 0.59055 0.5921 0.0
H830 H 0.54396 0.5108 0.53375 0.0
O831 O 0.52533 0.56663 0.59493 0.0
O832 O 0.53588 0.55081 0.55997 0.0
O833 O 0.54441 0.51631 0.62133 0.0
O834 O 0.55376 0.50068 0.58587 0.0
C835 C 0.51978 0.56301 0.57378 0.0
H836 H 0.63578 0.51932 0.49946 0.0
H837 H 0.55551 0.4989 0.49215 0.0
H838 H 0.50297 0.59239 0.67659 0.0
H839 H 0.58569 0.60938 0.67382 0.0
C840 C 0.54375 0.50119 0.93925 0.0
N841 N 0.54868 0.44041 0.89371 0.0
C842 C 0.52525 0.44937 0.88789 0.0
C843 C 0.51828 0.4479 0.86471 0.0
C844 C 0.53555 0.43699 0.84742 0.0
C845 C 0.5597 0.42802 0.85384 0.0
C846 C 0.56592 0.42995 0.87726 0.0
Zn847 Zn 0.55826 0.44626 0.92692 0.0
C848 C 0.61138 0.46887 0.92431 0.0
N849 N 0.57605 0.46373 0.9961 0.0
C850 C 0.55832 0.47591 0.01094 0.0
C851 C 0.5997 0.45686 0.003 0.0
C852 C 0.60628 0.46216 0.02573 0.0
C853 C 0.58842 0.47485 0.04135 0.0
C854 C 0.5642 0.48182 0.03375 0.0
Zn855 Zn 0.56712 0.45612 0.96282 0.0
O856 O 0.54351 0.48519 0.92289 0.0
C857 C 0.51314 0.43173 0.96293 0.0
O858 O 0.55231 0.49386 0.95887 0.0
H859 H 0.61352 0.44733 0.99083 0.0
H860 H 0.51193 0.45783 0.90123 0.0
H861 H 0.53961 0.48111 0.00507 0.0
O862 O 0.52157 0.43169 0.94099 0.0
O863 O 0.52795 0.441 0.97746 0.0
H864 H 0.58449 0.42312 0.88231 0.0
O865 O 0.58288 0.41868 0.96687 0.0
O866 O 0.57502 0.40784 0.93108 0.0
O867 O 0.60604 0.47072 0.94684 0.0
O868 O 0.59411 0.45993 0.91237 0.0
C869 C 0.58497 0.4024 0.95068 0.0
H870 H 0.49946 0.45493 0.86043 0.0
H871 H 0.57327 0.41886 0.84112 0.0
H872 H 0.62525 0.45672 0.03093 0.0
H873 H 0.54987 0.49143 0.04542 0.0
C874 C 0.45013 0.11354 0.95151 0.0
N875 N 0.52613 0.08374 0.94788 0.0
C876 C 0.5345 0.10778 0.93875 0.0
C877 C 0.55976 0.11653 0.9412 0.0
C878 C 0.57666 0.10046 0.95323 0.0
C879 C 0.56742 0.07588 0.96282 0.0
C880 C 0.54196 0.06783 0.95986 0.0
Zn881 Zn 0.48934 0.07193 0.94213 0.0
C882 C 0.45889 0.04756 0.98594 0.0
N883 N 0.41353 0.04866 0.92849 0.0
C884 C 0.3984 0.06468 0.91593 0.0
C885 C 0.40534 0.02418 0.93643 0.0
C886 C 0.38165 0.01436 0.93052 0.0
C887 C 0.36636 0.02995 0.91637 0.0
C888 C 0.37455 0.05568 0.90967 0.0
Zn889 Zn 0.4498 0.06045 0.93415 0.0
O890 O 0.47426 0.10903 0.95242 0.0
C891 C 0.47849 0.0877 0.8907 0.0
O892 O 0.4355 0.09619 0.94444 0.0
H893 H 0.41766 0.01187 0.94657 0.0
H894 H 0.52159 0.12018 0.92937 0.0
H895 H 0.40533 0.08408 0.90988 0.0
O896 O 0.49618 0.08757 0.90508 0.0
O897 O 0.45669 0.07658 0.89784 0.0
H898 H 0.53491 0.04878 0.96691 0.0
O899 O 0.46402 0.02422 0.92377 0.0
O900 O 0.50354 0.03368 0.93202 0.0
O901 O 0.44264 0.04561 0.97048 0.0
O902 O 0.48136 0.05755 0.97921 0.0
C903 C 0.48746 0.01744 0.92493 0.0
H904 H 0.56594 0.13577 0.93387 0.0
H905 H 0.5799 0.06284 0.97209 0.0
H906 H 0.37591 0.99444 0.93602 0.0
H907 H 0.36351 0.06817 0.89837 0.0
C908 C 0.99282 0.13025 0.38753 0.0
C909 C 0.0154 0.14469 0.39095 0.0
C910 C 0.99148 0.10301 0.39179 0.0
C911 C 0.01336 0.0896 0.3993 0.0
C912 C 0.03614 0.10399 0.4029 0.0
C913 C 0.03679 0.13123 0.39893 0.0
C914 C 0.96667 0.08854 0.38808 0.0
C915 C 0.06 0.09058 0.41082 0.0
C916 C 0.00802 0.02263 0.43215 0.0
C917 C 0.01699 0.00631 0.41406 0.0
C918 C 0.00543 0.0495 0.42732 0.0
C919 C 0.01249 0.0606 0.40387 0.0
C920 C 0.02049 0.04406 0.38529 0.0
C921 C 0.02241 0.01709 0.39055 0.0
C922 C 0.99624 0.06618 0.4476 0.0
C923 C 0.02851 0.05504 0.3601 0.0
H924 H 0.97627 0.14015 0.381 0.0
H925 H 0.05419 0.14197 0.40216 0.0
H926 H 0.97061 0.07464 0.37386 0.0
H927 H 0.95938 0.07701 0.40476 0.0
H928 H 0.95109 0.10181 0.38292 0.0
H929 H 0.07648 0.1044 0.41206 0.0
H930 H 0.05519 0.08022 0.42861 0.0
H931 H 0.06649 0.0758 0.39803 0.0
H932 H 0.00374 0.01446 0.45037 0.0
H933 H 0.02965 0.00469 0.37653 0.0
H934 H 0.98051 0.07912 0.44227 0.0
H935 H 0.0126 0.07877 0.45184 0.0
H936 H 0.98889 0.05435 0.46411 0.0
H937 H 0.0132 0.06789 0.35375 0.0
H938 H 0.03223 0.03955 0.34731 0.0
H939 H 0.04655 0.06707 0.35994 0.0
C940 C 0.99734 0.3448 0.40919 0.0
C941 C 0.00768 0.33805 0.38642 0.0
C942 C 0.99448 0.37106 0.41464 0.0
C943 C 1.00223 0.39118 0.39691 0.0
C944 C 0.01333 0.38433 0.37405 0.0
C945 C 0.01599 0.3579 0.36913 0.0
C946 C 0.9826 0.37727 0.43923 0.0
C947 C 0.02182 0.40493 0.35454 0.0
C948 C 0.96756 0.45598 0.40246 0.0
C949 C 0.98576 0.47159 0.4125 0.0
C950 C 0.97286 0.43013 0.39706 0.0
C951 C 0.99703 0.41919 0.40178 0.0
C952 C 0.01574 0.4349 0.41155 0.0
C953 C 0.00993 0.46086 0.41675 0.0
C954 C 0.9523 0.41437 0.38658 0.0
C955 C 0.04175 0.42411 0.41689 0.0
H956 H 0.99125 0.32946 0.42269 0.0
H957 H 0.02416 0.35269 0.35156 0.0
H958 H 0.99567 0.39071 0.44743 0.0
H959 H 0.96385 0.38728 0.43774 0.0
H960 H 0.9789 0.35956 0.45141 0.0
H961 H 0.03136 0.39653 0.33821 0.0
H962 H 0.00465 0.41601 0.34956 0.0
H963 H 0.03559 0.41896 0.36111 0.0
H964 H 0.94882 0.46388 0.39897 0.0
H965 H 0.02413 0.47259 0.42456 0.0
H966 H 0.94621 0.39729 0.39889 0.0
H967 H 0.96042 0.40688 0.36933 0.0
H968 H 0.93475 0.42586 0.38339 0.0
H969 H 0.03874 0.40757 0.43048 0.0
H970 H 0.05455 0.43893 0.4237 0.0
H971 H 0.05194 0.41651 0.40049 0.0
C972 C 0.05383 0.85905 0.10284 0.0
C973 C 0.02879 0.8493 0.11146 0.0
C974 C 0.05864 0.88576 0.09687 0.0
C975 C 0.03785 0.90348 0.09878 0.0
C976 C 0.01241 0.89382 0.10681 0.0
C977 C 0.00826 0.86709 0.1133 0.0
C978 C 0.08616 0.89507 0.08871 0.0
C979 C 0.98951 0.9118 0.10866 0.0
C980 C 0.05483 0.97566 0.10325 0.0
C981 C 0.05594 0.98524 0.07924 0.0
C982 C 0.04868 0.94927 0.10991 0.0
C983 C 0.04282 0.93202 0.09227 0.0
C984 C 0.04284 0.9419 0.06817 0.0
C985 C 0.04972 0.96817 0.06192 0.0
C986 C 0.04948 0.93962 0.13572 0.0
C987 C 0.03606 0.92458 0.04882 0.0
H988 H 0.06991 0.84582 0.10065 0.0
H989 H 0.98888 0.86031 0.12028 0.0
H990 H 0.08712 0.90404 0.0702 0.0
H991 H 0.09217 0.91025 0.1004 0.0
H992 H 0.10038 0.87908 0.08904 0.0
H993 H 0.97075 0.90117 0.11399 0.0
H994 H 0.99234 0.92631 0.12205 0.0
H995 H 0.98815 0.92269 0.09121 0.0
H996 H 0.05987 0.98856 0.11673 0.0
H997 H 0.05043 0.97534 0.04333 0.0
H998 H 0.06485 0.92485 0.13692 0.0
H999 H 0.03066 0.93001 0.14269 0.0
H1000 H 0.05356 0.95553 0.14742 0.0
H1001 H 0.05105 0.90947 0.04627 0.0
H1002 H 0.03485 0.93561 0.03138 0.0
H1003 H 0.01711 0.91438 0.05421 0.0
C1004 C 0.02227 0.66445 0.08329 0.0
C1005 C 0.00843 0.6672 0.10571 0.0
C1006 C 0.02079 0.64114 0.07162 0.0
C1007 C 0.00429 0.62054 0.08225 0.0
C1008 C 0.98992 0.6235 0.10472 0.0
C1009 C 0.99244 0.64666 0.1163 0.0
C1010 C 0.03691 0.6385 0.048 0.0
C1011 C 0.97164 0.60231 0.11644 0.0
C1012 C 0.97938 0.56848 0.04432 0.0
C1013 C 0.99368 0.54694 0.05143 0.0
C1014 C 0.98306 0.5928 0.05375 0.0
C1015 C 1.00203 0.59575 0.07011 0.0
C1016 C 0.01752 0.57436 0.07625 0.0
C1017 C 0.01287 0.55012 0.06715 0.0
C1018 C 0.96569 0.61493 0.04722 0.0
C1019 C 0.03844 0.57685 0.09307 0.0
H1020 H 0.03424 0.68056 0.07492 0.0
H1021 H 0.98158 0.64894 0.13357 0.0
H1022 H 0.04942 0.62121 0.04918 0.0
H1023 H 0.02396 0.63546 0.03371 0.0
H1024 H 0.04954 0.65591 0.04262 0.0
H1025 H 0.96107 0.60813 0.13344 0.0
H1026 H 0.95712 0.59717 0.10406 0.0
H1027 H 0.98274 0.58453 0.12035 0.0
H1028 H 0.96437 0.566 0.03235 0.0
H1029 H 0.02408 0.5335 0.07254 0.0
H1030 H 0.97759 0.63243 0.04061 0.0
H1031 H 0.95321 0.62013 0.06341 0.0
H1032 H 0.9529 0.60992 0.03327 0.0
H1033 H 0.05126 0.59401 0.08735 0.0
H1034 H 0.05067 0.55929 0.09391 0.0
H1035 H 0.02931 0.57989 0.11139 0.0
C1036 C 0.4102 0.00595 0.12501 0.0
C1037 C 0.39196 0.02419 0.13344 0.0
C1038 C 0.42304 0.00865 0.10161 0.0
C1039 C 0.4178 0.03025 0.08612 0.0
C1040 C 0.39993 0.04905 0.09468 0.0
C1041 C 0.38721 0.04574 0.11806 0.0
C1042 C 0.44183 0.98808 0.09328 0.0
C1043 C 0.39375 0.07243 0.07891 0.0
C1044 C 0.46392 0.04997 0.03006 0.0
C1045 C 0.45036 0.04055 0.01174 0.0
C1046 C 0.45393 0.04628 0.05437 0.0
C1047 C 0.42991 0.03261 0.06061 0.0
C1048 C 0.41673 0.02216 0.04224 0.0
C1049 C 0.427 0.02634 0.01814 0.0
C1050 C 0.46859 0.0579 0.0733 0.0
C1051 C 0.39128 0.00719 0.04795 0.0
H1052 H 0.41449 0.98943 0.1367 0.0
H1053 H 0.37292 0.0598 0.12401 0.0
H1054 H 0.43454 0.97851 0.07797 0.0
H1055 H 0.46109 0.9971 0.08683 0.0
H1056 H 0.44455 0.97296 0.1077 0.0
H1057 H 0.38067 0.0861 0.08863 0.0
H1058 H 0.412 0.08304 0.07176 0.0
H1059 H 0.38418 0.06601 0.06333 0.0
H1060 H 0.48186 0.06112 0.02537 0.0
H1061 H 0.41635 0.01888 0.00419 0.0
H1062 H 0.47182 0.04288 0.08762 0.0
H1063 H 0.45679 0.07333 0.0818 0.0
H1064 H 0.48776 0.06647 0.0658 0.0
H1065 H 0.39348 0.9911 0.06157 0.0
H1066 H 0.38429 0.9989 0.03184 0.0
H1067 H 0.3761 0.02019 0.05568 0.0
C1068 C 0.65341 0.5073 0.15828 0.0
C1069 C 0.63683 0.50176 0.17922 0.0
C1070 C 0.64424 0.50563 0.13576 0.0
C1071 C 0.61796 0.49802 0.13437 0.0
C1072 C 0.60081 0.49376 0.15557 0.0
C1073 C 0.61048 0.49585 0.17787 0.0
C1074 C 0.66304 0.5106 0.11355 0.0
C1075 C 0.5727 0.48552 0.15475 0.0
C1076 C 0.59109 0.50555 0.0739 0.0
C1077 C 0.59507 0.48069 0.06548 0.0
C1078 C 0.59818 0.51149 0.09647 0.0
C1079 C 0.60923 0.49201 0.11091 0.0
C1080 C 0.6128 0.46675 0.10266 0.0
C1081 C 0.60577 0.46143 0.07996 0.0
C1082 C 0.59438 0.53869 0.10464 0.0
C1083 C 0.62431 0.4454 0.11769 0.0
H1084 H 0.67381 0.51193 0.15958 0.0
H1085 H 0.59781 0.49175 0.19427 0.0
H1086 H 0.66688 0.49206 0.10484 0.0
H1087 H 0.65447 0.52403 0.10042 0.0
H1088 H 0.68195 0.519 0.11766 0.0
H1089 H 0.56137 0.48552 0.17262 0.0
H1090 H 0.5632 0.49859 0.14196 0.0
H1091 H 0.57187 0.46561 0.14828 0.0
H1092 H 0.583 0.5205 0.06258 0.0
H1093 H 0.60853 0.44212 0.07355 0.0
H1094 H 0.61357 0.54767 0.10705 0.0
H1095 H 0.58257 0.53812 0.12227 0.0
H1096 H 0.5846 0.55131 0.09166 0.0
H1097 H 0.6445 0.45093 0.12092 0.0
H1098 H 0.62483 0.42656 0.10902 0.0
H1099 H 0.61281 0.44266 0.13544 0.0
C1100 C 0.35834 0.9915 0.31927 0.0
C1101 C 0.37113 0.00644 0.29985 0.0
C1102 C 0.36867 0.98928 0.34159 0.0
C1103 C 0.39211 1.00281 0.34479 0.0
C1104 C 0.40513 0.01789 0.32516 0.0
C1105 C 0.39476 0.0191 0.30284 0.0
C1106 C 0.35447 0.97241 0.36174 0.0
C1107 C 0.42985 0.03303 0.32783 0.0
C1108 C 0.40303 0.01611 0.40931 0.0
C1109 C 0.42135 0.99734 0.41471 0.0
C1110 C 0.39396 0.01859 0.38644 0.0
C1111 C 0.40279 1.00136 0.36873 0.0
C1112 C 0.42135 0.98237 0.37415 0.0
C1113 C 0.43065 0.98083 0.39695 0.0
C1114 C 0.37473 0.03954 0.38131 0.0
C1115 C 0.43078 0.96315 0.3561 0.0
H1116 H 0.34021 0.98147 0.31693 0.0
H1117 H 0.40498 0.0302 0.2877 0.0
H1118 H 0.36785 0.9577 0.36862 0.0
H1119 H 0.34789 0.98446 0.37683 0.0
H1120 H 0.3372 0.9622 0.35603 0.0
H1121 H 0.43723 0.04436 0.31105 0.0
H1122 H 0.42629 0.04664 0.34235 0.0
H1123 H 0.44525 0.01962 0.33302 0.0
H1124 H 0.39583 0.0289 0.42302 0.0
H1125 H 0.44457 0.96609 0.40121 0.0
H1126 H 0.35591 0.03056 0.37777 0.0
H1127 H 0.38209 0.05162 0.36499 0.0
H1128 H 0.37106 0.0524 0.39644 0.0
H1129 H 0.414 0.95153 0.35125 0.0
H1130 H 0.44532 0.94967 0.36301 0.0
H1131 H 0.43973 0.97357 0.33941 0.0
C1132 C 0.6579 0.5142 0.35698 0.0
C1133 C 0.648 0.49558 0.34277 0.0
C1134 C 0.64903 0.51521 0.38134 0.0
C1135 C 0.6301 0.49684 0.39204 0.0
C1136 C 0.62037 0.47764 0.378 0.0
C1137 C 0.62928 0.47735 0.35352 0.0
C1138 C 0.65984 0.5361 0.3956 0.0
C1139 C 0.60047 0.45746 0.38882 0.0
C1140 C 0.6256 0.48831 0.46012 0.0
C1141 C 0.60395 0.50339 0.46685 0.0
C1142 C 0.63379 0.48525 0.43584 0.0
C1143 C 0.62032 0.49802 0.41785 0.0
C1144 C 0.5982 0.51296 0.42457 0.0
C1145 C 0.59015 0.51526 0.44899 0.0
C1146 C 0.65715 0.46876 0.42945 0.0
C1147 C 0.58359 0.52728 0.40599 0.0
H1148 H 0.67282 0.52799 0.3491 0.0
H1149 H 0.62128 0.46302 0.34275 0.0
H1150 H 0.64372 0.54804 0.40333 0.0
H1151 H 0.66947 0.52712 0.41077 0.0
H1152 H 0.67421 0.54914 0.38453 0.0
H1153 H 0.59566 0.44319 0.37576 0.0
H1154 H 0.60787 0.44682 0.40444 0.0
H1155 H 0.58227 0.46708 0.39547 0.0
H1156 H 0.63621 0.47899 0.47391 0.0
H1157 H 0.5736 0.52719 0.45412 0.0
H1158 H 0.67323 0.48109 0.42005 0.0
H1159 H 0.65213 0.45395 0.41699 0.0
H1160 H 0.66435 0.45871 0.44549 0.0
H1161 H 0.59676 0.54195 0.39556 0.0
H1162 H 0.56628 0.53734 0.41413 0.0
H1163 H 0.57708 0.51359 0.39316 0.0
C1164 C 0.15052 0.38618 0.01832 0.0
C1165 C 0.17341 0.39407 0.00389 0.0
C1166 C 0.12716 0.39965 0.01706 0.0
C1167 C 0.12653 0.4221 1.00134 0.0
C1168 C 0.14963 0.43063 0.9871 0.0
C1169 C 0.17275 0.41646 0.98845 0.0
C1170 C 0.10308 0.3898 0.03266 0.0
C1171 C 0.1499 0.4547 0.97044 0.0
C1172 C 0.05749 0.44056 0.98879 0.0
C1173 C 0.05088 0.457 0.00734 0.0
C1174 C 0.08274 0.43025 0.9855 0.0
C1175 C 0.10178 0.43694 1.00088 0.0
C1176 C 0.09564 0.4553 0.01826 0.0
C1177 C 0.07022 0.4648 0.02147 0.0
C1178 C 0.08831 0.41056 0.96691 0.0
C1179 C 0.11532 0.46345 0.03477 0.0
H1180 H 0.15081 0.36934 0.03077 0.0
H1181 H 0.19017 0.42268 0.97705 0.0
H1182 H 0.09659 0.40457 0.04544 0.0
H1183 H 0.08691 0.38649 0.02145 0.0
H1184 H 0.1065 0.37137 0.04306 0.0
H1185 H 0.16946 0.45896 0.96074 0.0
H1186 H 0.13565 0.45233 0.95711 0.0
H1187 H 0.14384 0.4717 0.98074 0.0
H1188 H 0.04245 0.43421 0.9781 0.0
H1189 H 0.06508 0.47748 0.03589 0.0
H1190 H 0.0892 0.39093 0.976 0.0
H1191 H 0.1075 0.41473 0.95655 0.0
H1192 H 0.07304 0.41017 0.95427 0.0
H1193 H 0.11808 0.44722 0.0481 0.0
H1194 H 0.10894 0.48071 0.0446 0.0
H1195 H 0.13452 0.46796 0.02455 0.0
C1196 C 0.21301 0.62392 0.47823 0.0
C1197 C 0.21381 0.64988 0.48423 0.0
C1198 C 0.1895 0.61211 0.47338 0.0
C1199 C 0.16626 0.62658 0.47489 0.0
C1200 C 0.16701 0.65273 0.48141 0.0
C1201 C 0.19082 0.66404 0.48606 0.0
C1202 C 0.18957 0.58423 0.46651 0.0
C1203 C 0.1427 0.6688 0.48333 0.0
C1204 C 0.11023 0.6057 0.44046 0.0
C1205 C 0.09336 0.59264 0.45852 0.0
C1206 C 0.13407 0.61661 0.4455 0.0
C1207 C 0.14127 0.61452 0.46923 0.0
C1208 C 0.12449 0.6011 0.4875 0.0
C1209 C 0.10079 0.59027 0.48192 0.0
C1210 C 0.15149 0.63055 0.42546 0.0
C1211 C 0.1314 0.59856 0.51304 0.0
H1212 H 0.23082 0.61291 0.4773 0.0
H1213 H 0.19156 0.68406 0.49099 0.0
H1214 H 0.17586 0.57229 0.47928 0.0
H1215 H 0.18272 0.58307 0.44847 0.0
H1216 H 0.20925 0.57565 0.46629 0.0
H1217 H 0.14653 0.68871 0.48894 0.0
H1218 H 0.13445 0.67039 0.4658 0.0
H1219 H 0.12766 0.65912 0.49649 0.0
H1220 H 0.10479 0.60734 0.42227 0.0
H1221 H 0.08774 0.58048 0.49604 0.0
H1222 H 0.17097 0.62155 0.42387 0.0
H1223 H 0.15442 0.65113 0.42953 0.0
H1224 H 0.14328 0.6301 0.40791 0.0
H1225 H 0.1505 0.58903 0.51376 0.0
H1226 H 0.1165 0.58712 0.52508 0.0
H1227 H 0.13336 0.61814 0.51998 0.0
C1228 C 0.85806 0.83474 0.4899 0.0
C1229 C 0.83705 0.84987 0.48366 0.0
C1230 C 0.88403 0.84434 0.48585 0.0
C1231 C 0.8893 0.8699 0.47551 0.0
C1232 C 0.86799 0.88542 0.46962 0.0
C1233 C 0.84222 0.87529 0.47384 0.0
C1234 C 0.90589 0.82696 0.49241 0.0
C1235 C 0.87243 0.91273 0.45865 0.0
C1236 C 0.95606 0.90304 0.48009 0.0
C1237 C 0.96924 0.89935 0.45747 0.0
C1238 C 0.93019 0.8935 0.48632 0.0
C1239 C 0.91705 0.87985 0.4696 0.0
C1240 C 0.93042 0.87586 0.4469 0.0
C1241 C 0.95609 0.88559 0.44116 0.0
C1242 C 0.9168 0.89827 0.51072 0.0
C1243 C 0.9175 0.86141 0.42845 0.0
H1244 H 0.85413 0.81523 0.49785 0.0
H1245 H 0.82601 0.88733 0.46961 0.0
H1246 H 0.91899 0.82338 0.4761 0.0
H1247 H 0.91779 0.83666 0.50486 0.0
H1248 H 0.8986 0.80793 0.50098 0.0
H1249 H 0.85387 0.92262 0.45582 0.0
H1250 H 0.88351 0.9244 0.47036 0.0
H1251 H 0.88435 0.91231 0.44112 0.0
H1252 H 0.96582 0.91364 0.49286 0.0
H1253 H 0.96586 0.88247 0.42361 0.0
H1254 H 0.91039 0.87951 0.52032 0.0
H1255 H 0.89906 0.90985 0.50875 0.0
H1256 H 0.92965 0.90877 0.52187 0.0
H1257 H 0.9113 0.84165 0.43591 0.0
H1258 H 0.93059 0.85956 0.41173 0.0
H1259 H 0.89971 0.87167 0.42383 0.0
C1260 C 0.40815 0.6482 0.51895 0.0
C1261 C 0.38257 0.63848 0.52525 0.0
C1262 C 0.43006 0.63482 0.52607 0.0
C1263 C 0.42668 0.61071 0.53957 0.0
C1264 C 0.40106 0.60027 0.54528 0.0
C1265 C 0.37941 0.61426 0.53821 0.0
C1266 C 0.45687 0.64688 0.51961 0.0
C1267 C 0.39645 0.57452 0.55939 0.0
C1268 C 0.48719 0.56841 0.5429 0.0
C1269 C 0.49531 0.57404 0.56524 0.0
C1270 C 0.46461 0.57962 0.53456 0.0
C1271 C 0.44986 0.59723 0.54869 0.0
C1272 C 0.45787 0.60277 0.57133 0.0
C1273 C 0.48026 0.59106 0.57934 0.0
C1274 C 0.4567 0.57283 0.51048 0.0
C1275 C 0.44308 0.62159 0.58696 0.0
H1276 H 0.41116 0.66647 0.50843 0.0
H1277 H 0.35993 0.60648 0.54346 0.0
H1278 H 0.46599 0.65075 0.53619 0.0
H1279 H 0.46961 0.63323 0.50958 0.0
H1280 H 0.45635 0.66543 0.50857 0.0
H1281 H 0.37569 0.56802 0.56079 0.0
H1282 H 0.40865 0.55937 0.55088 0.0
H1283 H 0.40231 0.57614 0.57774 0.0
H1284 H 0.49853 0.55527 0.53184 0.0
H1285 H 0.48626 0.59571 0.59659 0.0
H1286 H 0.45777 0.59048 0.49812 0.0
H1287 H 0.43617 0.56561 0.51237 0.0
H1288 H 0.46931 0.55781 0.50222 0.0
H1289 H 0.4433 0.64107 0.5774 0.0
H1290 H 0.45146 0.62349 0.60428 0.0
H1291 H 0.42238 0.61516 0.59073 0.0
C1292 C 0.50619 0.65111 0.91222 0.0
C1293 C 0.52914 0.66624 0.91208 0.0
C1294 C 0.50596 0.62412 0.91772 0.0
C1295 C 0.52934 0.61174 0.92273 0.0
C1296 C 0.5524 0.62689 0.92316 0.0
C1297 C 0.55194 0.6539 0.91816 0.0
C1298 C 0.48082 0.60877 0.91757 0.0
C1299 C 0.57782 0.61446 0.92824 0.0
C1300 C 0.53048 0.54437 0.95417 0.0
C1301 C 0.53668 0.52874 0.93486 0.0
C1302 C 0.52679 0.57122 0.95043 0.0
C1303 C 0.53003 0.58287 0.92683 0.0
C1304 C 0.53554 0.56704 0.90721 0.0
C1305 C 0.5385 0.54013 0.91145 0.0
C1306 C 0.52022 0.58724 0.97179 0.0
C1307 C 0.53957 0.5787 0.8818 0.0
H1308 H 0.4885 0.66017 0.90725 0.0
H1309 H 0.56966 0.6653 0.91872 0.0
H1310 H 0.48256 0.59553 0.90264 0.0
H1311 H 0.47688 0.5965 0.93447 0.0
H1312 H 0.46389 0.62151 0.91543 0.0
H1313 H 0.59404 0.62894 0.92793 0.0
H1314 H 0.5756 0.60375 0.94605 0.0
H1315 H 0.58327 0.60012 0.91471 0.0
H1316 H 0.5289 0.53566 0.97231 0.0
H1317 H 0.54349 0.5282 0.89645 0.0
H1318 H 0.50319 0.59957 0.96892 0.0
H1319 H 0.53688 0.60044 0.97401 0.0
H1320 H 0.51578 0.57495 0.98865 0.0
H1321 H 0.52255 0.59044 0.87761 0.0
H1322 H 0.54256 0.56365 0.86847 0.0
H1323 H 0.55689 0.59197 0.8798 0.0
C1324 C 0.50972 0.86404 0.91858 0.0
C1325 C 0.51786 0.85674 0.89543 0.0
C1326 C 0.5069 0.89042 0.92351 0.0
C1327 C 0.51257 0.91006 0.90487 0.0
C1328 C 0.5217 0.9027 0.88161 0.0
C1329 C 0.52426 0.87616 0.8772 0.0
C1330 C 0.49711 0.89723 0.94854 0.0
C1331 C 0.52802 0.92282 0.86119 0.0
C1332 C 0.47627 0.97375 0.91079 0.0
C1333 C 0.49493 0.99046 0.91885 0.0
C1334 C 0.4819 0.94784 0.906 0.0
C1335 C 0.50691 0.93802 0.90927 0.0
C1336 C 0.52605 0.95481 0.91706 0.0
C1337 C 0.51985 0.98079 0.92177 0.0
C1338 C 0.46083 0.93084 0.89773 0.0
C1339 C 0.55298 0.9452 0.92071 0.0
H1340 H 0.50518 0.84903 0.93277 0.0
H1341 H 0.53077 0.8705 0.85933 0.0
H1342 H 0.51056 0.91153 0.95516 0.0
H1343 H 0.47779 0.90645 0.94832 0.0
H1344 H 0.49512 0.87989 0.96134 0.0
H1345 H 0.53667 0.91411 0.84467 0.0
H1346 H 0.50999 0.93296 0.85709 0.0
H1347 H 0.54183 0.93771 0.86635 0.0
H1348 H 0.45692 0.98083 0.9084 0.0
H1349 H 0.53443 0.99341 0.92802 0.0
H1350 H 0.45644 0.91398 0.91078 0.0
H1351 H 0.46766 0.92301 0.88027 0.0
H1352 H 0.44249 0.94148 0.8957 0.0
H1353 H 0.55164 0.92907 0.93478 0.0
H1354 H 0.56594 0.96077 0.92609 0.0
H1355 H 0.56207 0.93733 0.90397 0.0
C1356 C 0.50609 0.34874 0.65948 0.0
C1357 C 0.52057 0.33161 0.64502 0.0
C1358 C 0.5077 0.376 0.65454 0.0
C1359 C 0.52504 0.38681 0.63517 0.0
C1360 C 0.53959 0.36956 0.62046 0.0
C1361 C 0.53644 0.34238 0.62502 0.0
C1362 C 0.49064 0.39322 0.66997 0.0
C1363 C 0.55872 0.3798 0.59988 0.0
C1364 C 0.51885 0.45546 0.6057 0.0
C1365 C 0.53645 0.47022 0.61721 0.0
C1366 C 0.51386 0.42881 0.6123 0.0
C1367 C 0.52783 0.41598 0.63 0.0
C1368 C 0.54549 0.43095 0.64182 0.0
C1369 C 0.54921 0.45786 0.6356 0.0
C1370 C 0.4939 0.4143 0.59996 0.0
C1371 C 0.5615 0.41826 0.6602 0.0
H1372 H 0.49328 0.34073 0.67467 0.0
H1373 H 0.54629 0.32956 0.61264 0.0
H1374 H 0.50282 0.40418 0.6813 0.0
H1375 H 0.48083 0.40765 0.65864 0.0
H1376 H 0.47551 0.3819 0.68184 0.0
H1377 H 0.57059 0.36411 0.59183 0.0
H1378 H 0.54811 0.38952 0.58572 0.0
H1379 H 0.57207 0.39451 0.60607 0.0
H1380 H 0.50908 0.46477 0.59134 0.0
H1381 H 0.56327 0.46896 0.64421 0.0
H1382 H 0.48074 0.40242 0.6133 0.0
H1383 H 0.50385 0.40083 0.58753 0.0
H1384 H 0.48192 0.42766 0.58951 0.0
H1385 H 0.54854 0.40881 0.67523 0.0
H1386 H 0.57462 0.43238 0.66758 0.0
H1387 H 0.57353 0.40282 0.65195 0.0
C1388 C 0.47801 0.13973 0.61471 0.0
C1389 C 0.49975 0.15659 0.61043 0.0
C1390 C 0.47562 0.1179 0.60123 0.0
C1391 C 0.49564 0.11255 0.58316 0.0
C1392 C 0.51715 0.1301 0.57807 0.0
C1393 C 0.51889 0.15205 0.5917 0.0
C1394 C 0.45215 0.09996 0.60707 0.0
C1395 C 0.53896 0.12503 0.55907 0.0
C1396 C 0.50023 0.0405 0.57323 0.0
C1397 C 0.48635 0.03823 0.55315 0.0
C1398 C 0.50472 0.0648 0.58229 0.0
C1399 C 0.49482 0.08746 0.57119 0.0
C1400 C 0.48192 0.08548 0.55019 0.0
C1401 C 0.47796 0.06088 0.54133 0.0
C1402 C 0.5189 0.06601 0.60451 0.0
C1403 C 0.47094 0.10911 0.53791 0.0
H1404 H 0.46305 0.14337 0.62902 0.0
H1405 H 0.53578 0.165 0.58845 0.0
H1406 H 0.44288 0.09625 0.59054 0.0
H1407 H 0.45839 0.08095 0.61465 0.0
H1408 H 0.43733 0.10801 0.62021 0.0
H1409 H 0.55285 0.14179 0.55555 0.0
H1410 H 0.54985 0.10774 0.56491 0.0
H1411 H 0.53099 0.12064 0.54206 0.0
H1412 H 0.507 0.02312 0.58235 0.0
H1413 H 0.46715 0.0593 0.52584 0.0
H1414 H 0.50507 0.0714 0.61975 0.0
H1415 H 0.53455 0.08119 0.6018 0.0
H1416 H 0.52769 0.04714 0.6095 0.0
H1417 H 0.45407 0.11611 0.54944 0.0
H1418 H 0.46431 0.10487 0.52028 0.0
H1419 H 0.4857 0.12514 0.5352 0.0
C1420 C 0.8849 0.53353 0.61409 0.0
C1421 C 0.89076 0.51364 0.63083 0.0
C1422 C 0.8964 0.53465 0.59027 0.0
C1423 C 0.91408 0.51526 0.58269 0.0
C1424 C 0.92026 0.49523 0.59945 0.0
C1425 C 0.90866 0.49473 0.62327 0.0
C1426 C 0.88929 0.55643 0.57307 0.0
C1427 C 0.9389 0.47412 0.59214 0.0
C1428 C 0.9211 0.50643 0.51543 0.0
C1429 C 0.94397 0.5209 0.50766 0.0
C1430 C 0.91177 0.50357 0.53986 0.0
C1431 C 0.92542 0.51568 0.55705 0.0
C1432 C 0.94906 0.52946 0.54945 0.0
C1433 C 0.9581 0.53179 0.5249 0.0
C1434 C 0.88669 0.48842 0.54713 0.0
C1435 C 0.96418 0.5428 0.5671 0.0
H1436 H 0.8708 0.54801 0.61943 0.0
H1437 H 0.91373 0.47948 0.63599 0.0
H1438 H 0.90717 0.56692 0.56481 0.0
H1439 H 0.87946 0.54833 0.55835 0.0
H1440 H 0.87614 0.57062 0.58197 0.0
H1441 H 0.94201 0.46011 0.60734 0.0
H1442 H 0.93126 0.4633 0.57772 0.0
H1443 H 0.95803 0.48283 0.58479 0.0
H1444 H 0.91003 0.49787 0.50232 0.0
H1445 H 0.97569 0.54315 0.51914 0.0
H1446 H 0.87139 0.50175 0.55407 0.0
H1447 H 0.88947 0.47366 0.5618 0.0
H1448 H 0.87954 0.47844 0.53195 0.0
H1449 H 0.95249 0.55881 0.57473 0.0
H1450 H 0.98315 0.55102 0.55868 0.0
H1451 H 0.96788 0.52898 0.58222 0.0
C1452 C 0.10105 0.02598 0.64954 0.0
C1453 C 0.11769 0.00655 0.65695 0.0
C1454 C 0.08602 0.02226 0.63039 0.0
C1455 C 0.08804 0.99867 0.61864 0.0
C1456 C 0.10311 0.97824 0.62762 0.0
C1457 C 0.11781 0.98249 0.64668 0.0
C1458 C 0.06979 0.04427 0.62156 0.0
C1459 C 0.1057 0.95272 0.61573 0.0
C1460 C 0.04824 0.9771 0.56997 0.0
C1461 C 0.06604 0.98225 0.54965 0.0
C1462 C 0.05414 0.98424 0.59261 0.0
C1463 C 0.0784 0.99659 0.5948 0.0
C1464 C 0.09553 1.00348 0.57406 0.0
C1465 C 0.08909 0.99627 0.55173 0.0
C1466 C 0.03525 0.97695 0.61428 0.0
C1467 C 0.12157 0.01681 0.57561 0.0
H1468 H 0.10109 0.04459 0.65761 0.0
H1469 H 0.13069 0.96751 0.65269 0.0
H1470 H 0.08043 0.05442 0.60547 0.0
H1471 H 0.05099 0.03687 0.61628 0.0
H1472 H 0.06577 0.05866 0.63537 0.0
H1473 H 0.11571 0.93793 0.62655 0.0
H1474 H 0.08625 0.94483 0.61268 0.0
H1475 H 0.11713 0.9559 0.59796 0.0
H1476 H 0.03034 0.96632 0.5684 0.0
H1477 H 0.10255 1.00083 0.53592 0.0
H1478 H 0.03391 0.99282 0.62684 0.0
H1479 H 0.04229 0.95948 0.624 0.0
H1480 H 0.01544 0.97247 0.60921 0.0
H1481 H 0.11909 0.03413 0.58637 0.0
H1482 H 0.13142 0.023 0.55766 0.0
H1483 H 0.13454 1.00331 0.58475 0.0
C1484 C 0.86679 0.51625 0.818 0.0
C1485 C 0.88202 0.50983 0.79723 0.0
C1486 C 0.87724 0.51586 0.84023 0.0
C1487 C 0.9036 0.50889 0.8417 0.0
C1488 C 0.9192 0.50297 0.82057 0.0
C1489 C 0.90824 0.50362 0.79855 0.0
C1490 C 0.85991 0.52236 0.86223 0.0
C1491 C 0.94731 0.49538 0.8213 0.0
C1492 C 0.93561 0.5253 0.89774 0.0
C1493 C 0.93249 0.50176 0.91169 0.0
C1494 C 0.92659 0.52788 0.87482 0.0
C1495 C 0.91432 0.50638 0.86554 0.0
C1496 C 0.91171 0.48243 0.87933 0.0
C1497 C 0.9208 0.48043 0.90213 0.0
C1498 C 0.92971 0.55375 0.86074 0.0
C1499 C 0.89899 0.45894 0.87011 0.0
H1500 H 0.84655 0.52121 0.81685 0.0
H1501 H 0.92003 0.49894 0.78236 0.0
H1502 H 0.8575 0.50509 0.87506 0.0
H1503 H 0.86906 0.53807 0.87143 0.0
H1504 H 0.84029 0.52864 0.85788 0.0
H1505 H 0.95713 0.4925 0.80316 0.0
H1506 H 0.95824 0.51055 0.82964 0.0
H1507 H 0.94835 0.47707 0.83254 0.0
H1508 H 0.94448 0.54191 0.90501 0.0
H1509 H 0.91875 0.46201 0.91255 0.0
H1510 H 0.91023 0.5615 0.85775 0.0
H1511 H 0.94025 0.55131 0.84284 0.0
H1512 H 0.94049 0.5683 0.87003 0.0
H1513 H 0.87848 0.46321 0.86709 0.0
H1514 H 0.8991 0.44154 0.88274 0.0
H1515 H 0.9092 0.45425 0.85262 0.0
C1516 C 0.1429 0.02866 0.8152 0.0
C1517 C 0.1665 0.01777 0.80661 0.0
C1518 C 0.136 0.0302 0.83994 0.0
C1519 C 0.15288 0.02014 0.85657 0.0
C1520 C 0.17639 0.00833 0.8479 0.0
C1521 C 0.18295 0.0074 0.82302 0.0
C1522 C 0.11079 0.04294 0.84828 0.0
C1523 C 0.19505 0.99722 0.86474 0.0
C1524 C 0.14739 0.04728 0.91866 0.0
C1525 C 0.13191 0.02824 0.93256 0.0
C1526 C 0.15457 0.04473 0.89409 0.0
C1527 C 0.14613 0.02259 0.88293 0.0
C1528 C 0.1308 1.00313 0.89687 0.0
C1529 C 0.12381 0.00622 0.92143 0.0
C1530 C 0.17097 0.06591 0.87997 0.0
C1531 C 0.1219 0.97895 0.88584 0.0
H1532 H 0.12993 0.03618 0.80248 0.0
H1533 H 0.20112 0.99879 0.81634 0.0
H1534 H 0.09829 0.02914 0.86042 0.0
H1535 H 0.11493 0.05995 0.85864 0.0
H1536 H 0.09971 0.04958 0.83312 0.0
H1537 H 0.20822 0.98302 0.85592 0.0
H1538 H 0.20722 0.01322 0.87043 0.0
H1539 H 0.18452 0.98745 0.88107 0.0
H1540 H 0.15351 0.06454 0.92691 0.0
H1541 H 0.11218 0.99121 0.932 0.0
H1542 H 0.16041 0.07412 0.86505 0.0
H1543 H 0.18934 0.05768 0.87189 0.0
H1544 H 0.17595 0.08193 0.89123 0.0
H1545 H 0.10971 0.98431 0.87115 0.0
H1546 H 0.11046 0.9654 0.89913 0.0
H1547 H 0.13907 0.96861 0.87783 0.0
C1548 C 0.65615 0.89528 0.49075 0.0
C1549 C 0.65706 0.87337 0.5068 0.0
C1550 C 0.63322 0.90994 0.48978 0.0
C1551 C 0.6104 0.90243 0.50496 0.0
C1552 C 0.61124 0.88046 0.52122 0.0
C1553 C 0.63445 0.86653 0.52215 0.0
C1554 C 0.63342 0.9335 0.47252 0.0
C1555 C 0.58752 0.87159 0.5378 0.0
C1556 C 0.55626 0.94834 0.52481 0.0
C1557 C 0.53615 0.94129 0.51117 0.0
C1558 C 0.58106 0.93727 0.52168 0.0
C1559 C 0.58588 0.91798 0.50492 0.0
C1560 C 0.566 0.91168 0.49022 0.0
C1561 C 0.54142 0.92359 0.49337 0.0
C1562 C 0.6016 0.94512 0.53744 0.0
C1563 C 0.57005 0.89102 0.47235 0.0
H1564 H 0.67322 0.90078 0.47861 0.0
H1565 H 0.63483 0.85018 0.53512 0.0
H1566 H 0.61844 0.93107 0.45987 0.0
H1567 H 0.62833 0.951 0.48247 0.0
H1568 H 0.6527 0.93698 0.46204 0.0
H1569 H 0.59087 0.8533 0.54844 0.0
H1570 H 0.58203 0.88686 0.55038 0.0
H1571 H 0.57071 0.86843 0.52731 0.0
H1572 H 0.55223 0.96194 0.53868 0.0
H1573 H 0.52583 0.91773 0.48308 0.0
H1574 H 0.62061 0.94891 0.52663 0.0
H1575 H 0.60436 0.92903 0.5509 0.0
H1576 H 0.59615 0.96276 0.5471 0.0
H1577 H 0.58889 0.8943 0.46117 0.0
H1578 H 0.5541 0.89046 0.46042 0.0
H1579 H 0.57086 0.87173 0.48209 0.0
C1580 C 0.7083 0.17513 0.9733 0.0
C1581 C 0.73045 0.16001 0.96926 0.0
C1582 C 0.68346 0.16513 0.97033 0.0
C1583 C 0.68084 0.13938 0.96322 0.0
C1584 C 0.70331 0.12412 0.95895 0.0
C1585 C 0.72793 0.13464 0.96213 0.0
C1586 C 0.66002 0.18202 0.97509 0.0
C1587 C 0.7013 0.09663 0.95129 0.0
C1588 C 0.61453 0.10587 0.97752 0.0
C1589 C 0.60376 0.10944 0.95561 0.0
C1590 C 0.63973 0.11526 0.98018 0.0
C1591 C 0.65454 0.1284 0.96042 0.0
C1592 C 0.64395 0.13165 0.93815 0.0
C1593 C 0.61868 0.12216 0.93602 0.0
C1594 C 0.65033 0.11156 0.00426 0.0
C1595 C 0.6592 0.14541 0.91663 0.0
H1596 H 0.71047 0.19473 0.979 0.0
H1597 H 0.7452 0.12298 0.95935 0.0
H1598 H 0.64925 0.18401 0.95894 0.0
H1599 H 0.64645 0.17274 0.98979 0.0
H1600 H 0.66548 0.20175 0.98013 0.0
H1601 H 0.7207 0.08761 0.94815 0.0
H1602 H 0.6892 0.08452 0.96525 0.0
H1603 H 0.69148 0.09639 0.93458 0.0
H1604 H 0.60299 0.09628 0.99277 0.0
H1605 H 0.6106 0.12463 0.91894 0.0
H1606 H 0.65423 0.13077 0.01126 0.0
H1607 H 0.66915 0.1013 0.00238 0.0
H1608 H 0.63665 0.10028 0.01764 0.0
H1609 H 0.66362 0.16576 0.92056 0.0
H1610 H 0.64845 0.14567 0.9004 0.0
H1611 H 0.67812 0.13577 0.91264 0.0
C1612 C 0.35941 0.40048 0.98531 0.0
C1613 C 0.35361 0.37456 0.99317 0.0
C1614 C 0.38532 0.41015 0.98261 0.0
C1615 C 0.40599 0.39355 0.988 0.0
C1616 C 0.4 0.36752 0.99666 0.0
C1617 C 0.3739 0.3584 0.99923 0.0
C1618 C 0.39064 0.43798 0.97336 0.0
C1619 C 0.42125 0.34905 0.00255 0.0
C1620 C 0.47243 0.40889 0.95369 0.0
C1621 C 0.48616 0.42122 0.97048 0.0
C1622 C 0.44667 0.39963 0.95932 0.0
C1623 C 0.43387 0.40268 0.98242 0.0
C1624 C 0.44761 0.41478 0.99967 0.0
C1625 C 0.4736 0.42386 0.99353 0.0
C1626 C 0.43303 0.38681 0.94033 0.0
C1627 C 0.43471 0.41842 0.02449 0.0
H1628 H 0.34364 0.41314 0.98113 0.0
H1629 H 0.36933 0.33844 0.0056 0.0
H1630 H 0.40251 0.44813 0.98554 0.0
H1631 H 0.40207 0.43843 0.95554 0.0
H1632 H 0.3724 0.44887 0.97159 0.0
H1633 H 0.4133 0.33005 0.01066 0.0
H1634 H 0.43395 0.34553 0.98599 0.0
H1635 H 0.43372 0.35774 0.01514 0.0
H1636 H 0.48179 0.40653 0.93583 0.0
H1637 H 0.48391 0.43336 0.00663 0.0
H1638 H 0.41555 0.39797 0.93636 0.0
H1639 H 0.42625 0.36692 0.94693 0.0
H1640 H 0.44585 0.38545 0.92337 0.0
H1641 H 0.41745 0.43091 0.02334 0.0
H1642 H 0.44814 0.42748 0.03608 0.0
H1643 H 0.42762 0.39941 0.03314 0.0
C1644 C 0.92595 0.1621 0.99232 0.0
C1645 C 0.90152 0.15183 1.00192 0.0
C1646 C 0.94925 0.1498 0.99726 0.0
C1647 C 0.94822 0.12635 0.01187 0.0
C1648 C 0.92356 0.11547 0.02099 0.0
C1649 C 0.90058 0.12843 0.01611 0.0
C1650 C 0.97501 0.16243 0.98754 0.0
C1651 C 0.92145 0.09034 0.03632 0.0
C1652 C 0.00965 0.08509 0.01207 0.0
C1653 C 0.01942 0.09175 0.03343 0.0
C1654 C 0.98641 0.09597 0.00487 0.0
C1655 C 0.97287 0.11432 0.0191 0.0
C1656 C 0.98291 0.12131 0.04047 0.0
C1657 C 0.00579 0.10984 0.04743 0.0
C1658 C 0.9762 0.08765 0.98216 0.0
C1659 C 0.9695 0.14106 0.05604 0.0
H1660 H 0.92688 0.18029 0.98153 0.0
H1661 H 0.8818 0.12021 0.02338 0.0
H1662 H 0.98579 0.16824 0.00261 0.0
H1663 H 0.98727 0.14842 0.97747 0.0
H1664 H 0.97254 0.17993 0.97552 0.0
H1665 H 0.90093 0.08333 0.0404 0.0
H1666 H 0.93286 0.07506 0.02717 0.0
H1667 H 0.92982 0.09313 0.05348 0.0
H1668 H 0.01994 0.0711 1.00117 0.0
H1669 H 0.01319 0.11533 0.06389 0.0
H1670 H 0.97489 0.10477 0.96944 0.0
H1671 H 0.9562 0.07928 0.98626 0.0
H1672 H 0.98876 0.07302 0.97322 0.0
H1673 H 0.96776 0.15967 0.0454 0.0
H1674 H 0.98014 0.14489 0.0718 0.0
H1675 H 0.94945 0.13413 0.06256 0.0
C1676 C 0.0172 0.20939 0.25247 0.0
C1677 C 0.02848 0.20262 0.27361 0.0
C1678 C 0.02034 0.19378 0.2327 0.0
C1679 C 0.03561 0.17115 0.23395 0.0
C1680 C 0.04683 0.16415 0.25542 0.0
C1681 C 0.04283 0.17978 0.27509 0.0
C1682 C 0.00759 0.20167 0.21037 0.0
C1683 C 0.06363 0.1405 0.25742 0.0
C1684 C 0.03105 0.11885 0.189 0.0
C1685 C 0.05241 0.12542 0.17209 0.0
C1686 C 0.02503 0.13378 0.20897 0.0
C1687 C 0.041 0.15556 0.21245 0.0
C1688 C 0.0625 0.16235 0.19549 0.0
C1689 C 0.06769 0.1475 0.17544 0.0
C1690 C 1.00165 0.12617 0.22642 0.0
C1691 C 0.08022 0.18524 0.1986 0.0
H1692 H 0.00597 0.22699 0.25142 0.0
H1693 H 0.05129 0.17442 0.29157 0.0
H1694 H 0.02275 0.20663 0.19533 0.0
H1695 H 0.99574 0.18523 0.20506 0.0
H1696 H 0.99483 0.2187 0.21288 0.0
H1697 H 0.07055 0.13747 0.27549 0.0
H1698 H 0.05258 0.12287 0.25355 0.0
H1699 H 0.08086 0.1426 0.24392 0.0
H1700 H 0.01918 0.10179 0.18687 0.0
H1701 H 0.08377 0.15339 0.16228 0.0
H1702 H 0.98852 0.14294 0.22858 0.0
H1703 H 0.00805 0.12072 0.2443 0.0
H1704 H 0.99039 0.10957 0.22055 0.0
H1705 H 0.06892 0.2034 0.1988 0.0
H1706 H 0.09651 0.18759 0.18411 0.0
H1707 H 0.08857 0.1828 0.21606 0.0
C1708 C 0.03672 0.34856 0.24688 0.0
C1709 C 0.01555 0.34743 0.26468 0.0
C1710 C 0.03595 0.36395 0.22554 0.0
C1711 C 0.01337 0.37835 0.2218 0.0
C1712 C 0.9925 0.37835 0.24016 0.0
C1713 C 0.99389 0.36297 0.26143 0.0
C1714 C 0.0587 0.36361 0.20646 0.0
C1715 C 0.96807 0.39344 0.23682 0.0
C1716 C 0.01383 0.42889 0.1696 0.0
C1717 C 1.00255 0.4147 0.15254 0.0
C1718 C 0.01788 0.41727 0.19217 0.0
C1719 C 0.01033 0.39094 0.19778 0.0
C1720 C 0.9994 0.37643 0.18047 0.0
C1721 C 0.9958 0.38842 0.15806 0.0
C1722 C 0.02984 0.43323 0.21014 0.0
C1723 C 0.99113 0.34826 0.18572 0.0
H1724 H 0.05344 0.33643 0.24907 0.0
H1725 H 0.97768 0.36261 0.27529 0.0
H1726 H 0.053 0.35273 0.19124 0.0
H1727 H 0.06425 0.38367 0.19937 0.0
H1728 H 0.07602 0.35425 0.2133 0.0
H1729 H 0.95471 0.39338 0.25359 0.0
H1730 H 0.97309 0.41387 0.23059 0.0
H1731 H 0.95751 0.38477 0.22282 0.0
H1732 H 0.01893 0.44924 0.16552 0.0
H1733 H 0.98762 0.37717 0.14479 0.0
H1734 H 0.04719 0.42338 0.21634 0.0
H1735 H 0.01566 0.43498 0.22611 0.0
H1736 H 0.03578 0.45307 0.2026 0.0
H1737 H 0.00802 0.33661 0.19047 0.0
H1738 H 0.983 0.33973 0.17025 0.0
H1739 H 0.97613 0.3465 0.20134 0.0
C1740 C 0.98731 0.80321 0.24365 0.0
C1741 C 1.00197 0.80501 0.22134 0.0
C1742 C 0.9901 0.82207 0.26013 0.0
C1743 C 0.00864 0.84254 0.25427 0.0
C1744 C 0.02238 0.84521 0.23117 0.0
C1745 C 0.01871 0.82636 0.21481 0.0
C1746 C 0.97474 0.81891 0.28447 0.0
C1747 C 0.04256 0.86655 0.22444 0.0
C1748 C 0.01011 0.89406 0.29937 0.0
C1749 C 0.02762 0.88319 0.31465 0.0
C1750 C 0.00429 0.88157 0.27898 0.0
C1751 C 0.01671 0.85805 0.27362 0.0
C1752 C 0.03549 0.8478 0.28815 0.0
C1753 C 0.04041 0.86028 0.30867 0.0
C1754 C 0.98398 0.89281 0.26391 0.0
C1755 C 0.04948 0.8229 0.2827 0.0
H1756 H 0.9745 0.78648 0.24853 0.0
H1757 H 0.02996 0.82748 0.19741 0.0
H1758 H 0.98781 0.81207 0.29801 0.0
H1759 H 0.96675 0.83779 0.28991 0.0
H1760 H 0.95837 0.8046 0.28475 0.0
H1761 H 0.04788 0.86872 0.20477 0.0
H1762 H 0.03552 0.88542 0.23078 0.0
H1763 H 0.06045 0.86187 0.23322 0.0
H1764 H 1.00054 0.91204 0.3036 0.0
H1765 H 0.05357 0.85139 0.32052 0.0
H1766 H 0.96628 0.88006 0.26632 0.0
H1767 H 0.9912 0.89357 0.24462 0.0
H1768 H 0.97835 0.91266 0.26887 0.0
H1769 H 0.03543 0.80625 0.28545 0.0
H1770 H 0.06544 0.81911 0.29432 0.0
H1771 H 0.05786 0.82366 0.26371 0.0
C1772 C 0.99372 0.63026 0.25061 0.0
C1773 C 0.98354 0.65537 0.24878 0.0
C1774 C 0.99143 0.61527 0.27258 0.0
C1775 C 0.97903 0.62569 0.29349 0.0
C1776 C 0.9686 0.65099 0.29172 0.0
C1777 C 0.97081 0.66538 0.26944 0.0
C1778 C 1.00244 0.58828 0.27344 0.0
C1779 C 0.95554 0.6631 0.31349 0.0
C1780 C 0.95297 0.58073 0.34749 0.0
C1781 C 0.97279 0.58246 0.36287 0.0
C1782 C 0.95494 0.59426 0.3248 0.0
C1783 C 0.97714 0.6103 0.31723 0.0
C1784 C 0.99731 0.61197 0.3326 0.0
C1785 C 0.99497 0.59797 0.35509 0.0
C1786 C 0.9331 0.59157 0.309 0.0
C1787 C 0.0212 0.62898 0.32547 0.0
H1788 H 1.00342 0.62224 0.23476 0.0
H1789 H 0.96321 0.68488 0.26835 0.0
H1790 H 0.01796 0.58716 0.28581 0.0
H1791 H 0.98696 0.57391 0.28054 0.0
H1792 H 0.01077 0.58264 0.25553 0.0
H1793 H 0.94836 0.68288 0.30918 0.0
H1794 H 0.93882 0.6507 0.32154 0.0
H1795 H 0.96947 0.6644 0.32727 0.0
H1796 H 0.93574 0.56882 0.35321 0.0
H1797 H 0.01035 0.59964 0.3668 0.0
H1798 H 0.94089 0.58497 0.29129 0.0
H1799 H 0.92413 0.61074 0.30578 0.0
H1800 H 0.91764 0.57758 0.31703 0.0
H1801 H 0.03121 0.62305 0.3083 0.0
H1802 H 0.03528 0.62802 0.33925 0.0
H1803 H 0.01536 0.64948 0.32255 0.0
C1804 C 0.2288 0.9996 0.17256 0.0
C1805 C 0.25453 0.00897 0.16813 0.0
C1806 C 0.21132 1.0024 0.1549 0.0
C1807 C 0.21974 0.01516 0.13235 0.0
C1808 C 0.24613 0.02356 0.12747 0.0
C1809 C 0.26322 0.02033 0.14543 0.0
C1810 C 0.18343 0.99307 0.1609 0.0
C1811 C 0.25593 0.03738 0.10381 0.0
C1812 C 0.17262 0.01422 0.08363 0.0
C1813 C 0.15889 0.03708 0.08774 0.0
C1814 C 0.19311 0.00701 0.09752 0.0
C1815 C 0.20006 0.02322 0.1156 0.0
C1816 C 0.18706 0.04694 0.11879 0.0
C1817 C 0.16667 0.05346 0.10495 0.0
C1818 C 0.20651 0.98157 0.0936 0.0
C1819 C 0.19395 0.06508 0.13752 0.0
H1820 H 0.22213 0.99086 0.19016 0.0
H1821 H 0.28319 0.02754 0.14207 0.0
H1822 H 0.17056 0.01007 0.16276 0.0
H1823 H 0.17694 0.98181 0.14624 0.0
H1824 H 0.18081 0.98073 0.17788 0.0
H1825 H 0.27754 0.03938 0.10155 0.0
H1826 H 0.24949 0.02685 0.08868 0.0
H1827 H 0.2476 0.05711 0.10275 0.0
H1828 H 0.16659 1.00147 0.07043 0.0
H1829 H 0.15634 0.07134 0.10799 0.0
H1830 H 0.20136 0.96786 0.10937 0.0
H1831 H 0.228 0.98447 0.09185 0.0
H1832 H 0.20081 0.9725 0.07736 0.0
H1833 H 0.18945 0.05542 0.15566 0.0
H1834 H 0.18306 0.08352 0.13669 0.0
H1835 H 0.21514 0.06983 0.13523 0.0
C1836 C 0.79964 0.51304 0.1426 0.0
C1837 C 0.77865 0.49521 0.14354 0.0
C1838 C 0.82114 0.51198 0.12531 0.0
C1839 C 0.82193 0.49246 0.10855 0.0
C1840 C 0.80032 0.47516 0.10862 0.0
C1841 C 0.77895 0.47674 0.12608 0.0
C1842 C 0.84375 0.53081 0.12595 0.0
C1843 C 0.80034 0.45408 0.09105 0.0
C1844 C 0.87682 0.49733 0.05734 0.0
C1845 C 0.89583 0.48189 0.06709 0.0
C1846 C 0.85233 0.5006 0.07032 0.0
C1847 C 0.84676 0.48796 0.09343 0.0
C1848 C 0.86564 0.47175 0.10292 0.0
C1849 C 0.88983 0.46899 0.08973 0.0
C1850 C 0.8327 0.51807 0.05964 0.0
C1851 C 0.86058 0.45772 0.12737 0.0
H1852 H 0.79991 0.52719 0.15612 0.0
H1853 H 0.76267 0.46317 0.12631 0.0
H1854 H 0.86063 0.52026 0.13234 0.0
H1855 H 0.84996 0.53949 0.10772 0.0
H1856 H 0.83885 0.54673 0.13803 0.0
H1857 H 0.7809 0.4444 0.09138 0.0
H1858 H 0.80636 0.46217 0.07258 0.0
H1859 H 0.8147 0.43916 0.09551 0.0
H1860 H 0.88128 0.50731 0.03986 0.0
H1861 H 0.90421 0.45673 0.09736 0.0
H1862 H 0.82952 0.53525 0.07052 0.0
H1863 H 0.81364 0.50772 0.06003 0.0
H1864 H 0.83917 0.52496 0.04086 0.0
H1865 H 0.85773 0.47207 0.14133 0.0
H1866 H 0.87687 0.44492 0.1317 0.0
H1867 H 0.84246 0.44568 0.12835 0.0
C1868 C 0.2347 0.97625 0.33792 0.0
C1869 C 0.23222 0.99494 0.31907 0.0
C1870 C 0.21438 0.97121 0.35636 0.0
C1871 C 0.19085 0.9851 0.35603 0.0
C1872 C 0.18879 0.00495 0.33779 0.0
C1873 C 0.2094 0.0096 0.31959 0.0
C1874 C 0.21757 0.94996 0.37544 0.0
C1875 C 0.16409 0.02019 0.33656 0.0
C1876 C 0.12764 0.94892 0.37804 0.0
C1877 C 0.1202 0.95954 0.40015 0.0
C1878 C 0.15062 0.95681 0.36398 0.0
C1879 C 0.16706 0.97595 0.372 0.0
C1880 C 0.1602 0.98641 0.3946 0.0
C1881 C 0.13682 0.97804 0.40848 0.0
C1882 C 0.15699 0.94489 0.34017 0.0
C1883 C 0.17727 0.00679 0.40382 0.0
H1884 H 0.25241 0.96517 0.33806 0.0
H1885 H 0.20708 0.02397 0.30512 0.0
H1886 H 0.21095 0.95653 0.39346 0.0
H1887 H 0.20526 0.93287 0.37239 0.0
H1888 H 0.23812 0.94367 0.37534 0.0
H1889 H 0.16676 0.03719 0.32341 0.0
H1890 H 0.14845 0.00738 0.33121 0.0
H1891 H 0.15732 0.02712 0.3544 0.0
H1892 H 0.11526 0.93436 0.37142 0.0
H1893 H 0.13132 0.98635 0.42548 0.0
H1894 H 0.17644 0.93586 0.33956 0.0
H1895 H 0.1578 0.96022 0.3254 0.0
H1896 H 0.1424 0.92983 0.33676 0.0
H1897 H 0.1976 0.99996 0.40365 0.0
H1898 H 0.17025 0.01174 0.42231 0.0
H1899 H 0.1777 0.02472 0.39184 0.0
C1900 C 0.78624 0.47962 0.29884 0.0
C1901 C 0.76092 0.48845 0.29749 0.0
C1902 C 0.79841 0.48152 0.31989 0.0
C1903 C 0.78503 0.49317 0.33966 0.0
C1904 C 0.75883 0.50076 0.33876 0.0
C1905 C 0.74704 0.49828 0.31756 0.0
C1906 C 0.82627 0.47291 0.32027 0.0
C1907 C 0.74397 0.51342 0.35935 0.0
C1908 C 0.82043 0.49179 0.39581 0.0
C1909 C 0.83566 0.51471 0.39167 0.0
C1910 C 0.80275 0.4849 0.37961 0.0
C1911 C 0.80006 0.50154 0.35911 0.0
C1912 C 0.81407 0.52544 0.35568 0.0
C1913 C 0.83191 0.53153 0.37176 0.0
C1914 C 0.78808 0.45924 0.38374 0.0
C1915 C 0.81146 0.54393 0.33416 0.0
H1916 H 0.79688 0.47225 0.2831 0.0
H1917 H 0.72735 0.50507 0.31626 0.0
H1918 H 0.83943 0.49025 0.31919 0.0
H1919 H 0.82882 0.4616 0.33727 0.0
H1920 H 0.83242 0.46083 0.30503 0.0
H1921 H 0.72263 0.51316 0.35783 0.0
H1922 H 0.74767 0.50365 0.37678 0.0
H1923 H 0.75066 0.53398 0.35942 0.0
H1924 H 0.82282 0.47886 0.41132 0.0
H1925 H 0.84389 0.54897 0.36788 0.0
H1926 H 0.79624 0.44558 0.37052 0.0
H1927 H 0.76721 0.46172 0.381 0.0
H1928 H 0.7895 0.45031 0.40204 0.0
H1929 H 0.81999 0.53515 0.31766 0.0
H1930 H 0.82153 0.5629 0.33554 0.0
H1931 H 0.79061 0.54756 0.33206 0.0
C1932 C 0.19301 0.24375 0.00796 0.0
C1933 C 0.21938 0.2413 0.01173 0.0
C1934 C 0.17543 0.22253 0.01259 0.0
C1935 C 0.18434 0.19833 0.02158 0.0
C1936 C 0.21103 0.19581 0.02539 0.0
C1937 C 0.22823 0.21734 0.02043 0.0
C1938 C 0.14724 0.22612 0.00818 0.0
C1939 C 0.22134 0.17047 0.0351 0.0
C1940 C 0.13503 0.15029 0.05574 0.0
C1941 C 0.13142 0.1322 0.03854 0.0
C1942 C 0.15202 0.17194 0.05043 0.0
C1943 C 0.16568 0.17578 0.0273 0.0
C1944 C 0.16169 0.1579 0.00971 0.0
C1945 C 0.14472 0.13634 0.01555 0.0
C1946 C 0.15573 0.19045 0.06974 0.0
C1947 C 0.17564 0.16134 0.98479 0.0
H1948 H 0.18608 0.26247 1.0017 0.0
H1949 H 0.24854 0.21562 0.02369 0.0
H1950 H 0.14129 0.21161 0.99582 0.0
H1951 H 0.1346 0.2228 0.02527 0.0
H1952 H 0.14361 0.24589 1.00038 0.0
H1953 H 0.24263 0.17156 0.03674 0.0
H1954 H 0.21108 0.165 0.05303 0.0
H1955 H 0.21745 0.1547 0.02322 0.0
H1956 H 0.125 0.14725 0.07359 0.0
H1957 H 0.14213 0.12253 1.0021 0.0
H1958 H 0.15093 0.21049 0.06354 0.0
H1959 H 0.17646 0.19078 0.07353 0.0
H1960 H 0.1434 0.18501 0.08668 0.0
H1961 H 0.17145 0.18071 0.97651 0.0
H1962 H 0.16986 0.14618 0.97294 0.0
H1963 H 0.19703 0.16054 0.98571 0.0
C1964 C 0.16636 0.76873 0.48333 0.0
C1965 C 0.19206 0.77524 0.47394 0.0
C1966 C 0.14528 0.78466 0.4782 0.0
C1967 C 0.14989 0.808 0.46362 0.0
C1968 C 0.17578 0.81452 0.45393 0.0
C1969 C 0.19642 0.79803 0.45903 0.0
C1970 C 0.11806 0.77662 0.48862 0.0
C1971 C 0.18182 0.83933 0.43865 0.0
C1972 C 0.09482 0.84398 0.43493 0.0
C1973 C 0.0891 0.86369 0.45079 0.0
C1974 C 0.11392 0.82526 0.43919 0.0
C1975 C 0.12801 0.82638 0.45963 0.0
C1976 C 0.12188 0.84588 0.47594 0.0
C1977 C 0.10251 0.86405 0.47143 0.0
C1978 C 0.11946 0.80462 0.42151 0.0
C1979 C 0.13643 0.84816 0.49782 0.0
H1980 H 0.1627 0.75102 0.4946 0.0
H1981 H 0.21618 0.80339 0.45185 0.0
H1982 H 0.11042 0.79095 0.50141 0.0
H1983 H 0.1048 0.77643 0.4742 0.0
H1984 H 0.11742 0.7571 0.49816 0.0
H1985 H 0.20278 0.84128 0.43186 0.0
H1986 H 0.17004 0.84008 0.42312 0.0
H1987 H 0.17646 0.85631 0.44926 0.0
H1988 H 0.08473 0.84345 0.4189 0.0
H1989 H 0.0985 0.87917 0.48384 0.0
H1990 H 0.11843 0.78507 0.43098 0.0
H1991 H 0.13952 0.80745 0.41253 0.0
H1992 H 0.10556 0.80505 0.40757 0.0
H1993 H 0.13494 0.82959 0.50892 0.0
H1994 H 0.12893 0.86395 0.5091 0.0
H1995 H 0.15744 0.85209 0.49223 0.0
C1996 C 0.8661 0.71914 0.49951 0.0
C1997 C 0.8442 0.72039 0.48641 0.0
C1998 C 0.88519 0.70012 0.49545 0.0
C1999 C 0.88256 0.68214 0.47764 0.0
C2000 C 0.86073 0.68352 0.46419 0.0
C2001 C 0.84175 0.70229 0.46894 0.0
C2002 C 0.90793 0.69899 0.51046 0.0
C2003 C 0.85711 0.66484 0.44496 0.0
C2004 C 0.9382 0.64217 0.44994 0.0
C2005 C 0.93125 0.61736 0.46026 0.0
C2006 C 0.92334 0.66392 0.45634 0.0
C2007 C 0.90152 0.66072 0.47382 0.0
C2008 C 0.89583 0.63594 0.48553 0.0
C2009 C 0.9105 0.61453 0.47833 0.0
C2010 C 0.92983 0.68988 0.44314 0.0
C2011 C 0.87322 0.63164 0.50465 0.0
H2012 H 0.86845 0.73311 0.51286 0.0
H2013 H 0.82469 0.70244 0.45909 0.0
H2014 H 0.90761 0.68002 0.52092 0.0
H2015 H 0.92658 0.70037 0.49875 0.0
H2016 H 0.90761 0.7148 0.5231 0.0
H2017 H 0.84013 0.66972 0.43489 0.0
H2018 H 0.87486 0.66489 0.43206 0.0
H2019 H 0.85414 0.64479 0.45317 0.0
H2020 H 0.95412 0.64427 0.4358 0.0
H2021 H 0.90523 0.59531 0.48639 0.0
H2022 H 0.92975 0.70555 0.45586 0.0
H2023 H 0.91473 0.69448 0.43081 0.0
H2024 H 0.94915 0.68998 0.43244 0.0
H2025 H 0.87318 0.6469 0.5178 0.0
H2026 H 0.8738 0.6123 0.5144 0.0
H2027 H 0.85461 0.63292 0.49629 0.0
C2028 C 0.32677 0.81196 0.51371 0.0
C2029 C 0.33606 0.78733 0.5086 0.0
C2030 C 0.3441 0.83224 0.51758 0.0
C2031 C 0.37129 0.82771 0.51605 0.0
C2032 C 0.38066 0.80272 0.51102 0.0
C2033 C 0.36288 0.78276 0.50763 0.0
C2034 C 0.33335 0.85851 0.52325 0.0
C2035 C 0.40945 0.79715 0.509 0.0
C2036 C 0.41619 0.88693 0.50283 0.0
C2037 C 0.4236 0.89148 0.52563 0.0
C2038 C 0.39967 0.86589 0.49939 0.0
C2039 C 0.38997 0.84922 0.51928 0.0
C2040 C 0.39783 0.85337 0.54226 0.0
C2041 C 0.41473 0.87435 0.54513 0.0
C2042 C 0.39215 0.86183 0.47453 0.0
C2043 C 0.38771 0.83617 0.56395 0.0
H2044 H 0.30597 0.81526 0.51472 0.0
H2045 H 0.36991 0.7635 0.50404 0.0
H2046 H 0.33981 0.86442 0.54046 0.0
H2047 H 0.34105 0.87336 0.50914 0.0
H2048 H 0.3117 0.85861 0.52456 0.0
H2049 H 0.41351 0.77667 0.50493 0.0
H2050 H 0.41985 0.81017 0.49463 0.0
H2051 H 0.41767 0.80116 0.52597 0.0
H2052 H 0.42302 0.90008 0.48768 0.0
H2053 H 0.42016 0.87791 0.56284 0.0
H2054 H 0.37083 0.86422 0.47416 0.0
H2055 H 0.39669 0.84174 0.46957 0.0
H2056 H 0.40242 0.87572 0.46078 0.0
H2057 H 0.36617 0.83754 0.56695 0.0
H2058 H 0.39622 0.84157 0.58045 0.0
H2059 H 0.39217 0.81556 0.56091 0.0
C2060 C 0.51209 0.71498 0.77156 0.0
C2061 C 0.52608 0.71083 0.79157 0.0
C2062 C 0.513 0.69714 0.75347 0.0
C2063 C 0.52868 0.67483 0.75523 0.0
C2064 C 0.54262 0.67047 0.7756 0.0
C2065 C 0.54092 0.68837 0.79363 0.0
C2066 C 0.49745 0.70233 0.73233 0.0
C2067 C 0.55989 0.64723 0.77806 0.0
C2068 C 0.51932 0.6173 0.71669 0.0
C2069 C 0.53892 0.62215 0.69767 0.0
C2070 C 0.5154 0.63446 0.73532 0.0
C2071 C 0.53169 0.65687 0.73519 0.0
C2072 C 0.55132 0.662 0.71598 0.0
C2073 C 0.55445 0.64485 0.69741 0.0
C2074 C 0.49397 0.6285 0.75526 0.0
C2075 C 0.56928 0.68552 0.71516 0.0
H2076 H 0.50051 0.7323 0.77006 0.0
H2077 H 0.55151 0.68504 0.80925 0.0
H2078 H 0.51087 0.70578 0.71573 0.0
H2079 H 0.48504 0.68512 0.72987 0.0
H2080 H 0.4848 0.71948 0.73448 0.0
H2081 H 0.56894 0.6463 0.79524 0.0
H2082 H 0.54846 0.62903 0.77696 0.0
H2083 H 0.57564 0.64805 0.76306 0.0
H2084 H 0.50728 0.59983 0.7173 0.0
H2085 H 0.56915 0.6494 0.68256 0.0
H2086 H 0.48092 0.64536 0.75713 0.0
H2087 H 0.50252 0.62511 0.77252 0.0
H2088 H 0.48209 0.6111 0.75214 0.0
H2089 H 0.55776 0.70354 0.71492 0.0
H2090 H 0.58386 0.68653 0.69918 0.0
H2091 H 0.57982 0.6851 0.73148 0.0
C2092 C 0.52929 0.8546 0.75272 0.0
C2093 C 0.51 0.85498 0.77214 0.0
C2094 C 0.52608 0.86791 0.73078 0.0
C2095 C 0.50291 0.88173 0.72813 0.0
C2096 C 0.48384 0.88312 0.74791 0.0
C2097 C 0.48766 0.86978 0.76973 0.0
C2098 C 0.54691 0.8661 0.71011 0.0
C2099 C 0.45887 0.89767 0.7457 0.0
C2100 C 0.50034 0.92823 0.67348 0.0
C2101 C 0.48809 0.91263 0.65806 0.0
C2102 C 0.50527 0.9185 0.69643 0.0
C2103 C 0.49763 0.89265 0.70411 0.0
C2104 C 0.48524 0.87684 0.68864 0.0
C2105 C 0.48075 0.88698 0.66578 0.0
C2106 C 0.51866 0.93582 0.71245 0.0
C2107 C 0.47682 0.84914 0.6962 0.0
H2108 H 0.54645 0.84294 0.7543 0.0
H2109 H 0.47289 0.8705 0.78479 0.0
H2110 H 0.53936 0.85443 0.6962 0.0
H2111 H 0.55215 0.88571 0.70167 0.0
H2112 H 0.56486 0.85688 0.71578 0.0
H2113 H 0.44707 0.89873 0.76325 0.0
H2114 H 0.4632 0.91772 0.73793 0.0
H2115 H 0.44696 0.88783 0.73334 0.0
H2116 H 0.50579 0.94816 0.66771 0.0
H2117 H 0.47169 0.87468 0.65381 0.0
H2118 H 0.537 0.92683 0.71734 0.0
H2119 H 0.50603 0.93794 0.72936 0.0
H2120 H 0.52336 0.95547 0.70378 0.0
H2121 H 0.49404 0.83755 0.70015 0.0
H2122 H 0.4669 0.83965 0.68221 0.0
H2123 H 0.46334 0.84867 0.71288 0.0
C2124 C 0.50472 0.36126 0.73427 0.0
C2125 C 0.51585 0.33836 0.74291 0.0
C2126 C 0.50581 0.38406 0.74658 0.0
C2127 C 0.51827 0.38361 0.76794 0.0
C2128 C 0.53003 0.36056 0.77637 0.0
C2129 C 0.52873 0.33823 0.76364 0.0
C2130 C 0.49388 0.40842 0.73656 0.0
C2131 C 0.54331 0.35914 0.79926 0.0
C2132 C 0.54495 0.43457 0.8032 0.0
C2133 C 0.52723 0.43165 0.82379 0.0
C2134 C 0.54022 0.4221 0.78252 0.0
C2135 C 0.51766 0.40614 0.78299 0.0
C2136 C 0.49788 0.40672 0.80223 0.0
C2137 C 0.50295 0.4195 0.82258 0.0
C2138 C 0.56088 0.42318 0.76152 0.0
C2139 C 0.47306 0.39068 0.80287 0.0
H2140 H 0.49519 0.36128 0.7179 0.0
H2141 H 0.53719 0.32039 0.77026 0.0
H2142 H 0.48544 0.42061 0.75089 0.0
H2143 H 0.50931 0.42015 0.72547 0.0
H2144 H 0.4784 0.40377 0.72494 0.0
H2145 H 0.55148 0.33968 0.80313 0.0
H2146 H 0.55943 0.37378 0.79806 0.0
H2147 H 0.5292 0.36357 0.81464 0.0
H2148 H 0.56335 0.44482 0.80388 0.0
H2149 H 0.48901 0.41751 0.83836 0.0
H2150 H 0.55184 0.4234 0.74437 0.0
H2151 H 0.57303 0.40561 0.76261 0.0
H2152 H 0.57385 0.44059 0.76144 0.0
H2153 H 0.46515 0.39204 0.78517 0.0
H2154 H 0.45789 0.39694 0.81669 0.0
H2155 H 0.47732 0.36996 0.80714 0.0
C2156 C 0.50235 0.15894 0.75729 0.0
C2157 C 0.49715 0.18557 0.75798 0.0
C2158 C 0.49958 0.1423 0.77829 0.0
C2159 C 0.49097 0.15233 0.80065 0.0
C2160 C 0.48512 0.17916 0.8013 0.0
C2161 C 0.48825 0.19539 0.78 0.0
C2162 C 0.50605 0.11397 0.77655 0.0
C2163 C 0.47565 0.19077 0.82455 0.0
C2164 C 0.46168 0.10551 0.8523 0.0
C2165 C 0.48236 0.10266 0.86681 0.0
C2166 C 0.46425 0.12136 0.83079 0.0
C2167 C 0.48813 0.13481 0.8233 0.0
C2168 C 0.50923 0.13162 0.83761 0.0
C2169 C 0.50609 0.11574 0.85911 0.0
C2170 C 0.44118 0.1241 0.81628 0.0
C2171 C 0.53511 0.14533 0.83037 0.0
H2172 H 0.50881 0.15116 0.74023 0.0
H2173 H 0.48395 0.21589 0.78058 0.0
H2174 H 0.52175 0.10885 0.78809 0.0
H2175 H 0.48875 0.10164 0.78319 0.0
H2176 H 0.51253 0.10916 0.7579 0.0
H2177 H 0.47155 0.21181 0.82207 0.0
H2178 H 0.45761 0.18045 0.83268 0.0
H2179 H 0.49052 0.18824 0.83748 0.0
H2180 H 0.44318 0.09572 0.858 0.0
H2181 H 0.52221 0.11388 0.87009 0.0
H2182 H 0.44658 0.11835 0.79775 0.0
H2183 H 0.43532 0.14473 0.815 0.0
H2184 H 0.42412 0.11204 0.82422 0.0
H2185 H 0.54281 0.14015 0.81215 0.0
H2186 H 0.54984 0.14034 0.84299 0.0
H2187 H 0.53247 0.16668 0.82964 0.0
C2188 C 0.75405 0.51721 0.65686 0.0
C2189 C 0.75023 0.5065 0.68047 0.0
C2190 C 0.73329 0.51892 0.64238 0.0
C2191 C 0.7082 0.5093 0.65166 0.0
C2192 C 0.70465 0.49724 0.67512 0.0
C2193 C 0.72565 0.49623 0.68933 0.0
C2194 C 0.73788 0.5323 0.61767 0.0
C2195 C 0.67835 0.48649 0.68565 0.0
C2196 C 0.64811 0.54235 0.63152 0.0
C2197 C 0.63904 0.52489 0.6158 0.0
C2198 C 0.67094 0.53781 0.6426 0.0
C2199 C 0.68504 0.51492 0.63827 0.0
C2200 C 0.67637 0.49738 0.62199 0.0
C2201 C 0.65354 0.50272 0.61071 0.0
C2202 C 0.67965 0.55735 0.65939 0.0
C2203 C 0.69073 0.47265 0.61713 0.0
H2204 H 0.77315 0.52503 0.65003 0.0
H2205 H 0.72275 0.48792 0.7076 0.0
H2206 H 0.72977 0.52035 0.60426 0.0
H2207 H 0.72763 0.55109 0.61742 0.0
H2208 H 0.75893 0.53618 0.61215 0.0
H2209 H 0.67955 0.47491 0.70282 0.0
H2210 H 0.66483 0.50273 0.68903 0.0
H2211 H 0.66979 0.47403 0.67285 0.0
H2212 H 0.63721 0.55974 0.63528 0.0
H2213 H 0.64656 0.48915 0.59863 0.0
H2214 H 0.70019 0.56354 0.65401 0.0
H2215 H 0.67878 0.54829 0.67787 0.0
H2216 H 0.66736 0.57489 0.6597 0.0
H2217 H 0.71162 0.47704 0.61145 0.0
H2218 H 0.68239 0.46177 0.60306 0.0
H2219 H 0.68981 0.45994 0.63384 0.0
C2220 C 0.27309 0.99484 0.63784 0.0
C2221 C 0.27889 1.00277 0.66023 0.0
C2222 C 0.29293 0.99201 0.61914 0.0
C2223 C 0.31919 0.99776 0.62274 0.0
C2224 C 0.32494 0.00687 0.64505 0.0
C2225 C 0.30473 0.00921 0.66353 0.0
C2226 C 0.28587 0.98206 0.59582 0.0
C2227 C 0.35257 0.01348 0.64963 0.0
C2228 C 0.37463 0.96245 0.58961 0.0
C2229 C 0.38502 0.98138 0.57218 0.0
C2230 C 0.35269 0.96725 0.60543 0.0
C2231 C 0.34088 0.99186 0.60419 0.0
C2232 C 0.35066 0.01083 0.58603 0.0
C2233 C 0.37255 0.00528 0.57006 0.0
C2234 C 0.34278 0.94622 0.6241 0.0
C2235 C 0.33877 0.03736 0.5842 0.0
H2236 H 0.25299 0.99047 0.63512 0.0
H2237 H 0.30911 0.0158 0.6807 0.0
H2238 H 0.29403 0.99524 0.58052 0.0
H2239 H 0.29456 0.96271 0.59329 0.0
H2240 H 0.26444 0.98019 0.59525 0.0
H2241 H 0.35354 0.02237 0.66708 0.0
H2242 H 0.3643 0.99558 0.64961 0.0
H2243 H 0.36171 0.02713 0.63512 0.0
H2244 H 0.38416 0.94387 0.59126 0.0
H2245 H 0.3807 0.02007 0.55681 0.0
H2246 H 0.32156 0.94277 0.62351 0.0
H2247 H 0.34564 0.95253 0.64223 0.0
H2248 H 0.35295 0.92757 0.62157 0.0
H2249 H 0.31734 0.03557 0.58384 0.0
H2250 H 0.34707 0.04912 0.56796 0.0
H2251 H 0.34232 0.04796 0.60025 0.0
C2252 C 0.7254 0.51993 0.82813 0.0
C2253 C 0.74723 0.50388 0.82675 0.0
C2254 C 0.70576 0.51682 0.84735 0.0
C2255 C 0.70787 0.49712 0.86571 0.0
C2256 C 0.73071 0.48208 0.86529 0.0
C2257 C 0.75005 0.48559 0.84583 0.0
C2258 C 0.68177 0.53327 0.84697 0.0
C2259 C 0.73391 0.46101 0.88453 0.0
C2260 C 0.6552 0.49288 0.91916 0.0
C2261 C 0.63738 0.47531 0.91121 0.0
C2262 C 0.67867 0.49992 0.90487 0.0
C2263 C 0.68434 0.489 0.88233 0.0
C2264 C 0.66677 0.47057 0.87481 0.0
C2265 C 0.64372 0.46401 0.88926 0.0
C2266 C 0.69702 0.51953 0.91353 0.0
C2267 C 0.6719 0.45816 0.85109 0.0
H2268 H 0.72289 0.53404 0.8135 0.0
H2269 H 0.76711 0.47349 0.84525 0.0
H2270 H 0.66523 0.52124 0.8422 0.0
H2271 H 0.67614 0.54049 0.86493 0.0
H2272 H 0.68475 0.55016 0.83372 0.0
H2273 H 0.75432 0.45422 0.88397 0.0
H2274 H 0.72804 0.46796 0.90256 0.0
H2275 H 0.72105 0.44416 0.882 0.0
H2276 H 0.65048 0.50164 0.93609 0.0
H2277 H 0.63037 0.45003 0.88307 0.0
H2278 H 0.69728 0.5377 0.9019 0.0
H2279 H 0.7172 0.51214 0.91226 0.0
H2280 H 0.69121 0.52426 0.93233 0.0
H2281 H 0.67288 0.47334 0.83616 0.0
H2282 H 0.65655 0.44364 0.84821 0.0
H2283 H 0.69096 0.44835 0.85012 0.0
C2284 C 0.26512 0.98828 0.82554 0.0
C2285 C 0.27642 1.00306 0.80529 0.0
C2286 C 0.27632 0.9881 0.8473 0.0
C2287 C 0.29916 1.00318 0.8487 0.0
C2288 C 0.31099 0.01757 0.82811 0.0
C2289 C 0.29944 0.01731 0.80664 0.0
C2290 C 0.26322 0.97253 0.86886 0.0
C2291 C 0.33563 0.03365 0.82885 0.0
C2292 C 0.32193 0.03279 0.90248 0.0
C2293 C 0.34451 0.01853 0.90514 0.0
C2294 C 0.30485 0.02606 0.88584 0.0
C2295 C 0.31081 0.00478 0.87159 0.0
C2296 C 0.33168 0.98842 0.87643 0.0
C2297 C 0.34838 0.99552 0.89323 0.0
C2298 C 0.28219 0.04344 0.88163 0.0
C2299 C 0.33827 0.96523 0.86191 0.0
H2300 H 0.24712 0.97746 0.82455 0.0
H2301 H 0.30831 0.02845 0.79089 0.0
H2302 H 0.27776 0.96269 0.87939 0.0
H2303 H 0.25216 0.98582 0.88077 0.0
H2304 H 0.24939 0.95765 0.86364 0.0
H2305 H 0.34262 0.04314 0.81107 0.0
H2306 H 0.33211 0.04898 0.8418 0.0
H2307 H 0.35135 0.02122 0.83504 0.0
H2308 H 0.31868 0.05028 0.9121 0.0
H2309 H 0.36581 0.98439 0.89527 0.0
H2310 H 0.26458 0.03173 0.87903 0.0
H2311 H 0.28716 0.05606 0.86507 0.0
H2312 H 0.27749 0.05609 0.89676 0.0
H2313 H 0.32036 0.95427 0.8588 0.0
H2314 H 0.35154 0.95185 0.87084 0.0
H2315 H 0.3481 0.97206 0.84414 0.0
C2316 C 0.67167 0.72286 0.5181 0.0
C2317 C 0.69844 0.71989 0.51993 0.0
C2318 C 0.65357 0.7026 0.52574 0.0
C2319 C 0.66234 0.67882 0.53587 0.0
C2320 C 0.68943 0.67576 0.53767 0.0
C2321 C 0.70711 0.69629 0.52967 0.0
C2322 C 0.625 0.70679 0.5233 0.0
C2323 C 0.69971 0.65092 0.54846 0.0
C2324 C 0.6143 0.63485 0.57691 0.0
C2325 C 0.60852 0.61523 0.56179 0.0
C2326 C 0.63153 0.65571 0.56869 0.0
C2327 C 0.64322 0.65724 0.54468 0.0
C2328 C 0.63694 0.63783 0.5292 0.0
C2329 C 0.61985 0.61711 0.53792 0.0
C2330 C 0.6377 0.67584 0.58589 0.0
C2331 C 0.64864 0.63872 0.50344 0.0
H2332 H 0.66483 0.74131 0.51109 0.0
H2333 H 0.72774 0.69412 0.53147 0.0
H2334 H 0.6172 0.69132 0.51288 0.0
H2335 H 0.61388 0.70549 0.54128 0.0
H2336 H 0.62142 0.72598 0.51429 0.0
H2337 H 0.72128 0.65146 0.54839 0.0
H2338 H 0.69091 0.6474 0.56722 0.0
H2339 H 0.69406 0.63419 0.53838 0.0
H2340 H 0.60587 0.63358 0.5954 0.0
H2341 H 0.61559 0.60213 0.52602 0.0
H2342 H 0.63309 0.69551 0.57856 0.0
H2343 H 0.65886 0.67584 0.58811 0.0
H2344 H 0.62665 0.67227 0.60381 0.0
H2345 H 0.6444 0.65757 0.49419 0.0
H2346 H 0.64107 0.62275 0.49343 0.0
H2347 H 0.67015 0.63726 0.50277 0.0
C2348 C 0.67959 0.28113 0.97594 0.0
C2349 C 0.70513 0.28909 0.96734 0.0
C2350 C 0.65816 0.29716 0.97236 0.0
C2351 C 0.66233 0.32204 0.96031 0.0
C2352 C 0.68808 0.33003 0.95138 0.0
C2353 C 0.70905 0.31342 0.95481 0.0
C2354 C 0.63109 0.28761 0.9818 0.0
C2355 C 0.69362 0.35652 0.93885 0.0
C2356 C 0.60743 0.36204 0.93587 0.0
C2357 C 0.60192 0.37939 0.954 0.0
C2358 C 0.62625 0.34256 0.93804 0.0
C2359 C 0.64024 0.34059 0.95862 0.0
C2360 C 0.63411 0.3575 0.97725 0.0
C2361 C 0.61501 0.37641 0.97481 0.0
C2362 C 0.63177 0.32461 0.91795 0.0
C2363 C 0.6486 0.35646 0.99941 0.0
H2364 H 0.67634 0.26222 0.98535 0.0
H2365 H 0.72872 0.31982 0.94827 0.0
H2366 H 0.62323 0.29974 0.99642 0.0
H2367 H 0.6178 0.28951 0.96742 0.0
H2368 H 0.63081 0.267 0.98885 0.0
H2369 H 0.71453 0.35948 0.93219 0.0
H2370 H 0.68177 0.35922 0.92346 0.0
H2371 H 0.68799 0.37182 0.95138 0.0
H2372 H 0.59756 0.36412 0.9197 0.0
H2373 H 0.61108 0.38962 0.98901 0.0
H2374 H 0.63135 0.30409 0.92517 0.0
H2375 H 0.6516 0.32884 0.90889 0.0
H2376 H 0.6175 0.32675 0.90439 0.0
H2377 H 0.64731 0.33659 0.00818 0.0
H2378 H 0.64091 0.37034 0.01266 0.0
H2379 H 0.66957 0.36112 0.9943 0.0
C2380 C 0.3849 0.25097 0.97376 0.0
C2381 C 0.36562 0.24816 0.99324 0.0
C2382 C 0.40223 0.23088 0.96839 0.0
C2383 C 0.40037 0.20745 0.98296 0.0
C2384 C 0.38239 0.20534 0.00378 0.0
C2385 C 0.36516 0.2257 0.00864 0.0
C2386 C 0.42113 0.234 0.94608 0.0
C2387 C 0.37995 0.1808 0.01992 0.0
C2388 C 0.41371 0.14478 0.95232 0.0
C2389 C 0.43855 0.13837 0.95879 0.0
C2390 C 0.40139 0.16734 0.95984 0.0
C2391 C 0.41407 0.18396 0.97443 0.0
C2392 C 0.43932 0.17788 0.98081 0.0
C2393 C 0.45137 0.15516 0.97279 0.0
C2394 C 0.3746 0.17322 0.95233 0.0
C2395 C 0.45334 0.19506 0.99647 0.0
H2396 H 0.38577 0.26854 0.96209 0.0
H2397 H 0.35031 0.2233 0.02369 0.0
H2398 H 0.44076 0.22725 0.9498 0.0
H2399 H 0.41434 0.22184 0.93215 0.0
H2400 H 0.42284 0.25449 0.9387 0.0
H2401 H 0.3681 0.18365 0.03715 0.0
H2402 H 0.37047 0.16526 0.01075 0.0
H2403 H 0.39948 0.17387 0.0238 0.0
H2404 H 0.40374 0.13204 0.94134 0.0
H2405 H 0.47053 0.15026 0.97793 0.0
H2406 H 0.37479 0.19266 0.94273 0.0
H2407 H 0.36031 0.17368 0.9684 0.0
H2408 H 0.36773 0.15861 0.94045 0.0
H2409 H 0.45472 0.21531 0.98854 0.0
H2410 H 0.4733 0.18825 0.99899 0.0
H2411 H 0.44208 0.1955 0.01432 0.0
C2412 C 0.85166 0.31587 0.00588 0.0
C2413 C 0.86062 0.29165 0.99907 0.0
C2414 C 0.86925 0.33565 0.01019 0.0
C2415 C 0.89641 0.33109 0.00729 0.0
C2416 C 0.90551 0.30658 1.00034 0.0
C2417 C 0.88742 0.28706 0.99638 0.0
C2418 C 0.85877 0.36147 0.01769 0.0
C2419 C 0.93428 0.3011 0.99686 0.0
C2420 C 0.93814 0.39245 0.99604 0.0
C2421 C 0.94516 0.39655 0.01906 0.0
C2422 C 0.92333 0.37051 0.99172 0.0
C2423 C 0.91514 0.35234 0.01093 0.0
C2424 C 0.92324 0.35568 0.03396 0.0
C2425 C 0.93828 0.37772 0.03774 0.0
C2426 C 0.91537 0.36747 0.96683 0.0
C2427 C 0.91482 0.33675 0.0549 0.0
H2428 H 0.83086 0.31925 0.00784 0.0
H2429 H 0.89417 0.26821 0.99108 0.0
H2430 H 0.86604 0.36625 0.0349 0.0
H2431 H 0.86586 0.3771 0.0041 0.0
H2432 H 0.83711 0.36156 0.01986 0.0
H2433 H 0.93811 0.28088 0.9918 0.0
H2434 H 0.944 0.31475 0.98263 0.0
H2435 H 0.9434 0.30431 0.01357 0.0
H2436 H 0.94353 0.40684 0.98148 0.0
H2437 H 0.94357 0.38081 0.05559 0.0
H2438 H 0.89401 0.36998 0.96692 0.0
H2439 H 0.91977 0.34765 0.96105 0.0
H2440 H 0.92539 0.38189 0.95343 0.0
H2441 H 0.89342 0.33786 0.05941 0.0
H2442 H 0.92463 0.34083 0.07108 0.0
H2443 H 0.91906 0.31655 0.05015 0.0
loop_
_geom_bond_atom_site_label_1
_geom_bond_atom_site_label_2
_geom_bond_distance
_geom_bond_site_symmetry_2
_ccdc_geom_bond_type
C0 C1 1.443 . S
C0 N4 1.376 . S
C0 C38 1.389 . S
C1 C0 1.443 . S
C1 C2 1.340 . S
C1 H41 0.951 . S
C2 C1 1.340 . S
C2 C3 1.439 . S
C2 H42 0.950 . S
C3 C2 1.439 . S
C3 N4 1.374 . S
C3 C37 1.395 . S
N4 C0 1.376 . S
N4 C3 1.374 . S
N4 Co5 2.008 1_655 S
Co5 N4 2.008 1_455 S
Co5 N6 1.995 1_455 S
Co5 N11 2.008 . S
Co5 N16 1.995 . S
Co5 N21 2.282 . S
Co5 N27 2.282 . S
N6 Co5 1.995 1_655 S
N6 C7 1.376 . S
N6 C10 1.383 . S
C7 N6 1.376 . S
C7 C8 1.446 . S
C7 C37 1.391 . S
C8 C7 1.446 . S
C8 C9 1.339 . S
C8 H43 0.949 . S
C9 C8 1.339 . S
C9 C10 1.439 . S
C9 H44 0.950 . S
C10 N6 1.383 . S
C10 C9 1.439 . S
C10 C39 1.392 1_655 S
N11 Co5 2.008 . S
N11 C12 1.376 . S
N11 C15 1.374 . S
C12 N11 1.376 . S
C12 C13 1.443 . S
C12 C39 1.389 . S
C13 C12 1.443 . S
C13 C14 1.340 . S
C13 H45 0.951 . S
C14 C13 1.340 . S
C14 C15 1.439 . S
C14 H46 0.950 . S
C15 N11 1.374 . S
C15 C14 1.439 . S
C15 C40 1.395 . S
N16 Co5 1.995 . S
N16 C17 1.376 . S
N16 C20 1.383 . S
C17 N16 1.376 . S
C17 C18 1.446 . S
C17 C40 1.391 . S
C18 C17 1.446 . S
C18 C19 1.339 . S
C18 H47 0.949 . S
C19 C18 1.339 . S
C19 C20 1.439 . S
C19 H48 0.950 . S
C20 N16 1.383 . S
C20 C19 1.439 . S
C20 C38 1.392 1_455 S
N21 Co5 2.282 . S
N21 C24 1.332 . S
N21 C26 1.332 1_455 S
C22 C23 1.386 . S
C22 C25 1.388 1_455 S
C23 C22 1.386 . S
C23 C24 1.382 . S
C23 H49 0.950 . S
C24 N21 1.332 . S
C24 C23 1.382 . S
C24 H35 0.952 . S
C25 C22 1.388 1_655 S
C25 C26 1.382 . S
C25 H50 0.950 . S
C26 N21 1.332 1_655 S
C26 C25 1.382 . S
C26 H36 0.948 . S
N27 Co5 2.282 . S
N27 C31 1.332 1_455 S
N27 C32 1.332 . S
C28 C29 1.388 1_455 S
C28 C32 1.382 . S
C28 H51 0.950 . S
C29 C28 1.388 1_655 S
C29 C30 1.386 . S
C30 C29 1.386 . S
C30 C31 1.382 . S
C30 H52 0.950 . S
C31 N27 1.332 1_655 S
C31 C30 1.382 . S
C31 H33 0.952 . S
C32 N27 1.332 . S
C32 C28 1.382 . S
C32 H34 0.948 . S
H33 C31 0.952 . S
H34 C32 0.948 . S
H35 C24 0.952 . S
H36 C26 0.948 . S
C37 C3 1.395 . S
C37 C7 1.391 . S
C38 C0 1.389 . S
C38 C20 1.392 1_655 S
C39 C10 1.392 1_455 S
C39 C12 1.389 . S
C40 C15 1.395 . S
C40 C17 1.391 . S
H41 C1 0.951 . S
H42 C2 0.950 . S
H43 C8 0.949 . S
H44 C9 0.950 . S
H45 C13 0.951 . S
H46 C14 0.950 . S
H47 C18 0.949 . S
H48 C19 0.950 . S
H49 C23 0.950 . S
H50 C25 0.950 . S
H51 C28 0.950 . S
H52 C30 0.950 . S
C53 C54 1.443 . S
C53 N57 1.376 . S
C53 C91 1.395 . S
C54 C53 1.443 . S
C54 C55 1.340 . S
C54 H94 0.951 . S
C55 C54 1.340 . S
C55 C56 1.439 . S
C55 H95 0.950 . S
C56 C55 1.439 . S
C56 N57 1.374 . S
C56 C90 1.395 . S
N57 C53 1.376 . S
N57 C56 1.374 . S
N57 Co58 2.008 1_655 S
Co58 N57 2.008 1_455 S
Co58 N59 1.995 1_455 S
Co58 N64 2.008 . S
Co58 N69 1.995 . S
Co58 N74 2.282 . S
Co58 N80 2.282 . S
N59 Co58 1.995 1_655 S
N59 C60 1.376 . S
N59 C63 1.383 . S
C60 N59 1.376 . S
C60 C61 1.446 . S
C60 C90 1.391 . S
C61 C60 1.446 . S
C61 C62 1.339 . S
C61 H96 0.949 . S
C62 C61 1.339 . S
C62 C63 1.439 . S
C62 H97 0.950 . S
C63 N59 1.383 . S
C63 C62 1.439 . S
C63 C92 1.392 1_655 S
N64 Co58 2.008 . S
N64 C65 1.376 . S
N64 C68 1.374 . S
C65 N64 1.376 . S
C65 C66 1.443 . S
C65 C92 1.389 . S
C66 C65 1.443 . S
C66 C67 1.340 . S
C66 H98 0.951 . S
C67 C66 1.340 . S
C67 C68 1.439 . S
C67 H99 0.950 . S
C68 N64 1.374 . S
C68 C67 1.439 . S
C68 C93 1.395 . S
N69 Co58 1.995 . S
N69 C70 1.376 . S
N69 C73 1.383 . S
C70 N69 1.376 . S
C70 C71 1.446 . S
C70 C93 1.391 . S
C71 C70 1.446 . S
C71 C72 1.339 . S
C71 H100 0.949 . S
C72 C71 1.339 . S
C72 C73 1.439 . S
C72 H101 0.950 . S
C73 N69 1.383 . S
C73 C72 1.439 . S
C73 C91 1.384 1_455 S
N74 Co58 2.282 . S
N74 C77 1.332 . S
N74 C79 1.303 1_455 S
C75 C76 1.386 . S
C75 C78 1.388 . S
C76 C75 1.386 . S
C76 C77 1.382 . S
C76 H102 0.950 . S
C77 N74 1.332 . S
C77 C76 1.382 . S
C77 H88 0.952 . S
C78 C75 1.388 . S
C78 C79 1.377 1_455 S
C78 H103 0.950 1_455 S
C79 N74 1.303 1_655 S
C79 C78 1.377 1_655 S
C79 H89 0.987 . S
N80 Co58 2.282 . S
N80 C84 1.332 1_455 S
N80 C85 1.332 . S
C81 C82 1.388 1_455 S
C81 C85 1.382 . S
C81 H104 0.950 . S
C82 C81 1.388 1_655 S
C82 C83 1.386 . S
C83 C82 1.386 . S
C83 C84 1.382 . S
C83 H105 0.950 . S
C84 N80 1.332 1_655 S
C84 C83 1.382 . S
C84 H86 0.952 . S
C85 N80 1.332 . S
C85 C81 1.382 . S
C85 H87 0.948 . S
H86 C84 0.952 . S
H87 C85 0.948 . S
H88 C77 0.952 . S
H89 C79 0.987 . S
C90 C56 1.395 . S
C90 C60 1.391 . S
C91 C53 1.395 . S
C91 C73 1.384 1_655 S
C92 C63 1.392 1_455 S
C92 C65 1.389 . S
C93 C68 1.395 . S
C93 C70 1.391 . S
H94 C54 0.951 . S
H95 C55 0.950 . S
H96 C61 0.949 . S
H97 C62 0.950 . S
H98 C66 0.951 . S
H99 C67 0.950 . S
H100 C71 0.949 . S
H101 C72 0.950 . S
H102 C76 0.950 . S
H103 C78 0.950 1_655 S
H104 C81 0.950 . S
H105 C83 0.950 . S
C106 C107 1.443 . S
C106 N110 1.376 . S
C106 C144 1.405 . S
C107 C106 1.443 . S
C107 C108 1.340 . S
C107 H147 0.951 . S
C108 C107 1.340 . S
C108 C109 1.439 . S
C108 H148 0.950 . S
C109 C108 1.439 . S
C109 N110 1.374 . S
C109 C143 1.395 . S
N110 C106 1.376 . S
N110 C109 1.374 . S
N110 Co111 2.008 1_565 S
Co111 N110 2.008 1_545 S
Co111 N112 1.995 1_545 S
Co111 N117 2.008 . S
Co111 N122 1.995 . S
Co111 N127 2.282 . S
Co111 N133 2.282 . S
N112 Co111 1.995 1_565 S
N112 C113 1.376 . S
N112 C116 1.383 . S
C113 N112 1.376 . S
C113 C114 1.446 . S
C113 C143 1.391 . S
C114 C113 1.446 . S
C114 C115 1.339 . S
C114 H149 0.949 . S
C115 C114 1.339 . S
C115 C116 1.439 . S
C115 H150 0.950 . S
C116 N112 1.383 . S
C116 C115 1.439 . S
C116 C145 1.392 1_565 S
N117 Co111 2.008 . S
N117 C118 1.376 . S
N117 C121 1.374 . S
C118 N117 1.376 . S
C118 C119 1.443 . S
C118 C145 1.389 . S
C119 C118 1.443 . S
C119 C120 1.340 . S
C119 H151 0.951 . S
C120 C119 1.340 . S
C120 C121 1.439 . S
C120 H152 0.950 . S
C121 N117 1.374 . S
C121 C120 1.439 . S
C121 C146 1.395 . S
N122 Co111 1.995 . S
N122 C123 1.376 . S
N122 C126 1.383 . S
C123 N122 1.376 . S
C123 C124 1.446 . S
C123 C146 1.391 . S
C124 C123 1.446 . S
C124 C125 1.339 . S
C124 H153 0.949 . S
C125 C124 1.339 . S
C125 C126 1.439 . S
C125 H154 0.950 . S
C126 N122 1.383 . S
C126 C125 1.439 . S
C126 C144 1.373 1_545 S
N127 Co111 2.282 . S
N127 C130 1.332 . S
N127 C132 1.363 . S
C128 C129 1.386 . S
C128 C131 1.388 . S
C129 C128 1.386 . S
C129 C130 1.382 . S
C129 H155 0.950 . S
C130 N127 1.332 . S
C130 C129 1.382 . S
C130 H141 0.952 . S
C131 C128 1.388 . S
C131 C132 1.390 . S
C131 H156 0.950 1_545 S
C132 N127 1.363 . S
C132 C131 1.390 . S
C132 H142 0.908 1_545 S
N133 Co111 2.282 . S
N133 C137 1.332 1_545 S
N133 C138 1.332 . S
C134 C135 1.388 1_545 S
C134 C138 1.382 . S
C134 H157 0.950 . S
C135 C134 1.388 1_565 S
C135 C136 1.386 . S
C136 C135 1.386 . S
C136 C137 1.382 . S
C136 H158 0.950 . S
C137 N133 1.332 1_565 S
C137 C136 1.382 . S
C137 H139 0.952 . S
C138 N133 1.332 . S
C138 C134 1.382 . S
C138 H140 0.948 . S
H139 C137 0.952 . S
H140 C138 0.948 . S
H141 C130 0.952 . S
H142 C132 0.908 1_565 S
C143 C109 1.395 . S
C143 C113 1.391 . S
C144 C106 1.405 . S
C144 C126 1.373 1_565 S
C145 C116 1.392 1_545 S
C145 C118 1.389 . S
C146 C121 1.395 . S
C146 C123 1.391 . S
H147 C107 0.951 . S
H148 C108 0.950 . S
H149 C114 0.949 . S
H150 C115 0.950 . S
H151 C119 0.951 . S
H152 C120 0.950 . S
H153 C124 0.949 . S
H154 C125 0.950 . S
H155 C129 0.950 . S
H156 C131 0.950 1_565 S
H157 C134 0.950 . S
H158 C136 0.950 . S
C159 C160 1.443 . S
C159 N163 1.376 . S
C159 C197 1.389 . S
C160 C159 1.443 . S
C160 C161 1.340 . S
C160 H200 0.951 . S
C161 C160 1.340 . S
C161 C162 1.439 . S
C161 H201 0.950 . S
C162 C161 1.439 . S
C162 N163 1.374 . S
C162 C196 1.395 . S
N163 C159 1.376 . S
N163 C162 1.374 . S
N163 Co164 2.008 . S
Co164 N163 2.008 . S
Co164 N165 1.995 . S
Co164 N170 2.008 . S
Co164 N175 1.995 . S
Co164 N180 2.282 . S
Co164 N186 2.282 . S
N165 Co164 1.995 . S
N165 C166 1.376 . S
N165 C169 1.383 . S
C166 N165 1.376 . S
C166 C167 1.446 . S
C166 C196 1.391 . S
C167 C166 1.446 . S
C167 C168 1.339 . S
C167 H202 0.949 . S
C168 C167 1.339 . S
C168 C169 1.439 . S
C168 H203 0.950 . S
C169 N165 1.383 . S
C169 C168 1.439 . S
C169 C198 1.392 . S
N170 Co164 2.008 . S
N170 C171 1.376 . S
N170 C174 1.374 . S
C171 N170 1.376 . S
C171 C172 1.443 . S
C171 C198 1.389 . S
C172 C171 1.443 . S
C172 C173 1.340 . S
C172 H204 0.951 . S
C173 C172 1.340 . S
C173 C174 1.439 . S
C173 H205 0.950 . S
C174 N170 1.374 . S
C174 C173 1.439 . S
C174 C199 1.395 . S
N175 Co164 1.995 . S
N175 C176 1.376 . S
N175 C179 1.383 . S
C176 N175 1.376 . S
C176 C177 1.446 . S
C176 C199 1.391 . S
C177 C176 1.446 . S
C177 C178 1.339 . S
C177 H206 0.949 . S
C178 C177 1.339 . S
C178 C179 1.439 . S
C178 H207 0.950 . S
C179 N175 1.383 . S
C179 C178 1.439 . S
C179 C197 1.392 . S
N180 Co164 2.282 . S
N180 C183 1.332 . S
N180 C185 1.332 . S
C181 C182 1.386 . S
C181 C184 1.388 . S
C182 C181 1.386 . S
C182 C183 1.382 . S
C182 H208 0.950 . S
C183 N180 1.332 . S
C183 C182 1.382 . S
C183 H194 0.952 . S
C184 C181 1.388 . S
C184 C185 1.382 . S
C184 H209 0.950 . S
C185 N180 1.332 . S
C185 C184 1.382 . S
C185 H195 0.948 . S
N186 Co164 2.282 . S
N186 C190 1.332 . S
N186 C191 1.332 . S
C187 C188 1.388 . S
C187 C191 1.382 . S
C187 H210 0.950 . S
C188 C187 1.388 . S
C188 C189 1.386 . S
C189 C188 1.386 . S
C189 C190 1.382 . S
C189 H211 0.950 . S
C190 N186 1.332 . S
C190 C189 1.382 . S
C190 H192 0.952 . S
C191 N186 1.332 . S
C191 C187 1.382 . S
C191 H193 0.948 . S
H192 C190 0.952 . S
H193 C191 0.948 . S
H194 C183 0.952 . S
H195 C185 0.948 . S
C196 C162 1.395 . S
C196 C166 1.391 . S
C197 C159 1.389 . S
C197 C179 1.392 . S
C198 C169 1.392 . S
C198 C171 1.389 . S
C199 C174 1.395 . S
C199 C176 1.391 . S
H200 C160 0.951 . S
H201 C161 0.950 . S
H202 C167 0.949 . S
H203 C168 0.950 . S
H204 C172 0.951 . S
H205 C173 0.950 . S
H206 C177 0.949 . S
H207 C178 0.950 . S
H208 C182 0.950 . S
H209 C184 0.950 . S
H210 C187 0.950 . S
H211 C189 0.950 . S
C212 C213 1.443 . S
C212 N216 1.376 . S
C212 C250 1.389 . S
C213 C212 1.443 . S
C213 C214 1.340 . S
C213 H253 0.951 . S
C214 C213 1.340 . S
C214 C215 1.439 . S
C214 H254 0.950 . S
C215 C214 1.439 . S
C215 N216 1.374 . S
C215 C249 1.395 . S
N216 C212 1.376 . S
N216 C215 1.374 . S
N216 Co217 2.008 1_556 S
Co217 N216 2.008 1_554 S
Co217 N218 1.995 1_554 S
Co217 N223 2.008 . S
Co217 N228 1.995 . S
Co217 N233 2.282 . S
Co217 N239 2.282 1_554 S
N218 Co217 1.995 1_556 S
N218 C219 1.376 . S
N218 C222 1.383 . S
C219 N218 1.376 . S
C219 C220 1.446 . S
C219 C249 1.391 . S
C220 C219 1.446 . S
C220 C221 1.339 . S
C220 H255 0.949 . S
C221 C220 1.339 . S
C221 C222 1.439 . S
C221 H256 0.950 . S
C222 N218 1.383 . S
C222 C221 1.439 . S
C222 C251 1.392 1_556 S
N223 Co217 2.008 . S
N223 C224 1.376 . S
N223 C227 1.374 . S
C224 N223 1.376 . S
C224 C225 1.443 . S
C224 C251 1.389 . S
C225 C224 1.443 . S
C225 C226 1.340 . S
C225 H257 0.951 . S
C226 C225 1.340 . S
C226 C227 1.439 . S
C226 H258 0.950 . S
C227 N223 1.374 . S
C227 C226 1.439 . S
C227 C252 1.395 . S
N228 Co217 1.995 . S
N228 C229 1.376 . S
N228 C232 1.383 . S
C229 N228 1.376 . S
C229 C230 1.446 . S
C229 C252 1.391 . S
C230 C229 1.446 . S
C230 C231 1.339 . S
C230 H259 0.949 . S
C231 C230 1.339 . S
C231 C232 1.439 . S
C231 H260 0.950 . S
C232 N228 1.383 . S
C232 C231 1.439 . S
C232 C250 1.392 1_554 S
N233 Co217 2.282 . S
N233 C236 1.332 . S
N233 C238 1.332 1_554 S
C234 C235 1.386 . S
C234 C237 1.388 1_554 S
C235 C234 1.386 . S
C235 C236 1.382 . S
C235 H261 0.950 . S
C236 N233 1.332 . S
C236 C235 1.382 . S
C236 H247 0.952 . S
C237 C234 1.388 1_556 S
C237 C238 1.382 . S
C237 H262 0.950 . S
C238 N233 1.332 1_556 S
C238 C237 1.382 . S
C238 H248 0.948 . S
N239 Co217 2.282 1_556 S
N239 C243 1.332 . S
N239 C244 1.332 1_556 S
C240 C241 1.388 1_554 S
C240 C244 1.382 . S
C240 H263 0.950 . S
C241 C240 1.388 1_556 S
C241 C242 1.386 . S
C242 C241 1.386 . S
C242 C243 1.382 . S
C242 H264 0.950 . S
C243 N239 1.332 . S
C243 C242 1.382 . S
C243 H245 0.952 . S
C244 N239 1.332 1_554 S
C244 C240 1.382 . S
C244 H246 0.948 . S
H245 C243 0.952 . S
H246 C244 0.948 . S
H247 C236 0.952 . S
H248 C238 0.948 . S
C249 C215 1.395 . S
C249 C219 1.391 . S
C250 C212 1.389 . S
C250 C232 1.392 1_556 S
C251 C222 1.392 1_554 S
C251 C224 1.389 . S
C252 C227 1.395 . S
C252 C229 1.391 . S
H253 C213 0.951 . S
H254 C214 0.950 . S
H255 C220 0.949 . S
H256 C221 0.950 . S
H257 C225 0.951 . S
H258 C226 0.950 . S
H259 C230 0.949 . S
H260 C231 0.950 . S
H261 C235 0.950 . S
H262 C237 0.950 . S
H263 C240 0.950 . S
H264 C242 0.950 . S
C265 C266 1.443 . S
C265 N269 1.376 . S
C265 C303 1.389 . S
C266 C265 1.443 . S
C266 C267 1.340 . S
C266 H306 0.951 . S
C267 C266 1.340 . S
C267 C268 1.439 . S
C267 H307 0.950 . S
C268 C267 1.439 . S
C268 N269 1.374 . S
C268 C302 1.395 . S
N269 C265 1.376 . S
N269 C268 1.374 . S
N269 Co270 2.008 . S
Co270 N269 2.008 . S
Co270 N271 1.995 . S
Co270 N276 2.008 . S
Co270 N281 1.995 . S
Co270 N286 2.282 . S
Co270 N292 2.282 . S
N271 Co270 1.995 . S
N271 C272 1.376 . S
N271 C275 1.383 . S
C272 N271 1.376 . S
C272 C273 1.446 . S
C272 C302 1.391 . S
C273 C272 1.446 . S
C273 C274 1.339 . S
C273 H308 0.949 . S
C274 C273 1.339 . S
C274 C275 1.439 . S
C274 H309 0.950 . S
C275 N271 1.383 . S
C275 C274 1.439 . S
C275 C304 1.392 . S
N276 Co270 2.008 . S
N276 C277 1.376 . S
N276 C280 1.374 . S
C277 N276 1.376 . S
C277 C278 1.443 . S
C277 C304 1.389 . S
C278 C277 1.443 . S
C278 C279 1.340 . S
C278 H310 0.951 . S
C279 C278 1.340 . S
C279 C280 1.439 . S
C279 H311 0.950 . S
C280 N276 1.374 . S
C280 C279 1.439 . S
C280 C305 1.395 . S
N281 Co270 1.995 . S
N281 C282 1.376 . S
N281 C285 1.383 . S
C282 N281 1.376 . S
C282 C283 1.446 . S
C282 C305 1.391 . S
C283 C282 1.446 . S
C283 C284 1.339 . S
C283 H312 0.949 . S
C284 C283 1.339 . S
C284 C285 1.439 . S
C284 H313 0.950 . S
C285 N281 1.383 . S
C285 C284 1.439 . S
C285 C303 1.392 . S
N286 Co270 2.282 . S
N286 C289 1.332 . S
N286 C291 1.332 . S
C287 C288 1.386 . S
C287 C290 1.388 . S
C288 C287 1.386 . S
C288 C289 1.382 . S
C288 H314 0.950 . S
C289 N286 1.332 . S
C289 C288 1.382 . S
C289 H300 0.952 . S
C290 C287 1.388 . S
C290 C291 1.382 . S
C290 H315 0.950 . S
C291 N286 1.332 . S
C291 C290 1.382 . S
C291 H301 0.948 . S
N292 Co270 2.282 . S
N292 C296 1.332 . S
N292 C297 1.332 . S
C293 C294 1.388 . S
C293 C297 1.382 . S
C293 H316 0.950 . S
C294 C293 1.388 . S
C294 C295 1.386 . S
C295 C294 1.386 . S
C295 C296 1.382 . S
C295 H317 0.950 . S
C296 N292 1.332 . S
C296 C295 1.382 . S
C296 H298 0.952 . S
C297 N292 1.332 . S
C297 C293 1.382 . S
C297 H299 0.948 . S
H298 C296 0.952 . S
H299 C297 0.948 . S
H300 C289 0.952 . S
H301 C291 0.948 . S
C302 C268 1.395 . S
C302 C272 1.391 . S
C303 C265 1.389 . S
C303 C285 1.392 . S
C304 C275 1.392 . S
C304 C277 1.389 . S
C305 C280 1.395 . S
C305 C282 1.391 . S
H306 C266 0.951 . S
H307 C267 0.950 . S
H308 C273 0.949 . S
H309 C274 0.950 . S
H310 C278 0.951 . S
H311 C279 0.950 . S
H312 C283 0.949 . S
H313 C284 0.950 . S
H314 C288 0.950 . S
H315 C290 0.950 . S
H316 C293 0.950 . S
H317 C295 0.950 . S
C318 C319 1.443 . S
C318 N322 1.376 . S
C318 C356 1.389 . S
C319 C318 1.443 . S
C319 C320 1.340 . S
C319 H359 0.951 . S
C320 C319 1.340 . S
C320 C321 1.439 . S
C320 H360 0.950 . S
C321 C320 1.439 . S
C321 N322 1.374 . S
C321 C355 1.395 . S
N322 C318 1.376 . S
N322 C321 1.374 . S
N322 Co323 2.008 . S
Co323 N322 2.008 . S
Co323 N324 1.995 . S
Co323 N329 2.008 . S
Co323 N334 1.995 . S
Co323 N339 2.282 . S
Co323 N345 2.282 . S
N324 Co323 1.995 . S
N324 C325 1.376 . S
N324 C328 1.383 . S
C325 N324 1.376 . S
C325 C326 1.446 . S
C325 C355 1.391 . S
C326 C325 1.446 . S
C326 C327 1.339 . S
C326 H361 0.949 . S
C327 C326 1.339 . S
C327 C328 1.439 . S
C327 H362 0.950 . S
C328 N324 1.383 . S
C328 C327 1.439 . S
C328 C357 1.392 . S
N329 Co323 2.008 . S
N329 C330 1.376 . S
N329 C333 1.374 . S
C330 N329 1.376 . S
C330 C331 1.443 . S
C330 C357 1.389 . S
C331 C330 1.443 . S
C331 C332 1.340 . S
C331 H363 0.951 . S
C332 C331 1.340 . S
C332 C333 1.439 . S
C332 H364 0.950 . S
C333 N329 1.374 . S
C333 C332 1.439 . S
C333 C358 1.395 . S
N334 Co323 1.995 . S
N334 C335 1.376 . S
N334 C338 1.383 . S
C335 N334 1.376 . S
C335 C336 1.446 . S
C335 C358 1.391 . S
C336 C335 1.446 . S
C336 C337 1.339 . S
C336 H365 0.949 . S
C337 C336 1.339 . S
C337 C338 1.439 . S
C337 H366 0.950 . S
C338 N334 1.383 . S
C338 C337 1.439 . S
C338 C356 1.392 . S
N339 Co323 2.282 . S
N339 C342 1.332 . S
N339 C344 1.332 . S
C340 C341 1.386 . S
C340 C343 1.388 . S
C341 C340 1.386 . S
C341 C342 1.382 . S
C341 H367 0.950 . S
C342 N339 1.332 . S
C342 C341 1.382 . S
C342 H353 0.952 . S
C343 C340 1.388 . S
C343 C344 1.382 . S
C343 H368 0.950 . S
C344 N339 1.332 . S
C344 C343 1.382 . S
C344 H354 0.948 . S
N345 Co323 2.282 . S
N345 C349 1.332 . S
N345 C350 1.332 . S
C346 C347 1.388 . S
C346 C350 1.382 . S
C346 H369 0.950 . S
C347 C346 1.388 . S
C347 C348 1.386 . S
C348 C347 1.386 . S
C348 C349 1.382 . S
C348 H370 0.950 . S
C349 N345 1.332 . S
C349 C348 1.382 . S
C349 H351 0.952 . S
C350 N345 1.332 . S
C350 C346 1.382 . S
C350 H352 0.948 . S
H351 C349 0.952 . S
H352 C350 0.948 . S
H353 C342 0.952 . S
H354 C344 0.948 . S
C355 C321 1.395 . S
C355 C325 1.391 . S
C356 C318 1.389 . S
C356 C338 1.392 . S
C357 C328 1.392 . S
C357 C330 1.389 . S
C358 C333 1.395 . S
C358 C335 1.391 . S
H359 C319 0.951 . S
H360 C320 0.950 . S
H361 C326 0.949 . S
H362 C327 0.950 . S
H363 C331 0.951 . S
H364 C332 0.950 . S
H365 C336 0.949 . S
H366 C337 0.950 . S
H367 C341 0.950 . S
H368 C343 0.950 . S
H369 C346 0.950 . S
H370 C348 0.950 . S
C371 C372 1.443 . S
C371 N375 1.376 . S
C371 C409 1.389 . S
C372 C371 1.443 . S
C372 C373 1.340 . S
C372 H412 0.951 . S
C373 C372 1.340 . S
C373 C374 1.439 . S
C373 H413 0.950 . S
C374 C373 1.439 . S
C374 N375 1.374 . S
C374 C408 1.395 . S
N375 C371 1.376 . S
N375 C374 1.374 . S
N375 Co376 2.008 . S
Co376 N375 2.008 . S
Co376 N377 1.995 . S
Co376 N382 2.008 . S
Co376 N387 1.995 . S
Co376 N392 2.282 . S
Co376 N398 2.282 . S
N377 Co376 1.995 . S
N377 C378 1.376 . S
N377 C381 1.383 . S
C378 N377 1.376 . S
C378 C379 1.446 . S
C378 C408 1.391 . S
C379 C378 1.446 . S
C379 C380 1.339 . S
C379 H414 0.949 . S
C380 C379 1.339 . S
C380 C381 1.439 . S
C380 H415 0.950 . S
C381 N377 1.383 . S
C381 C380 1.439 . S
C381 C410 1.392 . S
N382 Co376 2.008 . S
N382 C383 1.376 . S
N382 C386 1.374 . S
C383 N382 1.376 . S
C383 C384 1.443 . S
C383 C410 1.389 . S
C384 C383 1.443 . S
C384 C385 1.340 . S
C384 H416 0.951 . S
C385 C384 1.340 . S
C385 C386 1.439 . S
C385 H417 0.950 . S
C386 N382 1.374 . S
C386 C385 1.439 . S
C386 C411 1.395 . S
N387 Co376 1.995 . S
N387 C388 1.376 . S
N387 C391 1.383 . S
C388 N387 1.376 . S
C388 C389 1.446 . S
C388 C411 1.391 . S
C389 C388 1.446 . S
C389 C390 1.339 . S
C389 H418 0.949 . S
C390 C389 1.339 . S
C390 C391 1.439 . S
C390 H419 0.950 . S
C391 N387 1.383 . S
C391 C390 1.439 . S
C391 C409 1.392 . S
N392 Co376 2.282 . S
N392 C395 1.332 . S
N392 C397 1.332 . S
C393 C394 1.386 . S
C393 C396 1.388 . S
C394 C393 1.386 . S
C394 C395 1.382 . S
C394 H420 0.950 . S
C395 N392 1.332 . S
C395 C394 1.382 . S
C395 H406 0.952 . S
C396 C393 1.388 . S
C396 C397 1.382 . S
C396 H421 0.950 . S
C397 N392 1.332 . S
C397 C396 1.382 . S
C397 H407 0.948 . S
N398 Co376 2.282 . S
N398 C402 1.332 . S
N398 C403 1.332 . S
C399 C400 1.388 . S
C399 C403 1.382 . S
C399 H422 0.950 . S
C400 C399 1.388 . S
C400 C401 1.386 . S
C401 C400 1.386 . S
C401 C402 1.382 . S
C401 H423 0.950 . S
C402 N398 1.332 . S
C402 C401 1.382 . S
C402 H404 0.952 . S
C403 N398 1.332 . S
C403 C399 1.382 . S
C403 H405 0.948 . S
H404 C402 0.952 . S
H405 C403 0.948 . S
H406 C395 0.952 . S
H407 C397 0.948 . S
C408 C374 1.395 . S
C408 C378 1.391 . S
C409 C371 1.389 . S
C409 C391 1.392 . S
C410 C381 1.392 . S
C410 C383 1.389 . S
C411 C386 1.395 . S
C411 C388 1.391 . S
H412 C372 0.951 . S
H413 C373 0.950 . S
H414 C379 0.949 . S
H415 C380 0.950 . S
H416 C384 0.951 . S
H417 C385 0.950 . S
H418 C389 0.949 . S
H419 C390 0.950 . S
H420 C394 0.950 . S
H421 C396 0.950 . S
H422 C399 0.950 . S
H423 C401 0.950 . S
C424 C425 1.443 . S
C424 N428 1.376 . S
C424 C462 1.389 . S
C425 C424 1.443 . S
C425 C426 1.340 . S
C425 H465 0.951 . S
C426 C425 1.340 . S
C426 C427 1.439 . S
C426 H466 0.950 . S
C427 C426 1.439 . S
C427 N428 1.374 . S
C427 C461 1.395 . S
N428 C424 1.376 . S
N428 C427 1.374 . S
N428 Co429 2.008 . S
Co429 N428 2.008 . S
Co429 N430 1.995 . S
Co429 N435 2.008 . S
Co429 N440 1.995 . S
Co429 N445 2.282 . S
Co429 N451 2.282 . S
N430 Co429 1.995 . S
N430 C431 1.376 . S
N430 C434 1.383 . S
C431 N430 1.376 . S
C431 C432 1.446 . S
C431 C461 1.391 . S
C432 C431 1.446 . S
C432 C433 1.339 . S
C432 H467 0.949 . S
C433 C432 1.339 . S
C433 C434 1.439 . S
C433 H468 0.950 . S
C434 N430 1.383 . S
C434 C433 1.439 . S
C434 C463 1.392 . S
N435 Co429 2.008 . S
N435 C436 1.376 . S
N435 C439 1.374 . S
C436 N435 1.376 . S
C436 C437 1.443 . S
C436 C463 1.389 . S
C437 C436 1.443 . S
C437 C438 1.340 . S
C437 H469 0.951 . S
C438 C437 1.340 . S
C438 C439 1.439 . S
C438 H470 0.950 . S
C439 N435 1.374 . S
C439 C438 1.439 . S
C439 C464 1.395 . S
N440 Co429 1.995 . S
N440 C441 1.376 . S
N440 C444 1.383 . S
C441 N440 1.376 . S
C441 C442 1.446 . S
C441 C464 1.391 . S
C442 C441 1.446 . S
C442 C443 1.339 . S
C442 H471 0.949 . S
C443 C442 1.339 . S
C443 C444 1.439 . S
C443 H472 0.950 . S
C444 N440 1.383 . S
C444 C443 1.439 . S
C444 C462 1.392 . S
N445 Co429 2.282 . S
N445 C448 1.332 . S
N445 C450 1.332 . S
C446 C447 1.386 . S
C446 C449 1.388 . S
C447 C446 1.386 . S
C447 C448 1.382 . S
C447 H473 0.950 . S
C448 N445 1.332 . S
C448 C447 1.382 . S
C448 H459 0.952 . S
C449 C446 1.388 . S
C449 C450 1.382 . S
C449 H474 0.950 . S
C450 N445 1.332 . S
C450 C449 1.382 . S
C450 H460 0.948 . S
N451 Co429 2.282 . S
N451 C455 1.332 . S
N451 C456 1.332 . S
C452 C453 1.388 . S
C452 C456 1.382 . S
C452 H475 0.950 . S
C453 C452 1.388 . S
C453 C454 1.386 . S
C454 C453 1.386 . S
C454 C455 1.382 . S
C454 H476 0.950 . S
C455 N451 1.332 . S
C455 C454 1.382 . S
C455 H457 0.952 . S
C456 N451 1.332 . S
C456 C452 1.382 . S
C456 H458 0.948 . S
H457 C455 0.952 . S
H458 C456 0.948 . S
H459 C448 0.952 . S
H460 C450 0.948 . S
C461 C427 1.395 . S
C461 C431 1.391 . S
C462 C424 1.389 . S
C462 C444 1.392 . S
C463 C434 1.392 . S
C463 C436 1.389 . S
C464 C439 1.395 . S
C464 C441 1.391 . S
H465 C425 0.951 . S
H466 C426 0.950 . S
H467 C432 0.949 . S
H468 C433 0.950 . S
H469 C437 0.951 . S
H470 C438 0.950 . S
H471 C442 0.949 . S
H472 C443 0.950 . S
H473 C447 0.950 . S
H474 C449 0.950 . S
H475 C452 0.950 . S
H476 C454 0.950 . S
C477 C478 1.443 . S
C477 N481 1.376 . S
C477 C515 1.389 . S
C478 C477 1.443 . S
C478 C479 1.340 . S
C478 H518 0.951 . S
C479 C478 1.340 . S
C479 C480 1.439 . S
C479 H519 0.950 . S
C480 C479 1.439 . S
C480 N481 1.374 . S
C480 C514 1.395 . S
N481 C477 1.376 . S
N481 C480 1.374 . S
N481 Co482 2.008 . S
Co482 N481 2.008 . S
Co482 N483 1.995 . S
Co482 N488 2.008 . S
Co482 N493 1.995 . S
Co482 N498 2.282 . S
Co482 N504 2.282 . S
N483 Co482 1.995 . S
N483 C484 1.376 . S
N483 C487 1.383 . S
C484 N483 1.376 . S
C484 C485 1.446 . S
C484 C514 1.391 . S
C485 C484 1.446 . S
C485 C486 1.339 . S
C485 H520 0.949 . S
C486 C485 1.339 . S
C486 C487 1.439 . S
C486 H521 0.950 . S
C487 N483 1.383 . S
C487 C486 1.439 . S
C487 C516 1.392 . S
N488 Co482 2.008 . S
N488 C489 1.376 . S
N488 C492 1.374 . S
C489 N488 1.376 . S
C489 C490 1.443 . S
C489 C516 1.389 . S
C490 C489 1.443 . S
C490 C491 1.340 . S
C490 H522 0.951 . S
C491 C490 1.340 . S
C491 C492 1.439 . S
C491 H523 0.950 . S
C492 N488 1.374 . S
C492 C491 1.439 . S
C492 C517 1.395 . S
N493 Co482 1.995 . S
N493 C494 1.376 . S
N493 C497 1.383 . S
C494 N493 1.376 . S
C494 C495 1.446 . S
C494 C517 1.391 . S
C495 C494 1.446 . S
C495 C496 1.339 . S
C495 H524 0.949 . S
C496 C495 1.339 . S
C496 C497 1.439 . S
C496 H525 0.950 . S
C497 N493 1.383 . S
C497 C496 1.439 . S
C497 C515 1.392 . S
N498 Co482 2.282 . S
N498 C501 1.332 . S
N498 C503 1.332 . S
C499 C500 1.386 . S
C499 C502 1.388 . S
C500 C499 1.386 . S
C500 C501 1.382 . S
C500 H526 0.950 . S
C501 N498 1.332 . S
C501 C500 1.382 . S
C501 H512 0.952 . S
C502 C499 1.388 . S
C502 C503 1.382 . S
C502 H527 0.950 . S
C503 N498 1.332 . S
C503 C502 1.382 . S
C503 H513 0.948 . S
N504 Co482 2.282 . S
N504 C508 1.332 . S
N504 C509 1.332 . S
C505 C506 1.388 . S
C505 C509 1.382 . S
C505 H528 0.950 . S
C506 C505 1.388 . S
C506 C507 1.386 . S
C507 C506 1.386 . S
C507 C508 1.382 . S
C507 H529 0.950 . S
C508 N504 1.332 . S
C508 C507 1.382 . S
C508 H510 0.952 . S
C509 N504 1.332 . S
C509 C505 1.382 . S
C509 H511 0.948 . S
H510 C508 0.952 . S
H511 C509 0.948 . S
H512 C501 0.952 . S
H513 C503 0.948 . S
C514 C480 1.395 . S
C514 C484 1.391 . S
C515 C477 1.389 . S
C515 C497 1.392 . S
C516 C487 1.392 . S
C516 C489 1.389 . S
C517 C492 1.395 . S
C517 C494 1.391 . S
H518 C478 0.951 . S
H519 C479 0.950 . S
H520 C485 0.949 . S
H521 C486 0.950 . S
H522 C490 0.951 . S
H523 C491 0.950 . S
H524 C495 0.949 . S
H525 C496 0.950 . S
H526 C500 0.950 . S
H527 C502 0.950 . S
H528 C505 0.950 . S
H529 C507 0.950 . S
C530 C531 1.443 . S
C530 N534 1.376 . S
C530 C568 1.389 . S
C531 C530 1.443 . S
C531 C532 1.340 . S
C531 H571 0.951 . S
C532 C531 1.340 . S
C532 C533 1.439 . S
C532 H572 0.950 . S
C533 C532 1.439 . S
C533 N534 1.374 . S
C533 C567 1.395 . S
N534 C530 1.376 . S
N534 C533 1.374 . S
N534 Co535 2.008 . S
Co535 N534 2.008 . S
Co535 N536 1.995 . S
Co535 N541 2.008 1_545 S
Co535 N546 1.995 1_545 S
Co535 N551 2.282 1_545 S
Co535 N557 2.282 . S
N536 Co535 1.995 . S
N536 C537 1.376 . S
N536 C540 1.383 . S
C537 N536 1.376 . S
C537 C538 1.446 . S
C537 C567 1.391 . S
C538 C537 1.446 . S
C538 C539 1.339 . S
C538 H573 0.949 . S
C539 C538 1.339 . S
C539 C540 1.439 . S
C539 H574 0.950 . S
C540 N536 1.383 . S
C540 C539 1.439 . S
C540 C569 1.392 1_545 S
N541 Co535 2.008 1_565 S
N541 C542 1.376 . S
N541 C545 1.374 . S
C542 N541 1.376 . S
C542 C543 1.443 . S
C542 C569 1.389 . S
C543 C542 1.443 . S
C543 C544 1.340 . S
C543 H575 0.951 . S
C544 C543 1.340 . S
C544 C545 1.439 . S
C544 H576 0.950 . S
C545 N541 1.374 . S
C545 C544 1.439 . S
C545 C570 1.395 . S
N546 Co535 1.995 1_565 S
N546 C547 1.376 . S
N546 C550 1.383 . S
C547 N546 1.376 . S
C547 C548 1.446 . S
C547 C570 1.391 . S
C548 C547 1.446 . S
C548 C549 1.339 . S
C548 H577 0.949 . S
C549 C548 1.339 . S
C549 C550 1.439 . S
C549 H578 0.950 . S
C550 N546 1.383 . S
C550 C549 1.439 . S
C550 C568 1.392 1_565 S
N551 Co535 2.282 1_565 S
N551 C554 1.332 . S
N551 C556 1.332 1_565 S
C552 C553 1.386 . S
C552 C555 1.388 1_565 S
C553 C552 1.386 . S
C553 C554 1.382 . S
C553 H579 0.950 . S
C554 N551 1.332 . S
C554 C553 1.382 . S
C554 H565 0.952 . S
C555 C552 1.388 1_545 S
C555 C556 1.382 . S
C555 H580 0.950 . S
C556 N551 1.332 1_545 S
C556 C555 1.382 . S
C556 H566 0.948 . S
N557 Co535 2.282 . S
N557 C561 1.332 . S
N557 C562 1.332 1_545 S
C558 C559 1.388 1_565 S
C558 C562 1.382 . S
C558 H581 0.950 . S
C559 C558 1.388 1_545 S
C559 C560 1.386 . S
C560 C559 1.386 . S
C560 C561 1.382 . S
C560 H582 0.950 . S
C561 N557 1.332 . S
C561 C560 1.382 . S
C561 H563 0.952 . S
C562 N557 1.332 1_565 S
C562 C558 1.382 . S
C562 H564 0.948 . S
H563 C561 0.952 . S
H564 C562 0.948 . S
H565 C554 0.952 . S
H566 C556 0.948 . S
C567 C533 1.395 . S
C567 C537 1.391 . S
C568 C530 1.389 . S
C568 C550 1.392 1_545 S
C569 C540 1.392 1_565 S
C569 C542 1.389 . S
C570 C545 1.395 . S
C570 C547 1.391 . S
H571 C531 0.951 . S
H572 C532 0.950 . S
H573 C538 0.949 . S
H574 C539 0.950 . S
H575 C543 0.951 . S
H576 C544 0.950 . S
H577 C548 0.949 . S
H578 C549 0.950 . S
H579 C553 0.950 . S
H580 C555 0.950 . S
H581 C558 0.950 . S
H582 C560 0.950 . S
C583 C584 1.443 . S
C583 N587 1.376 . S
C583 C621 1.389 . S
C584 C583 1.443 . S
C584 C585 1.340 . S
C584 H624 0.951 . S
C585 C584 1.340 . S
C585 C586 1.439 . S
C585 H625 0.950 . S
C586 C585 1.439 . S
C586 N587 1.374 . S
C586 C620 1.395 . S
N587 C583 1.376 . S
N587 C586 1.374 . S
N587 Co588 2.008 1_556 S
Co588 N587 2.008 1_554 S
Co588 N589 1.995 1_554 S
Co588 N594 2.008 . S
Co588 N599 1.995 . S
Co588 N604 2.282 . S
Co588 N610 2.282 . S
N589 Co588 1.995 1_556 S
N589 C590 1.376 . S
N589 C593 1.383 . S
C590 N589 1.376 . S
C590 C591 1.446 . S
C590 C620 1.391 . S
C591 C590 1.446 . S
C591 C592 1.339 . S
C591 H626 0.949 . S
C592 C591 1.339 . S
C592 C593 1.439 . S
C592 H627 0.950 . S
C593 N589 1.383 . S
C593 C592 1.439 . S
C593 C622 1.392 1_556 S
N594 Co588 2.008 . S
N594 C595 1.376 . S
N594 C598 1.374 . S
C595 N594 1.376 . S
C595 C596 1.443 . S
C595 C622 1.389 . S
C596 C595 1.443 . S
C596 C597 1.340 . S
C596 H628 0.951 . S
C597 C596 1.340 . S
C597 C598 1.439 . S
C597 H629 0.950 . S
C598 N594 1.374 . S
C598 C597 1.439 . S
C598 C623 1.395 . S
N599 Co588 1.995 . S
N599 C600 1.376 . S
N599 C603 1.383 . S
C600 N599 1.376 . S
C600 C601 1.446 . S
C600 C623 1.391 . S
C601 C600 1.446 . S
C601 C602 1.339 . S
C601 H630 0.949 . S
C602 C601 1.339 . S
C602 C603 1.439 . S
C602 H631 0.950 . S
C603 N599 1.383 . S
C603 C602 1.439 . S
C603 C621 1.392 1_554 S
N604 Co588 2.282 . S
N604 C607 1.332 . S
N604 C609 1.332 1_554 S
C605 C606 1.386 . S
C605 C608 1.388 . S
C606 C605 1.386 . S
C606 C607 1.382 . S
C606 H632 0.950 . S
C607 N604 1.332 . S
C607 C606 1.382 . S
C607 H618 0.952 . S
C608 C605 1.388 . S
C608 C609 1.382 1_554 S
C608 H633 0.950 1_554 S
C609 N604 1.332 1_556 S
C609 C608 1.382 1_556 S
C609 H619 0.948 . S
N610 Co588 2.282 . S
N610 C614 1.332 1_554 S
N610 C615 1.332 . S
C611 C612 1.388 1_554 S
C611 C615 1.382 . S
C611 H634 0.950 . S
C612 C611 1.388 1_556 S
C612 C613 1.386 . S
C613 C612 1.386 . S
C613 C614 1.382 . S
C613 H635 0.950 . S
C614 N610 1.332 1_556 S
C614 C613 1.382 . S
C614 H616 0.952 . S
C615 N610 1.332 . S
C615 C611 1.382 . S
C615 H617 0.948 . S
H616 C614 0.952 . S
H617 C615 0.948 . S
H618 C607 0.952 . S
H619 C609 0.948 . S
C620 C586 1.395 . S
C620 C590 1.391 . S
C621 C583 1.389 . S
C621 C603 1.392 1_556 S
C622 C593 1.392 1_554 S
C622 C595 1.389 . S
C623 C598 1.395 . S
C623 C600 1.391 . S
H624 C584 0.951 . S
H625 C585 0.950 . S
H626 C591 0.949 . S
H627 C592 0.950 . S
H628 C596 0.951 . S
H629 C597 0.950 . S
H630 C601 0.949 . S
H631 C602 0.950 . S
H632 C606 0.950 . S
H633 C608 0.950 1_556 S
H634 C611 0.950 . S
H635 C613 0.950 . S
C636 O652 1.251 . S
C636 O654 1.254 . S
N637 C638 1.332 1_554 S
N637 C642 1.300 1_554 S
N637 Zn643 2.029 . S
C638 N637 1.332 1_556 S
C638 C639 1.379 . S
C638 H656 0.952 1_556 S
C639 C638 1.379 . S
C639 C640 1.390 . S
C639 H666 0.949 . S
C640 C639 1.390 . S
C640 C641 1.357 . S
C641 C640 1.357 . S
C641 C642 1.370 . S
C641 H667 0.950 . S
C642 N637 1.300 1_556 S
C642 C641 1.370 . S
C642 H660 0.948 . S
Zn643 N637 2.029 . S
Zn643 O652 2.039 . S
Zn643 O658 2.034 . S
Zn643 O662 2.025 . S
Zn643 O664 2.024 . S
C644 O663 1.246 . S
C644 O664 1.249 . S
N645 C646 1.307 . S
N645 C647 1.333 . S
N645 Zn651 2.020 . S
C646 N645 1.307 . S
C646 C650 1.370 . S
C646 H657 0.948 . S
C647 N645 1.333 . S
C647 C648 1.379 . S
C647 H655 0.952 . S
C648 C647 1.379 . S
C648 C649 1.390 . S
C648 H668 0.949 . S
C649 C648 1.390 . S
C649 C650 1.357 . S
C650 C646 1.370 . S
C650 C649 1.357 . S
C650 H669 0.950 . S
Zn651 N645 2.020 . S
Zn651 O654 2.025 . S
Zn651 O659 2.024 . S
Zn651 O661 2.039 . S
Zn651 O663 2.034 . S
O652 C636 1.251 . S
O652 Zn643 2.039 . S
C653 O658 1.246 . S
C653 O659 1.249 . S
O654 C636 1.254 . S
O654 Zn651 2.025 . S
H655 C647 0.952 . S
H656 C638 0.952 1_554 S
H657 C646 0.948 . S
O658 Zn643 2.034 . S
O658 C653 1.246 . S
O659 Zn651 2.024 . S
O659 C653 1.249 . S
H660 C642 0.948 . S
O661 Zn651 2.039 . S
O661 C665 1.251 . S
O662 Zn643 2.025 . S
O662 C665 1.254 . S
O663 C644 1.246 . S
O663 Zn651 2.034 . S
O664 Zn643 2.024 . S
O664 C644 1.249 . S
C665 O661 1.251 . S
C665 O662 1.254 . S
H666 C639 0.949 . S
H667 C641 0.950 . S
H668 C648 0.949 . S
H669 C650 0.950 . S
C670 O686 1.251 . S
C670 O688 1.254 . S
N671 C672 1.333 . S
N671 C676 1.307 . S
N671 Zn677 2.020 1_556 S
C672 N671 1.333 . S
C672 C673 1.379 . S
C672 H690 0.952 . S
C673 C672 1.379 . S
C673 C674 1.390 . S
C673 H700 0.949 . S
C674 C673 1.390 . S
C674 C675 1.357 . S
C675 C674 1.357 . S
C675 C676 1.370 . S
C675 H701 0.950 . S
C676 N671 1.307 . S
C676 C675 1.370 . S
C676 H694 0.948 . S
Zn677 N671 2.020 1_554 S
Zn677 O686 2.039 . S
Zn677 O692 2.034 . S
Zn677 O696 2.025 . S
Zn677 O698 2.024 . S
C678 O697 1.246 . S
C678 O698 1.249 . S
N679 C680 1.307 . S
N679 C681 1.333 1_655 S
N679 Zn685 2.020 . S
C680 N679 1.307 . S
C680 C684 1.370 . S
C680 H691 0.948 . S
C681 N679 1.333 1_455 S
C681 C682 1.379 . S
C681 H689 0.952 . S
C682 C681 1.379 . S
C682 C683 1.390 1_455 S
C682 H702 0.949 . S
C683 C682 1.390 1_655 S
C683 C684 1.357 . S
C684 C680 1.370 . S
C684 C683 1.357 . S
C684 H703 0.950 . S
Zn685 N679 2.020 . S
Zn685 O688 2.025 . S
Zn685 O693 2.024 . S
Zn685 O695 2.039 1_655 S
Zn685 O697 2.034 . S
O686 C670 1.251 . S
O686 Zn677 2.039 . S
C687 O692 1.246 . S
C687 O693 1.249 . S
O688 C670 1.254 . S
O688 Zn685 2.025 . S
H689 C681 0.952 . S
H690 C672 0.952 . S
H691 C680 0.948 . S
O692 Zn677 2.034 . S
O692 C687 1.246 . S
O693 Zn685 2.024 . S
O693 C687 1.249 . S
H694 C676 0.948 . S
O695 Zn685 2.039 1_455 S
O695 C699 1.251 . S
O696 Zn677 2.025 . S
O696 C699 1.254 1_655 S
O697 C678 1.246 . S
O697 Zn685 2.034 . S
O698 Zn677 2.024 . S
O698 C678 1.249 . S
C699 O695 1.251 . S
C699 O696 1.254 1_455 S
H700 C673 0.949 . S
H701 C675 0.950 . S
H702 C682 0.949 . S
H703 C684 0.950 . S
C704 O720 1.251 . S
C704 O722 1.254 . S
N705 C706 1.333 . S
N705 C710 1.307 . S
N705 Zn711 2.020 . S
C706 N705 1.333 . S
C706 C707 1.379 . S
C706 H724 0.952 . S
C707 C706 1.379 . S
C707 C708 1.390 . S
C707 H734 0.949 1_455 S
C708 C707 1.390 . S
C708 C709 1.357 . S
C709 C708 1.357 . S
C709 C710 1.370 . S
C709 H735 0.950 . S
C710 N705 1.307 . S
C710 C709 1.370 . S
C710 H728 0.948 . S
Zn711 N705 2.020 . S
Zn711 O720 2.039 . S
Zn711 O726 2.034 . S
Zn711 O730 2.025 . S
Zn711 O732 2.024 . S
C712 O731 1.246 . S
C712 O732 1.249 . S
N713 C714 1.307 . S
N713 C715 1.333 . S
N713 Zn719 2.020 . S
C714 N713 1.307 . S
C714 C718 1.370 . S
C714 H725 0.948 . S
C715 N713 1.333 . S
C715 C716 1.379 . S
C715 H723 0.952 . S
C716 C715 1.379 . S
C716 C717 1.390 . S
C716 H736 0.949 . S
C717 C716 1.390 . S
C717 C718 1.357 . S
C718 C714 1.370 . S
C718 C717 1.357 . S
C718 H737 0.958 . S
Zn719 N713 2.020 . S
Zn719 O722 2.025 . S
Zn719 O727 2.024 . S
Zn719 O729 2.039 . S
Zn719 O731 2.034 . S
O720 C704 1.251 . S
O720 Zn711 2.039 . S
C721 O726 1.246 . S
C721 O727 1.249 . S
O722 C704 1.254 . S
O722 Zn719 2.025 . S
H723 C715 0.952 . S
H724 C706 0.952 . S
H725 C714 0.948 . S
O726 Zn711 2.034 . S
O726 C721 1.246 . S
O727 Zn719 2.024 . S
O727 C721 1.249 . S
H728 C710 0.948 . S
O729 Zn719 2.039 . S
O729 C733 1.251 . S
O730 Zn711 2.025 . S
O730 C733 1.254 . S
O731 C712 1.246 . S
O731 Zn719 2.034 . S
O732 Zn711 2.024 . S
O732 C712 1.249 . S
C733 O729 1.251 . S
C733 O730 1.254 . S
H734 C707 0.949 1_655 S
H735 C709 0.950 . S
H736 C716 0.949 . S
H737 C718 0.958 . S
C738 O754 1.251 . S
C738 O756 1.254 . S
N739 C740 1.333 . S
N739 C744 1.307 . S
N739 Zn745 2.020 1_455 S
C740 N739 1.333 . S
C740 C741 1.379 . S
C740 H758 0.952 . S
C741 C740 1.379 . S
C741 C742 1.390 . S
C741 H768 0.949 . S
C742 C741 1.390 . S
C742 C743 1.357 . S
C743 C742 1.357 . S
C743 C744 1.370 . S
C743 H769 0.950 . S
C744 N739 1.307 . S
C744 C743 1.370 . S
C744 H762 0.948 . S
Zn745 N739 2.020 1_655 S
Zn745 O754 2.039 . S
Zn745 O760 2.034 . S
Zn745 O764 2.025 . S
Zn745 O766 2.024 . S
C746 O765 1.246 . S
C746 O766 1.249 . S
N747 C748 1.307 . S
N747 C749 1.333 . S
N747 Zn753 2.020 . S
C748 N747 1.307 . S
C748 C752 1.370 . S
C748 H759 0.948 . S
C749 N747 1.333 . S
C749 C750 1.379 . S
C749 H757 0.952 . S
C750 C749 1.379 . S
C750 C751 1.390 . S
C750 H770 0.949 . S
C751 C750 1.390 . S
C751 C752 1.357 . S
C752 C748 1.370 . S
C752 C751 1.357 . S
C752 H771 0.950 . S
Zn753 N747 2.020 . S
Zn753 O756 2.025 . S
Zn753 O761 2.024 . S
Zn753 O763 2.039 . S
Zn753 O765 2.034 . S
O754 C738 1.251 . S
O754 Zn745 2.039 . S
C755 O760 1.246 . S
C755 O761 1.249 . S
O756 C738 1.254 . S
O756 Zn753 2.025 . S
H757 C749 0.952 . S
H758 C740 0.952 . S
H759 C748 0.948 . S
O760 Zn745 2.034 . S
O760 C755 1.246 . S
O761 Zn753 2.024 . S
O761 C755 1.249 . S
H762 C744 0.948 . S
O763 Zn753 2.039 . S
O763 C767 1.251 . S
O764 Zn745 2.025 . S
O764 C767 1.254 . S
O765 C746 1.246 . S
O765 Zn753 2.034 . S
O766 Zn745 2.024 . S
O766 C746 1.249 . S
C767 O763 1.251 . S
C767 O764 1.254 . S
H768 C741 0.949 . S
H769 C743 0.950 . S
H770 C750 0.949 . S
H771 C752 0.950 . S
C772 O788 1.251 . S
C772 O790 1.254 . S
N773 C774 1.333 . S
N773 C778 1.307 . S
N773 Zn779 2.020 . S
C774 N773 1.333 . S
C774 C775 1.379 . S
C774 H792 0.952 . S
C775 C774 1.379 . S
C775 C776 1.390 1_565 S
C775 H802 0.949 . S
C776 C775 1.390 1_545 S
C776 C777 1.357 . S
C777 C776 1.357 . S
C777 C778 1.370 1_545 S
C777 H803 0.950 . S
C778 N773 1.307 . S
C778 C777 1.370 1_565 S
C778 H796 0.948 . S
Zn779 N773 2.020 . S
Zn779 O788 2.039 . S
Zn779 O794 2.034 . S
Zn779 O798 2.025 . S
Zn779 O800 2.024 . S
C780 O799 1.246 . S
C780 O800 1.249 . S
N781 C782 1.307 . S
N781 C783 1.333 . S
N781 Zn787 2.020 . S
C782 N781 1.307 . S
C782 C786 1.370 . S
C782 H793 0.948 . S
C783 N781 1.333 . S
C783 C784 1.379 . S
C783 H791 0.952 . S
C784 C783 1.379 . S
C784 C785 1.390 . S
C784 H804 0.949 . S
C785 C784 1.390 . S
C785 C786 1.357 . S
C786 C782 1.370 . S
C786 C785 1.357 . S
C786 H805 0.950 . S
Zn787 N781 2.020 . S
Zn787 O790 2.025 . S
Zn787 O795 2.024 . S
Zn787 O797 2.039 . S
Zn787 O799 2.034 . S
O788 C772 1.251 . S
O788 Zn779 2.039 . S
C789 O794 1.246 . S
C789 O795 1.249 . S
O790 C772 1.254 . S
O790 Zn787 2.025 . S
H791 C783 0.952 . S
H792 C774 0.952 . S
H793 C782 0.948 . S
O794 Zn779 2.034 . S
O794 C789 1.246 . S
O795 Zn787 2.024 . S
O795 C789 1.249 . S
H796 C778 0.948 . S
O797 Zn787 2.039 . S
O797 C801 1.251 . S
O798 Zn779 2.025 . S
O798 C801 1.254 . S
O799 C780 1.246 . S
O799 Zn787 2.034 . S
O800 Zn779 2.024 . S
O800 C780 1.249 . S
C801 O797 1.251 . S
C801 O798 1.254 . S
H802 C775 0.949 . S
H803 C777 0.950 . S
H804 C784 0.949 . S
H805 C786 0.950 . S
C806 O822 1.251 . S
C806 O824 1.254 . S
N807 C808 1.333 . S
N807 C812 1.307 . S
N807 Zn813 2.020 . S
C808 N807 1.333 . S
C808 C809 1.379 . S
C808 H826 0.952 . S
C809 C808 1.379 . S
C809 C810 1.390 . S
C809 H836 0.949 . S
C810 C809 1.390 . S
C810 C811 1.357 . S
C811 C810 1.357 . S
C811 C812 1.370 . S
C811 H837 0.950 . S
C812 N807 1.307 . S
C812 C811 1.370 . S
C812 H830 0.948 . S
Zn813 N807 2.020 . S
Zn813 O822 2.039 . S
Zn813 O828 2.034 . S
Zn813 O832 2.025 . S
Zn813 O834 2.024 . S
C814 O833 1.246 . S
C814 O834 1.249 . S
N815 C816 1.307 . S
N815 C817 1.333 . S
N815 Zn821 2.020 . S
C816 N815 1.307 . S
C816 C820 1.370 . S
C816 H827 0.948 . S
C817 N815 1.333 . S
C817 C818 1.379 . S
C817 H825 0.952 . S
C818 C817 1.379 . S
C818 C819 1.390 . S
C818 H838 0.949 . S
C819 C818 1.390 . S
C819 C820 1.357 . S
C820 C816 1.370 . S
C820 C819 1.357 . S
C820 H839 0.950 . S
Zn821 N815 2.020 . S
Zn821 O824 2.025 . S
Zn821 O829 2.024 . S
Zn821 O831 2.039 . S
Zn821 O833 2.034 . S
O822 C806 1.251 . S
O822 Zn813 2.039 . S
C823 O828 1.246 . S
C823 O829 1.249 . S
O824 C806 1.254 . S
O824 Zn821 2.025 . S
H825 C817 0.952 . S
H826 C808 0.952 . S
H827 C816 0.948 . S
O828 Zn813 2.034 . S
O828 C823 1.246 . S
O829 Zn821 2.024 . S
O829 C823 1.249 . S
H830 C812 0.948 . S
O831 Zn821 2.039 . S
O831 C835 1.251 . S
O832 Zn813 2.025 . S
O832 C835 1.254 . S
O833 C814 1.246 . S
O833 Zn821 2.034 . S
O834 Zn813 2.024 . S
O834 C814 1.249 . S
C835 O831 1.251 . S
C835 O832 1.254 . S
H836 C809 0.949 . S
H837 C811 0.950 . S
H838 C818 0.949 . S
H839 C820 0.950 . S
C840 O856 1.251 . S
C840 O858 1.254 . S
N841 C842 1.333 . S
N841 C846 1.307 . S
N841 Zn847 2.020 . S
C842 N841 1.333 . S
C842 C843 1.379 . S
C842 H860 0.952 . S
C843 C842 1.379 . S
C843 C844 1.390 . S
C843 H870 0.949 . S
C844 C843 1.390 . S
C844 C845 1.357 . S
C845 C844 1.357 . S
C845 C846 1.370 . S
C845 H871 0.950 . S
C846 N841 1.307 . S
C846 C845 1.370 . S
C846 H864 0.948 . S
Zn847 N841 2.020 . S
Zn847 O856 2.039 . S
Zn847 O862 2.034 . S
Zn847 O866 2.025 . S
Zn847 O868 2.024 . S
C848 O867 1.246 . S
C848 O868 1.249 . S
N849 C850 1.307 1_556 S
N849 C851 1.333 1_556 S
N849 Zn855 2.020 . S
C850 N849 1.307 1_554 S
C850 C854 1.370 . S
C850 H861 0.948 . S
C851 N849 1.333 1_554 S
C851 C852 1.379 . S
C851 H859 0.964 . S
C852 C851 1.379 . S
C852 C853 1.390 . S
C852 H872 0.949 . S
C853 C852 1.390 . S
C853 C854 1.357 . S
C854 C850 1.370 . S
C854 C853 1.357 . S
C854 H873 0.950 . S
Zn855 N849 2.020 . S
Zn855 O858 2.025 . S
Zn855 O863 2.024 . S
Zn855 O865 2.039 . S
Zn855 O867 2.034 . S
O856 C840 1.251 . S
O856 Zn847 2.039 . S
C857 O862 1.246 . S
C857 O863 1.249 . S
O858 C840 1.254 . S
O858 Zn855 2.025 . S
H859 C851 0.964 . S
H860 C842 0.952 . S
H861 C850 0.948 . S
O862 Zn847 2.034 . S
O862 C857 1.246 . S
O863 Zn855 2.024 . S
O863 C857 1.249 . S
H864 C846 0.948 . S
O865 Zn855 2.039 . S
O865 C869 1.251 . S
O866 Zn847 2.025 . S
O866 C869 1.254 . S
O867 C848 1.246 . S
O867 Zn855 2.034 . S
O868 Zn847 2.024 . S
O868 C848 1.249 . S
C869 O865 1.251 . S
C869 O866 1.254 . S
H870 C843 0.949 . S
H871 C845 0.950 . S
H872 C852 0.949 . S
H873 C854 0.950 . S
C874 O890 1.251 . S
C874 O892 1.254 . S
N875 C876 1.333 . S
N875 C880 1.307 . S
N875 Zn881 2.020 . S
C876 N875 1.333 . S
C876 C877 1.379 . S
C876 H894 0.952 . S
C877 C876 1.379 . S
C877 C878 1.390 . S
C877 H904 0.949 . S
C878 C877 1.390 . S
C878 C879 1.357 . S
C879 C878 1.357 . S
C879 C880 1.370 . S
C879 H905 0.950 . S
C880 N875 1.307 . S
C880 C879 1.370 . S
C880 H898 0.948 . S
Zn881 N875 2.020 . S
Zn881 O890 2.039 . S
Zn881 O896 2.034 . S
Zn881 O900 2.025 . S
Zn881 O902 2.024 . S
C882 O901 1.246 . S
C882 O902 1.249 . S
N883 C884 1.307 . S
N883 C885 1.333 . S
N883 Zn889 2.020 . S
C884 N883 1.307 . S
C884 C888 1.370 . S
C884 H895 0.948 . S
C885 N883 1.333 . S
C885 C886 1.379 . S
C885 H893 0.952 . S
C886 C885 1.379 . S
C886 C887 1.390 . S
C886 H906 0.949 1_545 S
C887 C886 1.390 . S
C887 C888 1.357 . S
C888 C884 1.370 . S
C888 C887 1.357 . S
C888 H907 0.950 . S
Zn889 N883 2.020 . S
Zn889 O892 2.025 . S
Zn889 O897 2.024 . S
Zn889 O899 2.039 . S
Zn889 O901 2.034 . S
O890 C874 1.251 . S
O890 Zn881 2.039 . S
C891 O896 1.246 . S
C891 O897 1.249 . S
O892 C874 1.254 . S
O892 Zn889 2.025 . S
H893 C885 0.952 . S
H894 C876 0.952 . S
H895 C884 0.948 . S
O896 Zn881 2.034 . S
O896 C891 1.246 . S
O897 Zn889 2.024 . S
O897 C891 1.249 . S
H898 C880 0.948 . S
O899 Zn889 2.039 . S
O899 C903 1.251 . S
O900 Zn881 2.025 . S
O900 C903 1.254 . S
O901 C882 1.246 . S
O901 Zn889 2.034 . S
O902 Zn881 2.024 . S
O902 C882 1.249 . S
C903 O899 1.251 . S
C903 O900 1.254 . S
H904 C877 0.949 . S
H905 C879 0.950 . S
H906 C886 0.949 1_565 S
H907 C888 0.950 . S
C908 C909 1.391 . S
C908 C910 1.394 . S
C908 H924 0.931 1_455 S
C909 C908 1.391 . S
C909 C913 1.376 . S
C910 C908 1.394 . S
C910 C911 1.369 . S
C910 C914 1.531 1_455 S
C911 C910 1.369 . S
C911 C912 1.410 . S
C911 C919 1.503 . S
C912 C911 1.410 . S
C912 C913 1.392 . S
C912 C915 1.511 . S
C913 C909 1.376 . S
C913 C912 1.392 . S
C913 H925 0.929 . S
C914 C910 1.531 1_655 S
C914 H926 0.960 . S
C914 H927 0.962 . S
C914 H928 0.960 . S
C915 C912 1.511 . S
C915 H929 0.961 . S
C915 H930 0.961 . S
C915 H931 0.961 . S
C916 C917 1.370 . S
C916 C918 1.363 . S
C916 H932 0.931 . S
C917 C916 1.370 . S
C917 C921 1.408 . S
C918 C916 1.363 . S
C918 C919 1.370 . S
C918 C922 1.524 . S
C919 C911 1.503 . S
C919 C918 1.370 . S
C919 C920 1.403 . S
C920 C919 1.403 . S
C920 C921 1.404 . S
C920 C923 1.539 . S
C921 C917 1.408 . S
C921 C920 1.404 . S
C921 H933 0.930 . S
C922 C918 1.524 . S
C922 H934 0.956 1_455 S
C922 H935 0.961 . S
C922 H936 0.961 1_455 S
C923 C920 1.539 . S
C923 H937 0.958 . S
C923 H938 0.961 . S
C923 H939 0.960 . S
H924 C908 0.931 1_655 S
H925 C913 0.929 . S
H926 C914 0.960 . S
H927 C914 0.962 . S
H928 C914 0.960 . S
H929 C915 0.961 . S
H930 C915 0.961 . S
H931 C915 0.961 . S
H932 C916 0.931 . S
H933 C921 0.930 . S
H934 C922 0.956 1_655 S
H935 C922 0.961 . S
H936 C922 0.961 1_655 S
H937 C923 0.958 . S
H938 C923 0.961 . S
H939 C923 0.960 . S
C940 C941 1.391 . S
C940 C942 1.394 . S
C940 H956 0.931 . S
C941 C940 1.391 . S
C941 C945 1.376 1_655 S
C942 C940 1.394 . S
C942 C943 1.369 . S
C942 C946 1.531 . S
C943 C942 1.369 . S
C943 C944 1.410 1_655 S
C943 C951 1.503 . S
C944 C943 1.410 1_455 S
C944 C945 1.392 . S
C944 C947 1.511 . S
C945 C941 1.376 1_455 S
C945 C944 1.392 . S
C945 H957 0.929 . S
C946 C942 1.531 . S
C946 H958 0.960 . S
C946 H959 0.962 . S
C946 H960 0.960 . S
C947 C944 1.511 . S
C947 H961 0.961 . S
C947 H962 0.961 . S
C947 H963 0.961 . S
C948 C949 1.370 . S
C948 C950 1.363 . S
C948 H964 0.931 . S
C949 C948 1.370 . S
C949 C953 1.408 . S
C950 C948 1.363 . S
C950 C951 1.370 . S
C950 C954 1.524 . S
C951 C943 1.503 . S
C951 C950 1.370 . S
C951 C952 1.403 . S
C952 C951 1.403 . S
C952 C953 1.404 . S
C952 C955 1.539 1_655 S
C953 C949 1.408 . S
C953 C952 1.404 . S
C953 H965 0.930 . S
C954 C950 1.524 . S
C954 H966 0.956 . S
C954 H967 0.961 . S
C954 H968 0.961 . S
C955 C952 1.539 1_455 S
C955 H969 0.958 1_455 S
C955 H970 0.961 . S
C955 H971 0.960 . S
H956 C940 0.931 . S
H957 C945 0.929 . S
H958 C946 0.960 . S
H959 C946 0.962 . S
H960 C946 0.960 . S
H961 C947 0.961 . S
H962 C947 0.961 . S
H963 C947 0.961 . S
H964 C948 0.931 . S
H965 C953 0.930 . S
H966 C954 0.956 . S
H967 C954 0.961 . S
H968 C954 0.961 . S
H969 C955 0.958 1_655 S
H970 C955 0.961 . S
H971 C955 0.960 . S
C972 C973 1.391 . S
C972 C974 1.394 . S
C972 H988 0.931 . S
C973 C972 1.391 . S
C973 C977 1.376 . S
C974 C972 1.394 . S
C974 C975 1.369 . S
C974 C978 1.531 . S
C975 C974 1.369 . S
C975 C976 1.410 . S
C975 C983 1.503 . S
C976 C975 1.410 . S
C976 C977 1.392 . S
C976 C979 1.511 . S
C977 C973 1.376 . S
C977 C976 1.392 . S
C977 H989 0.929 . S
C978 C974 1.531 . S
C978 H990 0.960 . S
C978 H991 0.962 . S
C978 H992 0.960 . S
C979 C976 1.511 . S
C979 H993 0.961 1_455 S
C979 H994 0.961 . S
C979 H995 0.961 1_455 S
C980 C981 1.370 . S
C980 C982 1.363 . S
C980 H996 0.931 . S
C981 C980 1.370 . S
C981 C985 1.408 . S
C982 C980 1.363 . S
C982 C983 1.370 . S
C982 C986 1.524 . S
C983 C975 1.503 . S
C983 C982 1.370 . S
C983 C984 1.403 . S
C984 C983 1.403 . S
C984 C985 1.404 . S
C984 C987 1.539 . S
C985 C981 1.408 . S
C985 C984 1.404 . S
C985 H997 0.930 . S
C986 C982 1.524 . S
C986 H998 0.956 . S
C986 H999 0.961 . S
C986 H1000 0.961 . S
C987 C984 1.539 . S
C987 H1001 0.958 . S
C987 H1002 0.961 1_455 S
C987 H1003 0.960 . S
H988 C972 0.931 . S
H989 C977 0.929 . S
H990 C978 0.960 . S
H991 C978 0.962 . S
H992 C978 0.960 . S
H993 C979 0.961 1_655 S
H994 C979 0.961 . S
H995 C979 0.961 1_655 S
H996 C980 0.931 . S
H997 C985 0.930 . S
H998 C986 0.956 . S
H999 C986 0.961 . S
H1000 C986 0.961 . S
H1001 C987 0.958 . S
H1002 C987 0.961 1_655 S
H1003 C987 0.960 . S
C1004 C1005 1.391 1_455 S
C1004 C1006 1.394 . S
C1004 H1020 0.931 . S
C1005 C1004 1.391 1_655 S
C1005 C1009 1.376 . S
C1006 C1004 1.394 . S
C1006 C1007 1.369 1_455 S
C1006 C1010 1.531 . S
C1007 C1006 1.369 1_655 S
C1007 C1008 1.410 . S
C1007 C1015 1.503 . S
C1008 C1007 1.410 . S
C1008 C1009 1.392 . S
C1008 C1011 1.511 . S
C1009 C1005 1.376 . S
C1009 C1008 1.392 . S
C1009 H1021 0.929 . S
C1010 C1006 1.531 . S
C1010 H1022 0.960 . S
C1010 H1023 0.962 . S
C1010 H1024 0.960 . S
C1011 C1008 1.511 . S
C1011 H1025 0.961 . S
C1011 H1026 0.961 . S
C1011 H1027 0.961 . S
C1012 C1013 1.370 . S
C1012 C1014 1.363 . S
C1012 H1028 0.931 . S
C1013 C1012 1.370 . S
C1013 C1017 1.408 . S
C1014 C1012 1.363 . S
C1014 C1015 1.370 . S
C1014 C1018 1.524 . S
C1015 C1007 1.503 . S
C1015 C1014 1.370 . S
C1015 C1016 1.403 . S
C1016 C1015 1.403 . S
C1016 C1017 1.404 . S
C1016 C1019 1.539 1_655 S
C1017 C1013 1.408 . S
C1017 C1016 1.404 . S
C1017 H1029 0.930 . S
C1018 C1014 1.524 . S
C1018 H1030 0.954 1_655 S
C1018 H1031 0.961 . S
C1018 H1032 0.961 . S
C1019 C1016 1.539 1_455 S
C1019 H1033 0.958 . S
C1019 H1034 0.961 1_455 S
C1019 H1035 0.960 1_455 S
H1020 C1004 0.931 . S
H1021 C1009 0.929 . S
H1022 C1010 0.960 . S
H1023 C1010 0.962 . S
H1024 C1010 0.960 . S
H1025 C1011 0.961 . S
H1026 C1011 0.961 . S
H1027 C1011 0.961 . S
H1028 C1012 0.931 . S
H1029 C1017 0.930 . S
H1030 C1018 0.954 1_455 S
H1031 C1018 0.961 . S
H1032 C1018 0.961 . S
H1033 C1019 0.958 . S
H1034 C1019 0.961 1_655 S
H1035 C1019 0.960 1_655 S
C1036 C1037 1.391 . S
C1036 C1038 1.394 . S
C1036 H1052 0.931 . S
C1037 C1036 1.391 . S
C1037 C1041 1.376 . S
C1038 C1036 1.394 . S
C1038 C1039 1.369 . S
C1038 C1042 1.531 . S
C1039 C1038 1.369 . S
C1039 C1040 1.410 . S
C1039 C1047 1.503 . S
C1040 C1039 1.410 . S
C1040 C1041 1.392 . S
C1040 C1043 1.511 . S
C1041 C1037 1.376 . S
C1041 C1040 1.392 . S
C1041 H1053 0.929 . S
C1042 C1038 1.531 . S
C1042 H1054 0.960 . S
C1042 H1055 0.962 . S
C1042 H1056 0.960 . S
C1043 C1040 1.511 . S
C1043 H1057 0.961 . S
C1043 H1058 0.961 . S
C1043 H1059 0.961 . S
C1044 C1045 1.370 1_554 S
C1044 C1046 1.363 . S
C1044 H1060 0.931 . S
C1045 C1044 1.370 1_556 S
C1045 C1049 1.408 1_556 S
C1046 C1044 1.363 . S
C1046 C1047 1.370 . S
C1046 C1050 1.524 . S
C1047 C1039 1.503 . S
C1047 C1046 1.370 . S
C1047 C1048 1.403 . S
C1048 C1047 1.403 . S
C1048 C1049 1.404 . S
C1048 C1051 1.539 1_545 S
C1049 C1045 1.408 1_554 S
C1049 C1048 1.404 . S
C1049 H1061 0.930 1_545 S
C1050 C1046 1.524 . S
C1050 H1062 0.956 . S
C1050 H1063 0.961 . S
C1050 H1064 0.961 . S
C1051 C1048 1.539 1_565 S
C1051 H1065 0.958 . S
C1051 H1066 0.961 . S
C1051 H1067 0.960 . S
H1052 C1036 0.931 . S
H1053 C1041 0.929 . S
H1054 C1042 0.960 . S
H1055 C1042 0.962 . S
H1056 C1042 0.960 . S
H1057 C1043 0.961 . S
H1058 C1043 0.961 . S
H1059 C1043 0.961 . S
H1060 C1044 0.931 . S
H1061 C1049 0.930 1_565 S
H1062 C1050 0.956 . S
H1063 C1050 0.961 . S
H1064 C1050 0.961 . S
H1065 C1051 0.958 . S
H1066 C1051 0.961 . S
H1067 C1051 0.960 . S
C1068 C1069 1.391 . S
C1068 C1070 1.394 . S
C1068 H1084 0.931 . S
C1069 C1068 1.391 . S
C1069 C1073 1.376 . S
C1070 C1068 1.394 . S
C1070 C1071 1.369 . S
C1070 C1074 1.531 . S
C1071 C1070 1.369 . S
C1071 C1072 1.410 . S
C1071 C1079 1.503 . S
C1072 C1071 1.410 . S
C1072 C1073 1.392 . S
C1072 C1075 1.511 . S
C1073 C1069 1.376 . S
C1073 C1072 1.392 . S
C1073 H1085 0.929 . S
C1074 C1070 1.531 . S
C1074 H1086 0.960 . S
C1074 H1087 0.962 . S
C1074 H1088 0.960 . S
C1075 C1072 1.511 . S
C1075 H1089 0.961 . S
C1075 H1090 0.961 . S
C1075 H1091 0.961 . S
C1076 C1077 1.370 . S
C1076 C1078 1.363 . S
C1076 H1092 0.931 . S
C1077 C1076 1.370 . S
C1077 C1081 1.408 . S
C1078 C1076 1.363 . S
C1078 C1079 1.370 . S
C1078 C1082 1.524 . S
C1079 C1071 1.503 . S
C1079 C1078 1.370 . S
C1079 C1080 1.403 . S
C1080 C1079 1.403 . S
C1080 C1081 1.404 . S
C1080 C1083 1.539 . S
C1081 C1077 1.408 . S
C1081 C1080 1.404 . S
C1081 H1093 0.930 . S
C1082 C1078 1.524 . S
C1082 H1094 0.956 . S
C1082 H1095 0.961 . S
C1082 H1096 0.961 . S
C1083 C1080 1.539 . S
C1083 H1097 0.958 . S
C1083 H1098 0.961 . S
C1083 H1099 0.960 . S
H1084 C1068 0.931 . S
H1085 C1073 0.929 . S
H1086 C1074 0.960 . S
H1087 C1074 0.962 . S
H1088 C1074 0.960 . S
H1089 C1075 0.961 . S
H1090 C1075 0.961 . S
H1091 C1075 0.961 . S
H1092 C1076 0.931 . S
H1093 C1081 0.930 . S
H1094 C1082 0.956 . S
H1095 C1082 0.961 . S
H1096 C1082 0.961 . S
H1097 C1083 0.958 . S
H1098 C1083 0.961 . S
H1099 C1083 0.960 . S
C1100 C1101 1.391 . S
C1100 C1102 1.394 . S
C1100 H1116 0.931 . S
C1101 C1100 1.391 . S
C1101 C1105 1.376 1_565 S
C1102 C1100 1.394 . S
C1102 C1103 1.369 . S
C1102 C1106 1.531 . S
C1103 C1102 1.369 . S
C1103 C1104 1.410 1_565 S
C1103 C1111 1.501 1_565 S
C1104 C1103 1.410 1_545 S
C1104 C1105 1.392 . S
C1104 C1107 1.511 . S
C1105 C1101 1.376 1_545 S
C1105 C1104 1.392 . S
C1105 H1117 0.929 . S
C1106 C1102 1.531 . S
C1106 H1118 0.960 . S
C1106 H1119 0.962 . S
C1106 H1120 0.960 . S
C1107 C1104 1.511 . S
C1107 H1121 0.961 . S
C1107 H1122 0.961 . S
C1107 H1123 0.961 . S
C1108 C1109 1.370 . S
C1108 C1110 1.363 . S
C1108 H1124 0.931 . S
C1109 C1108 1.370 . S
C1109 C1113 1.408 1_545 S
C1110 C1108 1.363 . S
C1110 C1111 1.380 . S
C1110 C1114 1.524 . S
C1111 C1103 1.501 1_545 S
C1111 C1110 1.380 . S
C1111 C1112 1.395 1_545 S
C1112 C1111 1.395 1_565 S
C1112 C1113 1.404 . S
C1112 C1115 1.539 . S
C1113 C1109 1.408 1_565 S
C1113 C1112 1.404 . S
C1113 H1125 0.930 . S
C1114 C1110 1.524 . S
C1114 H1126 0.956 . S
C1114 H1127 0.961 . S
C1114 H1128 0.961 . S
C1115 C1112 1.539 . S
C1115 H1129 0.958 . S
C1115 H1130 0.961 . S
C1115 H1131 0.960 . S
H1116 C1100 0.931 . S
H1117 C1105 0.929 . S
H1118 C1106 0.960 . S
H1119 C1106 0.962 . S
H1120 C1106 0.960 . S
H1121 C1107 0.961 . S
H1122 C1107 0.961 . S
H1123 C1107 0.961 . S
H1124 C1108 0.931 . S
H1125 C1113 0.930 . S
H1126 C1114 0.956 . S
H1127 C1114 0.961 . S
H1128 C1114 0.961 . S
H1129 C1115 0.958 . S
H1130 C1115 0.961 . S
H1131 C1115 0.960 . S
C1132 C1133 1.391 . S
C1132 C1134 1.394 . S
C1132 H1148 0.931 . S
C1133 C1132 1.391 . S
C1133 C1137 1.376 . S
C1134 C1132 1.394 . S
C1134 C1135 1.369 . S
C1134 C1138 1.531 . S
C1135 C1134 1.369 . S
C1135 C1136 1.410 . S
C1135 C1143 1.503 . S
C1136 C1135 1.410 . S
C1136 C1137 1.392 . S
C1136 C1139 1.511 . S
C1137 C1133 1.376 . S
C1137 C1136 1.392 . S
C1137 H1149 0.929 . S
C1138 C1134 1.531 . S
C1138 H1150 0.960 . S
C1138 H1151 0.962 . S
C1138 H1152 0.960 . S
C1139 C1136 1.511 . S
C1139 H1153 0.961 . S
C1139 H1154 0.961 . S
C1139 H1155 0.961 . S
C1140 C1141 1.370 . S
C1140 C1142 1.363 . S
C1140 H1156 0.931 . S
C1141 C1140 1.370 . S
C1141 C1145 1.408 . S
C1142 C1140 1.363 . S
C1142 C1143 1.370 . S
C1142 C1146 1.524 . S
C1143 C1135 1.503 . S
C1143 C1142 1.370 . S
C1143 C1144 1.403 . S
C1144 C1143 1.403 . S
C1144 C1145 1.404 . S
C1144 C1147 1.539 . S
C1145 C1141 1.408 . S
C1145 C1144 1.404 . S
C1145 H1157 0.930 . S
C1146 C1142 1.524 . S
C1146 H1158 0.956 . S
C1146 H1159 0.961 . S
C1146 H1160 0.961 . S
C1147 C1144 1.539 . S
C1147 H1161 0.958 . S
C1147 H1162 0.961 . S
C1147 H1163 0.960 . S
H1148 C1132 0.931 . S
H1149 C1137 0.929 . S
H1150 C1138 0.960 . S
H1151 C1138 0.962 . S
H1152 C1138 0.960 . S
H1153 C1139 0.961 . S
H1154 C1139 0.961 . S
H1155 C1139 0.961 . S
H1156 C1140 0.931 . S
H1157 C1145 0.930 . S
H1158 C1146 0.956 . S
H1159 C1146 0.961 . S
H1160 C1146 0.961 . S
H1161 C1147 0.958 . S
H1162 C1147 0.961 . S
H1163 C1147 0.960 . S
C1164 C1165 1.391 . S
C1164 C1166 1.394 . S
C1164 H1180 0.931 . S
C1165 C1164 1.391 . S
C1165 C1169 1.376 . S
C1166 C1164 1.394 . S
C1166 C1167 1.369 . S
C1166 C1170 1.531 . S
C1167 C1166 1.369 . S
C1167 C1168 1.410 . S
C1167 C1175 1.503 . S
C1168 C1167 1.410 . S
C1168 C1169 1.392 . S
C1168 C1171 1.511 . S
C1169 C1165 1.376 . S
C1169 C1168 1.392 . S
C1169 H1181 0.929 . S
C1170 C1166 1.531 . S
C1170 H1182 0.960 . S
C1170 H1183 0.962 . S
C1170 H1184 0.960 . S
C1171 C1168 1.511 . S
C1171 H1185 0.961 1_554 S
C1171 H1186 0.961 1_554 S
C1171 H1187 0.961 . S
C1172 C1173 1.370 1_556 S
C1172 C1174 1.363 . S
C1172 H1188 0.931 . S
C1173 C1172 1.370 1_554 S
C1173 C1177 1.408 . S
C1174 C1172 1.363 . S
C1174 C1175 1.372 1_556 S
C1174 C1178 1.522 . S
C1175 C1167 1.503 . S
C1175 C1174 1.372 1_554 S
C1175 C1176 1.403 . S
C1176 C1175 1.403 . S
C1176 C1177 1.404 . S
C1176 C1179 1.539 . S
C1177 C1173 1.408 . S
C1177 C1176 1.404 . S
C1177 H1189 0.930 . S
C1178 C1174 1.522 . S
C1178 H1190 0.956 . S
C1178 H1191 0.961 . S
C1178 H1192 0.961 . S
C1179 C1176 1.539 . S
C1179 H1193 0.958 . S
C1179 H1194 0.961 . S
C1179 H1195 0.960 . S
H1180 C1164 0.931 . S
H1181 C1169 0.929 . S
H1182 C1170 0.960 . S
H1183 C1170 0.962 . S
H1184 C1170 0.960 . S
H1185 C1171 0.961 1_556 S
H1186 C1171 0.961 1_556 S
H1187 C1171 0.961 . S
H1188 C1172 0.931 . S
H1189 C1177 0.930 . S
H1190 C1178 0.956 . S
H1191 C1178 0.961 . S
H1192 C1178 0.961 . S
H1193 C1179 0.958 . S
H1194 C1179 0.961 . S
H1195 C1179 0.960 . S
C1196 C1197 1.391 . S
C1196 C1198 1.394 . S
C1196 H1212 0.931 . S
C1197 C1196 1.391 . S
C1197 C1201 1.376 . S
C1198 C1196 1.394 . S
C1198 C1199 1.369 . S
C1198 C1202 1.531 . S
C1199 C1198 1.369 . S
C1199 C1200 1.410 . S
C1199 C1207 1.503 . S
C1200 C1199 1.410 . S
C1200 C1201 1.392 . S
C1200 C1203 1.511 . S
C1201 C1197 1.376 . S
C1201 C1200 1.392 . S
C1201 H1213 0.929 . S
C1202 C1198 1.531 . S
C1202 H1214 0.960 . S
C1202 H1215 0.962 . S
C1202 H1216 0.960 . S
C1203 C1200 1.511 . S
C1203 H1217 0.961 . S
C1203 H1218 0.961 . S
C1203 H1219 0.961 . S
C1204 C1205 1.370 . S
C1204 C1206 1.363 . S
C1204 H1220 0.931 . S
C1205 C1204 1.370 . S
C1205 C1209 1.408 . S
C1206 C1204 1.363 . S
C1206 C1207 1.370 . S
C1206 C1210 1.524 . S
C1207 C1199 1.503 . S
C1207 C1206 1.370 . S
C1207 C1208 1.403 . S
C1208 C1207 1.403 . S
C1208 C1209 1.404 . S
C1208 C1211 1.539 . S
C1209 C1205 1.408 . S
C1209 C1208 1.404 . S
C1209 H1221 0.930 . S
C1210 C1206 1.524 . S
C1210 H1222 0.956 . S
C1210 H1223 0.961 . S
C1210 H1224 0.961 . S
C1211 C1208 1.539 . S
C1211 H1225 0.958 . S
C1211 H1226 0.961 . S
C1211 H1227 0.960 . S
H1212 C1196 0.931 . S
H1213 C1201 0.929 . S
H1214 C1202 0.960 . S
H1215 C1202 0.962 . S
H1216 C1202 0.960 . S
H1217 C1203 0.961 . S
H1218 C1203 0.961 . S
H1219 C1203 0.961 . S
H1220 C1204 0.931 . S
H1221 C1209 0.930 . S
H1222 C1210 0.956 . S
H1223 C1210 0.961 . S
H1224 C1210 0.961 . S
H1225 C1211 0.958 . S
H1226 C1211 0.961 . S
H1227 C1211 0.960 . S
C1228 C1229 1.391 . S
C1228 C1230 1.394 . S
C1228 H1244 0.931 . S
C1229 C1228 1.391 . S
C1229 C1233 1.376 . S
C1230 C1228 1.394 . S
C1230 C1231 1.369 . S
C1230 C1234 1.531 . S
C1231 C1230 1.369 . S
C1231 C1232 1.410 . S
C1231 C1239 1.503 . S
C1232 C1231 1.410 . S
C1232 C1233 1.392 . S
C1232 C1235 1.511 . S
C1233 C1229 1.376 . S
C1233 C1232 1.392 . S
C1233 H1245 0.929 . S
C1234 C1230 1.531 . S
C1234 H1246 0.960 . S
C1234 H1247 0.962 . S
C1234 H1248 0.960 . S
C1235 C1232 1.511 . S
C1235 H1249 0.961 . S
C1235 H1250 0.961 . S
C1235 H1251 0.961 . S
C1236 C1237 1.370 . S
C1236 C1238 1.363 . S
C1236 H1252 0.931 . S
C1237 C1236 1.370 . S
C1237 C1241 1.408 . S
C1238 C1236 1.363 . S
C1238 C1239 1.370 . S
C1238 C1242 1.524 . S
C1239 C1231 1.503 . S
C1239 C1238 1.370 . S
C1239 C1240 1.403 . S
C1240 C1239 1.403 . S
C1240 C1241 1.404 . S
C1240 C1243 1.539 . S
C1241 C1237 1.408 . S
C1241 C1240 1.404 . S
C1241 H1253 0.930 . S
C1242 C1238 1.524 . S
C1242 H1254 0.956 . S
C1242 H1255 0.961 . S
C1242 H1256 0.961 . S
C1243 C1240 1.539 . S
C1243 H1257 0.958 . S
C1243 H1258 0.961 . S
C1243 H1259 0.960 . S
H1244 C1228 0.931 . S
H1245 C1233 0.929 . S
H1246 C1234 0.960 . S
H1247 C1234 0.962 . S
H1248 C1234 0.960 . S
H1249 C1235 0.961 . S
H1250 C1235 0.961 . S
H1251 C1235 0.961 . S
H1252 C1236 0.931 . S
H1253 C1241 0.930 . S
H1254 C1242 0.956 . S
H1255 C1242 0.961 . S
H1256 C1242 0.961 . S
H1257 C1243 0.958 . S
H1258 C1243 0.961 . S
H1259 C1243 0.960 . S
C1260 C1261 1.391 . S
C1260 C1262 1.394 . S
C1260 H1276 0.931 . S
C1261 C1260 1.391 . S
C1261 C1265 1.376 . S
C1262 C1260 1.394 . S
C1262 C1263 1.369 . S
C1262 C1266 1.531 . S
C1263 C1262 1.369 . S
C1263 C1264 1.410 . S
C1263 C1271 1.503 . S
C1264 C1263 1.410 . S
C1264 C1265 1.392 . S
C1264 C1267 1.511 . S
C1265 C1261 1.376 . S
C1265 C1264 1.392 . S
C1265 H1277 0.929 . S
C1266 C1262 1.531 . S
C1266 H1278 0.960 . S
C1266 H1279 0.962 . S
C1266 H1280 0.960 . S
C1267 C1264 1.511 . S
C1267 H1281 0.961 . S
C1267 H1282 0.961 . S
C1267 H1283 0.961 . S
C1268 C1269 1.370 . S
C1268 C1270 1.363 . S
C1268 H1284 0.931 . S
C1269 C1268 1.370 . S
C1269 C1273 1.408 . S
C1270 C1268 1.363 . S
C1270 C1271 1.370 . S
C1270 C1274 1.524 . S
C1271 C1263 1.503 . S
C1271 C1270 1.370 . S
C1271 C1272 1.403 . S
C1272 C1271 1.403 . S
C1272 C1273 1.404 . S
C1272 C1275 1.539 . S
C1273 C1269 1.408 . S
C1273 C1272 1.404 . S
C1273 H1285 0.930 . S
C1274 C1270 1.524 . S
C1274 H1286 0.956 . S
C1274 H1287 0.961 . S
C1274 H1288 0.961 . S
C1275 C1272 1.539 . S
C1275 H1289 0.958 . S
C1275 H1290 0.961 . S
C1275 H1291 0.960 . S
H1276 C1260 0.931 . S
H1277 C1265 0.929 . S
H1278 C1266 0.960 . S
H1279 C1266 0.962 . S
H1280 C1266 0.960 . S
H1281 C1267 0.961 . S
H1282 C1267 0.961 . S
H1283 C1267 0.961 . S
H1284 C1268 0.931 . S
H1285 C1273 0.930 . S
H1286 C1274 0.956 . S
H1287 C1274 0.961 . S
H1288 C1274 0.961 . S
H1289 C1275 0.958 . S
H1290 C1275 0.961 . S
H1291 C1275 0.960 . S
C1292 C1293 1.391 . S
C1292 C1294 1.394 . S
C1292 H1308 0.931 . S
C1293 C1292 1.391 . S
C1293 C1297 1.376 . S
C1294 C1292 1.394 . S
C1294 C1295 1.369 . S
C1294 C1298 1.531 . S
C1295 C1294 1.369 . S
C1295 C1296 1.410 . S
C1295 C1303 1.503 . S
C1296 C1295 1.410 . S
C1296 C1297 1.392 . S
C1296 C1299 1.511 . S
C1297 C1293 1.376 . S
C1297 C1296 1.392 . S
C1297 H1309 0.929 . S
C1298 C1294 1.531 . S
C1298 H1310 0.960 . S
C1298 H1311 0.962 . S
C1298 H1312 0.960 . S
C1299 C1296 1.511 . S
C1299 H1313 0.961 . S
C1299 H1314 0.961 . S
C1299 H1315 0.961 . S
C1300 C1301 1.370 . S
C1300 C1302 1.363 . S
C1300 H1316 0.931 . S
C1301 C1300 1.370 . S
C1301 C1305 1.408 . S
C1302 C1300 1.363 . S
C1302 C1303 1.370 . S
C1302 C1306 1.524 . S
C1303 C1295 1.503 . S
C1303 C1302 1.370 . S
C1303 C1304 1.403 . S
C1304 C1303 1.403 . S
C1304 C1305 1.404 . S
C1304 C1307 1.539 . S
C1305 C1301 1.408 . S
C1305 C1304 1.404 . S
C1305 H1317 0.930 . S
C1306 C1302 1.524 . S
C1306 H1318 0.956 . S
C1306 H1319 0.961 . S
C1306 H1320 0.961 . S
C1307 C1304 1.539 . S
C1307 H1321 0.958 . S
C1307 H1322 0.961 . S
C1307 H1323 0.960 . S
H1308 C1292 0.931 . S
H1309 C1297 0.929 . S
H1310 C1298 0.960 . S
H1311 C1298 0.962 . S
H1312 C1298 0.960 . S
H1313 C1299 0.961 . S
H1314 C1299 0.961 . S
H1315 C1299 0.961 . S
H1316 C1300 0.931 . S
H1317 C1305 0.930 . S
H1318 C1306 0.956 . S
H1319 C1306 0.961 . S
H1320 C1306 0.961 . S
H1321 C1307 0.958 . S
H1322 C1307 0.961 . S
H1323 C1307 0.960 . S
C1324 C1325 1.391 . S
C1324 C1326 1.394 . S
C1324 H1340 0.931 . S
C1325 C1324 1.391 . S
C1325 C1329 1.376 . S
C1326 C1324 1.394 . S
C1326 C1327 1.369 . S
C1326 C1330 1.531 . S
C1327 C1326 1.369 . S
C1327 C1328 1.410 . S
C1327 C1335 1.503 . S
C1328 C1327 1.410 . S
C1328 C1329 1.392 . S
C1328 C1331 1.511 . S
C1329 C1325 1.376 . S
C1329 C1328 1.392 . S
C1329 H1341 0.929 . S
C1330 C1326 1.531 . S
C1330 H1342 0.960 . S
C1330 H1343 0.962 . S
C1330 H1344 0.960 . S
C1331 C1328 1.511 . S
C1331 H1345 0.961 . S
C1331 H1346 0.961 . S
C1331 H1347 0.961 . S
C1332 C1333 1.370 . S
C1332 C1334 1.363 . S
C1332 H1348 0.931 . S
C1333 C1332 1.370 . S
C1333 C1337 1.408 . S
C1334 C1332 1.363 . S
C1334 C1335 1.370 . S
C1334 C1338 1.524 . S
C1335 C1327 1.503 . S
C1335 C1334 1.370 . S
C1335 C1336 1.403 . S
C1336 C1335 1.403 . S
C1336 C1337 1.404 . S
C1336 C1339 1.539 . S
C1337 C1333 1.408 . S
C1337 C1336 1.404 . S
C1337 H1349 0.930 . S
C1338 C1334 1.524 . S
C1338 H1350 0.956 . S
C1338 H1351 0.961 . S
C1338 H1352 0.961 . S
C1339 C1336 1.539 . S
C1339 H1353 0.958 . S
C1339 H1354 0.961 . S
C1339 H1355 0.960 . S
H1340 C1324 0.931 . S
H1341 C1329 0.929 . S
H1342 C1330 0.960 . S
H1343 C1330 0.962 . S
H1344 C1330 0.960 . S
H1345 C1331 0.961 . S
H1346 C1331 0.961 . S
H1347 C1331 0.961 . S
H1348 C1332 0.931 . S
H1349 C1337 0.930 . S
H1350 C1338 0.956 . S
H1351 C1338 0.961 . S
H1352 C1338 0.961 . S
H1353 C1339 0.958 . S
H1354 C1339 0.961 . S
H1355 C1339 0.960 . S
C1356 C1357 1.391 . S
C1356 C1358 1.394 . S
C1356 H1372 0.931 . S
C1357 C1356 1.391 . S
C1357 C1361 1.376 . S
C1358 C1356 1.394 . S
C1358 C1359 1.369 . S
C1358 C1362 1.531 . S
C1359 C1358 1.369 . S
C1359 C1360 1.410 . S
C1359 C1367 1.503 . S
C1360 C1359 1.410 . S
C1360 C1361 1.392 . S
C1360 C1363 1.511 . S
C1361 C1357 1.376 . S
C1361 C1360 1.392 . S
C1361 H1373 0.929 . S
C1362 C1358 1.531 . S
C1362 H1374 0.960 . S
C1362 H1375 0.962 . S
C1362 H1376 0.960 . S
C1363 C1360 1.511 . S
C1363 H1377 0.961 . S
C1363 H1378 0.961 . S
C1363 H1379 0.961 . S
C1364 C1365 1.370 . S
C1364 C1366 1.363 . S
C1364 H1380 0.931 . S
C1365 C1364 1.370 . S
C1365 C1369 1.408 . S
C1366 C1364 1.363 . S
C1366 C1367 1.370 . S
C1366 C1370 1.524 . S
C1367 C1359 1.503 . S
C1367 C1366 1.370 . S
C1367 C1368 1.403 . S
C1368 C1367 1.403 . S
C1368 C1369 1.404 . S
C1368 C1371 1.539 . S
C1369 C1365 1.408 . S
C1369 C1368 1.404 . S
C1369 H1381 0.930 . S
C1370 C1366 1.524 . S
C1370 H1382 0.956 . S
C1370 H1383 0.961 . S
C1370 H1384 0.961 . S
C1371 C1368 1.539 . S
C1371 H1385 0.958 . S
C1371 H1386 0.961 . S
C1371 H1387 0.960 . S
H1372 C1356 0.931 . S
H1373 C1361 0.929 . S
H1374 C1362 0.960 . S
H1375 C1362 0.962 . S
H1376 C1362 0.960 . S
H1377 C1363 0.961 . S
H1378 C1363 0.961 . S
H1379 C1363 0.961 . S
H1380 C1364 0.931 . S
H1381 C1369 0.930 . S
H1382 C1370 0.956 . S
H1383 C1370 0.961 . S
H1384 C1370 0.961 . S
H1385 C1371 0.958 . S
H1386 C1371 0.961 . S
H1387 C1371 0.960 . S
C1388 C1389 1.391 . S
C1388 C1390 1.394 . S
C1388 H1404 0.931 . S
C1389 C1388 1.391 . S
C1389 C1393 1.376 . S
C1390 C1388 1.394 . S
C1390 C1391 1.369 . S
C1390 C1394 1.531 . S
C1391 C1390 1.369 . S
C1391 C1392 1.410 . S
C1391 C1399 1.503 . S
C1392 C1391 1.410 . S
C1392 C1393 1.392 . S
C1392 C1395 1.511 . S
C1393 C1389 1.376 . S
C1393 C1392 1.392 . S
C1393 H1405 0.929 . S
C1394 C1390 1.531 . S
C1394 H1406 0.960 . S
C1394 H1407 0.962 . S
C1394 H1408 0.960 . S
C1395 C1392 1.511 . S
C1395 H1409 0.961 . S
C1395 H1410 0.961 . S
C1395 H1411 0.961 . S
C1396 C1397 1.370 . S
C1396 C1398 1.363 . S
C1396 H1412 0.931 . S
C1397 C1396 1.370 . S
C1397 C1401 1.408 . S
C1398 C1396 1.363 . S
C1398 C1399 1.370 . S
C1398 C1402 1.524 . S
C1399 C1391 1.503 . S
C1399 C1398 1.370 . S
C1399 C1400 1.403 . S
C1400 C1399 1.403 . S
C1400 C1401 1.404 . S
C1400 C1403 1.539 . S
C1401 C1397 1.408 . S
C1401 C1400 1.404 . S
C1401 H1413 0.930 . S
C1402 C1398 1.524 . S
C1402 H1414 0.956 . S
C1402 H1415 0.961 . S
C1402 H1416 0.961 . S
C1403 C1400 1.539 . S
C1403 H1417 0.958 . S
C1403 H1418 0.961 . S
C1403 H1419 0.960 . S
H1404 C1388 0.931 . S
H1405 C1393 0.929 . S
H1406 C1394 0.960 . S
H1407 C1394 0.962 . S
H1408 C1394 0.960 . S
H1409 C1395 0.961 . S
H1410 C1395 0.961 . S
H1411 C1395 0.961 . S
H1412 C1396 0.931 . S
H1413 C1401 0.930 . S
H1414 C1402 0.956 . S
H1415 C1402 0.961 . S
H1416 C1402 0.961 . S
H1417 C1403 0.958 . S
H1418 C1403 0.961 . S
H1419 C1403 0.960 . S
C1420 C1421 1.391 . S
C1420 C1422 1.394 . S
C1420 H1436 0.931 . S
C1421 C1420 1.391 . S
C1421 C1425 1.376 . S
C1422 C1420 1.394 . S
C1422 C1423 1.369 . S
C1422 C1426 1.531 . S
C1423 C1422 1.369 . S
C1423 C1424 1.410 . S
C1423 C1431 1.503 . S
C1424 C1423 1.410 . S
C1424 C1425 1.392 . S
C1424 C1427 1.511 . S
C1425 C1421 1.376 . S
C1425 C1424 1.392 . S
C1425 H1437 0.929 . S
C1426 C1422 1.531 . S
C1426 H1438 0.960 . S
C1426 H1439 0.962 . S
C1426 H1440 0.960 . S
C1427 C1424 1.511 . S
C1427 H1441 0.961 . S
C1427 H1442 0.961 . S
C1427 H1443 0.961 . S
C1428 C1429 1.370 . S
C1428 C1430 1.363 . S
C1428 H1444 0.931 . S
C1429 C1428 1.370 . S
C1429 C1433 1.408 . S
C1430 C1428 1.363 . S
C1430 C1431 1.370 . S
C1430 C1434 1.524 . S
C1431 C1423 1.503 . S
C1431 C1430 1.370 . S
C1431 C1432 1.403 . S
C1432 C1431 1.403 . S
C1432 C1433 1.404 . S
C1432 C1435 1.539 . S
C1433 C1429 1.408 . S
C1433 C1432 1.404 . S
C1433 H1445 0.930 . S
C1434 C1430 1.524 . S
C1434 H1446 0.956 . S
C1434 H1447 0.961 . S
C1434 H1448 0.961 . S
C1435 C1432 1.539 . S
C1435 H1449 0.958 . S
C1435 H1450 0.961 . S
C1435 H1451 0.960 . S
H1436 C1420 0.931 . S
H1437 C1425 0.929 . S
H1438 C1426 0.960 . S
H1439 C1426 0.962 . S
H1440 C1426 0.960 . S
H1441 C1427 0.961 . S
H1442 C1427 0.961 . S
H1443 C1427 0.961 . S
H1444 C1428 0.931 . S
H1445 C1433 0.930 . S
H1446 C1434 0.956 . S
H1447 C1434 0.961 . S
H1448 C1434 0.961 . S
H1449 C1435 0.958 . S
H1450 C1435 0.961 . S
H1451 C1435 0.960 . S
C1452 C1453 1.380 1_545 S
C1452 C1454 1.394 . S
C1452 H1468 0.942 . S
C1453 C1452 1.380 1_565 S
C1453 C1457 1.376 . S
C1454 C1452 1.394 . S
C1454 C1455 1.369 1_545 S
C1454 C1458 1.531 . S
C1455 C1454 1.369 1_565 S
C1455 C1456 1.410 . S
C1455 C1463 1.503 . S
C1456 C1455 1.410 . S
C1456 C1457 1.392 . S
C1456 C1459 1.511 . S
C1457 C1453 1.376 . S
C1457 C1456 1.392 . S
C1457 H1469 0.929 . S
C1458 C1454 1.531 . S
C1458 H1470 0.960 . S
C1458 H1471 0.962 . S
C1458 H1472 0.960 . S
C1459 C1456 1.511 . S
C1459 H1473 0.961 . S
C1459 H1474 0.961 . S
C1459 H1475 0.961 . S
C1460 C1461 1.370 . S
C1460 C1462 1.363 . S
C1460 H1476 0.931 . S
C1461 C1460 1.370 . S
C1461 C1465 1.408 1_565 S
C1462 C1460 1.363 . S
C1462 C1463 1.370 . S
C1462 C1466 1.524 . S
C1463 C1455 1.503 . S
C1463 C1462 1.370 . S
C1463 C1464 1.403 1_565 S
C1464 C1463 1.403 1_545 S
C1464 C1465 1.404 . S
C1464 C1467 1.539 . S
C1465 C1461 1.408 1_545 S
C1465 C1464 1.404 . S
C1465 H1477 0.930 . S
C1466 C1462 1.524 . S
C1466 H1478 0.956 . S
C1466 H1479 0.961 . S
C1466 H1480 0.961 . S
C1467 C1464 1.539 . S
C1467 H1481 0.958 . S
C1467 H1482 0.961 . S
C1467 H1483 0.960 . S
H1468 C1452 0.942 . S
H1469 C1457 0.929 . S
H1470 C1458 0.960 . S
H1471 C1458 0.962 . S
H1472 C1458 0.960 . S
H1473 C1459 0.961 . S
H1474 C1459 0.961 . S
H1475 C1459 0.961 . S
H1476 C1460 0.931 . S
H1477 C1465 0.930 . S
H1478 C1466 0.956 . S
H1479 C1466 0.961 . S
H1480 C1466 0.961 . S
H1481 C1467 0.958 . S
H1482 C1467 0.961 . S
H1483 C1467 0.960 . S
C1484 C1485 1.391 . S
C1484 C1486 1.394 . S
C1484 H1500 0.931 . S
C1485 C1484 1.391 . S
C1485 C1489 1.376 . S
C1486 C1484 1.394 . S
C1486 C1487 1.369 . S
C1486 C1490 1.531 . S
C1487 C1486 1.369 . S
C1487 C1488 1.410 . S
C1487 C1495 1.503 . S
C1488 C1487 1.410 . S
C1488 C1489 1.392 . S
C1488 C1491 1.511 . S
C1489 C1485 1.376 . S
C1489 C1488 1.392 . S
C1489 H1501 0.929 . S
C1490 C1486 1.531 . S
C1490 H1502 0.960 . S
C1490 H1503 0.962 . S
C1490 H1504 0.960 . S
C1491 C1488 1.511 . S
C1491 H1505 0.961 . S
C1491 H1506 0.961 . S
C1491 H1507 0.961 . S
C1492 C1493 1.370 . S
C1492 C1494 1.363 . S
C1492 H1508 0.931 . S
C1493 C1492 1.370 . S
C1493 C1497 1.408 . S
C1494 C1492 1.363 . S
C1494 C1495 1.370 . S
C1494 C1498 1.524 . S
C1495 C1487 1.503 . S
C1495 C1494 1.370 . S
C1495 C1496 1.403 . S
C1496 C1495 1.403 . S
C1496 C1497 1.404 . S
C1496 C1499 1.539 . S
C1497 C1493 1.408 . S
C1497 C1496 1.404 . S
C1497 H1509 0.930 . S
C1498 C1494 1.524 . S
C1498 H1510 0.956 . S
C1498 H1511 0.961 . S
C1498 H1512 0.961 . S
C1499 C1496 1.539 . S
C1499 H1513 0.958 . S
C1499 H1514 0.961 . S
C1499 H1515 0.960 . S
H1500 C1484 0.931 . S
H1501 C1489 0.929 . S
H1502 C1490 0.960 . S
H1503 C1490 0.962 . S
H1504 C1490 0.960 . S
H1505 C1491 0.961 . S
H1506 C1491 0.961 . S
H1507 C1491 0.961 . S
H1508 C1492 0.931 . S
H1509 C1497 0.930 . S
H1510 C1498 0.956 . S
H1511 C1498 0.961 . S
H1512 C1498 0.961 . S
H1513 C1499 0.958 . S
H1514 C1499 0.961 . S
H1515 C1499 0.960 . S
C1516 C1517 1.391 . S
C1516 C1518 1.394 . S
C1516 H1532 0.931 . S
C1517 C1516 1.391 . S
C1517 C1521 1.376 . S
C1518 C1516 1.394 . S
C1518 C1519 1.369 . S
C1518 C1522 1.531 . S
C1519 C1518 1.369 . S
C1519 C1520 1.410 . S
C1519 C1527 1.503 . S
C1520 C1519 1.410 . S
C1520 C1521 1.392 . S
C1520 C1523 1.511 . S
C1521 C1517 1.376 . S
C1521 C1520 1.392 . S
C1521 H1533 0.929 . S
C1522 C1518 1.531 . S
C1522 H1534 0.960 . S
C1522 H1535 0.962 . S
C1522 H1536 0.960 . S
C1523 C1520 1.511 . S
C1523 H1537 0.961 . S
C1523 H1538 0.961 . S
C1523 H1539 0.961 1_545 S
C1524 C1525 1.370 . S
C1524 C1526 1.363 . S
C1524 H1540 0.931 . S
C1525 C1524 1.370 . S
C1525 C1529 1.408 1_545 S
C1526 C1524 1.363 . S
C1526 C1527 1.370 . S
C1526 C1530 1.524 . S
C1527 C1519 1.503 . S
C1527 C1526 1.370 . S
C1527 C1528 1.403 1_545 S
C1528 C1527 1.403 1_565 S
C1528 C1529 1.404 . S
C1528 C1531 1.539 . S
C1529 C1525 1.408 1_565 S
C1529 C1528 1.404 . S
C1529 H1541 0.930 . S
C1530 C1526 1.524 . S
C1530 H1542 0.956 . S
C1530 H1543 0.961 . S
C1530 H1544 0.961 . S
C1531 C1528 1.539 . S
C1531 H1545 0.958 . S
C1531 H1546 0.961 . S
C1531 H1547 0.960 . S
H1532 C1516 0.931 . S
H1533 C1521 0.929 . S
H1534 C1522 0.960 . S
H1535 C1522 0.962 . S
H1536 C1522 0.960 . S
H1537 C1523 0.961 . S
H1538 C1523 0.961 . S
H1539 C1523 0.961 1_565 S
H1540 C1524 0.931 . S
H1541 C1529 0.930 . S
H1542 C1530 0.956 . S
H1543 C1530 0.961 . S
H1544 C1530 0.961 . S
H1545 C1531 0.958 . S
H1546 C1531 0.961 . S
H1547 C1531 0.960 . S
C1548 C1549 1.391 . S
C1548 C1550 1.394 . S
C1548 H1564 0.931 . S
C1549 C1548 1.391 . S
C1549 C1553 1.376 . S
C1550 C1548 1.394 . S
C1550 C1551 1.369 . S
C1550 C1554 1.531 . S
C1551 C1550 1.369 . S
C1551 C1552 1.410 . S
C1551 C1559 1.503 . S
C1552 C1551 1.410 . S
C1552 C1553 1.392 . S
C1552 C1555 1.511 . S
C1553 C1549 1.376 . S
C1553 C1552 1.392 . S
C1553 H1565 0.929 . S
C1554 C1550 1.531 . S
C1554 H1566 0.960 . S
C1554 H1567 0.962 . S
C1554 H1568 0.960 . S
C1555 C1552 1.511 . S
C1555 H1569 0.961 . S
C1555 H1570 0.961 . S
C1555 H1571 0.961 . S
C1556 C1557 1.370 . S
C1556 C1558 1.363 . S
C1556 H1572 0.931 . S
C1557 C1556 1.370 . S
C1557 C1561 1.408 . S
C1558 C1556 1.363 . S
C1558 C1559 1.370 . S
C1558 C1562 1.524 . S
C1559 C1551 1.503 . S
C1559 C1558 1.370 . S
C1559 C1560 1.403 . S
C1560 C1559 1.403 . S
C1560 C1561 1.404 . S
C1560 C1563 1.539 . S
C1561 C1557 1.408 . S
C1561 C1560 1.404 . S
C1561 H1573 0.930 . S
C1562 C1558 1.524 . S
C1562 H1574 0.956 . S
C1562 H1575 0.961 . S
C1562 H1576 0.961 . S
C1563 C1560 1.539 . S
C1563 H1577 0.958 . S
C1563 H1578 0.961 . S
C1563 H1579 0.960 . S
H1564 C1548 0.931 . S
H1565 C1553 0.929 . S
H1566 C1554 0.960 . S
H1567 C1554 0.962 . S
H1568 C1554 0.960 . S
H1569 C1555 0.961 . S
H1570 C1555 0.961 . S
H1571 C1555 0.961 . S
H1572 C1556 0.931 . S
H1573 C1561 0.930 . S
H1574 C1562 0.956 . S
H1575 C1562 0.961 . S
H1576 C1562 0.961 . S
H1577 C1563 0.958 . S
H1578 C1563 0.961 . S
H1579 C1563 0.960 . S
C1580 C1581 1.391 1_554 S
C1580 C1582 1.394 1_554 S
C1580 H1596 0.931 . S
C1581 C1580 1.391 1_556 S
C1581 C1585 1.376 . S
C1582 C1580 1.394 1_556 S
C1582 C1583 1.369 . S
C1582 C1586 1.531 1_556 S
C1583 C1582 1.369 . S
C1583 C1584 1.410 . S
C1583 C1591 1.503 . S
C1584 C1583 1.410 . S
C1584 C1585 1.392 . S
C1584 C1587 1.511 . S
C1585 C1581 1.376 . S
C1585 C1584 1.392 . S
C1585 H1597 0.929 . S
C1586 C1582 1.531 1_554 S
C1586 H1598 0.960 . S
C1586 H1599 0.962 . S
C1586 H1600 0.960 . S
C1587 C1584 1.511 . S
C1587 H1601 0.961 . S
C1587 H1602 0.961 . S
C1587 H1603 0.961 . S
C1588 C1589 1.370 . S
C1588 C1590 1.363 . S
C1588 H1604 0.914 1_556 S
C1589 C1588 1.370 . S
C1589 C1593 1.408 . S
C1590 C1588 1.363 . S
C1590 C1591 1.370 . S
C1590 C1594 1.524 1_556 S
C1591 C1583 1.503 . S
C1591 C1590 1.370 . S
C1591 C1592 1.403 . S
C1592 C1591 1.403 . S
C1592 C1593 1.404 . S
C1592 C1595 1.539 . S
C1593 C1589 1.408 . S
C1593 C1592 1.404 . S
C1593 H1605 0.930 . S
C1594 C1590 1.524 1_554 S
C1594 H1606 0.956 . S
C1594 H1607 0.961 . S
C1594 H1608 0.961 . S
C1595 C1592 1.539 . S
C1595 H1609 0.958 . S
C1595 H1610 0.961 . S
C1595 H1611 0.960 . S
H1596 C1580 0.931 . S
H1597 C1585 0.929 . S
H1598 C1586 0.960 . S
H1599 C1586 0.962 . S
H1600 C1586 0.960 . S
H1601 C1587 0.961 . S
H1602 C1587 0.961 . S
H1603 C1587 0.961 . S
H1604 C1588 0.914 1_554 S
H1605 C1593 0.930 . S
H1606 C1594 0.956 . S
H1607 C1594 0.961 . S
H1608 C1594 0.961 . S
H1609 C1595 0.958 . S
H1610 C1595 0.961 . S
H1611 C1595 0.960 . S
C1612 C1613 1.391 . S
C1612 C1614 1.394 . S
C1612 H1628 0.931 . S
C1613 C1612 1.391 . S
C1613 C1617 1.376 1_556 S
C1614 C1612 1.394 . S
C1614 C1615 1.369 . S
C1614 C1618 1.531 . S
C1615 C1614 1.369 . S
C1615 C1616 1.410 1_556 S
C1615 C1623 1.503 . S
C1616 C1615 1.410 1_554 S
C1616 C1617 1.392 . S
C1616 C1619 1.511 . S
C1617 C1613 1.376 1_554 S
C1617 C1616 1.392 . S
C1617 H1629 0.929 . S
C1618 C1614 1.531 . S
C1618 H1630 0.960 . S
C1618 H1631 0.962 . S
C1618 H1632 0.960 . S
C1619 C1616 1.511 . S
C1619 H1633 0.961 . S
C1619 H1634 0.961 . S
C1619 H1635 0.961 . S
C1620 C1621 1.370 . S
C1620 C1622 1.363 . S
C1620 H1636 0.931 . S
C1621 C1620 1.370 . S
C1621 C1625 1.408 . S
C1622 C1620 1.363 . S
C1622 C1623 1.370 . S
C1622 C1626 1.524 . S
C1623 C1615 1.503 . S
C1623 C1622 1.370 . S
C1623 C1624 1.403 . S
C1624 C1623 1.403 . S
C1624 C1625 1.404 . S
C1624 C1627 1.539 1_556 S
C1625 C1621 1.408 . S
C1625 C1624 1.404 . S
C1625 H1637 0.930 1_556 S
C1626 C1622 1.524 . S
C1626 H1638 0.956 . S
C1626 H1639 0.961 . S
C1626 H1640 0.961 . S
C1627 C1624 1.539 1_554 S
C1627 H1641 0.958 . S
C1627 H1642 0.961 . S
C1627 H1643 0.960 . S
H1628 C1612 0.931 . S
H1629 C1617 0.929 . S
H1630 C1618 0.960 . S
H1631 C1618 0.962 . S
H1632 C1618 0.960 . S
H1633 C1619 0.961 . S
H1634 C1619 0.961 . S
H1635 C1619 0.961 . S
H1636 C1620 0.931 . S
H1637 C1625 0.930 1_554 S
H1638 C1626 0.956 . S
H1639 C1626 0.961 . S
H1640 C1626 0.961 . S
H1641 C1627 0.958 . S
H1642 C1627 0.961 . S
H1643 C1627 0.960 . S
C1644 C1645 1.391 . S
C1644 C1646 1.394 . S
C1644 H1660 0.931 . S
C1645 C1644 1.391 . S
C1645 C1649 1.376 . S
C1646 C1644 1.394 . S
C1646 C1647 1.369 . S
C1646 C1650 1.531 . S
C1647 C1646 1.369 . S
C1647 C1648 1.410 . S
C1647 C1655 1.503 . S
C1648 C1647 1.410 . S
C1648 C1649 1.392 . S
C1648 C1651 1.511 . S
C1649 C1645 1.376 . S
C1649 C1648 1.392 . S
C1649 H1661 0.929 . S
C1650 C1646 1.531 . S
C1650 H1662 0.960 . S
C1650 H1663 0.962 . S
C1650 H1664 0.960 . S
C1651 C1648 1.511 . S
C1651 H1665 0.961 . S
C1651 H1666 0.961 . S
C1651 H1667 0.961 . S
C1652 C1653 1.370 . S
C1652 C1654 1.363 1_455 S
C1652 H1668 0.972 . S
C1653 C1652 1.370 . S
C1653 C1657 1.408 . S
C1654 C1652 1.363 1_655 S
C1654 C1655 1.370 . S
C1654 C1658 1.524 1_554 S
C1655 C1647 1.503 . S
C1655 C1654 1.370 . S
C1655 C1656 1.403 . S
C1656 C1655 1.403 . S
C1656 C1657 1.404 1_655 S
C1656 C1659 1.539 . S
C1657 C1653 1.408 . S
C1657 C1656 1.404 1_455 S
C1657 H1669 0.930 . S
C1658 C1654 1.524 1_556 S
C1658 H1670 0.956 . S
C1658 H1671 0.961 . S
C1658 H1672 0.961 . S
C1659 C1656 1.539 . S
C1659 H1673 0.958 . S
C1659 H1674 0.961 . S
C1659 H1675 0.960 . S
H1660 C1644 0.931 . S
H1661 C1649 0.929 . S
H1662 C1650 0.960 . S
H1663 C1650 0.962 . S
H1664 C1650 0.960 . S
H1665 C1651 0.961 . S
H1666 C1651 0.961 . S
H1667 C1651 0.961 . S
H1668 C1652 0.972 . S
H1669 C1657 0.930 . S
H1670 C1658 0.956 . S
H1671 C1658 0.961 . S
H1672 C1658 0.961 . S
H1673 C1659 0.958 . S
H1674 C1659 0.961 . S
H1675 C1659 0.960 . S
C1676 C1677 1.391 . S
C1676 C1678 1.394 . S
C1676 H1692 0.931 . S
C1677 C1676 1.391 . S
C1677 C1681 1.376 . S
C1678 C1676 1.394 . S
C1678 C1679 1.369 . S
C1678 C1682 1.531 . S
C1679 C1678 1.369 . S
C1679 C1680 1.410 . S
C1679 C1687 1.503 . S
C1680 C1679 1.410 . S
C1680 C1681 1.392 . S
C1680 C1683 1.511 . S
C1681 C1677 1.376 . S
C1681 C1680 1.392 . S
C1681 H1693 0.929 . S
C1682 C1678 1.531 . S
C1682 H1694 0.960 . S
C1682 H1695 0.962 1_455 S
C1682 H1696 0.960 . S
C1683 C1680 1.511 . S
C1683 H1697 0.961 . S
C1683 H1698 0.961 . S
C1683 H1699 0.961 . S
C1684 C1685 1.370 . S
C1684 C1686 1.363 . S
C1684 H1700 0.931 . S
C1685 C1684 1.370 . S
C1685 C1689 1.408 . S
C1686 C1684 1.363 . S
C1686 C1687 1.370 . S
C1686 C1690 1.524 1_455 S
C1687 C1679 1.503 . S
C1687 C1686 1.370 . S
C1687 C1688 1.403 . S
C1688 C1687 1.403 . S
C1688 C1689 1.404 . S
C1688 C1691 1.539 . S
C1689 C1685 1.408 . S
C1689 C1688 1.404 . S
C1689 H1701 0.930 . S
C1690 C1686 1.524 1_655 S
C1690 H1702 0.956 . S
C1690 H1703 0.961 1_655 S
C1690 H1704 0.961 . S
C1691 C1688 1.539 . S
C1691 H1705 0.958 . S
C1691 H1706 0.961 . S
C1691 H1707 0.960 . S
H1692 C1676 0.931 . S
H1693 C1681 0.929 . S
H1694 C1682 0.960 . S
H1695 C1682 0.962 1_655 S
H1696 C1682 0.960 . S
H1697 C1683 0.961 . S
H1698 C1683 0.961 . S
H1699 C1683 0.961 . S
H1700 C1684 0.931 . S
H1701 C1689 0.930 . S
H1702 C1690 0.956 . S
H1703 C1690 0.961 1_455 S
H1704 C1690 0.961 . S
H1705 C1691 0.958 . S
H1706 C1691 0.961 . S
H1707 C1691 0.960 . S
C1708 C1709 1.391 1_455 S
C1708 C1710 1.394 . S
C1708 H1724 0.931 . S
C1709 C1708 1.391 1_655 S
C1709 C1713 1.376 . S
C1710 C1708 1.394 . S
C1710 C1711 1.369 1_455 S
C1710 C1714 1.531 . S
C1711 C1710 1.369 1_655 S
C1711 C1712 1.410 . S
C1711 C1719 1.503 . S
C1712 C1711 1.410 . S
C1712 C1713 1.392 . S
C1712 C1715 1.511 . S
C1713 C1709 1.376 . S
C1713 C1712 1.392 . S
C1713 H1725 0.929 . S
C1714 C1710 1.531 . S
C1714 H1726 0.960 . S
C1714 H1727 0.962 . S
C1714 H1728 0.960 . S
C1715 C1712 1.511 . S
C1715 H1729 0.961 . S
C1715 H1730 0.961 . S
C1715 H1731 0.961 . S
C1716 C1717 1.372 1_455 S
C1716 C1718 1.363 . S
C1716 H1732 0.931 . S
C1717 C1716 1.372 1_655 S
C1717 C1721 1.407 . S
C1718 C1716 1.363 . S
C1718 C1719 1.370 1_455 S
C1718 C1722 1.524 . S
C1719 C1711 1.503 . S
C1719 C1718 1.370 1_655 S
C1719 C1720 1.403 . S
C1720 C1719 1.403 . S
C1720 C1721 1.404 . S
C1720 C1723 1.539 . S
C1721 C1717 1.407 . S
C1721 C1720 1.404 . S
C1721 H1733 0.930 . S
C1722 C1718 1.524 . S
C1722 H1734 0.956 . S
C1722 H1735 0.961 . S
C1722 H1736 0.961 . S
C1723 C1720 1.539 . S
C1723 H1737 0.958 . S
C1723 H1738 0.961 . S
C1723 H1739 0.960 . S
H1724 C1708 0.931 . S
H1725 C1713 0.929 . S
H1726 C1714 0.960 . S
H1727 C1714 0.962 . S
H1728 C1714 0.960 . S
H1729 C1715 0.961 . S
H1730 C1715 0.961 . S
H1731 C1715 0.961 . S
H1732 C1716 0.931 . S
H1733 C1721 0.930 . S
H1734 C1722 0.956 . S
H1735 C1722 0.961 . S
H1736 C1722 0.961 . S
H1737 C1723 0.958 . S
H1738 C1723 0.961 . S
H1739 C1723 0.960 . S
C1740 C1741 1.384 1_655 S
C1740 C1742 1.395 . S
C1740 H1756 0.938 . S
C1741 C1740 1.384 1_455 S
C1741 C1745 1.376 . S
C1742 C1740 1.395 . S
C1742 C1743 1.347 1_655 S
C1742 C1746 1.552 . S
C1743 C1742 1.347 1_455 S
C1743 C1744 1.410 . S
C1743 C1751 1.503 . S
C1744 C1743 1.410 . S
C1744 C1745 1.392 . S
C1744 C1747 1.511 . S
C1745 C1741 1.376 . S
C1745 C1744 1.392 . S
C1745 H1757 0.929 . S
C1746 C1742 1.552 . S
C1746 H1758 0.960 . S
C1746 H1759 0.962 . S
C1746 H1760 0.960 . S
C1747 C1744 1.511 . S
C1747 H1761 0.961 . S
C1747 H1762 0.961 . S
C1747 H1763 0.961 . S
C1748 C1749 1.370 . S
C1748 C1750 1.363 . S
C1748 H1764 0.931 1_455 S
C1749 C1748 1.370 . S
C1749 C1753 1.408 . S
C1750 C1748 1.363 . S
C1750 C1751 1.370 . S
C1750 C1754 1.524 1_455 S
C1751 C1743 1.503 . S
C1751 C1750 1.370 . S
C1751 C1752 1.403 . S
C1752 C1751 1.403 . S
C1752 C1753 1.404 . S
C1752 C1755 1.539 . S
C1753 C1749 1.408 . S
C1753 C1752 1.404 . S
C1753 H1765 0.930 . S
C1754 C1750 1.524 1_655 S
C1754 H1766 0.956 . S
C1754 H1767 0.961 1_655 S
C1754 H1768 0.961 . S
C1755 C1752 1.539 . S
C1755 H1769 0.958 . S
C1755 H1770 0.961 . S
C1755 H1771 0.960 . S
H1756 C1740 0.938 . S
H1757 C1745 0.929 . S
H1758 C1746 0.960 . S
H1759 C1746 0.962 . S
H1760 C1746 0.960 . S
H1761 C1747 0.961 . S
H1762 C1747 0.961 . S
H1763 C1747 0.961 . S
H1764 C1748 0.931 1_655 S
H1765 C1753 0.930 . S
H1766 C1754 0.956 . S
H1767 C1754 0.961 1_455 S
H1768 C1754 0.961 . S
H1769 C1755 0.958 . S
H1770 C1755 0.961 . S
H1771 C1755 0.960 . S
C1772 C1773 1.391 . S
C1772 C1774 1.394 . S
C1772 H1788 0.931 . S
C1773 C1772 1.391 . S
C1773 C1777 1.376 1_655 S
C1774 C1772 1.394 . S
C1774 C1775 1.369 . S
C1774 C1778 1.531 . S
C1775 C1774 1.369 . S
C1775 C1776 1.410 1_655 S
C1775 C1783 1.503 . S
C1776 C1775 1.410 1_455 S
C1776 C1777 1.392 . S
C1776 C1779 1.511 . S
C1777 C1773 1.376 1_455 S
C1777 C1776 1.392 . S
C1777 H1789 0.929 . S
C1778 C1774 1.531 . S
C1778 H1790 0.960 . S
C1778 H1791 0.962 . S
C1778 H1792 0.960 . S
C1779 C1776 1.511 . S
C1779 H1793 0.961 . S
C1779 H1794 0.961 . S
C1779 H1795 0.961 . S
C1780 C1781 1.370 . S
C1780 C1782 1.363 . S
C1780 H1796 0.931 . S
C1781 C1780 1.370 . S
C1781 C1785 1.408 . S
C1782 C1780 1.363 . S
C1782 C1783 1.370 . S
C1782 C1786 1.524 . S
C1783 C1775 1.503 . S
C1783 C1782 1.370 . S
C1783 C1784 1.403 . S
C1784 C1783 1.403 . S
C1784 C1785 1.404 . S
C1784 C1787 1.539 1_655 S
C1785 C1781 1.408 . S
C1785 C1784 1.404 . S
C1785 H1797 0.930 . S
C1786 C1782 1.524 . S
C1786 H1798 0.956 . S
C1786 H1799 0.961 . S
C1786 H1800 0.961 . S
C1787 C1784 1.539 1_455 S
C1787 H1801 0.958 1_455 S
C1787 H1802 0.961 . S
C1787 H1803 0.960 . S
H1788 C1772 0.931 . S
H1789 C1777 0.929 . S
H1790 C1778 0.960 . S
H1791 C1778 0.962 . S
H1792 C1778 0.960 . S
H1793 C1779 0.961 . S
H1794 C1779 0.961 . S
H1795 C1779 0.961 . S
H1796 C1780 0.931 . S
H1797 C1785 0.930 . S
H1798 C1786 0.956 . S
H1799 C1786 0.961 . S
H1800 C1786 0.961 . S
H1801 C1787 0.958 1_655 S
H1802 C1787 0.961 . S
H1803 C1787 0.960 . S
C1804 C1805 1.391 . S
C1804 C1806 1.394 . S
C1804 H1820 0.931 . S
C1805 C1804 1.391 . S
C1805 C1809 1.376 . S
C1806 C1804 1.394 . S
C1806 C1807 1.369 . S
C1806 C1810 1.531 . S
C1807 C1806 1.369 . S
C1807 C1808 1.410 . S
C1807 C1815 1.503 . S
C1808 C1807 1.410 . S
C1808 C1809 1.392 . S
C1808 C1811 1.511 . S
C1809 C1805 1.376 . S
C1809 C1808 1.392 . S
C1809 H1821 0.929 . S
C1810 C1806 1.531 . S
C1810 H1822 0.960 . S
C1810 H1823 0.962 1_545 S
C1810 H1824 0.960 . S
C1811 C1808 1.511 . S
C1811 H1825 0.961 . S
C1811 H1826 0.961 . S
C1811 H1827 0.961 . S
C1812 C1813 1.370 . S
C1812 C1814 1.363 . S
C1812 H1828 0.931 . S
C1813 C1812 1.370 . S
C1813 C1817 1.408 . S
C1814 C1812 1.363 . S
C1814 C1815 1.370 . S
C1814 C1818 1.524 1_545 S
C1815 C1807 1.503 . S
C1815 C1814 1.370 . S
C1815 C1816 1.403 . S
C1816 C1815 1.403 . S
C1816 C1817 1.404 . S
C1816 C1819 1.539 . S
C1817 C1813 1.408 . S
C1817 C1816 1.404 . S
C1817 H1829 0.930 . S
C1818 C1814 1.524 1_565 S
C1818 H1830 0.956 . S
C1818 H1831 0.961 1_565 S
C1818 H1832 0.961 . S
C1819 C1816 1.539 . S
C1819 H1833 0.958 . S
C1819 H1834 0.961 . S
C1819 H1835 0.960 . S
H1820 C1804 0.931 . S
H1821 C1809 0.929 . S
H1822 C1810 0.960 . S
H1823 C1810 0.962 1_565 S
H1824 C1810 0.960 . S
H1825 C1811 0.961 . S
H1826 C1811 0.961 . S
H1827 C1811 0.961 . S
H1828 C1812 0.931 . S
H1829 C1817 0.930 . S
H1830 C1818 0.956 . S
H1831 C1818 0.961 1_545 S
H1832 C1818 0.961 . S
H1833 C1819 0.958 . S
H1834 C1819 0.961 . S
H1835 C1819 0.960 . S
C1836 C1837 1.391 . S
C1836 C1838 1.394 . S
C1836 H1852 0.931 . S
C1837 C1836 1.391 . S
C1837 C1841 1.376 . S
C1838 C1836 1.394 . S
C1838 C1839 1.369 . S
C1838 C1842 1.531 . S
C1839 C1838 1.369 . S
C1839 C1840 1.410 . S
C1839 C1847 1.503 . S
C1840 C1839 1.410 . S
C1840 C1841 1.392 . S
C1840 C1843 1.511 . S
C1841 C1837 1.376 . S
C1841 C1840 1.392 . S
C1841 H1853 0.929 . S
C1842 C1838 1.531 . S
C1842 H1854 0.960 . S
C1842 H1855 0.962 . S
C1842 H1856 0.960 . S
C1843 C1840 1.511 . S
C1843 H1857 0.961 . S
C1843 H1858 0.961 . S
C1843 H1859 0.961 . S
C1844 C1845 1.370 . S
C1844 C1846 1.363 . S
C1844 H1860 0.931 . S
C1845 C1844 1.370 . S
C1845 C1849 1.408 . S
C1846 C1844 1.363 . S
C1846 C1847 1.370 . S
C1846 C1850 1.524 . S
C1847 C1839 1.503 . S
C1847 C1846 1.370 . S
C1847 C1848 1.403 . S
C1848 C1847 1.403 . S
C1848 C1849 1.404 . S
C1848 C1851 1.539 . S
C1849 C1845 1.408 . S
C1849 C1848 1.404 . S
C1849 H1861 0.930 . S
C1850 C1846 1.524 . S
C1850 H1862 0.956 . S
C1850 H1863 0.961 . S
C1850 H1864 0.961 . S
C1851 C1848 1.539 . S
C1851 H1865 0.958 . S
C1851 H1866 0.961 . S
C1851 H1867 0.960 . S
H1852 C1836 0.931 . S
H1853 C1841 0.929 . S
H1854 C1842 0.960 . S
H1855 C1842 0.962 . S
H1856 C1842 0.960 . S
H1857 C1843 0.961 . S
H1858 C1843 0.961 . S
H1859 C1843 0.961 . S
H1860 C1844 0.931 . S
H1861 C1849 0.930 . S
H1862 C1850 0.956 . S
H1863 C1850 0.961 . S
H1864 C1850 0.961 . S
H1865 C1851 0.958 . S
H1866 C1851 0.961 . S
H1867 C1851 0.960 . S
C1868 C1869 1.391 . S
C1868 C1870 1.394 . S
C1868 H1884 0.931 . S
C1869 C1868 1.391 . S
C1869 C1873 1.376 . S
C1870 C1868 1.394 . S
C1870 C1871 1.369 . S
C1870 C1874 1.531 . S
C1871 C1870 1.369 . S
C1871 C1872 1.410 . S
C1871 C1879 1.503 . S
C1872 C1871 1.410 . S
C1872 C1873 1.392 . S
C1872 C1875 1.511 . S
C1873 C1869 1.376 . S
C1873 C1872 1.392 . S
C1873 H1885 0.929 . S
C1874 C1870 1.531 . S
C1874 H1886 0.960 . S
C1874 H1887 0.962 . S
C1874 H1888 0.960 . S
C1875 C1872 1.511 . S
C1875 H1889 0.961 . S
C1875 H1890 0.961 . S
C1875 H1891 0.961 1_565 S
C1876 C1877 1.370 . S
C1876 C1878 1.363 . S
C1876 H1892 0.931 . S
C1877 C1876 1.370 . S
C1877 C1881 1.408 . S
C1878 C1876 1.363 . S
C1878 C1879 1.370 . S
C1878 C1882 1.524 . S
C1879 C1871 1.503 . S
C1879 C1878 1.370 . S
C1879 C1880 1.403 . S
C1880 C1879 1.403 . S
C1880 C1881 1.404 . S
C1880 C1883 1.539 1_565 S
C1881 C1877 1.408 . S
C1881 C1880 1.404 . S
C1881 H1893 0.930 . S
C1882 C1878 1.524 . S
C1882 H1894 0.956 . S
C1882 H1895 0.961 . S
C1882 H1896 0.961 . S
C1883 C1880 1.539 1_545 S
C1883 H1897 0.958 . S
C1883 H1898 0.961 . S
C1883 H1899 0.960 . S
H1884 C1868 0.931 . S
H1885 C1873 0.929 . S
H1886 C1874 0.960 . S
H1887 C1874 0.962 . S
H1888 C1874 0.960 . S
H1889 C1875 0.961 . S
H1890 C1875 0.961 . S
H1891 C1875 0.961 1_545 S
H1892 C1876 0.931 . S
H1893 C1881 0.930 . S
H1894 C1882 0.956 . S
H1895 C1882 0.961 . S
H1896 C1882 0.961 . S
H1897 C1883 0.958 . S
H1898 C1883 0.961 . S
H1899 C1883 0.960 . S
C1900 C1901 1.391 . S
C1900 C1902 1.394 . S
C1900 H1916 0.931 . S
C1901 C1900 1.391 . S
C1901 C1905 1.376 . S
C1902 C1900 1.394 . S
C1902 C1903 1.369 . S
C1902 C1906 1.531 . S
C1903 C1902 1.369 . S
C1903 C1904 1.410 . S
C1903 C1911 1.503 . S
C1904 C1903 1.410 . S
C1904 C1905 1.392 . S
C1904 C1907 1.511 . S
C1905 C1901 1.376 . S
C1905 C1904 1.392 . S
C1905 H1917 0.929 . S
C1906 C1902 1.531 . S
C1906 H1918 0.960 . S
C1906 H1919 0.962 . S
C1906 H1920 0.960 . S
C1907 C1904 1.511 . S
C1907 H1921 0.961 . S
C1907 H1922 0.961 . S
C1907 H1923 0.961 . S
C1908 C1909 1.370 . S
C1908 C1910 1.363 . S
C1908 H1924 0.931 . S
C1909 C1908 1.370 . S
C1909 C1913 1.408 . S
C1910 C1908 1.363 . S
C1910 C1911 1.370 . S
C1910 C1914 1.524 . S
C1911 C1903 1.503 . S
C1911 C1910 1.370 . S
C1911 C1912 1.403 . S
C1912 C1911 1.403 . S
C1912 C1913 1.404 . S
C1912 C1915 1.539 . S
C1913 C1909 1.408 . S
C1913 C1912 1.404 . S
C1913 H1925 0.930 . S
C1914 C1910 1.524 . S
C1914 H1926 0.956 . S
C1914 H1927 0.961 . S
C1914 H1928 0.961 . S
C1915 C1912 1.539 . S
C1915 H1929 0.958 . S
C1915 H1930 0.961 . S
C1915 H1931 0.960 . S
H1916 C1900 0.931 . S
H1917 C1905 0.929 . S
H1918 C1906 0.960 . S
H1919 C1906 0.962 . S
H1920 C1906 0.960 . S
H1921 C1907 0.961 . S
H1922 C1907 0.961 . S
H1923 C1907 0.961 . S
H1924 C1908 0.931 . S
H1925 C1913 0.930 . S
H1926 C1914 0.956 . S
H1927 C1914 0.961 . S
H1928 C1914 0.961 . S
H1929 C1915 0.958 . S
H1930 C1915 0.961 . S
H1931 C1915 0.960 . S
C1932 C1933 1.391 . S
C1932 C1934 1.394 . S
C1932 H1948 0.931 . S
C1933 C1932 1.391 . S
C1933 C1937 1.376 . S
C1934 C1932 1.394 . S
C1934 C1935 1.369 . S
C1934 C1938 1.531 . S
C1935 C1934 1.369 . S
C1935 C1936 1.410 . S
C1935 C1943 1.503 . S
C1936 C1935 1.410 . S
C1936 C1937 1.392 . S
C1936 C1939 1.509 1_554 S
C1937 C1933 1.376 . S
C1937 C1936 1.392 . S
C1937 H1949 0.942 . S
C1938 C1934 1.531 . S
C1938 H1950 0.960 . S
C1938 H1951 0.962 . S
C1938 H1952 0.960 . S
C1939 C1936 1.509 1_556 S
C1939 H1953 0.957 1_556 S
C1939 H1954 0.958 1_556 S
C1939 H1955 0.966 . S
C1940 C1941 1.370 . S
C1940 C1942 1.363 . S
C1940 H1956 0.931 . S
C1941 C1940 1.370 . S
C1941 C1945 1.408 . S
C1942 C1940 1.363 . S
C1942 C1943 1.370 . S
C1942 C1946 1.524 . S
C1943 C1935 1.503 . S
C1943 C1942 1.370 . S
C1943 C1944 1.403 . S
C1944 C1943 1.403 . S
C1944 C1945 1.404 . S
C1944 C1947 1.539 1_554 S
C1945 C1941 1.408 . S
C1945 C1944 1.404 . S
C1945 H1957 0.930 . S
C1946 C1942 1.524 . S
C1946 H1958 0.956 . S
C1946 H1959 0.961 . S
C1946 H1960 0.961 . S
C1947 C1944 1.539 1_556 S
C1947 H1961 0.958 . S
C1947 H1962 0.961 . S
C1947 H1963 0.960 . S
H1948 C1932 0.931 . S
H1949 C1937 0.942 . S
H1950 C1938 0.960 . S
H1951 C1938 0.962 . S
H1952 C1938 0.960 . S
H1953 C1939 0.957 1_554 S
H1954 C1939 0.958 1_554 S
H1955 C1939 0.966 . S
H1956 C1940 0.931 . S
H1957 C1945 0.930 . S
H1958 C1946 0.956 . S
H1959 C1946 0.961 . S
H1960 C1946 0.961 . S
H1961 C1947 0.958 . S
H1962 C1947 0.961 . S
H1963 C1947 0.960 . S
C1964 C1965 1.391 . S
C1964 C1966 1.394 . S
C1964 H1980 0.931 . S
C1965 C1964 1.391 . S
C1965 C1969 1.376 . S
C1966 C1964 1.394 . S
C1966 C1967 1.369 . S
C1966 C1970 1.531 . S
C1967 C1966 1.369 . S
C1967 C1968 1.410 . S
C1967 C1975 1.503 . S
C1968 C1967 1.410 . S
C1968 C1969 1.392 . S
C1968 C1971 1.511 . S
C1969 C1965 1.376 . S
C1969 C1968 1.392 . S
C1969 H1981 0.929 . S
C1970 C1966 1.531 . S
C1970 H1982 0.960 . S
C1970 H1983 0.962 . S
C1970 H1984 0.960 . S
C1971 C1968 1.511 . S
C1971 H1985 0.961 . S
C1971 H1986 0.961 . S
C1971 H1987 0.961 . S
C1972 C1973 1.370 . S
C1972 C1974 1.363 . S
C1972 H1988 0.931 . S
C1973 C1972 1.370 . S
C1973 C1977 1.408 . S
C1974 C1972 1.363 . S
C1974 C1975 1.370 . S
C1974 C1978 1.524 . S
C1975 C1967 1.503 . S
C1975 C1974 1.370 . S
C1975 C1976 1.403 . S
C1976 C1975 1.403 . S
C1976 C1977 1.404 . S
C1976 C1979 1.539 . S
C1977 C1973 1.408 . S
C1977 C1976 1.404 . S
C1977 H1989 0.930 . S
C1978 C1974 1.524 . S
C1978 H1990 0.956 . S
C1978 H1991 0.961 . S
C1978 H1992 0.961 . S
C1979 C1976 1.539 . S
C1979 H1993 0.958 . S
C1979 H1994 0.961 . S
C1979 H1995 0.960 . S
H1980 C1964 0.931 . S
H1981 C1969 0.929 . S
H1982 C1970 0.960 . S
H1983 C1970 0.962 . S
H1984 C1970 0.960 . S
H1985 C1971 0.961 . S
H1986 C1971 0.961 . S
H1987 C1971 0.961 . S
H1988 C1972 0.931 . S
H1989 C1977 0.930 . S
H1990 C1978 0.956 . S
H1991 C1978 0.961 . S
H1992 C1978 0.961 . S
H1993 C1979 0.958 . S
H1994 C1979 0.961 . S
H1995 C1979 0.960 . S
C1996 C1997 1.391 . S
C1996 C1998 1.394 . S
C1996 H2012 0.931 . S
C1997 C1996 1.391 . S
C1997 C2001 1.376 . S
C1998 C1996 1.394 . S
C1998 C1999 1.369 . S
C1998 C2002 1.531 . S
C1999 C1998 1.369 . S
C1999 C2000 1.410 . S
C1999 C2007 1.503 . S
C2000 C1999 1.410 . S
C2000 C2001 1.392 . S
C2000 C2003 1.511 . S
C2001 C1997 1.376 . S
C2001 C2000 1.392 . S
C2001 H2013 0.929 . S
C2002 C1998 1.531 . S
C2002 H2014 0.960 . S
C2002 H2015 0.962 . S
C2002 H2016 0.960 . S
C2003 C2000 1.511 . S
C2003 H2017 0.961 . S
C2003 H2018 0.961 . S
C2003 H2019 0.961 . S
C2004 C2005 1.370 . S
C2004 C2006 1.363 . S
C2004 H2020 0.931 . S
C2005 C2004 1.370 . S
C2005 C2009 1.408 . S
C2006 C2004 1.363 . S
C2006 C2007 1.370 . S
C2006 C2010 1.524 . S
C2007 C1999 1.503 . S
C2007 C2006 1.370 . S
C2007 C2008 1.403 . S
C2008 C2007 1.403 . S
C2008 C2009 1.404 . S
C2008 C2011 1.539 . S
C2009 C2005 1.408 . S
C2009 C2008 1.404 . S
C2009 H2021 0.930 . S
C2010 C2006 1.524 . S
C2010 H2022 0.956 . S
C2010 H2023 0.961 . S
C2010 H2024 0.961 . S
C2011 C2008 1.539 . S
C2011 H2025 0.958 . S
C2011 H2026 0.961 . S
C2011 H2027 0.960 . S
H2012 C1996 0.931 . S
H2013 C2001 0.929 . S
H2014 C2002 0.960 . S
H2015 C2002 0.962 . S
H2016 C2002 0.960 . S
H2017 C2003 0.961 . S
H2018 C2003 0.961 . S
H2019 C2003 0.961 . S
H2020 C2004 0.931 . S
H2021 C2009 0.930 . S
H2022 C2010 0.956 . S
H2023 C2010 0.961 . S
H2024 C2010 0.961 . S
H2025 C2011 0.958 . S
H2026 C2011 0.961 . S
H2027 C2011 0.960 . S
C2028 C2029 1.391 . S
C2028 C2030 1.394 . S
C2028 H2044 0.931 . S
C2029 C2028 1.391 . S
C2029 C2033 1.376 . S
C2030 C2028 1.394 . S
C2030 C2031 1.369 . S
C2030 C2034 1.531 . S
C2031 C2030 1.369 . S
C2031 C2032 1.410 . S
C2031 C2039 1.503 . S
C2032 C2031 1.410 . S
C2032 C2033 1.392 . S
C2032 C2035 1.511 . S
C2033 C2029 1.376 . S
C2033 C2032 1.392 . S
C2033 H2045 0.929 . S
C2034 C2030 1.531 . S
C2034 H2046 0.960 . S
C2034 H2047 0.962 . S
C2034 H2048 0.960 . S
C2035 C2032 1.511 . S
C2035 H2049 0.961 . S
C2035 H2050 0.961 . S
C2035 H2051 0.961 . S
C2036 C2037 1.370 . S
C2036 C2038 1.363 . S
C2036 H2052 0.931 . S
C2037 C2036 1.370 . S
C2037 C2041 1.408 . S
C2038 C2036 1.363 . S
C2038 C2039 1.370 . S
C2038 C2042 1.524 . S
C2039 C2031 1.503 . S
C2039 C2038 1.370 . S
C2039 C2040 1.403 . S
C2040 C2039 1.403 . S
C2040 C2041 1.404 . S
C2040 C2043 1.539 . S
C2041 C2037 1.408 . S
C2041 C2040 1.404 . S
C2041 H2053 0.930 . S
C2042 C2038 1.524 . S
C2042 H2054 0.956 . S
C2042 H2055 0.961 . S
C2042 H2056 0.961 . S
C2043 C2040 1.539 . S
C2043 H2057 0.958 . S
C2043 H2058 0.961 . S
C2043 H2059 0.960 . S
H2044 C2028 0.931 . S
H2045 C2033 0.929 . S
H2046 C2034 0.960 . S
H2047 C2034 0.962 . S
H2048 C2034 0.960 . S
H2049 C2035 0.961 . S
H2050 C2035 0.961 . S
H2051 C2035 0.961 . S
H2052 C2036 0.931 . S
H2053 C2041 0.930 . S
H2054 C2042 0.956 . S
H2055 C2042 0.961 . S
H2056 C2042 0.961 . S
H2057 C2043 0.958 . S
H2058 C2043 0.961 . S
H2059 C2043 0.960 . S
C2060 C2061 1.391 . S
C2060 C2062 1.394 . S
C2060 H2076 0.931 . S
C2061 C2060 1.391 . S
C2061 C2065 1.376 . S
C2062 C2060 1.394 . S
C2062 C2063 1.369 . S
C2062 C2066 1.531 . S
C2063 C2062 1.369 . S
C2063 C2064 1.410 . S
C2063 C2071 1.503 . S
C2064 C2063 1.410 . S
C2064 C2065 1.392 . S
C2064 C2067 1.511 . S
C2065 C2061 1.376 . S
C2065 C2064 1.392 . S
C2065 H2077 0.929 . S
C2066 C2062 1.531 . S
C2066 H2078 0.960 . S
C2066 H2079 0.962 . S
C2066 H2080 0.960 . S
C2067 C2064 1.511 . S
C2067 H2081 0.961 . S
C2067 H2082 0.961 . S
C2067 H2083 0.961 . S
C2068 C2069 1.370 . S
C2068 C2070 1.363 . S
C2068 H2084 0.931 . S
C2069 C2068 1.370 . S
C2069 C2073 1.408 . S
C2070 C2068 1.363 . S
C2070 C2071 1.370 . S
C2070 C2074 1.524 . S
C2071 C2063 1.503 . S
C2071 C2070 1.370 . S
C2071 C2072 1.403 . S
C2072 C2071 1.403 . S
C2072 C2073 1.404 . S
C2072 C2075 1.539 . S
C2073 C2069 1.408 . S
C2073 C2072 1.404 . S
C2073 H2085 0.930 . S
C2074 C2070 1.524 . S
C2074 H2086 0.956 . S
C2074 H2087 0.961 . S
C2074 H2088 0.961 . S
C2075 C2072 1.539 . S
C2075 H2089 0.958 . S
C2075 H2090 0.961 . S
C2075 H2091 0.960 . S
H2076 C2060 0.931 . S
H2077 C2065 0.929 . S
H2078 C2066 0.960 . S
H2079 C2066 0.962 . S
H2080 C2066 0.960 . S
H2081 C2067 0.961 . S
H2082 C2067 0.961 . S
H2083 C2067 0.961 . S
H2084 C2068 0.931 . S
H2085 C2073 0.930 . S
H2086 C2074 0.956 . S
H2087 C2074 0.961 . S
H2088 C2074 0.961 . S
H2089 C2075 0.958 . S
H2090 C2075 0.961 . S
H2091 C2075 0.960 . S
C2092 C2093 1.391 . S
C2092 C2094 1.394 . S
C2092 H2108 0.931 . S
C2093 C2092 1.391 . S
C2093 C2097 1.376 . S
C2094 C2092 1.394 . S
C2094 C2095 1.369 . S
C2094 C2098 1.531 . S
C2095 C2094 1.369 . S
C2095 C2096 1.410 . S
C2095 C2103 1.503 . S
C2096 C2095 1.410 . S
C2096 C2097 1.392 . S
C2096 C2099 1.511 . S
C2097 C2093 1.376 . S
C2097 C2096 1.392 . S
C2097 H2109 0.929 . S
C2098 C2094 1.531 . S
C2098 H2110 0.960 . S
C2098 H2111 0.962 . S
C2098 H2112 0.960 . S
C2099 C2096 1.511 . S
C2099 H2113 0.961 . S
C2099 H2114 0.961 . S
C2099 H2115 0.961 . S
C2100 C2101 1.370 . S
C2100 C2102 1.363 . S
C2100 H2116 0.931 . S
C2101 C2100 1.370 . S
C2101 C2105 1.408 . S
C2102 C2100 1.363 . S
C2102 C2103 1.370 . S
C2102 C2106 1.524 . S
C2103 C2095 1.503 . S
C2103 C2102 1.370 . S
C2103 C2104 1.403 . S
C2104 C2103 1.403 . S
C2104 C2105 1.404 . S
C2104 C2107 1.539 . S
C2105 C2101 1.408 . S
C2105 C2104 1.404 . S
C2105 H2117 0.930 . S
C2106 C2102 1.524 . S
C2106 H2118 0.956 . S
C2106 H2119 0.961 . S
C2106 H2120 0.961 . S
C2107 C2104 1.539 . S
C2107 H2121 0.958 . S
C2107 H2122 0.961 . S
C2107 H2123 0.960 . S
H2108 C2092 0.931 . S
H2109 C2097 0.929 . S
H2110 C2098 0.960 . S
H2111 C2098 0.962 . S
H2112 C2098 0.960 . S
H2113 C2099 0.961 . S
H2114 C2099 0.961 . S
H2115 C2099 0.961 . S
H2116 C2100 0.931 . S
H2117 C2105 0.930 . S
H2118 C2106 0.956 . S
H2119 C2106 0.961 . S
H2120 C2106 0.961 . S
H2121 C2107 0.958 . S
H2122 C2107 0.961 . S
H2123 C2107 0.960 . S
C2124 C2125 1.391 . S
C2124 C2126 1.394 . S
C2124 H2140 0.931 . S
C2125 C2124 1.391 . S
C2125 C2129 1.376 . S
C2126 C2124 1.394 . S
C2126 C2127 1.369 . S
C2126 C2130 1.531 . S
C2127 C2126 1.369 . S
C2127 C2128 1.410 . S
C2127 C2135 1.503 . S
C2128 C2127 1.410 . S
C2128 C2129 1.392 . S
C2128 C2131 1.511 . S
C2129 C2125 1.376 . S
C2129 C2128 1.392 . S
C2129 H2141 0.929 . S
C2130 C2126 1.531 . S
C2130 H2142 0.960 . S
C2130 H2143 0.962 . S
C2130 H2144 0.960 . S
C2131 C2128 1.511 . S
C2131 H2145 0.961 . S
C2131 H2146 0.961 . S
C2131 H2147 0.961 . S
C2132 C2133 1.370 . S
C2132 C2134 1.363 . S
C2132 H2148 0.931 . S
C2133 C2132 1.370 . S
C2133 C2137 1.408 . S
C2134 C2132 1.363 . S
C2134 C2135 1.370 . S
C2134 C2138 1.524 . S
C2135 C2127 1.503 . S
C2135 C2134 1.370 . S
C2135 C2136 1.403 . S
C2136 C2135 1.403 . S
C2136 C2137 1.404 . S
C2136 C2139 1.539 . S
C2137 C2133 1.408 . S
C2137 C2136 1.404 . S
C2137 H2149 0.930 . S
C2138 C2134 1.524 . S
C2138 H2150 0.956 . S
C2138 H2151 0.961 . S
C2138 H2152 0.961 . S
C2139 C2136 1.539 . S
C2139 H2153 0.958 . S
C2139 H2154 0.961 . S
C2139 H2155 0.960 . S
H2140 C2124 0.931 . S
H2141 C2129 0.929 . S
H2142 C2130 0.960 . S
H2143 C2130 0.962 . S
H2144 C2130 0.960 . S
H2145 C2131 0.961 . S
H2146 C2131 0.961 . S
H2147 C2131 0.961 . S
H2148 C2132 0.931 . S
H2149 C2137 0.930 . S
H2150 C2138 0.956 . S
H2151 C2138 0.961 . S
H2152 C2138 0.961 . S
H2153 C2139 0.958 . S
H2154 C2139 0.961 . S
H2155 C2139 0.960 . S
C2156 C2157 1.391 . S
C2156 C2158 1.394 . S
C2156 H2172 0.931 . S
C2157 C2156 1.391 . S
C2157 C2161 1.376 . S
C2158 C2156 1.394 . S
C2158 C2159 1.369 . S
C2158 C2162 1.531 . S
C2159 C2158 1.369 . S
C2159 C2160 1.410 . S
C2159 C2167 1.503 . S
C2160 C2159 1.410 . S
C2160 C2161 1.392 . S
C2160 C2163 1.511 . S
C2161 C2157 1.376 . S
C2161 C2160 1.392 . S
C2161 H2173 0.929 . S
C2162 C2158 1.531 . S
C2162 H2174 0.960 . S
C2162 H2175 0.962 . S
C2162 H2176 0.960 . S
C2163 C2160 1.511 . S
C2163 H2177 0.961 . S
C2163 H2178 0.961 . S
C2163 H2179 0.961 . S
C2164 C2165 1.370 . S
C2164 C2166 1.363 . S
C2164 H2180 0.931 . S
C2165 C2164 1.370 . S
C2165 C2169 1.408 . S
C2166 C2164 1.363 . S
C2166 C2167 1.370 . S
C2166 C2170 1.524 . S
C2167 C2159 1.503 . S
C2167 C2166 1.370 . S
C2167 C2168 1.403 . S
C2168 C2167 1.403 . S
C2168 C2169 1.404 . S
C2168 C2171 1.539 . S
C2169 C2165 1.408 . S
C2169 C2168 1.404 . S
C2169 H2181 0.930 . S
C2170 C2166 1.524 . S
C2170 H2182 0.956 . S
C2170 H2183 0.961 . S
C2170 H2184 0.961 . S
C2171 C2168 1.539 . S
C2171 H2185 0.958 . S
C2171 H2186 0.961 . S
C2171 H2187 0.960 . S
H2172 C2156 0.931 . S
H2173 C2161 0.929 . S
H2174 C2162 0.960 . S
H2175 C2162 0.962 . S
H2176 C2162 0.960 . S
H2177 C2163 0.961 . S
H2178 C2163 0.961 . S
H2179 C2163 0.961 . S
H2180 C2164 0.931 . S
H2181 C2169 0.930 . S
H2182 C2170 0.956 . S
H2183 C2170 0.961 . S
H2184 C2170 0.961 . S
H2185 C2171 0.958 . S
H2186 C2171 0.961 . S
H2187 C2171 0.960 . S
C2188 C2189 1.391 . S
C2188 C2190 1.394 . S
C2188 H2204 0.931 . S
C2189 C2188 1.391 . S
C2189 C2193 1.376 . S
C2190 C2188 1.394 . S
C2190 C2191 1.369 . S
C2190 C2194 1.531 . S
C2191 C2190 1.369 . S
C2191 C2192 1.410 . S
C2191 C2199 1.503 . S
C2192 C2191 1.410 . S
C2192 C2193 1.392 . S
C2192 C2195 1.511 . S
C2193 C2189 1.376 . S
C2193 C2192 1.392 . S
C2193 H2205 0.929 . S
C2194 C2190 1.531 . S
C2194 H2206 0.960 . S
C2194 H2207 0.962 . S
C2194 H2208 0.960 . S
C2195 C2192 1.511 . S
C2195 H2209 0.961 . S
C2195 H2210 0.961 . S
C2195 H2211 0.961 . S
C2196 C2197 1.370 . S
C2196 C2198 1.363 . S
C2196 H2212 0.931 . S
C2197 C2196 1.370 . S
C2197 C2201 1.408 . S
C2198 C2196 1.363 . S
C2198 C2199 1.370 . S
C2198 C2202 1.524 . S
C2199 C2191 1.503 . S
C2199 C2198 1.370 . S
C2199 C2200 1.403 . S
C2200 C2199 1.403 . S
C2200 C2201 1.404 . S
C2200 C2203 1.539 . S
C2201 C2197 1.408 . S
C2201 C2200 1.404 . S
C2201 H2213 0.930 . S
C2202 C2198 1.524 . S
C2202 H2214 0.956 . S
C2202 H2215 0.961 . S
C2202 H2216 0.961 . S
C2203 C2200 1.539 . S
C2203 H2217 0.958 . S
C2203 H2218 0.961 . S
C2203 H2219 0.960 . S
H2204 C2188 0.931 . S
H2205 C2193 0.929 . S
H2206 C2194 0.960 . S
H2207 C2194 0.962 . S
H2208 C2194 0.960 . S
H2209 C2195 0.961 . S
H2210 C2195 0.961 . S
H2211 C2195 0.961 . S
H2212 C2196 0.931 . S
H2213 C2201 0.930 . S
H2214 C2202 0.956 . S
H2215 C2202 0.961 . S
H2216 C2202 0.961 . S
H2217 C2203 0.958 . S
H2218 C2203 0.961 . S
H2219 C2203 0.960 . S
C2220 C2221 1.391 1_545 S
C2220 C2222 1.394 . S
C2220 H2236 0.931 . S
C2221 C2220 1.391 1_565 S
C2221 C2225 1.376 . S
C2222 C2220 1.394 . S
C2222 C2223 1.369 1_545 S
C2222 C2226 1.531 . S
C2223 C2222 1.369 1_565 S
C2223 C2224 1.410 . S
C2223 C2231 1.503 . S
C2224 C2223 1.410 . S
C2224 C2225 1.392 . S
C2224 C2227 1.511 . S
C2225 C2221 1.376 . S
C2225 C2224 1.392 . S
C2225 H2237 0.929 . S
C2226 C2222 1.531 . S
C2226 H2238 0.960 . S
C2226 H2239 0.954 1_545 S
C2226 H2240 0.960 . S
C2227 C2224 1.511 . S
C2227 H2241 0.961 . S
C2227 H2242 0.961 . S
C2227 H2243 0.961 . S
C2228 C2229 1.370 . S
C2228 C2230 1.363 . S
C2228 H2244 0.931 . S
C2229 C2228 1.370 . S
C2229 C2233 1.408 1_565 S
C2230 C2228 1.363 . S
C2230 C2231 1.370 . S
C2230 C2234 1.524 . S
C2231 C2223 1.503 . S
C2231 C2230 1.370 . S
C2231 C2232 1.403 1_565 S
C2232 C2231 1.403 1_545 S
C2232 C2233 1.404 . S
C2232 C2235 1.539 . S
C2233 C2229 1.408 1_545 S
C2233 C2232 1.404 . S
C2233 H2245 0.930 . S
C2234 C2230 1.524 . S
C2234 H2246 0.956 . S
C2234 H2247 0.961 . S
C2234 H2248 0.961 . S
C2235 C2232 1.539 . S
C2235 H2249 0.958 . S
C2235 H2250 0.961 . S
C2235 H2251 0.960 . S
H2236 C2220 0.931 . S
H2237 C2225 0.929 . S
H2238 C2226 0.960 . S
H2239 C2226 0.954 1_565 S
H2240 C2226 0.960 . S
H2241 C2227 0.961 . S
H2242 C2227 0.961 . S
H2243 C2227 0.961 . S
H2244 C2228 0.931 . S
H2245 C2233 0.930 . S
H2246 C2234 0.956 . S
H2247 C2234 0.961 . S
H2248 C2234 0.961 . S
H2249 C2235 0.958 . S
H2250 C2235 0.961 . S
H2251 C2235 0.960 . S
C2252 C2253 1.391 . S
C2252 C2254 1.394 . S
C2252 H2268 0.931 . S
C2253 C2252 1.391 . S
C2253 C2257 1.376 . S
C2254 C2252 1.394 . S
C2254 C2255 1.369 . S
C2254 C2258 1.531 . S
C2255 C2254 1.369 . S
C2255 C2256 1.410 . S
C2255 C2263 1.503 . S
C2256 C2255 1.410 . S
C2256 C2257 1.392 . S
C2256 C2259 1.511 . S
C2257 C2253 1.376 . S
C2257 C2256 1.392 . S
C2257 H2269 0.929 . S
C2258 C2254 1.531 . S
C2258 H2270 0.960 . S
C2258 H2271 0.962 . S
C2258 H2272 0.960 . S
C2259 C2256 1.511 . S
C2259 H2273 0.961 . S
C2259 H2274 0.961 . S
C2259 H2275 0.961 . S
C2260 C2261 1.370 . S
C2260 C2262 1.363 . S
C2260 H2276 0.931 . S
C2261 C2260 1.370 . S
C2261 C2265 1.408 . S
C2262 C2260 1.363 . S
C2262 C2263 1.370 . S
C2262 C2266 1.524 . S
C2263 C2255 1.503 . S
C2263 C2262 1.370 . S
C2263 C2264 1.403 . S
C2264 C2263 1.403 . S
C2264 C2265 1.404 . S
C2264 C2267 1.539 . S
C2265 C2261 1.408 . S
C2265 C2264 1.404 . S
C2265 H2277 0.930 . S
C2266 C2262 1.524 . S
C2266 H2278 0.956 . S
C2266 H2279 0.961 . S
C2266 H2280 0.961 . S
C2267 C2264 1.539 . S
C2267 H2281 0.958 . S
C2267 H2282 0.961 . S
C2267 H2283 0.960 . S
H2268 C2252 0.931 . S
H2269 C2257 0.929 . S
H2270 C2258 0.960 . S
H2271 C2258 0.962 . S
H2272 C2258 0.960 . S
H2273 C2259 0.961 . S
H2274 C2259 0.961 . S
H2275 C2259 0.961 . S
H2276 C2260 0.931 . S
H2277 C2265 0.930 . S
H2278 C2266 0.956 . S
H2279 C2266 0.961 . S
H2280 C2266 0.961 . S
H2281 C2267 0.958 . S
H2282 C2267 0.961 . S
H2283 C2267 0.960 . S
C2284 C2285 1.391 . S
C2284 C2286 1.394 . S
C2284 H2300 0.931 1_545 S
C2285 C2284 1.391 . S
C2285 C2289 1.376 . S
C2286 C2284 1.394 . S
C2286 C2287 1.368 . S
C2286 C2290 1.532 1_545 S
C2287 C2286 1.368 . S
C2287 C2288 1.410 . S
C2287 C2295 1.503 . S
C2288 C2287 1.410 . S
C2288 C2289 1.392 . S
C2288 C2291 1.511 . S
C2289 C2285 1.376 . S
C2289 C2288 1.392 . S
C2289 H2301 0.929 . S
C2290 C2286 1.532 1_565 S
C2290 H2302 0.960 . S
C2290 H2303 0.962 . S
C2290 H2304 0.960 . S
C2291 C2288 1.511 . S
C2291 H2305 0.961 . S
C2291 H2306 0.961 . S
C2291 H2307 0.961 . S
C2292 C2293 1.370 . S
C2292 C2294 1.363 . S
C2292 H2308 0.931 . S
C2293 C2292 1.370 . S
C2293 C2297 1.409 1_545 S
C2294 C2292 1.363 . S
C2294 C2295 1.370 . S
C2294 C2298 1.524 . S
C2295 C2287 1.503 . S
C2295 C2294 1.370 . S
C2295 C2296 1.405 . S
C2296 C2295 1.405 . S
C2296 C2297 1.404 1_545 S
C2296 C2299 1.537 1_545 S
C2297 C2293 1.409 1_565 S
C2297 C2296 1.404 1_565 S
C2297 H2309 0.929 . S
C2298 C2294 1.524 . S
C2298 H2310 0.956 . S
C2298 H2311 0.961 . S
C2298 H2312 0.961 . S
C2299 C2296 1.537 1_565 S
C2299 H2313 0.958 . S
C2299 H2314 0.961 . S
C2299 H2315 0.960 . S
H2300 C2284 0.931 1_565 S
H2301 C2289 0.929 . S
H2302 C2290 0.960 . S
H2303 C2290 0.962 . S
H2304 C2290 0.960 . S
H2305 C2291 0.961 . S
H2306 C2291 0.961 . S
H2307 C2291 0.961 . S
H2308 C2292 0.931 . S
H2309 C2297 0.929 . S
H2310 C2298 0.956 . S
H2311 C2298 0.961 . S
H2312 C2298 0.961 . S
H2313 C2299 0.958 . S
H2314 C2299 0.961 . S
H2315 C2299 0.960 . S
C2316 C2317 1.391 . S
C2316 C2318 1.394 . S
C2316 H2332 0.931 . S
C2317 C2316 1.391 . S
C2317 C2321 1.376 . S
C2318 C2316 1.394 . S
C2318 C2319 1.369 . S
C2318 C2322 1.531 . S
C2319 C2318 1.369 . S
C2319 C2320 1.410 . S
C2319 C2327 1.503 . S
C2320 C2319 1.410 . S
C2320 C2321 1.392 . S
C2320 C2323 1.511 . S
C2321 C2317 1.376 . S
C2321 C2320 1.392 . S
C2321 H2333 0.929 . S
C2322 C2318 1.531 . S
C2322 H2334 0.960 . S
C2322 H2335 0.962 . S
C2322 H2336 0.960 . S
C2323 C2320 1.511 . S
C2323 H2337 0.961 . S
C2323 H2338 0.961 . S
C2323 H2339 0.961 . S
C2324 C2325 1.370 . S
C2324 C2326 1.363 . S
C2324 H2340 0.931 . S
C2325 C2324 1.370 . S
C2325 C2329 1.408 . S
C2326 C2324 1.363 . S
C2326 C2327 1.370 . S
C2326 C2330 1.524 . S
C2327 C2319 1.503 . S
C2327 C2326 1.370 . S
C2327 C2328 1.403 . S
C2328 C2327 1.403 . S
C2328 C2329 1.404 . S
C2328 C2331 1.539 . S
C2329 C2325 1.408 . S
C2329 C2328 1.404 . S
C2329 H2341 0.930 . S
C2330 C2326 1.524 . S
C2330 H2342 0.956 . S
C2330 H2343 0.961 . S
C2330 H2344 0.961 . S
C2331 C2328 1.539 . S
C2331 H2345 0.958 . S
C2331 H2346 0.961 . S
C2331 H2347 0.960 . S
H2332 C2316 0.931 . S
H2333 C2321 0.929 . S
H2334 C2322 0.960 . S
H2335 C2322 0.962 . S
H2336 C2322 0.960 . S
H2337 C2323 0.961 . S
H2338 C2323 0.961 . S
H2339 C2323 0.961 . S
H2340 C2324 0.931 . S
H2341 C2329 0.930 . S
H2342 C2330 0.956 . S
H2343 C2330 0.961 . S
H2344 C2330 0.961 . S
H2345 C2331 0.958 . S
H2346 C2331 0.961 . S
H2347 C2331 0.960 . S
C2348 C2349 1.391 . S
C2348 C2350 1.394 . S
C2348 H2364 0.931 . S
C2349 C2348 1.391 . S
C2349 C2353 1.376 . S
C2350 C2348 1.394 . S
C2350 C2351 1.369 . S
C2350 C2354 1.531 . S
C2351 C2350 1.369 . S
C2351 C2352 1.410 . S
C2351 C2359 1.503 . S
C2352 C2351 1.410 . S
C2352 C2353 1.392 . S
C2352 C2355 1.511 . S
C2353 C2349 1.376 . S
C2353 C2352 1.392 . S
C2353 H2365 0.929 . S
C2354 C2350 1.531 . S
C2354 H2366 0.954 1_556 S
C2354 H2367 0.962 . S
C2354 H2368 0.960 1_556 S
C2355 C2352 1.511 . S
C2355 H2369 0.961 . S
C2355 H2370 0.961 . S
C2355 H2371 0.961 . S
C2356 C2357 1.370 . S
C2356 C2358 1.363 . S
C2356 H2372 0.931 . S
C2357 C2356 1.370 . S
C2357 C2361 1.408 . S
C2358 C2356 1.363 . S
C2358 C2359 1.370 . S
C2358 C2362 1.524 . S
C2359 C2351 1.503 . S
C2359 C2358 1.370 . S
C2359 C2360 1.403 . S
C2360 C2359 1.403 . S
C2360 C2361 1.404 . S
C2360 C2363 1.539 1_556 S
C2361 C2357 1.408 . S
C2361 C2360 1.404 . S
C2361 H2373 0.930 1_556 S
C2362 C2358 1.524 . S
C2362 H2374 0.956 . S
C2362 H2375 0.961 . S
C2362 H2376 0.961 . S
C2363 C2360 1.539 1_554 S
C2363 H2377 0.958 . S
C2363 H2378 0.961 . S
C2363 H2379 0.960 . S
H2364 C2348 0.931 . S
H2365 C2353 0.929 . S
H2366 C2354 0.954 1_554 S
H2367 C2354 0.962 . S
H2368 C2354 0.960 1_554 S
H2369 C2355 0.961 . S
H2370 C2355 0.961 . S
H2371 C2355 0.961 . S
H2372 C2356 0.931 . S
H2373 C2361 0.930 1_554 S
H2374 C2362 0.956 . S
H2375 C2362 0.961 . S
H2376 C2362 0.961 . S
H2377 C2363 0.958 . S
H2378 C2363 0.961 . S
H2379 C2363 0.960 . S
C2380 C2381 1.391 . S
C2380 C2382 1.394 . S
C2380 H2396 0.931 . S
C2381 C2380 1.391 . S
C2381 C2385 1.376 . S
C2382 C2380 1.394 . S
C2382 C2383 1.369 . S
C2382 C2386 1.531 . S
C2383 C2382 1.369 . S
C2383 C2384 1.410 . S
C2383 C2391 1.503 . S
C2384 C2383 1.410 . S
C2384 C2385 1.392 . S
C2384 C2387 1.511 1_556 S
C2385 C2381 1.376 . S
C2385 C2384 1.392 . S
C2385 H2397 0.929 1_556 S
C2386 C2382 1.531 . S
C2386 H2398 0.960 . S
C2386 H2399 0.962 . S
C2386 H2400 0.960 . S
C2387 C2384 1.511 1_554 S
C2387 H2401 0.961 . S
C2387 H2402 0.972 . S
C2387 H2403 0.961 . S
C2388 C2389 1.370 . S
C2388 C2390 1.363 . S
C2388 H2404 0.931 . S
C2389 C2388 1.370 . S
C2389 C2393 1.408 . S
C2390 C2388 1.363 . S
C2390 C2391 1.370 . S
C2390 C2394 1.524 . S
C2391 C2383 1.503 . S
C2391 C2390 1.370 . S
C2391 C2392 1.403 . S
C2392 C2391 1.403 . S
C2392 C2393 1.404 . S
C2392 C2395 1.539 . S
C2393 C2389 1.408 . S
C2393 C2392 1.404 . S
C2393 H2405 0.930 . S
C2394 C2390 1.524 . S
C2394 H2406 0.956 . S
C2394 H2407 0.961 . S
C2394 H2408 0.961 . S
C2395 C2392 1.539 . S
C2395 H2409 0.958 . S
C2395 H2410 0.961 . S
C2395 H2411 0.960 . S
H2396 C2380 0.931 . S
H2397 C2385 0.929 1_554 S
H2398 C2386 0.960 . S
H2399 C2386 0.962 . S
H2400 C2386 0.960 . S
H2401 C2387 0.961 . S
H2402 C2387 0.972 . S
H2403 C2387 0.961 . S
H2404 C2388 0.931 . S
H2405 C2393 0.930 . S
H2406 C2394 0.956 . S
H2407 C2394 0.961 . S
H2408 C2394 0.961 . S
H2409 C2395 0.958 . S
H2410 C2395 0.961 . S
H2411 C2395 0.960 . S
C2412 C2413 1.391 . S
C2412 C2414 1.394 . S
C2412 H2428 0.931 . S
C2413 C2412 1.391 . S
C2413 C2417 1.376 . S
C2414 C2412 1.394 . S
C2414 C2415 1.369 . S
C2414 C2418 1.531 . S
C2415 C2414 1.369 . S
C2415 C2416 1.410 . S
C2415 C2423 1.503 . S
C2416 C2415 1.410 . S
C2416 C2417 1.392 . S
C2416 C2419 1.511 . S
C2417 C2413 1.376 . S
C2417 C2416 1.392 . S
C2417 H2429 0.929 . S
C2418 C2414 1.531 . S
C2418 H2430 0.960 . S
C2418 H2431 0.962 . S
C2418 H2432 0.960 . S
C2419 C2416 1.511 . S
C2419 H2433 0.961 1_554 S
C2419 H2434 0.961 . S
C2419 H2435 0.961 . S
C2420 C2421 1.370 . S
C2420 C2422 1.363 . S
C2420 H2436 0.931 1_554 S
C2421 C2420 1.370 . S
C2421 C2425 1.408 . S
C2422 C2420 1.363 . S
C2422 C2423 1.370 . S
C2422 C2426 1.524 1_554 S
C2423 C2415 1.503 . S
C2423 C2422 1.370 . S
C2423 C2424 1.403 . S
C2424 C2423 1.403 . S
C2424 C2425 1.404 . S
C2424 C2427 1.539 . S
C2425 C2421 1.408 . S
C2425 C2424 1.404 . S
C2425 H2437 0.930 . S
C2426 C2422 1.524 1_556 S
C2426 H2438 0.956 . S
C2426 H2439 0.961 . S
C2426 H2440 0.961 . S
C2427 C2424 1.539 . S
C2427 H2441 0.958 . S
C2427 H2442 0.961 . S
C2427 H2443 0.960 . S
H2428 C2412 0.931 . S
H2429 C2417 0.929 . S
H2430 C2418 0.960 . S
H2431 C2418 0.962 . S
H2432 C2418 0.960 . S
H2433 C2419 0.961 1_556 S
H2434 C2419 0.961 . S
H2435 C2419 0.961 . S
H2436 C2420 0.931 1_556 S
H2437 C2425 0.930 . S
H2438 C2426 0.956 . S
H2439 C2426 0.961 . S
H2440 C2426 0.961 . S
H2441 C2427 0.958 . S
H2442 C2427 0.961 . S
H2443 C2427 0.960 . S
C909 C22 1.685 . S
C917 C704 1.713 1_545 S
C949 C767 2.016 . S
C941 C38 2.024 . S
C981 C644 1.930 1_565 S
C973 C75 1.917 . S
C1005 C91 1.793 . S
C1013 C678 1.802 . S
C1037 C128 1.821 . S
C1045 C882 1.848 . S
C1069 C197 1.183 . S
C1077 C853 1.162 . S
C1109 C776 1.994 . S
C1101 C144 2.054 . S
C1133 C181 1.525 . S
C1141 C810 1.473 . S
C1173 C699 2.009 . S
C1165 C234 2.048 . S
C1205 C742 1.470 . S
C1197 C303 1.461 . S
C1229 C356 2.042 . S
C1237 C721 2.012 1_655 S
C1261 C287 1.710 . S
C1269 C835 1.724 . S
C1301 C840 1.630 . S
C1293 C393 1.595 . S
C1333 C903 2.062 1_565 S
C1325 C409 2.087 . S
C1357 C462 2.046 . S
C1365 C814 2.074 . S
C1397 C780 1.667 1_545 S
C1389 C446 1.664 . S
C1421 C499 1.835 . S
C1429 C746 1.806 . S
C1453 C552 1.083 . S
C1461 C717 1.121 . S
C1493 C674 1.969 . S
C1485 C515 2.041 . S
C1517 C568 1.638 . S
C1525 C640 1.646 . S
C1557 C801 2.079 . S
C1549 C340 2.070 . S
C1589 C878 1.443 . S
C1581 C621 1.449 . S
C1613 C250 1.949 . S
C1621 C857 1.915 . S
C1645 C605 1.616 . S
C1653 C665 1.600 . S
C1685 C649 1.047 . S
C1677 C39 1.042 . S
C1709 C29 0.846 . S
C1717 C683 0.867 . S
C1749 C708 1.036 . S
C1741 C92 1.042 . S
C1781 C755 1.777 . S
C1773 C82 1.751 . S
C1805 C145 1.524 . S
C1813 C636 1.522 . S
C1837 C188 1.263 . S
C1845 C670 1.263 . S
C1877 C712 1.360 . S
C1869 C135 1.351 . S
C1901 C198 0.936 . S
C1909 C751 0.890 . S
C1933 C251 1.688 . S
C1941 C653 1.689 . S
C1973 C733 1.456 . S
C1965 C294 1.465 . S
C1997 C347 1.414 . S
C2005 C738 1.459 . S
C2029 C304 1.678 . S
C2037 C789 1.669 . S
C2069 C819 1.125 . S
C2061 C410 1.119 . S
C2093 C400 0.872 . S
C2101 C785 0.872 . S
C2125 C453 0.741 . S
C2133 C844 0.781 . S
C2157 C463 2.046 . S
C2165 C891 2.059 . S
C2189 C516 1.568 . S
C2197 C806 1.588 . S
C2229 C772 1.576 . S
C2221 C569 1.554 . S
C2253 C506 1.247 . S
C2261 C848 1.247 . S
C2293 C887 0.654 . S
C2285 C559 0.603 . S
C2325 C823 1.657 . S
C2317 C357 1.653 . S
C2357 C869 1.392 . S
C2349 C612 1.394 . S
C2389 C874 1.416 . S
C2381 C241 1.409 . S
C2413 C622 1.568 . S
C2421 C687 1.550 . S
