# Generated by pormake.
# Topology rtl, (3,6)-cn, num edge types: 1
# Building blocks:
#     Node 0, Type 0, BuildingBlock: OLANEW_clean_sbu_2, # of connection points: 3
#     Node 1, Type 0, BuildingBlock: OLANEW_clean_sbu_2, # of connection points: 3
#     Node 2, Type 0, BuildingBlock: OLANEW_clean_sbu_2, # of connection points: 3
#     Node 3, Type 0, BuildingBlock: OLANEW_clean_sbu_2, # of connection points: 3
#     Node 4, Type 1, BuildingBlock: VOLQOD_clean_sbu_1, # of connection points: 6
#     Node 5, Type 1, BuildingBlock: VOLQOD_clean_sbu_1, # of connection points: 6
#     Edge 6, Type (0, 1), BuildingBlock: EZIPEK_clean_linker_0, # of connection points: 2
#     Edge 7, Type (0, 1), BuildingBlock: EZIPEK_clean_linker_0, # of connection points: 2
#     Edge 8, Type (0, 1), BuildingBlock: EZIPEK_clean_linker_0, # of connection points: 2
#     Edge 9, Type (0, 1), BuildingBlock: EZIPEK_clean_linker_0, # of connection points: 2
#     Edge 10, Type (0, 1), BuildingBlock: EZIPEK_clean_linker_0, # of connection points: 2
#     Edge 11, Type (0, 1), BuildingBlock: EZIPEK_clean_linker_0, # of connection points: 2
#     Edge 12, Type (0, 1), BuildingBlock: EZIPEK_clean_linker_0, # of connection points: 2
#     Edge 13, Type (0, 1), BuildingBlock: EZIPEK_clean_linker_0, # of connection points: 2
#     Edge 14, Type (0, 1), BuildingBlock: EZIPEK_clean_linker_0, # of connection points: 2
#     Edge 15, Type (0, 1), BuildingBlock: EZIPEK_clean_linker_0, # of connection points: 2
#     Edge 16, Type (0, 1), BuildingBlock: EZIPEK_clean_linker_0, # of connection points: 2
#     Edge 17, Type (0, 1), BuildingBlock: EZIPEK_clean_linker_0, # of connection points: 2
# Relax obj value: 0.056
# Max RMSD: 0.146
# Mean RMSD: 0.097
data_MOF--net-rtl--node1-OLANEW_clean_sbu_2--node2-VOLQOD_clean_sbu_1--edge1-EZIPEK_clean_linker_0
_symmetry_space_group_name_H-M    P1
_symmetry_Int_Tables_number       1
_symmetry_cell_setting            triclinic
loop_
_symmetry_equiv_pos_as_xyz
'x, y, z'
_cell_length_a     30.86237
_cell_length_b     29.194553
_cell_length_c     17.57167
_cell_angle_alpha  86.258868
_cell_angle_beta   93.476103
_cell_angle_gamma 90.441041
loop_
_atom_site_label
_atom_site_type_symbol
_atom_site_fract_x
_atom_site_fract_y
_atom_site_fract_z
_atom_type_partial_charge
O0 O 0.14255 0.7799 0.96132 0.0
Cd1 Cd 0.17776 0.74347 0.07753 0.0
O2 O 0.18463 0.84121 0.96314 0.0
Cd3 Cd 0.20871 0.82332 0.07975 0.0
O4 O 0.18045 0.84382 0.18265 0.0
C5 C 0.14517 0.86587 0.16877 0.0
O6 O 0.12962 0.87283 0.09774 0.0
C7 C 0.15431 0.81837 0.93105 0.0
C8 C 0.25193 0.69497 0.05059 0.0
O9 O 0.2143 0.67611 0.04597 0.0
O10 O 0.25465 0.73706 0.06698 0.0
O11 O 0.63971 0.73616 0.62261 0.0
Cd12 Cd 0.67766 0.77117 0.51353 0.0
O13 O 0.67761 0.6722 0.62703 0.0
Cd14 Cd 0.71243 0.69302 0.52686 0.0
O15 O 0.69018 0.67041 0.41607 0.0
C16 C 0.6508 0.67947 0.39601 0.0
O17 O 0.62826 0.70473 0.43832 0.0
C18 C 0.64789 0.69593 0.65206 0.0
C19 C 0.75289 0.82345 0.53615 0.0
O20 O 0.71546 0.84252 0.52941 0.0
O21 O 0.75481 0.77961 0.53602 0.0
O22 O 0.87003 0.29351 0.2832 0.0
Cd23 Cd 0.85301 0.36344 0.20342 0.0
O24 O 0.88641 0.26559 0.17617 0.0
Cd25 Cd 0.91254 0.21365 0.10864 0.0
O26 O 0.93332 0.17553 0.01512 0.0
C27 C 0.90639 0.15011 0.97993 0.0
O28 O 0.86655 0.14582 0.00187 0.0
C29 C 0.88462 0.26076 0.24822 0.0
C30 C 0.76811 0.37224 0.14189 0.0
O31 O 0.79623 0.35056 0.10739 0.0
O32 O 0.77962 0.38789 0.20657 0.0
O33 O 0.36259 0.30223 0.63212 0.0
Cd34 Cd 0.33001 0.25898 0.52718 0.0
O35 O 0.31541 0.35879 0.61261 0.0
Cd36 Cd 0.28918 0.33096 0.50753 0.0
O37 O 0.31302 0.33553 0.39332 0.0
C38 C 0.35313 0.34577 0.39436 0.0
O39 O 0.37526 0.34639 0.46048 0.0
C40 C 0.34817 0.34061 0.64989 0.0
C41 C 0.2569 0.20395 0.55281 0.0
O42 O 0.29479 0.18618 0.55357 0.0
O43 O 0.25384 0.24772 0.54372 0.0
O44 O 0.90376 0.97972 0.54904 0.0
Zn45 Zn 0.94679 0.03181 0.55794 0.0
O46 O 0.00665 0.01052 0.55359 0.0
Zn47 Zn 0.0408 0.02558 0.6464 0.0
Zn48 Zn 0.00615 0.9439 0.54433 0.0
Zn49 Zn 0.03332 0.04098 0.46568 0.0
O50 O 0.08973 0.06999 0.62468 0.0
O51 O 0.08678 0.07641 0.49798 0.0
O52 O 0.93824 0.059 0.6584 0.0
O53 O 0.00342 0.05388 0.71992 0.0
O54 O 0.06664 0.96863 0.70016 0.0
O55 O 0.0399 0.91156 0.63312 0.0
O56 O 0.03548 0.92752 0.45066 0.0
O57 O 0.9325 0.08135 0.47483 0.0
O58 O 0.05297 0.99517 0.39462 0.0
O59 O 0.99241 0.0871 0.41013 0.0
C60 C 0.90796 0.93671 0.5436 0.0
C61 C 0.10461 0.08589 0.56228 0.0
C62 C 0.06287 0.92613 0.68912 0.0
C63 C 0.9636 0.06507 0.71672 0.0
C64 C 0.05246 0.95149 0.39707 0.0
C65 C 0.95388 0.09946 0.42079 0.0
O66 O 0.94506 0.91825 0.54089 0.0
O67 O 0.60339 0.48204 0.03089 0.0
Zn68 Zn 0.56149 0.53421 0.01825 0.0
O69 O 0.50191 0.51221 0.0176 0.0
Zn70 Zn 0.4691 0.53907 0.92662 0.0
Zn71 Zn 0.50199 0.44476 0.01821 0.0
Zn72 Zn 0.47628 0.53106 0.10928 0.0
O73 O 0.41873 0.57736 0.95545 0.0
O74 O 0.42657 0.57393 0.08228 0.0
O75 O 0.5727 0.57315 0.92401 0.0
O76 O 0.50807 0.57981 0.86087 0.0
O77 O 0.44348 0.48815 0.86505 0.0
O78 O 0.47127 0.42369 0.9226 0.0
O79 O 0.46792 0.41657 0.10355 0.0
O80 O 0.57615 0.57237 0.10638 0.0
O81 O 0.45111 0.47673 0.16723 0.0
O82 O 0.51932 0.56358 0.17798 0.0
C83 C 0.59971 0.43858 0.03738 0.0
C84 C 0.40669 0.58836 0.01989 0.0
C85 C 0.44766 0.44461 0.86959 0.0
C86 C 0.54852 0.58928 0.86763 0.0
C87 C 0.44995 0.43383 0.15821 0.0
C88 C 0.5571 0.57933 0.16658 0.0
O89 O 0.56284 0.41871 0.03257 0.0
C90 C 0.18079 0.18343 0.50618 0.0
C91 C 0.21737 0.17458 0.55809 0.0
C92 C 0.18136 0.10494 0.60923 0.0
C93 C 0.14298 0.11706 0.5638 0.0
N94 N 0.10316 0.17536 0.48492 0.0
N95 N 0.24751 0.13261 0.67197 0.0
C96 C 0.14175 0.15862 0.5171 0.0
C97 C 0.21625 0.13699 0.61353 0.0
N98 N 0.18372 0.2135 0.44373 0.0
N99 N 0.1856 0.06218 0.64536 0.0
H100 H 0.27249 0.15645 0.67933 0.0
H101 H 0.2458 0.10819 0.71769 0.0
H102 H 0.1618 0.0368 0.64112 0.0
H103 H 0.21464 0.05035 0.67285 0.0
H104 H 0.15896 0.2176 0.40081 0.0
H105 H 0.21241 0.23019 0.42975 0.0
H106 H 0.10026 0.20768 0.4562 0.0
H107 H 0.07341 0.15948 0.49442 0.0
C108 C 0.29865 0.6262 0.0858 0.0
C109 C 0.29146 0.66792 0.04099 0.0
C110 C 0.36163 0.65936 0.98474 0.0
C111 C 0.36644 0.6154 0.02378 0.0
N112 N 0.33382 0.55234 0.09603 0.0
N113 N 0.31203 0.71996 0.93672 0.0
C114 C 0.33326 0.59746 0.06984 0.0
C115 C 0.32182 0.6834 0.98725 0.0
N116 N 0.27375 0.61484 0.14605 0.0
N117 N 0.39555 0.67902 0.94796 0.0
H118 H 0.28286 0.73785 0.93563 0.0
H119 H 0.33097 0.72976 0.89128 0.0
H120 H 0.42544 0.66288 0.94585 0.0
H121 H 0.39538 0.71294 0.92552 0.0
H122 H 0.28072 0.58713 0.18521 0.0
H123 H 0.24904 0.63572 0.16199 0.0
H124 H 0.30819 0.53646 0.12357 0.0
H125 H 0.3576 0.52955 0.08271 0.0
C126 C 0.80395 0.87711 0.6038 0.0
C127 C 0.79311 0.85167 0.53912 0.0
C128 C 0.8563 0.88416 0.47555 0.0
C129 C 0.86862 0.90722 0.54214 0.0
N130 N 0.85878 0.9203 0.67408 0.0
N131 N 0.81076 0.82681 0.41624 0.0
C132 C 0.84358 0.90242 0.60744 0.0
C133 C 0.82001 0.85376 0.47603 0.0
N134 N 0.7763 0.87713 0.66174 0.0
N135 N 0.878 0.89317 0.41055 0.0
H136 H 0.7828 0.80673 0.41111 0.0
H137 H 0.83199 0.82218 0.37359 0.0
H138 H 0.90458 0.91537 0.40782 0.0
H139 H 0.86778 0.8817 0.35752 0.0
H140 H 0.77947 0.89928 0.70584 0.0
H141 H 0.74845 0.85672 0.66361 0.0
H142 H 0.84466 0.91389 0.72603 0.0
H143 H 0.88782 0.93866 0.67925 0.0
C144 C 0.71706 0.40519 0.03513 0.0
C145 C 0.72359 0.38064 0.10745 0.0
C146 C 0.64628 0.38749 0.1291 0.0
C147 C 0.63974 0.41155 0.05645 0.0
N148 N 0.66555 0.43173 0.9322 0.0
N149 N 0.6929 0.33702 0.21236 0.0
C150 C 0.67412 0.41638 0.0067 0.0
C151 C 0.6876 0.36803 0.15085 0.0
N152 N 0.75177 0.42077 -0.00407 0.0
N153 N 0.61413 0.38572 0.17947 0.0
H154 H 0.72267 0.32156 0.22887 0.0
H155 H 0.66709 0.32316 0.24191 0.0
H156 H 0.58335 0.39953 0.16644 0.0
H157 H 0.619 0.37356 0.23638 0.0
H158 H 0.74881 0.44332 0.94747 0.0
H159 H 0.78392 0.41453 0.01498 0.0
H160 H 0.68851 0.43191 0.8911 0.0
H161 H 0.63422 0.43984 0.90991 0.0
C162 C 0.07822 0.87345 0.2406 0.0
C163 C 0.12232 0.88536 0.23075 0.0
C164 C 0.12166 0.93538 0.33713 0.0
C165 C 0.07628 0.92798 0.3405 0.0
N166 N 0.00986 0.89456 0.28958 0.0
N167 N 0.18405 0.93384 0.26053 0.0
C168 C 0.05409 0.89809 0.29082 0.0
C169 C 0.14364 0.91786 0.27673 0.0
N170 N 0.05982 0.83761 0.20381 0.0
N171 N 0.14413 0.95776 0.39317 0.0
H172 H 0.20117 0.92266 0.21593 0.0
H173 H 0.19892 0.96134 0.2868 0.0
H174 H 0.12947 0.97042 0.43942 0.0
H175 H 0.17789 0.95975 0.39793 0.0
H176 H 0.02923 0.82432 0.21461 0.0
H177 H 0.07674 0.81822 0.16765 0.0
H178 H 0.99146 0.87723 0.24884 0.0
H179 H 0.99109 0.91222 0.32539 0.0
C180 C 0.61743 0.68545 0.78195 0.0
C181 C 0.61799 0.67303 0.70547 0.0
C182 C 0.5701 0.60736 0.73336 0.0
C183 C 0.56862 0.62031 0.80953 0.0
N184 N 0.58221 0.67711 0.90193 0.0
N185 N 0.586 0.63031 0.60309 0.0
C186 C 0.58967 0.66112 0.83249 0.0
C187 C 0.59149 0.6365 0.67956 0.0
N188 N 0.64458 0.71923 0.80696 0.0
N189 N 0.55324 0.56609 0.71327 0.0
H190 H 0.60057 0.65148 0.56181 0.0
H191 H 0.56372 0.60726 0.58004 0.0
H192 H 0.53745 0.5435 0.75088 0.0
H193 H 0.55799 0.55247 0.66111 0.0
H194 H 0.6494 0.72637 0.86415 0.0
H195 H 0.66463 0.73826 0.77093 0.0
H196 H 0.59328 0.70879 0.91922 0.0
H197 H 0.56142 0.66058 0.93966 0.0
C198 C 0.8843 0.17514 0.27759 0.0
C199 C 0.90223 0.21901 0.29148 0.0
C200 C 0.95121 0.18435 0.39396 0.0
C201 C 0.93583 0.14023 0.3759 0.0
N202 N 0.89234 0.09231 0.29467 0.0
N203 N 0.95883 0.26433 0.35148 0.0
C204 C 0.90364 0.13521 0.31595 0.0
C205 C 0.93733 0.22337 0.34666 0.0
N206 N 0.84779 0.17181 0.23014 0.0
N207 N 0.97817 0.18914 0.4577 0.0
H208 H 0.9505 0.29361 0.31665 0.0
H209 H 0.98757 0.26819 0.38471 0.0
H210 H 0.98931 0.16138 0.49381 0.0
H211 H 0.98649 0.22082 0.47858 0.0
H212 H 0.83055 0.14138 0.22371 0.0
H213 H 0.83252 0.20029 0.2016 0.0
H214 H 0.87267 0.08635 0.24604 0.0
H215 H 0.90535 0.06243 0.32263 0.0
C216 C 0.39955 0.40449 0.68106 0.0
C217 C 0.3731 0.3672 0.70678 0.0
C218 C 0.39285 0.38313 0.8396 0.0
C219 C 0.42264 0.41731 0.81371 0.0
N220 N 0.46057 0.45433 0.71042 0.0
N221 N 0.3487 0.31678 0.80969 0.0
C222 C 0.42765 0.42639 0.73455 0.0
C223 C 0.37121 0.35505 0.78588 0.0
N224 N 0.39758 0.41946 0.60558 0.0
N225 N 0.38336 0.37917 0.91479 0.0
H226 H 0.33085 0.29664 0.77204 0.0
H227 H 0.35021 0.30321 0.86609 0.0
H228 H 0.39725 0.40004 0.95569 0.0
H229 H 0.35865 0.35823 0.93545 0.0
H230 H 0.41227 0.44968 0.58516 0.0
H231 H 0.37826 0.40395 0.56391 0.0
H232 H 0.46882 0.45826 0.65376 0.0
H233 H 0.48253 0.47017 0.7479 0.0
C234 C 0.61632 0.60721 0.35342 0.0
C235 C 0.62787 0.65374 0.33633 0.0
C236 C 0.58912 0.65266 0.21072 0.0
C237 C 0.58043 0.60521 0.22569 0.0
N238 N 0.59156 0.53515 0.30493 0.0
N239 N 0.63054 0.7197 0.24706 0.0
C240 C 0.59552 0.58185 0.29539 0.0
C241 C 0.61573 0.67624 0.26444 0.0
N242 N 0.624 0.58766 0.42585 0.0
N243 N 0.57071 0.67539 0.14638 0.0
H244 H 0.64965 0.73805 0.28568 0.0
H245 H 0.62678 0.73634 0.19287 0.0
H246 H 0.55099 0.65917 0.10584 0.0
H247 H 0.57205 0.71085 0.13581 0.0
H248 H 0.61153 0.55586 0.44418 0.0
H249 H 0.64012 0.60462 0.46976 0.0
H250 H 0.60641 0.51559 0.35077 0.0
H251 H 0.57638 0.51525 0.26382 0.0
C252 C 0.93113 0.15609 0.84667 0.0
C253 C 0.91908 0.12813 0.91122 0.0
C254 C 0.93038 0.05892 0.84317 0.0
C255 C 0.94672 0.08678 0.7822 0.0
N256 N 0.96735 0.16111 0.72773 0.0
N257 N 0.91199 0.05317 0.97571 0.0
C258 C 0.94841 0.13519 0.78441 0.0
C259 C 0.91967 0.07954 0.91066 0.0
N260 N 0.92431 0.20244 0.84355 0.0
N261 N 0.92463 0.01287 0.83602 0.0
H262 H 0.90424 0.06703 0.02638 0.0
H263 H 0.91661 0.01781 0.98157 0.0
H264 H 0.93305 0.99653 0.78797 0.0
H265 H 0.90851 0.99145 0.8748 0.0
H266 H 0.92811 0.22402 0.79485 0.0
H267 H 0.91099 0.21898 0.88745 0.0
H268 H 0.97428 0.19594 0.73064 0.0
H269 H 0.979 0.14717 0.67977 0.0
C270 C 0.41639 0.34492 0.31203 0.0
C271 C 0.37443 0.36177 0.32403 0.0
C272 C 0.37869 0.41413 0.21042 0.0
C273 C 0.42341 0.40434 0.20885 0.0
N274 N 0.48626 0.36152 0.26019 0.0
N275 N 0.31824 0.41853 0.28988 0.0
C276 C 0.44268 0.36957 0.25956 0.0
C277 C 0.35583 0.39759 0.27407 0.0
N278 N 0.43073 0.305 0.34985 0.0
N279 N 0.35795 0.4388 0.15047 0.0
H280 H 0.30112 0.4099 0.33801 0.0
H281 H 0.30639 0.44797 0.259 0.0
H282 H 0.37369 0.44979 0.10157 0.0
H283 H 0.32442 0.4435 0.14565 0.0
H284 H 0.45947 0.28897 0.3385 0.0
H285 H 0.41163 0.28541 0.38681 0.0
H286 H 0.50285 0.34018 0.30182 0.0
H287 H 0.50646 0.3787 0.22223 0.0
C288 C 0.08475 0.85061 0.86952 0.0
C289 C 0.12925 0.83975 0.86383 0.0
C290 C 0.12946 0.88331 0.73986 0.0
C291 C 0.08479 0.89285 0.74485 0.0
N292 N 0.01741 0.87778 0.80449 0.0
N293 N 0.19153 0.83715 0.78801 0.0
C294 C 0.06158 0.87366 0.80631 0.0
C295 C 0.1509 0.85351 0.79713 0.0
N296 N 0.06534 0.842 0.93701 0.0
N297 N 0.15153 0.90363 0.6814 0.0
H298 H 0.20773 0.81473 0.82865 0.0
H299 H 0.20757 0.84237 0.73773 0.0
H300 H 0.13636 0.92405 0.63672 0.0
H301 H 0.18513 0.90245 0.67925 0.0
H302 H 0.03478 0.85431 0.94709 0.0
H303 H 0.08093 0.82598 0.98573 0.0
H304 H 0.9982 0.86018 0.84353 0.0
H305 H 0.99945 0.89569 0.76007 0.0
loop_
_geom_bond_atom_site_label_1
_geom_bond_atom_site_label_2
_geom_bond_distance
_geom_bond_site_symmetry_2
_ccdc_geom_bond_type
O0 Cd1 2.300 1_556 S
O0 C7 1.275 . S
Cd1 O0 2.300 1_554 S
Cd1 O9 2.381 1_554 S
Cd1 O10 2.378 . S
O2 Cd3 2.385 1_556 S
O2 C7 1.255 . S
Cd3 O2 2.385 1_554 S
Cd3 O4 2.317 . S
O4 Cd3 2.317 . S
O4 C5 1.232 . S
C5 O4 1.232 . S
C5 O6 1.218 . S
O6 C5 1.218 . S
C7 O0 1.275 . S
C7 O2 1.255 . S
C8 O9 1.258 1_554 S
C8 O10 1.256 . S
O9 Cd1 2.381 1_556 S
O9 C8 1.258 1_556 S
O10 Cd1 2.378 . S
O10 C8 1.256 . S
O11 Cd12 2.300 . S
O11 C18 1.275 . S
Cd12 O11 2.300 . S
Cd12 O20 2.381 . S
Cd12 O21 2.378 . S
O13 Cd14 2.385 . S
O13 C18 1.255 . S
Cd14 O13 2.385 . S
Cd14 O15 2.317 . S
O15 Cd14 2.317 . S
O15 C16 1.232 . S
C16 O15 1.232 . S
C16 O17 1.218 . S
O17 C16 1.218 . S
C18 O11 1.275 . S
C18 O13 1.255 . S
C19 O20 1.258 . S
C19 O21 1.256 . S
O20 Cd12 2.381 . S
O20 C19 1.258 . S
O21 Cd12 2.378 . S
O21 C19 1.256 . S
O22 Cd23 2.300 . S
O22 C29 1.275 . S
Cd23 O22 2.300 . S
Cd23 O31 2.381 . S
Cd23 O32 2.378 . S
O24 Cd25 2.385 . S
O24 C29 1.255 . S
Cd25 O24 2.385 . S
Cd25 O26 2.317 1_554 S
O26 Cd25 2.317 1_556 S
O26 C27 1.232 . S
C27 O26 1.232 . S
C27 O28 1.218 . S
O28 C27 1.218 . S
C29 O22 1.275 . S
C29 O24 1.255 . S
C30 O31 1.258 . S
C30 O32 1.256 . S
O31 Cd23 2.381 . S
O31 C30 1.258 . S
O32 Cd23 2.378 . S
O32 C30 1.256 . S
O33 Cd34 2.300 . S
O33 C40 1.275 . S
Cd34 O33 2.300 . S
Cd34 O42 2.381 . S
Cd34 O43 2.378 . S
O35 Cd36 2.385 . S
O35 C40 1.255 . S
Cd36 O35 2.385 . S
Cd36 O37 2.317 . S
O37 Cd36 2.317 . S
O37 C38 1.232 . S
C38 O37 1.232 . S
C38 O39 1.218 . S
O39 C38 1.218 . S
C40 O33 1.275 . S
C40 O35 1.255 . S
C41 O42 1.258 . S
C41 O43 1.256 . S
O42 Cd34 2.381 . S
O42 C41 1.258 . S
O43 Cd34 2.378 . S
O43 C41 1.256 . S
O44 Zn45 1.953 1_565 S
O44 C60 1.225 . S
Zn45 O44 1.953 1_545 S
Zn45 O46 1.949 1_655 S
Zn45 O52 1.919 . S
Zn45 O57 1.924 . S
O46 Zn45 1.949 1_455 S
O46 Zn47 1.923 . S
O46 Zn48 1.950 1_545 S
O46 Zn49 1.945 . S
Zn47 O46 1.923 . S
Zn47 O50 1.933 . S
Zn47 O53 1.941 . S
Zn47 O54 1.965 1_545 S
Zn48 O46 1.950 1_565 S
Zn48 O55 1.938 . S
Zn48 O56 1.906 . S
Zn48 O66 1.953 1_455 S
Zn49 O46 1.945 . S
Zn49 O51 1.932 . S
Zn49 O58 1.977 . S
Zn49 O59 1.910 1_455 S
O50 Zn47 1.933 . S
O50 C61 1.226 . S
O51 Zn49 1.932 . S
O51 C61 1.307 . S
O52 Zn45 1.919 . S
O52 C63 1.253 . S
O53 Zn47 1.941 . S
O53 C63 1.283 1_455 S
O54 Zn47 1.965 1_565 S
O54 C62 1.303 . S
O55 Zn48 1.938 . S
O55 C62 1.247 . S
O56 Zn48 1.906 . S
O56 C64 1.304 . S
O57 Zn45 1.924 . S
O57 C65 1.311 . S
O58 Zn49 1.977 . S
O58 C64 1.272 1_545 S
O59 Zn49 1.910 1_655 S
O59 C65 1.231 . S
C60 O44 1.225 . S
C60 O66 1.298 . S
C61 O50 1.226 . S
C61 O51 1.307 . S
C62 O54 1.303 . S
C62 O55 1.247 . S
C63 O52 1.253 . S
C63 O53 1.283 1_655 S
C64 O56 1.304 . S
C64 O58 1.272 1_565 S
C65 O57 1.311 . S
C65 O59 1.231 . S
O66 Zn48 1.953 1_655 S
O66 C60 1.298 . S
O67 Zn68 1.953 . S
O67 C83 1.225 . S
Zn68 O67 1.953 . S
Zn68 O69 1.949 . S
Zn68 O75 1.919 1_554 S
Zn68 O80 1.924 . S
O69 Zn68 1.949 . S
O69 Zn70 1.923 1_554 S
O69 Zn71 1.950 . S
O69 Zn72 1.945 . S
Zn70 O69 1.923 1_556 S
Zn70 O73 1.933 . S
Zn70 O76 1.941 . S
Zn70 O77 1.965 . S
Zn71 O69 1.950 . S
Zn71 O78 1.938 1_554 S
Zn71 O79 1.906 . S
Zn71 O89 1.953 . S
Zn72 O69 1.945 . S
Zn72 O74 1.932 . S
Zn72 O81 1.977 . S
Zn72 O82 1.910 . S
O73 Zn70 1.933 . S
O73 C84 1.226 1_556 S
O74 Zn72 1.932 . S
O74 C84 1.307 . S
O75 Zn68 1.919 1_556 S
O75 C86 1.253 . S
O76 Zn70 1.941 . S
O76 C86 1.283 . S
O77 Zn70 1.965 . S
O77 C85 1.303 . S
O78 Zn71 1.938 1_556 S
O78 C85 1.247 . S
O79 Zn71 1.906 . S
O79 C87 1.304 . S
O80 Zn68 1.924 . S
O80 C88 1.311 . S
O81 Zn72 1.977 . S
O81 C87 1.272 . S
O82 Zn72 1.910 . S
O82 C88 1.231 . S
C83 O67 1.225 . S
C83 O89 1.298 . S
C84 O73 1.226 1_554 S
C84 O74 1.307 . S
C85 O77 1.303 . S
C85 O78 1.247 . S
C86 O75 1.253 . S
C86 O76 1.283 . S
C87 O79 1.304 . S
C87 O81 1.272 . S
C88 O80 1.311 . S
C88 O82 1.231 . S
O89 Zn71 1.953 . S
O89 C83 1.298 . S
C90 C91 1.363 . S
C90 C96 1.379 . S
C90 N98 1.356 . S
C91 C90 1.363 . S
C91 C97 1.363 . S
C92 C93 1.363 . S
C92 C97 1.379 . S
C92 N99 1.356 . S
C93 C92 1.363 . S
C93 C96 1.363 . S
N94 C96 1.356 . S
N94 H106 0.984 . S
N94 H107 0.985 . S
N95 C97 1.356 . S
N95 H100 0.984 . S
N95 H101 0.985 . S
C96 C90 1.379 . S
C96 C93 1.363 . S
C96 N94 1.356 . S
C97 C91 1.363 . S
C97 C92 1.379 . S
C97 N95 1.356 . S
N98 C90 1.356 . S
N98 H104 0.984 . S
N98 H105 0.984 . S
N99 C92 1.356 . S
N99 H102 0.984 . S
N99 H103 0.985 . S
H100 N95 0.984 . S
H101 N95 0.985 . S
H102 N99 0.984 . S
H103 N99 0.985 . S
H104 N98 0.984 . S
H105 N98 0.984 . S
H106 N94 0.984 . S
H107 N94 0.985 . S
C108 C109 1.363 . S
C108 C114 1.379 . S
C108 N116 1.356 . S
C109 C108 1.363 . S
C109 C115 1.363 1_554 S
C110 C111 1.363 1_556 S
C110 C115 1.379 . S
C110 N117 1.356 . S
C111 C110 1.363 1_554 S
C111 C114 1.363 . S
N112 C114 1.356 . S
N112 H124 0.984 . S
N112 H125 0.985 . S
N113 C115 1.356 . S
N113 H118 0.984 . S
N113 H119 0.985 . S
C114 C108 1.379 . S
C114 C111 1.363 . S
C114 N112 1.356 . S
C115 C109 1.363 1_556 S
C115 C110 1.379 . S
C115 N113 1.356 . S
N116 C108 1.356 . S
N116 H122 0.984 . S
N116 H123 0.984 . S
N117 C110 1.356 . S
N117 H120 0.984 . S
N117 H121 0.985 . S
H118 N113 0.984 . S
H119 N113 0.985 . S
H120 N117 0.984 . S
H121 N117 0.985 . S
H122 N116 0.984 . S
H123 N116 0.984 . S
H124 N112 0.984 . S
H125 N112 0.985 . S
C126 C127 1.363 . S
C126 C132 1.379 . S
C126 N134 1.356 . S
C127 C126 1.363 . S
C127 C133 1.363 . S
C128 C129 1.363 . S
C128 C133 1.379 . S
C128 N135 1.356 . S
C129 C128 1.363 . S
C129 C132 1.363 . S
N130 C132 1.356 . S
N130 H142 0.984 . S
N130 H143 0.985 . S
N131 C133 1.356 . S
N131 H136 0.984 . S
N131 H137 0.985 . S
C132 C126 1.379 . S
C132 C129 1.363 . S
C132 N130 1.356 . S
C133 C127 1.363 . S
C133 C128 1.379 . S
C133 N131 1.356 . S
N134 C126 1.356 . S
N134 H140 0.984 . S
N134 H141 0.984 . S
N135 C128 1.356 . S
N135 H138 0.984 . S
N135 H139 0.985 . S
H136 N131 0.984 . S
H137 N131 0.985 . S
H138 N135 0.984 . S
H139 N135 0.985 . S
H140 N134 0.984 . S
H141 N134 0.984 . S
H142 N130 0.984 . S
H143 N130 0.985 . S
C144 C145 1.363 . S
C144 C150 1.379 1_554 S
C144 N152 1.356 1_554 S
C145 C144 1.363 . S
C145 C151 1.363 . S
C146 C147 1.363 . S
C146 C151 1.379 . S
C146 N153 1.356 . S
C147 C146 1.363 . S
C147 C150 1.363 1_554 S
N148 C150 1.356 . S
N148 H160 0.984 . S
N148 H161 0.985 . S
N149 C151 1.356 . S
N149 H154 0.984 . S
N149 H155 0.985 . S
C150 C144 1.379 1_556 S
C150 C147 1.363 1_556 S
C150 N148 1.356 . S
C151 C145 1.363 . S
C151 C146 1.379 . S
C151 N149 1.356 . S
N152 C144 1.356 1_556 S
N152 H158 0.984 . S
N152 H159 0.984 . S
N153 C146 1.356 . S
N153 H156 0.984 . S
N153 H157 0.985 . S
H154 N149 0.984 . S
H155 N149 0.985 . S
H156 N153 0.984 . S
H157 N153 0.985 . S
H158 N152 0.984 . S
H159 N152 0.984 . S
H160 N148 0.984 . S
H161 N148 0.985 . S
C162 C163 1.363 . S
C162 C168 1.379 . S
C162 N170 1.356 . S
C163 C162 1.363 . S
C163 C169 1.363 . S
C164 C165 1.363 . S
C164 C169 1.379 . S
C164 N171 1.356 . S
C165 C164 1.363 . S
C165 C168 1.363 . S
N166 C168 1.356 . S
N166 H178 0.984 . S
N166 H179 0.985 . S
N167 C169 1.356 . S
N167 H172 0.984 . S
N167 H173 0.985 . S
C168 C162 1.379 . S
C168 C165 1.363 . S
C168 N166 1.356 . S
C169 C163 1.363 . S
C169 C164 1.379 . S
C169 N167 1.356 . S
N170 C162 1.356 . S
N170 H176 0.984 . S
N170 H177 0.984 . S
N171 C164 1.356 . S
N171 H174 0.984 1_565 S
N171 H175 0.985 1_565 S
H172 N167 0.984 . S
H173 N167 0.985 . S
H174 N171 0.984 1_545 S
H175 N171 0.985 1_545 S
H176 N170 0.984 . S
H177 N170 0.984 . S
H178 N166 0.984 . S
H179 N166 0.985 . S
C180 C181 1.363 . S
C180 C186 1.379 . S
C180 N188 1.356 . S
C181 C180 1.363 . S
C181 C187 1.363 . S
C182 C183 1.363 . S
C182 C187 1.379 . S
C182 N189 1.356 . S
C183 C182 1.363 . S
C183 C186 1.363 . S
N184 C186 1.356 . S
N184 H196 0.984 . S
N184 H197 0.985 . S
N185 C187 1.356 . S
N185 H190 0.984 . S
N185 H191 0.985 . S
C186 C180 1.379 . S
C186 C183 1.363 . S
C186 N184 1.356 . S
C187 C181 1.363 . S
C187 C182 1.379 . S
C187 N185 1.356 . S
N188 C180 1.356 . S
N188 H194 0.984 . S
N188 H195 0.984 . S
N189 C182 1.356 . S
N189 H192 0.984 . S
N189 H193 0.985 . S
H190 N185 0.984 . S
H191 N185 0.985 . S
H192 N189 0.984 . S
H193 N189 0.985 . S
H194 N188 0.984 . S
H195 N188 0.984 . S
H196 N184 0.984 . S
H197 N184 0.985 . S
C198 C199 1.363 . S
C198 C204 1.379 . S
C198 N206 1.356 . S
C199 C198 1.363 . S
C199 C205 1.363 . S
C200 C201 1.363 . S
C200 C205 1.379 . S
C200 N207 1.356 . S
C201 C200 1.363 . S
C201 C204 1.363 . S
N202 C204 1.356 . S
N202 H214 0.984 . S
N202 H215 0.985 . S
N203 C205 1.356 . S
N203 H208 0.984 . S
N203 H209 0.985 . S
C204 C198 1.379 . S
C204 C201 1.363 . S
C204 N202 1.356 . S
C205 C199 1.363 . S
C205 C200 1.379 . S
C205 N203 1.356 . S
N206 C198 1.356 . S
N206 H212 0.984 . S
N206 H213 0.984 . S
N207 C200 1.356 . S
N207 H210 0.984 . S
N207 H211 0.985 1_655 S
H208 N203 0.984 . S
H209 N203 0.985 . S
H210 N207 0.984 . S
H211 N207 0.985 1_455 S
H212 N206 0.984 . S
H213 N206 0.984 . S
H214 N202 0.984 . S
H215 N202 0.985 . S
C216 C217 1.363 . S
C216 C222 1.379 . S
C216 N224 1.356 . S
C217 C216 1.363 . S
C217 C223 1.363 . S
C218 C219 1.363 . S
C218 C223 1.379 . S
C218 N225 1.356 . S
C219 C218 1.363 . S
C219 C222 1.363 . S
N220 C222 1.356 . S
N220 H232 0.984 . S
N220 H233 0.985 . S
N221 C223 1.356 . S
N221 H226 0.984 . S
N221 H227 0.985 . S
C222 C216 1.379 . S
C222 C219 1.363 . S
C222 N220 1.356 . S
C223 C217 1.363 . S
C223 C218 1.379 . S
C223 N221 1.356 . S
N224 C216 1.356 . S
N224 H230 0.984 . S
N224 H231 0.984 . S
N225 C218 1.356 . S
N225 H228 0.984 . S
N225 H229 0.985 . S
H226 N221 0.984 . S
H227 N221 0.985 . S
H228 N225 0.984 . S
H229 N225 0.985 . S
H230 N224 0.984 . S
H231 N224 0.984 . S
H232 N220 0.984 . S
H233 N220 0.985 . S
C234 C235 1.363 . S
C234 C240 1.379 . S
C234 N242 1.356 . S
C235 C234 1.363 . S
C235 C241 1.363 . S
C236 C237 1.363 . S
C236 C241 1.379 . S
C236 N243 1.356 . S
C237 C236 1.363 . S
C237 C240 1.363 . S
N238 C240 1.356 . S
N238 H250 0.984 . S
N238 H251 0.985 . S
N239 C241 1.356 . S
N239 H244 0.984 . S
N239 H245 0.985 . S
C240 C234 1.379 . S
C240 C237 1.363 . S
C240 N238 1.356 . S
C241 C235 1.363 . S
C241 C236 1.379 . S
C241 N239 1.356 . S
N242 C234 1.356 . S
N242 H248 0.984 . S
N242 H249 0.984 . S
N243 C236 1.356 . S
N243 H246 0.984 . S
N243 H247 0.985 . S
H244 N239 0.984 . S
H245 N239 0.985 . S
H246 N243 0.984 . S
H247 N243 0.985 . S
H248 N242 0.984 . S
H249 N242 0.984 . S
H250 N238 0.984 . S
H251 N238 0.985 . S
C252 C253 1.363 . S
C252 C258 1.379 . S
C252 N260 1.356 . S
C253 C252 1.363 . S
C253 C259 1.363 . S
C254 C255 1.363 . S
C254 C259 1.379 . S
C254 N261 1.356 . S
C255 C254 1.363 . S
C255 C258 1.363 . S
N256 C258 1.356 . S
N256 H268 0.984 . S
N256 H269 0.985 . S
N257 C259 1.356 . S
N257 H262 0.984 . S
N257 H263 0.985 . S
C258 C252 1.379 . S
C258 C255 1.363 . S
C258 N256 1.356 . S
C259 C253 1.363 . S
C259 C254 1.379 . S
C259 N257 1.356 . S
N260 C252 1.356 . S
N260 H266 0.984 . S
N260 H267 0.984 . S
N261 C254 1.356 . S
N261 H264 0.984 . S
N261 H265 0.985 . S
H262 N257 0.984 . S
H263 N257 0.985 . S
H264 N261 0.984 . S
H265 N261 0.985 . S
H266 N260 0.984 . S
H267 N260 0.984 . S
H268 N256 0.984 . S
H269 N256 0.985 . S
C270 C271 1.363 . S
C270 C276 1.379 . S
C270 N278 1.356 . S
C271 C270 1.363 . S
C271 C277 1.363 . S
C272 C273 1.363 . S
C272 C277 1.379 . S
C272 N279 1.356 . S
C273 C272 1.363 . S
C273 C276 1.363 . S
N274 C276 1.356 . S
N274 H286 0.984 . S
N274 H287 0.985 . S
N275 C277 1.356 . S
N275 H280 0.984 . S
N275 H281 0.985 . S
C276 C270 1.379 . S
C276 C273 1.363 . S
C276 N274 1.356 . S
C277 C271 1.363 . S
C277 C272 1.379 . S
C277 N275 1.356 . S
N278 C270 1.356 . S
N278 H284 0.984 . S
N278 H285 0.984 . S
N279 C272 1.356 . S
N279 H282 0.984 . S
N279 H283 0.985 . S
H280 N275 0.984 . S
H281 N275 0.985 . S
H282 N279 0.984 . S
H283 N279 0.985 . S
H284 N278 0.984 . S
H285 N278 0.984 . S
H286 N274 0.984 . S
H287 N274 0.985 . S
C288 C289 1.363 . S
C288 C294 1.379 . S
C288 N296 1.356 . S
C289 C288 1.363 . S
C289 C295 1.363 . S
C290 C291 1.363 . S
C290 C295 1.379 . S
C290 N297 1.356 . S
C291 C290 1.363 . S
C291 C294 1.363 . S
N292 C294 1.356 1_655 S
N292 H304 0.984 . S
N292 H305 0.985 . S
N293 C295 1.356 . S
N293 H298 0.984 . S
N293 H299 0.985 . S
C294 C288 1.379 . S
C294 C291 1.363 . S
C294 N292 1.356 1_455 S
C295 C289 1.363 . S
C295 C290 1.379 . S
C295 N293 1.356 . S
N296 C288 1.356 . S
N296 H302 0.984 . S
N296 H303 0.984 1_556 S
N297 C290 1.356 . S
N297 H300 0.984 . S
N297 H301 0.985 . S
H298 N293 0.984 . S
H299 N293 0.985 . S
H300 N297 0.984 . S
H301 N297 0.985 . S
H302 N296 0.984 . S
H303 N296 0.984 1_554 S
H304 N292 0.984 . S
H305 N292 0.985 . S
C93 C61 1.535 . S
C91 C41 1.505 . S
C109 C8 1.493 . S
C111 C84 1.520 . S
C127 C19 1.518 . S
C129 C60 1.548 . S
C145 C30 1.571 . S
C147 C83 1.568 . S
C165 C64 1.527 . S
C163 C5 1.261 . S
C183 C86 1.615 . S
C181 C18 1.661 . S
C199 C29 1.633 . S
C201 C65 1.548 . S
C217 C40 1.618 . S
C219 C85 1.583 . S
C237 C88 1.390 . S
C235 C16 1.149 . S
C255 C63 1.420 . S
C253 C27 1.301 . S
C273 C87 1.359 . S
C271 C38 1.126 . S
C289 C7 1.440 . S
C291 C62 1.402 . S
