# Generated by pormake.
# Topology anh, (6,3)-cn, num edge types: 1
# Building blocks:
#     Node 0, Type 0, BuildingBlock: NUHQIS_clean_sbu_0, # of connection points: 6
#     Node 1, Type 0, BuildingBlock: NUHQIS_clean_sbu_0, # of connection points: 6
#     Node 2, Type 0, BuildingBlock: NUHQIS_clean_sbu_0, # of connection points: 6
#     Node 3, Type 1, BuildingBlock: OLANEW_clean_sbu_2, # of connection points: 3
#     Node 4, Type 1, BuildingBlock: OLANEW_clean_sbu_2, # of connection points: 3
#     Node 5, Type 1, BuildingBlock: OLANEW_clean_sbu_2, # of connection points: 3
#     Node 6, Type 1, BuildingBlock: OLANEW_clean_sbu_2, # of connection points: 3
#     Node 7, Type 1, BuildingBlock: OLANEW_clean_sbu_2, # of connection points: 3
#     Node 8, Type 1, BuildingBlock: OLANEW_clean_sbu_2, # of connection points: 3
#     Edge 9, Type (0, 1), BuildingBlock: AJUNOK_clean_linker_0, # of connection points: 2
#     Edge 10, Type (0, 1), BuildingBlock: AJUNOK_clean_linker_0, # of connection points: 2
#     Edge 11, Type (0, 1), BuildingBlock: AJUNOK_clean_linker_0, # of connection points: 2
#     Edge 12, Type (0, 1), BuildingBlock: AJUNOK_clean_linker_0, # of connection points: 2
#     Edge 13, Type (0, 1), BuildingBlock: AJUNOK_clean_linker_0, # of connection points: 2
#     Edge 14, Type (0, 1), BuildingBlock: AJUNOK_clean_linker_0, # of connection points: 2
#     Edge 15, Type (0, 1), BuildingBlock: AJUNOK_clean_linker_0, # of connection points: 2
#     Edge 16, Type (0, 1), BuildingBlock: AJUNOK_clean_linker_0, # of connection points: 2
#     Edge 17, Type (0, 1), BuildingBlock: AJUNOK_clean_linker_0, # of connection points: 2
#     Edge 18, Type (0, 1), BuildingBlock: AJUNOK_clean_linker_0, # of connection points: 2
#     Edge 19, Type (0, 1), BuildingBlock: AJUNOK_clean_linker_0, # of connection points: 2
#     Edge 20, Type (0, 1), BuildingBlock: AJUNOK_clean_linker_0, # of connection points: 2
#     Edge 21, Type (0, 1), BuildingBlock: AJUNOK_clean_linker_0, # of connection points: 2
#     Edge 22, Type (0, 1), BuildingBlock: AJUNOK_clean_linker_0, # of connection points: 2
#     Edge 23, Type (0, 1), BuildingBlock: AJUNOK_clean_linker_0, # of connection points: 2
#     Edge 24, Type (0, 1), BuildingBlock: AJUNOK_clean_linker_0, # of connection points: 2
#     Edge 25, Type (0, 1), BuildingBlock: AJUNOK_clean_linker_0, # of connection points: 2
#     Edge 26, Type (0, 1), BuildingBlock: AJUNOK_clean_linker_0, # of connection points: 2
# Relax obj value: 0.327
# Max RMSD: 0.142
# Mean RMSD: 0.120
data_MOF--net-anh--node1-NUHQIS_clean_sbu_0--node2-OLANEW_clean_sbu_2--edge1-AJUNOK_clean_linker_0
_symmetry_space_group_name_H-M    P1
_symmetry_Int_Tables_number       1
_symmetry_cell_setting            triclinic
loop_
_symmetry_equiv_pos_as_xyz
'x, y, z'
_cell_length_a     28.355117
_cell_length_b     28.273866
_cell_length_c     36.802097
_cell_angle_alpha  92.545631
_cell_angle_beta   92.416416
_cell_angle_gamma 120.05802
loop_
_atom_site_label
_atom_site_type_symbol
_atom_site_fract_x
_atom_site_fract_y
_atom_site_fract_z
_atom_type_partial_charge
Tb0 Tb 0.11791 0.5419 0.1721 0.0
Eu1 Eu 0.05591 0.60978 0.1879 0.0
C2 C 0.1158 0.58052 0.25134 0.0
C3 C 0.99392 0.47804 0.19259 0.0
C4 C 0.22806 0.51176 0.15779 0.0
C5 C 0.32017 0.56983 0.18582 0.0
C6 C 0.26415 0.55094 0.18529 0.0
C7 C 0.24849 0.49187 0.13089 0.0
C8 C 0.30441 0.51112 0.13119 0.0
C9 C 0.34072 0.55037 0.15854 0.0
C10 C 0.16989 0.49472 0.15492 0.0
O11 O 0.0613 0.52744 0.12592 0.0
O12 O 0.0735 0.61251 0.1281 0.0
O13 O 0.14439 0.67473 0.19786 0.0
O14 O 0.181 0.62861 0.16841 0.0
C15 C 0.06325 0.56781 0.1089 0.0
O16 O 1.0029 0.63884 0.16657 0.0
O17 O 1.03239 0.65724 0.2235 0.0
O18 O 0.07124 0.58169 0.24154 0.0
O19 O 0.14673 0.57798 0.22693 0.0
O20 O 1.04177 0.48063 0.19403 0.0
O21 O 0.98943 0.52043 0.18405 0.0
C22 C 0.18654 0.67361 0.18535 0.0
O23 O 0.14636 0.48868 0.18548 0.0
O24 O 0.15675 0.52132 0.13241 0.0
C25 C 0.94049 0.63104 0.20826 0.0
C26 C 0.8267 0.56606 0.20967 0.0
C27 C 0.84972 0.6162 0.19342 0.0
C28 C 0.9064 0.64845 0.19262 0.0
C29 C 0.91764 0.58323 0.22715 0.0
C30 C 0.86112 0.55113 0.22801 0.0
C31 C 0.99734 0.65587 0.19873 0.0
H32 H 0.3475 0.60046 0.20697 0.0
H33 H 0.24918 0.56762 0.20589 0.0
H34 H 0.22126 0.46212 0.10928 0.0
H35 H 0.31935 0.49523 0.11005 0.0
H36 H 0.82386 0.62836 0.17899 0.0
H37 H 0.92333 0.68486 0.17759 0.0
H38 H 0.94318 0.56868 0.23908 0.0
H39 H 0.84417 0.51286 0.24099 0.0
Tb40 Tb 0.60818 0.0991 0.52826 0.0
Eu41 Eu 0.47666 1.03722 0.5149 0.0
C42 C 0.53936 0.07314 0.59562 0.0
C43 C 0.53802 0.9711 0.53556 0.0
C44 C 0.74727 0.20087 0.51466 0.0
C45 C 0.83122 0.25668 0.48624 0.0
C46 C 0.79814 0.21045 0.50455 0.0
C47 C 0.72959 0.23777 0.50621 0.0
C48 C 0.76283 0.2842 0.48821 0.0
C49 C 0.81364 0.29369 0.47785 0.0
C50 C 0.71057 0.15022 0.53105 0.0
O51 O 0.5893 0.11351 0.47364 0.0
O52 O 0.5104 1.03369 0.46039 0.0
O53 O 0.50431 0.12589 0.50711 0.0
O54 O 0.58768 0.16344 0.53944 0.0
C55 C 0.55476 0.07503 0.44954 0.0
O56 O 0.40283 0.9778 0.48208 0.0
O57 O 0.3963 1.0209 0.52982 0.0
O58 O 0.49723 0.06639 0.57482 0.0
O59 O 0.58179 0.07457 0.58176 0.0
O60 O 0.58236 1.01143 0.52344 0.0
O61 O 0.49452 0.97551 0.53919 0.0
C62 C 0.54701 0.16811 0.52486 0.0
O63 O 0.68274 0.15501 0.55687 0.0
O64 O 0.68004 0.10878 0.50757 0.0
C65 C 0.33382 0.92616 0.51944 0.0
C66 C 0.28246 0.81553 0.53463 0.0
C67 C 0.26229 0.83181 0.50509 0.0
C68 C 0.28801 0.88687 0.49746 0.0
C69 C 0.35075 0.91059 0.5509 0.0
C70 C 0.32505 0.85564 0.55854 0.0
C71 C 0.37046 0.9794 0.50558 0.0
H72 H 0.87074 0.26381 0.47887 0.0
H73 H 0.81193 0.18195 0.51045 0.0
H74 H 0.68981 0.23032 0.51314 0.0
H75 H 0.74863 0.31226 0.48193 0.0
H76 H 0.22965 0.80151 0.48616 0.0
H77 H 0.27483 0.89806 0.47286 0.0
H78 H 0.38644 0.9402 0.56807 0.0
H79 H 0.34094 0.84404 0.58165 0.0
Tb80 Tb 0.58369 0.61195 0.86388 0.0
Eu81 Eu 0.51341 0.48019 0.84511 0.0
C82 C 0.54398 0.5321 0.92631 0.0
C83 C 0.64415 0.5443 0.86324 0.0
C84 C 0.61694 0.75485 0.87329 0.0
C85 C 0.61045 0.83236 0.8975 0.0
C86 C 0.63144 0.79722 0.90033 0.0
C87 C 0.58194 0.74854 0.84299 0.0
C88 C 0.5614 0.78401 0.83997 0.0
C89 C 0.57462 0.82564 0.86754 0.0
C90 C 0.6335 0.71404 0.87895 0.0
O91 O 0.55375 0.60243 0.80642 0.0
O92 O 0.54237 0.51768 0.79247 0.0
O93 O 0.45125 0.50764 0.83683 0.0
O94 O 0.49919 0.58913 0.87179 0.0
C95 C 0.5471 0.5635 0.78224 0.0
O96 O 0.50113 0.40876 0.81166 0.0
O97 O 0.44866 0.39807 0.85528 0.0
O98 O 0.5044 0.49589 0.90355 0.0
O99 O 0.58629 0.57485 0.91447 0.0
O100 O 0.64458 0.58845 0.85287 0.0
O101 O 0.59761 0.49981 0.86807 0.0
C102 C 0.45315 0.54973 0.85524 0.0
O103 O 0.60545 0.67834 0.9019 0.0
O104 O 0.64037 0.69091 0.84977 0.0
C105 C 0.47815 0.33406 0.84631 0.0
C106 C 0.51936 0.26757 0.86951 0.0
C107 C 0.49375 0.25815 0.83431 0.0
C108 C 0.47318 0.29118 0.8228 0.0
C109 C 0.50225 0.34239 0.88192 0.0
C110 C 0.5223 0.30903 0.89353 0.0
C111 C 0.46506 0.37414 0.83207 0.0
H112 H 0.62125 0.86403 0.91918 0.0
H113 H 0.6578 0.80216 0.92412 0.0
H114 H 0.56966 0.71562 0.82199 0.0
H115 H 0.53507 0.77873 0.8161 0.0
H116 H 0.49093 0.22613 0.81546 0.0
H117 H 0.45533 0.28462 0.79512 0.0
H118 H 0.50749 0.37597 0.90031 0.0
H119 H 0.54232 0.31718 0.92068 0.0
O120 O 0.64454 0.14234 0.28676 0.0
Cd121 Cd 0.68768 0.17987 0.22818 0.0
O122 O 0.56867 0.0649 0.26878 0.0
Cd123 Cd 0.48897 0.98403 0.2637 0.0
O124 O 0.40823 0.90733 0.24664 0.0
C125 C 0.40362 0.86828 0.22503 0.0
O126 O 0.44819 0.87269 0.21242 0.0
C127 C 0.60091 0.09933 0.29473 0.0
C128 C 0.79115 0.2786 0.22478 0.0
O129 O 0.74633 0.27939 0.2253 0.0
O130 O 0.7878 0.232 0.22777 0.0
O131 O 0.55779 0.5254 0.61265 0.0
Cd132 Cd 0.57059 0.48847 0.55307 0.0
O133 O 0.56239 0.60439 0.6032 0.0
Cd134 Cd 0.56138 0.68379 0.60498 0.0
O135 O 0.56766 0.76206 0.58696 0.0
C136 C 0.52913 0.77296 0.58857 0.0
O137 O 0.48374 0.73731 0.60227 0.0
C138 C 0.55637 0.56782 0.62491 0.0
C139 C 0.55965 0.38209 0.54729 0.0
O140 O 0.60554 0.42511 0.55746 0.0
O141 O 0.51865 0.38884 0.54114 0.0
O142 O 0.11173 0.55472 0.94125 0.0
Cd143 Cd 0.1496 0.5536 0.88093 0.0
O144 O 1.03481 0.55412 0.92628 0.0
Cd145 Cd 0.95263 0.54784 0.92911 0.0
O146 O 0.86767 0.53399 0.91732 0.0
C147 C 0.85966 0.56694 0.89894 0.0
O148 O 0.90245 0.60988 0.88774 0.0
C149 C 0.06893 0.55518 0.9507 0.0
C150 C 0.24972 0.5527 0.87678 0.0
O151 O 0.24904 0.59732 0.88304 0.0
O152 O 0.20341 0.50805 0.87377 0.0
O153 O 0.177 0.51548 0.40618 0.0
Cd154 Cd 0.17877 0.48981 0.46857 0.0
O155 O 0.13565 0.55669 0.42823 0.0
Cd156 Cd 0.08415 0.59361 0.43015 0.0
O157 O 0.9984 0.53544 0.4359 0.0
C158 C 0.98418 0.48745 0.42266 0.0
O159 O 1.02028 0.47955 0.40646 0.0
C160 C 0.15448 0.54407 0.40104 0.0
C161 C 0.21262 0.58676 0.51036 0.0
O162 O 0.24681 0.57324 0.49935 0.0
O163 O 0.16156 0.552 0.50393 0.0
O164 O 0.4928 0.073 0.76825 0.0
Cd165 Cd 0.46925 0.05585 0.8315 0.0
O166 O 0.58161 0.1031 0.77341 0.0
Cd167 Cd 0.59848 0.10741 0.83208 0.0
O168 O 0.62873 0.1147 0.88918 0.0
C169 C 0.6231 0.14506 0.91302 0.0
O170 O 0.63649 0.14452 0.94753 0.0
C171 C 0.53797 0.08944 0.75381 0.0
C172 C 0.49315 0.97623 0.85206 0.0
O173 O 0.52498 1.02701 0.86173 0.0
O174 O 0.44773 0.96229 0.83426 0.0
O175 O 0.5009 0.40397 0.0725 0.0
Cd176 Cd 0.4937 0.36419 0.13084 0.0
O177 O 0.57387 0.47927 0.09561 0.0
Cd178 Cd 0.6277 0.56791 0.09731 0.0
O179 O 0.57994 0.6047 0.11372 0.0
C180 C 0.55891 0.59046 0.144 0.0
O181 O 0.57457 0.56312 0.16441 0.0
C182 C 0.53866 0.45288 0.06904 0.0
C183 C 0.59725 0.42025 0.1664 0.0
O184 O 0.58131 0.37635 0.14587 0.0
O185 O 0.56293 0.43641 0.17141 0.0
C186 C 0.42627 0.58956 0.12608 0.0
C187 C 0.39985 0.57022 0.15814 0.0
C188 C 0.4797 0.60039 0.12279 0.0
C189 C 0.50843 0.59155 0.15132 0.0
H190 H 0.40466 0.59435 0.10284 0.0
H191 H 0.49719 0.61259 0.09686 0.0
S192 S 0.45935 0.54769 0.2426 0.0
N193 N 0.40765 0.54763 0.22015 0.0
N194 N 0.5083 0.56793 0.21418 0.0
C195 C 0.48371 0.57589 0.18448 0.0
C196 C 0.42932 0.56522 0.18784 0.0
C197 C 0.86585 0.39522 0.47638 0.0
C198 C 0.84957 0.34322 0.45953 0.0
C199 C 0.90689 0.44273 0.4626 0.0
C200 C 0.93277 0.43946 0.43159 0.0
H201 H 0.84907 0.39898 0.50154 0.0
H202 H 0.92073 0.48174 0.4777 0.0
S203 S 0.89608 0.31336 0.37348 0.0
N204 N 0.85597 0.29144 0.40748 0.0
N205 N 0.93301 0.38064 0.38126 0.0
C206 C 0.91321 0.38792 0.41273 0.0
C207 C 0.87164 0.33972 0.42685 0.0
C208 C 0.58644 0.9194 0.87205 0.0
C209 C 0.55181 0.86258 0.86497 0.0
C210 C 0.56651 0.95546 0.86896 0.0
C211 C 0.51115 0.93621 0.85851 0.0
H212 H 0.62964 0.93633 0.87923 0.0
H213 H 0.59526 0.99896 0.87385 0.0
S214 S 0.40256 0.79057 0.8399 0.0
N215 N 0.45877 0.78828 0.84934 0.0
N216 N 0.42131 0.8562 0.84303 0.0
C217 C 0.47571 0.87934 0.85221 0.0
C218 C 0.49605 0.84253 0.85549 0.0
C219 C 0.72863 0.54102 0.21026 0.0
C220 C 0.76774 0.52608 0.20267 0.0
C221 C 0.67308 0.50537 0.19997 0.0
C222 C 0.65485 0.45382 0.18134 0.0
H223 H 0.74124 0.58095 0.22356 0.0
H224 H 0.64456 0.51921 0.20558 0.0
S225 S 0.7419 0.39607 0.15491 0.0
N226 N 0.785 0.45679 0.17555 0.0
N227 N 0.68086 0.38952 0.15649 0.0
C228 C 0.69368 0.43801 0.17447 0.0
C229 C 0.75008 0.47424 0.18503 0.0
C230 C 0.20993 0.71682 0.53457 0.0
C231 C 0.26555 0.75701 0.53638 0.0
C232 C 0.19312 0.66103 0.52916 0.0
C233 C 0.2314 0.64362 0.52491 0.0
H234 H 0.17916 0.72876 0.53574 0.0
H235 H 0.1497 0.63174 0.52611 0.0
S236 S 0.3822 0.73306 0.52949 0.0
N237 N 0.35901 0.7758 0.5352 0.0
N238 N 0.32771 0.67121 0.52558 0.0
C239 C 0.28733 0.6834 0.52894 0.0
C240 C 0.30435 0.74007 0.53446 0.0
C241 C 0.53188 0.2072 0.91174 0.0
C242 C 0.54623 0.23667 0.88039 0.0
C243 C 0.55755 0.17812 0.92249 0.0
C244 C 0.59839 0.17785 0.90227 0.0
H245 H 0.50019 0.20613 0.92773 0.0
H246 H 0.54471 0.15493 0.94637 0.0
S247 S 0.65601 0.25523 0.8213 0.0
N248 N 0.6068 0.26772 0.83114 0.0
N249 N 0.65623 0.21449 0.85201 0.0
C250 C 0.61456 0.20898 0.87177 0.0
C251 C 0.5881 0.23802 0.86063 0.0
C252 C 0.49396 0.88354 0.56742 0.0
C253 C 0.5374 0.92071 0.54778 0.0
C254 C 0.49252 0.83703 0.58077 0.0
C255 C 0.53394 0.82444 0.5748 0.0
H256 H 0.46068 0.89056 0.57306 0.0
H257 H 0.45817 0.81059 0.59594 0.0
S258 S 0.65729 0.90803 0.52507 0.0
N259 N 0.62365 0.94168 0.52339 0.0
N260 N 0.62033 0.85382 0.54783 0.0
C261 C 0.57783 0.86121 0.55527 0.0
C262 C 0.57962 0.90916 0.5419 0.0
C263 C 0.74698 0.59486 0.86562 0.0
C264 C 0.69784 0.54689 0.87157 0.0
C265 C 0.79828 0.60039 0.8745 0.0
C266 C 0.80354 0.55841 0.89003 0.0
H267 H 0.74613 0.62905 0.85411 0.0
H268 H 0.83428 0.63852 0.86932 0.0
S269 S 0.68794 0.42325 0.91038 0.0
N270 N 0.65802 0.45558 0.89344 0.0
N271 N 0.75435 0.46612 0.91022 0.0
C272 C 0.75482 0.50982 0.89593 0.0
C273 C 0.70222 0.50404 0.88667 0.0
C274 C 0.24841 0.77063 0.21285 0.0
C275 C 0.24234 0.72371 0.19297 0.0
C276 C 0.30019 0.81675 0.22301 0.0
C277 C 0.34877 0.81859 0.21376 0.0
H278 H 0.21278 0.77172 0.2212 0.0
H279 H 0.30202 0.85127 0.23837 0.0
S280 S 0.35649 0.70697 0.16174 0.0
N281 N 0.2904 0.68261 0.16435 0.0
N282 N 0.38708 0.76872 0.18315 0.0
C283 C 0.34342 0.77219 0.19356 0.0
C284 C 0.2906 0.7251 0.18328 0.0
C285 C 0.59784 0.26974 0.54332 0.0
C286 C 0.549 0.22214 0.5298 0.0
C287 C 0.60072 0.32077 0.54903 0.0
C288 C 0.55486 0.32681 0.54178 0.0
H289 H 0.63448 0.2678 0.54949 0.0
H290 H 0.63951 0.35586 0.55923 0.0
S291 S 0.4165 0.21499 0.50688 0.0
N292 N 0.45321 0.18466 0.50982 0.0
N293 N 0.45858 0.27994 0.52065 0.0
C294 C 0.50561 0.2795 0.52846 0.0
C295 C 0.50275 0.22754 0.52244 0.0
C296 C 0.34994 0.50544 0.85028 0.0
C297 C 0.40177 0.55183 0.85987 0.0
C298 C 0.3013 0.50585 0.85626 0.0
C299 C 0.30208 0.5528 0.87183 0.0
H300 H 0.34673 0.4681 0.83843 0.0
H301 H 0.26268 0.469 0.84831 0.0
S302 S 0.42683 0.68522 0.90222 0.0
N303 N 0.4504 0.64636 0.88602 0.0
N304 N 0.35964 0.64694 0.89701 0.0
C305 C 0.3536 0.59955 0.88143 0.0
C306 C 0.40309 0.59909 0.87553 0.0
C307 C 0.89377 0.42631 0.20487 0.0
C308 C 0.9434 0.42663 0.2017 0.0
C309 C 0.84569 0.37909 0.21334 0.0
C310 C 0.84432 0.32936 0.21873 0.0
H311 H 0.89178 0.46297 0.20078 0.0
H312 H 0.80903 0.38158 0.21537 0.0
S313 S 0.96327 0.30802 0.21518 0.0
N314 N 0.98815 0.37258 0.2061 0.0
N315 N 0.89809 0.28417 0.22144 0.0
C316 C 0.89382 0.32922 0.2163 0.0
C317 C 0.94304 0.37753 0.20792 0.0
C318 C 0.07211 0.52665 0.05001 0.0
C319 C 0.0596 0.56345 0.06822 0.0
C320 C 0.07294 0.52315 1.01199 0.0
C321 C 0.06 0.55525 0.9902 0.0
H322 H 0.08323 0.50136 0.06528 0.0
H323 H 0.08473 0.49552 0.99954 0.0
S324 S 1.02132 0.65592 0.0237 0.0
N325 N 1.03216 0.63159 0.06121 0.0
N326 N 1.03244 0.6239 0.98938 0.0
C327 C 1.04536 0.5908 1.00771 0.0
C328 C 1.04561 0.59527 0.04677 0.0
C329 C 0.52612 0.04757 0.38203 0.0
C330 C 0.56669 0.07984 0.41013 0.0
C331 C 0.53721 0.05328 0.34487 0.0
C332 C 0.58944 0.09122 0.33419 0.0
H333 H 0.48519 1.01826 0.38871 0.0
H334 H 0.50419 1.02848 0.32448 0.0
S335 S 0.71134 0.18295 0.39732 0.0
N336 N 0.66214 0.14946 0.42442 0.0
N337 N 0.68289 0.15976 0.35555 0.0
C338 C 0.6306 0.12282 0.36222 0.0
C339 C 0.6193 0.11723 0.39981 0.0
C340 C 0.51592 0.52066 0.71888 0.0
C341 C 0.5436 0.56889 0.7422 0.0
C342 C 0.51759 0.52185 0.68102 0.0
C343 C 0.5471 0.57131 0.66432 0.0
H344 H 0.49391 0.48102 0.72998 0.0
H345 H 0.49703 0.48306 0.66471 0.0
S346 S 0.62253 0.71005 0.71257 0.0
N347 N 0.59787 0.6684 0.74566 0.0
N348 N 0.60161 0.67057 0.67404 0.0
C349 C 0.57226 0.62041 0.68698 0.0
C350 C 0.57036 0.6192 0.72599 0.0
C351 C 0.49046 0.05962 0.65282 0.0
C352 C 0.5397 0.0799 0.63578 0.0
C353 C 0.49025 0.06406 0.69095 0.0
C354 C 0.53935 0.08929 0.71347 0.0
H355 H 0.45166 0.03901 0.63668 0.0
H356 H 0.4512 0.04653 0.7028 0.0
S357 S 0.67968 0.15463 0.68183 0.0
N358 N 0.63902 0.12988 0.64407 0.0
N359 N 0.63879 0.13851 0.71541 0.0
C360 C 0.58895 0.11154 0.69656 0.0
C361 C 0.58912 0.10676 0.65783 0.0
C362 C 0.59117 0.53499 0.98625 0.0
C363 C 0.5426 0.51961 0.96498 0.0
C364 C 0.58973 0.51495 0.02071 0.0
C365 C 0.53971 0.4791 0.03496 0.0
H366 H 0.63046 0.56018 0.97545 0.0
H367 H 0.628 0.52539 0.03541 0.0
S368 S 0.40131 0.43343 0.99242 0.0
N369 N 0.44326 0.47146 0.96242 0.0
N370 N 0.44074 0.43389 0.02689 0.0
C371 C 0.49104 0.4661 1.01484 0.0
C372 C 0.49246 0.48646 0.97995 0.0
C373 C 0.09349 0.57284 0.31658 0.0
C374 C 0.12958 0.57751 0.29014 0.0
C375 C 0.1027 0.5641 0.35268 0.0
C376 C 0.14794 0.55898 0.36379 0.0
H377 H 0.05691 0.57439 0.30923 0.0
H378 H 0.07265 0.5593 0.37124 0.0
S379 S 0.25898 0.57553 0.3064 0.0
N380 N 0.21589 0.58222 0.27857 0.0
N381 N 0.23218 0.56466 0.34625 0.0
C382 C 0.18574 0.56614 0.33804 0.0
C383 C 0.17685 0.57573 0.30134 0.0
loop_
_geom_bond_atom_site_label_1
_geom_bond_atom_site_label_2
_geom_bond_distance
_geom_bond_site_symmetry_2
_ccdc_geom_bond_type
Tb0 C10 2.825 . S
Tb0 O11 2.347 . S
Tb0 O14 2.366 . S
Tb0 O19 2.418 . S
Tb0 O20 2.384 1_455 S
Tb0 O23 2.479 . S
Tb0 O24 2.471 . S
Eu1 O12 2.418 . S
Eu1 O13 2.384 1_655 S
Eu1 O16 2.479 . S
Eu1 O17 2.471 . S
Eu1 O18 2.347 1_655 S
Eu1 O21 2.366 . S
Eu1 C31 2.825 . S
C2 O18 1.259 . S
C2 O19 1.265 . S
C3 O20 1.255 . S
C3 O21 1.265 . S
C4 C6 1.380 . S
C4 C7 1.374 . S
C4 C10 1.507 . S
C5 C6 1.384 . S
C5 C9 1.387 . S
C5 H32 0.930 . S
C6 C4 1.380 . S
C6 C5 1.384 . S
C6 H33 0.931 . S
C7 C4 1.374 . S
C7 C8 1.390 . S
C7 H34 0.930 . S
C8 C7 1.390 . S
C8 C9 1.391 . S
C8 H35 0.930 . S
C9 C5 1.387 . S
C9 C8 1.391 . S
C10 Tb0 2.825 . S
C10 C4 1.507 . S
C10 O23 1.238 . S
C10 O24 1.247 . S
O11 Tb0 2.347 . S
O11 C15 1.259 . S
O12 Eu1 2.418 . S
O12 C15 1.265 1_655 S
O13 Eu1 2.384 1_455 S
O13 C22 1.255 . S
O14 Tb0 2.366 . S
O14 C22 1.265 . S
C15 O11 1.259 . S
C15 O12 1.265 1_455 S
O16 Eu1 2.479 . S
O16 C31 1.238 . S
O17 Eu1 2.471 . S
O17 C31 1.247 . S
O18 Eu1 2.347 1_455 S
O18 C2 1.259 . S
O19 Tb0 2.418 . S
O19 C2 1.265 . S
O20 Tb0 2.384 1_655 S
O20 C3 1.255 . S
O21 Eu1 2.366 . S
O21 C3 1.265 . S
C22 O13 1.255 . S
C22 O14 1.265 . S
O23 Tb0 2.479 . S
O23 C10 1.238 . S
O24 Tb0 2.471 . S
O24 C10 1.247 . S
C25 C28 1.380 . S
C25 C29 1.374 . S
C25 C31 1.507 . S
C26 C27 1.387 . S
C26 C30 1.391 . S
C27 C26 1.387 . S
C27 C28 1.384 . S
C27 H36 0.930 . S
C28 C25 1.380 . S
C28 C27 1.384 . S
C28 H37 0.931 . S
C29 C25 1.374 . S
C29 C30 1.390 . S
C29 H38 0.930 . S
C30 C26 1.391 . S
C30 C29 1.390 . S
C30 H39 0.930 . S
C31 Eu1 2.825 . S
C31 O16 1.238 . S
C31 O17 1.247 . S
C31 C25 1.507 . S
H32 C5 0.930 . S
H33 C6 0.931 . S
H34 C7 0.930 . S
H35 C8 0.930 . S
H36 C27 0.930 . S
H37 C28 0.931 . S
H38 C29 0.930 . S
H39 C30 0.930 . S
Tb40 C50 2.825 . S
Tb40 O51 2.347 . S
Tb40 O54 2.366 . S
Tb40 O59 2.418 . S
Tb40 O60 2.384 1_545 S
Tb40 O63 2.479 . S
Tb40 O64 2.471 . S
Eu41 O52 2.418 . S
Eu41 O53 2.384 . S
Eu41 O56 2.479 1_545 S
Eu41 O57 2.471 1_545 S
Eu41 O58 2.347 . S
Eu41 O61 2.366 1_545 S
Eu41 C71 2.825 1_545 S
C42 O58 1.259 . S
C42 O59 1.265 . S
C43 O60 1.255 . S
C43 O61 1.265 . S
C44 C46 1.380 . S
C44 C47 1.374 . S
C44 C50 1.507 . S
C45 C46 1.384 . S
C45 C49 1.387 . S
C45 H72 0.930 . S
C46 C44 1.380 . S
C46 C45 1.384 . S
C46 H73 0.931 . S
C47 C44 1.374 . S
C47 C48 1.390 . S
C47 H74 0.930 . S
C48 C47 1.390 . S
C48 C49 1.391 . S
C48 H75 0.930 . S
C49 C45 1.387 . S
C49 C48 1.391 . S
C50 Tb40 2.825 . S
C50 C44 1.507 . S
C50 O63 1.238 . S
C50 O64 1.247 . S
O51 Tb40 2.347 . S
O51 C55 1.259 . S
O52 Eu41 2.418 . S
O52 C55 1.265 . S
O53 Eu41 2.384 . S
O53 C62 1.255 . S
O54 Tb40 2.366 . S
O54 C62 1.265 . S
C55 O51 1.259 . S
C55 O52 1.265 . S
O56 Eu41 2.479 1_565 S
O56 C71 1.238 . S
O57 Eu41 2.471 1_565 S
O57 C71 1.247 . S
O58 Eu41 2.347 . S
O58 C42 1.259 . S
O59 Tb40 2.418 . S
O59 C42 1.265 . S
O60 Tb40 2.384 1_565 S
O60 C43 1.255 . S
O61 Eu41 2.366 1_565 S
O61 C43 1.265 . S
C62 O53 1.255 . S
C62 O54 1.265 . S
O63 Tb40 2.479 . S
O63 C50 1.238 . S
O64 Tb40 2.471 . S
O64 C50 1.247 . S
C65 C68 1.380 . S
C65 C69 1.374 . S
C65 C71 1.507 . S
C66 C67 1.387 . S
C66 C70 1.391 . S
C67 C66 1.387 . S
C67 C68 1.384 . S
C67 H76 0.930 . S
C68 C65 1.380 . S
C68 C67 1.384 . S
C68 H77 0.931 . S
C69 C65 1.374 . S
C69 C70 1.390 . S
C69 H78 0.930 . S
C70 C66 1.391 . S
C70 C69 1.390 . S
C70 H79 0.930 . S
C71 Eu41 2.825 1_565 S
C71 O56 1.238 . S
C71 O57 1.247 . S
C71 C65 1.507 . S
H72 C45 0.930 . S
H73 C46 0.931 . S
H74 C47 0.930 . S
H75 C48 0.930 . S
H76 C67 0.930 . S
H77 C68 0.931 . S
H78 C69 0.930 . S
H79 C70 0.930 . S
Tb80 C90 2.825 . S
Tb80 O91 2.347 . S
Tb80 O94 2.366 . S
Tb80 O99 2.418 . S
Tb80 O100 2.384 . S
Tb80 O103 2.479 . S
Tb80 O104 2.471 . S
Eu81 O92 2.418 . S
Eu81 O93 2.384 . S
Eu81 O96 2.479 . S
Eu81 O97 2.471 . S
Eu81 O98 2.347 . S
Eu81 O101 2.366 . S
Eu81 C111 2.825 . S
C82 O98 1.259 . S
C82 O99 1.265 . S
C83 O100 1.255 . S
C83 O101 1.265 . S
C84 C86 1.380 . S
C84 C87 1.374 . S
C84 C90 1.507 . S
C85 C86 1.384 . S
C85 C89 1.387 . S
C85 H112 0.930 . S
C86 C84 1.380 . S
C86 C85 1.384 . S
C86 H113 0.931 . S
C87 C84 1.374 . S
C87 C88 1.390 . S
C87 H114 0.930 . S
C88 C87 1.390 . S
C88 C89 1.391 . S
C88 H115 0.930 . S
C89 C85 1.387 . S
C89 C88 1.391 . S
C90 Tb80 2.825 . S
C90 C84 1.507 . S
C90 O103 1.238 . S
C90 O104 1.247 . S
O91 Tb80 2.347 . S
O91 C95 1.259 . S
O92 Eu81 2.418 . S
O92 C95 1.265 . S
O93 Eu81 2.384 . S
O93 C102 1.255 . S
O94 Tb80 2.366 . S
O94 C102 1.265 . S
C95 O91 1.259 . S
C95 O92 1.265 . S
O96 Eu81 2.479 . S
O96 C111 1.238 . S
O97 Eu81 2.471 . S
O97 C111 1.247 . S
O98 Eu81 2.347 . S
O98 C82 1.259 . S
O99 Tb80 2.418 . S
O99 C82 1.265 . S
O100 Tb80 2.384 . S
O100 C83 1.255 . S
O101 Eu81 2.366 . S
O101 C83 1.265 . S
C102 O93 1.255 . S
C102 O94 1.265 . S
O103 Tb80 2.479 . S
O103 C90 1.238 . S
O104 Tb80 2.471 . S
O104 C90 1.247 . S
C105 C108 1.380 . S
C105 C109 1.374 . S
C105 C111 1.507 . S
C106 C107 1.387 . S
C106 C110 1.391 . S
C107 C106 1.387 . S
C107 C108 1.384 . S
C107 H116 0.930 . S
C108 C105 1.380 . S
C108 C107 1.384 . S
C108 H117 0.931 . S
C109 C105 1.374 . S
C109 C110 1.390 . S
C109 H118 0.930 . S
C110 C106 1.391 . S
C110 C109 1.390 . S
C110 H119 0.930 . S
C111 Eu81 2.825 . S
C111 O96 1.238 . S
C111 O97 1.247 . S
C111 C105 1.507 . S
H112 C85 0.930 . S
H113 C86 0.931 . S
H114 C87 0.930 . S
H115 C88 0.930 . S
H116 C107 0.930 . S
H117 C108 0.931 . S
H118 C109 0.930 . S
H119 C110 0.930 . S
O120 Cd121 2.300 . S
O120 C127 1.275 . S
Cd121 O120 2.300 . S
Cd121 O129 2.381 . S
Cd121 O130 2.378 . S
O122 Cd123 2.385 . S
O122 C127 1.255 1_565 S
Cd123 O122 2.385 . S
Cd123 O124 2.317 . S
O124 Cd123 2.317 . S
O124 C125 1.232 . S
C125 O124 1.232 . S
C125 O126 1.218 . S
O126 C125 1.218 . S
C127 O120 1.275 . S
C127 O122 1.255 1_545 S
C128 O129 1.258 . S
C128 O130 1.256 . S
O129 Cd121 2.381 . S
O129 C128 1.258 . S
O130 Cd121 2.378 . S
O130 C128 1.256 . S
O131 Cd132 2.300 . S
O131 C138 1.275 . S
Cd132 O131 2.300 . S
Cd132 O140 2.381 . S
Cd132 O141 2.378 . S
O133 Cd134 2.385 . S
O133 C138 1.255 . S
Cd134 O133 2.385 . S
Cd134 O135 2.317 . S
O135 Cd134 2.317 . S
O135 C136 1.232 . S
C136 O135 1.232 . S
C136 O137 1.218 . S
O137 C136 1.218 . S
C138 O131 1.275 . S
C138 O133 1.255 . S
C139 O140 1.258 . S
C139 O141 1.256 . S
O140 Cd132 2.381 . S
O140 C139 1.258 . S
O141 Cd132 2.378 . S
O141 C139 1.256 . S
O142 Cd143 2.300 . S
O142 C149 1.275 . S
Cd143 O142 2.300 . S
Cd143 O151 2.381 . S
Cd143 O152 2.378 . S
O144 Cd145 2.385 . S
O144 C149 1.255 1_655 S
Cd145 O144 2.385 . S
Cd145 O146 2.317 . S
O146 Cd145 2.317 . S
O146 C147 1.232 . S
C147 O146 1.232 . S
C147 O148 1.218 . S
O148 C147 1.218 . S
C149 O142 1.275 . S
C149 O144 1.255 1_455 S
C150 O151 1.258 . S
C150 O152 1.256 . S
O151 Cd143 2.381 . S
O151 C150 1.258 . S
O152 Cd143 2.378 . S
O152 C150 1.256 . S
O153 Cd154 2.300 . S
O153 C160 1.275 1_455 S
Cd154 O153 2.300 . S
Cd154 O162 2.381 . S
Cd154 O163 2.378 . S
O155 Cd156 2.385 . S
O155 C160 1.255 . S
Cd156 O155 2.385 . S
Cd156 O157 2.317 . S
O157 Cd156 2.317 . S
O157 C158 1.232 . S
C158 O157 1.232 . S
C158 O159 1.218 . S
O159 C158 1.218 . S
C160 O153 1.275 1_655 S
C160 O155 1.255 . S
C161 O162 1.258 . S
C161 O163 1.256 . S
O162 Cd154 2.381 . S
O162 C161 1.258 . S
O163 Cd154 2.378 . S
O163 C161 1.256 . S
O164 Cd165 2.300 . S
O164 C171 1.275 1_565 S
Cd165 O164 2.300 . S
Cd165 O173 2.381 . S
Cd165 O174 2.378 . S
O166 Cd167 2.385 . S
O166 C171 1.255 . S
Cd167 O166 2.385 . S
Cd167 O168 2.317 . S
O168 Cd167 2.317 . S
O168 C169 1.232 . S
C169 O168 1.232 . S
C169 O170 1.218 . S
O170 C169 1.218 . S
C171 O164 1.275 1_545 S
C171 O166 1.255 . S
C172 O173 1.258 . S
C172 O174 1.256 . S
O173 Cd165 2.381 . S
O173 C172 1.258 . S
O174 Cd165 2.378 . S
O174 C172 1.256 . S
O175 Cd176 2.300 . S
O175 C182 1.275 . S
Cd176 O175 2.300 . S
Cd176 O184 2.381 . S
Cd176 O185 2.378 . S
O177 Cd178 2.385 . S
O177 C182 1.255 . S
Cd178 O177 2.385 . S
Cd178 O179 2.317 . S
O179 Cd178 2.317 . S
O179 C180 1.232 . S
C180 O179 1.232 . S
C180 O181 1.218 . S
O181 C180 1.218 . S
C182 O175 1.275 . S
C182 O177 1.255 . S
C183 O184 1.258 . S
C183 O185 1.256 . S
O184 Cd176 2.381 . S
O184 C183 1.258 . S
O185 Cd176 2.378 . S
O185 C183 1.256 . S
C186 C187 1.369 . S
C186 C188 1.419 . S
C186 H190 0.930 . S
C187 C186 1.369 . S
C187 C196 1.429 . S
C188 C186 1.419 . S
C188 C189 1.363 . S
C188 H191 0.929 . S
C189 C188 1.363 . S
C189 C195 1.428 . S
H190 C186 0.930 . S
H191 C188 0.929 . S
S192 N193 1.613 . S
S192 N194 1.610 . S
N193 S192 1.613 . S
N193 C196 1.350 . S
N194 S192 1.610 . S
N194 C195 1.351 . S
C195 C189 1.428 . S
C195 N194 1.351 . S
C195 C196 1.434 . S
C196 C187 1.429 . S
C196 N193 1.350 . S
C196 C195 1.434 . S
C197 C198 1.369 . S
C197 C199 1.419 . S
C197 H201 0.930 . S
C198 C197 1.369 . S
C198 C207 1.429 . S
C199 C197 1.419 . S
C199 C200 1.363 . S
C199 H202 0.929 . S
C200 C199 1.363 . S
C200 C206 1.428 . S
H201 C197 0.930 . S
H202 C199 0.929 . S
S203 N204 1.613 . S
S203 N205 1.610 . S
N204 S203 1.613 . S
N204 C207 1.350 . S
N205 S203 1.610 . S
N205 C206 1.351 . S
C206 C200 1.428 . S
C206 N205 1.351 . S
C206 C207 1.434 . S
C207 C198 1.429 . S
C207 N204 1.350 . S
C207 C206 1.434 . S
C208 C209 1.369 . S
C208 C210 1.419 . S
C208 H212 0.930 . S
C209 C208 1.369 . S
C209 C218 1.429 . S
C210 C208 1.419 . S
C210 C211 1.363 . S
C210 H213 0.929 . S
C211 C210 1.363 . S
C211 C217 1.428 . S
H212 C208 0.930 . S
H213 C210 0.929 . S
S214 N215 1.613 . S
S214 N216 1.610 . S
N215 S214 1.613 . S
N215 C218 1.350 . S
N216 S214 1.610 . S
N216 C217 1.351 . S
C217 C211 1.428 . S
C217 N216 1.351 . S
C217 C218 1.434 . S
C218 C209 1.429 . S
C218 N215 1.350 . S
C218 C217 1.434 . S
C219 C220 1.369 . S
C219 C221 1.419 . S
C219 H223 0.930 . S
C220 C219 1.369 . S
C220 C229 1.429 . S
C221 C219 1.419 . S
C221 C222 1.363 . S
C221 H224 0.929 . S
C222 C221 1.363 . S
C222 C228 1.428 . S
H223 C219 0.930 . S
H224 C221 0.929 . S
S225 N226 1.613 . S
S225 N227 1.610 . S
N226 S225 1.613 . S
N226 C229 1.350 . S
N227 S225 1.610 . S
N227 C228 1.351 . S
C228 C222 1.428 . S
C228 N227 1.351 . S
C228 C229 1.434 . S
C229 C220 1.429 . S
C229 N226 1.350 . S
C229 C228 1.434 . S
C230 C231 1.369 . S
C230 C232 1.419 . S
C230 H234 0.930 . S
C231 C230 1.369 . S
C231 C240 1.429 . S
C232 C230 1.419 . S
C232 C233 1.363 . S
C232 H235 0.929 . S
C233 C232 1.363 . S
C233 C239 1.428 . S
H234 C230 0.930 . S
H235 C232 0.929 . S
S236 N237 1.613 . S
S236 N238 1.610 . S
N237 S236 1.613 . S
N237 C240 1.350 . S
N238 S236 1.610 . S
N238 C239 1.351 . S
C239 C233 1.428 . S
C239 N238 1.351 . S
C239 C240 1.434 . S
C240 C231 1.429 . S
C240 N237 1.350 . S
C240 C239 1.434 . S
C241 C242 1.369 . S
C241 C243 1.419 . S
C241 H245 0.930 . S
C242 C241 1.369 . S
C242 C251 1.429 . S
C243 C241 1.419 . S
C243 C244 1.363 . S
C243 H246 0.929 . S
C244 C243 1.363 . S
C244 C250 1.428 . S
H245 C241 0.930 . S
H246 C243 0.929 . S
S247 N248 1.613 . S
S247 N249 1.610 . S
N248 S247 1.613 . S
N248 C251 1.350 . S
N249 S247 1.610 . S
N249 C250 1.351 . S
C250 C244 1.428 . S
C250 N249 1.351 . S
C250 C251 1.434 . S
C251 C242 1.429 . S
C251 N248 1.350 . S
C251 C250 1.434 . S
C252 C253 1.369 . S
C252 C254 1.419 . S
C252 H256 0.930 . S
C253 C252 1.369 . S
C253 C262 1.429 . S
C254 C252 1.419 . S
C254 C255 1.363 . S
C254 H257 0.929 . S
C255 C254 1.363 . S
C255 C261 1.428 . S
H256 C252 0.930 . S
H257 C254 0.929 . S
S258 N259 1.613 . S
S258 N260 1.610 . S
N259 S258 1.613 . S
N259 C262 1.350 . S
N260 S258 1.610 . S
N260 C261 1.351 . S
C261 C255 1.428 . S
C261 N260 1.351 . S
C261 C262 1.434 . S
C262 C253 1.429 . S
C262 N259 1.350 . S
C262 C261 1.434 . S
C263 C264 1.369 . S
C263 C265 1.419 . S
C263 H267 0.930 . S
C264 C263 1.369 . S
C264 C273 1.429 . S
C265 C263 1.419 . S
C265 C266 1.363 . S
C265 H268 0.929 . S
C266 C265 1.363 . S
C266 C272 1.428 . S
H267 C263 0.930 . S
H268 C265 0.929 . S
S269 N270 1.613 . S
S269 N271 1.610 . S
N270 S269 1.613 . S
N270 C273 1.350 . S
N271 S269 1.610 . S
N271 C272 1.351 . S
C272 C266 1.428 . S
C272 N271 1.351 . S
C272 C273 1.434 . S
C273 C264 1.429 . S
C273 N270 1.350 . S
C273 C272 1.434 . S
C274 C275 1.369 . S
C274 C276 1.419 . S
C274 H278 0.930 . S
C275 C274 1.369 . S
C275 C284 1.429 . S
C276 C274 1.419 . S
C276 C277 1.363 . S
C276 H279 0.929 . S
C277 C276 1.363 . S
C277 C283 1.428 . S
H278 C274 0.930 . S
H279 C276 0.929 . S
S280 N281 1.613 . S
S280 N282 1.610 . S
N281 S280 1.613 . S
N281 C284 1.350 . S
N282 S280 1.610 . S
N282 C283 1.351 . S
C283 C277 1.428 . S
C283 N282 1.351 . S
C283 C284 1.434 . S
C284 C275 1.429 . S
C284 N281 1.350 . S
C284 C283 1.434 . S
C285 C286 1.369 . S
C285 C287 1.419 . S
C285 H289 0.930 . S
C286 C285 1.369 . S
C286 C295 1.429 . S
C287 C285 1.419 . S
C287 C288 1.363 . S
C287 H290 0.929 . S
C288 C287 1.363 . S
C288 C294 1.428 . S
H289 C285 0.930 . S
H290 C287 0.929 . S
S291 N292 1.613 . S
S291 N293 1.610 . S
N292 S291 1.613 . S
N292 C295 1.350 . S
N293 S291 1.610 . S
N293 C294 1.351 . S
C294 C288 1.428 . S
C294 N293 1.351 . S
C294 C295 1.434 . S
C295 C286 1.429 . S
C295 N292 1.350 . S
C295 C294 1.434 . S
C296 C297 1.369 . S
C296 C298 1.419 . S
C296 H300 0.930 . S
C297 C296 1.369 . S
C297 C306 1.429 . S
C298 C296 1.419 . S
C298 C299 1.363 . S
C298 H301 0.929 . S
C299 C298 1.363 . S
C299 C305 1.428 . S
H300 C296 0.930 . S
H301 C298 0.929 . S
S302 N303 1.613 . S
S302 N304 1.610 . S
N303 S302 1.613 . S
N303 C306 1.350 . S
N304 S302 1.610 . S
N304 C305 1.351 . S
C305 C299 1.428 . S
C305 N304 1.351 . S
C305 C306 1.434 . S
C306 C297 1.429 . S
C306 N303 1.350 . S
C306 C305 1.434 . S
C307 C308 1.369 . S
C307 C309 1.419 . S
C307 H311 0.930 . S
C308 C307 1.369 . S
C308 C317 1.429 . S
C309 C307 1.419 . S
C309 C310 1.363 . S
C309 H312 0.929 . S
C310 C309 1.363 . S
C310 C316 1.428 . S
H311 C307 0.930 . S
H312 C309 0.929 . S
S313 N314 1.613 . S
S313 N315 1.610 . S
N314 S313 1.613 . S
N314 C317 1.350 . S
N315 S313 1.610 . S
N315 C316 1.351 . S
C316 C310 1.428 . S
C316 N315 1.351 . S
C316 C317 1.434 . S
C317 C308 1.429 . S
C317 N314 1.350 . S
C317 C316 1.434 . S
C318 C319 1.369 . S
C318 C320 1.419 . S
C318 H322 0.930 . S
C319 C318 1.369 . S
C319 C328 1.429 1_455 S
C320 C318 1.419 . S
C320 C321 1.363 1_554 S
C320 H323 0.929 1_554 S
C321 C320 1.363 1_556 S
C321 C327 1.428 1_456 S
H322 C318 0.930 . S
H323 C320 0.929 1_556 S
S324 N325 1.613 . S
S324 N326 1.610 1_554 S
N325 S324 1.613 . S
N325 C328 1.350 . S
N326 S324 1.610 1_556 S
N326 C327 1.351 1_556 S
C327 C321 1.428 1_654 S
C327 N326 1.351 1_554 S
C327 C328 1.434 . S
C328 C319 1.429 1_655 S
C328 N325 1.350 . S
C328 C327 1.434 . S
C329 C330 1.375 . S
C329 C331 1.417 1_545 S
C329 H333 0.925 1_545 S
C330 C329 1.375 . S
C330 C339 1.429 . S
C331 C329 1.417 1_565 S
C331 C332 1.363 1_565 S
C331 H334 0.929 . S
C332 C331 1.363 1_545 S
C332 C338 1.428 . S
H333 C329 0.925 1_565 S
H334 C331 0.929 . S
S335 N336 1.613 . S
S335 N337 1.610 . S
N336 S335 1.613 . S
N336 C339 1.350 . S
N337 S335 1.610 . S
N337 C338 1.351 . S
C338 C332 1.428 . S
C338 N337 1.351 . S
C338 C339 1.434 . S
C339 C330 1.429 . S
C339 N336 1.350 . S
C339 C338 1.434 . S
C340 C341 1.369 . S
C340 C342 1.419 . S
C340 H344 0.930 . S
C341 C340 1.369 . S
C341 C350 1.429 . S
C342 C340 1.419 . S
C342 C343 1.363 . S
C342 H345 0.929 . S
C343 C342 1.363 . S
C343 C349 1.428 . S
H344 C340 0.930 . S
H345 C342 0.929 . S
S346 N347 1.613 . S
S346 N348 1.610 . S
N347 S346 1.613 . S
N347 C350 1.350 . S
N348 S346 1.610 . S
N348 C349 1.351 . S
C349 C343 1.428 . S
C349 N348 1.351 . S
C349 C350 1.434 . S
C350 C341 1.429 . S
C350 N347 1.350 . S
C350 C349 1.434 . S
C351 C352 1.369 1_565 S
C351 C353 1.419 . S
C351 H355 0.930 . S
C352 C351 1.369 1_545 S
C352 C361 1.429 . S
C353 C351 1.419 . S
C353 C354 1.363 1_565 S
C353 H356 0.929 . S
C354 C353 1.363 1_545 S
C354 C360 1.428 . S
H355 C351 0.930 . S
H356 C353 0.929 . S
S357 N358 1.613 . S
S357 N359 1.610 . S
N358 S357 1.613 . S
N358 C361 1.350 . S
N359 S357 1.610 . S
N359 C360 1.351 . S
C360 C354 1.428 . S
C360 N359 1.351 . S
C360 C361 1.434 . S
C361 C352 1.429 . S
C361 N358 1.350 . S
C361 C360 1.434 . S
C362 C363 1.369 . S
C362 C364 1.419 1_556 S
C362 H366 0.930 . S
C363 C362 1.369 . S
C363 C372 1.429 . S
C364 C362 1.419 1_554 S
C364 C365 1.363 . S
C364 H367 0.929 . S
C365 C364 1.363 . S
C365 C371 1.428 1_554 S
H366 C362 0.930 . S
H367 C364 0.929 . S
S368 N369 1.613 . S
S368 N370 1.610 . S
N369 S368 1.613 . S
N369 C372 1.350 . S
N370 S368 1.610 . S
N370 C371 1.351 . S
C371 C365 1.428 1_556 S
C371 N370 1.351 . S
C371 C372 1.434 . S
C372 C363 1.429 . S
C372 N369 1.350 . S
C372 C371 1.434 . S
C373 C374 1.369 1_655 S
C373 C375 1.419 . S
C373 H377 0.930 . S
C374 C373 1.369 1_455 S
C374 C383 1.429 . S
C375 C373 1.419 . S
C375 C376 1.363 . S
C375 H378 0.929 . S
C376 C375 1.363 . S
C376 C382 1.428 1_655 S
H377 C373 0.930 . S
H378 C375 0.929 . S
S379 N380 1.613 . S
S379 N381 1.610 . S
N380 S379 1.613 . S
N380 C383 1.350 . S
N381 S379 1.610 . S
N381 C382 1.351 . S
C382 C376 1.428 1_455 S
C382 N381 1.351 . S
C382 C383 1.434 . S
C383 C374 1.429 . S
C383 N380 1.350 . S
C383 C382 1.434 . S
C187 C9 0.731 . S
C189 C180 0.763 . S
C198 C49 0.602 . S
C200 C158 0.653 . S
C209 C89 0.374 . S
C211 C172 0.392 . S
C220 C26 0.565 . S
C222 C183 0.501 . S
C233 C161 0.455 . S
C231 C66 0.616 . S
C244 C169 0.753 . S
C242 C106 0.771 . S
C253 C43 3.170 . S
C255 C136 2.819 . S
C264 C83 3.241 . S
C266 C147 2.875 . S
C275 C22 3.275 . S
C277 C125 2.894 . S
C288 C139 2.971 . S
C286 C62 3.066 . S
C299 C150 2.892 . S
C297 C102 2.976 . S
C308 C3 2.942 . S
C310 C128 2.863 . S
C321 C149 1.695 . S
C319 C15 1.710 . S
C330 C55 1.723 . S
C332 C127 1.697 . S
C341 C95 1.771 . S
C343 C138 1.703 . S
C354 C171 1.079 . S
C352 C42 1.127 . S
C365 C182 1.097 . S
C363 C82 1.159 . S
C374 C2 1.155 . S
C376 C160 1.108 . S
