# Generated by pormake.
# Topology gar, (4,6)-cn, num edge types: 1
# Building blocks:
#     Node 0, Type 0, BuildingBlock: UXUYUI_clean_sbu_0, # of connection points: 4
#     Node 1, Type 0, BuildingBlock: UXUYUI_clean_sbu_0, # of connection points: 4
#     Node 2, Type 0, BuildingBlock: UXUYUI_clean_sbu_0, # of connection points: 4
#     Node 3, Type 0, BuildingBlock: UXUYUI_clean_sbu_0, # of connection points: 4
#     Node 4, Type 0, BuildingBlock: UXUYUI_clean_sbu_0, # of connection points: 4
#     Node 5, Type 0, BuildingBlock: UXUYUI_clean_sbu_0, # of connection points: 4
#     Node 6, Type 0, BuildingBlock: UXUYUI_clean_sbu_0, # of connection points: 4
#     Node 7, Type 0, BuildingBlock: UXUYUI_clean_sbu_0, # of connection points: 4
#     Node 8, Type 0, BuildingBlock: UXUYUI_clean_sbu_0, # of connection points: 4
#     Node 9, Type 0, BuildingBlock: UXUYUI_clean_sbu_0, # of connection points: 4
#     Node 10, Type 0, BuildingBlock: UXUYUI_clean_sbu_0, # of connection points: 4
#     Node 11, Type 0, BuildingBlock: UXUYUI_clean_sbu_0, # of connection points: 4
#     Node 12, Type 0, BuildingBlock: UXUYUI_clean_sbu_0, # of connection points: 4
#     Node 13, Type 0, BuildingBlock: UXUYUI_clean_sbu_0, # of connection points: 4
#     Node 14, Type 0, BuildingBlock: UXUYUI_clean_sbu_0, # of connection points: 4
#     Node 15, Type 0, BuildingBlock: UXUYUI_clean_sbu_0, # of connection points: 4
#     Node 16, Type 0, BuildingBlock: UXUYUI_clean_sbu_0, # of connection points: 4
#     Node 17, Type 0, BuildingBlock: UXUYUI_clean_sbu_0, # of connection points: 4
#     Node 18, Type 0, BuildingBlock: UXUYUI_clean_sbu_0, # of connection points: 4
#     Node 19, Type 0, BuildingBlock: UXUYUI_clean_sbu_0, # of connection points: 4
#     Node 20, Type 0, BuildingBlock: UXUYUI_clean_sbu_0, # of connection points: 4
#     Node 21, Type 0, BuildingBlock: UXUYUI_clean_sbu_0, # of connection points: 4
#     Node 22, Type 0, BuildingBlock: UXUYUI_clean_sbu_0, # of connection points: 4
#     Node 23, Type 0, BuildingBlock: UXUYUI_clean_sbu_0, # of connection points: 4
#     Node 24, Type 1, BuildingBlock: BETGAK_clean_sbu_0, # of connection points: 6
#     Node 25, Type 1, BuildingBlock: BETGAK_clean_sbu_0, # of connection points: 6
#     Node 26, Type 1, BuildingBlock: BETGAK_clean_sbu_0, # of connection points: 6
#     Node 27, Type 1, BuildingBlock: BETGAK_clean_sbu_0, # of connection points: 6
#     Node 28, Type 1, BuildingBlock: BETGAK_clean_sbu_0, # of connection points: 6
#     Node 29, Type 1, BuildingBlock: BETGAK_clean_sbu_0, # of connection points: 6
#     Node 30, Type 1, BuildingBlock: BETGAK_clean_sbu_0, # of connection points: 6
#     Node 31, Type 1, BuildingBlock: BETGAK_clean_sbu_0, # of connection points: 6
#     Node 32, Type 1, BuildingBlock: BETGAK_clean_sbu_0, # of connection points: 6
#     Node 33, Type 1, BuildingBlock: BETGAK_clean_sbu_0, # of connection points: 6
#     Node 34, Type 1, BuildingBlock: BETGAK_clean_sbu_0, # of connection points: 6
#     Node 35, Type 1, BuildingBlock: BETGAK_clean_sbu_0, # of connection points: 6
#     Node 36, Type 1, BuildingBlock: BETGAK_clean_sbu_0, # of connection points: 6
#     Node 37, Type 1, BuildingBlock: BETGAK_clean_sbu_0, # of connection points: 6
#     Node 38, Type 1, BuildingBlock: BETGAK_clean_sbu_0, # of connection points: 6
#     Node 39, Type 1, BuildingBlock: BETGAK_clean_sbu_0, # of connection points: 6
#     Edge 40, Type (0, 1), BuildingBlock: EZIPEK_clean_linker_0, # of connection points: 2
#     Edge 41, Type (0, 1), BuildingBlock: EZIPEK_clean_linker_0, # of connection points: 2
#     Edge 42, Type (0, 1), BuildingBlock: EZIPEK_clean_linker_0, # of connection points: 2
#     Edge 43, Type (0, 1), BuildingBlock: EZIPEK_clean_linker_0, # of connection points: 2
#     Edge 44, Type (0, 1), BuildingBlock: EZIPEK_clean_linker_0, # of connection points: 2
#     Edge 45, Type (0, 1), BuildingBlock: EZIPEK_clean_linker_0, # of connection points: 2
#     Edge 46, Type (0, 1), BuildingBlock: EZIPEK_clean_linker_0, # of connection points: 2
#     Edge 47, Type (0, 1), BuildingBlock: EZIPEK_clean_linker_0, # of connection points: 2
#     Edge 48, Type (0, 1), BuildingBlock: EZIPEK_clean_linker_0, # of connection points: 2
#     Edge 49, Type (0, 1), BuildingBlock: EZIPEK_clean_linker_0, # of connection points: 2
#     Edge 50, Type (0, 1), BuildingBlock: EZIPEK_clean_linker_0, # of connection points: 2
#     Edge 51, Type (0, 1), BuildingBlock: EZIPEK_clean_linker_0, # of connection points: 2
#     Edge 52, Type (0, 1), BuildingBlock: EZIPEK_clean_linker_0, # of connection points: 2
#     Edge 53, Type (0, 1), BuildingBlock: EZIPEK_clean_linker_0, # of connection points: 2
#     Edge 54, Type (0, 1), BuildingBlock: EZIPEK_clean_linker_0, # of connection points: 2
#     Edge 55, Type (0, 1), BuildingBlock: EZIPEK_clean_linker_0, # of connection points: 2
#     Edge 56, Type (0, 1), BuildingBlock: EZIPEK_clean_linker_0, # of connection points: 2
#     Edge 57, Type (0, 1), BuildingBlock: EZIPEK_clean_linker_0, # of connection points: 2
#     Edge 58, Type (0, 1), BuildingBlock: EZIPEK_clean_linker_0, # of connection points: 2
#     Edge 59, Type (0, 1), BuildingBlock: EZIPEK_clean_linker_0, # of connection points: 2
#     Edge 60, Type (0, 1), BuildingBlock: EZIPEK_clean_linker_0, # of connection points: 2
#     Edge 61, Type (0, 1), BuildingBlock: EZIPEK_clean_linker_0, # of connection points: 2
#     Edge 62, Type (0, 1), BuildingBlock: EZIPEK_clean_linker_0, # of connection points: 2
#     Edge 63, Type (0, 1), BuildingBlock: EZIPEK_clean_linker_0, # of connection points: 2
#     Edge 64, Type (0, 1), BuildingBlock: EZIPEK_clean_linker_0, # of connection points: 2
#     Edge 65, Type (0, 1), BuildingBlock: EZIPEK_clean_linker_0, # of connection points: 2
#     Edge 66, Type (0, 1), BuildingBlock: EZIPEK_clean_linker_0, # of connection points: 2
#     Edge 67, Type (0, 1), BuildingBlock: EZIPEK_clean_linker_0, # of connection points: 2
#     Edge 68, Type (0, 1), BuildingBlock: EZIPEK_clean_linker_0, # of connection points: 2
#     Edge 69, Type (0, 1), BuildingBlock: EZIPEK_clean_linker_0, # of connection points: 2
#     Edge 70, Type (0, 1), BuildingBlock: EZIPEK_clean_linker_0, # of connection points: 2
#     Edge 71, Type (0, 1), BuildingBlock: EZIPEK_clean_linker_0, # of connection points: 2
#     Edge 72, Type (0, 1), BuildingBlock: EZIPEK_clean_linker_0, # of connection points: 2
#     Edge 73, Type (0, 1), BuildingBlock: EZIPEK_clean_linker_0, # of connection points: 2
#     Edge 74, Type (0, 1), BuildingBlock: EZIPEK_clean_linker_0, # of connection points: 2
#     Edge 75, Type (0, 1), BuildingBlock: EZIPEK_clean_linker_0, # of connection points: 2
#     Edge 76, Type (0, 1), BuildingBlock: EZIPEK_clean_linker_0, # of connection points: 2
#     Edge 77, Type (0, 1), BuildingBlock: EZIPEK_clean_linker_0, # of connection points: 2
#     Edge 78, Type (0, 1), BuildingBlock: EZIPEK_clean_linker_0, # of connection points: 2
#     Edge 79, Type (0, 1), BuildingBlock: EZIPEK_clean_linker_0, # of connection points: 2
#     Edge 80, Type (0, 1), BuildingBlock: EZIPEK_clean_linker_0, # of connection points: 2
#     Edge 81, Type (0, 1), BuildingBlock: EZIPEK_clean_linker_0, # of connection points: 2
#     Edge 82, Type (0, 1), BuildingBlock: EZIPEK_clean_linker_0, # of connection points: 2
#     Edge 83, Type (0, 1), BuildingBlock: EZIPEK_clean_linker_0, # of connection points: 2
#     Edge 84, Type (0, 1), BuildingBlock: EZIPEK_clean_linker_0, # of connection points: 2
#     Edge 85, Type (0, 1), BuildingBlock: EZIPEK_clean_linker_0, # of connection points: 2
#     Edge 86, Type (0, 1), BuildingBlock: EZIPEK_clean_linker_0, # of connection points: 2
#     Edge 87, Type (0, 1), BuildingBlock: EZIPEK_clean_linker_0, # of connection points: 2
#     Edge 88, Type (0, 1), BuildingBlock: EZIPEK_clean_linker_0, # of connection points: 2
#     Edge 89, Type (0, 1), BuildingBlock: EZIPEK_clean_linker_0, # of connection points: 2
#     Edge 90, Type (0, 1), BuildingBlock: EZIPEK_clean_linker_0, # of connection points: 2
#     Edge 91, Type (0, 1), BuildingBlock: EZIPEK_clean_linker_0, # of connection points: 2
#     Edge 92, Type (0, 1), BuildingBlock: EZIPEK_clean_linker_0, # of connection points: 2
#     Edge 93, Type (0, 1), BuildingBlock: EZIPEK_clean_linker_0, # of connection points: 2
#     Edge 94, Type (0, 1), BuildingBlock: EZIPEK_clean_linker_0, # of connection points: 2
#     Edge 95, Type (0, 1), BuildingBlock: EZIPEK_clean_linker_0, # of connection points: 2
#     Edge 96, Type (0, 1), BuildingBlock: EZIPEK_clean_linker_0, # of connection points: 2
#     Edge 97, Type (0, 1), BuildingBlock: EZIPEK_clean_linker_0, # of connection points: 2
#     Edge 98, Type (0, 1), BuildingBlock: EZIPEK_clean_linker_0, # of connection points: 2
#     Edge 99, Type (0, 1), BuildingBlock: EZIPEK_clean_linker_0, # of connection points: 2
#     Edge 100, Type (0, 1), BuildingBlock: EZIPEK_clean_linker_0, # of connection points: 2
#     Edge 101, Type (0, 1), BuildingBlock: EZIPEK_clean_linker_0, # of connection points: 2
#     Edge 102, Type (0, 1), BuildingBlock: EZIPEK_clean_linker_0, # of connection points: 2
#     Edge 103, Type (0, 1), BuildingBlock: EZIPEK_clean_linker_0, # of connection points: 2
#     Edge 104, Type (0, 1), BuildingBlock: EZIPEK_clean_linker_0, # of connection points: 2
#     Edge 105, Type (0, 1), BuildingBlock: EZIPEK_clean_linker_0, # of connection points: 2
#     Edge 106, Type (0, 1), BuildingBlock: EZIPEK_clean_linker_0, # of connection points: 2
#     Edge 107, Type (0, 1), BuildingBlock: EZIPEK_clean_linker_0, # of connection points: 2
#     Edge 108, Type (0, 1), BuildingBlock: EZIPEK_clean_linker_0, # of connection points: 2
#     Edge 109, Type (0, 1), BuildingBlock: EZIPEK_clean_linker_0, # of connection points: 2
#     Edge 110, Type (0, 1), BuildingBlock: EZIPEK_clean_linker_0, # of connection points: 2
#     Edge 111, Type (0, 1), BuildingBlock: EZIPEK_clean_linker_0, # of connection points: 2
#     Edge 112, Type (0, 1), BuildingBlock: EZIPEK_clean_linker_0, # of connection points: 2
#     Edge 113, Type (0, 1), BuildingBlock: EZIPEK_clean_linker_0, # of connection points: 2
#     Edge 114, Type (0, 1), BuildingBlock: EZIPEK_clean_linker_0, # of connection points: 2
#     Edge 115, Type (0, 1), BuildingBlock: EZIPEK_clean_linker_0, # of connection points: 2
#     Edge 116, Type (0, 1), BuildingBlock: EZIPEK_clean_linker_0, # of connection points: 2
#     Edge 117, Type (0, 1), BuildingBlock: EZIPEK_clean_linker_0, # of connection points: 2
#     Edge 118, Type (0, 1), BuildingBlock: EZIPEK_clean_linker_0, # of connection points: 2
#     Edge 119, Type (0, 1), BuildingBlock: EZIPEK_clean_linker_0, # of connection points: 2
#     Edge 120, Type (0, 1), BuildingBlock: EZIPEK_clean_linker_0, # of connection points: 2
#     Edge 121, Type (0, 1), BuildingBlock: EZIPEK_clean_linker_0, # of connection points: 2
#     Edge 122, Type (0, 1), BuildingBlock: EZIPEK_clean_linker_0, # of connection points: 2
#     Edge 123, Type (0, 1), BuildingBlock: EZIPEK_clean_linker_0, # of connection points: 2
#     Edge 124, Type (0, 1), BuildingBlock: EZIPEK_clean_linker_0, # of connection points: 2
#     Edge 125, Type (0, 1), BuildingBlock: EZIPEK_clean_linker_0, # of connection points: 2
#     Edge 126, Type (0, 1), BuildingBlock: EZIPEK_clean_linker_0, # of connection points: 2
#     Edge 127, Type (0, 1), BuildingBlock: EZIPEK_clean_linker_0, # of connection points: 2
#     Edge 128, Type (0, 1), BuildingBlock: EZIPEK_clean_linker_0, # of connection points: 2
#     Edge 129, Type (0, 1), BuildingBlock: EZIPEK_clean_linker_0, # of connection points: 2
#     Edge 130, Type (0, 1), BuildingBlock: EZIPEK_clean_linker_0, # of connection points: 2
#     Edge 131, Type (0, 1), BuildingBlock: EZIPEK_clean_linker_0, # of connection points: 2
#     Edge 132, Type (0, 1), BuildingBlock: EZIPEK_clean_linker_0, # of connection points: 2
#     Edge 133, Type (0, 1), BuildingBlock: EZIPEK_clean_linker_0, # of connection points: 2
#     Edge 134, Type (0, 1), BuildingBlock: EZIPEK_clean_linker_0, # of connection points: 2
#     Edge 135, Type (0, 1), BuildingBlock: EZIPEK_clean_linker_0, # of connection points: 2
# Relax obj value: 0.234
# Max RMSD: 0.310
# Mean RMSD: 0.203
data_MOF--net-gar--node1-UXUYUI_clean_sbu_0--node2-BETGAK_clean_sbu_0--edge1-EZIPEK_clean_linker_0
_symmetry_space_group_name_H-M    P1
_symmetry_Int_Tables_number       1
_symmetry_cell_setting            triclinic
loop_
_symmetry_equiv_pos_as_xyz
'x, y, z'
_cell_length_a     60.577625
_cell_length_b     55.720963
_cell_length_c     55.983776
_cell_angle_alpha  99.323371
_cell_angle_beta   95.433648
_cell_angle_gamma 102.7569
loop_
_atom_site_label
_atom_site_type_symbol
_atom_site_fract_x
_atom_site_fract_y
_atom_site_fract_z
_atom_type_partial_charge
Li0 Li 0.10262 0.33886 0.36746 0.0
Li1 Li 0.12566 0.3679 0.40352 0.0
Li2 Li 0.14325 0.34183 0.37306 0.0
Li3 Li 0.11852 0.32214 0.40225 0.0
C4 C 0.12661 0.38381 0.35167 0.0
N5 N 0.12302 0.41372 0.31734 0.0
C6 C 0.1225 0.40755 0.35851 0.0
C7 C 0.12923 0.37544 0.32743 0.0
C8 C 0.12064 0.42233 0.34088 0.0
C9 C 0.12728 0.39082 0.31033 0.0
C10 C 0.08112 0.34554 0.41715 0.0
C11 C 0.07136 0.3504 0.45811 0.0
N12 N 0.0497 0.35046 0.44914 0.0
C13 C 0.05881 0.34566 0.40834 0.0
C14 C 0.08751 0.3479 0.44222 0.0
C15 C 0.04315 0.34816 0.42479 0.0
C16 C 0.06112 0.31012 0.34337 0.0
N17 N 0.07597 0.33279 0.34542 0.0
C18 C 0.04854 0.34775 0.32249 0.0
C19 C 0.07027 0.35138 0.33504 0.0
C20 C 0.03267 0.32498 0.32112 0.0
C21 C 0.03916 0.30569 0.33101 0.0
H22 H 0.06585 0.29609 0.35268 0.0
H23 H 0.08191 0.36953 0.33779 0.0
C24 C 0.14299 0.4127 0.4408 0.0
N25 N 0.12572 0.39847 0.42355 0.0
C26 C 0.13972 0.43396 0.45577 0.0
C27 C 0.1014 0.42564 0.43428 0.0
C28 C 0.10542 0.40479 0.41979 0.0
C29 C 0.11855 0.4402 0.45263 0.0
H30 H 0.15903 0.40734 0.44322 0.0
H31 H 0.09222 0.39337 0.40558 0.0
C32 C 0.11053 0.29114 0.34833 0.0
N33 N 0.09561 0.25021 0.31074 0.0
C34 C 0.10432 0.26704 0.3535 0.0
C35 C 0.10925 0.29447 0.32408 0.0
C36 C 0.09685 0.24657 0.33423 0.0
C37 C 0.10156 0.27352 0.30532 0.0
C38 C 0.16593 0.35226 0.42832 0.0
C39 C 0.18771 0.35066 0.42303 0.0
C40 C 0.16239 0.35896 0.45255 0.0
C41 C 0.20568 0.35594 0.44213 0.0
C42 C 0.18084 0.36421 0.47113 0.0
N43 N 0.20191 0.3626 0.46558 0.0
C44 C 0.18181 0.35835 0.34926 0.0
C45 C 0.16859 0.31457 0.34734 0.0
C46 C 0.19864 0.35431 0.3347 0.0
N47 N 0.16738 0.33853 0.35529 0.0
C48 C 0.18464 0.30965 0.33234 0.0
C49 C 0.20001 0.32966 0.32612 0.0
H50 H 0.18024 0.37719 0.35577 0.0
H51 H 0.1571 0.29924 0.35272 0.0
C52 C 0.08873 0.28612 0.41979 0.0
N53 N 0.11136 0.29596 0.41972 0.0
C54 C 0.08167 0.26631 0.43178 0.0
C55 C 0.12136 0.26645 0.44262 0.0
C56 C 0.12769 0.28659 0.43069 0.0
C57 C 0.0981 0.25626 0.44326 0.0
H58 H 0.07614 0.29355 0.41033 0.0
H59 H 0.14553 0.29462 0.43 0.0
O60 O 0.12807 0.36897 0.36868 0.0
O61 O 0.09651 0.34291 0.40114 0.0
O62 O 0.11825 0.31129 0.36703 0.0
O63 O 0.14835 0.34767 0.40972 0.0
H64 H 0.12075 0.41452 0.3772 0.0
H65 H 0.13263 0.35724 0.32188 0.0
H66 H 0.11733 0.44066 0.34591 0.0
H67 H 0.12914 0.38455 0.29147 0.0
H68 H 0.07603 0.35224 0.47757 0.0
H69 H 0.05371 0.34387 0.38899 0.0
H70 H 0.10469 0.34771 0.44929 0.0
H71 H 0.0258 0.34827 0.4182 0.0
H72 H 0.04363 0.3631 0.31545 0.0
H73 H 0.02694 0.28817 0.33064 0.0
H74 H 0.15321 0.44501 0.46994 0.0
H75 H 0.08493 0.43011 0.43154 0.0
H76 H 0.10541 0.26415 0.37219 0.0
H77 H 0.11404 0.31302 0.31982 0.0
H78 H 0.09207 0.22779 0.33795 0.0
H79 H 0.10037 0.27579 0.28646 0.0
H80 H 0.19071 0.34547 0.40435 0.0
H81 H 0.14568 0.36041 0.45693 0.0
H82 H 0.22263 0.35481 0.43829 0.0
H83 H 0.17841 0.36963 0.48996 0.0
H84 H 0.21054 0.37008 0.33039 0.0
H85 H 0.18557 0.29046 0.32624 0.0
H86 H 0.06362 0.25878 0.43198 0.0
H87 H 0.13438 0.25897 0.45135 0.0
Li88 Li 1.01286 0.77604 0.63932 0.0
Li89 Li 0.02959 0.76015 0.67377 0.0
Li90 Li 1.00429 0.73059 0.63902 0.0
Li91 Li 0.98878 0.7578 0.66958 0.0
C92 C 0.04942 0.75354 0.62359 0.0
N93 N 0.08096 0.75138 0.5913 0.0
C94 C 0.07277 0.76082 0.63218 0.0
C95 C 0.04205 0.74519 0.59861 0.0
C96 C 0.08846 0.75964 0.61555 0.0
C97 C 0.05829 0.74418 0.58257 0.0
C98 C 0.01971 0.8075 0.69396 0.0
C99 C 0.0224 0.82374 0.73701 0.0
N100 N 0.03157 0.84713 0.73308 0.0
C101 C 0.02902 0.83169 0.6903 0.0
C102 C 0.01627 0.80344 0.71745 0.0
C103 C 0.03496 0.85148 0.71033 0.0
C104 C 1.00367 0.81058 0.61007 0.0
N105 N 0.0201 0.802 0.6219 0.0
C106 C 0.04966 0.83282 0.61126 0.0
C107 C 0.04269 0.8128 0.62298 0.0
C108 C 0.03312 0.84195 0.59882 0.0
C109 C 1.00988 0.83082 0.59831 0.0
H110 H 0.98583 0.80182 0.60997 0.0
H111 H 0.05528 0.80603 0.63322 0.0
C112 C 0.06427 0.74446 0.69763 0.0
N113 N 0.05652 0.765 0.69504 0.0
C114 C 0.08431 0.74679 0.71303 0.0
C115 C 0.08906 0.79153 0.72118 0.0
C116 C 0.06889 0.78832 0.70557 0.0
C117 C 0.09644 0.77046 0.72676 0.0
H118 H 0.05502 0.72627 0.68739 0.0
H119 H 0.0635 0.80454 0.70139 0.0
C120 C 0.96459 0.73978 0.615 0.0
N121 N 0.92818 0.71668 0.57915 0.0
C122 C 0.94396 0.72726 0.62132 0.0
C123 C 0.96675 0.74061 0.5905 0.0
C124 C 0.92574 0.71568 0.6029 0.0
C125 C 0.94813 0.72877 0.57263 0.0
C126 C 1.00651 0.71505 0.6899 0.0
C127 C 1.0019 0.68925 0.68107 0.0
C128 C 1.01377 0.72443 0.71477 0.0
C129 C 1.00497 0.67327 0.69723 0.0
C130 C 0.01677 0.70782 0.73033 0.0
N131 N 1.01235 0.68281 0.72132 0.0
C132 C 0.02411 0.69353 0.62377 0.0
C133 C 0.98592 0.68294 0.60398 0.0
C134 C 0.02865 0.67257 0.61 0.0
N135 N 1.00338 0.69885 0.61997 0.0
C136 C 0.98958 0.66115 0.59012 0.0
C137 C 1.01151 0.65648 0.59249 0.0
H138 H 0.03742 0.70608 0.63717 0.0
H139 H 0.96945 0.68736 0.60159 0.0
C140 C 0.95915 0.7839 0.69007 0.0
N141 N 0.96556 0.76189 0.68847 0.0
C142 C 0.94305 0.78883 0.70516 0.0
C143 C 0.94072 0.74841 0.71683 0.0
C144 C 0.9569 0.74427 0.70149 0.0
C145 C 0.93369 0.77088 0.71859 0.0
H146 H 0.96665 0.79763 0.67968 0.0
H147 H 0.96256 0.72706 0.69995 0.0
O148 O 0.0339 0.75402 0.63975 0.0
O149 O 1.01425 0.78791 0.67457 0.0
O150 O 0.9822 0.75227 0.63283 0.0
O151 O 1.0039 0.73091 0.67415 0.0
H152 H 0.07871 0.76729 0.6515 0.0
H153 H 0.024 0.73936 0.59173 0.0
H154 H 0.1066 0.76523 0.62194 0.0
H155 H 0.05288 0.73762 0.56318 0.0
H156 H 0.0199 0.8209 0.75532 0.0
H157 H 0.03177 0.83512 0.6722 0.0
H158 H 1.009 0.78484 0.72055 0.0
H159 H 0.0423 0.87029 0.7078 0.0
H160 H 0.06769 0.84117 0.61195 0.0
H161 H 0.99681 0.83764 0.58879 0.0
H162 H 0.09027 0.72995 0.7135 0.0
H163 H 0.09863 0.81052 0.72772 0.0
H164 H 0.942 0.72671 0.64026 0.0
H165 H 0.98257 0.75047 0.5854 0.0
H166 H 0.90962 0.70601 0.6075 0.0
H167 H 0.9495 0.72929 0.55358 0.0
H168 H 0.99584 0.68159 0.66197 0.0
H169 H 0.01738 0.74432 0.72191 0.0
H170 H 1.00148 0.65327 0.69062 0.0
H171 H 0.02265 0.71483 0.74958 0.0
H172 H 0.04563 0.6693 0.61251 0.0
H173 H 0.97592 0.6488 0.57692 0.0
H174 H 0.93762 0.80618 0.70601 0.0
H175 H 0.93339 0.73413 0.72675 0.0
Li176 Li 0.60204 0.83902 0.86961 0.0
Li177 Li 0.62599 0.86721 0.90555 0.0
Li178 Li 0.64239 0.84091 0.87465 0.0
Li179 Li 0.61791 0.82131 0.90419 0.0
C180 C 0.62581 0.88258 0.85286 0.0
N181 N 0.62079 0.91042 0.81692 0.0
C182 C 0.62413 0.9074 0.8591 0.0
C183 C 0.62555 0.87218 0.82836 0.0
C184 C 0.62145 0.9211 0.84068 0.0
C185 C 0.62283 0.88648 0.81045 0.0
C186 C 0.5814 0.84846 0.91907 0.0
C187 C 0.57217 0.85859 0.95986 0.0
N188 N 0.55082 0.85919 0.95038 0.0
C189 C 0.55937 0.84916 0.90972 0.0
C190 C 0.58788 0.85316 0.94433 0.0
C191 C 0.54416 0.85461 0.92585 0.0
C192 C 0.56237 0.81032 0.84042 0.0
N193 N 0.57544 0.83407 0.84788 0.0
C194 C 0.54645 0.85094 0.83008 0.0
C195 C 0.56809 0.85426 0.84282 0.0
C196 C 0.53254 0.82665 0.8227 0.0
C197 C 0.54085 0.80609 0.8272 0.0
H198 H 0.56804 0.79474 0.84587 0.0
H199 H 0.57843 0.87296 0.8499 0.0
C200 C 0.64154 0.91001 0.9462 0.0
N201 N 0.62665 0.89787 0.92587 0.0
C202 C 0.63716 0.93085 0.96093 0.0
C203 C 0.60311 0.92664 0.93265 0.0
C204 C 0.60795 0.90596 0.9188 0.0
C205 C 0.6175 0.93894 0.95419 0.0
H206 H 0.65627 0.90314 0.95141 0.0
H207 H 0.5964 0.89577 0.90263 0.0
C208 C 0.61095 0.79036 0.84993 0.0
N209 N 0.59913 0.74908 0.81243 0.0
C210 C 0.60547 0.76622 0.85516 0.0
C211 C 0.61044 0.79349 0.82563 0.0
C212 C 0.59957 0.74559 0.83594 0.0
C213 C 0.60438 0.7724 0.80693 0.0
C214 C 0.6661 0.85139 0.92939 0.0
C215 C 0.68819 0.85274 0.92345 0.0
C216 C 0.66261 0.85528 0.95388 0.0
C217 C 0.70651 0.85822 0.94218 0.0
C218 C 0.68142 0.86095 0.9721 0.0
N219 N 0.70278 0.86225 0.96592 0.0
C220 C 0.68094 0.85798 0.85152 0.0
C221 C 0.66754 0.81399 0.84799 0.0
C222 C 0.698 0.85449 0.83712 0.0
N223 N 0.66633 0.83778 0.8567 0.0
C224 C 0.68357 0.80963 0.83281 0.0
C225 C 0.69926 0.83002 0.82763 0.0
H226 H 0.67942 0.87668 0.85873 0.0
H227 H 0.65616 0.79836 0.85298 0.0
C228 C 0.58905 0.78861 0.92687 0.0
N229 N 0.61083 0.79501 0.92169 0.0
C230 C 0.58235 0.7687 0.93885 0.0
C231 C 0.62039 0.76166 0.93913 0.0
C232 C 0.62649 0.78205 0.92747 0.0
C233 C 0.59809 0.75495 0.94497 0.0
H234 H 0.57676 0.79875 0.92142 0.0
H235 H 0.64357 0.78736 0.92273 0.0
O236 O 0.6279 0.86874 0.87071 0.0
O237 O 0.59637 0.84277 0.90349 0.0
O238 O 0.61683 0.81073 0.86861 0.0
O239 O 0.64806 0.84605 0.9112 0.0
H240 H 0.62505 0.91614 0.87794 0.0
H241 H 0.62748 0.85333 0.82321 0.0
H242 H 0.61997 0.94024 0.84529 0.0
H243 H 0.62239 0.87857 0.79139 0.0
H244 H 0.57695 0.86232 0.97946 0.0
H245 H 0.55401 0.84537 0.89022 0.0
H246 H 0.60484 0.8526 0.95183 0.0
H247 H 0.52703 0.85514 0.91887 0.0
H248 H 0.5402 0.86712 0.82703 0.0
H249 H 0.53021 0.7872 0.82196 0.0
H250 H 0.64846 0.94001 0.97762 0.0
H251 H 0.58774 0.93241 0.92714 0.0
H252 H 0.60581 0.76345 0.87387 0.0
H253 H 0.61453 0.81196 0.82124 0.0
H254 H 0.59533 0.7268 0.83972 0.0
H255 H 0.60384 0.77457 0.78804 0.0
H256 H 0.69115 0.84954 0.90456 0.0
H257 H 0.64562 0.8542 0.95877 0.0
H258 H 0.72369 0.8593 0.93785 0.0
H259 H 0.67902 0.86429 0.99115 0.0
H260 H 0.71016 0.87055 0.83365 0.0
H261 H 0.68442 0.79054 0.82604 0.0
H262 H 0.56502 0.76389 0.9431 0.0
H263 H 0.63287 0.75129 0.94364 0.0
Li264 Li 0.51073 0.27891 0.13668 0.0
Li265 Li 0.5294 0.2639 0.17082 0.0
Li266 Li 0.50382 0.23356 0.13681 0.0
Li267 Li 0.48781 0.25932 0.16744 0.0
C268 C 0.55062 0.25869 0.12306 0.0
N269 N 0.58732 0.25865 0.09726 0.0
C270 C 0.57244 0.27269 0.13362 0.0
C271 C 0.54745 0.24479 0.0993 0.0
C272 C 0.59079 0.27238 0.1203 0.0
C273 C 0.56621 0.24502 0.08657 0.0
C274 C 0.52008 0.30947 0.19276 0.0
C275 C 0.52419 0.32377 0.23635 0.0
N276 N 0.53535 0.34696 0.23359 0.0
C277 C 0.53177 0.33341 0.19039 0.0
C278 C 0.51644 0.30455 0.21595 0.0
C279 C 0.53929 0.35211 0.21123 0.0
C280 C 0.5105 0.32633 0.12638 0.0
N281 N 0.51557 0.30419 0.1179 0.0
C282 C 0.53336 0.32086 0.08595 0.0
C283 C 0.52617 0.3009 0.0977 0.0
C284 C 0.52934 0.34417 0.09508 0.0
C285 C 0.51743 0.34686 0.11522 0.0
H286 H 0.50173 0.32821 0.14228 0.0
H287 H 0.52944 0.28297 0.09097 0.0
C288 C 0.56446 0.24706 0.19208 0.0
N289 N 0.55682 0.26809 0.19172 0.0
C290 C 0.58428 0.24785 0.20721 0.0
C291 C 0.5892 0.29229 0.21974 0.0
C292 C 0.56921 0.29064 0.20437 0.0
C293 C 0.59633 0.27038 0.22302 0.0
H294 H 0.55516 0.22963 0.18042 0.0
H295 H 0.56403 0.30751 0.20213 0.0
C296 C 0.46368 0.24055 0.11277 0.0
N297 N 0.42828 0.21565 0.07634 0.0
C298 C 0.44377 0.22592 0.11859 0.0
C299 C 0.46565 0.24252 0.08846 0.0
C300 C 0.42604 0.21348 0.0999 0.0
C301 C 0.44755 0.22975 0.07029 0.0
C302 C 0.50658 0.21736 0.187 0.0
C303 C 0.49937 0.19162 0.17776 0.0
C304 C 0.51606 0.2258 0.21149 0.0
C305 C 0.50203 0.17475 0.19311 0.0
C306 C 0.51842 0.20832 0.22626 0.0
N307 N 0.51145 0.18338 0.21683 0.0
C308 C 0.52388 0.1975 0.12208 0.0
C309 C 0.48505 0.18494 0.1041 0.0
C310 C 0.52837 0.17606 0.10946 0.0
N311 N 0.50284 0.20201 0.11853 0.0
C312 C 0.48855 0.16236 0.09189 0.0
C313 C 0.51066 0.15823 0.09408 0.0
H314 H 0.53737 0.21092 0.13455 0.0
H315 H 0.4683 0.18871 0.10212 0.0
C316 C 0.44583 0.26945 0.17661 0.0
N317 N 0.46352 0.26072 0.18558 0.0
C318 C 0.42916 0.27376 0.1912 0.0
C319 C 0.44932 0.25994 0.22379 0.0
C320 C 0.46513 0.25512 0.20832 0.0
C321 C 0.43129 0.26968 0.21532 0.0
H322 H 0.44514 0.27386 0.15848 0.0
H323 H 0.47935 0.24814 0.2149 0.0
O324 O 0.53263 0.25777 0.13626 0.0
O325 O 0.51248 0.29096 0.17251 0.0
O326 O 0.48073 0.25382 0.13091 0.0
O327 O 0.50487 0.23413 0.17194 0.0
H328 H 0.57523 0.2836 0.15192 0.0
H329 H 0.53064 0.234 0.09076 0.0
H330 H 0.60779 0.28302 0.1283 0.0
H331 H 0.564 0.23432 0.06821 0.0
H332 H 0.52145 0.3202 0.25439 0.0
H333 H 0.53537 0.33745 0.17273 0.0
H334 H 0.50805 0.28605 0.21824 0.0
H335 H 0.54838 0.3707 0.20964 0.0
H336 H 0.54226 0.3183 0.07018 0.0
H337 H 0.51387 0.36467 0.12236 0.0
H338 H 0.5901 0.23076 0.20588 0.0
H339 H 0.59886 0.31088 0.22796 0.0
H340 H 0.44199 0.22428 0.13735 0.0
H341 H 0.48093 0.25393 0.08373 0.0
H342 H 0.41049 0.20215 0.10413 0.0
H343 H 0.44878 0.23115 0.05139 0.0
H344 H 0.49175 0.18468 0.15895 0.0
H345 H 0.52177 0.24565 0.21896 0.0
H346 H 0.49662 0.15479 0.18615 0.0
H347 H 0.52587 0.2146 0.24521 0.0
H348 H 0.54555 0.17332 0.11184 0.0
H349 H 0.47444 0.14861 0.08051 0.0
H350 H 0.41546 0.28145 0.18425 0.0
H351 H 0.45151 0.25683 0.24239 0.0
Li352 Li 0.10082 0.84036 0.10162 0.0
Li353 Li 0.1256 0.81987 0.13364 0.0
Li354 Li 0.09836 0.7929 0.09608 0.0
Li355 Li 0.08096 0.81253 0.13099 0.0
C356 C 0.13972 0.81685 0.07962 0.0
N357 N 0.16662 0.80623 0.04402 0.0
C358 C 0.16297 0.81868 0.08604 0.0
C359 C 0.13021 0.80999 0.05505 0.0
C360 C 0.17627 0.81314 0.0678 0.0
C361 C 0.14408 0.8046 0.03733 0.0
C362 C 0.10872 0.86478 0.15811 0.0
C363 C 0.10923 0.8812 0.20076 0.0
N364 N 0.11506 0.9049 0.19624 0.0
C365 C 0.11473 0.88927 0.15388 0.0
C366 C 0.10598 0.86064 0.18171 0.0
C367 C 0.11788 0.90931 0.1734 0.0
C368 C 0.07479 0.87144 0.07881 0.0
N369 N 0.09669 0.87036 0.08609 0.0
C370 C 0.11033 0.91032 0.07386 0.0
C371 C 0.11436 0.88939 0.08349 0.0
C372 C 0.08786 0.91198 0.06641 0.0
C373 C 0.07004 0.89181 0.06882 0.0
H374 H 0.06074 0.85654 0.08098 0.0
H375 H 0.13171 0.88867 0.08929 0.0
C376 C 0.16727 0.80291 0.14697 0.0
N377 N 0.15488 0.81952 0.15536 0.0
C378 C 0.18721 0.80081 0.16108 0.0
C379 C 0.18108 0.83178 0.19321 0.0
C380 C 0.16152 0.83373 0.17827 0.0
C381 C 0.19458 0.81527 0.18477 0.0
H382 H 0.1617 0.79107 0.12914 0.0
H383 H 0.15155 0.84652 0.18523 0.0
C384 C 0.05593 0.80132 0.0763 0.0
N385 N 0.02112 0.7807 0.03797 0.0
C386 C 0.03466 0.78817 0.08063 0.0
C387 C 0.05936 0.80432 0.05252 0.0
C388 C 0.01731 0.77782 0.06101 0.0
C389 C 0.04159 0.79364 0.03337 0.0
C390 C 0.09757 0.77142 0.14527 0.0
C391 C 0.08677 0.74642 0.13539 0.0
C392 C 0.10489 0.77861 0.17035 0.0
C393 C 0.08345 0.72897 0.15081 0.0
C394 C 0.10127 0.76058 0.18518 0.0
N395 N 0.09072 0.73635 0.17518 0.0
C396 C 0.11373 0.75158 0.07047 0.0
C397 C 0.07356 0.74448 0.0683 0.0
C398 C 0.11178 0.72634 0.06024 0.0
N399 N 0.09478 0.76018 0.07465 0.0
C400 C 0.07088 0.71902 0.05849 0.0
C401 C 0.09018 0.70949 0.05493 0.0
H402 H 0.1305 0.76391 0.07636 0.0
H403 H 0.05872 0.75115 0.07255 0.0
C404 C 0.04757 0.82754 0.16048 0.0
N405 N 0.05427 0.80745 0.14883 0.0
C406 C 0.02757 0.82418 0.17166 0.0
C407 C 0.02123 0.77955 0.15833 0.0
C408 C 0.04152 0.78372 0.14771 0.0
C409 C 1.01401 0.79994 0.17055 0.0
H410 H 0.05753 0.84627 0.16077 0.0
H411 H 0.04674 0.76798 0.13793 0.0
O412 O 0.12645 0.82182 0.09738 0.0
O413 O 0.10533 0.84503 0.13911 0.0
O414 O 0.07319 0.81141 0.0953 0.0
O415 O 0.10127 0.78872 0.13042 0.0
H416 H 0.17073 0.82456 0.10489 0.0
H417 H 0.11228 0.8085 0.04975 0.0
H418 H 0.19428 0.8144 0.07255 0.0
H419 H 0.13691 0.79905 0.01825 0.0
H420 H 0.10709 0.87832 0.21913 0.0
H421 H 0.11696 0.89276 0.13571 0.0
H422 H 0.10127 0.84176 0.18523 0.0
H423 H 0.12253 0.92837 0.17038 0.0
H424 H 0.12471 0.92526 0.07244 0.0
H425 H 0.05245 0.89199 0.06339 0.0
H426 H 0.1968 0.78784 0.15349 0.0
H427 H 0.18575 0.84335 0.21128 0.0
H428 H 0.03157 0.78587 0.0989 0.0
H429 H 0.07552 0.81489 0.0489 0.0
H430 H 1.00082 0.76748 0.0641 0.0
H431 H 0.04406 0.79571 0.01486 0.0
H432 H 0.08099 0.74048 0.11607 0.0
H433 H 0.11331 0.79789 0.17827 0.0
H434 H 0.07513 0.70956 0.14339 0.0
H435 H 0.10688 0.76585 0.20463 0.0
H436 H 0.12709 0.71971 0.05784 0.0
H437 H 0.05394 0.70663 0.05479 0.0
H438 H 0.02254 0.84039 0.18082 0.0
H439 H 1.01121 0.76058 0.15697 0.0
Li440 Li 0.52991 0.80462 0.44657 0.0
Li441 Li 0.50261 0.77842 0.40866 0.0
Li442 Li 0.52795 0.75734 0.44048 0.0
Li443 Li 0.5474 0.78433 0.41148 0.0
C444 C 0.48949 0.78301 0.46268 0.0
N445 N 0.46459 0.79863 0.49844 0.0
C446 C 0.46891 0.78927 0.45622 0.0
C447 C 0.49727 0.78435 0.48728 0.0
C448 C 0.4566 0.7972 0.47458 0.0
C449 C 0.48447 0.79241 0.5051 0.0
C450 C 0.53298 0.82738 0.3987 0.0
C451 C 0.54168 0.84028 0.36088 0.0
N452 N 0.54313 0.86447 0.37135 0.0
C453 C 0.53458 0.85238 0.40908 0.0
C454 C 0.53646 0.82123 0.37437 0.0
C455 C 0.53967 0.87085 0.39495 0.0
C456 C 0.55475 0.85117 0.47765 0.0
N457 N 0.53344 0.83684 0.46837 0.0
C458 C 0.51727 0.87192 0.48038 0.0
C459 C 0.5148 0.84667 0.47004 0.0
C460 C 0.53912 0.88726 0.48923 0.0
C461 C 0.55794 0.8764 0.48861 0.0
H462 H 0.5695 0.84361 0.47512 0.0
H463 H 0.49817 0.83555 0.46156 0.0
C464 C 0.45432 0.7599 0.38098 0.0
N465 N 0.47296 0.77973 0.38751 0.0
C466 C 0.43405 0.76204 0.36737 0.0
C467 C 0.45196 0.80481 0.36683 0.0
C468 C 0.47178 0.80198 0.38065 0.0
C469 C 0.43242 0.78477 0.35995 0.0
H470 H 0.45499 0.7423 0.38646 0.0
H471 H 0.48624 0.8179 0.386 0.0
C472 C 0.57259 0.79045 0.46574 0.0
N473 N 0.609 0.80119 0.50265 0.0
C474 C 0.59396 0.78721 0.46044 0.0
C475 C 0.56962 0.79856 0.48993 0.0
C476 C 0.61217 0.79285 0.47932 0.0
C477 C 0.58827 0.80407 0.5083 0.0
C478 C 0.52401 0.73417 0.38413 0.0
C479 C 0.53511 0.71561 0.38881 0.0
C480 C 0.51416 0.73359 0.36039 0.0
C481 C 0.53618 0.69668 0.36959 0.0
C482 C 0.51572 0.71442 0.34162 0.0
N483 N 0.52655 0.69649 0.34659 0.0
C484 C 0.51611 0.71282 0.46626 0.0
C485 C 0.55393 0.7229 0.45738 0.0
C486 C 0.52047 0.69242 0.47666 0.0
N487 N 0.53269 0.72767 0.45655 0.0
C488 C 0.55892 0.70263 0.46737 0.0
C489 C 0.54212 0.68679 0.47716 0.0
H490 H 0.49932 0.71659 0.46583 0.0
H491 H 0.56713 0.7346 0.44978 0.0
C492 C 0.59327 0.80811 0.40529 0.0
N493 N 0.57456 0.78992 0.39395 0.0
C494 C 0.61382 0.81188 0.39508 0.0
C495 C 0.59532 0.77938 0.36073 0.0
C496 C 0.57528 0.77581 0.37187 0.0
C497 C 0.61513 0.79738 0.37246 0.0
H498 H 0.59243 0.81939 0.42268 0.0
H499 H 0.56039 0.76158 0.36289 0.0
O500 O 0.50186 0.77553 0.44495 0.0
O501 O 0.52787 0.809 0.4122 0.0
O502 O 0.55499 0.78672 0.44723 0.0
O503 O 0.52195 0.75223 0.40286 0.0
H504 H 0.46264 0.78824 0.43724 0.0
H505 H 0.51304 0.7793 0.49252 0.0
H506 H 0.44072 0.80226 0.46987 0.0
H507 H 0.49034 0.7937 0.52423 0.0
H508 H 0.54453 0.83581 0.34206 0.0
H509 H 0.53173 0.85751 0.42774 0.0
H510 H 0.53517 0.80195 0.36603 0.0
H511 H 0.54084 0.89024 0.40274 0.0
H512 H 0.50242 0.87974 0.48022 0.0
H513 H 0.57509 0.8878 0.49488 0.0
H514 H 0.41966 0.74589 0.36259 0.0
H515 H 0.45193 0.82268 0.3616 0.0
H516 H 0.5965 0.78044 0.44193 0.0
H517 H 0.55322 0.8012 0.49438 0.0
H518 H 0.62885 0.79066 0.47541 0.0
H519 H 0.5863 0.81078 0.52703 0.0
H520 H 0.54267 0.7157 0.40708 0.0
H521 H 0.50541 0.74779 0.35654 0.0
H522 H 0.5446 0.68211 0.37298 0.0
H523 H 0.50822 0.71374 0.32313 0.0
H524 H 0.50687 0.68083 0.48388 0.0
H525 H 0.57583 0.69921 0.46722 0.0
H526 H 0.62862 0.82593 0.40483 0.0
H527 H 0.59549 0.76782 0.34325 0.0
Li528 Li 0.59984 0.34044 0.60067 0.0
Li529 Li 0.62497 0.32057 0.63249 0.0
Li530 Li 0.5977 0.29323 0.59544 0.0
Li531 Li 0.58028 0.31288 0.63031 0.0
C532 C 0.63902 0.31588 0.57929 0.0
N533 N 0.66649 0.30309 0.54508 0.0
C534 C 0.66141 0.31487 0.58678 0.0
C535 C 0.63062 0.31056 0.55441 0.0
C536 C 0.67504 0.30838 0.5692 0.0
C537 C 0.64475 0.304 0.5374 0.0
C538 C 0.60851 0.36521 0.65726 0.0
C539 C 0.60952 0.38155 0.70002 0.0
N540 N 0.6159 0.40526 0.69564 0.0
C541 C 0.61509 0.3897 0.65317 0.0
C542 C 0.60575 0.36102 0.68084 0.0
C543 C 0.61876 0.40971 0.67282 0.0
C544 C 0.57379 0.37119 0.57772 0.0
N545 N 0.59569 0.37017 0.58507 0.0
C546 C 0.6094 0.41003 0.5728 0.0
C547 C 0.6134 0.38915 0.58249 0.0
C548 C 0.58694 0.41164 0.56529 0.0
C549 C 0.56909 0.3915 0.56766 0.0
H550 H 0.55974 0.3563 0.57991 0.0
H551 H 0.63073 0.38841 0.58834 0.0
C552 C 0.66034 0.29759 0.65033 0.0
N553 N 0.65458 0.32017 0.65327 0.0
C554 C 0.68005 0.29429 0.66379 0.0
C555 C 0.6883 0.33753 0.68339 0.0
C556 C 0.6683 0.34004 0.66956 0.0
C557 C 0.69455 0.31436 0.68066 0.0
H558 H 0.64946 0.28184 0.63751 0.0
H559 H 0.6637 0.35788 0.67209 0.0
C560 C 0.55506 0.30119 0.57565 0.0
N561 N 0.52021 0.28034 0.53743 0.0
C562 C 0.53379 0.28813 0.58009 0.0
C563 C 0.55849 0.30391 0.55181 0.0
C564 C 0.51642 0.27766 0.56052 0.0
C565 C 0.54069 0.29316 0.53272 0.0
C566 C 0.59703 0.27158 0.64412 0.0
C567 C 0.58569 0.24685 0.63376 0.0
C568 C 0.60489 0.27796 0.66913 0.0
C569 C 0.58243 0.22886 0.64862 0.0
C570 C 0.60129 0.25942 0.68338 0.0
N571 N 0.59024 0.23546 0.67292 0.0
C572 C 0.61367 0.25166 0.572 0.0
C573 C 0.57343 0.24495 0.5663 0.0
C574 C 0.612 0.2264 0.56213 0.0
N575 N 0.59453 0.26047 0.57427 0.0
C576 C 0.57098 0.21946 0.55679 0.0
C577 C 0.59041 0.20972 0.5552 0.0
H578 H 0.63026 0.26383 0.57919 0.0
H579 H 0.55835 0.25175 0.56899 0.0
C580 C 0.54683 0.32793 0.6596 0.0
N581 N 0.55368 0.3078 0.64827 0.0
C582 C 0.52688 0.3246 0.67088 0.0
C583 C 0.52094 0.27991 0.65836 0.0
C584 C 0.54113 0.28406 0.64755 0.0
C585 C 0.51357 0.30035 0.67025 0.0
H586 H 0.55664 0.34665 0.65958 0.0
H587 H 0.54644 0.26829 0.63799 0.0
O588 O 0.62556 0.32229 0.59632 0.0
O589 O 0.60451 0.34549 0.63813 0.0
O590 O 0.57232 0.31141 0.5946 0.0
O591 O 0.60081 0.28937 0.6298 0.0
H592 H 0.66825 0.31921 0.60595 0.0
H593 H 0.61335 0.31128 0.54833 0.0
H594 H 0.69243 0.30759 0.57474 0.0
H595 H 0.63844 0.29967 0.51808 0.0
H596 H 0.60735 0.37864 0.71837 0.0
H597 H 0.61732 0.39322 0.63501 0.0
H598 H 0.60059 0.34214 0.68424 0.0
H599 H 0.62385 0.42878 0.66992 0.0
H600 H 0.62379 0.42496 0.5714 0.0
H601 H 0.5515 0.39168 0.56217 0.0
H602 H 0.68381 0.276 0.66121 0.0
H603 H 0.69862 0.35349 0.69643 0.0
H604 H 0.53074 0.286 0.59841 0.0
H605 H 0.57471 0.31427 0.54809 0.0
H606 H 0.49993 0.2674 0.56369 0.0
H607 H 0.54314 0.29503 0.51415 0.0
H608 H 0.57942 0.24155 0.61451 0.0
H609 H 0.61374 0.29702 0.6774 0.0
H610 H 0.57371 0.20965 0.64081 0.0
H611 H 0.60732 0.26406 0.70276 0.0
H612 H 0.62739 0.21962 0.56127 0.0
H613 H 0.55402 0.20721 0.55178 0.0
H614 H 0.52172 0.34084 0.67979 0.0
H615 H 0.51111 0.26093 0.65737 0.0
Li616 Li 0.02925 0.30402 0.94592 0.0
Li617 Li 1.00159 0.27781 0.90847 0.0
Li618 Li 0.0271 0.2568 0.94036 0.0
Li619 Li 0.04653 0.28374 0.91101 0.0
C620 C 0.98899 0.28334 0.96252 0.0
N621 N 0.96438 0.29994 0.99815 0.0
C622 C 0.96924 0.29117 0.95603 0.0
C623 C 0.99604 0.28358 0.98707 0.0
C624 C 0.95706 0.29957 0.97432 0.0
C625 C 0.98344 0.29219 1.00483 0.0
C626 C 0.03091 0.32646 0.89757 0.0
C627 C 0.03196 0.33852 0.85814 0.0
N628 N 0.03855 0.36303 0.86931 0.0
C629 C 0.03788 0.35176 0.90865 0.0
C630 C 0.02797 0.31974 0.8721 0.0
C631 C 0.04155 0.36997 0.89405 0.0
C632 C 0.05329 0.34963 0.98021 0.0
N633 N 0.03265 0.33628 0.96775 0.0
C634 C 0.01705 0.37232 0.97663 0.0
C635 C 1.01456 0.34706 0.96629 0.0
C636 C 0.03836 0.38674 0.98861 0.0
C637 C 0.05645 0.3749 0.99108 0.0
H638 H 0.06778 0.34131 0.98041 0.0
H639 H 0.99861 0.33665 0.95546 0.0
C640 C 0.95255 0.25916 0.88223 0.0
N641 N 0.97143 0.2788 0.88779 0.0
C642 C 0.93208 0.26115 0.86886 0.0
C643 C 0.95025 0.3034 0.86666 0.0
C644 C 0.97016 0.3008 0.88043 0.0
C645 C 0.93057 0.28349 0.86056 0.0
H646 H 0.95319 0.24182 0.88828 0.0
H647 H 0.98457 0.31676 0.88538 0.0
C648 C 0.07208 0.2925 0.96508 0.0
N649 N 0.10816 0.30689 1.00259 0.0
C650 C 0.0945 0.29952 0.95997 0.0
C651 C 0.06803 0.29267 0.98927 0.0
C652 C 0.11251 0.30665 0.97917 0.0
C653 C 0.08649 0.30016 1.00799 0.0
C654 C 0.02445 0.23422 0.88399 0.0
C655 C 0.03436 0.2149 0.88909 0.0
C656 C 0.0172 0.23517 0.85981 0.0
C657 C 0.03686 0.19678 0.86985 0.0
C658 C 0.02003 0.2167 0.84105 0.0
N659 N 0.02968 0.19803 0.84642 0.0
C660 C 0.01522 0.21184 0.96542 0.0
C661 C 0.05347 0.22324 0.9581 0.0
C662 C 0.0197 0.19147 0.97578 0.0
N663 N 0.03196 0.22732 0.9565 0.0
C664 C 0.05858 0.20299 0.96805 0.0
C665 C 0.04162 0.18649 0.97702 0.0
H666 H 0.99822 0.21506 0.96436 0.0
H667 H 0.06679 0.23552 0.95119 0.0
C668 C 0.08263 0.30984 0.88594 0.0
N669 N 0.07401 0.28805 0.89364 0.0
C670 C 0.1028 0.31316 0.875 0.0
C671 C 0.10601 0.27227 0.8813 0.0
C672 C 0.08549 0.26949 0.89162 0.0
C673 C 0.11488 0.29426 0.87255 0.0
H674 H 0.07417 0.32499 0.88856 0.0
H675 H 0.07897 0.25262 0.89848 0.0
O676 O 1.00116 0.27519 0.94485 0.0
O677 O 0.02683 0.30837 0.91154 0.0
O678 O 0.05423 0.28574 0.9465 0.0
O679 O 0.02096 0.25146 0.90267 0.0
H680 H 0.96347 0.29095 0.93709 0.0
H681 H 1.01104 0.27716 0.99234 0.0
H682 H 0.94182 0.30582 0.96958 0.0
H683 H 0.98877 0.29263 0.02393 0.0
H684 H 0.02979 0.3336 0.83842 0.0
H685 H 0.04046 0.35735 0.92827 0.0
H686 H 0.02269 0.30022 0.86326 0.0
H687 H 0.04681 0.38962 0.90241 0.0
H688 H 1.0028 0.38089 0.9741 0.0
H689 H 0.07324 0.38557 0.99986 0.0
H690 H 0.91752 0.24516 0.86477 0.0
H691 H 0.95025 0.32102 0.86085 0.0
H692 H 0.09798 0.29951 0.94138 0.0
H693 H 0.05082 0.28739 0.99356 0.0
H694 H 0.12994 0.31207 0.97546 0.0
H695 H 0.08358 0.30063 0.02681 0.0
H696 H 0.03988 0.21377 0.9077 0.0
H697 H 1.00932 0.24991 0.85561 0.0
H698 H 0.0444 0.18166 0.87355 0.0
H699 H 1.01444 0.21713 0.82222 0.0
H700 H 1.00598 0.17936 0.98236 0.0
H701 H 0.07571 0.20011 0.9685 0.0
H702 H 0.10904 0.33048 0.8687 0.0
H703 H 0.11481 0.25727 0.87995 0.0
Li704 Li 0.464 0.04426 0.32085 0.0
Li705 Li 0.43545 0.01641 0.29088 0.0
Li706 Li 0.46542 0.04333 0.27727 0.0
Li707 Li 0.43542 0.05955 0.29648 0.0
C708 C 0.4747 0.9954 0.29636 0.0
N709 N 0.48815 0.95094 0.29532 0.0
C710 C 0.4628 0.9766 0.3074 0.0
C711 C 0.49403 0.9919 0.28573 0.0
C712 C 0.46965 0.95411 0.30631 0.0
C713 C 0.50046 0.96927 0.28523 0.0
C714 C 0.41745 0.02979 0.33745 0.0
C715 C 0.3826 0.02673 0.35562 0.0
N716 N 0.38983 1.01219 0.37051 0.0
C717 C 0.42457 0.01487 0.35297 0.0
C718 C 0.39637 0.03591 0.33888 0.0
C719 C 0.41035 1.00618 0.36959 0.0
C720 C 0.47935 0.06687 0.36898 0.0
N721 N 0.48072 0.04822 0.35072 0.0
C722 C 0.50589 0.03335 0.37643 0.0
C723 C 0.49368 0.0317 0.35391 0.0
C724 C 0.50486 0.0524 0.39548 0.0
C725 C 0.49159 0.06943 0.39192 0.0
H726 H 0.46875 0.07958 0.36563 0.0
H727 H 0.49469 0.01731 0.3391 0.0
C728 C 0.42282 0.96866 0.26366 0.0
N729 N 0.41746 0.98462 0.28208 0.0
C730 C 0.4094 0.94465 0.25621 0.0
C731 C 0.3848 0.95449 0.28632 0.0
C732 C 0.39864 0.9782 0.29311 0.0
C733 C 0.39063 0.93766 0.26811 0.0
H734 H 0.43759 0.97419 0.25495 0.0
H735 H 0.39408 0.99146 0.3067 0.0
C736 C 0.4891 0.08925 0.30091 0.0
N737 N 0.52927 0.12164 0.29593 0.0
C738 C 0.48849 0.10976 0.28967 0.0
C739 C 0.51006 0.08506 0.3095 0.0
C740 C 0.50901 0.12598 0.28739 0.0
C741 C 0.53021 0.10168 0.3068 0.0
C742 C 0.41778 0.02247 0.24517 0.0
C743 C 0.42457 0.0208 0.22186 0.0
C744 C 0.39564 1.00979 0.24758 0.0
C745 C 0.40985 1.00531 0.20184 0.0
C746 C 0.38141 0.99445 0.22714 0.0
N747 N 0.38879 0.99246 0.20489 0.0
C748 C 0.47446 0.01646 0.2425 0.0
C749 C 0.49627 0.05677 0.24014 0.0
C750 C 0.48008 1.00588 0.22083 0.0
N751 N 0.48221 0.04122 0.25159 0.0
C752 C 0.50243 0.04687 0.21779 0.0
C753 C 0.49374 0.02119 0.20809 0.0
H754 H 0.46262 1.00528 0.25151 0.0
H755 H 0.50178 0.0766 0.24763 0.0
C756 C 0.42485 0.10644 0.30211 0.0
N757 N 0.41706 0.08122 0.29562 0.0
C758 C 0.41056 0.12177 0.29658 0.0
C759 C 0.38069 0.08454 0.27888 0.0
C760 C 0.39538 0.0701 0.28499 0.0
C761 C 0.38856 0.11053 0.28423 0.0
H762 H 0.44227 0.11451 0.31063 0.0
H763 H 0.38979 0.05005 0.28063 0.0
O764 O 0.468 0.01743 0.2964 0.0
O765 O 0.43077 0.03811 0.32062 0.0
O766 O 0.46921 0.07359 0.30382 0.0
O767 O 0.43262 0.03682 0.26516 0.0
H768 H 0.4483 0.97919 0.3165 0.0
H769 H 0.50409 1.00659 0.27803 0.0
H770 H 0.46029 0.93921 0.31429 0.0
H771 H 0.51525 0.96631 0.27686 0.0
H772 H 0.36616 0.03113 0.35675 0.0
H773 H 0.4408 1.00992 0.3521 0.0
H774 H 0.39056 0.04738 0.32699 0.0
H775 H 0.4156 0.99458 0.3817 0.0
H776 H 0.51619 0.02009 0.37897 0.0
H777 H 0.49076 0.08431 0.40662 0.0
H778 H 0.41392 0.93156 0.2421 0.0
H779 H 0.37002 0.94904 0.29551 0.0
H780 H 0.47235 0.11313 0.28283 0.0
H781 H 0.51076 0.06917 0.31815 0.0
H782 H 0.50882 0.14201 0.27882 0.0
H783 H 0.54659 0.09874 0.31339 0.0
H784 H 0.44096 0.03158 0.21913 0.0
H785 H 0.38958 1.01107 0.26513 0.0
H786 H 0.41515 1.00363 0.18384 0.0
H787 H 0.36452 0.98407 0.22901 0.0
H788 H 0.47297 0.98612 0.21351 0.0
H789 H 0.51301 0.05899 0.20787 0.0
H790 H 0.41675 0.14196 0.30098 0.0
H791 H 0.36365 0.07562 0.2695 0.0
Li792 Li 0.29913 0.22551 0.53116 0.0
Li793 Li 0.31527 0.19126 0.50928 0.0
Li794 Li 0.29846 0.22086 0.48372 0.0
Li795 Li 0.2707 0.18675 0.50437 0.0
C796 C 0.34438 0.2469 0.51956 0.0
N797 N 0.3836 0.28422 0.53679 0.0
C798 C 0.36292 0.24167 0.53283 0.0
C799 C 0.34581 0.27106 0.51494 0.0
C800 C 0.3826 0.26081 0.54141 0.0
C801 C 0.36578 0.28969 0.52386 0.0
C802 C 0.29381 0.17472 0.55074 0.0
C803 C 0.28589 0.13371 0.5614 0.0
N804 N 0.29529 0.14417 0.58485 0.0
C805 C 0.30344 0.18503 0.57493 0.0
C806 C 0.28505 0.14883 0.54386 0.0
C807 C 0.30402 0.16929 0.5919 0.0
C808 C 0.2824 0.24813 0.57381 0.0
N809 N 0.30198 0.24637 0.56421 0.0
C810 C 0.32384 0.26323 0.60403 0.0
C811 C 0.32256 0.25435 0.57879 0.0
C812 C 0.3038 0.26432 0.61456 0.0
C813 C 0.28296 0.25736 0.59886 0.0
H814 H 0.26611 0.24109 0.56232 0.0
H815 H 0.33793 0.2522 0.57128 0.0
C816 C 0.35595 0.17614 0.4958 0.0
N817 N 0.34073 0.17431 0.51227 0.0
C818 C 0.37503 0.16571 0.49806 0.0
C819 C 0.36269 0.15161 0.53416 0.0
C820 C 0.34407 0.16254 0.53139 0.0
C821 C 0.37846 0.15305 0.51736 0.0
H822 H 0.35342 0.18595 0.48098 0.0
H823 H 0.33252 0.1617 0.54483 0.0
C824 C 0.26037 0.24095 0.5098 0.0
N825 N 0.23503 0.27585 0.52052 0.0
C826 C 0.23682 0.23313 0.50979 0.0
C827 C 0.27109 0.26646 0.51523 0.0
C828 C 0.22428 0.25108 0.51518 0.0
C829 C 0.25797 0.28383 0.5207 0.0
C830 C 0.28933 0.1639 0.45877 0.0
C831 C 0.2831 0.16816 0.43543 0.0
C832 C 0.29306 0.14062 0.46166 0.0
C833 C 0.28067 0.14896 0.41525 0.0
C834 C 0.29045 0.12188 0.44101 0.0
N835 N 0.28437 0.1264 0.41844 0.0
C836 C 0.32336 0.24009 0.44489 0.0
C837 C 0.28493 0.24272 0.44027 0.0
C838 C 0.3269 0.24957 0.4232 0.0
N839 N 0.30257 0.23663 0.45316 0.0
C840 C 0.28774 0.25213 0.41838 0.0
C841 C 0.30895 0.25563 0.40928 0.0
H842 H 0.33731 0.23519 0.455 0.0
H843 H 0.26844 0.23993 0.44671 0.0
C844 C 0.23308 0.15858 0.52572 0.0
N845 N 0.23922 0.16411 0.50399 0.0
C846 C 0.21159 0.14297 0.52703 0.0
C847 C 0.20192 0.13998 0.48387 0.0
C848 C 0.2239 0.15509 0.48323 0.0
C849 C 0.19539 0.13335 0.50597 0.0
H850 H 0.24487 0.16633 0.5423 0.0
H851 H 0.22861 0.15971 0.46607 0.0
O852 O 0.32516 0.22828 0.51056 0.0
O853 O 0.29315 0.18981 0.53382 0.0
O854 O 0.27281 0.2236 0.50447 0.0
O855 O 0.29223 0.18267 0.47861 0.0
H856 H 0.36212 0.22306 0.53656 0.0
H857 H 0.33166 0.27533 0.50452 0.0
H858 H 0.39706 0.25704 0.55173 0.0
H859 H 0.36714 0.30849 0.52045 0.0
H860 H 0.27912 0.11366 0.55635 0.0
H861 H 0.31053 0.2049 0.5806 0.0
H862 H 0.27771 0.14052 0.52515 0.0
H863 H 0.31143 0.17705 0.61067 0.0
H864 H 0.34027 0.26829 0.6154 0.0
H865 H 0.2671 0.25786 0.60614 0.0
H866 H 0.38687 0.16727 0.48474 0.0
H867 H 0.3648 0.14214 0.54936 0.0
H868 H 0.22831 0.2134 0.50555 0.0
H869 H 0.28935 0.27274 0.51538 0.0
H870 H 0.20601 0.24532 0.51513 0.0
H871 H 0.26601 0.30366 0.52508 0.0
H872 H 0.28018 0.18612 0.43292 0.0
H873 H 0.29801 0.13713 0.47963 0.0
H874 H 0.27588 0.15199 0.39707 0.0
H875 H 0.2933 0.10375 0.44292 0.0
H876 H 0.34358 0.25187 0.41715 0.0
H877 H 0.27331 0.25644 0.40848 0.0
H878 H 0.20762 0.13857 0.54452 0.0
H879 H 0.19016 0.13324 0.46709 0.0
Li880 Li 0.20259 0.057 0.78114 0.0
Li881 Li 0.16807 0.02763 0.80383 0.0
Li882 Li 0.19859 1.00241 0.77634 0.0
Li883 Li 0.16665 0.02465 0.75233 0.0
C884 C 0.21952 0.03816 0.82775 0.0
N885 N 0.25042 0.04823 0.86971 0.0
C886 C 0.21363 0.04816 0.85011 0.0
C887 C 0.24107 0.03326 0.82666 0.0
C888 C 0.2295 0.05309 0.87115 0.0
C889 C 0.25649 0.03854 0.8481 0.0
C890 C 0.15291 0.06817 0.77777 0.0
C891 C 0.11447 0.0715 0.76637 0.0
N892 N 0.12195 0.0969 0.77075 0.0
C893 C 0.16025 0.09427 0.78209 0.0
C894 C 0.12986 0.05664 0.76987 0.0
C895 C 0.1443 0.10848 0.7785 0.0
C896 C 0.22136 0.1043 0.75938 0.0
N897 N 0.22263 0.09521 0.78078 0.0
C898 C 0.24738 0.13666 0.79997 0.0
C899 C 0.23553 0.11147 0.80093 0.0
C900 C 0.24646 0.14652 0.7781 0.0
C901 C 0.23287 0.12932 0.7577 0.0
H902 H 0.21115 0.09216 0.7432 0.0
H903 H 0.23672 0.10513 0.81818 0.0
C904 C 0.14661 1.00988 0.85101 0.0
N905 N 0.15003 0.02915 0.83806 0.0
C906 C 0.13586 1.01093 0.87307 0.0
C907 C 0.13147 0.05151 0.86952 0.0
C908 C 0.14233 0.04979 0.84753 0.0
C909 C 0.12784 0.03201 0.88341 0.0
H910 H 0.1523 0.99323 0.84445 0.0
H911 H 0.14456 0.06548 0.83812 0.0
C912 C 0.21085 0.02636 0.73092 0.0
N913 N 0.23034 0.02295 0.68825 0.0
C914 C 0.19864 1.01056 0.70958 0.0
C915 C 0.23298 0.04033 0.73063 0.0
C916 C 0.20876 1.0092 0.68815 0.0
C917 C 0.24257 0.0383 0.70888 0.0
C918 C 0.14478 0.97566 0.76616 0.0
C919 C 0.14897 0.95342 0.75414 0.0
C920 C 0.1225 0.97667 0.76992 0.0
C921 C 0.13072 0.93247 0.74609 0.0
C922 C 0.1047 0.95533 0.76151 0.0
N923 N 0.10915 0.93385 0.74989 0.0
C924 C 0.21733 0.95535 0.7924 0.0
C925 C 0.22831 0.96258 0.75498 0.0
C926 C 0.22856 0.93474 0.79152 0.0
N927 N 0.21703 0.96958 0.77434 0.0
C928 C 0.23977 0.94211 0.75348 0.0
C929 C 0.24045 0.92715 0.77187 0.0
H930 H 0.20875 0.95977 0.80805 0.0
H931 H 0.22865 0.97286 0.74014 0.0
C932 C 0.15187 0.04889 0.70932 0.0
N933 N 0.14748 0.02641 0.71725 0.0
C934 C 0.14122 0.05211 0.68643 0.0
C935 C 0.12088 1.00926 0.67902 0.0
C936 C 0.13196 1.00676 0.70211 0.0
C937 C 0.12532 0.03222 0.67031 0.0
H938 H 0.16401 0.06475 0.72073 0.0
H939 H 0.1281 0.98873 0.70765 0.0
O940 O 0.20402 0.03258 0.80711 0.0
O941 O 0.16825 0.05393 0.78097 0.0
O942 O 0.2012 0.02812 0.75202 0.0
O943 O 0.16249 0.99623 0.77448 0.0
H944 H 0.19696 0.05198 0.85122 0.0
H945 H 0.24578 0.02539 0.80944 0.0
H946 H 0.22517 0.06075 0.88862 0.0
H947 H 0.27326 0.03486 0.84757 0.0
H948 H 0.09659 0.06285 0.76015 0.0
H949 H 0.17804 0.10346 0.78825 0.0
H950 H 0.12397 0.03643 0.76628 0.0
H951 H 0.14971 0.12871 0.78184 0.0
H952 H 0.25737 0.14842 0.81646 0.0
H953 H 0.23113 0.13517 0.74024 0.0
H954 H 0.13388 0.99497 0.88211 0.0
H955 H 0.12582 0.06833 0.87559 0.0
H956 H 0.18155 0.99948 0.70959 0.0
H957 H 0.24264 0.05257 0.74707 0.0
H958 H 0.19948 0.99718 0.67144 0.0
H959 H 0.25971 0.04894 0.70838 0.0
H960 H 0.16616 0.95234 0.75118 0.0
H961 H 0.11901 0.99372 0.77931 0.0
H962 H 0.13371 0.9151 0.73683 0.0
H963 H 0.08736 0.95582 0.76428 0.0
H964 H 0.2279 0.92471 0.80655 0.0
H965 H 0.24825 0.93809 0.73766 0.0
H966 H 0.14561 0.07031 0.68129 0.0
H967 H 0.10893 0.99304 0.66788 0.0
Li968 Li 0.31568 0.95502 1.00805 0.0
Li969 Li 0.33845 0.92821 0.02366 0.0
Li970 Li 0.35573 0.96473 1.0083 0.0
Li971 Li 0.33414 0.92665 0.98017 0.0
C972 C 0.34304 0.98042 0.05712 0.0
N973 N 0.35237 0.01638 0.09936 0.0
C974 C 0.35164 0.97499 0.07918 0.0
C975 C 0.33898 1.00408 0.05659 0.0
C976 C 0.35625 0.99341 0.10032 0.0
C977 C 0.3439 0.02204 0.07814 0.0
C978 C 0.29403 0.89705 1.00409 0.0
C979 C 0.28149 0.85232 1.00105 0.0
N980 N 0.26213 0.85543 0.01029 0.0
C981 C 0.27391 0.89976 0.01338 0.0
C982 C 0.29778 0.87311 0.99769 0.0
C983 C 0.25804 0.87851 0.01646 0.0
C984 C 0.28285 0.98119 0.99696 0.0
N985 N 0.2914 0.96929 0.01365 0.0
C986 C 0.2662 0.98009 0.04144 0.0
C987 C 0.28375 0.96873 0.03563 0.0
C988 C 0.2569 0.99226 0.02446 0.0
C989 C 0.26535 0.99296 1.00207 0.0
H990 H 0.28974 0.98164 0.97986 0.0
H991 H 0.29133 0.95942 0.0486 0.0
C992 C 0.36493 0.91228 0.05701 0.0
N993 N 0.34291 0.91127 0.04852 0.0
C994 C 0.3698 0.90179 0.07702 0.0
C995 C 0.32927 0.89095 0.08021 0.0
C996 C 0.32516 0.9013 0.05979 0.0
C997 C 0.35181 0.8912 0.08873 0.0
H998 H 0.37878 0.92215 0.04897 0.0
H999 H 0.308 0.90209 0.05343 0.0
C1000 C 0.34285 0.9794 0.96716 0.0
N1001 N 0.36613 0.01411 0.94269 0.0
C1002 C 0.34965 0.9715 0.94462 0.0
C1003 C 0.34744 1.00496 0.97702 0.0
C1004 C 0.36153 0.98933 0.9326 0.0
C1005 C 0.35936 0.02222 0.96442 0.0
C1006 C 0.37728 0.91649 1.00162 0.0
C1007 C 0.40075 0.92702 1.00786 0.0
C1008 C 0.36934 0.89046 0.99568 0.0
C1009 C 0.41584 0.91135 1.00797 0.0
C1010 C 0.38496 0.87539 0.99604 0.0
N1011 N 0.40769 0.88606 1.00212 0.0
C1012 C 0.39276 1.00344 0.0348 0.0
C1013 C 0.39492 0.98546 0.99382 0.0
C1014 C 0.41614 0.01401 0.03877 0.0
N1015 N 0.38293 0.98884 0.01282 0.0
C1016 C 0.41813 0.9957 0.99691 0.0
C1017 C 0.4289 1.0089 0.01993 0.0
H1018 H 0.38316 1.00516 0.0499 0.0
H1019 H 0.38695 0.97254 0.97716 0.0
C1020 C 0.31204 0.88929 0.94064 0.0
N1021 N 0.33257 0.90464 0.9508 0.0
C1022 C 0.3105 0.87185 0.91938 0.0
C1023 C 0.35131 0.8863 0.91959 0.0
C1024 C 0.35208 0.90341 0.94096 0.0
C1025 C 0.33027 0.87047 0.90861 0.0
H1026 H 0.29691 0.89071 0.94904 0.0
H1027 H 0.36816 0.91588 0.94962 0.0
O1028 O 0.33893 0.96273 0.03615 0.0
O1029 O 0.30947 0.91768 1.00047 0.0
O1030 O 0.33178 0.96213 0.97948 0.0
O1031 O 0.36226 0.93168 1.00207 0.0
H1032 H 0.35486 0.95682 0.08002 0.0
H1033 H 0.33242 1.00863 0.03966 0.0
H1034 H 0.36297 0.98946 0.11748 0.0
H1035 H 0.34107 0.04051 0.07798 0.0
H1036 H 0.2842 0.83369 0.99619 0.0
H1037 H 0.27046 0.91802 0.01799 0.0
H1038 H 0.31296 0.87054 0.99001 0.0
H1039 H 0.24242 0.88038 0.02365 0.0
H1040 H 0.25997 0.97948 0.05889 0.0
H1041 H 0.25842 1.00241 0.98877 0.0
H1042 H 0.38735 0.9024 0.08366 0.0
H1043 H 0.31519 0.88297 0.08933 0.0
H1044 H 0.34598 0.95182 0.93659 0.0
H1045 H 0.34217 1.01135 0.9944 0.0
H1046 H 0.36711 0.98347 0.91527 0.0
H1047 H 0.36327 0.04206 0.97194 0.0
H1048 H 0.40725 0.94706 0.013 0.0
H1049 H 0.35132 0.88196 0.99092 0.0
H1050 H 0.43401 0.91929 0.01283 0.0
H1051 H 0.379 0.85521 0.99153 0.0
H1052 H 0.42437 0.02419 0.0567 0.0
H1053 H 0.4279 0.99147 0.98219 0.0
H1054 H 0.29401 0.85998 0.91104 0.0
H1055 H 0.36675 0.88576 0.91144 0.0
Li1056 Li 0.31649 0.40705 0.03601 0.0
Li1057 Li 0.33337 0.37843 0.06094 0.0
Li1058 Li 0.3607 0.41317 0.03998 0.0
Li1059 Li 0.33327 0.37341 0.01349 0.0
C1060 C 0.33833 0.43595 0.08417 0.0
N1061 N 0.33632 0.47482 0.12075 0.0
C1062 C 0.32809 0.43093 0.10474 0.0
C1063 C 0.34759 0.46072 0.08218 0.0
C1064 C 0.32722 0.45083 0.12304 0.0
C1065 C 0.34636 0.48012 0.10088 0.0
C1066 C 0.28718 0.35199 0.02918 0.0
C1067 C 0.26631 0.30891 0.01573 0.0
N1068 N 0.24643 0.31584 0.01874 0.0
C1069 C 0.26654 0.35865 0.03227 0.0
C1070 C 0.28711 0.3269 0.02099 0.0
C1071 C 0.24612 0.34011 0.02688 0.0
C1072 C 0.28034 0.4219 1.00918 0.0
N1073 N 0.29084 0.42335 0.03221 0.0
C1074 C 0.26413 0.44537 0.04894 0.0
C1075 C 0.2829 0.43462 0.05196 0.0
C1076 C 0.25328 0.44451 0.02538 0.0
C1077 C 0.2616 0.43252 1.00533 0.0
H1078 H 0.28645 0.41239 0.99368 0.0
H1079 H 0.29097 0.43516 0.07015 0.0
C1080 C 0.34664 0.35548 0.10366 0.0
N1081 N 0.32928 0.3626 0.09141 0.0
C1082 C 0.34394 0.3462 0.12562 0.0
C1083 C 0.30556 0.35147 0.12243 0.0
C1084 C 0.30884 0.36027 0.10038 0.0
C1085 C 0.32325 0.34433 0.13569 0.0
H1086 H 0.36282 0.35726 0.0966 0.0
H1087 H 0.29506 0.36586 0.0907 0.0
C1088 C 0.33582 0.42411 0.99413 0.0
N1089 N 0.33181 0.45462 0.96046 0.0
C1090 C 0.33323 0.41438 0.96911 0.0
C1091 C 0.33633 0.44935 1.00203 0.0
C1092 C 0.33132 0.43011 0.95238 0.0
C1093 C 0.3342 0.46445 0.98471 0.0
C1094 C 0.37127 0.35871 0.03273 0.0
C1095 C 0.39256 0.36603 0.02495 0.0
C1096 C 0.3618 0.33339 0.03238 0.0
C1097 C 0.40401 0.34776 0.01669 0.0
C1098 C 0.3738 0.31569 0.024 0.0
N1099 N 0.39447 0.32318 0.01638 0.0
C1100 C 0.40698 0.44624 0.06088 0.0
C1101 C 0.39694 0.44343 0.01859 0.0
C1102 C 0.42861 0.46208 0.06013 0.0
N1103 N 0.39148 0.43708 0.04025 0.0
C1104 C 0.41828 0.45924 0.01707 0.0
C1105 C 0.43463 0.46882 0.03797 0.0
H1106 H 0.40273 0.44109 0.07799 0.0
H1107 H 0.38481 0.43597 1.0022 0.0
C1108 C 0.30983 0.34186 0.96695 0.0
N1109 N 0.33066 0.35256 0.9805 0.0
C1110 C 0.30803 0.33216 0.94179 0.0
C1111 C 0.34905 0.3442 0.94476 0.0
C1112 C 0.3501 0.35342 0.96985 0.0
C1113 C 0.32781 0.3339 0.93022 0.0
H1114 H 0.29446 0.34216 0.97524 0.0
H1115 H 0.36644 0.36287 0.98041 0.0
O1116 O 0.34008 0.41668 0.06652 0.0
O1117 O 0.30725 0.37004 0.03346 0.0
O1118 O 0.33778 0.40899 0.01079 0.0
O1119 O 0.35977 0.3763 0.04067 0.0
H1120 H 0.32097 0.4119 0.10662 0.0
H1121 H 0.35577 0.46488 0.06646 0.0
H1122 H 0.31939 0.4472 0.13908 0.0
H1123 H 0.3535 0.4994 0.09964 0.0
H1124 H 0.26597 0.28946 1.00916 0.0
H1125 H 0.26625 0.37793 0.03871 0.0
H1126 H 0.30292 0.32145 0.01837 0.0
H1127 H 0.23003 0.34503 0.02911 0.0
H1128 H 0.25818 0.4544 0.06486 0.0
H1129 H 0.2537 0.43145 0.98689 0.0
H1130 H 0.35808 0.34079 0.13486 0.0
H1131 H 0.28926 0.35036 0.12916 0.0
H1132 H 0.33276 0.39494 0.96259 0.0
H1133 H 0.33818 0.45713 0.02133 0.0
H1134 H 0.32942 0.42283 0.93297 0.0
H1135 H 0.33447 0.484 0.99055 0.0
H1136 H 0.40008 0.3856 0.02515 0.0
H1137 H 0.34535 0.3275 0.03845 0.0
H1138 H 0.42047 0.35312 0.01051 0.0
H1139 H 0.36668 0.296 0.02354 0.0
H1140 H 0.44064 0.46883 0.07671 0.0
H1141 H 0.42209 0.46372 0.99957 0.0
H1142 H 0.2913 0.32463 0.93119 0.0
H1143 H 0.36468 0.34613 0.93654 0.0
Li1144 Li 0.79816 0.1698 0.06291 0.0
Li1145 Li 0.81642 0.14129 0.03569 0.0
Li1146 Li 0.79223 0.16634 0.01915 0.0
Li1147 Li 0.77691 0.13096 0.03612 0.0
C1148 C 0.83846 0.19932 0.04349 0.0
N1149 N 0.87344 0.24174 0.04814 0.0
C1150 C 0.86116 0.19747 0.04529 0.0
C1151 C 0.83352 0.22274 0.04405 0.0
C1152 C 0.87861 0.21914 0.04764 0.0
C1153 C 0.85146 0.24397 0.04641 0.0
C1154 C 0.79109 0.11834 0.07818 0.0
C1155 C 0.77437 0.07602 0.08235 0.0
N1156 N 0.76921 0.08486 0.10472 0.0
C1157 C 0.78592 0.12699 0.10135 0.0
C1158 C 0.78563 0.09264 0.06872 0.0
C1159 C 0.77477 0.10977 0.11444 0.0
C1160 C 0.77925 0.19267 0.10083 0.0
N1161 N 0.79922 0.19262 0.09157 0.0
C1162 C 0.81933 0.22695 0.12257 0.0
C1163 C 0.81904 0.20932 0.10181 0.0
C1164 C 0.79905 0.22714 0.1327 0.0
C1165 C 0.77876 0.20995 0.12164 0.0
H1166 H 0.76376 0.17907 0.09218 0.0
H1167 H 0.83461 0.20875 0.09403 0.0
C1168 C 0.8462 0.12499 1.00727 0.0
N1169 N 0.84122 0.12849 0.03053 0.0
C1170 C 0.86351 0.11327 1.00159 0.0
C1171 C 0.87059 0.10993 0.04419 0.0
C1172 C 0.85286 0.12137 0.04896 0.0
C1173 C 0.87581 0.10572 0.02024 0.0
H1174 H 0.83642 0.13091 0.99312 0.0
H1175 H 0.84812 0.1243 0.06717 0.0
C1176 C 0.75425 0.17828 0.03989 0.0
N1177 N 0.72351 0.2078 0.03494 0.0
C1178 C 0.73111 0.16723 0.03187 0.0
C1179 C 0.76169 0.20438 0.04561 0.0
C1180 C 0.71585 0.18244 0.02943 0.0
C1181 C 0.74591 0.21898 0.04293 0.0
C1182 C 0.78632 0.11311 0.98721 0.0
C1183 C 0.77475 0.11722 0.96596 0.0
C1184 C 0.79119 0.08978 0.9876 0.0
C1185 C 0.76788 0.09782 0.94564 0.0
C1186 C 0.78395 0.07081 0.96688 0.0
N1187 N 0.77253 0.07518 0.94653 0.0
C1188 C 0.80539 0.19646 0.98626 0.0
C1189 C 0.76546 0.17961 0.98472 0.0
C1190 C 0.80142 0.20838 0.967 0.0
N1191 N 0.78743 0.18292 0.99483 0.0
C1192 C 0.76067 0.19114 0.96552 0.0
C1193 C 0.77883 0.20568 0.95685 0.0
H1194 H 0.82267 0.19764 0.99411 0.0
H1195 H 0.7518 0.16724 0.99093 0.0
C1196 C 0.73918 0.11229 0.05292 0.0
N1197 N 0.75014 0.10695 0.03346 0.0
C1198 C 0.71608 0.10233 0.05147 0.0
C1199 C 0.71606 0.08059 0.01024 0.0
C1200 C 0.73938 0.09084 0.01259 0.0
C1201 C 0.7044 0.08746 0.02954 0.0
H1202 H 0.74788 0.12632 0.06856 0.0
H1203 H 0.74812 0.08752 0.99705 0.0
O1204 O 0.82125 0.17816 0.04082 0.0
O1205 O 0.80148 0.13504 0.0649 0.0
O1206 O 0.76946 0.16352 0.04177 0.0
O1207 O 0.79288 0.13186 1.00742 0.0
H1208 H 0.86527 0.17948 0.04484 0.0
H1209 H 0.81607 0.22449 0.0424 0.0
H1210 H 0.89626 0.21797 0.04903 0.0
H1211 H 0.84789 0.2622 0.04678 0.0
H1212 H 0.7697 0.0561 0.07513 0.0
H1213 H 0.79035 0.14678 0.10908 0.0
H1214 H 0.78963 0.08568 0.05084 0.0
H1215 H 0.7705 0.11621 0.13232 0.0
H1216 H 0.83531 0.2398 0.13113 0.0
H1217 H 0.76301 0.20946 0.12944 0.0
H1218 H 0.86726 0.11007 0.98296 0.0
H1219 H 0.87991 0.10412 0.05881 0.0
H1220 H 0.7251 0.14711 0.02716 0.0
H1221 H 0.77944 0.21328 0.05204 0.0
H1222 H 0.69794 0.17411 0.02308 0.0
H1223 H 0.75146 0.2392 0.0472 0.0
H1224 H 0.77105 0.13511 0.96506 0.0
H1225 H 0.80011 0.08624 1.00386 0.0
H1226 H 0.75883 0.10077 0.92916 0.0
H1227 H 0.78736 0.05257 0.96701 0.0
H1228 H 0.81558 0.21941 0.96004 0.0
H1229 H 0.74316 0.18864 0.95739 0.0
H1230 H 0.70708 0.10788 0.06648 0.0
H1231 H 0.70701 0.06914 0.99312 0.0
Li1232 Li 0.19837 0.57986 0.25378 0.0
Li1233 Li 0.1635 0.55556 0.26197 0.0
Li1234 Li 0.19199 0.536 0.24654 0.0
Li1235 Li 0.16905 0.55684 0.22096 0.0
C1236 C 0.21188 0.56385 0.29669 0.0
N1237 N 0.24822 0.57899 0.33398 0.0
C1238 C 0.20853 0.57343 0.32043 0.0
C1239 C 0.23374 0.5618 0.29203 0.0
C1240 C 0.2271 0.58099 0.339 0.0
C1241 C 0.25188 0.56959 0.31111 0.0
C1242 C 0.15936 0.60511 0.24745 0.0
C1243 C 0.13191 0.62669 0.23277 0.0
N1244 N 0.14246 0.64754 0.24958 0.0
C1245 C 0.16972 0.62667 0.26484 0.0
C1246 C 0.14016 0.60507 0.23141 0.0
C1247 C 0.16102 0.64797 0.2655 0.0
C1248 C 0.22118 0.62166 0.2429 0.0
N1249 N 0.21944 0.60947 0.26195 0.0
C1250 C 0.2476 0.6419 0.28793 0.0
C1251 C 0.23165 0.61934 0.28438 0.0
C1252 C 0.24971 0.65444 0.26843 0.0
C1253 C 0.23656 0.64447 0.24571 0.0
H1254 H 0.2104 0.61366 0.22567 0.0
H1255 H 0.22874 0.6105 0.29974 0.0
C1256 C 0.14894 0.548 0.3048 0.0
N1257 N 0.1434 0.55624 0.28408 0.0
C1258 C 0.14171 0.55757 0.32632 0.0
C1259 C 0.12151 0.58178 0.30377 0.0
C1260 C 0.12899 0.57159 0.28271 0.0
C1261 C 0.12877 0.57544 0.32583 0.0
H1262 H 0.16074 0.536 0.30505 0.0
H1263 H 0.12472 0.57734 0.26574 0.0
C1264 C 0.21894 0.56658 0.21026 0.0
N1265 N 0.25271 0.58495 0.18341 0.0
C1266 C 0.21375 0.56567 0.18521 0.0
C1267 C 0.24151 0.57616 0.22151 0.0
C1268 C 0.231 0.57516 0.17198 0.0
C1269 C 0.25828 0.58562 0.20767 0.0
C1270 C 0.14076 0.50939 0.24072 0.0
C1271 C 0.14389 0.48678 0.24645 0.0
C1272 C 0.11907 0.51428 0.23985 0.0
C1273 C 0.12529 0.46951 0.25158 0.0
C1274 C 0.10092 0.49658 0.24521 0.0
N1275 N 0.10437 0.47474 0.25088 0.0
C1276 C 0.20521 0.5026 0.2701 0.0
C1277 C 0.22267 0.50741 0.23423 0.0
C1278 C 0.21975 0.48823 0.27695 0.0
N1279 N 0.20711 0.51183 0.24923 0.0
C1280 C 0.23746 0.49284 0.24025 0.0
C1281 C 0.23603 0.48344 0.26193 0.0
H1282 H 0.19307 0.50743 0.28189 0.0
H1283 H 0.22413 0.51599 0.21826 0.0
C1284 C 0.16029 0.57874 0.1815 0.0
N1285 N 0.15417 0.55833 0.19197 0.0
C1286 C 0.14716 0.58065 0.16048 0.0
C1287 C 0.12126 0.54129 0.16289 0.0
C1288 C 0.13514 0.53986 0.18336 0.0
C1289 C 0.12749 0.56167 0.15121 0.0
H1290 H 0.17522 0.59345 0.1896 0.0
H1291 H 0.1307 0.52424 0.19258 0.0
O1292 O 0.19412 0.55802 0.27802 0.0
O1293 O 0.16804 0.58423 0.24594 0.0
O1294 O 0.20193 0.55782 0.22342 0.0
O1295 O 0.15856 0.52595 0.23458 0.0
H1296 H 0.19197 0.57591 0.32437 0.0
H1297 H 0.23683 0.5549 0.27378 0.0
H1298 H 0.22478 0.58877 0.35733 0.0
H1299 H 0.26892 0.5684 0.30768 0.0
H1300 H 0.11708 0.62687 0.22045 0.0
H1301 H 0.1843 0.62701 0.27771 0.0
H1302 H 0.13152 0.58842 0.21825 0.0
H1303 H 0.16901 0.66484 0.27871 0.0
H1304 H 0.25725 0.65008 0.3058 0.0
H1305 H 0.23787 0.6545 0.23065 0.0
H1306 H 0.14704 0.55214 0.34327 0.0
H1307 H 0.11099 0.59512 0.30311 0.0
H1308 H 0.19661 0.55743 0.17595 0.0
H1309 H 0.24596 0.5768 0.2408 0.0
H1310 H 0.22713 0.57466 0.15261 0.0
H1311 H 0.27572 0.59353 0.21623 0.0
H1312 H 0.16039 0.48237 0.24647 0.0
H1313 H 0.11631 0.53155 0.23505 0.0
H1314 H 0.12746 0.45189 0.25595 0.0
H1315 H 0.08406 0.50015 0.24471 0.0
H1316 H 0.21858 0.4812 0.29385 0.0
H1317 H 0.25012 0.48936 0.22856 0.0
H1318 H 0.15222 0.59645 0.15153 0.0
H1319 H 0.10614 0.52638 0.15579 0.0
Li1320 Li 0.81663 0.9072 0.53554 0.0
Li1321 Li 0.83306 0.87843 0.56045 0.0
Li1322 Li 0.86088 0.91281 0.53964 0.0
Li1323 Li 0.83315 0.87338 0.5131 0.0
C1324 C 0.83781 0.93513 0.58414 0.0
N1325 N 0.83458 0.97241 0.62172 0.0
C1326 C 0.82643 0.92898 0.60371 0.0
C1327 C 0.84756 0.96018 0.58364 0.0
C1328 C 0.82496 0.94812 0.62253 0.0
C1329 C 0.84572 0.97878 0.60282 0.0
C1330 C 0.78707 0.85208 0.5287 0.0
C1331 C 0.76657 0.80878 0.51611 0.0
N1332 N 0.74657 0.81555 0.51882 0.0
C1333 C 0.76631 0.85858 0.53146 0.0
C1334 C 0.78724 0.82697 0.52109 0.0
C1335 C 0.74603 0.83985 0.52637 0.0
C1336 C 0.78147 0.92389 0.50888 0.0
N1337 N 0.79109 0.9237 0.53188 0.0
C1338 C 0.76345 0.94407 0.5489 0.0
C1339 C 0.78223 0.93332 0.55174 0.0
C1340 C 0.7536 0.94502 0.52542 0.0
C1341 C 0.76285 0.93472 0.50524 0.0
H1342 H 0.78815 0.91549 0.49323 0.0
H1343 H 0.78953 0.93245 0.56983 0.0
C1344 C 0.84691 0.86398 0.60782 0.0
N1345 N 0.8288 0.86254 0.59078 0.0
C1346 C 0.84395 0.85405 0.62939 0.0
C1347 C 0.80372 0.8423 0.61675 0.0
C1348 C 0.80736 0.85238 0.59539 0.0
C1349 C 0.82219 0.84092 0.63381 0.0
H1350 H 0.86383 0.87349 0.60507 0.0
H1351 H 0.79279 0.85268 0.58278 0.0
C1352 C 0.83603 0.92412 0.49371 0.0
N1353 N 0.83201 0.95462 0.46004 0.0
C1354 C 0.8334 0.91437 0.46869 0.0
C1355 C 0.83652 0.94936 0.50161 0.0
C1356 C 0.83147 0.9301 0.45196 0.0
C1357 C 0.83443 0.96447 0.48429 0.0
C1358 C 0.87088 0.85824 0.53245 0.0
C1359 C 0.89216 0.86547 0.52461 0.0
C1360 C 0.8614 0.83296 0.53225 0.0
C1361 C 0.90358 0.84714 0.51643 0.0
C1362 C 0.87336 0.8152 0.52394 0.0
N1363 N 0.89401 0.8226 0.51626 0.0
C1364 C 0.90939 0.93869 0.55884 0.0
C1365 C 0.89621 0.94821 0.52133 0.0
C1366 C 0.93145 0.95374 0.55852 0.0
N1367 N 0.89209 0.93605 0.54038 0.0
C1368 C 0.91789 0.96369 0.52048 0.0
C1369 C 0.93613 0.96664 0.53915 0.0
H1370 H 0.90622 0.92884 0.57378 0.0
H1371 H 0.88276 0.94578 0.50643 0.0
C1372 C 0.80969 0.84179 0.46664 0.0
N1373 N 0.83052 0.8525 0.4802 0.0
C1374 C 0.80793 0.83214 0.44148 0.0
C1375 C 0.84896 0.8442 0.4445 0.0
C1376 C 0.84997 0.85338 0.46959 0.0
C1377 C 0.82773 0.83392 0.42995 0.0
H1378 H 0.79432 0.84206 0.47493 0.0
H1379 H 0.8663 0.86285 0.48017 0.0
O1380 O 0.84021 0.91662 0.56607 0.0
O1381 O 0.80703 0.87028 0.5329 0.0
O1382 O 0.83809 0.90902 0.51038 0.0
O1383 O 0.85942 0.8759 0.54032 0.0
H1384 H 0.81885 0.90965 0.60438 0.0
H1385 H 0.85659 0.96517 0.56868 0.0
H1386 H 0.81624 0.94365 0.63782 0.0
H1387 H 0.85324 0.99827 0.60275 0.0
H1388 H 0.76642 0.7893 0.51001 0.0
H1389 H 0.76583 0.87788 0.53743 0.0
H1390 H 0.80314 0.82164 0.51875 0.0
H1391 H 0.72985 0.84463 0.52838 0.0
H1392 H 0.75674 0.95172 0.56492 0.0
H1393 H 0.75571 0.93502 0.48684 0.0
H1394 H 0.85893 0.85778 0.64271 0.0
H1395 H 0.7862 0.83663 0.61984 0.0
H1396 H 0.83291 0.89493 0.46217 0.0
H1397 H 0.83845 0.95716 0.52092 0.0
H1398 H 0.82954 0.92281 0.43256 0.0
H1399 H 0.83475 0.98403 0.49012 0.0
H1400 H 0.89969 0.885 0.52468 0.0
H1401 H 0.84496 0.82715 0.53837 0.0
H1402 H 0.92002 0.85243 0.5102 0.0
H1403 H 0.86623 0.79553 0.52359 0.0
H1404 H 0.94483 0.95524 0.57334 0.0
H1405 H 0.92046 0.97311 0.50513 0.0
H1406 H 0.79121 0.82461 0.43085 0.0
H1407 H 0.86459 0.84616 0.43631 0.0
Li1408 Li 0.9646 0.07379 0.29131 0.0
Li1409 Li 0.92838 0.04136 0.26316 0.0
Li1410 Li 0.96258 0.07092 0.23946 0.0
Li1411 Li 0.93199 0.09565 0.26659 0.0
C1412 C 0.97782 0.02985 0.26503 0.0
N1413 N 1.00866 1.00087 0.27152 0.0
C1414 C 0.97123 1.00758 0.27375 0.0
C1415 C 1.00003 0.03736 0.25948 0.0
C1416 C 0.98709 0.99317 0.27691 0.0
C1417 C 0.01539 0.02245 0.26294 0.0
C1418 C 0.91899 0.06962 0.31198 0.0
C1419 C 0.89 0.07997 0.33564 0.0
N1420 N 0.89722 0.06793 0.35305 0.0
C1421 C 0.92603 0.0572 0.32998 0.0
C1422 C 0.90083 0.08108 0.31477 0.0
C1423 C 0.91486 0.05665 0.35068 0.0
C1424 C 0.98334 0.08909 0.34809 0.0
N1425 N 0.98463 0.0737 0.32664 0.0
C1426 C 1.00864 0.05381 0.35138 0.0
C1427 C 0.9975 0.05643 0.32851 0.0
C1428 C 1.00729 0.06905 0.37379 0.0
C1429 C 0.99435 0.08711 0.37139 0.0
H1430 H 0.97323 0.10279 0.34749 0.0
H1431 H 0.99907 0.04398 0.31227 0.0
C1432 C 0.90756 0.98301 0.24537 0.0
N1433 N 0.90803 1.00302 0.26357 0.0
C1434 C 0.89581 0.95775 0.24614 0.0
C1435 C 0.88477 0.97261 0.28441 0.0
C1436 C 0.89669 0.99762 0.28296 0.0
C1437 C 0.88391 0.95162 0.26587 0.0
H1438 H 0.91658 0.98636 0.23 0.0
H1439 H 0.89684 1.01273 0.29781 0.0
C1440 C 0.98579 0.12296 0.27437 0.0
N1441 N 0.02133 0.16537 0.28594 0.0
C1442 C 0.98162 0.14651 0.27345 0.0
C1443 C 1.00801 0.12095 0.2812 0.0
C1444 C 0.99983 0.16773 0.27933 0.0
C1445 C 0.02576 0.14263 0.287 0.0
C1446 C 0.91128 0.06267 0.21611 0.0
C1447 C 0.91896 0.07056 0.19525 0.0
C1448 C 0.88805 0.05255 0.21615 0.0
C1449 C 0.90316 0.06804 0.1746 0.0
C1450 C 0.87278 0.05042 0.19515 0.0
N1451 N 0.88059 0.05811 0.17498 0.0
C1452 C 0.98058 0.04701 0.1905 0.0
C1453 C 0.9924 0.09058 0.19758 0.0
C1454 C 0.99145 0.04521 0.16852 0.0
N1455 N 0.98082 0.06951 0.20521 0.0
C1456 C 1.00347 0.08953 0.17568 0.0
C1457 C 1.00338 0.06657 0.16005 0.0
H1458 H 0.97179 0.02985 0.19558 0.0
H1459 H 0.99323 0.10878 0.20843 0.0
C1460 C 0.91406 0.14496 0.28994 0.0
N1461 N 0.91339 0.12832 0.26851 0.0
C1462 C 0.90278 0.16555 0.29152 0.0
C1463 C 0.88952 0.15319 0.2492 0.0
C1464 C 0.901 0.13278 0.24833 0.0
C1465 C 0.88994 0.1707 0.27102 0.0
H1466 H 0.92351 0.14256 0.30643 0.0
H1467 H 0.89979 0.12046 0.23096 0.0
O1468 O 0.96276 0.04449 0.26227 0.0
O1469 O 0.93001 0.07102 0.29188 0.0
O1470 O 0.96811 0.10205 0.26909 0.0
O1471 O 0.92651 0.06477 0.23637 0.0
H1472 H 0.95415 1.00163 0.27829 0.0
H1473 H 1.00537 0.05462 0.25278 0.0
H1474 H 0.98228 0.97594 0.28375 0.0
H1475 H 0.03268 0.02808 0.25887 0.0
H1476 H 0.8759 0.08872 0.33804 0.0
H1477 H 0.93994 0.04807 0.32799 0.0
H1478 H 0.89518 0.09073 0.30093 0.0
H1479 H 0.9202 0.04723 0.36485 0.0
H1480 H 0.01815 0.03949 0.35149 0.0
H1481 H 0.99236 0.09952 0.38762 0.0
H1482 H 0.8961 0.94293 0.23113 0.0
H1483 H 0.87613 0.96978 0.30015 0.0
H1484 H 0.96448 0.14836 0.26828 0.0
H1485 H 1.01146 0.10284 0.28215 0.0
H1486 H 0.99687 0.18608 0.27868 0.0
H1487 H 0.04304 0.1414 0.29239 0.0
H1488 H 0.93691 0.0785 0.19501 0.0
H1489 H 0.88191 0.0464 0.23223 0.0
H1490 H 0.90884 0.07398 0.15828 0.0
H1491 H 0.85473 0.04261 0.19488 0.0
H1492 H 0.9904 0.02677 0.15806 0.0
H1493 H 1.01223 0.10696 0.17107 0.0
H1494 H 0.9043 0.17765 0.3091 0.0
H1495 H 0.88024 0.15522 0.23245 0.0
Li1496 Li 0.29774 0.67046 0.55967 0.0
Li1497 Li 0.31369 0.64007 0.53259 0.0
Li1498 Li 0.28972 0.66573 0.51594 0.0
Li1499 Li 0.27411 0.63145 0.53459 0.0
C1500 C 0.33706 0.69817 0.54257 0.0
N1501 N 0.37241 0.74074 0.55453 0.0
C1502 C 0.35959 0.69614 0.54719 0.0
C1503 C 0.33251 0.72184 0.544 0.0
C1504 C 0.37723 0.71789 0.55318 0.0
C1505 C 0.35061 0.74315 0.55014 0.0
C1506 C 0.2881 0.61986 0.57623 0.0
C1507 C 0.26998 0.57842 0.58181 0.0
N1508 N 0.26447 0.58848 0.60359 0.0
C1509 C 0.28244 0.62977 0.59876 0.0
C1510 C 0.28211 0.59395 0.5678 0.0
C1511 C 0.27047 0.6136 0.61232 0.0
C1512 C 0.28219 0.6991 0.59653 0.0
N1513 N 0.3016 0.69416 0.58876 0.0
C1514 C 0.32456 0.72308 0.6229 0.0
C1515 C 0.32258 0.7057 0.60136 0.0
C1516 C 0.30475 0.7285 0.63113 0.0
C1517 C 0.2834 0.7166 0.61765 0.0
H1518 H 0.26572 0.68909 0.58656 0.0
H1519 H 0.33768 0.7011 0.59492 0.0
C1520 C 0.34224 0.61972 0.50438 0.0
N1521 N 0.33844 0.62668 0.52771 0.0
C1522 C 0.36007 0.60842 0.49984 0.0
C1523 C 0.37046 0.61325 0.54358 0.0
C1524 C 0.352 0.62382 0.54724 0.0
C1525 C 0.37436 0.60522 0.51963 0.0
H1526 H 0.33128 0.62273 0.48933 0.0
H1527 H 0.34842 0.62976 0.56554 0.0
C1528 C 0.25333 0.67972 0.5353 0.0
N1529 N 0.22344 0.70923 0.52619 0.0
C1530 C 0.2306 0.66864 0.52525 0.0
C1531 C 0.26077 0.70584 0.5408 0.0
C1532 C 0.21578 0.68387 0.52074 0.0
C1533 C 0.24542 0.72042 0.53605 0.0
C1534 C 0.28196 0.6103 0.48611 0.0
C1535 C 0.26996 0.61271 0.46437 0.0
C1536 C 0.28759 0.58757 0.48791 0.0
C1537 C 0.26351 0.59234 0.44494 0.0
C1538 C 0.28081 0.56758 0.46804 0.0
N1539 N 0.26901 0.57036 0.44716 0.0
C1540 C 0.30229 0.6976 0.48383 0.0
C1541 C 0.26309 0.67615 0.47897 0.0
C1542 C 0.29826 0.70884 0.46402 0.0
N1543 N 0.28469 0.68185 0.49086 0.0
C1544 C 0.25828 0.68681 0.45907 0.0
C1545 C 0.27604 0.70327 0.45166 0.0
H1546 H 0.31939 0.70106 0.49332 0.0
H1547 H 0.2498 0.66259 0.48439 0.0
C1548 C 0.23507 0.6172 0.55093 0.0
N1549 N 0.24676 0.60801 0.53362 0.0
C1550 C 0.21187 0.60766 0.54938 0.0
C1551 C 0.21351 0.57697 0.51399 0.0
C1552 C 0.23687 0.58763 0.51589 0.0
C1553 C 0.20078 0.58824 0.53004 0.0
H1554 H 0.24344 0.63354 0.56461 0.0
H1555 H 0.24649 0.58061 0.50235 0.0
O1556 O 0.31973 0.677 0.5358 0.0
O1557 O 0.29949 0.63546 0.56255 0.0
O1558 O 0.26811 0.66507 0.54 0.0
O1559 O 0.28899 0.63039 0.50507 0.0
H1560 H 0.36344 0.67797 0.54592 0.0
H1561 H 0.31524 0.72375 0.5401 0.0
H1562 H 0.39476 0.71659 0.55668 0.0
H1563 H 0.34734 0.76159 0.55127 0.0
H1564 H 0.26491 0.55836 0.57535 0.0
H1565 H 0.28718 0.64974 0.60571 0.0
H1566 H 0.28641 0.58601 0.5504 0.0
H1567 H 0.26593 0.62102 0.62976 0.0
H1568 H 0.34121 0.73173 0.63332 0.0
H1569 H 0.26783 0.72006 0.62399 0.0
H1570 H 0.3628 0.60237 0.48119 0.0
H1571 H 0.38135 0.61096 0.55913 0.0
H1572 H 0.22451 0.64851 0.52046 0.0
H1573 H 0.27816 0.71477 0.54881 0.0
H1574 H 0.19822 0.67552 0.51282 0.0
H1575 H 0.25099 0.74065 0.54024 0.0
H1576 H 0.26581 0.63013 0.46228 0.0
H1577 H 0.29693 0.58533 0.50453 0.0
H1578 H 0.25422 0.59404 0.42805 0.0
H1579 H 0.28493 0.54986 0.46923 0.0
H1580 H 0.31217 0.72151 0.45828 0.0
H1581 H 0.24106 0.68224 0.44947 0.0
H1582 H 0.20239 0.61645 0.56223 0.0
H1583 H 0.20526 0.56155 0.49923 0.0
Li1584 Li 0.42831 0.54122 0.7628 0.0
Li1585 Li 0.4645 0.57328 0.79124 0.0
Li1586 Li 0.43211 0.59552 0.76644 0.0
Li1587 Li 0.4627 0.57078 0.73939 0.0
C1588 C 0.4187 0.56949 0.81161 0.0
N1589 N 0.39658 0.5682 0.85248 0.0
C1590 C 0.42587 0.55766 0.83007 0.0
C1591 C 0.40025 0.58056 0.81385 0.0
C1592 C 0.41451 0.55731 0.85065 0.0
C1593 C 0.38925 0.57966 0.83464 0.0
C1594 C 0.47798 0.52972 0.76453 0.0
C1595 C 0.51635 0.52415 0.76487 0.0
N1596 N 0.50927 0.50119 0.77077 0.0
C1597 C 0.47103 0.50602 0.77046 0.0
C1598 C 0.50078 0.53885 0.76159 0.0
C1599 C 0.48713 0.4919 0.77358 0.0
C1600 C 0.40753 0.483 0.74492 0.0
N1601 N 0.40792 0.50298 0.76311 0.0
C1602 C 0.38466 0.47256 0.7839 0.0
C1603 C 0.39654 0.49758 0.78247 0.0
C1604 C 0.38393 0.45159 0.76539 0.0
C1605 C 0.39587 0.45773 0.7457 0.0
H1606 H 0.4166 0.48638 0.72959 0.0
H1607 H 0.39665 0.51269 0.79731 0.0
C1608 C 0.48747 0.59099 0.84701 0.0
N1609 N 0.48413 0.57246 0.82658 0.0
C1610 C 0.49834 0.58883 0.87032 0.0
C1611 C 0.5029 0.54876 0.85239 0.0
C1612 C 0.49199 0.55162 0.82951 0.0
C1613 C 0.50628 0.5673 0.87381 0.0
H1614 H 0.48131 0.60758 0.84561 0.0
H1615 H 0.48952 0.53647 0.81419 0.0
C1616 C 0.41139 0.56268 0.71593 0.0
N1617 N 0.38061 0.55811 0.67487 0.0
C1618 C 0.41901 0.57049 0.69502 0.0
C1619 C 0.38816 0.55262 0.71605 0.0
C1620 C 0.40317 0.56797 0.67441 0.0
C1621 C 0.37284 0.55049 0.69509 0.0
C1622 C 0.48588 0.62273 0.77445 0.0
C1623 C 0.48165 0.64619 0.77324 0.0
C1624 C 0.5081 0.62085 0.78153 0.0
C1625 C 0.49981 0.66748 0.77908 0.0
C1626 C 0.52578 0.6426 0.78726 0.0
N1627 N 0.52131 0.66525 0.78592 0.0
C1628 C 0.41369 0.64453 0.78978 0.0
C1629 C 0.4018 0.63313 0.74792 0.0
C1630 C 0.40237 0.66509 0.79129 0.0
N1631 N 0.41359 0.62826 0.76827 0.0
C1632 C 0.3903 0.65353 0.7487 0.0
C1633 C 0.39002 0.67058 0.77062 0.0
H1634 H 0.42268 0.64184 0.80641 0.0
H1635 H 0.40107 0.62114 0.73046 0.0
C1636 C 0.47812 0.54742 0.68857 0.0
N1637 N 0.48097 0.56947 0.70514 0.0
C1638 C 0.48895 0.54569 0.66656 0.0
C1639 C 0.50626 0.58917 0.67745 0.0
C1640 C 0.49515 0.59016 0.69933 0.0
C1641 C 0.50354 0.56668 0.65996 0.0
H1642 H 0.4672 0.53058 0.69216 0.0
H1643 H 0.4981 0.60798 0.71165 0.0
O1644 O 0.42993 0.57075 0.79163 0.0
O1645 O 0.46267 0.54414 0.76205 0.0
O1646 O 0.42666 0.56477 0.73615 0.0
O1647 O 0.46825 0.60176 0.76921 0.0
H1648 H 0.44 0.54882 0.82852 0.0
H1649 H 0.39451 0.58977 0.79968 0.0
H1650 H 0.41994 0.54834 0.86516 0.0
H1651 H 0.37492 0.58813 0.83661 0.0
H1652 H 0.53408 0.53101 0.76278 0.0
H1653 H 0.45351 0.4988 0.77305 0.0
H1654 H 0.50639 0.55717 0.75699 0.0
H1655 H 0.48205 0.47361 0.77836 0.0
H1656 H 0.37596 0.4697 0.7996 0.0
H1657 H 0.39625 0.44292 0.73073 0.0
H1658 H 0.50021 0.60395 0.88574 0.0
H1659 H 0.50845 0.53171 0.85333 0.0
H1660 H 0.43697 0.57838 0.69471 0.0
H1661 H 0.38205 0.54653 0.73217 0.0
H1662 H 0.40882 0.57386 0.65805 0.0
H1663 H 0.35479 0.54274 0.69488 0.0
H1664 H 0.46451 0.64794 0.76789 0.0
H1665 H 0.5116 0.60282 0.78273 0.0
H1666 H 0.4968 0.68577 0.77822 0.0
H1667 H 0.54306 0.64147 0.79282 0.0
H1668 H 0.40344 0.67686 0.80895 0.0
H1669 H 0.38146 0.65582 0.7318 0.0
H1670 H 0.48575 0.52762 0.65459 0.0
H1671 H 0.51716 0.60627 0.67433 0.0
Li1672 Li 0.66819 0.06296 0.76267 0.0
Li1673 Li 0.70207 0.08661 0.75096 0.0
Li1674 Li 0.67218 0.06054 0.72078 0.0
Li1675 Li 0.6968 0.0422 0.74769 0.0
C1676 C 0.66101 0.1093 0.74458 0.0
N1677 N 0.63986 0.14866 0.74663 0.0
C1678 C 0.67085 0.13204 0.76052 0.0
C1679 C 0.64025 0.10654 0.72987 0.0
C1680 C 0.65994 0.15173 0.76121 0.0
C1681 C 0.62987 0.12665 0.73114 0.0
C1682 C 0.71496 0.07346 0.79803 0.0
C1683 C 0.75316 0.07864 0.81838 0.0
N1684 N 0.74729 0.09055 0.83915 0.0
C1685 C 0.70938 0.08581 0.81961 0.0
C1686 C 0.73707 0.06979 0.79742 0.0
C1687 C 0.72591 0.09421 0.84021 0.0
C1688 C 0.65347 0.05199 0.80455 0.0
N1689 N 0.64935 0.06399 0.78598 0.0
C1690 C 0.62946 0.08915 0.80942 0.0
C1691 C 0.63666 0.08126 0.78748 0.0
C1692 C 0.63476 0.07827 0.8293 0.0
C1693 C 0.64608 0.05887 0.82677 0.0
H1694 H 0.66401 0.03863 0.80262 0.0
H1695 H 0.63315 0.08988 0.77221 0.0
C1696 C 0.7237 0.13091 0.73884 0.0
N1697 N 0.72288 0.11702 0.75671 0.0
C1698 C 0.74093 0.15259 0.7414 0.0
C1699 C 0.75587 0.14452 0.78025 0.0
C1700 C 0.73767 0.12433 0.77769 0.0
C1701 C 0.75752 0.15887 0.76207 0.0
H1702 H 0.71132 0.12477 0.72251 0.0
H1703 H 0.73587 0.11471 0.7925 0.0
C1704 C 0.6448 0.01477 0.74165 0.0
N1705 N 0.60694 0.97862 0.74617 0.0
C1706 C 0.64705 0.991 0.74471 0.0
C1707 C 0.62334 0.02023 0.74093 0.0
C1708 C 0.62768 0.97293 0.74687 0.0
C1709 C 0.60441 1.00171 0.74336 0.0
C1710 C 0.72143 0.07247 0.70884 0.0
C1711 C 0.71561 0.07225 0.68402 0.0
C1712 C 0.74406 0.08238 0.71971 0.0
C1713 C 0.73226 0.08292 0.67071 0.0
C1714 C 0.76026 0.09287 0.70574 0.0
N1715 N 0.75406 0.09299 0.68177 0.0
C1716 C 0.66052 0.07984 0.68132 0.0
C1717 C 0.63762 0.03984 0.68368 0.0
C1718 C 0.64657 0.08087 0.66061 0.0
N1719 N 0.65592 0.05934 0.6919 0.0
C1720 C 0.62287 0.04038 0.6635 0.0
C1721 C 0.62759 0.06094 0.65178 0.0
H1722 H 0.67488 0.09537 0.6892 0.0
H1723 H 0.63438 0.02417 0.693 0.0
C1724 C 0.71274 1.01208 0.77477 0.0
N1725 N 0.71149 0.01753 0.752 0.0
C1726 C 0.72665 0.99683 0.78114 0.0
C1727 C 0.7358 0.9911 0.73964 0.0
C1728 C 0.72245 1.00745 0.73437 0.0
C1729 C 0.73823 0.98614 0.76341 0.0
H1730 H 0.70361 0.02043 0.78822 0.0
H1731 H 0.72117 1.01253 0.71653 0.0
O1732 O 0.67134 0.08969 0.74378 0.0
O1733 O 0.69945 0.06679 0.77721 0.0
O1734 O 0.66328 0.03192 0.7376 0.0
O1735 O 0.70524 0.06169 0.7219 0.0
H1736 H 0.68665 0.13442 0.77239 0.0
H1737 H 0.63199 0.08889 0.71795 0.0
H1738 H 0.6674 0.16943 0.77341 0.0
H1739 H 0.6138 0.12473 0.7199 0.0
H1740 H 0.7704 0.07633 0.81804 0.0
H1741 H 0.6927 0.08963 0.82022 0.0
H1742 H 0.74202 0.06117 0.78067 0.0
H1743 H 0.72183 0.10395 0.85693 0.0
H1744 H 0.62017 0.10375 0.81105 0.0
H1745 H 0.64994 0.05005 0.84202 0.0
H1746 H 0.74181 0.16378 0.72723 0.0
H1747 H 0.76829 0.14925 0.79659 0.0
H1748 H 0.66351 0.9864 0.74487 0.0
H1749 H 0.62133 0.03848 0.73825 0.0
H1750 H 0.62911 0.95434 0.74894 0.0
H1751 H 0.58768 1.00562 0.74281 0.0
H1752 H 0.69854 0.0634 0.67493 0.0
H1753 H 0.74902 0.08216 0.73874 0.0
H1754 H 0.7279 0.08294 0.65152 0.0
H1755 H 0.7778 0.10078 0.71394 0.0
H1756 H 0.65045 0.09681 0.65161 0.0
H1757 H 0.60828 0.02473 0.6567 0.0
H1758 H 0.72831 0.99327 0.79961 0.0
H1759 H 0.7446 0.98297 0.72566 0.0
Li1760 Li 0.79994 0.72605 0.03079 0.0
Li1761 Li 0.81603 0.6919 1.00889 0.0
Li1762 Li 0.79918 0.72139 0.98331 0.0
Li1763 Li 0.77178 0.68695 1.00392 0.0
C1764 C 0.84438 0.74888 0.01883 0.0
N1765 N 0.88178 0.78881 0.03527 0.0
C1766 C 0.86446 0.74514 0.03049 0.0
C1767 C 0.84339 0.77292 0.01536 0.0
C1768 C 0.88316 0.76555 0.03871 0.0
C1769 C 0.86245 0.79288 0.02388 0.0
C1770 C 0.79567 0.67485 0.04974 0.0
C1771 C 0.78792 0.63358 0.05974 0.0
N1772 N 0.79825 0.64359 0.08297 0.0
C1773 C 0.80619 0.68472 0.07373 0.0
C1774 C 0.78643 0.64908 0.04266 0.0
C1775 C 0.80735 0.66862 0.09025 0.0
C1776 C 0.78302 0.74836 0.07348 0.0
N1777 N 0.80264 0.74663 0.06395 0.0
C1778 C 0.82436 0.76328 0.10387 0.0
C1779 C 0.82318 0.75449 0.07861 0.0
C1780 C 0.80428 0.76439 0.11432 0.0
C1781 C 0.78349 0.75751 0.09852 0.0
H1782 H 0.76676 0.7414 0.0619 0.0
H1783 H 0.83857 0.75233 0.07111 0.0
C1784 C 0.84814 0.66222 0.99302 0.0
N1785 N 0.84108 0.67474 0.01273 0.0
C1786 C 0.86663 0.65101 0.99601 0.0
C1787 C 0.87084 0.66621 0.03942 0.0
C1788 C 0.8521 0.67682 0.03566 0.0
C1789 C 0.8783 0.65299 0.01945 0.0
H1790 H 0.8396 0.66111 0.97489 0.0
H1791 H 0.8467 0.68728 0.05109 0.0
C1792 C 0.76092 0.74122 1.00892 0.0
N1793 N 0.73532 0.77598 0.01925 0.0
C1794 C 0.7371 0.73357 1.00611 0.0
C1795 C 0.77175 0.76654 0.01682 0.0
C1796 C 0.72445 0.75143 0.01144 0.0
C1797 C 0.75849 0.78383 0.02202 0.0
C1798 C 0.78944 0.66347 0.95889 0.0
C1799 C 0.7847 0.6672 0.93504 0.0
C1800 C 0.7907 0.63972 0.963 0.0
C1801 C 0.78133 0.64705 0.9156 0.0
C1802 C 0.7873 0.62003 0.94304 0.0
N1803 N 0.78272 0.62407 0.91996 0.0
C1804 C 0.82471 0.74647 0.94758 0.0
C1805 C 0.78482 0.73756 0.93661 0.0
C1806 C 0.82835 0.75595 0.92589 0.0
N1807 N 0.80317 0.73727 0.95271 0.0
C1808 C 0.78773 0.74666 0.91457 0.0
C1809 C 0.80976 0.75594 0.90866 0.0
H1810 H 0.83928 0.74617 0.96019 0.0
H1811 H 0.76775 0.73018 0.94052 0.0
C1812 C 0.7281 0.67086 0.02166 0.0
N1813 N 0.74065 0.66392 1.00386 0.0
C1814 C 0.70634 0.65599 0.02331 0.0
C1815 C 0.71062 0.62628 0.98887 0.0
C1816 C 0.73223 0.64187 0.98767 0.0
C1817 C 0.69714 0.63323 1.0068 0.0
H1818 H 0.73495 0.68815 0.03468 0.0
H1819 H 0.74226 0.63622 0.97376 0.0
O1820 O 0.82605 0.72899 0.01024 0.0
O1821 O 0.79405 0.69036 0.0334 0.0
O1822 O 0.7735 0.72388 1.00417 0.0
O1823 O 0.79318 0.68315 0.97805 0.0
H1824 H 0.86568 0.72668 0.0331 0.0
H1825 H 0.82811 0.77609 1.00606 0.0
H1826 H 0.89879 0.76289 0.04775 0.0
H1827 H 0.86192 0.81159 0.02135 0.0
H1828 H 0.78082 0.61359 0.05454 0.0
H1829 H 0.81348 0.70455 0.07955 0.0
H1830 H 0.77816 0.64115 0.02419 0.0
H1831 H 0.81546 0.67603 0.10885 0.0
H1832 H 0.84075 0.76828 0.11531 0.0
H1833 H 0.7676 0.75802 0.10573 0.0
H1834 H 0.87193 0.64107 0.98013 0.0
H1835 H 0.87944 0.66828 0.05777 0.0
H1836 H 0.72846 0.71407 0.99973 0.0
H1837 H 0.79018 0.77272 0.0192 0.0
H1838 H 0.706 0.74577 1.00935 0.0
H1839 H 0.76663 0.80349 0.02832 0.0
H1840 H 0.78366 0.68547 0.93157 0.0
H1841 H 0.79443 0.63658 0.98138 0.0
H1842 H 0.77765 0.64968 0.89704 0.0
H1843 H 0.78833 0.60155 0.94589 0.0
H1844 H 0.84567 0.76291 0.92241 0.0
H1845 H 0.77279 0.7462 0.90208 0.0
H1846 H 0.69676 0.66225 0.03746 0.0
H1847 H 0.70441 0.60893 0.97575 0.0
Li1848 Li 0.93089 0.51514 0.79061 0.0
Li1849 Li 0.96007 0.5413 0.82137 0.0
Li1850 Li 0.93498 0.55872 0.79452 0.0
Li1851 Li 0.96387 0.5384 0.77872 0.0
C1852 C 0.91489 0.52887 0.83688 0.0
N1853 N 0.89039 0.50865 0.87107 0.0
C1854 C 0.92216 0.51105 0.84853 0.0
C1855 C 0.89517 0.53639 0.84261 0.0
C1856 C 0.90957 0.50112 0.86584 0.0
C1857 C 0.88297 0.52588 0.85987 0.0
C1858 C 0.97076 0.49157 0.79755 0.0
C1859 C 1.00064 0.47042 0.78875 0.0
N1860 N 0.98813 0.44942 0.79487 0.0
C1861 C 0.95851 0.46999 0.80445 0.0
C1862 C 0.99229 0.49198 0.79025 0.0
C1863 C 0.96747 0.4488 0.80271 0.0
C1864 C 0.91459 0.4663 0.76592 0.0
N1865 N 0.90994 0.48537 0.78152 0.0
C1866 C 0.87386 0.46094 0.78543 0.0
C1867 C 0.88967 0.48354 0.79025 0.0
C1868 C 0.87924 0.44051 0.77144 0.0
C1869 C 0.8992 0.44314 0.76057 0.0
H1870 H 0.93058 0.4687 0.75861 0.0
H1871 H 0.88583 0.49951 0.80105 0.0
C1872 C 0.9763 0.56487 0.86946 0.0
N1873 N 0.97626 0.54512 0.85171 0.0
C1874 C 0.98924 0.56795 0.89214 0.0
C1875 C 1.00146 0.53023 0.87742 0.0
C1876 C 0.9884 0.52794 0.85525 0.0
C1877 C 1.00195 0.55043 0.89593 0.0
H1878 H 0.96645 0.5782 0.86585 0.0
H1879 H 0.98819 0.51254 0.84095 0.0
C1880 C 0.91454 0.5223 0.74643 0.0
N1881 N 0.87869 0.49531 0.71114 0.0
C1882 C 0.91869 0.51254 0.72309 0.0
C1883 C 0.89199 0.51938 0.75134 0.0
C1884 C 0.90039 0.49881 0.70559 0.0
C1885 C 0.87414 0.50527 0.73344 0.0
C1886 C 0.98802 0.58589 0.80095 0.0
C1887 C 0.98655 0.60608 0.78953 0.0
C1888 C 1.00932 0.58303 0.81018 0.0
C1889 C 1.00661 0.62323 0.78751 0.0
C1890 C 0.02898 0.60057 0.80776 0.0
N1891 N 0.02722 0.62015 0.7966 0.0
C1892 C 0.91073 0.59434 0.80962 0.0
C1893 C 0.91402 0.58486 0.7673 0.0
C1894 C 0.89641 0.60994 0.80506 0.0
N1895 N 0.91904 0.5823 0.79074 0.0
C1896 C 0.89956 0.59984 0.76186 0.0
C1897 C 0.89074 0.61249 0.7809 0.0
H1898 H 0.91496 0.59148 0.828 0.0
H1899 H 0.92098 0.57492 0.75279 0.0
C1900 C 0.97223 0.50972 0.74399 0.0
N1901 N 0.98122 0.53404 0.75444 0.0
C1902 C 0.97809 0.49984 0.72218 0.0
C1903 C 1.00303 0.54046 0.72206 0.0
C1904 C 0.99666 0.54964 0.74443 0.0
C1905 C 0.99303 0.51546 0.71081 0.0
H1906 H 0.95909 0.49848 0.7518 0.0
H1907 H 1.00289 0.56915 0.75292 0.0
O1908 O 0.92658 0.53869 0.81955 0.0
O1909 O 0.96188 0.5123 0.7981 0.0
O1910 O 0.93239 0.53486 0.76426 0.0
O1911 O 0.96857 0.56961 0.80401 0.0
H1912 H 0.93725 0.50484 0.84415 0.0
H1913 H 0.88915 0.54992 0.83351 0.0
H1914 H 0.915 0.48736 0.87506 0.0
H1915 H 0.86759 0.53139 0.86433 0.0
H1916 H 0.01709 0.47039 0.78273 0.0
H1917 H 0.94217 0.4695 0.8109 0.0
H1918 H 1.00241 0.50875 0.78564 0.0
H1919 H 0.95799 0.43186 0.80761 0.0
H1920 H 0.85822 0.459 0.79366 0.0
H1921 H 0.90339 0.42726 0.74965 0.0
H1922 H 0.9895 0.58369 0.90641 0.0
H1923 H 1.01122 0.51651 0.88011 0.0
H1924 H 0.93577 0.51574 0.71828 0.0
H1925 H 0.88836 0.52741 0.76904 0.0
H1926 H 0.90346 0.49099 0.68756 0.0
H1927 H 0.85668 0.50223 0.73728 0.0
H1928 H 0.97009 0.60857 0.7825 0.0
H1929 H 1.01062 0.56752 0.8192 0.0
H1930 H 1.00577 0.63904 0.7788 0.0
H1931 H 0.04563 0.59867 0.81484 0.0
H1932 H 0.88973 0.61973 0.81999 0.0
H1933 H 0.89536 0.60168 0.7431 0.0
H1934 H 0.96994 0.48066 0.71349 0.0
H1935 H 1.01449 0.55279 0.71309 0.0
Li1936 Li 0.83914 0.4277 0.5228 0.0
Li1937 Li 0.81764 0.45599 0.50774 0.0
Li1938 Li 0.83497 0.4264 0.47954 0.0
Li1939 Li 0.85865 0.46372 0.50778 0.0
C1940 C 0.79436 0.39889 0.50498 0.0
N1941 N 0.76178 0.35929 0.51393 0.0
C1942 C 0.77507 0.4032 0.51519 0.0
C1943 C 0.79699 0.37442 0.49917 0.0
C1944 C 0.75881 0.38294 0.5196 0.0
C1945 C 0.78037 0.35466 0.50391 0.0
C1946 C 0.84768 0.48043 0.55647 0.0
C1947 C 0.85894 0.52374 0.57672 0.0
N1948 N 0.86329 0.51644 0.59837 0.0
C1949 C 0.85211 0.47336 0.57898 0.0
C1950 C 0.85091 0.50582 0.55534 0.0
C1951 C 0.86001 0.49184 0.59994 0.0
C1952 C 0.86589 0.41222 0.55507 0.0
N1953 N 0.84358 0.41059 0.54735 0.0
C1954 C 0.83161 0.39019 0.57957 0.0
C1955 C 0.82645 0.4002 0.5592 0.0
C1956 C 0.85451 0.39116 0.58734 0.0
C1957 C 0.87178 0.40198 0.57489 0.0
H1958 H 0.87919 0.42236 0.54648 0.0
H1959 H 0.80901 0.40047 0.55344 0.0
C1960 C 0.78186 0.47831 0.49522 0.0
N1961 N 0.79366 0.47113 0.51354 0.0
C1962 C 0.76397 0.48959 0.5001 0.0
C1963 C 0.771 0.48589 0.54254 0.0
C1964 C 0.78871 0.4747 0.53684 0.0
C1965 C 0.75848 0.49334 0.52397 0.0
H1966 H 0.78636 0.47523 0.47692 0.0
H1967 H 0.7984 0.46862 0.55094 0.0
C1968 C 0.87763 0.41465 0.49895 0.0
N1969 N 0.90787 0.38404 0.49688 0.0
C1970 C 0.90111 0.42506 0.50119 0.0
C1971 C 0.86951 0.38867 0.49558 0.0
C1972 C 0.91613 0.40927 0.5001 0.0
C1973 C 0.88508 0.37351 0.4946 0.0
C1974 C 0.84331 0.47998 0.4664 0.0
C1975 C 0.85037 0.47258 0.44388 0.0
C1976 C 0.84523 0.50537 0.47532 0.0
C1977 C 0.85977 0.49081 0.43087 0.0
C1978 C 0.85476 0.52304 0.46177 0.0
N1979 N 0.8618 0.51546 0.44004 0.0
C1980 C 0.81228 0.38789 0.44117 0.0
C1981 C 0.85161 0.40385 0.43894 0.0
C1982 C 0.81033 0.37021 0.41999 0.0
N1983 N 0.83264 0.40428 0.45003 0.0
C1984 C 0.85035 0.38674 0.41742 0.0
C1985 C 0.82946 0.36981 0.40778 0.0
H1986 H 0.79758 0.38862 0.45056 0.0
H1987 H 0.86765 0.41696 0.44672 0.0
C1988 C 0.89808 0.49128 0.53731 0.0
N1989 N 0.88685 0.48735 0.51436 0.0
C1990 C 0.92011 0.50637 0.54328 0.0
C1991 C 0.91915 0.51204 0.50144 0.0
C1992 C 0.89707 0.49706 0.49643 0.0
C1993 C 0.93134 0.5173 0.5253 0.0
H1994 H 0.8905 0.48151 0.55076 0.0
H1995 H 0.88879 0.49194 0.47785 0.0
O1996 O 0.81003 0.41847 0.49981 0.0
O1997 O 0.84112 0.46258 0.53558 0.0
O1998 O 0.86287 0.43003 0.50126 0.0
O1999 O 0.83448 0.46241 0.47954 0.0
H2000 H 0.77257 0.42195 0.5195 0.0
H2001 H 0.8116 0.37068 0.49094 0.0
H2002 H 0.7438 0.38601 0.52746 0.0
H2003 H 0.78219 0.33562 0.49951 0.0
H2004 H 0.86181 0.54348 0.57608 0.0
H2005 H 0.84966 0.45385 0.58031 0.0
H2006 H 0.84771 0.5116 0.53806 0.0
H2007 H 0.86362 0.48661 0.61742 0.0
H2008 H 0.81808 0.38201 0.58927 0.0
H2009 H 0.88958 0.4031 0.5809 0.0
H2010 H 0.75448 0.49526 0.4855 0.0
H2011 H 0.76705 0.48865 0.56111 0.0
H2012 H 0.9077 0.44515 0.50401 0.0
H2013 H 0.85144 0.38035 0.49408 0.0
H2014 H 0.93435 0.41709 0.50192 0.0
H2015 H 0.87906 0.35338 0.49214 0.0
H2016 H 0.84874 0.453 0.43659 0.0
H2017 H 0.83968 0.51134 0.49265 0.0
H2018 H 0.86549 0.48537 0.41352 0.0
H2019 H 0.85661 0.54279 0.46855 0.0
H2020 H 0.79395 0.35742 0.41279 0.0
H2021 H 0.86532 0.38691 0.40824 0.0
H2022 H 0.92823 0.50764 0.56152 0.0
H2023 H 0.92676 0.51765 0.48593 0.0
Li2024 Li 0.66814 0.52767 0.30419 0.0
Li2025 Li 0.70268 0.55702 0.28138 0.0
Li2026 Li 0.66665 0.52454 0.25283 0.0
Li2027 Li 0.69856 0.50238 0.2767 0.0
C2028 C 0.65294 0.56811 0.27797 0.0
N2029 N 0.62189 0.59664 0.2706 0.0
C2030 C 0.66022 0.59421 0.28208 0.0
C2031 C 0.62991 0.55648 0.27011 0.0
C2032 C 0.64423 0.60831 0.27831 0.0
C2033 C 0.61447 0.57125 0.26643 0.0
C2034 C 0.71962 0.53818 0.32804 0.0
C2035 C 0.75663 0.5386 0.34834 0.0
N2036 N 0.75056 0.54823 0.36998 0.0
C2037 C 0.71373 0.54812 0.35043 0.0
C2038 C 0.74119 0.53333 0.32691 0.0
C2039 C 0.72962 0.55304 0.37145 0.0
C2040 C 0.64788 0.51057 0.35211 0.0
N2041 N 0.65008 0.52917 0.33834 0.0
C2042 C 0.63014 0.55081 0.36885 0.0
C2043 C 0.64108 0.54912 0.34692 0.0
C2044 C 0.62776 0.53201 0.38357 0.0
C2045 C 0.63708 0.51162 0.37413 0.0
H2046 H 0.65463 0.49448 0.34625 0.0
H2047 H 0.64231 0.56426 0.33683 0.0
C2048 C 0.72019 0.6049 0.25992 0.0
N2049 N 0.72278 0.59525 0.28085 0.0
C2050 C 0.73171 0.6299 0.25817 0.0
C2051 C 0.74899 0.63608 0.29941 0.0
C2052 C 0.73708 0.61093 0.30047 0.0
C2053 C 0.7467 0.64651 0.278 0.0
H2054 H 0.7089 0.59324 0.24418 0.0
H2055 H 0.73939 0.60414 0.31736 0.0
C2056 C 0.6448 0.47569 0.26645 0.0
N2057 N 0.60916 0.43398 0.24974 0.0
C2058 C 0.649 0.45353 0.25424 0.0
C2059 C 0.6225 0.47666 0.27018 0.0
C2060 C 0.63075 0.43262 0.24597 0.0
C2061 C 0.6047 0.45537 0.26154 0.0
C2062 C 0.71073 0.52624 0.23117 0.0
C2063 C 0.69849 0.51034 0.2099 0.0
C2064 C 0.73281 0.54028 0.23076 0.0
C2065 C 0.70852 0.50897 0.18841 0.0
C2066 C 0.74231 0.53822 0.20895 0.0
N2067 N 0.73005 0.52278 0.1884 0.0
C2068 C 0.65177 0.54829 0.20961 0.0
C2069 C 0.63146 0.50633 0.20315 0.0
C2070 C 0.64093 0.55128 0.18672 0.0
N2071 N 0.64728 0.52601 0.21789 0.0
C2072 C 0.62018 0.5086 0.18009 0.0
C2073 C 0.62473 0.53135 0.17101 0.0
H2074 H 0.66413 0.56416 0.22072 0.0
H2075 H 0.62752 0.48846 0.20899 0.0
C2076 C 0.71781 0.45587 0.29315 0.0
N2077 N 0.71684 0.46949 0.27467 0.0
C2078 C 0.72898 0.43523 0.29229 0.0
C2079 C 0.73865 0.44124 0.25334 0.0
C2080 C 0.7273 0.46179 0.25486 0.0
C2081 C 0.74011 0.42698 0.27222 0.0
H2082 H 0.70985 0.46083 0.30914 0.0
H2083 H 0.72706 0.47157 0.23968 0.0
O2084 O 0.66833 0.55396 0.28134 0.0
O2085 O 0.70411 0.53264 0.30741 0.0
O2086 O 0.6625 0.4962 0.27498 0.0
O2087 O 0.70118 0.52802 0.25233 0.0
H2088 H 0.678 0.60346 0.28822 0.0
H2089 H 0.62407 0.53627 0.26669 0.0
H2090 H 0.64959 0.62855 0.28149 0.0
H2091 H 0.5966 0.56252 0.26024 0.0
H2092 H 0.77341 0.53496 0.34778 0.0
H2093 H 0.69705 0.5519 0.35156 0.0
H2094 H 0.7459 0.52551 0.30968 0.0
H2095 H 0.72529 0.56066 0.38894 0.0
H2096 H 0.62344 0.56706 0.37422 0.0
H2097 H 0.63611 0.49621 0.38386 0.0
H2098 H 0.72886 0.63621 0.24109 0.0
H2099 H 0.76011 0.64735 0.31546 0.0
H2100 H 0.6662 0.45248 0.2513 0.0
H2101 H 0.619 0.49365 0.2797 0.0
H2102 H 0.63374 0.41532 0.23657 0.0
H2103 H 0.58734 0.45583 0.26427 0.0
H2104 H 0.68143 0.49922 0.20999 0.0
H2105 H 0.74249 0.55259 0.24715 0.0
H2106 H 0.69921 0.49688 0.17175 0.0
H2107 H 0.75942 0.54891 0.20837 0.0
H2108 H 0.6454 0.56932 0.18127 0.0
H2109 H 0.60801 0.49238 0.16924 0.0
H2110 H 0.7289 0.4257 0.30767 0.0
H2111 H 0.74648 0.43664 0.23716 0.0
La2112 La 0.04464 0.03669 1.0066 0.0
La2113 La 0.08643 0.06208 0.03693 0.0
C2114 C 1.00269 0.02111 0.99124 0.0
C2115 C 0.98328 0.03196 0.99592 0.0
C2116 C 0.96519 0.0282 0.9771 0.0
C2117 C 0.94778 0.04064 0.98029 0.0
C2118 C 0.9484 0.05697 1.00231 0.0
C2119 C 0.96651 0.06087 0.02114 0.0
C2120 C 0.98395 0.04847 0.01793 0.0
C2121 C 0.07658 0.03543 0.97458 0.0
C2122 C 0.05965 0.0962 0.01231 0.0
C2123 C 0.12863 0.07666 0.05171 0.0
C2124 C 0.14793 0.06487 0.04796 0.0
C2125 C 0.15761 0.0555 0.06723 0.0
C2126 C 0.17492 0.04294 0.06386 0.0
C2127 C 0.18315 0.03998 0.04128 0.0
C2128 C 0.17363 0.04927 0.02196 0.0
C2129 C 0.15607 0.06158 0.02522 0.0
C2130 C 0.05449 0.06304 0.06892 0.0
C2131 C 0.07088 1.00246 0.03135 0.0
O2132 O 0.01732 0.0341 0.97975 0.0
O2133 O 1.01277 0.01379 1.00953 0.0
O2134 O 0.05498 0.02523 0.97048 0.0
O2135 O 0.08017 0.0453 0.99776 0.0
O2136 O 0.04268 0.07589 1.00737 0.0
O2137 O 0.07966 0.09517 0.02327 0.0
O2138 O 0.1137 0.06546 0.06411 0.0
O2139 O 0.11876 0.08351 0.03299 0.0
O2140 O 0.07602 0.07374 0.07317 0.0
O2141 O 0.05092 0.05328 0.04574 0.0
O2142 O 0.08783 0.02276 0.03716 0.0
O2143 O 0.0512 1.00347 0.01975 0.0
H2144 H 0.96478 0.016 0.95981 0.0
H2145 H 0.93385 0.0376 0.96564 0.0
H2146 H 0.96711 0.07349 0.03823 0.0
H2147 H 0.99809 0.05203 0.03242 0.0
H2148 H 0.15159 0.05764 0.08489 0.0
H2149 H 0.18208 0.03574 0.07889 0.0
H2150 H 0.1798 0.04695 1.00438 0.0
H2151 H 0.14882 0.06833 1.00993 0.0
La2152 La 0.32581 0.79638 0.25505 0.0
La2153 La 0.30237 0.8078 0.29166 0.0
C2154 C 0.34895 0.79605 0.22018 0.0
C2155 C 0.35385 0.81356 0.20381 0.0
C2156 C 0.37421 0.81627 0.19351 0.0
C2157 C 0.3787 0.8328 0.17744 0.0
C2158 C 0.36278 0.84655 0.17188 0.0
C2159 C 0.34335 0.84532 0.18369 0.0
C2160 C 0.33883 0.82877 0.19958 0.0
C2161 C 0.34791 0.78913 0.29679 0.0
C2162 C 0.32979 0.85151 0.27547 0.0
C2163 C 0.28166 0.80945 0.3284 0.0
C2164 C 0.27733 0.79258 0.34569 0.0
C2165 C 0.25575 0.77597 0.34339 0.0
C2166 C 0.252 0.75823 0.35828 0.0
C2167 C 0.2697 0.75743 0.3758 0.0
C2168 C 0.29117 0.77392 0.37826 0.0
C2169 C 0.29502 0.79145 0.36325 0.0
C2170 C 0.27903 0.81387 0.25023 0.0
C2171 C 0.29705 0.75254 0.26834 0.0
O2172 O 0.35756 0.80558 0.24277 0.0
O2173 O 0.3277 0.7835 0.21814 0.0
O2174 O 0.34389 0.77496 0.27554 0.0
O2175 O 0.33857 0.80734 0.2944 0.0
O2176 O 0.32754 0.83509 0.25548 0.0
O2177 O 0.32315 0.84459 0.29521 0.0
O2178 O 0.27168 0.79994 0.30621 0.0
O2179 O 0.30282 0.82156 0.32887 0.0
O2180 O 0.28274 0.82804 0.27145 0.0
O2181 O 0.28939 0.79642 0.25254 0.0
O2182 O 0.29944 0.76811 0.28914 0.0
O2183 O 0.30336 0.76038 0.24886 0.0
H2184 H 0.3862 0.80509 0.1973 0.0
H2185 H 0.39369 0.83368 0.16818 0.0
H2186 H 0.33096 0.85587 0.17932 0.0
H2187 H 0.32324 0.82722 0.20785 0.0
H2188 H 0.24193 0.77646 0.32983 0.0
H2189 H 0.23535 0.74544 0.35646 0.0
H2190 H 0.30488 0.77325 0.39188 0.0
H2191 H 0.31187 0.80385 0.36527 0.0
La2192 La 0.59117 0.04889 0.51883 0.0
La2193 La 0.53985 0.04767 0.52566 0.0
C2194 C 0.63165 0.04339 0.52448 0.0
C2195 C 0.64552 0.02427 0.5207 0.0
C2196 C 0.65772 0.02235 0.50051 0.0
C2197 C 0.67377 1.00757 0.49899 0.0
C2198 C 0.67807 0.99446 0.51767 0.0
C2199 C 0.66523 0.99542 0.53725 0.0
C2200 C 0.64917 1.01014 0.53874 0.0
C2201 C 0.56384 0.04824 0.47965 0.0
C2202 C 0.55429 0.99603 0.51446 0.0
C2203 C 0.49951 0.05353 0.52041 0.0
C2204 C 0.48587 0.07286 0.52378 0.0
C2205 C 0.47081 0.07235 0.54149 0.0
C2206 C 0.45506 0.08749 0.54237 0.0
C2207 C 0.45399 0.1035 0.52554 0.0
C2208 C 0.46971 0.10495 0.50858 0.0
C2209 C 0.48546 0.0898 0.50767 0.0
C2210 C 0.56719 0.04711 0.56404 0.0
C2211 C 0.57674 0.10068 0.53002 0.0
O2212 O 0.62252 0.04996 0.50514 0.0
O2213 O 0.61811 0.04226 0.54145 0.0
O2214 O 0.58588 0.05634 0.48193 0.0
O2215 O 0.55875 0.03801 0.49738 0.0
O2216 O 0.57596 1.00869 0.51646 0.0
O2217 O 0.53695 1.00717 0.51548 0.0
O2218 O 0.50897 0.04776 0.54007 0.0
O2219 O 0.51266 0.05377 0.50305 0.0
O2220 O 0.5453 0.03781 0.56153 0.0
O2221 O 0.57227 0.05887 0.54728 0.0
O2222 O 0.55512 0.08799 0.52851 0.0
O2223 O 0.59399 0.08943 0.52867 0.0
H2224 H 0.65555 0.03309 0.48634 0.0
H2225 H 0.6835 1.00717 0.48372 0.0
H2226 H 0.66831 0.98557 0.55193 0.0
H2227 H 0.64024 1.01119 0.55454 0.0
H2228 H 0.47051 0.05942 0.55404 0.0
H2229 H 0.44306 0.08593 0.55553 0.0
H2230 H 0.46913 0.11704 0.49533 0.0
H2231 H 0.49667 0.09066 0.49371 0.0
La2232 La 0.2916 0.3069 0.77231 0.0
La2233 La 0.33873 0.29157 0.77257 0.0
C2234 C 0.24971 0.30573 0.77547 0.0
C2235 C 0.23263 0.30604 0.79305 0.0
C2236 C 0.21578 0.31939 0.78952 0.0
C2237 C 0.19816 0.31863 0.80418 0.0
C2238 C 0.19695 0.30457 0.8229 0.0
C2239 C 0.21427 0.2919 0.82713 0.0
C2240 C 0.23192 0.29257 0.81231 0.0
C2241 C 0.32597 0.34803 0.77003 0.0
C2242 C 0.32194 0.30936 0.82332 0.0
C2243 C 0.38056 0.29302 0.76901 0.0
C2244 C 0.39703 0.29338 0.75062 0.0
C2245 C 0.3988 0.27103 0.73576 0.0
C2246 C 0.41629 0.27098 0.72093 0.0
C2247 C 0.43264 0.2932 0.72078 0.0
C2248 C 0.43051 0.31562 0.73493 0.0
C2249 C 0.41297 0.31572 0.74969 0.0
C2250 C 0.30429 0.25027 0.77411 0.0
C2251 C 0.30864 0.2892 0.72155 0.0
O2252 O 0.26559 0.32623 0.77709 0.0
O2253 O 0.25769 0.28574 0.77041 0.0
O2254 O 0.30431 0.34701 0.76943 0.0
O2255 O 0.32696 0.32538 0.77143 0.0
O2256 O 0.30214 0.31013 0.81145 0.0
O2257 O 0.33911 0.3039 0.81205 0.0
O2258 O 0.36472 0.27247 0.76745 0.0
O2259 O 0.37273 0.31295 0.77521 0.0
O2260 O 0.32589 0.25118 0.77415 0.0
O2261 O 0.30336 0.2731 0.77356 0.0
O2262 O 0.32849 0.28874 0.73347 0.0
O2263 O 0.2913 0.29425 0.73281 0.0
H2264 H 0.21591 0.32999 0.77491 0.0
H2265 H 0.18509 0.32855 0.80051 0.0
H2266 H 0.21372 0.28088 0.84141 0.0
H2267 H 0.24469 0.2822 0.81561 0.0
H2268 H 0.38707 0.25338 0.7361 0.0
H2269 H 0.41752 0.25344 0.71017 0.0
H2270 H 0.44282 0.33302 0.73505 0.0
H2271 H 0.41234 0.33321 0.76098 0.0
La2272 La 0.05998 0.074 0.53271 0.0
La2273 La 0.07016 0.02549 0.51186 0.0
C2274 C 0.05849 0.11928 0.53976 0.0
C2275 C 0.06302 0.13829 0.52424 0.0
C2276 C 0.04908 0.15523 0.52332 0.0
C2277 C 0.05335 0.17347 0.50878 0.0
C2278 C 0.07161 0.17493 0.495 0.0
C2279 C 0.08515 0.15755 0.4953 0.0
C2280 C 0.08085 0.13928 0.50976 0.0
C2281 C 0.02766 0.0338 0.53743 0.0
C2282 C 0.04909 0.05384 0.47279 0.0
C2283 C 0.06659 0.97907 0.50193 0.0
C2284 C 0.06255 0.95953 0.517 0.0
C2285 C 0.08001 0.94757 0.52255 0.0
C2286 C 0.0769 0.92963 0.53744 0.0
C2287 C 0.05615 0.92317 0.54671 0.0
C2288 C 0.03881 0.93534 0.54164 0.0
C2289 C 0.04199 0.95348 0.52695 0.0
C2290 C 0.10711 0.06242 0.5103 0.0
C2291 C 0.08294 0.04614 0.57087 0.0
O2292 O 0.04049 0.10083 0.53181 0.0
O2293 O 0.07613 0.11143 0.5478 0.0
O2294 O 0.03353 0.0553 0.55231 0.0
O2295 O 0.03933 0.03657 0.51988 0.0
O2296 O 0.05008 0.07181 0.49224 0.0
O2297 O 0.05655 0.03355 0.47608 0.0
O2298 O 0.08611 0.99558 0.50813 0.0
O2299 O 0.04978 0.98949 0.49691 0.0
O2300 O 0.10475 0.03875 0.50231 0.0
O2301 O 0.08846 0.06411 0.51827 0.0
O2302 O 0.0777 0.0266 0.55229 0.0
O2303 O 0.07913 0.068 0.56683 0.0
H2304 H 0.03504 0.15449 0.53404 0.0
H2305 H 0.04274 0.18678 0.50865 0.0
H2306 H 0.0993 0.15847 0.48473 0.0
H2307 H 0.0916 0.1261 0.50979 0.0
H2308 H 0.09608 0.95213 0.51533 0.0
H2309 H 0.0904 0.92032 0.54124 0.0
H2310 H 0.02272 0.9305 0.54875 0.0
H2311 H 0.02833 0.96263 0.52334 0.0
La2312 La 0.33605 0.81648 0.76963 0.0
La2313 La 0.29398 0.78041 0.77157 0.0
C2314 C 0.3754 0.84415 0.78232 0.0
C2315 C 0.39824 0.83964 0.78414 0.0
C2316 C 0.40279 0.81878 0.76949 0.0
C2317 C 0.42417 0.81347 0.77311 0.0
C2318 C 0.441 0.829 0.7914 0.0
C2319 C 0.43646 0.84985 0.80591 0.0
C2320 C 0.41514 0.85514 0.80229 0.0
C2321 C 0.31536 0.79031 0.72667 0.0
C2322 C 0.33943 0.75785 0.77402 0.0
C2323 C 0.25409 0.75458 0.7572 0.0
C2324 C 0.23125 0.75963 0.75649 0.0
C2325 C 0.22112 0.7637 0.77788 0.0
C2326 C 0.19938 0.7683 0.77661 0.0
C2327 C 0.1876 0.76885 0.75401 0.0
C2328 C 0.1978 0.7654 0.73274 0.0
C2329 C 0.2195 0.76074 0.73396 0.0
C2330 C 0.31378 0.80523 0.81456 0.0
C2331 C 0.29132 0.83983 0.76834 0.0
O2332 O 0.36437 0.8404 0.76023 0.0
O2333 O 0.36266 0.83449 0.79767 0.0
O2334 O 0.32689 0.81353 0.73027 0.0
O2335 O 0.3177 0.78275 0.74647 0.0
O2336 O 0.35018 0.78181 0.77374 0.0
O2337 O 0.3166 0.75282 0.77316 0.0
O2338 O 0.2652 0.7552 0.77867 0.0
O2339 O 0.26713 0.76591 0.74303 0.0
O2340 O 0.30205 0.78211 0.81065 0.0
O2341 O 0.31229 0.81375 0.79509 0.0
O2342 O 0.28046 0.81584 0.76848 0.0
O2343 O 0.31408 0.84451 0.76906 0.0
H2344 H 0.38972 0.80639 0.75563 0.0
H2345 H 0.42751 0.79719 0.76198 0.0
H2346 H 0.44934 0.86179 0.82024 0.0
H2347 H 0.41168 0.87101 0.81398 0.0
H2348 H 0.2298 0.76308 0.7955 0.0
H2349 H 0.19147 0.77079 0.79311 0.0
H2350 H 0.18875 0.76569 0.71518 0.0
H2351 H 0.22701 0.75776 0.71724 0.0
La2352 La 0.5707 0.0403 0.04822 0.0
La2353 La 0.56385 0.06061 1.00709 0.0
C2354 C 0.57718 0.02792 0.08878 0.0
C2355 C 0.55961 0.017 0.10272 0.0
C2356 C 0.54994 0.991 0.09767 0.0
C2357 C 0.53065 0.98106 0.10779 0.0
C2358 C 0.5213 0.9969 0.12368 0.0
C2359 C 0.5311 0.02285 0.12885 0.0
C2360 C 0.55001 0.03281 0.11844 0.0
C2361 C 0.57771 1.01181 1.00814 0.0
C2362 C 0.52331 0.02232 0.01889 0.0
C2363 C 0.55761 0.07283 0.96663 0.0
C2364 C 0.57503 0.08172 0.95184 0.0
C2365 C 0.5785 0.10629 0.94743 0.0
C2366 C 0.59446 0.11454 0.93242 0.0
C2367 C 0.60644 0.09788 0.92156 0.0
C2368 C 0.60534 0.07477 0.92869 0.0
C2369 C 0.58947 0.06656 0.94358 0.0
C2370 C 0.55502 0.08795 0.0466 0.0
C2371 C 0.61123 0.07763 0.03563 0.0
O2372 O 0.57832 0.01381 0.06819 0.0
O2373 O 0.57796 0.05096 0.08627 0.0
O2374 O 0.56695 1.00408 0.02529 0.0
O2375 O 0.58448 0.0353 0.01389 0.0
O2376 O 0.53386 0.02864 0.04147 0.0
O2377 O 0.53429 0.02917 1.00121 0.0
O2378 O 0.55863 0.08799 0.98718 0.0
O2379 O 0.55465 0.04947 0.96924 0.0
O2380 O 0.56666 0.09658 0.03049 0.0
O2381 O 0.54925 0.06452 0.0407 0.0
O2382 O 0.60021 0.07221 0.01348 0.0
O2383 O 0.60074 0.07133 0.05385 0.0
H2384 H 0.5569 0.9784 0.08537 0.0
H2385 H 0.5232 0.96111 0.10326 0.0
H2386 H 0.5244 0.03546 0.14144 0.0
H2387 H 0.55687 0.05292 0.12245 0.0
H2388 H 0.56806 0.11855 0.95452 0.0
H2389 H 0.59534 0.13244 0.92689 0.0
H2390 H 0.61476 0.06192 0.92043 0.0
H2391 H 0.58776 0.04788 0.94746 0.0
La2392 La 0.32815 0.32704 0.28777 0.0
La2393 La 0.30762 0.27478 0.26159 0.0
C2394 C 0.33787 0.37361 0.30143 0.0
C2395 C 0.32486 0.39173 0.2962 0.0
C2396 C 0.32098 0.40899 0.31554 0.0
C2397 C 0.30637 0.42436 0.31119 0.0
C2398 C 0.29579 0.42266 0.28742 0.0
C2399 C 0.29973 0.40557 0.26804 0.0
C2400 C 0.31408 0.39002 0.27241 0.0
C2401 C 0.32621 0.29317 0.3172 0.0
C2402 C 0.27418 0.30726 0.27733 0.0
C2403 C 0.29456 0.22782 0.25476 0.0
C2404 C 0.30778 0.20885 0.25279 0.0
C2405 C 0.29814 0.1844 0.24002 0.0
C2406 C 0.31066 0.16615 0.2403 0.0
C2407 C 0.33256 0.17247 0.25375 0.0
C2408 C 0.34254 0.19714 0.26524 0.0
C2409 C 0.33032 0.21524 0.26447 0.0
C2410 C 0.31161 0.30301 0.22679 0.0
C2411 C 0.36157 0.29666 0.2679 0.0
O2412 O 0.3284 0.35802 0.31469 0.0
O2413 O 0.34562 0.36236 0.2828 0.0
O2414 O 0.34258 0.313 0.31878 0.0
O2415 O 0.31166 0.29347 0.29938 0.0
O2416 O 0.29193 0.32669 0.28345 0.0
O2417 O 0.27593 0.28463 0.268 0.0
O2418 O 0.29504 0.24048 0.2371 0.0
O2419 O 0.2979 0.24239 0.27622 0.0
O2420 O 0.30299 0.27915 0.22344 0.0
O2421 O 0.31733 0.31045 0.2499 0.0
O2422 O 0.34428 0.2766 0.26389 0.0
O2423 O 0.35894 0.31895 0.27651 0.0
H2424 H 0.32879 0.4101 0.33404 0.0
H2425 H 0.30321 0.43747 0.32625 0.0
H2426 H 0.29145 0.40408 0.24964 0.0
H2427 H 0.31633 0.37637 0.25727 0.0
H2428 H 0.28084 0.17933 0.23057 0.0
H2429 H 0.30292 0.14698 0.23132 0.0
H2430 H 0.35943 0.20208 0.27566 0.0
H2431 H 0.33812 0.23404 0.27387 0.0
La2432 La 0.56116 0.57154 0.0325 0.0
La2433 La 0.57207 0.52764 0.01191 0.0
C2434 C 0.55902 0.61678 0.04037 0.0
C2435 C 0.56309 0.63585 0.02483 0.0
C2436 C 0.55055 0.65425 0.02593 0.0
C2437 C 0.55486 0.67276 0.01164 0.0
C2438 C 0.57167 0.67291 0.996 0.0
C2439 C 0.58373 0.65408 0.99431 0.0
C2440 C 0.5795 0.63568 1.00864 0.0
C2441 C 0.52746 0.53183 0.03547 0.0
C2442 C 0.54936 0.55373 0.97301 0.0
C2443 C 0.57825 0.48369 1.00437 0.0
C2444 C 0.57296 0.46361 0.01859 0.0
C2445 C 0.57935 0.441 0.01196 0.0
C2446 C 0.57382 0.42185 0.02537 0.0
C2447 C 0.5619 0.42527 0.04548 0.0
C2448 C 0.55608 0.44805 0.05249 0.0
C2449 C 0.56165 0.46707 0.03922 0.0
C2450 C 0.60506 0.56773 1.00868 0.0
C2451 C 0.58251 0.54523 0.07161 0.0
O2452 O 0.5412 0.59814 0.03277 0.0
O2453 O 0.57688 0.60907 0.04772 0.0
O2454 O 0.5352 0.5519 0.0521 0.0
O2455 O 0.53885 0.53457 0.01762 0.0
O2456 O 0.55298 0.57218 0.9924 0.0
O2457 O 0.55471 0.53249 0.97648 0.0
O2458 O 0.59384 0.50342 0.01541 0.0
O2459 O 0.56079 0.48994 0.99384 0.0
O2460 O 0.59795 0.54741 0.99241 0.0
O2461 O 0.59387 0.56445 0.02644 0.0
O2462 O 0.57806 0.52668 0.05225 0.0
O2463 O 0.5782 0.56683 0.06805 0.0
H2464 H 0.53768 0.65452 0.03809 0.0
H2465 H 0.54545 0.68724 0.01311 0.0
H2466 H 0.5968 0.65402 0.98238 0.0
H2467 H 0.58928 0.62153 1.00732 0.0
H2468 H 0.58832 0.43805 0.99631 0.0
H2469 H 0.57837 0.40424 0.0198 0.0
H2470 H 0.54678 0.45088 0.06791 0.0
H2471 H 0.55656 0.48419 0.04491 0.0
La2472 La 0.83567 0.31711 0.26981 0.0
La2473 La 0.79391 0.28014 0.27061 0.0
C2474 C 0.87542 0.34403 0.28061 0.0
C2475 C 0.89754 0.33763 0.28365 0.0
C2476 C 0.9156 0.34982 0.27275 0.0
C2477 C 0.93692 0.34438 0.27616 0.0
C2478 C 0.94021 0.32665 0.29041 0.0
C2479 C 0.92192 0.31355 0.30029 0.0
C2480 C 0.90068 0.31904 0.29699 0.0
C2481 C 0.81543 0.29232 0.2266 0.0
C2482 C 0.83953 0.25837 0.27358 0.0
C2483 C 0.75416 0.25364 0.25727 0.0
C2484 C 0.73135 0.259 0.25571 0.0
C2485 C 0.71956 0.26009 0.27616 0.0
C2486 C 0.69777 0.26456 0.2743 0.0
C2487 C 0.68746 0.26784 0.25198 0.0
C2488 C 0.69928 0.26739 0.23169 0.0
C2489 C 0.7211 0.26296 0.23352 0.0
C2490 C 0.81399 0.30413 0.31399 0.0
C2491 C 0.7908 0.33973 0.2686 0.0
O2492 O 0.86462 0.33804 0.25832 0.0
O2493 O 0.86196 0.33833 0.2969 0.0
O2494 O 0.82573 0.31591 0.23087 0.0
O2495 O 0.81776 0.2838 0.24585 0.0
O2496 O 0.84982 0.28299 0.27629 0.0
O2497 O 0.81657 0.25249 0.26954 0.0
O2498 O 0.76516 0.25612 0.27921 0.0
O2499 O 0.76747 0.26291 0.24217 0.0
O2500 O 0.80307 0.28069 0.30942 0.0
O2501 O 0.81191 0.31316 0.29496 0.0
O2502 O 0.78003 0.31535 0.26713 0.0
O2503 O 0.81365 0.345 0.2705 0.0
H2504 H 0.91333 0.36393 0.26214 0.0
H2505 H 0.95108 0.35472 0.26864 0.0
H2506 H 0.92441 0.29999 0.31152 0.0
H2507 H 0.88696 0.3092 0.30543 0.0
H2508 H 0.72697 0.25712 0.29349 0.0
H2509 H 0.68864 0.26469 0.29004 0.0
H2510 H 0.69138 0.26977 0.21432 0.0
H2511 H 0.72977 0.26225 0.21745 0.0
La2512 La 0.07427 0.54149 0.54993 0.0
La2513 La 0.06187 0.5519 0.50011 0.0
C2514 C 0.0745 0.52422 0.58832 0.0
C2515 C 0.05556 0.5144 0.6011 0.0
C2516 C 0.04273 0.48944 0.59348 0.0
C2517 C 0.02365 0.48054 0.60432 0.0
C2518 C 0.01767 0.49622 0.62339 0.0
C2519 C 0.0303 0.52119 0.63085 0.0
C2520 C 0.04911 0.53023 0.61977 0.0
C2521 C 0.09153 0.51908 0.51387 0.0
C2522 C 0.02369 0.52216 0.52126 0.0
C2523 C 0.06505 0.55285 0.45657 0.0
C2524 C 0.08185 0.56992 0.44634 0.0
C2525 C 0.08107 0.59506 0.44687 0.0
C2526 C 0.09498 0.60942 0.43333 0.0
C2527 C 0.10895 0.59816 0.41896 0.0
C2528 C 0.11311 0.57519 0.42265 0.0
C2529 C 0.09919 0.56082 0.43586 0.0
C2530 C 0.04956 0.58544 0.53229 0.0
C2531 C 0.10811 0.58215 0.53433 0.0
O2532 O 0.07427 0.51097 0.5668 0.0
O2533 O 0.07935 0.54837 0.58838 0.0
O2534 O 0.10285 0.52938 0.53505 0.0
O2535 O 0.07138 0.52166 0.51349 0.0
O2536 O 0.0369 0.53089 0.5426 0.0
O2537 O 0.03223 0.52338 0.50079 0.0
O2538 O 0.05 0.56229 0.46783 0.0
O2539 O 0.0736 0.53782 0.4683 0.0
O2540 O 0.04564 0.58295 0.50879 0.0
O2541 O 0.059 0.56815 0.53642 0.0
O2542 O 0.09703 0.57329 0.51197 0.0
O2543 O 0.09913 0.57594 0.55357 0.0
H2544 H 0.04724 0.47681 0.57895 0.0
H2545 H 1.01392 0.46135 0.59823 0.0
H2546 H 0.0261 0.53346 0.64593 0.0
H2547 H 0.05866 0.5495 0.62594 0.0
H2548 H 0.06857 0.60294 0.45596 0.0
H2549 H 0.09211 0.62745 0.43097 0.0
H2550 H 0.12446 0.56665 0.41214 0.0
H2551 H 0.10083 0.5419 0.4362 0.0
La2552 La 0.7915 0.80648 0.27204 0.0
La2553 La 0.83895 0.79163 0.27228 0.0
C2554 C 0.74925 0.80306 0.27499 0.0
C2555 C 0.73254 0.80571 0.29265 0.0
C2556 C 0.71292 0.81365 0.28531 0.0
C2557 C 0.69546 0.81376 0.30009 0.0
C2558 C 0.69715 0.80607 0.32278 0.0
C2559 C 0.71728 0.79913 0.33068 0.0
C2560 C 0.73472 0.79877 0.31571 0.0
C2561 C 0.82576 0.84805 0.27069 0.0
C2562 C 0.82203 0.80977 0.32307 0.0
C2563 C 0.88093 0.7938 0.26901 0.0
C2564 C 0.89739 0.79381 0.25063 0.0
C2565 C 0.89835 0.77154 0.23507 0.0
C2566 C 0.9158 0.77121 0.2202 0.0
C2567 C 0.93289 0.79305 0.22073 0.0
C2568 C 0.93155 0.81542 0.23561 0.0
C2569 C 0.91407 0.81579 0.25039 0.0
C2570 C 0.80454 0.7501 0.2733 0.0
C2571 C 0.8088 0.78895 0.2213 0.0
O2572 O 0.76344 0.82336 0.27195 0.0
O2573 O 0.75911 0.78439 0.27471 0.0
O2574 O 0.80408 0.84698 0.27042 0.0
O2575 O 0.82684 0.82532 0.27168 0.0
O2576 O 0.8024 0.8111 0.31125 0.0
O2577 O 0.83901 0.8037 0.31179 0.0
O2578 O 0.86549 0.77311 0.26829 0.0
O2579 O 0.87263 0.81354 0.2742 0.0
O2580 O 0.82615 0.75101 0.27329 0.0
O2581 O 0.80368 0.77295 0.27283 0.0
O2582 O 0.82877 0.78884 0.23318 0.0
O2583 O 0.79135 0.7936 0.23259 0.0
H2584 H 0.71077 0.8191 0.26768 0.0
H2585 H 0.68029 0.81931 0.29353 0.0
H2586 H 0.71916 0.79325 0.34812 0.0
H2587 H 0.74963 0.79256 0.32191 0.0
H2588 H 0.88599 0.75415 0.23483 0.0
H2589 H 0.9164 0.75374 0.20884 0.0
H2590 H 0.94442 0.83252 0.23626 0.0
H2591 H 0.91403 0.83319 0.26223 0.0
La2592 La 0.82777 0.29753 0.75202 0.0
La2593 La 0.79806 0.30173 0.78916 0.0
C2594 C 0.84673 0.29621 0.71419 0.0
C2595 C 0.85503 0.31531 0.70047 0.0
C2596 C 0.87423 0.31415 0.6887 0.0
C2597 C 0.88169 0.33174 0.67443 0.0
C2598 C 0.86956 0.35004 0.67186 0.0
C2599 C 0.85244 0.35323 0.68632 0.0
C2600 C 0.84513 0.3358 0.70069 0.0
C2601 C 0.85393 0.29648 0.7933 0.0
C2602 C 0.82514 0.35006 0.77866 0.0
C2603 C 0.7763 0.30037 0.82464 0.0
C2604 C 0.7747 0.28798 0.84523 0.0
C2605 C 0.75286 0.27827 0.85085 0.0
C2606 C 0.75023 0.26318 0.86825 0.0
C2607 C 0.76955 0.25824 0.88023 0.0
C2608 C 0.79141 0.26786 0.87462 0.0
C2609 C 0.79401 0.28263 0.85692 0.0
C2610 C 0.77153 0.30244 0.7481 0.0
C2611 C 0.80923 0.25048 0.76891 0.0
O2612 O 0.85766 0.30092 0.73612 0.0
O2613 O 0.82457 0.28893 0.71369 0.0
O2614 O 0.85979 0.29593 0.77192 0.0
O2615 O 0.8331 0.29844 0.79178 0.0
O2616 O 0.8294 0.33687 0.75874 0.0
O2617 O 0.81501 0.34012 0.79543 0.0
O2618 O 0.76991 0.28469 0.80377 0.0
O2619 O 0.79497 0.31777 0.82483 0.0
O2620 O 0.76711 0.30612 0.76997 0.0
O2621 O 0.7924 0.30058 0.74932 0.0
O2622 O 0.80423 0.26486 0.78767 0.0
O2623 O 0.8132 0.25881 0.749 0.0
H2624 H 0.88265 0.29899 0.68954 0.0
H2625 H 0.89502 0.32935 0.66331 0.0
H2626 H 0.84319 0.36757 0.68453 0.0
H2627 H 0.83107 0.33761 0.71087 0.0
H2628 H 0.73784 0.28181 0.84127 0.0
H2629 H 0.73333 0.25551 0.8725 0.0
H2630 H 0.80633 0.26378 0.88382 0.0
H2631 H 0.81086 0.28939 0.85206 0.0
La2632 La 0.82705 0.8241 0.78462 0.0
La2633 La 0.80472 0.77501 0.75965 0.0
C2634 C 0.83745 0.87102 0.7974 0.0
C2635 C 0.82316 0.88849 0.79382 0.0
C2636 C 0.82633 0.91098 0.81051 0.0
C2637 C 0.81214 0.92716 0.80724 0.0
C2638 C 0.79473 0.92081 0.78731 0.0
C2639 C 0.79128 0.89813 0.7709 0.0
C2640 C 0.80544 0.88207 0.7741 0.0
C2641 C 0.82536 0.79158 0.81528 0.0
C2642 C 0.77282 0.80618 0.77836 0.0
C2643 C 0.79369 0.72846 0.74466 0.0
C2644 C 0.80649 0.70996 0.74929 0.0
C2645 C 0.80693 0.69016 0.73054 0.0
C2646 C 0.82082 0.67385 0.73444 0.0
C2647 C 0.83432 0.67743 0.75707 0.0
C2648 C 0.83403 0.69728 0.77574 0.0
C2649 C 0.82019 0.71348 0.77186 0.0
C2650 C 0.80694 0.80874 0.72943 0.0
C2651 C 0.85816 0.79076 0.76707 0.0
O2652 O 0.83075 0.85585 0.81215 0.0
O2653 O 0.84258 0.85923 0.7774 0.0
O2654 O 0.84238 0.81038 0.81521 0.0
O2655 O 0.80988 0.79171 0.79824 0.0
O2656 O 0.79087 0.8251 0.78105 0.0
O2657 O 0.77394 0.78316 0.77048 0.0
O2658 O 0.80323 0.74432 0.73174 0.0
O2659 O 0.78649 0.73961 0.76372 0.0
O2660 O 0.78995 0.78997 0.72954 0.0
O2661 O 0.82201 0.80752 0.74628 0.0
O2662 O 0.84014 0.7725 0.76684 0.0
O2663 O 0.85709 0.81425 0.77221 0.0
H2664 H 0.83974 0.91601 0.82594 0.0
H2665 H 0.81487 0.94471 0.82 0.0
H2666 H 0.77786 0.89307 0.75546 0.0
H2667 H 0.8026 0.86471 0.76105 0.0
H2668 H 0.79681 0.68755 0.71288 0.0
H2669 H 0.82108 0.65852 0.71992 0.0
H2670 H 0.84448 0.70017 0.79326 0.0
H2671 H 0.82038 0.72892 0.7864 0.0
La2672 La 0.54428 0.53687 0.50639 0.0
La2673 La 0.58658 0.56187 0.53677 0.0
C2674 C 0.50222 0.52172 0.49138 0.0
C2675 C 0.48313 0.53292 0.49645 0.0
C2676 C 0.46276 0.52531 0.4802 0.0
C2677 C 0.44526 0.5376 0.48363 0.0
C2678 C 0.44814 0.55766 0.50323 0.0
C2679 C 0.46853 0.56537 0.51945 0.0
C2680 C 0.48599 0.55305 0.51607 0.0
C2681 C 0.57628 0.53553 0.47444 0.0
C2682 C 0.55996 0.59634 0.51231 0.0
C2683 C 0.62886 0.57581 0.55139 0.0
C2684 C 0.64809 0.56411 0.54723 0.0
C2685 C 0.66207 0.56119 0.56752 0.0
C2686 C 0.67954 0.5488 0.56432 0.0
C2687 C 0.68348 0.53941 0.54075 0.0
C2688 C 0.66944 0.54203 0.52038 0.0
C2689 C 0.65174 0.55418 0.52358 0.0
C2690 C 0.55464 0.56304 0.56878 0.0
C2691 C 0.5702 0.50219 0.53064 0.0
O2692 O 0.51685 0.53454 0.47977 0.0
O2693 O 0.51232 0.51436 0.50963 0.0
O2694 O 0.55464 0.52548 0.47019 0.0
O2695 O 0.57978 0.5452 0.49764 0.0
O2696 O 0.5428 0.57621 0.50748 0.0
O2697 O 0.57998 0.59508 0.5231 0.0
O2698 O 0.61397 0.56414 0.56352 0.0
O2699 O 0.619 0.58315 0.53297 0.0
O2700 O 0.57622 0.57351 0.5731 0.0
O2701 O 0.5511 0.55345 0.54555 0.0
O2702 O 0.58736 0.52231 0.53651 0.0
O2703 O 0.55057 0.50346 0.51918 0.0
H2704 H 0.46055 0.51015 0.46473 0.0
H2705 H 0.42953 0.53156 0.47102 0.0
H2706 H 0.47085 0.58083 0.53468 0.0
H2707 H 0.50182 0.5594 0.52851 0.0
H2708 H 0.65929 0.56831 0.5859 0.0
H2709 H 0.69019 0.54679 0.5802 0.0
H2710 H 0.67224 0.5347 0.50207 0.0
H2711 H 0.6409 0.55566 0.50762 0.0
La2712 La 0.09097 0.54868 0.01795 0.0
La2713 La 0.0396 0.54726 0.02498 0.0
C2714 C 0.13152 0.5433 0.02342 0.0
C2715 C 0.14543 0.52416 0.02016 0.0
C2716 C 0.15612 0.5202 0.99903 0.0
C2717 C 0.17216 0.50538 0.99766 0.0
C2718 C 0.17797 0.49425 0.01742 0.0
C2719 C 0.16667 0.49729 0.03808 0.0
C2720 C 0.15066 0.51208 0.03944 0.0
C2721 C 0.06336 0.54776 0.97889 0.0
C2722 C 0.05432 0.49571 0.01406 0.0
C2723 C 0.99907 0.55258 0.01933 0.0
C2724 C 0.9848 0.57136 0.02138 0.0
C2725 C 0.98342 0.58621 0.04388 0.0
C2726 C 0.96762 0.60138 0.04549 0.0
C2727 C 0.95269 0.60174 0.02474 0.0
C2728 C 0.95459 0.58752 1.00224 0.0
C2729 C 0.97041 0.57255 1.00059 0.0
C2730 C 0.06721 0.54714 0.06333 0.0
C2731 C 0.0764 0.60041 0.02904 0.0
O2732 O 0.12202 0.54907 1.00379 0.0
O2733 O 0.1183 0.54289 0.04069 0.0
O2734 O 0.08536 0.55617 0.98104 0.0
O2735 O 0.05849 0.53754 0.99669 0.0
O2736 O 0.07597 0.50852 0.0162 0.0
O2737 O 0.03691 0.50676 0.01493 0.0
O2738 O 1.00892 0.54807 0.03946 0.0
O2739 O 1.01207 0.55228 1.00187 0.0
O2740 O 0.04534 0.53763 0.06094 0.0
O2741 O 0.0721 0.55871 0.0464 0.0
O2742 O 0.05481 0.58763 0.02769 0.0
O2743 O 0.09368 0.5892 0.02747 0.0
H2744 H 0.15278 0.52937 0.9839 0.0
H2745 H 0.18068 0.50337 0.98156 0.0
H2746 H 0.17091 0.48901 0.05359 0.0
H2747 H 0.14303 0.51486 0.05602 0.0
H2748 H 0.99414 0.5857 0.06031 0.0
H2749 H 0.96661 0.6123 0.06304 0.0
H2750 H 0.94343 0.58761 0.98597 0.0
H2751 H 0.97092 0.56125 0.98306 0.0
C2752 C 0.03913 0.13927 0.97147 0.0
C2753 C 0.04656 0.16357 0.98644 0.0
C2754 C 0.06226 0.14398 0.01917 0.0
C2755 C 0.05609 0.11993 1.00352 0.0
N2756 N 0.0441 0.09684 0.96228 0.0
N2757 N 0.06843 0.18935 0.02351 0.0
C2758 C 0.0459 0.1182 0.97904 0.0
C2759 C 0.05921 0.16596 1.00993 0.0
N2760 N 0.02552 0.13614 0.94975 0.0
N2761 N 0.06995 0.14577 0.04329 0.0
H2762 H 0.06556 0.20558 0.01812 0.0
H2763 H 0.08015 0.19282 0.03926 0.0
H2764 H 0.07181 0.13031 0.05086 0.0
H2765 H 0.07258 0.16211 0.05629 0.0
H2766 H 0.01699 0.11861 0.93961 0.0
H2767 H 0.02139 0.151 0.94264 0.0
H2768 H 0.03907 0.09521 0.94367 0.0
H2769 H 0.05019 0.08167 0.96636 0.0
C2770 C 0.22064 0.79118 0.20593 0.0
C2771 C 0.21661 0.81405 0.20026 0.0
C2772 C 0.25154 0.83631 0.22879 0.0
C2773 C 0.25787 0.81335 0.23185 0.0
N2774 N 0.24814 0.7681 0.21767 0.0
N2775 N 0.23351 0.85752 0.20094 0.0
C2776 C 0.24245 0.79057 0.21856 0.0
C2777 C 0.23369 0.83623 0.21002 0.0
N2778 N 0.20325 0.77004 0.20046 0.0
N2779 N 0.2615 0.85857 0.24414 0.0
H2780 H 0.22156 0.85815 0.1865 0.0
H2781 H 0.24685 0.87358 0.20577 0.0
H2782 H 0.27415 0.86121 0.25875 0.0
H2783 H 0.25526 0.87455 0.24385 0.0
H2784 H 0.20422 0.75352 0.2065 0.0
H2785 H 0.187 0.76982 0.19228 0.0
H2786 H 0.23853 0.75169 0.20631 0.0
H2787 H 0.26338 0.76591 0.22602 0.0
C2788 C 0.55154 0.93033 0.47926 0.0
C2789 C 0.54254 0.91515 0.49586 0.0
C2790 C 0.54075 0.95299 0.52471 0.0
C2791 C 0.54947 0.9681 0.50793 0.0
N2792 N 0.56157 0.97146 0.46849 0.0
N2793 N 0.52709 0.91121 0.53349 0.0
C2794 C 0.55455 0.95683 0.48508 0.0
C2795 C 0.53668 0.92629 0.51834 0.0
N2796 N 0.5575 0.91934 0.45792 0.0
N2797 N 0.53724 0.96431 0.54713 0.0
H2798 H 0.5251 0.89184 0.53006 0.0
H2799 H 0.52016 0.91749 0.54893 0.0
H2800 H 0.53917 0.9836 0.55201 0.0
H2801 H 0.53345 0.95501 0.56144 0.0
H2802 H 0.56709 0.92909 0.44655 0.0
H2803 H 0.55367 0.90003 0.45177 0.0
H2804 H 0.56229 0.96452 0.45026 0.0
H2805 H 0.56572 0.99095 0.47242 0.0
C2806 C 0.47207 0.30208 0.67115 0.0
C2807 C 0.49206 0.29645 0.68213 0.0
C2808 C 0.47201 0.28569 0.7168 0.0
C2809 C 0.45263 0.29301 0.70672 0.0
N2810 N 0.43247 0.30455 0.67297 0.0
N2811 N 0.51186 0.28459 0.71604 0.0
C2812 C 0.45222 0.30025 0.68348 0.0
C2813 C 0.4921 0.28837 0.70498 0.0
N2814 N 0.47233 0.30949 0.64901 0.0
N2815 N 0.47104 0.27577 0.7376 0.0
H2816 H 0.52683 0.28617 0.70802 0.0
H2817 H 0.5141 0.28149 0.73383 0.0
H2818 H 0.45722 0.27469 0.74749 0.0
H2819 H 0.48316 0.26705 0.74435 0.0
H2820 H 0.45941 0.31595 0.6405 0.0
H2821 H 0.48598 0.30958 0.63896 0.0
H2822 H 0.42999 0.30846 0.65553 0.0
H2823 H 0.41774 0.30312 0.68145 0.0
C2824 C 0.04714 0.88772 0.59889 0.0
C2825 C 0.04023 0.86272 0.58565 0.0
C2826 C 0.04509 0.87726 0.54699 0.0
C2827 C 0.05182 0.90229 0.56027 0.0
N2828 N 0.06351 0.93154 0.59845 0.0
N2829 N 0.03358 0.83273 0.54797 0.0
C2830 C 0.05409 0.90759 0.58615 0.0
C2831 C 0.03963 0.8572 0.5599 0.0
N2832 N 0.04617 0.89245 0.62349 0.0
N2833 N 0.04406 0.8729 0.52206 0.0
H2834 H 0.03023 0.81762 0.55701 0.0
H2835 H 0.03196 0.82685 0.52919 0.0
H2836 H 0.04745 0.88716 0.512 0.0
H2837 H 0.03995 0.85532 0.51089 0.0
H2838 H 0.04861 0.91031 0.63388 0.0
H2839 H 0.04144 0.87833 0.63349 0.0
H2840 H 0.06792 0.9364 0.61732 0.0
H2841 H 0.06858 0.94655 0.5896 0.0
C2842 C 0.49107 0.81616 0.82719 0.0
C2843 C 0.50848 0.82314 0.8126 0.0
C2844 C 0.48079 0.83089 0.78196 0.0
C2845 C 0.4634 0.82334 0.79631 0.0
N2846 N 0.45051 0.80225 0.82857 0.0
N2847 N 0.51947 0.83128 0.77388 0.0
C2848 C 0.46808 0.81367 0.81757 0.0
C2849 C 0.50316 0.82856 0.78918 0.0
N2850 N 0.49653 0.81356 0.85077 0.0
N2851 N 0.47619 0.84141 0.7622 0.0
H2852 H 0.53604 0.82958 0.77871 0.0
H2853 H 0.51604 0.83296 0.75572 0.0
H2854 H 0.45985 0.84293 0.75606 0.0
H2855 H 0.48878 0.85003 0.75282 0.0
H2856 H 0.48462 0.81123 0.86296 0.0
H2857 H 0.51325 0.81597 0.85897 0.0
H2858 H 0.45285 0.79271 0.84279 0.0
H2859 H 0.43339 0.80019 0.82183 0.0
C2860 C 0.5273 0.12148 0.09514 0.0
C2861 C 0.51616 0.13542 0.08106 0.0
C2862 C 0.52434 0.11125 0.04401 0.0
C2863 C 0.54004 0.10222 0.05851 0.0
N2864 N 0.55868 0.10149 0.09825 0.0
N2865 N 0.50617 0.14532 0.04143 0.0
C2866 C 0.54194 0.10775 0.08423 0.0
C2867 C 0.51486 0.13057 0.05521 0.0
N2868 N 0.52428 0.12193 0.11905 0.0
N2869 N 0.51837 0.10132 0.0197 0.0
H2870 H 0.49963 0.16024 0.04877 0.0
H2871 H 0.50727 0.144 0.02281 0.0
H2872 H 0.52432 0.0864 0.01119 0.0
H2873 H 0.50555 0.10591 1.00883 0.0
H2874 H 0.53077 0.11065 0.12964 0.0
H2875 H 0.51327 0.13164 0.12736 0.0
H2876 H 0.56207 0.1072 0.11717 0.0
H2877 H 0.57071 0.09295 0.09068 0.0
C2878 C 0.21991 0.32833 0.28848 0.0
C2879 C 0.21889 0.32442 0.31285 0.0
C2880 C 0.24993 0.30323 0.31028 0.0
C2881 C 0.25308 0.31005 0.28728 0.0
N2882 N 0.24259 0.3308 0.25499 0.0
N2883 N 0.23653 0.31375 0.34892 0.0
C2884 C 0.23852 0.32318 0.2765 0.0
C2885 C 0.23495 0.31348 0.32433 0.0
N2886 N 0.20281 0.33614 0.27661 0.0
N2887 N 0.26097 0.28673 0.31872 0.0
H2888 H 0.22634 0.32193 0.36015 0.0
H2889 H 0.24959 0.30835 0.35859 0.0
H2890 H 0.27168 0.27805 0.30885 0.0
H2891 H 0.25752 0.2795 0.33438 0.0
H2892 H 0.20149 0.33696 0.25809 0.0
H2893 H 0.18893 0.34001 0.28485 0.0
H2894 H 0.23415 0.34282 0.24756 0.0
H2895 H 0.25536 0.32607 0.24524 0.0
C2896 C 0.03406 0.05245 0.13311 0.0
C2897 C 0.01568 0.06482 0.13577 0.0
C2898 C 0.02178 0.07534 0.09372 0.0
C2899 C 0.03885 0.06132 0.09034 0.0
N2900 N 0.05911 0.0342 0.10743 0.0
N2901 N 0.9905 0.08521 0.11531 0.0
C2902 C 0.04422 0.0493 0.11032 0.0
C2903 C 1.00929 0.07549 0.11508 0.0
N2904 N 0.04297 0.04483 0.1531 0.0
N2905 N 0.01806 0.0897 0.07689 0.0
H2906 H 0.98107 0.08562 0.12995 0.0
H2907 H 0.98311 0.09083 0.10028 0.0
H2908 H 0.02619 0.08963 0.06126 0.0
H2909 H 1.00829 0.1029 0.07921 0.0
H2910 H 0.05789 0.03847 0.15397 0.0
H2911 H 0.03666 0.04707 0.16979 0.0
H2912 H 0.0619 0.02225 0.11927 0.0
H2913 H 0.06724 0.03193 0.0919 0.0
C2914 C 0.27614 0.70488 0.40771 0.0
C2915 C 0.27119 0.71496 0.43097 0.0
C2916 C 0.25871 0.74867 0.41528 0.0
C2917 C 0.26592 0.74021 0.39282 0.0
N2918 N 0.27767 0.70906 0.36525 0.0
N2919 N 0.25915 0.74646 0.45811 0.0
C2920 C 0.27336 0.71775 0.38823 0.0
C2921 C 0.26246 0.73663 0.43504 0.0
N2922 N 0.28412 0.68357 0.40473 0.0
N2923 N 0.24835 0.76825 0.41755 0.0
H2924 H 0.26151 0.73799 0.47315 0.0
H2925 H 0.25545 0.76383 0.46289 0.0
H2926 H 0.24576 0.77785 0.40342 0.0
H2927 H 0.24062 0.7738 0.43263 0.0
H2928 H 0.2894 0.6758 0.38877 0.0
H2929 H 0.28578 0.67343 0.41864 0.0
H2930 H 0.2827 0.69253 0.36009 0.0
H2931 H 0.27519 0.7181 0.35063 0.0
C2932 C 0.59831 0.07548 0.62725 0.0
C2933 C 0.61375 0.05988 0.62871 0.0
C2934 C 0.59636 0.03417 0.58949 0.0
C2935 C 0.58229 0.05095 0.58682 0.0
N2936 N 0.572 0.08985 0.60093 0.0
N2937 N 0.6317 0.02882 0.60917 0.0
C2938 C 0.58396 0.07242 0.60499 0.0
C2939 C 0.61419 0.04069 0.60905 0.0
N2940 N 0.59663 0.09225 0.64731 0.0
N2941 N 0.59212 1.01162 0.57398 0.0
H2942 H 0.64562 0.03392 0.62298 0.0
H2943 H 0.63351 0.01556 0.5946 0.0
H2944 H 0.57821 1.00572 0.56032 0.0
H2945 H 0.60075 0.99778 0.57637 0.0
H2946 H 0.5839 0.10213 0.64793 0.0
H2947 H 0.60692 0.09496 0.66402 0.0
H2948 H 0.57462 0.10718 0.61246 0.0
H2949 H 0.56064 0.08779 0.5851 0.0
C2950 C 0.33091 0.30441 0.89141 0.0
C2951 C 0.32636 0.32727 0.90276 0.0
C2952 C 0.32216 0.33949 0.86238 0.0
C2953 C 0.32478 0.31579 0.85079 0.0
N2954 N 0.32846 0.27421 0.854 0.0
N2955 N 0.31498 0.36541 0.89866 0.0
C2956 C 0.32847 0.2979 0.86527 0.0
C2957 C 0.32114 0.3444 0.88808 0.0
N2958 N 0.33769 0.28893 0.90567 0.0
N2959 N 0.32173 0.35786 0.84894 0.0
H2960 H 0.31529 0.37057 0.91746 0.0
H2961 H 0.30804 0.37688 0.88872 0.0
H2962 H 0.32285 0.35526 0.83027 0.0
H2963 H 0.32243 0.37638 0.85657 0.0
H2964 H 0.34391 0.27355 0.89892 0.0
H2965 H 0.33847 0.29238 0.92465 0.0
H2966 H 0.32852 0.25944 0.86323 0.0
H2967 H 0.32656 0.2687 0.83507 0.0
C2968 C 1.00988 0.04327 0.40876 0.0
C2969 C 0.01847 0.06527 0.39914 0.0
C2970 C 0.04782 0.07943 0.43714 0.0
C2971 C 0.03928 0.05712 0.44658 0.0
N2972 N 1.01474 0.01534 0.43704 0.0
N2973 N 0.04609 0.10461 0.40496 0.0
C2974 C 0.02112 0.03843 0.43105 0.0
C2975 C 0.03758 0.08341 0.41372 0.0
N2976 N 0.98983 0.02733 0.39724 0.0
N2977 N 0.06683 0.09625 0.45001 0.0
H2978 H 0.03993 0.10743 0.38787 0.0
H2979 H 0.05896 0.11968 0.4143 0.0
H2980 H 0.07561 0.09313 0.4657 0.0
H2981 H 0.0749 0.11275 0.44493 0.0
H2982 H 0.98067 1.01285 0.40461 0.0
H2983 H 0.98106 0.03002 0.38133 0.0
H2984 H 1.00396 0.99991 0.42533 0.0
H2985 H 0.02186 1.01071 0.45272 0.0
C2986 C 0.30865 0.77031 0.65789 0.0
C2987 C 0.30593 0.7441 0.6554 0.0
C2988 C 0.30413 0.74692 0.69916 0.0
C2989 C 0.30783 0.77355 0.70202 0.0
N2990 N 0.30351 0.80808 0.68251 0.0
N2991 N 0.29644 0.70651 0.67219 0.0
C2992 C 0.30714 0.78456 0.68088 0.0
C2993 C 0.30238 0.73215 0.67562 0.0
N2994 N 0.31291 0.78163 0.63834 0.0
N2995 N 0.30209 0.73544 0.71878 0.0
H2996 H 0.29611 0.69485 0.65553 0.0
H2997 H 0.29045 0.69657 0.68544 0.0
H2998 H 0.29528 0.74266 0.73379 0.0
H2999 H 0.30537 0.71792 0.71925 0.0
H3000 H 0.31762 0.80101 0.63975 0.0
H3001 H 0.31345 0.77164 0.62103 0.0
H3002 H 0.30112 0.81641 0.66741 0.0
H3003 H 0.29972 0.81787 0.6985 0.0
C3004 C 0.64373 0.10208 0.87206 0.0
C3005 C 0.62749 0.08666 0.85257 0.0
C3006 C 0.59678 0.08709 0.87707 0.0
C3007 C 0.61322 0.09979 0.89756 0.0
N3008 N 0.65194 0.11956 0.91554 0.0
N3009 N 0.58863 0.0645 0.83589 0.0
C3010 C 0.63663 0.10773 0.89529 0.0
C3011 C 0.60408 0.07947 0.85482 0.0
N3012 N 0.66565 0.11145 0.86814 0.0
N3013 N 0.57396 0.08043 0.87852 0.0
H3014 H 0.59311 0.05708 0.81923 0.0
H3015 H 0.57122 0.05888 0.83712 0.0
H3016 H 0.56643 0.08486 0.89412 0.0
H3017 H 0.56643 0.08486 0.89412 0.0
H3018 H 0.6779 0.12434 0.88103 0.0
H3019 H 0.67126 0.10761 0.8512 0.0
H3020 H 0.66958 0.12344 0.91586 0.0
H3021 H 0.64679 0.12483 0.93249 0.0
C3022 C 0.30229 0.31375 0.16069 0.0
C3023 C 0.32002 0.335 0.15981 0.0
C3024 C 0.33248 0.3371 0.20404 0.0
C3025 C 0.31356 0.31708 0.20528 0.0
N3026 N 0.27635 0.2928 0.18535 0.0
N3027 N 0.34863 0.37042 0.18292 0.0
C3028 C 0.29729 0.30737 0.18373 0.0
C3029 C 0.33412 0.34768 0.18218 0.0
N3030 N 0.29065 0.29883 0.13944 0.0
N3031 N 0.34952 0.34552 0.22323 0.0
H3032 H 0.34996 0.37905 0.16775 0.0
H3033 H 0.35757 0.38183 0.19908 0.0
H3034 H 0.34898 0.3386 0.23933 0.0
H3035 H 0.36491 0.35796 0.22241 0.0
H3036 H 0.27922 0.2817 0.13895 0.0
H3037 H 0.29421 0.30217 0.12224 0.0
H3038 H 0.26322 0.28685 0.17071 0.0
H3039 H 0.27107 0.28957 0.20198 0.0
C3040 C 0.21526 0.99064 0.02067 0.0
C3041 C 0.23799 1.00403 0.03001 0.0
C3042 C 0.22478 0.04062 0.04776 0.0
C3043 C 0.20203 0.02738 0.03796 0.0
N3044 N 0.17476 0.98884 0.01928 0.0
N3045 N 0.26529 0.04125 0.05174 0.0
C3046 C 0.19702 1.00211 0.0255 0.0
C3047 C 0.243 0.02882 0.04365 0.0
N3048 N 0.21126 0.96719 1.00663 0.0
N3049 N 0.22876 0.06437 0.06116 0.0
H3050 H 0.27899 0.03301 0.04925 0.0
H3051 H 0.27067 0.05994 0.06028 0.0
H3052 H 0.21601 0.07408 0.06342 0.0
H3053 H 0.24443 0.0745 0.0708 0.0
H3054 H 0.19554 0.95753 0.99671 0.0
H3055 H 0.22406 0.95764 1.00375 0.0
H3056 H 0.16977 0.96966 0.01251 0.0
H3057 H 0.16094 0.99667 0.02251 0.0
C3058 C 0.65557 0.61279 0.98822 0.0
C3059 C 0.67341 0.61708 1.00796 0.0
C3060 C 0.64577 0.59226 0.03029 0.0
C3061 C 0.62848 0.5857 1.00936 0.0
N3062 N 0.6195 0.58713 0.96655 0.0
N3063 N 0.68624 0.60698 0.04625 0.0
C3064 C 0.63424 0.59516 0.98784 0.0
C3065 C 0.66861 0.60591 0.02864 0.0
N3066 N 0.65854 0.6265 0.97011 0.0
N3067 N 0.64087 0.58531 0.05186 0.0
H3068 H 0.70308 0.61617 0.04557 0.0
H3069 H 0.68469 0.59678 0.06029 0.0
H3070 H 0.62585 0.57315 0.05396 0.0
H3071 H 0.65147 0.59281 0.06837 0.0
H3072 H 0.64538 0.62652 0.95673 0.0
H3073 H 0.67352 0.6399 0.96987 0.0
H3074 H 0.62409 0.59047 0.9497 0.0
H3075 H 0.60323 0.57559 0.96512 0.0
C3076 C 0.77303 0.40574 0.28815 0.0
C3077 C 0.75317 0.40445 0.27117 0.0
C3078 C 0.75769 0.36089 0.25253 0.0
C3079 C 0.77733 0.36192 0.26978 0.0
N3080 N 0.804 0.38793 0.30362 0.0
N3081 N 0.72497 0.37739 0.23947 0.0
C3082 C 0.78488 0.38515 0.28741 0.0
C3083 C 0.74531 0.38106 0.25397 0.0
N3084 N 0.78045 0.42682 0.30583 0.0
N3085 N 0.75144 0.34102 0.23345 0.0
H3086 H 0.7157 0.39111 0.23974 0.0
H3087 H 0.71627 0.36024 0.22877 0.0
H3088 H 0.75966 0.32639 0.2315 0.0
H3089 H 0.73953 0.33995 0.21842 0.0
H3090 H 0.79232 0.4286 0.32107 0.0
H3091 H 0.77392 0.44263 0.30585 0.0
H3092 H 0.81305 0.40485 0.31444 0.0
H3093 H 0.81141 0.3732 0.30608 0.0
C3094 C 0.96717 0.53741 0.51008 0.0
C3095 C 0.95658 0.52941 0.52966 0.0
C3096 C 0.98983 0.51503 0.54296 0.0
C3097 C 0.9987 0.51885 0.52103 0.0
N3098 N 0.99068 0.52678 0.4799 0.0
N3099 N 0.96781 0.5314 0.57227 0.0
C3100 C 0.98614 0.52836 0.50345 0.0
C3101 C 0.97061 0.52402 0.5486 0.0
N3102 N 0.95932 0.55411 0.49837 0.0
N3103 N 0.99933 0.5021 0.55806 0.0
H3104 H 0.95564 0.54147 0.57672 0.0
H3105 H 0.97956 0.53067 0.58685 0.0
H3106 H 1.01223 0.49331 0.55324 0.0
H3107 H 0.99238 0.49776 0.57356 0.0
H3108 H 0.9676 0.56217 0.48507 0.0
H3109 H 0.94572 0.56133 0.50397 0.0
H3110 H 0.98097 0.53268 0.46663 0.0
H3111 H 1.00108 0.51573 0.47256 0.0
C3112 C 0.37732 0.13513 0.25401 0.0
C3113 C 0.37377 0.12571 0.27574 0.0
C3114 C 0.33969 0.14174 0.27897 0.0
C3115 C 0.34456 0.15334 0.25867 0.0
N3116 N 0.36864 0.1635 0.22802 0.0
N3117 N 0.35351 0.12142 0.31044 0.0
C3118 C 0.3635 0.1506 0.24638 0.0
C3119 C 0.35537 0.12921 0.28858 0.0
N3120 N 0.39349 0.12873 0.24041 0.0
N3121 N 0.32022 0.143 0.28916 0.0
H3122 H 0.36475 0.11208 0.31803 0.0
H3123 H 0.34194 0.12572 0.32206 0.0
H3124 H 0.30873 0.15298 0.28335 0.0
H3125 H 0.31445 0.13273 0.30225 0.0
H3126 H 0.39523 0.13283 0.2231 0.0
H3127 H 0.40422 0.11764 0.24561 0.0
H3128 H 0.38388 0.16497 0.22057 0.0
H3129 H 0.35811 0.17397 0.22108 0.0
C3130 C 0.39696 0.11753 0.5037 0.0
C3131 C 0.398 0.14052 0.51963 0.0
C3132 C 0.43568 0.1392 0.54 0.0
C3133 C 0.43475 0.11644 0.52375 0.0
N3134 N 0.4133 0.08174 0.49286 0.0
N3135 N 0.41881 0.17457 0.55155 0.0
C3136 C 0.4151 0.10512 0.50623 0.0
C3137 C 0.41744 0.15161 0.53757 0.0
N3138 N 0.37867 0.10775 0.48583 0.0
N3139 N 0.45384 0.14855 0.55809 0.0
H3140 H 0.40588 0.18411 0.55021 0.0
H3141 H 0.43309 0.18501 0.56357 0.0
H3142 H 0.46772 0.14042 0.55976 0.0
H3143 H 0.45487 0.16353 0.57223 0.0
H3144 H 0.37797 0.09303 0.47152 0.0
H3145 H 0.36432 0.11513 0.48446 0.0
H3146 H 0.39857 0.07092 0.48179 0.0
H3147 H 0.42617 0.07209 0.49398 0.0
C3148 C 0.75746 0.69611 0.29145 0.0
C3149 C 0.76012 0.67386 0.27605 0.0
C3150 C 0.78655 0.70301 0.25528 0.0
C3151 C 0.7862 0.72493 0.27253 0.0
N3152 N 0.77207 0.74088 0.30893 0.0
N3153 N 0.78112 0.65761 0.24543 0.0
C3154 C 0.77168 0.72098 0.29101 0.0
C3155 C 0.77563 0.67789 0.25846 0.0
N3156 N 0.74062 0.69372 0.30607 0.0
N3157 N 0.79691 0.70619 0.23499 0.0
H3158 H 0.77435 0.63929 0.2475 0.0
H3159 H 0.79412 0.65906 0.23443 0.0
H3160 H 0.80449 0.72384 0.23166 0.0
H3161 H 0.79577 0.69171 0.22027 0.0
H3162 H 0.73591 0.70892 0.31583 0.0
H3163 H 0.72992 0.67644 0.30669 0.0
H3164 H 0.7643 0.73926 0.32459 0.0
H3165 H 0.7815 0.75893 0.30877 0.0
C3166 C 0.87051 0.40562 0.79287 0.0
C3167 C 0.86543 0.41612 0.77221 0.0
C3168 C 0.82795 0.38775 0.76212 0.0
C3169 C 0.83356 0.37674 0.7821 0.0
N3170 N 0.85534 0.37991 0.82115 0.0
N3171 N 0.84118 0.41709 0.73594 0.0
C3172 C 0.85333 0.38725 0.79908 0.0
C3173 C 0.84453 0.4073 0.75649 0.0
N3174 N 0.89186 0.41286 0.80607 0.0
N3175 N 0.80674 0.37903 0.7488 0.0
H3176 H 0.8537 0.43096 0.73117 0.0
H3177 H 0.82679 0.41063 0.72287 0.0
H3178 H 0.79441 0.36493 0.75356 0.0
H3179 H 0.80082 0.38654 0.73433 0.0
H3180 H 0.89716 0.4039 0.81972 0.0
H3181 H 0.90505 0.42643 0.80198 0.0
H3182 H 0.86886 0.38811 0.83504 0.0
H3183 H 0.84203 0.36767 0.82669 0.0
C3184 C 0.09087 0.94119 0.03484 0.0
C3185 C 0.08294 0.9348 0.05675 0.0
C3186 C 0.06367 0.97003 0.05907 0.0
C3187 C 0.07399 0.97825 0.03904 0.0
N3188 N 0.09917 0.97246 1.00899 0.0
N3189 N 0.06493 0.94659 0.09199 0.0
C3190 C 0.08818 0.96407 0.02735 0.0
C3191 C 0.07006 0.95011 0.06936 0.0
N3192 N 0.10003 0.92477 0.02042 0.0
N3193 N 0.04752 0.98114 0.06829 0.0
H3194 H 0.06985 0.93297 0.10057 0.0
H3195 H 0.05785 0.95875 0.1033 0.0
H3196 H 0.04268 0.99596 0.06174 0.0
H3197 H 0.03753 0.9743 0.081 0.0
H3198 H 0.10392 0.92684 1.00304 0.0
H3199 H 0.10174 0.90774 0.02485 0.0
H3200 H 0.11183 0.96487 1.00162 0.0
H3201 H 0.09662 0.98811 1.00212 0.0
C3202 C 0.89659 0.304 0.85251 0.0
C3203 C 0.90907 0.28572 0.84478 0.0
C3204 C 0.88033 0.27048 0.80762 0.0
C3205 C 0.86959 0.29066 0.81368 0.0
N3206 N 0.86919 0.32805 0.84153 0.0
N3207 N 0.91452 0.25477 0.8119 0.0
C3208 C 0.87811 0.30769 0.83617 0.0
C3209 C 0.90123 0.26972 0.82159 0.0
N3210 N 0.90197 0.31748 0.8758 0.0
N3211 N 0.87033 0.25156 0.78838 0.0
H3212 H 0.93026 0.25422 0.82079 0.0
H3213 H 0.91115 0.24491 0.79396 0.0
H3214 H 0.85518 0.25125 0.77776 0.0
H3215 H 0.87568 0.23498 0.78459 0.0
H3216 H 0.89244 0.32941 0.88345 0.0
H3217 H 0.91486 0.31505 0.88824 0.0
H3218 H 0.87635 0.34305 0.85582 0.0
H3219 H 0.85515 0.3304 0.83068 0.0
C3220 C 0.59572 0.16843 0.56547 0.0
C3221 C 0.58802 0.18191 0.54818 0.0
C3222 C 0.57165 0.14199 0.51955 0.0
C3223 C 0.58156 0.12878 0.53575 0.0
N3224 N 0.60559 0.13033 0.57331 0.0
N3225 N 0.57256 0.1818 0.50688 0.0
C3226 C 0.59462 0.14234 0.5583 0.0
C3227 C 0.5771 0.16874 0.52467 0.0
N3228 N 0.60265 0.18009 0.58931 0.0
N3229 N 0.5566 0.12909 0.49945 0.0
H3230 H 0.57665 0.20133 0.50979 0.0
H3231 H 0.56685 0.17337 0.48868 0.0
H3232 H 0.55232 0.10964 0.49458 0.0
H3233 H 0.54687 0.1376 0.48867 0.0
H3234 H 0.60599 0.17065 0.60332 0.0
H3235 H 0.6028 0.19878 0.59568 0.0
H3236 H 0.61767 0.1398 0.58827 0.0
H3237 H 0.60382 0.11103 0.57013 0.0
C3238 C 0.64718 0.7795 0.35631 0.0
C3239 C 0.63721 0.80031 0.36135 0.0
C3240 C 0.66955 0.82604 0.34602 0.0
C3241 C 0.67732 0.80431 0.33744 0.0
N3242 N 0.67034 0.75918 0.33072 0.0
N3243 N 0.6375 0.84286 0.35719 0.0
C3244 C 0.6653 0.78071 0.34166 0.0
C3245 C 0.64809 0.82351 0.35529 0.0
N3246 N 0.6399 0.75875 0.36621 0.0
N3247 N 0.68293 0.84921 0.34589 0.0
H3248 H 0.6215 0.84159 0.36298 0.0
H3249 H 0.64354 0.85927 0.35073 0.0
H3250 H 0.69886 0.85177 0.33975 0.0
H3251 H 0.67929 0.86578 0.35415 0.0
H3252 H 0.64807 0.74408 0.36511 0.0
H3253 H 0.62734 0.75745 0.37778 0.0
H3254 H 0.66048 0.74141 0.33109 0.0
H3255 H 0.68289 0.75897 0.31923 0.0
C3256 C 0.09516 0.24001 0.48229 0.0
C3257 C 0.09088 0.23539 0.45641 0.0
C3258 C 0.07125 0.1918 0.45604 0.0
C3259 C 0.07769 0.19583 0.48166 0.0
N3260 N 0.09849 0.22251 0.51895 0.0
N3261 N 0.07745 0.20642 0.41814 0.0
C3262 C 0.0904 0.2196 0.49474 0.0
C3263 C 0.07954 0.21115 0.4431 0.0
N3264 N 0.10296 0.26403 0.49503 0.0
N3265 N 0.05685 0.16968 0.44423 0.0
H3266 H 0.08351 0.22006 0.40803 0.0
H3267 H 0.07142 0.18859 0.40748 0.0
H3268 H 0.05077 0.15498 0.45314 0.0
H3269 H 0.04949 0.16657 0.42608 0.0
H3270 H 0.10403 0.26882 0.51394 0.0
H3271 H 0.10643 0.27958 0.4866 0.0
H3272 H 0.11009 0.23856 0.52872 0.0
H3273 H 0.0951 0.20813 0.5289 0.0
C3274 C 0.6229 0.2481 0.24365 0.0
C3275 C 0.61753 0.27081 0.24001 0.0
C3276 C 0.65761 0.29266 0.25207 0.0
C3277 C 0.66335 0.26914 0.24931 0.0
N3278 N 0.6514 0.22392 0.24298 0.0
N3279 N 0.62782 0.31341 0.26189 0.0
C3280 C 0.64599 0.24666 0.24566 0.0
C3281 C 0.63424 0.29321 0.2501 0.0
N3282 N 0.60615 0.2289 0.24755 0.0
N3283 N 0.6743 0.31438 0.25635 0.0
H3284 H 0.61104 0.31204 0.26555 0.0
H3285 H 0.63946 0.32965 0.2713 0.0
H3286 H 0.69168 0.31474 0.25861 0.0
H3287 H 0.6707 0.3318 0.25607 0.0
H3288 H 0.60935 0.21259 0.25244 0.0
H3289 H 0.58949 0.23084 0.24862 0.0
H3290 H 0.63914 0.20701 0.23759 0.0
H3291 H 0.66818 0.22195 0.24434 0.0
C3292 C 0.61902 0.98422 0.96993 0.0
C3293 C 0.61005 0.95858 0.97027 0.0
C3294 C 0.57733 0.96847 0.98822 0.0
C3295 C 0.58749 0.99448 0.99122 0.0
N3296 N 0.61751 0.02727 0.9825 0.0
N3297 N 0.58375 0.92689 0.98484 0.0
C3298 C 0.60828 1.00247 0.98149 0.0
C3299 C 0.59026 0.95098 0.98122 0.0
N3300 N 0.63699 0.99095 0.95737 0.0
N3301 N 0.55477 0.96036 0.99053 0.0
H3302 H 0.59316 0.91364 0.98018 0.0
H3303 H 0.57051 0.92095 0.99474 0.0
H3304 H 0.54395 0.97251 0.99286 0.0
H3305 H 0.54616 0.94149 0.98675 0.0
H3306 H 0.64273 1.0089 0.95384 0.0
H3307 H 0.64559 0.97815 0.94933 0.0
H3308 H 0.6345 0.03454 0.98064 0.0
H3309 H 0.60768 0.04032 0.98377 0.0
C3310 C 0.91851 0.78577 0.75715 0.0
C3311 C 0.91448 0.77447 0.73201 0.0
C3312 C 0.87407 0.77428 0.73015 0.0
C3313 C 0.87765 0.78461 0.75557 0.0
N3314 N 0.9024 0.79961 0.79381 0.0
N3315 N 0.88835 0.75381 0.69556 0.0
C3316 C 0.89969 0.79021 0.76929 0.0
C3317 C 0.89222 0.76746 0.71885 0.0
N3318 N 0.94033 0.79226 0.76915 0.0
N3319 N 0.85368 0.77244 0.71634 0.0
H3320 H 0.90129 0.74903 0.68616 0.0
H3321 H 0.87209 0.74536 0.68619 0.0
H3322 H 0.83958 0.77677 0.72355 0.0
H3323 H 0.85123 0.76869 0.69731 0.0
H3324 H 0.94504 0.80163 0.78716 0.0
H3325 H 0.95423 0.78866 0.76075 0.0
H3326 H 0.9177 0.80345 0.80541 0.0
H3327 H 0.88884 0.80286 0.80301 0.0
C3328 C 0.09602 0.01421 0.91001 0.0
C3329 C 0.11556 0.03322 0.90769 0.0
C3330 C 0.11049 0.05476 0.9501 0.0
C3331 C 0.09236 0.03444 0.95318 0.0
N3332 N 0.07325 0.99134 0.93646 0.0
N3333 N 0.14343 0.06991 0.92953 0.0
C3334 C 0.08678 1.01331 0.93315 0.0
C3335 C 0.12322 0.053 0.92893 0.0
N3336 N 0.08518 0.99725 0.8896 0.0
N3337 N 0.11517 0.07646 0.96691 0.0
H3338 H 0.15328 0.06912 0.91527 0.0
H3339 H 0.15145 0.08308 0.94503 0.0
H3340 H 0.10671 0.0784 0.9822 0.0
H3341 H 0.12605 0.093 0.96467 0.0
H3342 H 0.06947 0.98479 0.88916 0.0
H3343 H 0.09051 0.99756 0.87246 0.0
H3344 H 0.07014 0.97468 0.92378 0.0
H3345 H 0.06768 0.98888 0.95316 0.0
C3346 C 0.87236 0.39653 0.63037 0.0
C3347 C 0.86048 0.38052 0.60846 0.0
C3348 C 0.85597 0.34429 0.62791 0.0
C3349 C 0.86919 0.35998 0.64938 0.0
N3350 N 0.89371 0.39947 0.67003 0.0
N3351 N 0.84605 0.33888 0.58433 0.0
C3352 C 0.87874 0.38566 0.65024 0.0
C3353 C 0.85395 0.35426 0.60655 0.0
N3354 N 0.87644 0.42198 0.63256 0.0
N3355 N 0.84417 0.32038 0.62823 0.0
H3356 H 0.84437 0.34555 0.56805 0.0
H3357 H 0.84328 0.31945 0.58173 0.0
H3358 H 0.8447 0.31196 0.6435 0.0
H3359 H 0.8321 0.30952 0.61383 0.0
H3360 H 0.88301 0.43444 0.64895 0.0
H3361 H 0.87146 0.43069 0.61852 0.0
H3362 H 0.90283 0.41781 0.67071 0.0
H3363 H 0.8985 0.39173 0.68491 0.0
C3364 C 0.51039 0.03704 0.43389 0.0
C3365 C 0.51828 0.05431 0.41899 0.0
C3366 C 0.55359 0.071 0.44679 0.0
C3367 C 0.54756 0.05076 0.45938 0.0
N3368 N 0.52171 1.01067 0.46004 0.0
N3369 N 0.54891 0.0847 0.40829 0.0
C3370 C 0.52623 0.0328 0.45189 0.0
C3371 C 0.54032 0.07046 0.42454 0.0
N3372 N 0.48801 0.02408 0.43026 0.0
N3373 N 0.57127 0.09126 0.45629 0.0
H3374 H 0.5395 0.08523 0.39186 0.0
H3375 H 0.566 0.09438 0.41029 0.0
H3376 H 0.5804 0.09396 0.4736 0.0
H3377 H 0.57482 0.10716 0.44841 0.0
H3378 H 0.48094 1.01296 0.44221 0.0
H3379 H 0.47605 0.02643 0.41668 0.0
H3380 H 0.50714 0.99633 0.45339 0.0
H3381 H 0.53373 1.00495 0.47066 0.0
C3382 C 0.79348 0.75327 0.15484 0.0
C3383 C 0.80482 0.77117 0.14176 0.0
C3384 C 0.81953 0.80043 0.18105 0.0
C3385 C 0.80631 0.7835 0.19378 0.0
N3386 N 0.77815 0.74498 0.19206 0.0
N3387 N 0.82525 0.81366 0.14235 0.0
C3388 C 0.79235 0.7604 0.18038 0.0
C3389 C 0.81693 0.79528 0.15489 0.0
N3390 N 0.78503 0.72892 0.14326 0.0
N3391 N 0.83492 0.82136 0.19393 0.0
H3392 H 0.82332 0.81082 0.12332 0.0
H3393 H 0.83211 0.8323 0.15068 0.0
H3394 H 0.83685 0.82637 0.2129 0.0
H3395 H 0.84696 0.83279 0.18596 0.0
H3396 H 0.7788 0.71444 0.15231 0.0
H3397 H 0.78637 0.72259 0.125 0.0
H3398 H 0.76566 0.72936 0.18287 0.0
H3399 H 0.77764 0.74878 0.21083 0.0
C3400 C 0.12076 0.02533 0.62223 0.0
C3401 C 0.11396 0.0355 0.64478 0.0
C3402 C 0.08576 0.05163 0.61914 0.0
C3403 C 0.09385 0.0431 0.59671 0.0
N3404 N 0.12319 0.02617 0.57905 0.0
N3405 N 0.0907 0.06068 0.66393 0.0
C3406 C 0.11234 0.03095 0.59897 0.0
C3407 C 0.09673 0.04939 0.64286 0.0
N3408 N 0.13548 1.01002 0.62283 0.0
N3409 N 0.06669 0.06087 0.61787 0.0
H3410 H 0.0969 0.05819 0.68115 0.0
H3411 H 0.08069 0.07368 0.66454 0.0
H3412 H 0.05836 0.063 0.6015 0.0
H3413 H 0.05797 0.06454 0.63266 0.0
H3414 H 0.13884 0.99918 0.60725 0.0
H3415 H 0.14309 1.00668 0.63907 0.0
H3416 H 0.13822 0.02 0.57971 0.0
H3417 H 0.11872 0.03101 0.56235 0.0
C3418 C 0.81196 0.35705 0.36429 0.0
C3419 C 0.82675 0.35323 0.38369 0.0
C3420 C 0.83447 0.31753 0.35687 0.0
C3421 C 0.81761 0.31979 0.33857 0.0
N3422 N 0.7853 0.33677 0.32828 0.0
N3423 N 0.84945 0.32751 0.39998 0.0
C3424 C 0.80491 0.33818 0.3432 0.0
C3425 C 0.83737 0.33282 0.38045 0.0
N3426 N 0.80493 0.37888 0.36583 0.0
N3427 N 0.84799 0.30126 0.35158 0.0
H3428 H 0.85177 0.3382 0.41753 0.0
H3429 H 0.85556 0.31137 0.39916 0.0
H3430 H 0.84602 0.28951 0.33459 0.0
H3431 H 0.86215 0.30073 0.3634 0.0
H3432 H 0.79554 0.38327 0.35128 0.0
H3433 H 0.81044 0.39366 0.38073 0.0
H3434 H 0.77455 0.34876 0.332 0.0
H3435 H 0.77828 0.32172 0.31398 0.0
C3436 C 0.51175 0.99296 0.1821 0.0
C3437 C 0.49709 1.0096 0.18386 0.0
C3438 C 0.48587 0.99947 0.13974 0.0
C3439 C 0.50372 0.98704 0.13827 0.0
N3440 N 0.522 0.95904 0.15618 0.0
N3441 N 0.46531 0.02342 0.16576 0.0
C3442 C 0.51246 0.97911 0.15894 0.0
C3443 C 0.48227 1.01097 0.16308 0.0
N3444 N 0.52549 0.99112 0.20222 0.0
N3445 N 0.47464 1.00249 0.11856 0.0
H3446 H 0.46276 0.03265 0.18265 0.0
H3447 H 0.45318 0.02386 0.1515 0.0
H3448 H 0.4779 0.99397 0.10163 0.0
H3449 H 0.46267 1.01325 0.11763 0.0
H3450 H 0.53795 0.9809 0.20128 0.0
H3451 H 0.52565 1.00137 0.2196 0.0
H3452 H 0.52752 0.95141 0.1708 0.0
H3453 H 0.52176 0.94837 0.13901 0.0
C3454 C 0.80647 0.7869 0.8795 0.0
C3455 C 0.81342 0.76513 0.88453 0.0
C3456 C 0.83001 0.76247 0.84543 0.0
C3457 C 0.82078 0.7823 0.83903 0.0
N3458 N 0.80006 0.81372 0.85041 0.0
N3459 N 0.82863 0.72989 0.86971 0.0
C3460 C 0.80885 0.79449 0.85619 0.0
C3461 C 0.82438 0.75238 0.86677 0.0
N3462 N 0.79865 0.80113 0.89753 0.0
N3463 N 0.84494 0.75373 0.83153 0.0
H3464 H 0.82444 0.72157 0.88459 0.0
H3465 H 0.83426 0.71834 0.85628 0.0
H3466 H 0.8495 0.76053 0.81593 0.0
H3467 H 0.85435 0.74139 0.83663 0.0
H3468 H 0.7954 0.8185 0.89638 0.0
H3469 H 0.79713 0.79655 0.91473 0.0
H3470 H 0.78908 0.82174 0.86049 0.0
H3471 H 0.80256 0.82079 0.83448 0.0
C3472 C 0.89053 0.06715 0.01483 0.0
C3473 C 0.8941 0.09311 0.01465 0.0
C3474 C 0.93218 0.09457 1.00308 0.0
C3475 C 0.92956 0.06934 1.00602 0.0
N3476 N 0.90776 0.03229 0.01767 0.0
N3477 N 0.91883 0.13258 0.01158 0.0
C3478 C 0.90913 0.05577 0.01269 0.0
C3479 C 0.91504 0.10715 1.00948 0.0
N3480 N 0.86921 0.05326 0.01628 0.0
N3481 N 0.9508 0.10626 0.99371 0.0
H3482 H 0.90669 0.14252 0.01634 0.0
H3483 H 0.93461 0.14416 0.01052 0.0
H3484 H 0.96388 0.09766 0.98916 0.0
H3485 H 0.95243 0.12366 0.98862 0.0
H3486 H 0.86506 0.03379 0.01389 0.0
H3487 H 0.85507 0.06096 0.01769 0.0
H3488 H 0.8943 0.02266 0.02532 0.0
H3489 H 0.92096 0.02311 0.01597 0.0
C3490 C 0.46243 0.51165 0.04107 0.0
C3491 C 0.45813 0.48502 0.03633 0.0
C3492 C 0.49803 0.48884 0.02744 0.0
C3493 C 0.50293 0.51554 0.03354 0.0
N3494 N 0.48704 0.55177 0.0383 0.0
N3495 N 0.47256 0.44819 0.02715 0.0
C3496 C 0.48435 0.52678 0.03839 0.0
C3497 C 0.47613 0.47366 0.02992 0.0
N3498 N 0.44559 0.5226 0.04873 0.0
N3499 N 0.51409 0.47791 0.01805 0.0
H3500 H 0.45678 0.4365 0.02814 0.0
H3501 H 0.48546 0.43865 0.02559 0.0
H3502 H 0.5297 0.48858 0.01569 0.0
H3503 H 0.51138 0.45897 0.01061 0.0
H3504 H 0.44815 0.54166 0.05552 0.0
H3505 H 0.42925 0.51229 0.04993 0.0
H3506 H 0.47385 0.56094 0.03932 0.0
H3507 H 0.50188 0.56291 0.0342 0.0
C3508 C 0.3824 0.71287 0.75769 0.0
C3509 C 0.37724 0.69336 0.77184 0.0
C3510 C 0.34939 0.71775 0.78954 0.0
C3511 C 0.35293 0.7358 0.77363 0.0
N3512 N 0.37099 0.74586 0.73884 0.0
N3513 N 0.35171 0.67669 0.79875 0.0
C3514 C 0.36906 0.73198 0.75685 0.0
C3515 C 0.35965 0.69591 0.7871 0.0
N3516 N 0.40099 0.71403 0.74555 0.0
N3517 N 0.33683 0.72194 0.80809 0.0
H3518 H 0.3581 0.66069 0.79732 0.0
H3519 H 0.33738 0.67545 0.80781 0.0
H3520 H 0.32956 0.73731 0.81083 0.0
H3521 H 0.33554 0.71174 0.82213 0.0
H3522 H 0.40762 0.72903 0.73731 0.0
H3523 H 0.4112 0.70125 0.74589 0.0
H3524 H 0.38011 0.74243 0.72432 0.0
H3525 H 0.36153 0.75912 0.73697 0.0
C3526 C 0.16399 0.59335 0.5106 0.0
C3527 C 0.17574 0.5818 0.52682 0.0
C3528 C 0.14639 0.58108 0.55331 0.0
C3529 C 0.13326 0.59032 0.53624 0.0
N3530 N 0.13157 0.61141 0.50225 0.0
N3531 N 0.17528 0.55804 0.55891 0.0
C3532 C 0.14273 0.59828 0.51581 0.0
C3533 C 0.1657 0.57313 0.54642 0.0
N3534 N 0.17306 0.59914 0.49022 0.0
N3535 N 0.14157 0.58179 0.57671 0.0
H3536 H 0.18964 0.55205 0.55387 0.0
H3537 H 0.1676 0.54956 0.57232 0.0
H3538 H 0.13004 0.59158 0.58365 0.0
H3539 H 0.15152 0.57634 0.5901 0.0
H3540 H 0.16482 0.60602 0.47665 0.0
H3541 H 0.18843 0.59536 0.48587 0.0
H3542 H 0.13746 0.61872 0.48746 0.0
H3543 H 0.11686 0.61662 0.50723 0.0
C3544 C 0.77668 0.97679 0.76899 0.0
C3545 C 0.75286 0.96967 0.76992 0.0
C3546 C 0.75745 0.93287 0.78647 0.0
C3547 C 0.78066 0.93837 0.78262 0.0
N3548 N 0.81152 0.96284 0.76598 0.0
N3549 N 0.71973 0.93872 0.77529 0.0
C3550 C 0.79009 0.95959 0.77269 0.0
C3551 C 0.74296 0.9471 0.77756 0.0
N3552 N 0.78664 1.00027 0.76547 0.0
N3553 N 0.74938 0.9143 0.79891 0.0
H3554 H 0.70843 0.9481 0.76789 0.0
H3555 H 0.71161 0.92123 0.77848 0.0
H3556 H 0.75959 0.9034 0.80563 0.0
H3557 H 0.73322 0.91123 0.80447 0.0
H3558 H 0.80426 1.00715 0.76702 0.0
H3559 H 0.7775 0.01378 0.76339 0.0
H3560 H 0.81812 0.97644 0.75608 0.0
H3561 H 0.82198 0.95062 0.76839 0.0
C3562 C 0.73848 0.98414 0.52902 0.0
C3563 C 0.73425 0.95765 0.52211 0.0
C3564 C 0.69373 0.95577 0.50876 0.0
C3565 C 0.69756 0.98182 0.51811 0.0
N3566 N 0.72308 0.02068 0.53903 0.0
N3567 N 0.70744 0.91776 0.50743 0.0
C3568 C 0.71983 0.99596 0.52871 0.0
C3569 C 0.71176 0.94334 0.51235 0.0
N3570 N 0.76049 0.99812 0.53505 0.0
N3571 N 0.67292 0.94301 0.49609 0.0
H3572 H 0.7201 0.90804 0.50986 0.0
H3573 H 0.69112 0.90606 0.50267 0.0
H3574 H 0.65933 0.95146 0.49358 0.0
H3575 H 0.66957 0.92469 0.48648 0.0
H3576 H 0.76502 0.0176 0.53773 0.0
H3577 H 0.7746 0.99025 0.53529 0.0
H3578 H 0.73814 0.03132 0.54968 0.0
H3579 H 0.71015 0.0303 0.5384 0.0
C3580 C 0.37629 0.41034 0.78448 0.0
C3581 C 0.37031 0.42398 0.76608 0.0
C3582 C 0.3393 0.38519 0.74776 0.0
C3583 C 0.34386 0.37237 0.76726 0.0
N3584 N 0.36605 0.37509 0.80585 0.0
N3585 N 0.34291 0.4242 0.73218 0.0
C3586 C 0.36233 0.38564 0.78594 0.0
C3587 C 0.35106 0.41112 0.7482 0.0
N3588 N 0.39589 0.4207 0.80033 0.0
N3589 N 0.32374 0.37226 0.72809 0.0
H3590 H 0.3504 0.4429 0.73201 0.0
H3591 H 0.3275 0.41742 0.72061 0.0
H3592 H 0.3146 0.35384 0.72706 0.0
H3593 H 0.32148 0.37877 0.71184 0.0
H3594 H 0.40281 0.41125 0.81258 0.0
H3595 H 0.40632 0.43817 0.79986 0.0
H3596 H 0.37692 0.38455 0.8217 0.0
H3597 H 0.35709 0.35712 0.80698 0.0
C3598 C 0.28512 0.68299 0.26295 0.0
C3599 C 0.26387 0.67943 0.27202 0.0
C3600 C 0.26328 0.72284 0.27434 0.0
C3601 C 0.28524 0.72698 0.26697 0.0
N3602 N 0.31805 0.71246 0.25488 0.0
N3603 N 0.23457 0.69568 0.29096 0.0
C3604 C 0.29653 0.70748 0.26134 0.0
C3605 C 0.25362 0.69934 0.2794 0.0
N3606 N 0.29385 0.66282 0.25535 0.0
N3607 N 0.2512 0.74096 0.27505 0.0
H3608 H 0.22638 0.67829 0.29435 0.0
H3609 H 0.22806 0.71031 0.29914 0.0
H3610 H 0.25734 0.75818 0.27002 0.0
H3611 H 0.23418 0.73802 0.27801 0.0
H3612 H 0.30793 0.66364 0.24595 0.0
H3613 H 0.28639 0.64476 0.25775 0.0
H3614 H 0.32818 0.69959 0.25334 0.0
H3615 H 0.32637 0.72995 0.25192 0.0
C3616 C 0.53893 0.63946 0.47189 0.0
C3617 C 0.54691 0.66382 0.48661 0.0
C3618 C 0.56313 0.64426 0.51907 0.0
C3619 C 0.55649 0.62013 0.50356 0.0
N3620 N 0.54348 0.59689 0.46251 0.0
N3621 N 0.56979 0.68965 0.52313 0.0
C3622 C 0.54576 0.61835 0.47928 0.0
C3623 C 0.56008 0.66624 0.50982 0.0
N3624 N 0.52473 0.6363 0.45056 0.0
N3625 N 0.57128 0.64614 0.54308 0.0
H3626 H 0.56697 0.7059 0.51773 0.0
H3627 H 0.58184 0.69306 0.5386 0.0
H3628 H 0.57313 0.6307 0.55067 0.0
H3629 H 0.57428 0.6626 0.556 0.0
H3630 H 0.51587 0.61875 0.44071 0.0
H3631 H 0.52043 0.65116 0.44359 0.0
H3632 H 0.53796 0.5952 0.44399 0.0
H3633 H 0.54967 0.58171 0.46638 0.0
C3634 C 0.73746 0.31479 0.68967 0.0
C3635 C 0.71495 0.31033 0.69658 0.0
C3636 C 0.7295 0.29366 0.73156 0.0
C3637 C 0.75269 0.30136 0.72709 0.0
N3638 N 0.77816 0.31593 0.69939 0.0
N3639 N 0.6908 0.29916 0.72676 0.0
C3640 C 0.75649 0.3109 0.70528 0.0
C3641 C 0.71143 0.30084 0.71828 0.0
N3642 N 0.74059 0.32324 0.66836 0.0
N3643 N 0.72438 0.27785 0.74763 0.0
H3644 H 0.67695 0.30366 0.71749 0.0
H3645 H 0.68812 0.29554 0.74408 0.0
H3646 H 0.73644 0.26974 0.75565 0.0
H3647 H 0.70775 0.27 0.75035 0.0
H3648 H 0.75612 0.32724 0.66163 0.0
H3649 H 0.7272 0.32626 0.65698 0.0
H3650 H 0.78282 0.32263 0.68388 0.0
H3651 H 0.79181 0.31275 0.7101 0.0
C3652 C 0.03488 0.4258 0.01698 0.0
C3653 C 0.04242 0.41469 0.99553 0.0
C3654 C 0.05621 0.45646 0.98556 0.0
C3655 C 0.04965 0.46775 1.00761 0.0
N3656 N 0.03509 0.46371 0.04571 0.0
N3657 N 0.06175 0.41918 0.96019 0.0
C3658 C 0.03946 0.45253 0.02364 0.0
C3659 C 0.0535 0.42999 0.98008 0.0
N3660 N 0.02317 0.4107 0.03089 0.0
N3661 N 0.06422 0.47096 0.96924 0.0
H3662 H 0.05861 0.39988 0.95425 0.0
H3663 H 0.07283 0.42918 0.95018 0.0
H3664 H 0.06774 0.49044 0.97275 0.0
H3665 H 0.06605 0.46379 0.95138 0.0
H3666 H 1.01493 0.41713 0.04521 0.0
H3667 H 0.02062 0.39126 0.02729 0.0
H3668 H 0.03014 0.45412 0.05953 0.0
H3669 H 0.0378 0.48307 0.05097 0.0
C3670 C 0.99185 0.78679 0.20445 0.0
C3671 C 0.99235 0.79603 0.18221 0.0
C3672 C 0.95288 0.80104 0.1839 0.0
C3673 C 0.95276 0.79256 0.20654 0.0
N3674 N 0.97005 0.77289 0.23609 0.0
N3675 N 0.97344 0.81099 0.1499 0.0
C3676 C 0.97163 0.78402 0.21605 0.0
C3677 C 0.97277 0.80276 0.17163 0.0
N3678 N 1.01125 0.78203 0.21527 0.0
N3679 N 0.93359 0.80669 0.1739 0.0
H3680 H 0.98709 0.81102 0.13986 0.0
H3681 H 0.9608 0.81801 0.14162 0.0
H3682 H 0.9188 0.80521 0.18226 0.0
H3683 H 0.93154 0.81193 0.15701 0.0
H3684 H 1.01311 0.77803 0.23275 0.0
H3685 H 0.02635 0.78375 0.20747 0.0
H3686 H 0.98171 0.7633 0.24221 0.0
H3687 H 0.95614 0.77165 0.24584 0.0
C3688 C 0.52285 0.37017 0.06403 0.0
C3689 C 0.53749 0.36566 0.0832 0.0
C3690 C 0.56799 0.401 0.0785 0.0
C3691 C 0.55382 0.40445 0.05829 0.0
N3692 N 0.5187 0.39202 0.03037 0.0
N3693 N 0.57378 0.37548 0.10885 0.0
C3694 C 0.53145 0.389 0.05071 0.0
C3695 C 0.56004 0.38078 0.09055 0.0
N3696 N 0.50059 0.35669 0.05895 0.0
N3697 N 0.58883 0.41738 0.08628 0.0
H3698 H 0.56815 0.3614 0.11863 0.0
H3699 H 0.591 0.38422 0.11393 0.0
H3700 H 0.59529 0.43201 0.07745 0.0
H3701 H 0.59942 0.41743 0.10203 0.0
H3702 H 0.48821 0.36073 0.04711 0.0
H3703 H 0.49389 0.34218 0.06781 0.0
H3704 H 0.50327 0.37982 0.02222 0.0
H3705 H 0.52415 0.40605 0.02048 0.0
C3706 C 0.99626 0.33538 0.3301 0.0
C3707 C 1.0084 0.32327 0.31348 0.0
C3708 C 0.97454 0.31005 0.28274 0.0
C3709 C 0.96347 0.3248 0.29831 0.0
N3710 N 0.96449 0.35444 0.33532 0.0
N3711 N 1.01042 0.30061 0.27358 0.0
C3712 C 0.97448 0.33822 0.32164 0.0
C3713 C 0.9979 0.31087 0.28967 0.0
N3714 N 1.00538 0.34371 0.35411 0.0
N3715 N 0.96259 0.29501 0.26166 0.0
H3716 H 0.02746 0.30048 0.27835 0.0
H3717 H 1.00444 0.29366 0.25515 0.0
H3718 H 0.94549 0.29426 0.25604 0.0
H3719 H 0.96903 0.28194 0.25072 0.0
H3720 H 0.99623 0.35012 0.3676 0.0
H3721 H 0.02143 0.34207 0.36107 0.0
H3722 H 0.97296 0.36691 0.3511 0.0
H3723 H 0.94837 0.35706 0.32994 0.0
C3724 C 0.02304 0.63969 0.55266 0.0
C3725 C 0.01786 0.63602 0.57611 0.0
C3726 C 0.03674 0.60104 0.57337 0.0
C3727 C 0.04165 0.60443 0.54959 0.0
N3728 N 0.04776 0.63378 0.52208 0.0
N3729 N 0.01616 0.61119 0.60747 0.0
C3730 C 0.03688 0.62551 0.5406 0.0
C3731 C 0.02365 0.61603 0.58604 0.0
N3732 N 1.01486 0.65686 0.54183 0.0
N3733 N 0.04627 0.58525 0.58479 0.0
H3734 H 1.00643 0.62182 0.61692 0.0
H3735 H 0.01765 0.5955 0.61475 0.0
H3736 H 0.05835 0.57691 0.57746 0.0
H3737 H 0.04496 0.5832 0.60277 0.0
H3738 H 0.01548 0.65787 0.52348 0.0
H3739 H 1.00557 0.66859 0.55036 0.0
H3740 H 0.0465 0.65022 0.51604 0.0
H3741 H 0.06079 0.62645 0.5152 0.0
C3742 C 0.7332 0.81223 0.82533 0.0
C3743 C 0.71843 0.82518 0.8147 0.0
C3744 C 0.73963 0.82621 0.77962 0.0
C3745 C 0.75254 0.81067 0.78909 0.0
N3746 N 0.75738 0.78372 0.81835 0.0
N3747 N 0.70494 0.84113 0.77992 0.0
C3748 C 0.74792 0.8019 0.811 0.0
C3749 C 0.7209 0.83135 0.79132 0.0
N3750 N 0.7339 0.8107 0.84954 0.0
N3751 N 0.74522 0.83596 0.75951 0.0
H3752 H 0.69087 0.84487 0.78785 0.0
H3753 H 0.70464 0.84364 0.76187 0.0
H3754 H 0.75804 0.83143 0.74975 0.0
H3755 H 0.7381 0.84964 0.75343 0.0
H3756 H 0.74597 0.80351 0.85874 0.0
H3757 H 0.72414 0.81917 0.86112 0.0
H3758 H 0.75218 0.77493 0.83265 0.0
H3759 H 0.76901 0.77581 0.80934 0.0
C3760 C 0.53224 0.55008 0.63165 0.0
C3761 C 0.51582 0.56498 0.63565 0.0
C3762 C 0.52381 0.57787 0.59491 0.0
C3763 C 0.53886 0.56154 0.5901 0.0
N3764 N 0.55598 0.53084 0.60483 0.0
N3765 N 0.49449 0.59085 0.61791 0.0
C3766 C 0.5425 0.54737 0.60886 0.0
C3767 C 0.51138 0.57826 0.61632 0.0
N3768 N 0.53926 0.53949 0.65047 0.0
N3769 N 0.52205 0.59411 0.57941 0.0
H3770 H 0.48522 0.59163 0.63267 0.0
H3771 H 0.48833 0.59872 0.60381 0.0
H3772 H 0.53001 0.59385 0.56366 0.0
H3773 H 0.51413 0.60885 0.58294 0.0
H3774 H 0.55281 0.53084 0.65062 0.0
H3775 H 0.53278 0.54125 0.6671 0.0
H3776 H 0.55743 0.51746 0.61549 0.0
H3777 H 0.56448 0.52918 0.58952 0.0
C3778 C 0.77072 0.24283 0.94274 0.0
C3779 C 0.77401 0.21826 0.93702 0.0
C3780 C 0.76832 0.21804 0.89354 0.0
C3781 C 0.76727 0.24337 0.89928 0.0
N3782 N 0.76307 0.27902 0.92764 0.0
N3783 N 0.77742 0.18239 0.90825 0.0
C3784 C 0.76701 0.25552 0.92344 0.0
C3785 C 0.77302 0.20567 0.91274 0.0
N3786 N 0.77226 0.25421 0.96665 0.0
N3787 N 0.76407 0.20585 0.86975 0.0
H3788 H 0.78034 0.17244 0.92201 0.0
H3789 H 0.77951 0.17342 0.89111 0.0
H3790 H 0.75915 0.21444 0.85563 0.0
H3791 H 0.76306 0.18686 0.86417 0.0
H3792 H 0.77212 0.27286 0.97239 0.0
H3793 H 0.77458 0.24517 0.98129 0.0
H3794 H 0.76078 0.28832 0.94452 0.0
H3795 H 0.76078 0.28904 0.91379 0.0
C3796 C 0.09915 0.57685 0.12599 0.0
C3797 C 0.1144 0.5611 0.12778 0.0
C3798 C 0.09652 0.53461 0.089 0.0
C3799 C 0.08249 0.55137 0.08608 0.0
N3800 N 0.0725 0.5906 0.09948 0.0
N3801 N 0.13179 0.52922 0.10893 0.0
C3802 C 0.08449 0.57329 0.10383 0.0
C3803 C 0.11453 0.54143 0.10843 0.0
N3804 N 0.09788 0.59424 0.14574 0.0
N3805 N 0.09205 0.5118 0.07386 0.0
H3806 H 0.14575 0.5345 0.12271 0.0
H3807 H 0.13333 0.51538 0.09476 0.0
H3808 H 0.07791 0.50566 0.06045 0.0
H3809 H 0.10069 0.498 0.07635 0.0
H3810 H 0.08523 0.60423 0.14629 0.0
H3811 H 0.10854 0.59749 0.16228 0.0
H3812 H 0.07532 0.60819 0.1106 0.0
H3813 H 0.06085 0.58813 0.0838 0.0
C3814 C 0.82131 0.84467 0.3879 0.0
C3815 C 0.82632 0.82739 0.4025 0.0
C3816 C 0.82832 0.79808 0.36495 0.0
C3817 C 0.82489 0.81612 0.35056 0.0
N3818 N 0.82228 0.85837 0.34891 0.0
N3819 N 0.83737 0.78888 0.40529 0.0
C3820 C 0.82244 0.83987 0.36223 0.0
C3821 C 0.83074 0.8045 0.39109 0.0
N3822 N 0.81522 0.86571 0.39853 0.0
N3823 N 0.82806 0.77433 0.35363 0.0
H3824 H 0.83814 0.79227 0.42427 0.0
H3825 H 0.84349 0.77345 0.39848 0.0
H3826 H 0.82614 0.76884 0.33469 0.0
H3827 H 0.8279 0.75949 0.36281 0.0
H3828 H 0.80845 0.8773 0.38863 0.0
H3829 H 0.81541 0.87076 0.41732 0.0
H3830 H 0.82312 0.8769 0.35664 0.0
H3831 H 0.82349 0.85585 0.33025 0.0
C3832 C 0.5071 0.54415 0.91125 0.0
C3833 C 0.51747 0.56384 0.89931 0.0
C3834 C 0.54785 0.57797 0.93617 0.0
C3835 C 0.53857 0.55703 0.94724 0.0
N3836 N 0.50936 0.51876 0.94274 0.0
N3837 N 0.55071 0.59675 0.89963 0.0
C3838 C 0.51835 0.53968 0.93381 0.0
C3839 C 0.5386 0.58 0.91173 0.0
N3840 N 0.48555 0.5304 0.9018 0.0
N3841 N 0.56567 0.59642 0.94901 0.0
H3842 H 0.5449 0.59867 0.88207 0.0
H3843 H 0.5674 0.60701 0.90591 0.0
H3844 H 0.57383 0.59535 0.96584 0.0
H3845 H 0.57134 0.61361 0.94383 0.0
H3846 H 0.47561 0.51781 0.91065 0.0
H3847 H 0.47663 0.53327 0.88607 0.0
H3848 H 0.49699 0.50359 0.93258 0.0
H3849 H 0.51507 0.51586 0.95993 0.0
C3850 C 0.81125 0.23613 0.17717 0.0
C3851 C 0.80019 0.24284 0.15685 0.0
C3852 C 0.79648 0.28121 0.18282 0.0
C3853 C 0.81069 0.27612 0.20207 0.0
N3854 N 0.83762 0.25255 0.21384 0.0
N3855 N 0.78391 0.27275 0.13913 0.0
C3856 C 0.81959 0.25449 0.19837 0.0
C3857 C 0.79313 0.26566 0.15928 0.0
N3858 N 0.81415 0.21236 0.17611 0.0
N3859 N 0.78577 0.30033 0.18712 0.0
H3860 H 0.78081 0.26148 0.12178 0.0
H3861 H 0.78073 0.29041 0.13937 0.0
H3862 H 0.78787 0.31202 0.20413 0.0
H3863 H 0.77346 0.30331 0.17437 0.0
H3864 H 0.82041 0.20614 0.19139 0.0
H3865 H 0.80812 0.19824 0.16071 0.0
H3866 H 0.84564 0.23779 0.21096 0.0
H3867 H 0.84672 0.26762 0.22715 0.0
C3868 C 0.13886 0.6059 0.36524 0.0
C3869 C 0.12235 0.58714 0.34849 0.0
C3870 C 0.09395 0.58952 0.3758 0.0
C3871 C 0.11162 0.60363 0.39454 0.0
N3872 N 0.15037 0.62679 0.40763 0.0
N3873 N 0.08497 0.55881 0.33844 0.0
C3874 C 0.13388 0.61286 0.38925 0.0
C3875 C 0.09996 0.57858 0.3537 0.0
N3876 N 0.15921 0.61656 0.35826 0.0
N3877 N 0.0716 0.58543 0.37966 0.0
H3878 H 0.08874 0.55002 0.32194 0.0
H3879 H 0.06951 0.54966 0.34313 0.0
H3880 H 0.0664 0.59348 0.39558 0.0
H3881 H 0.05804 0.57651 0.36599 0.0
H3882 H 0.17121 0.63161 0.36912 0.0
H3883 H 0.16332 0.61151 0.34075 0.0
H3884 H 0.16766 0.63174 0.40584 0.0
H3885 H 0.14651 0.63264 0.42511 0.0
C3886 C 0.83716 0.82831 0.6746 0.0
C3887 C 0.81864 0.82881 0.65705 0.0
C3888 C 0.79271 0.81552 0.68683 0.0
C3889 C 0.81136 0.81852 0.7056 0.0
N3890 N 0.85226 0.83457 0.71718 0.0
N3891 N 0.78062 0.80297 0.64351 0.0
C3892 C 0.83382 0.8269 0.69946 0.0
C3893 C 0.79666 0.81704 0.6622 0.0
N3894 N 0.85695 0.82438 0.66681 0.0
N3895 N 0.77091 0.81202 0.69239 0.0
H3896 H 0.78468 0.79857 0.62588 0.0
H3897 H 0.765 0.79219 0.64632 0.0
H3898 H 0.76712 0.81298 0.71023 0.0
H3899 H 0.75705 0.81153 0.67959 0.0
H3900 H 0.87025 0.82148 0.67838 0.0
H3901 H 0.85821 0.81952 0.64827 0.0
H3902 H 0.86862 0.84231 0.71352 0.0
H3903 H 0.85084 0.83676 0.73568 0.0
C3904 C 0.74397 0.5315 0.53653 0.0
C3905 C 0.73948 0.50506 0.52954 0.0
C3906 C 0.69866 0.50099 0.53183 0.0
C3907 C 0.70286 0.52751 0.53737 0.0
N3908 N 0.72887 0.56838 0.54658 0.0
N3909 N 0.71329 0.46437 0.51906 0.0
C3910 C 0.72541 0.5429 0.54025 0.0
C3911 C 0.71703 0.4897 0.52691 0.0
N3912 N 0.76598 0.54554 0.53898 0.0
N3913 N 0.67723 0.48668 0.53218 0.0
H3914 H 0.72644 0.45534 0.51625 0.0
H3915 H 0.69718 0.45229 0.51404 0.0
H3916 H 0.66335 0.49435 0.53553 0.0
H3917 H 0.67334 0.46733 0.53083 0.0
H3918 H 0.77087 0.56497 0.54315 0.0
H3919 H 0.77991 0.53767 0.53664 0.0
H3920 H 0.74474 0.581 0.55028 0.0
H3921 H 0.71559 0.57738 0.54843 0.0
C3922 C 0.15703 0.12297 0.52347 0.0
C3923 C 0.17211 0.11602 0.50691 0.0
C3924 C 0.14177 0.0779 0.4894 0.0
C3925 C 0.12832 0.0826 0.50847 0.0
N3926 N 0.12693 0.10838 0.5471 0.0
N3927 N 0.18 0.08243 0.47853 0.0
C3928 C 0.13693 0.10489 0.52643 0.0
C3929 C 0.16479 0.0922 0.49115 0.0
N3930 N 0.16138 0.14706 0.53592 0.0
N3931 N 0.13238 0.06044 0.46883 0.0
H3932 H 0.19727 0.0914 0.4803 0.0
H3933 H 0.17597 0.06413 0.46863 0.0
H3934 H 0.11509 0.05135 0.46543 0.0
H3935 H 0.14102 0.05765 0.45375 0.0
H3936 H 0.1499 0.15368 0.54643 0.0
H3937 H 0.17519 0.16101 0.53359 0.0
H3938 H 0.13379 0.12311 0.56177 0.0
H3939 H 0.11331 0.09511 0.55072 0.0
C3940 C 0.27365 0.90608 0.78738 0.0
C3941 C 0.25346 0.90456 0.77083 0.0
C3942 C 0.25713 0.86027 0.75339 0.0
C3943 C 0.27805 0.86226 0.76917 0.0
N3944 N 0.30673 0.89034 0.80017 0.0
N3945 N 0.22763 0.87926 0.73622 0.0
C3946 C 0.28629 0.88616 0.78572 0.0
C3947 C 0.24583 0.8813 0.75342 0.0
N3948 N 0.28081 0.92676 0.80553 0.0
N3949 N 0.24772 0.83793 0.73798 0.0
H3950 H 0.21827 0.89288 0.73645 0.0
H3951 H 0.22252 0.86495 0.72096 0.0
H3952 H 0.25606 0.82345 0.73531 0.0
H3953 H 0.23123 0.83316 0.72859 0.0
H3954 H 0.29283 0.92812 0.82056 0.0
H3955 H 0.27361 0.94218 0.80645 0.0
H3956 H 0.31592 0.90798 0.8094 0.0
H3957 H 0.31517 0.87633 0.80235 0.0
C3958 C 0.46442 0.9963 0.03211 0.0
C3959 C 0.45376 0.01442 0.02414 0.0
C3960 C 0.48634 0.03089 1.00485 0.0
C3961 C 0.49834 0.01498 0.01518 0.0
N3962 N 0.49923 0.9819 0.03783 0.0
N3963 N 0.45625 0.05274 1.00909 0.0
C3964 C 0.48745 0.99743 0.02863 0.0
C3965 C 0.46546 0.03314 0.01277 0.0
N3966 N 0.45227 0.97771 0.04226 0.0
N3967 N 0.49391 0.04273 0.98656 0.0
H3968 H 0.44072 0.05463 0.01487 0.0
H3969 H 0.46514 0.06826 1.00285 0.0
H3970 H 0.50712 0.0389 0.97721 0.0
H3971 H 0.48475 0.05339 0.97786 0.0
H3972 H 0.45817 0.96237 0.04603 0.0
H3973 H 0.43576 0.97722 0.04632 0.0
H3974 H 0.49342 0.97072 0.05022 0.0
H3975 H 0.51532 0.98066 0.0333 0.0
C3976 C 0.8522 0.62104 0.77444 0.0
C3977 C 0.87617 0.62915 0.77527 0.0
C3978 C 0.87221 0.66704 0.76054 0.0
C3979 C 0.84847 0.66003 0.7618 0.0
N3980 N 0.81578 0.63231 0.77238 0.0
N3981 N 0.90971 0.66076 0.77247 0.0
C3982 C 0.83839 0.63752 0.76938 0.0
C3983 C 0.88642 0.65241 0.76922 0.0
N3984 N 0.84266 0.59736 0.77777 0.0
N3985 N 0.88101 0.68739 0.75061 0.0
H3986 H 0.92071 0.65053 0.77893 0.0
H3987 H 0.9182 0.67864 0.77068 0.0
H3988 H 0.87103 0.6987 0.74428 0.0
H3989 H 0.89776 0.69194 0.74681 0.0
H3990 H 0.82516 0.58938 0.77471 0.0
H3991 H 0.85232 0.58485 0.78189 0.0
H3992 H 0.80805 0.6177 0.78054 0.0
H3993 H 0.80491 0.64363 0.76821 0.0
C3994 C 0.89529 0.61868 0.03265 0.0
C3995 C 0.8982 0.64116 0.02306 0.0
C3996 C 0.93796 0.63956 0.0177 0.0
C3997 C 0.93464 0.61648 0.0262 0.0
N3998 N 0.91201 0.58634 0.04598 0.0
N3999 N 0.92203 0.67348 1.00674 0.0
C4000 C 0.91387 0.60681 0.03504 0.0
C4001 C 0.91957 0.65181 0.01582 0.0
N4002 N 0.87427 0.60785 0.03812 0.0
N4003 N 0.95909 0.65011 0.0123 0.0
H4004 H 0.90954 0.6837 1.00658 0.0
H4005 H 0.93603 0.68123 0.99872 0.0
H4006 H 0.97285 0.64178 0.01386 0.0
H4007 H 0.96367 0.66769 1.00767 0.0
H4008 H 0.87001 0.59017 0.04261 0.0
H4009 H 0.8603 0.61585 0.03666 0.0
H4010 H 0.89868 0.58001 0.05556 0.0
H4011 H 0.92466 0.57641 0.04695 0.0
C4012 C 0.27663 0.17785 0.75995 0.0
C4013 C 0.2599 0.17387 0.77627 0.0
C4014 C 0.27026 0.22111 0.79029 0.0
C4015 C 0.28602 0.22496 0.77296 0.0
N4016 N 0.29885 0.2058 0.73691 0.0
N4017 N 0.23808 0.19375 0.80361 0.0
C4018 C 0.2875 0.20289 0.75659 0.0
C4019 C 0.25603 0.19618 0.79046 0.0
N4020 N 0.2833 0.15765 0.74835 0.0
N4021 N 0.26941 0.24119 0.80741 0.0
H4022 H 0.22735 0.17641 0.80396 0.0
H4023 H 0.23258 0.20893 0.81228 0.0
H4024 H 0.27886 0.25926 0.80739 0.0
H4025 H 0.26057 0.2397 0.82238 0.0
H4026 H 0.29712 0.15923 0.73848 0.0
H4027 H 0.27661 0.13939 0.75067 0.0
H4028 H 0.29867 0.19105 0.72279 0.0
H4029 H 0.30618 0.22338 0.73323 0.0
C4030 C 0.38273 0.89877 0.28203 0.0
C4031 C 0.37771 0.91213 0.26384 0.0
C4032 C 0.33899 0.88701 0.25447 0.0
C4033 C 0.34314 0.87633 0.27542 0.0
N4034 N 0.36737 0.87753 0.31297 0.0
N4035 N 0.35215 0.92013 0.2323 0.0
C4036 C 0.36451 0.88389 0.2905 0.0
C4037 C 0.35616 0.90639 0.24966 0.0
N4038 N 0.40485 0.90142 0.29184 0.0
N4039 N 0.319 0.87809 0.23893 0.0
H4040 H 0.36522 0.9334 0.22752 0.0
H4041 H 0.33599 0.91904 0.22336 0.0
H4042 H 0.30577 0.86421 0.24227 0.0
H4043 H 0.31605 0.88324 0.22207 0.0
H4044 H 0.40961 0.89054 0.30398 0.0
H4045 H 0.41851 0.91266 0.28571 0.0
H4046 H 0.38259 0.88403 0.32493 0.0
H4047 H 0.35395 0.86887 0.32126 0.0
C4048 C 0.56884 0.44944 0.56802 0.0
C4049 C 0.58205 0.43441 0.55563 0.0
C4050 C 0.58759 0.46392 0.52653 0.0
C4051 C 0.5731 0.47781 0.53801 0.0
N4052 N 0.54551 0.47956 0.56618 0.0
N4053 N 0.59961 0.42472 0.51956 0.0
C4054 C 0.5623 0.46916 0.55758 0.0
C4055 C 0.59025 0.441 0.5339 0.0
N4056 N 0.56353 0.44589 0.59058 0.0
N4057 N 0.59884 0.47256 0.50843 0.0
H4058 H 0.60124 0.40763 0.52389 0.0
H4059 H 0.60372 0.42698 0.50229 0.0
H4060 H 0.59627 0.4882 0.50157 0.0
H4061 H 0.61167 0.46513 0.50126 0.0
H4062 H 0.55617 0.45794 0.60168 0.0
H4063 H 0.56863 0.43248 0.59935 0.0
H4064 H 0.53531 0.4723 0.57854 0.0
H4065 H 0.54036 0.49409 0.55938 0.0
C4066 C 0.40218 0.77024 0.32198 0.0
C4067 C 0.41078 0.78706 0.34444 0.0
C4068 C 0.37799 0.80684 0.33683 0.0
C4069 C 0.36833 0.78816 0.31542 0.0
N4070 N 0.36792 0.74564 0.29648 0.0
N4071 N 0.40353 0.8186 0.37553 0.0
C4072 C 0.37951 0.76805 0.31052 0.0
C4073 C 0.3978 0.80473 0.35242 0.0
N4074 N 0.41569 0.75633 0.31108 0.0
N4075 N 0.36817 0.82638 0.34287 0.0
H4076 H 0.41718 0.81713 0.38756 0.0
H4077 H 0.39352 0.82975 0.38358 0.0
H4078 H 0.35231 0.82704 0.33452 0.0
H4079 H 0.37613 0.84229 0.35589 0.0
H4080 H 0.41084 0.74546 0.29358 0.0
H4081 H 0.4326 0.75793 0.31828 0.0
H4082 H 0.37505 0.73019 0.29336 0.0
H4083 H 0.35025 0.74112 0.29185 0.0
C4084 C 0.09663 0.66827 0.06427 0.0
C4085 C 0.08777 0.6817 0.04762 0.0
C4086 C 0.07046 0.64174 0.0193 0.0
C4087 C 0.08121 0.62854 0.03486 0.0
N4088 N 0.10689 0.63013 0.07127 0.0
N4089 N 0.06986 0.68159 1.00731 0.0
C4090 C 0.09524 0.64214 0.0569 0.0
C4091 C 0.07569 0.6685 0.02458 0.0
N4092 N 0.10497 0.68007 0.08782 0.0
N4093 N 0.0549 0.62881 0.99962 0.0
H4094 H 0.07368 0.70112 0.01035 0.0
H4095 H 0.06324 0.67326 0.98928 0.0
H4096 H 0.05106 0.60941 0.99433 0.0
H4097 H 0.04446 0.63717 0.98952 0.0
H4098 H 0.10923 0.67074 0.1016 0.0
H4099 H 0.1055 0.69883 0.09438 0.0
H4100 H 0.11977 0.63958 0.0855 0.0
H4101 H 0.10475 0.61078 0.06835 0.0
C4102 C 0.15618 0.31643 0.87012 0.0
C4103 C 0.13625 0.29704 0.8602 0.0
C4104 C 0.15739 0.28102 0.828 0.0
C4105 C 0.17649 0.30164 0.83654 0.0
N4106 N 0.19293 0.34106 0.86374 0.0
N4107 N 0.11669 0.26423 0.82643 0.0
C4108 C 0.17551 0.32 0.85701 0.0
C4109 C 0.13659 0.28018 0.8383 0.0
N4110 N 0.15704 0.33079 0.89258 0.0
N4111 N 0.15907 0.26203 0.80999 0.0
H4112 H 0.10094 0.26364 0.83268 0.0
H4113 H 0.11532 0.25341 0.80911 0.0
H4114 H 0.17355 0.2623 0.80124 0.0
H4115 H 0.14683 0.24509 0.80509 0.0
H4116 H 0.17175 0.34355 0.9019 0.0
H4117 H 0.1436 0.32836 0.90299 0.0
H4118 H 0.1921 0.35654 0.87652 0.0
H4119 H 0.20766 0.34379 0.85525 0.0
C4120 C 0.57537 0.71146 0.94555 0.0
C4121 C 0.59123 0.73381 0.95792 0.0
C4122 C 0.59511 0.71554 0.9946 0.0
C4123 C 0.57804 0.69396 0.98288 0.0
N4124 N 0.54954 0.67233 0.94868 0.0
N4125 N 0.61299 0.75912 0.99539 0.0
C4126 C 0.56742 0.69221 0.95877 0.0
C4127 C 0.60027 0.7364 0.98277 0.0
N4128 N 0.56857 0.7083 0.92101 0.0
N4129 N 0.60672 0.71592 0.01689 0.0
H4130 H 0.61695 0.77498 0.9875 0.0
H4131 H 0.61794 0.76291 0.0142 0.0
H4132 H 0.60294 0.7014 0.02661 0.0
H4133 H 0.62123 0.72977 0.02497 0.0
H4134 H 0.55882 0.69154 0.91042 0.0
H4135 H 0.57424 0.72186 0.91067 0.0
H4136 H 0.53939 0.67128 0.93229 0.0
H4137 H 0.54376 0.65757 0.95762 0.0
C4138 C 0.13504 0.7952 0.75119 0.0
C4139 C 0.11793 0.77257 0.74396 0.0
C4140 C 0.14622 0.7488 0.75176 0.0
C4141 C 0.16367 0.77064 0.75236 0.0
N4142 N 0.1751 0.81535 0.75405 0.0
N4143 N 0.10668 0.73286 0.75637 0.0
C4144 C 0.15826 0.79415 0.75264 0.0
C4145 C 0.12328 0.75071 0.75015 0.0
N4146 N 0.12931 0.81665 0.76095 0.0
N4147 N 0.15136 0.72608 0.75142 0.0
H4148 H 0.09016 0.73533 0.75734 0.0
H4149 H 0.10992 0.71739 0.76305 0.0
H4150 H 0.16804 0.7238 0.75258 0.0
H4151 H 0.13889 0.70929 0.74816 0.0
H4152 H 0.14135 0.83335 0.76827 0.0
H4153 H 0.11286 0.81632 0.76528 0.0
H4154 H 0.17162 0.83243 0.75184 0.0
H4155 H 0.19243 0.81542 0.75589 0.0
C4156 C 0.10015 0.45515 0.48816 0.0
C4157 C 0.11337 0.46092 0.46938 0.0
C4158 C 0.11385 0.50527 0.48107 0.0
C4159 C 0.09836 0.49904 0.49787 0.0
N4160 N 0.07435 0.46761 0.51542 0.0
N4161 N 0.13035 0.49051 0.44539 0.0
C4162 C 0.09077 0.47383 0.50083 0.0
C4163 C 0.1196 0.48574 0.46511 0.0
N4164 N 0.09701 0.43193 0.49423 0.0
N4165 N 0.12344 0.52979 0.48067 0.0
H4166 H 0.13534 0.47673 0.43366 0.0
H4167 H 0.13283 0.50767 0.43965 0.0
H4168 H 0.11941 0.54459 0.49185 0.0
H4169 H 0.13663 0.53547 0.47065 0.0
H4170 H 0.08974 0.42745 0.50955 0.0
H4171 H 0.10358 0.4177 0.48523 0.0
H4172 H 0.06637 0.4492 0.51609 0.0
H4173 H 0.06719 0.48066 0.5254 0.0
C4174 C 0.40257 0.26104 0.24445 0.0
C4175 C 0.41611 0.27813 0.23238 0.0
C4176 C 0.39846 0.31131 0.24975 0.0
C4177 C 0.38416 0.29364 0.26101 0.0
N4178 N 0.38244 0.25729 0.27933 0.0
N4179 N 0.4332 0.32134 0.23143 0.0
C4180 C 0.38936 0.27022 0.26162 0.0
C4181 C 0.41598 0.30386 0.23742 0.0
N4182 N 0.40136 0.23597 0.23883 0.0
N4183 N 0.39545 0.33494 0.25014 0.0
H4184 H 0.44688 0.31671 0.2233 0.0
H4185 H 0.43531 0.34058 0.23694 0.0
H4186 H 0.38668 0.34383 0.2624 0.0
H4187 H 0.40233 0.34617 0.23819 0.0
H4188 H 0.39001 0.22277 0.24584 0.0
H4189 H 0.41002 0.2282 0.22552 0.0
H4190 H 0.38772 0.24122 0.28197 0.0
H4191 H 0.37407 0.26468 0.29315 0.0
C4192 C 0.62244 0.55361 0.42855 0.0
C4193 C 0.61544 0.53321 0.4078 0.0
C4194 C 0.58725 0.51299 0.43369 0.0
C4195 C 0.59221 0.53454 0.45322 0.0
N4196 N 0.61363 0.57723 0.46603 0.0
N4197 N 0.58637 0.49578 0.39051 0.0
C4198 C 0.60967 0.55527 0.44969 0.0
C4199 C 0.59656 0.51361 0.41055 0.0
N4200 N 0.64204 0.57128 0.42871 0.0
N4201 N 0.5742 0.49097 0.43752 0.0
H4202 H 0.59181 0.49579 0.37339 0.0
H4203 H 0.57105 0.48274 0.39023 0.0
H4204 H 0.56843 0.48892 0.45421 0.0
H4205 H 0.57162 0.47404 0.42535 0.0
H4206 H 0.64967 0.58508 0.44389 0.0
H4207 H 0.65188 0.57066 0.41441 0.0
H4208 H 0.62387 0.59398 0.46339 0.0
H4209 H 0.60518 0.57908 0.48135 0.0
C4210 C 0.36648 0.89539 0.1326 0.0
C4211 C 0.35662 0.87984 0.10974 0.0
C4212 C 0.353 0.84233 0.12738 0.0
C4213 C 0.36344 0.85779 0.15011 0.0
N4214 N 0.38362 0.89781 0.17417 0.0
N4215 N 0.34465 0.83896 0.08372 0.0
C4216 C 0.37142 0.88401 0.15264 0.0
C4217 C 0.35117 0.8534 0.10661 0.0
N4218 N 0.37011 0.92087 0.13529 0.0
N4219 N 0.34389 0.81726 0.12593 0.0
H4220 H 0.34295 0.84646 0.06792 0.0
H4221 H 0.34274 0.81964 0.08003 0.0
H4222 H 0.34545 0.80802 0.14054 0.0
H4223 H 0.33342 0.80577 0.11066 0.0
H4224 H 0.37519 0.93312 0.15202 0.0
H4225 H 0.36652 0.92987 0.12096 0.0
H4226 H 0.39169 0.91674 0.17658 0.0
H4227 H 0.3872 0.88978 0.18924 0.0
C4228 C 0.03787 0.56952 0.92432 0.0
C4229 C 0.01609 0.55275 0.91916 0.0
C4230 C 0.02583 0.53118 0.9514 0.0
C4231 C 0.04677 0.54976 0.95867 0.0
N4232 N 0.06927 0.59081 0.95548 0.0
N4233 N 0.98707 0.52158 0.93108 0.0
C4234 C 0.05184 0.57023 0.9462 0.0
C4235 C 1.00923 0.53511 0.93406 0.0
N4236 N 0.04562 0.58409 0.90799 0.0
N4237 N 0.0224 0.50883 0.95916 0.0
H4238 H 0.9745 0.52387 0.91813 0.0
H4239 H 0.98081 0.51005 0.94306 0.0
H4240 H 0.0351 0.50346 0.96918 0.0
H4241 H 1.00808 0.49412 0.95267 0.0
H4242 H 0.0625 0.59434 0.9097 0.0
H4243 H 0.03578 0.58432 0.89173 0.0
H4244 H 0.07209 0.60685 0.94777 0.0
H4245 H 0.07895 0.59348 0.97248 0.0
C4246 C 0.29319 0.25331 0.65518 0.0
C4247 C 0.30446 0.27116 0.64201 0.0
C4248 C 0.31948 0.3004 0.68123 0.0
C4249 C 0.30618 0.28363 0.69403 0.0
N4250 N 0.27803 0.24514 0.69252 0.0
N4251 N 0.32504 0.31358 0.6425 0.0
C4252 C 0.29215 0.26052 0.68073 0.0
C4253 C 0.31672 0.29523 0.65508 0.0
N4254 N 0.28471 0.22893 0.64367 0.0
N4255 N 0.33515 0.32114 0.69402 0.0
H4256 H 0.32298 0.31074 0.62346 0.0
H4257 H 0.33201 0.3322 0.65082 0.0
H4258 H 0.33735 0.32605 0.71301 0.0
H4259 H 0.34719 0.33243 0.68594 0.0
H4260 H 0.27852 0.21449 0.65277 0.0
H4261 H 0.28601 0.22255 0.62541 0.0
H4262 H 0.26551 0.22952 0.6834 0.0
H4263 H 0.27765 0.24897 0.71131 0.0
C4264 C 0.6198 0.52377 0.12295 0.0
C4265 C 0.61322 0.53433 0.14547 0.0
C4266 C 0.5848 0.54996 0.11969 0.0
C4267 C 0.59299 0.54151 0.09733 0.0
N4268 N 0.62235 0.52436 0.0798 0.0
N4269 N 0.59016 0.5599 0.16445 0.0
C4270 C 0.61144 0.5293 0.09965 0.0
C4271 C 0.596 0.54821 0.14345 0.0
N4272 N 0.63428 0.50819 0.12362 0.0
N4273 N 0.56531 0.55846 0.11832 0.0
H4274 H 0.59659 0.55782 0.18174 0.0
H4275 H 0.58014 0.57288 0.16484 0.0
H4276 H 0.55625 0.5592 0.10179 0.0
H4277 H 0.55681 0.56241 0.13323 0.0
H4278 H 0.63738 0.49708 0.10806 0.0
H4279 H 0.64185 0.50487 0.13988 0.0
H4280 H 0.63735 0.51816 0.0806 0.0
H4281 H 0.618 0.5291 0.06304 0.0
C4282 C 0.33582 0.83189 0.88178 0.0
C4283 C 0.32817 0.85437 0.88443 0.0
C4284 C 0.30816 0.84212 0.84306 0.0
C4285 C 0.31824 0.82142 0.83901 0.0
N4286 N 0.3439 0.79786 0.85371 0.0
N4287 N 0.3122 0.8839 0.86557 0.0
C4288 C 0.33276 0.81661 0.85816 0.0
C4289 C 0.31614 0.86053 0.86433 0.0
N4290 N 0.34519 0.82474 0.90184 0.0
N4291 N 0.28954 0.8431 0.82784 0.0
H4292 H 0.31824 0.89817 0.88084 0.0
H4293 H 0.30498 0.88971 0.85053 0.0
H4294 H 0.28107 0.82809 0.81408 0.0
H4295 H 0.28064 0.85705 0.83118 0.0
H4296 H 0.34878 0.80724 0.90138 0.0
H4297 H 0.34778 0.8356 0.91935 0.0
H4298 H 0.35638 0.79509 0.86638 0.0
H4299 H 0.34189 0.78624 0.83665 0.0
C4300 C 0.9816 0.51004 0.66626 0.0
C4301 C 0.99574 0.50546 0.68594 0.0
C4302 C 1.01036 0.47664 0.658 0.0
C4303 C 1.00103 0.48631 0.63879 0.0
N4304 N 0.97049 0.50166 0.62217 0.0
N4305 N 0.02245 0.48338 0.70148 0.0
C4306 C 0.98377 0.49921 0.64223 0.0
C4307 C 1.00948 0.48801 0.68216 0.0
N4308 N 0.96683 0.52512 0.67064 0.0
N4309 N 0.02067 0.45736 0.65285 0.0
H4310 H 0.02241 0.49173 0.71955 0.0
H4311 H 0.0344 0.47259 0.69956 0.0
H4312 H 0.02086 0.44874 0.63492 0.0
H4313 H 0.02675 0.4483 0.66599 0.0
H4314 H 0.95703 0.53035 0.65702 0.0
H4315 H 0.96464 0.53306 0.68818 0.0
H4316 H 0.95726 0.51079 0.62262 0.0
H4317 H 0.97205 0.49251 0.60484 0.0
C4318 C 0.3101 0.28939 0.3824 0.0
C4319 C 0.3123 0.26496 0.38519 0.0
C4320 C 0.32441 0.25949 0.34381 0.0
C4321 C 0.32019 0.28283 0.3401 0.0
N4322 N 0.30521 0.31821 0.35503 0.0
N4323 N 0.31687 0.22484 0.36563 0.0
C4324 C 0.31185 0.29718 0.35917 0.0
C4325 C 0.31812 0.24951 0.36502 0.0
N4326 N 0.30747 0.30576 0.40229 0.0
N4327 N 0.33531 0.24713 0.32746 0.0
H4328 H 0.31184 0.21665 0.38035 0.0
H4329 H 0.31855 0.21198 0.3506 0.0
H4330 H 0.34045 0.25415 0.31223 0.0
H4331 H 0.34113 0.23141 0.33022 0.0
H4332 H 0.3083 0.32462 0.40228 0.0
H4333 H 0.30662 0.30109 0.41954 0.0
H4334 H 0.29672 0.32802 0.36701 0.0
H4335 H 0.30618 0.32445 0.33851 0.0
C4336 C 0.41189 0.60515 0.50448 0.0
C4337 C 0.39326 0.59307 0.51524 0.0
C4338 C 0.41178 0.55912 0.52009 0.0
C4339 C 0.42933 0.56998 0.50734 0.0
N4340 N 0.44458 0.60091 0.48382 0.0
N4341 N 0.37301 0.55626 0.52863 0.0
C4342 C 0.42894 0.5923 0.49842 0.0
C4343 C 0.39249 0.5694 0.52179 0.0
N4344 N 0.41373 0.6292 0.50095 0.0
N4345 N 0.41377 0.5393 0.53099 0.0
H4346 H 0.35822 0.56286 0.52951 0.0
H4347 H 0.37073 0.53781 0.53118 0.0
H4348 H 0.42751 0.53091 0.52979 0.0
H4349 H 0.40278 0.53252 0.5429 0.0
H4350 H 0.42806 0.63979 0.49538 0.0
H4351 H 0.40182 0.63948 0.50568 0.0
H4352 H 0.44354 0.61545 0.47451 0.0
H4353 H 0.45765 0.59222 0.47945 0.0
C4354 C 0.97215 0.97866 0.51837 0.0
C4355 C 0.95984 0.98306 0.53843 0.0
C4356 C 0.99408 0.01541 0.55906 0.0
C4357 C 1.00489 0.01457 0.53737 0.0
N4358 N 0.99988 0.99656 0.49398 0.0
N4359 N 0.95812 1.011 0.57552 0.0
C4360 C 0.99276 0.99649 0.51633 0.0
C4361 C 0.97051 1.00307 0.55803 0.0
N4362 N 0.96471 0.957 0.50147 0.0
N4363 N 1.00647 0.02676 0.58121 0.0
H4364 H 0.94071 1.00327 0.575 0.0
H4365 H 0.96463 0.02706 0.58889 0.0
H4366 H 0.02419 0.03289 0.5836 0.0
H4367 H 0.99961 0.02648 0.59759 0.0
H4368 H 0.97428 0.95154 0.48796 0.0
H4369 H 0.95029 0.9432 0.50262 0.0
H4370 H 0.99023 0.98553 0.47797 0.0
H4371 H 1.01397 1.00929 0.49076 0.0
C4372 C 0.85791 0.19468 0.2849 0.0
C4373 C 0.87753 0.19376 0.27238 0.0
C4374 C 0.87407 0.23624 0.26248 0.0
C4375 C 0.85364 0.23667 0.274 0.0
N4376 N 0.83095 0.21765 0.30203 0.0
N4377 N 0.90206 0.21401 0.24665 0.0
C4378 C 0.8469 0.216 0.28654 0.0
C4379 C 0.88481 0.21474 0.26058 0.0
N4380 N 0.84883 0.17426 0.29452 0.0
N4381 N 0.88444 0.2571 0.25426 0.0
H4382 H 0.91141 0.20036 0.24621 0.0
H4383 H 0.90611 0.22578 0.23422 0.0
H4384 H 0.87798 0.27288 0.25467 0.0
H4385 H 0.90073 0.25995 0.24908 0.0
H4386 H 0.83315 0.1714 0.3011 0.0
H4387 H 0.85616 0.15896 0.29408 0.0
H4388 H 0.82683 0.20553 0.31412 0.0
H4389 H 0.82353 0.23287 0.30488 0.0
C4390 C 0.66804 0.06157 0.03624 0.0
C4391 C 0.67967 0.08187 0.02667 0.0
C4392 C 0.64794 0.10178 0.02875 0.0
C4393 C 0.63571 0.081 0.03733 0.0
N4394 N 0.63224 0.0386 0.04508 0.0
N4395 N 0.67934 0.11754 1.00753 0.0
C4396 C 0.6452 0.06018 0.04009 0.0
C4397 C 0.66914 0.10082 0.02086 0.0
N4398 N 0.6791 0.044 0.04217 0.0
N4399 N 0.63931 0.12246 0.02852 0.0
H4400 H 0.69469 0.11663 1.00084 0.0
H4401 H 0.6715 0.13046 1.00092 0.0
H4402 H 0.62379 0.12369 0.03469 0.0
H4403 H 0.64844 0.13912 0.02446 0.0
H4404 H 0.67262 0.03061 0.05234 0.0
H4405 H 0.6954 0.04355 0.03781 0.0
H4406 H 0.63735 0.02182 0.04333 0.0
H4407 H 0.61583 0.03663 0.04965 0.0
C4408 C 0.24247 0.44212 0.26711 0.0
C4409 C 0.25138 0.46817 0.26895 0.0
C4410 C 0.28962 0.46445 0.28266 0.0
C4411 C 0.28039 0.43873 0.28255 0.0
N4412 N 0.24769 0.40406 0.27978 0.0
N4413 N 0.28195 0.5053 0.28294 0.0
C4414 C 0.25666 0.42783 0.27633 0.0
C4415 C 0.27455 0.47975 0.27808 0.0
N4416 N 0.22074 0.43097 0.25583 0.0
N4417 N 0.31276 0.47399 0.28617 0.0
H4418 H 0.27131 0.51717 0.27976 0.0
H4419 H 0.29809 0.51478 0.29205 0.0
H4420 H 0.32445 0.46334 0.28958 0.0
H4421 H 0.32043 0.49194 0.28376 0.0
H4422 H 0.21419 0.41164 0.25173 0.0
H4423 H 0.20981 0.44084 0.24857 0.0
H4424 H 0.23021 0.39613 0.27792 0.0
H4425 H 0.25766 0.39303 0.2867 0.0
C4426 C 0.211 0.44257 0.0151 0.0
C4427 C 0.23392 0.45706 0.02179 0.0
C4428 C 0.22015 0.49582 0.02486 0.0
C4429 C 0.19732 0.48136 0.01758 0.0
N4430 N 0.17122 0.44139 1.00178 0.0
N4431 N 0.26076 0.49725 0.0287 0.0
C4432 C 0.19283 0.45482 0.01148 0.0
C4433 C 0.23858 0.48364 0.02542 0.0
N4434 N 0.20652 0.41712 0.01311 0.0
N4435 N 0.22415 0.52125 0.0319 0.0
H4436 H 0.27467 0.48906 0.02923 0.0
H4437 H 0.2655 0.51641 0.02892 0.0
H4438 H 0.21131 0.53096 0.03102 0.0
H4439 H 0.23991 0.53271 0.0401 0.0
H4440 H 0.19013 0.40558 0.01081 0.0
H4441 H 0.21931 0.40755 0.01543 0.0
H4442 H 0.16706 0.4223 0.99451 0.0
H4443 H 0.15759 0.44977 0.99925 0.0
C4444 C 0.87633 0.91025 0.28481 0.0
C4445 C 0.87021 0.92402 0.26659 0.0
C4446 C 0.8389 0.88539 0.24851 0.0
C4447 C 0.8436 0.87246 0.26789 0.0
N4448 N 0.86631 0.87486 0.30608 0.0
N4449 N 0.84253 0.92448 0.23304 0.0
C4450 C 0.86234 0.88557 0.28634 0.0
C4451 C 0.85075 0.91129 0.24892 0.0
N4452 N 0.89611 0.92046 0.30042 0.0
N4453 N 0.82316 0.87255 0.22896 0.0
H4454 H 0.85013 0.94313 0.23282 0.0
H4455 H 0.82701 0.91782 0.22167 0.0
H4456 H 0.81405 0.85412 0.2279 0.0
H4457 H 0.82074 0.87915 0.21278 0.0
H4458 H 0.90314 0.91092 0.31251 0.0
H4459 H 0.90655 0.93791 0.2999 0.0
H4460 H 0.87742 0.88418 0.32181 0.0
H4461 H 0.85736 0.85689 0.30719 0.0
C4462 C 0.79154 0.18315 0.74714 0.0
C4463 C 0.7767 0.18057 0.7653 0.0
C4464 C 0.80138 0.21695 0.79136 0.0
C4465 C 0.8092 0.22455 0.77051 0.0
N4466 N 0.8197 0.21213 0.73082 0.0
N4467 N 0.76587 0.19893 0.80361 0.0
C4468 C 0.80719 0.20656 0.74906 0.0
C4469 C 0.78139 0.19816 0.78756 0.0
N4470 N 0.79085 0.16349 0.72881 0.0
N4471 N 0.81115 0.22973 0.8141 0.0
H4472 H 0.74956 0.18701 0.80048 0.0
H4473 H 0.76838 0.21385 0.81824 0.0
H4474 H 0.82599 0.24413 0.81653 0.0
H4475 H 0.8056 0.22429 0.82994 0.0
H4476 H 0.8022 0.16403 0.71595 0.0
H4477 H 0.78014 0.14583 0.72779 0.0
H4478 H 0.81693 0.201 0.71347 0.0
H4479 H 0.83311 0.22813 0.7335 0.0
loop_
_geom_bond_atom_site_label_1
_geom_bond_atom_site_label_2
_geom_bond_distance
_geom_bond_site_symmetry_2
_ccdc_geom_bond_type
Li0 N17 1.990 . S
Li0 O60 1.956 . S
Li0 O61 1.970 . S
Li0 O62 1.961 . S
Li1 N25 1.990 . S
Li1 O60 1.970 . S
Li1 O61 1.956 . S
Li1 O63 1.961 . S
Li2 N47 1.990 . S
Li2 O60 1.961 . S
Li2 O62 1.956 . S
Li2 O63 1.970 . S
Li3 N53 1.990 . S
Li3 O61 1.961 . S
Li3 O62 1.970 . S
Li3 O63 1.956 . S
C4 C6 1.348 . S
C4 C7 1.356 . S
C4 O60 1.325 . S
N5 C8 1.314 . S
N5 C9 1.279 . S
C6 C4 1.348 . S
C6 C8 1.353 . S
C6 H64 0.929 . S
C7 C4 1.356 . S
C7 C9 1.358 . S
C7 H65 0.930 . S
C8 N5 1.314 . S
C8 C6 1.353 . S
C8 H66 0.930 . S
C9 N5 1.279 . S
C9 C7 1.358 . S
C9 H67 0.930 . S
C10 C13 1.348 . S
C10 C14 1.356 . S
C10 O61 1.325 . S
C11 N12 1.279 . S
C11 C14 1.358 . S
C11 H68 0.930 . S
N12 C11 1.279 . S
N12 C15 1.314 . S
C13 C10 1.348 . S
C13 C15 1.353 . S
C13 H69 0.929 . S
C14 C10 1.356 . S
C14 C11 1.358 . S
C14 H70 0.930 . S
C15 N12 1.314 . S
C15 C13 1.353 . S
C15 H71 0.930 . S
C16 N17 1.314 . S
C16 C21 1.353 . S
C16 H22 0.930 . S
N17 Li0 1.990 . S
N17 C16 1.314 . S
N17 C19 1.279 . S
C18 C19 1.358 . S
C18 C20 1.356 . S
C18 H72 0.930 . S
C19 N17 1.279 . S
C19 C18 1.358 . S
C19 H23 0.930 . S
C20 C18 1.356 . S
C20 C21 1.348 . S
C21 C16 1.353 . S
C21 C20 1.348 . S
C21 H73 0.929 . S
H22 C16 0.930 . S
H23 C19 0.930 . S
C24 N25 1.314 . S
C24 C26 1.353 . S
C24 H30 0.930 . S
N25 Li1 1.990 . S
N25 C24 1.314 . S
N25 C28 1.279 . S
C26 C24 1.353 . S
C26 C29 1.348 . S
C26 H74 0.929 . S
C27 C28 1.358 . S
C27 C29 1.356 . S
C27 H75 0.930 . S
C28 N25 1.279 . S
C28 C27 1.358 . S
C28 H31 0.930 . S
C29 C26 1.348 . S
C29 C27 1.356 . S
H30 C24 0.930 . S
H31 C28 0.930 . S
C32 C34 1.348 . S
C32 C35 1.356 . S
C32 O62 1.325 . S
N33 C36 1.314 . S
N33 C37 1.279 . S
C34 C32 1.348 . S
C34 C36 1.353 . S
C34 H76 0.929 . S
C35 C32 1.356 . S
C35 C37 1.358 . S
C35 H77 0.930 . S
C36 N33 1.314 . S
C36 C34 1.353 . S
C36 H78 0.930 . S
C37 N33 1.279 . S
C37 C35 1.358 . S
C37 H79 0.930 . S
C38 C39 1.348 . S
C38 C40 1.356 . S
C38 O63 1.325 . S
C39 C38 1.348 . S
C39 C41 1.353 . S
C39 H80 0.929 . S
C40 C38 1.356 . S
C40 C42 1.358 . S
C40 H81 0.930 . S
C41 C39 1.353 . S
C41 N43 1.314 . S
C41 H82 0.930 . S
C42 C40 1.358 . S
C42 N43 1.279 . S
C42 H83 0.930 . S
N43 C41 1.314 . S
N43 C42 1.279 . S
C44 C46 1.353 . S
C44 N47 1.314 . S
C44 H50 0.930 . S
C45 N47 1.279 . S
C45 C48 1.358 . S
C45 H51 0.930 . S
C46 C44 1.353 . S
C46 C49 1.348 . S
C46 H84 0.929 . S
N47 Li2 1.990 . S
N47 C44 1.314 . S
N47 C45 1.279 . S
C48 C45 1.358 . S
C48 C49 1.356 . S
C48 H85 0.930 . S
C49 C46 1.348 . S
C49 C48 1.356 . S
H50 C44 0.930 . S
H51 C45 0.930 . S
C52 N53 1.314 . S
C52 C54 1.353 . S
C52 H58 0.930 . S
N53 Li3 1.990 . S
N53 C52 1.314 . S
N53 C56 1.279 . S
C54 C52 1.353 . S
C54 C57 1.348 . S
C54 H86 0.929 . S
C55 C56 1.358 . S
C55 C57 1.356 . S
C55 H87 0.930 . S
C56 N53 1.279 . S
C56 C55 1.358 . S
C56 H59 0.930 . S
C57 C54 1.348 . S
C57 C55 1.356 . S
H58 C52 0.930 . S
H59 C56 0.930 . S
O60 Li0 1.956 . S
O60 Li1 1.970 . S
O60 Li2 1.961 . S
O60 C4 1.325 . S
O61 Li0 1.970 . S
O61 Li1 1.956 . S
O61 Li3 1.961 . S
O61 C10 1.325 . S
O62 Li0 1.961 . S
O62 Li2 1.956 . S
O62 Li3 1.970 . S
O62 C32 1.325 . S
O63 Li1 1.961 . S
O63 Li2 1.970 . S
O63 Li3 1.956 . S
O63 C38 1.325 . S
H64 C6 0.929 . S
H65 C7 0.930 . S
H66 C8 0.930 . S
H67 C9 0.930 . S
H68 C11 0.930 . S
H69 C13 0.929 . S
H70 C14 0.930 . S
H71 C15 0.930 . S
H72 C18 0.930 . S
H73 C21 0.929 . S
H74 C26 0.929 . S
H75 C27 0.930 . S
H76 C34 0.929 . S
H77 C35 0.930 . S
H78 C36 0.930 . S
H79 C37 0.930 . S
H80 C39 0.929 . S
H81 C40 0.930 . S
H82 C41 0.930 . S
H83 C42 0.930 . S
H84 C46 0.929 . S
H85 C48 0.930 . S
H86 C54 0.929 . S
H87 C55 0.930 . S
Li88 N105 1.990 . S
Li88 O148 1.956 . S
Li88 O149 1.970 . S
Li88 O150 1.961 1_455 S
Li89 N113 1.990 . S
Li89 O148 1.970 . S
Li89 O149 1.956 . S
Li89 O151 1.961 1_455 S
Li90 N135 1.990 . S
Li90 O148 1.961 1_655 S
Li90 O150 1.956 . S
Li90 O151 1.970 . S
Li91 N141 1.990 . S
Li91 O149 1.961 1_655 S
Li91 O150 1.970 . S
Li91 O151 1.956 . S
C92 C94 1.348 . S
C92 C95 1.356 . S
C92 O148 1.325 . S
N93 C96 1.314 . S
N93 C97 1.279 . S
C94 C92 1.348 . S
C94 C96 1.353 . S
C94 H152 0.929 . S
C95 C92 1.356 . S
C95 C97 1.358 . S
C95 H153 0.930 . S
C96 N93 1.314 . S
C96 C94 1.353 . S
C96 H154 0.930 . S
C97 N93 1.279 . S
C97 C95 1.358 . S
C97 H155 0.930 . S
C98 C101 1.348 . S
C98 C102 1.356 . S
C98 O149 1.325 . S
C99 N100 1.279 . S
C99 C102 1.358 . S
C99 H156 0.930 . S
N100 C99 1.279 . S
N100 C103 1.314 . S
C101 C98 1.348 . S
C101 C103 1.353 . S
C101 H157 0.929 . S
C102 C98 1.356 . S
C102 C99 1.358 . S
C102 H158 0.930 . S
C103 N100 1.314 . S
C103 C101 1.353 . S
C103 H159 0.930 . S
C104 N105 1.314 1_655 S
C104 C109 1.353 . S
C104 H110 0.930 . S
N105 Li88 1.990 . S
N105 C104 1.314 1_455 S
N105 C107 1.279 . S
C106 C107 1.358 . S
C106 C108 1.356 . S
C106 H160 0.930 . S
C107 N105 1.279 . S
C107 C106 1.358 . S
C107 H111 0.930 . S
C108 C106 1.356 . S
C108 C109 1.348 1_455 S
C109 C104 1.353 . S
C109 C108 1.348 1_655 S
C109 H161 0.929 . S
H110 C104 0.930 . S
H111 C107 0.930 . S
C112 N113 1.314 . S
C112 C114 1.353 . S
C112 H118 0.930 . S
N113 Li89 1.990 . S
N113 C112 1.314 . S
N113 C116 1.279 . S
C114 C112 1.353 . S
C114 C117 1.348 . S
C114 H162 0.929 . S
C115 C116 1.358 . S
C115 C117 1.356 . S
C115 H163 0.930 . S
C116 N113 1.279 . S
C116 C115 1.358 . S
C116 H119 0.930 . S
C117 C114 1.348 . S
C117 C115 1.356 . S
H118 C112 0.930 . S
H119 C116 0.930 . S
C120 C122 1.348 . S
C120 C123 1.356 . S
C120 O150 1.325 . S
N121 C124 1.314 . S
N121 C125 1.279 . S
C122 C120 1.348 . S
C122 C124 1.353 . S
C122 H164 0.929 . S
C123 C120 1.356 . S
C123 C125 1.358 . S
C123 H165 0.930 . S
C124 N121 1.314 . S
C124 C122 1.353 . S
C124 H166 0.930 . S
C125 N121 1.279 . S
C125 C123 1.358 . S
C125 H167 0.930 . S
C126 C127 1.348 . S
C126 C128 1.356 1_655 S
C126 O151 1.325 . S
C127 C126 1.348 . S
C127 C129 1.353 . S
C127 H168 0.929 . S
C128 C126 1.356 1_455 S
C128 C130 1.358 . S
C128 H169 0.930 . S
C129 C127 1.353 . S
C129 N131 1.314 . S
C129 H170 0.930 . S
C130 C128 1.358 . S
C130 N131 1.279 1_455 S
C130 H171 0.930 . S
N131 C129 1.314 . S
N131 C130 1.279 1_655 S
C132 C134 1.353 . S
C132 N135 1.314 1_455 S
C132 H138 0.930 . S
C133 N135 1.279 . S
C133 C136 1.358 . S
C133 H139 0.930 . S
C134 C132 1.353 . S
C134 C137 1.348 1_455 S
C134 H172 0.929 . S
N135 Li90 1.990 . S
N135 C132 1.314 1_655 S
N135 C133 1.279 . S
C136 C133 1.358 . S
C136 C137 1.356 . S
C136 H173 0.930 . S
C137 C134 1.348 1_655 S
C137 C136 1.356 . S
H138 C132 0.930 . S
H139 C133 0.930 . S
C140 N141 1.314 . S
C140 C142 1.353 . S
C140 H146 0.930 . S
N141 Li91 1.990 . S
N141 C140 1.314 . S
N141 C144 1.279 . S
C142 C140 1.353 . S
C142 C145 1.348 . S
C142 H174 0.929 . S
C143 C144 1.358 . S
C143 C145 1.356 . S
C143 H175 0.930 . S
C144 N141 1.279 . S
C144 C143 1.358 . S
C144 H147 0.930 . S
C145 C142 1.348 . S
C145 C143 1.356 . S
H146 C140 0.930 . S
H147 C144 0.930 . S
O148 Li88 1.956 . S
O148 Li89 1.970 . S
O148 Li90 1.961 1_455 S
O148 C92 1.325 . S
O149 Li88 1.970 . S
O149 Li89 1.956 . S
O149 Li91 1.961 1_455 S
O149 C98 1.325 . S
O150 Li88 1.961 1_655 S
O150 Li90 1.956 . S
O150 Li91 1.970 . S
O150 C120 1.325 . S
O151 Li89 1.961 1_655 S
O151 Li90 1.970 . S
O151 Li91 1.956 . S
O151 C126 1.325 . S
H152 C94 0.929 . S
H153 C95 0.930 . S
H154 C96 0.930 . S
H155 C97 0.930 . S
H156 C99 0.930 . S
H157 C101 0.929 . S
H158 C102 0.930 . S
H159 C103 0.930 . S
H160 C106 0.930 . S
H161 C109 0.929 . S
H162 C114 0.929 . S
H163 C115 0.930 . S
H164 C122 0.929 . S
H165 C123 0.930 . S
H166 C124 0.930 . S
H167 C125 0.930 . S
H168 C127 0.929 . S
H169 C128 0.930 . S
H170 C129 0.930 . S
H171 C130 0.930 . S
H172 C134 0.929 . S
H173 C136 0.930 . S
H174 C142 0.929 . S
H175 C143 0.930 . S
Li176 N193 1.990 . S
Li176 O236 1.956 . S
Li176 O237 1.970 . S
Li176 O238 1.961 . S
Li177 N201 1.990 . S
Li177 O236 1.970 . S
Li177 O237 1.956 . S
Li177 O239 1.961 . S
Li178 N223 1.990 . S
Li178 O236 1.961 . S
Li178 O238 1.956 . S
Li178 O239 1.970 . S
Li179 N229 1.990 . S
Li179 O237 1.961 . S
Li179 O238 1.970 . S
Li179 O239 1.956 . S
C180 C182 1.348 . S
C180 C183 1.356 . S
C180 O236 1.325 . S
N181 C184 1.314 . S
N181 C185 1.279 . S
C182 C180 1.348 . S
C182 C184 1.353 . S
C182 H240 0.929 . S
C183 C180 1.356 . S
C183 C185 1.358 . S
C183 H241 0.930 . S
C184 N181 1.314 . S
C184 C182 1.353 . S
C184 H242 0.930 . S
C185 N181 1.279 . S
C185 C183 1.358 . S
C185 H243 0.930 . S
C186 C189 1.348 . S
C186 C190 1.356 . S
C186 O237 1.325 . S
C187 N188 1.279 . S
C187 C190 1.358 . S
C187 H244 0.930 . S
N188 C187 1.279 . S
N188 C191 1.314 . S
C189 C186 1.348 . S
C189 C191 1.353 . S
C189 H245 0.929 . S
C190 C186 1.356 . S
C190 C187 1.358 . S
C190 H246 0.930 . S
C191 N188 1.314 . S
C191 C189 1.353 . S
C191 H247 0.930 . S
C192 N193 1.314 . S
C192 C197 1.353 . S
C192 H198 0.930 . S
N193 Li176 1.990 . S
N193 C192 1.314 . S
N193 C195 1.279 . S
C194 C195 1.358 . S
C194 C196 1.356 . S
C194 H248 0.930 . S
C195 N193 1.279 . S
C195 C194 1.358 . S
C195 H199 0.930 . S
C196 C194 1.356 . S
C196 C197 1.348 . S
C197 C192 1.353 . S
C197 C196 1.348 . S
C197 H249 0.929 . S
H198 C192 0.930 . S
H199 C195 0.930 . S
C200 N201 1.314 . S
C200 C202 1.353 . S
C200 H206 0.930 . S
N201 Li177 1.990 . S
N201 C200 1.314 . S
N201 C204 1.279 . S
C202 C200 1.353 . S
C202 C205 1.348 . S
C202 H250 0.929 . S
C203 C204 1.358 . S
C203 C205 1.356 . S
C203 H251 0.930 . S
C204 N201 1.279 . S
C204 C203 1.358 . S
C204 H207 0.930 . S
C205 C202 1.348 . S
C205 C203 1.356 . S
H206 C200 0.930 . S
H207 C204 0.930 . S
C208 C210 1.348 . S
C208 C211 1.356 . S
C208 O238 1.325 . S
N209 C212 1.314 . S
N209 C213 1.279 . S
C210 C208 1.348 . S
C210 C212 1.353 . S
C210 H252 0.929 . S
C211 C208 1.356 . S
C211 C213 1.358 . S
C211 H253 0.930 . S
C212 N209 1.314 . S
C212 C210 1.353 . S
C212 H254 0.930 . S
C213 N209 1.279 . S
C213 C211 1.358 . S
C213 H255 0.930 . S
C214 C215 1.348 . S
C214 C216 1.356 . S
C214 O239 1.325 . S
C215 C214 1.348 . S
C215 C217 1.353 . S
C215 H256 0.929 . S
C216 C214 1.356 . S
C216 C218 1.358 . S
C216 H257 0.930 . S
C217 C215 1.353 . S
C217 N219 1.314 . S
C217 H258 0.930 . S
C218 C216 1.358 . S
C218 N219 1.279 . S
C218 H259 0.930 . S
N219 C217 1.314 . S
N219 C218 1.279 . S
C220 C222 1.353 . S
C220 N223 1.314 . S
C220 H226 0.930 . S
C221 N223 1.279 . S
C221 C224 1.358 . S
C221 H227 0.930 . S
C222 C220 1.353 . S
C222 C225 1.348 . S
C222 H260 0.929 . S
N223 Li178 1.990 . S
N223 C220 1.314 . S
N223 C221 1.279 . S
C224 C221 1.358 . S
C224 C225 1.356 . S
C224 H261 0.930 . S
C225 C222 1.348 . S
C225 C224 1.356 . S
H226 C220 0.930 . S
H227 C221 0.930 . S
C228 N229 1.314 . S
C228 C230 1.353 . S
C228 H234 0.930 . S
N229 Li179 1.990 . S
N229 C228 1.314 . S
N229 C232 1.279 . S
C230 C228 1.353 . S
C230 C233 1.348 . S
C230 H262 0.929 . S
C231 C232 1.358 . S
C231 C233 1.356 . S
C231 H263 0.930 . S
C232 N229 1.279 . S
C232 C231 1.358 . S
C232 H235 0.930 . S
C233 C230 1.348 . S
C233 C231 1.356 . S
H234 C228 0.930 . S
H235 C232 0.930 . S
O236 Li176 1.956 . S
O236 Li177 1.970 . S
O236 Li178 1.961 . S
O236 C180 1.325 . S
O237 Li176 1.970 . S
O237 Li177 1.956 . S
O237 Li179 1.961 . S
O237 C186 1.325 . S
O238 Li176 1.961 . S
O238 Li178 1.956 . S
O238 Li179 1.970 . S
O238 C208 1.325 . S
O239 Li177 1.961 . S
O239 Li178 1.970 . S
O239 Li179 1.956 . S
O239 C214 1.325 . S
H240 C182 0.929 . S
H241 C183 0.930 . S
H242 C184 0.930 . S
H243 C185 0.930 . S
H244 C187 0.930 . S
H245 C189 0.929 . S
H246 C190 0.930 . S
H247 C191 0.930 . S
H248 C194 0.930 . S
H249 C197 0.929 . S
H250 C202 0.929 . S
H251 C203 0.930 . S
H252 C210 0.929 . S
H253 C211 0.930 . S
H254 C212 0.930 . S
H255 C213 0.930 . S
H256 C215 0.929 . S
H257 C216 0.930 . S
H258 C217 0.930 . S
H259 C218 0.930 . S
H260 C222 0.929 . S
H261 C224 0.930 . S
H262 C230 0.929 . S
H263 C231 0.930 . S
Li264 N281 1.990 . S
Li264 O324 1.956 . S
Li264 O325 1.970 . S
Li264 O326 1.961 . S
Li265 N289 1.990 . S
Li265 O324 1.970 . S
Li265 O325 1.956 . S
Li265 O327 1.961 . S
Li266 N311 1.990 . S
Li266 O324 1.961 . S
Li266 O326 1.956 . S
Li266 O327 1.970 . S
Li267 N317 1.990 . S
Li267 O325 1.961 . S
Li267 O326 1.970 . S
Li267 O327 1.956 . S
C268 C270 1.348 . S
C268 C271 1.356 . S
C268 O324 1.325 . S
N269 C272 1.314 . S
N269 C273 1.279 . S
C270 C268 1.348 . S
C270 C272 1.353 . S
C270 H328 0.929 . S
C271 C268 1.356 . S
C271 C273 1.358 . S
C271 H329 0.930 . S
C272 N269 1.314 . S
C272 C270 1.353 . S
C272 H330 0.930 . S
C273 N269 1.279 . S
C273 C271 1.358 . S
C273 H331 0.930 . S
C274 C277 1.348 . S
C274 C278 1.356 . S
C274 O325 1.325 . S
C275 N276 1.279 . S
C275 C278 1.358 . S
C275 H332 0.930 . S
N276 C275 1.279 . S
N276 C279 1.314 . S
C277 C274 1.348 . S
C277 C279 1.353 . S
C277 H333 0.929 . S
C278 C274 1.356 . S
C278 C275 1.358 . S
C278 H334 0.930 . S
C279 N276 1.314 . S
C279 C277 1.353 . S
C279 H335 0.930 . S
C280 N281 1.314 . S
C280 C285 1.353 . S
C280 H286 0.930 . S
N281 Li264 1.990 . S
N281 C280 1.314 . S
N281 C283 1.279 . S
C282 C283 1.358 . S
C282 C284 1.356 . S
C282 H336 0.930 . S
C283 N281 1.279 . S
C283 C282 1.358 . S
C283 H287 0.930 . S
C284 C282 1.356 . S
C284 C285 1.348 . S
C285 C280 1.353 . S
C285 C284 1.348 . S
C285 H337 0.929 . S
H286 C280 0.930 . S
H287 C283 0.930 . S
C288 N289 1.314 . S
C288 C290 1.353 . S
C288 H294 0.930 . S
N289 Li265 1.990 . S
N289 C288 1.314 . S
N289 C292 1.279 . S
C290 C288 1.353 . S
C290 C293 1.348 . S
C290 H338 0.929 . S
C291 C292 1.358 . S
C291 C293 1.356 . S
C291 H339 0.930 . S
C292 N289 1.279 . S
C292 C291 1.358 . S
C292 H295 0.930 . S
C293 C290 1.348 . S
C293 C291 1.356 . S
H294 C288 0.930 . S
H295 C292 0.930 . S
C296 C298 1.348 . S
C296 C299 1.356 . S
C296 O326 1.325 . S
N297 C300 1.314 . S
N297 C301 1.279 . S
C298 C296 1.348 . S
C298 C300 1.353 . S
C298 H340 0.929 . S
C299 C296 1.356 . S
C299 C301 1.358 . S
C299 H341 0.930 . S
C300 N297 1.314 . S
C300 C298 1.353 . S
C300 H342 0.930 . S
C301 N297 1.279 . S
C301 C299 1.358 . S
C301 H343 0.930 . S
C302 C303 1.348 . S
C302 C304 1.356 . S
C302 O327 1.325 . S
C303 C302 1.348 . S
C303 C305 1.353 . S
C303 H344 0.929 . S
C304 C302 1.356 . S
C304 C306 1.358 . S
C304 H345 0.930 . S
C305 C303 1.353 . S
C305 N307 1.314 . S
C305 H346 0.930 . S
C306 C304 1.358 . S
C306 N307 1.279 . S
C306 H347 0.930 . S
N307 C305 1.314 . S
N307 C306 1.279 . S
C308 C310 1.353 . S
C308 N311 1.314 . S
C308 H314 0.930 . S
C309 N311 1.279 . S
C309 C312 1.358 . S
C309 H315 0.930 . S
C310 C308 1.353 . S
C310 C313 1.348 . S
C310 H348 0.929 . S
N311 Li266 1.990 . S
N311 C308 1.314 . S
N311 C309 1.279 . S
C312 C309 1.358 . S
C312 C313 1.356 . S
C312 H349 0.930 . S
C313 C310 1.348 . S
C313 C312 1.356 . S
H314 C308 0.930 . S
H315 C309 0.930 . S
C316 N317 1.314 . S
C316 C318 1.353 . S
C316 H322 0.930 . S
N317 Li267 1.990 . S
N317 C316 1.314 . S
N317 C320 1.279 . S
C318 C316 1.353 . S
C318 C321 1.348 . S
C318 H350 0.929 . S
C319 C320 1.358 . S
C319 C321 1.356 . S
C319 H351 0.930 . S
C320 N317 1.279 . S
C320 C319 1.358 . S
C320 H323 0.930 . S
C321 C318 1.348 . S
C321 C319 1.356 . S
H322 C316 0.930 . S
H323 C320 0.930 . S
O324 Li264 1.956 . S
O324 Li265 1.970 . S
O324 Li266 1.961 . S
O324 C268 1.325 . S
O325 Li264 1.970 . S
O325 Li265 1.956 . S
O325 Li267 1.961 . S
O325 C274 1.325 . S
O326 Li264 1.961 . S
O326 Li266 1.956 . S
O326 Li267 1.970 . S
O326 C296 1.325 . S
O327 Li265 1.961 . S
O327 Li266 1.970 . S
O327 Li267 1.956 . S
O327 C302 1.325 . S
H328 C270 0.929 . S
H329 C271 0.930 . S
H330 C272 0.930 . S
H331 C273 0.930 . S
H332 C275 0.930 . S
H333 C277 0.929 . S
H334 C278 0.930 . S
H335 C279 0.930 . S
H336 C282 0.930 . S
H337 C285 0.929 . S
H338 C290 0.929 . S
H339 C291 0.930 . S
H340 C298 0.929 . S
H341 C299 0.930 . S
H342 C300 0.930 . S
H343 C301 0.930 . S
H344 C303 0.929 . S
H345 C304 0.930 . S
H346 C305 0.930 . S
H347 C306 0.930 . S
H348 C310 0.929 . S
H349 C312 0.930 . S
H350 C318 0.929 . S
H351 C319 0.930 . S
Li352 N369 1.990 . S
Li352 O412 1.956 . S
Li352 O413 1.970 . S
Li352 O414 1.961 . S
Li353 N377 1.990 . S
Li353 O412 1.970 . S
Li353 O413 1.956 . S
Li353 O415 1.961 . S
Li354 N399 1.990 . S
Li354 O412 1.961 . S
Li354 O414 1.956 . S
Li354 O415 1.970 . S
Li355 N405 1.990 . S
Li355 O413 1.961 . S
Li355 O414 1.970 . S
Li355 O415 1.956 . S
C356 C358 1.348 . S
C356 C359 1.356 . S
C356 O412 1.325 . S
N357 C360 1.314 . S
N357 C361 1.279 . S
C358 C356 1.348 . S
C358 C360 1.353 . S
C358 H416 0.929 . S
C359 C356 1.356 . S
C359 C361 1.358 . S
C359 H417 0.930 . S
C360 N357 1.314 . S
C360 C358 1.353 . S
C360 H418 0.930 . S
C361 N357 1.279 . S
C361 C359 1.358 . S
C361 H419 0.930 . S
C362 C365 1.348 . S
C362 C366 1.356 . S
C362 O413 1.325 . S
C363 N364 1.279 . S
C363 C366 1.358 . S
C363 H420 0.930 . S
N364 C363 1.279 . S
N364 C367 1.314 . S
C365 C362 1.348 . S
C365 C367 1.353 . S
C365 H421 0.929 . S
C366 C362 1.356 . S
C366 C363 1.358 . S
C366 H422 0.930 . S
C367 N364 1.314 . S
C367 C365 1.353 . S
C367 H423 0.930 . S
C368 N369 1.314 . S
C368 C373 1.353 . S
C368 H374 0.930 . S
N369 Li352 1.990 . S
N369 C368 1.314 . S
N369 C371 1.279 . S
C370 C371 1.358 . S
C370 C372 1.356 . S
C370 H424 0.930 . S
C371 N369 1.279 . S
C371 C370 1.358 . S
C371 H375 0.930 . S
C372 C370 1.356 . S
C372 C373 1.348 . S
C373 C368 1.353 . S
C373 C372 1.348 . S
C373 H425 0.929 . S
H374 C368 0.930 . S
H375 C371 0.930 . S
C376 N377 1.314 . S
C376 C378 1.353 . S
C376 H382 0.930 . S
N377 Li353 1.990 . S
N377 C376 1.314 . S
N377 C380 1.279 . S
C378 C376 1.353 . S
C378 C381 1.348 . S
C378 H426 0.929 . S
C379 C380 1.358 . S
C379 C381 1.356 . S
C379 H427 0.930 . S
C380 N377 1.279 . S
C380 C379 1.358 . S
C380 H383 0.930 . S
C381 C378 1.348 . S
C381 C379 1.356 . S
H382 C376 0.930 . S
H383 C380 0.930 . S
C384 C386 1.348 . S
C384 C387 1.356 . S
C384 O414 1.325 . S
N385 C388 1.314 . S
N385 C389 1.279 1_655 S
C386 C384 1.348 . S
C386 C388 1.353 1_455 S
C386 H428 0.929 . S
C387 C384 1.356 . S
C387 C389 1.358 . S
C387 H429 0.930 . S
C388 N385 1.314 . S
C388 C386 1.353 1_655 S
C388 H430 0.930 . S
C389 N385 1.279 1_455 S
C389 C387 1.358 . S
C389 H431 0.930 . S
C390 C391 1.348 . S
C390 C392 1.356 . S
C390 O415 1.325 . S
C391 C390 1.348 . S
C391 C393 1.353 . S
C391 H432 0.929 . S
C392 C390 1.356 . S
C392 C394 1.358 . S
C392 H433 0.930 . S
C393 C391 1.353 . S
C393 N395 1.314 . S
C393 H434 0.930 . S
C394 C392 1.358 . S
C394 N395 1.279 . S
C394 H435 0.930 . S
N395 C393 1.314 . S
N395 C394 1.279 . S
C396 C398 1.353 . S
C396 N399 1.314 . S
C396 H402 0.930 . S
C397 N399 1.279 . S
C397 C400 1.358 . S
C397 H403 0.930 . S
C398 C396 1.353 . S
C398 C401 1.348 . S
C398 H436 0.929 . S
N399 Li354 1.990 . S
N399 C396 1.314 . S
N399 C397 1.279 . S
C400 C397 1.358 . S
C400 C401 1.356 . S
C400 H437 0.930 . S
C401 C398 1.348 . S
C401 C400 1.356 . S
H402 C396 0.930 . S
H403 C397 0.930 . S
C404 N405 1.314 . S
C404 C406 1.353 . S
C404 H410 0.930 . S
N405 Li355 1.990 . S
N405 C404 1.314 . S
N405 C408 1.279 . S
C406 C404 1.353 . S
C406 C409 1.348 1_455 S
C406 H438 0.929 . S
C407 C408 1.358 . S
C407 C409 1.356 1_455 S
C407 H439 0.930 . S
C408 N405 1.279 . S
C408 C407 1.358 . S
C408 H411 0.930 . S
C409 C406 1.348 1_655 S
C409 C407 1.356 1_655 S
H410 C404 0.930 . S
H411 C408 0.930 . S
O412 Li352 1.956 . S
O412 Li353 1.970 . S
O412 Li354 1.961 . S
O412 C356 1.325 . S
O413 Li352 1.970 . S
O413 Li353 1.956 . S
O413 Li355 1.961 . S
O413 C362 1.325 . S
O414 Li352 1.961 . S
O414 Li354 1.956 . S
O414 Li355 1.970 . S
O414 C384 1.325 . S
O415 Li353 1.961 . S
O415 Li354 1.970 . S
O415 Li355 1.956 . S
O415 C390 1.325 . S
H416 C358 0.929 . S
H417 C359 0.930 . S
H418 C360 0.930 . S
H419 C361 0.930 . S
H420 C363 0.930 . S
H421 C365 0.929 . S
H422 C366 0.930 . S
H423 C367 0.930 . S
H424 C370 0.930 . S
H425 C373 0.929 . S
H426 C378 0.929 . S
H427 C379 0.930 . S
H428 C386 0.929 . S
H429 C387 0.930 . S
H430 C388 0.930 . S
H431 C389 0.930 . S
H432 C391 0.929 . S
H433 C392 0.930 . S
H434 C393 0.930 . S
H435 C394 0.930 . S
H436 C398 0.929 . S
H437 C400 0.930 . S
H438 C406 0.929 . S
H439 C407 0.930 . S
Li440 N457 1.990 . S
Li440 O500 1.956 . S
Li440 O501 1.970 . S
Li440 O502 1.961 . S
Li441 N465 1.990 . S
Li441 O500 1.970 . S
Li441 O501 1.956 . S
Li441 O503 1.961 . S
Li442 N487 1.990 . S
Li442 O500 1.961 . S
Li442 O502 1.956 . S
Li442 O503 1.970 . S
Li443 N493 1.990 . S
Li443 O501 1.961 . S
Li443 O502 1.970 . S
Li443 O503 1.956 . S
C444 C446 1.348 . S
C444 C447 1.356 . S
C444 O500 1.325 . S
N445 C448 1.314 . S
N445 C449 1.279 . S
C446 C444 1.348 . S
C446 C448 1.353 . S
C446 H504 0.929 . S
C447 C444 1.356 . S
C447 C449 1.358 . S
C447 H505 0.930 . S
C448 N445 1.314 . S
C448 C446 1.353 . S
C448 H506 0.930 . S
C449 N445 1.279 . S
C449 C447 1.358 . S
C449 H507 0.930 . S
C450 C453 1.348 . S
C450 C454 1.356 . S
C450 O501 1.325 . S
C451 N452 1.279 . S
C451 C454 1.358 . S
C451 H508 0.930 . S
N452 C451 1.279 . S
N452 C455 1.314 . S
C453 C450 1.348 . S
C453 C455 1.353 . S
C453 H509 0.929 . S
C454 C450 1.356 . S
C454 C451 1.358 . S
C454 H510 0.930 . S
C455 N452 1.314 . S
C455 C453 1.353 . S
C455 H511 0.930 . S
C456 N457 1.314 . S
C456 C461 1.353 . S
C456 H462 0.930 . S
N457 Li440 1.990 . S
N457 C456 1.314 . S
N457 C459 1.279 . S
C458 C459 1.358 . S
C458 C460 1.356 . S
C458 H512 0.930 . S
C459 N457 1.279 . S
C459 C458 1.358 . S
C459 H463 0.930 . S
C460 C458 1.356 . S
C460 C461 1.348 . S
C461 C456 1.353 . S
C461 C460 1.348 . S
C461 H513 0.929 . S
H462 C456 0.930 . S
H463 C459 0.930 . S
C464 N465 1.314 . S
C464 C466 1.353 . S
C464 H470 0.930 . S
N465 Li441 1.990 . S
N465 C464 1.314 . S
N465 C468 1.279 . S
C466 C464 1.353 . S
C466 C469 1.348 . S
C466 H514 0.929 . S
C467 C468 1.358 . S
C467 C469 1.356 . S
C467 H515 0.930 . S
C468 N465 1.279 . S
C468 C467 1.358 . S
C468 H471 0.930 . S
C469 C466 1.348 . S
C469 C467 1.356 . S
H470 C464 0.930 . S
H471 C468 0.930 . S
C472 C474 1.348 . S
C472 C475 1.356 . S
C472 O502 1.325 . S
N473 C476 1.314 . S
N473 C477 1.279 . S
C474 C472 1.348 . S
C474 C476 1.353 . S
C474 H516 0.929 . S
C475 C472 1.356 . S
C475 C477 1.358 . S
C475 H517 0.930 . S
C476 N473 1.314 . S
C476 C474 1.353 . S
C476 H518 0.930 . S
C477 N473 1.279 . S
C477 C475 1.358 . S
C477 H519 0.930 . S
C478 C479 1.348 . S
C478 C480 1.356 . S
C478 O503 1.325 . S
C479 C478 1.348 . S
C479 C481 1.353 . S
C479 H520 0.929 . S
C480 C478 1.356 . S
C480 C482 1.358 . S
C480 H521 0.930 . S
C481 C479 1.353 . S
C481 N483 1.314 . S
C481 H522 0.930 . S
C482 C480 1.358 . S
C482 N483 1.279 . S
C482 H523 0.930 . S
N483 C481 1.314 . S
N483 C482 1.279 . S
C484 C486 1.353 . S
C484 N487 1.314 . S
C484 H490 0.930 . S
C485 N487 1.279 . S
C485 C488 1.358 . S
C485 H491 0.930 . S
C486 C484 1.353 . S
C486 C489 1.348 . S
C486 H524 0.929 . S
N487 Li442 1.990 . S
N487 C484 1.314 . S
N487 C485 1.279 . S
C488 C485 1.358 . S
C488 C489 1.356 . S
C488 H525 0.930 . S
C489 C486 1.348 . S
C489 C488 1.356 . S
H490 C484 0.930 . S
H491 C485 0.930 . S
C492 N493 1.314 . S
C492 C494 1.353 . S
C492 H498 0.930 . S
N493 Li443 1.990 . S
N493 C492 1.314 . S
N493 C496 1.279 . S
C494 C492 1.353 . S
C494 C497 1.348 . S
C494 H526 0.929 . S
C495 C496 1.358 . S
C495 C497 1.356 . S
C495 H527 0.930 . S
C496 N493 1.279 . S
C496 C495 1.358 . S
C496 H499 0.930 . S
C497 C494 1.348 . S
C497 C495 1.356 . S
H498 C492 0.930 . S
H499 C496 0.930 . S
O500 Li440 1.956 . S
O500 Li441 1.970 . S
O500 Li442 1.961 . S
O500 C444 1.325 . S
O501 Li440 1.970 . S
O501 Li441 1.956 . S
O501 Li443 1.961 . S
O501 C450 1.325 . S
O502 Li440 1.961 . S
O502 Li442 1.956 . S
O502 Li443 1.970 . S
O502 C472 1.325 . S
O503 Li441 1.961 . S
O503 Li442 1.970 . S
O503 Li443 1.956 . S
O503 C478 1.325 . S
H504 C446 0.929 . S
H505 C447 0.930 . S
H506 C448 0.930 . S
H507 C449 0.930 . S
H508 C451 0.930 . S
H509 C453 0.929 . S
H510 C454 0.930 . S
H511 C455 0.930 . S
H512 C458 0.930 . S
H513 C461 0.929 . S
H514 C466 0.929 . S
H515 C467 0.930 . S
H516 C474 0.929 . S
H517 C475 0.930 . S
H518 C476 0.930 . S
H519 C477 0.930 . S
H520 C479 0.929 . S
H521 C480 0.930 . S
H522 C481 0.930 . S
H523 C482 0.930 . S
H524 C486 0.929 . S
H525 C488 0.930 . S
H526 C494 0.929 . S
H527 C495 0.930 . S
Li528 N545 1.990 . S
Li528 O588 1.956 . S
Li528 O589 1.970 . S
Li528 O590 1.961 . S
Li529 N553 1.990 . S
Li529 O588 1.970 . S
Li529 O589 1.956 . S
Li529 O591 1.961 . S
Li530 N575 1.990 . S
Li530 O588 1.961 . S
Li530 O590 1.956 . S
Li530 O591 1.970 . S
Li531 N581 1.990 . S
Li531 O589 1.961 . S
Li531 O590 1.970 . S
Li531 O591 1.956 . S
C532 C534 1.348 . S
C532 C535 1.356 . S
C532 O588 1.325 . S
N533 C536 1.314 . S
N533 C537 1.279 . S
C534 C532 1.348 . S
C534 C536 1.353 . S
C534 H592 0.929 . S
C535 C532 1.356 . S
C535 C537 1.358 . S
C535 H593 0.930 . S
C536 N533 1.314 . S
C536 C534 1.353 . S
C536 H594 0.930 . S
C537 N533 1.279 . S
C537 C535 1.358 . S
C537 H595 0.930 . S
C538 C541 1.348 . S
C538 C542 1.356 . S
C538 O589 1.325 . S
C539 N540 1.279 . S
C539 C542 1.358 . S
C539 H596 0.930 . S
N540 C539 1.279 . S
N540 C543 1.314 . S
C541 C538 1.348 . S
C541 C543 1.353 . S
C541 H597 0.929 . S
C542 C538 1.356 . S
C542 C539 1.358 . S
C542 H598 0.930 . S
C543 N540 1.314 . S
C543 C541 1.353 . S
C543 H599 0.930 . S
C544 N545 1.314 . S
C544 C549 1.353 . S
C544 H550 0.930 . S
N545 Li528 1.990 . S
N545 C544 1.314 . S
N545 C547 1.279 . S
C546 C547 1.358 . S
C546 C548 1.356 . S
C546 H600 0.930 . S
C547 N545 1.279 . S
C547 C546 1.358 . S
C547 H551 0.930 . S
C548 C546 1.356 . S
C548 C549 1.348 . S
C549 C544 1.353 . S
C549 C548 1.348 . S
C549 H601 0.929 . S
H550 C544 0.930 . S
H551 C547 0.930 . S
C552 N553 1.314 . S
C552 C554 1.353 . S
C552 H558 0.930 . S
N553 Li529 1.990 . S
N553 C552 1.314 . S
N553 C556 1.279 . S
C554 C552 1.353 . S
C554 C557 1.348 . S
C554 H602 0.929 . S
C555 C556 1.358 . S
C555 C557 1.356 . S
C555 H603 0.930 . S
C556 N553 1.279 . S
C556 C555 1.358 . S
C556 H559 0.930 . S
C557 C554 1.348 . S
C557 C555 1.356 . S
H558 C552 0.930 . S
H559 C556 0.930 . S
C560 C562 1.348 . S
C560 C563 1.356 . S
C560 O590 1.325 . S
N561 C564 1.314 . S
N561 C565 1.279 . S
C562 C560 1.348 . S
C562 C564 1.353 . S
C562 H604 0.929 . S
C563 C560 1.356 . S
C563 C565 1.358 . S
C563 H605 0.930 . S
C564 N561 1.314 . S
C564 C562 1.353 . S
C564 H606 0.930 . S
C565 N561 1.279 . S
C565 C563 1.358 . S
C565 H607 0.930 . S
C566 C567 1.348 . S
C566 C568 1.356 . S
C566 O591 1.325 . S
C567 C566 1.348 . S
C567 C569 1.353 . S
C567 H608 0.929 . S
C568 C566 1.356 . S
C568 C570 1.358 . S
C568 H609 0.930 . S
C569 C567 1.353 . S
C569 N571 1.314 . S
C569 H610 0.930 . S
C570 C568 1.358 . S
C570 N571 1.279 . S
C570 H611 0.930 . S
N571 C569 1.314 . S
N571 C570 1.279 . S
C572 C574 1.353 . S
C572 N575 1.314 . S
C572 H578 0.930 . S
C573 N575 1.279 . S
C573 C576 1.358 . S
C573 H579 0.930 . S
C574 C572 1.353 . S
C574 C577 1.348 . S
C574 H612 0.929 . S
N575 Li530 1.990 . S
N575 C572 1.314 . S
N575 C573 1.279 . S
C576 C573 1.358 . S
C576 C577 1.356 . S
C576 H613 0.930 . S
C577 C574 1.348 . S
C577 C576 1.356 . S
H578 C572 0.930 . S
H579 C573 0.930 . S
C580 N581 1.314 . S
C580 C582 1.353 . S
C580 H586 0.930 . S
N581 Li531 1.990 . S
N581 C580 1.314 . S
N581 C584 1.279 . S
C582 C580 1.353 . S
C582 C585 1.348 . S
C582 H614 0.929 . S
C583 C584 1.358 . S
C583 C585 1.356 . S
C583 H615 0.930 . S
C584 N581 1.279 . S
C584 C583 1.358 . S
C584 H587 0.930 . S
C585 C582 1.348 . S
C585 C583 1.356 . S
H586 C580 0.930 . S
H587 C584 0.930 . S
O588 Li528 1.956 . S
O588 Li529 1.970 . S
O588 Li530 1.961 . S
O588 C532 1.325 . S
O589 Li528 1.970 . S
O589 Li529 1.956 . S
O589 Li531 1.961 . S
O589 C538 1.325 . S
O590 Li528 1.961 . S
O590 Li530 1.956 . S
O590 Li531 1.970 . S
O590 C560 1.325 . S
O591 Li529 1.961 . S
O591 Li530 1.970 . S
O591 Li531 1.956 . S
O591 C566 1.325 . S
H592 C534 0.929 . S
H593 C535 0.930 . S
H594 C536 0.930 . S
H595 C537 0.930 . S
H596 C539 0.930 . S
H597 C541 0.929 . S
H598 C542 0.930 . S
H599 C543 0.930 . S
H600 C546 0.930 . S
H601 C549 0.929 . S
H602 C554 0.929 . S
H603 C555 0.930 . S
H604 C562 0.929 . S
H605 C563 0.930 . S
H606 C564 0.930 . S
H607 C565 0.930 . S
H608 C567 0.929 . S
H609 C568 0.930 . S
H610 C569 0.930 . S
H611 C570 0.930 . S
H612 C574 0.929 . S
H613 C576 0.930 . S
H614 C582 0.929 . S
H615 C583 0.930 . S
Li616 N633 1.990 . S
Li616 O676 1.956 1_455 S
Li616 O677 1.970 . S
Li616 O678 1.961 . S
Li617 N641 1.990 . S
Li617 O676 1.970 . S
Li617 O677 1.956 1_655 S
Li617 O679 1.961 1_655 S
Li618 N663 1.990 . S
Li618 O676 1.961 1_455 S
Li618 O678 1.956 . S
Li618 O679 1.970 . S
Li619 N669 1.990 . S
Li619 O677 1.961 . S
Li619 O678 1.970 . S
Li619 O679 1.956 . S
C620 C622 1.348 . S
C620 C623 1.356 . S
C620 O676 1.325 . S
N621 C624 1.314 . S
N621 C625 1.279 . S
C622 C620 1.348 . S
C622 C624 1.353 . S
C622 H680 0.929 . S
C623 C620 1.356 . S
C623 C625 1.358 . S
C623 H681 0.930 . S
C624 N621 1.314 . S
C624 C622 1.353 . S
C624 H682 0.930 . S
C625 N621 1.279 . S
C625 C623 1.358 . S
C625 H683 0.930 1_556 S
C626 C629 1.348 . S
C626 C630 1.356 . S
C626 O677 1.325 . S
C627 N628 1.279 . S
C627 C630 1.358 . S
C627 H684 0.930 . S
N628 C627 1.279 . S
N628 C631 1.314 . S
C629 C626 1.348 . S
C629 C631 1.353 . S
C629 H685 0.929 . S
C630 C626 1.356 . S
C630 C627 1.358 . S
C630 H686 0.930 . S
C631 N628 1.314 . S
C631 C629 1.353 . S
C631 H687 0.930 . S
C632 N633 1.314 . S
C632 C637 1.353 . S
C632 H638 0.930 . S
N633 Li616 1.990 . S
N633 C632 1.314 . S
N633 C635 1.279 . S
C634 C635 1.358 . S
C634 C636 1.356 . S
C634 H688 0.931 1_556 S
C635 N633 1.279 . S
C635 C634 1.358 . S
C635 H639 0.899 1_455 S
C636 C634 1.356 . S
C636 C637 1.348 . S
C637 C632 1.353 . S
C637 C636 1.348 . S
C637 H689 0.929 . S
H638 C632 0.930 . S
H639 C635 0.899 1_655 S
C640 N641 1.314 . S
C640 C642 1.353 . S
C640 H646 0.930 . S
N641 Li617 1.990 . S
N641 C640 1.314 . S
N641 C644 1.279 . S
C642 C640 1.353 . S
C642 C645 1.348 . S
C642 H690 0.929 . S
C643 C644 1.358 . S
C643 C645 1.356 . S
C643 H691 0.930 . S
C644 N641 1.279 . S
C644 C643 1.358 . S
C644 H647 0.930 . S
C645 C642 1.348 . S
C645 C643 1.356 . S
H646 C640 0.930 . S
H647 C644 0.930 . S
C648 C650 1.348 . S
C648 C651 1.356 . S
C648 O678 1.325 . S
N649 C652 1.314 . S
N649 C653 1.279 . S
C650 C648 1.348 . S
C650 C652 1.353 . S
C650 H692 0.929 . S
C651 C648 1.356 . S
C651 C653 1.358 . S
C651 H693 0.930 . S
C652 N649 1.314 . S
C652 C650 1.353 . S
C652 H694 0.930 . S
C653 N649 1.279 . S
C653 C651 1.358 . S
C653 H695 0.930 1_556 S
C654 C655 1.348 . S
C654 C656 1.356 . S
C654 O679 1.325 . S
C655 C654 1.348 . S
C655 C657 1.353 . S
C655 H696 0.929 . S
C656 C654 1.356 . S
C656 C658 1.358 . S
C656 H697 0.930 . S
C657 C655 1.353 . S
C657 N659 1.314 . S
C657 H698 0.930 . S
C658 C656 1.358 . S
C658 N659 1.279 . S
C658 H699 0.930 1_455 S
N659 C657 1.314 . S
N659 C658 1.279 . S
C660 C662 1.353 . S
C660 N663 1.314 1_655 S
C660 H666 0.930 . S
C661 N663 1.279 . S
C661 C664 1.358 . S
C661 H667 0.930 . S
C662 C660 1.353 . S
C662 C665 1.348 1_655 S
C662 H700 0.929 . S
N663 Li618 1.990 . S
N663 C660 1.314 1_455 S
N663 C661 1.279 . S
C664 C661 1.358 . S
C664 C665 1.356 . S
C664 H701 0.930 . S
C665 C662 1.348 1_455 S
C665 C664 1.356 . S
H666 C660 0.930 . S
H667 C661 0.930 . S
C668 N669 1.314 . S
C668 C670 1.353 . S
C668 H674 0.930 . S
N669 Li619 1.990 . S
N669 C668 1.314 . S
N669 C672 1.279 . S
C670 C668 1.353 . S
C670 C673 1.348 . S
C670 H702 0.929 . S
C671 C672 1.358 . S
C671 C673 1.356 . S
C671 H703 0.930 . S
C672 N669 1.279 . S
C672 C671 1.358 . S
C672 H675 0.930 . S
C673 C670 1.348 . S
C673 C671 1.356 . S
H674 C668 0.930 . S
H675 C672 0.930 . S
O676 Li616 1.956 1_655 S
O676 Li617 1.970 . S
O676 Li618 1.961 1_655 S
O676 C620 1.325 . S
O677 Li616 1.970 . S
O677 Li617 1.956 1_455 S
O677 Li619 1.961 . S
O677 C626 1.325 . S
O678 Li616 1.961 . S
O678 Li618 1.956 . S
O678 Li619 1.970 . S
O678 C648 1.325 . S
O679 Li617 1.961 1_455 S
O679 Li618 1.970 . S
O679 Li619 1.956 . S
O679 C654 1.325 . S
H680 C622 0.929 . S
H681 C623 0.930 . S
H682 C624 0.930 . S
H683 C625 0.930 1_554 S
H684 C627 0.930 . S
H685 C629 0.929 . S
H686 C630 0.930 . S
H687 C631 0.930 . S
H688 C634 0.931 1_554 S
H689 C637 0.929 . S
H690 C642 0.929 . S
H691 C643 0.930 . S
H692 C650 0.929 . S
H693 C651 0.930 . S
H694 C652 0.930 . S
H695 C653 0.930 1_554 S
H696 C655 0.929 . S
H697 C656 0.930 . S
H698 C657 0.930 . S
H699 C658 0.930 1_655 S
H700 C662 0.929 . S
H701 C664 0.930 . S
H702 C670 0.929 . S
H703 C671 0.930 . S
Li704 N721 1.990 . S
Li704 O764 1.956 1_545 S
Li704 O765 1.967 . S
Li704 O766 1.961 . S
Li705 N729 1.990 . S
Li705 O764 1.970 . S
Li705 O765 1.940 1_565 S
Li705 O767 1.961 . S
Li706 N751 1.990 . S
Li706 O764 1.961 1_545 S
Li706 O766 1.956 . S
Li706 O767 1.970 1_545 S
Li707 N757 1.990 . S
Li707 O765 1.980 . S
Li707 O766 1.970 . S
Li707 O767 1.956 1_545 S
C708 C710 1.348 . S
C708 C711 1.356 . S
C708 O764 1.325 . S
N709 C712 1.314 . S
N709 C713 1.279 . S
C710 C708 1.348 . S
C710 C712 1.353 . S
C710 H768 0.929 . S
C711 C708 1.356 . S
C711 C713 1.358 . S
C711 H769 0.930 . S
C712 N709 1.314 . S
C712 C710 1.353 . S
C712 H770 0.930 . S
C713 N709 1.279 . S
C713 C711 1.358 . S
C713 H771 0.930 . S
C714 C717 1.356 . S
C714 C718 1.352 . S
C714 O765 1.324 1_565 S
C715 N716 1.279 . S
C715 C718 1.359 . S
C715 H772 0.932 1_565 S
N716 C715 1.279 . S
N716 C719 1.314 . S
C717 C714 1.356 . S
C717 C719 1.353 . S
C717 H773 0.929 . S
C718 C714 1.352 . S
C718 C715 1.359 . S
C718 H774 0.919 1_565 S
C719 N716 1.314 . S
C719 C717 1.353 . S
C719 H775 0.930 . S
C720 N721 1.314 . S
C720 C725 1.353 . S
C720 H726 0.930 . S
N721 Li704 1.990 . S
N721 C720 1.314 . S
N721 C723 1.279 1_545 S
C722 C723 1.358 . S
C722 C724 1.356 1_565 S
C722 H776 0.930 . S
C723 N721 1.279 1_565 S
C723 C722 1.358 . S
C723 H727 0.930 . S
C724 C722 1.356 1_545 S
C724 C725 1.348 . S
C725 C720 1.353 . S
C725 C724 1.348 . S
C725 H777 0.929 . S
H726 C720 0.930 . S
H727 C723 0.930 . S
C728 N729 1.314 . S
C728 C730 1.353 . S
C728 H734 0.930 . S
N729 Li705 1.990 . S
N729 C728 1.314 . S
N729 C732 1.279 . S
C730 C728 1.353 . S
C730 C733 1.348 . S
C730 H778 0.929 . S
C731 C732 1.358 . S
C731 C733 1.356 . S
C731 H779 0.930 . S
C732 N729 1.279 . S
C732 C731 1.358 . S
C732 H735 0.930 . S
C733 C730 1.348 . S
C733 C731 1.356 . S
H734 C728 0.930 . S
H735 C732 0.930 . S
C736 C738 1.348 . S
C736 C739 1.356 . S
C736 O766 1.325 . S
N737 C740 1.314 . S
N737 C741 1.279 . S
C738 C736 1.348 . S
C738 C740 1.353 . S
C738 H780 0.929 . S
C739 C736 1.356 . S
C739 C741 1.358 . S
C739 H781 0.930 . S
C740 N737 1.314 . S
C740 C738 1.353 . S
C740 H782 0.930 . S
C741 N737 1.279 . S
C741 C739 1.358 . S
C741 H783 0.930 . S
C742 C743 1.348 . S
C742 C744 1.356 . S
C742 O767 1.325 . S
C743 C742 1.348 . S
C743 C745 1.353 . S
C743 H784 0.929 1_565 S
C744 C742 1.356 . S
C744 C746 1.358 . S
C744 H785 0.930 . S
C745 C743 1.353 . S
C745 N747 1.314 . S
C745 H786 0.930 . S
C746 C744 1.358 . S
C746 N747 1.279 . S
C746 H787 0.930 . S
N747 C745 1.314 . S
N747 C746 1.279 . S
C748 C750 1.353 . S
C748 N751 1.314 1_565 S
C748 H754 0.930 . S
C749 N751 1.279 . S
C749 C752 1.358 . S
C749 H755 0.930 . S
C750 C748 1.353 . S
C750 C753 1.348 1_565 S
C750 H788 0.929 . S
N751 Li706 1.990 . S
N751 C748 1.314 1_545 S
N751 C749 1.279 . S
C752 C749 1.358 . S
C752 C753 1.356 . S
C752 H789 0.930 . S
C753 C750 1.348 1_545 S
C753 C752 1.356 . S
H754 C748 0.930 . S
H755 C749 0.930 . S
C756 N757 1.314 . S
C756 C758 1.353 . S
C756 H762 0.930 . S
N757 Li707 1.990 . S
N757 C756 1.314 . S
N757 C760 1.279 . S
C758 C756 1.353 . S
C758 C761 1.348 . S
C758 H790 0.929 . S
C759 C760 1.358 . S
C759 C761 1.356 . S
C759 H791 0.930 . S
C760 N757 1.279 . S
C760 C759 1.358 . S
C760 H763 0.930 . S
C761 C758 1.348 . S
C761 C759 1.356 . S
H762 C756 0.930 . S
H763 C760 0.930 . S
O764 Li704 1.956 1_565 S
O764 Li705 1.970 . S
O764 Li706 1.961 1_565 S
O764 C708 1.325 . S
O765 Li704 1.967 . S
O765 Li705 1.940 1_545 S
O765 Li707 1.980 . S
O765 C714 1.324 1_545 S
O766 Li704 1.961 . S
O766 Li706 1.956 . S
O766 Li707 1.970 . S
O766 C736 1.325 . S
O767 Li705 1.961 . S
O767 Li706 1.970 1_565 S
O767 Li707 1.956 1_565 S
O767 C742 1.325 . S
H768 C710 0.929 . S
H769 C711 0.930 . S
H770 C712 0.930 . S
H771 C713 0.930 . S
H772 C715 0.932 1_545 S
H773 C717 0.929 . S
H774 C718 0.919 1_545 S
H775 C719 0.930 . S
H776 C722 0.930 . S
H777 C725 0.929 . S
H778 C730 0.929 . S
H779 C731 0.930 . S
H780 C738 0.929 . S
H781 C739 0.930 . S
H782 C740 0.930 . S
H783 C741 0.930 . S
H784 C743 0.929 1_545 S
H785 C744 0.930 . S
H786 C745 0.930 . S
H787 C746 0.930 . S
H788 C750 0.929 . S
H789 C752 0.930 . S
H790 C758 0.929 . S
H791 C759 0.930 . S
Li792 N809 1.990 . S
Li792 O852 1.956 . S
Li792 O853 1.970 . S
Li792 O854 1.961 . S
Li793 N817 1.990 . S
Li793 O852 1.970 . S
Li793 O853 1.956 . S
Li793 O855 1.961 . S
Li794 N839 1.990 . S
Li794 O852 1.961 . S
Li794 O854 1.956 . S
Li794 O855 1.970 . S
Li795 N845 1.990 . S
Li795 O853 1.961 . S
Li795 O854 1.970 . S
Li795 O855 1.956 . S
C796 C798 1.348 . S
C796 C799 1.356 . S
C796 O852 1.325 . S
N797 C800 1.314 . S
N797 C801 1.279 . S
C798 C796 1.348 . S
C798 C800 1.353 . S
C798 H856 0.929 . S
C799 C796 1.356 . S
C799 C801 1.358 . S
C799 H857 0.930 . S
C800 N797 1.314 . S
C800 C798 1.353 . S
C800 H858 0.930 . S
C801 N797 1.279 . S
C801 C799 1.358 . S
C801 H859 0.930 . S
C802 C805 1.348 . S
C802 C806 1.356 . S
C802 O853 1.325 . S
C803 N804 1.279 . S
C803 C806 1.358 . S
C803 H860 0.930 . S
N804 C803 1.279 . S
N804 C807 1.314 . S
C805 C802 1.348 . S
C805 C807 1.353 . S
C805 H861 0.929 . S
C806 C802 1.356 . S
C806 C803 1.358 . S
C806 H862 0.930 . S
C807 N804 1.314 . S
C807 C805 1.353 . S
C807 H863 0.930 . S
C808 N809 1.314 . S
C808 C813 1.353 . S
C808 H814 0.930 . S
N809 Li792 1.990 . S
N809 C808 1.314 . S
N809 C811 1.279 . S
C810 C811 1.358 . S
C810 C812 1.356 . S
C810 H864 0.930 . S
C811 N809 1.279 . S
C811 C810 1.358 . S
C811 H815 0.930 . S
C812 C810 1.356 . S
C812 C813 1.348 . S
C813 C808 1.353 . S
C813 C812 1.348 . S
C813 H865 0.929 . S
H814 C808 0.930 . S
H815 C811 0.930 . S
C816 N817 1.314 . S
C816 C818 1.353 . S
C816 H822 0.930 . S
N817 Li793 1.990 . S
N817 C816 1.314 . S
N817 C820 1.279 . S
C818 C816 1.353 . S
C818 C821 1.348 . S
C818 H866 0.929 . S
C819 C820 1.358 . S
C819 C821 1.356 . S
C819 H867 0.930 . S
C820 N817 1.279 . S
C820 C819 1.358 . S
C820 H823 0.930 . S
C821 C818 1.348 . S
C821 C819 1.356 . S
H822 C816 0.930 . S
H823 C820 0.930 . S
C824 C826 1.348 . S
C824 C827 1.356 . S
C824 O854 1.325 . S
N825 C828 1.314 . S
N825 C829 1.279 . S
C826 C824 1.348 . S
C826 C828 1.353 . S
C826 H868 0.929 . S
C827 C824 1.356 . S
C827 C829 1.358 . S
C827 H869 0.930 . S
C828 N825 1.314 . S
C828 C826 1.353 . S
C828 H870 0.930 . S
C829 N825 1.279 . S
C829 C827 1.358 . S
C829 H871 0.930 . S
C830 C831 1.348 . S
C830 C832 1.356 . S
C830 O855 1.325 . S
C831 C830 1.348 . S
C831 C833 1.353 . S
C831 H872 0.929 . S
C832 C830 1.356 . S
C832 C834 1.358 . S
C832 H873 0.930 . S
C833 C831 1.353 . S
C833 N835 1.314 . S
C833 H874 0.930 . S
C834 C832 1.358 . S
C834 N835 1.279 . S
C834 H875 0.930 . S
N835 C833 1.314 . S
N835 C834 1.279 . S
C836 C838 1.353 . S
C836 N839 1.314 . S
C836 H842 0.930 . S
C837 N839 1.279 . S
C837 C840 1.358 . S
C837 H843 0.930 . S
C838 C836 1.353 . S
C838 C841 1.348 . S
C838 H876 0.929 . S
N839 Li794 1.990 . S
N839 C836 1.314 . S
N839 C837 1.279 . S
C840 C837 1.358 . S
C840 C841 1.356 . S
C840 H877 0.930 . S
C841 C838 1.348 . S
C841 C840 1.356 . S
H842 C836 0.930 . S
H843 C837 0.930 . S
C844 N845 1.314 . S
C844 C846 1.353 . S
C844 H850 0.930 . S
N845 Li795 1.990 . S
N845 C844 1.314 . S
N845 C848 1.279 . S
C846 C844 1.353 . S
C846 C849 1.348 . S
C846 H878 0.929 . S
C847 C848 1.358 . S
C847 C849 1.356 . S
C847 H879 0.930 . S
C848 N845 1.279 . S
C848 C847 1.358 . S
C848 H851 0.930 . S
C849 C846 1.348 . S
C849 C847 1.356 . S
H850 C844 0.930 . S
H851 C848 0.930 . S
O852 Li792 1.956 . S
O852 Li793 1.970 . S
O852 Li794 1.961 . S
O852 C796 1.325 . S
O853 Li792 1.970 . S
O853 Li793 1.956 . S
O853 Li795 1.961 . S
O853 C802 1.325 . S
O854 Li792 1.961 . S
O854 Li794 1.956 . S
O854 Li795 1.970 . S
O854 C824 1.325 . S
O855 Li793 1.961 . S
O855 Li794 1.970 . S
O855 Li795 1.956 . S
O855 C830 1.325 . S
H856 C798 0.929 . S
H857 C799 0.930 . S
H858 C800 0.930 . S
H859 C801 0.930 . S
H860 C803 0.930 . S
H861 C805 0.929 . S
H862 C806 0.930 . S
H863 C807 0.930 . S
H864 C810 0.930 . S
H865 C813 0.929 . S
H866 C818 0.929 . S
H867 C819 0.930 . S
H868 C826 0.929 . S
H869 C827 0.930 . S
H870 C828 0.930 . S
H871 C829 0.930 . S
H872 C831 0.929 . S
H873 C832 0.930 . S
H874 C833 0.930 . S
H875 C834 0.930 . S
H876 C838 0.929 . S
H877 C840 0.930 . S
H878 C846 0.929 . S
H879 C847 0.930 . S
Li880 N897 1.990 . S
Li880 O940 1.956 . S
Li880 O941 1.970 . S
Li880 O942 1.961 . S
Li881 N905 1.990 . S
Li881 O940 1.970 . S
Li881 O941 1.956 . S
Li881 O943 1.961 1_545 S
Li882 N927 1.990 . S
Li882 O940 1.961 1_565 S
Li882 O942 1.956 1_565 S
Li882 O943 1.970 . S
Li883 N933 1.990 1_545 S
Li883 O941 1.961 . S
Li883 O942 1.970 . S
Li883 O943 1.956 1_545 S
C884 C886 1.348 . S
C884 C887 1.356 . S
C884 O940 1.325 . S
N885 C888 1.314 . S
N885 C889 1.279 . S
C886 C884 1.348 . S
C886 C888 1.353 . S
C886 H944 0.929 . S
C887 C884 1.356 . S
C887 C889 1.358 . S
C887 H945 0.930 . S
C888 N885 1.314 . S
C888 C886 1.353 . S
C888 H946 0.930 . S
C889 N885 1.279 . S
C889 C887 1.358 . S
C889 H947 0.930 . S
C890 C893 1.348 . S
C890 C894 1.356 . S
C890 O941 1.325 . S
C891 N892 1.279 . S
C891 C894 1.358 . S
C891 H948 0.930 . S
N892 C891 1.279 . S
N892 C895 1.314 . S
C893 C890 1.348 . S
C893 C895 1.353 . S
C893 H949 0.929 . S
C894 C890 1.356 . S
C894 C891 1.358 . S
C894 H950 0.930 . S
C895 N892 1.314 . S
C895 C893 1.353 . S
C895 H951 0.930 . S
C896 N897 1.314 . S
C896 C901 1.353 . S
C896 H902 0.930 . S
N897 Li880 1.990 . S
N897 C896 1.314 . S
N897 C899 1.279 . S
C898 C899 1.358 . S
C898 C900 1.356 . S
C898 H952 0.930 . S
C899 N897 1.279 . S
C899 C898 1.358 . S
C899 H903 0.930 . S
C900 C898 1.356 . S
C900 C901 1.348 . S
C901 C896 1.353 . S
C901 C900 1.348 . S
C901 H953 0.929 . S
H902 C896 0.930 . S
H903 C899 0.930 . S
C904 N905 1.314 1_565 S
C904 C906 1.353 . S
C904 H910 0.930 . S
N905 Li881 1.990 . S
N905 C904 1.314 1_545 S
N905 C908 1.279 . S
C906 C904 1.353 . S
C906 C909 1.348 1_565 S
C906 H954 0.929 . S
C907 C908 1.358 . S
C907 C909 1.356 . S
C907 H955 0.930 . S
C908 N905 1.279 . S
C908 C907 1.358 . S
C908 H911 0.930 . S
C909 C906 1.348 1_545 S
C909 C907 1.356 . S
H910 C904 0.930 . S
H911 C908 0.930 . S
C912 C914 1.348 1_545 S
C912 C915 1.356 . S
C912 O942 1.325 . S
N913 C916 1.314 1_545 S
N913 C917 1.279 . S
C914 C912 1.348 1_565 S
C914 C916 1.353 . S
C914 H956 0.929 . S
C915 C912 1.356 . S
C915 C917 1.358 . S
C915 H957 0.930 . S
C916 N913 1.314 1_565 S
C916 C914 1.353 . S
C916 H958 0.930 . S
C917 N913 1.279 . S
C917 C915 1.358 . S
C917 H959 0.930 . S
C918 C919 1.348 . S
C918 C920 1.356 . S
C918 O943 1.325 . S
C919 C918 1.348 . S
C919 C921 1.353 . S
C919 H960 0.929 . S
C920 C918 1.356 . S
C920 C922 1.358 . S
C920 H961 0.930 . S
C921 C919 1.353 . S
C921 N923 1.314 . S
C921 H962 0.930 . S
C922 C920 1.358 . S
C922 N923 1.279 . S
C922 H963 0.930 . S
N923 C921 1.314 . S
N923 C922 1.279 . S
C924 C926 1.353 . S
C924 N927 1.314 . S
C924 H930 0.930 . S
C925 N927 1.279 . S
C925 C928 1.358 . S
C925 H931 0.930 . S
C926 C924 1.353 . S
C926 C929 1.348 . S
C926 H964 0.929 . S
N927 Li882 1.990 . S
N927 C924 1.314 . S
N927 C925 1.279 . S
C928 C925 1.358 . S
C928 C929 1.356 . S
C928 H965 0.930 . S
C929 C926 1.348 . S
C929 C928 1.356 . S
H930 C924 0.930 . S
H931 C925 0.930 . S
C932 N933 1.314 1_545 S
C932 C934 1.353 . S
C932 H938 0.930 . S
N933 Li883 1.990 1_565 S
N933 C932 1.314 1_565 S
N933 C936 1.279 . S
C934 C932 1.353 . S
C934 C937 1.348 1_545 S
C934 H966 0.929 . S
C935 C936 1.358 . S
C935 C937 1.356 . S
C935 H967 0.930 . S
C936 N933 1.279 . S
C936 C935 1.358 . S
C936 H939 0.930 . S
C937 C934 1.348 1_565 S
C937 C935 1.356 . S
H938 C932 0.930 . S
H939 C936 0.930 . S
O940 Li880 1.956 . S
O940 Li881 1.970 . S
O940 Li882 1.961 1_545 S
O940 C884 1.325 . S
O941 Li880 1.970 . S
O941 Li881 1.956 . S
O941 Li883 1.961 . S
O941 C890 1.325 . S
O942 Li880 1.961 . S
O942 Li882 1.956 1_545 S
O942 Li883 1.970 . S
O942 C912 1.325 . S
O943 Li881 1.961 1_565 S
O943 Li882 1.970 . S
O943 Li883 1.956 1_565 S
O943 C918 1.325 . S
H944 C886 0.929 . S
H945 C887 0.930 . S
H946 C888 0.930 . S
H947 C889 0.930 . S
H948 C891 0.930 . S
H949 C893 0.929 . S
H950 C894 0.930 . S
H951 C895 0.930 . S
H952 C898 0.930 . S
H953 C901 0.929 . S
H954 C906 0.929 . S
H955 C907 0.930 . S
H956 C914 0.929 . S
H957 C915 0.930 . S
H958 C916 0.930 . S
H959 C917 0.930 . S
H960 C919 0.929 . S
H961 C920 0.930 . S
H962 C921 0.930 . S
H963 C922 0.930 . S
H964 C926 0.929 . S
H965 C928 0.930 . S
H966 C934 0.929 . S
H967 C935 0.930 . S
Li968 N985 1.990 . S
Li968 O1028 1.956 . S
Li968 O1029 1.970 . S
Li968 O1030 1.961 1_554 S
Li969 N993 1.990 . S
Li969 O1028 1.970 . S
Li969 O1029 1.955 . S
Li969 O1031 1.961 . S
Li970 N1015 1.990 . S
Li970 O1028 1.961 . S
Li970 O1030 1.956 1_554 S
Li970 O1031 1.970 . S
Li971 N1021 1.990 . S
Li971 O1029 1.962 1_556 S
Li971 O1030 1.970 . S
Li971 O1031 1.956 1_556 S
C972 C974 1.348 . S
C972 C975 1.356 . S
C972 O1028 1.325 . S
N973 C976 1.328 . S
N973 C977 1.274 1_565 S
C974 C972 1.348 . S
C974 C976 1.353 . S
C974 H1032 0.929 . S
C975 C972 1.356 . S
C975 C977 1.358 1_565 S
C975 H1033 0.930 . S
C976 N973 1.328 . S
C976 C974 1.353 . S
C976 H1034 0.930 . S
C977 N973 1.274 1_545 S
C977 C975 1.358 1_545 S
C977 H1035 0.930 . S
C978 C981 1.348 1_556 S
C978 C982 1.356 . S
C978 O1029 1.325 1_556 S
C979 N980 1.279 . S
C979 C982 1.358 . S
C979 H1036 0.930 . S
N980 C979 1.279 . S
N980 C983 1.308 1_556 S
C981 C978 1.348 1_554 S
C981 C983 1.350 . S
C981 H1037 0.929 . S
C982 C978 1.356 . S
C982 C979 1.358 . S
C982 H1038 0.930 . S
C983 N980 1.308 1_554 S
C983 C981 1.350 . S
C983 H1039 0.942 . S
C984 N985 1.314 1_556 S
C984 C989 1.353 . S
C984 H990 0.930 . S
N985 Li968 1.990 . S
N985 C984 1.314 1_554 S
N985 C987 1.279 . S
C986 C987 1.358 . S
C986 C988 1.356 . S
C986 H1040 0.930 . S
C987 N985 1.279 . S
C987 C986 1.358 . S
C987 H991 0.930 . S
C988 C986 1.356 . S
C988 C989 1.348 1_554 S
C989 C984 1.353 . S
C989 C988 1.348 1_556 S
C989 H1041 0.929 . S
H990 C984 0.930 . S
H991 C987 0.930 . S
C992 N993 1.314 . S
C992 C994 1.353 . S
C992 H998 0.930 . S
N993 Li969 1.990 . S
N993 C992 1.314 . S
N993 C996 1.279 . S
C994 C992 1.353 . S
C994 C997 1.348 . S
C994 H1042 0.929 . S
C995 C996 1.358 . S
C995 C997 1.356 . S
C995 H1043 0.930 . S
C996 N993 1.279 . S
C996 C995 1.358 . S
C996 H999 0.930 . S
C997 C994 1.348 . S
C997 C995 1.356 . S
H998 C992 0.930 . S
H999 C996 0.930 . S
C1000 C1002 1.348 . S
C1000 C1003 1.356 . S
C1000 O1030 1.325 . S
N1001 C1004 1.314 . S
N1001 C1005 1.279 . S
C1002 C1000 1.348 . S
C1002 C1004 1.353 . S
C1002 H1044 0.929 . S
C1003 C1000 1.356 . S
C1003 C1005 1.358 . S
C1003 H1045 0.930 . S
C1004 N1001 1.314 . S
C1004 C1002 1.353 . S
C1004 H1046 0.930 . S
C1005 N1001 1.279 . S
C1005 C1003 1.358 . S
C1005 H1047 0.930 1_565 S
C1006 C1007 1.348 1_554 S
C1006 C1008 1.356 . S
C1006 O1031 1.325 . S
C1007 C1006 1.348 1_556 S
C1007 C1009 1.353 . S
C1007 H1048 0.929 . S
C1008 C1006 1.356 . S
C1008 C1010 1.358 . S
C1008 H1049 0.930 . S
C1009 C1007 1.353 . S
C1009 N1011 1.315 1_556 S
C1009 H1050 0.930 . S
C1010 C1008 1.358 . S
C1010 N1011 1.279 . S
C1010 H1051 0.930 . S
N1011 C1009 1.315 1_554 S
N1011 C1010 1.279 . S
C1012 C1014 1.353 . S
C1012 N1015 1.314 . S
C1012 H1018 0.930 . S
C1013 N1015 1.279 1_556 S
C1013 C1016 1.358 1_565 S
C1013 H1019 0.930 . S
C1014 C1012 1.353 . S
C1014 C1017 1.348 1_565 S
C1014 H1052 0.929 . S
N1015 Li970 1.990 . S
N1015 C1012 1.314 . S
N1015 C1013 1.279 1_554 S
C1016 C1013 1.358 1_545 S
C1016 C1017 1.356 1_556 S
C1016 H1053 0.930 . S
C1017 C1014 1.348 1_545 S
C1017 C1016 1.356 1_554 S
H1018 C1012 0.930 . S
H1019 C1013 0.930 . S
C1020 N1021 1.314 . S
C1020 C1022 1.353 . S
C1020 H1026 0.930 . S
N1021 Li971 1.990 . S
N1021 C1020 1.314 . S
N1021 C1024 1.279 . S
C1022 C1020 1.353 . S
C1022 C1025 1.348 . S
C1022 H1054 0.929 . S
C1023 C1024 1.358 . S
C1023 C1025 1.356 . S
C1023 H1055 0.930 . S
C1024 N1021 1.279 . S
C1024 C1023 1.358 . S
C1024 H1027 0.930 . S
C1025 C1022 1.348 . S
C1025 C1023 1.356 . S
H1026 C1020 0.930 . S
H1027 C1024 0.930 . S
O1028 Li968 1.956 . S
O1028 Li969 1.970 . S
O1028 Li970 1.961 . S
O1028 C972 1.325 . S
O1029 Li968 1.970 . S
O1029 Li969 1.955 . S
O1029 Li971 1.962 1_554 S
O1029 C978 1.325 1_554 S
O1030 Li968 1.961 1_556 S
O1030 Li970 1.956 1_556 S
O1030 Li971 1.970 . S
O1030 C1000 1.325 . S
O1031 Li969 1.961 . S
O1031 Li970 1.970 . S
O1031 Li971 1.956 1_554 S
O1031 C1006 1.325 . S
H1032 C974 0.929 . S
H1033 C975 0.930 . S
H1034 C976 0.930 . S
H1035 C977 0.930 . S
H1036 C979 0.930 . S
H1037 C981 0.929 . S
H1038 C982 0.930 . S
H1039 C983 0.942 . S
H1040 C986 0.930 . S
H1041 C989 0.929 . S
H1042 C994 0.929 . S
H1043 C995 0.930 . S
H1044 C1002 0.929 . S
H1045 C1003 0.930 . S
H1046 C1004 0.930 . S
H1047 C1005 0.930 1_545 S
H1048 C1007 0.929 . S
H1049 C1008 0.930 . S
H1050 C1009 0.930 . S
H1051 C1010 0.930 . S
H1052 C1014 0.929 . S
H1053 C1016 0.930 . S
H1054 C1022 0.929 . S
H1055 C1023 0.930 . S
Li1056 N1073 1.990 . S
Li1056 O1116 1.956 . S
Li1056 O1117 1.970 . S
Li1056 O1118 1.961 1_554 S
Li1057 N1081 1.990 . S
Li1057 O1116 1.970 . S
Li1057 O1117 1.956 . S
Li1057 O1119 1.961 . S
Li1058 N1103 1.990 . S
Li1058 O1116 1.961 . S
Li1058 O1118 1.956 1_554 S
Li1058 O1119 1.970 . S
Li1059 N1109 1.990 . S
Li1059 O1117 1.961 1_556 S
Li1059 O1118 1.970 . S
Li1059 O1119 1.956 1_556 S
C1060 C1062 1.348 . S
C1060 C1063 1.356 . S
C1060 O1116 1.325 . S
N1061 C1064 1.314 . S
N1061 C1065 1.279 . S
C1062 C1060 1.348 . S
C1062 C1064 1.353 . S
C1062 H1120 0.929 . S
C1063 C1060 1.356 . S
C1063 C1065 1.358 . S
C1063 H1121 0.930 . S
C1064 N1061 1.314 . S
C1064 C1062 1.353 . S
C1064 H1122 0.930 . S
C1065 N1061 1.279 . S
C1065 C1063 1.358 . S
C1065 H1123 0.930 . S
C1066 C1069 1.348 . S
C1066 C1070 1.356 . S
C1066 O1117 1.325 . S
C1067 N1068 1.287 . S
C1067 C1070 1.356 . S
C1067 H1124 0.926 1_554 S
N1068 C1067 1.287 . S
N1068 C1071 1.314 . S
C1069 C1066 1.348 . S
C1069 C1071 1.353 . S
C1069 H1125 0.929 . S
C1070 C1066 1.356 . S
C1070 C1067 1.356 . S
C1070 H1126 0.927 1_554 S
C1071 N1068 1.314 . S
C1071 C1069 1.353 . S
C1071 H1127 0.930 . S
C1072 N1073 1.314 . S
C1072 C1077 1.353 1_554 S
C1072 H1078 0.930 1_554 S
N1073 Li1056 1.990 . S
N1073 C1072 1.314 . S
N1073 C1075 1.279 . S
C1074 C1075 1.358 . S
C1074 C1076 1.356 . S
C1074 H1128 0.930 . S
C1075 N1073 1.279 . S
C1075 C1074 1.358 . S
C1075 H1079 0.930 . S
C1076 C1074 1.356 . S
C1076 C1077 1.343 1_554 S
C1077 C1072 1.353 1_556 S
C1077 C1076 1.343 1_556 S
C1077 H1129 0.934 . S
H1078 C1072 0.930 1_556 S
H1079 C1075 0.930 . S
C1080 N1081 1.314 . S
C1080 C1082 1.353 . S
C1080 H1086 0.930 . S
N1081 Li1057 1.990 . S
N1081 C1080 1.314 . S
N1081 C1084 1.279 . S
C1082 C1080 1.353 . S
C1082 C1085 1.348 . S
C1082 H1130 0.929 . S
C1083 C1084 1.358 . S
C1083 C1085 1.356 . S
C1083 H1131 0.930 . S
C1084 N1081 1.279 . S
C1084 C1083 1.358 . S
C1084 H1087 0.930 . S
C1085 C1082 1.348 . S
C1085 C1083 1.356 . S
H1086 C1080 0.930 . S
H1087 C1084 0.930 . S
C1088 C1090 1.348 . S
C1088 C1091 1.356 . S
C1088 O1118 1.325 . S
N1089 C1092 1.314 . S
N1089 C1093 1.279 . S
C1090 C1088 1.348 . S
C1090 C1092 1.353 . S
C1090 H1132 0.929 . S
C1091 C1088 1.356 . S
C1091 C1093 1.358 . S
C1091 H1133 0.930 . S
C1092 N1089 1.314 . S
C1092 C1090 1.353 . S
C1092 H1134 0.930 . S
C1093 N1089 1.279 . S
C1093 C1091 1.358 . S
C1093 H1135 0.930 . S
C1094 C1095 1.348 . S
C1094 C1096 1.356 . S
C1094 O1119 1.325 . S
C1095 C1094 1.348 . S
C1095 C1097 1.353 . S
C1095 H1136 0.929 . S
C1096 C1094 1.356 . S
C1096 C1098 1.358 . S
C1096 H1137 0.930 . S
C1097 C1095 1.353 . S
C1097 N1099 1.314 . S
C1097 H1138 0.930 . S
C1098 C1096 1.358 . S
C1098 N1099 1.279 . S
C1098 H1139 0.930 . S
N1099 C1097 1.314 . S
N1099 C1098 1.279 . S
C1100 C1102 1.353 . S
C1100 N1103 1.314 . S
C1100 H1106 0.930 . S
C1101 N1103 1.279 . S
C1101 C1104 1.358 . S
C1101 H1107 0.930 1_554 S
C1102 C1100 1.353 . S
C1102 C1105 1.348 . S
C1102 H1140 0.929 . S
N1103 Li1058 1.990 . S
N1103 C1100 1.314 . S
N1103 C1101 1.279 . S
C1104 C1101 1.358 . S
C1104 C1105 1.356 . S
C1104 H1141 0.930 1_554 S
C1105 C1102 1.348 . S
C1105 C1104 1.356 . S
H1106 C1100 0.930 . S
H1107 C1101 0.930 1_556 S
C1108 N1109 1.314 . S
C1108 C1110 1.353 . S
C1108 H1114 0.930 . S
N1109 Li1059 1.990 . S
N1109 C1108 1.314 . S
N1109 C1112 1.279 . S
C1110 C1108 1.353 . S
C1110 C1113 1.348 . S
C1110 H1142 0.929 . S
C1111 C1112 1.358 . S
C1111 C1113 1.356 . S
C1111 H1143 0.930 . S
C1112 N1109 1.279 . S
C1112 C1111 1.358 . S
C1112 H1115 0.930 . S
C1113 C1110 1.348 . S
C1113 C1111 1.356 . S
H1114 C1108 0.930 . S
H1115 C1112 0.930 . S
O1116 Li1056 1.956 . S
O1116 Li1057 1.970 . S
O1116 Li1058 1.961 . S
O1116 C1060 1.325 . S
O1117 Li1056 1.970 . S
O1117 Li1057 1.956 . S
O1117 Li1059 1.961 1_554 S
O1117 C1066 1.325 . S
O1118 Li1056 1.961 1_556 S
O1118 Li1058 1.956 1_556 S
O1118 Li1059 1.970 . S
O1118 C1088 1.325 . S
O1119 Li1057 1.961 . S
O1119 Li1058 1.970 . S
O1119 Li1059 1.956 1_554 S
O1119 C1094 1.325 . S
H1120 C1062 0.929 . S
H1121 C1063 0.930 . S
H1122 C1064 0.930 . S
H1123 C1065 0.930 . S
H1124 C1067 0.926 1_556 S
H1125 C1069 0.929 . S
H1126 C1070 0.927 1_556 S
H1127 C1071 0.930 . S
H1128 C1074 0.930 . S
H1129 C1077 0.934 . S
H1130 C1082 0.929 . S
H1131 C1083 0.930 . S
H1132 C1090 0.929 . S
H1133 C1091 0.930 . S
H1134 C1092 0.930 . S
H1135 C1093 0.930 . S
H1136 C1095 0.929 . S
H1137 C1096 0.930 . S
H1138 C1097 0.930 . S
H1139 C1098 0.930 . S
H1140 C1102 0.929 . S
H1141 C1104 0.930 1_556 S
H1142 C1110 0.929 . S
H1143 C1111 0.930 . S
Li1144 N1161 1.990 . S
Li1144 O1204 1.956 . S
Li1144 O1205 1.970 . S
Li1144 O1206 1.961 . S
Li1145 N1169 1.990 . S
Li1145 O1204 1.970 . S
Li1145 O1205 1.956 . S
Li1145 O1207 1.961 1_554 S
Li1146 N1191 1.990 . S
Li1146 O1204 1.961 1_556 S
Li1146 O1206 1.956 1_556 S
Li1146 O1207 1.970 . S
Li1147 N1197 1.990 . S
Li1147 O1205 1.961 . S
Li1147 O1206 1.970 . S
Li1147 O1207 1.956 1_554 S
C1148 C1150 1.348 . S
C1148 C1151 1.356 . S
C1148 O1204 1.325 . S
N1149 C1152 1.314 . S
N1149 C1153 1.279 . S
C1150 C1148 1.348 . S
C1150 C1152 1.353 . S
C1150 H1208 0.929 . S
C1151 C1148 1.356 . S
C1151 C1153 1.358 . S
C1151 H1209 0.930 . S
C1152 N1149 1.314 . S
C1152 C1150 1.353 . S
C1152 H1210 0.930 . S
C1153 N1149 1.279 . S
C1153 C1151 1.358 . S
C1153 H1211 0.930 . S
C1154 C1157 1.348 . S
C1154 C1158 1.356 . S
C1154 O1205 1.325 . S
C1155 N1156 1.279 . S
C1155 C1158 1.358 . S
C1155 H1212 0.930 . S
N1156 C1155 1.279 . S
N1156 C1159 1.314 . S
C1157 C1154 1.348 . S
C1157 C1159 1.353 . S
C1157 H1213 0.929 . S
C1158 C1154 1.356 . S
C1158 C1155 1.358 . S
C1158 H1214 0.930 . S
C1159 N1156 1.314 . S
C1159 C1157 1.353 . S
C1159 H1215 0.930 . S
C1160 N1161 1.314 . S
C1160 C1165 1.353 . S
C1160 H1166 0.930 . S
N1161 Li1144 1.990 . S
N1161 C1160 1.314 . S
N1161 C1163 1.279 . S
C1162 C1163 1.358 . S
C1162 C1164 1.356 . S
C1162 H1216 0.930 . S
C1163 N1161 1.279 . S
C1163 C1162 1.358 . S
C1163 H1167 0.930 . S
C1164 C1162 1.356 . S
C1164 C1165 1.348 . S
C1165 C1160 1.353 . S
C1165 C1164 1.348 . S
C1165 H1217 0.929 . S
H1166 C1160 0.930 . S
H1167 C1163 0.930 . S
C1168 N1169 1.303 1_556 S
C1168 C1170 1.354 . S
C1168 H1174 0.941 . S
N1169 Li1145 1.990 . S
N1169 C1168 1.303 1_554 S
N1169 C1172 1.279 . S
C1170 C1168 1.354 . S
C1170 C1173 1.348 1_556 S
C1170 H1218 0.929 . S
C1171 C1172 1.358 . S
C1171 C1173 1.356 . S
C1171 H1219 0.930 . S
C1172 N1169 1.279 . S
C1172 C1171 1.358 . S
C1172 H1175 0.930 . S
C1173 C1170 1.348 1_554 S
C1173 C1171 1.356 . S
H1174 C1168 0.941 . S
H1175 C1172 0.930 . S
C1176 C1178 1.348 . S
C1176 C1179 1.356 . S
C1176 O1206 1.325 . S
N1177 C1180 1.314 . S
N1177 C1181 1.279 . S
C1178 C1176 1.348 . S
C1178 C1180 1.353 . S
C1178 H1220 0.929 . S
C1179 C1176 1.356 . S
C1179 C1181 1.358 . S
C1179 H1221 0.930 . S
C1180 N1177 1.314 . S
C1180 C1178 1.353 . S
C1180 H1222 0.930 . S
C1181 N1177 1.279 . S
C1181 C1179 1.358 . S
C1181 H1223 0.930 . S
C1182 C1183 1.348 . S
C1182 C1184 1.356 . S
C1182 O1207 1.325 . S
C1183 C1182 1.348 . S
C1183 C1185 1.353 . S
C1183 H1224 0.929 . S
C1184 C1182 1.356 . S
C1184 C1186 1.358 . S
C1184 H1225 0.930 . S
C1185 C1183 1.353 . S
C1185 N1187 1.314 . S
C1185 H1226 0.930 . S
C1186 C1184 1.358 . S
C1186 N1187 1.279 . S
C1186 H1227 0.930 . S
N1187 C1185 1.314 . S
N1187 C1186 1.279 . S
C1188 C1190 1.353 . S
C1188 N1191 1.314 . S
C1188 H1194 0.930 . S
C1189 N1191 1.279 . S
C1189 C1192 1.358 . S
C1189 H1195 0.930 . S
C1190 C1188 1.353 . S
C1190 C1193 1.348 . S
C1190 H1228 0.929 . S
N1191 Li1146 1.990 . S
N1191 C1188 1.314 . S
N1191 C1189 1.279 . S
C1192 C1189 1.358 . S
C1192 C1193 1.356 . S
C1192 H1229 0.930 . S
C1193 C1190 1.348 . S
C1193 C1192 1.356 . S
H1194 C1188 0.930 . S
H1195 C1189 0.930 . S
C1196 N1197 1.314 . S
C1196 C1198 1.353 . S
C1196 H1202 0.930 . S
N1197 Li1147 1.990 . S
N1197 C1196 1.314 . S
N1197 C1200 1.279 1_554 S
C1198 C1196 1.353 . S
C1198 C1201 1.348 . S
C1198 H1230 0.929 . S
C1199 C1200 1.358 . S
C1199 C1201 1.356 1_556 S
C1199 H1231 0.930 . S
C1200 N1197 1.279 1_556 S
C1200 C1199 1.358 . S
C1200 H1203 0.930 . S
C1201 C1198 1.348 . S
C1201 C1199 1.356 1_554 S
H1202 C1196 0.930 . S
H1203 C1200 0.930 . S
O1204 Li1144 1.956 . S
O1204 Li1145 1.970 . S
O1204 Li1146 1.961 1_554 S
O1204 C1148 1.325 . S
O1205 Li1144 1.970 . S
O1205 Li1145 1.956 . S
O1205 Li1147 1.961 . S
O1205 C1154 1.325 . S
O1206 Li1144 1.961 . S
O1206 Li1146 1.956 1_554 S
O1206 Li1147 1.970 . S
O1206 C1176 1.325 . S
O1207 Li1145 1.961 1_556 S
O1207 Li1146 1.970 . S
O1207 Li1147 1.956 1_556 S
O1207 C1182 1.325 . S
H1208 C1150 0.929 . S
H1209 C1151 0.930 . S
H1210 C1152 0.930 . S
H1211 C1153 0.930 . S
H1212 C1155 0.930 . S
H1213 C1157 0.929 . S
H1214 C1158 0.930 . S
H1215 C1159 0.930 . S
H1216 C1162 0.930 . S
H1217 C1165 0.929 . S
H1218 C1170 0.929 . S
H1219 C1171 0.930 . S
H1220 C1178 0.929 . S
H1221 C1179 0.930 . S
H1222 C1180 0.930 . S
H1223 C1181 0.930 . S
H1224 C1183 0.929 . S
H1225 C1184 0.930 . S
H1226 C1185 0.930 . S
H1227 C1186 0.930 . S
H1228 C1190 0.929 . S
H1229 C1192 0.930 . S
H1230 C1198 0.929 . S
H1231 C1199 0.930 . S
Li1232 N1249 1.990 . S
Li1232 O1292 1.956 . S
Li1232 O1293 1.970 . S
Li1232 O1294 1.961 . S
Li1233 N1257 1.990 . S
Li1233 O1292 1.970 . S
Li1233 O1293 1.956 . S
Li1233 O1295 1.961 . S
Li1234 N1279 1.990 . S
Li1234 O1292 1.961 . S
Li1234 O1294 1.956 . S
Li1234 O1295 1.970 . S
Li1235 N1285 1.990 . S
Li1235 O1293 1.961 . S
Li1235 O1294 1.970 . S
Li1235 O1295 1.956 . S
C1236 C1238 1.348 . S
C1236 C1239 1.356 . S
C1236 O1292 1.325 . S
N1237 C1240 1.314 . S
N1237 C1241 1.279 . S
C1238 C1236 1.348 . S
C1238 C1240 1.353 . S
C1238 H1296 0.929 . S
C1239 C1236 1.356 . S
C1239 C1241 1.358 . S
C1239 H1297 0.930 . S
C1240 N1237 1.314 . S
C1240 C1238 1.353 . S
C1240 H1298 0.930 . S
C1241 N1237 1.279 . S
C1241 C1239 1.358 . S
C1241 H1299 0.930 . S
C1242 C1245 1.348 . S
C1242 C1246 1.356 . S
C1242 O1293 1.325 . S
C1243 N1244 1.279 . S
C1243 C1246 1.358 . S
C1243 H1300 0.930 . S
N1244 C1243 1.279 . S
N1244 C1247 1.314 . S
C1245 C1242 1.348 . S
C1245 C1247 1.353 . S
C1245 H1301 0.929 . S
C1246 C1242 1.356 . S
C1246 C1243 1.358 . S
C1246 H1302 0.930 . S
C1247 N1244 1.314 . S
C1247 C1245 1.353 . S
C1247 H1303 0.930 . S
C1248 N1249 1.314 . S
C1248 C1253 1.353 . S
C1248 H1254 0.930 . S
N1249 Li1232 1.990 . S
N1249 C1248 1.314 . S
N1249 C1251 1.279 . S
C1250 C1251 1.358 . S
C1250 C1252 1.356 . S
C1250 H1304 0.930 . S
C1251 N1249 1.279 . S
C1251 C1250 1.358 . S
C1251 H1255 0.930 . S
C1252 C1250 1.356 . S
C1252 C1253 1.348 . S
C1253 C1248 1.353 . S
C1253 C1252 1.348 . S
C1253 H1305 0.929 . S
H1254 C1248 0.930 . S
H1255 C1251 0.930 . S
C1256 N1257 1.314 . S
C1256 C1258 1.353 . S
C1256 H1262 0.930 . S
N1257 Li1233 1.990 . S
N1257 C1256 1.314 . S
N1257 C1260 1.279 . S
C1258 C1256 1.353 . S
C1258 C1261 1.348 . S
C1258 H1306 0.929 . S
C1259 C1260 1.358 . S
C1259 C1261 1.356 . S
C1259 H1307 0.930 . S
C1260 N1257 1.279 . S
C1260 C1259 1.358 . S
C1260 H1263 0.930 . S
C1261 C1258 1.348 . S
C1261 C1259 1.356 . S
H1262 C1256 0.930 . S
H1263 C1260 0.930 . S
C1264 C1266 1.348 . S
C1264 C1267 1.356 . S
C1264 O1294 1.325 . S
N1265 C1268 1.314 . S
N1265 C1269 1.279 . S
C1266 C1264 1.348 . S
C1266 C1268 1.353 . S
C1266 H1308 0.929 . S
C1267 C1264 1.356 . S
C1267 C1269 1.358 . S
C1267 H1309 0.930 . S
C1268 N1265 1.314 . S
C1268 C1266 1.353 . S
C1268 H1310 0.930 . S
C1269 N1265 1.279 . S
C1269 C1267 1.358 . S
C1269 H1311 0.930 . S
C1270 C1271 1.348 . S
C1270 C1272 1.356 . S
C1270 O1295 1.325 . S
C1271 C1270 1.348 . S
C1271 C1273 1.353 . S
C1271 H1312 0.929 . S
C1272 C1270 1.356 . S
C1272 C1274 1.358 . S
C1272 H1313 0.930 . S
C1273 C1271 1.353 . S
C1273 N1275 1.314 . S
C1273 H1314 0.930 . S
C1274 C1272 1.358 . S
C1274 N1275 1.279 . S
C1274 H1315 0.930 . S
N1275 C1273 1.314 . S
N1275 C1274 1.279 . S
C1276 C1278 1.353 . S
C1276 N1279 1.314 . S
C1276 H1282 0.930 . S
C1277 N1279 1.279 . S
C1277 C1280 1.358 . S
C1277 H1283 0.930 . S
C1278 C1276 1.353 . S
C1278 C1281 1.348 . S
C1278 H1316 0.929 . S
N1279 Li1234 1.990 . S
N1279 C1276 1.314 . S
N1279 C1277 1.279 . S
C1280 C1277 1.358 . S
C1280 C1281 1.356 . S
C1280 H1317 0.930 . S
C1281 C1278 1.348 . S
C1281 C1280 1.356 . S
H1282 C1276 0.930 . S
H1283 C1277 0.930 . S
C1284 N1285 1.314 . S
C1284 C1286 1.353 . S
C1284 H1290 0.930 . S
N1285 Li1235 1.990 . S
N1285 C1284 1.314 . S
N1285 C1288 1.279 . S
C1286 C1284 1.353 . S
C1286 C1289 1.348 . S
C1286 H1318 0.929 . S
C1287 C1288 1.358 . S
C1287 C1289 1.356 . S
C1287 H1319 0.930 . S
C1288 N1285 1.279 . S
C1288 C1287 1.358 . S
C1288 H1291 0.930 . S
C1289 C1286 1.348 . S
C1289 C1287 1.356 . S
H1290 C1284 0.930 . S
H1291 C1288 0.930 . S
O1292 Li1232 1.956 . S
O1292 Li1233 1.970 . S
O1292 Li1234 1.961 . S
O1292 C1236 1.325 . S
O1293 Li1232 1.970 . S
O1293 Li1233 1.956 . S
O1293 Li1235 1.961 . S
O1293 C1242 1.325 . S
O1294 Li1232 1.961 . S
O1294 Li1234 1.956 . S
O1294 Li1235 1.970 . S
O1294 C1264 1.325 . S
O1295 Li1233 1.961 . S
O1295 Li1234 1.970 . S
O1295 Li1235 1.956 . S
O1295 C1270 1.325 . S
H1296 C1238 0.929 . S
H1297 C1239 0.930 . S
H1298 C1240 0.930 . S
H1299 C1241 0.930 . S
H1300 C1243 0.930 . S
H1301 C1245 0.929 . S
H1302 C1246 0.930 . S
H1303 C1247 0.930 . S
H1304 C1250 0.930 . S
H1305 C1253 0.929 . S
H1306 C1258 0.929 . S
H1307 C1259 0.930 . S
H1308 C1266 0.929 . S
H1309 C1267 0.930 . S
H1310 C1268 0.930 . S
H1311 C1269 0.930 . S
H1312 C1271 0.929 . S
H1313 C1272 0.930 . S
H1314 C1273 0.930 . S
H1315 C1274 0.930 . S
H1316 C1278 0.929 . S
H1317 C1280 0.930 . S
H1318 C1286 0.929 . S
H1319 C1287 0.930 . S
Li1320 N1337 1.990 . S
Li1320 O1380 1.956 . S
Li1320 O1381 1.970 . S
Li1320 O1382 1.961 . S
Li1321 N1345 1.990 . S
Li1321 O1380 1.970 . S
Li1321 O1381 1.956 . S
Li1321 O1383 1.961 . S
Li1322 N1367 1.990 . S
Li1322 O1380 1.961 . S
Li1322 O1382 1.956 . S
Li1322 O1383 1.970 . S
Li1323 N1373 1.990 . S
Li1323 O1381 1.961 . S
Li1323 O1382 1.970 . S
Li1323 O1383 1.956 . S
C1324 C1326 1.348 . S
C1324 C1327 1.356 . S
C1324 O1380 1.325 . S
N1325 C1328 1.314 . S
N1325 C1329 1.279 . S
C1326 C1324 1.348 . S
C1326 C1328 1.353 . S
C1326 H1384 0.929 . S
C1327 C1324 1.356 . S
C1327 C1329 1.358 . S
C1327 H1385 0.930 . S
C1328 N1325 1.314 . S
C1328 C1326 1.353 . S
C1328 H1386 0.930 . S
C1329 N1325 1.279 . S
C1329 C1327 1.358 . S
C1329 H1387 0.930 . S
C1330 C1333 1.348 . S
C1330 C1334 1.356 . S
C1330 O1381 1.325 . S
C1331 N1332 1.279 . S
C1331 C1334 1.358 . S
C1331 H1388 0.930 . S
N1332 C1331 1.279 . S
N1332 C1335 1.314 . S
C1333 C1330 1.348 . S
C1333 C1335 1.353 . S
C1333 H1389 0.929 . S
C1334 C1330 1.356 . S
C1334 C1331 1.358 . S
C1334 H1390 0.930 . S
C1335 N1332 1.314 . S
C1335 C1333 1.353 . S
C1335 H1391 0.930 . S
C1336 N1337 1.314 . S
C1336 C1341 1.353 . S
C1336 H1342 0.930 . S
N1337 Li1320 1.990 . S
N1337 C1336 1.314 . S
N1337 C1339 1.279 . S
C1338 C1339 1.358 . S
C1338 C1340 1.356 . S
C1338 H1392 0.930 . S
C1339 N1337 1.279 . S
C1339 C1338 1.358 . S
C1339 H1343 0.930 . S
C1340 C1338 1.356 . S
C1340 C1341 1.348 . S
C1341 C1336 1.353 . S
C1341 C1340 1.348 . S
C1341 H1393 0.929 . S
H1342 C1336 0.930 . S
H1343 C1339 0.930 . S
C1344 N1345 1.314 . S
C1344 C1346 1.353 . S
C1344 H1350 0.930 . S
N1345 Li1321 1.990 . S
N1345 C1344 1.314 . S
N1345 C1348 1.279 . S
C1346 C1344 1.353 . S
C1346 C1349 1.348 . S
C1346 H1394 0.929 . S
C1347 C1348 1.358 . S
C1347 C1349 1.356 . S
C1347 H1395 0.930 . S
C1348 N1345 1.279 . S
C1348 C1347 1.358 . S
C1348 H1351 0.930 . S
C1349 C1346 1.348 . S
C1349 C1347 1.356 . S
H1350 C1344 0.930 . S
H1351 C1348 0.930 . S
C1352 C1354 1.348 . S
C1352 C1355 1.356 . S
C1352 O1382 1.325 . S
N1353 C1356 1.314 . S
N1353 C1357 1.279 . S
C1354 C1352 1.348 . S
C1354 C1356 1.353 . S
C1354 H1396 0.929 . S
C1355 C1352 1.356 . S
C1355 C1357 1.358 . S
C1355 H1397 0.930 . S
C1356 N1353 1.314 . S
C1356 C1354 1.353 . S
C1356 H1398 0.930 . S
C1357 N1353 1.279 . S
C1357 C1355 1.358 . S
C1357 H1399 0.930 . S
C1358 C1359 1.348 . S
C1358 C1360 1.356 . S
C1358 O1383 1.325 . S
C1359 C1358 1.348 . S
C1359 C1361 1.353 . S
C1359 H1400 0.929 . S
C1360 C1358 1.356 . S
C1360 C1362 1.358 . S
C1360 H1401 0.930 . S
C1361 C1359 1.353 . S
C1361 N1363 1.314 . S
C1361 H1402 0.930 . S
C1362 C1360 1.358 . S
C1362 N1363 1.279 . S
C1362 H1403 0.930 . S
N1363 C1361 1.314 . S
N1363 C1362 1.279 . S
C1364 C1366 1.353 . S
C1364 N1367 1.314 . S
C1364 H1370 0.930 . S
C1365 N1367 1.279 . S
C1365 C1368 1.358 . S
C1365 H1371 0.930 . S
C1366 C1364 1.353 . S
C1366 C1369 1.348 . S
C1366 H1404 0.929 . S
N1367 Li1322 1.990 . S
N1367 C1364 1.314 . S
N1367 C1365 1.279 . S
C1368 C1365 1.358 . S
C1368 C1369 1.356 . S
C1368 H1405 0.930 . S
C1369 C1366 1.348 . S
C1369 C1368 1.356 . S
H1370 C1364 0.930 . S
H1371 C1365 0.930 . S
C1372 N1373 1.314 . S
C1372 C1374 1.353 . S
C1372 H1378 0.930 . S
N1373 Li1323 1.990 . S
N1373 C1372 1.314 . S
N1373 C1376 1.279 . S
C1374 C1372 1.353 . S
C1374 C1377 1.348 . S
C1374 H1406 0.929 . S
C1375 C1376 1.358 . S
C1375 C1377 1.356 . S
C1375 H1407 0.930 . S
C1376 N1373 1.279 . S
C1376 C1375 1.358 . S
C1376 H1379 0.930 . S
C1377 C1374 1.348 . S
C1377 C1375 1.356 . S
H1378 C1372 0.930 . S
H1379 C1376 0.930 . S
O1380 Li1320 1.956 . S
O1380 Li1321 1.970 . S
O1380 Li1322 1.961 . S
O1380 C1324 1.325 . S
O1381 Li1320 1.970 . S
O1381 Li1321 1.956 . S
O1381 Li1323 1.961 . S
O1381 C1330 1.325 . S
O1382 Li1320 1.961 . S
O1382 Li1322 1.956 . S
O1382 Li1323 1.970 . S
O1382 C1352 1.325 . S
O1383 Li1321 1.961 . S
O1383 Li1322 1.970 . S
O1383 Li1323 1.956 . S
O1383 C1358 1.325 . S
H1384 C1326 0.929 . S
H1385 C1327 0.930 . S
H1386 C1328 0.930 . S
H1387 C1329 0.930 . S
H1388 C1331 0.930 . S
H1389 C1333 0.929 . S
H1390 C1334 0.930 . S
H1391 C1335 0.930 . S
H1392 C1338 0.930 . S
H1393 C1341 0.929 . S
H1394 C1346 0.929 . S
H1395 C1347 0.930 . S
H1396 C1354 0.929 . S
H1397 C1355 0.930 . S
H1398 C1356 0.930 . S
H1399 C1357 0.930 . S
H1400 C1359 0.929 . S
H1401 C1360 0.930 . S
H1402 C1361 0.930 . S
H1403 C1362 0.930 . S
H1404 C1366 0.929 . S
H1405 C1368 0.930 . S
H1406 C1374 0.929 . S
H1407 C1375 0.930 . S
Li1408 N1425 1.990 . S
Li1408 O1468 1.956 . S
Li1408 O1469 1.970 . S
Li1408 O1470 1.961 . S
Li1409 N1433 1.990 . S
Li1409 O1468 1.970 . S
Li1409 O1469 1.956 . S
Li1409 O1471 1.961 . S
Li1410 N1455 1.990 . S
Li1410 O1468 1.961 . S
Li1410 O1470 1.956 . S
Li1410 O1471 1.970 . S
Li1411 N1461 1.990 . S
Li1411 O1469 1.961 . S
Li1411 O1470 1.970 . S
Li1411 O1471 1.956 . S
C1412 C1414 1.366 . S
C1412 C1415 1.356 . S
C1412 O1468 1.325 . S
N1413 C1416 1.314 . S
N1413 C1417 1.278 1_665 S
C1414 C1412 1.366 . S
C1414 C1416 1.336 1_545 S
C1414 H1472 0.928 1_545 S
C1415 C1412 1.356 . S
C1415 C1417 1.353 1_655 S
C1415 H1473 0.930 . S
C1416 N1413 1.314 . S
C1416 C1414 1.336 1_565 S
C1416 H1474 0.930 . S
C1417 N1413 1.278 1_445 S
C1417 C1415 1.353 1_455 S
C1417 H1475 0.938 . S
C1418 C1421 1.348 . S
C1418 C1422 1.356 . S
C1418 O1469 1.325 . S
C1419 N1420 1.279 . S
C1419 C1422 1.358 . S
C1419 H1476 0.930 . S
N1420 C1419 1.279 . S
N1420 C1423 1.314 . S
C1421 C1418 1.348 . S
C1421 C1423 1.353 . S
C1421 H1477 0.929 . S
C1422 C1418 1.356 . S
C1422 C1419 1.358 . S
C1422 H1478 0.930 . S
C1423 N1420 1.314 . S
C1423 C1421 1.353 . S
C1423 H1479 0.930 . S
C1424 N1425 1.314 . S
C1424 C1429 1.334 1_655 S
C1424 H1430 0.930 . S
N1425 Li1408 1.990 . S
N1425 C1424 1.314 . S
N1425 C1427 1.279 . S
C1426 C1427 1.358 1_455 S
C1426 C1428 1.356 . S
C1426 H1480 0.930 . S
C1427 N1425 1.279 . S
C1427 C1426 1.358 1_655 S
C1427 H1431 0.930 . S
C1428 C1426 1.356 . S
C1428 C1429 1.370 . S
C1429 C1424 1.334 1_455 S
C1429 C1428 1.370 . S
C1429 H1481 0.928 . S
H1430 C1424 0.930 . S
H1431 C1427 0.930 . S
C1432 N1433 1.314 1_565 S
C1432 C1434 1.353 . S
C1432 H1438 0.930 . S
N1433 Li1409 1.990 . S
N1433 C1432 1.314 1_545 S
N1433 C1436 1.279 1_545 S
C1434 C1432 1.353 . S
C1434 C1437 1.348 . S
C1434 H1482 0.929 . S
C1435 C1436 1.358 . S
C1435 C1437 1.356 . S
C1435 H1483 0.930 . S
C1436 N1433 1.279 1_565 S
C1436 C1435 1.358 . S
C1436 H1439 0.930 1_565 S
C1437 C1434 1.348 . S
C1437 C1435 1.356 . S
H1438 C1432 0.930 . S
H1439 C1436 0.930 1_545 S
C1440 C1442 1.348 . S
C1440 C1443 1.356 . S
C1440 O1470 1.325 . S
N1441 C1444 1.314 1_455 S
N1441 C1445 1.279 . S
C1442 C1440 1.348 . S
C1442 C1444 1.353 . S
C1442 H1484 0.929 . S
C1443 C1440 1.356 . S
C1443 C1445 1.358 1_655 S
C1443 H1485 0.930 1_655 S
C1444 N1441 1.314 1_655 S
C1444 C1442 1.353 . S
C1444 H1486 0.930 . S
C1445 N1441 1.279 . S
C1445 C1443 1.358 1_455 S
C1445 H1487 0.930 . S
C1446 C1447 1.348 . S
C1446 C1448 1.356 . S
C1446 O1471 1.325 . S
C1447 C1446 1.348 . S
C1447 C1449 1.353 . S
C1447 H1488 0.929 . S
C1448 C1446 1.356 . S
C1448 C1450 1.358 . S
C1448 H1489 0.930 . S
C1449 C1447 1.353 . S
C1449 N1451 1.314 . S
C1449 H1490 0.930 . S
C1450 C1448 1.358 . S
C1450 N1451 1.279 . S
C1450 H1491 0.930 . S
N1451 C1449 1.314 . S
N1451 C1450 1.279 . S
C1452 C1454 1.353 . S
C1452 N1455 1.314 . S
C1452 H1458 0.930 . S
C1453 N1455 1.279 . S
C1453 C1456 1.374 . S
C1453 H1459 0.930 . S
C1454 C1452 1.353 . S
C1454 C1457 1.348 . S
C1454 H1492 0.929 . S
N1455 Li1410 1.990 . S
N1455 C1452 1.314 . S
N1455 C1453 1.279 . S
C1456 C1453 1.374 . S
C1456 C1457 1.350 . S
C1456 H1493 0.921 1_655 S
C1457 C1454 1.348 . S
C1457 C1456 1.350 . S
H1458 C1452 0.930 . S
H1459 C1453 0.930 . S
C1460 N1461 1.314 . S
C1460 C1462 1.353 . S
C1460 H1466 0.930 . S
N1461 Li1411 1.990 . S
N1461 C1460 1.314 . S
N1461 C1464 1.279 . S
C1462 C1460 1.353 . S
C1462 C1465 1.348 . S
C1462 H1494 0.929 . S
C1463 C1464 1.358 . S
C1463 C1465 1.356 . S
C1463 H1495 0.930 . S
C1464 N1461 1.279 . S
C1464 C1463 1.358 . S
C1464 H1467 0.930 . S
C1465 C1462 1.348 . S
C1465 C1463 1.356 . S
H1466 C1460 0.930 . S
H1467 C1464 0.930 . S
O1468 Li1408 1.956 . S
O1468 Li1409 1.970 . S
O1468 Li1410 1.961 . S
O1468 C1412 1.325 . S
O1469 Li1408 1.970 . S
O1469 Li1409 1.956 . S
O1469 Li1411 1.961 . S
O1469 C1418 1.325 . S
O1470 Li1408 1.961 . S
O1470 Li1410 1.956 . S
O1470 Li1411 1.970 . S
O1470 C1440 1.325 . S
O1471 Li1409 1.961 . S
O1471 Li1410 1.970 . S
O1471 Li1411 1.956 . S
O1471 C1446 1.325 . S
H1472 C1414 0.928 1_565 S
H1473 C1415 0.930 . S
H1474 C1416 0.930 . S
H1475 C1417 0.938 . S
H1476 C1419 0.930 . S
H1477 C1421 0.929 . S
H1478 C1422 0.930 . S
H1479 C1423 0.930 . S
H1480 C1426 0.930 . S
H1481 C1429 0.928 . S
H1482 C1434 0.929 . S
H1483 C1435 0.930 . S
H1484 C1442 0.929 . S
H1485 C1443 0.930 1_455 S
H1486 C1444 0.930 . S
H1487 C1445 0.930 . S
H1488 C1447 0.929 . S
H1489 C1448 0.930 . S
H1490 C1449 0.930 . S
H1491 C1450 0.930 . S
H1492 C1454 0.929 . S
H1493 C1456 0.921 1_455 S
H1494 C1462 0.929 . S
H1495 C1463 0.930 . S
Li1496 N1513 1.990 . S
Li1496 O1556 1.956 . S
Li1496 O1557 1.970 . S
Li1496 O1558 1.961 . S
Li1497 N1521 1.990 . S
Li1497 O1556 1.970 . S
Li1497 O1557 1.956 . S
Li1497 O1559 1.961 . S
Li1498 N1543 1.990 . S
Li1498 O1556 1.961 . S
Li1498 O1558 1.956 . S
Li1498 O1559 1.970 . S
Li1499 N1549 1.990 . S
Li1499 O1557 1.961 . S
Li1499 O1558 1.970 . S
Li1499 O1559 1.956 . S
C1500 C1502 1.348 . S
C1500 C1503 1.356 . S
C1500 O1556 1.325 . S
N1501 C1504 1.314 . S
N1501 C1505 1.279 . S
C1502 C1500 1.348 . S
C1502 C1504 1.353 . S
C1502 H1560 0.929 . S
C1503 C1500 1.356 . S
C1503 C1505 1.358 . S
C1503 H1561 0.930 . S
C1504 N1501 1.314 . S
C1504 C1502 1.353 . S
C1504 H1562 0.930 . S
C1505 N1501 1.279 . S
C1505 C1503 1.358 . S
C1505 H1563 0.930 . S
C1506 C1509 1.348 . S
C1506 C1510 1.356 . S
C1506 O1557 1.325 . S
C1507 N1508 1.279 . S
C1507 C1510 1.358 . S
C1507 H1564 0.930 . S
N1508 C1507 1.279 . S
N1508 C1511 1.314 . S
C1509 C1506 1.348 . S
C1509 C1511 1.353 . S
C1509 H1565 0.929 . S
C1510 C1506 1.356 . S
C1510 C1507 1.358 . S
C1510 H1566 0.930 . S
C1511 N1508 1.314 . S
C1511 C1509 1.353 . S
C1511 H1567 0.930 . S
C1512 N1513 1.314 . S
C1512 C1517 1.353 . S
C1512 H1518 0.930 . S
N1513 Li1496 1.990 . S
N1513 C1512 1.314 . S
N1513 C1515 1.279 . S
C1514 C1515 1.358 . S
C1514 C1516 1.356 . S
C1514 H1568 0.930 . S
C1515 N1513 1.279 . S
C1515 C1514 1.358 . S
C1515 H1519 0.930 . S
C1516 C1514 1.356 . S
C1516 C1517 1.348 . S
C1517 C1512 1.353 . S
C1517 C1516 1.348 . S
C1517 H1569 0.929 . S
H1518 C1512 0.930 . S
H1519 C1515 0.930 . S
C1520 N1521 1.314 . S
C1520 C1522 1.353 . S
C1520 H1526 0.930 . S
N1521 Li1497 1.990 . S
N1521 C1520 1.314 . S
N1521 C1524 1.279 . S
C1522 C1520 1.353 . S
C1522 C1525 1.348 . S
C1522 H1570 0.929 . S
C1523 C1524 1.358 . S
C1523 C1525 1.356 . S
C1523 H1571 0.930 . S
C1524 N1521 1.279 . S
C1524 C1523 1.358 . S
C1524 H1527 0.930 . S
C1525 C1522 1.348 . S
C1525 C1523 1.356 . S
H1526 C1520 0.930 . S
H1527 C1524 0.930 . S
C1528 C1530 1.348 . S
C1528 C1531 1.356 . S
C1528 O1558 1.325 . S
N1529 C1532 1.314 . S
N1529 C1533 1.279 . S
C1530 C1528 1.348 . S
C1530 C1532 1.353 . S
C1530 H1572 0.929 . S
C1531 C1528 1.356 . S
C1531 C1533 1.358 . S
C1531 H1573 0.930 . S
C1532 N1529 1.314 . S
C1532 C1530 1.353 . S
C1532 H1574 0.930 . S
C1533 N1529 1.279 . S
C1533 C1531 1.358 . S
C1533 H1575 0.930 . S
C1534 C1535 1.348 . S
C1534 C1536 1.356 . S
C1534 O1559 1.325 . S
C1535 C1534 1.348 . S
C1535 C1537 1.353 . S
C1535 H1576 0.929 . S
C1536 C1534 1.356 . S
C1536 C1538 1.358 . S
C1536 H1577 0.930 . S
C1537 C1535 1.353 . S
C1537 N1539 1.314 . S
C1537 H1578 0.930 . S
C1538 C1536 1.358 . S
C1538 N1539 1.279 . S
C1538 H1579 0.930 . S
N1539 C1537 1.314 . S
N1539 C1538 1.279 . S
C1540 C1542 1.353 . S
C1540 N1543 1.314 . S
C1540 H1546 0.930 . S
C1541 N1543 1.279 . S
C1541 C1544 1.358 . S
C1541 H1547 0.930 . S
C1542 C1540 1.353 . S
C1542 C1545 1.348 . S
C1542 H1580 0.929 . S
N1543 Li1498 1.990 . S
N1543 C1540 1.314 . S
N1543 C1541 1.279 . S
C1544 C1541 1.358 . S
C1544 C1545 1.356 . S
C1544 H1581 0.930 . S
C1545 C1542 1.348 . S
C1545 C1544 1.356 . S
H1546 C1540 0.930 . S
H1547 C1541 0.930 . S
C1548 N1549 1.314 . S
C1548 C1550 1.353 . S
C1548 H1554 0.930 . S
N1549 Li1499 1.990 . S
N1549 C1548 1.314 . S
N1549 C1552 1.279 . S
C1550 C1548 1.353 . S
C1550 C1553 1.348 . S
C1550 H1582 0.929 . S
C1551 C1552 1.358 . S
C1551 C1553 1.356 . S
C1551 H1583 0.930 . S
C1552 N1549 1.279 . S
C1552 C1551 1.358 . S
C1552 H1555 0.930 . S
C1553 C1550 1.348 . S
C1553 C1551 1.356 . S
H1554 C1548 0.930 . S
H1555 C1552 0.930 . S
O1556 Li1496 1.956 . S
O1556 Li1497 1.970 . S
O1556 Li1498 1.961 . S
O1556 C1500 1.325 . S
O1557 Li1496 1.970 . S
O1557 Li1497 1.956 . S
O1557 Li1499 1.961 . S
O1557 C1506 1.325 . S
O1558 Li1496 1.961 . S
O1558 Li1498 1.956 . S
O1558 Li1499 1.970 . S
O1558 C1528 1.325 . S
O1559 Li1497 1.961 . S
O1559 Li1498 1.970 . S
O1559 Li1499 1.956 . S
O1559 C1534 1.325 . S
H1560 C1502 0.929 . S
H1561 C1503 0.930 . S
H1562 C1504 0.930 . S
H1563 C1505 0.930 . S
H1564 C1507 0.930 . S
H1565 C1509 0.929 . S
H1566 C1510 0.930 . S
H1567 C1511 0.930 . S
H1568 C1514 0.930 . S
H1569 C1517 0.929 . S
H1570 C1522 0.929 . S
H1571 C1523 0.930 . S
H1572 C1530 0.929 . S
H1573 C1531 0.930 . S
H1574 C1532 0.930 . S
H1575 C1533 0.930 . S
H1576 C1535 0.929 . S
H1577 C1536 0.930 . S
H1578 C1537 0.930 . S
H1579 C1538 0.930 . S
H1580 C1542 0.929 . S
H1581 C1544 0.930 . S
H1582 C1550 0.929 . S
H1583 C1551 0.930 . S
Li1584 N1601 1.990 . S
Li1584 O1644 1.956 . S
Li1584 O1645 1.970 . S
Li1584 O1646 1.961 . S
Li1585 N1609 1.990 . S
Li1585 O1644 1.970 . S
Li1585 O1645 1.956 . S
Li1585 O1647 1.961 . S
Li1586 N1631 1.990 . S
Li1586 O1644 1.961 . S
Li1586 O1646 1.956 . S
Li1586 O1647 1.970 . S
Li1587 N1637 1.990 . S
Li1587 O1645 1.961 . S
Li1587 O1646 1.970 . S
Li1587 O1647 1.956 . S
C1588 C1590 1.348 . S
C1588 C1591 1.356 . S
C1588 O1644 1.325 . S
N1589 C1592 1.314 . S
N1589 C1593 1.279 . S
C1590 C1588 1.348 . S
C1590 C1592 1.353 . S
C1590 H1648 0.929 . S
C1591 C1588 1.356 . S
C1591 C1593 1.358 . S
C1591 H1649 0.930 . S
C1592 N1589 1.314 . S
C1592 C1590 1.353 . S
C1592 H1650 0.930 . S
C1593 N1589 1.279 . S
C1593 C1591 1.358 . S
C1593 H1651 0.930 . S
C1594 C1597 1.348 . S
C1594 C1598 1.356 . S
C1594 O1645 1.325 . S
C1595 N1596 1.279 . S
C1595 C1598 1.358 . S
C1595 H1652 0.930 . S
N1596 C1595 1.279 . S
N1596 C1599 1.314 . S
C1597 C1594 1.348 . S
C1597 C1599 1.353 . S
C1597 H1653 0.929 . S
C1598 C1594 1.356 . S
C1598 C1595 1.358 . S
C1598 H1654 0.930 . S
C1599 N1596 1.314 . S
C1599 C1597 1.353 . S
C1599 H1655 0.930 . S
C1600 N1601 1.314 . S
C1600 C1605 1.353 . S
C1600 H1606 0.930 . S
N1601 Li1584 1.990 . S
N1601 C1600 1.314 . S
N1601 C1603 1.279 . S
C1602 C1603 1.358 . S
C1602 C1604 1.356 . S
C1602 H1656 0.930 . S
C1603 N1601 1.279 . S
C1603 C1602 1.358 . S
C1603 H1607 0.930 . S
C1604 C1602 1.356 . S
C1604 C1605 1.348 . S
C1605 C1600 1.353 . S
C1605 C1604 1.348 . S
C1605 H1657 0.929 . S
H1606 C1600 0.930 . S
H1607 C1603 0.930 . S
C1608 N1609 1.314 . S
C1608 C1610 1.353 . S
C1608 H1614 0.930 . S
N1609 Li1585 1.990 . S
N1609 C1608 1.314 . S
N1609 C1612 1.279 . S
C1610 C1608 1.353 . S
C1610 C1613 1.348 . S
C1610 H1658 0.929 . S
C1611 C1612 1.358 . S
C1611 C1613 1.356 . S
C1611 H1659 0.930 . S
C1612 N1609 1.279 . S
C1612 C1611 1.358 . S
C1612 H1615 0.930 . S
C1613 C1610 1.348 . S
C1613 C1611 1.356 . S
H1614 C1608 0.930 . S
H1615 C1612 0.930 . S
C1616 C1618 1.348 . S
C1616 C1619 1.356 . S
C1616 O1646 1.325 . S
N1617 C1620 1.314 . S
N1617 C1621 1.279 . S
C1618 C1616 1.348 . S
C1618 C1620 1.353 . S
C1618 H1660 0.929 . S
C1619 C1616 1.356 . S
C1619 C1621 1.358 . S
C1619 H1661 0.930 . S
C1620 N1617 1.314 . S
C1620 C1618 1.353 . S
C1620 H1662 0.930 . S
C1621 N1617 1.279 . S
C1621 C1619 1.358 . S
C1621 H1663 0.930 . S
C1622 C1623 1.348 . S
C1622 C1624 1.356 . S
C1622 O1647 1.325 . S
C1623 C1622 1.348 . S
C1623 C1625 1.353 . S
C1623 H1664 0.929 . S
C1624 C1622 1.356 . S
C1624 C1626 1.358 . S
C1624 H1665 0.930 . S
C1625 C1623 1.353 . S
C1625 N1627 1.314 . S
C1625 H1666 0.930 . S
C1626 C1624 1.358 . S
C1626 N1627 1.279 . S
C1626 H1667 0.930 . S
N1627 C1625 1.314 . S
N1627 C1626 1.279 . S
C1628 C1630 1.353 . S
C1628 N1631 1.314 . S
C1628 H1634 0.930 . S
C1629 N1631 1.279 . S
C1629 C1632 1.358 . S
C1629 H1635 0.930 . S
C1630 C1628 1.353 . S
C1630 C1633 1.348 . S
C1630 H1668 0.929 . S
N1631 Li1586 1.990 . S
N1631 C1628 1.314 . S
N1631 C1629 1.279 . S
C1632 C1629 1.358 . S
C1632 C1633 1.356 . S
C1632 H1669 0.930 . S
C1633 C1630 1.348 . S
C1633 C1632 1.356 . S
H1634 C1628 0.930 . S
H1635 C1629 0.930 . S
C1636 N1637 1.314 . S
C1636 C1638 1.353 . S
C1636 H1642 0.930 . S
N1637 Li1587 1.990 . S
N1637 C1636 1.314 . S
N1637 C1640 1.279 . S
C1638 C1636 1.353 . S
C1638 C1641 1.348 . S
C1638 H1670 0.929 . S
C1639 C1640 1.358 . S
C1639 C1641 1.356 . S
C1639 H1671 0.930 . S
C1640 N1637 1.279 . S
C1640 C1639 1.358 . S
C1640 H1643 0.930 . S
C1641 C1638 1.348 . S
C1641 C1639 1.356 . S
H1642 C1636 0.930 . S
H1643 C1640 0.930 . S
O1644 Li1584 1.956 . S
O1644 Li1585 1.970 . S
O1644 Li1586 1.961 . S
O1644 C1588 1.325 . S
O1645 Li1584 1.970 . S
O1645 Li1585 1.956 . S
O1645 Li1587 1.961 . S
O1645 C1594 1.325 . S
O1646 Li1584 1.961 . S
O1646 Li1586 1.956 . S
O1646 Li1587 1.970 . S
O1646 C1616 1.325 . S
O1647 Li1585 1.961 . S
O1647 Li1586 1.970 . S
O1647 Li1587 1.956 . S
O1647 C1622 1.325 . S
H1648 C1590 0.929 . S
H1649 C1591 0.930 . S
H1650 C1592 0.930 . S
H1651 C1593 0.930 . S
H1652 C1595 0.930 . S
H1653 C1597 0.929 . S
H1654 C1598 0.930 . S
H1655 C1599 0.930 . S
H1656 C1602 0.930 . S
H1657 C1605 0.929 . S
H1658 C1610 0.929 . S
H1659 C1611 0.930 . S
H1660 C1618 0.929 . S
H1661 C1619 0.930 . S
H1662 C1620 0.930 . S
H1663 C1621 0.930 . S
H1664 C1623 0.929 . S
H1665 C1624 0.930 . S
H1666 C1625 0.930 . S
H1667 C1626 0.930 . S
H1668 C1630 0.929 . S
H1669 C1632 0.930 . S
H1670 C1638 0.929 . S
H1671 C1639 0.930 . S
Li1672 N1689 1.990 . S
Li1672 O1732 1.956 . S
Li1672 O1733 1.970 . S
Li1672 O1734 1.961 . S
Li1673 N1697 1.990 . S
Li1673 O1732 1.970 . S
Li1673 O1733 1.956 . S
Li1673 O1735 1.961 . S
Li1674 N1719 1.990 . S
Li1674 O1732 1.961 . S
Li1674 O1734 1.956 . S
Li1674 O1735 1.970 . S
Li1675 N1725 1.990 . S
Li1675 O1733 1.961 . S
Li1675 O1734 1.970 . S
Li1675 O1735 1.956 . S
C1676 C1678 1.348 . S
C1676 C1679 1.356 . S
C1676 O1732 1.325 . S
N1677 C1680 1.314 . S
N1677 C1681 1.279 . S
C1678 C1676 1.348 . S
C1678 C1680 1.353 . S
C1678 H1736 0.929 . S
C1679 C1676 1.356 . S
C1679 C1681 1.358 . S
C1679 H1737 0.930 . S
C1680 N1677 1.314 . S
C1680 C1678 1.353 . S
C1680 H1738 0.930 . S
C1681 N1677 1.279 . S
C1681 C1679 1.358 . S
C1681 H1739 0.930 . S
C1682 C1685 1.348 . S
C1682 C1686 1.356 . S
C1682 O1733 1.325 . S
C1683 N1684 1.279 . S
C1683 C1686 1.358 . S
C1683 H1740 0.930 . S
N1684 C1683 1.279 . S
N1684 C1687 1.314 . S
C1685 C1682 1.348 . S
C1685 C1687 1.353 . S
C1685 H1741 0.929 . S
C1686 C1682 1.356 . S
C1686 C1683 1.358 . S
C1686 H1742 0.930 . S
C1687 N1684 1.314 . S
C1687 C1685 1.353 . S
C1687 H1743 0.930 . S
C1688 N1689 1.314 . S
C1688 C1693 1.353 . S
C1688 H1694 0.930 . S
N1689 Li1672 1.990 . S
N1689 C1688 1.314 . S
N1689 C1691 1.279 . S
C1690 C1691 1.358 . S
C1690 C1692 1.356 . S
C1690 H1744 0.930 . S
C1691 N1689 1.279 . S
C1691 C1690 1.358 . S
C1691 H1695 0.930 . S
C1692 C1690 1.356 . S
C1692 C1693 1.348 . S
C1693 C1688 1.353 . S
C1693 C1692 1.348 . S
C1693 H1745 0.929 . S
H1694 C1688 0.930 . S
H1695 C1691 0.930 . S
C1696 N1697 1.314 . S
C1696 C1698 1.353 . S
C1696 H1702 0.930 . S
N1697 Li1673 1.990 . S
N1697 C1696 1.314 . S
N1697 C1700 1.279 . S
C1698 C1696 1.353 . S
C1698 C1701 1.348 . S
C1698 H1746 0.929 . S
C1699 C1700 1.358 . S
C1699 C1701 1.356 . S
C1699 H1747 0.930 . S
C1700 N1697 1.279 . S
C1700 C1699 1.358 . S
C1700 H1703 0.930 . S
C1701 C1698 1.348 . S
C1701 C1699 1.356 . S
H1702 C1696 0.930 . S
H1703 C1700 0.930 . S
C1704 C1706 1.348 1_545 S
C1704 C1707 1.356 . S
C1704 O1734 1.325 . S
N1705 C1708 1.314 . S
N1705 C1709 1.279 . S
C1706 C1704 1.348 1_565 S
C1706 C1708 1.353 . S
C1706 H1748 0.929 . S
C1707 C1704 1.356 . S
C1707 C1709 1.358 1_545 S
C1707 H1749 0.930 . S
C1708 N1705 1.314 . S
C1708 C1706 1.353 . S
C1708 H1750 0.930 . S
C1709 N1705 1.279 . S
C1709 C1707 1.358 1_565 S
C1709 H1751 0.930 . S
C1710 C1711 1.348 . S
C1710 C1712 1.356 . S
C1710 O1735 1.325 . S
C1711 C1710 1.348 . S
C1711 C1713 1.353 . S
C1711 H1752 0.929 . S
C1712 C1710 1.356 . S
C1712 C1714 1.358 . S
C1712 H1753 0.930 . S
C1713 C1711 1.353 . S
C1713 N1715 1.314 . S
C1713 H1754 0.930 . S
C1714 C1712 1.358 . S
C1714 N1715 1.279 . S
C1714 H1755 0.930 . S
N1715 C1713 1.314 . S
N1715 C1714 1.279 . S
C1716 C1718 1.353 . S
C1716 N1719 1.314 . S
C1716 H1722 0.930 . S
C1717 N1719 1.279 . S
C1717 C1720 1.358 . S
C1717 H1723 0.930 . S
C1718 C1716 1.353 . S
C1718 C1721 1.348 . S
C1718 H1756 0.929 . S
N1719 Li1674 1.990 . S
N1719 C1716 1.314 . S
N1719 C1717 1.279 . S
C1720 C1717 1.358 . S
C1720 C1721 1.356 . S
C1720 H1757 0.930 . S
C1721 C1718 1.348 . S
C1721 C1720 1.356 . S
H1722 C1716 0.930 . S
H1723 C1717 0.930 . S
C1724 N1725 1.314 . S
C1724 C1726 1.353 1_545 S
C1724 H1730 0.930 . S
N1725 Li1675 1.990 . S
N1725 C1724 1.314 . S
N1725 C1728 1.279 . S
C1726 C1724 1.353 1_565 S
C1726 C1729 1.348 . S
C1726 H1758 0.929 . S
C1727 C1728 1.358 1_565 S
C1727 C1729 1.356 . S
C1727 H1759 0.930 . S
C1728 N1725 1.279 . S
C1728 C1727 1.358 1_545 S
C1728 H1731 0.930 . S
C1729 C1726 1.348 . S
C1729 C1727 1.356 . S
H1730 C1724 0.930 . S
H1731 C1728 0.930 . S
O1732 Li1672 1.956 . S
O1732 Li1673 1.970 . S
O1732 Li1674 1.961 . S
O1732 C1676 1.325 . S
O1733 Li1672 1.970 . S
O1733 Li1673 1.956 . S
O1733 Li1675 1.961 . S
O1733 C1682 1.325 . S
O1734 Li1672 1.961 . S
O1734 Li1674 1.956 . S
O1734 Li1675 1.970 . S
O1734 C1704 1.325 . S
O1735 Li1673 1.961 . S
O1735 Li1674 1.970 . S
O1735 Li1675 1.956 . S
O1735 C1710 1.325 . S
H1736 C1678 0.929 . S
H1737 C1679 0.930 . S
H1738 C1680 0.930 . S
H1739 C1681 0.930 . S
H1740 C1683 0.930 . S
H1741 C1685 0.929 . S
H1742 C1686 0.930 . S
H1743 C1687 0.930 . S
H1744 C1690 0.930 . S
H1745 C1693 0.929 . S
H1746 C1698 0.929 . S
H1747 C1699 0.930 . S
H1748 C1706 0.929 . S
H1749 C1707 0.930 . S
H1750 C1708 0.930 . S
H1751 C1709 0.930 . S
H1752 C1711 0.929 . S
H1753 C1712 0.930 . S
H1754 C1713 0.930 . S
H1755 C1714 0.930 . S
H1756 C1718 0.929 . S
H1757 C1720 0.930 . S
H1758 C1726 0.929 . S
H1759 C1727 0.930 . S
Li1760 N1777 1.990 . S
Li1760 O1820 1.956 . S
Li1760 O1821 1.970 . S
Li1760 O1822 1.961 . S
Li1761 N1785 1.990 . S
Li1761 O1820 1.970 . S
Li1761 O1821 1.956 . S
Li1761 O1823 1.961 1_554 S
Li1762 N1807 1.990 . S
Li1762 O1820 1.961 1_556 S
Li1762 O1822 1.956 1_556 S
Li1762 O1823 1.970 . S
Li1763 N1813 1.990 1_554 S
Li1763 O1821 1.961 . S
Li1763 O1822 1.970 . S
Li1763 O1823 1.956 1_554 S
C1764 C1766 1.348 . S
C1764 C1767 1.356 . S
C1764 O1820 1.325 . S
N1765 C1768 1.314 . S
N1765 C1769 1.279 . S
C1766 C1764 1.348 . S
C1766 C1768 1.353 . S
C1766 H1824 0.929 . S
C1767 C1764 1.356 . S
C1767 C1769 1.358 . S
C1767 H1825 0.930 . S
C1768 N1765 1.314 . S
C1768 C1766 1.353 . S
C1768 H1826 0.930 . S
C1769 N1765 1.279 . S
C1769 C1767 1.358 . S
C1769 H1827 0.930 . S
C1770 C1773 1.348 . S
C1770 C1774 1.356 . S
C1770 O1821 1.325 . S
C1771 N1772 1.279 . S
C1771 C1774 1.358 . S
C1771 H1828 0.930 . S
N1772 C1771 1.279 . S
N1772 C1775 1.314 . S
C1773 C1770 1.348 . S
C1773 C1775 1.353 . S
C1773 H1829 0.929 . S
C1774 C1770 1.356 . S
C1774 C1771 1.358 . S
C1774 H1830 0.930 . S
C1775 N1772 1.314 . S
C1775 C1773 1.353 . S
C1775 H1831 0.930 . S
C1776 N1777 1.314 . S
C1776 C1781 1.353 . S
C1776 H1782 0.930 . S
N1777 Li1760 1.990 . S
N1777 C1776 1.314 . S
N1777 C1779 1.279 . S
C1778 C1779 1.358 . S
C1778 C1780 1.356 . S
C1778 H1832 0.930 . S
C1779 N1777 1.279 . S
C1779 C1778 1.358 . S
C1779 H1783 0.930 . S
C1780 C1778 1.356 . S
C1780 C1781 1.348 . S
C1781 C1776 1.353 . S
C1781 C1780 1.348 . S
C1781 H1833 0.929 . S
H1782 C1776 0.930 . S
H1783 C1779 0.930 . S
C1784 N1785 1.314 1_556 S
C1784 C1786 1.353 . S
C1784 H1790 0.930 . S
N1785 Li1761 1.990 . S
N1785 C1784 1.314 1_554 S
N1785 C1788 1.279 . S
C1786 C1784 1.353 . S
C1786 C1789 1.348 1_556 S
C1786 H1834 0.929 . S
C1787 C1788 1.358 . S
C1787 C1789 1.356 . S
C1787 H1835 0.930 . S
C1788 N1785 1.279 . S
C1788 C1787 1.358 . S
C1788 H1791 0.930 . S
C1789 C1786 1.348 1_554 S
C1789 C1787 1.356 . S
H1790 C1784 0.930 . S
H1791 C1788 0.930 . S
C1792 C1794 1.348 1_554 S
C1792 C1795 1.356 . S
C1792 O1822 1.325 . S
N1793 C1796 1.309 1_554 S
N1793 C1797 1.279 . S
C1794 C1792 1.348 1_556 S
C1794 C1796 1.353 . S
C1794 H1836 0.929 . S
C1795 C1792 1.356 . S
C1795 C1797 1.358 . S
C1795 H1837 0.930 . S
C1796 N1793 1.309 1_556 S
C1796 C1794 1.353 . S
C1796 H1838 0.937 . S
C1797 N1793 1.279 . S
C1797 C1795 1.358 . S
C1797 H1839 0.930 . S
C1798 C1799 1.348 . S
C1798 C1800 1.356 . S
C1798 O1823 1.325 . S
C1799 C1798 1.348 . S
C1799 C1801 1.353 . S
C1799 H1840 0.929 . S
C1800 C1798 1.356 . S
C1800 C1802 1.358 . S
C1800 H1841 0.930 . S
C1801 C1799 1.353 . S
C1801 N1803 1.314 . S
C1801 H1842 0.930 . S
C1802 C1800 1.358 . S
C1802 N1803 1.279 . S
C1802 H1843 0.930 . S
N1803 C1801 1.314 . S
N1803 C1802 1.279 . S
C1804 C1806 1.353 . S
C1804 N1807 1.314 . S
C1804 H1810 0.930 . S
C1805 N1807 1.279 . S
C1805 C1808 1.358 . S
C1805 H1811 0.930 . S
C1806 C1804 1.353 . S
C1806 C1809 1.348 . S
C1806 H1844 0.929 . S
N1807 Li1762 1.990 . S
N1807 C1804 1.314 . S
N1807 C1805 1.279 . S
C1808 C1805 1.358 . S
C1808 C1809 1.356 . S
C1808 H1845 0.930 . S
C1809 C1806 1.348 . S
C1809 C1808 1.356 . S
H1810 C1804 0.930 . S
H1811 C1805 0.930 . S
C1812 N1813 1.314 1_554 S
C1812 C1814 1.353 . S
C1812 H1818 0.930 . S
N1813 Li1763 1.990 1_556 S
N1813 C1812 1.314 1_556 S
N1813 C1816 1.279 . S
C1814 C1812 1.353 . S
C1814 C1817 1.348 1_554 S
C1814 H1846 0.929 . S
C1815 C1816 1.358 . S
C1815 C1817 1.356 . S
C1815 H1847 0.930 . S
C1816 N1813 1.279 . S
C1816 C1815 1.358 . S
C1816 H1819 0.930 . S
C1817 C1814 1.348 1_556 S
C1817 C1815 1.356 . S
H1818 C1812 0.930 . S
H1819 C1816 0.930 . S
O1820 Li1760 1.956 . S
O1820 Li1761 1.970 . S
O1820 Li1762 1.961 1_554 S
O1820 C1764 1.325 . S
O1821 Li1760 1.970 . S
O1821 Li1761 1.956 . S
O1821 Li1763 1.961 . S
O1821 C1770 1.325 . S
O1822 Li1760 1.961 . S
O1822 Li1762 1.956 1_554 S
O1822 Li1763 1.970 . S
O1822 C1792 1.325 . S
O1823 Li1761 1.961 1_556 S
O1823 Li1762 1.970 . S
O1823 Li1763 1.956 1_556 S
O1823 C1798 1.325 . S
H1824 C1766 0.929 . S
H1825 C1767 0.930 . S
H1826 C1768 0.930 . S
H1827 C1769 0.930 . S
H1828 C1771 0.930 . S
H1829 C1773 0.929 . S
H1830 C1774 0.930 . S
H1831 C1775 0.930 . S
H1832 C1778 0.930 . S
H1833 C1781 0.929 . S
H1834 C1786 0.929 . S
H1835 C1787 0.930 . S
H1836 C1794 0.929 . S
H1837 C1795 0.930 . S
H1838 C1796 0.937 . S
H1839 C1797 0.930 . S
H1840 C1799 0.929 . S
H1841 C1800 0.930 . S
H1842 C1801 0.930 . S
H1843 C1802 0.930 . S
H1844 C1806 0.929 . S
H1845 C1808 0.930 . S
H1846 C1814 0.929 . S
H1847 C1815 0.930 . S
Li1848 N1865 1.990 . S
Li1848 O1908 1.956 . S
Li1848 O1909 1.970 . S
Li1848 O1910 1.961 . S
Li1849 N1873 1.990 . S
Li1849 O1908 1.970 . S
Li1849 O1909 1.956 . S
Li1849 O1911 1.961 . S
Li1850 N1895 1.990 . S
Li1850 O1908 1.961 . S
Li1850 O1910 1.956 . S
Li1850 O1911 1.970 . S
Li1851 N1901 1.990 . S
Li1851 O1909 1.961 . S
Li1851 O1910 1.970 . S
Li1851 O1911 1.956 . S
C1852 C1854 1.348 . S
C1852 C1855 1.356 . S
C1852 O1908 1.325 . S
N1853 C1856 1.314 . S
N1853 C1857 1.279 . S
C1854 C1852 1.348 . S
C1854 C1856 1.353 . S
C1854 H1912 0.929 . S
C1855 C1852 1.356 . S
C1855 C1857 1.358 . S
C1855 H1913 0.930 . S
C1856 N1853 1.314 . S
C1856 C1854 1.353 . S
C1856 H1914 0.930 . S
C1857 N1853 1.279 . S
C1857 C1855 1.358 . S
C1857 H1915 0.930 . S
C1858 C1861 1.348 . S
C1858 C1862 1.356 . S
C1858 O1909 1.325 . S
C1859 N1860 1.279 . S
C1859 C1862 1.358 . S
C1859 H1916 0.894 1_655 S
N1860 C1859 1.279 . S
N1860 C1863 1.314 . S
C1861 C1858 1.348 . S
C1861 C1863 1.353 . S
C1861 H1917 0.929 . S
C1862 C1858 1.356 . S
C1862 C1859 1.358 . S
C1862 H1918 0.930 . S
C1863 N1860 1.314 . S
C1863 C1861 1.353 . S
C1863 H1919 0.930 . S
C1864 N1865 1.314 . S
C1864 C1869 1.353 . S
C1864 H1870 0.930 . S
N1865 Li1848 1.990 . S
N1865 C1864 1.314 . S
N1865 C1867 1.279 . S
C1866 C1867 1.358 . S
C1866 C1868 1.356 . S
C1866 H1920 0.930 . S
C1867 N1865 1.279 . S
C1867 C1866 1.358 . S
C1867 H1871 0.930 . S
C1868 C1866 1.356 . S
C1868 C1869 1.348 . S
C1869 C1864 1.353 . S
C1869 C1868 1.348 . S
C1869 H1921 0.929 . S
H1870 C1864 0.930 . S
H1871 C1867 0.930 . S
C1872 N1873 1.314 . S
C1872 C1874 1.353 . S
C1872 H1878 0.930 . S
N1873 Li1849 1.990 . S
N1873 C1872 1.314 . S
N1873 C1876 1.279 . S
C1874 C1872 1.353 . S
C1874 C1877 1.348 . S
C1874 H1922 0.929 . S
C1875 C1876 1.358 . S
C1875 C1877 1.356 . S
C1875 H1923 0.930 . S
C1876 N1873 1.279 . S
C1876 C1875 1.358 . S
C1876 H1879 0.930 . S
C1877 C1874 1.348 . S
C1877 C1875 1.356 . S
H1878 C1872 0.930 . S
H1879 C1876 0.930 . S
C1880 C1882 1.348 . S
C1880 C1883 1.356 . S
C1880 O1910 1.325 . S
N1881 C1884 1.314 . S
N1881 C1885 1.279 . S
C1882 C1880 1.348 . S
C1882 C1884 1.353 . S
C1882 H1924 0.929 . S
C1883 C1880 1.356 . S
C1883 C1885 1.358 . S
C1883 H1925 0.930 . S
C1884 N1881 1.314 . S
C1884 C1882 1.353 . S
C1884 H1926 0.930 . S
C1885 N1881 1.279 . S
C1885 C1883 1.358 . S
C1885 H1927 0.930 . S
C1886 C1887 1.348 . S
C1886 C1888 1.356 . S
C1886 O1911 1.325 . S
C1887 C1886 1.348 . S
C1887 C1889 1.353 . S
C1887 H1928 0.929 . S
C1888 C1886 1.356 . S
C1888 C1890 1.358 . S
C1888 H1929 0.930 . S
C1889 C1887 1.353 . S
C1889 N1891 1.314 . S
C1889 H1930 0.930 . S
C1890 C1888 1.358 . S
C1890 N1891 1.279 . S
C1890 H1931 0.930 1_655 S
N1891 C1889 1.314 . S
N1891 C1890 1.279 . S
C1892 C1894 1.353 . S
C1892 N1895 1.314 . S
C1892 H1898 0.930 . S
C1893 N1895 1.279 . S
C1893 C1896 1.358 . S
C1893 H1899 0.930 . S
C1894 C1892 1.353 . S
C1894 C1897 1.348 . S
C1894 H1932 0.929 . S
N1895 Li1850 1.990 . S
N1895 C1892 1.314 . S
N1895 C1893 1.279 . S
C1896 C1893 1.358 . S
C1896 C1897 1.356 . S
C1896 H1933 0.930 . S
C1897 C1894 1.348 . S
C1897 C1896 1.356 . S
H1898 C1892 0.930 . S
H1899 C1893 0.930 . S
C1900 N1901 1.314 . S
C1900 C1902 1.353 . S
C1900 H1906 0.930 . S
N1901 Li1851 1.990 . S
N1901 C1900 1.314 . S
N1901 C1904 1.279 . S
C1902 C1900 1.353 . S
C1902 C1905 1.348 . S
C1902 H1934 0.929 . S
C1903 C1904 1.358 . S
C1903 C1905 1.356 . S
C1903 H1935 0.930 . S
C1904 N1901 1.279 . S
C1904 C1903 1.358 . S
C1904 H1907 0.930 . S
C1905 C1902 1.348 . S
C1905 C1903 1.356 . S
H1906 C1900 0.930 . S
H1907 C1904 0.930 . S
O1908 Li1848 1.956 . S
O1908 Li1849 1.970 . S
O1908 Li1850 1.961 . S
O1908 C1852 1.325 . S
O1909 Li1848 1.970 . S
O1909 Li1849 1.956 . S
O1909 Li1851 1.961 . S
O1909 C1858 1.325 . S
O1910 Li1848 1.961 . S
O1910 Li1850 1.956 . S
O1910 Li1851 1.970 . S
O1910 C1880 1.325 . S
O1911 Li1849 1.961 . S
O1911 Li1850 1.970 . S
O1911 Li1851 1.956 . S
O1911 C1886 1.325 . S
H1912 C1854 0.929 . S
H1913 C1855 0.930 . S
H1914 C1856 0.930 . S
H1915 C1857 0.930 . S
H1916 C1859 0.894 1_455 S
H1917 C1861 0.929 . S
H1918 C1862 0.930 . S
H1919 C1863 0.930 . S
H1920 C1866 0.930 . S
H1921 C1869 0.929 . S
H1922 C1874 0.929 . S
H1923 C1875 0.930 . S
H1924 C1882 0.929 . S
H1925 C1883 0.930 . S
H1926 C1884 0.930 . S
H1927 C1885 0.930 . S
H1928 C1887 0.929 . S
H1929 C1888 0.930 . S
H1930 C1889 0.930 . S
H1931 C1890 0.930 1_455 S
H1932 C1894 0.929 . S
H1933 C1896 0.930 . S
H1934 C1902 0.929 . S
H1935 C1903 0.930 . S
Li1936 N1953 1.990 . S
Li1936 O1996 1.956 . S
Li1936 O1997 1.970 . S
Li1936 O1998 1.961 . S
Li1937 N1961 1.990 . S
Li1937 O1996 1.970 . S
Li1937 O1997 1.956 . S
Li1937 O1999 1.961 . S
Li1938 N1983 1.990 . S
Li1938 O1996 1.961 . S
Li1938 O1998 1.956 . S
Li1938 O1999 1.970 . S
Li1939 N1989 1.990 . S
Li1939 O1997 1.961 . S
Li1939 O1998 1.970 . S
Li1939 O1999 1.956 . S
C1940 C1942 1.348 . S
C1940 C1943 1.356 . S
C1940 O1996 1.325 . S
N1941 C1944 1.314 . S
N1941 C1945 1.279 . S
C1942 C1940 1.348 . S
C1942 C1944 1.353 . S
C1942 H2000 0.929 . S
C1943 C1940 1.356 . S
C1943 C1945 1.358 . S
C1943 H2001 0.930 . S
C1944 N1941 1.314 . S
C1944 C1942 1.353 . S
C1944 H2002 0.930 . S
C1945 N1941 1.279 . S
C1945 C1943 1.358 . S
C1945 H2003 0.930 . S
C1946 C1949 1.348 . S
C1946 C1950 1.356 . S
C1946 O1997 1.325 . S
C1947 N1948 1.279 . S
C1947 C1950 1.358 . S
C1947 H2004 0.930 . S
N1948 C1947 1.279 . S
N1948 C1951 1.314 . S
C1949 C1946 1.348 . S
C1949 C1951 1.353 . S
C1949 H2005 0.929 . S
C1950 C1946 1.356 . S
C1950 C1947 1.358 . S
C1950 H2006 0.930 . S
C1951 N1948 1.314 . S
C1951 C1949 1.353 . S
C1951 H2007 0.930 . S
C1952 N1953 1.314 . S
C1952 C1957 1.353 . S
C1952 H1958 0.930 . S
N1953 Li1936 1.990 . S
N1953 C1952 1.314 . S
N1953 C1955 1.279 . S
C1954 C1955 1.358 . S
C1954 C1956 1.356 . S
C1954 H2008 0.930 . S
C1955 N1953 1.279 . S
C1955 C1954 1.358 . S
C1955 H1959 0.930 . S
C1956 C1954 1.356 . S
C1956 C1957 1.348 . S
C1957 C1952 1.353 . S
C1957 C1956 1.348 . S
C1957 H2009 0.929 . S
H1958 C1952 0.930 . S
H1959 C1955 0.930 . S
C1960 N1961 1.314 . S
C1960 C1962 1.353 . S
C1960 H1966 0.930 . S
N1961 Li1937 1.990 . S
N1961 C1960 1.314 . S
N1961 C1964 1.279 . S
C1962 C1960 1.353 . S
C1962 C1965 1.348 . S
C1962 H2010 0.929 . S
C1963 C1964 1.358 . S
C1963 C1965 1.356 . S
C1963 H2011 0.930 . S
C1964 N1961 1.279 . S
C1964 C1963 1.358 . S
C1964 H1967 0.930 . S
C1965 C1962 1.348 . S
C1965 C1963 1.356 . S
H1966 C1960 0.930 . S
H1967 C1964 0.930 . S
C1968 C1970 1.348 . S
C1968 C1971 1.356 . S
C1968 O1998 1.325 . S
N1969 C1972 1.314 . S
N1969 C1973 1.279 . S
C1970 C1968 1.348 . S
C1970 C1972 1.353 . S
C1970 H2012 0.929 . S
C1971 C1968 1.356 . S
C1971 C1973 1.358 . S
C1971 H2013 0.930 . S
C1972 N1969 1.314 . S
C1972 C1970 1.353 . S
C1972 H2014 0.930 . S
C1973 N1969 1.279 . S
C1973 C1971 1.358 . S
C1973 H2015 0.930 . S
C1974 C1975 1.348 . S
C1974 C1976 1.356 . S
C1974 O1999 1.325 . S
C1975 C1974 1.348 . S
C1975 C1977 1.353 . S
C1975 H2016 0.929 . S
C1976 C1974 1.356 . S
C1976 C1978 1.358 . S
C1976 H2017 0.930 . S
C1977 C1975 1.353 . S
C1977 N1979 1.314 . S
C1977 H2018 0.930 . S
C1978 C1976 1.358 . S
C1978 N1979 1.279 . S
C1978 H2019 0.930 . S
N1979 C1977 1.314 . S
N1979 C1978 1.279 . S
C1980 C1982 1.353 . S
C1980 N1983 1.314 . S
C1980 H1986 0.930 . S
C1981 N1983 1.279 . S
C1981 C1984 1.358 . S
C1981 H1987 0.930 . S
C1982 C1980 1.353 . S
C1982 C1985 1.348 . S
C1982 H2020 0.929 . S
N1983 Li1938 1.990 . S
N1983 C1980 1.314 . S
N1983 C1981 1.279 . S
C1984 C1981 1.358 . S
C1984 C1985 1.356 . S
C1984 H2021 0.930 . S
C1985 C1982 1.348 . S
C1985 C1984 1.356 . S
H1986 C1980 0.930 . S
H1987 C1981 0.930 . S
C1988 N1989 1.314 . S
C1988 C1990 1.353 . S
C1988 H1994 0.930 . S
N1989 Li1939 1.990 . S
N1989 C1988 1.314 . S
N1989 C1992 1.279 . S
C1990 C1988 1.353 . S
C1990 C1993 1.348 . S
C1990 H2022 0.929 . S
C1991 C1992 1.358 . S
C1991 C1993 1.356 . S
C1991 H2023 0.930 . S
C1992 N1989 1.279 . S
C1992 C1991 1.358 . S
C1992 H1995 0.930 . S
C1993 C1990 1.348 . S
C1993 C1991 1.356 . S
H1994 C1988 0.930 . S
H1995 C1992 0.930 . S
O1996 Li1936 1.956 . S
O1996 Li1937 1.970 . S
O1996 Li1938 1.961 . S
O1996 C1940 1.325 . S
O1997 Li1936 1.970 . S
O1997 Li1937 1.956 . S
O1997 Li1939 1.961 . S
O1997 C1946 1.325 . S
O1998 Li1936 1.961 . S
O1998 Li1938 1.956 . S
O1998 Li1939 1.970 . S
O1998 C1968 1.325 . S
O1999 Li1937 1.961 . S
O1999 Li1938 1.970 . S
O1999 Li1939 1.956 . S
O1999 C1974 1.325 . S
H2000 C1942 0.929 . S
H2001 C1943 0.930 . S
H2002 C1944 0.930 . S
H2003 C1945 0.930 . S
H2004 C1947 0.930 . S
H2005 C1949 0.929 . S
H2006 C1950 0.930 . S
H2007 C1951 0.930 . S
H2008 C1954 0.930 . S
H2009 C1957 0.929 . S
H2010 C1962 0.929 . S
H2011 C1963 0.930 . S
H2012 C1970 0.929 . S
H2013 C1971 0.930 . S
H2014 C1972 0.930 . S
H2015 C1973 0.930 . S
H2016 C1975 0.929 . S
H2017 C1976 0.930 . S
H2018 C1977 0.930 . S
H2019 C1978 0.930 . S
H2020 C1982 0.929 . S
H2021 C1984 0.930 . S
H2022 C1990 0.929 . S
H2023 C1991 0.930 . S
Li2024 N2041 1.990 . S
Li2024 O2084 1.956 . S
Li2024 O2085 1.970 . S
Li2024 O2086 1.961 . S
Li2025 N2049 1.990 . S
Li2025 O2084 1.970 . S
Li2025 O2085 1.956 . S
Li2025 O2087 1.961 . S
Li2026 N2071 1.990 . S
Li2026 O2084 1.961 . S
Li2026 O2086 1.956 . S
Li2026 O2087 1.970 . S
Li2027 N2077 1.990 . S
Li2027 O2085 1.961 . S
Li2027 O2086 1.970 . S
Li2027 O2087 1.956 . S
C2028 C2030 1.348 . S
C2028 C2031 1.356 . S
C2028 O2084 1.325 . S
N2029 C2032 1.314 . S
N2029 C2033 1.279 . S
C2030 C2028 1.348 . S
C2030 C2032 1.353 . S
C2030 H2088 0.929 . S
C2031 C2028 1.356 . S
C2031 C2033 1.358 . S
C2031 H2089 0.930 . S
C2032 N2029 1.314 . S
C2032 C2030 1.353 . S
C2032 H2090 0.930 . S
C2033 N2029 1.279 . S
C2033 C2031 1.358 . S
C2033 H2091 0.930 . S
C2034 C2037 1.348 . S
C2034 C2038 1.356 . S
C2034 O2085 1.325 . S
C2035 N2036 1.279 . S
C2035 C2038 1.358 . S
C2035 H2092 0.930 . S
N2036 C2035 1.279 . S
N2036 C2039 1.314 . S
C2037 C2034 1.348 . S
C2037 C2039 1.353 . S
C2037 H2093 0.929 . S
C2038 C2034 1.356 . S
C2038 C2035 1.358 . S
C2038 H2094 0.930 . S
C2039 N2036 1.314 . S
C2039 C2037 1.353 . S
C2039 H2095 0.930 . S
C2040 N2041 1.314 . S
C2040 C2045 1.353 . S
C2040 H2046 0.930 . S
N2041 Li2024 1.990 . S
N2041 C2040 1.314 . S
N2041 C2043 1.279 . S
C2042 C2043 1.358 . S
C2042 C2044 1.356 . S
C2042 H2096 0.930 . S
C2043 N2041 1.279 . S
C2043 C2042 1.358 . S
C2043 H2047 0.930 . S
C2044 C2042 1.356 . S
C2044 C2045 1.348 . S
C2045 C2040 1.353 . S
C2045 C2044 1.348 . S
C2045 H2097 0.929 . S
H2046 C2040 0.930 . S
H2047 C2043 0.930 . S
C2048 N2049 1.314 . S
C2048 C2050 1.353 . S
C2048 H2054 0.930 . S
N2049 Li2025 1.990 . S
N2049 C2048 1.314 . S
N2049 C2052 1.279 . S
C2050 C2048 1.353 . S
C2050 C2053 1.348 . S
C2050 H2098 0.929 . S
C2051 C2052 1.358 . S
C2051 C2053 1.356 . S
C2051 H2099 0.930 . S
C2052 N2049 1.279 . S
C2052 C2051 1.358 . S
C2052 H2055 0.930 . S
C2053 C2050 1.348 . S
C2053 C2051 1.356 . S
H2054 C2048 0.930 . S
H2055 C2052 0.930 . S
C2056 C2058 1.348 . S
C2056 C2059 1.356 . S
C2056 O2086 1.325 . S
N2057 C2060 1.314 . S
N2057 C2061 1.279 . S
C2058 C2056 1.348 . S
C2058 C2060 1.353 . S
C2058 H2100 0.929 . S
C2059 C2056 1.356 . S
C2059 C2061 1.358 . S
C2059 H2101 0.930 . S
C2060 N2057 1.314 . S
C2060 C2058 1.353 . S
C2060 H2102 0.930 . S
C2061 N2057 1.279 . S
C2061 C2059 1.358 . S
C2061 H2103 0.930 . S
C2062 C2063 1.348 . S
C2062 C2064 1.356 . S
C2062 O2087 1.325 . S
C2063 C2062 1.348 . S
C2063 C2065 1.353 . S
C2063 H2104 0.929 . S
C2064 C2062 1.356 . S
C2064 C2066 1.358 . S
C2064 H2105 0.930 . S
C2065 C2063 1.353 . S
C2065 N2067 1.314 . S
C2065 H2106 0.930 . S
C2066 C2064 1.358 . S
C2066 N2067 1.279 . S
C2066 H2107 0.930 . S
N2067 C2065 1.314 . S
N2067 C2066 1.279 . S
C2068 C2070 1.353 . S
C2068 N2071 1.314 . S
C2068 H2074 0.930 . S
C2069 N2071 1.279 . S
C2069 C2072 1.358 . S
C2069 H2075 0.930 . S
C2070 C2068 1.353 . S
C2070 C2073 1.348 . S
C2070 H2108 0.929 . S
N2071 Li2026 1.990 . S
N2071 C2068 1.314 . S
N2071 C2069 1.279 . S
C2072 C2069 1.358 . S
C2072 C2073 1.356 . S
C2072 H2109 0.930 . S
C2073 C2070 1.348 . S
C2073 C2072 1.356 . S
H2074 C2068 0.930 . S
H2075 C2069 0.930 . S
C2076 N2077 1.314 . S
C2076 C2078 1.353 . S
C2076 H2082 0.930 . S
N2077 Li2027 1.990 . S
N2077 C2076 1.314 . S
N2077 C2080 1.279 . S
C2078 C2076 1.353 . S
C2078 C2081 1.348 . S
C2078 H2110 0.929 . S
C2079 C2080 1.358 . S
C2079 C2081 1.356 . S
C2079 H2111 0.930 . S
C2080 N2077 1.279 . S
C2080 C2079 1.358 . S
C2080 H2083 0.930 . S
C2081 C2078 1.348 . S
C2081 C2079 1.356 . S
H2082 C2076 0.930 . S
H2083 C2080 0.930 . S
O2084 Li2024 1.956 . S
O2084 Li2025 1.970 . S
O2084 Li2026 1.961 . S
O2084 C2028 1.325 . S
O2085 Li2024 1.970 . S
O2085 Li2025 1.956 . S
O2085 Li2027 1.961 . S
O2085 C2034 1.325 . S
O2086 Li2024 1.961 . S
O2086 Li2026 1.956 . S
O2086 Li2027 1.970 . S
O2086 C2056 1.325 . S
O2087 Li2025 1.961 . S
O2087 Li2026 1.970 . S
O2087 Li2027 1.956 . S
O2087 C2062 1.325 . S
H2088 C2030 0.929 . S
H2089 C2031 0.930 . S
H2090 C2032 0.930 . S
H2091 C2033 0.930 . S
H2092 C2035 0.930 . S
H2093 C2037 0.929 . S
H2094 C2038 0.930 . S
H2095 C2039 0.930 . S
H2096 C2042 0.930 . S
H2097 C2045 0.929 . S
H2098 C2050 0.929 . S
H2099 C2051 0.930 . S
H2100 C2058 0.929 . S
H2101 C2059 0.930 . S
H2102 C2060 0.930 . S
H2103 C2061 0.930 . S
H2104 C2063 0.929 . S
H2105 C2064 0.930 . S
H2106 C2065 0.930 . S
H2107 C2066 0.930 . S
H2108 C2070 0.929 . S
H2109 C2072 0.930 . S
H2110 C2078 0.929 . S
H2111 C2079 0.930 . S
La2112 C2114 2.928 1_455 S
La2112 O2132 2.521 1_455 S
La2112 O2133 2.628 1_456 S
La2112 O2134 2.554 . S
La2112 O2135 2.757 . S
La2112 O2136 2.470 . S
La2112 O2141 2.482 1_556 S
La2112 O2143 2.503 1_546 S
La2113 C2123 2.928 . S
La2113 O2135 2.482 1_554 S
La2113 O2137 2.503 . S
La2113 O2138 2.521 . S
La2113 O2139 2.628 . S
La2113 O2140 2.554 . S
La2113 O2141 2.757 . S
La2113 O2142 2.470 . S
C2114 La2112 2.928 1_655 S
C2114 C2115 1.503 . S
C2114 O2132 1.261 . S
C2114 O2133 1.243 1_556 S
C2115 C2114 1.503 . S
C2115 C2116 1.394 . S
C2115 C2120 1.385 . S
C2116 C2115 1.394 . S
C2116 C2117 1.380 . S
C2116 H2144 0.930 . S
C2117 C2116 1.380 . S
C2117 C2118 1.376 . S
C2117 H2145 0.930 . S
C2118 C2117 1.376 . S
C2118 C2119 1.370 . S
C2119 C2118 1.370 . S
C2119 C2120 1.400 . S
C2119 H2146 0.929 1_556 S
C2120 C2115 1.385 . S
C2120 C2119 1.400 . S
C2120 H2147 0.914 1_556 S
C2121 O2134 1.240 . S
C2121 O2135 1.289 . S
C2122 O2136 1.258 1_554 S
C2122 O2137 1.256 . S
C2123 La2113 2.928 . S
C2123 C2124 1.503 . S
C2123 O2138 1.261 . S
C2123 O2139 1.243 . S
C2124 C2123 1.503 . S
C2124 C2125 1.394 . S
C2124 C2129 1.373 . S
C2125 C2124 1.394 . S
C2125 C2126 1.380 . S
C2125 H2148 0.930 . S
C2126 C2125 1.380 . S
C2126 C2127 1.376 . S
C2126 H2149 0.930 . S
C2127 C2126 1.376 . S
C2127 C2128 1.370 1_545 S
C2128 C2127 1.370 1_565 S
C2128 C2129 1.396 1_565 S
C2128 H2150 0.929 . S
C2129 C2124 1.373 . S
C2129 C2128 1.396 1_545 S
C2129 H2151 0.929 1_545 S
C2130 O2140 1.240 . S
C2130 O2141 1.289 . S
C2131 O2142 1.258 1_565 S
C2131 O2143 1.256 . S
O2132 La2112 2.521 1_655 S
O2132 C2114 1.261 . S
O2133 La2112 2.628 1_654 S
O2133 C2114 1.243 1_554 S
O2134 La2112 2.554 . S
O2134 C2121 1.240 . S
O2135 La2112 2.757 . S
O2135 La2113 2.482 1_556 S
O2135 C2121 1.289 . S
O2136 La2112 2.470 . S
O2136 C2122 1.258 1_556 S
O2137 La2113 2.503 . S
O2137 C2122 1.256 . S
O2138 La2113 2.521 . S
O2138 C2123 1.261 . S
O2139 La2113 2.628 . S
O2139 C2123 1.243 . S
O2140 La2113 2.554 . S
O2140 C2130 1.240 . S
O2141 La2112 2.482 1_554 S
O2141 La2113 2.757 . S
O2141 C2130 1.289 . S
O2142 La2113 2.470 . S
O2142 C2131 1.258 1_545 S
O2143 La2112 2.503 1_564 S
O2143 C2131 1.256 . S
H2144 C2116 0.930 . S
H2145 C2117 0.930 . S
H2146 C2119 0.929 1_554 S
H2147 C2120 0.914 1_554 S
H2148 C2125 0.930 . S
H2149 C2126 0.930 . S
H2150 C2128 0.929 . S
H2151 C2129 0.929 1_565 S
La2152 C2154 2.928 . S
La2152 O2172 2.521 . S
La2152 O2173 2.628 . S
La2152 O2174 2.554 . S
La2152 O2175 2.757 . S
La2152 O2176 2.470 . S
La2152 O2181 2.482 . S
La2152 O2183 2.503 . S
La2153 C2163 2.928 . S
La2153 O2175 2.482 . S
La2153 O2177 2.503 . S
La2153 O2178 2.521 . S
La2153 O2179 2.628 . S
La2153 O2180 2.554 . S
La2153 O2181 2.757 . S
La2153 O2182 2.470 . S
C2154 La2152 2.928 . S
C2154 C2155 1.503 . S
C2154 O2172 1.261 . S
C2154 O2173 1.243 . S
C2155 C2154 1.503 . S
C2155 C2156 1.394 . S
C2155 C2160 1.373 . S
C2156 C2155 1.394 . S
C2156 C2157 1.380 . S
C2156 H2184 0.930 . S
C2157 C2156 1.380 . S
C2157 C2158 1.376 . S
C2157 H2185 0.930 . S
C2158 C2157 1.376 . S
C2158 C2159 1.370 . S
C2159 C2158 1.370 . S
C2159 C2160 1.396 . S
C2159 H2186 0.929 . S
C2160 C2155 1.373 . S
C2160 C2159 1.396 . S
C2160 H2187 0.929 . S
C2161 O2174 1.240 . S
C2161 O2175 1.289 . S
C2162 O2176 1.258 . S
C2162 O2177 1.256 . S
C2163 La2153 2.928 . S
C2163 C2164 1.503 . S
C2163 O2178 1.261 . S
C2163 O2179 1.243 . S
C2164 C2163 1.503 . S
C2164 C2165 1.394 . S
C2164 C2169 1.373 . S
C2165 C2164 1.394 . S
C2165 C2166 1.380 . S
C2165 H2188 0.930 . S
C2166 C2165 1.380 . S
C2166 C2167 1.376 . S
C2166 H2189 0.930 . S
C2167 C2166 1.376 . S
C2167 C2168 1.370 . S
C2168 C2167 1.370 . S
C2168 C2169 1.396 . S
C2168 H2190 0.929 . S
C2169 C2164 1.373 . S
C2169 C2168 1.396 . S
C2169 H2191 0.929 . S
C2170 O2180 1.240 . S
C2170 O2181 1.289 . S
C2171 O2182 1.258 . S
C2171 O2183 1.256 . S
O2172 La2152 2.521 . S
O2172 C2154 1.261 . S
O2173 La2152 2.628 . S
O2173 C2154 1.243 . S
O2174 La2152 2.554 . S
O2174 C2161 1.240 . S
O2175 La2152 2.757 . S
O2175 La2153 2.482 . S
O2175 C2161 1.289 . S
O2176 La2152 2.470 . S
O2176 C2162 1.258 . S
O2177 La2153 2.503 . S
O2177 C2162 1.256 . S
O2178 La2153 2.521 . S
O2178 C2163 1.261 . S
O2179 La2153 2.628 . S
O2179 C2163 1.243 . S
O2180 La2153 2.554 . S
O2180 C2170 1.240 . S
O2181 La2152 2.482 . S
O2181 La2153 2.757 . S
O2181 C2170 1.289 . S
O2182 La2153 2.470 . S
O2182 C2171 1.258 . S
O2183 La2152 2.503 . S
O2183 C2171 1.256 . S
H2184 C2156 0.930 . S
H2185 C2157 0.930 . S
H2186 C2159 0.929 . S
H2187 C2160 0.929 . S
H2188 C2165 0.930 . S
H2189 C2166 0.930 . S
H2190 C2168 0.929 . S
H2191 C2169 0.929 . S
La2192 C2194 2.928 . S
La2192 O2212 2.521 . S
La2192 O2213 2.628 . S
La2192 O2214 2.554 . S
La2192 O2215 2.757 . S
La2192 O2216 2.470 1_545 S
La2192 O2221 2.482 . S
La2192 O2223 2.503 . S
La2193 C2203 2.928 . S
La2193 O2215 2.482 . S
La2193 O2217 2.503 1_545 S
La2193 O2218 2.521 . S
La2193 O2219 2.628 . S
La2193 O2220 2.554 . S
La2193 O2221 2.757 . S
La2193 O2222 2.470 . S
C2194 La2192 2.928 . S
C2194 C2195 1.503 1_545 S
C2194 O2212 1.261 . S
C2194 O2213 1.243 . S
C2195 C2194 1.503 1_565 S
C2195 C2196 1.394 . S
C2195 C2200 1.373 . S
C2196 C2195 1.394 . S
C2196 C2197 1.380 . S
C2196 H2224 0.930 1_565 S
C2197 C2196 1.380 . S
C2197 C2198 1.376 . S
C2197 H2225 0.930 . S
C2198 C2197 1.376 . S
C2198 C2199 1.370 . S
C2199 C2198 1.370 . S
C2199 C2200 1.396 . S
C2199 H2226 0.929 . S
C2200 C2195 1.373 . S
C2200 C2199 1.396 . S
C2200 H2227 0.929 . S
C2201 O2214 1.240 . S
C2201 O2215 1.289 . S
C2202 O2216 1.258 . S
C2202 O2217 1.256 . S
C2203 La2193 2.928 . S
C2203 C2204 1.503 . S
C2203 O2218 1.261 . S
C2203 O2219 1.243 . S
C2204 C2203 1.503 . S
C2204 C2205 1.394 . S
C2204 C2209 1.373 . S
C2205 C2204 1.394 . S
C2205 C2206 1.380 . S
C2205 H2228 0.930 . S
C2206 C2205 1.380 . S
C2206 C2207 1.376 . S
C2206 H2229 0.930 . S
C2207 C2206 1.376 . S
C2207 C2208 1.370 . S
C2208 C2207 1.370 . S
C2208 C2209 1.396 . S
C2208 H2230 0.929 . S
C2209 C2204 1.373 . S
C2209 C2208 1.396 . S
C2209 H2231 0.929 . S
C2210 O2220 1.240 . S
C2210 O2221 1.289 . S
C2211 O2222 1.258 . S
C2211 O2223 1.256 . S
O2212 La2192 2.521 . S
O2212 C2194 1.261 . S
O2213 La2192 2.628 . S
O2213 C2194 1.243 . S
O2214 La2192 2.554 . S
O2214 C2201 1.240 . S
O2215 La2192 2.757 . S
O2215 La2193 2.482 . S
O2215 C2201 1.289 . S
O2216 La2192 2.470 1_565 S
O2216 C2202 1.258 . S
O2217 La2193 2.503 1_565 S
O2217 C2202 1.256 . S
O2218 La2193 2.521 . S
O2218 C2203 1.261 . S
O2219 La2193 2.628 . S
O2219 C2203 1.243 . S
O2220 La2193 2.554 . S
O2220 C2210 1.240 . S
O2221 La2192 2.482 . S
O2221 La2193 2.757 . S
O2221 C2210 1.289 . S
O2222 La2193 2.470 . S
O2222 C2211 1.258 . S
O2223 La2192 2.503 . S
O2223 C2211 1.256 . S
H2224 C2196 0.930 1_545 S
H2225 C2197 0.930 . S
H2226 C2199 0.929 . S
H2227 C2200 0.929 . S
H2228 C2205 0.930 . S
H2229 C2206 0.930 . S
H2230 C2208 0.929 . S
H2231 C2209 0.929 . S
La2232 C2234 2.928 . S
La2232 O2252 2.521 . S
La2232 O2253 2.628 . S
La2232 O2254 2.554 . S
La2232 O2255 2.757 . S
La2232 O2256 2.470 . S
La2232 O2261 2.482 . S
La2232 O2263 2.503 . S
La2233 C2243 2.928 . S
La2233 O2255 2.482 . S
La2233 O2257 2.503 . S
La2233 O2258 2.521 . S
La2233 O2259 2.628 . S
La2233 O2260 2.554 . S
La2233 O2261 2.757 . S
La2233 O2262 2.470 . S
C2234 La2232 2.928 . S
C2234 C2235 1.503 . S
C2234 O2252 1.261 . S
C2234 O2253 1.243 . S
C2235 C2234 1.503 . S
C2235 C2236 1.394 . S
C2235 C2240 1.373 . S
C2236 C2235 1.394 . S
C2236 C2237 1.380 . S
C2236 H2264 0.930 . S
C2237 C2236 1.380 . S
C2237 C2238 1.376 . S
C2237 H2265 0.930 . S
C2238 C2237 1.376 . S
C2238 C2239 1.370 . S
C2239 C2238 1.370 . S
C2239 C2240 1.396 . S
C2239 H2266 0.929 . S
C2240 C2235 1.373 . S
C2240 C2239 1.396 . S
C2240 H2267 0.929 . S
C2241 O2254 1.240 . S
C2241 O2255 1.289 . S
C2242 O2256 1.258 . S
C2242 O2257 1.256 . S
C2243 La2233 2.928 . S
C2243 C2244 1.503 . S
C2243 O2258 1.261 . S
C2243 O2259 1.243 . S
C2244 C2243 1.503 . S
C2244 C2245 1.394 . S
C2244 C2249 1.373 . S
C2245 C2244 1.394 . S
C2245 C2246 1.380 . S
C2245 H2268 0.930 . S
C2246 C2245 1.380 . S
C2246 C2247 1.376 . S
C2246 H2269 0.930 . S
C2247 C2246 1.376 . S
C2247 C2248 1.370 . S
C2248 C2247 1.370 . S
C2248 C2249 1.396 . S
C2248 H2270 0.929 . S
C2249 C2244 1.373 . S
C2249 C2248 1.396 . S
C2249 H2271 0.929 . S
C2250 O2260 1.240 . S
C2250 O2261 1.289 . S
C2251 O2262 1.258 . S
C2251 O2263 1.256 . S
O2252 La2232 2.521 . S
O2252 C2234 1.261 . S
O2253 La2232 2.628 . S
O2253 C2234 1.243 . S
O2254 La2232 2.554 . S
O2254 C2241 1.240 . S
O2255 La2232 2.757 . S
O2255 La2233 2.482 . S
O2255 C2241 1.289 . S
O2256 La2232 2.470 . S
O2256 C2242 1.258 . S
O2257 La2233 2.503 . S
O2257 C2242 1.256 . S
O2258 La2233 2.521 . S
O2258 C2243 1.261 . S
O2259 La2233 2.628 . S
O2259 C2243 1.243 . S
O2260 La2233 2.554 . S
O2260 C2250 1.240 . S
O2261 La2232 2.482 . S
O2261 La2233 2.757 . S
O2261 C2250 1.289 . S
O2262 La2233 2.470 . S
O2262 C2251 1.258 . S
O2263 La2232 2.503 . S
O2263 C2251 1.256 . S
H2264 C2236 0.930 . S
H2265 C2237 0.930 . S
H2266 C2239 0.929 . S
H2267 C2240 0.929 . S
H2268 C2245 0.930 . S
H2269 C2246 0.930 . S
H2270 C2248 0.929 . S
H2271 C2249 0.929 . S
La2272 C2274 2.928 . S
La2272 O2292 2.521 . S
La2272 O2293 2.628 . S
La2272 O2294 2.554 . S
La2272 O2295 2.757 . S
La2272 O2296 2.470 . S
La2272 O2301 2.482 . S
La2272 O2303 2.503 . S
La2273 C2283 2.928 1_545 S
La2273 O2295 2.482 . S
La2273 O2297 2.503 . S
La2273 O2298 2.521 1_545 S
La2273 O2299 2.628 1_545 S
La2273 O2300 2.554 . S
La2273 O2301 2.757 . S
La2273 O2302 2.470 . S
C2274 La2272 2.928 . S
C2274 C2275 1.503 . S
C2274 O2292 1.261 . S
C2274 O2293 1.243 . S
C2275 C2274 1.503 . S
C2275 C2276 1.394 . S
C2275 C2280 1.373 . S
C2276 C2275 1.394 . S
C2276 C2277 1.380 . S
C2276 H2304 0.930 . S
C2277 C2276 1.380 . S
C2277 C2278 1.376 . S
C2277 H2305 0.930 . S
C2278 C2277 1.376 . S
C2278 C2279 1.370 . S
C2279 C2278 1.370 . S
C2279 C2280 1.396 . S
C2279 H2306 0.929 . S
C2280 C2275 1.373 . S
C2280 C2279 1.396 . S
C2280 H2307 0.929 . S
C2281 O2294 1.240 . S
C2281 O2295 1.289 . S
C2282 O2296 1.258 . S
C2282 O2297 1.256 . S
C2283 La2273 2.928 1_565 S
C2283 C2284 1.503 . S
C2283 O2298 1.261 . S
C2283 O2299 1.243 . S
C2284 C2283 1.503 . S
C2284 C2285 1.394 . S
C2284 C2289 1.373 . S
C2285 C2284 1.394 . S
C2285 C2286 1.380 . S
C2285 H2308 0.930 . S
C2286 C2285 1.380 . S
C2286 C2287 1.376 . S
C2286 H2309 0.930 . S
C2287 C2286 1.376 . S
C2287 C2288 1.370 . S
C2288 C2287 1.370 . S
C2288 C2289 1.396 . S
C2288 H2310 0.929 . S
C2289 C2284 1.373 . S
C2289 C2288 1.396 . S
C2289 H2311 0.929 . S
C2290 O2300 1.240 . S
C2290 O2301 1.289 . S
C2291 O2302 1.258 . S
C2291 O2303 1.256 . S
O2292 La2272 2.521 . S
O2292 C2274 1.261 . S
O2293 La2272 2.628 . S
O2293 C2274 1.243 . S
O2294 La2272 2.554 . S
O2294 C2281 1.240 . S
O2295 La2272 2.757 . S
O2295 La2273 2.482 . S
O2295 C2281 1.289 . S
O2296 La2272 2.470 . S
O2296 C2282 1.258 . S
O2297 La2273 2.503 . S
O2297 C2282 1.256 . S
O2298 La2273 2.521 1_565 S
O2298 C2283 1.261 . S
O2299 La2273 2.628 1_565 S
O2299 C2283 1.243 . S
O2300 La2273 2.554 . S
O2300 C2290 1.240 . S
O2301 La2272 2.482 . S
O2301 La2273 2.757 . S
O2301 C2290 1.289 . S
O2302 La2273 2.470 . S
O2302 C2291 1.258 . S
O2303 La2272 2.503 . S
O2303 C2291 1.256 . S
H2304 C2276 0.930 . S
H2305 C2277 0.930 . S
H2306 C2279 0.929 . S
H2307 C2280 0.929 . S
H2308 C2285 0.930 . S
H2309 C2286 0.930 . S
H2310 C2288 0.929 . S
H2311 C2289 0.929 . S
La2312 C2314 2.928 . S
La2312 O2332 2.521 . S
La2312 O2333 2.628 . S
La2312 O2334 2.554 . S
La2312 O2335 2.757 . S
La2312 O2336 2.470 . S
La2312 O2341 2.482 . S
La2312 O2343 2.503 . S
La2313 C2323 2.928 . S
La2313 O2335 2.482 . S
La2313 O2337 2.503 . S
La2313 O2338 2.521 . S
La2313 O2339 2.628 . S
La2313 O2340 2.554 . S
La2313 O2341 2.757 . S
La2313 O2342 2.470 . S
C2314 La2312 2.928 . S
C2314 C2315 1.503 . S
C2314 O2332 1.261 . S
C2314 O2333 1.243 . S
C2315 C2314 1.503 . S
C2315 C2316 1.394 . S
C2315 C2320 1.373 . S
C2316 C2315 1.394 . S
C2316 C2317 1.380 . S
C2316 H2344 0.930 . S
C2317 C2316 1.380 . S
C2317 C2318 1.376 . S
C2317 H2345 0.930 . S
C2318 C2317 1.376 . S
C2318 C2319 1.370 . S
C2319 C2318 1.370 . S
C2319 C2320 1.396 . S
C2319 H2346 0.929 . S
C2320 C2315 1.373 . S
C2320 C2319 1.396 . S
C2320 H2347 0.929 . S
C2321 O2334 1.240 . S
C2321 O2335 1.289 . S
C2322 O2336 1.258 . S
C2322 O2337 1.256 . S
C2323 La2313 2.928 . S
C2323 C2324 1.503 . S
C2323 O2338 1.261 . S
C2323 O2339 1.243 . S
C2324 C2323 1.503 . S
C2324 C2325 1.394 . S
C2324 C2329 1.373 . S
C2325 C2324 1.394 . S
C2325 C2326 1.380 . S
C2325 H2348 0.930 . S
C2326 C2325 1.380 . S
C2326 C2327 1.376 . S
C2326 H2349 0.930 . S
C2327 C2326 1.376 . S
C2327 C2328 1.370 . S
C2328 C2327 1.370 . S
C2328 C2329 1.396 . S
C2328 H2350 0.929 . S
C2329 C2324 1.373 . S
C2329 C2328 1.396 . S
C2329 H2351 0.929 . S
C2330 O2340 1.240 . S
C2330 O2341 1.289 . S
C2331 O2342 1.258 . S
C2331 O2343 1.256 . S
O2332 La2312 2.521 . S
O2332 C2314 1.261 . S
O2333 La2312 2.628 . S
O2333 C2314 1.243 . S
O2334 La2312 2.554 . S
O2334 C2321 1.240 . S
O2335 La2312 2.757 . S
O2335 La2313 2.482 . S
O2335 C2321 1.289 . S
O2336 La2312 2.470 . S
O2336 C2322 1.258 . S
O2337 La2313 2.503 . S
O2337 C2322 1.256 . S
O2338 La2313 2.521 . S
O2338 C2323 1.261 . S
O2339 La2313 2.628 . S
O2339 C2323 1.243 . S
O2340 La2313 2.554 . S
O2340 C2330 1.240 . S
O2341 La2312 2.482 . S
O2341 La2313 2.757 . S
O2341 C2330 1.289 . S
O2342 La2313 2.470 . S
O2342 C2331 1.258 . S
O2343 La2312 2.503 . S
O2343 C2331 1.256 . S
H2344 C2316 0.930 . S
H2345 C2317 0.930 . S
H2346 C2319 0.929 . S
H2347 C2320 0.929 . S
H2348 C2325 0.930 . S
H2349 C2326 0.930 . S
H2350 C2328 0.929 . S
H2351 C2329 0.929 . S
La2352 C2354 2.928 . S
La2352 O2372 2.524 1_545 S
La2352 O2373 2.628 . S
La2352 O2374 2.554 1_545 S
La2352 O2375 2.757 1_554 S
La2352 O2376 2.470 . S
La2352 O2381 2.482 . S
La2352 O2383 2.503 . S
La2353 C2363 2.928 . S
La2353 O2375 2.482 . S
La2353 O2377 2.503 . S
La2353 O2378 2.521 . S
La2353 O2379 2.628 . S
La2353 O2380 2.554 1_556 S
La2353 O2381 2.757 1_556 S
La2353 O2382 2.455 1_556 S
C2354 La2352 2.928 . S
C2354 C2355 1.503 . S
C2354 O2372 1.264 1_545 S
C2354 O2373 1.243 . S
C2355 C2354 1.503 . S
C2355 C2356 1.394 1_545 S
C2355 C2360 1.373 . S
C2356 C2355 1.394 1_565 S
C2356 C2357 1.380 . S
C2356 H2384 0.930 . S
C2357 C2356 1.380 . S
C2357 C2358 1.376 . S
C2357 H2385 0.930 . S
C2358 C2357 1.376 . S
C2358 C2359 1.370 1_565 S
C2359 C2358 1.370 1_545 S
C2359 C2360 1.396 . S
C2359 H2386 0.929 . S
C2360 C2355 1.373 . S
C2360 C2359 1.396 . S
C2360 H2387 0.929 . S
C2361 O2374 1.223 1_556 S
C2361 O2375 1.295 1_565 S
C2362 O2376 1.258 . S
C2362 O2377 1.256 1_554 S
C2363 La2353 2.928 . S
C2363 C2364 1.503 . S
C2363 O2378 1.261 . S
C2363 O2379 1.243 . S
C2364 C2363 1.503 . S
C2364 C2365 1.394 . S
C2364 C2369 1.373 . S
C2365 C2364 1.394 . S
C2365 C2366 1.380 . S
C2365 H2388 0.930 . S
C2366 C2365 1.380 . S
C2366 C2367 1.376 . S
C2366 H2389 0.930 . S
C2367 C2366 1.376 . S
C2367 C2368 1.370 . S
C2368 C2367 1.370 . S
C2368 C2369 1.396 . S
C2368 H2390 0.929 . S
C2369 C2364 1.373 . S
C2369 C2368 1.396 . S
C2369 H2391 0.929 . S
C2370 O2380 1.240 . S
C2370 O2381 1.289 . S
C2371 O2382 1.286 . S
C2371 O2383 1.256 . S
O2372 La2352 2.524 1_565 S
O2372 C2354 1.264 1_565 S
O2373 La2352 2.628 . S
O2373 C2354 1.243 . S
O2374 La2352 2.554 1_565 S
O2374 C2361 1.223 1_554 S
O2375 La2352 2.757 1_556 S
O2375 La2353 2.482 . S
O2375 C2361 1.295 1_545 S
O2376 La2352 2.470 . S
O2376 C2362 1.258 . S
O2377 La2353 2.503 . S
O2377 C2362 1.256 1_556 S
O2378 La2353 2.521 . S
O2378 C2363 1.261 . S
O2379 La2353 2.628 . S
O2379 C2363 1.243 . S
O2380 La2353 2.554 1_554 S
O2380 C2370 1.240 . S
O2381 La2352 2.482 . S
O2381 La2353 2.757 1_554 S
O2381 C2370 1.289 . S
O2382 La2353 2.455 1_554 S
O2382 C2371 1.286 . S
O2383 La2352 2.503 . S
O2383 C2371 1.256 . S
H2384 C2356 0.930 . S
H2385 C2357 0.930 . S
H2386 C2359 0.929 . S
H2387 C2360 0.929 . S
H2388 C2365 0.930 . S
H2389 C2366 0.930 . S
H2390 C2368 0.929 . S
H2391 C2369 0.929 . S
La2392 C2394 2.928 . S
La2392 O2412 2.521 . S
La2392 O2413 2.628 . S
La2392 O2414 2.554 . S
La2392 O2415 2.757 . S
La2392 O2416 2.470 . S
La2392 O2421 2.482 . S
La2392 O2423 2.503 . S
La2393 C2403 2.928 . S
La2393 O2415 2.482 . S
La2393 O2417 2.503 . S
La2393 O2418 2.521 . S
La2393 O2419 2.628 . S
La2393 O2420 2.554 . S
La2393 O2421 2.757 . S
La2393 O2422 2.470 . S
C2394 La2392 2.928 . S
C2394 C2395 1.503 . S
C2394 O2412 1.261 . S
C2394 O2413 1.243 . S
C2395 C2394 1.503 . S
C2395 C2396 1.394 . S
C2395 C2400 1.373 . S
C2396 C2395 1.394 . S
C2396 C2397 1.380 . S
C2396 H2424 0.930 . S
C2397 C2396 1.380 . S
C2397 C2398 1.376 . S
C2397 H2425 0.930 . S
C2398 C2397 1.376 . S
C2398 C2399 1.370 . S
C2399 C2398 1.370 . S
C2399 C2400 1.396 . S
C2399 H2426 0.929 . S
C2400 C2395 1.373 . S
C2400 C2399 1.396 . S
C2400 H2427 0.929 . S
C2401 O2414 1.240 . S
C2401 O2415 1.289 . S
C2402 O2416 1.258 . S
C2402 O2417 1.256 . S
C2403 La2393 2.928 . S
C2403 C2404 1.503 . S
C2403 O2418 1.261 . S
C2403 O2419 1.243 . S
C2404 C2403 1.503 . S
C2404 C2405 1.394 . S
C2404 C2409 1.373 . S
C2405 C2404 1.394 . S
C2405 C2406 1.380 . S
C2405 H2428 0.930 . S
C2406 C2405 1.380 . S
C2406 C2407 1.376 . S
C2406 H2429 0.930 . S
C2407 C2406 1.376 . S
C2407 C2408 1.370 . S
C2408 C2407 1.370 . S
C2408 C2409 1.396 . S
C2408 H2430 0.929 . S
C2409 C2404 1.373 . S
C2409 C2408 1.396 . S
C2409 H2431 0.929 . S
C2410 O2420 1.240 . S
C2410 O2421 1.289 . S
C2411 O2422 1.258 . S
C2411 O2423 1.256 . S
O2412 La2392 2.521 . S
O2412 C2394 1.261 . S
O2413 La2392 2.628 . S
O2413 C2394 1.243 . S
O2414 La2392 2.554 . S
O2414 C2401 1.240 . S
O2415 La2392 2.757 . S
O2415 La2393 2.482 . S
O2415 C2401 1.289 . S
O2416 La2392 2.470 . S
O2416 C2402 1.258 . S
O2417 La2393 2.503 . S
O2417 C2402 1.256 . S
O2418 La2393 2.521 . S
O2418 C2403 1.261 . S
O2419 La2393 2.628 . S
O2419 C2403 1.243 . S
O2420 La2393 2.554 . S
O2420 C2410 1.240 . S
O2421 La2392 2.482 . S
O2421 La2393 2.757 . S
O2421 C2410 1.289 . S
O2422 La2393 2.470 . S
O2422 C2411 1.258 . S
O2423 La2392 2.503 . S
O2423 C2411 1.256 . S
H2424 C2396 0.930 . S
H2425 C2397 0.930 . S
H2426 C2399 0.929 . S
H2427 C2400 0.929 . S
H2428 C2405 0.930 . S
H2429 C2406 0.930 . S
H2430 C2408 0.929 . S
H2431 C2409 0.929 . S
La2432 C2434 2.936 . S
La2432 O2452 2.521 . S
La2432 O2453 2.628 1_554 S
La2432 O2454 2.554 . S
La2432 O2455 2.757 . S
La2432 O2456 2.470 1_554 S
La2432 O2461 2.482 . S
La2432 O2463 2.503 . S
La2433 C2443 2.944 . S
La2433 O2455 2.493 . S
La2433 O2457 2.480 1_554 S
La2433 O2458 2.530 . S
La2433 O2459 2.648 . S
La2433 O2460 2.557 . S
La2433 O2461 2.754 . S
La2433 O2462 2.494 . S
C2434 La2432 2.936 . S
C2434 C2435 1.496 1_554 S
C2434 O2452 1.270 . S
C2434 O2453 1.241 1_554 S
C2435 C2434 1.496 1_556 S
C2435 C2436 1.394 . S
C2435 C2440 1.373 . S
C2436 C2435 1.394 . S
C2436 C2437 1.380 . S
C2436 H2464 0.930 1_556 S
C2437 C2436 1.380 . S
C2437 C2438 1.376 . S
C2437 H2465 0.930 . S
C2438 C2437 1.376 . S
C2438 C2439 1.370 . S
C2439 C2438 1.370 . S
C2439 C2440 1.396 . S
C2439 H2466 0.929 . S
C2440 C2435 1.373 . S
C2440 C2439 1.396 . S
C2440 H2467 0.929 . S
C2441 O2454 1.240 . S
C2441 O2455 1.289 . S
C2442 O2456 1.258 . S
C2442 O2457 1.256 . S
C2443 La2433 2.944 . S
C2443 C2444 1.503 . S
C2443 O2458 1.261 . S
C2443 O2459 1.243 . S
C2444 C2443 1.503 . S
C2444 C2445 1.394 . S
C2444 C2449 1.373 . S
C2445 C2444 1.394 . S
C2445 C2446 1.380 . S
C2445 H2468 0.930 . S
C2446 C2445 1.380 . S
C2446 C2447 1.376 . S
C2446 H2469 0.930 . S
C2447 C2446 1.376 . S
C2447 C2448 1.370 . S
C2448 C2447 1.370 . S
C2448 C2449 1.396 . S
C2448 H2470 0.929 . S
C2449 C2444 1.373 . S
C2449 C2448 1.396 . S
C2449 H2471 0.929 . S
C2450 O2460 1.240 . S
C2450 O2461 1.289 . S
C2451 O2462 1.258 . S
C2451 O2463 1.256 . S
O2452 La2432 2.521 . S
O2452 C2434 1.270 . S
O2453 La2432 2.628 1_556 S
O2453 C2434 1.241 1_556 S
O2454 La2432 2.554 . S
O2454 C2441 1.240 . S
O2455 La2432 2.757 . S
O2455 La2433 2.493 . S
O2455 C2441 1.289 . S
O2456 La2432 2.470 1_556 S
O2456 C2442 1.258 . S
O2457 La2433 2.480 1_556 S
O2457 C2442 1.256 . S
O2458 La2433 2.530 . S
O2458 C2443 1.261 . S
O2459 La2433 2.648 . S
O2459 C2443 1.243 . S
O2460 La2433 2.557 . S
O2460 C2450 1.240 . S
O2461 La2432 2.482 . S
O2461 La2433 2.754 . S
O2461 C2450 1.289 . S
O2462 La2433 2.494 . S
O2462 C2451 1.258 . S
O2463 La2432 2.503 . S
O2463 C2451 1.256 . S
H2464 C2436 0.930 1_554 S
H2465 C2437 0.930 . S
H2466 C2439 0.929 . S
H2467 C2440 0.929 . S
H2468 C2445 0.930 . S
H2469 C2446 0.930 . S
H2470 C2448 0.929 . S
H2471 C2449 0.929 . S
La2472 C2474 2.928 . S
La2472 O2492 2.521 . S
La2472 O2493 2.628 . S
La2472 O2494 2.554 . S
La2472 O2495 2.757 . S
La2472 O2496 2.470 . S
La2472 O2501 2.482 . S
La2472 O2503 2.503 . S
La2473 C2483 2.928 . S
La2473 O2495 2.482 . S
La2473 O2497 2.503 . S
La2473 O2498 2.521 . S
La2473 O2499 2.628 . S
La2473 O2500 2.554 . S
La2473 O2501 2.757 . S
La2473 O2502 2.470 . S
C2474 La2472 2.928 . S
C2474 C2475 1.503 . S
C2474 O2492 1.261 . S
C2474 O2493 1.243 . S
C2475 C2474 1.503 . S
C2475 C2476 1.394 . S
C2475 C2480 1.373 . S
C2476 C2475 1.394 . S
C2476 C2477 1.380 . S
C2476 H2504 0.930 . S
C2477 C2476 1.380 . S
C2477 C2478 1.376 . S
C2477 H2505 0.930 . S
C2478 C2477 1.376 . S
C2478 C2479 1.370 . S
C2479 C2478 1.370 . S
C2479 C2480 1.396 . S
C2479 H2506 0.929 . S
C2480 C2475 1.373 . S
C2480 C2479 1.396 . S
C2480 H2507 0.929 . S
C2481 O2494 1.240 . S
C2481 O2495 1.289 . S
C2482 O2496 1.258 . S
C2482 O2497 1.256 . S
C2483 La2473 2.928 . S
C2483 C2484 1.503 . S
C2483 O2498 1.261 . S
C2483 O2499 1.243 . S
C2484 C2483 1.503 . S
C2484 C2485 1.394 . S
C2484 C2489 1.373 . S
C2485 C2484 1.394 . S
C2485 C2486 1.380 . S
C2485 H2508 0.930 . S
C2486 C2485 1.380 . S
C2486 C2487 1.376 . S
C2486 H2509 0.930 . S
C2487 C2486 1.376 . S
C2487 C2488 1.370 . S
C2488 C2487 1.370 . S
C2488 C2489 1.396 . S
C2488 H2510 0.929 . S
C2489 C2484 1.373 . S
C2489 C2488 1.396 . S
C2489 H2511 0.929 . S
C2490 O2500 1.240 . S
C2490 O2501 1.289 . S
C2491 O2502 1.258 . S
C2491 O2503 1.256 . S
O2492 La2472 2.521 . S
O2492 C2474 1.261 . S
O2493 La2472 2.628 . S
O2493 C2474 1.243 . S
O2494 La2472 2.554 . S
O2494 C2481 1.240 . S
O2495 La2472 2.757 . S
O2495 La2473 2.482 . S
O2495 C2481 1.289 . S
O2496 La2472 2.470 . S
O2496 C2482 1.258 . S
O2497 La2473 2.503 . S
O2497 C2482 1.256 . S
O2498 La2473 2.521 . S
O2498 C2483 1.261 . S
O2499 La2473 2.628 . S
O2499 C2483 1.243 . S
O2500 La2473 2.554 . S
O2500 C2490 1.240 . S
O2501 La2472 2.482 . S
O2501 La2473 2.757 . S
O2501 C2490 1.289 . S
O2502 La2473 2.470 . S
O2502 C2491 1.258 . S
O2503 La2472 2.503 . S
O2503 C2491 1.256 . S
H2504 C2476 0.930 . S
H2505 C2477 0.930 . S
H2506 C2479 0.929 . S
H2507 C2480 0.929 . S
H2508 C2485 0.930 . S
H2509 C2486 0.930 . S
H2510 C2488 0.929 . S
H2511 C2489 0.929 . S
La2512 C2514 2.928 . S
La2512 O2532 2.521 . S
La2512 O2533 2.628 . S
La2512 O2534 2.554 . S
La2512 O2535 2.757 . S
La2512 O2536 2.470 . S
La2512 O2541 2.482 . S
La2512 O2543 2.503 . S
La2513 C2523 2.928 . S
La2513 O2535 2.482 . S
La2513 O2537 2.503 . S
La2513 O2538 2.521 . S
La2513 O2539 2.628 . S
La2513 O2540 2.554 . S
La2513 O2541 2.757 . S
La2513 O2542 2.470 . S
C2514 La2512 2.928 . S
C2514 C2515 1.503 . S
C2514 O2532 1.261 . S
C2514 O2533 1.243 . S
C2515 C2514 1.503 . S
C2515 C2516 1.394 . S
C2515 C2520 1.373 . S
C2516 C2515 1.394 . S
C2516 C2517 1.380 . S
C2516 H2544 0.930 . S
C2517 C2516 1.380 . S
C2517 C2518 1.376 1_455 S
C2517 H2545 0.930 . S
C2518 C2517 1.376 1_655 S
C2518 C2519 1.370 . S
C2519 C2518 1.370 . S
C2519 C2520 1.396 1_655 S
C2519 H2546 0.929 . S
C2520 C2515 1.373 . S
C2520 C2519 1.396 1_455 S
C2520 H2547 0.918 1_455 S
C2521 O2534 1.240 . S
C2521 O2535 1.289 . S
C2522 O2536 1.258 . S
C2522 O2537 1.256 . S
C2523 La2513 2.928 . S
C2523 C2524 1.503 . S
C2523 O2538 1.261 . S
C2523 O2539 1.243 . S
C2524 C2523 1.503 . S
C2524 C2525 1.394 . S
C2524 C2529 1.373 . S
C2525 C2524 1.394 . S
C2525 C2526 1.380 . S
C2525 H2548 0.930 . S
C2526 C2525 1.380 . S
C2526 C2527 1.376 . S
C2526 H2549 0.930 . S
C2527 C2526 1.376 . S
C2527 C2528 1.370 . S
C2528 C2527 1.370 . S
C2528 C2529 1.396 . S
C2528 H2550 0.929 . S
C2529 C2524 1.373 . S
C2529 C2528 1.396 . S
C2529 H2551 0.929 . S
C2530 O2540 1.240 . S
C2530 O2541 1.289 . S
C2531 O2542 1.258 . S
C2531 O2543 1.256 . S
O2532 La2512 2.521 . S
O2532 C2514 1.261 . S
O2533 La2512 2.628 . S
O2533 C2514 1.243 . S
O2534 La2512 2.554 . S
O2534 C2521 1.240 . S
O2535 La2512 2.757 . S
O2535 La2513 2.482 . S
O2535 C2521 1.289 . S
O2536 La2512 2.470 . S
O2536 C2522 1.258 . S
O2537 La2513 2.503 . S
O2537 C2522 1.256 . S
O2538 La2513 2.521 . S
O2538 C2523 1.261 . S
O2539 La2513 2.628 . S
O2539 C2523 1.243 . S
O2540 La2513 2.554 . S
O2540 C2530 1.240 . S
O2541 La2512 2.482 . S
O2541 La2513 2.757 . S
O2541 C2530 1.289 . S
O2542 La2513 2.470 . S
O2542 C2531 1.258 . S
O2543 La2512 2.503 . S
O2543 C2531 1.256 . S
H2544 C2516 0.930 . S
H2545 C2517 0.930 . S
H2546 C2519 0.929 . S
H2547 C2520 0.918 1_655 S
H2548 C2525 0.930 . S
H2549 C2526 0.930 . S
H2550 C2528 0.929 . S
H2551 C2529 0.929 . S
La2552 C2554 2.928 . S
La2552 O2572 2.521 . S
La2552 O2573 2.628 . S
La2552 O2574 2.554 . S
La2552 O2575 2.757 . S
La2552 O2576 2.470 . S
La2552 O2581 2.482 . S
La2552 O2583 2.503 . S
La2553 C2563 2.928 . S
La2553 O2575 2.482 . S
La2553 O2577 2.503 . S
La2553 O2578 2.521 . S
La2553 O2579 2.628 . S
La2553 O2580 2.554 . S
La2553 O2581 2.757 . S
La2553 O2582 2.470 . S
C2554 La2552 2.928 . S
C2554 C2555 1.503 . S
C2554 O2572 1.261 . S
C2554 O2573 1.243 . S
C2555 C2554 1.503 . S
C2555 C2556 1.394 . S
C2555 C2560 1.373 . S
C2556 C2555 1.394 . S
C2556 C2557 1.380 . S
C2556 H2584 0.930 . S
C2557 C2556 1.380 . S
C2557 C2558 1.376 . S
C2557 H2585 0.930 . S
C2558 C2557 1.376 . S
C2558 C2559 1.370 . S
C2559 C2558 1.370 . S
C2559 C2560 1.396 . S
C2559 H2586 0.929 . S
C2560 C2555 1.373 . S
C2560 C2559 1.396 . S
C2560 H2587 0.929 . S
C2561 O2574 1.240 . S
C2561 O2575 1.289 . S
C2562 O2576 1.258 . S
C2562 O2577 1.256 . S
C2563 La2553 2.928 . S
C2563 C2564 1.503 . S
C2563 O2578 1.261 . S
C2563 O2579 1.243 . S
C2564 C2563 1.503 . S
C2564 C2565 1.394 . S
C2564 C2569 1.373 . S
C2565 C2564 1.394 . S
C2565 C2566 1.380 . S
C2565 H2588 0.930 . S
C2566 C2565 1.380 . S
C2566 C2567 1.376 . S
C2566 H2589 0.930 . S
C2567 C2566 1.376 . S
C2567 C2568 1.370 . S
C2568 C2567 1.370 . S
C2568 C2569 1.396 . S
C2568 H2590 0.929 . S
C2569 C2564 1.373 . S
C2569 C2568 1.396 . S
C2569 H2591 0.929 . S
C2570 O2580 1.240 . S
C2570 O2581 1.289 . S
C2571 O2582 1.258 . S
C2571 O2583 1.256 . S
O2572 La2552 2.521 . S
O2572 C2554 1.261 . S
O2573 La2552 2.628 . S
O2573 C2554 1.243 . S
O2574 La2552 2.554 . S
O2574 C2561 1.240 . S
O2575 La2552 2.757 . S
O2575 La2553 2.482 . S
O2575 C2561 1.289 . S
O2576 La2552 2.470 . S
O2576 C2562 1.258 . S
O2577 La2553 2.503 . S
O2577 C2562 1.256 . S
O2578 La2553 2.521 . S
O2578 C2563 1.261 . S
O2579 La2553 2.628 . S
O2579 C2563 1.243 . S
O2580 La2553 2.554 . S
O2580 C2570 1.240 . S
O2581 La2552 2.482 . S
O2581 La2553 2.757 . S
O2581 C2570 1.289 . S
O2582 La2553 2.470 . S
O2582 C2571 1.258 . S
O2583 La2552 2.503 . S
O2583 C2571 1.256 . S
H2584 C2556 0.930 . S
H2585 C2557 0.930 . S
H2586 C2559 0.929 . S
H2587 C2560 0.929 . S
H2588 C2565 0.930 . S
H2589 C2566 0.930 . S
H2590 C2568 0.929 . S
H2591 C2569 0.929 . S
La2592 C2594 2.928 . S
La2592 O2612 2.521 . S
La2592 O2613 2.628 . S
La2592 O2614 2.554 . S
La2592 O2615 2.757 . S
La2592 O2616 2.470 . S
La2592 O2621 2.482 . S
La2592 O2623 2.503 . S
La2593 C2603 2.928 . S
La2593 O2615 2.482 . S
La2593 O2617 2.503 . S
La2593 O2618 2.521 . S
La2593 O2619 2.628 . S
La2593 O2620 2.554 . S
La2593 O2621 2.757 . S
La2593 O2622 2.470 . S
C2594 La2592 2.928 . S
C2594 C2595 1.503 . S
C2594 O2612 1.261 . S
C2594 O2613 1.243 . S
C2595 C2594 1.503 . S
C2595 C2596 1.394 . S
C2595 C2600 1.373 . S
C2596 C2595 1.394 . S
C2596 C2597 1.380 . S
C2596 H2624 0.930 . S
C2597 C2596 1.380 . S
C2597 C2598 1.376 . S
C2597 H2625 0.930 . S
C2598 C2597 1.376 . S
C2598 C2599 1.370 . S
C2599 C2598 1.370 . S
C2599 C2600 1.396 . S
C2599 H2626 0.929 . S
C2600 C2595 1.373 . S
C2600 C2599 1.396 . S
C2600 H2627 0.929 . S
C2601 O2614 1.240 . S
C2601 O2615 1.289 . S
C2602 O2616 1.258 . S
C2602 O2617 1.256 . S
C2603 La2593 2.928 . S
C2603 C2604 1.503 . S
C2603 O2618 1.261 . S
C2603 O2619 1.243 . S
C2604 C2603 1.503 . S
C2604 C2605 1.394 . S
C2604 C2609 1.373 . S
C2605 C2604 1.394 . S
C2605 C2606 1.380 . S
C2605 H2628 0.930 . S
C2606 C2605 1.380 . S
C2606 C2607 1.376 . S
C2606 H2629 0.930 . S
C2607 C2606 1.376 . S
C2607 C2608 1.370 . S
C2608 C2607 1.370 . S
C2608 C2609 1.396 . S
C2608 H2630 0.929 . S
C2609 C2604 1.373 . S
C2609 C2608 1.396 . S
C2609 H2631 0.929 . S
C2610 O2620 1.240 . S
C2610 O2621 1.289 . S
C2611 O2622 1.258 . S
C2611 O2623 1.256 . S
O2612 La2592 2.521 . S
O2612 C2594 1.261 . S
O2613 La2592 2.628 . S
O2613 C2594 1.243 . S
O2614 La2592 2.554 . S
O2614 C2601 1.240 . S
O2615 La2592 2.757 . S
O2615 La2593 2.482 . S
O2615 C2601 1.289 . S
O2616 La2592 2.470 . S
O2616 C2602 1.258 . S
O2617 La2593 2.503 . S
O2617 C2602 1.256 . S
O2618 La2593 2.521 . S
O2618 C2603 1.261 . S
O2619 La2593 2.628 . S
O2619 C2603 1.243 . S
O2620 La2593 2.554 . S
O2620 C2610 1.240 . S
O2621 La2592 2.482 . S
O2621 La2593 2.757 . S
O2621 C2610 1.289 . S
O2622 La2593 2.470 . S
O2622 C2611 1.258 . S
O2623 La2592 2.503 . S
O2623 C2611 1.256 . S
H2624 C2596 0.930 . S
H2625 C2597 0.930 . S
H2626 C2599 0.929 . S
H2627 C2600 0.929 . S
H2628 C2605 0.930 . S
H2629 C2606 0.930 . S
H2630 C2608 0.929 . S
H2631 C2609 0.929 . S
La2632 C2634 2.928 . S
La2632 O2652 2.521 . S
La2632 O2653 2.628 . S
La2632 O2654 2.554 . S
La2632 O2655 2.757 . S
La2632 O2656 2.470 . S
La2632 O2661 2.482 . S
La2632 O2663 2.503 . S
La2633 C2643 2.928 . S
La2633 O2655 2.482 . S
La2633 O2657 2.503 . S
La2633 O2658 2.521 . S
La2633 O2659 2.628 . S
La2633 O2660 2.554 . S
La2633 O2661 2.757 . S
La2633 O2662 2.470 . S
C2634 La2632 2.928 . S
C2634 C2635 1.503 . S
C2634 O2652 1.261 . S
C2634 O2653 1.243 . S
C2635 C2634 1.503 . S
C2635 C2636 1.394 . S
C2635 C2640 1.373 . S
C2636 C2635 1.394 . S
C2636 C2637 1.380 . S
C2636 H2664 0.930 . S
C2637 C2636 1.380 . S
C2637 C2638 1.376 . S
C2637 H2665 0.930 . S
C2638 C2637 1.376 . S
C2638 C2639 1.370 . S
C2639 C2638 1.370 . S
C2639 C2640 1.396 . S
C2639 H2666 0.929 . S
C2640 C2635 1.373 . S
C2640 C2639 1.396 . S
C2640 H2667 0.929 . S
C2641 O2654 1.240 . S
C2641 O2655 1.289 . S
C2642 O2656 1.258 . S
C2642 O2657 1.256 . S
C2643 La2633 2.928 . S
C2643 C2644 1.503 . S
C2643 O2658 1.261 . S
C2643 O2659 1.243 . S
C2644 C2643 1.503 . S
C2644 C2645 1.394 . S
C2644 C2649 1.373 . S
C2645 C2644 1.394 . S
C2645 C2646 1.380 . S
C2645 H2668 0.930 . S
C2646 C2645 1.380 . S
C2646 C2647 1.376 . S
C2646 H2669 0.930 . S
C2647 C2646 1.376 . S
C2647 C2648 1.370 . S
C2648 C2647 1.370 . S
C2648 C2649 1.396 . S
C2648 H2670 0.929 . S
C2649 C2644 1.373 . S
C2649 C2648 1.396 . S
C2649 H2671 0.929 . S
C2650 O2660 1.240 . S
C2650 O2661 1.289 . S
C2651 O2662 1.258 . S
C2651 O2663 1.256 . S
O2652 La2632 2.521 . S
O2652 C2634 1.261 . S
O2653 La2632 2.628 . S
O2653 C2634 1.243 . S
O2654 La2632 2.554 . S
O2654 C2641 1.240 . S
O2655 La2632 2.757 . S
O2655 La2633 2.482 . S
O2655 C2641 1.289 . S
O2656 La2632 2.470 . S
O2656 C2642 1.258 . S
O2657 La2633 2.503 . S
O2657 C2642 1.256 . S
O2658 La2633 2.521 . S
O2658 C2643 1.261 . S
O2659 La2633 2.628 . S
O2659 C2643 1.243 . S
O2660 La2633 2.554 . S
O2660 C2650 1.240 . S
O2661 La2632 2.482 . S
O2661 La2633 2.757 . S
O2661 C2650 1.289 . S
O2662 La2633 2.470 . S
O2662 C2651 1.258 . S
O2663 La2632 2.503 . S
O2663 C2651 1.256 . S
H2664 C2636 0.930 . S
H2665 C2637 0.930 . S
H2666 C2639 0.929 . S
H2667 C2640 0.929 . S
H2668 C2645 0.930 . S
H2669 C2646 0.930 . S
H2670 C2648 0.929 . S
H2671 C2649 0.929 . S
La2672 C2674 2.928 . S
La2672 O2692 2.521 . S
La2672 O2693 2.628 . S
La2672 O2694 2.554 . S
La2672 O2695 2.757 . S
La2672 O2696 2.470 . S
La2672 O2701 2.482 . S
La2672 O2703 2.503 . S
La2673 C2683 2.928 . S
La2673 O2695 2.482 . S
La2673 O2697 2.503 . S
La2673 O2698 2.521 . S
La2673 O2699 2.628 . S
La2673 O2700 2.554 . S
La2673 O2701 2.757 . S
La2673 O2702 2.470 . S
C2674 La2672 2.928 . S
C2674 C2675 1.503 . S
C2674 O2692 1.261 . S
C2674 O2693 1.243 . S
C2675 C2674 1.503 . S
C2675 C2676 1.394 . S
C2675 C2680 1.373 . S
C2676 C2675 1.394 . S
C2676 C2677 1.380 . S
C2676 H2704 0.930 . S
C2677 C2676 1.380 . S
C2677 C2678 1.376 . S
C2677 H2705 0.930 . S
C2678 C2677 1.376 . S
C2678 C2679 1.370 . S
C2679 C2678 1.370 . S
C2679 C2680 1.396 . S
C2679 H2706 0.929 . S
C2680 C2675 1.373 . S
C2680 C2679 1.396 . S
C2680 H2707 0.929 . S
C2681 O2694 1.240 . S
C2681 O2695 1.289 . S
C2682 O2696 1.258 . S
C2682 O2697 1.256 . S
C2683 La2673 2.928 . S
C2683 C2684 1.503 . S
C2683 O2698 1.261 . S
C2683 O2699 1.243 . S
C2684 C2683 1.503 . S
C2684 C2685 1.394 . S
C2684 C2689 1.373 . S
C2685 C2684 1.394 . S
C2685 C2686 1.380 . S
C2685 H2708 0.930 . S
C2686 C2685 1.380 . S
C2686 C2687 1.376 . S
C2686 H2709 0.930 . S
C2687 C2686 1.376 . S
C2687 C2688 1.370 . S
C2688 C2687 1.370 . S
C2688 C2689 1.396 . S
C2688 H2710 0.929 . S
C2689 C2684 1.373 . S
C2689 C2688 1.396 . S
C2689 H2711 0.929 . S
C2690 O2700 1.240 . S
C2690 O2701 1.289 . S
C2691 O2702 1.258 . S
C2691 O2703 1.256 . S
O2692 La2672 2.521 . S
O2692 C2674 1.261 . S
O2693 La2672 2.628 . S
O2693 C2674 1.243 . S
O2694 La2672 2.554 . S
O2694 C2681 1.240 . S
O2695 La2672 2.757 . S
O2695 La2673 2.482 . S
O2695 C2681 1.289 . S
O2696 La2672 2.470 . S
O2696 C2682 1.258 . S
O2697 La2673 2.503 . S
O2697 C2682 1.256 . S
O2698 La2673 2.521 . S
O2698 C2683 1.261 . S
O2699 La2673 2.628 . S
O2699 C2683 1.243 . S
O2700 La2673 2.554 . S
O2700 C2690 1.240 . S
O2701 La2672 2.482 . S
O2701 La2673 2.757 . S
O2701 C2690 1.289 . S
O2702 La2673 2.470 . S
O2702 C2691 1.258 . S
O2703 La2672 2.503 . S
O2703 C2691 1.256 . S
H2704 C2676 0.930 . S
H2705 C2677 0.930 . S
H2706 C2679 0.929 . S
H2707 C2680 0.929 . S
H2708 C2685 0.930 . S
H2709 C2686 0.930 . S
H2710 C2688 0.929 . S
H2711 C2689 0.929 . S
La2712 C2714 2.928 1_554 S
La2712 O2732 2.521 1_554 S
La2712 O2733 2.628 . S
La2712 O2734 2.554 1_554 S
La2712 O2735 2.757 1_554 S
La2712 O2736 2.470 1_554 S
La2712 O2741 2.482 . S
La2712 O2743 2.503 . S
La2713 C2723 2.928 1_455 S
La2713 O2735 2.482 1_554 S
La2713 O2737 2.503 . S
La2713 O2738 2.521 1_455 S
La2713 O2739 2.628 1_455 S
La2713 O2740 2.554 . S
La2713 O2741 2.757 . S
La2713 O2742 2.470 . S
C2714 La2712 2.928 1_556 S
C2714 C2715 1.503 . S
C2714 O2732 1.261 . S
C2714 O2733 1.243 1_556 S
C2715 C2714 1.503 . S
C2715 C2716 1.394 . S
C2715 C2720 1.373 1_556 S
C2716 C2715 1.394 . S
C2716 C2717 1.380 . S
C2716 H2744 0.930 . S
C2717 C2716 1.380 . S
C2717 C2718 1.376 . S
C2717 H2745 0.930 . S
C2718 C2717 1.376 . S
C2718 C2719 1.365 1_556 S
C2719 C2718 1.365 1_554 S
C2719 C2720 1.396 . S
C2719 H2746 0.933 . S
C2720 C2715 1.373 1_554 S
C2720 C2719 1.396 . S
C2720 H2747 0.929 . S
C2721 O2734 1.240 . S
C2721 O2735 1.289 . S
C2722 O2736 1.231 1_554 S
C2722 O2737 1.274 . S
C2723 La2713 2.928 1_655 S
C2723 C2724 1.503 . S
C2723 O2738 1.261 . S
C2723 O2739 1.243 . S
C2724 C2723 1.503 . S
C2724 C2725 1.394 . S
C2724 C2729 1.373 . S
C2725 C2724 1.394 . S
C2725 C2726 1.380 . S
C2725 H2748 0.930 . S
C2726 C2725 1.380 . S
C2726 C2727 1.376 . S
C2726 H2749 0.930 . S
C2727 C2726 1.376 . S
C2727 C2728 1.370 . S
C2728 C2727 1.370 . S
C2728 C2729 1.396 . S
C2728 H2750 0.929 . S
C2729 C2724 1.373 . S
C2729 C2728 1.396 . S
C2729 H2751 0.929 . S
C2730 O2740 1.240 . S
C2730 O2741 1.289 . S
C2731 O2742 1.258 . S
C2731 O2743 1.256 . S
O2732 La2712 2.521 1_556 S
O2732 C2714 1.261 . S
O2733 La2712 2.628 . S
O2733 C2714 1.243 1_554 S
O2734 La2712 2.554 1_556 S
O2734 C2721 1.240 . S
O2735 La2712 2.757 1_556 S
O2735 La2713 2.482 1_556 S
O2735 C2721 1.289 . S
O2736 La2712 2.470 1_556 S
O2736 C2722 1.231 1_556 S
O2737 La2713 2.503 . S
O2737 C2722 1.274 . S
O2738 La2713 2.521 1_655 S
O2738 C2723 1.261 . S
O2739 La2713 2.628 1_655 S
O2739 C2723 1.243 . S
O2740 La2713 2.554 . S
O2740 C2730 1.240 . S
O2741 La2712 2.482 . S
O2741 La2713 2.757 . S
O2741 C2730 1.289 . S
O2742 La2713 2.470 . S
O2742 C2731 1.258 . S
O2743 La2712 2.503 . S
O2743 C2731 1.256 . S
H2744 C2716 0.930 . S
H2745 C2717 0.930 . S
H2746 C2719 0.933 . S
H2747 C2720 0.929 . S
H2748 C2725 0.930 . S
H2749 C2726 0.930 . S
H2750 C2728 0.929 . S
H2751 C2729 0.929 . S
C2752 C2753 1.363 . S
C2752 C2758 1.379 . S
C2752 N2760 1.356 1_455 S
C2753 C2752 1.363 . S
C2753 C2759 1.363 1_556 S
C2754 C2755 1.363 . S
C2754 C2759 1.379 . S
C2754 N2761 1.356 . S
C2755 C2754 1.363 . S
C2755 C2758 1.363 1_554 S
N2756 C2758 1.356 . S
N2756 H2768 0.984 . S
N2756 H2769 0.985 . S
N2757 C2759 1.356 . S
N2757 H2762 0.984 . S
N2757 H2763 0.985 . S
C2758 C2752 1.379 . S
C2758 C2755 1.363 1_556 S
C2758 N2756 1.356 . S
C2759 C2753 1.363 1_554 S
C2759 C2754 1.379 . S
C2759 N2757 1.356 . S
N2760 C2752 1.356 1_655 S
N2760 H2766 0.984 . S
N2760 H2767 0.984 . S
N2761 C2754 1.356 . S
N2761 H2764 0.984 . S
N2761 H2765 0.985 . S
H2762 N2757 0.984 . S
H2763 N2757 0.985 . S
H2764 N2761 0.984 . S
H2765 N2761 0.985 . S
H2766 N2760 0.984 . S
H2767 N2760 0.984 . S
H2768 N2756 0.984 . S
H2769 N2756 0.985 . S
C2770 C2771 1.363 . S
C2770 C2776 1.379 . S
C2770 N2778 1.356 . S
C2771 C2770 1.363 . S
C2771 C2777 1.363 . S
C2772 C2773 1.363 . S
C2772 C2777 1.379 . S
C2772 N2779 1.356 . S
C2773 C2772 1.363 . S
C2773 C2776 1.363 . S
N2774 C2776 1.356 . S
N2774 H2786 0.984 . S
N2774 H2787 0.985 . S
N2775 C2777 1.356 . S
N2775 H2780 0.984 . S
N2775 H2781 0.985 . S
C2776 C2770 1.379 . S
C2776 C2773 1.363 . S
C2776 N2774 1.356 . S
C2777 C2771 1.363 . S
C2777 C2772 1.379 . S
C2777 N2775 1.356 . S
N2778 C2770 1.356 . S
N2778 H2784 0.984 . S
N2778 H2785 0.984 . S
N2779 C2772 1.356 . S
N2779 H2782 0.984 . S
N2779 H2783 0.985 . S
H2780 N2775 0.984 . S
H2781 N2775 0.985 . S
H2782 N2779 0.984 . S
H2783 N2779 0.985 . S
H2784 N2778 0.984 . S
H2785 N2778 0.984 . S
H2786 N2774 0.984 . S
H2787 N2774 0.985 . S
C2788 C2789 1.363 . S
C2788 C2794 1.379 . S
C2788 N2796 1.356 . S
C2789 C2788 1.363 . S
C2789 C2795 1.363 . S
C2790 C2791 1.363 . S
C2790 C2795 1.379 . S
C2790 N2797 1.356 . S
C2791 C2790 1.363 . S
C2791 C2794 1.363 . S
N2792 C2794 1.356 . S
N2792 H2804 0.984 . S
N2792 H2805 0.985 . S
N2793 C2795 1.356 . S
N2793 H2798 0.984 . S
N2793 H2799 0.985 . S
C2794 C2788 1.379 . S
C2794 C2791 1.363 . S
C2794 N2792 1.356 . S
C2795 C2789 1.363 . S
C2795 C2790 1.379 . S
C2795 N2793 1.356 . S
N2796 C2788 1.356 . S
N2796 H2802 0.984 . S
N2796 H2803 0.984 . S
N2797 C2790 1.356 . S
N2797 H2800 0.984 . S
N2797 H2801 0.985 . S
H2798 N2793 0.984 . S
H2799 N2793 0.985 . S
H2800 N2797 0.984 . S
H2801 N2797 0.985 . S
H2802 N2796 0.984 . S
H2803 N2796 0.984 . S
H2804 N2792 0.984 . S
H2805 N2792 0.985 . S
C2806 C2807 1.363 . S
C2806 C2812 1.379 . S
C2806 N2814 1.356 . S
C2807 C2806 1.363 . S
C2807 C2813 1.363 . S
C2808 C2809 1.363 . S
C2808 C2813 1.379 . S
C2808 N2815 1.356 . S
C2809 C2808 1.363 . S
C2809 C2812 1.363 . S
N2810 C2812 1.356 . S
N2810 H2822 0.984 . S
N2810 H2823 0.985 . S
N2811 C2813 1.356 . S
N2811 H2816 0.984 . S
N2811 H2817 0.985 . S
C2812 C2806 1.379 . S
C2812 C2809 1.363 . S
C2812 N2810 1.356 . S
C2813 C2807 1.363 . S
C2813 C2808 1.379 . S
C2813 N2811 1.356 . S
N2814 C2806 1.356 . S
N2814 H2820 0.984 . S
N2814 H2821 0.984 . S
N2815 C2808 1.356 . S
N2815 H2818 0.984 . S
N2815 H2819 0.985 . S
H2816 N2811 0.984 . S
H2817 N2811 0.985 . S
H2818 N2815 0.984 . S
H2819 N2815 0.985 . S
H2820 N2814 0.984 . S
H2821 N2814 0.984 . S
H2822 N2810 0.984 . S
H2823 N2810 0.985 . S
C2824 C2825 1.363 . S
C2824 C2830 1.379 . S
C2824 N2832 1.356 . S
C2825 C2824 1.363 . S
C2825 C2831 1.363 . S
C2826 C2827 1.363 . S
C2826 C2831 1.379 . S
C2826 N2833 1.356 . S
C2827 C2826 1.363 . S
C2827 C2830 1.363 . S
N2828 C2830 1.356 . S
N2828 H2840 0.984 . S
N2828 H2841 0.985 . S
N2829 C2831 1.356 . S
N2829 H2834 1.022 . S
N2829 H2835 0.985 . S
C2830 C2824 1.379 . S
C2830 C2827 1.363 . S
C2830 N2828 1.356 . S
C2831 C2825 1.363 . S
C2831 C2826 1.379 . S
C2831 N2829 1.356 . S
N2832 C2824 1.356 . S
N2832 H2838 0.984 . S
N2832 H2839 0.984 . S
N2833 C2826 1.356 . S
N2833 H2836 0.984 . S
N2833 H2837 0.985 . S
H2834 N2829 1.022 . S
H2835 N2829 0.985 . S
H2836 N2833 0.984 . S
H2837 N2833 0.985 . S
H2838 N2832 0.984 . S
H2839 N2832 0.984 . S
H2840 N2828 0.984 . S
H2841 N2828 0.985 . S
C2842 C2843 1.363 . S
C2842 C2848 1.379 . S
C2842 N2850 1.356 . S
C2843 C2842 1.363 . S
C2843 C2849 1.363 . S
C2844 C2845 1.363 . S
C2844 C2849 1.379 . S
C2844 N2851 1.356 . S
C2845 C2844 1.363 . S
C2845 C2848 1.363 . S
N2846 C2848 1.356 . S
N2846 H2858 0.984 . S
N2846 H2859 0.985 . S
N2847 C2849 1.356 . S
N2847 H2852 0.984 . S
N2847 H2853 0.985 . S
C2848 C2842 1.379 . S
C2848 C2845 1.363 . S
C2848 N2846 1.356 . S
C2849 C2843 1.363 . S
C2849 C2844 1.379 . S
C2849 N2847 1.356 . S
N2850 C2842 1.356 . S
N2850 H2856 0.984 . S
N2850 H2857 0.984 . S
N2851 C2844 1.356 . S
N2851 H2854 0.984 . S
N2851 H2855 0.985 . S
H2852 N2847 0.984 . S
H2853 N2847 0.985 . S
H2854 N2851 0.984 . S
H2855 N2851 0.985 . S
H2856 N2850 0.984 . S
H2857 N2850 0.984 . S
H2858 N2846 0.984 . S
H2859 N2846 0.985 . S
C2860 C2861 1.363 . S
C2860 C2866 1.379 . S
C2860 N2868 1.356 . S
C2861 C2860 1.363 . S
C2861 C2867 1.363 . S
C2862 C2863 1.363 . S
C2862 C2867 1.379 . S
C2862 N2869 1.356 . S
C2863 C2862 1.363 . S
C2863 C2866 1.363 . S
N2864 C2866 1.356 . S
N2864 H2876 0.984 . S
N2864 H2877 0.985 . S
N2865 C2867 1.356 . S
N2865 H2870 0.984 . S
N2865 H2871 0.985 . S
C2866 C2860 1.379 . S
C2866 C2863 1.363 . S
C2866 N2864 1.356 . S
C2867 C2861 1.363 . S
C2867 C2862 1.379 . S
C2867 N2865 1.356 . S
N2868 C2860 1.356 . S
N2868 H2874 0.984 . S
N2868 H2875 0.984 . S
N2869 C2862 1.356 . S
N2869 H2872 0.984 . S
N2869 H2873 0.985 1_554 S
H2870 N2865 0.984 . S
H2871 N2865 0.985 . S
H2872 N2869 0.984 . S
H2873 N2869 0.985 1_556 S
H2874 N2868 0.984 . S
H2875 N2868 0.984 . S
H2876 N2864 0.984 . S
H2877 N2864 0.985 . S
C2878 C2879 1.363 . S
C2878 C2884 1.379 . S
C2878 N2886 1.356 . S
C2879 C2878 1.363 . S
C2879 C2885 1.363 . S
C2880 C2881 1.363 . S
C2880 C2885 1.379 . S
C2880 N2887 1.356 . S
C2881 C2880 1.363 . S
C2881 C2884 1.363 . S
N2882 C2884 1.356 . S
N2882 H2894 0.984 . S
N2882 H2895 0.985 . S
N2883 C2885 1.356 . S
N2883 H2888 0.984 . S
N2883 H2889 0.985 . S
C2884 C2878 1.379 . S
C2884 C2881 1.363 . S
C2884 N2882 1.356 . S
C2885 C2879 1.363 . S
C2885 C2880 1.379 . S
C2885 N2883 1.356 . S
N2886 C2878 1.356 . S
N2886 H2892 0.984 . S
N2886 H2893 0.984 . S
N2887 C2880 1.356 . S
N2887 H2890 0.984 . S
N2887 H2891 0.985 . S
H2888 N2883 0.984 . S
H2889 N2883 0.985 . S
H2890 N2887 0.984 . S
H2891 N2887 0.985 . S
H2892 N2886 0.984 . S
H2893 N2886 0.984 . S
H2894 N2882 0.984 . S
H2895 N2882 0.985 . S
C2896 C2897 1.363 . S
C2896 C2902 1.379 . S
C2896 N2904 1.356 . S
C2897 C2896 1.363 . S
C2897 C2903 1.363 . S
C2898 C2899 1.363 . S
C2898 C2903 1.379 . S
C2898 N2905 1.356 . S
C2899 C2898 1.363 . S
C2899 C2902 1.363 . S
N2900 C2902 1.356 . S
N2900 H2912 0.984 . S
N2900 H2913 0.985 . S
N2901 C2903 1.356 1_655 S
N2901 H2906 0.984 . S
N2901 H2907 0.985 . S
C2902 C2896 1.379 . S
C2902 C2899 1.363 . S
C2902 N2900 1.356 . S
C2903 C2897 1.363 . S
C2903 C2898 1.379 . S
C2903 N2901 1.356 1_455 S
N2904 C2896 1.356 . S
N2904 H2910 0.984 . S
N2904 H2911 0.984 . S
N2905 C2898 1.356 . S
N2905 H2908 0.984 . S
N2905 H2909 0.985 . S
H2906 N2901 0.984 . S
H2907 N2901 0.985 . S
H2908 N2905 0.984 . S
H2909 N2905 0.985 . S
H2910 N2904 0.984 . S
H2911 N2904 0.984 . S
H2912 N2900 0.984 . S
H2913 N2900 0.985 . S
C2914 C2915 1.363 . S
C2914 C2920 1.379 . S
C2914 N2922 1.356 . S
C2915 C2914 1.363 . S
C2915 C2921 1.363 . S
C2916 C2917 1.363 . S
C2916 C2921 1.379 . S
C2916 N2923 1.356 . S
C2917 C2916 1.363 . S
C2917 C2920 1.363 . S
N2918 C2920 1.356 . S
N2918 H2930 0.984 . S
N2918 H2931 0.985 . S
N2919 C2921 1.356 . S
N2919 H2924 0.984 . S
N2919 H2925 0.985 . S
C2920 C2914 1.379 . S
C2920 C2917 1.363 . S
C2920 N2918 1.356 . S
C2921 C2915 1.363 . S
C2921 C2916 1.379 . S
C2921 N2919 1.356 . S
N2922 C2914 1.356 . S
N2922 H2928 0.984 . S
N2922 H2929 0.984 . S
N2923 C2916 1.356 . S
N2923 H2926 0.984 . S
N2923 H2927 0.985 . S
H2924 N2919 0.984 . S
H2925 N2919 0.985 . S
H2926 N2923 0.984 . S
H2927 N2923 0.985 . S
H2928 N2922 0.984 . S
H2929 N2922 0.984 . S
H2930 N2918 0.984 . S
H2931 N2918 0.985 . S
C2932 C2933 1.363 . S
C2932 C2938 1.379 . S
C2932 N2940 1.356 . S
C2933 C2932 1.363 . S
C2933 C2939 1.363 . S
C2934 C2935 1.363 . S
C2934 C2939 1.379 . S
C2934 N2941 1.356 . S
C2935 C2934 1.363 . S
C2935 C2938 1.363 . S
N2936 C2938 1.356 . S
N2936 H2948 0.984 . S
N2936 H2949 0.985 . S
N2937 C2939 1.356 . S
N2937 H2942 0.984 . S
N2937 H2943 0.985 . S
C2938 C2932 1.379 . S
C2938 C2935 1.363 . S
C2938 N2936 1.356 . S
C2939 C2933 1.363 . S
C2939 C2934 1.379 . S
C2939 N2937 1.356 . S
N2940 C2932 1.356 . S
N2940 H2946 0.984 . S
N2940 H2947 0.984 . S
N2941 C2934 1.356 . S
N2941 H2944 0.984 . S
N2941 H2945 0.985 1_545 S
H2942 N2937 0.984 . S
H2943 N2937 0.985 . S
H2944 N2941 0.984 . S
H2945 N2941 0.985 1_565 S
H2946 N2940 0.984 . S
H2947 N2940 0.984 . S
H2948 N2936 0.984 . S
H2949 N2936 0.985 . S
C2950 C2951 1.363 . S
C2950 C2956 1.379 . S
C2950 N2958 1.356 . S
C2951 C2950 1.363 . S
C2951 C2957 1.363 . S
C2952 C2953 1.363 . S
C2952 C2957 1.379 . S
C2952 N2959 1.356 . S
C2953 C2952 1.363 . S
C2953 C2956 1.363 . S
N2954 C2956 1.356 . S
N2954 H2966 0.984 . S
N2954 H2967 0.985 . S
N2955 C2957 1.356 . S
N2955 H2960 0.984 . S
N2955 H2961 0.985 . S
C2956 C2950 1.379 . S
C2956 C2953 1.363 . S
C2956 N2954 1.356 . S
C2957 C2951 1.363 . S
C2957 C2952 1.379 . S
C2957 N2955 1.356 . S
N2958 C2950 1.356 . S
N2958 H2964 0.984 . S
N2958 H2965 0.984 . S
N2959 C2952 1.356 . S
N2959 H2962 0.984 . S
N2959 H2963 0.985 . S
H2960 N2955 0.984 . S
H2961 N2955 0.985 . S
H2962 N2959 0.984 . S
H2963 N2959 0.985 . S
H2964 N2958 0.984 . S
H2965 N2958 0.984 . S
H2966 N2954 0.984 . S
H2967 N2954 0.985 . S
C2968 C2969 1.363 . S
C2968 C2974 1.379 . S
C2968 N2976 1.356 1_455 S
C2969 C2968 1.363 . S
C2969 C2975 1.363 . S
C2970 C2971 1.363 . S
C2970 C2975 1.379 . S
C2970 N2977 1.356 . S
C2971 C2970 1.363 . S
C2971 C2974 1.363 . S
N2972 C2974 1.356 . S
N2972 H2984 0.984 1_455 S
N2972 H2985 0.985 . S
N2973 C2975 1.356 . S
N2973 H2978 0.984 . S
N2973 H2979 0.985 . S
C2974 C2968 1.379 . S
C2974 C2971 1.363 . S
C2974 N2972 1.356 . S
C2975 C2969 1.363 . S
C2975 C2970 1.379 . S
C2975 N2973 1.356 . S
N2976 C2968 1.356 1_655 S
N2976 H2982 0.984 . S
N2976 H2983 0.984 . S
N2977 C2970 1.356 . S
N2977 H2980 0.984 . S
N2977 H2981 0.985 . S
H2978 N2973 0.984 . S
H2979 N2973 0.985 . S
H2980 N2977 0.984 . S
H2981 N2977 0.985 . S
H2982 N2976 0.984 . S
H2983 N2976 0.984 . S
H2984 N2972 0.984 1_655 S
H2985 N2972 0.985 . S
C2986 C2987 1.363 . S
C2986 C2992 1.379 . S
C2986 N2994 1.356 . S
C2987 C2986 1.363 . S
C2987 C2993 1.363 . S
C2988 C2989 1.363 . S
C2988 C2993 1.379 . S
C2988 N2995 1.356 . S
C2989 C2988 1.363 . S
C2989 C2992 1.363 . S
N2990 C2992 1.356 . S
N2990 H3002 0.984 . S
N2990 H3003 0.985 . S
N2991 C2993 1.356 . S
N2991 H2996 0.984 . S
N2991 H2997 0.985 . S
C2992 C2986 1.379 . S
C2992 C2989 1.363 . S
C2992 N2990 1.356 . S
C2993 C2987 1.363 . S
C2993 C2988 1.379 . S
C2993 N2991 1.356 . S
N2994 C2986 1.356 . S
N2994 H3000 0.984 . S
N2994 H3001 0.984 . S
N2995 C2988 1.356 . S
N2995 H2998 0.984 . S
N2995 H2999 0.985 . S
H2996 N2991 0.984 . S
H2997 N2991 0.985 . S
H2998 N2995 0.984 . S
H2999 N2995 0.985 . S
H3000 N2994 0.984 . S
H3001 N2994 0.984 . S
H3002 N2990 0.984 . S
H3003 N2990 0.985 . S
C3004 C3005 1.363 . S
C3004 C3010 1.379 . S
C3004 N3012 1.356 . S
C3005 C3004 1.363 . S
C3005 C3011 1.363 . S
C3006 C3007 1.363 . S
C3006 C3011 1.379 . S
C3006 N3013 1.356 . S
C3007 C3006 1.363 . S
C3007 C3010 1.363 . S
N3008 C3010 1.356 . S
N3008 H3020 0.984 . S
N3008 H3021 0.985 . S
N3009 C3011 1.356 . S
N3009 H3014 0.984 . S
N3009 H3015 0.985 . S
C3010 C3004 1.379 . S
C3010 C3007 1.363 . S
C3010 N3008 1.356 . S
C3011 C3005 1.363 . S
C3011 C3006 1.379 . S
C3011 N3009 1.356 . S
N3012 C3004 1.356 . S
N3012 H3018 0.984 . S
N3012 H3019 0.984 . S
N3013 C3006 1.356 . S
N3013 H3016 0.984 . S
N3013 H3017 0.985 . S
H3014 N3009 0.984 . S
H3015 N3009 0.985 . S
H3016 N3013 0.984 . S
H3017 N3013 0.985 . S
H3018 N3012 0.984 . S
H3019 N3012 0.984 . S
H3020 N3008 0.984 . S
H3021 N3008 0.985 . S
C3022 C3023 1.363 . S
C3022 C3028 1.379 . S
C3022 N3030 1.356 . S
C3023 C3022 1.363 . S
C3023 C3029 1.363 . S
C3024 C3025 1.363 . S
C3024 C3029 1.379 . S
C3024 N3031 1.356 . S
C3025 C3024 1.363 . S
C3025 C3028 1.363 . S
N3026 C3028 1.356 . S
N3026 H3038 0.984 . S
N3026 H3039 0.985 . S
N3027 C3029 1.356 . S
N3027 H3032 0.984 . S
N3027 H3033 0.985 . S
C3028 C3022 1.379 . S
C3028 C3025 1.363 . S
C3028 N3026 1.356 . S
C3029 C3023 1.363 . S
C3029 C3024 1.379 . S
C3029 N3027 1.356 . S
N3030 C3022 1.356 . S
N3030 H3036 0.984 . S
N3030 H3037 0.984 . S
N3031 C3024 1.356 . S
N3031 H3034 0.984 . S
N3031 H3035 0.985 . S
H3032 N3027 0.984 . S
H3033 N3027 0.985 . S
H3034 N3031 0.984 . S
H3035 N3031 0.985 . S
H3036 N3030 0.984 . S
H3037 N3030 0.984 . S
H3038 N3026 0.984 . S
H3039 N3026 0.985 . S
C3040 C3041 1.363 . S
C3040 C3046 1.379 . S
C3040 N3048 1.356 1_554 S
C3041 C3040 1.363 . S
C3041 C3047 1.363 1_565 S
C3042 C3043 1.358 1_545 S
C3042 C3047 1.379 . S
C3042 N3049 1.356 . S
C3043 C3042 1.358 1_565 S
C3043 C3046 1.373 . S
N3044 C3046 1.356 . S
N3044 H3056 0.984 . S
N3044 H3057 0.985 . S
N3045 C3047 1.356 . S
N3045 H3050 0.984 . S
N3045 H3051 0.985 . S
C3046 C3040 1.379 . S
C3046 C3043 1.373 . S
C3046 N3044 1.356 . S
C3047 C3041 1.363 1_545 S
C3047 C3042 1.379 . S
C3047 N3045 1.356 . S
N3048 C3040 1.356 1_556 S
N3048 H3054 0.984 . S
N3048 H3055 0.984 . S
N3049 C3042 1.356 . S
N3049 H3052 0.984 . S
N3049 H3053 0.985 . S
H3050 N3045 0.984 . S
H3051 N3045 0.985 . S
H3052 N3049 0.984 . S
H3053 N3049 0.985 . S
H3054 N3048 0.984 . S
H3055 N3048 0.984 . S
H3056 N3044 0.984 . S
H3057 N3044 0.985 . S
C3058 C3059 1.363 . S
C3058 C3064 1.379 . S
C3058 N3066 1.356 . S
C3059 C3058 1.363 . S
C3059 C3065 1.363 1_556 S
C3060 C3061 1.363 . S
C3060 C3065 1.379 . S
C3060 N3067 1.356 . S
C3061 C3060 1.363 . S
C3061 C3064 1.363 1_554 S
N3062 C3064 1.356 . S
N3062 H3074 0.984 . S
N3062 H3075 0.985 . S
N3063 C3065 1.356 . S
N3063 H3068 0.984 . S
N3063 H3069 0.985 . S
C3064 C3058 1.379 . S
C3064 C3061 1.363 1_556 S
C3064 N3062 1.356 . S
C3065 C3059 1.363 1_554 S
C3065 C3060 1.379 . S
C3065 N3063 1.356 . S
N3066 C3058 1.356 . S
N3066 H3072 0.984 . S
N3066 H3073 0.984 . S
N3067 C3060 1.356 . S
N3067 H3070 0.984 . S
N3067 H3071 0.985 . S
H3068 N3063 0.984 . S
H3069 N3063 0.985 . S
H3070 N3067 0.984 . S
H3071 N3067 0.985 . S
H3072 N3066 0.984 . S
H3073 N3066 0.984 . S
H3074 N3062 0.984 . S
H3075 N3062 0.985 . S
C3076 C3077 1.363 . S
C3076 C3082 1.379 . S
C3076 N3084 1.356 . S
C3077 C3076 1.363 . S
C3077 C3083 1.363 . S
C3078 C3079 1.363 . S
C3078 C3083 1.379 . S
C3078 N3085 1.356 . S
C3079 C3078 1.363 . S
C3079 C3082 1.363 . S
N3080 C3082 1.356 . S
N3080 H3092 0.984 . S
N3080 H3093 0.985 . S
N3081 C3083 1.356 . S
N3081 H3086 0.984 . S
N3081 H3087 0.985 . S
C3082 C3076 1.379 . S
C3082 C3079 1.363 . S
C3082 N3080 1.356 . S
C3083 C3077 1.363 . S
C3083 C3078 1.379 . S
C3083 N3081 1.356 . S
N3084 C3076 1.356 . S
N3084 H3090 0.984 . S
N3084 H3091 0.984 . S
N3085 C3078 1.356 . S
N3085 H3088 0.984 . S
N3085 H3089 0.985 . S
H3086 N3081 0.984 . S
H3087 N3081 0.985 . S
H3088 N3085 0.984 . S
H3089 N3085 0.985 . S
H3090 N3084 0.984 . S
H3091 N3084 0.984 . S
H3092 N3080 0.984 . S
H3093 N3080 0.985 . S
C3094 C3095 1.363 . S
C3094 C3100 1.379 . S
C3094 N3102 1.356 . S
C3095 C3094 1.363 . S
C3095 C3101 1.363 . S
C3096 C3097 1.363 . S
C3096 C3101 1.379 . S
C3096 N3103 1.340 1_655 S
C3097 C3096 1.363 . S
C3097 C3100 1.363 . S
N3098 C3100 1.356 . S
N3098 H3110 0.984 . S
N3098 H3111 0.985 1_655 S
N3099 C3101 1.356 . S
N3099 H3104 0.984 . S
N3099 H3105 0.985 . S
C3100 C3094 1.379 . S
C3100 C3097 1.363 . S
C3100 N3098 1.356 . S
C3101 C3095 1.363 . S
C3101 C3096 1.379 . S
C3101 N3099 1.356 . S
N3102 C3094 1.356 . S
N3102 H3108 0.984 . S
N3102 H3109 0.984 . S
N3103 C3096 1.340 1_455 S
N3103 H3106 1.003 . S
N3103 H3107 0.982 1_455 S
H3104 N3099 0.984 . S
H3105 N3099 0.985 . S
H3106 N3103 1.003 . S
H3107 N3103 0.982 1_655 S
H3108 N3102 0.984 . S
H3109 N3102 0.984 . S
H3110 N3098 0.984 . S
H3111 N3098 0.985 1_455 S
C3112 C3113 1.363 . S
C3112 C3118 1.379 . S
C3112 N3120 1.356 . S
C3113 C3112 1.363 . S
C3113 C3119 1.363 . S
C3114 C3115 1.363 . S
C3114 C3119 1.379 . S
C3114 N3121 1.356 . S
C3115 C3114 1.363 . S
C3115 C3118 1.363 . S
N3116 C3118 1.356 . S
N3116 H3128 0.984 . S
N3116 H3129 0.985 . S
N3117 C3119 1.356 . S
N3117 H3122 0.984 . S
N3117 H3123 0.985 . S
C3118 C3112 1.379 . S
C3118 C3115 1.363 . S
C3118 N3116 1.356 . S
C3119 C3113 1.363 . S
C3119 C3114 1.379 . S
C3119 N3117 1.356 . S
N3120 C3112 1.356 . S
N3120 H3126 0.984 . S
N3120 H3127 0.984 . S
N3121 C3114 1.356 . S
N3121 H3124 0.984 . S
N3121 H3125 0.985 . S
H3122 N3117 0.984 . S
H3123 N3117 0.985 . S
H3124 N3121 0.984 . S
H3125 N3121 0.985 . S
H3126 N3120 0.984 . S
H3127 N3120 0.984 . S
H3128 N3116 0.984 . S
H3129 N3116 0.985 . S
C3130 C3131 1.363 . S
C3130 C3136 1.379 . S
C3130 N3138 1.356 . S
C3131 C3130 1.363 . S
C3131 C3137 1.363 . S
C3132 C3133 1.363 . S
C3132 C3137 1.379 . S
C3132 N3139 1.356 . S
C3133 C3132 1.363 . S
C3133 C3136 1.363 . S
N3134 C3136 1.356 . S
N3134 H3146 0.984 . S
N3134 H3147 0.985 . S
N3135 C3137 1.356 . S
N3135 H3140 0.984 . S
N3135 H3141 0.985 . S
C3136 C3130 1.379 . S
C3136 C3133 1.363 . S
C3136 N3134 1.356 . S
C3137 C3131 1.363 . S
C3137 C3132 1.379 . S
C3137 N3135 1.356 . S
N3138 C3130 1.356 . S
N3138 H3144 0.984 . S
N3138 H3145 0.984 . S
N3139 C3132 1.356 . S
N3139 H3142 0.984 . S
N3139 H3143 0.985 . S
H3140 N3135 0.984 . S
H3141 N3135 0.985 . S
H3142 N3139 0.984 . S
H3143 N3139 0.985 . S
H3144 N3138 0.984 . S
H3145 N3138 0.984 . S
H3146 N3134 0.984 . S
H3147 N3134 0.985 . S
C3148 C3149 1.363 . S
C3148 C3154 1.379 . S
C3148 N3156 1.356 . S
C3149 C3148 1.363 . S
C3149 C3155 1.363 . S
C3150 C3151 1.363 . S
C3150 C3155 1.379 . S
C3150 N3157 1.356 . S
C3151 C3150 1.363 . S
C3151 C3154 1.363 . S
N3152 C3154 1.356 . S
N3152 H3164 0.984 . S
N3152 H3165 0.985 . S
N3153 C3155 1.356 . S
N3153 H3158 0.984 . S
N3153 H3159 0.985 . S
C3154 C3148 1.379 . S
C3154 C3151 1.363 . S
C3154 N3152 1.356 . S
C3155 C3149 1.363 . S
C3155 C3150 1.379 . S
C3155 N3153 1.356 . S
N3156 C3148 1.356 . S
N3156 H3162 0.984 . S
N3156 H3163 0.984 . S
N3157 C3150 1.356 . S
N3157 H3160 0.984 . S
N3157 H3161 0.985 . S
H3158 N3153 0.984 . S
H3159 N3153 0.985 . S
H3160 N3157 0.984 . S
H3161 N3157 0.985 . S
H3162 N3156 0.984 . S
H3163 N3156 0.984 . S
H3164 N3152 0.984 . S
H3165 N3152 0.985 . S
C3166 C3167 1.363 . S
C3166 C3172 1.379 . S
C3166 N3174 1.356 . S
C3167 C3166 1.363 . S
C3167 C3173 1.363 . S
C3168 C3169 1.363 . S
C3168 C3173 1.379 . S
C3168 N3175 1.356 . S
C3169 C3168 1.363 . S
C3169 C3172 1.363 . S
N3170 C3172 1.356 . S
N3170 H3182 0.984 . S
N3170 H3183 0.985 . S
N3171 C3173 1.356 . S
N3171 H3176 0.984 . S
N3171 H3177 0.985 . S
C3172 C3166 1.379 . S
C3172 C3169 1.363 . S
C3172 N3170 1.356 . S
C3173 C3167 1.363 . S
C3173 C3168 1.379 . S
C3173 N3171 1.356 . S
N3174 C3166 1.356 . S
N3174 H3180 0.984 . S
N3174 H3181 0.984 . S
N3175 C3168 1.356 . S
N3175 H3178 0.984 . S
N3175 H3179 0.985 . S
H3176 N3171 0.984 . S
H3177 N3171 0.985 . S
H3178 N3175 0.984 . S
H3179 N3175 0.985 . S
H3180 N3174 0.984 . S
H3181 N3174 0.984 . S
H3182 N3170 0.984 . S
H3183 N3170 0.985 . S
C3184 C3185 1.363 . S
C3184 C3190 1.379 . S
C3184 N3192 1.356 . S
C3185 C3184 1.363 . S
C3185 C3191 1.363 . S
C3186 C3187 1.363 . S
C3186 C3191 1.379 . S
C3186 N3193 1.356 . S
C3187 C3186 1.363 . S
C3187 C3190 1.363 . S
N3188 C3190 1.356 1_556 S
N3188 H3200 0.984 . S
N3188 H3201 0.985 . S
N3189 C3191 1.356 . S
N3189 H3194 0.984 . S
N3189 H3195 0.985 . S
C3190 C3184 1.379 . S
C3190 C3187 1.363 . S
C3190 N3188 1.356 1_554 S
C3191 C3185 1.363 . S
C3191 C3186 1.379 . S
C3191 N3189 1.356 . S
N3192 C3184 1.356 . S
N3192 H3198 0.984 1_554 S
N3192 H3199 0.984 . S
N3193 C3186 1.356 . S
N3193 H3196 0.984 . S
N3193 H3197 0.985 . S
H3194 N3189 0.984 . S
H3195 N3189 0.985 . S
H3196 N3193 0.984 . S
H3197 N3193 0.985 . S
H3198 N3192 0.984 1_556 S
H3199 N3192 0.984 . S
H3200 N3188 0.984 . S
H3201 N3188 0.985 . S
C3202 C3203 1.363 . S
C3202 C3208 1.379 . S
C3202 N3210 1.356 . S
C3203 C3202 1.363 . S
C3203 C3209 1.363 . S
C3204 C3205 1.363 . S
C3204 C3209 1.379 . S
C3204 N3211 1.356 . S
C3205 C3204 1.363 . S
C3205 C3208 1.363 . S
N3206 C3208 1.356 . S
N3206 H3218 0.984 . S
N3206 H3219 0.985 . S
N3207 C3209 1.356 . S
N3207 H3212 0.984 . S
N3207 H3213 0.985 . S
C3208 C3202 1.379 . S
C3208 C3205 1.363 . S
C3208 N3206 1.356 . S
C3209 C3203 1.363 . S
C3209 C3204 1.379 . S
C3209 N3207 1.356 . S
N3210 C3202 1.356 . S
N3210 H3216 0.984 . S
N3210 H3217 0.984 . S
N3211 C3204 1.356 . S
N3211 H3214 0.984 . S
N3211 H3215 0.985 . S
H3212 N3207 0.984 . S
H3213 N3207 0.985 . S
H3214 N3211 0.984 . S
H3215 N3211 0.985 . S
H3216 N3210 0.984 . S
H3217 N3210 0.984 . S
H3218 N3206 0.984 . S
H3219 N3206 0.985 . S
C3220 C3221 1.363 . S
C3220 C3226 1.379 . S
C3220 N3228 1.356 . S
C3221 C3220 1.363 . S
C3221 C3227 1.363 . S
C3222 C3223 1.363 . S
C3222 C3227 1.379 . S
C3222 N3229 1.356 . S
C3223 C3222 1.363 . S
C3223 C3226 1.363 . S
N3224 C3226 1.356 . S
N3224 H3236 0.984 . S
N3224 H3237 0.985 . S
N3225 C3227 1.356 . S
N3225 H3230 0.984 . S
N3225 H3231 0.985 . S
C3226 C3220 1.379 . S
C3226 C3223 1.363 . S
C3226 N3224 1.356 . S
C3227 C3221 1.363 . S
C3227 C3222 1.379 . S
C3227 N3225 1.356 . S
N3228 C3220 1.356 . S
N3228 H3234 0.984 . S
N3228 H3235 0.984 . S
N3229 C3222 1.356 . S
N3229 H3232 0.984 . S
N3229 H3233 0.985 . S
H3230 N3225 0.984 . S
H3231 N3225 0.985 . S
H3232 N3229 0.984 . S
H3233 N3229 0.985 . S
H3234 N3228 0.984 . S
H3235 N3228 0.984 . S
H3236 N3224 0.984 . S
H3237 N3224 0.985 . S
C3238 C3239 1.363 . S
C3238 C3244 1.379 . S
C3238 N3246 1.356 . S
C3239 C3238 1.363 . S
C3239 C3245 1.363 . S
C3240 C3241 1.363 . S
C3240 C3245 1.379 . S
C3240 N3247 1.356 . S
C3241 C3240 1.363 . S
C3241 C3244 1.363 . S
N3242 C3244 1.356 . S
N3242 H3254 0.984 . S
N3242 H3255 0.985 . S
N3243 C3245 1.356 . S
N3243 H3248 0.984 . S
N3243 H3249 0.985 . S
C3244 C3238 1.379 . S
C3244 C3241 1.363 . S
C3244 N3242 1.356 . S
C3245 C3239 1.363 . S
C3245 C3240 1.379 . S
C3245 N3243 1.356 . S
N3246 C3238 1.356 . S
N3246 H3252 0.984 . S
N3246 H3253 0.984 . S
N3247 C3240 1.356 . S
N3247 H3250 0.984 . S
N3247 H3251 0.985 . S
H3248 N3243 0.984 . S
H3249 N3243 0.985 . S
H3250 N3247 0.984 . S
H3251 N3247 0.985 . S
H3252 N3246 0.984 . S
H3253 N3246 0.984 . S
H3254 N3242 0.984 . S
H3255 N3242 0.985 . S
C3256 C3257 1.363 . S
C3256 C3262 1.379 . S
C3256 N3264 1.356 . S
C3257 C3256 1.363 . S
C3257 C3263 1.363 . S
C3258 C3259 1.363 . S
C3258 C3263 1.379 . S
C3258 N3265 1.356 . S
C3259 C3258 1.363 . S
C3259 C3262 1.363 . S
N3260 C3262 1.356 . S
N3260 H3272 0.984 . S
N3260 H3273 0.985 . S
N3261 C3263 1.356 . S
N3261 H3266 0.984 . S
N3261 H3267 0.985 . S
C3262 C3256 1.379 . S
C3262 C3259 1.363 . S
C3262 N3260 1.356 . S
C3263 C3257 1.363 . S
C3263 C3258 1.379 . S
C3263 N3261 1.356 . S
N3264 C3256 1.356 . S
N3264 H3270 0.984 . S
N3264 H3271 0.984 . S
N3265 C3258 1.356 . S
N3265 H3268 0.984 . S
N3265 H3269 0.985 . S
H3266 N3261 0.984 . S
H3267 N3261 0.985 . S
H3268 N3265 0.984 . S
H3269 N3265 0.985 . S
H3270 N3264 0.984 . S
H3271 N3264 0.984 . S
H3272 N3260 0.984 . S
H3273 N3260 0.985 . S
C3274 C3275 1.363 . S
C3274 C3280 1.379 . S
C3274 N3282 1.356 . S
C3275 C3274 1.363 . S
C3275 C3281 1.363 . S
C3276 C3277 1.363 . S
C3276 C3281 1.379 . S
C3276 N3283 1.356 . S
C3277 C3276 1.363 . S
C3277 C3280 1.363 . S
N3278 C3280 1.356 . S
N3278 H3290 0.984 . S
N3278 H3291 0.985 . S
N3279 C3281 1.356 . S
N3279 H3284 0.984 . S
N3279 H3285 0.985 . S
C3280 C3274 1.379 . S
C3280 C3277 1.363 . S
C3280 N3278 1.356 . S
C3281 C3275 1.363 . S
C3281 C3276 1.379 . S
C3281 N3279 1.356 . S
N3282 C3274 1.356 . S
N3282 H3288 0.984 . S
N3282 H3289 0.984 . S
N3283 C3276 1.356 . S
N3283 H3286 0.984 . S
N3283 H3287 0.985 . S
H3284 N3279 0.984 . S
H3285 N3279 0.985 . S
H3286 N3283 0.984 . S
H3287 N3283 0.985 . S
H3288 N3282 0.984 . S
H3289 N3282 0.984 . S
H3290 N3278 0.984 . S
H3291 N3278 0.985 . S
C3292 C3293 1.363 . S
C3292 C3298 1.379 . S
C3292 N3300 1.356 . S
C3293 C3292 1.363 . S
C3293 C3299 1.363 . S
C3294 C3295 1.363 . S
C3294 C3299 1.379 . S
C3294 N3301 1.356 . S
C3295 C3294 1.363 . S
C3295 C3298 1.363 . S
N3296 C3298 1.356 1_545 S
N3296 H3308 0.984 . S
N3296 H3309 0.985 . S
N3297 C3299 1.356 . S
N3297 H3302 0.984 . S
N3297 H3303 0.985 . S
C3298 C3292 1.379 . S
C3298 C3295 1.363 . S
C3298 N3296 1.356 1_565 S
C3299 C3293 1.363 . S
C3299 C3294 1.379 . S
C3299 N3297 1.356 . S
N3300 C3292 1.356 . S
N3300 H3306 0.984 1_565 S
N3300 H3307 0.984 . S
N3301 C3294 1.356 . S
N3301 H3304 0.984 . S
N3301 H3305 0.985 . S
H3302 N3297 0.984 . S
H3303 N3297 0.985 . S
H3304 N3301 0.984 . S
H3305 N3301 0.985 . S
H3306 N3300 0.984 1_545 S
H3307 N3300 0.984 . S
H3308 N3296 0.984 . S
H3309 N3296 0.985 . S
C3310 C3311 1.363 . S
C3310 C3316 1.379 . S
C3310 N3318 1.356 . S
C3311 C3310 1.363 . S
C3311 C3317 1.363 . S
C3312 C3313 1.363 . S
C3312 C3317 1.379 . S
C3312 N3319 1.356 . S
C3313 C3312 1.363 . S
C3313 C3316 1.363 . S
N3314 C3316 1.356 . S
N3314 H3326 0.984 . S
N3314 H3327 0.985 . S
N3315 C3317 1.356 . S
N3315 H3320 0.984 . S
N3315 H3321 0.985 . S
C3316 C3310 1.379 . S
C3316 C3313 1.363 . S
C3316 N3314 1.356 . S
C3317 C3311 1.363 . S
C3317 C3312 1.379 . S
C3317 N3315 1.356 . S
N3318 C3310 1.356 . S
N3318 H3324 0.984 . S
N3318 H3325 0.984 . S
N3319 C3312 1.356 . S
N3319 H3322 0.984 . S
N3319 H3323 0.985 . S
H3320 N3315 0.984 . S
H3321 N3315 0.985 . S
H3322 N3319 0.984 . S
H3323 N3319 0.985 . S
H3324 N3318 0.984 . S
H3325 N3318 0.984 . S
H3326 N3314 0.984 . S
H3327 N3314 0.985 . S
C3328 C3329 1.363 1_565 S
C3328 C3334 1.379 . S
C3328 N3336 1.356 . S
C3329 C3328 1.363 1_545 S
C3329 C3335 1.363 . S
C3330 C3331 1.363 . S
C3330 C3335 1.379 . S
C3330 N3337 1.356 . S
C3331 C3330 1.363 . S
C3331 C3334 1.363 1_545 S
N3332 C3334 1.356 . S
N3332 H3344 0.984 . S
N3332 H3345 0.985 . S
N3333 C3335 1.356 . S
N3333 H3338 0.984 . S
N3333 H3339 0.985 . S
C3334 C3328 1.379 . S
C3334 C3331 1.363 1_565 S
C3334 N3332 1.356 . S
C3335 C3329 1.363 . S
C3335 C3330 1.379 . S
C3335 N3333 1.356 . S
N3336 C3328 1.356 . S
N3336 H3342 0.984 . S
N3336 H3343 0.984 . S
N3337 C3330 1.356 . S
N3337 H3340 0.984 . S
N3337 H3341 0.985 . S
H3338 N3333 0.984 . S
H3339 N3333 0.985 . S
H3340 N3337 0.984 . S
H3341 N3337 0.985 . S
H3342 N3336 0.984 . S
H3343 N3336 0.984 . S
H3344 N3332 0.984 . S
H3345 N3332 0.985 . S
C3346 C3347 1.363 . S
C3346 C3352 1.379 . S
C3346 N3354 1.356 . S
C3347 C3346 1.363 . S
C3347 C3353 1.363 . S
C3348 C3349 1.363 . S
C3348 C3353 1.379 . S
C3348 N3355 1.356 . S
C3349 C3348 1.363 . S
C3349 C3352 1.363 . S
N3350 C3352 1.356 . S
N3350 H3362 0.984 . S
N3350 H3363 0.985 . S
N3351 C3353 1.356 . S
N3351 H3356 0.984 . S
N3351 H3357 0.985 . S
C3352 C3346 1.379 . S
C3352 C3349 1.363 . S
C3352 N3350 1.356 . S
C3353 C3347 1.363 . S
C3353 C3348 1.379 . S
C3353 N3351 1.356 . S
N3354 C3346 1.356 . S
N3354 H3360 0.984 . S
N3354 H3361 0.984 . S
N3355 C3348 1.356 . S
N3355 H3358 0.984 . S
N3355 H3359 0.985 . S
H3356 N3351 0.984 . S
H3357 N3351 0.985 . S
H3358 N3355 0.984 . S
H3359 N3355 0.985 . S
H3360 N3354 0.984 . S
H3361 N3354 0.984 . S
H3362 N3350 0.984 . S
H3363 N3350 0.985 . S
C3364 C3365 1.363 . S
C3364 C3370 1.379 . S
C3364 N3372 1.356 1_545 S
C3365 C3364 1.363 . S
C3365 C3371 1.363 . S
C3366 C3367 1.363 . S
C3366 C3371 1.379 . S
C3366 N3373 1.356 . S
C3367 C3366 1.363 . S
C3367 C3370 1.363 . S
N3368 C3370 1.367 . S
N3368 H3380 0.972 1_545 S
N3368 H3381 0.986 . S
N3369 C3371 1.356 . S
N3369 H3374 0.984 . S
N3369 H3375 0.985 . S
C3370 C3364 1.379 . S
C3370 C3367 1.363 . S
C3370 N3368 1.367 . S
C3371 C3365 1.363 . S
C3371 C3366 1.379 . S
C3371 N3369 1.356 . S
N3372 C3364 1.356 1_565 S
N3372 H3378 0.984 . S
N3372 H3379 0.984 . S
N3373 C3366 1.356 . S
N3373 H3376 0.984 . S
N3373 H3377 0.985 . S
H3374 N3369 0.984 . S
H3375 N3369 0.985 . S
H3376 N3373 0.984 . S
H3377 N3373 0.985 . S
H3378 N3372 0.984 . S
H3379 N3372 0.984 . S
H3380 N3368 0.972 1_565 S
H3381 N3368 0.986 . S
C3382 C3383 1.363 . S
C3382 C3388 1.379 . S
C3382 N3390 1.356 . S
C3383 C3382 1.363 . S
C3383 C3389 1.363 . S
C3384 C3385 1.363 . S
C3384 C3389 1.379 . S
C3384 N3391 1.356 . S
C3385 C3384 1.363 . S
C3385 C3388 1.363 . S
N3386 C3388 1.356 . S
N3386 H3398 0.984 . S
N3386 H3399 0.985 . S
N3387 C3389 1.356 . S
N3387 H3392 0.984 . S
N3387 H3393 0.985 . S
C3388 C3382 1.379 . S
C3388 C3385 1.363 . S
C3388 N3386 1.356 . S
C3389 C3383 1.363 . S
C3389 C3384 1.379 . S
C3389 N3387 1.356 . S
N3390 C3382 1.356 . S
N3390 H3396 0.984 . S
N3390 H3397 0.984 . S
N3391 C3384 1.356 . S
N3391 H3394 0.984 . S
N3391 H3395 0.985 . S
H3392 N3387 0.984 . S
H3393 N3387 0.985 . S
H3394 N3391 0.984 . S
H3395 N3391 0.985 . S
H3396 N3390 0.984 . S
H3397 N3390 0.984 . S
H3398 N3386 0.984 . S
H3399 N3386 0.985 . S
C3400 C3401 1.363 . S
C3400 C3406 1.379 1_565 S
C3400 N3408 1.356 . S
C3401 C3400 1.363 . S
C3401 C3407 1.363 1_565 S
C3402 C3403 1.363 . S
C3402 C3407 1.379 . S
C3402 N3409 1.356 . S
C3403 C3402 1.363 . S
C3403 C3406 1.363 . S
N3404 C3406 1.356 . S
N3404 H3416 0.984 1_545 S
N3404 H3417 0.985 . S
N3405 C3407 1.356 . S
N3405 H3410 0.984 . S
N3405 H3411 0.985 . S
C3406 C3400 1.379 1_545 S
C3406 C3403 1.363 . S
C3406 N3404 1.356 . S
C3407 C3401 1.363 1_545 S
C3407 C3402 1.379 . S
C3407 N3405 1.356 . S
N3408 C3400 1.356 . S
N3408 H3414 0.984 . S
N3408 H3415 0.984 . S
N3409 C3402 1.356 . S
N3409 H3412 0.984 . S
N3409 H3413 0.985 . S
H3410 N3405 0.984 . S
H3411 N3405 0.985 . S
H3412 N3409 0.984 . S
H3413 N3409 0.985 . S
H3414 N3408 0.984 . S
H3415 N3408 0.984 . S
H3416 N3404 0.984 1_565 S
H3417 N3404 0.985 . S
C3418 C3419 1.363 . S
C3418 C3424 1.379 . S
C3418 N3426 1.356 . S
C3419 C3418 1.363 . S
C3419 C3425 1.363 . S
C3420 C3421 1.363 . S
C3420 C3425 1.379 . S
C3420 N3427 1.356 . S
C3421 C3420 1.363 . S
C3421 C3424 1.363 . S
N3422 C3424 1.356 . S
N3422 H3434 0.984 . S
N3422 H3435 0.985 . S
N3423 C3425 1.356 . S
N3423 H3428 0.984 . S
N3423 H3429 0.985 . S
C3424 C3418 1.379 . S
C3424 C3421 1.363 . S
C3424 N3422 1.356 . S
C3425 C3419 1.363 . S
C3425 C3420 1.379 . S
C3425 N3423 1.356 . S
N3426 C3418 1.356 . S
N3426 H3432 0.984 . S
N3426 H3433 0.984 . S
N3427 C3420 1.356 . S
N3427 H3430 0.984 . S
N3427 H3431 0.985 . S
H3428 N3423 0.984 . S
H3429 N3423 0.985 . S
H3430 N3427 0.984 . S
H3431 N3427 0.985 . S
H3432 N3426 0.984 . S
H3433 N3426 0.984 . S
H3434 N3422 0.984 . S
H3435 N3422 0.985 . S
C3436 C3437 1.363 1_565 S
C3436 C3442 1.379 . S
C3436 N3444 1.356 . S
C3437 C3436 1.363 1_545 S
C3437 C3443 1.363 . S
C3438 C3439 1.408 . S
C3438 C3443 1.364 1_565 S
C3438 N3445 1.340 1_565 S
C3439 C3438 1.408 . S
C3439 C3442 1.363 . S
N3440 C3442 1.356 . S
N3440 H3452 0.984 . S
N3440 H3453 0.985 . S
N3441 C3443 1.356 . S
N3441 H3446 0.984 . S
N3441 H3447 0.985 . S
C3442 C3436 1.379 . S
C3442 C3439 1.363 . S
C3442 N3440 1.356 . S
C3443 C3437 1.363 . S
C3443 C3438 1.364 1_545 S
C3443 N3441 1.356 . S
N3444 C3436 1.356 . S
N3444 H3450 0.984 . S
N3444 H3451 0.984 . S
N3445 C3438 1.340 1_545 S
N3445 H3448 0.984 1_545 S
N3445 H3449 0.985 . S
H3446 N3441 0.984 . S
H3447 N3441 0.985 . S
H3448 N3445 0.984 1_565 S
H3449 N3445 0.985 . S
H3450 N3444 0.984 . S
H3451 N3444 0.984 . S
H3452 N3440 0.984 . S
H3453 N3440 0.985 . S
C3454 C3455 1.363 . S
C3454 C3460 1.379 . S
C3454 N3462 1.356 . S
C3455 C3454 1.363 . S
C3455 C3461 1.363 . S
C3456 C3457 1.363 . S
C3456 C3461 1.379 . S
C3456 N3463 1.356 . S
C3457 C3456 1.363 . S
C3457 C3460 1.363 . S
N3458 C3460 1.356 . S
N3458 H3470 0.984 . S
N3458 H3471 0.985 . S
N3459 C3461 1.356 . S
N3459 H3464 0.984 . S
N3459 H3465 0.985 . S
C3460 C3454 1.379 . S
C3460 C3457 1.363 . S
C3460 N3458 1.356 . S
C3461 C3455 1.363 . S
C3461 C3456 1.379 . S
C3461 N3459 1.356 . S
N3462 C3454 1.356 . S
N3462 H3468 0.984 . S
N3462 H3469 0.984 . S
N3463 C3456 1.356 . S
N3463 H3466 0.984 . S
N3463 H3467 0.985 . S
H3464 N3459 0.984 . S
H3465 N3459 0.985 . S
H3466 N3463 0.984 . S
H3467 N3463 0.985 . S
H3468 N3462 0.984 . S
H3469 N3462 0.984 . S
H3470 N3458 0.984 . S
H3471 N3458 0.985 . S
C3472 C3473 1.363 . S
C3472 C3478 1.379 1_554 S
C3472 N3480 1.356 . S
C3473 C3472 1.363 . S
C3473 C3479 1.363 1_554 S
C3474 C3475 1.363 . S
C3474 C3479 1.379 . S
C3474 N3481 1.356 . S
C3475 C3474 1.363 . S
C3475 C3478 1.363 . S
N3476 C3478 1.356 . S
N3476 H3488 0.984 . S
N3476 H3489 0.985 . S
N3477 C3479 1.356 1_554 S
N3477 H3482 0.984 . S
N3477 H3483 0.985 1_554 S
C3478 C3472 1.379 1_556 S
C3478 C3475 1.363 . S
C3478 N3476 1.356 . S
C3479 C3473 1.363 1_556 S
C3479 C3474 1.379 . S
C3479 N3477 1.356 1_556 S
N3480 C3472 1.356 . S
N3480 H3486 0.984 . S
N3480 H3487 0.984 . S
N3481 C3474 1.356 . S
N3481 H3484 0.984 . S
N3481 H3485 0.985 . S
H3482 N3477 0.984 . S
H3483 N3477 0.985 1_556 S
H3484 N3481 0.984 . S
H3485 N3481 0.985 . S
H3486 N3480 0.984 . S
H3487 N3480 0.984 . S
H3488 N3476 0.984 . S
H3489 N3476 0.985 . S
C3490 C3491 1.363 . S
C3490 C3496 1.379 . S
C3490 N3498 1.356 . S
C3491 C3490 1.363 . S
C3491 C3497 1.363 . S
C3492 C3493 1.363 . S
C3492 C3497 1.379 . S
C3492 N3499 1.356 . S
C3493 C3492 1.363 . S
C3493 C3496 1.363 . S
N3494 C3496 1.356 . S
N3494 H3506 0.984 . S
N3494 H3507 0.985 . S
N3495 C3497 1.356 . S
N3495 H3500 0.984 . S
N3495 H3501 0.985 . S
C3496 C3490 1.379 . S
C3496 C3493 1.363 . S
C3496 N3494 1.356 . S
C3497 C3491 1.363 . S
C3497 C3492 1.379 . S
C3497 N3495 1.356 . S
N3498 C3490 1.356 . S
N3498 H3504 0.984 . S
N3498 H3505 0.984 . S
N3499 C3492 1.356 . S
N3499 H3502 0.984 . S
N3499 H3503 0.985 . S
H3500 N3495 0.984 . S
H3501 N3495 0.985 . S
H3502 N3499 0.984 . S
H3503 N3499 0.985 . S
H3504 N3498 0.984 . S
H3505 N3498 0.984 . S
H3506 N3494 0.984 . S
H3507 N3494 0.985 . S
C3508 C3509 1.363 . S
C3508 C3514 1.379 . S
C3508 N3516 1.356 . S
C3509 C3508 1.363 . S
C3509 C3515 1.363 . S
C3510 C3511 1.363 . S
C3510 C3515 1.379 . S
C3510 N3517 1.356 . S
C3511 C3510 1.363 . S
C3511 C3514 1.363 . S
N3512 C3514 1.356 . S
N3512 H3524 0.984 . S
N3512 H3525 0.985 . S
N3513 C3515 1.356 . S
N3513 H3518 0.984 . S
N3513 H3519 0.985 . S
C3514 C3508 1.379 . S
C3514 C3511 1.363 . S
C3514 N3512 1.356 . S
C3515 C3509 1.363 . S
C3515 C3510 1.379 . S
C3515 N3513 1.356 . S
N3516 C3508 1.356 . S
N3516 H3522 0.984 . S
N3516 H3523 0.984 . S
N3517 C3510 1.356 . S
N3517 H3520 0.984 . S
N3517 H3521 0.985 . S
H3518 N3513 0.984 . S
H3519 N3513 0.985 . S
H3520 N3517 0.984 . S
H3521 N3517 0.985 . S
H3522 N3516 0.984 . S
H3523 N3516 0.984 . S
H3524 N3512 0.984 . S
H3525 N3512 0.985 . S
C3526 C3527 1.363 . S
C3526 C3532 1.379 . S
C3526 N3534 1.356 . S
C3527 C3526 1.363 . S
C3527 C3533 1.363 . S
C3528 C3529 1.363 . S
C3528 C3533 1.379 . S
C3528 N3535 1.356 . S
C3529 C3528 1.363 . S
C3529 C3532 1.363 . S
N3530 C3532 1.356 . S
N3530 H3542 0.984 . S
N3530 H3543 0.985 . S
N3531 C3533 1.356 . S
N3531 H3536 0.984 . S
N3531 H3537 0.985 . S
C3532 C3526 1.379 . S
C3532 C3529 1.363 . S
C3532 N3530 1.356 . S
C3533 C3527 1.363 . S
C3533 C3528 1.379 . S
C3533 N3531 1.356 . S
N3534 C3526 1.356 . S
N3534 H3540 0.984 . S
N3534 H3541 0.984 . S
N3535 C3528 1.356 . S
N3535 H3538 0.984 . S
N3535 H3539 0.985 . S
H3536 N3531 0.984 . S
H3537 N3531 0.985 . S
H3538 N3535 0.984 . S
H3539 N3535 0.985 . S
H3540 N3534 0.984 . S
H3541 N3534 0.984 . S
H3542 N3530 0.984 . S
H3543 N3530 0.985 . S
C3544 C3545 1.363 . S
C3544 C3550 1.379 . S
C3544 N3552 1.356 . S
C3545 C3544 1.363 . S
C3545 C3551 1.363 . S
C3546 C3547 1.363 . S
C3546 C3551 1.379 . S
C3546 N3553 1.356 . S
C3547 C3546 1.363 . S
C3547 C3550 1.363 . S
N3548 C3550 1.356 . S
N3548 H3560 0.984 . S
N3548 H3561 0.985 . S
N3549 C3551 1.356 . S
N3549 H3554 0.984 . S
N3549 H3555 0.985 . S
C3550 C3544 1.379 . S
C3550 C3547 1.363 . S
C3550 N3548 1.356 . S
C3551 C3545 1.363 . S
C3551 C3546 1.379 . S
C3551 N3549 1.356 . S
N3552 C3544 1.356 . S
N3552 H3558 0.984 . S
N3552 H3559 0.984 . S
N3553 C3546 1.356 . S
N3553 H3556 0.984 . S
N3553 H3557 0.985 . S
H3554 N3549 0.984 . S
H3555 N3549 0.985 . S
H3556 N3553 0.984 . S
H3557 N3553 0.985 . S
H3558 N3552 0.984 . S
H3559 N3552 0.984 . S
H3560 N3548 0.984 . S
H3561 N3548 0.985 . S
C3562 C3563 1.363 . S
C3562 C3568 1.379 . S
C3562 N3570 1.356 . S
C3563 C3562 1.363 . S
C3563 C3569 1.363 . S
C3564 C3565 1.363 . S
C3564 C3569 1.379 . S
C3564 N3571 1.356 . S
C3565 C3564 1.363 . S
C3565 C3568 1.363 . S
N3566 C3568 1.356 . S
N3566 H3578 0.984 1_565 S
N3566 H3579 0.985 . S
N3567 C3569 1.356 . S
N3567 H3572 0.984 . S
N3567 H3573 0.985 . S
C3568 C3562 1.379 . S
C3568 C3565 1.363 . S
C3568 N3566 1.356 . S
C3569 C3563 1.363 . S
C3569 C3564 1.379 . S
C3569 N3567 1.356 . S
N3570 C3562 1.356 . S
N3570 H3576 0.984 . S
N3570 H3577 0.984 . S
N3571 C3564 1.356 . S
N3571 H3574 0.984 . S
N3571 H3575 0.985 . S
H3572 N3567 0.984 . S
H3573 N3567 0.985 . S
H3574 N3571 0.984 . S
H3575 N3571 0.985 . S
H3576 N3570 0.984 . S
H3577 N3570 0.984 . S
H3578 N3566 0.984 1_545 S
H3579 N3566 0.985 . S
C3580 C3581 1.363 . S
C3580 C3586 1.379 . S
C3580 N3588 1.356 . S
C3581 C3580 1.363 . S
C3581 C3587 1.363 . S
C3582 C3583 1.363 . S
C3582 C3587 1.379 . S
C3582 N3589 1.356 . S
C3583 C3582 1.363 . S
C3583 C3586 1.363 . S
N3584 C3586 1.356 . S
N3584 H3596 0.984 . S
N3584 H3597 0.985 . S
N3585 C3587 1.356 . S
N3585 H3590 0.984 . S
N3585 H3591 0.985 . S
C3586 C3580 1.379 . S
C3586 C3583 1.363 . S
C3586 N3584 1.356 . S
C3587 C3581 1.363 . S
C3587 C3582 1.379 . S
C3587 N3585 1.356 . S
N3588 C3580 1.356 . S
N3588 H3594 0.984 . S
N3588 H3595 0.984 . S
N3589 C3582 1.356 . S
N3589 H3592 0.984 . S
N3589 H3593 0.985 . S
H3590 N3585 0.984 . S
H3591 N3585 0.985 . S
H3592 N3589 0.984 . S
H3593 N3589 0.985 . S
H3594 N3588 0.984 . S
H3595 N3588 0.984 . S
H3596 N3584 0.984 . S
H3597 N3584 0.985 . S
C3598 C3599 1.363 . S
C3598 C3604 1.379 . S
C3598 N3606 1.356 . S
C3599 C3598 1.363 . S
C3599 C3605 1.363 . S
C3600 C3601 1.363 . S
C3600 C3605 1.379 . S
C3600 N3607 1.356 . S
C3601 C3600 1.363 . S
C3601 C3604 1.363 . S
N3602 C3604 1.356 . S
N3602 H3614 0.984 . S
N3602 H3615 0.985 . S
N3603 C3605 1.356 . S
N3603 H3608 0.984 . S
N3603 H3609 0.985 . S
C3604 C3598 1.379 . S
C3604 C3601 1.363 . S
C3604 N3602 1.356 . S
C3605 C3599 1.363 . S
C3605 C3600 1.379 . S
C3605 N3603 1.356 . S
N3606 C3598 1.356 . S
N3606 H3612 0.984 . S
N3606 H3613 0.984 . S
N3607 C3600 1.356 . S
N3607 H3610 0.984 . S
N3607 H3611 0.985 . S
H3608 N3603 0.984 . S
H3609 N3603 0.985 . S
H3610 N3607 0.984 . S
H3611 N3607 0.985 . S
H3612 N3606 0.984 . S
H3613 N3606 0.984 . S
H3614 N3602 0.984 . S
H3615 N3602 0.985 . S
C3616 C3617 1.363 . S
C3616 C3622 1.379 . S
C3616 N3624 1.356 . S
C3617 C3616 1.363 . S
C3617 C3623 1.363 . S
C3618 C3619 1.363 . S
C3618 C3623 1.379 . S
C3618 N3625 1.356 . S
C3619 C3618 1.363 . S
C3619 C3622 1.363 . S
N3620 C3622 1.356 . S
N3620 H3632 0.984 . S
N3620 H3633 0.985 . S
N3621 C3623 1.356 . S
N3621 H3626 0.984 . S
N3621 H3627 0.985 . S
C3622 C3616 1.379 . S
C3622 C3619 1.363 . S
C3622 N3620 1.356 . S
C3623 C3617 1.363 . S
C3623 C3618 1.379 . S
C3623 N3621 1.356 . S
N3624 C3616 1.356 . S
N3624 H3630 0.984 . S
N3624 H3631 0.984 . S
N3625 C3618 1.356 . S
N3625 H3628 0.984 . S
N3625 H3629 0.985 . S
H3626 N3621 0.984 . S
H3627 N3621 0.985 . S
H3628 N3625 0.984 . S
H3629 N3625 0.985 . S
H3630 N3624 0.984 . S
H3631 N3624 0.984 . S
H3632 N3620 0.984 . S
H3633 N3620 0.985 . S
C3634 C3635 1.363 . S
C3634 C3640 1.379 . S
C3634 N3642 1.356 . S
C3635 C3634 1.363 . S
C3635 C3641 1.363 . S
C3636 C3637 1.363 . S
C3636 C3641 1.379 . S
C3636 N3643 1.356 . S
C3637 C3636 1.363 . S
C3637 C3640 1.363 . S
N3638 C3640 1.356 . S
N3638 H3650 0.984 . S
N3638 H3651 0.985 . S
N3639 C3641 1.356 . S
N3639 H3644 0.984 . S
N3639 H3645 0.985 . S
C3640 C3634 1.379 . S
C3640 C3637 1.363 . S
C3640 N3638 1.356 . S
C3641 C3635 1.363 . S
C3641 C3636 1.379 . S
C3641 N3639 1.356 . S
N3642 C3634 1.356 . S
N3642 H3648 0.984 . S
N3642 H3649 0.984 . S
N3643 C3636 1.356 . S
N3643 H3646 0.984 . S
N3643 H3647 0.985 . S
H3644 N3639 0.984 . S
H3645 N3639 0.985 . S
H3646 N3643 0.984 . S
H3647 N3643 0.985 . S
H3648 N3642 0.984 . S
H3649 N3642 0.984 . S
H3650 N3638 0.984 . S
H3651 N3638 0.985 . S
C3652 C3653 1.363 . S
C3652 C3658 1.379 . S
C3652 N3660 1.356 . S
C3653 C3652 1.363 . S
C3653 C3659 1.363 1_554 S
C3654 C3655 1.363 1_556 S
C3654 C3659 1.379 . S
C3654 N3661 1.356 . S
C3655 C3654 1.363 1_554 S
C3655 C3658 1.363 . S
N3656 C3658 1.356 . S
N3656 H3668 0.984 . S
N3656 H3669 0.985 . S
N3657 C3659 1.356 . S
N3657 H3662 0.984 . S
N3657 H3663 0.985 . S
C3658 C3652 1.379 . S
C3658 C3655 1.363 . S
C3658 N3656 1.356 . S
C3659 C3653 1.363 1_556 S
C3659 C3654 1.379 . S
C3659 N3657 1.356 . S
N3660 C3652 1.356 . S
N3660 H3666 0.984 . S
N3660 H3667 0.984 . S
N3661 C3654 1.356 . S
N3661 H3664 0.984 . S
N3661 H3665 0.985 . S
H3662 N3657 0.984 . S
H3663 N3657 0.985 . S
H3664 N3661 0.984 . S
H3665 N3661 0.985 . S
H3666 N3660 0.984 . S
H3667 N3660 0.984 . S
H3668 N3656 0.984 . S
H3669 N3656 0.985 . S
C3670 C3671 1.363 . S
C3670 C3676 1.379 . S
C3670 N3678 1.356 . S
C3671 C3670 1.363 . S
C3671 C3677 1.363 . S
C3672 C3673 1.363 . S
C3672 C3677 1.379 . S
C3672 N3679 1.356 . S
C3673 C3672 1.363 . S
C3673 C3676 1.363 . S
N3674 C3676 1.356 . S
N3674 H3686 0.984 . S
N3674 H3687 0.985 . S
N3675 C3677 1.356 . S
N3675 H3680 0.984 . S
N3675 H3681 0.985 . S
C3676 C3670 1.379 . S
C3676 C3673 1.363 . S
C3676 N3674 1.356 . S
C3677 C3671 1.363 . S
C3677 C3672 1.379 . S
C3677 N3675 1.356 . S
N3678 C3670 1.356 . S
N3678 H3684 0.984 . S
N3678 H3685 0.984 1_655 S
N3679 C3672 1.356 . S
N3679 H3682 0.984 . S
N3679 H3683 0.985 . S
H3680 N3675 0.984 . S
H3681 N3675 0.985 . S
H3682 N3679 0.984 . S
H3683 N3679 0.985 . S
H3684 N3678 0.984 . S
H3685 N3678 0.984 1_455 S
H3686 N3674 0.984 . S
H3687 N3674 0.985 . S
C3688 C3689 1.363 . S
C3688 C3694 1.379 . S
C3688 N3696 1.356 . S
C3689 C3688 1.363 . S
C3689 C3695 1.363 . S
C3690 C3691 1.363 . S
C3690 C3695 1.379 . S
C3690 N3697 1.356 . S
C3691 C3690 1.363 . S
C3691 C3694 1.363 . S
N3692 C3694 1.356 . S
N3692 H3704 0.984 . S
N3692 H3705 0.985 . S
N3693 C3695 1.356 . S
N3693 H3698 0.984 . S
N3693 H3699 0.985 . S
C3694 C3688 1.379 . S
C3694 C3691 1.363 . S
C3694 N3692 1.356 . S
C3695 C3689 1.363 . S
C3695 C3690 1.379 . S
C3695 N3693 1.356 . S
N3696 C3688 1.356 . S
N3696 H3702 0.984 . S
N3696 H3703 0.984 . S
N3697 C3690 1.356 . S
N3697 H3700 0.984 . S
N3697 H3701 0.985 . S
H3698 N3693 0.984 . S
H3699 N3693 0.985 . S
H3700 N3697 0.984 . S
H3701 N3697 0.985 . S
H3702 N3696 0.984 . S
H3703 N3696 0.984 . S
H3704 N3692 0.984 . S
H3705 N3692 0.985 . S
C3706 C3707 1.337 1_655 S
C3706 C3712 1.379 . S
C3706 N3714 1.356 1_655 S
C3707 C3706 1.337 1_455 S
C3707 C3713 1.347 1_455 S
C3708 C3709 1.363 . S
C3708 C3713 1.379 . S
C3708 N3715 1.356 . S
C3709 C3708 1.363 . S
C3709 C3712 1.363 . S
N3710 C3712 1.356 . S
N3710 H3722 0.984 . S
N3710 H3723 0.985 . S
N3711 C3713 1.356 1_455 S
N3711 H3716 0.984 . S
N3711 H3717 0.985 1_455 S
C3712 C3706 1.379 . S
C3712 C3709 1.363 . S
C3712 N3710 1.356 . S
C3713 C3707 1.347 1_655 S
C3713 C3708 1.379 . S
C3713 N3711 1.356 1_655 S
N3714 C3706 1.356 1_455 S
N3714 H3720 0.984 . S
N3714 H3721 0.984 . S
N3715 C3708 1.356 . S
N3715 H3718 0.984 . S
N3715 H3719 0.985 . S
H3716 N3711 0.984 . S
H3717 N3711 0.985 1_655 S
H3718 N3715 0.984 . S
H3719 N3715 0.985 . S
H3720 N3714 0.984 . S
H3721 N3714 0.984 . S
H3722 N3710 0.984 . S
H3723 N3710 0.985 . S
C3724 C3725 1.362 1_455 S
C3724 C3730 1.381 . S
C3724 N3732 1.354 1_455 S
C3725 C3724 1.362 1_655 S
C3725 C3731 1.363 1_655 S
C3726 C3727 1.363 . S
C3726 C3731 1.379 . S
C3726 N3733 1.356 . S
C3727 C3726 1.363 . S
C3727 C3730 1.363 . S
N3728 C3730 1.356 . S
N3728 H3740 0.984 . S
N3728 H3741 0.985 . S
N3729 C3731 1.356 1_655 S
N3729 H3734 0.984 . S
N3729 H3735 0.995 . S
C3730 C3724 1.381 . S
C3730 C3727 1.363 . S
C3730 N3728 1.356 . S
C3731 C3725 1.363 1_455 S
C3731 C3726 1.379 . S
C3731 N3729 1.356 1_455 S
N3732 C3724 1.354 1_655 S
N3732 H3738 0.984 . S
N3732 H3739 0.984 . S
N3733 C3726 1.356 . S
N3733 H3736 0.984 . S
N3733 H3737 0.985 . S
H3734 N3729 0.984 . S
H3735 N3729 0.995 . S
H3736 N3733 0.984 . S
H3737 N3733 0.985 . S
H3738 N3732 0.984 . S
H3739 N3732 0.984 . S
H3740 N3728 0.984 . S
H3741 N3728 0.985 . S
C3742 C3743 1.363 . S
C3742 C3748 1.379 . S
C3742 N3750 1.356 . S
C3743 C3742 1.363 . S
C3743 C3749 1.363 . S
C3744 C3745 1.363 . S
C3744 C3749 1.379 . S
C3744 N3751 1.356 . S
C3745 C3744 1.363 . S
C3745 C3748 1.363 . S
N3746 C3748 1.356 . S
N3746 H3758 0.984 . S
N3746 H3759 0.985 . S
N3747 C3749 1.356 . S
N3747 H3752 0.984 . S
N3747 H3753 0.985 . S
C3748 C3742 1.379 . S
C3748 C3745 1.363 . S
C3748 N3746 1.356 . S
C3749 C3743 1.363 . S
C3749 C3744 1.379 . S
C3749 N3747 1.356 . S
N3750 C3742 1.356 . S
N3750 H3756 0.984 . S
N3750 H3757 0.984 . S
N3751 C3744 1.356 . S
N3751 H3754 0.984 . S
N3751 H3755 0.985 . S
H3752 N3747 0.984 . S
H3753 N3747 0.985 . S
H3754 N3751 0.984 . S
H3755 N3751 0.985 . S
H3756 N3750 0.984 . S
H3757 N3750 0.984 . S
H3758 N3746 0.984 . S
H3759 N3746 0.985 . S
C3760 C3761 1.363 . S
C3760 C3766 1.379 . S
C3760 N3768 1.356 . S
C3761 C3760 1.363 . S
C3761 C3767 1.363 . S
C3762 C3763 1.363 . S
C3762 C3767 1.379 . S
C3762 N3769 1.356 . S
C3763 C3762 1.363 . S
C3763 C3766 1.363 . S
N3764 C3766 1.356 . S
N3764 H3776 0.984 . S
N3764 H3777 0.985 . S
N3765 C3767 1.356 . S
N3765 H3770 0.984 . S
N3765 H3771 0.985 . S
C3766 C3760 1.379 . S
C3766 C3763 1.363 . S
C3766 N3764 1.356 . S
C3767 C3761 1.363 . S
C3767 C3762 1.379 . S
C3767 N3765 1.356 . S
N3768 C3760 1.356 . S
N3768 H3774 0.984 . S
N3768 H3775 0.984 . S
N3769 C3762 1.356 . S
N3769 H3772 0.984 . S
N3769 H3773 0.985 . S
H3770 N3765 0.984 . S
H3771 N3765 0.985 . S
H3772 N3769 0.984 . S
H3773 N3769 0.985 . S
H3774 N3768 0.984 . S
H3775 N3768 0.984 . S
H3776 N3764 0.984 . S
H3777 N3764 0.985 . S
C3778 C3779 1.363 . S
C3778 C3784 1.379 . S
C3778 N3786 1.356 . S
C3779 C3778 1.363 . S
C3779 C3785 1.363 . S
C3780 C3781 1.363 . S
C3780 C3785 1.379 . S
C3780 N3787 1.356 . S
C3781 C3780 1.363 . S
C3781 C3784 1.363 . S
N3782 C3784 1.356 . S
N3782 H3794 0.984 . S
N3782 H3795 0.985 . S
N3783 C3785 1.356 . S
N3783 H3788 0.984 . S
N3783 H3789 0.985 . S
C3784 C3778 1.379 . S
C3784 C3781 1.363 . S
C3784 N3782 1.356 . S
C3785 C3779 1.363 . S
C3785 C3780 1.379 . S
C3785 N3783 1.356 . S
N3786 C3778 1.356 . S
N3786 H3792 0.984 . S
N3786 H3793 0.984 . S
N3787 C3780 1.356 . S
N3787 H3790 0.984 . S
N3787 H3791 0.985 . S
H3788 N3783 0.984 . S
H3789 N3783 0.985 . S
H3790 N3787 0.984 . S
H3791 N3787 0.985 . S
H3792 N3786 0.984 . S
H3793 N3786 0.984 . S
H3794 N3782 0.984 . S
H3795 N3782 0.985 . S
C3796 C3797 1.363 . S
C3796 C3802 1.379 . S
C3796 N3804 1.356 . S
C3797 C3796 1.363 . S
C3797 C3803 1.363 . S
C3798 C3799 1.363 . S
C3798 C3803 1.379 . S
C3798 N3805 1.356 . S
C3799 C3798 1.363 . S
C3799 C3802 1.363 . S
N3800 C3802 1.356 . S
N3800 H3812 0.984 . S
N3800 H3813 0.985 . S
N3801 C3803 1.356 . S
N3801 H3806 0.984 . S
N3801 H3807 0.985 . S
C3802 C3796 1.379 . S
C3802 C3799 1.363 . S
C3802 N3800 1.356 . S
C3803 C3797 1.363 . S
C3803 C3798 1.379 . S
C3803 N3801 1.356 . S
N3804 C3796 1.356 . S
N3804 H3810 0.984 . S
N3804 H3811 0.984 . S
N3805 C3798 1.356 . S
N3805 H3808 0.984 . S
N3805 H3809 0.985 . S
H3806 N3801 0.984 . S
H3807 N3801 0.985 . S
H3808 N3805 0.984 . S
H3809 N3805 0.985 . S
H3810 N3804 0.984 . S
H3811 N3804 0.984 . S
H3812 N3800 0.984 . S
H3813 N3800 0.985 . S
C3814 C3815 1.363 . S
C3814 C3820 1.379 . S
C3814 N3822 1.356 . S
C3815 C3814 1.363 . S
C3815 C3821 1.363 . S
C3816 C3817 1.363 . S
C3816 C3821 1.379 . S
C3816 N3823 1.356 . S
C3817 C3816 1.363 . S
C3817 C3820 1.363 . S
N3818 C3820 1.356 . S
N3818 H3830 0.984 . S
N3818 H3831 0.985 . S
N3819 C3821 1.356 . S
N3819 H3824 0.984 . S
N3819 H3825 0.985 . S
C3820 C3814 1.379 . S
C3820 C3817 1.363 . S
C3820 N3818 1.356 . S
C3821 C3815 1.363 . S
C3821 C3816 1.379 . S
C3821 N3819 1.356 . S
N3822 C3814 1.356 . S
N3822 H3828 0.984 . S
N3822 H3829 0.984 . S
N3823 C3816 1.356 . S
N3823 H3826 0.984 . S
N3823 H3827 0.985 . S
H3824 N3819 0.984 . S
H3825 N3819 0.985 . S
H3826 N3823 0.984 . S
H3827 N3823 0.985 . S
H3828 N3822 0.984 . S
H3829 N3822 0.984 . S
H3830 N3818 0.984 . S
H3831 N3818 0.985 . S
C3832 C3833 1.363 . S
C3832 C3838 1.379 . S
C3832 N3840 1.356 . S
C3833 C3832 1.363 . S
C3833 C3839 1.363 . S
C3834 C3835 1.363 . S
C3834 C3839 1.379 . S
C3834 N3841 1.356 . S
C3835 C3834 1.363 . S
C3835 C3838 1.363 . S
N3836 C3838 1.356 . S
N3836 H3848 0.984 . S
N3836 H3849 0.985 . S
N3837 C3839 1.356 . S
N3837 H3842 0.984 . S
N3837 H3843 0.985 . S
C3838 C3832 1.379 . S
C3838 C3835 1.363 . S
C3838 N3836 1.356 . S
C3839 C3833 1.363 . S
C3839 C3834 1.379 . S
C3839 N3837 1.356 . S
N3840 C3832 1.356 . S
N3840 H3846 0.984 . S
N3840 H3847 0.984 . S
N3841 C3834 1.356 . S
N3841 H3844 0.984 . S
N3841 H3845 0.985 . S
H3842 N3837 0.984 . S
H3843 N3837 0.985 . S
H3844 N3841 0.984 . S
H3845 N3841 0.985 . S
H3846 N3840 0.984 . S
H3847 N3840 0.984 . S
H3848 N3836 0.984 . S
H3849 N3836 0.985 . S
C3850 C3851 1.363 . S
C3850 C3856 1.379 . S
C3850 N3858 1.356 . S
C3851 C3850 1.363 . S
C3851 C3857 1.363 . S
C3852 C3853 1.363 . S
C3852 C3857 1.379 . S
C3852 N3859 1.356 . S
C3853 C3852 1.363 . S
C3853 C3856 1.363 . S
N3854 C3856 1.356 . S
N3854 H3866 0.984 . S
N3854 H3867 0.985 . S
N3855 C3857 1.356 . S
N3855 H3860 0.984 . S
N3855 H3861 0.985 . S
C3856 C3850 1.379 . S
C3856 C3853 1.363 . S
C3856 N3854 1.356 . S
C3857 C3851 1.363 . S
C3857 C3852 1.379 . S
C3857 N3855 1.356 . S
N3858 C3850 1.356 . S
N3858 H3864 0.984 . S
N3858 H3865 0.984 . S
N3859 C3852 1.356 . S
N3859 H3862 0.984 . S
N3859 H3863 0.985 . S
H3860 N3855 0.984 . S
H3861 N3855 0.985 . S
H3862 N3859 0.984 . S
H3863 N3859 0.985 . S
H3864 N3858 0.984 . S
H3865 N3858 0.984 . S
H3866 N3854 0.984 . S
H3867 N3854 0.985 . S
C3868 C3869 1.363 . S
C3868 C3874 1.379 . S
C3868 N3876 1.356 . S
C3869 C3868 1.363 . S
C3869 C3875 1.363 . S
C3870 C3871 1.363 . S
C3870 C3875 1.379 . S
C3870 N3877 1.356 . S
C3871 C3870 1.363 . S
C3871 C3874 1.363 . S
N3872 C3874 1.356 . S
N3872 H3884 0.984 . S
N3872 H3885 0.985 . S
N3873 C3875 1.356 . S
N3873 H3878 0.984 . S
N3873 H3879 0.985 . S
C3874 C3868 1.379 . S
C3874 C3871 1.363 . S
C3874 N3872 1.356 . S
C3875 C3869 1.363 . S
C3875 C3870 1.379 . S
C3875 N3873 1.356 . S
N3876 C3868 1.356 . S
N3876 H3882 0.984 . S
N3876 H3883 0.984 . S
N3877 C3870 1.356 . S
N3877 H3880 0.984 . S
N3877 H3881 0.985 . S
H3878 N3873 0.984 . S
H3879 N3873 0.985 . S
H3880 N3877 0.984 . S
H3881 N3877 0.985 . S
H3882 N3876 0.984 . S
H3883 N3876 0.984 . S
H3884 N3872 0.984 . S
H3885 N3872 0.985 . S
C3886 C3887 1.363 . S
C3886 C3892 1.379 . S
C3886 N3894 1.356 . S
C3887 C3886 1.363 . S
C3887 C3893 1.363 . S
C3888 C3889 1.363 . S
C3888 C3893 1.379 . S
C3888 N3895 1.356 . S
C3889 C3888 1.363 . S
C3889 C3892 1.363 . S
N3890 C3892 1.356 . S
N3890 H3902 0.984 . S
N3890 H3903 0.985 . S
N3891 C3893 1.356 . S
N3891 H3896 0.984 . S
N3891 H3897 0.985 . S
C3892 C3886 1.379 . S
C3892 C3889 1.363 . S
C3892 N3890 1.356 . S
C3893 C3887 1.363 . S
C3893 C3888 1.379 . S
C3893 N3891 1.356 . S
N3894 C3886 1.356 . S
N3894 H3900 0.984 . S
N3894 H3901 0.984 . S
N3895 C3888 1.356 . S
N3895 H3898 0.984 . S
N3895 H3899 0.985 . S
H3896 N3891 0.984 . S
H3897 N3891 0.985 . S
H3898 N3895 0.984 . S
H3899 N3895 0.985 . S
H3900 N3894 0.984 . S
H3901 N3894 0.984 . S
H3902 N3890 0.984 . S
H3903 N3890 0.985 . S
C3904 C3905 1.363 . S
C3904 C3910 1.379 . S
C3904 N3912 1.356 . S
C3905 C3904 1.363 . S
C3905 C3911 1.363 . S
C3906 C3907 1.363 . S
C3906 C3911 1.379 . S
C3906 N3913 1.356 . S
C3907 C3906 1.363 . S
C3907 C3910 1.363 . S
N3908 C3910 1.356 . S
N3908 H3920 0.984 . S
N3908 H3921 0.985 . S
N3909 C3911 1.356 . S
N3909 H3914 0.984 . S
N3909 H3915 0.985 . S
C3910 C3904 1.379 . S
C3910 C3907 1.363 . S
C3910 N3908 1.356 . S
C3911 C3905 1.363 . S
C3911 C3906 1.379 . S
C3911 N3909 1.356 . S
N3912 C3904 1.356 . S
N3912 H3918 0.984 . S
N3912 H3919 0.984 . S
N3913 C3906 1.356 . S
N3913 H3916 0.984 . S
N3913 H3917 0.985 . S
H3914 N3909 0.984 . S
H3915 N3909 0.985 . S
H3916 N3913 0.984 . S
H3917 N3913 0.985 . S
H3918 N3912 0.984 . S
H3919 N3912 0.984 . S
H3920 N3908 0.984 . S
H3921 N3908 0.985 . S
C3922 C3923 1.363 . S
C3922 C3928 1.379 . S
C3922 N3930 1.356 . S
C3923 C3922 1.363 . S
C3923 C3929 1.363 . S
C3924 C3925 1.363 . S
C3924 C3929 1.379 . S
C3924 N3931 1.356 . S
C3925 C3924 1.363 . S
C3925 C3928 1.363 . S
N3926 C3928 1.356 . S
N3926 H3938 0.984 . S
N3926 H3939 0.985 . S
N3927 C3929 1.356 . S
N3927 H3932 0.984 . S
N3927 H3933 0.985 . S
C3928 C3922 1.379 . S
C3928 C3925 1.363 . S
C3928 N3926 1.356 . S
C3929 C3923 1.363 . S
C3929 C3924 1.379 . S
C3929 N3927 1.356 . S
N3930 C3922 1.356 . S
N3930 H3936 0.984 . S
N3930 H3937 0.984 . S
N3931 C3924 1.356 . S
N3931 H3934 0.984 . S
N3931 H3935 0.985 . S
H3932 N3927 0.984 . S
H3933 N3927 0.985 . S
H3934 N3931 0.984 . S
H3935 N3931 0.985 . S
H3936 N3930 0.984 . S
H3937 N3930 0.984 . S
H3938 N3926 0.984 . S
H3939 N3926 0.985 . S
C3940 C3941 1.363 . S
C3940 C3946 1.379 . S
C3940 N3948 1.356 . S
C3941 C3940 1.363 . S
C3941 C3947 1.363 . S
C3942 C3943 1.363 . S
C3942 C3947 1.379 . S
C3942 N3949 1.356 . S
C3943 C3942 1.363 . S
C3943 C3946 1.363 . S
N3944 C3946 1.356 . S
N3944 H3956 0.984 . S
N3944 H3957 0.985 . S
N3945 C3947 1.356 . S
N3945 H3950 0.984 . S
N3945 H3951 0.985 . S
C3946 C3940 1.379 . S
C3946 C3943 1.363 . S
C3946 N3944 1.356 . S
C3947 C3941 1.363 . S
C3947 C3942 1.379 . S
C3947 N3945 1.356 . S
N3948 C3940 1.356 . S
N3948 H3954 0.984 . S
N3948 H3955 0.984 . S
N3949 C3942 1.356 . S
N3949 H3952 0.984 . S
N3949 H3953 0.985 . S
H3950 N3945 0.984 . S
H3951 N3945 0.985 . S
H3952 N3949 0.984 . S
H3953 N3949 0.985 . S
H3954 N3948 0.984 . S
H3955 N3948 0.984 . S
H3956 N3944 0.984 . S
H3957 N3944 0.985 . S
C3958 C3959 1.388 . S
C3958 C3964 1.369 1_545 S
C3958 N3966 1.348 1_545 S
C3959 C3958 1.388 . S
C3959 C3965 1.363 . S
C3960 C3961 1.376 . S
C3960 C3965 1.385 . S
C3960 N3967 1.340 1_554 S
C3961 C3960 1.376 . S
C3961 C3964 1.363 1_545 S
N3962 C3964 1.356 . S
N3962 H3974 0.984 . S
N3962 H3975 0.985 . S
N3963 C3965 1.356 1_556 S
N3963 H3968 0.984 1_556 S
N3963 H3969 0.985 . S
C3964 C3958 1.369 1_565 S
C3964 C3961 1.363 1_565 S
C3964 N3962 1.356 . S
C3965 C3959 1.363 . S
C3965 C3960 1.385 . S
C3965 N3963 1.356 1_554 S
N3966 C3958 1.348 1_565 S
N3966 H3972 0.984 . S
N3966 H3973 0.984 . S
N3967 C3960 1.340 1_556 S
N3967 H3970 0.984 . S
N3967 H3971 0.985 . S
H3968 N3963 0.984 1_554 S
H3969 N3963 0.985 . S
H3970 N3967 0.984 . S
H3971 N3967 0.985 . S
H3972 N3966 0.984 . S
H3973 N3966 0.984 . S
H3974 N3962 0.984 . S
H3975 N3962 0.985 . S
C3976 C3977 1.363 . S
C3976 C3982 1.379 . S
C3976 N3984 1.356 . S
C3977 C3976 1.363 . S
C3977 C3983 1.363 . S
C3978 C3979 1.363 . S
C3978 C3983 1.379 . S
C3978 N3985 1.356 . S
C3979 C3978 1.363 . S
C3979 C3982 1.363 . S
N3980 C3982 1.356 . S
N3980 H3992 0.984 . S
N3980 H3993 0.985 . S
N3981 C3983 1.356 . S
N3981 H3986 0.984 . S
N3981 H3987 0.985 . S
C3982 C3976 1.379 . S
C3982 C3979 1.363 . S
C3982 N3980 1.356 . S
C3983 C3977 1.363 . S
C3983 C3978 1.379 . S
C3983 N3981 1.356 . S
N3984 C3976 1.356 . S
N3984 H3990 0.984 . S
N3984 H3991 0.984 . S
N3985 C3978 1.356 . S
N3985 H3988 0.984 . S
N3985 H3989 0.985 . S
H3986 N3981 0.984 . S
H3987 N3981 0.985 . S
H3988 N3985 0.984 . S
H3989 N3985 0.985 . S
H3990 N3984 0.984 . S
H3991 N3984 0.984 . S
H3992 N3980 0.984 . S
H3993 N3980 0.985 . S
C3994 C3995 1.363 . S
C3994 C4000 1.379 . S
C3994 N4002 1.356 . S
C3995 C3994 1.363 . S
C3995 C4001 1.363 . S
C3996 C3997 1.363 . S
C3996 C4001 1.379 . S
C3996 N4003 1.356 . S
C3997 C3996 1.363 . S
C3997 C4000 1.363 . S
N3998 C4000 1.356 . S
N3998 H4010 0.984 . S
N3998 H4011 0.985 . S
N3999 C4001 1.356 1_556 S
N3999 H4004 0.984 . S
N3999 H4005 0.985 . S
C4000 C3994 1.379 . S
C4000 C3997 1.363 . S
C4000 N3998 1.356 . S
C4001 C3995 1.363 . S
C4001 C3996 1.379 . S
C4001 N3999 1.356 1_554 S
N4002 C3994 1.356 . S
N4002 H4008 0.984 . S
N4002 H4009 0.984 . S
N4003 C3996 1.356 . S
N4003 H4006 0.984 . S
N4003 H4007 0.985 . S
H4004 N3999 0.984 . S
H4005 N3999 0.985 . S
H4006 N4003 0.984 . S
H4007 N4003 0.985 . S
H4008 N4002 0.984 . S
H4009 N4002 0.984 . S
H4010 N3998 0.984 . S
H4011 N3998 0.985 . S
C4012 C4013 1.363 . S
C4012 C4018 1.379 . S
C4012 N4020 1.356 . S
C4013 C4012 1.363 . S
C4013 C4019 1.363 . S
C4014 C4015 1.363 . S
C4014 C4019 1.379 . S
C4014 N4021 1.356 . S
C4015 C4014 1.363 . S
C4015 C4018 1.363 . S
N4016 C4018 1.356 . S
N4016 H4028 0.984 . S
N4016 H4029 0.985 . S
N4017 C4019 1.356 . S
N4017 H4022 0.984 . S
N4017 H4023 0.985 . S
C4018 C4012 1.379 . S
C4018 C4015 1.363 . S
C4018 N4016 1.356 . S
C4019 C4013 1.363 . S
C4019 C4014 1.379 . S
C4019 N4017 1.356 . S
N4020 C4012 1.356 . S
N4020 H4026 0.984 . S
N4020 H4027 0.984 . S
N4021 C4014 1.356 . S
N4021 H4024 0.984 . S
N4021 H4025 0.985 . S
H4022 N4017 0.984 . S
H4023 N4017 0.985 . S
H4024 N4021 0.984 . S
H4025 N4021 0.985 . S
H4026 N4020 0.984 . S
H4027 N4020 0.984 . S
H4028 N4016 0.984 . S
H4029 N4016 0.985 . S
C4030 C4031 1.363 . S
C4030 C4036 1.379 . S
C4030 N4038 1.356 . S
C4031 C4030 1.363 . S
C4031 C4037 1.363 . S
C4032 C4033 1.363 . S
C4032 C4037 1.379 . S
C4032 N4039 1.356 . S
C4033 C4032 1.363 . S
C4033 C4036 1.363 . S
N4034 C4036 1.356 . S
N4034 H4046 0.984 . S
N4034 H4047 0.985 . S
N4035 C4037 1.356 . S
N4035 H4040 0.984 . S
N4035 H4041 0.985 . S
C4036 C4030 1.379 . S
C4036 C4033 1.363 . S
C4036 N4034 1.356 . S
C4037 C4031 1.363 . S
C4037 C4032 1.379 . S
C4037 N4035 1.356 . S
N4038 C4030 1.356 . S
N4038 H4044 0.984 . S
N4038 H4045 0.984 . S
N4039 C4032 1.356 . S
N4039 H4042 0.984 . S
N4039 H4043 0.985 . S
H4040 N4035 0.984 . S
H4041 N4035 0.985 . S
H4042 N4039 0.984 . S
H4043 N4039 0.985 . S
H4044 N4038 0.984 . S
H4045 N4038 0.984 . S
H4046 N4034 0.984 . S
H4047 N4034 0.985 . S
C4048 C4049 1.363 . S
C4048 C4054 1.379 . S
C4048 N4056 1.356 . S
C4049 C4048 1.363 . S
C4049 C4055 1.363 . S
C4050 C4051 1.363 . S
C4050 C4055 1.379 . S
C4050 N4057 1.356 . S
C4051 C4050 1.363 . S
C4051 C4054 1.363 . S
N4052 C4054 1.356 . S
N4052 H4064 0.984 . S
N4052 H4065 0.985 . S
N4053 C4055 1.356 . S
N4053 H4058 0.984 . S
N4053 H4059 0.985 . S
C4054 C4048 1.379 . S
C4054 C4051 1.363 . S
C4054 N4052 1.356 . S
C4055 C4049 1.363 . S
C4055 C4050 1.379 . S
C4055 N4053 1.356 . S
N4056 C4048 1.356 . S
N4056 H4062 0.984 . S
N4056 H4063 0.984 . S
N4057 C4050 1.356 . S
N4057 H4060 0.984 . S
N4057 H4061 0.985 . S
H4058 N4053 0.984 . S
H4059 N4053 0.985 . S
H4060 N4057 0.984 . S
H4061 N4057 0.985 . S
H4062 N4056 0.984 . S
H4063 N4056 0.984 . S
H4064 N4052 0.984 . S
H4065 N4052 0.985 . S
C4066 C4067 1.363 . S
C4066 C4072 1.379 . S
C4066 N4074 1.356 . S
C4067 C4066 1.363 . S
C4067 C4073 1.363 . S
C4068 C4069 1.363 . S
C4068 C4073 1.379 . S
C4068 N4075 1.356 . S
C4069 C4068 1.363 . S
C4069 C4072 1.363 . S
N4070 C4072 1.356 . S
N4070 H4082 0.984 . S
N4070 H4083 0.985 . S
N4071 C4073 1.356 . S
N4071 H4076 0.984 . S
N4071 H4077 0.985 . S
C4072 C4066 1.379 . S
C4072 C4069 1.363 . S
C4072 N4070 1.356 . S
C4073 C4067 1.363 . S
C4073 C4068 1.379 . S
C4073 N4071 1.356 . S
N4074 C4066 1.356 . S
N4074 H4080 0.984 . S
N4074 H4081 0.984 . S
N4075 C4068 1.356 . S
N4075 H4078 0.984 . S
N4075 H4079 0.985 . S
H4076 N4071 0.984 . S
H4077 N4071 0.985 . S
H4078 N4075 0.984 . S
H4079 N4075 0.985 . S
H4080 N4074 0.984 . S
H4081 N4074 0.984 . S
H4082 N4070 0.984 . S
H4083 N4070 0.985 . S
C4084 C4085 1.363 . S
C4084 C4090 1.379 . S
C4084 N4092 1.356 . S
C4085 C4084 1.363 . S
C4085 C4091 1.363 . S
C4086 C4087 1.363 . S
C4086 C4091 1.379 . S
C4086 N4093 1.356 1_554 S
C4087 C4086 1.363 . S
C4087 C4090 1.363 . S
N4088 C4090 1.356 . S
N4088 H4100 0.984 . S
N4088 H4101 0.985 . S
N4089 C4091 1.356 1_556 S
N4089 H4094 0.984 . S
N4089 H4095 0.985 . S
C4090 C4084 1.379 . S
C4090 C4087 1.363 . S
C4090 N4088 1.356 . S
C4091 C4085 1.363 . S
C4091 C4086 1.379 . S
C4091 N4089 1.356 1_554 S
N4092 C4084 1.356 . S
N4092 H4098 0.984 . S
N4092 H4099 0.984 . S
N4093 C4086 1.356 1_556 S
N4093 H4096 0.984 . S
N4093 H4097 0.985 . S
H4094 N4089 0.984 . S
H4095 N4089 0.985 . S
H4096 N4093 0.984 . S
H4097 N4093 0.985 . S
H4098 N4092 0.984 . S
H4099 N4092 0.984 . S
H4100 N4088 0.984 . S
H4101 N4088 0.985 . S
C4102 C4103 1.363 . S
C4102 C4108 1.379 . S
C4102 N4110 1.356 . S
C4103 C4102 1.363 . S
C4103 C4109 1.363 . S
C4104 C4105 1.363 . S
C4104 C4109 1.379 . S
C4104 N4111 1.356 . S
C4105 C4104 1.363 . S
C4105 C4108 1.363 . S
N4106 C4108 1.356 . S
N4106 H4118 0.984 . S
N4106 H4119 0.985 . S
N4107 C4109 1.356 . S
N4107 H4112 0.984 . S
N4107 H4113 0.985 . S
C4108 C4102 1.379 . S
C4108 C4105 1.363 . S
C4108 N4106 1.356 . S
C4109 C4103 1.363 . S
C4109 C4104 1.379 . S
C4109 N4107 1.356 . S
N4110 C4102 1.356 . S
N4110 H4116 0.984 . S
N4110 H4117 0.984 . S
N4111 C4104 1.356 . S
N4111 H4114 0.984 . S
N4111 H4115 0.985 . S
H4112 N4107 0.984 . S
H4113 N4107 0.985 . S
H4114 N4111 0.984 . S
H4115 N4111 0.985 . S
H4116 N4110 0.984 . S
H4117 N4110 0.984 . S
H4118 N4106 0.984 . S
H4119 N4106 0.985 . S
C4120 C4121 1.363 . S
C4120 C4126 1.379 . S
C4120 N4128 1.356 . S
C4121 C4120 1.363 . S
C4121 C4127 1.363 . S
C4122 C4123 1.363 . S
C4122 C4127 1.379 . S
C4122 N4129 1.356 . S
C4123 C4122 1.363 . S
C4123 C4126 1.363 . S
N4124 C4126 1.356 . S
N4124 H4136 0.984 . S
N4124 H4137 0.985 . S
N4125 C4127 1.356 . S
N4125 H4130 0.984 . S
N4125 H4131 0.985 . S
C4126 C4120 1.379 . S
C4126 C4123 1.363 . S
C4126 N4124 1.356 . S
C4127 C4121 1.363 . S
C4127 C4122 1.379 . S
C4127 N4125 1.356 . S
N4128 C4120 1.356 . S
N4128 H4134 0.984 . S
N4128 H4135 0.984 . S
N4129 C4122 1.356 . S
N4129 H4132 0.984 . S
N4129 H4133 0.985 1_556 S
H4130 N4125 0.984 . S
H4131 N4125 0.985 . S
H4132 N4129 0.984 . S
H4133 N4129 0.985 1_554 S
H4134 N4128 0.984 . S
H4135 N4128 0.984 . S
H4136 N4124 0.984 . S
H4137 N4124 0.985 . S
C4138 C4139 1.363 . S
C4138 C4144 1.379 . S
C4138 N4146 1.356 . S
C4139 C4138 1.363 . S
C4139 C4145 1.363 . S
C4140 C4141 1.363 . S
C4140 C4145 1.379 . S
C4140 N4147 1.356 . S
C4141 C4140 1.363 . S
C4141 C4144 1.363 . S
N4142 C4144 1.356 . S
N4142 H4154 0.984 . S
N4142 H4155 0.985 . S
N4143 C4145 1.356 . S
N4143 H4148 0.984 . S
N4143 H4149 0.985 . S
C4144 C4138 1.379 . S
C4144 C4141 1.363 . S
C4144 N4142 1.356 . S
C4145 C4139 1.363 . S
C4145 C4140 1.379 . S
C4145 N4143 1.356 . S
N4146 C4138 1.356 . S
N4146 H4152 0.984 . S
N4146 H4153 0.984 . S
N4147 C4140 1.356 . S
N4147 H4150 0.984 . S
N4147 H4151 0.985 . S
H4148 N4143 0.984 . S
H4149 N4143 0.985 . S
H4150 N4147 0.984 . S
H4151 N4147 0.985 . S
H4152 N4146 0.984 . S
H4153 N4146 0.984 . S
H4154 N4142 0.984 . S
H4155 N4142 0.985 . S
C4156 C4157 1.363 . S
C4156 C4162 1.379 . S
C4156 N4164 1.356 . S
C4157 C4156 1.363 . S
C4157 C4163 1.363 . S
C4158 C4159 1.363 . S
C4158 C4163 1.379 . S
C4158 N4165 1.356 . S
C4159 C4158 1.363 . S
C4159 C4162 1.363 . S
N4160 C4162 1.356 . S
N4160 H4172 0.984 . S
N4160 H4173 0.985 . S
N4161 C4163 1.356 . S
N4161 H4166 0.984 . S
N4161 H4167 0.985 . S
C4162 C4156 1.379 . S
C4162 C4159 1.363 . S
C4162 N4160 1.356 . S
C4163 C4157 1.363 . S
C4163 C4158 1.379 . S
C4163 N4161 1.356 . S
N4164 C4156 1.356 . S
N4164 H4170 0.984 . S
N4164 H4171 0.984 . S
N4165 C4158 1.356 . S
N4165 H4168 0.984 . S
N4165 H4169 0.985 . S
H4166 N4161 0.984 . S
H4167 N4161 0.985 . S
H4168 N4165 0.984 . S
H4169 N4165 0.985 . S
H4170 N4164 0.984 . S
H4171 N4164 0.984 . S
H4172 N4160 0.984 . S
H4173 N4160 0.985 . S
C4174 C4175 1.363 . S
C4174 C4180 1.379 . S
C4174 N4182 1.356 . S
C4175 C4174 1.363 . S
C4175 C4181 1.363 . S
C4176 C4177 1.363 . S
C4176 C4181 1.379 . S
C4176 N4183 1.356 . S
C4177 C4176 1.363 . S
C4177 C4180 1.363 . S
N4178 C4180 1.356 . S
N4178 H4190 0.984 . S
N4178 H4191 0.985 . S
N4179 C4181 1.356 . S
N4179 H4184 0.984 . S
N4179 H4185 0.985 . S
C4180 C4174 1.379 . S
C4180 C4177 1.363 . S
C4180 N4178 1.356 . S
C4181 C4175 1.363 . S
C4181 C4176 1.379 . S
C4181 N4179 1.356 . S
N4182 C4174 1.356 . S
N4182 H4188 0.984 . S
N4182 H4189 0.984 . S
N4183 C4176 1.356 . S
N4183 H4186 0.984 . S
N4183 H4187 0.985 . S
H4184 N4179 0.984 . S
H4185 N4179 0.985 . S
H4186 N4183 0.984 . S
H4187 N4183 0.985 . S
H4188 N4182 0.984 . S
H4189 N4182 0.984 . S
H4190 N4178 0.984 . S
H4191 N4178 0.985 . S
C4192 C4193 1.363 . S
C4192 C4198 1.379 . S
C4192 N4200 1.356 . S
C4193 C4192 1.363 . S
C4193 C4199 1.363 . S
C4194 C4195 1.363 . S
C4194 C4199 1.379 . S
C4194 N4201 1.356 . S
C4195 C4194 1.363 . S
C4195 C4198 1.363 . S
N4196 C4198 1.356 . S
N4196 H4208 0.984 . S
N4196 H4209 0.985 . S
N4197 C4199 1.356 . S
N4197 H4202 0.984 . S
N4197 H4203 0.985 . S
C4198 C4192 1.379 . S
C4198 C4195 1.363 . S
C4198 N4196 1.356 . S
C4199 C4193 1.363 . S
C4199 C4194 1.379 . S
C4199 N4197 1.356 . S
N4200 C4192 1.356 . S
N4200 H4206 0.984 . S
N4200 H4207 0.984 . S
N4201 C4194 1.356 . S
N4201 H4204 0.984 . S
N4201 H4205 0.985 . S
H4202 N4197 0.984 . S
H4203 N4197 0.985 . S
H4204 N4201 0.984 . S
H4205 N4201 0.985 . S
H4206 N4200 0.984 . S
H4207 N4200 0.984 . S
H4208 N4196 0.984 . S
H4209 N4196 0.985 . S
C4210 C4211 1.363 . S
C4210 C4216 1.379 . S
C4210 N4218 1.356 . S
C4211 C4210 1.363 . S
C4211 C4217 1.363 . S
C4212 C4213 1.363 . S
C4212 C4217 1.379 . S
C4212 N4219 1.356 . S
C4213 C4212 1.363 . S
C4213 C4216 1.363 . S
N4214 C4216 1.356 . S
N4214 H4226 0.984 . S
N4214 H4227 0.985 . S
N4215 C4217 1.356 . S
N4215 H4220 0.984 . S
N4215 H4221 0.985 . S
C4216 C4210 1.379 . S
C4216 C4213 1.363 . S
C4216 N4214 1.356 . S
C4217 C4211 1.363 . S
C4217 C4212 1.379 . S
C4217 N4215 1.356 . S
N4218 C4210 1.356 . S
N4218 H4224 0.984 . S
N4218 H4225 0.984 . S
N4219 C4212 1.356 . S
N4219 H4222 0.984 . S
N4219 H4223 0.985 . S
H4220 N4215 0.984 . S
H4221 N4215 0.985 . S
H4222 N4219 0.984 . S
H4223 N4219 0.985 . S
H4224 N4218 0.984 . S
H4225 N4218 0.984 . S
H4226 N4214 0.984 . S
H4227 N4214 0.985 . S
C4228 C4229 1.363 . S
C4228 C4234 1.379 . S
C4228 N4236 1.356 . S
C4229 C4228 1.363 . S
C4229 C4235 1.357 1_455 S
C4230 C4231 1.363 . S
C4230 C4235 1.367 1_455 S
C4230 N4237 1.356 . S
C4231 C4230 1.363 . S
C4231 C4234 1.363 . S
N4232 C4234 1.356 . S
N4232 H4244 0.984 . S
N4232 H4245 0.985 . S
N4233 C4235 1.376 . S
N4233 H4238 0.984 . S
N4233 H4239 0.985 . S
C4234 C4228 1.379 . S
C4234 C4231 1.363 . S
C4234 N4232 1.356 . S
C4235 C4229 1.357 1_655 S
C4235 C4230 1.367 1_655 S
C4235 N4233 1.376 . S
N4236 C4228 1.356 . S
N4236 H4242 0.984 . S
N4236 H4243 0.984 . S
N4237 C4230 1.356 . S
N4237 H4240 0.984 . S
N4237 H4241 0.985 1_455 S
H4238 N4233 0.984 . S
H4239 N4233 0.985 . S
H4240 N4237 0.984 . S
H4241 N4237 0.985 1_655 S
H4242 N4236 0.984 . S
H4243 N4236 0.984 . S
H4244 N4232 0.984 . S
H4245 N4232 0.985 . S
C4246 C4247 1.363 . S
C4246 C4252 1.379 . S
C4246 N4254 1.356 . S
C4247 C4246 1.363 . S
C4247 C4253 1.363 . S
C4248 C4249 1.363 . S
C4248 C4253 1.379 . S
C4248 N4255 1.356 . S
C4249 C4248 1.363 . S
C4249 C4252 1.363 . S
N4250 C4252 1.356 . S
N4250 H4262 0.984 . S
N4250 H4263 0.985 . S
N4251 C4253 1.356 . S
N4251 H4256 0.984 . S
N4251 H4257 0.985 . S
C4252 C4246 1.379 . S
C4252 C4249 1.363 . S
C4252 N4250 1.356 . S
C4253 C4247 1.363 . S
C4253 C4248 1.379 . S
C4253 N4251 1.356 . S
N4254 C4246 1.356 . S
N4254 H4260 0.984 . S
N4254 H4261 0.984 . S
N4255 C4248 1.356 . S
N4255 H4258 0.984 . S
N4255 H4259 0.985 . S
H4256 N4251 0.984 . S
H4257 N4251 0.985 . S
H4258 N4255 0.984 . S
H4259 N4255 0.985 . S
H4260 N4254 0.984 . S
H4261 N4254 0.984 . S
H4262 N4250 0.984 . S
H4263 N4250 0.985 . S
C4264 C4265 1.363 . S
C4264 C4270 1.379 . S
C4264 N4272 1.356 . S
C4265 C4264 1.363 . S
C4265 C4271 1.363 . S
C4266 C4267 1.363 . S
C4266 C4271 1.379 . S
C4266 N4273 1.356 . S
C4267 C4266 1.363 . S
C4267 C4270 1.363 . S
N4268 C4270 1.356 . S
N4268 H4280 0.984 . S
N4268 H4281 0.985 . S
N4269 C4271 1.356 . S
N4269 H4274 0.984 . S
N4269 H4275 0.985 . S
C4270 C4264 1.379 . S
C4270 C4267 1.363 . S
C4270 N4268 1.356 . S
C4271 C4265 1.363 . S
C4271 C4266 1.379 . S
C4271 N4269 1.356 . S
N4272 C4264 1.356 . S
N4272 H4278 0.984 . S
N4272 H4279 0.984 . S
N4273 C4266 1.356 . S
N4273 H4276 0.984 . S
N4273 H4277 0.985 . S
H4274 N4269 0.984 . S
H4275 N4269 0.985 . S
H4276 N4273 0.984 . S
H4277 N4273 0.985 . S
H4278 N4272 0.984 . S
H4279 N4272 0.984 . S
H4280 N4268 0.984 . S
H4281 N4268 0.985 . S
C4282 C4283 1.363 . S
C4282 C4288 1.379 . S
C4282 N4290 1.356 . S
C4283 C4282 1.363 . S
C4283 C4289 1.363 . S
C4284 C4285 1.363 . S
C4284 C4289 1.379 . S
C4284 N4291 1.356 . S
C4285 C4284 1.363 . S
C4285 C4288 1.363 . S
N4286 C4288 1.356 . S
N4286 H4298 0.984 . S
N4286 H4299 0.985 . S
N4287 C4289 1.356 . S
N4287 H4292 0.984 . S
N4287 H4293 0.985 . S
C4288 C4282 1.379 . S
C4288 C4285 1.363 . S
C4288 N4286 1.356 . S
C4289 C4283 1.363 . S
C4289 C4284 1.379 . S
C4289 N4287 1.356 . S
N4290 C4282 1.356 . S
N4290 H4296 0.984 . S
N4290 H4297 0.984 . S
N4291 C4284 1.356 . S
N4291 H4294 0.984 . S
N4291 H4295 0.985 . S
H4292 N4287 0.984 . S
H4293 N4287 0.985 . S
H4294 N4291 0.984 . S
H4295 N4291 0.985 . S
H4296 N4290 0.984 . S
H4297 N4290 0.984 . S
H4298 N4286 0.984 . S
H4299 N4286 0.985 . S
C4300 C4301 1.363 . S
C4300 C4306 1.379 . S
C4300 N4308 1.356 . S
C4301 C4300 1.363 . S
C4301 C4307 1.363 . S
C4302 C4303 1.363 . S
C4302 C4307 1.379 . S
C4302 N4309 1.356 . S
C4303 C4302 1.363 . S
C4303 C4306 1.363 . S
N4304 C4306 1.356 . S
N4304 H4316 0.984 . S
N4304 H4317 0.985 . S
N4305 C4307 1.356 . S
N4305 H4310 0.984 . S
N4305 H4311 0.985 . S
C4306 C4300 1.379 . S
C4306 C4303 1.363 . S
C4306 N4304 1.356 . S
C4307 C4301 1.363 . S
C4307 C4302 1.379 . S
C4307 N4305 1.356 . S
N4308 C4300 1.356 . S
N4308 H4314 0.984 . S
N4308 H4315 0.984 . S
N4309 C4302 1.356 . S
N4309 H4312 0.984 . S
N4309 H4313 0.985 . S
H4310 N4305 0.984 . S
H4311 N4305 0.985 . S
H4312 N4309 0.984 . S
H4313 N4309 0.985 . S
H4314 N4308 0.984 . S
H4315 N4308 0.984 . S
H4316 N4304 0.984 . S
H4317 N4304 0.985 . S
C4318 C4319 1.363 . S
C4318 C4324 1.379 . S
C4318 N4326 1.356 . S
C4319 C4318 1.363 . S
C4319 C4325 1.363 . S
C4320 C4321 1.363 . S
C4320 C4325 1.379 . S
C4320 N4327 1.356 . S
C4321 C4320 1.363 . S
C4321 C4324 1.363 . S
N4322 C4324 1.356 . S
N4322 H4334 0.984 . S
N4322 H4335 0.985 . S
N4323 C4325 1.356 . S
N4323 H4328 0.984 . S
N4323 H4329 0.985 . S
C4324 C4318 1.379 . S
C4324 C4321 1.363 . S
C4324 N4322 1.356 . S
C4325 C4319 1.363 . S
C4325 C4320 1.379 . S
C4325 N4323 1.356 . S
N4326 C4318 1.356 . S
N4326 H4332 0.984 . S
N4326 H4333 0.984 . S
N4327 C4320 1.356 . S
N4327 H4330 0.984 . S
N4327 H4331 0.985 . S
H4328 N4323 0.984 . S
H4329 N4323 0.985 . S
H4330 N4327 0.984 . S
H4331 N4327 0.985 . S
H4332 N4326 0.984 . S
H4333 N4326 0.984 . S
H4334 N4322 0.984 . S
H4335 N4322 0.985 . S
C4336 C4337 1.363 . S
C4336 C4342 1.379 . S
C4336 N4344 1.356 . S
C4337 C4336 1.363 . S
C4337 C4343 1.363 . S
C4338 C4339 1.363 . S
C4338 C4343 1.379 . S
C4338 N4345 1.356 . S
C4339 C4338 1.363 . S
C4339 C4342 1.363 . S
N4340 C4342 1.356 . S
N4340 H4352 0.984 . S
N4340 H4353 0.985 . S
N4341 C4343 1.356 . S
N4341 H4346 0.984 . S
N4341 H4347 0.985 . S
C4342 C4336 1.379 . S
C4342 C4339 1.363 . S
C4342 N4340 1.356 . S
C4343 C4337 1.363 . S
C4343 C4338 1.379 . S
C4343 N4341 1.356 . S
N4344 C4336 1.356 . S
N4344 H4350 0.984 . S
N4344 H4351 0.984 . S
N4345 C4338 1.356 . S
N4345 H4348 0.984 . S
N4345 H4349 0.985 . S
H4346 N4341 0.984 . S
H4347 N4341 0.985 . S
H4348 N4345 0.984 . S
H4349 N4345 0.985 . S
H4350 N4344 0.984 . S
H4351 N4344 0.984 . S
H4352 N4340 0.984 . S
H4353 N4340 0.985 . S
C4354 C4355 1.363 . S
C4354 C4360 1.379 . S
C4354 N4362 1.356 . S
C4355 C4354 1.363 . S
C4355 C4361 1.363 . S
C4356 C4357 1.363 . S
C4356 C4361 1.379 1_545 S
C4356 N4363 1.356 . S
C4357 C4356 1.363 . S
C4357 C4360 1.363 1_545 S
N4358 C4360 1.356 . S
N4358 H4370 0.984 . S
N4358 H4371 0.985 . S
N4359 C4361 1.356 . S
N4359 H4364 0.984 . S
N4359 H4365 0.985 1_565 S
C4360 C4354 1.379 . S
C4360 C4357 1.363 1_565 S
C4360 N4358 1.356 . S
C4361 C4355 1.363 . S
C4361 C4356 1.379 1_565 S
C4361 N4359 1.356 . S
N4362 C4354 1.356 . S
N4362 H4368 0.984 . S
N4362 H4369 0.984 . S
N4363 C4356 1.356 . S
N4363 H4366 0.984 . S
N4363 H4367 0.985 . S
H4364 N4359 0.984 . S
H4365 N4359 0.985 1_545 S
H4366 N4363 0.984 . S
H4367 N4363 0.985 . S
H4368 N4362 0.984 . S
H4369 N4362 0.984 . S
H4370 N4358 0.984 . S
H4371 N4358 0.985 . S
C4372 C4373 1.363 . S
C4372 C4378 1.379 . S
C4372 N4380 1.356 . S
C4373 C4372 1.363 . S
C4373 C4379 1.363 . S
C4374 C4375 1.363 . S
C4374 C4379 1.379 . S
C4374 N4381 1.356 . S
C4375 C4374 1.363 . S
C4375 C4378 1.363 . S
N4376 C4378 1.356 . S
N4376 H4388 0.984 . S
N4376 H4389 0.985 . S
N4377 C4379 1.356 . S
N4377 H4382 0.984 . S
N4377 H4383 0.985 . S
C4378 C4372 1.379 . S
C4378 C4375 1.363 . S
C4378 N4376 1.356 . S
C4379 C4373 1.363 . S
C4379 C4374 1.379 . S
C4379 N4377 1.356 . S
N4380 C4372 1.356 . S
N4380 H4386 0.984 . S
N4380 H4387 0.984 . S
N4381 C4374 1.356 . S
N4381 H4384 0.984 . S
N4381 H4385 0.985 . S
H4382 N4377 0.984 . S
H4383 N4377 0.985 . S
H4384 N4381 0.984 . S
H4385 N4381 0.985 . S
H4386 N4380 0.984 . S
H4387 N4380 0.984 . S
H4388 N4376 0.984 . S
H4389 N4376 0.985 . S
C4390 C4391 1.363 . S
C4390 C4396 1.379 . S
C4390 N4398 1.356 . S
C4391 C4390 1.363 . S
C4391 C4397 1.363 1_554 S
C4392 C4393 1.363 . S
C4392 C4397 1.379 1_554 S
C4392 N4399 1.355 . S
C4393 C4392 1.363 . S
C4393 C4396 1.363 . S
N4394 C4396 1.356 . S
N4394 H4406 0.984 . S
N4394 H4407 0.985 . S
N4395 C4397 1.356 . S
N4395 H4400 0.984 . S
N4395 H4401 0.985 . S
C4396 C4390 1.379 . S
C4396 C4393 1.363 . S
C4396 N4394 1.356 . S
C4397 C4391 1.363 1_556 S
C4397 C4392 1.379 1_556 S
C4397 N4395 1.356 . S
N4398 C4390 1.356 . S
N4398 H4404 0.984 . S
N4398 H4405 0.984 . S
N4399 C4392 1.355 . S
N4399 H4402 0.983 . S
N4399 H4403 0.987 1_554 S
H4400 N4395 0.984 . S
H4401 N4395 0.985 . S
H4402 N4399 0.983 . S
H4403 N4399 0.987 1_556 S
H4404 N4398 0.984 . S
H4405 N4398 0.984 . S
H4406 N4394 0.984 . S
H4407 N4394 0.985 . S
C4408 C4409 1.363 . S
C4408 C4414 1.379 . S
C4408 N4416 1.356 . S
C4409 C4408 1.363 . S
C4409 C4415 1.363 . S
C4410 C4411 1.363 . S
C4410 C4415 1.379 . S
C4410 N4417 1.356 . S
C4411 C4410 1.363 . S
C4411 C4414 1.363 . S
N4412 C4414 1.356 . S
N4412 H4424 0.984 . S
N4412 H4425 0.985 . S
N4413 C4415 1.356 . S
N4413 H4418 0.984 . S
N4413 H4419 0.985 . S
C4414 C4408 1.379 . S
C4414 C4411 1.363 . S
C4414 N4412 1.356 . S
C4415 C4409 1.363 . S
C4415 C4410 1.379 . S
C4415 N4413 1.356 . S
N4416 C4408 1.356 . S
N4416 H4422 0.984 . S
N4416 H4423 0.984 . S
N4417 C4410 1.356 . S
N4417 H4420 0.984 . S
N4417 H4421 0.985 . S
H4418 N4413 0.984 . S
H4419 N4413 0.985 . S
H4420 N4417 0.984 . S
H4421 N4417 0.985 . S
H4422 N4416 0.984 . S
H4423 N4416 0.984 . S
H4424 N4412 0.984 . S
H4425 N4412 0.985 . S
C4426 C4427 1.363 1_556 S
C4426 C4432 1.379 . S
C4426 N4434 1.356 1_556 S
C4427 C4426 1.363 1_554 S
C4427 C4433 1.363 . S
C4428 C4429 1.363 . S
C4428 C4433 1.379 1_556 S
C4428 N4435 1.356 . S
C4429 C4428 1.363 . S
C4429 C4432 1.363 . S
N4430 C4432 1.356 . S
N4430 H4442 0.984 . S
N4430 H4443 0.985 . S
N4431 C4433 1.356 . S
N4431 H4436 0.984 . S
N4431 H4437 0.985 . S
C4432 C4426 1.379 . S
C4432 C4429 1.363 . S
C4432 N4430 1.356 . S
C4433 C4427 1.363 . S
C4433 C4428 1.379 1_554 S
C4433 N4431 1.356 . S
N4434 C4426 1.356 1_554 S
N4434 H4440 0.984 1_554 S
N4434 H4441 0.984 . S
N4435 C4428 1.356 . S
N4435 H4438 0.984 . S
N4435 H4439 0.983 1_556 S
H4436 N4431 0.984 . S
H4437 N4431 0.985 . S
H4438 N4435 0.984 . S
H4439 N4435 0.983 1_554 S
H4440 N4434 0.984 1_556 S
H4441 N4434 0.984 . S
H4442 N4430 0.984 . S
H4443 N4430 0.985 . S
C4444 C4445 1.363 . S
C4444 C4450 1.379 . S
C4444 N4452 1.356 . S
C4445 C4444 1.363 . S
C4445 C4451 1.363 . S
C4446 C4447 1.363 . S
C4446 C4451 1.379 . S
C4446 N4453 1.356 . S
C4447 C4446 1.363 . S
C4447 C4450 1.363 . S
N4448 C4450 1.356 . S
N4448 H4460 0.984 . S
N4448 H4461 0.985 . S
N4449 C4451 1.356 . S
N4449 H4454 0.984 . S
N4449 H4455 0.985 . S
C4450 C4444 1.379 . S
C4450 C4447 1.363 . S
C4450 N4448 1.356 . S
C4451 C4445 1.363 . S
C4451 C4446 1.379 . S
C4451 N4449 1.356 . S
N4452 C4444 1.356 . S
N4452 H4458 0.984 . S
N4452 H4459 0.984 . S
N4453 C4446 1.356 . S
N4453 H4456 0.984 . S
N4453 H4457 0.985 . S
H4454 N4449 0.984 . S
H4455 N4449 0.985 . S
H4456 N4453 0.984 . S
H4457 N4453 0.985 . S
H4458 N4452 0.984 . S
H4459 N4452 0.984 . S
H4460 N4448 0.984 . S
H4461 N4448 0.985 . S
C4462 C4463 1.363 . S
C4462 C4468 1.379 . S
C4462 N4470 1.356 . S
C4463 C4462 1.363 . S
C4463 C4469 1.363 . S
C4464 C4465 1.363 . S
C4464 C4469 1.379 . S
C4464 N4471 1.356 . S
C4465 C4464 1.363 . S
C4465 C4468 1.363 . S
N4466 C4468 1.356 . S
N4466 H4478 0.984 . S
N4466 H4479 0.985 . S
N4467 C4469 1.356 . S
N4467 H4472 0.984 . S
N4467 H4473 0.985 . S
C4468 C4462 1.379 . S
C4468 C4465 1.363 . S
C4468 N4466 1.356 . S
C4469 C4463 1.363 . S
C4469 C4464 1.379 . S
C4469 N4467 1.356 . S
N4470 C4462 1.356 . S
N4470 H4476 0.984 . S
N4470 H4477 0.984 . S
N4471 C4464 1.356 . S
N4471 H4474 0.984 . S
N4471 H4475 0.985 . S
H4472 N4467 0.984 . S
H4473 N4467 0.985 . S
H4474 N4471 0.984 . S
H4475 N4471 0.985 . S
H4476 N4470 0.984 . S
H4477 N4470 0.984 . S
H4478 N4466 0.984 . S
H4479 N4466 0.985 . S
C2753 C665 2.353 . S
C2755 C2122 2.411 . S
C2771 C381 2.121 . S
C2773 C2170 2.135 . S
C2789 C460 1.373 . S
C2791 C2202 1.452 . S
C2809 C2247 1.388 . S
C2807 C585 1.414 . S
C2825 C108 1.587 . S
C2827 C2287 1.509 . S
C2845 C2318 0.508 . S
C2843 C196 0.547 . S
C2863 C2370 1.650 . S
C2861 C313 1.588 . S
C2879 C49 1.869 . S
C2881 C2402 1.856 . S
C2899 C2130 2.456 . S
C2897 C1457 2.481 1_455 S
C2915 C1545 0.681 . S
C2917 C2167 0.705 . S
C2935 C2210 1.244 . S
C2933 C1721 1.267 . S
C2953 C2242 1.689 . S
C2951 C1113 1.578 . S
C2969 C1428 2.066 . S
C2971 C2282 2.146 . S
C2989 C2321 1.399 . S
C2987 C1516 1.420 . S
C3007 C2367 0.618 . S
C3005 C1692 0.566 . S
C3025 C2410 2.150 . S
C3023 C1085 2.179 . S
C3043 C2127 1.640 1_565 S
C3041 C988 1.689 . S
C3059 C1817 1.923 . S
C3061 C2450 1.919 . S
C3079 C2491 2.554 . S
C3077 C2081 2.641 . S
C3097 C2522 0.865 1_655 S
C3095 C1993 0.838 . S
C3113 C761 1.709 . S
C3115 C2407 1.643 . S
C3131 C821 1.650 . S
C3133 C2207 1.606 . S
C3149 C2053 2.264 . S
C3151 C2570 2.225 . S
C3169 C2602 0.490 . S
C3167 C1868 0.406 . S
C3187 C2131 2.407 . S
C3185 C372 2.355 . S
C3205 C2601 2.133 . S
C3203 C645 2.114 . S
C3221 C577 1.368 . S
C3223 C2211 1.446 . S
C3239 C497 1.414 . S
C3241 C2558 1.385 . S
C3259 C2278 1.509 . S
C3257 C57 1.595 . S
C3275 C293 0.541 . S
C3277 C2487 0.504 . S
C3295 C2361 1.658 . S
C3293 C205 1.575 . S
C3313 C2651 1.853 . S
C3311 C145 1.879 . S
C3331 C2121 2.454 . S
C3329 C909 2.477 . S
C3349 C2598 0.705 . S
C3347 C1956 0.678 . S
C3365 C724 1.263 . S
C3367 C2201 1.241 . S
C3383 C1780 1.575 . S
C3385 C2571 1.683 . S
C3401 C937 2.070 . S
C3403 C2291 2.141 . S
C3421 C2490 1.396 . S
C3419 C1985 1.418 . S
C3437 C753 0.557 . S
C3439 C2358 0.615 . S
C3455 C1809 2.179 . S
C3457 C2641 2.147 . S
C3473 C1173 1.694 . S
C3475 C2118 1.645 . S
C3491 C1105 1.917 . S
C3493 C2441 1.917 . S
C3509 C1633 2.639 . S
C3511 C2322 2.552 . S
C3527 C1553 0.831 . S
C3529 C2531 0.855 . S
C3547 C2638 1.644 . S
C3545 C1729 1.718 . S
C3563 C1340 1.654 . S
C3565 C2198 1.604 . S
C3583 C2241 2.223 . S
C3581 C1604 2.258 . S
C3601 C2171 0.491 . S
C3599 C1252 0.400 . S
C3617 C489 2.353 . S
C3619 C2682 2.411 . S
C3637 C2610 2.134 . S
C3635 C557 2.121 . S
C3653 C636 1.373 1_554 S
C3655 C2722 1.463 . S
C3671 C409 1.414 . S
C3673 C2567 1.388 . S
C3689 C284 1.587 . S
C3691 C2447 1.511 . S
C3709 C2478 0.508 . S
C3707 C20 0.575 . S
C3727 C2530 1.650 . S
C3725 C137 1.584 . S
C3745 C2642 1.856 . S
C3743 C225 1.869 . S
C3763 C2690 2.456 . S
C3761 C1641 2.481 . S
C3779 C1193 0.681 . S
C3781 C2607 0.705 . S
C3799 C2730 1.244 . S
C3797 C1289 1.267 . S
C3817 C2562 1.689 . S
C3815 C1377 1.578 . S
C3835 C2442 2.146 . S
C3833 C1613 2.066 . S
C3851 C1164 1.419 . S
C3853 C2481 1.399 . S
C3871 C2527 0.617 . S
C3869 C1261 0.565 . S
C3887 C1349 2.179 . S
C3889 C2650 2.150 . S
C3907 C2687 1.648 . S
C3905 C1965 1.689 . S
C3923 C849 1.923 . S
C3925 C2290 1.919 . S
C3943 C2331 2.554 . S
C3941 C929 2.641 . S
C3961 C2362 0.865 . S
C3959 C1017 0.838 . S
C3979 C2647 1.645 . S
C3977 C1897 1.709 . S
C3995 C1789 1.650 . S
C3997 C2727 1.606 . S
C4015 C2250 2.225 . S
C4013 C900 2.264 . S
C4033 C2162 0.490 . S
C4031 C733 0.408 . S
C4049 C548 2.355 . S
C4051 C2691 2.407 . S
C4069 C2161 2.133 . S
C4067 C469 2.114 . S
C4085 C401 1.368 . S
C4087 C2731 1.446 . S
C4103 C673 1.413 . S
C4105 C2238 1.385 . S
C4121 C233 1.595 . S
C4123 C2438 1.509 . S
C4141 C2327 0.503 . S
C4139 C117 0.537 . S
C4157 C29 1.574 . S
C4159 C2521 1.648 . S
C4175 C321 1.874 . S
C4177 C2411 1.853 . S
C4195 C2681 2.454 . S
C4193 C2044 2.477 . S
C4211 C997 0.678 . S
C4213 C2158 0.705 . S
C4231 C2721 1.241 . S
C4229 C1877 1.263 1_455 S
C4247 C812 1.575 . S
C4249 C2251 1.683 . S
C4265 C2073 2.070 . S
C4267 C2451 2.141 . S
C4285 C2330 1.396 . S
C4283 C1025 1.418 . S
C4301 C1905 0.557 . S
C4303 C2518 0.616 . S
C4321 C2401 2.146 . S
C4319 C841 2.179 . S
C4339 C2678 1.645 . S
C4337 C1525 1.694 . S
C4357 C2281 1.917 1_655 S
C4355 C1369 1.917 . S
C4373 C1465 2.639 . S
C4375 C2482 2.552 . S
C4393 C2371 0.855 . S
C4391 C1201 0.831 . S
C4409 C1281 1.718 . S
C4411 C2398 1.644 . S
C4427 C1076 1.654 . S
C4429 C2718 1.604 . S
C4447 C2561 2.223 . S
C4445 C1437 2.258 . S
C4465 C2611 0.491 . S
C4463 C1701 0.400 . S
