# Generated by pormake.
# Topology zzz, (3,6)-cn, num edge types: 1
# Building blocks:
#     Node 0, Type 0, BuildingBlock: WUSLED_clean_sbu_0, # of connection points: 3
#     Node 1, Type 0, BuildingBlock: WUSLED_clean_sbu_0, # of connection points: 3
#     Node 2, Type 0, BuildingBlock: WUSLED_clean_sbu_0, # of connection points: 3
#     Node 3, Type 0, BuildingBlock: WUSLED_clean_sbu_0, # of connection points: 3
#     Node 4, Type 0, BuildingBlock: WUSLED_clean_sbu_0, # of connection points: 3
#     Node 5, Type 0, BuildingBlock: WUSLED_clean_sbu_0, # of connection points: 3
#     Node 6, Type 0, BuildingBlock: WUSLED_clean_sbu_0, # of connection points: 3
#     Node 7, Type 0, BuildingBlock: WUSLED_clean_sbu_0, # of connection points: 3
#     Node 8, Type 1, BuildingBlock: KUMJIN_clean_sbu_1, # of connection points: 6
#     Node 9, Type 1, BuildingBlock: KUMJIN_clean_sbu_1, # of connection points: 6
#     Node 10, Type 1, BuildingBlock: KUMJIN_clean_sbu_1, # of connection points: 6
#     Node 11, Type 1, BuildingBlock: KUMJIN_clean_sbu_1, # of connection points: 6
#     Edge 12, Type (0, 1), BuildingBlock: UVAHIK_clean_linker_0, # of connection points: 2
#     Edge 13, Type (0, 1), BuildingBlock: UVAHIK_clean_linker_0, # of connection points: 2
#     Edge 14, Type (0, 1), BuildingBlock: UVAHIK_clean_linker_0, # of connection points: 2
#     Edge 15, Type (0, 1), BuildingBlock: UVAHIK_clean_linker_0, # of connection points: 2
#     Edge 16, Type (0, 1), BuildingBlock: UVAHIK_clean_linker_0, # of connection points: 2
#     Edge 17, Type (0, 1), BuildingBlock: UVAHIK_clean_linker_0, # of connection points: 2
#     Edge 18, Type (0, 1), BuildingBlock: UVAHIK_clean_linker_0, # of connection points: 2
#     Edge 19, Type (0, 1), BuildingBlock: UVAHIK_clean_linker_0, # of connection points: 2
#     Edge 20, Type (0, 1), BuildingBlock: UVAHIK_clean_linker_0, # of connection points: 2
#     Edge 21, Type (0, 1), BuildingBlock: UVAHIK_clean_linker_0, # of connection points: 2
#     Edge 22, Type (0, 1), BuildingBlock: UVAHIK_clean_linker_0, # of connection points: 2
#     Edge 23, Type (0, 1), BuildingBlock: UVAHIK_clean_linker_0, # of connection points: 2
#     Edge 24, Type (0, 1), BuildingBlock: UVAHIK_clean_linker_0, # of connection points: 2
#     Edge 25, Type (0, 1), BuildingBlock: UVAHIK_clean_linker_0, # of connection points: 2
#     Edge 26, Type (0, 1), BuildingBlock: UVAHIK_clean_linker_0, # of connection points: 2
#     Edge 27, Type (0, 1), BuildingBlock: UVAHIK_clean_linker_0, # of connection points: 2
#     Edge 28, Type (0, 1), BuildingBlock: UVAHIK_clean_linker_0, # of connection points: 2
#     Edge 29, Type (0, 1), BuildingBlock: UVAHIK_clean_linker_0, # of connection points: 2
#     Edge 30, Type (0, 1), BuildingBlock: UVAHIK_clean_linker_0, # of connection points: 2
#     Edge 31, Type (0, 1), BuildingBlock: UVAHIK_clean_linker_0, # of connection points: 2
#     Edge 32, Type (0, 1), BuildingBlock: UVAHIK_clean_linker_0, # of connection points: 2
#     Edge 33, Type (0, 1), BuildingBlock: UVAHIK_clean_linker_0, # of connection points: 2
#     Edge 34, Type (0, 1), BuildingBlock: UVAHIK_clean_linker_0, # of connection points: 2
#     Edge 35, Type (0, 1), BuildingBlock: UVAHIK_clean_linker_0, # of connection points: 2
# Relax obj value: 0.267
# Max RMSD: 0.200
# Mean RMSD: 0.172
data_MOF--net-zzz--node1-WUSLED_clean_sbu_0--node2-KUMJIN_clean_sbu_1--edge1-UVAHIK_clean_linker_0
_symmetry_space_group_name_H-M    P1
_symmetry_Int_Tables_number       1
_symmetry_cell_setting            triclinic
loop_
_symmetry_equiv_pos_as_xyz
'x, y, z'
_cell_length_a     74.495632
_cell_length_b     74.643846
_cell_length_c     27.539579
_cell_angle_alpha  90.061795
_cell_angle_beta   89.878627
_cell_angle_gamma 90.284377
loop_
_atom_site_label
_atom_site_type_symbol
_atom_site_fract_x
_atom_site_fract_y
_atom_site_fract_z
_atom_type_partial_charge
C0 C 0.7742 0.53755 0.29842 0.0
C1 C 0.78776 0.54984 0.28558 0.0
C2 C 0.80785 0.53693 0.34581 0.0
C3 C 0.80437 0.54961 0.30929 0.0
C4 C 0.79419 0.52476 0.3588 0.0
C5 C 0.77753 0.52511 0.33543 0.0
U6 U 0.7479 0.54044 0.18046 0.0
O7 O 0.72618 0.5229 0.15386 0.0
O8 O 0.72127 0.55162 0.16453 0.0
C9 C 0.71492 0.53626 0.14837 0.0
C10 C 0.75696 0.53682 0.27199 0.0
C11 C 0.70436 0.53648 0.1027 0.0
C12 C 0.68474 0.52055 0.04644 0.0
C13 C 0.69643 0.52051 0.08611 0.0
C14 C 0.68876 0.55259 0.03844 0.0
C15 C 0.68054 0.53662 0.02247 0.0
C16 C 0.70054 0.55253 0.0781 0.0
C17 C 0.7773 0.55004 0.0665 0.0
C18 C 0.77338 0.54107 0.98234 0.0
C19 C 0.79805 0.56065 1.00489 0.0
C20 C 0.79221 0.56037 0.05301 0.0
C21 C 0.78904 0.55057 0.96916 0.0
C22 C 0.76755 0.5408 0.03073 0.0
C23 C 0.77373 0.54756 0.11851 0.0
O24 O 0.75118 0.55199 0.25355 0.0
O25 O 0.7552 0.5232 0.24211 0.0
O26 O 0.76938 0.53124 0.1322 0.0
O27 O 0.76449 0.56012 0.14062 0.0
H28 H 0.78563 0.55943 0.25669 0.0
H29 H 0.81469 0.55902 0.29806 0.0
H30 H 0.79639 0.51494 0.38706 0.0
H31 H 0.7673 0.51547 0.34578 0.0
H32 H 0.67847 0.50804 0.03571 0.0
H33 H 0.69886 0.50798 0.10476 0.0
H34 H 0.68599 0.56518 0.0205 0.0
H35 H 0.70631 0.56513 0.09006 0.0
H36 H 0.76601 0.53337 0.9556 0.0
H37 H 0.81029 0.56789 0.99643 0.0
H38 H 0.79994 0.56752 0.08021 0.0
H39 H 0.75592 0.53279 0.04049 0.0
C40 C 0.99982 0.77827 0.29179 0.0
C41 C 0.01262 0.79141 0.27937 0.0
C42 C 1.00201 0.81086 0.3447 0.0
C43 C 0.01375 0.80744 0.30563 0.0
C44 C 0.98913 0.79771 0.35675 0.0
C45 C 0.9881 0.7816 0.33069 0.0
U46 U 0.99672 0.75166 0.17317 0.0
O47 O 0.01041 0.72681 0.152 0.0
O48 O 0.98096 0.72741 0.15571 0.0
C49 C 0.99531 0.71798 0.14508 0.0
C50 C 0.99859 0.76106 0.26503 0.0
C51 C 0.99433 0.70651 0.10147 0.0
C52 C 0.98846 0.67698 0.06756 0.0
C53 C 0.98849 0.68876 0.10701 0.0
C54 C 0.99984 0.70064 0.01573 0.0
C55 C 0.99424 0.68267 0.02137 0.0
C56 C 0.99988 0.71247 0.05545 0.0
C57 C 0.99573 0.78183 0.05699 0.0
C58 C 1.00684 0.77843 0.97445 0.0
C59 C 0.98821 0.80379 0.99558 0.0
C60 C 0.98675 0.7974 0.04295 0.0
C61 C 0.99867 0.79468 0.96096 0.0
C62 C 1.00542 0.77207 0.02219 0.0
C63 C 0.99637 0.77762 0.10909 0.0
O64 O 0.98332 0.75791 0.2427 0.0
O65 O 0.01267 0.75655 0.23898 0.0
O66 O 0.01121 0.77039 0.12564 0.0
O67 O 0.98169 0.77102 0.12883 0.0
H68 H 0.02185 0.78929 0.2495 0.0
H69 H 0.02404 0.81705 0.29561 0.0
H70 H 0.97965 0.79991 0.386 0.0
H71 H 0.97808 0.77172 0.3409 0.0
H72 H 0.98436 0.66323 0.0737 0.0
H73 H 0.98428 0.68387 0.1423 0.0
H74 H 1.0042 0.70557 0.98064 0.0
H75 H 1.00443 0.72615 0.05041 0.0
H76 H 0.01478 0.77093 0.94857 0.0
H77 H 0.98197 0.81647 0.98706 0.0
H78 H 0.9793 0.80518 0.06939 0.0
H79 H 0.01244 0.75997 0.03229 0.0
C80 C 0.75589 1.00323 0.3181 0.0
C81 C 0.74122 1.00939 0.29088 0.0
C82 C 0.7209 1.00328 0.35848 0.0
C83 C 0.72395 1.00951 0.31095 0.0
C84 C 0.73555 0.99675 0.38525 0.0
C85 C 0.75289 0.9968 0.36528 0.0
U86 U 0.78697 1.00147 0.20886 0.0
O87 O 0.81027 0.01854 0.19091 0.0
O88 O 0.81361 0.98944 0.1981 0.0
C89 C 0.82114 1.00482 0.18628 0.0
C90 C 0.77428 1.00369 0.29772 0.0
C91 C 0.83307 1.00502 0.14322 0.0
C92 C 0.85898 0.01808 0.10222 0.0
C93 C 0.84677 0.01794 0.14085 0.0
C94 C 0.84395 0.99235 0.06707 0.0
C95 C 0.85784 1.00522 0.06496 0.0
C96 C 0.83164 0.99228 0.10576 0.0
C97 C 0.76083 0.99455 0.08702 0.0
C98 C 0.76192 1.00725 1.00584 0.0
C99 C 0.74188 0.98243 0.02345 0.0
C100 C 0.74826 0.9819 0.07093 0.0
C101 C 0.748 0.99565 0.99087 0.0
C102 C 0.76824 1.00676 0.05369 0.0
C103 C 0.7634 0.99641 0.1397 0.0
O104 O 0.78006 0.98861 0.27871 0.0
O105 O 0.77811 0.01775 0.27087 0.0
O106 O 0.76792 0.01235 0.15613 0.0
O107 O 0.77127 0.98313 0.16245 0.0
H108 H 0.74314 0.01423 0.25415 0.0
H109 H 0.71293 0.01437 0.2891 0.0
H110 H 0.73368 0.99195 0.42202 0.0
H111 H 0.76399 0.99195 0.38686 0.0
H112 H 0.86962 0.02803 0.10223 0.0
H113 H 0.84822 0.02783 0.16945 0.0
H114 H 0.84257 0.98237 0.03874 0.0
H115 H 0.82115 0.98219 0.10656 0.0
H116 H 0.7672 0.01736 0.98146 0.0
H117 H 0.73105 0.97339 0.01384 0.0
H118 H 0.74234 0.97241 0.09615 0.0
H119 H 0.7781 0.01658 0.06526 0.0
C120 C 0.53324 0.75422 0.29609 0.0
C121 C 0.54405 0.74034 0.27802 0.0
C122 C 0.53341 0.72033 0.34207 0.0
C123 C 0.54422 0.72359 0.301 0.0
C124 C 0.52273 0.73434 0.36019 0.0
C125 C 0.52269 0.75111 0.33748 0.0
U126 U 0.53386 0.78213 0.18006 0.0
O127 O 0.51531 0.80359 0.15852 0.0
O128 O 0.54416 0.80928 0.16533 0.0
C129 C 0.52831 0.81535 0.15242 0.0
C130 C 0.532 0.77166 0.27101 0.0
C131 C 0.52736 0.82657 0.10814 0.0
C132 C 0.51143 0.84949 0.06276 0.0
C133 C 0.51218 0.83732 0.10123 0.0
C134 C 0.54092 0.84013 0.03625 0.0
C135 C 0.52592 0.85134 0.03026 0.0
C136 C 0.54165 0.82788 0.07484 0.0
C137 C 0.54146 0.75552 0.06117 0.0
C138 C 0.53234 0.76364 0.97953 0.0
C139 C 0.54788 0.73569 0.99377 0.0
C140 C 0.5491 0.73981 0.04301 0.0
C141 C 0.539 0.74728 0.96157 0.0
C142 C 0.53354 0.76773 0.02909 0.0
C143 C 0.5402 0.75765 0.11398 0.0
O144 O 0.54682 0.77786 0.25095 0.0
O145 O 0.51784 0.7735 0.24317 0.0
O146 O 0.5241 0.76114 0.13098 0.0
O147 O 0.55303 0.76691 0.13521 0.0
H148 H 0.55215 0.74236 0.24574 0.0
H149 H 0.55244 0.71304 0.28583 0.0
H150 H 0.5144 0.73235 0.39202 0.0
H151 H 0.5142 0.7616 0.3519 0.0
H152 H 0.4995 0.85759 0.05879 0.0
H153 H 0.50099 0.83658 0.12636 0.0
H154 H 0.55237 0.84124 0.01213 0.0
H155 H 0.55355 0.81978 0.07921 0.0
H156 H 0.52562 0.77297 0.95566 0.0
H157 H 0.55291 0.72285 0.9817 0.0
H158 H 0.5552 0.73021 0.06738 0.0
H159 H 0.52763 0.78 0.04264 0.0
C160 C 0.2535 0.49747 0.90946 0.0
C161 C 0.23783 0.49105 0.93199 0.0
C162 C 0.2201 0.49935 0.86115 0.0
C163 C 0.22129 0.49191 0.90799 0.0
C164 C 0.23588 0.50577 0.83882 0.0
C165 C 0.25242 0.50482 0.86275 0.0
U166 U 0.28061 0.49373 0.026 0.0
O167 O 0.30608 0.47978 0.04055 0.0
O168 O 0.30442 0.509 0.04898 0.0
C169 C 0.31426 0.49455 0.05452 0.0
C170 C 0.27092 0.49707 0.93476 0.0
C171 C 0.32511 0.4934 0.0993 0.0
C172 C 0.35256 0.48337 0.13833 0.0
C173 C 0.34107 0.48352 0.09824 0.0
C174 C 0.33213 0.50276 0.18191 0.0
C175 C 0.34838 0.4932 0.18045 0.0
C176 C 0.32057 0.50283 0.14177 0.0
C177 C 0.25225 0.48797 0.14369 0.0
C178 C 0.25639 0.49865 0.22633 0.0
C179 C 0.23254 0.47754 0.20799 0.0
C180 C 0.23798 0.47719 0.15953 0.0
C181 C 0.24127 0.48875 0.24168 0.0
C182 C 0.26185 0.49827 0.17765 0.0
C183 C 0.25518 0.4898 0.0911 0.0
O184 O 0.27414 0.51081 0.96332 0.0
O185 O 0.27531 0.48166 0.95445 0.0
O186 O 0.26265 0.47618 0.06866 0.0
O187 O 0.2609 0.50549 0.07573 0.0
H188 H 0.23836 0.48549 0.96829 0.0
H189 H 0.20939 0.48706 0.92651 0.0
H190 H 0.23549 0.51141 0.80261 0.0
H191 H 0.26436 0.50989 0.84482 0.0
H192 H 0.36503 0.47604 0.13565 0.0
H193 H 0.3449 0.47624 0.06579 0.0
H194 H 0.32839 0.51028 0.21399 0.0
H195 H 0.3083 0.51051 0.14365 0.0
H196 H 0.26355 0.50724 0.25151 0.0
H197 H 0.22071 0.46992 0.21818 0.0
H198 H 0.23038 0.4692 0.13381 0.0
H199 H 0.27301 0.50663 0.16621 0.0
C200 C 0.03962 0.25708 0.91275 0.0
C201 C 0.03898 0.24271 0.94562 0.0
C202 C 0.0387 0.22125 0.87829 0.0
C203 C 0.03847 0.22496 0.92855 0.0
C204 C 0.0394 0.23578 0.84577 0.0
C205 C 0.03986 0.25344 0.86283 0.0
U206 U 0.04313 0.29491 1.00931 0.0
O207 O 0.05662 0.3212 1.00425 0.0
O208 O 0.02734 0.31978 0.01175 0.0
C209 C 0.0417 0.33005 0.0128 0.0
C210 C 0.03978 0.27597 0.92905 0.0
C211 C 0.04214 0.34333 0.05284 0.0
C212 C 0.02962 0.36999 0.09084 0.0
C213 C 0.0302 0.35781 0.05213 0.0
C214 C 0.05318 0.35363 0.13144 0.0
C215 C 0.04104 0.36801 0.13112 0.0
C216 C 0.05365 0.34134 0.09288 0.0
C217 C 0.04725 0.25974 0.11151 0.0
C218 C 0.05721 0.23997 0.17579 0.0
C219 C 0.03241 0.23111 0.12407 0.0
C220 C 0.03435 0.24695 0.09765 0.0
C221 C 0.04337 0.22782 0.16453 0.0
C222 C 0.05908 0.25585 0.14952 0.0
C223 C 0.047 0.27801 0.09187 0.0
O224 O 0.02607 0.28114 0.95563 0.0
O225 O 0.05522 0.2823 0.94469 0.0
O226 O 0.06071 0.28293 0.0648 0.0
O227 O 0.03144 0.28357 0.07541 0.0
H228 H 0.03887 0.24523 0.98434 0.0
H229 H 0.03811 0.21414 0.95471 0.0
H230 H 0.03928 0.23355 0.80691 0.0
H231 H 0.04027 0.26433 0.83683 0.0
H232 H 0.02023 0.38101 0.08915 0.0
H233 H 0.02116 0.3596 0.02178 0.0
H234 H 0.06202 0.3516 0.1621 0.0
H235 H 0.06284 0.33017 0.09473 0.0
H236 H 0.06577 0.23781 0.20697 0.0
H237 H 0.02178 0.22183 0.11435 0.0
H238 H 0.02511 0.24961 0.06823 0.0
H239 H 0.06909 0.26558 0.16075 0.0
C240 C 0.2698 0.03006 0.91561 0.0
C241 C 0.28352 0.04158 0.93171 0.0
C242 C 0.30386 0.02997 0.86968 0.0
C243 C 0.30035 0.04161 0.90881 0.0
C244 C 0.29002 0.01851 0.85361 0.0
C245 C 0.27317 0.01859 0.87631 0.0
U246 U 0.24117 0.03626 0.0293 0.0
O247 O 0.21353 0.04608 0.03857 0.0
O248 O 0.22026 0.01859 0.05972 0.0
C249 C 0.2079 0.03109 0.05859 0.0
C250 C 0.25222 0.02925 0.94059 0.0
C251 C 0.19663 0.03286 0.10245 0.0
C252 C 0.16724 0.02952 0.14003 0.0
C253 C 0.17844 0.02817 0.09942 0.0
C254 C 0.19231 0.04032 0.18783 0.0
C255 C 0.17396 0.03567 0.18484 0.0
C256 C 0.20355 0.03894 0.14694 0.0
C257 C 0.26788 0.05319 0.14212 0.0
C258 C 0.26821 0.04502 0.22748 0.0
C259 C 0.28644 0.06981 0.19877 0.0
C260 C 0.2797 0.06734 0.15204 0.0
C261 C 0.28147 0.05811 0.23656 0.0
C262 C 0.26148 0.04254 0.18052 0.0
C263 C 0.26514 0.04812 0.09107 0.0
O264 O 0.25089 0.01702 0.97468 0.0
O265 O 0.24518 0.04468 0.95336 0.0
O266 O 0.25543 0.05886 0.06409 0.0
O267 O 0.26235 0.03102 0.08227 0.0
H268 H 0.28129 0.05041 0.96237 0.0
H269 H 0.31075 0.05044 0.9225 0.0
H270 H 0.29218 1.00952 0.82329 0.0
H271 H 0.2628 1.00955 0.86341 0.0
H272 H 0.15333 0.02547 0.13638 0.0
H273 H 0.17287 0.02335 0.06549 0.0
H274 H 0.19794 0.04523 0.22155 0.0
H275 H 0.21759 0.04263 0.14998 0.0
H276 H 0.26386 0.03599 0.25598 0.0
H277 H 0.29672 0.07993 0.20406 0.0
H278 H 0.28482 0.07568 0.12286 0.0
H279 H 0.2522 0.0316 0.17373 0.0
C280 C 0.49844 0.27875 0.91743 0.0
C281 C 0.50802 0.29299 0.93876 0.0
C282 C 0.50016 0.31262 0.8714 0.0
C283 C 0.50896 0.30971 0.91583 0.0
C284 C 0.49039 0.2984 0.85048 0.0
C285 C 0.48961 0.28162 0.8732 0.0
U286 U 0.49487 0.25001 0.03128 0.0
O287 O 0.47981 0.22499 0.04509 0.0
O288 O 0.50922 0.22537 0.05053 0.0
C289 C 0.49438 0.21595 0.05578 0.0
C290 C 0.49749 0.26095 0.9409 0.0
C291 C 0.49343 0.20406 0.0985 0.0
C292 C 0.4888 0.17397 0.13 0.0
C293 C 0.48849 0.18611 0.09142 0.0
C294 C 0.49851 0.19768 0.1841 0.0
C295 C 0.49408 0.1795 0.17671 0.0
C296 C 0.49824 0.20986 0.14524 0.0
C297 C 0.49149 0.27825 0.15052 0.0
C298 C 0.50075 0.27276 0.2337 0.0
C299 C 0.48357 0.29925 0.21411 0.0
C300 C 0.48282 0.29387 0.16572 0.0
C301 C 0.49294 0.28904 0.24862 0.0
C302 C 0.50011 0.26745 0.1849 0.0
C303 C 0.49286 0.27496 0.09809 0.0
O304 O 0.51141 0.25647 0.96741 0.0
O305 O 0.48208 0.25687 0.96154 0.0
O306 O 0.47865 0.26816 0.07655 0.0
O307 O 0.50814 0.26849 0.08192 0.0
H308 H 0.51479 0.29122 0.97318 0.0
H309 H 0.51638 0.32044 0.93324 0.0
H310 H 0.48357 0.30016 0.81613 0.0
H311 H 0.48211 0.27086 0.85615 0.0
H312 H 0.48499 0.16018 0.12312 0.0
H313 H 0.48469 0.18137 0.05566 0.0
H314 H 0.50272 0.20238 0.21953 0.0
H315 H 0.50214 0.22366 0.15144 0.0
H316 H 0.50786 0.26442 0.25934 0.0
H317 H 0.47767 0.31201 0.22365 0.0
H318 H 0.4762 0.30243 0.13959 0.0
H319 H 0.50691 0.25533 0.1738 0.0
Eu320 Eu 0.99741 0.02176 0.57859 0.0
C321 C 0.05341 1.00865 0.76879 0.0
N322 N 0.05523 0.01397 0.72206 0.0
C323 C 0.07878 0.03429 0.74489 0.0
C324 C 0.0639 0.01631 0.806 0.0
C325 C 0.06811 0.02616 0.70929 0.0
C326 C 0.07651 0.02951 0.79359 0.0
C327 C 0.04018 0.98791 0.82621 0.0
C328 C 0.04178 0.99473 0.77869 0.0
C329 C 0.04997 0.99598 0.86402 0.0
C330 C 0.06182 0.01016 0.85392 0.0
Eu331 Eu 0.03571 1.0009 0.66427 0.0
N332 N 0.03288 0.98711 0.74114 0.0
C333 C 0.02922 0.97288 0.83389 0.0
C334 C 0.02291 0.97193 0.74785 0.0
C335 C 0.02073 0.96471 0.79438 0.0
H336 H 0.06986 0.0299 0.67167 0.0
H337 H 0.01254 0.95286 0.7997 0.0
H338 H 0.96087 0.02599 0.65309 0.0
H339 H 0.99722 0.98711 0.40463 0.0
H340 H 0.01644 0.9655 0.71731 0.0
H341 H 0.02761 0.96722 0.86986 0.0
H342 H 1.00607 0.01057 0.46404 0.0
H343 H 0.08873 0.04423 0.73476 0.0
H344 H 0.04882 0.99105 0.9009 0.0
H345 H 0.06964 0.01598 0.88316 0.0
H346 H 0.93479 1.00768 0.67798 0.0
H347 H 0.08484 0.03576 0.82109 0.0
H348 H 0.97382 0.96484 0.42649 0.0
N349 N 0.97 1.00717 0.60045 0.0
C350 C 0.96523 0.99287 0.57272 0.0
C351 C 0.94344 1.00314 0.64888 0.0
C352 C 0.95003 0.98234 0.58417 0.0
C353 C 0.95847 0.01329 0.63532 0.0
C354 C 0.93949 0.98729 0.62405 0.0
N355 N 0.98791 1.00141 0.51816 0.0
C356 C 0.99565 1.001 0.47322 0.0
C357 C 0.96897 0.97638 0.49751 0.0
C358 C 0.9744 0.99001 0.52982 0.0
C359 C 0.97758 0.97514 0.45236 0.0
C360 C 0.99074 0.98773 0.4398 0.0
H361 H 0.9277 0.97957 0.63413 0.0
H362 H 0.93383 0.95948 0.56252 0.0
H363 H 0.95055 0.95418 0.48664 0.0
O364 O 1.00292 0.04488 0.53243 0.0
O365 O 0.01257 0.99621 0.56171 0.0
O366 O 0.01271 0.98403 0.63621 0.0
O367 O 0.97552 0.03694 0.5462 0.0
O368 O 0.02507 0.01911 0.54569 0.0
O369 O 0.04403 0.02285 0.61089 0.0
O370 O 0.05684 0.98081 0.66996 0.0
O371 O 0.03277 0.03092 0.67849 0.0
O372 O 1.00861 0.04198 0.63332 0.0
O373 O 0.04844 0.98992 0.59915 0.0
O374 O 1.00641 0.99685 0.68477 0.0
O375 O 0.99296 0.0228 0.6604 0.0
C376 C 0.0111 0.98204 0.58937 0.0
C377 C 0.98184 0.06789 0.53917 0.0
C378 C 0.98502 0.09938 0.51736 0.0
C379 C 0.97587 0.10414 0.56017 0.0
C380 C 0.97276 0.07282 0.58186 0.0
C381 C 0.96978 0.0909 0.59215 0.0
C382 C 0.98796 0.08117 0.50736 0.0
C383 C 0.04068 0.0238 0.564 0.0
C384 C 0.98611 0.04914 0.52824 0.0
C385 C 0.94528 0.96791 0.55389 0.0
C386 C 0.95476 0.96493 0.5106 0.0
C387 C 0.02179 0.04393 0.66525 0.0
C388 C 0.05698 0.95975 0.60485 0.0
C389 C 0.04923 0.92805 0.61501 0.0
C390 C 0.05524 0.92482 0.56731 0.0
C391 C 0.06284 0.95615 0.55744 0.0
C392 C 0.04995 0.94571 0.63326 0.0
C393 C 0.06187 0.9388 0.53876 0.0
C394 C 0.99506 1.00994 0.69245 0.0
C395 C 0.05785 0.97832 0.62313 0.0
H396 H 0.97329 0.11806 0.56872 0.0
H397 H 0.9682 0.06275 0.60745 0.0
H398 H 0.96281 0.09466 0.62511 0.0
H399 H 0.99544 0.07725 0.47527 0.0
H400 H 0.05513 0.91143 0.55216 0.0
H401 H 0.06809 0.96682 0.53476 0.0
H402 H 0.04488 0.94859 0.66931 0.0
H403 H 0.06641 0.93615 0.50211 0.0
Eu404 Eu 0.52099 0.03488 0.6535 0.0
C405 C 0.51111 0.95744 0.56248 0.0
N406 N 0.51611 0.97259 0.53861 0.0
C407 C 0.53796 0.95616 0.49296 0.0
C408 C 0.51966 0.94098 0.55291 0.0
C409 C 0.52914 0.97217 0.50379 0.0
C410 C 0.53326 0.94051 0.51778 0.0
C411 C 0.49219 0.94294 0.62281 0.0
C412 C 0.49753 0.95841 0.5971 0.0
C413 C 0.50075 0.92656 0.61356 0.0
C414 C 0.51444 0.92559 0.57871 0.0
Eu415 Eu 0.50106 0.9991 0.5608 0.0
N416 N 0.48984 0.97457 0.60639 0.0
C417 C 0.47843 0.94439 0.65722 0.0
C418 C 0.47584 0.97585 0.63813 0.0
C419 C 0.47009 0.96088 0.66451 0.0
H420 H 0.53252 0.98411 0.48374 0.0
H421 H 0.45914 0.96205 0.69019 0.0
H422 H 0.48951 0.04854 0.73267 0.0
H423 H 0.56028 0.07335 0.52154 0.0
H424 H 0.46886 0.98826 0.64285 0.0
H425 H 0.47397 0.93283 0.67782 0.0
H426 H 0.55138 0.04655 0.56788 0.0
H427 H 0.54832 0.95589 0.46537 0.0
H428 H 0.49688 0.91457 0.63315 0.0
H429 H 0.5209 0.91285 0.57195 0.0
H430 H 0.47335 0.07632 0.75341 0.0
H431 H 0.54015 0.92813 0.50937 0.0
H432 H 0.54532 0.10229 0.53734 0.0
N433 N 0.50531 0.06078 0.67749 0.0
C434 C 0.50983 0.07621 0.65414 0.0
C435 C 0.48351 0.07645 0.72525 0.0
C436 C 0.50106 0.09242 0.66515 0.0
C437 C 0.49254 0.06069 0.71307 0.0
C438 C 0.48772 0.09237 0.70107 0.0
N439 N 0.53096 0.05981 0.60771 0.0
C440 C 0.5445 0.05892 0.57443 0.0
C441 C 0.52792 0.0915 0.59334 0.0
C442 C 0.52312 0.07575 0.6186 0.0
C443 C 0.54129 0.09051 0.55766 0.0
C444 C 0.54971 0.07418 0.54847 0.0
H445 H 0.48068 0.10455 0.71056 0.0
H446 H 0.49916 0.12066 0.64783 0.0
H447 H 0.52264 0.11985 0.58497 0.0
O448 O 0.54875 0.03596 0.67807 0.0
O449 O 0.50432 0.04528 0.58982 0.0
O450 O 0.51059 0.02537 0.52901 0.0
O451 O 0.52742 0.0437 0.72715 0.0
O452 O 0.54059 0.01694 0.61224 0.0
O453 O 0.52786 0.01085 0.53785 0.0
O454 O 0.47369 0.99978 0.53301 0.0
O455 O 0.51772 0.9885 0.6241 0.0
O456 O 0.51219 1.00837 0.68587 0.0
O457 O 0.49508 0.98987 0.48724 0.0
O458 O 0.4815 0.01692 0.60311 0.0
O459 O 0.49465 0.02256 0.67719 0.0
C460 C 0.5056 0.04132 0.54345 0.0
C461 C 0.55232 0.02813 0.75977 0.0
C462 C 0.57918 0.01532 0.79621 0.0
C463 C 0.56824 1.00386 0.82413 0.0
C464 C 0.5416 0.01661 0.788 0.0
C465 C 0.54957 1.00456 0.82004 0.0
C466 C 0.57105 0.02746 0.76416 0.0
C467 C 0.54202 0.01277 0.56592 0.0
C468 C 0.54439 0.03985 0.72269 0.0
C469 C 0.50579 0.1081 0.63994 0.0
C470 C 0.51917 0.10764 0.60415 0.0
C471 C 0.51654 0.9923 0.67058 0.0
C472 C 0.47269 1.00789 0.45072 0.0
C473 C 0.449 0.02646 0.41642 0.0
C474 C 0.46167 0.03444 0.38523 0.0
C475 C 0.48513 0.01594 0.41893 0.0
C476 C 0.45462 0.01307 0.44879 0.0
C477 C 0.47959 0.02909 0.38632 0.0
C478 C 0.48036 0.02104 0.64957 0.0
C479 C 0.47854 0.99542 0.48905 0.0
H480 H 0.57409 0.9945 0.84952 0.0
H481 H 0.52712 0.01675 0.78489 0.0
H482 H 0.54125 0.99567 0.84159 0.0
H483 H 0.57931 0.03608 0.74152 0.0
H484 H 0.45767 0.04469 0.35967 0.0
H485 H 0.4992 0.01237 0.41986 0.0
H486 H 0.44502 1.00711 0.47375 0.0
H487 H 0.48926 0.03532 0.36219 0.0
Eu488 Eu 0.53017 0.50292 0.55985 0.0
C489 C 0.46568 0.50512 0.69814 0.0
N490 N 0.46826 0.51456 0.65643 0.0
C491 C 0.43878 0.50624 0.62923 0.0
C492 C 0.44977 0.49518 0.70592 0.0
C493 C 0.45467 0.51607 0.6235 0.0
C494 C 0.43645 0.49548 0.67019 0.0
C495 C 0.47584 0.49752 0.77928 0.0
C496 C 0.47849 0.50629 0.73453 0.0
C497 C 0.46039 0.48698 0.7863 0.0
C498 C 0.4474 0.4858 0.74969 0.0
Eu499 Eu 0.4963 0.52958 0.64923 0.0
N500 N 0.49344 0.51634 0.72647 0.0
C501 C 0.48867 0.49986 0.8159 0.0
C502 C 0.50558 0.51939 0.76261 0.0
C503 C 0.50349 0.51103 0.80771 0.0
H504 H 0.45578 0.52514 0.5932 0.0
H505 H 0.51331 0.51317 0.83607 0.0
H506 H 0.5693 0.52282 0.58333 0.0
H507 H 0.49948 0.49011 0.3827 0.0
H508 H 0.51701 0.52804 0.75619 0.0
H509 H 0.48711 0.49336 0.85082 0.0
H510 H 0.50577 0.48445 0.46922 0.0
H511 H 0.42822 0.50721 0.60243 0.0
H512 H 0.45819 0.47998 0.82027 0.0
H513 H 0.43534 0.47796 0.75608 0.0
H514 H 0.59126 0.54286 0.54237 0.0
H515 H 0.42404 0.48803 0.67479 0.0
H516 H 0.51673 0.51331 0.33825 0.0
N517 N 0.55201 0.52134 0.52224 0.0
C518 C 0.54947 0.52549 0.47487 0.0
C519 C 0.5795 0.53816 0.52307 0.0
C520 C 0.56149 0.53693 0.45013 0.0
C521 C 0.56713 0.52682 0.54608 0.0
C522 C 0.57651 0.54349 0.47511 0.0
N523 N 0.52496 0.50551 0.47516 0.0
C524 C 0.51281 0.49514 0.45082 0.0
C525 C 0.53269 0.52076 0.40081 0.0
C526 C 0.53533 0.51749 0.45071 0.0
C527 C 0.51921 0.51119 0.37656 0.0
C528 C 0.50944 0.49809 0.40152 0.0
H529 H 0.58608 0.55229 0.45737 0.0
H530 H 0.56734 0.54991 0.38149 0.0
H531 H 0.54207 0.53576 0.33824 0.0
O532 O 0.53889 0.47765 0.52635 0.0
O533 O 0.53187 0.53349 0.56496 0.0
O534 O 0.50236 0.54038 0.57438 0.0
O535 O 0.55247 0.48787 0.58947 0.0
O536 O 0.50002 0.4983 0.5477 0.0
O537 O 0.4868 0.52486 0.57124 0.0
O538 O 0.5032 0.55603 0.67819 0.0
O539 O 0.50753 0.50246 0.67252 0.0
O540 O 0.50744 0.48906 0.59891 0.0
O541 O 0.47543 0.54796 0.67349 0.0
O542 O 0.52603 0.53438 0.66362 0.0
O543 O 0.53989 0.50852 0.63642 0.0
C544 C 0.51849 0.54465 0.55942 0.0
C545 C 0.54859 0.45651 0.58577 0.0
C546 C 0.54144 0.42445 0.58324 0.0
C547 C 0.54573 0.42319 0.63284 0.0
C548 C 0.55279 0.45482 0.6354 0.0
C549 C 0.55128 0.43829 0.65864 0.0
C550 C 0.54289 0.44124 0.56001 0.0
C551 C 0.48716 0.51032 0.5439 0.0
C552 C 0.55013 0.47413 0.5612 0.0
C553 C 0.5584 0.54098 0.40106 0.0
C554 C 0.544 0.53293 0.37645 0.0
C555 C 0.50714 0.48784 0.64613 0.0
C556 C 0.48249 0.578 0.65482 0.0
C557 C 0.48471 0.6106 0.65005 0.0
C558 C 0.47657 0.61001 0.60405 0.0
C559 C 0.47426 0.5777 0.60897 0.0
C560 C 0.4877 0.59444 0.67513 0.0
C561 C 0.47134 0.59365 0.58382 0.0
C562 C 0.53953 0.52302 0.6637 0.0
C563 C 0.48656 0.56119 0.68039 0.0
H564 H 0.54503 0.41048 0.65169 0.0
H565 H 0.5572 0.46626 0.65652 0.0
H566 H 0.5545 0.43718 0.69683 0.0
H567 H 0.5394 0.44251 0.52201 0.0
H568 H 0.47397 0.62221 0.58405 0.0
H569 H 0.4703 0.56514 0.59232 0.0
H570 H 0.49433 0.5946 0.71014 0.0
H571 H 0.46507 0.59331 0.54841 0.0
Eu572 Eu 0.0257 0.53713 0.54398 0.0
C573 C 0.02311 0.46622 0.67927 0.0
N574 N 0.01327 0.47047 0.63942 0.0
C575 C 0.0148 0.44014 0.61121 0.0
C576 C 0.02938 0.44861 0.68626 0.0
C577 C 1.00884 0.45776 0.60585 0.0
C578 C 0.02518 0.43556 0.65147 0.0
C579 C 0.03709 0.47544 0.75497 0.0
C580 C 0.02689 0.4795 0.71333 0.0
C581 C 0.04342 0.45794 0.76185 0.0
C582 C 0.03958 0.44457 0.72761 0.0
Eu583 Eu 1.00438 0.5006 0.63305 0.0
N584 N 0.02101 0.49648 0.70517 0.0
C585 C 0.04074 0.48912 0.78834 0.0
C586 C 0.02412 0.50975 0.73826 0.0
C587 C 0.03414 0.50632 0.78005 0.0
H588 H 1.00044 0.46112 0.57532 0.0
H589 H 0.03674 0.51694 0.80592 0.0
H590 H 1.00915 0.57579 0.58568 0.0
H591 H 0.01568 0.50472 0.36721 0.0
H592 H 0.01897 0.52302 0.73278 0.0
H593 H 0.04856 0.48654 0.8207 0.0
H594 H 0.03133 0.51098 0.44393 0.0
H595 H 0.0113 0.43009 0.58445 0.0
H596 H 0.05132 0.4546 0.79355 0.0
H597 H 0.04455 0.43113 0.7335 0.0
H598 H 0.98663 0.59837 0.56163 0.0
H599 H 0.02976 0.42189 0.65555 0.0
H600 H 0.99001 0.52351 0.34258 0.0
N601 N 1.00494 0.55959 0.52325 0.0
C602 C 0.9962 0.55749 0.4803 0.0
C603 C 0.98916 0.58692 0.53853 0.0
C604 C 0.98316 0.56994 0.46539 0.0
C605 C 1.00186 0.57414 0.55209 0.0
C606 C 0.97969 0.58476 0.49515 0.0
N607 N 0.01294 0.53096 0.46685 0.0
C608 C 0.01933 0.5183 0.43563 0.0
C609 C 0.99124 0.54014 0.40698 0.0
C610 C 1.00008 0.54261 0.4518 0.0
C611 C 0.99645 0.52586 0.37727 0.0
C612 C 0.01085 0.51514 0.39118 0.0
H613 H 0.96976 0.59462 0.48494 0.0
H614 H 0.96371 0.57646 0.40982 0.0
H615 H 0.97089 0.55047 0.35849 0.0
O616 O 0.0495 0.5393 0.49767 0.0
O617 O 0.99563 0.53634 0.56119 0.0
O618 O 0.99134 0.50642 0.5613 0.0
O619 O 0.03938 0.56278 0.53368 0.0
O620 O 0.0334 0.50768 0.53171 0.0
O621 O 1.0077 0.49277 0.5542 0.0
O622 O 0.97923 0.5094 0.66643 0.0
O623 O 0.03496 0.50197 0.63393 0.0
O624 O 0.04277 0.53055 0.60927 0.0
O625 O 0.98485 0.48109 0.65966 0.0
O626 O 1.00239 0.52977 0.65838 0.0
O627 O 0.02463 0.54697 0.62133 0.0
C628 C 0.98532 0.52246 0.55249 0.0
C629 C 0.071 0.55966 0.52956 0.0
C630 C 0.10312 0.5528 0.53229 0.0
C631 C 0.10537 0.56606 0.56811 0.0
C632 C 0.07367 0.57294 0.56514 0.0
C633 C 0.09073 0.57602 0.58434 0.0
C634 C 0.08581 0.54967 0.5134 0.0
C635 C 0.02278 0.49351 0.5294 0.0
C636 C 0.05281 0.55581 0.51032 0.0
C637 C 0.9739 0.56713 0.42166 0.0
C638 C 0.97793 0.55228 0.39256 0.0
C639 C 0.04662 0.51519 0.62983 0.0
C640 C 0.95506 0.49037 0.6455 0.0
C641 C 0.92292 0.49644 0.6427 0.0
C642 C 0.92148 0.48568 0.601 0.0
C643 C 0.95336 0.47975 0.60351 0.0
C644 C 0.93981 0.49879 0.66469 0.0
C645 C 0.93665 0.47744 0.58152 0.0
C646 C 0.01235 0.54442 0.65513 0.0
C647 C 0.97271 0.49315 0.66856 0.0
H648 H 0.1185 0.56904 0.58293 0.0
H649 H 0.06257 0.58089 0.5785 0.0
H650 H 0.09263 0.58625 0.61176 0.0
H651 H 0.08379 0.53927 0.48646 0.0
H652 H 0.90864 0.48378 0.58328 0.0
H653 H 0.96496 0.47335 0.58739 0.0
H654 H 0.94105 0.50695 0.69713 0.0
H655 H 0.93546 0.46931 0.54911 0.0
C656 C 0.14387 0.04273 0.22218 0.0
C657 C 0.16174 0.03706 0.2279 0.0
C658 C 0.13201 0.04303 0.26161 0.0
C659 C 0.12511 0.02357 0.38459 0.0
H660 H 0.08761 0.05932 0.392 0.0
C661 C 0.07362 0.02626 0.54371 0.0
C662 C 0.05556 0.02801 0.52972 0.0
C663 C 0.08751 0.02875 0.50981 0.0
C664 C 0.09796 0.0492 0.39037 0.0
H665 H 0.18112 0.0276 0.28049 0.0
H666 H 0.16056 0.02858 0.34961 0.0
H667 H 0.1103 0.06136 0.32832 0.0
H668 H 0.038 0.03425 0.4694 0.0
H669 H 0.06214 0.03882 0.41074 0.0
H670 H 0.11268 0.01147 0.44686 0.0
C671 C 0.15562 0.03249 0.31425 0.0
C672 C 0.11097 0.05031 0.35369 0.0
C673 C 0.16751 0.03215 0.27464 0.0
C674 C 0.05175 0.03279 0.48145 0.0
C675 C 0.06561 0.0355 0.44782 0.0
C676 C 0.11216 0.02255 0.42155 0.0
C677 C 0.13763 0.03778 0.30822 0.0
C678 C 0.12458 0.03735 0.3497 0.0
C679 C 0.08366 0.0333 0.46136 0.0
C680 C 0.09826 0.03519 0.42444 0.0
H681 H 0.13897 0.0469 0.18699 0.0
H682 H 0.11826 0.04698 0.25514 0.0
H683 H 0.13518 0.01319 0.3825 0.0
H684 H 0.07704 0.02247 0.58047 0.0
H685 H 0.10127 0.02708 0.52151 0.0
C686 C 0.50284 0.14912 0.20773 0.0
C687 C 0.49548 0.16613 0.21679 0.0
C688 C 0.504 0.13635 0.24469 0.0
C689 C 0.48467 0.12353 0.36341 0.0
H690 H 0.52723 0.09402 0.37216 0.0
C691 C 0.49559 0.07221 0.51932 0.0
C692 C 0.50369 0.05584 0.507 0.0
C693 C 0.49455 0.08614 0.48536 0.0
C694 C 0.51514 0.10198 0.36995 0.0
H695 H 0.4836 0.18299 0.2722 0.0
H696 H 0.48574 0.16067 0.33703 0.0
H697 H 0.52569 0.11751 0.31105 0.0
H698 H 0.5168 0.04123 0.44891 0.0
H699 H 0.51449 0.06518 0.38948 0.0
H700 H 0.47405 0.10783 0.42206 0.0
C701 C 0.4905 0.15721 0.30105 0.0
C702 C 0.51428 0.1155 0.33489 0.0
C703 C 0.48942 0.17007 0.26402 0.0
C704 C 0.51043 0.05363 0.45968 0.0
C705 C 0.50929 0.06748 0.42569 0.0
C706 C 0.48551 0.10994 0.39846 0.0
C707 C 0.49782 0.14019 0.29183 0.0
C708 C 0.49898 0.12636 0.33083 0.0
C709 C 0.50148 0.084 0.43813 0.0
C710 C 0.5007 0.09887 0.40192 0.0
H711 H 0.50785 0.14568 0.17199 0.0
H712 H 0.50954 0.12334 0.23606 0.0
H713 H 0.4726 0.1315 0.36099 0.0
H714 H 0.49016 0.07434 0.55535 0.0
H715 H 0.48858 0.0987 0.49646 0.0
C716 C 0.36499 0.51036 0.24521 0.0
C717 C 0.36135 0.49402 0.22164 0.0
C718 C 0.378 0.5114 0.28174 0.0
C719 C 0.4181 0.48771 0.32873 0.0
H720 H 0.41155 0.51905 0.43963 0.0
C721 C 0.46835 0.49058 0.48979 0.0
C722 C 0.47266 0.5077 0.50768 0.0
C723 C 0.45452 0.48831 0.45585 0.0
C724 C 0.41366 0.51034 0.40867 0.0
H725 H 0.36815 0.46583 0.21939 0.0
H726 H 0.39068 0.46759 0.2834 0.0
H727 H 0.38767 0.51608 0.37975 0.0
H728 H 0.46587 0.53589 0.50378 0.0
H729 H 0.44178 0.53193 0.44499 0.0
H730 H 0.44411 0.48198 0.35784 0.0
C731 C 0.38376 0.47971 0.27293 0.0
C732 C 0.39996 0.50865 0.37425 0.0
C733 C 0.3708 0.47868 0.23627 0.0
C734 C 0.46281 0.52248 0.49101 0.0
C735 C 0.44894 0.52021 0.4574 0.0
C736 C 0.43178 0.48935 0.36329 0.0
C737 C 0.38767 0.49612 0.29587 0.0
C738 C 0.40203 0.49741 0.33357 0.0
C739 C 0.4446 0.5031 0.43939 0.0
C740 C 0.42979 0.5008 0.40349 0.0
H741 H 0.35818 0.5225 0.23438 0.0
H742 H 0.3808 0.52434 0.29797 0.0
H743 H 0.42032 0.47914 0.29756 0.0
H744 H 0.4755 0.47889 0.50246 0.0
H745 H 0.4514 0.47492 0.44314 0.0
C746 C 0.05562 0.3875 0.195 0.0
C747 C 0.03998 0.38072 0.17294 0.0
C748 C 0.05452 0.39962 0.23385 0.0
C749 C 0.02257 0.43103 0.29436 0.0
H750 H 0.05685 0.42948 0.40002 0.0
C751 C 0.01135 0.4699 0.47252 0.0
C752 C 0.02593 0.47969 0.49143 0.0
C753 C 0.0138 0.4578 0.43434 0.0
C754 C 0.04728 0.43018 0.37055 0.0
H755 H 0.01091 0.38097 0.17564 0.0
H756 H 1.00895 0.40171 0.24366 0.0
H757 H 0.05958 0.40839 0.33247 0.0
H758 H 0.05461 0.48408 0.48574 0.0
H759 H 0.05896 0.46267 0.41904 0.0
H760 H 0.01009 0.45258 0.33292 0.0
C761 C 0.02213 0.39815 0.2302 0.0
C762 C 0.04885 0.41811 0.33167 0.0
C763 C 0.02323 0.38618 0.19116 0.0
C764 C 0.04313 0.47673 0.47197 0.0
C765 C 0.04561 0.46445 0.43391 0.0
C766 C 0.02092 0.44295 0.33334 0.0
C767 C 0.03774 0.40518 0.25197 0.0
C768 C 0.03643 0.41828 0.2931 0.0
C769 C 0.03091 0.45503 0.41418 0.0
C770 C 0.03317 0.44262 0.3721 0.0
H771 H 0.06874 0.38371 0.18159 0.0
H772 H 0.06686 0.40488 0.24906 0.0
H773 H 0.013 0.43195 0.26495 0.0
H774 H 0.99788 0.47192 0.48632 0.0
H775 H 1.00222 0.45061 0.42047 0.0
C776 C 0.87746 0.02129 1.00426 0.0
C777 C 0.87139 1.00512 0.02489 0.0
C778 C 0.89092 0.02135 0.96872 0.0
C779 C 0.91472 0.99225 0.87983 0.0
H780 H 0.95066 0.02996 0.8851 0.0
C781 C 0.97779 0.9925 0.75535 0.0
C782 C 0.98237 1.009 0.73397 0.0
C783 C 0.96471 0.99161 0.79196 0.0
C784 C 0.94066 0.01941 0.88282 0.0
H785 H 0.87468 0.97628 0.02369 0.0
H786 H 0.89821 0.97637 0.96184 0.0
H787 H 0.92672 0.02915 0.94542 0.0
H788 H 0.9772 0.03754 0.73518 0.0
H789 H 0.95443 0.03601 0.79879 0.0
H790 H 0.92877 0.98251 0.81717 0.0
C791 C 0.8924 0.98903 0.97272 0.0
C792 C 0.92687 0.01897 0.9174 0.0
C793 C 0.87888 0.98897 1.00823 0.0
C794 C 0.97394 0.02462 0.75087 0.0
C795 C 0.96095 0.02374 0.78754 0.0
C796 C 0.92857 0.99267 0.84528 0.0
C797 C 0.89874 1.00524 0.95282 0.0
C798 C 0.91362 1.00546 0.91624 0.0
C799 C 0.95602 1.00722 0.80829 0.0
C800 C 0.94166 1.00633 0.84614 0.0
H801 H 0.87178 0.03396 0.01555 0.0
H802 H 0.89513 0.03407 0.95353 0.0
H803 H 0.90467 0.98177 0.87734 0.0
H804 H 0.98392 0.98021 0.74288 0.0
H805 H 0.96139 0.97869 0.80748 0.0
C806 C 0.51818 0.88234 1.00148 0.0
C807 C 0.52552 0.86538 0.99161 0.0
C808 C 0.51749 0.89553 0.96553 0.0
C809 C 0.53747 0.90943 0.84815 0.0
H810 H 0.49472 0.93866 0.83962 0.0
C811 C 0.52638 0.96125 0.69362 0.0
C812 C 0.51835 0.97759 0.70651 0.0
C813 C 0.52743 0.94718 0.72712 0.0
C814 C 0.50685 0.93077 0.84179 0.0
H815 H 0.53803 0.84916 0.93576 0.0
H816 H 0.53688 0.87225 0.87292 0.0
H817 H 0.49624 0.91487 0.89981 0.0
H818 H 0.50523 0.99196 0.76503 0.0
H819 H 0.50752 0.96773 0.8237 0.0
H820 H 0.54811 0.92546 0.79018 0.0
C821 C 0.53176 0.87534 0.90877 0.0
C822 C 0.50772 0.91709 0.87635 0.0
C823 C 0.53242 0.86209 0.94483 0.0
C824 C 0.51161 0.97961 0.75389 0.0
C825 C 0.51272 0.9656 0.78742 0.0
C826 C 0.53661 0.92316 0.81354 0.0
C827 C 0.52416 0.8922 0.9186 0.0
C828 C 0.52309 0.90632 0.88033 0.0
C829 C 0.52053 0.94914 0.77444 0.0
C830 C 0.52134 0.93413 0.81019 0.0
H831 H 0.51314 0.88556 0.03733 0.0
H832 H 0.51191 0.90846 0.97478 0.0
H833 H 0.54959 0.90153 0.85048 0.0
H834 H 0.53181 0.95927 0.65751 0.0
H835 H 0.53338 0.93466 0.71564 0.0
C836 C 0.65403 0.55024 0.97958 0.0
C837 C 0.66706 0.5367 0.98243 0.0
C838 C 0.64062 0.54962 0.94402 0.0
C839 C 0.61717 0.51752 0.86307 0.0
H840 H 0.60032 0.56023 0.79782 0.0
C841 C 0.56858 0.51331 0.70115 0.0
C842 C 0.55447 0.52576 0.69876 0.0
C843 C 0.58237 0.51532 0.73505 0.0
C844 C 0.60473 0.5482 0.8161 0.0
H845 H 0.67659 0.51229 0.94854 0.0
H846 H 0.65332 0.51124 0.88654 0.0
H847 H 0.62447 0.56258 0.85744 0.0
H848 H 0.54413 0.55034 0.72999 0.0
H849 H 0.56819 0.55375 0.78956 0.0
H850 H 0.59748 0.50313 0.82199 0.0
C851 C 0.65321 0.52216 0.91246 0.0
C852 C 0.6186 0.54954 0.85028 0.0
C853 C 0.66659 0.52277 0.948 0.0
C854 C 0.55474 0.54047 0.73076 0.0
C855 C 0.56859 0.54248 0.7648 0.0
C856 C 0.60335 0.51618 0.82897 0.0
C857 C 0.63989 0.53544 0.91036 0.0
C858 C 0.62507 0.53419 0.87404 0.0
C859 C 0.5825 0.52983 0.76766 0.0
C860 C 0.597 0.53148 0.80479 0.0
H861 H 0.65383 0.56105 1.00586 0.0
H862 H 0.63049 0.55998 0.94387 0.0
H863 H 0.6215 0.50546 0.88137 0.0
H864 H 0.56898 0.50186 0.677 0.0
H865 H 0.59302 0.5055 0.73552 0.0
C866 C 1.00932 0.66976 0.94697 0.0
C867 C 0.9949 0.66965 0.98008 0.0
C868 C 0.01055 0.65672 0.91046 0.0
C869 C 0.9952 0.6108 0.88072 0.0
H870 H 0.01107 0.62267 0.75051 0.0
C871 C 0.99568 0.55813 0.72564 0.0
C872 C 0.00996 0.55876 0.6922 0.0
C873 C 0.99338 0.57181 0.75999 0.0
C874 C 1.00683 0.61905 0.78684 0.0
H875 H 0.97002 0.65607 0.99894 0.0
H876 H 0.97226 0.63333 0.93571 0.0
H877 H 1.00791 0.64635 0.81094 0.0
H878 H 0.03318 0.57433 0.66931 0.0
H879 H 0.02939 0.59785 0.72949 0.0
H880 H 0.99435 0.58349 0.85702 0.0
C881 C 0.98279 0.64333 0.93852 0.0
C882 C 1.00498 0.63267 0.8215 0.0
C883 C 0.98152 0.6564 0.97483 0.0
C884 C 0.02194 0.57339 0.69421 0.0
C885 C 0.01969 0.587 0.72864 0.0
C886 C 0.99713 0.59716 0.84616 0.0
C887 C 0.99742 0.64318 0.90618 0.0
C888 C 0.99916 0.62873 0.86892 0.0
C889 C 1.00536 0.58646 0.76198 0.0
C890 C 1.00301 0.60107 0.79871 0.0
H891 H 0.02 0.67958 0.95018 0.0
H892 H 0.02209 0.65692 0.88649 0.0
H893 H 0.99095 0.60723 0.91709 0.0
H894 H 0.98613 0.54715 0.72508 0.0
H895 H 0.98204 0.57101 0.78455 0.0
C896 C 0.05224 0.20234 0.21879 0.0
C897 C 0.03884 0.21324 0.19876 0.0
C898 C 0.04791 0.18984 0.2548 0.0
C899 C 0.01502 0.18162 0.35069 0.0
H900 H 0.02862 0.13167 0.34081 0.0
C901 C 0.99984 0.12906 0.50032 0.0
C902 C 0.99181 0.11319 0.48316 0.0
C903 C 1.00702 0.14154 0.46774 0.0
C904 C 0.02482 0.14561 0.34405 0.0
H905 H 0.01048 0.21966 0.20054 0.0
H906 H 1.00295 0.19786 0.26321 0.0
H907 H 0.03871 0.15293 0.27871 0.0
H908 H 0.98445 0.09832 0.41831 0.0
H909 H 0.99725 0.11993 0.36177 0.0
H910 H 1.0009 0.17429 0.41555 0.0
C911 C 0.01676 0.19896 0.25109 0.0
C912 C 0.03067 0.15775 0.3088 0.0
C913 C 0.02103 0.21125 0.21481 0.0
C914 C 0.99089 0.11021 0.4328 0.0
C915 C 0.99821 0.12256 0.40038 0.0
C916 C 1.00936 0.16954 0.38624 0.0
C917 C 0.03017 0.18831 0.27179 0.0
C918 C 0.02549 0.17577 0.31131 0.0
C919 C 1.00642 0.13828 0.41753 0.0
C920 C 0.0139 0.15137 0.38266 0.0
H921 H 0.06607 0.20365 0.20701 0.0
H922 H 0.05847 0.18173 0.27028 0.0
H923 H 0.01102 0.19552 0.35361 0.0
H924 H 1.00096 0.13164 0.53891 0.0
H925 H 0.01332 0.15358 0.48178 0.0
C926 C 0.29846 0.04102 0.29938 0.0
C927 C 0.29248 0.05759 0.28151 0.0
C928 C 0.31266 0.04025 0.33225 0.0
C929 C 0.34276 0.04188 0.40644 0.0
H930 H 0.38173 0.06952 0.34996 0.0
C931 C 0.41616 0.01924 0.41484 0.0
C932 C 0.42997 0.03211 0.41536 0.0
C933 C 0.39824 0.02449 0.41153 0.0
C934 C 0.37102 0.06199 0.36721 0.0
H935 H 0.29522 0.0864 0.28905 0.0
H936 H 0.32023 0.08503 0.34613 0.0
H937 H 0.35111 0.07536 0.3252 0.0
H938 H 0.43587 0.06056 0.41534 0.0
H939 H 0.40454 0.0698 0.41018 0.0
H940 H 0.36282 0.02808 0.44723 0.0
C941 C 0.31409 0.07264 0.33395 0.0
C942 C 0.3534 0.06538 0.353 0.0
C943 C 0.29978 0.07341 0.30125 0.0
C944 C 0.42549 0.05035 0.41412 0.0
C945 C 0.40755 0.05563 0.41123 0.0
C946 C 0.36041 0.03856 0.42094 0.0
C947 C 0.32124 0.05604 0.34784 0.0
C948 C 0.33913 0.05497 0.3712 0.0
C949 C 0.39371 0.04275 0.40906 0.0
C950 C 0.37481 0.04816 0.40018 0.0
H951 H 0.29331 0.02854 0.28478 0.0
H952 H 0.31791 0.02724 0.34197 0.0
H953 H 0.33201 0.03377 0.42145 0.0
H954 H 0.41925 1.00508 0.41536 0.0
H955 H 0.38801 0.01418 0.40901 0.0
C956 C 0.51315 0.29486 0.31993 0.0
C957 C 0.49623 0.29659 0.29793 0.0
C958 C 0.51759 0.30504 0.36082 0.0
C959 C 0.49927 0.33803 0.45123 0.0
H960 H 0.54711 0.35822 0.43946 0.0
C961 C 0.52503 0.39493 0.57733 0.0
C962 C 0.53586 0.40821 0.55564 0.0
C963 C 0.52033 0.37941 0.55172 0.0
C964 C 0.53365 0.35284 0.44312 0.0
H965 H 0.47003 0.3089 0.30531 0.0
H966 H 0.47805 0.32736 0.37443 0.0
H967 H 0.53822 0.33379 0.38692 0.0
H968 H 0.55021 0.41547 0.48982 0.0
H969 H 0.54133 0.38903 0.4446 0.0
H970 H 0.49438 0.35806 0.50524 0.0
C971 C 0.48791 0.31803 0.36069 0.0
C972 C 0.52863 0.3385 0.41354 0.0
C973 C 0.48337 0.3076 0.32038 0.0
C974 C 0.54167 0.40568 0.50756 0.0
C975 C 0.53682 0.3903 0.48185 0.0
C976 C 0.50423 0.35258 0.48043 0.0
C977 C 0.50533 0.31745 0.38022 0.0
C978 C 0.51126 0.33109 0.41648 0.0
C979 C 0.52625 0.37686 0.50368 0.0
C980 C 0.52137 0.36041 0.47596 0.0
H981 H 0.52345 0.28654 0.30388 0.0
H982 H 0.53095 0.30379 0.37577 0.0
H983 H 0.48589 0.3325 0.45518 0.0
H984 H 0.5201 0.39651 0.6141 0.0
H985 H 0.51226 0.36932 0.56984 0.0
C986 C 0.23134 0.50933 0.30834 0.0
C987 C 0.23301 0.4918 0.2902 0.0
C988 C 0.22016 0.51288 0.34794 0.0
C989 C 0.19744 0.51678 0.43948 0.0
H990 H 0.15049 0.49604 0.41474 0.0
C991 C 0.13295 0.53759 0.54454 0.0
C992 C 0.11883 0.54263 0.51356 0.0
C993 C 0.14802 0.52872 0.52612 0.0
C994 C 0.16356 0.5018 0.42244 0.0
H995 H 0.22576 0.46401 0.30277 0.0
H996 H 0.20605 0.47026 0.37166 0.0
H997 H 0.17646 0.48526 0.36966 0.0
H998 H 0.10966 0.54228 0.43875 0.0
H999 H 0.13559 0.52646 0.40719 0.0
H1000 H 0.18423 0.53392 0.49073 0.0
C1001 C 0.21319 0.48127 0.35468 0.0
C1002 C 0.17848 0.49551 0.397 0.0
C1003 C 0.22445 0.47771 0.3152 0.0
C1004 C 0.12003 0.53829 0.46396 0.0
C1005 C 0.13493 0.52925 0.44576 0.0
C1006 C 0.1825 0.52297 0.46531 0.0
C1007 C 0.21036 0.49898 0.37017 0.0
C1008 C 0.19548 0.50332 0.40408 0.0
C1009 C 0.14914 0.52449 0.47652 0.0
C1010 C 0.16534 0.51594 0.45576 0.0
H1011 H 0.23756 0.52054 0.28978 0.0
H1012 H 0.21815 0.52669 0.3587 0.0
H1013 H 0.21041 0.52297 0.44591 0.0
H1014 H 0.13238 0.54047 0.58305 0.0
H1015 H 0.15877 0.52512 0.55062 0.0
C1016 C 0.9895 0.81382 0.89006 0.0
C1017 C 1.00255 0.80329 0.91326 0.0
C1018 C 0.99414 0.8248 0.85088 0.0
C1019 C 0.0342 0.84795 0.80258 0.0
H1020 H 1.00136 0.86308 0.70179 0.0
C1021 C 0.04656 0.91277 0.69603 0.0
C1022 C 0.04276 0.91298 0.64604 0.0
C1023 C 0.04125 0.89832 0.72491 0.0
C1024 C 0.01079 0.85887 0.72934 0.0
H1025 H 0.03043 0.79502 0.91047 0.0
H1026 H 0.03826 0.81342 0.84083 0.0
H1027 H 0.99315 0.83812 0.75462 0.0
H1028 H 0.02987 0.89815 0.58773 0.0
H1029 H 0.02112 0.87273 0.63784 0.0
H1030 H 0.05199 0.86837 0.7769 0.0
C1031 C 0.02457 0.8137 0.85407 0.0
C1032 C 1.006 0.84467 0.76 0.0
C1033 C 0.01998 0.80289 0.89363 0.0
C1034 C 0.03326 0.89841 0.62591 0.0
C1035 C 0.02804 0.88388 0.6548 0.0
C1036 C 0.03903 0.86201 0.77179 0.0
C1037 C 0.0119 0.82536 0.83348 0.0
C1038 C 0.01755 0.8392 0.79749 0.0
C1039 C 0.03215 0.88357 0.70459 0.0
C1040 C 0.02727 0.86788 0.73535 0.0
H1041 H 0.97584 0.81418 0.90349 0.0
H1042 H 0.984 0.83357 0.8361 0.0
H1043 H 0.04337 0.84436 0.83139 0.0
H1044 H 0.05403 0.92357 0.7129 0.0
H1045 H 0.04434 0.89873 0.7633 0.0
C1046 C 0.7291 0.98495 0.92086 0.0
C1047 C 0.73765 0.9991 0.94563 0.0
C1048 C 0.71512 0.98838 0.88849 0.0
C1049 C 0.68063 0.02284 0.87606 0.0
H1050 H 0.66255 0.99128 0.77536 0.0
C1051 C 0.60918 0.03057 0.80193 0.0
C1052 C 0.59903 0.01465 0.80043 0.0
C1053 C 0.62777 0.03002 0.80793 0.0
C1054 C 0.66746 1.00022 0.80339 0.0
H1055 H 0.73978 0.02809 0.95033 0.0
H1056 H 0.71622 0.03401 0.89206 0.0
H1057 H 0.6936 0.98836 0.8028 0.0
H1058 H 0.60054 0.98565 0.80189 0.0
H1059 H 0.633 0.9847 0.81349 0.0
H1060 H 0.65447 0.03435 0.87779 0.0
C1061 C 0.71974 0.02022 0.89937 0.0
C1062 C 0.68524 0.99856 0.8191 0.0
C1063 C 0.73351 0.01679 0.93233 0.0
C1064 C 0.60796 0.99815 0.80365 0.0
C1065 C 0.62658 0.9976 0.80956 0.0
C1066 C 0.66297 0.02455 0.8602 0.0
C1067 C 0.7096 1.00606 0.87956 0.0
C1068 C 0.69191 1.00958 0.8565 0.0
C1069 C 0.63665 0.01354 0.81254 0.0
C1070 C 0.65605 0.013 0.82455 0.0
H1071 H 0.73231 0.97115 0.92911 0.0
H1072 H 0.70775 0.97709 0.87371 0.0
H1073 H 0.68506 0.03131 0.90568 0.0
H1074 H 0.6027 0.0435 0.7998 0.0
H1075 H 0.63519 0.04252 0.80972 0.0
C1076 C 0.54682 0.72998 0.88613 0.0
C1077 C 0.53475 0.74099 0.91157 0.0
C1078 C 0.54117 0.72028 0.8455 0.0
C1079 C 0.49904 0.70061 0.8017 0.0
H1080 H 0.53005 0.68081 0.70219 0.0
C1081 C 0.4865 0.63111 0.72184 0.0
C1082 C 0.48978 0.62802 0.67232 0.0
C1083 C 0.49118 0.64742 0.74315 0.0
C1084 C 0.5211 0.68639 0.72923 0.0
H1085 H 0.50784 0.75201 0.9106 0.0
H1086 H 0.4983 0.73582 0.83851 0.0
H1087 H 0.54004 0.70682 0.74888 0.0
H1088 H 0.50066 0.63966 0.6063 0.0
H1089 H 0.50862 0.66837 0.64355 0.0
H1090 H 0.48015 0.68022 0.78233 0.0
C1091 C 0.51194 0.73412 0.85112 0.0
C1092 C 0.5269 0.7012 0.75633 0.0
C1093 C 0.51752 0.74364 0.89216 0.0
C1094 C 0.49782 0.64169 0.64448 0.0
C1095 C 0.50251 0.65807 0.66588 0.0
C1096 C 0.49323 0.68593 0.7745 0.0
C1097 C 0.52338 0.72157 0.82894 0.0
C1098 C 0.51616 0.70814 0.79395 0.0
C1099 C 0.4992 0.66112 0.71547 0.0
C1100 C 0.50442 0.67826 0.73912 0.0
H1101 H 0.56035 0.72799 0.89937 0.0
H1102 H 0.55041 0.71081 0.82946 0.0
H1103 H 0.49043 0.70537 0.83062 0.0
H1104 H 0.48016 0.62095 0.74418 0.0
H1105 H 0.48873 0.64918 0.78163 0.0
C1106 C 0.80662 0.5627 0.89827 0.0
C1107 C 0.79732 0.5484 0.92031 0.0
C1108 C 0.81753 0.55974 0.85774 0.0
C1109 C 0.8297 0.52718 0.76182 0.0
H1110 H 0.87828 0.54365 0.78647 0.0
C1111 C 0.89132 0.49439 0.67293 0.0
C1112 C 0.90675 0.50476 0.66416 0.0
C1113 C 0.87645 0.50186 0.69617 0.0
C1114 C 0.86476 0.53927 0.77814 0.0
H1115 H 0.79122 0.52 0.91461 0.0
H1116 H 0.80994 0.51496 0.84346 0.0
H1117 H 0.85405 0.55336 0.83921 0.0
H1118 H 0.91847 0.53126 0.6704 0.0
H1119 H 0.89232 0.54452 0.70988 0.0
H1120 H 0.84044 0.5129 0.70103 0.0
C1121 C 0.80881 0.52846 0.85762 0.0
C1122 C 0.85085 0.54483 0.80854 0.0
C1123 C 0.79802 0.53138 0.8984 0.0
C1124 C 0.90681 0.52292 0.67745 0.0
C1125 C 0.89184 0.53047 0.70015 0.0
C1126 C 0.8436 0.52176 0.731 0.0
C1127 C 0.8192 0.54246 0.83806 0.0
C1128 C 0.83325 0.53854 0.80138 0.0
C1129 C 0.87658 0.51995 0.71066 0.0
C1130 C 0.8614 0.52738 0.7395 0.0
H1131 H 0.80608 0.57606 0.91358 0.0
H1132 H 0.82519 0.57083 0.84288 0.0
H1133 H 0.81622 0.52225 0.75525 0.0
H1134 H 0.89099 0.48031 0.66338 0.0
H1135 H 0.86512 0.49322 0.70436 0.0
C1136 C 0.04817 0.19746 0.81836 0.0
C1137 C 0.03803 0.20242 0.85941 0.0
C1138 C 0.0469 0.18016 0.79889 0.0
C1139 C 0.03211 0.13355 0.82676 0.0
H1140 H 0.0314 0.12878 0.68657 0.0
C1141 C 0.0348 0.06427 0.72976 0.0
C1142 C 0.02398 0.06189 0.68838 0.0
C1143 C 0.0367 0.0812 0.75139 0.0
C1144 C 0.03146 0.12983 0.72579 0.0
H1145 H 0.01872 0.19273 0.91234 0.0
H1146 H 0.01652 0.16255 0.87844 0.0
H1147 H 0.03416 0.15838 0.72312 0.0
H1148 H 1.00671 0.07571 0.63745 0.0
H1149 H 1.00983 0.10501 0.67527 0.0
H1150 H 0.02907 0.10498 0.82931 0.0
C1151 C 0.02561 0.17204 0.86155 0.0
C1152 C 0.03326 0.14684 0.74683 0.0
C1153 C 0.02688 0.18939 0.88107 0.0
C1154 C 0.01512 0.07693 0.66931 0.0
C1155 C 0.01704 0.09384 0.69082 0.0
C1156 C 0.03036 0.1165 0.80568 0.0
C1157 C 0.03546 0.16723 0.81984 0.0
C1158 C 0.03361 0.14898 0.79763 0.0
C1159 C 0.02787 0.09625 0.73217 0.0
C1160 C 0.02996 0.1144 0.75487 0.0
H1161 H 0.05719 0.20697 0.80123 0.0
H1162 H 0.05499 0.17689 0.76743 0.0
H1163 H 0.03248 0.13461 0.86596 0.0
H1164 H 0.04173 0.05303 0.74578 0.0
H1165 H 0.04529 0.08253 0.78287 0.0
C1166 C 0.32997 0.01304 0.83417 0.0
C1167 C 0.32197 0.02949 0.84633 0.0
C1168 C 0.34704 0.0125 0.81282 0.0
C1169 C 0.37969 0.03969 0.74292 0.0
H1170 H 0.41396 1.00446 0.78772 0.0
C1171 C 0.44697 0.02538 0.64303 0.0
C1172 C 0.46229 0.02296 0.67202 0.0
C1173 C 0.42989 0.02669 0.6642 0.0
C1174 C 0.4046 0.01445 0.77494 0.0
H1175 H 0.32567 0.0583 0.8448 0.0
H1176 H 0.35549 0.05737 0.8076 0.0
H1177 H 0.38424 1.00585 0.82492 0.0
H1178 H 0.47157 0.01983 0.74611 0.0
H1179 H 0.44187 0.02218 0.78293 0.0
H1180 H 0.40012 0.04832 0.69304 0.0
C1181 C 0.3485 0.04487 0.81452 0.0
C1182 C 0.38748 0.01513 0.79596 0.0
C1183 C 0.33147 0.0454 0.83627 0.0
C1184 C 0.46011 0.02187 0.72268 0.0
C1185 C 0.44304 0.02305 0.74379 0.0
C1186 C 0.39678 0.03891 0.7216 0.0
C1187 C 0.35654 0.0284 0.80272 0.0
C1188 C 0.3748 0.02776 0.78027 0.0
C1189 C 0.42769 0.02543 0.71485 0.0
C1190 C 0.40947 0.0263 0.73741 0.0
H1191 H 0.32313 1.00051 0.8418 0.0
H1192 H 0.35273 0.99959 0.80381 0.0
H1193 H 0.37022 0.04949 0.72968 0.0
H1194 H 0.44814 0.02622 0.60389 0.0
H1195 H 0.41836 0.02834 0.64078 0.0
C1196 C 0.51754 0.33979 0.84393 0.0
C1197 C 0.50116 0.33043 0.84709 0.0
C1198 C 0.51849 0.35656 0.82131 0.0
C1199 C 0.49329 0.3866 0.73749 0.0
H1200 H 0.52531 0.42288 0.78954 0.0
C1201 C 0.50425 0.45444 0.64041 0.0
C1202 C 0.50662 0.46987 0.6691 0.0
C1203 C 0.50381 0.43743 0.66155 0.0
C1204 C 0.51613 0.41301 0.77476 0.0
H1205 H 0.47286 0.33151 0.82947 0.0
H1206 H 0.47437 0.36088 0.79101 0.0
H1207 H 0.52373 0.39359 0.82786 0.0
H1208 H 0.51068 0.47939 0.74256 0.0
H1209 H 0.50939 0.44982 0.77978 0.0
H1210 H 0.48516 0.40622 0.68562 0.0
C1211 C 0.48664 0.35511 0.80486 0.0
C1212 C 0.51543 0.39604 0.79635 0.0
C1213 C 0.48573 0.33826 0.82709 0.0
C1214 C 0.50862 0.46784 0.71948 0.0
C1215 C 0.50811 0.4508 0.74072 0.0
C1216 C 0.49387 0.40361 0.71617 0.0
C1217 C 0.50303 0.36452 0.8016 0.0
C1218 C 0.50397 0.38258 0.77813 0.0
C1219 C 0.50574 0.43532 0.71204 0.0
C1220 C 0.50526 0.4171 0.73456 0.0
H1221 H 0.52973 0.33402 0.85838 0.0
H1222 H 0.53143 0.36317 0.81877 0.0
H1223 H 0.4845 0.37656 0.72182 0.0
H1224 H 0.50281 0.45546 0.60138 0.0
H1225 H 0.5023 0.4259 0.63802 0.0
C1226 C 0.19009 0.4863 0.83768 0.0
C1227 C 0.20245 0.50058 0.83589 0.0
C1228 C 0.17349 0.48751 0.81418 0.0
C1229 C 0.14927 0.51317 0.71884 0.0
H1230 H 0.10693 0.49332 0.78129 0.0
C1231 C 0.07705 0.52746 0.65181 0.0
C1232 C 0.06472 0.51309 0.65175 0.0
C1233 C 0.09403 0.5256 0.67279 0.0
C1234 C 0.11865 0.49876 0.76309 0.0
H1235 H 0.20688 0.52746 0.80845 0.0
H1236 H 0.17792 0.52966 0.76797 0.0
H1237 H 0.13605 0.49078 0.82079 0.0
H1238 H 0.0611 0.48524 0.6721 0.0
H1239 H 0.09046 0.48216 0.70979 0.0
H1240 H 0.13175 0.52132 0.66141 0.0
C1241 C 0.18117 0.51734 0.78666 0.0
C1242 C 0.13538 0.49728 0.78572 0.0
C1243 C 0.1978 0.5161 0.80998 0.0
C1244 C 0.06997 0.49674 0.67259 0.0
C1245 C 0.08687 0.49495 0.6941 0.0
C1246 C 0.13251 0.51471 0.69632 0.0
C1247 C 0.16876 0.50307 0.78844 0.0
C1248 C 0.15094 0.50448 0.76397 0.0
C1249 C 0.0991 0.50937 0.69461 0.0
C1250 C 0.11699 0.50755 0.71819 0.0
H1251 H 0.19334 0.47405 0.85671 0.0
H1252 H 0.16444 0.47612 0.8157 0.0
H1253 H 0.16095 0.51861 0.70052 0.0
H1254 H 0.07357 0.54024 0.6359 0.0
H1255 H 0.10306 0.53702 0.67274 0.0
C1256 C 1.00759 0.84421 0.34896 0.0
C1257 C 1.00323 0.82804 0.3726 0.0
C1258 C 1.00902 0.86025 0.37503 0.0
C1259 C 0.99444 0.88263 0.48747 0.0
H1260 H 0.03413 0.9149 0.46023 0.0
C1261 C 1.00526 0.94894 0.59461 0.0
C1262 C 0.01093 0.96389 0.56761 0.0
C1263 C 1.00477 0.93188 0.57331 0.0
C1264 C 0.02282 0.90617 0.4679 0.0
H1265 H 0.99705 0.81629 0.44281 0.0
H1266 H 0.99915 0.84438 0.48796 0.0
H1267 H 0.03221 0.88624 0.41807 0.0
H1268 H 0.02107 0.9726 0.49769 0.0
H1269 H 0.01981 0.94315 0.46027 0.0
H1270 H 0.98481 0.90272 0.5365 0.0
C1271 C 1.00142 0.84457 0.4491 0.0
C1272 C 0.02176 0.8897 0.4438 0.0
C1273 C 1.00015 0.82846 0.42309 0.0
C1274 C 0.01634 0.96141 0.51923 0.0
C1275 C 0.01585 0.94442 0.49796 0.0
C1276 C 0.9954 0.8992 0.51132 0.0
C1277 C 1.00596 0.86064 0.42541 0.0
C1278 C 1.00746 0.8778 0.45287 0.0
C1279 C 0.01007 0.92939 0.52464 0.0
C1280 C 1.00949 0.91131 0.50139 0.0
H1281 H 1.00969 0.84457 0.31006 0.0
H1282 H 0.01224 0.87245 0.35553 0.0
H1283 H 0.98319 0.87382 0.49505 0.0
H1284 H 1.00109 0.95044 0.63209 0.0
H1285 H 1.00044 0.92062 0.59522 0.0
C1286 C 0.69171 0.01907 0.37437 0.0
C1287 C 0.70253 1.00384 0.3801 0.0
C1288 C 0.67445 0.01968 0.3945 0.0
C1289 C 0.64492 0.99748 0.48648 0.0
H1290 H 0.60749 0.02277 0.4176 0.0
C1291 C 0.57561 0.0113 0.57426 0.0
C1292 C 0.5603 0.01101 0.54445 0.0
C1293 C 0.59284 1.01007 0.55415 0.0
C1294 C 0.61768 0.01545 0.43719 0.0
H1295 H 0.70356 0.97721 0.4111 0.0
H1296 H 0.67332 0.97806 0.4453 0.0
H1297 H 0.63731 0.0208 0.38227 0.0
H1298 H 0.55128 1.00954 0.46971 0.0
H1299 H 0.58115 1.00661 0.43489 0.0
H1300 H 0.6251 0.99158 0.54057 0.0
C1301 C 0.6783 0.98976 0.42624 0.0
C1302 C 0.63495 0.01456 0.41719 0.0
C1303 C 0.69565 0.98922 0.40648 0.0
C1304 C 0.5627 1.00948 0.49396 0.0
C1305 C 0.57992 1.00807 0.47386 0.0
C1306 C 0.6276 0.99824 0.5063 0.0
C1307 C 0.66742 1.00501 0.42056 0.0
C1308 C 0.64888 1.00565 0.44162 0.0
C1309 C 0.59528 1.00842 0.50362 0.0
C1310 C 0.61372 1.00731 0.48207 0.0
H1311 H 0.69671 0.03068 0.35491 0.0
H1312 H 0.66673 0.03182 0.39014 0.0
H1313 H 0.65527 0.99067 0.50679 0.0
H1314 H 0.57433 0.01261 0.61329 0.0
H1315 H 0.60427 0.01074 0.57831 0.0
C1316 C 0.51636 0.69462 0.37919 0.0
C1317 C 0.53285 0.7023 0.36526 0.0
C1318 C 0.51569 0.67768 0.40082 0.0
C1319 C 0.5424 0.63609 0.41851 0.0
H1320 H 0.50638 0.62658 0.51714 0.0
C1321 C 0.53853 0.56985 0.53083 0.0
C1322 C 0.5213 0.5623 0.53573 0.0
C1323 C 0.5408 0.58689 0.51021 0.0
C1324 C 0.51646 0.629 0.48946 0.0
H1325 H 0.56161 0.6982 0.36362 0.0
H1326 H 0.56053 0.66877 0.40227 0.0
H1327 H 0.50887 0.65644 0.48215 0.0
H1328 H 0.49304 0.56644 0.52101 0.0
H1329 H 0.49693 0.59624 0.48662 0.0
H1330 H 0.55008 0.60857 0.42666 0.0
C1331 C 0.54803 0.67567 0.39557 0.0
C1332 C 0.51785 0.64612 0.46917 0.0
C1333 C 0.54868 0.69259 0.3735 0.0
C1334 C 0.50646 0.57202 0.51888 0.0
C1335 C 0.50868 0.5891 0.49902 0.0
C1336 C 0.54112 0.61898 0.43924 0.0
C1337 C 0.53152 0.66797 0.40958 0.0
C1338 C 0.53068 0.64988 0.43288 0.0
C1339 C 0.52585 0.59681 0.49473 0.0
C1340 C 0.52797 0.61519 0.47447 0.0
H1341 H 0.50389 0.70159 0.37259 0.0
H1342 H 0.50268 0.6721 0.40997 0.0
H1343 H 0.5523 0.63834 0.39031 0.0
H1344 H 0.5502 0.56281 0.54392 0.0
H1345 H 0.5542 0.59251 0.50756 0.0
C1346 C 0.83483 0.55164 0.38427 0.0
C1347 C 0.82585 0.53599 0.36908 0.0
C1348 C 0.85191 0.55067 0.4053 0.0
C1349 C 0.89193 0.52219 0.4094 0.0
H1350 H 0.90373 0.54833 0.52692 0.0
C1351 C 0.95831 0.51001 0.51045 0.0
C1352 C 0.96706 0.52465 0.53227 0.0
C1353 C 0.94107 0.51182 0.49134 0.0
C1354 C 0.90077 0.54115 0.49368 0.0
H1355 H 0.82784 0.50709 0.36376 0.0
H1356 H 0.85764 0.50542 0.40015 0.0
H1357 H 0.87371 0.55087 0.49204 0.0
H1358 H 0.96444 0.55261 0.55182 0.0
H1359 H 0.9346 0.55606 0.51649 0.0
H1360 H 0.91895 0.51272 0.41014 0.0
C1361 C 0.85146 0.51843 0.39591 0.0
C1362 C 0.88353 0.54257 0.47382 0.0
C1363 C 0.83432 0.51937 0.37546 0.0
C1364 C 0.95814 0.54115 0.53463 0.0
C1365 C 0.94092 0.54305 0.51495 0.0
C1366 C 0.90919 0.52093 0.4289 0.0
C1367 C 0.86048 0.53406 0.41095 0.0
C1368 C 0.87888 0.53298 0.43167 0.0
C1369 C 0.93215 0.52839 0.49295 0.0
C1370 C 0.91384 0.53025 0.47156 0.0
H1371 H 0.8286 0.56462 0.38013 0.0
H1372 H 0.85856 0.56295 0.41629 0.0
H1373 H 0.88886 0.51487 0.37644 0.0
H1374 H 0.96481 0.4971 0.508 0.0
H1375 H 0.93467 0.50011 0.47569 0.0
loop_
_geom_bond_atom_site_label_1
_geom_bond_atom_site_label_2
_geom_bond_distance
_geom_bond_site_symmetry_2
_ccdc_geom_bond_type
C0 C1 1.264 . S
C0 C5 1.479 . S
C0 C10 1.465 . S
C1 C0 1.264 . S
C1 C3 1.339 . S
C1 H28 0.931 . S
C2 C3 1.395 . S
C2 C4 1.320 . S
C3 C1 1.339 . S
C3 C2 1.395 . S
C3 H29 0.929 . S
C4 C2 1.320 . S
C4 C5 1.405 . S
C4 H30 0.930 . S
C5 C0 1.479 . S
C5 C4 1.405 . S
C5 H31 0.931 . S
U6 O7 2.454 . S
U6 O8 2.458 . S
U6 C9 2.984 . S
U6 C10 2.847 . S
U6 C23 2.882 . S
U6 O24 2.441 . S
U6 O25 2.420 . S
U6 O26 2.455 . S
U6 O27 2.449 . S
O7 U6 2.454 . S
O7 C9 1.353 . S
O8 U6 2.458 . S
O8 C9 1.286 . S
C9 U6 2.984 . S
C9 O7 1.353 . S
C9 O8 1.286 . S
C9 C11 1.363 . S
C10 C0 1.465 . S
C10 U6 2.847 . S
C10 O24 1.249 . S
C10 O25 1.202 . S
C11 C9 1.363 . S
C11 C13 1.408 . S
C11 C16 1.342 . S
C12 C13 1.310 . S
C12 C15 1.461 . S
C12 H32 0.932 . S
C13 C11 1.408 . S
C13 C12 1.310 . S
C13 H33 0.930 . S
C14 C15 1.474 . S
C14 C16 1.285 . S
C14 H34 0.929 . S
C15 C12 1.461 . S
C15 C14 1.474 . S
C16 C11 1.342 . S
C16 C14 1.285 . S
C16 H35 0.930 . S
C17 C20 1.424 . S
C17 C22 1.245 . S
C17 C23 1.428 . S
C18 C21 1.260 . S
C18 C22 1.477 1_556 S
C18 H36 0.932 . S
C19 C20 1.384 . S
C19 C21 1.479 1_554 S
C19 H37 0.929 . S
C20 C17 1.424 . S
C20 C19 1.384 . S
C20 H38 0.928 . S
C21 C18 1.260 . S
C21 C19 1.479 1_556 S
C22 C17 1.245 . S
C22 C18 1.477 1_554 S
C22 H39 0.932 1_554 S
C23 U6 2.882 . S
C23 C17 1.428 . S
C23 O26 1.301 . S
C23 O27 1.282 . S
O24 U6 2.441 . S
O24 C10 1.249 . S
O25 U6 2.420 . S
O25 C10 1.202 . S
O26 U6 2.455 . S
O26 C23 1.301 . S
O27 U6 2.449 . S
O27 C23 1.282 . S
H28 C1 0.931 . S
H29 C3 0.929 . S
H30 C4 0.930 . S
H31 C5 0.931 . S
H32 C12 0.932 . S
H33 C13 0.930 . S
H34 C14 0.929 . S
H35 C16 0.930 . S
H36 C18 0.932 . S
H37 C19 0.929 . S
H38 C20 0.928 . S
H39 C22 0.932 1_556 S
C40 C41 1.264 . S
C40 C45 1.479 . S
C40 C50 1.465 . S
C41 C40 1.264 . S
C41 C43 1.339 . S
C41 H68 0.931 . S
C42 C43 1.395 . S
C42 C44 1.320 . S
C43 C41 1.339 . S
C43 C42 1.395 . S
C43 H69 0.929 . S
C44 C42 1.320 . S
C44 C45 1.405 . S
C44 H70 0.930 . S
C45 C40 1.479 . S
C45 C44 1.405 . S
C45 H71 0.931 . S
U46 O47 2.454 . S
U46 O48 2.458 . S
U46 C49 2.984 . S
U46 C50 2.847 . S
U46 C63 2.882 . S
U46 O64 2.441 . S
U46 O65 2.420 . S
U46 O66 2.455 . S
U46 O67 2.449 . S
O47 U46 2.454 . S
O47 C49 1.353 . S
O48 U46 2.458 . S
O48 C49 1.286 . S
C49 U46 2.984 . S
C49 O47 1.353 . S
C49 O48 1.286 . S
C49 C51 1.363 . S
C50 C40 1.465 . S
C50 U46 2.847 . S
C50 O64 1.249 . S
C50 O65 1.202 . S
C51 C49 1.363 . S
C51 C53 1.408 . S
C51 C56 1.342 . S
C52 C53 1.310 . S
C52 C55 1.461 . S
C52 H72 0.932 . S
C53 C51 1.408 . S
C53 C52 1.310 . S
C53 H73 0.930 . S
C54 C55 1.474 . S
C54 C56 1.285 . S
C54 H74 0.929 . S
C55 C52 1.461 . S
C55 C54 1.474 . S
C56 C51 1.342 . S
C56 C54 1.285 . S
C56 H75 0.930 . S
C57 C60 1.424 . S
C57 C62 1.245 . S
C57 C63 1.428 . S
C58 C61 1.260 . S
C58 C62 1.477 1_556 S
C58 H76 0.932 . S
C59 C60 1.384 . S
C59 C61 1.479 1_554 S
C59 H77 0.929 . S
C60 C57 1.424 . S
C60 C59 1.384 . S
C60 H78 0.928 . S
C61 C58 1.260 . S
C61 C59 1.479 1_556 S
C62 C57 1.245 . S
C62 C58 1.477 1_554 S
C62 H79 0.932 1_554 S
C63 U46 2.882 . S
C63 C57 1.428 . S
C63 O66 1.301 . S
C63 O67 1.282 . S
O64 U46 2.441 . S
O64 C50 1.249 . S
O65 U46 2.420 . S
O65 C50 1.202 . S
O66 U46 2.455 . S
O66 C63 1.301 . S
O67 U46 2.449 . S
O67 C63 1.282 . S
H68 C41 0.931 . S
H69 C43 0.929 . S
H70 C44 0.930 . S
H71 C45 0.931 . S
H72 C52 0.932 . S
H73 C53 0.930 . S
H74 C54 0.929 . S
H75 C56 0.930 . S
H76 C58 0.932 . S
H77 C59 0.929 . S
H78 C60 0.928 . S
H79 C62 0.932 1_556 S
C80 C81 1.264 . S
C80 C85 1.479 . S
C80 C90 1.465 . S
C81 C80 1.264 . S
C81 C83 1.339 . S
C81 H108 0.931 . S
C82 C83 1.395 . S
C82 C84 1.320 . S
C83 C81 1.339 . S
C83 C82 1.395 . S
C83 H109 0.929 . S
C84 C82 1.320 . S
C84 C85 1.405 . S
C84 H110 0.930 . S
C85 C80 1.479 . S
C85 C84 1.405 . S
C85 H111 0.931 . S
U86 O87 2.454 . S
U86 O88 2.458 . S
U86 C89 2.984 . S
U86 C90 2.847 . S
U86 C103 2.882 . S
U86 O104 2.441 . S
U86 O105 2.420 . S
U86 O106 2.455 . S
U86 O107 2.449 . S
O87 U86 2.454 . S
O87 C89 1.353 . S
O88 U86 2.458 . S
O88 C89 1.286 . S
C89 U86 2.984 . S
C89 O87 1.353 . S
C89 O88 1.286 . S
C89 C91 1.363 . S
C90 C80 1.465 . S
C90 U86 2.847 . S
C90 O104 1.249 . S
C90 O105 1.202 . S
C91 C89 1.363 . S
C91 C93 1.408 . S
C91 C96 1.342 . S
C92 C93 1.310 . S
C92 C95 1.461 . S
C92 H112 0.932 . S
C93 C91 1.408 . S
C93 C92 1.310 . S
C93 H113 0.930 . S
C94 C95 1.474 . S
C94 C96 1.285 . S
C94 H114 0.929 . S
C95 C92 1.461 . S
C95 C94 1.474 . S
C96 C91 1.342 . S
C96 C94 1.285 . S
C96 H115 0.930 . S
C97 C100 1.424 . S
C97 C102 1.245 . S
C97 C103 1.428 . S
C98 C101 1.260 . S
C98 C102 1.477 1_556 S
C98 H116 0.932 . S
C99 C100 1.384 . S
C99 C101 1.479 1_554 S
C99 H117 0.929 . S
C100 C97 1.424 . S
C100 C99 1.384 . S
C100 H118 0.928 . S
C101 C98 1.260 . S
C101 C99 1.479 1_556 S
C102 C97 1.245 . S
C102 C98 1.477 1_554 S
C102 H119 0.932 1_554 S
C103 U86 2.882 . S
C103 C97 1.428 . S
C103 O106 1.301 . S
C103 O107 1.282 . S
O104 U86 2.441 . S
O104 C90 1.249 . S
O105 U86 2.420 . S
O105 C90 1.202 . S
O106 U86 2.455 . S
O106 C103 1.301 . S
O107 U86 2.449 . S
O107 C103 1.282 . S
H108 C81 0.931 . S
H109 C83 0.929 . S
H110 C84 0.930 . S
H111 C85 0.931 . S
H112 C92 0.932 . S
H113 C93 0.930 . S
H114 C94 0.929 . S
H115 C96 0.930 . S
H116 C98 0.932 . S
H117 C99 0.929 . S
H118 C100 0.928 . S
H119 C102 0.932 1_556 S
C120 C121 1.264 . S
C120 C125 1.479 . S
C120 C130 1.465 . S
C121 C120 1.264 . S
C121 C123 1.339 . S
C121 H148 0.931 . S
C122 C123 1.395 . S
C122 C124 1.320 . S
C123 C121 1.339 . S
C123 C122 1.395 . S
C123 H149 0.929 . S
C124 C122 1.320 . S
C124 C125 1.405 . S
C124 H150 0.930 . S
C125 C120 1.479 . S
C125 C124 1.405 . S
C125 H151 0.931 . S
U126 O127 2.454 . S
U126 O128 2.458 . S
U126 C129 2.984 . S
U126 C130 2.847 . S
U126 C143 2.882 . S
U126 O144 2.441 . S
U126 O145 2.420 . S
U126 O146 2.455 . S
U126 O147 2.449 . S
O127 U126 2.454 . S
O127 C129 1.353 . S
O128 U126 2.458 . S
O128 C129 1.286 . S
C129 U126 2.984 . S
C129 O127 1.353 . S
C129 O128 1.286 . S
C129 C131 1.363 . S
C130 C120 1.465 . S
C130 U126 2.847 . S
C130 O144 1.249 . S
C130 O145 1.202 . S
C131 C129 1.363 . S
C131 C133 1.408 . S
C131 C136 1.342 . S
C132 C133 1.310 . S
C132 C135 1.461 . S
C132 H152 0.932 . S
C133 C131 1.408 . S
C133 C132 1.310 . S
C133 H153 0.930 . S
C134 C135 1.474 . S
C134 C136 1.285 . S
C134 H154 0.929 . S
C135 C132 1.461 . S
C135 C134 1.474 . S
C136 C131 1.342 . S
C136 C134 1.285 . S
C136 H155 0.930 . S
C137 C140 1.424 . S
C137 C142 1.245 . S
C137 C143 1.428 . S
C138 C141 1.260 . S
C138 C142 1.477 1_556 S
C138 H156 0.932 . S
C139 C140 1.384 . S
C139 C141 1.479 1_554 S
C139 H157 0.929 . S
C140 C137 1.424 . S
C140 C139 1.384 . S
C140 H158 0.928 . S
C141 C138 1.260 . S
C141 C139 1.479 1_556 S
C142 C137 1.245 . S
C142 C138 1.477 1_554 S
C142 H159 0.931 1_554 S
C143 U126 2.882 . S
C143 C137 1.428 . S
C143 O146 1.301 . S
C143 O147 1.282 . S
O144 U126 2.441 . S
O144 C130 1.249 . S
O145 U126 2.420 . S
O145 C130 1.202 . S
O146 U126 2.455 . S
O146 C143 1.301 . S
O147 U126 2.449 . S
O147 C143 1.282 . S
H148 C121 0.931 . S
H149 C123 0.929 . S
H150 C124 0.930 . S
H151 C125 0.931 . S
H152 C132 0.932 . S
H153 C133 0.930 . S
H154 C134 0.929 . S
H155 C136 0.930 . S
H156 C138 0.932 . S
H157 C139 0.929 . S
H158 C140 0.928 . S
H159 C142 0.931 1_556 S
C160 C161 1.264 . S
C160 C165 1.479 . S
C160 C170 1.465 . S
C161 C160 1.264 . S
C161 C163 1.339 . S
C161 H188 0.931 . S
C162 C163 1.395 . S
C162 C164 1.320 . S
C163 C161 1.339 . S
C163 C162 1.395 . S
C163 H189 0.929 . S
C164 C162 1.320 . S
C164 C165 1.405 . S
C164 H190 0.930 . S
C165 C160 1.479 . S
C165 C164 1.405 . S
C165 H191 0.931 . S
U166 O167 2.454 . S
U166 O168 2.458 . S
U166 C169 2.984 . S
U166 C170 2.847 1_554 S
U166 C183 2.882 . S
U166 O184 2.441 1_554 S
U166 O185 2.420 1_554 S
U166 O186 2.455 . S
U166 O187 2.449 . S
O167 U166 2.454 . S
O167 C169 1.353 . S
O168 U166 2.458 . S
O168 C169 1.286 . S
C169 U166 2.984 . S
C169 O167 1.353 . S
C169 O168 1.286 . S
C169 C171 1.363 . S
C170 C160 1.465 . S
C170 U166 2.847 1_556 S
C170 O184 1.249 . S
C170 O185 1.202 . S
C171 C169 1.363 . S
C171 C173 1.408 . S
C171 C176 1.342 . S
C172 C173 1.310 . S
C172 C175 1.461 . S
C172 H192 0.932 . S
C173 C171 1.408 . S
C173 C172 1.310 . S
C173 H193 0.930 1_554 S
C174 C175 1.474 . S
C174 C176 1.285 . S
C174 H194 0.929 . S
C175 C172 1.461 . S
C175 C174 1.474 . S
C176 C171 1.342 . S
C176 C174 1.285 . S
C176 H195 0.930 . S
C177 C180 1.424 . S
C177 C182 1.245 . S
C177 C183 1.428 . S
C178 C181 1.260 . S
C178 C182 1.477 . S
C178 H196 0.932 . S
C179 C180 1.384 . S
C179 C181 1.479 . S
C179 H197 0.929 . S
C180 C177 1.424 . S
C180 C179 1.384 . S
C180 H198 0.928 . S
C181 C178 1.260 . S
C181 C179 1.479 . S
C182 C177 1.245 . S
C182 C178 1.477 . S
C182 H199 0.932 . S
C183 U166 2.882 . S
C183 C177 1.428 . S
C183 O186 1.301 . S
C183 O187 1.282 . S
O184 U166 2.441 1_556 S
O184 C170 1.249 . S
O185 U166 2.420 1_556 S
O185 C170 1.202 . S
O186 U166 2.455 . S
O186 C183 1.301 . S
O187 U166 2.449 . S
O187 C183 1.282 . S
H188 C161 0.931 . S
H189 C163 0.929 . S
H190 C164 0.930 . S
H191 C165 0.931 . S
H192 C172 0.932 . S
H193 C173 0.930 1_556 S
H194 C174 0.929 . S
H195 C176 0.930 . S
H196 C178 0.932 . S
H197 C179 0.929 . S
H198 C180 0.928 . S
H199 C182 0.932 . S
C200 C201 1.264 . S
C200 C205 1.479 . S
C200 C210 1.465 . S
C201 C200 1.264 . S
C201 C203 1.339 . S
C201 H228 0.931 . S
C202 C203 1.395 . S
C202 C204 1.320 . S
C203 C201 1.339 . S
C203 C202 1.395 . S
C203 H229 0.929 . S
C204 C202 1.320 . S
C204 C205 1.405 . S
C204 H230 0.930 . S
C205 C200 1.479 . S
C205 C204 1.405 . S
C205 H231 0.931 . S
U206 O207 2.454 . S
U206 O208 2.458 . S
U206 C209 2.984 . S
U206 C210 2.847 1_554 S
U206 C223 2.882 . S
U206 O224 2.441 1_554 S
U206 O225 2.420 1_554 S
U206 O226 2.455 . S
U206 O227 2.449 . S
O207 U206 2.454 . S
O207 C209 1.353 . S
O208 U206 2.458 . S
O208 C209 1.286 . S
C209 U206 2.984 . S
C209 O207 1.353 . S
C209 O208 1.286 . S
C209 C211 1.363 . S
C210 C200 1.465 . S
C210 U206 2.847 1_556 S
C210 O224 1.249 . S
C210 O225 1.202 . S
C211 C209 1.363 . S
C211 C213 1.408 . S
C211 C216 1.342 . S
C212 C213 1.310 . S
C212 C215 1.461 . S
C212 H232 0.932 . S
C213 C211 1.408 . S
C213 C212 1.310 . S
C213 H233 0.930 1_554 S
C214 C215 1.474 . S
C214 C216 1.285 . S
C214 H234 0.929 . S
C215 C212 1.461 . S
C215 C214 1.474 . S
C216 C211 1.342 . S
C216 C214 1.285 . S
C216 H235 0.930 . S
C217 C220 1.424 . S
C217 C222 1.245 . S
C217 C223 1.428 . S
C218 C221 1.260 . S
C218 C222 1.477 . S
C218 H236 0.932 . S
C219 C220 1.384 . S
C219 C221 1.479 . S
C219 H237 0.929 . S
C220 C217 1.424 . S
C220 C219 1.384 . S
C220 H238 0.928 . S
C221 C218 1.260 . S
C221 C219 1.479 . S
C222 C217 1.245 . S
C222 C218 1.477 . S
C222 H239 0.932 . S
C223 U206 2.882 . S
C223 C217 1.428 . S
C223 O226 1.301 . S
C223 O227 1.282 . S
O224 U206 2.441 1_556 S
O224 C210 1.249 . S
O225 U206 2.420 1_556 S
O225 C210 1.202 . S
O226 U206 2.455 . S
O226 C223 1.301 . S
O227 U206 2.449 . S
O227 C223 1.282 . S
H228 C201 0.931 . S
H229 C203 0.929 . S
H230 C204 0.930 . S
H231 C205 0.931 . S
H232 C212 0.932 . S
H233 C213 0.930 1_556 S
H234 C214 0.929 . S
H235 C216 0.930 . S
H236 C218 0.932 . S
H237 C219 0.929 . S
H238 C220 0.928 . S
H239 C222 0.932 . S
C240 C241 1.264 . S
C240 C245 1.479 . S
C240 C250 1.465 . S
C241 C240 1.264 . S
C241 C243 1.339 . S
C241 H268 0.931 . S
C242 C243 1.395 . S
C242 C244 1.320 . S
C243 C241 1.339 . S
C243 C242 1.395 . S
C243 H269 0.929 . S
C244 C242 1.320 . S
C244 C245 1.405 . S
C244 H270 0.930 . S
C245 C240 1.479 . S
C245 C244 1.405 . S
C245 H271 0.931 . S
U246 O247 2.454 . S
U246 O248 2.458 . S
U246 C249 2.984 . S
U246 C250 2.847 1_554 S
U246 C263 2.882 . S
U246 O264 2.441 1_554 S
U246 O265 2.420 1_554 S
U246 O266 2.455 . S
U246 O267 2.449 . S
O247 U246 2.454 . S
O247 C249 1.353 . S
O248 U246 2.458 . S
O248 C249 1.286 . S
C249 U246 2.984 . S
C249 O247 1.353 . S
C249 O248 1.286 . S
C249 C251 1.363 . S
C250 C240 1.465 . S
C250 U246 2.847 1_556 S
C250 O264 1.249 . S
C250 O265 1.202 . S
C251 C249 1.363 . S
C251 C253 1.408 . S
C251 C256 1.342 . S
C252 C253 1.310 . S
C252 C255 1.461 . S
C252 H272 0.932 . S
C253 C251 1.408 . S
C253 C252 1.310 . S
C253 H273 0.930 1_554 S
C254 C255 1.474 . S
C254 C256 1.285 . S
C254 H274 0.929 . S
C255 C252 1.461 . S
C255 C254 1.474 . S
C256 C251 1.342 . S
C256 C254 1.285 . S
C256 H275 0.930 . S
C257 C260 1.424 . S
C257 C262 1.245 . S
C257 C263 1.428 . S
C258 C261 1.260 . S
C258 C262 1.477 . S
C258 H276 0.932 . S
C259 C260 1.384 . S
C259 C261 1.479 . S
C259 H277 0.929 . S
C260 C257 1.424 . S
C260 C259 1.384 . S
C260 H278 0.928 . S
C261 C258 1.260 . S
C261 C259 1.479 . S
C262 C257 1.245 . S
C262 C258 1.477 . S
C262 H279 0.932 . S
C263 U246 2.882 . S
C263 C257 1.428 . S
C263 O266 1.301 . S
C263 O267 1.282 . S
O264 U246 2.441 1_556 S
O264 C250 1.249 . S
O265 U246 2.420 1_556 S
O265 C250 1.202 . S
O266 U246 2.455 . S
O266 C263 1.301 . S
O267 U246 2.449 . S
O267 C263 1.282 . S
H268 C241 0.931 . S
H269 C243 0.929 . S
H270 C244 0.930 . S
H271 C245 0.931 . S
H272 C252 0.932 . S
H273 C253 0.930 1_556 S
H274 C254 0.929 . S
H275 C256 0.930 . S
H276 C258 0.932 . S
H277 C259 0.929 . S
H278 C260 0.928 . S
H279 C262 0.932 . S
C280 C281 1.264 . S
C280 C285 1.479 . S
C280 C290 1.465 . S
C281 C280 1.264 . S
C281 C283 1.339 . S
C281 H308 0.931 . S
C282 C283 1.395 . S
C282 C284 1.320 . S
C283 C281 1.339 . S
C283 C282 1.395 . S
C283 H309 0.929 . S
C284 C282 1.320 . S
C284 C285 1.405 . S
C284 H310 0.930 . S
C285 C280 1.479 . S
C285 C284 1.405 . S
C285 H311 0.931 . S
U286 O287 2.454 . S
U286 O288 2.458 . S
U286 C289 2.984 . S
U286 C290 2.847 1_554 S
U286 C303 2.882 . S
U286 O304 2.441 1_554 S
U286 O305 2.420 1_554 S
U286 O306 2.455 . S
U286 O307 2.449 . S
O287 U286 2.454 . S
O287 C289 1.353 . S
O288 U286 2.458 . S
O288 C289 1.286 . S
C289 U286 2.984 . S
C289 O287 1.353 . S
C289 O288 1.286 . S
C289 C291 1.363 . S
C290 C280 1.465 . S
C290 U286 2.847 1_556 S
C290 O304 1.249 . S
C290 O305 1.202 . S
C291 C289 1.363 . S
C291 C293 1.408 . S
C291 C296 1.342 . S
C292 C293 1.310 . S
C292 C295 1.461 . S
C292 H312 0.932 . S
C293 C291 1.408 . S
C293 C292 1.310 . S
C293 H313 0.930 1_554 S
C294 C295 1.474 . S
C294 C296 1.285 . S
C294 H314 0.929 . S
C295 C292 1.461 . S
C295 C294 1.474 . S
C296 C291 1.342 . S
C296 C294 1.285 . S
C296 H315 0.930 . S
C297 C300 1.424 . S
C297 C302 1.245 . S
C297 C303 1.428 . S
C298 C301 1.260 . S
C298 C302 1.477 . S
C298 H316 0.932 . S
C299 C300 1.384 . S
C299 C301 1.479 . S
C299 H317 0.929 . S
C300 C297 1.424 . S
C300 C299 1.384 . S
C300 H318 0.928 . S
C301 C298 1.260 . S
C301 C299 1.479 . S
C302 C297 1.245 . S
C302 C298 1.477 . S
C302 H319 0.932 . S
C303 U286 2.882 . S
C303 C297 1.428 . S
C303 O306 1.301 . S
C303 O307 1.282 . S
O304 U286 2.441 1_556 S
O304 C290 1.249 . S
O305 U286 2.420 1_556 S
O305 C290 1.202 . S
O306 U286 2.455 . S
O306 C303 1.301 . S
O307 U286 2.449 . S
O307 C303 1.282 . S
H308 C281 0.931 . S
H309 C283 0.929 . S
H310 C284 0.930 . S
H311 C285 0.931 . S
H312 C292 0.932 . S
H313 C293 0.930 1_556 S
H314 C294 0.929 . S
H315 C296 0.930 . S
H316 C298 0.932 . S
H317 C299 0.929 . S
H318 C300 0.928 . S
H319 C302 0.932 . S
Eu320 N349 2.600 . S
Eu320 N355 2.562 . S
Eu320 O364 2.442 1_655 S
Eu320 O365 2.373 1_545 S
Eu320 O367 2.432 . S
Eu320 O368 2.291 1_655 S
Eu320 O372 2.335 1_655 S
Eu320 O375 2.372 . S
Eu320 C384 2.787 . S
C321 N322 1.365 1_545 S
C321 C324 1.405 . S
C321 C328 1.448 . S
N322 C321 1.365 1_565 S
N322 C325 1.319 . S
N322 Eu331 2.600 . S
C323 C325 1.397 1_545 S
C323 C326 1.367 . S
C323 H343 0.931 . S
C324 C321 1.405 . S
C324 C326 1.403 . S
C324 C330 1.439 . S
C325 N322 1.319 . S
C325 C323 1.397 1_565 S
C325 H336 0.930 . S
C326 C323 1.367 . S
C326 C324 1.403 . S
C326 H347 0.929 . S
C327 C328 1.430 . S
C327 C329 1.387 . S
C327 C333 1.404 . S
C328 C321 1.448 . S
C328 C327 1.430 . S
C328 N332 1.351 . S
C329 C327 1.387 . S
C329 C330 1.374 . S
C329 H344 0.931 . S
C330 C324 1.439 . S
C330 C329 1.374 . S
C330 H345 0.931 . S
Eu331 N322 2.600 . S
Eu331 N332 2.562 1_565 S
Eu331 O366 2.335 . S
Eu331 O369 2.372 . S
Eu331 O370 2.462 . S
Eu331 O371 2.373 1_565 S
Eu331 O373 2.432 . S
Eu331 O374 2.291 1_465 S
Eu331 C395 2.787 . S
N332 C328 1.351 . S
N332 Eu331 2.562 1_545 S
N332 C334 1.325 . S
C333 C327 1.404 . S
C333 C335 1.366 . S
C333 H341 0.930 . S
C334 N332 1.325 . S
C334 C335 1.416 . S
C334 H340 0.947 1_455 S
C335 C333 1.366 . S
C335 C334 1.416 . S
C335 H337 0.885 1_455 S
H336 C325 0.930 . S
H337 C335 0.885 1_655 S
H338 C353 0.930 . S
H339 C360 0.934 . S
H340 C334 0.947 1_655 S
H341 C333 0.930 . S
H342 C356 0.952 . S
H343 C323 0.931 . S
H344 C329 0.931 . S
H345 C330 0.931 . S
H346 C351 0.931 . S
H347 C326 0.929 . S
H348 C359 0.930 . S
N349 Eu320 2.600 . S
N349 C350 1.365 . S
N349 C353 1.319 . S
C350 N349 1.365 . S
C350 C352 1.427 . S
C350 C358 1.448 . S
C351 H346 0.931 . S
C351 C353 1.397 . S
C351 C354 1.367 . S
C352 C350 1.427 . S
C352 C354 1.413 . S
C352 C385 1.415 1_545 S
C353 H338 0.930 . S
C353 N349 1.319 . S
C353 C351 1.397 . S
C354 C351 1.367 . S
C354 C352 1.413 . S
C354 H361 0.923 1_545 S
N355 Eu320 2.562 . S
N355 C356 1.304 1_655 S
N355 C358 1.351 . S
C356 H342 0.952 . S
C356 N355 1.304 1_455 S
C356 C360 1.415 . S
C357 C358 1.430 1_565 S
C357 C359 1.404 . S
C357 C386 1.387 . S
C358 C350 1.448 . S
C358 N355 1.351 . S
C358 C357 1.430 1_545 S
C359 H348 0.930 . S
C359 C357 1.404 . S
C359 C360 1.363 1_665 S
C360 H339 0.934 . S
C360 C356 1.415 . S
C360 C359 1.363 1_445 S
H361 C354 0.923 1_565 S
H362 C385 0.931 . S
H363 C386 0.931 . S
O364 Eu320 2.442 1_455 S
O364 C384 1.207 1_455 S
O365 Eu320 2.373 1_565 S
O365 C376 1.249 . S
O366 Eu331 2.335 . S
O366 C376 1.264 1_455 S
O367 Eu320 2.432 . S
O367 C384 1.268 . S
O368 Eu320 2.291 1_455 S
O368 C383 1.255 . S
O369 Eu331 2.372 . S
O369 C383 1.257 1_565 S
O370 Eu331 2.462 . S
O370 C395 1.252 . S
O371 Eu331 2.373 1_545 S
O371 C387 1.249 . S
O372 Eu320 2.335 1_455 S
O372 C387 1.264 . S
O373 Eu331 2.432 . S
O373 C395 1.268 . S
O374 Eu331 2.291 1_645 S
O374 C394 1.255 . S
O375 Eu320 2.372 . S
O375 C394 1.257 . S
C376 O365 1.249 . S
C376 O366 1.264 1_655 S
C377 C380 1.382 . S
C377 C382 1.390 1_655 S
C377 C384 1.506 . S
C378 C379 1.398 . S
C378 C382 1.392 1_655 S
C379 C378 1.398 . S
C379 C381 1.372 . S
C379 H396 0.931 . S
C380 C377 1.382 . S
C380 C381 1.390 . S
C380 H397 0.931 . S
C381 C379 1.372 . S
C381 C380 1.390 . S
C381 H398 0.929 . S
C382 C377 1.390 1_455 S
C382 C378 1.392 1_455 S
C382 H399 0.930 . S
C383 O368 1.255 . S
C383 O369 1.257 1_545 S
C384 Eu320 2.787 . S
C384 O364 1.207 1_655 S
C384 O367 1.268 . S
C384 C377 1.506 . S
C385 C352 1.415 1_565 S
C385 H362 0.931 . S
C385 C386 1.374 . S
C386 C357 1.387 . S
C386 H363 0.931 . S
C386 C385 1.374 . S
C387 O371 1.249 . S
C387 O372 1.264 . S
C388 C391 1.382 . S
C388 C392 1.390 . S
C388 C395 1.506 . S
C389 C390 1.398 . S
C389 C392 1.392 . S
C390 C389 1.398 . S
C390 C393 1.372 . S
C390 H400 0.931 . S
C391 C388 1.382 . S
C391 C393 1.390 . S
C391 H401 0.931 . S
C392 C388 1.390 . S
C392 C389 1.392 . S
C392 H402 0.930 1_455 S
C393 C390 1.372 . S
C393 C391 1.390 . S
C393 H403 0.929 . S
C394 O374 1.255 . S
C394 O375 1.257 . S
C395 Eu331 2.787 . S
C395 O370 1.252 . S
C395 O373 1.268 . S
C395 C388 1.506 . S
H396 C379 0.931 . S
H397 C380 0.931 . S
H398 C381 0.929 . S
H399 C382 0.930 . S
H400 C390 0.931 . S
H401 C391 0.931 . S
H402 C392 0.930 1_655 S
H403 C393 0.929 . S
Eu404 N433 2.600 . S
Eu404 N439 2.562 . S
Eu404 O448 2.462 . S
Eu404 O449 2.373 . S
Eu404 O451 2.432 . S
Eu404 O452 2.291 . S
Eu404 O456 2.335 1_545 S
Eu404 O459 2.372 . S
Eu404 C468 2.787 . S
C405 N406 1.365 . S
C405 C408 1.405 . S
C405 C412 1.448 . S
N406 C405 1.365 . S
N406 C409 1.319 . S
N406 Eu415 2.600 . S
C407 C409 1.397 . S
C407 C410 1.367 . S
C407 H427 0.931 . S
C408 C405 1.405 . S
C408 C410 1.403 . S
C408 C414 1.439 . S
C409 N406 1.319 . S
C409 C407 1.397 . S
C409 H420 0.930 . S
C410 C407 1.367 . S
C410 C408 1.403 . S
C410 H431 0.929 . S
C411 C412 1.430 . S
C411 C413 1.387 . S
C411 C417 1.404 . S
C412 C405 1.448 . S
C412 C411 1.430 . S
C412 N416 1.351 . S
C413 C411 1.387 . S
C413 C414 1.374 . S
C413 H428 0.931 . S
C414 C408 1.439 . S
C414 C413 1.374 . S
C414 H429 0.931 . S
Eu415 N406 2.600 . S
Eu415 N416 2.562 . S
Eu415 O450 2.335 1_565 S
Eu415 O453 2.372 . S
Eu415 O454 2.462 . S
Eu415 O455 2.373 . S
Eu415 O457 2.432 . S
Eu415 O458 2.291 1_565 S
Eu415 C479 2.787 . S
N416 C412 1.351 . S
N416 Eu415 2.562 . S
N416 C418 1.325 . S
C417 C411 1.404 . S
C417 C419 1.366 . S
C417 H425 0.930 . S
C418 N416 1.325 . S
C418 C419 1.416 . S
C418 H424 0.929 . S
C419 C417 1.366 . S
C419 C418 1.416 . S
C419 H421 0.930 . S
H420 C409 0.930 . S
H421 C419 0.930 . S
H422 C437 0.930 . S
H423 C444 0.930 . S
H424 C418 0.929 . S
H425 C417 0.930 . S
H426 C440 0.929 . S
H427 C407 0.931 . S
H428 C413 0.931 . S
H429 C414 0.931 . S
H430 C435 0.931 . S
H431 C410 0.929 . S
H432 C443 0.930 . S
N433 Eu404 2.600 . S
N433 C434 1.365 . S
N433 C437 1.319 . S
C434 N433 1.365 . S
C434 C436 1.405 . S
C434 C442 1.448 . S
C435 H430 0.931 . S
C435 C437 1.397 . S
C435 C438 1.367 . S
C436 C434 1.405 . S
C436 C438 1.403 . S
C436 C469 1.439 . S
C437 H422 0.930 . S
C437 N433 1.319 . S
C437 C435 1.397 . S
C438 C435 1.367 . S
C438 C436 1.403 . S
C438 H445 0.929 . S
N439 Eu404 2.562 . S
N439 C440 1.325 . S
N439 C442 1.351 . S
C440 H426 0.929 . S
C440 N439 1.325 . S
C440 C444 1.416 . S
C441 C442 1.430 . S
C441 C443 1.404 . S
C441 C470 1.387 . S
C442 C434 1.448 . S
C442 N439 1.351 . S
C442 C441 1.430 . S
C443 H432 0.930 . S
C443 C441 1.404 . S
C443 C444 1.366 . S
C444 H423 0.930 . S
C444 C440 1.416 . S
C444 C443 1.366 . S
H445 C438 0.929 . S
H446 C469 0.931 . S
H447 C470 0.931 . S
O448 Eu404 2.462 . S
O448 C468 1.252 . S
O449 Eu404 2.373 . S
O449 C460 1.249 . S
O450 Eu415 2.335 1_545 S
O450 C460 1.264 . S
O451 Eu404 2.432 . S
O451 C468 1.268 . S
O452 Eu404 2.291 . S
O452 C467 1.255 . S
O453 Eu415 2.372 . S
O453 C467 1.257 1_565 S
O454 Eu415 2.462 . S
O454 C479 1.252 . S
O455 Eu415 2.373 . S
O455 C471 1.249 . S
O456 Eu404 2.335 1_565 S
O456 C471 1.264 . S
O457 Eu415 2.432 . S
O457 C479 1.268 . S
O458 Eu415 2.291 1_545 S
O458 C478 1.255 . S
O459 Eu404 2.372 . S
O459 C478 1.257 . S
C460 O449 1.249 . S
C460 O450 1.264 . S
C461 C464 1.382 . S
C461 C466 1.390 . S
C461 C468 1.506 . S
C462 C463 1.398 . S
C462 C466 1.392 . S
C463 C462 1.398 . S
C463 C465 1.372 . S
C463 H480 0.931 . S
C464 C461 1.382 . S
C464 C465 1.390 . S
C464 H481 0.931 . S
C465 C463 1.372 . S
C465 C464 1.390 . S
C465 H482 0.929 . S
C466 C461 1.390 . S
C466 C462 1.392 . S
C466 H483 0.930 . S
C467 O452 1.255 . S
C467 O453 1.257 1_545 S
C468 Eu404 2.787 . S
C468 O448 1.252 . S
C468 O451 1.268 . S
C468 C461 1.506 . S
C469 C436 1.439 . S
C469 H446 0.931 . S
C469 C470 1.374 . S
C470 C441 1.387 . S
C470 H447 0.931 . S
C470 C469 1.374 . S
C471 O455 1.249 . S
C471 O456 1.264 . S
C472 C475 1.382 . S
C472 C476 1.390 1_565 S
C472 C479 1.506 . S
C473 C474 1.399 1_545 S
C473 C476 1.392 . S
C474 C473 1.399 1_565 S
C474 C477 1.371 . S
C474 H484 0.931 1_565 S
C475 C472 1.382 . S
C475 C477 1.390 . S
C475 H485 0.931 . S
C476 C472 1.390 1_545 S
C476 C473 1.392 . S
C476 H486 0.930 . S
C477 C474 1.371 . S
C477 C475 1.390 . S
C477 H487 0.929 . S
C478 O458 1.255 . S
C478 O459 1.257 . S
C479 Eu415 2.787 . S
C479 O454 1.252 . S
C479 O457 1.268 . S
C479 C472 1.506 . S
H480 C463 0.931 . S
H481 C464 0.931 . S
H482 C465 0.929 . S
H483 C466 0.930 . S
H484 C474 0.931 1_545 S
H485 C475 0.931 . S
H486 C476 0.930 . S
H487 C477 0.929 . S
Eu488 N517 2.600 . S
Eu488 N523 2.562 . S
Eu488 O532 2.462 . S
Eu488 O533 2.373 . S
Eu488 O535 2.432 . S
Eu488 O536 2.291 . S
Eu488 O540 2.335 . S
Eu488 O543 2.372 . S
Eu488 C552 2.787 . S
C489 N490 1.365 . S
C489 C492 1.405 . S
C489 C496 1.448 . S
N490 C489 1.365 . S
N490 C493 1.319 . S
N490 Eu499 2.600 . S
C491 C493 1.397 . S
C491 C494 1.367 . S
C491 H511 0.931 . S
C492 C489 1.405 . S
C492 C494 1.403 . S
C492 C498 1.439 . S
C493 N490 1.319 . S
C493 C491 1.397 . S
C493 H504 0.930 . S
C494 C491 1.367 . S
C494 C492 1.403 . S
C494 H515 0.929 . S
C495 C496 1.430 . S
C495 C497 1.387 . S
C495 C501 1.404 . S
C496 C489 1.448 . S
C496 C495 1.430 . S
C496 N500 1.351 . S
C497 C495 1.387 . S
C497 C498 1.374 . S
C497 H512 0.931 . S
C498 C492 1.439 . S
C498 C497 1.374 . S
C498 H513 0.931 . S
Eu499 N490 2.600 . S
Eu499 N500 2.562 . S
Eu499 O534 2.335 . S
Eu499 O537 2.372 . S
Eu499 O538 2.462 . S
Eu499 O539 2.373 . S
Eu499 O541 2.432 . S
Eu499 O542 2.291 . S
Eu499 C563 2.787 . S
N500 C496 1.351 . S
N500 Eu499 2.562 . S
N500 C502 1.325 . S
C501 C495 1.404 . S
C501 C503 1.366 . S
C501 H509 0.930 . S
C502 N500 1.325 . S
C502 C503 1.416 . S
C502 H508 0.929 . S
C503 C501 1.366 . S
C503 C502 1.416 . S
C503 H505 0.930 . S
H504 C493 0.930 . S
H505 C503 0.930 . S
H506 C521 0.930 . S
H507 C528 0.930 . S
H508 C502 0.929 . S
H509 C501 0.930 . S
H510 C524 0.929 . S
H511 C491 0.931 . S
H512 C497 0.931 . S
H513 C498 0.931 . S
H514 C519 0.931 . S
H515 C494 0.929 . S
H516 C527 0.930 . S
N517 Eu488 2.600 . S
N517 C518 1.365 . S
N517 C521 1.319 . S
C518 N517 1.365 . S
C518 C520 1.405 . S
C518 C526 1.448 . S
C519 H514 0.931 . S
C519 C521 1.397 . S
C519 C522 1.367 . S
C520 C518 1.405 . S
C520 C522 1.403 . S
C520 C553 1.439 . S
C521 H506 0.930 . S
C521 N517 1.319 . S
C521 C519 1.397 . S
C522 C519 1.367 . S
C522 C520 1.403 . S
C522 H529 0.929 . S
N523 Eu488 2.562 . S
N523 C524 1.325 . S
N523 C526 1.351 . S
C524 H510 0.929 . S
C524 N523 1.325 . S
C524 C528 1.416 . S
C525 C526 1.430 . S
C525 C527 1.404 . S
C525 C554 1.387 . S
C526 C518 1.448 . S
C526 N523 1.351 . S
C526 C525 1.430 . S
C527 H516 0.930 . S
C527 C525 1.404 . S
C527 C528 1.366 . S
C528 H507 0.930 . S
C528 C524 1.416 . S
C528 C527 1.366 . S
H529 C522 0.929 . S
H530 C553 0.931 . S
H531 C554 0.931 . S
O532 Eu488 2.462 . S
O532 C552 1.252 . S
O533 Eu488 2.373 . S
O533 C544 1.249 . S
O534 Eu499 2.335 . S
O534 C544 1.264 . S
O535 Eu488 2.432 . S
O535 C552 1.268 . S
O536 Eu488 2.291 . S
O536 C551 1.255 . S
O537 Eu499 2.372 . S
O537 C551 1.257 . S
O538 Eu499 2.462 . S
O538 C563 1.252 . S
O539 Eu499 2.373 . S
O539 C555 1.249 . S
O540 Eu488 2.335 . S
O540 C555 1.264 . S
O541 Eu499 2.432 . S
O541 C563 1.268 . S
O542 Eu499 2.291 . S
O542 C562 1.255 . S
O543 Eu488 2.372 . S
O543 C562 1.257 . S
C544 O533 1.249 . S
C544 O534 1.264 . S
C545 C548 1.382 . S
C545 C550 1.390 . S
C545 C552 1.506 . S
C546 C547 1.398 . S
C546 C550 1.392 . S
C547 C546 1.398 . S
C547 C549 1.372 . S
C547 H564 0.931 . S
C548 C545 1.382 . S
C548 C549 1.390 . S
C548 H565 0.931 . S
C549 C547 1.372 . S
C549 C548 1.390 . S
C549 H566 0.929 . S
C550 C545 1.390 . S
C550 C546 1.392 . S
C550 H567 0.930 . S
C551 O536 1.255 . S
C551 O537 1.257 . S
C552 Eu488 2.787 . S
C552 O532 1.252 . S
C552 O535 1.268 . S
C552 C545 1.506 . S
C553 C520 1.439 . S
C553 H530 0.931 . S
C553 C554 1.374 . S
C554 C525 1.387 . S
C554 H531 0.931 . S
C554 C553 1.374 . S
C555 O539 1.249 . S
C555 O540 1.264 . S
C556 C559 1.382 . S
C556 C560 1.390 . S
C556 C563 1.506 . S
C557 C558 1.398 . S
C557 C560 1.392 . S
C558 C557 1.398 . S
C558 C561 1.372 . S
C558 H568 0.931 . S
C559 C556 1.382 . S
C559 C561 1.390 . S
C559 H569 0.931 . S
C560 C556 1.390 . S
C560 C557 1.392 . S
C560 H570 0.930 . S
C561 C558 1.372 . S
C561 C559 1.390 . S
C561 H571 0.929 . S
C562 O542 1.255 . S
C562 O543 1.257 . S
C563 Eu499 2.787 . S
C563 O538 1.252 . S
C563 O541 1.268 . S
C563 C556 1.506 . S
H564 C547 0.931 . S
H565 C548 0.931 . S
H566 C549 0.929 . S
H567 C550 0.930 . S
H568 C558 0.931 . S
H569 C559 0.931 . S
H570 C560 0.930 . S
H571 C561 0.929 . S
Eu572 N601 2.600 . S
Eu572 N607 2.562 . S
Eu572 O616 2.462 . S
Eu572 O617 2.373 1_455 S
Eu572 O619 2.432 . S
Eu572 O620 2.291 . S
Eu572 O624 2.335 . S
Eu572 O627 2.372 . S
Eu572 C636 2.787 . S
C573 N574 1.365 1_455 S
C573 C576 1.405 . S
C573 C580 1.448 . S
N574 C573 1.365 1_655 S
N574 C577 1.319 . S
N574 Eu583 2.600 . S
C575 C577 1.385 1_455 S
C575 C578 1.384 . S
C575 H595 0.926 1_455 S
C576 C573 1.405 . S
C576 C578 1.403 . S
C576 C582 1.439 . S
C577 N574 1.319 . S
C577 C575 1.385 1_655 S
C577 H588 0.930 . S
C578 C575 1.384 . S
C578 C576 1.403 . S
C578 H599 0.929 . S
C579 C580 1.430 . S
C579 C581 1.387 . S
C579 C585 1.404 . S
C580 C573 1.448 . S
C580 C579 1.430 . S
C580 N584 1.358 . S
C581 C579 1.387 . S
C581 C582 1.374 . S
C581 H596 0.931 . S
C582 C576 1.439 . S
C582 C581 1.374 . S
C582 H597 0.931 . S
Eu583 N574 2.600 . S
Eu583 N584 2.556 1_655 S
Eu583 O618 2.335 . S
Eu583 O621 2.372 . S
Eu583 O622 2.462 . S
Eu583 O623 2.373 1_655 S
Eu583 O625 2.432 . S
Eu583 O626 2.292 . S
Eu583 C647 2.787 . S
N584 C580 1.358 . S
N584 Eu583 2.556 1_455 S
N584 C586 1.327 . S
C585 C579 1.404 . S
C585 C587 1.366 . S
C585 H593 0.930 . S
C586 N584 1.327 . S
C586 C587 1.416 . S
C586 H592 0.929 1_455 S
C587 C585 1.366 . S
C587 C586 1.416 . S
C587 H589 0.930 . S
H588 C577 0.930 . S
H589 C587 0.930 . S
H590 C605 0.930 . S
H591 C612 0.933 . S
H592 C586 0.929 1_655 S
H593 C585 0.930 . S
H594 C608 0.929 . S
H595 C575 0.926 1_655 S
H596 C581 0.931 . S
H597 C582 0.931 . S
H598 C603 0.931 . S
H599 C578 0.929 . S
H600 C611 0.930 . S
N601 Eu572 2.600 . S
N601 C602 1.365 . S
N601 C605 1.319 . S
C602 N601 1.365 . S
C602 C604 1.394 1_455 S
C602 C610 1.448 . S
C603 H598 0.931 . S
C603 C605 1.397 . S
C603 C606 1.367 . S
C604 C602 1.394 1_655 S
C604 C606 1.400 1_655 S
C604 C637 1.453 . S
C605 H590 0.930 . S
C605 N601 1.319 . S
C605 C603 1.397 . S
C606 C603 1.367 . S
C606 C604 1.400 1_455 S
C606 H613 0.929 1_455 S
N607 Eu572 2.562 . S
N607 C608 1.325 . S
N607 C610 1.351 . S
C608 H594 0.929 . S
C608 N607 1.325 . S
C608 C612 1.403 1_455 S
C609 C610 1.430 1_655 S
C609 C611 1.404 . S
C609 C638 1.387 . S
C610 C602 1.448 . S
C610 N607 1.351 . S
C610 C609 1.430 1_455 S
C611 H600 0.930 . S
C611 C609 1.404 . S
C611 C612 1.376 . S
C612 H591 0.933 . S
C612 C608 1.403 1_655 S
C612 C611 1.376 . S
H613 C606 0.929 1_655 S
H614 C637 0.931 . S
H615 C638 0.931 . S
O616 Eu572 2.462 . S
O616 C636 1.252 . S
O617 Eu572 2.373 1_655 S
O617 C628 1.249 . S
O618 Eu583 2.335 . S
O618 C628 1.264 . S
O619 Eu572 2.432 . S
O619 C636 1.268 . S
O620 Eu572 2.291 . S
O620 C635 1.255 . S
O621 Eu583 2.372 . S
O621 C635 1.257 1_655 S
O622 Eu583 2.462 . S
O622 C647 1.252 . S
O623 Eu583 2.373 1_455 S
O623 C639 1.249 . S
O624 Eu572 2.335 . S
O624 C639 1.264 . S
O625 Eu583 2.432 . S
O625 C647 1.268 . S
O626 Eu583 2.292 . S
O626 C646 1.255 1_655 S
O627 Eu572 2.372 . S
O627 C646 1.257 . S
C628 O617 1.249 . S
C628 O618 1.264 . S
C629 C632 1.382 . S
C629 C634 1.390 . S
C629 C636 1.506 . S
C630 C631 1.398 . S
C630 C634 1.392 . S
C631 C630 1.398 . S
C631 C633 1.372 . S
C631 H648 0.931 . S
C632 C629 1.382 . S
C632 C633 1.390 . S
C632 H649 0.931 . S
C633 C631 1.372 . S
C633 C632 1.390 . S
C633 H650 0.929 . S
C634 C629 1.390 . S
C634 C630 1.392 . S
C634 H651 0.930 . S
C635 O620 1.255 . S
C635 O621 1.257 1_455 S
C636 Eu572 2.787 . S
C636 O616 1.252 . S
C636 O619 1.268 . S
C636 C629 1.506 . S
C637 C604 1.453 . S
C637 H614 0.931 . S
C637 C638 1.374 . S
C638 C609 1.387 . S
C638 H615 0.931 . S
C638 C637 1.374 . S
C639 O623 1.249 . S
C639 O624 1.264 . S
C640 C643 1.382 . S
C640 C644 1.390 . S
C640 C647 1.506 . S
C641 C642 1.398 . S
C641 C644 1.392 . S
C642 C641 1.398 . S
C642 C645 1.372 . S
C642 H652 0.931 . S
C643 C640 1.382 . S
C643 C645 1.390 . S
C643 H653 0.931 . S
C644 C640 1.390 . S
C644 C641 1.392 . S
C644 H654 0.930 . S
C645 C642 1.372 . S
C645 C643 1.390 . S
C645 H655 0.929 . S
C646 O626 1.255 1_455 S
C646 O627 1.257 . S
C647 Eu583 2.787 . S
C647 O622 1.252 . S
C647 O625 1.268 . S
C647 C640 1.506 . S
H648 C631 0.931 . S
H649 C632 0.931 . S
H650 C633 0.929 . S
H651 C634 0.930 . S
H652 C642 0.931 . S
H653 C643 0.931 . S
H654 C644 0.930 . S
H655 C645 0.929 . S
C656 C657 1.349 . S
C656 C658 1.327 . S
C656 H681 0.950 . S
C657 C656 1.349 . S
C657 C673 1.349 . S
C658 C656 1.327 . S
C658 C677 1.429 . S
C658 H682 0.950 . S
C659 C676 1.574 . S
C659 C678 1.368 . S
C659 H683 0.949 . S
H660 C664 0.949 . S
C661 C662 1.349 . S
C661 C663 1.327 . S
C661 H684 0.950 1_545 S
C662 C661 1.349 . S
C662 C674 1.349 . S
C663 C661 1.327 . S
C663 C679 1.429 . S
C663 H685 0.950 1_545 S
C664 H660 0.949 . S
C664 C672 1.574 . S
C664 C680 1.368 . S
H665 C673 0.950 . S
H666 C671 0.950 . S
H667 C672 0.949 . S
H668 C674 0.950 . S
H669 C675 0.950 . S
H670 C676 0.949 . S
C671 H666 0.950 . S
C671 C673 1.327 . S
C671 C677 1.429 . S
C672 C664 1.574 . S
C672 H667 0.949 . S
C672 C678 1.368 . S
C673 C657 1.349 . S
C673 H665 0.950 . S
C673 C671 1.327 . S
C674 C662 1.349 . S
C674 H668 0.950 . S
C674 C675 1.327 . S
C675 H669 0.950 . S
C675 C674 1.327 . S
C675 C679 1.429 . S
C676 C659 1.574 . S
C676 H670 0.949 . S
C676 C680 1.368 . S
C677 C658 1.429 . S
C677 C671 1.429 . S
C677 C678 1.523 . S
C678 C659 1.368 . S
C678 C672 1.368 . S
C678 C677 1.523 . S
C679 C663 1.429 . S
C679 C675 1.429 . S
C679 C680 1.523 . S
C680 C664 1.368 . S
C680 C676 1.368 . S
C680 C679 1.523 . S
H681 C656 0.950 . S
H682 C658 0.950 . S
H683 C659 0.949 . S
H684 C661 0.950 1_565 S
H685 C663 0.950 1_565 S
C686 C687 1.349 . S
C686 C688 1.327 . S
C686 H711 0.950 . S
C687 C686 1.349 . S
C687 C703 1.349 . S
C688 C686 1.327 . S
C688 C707 1.429 . S
C688 H712 0.950 . S
C689 C706 1.574 . S
C689 C708 1.368 . S
C689 H713 0.949 . S
H690 C694 0.949 . S
C691 C692 1.349 . S
C691 C693 1.327 . S
C691 H714 0.950 . S
C692 C691 1.349 . S
C692 C704 1.349 . S
C693 C691 1.327 . S
C693 C709 1.429 . S
C693 H715 0.950 . S
C694 H690 0.949 . S
C694 C702 1.574 . S
C694 C710 1.368 . S
H695 C703 0.950 . S
H696 C701 0.950 . S
H697 C702 0.949 . S
H698 C704 0.950 . S
H699 C705 0.950 . S
H700 C706 0.949 . S
C701 H696 0.950 . S
C701 C703 1.327 . S
C701 C707 1.429 . S
C702 C694 1.574 . S
C702 H697 0.949 . S
C702 C708 1.368 . S
C703 C687 1.349 . S
C703 H695 0.950 . S
C703 C701 1.327 . S
C704 C692 1.349 . S
C704 H698 0.950 . S
C704 C705 1.327 . S
C705 H699 0.950 . S
C705 C704 1.327 . S
C705 C709 1.429 . S
C706 C689 1.574 . S
C706 H700 0.949 . S
C706 C710 1.368 . S
C707 C688 1.429 . S
C707 C701 1.429 . S
C707 C708 1.523 . S
C708 C689 1.368 . S
C708 C702 1.368 . S
C708 C707 1.523 . S
C709 C693 1.429 . S
C709 C705 1.429 . S
C709 C710 1.523 . S
C710 C694 1.368 . S
C710 C706 1.368 . S
C710 C709 1.523 . S
H711 C686 0.950 . S
H712 C688 0.950 . S
H713 C689 0.949 . S
H714 C691 0.950 . S
H715 C693 0.950 . S
C716 C717 1.349 . S
C716 C718 1.327 . S
C716 H741 0.950 . S
C717 C716 1.349 . S
C717 C733 1.349 . S
C718 C716 1.327 . S
C718 C737 1.429 . S
C718 H742 0.950 . S
C719 C736 1.574 . S
C719 C738 1.368 . S
C719 H743 0.949 . S
H720 C724 0.949 . S
C721 C722 1.349 . S
C721 C723 1.327 . S
C721 H744 0.950 . S
C722 C721 1.349 . S
C722 C734 1.349 . S
C723 C721 1.327 . S
C723 C739 1.429 . S
C723 H745 0.950 . S
C724 H720 0.949 . S
C724 C732 1.574 . S
C724 C740 1.368 . S
H725 C733 0.950 . S
H726 C731 0.950 . S
H727 C732 0.949 . S
H728 C734 0.950 . S
H729 C735 0.950 . S
H730 C736 0.949 . S
C731 H726 0.950 . S
C731 C733 1.327 . S
C731 C737 1.429 . S
C732 C724 1.574 . S
C732 H727 0.949 . S
C732 C738 1.368 . S
C733 C717 1.349 . S
C733 H725 0.950 . S
C733 C731 1.327 . S
C734 C722 1.349 . S
C734 H728 0.950 . S
C734 C735 1.327 . S
C735 H729 0.950 . S
C735 C734 1.327 . S
C735 C739 1.429 . S
C736 C719 1.574 . S
C736 H730 0.949 . S
C736 C740 1.368 . S
C737 C718 1.429 . S
C737 C731 1.429 . S
C737 C738 1.523 . S
C738 C719 1.368 . S
C738 C732 1.368 . S
C738 C737 1.523 . S
C739 C723 1.429 . S
C739 C735 1.429 . S
C739 C740 1.523 . S
C740 C724 1.368 . S
C740 C736 1.368 . S
C740 C739 1.523 . S
H741 C716 0.950 . S
H742 C718 0.950 . S
H743 C719 0.949 . S
H744 C721 0.950 . S
H745 C723 0.950 . S
C746 C747 1.349 . S
C746 C748 1.327 . S
C746 H771 0.950 . S
C747 C746 1.349 . S
C747 C763 1.349 . S
C748 C746 1.327 . S
C748 C767 1.429 . S
C748 H772 0.950 . S
C749 C766 1.574 . S
C749 C768 1.368 . S
C749 H773 0.949 . S
H750 C754 0.949 . S
C751 C752 1.349 . S
C751 C753 1.327 . S
C751 H774 0.950 1_455 S
C752 C751 1.349 . S
C752 C764 1.349 . S
C753 C751 1.327 . S
C753 C769 1.429 . S
C753 H775 0.950 1_455 S
C754 H750 0.949 . S
C754 C762 1.574 . S
C754 C770 1.368 . S
H755 C763 0.950 . S
H756 C761 0.950 . S
H757 C762 0.949 . S
H758 C764 0.950 . S
H759 C765 0.950 . S
H760 C766 0.949 . S
C761 H756 0.950 . S
C761 C763 1.327 . S
C761 C767 1.429 . S
C762 C754 1.574 . S
C762 H757 0.949 . S
C762 C768 1.368 . S
C763 C747 1.349 . S
C763 H755 0.950 . S
C763 C761 1.327 . S
C764 C752 1.349 . S
C764 H758 0.950 . S
C764 C765 1.327 . S
C765 H759 0.950 . S
C765 C764 1.327 . S
C765 C769 1.429 . S
C766 C749 1.574 . S
C766 H760 0.949 . S
C766 C770 1.368 . S
C767 C748 1.429 . S
C767 C761 1.429 . S
C767 C768 1.523 . S
C768 C749 1.368 . S
C768 C762 1.368 . S
C768 C767 1.523 . S
C769 C753 1.429 . S
C769 C765 1.429 . S
C769 C770 1.523 . S
C770 C754 1.368 . S
C770 C766 1.368 . S
C770 C769 1.523 . S
H771 C746 0.950 . S
H772 C748 0.950 . S
H773 C749 0.949 . S
H774 C751 0.950 1_655 S
H775 C753 0.950 1_655 S
C776 C777 1.349 . S
C776 C778 1.327 . S
C776 H801 0.950 . S
C777 C776 1.349 . S
C777 C793 1.342 1_554 S
C778 C776 1.327 . S
C778 C797 1.429 1_554 S
C778 H802 0.950 . S
C779 C796 1.574 . S
C779 C798 1.368 . S
C779 H803 0.949 . S
H780 C784 0.949 1_545 S
C781 C782 1.349 . S
C781 C783 1.327 . S
C781 H804 0.950 . S
C782 C781 1.349 . S
C782 C794 1.349 1_565 S
C783 C781 1.327 . S
C783 C799 1.429 . S
C783 H805 0.950 . S
C784 H780 0.949 1_565 S
C784 C792 1.574 . S
C784 C800 1.368 . S
H785 C793 0.950 . S
H786 C791 0.950 . S
H787 C792 0.949 . S
H788 C794 0.950 . S
H789 C795 0.950 . S
H790 C796 0.949 . S
C791 H786 0.950 . S
C791 C793 1.333 . S
C791 C797 1.429 . S
C792 C784 1.574 . S
C792 H787 0.949 . S
C792 C798 1.368 . S
C793 C777 1.342 1_556 S
C793 H785 0.950 . S
C793 C791 1.333 . S
C794 C782 1.349 1_545 S
C794 H788 0.950 . S
C794 C795 1.327 . S
C795 H789 0.950 . S
C795 C794 1.327 . S
C795 C799 1.429 1_545 S
C796 C779 1.574 . S
C796 H790 0.949 . S
C796 C800 1.368 . S
C797 C778 1.429 1_556 S
C797 C791 1.429 . S
C797 C798 1.523 . S
C798 C779 1.368 . S
C798 C792 1.368 . S
C798 C797 1.523 . S
C799 C783 1.429 . S
C799 C795 1.429 1_565 S
C799 C800 1.523 . S
C800 C784 1.368 . S
C800 C796 1.368 . S
C800 C799 1.523 . S
H801 C776 0.950 . S
H802 C778 0.950 . S
H803 C779 0.949 . S
H804 C781 0.950 . S
H805 C783 0.950 . S
C806 C807 1.349 . S
C806 C808 1.327 1_554 S
C806 H831 0.950 . S
C807 C806 1.349 . S
C807 C823 1.349 . S
C808 C806 1.327 1_556 S
C808 C827 1.429 . S
C808 H832 0.950 . S
C809 C826 1.574 . S
C809 C828 1.368 . S
C809 H833 0.949 . S
H810 C814 0.949 . S
C811 C812 1.349 . S
C811 C813 1.327 . S
C811 H834 0.950 . S
C812 C811 1.349 . S
C812 C824 1.349 . S
C813 C811 1.327 . S
C813 C829 1.429 . S
C813 H835 0.950 . S
C814 H810 0.949 . S
C814 C822 1.574 . S
C814 C830 1.368 . S
H815 C823 0.950 . S
H816 C821 0.950 . S
H817 C822 0.949 . S
H818 C824 0.950 . S
H819 C825 0.950 . S
H820 C826 0.949 . S
C821 H816 0.950 . S
C821 C823 1.327 1_556 S
C821 C827 1.429 . S
C822 C814 1.574 . S
C822 H817 0.949 . S
C822 C828 1.368 . S
C823 C807 1.349 . S
C823 H815 0.950 . S
C823 C821 1.327 1_554 S
C824 C812 1.349 . S
C824 H818 0.950 . S
C824 C825 1.327 . S
C825 H819 0.950 . S
C825 C824 1.327 . S
C825 C829 1.429 . S
C826 C809 1.574 . S
C826 H820 0.949 . S
C826 C830 1.368 . S
C827 C808 1.429 . S
C827 C821 1.429 . S
C827 C828 1.523 . S
C828 C809 1.368 . S
C828 C822 1.368 . S
C828 C827 1.523 . S
C829 C813 1.429 . S
C829 C825 1.429 . S
C829 C830 1.523 . S
C830 C814 1.368 . S
C830 C826 1.368 . S
C830 C829 1.523 . S
H831 C806 0.950 . S
H832 C808 0.950 . S
H833 C809 0.949 . S
H834 C811 0.950 . S
H835 C813 0.950 . S
C836 C837 1.349 . S
C836 C838 1.327 1_554 S
C836 H861 0.950 . S
C837 C836 1.349 . S
C837 C853 1.349 . S
C838 C836 1.327 1_556 S
C838 C857 1.429 . S
C838 H862 0.950 . S
C839 C856 1.574 . S
C839 C858 1.368 . S
C839 H863 0.949 . S
H840 C844 0.949 . S
C841 C842 1.349 . S
C841 C843 1.327 . S
C841 H864 0.950 . S
C842 C841 1.349 . S
C842 C854 1.349 . S
C843 C841 1.327 . S
C843 C859 1.429 . S
C843 H865 0.950 . S
C844 H840 0.949 . S
C844 C852 1.574 . S
C844 C860 1.368 . S
H845 C853 0.950 . S
H846 C851 0.950 . S
H847 C852 0.949 . S
H848 C854 0.950 . S
H849 C855 0.950 . S
H850 C856 0.949 . S
C851 H846 0.950 . S
C851 C853 1.327 . S
C851 C857 1.429 1_554 S
C852 C844 1.574 . S
C852 H847 0.949 . S
C852 C858 1.368 . S
C853 C837 1.349 . S
C853 H845 0.950 . S
C853 C851 1.327 . S
C854 C842 1.349 . S
C854 H848 0.950 . S
C854 C855 1.327 . S
C855 H849 0.950 . S
C855 C854 1.327 . S
C855 C859 1.429 . S
C856 C839 1.574 . S
C856 H850 0.949 . S
C856 C860 1.368 . S
C857 C838 1.429 . S
C857 C851 1.429 1_556 S
C857 C858 1.523 . S
C858 C839 1.368 . S
C858 C852 1.368 . S
C858 C857 1.523 . S
C859 C843 1.429 . S
C859 C855 1.429 . S
C859 C860 1.523 . S
C860 C844 1.368 . S
C860 C856 1.368 . S
C860 C859 1.523 . S
H861 C836 0.950 . S
H862 C838 0.950 . S
H863 C839 0.949 . S
H864 C841 0.950 . S
H865 C843 0.950 . S
C866 C867 1.349 . S
C866 C868 1.327 1_554 S
C866 H891 0.950 . S
C867 C866 1.349 . S
C867 C883 1.349 . S
C868 C866 1.327 1_556 S
C868 C887 1.429 . S
C868 H892 0.950 . S
C869 C886 1.574 . S
C869 C888 1.368 . S
C869 H893 0.949 . S
H870 C874 0.949 1_455 S
C871 C872 1.349 . S
C871 C873 1.327 . S
C871 H894 0.950 . S
C872 C871 1.349 . S
C872 C884 1.349 1_655 S
C873 C871 1.327 . S
C873 C889 1.429 . S
C873 H895 0.950 . S
C874 H870 0.949 1_655 S
C874 C882 1.574 . S
C874 C890 1.368 . S
H875 C883 0.950 . S
H876 C881 0.950 . S
H877 C882 0.949 . S
H878 C884 0.950 . S
H879 C885 0.972 . S
H880 C886 0.949 . S
C881 H876 0.950 . S
C881 C883 1.327 1_556 S
C881 C887 1.429 . S
C882 C874 1.574 . S
C882 H877 0.949 . S
C882 C888 1.368 . S
C883 C867 1.349 . S
C883 H875 0.950 . S
C883 C881 1.327 1_554 S
C884 C872 1.349 1_455 S
C884 H878 0.950 . S
C884 C885 1.336 . S
C885 H879 0.972 . S
C885 C884 1.336 . S
C885 C889 1.400 1_455 S
C886 C869 1.574 . S
C886 H880 0.949 . S
C886 C890 1.368 . S
C887 C868 1.429 . S
C887 C881 1.429 . S
C887 C888 1.523 . S
C888 C869 1.368 . S
C888 C882 1.368 . S
C888 C887 1.523 . S
C889 C873 1.429 . S
C889 C885 1.400 1_655 S
C889 C890 1.523 . S
C890 C874 1.368 . S
C890 C886 1.368 . S
C890 C889 1.523 . S
H891 C866 0.950 . S
H892 C868 0.950 . S
H893 C869 0.949 . S
H894 C871 0.950 . S
H895 C873 0.950 . S
C896 C897 1.349 . S
C896 C898 1.327 . S
C896 H921 0.950 . S
C897 C896 1.349 . S
C897 C913 1.349 . S
C898 C896 1.327 . S
C898 C917 1.429 . S
C898 H922 0.950 . S
C899 C916 1.574 . S
C899 C918 1.368 . S
C899 H923 0.949 . S
H900 C904 0.949 . S
C901 C902 1.349 1_655 S
C901 C903 1.327 1_655 S
C901 H924 0.950 . S
C902 C901 1.349 1_455 S
C902 C914 1.349 . S
C903 C901 1.327 1_455 S
C903 C919 1.429 . S
C903 H925 0.950 1_455 S
C904 H900 0.949 . S
C904 C912 1.574 . S
C904 C920 1.368 . S
H905 C913 0.950 . S
H906 C911 0.950 . S
H907 C912 0.949 . S
H908 C914 0.950 . S
H909 C915 0.950 . S
H910 C916 0.949 . S
C911 H906 0.950 . S
C911 C913 1.327 . S
C911 C917 1.429 . S
C912 C904 1.574 . S
C912 H907 0.949 . S
C912 C918 1.368 . S
C913 C897 1.349 . S
C913 H905 0.950 . S
C913 C911 1.327 . S
C914 C902 1.349 . S
C914 H908 0.950 . S
C914 C915 1.327 . S
C915 H909 0.950 . S
C915 C914 1.327 . S
C915 C919 1.429 . S
C916 C899 1.574 . S
C916 H910 0.949 . S
C916 C920 1.368 . S
C917 C898 1.429 . S
C917 C911 1.429 . S
C917 C918 1.523 . S
C918 C899 1.368 . S
C918 C912 1.368 . S
C918 C917 1.523 . S
C919 C903 1.429 . S
C919 C915 1.429 . S
C919 C920 1.523 . S
C920 C904 1.368 . S
C920 C916 1.368 . S
C920 C919 1.523 . S
H921 C896 0.950 . S
H922 C898 0.950 . S
H923 C899 0.949 . S
H924 C901 0.950 . S
H925 C903 0.950 1_655 S
C926 C927 1.349 . S
C926 C928 1.327 . S
C926 H951 0.950 . S
C927 C926 1.349 . S
C927 C943 1.349 . S
C928 C926 1.327 . S
C928 C947 1.429 . S
C928 H952 0.950 . S
C929 C946 1.574 . S
C929 C948 1.368 . S
C929 H953 0.949 . S
H930 C934 0.949 . S
C931 C932 1.349 . S
C931 C933 1.327 . S
C931 H954 0.950 . S
C932 C931 1.349 . S
C932 C944 1.349 . S
C933 C931 1.327 . S
C933 C949 1.429 . S
C933 H955 0.950 . S
C934 H930 0.949 . S
C934 C942 1.574 . S
C934 C950 1.368 . S
H935 C943 0.950 . S
H936 C941 0.950 . S
H937 C942 0.949 . S
H938 C944 0.950 . S
H939 C945 0.950 . S
H940 C946 0.949 . S
C941 H936 0.950 . S
C941 C943 1.327 . S
C941 C947 1.429 . S
C942 C934 1.574 . S
C942 H937 0.949 . S
C942 C948 1.368 . S
C943 C927 1.349 . S
C943 H935 0.950 . S
C943 C941 1.327 . S
C944 C932 1.349 . S
C944 H938 0.950 . S
C944 C945 1.327 . S
C945 H939 0.950 . S
C945 C944 1.327 . S
C945 C949 1.429 . S
C946 C929 1.574 . S
C946 H940 0.949 . S
C946 C950 1.368 . S
C947 C928 1.429 . S
C947 C941 1.429 . S
C947 C948 1.523 . S
C948 C929 1.368 . S
C948 C942 1.368 . S
C948 C947 1.523 . S
C949 C933 1.429 . S
C949 C945 1.429 . S
C949 C950 1.523 . S
C950 C934 1.368 . S
C950 C946 1.368 . S
C950 C949 1.523 . S
H951 C926 0.950 . S
H952 C928 0.950 . S
H953 C929 0.949 . S
H954 C931 0.950 . S
H955 C933 0.950 . S
C956 C957 1.349 . S
C956 C958 1.327 . S
C956 H981 0.950 . S
C957 C956 1.349 . S
C957 C973 1.349 . S
C958 C956 1.327 . S
C958 C977 1.429 . S
C958 H982 0.950 . S
C959 C976 1.574 . S
C959 C978 1.368 . S
C959 H983 0.949 . S
H960 C964 0.949 . S
C961 C962 1.349 . S
C961 C963 1.327 . S
C961 H984 0.950 . S
C962 C961 1.349 . S
C962 C974 1.349 . S
C963 C961 1.327 . S
C963 C979 1.429 . S
C963 H985 0.950 . S
C964 H960 0.949 . S
C964 C972 1.574 . S
C964 C980 1.368 . S
H965 C973 0.950 . S
H966 C971 0.950 . S
H967 C972 0.949 . S
H968 C974 0.950 . S
H969 C975 0.950 . S
H970 C976 0.949 . S
C971 H966 0.950 . S
C971 C973 1.327 . S
C971 C977 1.429 . S
C972 C964 1.574 . S
C972 H967 0.949 . S
C972 C978 1.368 . S
C973 C957 1.349 . S
C973 H965 0.950 . S
C973 C971 1.327 . S
C974 C962 1.349 . S
C974 H968 0.950 . S
C974 C975 1.327 . S
C975 H969 0.950 . S
C975 C974 1.327 . S
C975 C979 1.429 . S
C976 C959 1.574 . S
C976 H970 0.949 . S
C976 C980 1.368 . S
C977 C958 1.429 . S
C977 C971 1.429 . S
C977 C978 1.523 . S
C978 C959 1.368 . S
C978 C972 1.368 . S
C978 C977 1.523 . S
C979 C963 1.429 . S
C979 C975 1.429 . S
C979 C980 1.523 . S
C980 C964 1.368 . S
C980 C976 1.368 . S
C980 C979 1.523 . S
H981 C956 0.950 . S
H982 C958 0.950 . S
H983 C959 0.949 . S
H984 C961 0.950 . S
H985 C963 0.950 . S
C986 C987 1.349 . S
C986 C988 1.327 . S
C986 H1011 0.950 . S
C987 C986 1.349 . S
C987 C1003 1.349 . S
C988 C986 1.327 . S
C988 C1007 1.429 . S
C988 H1012 0.950 . S
C989 C1006 1.574 . S
C989 C1008 1.368 . S
C989 H1013 0.949 . S
H990 C994 0.949 . S
C991 C992 1.349 . S
C991 C993 1.327 . S
C991 H1014 0.950 . S
C992 C991 1.349 . S
C992 C1004 1.349 . S
C993 C991 1.327 . S
C993 C1009 1.429 . S
C993 H1015 0.950 . S
C994 H990 0.949 . S
C994 C1002 1.574 . S
C994 C1010 1.368 . S
H995 C1003 0.950 . S
H996 C1001 0.950 . S
H997 C1002 0.949 . S
H998 C1004 0.950 . S
H999 C1005 0.950 . S
H1000 C1006 0.949 . S
C1001 H996 0.950 . S
C1001 C1003 1.327 . S
C1001 C1007 1.429 . S
C1002 C994 1.574 . S
C1002 H997 0.949 . S
C1002 C1008 1.368 . S
C1003 C987 1.349 . S
C1003 H995 0.950 . S
C1003 C1001 1.327 . S
C1004 C992 1.349 . S
C1004 H998 0.950 . S
C1004 C1005 1.327 . S
C1005 H999 0.950 . S
C1005 C1004 1.327 . S
C1005 C1009 1.429 . S
C1006 C989 1.574 . S
C1006 H1000 0.949 . S
C1006 C1010 1.368 . S
C1007 C988 1.429 . S
C1007 C1001 1.429 . S
C1007 C1008 1.523 . S
C1008 C989 1.368 . S
C1008 C1002 1.368 . S
C1008 C1007 1.523 . S
C1009 C993 1.429 . S
C1009 C1005 1.429 . S
C1009 C1010 1.523 . S
C1010 C994 1.368 . S
C1010 C1006 1.368 . S
C1010 C1009 1.523 . S
H1011 C986 0.950 . S
H1012 C988 0.950 . S
H1013 C989 0.949 . S
H1014 C991 0.950 . S
H1015 C993 0.950 . S
C1016 C1017 1.349 . S
C1016 C1018 1.327 . S
C1016 H1041 0.950 . S
C1017 C1016 1.349 . S
C1017 C1033 1.349 . S
C1018 C1016 1.327 . S
C1018 C1037 1.429 . S
C1018 H1042 0.950 . S
C1019 C1036 1.574 . S
C1019 C1038 1.368 . S
C1019 H1043 0.949 . S
H1020 C1024 0.949 . S
C1021 C1022 1.349 . S
C1021 C1023 1.327 . S
C1021 H1044 0.950 . S
C1022 C1021 1.349 . S
C1022 C1034 1.349 1_455 S
C1023 C1021 1.327 . S
C1023 C1039 1.429 1_455 S
C1023 H1045 0.950 . S
C1024 H1020 0.949 . S
C1024 C1032 1.574 . S
C1024 C1040 1.368 . S
H1025 C1033 0.950 1_554 S
H1026 C1031 0.950 . S
H1027 C1032 0.949 . S
H1028 C1034 0.950 . S
H1029 C1035 0.950 . S
H1030 C1036 0.949 1_455 S
C1031 H1026 0.950 . S
C1031 C1033 1.327 . S
C1031 C1037 1.429 . S
C1032 C1024 1.574 . S
C1032 H1027 0.949 . S
C1032 C1038 1.368 . S
C1033 C1017 1.349 . S
C1033 H1025 0.950 1_556 S
C1033 C1031 1.327 . S
C1034 C1022 1.349 1_655 S
C1034 H1028 0.950 . S
C1034 C1035 1.327 . S
C1035 H1029 0.950 . S
C1035 C1034 1.327 . S
C1035 C1039 1.429 . S
C1036 C1019 1.574 . S
C1036 H1030 0.949 1_655 S
C1036 C1040 1.368 . S
C1037 C1018 1.429 . S
C1037 C1031 1.429 . S
C1037 C1038 1.523 . S
C1038 C1019 1.368 . S
C1038 C1032 1.368 . S
C1038 C1037 1.523 . S
C1039 C1023 1.429 1_655 S
C1039 C1035 1.429 . S
C1039 C1040 1.523 . S
C1040 C1024 1.368 . S
C1040 C1036 1.368 . S
C1040 C1039 1.523 . S
H1041 C1016 0.950 . S
H1042 C1018 0.950 . S
H1043 C1019 0.949 . S
H1044 C1021 0.950 . S
H1045 C1023 0.950 . S
C1046 C1047 1.349 . S
C1046 C1048 1.327 . S
C1046 H1071 0.950 . S
C1047 C1046 1.349 . S
C1047 C1063 1.349 . S
C1048 C1046 1.327 . S
C1048 C1067 1.429 . S
C1048 H1072 0.950 . S
C1049 C1066 1.574 1_565 S
C1049 C1068 1.368 . S
C1049 H1073 0.949 1_565 S
H1050 C1054 0.949 . S
C1051 C1052 1.349 . S
C1051 C1053 1.327 . S
C1051 H1074 0.950 . S
C1052 C1051 1.349 . S
C1052 C1064 1.349 1_545 S
C1053 C1051 1.327 . S
C1053 C1069 1.429 1_545 S
C1053 H1075 0.950 . S
C1054 H1050 0.949 . S
C1054 C1062 1.574 . S
C1054 C1070 1.368 . S
H1055 C1063 0.950 . S
H1056 C1061 0.950 . S
H1057 C1062 0.949 . S
H1058 C1064 0.950 . S
H1059 C1065 0.950 . S
H1060 C1066 0.949 . S
C1061 H1056 0.950 . S
C1061 C1063 1.327 . S
C1061 C1067 1.429 . S
C1062 C1054 1.574 . S
C1062 H1057 0.949 . S
C1062 C1068 1.368 . S
C1063 C1047 1.349 . S
C1063 H1055 0.950 . S
C1063 C1061 1.327 . S
C1064 C1052 1.349 1_565 S
C1064 H1058 0.950 . S
C1064 C1065 1.327 . S
C1065 H1059 0.950 . S
C1065 C1064 1.327 . S
C1065 C1069 1.429 . S
C1066 C1049 1.574 1_545 S
C1066 H1060 0.949 . S
C1066 C1070 1.368 1_545 S
C1067 C1048 1.429 . S
C1067 C1061 1.429 . S
C1067 C1068 1.523 . S
C1068 C1049 1.368 . S
C1068 C1062 1.368 . S
C1068 C1067 1.523 . S
C1069 C1053 1.429 1_565 S
C1069 C1065 1.429 . S
C1069 C1070 1.523 . S
C1070 C1054 1.368 . S
C1070 C1066 1.368 1_565 S
C1070 C1069 1.523 . S
H1071 C1046 0.950 . S
H1072 C1048 0.950 . S
H1073 C1049 0.949 1_545 S
H1074 C1051 0.950 . S
H1075 C1053 0.950 . S
C1076 C1077 1.349 . S
C1076 C1078 1.327 . S
C1076 H1101 0.950 . S
C1077 C1076 1.349 . S
C1077 C1093 1.349 . S
C1078 C1076 1.327 . S
C1078 C1097 1.429 . S
C1078 H1102 0.950 . S
C1079 C1096 1.574 . S
C1079 C1098 1.368 . S
C1079 H1103 0.949 . S
H1080 C1084 0.949 . S
C1081 C1082 1.349 . S
C1081 C1083 1.327 . S
C1081 H1104 0.950 . S
C1082 C1081 1.349 . S
C1082 C1094 1.349 . S
C1083 C1081 1.327 . S
C1083 C1099 1.429 . S
C1083 H1105 0.950 . S
C1084 H1080 0.949 . S
C1084 C1092 1.574 . S
C1084 C1100 1.368 . S
H1085 C1093 0.950 1_554 S
H1086 C1091 0.950 . S
H1087 C1092 0.949 . S
H1088 C1094 0.950 . S
H1089 C1095 0.950 . S
H1090 C1096 0.949 . S
C1091 H1086 0.950 . S
C1091 C1093 1.327 . S
C1091 C1097 1.429 . S
C1092 C1084 1.574 . S
C1092 H1087 0.949 . S
C1092 C1098 1.368 . S
C1093 C1077 1.349 . S
C1093 H1085 0.950 1_556 S
C1093 C1091 1.327 . S
C1094 C1082 1.349 . S
C1094 H1088 0.950 . S
C1094 C1095 1.327 . S
C1095 H1089 0.950 . S
C1095 C1094 1.327 . S
C1095 C1099 1.429 . S
C1096 C1079 1.574 . S
C1096 H1090 0.949 . S
C1096 C1100 1.368 . S
C1097 C1078 1.429 . S
C1097 C1091 1.429 . S
C1097 C1098 1.523 . S
C1098 C1079 1.368 . S
C1098 C1092 1.368 . S
C1098 C1097 1.523 . S
C1099 C1083 1.429 . S
C1099 C1095 1.429 . S
C1099 C1100 1.523 . S
C1100 C1084 1.368 . S
C1100 C1096 1.368 . S
C1100 C1099 1.523 . S
H1101 C1076 0.950 . S
H1102 C1078 0.950 . S
H1103 C1079 0.949 . S
H1104 C1081 0.950 . S
H1105 C1083 0.950 . S
C1106 C1107 1.349 . S
C1106 C1108 1.327 . S
C1106 H1131 0.950 . S
C1107 C1106 1.349 . S
C1107 C1123 1.349 . S
C1108 C1106 1.327 . S
C1108 C1127 1.429 . S
C1108 H1132 0.950 . S
C1109 C1126 1.574 . S
C1109 C1128 1.368 . S
C1109 H1133 0.949 . S
H1110 C1114 0.949 . S
C1111 C1112 1.349 . S
C1111 C1113 1.327 . S
C1111 H1134 0.950 . S
C1112 C1111 1.349 . S
C1112 C1124 1.349 . S
C1113 C1111 1.327 . S
C1113 C1129 1.429 . S
C1113 H1135 0.950 . S
C1114 H1110 0.949 . S
C1114 C1122 1.574 . S
C1114 C1130 1.368 . S
H1115 C1123 0.950 . S
H1116 C1121 0.950 . S
H1117 C1122 0.949 . S
H1118 C1124 0.950 . S
H1119 C1125 0.950 . S
H1120 C1126 0.949 . S
C1121 H1116 0.950 . S
C1121 C1123 1.327 . S
C1121 C1127 1.429 . S
C1122 C1114 1.574 . S
C1122 H1117 0.949 . S
C1122 C1128 1.368 . S
C1123 C1107 1.349 . S
C1123 H1115 0.950 . S
C1123 C1121 1.327 . S
C1124 C1112 1.349 . S
C1124 H1118 0.950 . S
C1124 C1125 1.327 . S
C1125 H1119 0.950 . S
C1125 C1124 1.327 . S
C1125 C1129 1.429 . S
C1126 C1109 1.574 . S
C1126 H1120 0.949 . S
C1126 C1130 1.368 . S
C1127 C1108 1.429 . S
C1127 C1121 1.429 . S
C1127 C1128 1.523 . S
C1128 C1109 1.368 . S
C1128 C1122 1.368 . S
C1128 C1127 1.523 . S
C1129 C1113 1.429 . S
C1129 C1125 1.429 . S
C1129 C1130 1.523 . S
C1130 C1114 1.368 . S
C1130 C1126 1.368 . S
C1130 C1129 1.523 . S
H1131 C1106 0.950 . S
H1132 C1108 0.950 . S
H1133 C1109 0.949 . S
H1134 C1111 0.950 . S
H1135 C1113 0.950 . S
C1136 C1137 1.349 . S
C1136 C1138 1.327 . S
C1136 H1161 0.950 . S
C1137 C1136 1.349 . S
C1137 C1153 1.349 . S
C1138 C1136 1.327 . S
C1138 C1157 1.429 . S
C1138 H1162 0.950 . S
C1139 C1156 1.574 . S
C1139 C1158 1.368 . S
C1139 H1163 0.949 . S
H1140 C1144 0.949 . S
C1141 C1142 1.349 . S
C1141 C1143 1.327 . S
C1141 H1164 0.950 . S
C1142 C1141 1.349 . S
C1142 C1154 1.349 . S
C1143 C1141 1.327 . S
C1143 C1159 1.429 . S
C1143 H1165 0.950 . S
C1144 H1140 0.949 . S
C1144 C1152 1.574 . S
C1144 C1160 1.368 . S
H1145 C1153 0.950 . S
H1146 C1151 0.950 . S
H1147 C1152 0.949 . S
H1148 C1154 0.950 . S
H1149 C1155 0.950 . S
H1150 C1156 0.949 . S
C1151 H1146 0.950 . S
C1151 C1153 1.327 . S
C1151 C1157 1.429 . S
C1152 C1144 1.574 . S
C1152 H1147 0.949 . S
C1152 C1158 1.368 . S
C1153 C1137 1.349 . S
C1153 H1145 0.950 . S
C1153 C1151 1.327 . S
C1154 C1142 1.349 . S
C1154 H1148 0.950 . S
C1154 C1155 1.327 . S
C1155 H1149 0.950 . S
C1155 C1154 1.327 . S
C1155 C1159 1.429 . S
C1156 C1139 1.574 . S
C1156 H1150 0.949 . S
C1156 C1160 1.368 . S
C1157 C1138 1.429 . S
C1157 C1151 1.429 . S
C1157 C1158 1.523 . S
C1158 C1139 1.368 . S
C1158 C1152 1.368 . S
C1158 C1157 1.523 . S
C1159 C1143 1.429 . S
C1159 C1155 1.429 . S
C1159 C1160 1.523 . S
C1160 C1144 1.368 . S
C1160 C1156 1.368 . S
C1160 C1159 1.523 . S
H1161 C1136 0.950 . S
H1162 C1138 0.950 . S
H1163 C1139 0.949 . S
H1164 C1141 0.950 . S
H1165 C1143 0.950 . S
C1166 C1167 1.349 . S
C1166 C1168 1.327 . S
C1166 H1191 0.950 . S
C1167 C1166 1.349 . S
C1167 C1183 1.349 . S
C1168 C1166 1.327 . S
C1168 C1187 1.429 . S
C1168 H1192 0.950 . S
C1169 C1186 1.574 . S
C1169 C1188 1.368 . S
C1169 H1193 0.949 . S
H1170 C1174 0.949 . S
C1171 C1172 1.349 . S
C1171 C1173 1.327 . S
C1171 H1194 0.950 . S
C1172 C1171 1.349 . S
C1172 C1184 1.349 . S
C1173 C1171 1.327 . S
C1173 C1189 1.429 . S
C1173 H1195 0.950 . S
C1174 H1170 0.949 . S
C1174 C1182 1.574 . S
C1174 C1190 1.368 . S
H1175 C1183 0.950 . S
H1176 C1181 0.950 . S
H1177 C1182 0.949 . S
H1178 C1184 0.950 1_565 S
H1179 C1185 0.950 . S
H1180 C1186 0.949 . S
C1181 H1176 0.950 . S
C1181 C1183 1.327 . S
C1181 C1187 1.429 . S
C1182 C1174 1.574 . S
C1182 H1177 0.949 . S
C1182 C1188 1.368 . S
C1183 C1167 1.349 . S
C1183 H1175 0.950 . S
C1183 C1181 1.327 . S
C1184 C1172 1.349 . S
C1184 H1178 0.950 1_545 S
C1184 C1185 1.327 . S
C1185 H1179 0.950 . S
C1185 C1184 1.327 . S
C1185 C1189 1.429 . S
C1186 C1169 1.574 . S
C1186 H1180 0.949 . S
C1186 C1190 1.368 . S
C1187 C1168 1.429 . S
C1187 C1181 1.429 . S
C1187 C1188 1.523 . S
C1188 C1169 1.368 . S
C1188 C1182 1.368 . S
C1188 C1187 1.523 . S
C1189 C1173 1.429 . S
C1189 C1185 1.429 . S
C1189 C1190 1.523 . S
C1190 C1174 1.368 . S
C1190 C1186 1.368 . S
C1190 C1189 1.523 . S
H1191 C1166 0.950 . S
H1192 C1168 0.950 . S
H1193 C1169 0.949 . S
H1194 C1171 0.950 . S
H1195 C1173 0.950 . S
C1196 C1197 1.349 . S
C1196 C1198 1.327 . S
C1196 H1221 0.950 . S
C1197 C1196 1.349 . S
C1197 C1213 1.349 . S
C1198 C1196 1.327 . S
C1198 C1217 1.429 . S
C1198 H1222 0.950 . S
C1199 C1216 1.574 . S
C1199 C1218 1.368 . S
C1199 H1223 0.949 . S
H1200 C1204 0.949 . S
C1201 C1202 1.349 . S
C1201 C1203 1.327 . S
C1201 H1224 0.950 . S
C1202 C1201 1.349 . S
C1202 C1214 1.349 . S
C1203 C1201 1.327 . S
C1203 C1219 1.429 . S
C1203 H1225 0.950 . S
C1204 H1200 0.949 . S
C1204 C1212 1.574 . S
C1204 C1220 1.368 . S
H1205 C1213 0.950 . S
H1206 C1211 0.950 . S
H1207 C1212 0.949 . S
H1208 C1214 0.950 . S
H1209 C1215 0.950 . S
H1210 C1216 0.949 . S
C1211 H1206 0.950 . S
C1211 C1213 1.327 . S
C1211 C1217 1.429 . S
C1212 C1204 1.574 . S
C1212 H1207 0.949 . S
C1212 C1218 1.368 . S
C1213 C1197 1.349 . S
C1213 H1205 0.950 . S
C1213 C1211 1.327 . S
C1214 C1202 1.349 . S
C1214 H1208 0.950 . S
C1214 C1215 1.327 . S
C1215 H1209 0.950 . S
C1215 C1214 1.327 . S
C1215 C1219 1.429 . S
C1216 C1199 1.574 . S
C1216 H1210 0.949 . S
C1216 C1220 1.368 . S
C1217 C1198 1.429 . S
C1217 C1211 1.429 . S
C1217 C1218 1.523 . S
C1218 C1199 1.368 . S
C1218 C1212 1.368 . S
C1218 C1217 1.523 . S
C1219 C1203 1.429 . S
C1219 C1215 1.429 . S
C1219 C1220 1.523 . S
C1220 C1204 1.368 . S
C1220 C1216 1.368 . S
C1220 C1219 1.523 . S
H1221 C1196 0.950 . S
H1222 C1198 0.950 . S
H1223 C1199 0.949 . S
H1224 C1201 0.950 . S
H1225 C1203 0.950 . S
C1226 C1227 1.349 . S
C1226 C1228 1.327 . S
C1226 H1251 0.950 . S
C1227 C1226 1.349 . S
C1227 C1243 1.349 . S
C1228 C1226 1.327 . S
C1228 C1247 1.429 . S
C1228 H1252 0.950 . S
C1229 C1246 1.574 . S
C1229 C1248 1.368 . S
C1229 H1253 0.949 . S
H1230 C1234 0.949 . S
C1231 C1232 1.349 . S
C1231 C1233 1.327 . S
C1231 H1254 0.950 . S
C1232 C1231 1.349 . S
C1232 C1244 1.349 . S
C1233 C1231 1.327 . S
C1233 C1249 1.429 . S
C1233 H1255 0.950 . S
C1234 H1230 0.949 . S
C1234 C1242 1.574 . S
C1234 C1250 1.368 . S
H1235 C1243 0.950 . S
H1236 C1241 0.950 . S
H1237 C1242 0.949 . S
H1238 C1244 0.950 . S
H1239 C1245 0.950 . S
H1240 C1246 0.949 . S
C1241 H1236 0.950 . S
C1241 C1243 1.327 . S
C1241 C1247 1.429 . S
C1242 C1234 1.574 . S
C1242 H1237 0.949 . S
C1242 C1248 1.368 . S
C1243 C1227 1.349 . S
C1243 H1235 0.950 . S
C1243 C1241 1.327 . S
C1244 C1232 1.349 . S
C1244 H1238 0.950 . S
C1244 C1245 1.327 . S
C1245 H1239 0.950 . S
C1245 C1244 1.327 . S
C1245 C1249 1.429 . S
C1246 C1229 1.574 . S
C1246 H1240 0.949 . S
C1246 C1250 1.368 . S
C1247 C1228 1.429 . S
C1247 C1241 1.429 . S
C1247 C1248 1.523 . S
C1248 C1229 1.368 . S
C1248 C1242 1.368 . S
C1248 C1247 1.523 . S
C1249 C1233 1.429 . S
C1249 C1245 1.429 . S
C1249 C1250 1.523 . S
C1250 C1234 1.368 . S
C1250 C1246 1.368 . S
C1250 C1249 1.523 . S
H1251 C1226 0.950 . S
H1252 C1228 0.950 . S
H1253 C1229 0.949 . S
H1254 C1231 0.950 . S
H1255 C1233 0.950 . S
C1256 C1257 1.349 . S
C1256 C1258 1.327 . S
C1256 H1281 0.950 . S
C1257 C1256 1.349 . S
C1257 C1273 1.349 . S
C1258 C1256 1.327 . S
C1258 C1277 1.429 . S
C1258 H1282 0.950 . S
C1259 C1276 1.574 . S
C1259 C1278 1.368 . S
C1259 H1283 0.949 . S
H1260 C1264 0.949 . S
C1261 C1262 1.349 . S
C1261 C1263 1.327 . S
C1261 H1284 0.942 1_655 S
C1262 C1261 1.349 . S
C1262 C1274 1.349 . S
C1263 C1261 1.327 . S
C1263 C1279 1.429 . S
C1263 H1285 0.950 . S
C1264 H1260 0.949 . S
C1264 C1272 1.574 . S
C1264 C1280 1.368 . S
H1265 C1273 0.950 . S
H1266 C1271 0.950 . S
H1267 C1272 0.949 . S
H1268 C1274 0.950 . S
H1269 C1275 0.950 . S
H1270 C1276 0.949 . S
C1271 H1266 0.950 . S
C1271 C1273 1.327 . S
C1271 C1277 1.429 . S
C1272 C1264 1.574 . S
C1272 H1267 0.949 . S
C1272 C1278 1.368 . S
C1273 C1257 1.349 . S
C1273 H1265 0.950 . S
C1273 C1271 1.327 . S
C1274 C1262 1.349 . S
C1274 H1268 0.950 . S
C1274 C1275 1.327 . S
C1275 H1269 0.950 . S
C1275 C1274 1.327 . S
C1275 C1279 1.429 . S
C1276 C1259 1.574 . S
C1276 H1270 0.949 . S
C1276 C1280 1.368 . S
C1277 C1258 1.429 . S
C1277 C1271 1.429 . S
C1277 C1278 1.523 . S
C1278 C1259 1.368 . S
C1278 C1272 1.368 . S
C1278 C1277 1.523 . S
C1279 C1263 1.429 . S
C1279 C1275 1.429 . S
C1279 C1280 1.523 . S
C1280 C1264 1.368 . S
C1280 C1276 1.368 . S
C1280 C1279 1.523 . S
H1281 C1256 0.950 . S
H1282 C1258 0.950 . S
H1283 C1259 0.949 . S
H1284 C1261 0.942 1_455 S
H1285 C1263 0.950 . S
C1286 C1287 1.349 . S
C1286 C1288 1.327 . S
C1286 H1311 0.950 . S
C1287 C1286 1.349 . S
C1287 C1303 1.349 . S
C1288 C1286 1.327 . S
C1288 C1307 1.429 . S
C1288 H1312 0.950 . S
C1289 C1306 1.574 . S
C1289 C1308 1.368 . S
C1289 H1313 0.949 . S
H1290 C1294 0.949 . S
C1291 C1292 1.349 . S
C1291 C1293 1.327 . S
C1291 H1314 0.950 . S
C1292 C1291 1.349 . S
C1292 C1304 1.349 . S
C1293 C1291 1.327 . S
C1293 C1309 1.429 . S
C1293 H1315 0.950 . S
C1294 H1290 0.949 . S
C1294 C1302 1.574 . S
C1294 C1310 1.368 . S
H1295 C1303 0.950 . S
H1296 C1301 0.950 . S
H1297 C1302 0.949 . S
H1298 C1304 0.950 1_545 S
H1299 C1305 0.950 . S
H1300 C1306 0.949 . S
C1301 H1296 0.950 . S
C1301 C1303 1.327 . S
C1301 C1307 1.429 . S
C1302 C1294 1.574 . S
C1302 H1297 0.949 . S
C1302 C1308 1.368 . S
C1303 C1287 1.349 . S
C1303 H1295 0.950 . S
C1303 C1301 1.327 . S
C1304 C1292 1.349 . S
C1304 H1298 0.950 1_565 S
C1304 C1305 1.327 . S
C1305 H1299 0.950 . S
C1305 C1304 1.327 . S
C1305 C1309 1.429 . S
C1306 C1289 1.574 . S
C1306 H1300 0.949 . S
C1306 C1310 1.368 . S
C1307 C1288 1.429 . S
C1307 C1301 1.429 . S
C1307 C1308 1.523 . S
C1308 C1289 1.368 . S
C1308 C1302 1.368 . S
C1308 C1307 1.523 . S
C1309 C1293 1.429 . S
C1309 C1305 1.429 . S
C1309 C1310 1.523 . S
C1310 C1294 1.368 . S
C1310 C1306 1.368 . S
C1310 C1309 1.523 . S
H1311 C1286 0.950 . S
H1312 C1288 0.950 . S
H1313 C1289 0.949 . S
H1314 C1291 0.950 . S
H1315 C1293 0.950 . S
C1316 C1317 1.349 . S
C1316 C1318 1.327 . S
C1316 H1341 0.950 . S
C1317 C1316 1.349 . S
C1317 C1333 1.349 . S
C1318 C1316 1.327 . S
C1318 C1337 1.429 . S
C1318 H1342 0.950 . S
C1319 C1336 1.574 . S
C1319 C1338 1.368 . S
C1319 H1343 0.949 . S
H1320 C1324 0.949 . S
C1321 C1322 1.349 . S
C1321 C1323 1.327 . S
C1321 H1344 0.950 . S
C1322 C1321 1.349 . S
C1322 C1334 1.349 . S
C1323 C1321 1.327 . S
C1323 C1339 1.429 . S
C1323 H1345 0.950 . S
C1324 H1320 0.949 . S
C1324 C1332 1.574 . S
C1324 C1340 1.368 . S
H1325 C1333 0.950 . S
H1326 C1331 0.950 . S
H1327 C1332 0.949 . S
H1328 C1334 0.950 . S
H1329 C1335 0.950 . S
H1330 C1336 0.949 . S
C1331 H1326 0.950 . S
C1331 C1333 1.327 . S
C1331 C1337 1.429 . S
C1332 C1324 1.574 . S
C1332 H1327 0.949 . S
C1332 C1338 1.368 . S
C1333 C1317 1.349 . S
C1333 H1325 0.950 . S
C1333 C1331 1.327 . S
C1334 C1322 1.349 . S
C1334 H1328 0.950 . S
C1334 C1335 1.327 . S
C1335 H1329 0.950 . S
C1335 C1334 1.327 . S
C1335 C1339 1.429 . S
C1336 C1319 1.574 . S
C1336 H1330 0.949 . S
C1336 C1340 1.368 . S
C1337 C1318 1.429 . S
C1337 C1331 1.429 . S
C1337 C1338 1.523 . S
C1338 C1319 1.368 . S
C1338 C1332 1.368 . S
C1338 C1337 1.523 . S
C1339 C1323 1.429 . S
C1339 C1335 1.429 . S
C1339 C1340 1.523 . S
C1340 C1324 1.368 . S
C1340 C1336 1.368 . S
C1340 C1339 1.523 . S
H1341 C1316 0.950 . S
H1342 C1318 0.950 . S
H1343 C1319 0.949 . S
H1344 C1321 0.950 . S
H1345 C1323 0.950 . S
C1346 C1347 1.349 . S
C1346 C1348 1.327 . S
C1346 H1371 0.950 . S
C1347 C1346 1.349 . S
C1347 C1363 1.349 . S
C1348 C1346 1.327 . S
C1348 C1367 1.429 . S
C1348 H1372 0.950 . S
C1349 C1366 1.574 . S
C1349 C1368 1.368 . S
C1349 H1373 0.949 . S
H1350 C1354 0.949 . S
C1351 C1352 1.349 . S
C1351 C1353 1.327 . S
C1351 H1374 0.950 . S
C1352 C1351 1.349 . S
C1352 C1364 1.349 . S
C1353 C1351 1.327 . S
C1353 C1369 1.429 . S
C1353 H1375 0.950 . S
C1354 H1350 0.949 . S
C1354 C1362 1.574 . S
C1354 C1370 1.368 . S
H1355 C1363 0.950 . S
H1356 C1361 0.950 . S
H1357 C1362 0.949 . S
H1358 C1364 0.950 . S
H1359 C1365 0.950 . S
H1360 C1366 0.949 . S
C1361 H1356 0.950 . S
C1361 C1363 1.327 . S
C1361 C1367 1.429 . S
C1362 C1354 1.574 . S
C1362 H1357 0.949 . S
C1362 C1368 1.368 . S
C1363 C1347 1.349 . S
C1363 H1355 0.950 . S
C1363 C1361 1.327 . S
C1364 C1352 1.349 . S
C1364 H1358 0.950 . S
C1364 C1365 1.327 . S
C1365 H1359 0.950 . S
C1365 C1364 1.327 . S
C1365 C1369 1.429 . S
C1366 C1349 1.574 . S
C1366 H1360 0.949 . S
C1366 C1370 1.368 . S
C1367 C1348 1.429 . S
C1367 C1361 1.429 . S
C1367 C1368 1.523 . S
C1368 C1349 1.368 . S
C1368 C1362 1.368 . S
C1368 C1367 1.523 . S
C1369 C1353 1.429 . S
C1369 C1365 1.429 . S
C1369 C1370 1.523 . S
C1370 C1354 1.368 . S
C1370 C1366 1.368 . S
C1370 C1369 1.523 . S
H1371 C1346 0.950 . S
H1372 C1348 0.950 . S
H1373 C1349 0.949 . S
H1374 C1351 0.950 . S
H1375 C1353 0.950 . S
C657 C255 2.183 . S
C662 C383 2.298 . S
C692 C460 2.313 . S
C687 C295 2.196 . S
C722 C551 2.291 . S
C717 C175 2.174 . S
C752 C635 2.276 . S
C747 C215 2.161 . S
C782 C394 2.298 1_565 S
C777 C95 2.177 . S
C807 C135 2.191 . S
C812 C471 2.314 . S
C837 C15 2.170 . S
C842 C562 2.291 . S
C867 C55 2.155 . S
C872 C646 2.275 1_655 S
C902 C378 0.431 1_455 S
C897 C221 0.285 . S
C932 C473 0.516 . S
C927 C261 0.259 . S
C962 C546 0.430 . S
C957 C301 0.292 . S
C987 C181 0.269 . S
C992 C630 0.425 . S
C1017 C61 0.444 . S
C1022 C389 0.431 . S
C1052 C462 0.516 . S
C1047 C101 0.441 . S
C1082 C557 0.429 . S
C1077 C141 0.451 . S
C1107 C21 0.439 . S
C1112 C641 0.425 . S
C1137 C202 2.686 . S
C1142 C387 2.862 . S
C1167 C242 2.681 . S
C1172 C478 2.891 . S
C1202 C555 2.886 . S
C1197 C282 2.708 . S
C1232 C639 2.887 . S
C1227 C162 2.709 . S
C1257 C42 2.641 . S
C1262 C376 2.861 . S
C1292 C467 2.891 1_565 S
C1287 C82 2.636 . S
C1322 C544 2.887 . S
C1317 C122 2.663 . S
C1347 C2 2.667 . S
C1352 C628 2.887 . S
