# Generated by pormake.
# Topology gar, (4,6)-cn, num edge types: 1
# Building blocks:
#     Node 0, Type 0, BuildingBlock: KUFVIS_clean_sbu_0, # of connection points: 4
#     Node 1, Type 0, BuildingBlock: KUFVIS_clean_sbu_0, # of connection points: 4
#     Node 2, Type 0, BuildingBlock: KUFVIS_clean_sbu_0, # of connection points: 4
#     Node 3, Type 0, BuildingBlock: KUFVIS_clean_sbu_0, # of connection points: 4
#     Node 4, Type 0, BuildingBlock: KUFVIS_clean_sbu_0, # of connection points: 4
#     Node 5, Type 0, BuildingBlock: KUFVIS_clean_sbu_0, # of connection points: 4
#     Node 6, Type 0, BuildingBlock: KUFVIS_clean_sbu_0, # of connection points: 4
#     Node 7, Type 0, BuildingBlock: KUFVIS_clean_sbu_0, # of connection points: 4
#     Node 8, Type 0, BuildingBlock: KUFVIS_clean_sbu_0, # of connection points: 4
#     Node 9, Type 0, BuildingBlock: KUFVIS_clean_sbu_0, # of connection points: 4
#     Node 10, Type 0, BuildingBlock: KUFVIS_clean_sbu_0, # of connection points: 4
#     Node 11, Type 0, BuildingBlock: KUFVIS_clean_sbu_0, # of connection points: 4
#     Node 12, Type 0, BuildingBlock: KUFVIS_clean_sbu_0, # of connection points: 4
#     Node 13, Type 0, BuildingBlock: KUFVIS_clean_sbu_0, # of connection points: 4
#     Node 14, Type 0, BuildingBlock: KUFVIS_clean_sbu_0, # of connection points: 4
#     Node 15, Type 0, BuildingBlock: KUFVIS_clean_sbu_0, # of connection points: 4
#     Node 16, Type 0, BuildingBlock: KUFVIS_clean_sbu_0, # of connection points: 4
#     Node 17, Type 0, BuildingBlock: KUFVIS_clean_sbu_0, # of connection points: 4
#     Node 18, Type 0, BuildingBlock: KUFVIS_clean_sbu_0, # of connection points: 4
#     Node 19, Type 0, BuildingBlock: KUFVIS_clean_sbu_0, # of connection points: 4
#     Node 20, Type 0, BuildingBlock: KUFVIS_clean_sbu_0, # of connection points: 4
#     Node 21, Type 0, BuildingBlock: KUFVIS_clean_sbu_0, # of connection points: 4
#     Node 22, Type 0, BuildingBlock: KUFVIS_clean_sbu_0, # of connection points: 4
#     Node 23, Type 0, BuildingBlock: KUFVIS_clean_sbu_0, # of connection points: 4
#     Node 24, Type 1, BuildingBlock: KUMBOL_clean_sbu_0, # of connection points: 6
#     Node 25, Type 1, BuildingBlock: KUMBOL_clean_sbu_0, # of connection points: 6
#     Node 26, Type 1, BuildingBlock: KUMBOL_clean_sbu_0, # of connection points: 6
#     Node 27, Type 1, BuildingBlock: KUMBOL_clean_sbu_0, # of connection points: 6
#     Node 28, Type 1, BuildingBlock: KUMBOL_clean_sbu_0, # of connection points: 6
#     Node 29, Type 1, BuildingBlock: KUMBOL_clean_sbu_0, # of connection points: 6
#     Node 30, Type 1, BuildingBlock: KUMBOL_clean_sbu_0, # of connection points: 6
#     Node 31, Type 1, BuildingBlock: KUMBOL_clean_sbu_0, # of connection points: 6
#     Node 32, Type 1, BuildingBlock: KUMBOL_clean_sbu_0, # of connection points: 6
#     Node 33, Type 1, BuildingBlock: KUMBOL_clean_sbu_0, # of connection points: 6
#     Node 34, Type 1, BuildingBlock: KUMBOL_clean_sbu_0, # of connection points: 6
#     Node 35, Type 1, BuildingBlock: KUMBOL_clean_sbu_0, # of connection points: 6
#     Node 36, Type 1, BuildingBlock: KUMBOL_clean_sbu_0, # of connection points: 6
#     Node 37, Type 1, BuildingBlock: KUMBOL_clean_sbu_0, # of connection points: 6
#     Node 38, Type 1, BuildingBlock: KUMBOL_clean_sbu_0, # of connection points: 6
#     Node 39, Type 1, BuildingBlock: KUMBOL_clean_sbu_0, # of connection points: 6
#     Edge 40, Type (0, 1), BuildingBlock: KIFKEQ_clean_linker_1, # of connection points: 2
#     Edge 41, Type (0, 1), BuildingBlock: KIFKEQ_clean_linker_1, # of connection points: 2
#     Edge 42, Type (0, 1), BuildingBlock: KIFKEQ_clean_linker_1, # of connection points: 2
#     Edge 43, Type (0, 1), BuildingBlock: KIFKEQ_clean_linker_1, # of connection points: 2
#     Edge 44, Type (0, 1), BuildingBlock: KIFKEQ_clean_linker_1, # of connection points: 2
#     Edge 45, Type (0, 1), BuildingBlock: KIFKEQ_clean_linker_1, # of connection points: 2
#     Edge 46, Type (0, 1), BuildingBlock: KIFKEQ_clean_linker_1, # of connection points: 2
#     Edge 47, Type (0, 1), BuildingBlock: KIFKEQ_clean_linker_1, # of connection points: 2
#     Edge 48, Type (0, 1), BuildingBlock: KIFKEQ_clean_linker_1, # of connection points: 2
#     Edge 49, Type (0, 1), BuildingBlock: KIFKEQ_clean_linker_1, # of connection points: 2
#     Edge 50, Type (0, 1), BuildingBlock: KIFKEQ_clean_linker_1, # of connection points: 2
#     Edge 51, Type (0, 1), BuildingBlock: KIFKEQ_clean_linker_1, # of connection points: 2
#     Edge 52, Type (0, 1), BuildingBlock: KIFKEQ_clean_linker_1, # of connection points: 2
#     Edge 53, Type (0, 1), BuildingBlock: KIFKEQ_clean_linker_1, # of connection points: 2
#     Edge 54, Type (0, 1), BuildingBlock: KIFKEQ_clean_linker_1, # of connection points: 2
#     Edge 55, Type (0, 1), BuildingBlock: KIFKEQ_clean_linker_1, # of connection points: 2
#     Edge 56, Type (0, 1), BuildingBlock: KIFKEQ_clean_linker_1, # of connection points: 2
#     Edge 57, Type (0, 1), BuildingBlock: KIFKEQ_clean_linker_1, # of connection points: 2
#     Edge 58, Type (0, 1), BuildingBlock: KIFKEQ_clean_linker_1, # of connection points: 2
#     Edge 59, Type (0, 1), BuildingBlock: KIFKEQ_clean_linker_1, # of connection points: 2
#     Edge 60, Type (0, 1), BuildingBlock: KIFKEQ_clean_linker_1, # of connection points: 2
#     Edge 61, Type (0, 1), BuildingBlock: KIFKEQ_clean_linker_1, # of connection points: 2
#     Edge 62, Type (0, 1), BuildingBlock: KIFKEQ_clean_linker_1, # of connection points: 2
#     Edge 63, Type (0, 1), BuildingBlock: KIFKEQ_clean_linker_1, # of connection points: 2
#     Edge 64, Type (0, 1), BuildingBlock: KIFKEQ_clean_linker_1, # of connection points: 2
#     Edge 65, Type (0, 1), BuildingBlock: KIFKEQ_clean_linker_1, # of connection points: 2
#     Edge 66, Type (0, 1), BuildingBlock: KIFKEQ_clean_linker_1, # of connection points: 2
#     Edge 67, Type (0, 1), BuildingBlock: KIFKEQ_clean_linker_1, # of connection points: 2
#     Edge 68, Type (0, 1), BuildingBlock: KIFKEQ_clean_linker_1, # of connection points: 2
#     Edge 69, Type (0, 1), BuildingBlock: KIFKEQ_clean_linker_1, # of connection points: 2
#     Edge 70, Type (0, 1), BuildingBlock: KIFKEQ_clean_linker_1, # of connection points: 2
#     Edge 71, Type (0, 1), BuildingBlock: KIFKEQ_clean_linker_1, # of connection points: 2
#     Edge 72, Type (0, 1), BuildingBlock: KIFKEQ_clean_linker_1, # of connection points: 2
#     Edge 73, Type (0, 1), BuildingBlock: KIFKEQ_clean_linker_1, # of connection points: 2
#     Edge 74, Type (0, 1), BuildingBlock: KIFKEQ_clean_linker_1, # of connection points: 2
#     Edge 75, Type (0, 1), BuildingBlock: KIFKEQ_clean_linker_1, # of connection points: 2
#     Edge 76, Type (0, 1), BuildingBlock: KIFKEQ_clean_linker_1, # of connection points: 2
#     Edge 77, Type (0, 1), BuildingBlock: KIFKEQ_clean_linker_1, # of connection points: 2
#     Edge 78, Type (0, 1), BuildingBlock: KIFKEQ_clean_linker_1, # of connection points: 2
#     Edge 79, Type (0, 1), BuildingBlock: KIFKEQ_clean_linker_1, # of connection points: 2
#     Edge 80, Type (0, 1), BuildingBlock: KIFKEQ_clean_linker_1, # of connection points: 2
#     Edge 81, Type (0, 1), BuildingBlock: KIFKEQ_clean_linker_1, # of connection points: 2
#     Edge 82, Type (0, 1), BuildingBlock: KIFKEQ_clean_linker_1, # of connection points: 2
#     Edge 83, Type (0, 1), BuildingBlock: KIFKEQ_clean_linker_1, # of connection points: 2
#     Edge 84, Type (0, 1), BuildingBlock: KIFKEQ_clean_linker_1, # of connection points: 2
#     Edge 85, Type (0, 1), BuildingBlock: KIFKEQ_clean_linker_1, # of connection points: 2
#     Edge 86, Type (0, 1), BuildingBlock: KIFKEQ_clean_linker_1, # of connection points: 2
#     Edge 87, Type (0, 1), BuildingBlock: KIFKEQ_clean_linker_1, # of connection points: 2
#     Edge 88, Type (0, 1), BuildingBlock: KIFKEQ_clean_linker_1, # of connection points: 2
#     Edge 89, Type (0, 1), BuildingBlock: KIFKEQ_clean_linker_1, # of connection points: 2
#     Edge 90, Type (0, 1), BuildingBlock: KIFKEQ_clean_linker_1, # of connection points: 2
#     Edge 91, Type (0, 1), BuildingBlock: KIFKEQ_clean_linker_1, # of connection points: 2
#     Edge 92, Type (0, 1), BuildingBlock: KIFKEQ_clean_linker_1, # of connection points: 2
#     Edge 93, Type (0, 1), BuildingBlock: KIFKEQ_clean_linker_1, # of connection points: 2
#     Edge 94, Type (0, 1), BuildingBlock: KIFKEQ_clean_linker_1, # of connection points: 2
#     Edge 95, Type (0, 1), BuildingBlock: KIFKEQ_clean_linker_1, # of connection points: 2
#     Edge 96, Type (0, 1), BuildingBlock: KIFKEQ_clean_linker_1, # of connection points: 2
#     Edge 97, Type (0, 1), BuildingBlock: KIFKEQ_clean_linker_1, # of connection points: 2
#     Edge 98, Type (0, 1), BuildingBlock: KIFKEQ_clean_linker_1, # of connection points: 2
#     Edge 99, Type (0, 1), BuildingBlock: KIFKEQ_clean_linker_1, # of connection points: 2
#     Edge 100, Type (0, 1), BuildingBlock: KIFKEQ_clean_linker_1, # of connection points: 2
#     Edge 101, Type (0, 1), BuildingBlock: KIFKEQ_clean_linker_1, # of connection points: 2
#     Edge 102, Type (0, 1), BuildingBlock: KIFKEQ_clean_linker_1, # of connection points: 2
#     Edge 103, Type (0, 1), BuildingBlock: KIFKEQ_clean_linker_1, # of connection points: 2
#     Edge 104, Type (0, 1), BuildingBlock: KIFKEQ_clean_linker_1, # of connection points: 2
#     Edge 105, Type (0, 1), BuildingBlock: KIFKEQ_clean_linker_1, # of connection points: 2
#     Edge 106, Type (0, 1), BuildingBlock: KIFKEQ_clean_linker_1, # of connection points: 2
#     Edge 107, Type (0, 1), BuildingBlock: KIFKEQ_clean_linker_1, # of connection points: 2
#     Edge 108, Type (0, 1), BuildingBlock: KIFKEQ_clean_linker_1, # of connection points: 2
#     Edge 109, Type (0, 1), BuildingBlock: KIFKEQ_clean_linker_1, # of connection points: 2
#     Edge 110, Type (0, 1), BuildingBlock: KIFKEQ_clean_linker_1, # of connection points: 2
#     Edge 111, Type (0, 1), BuildingBlock: KIFKEQ_clean_linker_1, # of connection points: 2
#     Edge 112, Type (0, 1), BuildingBlock: KIFKEQ_clean_linker_1, # of connection points: 2
#     Edge 113, Type (0, 1), BuildingBlock: KIFKEQ_clean_linker_1, # of connection points: 2
#     Edge 114, Type (0, 1), BuildingBlock: KIFKEQ_clean_linker_1, # of connection points: 2
#     Edge 115, Type (0, 1), BuildingBlock: KIFKEQ_clean_linker_1, # of connection points: 2
#     Edge 116, Type (0, 1), BuildingBlock: KIFKEQ_clean_linker_1, # of connection points: 2
#     Edge 117, Type (0, 1), BuildingBlock: KIFKEQ_clean_linker_1, # of connection points: 2
#     Edge 118, Type (0, 1), BuildingBlock: KIFKEQ_clean_linker_1, # of connection points: 2
#     Edge 119, Type (0, 1), BuildingBlock: KIFKEQ_clean_linker_1, # of connection points: 2
#     Edge 120, Type (0, 1), BuildingBlock: KIFKEQ_clean_linker_1, # of connection points: 2
#     Edge 121, Type (0, 1), BuildingBlock: KIFKEQ_clean_linker_1, # of connection points: 2
#     Edge 122, Type (0, 1), BuildingBlock: KIFKEQ_clean_linker_1, # of connection points: 2
#     Edge 123, Type (0, 1), BuildingBlock: KIFKEQ_clean_linker_1, # of connection points: 2
#     Edge 124, Type (0, 1), BuildingBlock: KIFKEQ_clean_linker_1, # of connection points: 2
#     Edge 125, Type (0, 1), BuildingBlock: KIFKEQ_clean_linker_1, # of connection points: 2
#     Edge 126, Type (0, 1), BuildingBlock: KIFKEQ_clean_linker_1, # of connection points: 2
#     Edge 127, Type (0, 1), BuildingBlock: KIFKEQ_clean_linker_1, # of connection points: 2
#     Edge 128, Type (0, 1), BuildingBlock: KIFKEQ_clean_linker_1, # of connection points: 2
#     Edge 129, Type (0, 1), BuildingBlock: KIFKEQ_clean_linker_1, # of connection points: 2
#     Edge 130, Type (0, 1), BuildingBlock: KIFKEQ_clean_linker_1, # of connection points: 2
#     Edge 131, Type (0, 1), BuildingBlock: KIFKEQ_clean_linker_1, # of connection points: 2
#     Edge 132, Type (0, 1), BuildingBlock: KIFKEQ_clean_linker_1, # of connection points: 2
#     Edge 133, Type (0, 1), BuildingBlock: KIFKEQ_clean_linker_1, # of connection points: 2
#     Edge 134, Type (0, 1), BuildingBlock: KIFKEQ_clean_linker_1, # of connection points: 2
#     Edge 135, Type (0, 1), BuildingBlock: KIFKEQ_clean_linker_1, # of connection points: 2
# Relax obj value: 0.121
# Max RMSD: 0.328
# Mean RMSD: 0.149
data_MOF--net-gar--node1-KUFVIS_clean_sbu_0--node2-KUMBOL_clean_sbu_0--edge1-KIFKEQ_clean_linker_1
_symmetry_space_group_name_H-M    P1
_symmetry_Int_Tables_number       1
_symmetry_cell_setting            triclinic
loop_
_symmetry_equiv_pos_as_xyz
'x, y, z'
_cell_length_a     61.25998
_cell_length_b     56.702543
_cell_length_c     58.051606
_cell_angle_alpha  100.11524
_cell_angle_beta   93.42689
_cell_angle_gamma 102.32026
loop_
_atom_site_label
_atom_site_type_symbol
_atom_site_fract_x
_atom_site_fract_y
_atom_site_fract_z
_atom_type_partial_charge
Mn0 Mn 0.1159 0.33135 0.39763 0.0
Mn1 Mn 0.10967 0.3604 0.35242 0.0
C2 C 0.08141 0.33809 0.38665 0.0
C3 C 0.11593 0.29695 0.41377 0.0
C4 C 0.1297 0.38711 0.401 0.0
O5 O 0.14375 0.32852 0.38121 0.0
O6 O 0.13796 0.34908 0.35238 0.0
C7 C 0.10397 0.31697 0.31404 0.0
N8 N 0.09638 0.33646 0.32507 0.0
C9 C 0.06484 0.328 0.29574 0.0
C10 C 0.07236 0.30788 0.28398 0.0
C11 C 0.09195 0.30228 0.29324 0.0
C12 C 0.0774 0.34181 0.3165 0.0
H13 H 0.1191 0.31273 0.32104 0.0
C14 C 0.14962 0.33754 0.36332 0.0
O15 O 0.1272 0.31858 0.42434 0.0
O16 O 0.10552 0.29505 0.39313 0.0
N17 N 0.08312 0.37274 0.34984 0.0
C18 C 0.07796 0.39251 0.36356 0.0
C19 C 0.05913 0.40089 0.35653 0.0
C20 C 0.04596 0.38906 0.33536 0.0
C21 C 0.0515 0.36866 0.32163 0.0
C22 C 0.07062 0.36133 0.32939 0.0
H23 H 0.08819 0.40188 0.37968 0.0
O24 O 0.08606 0.33473 0.40775 0.0
O25 O 0.09697 0.33731 0.37241 0.0
O26 O 0.12874 0.36795 0.40984 0.0
O27 O 0.12282 0.38644 0.37969 0.0
C28 C 0.03878 0.35528 0.30058 0.0
C29 C 0.04535 0.33485 0.28773 0.0
H30 H 0.06319 0.29657 0.26788 0.0
H31 H 0.09783 0.28676 0.2843 0.0
H32 H 0.05488 0.41656 0.3673 0.0
H33 H 0.03162 0.39577 0.32982 0.0
H34 H 0.02379 0.36041 0.29424 0.0
H35 H 0.03532 0.32455 0.27169 0.0
Mn36 Mn 0.0137 0.76034 0.65731 0.0
Mn37 Mn 0.03558 0.80706 0.70267 0.0
C38 C 0.05098 0.76838 0.67126 0.0
C39 C 0.99757 0.71951 0.64184 0.0
C40 C 0.0255 0.81428 0.65316 0.0
O41 O 0.98589 0.7671 0.67171 0.0
O42 O 1.00236 0.79785 0.70198 0.0
C43 C 0.02376 0.78019 0.74121 0.0
N44 N 0.03953 0.79387 0.73037 0.0
C45 C 0.06904 0.79214 0.75888 0.0
C46 C 0.05303 0.77852 0.77064 0.0
C47 C 0.03031 0.77243 0.7617 0.0
C48 C 0.06148 0.79961 0.73869 0.0
H49 H 1.00636 0.775 0.73418 0.0
C50 C 0.98505 0.78276 0.69014 0.0
O51 O 0.99596 0.73663 0.63005 0.0
O52 O 1.00709 0.72639 0.66326 0.0
N53 N 0.06771 0.81704 0.70556 0.0
C54 C 0.08124 0.82841 0.69107 0.0
C55 C 0.1046 0.83482 0.69693 0.0
C56 C 0.11382 0.82941 0.71758 0.0
C57 C 0.09958 0.81762 0.73218 0.0
C58 C 0.0764 0.81197 0.72559 0.0
H59 H 0.07432 0.8322 0.67497 0.0
O60 O 0.0444 0.75677 0.64984 0.0
O61 O 0.03568 0.77519 0.68357 0.0
O62 O 0.0177 0.79167 0.64433 0.0
O63 O 0.03283 0.82231 0.6748 0.0
C64 C 0.10751 0.81074 0.75272 0.0
C65 C 0.09225 0.79801 0.76605 0.0
H66 H 0.05804 0.77229 0.78632 0.0
H67 H 0.01788 0.76162 0.77047 0.0
H68 H 0.1155 0.8437 0.68544 0.0
H69 H 0.13186 0.83408 0.72188 0.0
H70 H 0.12535 0.81479 0.7582 0.0
H71 H 0.09858 0.79245 0.78159 0.0
Mn72 Mn 0.61615 0.83193 0.89631 0.0
Mn73 Mn 0.61272 0.85968 0.84963 0.0
C74 C 0.58247 0.83947 0.88347 0.0
C75 C 0.61441 0.79841 0.91412 0.0
C76 C 0.63257 0.88695 0.89838 0.0
O77 O 0.64465 0.82813 0.88133 0.0
O78 O 0.63908 0.84494 0.84966 0.0
C79 C 0.60325 0.81491 0.8123 0.0
N80 N 0.59791 0.83615 0.82261 0.0
C81 C 0.56711 0.83051 0.79298 0.0
C82 C 0.57258 0.80885 0.78172 0.0
C83 C 0.59061 0.80092 0.79154 0.0
C84 C 0.58029 0.84365 0.81363 0.0
H85 H 0.61694 0.80866 0.81995 0.0
C86 C 0.65018 0.83396 0.8619 0.0
O87 O 0.62581 0.82014 0.92418 0.0
O88 O 0.60519 0.79566 0.89276 0.0
N89 N 0.58788 0.87483 0.84689 0.0
C90 C 0.58402 0.89529 0.86069 0.0
C91 C 0.56619 0.90531 0.85373 0.0
C92 C 0.55273 0.8944 0.83252 0.0
C93 C 0.55707 0.87341 0.81857 0.0
C94 C 0.57516 0.86435 0.82633 0.0
H95 H 0.59443 0.90391 0.8769 0.0
O96 O 0.58604 0.83629 0.90483 0.0
O97 O 0.5985 0.83784 0.87002 0.0
O98 O 0.62922 0.86824 0.90801 0.0
O99 O 0.62763 0.88578 0.87649 0.0
C100 C 0.54394 0.86087 0.79747 0.0
C101 C 0.54889 0.83937 0.78474 0.0
H102 H 0.56286 0.798 0.76572 0.0
H103 H 0.59476 0.78406 0.78314 0.0
H104 H 0.56288 0.92145 0.86465 0.0
H105 H 0.539 0.90218 0.8272 0.0
H106 H 0.52976 0.86737 0.79109 0.0
H107 H 0.53844 0.82966 0.76876 0.0
Mn108 Mn 0.51402 0.25983 0.15897 0.0
Mn109 Mn 0.47277 0.242 0.11415 0.0
C110 C 0.50056 0.21883 0.14295 0.0
C111 C 0.55151 0.27088 0.17348 0.0
C112 C 0.46518 0.25989 0.16449 0.0
O113 O 0.51514 0.29109 0.14606 0.0
O114 O 0.48866 0.27649 0.11501 0.0
C115 C 0.49978 0.24335 0.07355 0.0
N116 N 0.48443 0.23056 0.0855 0.0
C117 C 0.48061 0.1934 0.05669 0.0
C118 C 0.49631 0.20621 0.04404 0.0
C119 C 0.50593 0.23129 0.05251 0.0
C120 C 0.47492 0.20646 0.0774 0.0
H121 H 0.50735 0.26259 0.08007 0.0
C122 C 0.50412 0.29359 0.12757 0.0
O123 O 0.53613 0.27702 0.18619 0.0
O124 O 0.54519 0.25968 0.15186 0.0
N125 N 0.45691 0.20854 0.11164 0.0
C126 C 0.44361 0.19838 0.12699 0.0
C127 C 0.43349 0.17314 0.12168 0.0
C128 C 0.43716 0.15862 0.10069 0.0
C129 C 0.45094 0.16948 0.08518 0.0
C130 C 0.46041 0.19477 0.0913 0.0
H131 H 0.44088 0.2094 0.14324 0.0
O132 O 0.51018 0.22542 0.16434 0.0
O133 O 0.49863 0.23647 0.13204 0.0
O134 O 0.4852 0.2627 0.1734 0.0
O135 O 0.45873 0.25292 0.14261 0.0
C136 C 0.45608 0.15608 0.06418 0.0
C137 C 0.47089 0.16803 0.04993 0.0
H138 H 0.50129 0.19691 0.02795 0.0
H139 H 0.51816 0.24127 0.04291 0.0
H140 H 0.42298 0.16486 0.1338 0.0
H141 H 0.42951 0.1391 0.09677 0.0
H142 H 0.44903 0.13649 0.05901 0.0
H143 H 0.47503 0.15744 0.03405 0.0
Mn144 Mn 0.11304 0.81877 0.12338 0.0
Mn145 Mn 0.0728 0.7991 0.0771 0.0
C146 C 0.10187 0.77623 0.10562 0.0
C147 C 0.15062 0.83008 0.143 0.0
C148 C 0.0618 0.81136 0.12744 0.0
O149 O 0.11204 0.85202 0.11133 0.0
O150 O 0.0846 0.83555 0.08171 0.0
C151 C 0.10202 0.80966 0.03962 0.0
N152 N 0.08697 0.79343 0.04886 0.0
C153 C 0.08735 0.76058 0.01652 0.0
C154 C 0.10274 0.77699 1.00658 0.0
C155 C 0.11014 0.80162 0.01821 0.0
C156 C 0.07981 0.76967 0.03786 0.0
H157 H 0.10782 0.82859 0.04853 0.0
C158 C 0.09865 0.85428 0.09404 0.0
O159 O 0.13351 0.83532 0.15313 0.0
O160 O 0.14649 0.82101 0.12059 0.0
N161 N 0.05971 0.76453 0.07009 0.0
C162 C 0.04529 0.75093 0.08233 0.0
C163 C 0.03659 0.72579 0.07327 0.0
C164 C 0.0426 0.71496 0.05162 0.0
C165 C 0.05713 0.72944 0.03913 0.0
C166 C 0.06517 0.75443 0.04897 0.0
H167 H 0.0406 0.75914 0.09898 0.0
O168 O 0.11065 0.78353 0.12722 0.0
O169 O 0.0995 0.79404 0.09481 0.0
O170 O 0.08226 0.81832 0.13636 0.0
O171 O 0.05631 0.80373 0.10538 0.0
C172 C 0.06427 0.71996 0.01751 0.0
C173 C 0.0794 0.73551 1.00624 0.0
H174 H 0.10909 0.77084 0.9901 0.0
H175 H 0.12209 0.81437 0.0107 0.0
H176 H 0.02535 0.71475 0.083 0.0
H177 H 0.03603 0.69551 0.0448 0.0
H178 H 0.05841 0.70068 0.00952 0.0
H179 H 0.08495 0.72795 0.98974 0.0
Mn180 Mn 0.52282 0.77055 0.4324 0.0
Mn181 Mn 0.52108 0.8045 0.38913 0.0
C182 C 0.48769 0.77136 0.41201 0.0
C183 C 0.52774 0.73355 0.44645 0.0
C184 C 0.52821 0.82784 0.4412 0.0
O185 O 0.55557 0.77694 0.42335 0.0
O186 O 0.55127 0.79801 0.39459 0.0
C187 C 0.52717 0.76634 0.34968 0.0
N188 N 0.51551 0.78301 0.35908 0.0
C189 C 0.49063 0.77462 0.32347 0.0
C190 C 0.50246 0.75747 0.31333 0.0
C191 C 0.52072 0.75322 0.32655 0.0
C192 C 0.49769 0.78693 0.34666 0.0
H193 H 0.54127 0.76313 0.35976 0.0
C194 C 0.56324 0.78813 0.40712 0.0
O195 O 0.53173 0.75513 0.45986 0.0
O196 O 0.52044 0.73316 0.42484 0.0
N197 N 0.49331 0.81284 0.38101 0.0
C198 C 0.48336 0.82958 0.39351 0.0
C199 C 0.46485 0.83599 0.38288 0.0
C200 C 0.45701 0.82553 0.3593 0.0
C201 C 0.46777 0.80874 0.34659 0.0
C202 C 0.48623 0.80316 0.35813 0.0
H203 H 0.4896 0.83808 0.41139 0.0
O204 O 0.48867 0.765 0.43244 0.0
O205 O 0.50706 0.77675 0.40385 0.0
O206 O 0.5273 0.80778 0.449 0.0
O207 O 0.5263 0.82841 0.4193 0.0
C208 C 0.46068 0.79699 0.32306 0.0
C209 C 0.472 0.7798 0.31156 0.0
H210 H 0.49759 0.74737 0.29547 0.0
H211 H 0.52986 0.73993 0.31888 0.0
H212 H 0.45671 0.84906 0.3928 0.0
H213 H 0.44264 0.83041 0.35118 0.0
H214 H 0.44633 0.80076 0.31376 0.0
H215 H 0.46618 0.7706 0.29359 0.0
Mn216 Mn 0.61303 0.32017 0.62305 0.0
Mn217 Mn 0.57292 0.30034 0.57664 0.0
C218 C 0.60227 0.27772 0.60515 0.0
C219 C 0.65051 0.33203 0.64274 0.0
C220 C 0.56179 0.31237 0.62696 0.0
O221 O 0.61165 0.35336 0.61119 0.0
O222 O 0.58469 0.33676 0.58111 0.0
C223 C 0.60216 0.31068 0.53912 0.0
N224 N 0.58709 0.29452 0.54842 0.0
C225 C 0.58742 0.26154 0.5162 0.0
C226 C 0.60282 0.27786 0.50619 0.0
C227 C 0.61026 0.30252 0.51773 0.0
C228 C 0.5799 0.27073 0.53752 0.0
H229 H 0.60797 0.32962 0.54797 0.0
C230 C 0.5985 0.35552 0.59367 0.0
O231 O 0.63322 0.3367 0.65287 0.0
O232 O 0.64658 0.32317 0.62028 0.0
N233 N 0.55988 0.26576 0.56981 0.0
C234 C 0.5455 0.25223 0.58216 0.0
C235 C 0.53679 0.22707 0.57321 0.0
C236 C 0.54273 0.21615 0.55156 0.0
C237 C 0.55723 0.23055 0.53898 0.0
C238 C 0.56529 0.25557 0.54872 0.0
H239 H 0.54085 0.26051 0.59881 0.0
O240 O 0.6111 0.28498 0.62673 0.0
O241 O 0.5997 0.29551 0.59441 0.0
O242 O 0.5822 0.31912 0.636 0.0
O243 O 0.55639 0.3051 0.60486 0.0
C244 C 0.56432 0.22097 0.51736 0.0
C245 C 0.57945 0.23644 0.50602 0.0
H246 H 0.60917 0.27163 0.48973 0.0
H247 H 0.62222 0.3152 0.51017 0.0
H248 H 0.52558 0.2161 0.58301 0.0
H249 H 0.53616 0.19669 0.54483 0.0
H250 H 0.55844 0.20168 0.50945 0.0
H251 H 0.58497 0.2288 0.48953 0.0
Mn252 Mn 0.02294 0.26885 0.93044 0.0
Mn253 Mn 0.02483 0.30365 0.88754 0.0
C254 C 0.98918 0.27069 0.90818 0.0
C255 C 0.0267 0.23122 0.94406 0.0
C256 C 0.02947 0.32633 0.93966 0.0
O257 O 0.05621 0.27498 0.92348 0.0
O258 O 0.05442 0.29623 0.89433 0.0
C259 C 0.03167 0.2655 0.84849 0.0
N260 N 0.02008 0.28245 0.85738 0.0
C261 C 0.99719 0.27555 0.82063 0.0
C262 C 1.00894 0.2581 0.81102 0.0
C263 C 0.02613 0.25292 0.82508 0.0
C264 C 1.00314 0.28711 0.8442 0.0
H265 H 0.04505 0.26169 0.85919 0.0
C266 C 0.06512 0.28597 0.90769 0.0
O267 O 0.03007 0.25251 0.95792 0.0
O268 O 0.02045 0.23145 0.9223 0.0
N269 N 0.99786 0.31293 0.87823 0.0
C270 C 0.98806 0.33014 0.89017 0.0
C271 C 0.9705 0.33741 0.87869 0.0
C272 C 0.96364 0.32747 0.85481 0.0
C273 C 0.97442 0.31034 0.84266 0.0
C274 C 0.99167 0.30364 0.85512 0.0
H275 H 0.99367 0.33838 0.90827 0.0
O276 O 0.9887 0.26368 0.92836 0.0
O277 O 0.00916 0.27594 0.90134 0.0
O278 O 0.02712 0.30602 0.94734 0.0
O279 O 0.02932 0.32723 0.91784 0.0
C280 C 0.96876 0.2997 0.81866 0.0
C281 C 0.97988 0.28201 0.80774 0.0
H282 H 1.00487 0.24854 0.7929 0.0
H283 H 0.03523 0.23942 0.81781 0.0
H284 H 0.96243 0.35082 0.88816 0.0
H285 H 0.9501 0.33313 0.84598 0.0
H286 H 0.95568 0.30475 0.8085 0.0
H287 H 0.97505 0.27359 0.7894 0.0
Mn288 Mn 0.43359 0.05325 0.30671 0.0
Mn289 Mn 0.39326 0.04577 0.34338 0.0
C290 C 0.41746 0.01466 0.31221 0.0
C291 C 0.44606 0.05683 0.27072 0.0
C292 C 0.44246 0.0643 0.35998 0.0
O293 O 0.42374 0.08512 0.31017 0.0
O294 O 0.39651 0.07848 0.33426 0.0
C295 C 0.35434 0.04423 0.30992 0.0
N296 N 0.36486 0.03335 0.32502 0.0
C297 C 0.33513 0.99677 0.31632 0.0
C298 C 0.32388 1.00767 0.30086 0.0
C299 C 0.33352 0.03152 0.29767 0.0
C300 C 0.35564 1.0105 0.32839 0.0
H301 H 0.36181 0.06242 0.30714 0.0
C302 C 0.40838 0.09178 0.32176 0.0
O303 O 0.45902 0.06627 0.29009 0.0
O304 O 0.4254 0.04595 0.27225 0.0
N305 N 0.38825 0.01463 0.35294 0.0
C306 C 0.40194 1.00617 0.3673 0.0
C307 C 0.39518 0.98223 0.37159 0.0
C308 C 0.3745 0.96724 0.36098 0.0
C309 C 0.36054 0.97648 0.34656 0.0
C310 C 0.36799 1.00062 0.34324 0.0
H311 H 0.41811 0.01738 0.37499 0.0
O312 O 0.43734 0.01907 0.30506 0.0
O313 O 0.40772 0.03305 0.31604 0.0
O314 O 0.44893 0.06327 0.3396 0.0
O315 O 0.42192 0.05797 0.3638 0.0
C316 C 0.33996 0.96237 0.33458 0.0
C317 C 0.32717 0.97253 0.31963 0.0
H318 H 0.30797 0.99777 0.29112 0.0
H319 H 0.32503 0.03999 0.28563 0.0
H320 H 0.40609 0.97515 0.38262 0.0
H321 H 0.36983 0.94852 0.36363 0.0
H322 H 0.33412 0.94346 0.33614 0.0
H323 H 0.31152 0.96132 0.31031 0.0
Mn324 Mn 0.2963 0.204 0.51816 0.0
Mn325 Mn 0.28615 0.15361 0.4746 0.0
C326 C 0.25949 0.18093 0.50606 0.0
C327 C 0.30303 0.22114 0.55926 0.0
C328 C 0.29842 0.20589 0.46522 0.0
O329 O 0.32719 0.19497 0.51713 0.0
O330 O 0.31751 0.16032 0.48923 0.0
C331 C 0.29 0.11526 0.50225 0.0
N332 N 0.27781 0.12419 0.48685 0.0
C333 C 0.24706 0.08882 0.48255 0.0
C334 C 0.25932 0.0792 0.49831 0.0
C335 C 0.28087 0.09251 0.50823 0.0
C336 C 0.25709 0.11151 0.47713 0.0
H337 H 0.30657 0.12543 0.5099 0.0
C338 C 0.33176 0.1759 0.50467 0.0
O339 O 0.30796 0.23465 0.54354 0.0
O340 O 0.29496 0.19796 0.55115 0.0
N341 N 0.25617 0.14509 0.45943 0.0
C342 C 0.24579 0.158 0.4463 0.0
C343 C 0.22372 0.14778 0.43595 0.0
C344 C 0.21258 0.12442 0.43918 0.0
C345 C 0.22359 0.11153 0.45283 0.0
C346 C 0.24562 0.12259 0.46261 0.0
H347 H 0.25416 0.17606 0.44397 0.0
O348 O 0.26319 0.20382 0.51644 0.0
O349 O 0.27735 0.17254 0.50254 0.0
O350 O 0.29976 0.21741 0.48662 0.0
O351 O 0.29403 0.18246 0.45973 0.0
C352 C 0.21338 0.0884 0.45755 0.0
C353 C 0.22509 0.07706 0.47242 0.0
H354 H 0.25227 0.06173 0.50309 0.0
H355 H 0.2904 0.08524 0.52047 0.0
H356 H 0.21528 0.15794 0.42561 0.0
H357 H 0.19548 0.11669 0.43134 0.0
H358 H 0.19636 0.07937 0.4502 0.0
H359 H 0.21689 0.05949 0.47628 0.0
Mn360 Mn 0.18408 0.02208 0.76551 0.0
Mn361 Mn 0.22713 0.03637 0.80953 0.0
C362 C 0.20562 0.06473 0.77898 0.0
C363 C 0.16605 0.01775 0.7231 0.0
C364 C 0.17753 0.02478 0.82121 0.0
O365 O 0.19617 0.98708 0.7639 0.0
O366 O 0.22282 1.00007 0.79482 0.0
C367 C 0.26494 0.0294 0.78141 0.0
N368 N 0.25543 0.04408 0.797 0.0
C369 C 0.28758 0.07788 0.80042 0.0
C370 C 0.29774 0.06304 0.78455 0.0
C371 C 0.28636 0.03871 0.77498 0.0
C372 C 0.26629 0.06752 0.80637 0.0
H373 H 0.25628 1.01072 0.77387 0.0
C374 C 0.21243 0.98282 0.77767 0.0
O375 O 0.15542 1.01058 0.74021 0.0
O376 O 0.18749 0.02441 0.7296 0.0
N377 N 0.234 0.07028 0.82486 0.0
C378 C 0.22113 0.08286 0.83833 0.0
C379 C 0.2297 0.10779 0.84836 0.0
C380 C 0.25139 0.11954 0.84449 0.0
C381 C 0.26432 0.10625 0.83057 0.0
C382 C 0.25495 0.08138 0.82114 0.0
H383 H 0.20436 0.07407 0.84124 0.0
O384 O 0.18481 0.05925 0.77034 0.0
O385 O 0.2129 0.04509 0.78124 0.0
O386 O 0.16923 0.02014 0.79919 0.0
O387 O 0.19893 0.02996 0.82605 0.0
C388 C 0.28588 0.1169 0.82517 0.0
C389 C 0.29751 0.10272 0.81012 0.0
H390 H 0.31419 0.07021 0.7794 0.0
H391 H 0.29404 0.02719 0.76262 0.0
H392 H 0.21955 0.11797 0.85894 0.0
H393 H 0.25784 0.13885 0.85205 0.0
H394 H 0.29352 0.1361 0.83215 0.0
H395 H 0.31394 0.11122 0.80581 0.0
Mn396 Mn 0.33772 0.93596 0.02528 0.0
Mn397 Mn 0.35098 0.97677 0.98952 0.0
C398 C 0.37423 0.94809 0.01786 0.0
C399 C 0.3312 0.92696 0.06175 0.0
C400 C 0.33028 0.92279 0.97191 0.0
O401 O 0.31041 0.95015 0.02364 0.0
O402 O 0.32129 0.97794 1.0009 0.0
C403 C 0.35563 0.02243 0.02497 0.0
N404 N 0.36443 1.00848 1.00802 0.0
C405 C 0.39883 0.03945 0.0127 0.0
C406 C 0.39006 0.05426 0.03003 0.0
C407 C 0.36838 0.04567 0.03622 0.0
C408 C 0.38525 0.01656 1.00189 0.0
H409 H 0.33903 0.01585 0.02991 0.0
C410 C 0.30721 0.96735 0.0134 0.0
O411 O 0.32236 0.91134 0.04265 0.0
O412 O 0.34325 0.94812 0.05961 0.0
N413 N 0.37949 0.97812 0.97738 0.0
C414 C 0.38612 0.96083 0.96169 0.0
C415 C 0.40779 0.96609 0.95442 0.0
C416 C 0.42234 0.98912 0.96319 0.0
C417 C 0.41502 1.00674 0.97907 0.0
C418 C 0.39316 1.00056 0.9855 0.0
H419 H 0.37504 0.94305 0.95499 0.0
O420 O 0.36753 0.92771 0.02528 0.0
O421 O 0.35945 0.96119 0.01544 0.0
O422 O 0.32926 0.91677 0.99196 0.0
O423 O 0.33772 0.94472 0.96887 0.0
C424 C 0.42887 0.02979 0.98955 0.0
C425 C 0.42077 0.04619 1.00625 0.0
H426 H 0.39994 0.07209 0.03893 0.0
H427 H 0.36155 0.05691 0.04971 0.0
H428 H 0.41334 0.95237 0.94221 0.0
H429 H 0.43917 0.99296 0.95786 0.0
H430 H 0.44603 0.03478 0.98551 0.0
H431 H 0.43175 0.06368 0.01444 0.0
Mn432 Mn 0.33443 0.3903 0.04164 0.0
Mn433 Mn 0.34405 0.43542 0.00942 0.0
C434 C 0.37115 0.41204 0.03929 0.0
C435 C 0.3271 0.37664 0.07766 0.0
C436 C 0.33415 0.38121 0.98709 0.0
O437 O 0.30339 0.39847 0.0378 0.0
O438 O 0.31206 0.42732 0.01555 0.0
C439 C 0.336 0.47507 0.04626 0.0
N440 N 0.34952 0.46642 0.03063 0.0
C441 C 0.37775 0.50422 0.0411 0.0
C442 C 0.36407 0.5136 0.05719 0.0
C443 C 0.34315 0.4989 0.05985 0.0
C444 C 0.36984 0.48025 0.02823 0.0
H445 H 0.31989 0.46388 0.04835 0.0
C446 C 0.29811 0.41404 0.02623 0.0
O447 O 0.32215 0.36181 0.05738 0.0
O448 O 0.33578 0.39945 0.077 0.0
N449 N 0.37413 0.44597 1.00186 0.0
C450 C 0.38519 0.43438 0.98534 0.0
C451 C 0.40636 0.44659 0.98047 0.0
C452 C 0.41574 0.47082 0.99221 0.0
C453 C 0.40374 0.48269 1.00856 0.0
C454 C 0.38271 0.46957 0.0127 0.0
H455 H 0.37789 0.41602 0.9759 0.0
O456 O 0.36742 0.39039 0.04473 0.0
O457 O 0.3534 0.4204 0.03533 0.0
O458 O 0.33108 0.37296 1.00617 0.0
O459 O 0.33931 0.40413 0.98647 0.0
C460 C 0.41182 0.50704 0.02092 0.0
C461 C 0.39895 0.51771 0.03736 0.0
H462 H 0.36949 0.53201 0.06762 0.0
H463 H 0.33254 0.50596 0.0723 0.0
H464 H 0.41539 0.43736 0.96763 0.0
H465 H 0.43212 0.48016 0.98848 0.0
H466 H 0.428 0.51765 0.01804 0.0
H467 H 0.40547 0.53634 0.04697 0.0
Mn468 Mn 0.7964 0.15186 0.03575 0.0
Mn469 Mn 0.76919 0.10289 0.99504 0.0
C470 C 0.75811 0.1417 0.03097 0.0
C471 C 0.81269 0.17 0.073 0.0
C472 C 0.78988 0.15178 0.98336 0.0
O473 O 0.82048 0.13344 0.02903 0.0
O474 O 0.80127 0.10185 1.00107 0.0
C475 C 0.77182 0.06451 0.02302 0.0
N476 N 0.7593 0.07597 0.01047 0.0
C477 C 0.72504 0.0484 0.01577 0.0
C478 C 0.73758 0.03622 0.02866 0.0
C479 C 0.76107 0.04437 0.03236 0.0
C480 C 0.73668 0.06841 1.00696 0.0
H481 H 0.78988 0.07066 0.02587 0.0
C482 C 0.81921 0.11375 0.01415 0.0
O483 O 0.81815 0.18011 0.05512 0.0
O484 O 0.79867 0.1487 0.06896 0.0
N485 N 0.73796 0.10131 0.98772 0.0
C486 C 0.72825 0.11571 0.97579 0.0
C487 C 0.70478 0.11034 0.97103 0.0
C488 C 0.69156 0.0901 0.9784 0.0
C489 C 0.70193 0.07544 0.99049 0.0
C490 C 0.72539 0.0817 0.99475 0.0
H491 H 0.7383 0.13134 0.9702 0.0
O492 O 0.76867 0.16405 0.04018 0.0
O493 O 0.77027 0.12587 0.02479 0.0
O494 O 0.79816 0.16206 1.00418 0.0
O495 O 0.77817 0.12976 0.97778 0.0
C496 C 0.68992 0.05496 0.99864 0.0
C497 C 0.70144 0.04155 0.01142 0.0
H498 H 0.72935 0.02066 0.03588 0.0
H499 H 0.77086 0.03511 0.04235 0.0
H500 H 0.6969 0.1218 0.96175 0.0
H501 H 0.67345 0.08608 0.97478 0.0
H502 H 0.67177 0.04953 0.99543 0.0
H503 H 0.69197 0.02607 0.0179 0.0
Mn504 Mn 0.19809 0.55274 0.24353 0.0
Mn505 Mn 0.24774 0.5689 0.27734 0.0
C506 C 0.21635 0.59335 0.25445 0.0
C507 C 0.17552 0.54155 0.20876 0.0
C508 C 0.20323 0.55489 0.2964 0.0
O509 O 0.20755 0.52041 0.23964 0.0
O510 O 0.2405 0.53341 0.26268 0.0
C511 C 0.27706 0.56139 0.23924 0.0
N512 N 0.27178 0.57597 0.25833 0.0
C513 C 0.30493 0.60754 0.25812 0.0
C514 C 0.31087 0.59275 0.2386 0.0
C515 C 0.29676 0.56965 0.229 0.0
C516 C 0.28495 0.59844 0.26737 0.0
H517 H 0.26632 0.54362 0.23193 0.0
C518 C 0.22558 0.51682 0.2489 0.0
O519 O 0.16804 0.53647 0.22813 0.0
O520 O 0.19667 0.55204 0.20928 0.0
N521 N 0.25731 0.60274 0.29253 0.0
C522 C 0.24805 0.61569 0.30984 0.0
C523 C 0.25954 0.63963 0.32068 0.0
C524 C 0.28062 0.6498 0.31394 0.0
C525 C 0.2898 0.63611 0.29608 0.0
C526 C 0.27741 0.61251 0.28569 0.0
H527 H 0.23194 0.60789 0.31514 0.0
O528 O 0.19481 0.58729 0.24883 0.0
O529 O 0.22679 0.57555 0.25356 0.0
O530 O 0.19161 0.55027 0.27669 0.0
O531 O 0.22449 0.56272 0.29913 0.0
C532 C 0.31062 0.64505 0.28796 0.0
C533 C 0.318 0.63096 0.26874 0.0
H534 H 0.32613 0.599 0.23075 0.0
H535 H 0.30115 0.55819 0.21384 0.0
H536 H 0.25224 0.65015 0.3343 0.0
H537 H 0.2895 0.66821 0.32239 0.0
H538 H 0.32087 0.663 0.29601 0.0
H539 H 0.33371 0.63837 0.2622 0.0
Mn540 Mn 0.83565 0.89087 0.54363 0.0
Mn541 Mn 0.84438 0.93699 0.51263 0.0
C542 C 0.87223 0.91251 0.54096 0.0
C543 C 0.82879 0.87734 0.57975 0.0
C544 C 0.83179 0.88279 0.48926 0.0
O545 O 0.80462 0.89933 0.54033 0.0
O546 O 0.81353 0.9318 0.52225 0.0
C547 C 0.84239 0.97867 0.55047 0.0
N548 N 0.85355 0.96822 0.53335 0.0
C549 C 0.88383 1.00427 0.54005 0.0
C550 C 0.87262 0.0155 0.5577 0.0
C551 C 0.85185 1.0026 0.56298 0.0
C552 C 0.87359 0.98039 0.52821 0.0
H553 H 0.8264 0.96881 0.55451 0.0
C554 C 0.79969 0.91712 0.53178 0.0
O555 O 0.82356 0.86242 0.55952 0.0
O556 O 0.83745 0.9001 0.57895 0.0
N557 N 0.87357 0.94428 0.50198 0.0
C558 C 0.88277 0.93027 0.48546 0.0
C559 C 0.9038 0.94022 0.47853 0.0
C560 C 0.91501 0.96454 0.48843 0.0
C561 C 0.90512 0.97866 0.50527 0.0
C562 C 0.88409 0.96779 0.51141 0.0
H563 H 0.87414 0.91165 0.47764 0.0
O564 O 0.86859 0.89078 0.54623 0.0
O565 O 0.85444 0.92093 0.53739 0.0
O566 O 0.83195 0.87377 0.50806 0.0
O567 O 0.83544 0.90587 0.48955 0.0
C568 C 0.91552 1.00291 0.51657 0.0
C569 C 0.90492 0.01567 0.53401 0.0
H570 H 0.87987 0.03394 0.56742 0.0
H571 H 0.84314 1.0111 0.57664 0.0
H572 H 0.91135 0.92919 0.46557 0.0
H573 H 0.93127 0.97212 0.48311 0.0
H574 H 0.93186 1.01174 0.5123 0.0
H575 H 0.91325 0.03415 0.54286 0.0
Mn576 Mn 0.94921 0.06852 0.26845 0.0
Mn577 Mn 0.90775 0.06265 0.30586 0.0
C578 C 0.92794 0.02756 0.27269 0.0
C579 C 0.96593 0.07008 0.22867 0.0
C580 C 0.95791 0.07308 0.32518 0.0
O581 O 0.93823 0.10403 0.27238 0.0
O582 O 0.91198 0.09661 0.29728 0.0
C583 C 0.8695 0.06421 0.27271 0.0
N584 N 0.8789 0.05262 0.28801 0.0
C585 C 0.84559 0.01997 0.28269 0.0
C586 C 0.83552 0.03172 0.26709 0.0
C587 C 0.84756 0.05388 0.26202 0.0
C588 C 0.8675 0.03115 0.29285 0.0
H589 H 0.87862 0.0812 0.26861 0.0
C590 C 0.9221 0.1108 0.2842 0.0
O591 O 0.97704 0.07843 0.24922 0.0
O592 O 0.94471 0.0624 0.23091 0.0
N593 N 0.90026 0.03149 0.31554 0.0
C594 C 0.91265 0.02175 0.33012 0.0
C595 C 0.90313 0.9993 0.33648 0.0
C596 C 0.88092 0.98715 0.328 0.0
C597 C 0.86839 0.9976 0.31329 0.0
C598 C 0.87871 0.02012 0.30765 0.0
H599 H 0.92972 0.03087 0.33679 0.0
O600 O 0.94779 0.03125 0.26543 0.0
O601 O 0.92097 0.04798 0.27757 0.0
O602 O 0.96537 0.07379 0.30462 0.0
O603 O 0.93689 0.07163 0.32713 0.0
C604 C 0.84621 0.98628 0.30361 0.0
C605 C 0.83484 0.99742 0.28827 0.0
H606 H 0.81862 0.02378 0.25876 0.0
H607 H 0.83996 0.06299 0.24988 0.0
H608 H 0.91293 0.99135 0.34783 0.0
H609 H 0.87371 0.9697 0.33276 0.0
H610 H 0.83786 0.96881 0.30756 0.0
H611 H 0.8179 0.98837 0.28068 0.0
Mn612 Mn 0.29731 0.65607 0.53189 0.0
Mn613 Mn 0.2674 0.60575 0.49425 0.0
C614 C 0.25872 0.64629 0.52961 0.0
C615 C 0.31486 0.6758 0.56868 0.0
C616 C 0.28857 0.65301 0.4791 0.0
O617 O 0.32095 0.63651 0.52418 0.0
O618 O 0.29896 0.60349 0.49982 0.0
C619 C 0.26907 0.56878 0.5241 0.0
N620 N 0.25691 0.58027 0.51118 0.0
C621 C 0.22216 0.55423 0.5175 0.0
C622 C 0.23431 0.54206 0.53083 0.0
C623 C 0.25787 0.54944 0.53422 0.0
C624 C 0.23424 0.57348 0.508 0.0
H625 H 0.28718 0.57428 0.5266 0.0
C626 C 0.31795 0.61542 0.5108 0.0
O627 O 0.31972 0.68491 0.5501 0.0
O628 O 0.30116 0.65437 0.56554 0.0
N629 N 0.23639 0.60553 0.48749 0.0
C630 C 0.22716 0.61971 0.47484 0.0
C631 C 0.2037 0.61505 0.47026 0.0
C632 C 0.19002 0.59567 0.47843 0.0
C633 C 0.19992 0.58115 0.49118 0.0
C634 C 0.22338 0.58674 0.49531 0.0
H635 H 0.2376 0.63451 0.46837 0.0
O636 O 0.26975 0.66875 0.53753 0.0
O637 O 0.27052 0.63027 0.52313 0.0
O638 O 0.29736 0.66489 0.49938 0.0
O639 O 0.27697 0.63092 0.47531 0.0
C640 C 0.18745 0.56139 0.49999 0.0
C641 C 0.19855 0.54805 0.5133 0.0
H642 H 0.22574 0.52708 0.5386 0.0
H643 H 0.26736 0.54017 0.54451 0.0
H644 H 0.19619 0.62631 0.46037 0.0
H645 H 0.17193 0.59212 0.47486 0.0
H646 H 0.16929 0.5565 0.49692 0.0
H647 H 0.18874 0.53315 0.5203 0.0
Mn648 Mn 0.44937 0.56816 0.76931 0.0
Mn649 Mn 0.40766 0.56188 0.8064 0.0
C650 C 0.42816 0.52707 0.77326 0.0
C651 C 0.4665 0.5702 0.72981 0.0
C652 C 0.45779 0.57236 0.82605 0.0
O653 O 0.43804 0.60346 0.77307 0.0
O654 O 0.41169 0.59588 0.79784 0.0
C655 C 0.36947 0.56326 0.77305 0.0
N656 N 0.37888 0.55171 0.78839 0.0
C657 C 0.34569 0.51889 0.78287 0.0
C658 C 0.33561 0.5306 0.76724 0.0
C659 C 0.34759 0.55283 0.76225 0.0
C660 C 0.36755 0.53017 0.79315 0.0
H661 H 0.37854 0.58029 0.769 0.0
C662 C 0.42172 0.61005 0.78469 0.0
O663 O 0.47739 0.57847 0.75048 0.0
O664 O 0.44527 0.56227 0.73176 0.0
N665 N 0.40027 0.53064 0.81597 0.0
C666 C 0.41266 0.52094 0.83057 0.0
C667 C 0.4032 0.49843 0.83685 0.0
C668 C 0.38104 0.48617 0.82826 0.0
C669 C 0.36851 0.49659 0.81352 0.0
C670 C 0.37877 0.51918 0.80796 0.0
H671 H 0.42969 0.53011 0.83732 0.0
O672 O 0.44808 0.5309 0.76617 0.0
O673 O 0.4211 0.54743 0.77815 0.0
O674 O 0.46533 0.57326 0.80555 0.0
O675 O 0.43675 0.57094 0.82789 0.0
C676 C 0.34638 0.48517 0.80373 0.0
C677 C 0.33501 0.49627 0.78836 0.0
H678 H 0.31875 0.52258 0.75882 0.0
H679 H 0.33998 0.5619 0.75008 0.0
H680 H 0.413 0.4905 0.84822 0.0
H681 H 0.37388 0.46868 0.83295 0.0
H682 H 0.33808 0.46764 0.80761 0.0
H683 H 0.31811 0.48713 0.78068 0.0
Mn684 Mn 0.70029 0.05101 0.74006 0.0
Mn685 Mn 0.74779 0.07051 0.77716 0.0
C686 C 0.71712 0.09199 0.74995 0.0
C687 C 0.67979 0.03797 0.70407 0.0
C688 C 0.70211 0.05688 0.79346 0.0
O689 O 0.71095 0.01969 0.7385 0.0
O690 O 0.74122 0.03432 0.76537 0.0
C691 C 0.77964 0.05988 0.74244 0.0
N692 N 0.77297 0.07602 0.75929 0.0
C693 C 0.80516 0.10804 0.75696 0.0
C694 C 0.81243 0.0917 0.73968 0.0
C695 C 0.79955 0.06755 0.73232 0.0
C696 C 0.78513 0.09937 0.76634 0.0
H697 H 0.76986 0.04129 0.73681 0.0
C698 C 0.72771 0.01697 0.75083 0.0
O699 O 0.6713 0.03297 0.72305 0.0
O700 O 0.70081 0.04936 0.70578 0.0
N701 N 0.75647 0.1051 0.78976 0.0
C702 C 0.74632 0.11906 0.80534 0.0
C703 C 0.75668 0.14393 0.81393 0.0
C704 C 0.77751 0.15408 0.80668 0.0
C705 C 0.78769 0.13933 0.79072 0.0
C706 C 0.77651 0.1147 0.78268 0.0
H707 H 0.73032 0.11136 0.81096 0.0
O708 O 0.69576 0.08495 0.74328 0.0
O709 O 0.72815 0.07492 0.75095 0.0
O710 O 0.69188 0.04954 0.77297 0.0
O711 O 0.72314 0.06616 0.79745 0.0
C712 C 0.80832 0.14817 0.78217 0.0
C713 C 0.81693 0.13262 0.76513 0.0
H714 H 0.82779 0.09755 0.73186 0.0
H715 H 0.805 0.05485 0.71894 0.0
H716 H 0.74864 0.15523 0.82612 0.0
H717 H 0.78542 0.17328 0.8133 0.0
H718 H 0.81757 0.167 0.78834 0.0
H719 H 0.83257 0.1398 0.75834 0.0
Mn720 Mn 0.79589 0.70452 0.01987 0.0
Mn721 Mn 0.78861 0.65468 0.97606 0.0
C722 C 0.75974 0.68091 1.00599 0.0
C723 C 0.80142 0.72136 0.06098 0.0
C724 C 0.80164 0.70727 0.96773 0.0
O725 O 0.82696 0.69608 0.02026 0.0
O726 O 0.8192 0.66098 0.99274 0.0
C727 C 0.78991 0.61561 1.00351 0.0
N728 N 0.77885 0.625 0.98753 0.0
C729 C 0.74727 0.59033 0.98187 0.0
C730 C 0.75836 0.58023 0.99819 0.0
C731 C 0.77976 0.59295 1.00907 0.0
C732 C 0.75831 0.61286 0.97686 0.0
H733 H 0.80632 0.62537 0.01197 0.0
C734 C 0.83241 0.6771 1.00869 0.0
O735 O 0.8066 0.73505 0.04546 0.0
O736 O 0.7935 0.69816 0.05267 0.0
N737 N 0.75945 0.64673 0.95903 0.0
C738 C 0.75029 0.66 0.94526 0.0
C739 C 0.72848 0.65044 0.93397 0.0
C740 C 0.71634 0.62736 0.9369 0.0
C741 C 0.72614 0.61403 0.95112 0.0
C742 C 0.748 0.62441 0.96181 0.0
H743 H 0.75949 0.6778 0.94303 0.0
O744 O 0.76272 0.70365 0.01665 0.0
O745 O 0.77801 0.67304 1.00329 0.0
O746 O 0.80039 0.71832 0.98876 0.0
O747 O 0.79826 0.68392 0.96196 0.0
C748 C 0.71489 0.59113 0.95555 0.0
C749 C 0.72546 0.57927 0.97088 0.0
H750 H 0.7505 0.56286 1.0027 0.0
H751 H 0.78837 0.58533 0.02177 0.0
H752 H 0.72099 0.66089 0.92311 0.0
H753 H 0.69943 0.62016 0.92835 0.0
H754 H 0.69795 0.58267 0.94758 0.0
H755 H 0.71648 0.56187 0.97446 0.0
Mn756 Mn 0.92933 0.55108 0.8057 0.0
Mn757 Mn 0.89108 0.54507 0.84472 0.0
C758 C 0.91305 0.51295 0.81225 0.0
C759 C 0.94079 0.55376 0.76918 0.0
C760 C 0.94071 0.56122 0.85875 0.0
O761 O 0.92026 0.58346 0.80951 0.0
O762 O 0.89564 0.57821 0.83646 0.0
C763 C 0.85195 0.54664 0.81299 0.0
N764 N 0.86205 0.5347 0.8274 0.0
C765 C 0.83061 0.49984 0.81935 0.0
C766 C 0.81978 0.51184 0.80461 0.0
C767 C 0.83051 0.53535 0.80142 0.0
C768 C 0.85188 0.51209 0.83061 0.0
H769 H 0.8602 0.56458 0.81022 0.0
C770 C 0.90657 0.59106 0.82302 0.0
O771 O 0.95424 0.5633 0.78818 0.0
O772 O 0.92012 0.54342 0.77136 0.0
N773 N 0.88472 0.51369 0.8538 0.0
C774 C 0.89777 0.50427 0.86794 0.0
C775 C 0.8896 0.4807 0.87264 0.0
C776 C 0.86813 0.46714 0.86279 0.0
C777 C 0.85492 0.47734 0.84849 0.0
C778 C 0.8638 0.50105 0.84474 0.0
H779 H 0.91436 0.51456 0.87538 0.0
O780 O 0.93251 0.51673 0.8041 0.0
O781 O 0.90373 0.53163 0.81635 0.0
O782 O 0.94588 0.56103 0.83796 0.0
O783 O 0.92055 0.55514 0.86383 0.0
C784 C 0.83348 0.46478 0.83743 0.0
C785 C 0.82133 0.47598 0.8229 0.0
H786 H 0.80332 0.50309 0.7955 0.0
H787 H 0.82234 0.54468 0.78994 0.0
H788 H 0.89989 0.47292 0.88367 0.0
H789 H 0.86203 0.44893 0.86628 0.0
H790 H 0.82623 0.44637 0.83963 0.0
H791 H 0.80496 0.46596 0.81433 0.0
Mn792 Mn 0.83881 0.43724 0.52468 0.0
Mn793 Mn 0.85385 0.47911 0.49028 0.0
C794 C 0.87591 0.45047 0.51975 0.0
C795 C 0.83016 0.42636 0.56002 0.0
C796 C 0.83496 0.42506 0.4712 0.0
O797 O 0.81129 0.45079 0.52158 0.0
O798 O 0.82311 0.4789 0.49944 0.0
C799 C 0.85539 0.52396 0.52582 0.0
N800 N 0.86557 0.51082 0.50957 0.0
C801 C 0.89911 0.54318 0.51615 0.0
C802 C 0.88892 0.55716 0.5328 0.0
C803 C 0.86699 0.54747 0.53769 0.0
C804 C 0.88667 0.51995 0.50472 0.0
H805 H 0.83858 0.51655 0.52973 0.0
C806 C 0.80839 0.4679 0.51107 0.0
O807 O 0.82272 0.41144 0.54015 0.0
O808 O 0.842 0.44812 0.55933 0.0
N809 N 0.88332 0.48191 0.4802 0.0
C810 C 0.89136 0.46532 0.46509 0.0
C811 C 0.91342 0.47174 0.45909 0.0
C812 C 0.9269 0.49521 0.4685 0.0
C813 C 0.91815 0.5121 0.48375 0.0
C814 C 0.89598 0.50473 0.48896 0.0
H815 H 0.88114 0.4472 0.45793 0.0
O816 O 0.86888 0.42973 0.52642 0.0
O817 O 0.86111 0.46338 0.51661 0.0
O818 O 0.83234 0.41882 0.49099 0.0
O819 O 0.84265 0.44715 0.46881 0.0
C820 C 0.93086 0.53556 0.49479 0.0
C821 C 0.92134 0.55111 0.51092 0.0
H822 H 0.89787 0.57523 0.54213 0.0
H823 H 0.85906 0.55808 0.55064 0.0
H824 H 0.92009 0.45857 0.44739 0.0
H825 H 0.94405 0.49989 0.4642 0.0
H826 H 0.94817 0.54155 0.49156 0.0
H827 H 0.93143 0.56894 0.51956 0.0
Mn828 Mn 0.68424 0.52319 0.26699 0.0
Mn829 Mn 0.72711 0.53785 0.31126 0.0
C830 C 0.70565 0.56589 0.28047 0.0
C831 C 0.66645 0.51866 0.22448 0.0
C832 C 0.6774 0.52577 0.32264 0.0
O833 O 0.69651 0.48837 0.26549 0.0
O834 O 0.72302 0.50166 0.29653 0.0
C835 C 0.76515 0.53112 0.28341 0.0
N836 N 0.75548 0.54573 0.2989 0.0
C837 C 0.78752 0.57968 0.30249 0.0
C838 C 0.79785 0.56492 0.28673 0.0
C839 C 0.7866 0.54056 0.27712 0.0
C840 C 0.7662 0.5692 0.3083 0.0
H841 H 0.75661 0.51241 0.27585 0.0
C842 C 0.7128 0.48434 0.27936 0.0
O843 O 0.65573 0.51148 0.24153 0.0
O844 O 0.68785 0.5255 0.23112 0.0
N845 N 0.73375 0.57175 0.32656 0.0
C846 C 0.72074 0.58423 0.33991 0.0
C847 C 0.72917 0.60918 0.34997 0.0
C848 C 0.75086 0.62105 0.34623 0.0
C849 C 0.76394 0.60786 0.33242 0.0
C850 C 0.75471 0.58297 0.32296 0.0
H851 H 0.70397 0.57534 0.34271 0.0
O852 O 0.68486 0.56036 0.27174 0.0
O853 O 0.71294 0.54632 0.28284 0.0
O854 O 0.66922 0.52107 0.30057 0.0
O855 O 0.69879 0.53122 0.32761 0.0
C856 C 0.78552 0.61863 0.32715 0.0
C857 C 0.79731 0.60454 0.31222 0.0
H858 H 0.81432 0.57218 0.28168 0.0
H859 H 0.79442 0.52909 0.26484 0.0
H860 H 0.7189 0.61927 0.36046 0.0
H861 H 0.75721 0.64037 0.35381 0.0
H862 H 0.79305 0.63785 0.33416 0.0
H863 H 0.81375 0.61314 0.30801 0.0
Gd864 Gd 0.09194 0.06553 0.03688 0.0
Gd865 Gd 0.04289 0.02687 1.00721 0.0
C866 C 0.02928 0.94401 1.00673 0.0
C867 C 0.02785 0.92701 0.96515 0.0
C868 C 0.03444 0.97133 0.97877 0.0
C869 C 0.0337 0.96808 1.00187 0.0
C870 C 0.03081 0.95074 0.96015 0.0
C871 C 0.02707 0.92366 0.98839 0.0
C872 C 0.02626 0.94092 0.02976 0.0
C873 C 0.02681 0.96137 0.04713 0.0
N874 N 0.03563 0.98813 0.01932 0.0
C875 C 0.03118 0.98481 0.04158 0.0
H876 H 0.03165 0.99987 0.05577 0.0
C877 C 0.03349 0.99783 0.95166 0.0
N878 N 0.0367 0.99437 0.97431 0.0
C879 C 0.03017 0.97807 0.93272 0.0
C880 C 0.02923 0.95445 0.93696 0.0
H881 H 0.03391 0.01604 0.94822 0.0
H882 H 0.02396 0.90515 0.99192 0.0
H883 H 0.10282 0.10029 0.99579 0.0
H884 H 0.02284 0.92278 0.03415 0.0
H885 H 0.02398 0.95914 0.06493 0.0
H886 H 0.02529 0.91105 0.95109 0.0
H887 H 0.10722 0.06815 0.09459 0.0
H888 H 0.10353 0.17461 0.02679 0.0
H889 H 0.10675 0.14357 0.99225 0.0
H890 H 0.1032 0.17262 0.10864 0.0
H891 H 0.02822 0.98106 0.91488 0.0
H892 H 0.02642 0.93911 0.92225 0.0
H893 H 0.10144 0.18513 0.07027 0.0
H894 H 0.11241 0.09806 0.13178 0.0
N895 N 0.09563 0.10623 0.03151 0.0
C896 C 0.1015 0.15553 0.02839 0.0
C897 C 0.10343 0.1381 1.00888 0.0
C898 C 0.09864 0.14843 0.05012 0.0
C899 C 0.09618 0.12335 0.05127 0.0
C900 C 0.10103 0.11349 0.01094 0.0
N901 N 0.09832 0.09269 0.07359 0.0
C902 C 0.09754 0.11635 0.07299 0.0
C903 C 0.10791 0.10335 0.11543 0.0
C904 C 0.10539 0.12721 0.11534 0.0
C905 C 0.10475 0.08636 0.09426 0.0
C906 C 0.10084 0.1342 0.09392 0.0
H907 H 0.10811 0.14041 0.13176 0.0
O908 O 0.12015 0.04782 0.03367 0.0
O909 O 0.07511 0.0251 0.02657 0.0
O910 O 0.03536 0.03755 0.0468 0.0
O911 O 0.06644 0.06703 0.06563 0.0
O912 O 0.08906 0.0381 0.061 0.0
O913 O 0.12602 0.08744 0.04173 0.0
O914 O 0.00943 1.01218 0.98933 0.0
O915 O 0.06016 0.06695 0.01638 0.0
O916 O 0.09905 0.05719 0.99701 0.0
O917 O 0.06934 0.02554 0.9792 0.0
O918 O 0.04713 0.0532 0.98184 0.0
O919 O 0.0158 0.04489 0.01645 0.0
C920 C 0.07888 0.01851 0.04628 0.0
C921 C 0.101 0.15875 0.09274 0.0
C922 C 0.09995 0.16587 0.07087 0.0
C923 C 0.13498 0.06853 0.03944 0.0
C924 C 0.15399 0.06956 0.05643 0.0
C925 C 0.15906 0.08678 0.07769 0.0
C926 C 0.16837 0.05401 0.05012 0.0
C927 C 0.18821 0.05593 0.06435 0.0
C928 C 0.17835 0.08816 0.09243 0.0
C929 C 0.19298 0.07294 0.08578 0.0
C930 C 0.04565 0.05365 0.06622 0.0
C931 C 0.05684 0.0731 0.99642 0.0
C932 C 1.00082 0.02837 1.00201 0.0
C933 C 0.97979 0.01899 0.01134 0.0
C934 C 0.97607 0.99729 0.02044 0.0
C935 C 0.96297 0.03202 0.01063 0.0
C936 C 0.9422 0.02345 0.01866 0.0
C937 C 0.95549 0.9888 0.02878 0.0
C938 C 0.93856 1.00179 0.02791 0.0
C939 C 0.08956 0.03993 0.97812 0.0
H940 H 0.14848 0.09945 0.08271 0.0
H941 H 0.16428 0.04072 0.03371 0.0
H942 H 0.18227 0.10149 0.10876 0.0
H943 H 0.20829 0.07501 0.09702 0.0
H944 H 0.98889 0.98687 0.02091 0.0
H945 H 0.96612 0.04895 1.00382 0.0
H946 H 0.95258 0.97202 0.03573 0.0
H947 H 0.92258 0.99473 0.03409 0.0
Gd948 Gd 0.30797 0.81515 0.30358 0.0
Gd949 Gd 0.33217 0.78912 0.25164 0.0
C950 C 0.29793 0.70845 0.21906 0.0
C951 C 0.32681 0.6871 0.2277 0.0
C952 C 0.33337 0.73162 0.24045 0.0
C953 C 0.31214 0.7312 0.23043 0.0
C954 C 0.34109 0.70958 0.23851 0.0
C955 C 0.30531 0.68656 0.21795 0.0
C956 C 0.27662 0.70819 0.20903 0.0
C957 C 0.26987 0.73017 0.2102 0.0
N958 N 0.30538 0.75278 0.23163 0.0
C959 C 0.28437 0.75222 0.22146 0.0
H960 H 0.27774 0.7682 0.22188 0.0
C961 C 0.36922 0.75482 0.25707 0.0
N962 N 0.34688 0.75353 0.25111 0.0
C963 C 0.37757 0.7336 0.2554 0.0
C964 C 0.3633 0.71079 0.2466 0.0
H965 H 0.38085 0.77226 0.26372 0.0
H966 H 0.29461 0.66909 0.20924 0.0
H967 H 0.36601 0.8378 0.31695 0.0
H968 H 0.26525 0.69112 0.20036 0.0
H969 H 0.25333 0.73018 0.20252 0.0
H970 H 0.33242 0.67007 0.2263 0.0
H971 H 0.26295 0.83839 0.28967 0.0
H972 H 0.3754 0.90309 0.36899 0.0
H973 H 0.39073 0.87063 0.34569 0.0
H974 H 0.30371 0.92356 0.36429 0.0
H975 H 0.39506 0.73491 0.26088 0.0
H976 H 0.36982 0.69433 0.24529 0.0
H977 H 0.34208 0.92155 0.37722 0.0
H978 H 0.24786 0.87395 0.30389 0.0
N979 N 0.3359 0.84961 0.32474 0.0
C980 C 0.36427 0.88836 0.35649 0.0
C981 C 0.37294 0.87005 0.34346 0.0
C982 C 0.34159 0.88824 0.35209 0.0
C983 C 0.32794 0.86887 0.33529 0.0
C984 C 0.35855 0.85094 0.32745 0.0
N985 N 0.29469 0.852 0.31038 0.0
C986 C 0.30659 0.87014 0.32779 0.0
C987 C 0.26454 0.87331 0.31063 0.0
C988 C 0.2766 0.89185 0.32865 0.0
C989 C 0.27363 0.85329 0.30204 0.0
C990 C 0.29782 0.89035 0.33758 0.0
H991 H 0.26933 0.90711 0.33563 0.0
O992 O 0.27264 0.80402 0.30714 0.0
O993 O 0.30496 0.78308 0.27441 0.0
O994 O 0.30358 0.80311 0.23583 0.0
O995 O 0.28747 0.8177 0.26956 0.0
O996 O 0.30526 0.77643 0.3086 0.0
O997 O 0.29678 0.81232 0.33806 0.0
O998 O 0.36663 0.80189 0.24544 0.0
O999 O 0.33433 0.82142 0.28014 0.0
O1000 O 0.33702 0.80251 0.32004 0.0
O1001 O 0.35196 0.78579 0.28626 0.0
O1002 O 0.33687 0.8284 0.24655 0.0
O1003 O 0.34126 0.78538 0.21579 0.0
C1004 C 0.30336 0.76665 0.28665 0.0
C1005 C 0.31042 0.90831 0.35607 0.0
C1006 C 0.3323 0.90722 0.36337 0.0
C1007 C 0.27586 0.80313 0.32933 0.0
C1008 C 0.26399 0.78004 0.33568 0.0
C1009 C 0.24219 0.76866 0.32496 0.0
C1010 C 0.27457 0.76832 0.35098 0.0
C1011 C 0.26377 0.74515 0.35482 0.0
C1012 C 0.23144 0.74563 0.32884 0.0
C1013 C 0.24222 0.73379 0.34356 0.0
C1014 C 0.28776 0.8127 0.24622 0.0
C1015 C 0.33653 0.83811 0.26823 0.0
C1016 C 0.36227 0.79652 0.22263 0.0
C1017 C 0.37307 0.81573 0.2104 0.0
C1018 C 0.39662 0.8227 0.21259 0.0
C1019 C 0.36048 0.82813 0.19783 0.0
C1020 C 0.37144 0.84772 0.18798 0.0
C1021 C 0.40751 0.84215 0.20269 0.0
C1022 C 0.39499 0.85475 0.19055 0.0
C1023 C 0.35195 0.79137 0.30968 0.0
H1024 H 0.23363 0.77738 0.31318 0.0
H1025 H 0.29135 0.77681 0.35944 0.0
H1026 H 0.21475 0.7369 0.32034 0.0
H1027 H 0.23359 0.71596 0.3465 0.0
H1028 H 0.40658 0.8133 0.22226 0.0
H1029 H 0.34228 0.82295 0.19604 0.0
H1030 H 0.42567 0.84749 0.2045 0.0
H1031 H 0.40366 0.86971 0.1828 0.0
Gd1032 Gd 0.53937 0.05252 0.5355 0.0
Gd1033 Gd 0.5942 0.04997 0.51814 0.0
C1034 C 0.64011 0.1265 0.5304 0.0
C1035 C 0.64745 0.13128 0.49058 0.0
C1036 C 0.62378 0.09345 0.4975 0.0
C1037 C 0.62648 0.10288 0.52143 0.0
C1038 C 0.63482 0.10724 0.48189 0.0
C1039 C 0.65006 0.14091 0.51479 0.0
C1040 C 0.644 0.13454 0.55482 0.0
C1041 C 0.63507 0.11877 0.5696 0.0
N1042 N 0.61696 0.08835 0.53605 0.0
C1043 C 0.62166 0.0955 0.55983 0.0
H1044 H 0.61489 0.08337 0.57127 0.0
C1045 C 0.61187 0.05847 0.46698 0.0
N1046 N 0.6118 0.07003 0.48974 0.0
C1047 C 0.62234 0.07147 0.45077 0.0
C1048 C 0.63358 0.09609 0.45818 0.0
H1049 H 0.60314 0.03941 0.46126 0.0
H1050 H 0.6604 0.1592 0.52133 0.0
H1051 H 0.5038 0.02044 0.48732 0.0
H1052 H 0.65437 0.15257 0.56241 0.0
H1053 H 0.63841 0.12457 0.5885 0.0
H1054 H 0.65585 0.14228 0.47883 0.0
H1055 H 0.53733 0.06114 0.59524 0.0
H1056 H 0.47916 0.94751 0.4985 0.0
H1057 H 0.48215 0.97826 0.47279 0.0
H1058 H 0.49944 0.95425 0.58057 0.0
H1059 H 0.62181 0.06248 0.43262 0.0
H1060 H 0.64185 0.10607 0.44563 0.0
H1061 H 0.4864 0.93849 0.53869 0.0
H1062 H 0.52955 0.03553 0.62512 0.0
N1063 N 0.51479 0.01371 0.52072 0.0
C1064 C 0.489 0.96606 0.50498 0.0
C1065 C 0.49064 0.98335 0.49043 0.0
C1066 C 0.49893 0.97334 0.52818 0.0
C1067 C 0.51155 0.99775 0.53574 0.0
C1068 C 0.50337 1.0073 0.49872 0.0
N1069 N 0.52864 0.03085 0.56612 0.0
C1070 C 0.51885 1.00659 0.55924 0.0
C1071 C 0.5267 0.02706 0.60665 0.0
C1072 C 0.51854 1.00172 0.59979 0.0
C1073 C 0.53113 0.04149 0.58954 0.0
C1074 C 0.5138 0.99128 0.57585 0.0
H1075 H 0.51492 0.99059 0.61308 0.0
O1076 O 0.52322 0.07604 0.55924 0.0
O1077 O 0.57489 0.07546 0.53801 0.0
O1078 O 0.58668 0.03505 0.55074 0.0
O1079 O 0.56507 0.06059 0.56698 0.0
O1080 O 0.54945 0.08927 0.52469 0.0
O1081 O 0.50962 0.06342 0.52286 0.0
O1082 O 0.61326 0.02394 0.50267 0.0
O1083 O 0.56099 0.02606 0.52236 0.0
O1084 O 0.53871 0.04791 0.49647 0.0
O1085 O 0.57572 0.06211 0.48921 0.0
O1086 O 0.57518 0.01746 0.49121 0.0
O1087 O 0.62247 0.04329 0.53849 0.0
C1088 C 0.57057 0.09441 0.53128 0.0
C1089 C 0.50306 0.96639 0.56812 0.0
C1090 C 0.49563 0.95742 0.54429 0.0
C1091 C 0.50752 0.07626 0.54317 0.0
C1092 C 0.48453 0.07439 0.54993 0.0
C1093 C 0.47497 0.05643 0.56245 0.0
C1094 C 0.47178 0.09051 0.54322 0.0
C1095 C 0.44941 0.08839 0.54863 0.0
C1096 C 0.45293 0.05452 0.56818 0.0
C1097 C 0.44019 0.07025 0.56123 0.0
C1098 C 0.57877 0.04598 0.5691 0.0
C1099 C 0.55865 1.01035 0.50309 0.0
C1100 C 0.62728 0.02771 0.52138 0.0
C1101 C 0.65121 0.0304 0.51783 0.0
C1102 C 0.66311 0.05132 0.51052 0.0
C1103 C 0.66246 1.01219 0.52241 0.0
C1104 C 0.68564 0.01519 0.52018 0.0
C1105 C 0.68597 0.05419 0.50794 0.0
C1106 C 0.69721 0.03638 0.51285 0.0
C1107 C 0.55395 0.05592 0.48289 0.0
H1108 H 0.48448 0.04383 0.56765 0.0
H1109 H 0.47905 0.10423 0.53329 0.0
H1110 H 0.44562 0.04065 0.57787 0.0
H1111 H 0.42306 0.06826 0.56571 0.0
H1112 H 0.6548 0.06548 0.50697 0.0
H1113 H 0.65334 0.99605 0.52822 0.0
H1114 H 0.69505 0.07039 0.50226 0.0
H1115 H 0.71497 0.03907 0.51074 0.0
Gd1116 Gd 0.3446 0.28703 0.77685 0.0
Gd1117 Gd 0.2905 0.30366 0.77463 0.0
C1118 C 0.25392 0.29805 0.70196 0.0
C1119 C 0.25317 0.34065 0.70169 0.0
C1120 C 0.26972 0.32942 0.73614 0.0
C1121 C 0.26534 0.30524 0.7248 0.0
C1122 C 0.26297 0.34732 0.72509 0.0
C1123 C 0.24866 0.31601 0.69012 0.0
C1124 C 0.24694 0.27295 0.69229 0.0
C1125 C 0.25022 0.2558 0.70589 0.0
N1126 N 0.27011 0.28842 0.73708 0.0
C1127 C 0.26158 0.26389 0.72848 0.0
H1128 H 0.26401 0.25022 0.73847 0.0
C1129 C 0.27946 0.35763 0.77222 0.0
N1130 N 0.27858 0.33495 0.75885 0.0
C1131 C 0.27314 0.37608 0.76206 0.0
C1132 C 0.26525 0.37104 0.73824 0.0
H1133 H 0.28586 0.36174 0.79059 0.0
H1134 H 0.24019 0.31088 0.67244 0.0
H1135 H 0.37089 0.33936 0.81458 0.0
H1136 H 0.2381 0.26664 0.67481 0.0
H1137 H 0.24419 0.23632 0.69893 0.0
H1138 H 0.24815 0.35419 0.69276 0.0
H1139 H 0.34967 0.22936 0.75895 0.0
H1140 H 0.39521 0.32037 0.87766 0.0
H1141 H 0.38991 0.35185 0.85462 0.0
H1142 H 0.38513 0.23293 0.85677 0.0
H1143 H 0.27445 0.39418 0.77257 0.0
H1144 H 0.26023 0.38531 0.73042 0.0
H1145 H 0.39283 0.27571 0.87851 0.0
H1146 H 0.36065 0.196 0.77583 0.0
N1147 N 0.36449 0.3009 0.81473 0.0
C1148 C 0.38675 0.31471 0.85999 0.0
C1149 C 0.3839 0.33251 0.847 0.0
C1150 C 0.37985 0.28982 0.84947 0.0
C1151 C 0.36889 0.28349 0.82643 0.0
C1152 C 0.37303 0.32525 0.82415 0.0
N1153 N 0.35622 0.25494 0.79147 0.0
C1154 C 0.36463 0.2596 0.81431 0.0
C1155 C 0.36173 0.21376 0.78691 0.0
C1156 C 0.36905 0.21783 0.81082 0.0
C1157 C 0.35563 0.23272 0.7774 0.0
C1158 C 0.37108 0.24115 0.82474 0.0
H1159 H 0.37386 0.20316 0.81815 0.0
O1160 O 0.36438 0.27383 0.74932 0.0
O1161 O 0.31677 0.29243 0.75278 0.0
O1162 O 0.28509 0.26182 0.77532 0.0
O1163 O 0.31956 0.25258 0.78405 0.0
O1164 O 0.32814 0.26038 0.74423 0.0
O1165 O 0.3759 0.31015 0.77002 0.0
O1166 O 0.27015 0.31815 0.80088 0.0
O1167 O 0.31834 0.29847 0.79862 0.0
O1168 O 0.35022 0.32904 0.77712 0.0
O1169 O 0.31583 0.33815 0.76781 0.0
O1170 O 0.30691 0.33046 0.80717 0.0
O1171 O 0.26032 0.28032 0.7835 0.0
C1172 C 0.31462 0.27284 0.73738 0.0
C1173 C 0.38037 0.24692 0.8483 0.0
C1174 C 0.38473 0.27126 0.86068 0.0
C1175 C 0.38039 0.29361 0.7536 0.0
C1176 C 0.40369 0.29018 0.75494 0.0
C1177 C 0.41217 0.28221 0.77443 0.0
C1178 C 0.41781 0.29543 0.73713 0.0
C1179 C 0.4404 0.2932 0.73923 0.0
C1180 C 0.43429 0.27961 0.77638 0.0
C1181 C 0.44832 0.28516 0.75905 0.0
C1182 C 0.29712 0.24594 0.78036 0.0
C1183 C 0.32043 0.31802 0.81404 0.0
C1184 C 0.25506 0.29772 0.79836 0.0
C1185 C 0.2313 0.29943 0.79629 0.0
C1186 C 0.22195 0.30451 0.7756 0.0
C1187 C 0.21763 0.2953 0.81467 0.0
C1188 C 0.1946 0.29569 0.812 0.0
C1189 C 0.19934 0.30524 0.77303 0.0
C1190 C 0.18574 0.30073 0.79096 0.0
C1191 C 0.33824 0.3449 0.77197 0.0
H1192 H 0.40172 0.27818 0.78827 0.0
H1193 H 0.41143 0.30175 0.72207 0.0
H1194 H 0.44065 0.27342 0.7915 0.0
H1195 H 0.46544 0.28302 0.76108 0.0
H1196 H 0.23211 0.30772 0.76134 0.0
H1197 H 0.22472 0.29128 0.8307 0.0
H1198 H 0.19227 0.30918 0.75698 0.0
H1199 H 0.16822 0.30139 0.78847 0.0
Gd1200 Gd 0.07178 0.02008 0.5095 0.0
Gd1201 Gd 0.05833 0.07315 0.53638 0.0
C1202 C 0.06629 0.0997 0.6161 0.0
C1203 C 0.02781 0.09926 0.62439 0.0
C1204 C 0.03639 0.08732 0.58422 0.0
C1205 C 0.05886 0.09121 0.59199 0.0
C1206 C 0.02063 0.09161 0.60029 0.0
C1207 C 0.0506 0.10329 0.63229 0.0
C1208 C 0.08932 0.10493 0.62317 0.0
C1209 C 0.10434 0.10244 0.60626 0.0
N1210 N 0.07359 0.08778 0.57587 0.0
C1211 C 0.09618 0.09415 0.58257 0.0
H1212 H 0.10811 0.09247 0.56981 0.0
C1213 C 1.00826 0.07787 0.55218 0.0
N1214 N 0.03005 0.08011 0.56081 0.0
C1215 C 0.99202 0.08178 0.56743 0.0
C1216 C 0.99819 0.08851 0.59162 0.0
H1217 H 1.0032 0.07261 0.53355 0.0
H1218 H 0.05598 0.10964 0.65089 0.0
H1219 H 0.02508 1.00374 0.47133 0.0
H1220 H 0.09569 0.11143 0.64151 0.0
H1221 H 0.12223 0.10689 0.61146 0.0
H1222 H 0.01594 0.10251 0.63702 0.0
H1223 H 0.12408 1.01019 0.51791 0.0
H1224 H 0.04383 0.98669 0.40177 0.0
H1225 H 0.01464 0.99152 0.42874 0.0
H1226 H 0.12217 0.98869 0.41457 0.0
H1227 H 0.97475 0.07961 0.56051 0.0
H1228 H 0.98558 0.09161 0.6034 0.0
H1229 H 0.0841 0.98606 0.39664 0.0
H1230 H 0.15425 1.00136 0.49436 0.0
N1231 N 0.06018 1.0074 0.46885 0.0
C1232 C 0.04858 0.99237 0.42054 0.0
C1233 C 0.03207 0.99502 0.43568 0.0
C1234 C 0.07088 0.99595 0.4299 0.0
C1235 C 0.07615 1.00326 0.45448 0.0
C1236 C 0.03815 1.0022 0.45991 0.0
N1237 N 0.10127 1.00955 0.48837 0.0
C1238 C 0.09742 1.00439 0.46456 0.0
C1239 C 0.1384 1.00236 0.48573 0.0
C1240 C 0.13505 0.99829 0.46126 0.0
C1241 C 0.12116 1.00761 0.49908 0.0
C1242 C 0.11421 0.99873 0.45034 0.0
H1243 H 0.14839 0.99406 0.45097 0.0
O1244 O 0.07704 0.99241 0.52934 0.0
O1245 O 0.07154 0.04157 0.54694 0.0
O1246 O 0.09496 0.08085 0.52884 0.0
O1247 O 0.09973 0.04873 0.50045 0.0
O1248 O 0.10024 0.03062 0.53935 0.0
O1249 O 0.05086 0.98302 0.50043 0.0
O1250 O 0.04458 0.10184 0.52502 0.0
O1251 O 0.05884 0.05215 0.49898 0.0
O1252 O 0.03461 0.01521 0.51353 0.0
O1253 O 0.03364 0.04239 0.54725 0.0
O1254 O 0.03015 0.06339 0.50643 0.0
O1255 O 0.07993 0.10919 0.53808 0.0
C1256 C 0.09108 0.04084 0.55662 0.0
C1257 C 0.10944 0.99289 0.42578 0.0
C1258 C 0.08778 0.99143 0.41557 0.0
C1259 C 0.06083 0.9755 0.51713 0.0
C1260 C 0.06437 0.95063 0.5125 0.0
C1261 C 0.07399 0.94117 0.49268 0.0
C1262 C 0.05825 0.93637 0.5293 0.0
C1263 C 0.0623 0.91275 0.52718 0.0
C1264 C 0.07749 0.91728 0.48995 0.0
C1265 C 0.0718 0.90313 0.50714 0.0
C1266 C 0.10662 0.07135 0.51266 0.0
C1267 C 0.03953 0.05352 0.48918 0.0
C1268 C 0.0639 0.11753 0.52894 0.0
C1269 C 0.06403 0.14341 0.53619 0.0
C1270 C 0.05601 0.1528 0.55712 0.0
C1271 C 0.07163 0.15878 0.52065 0.0
C1272 C 0.07069 0.1836 0.52526 0.0
C1273 C 0.05552 0.17771 0.56224 0.0
C1274 C 0.06269 0.19306 0.54638 0.0
C1275 C 0.02477 0.02173 0.5324 0.0
H1276 H 0.07881 0.95217 0.47954 0.0
H1277 H 0.05032 0.94391 0.54423 0.0
H1278 H 0.08491 0.90984 0.47466 0.0
H1279 H 0.07521 0.88495 0.50496 0.0
H1280 H 0.05005 0.14092 0.56924 0.0
H1281 H 0.0782 0.15118 0.50476 0.0
H1282 H 0.04928 0.18509 0.57837 0.0
H1283 H 0.06159 0.21212 0.55045 0.0
Gd1284 Gd 0.29056 0.7747 0.7752 0.0
Gd1285 Gd 0.34238 0.81653 0.77372 0.0
C1286 C 0.34234 0.88751 0.74645 0.0
C1287 C 0.3629 0.88232 0.7121 0.0
C1288 C 0.3569 0.85102 0.73627 0.0
C1289 C 0.34476 0.86433 0.75045 0.0
C1290 C 0.36686 0.86027 0.71744 0.0
C1291 C 0.35064 0.89595 0.72662 0.0
C1292 C 0.33297 0.90214 0.76327 0.0
C1293 C 0.3275 0.89411 0.78402 0.0
N1294 N 0.33765 0.8559 0.76976 0.0
C1295 C 0.33031 0.871 0.78714 0.0
H1296 H 0.32605 0.86505 0.80331 0.0
C1297 C 0.37635 0.81903 0.73191 0.0
N1298 N 0.36078 0.83017 0.74236 0.0
C1299 C 0.38665 0.82743 0.71306 0.0
C1300 C 0.38147 0.8478 0.70542 0.0
H1301 H 0.38019 0.80307 0.73756 0.0
H1302 H 0.34862 0.91351 0.72302 0.0
H1303 H 0.30719 0.72705 0.74419 0.0
H1304 H 0.33086 0.92009 0.76092 0.0
H1305 H 0.32102 0.90564 0.79759 0.0
H1306 H 0.3701 0.88955 0.69748 0.0
H1307 H 0.25643 0.79011 0.81581 0.0
H1308 H 0.29868 0.6688 0.78292 0.0
H1309 H 0.31001 0.68517 0.74758 0.0
H1310 H 0.26299 0.69927 0.84934 0.0
H1311 H 0.39844 0.81809 0.70436 0.0
H1312 H 0.38951 0.85433 0.69088 0.0
H1313 H 0.28173 0.67453 0.82125 0.0
H1314 H 0.24048 0.77533 0.84991 0.0
N1315 N 0.29479 0.73484 0.77755 0.0
C1316 C 0.29744 0.68729 0.78157 0.0
C1317 C 0.30376 0.69642 0.76156 0.0
C1318 C 0.28882 0.70181 0.79919 0.0
C1319 C 0.28745 0.72573 0.79651 0.0
C1320 C 0.3022 0.72029 0.75977 0.0
N1321 N 0.27396 0.7615 0.80777 0.0
C1322 C 0.27675 0.73953 0.81219 0.0
C1323 C 0.2509 0.76524 0.83965 0.0
C1324 C 0.25477 0.74345 0.84529 0.0
C1325 C 0.26024 0.77374 0.82041 0.0
C1326 C 0.26735 0.72997 0.83116 0.0
H1327 H 0.24726 0.73673 0.86001 0.0
O1328 O 0.25783 0.77926 0.76282 0.0
O1329 O 0.30408 0.81383 0.76794 0.0
O1330 O 0.32763 0.82259 0.80823 0.0
O1331 O 0.30588 0.78533 0.81232 0.0
O1332 O 0.27831 0.80968 0.78868 0.0
O1333 O 0.26778 0.74553 0.75014 0.0
O1334 O 0.37673 0.81702 0.78534 0.0
O1335 O 0.32803 0.77667 0.7763 0.0
O1336 O 0.30336 0.76768 0.73977 0.0
O1337 O 0.33142 0.80089 0.73555 0.0
O1338 O 0.36044 0.78448 0.77018 0.0
O1339 O 0.36028 0.84374 0.8038 0.0
C1340 C 0.29029 0.82588 0.77873 0.0
C1341 C 0.26992 0.70683 0.83475 0.0
C1342 C 0.2806 0.69275 0.81876 0.0
C1343 C 0.25153 0.75695 0.75093 0.0
C1344 C 0.22952 0.74332 0.75532 0.0
C1345 C 0.22738 0.7261 0.77017 0.0
C1346 C 0.2103 0.74878 0.7454 0.0
C1347 C 0.1889 0.73755 0.75052 0.0
C1348 C 0.2062 0.71497 0.77551 0.0
C1349 C 0.18702 0.72072 0.76586 0.0
C1350 C 0.31828 0.80724 0.82123 0.0
C1351 C 0.34537 0.76641 0.77415 0.0
C1352 C 0.37898 0.83664 0.80144 0.0
C1353 C 0.39951 0.85548 0.80185 0.0
C1354 C 0.39994 0.87588 0.79113 0.0
C1355 C 0.41945 0.85177 0.81193 0.0
C1356 C 0.44005 0.86797 0.81112 0.0
C1357 C 0.42033 0.89239 0.7906 0.0
C1358 C 0.44035 0.88848 0.80049 0.0
C1359 C 0.31695 0.77993 0.72697 0.0
H1360 H 0.24198 0.7213 0.7777 0.0
H1361 H 0.21212 0.7617 0.73353 0.0
H1362 H 0.20464 0.70193 0.78721 0.0
H1363 H 0.17078 0.71207 0.77048 0.0
H1364 H 0.38467 0.87893 0.78307 0.0
H1365 H 0.41885 0.83604 0.82034 0.0
H1366 H 0.42067 0.90808 0.78226 0.0
H1367 H 0.45602 0.90123 0.79948 0.0
Gd1368 Gd 0.55899 0.06062 1.00174 0.0
Gd1369 Gd 0.57496 0.03519 0.0532 0.0
C1370 C 0.6439 0.06561 0.09514 0.0
C1371 C 0.66068 0.03014 0.08848 0.0
C1372 C 0.62249 0.02696 0.07206 0.0
C1373 C 0.62403 0.05133 0.08169 0.0
C1374 C 0.64055 0.01585 0.0758 0.0
C1375 C 0.66238 0.05501 0.09806 0.0
C1376 C 0.64448 0.08997 0.10549 0.0
C1377 C 0.62529 0.09922 0.10296 0.0
N1378 N 0.60587 0.06091 0.07838 0.0
C1379 C 0.60595 0.08427 0.08956 0.0
H1380 H 0.59146 0.09194 0.08766 0.0
C1381 C 0.59962 0.98903 0.05206 0.0
N1382 N 0.60295 0.01386 0.0597 0.0
C1383 C 0.61697 0.97709 0.05542 0.0
C1384 C 0.63766 0.99063 0.06707 0.0
H1385 H 0.58372 0.97861 0.04276 0.0
H1386 H 0.67787 0.06576 0.1081 0.0
H1387 H 0.54038 1.005 0.96691 0.0
H1388 H 0.65945 0.10161 0.11582 0.0
H1389 H 0.62543 0.11792 0.1112 0.0
H1390 H 0.67487 0.02203 0.09131 0.0
H1391 H 0.55247 0.11803 0.01604 0.0
H1392 H 0.47504 1.00137 0.93431 0.0
H1393 H 0.50693 0.98201 0.94041 0.0
H1394 H 0.46359 0.08236 0.96081 0.0
H1395 H 0.61443 0.95751 0.04892 0.0
H1396 H 0.65111 0.98137 0.06961 0.0
H1397 H 0.45912 0.039 0.94183 0.0
H1398 H 0.52381 0.14166 0.0097 0.0
N1399 N 0.52741 0.03692 0.97666 0.0
C1400 C 0.48967 1.01154 0.94614 0.0
C1401 C 0.50765 1.00059 0.94948 0.0
C1402 C 0.49109 0.03578 0.95752 0.0
C1403 C 0.51046 0.04815 0.97284 0.0
C1404 C 0.52662 0.01373 0.96463 0.0
N1405 N 0.53244 0.08412 0.99685 0.0
C1406 C 0.51306 0.07256 0.98327 0.0
C1407 C 0.52054 0.12222 1.00221 0.0
C1408 C 0.50015 0.11038 0.98891 0.0
C1409 C 0.53672 0.1088 1.00576 0.0
C1410 C 0.49633 0.08534 0.97893 0.0
H1411 H 0.4877 0.12084 0.98606 0.0
O1412 O 0.57793 0.08977 0.98661 0.0
O1413 O 0.58491 0.06127 0.02978 0.0
O1414 O 0.5594 0.06824 0.06274 0.0
O1415 O 0.5368 0.06996 0.0295 0.0
O1416 O 0.58263 0.09494 0.02299 0.0
O1417 O 0.57134 0.05157 0.96799 0.0
O1418 O 0.55667 1.00517 0.06775 0.0
O1419 O 0.54952 0.0342 0.02474 0.0
O1420 O 0.57411 0.02745 0.99139 0.0
O1421 O 0.5952 0.02287 0.02462 0.0
O1422 O 0.55168 1.0008 0.03153 0.0
O1423 O 0.56034 0.04311 0.08585 0.0
C1424 C 0.59394 0.08382 0.03513 0.0
C1425 C 0.4767 0.07292 0.96427 0.0
C1426 C 0.47416 0.04823 0.95345 0.0
C1427 C 0.57996 0.0746 0.96762 0.0
C1428 C 0.57672 0.08234 0.94535 0.0
C1429 C 0.55954 0.09398 0.94012 0.0
C1430 C 0.59201 0.07834 0.9292 0.0
C1431 C 0.59112 0.08671 0.90797 0.0
C1432 C 0.5581 0.10187 0.91868 0.0
C1433 C 0.57388 0.0984 0.90267 0.0
C1434 C 0.54255 0.07524 0.05245 0.0
C1435 C 0.54036 1.01173 0.01914 0.0
C1436 C 0.55274 0.01987 0.08612 0.0
C1437 C 0.55496 0.01255 0.10877 0.0
C1438 C 0.56992 0.99825 0.11416 0.0
C1439 C 0.54079 0.01968 0.12513 0.0
C1440 C 0.54115 0.01261 0.14695 0.0
C1441 C 0.57025 0.9909 0.13595 0.0
C1442 C 0.5558 0.99791 0.15231 0.0
C1443 C 0.59016 0.01918 1.00163 0.0
H1444 H 0.54746 0.09706 0.95253 0.0
H1445 H 0.60477 0.06863 0.93334 0.0
H1446 H 0.54491 0.11094 0.91459 0.0
H1447 H 0.57279 0.10514 0.8864 0.0
H1448 H 0.58109 0.99264 0.10159 0.0
H1449 H 0.52908 0.0305 0.12064 0.0
H1450 H 0.58166 0.97974 0.14014 0.0
H1451 H 0.55625 0.99218 0.16913 0.0
Gd1452 Gd 0.29496 0.26843 0.26072 0.0
Gd1453 Gd 0.33222 0.32661 0.28934 0.0
C1454 C 0.40284 0.3294 0.26568 0.0
C1455 C 0.42085 0.31345 0.29596 0.0
C1456 C 0.38226 0.31794 0.29791 0.0
C1457 C 0.38298 0.32677 0.27716 0.0
C1458 C 0.40154 0.31204 0.30794 0.0
C1459 C 0.42149 0.32209 0.27484 0.0
C1460 C 0.40362 0.33989 0.24562 0.0
C1461 C 0.38543 0.34876 0.23825 0.0
N1462 N 0.36468 0.33377 0.26873 0.0
C1463 C 0.36633 0.34617 0.25042 0.0
H1464 H 0.35339 0.35493 0.24525 0.0
C1465 C 0.36426 0.31393 0.33215 0.0
N1466 N 0.36337 0.31689 0.30918 0.0
C1467 C 0.38275 0.30762 0.34266 0.0
C1468 C 0.40127 0.306 0.33024 0.0
H1469 H 0.35114 0.31704 0.34306 0.0
H1470 H 0.43671 0.32367 0.26606 0.0
H1471 H 0.27499 0.2389 0.30449 0.0
H1472 H 0.41848 0.34209 0.23627 0.0
H1473 H 0.38625 0.35804 0.22344 0.0
H1474 H 0.43564 0.30865 0.30326 0.0
H1475 H 0.27501 0.27854 0.20755 0.0
H1476 H 0.20938 0.2497 0.3145 0.0
H1477 H 0.2423 0.23444 0.32659 0.0
H1478 H 0.19056 0.28401 0.24865 0.0
H1479 H 0.3829 0.30464 0.36058 0.0
H1480 H 0.41573 0.30145 0.33855 0.0
H1481 H 0.19033 0.26833 0.28549 0.0
H1482 H 0.24262 0.29043 0.19079 0.0
N1483 N 0.26282 0.2601 0.28161 0.0
C1484 C 0.22414 0.25247 0.30503 0.0
C1485 C 0.24272 0.244 0.31199 0.0
C1486 C 0.22442 0.26334 0.28521 0.0
C1487 C 0.24415 0.26669 0.27354 0.0
C1488 C 0.2617 0.24735 0.29967 0.0
N1489 N 0.26318 0.27766 0.24152 0.0
C1490 C 0.24438 0.27585 0.25297 0.0
C1491 C 0.24308 0.28709 0.20859 0.0
C1492 C 0.22461 0.28797 0.22126 0.0
C1493 C 0.26193 0.28109 0.21869 0.0
C1494 C 0.22476 0.28146 0.24337 0.0
H1495 H 0.20988 0.29231 0.21328 0.0
O1496 O 0.29364 0.24647 0.22584 0.0
O1497 O 0.3294 0.29181 0.26412 0.0
O1498 O 0.31999 0.33272 0.25363 0.0
O1499 O 0.30661 0.2923 0.23363 0.0
O1500 O 0.32688 0.25574 0.26716 0.0
O1501 O 0.28209 0.22892 0.25448 0.0
O1502 O 0.33354 0.34912 0.32397 0.0
O1503 O 0.29773 0.3033 0.2858 0.0
O1504 O 0.30779 0.26278 0.2964 0.0
O1505 O 0.31968 0.30328 0.31657 0.0
O1506 O 0.30053 0.33939 0.2823 0.0
O1507 O 0.34546 0.36603 0.29508 0.0
C1508 C 0.34072 0.27605 0.26607 0.0
C1509 C 0.20559 0.2794 0.2556 0.0
C1510 C 0.20544 0.2704 0.27652 0.0
C1511 C 0.28731 0.22575 0.23289 0.0
C1512 C 0.30094 0.20769 0.2263 0.0
C1513 C 0.3028 0.19913 0.20246 0.0
C1514 C 0.31354 0.20037 0.2436 0.0
C1515 C 0.32844 0.18545 0.23717 0.0
C1516 C 0.31747 0.18387 0.19604 0.0
C1517 C 0.33046 0.17723 0.21334 0.0
C1518 C 0.31285 0.31633 0.23394 0.0
C1519 C 0.28663 0.3191 0.28327 0.0
C1520 C 0.3404 0.36961 0.31671 0.0
C1521 C 0.32764 0.38849 0.32336 0.0
C1522 C 0.32815 0.39917 0.34716 0.0
C1523 C 0.3144 0.39545 0.30632 0.0
C1524 C 0.30178 0.41285 0.31306 0.0
C1525 C 0.31557 0.41663 0.35385 0.0
C1526 C 0.30242 0.42352 0.33686 0.0
C1527 C 0.31427 0.2792 0.31618 0.0
H1528 H 0.29323 0.20463 0.18885 0.0
H1529 H 0.31231 0.20676 0.26212 0.0
H1530 H 0.31896 0.17742 0.17764 0.0
H1531 H 0.34191 0.16554 0.2082 0.0
H1532 H 0.33821 0.39392 0.36054 0.0
H1533 H 0.31396 0.38759 0.28783 0.0
H1534 H 0.31604 0.42487 0.37222 0.0
H1535 H 0.29288 0.43724 0.3422 0.0
Gd1536 Gd 0.57283 0.51926 0.01074 0.0
Gd1537 Gd 0.55917 0.57263 0.03634 0.0
C1538 C 0.56841 0.60014 0.11612 0.0
C1539 C 0.53051 0.60244 0.12465 0.0
C1540 C 0.53844 0.58941 0.08442 0.0
C1541 C 0.56068 0.59174 0.09206 0.0
C1542 C 0.52317 0.59528 0.10054 0.0
C1543 C 0.5531 0.60484 0.13243 0.0
C1544 C 0.59142 0.60447 0.12295 0.0
C1545 C 0.60616 0.6015 0.10585 0.0
N1546 N 0.57504 0.58746 0.07576 0.0
C1547 C 0.59769 0.5934 0.08221 0.0
H1548 H 0.60948 0.5914 0.06936 0.0
C1549 C 0.51085 0.58318 0.05239 0.0
N1550 N 0.53201 0.58277 0.06102 0.0
C1551 C 0.49509 0.58878 0.06767 0.0
C1552 C 0.50117 0.59453 0.09189 0.0
H1553 H 0.50589 0.57868 0.03371 0.0
H1554 H 0.55869 0.61107 0.15099 0.0
H1555 H 0.52198 0.50023 0.97869 0.0
H1556 H 0.59803 0.61089 0.14124 0.0
H1557 H 0.62406 0.60546 0.11083 0.0
H1558 H 0.51898 0.6068 0.13733 0.0
H1559 H 0.6261 0.51344 0.01223 0.0
H1560 H 0.53213 0.48081 0.90642 0.0
H1561 H 0.50668 0.48607 0.93745 0.0
H1562 H 0.61119 0.48537 0.90864 0.0
H1563 H 0.47824 0.5886 0.06074 0.0
H1564 H 0.48895 0.59893 0.10369 0.0
H1565 H 0.57126 0.4809 0.8958 0.0
H1566 H 0.65328 0.50355 0.98452 0.0
N1567 N 0.55625 0.50439 0.97156 0.0
C1568 C 0.53906 0.48727 0.92461 0.0
C1569 C 0.52465 0.49014 0.94206 0.0
C1570 C 0.56216 0.49177 0.93097 0.0
C1571 C 0.57032 0.50022 0.95492 0.0
C1572 C 0.53353 0.4983 0.96557 0.0
N1573 N 0.59954 0.50931 0.98541 0.0
C1574 C 0.5927 0.50268 0.96209 0.0
C1575 C 0.63632 0.50335 0.97795 0.0
C1576 C 0.62981 0.49765 0.9538 0.0
C1577 C 0.62083 0.50889 0.9936 0.0
C1578 C 0.60767 0.49686 0.9456 0.0
H1579 H 0.64182 0.49329 0.9417 0.0
O1580 O 0.58632 0.49187 0.02502 0.0
O1581 O 0.5725 0.54127 0.04776 0.0
O1582 O 0.59575 0.58035 0.02891 0.0
O1583 O 0.59974 0.54825 1.00028 0.0
O1584 O 0.60161 0.5309 0.04014 0.0
O1585 O 0.5518 0.483 0.00937 0.0
O1586 O 0.54619 0.59982 0.02114 0.0
O1587 O 0.55947 0.55061 0.99928 0.0
O1588 O 0.53648 0.51143 0.01883 0.0
O1589 O 0.53227 0.54383 0.04702 0.0
O1590 O 0.53032 0.56066 1.00708 0.0
O1591 O 0.58022 0.60893 0.0382 0.0
C1592 C 0.59212 0.54067 0.05737 0.0
C1593 C 0.5999 0.48968 0.9216 0.0
C1594 C 0.57717 0.48716 0.91429 0.0
C1595 C 0.56748 0.47552 0.02013 0.0
C1596 C 0.56863 0.44997 0.0131 0.0
C1597 C 0.57591 0.44082 0.99164 0.0
C1598 C 0.56221 0.4345 0.02889 0.0
C1599 C 0.56302 0.40969 0.02363 0.0
C1600 C 0.57664 0.41598 0.98612 0.0
C1601 C 0.57018 0.40042 1.00199 0.0
C1602 C 0.60698 0.57088 0.01235 0.0
C1603 C 0.53977 0.55105 0.98974 0.0
C1604 C 0.56491 0.61628 0.0267 0.0
C1605 C 0.56351 0.64175 0.03343 0.0
C1606 C 0.55851 0.6517 0.05576 0.0
C1607 C 0.56783 0.65645 0.01661 0.0
C1608 C 0.56798 0.68152 0.02194 0.0
C1609 C 0.55812 0.67662 0.06117 0.0
C1610 C 0.56294 0.69154 0.04443 0.0
C1611 C 0.52522 0.52106 0.03526 0.0
H1612 H 0.58094 0.45275 0.97931 0.0
H1613 H 0.55622 0.44182 0.04527 0.0
H1614 H 0.58223 0.40878 0.96955 0.0
H1615 H 0.57096 0.38128 0.99746 0.0
H1616 H 0.55507 0.64033 0.06888 0.0
H1617 H 0.57114 0.64817 0.99923 0.0
H1618 H 0.55435 0.68446 0.07843 0.0
H1619 H 0.56313 0.71092 0.04925 0.0
Gd1620 Gd 0.79248 0.27881 0.27611 0.0
Gd1621 Gd 0.84411 0.31818 0.27337 0.0
C1622 C 0.83028 0.39494 0.2791 0.0
C1623 C 0.82478 0.39828 0.23821 0.0
C1624 C 0.83317 0.36092 0.24831 0.0
C1625 C 0.83387 0.37096 0.27214 0.0
C1626 C 0.82903 0.37487 0.23122 0.0
C1627 C 0.82545 0.4083 0.26205 0.0
C1628 C 0.83161 0.4049 0.30306 0.0
C1629 C 0.83699 0.39142 0.31953 0.0
N1630 N 0.83805 0.35753 0.28852 0.0
C1631 C 0.84052 0.36789 0.31196 0.0
H1632 H 0.84578 0.35869 0.3252 0.0
C1633 C 0.84057 0.33011 0.21877 0.0
N1634 N 0.83751 0.33821 0.24182 0.0
C1635 C 0.83617 0.34304 0.20135 0.0
C1636 C 0.82992 0.36528 0.20753 0.0
H1637 H 0.84737 0.31428 0.21337 0.0
H1638 H 0.8224 0.42654 0.26715 0.0
H1639 H 0.80972 0.23268 0.24366 0.0
H1640 H 0.82888 0.42316 0.30902 0.0
H1641 H 0.83871 0.39925 0.33812 0.0
H1642 H 0.82138 0.40903 0.22527 0.0
H1643 H 0.75692 0.29148 0.31569 0.0
H1644 H 0.8028 0.17304 0.28068 0.0
H1645 H 0.81343 0.19065 0.24576 0.0
H1646 H 0.76601 0.20033 0.34741 0.0
H1647 H 0.83823 0.33612 0.1832 0.0
H1648 H 0.82682 0.37544 0.19397 0.0
H1649 H 0.78586 0.17723 0.31913 0.0
H1650 H 0.74016 0.27461 0.34862 0.0
N1651 N 0.79788 0.23923 0.27734 0.0
C1652 C 0.80123 0.19156 0.27988 0.0
C1653 C 0.80718 0.20139 0.26011 0.0
C1654 C 0.79243 0.20536 0.29791 0.0
C1655 C 0.7906 0.22932 0.29592 0.0
C1656 C 0.80518 0.2253 0.25904 0.0
N1657 N 0.77562 0.26397 0.30767 0.0
C1658 C 0.77919 0.24216 0.31168 0.0
C1659 C 0.7513 0.26544 0.33854 0.0
C1660 C 0.75606 0.24391 0.34396 0.0
C1661 C 0.76091 0.275 0.31992 0.0
C1662 C 0.76965 0.23162 0.33008 0.0
H1663 H 0.7484 0.2364 0.35824 0.0
O1664 O 0.75929 0.28359 0.26571 0.0
O1665 O 0.80606 0.31748 0.26816 0.0
O1666 O 0.84003 0.3171 0.31128 0.0
O1667 O 0.80575 0.2911 0.3139 0.0
O1668 O 0.78251 0.31434 0.29197 0.0
O1669 O 0.76878 0.24984 0.25178 0.0
O1670 O 0.87437 0.33265 0.25794 0.0
O1671 O 0.82996 0.27859 0.27733 0.0
O1672 O 0.80111 0.27462 0.23872 0.0
O1673 O 0.83932 0.2901 0.24066 0.0
O1674 O 0.86347 0.28776 0.27497 0.0
O1675 O 0.87438 0.33682 0.29647 0.0
C1676 C 0.7934 0.32985 0.28054 0.0
C1677 C 0.77298 0.2086 0.33321 0.0
C1678 C 0.7843 0.19545 0.31711 0.0
C1679 C 0.7527 0.2615 0.25336 0.0
C1680 C 0.73057 0.24781 0.25736 0.0
C1681 C 0.72801 0.22904 0.27053 0.0
C1682 C 0.71156 0.25418 0.24801 0.0
C1683 C 0.68998 0.24197 0.25162 0.0
C1684 C 0.70657 0.21692 0.27436 0.0
C1685 C 0.68759 0.22326 0.2649 0.0
C1686 C 0.82467 0.30639 0.32341 0.0
C1687 C 0.84805 0.26935 0.2779 0.0
C1688 C 0.88553 0.34114 0.27862 0.0
C1689 C 0.90911 0.35422 0.28157 0.0
C1690 C 0.91694 0.37111 0.26728 0.0
C1691 C 0.92391 0.34991 0.29883 0.0
C1692 C 0.94656 0.36238 0.30187 0.0
C1693 C 0.9394 0.38387 0.2705 0.0
C1694 C 0.95419 0.37959 0.28774 0.0
C1695 C 0.82031 0.27679 0.22943 0.0
H1696 H 0.74247 0.22369 0.27776 0.0
H1697 H 0.71362 0.26847 0.23757 0.0
H1698 H 0.70465 0.20254 0.28462 0.0
H1699 H 0.67109 0.21367 0.26805 0.0
H1700 H 0.90564 0.37461 0.25385 0.0
H1701 H 0.91786 0.33672 0.30977 0.0
H1702 H 0.9454 0.39698 0.25953 0.0
H1703 H 0.97166 0.3893 0.28968 0.0
Gd1704 Gd 0.06195 0.56234 0.50655 0.0
Gd1705 Gd 0.07662 0.53849 0.55945 0.0
C1706 C 0.14604 0.56787 0.60041 0.0
C1707 C 0.16143 0.53137 0.59538 0.0
C1708 C 0.12348 0.52907 0.57883 0.0
C1709 C 0.12589 0.55383 0.58738 0.0
C1710 C 0.14093 0.51733 0.5833 0.0
C1711 C 0.164 0.55663 0.60387 0.0
C1712 C 0.14732 0.5926 0.61002 0.0
C1713 C 0.1285 0.60242 0.60726 0.0
N1714 N 0.10815 0.56396 0.58372 0.0
C1715 C 0.10883 0.58765 0.59431 0.0
H1716 H 0.09455 0.59563 0.59219 0.0
C1717 C 0.09908 0.49111 0.5614 0.0
N1718 N 0.10352 0.51619 0.56719 0.0
C1719 C 0.11584 0.47855 0.56539 0.0
C1720 C 0.137 0.49177 0.57605 0.0
H1721 H 0.08271 0.48088 0.55315 0.0
H1722 H 0.17972 0.56717 0.61359 0.0
H1723 H 0.04584 0.50614 0.4721 0.0
H1724 H 0.16254 0.60407 0.62004 0.0
H1725 H 0.12914 0.6214 0.61499 0.0
H1726 H 0.17518 0.52277 0.59872 0.0
H1727 H 0.05326 0.61896 0.51913 0.0
H1728 H 0.98041 0.49909 0.43784 0.0
H1729 H 0.01331 0.4816 0.44507 0.0
H1730 H 0.9656 0.57891 0.46223 0.0
H1731 H 0.11242 0.45872 0.56024 0.0
H1732 H 0.14997 0.48203 0.57917 0.0
H1733 H 0.96281 0.53559 0.44423 0.0
H1734 H 0.02359 0.64091 0.51143 0.0
N1735 N 0.03146 0.5372 0.48081 0.0
C1736 C 0.99467 0.50998 0.44982 0.0
C1737 C 0.01323 0.50008 0.4538 0.0
C1738 C 0.99505 0.53412 0.46076 0.0
C1739 C 0.01397 0.54746 0.47629 0.0
C1740 C 0.03168 0.51411 0.46923 0.0
N1741 N 0.03453 0.58433 0.50009 0.0
C1742 C 0.01558 0.57183 0.48623 0.0
C1743 C 0.02109 0.62146 0.50429 0.0
C1744 C 1.00113 0.60866 0.49066 0.0
C1745 C 0.03784 0.60901 0.5086 0.0
C1746 C 0.99831 0.58361 0.48114 0.0
H1747 H 0.98823 0.61837 0.48721 0.0
O1748 O 0.07994 0.59189 0.49123 0.0
O1749 O 0.0874 0.5638 0.53538 0.0
O1750 O 0.06136 0.572 0.56742 0.0
O1751 O 0.039 0.57186 0.53344 0.0
O1752 O 0.08465 0.59711 0.52785 0.0
O1753 O 0.07614 0.55355 0.47385 0.0
O1754 O 0.05531 0.51037 0.57386 0.0
O1755 O 0.05179 0.53683 0.53014 0.0
O1756 O 0.07848 0.52998 0.49756 0.0
O1757 O 0.09677 0.52375 0.53204 0.0
O1758 O 0.05332 0.5038 0.53826 0.0
O1759 O 0.06475 0.54805 0.5935 0.0
C1760 C 0.09609 0.58646 0.54039 0.0
C1761 C 0.97912 0.57024 0.46626 0.0
C1762 C 0.97752 0.54555 0.45604 0.0
C1763 C 0.08351 0.5767 0.47296 0.0
C1764 C 0.08048 0.58327 0.45008 0.0
C1765 C 0.06349 0.59476 0.44391 0.0
C1766 C 0.09572 0.57806 0.43422 0.0
C1767 C 0.09493 0.58503 0.41231 0.0
C1768 C 0.0622 0.60132 0.42183 0.0
C1769 C 0.07791 0.59663 0.40609 0.0
C1770 C 0.04452 0.57831 0.55638 0.0
C1771 C 0.04256 0.51436 0.52492 0.0
C1772 C 0.05428 0.52542 0.59322 0.0
C1773 C 0.05663 0.51622 0.61484 0.0
C1774 C 0.0744 0.50554 0.62044 0.0
C1775 C 0.04003 0.51784 0.62994 0.0
C1776 C 0.04072 0.50872 0.65075 0.0
C1777 C 0.07527 0.4964 0.64124 0.0
C1778 C 0.05851 0.49799 0.65644 0.0
C1779 C 0.09285 0.52044 0.50895 0.0
H1780 H 0.05142 0.59871 0.45607 0.0
H1781 H 0.10829 0.56845 0.43911 0.0
H1782 H 0.04916 0.61029 0.417 0.0
H1783 H 0.07691 0.60234 0.38929 0.0
H1784 H 0.08744 0.50426 0.60885 0.0
H1785 H 0.0267 0.52671 0.62559 0.0
H1786 H 0.08895 0.48812 0.64562 0.0
H1787 H 0.05945 0.49091 0.67253 0.0
Gd1788 Gd 0.84534 0.7881 0.27865 0.0
Gd1789 Gd 0.79094 0.80425 0.27624 0.0
C1790 C 0.75477 0.79966 0.20364 0.0
C1791 C 0.75381 0.84233 0.20404 0.0
C1792 C 0.77027 0.8306 0.23823 0.0
C1793 C 0.76606 0.80655 0.22655 0.0
C1794 C 0.76345 0.84866 0.22749 0.0
C1795 C 0.74949 0.81782 0.1921 0.0
C1796 C 0.74793 0.77464 0.19361 0.0
C1797 C 0.75118 0.75725 0.20695 0.0
N1798 N 0.77081 0.78952 0.23856 0.0
C1799 C 0.76236 0.76505 0.22964 0.0
H1800 H 0.76479 0.75124 0.23948 0.0
C1801 C 0.77954 0.8582 0.27472 0.0
N1802 N 0.77897 0.83579 0.261 0.0
C1803 C 0.77313 0.87681 0.26487 0.0
C1804 C 0.76546 0.87217 0.24101 0.0
H1805 H 0.78571 0.86198 0.29313 0.0
H1806 H 0.74113 0.81294 0.17438 0.0
H1807 H 0.8712 0.84227 0.31447 0.0
H1808 H 0.73922 0.76855 0.17607 0.0
H1809 H 0.74524 0.73781 0.19972 0.0
H1810 H 0.74875 0.85601 0.19534 0.0
H1811 H 0.85074 0.73018 0.26381 0.0
H1812 H 0.89644 0.82712 0.37899 0.0
H1813 H 0.89024 0.85687 0.35425 0.0
H1814 H 0.88747 0.73967 0.36234 0.0
H1815 H 0.7742 0.89472 0.27566 0.0
H1816 H 0.76037 0.88655 0.23344 0.0
H1817 H 0.89484 0.78314 0.38205 0.0
H1818 H 0.86223 0.69831 0.28268 0.0
N1819 N 0.86555 0.80415 0.31627 0.0
C1820 C 0.88795 0.82049 0.36139 0.0
C1821 C 0.88459 0.83731 0.34745 0.0
C1822 C 0.88141 0.79531 0.35196 0.0
C1823 C 0.87035 0.78768 0.32897 0.0
C1824 C 0.87368 0.8288 0.32469 0.0
N1825 N 0.85755 0.75742 0.29521 0.0
C1826 C 0.86623 0.7634 0.318 0.0
C1827 C 0.86333 0.71651 0.29289 0.0
C1828 C 0.87097 0.72199 0.31679 0.0
C1829 C 0.85697 0.73464 0.28224 0.0
C1830 C 0.87298 0.74584 0.32954 0.0
H1831 H 0.876 0.70797 0.32499 0.0
O1832 O 0.86586 0.77343 0.25267 0.0
O1833 O 0.81727 0.79283 0.25454 0.0
O1834 O 0.78564 0.7625 0.27683 0.0
O1835 O 0.8202 0.75345 0.28552 0.0
O1836 O 0.82904 0.76102 0.24622 0.0
O1837 O 0.87543 0.81141 0.26948 0.0
O1838 O 0.77124 0.81775 0.30371 0.0
O1839 O 0.81893 0.79928 0.30038 0.0
O1840 O 0.85044 0.8298 0.27767 0.0
O1841 O 0.81586 0.83879 0.26895 0.0
O1842 O 0.80737 0.83129 0.30846 0.0
O1843 O 0.7598 0.78119 0.28356 0.0
C1844 C 0.8153 0.77318 0.23927 0.0
C1845 C 0.88248 0.75294 0.35304 0.0
C1846 C 0.88666 0.77768 0.36426 0.0
C1847 C 0.88083 0.79391 0.25487 0.0
C1848 C 0.90468 0.79239 0.25705 0.0
C1849 C 0.91393 0.7873 0.27778 0.0
C1850 C 0.91851 0.7966 0.23876 0.0
C1851 C 0.94157 0.79623 0.24157 0.0
C1852 C 0.93653 0.78656 0.28048 0.0
C1853 C 0.95025 0.79108 0.26265 0.0
C1854 C 0.79775 0.74672 0.28185 0.0
C1855 C 0.82095 0.81902 0.31555 0.0
C1856 C 0.75533 0.79789 0.29982 0.0
C1857 C 0.73196 0.80115 0.29855 0.0
C1858 C 0.72349 0.8094 0.27924 0.0
C1859 C 0.71782 0.79562 0.3163 0.0
C1860 C 0.69523 0.79791 0.31431 0.0
C1861 C 0.70139 0.81207 0.27742 0.0
C1862 C 0.68736 0.8063 0.29468 0.0
C1863 C 0.83829 0.84558 0.27268 0.0
H1864 H 0.9037 0.78406 0.29197 0.0
H1865 H 0.91151 0.80069 0.22272 0.0
H1866 H 0.9435 0.7826 0.29656 0.0
H1867 H 0.96774 0.79039 0.26529 0.0
H1868 H 0.73394 0.81366 0.26548 0.0
H1869 H 0.72422 0.78914 0.33125 0.0
H1870 H 0.69506 0.81855 0.26247 0.0
H1871 H 0.67029 0.80863 0.29277 0.0
Gd1872 Gd 0.80995 0.3103 0.79647 0.0
Gd1873 Gd 0.83566 0.28801 0.74384 0.0
C1874 C 0.79682 0.21061 0.7063 0.0
C1875 C 0.819 0.18448 0.72061 0.0
C1876 C 0.83085 0.22908 0.73212 0.0
C1877 C 0.81224 0.23166 0.7192 0.0
C1878 C 0.83509 0.20549 0.7319 0.0
C1879 C 0.79984 0.18705 0.70783 0.0
C1880 C 0.77942 0.21386 0.69139 0.0
C1881 C 0.77898 0.23748 0.68804 0.0
N1882 N 0.81024 0.25477 0.71768 0.0
C1883 C 0.79512 0.25762 0.70065 0.0
H1884 H 0.79573 0.27519 0.69601 0.0
C1885 C 0.86759 0.24804 0.74867 0.0
N1886 N 0.8461 0.24974 0.74258 0.0
C1887 C 0.87267 0.22525 0.74917 0.0
C1888 C 0.85603 0.20381 0.74155 0.0
H1889 H 0.88104 0.26426 0.75297 0.0
H1890 H 0.78799 0.17074 0.69831 0.0
H1891 H 0.8639 0.33882 0.815 0.0
H1892 H 0.76713 0.19822 0.68135 0.0
H1893 H 0.76656 0.24015 0.67528 0.0
H1894 H 0.82175 0.16624 0.72069 0.0
H1895 H 0.75702 0.3148 0.79178 0.0
H1896 H 0.8647 0.40693 0.86032 0.0
H1897 H 0.88476 0.37629 0.8418 0.0
H1898 H 0.78732 0.4116 0.85509 0.0
H1899 H 0.88952 0.22425 0.75494 0.0
H1900 H 0.86003 0.1861 0.74159 0.0
H1901 H 0.82794 0.41921 0.86621 0.0
H1902 H 0.73399 0.34392 0.80681 0.0
N1903 N 0.83209 0.34816 0.81737 0.0
C1904 C 0.85541 0.39065 0.84821 0.0
C1905 C 0.86677 0.37333 0.83789 0.0
C1906 C 0.83219 0.38663 0.84284 0.0
C1907 C 0.82096 0.36512 0.8269 0.0
C1908 C 0.85477 0.35196 0.8227 0.0
N1909 N 0.78802 0.33911 0.80657 0.0
C1910 C 0.79816 0.36057 0.82105 0.0
C1911 C 0.75206 0.34898 0.81078 0.0
C1912 C 0.76237 0.37149 0.82522 0.0
C1913 C 0.76516 0.33268 0.80205 0.0
C1914 C 0.78566 0.37731 0.83094 0.0
H1915 H 0.75217 0.38387 0.83242 0.0
O1916 O 0.78353 0.28946 0.81295 0.0
O1917 O 0.81366 0.27764 0.77075 0.0
O1918 O 0.80364 0.30088 0.73222 0.0
O1919 O 0.79155 0.32182 0.76608 0.0
O1920 O 0.7812 0.28184 0.77621 0.0
O1921 O 0.81698 0.303 0.83119 0.0
O1922 O 0.87106 0.30133 0.74091 0.0
O1923 O 0.83659 0.31879 0.77348 0.0
O1924 O 0.84029 0.29765 0.80966 0.0
O1925 O 0.85813 0.28624 0.77665 0.0
O1926 O 0.8381 0.32729 0.74006 0.0
O1927 O 0.84766 0.28765 0.70943 0.0
C1928 C 0.79301 0.26788 0.76565 0.0
C1929 C 0.79664 0.39867 0.84701 0.0
C1930 C 0.81981 0.40308 0.85324 0.0
C1931 C 0.79649 0.29119 0.83194 0.0
C1932 C 0.78693 0.29544 0.85417 0.0
C1933 C 0.77753 0.3156 0.86162 0.0
C1934 C 0.78689 0.27781 0.86796 0.0
C1935 C 0.77682 0.27934 0.88895 0.0
C1936 C 0.76795 0.31772 0.88297 0.0
C1937 C 0.76752 0.29961 0.89665 0.0
C1938 C 0.78993 0.31406 0.74277 0.0
C1939 C 0.8382 0.33599 0.76212 0.0
C1940 C 0.86825 0.29851 0.71813 0.0
C1941 C 0.8795 0.31953 0.70835 0.0
C1942 C 0.903 0.32565 0.70981 0.0
C1943 C 0.86713 0.33363 0.69777 0.0
C1944 C 0.87803 0.35326 0.6878 0.0
C1945 C 0.91402 0.3454 0.7004 0.0
C1946 C 0.90169 0.35898 0.68926 0.0
C1947 C 0.85692 0.28968 0.79977 0.0
H1948 H 0.77752 0.3295 0.85107 0.0
H1949 H 0.79479 0.26267 0.86216 0.0
H1950 H 0.76067 0.33326 0.88881 0.0
H1951 H 0.75972 0.30126 0.91293 0.0
H1952 H 0.91279 0.31508 0.71814 0.0
H1953 H 0.84901 0.32917 0.69726 0.0
H1954 H 0.93218 0.34993 0.7014 0.0
H1955 H 0.91076 0.37351 0.68128 0.0
Gd1956 Gd 0.79806 0.77032 0.76273 0.0
Gd1957 Gd 0.83583 0.82777 0.79214 0.0
C1958 C 0.90799 0.83131 0.7731 0.0
C1959 C 0.92517 0.81855 0.80611 0.0
C1960 C 0.88561 0.82007 0.80422 0.0
C1961 C 0.88719 0.82772 0.78286 0.0
C1962 C 0.90484 0.816 0.81629 0.0
C1963 C 0.92682 0.82655 0.78476 0.0
C1964 C 0.9096 0.84052 0.75235 0.0
C1965 C 0.89116 0.84722 0.74247 0.0
N1966 N 0.86892 0.83321 0.77239 0.0
C1967 C 0.87116 0.8441 0.75309 0.0
H1968 H 0.8581 0.85148 0.74596 0.0
C1969 C 0.86613 0.81794 0.83776 0.0
N1970 N 0.86607 0.81902 0.81431 0.0
C1971 C 0.88435 0.81297 0.85007 0.0
C1972 C 0.90363 0.81131 0.83906 0.0
H1973 H 0.85253 0.82174 0.84762 0.0
H1974 H 0.94298 0.82989 0.77783 0.0
H1975 H 0.7759 0.74086 0.80554 0.0
H1976 H 0.92522 0.84334 0.74429 0.0
H1977 H 0.8925 0.85542 0.72697 0.0
H1978 H 0.94004 0.8156 0.81519 0.0
H1979 H 0.77978 0.78037 0.70896 0.0
H1980 H 0.71027 0.7526 0.81316 0.0
H1981 H 0.74229 0.73644 0.82621 0.0
H1982 H 0.69501 0.78911 0.74773 0.0
H1983 H 0.88379 0.81136 0.86835 0.0
H1984 H 0.91801 0.80816 0.84886 0.0
H1985 H 0.6929 0.77233 0.78395 0.0
H1986 H 0.74858 0.79369 0.69137 0.0
N1987 N 0.76519 0.76288 0.78266 0.0
C1988 C 0.72546 0.75537 0.80436 0.0
C1989 C 0.74353 0.74639 0.81187 0.0
C1990 C 0.72684 0.76683 0.78491 0.0
C1991 C 0.74708 0.77013 0.7741 0.0
C1992 C 0.76305 0.74972 0.80041 0.0
N1993 N 0.76738 0.78084 0.74278 0.0
C1994 C 0.74832 0.7797 0.75376 0.0
C1995 C 0.74851 0.79059 0.70924 0.0
C1996 C 0.72993 0.79239 0.7215 0.0
C1997 C 0.76671 0.78384 0.71981 0.0
C1998 C 0.72925 0.78592 0.74362 0.0
H1999 H 0.71564 0.79717 0.71311 0.0
O2000 O 0.79767 0.74787 0.72819 0.0
O2001 O 0.83284 0.79316 0.76658 0.0
O2002 O 0.82385 0.83454 0.75655 0.0
O2003 O 0.81066 0.79427 0.73613 0.0
O2004 O 0.82952 0.75686 0.76935 0.0
O2005 O 0.78303 0.7313 0.75616 0.0
O2006 O 0.83582 0.85183 0.82569 0.0
O2007 O 0.80119 0.80487 0.78854 0.0
O2008 O 0.80971 0.76357 0.79835 0.0
O2009 O 0.82331 0.80371 0.81893 0.0
O2010 O 0.80444 0.84121 0.78569 0.0
O2011 O 0.85154 0.86654 0.79721 0.0
C2012 C 0.84373 0.77706 0.76873 0.0
C2013 C 0.70964 0.78409 0.75512 0.0
C2014 C 0.70841 0.77447 0.77569 0.0
C2015 C 0.78879 0.72751 0.73483 0.0
C2016 C 0.79992 0.70715 0.72862 0.0
C2017 C 0.79705 0.69403 0.70538 0.0
C2018 C 0.81345 0.70068 0.7457 0.0
C2019 C 0.82403 0.68131 0.73961 0.0
C2020 C 0.80756 0.67453 0.69933 0.0
C2021 C 0.82099 0.6681 0.71641 0.0
C2022 C 0.81685 0.81833 0.7367 0.0
C2023 C 0.79036 0.82103 0.78658 0.0
C2024 C 0.84565 0.87148 0.8184 0.0
C2025 C 0.83566 0.8928 0.82378 0.0
C2026 C 0.84052 0.90781 0.84622 0.0
C2027 C 0.82151 0.89851 0.80672 0.0
C2028 C 0.81238 0.91912 0.81209 0.0
C2029 C 0.83143 0.92849 0.85153 0.0
C2030 C 0.81745 0.93421 0.83449 0.0
C2031 C 0.81675 0.77964 0.81827 0.0
H2032 H 0.78665 0.69883 0.69198 0.0
H2033 H 0.81553 0.71035 0.76382 0.0
H2034 H 0.80525 0.66437 0.68141 0.0
H2035 H 0.82899 0.65289 0.71159 0.0
H2036 H 0.85143 0.90361 0.85956 0.0
H2037 H 0.81792 0.88733 0.78919 0.0
H2038 H 0.83528 0.94011 0.86883 0.0
H2039 H 0.81053 0.95033 0.83876 0.0
Gd2040 Gd 0.59315 0.56693 0.53815 0.0
Gd2041 Gd 0.54312 0.52924 0.50876 0.0
C2042 C 0.52765 0.44522 0.49979 0.0
C2043 C 0.52328 0.43222 0.4573 0.0
C2044 C 0.53169 0.47573 0.47509 0.0
C2045 C 0.53239 0.47003 0.49716 0.0
C2046 C 0.52646 0.45689 0.45486 0.0
C2047 C 0.52387 0.42638 0.47976 0.0
C2048 C 0.52564 0.44006 0.52236 0.0
C2049 C 0.52719 0.45934 0.54139 0.0
N2050 N 0.53554 0.48868 0.51603 0.0
C2051 C 0.53171 0.4836 0.53781 0.0
H2052 H 0.53279 0.49819 0.55277 0.0
C2053 C 0.52982 0.5059 0.4522 0.0
N2054 N 0.5341 0.49967 0.47348 0.0
C2055 C 0.52485 0.48794 0.43161 0.0
C2056 C 0.52352 0.46334 0.43289 0.0
H2057 H 0.53067 0.52482 0.45093 0.0
H2058 H 0.52048 0.40724 0.48144 0.0
H2059 H 0.6035 0.60171 0.49711 0.0
H2060 H 0.52201 0.42127 0.52514 0.0
H2061 H 0.52494 0.45557 0.55884 0.0
H2062 H 0.51949 0.4175 0.44198 0.0
H2063 H 0.60944 0.56826 0.59537 0.0
H2064 H 0.60797 0.67662 0.52931 0.0
H2065 H 0.60868 0.64529 0.49405 0.0
H2066 H 0.61031 0.67406 0.6112 0.0
H2067 H 0.52197 0.49308 0.41479 0.0
H2068 H 0.51945 0.44942 0.41695 0.0
H2069 H 0.60794 0.68709 0.57311 0.0
H2070 H 0.61648 0.59788 0.63283 0.0
N2071 N 0.59801 0.60791 0.53333 0.0
C2072 C 0.60536 0.65743 0.5307 0.0
C2073 C 0.60587 0.63984 0.51078 0.0
C2074 C 0.60313 0.65027 0.55248 0.0
C2075 C 0.59986 0.62504 0.55334 0.0
C2076 C 0.60276 0.61509 0.51256 0.0
N2077 N 0.60136 0.59375 0.57504 0.0
C2078 C 0.60157 0.61773 0.57487 0.0
C2079 C 0.61199 0.60363 0.61672 0.0
C2080 C 0.61062 0.62793 0.61709 0.0
C2081 C 0.60778 0.58681 0.59539 0.0
C2082 C 0.60604 0.63544 0.59595 0.0
H2083 H 0.6142 0.641 0.63362 0.0
O2084 O 0.62069 0.54807 0.5362 0.0
O2085 O 0.57541 0.52702 0.52756 0.0
O2086 O 0.53724 0.54024 0.54889 0.0
O2087 O 0.56848 0.56952 0.56757 0.0
O2088 O 0.58993 0.53925 0.5619 0.0
O2089 O 0.62737 0.58745 0.53895 0.0
O2090 O 0.5151 0.54086 0.49318 0.0
O2091 O 0.5609 0.5693 0.51958 0.0
O2092 O 0.59803 0.55781 0.49756 0.0
O2093 O 0.56918 0.52437 0.48102 0.0
O2094 O 0.54744 0.55698 0.48505 0.0
O2095 O 0.51065 0.52198 0.52243 0.0
C2096 C 0.57912 0.52003 0.54708 0.0
C2097 C 0.60717 0.66027 0.59517 0.0
C2098 C 0.60577 0.66768 0.57346 0.0
C2099 C 0.63589 0.56837 0.53853 0.0
C2100 C 0.65601 0.5712 0.55458 0.0
C2101 C 0.66171 0.5896 0.57496 0.0
C2102 C 0.6707 0.55608 0.5481 0.0
C2103 C 0.69144 0.55955 0.56126 0.0
C2104 C 0.68203 0.59267 0.58864 0.0
C2105 C 0.69694 0.57783 0.5818 0.0
C2106 C 0.54769 0.55622 0.56829 0.0
C2107 C 0.55754 0.57628 0.50003 0.0
C2108 C 0.50129 0.53206 0.50726 0.0
C2109 C 0.47867 0.51969 0.4968 0.0
C2110 C 0.47351 0.49564 0.48369 0.0
C2111 C 0.46202 0.53302 0.49961 0.0
C2112 C 0.44005 0.52261 0.48937 0.0
C2113 C 0.45159 0.48509 0.47336 0.0
C2114 C 0.4349 0.49851 0.47609 0.0
C2115 C 0.58885 0.53955 0.47923 0.0
H2116 H 0.65076 0.60185 0.58007 0.0
H2117 H 0.66606 0.54182 0.53239 0.0
H2118 H 0.68646 0.60694 0.60428 0.0
H2119 H 0.71295 0.58109 0.5922 0.0
H2120 H 0.48634 0.48517 0.48137 0.0
H2121 H 0.46633 0.5518 0.50945 0.0
H2122 H 0.44754 0.46652 0.46319 0.0
H2123 H 0.41799 0.49003 0.46805 0.0
Gd2124 Gd 0.03751 0.55019 0.03479 0.0
Gd2125 Gd 0.09208 0.54808 0.01637 0.0
C2126 C 0.1396 0.62368 0.03095 0.0
C2127 C 0.14756 0.62953 0.99154 0.0
C2128 C 0.1228 0.5918 0.99724 0.0
C2129 C 0.12547 0.6005 0.02134 0.0
C2130 C 0.13432 0.60593 0.98215 0.0
C2131 C 0.15017 0.6384 0.01588 0.0
C2132 C 0.14331 0.631 0.05545 0.0
C2133 C 0.13366 0.61498 0.06969 0.0
N2134 N 0.11532 0.5857 0.03546 0.0
C2135 C 0.11976 0.59215 0.05932 0.0
H2136 H 0.11234 0.57986 0.07038 0.0
C2137 C 0.1098 0.55799 0.96568 0.0
N2138 N 0.11017 0.56881 0.98874 0.0
C2139 C 0.12077 0.57136 0.94999 0.0
C2140 C 0.13284 0.59556 0.9582 0.0
H2141 H 0.10044 0.53926 0.95935 0.0
H2142 H 0.16091 0.65636 0.02293 0.0
H2143 H 1.00496 0.51778 0.98498 0.0
H2144 H 0.15404 0.64868 0.06352 0.0
H2145 H 0.13679 0.62024 0.08864 0.0
H2146 H 0.15637 0.64077 0.9802 0.0
H2147 H 0.03487 0.55846 0.09421 0.0
H2148 H 0.97792 0.44532 0.99608 0.0
H2149 H 0.9829 0.47583 0.9701 0.0
H2150 H 0.99491 0.45196 0.0787 0.0
H2151 H 0.11998 0.56297 0.93162 0.0
H2152 H 0.14147 0.60582 0.94604 0.0
H2153 H 0.98315 0.43635 0.03656 0.0
H2154 H 0.0256 0.53281 0.12387 0.0
N2155 N 0.01363 0.51129 0.01917 0.0
C2156 C 0.98779 0.4638 1.00279 0.0
C2157 C 0.99052 0.48098 0.9881 0.0
C2158 C 0.9968 0.47107 0.02632 0.0
C2159 C 0.00952 0.49539 0.03419 0.0
C2160 C 1.00334 0.50483 0.99666 0.0
N2161 N 0.02634 0.52829 0.06503 0.0
C2162 C 0.01618 0.50415 0.05788 0.0
C2163 C 0.02313 0.52442 0.10538 0.0
C2164 C 0.0145 0.49916 0.09832 0.0
C2165 C 0.02845 0.53886 0.08844 0.0
C2166 C 0.01026 0.48884 0.07432 0.0
H2167 H 0.01018 0.48803 0.11148 0.0
O2168 O 0.02183 0.57452 0.05804 0.0
O2169 O 0.07321 0.57307 0.03779 0.0
O2170 O 0.08352 0.5305 0.04721 0.0
O2171 O 0.06298 0.55558 0.06607 0.0
O2172 O 0.0476 0.58837 0.02727 0.0
O2173 O 1.00609 0.55841 0.02274 0.0
O2174 O 0.11094 0.5222 1.00004 0.0
O2175 O 0.05873 0.5241 0.01965 0.0
O2176 O 0.03712 0.54955 0.99618 0.0
O2177 O 0.07438 0.56322 0.98926 0.0
O2178 O 0.0724 0.51735 0.98795 0.0
O2179 O 0.11997 0.54023 0.0363 0.0
C2180 C 0.06887 0.59273 0.0326 0.0
C2181 C 0.99924 0.46408 0.06636 0.0
C2182 C 0.99253 0.4552 0.04237 0.0
C2183 C 1.00492 0.57274 0.04257 0.0
C2184 C 0.98259 0.57153 0.05108 0.0
C2185 C 0.97542 0.55696 0.06752 0.0
C2186 C 0.96868 0.58609 0.04335 0.0
C2187 C 0.94784 0.58664 0.05245 0.0
C2188 C 0.95499 0.55744 0.07671 0.0
C2189 C 0.94145 0.57228 0.06952 0.0
C2190 C 0.07705 0.54109 0.06666 0.0
C2191 C 0.05611 0.50932 0.99979 0.0
C2192 C 0.12468 0.525 0.01881 0.0
C2193 C 0.14865 0.52722 0.01559 0.0
C2194 C 0.16134 0.54856 0.00967 0.0
C2195 C 0.15918 0.50816 0.01931 0.0
C2196 C 0.18242 0.51079 0.01766 0.0
C2197 C 0.18428 0.55107 1.00771 0.0
C2198 C 0.1948 0.53243 0.01183 0.0
C2199 C 0.05261 0.55926 0.98364 0.0
H2200 H 0.98572 0.54549 0.0735 0.0
H2201 H 0.97419 0.59688 0.03024 0.0
H2202 H 0.94972 0.54645 0.08973 0.0
H2203 H 0.92609 0.57267 0.0777 0.0
H2204 H 0.15359 0.56336 1.00678 0.0
H2205 H 0.14948 0.49165 0.02398 0.0
H2206 H 0.19398 0.56761 1.00315 0.0
H2207 H 0.21265 0.53482 0.01033 0.0
H2208 H 0.02068 0.18335 0.91907 0.0
H2209 H 0.04199 0.22633 0.98868 0.0
H2210 H 0.02764 0.14693 0.93244 0.0
H2211 H 0.04974 0.19008 1.0021 0.0
H2212 H 0.04704 0.11451 0.02536 0.0
H2213 H 0.03957 0.15192 0.01357 0.0
H2214 H 0.05221 0.1246 0.94257 0.0
H2215 H 0.05902 0.08756 0.95433 0.0
C2216 C 0.02694 0.18517 0.93728 0.0
C2217 C 0.03066 0.20823 0.95259 0.0
C2218 C 0.03123 0.16405 0.94509 0.0
C2219 C 0.03963 0.16485 0.96862 0.0
C2220 C 0.04313 0.18799 0.98397 0.0
C2221 C 0.03875 0.2091 0.97615 0.0
C2222 C 0.04836 0.1166 1.00728 0.0
C2223 C 0.05389 0.09773 0.99093 0.0
C2224 C 0.04406 0.13827 1.00036 0.0
C2225 C 0.04487 0.14191 0.97675 0.0
C2226 C 0.05069 0.12296 0.96071 0.0
C2227 C 0.0549 0.10149 0.96758 0.0
H2228 H 0.18772 0.81287 0.12844 0.0
H2229 H 0.16285 0.84746 0.19041 0.0
H2230 H 0.22048 0.80907 0.15257 0.0
H2231 H 0.19571 0.84435 0.21447 0.0
H2232 H 0.24428 0.81272 0.25641 0.0
H2233 H 0.21294 0.81826 0.23184 0.0
H2234 H 0.25508 0.82582 0.17536 0.0
H2235 H 0.28653 0.82014 0.20022 0.0
C2236 C 0.18939 0.82014 0.14716 0.0
C2237 C 0.17242 0.83065 0.15723 0.0
C2238 C 0.20836 0.81797 0.16117 0.0
C2239 C 0.21116 0.82618 0.18588 0.0
C2240 C 0.19435 0.83724 0.19576 0.0
C2241 C 0.17543 0.83935 0.18178 0.0
C2242 C 0.24717 0.81626 0.23902 0.0
C2243 C 0.26846 0.81673 0.23083 0.0
C2244 C 0.22893 0.81932 0.22466 0.0
C2245 C 0.23104 0.8229 0.20131 0.0
C2246 C 0.25233 0.82301 0.19301 0.0
C2247 C 0.2706 0.81989 0.20743 0.0
H2248 H 0.56604 0.85792 0.46797 0.0
H2249 H 0.49579 0.85354 0.45052 0.0
H2250 H 0.57101 0.9015 0.48686 0.0
H2251 H 0.50093 0.89708 0.46816 0.0
H2252 H 0.53452 0.98093 0.46403 0.0
H2253 H 0.52568 0.93597 0.45361 0.0
H2254 H 0.55559 0.93272 0.52174 0.0
H2255 H 0.56342 0.97804 0.53263 0.0
C2256 C 0.55154 0.86601 0.46869 0.0
C2257 C 0.53049 0.85207 0.45765 0.0
C2258 C 0.55441 0.89108 0.47939 0.0
C2259 C 0.5364 0.903 0.4789 0.0
C2260 C 0.51522 0.88869 0.46874 0.0
C2261 C 0.51229 0.86365 0.45853 0.0
C2262 C 0.53844 0.97063 0.47715 0.0
C2263 C 0.54893 0.98319 0.49947 0.0
C2264 C 0.53355 0.94479 0.47109 0.0
C2265 C 0.53994 0.93054 0.48675 0.0
C2266 C 0.55038 0.94302 0.50923 0.0
C2267 C 0.55459 0.96899 0.5156 0.0
H2268 H 0.51642 0.30665 0.61534 0.0
H2269 H 0.56527 0.31616 0.67493 0.0
H2270 H 0.48648 0.30436 0.64128 0.0
H2271 H 0.53542 0.3127 0.70067 0.0
H2272 H 0.4816 0.32457 0.747 0.0
H2273 H 0.50988 0.33117 0.71971 0.0
H2274 H 0.46416 0.28091 0.66399 0.0
H2275 H 0.43547 0.2754 0.69142 0.0
C2276 C 0.52082 0.30824 0.63399 0.0
C2277 C 0.54343 0.3118 0.64295 0.0
C2278 C 0.50353 0.3067 0.64893 0.0
C2279 C 0.50823 0.30841 0.67333 0.0
C2280 C 0.5309 0.3119 0.68219 0.0
C2281 C 0.54817 0.31375 0.66732 0.0
C2282 C 0.47751 0.3152 0.72882 0.0
C2283 C 0.4563 0.2994 0.72143 0.0
C2284 C 0.49387 0.31873 0.71312 0.0
C2285 C 0.48977 0.30622 0.6895 0.0
C2286 C 0.46814 0.29108 0.68189 0.0
C2287 C 0.45158 0.28785 0.69762 0.0
H2288 H 0.05574 0.85828 0.65794 0.0
H2289 H 1.00104 0.80893 0.61117 0.0
H2290 H 0.06464 0.88209 0.62753 0.0
H2291 H 1.00874 0.83384 0.58129 0.0
H2292 H 0.04479 0.86329 0.52301 0.0
H2293 H 0.03485 0.84094 0.5544 0.0
H2294 H 0.05516 0.90901 0.60549 0.0
H2295 H 0.06722 0.93071 0.57454 0.0
C2296 C 0.04528 0.85286 0.64134 0.0
C2297 C 0.028 0.83149 0.63676 0.0
C2298 C 0.05027 0.86663 0.62389 0.0
C2299 C 0.03763 0.8597 0.60173 0.0
C2300 C 0.01931 0.83927 0.59783 0.0
C2301 C 0.01471 0.82516 0.61506 0.0
C2302 C 0.04756 0.87335 0.54099 0.0
C2303 C 0.05673 0.89878 0.54618 0.0
C2304 C 0.04143 0.86064 0.559 0.0
C2305 C 0.04399 0.87319 0.58255 0.0
C2306 C 0.05318 0.89863 0.58767 0.0
C2307 C 0.05977 0.91118 0.56978 0.0
H2308 H 0.55716 0.86952 0.90372 0.0
H2309 H 0.55751 0.81244 0.84407 0.0
H2310 H 0.52132 0.87488 0.8871 0.0
H2311 H 0.5224 0.81836 0.82668 0.0
H2312 H 0.4516 0.8237 0.80782 0.0
H2313 H 0.48404 0.81481 0.82761 0.0
H2314 H 0.50896 0.89241 0.85626 0.0
H2315 H 0.47567 0.90106 0.8376 0.0
C2316 C 0.54944 0.85816 0.88703 0.0
C2317 C 0.56027 0.84139 0.87452 0.0
C2318 C 0.52909 0.86132 0.87739 0.0
C2319 C 0.51925 0.84754 0.85524 0.0
C2320 C 0.52941 0.82933 0.84374 0.0
C2321 C 0.54968 0.82616 0.85346 0.0
C2322 C 0.46391 0.83884 0.81855 0.0
C2323 C 0.46096 0.86307 0.82138 0.0
C2324 C 0.48266 0.83377 0.82969 0.0
C2325 C 0.49909 0.85286 0.84367 0.0
C2326 C 0.49641 0.87718 0.84601 0.0
C2327 C 0.47753 0.88223 0.83499 0.0
H2328 H 0.48593 0.174 0.15503 0.0
H2329 H 0.51841 0.20979 0.10232 0.0
H2330 H 0.49101 0.13414 0.13373 0.0
H2331 H 0.52215 0.17035 0.0806 0.0
H2332 H 0.55113 0.0937 0.0997 0.0
H2333 H 0.5349 0.1249 0.12247 0.0
H2334 H 0.49102 0.12424 0.06132 0.0
H2335 H 0.50632 0.09226 0.03864 0.0
C2336 C 0.49348 0.17315 0.13859 0.0
C2337 C 0.50088 0.19456 0.12963 0.0
C2338 C 0.49632 0.15056 0.1265 0.0
C2339 C 0.50641 0.14941 0.10538 0.0
C2340 C 0.51375 0.17084 0.09653 0.0
C2341 C 0.51144 0.19329 0.10883 0.0
C2342 C 0.53764 0.09971 0.09121 0.0
C2343 C 0.53054 0.09112 0.06714 0.0
C2344 C 0.52825 0.11736 0.10433 0.0
C2345 C 0.5118 0.1267 0.0935 0.0
C2346 C 0.50366 0.11707 0.06993 0.0
C2347 C 0.5127 0.0991 0.05692 0.0
H2348 H 0.17686 0.37027 0.34336 0.0
H2349 H 0.17032 0.29917 0.36287 0.0
H2350 H 0.21037 0.36535 0.32467 0.0
H2351 H 0.20364 0.29364 0.34312 0.0
H2352 H 0.27623 0.30407 0.32388 0.0
H2353 H 0.2437 0.30861 0.34487 0.0
H2354 H 0.2191 0.34178 0.28991 0.0
H2355 H 0.25235 0.33817 0.26955 0.0
C2356 C 0.18264 0.35352 0.34356 0.0
C2357 C 0.17099 0.33497 0.3543 0.0
C2358 C 0.20171 0.35061 0.33269 0.0
C2359 C 0.20936 0.32891 0.332 0.0
C2360 C 0.19815 0.31062 0.34346 0.0
C2361 C 0.17914 0.31373 0.35473 0.0
C2362 C 0.26375 0.31218 0.31628 0.0
C2363 C 0.26636 0.32038 0.29493 0.0
C2364 C 0.24513 0.31472 0.32825 0.0
C2365 C 0.22884 0.32552 0.31906 0.0
C2366 C 0.23156 0.33371 0.29764 0.0
C2367 C 0.25039 0.33151 0.28586 0.0
H2368 H 0.01117 0.08573 0.21952 0.0
H2369 H 0.94724 0.04956 0.18124 0.0
H2370 H 0.02911 0.08195 0.18295 0.0
H2371 H 0.96499 0.04584 0.14439 0.0
H2372 H 1.00202 0.03069 0.0763 0.0
H2373 H 0.98375 0.03438 0.11278 0.0
H2374 H 0.04292 0.08666 0.14821 0.0
H2375 H 0.0609 0.08279 0.11175 0.0
C2376 C 1.00061 0.07702 0.20335 0.0
C2377 C 0.97716 0.06823 0.20453 0.0
C2378 C 0.01117 0.07481 0.18166 0.0
C2379 C 0.99926 0.06347 0.1591 0.0
C2380 C 0.97572 0.05463 0.16039 0.0
C2381 C 0.96515 0.05693 0.18212 0.0
C2382 C 0.01138 0.04308 0.09175 0.0
C2383 C 0.03361 0.05627 0.08986 0.0
C2384 C 1.00059 0.04537 0.11333 0.0
C2385 C 0.01109 0.06096 0.13505 0.0
C2386 C 0.03338 0.07411 0.133 0.0
C2387 C 0.04408 0.07191 0.11141 0.0
H2388 H 0.26551 0.63771 0.43564 0.0
H2389 H 0.31627 0.69743 0.47731 0.0
H2390 H 0.26531 0.6606 0.40432 0.0
H2391 H 0.31675 0.72012 0.44525 0.0
H2392 H 0.28021 0.76387 0.40031 0.0
H2393 H 0.29181 0.74138 0.42919 0.0
H2394 H 0.28409 0.67682 0.37438 0.0
H2395 H 0.27136 0.69921 0.34588 0.0
C2396 C 0.27702 0.65553 0.43793 0.0
C2397 C 0.2907 0.66586 0.45909 0.0
C2398 C 0.27708 0.66861 0.4198 0.0
C2399 C 0.29105 0.69222 0.42223 0.0
C2400 C 0.30558 0.7021 0.44296 0.0
C2401 C 0.30534 0.68908 0.46129 0.0
C2402 C 0.28144 0.74501 0.39449 0.0
C2403 C 0.27457 0.73299 0.37113 0.0
C2404 C 0.28823 0.73215 0.41094 0.0
C2405 C 0.28852 0.70716 0.40416 0.0
C2406 C 0.28347 0.69586 0.38028 0.0
C2407 C 0.27629 0.7086 0.36396 0.0
H2408 H 0.68627 0.06392 0.66906 0.0
H2409 H 0.6393 1.00619 0.69183 0.0
H2410 H 0.65771 0.06544 0.63844 0.0
H2411 H 0.61089 1.00759 0.661 0.0
H2412 H 0.58445 1.0038 0.58061 0.0
H2413 H 0.60826 0.99999 0.61436 0.0
H2414 H 0.61753 0.07775 0.64184 0.0
H2415 H 0.59317 0.08145 0.60814 0.0
C2416 C 0.67006 0.05115 0.6671 0.0
C2417 C 0.66489 0.0349 0.68266 0.0
C2418 C 0.65368 0.05234 0.64995 0.0
C2419 C 0.63215 0.03701 0.64797 0.0
C2420 C 0.62739 0.01972 0.66254 0.0
C2421 C 0.64364 0.0188 0.67993 0.0
C2422 C 0.59101 0.01986 0.59432 0.0
C2423 C 0.58734 0.04293 0.59199 0.0
C2424 C 0.60459 0.01769 0.61347 0.0
C2425 C 0.61487 0.03867 0.63022 0.0
C2426 C 0.60985 0.06145 0.62882 0.0
C2427 C 0.59582 0.06351 0.60984 0.0
H2428 H 0.29724 0.34988 0.95994 0.0
H2429 H 0.36901 0.3746 0.962 0.0
H2430 H 0.2957 0.32964 0.91839 0.0
H2431 H 0.36739 0.35545 0.9206 0.0
H2432 H 0.33931 0.36102 0.84253 0.0
H2433 H 0.34335 0.37093 0.88543 0.0
H2434 H 0.31678 0.29467 0.88761 0.0
H2435 H 0.31363 0.28445 0.84409 0.0
C2436 C 0.31273 0.35039 0.95177 0.0
C2437 C 0.33326 0.36399 0.96425 0.0
C2438 C 0.31185 0.33886 0.92797 0.0
C2439 C 0.33145 0.341 0.91617 0.0
C2440 C 0.35202 0.35347 0.92913 0.0
C2441 C 0.35292 0.36461 0.95283 0.0
C2442 C 0.33495 0.34619 0.85213 0.0
C2443 C 0.32675 0.32186 0.83987 0.0
C2444 C 0.33713 0.35191 0.87672 0.0
C2445 C 0.33032 0.33365 0.88996 0.0
C2446 C 0.32219 0.30914 0.87786 0.0
C2447 C 0.32065 0.30324 0.85301 0.0
H2448 H 0.94708 0.07685 0.37152 0.0
H2449 H 1.00313 0.06557 0.33339 0.0
H2450 H 0.9665 0.07216 0.40717 0.0
H2451 H 0.02304 0.06024 0.36979 0.0
H2452 H 0.06027 0.05736 0.44498 0.0
H2453 H 0.04294 0.06241 0.40696 0.0
H2454 H 0.97939 0.05738 0.43598 0.0
H2455 H 0.9965 0.05285 0.47288 0.0
C2456 C 0.96376 0.07345 0.37042 0.0
C2457 C 0.97286 0.07204 0.34832 0.0
C2458 C 0.97527 0.07033 0.39162 0.0
C2459 C 0.9971 0.06517 0.39296 0.0
C2460 C 1.00653 0.06407 0.37084 0.0
C2461 C 0.99488 0.06732 0.34938 0.0
C2462 C 0.04255 0.05723 0.44332 0.0
C2463 C 0.03027 0.05454 0.46323 0.0
C2464 C 0.03229 0.06026 0.42099 0.0
C2465 C 0.00906 0.06103 0.41691 0.0
C2466 C 0.99711 0.05779 0.4369 0.0
C2467 C 1.00722 0.05483 0.45883 0.0
H2468 H 0.33539 0.7246 0.58067 0.0
H2469 H 0.30695 0.66142 0.61028 0.0
H2470 H 0.33662 0.75136 0.61872 0.0
H2471 H 0.30873 0.68804 0.64838 0.0
H2472 H 0.34941 0.78907 0.69689 0.0
H2473 H 0.35238 0.76365 0.6594 0.0
H2474 H 0.28731 0.71745 0.66339 0.0
H2475 H 0.28486 0.74223 0.70128 0.0
C2476 C 0.33003 0.71635 0.59546 0.0
C2477 C 0.32088 0.69095 0.59247 0.0
C2478 C 0.33069 0.73169 0.61725 0.0
C2479 C 0.32231 0.72186 0.6364 0.0
C2480 C 0.31474 0.69624 0.63377 0.0
C2481 C 0.31399 0.68094 0.61202 0.0
C2482 C 0.33576 0.77363 0.6898 0.0
C2483 C 0.31721 0.76748 0.70242 0.0
C2484 C 0.3374 0.75904 0.66822 0.0
C2485 C 0.32032 0.7382 0.65869 0.0
C2486 C 0.30113 0.73291 0.67064 0.0
C2487 C 0.29963 0.74731 0.69227 0.0
H2488 H 0.7118 0.08655 0.83693 0.0
H2489 H 0.66056 0.02833 0.79412 0.0
H2490 H 0.68518 0.09381 0.86521 0.0
H2491 H 0.63425 0.03463 0.82302 0.0
H2492 H 0.5854 0.07374 0.85996 0.0
H2493 H 0.61348 0.06482 0.83386 0.0
H2494 H 0.66323 0.0799 0.89385 0.0
H2495 H 0.63583 0.09099 0.91954 0.0
C2496 C 0.69504 0.07486 0.83389 0.0
C2497 C 0.68811 0.05725 0.81312 0.0
C2498 C 0.67975 0.07897 0.85013 0.0
C2499 C 0.65743 0.06515 0.84607 0.0
C2500 C 0.65111 0.04614 0.82625 0.0
C2501 C 0.66626 0.04233 0.80985 0.0
C2502 C 0.60245 0.07567 0.86746 0.0
C2503 C 0.60832 0.0829 0.89179 0.0
C2504 C 0.61845 0.07007 0.8526 0.0
C2505 C 0.64053 0.07129 0.86183 0.0
C2506 C 0.64645 0.07892 0.88613 0.0
C2507 C 0.63061 0.08497 0.90089 0.0
H2508 H 0.30543 0.331 0.08469 0.0
H2509 H 0.34166 0.40234 0.12256 0.0
H2510 H 0.30087 0.31668 0.12173 0.0
H2511 H 0.33816 0.38788 0.15953 0.0
H2512 H 0.31427 0.36296 0.22575 0.0
H2513 H 0.31646 0.37726 0.18859 0.0
H2514 H 0.31696 0.30383 0.15272 0.0
H2515 H 0.31378 0.28951 0.18978 0.0
C2516 C 0.31252 0.34365 0.10094 0.0
C2517 C 0.32387 0.3679 0.10048 0.0
C2518 C 0.31009 0.33535 0.12235 0.0
C2519 C 0.31915 0.35092 0.14411 0.0
C2520 C 0.33048 0.37524 0.1435 0.0
C2521 C 0.33267 0.38359 0.12212 0.0
C2522 C 0.31474 0.34983 0.2099 0.0
C2523 C 0.31374 0.32502 0.21093 0.0
C2524 C 0.3162 0.35809 0.18843 0.0
C2525 C 0.31701 0.3419 0.16717 0.0
C2526 C 0.31597 0.317 0.16832 0.0
C2527 C 0.31424 0.30871 0.18976 0.0
H2528 H 0.27388 0.95162 0.04028 0.0
H2529 H 0.29541 1.00566 0.99718 0.0
H2530 H 0.24337 0.97118 0.05147 0.0
H2531 H 0.2654 0.02545 1.00893 0.0
H2532 H 0.19961 0.04531 0.01965 0.0
H2533 H 0.22549 0.0205 1.00544 0.0
H2534 H 0.24046 1.00962 0.07602 0.0
H2535 H 0.21325 0.03314 0.09006 0.0
C2536 C 0.272 0.96749 0.033 0.0
C2537 C 0.28715 0.97716 0.01792 0.0
C2538 C 0.25464 0.97879 0.03959 0.0
C2539 C 0.25214 0.99993 0.03123 0.0
C2540 C 0.26676 1.00902 0.01546 0.0
C2541 C 0.28404 0.9977 1.00881 0.0
C2542 C 0.20803 0.03721 0.0321 0.0
C2543 C 0.20427 0.04105 0.05599 0.0
C2544 C 0.22308 0.02326 0.02397 0.0
C2545 C 0.235 0.01318 0.03962 0.0
C2546 C 0.23124 0.0169 0.0635 0.0
C2547 C 0.21595 0.03067 0.07161 0.0
H2548 H 0.74936 0.63833 0.02238 0.0
H2549 H 0.71935 0.68625 0.98725 0.0
H2550 H 0.71245 0.61086 0.02125 0.0
H2551 H 0.68213 0.65907 0.98658 0.0
H2552 H 0.61996 0.62102 0.02088 0.0
H2553 H 0.65638 0.64684 0.01726 0.0
H2554 H 0.68086 0.58204 0.99211 0.0
H2555 H 0.64414 0.55613 0.99531 0.0
C2556 C 0.73486 0.64269 0.01396 0.0
C2557 C 0.73732 0.66391 1.00408 0.0
C2558 C 0.7137 0.62702 0.01341 0.0
C2559 C 0.6943 0.63258 1.00361 0.0
C2560 C 0.69672 0.65418 0.9942 0.0
C2561 C 0.71799 0.66972 0.99451 0.0
C2562 C 0.63299 0.61217 0.01441 0.0
C2563 C 0.62898 0.58633 1.00848 0.0
C2564 C 0.65389 0.62706 0.01218 0.0
C2565 C 0.6716 0.61658 1.00438 0.0
C2566 C 0.66761 0.59075 0.99824 0.0
C2567 C 0.64649 0.57584 0.99999 0.0
H2568 H 0.73663 0.46791 0.31345 0.0
H2569 H 0.71346 0.44348 0.2401 0.0
H2570 H 0.75547 0.43439 0.31236 0.0
H2571 H 0.73263 0.40897 0.23894 0.0
H2572 H 0.78076 0.35047 0.23996 0.0
H2573 H 0.76157 0.38455 0.23832 0.0
H2574 H 0.76164 0.39677 0.31356 0.0
H2575 H 0.78061 0.36342 0.31495 0.0
C2576 C 0.73503 0.45528 0.2968 0.0
C2577 C 0.72236 0.45966 0.27706 0.0
C2578 C 0.74626 0.43523 0.29618 0.0
C2579 C 0.74636 0.41725 0.27561 0.0
C2580 C 0.73373 0.42147 0.25557 0.0
C2581 C 0.72216 0.44169 0.25626 0.0
C2582 C 0.77722 0.36065 0.25636 0.0
C2583 C 0.78359 0.35348 0.2778 0.0
C2584 C 0.76561 0.38057 0.25542 0.0
C2585 C 0.75928 0.39507 0.2758 0.0
C2586 C 0.76578 0.38762 0.29701 0.0
C2587 C 0.77706 0.36778 0.29788 0.0
H2588 H 0.90615 0.42542 0.5024 0.0
H2589 H 0.89986 0.49593 0.53956 0.0
H2590 H 0.94638 0.44067 0.50361 0.0
H2591 H 0.93927 0.51269 0.53817 0.0
H2592 H 0.0137 0.53398 0.55062 0.0
H2593 H 0.97418 0.51848 0.55022 0.0
H2594 H 0.97618 0.4609 0.49071 0.0
H2595 H 0.01681 0.47492 0.49402 0.0
C2596 C 0.9135 0.44448 0.51029 0.0
C2597 C 0.90002 0.46 0.51979 0.0
C2598 C 0.93659 0.45348 0.51071 0.0
C2599 C 0.94662 0.47834 0.52039 0.0
C2600 C 0.93282 0.49342 0.53073 0.0
C2601 C 0.90993 0.48409 0.53101 0.0
C2602 C 1.00554 0.51834 0.53712 0.0
C2603 C 0.01805 0.50631 0.52157 0.0
C2604 C 0.98258 0.5093 0.53676 0.0
C2605 C 0.97125 0.48832 0.52024 0.0
C2606 C 0.98396 0.47667 0.5042 0.0
C2607 C 1.00726 0.48502 0.50555 0.0
H2608 H 0.37664 0.11336 0.34256 0.0
H2609 H 0.42483 0.12097 0.29127 0.0
H2610 H 0.35941 0.14367 0.32824 0.0
H2611 H 0.4071 0.15007 0.27638 0.0
H2612 H 0.37314 0.20162 0.24989 0.0
H2613 H 0.39581 0.18736 0.27839 0.0
H2614 H 0.33579 0.1386 0.29305 0.0
H2615 H 0.31334 0.15399 0.26558 0.0
C2616 C 0.38387 0.12186 0.3286 0.0
C2617 C 0.40174 0.1143 0.31766 0.0
C2618 C 0.3739 0.1391 0.3203 0.0
C2619 C 0.38152 0.14886 0.30081 0.0
C2620 C 0.40081 0.1431 0.29151 0.0
C2621 C 0.41092 0.12616 0.29997 0.0
C2622 C 0.36497 0.18811 0.25958 0.0
C2623 C 0.34178 0.17838 0.25546 0.0
C2624 C 0.37783 0.17997 0.27584 0.0
C2625 C 0.36767 0.16163 0.28781 0.0
C2626 C 0.34417 0.15298 0.28445 0.0
C2627 C 0.33132 0.16146 0.26851 0.0
H2628 H 0.35113 0.14561 0.47504 0.0
H2629 H 0.36189 0.19053 0.54479 0.0
H2630 H 0.38206 0.12729 0.48451 0.0
H2631 H 0.39324 0.17195 0.55428 0.0
H2632 H 0.45771 0.13897 0.5558 0.0
H2633 H 0.43229 0.16419 0.54431 0.0
H2634 H 0.38362 0.09797 0.51153 0.0
H2635 H 0.40873 0.07312 0.52308 0.0
C2636 C 0.36035 0.15195 0.49232 0.0
C2637 C 0.35374 0.16936 0.50926 0.0
C2638 C 0.37808 0.14132 0.49775 0.0
C2639 C 0.38985 0.14778 0.52028 0.0
C2640 C 0.38448 0.16657 0.53675 0.0
C2641 C 0.36655 0.17726 0.5313 0.0
C2642 C 0.44164 0.12994 0.54596 0.0
C2643 C 0.43513 0.10409 0.5404 0.0
C2644 C 0.42706 0.14433 0.53953 0.0
C2645 C 0.40595 0.13311 0.52696 0.0
C2646 C 0.39982 0.10726 0.52098 0.0
C2647 C 0.41414 0.09298 0.52771 0.0
H2648 H 0.69554 0.61107 0.29677 0.0
H2649 H 0.74872 0.58156 0.26668 0.0
H2650 H 0.71731 0.6529 0.29787 0.0
H2651 H 0.77084 0.62342 0.26789 0.0
H2652 H 0.8141 0.70458 0.28683 0.0
H2653 H 0.79335 0.66255 0.28718 0.0
H2654 H 0.73096 0.68505 0.27864 0.0
H2655 H 0.75166 0.72679 0.27841 0.0
C2656 C 0.71205 0.61337 0.29058 0.0
C2657 C 0.72034 0.59224 0.28246 0.0
C2658 C 0.72472 0.63775 0.29102 0.0
C2659 C 0.74643 0.64262 0.28305 0.0
C2660 C 0.75461 0.62135 0.27468 0.0
C2661 C 0.74182 0.59693 0.27412 0.0
C2662 C 0.79597 0.70077 0.28506 0.0
C2663 C 0.78503 0.72003 0.28264 0.0
C2664 C 0.78382 0.67619 0.28512 0.0
C2665 C 0.75993 0.66936 0.283 0.0
C2666 C 0.7491 0.68873 0.28071 0.0
C2667 C 0.76122 0.71315 0.28044 0.0
H2668 H 0.87267 0.49371 0.7877 0.0
H2669 H 0.92498 0.4755 0.82951 0.0
H2670 H 0.85282 0.45065 0.77839 0.0
H2671 H 0.9047 0.43229 0.82118 0.0
H2672 H 0.88174 0.35752 0.7716 0.0
H2673 H 0.89856 0.40076 0.78731 0.0
H2674 H 0.83223 0.41549 0.79107 0.0
H2675 H 0.8156 0.37213 0.77394 0.0
C2676 C 0.8795 0.48044 0.79544 0.0
C2677 C 0.9 0.4877 0.80964 0.0
C2678 C 0.86814 0.45581 0.79021 0.0
C2679 C 0.87719 0.438 0.79899 0.0
C2680 C 0.89746 0.44553 0.81384 0.0
C2681 C 0.90899 0.47016 0.81875 0.0
C2682 C 0.87089 0.37014 0.77586 0.0
C2683 C 0.84755 0.36184 0.77207 0.0
C2684 C 0.88043 0.39478 0.78512 0.0
C2685 C 0.86674 0.41154 0.79074 0.0
C2686 C 0.84323 0.40307 0.78676 0.0
C2687 C 0.8337 0.37837 0.77711 0.0
H2688 H 0.11624 0.90341 0.11819 0.0
H2689 H 0.07911 0.8621 0.05298 0.0
H2690 H 0.11193 0.94177 0.10605 0.0
H2691 H 0.07445 0.8998 0.04121 0.0
H2692 H 0.08196 0.97435 0.01603 0.0
H2693 H 0.08795 0.93608 0.02716 0.0
H2694 H 0.08802 0.96809 0.1003 0.0
H2695 H 0.08197 1.00575 0.08911 0.0
C2696 C 0.1073 0.90231 0.10124 0.0
C2697 C 0.09812 0.87904 0.08683 0.0
C2698 C 0.10455 0.92452 0.09422 0.0
C2699 C 0.09265 0.92457 0.07238 0.0
C2700 C 0.08395 0.90127 0.05792 0.0
C2701 C 0.08657 0.87926 0.06494 0.0
C2702 C 0.08296 0.97312 0.03444 0.0
C2703 C 0.08109 0.99347 0.0515 0.0
C2704 C 0.08651 0.95099 0.041 0.0
C2705 C 0.08877 0.94836 0.06494 0.0
C2706 C 0.0869 0.96887 0.08179 0.0
C2707 C 0.08318 0.99071 0.07525 0.0
H2708 H 0.97447 0.2459 0.8631 0.0
H2709 H 0.9556 0.29469 0.91994 0.0
H2710 H 0.9418 0.24786 0.8379 0.0
H2711 H 0.92351 0.29801 0.89462 0.0
H2712 H 0.85938 0.2922 0.84792 0.0
H2713 H 0.88884 0.28525 0.87411 0.0
H2714 H 0.92634 0.26963 0.81486 0.0
H2715 H 0.89745 0.27761 0.78913 0.0
C2716 C 0.96331 0.25717 0.8702 0.0
C2717 C 0.96808 0.27066 0.89341 0.0
C2718 C 0.94447 0.2585 0.85562 0.0
C2719 C 0.92971 0.27358 0.86361 0.0
C2720 C 0.934 0.28602 0.88739 0.0
C2721 C 0.95263 0.28429 0.90208 0.0
C2722 C 0.87394 0.28738 0.84037 0.0
C2723 C 0.87545 0.28516 0.81591 0.0
C2724 C 0.89114 0.28348 0.85562 0.0
C2725 C 0.91066 0.27702 0.84713 0.0
C2726 C 0.91194 0.27452 0.8226 0.0
C2727 C 0.89495 0.27886 0.80746 0.0
H2728 H 0.61661 0.25747 0.56357 0.0
H2729 H 0.58132 0.23728 0.62161 0.0
H2730 H 0.61231 0.21389 0.54618 0.0
H2731 H 0.57641 0.19378 0.60423 0.0
H2732 H 0.58269 0.1157 0.57802 0.0
H2733 H 0.59196 0.15956 0.59564 0.0
H2734 H 0.58795 0.17718 0.52631 0.0
H2735 H 0.57951 0.13331 0.50896 0.0
C2736 C 0.60754 0.24369 0.57242 0.0
C2737 C 0.59861 0.25102 0.5936 0.0
C2738 C 0.6051 0.21852 0.56247 0.0
C2739 C 0.59386 0.19971 0.57353 0.0
C2740 C 0.58542 0.20727 0.59507 0.0
C2741 C 0.58801 0.23239 0.60502 0.0
C2742 C 0.58461 0.12899 0.56654 0.0
C2743 C 0.58112 0.12085 0.54198 0.0
C2744 C 0.58948 0.15433 0.57666 0.0
C2745 C 0.59061 0.17252 0.56262 0.0
C2746 C 0.58762 0.1642 0.53798 0.0
C2747 C 0.58281 0.13888 0.5279 0.0
H2748 H 0.58932 0.75371 0.40788 0.0
H2749 H 0.5898 0.82475 0.39044 0.0
H2750 H 0.62425 0.753 0.38883 0.0
H2751 H 0.62441 0.82404 0.37197 0.0
H2752 H 0.65307 0.76825 0.30658 0.0
H2753 H 0.62431 0.76424 0.33406 0.0
H2754 H 0.67186 0.81089 0.38986 0.0
H2755 H 0.701 0.81467 0.36236 0.0
C2756 C 0.59719 0.76946 0.40073 0.0
C2757 C 0.58669 0.78929 0.40074 0.0
C2758 C 0.61709 0.76899 0.38972 0.0
C2759 C 0.62705 0.78855 0.37903 0.0
C2760 C 0.61725 0.80887 0.38027 0.0
C2761 C 0.59737 0.8092 0.39086 0.0
C2762 C 0.65762 0.77714 0.32485 0.0
C2763 C 0.67936 0.79185 0.33223 0.0
C2764 C 0.64115 0.77471 0.34059 0.0
C2765 C 0.64589 0.78706 0.36411 0.0
C2766 C 0.66785 0.80091 0.37188 0.0
C2767 C 0.68452 0.80305 0.35615 0.0
H2768 H 0.0814 0.25644 0.40545 0.0
H2769 H 0.14206 0.2918 0.45119 0.0
H2770 H 0.0711 0.22778 0.43174 0.0
H2771 H 0.13242 0.2624 0.47695 0.0
H2772 H 0.09385 0.23174 0.53355 0.0
H2773 H 0.10617 0.25676 0.50473 0.0
H2774 H 0.07777 0.19482 0.4485 0.0
H2775 H 0.06386 0.1705 0.47721 0.0
C2776 C 0.0929 0.25753 0.42073 0.0
C2777 C 0.11242 0.2764 0.42643 0.0
C2778 C 0.087 0.24111 0.43583 0.0
C2779 C 0.10074 0.24307 0.45672 0.0
C2780 C 0.12113 0.26084 0.46139 0.0
C2781 C 0.12681 0.27749 0.4465 0.0
C2782 C 0.08992 0.2236 0.51504 0.0
C2783 C 0.07791 0.19911 0.50776 0.0
C2784 C 0.09736 0.23778 0.49848 0.0
C2785 C 0.0932 0.22772 0.47425 0.0
C2786 C 0.08116 0.20324 0.46698 0.0
C2787 C 0.07343 0.18918 0.48351 0.0
H2788 H 0.58587 0.25576 0.15207 0.0
H2789 H 0.56848 0.28941 0.21919 0.0
H2790 H 0.62064 0.2507 0.17143 0.0
H2791 H 0.60352 0.28461 0.23832 0.0
H2792 H 0.65266 0.21071 0.22692 0.0
H2793 H 0.62078 0.22157 0.20721 0.0
H2794 H 0.65078 0.29864 0.23222 0.0
H2795 H 0.68284 0.28791 0.25188 0.0
C2796 C 0.5897 0.26262 0.17082 0.0
C2797 C 0.57439 0.27283 0.18415 0.0
C2798 C 0.6095 0.25961 0.18184 0.0
C2799 C 0.61442 0.26711 0.20625 0.0
C2800 C 0.59996 0.27881 0.21941 0.0
C2801 C 0.58 0.28158 0.20845 0.0
C2802 C 0.65235 0.22994 0.22837 0.0
C2803 C 0.67014 0.24848 0.24092 0.0
C2804 C 0.6343 0.23612 0.21695 0.0
C2805 C 0.63364 0.26088 0.21819 0.0
C2806 C 0.65111 0.27944 0.23108 0.0
C2807 C 0.66935 0.27329 0.24222 0.0
H2808 H 0.63747 0.93223 0.88624 0.0
H2809 H 0.64005 0.89693 0.94635 0.0
H2810 H 0.63408 0.96974 0.91211 0.0
H2811 H 0.63602 0.93404 0.97186 0.0
H2812 H 0.62831 1.0048 0.01426 0.0
H2813 H 0.64746 0.97793 0.9896 0.0
H2814 H 0.59962 0.97368 0.93031 0.0
H2815 H 0.58064 1.00049 0.95472 0.0
C2816 C 0.63803 0.93266 0.90499 0.0
C2817 C 0.63829 0.91134 0.91411 0.0
C2818 C 0.63595 0.9541 0.91977 0.0
C2819 C 0.63416 0.95453 0.94384 0.0
C2820 C 0.63733 0.93427 0.95337 0.0
C2821 C 0.63951 0.91289 0.93864 0.0
C2822 C 0.62194 0.99818 0.99594 0.0
C2823 C 0.60269 1.00435 0.98652 0.0
C2824 C 0.63302 0.98297 0.98181 0.0
C2825 C 0.62511 0.97382 0.95803 0.0
C2826 C 0.60642 0.98085 0.94846 0.0
C2827 C 0.59535 0.996 0.96254 0.0
H2828 H 0.94261 0.76281 0.66784 0.0
H2829 H 0.97865 0.79964 0.73535 0.0
H2830 H 0.90722 0.75839 0.68606 0.0
H2831 H 0.94389 0.7935 0.75341 0.0
H2832 H 0.87979 0.76014 0.78235 0.0
H2833 H 0.91354 0.75905 0.76171 0.0
H2834 H 0.8851 0.7884 0.70612 0.0
H2835 H 0.85178 0.78959 0.7267 0.0
C2836 C 0.94298 0.76996 0.68647 0.0
C2837 C 0.9634 0.78166 0.70013 0.0
C2838 C 0.92282 0.76733 0.69686 0.0
C2839 C 0.92292 0.77569 0.72115 0.0
C2840 C 0.94332 0.78713 0.73469 0.0
C2841 C 0.96326 0.7906 0.72425 0.0
C2842 C 0.88088 0.76623 0.76569 0.0
C2843 C 0.86369 0.77565 0.7564 0.0
C2844 C 0.90003 0.76558 0.7539 0.0
C2845 C 0.90184 0.77372 0.73239 0.0
C2846 C 0.88403 0.78186 0.72256 0.0
C2847 C 0.86513 0.78286 0.7345 0.0
H2848 H 0.12935 0.01403 0.82521 0.0
H2849 H 0.19187 0.03838 0.86933 0.0
H2850 H 0.1089 0.01732 0.86062 0.0
H2851 H 0.17187 0.04157 0.90416 0.0
H2852 H 0.13378 0.06131 0.96923 0.0
H2853 H 0.15282 0.05761 0.93335 0.0
H2854 H 0.09293 1.00882 0.89548 0.0
H2855 H 0.074 0.01265 0.93158 0.0
C2856 C 0.13905 0.02002 0.84224 0.0
C2857 C 0.16299 0.02573 0.84317 0.0
C2858 C 0.12705 0.02194 0.86315 0.0
C2859 C 0.13797 0.03001 0.88669 0.0
C2860 C 0.16184 0.03564 0.88734 0.0
C2861 C 0.17371 0.03354 0.86666 0.0
C2862 C 0.12439 0.04966 0.95341 0.0
C2863 C 0.10174 0.03735 0.95457 0.0
C2864 C 0.13564 0.04732 0.93219 0.0
C2865 C 0.12521 0.03263 0.91006 0.0
C2866 C 0.1024 0.02051 0.91121 0.0
C2867 C 0.09123 0.02266 0.93255 0.0
H2868 H 0.81764 0.37907 0.56528 0.0
H2869 H 0.83883 0.45351 0.60475 0.0
H2870 H 0.82377 0.36334 0.60041 0.0
H2871 H 0.8435 0.43774 0.64078 0.0
H2872 H 0.88879 0.40183 0.68357 0.0
H2873 H 0.87091 0.42093 0.656 0.0
H2874 H 0.81748 0.35527 0.63679 0.0
H2875 H 0.83684 0.33508 0.66194 0.0
C2876 C 0.82279 0.3921 0.58173 0.0
C2877 C 0.82821 0.4175 0.58225 0.0
C2878 C 0.82615 0.38306 0.60209 0.0
C2879 C 0.83452 0.39924 0.62357 0.0
C2880 C 0.8377 0.42473 0.62445 0.0
C2881 C 0.83482 0.4338 0.60388 0.0
C2882 C 0.87334 0.39134 0.67331 0.0
C2883 C 0.86478 0.36659 0.67456 0.0
C2884 C 0.86271 0.40256 0.65783 0.0
C2885 C 0.84288 0.38951 0.6437 0.0
C2886 C 0.83309 0.36565 0.6468 0.0
C2887 C 0.8441 0.35417 0.66167 0.0
H2888 H 0.43905 0.0542 0.40413 0.0
H2889 H 0.48616 0.08757 0.35996 0.0
H2890 H 0.47037 0.05433 0.43219 0.0
H2891 H 0.51731 0.08757 0.38812 0.0
H2892 H 0.56023 0.09703 0.46408 0.0
H2893 H 0.53361 0.10384 0.43385 0.0
H2894 H 0.50013 0.02691 0.42172 0.0
H2895 H 0.52665 0.0202 0.45149 0.0
C2896 C 0.45597 0.06211 0.40069 0.0
C2897 C 0.46021 0.07027 0.37961 0.0
C2898 C 0.47384 0.06203 0.41662 0.0
C2899 C 0.49605 0.07042 0.41178 0.0
C2900 C 0.50025 0.08086 0.39197 0.0
C2901 C 0.48242 0.08077 0.37594 0.0
C2902 C 0.54783 0.08149 0.45403 0.0
C2903 C 0.54518 0.05817 0.45986 0.0
C2904 C 0.5325 0.08541 0.43712 0.0
C2905 C 0.51459 0.06601 0.42628 0.0
C2906 C 0.51355 0.04221 0.43041 0.0
C2907 C 0.52884 0.0383 0.44708 0.0
H2908 H 0.80105 0.76818 0.08464 0.0
H2909 H 0.80723 0.6968 0.09622 0.0
H2910 H 0.80159 0.78231 0.12713 0.0
H2911 H 0.80954 0.711 0.13824 0.0
H2912 H 0.79587 0.72985 0.21163 0.0
H2913 H 0.79096 0.71898 0.1692 0.0
H2914 H 0.81813 0.79499 0.16528 0.0
H2915 H 0.821 0.80598 0.20839 0.0
C2916 C 0.80286 0.7556 0.0963 0.0
C2917 C 0.80384 0.73124 0.08693 0.0
C2918 C 0.80325 0.76373 0.12082 0.0
C2919 C 0.80508 0.74784 0.13675 0.0
C2920 C 0.80708 0.72379 0.12707 0.0
C2921 C 0.80609 0.71558 0.10272 0.0
C2922 C 0.80023 0.74437 0.20167 0.0
C2923 C 0.80847 0.76881 0.21346 0.0
C2924 C 0.7979 0.73807 0.1771 0.0
C2925 C 0.80492 0.75578 0.16315 0.0
C2926 C 0.81246 0.78059 0.175 0.0
C2927 C 0.81407 0.78704 0.19984 0.0
H2928 H 0.18474 0.03343 0.68319 0.0
H2929 H 0.11978 1.00979 0.70621 0.0
H2930 H 0.16713 0.03994 0.64669 0.0
H2931 H 0.10182 0.01604 0.66941 0.0
H2932 H 0.07015 0.03747 0.60063 0.0
H2933 H 0.08688 0.03214 0.63874 0.0
H2934 H 0.15044 0.03468 0.61024 0.0
H2935 H 0.13398 0.04025 0.57318 0.0
C2936 C 0.16658 0.02926 0.68063 0.0
C2937 C 0.15432 0.0206 0.69874 0.0
C2938 C 0.15606 0.03304 0.65899 0.0
C2939 C 0.13222 0.02864 0.65343 0.0
C2940 C 0.11996 0.02006 0.67173 0.0
C2941 C 0.13054 0.01618 0.69338 0.0
C2942 C 0.08778 0.03719 0.60241 0.0
C2943 C 0.10025 0.03963 0.58261 0.0
C2944 C 0.09768 0.03385 0.62477 0.0
C2945 C 0.12079 0.03273 0.62916 0.0
C2946 C 0.13296 0.0355 0.60926 0.0
C2947 C 0.12317 0.03873 0.5872 0.0
H2948 H 0.81512 0.37646 0.46813 0.0
H2949 H 0.84667 0.42867 0.42711 0.0
H2950 H 0.81389 0.34284 0.4351 0.0
H2951 H 0.84539 0.39499 0.39433 0.0
H2952 H 0.86326 0.33138 0.35059 0.0
H2953 H 0.86526 0.35834 0.38862 0.0
H2954 H 0.79466 0.32947 0.39218 0.0
H2955 H 0.7925 0.30277 0.35412 0.0
C2956 C 0.82161 0.38081 0.45205 0.0
C2957 C 0.83121 0.40523 0.4503 0.0
C2958 C 0.82095 0.36155 0.43327 0.0
C2959 C 0.83006 0.36642 0.41259 0.0
C2960 C 0.83881 0.39083 0.41044 0.0
C2961 C 0.83928 0.41009 0.4291 0.0
C2962 C 0.84828 0.33024 0.35976 0.0
C2963 C 0.82752 0.3155 0.349 0.0
C2964 C 0.84944 0.34575 0.38142 0.0
C2965 C 0.82996 0.34634 0.39279 0.0
C2966 C 0.80985 0.32941 0.38354 0.0
C2967 C 0.80865 0.31404 0.36175 0.0
H2968 H 0.48482 0.08499 0.26149 0.0
H2969 H 0.42945 0.0247 0.22971 0.0
H2970 H 0.50593 0.0755 0.22833 0.0
H2971 H 0.45064 0.01529 0.19623 0.0
H2972 H 0.51229 0.98438 0.17052 0.0
H2973 H 0.48542 0.99782 0.19648 0.0
H2974 H 0.50798 0.07218 0.18538 0.0
H2975 H 0.53512 0.05888 0.15997 0.0
C2976 C 0.47691 0.07019 0.24703 0.0
C2977 C 0.45569 0.05536 0.2482 0.0
C2978 C 0.48896 0.06481 0.22803 0.0
C2979 C 0.47997 0.04445 0.20998 0.0
C2980 C 0.45797 0.03087 0.21017 0.0
C2981 C 0.44581 0.0364 0.22916 0.0
C2982 C 0.51158 1.0036 0.17389 0.0
C2983 C 0.52585 0.02068 0.16361 0.0
C2984 C 0.49598 1.01119 0.1883 0.0
C2985 C 0.49458 0.03598 0.19268 0.0
C2986 C 0.50878 0.05299 0.18225 0.0
C2987 C 0.52429 0.0454 0.16782 0.0
H2988 H 0.79284 0.75223 0.96176 0.0
H2989 H 0.82168 0.69342 0.92872 0.0
H2990 H 0.79662 0.7705 0.92644 0.0
H2991 H 0.8264 0.71184 0.89433 0.0
H2992 H 0.81079 0.73199 0.82487 0.0
H2993 H 0.80742 0.71657 0.86119 0.0
H2994 H 0.81751 0.79092 0.90037 0.0
H2995 H 0.81908 0.80613 0.86358 0.0
C2996 C 0.80038 0.74345 0.9472 0.0
C2997 C 0.8067 0.72115 0.94815 0.0
C2998 C 0.80259 0.75392 0.92681 0.0
C2999 C 0.8114 0.74251 0.9069 0.0
C3000 C 0.81875 0.72092 0.90861 0.0
C3001 C 0.81628 0.7104 0.92866 0.0
C3002 C 0.81221 0.74513 0.84118 0.0
C3003 C 0.81553 0.77043 0.84104 0.0
C3004 C 0.81056 0.73627 0.86228 0.0
C3005 C 0.81256 0.75237 0.88424 0.0
C3006 C 0.81576 0.77773 0.88407 0.0
C3007 C 0.81706 0.78657 0.86284 0.0
H3008 H 0.82823 0.07972 0.97884 0.0
H3009 H 0.85496 0.12387 0.04732 0.0
H3010 H 0.85925 0.05898 0.97933 0.0
H3011 H 0.88591 0.10317 0.04764 0.0
H3012 H 0.91514 0.03524 0.05235 0.0
H3013 H 0.88659 0.05919 0.0502 0.0
H3014 H 0.90157 0.06755 0.9799 0.0
H3015 H 0.92966 0.04304 0.98174 0.0
C3016 C 0.84083 0.08514 0.99385 0.0
C3017 C 0.83908 0.10318 0.01313 0.0
C3018 C 0.85859 0.07339 0.99406 0.0
C3019 C 0.8747 0.07937 0.01364 0.0
C3020 C 0.87346 0.09807 0.0325 0.0
C3021 C 0.85585 0.10999 0.03221 0.0
C3022 C 0.91215 0.042 0.03638 0.0
C3023 C 0.92451 0.03728 0.01721 0.0
C3024 C 0.89608 0.05593 0.03527 0.0
C3025 C 0.8921 0.06525 0.01494 0.0
C3026 C 0.90434 0.06044 0.99571 0.0
C3027 C 0.92045 0.04658 0.99685 0.0
H3028 H 0.38822 0.45712 0.06689 0.0
H3029 H 0.40647 0.40085 0.01687 0.0
H3030 H 0.42597 0.48294 0.06942 0.0
H3031 H 0.44365 0.427 0.01767 0.0
H3032 H 0.51407 0.4712 0.03007 0.0
H3033 H 0.47849 0.44478 0.03414 0.0
H3034 H 0.45075 0.50883 0.0528 0.0
H3035 H 0.48699 0.53518 0.04983 0.0
C3036 C 0.40039 0.45042 0.05626 0.0
C3037 C 0.39432 0.4273 0.0412 0.0
C3038 C 0.42209 0.46529 0.05754 0.0
C3039 C 0.43829 0.45756 0.04353 0.0
C3040 C 0.43218 0.43383 0.02914 0.0
C3041 C 0.41067 0.41875 0.02839 0.0
C3042 C 0.50039 0.47968 0.0351 0.0
C3043 C 0.50347 0.50542 0.03942 0.0
C3044 C 0.47969 0.4644 0.03724 0.0
C3045 C 0.46106 0.47425 0.04325 0.0
C3046 C 0.46439 0.50017 0.04818 0.0
C3047 C 0.48532 0.5155 0.04646 0.0
H3048 H 0.38946 0.62879 0.81035 0.0
H3049 H 0.42881 0.64703 0.75456 0.0
H3050 H 0.37092 0.66227 0.8078 0.0
H3051 H 0.41021 0.68108 0.75197 0.0
H3052 H 0.37042 0.74206 0.74385 0.0
H3053 H 0.38822 0.70783 0.74596 0.0
H3054 H 0.35754 0.69738 0.80925 0.0
H3055 H 0.33989 0.73222 0.80703 0.0
C3056 C 0.39465 0.63994 0.79744 0.0
C3057 C 0.41164 0.6339 0.78296 0.0
C3058 C 0.38355 0.65988 0.79593 0.0
C3059 C 0.38807 0.67603 0.77958 0.0
C3060 C 0.40519 0.67011 0.76502 0.0
C3061 C 0.41643 0.65004 0.76661 0.0
C3062 C 0.36675 0.73227 0.7581 0.0
C3063 C 0.35211 0.74054 0.77447 0.0
C3064 C 0.37759 0.71213 0.75954 0.0
C3065 C 0.37528 0.69814 0.77785 0.0
C3066 C 0.36052 0.70635 0.7944 0.0
C3067 C 0.34972 0.72679 0.79299 0.0
H3068 H 0.24185 0.61117 0.55352 0.0
H3069 H 0.22388 0.66574 0.51756 0.0
H3070 H 0.20313 0.59862 0.56232 0.0
H3071 H 0.18478 0.65262 0.52534 0.0
H3072 H 0.11817 0.6344 0.55286 0.0
H3073 H 0.15867 0.6509 0.55453 0.0
H3074 H 0.16881 0.57675 0.54099 0.0
H3075 H 0.1289 0.56066 0.53864 0.0
C3076 C 0.22941 0.62024 0.54731 0.0
C3077 C 0.23538 0.6388 0.53429 0.0
C3078 C 0.20732 0.61316 0.55239 0.0
C3079 C 0.19084 0.62455 0.54445 0.0
C3080 C 0.19713 0.64375 0.53204 0.0
C3081 C 0.21935 0.65107 0.5273 0.0
C3082 C 0.12922 0.62177 0.55062 0.0
C3083 C 0.12042 0.59628 0.54579 0.0
C3084 C 0.15232 0.63115 0.55142 0.0
C3085 C 0.16692 0.61512 0.54737 0.0
C3086 C 0.15812 0.58966 0.54401 0.0
C3087 C 0.13512 0.58036 0.54284 0.0
H3088 H 0.71308 0.98369 0.77738 0.0
H3089 H 0.75343 0.99681 0.72059 0.0
H3090 H 0.73084 0.95036 0.78345 0.0
H3091 H 0.7714 0.96342 0.72655 0.0
H3092 H 0.76936 0.89586 0.7957 0.0
H3093 H 0.74352 0.91059 0.7706 0.0
H3094 H 0.79776 0.97087 0.76355 0.0
H3095 H 0.82317 0.95626 0.78866 0.0
C3096 C 0.72498 0.97851 0.76548 0.0
C3097 C 0.73217 0.99259 0.74871 0.0
C3098 C 0.73509 0.95941 0.76884 0.0
C3099 C 0.75269 0.95458 0.75563 0.0
C3100 C 0.75796 0.96694 0.73701 0.0
C3101 C 0.74774 0.98595 0.7336 0.0
C3102 C 0.77567 0.9119 0.78821 0.0
C3103 C 0.79793 0.92532 0.79417 0.0
C3104 C 0.76103 0.9202 0.77385 0.0
C3105 C 0.76868 0.94178 0.76513 0.0
C3106 C 0.79148 0.95396 0.7697 0.0
C3107 C 0.80596 0.94586 0.78427 0.0
H3108 H 0.76784 0.91146 0.49569 0.0
H3109 H 0.78235 0.93729 0.57051 0.0
H3110 H 0.7364 0.93171 0.49558 0.0
H3111 H 0.75089 0.95778 0.57058 0.0
H3112 H 0.72418 0.02348 0.54914 0.0
H3113 H 0.74756 0.99467 0.55457 0.0
H3114 H 0.69912 0.93622 0.50865 0.0
H3115 H 0.67562 0.96533 0.50325 0.0
C3116 C 0.76364 0.92061 0.51227 0.0
C3117 C 0.77718 0.9224 0.53318 0.0
C3118 C 0.74568 0.93232 0.51223 0.0
C3119 C 0.74118 0.94655 0.53305 0.0
C3120 C 0.75398 0.9471 0.55422 0.0
C3121 C 0.77178 0.93509 0.55428 0.0
C3122 C 0.71838 1.0044 0.54046 0.0
C3123 C 0.69817 0.9967 0.52564 0.0
C3124 C 0.73168 0.9878 0.54373 0.0
C3125 C 0.72526 0.96308 0.53204 0.0
C3126 C 0.70461 0.95515 0.51783 0.0
C3127 C 0.6911 0.97176 0.51482 0.0
H3128 H 0.44073 0.48963 0.79231 0.0
H3129 H 0.38456 0.50309 0.75297 0.0
H3130 H 0.41976 0.4479 0.79244 0.0
H3131 H 0.36348 0.46103 0.75225 0.0
H3132 H 0.32192 0.38623 0.76431 0.0
H3133 H 0.3423 0.42849 0.76512 0.0
H3134 H 0.40482 0.40768 0.77906 0.0
H3135 H 0.38428 0.36597 0.77915 0.0
C3136 C 0.4238 0.48376 0.78359 0.0
C3137 C 0.41443 0.50071 0.77335 0.0
C3138 C 0.41153 0.45926 0.78344 0.0
C3139 C 0.38921 0.4498 0.77242 0.0
C3140 C 0.38016 0.46672 0.76149 0.0
C3141 C 0.39242 0.49134 0.76188 0.0
C3142 C 0.34 0.39053 0.76765 0.0
C3143 C 0.35096 0.37175 0.7717 0.0
C3144 C 0.35202 0.41524 0.76795 0.0
C3145 C 0.37587 0.42281 0.77216 0.0
C3146 C 0.38671 0.40384 0.77609 0.0
C3147 C 0.3747 0.37926 0.77594 0.0
H3148 H 0.25388 0.6107 0.23496 0.0
H3149 H 0.20459 0.63338 0.27859 0.0
H3150 H 0.27511 0.65334 0.24096 0.0
H3151 H 0.2254 0.67634 0.28392 0.0
H3152 H 0.26031 0.75189 0.26801 0.0
H3153 H 0.23781 0.70944 0.25823 0.0
H3154 H 0.2959 0.6834 0.27854 0.0
H3155 H 0.31801 0.7257 0.2894 0.0
C3156 C 0.24774 0.62491 0.24592 0.0
C3157 C 0.22831 0.61898 0.25722 0.0
C3158 C 0.25966 0.64922 0.24907 0.0
C3159 C 0.25183 0.66793 0.2629 0.0
C3160 C 0.23165 0.66212 0.27311 0.0
C3161 C 0.21987 0.63771 0.27019 0.0
C3162 C 0.26817 0.73688 0.27009 0.0
C3163 C 0.29085 0.74151 0.27867 0.0
C3164 C 0.25536 0.71281 0.26471 0.0
C3165 C 0.26527 0.69329 0.26768 0.0
C3166 C 0.28802 0.69814 0.27616 0.0
C3167 C 0.30062 0.72219 0.28221 0.0
H3168 H 0.54462 0.7299 0.4909 0.0
H3169 H 0.52044 0.68515 0.42255 0.0
H3170 H 0.55244 0.69397 0.50497 0.0
H3171 H 0.52752 0.64912 0.43659 0.0
H3172 H 0.55973 0.59063 0.45817 0.0
H3173 H 0.55304 0.62756 0.44628 0.0
H3174 H 0.54186 0.65596 0.51752 0.0
H3175 H 0.54918 0.61847 0.52951 0.0
C3176 C 0.5408 0.71237 0.47879 0.0
C3177 C 0.5319 0.71087 0.45537 0.0
C3178 C 0.54521 0.69147 0.48699 0.0
C3179 C 0.54096 0.66799 0.47217 0.0
C3180 C 0.53172 0.66656 0.4488 0.0
C3181 C 0.52738 0.68744 0.44062 0.0
C3182 C 0.55597 0.60476 0.47148 0.0
C3183 C 0.55522 0.60121 0.49493 0.0
C3184 C 0.55182 0.62615 0.46452 0.0
C3185 C 0.54635 0.64529 0.48056 0.0
C3186 C 0.546 0.64204 0.50432 0.0
C3187 C 0.55023 0.62038 0.51136 0.0
H3188 H 0.65851 0.33726 0.69055 0.0
H3189 H 0.69192 0.32747 0.62759 0.0
H3190 H 0.69122 0.33361 0.71367 0.0
H3191 H 0.72573 0.32565 0.65077 0.0
H3192 H 0.78182 0.30696 0.69389 0.0
H3193 H 0.74947 0.31093 0.67044 0.0
H3194 H 0.72387 0.3423 0.73379 0.0
H3195 H 0.75516 0.33572 0.75695 0.0
C3196 C 0.67315 0.33494 0.68161 0.0
C3197 C 0.67232 0.33288 0.65701 0.0
C3198 C 0.69239 0.33294 0.6951 0.0
C3199 C 0.71211 0.32933 0.68477 0.0
C3200 C 0.71132 0.32791 0.66004 0.0
C3201 C 0.69179 0.32933 0.64646 0.0
C3202 C 0.76895 0.31382 0.70298 0.0
C3203 C 0.77106 0.31966 0.72777 0.0
C3204 C 0.75021 0.3168 0.68926 0.0
C3205 C 0.73288 0.32665 0.69957 0.0
C3206 C 0.73576 0.33375 0.72444 0.0
C3207 C 0.75423 0.33018 0.73811 0.0
H3208 H 0.06691 0.35743 0.96607 0.0
H3209 H 0.99634 0.3511 0.94857 0.0
H3210 H 0.07111 0.40108 0.98424 0.0
H3211 H 1.00072 0.39481 0.96548 0.0
H3212 H 0.03431 0.47906 0.95979 0.0
H3213 H 0.0263 0.43404 0.94977 0.0
H3214 H 0.05368 0.43195 0.0193 0.0
H3215 H 0.06063 0.47722 0.02975 0.0
C3216 C 0.05216 0.36511 0.9667 0.0
C3217 C 0.03122 0.35053 0.956 0.0
C3218 C 0.0546 0.39023 0.97696 0.0
C3219 C 0.03628 0.40165 0.97624 0.0
C3220 C 0.01522 0.38678 0.9663 0.0
C3221 C 0.01271 0.36164 0.95659 0.0
C3222 C 0.03795 0.46899 0.97322 0.0
C3223 C 0.04749 0.48187 0.99579 0.0
C3224 C 0.0335 0.44313 0.96742 0.0
C3225 C 0.03938 0.42919 0.98365 0.0
C3226 C 0.04889 0.442 1.00634 0.0
C3227 C 0.05264 0.46796 0.01242 0.0
H3228 H 0.01611 0.80305 0.11581 0.0
H3229 H 0.06571 0.81838 0.17573 0.0
H3230 H 0.98636 0.80137 0.14197 0.0
H3231 H 0.03608 0.81565 0.20176 0.0
H3232 H 0.98193 0.82912 0.24724 0.0
H3233 H 0.00983 0.83441 0.21937 0.0
H3234 H 0.96514 0.77905 0.16657 0.0
H3235 H 0.9368 0.7747 0.19452 0.0
C3236 C 0.02073 0.80607 0.13457 0.0
C3237 C 0.04349 0.81106 0.14353 0.0
C3238 C 1.00355 0.80488 0.14966 0.0
C3239 C 1.00852 0.80845 0.17423 0.0
C3240 C 0.03133 0.81337 0.1831 0.0
C3241 C 0.04849 0.8148 0.16806 0.0
C3242 C 0.97796 0.81828 0.22957 0.0
C3243 C 0.95715 0.8014 0.22319 0.0
C3244 C 0.99412 0.8211 0.21355 0.0
C3245 C 0.99021 0.80683 0.19061 0.0
C3246 C 0.96894 0.79056 0.18392 0.0
C3247 C 0.95259 0.788 0.19996 0.0
H3248 H 0.54515 0.3259 0.1359 0.0
H3249 H 0.47993 0.31123 0.09656 0.0
H3250 H 0.55989 0.35597 0.11204 0.0
H3251 H 0.4946 0.3414 0.07302 0.0
H3252 H 0.53578 0.36368 0.01432 0.0
H3253 H 0.52106 0.33882 0.04261 0.0
H3254 H 0.55782 0.3955 0.09972 0.0
H3255 H 0.57316 0.42005 0.07135 0.0
C3256 C 0.53379 0.32966 0.12271 0.0
C3257 C 0.51147 0.31598 0.11786 0.0
C3258 C 0.54226 0.3468 0.10899 0.0
C3259 C 0.52849 0.35051 0.09034 0.0
C3260 C 0.50571 0.33838 0.08689 0.0
C3261 C 0.49729 0.32127 0.1005 0.0
C3262 C 0.541 0.37063 0.03287 0.0
C3263 C 0.5556 0.39375 0.04062 0.0
C3264 C 0.53232 0.35662 0.04909 0.0
C3265 C 0.53807 0.36544 0.07336 0.0
C3266 C 0.55311 0.38829 0.08112 0.0
C3267 C 0.56178 0.40234 0.06489 0.0
H3268 H 0.05649 0.30971 0.34787 0.0
H3269 H 0.05435 0.36543 0.4081 0.0
H3270 H 0.01985 0.31271 0.33166 0.0
H3271 H 0.0171 0.36807 0.39243 0.0
H3272 H 0.97671 0.39473 0.33519 0.0
H3273 H 1.00542 0.38558 0.3608 0.0
H3274 H 0.98057 0.30783 0.33294 0.0
H3275 H 0.95184 0.31716 0.3073 0.0
C3276 C 0.04791 0.32243 0.35769 0.0
C3277 C 0.05841 0.33822 0.37852 0.0
C3278 C 0.02675 0.32386 0.3487 0.0
C3279 C 0.01566 0.34095 0.36059 0.0
C3280 C 0.02546 0.35517 0.38258 0.0
C3281 C 0.04667 0.35367 0.39157 0.0
C3282 C 0.97732 0.3757 0.33477 0.0
C3283 C 0.96239 0.35668 0.31908 0.0
C3284 C 0.99359 0.37038 0.34959 0.0
C3285 C 0.99558 0.34597 0.34859 0.0
C3286 C 0.97977 0.32685 0.33379 0.0
C3287 C 0.96328 0.33217 0.31921 0.0
H3288 H 0.98845 0.70111 0.59486 0.0
H3289 H 0.99888 0.67972 0.66182 0.0
H3290 H 0.99471 0.66221 0.57473 0.0
H3291 H 1.00441 0.64032 0.64158 0.0
H3292 H 0.05569 0.60389 0.60135 0.0
H3293 H 0.03702 0.63339 0.62252 0.0
H3294 H 0.98581 0.61792 0.56389 0.0
H3295 H 1.00477 0.5886 0.54244 0.0
C3296 C 0.99113 0.68767 0.60524 0.0
C3297 C 0.99362 0.69362 0.62992 0.0
C3298 C 0.99469 0.6653 0.59368 0.0
C3299 C 1.00055 0.64843 0.60662 0.0
C3300 C 1.00046 0.65325 0.63119 0.0
C3301 C 0.99709 0.67571 0.64277 0.0
C3302 C 0.04029 0.60651 0.59307 0.0
C3303 C 0.03193 0.59426 0.57009 0.0
C3304 C 0.02944 0.62326 0.60531 0.0
C3305 C 0.00988 0.62796 0.59489 0.0
C3306 C 1.00096 0.61486 0.57228 0.0
C3307 C 0.01187 0.59814 0.55999 0.0
H3308 H 0.69 0.83385 0.88608 0.0
H3309 H 0.65604 0.82154 0.81615 0.0
H3310 H 0.72528 0.83122 0.86901 0.0
H3311 H 0.69053 0.81804 0.79926 0.0
H3312 H 0.75778 0.84372 0.7756 0.0
H3313 H 0.72435 0.84643 0.79588 0.0
H3314 H 0.7454 0.80512 0.84566 0.0
H3315 H 0.7791 0.80336 0.82586 0.0
C3316 C 0.69 0.83 0.86713 0.0
C3317 C 0.67046 0.82819 0.85241 0.0
C3318 C 0.71011 0.82855 0.85735 0.0
C3319 C 0.71073 0.82502 0.83279 0.0
C3320 C 0.69077 0.82156 0.81824 0.0
C3321 C 0.67093 0.82331 0.82793 0.0
C3322 C 0.75512 0.83529 0.79088 0.0
C3323 C 0.77034 0.82252 0.79868 0.0
C3324 C 0.73605 0.8367 0.80244 0.0
C3325 C 0.73202 0.82546 0.82205 0.0
C3326 C 0.74801 0.81391 0.83062 0.0
C3327 C 0.7671 0.81257 0.81907 0.0
H3328 H 0.51185 0.58651 0.72132 0.0
H3329 H 0.44841 0.55 0.68217 0.0
H3330 H 0.53025 0.58337 0.68501 0.0
H3331 H 0.4666 0.54694 0.6456 0.0
H3332 H 0.50419 0.53302 0.57802 0.0
H3333 H 0.48567 0.53618 0.61429 0.0
H3334 H 0.54457 0.58833 0.65049 0.0
H3335 H 0.56291 0.58494 0.61416 0.0
C3336 C 0.50149 0.57786 0.70501 0.0
C3337 C 0.47803 0.56875 0.70585 0.0
C3338 C 0.51233 0.57602 0.68349 0.0
C3339 C 0.50071 0.5648 0.66078 0.0
C3340 C 0.47715 0.55566 0.66174 0.0
C3341 C 0.46631 0.55758 0.6833 0.0
C3342 C 0.51344 0.54529 0.59359 0.0
C3343 C 0.53568 0.55861 0.59194 0.0
C3344 C 0.50249 0.54726 0.61505 0.0
C3345 C 0.51282 0.56266 0.63691 0.0
C3346 C 0.53515 0.57593 0.63514 0.0
C3347 C 0.54604 0.57403 0.61364 0.0
H3348 H 0.81956 0.19541 0.98511 0.0
H3349 H 0.76353 0.14387 0.94197 0.0
H3350 H 0.81644 0.22573 0.96102 0.0
H3351 H 0.75958 0.17458 0.91879 0.0
H3352 H 0.76777 0.2302 0.87157 0.0
H3353 H 0.77444 0.19825 0.89192 0.0
H3354 H 0.79067 0.25133 0.95735 0.0
H3355 H 0.78593 0.2839 0.93638 0.0
C3356 C 0.80673 0.19048 0.97033 0.0
C3357 C 0.79142 0.16751 0.96573 0.0
C3358 C 0.80477 0.20794 0.95674 0.0
C3359 C 0.78734 0.2028 0.93851 0.0
C3360 C 0.77318 0.17914 0.93277 0.0
C3361 C 0.77539 0.16153 0.94611 0.0
C3362 C 0.77287 0.23508 0.89031 0.0
C3363 C 0.77668 0.25959 0.90239 0.0
C3364 C 0.77649 0.21671 0.90199 0.0
C3365 C 0.78334 0.22231 0.92617 0.0
C3366 C 0.78597 0.2466 0.93855 0.0
C3367 C 0.78279 0.26515 0.92671 0.0
H3368 H 0.13019 0.53315 0.20681 0.0
H3369 H 0.18559 0.54336 0.16393 0.0
H3370 H 0.10405 0.53194 0.17303 0.0
H3371 H 0.1592 0.54177 0.13005 0.0
H3372 H 0.10181 0.50801 0.0721 0.0
H3373 H 0.1249 0.50684 0.10707 0.0
H3374 H 0.09979 0.56566 0.1464 0.0
H3375 H 0.0768 0.56746 0.11095 0.0
C3376 C 0.13673 0.53476 0.19008 0.0
C3377 C 0.15986 0.53821 0.18783 0.0
C3378 C 0.1218 0.53431 0.17094 0.0
C3379 C 0.12979 0.53685 0.14926 0.0
C3380 C 0.15281 0.5397 0.14677 0.0
C3381 C 0.16782 0.54055 0.16602 0.0
C3382 C 0.10098 0.5206 0.08821 0.0
C3383 C 0.0877 0.53804 0.08883 0.0
C3384 C 0.11424 0.5199 0.10812 0.0
C3385 C 0.11418 0.53634 0.12906 0.0
C3386 C 0.09995 0.55284 0.13023 0.0
C3387 C 0.0868 0.55378 0.1101 0.0
H3388 H 0.84783 0.84124 0.47233 0.0
H3389 H 0.8072 0.88885 0.45153 0.0
H3390 H 0.84738 0.82205 0.43055 0.0
H3391 H 0.80656 0.86988 0.41054 0.0
H3392 H 0.81945 0.78616 0.34668 0.0
H3393 H 0.82159 0.79744 0.39011 0.0
H3394 H 0.83865 0.87423 0.38558 0.0
H3395 H 0.83634 0.86312 0.34306 0.0
C3396 C 0.83827 0.84709 0.45899 0.0
C3397 C 0.82768 0.86673 0.46531 0.0
C3398 C 0.8381 0.83619 0.43504 0.0
C3399 C 0.82738 0.8448 0.41706 0.0
C3400 C 0.81547 0.86314 0.42375 0.0
C3401 C 0.8157 0.87395 0.44737 0.0
C3402 C 0.82431 0.80537 0.35514 0.0
C3403 C 0.82775 0.82377 0.3414 0.0
C3404 C 0.82541 0.81186 0.37998 0.0
C3405 C 0.82973 0.8368 0.39137 0.0
C3406 C 0.83472 0.85488 0.37752 0.0
C3407 C 0.83359 0.84849 0.35307 0.0
H3408 H 0.50318 0.56523 0.83437 0.0
H3409 H 0.4467 0.57503 0.87231 0.0
H3410 H 0.52306 0.55956 0.87061 0.0
H3411 H 0.46601 0.5699 0.90781 0.0
H3412 H 0.49702 0.55259 0.97417 0.0
H3413 H 0.47986 0.55762 0.93757 0.0
H3414 H 0.5424 0.55892 0.90707 0.0
H3415 H 0.55981 0.55347 0.94488 0.0
C3416 C 0.49481 0.56657 0.85029 0.0
C3417 C 0.47268 0.57103 0.84919 0.0
C3418 C 0.50646 0.5631 0.87168 0.0
C3419 C 0.49694 0.56371 0.89376 0.0
C3420 C 0.47497 0.56855 0.89236 0.0
C3421 C 0.46347 0.57191 0.87123 0.0
C3422 C 0.50753 0.55385 0.95988 0.0
C3423 C 0.53036 0.55246 0.96388 0.0
C3424 C 0.49736 0.55707 0.93805 0.0
C3425 C 0.50898 0.55941 0.91768 0.0
C3426 C 0.53197 0.55753 0.92137 0.0
C3427 C 0.54229 0.55425 0.94361 0.0
H3428 H 0.84012 0.21564 0.087 0.0
H3429 H 0.79883 0.15603 0.1131 0.0
H3430 H 0.84348 0.24207 0.12567 0.0
H3431 H 0.80222 0.18254 0.1516 0.0
H3432 H 0.85719 0.27174 0.2067 0.0
H3433 H 0.85821 0.24484 0.16934 0.0
H3434 H 0.78589 0.22133 0.16243 0.0
H3435 H 0.78463 0.2483 0.19969 0.0
C3436 C 0.83226 0.20802 0.10112 0.0
C3437 C 0.81906 0.1839 0.09707 0.0
C3438 C 0.83416 0.22313 0.12315 0.0
C3439 C 0.82278 0.21428 0.14124 0.0
C3440 C 0.81082 0.18974 0.13766 0.0
C3441 C 0.80907 0.17458 0.11573 0.0
C3442 C 0.84146 0.26111 0.19709 0.0
C3443 C 0.8208 0.26219 0.20605 0.0
C3444 C 0.84212 0.24571 0.17581 0.0
C3445 C 0.82218 0.231 0.16337 0.0
C3446 C 0.8015 0.23232 0.17205 0.0
C3447 C 0.8008 0.24786 0.19323 0.0
H3448 H 0.16327 0.52424 0.29853 0.0
H3449 H 0.21445 0.5831 0.34046 0.0
H3450 H 0.13775 0.52927 0.32854 0.0
H3451 H 0.18854 0.58926 0.36983 0.0
H3452 H 0.13955 0.58864 0.42415 0.0
H3453 H 0.16673 0.5761 0.39887 0.0
H3454 H 0.11682 0.55928 0.33882 0.0
H3455 H 0.08897 0.56962 0.36454 0.0
C3456 C 0.16915 0.53802 0.31438 0.0
C3457 C 0.19062 0.55368 0.31701 0.0
C3458 C 0.15445 0.54111 0.33141 0.0
C3459 C 0.16084 0.5602 0.35117 0.0
C3460 C 0.18304 0.5744 0.35478 0.0
C3461 C 0.19792 0.57095 0.33791 0.0
C3462 C 0.13423 0.58186 0.40559 0.0
C3463 C 0.11198 0.57986 0.39636 0.0
C3464 C 0.14994 0.57495 0.39107 0.0
C3465 C 0.14394 0.56649 0.36687 0.0
C3466 C 0.12186 0.56513 0.35751 0.0
C3467 C 0.10599 0.57157 0.37215 0.0
H3468 H 0.84389 0.90347 0.62432 0.0
H3469 H 0.80734 0.83185 0.5874 0.0
H3470 H 0.84102 0.88948 0.66155 0.0
H3471 H 0.80342 0.81799 0.62473 0.0
H3472 H 0.81805 0.7916 0.69265 0.0
H3473 H 0.82056 0.80566 0.65548 0.0
H3474 H 0.81975 0.87907 0.69114 0.0
H3475 H 0.81814 0.865 0.72849 0.0
C3476 C 0.83497 0.88476 0.62415 0.0
C3477 C 0.8259 0.86884 0.60269 0.0
C3478 C 0.83315 0.87669 0.64568 0.0
C3479 C 0.82195 0.85243 0.64662 0.0
C3480 C 0.81258 0.83663 0.62506 0.0
C3481 C 0.81464 0.84465 0.60349 0.0
C3482 C 0.8183 0.81075 0.69259 0.0
C3483 C 0.8178 0.82709 0.71374 0.0
C3484 C 0.81962 0.81888 0.67107 0.0
C3485 C 0.82031 0.84366 0.66982 0.0
C3486 C 0.81967 0.85996 0.69107 0.0
C3487 C 0.81858 0.85185 0.71265 0.0
H3488 H 0.77563 0.45402 0.53919 0.0
H3489 H 0.79548 0.50396 0.49176 0.0
H3490 H 0.74562 0.47447 0.55007 0.0
H3491 H 0.76585 0.52464 0.50312 0.0
H3492 H 0.70051 0.54609 0.51601 0.0
H3493 H 0.72571 0.52036 0.50171 0.0
H3494 H 0.74491 0.51476 0.57307 0.0
H3495 H 0.71855 0.53933 0.58735 0.0
C3496 C 0.77342 0.4691 0.53082 0.0
C3497 C 0.78809 0.47751 0.51475 0.0
C3498 C 0.75636 0.48094 0.53724 0.0
C3499 C 0.75363 0.50132 0.52768 0.0
C3500 C 0.76749 0.50888 0.51068 0.0
C3501 C 0.78453 0.49706 0.50424 0.0
C3502 C 0.7098 0.53903 0.52865 0.0
C3503 C 0.70743 0.54458 0.55283 0.0
C3504 C 0.72441 0.52451 0.52045 0.0
C3505 C 0.7372 0.51553 0.53626 0.0
C3506 C 0.73495 0.52113 0.56045 0.0
C3507 C 0.72015 0.5355 0.56866 0.0
H3508 H 0.24922 0.1382 0.52216 0.0
H3509 H 0.21884 0.18735 0.48918 0.0
H3510 H 0.21231 0.11083 0.5213 0.0
H3511 H 0.18162 0.16028 0.48883 0.0
H3512 H 0.12008 0.12147 0.52307 0.0
H3513 H 0.15652 0.14729 0.51975 0.0
H3514 H 0.18028 0.0827 0.49201 0.0
H3515 H 0.14342 0.0567 0.49477 0.0
C3516 C 0.23462 0.1429 0.51433 0.0
C3517 C 0.23696 0.1644 0.50491 0.0
C3518 C 0.21347 0.12727 0.51392 0.0
C3519 C 0.194 0.13318 0.50475 0.0
C3520 C 0.19629 0.15513 0.49594 0.0
C3521 C 0.21755 0.17062 0.4961 0.0
C3522 C 0.13295 0.11265 0.51609 0.0
C3523 C 0.12872 0.08686 0.5093 0.0
C3524 C 0.15386 0.12756 0.51404 0.0
C3525 C 0.17135 0.11714 0.50553 0.0
C3526 C 0.16718 0.09135 0.49862 0.0
C3527 C 0.14602 0.07642 0.50017 0.0
H3528 H 0.21555 0.94383 0.73771 0.0
H3529 H 0.23307 0.96392 0.81235 0.0
H3530 H 0.23439 0.90904 0.73654 0.0
H3531 H 0.2514 0.92981 0.8113 0.0
H3532 H 0.27244 0.8558 0.81199 0.0
H3533 H 0.25424 0.88977 0.81052 0.0
H3534 H 0.26581 0.88641 0.73786 0.0
H3535 H 0.28456 0.8519 0.73958 0.0
C3536 C 0.22286 0.94097 0.75414 0.0
C3537 C 0.22159 0.95784 0.77529 0.0
C3538 C 0.23426 0.92059 0.75345 0.0
C3539 C 0.24516 0.91499 0.77385 0.0
C3540 C 0.24356 0.93182 0.79479 0.0
C3541 C 0.23262 0.95215 0.7954 0.0
C3542 C 0.27164 0.8622 0.79552 0.0
C3543 C 0.28112 0.85006 0.7762 0.0
C3544 C 0.26081 0.88241 0.79462 0.0
C3545 C 0.25772 0.89247 0.77406 0.0
C3546 C 0.26709 0.88027 0.75441 0.0
C3547 C 0.27837 0.86004 0.75543 0.0
H3548 H 0.39851 0.99338 0.03735 0.0
H3549 H 0.4039 0.92296 0.99911 0.0
H3550 H 0.43778 1.01002 0.03512 0.0
H3551 H 0.44409 0.93809 0.99944 0.0
H3552 H 0.51408 0.97271 0.98825 0.0
H3553 H 0.47348 0.95865 0.98593 0.0
H3554 H 0.47277 0.0151 0.04687 0.0
H3555 H 0.51219 0.03069 0.04642 0.0
C3556 C 0.40834 0.98155 0.02834 0.0
C3557 C 0.39821 0.95752 0.0171 0.0
C3558 C 0.43116 0.9908 0.02758 0.0
C3559 C 0.44468 0.97568 0.01674 0.0
C3560 C 0.43446 0.9509 1.00695 0.0
C3561 C 0.41142 0.94198 1.00701 0.0
C3562 C 0.5048 0.98253 1.00038 0.0
C3563 C 0.51589 1.00356 0.01656 0.0
C3564 C 0.48155 0.97417 0.99955 0.0
C3565 C 0.46924 0.98556 0.01621 0.0
C3566 C 0.48088 1.0062 0.03295 0.0
C3567 C 0.50377 0.01527 0.03282 0.0
H3568 H 0.87458 0.61135 0.84455 0.0
H3569 H 0.92378 0.62275 0.7947 0.0
H3570 H 0.85621 0.6409 0.83049 0.0
H3571 H 0.90522 0.65205 0.78067 0.0
H3572 H 0.86638 0.70439 0.75852 0.0
H3573 H 0.88997 0.69079 0.78698 0.0
H3574 H 0.83495 0.62963 0.78987 0.0
H3575 H 0.81175 0.64316 0.76145 0.0
C3576 C 0.88195 0.62072 0.83117 0.0
C3577 C 0.90019 0.61409 0.82017 0.0
C3578 C 0.87139 0.63761 0.82314 0.0
C3579 C 0.87905 0.64826 0.8042 0.0
C3580 C 0.89898 0.64408 0.79532 0.0
C3581 C 0.90952 0.62712 0.80328 0.0
C3582 C 0.85946 0.68821 0.76557 0.0
C3583 C 0.83762 0.6744 0.75776 0.0
C3584 C 0.8728 0.68057 0.78183 0.0
C3585 C 0.8642 0.6593 0.79066 0.0
C3586 C 0.84187 0.64633 0.78364 0.0
C3587 C 0.82871 0.65378 0.7672 0.0
H3588 H 0.86337 0.66372 0.98029 0.0
H3589 H 0.84868 0.6749 0.05261 0.0
H3590 H 0.894 0.64449 0.9907 0.0
H3591 H 0.87866 0.65478 0.06278 0.0
H3592 H 0.90162 0.57719 0.04881 0.0
H3593 H 0.87726 0.60365 0.03965 0.0
H3594 H 0.93444 0.65705 0.027 0.0
H3595 H 0.95948 0.63147 0.03786 0.0
C3596 C 0.86714 0.66269 0.99851 0.0
C3597 C 0.8539 0.67111 0.01573 0.0
C3598 C 0.88458 0.65165 1.00442 0.0
C3599 C 0.88861 0.64817 0.02751 0.0
C3600 C 0.87595 0.65743 0.04489 0.0
C3601 C 0.85895 0.6691 0.03912 0.0
C3602 C 0.90931 0.59475 0.04463 0.0
C3603 C 0.93281 0.60219 0.04468 0.0
C3604 C 0.8952 0.60982 0.03918 0.0
C3605 C 0.90402 0.63248 0.03295 0.0
C3606 C 0.92728 0.63968 0.03191 0.0
C3607 C 0.94156 0.62483 0.03794 0.0
H3608 H 0.24878 0.0807 0.76539 0.0
H3609 H 0.19526 0.10979 0.79518 0.0
H3610 H 0.2707 0.12267 0.76665 0.0
H3611 H 0.2168 0.15172 0.79622 0.0
H3612 H 0.25096 0.22572 0.77643 0.0
H3613 H 0.23039 0.1839 0.77671 0.0
H3614 H 0.29293 0.16196 0.78629 0.0
H3615 H 0.31352 0.20406 0.786 0.0
C3616 C 0.24177 0.09599 0.77279 0.0
C3617 C 0.22025 0.09114 0.78106 0.0
C3618 C 0.25443 0.12048 0.77335 0.0
C3619 C 0.24608 0.14167 0.78161 0.0
C3620 C 0.22433 0.13664 0.78948 0.0
C3621 C 0.21181 0.1122 0.78907 0.0
C3622 C 0.26058 0.21219 0.7787 0.0
C3623 C 0.28439 0.21924 0.78118 0.0
C3624 C 0.24854 0.18773 0.77899 0.0
C3625 C 0.25946 0.16847 0.78156 0.0
C3626 C 0.28333 0.17549 0.78398 0.0
C3627 C 0.29539 0.20011 0.78393 0.0
H3628 H 0.42899 0.97703 0.32955 0.0
H3629 H 0.37822 0.99504 0.28547 0.0
H3630 H 0.4081 0.93404 0.32192 0.0
H3631 H 0.3578 0.95213 0.27683 0.0
H3632 H 0.31666 0.87675 0.2782 0.0
H3633 H 0.33565 0.91998 0.29243 0.0
H3634 H 0.39994 0.89992 0.29023 0.0
H3635 H 0.38071 0.85686 0.27729 0.0
C3636 C 0.41328 0.97167 0.31832 0.0
C3637 C 0.40468 0.98918 0.30871 0.0
C3638 C 0.40141 0.94714 0.31379 0.0
C3639 C 0.38117 0.93968 0.2989 0.0
C3640 C 0.37297 0.95732 0.28887 0.0
C3641 C 0.38466 0.98184 0.29373 0.0
C3642 C 0.3348 0.88176 0.28137 0.0
C3643 C 0.34736 0.86381 0.27744 0.0
C3644 C 0.34571 0.90641 0.28925 0.0
C3645 C 0.36935 0.91341 0.2926 0.0
C3646 C 0.38175 0.89518 0.28839 0.0
C3647 C 0.37083 0.8706 0.28078 0.0
H3648 H 0.61549 0.40449 0.61826 0.0
H3649 H 0.57957 0.36341 0.55236 0.0
H3650 H 0.61114 0.44286 0.60627 0.0
H3651 H 0.57481 0.40114 0.54074 0.0
H3652 H 0.58201 0.47608 0.51637 0.0
H3653 H 0.58805 0.43769 0.5272 0.0
H3654 H 0.58712 0.46879 0.60042 0.0
H3655 H 0.58121 0.50661 0.58956 0.0
C3656 C 0.60681 0.40346 0.60119 0.0
C3657 C 0.59796 0.38027 0.58654 0.0
C3658 C 0.60403 0.42567 0.59426 0.0
C3659 C 0.5924 0.42577 0.57229 0.0
C3660 C 0.58407 0.40255 0.55758 0.0
C3661 C 0.58674 0.38053 0.5645 0.0
C3662 C 0.58285 0.47462 0.53473 0.0
C3663 C 0.58083 0.49478 0.55195 0.0
C3664 C 0.58639 0.45243 0.54112 0.0
C3665 C 0.58843 0.44955 0.56499 0.0
C3666 C 0.58624 0.46981 0.58196 0.0
C3667 C 0.58257 0.49171 0.57561 0.0
H3668 H 0.453 0.79234 0.42664 0.0
H3669 H 0.47181 0.74742 0.36689 0.0
H3670 H 0.41911 0.79432 0.4035 0.0
H3671 H 0.43869 0.7501 0.34308 0.0
H3672 H 0.37333 0.75252 0.30294 0.0
H3673 H 0.40351 0.74493 0.32765 0.0
H3674 H 0.40274 0.81106 0.37746 0.0
H3675 H 0.37195 0.81758 0.35309 0.0
C3676 C 0.44987 0.78286 0.40845 0.0
C3677 C 0.4657 0.77059 0.39842 0.0
C3678 C 0.4304 0.78422 0.39484 0.0
C3679 C 0.42587 0.77322 0.37063 0.0
C3680 C 0.44098 0.75914 0.36134 0.0
C3681 C 0.4604 0.75779 0.37501 0.0
C3682 C 0.37987 0.76567 0.31893 0.0
C3683 C 0.37036 0.78611 0.32534 0.0
C3684 C 0.39736 0.76126 0.33347 0.0
C3685 C 0.40631 0.77727 0.35513 0.0
C3686 C 0.39652 0.79766 0.3615 0.0
C3687 C 0.37878 0.80173 0.34715 0.0
H3688 H 0.08093 0.73586 0.12222 0.0
H3689 H 0.11607 0.75573 0.06399 0.0
H3690 H 0.07602 0.69231 0.10504 0.0
H3691 H 0.11177 0.7121 0.04679 0.0
H3692 H 0.07895 0.63126 0.01 0.0
H3693 H 0.0877 0.67519 0.0271 0.0
H3694 H 0.09133 0.65799 0.09661 0.0
H3695 H 0.08173 0.61405 0.07921 0.0
C3696 C 0.08758 0.73089 0.10563 0.0
C3697 C 0.09815 0.74946 0.09413 0.0
C3698 C 0.085 0.70573 0.09579 0.0
C3699 C 0.09342 0.69803 0.07426 0.0
C3700 C 0.10459 0.7168 0.06309 0.0
C3701 C 0.10703 0.74201 0.07292 0.0
C3702 C 0.08235 0.63692 0.02893 0.0
C3703 C 0.08043 0.61895 0.04311 0.0
C3704 C 0.08729 0.6623 0.03886 0.0
C3705 C 0.09019 0.67077 0.06349 0.0
C3706 C 0.08893 0.65265 0.07764 0.0
C3707 C 0.08391 0.62726 0.06765 0.0
H3708 H 0.09891 0.3254 0.90722 0.0
H3709 H 0.08305 0.24616 0.89385 0.0
H3710 H 0.13321 0.32557 0.88777 0.0
H3711 H 0.11734 0.24616 0.87398 0.0
H3712 H 0.15499 0.26173 0.80745 0.0
H3713 H 0.12695 0.25766 0.83555 0.0
H3714 H 0.17103 0.3153 0.88659 0.0
H3715 H 0.19927 0.31921 0.85828 0.0
C3716 C 0.10326 0.30801 0.90089 0.0
C3717 C 0.08852 0.28579 0.90247 0.0
C3718 C 0.1229 0.30808 0.88964 0.0
C3719 C 0.12806 0.28589 0.87914 0.0
C3720 C 0.11386 0.26361 0.88178 0.0
C3721 C 0.09438 0.26357 0.89346 0.0
C3722 C 0.15887 0.2732 0.82484 0.0
C3723 C 0.17934 0.29081 0.83062 0.0
C3724 C 0.14284 0.27078 0.84103 0.0
C3725 C 0.14664 0.28617 0.8634 0.0
C3726 C 0.16749 0.30322 0.8695 0.0
C3727 C 0.18374 0.30536 0.85337 0.0
H3728 H 0.61783 0.80481 0.96143 0.0
H3729 H 0.59838 0.74869 0.89839 0.0
H3730 H 0.60475 0.77449 0.98528 0.0
H3731 H 0.58582 0.71791 0.92281 0.0
H3732 H 0.59946 0.67838 0.99054 0.0
H3733 H 0.60938 0.70393 0.96139 0.0
H3734 H 0.56091 0.74581 0.98425 0.0
H3735 H 0.54987 0.71948 0.01268 0.0
C3736 C 0.61117 0.78588 0.95267 0.0
C3737 C 0.60919 0.77903 0.92805 0.0
C3738 C 0.6035 0.76865 0.96635 0.0
C3739 C 0.59414 0.74416 0.95573 0.0
C3740 C 0.59292 0.73687 0.93121 0.0
C3741 C 0.60015 0.75435 0.91735 0.0
C3742 C 0.59043 0.69259 0.98902 0.0
C3743 C 0.57385 0.69693 1.00405 0.0
C3744 C 0.59617 0.70715 0.97232 0.0
C3745 C 0.5858 0.72657 0.97071 0.0
C3746 C 0.56905 0.73079 0.98533 0.0
C3747 C 0.56299 0.71597 1.00175 0.0
H3748 H 0.09355 0.78109 0.65875 0.0
H3749 H 0.0545 0.74801 0.70909 0.0
H3750 H 0.12791 0.7748 0.6787 0.0
H3751 H 0.08844 0.74165 0.7288 0.0
H3752 H 0.14904 0.70543 0.73345 0.0
H3753 H 0.116 0.71413 0.71427 0.0
H3754 H 0.15006 0.79044 0.72216 0.0
H3755 H 0.18302 0.78211 0.74223 0.0
C3756 C 0.09246 0.77262 0.67411 0.0
C3757 C 0.07176 0.76554 0.68289 0.0
C3758 C 0.11194 0.76914 0.68551 0.0
C3759 C 0.11062 0.75781 0.70522 0.0
C3760 C 0.08978 0.75034 0.71359 0.0
C3761 C 0.07049 0.75413 0.70246 0.0
C3762 C 0.14942 0.72415 0.73149 0.0
C3763 C 0.16865 0.74306 0.73942 0.0
C3764 C 0.13059 0.72906 0.72036 0.0
C3765 C 0.13072 0.75288 0.71672 0.0
C3766 C 0.14982 0.77186 0.72455 0.0
C3767 C 0.16861 0.76703 0.73597 0.0
H3768 H 0.14533 0.39721 0.44771 0.0
H3769 H 0.1267 0.43167 0.39101 0.0
H3770 H 0.14376 0.43375 0.47601 0.0
H3771 H 0.12391 0.46739 0.41922 0.0
H3772 H 0.11804 0.53033 0.47357 0.0
H3773 H 0.13658 0.50222 0.44925 0.0
H3774 H 0.11101 0.44562 0.48838 0.0
H3775 H 0.09347 0.47399 0.51282 0.0
C3776 C 0.14139 0.41275 0.44122 0.0
C3777 C 0.1354 0.41121 0.41716 0.0
C3778 C 0.14031 0.43362 0.45746 0.0
C3779 C 0.13298 0.45314 0.44994 0.0
C3780 C 0.12958 0.45272 0.42571 0.0
C3781 C 0.13101 0.43204 0.40946 0.0
C3782 C 0.11677 0.51192 0.47697 0.0
C3783 C 0.10457 0.50414 0.49497 0.0
C3784 C 0.12735 0.49588 0.46317 0.0
C3785 C 0.1254 0.47168 0.46691 0.0
C3786 C 0.11348 0.46429 0.48539 0.0
C3787 C 0.10328 0.48044 0.49935 0.0
H3788 H 0.44188 0.29561 0.16881 0.0
H3789 H 0.45108 0.23208 0.19608 0.0
H3790 H 0.41356 0.30136 0.19576 0.0
H3791 H 0.42142 0.23614 0.22165 0.0
H3792 H 0.37732 0.25871 0.27732 0.0
H3793 H 0.40932 0.2566 0.25439 0.0
H3794 H 0.37715 0.28501 0.20019 0.0
H3795 H 0.34672 0.28888 0.2239 0.0
C3796 C 0.43753 0.28277 0.18051 0.0
C3797 C 0.44831 0.26342 0.18056 0.0
C3798 C 0.42122 0.28583 0.1958 0.0
C3799 C 0.41488 0.269 0.21077 0.0
C3800 C 0.42602 0.24972 0.21077 0.0
C3801 C 0.44282 0.24717 0.19598 0.0
C3802 C 0.37747 0.26475 0.26062 0.0
C3803 C 0.36003 0.27464 0.25266 0.0
C3804 C 0.39561 0.26333 0.24733 0.0
C3805 C 0.39606 0.27092 0.22545 0.0
C3806 C 0.37796 0.27986 0.21725 0.0
C3807 C 0.36031 0.28191 0.2308 0.0
H3808 H 0.6292 0.51308 0.32641 0.0
H3809 H 0.6914 0.54059 0.37076 0.0
H3810 H 0.6085 0.5158 0.36171 0.0
H3811 H 0.67116 0.5433 0.40545 0.0
H3812 H 0.6321 0.56294 0.46968 0.0
H3813 H 0.65116 0.55945 0.43386 0.0
H3814 H 0.59313 0.50643 0.39711 0.0
H3815 H 0.57412 0.50993 0.43331 0.0
C3816 C 0.63878 0.51969 0.34346 0.0
C3817 C 0.66271 0.52645 0.3445 0.0
C3818 C 0.62664 0.52126 0.3643 0.0
C3819 C 0.63738 0.53006 0.38785 0.0
C3820 C 0.66125 0.53675 0.3886 0.0
C3821 C 0.67326 0.53495 0.368 0.0
C3822 C 0.62312 0.55037 0.45414 0.0
C3823 C 0.60096 0.53683 0.45564 0.0
C3824 C 0.6344 0.54817 0.43296 0.0
C3825 C 0.62449 0.53241 0.41115 0.0
C3826 C 0.60216 0.51901 0.41259 0.0
C3827 C 0.59095 0.52099 0.43395 0.0
H3828 H 0.30054 0.89011 0.07415 0.0
H3829 H 0.36026 0.94676 0.10065 0.0
H3830 H 0.30378 0.87277 0.10948 0.0
H3831 H 0.36442 0.92882 0.135 0.0
H3832 H 0.37086 0.89614 0.19641 0.0
H3833 H 0.35402 0.91809 0.17016 0.0
H3834 H 0.32769 0.8492 0.12139 0.0
H3835 H 0.34332 0.82745 0.14846 0.0
C3836 C 0.31412 0.89905 0.08775 0.0
C3837 C 0.33027 0.91958 0.0847 0.0
C3838 C 0.3161 0.88905 0.10788 0.0
C3839 C 0.33455 0.89911 0.12497 0.0
C3840 C 0.34977 0.92072 0.12251 0.0
C3841 C 0.3475 0.93099 0.10268 0.0
C3842 C 0.36095 0.88582 0.1803 0.0
C3843 C 0.3585 0.86031 0.17414 0.0
C3844 C 0.35142 0.8983 0.16522 0.0
C3845 C 0.33985 0.88553 0.14341 0.0
C3846 C 0.33622 0.8597 0.13809 0.0
C3847 C 0.34533 0.84719 0.15346 0.0
H3848 H 0.93899 0.56315 0.90612 0.0
H3849 H 0.98528 0.57244 0.85307 0.0
H3850 H 0.97079 0.56871 0.93554 0.0
H3851 H 0.01666 0.57781 0.88242 0.0
H3852 H 0.05382 0.54147 0.93738 0.0
H3853 H 0.02816 0.54712 0.90576 0.0
H3854 H 1.00566 0.60138 0.95485 0.0
H3855 H 0.03113 0.59564 0.98615 0.0
C3856 C 0.95585 0.56673 0.90081 0.0
C3857 C 0.95955 0.5672 0.87728 0.0
C3858 C 0.97401 0.57001 0.91761 0.0
C3859 C 0.99603 0.57368 0.91103 0.0
C3860 C 0.99979 0.57491 0.88775 0.0
C3861 C 0.98174 0.57186 0.87105 0.0
C3862 C 0.04412 0.55537 0.94095 0.0
C3863 C 0.04424 0.56821 0.96383 0.0
C3864 C 0.0294 0.55851 0.92306 0.0
C3865 C 0.01481 0.5744 0.92819 0.0
C3866 C 0.01659 0.58884 0.95068 0.0
C3867 C 0.03126 0.58575 0.96842 0.0
H3868 H 0.30793 0.1966 0.59474 0.0
H3869 H 0.30341 0.26832 0.58271 0.0
H3870 H 0.30959 0.21087 0.63667 0.0
H3871 H 0.3034 0.28259 0.62512 0.0
H3872 H 0.32162 0.30581 0.70675 0.0
H3873 H 0.31943 0.29495 0.66365 0.0
H3874 H 0.29022 0.21925 0.66699 0.0
H3875 H 0.29447 0.22993 0.70944 0.0
C3876 C 0.30709 0.2155 0.6011 0.0
C3877 C 0.30547 0.23121 0.5852 0.0
C3878 C 0.30767 0.22375 0.62541 0.0
C3879 C 0.30593 0.24793 0.63493 0.0
C3880 C 0.30482 0.26389 0.61892 0.0
C3881 C 0.30478 0.25571 0.59445 0.0
C3882 C 0.31435 0.28699 0.69807 0.0
C3883 C 0.30798 0.26877 0.71155 0.0
C3884 C 0.31314 0.28061 0.67324 0.0
C3885 C 0.30527 0.25588 0.66126 0.0
C3886 C 0.29744 0.23824 0.67503 0.0
C3887 C 0.29937 0.24445 0.6996 0.0
H3888 H 0.68533 0.53408 0.18456 0.0
H3889 H 0.62025 0.51052 0.20735 0.0
H3890 H 0.66786 0.54028 0.14786 0.0
H3891 H 0.60242 0.51646 0.17035 0.0
H3892 H 0.57107 0.53758 0.1013 0.0
H3893 H 0.58767 0.53251 0.13957 0.0
H3894 H 0.65126 0.53449 0.11127 0.0
H3895 H 0.63494 0.53983 0.07405 0.0
C3896 C 0.66717 0.52987 0.18191 0.0
C3897 C 0.65482 0.52133 0.20002 0.0
C3898 C 0.65673 0.53346 0.16015 0.0
C3899 C 0.63292 0.52897 0.15447 0.0
C3900 C 0.62057 0.52052 0.17276 0.0
C3901 C 0.63106 0.51683 0.19453 0.0
C3902 C 0.58868 0.5372 0.10315 0.0
C3903 C 0.6012 0.53941 0.08336 0.0
C3904 C 0.59849 0.53403 0.1256 0.0
C3905 C 0.62157 0.53285 0.13009 0.0
C3906 C 0.6338 0.53537 0.11019 0.0
C3907 C 0.62409 0.53845 0.08804 0.0
H3908 H 0.33235 0.87508 0.9694 0.0
H3909 H 0.31549 0.92595 0.9276 0.0
H3910 H 0.32669 0.84304 0.93409 0.0
H3911 H 0.30951 0.89366 0.89236 0.0
H3912 H 0.28349 0.82419 0.83785 0.0
H3913 H 0.28309 0.84964 0.87633 0.0
H3914 H 0.34994 0.84223 0.89654 0.0
H3915 H 0.35014 0.81649 0.85788 0.0
C3916 C 0.32699 0.87925 0.95275 0.0
C3917 C 0.32437 0.90295 0.95113 0.0
C3918 C 0.32388 0.86098 0.93264 0.0
C3919 C 0.31767 0.86604 0.91074 0.0
C3920 C 0.31413 0.88939 0.90921 0.0
C3921 C 0.31765 0.90782 0.92926 0.0
C3922 C 0.29761 0.82709 0.85093 0.0
C3923 C 0.31653 0.81785 0.8455 0.0
C3924 C 0.29753 0.8419 0.87271 0.0
C3925 C 0.31642 0.84765 0.88923 0.0
C3926 C 0.33505 0.8376 0.88411 0.0
C3927 C 0.33518 0.82293 0.86219 0.0
H3928 H 0.92606 0.51719 0.73094 0.0
H3929 H 0.97728 0.5834 0.7573 0.0
H3930 H 0.94899 0.50522 0.69987 0.0
H3931 H 0.99992 0.57179 0.72603 0.0
H3932 H 0.9955 0.50076 0.63966 0.0
H3933 H 0.96837 0.5144 0.66497 0.0
H3934 H 0.02014 0.53819 0.72345 0.0
H3935 H 0.04743 0.52557 0.69796 0.0
C3936 C 0.94175 0.52967 0.72943 0.0
C3937 C 0.95016 0.551 0.74657 0.0
C3938 C 0.95492 0.52276 0.71179 0.0
C3939 C 0.97646 0.53725 0.71112 0.0
C3940 C 0.98364 0.55995 0.72668 0.0
C3941 C 0.9706 0.56673 0.74435 0.0
C3942 C 1.00098 0.50876 0.658 0.0
C3943 C 0.02357 0.51233 0.6669 0.0
C3944 C 0.98547 0.5165 0.67241 0.0
C3945 C 0.99233 0.52782 0.69593 0.0
C3946 C 0.0146 0.5301 0.70514 0.0
C3947 C 0.03011 0.52245 0.69073 0.0
H3948 H 0.31751 0.2554 0.46435 0.0
H3949 H 0.28515 0.18627 0.41905 0.0
H3950 H 0.32289 0.27434 0.42941 0.0
H3951 H 0.28936 0.20498 0.38514 0.0
H3952 H 0.31649 0.23347 0.32373 0.0
H3953 H 0.31442 0.21803 0.36013 0.0
H3954 H 0.30781 0.28884 0.39721 0.0
H3955 H 0.311 0.30459 0.36059 0.0
C3956 C 0.31136 0.24428 0.44711 0.0
C3957 C 0.30108 0.21913 0.44482 0.0
C3958 C 0.31437 0.25515 0.42697 0.0
C3959 C 0.30701 0.24122 0.40402 0.0
C3960 C 0.2961 0.21637 0.4021 0.0
C3961 C 0.29342 0.20558 0.42191 0.0
C3962 C 0.31467 0.24582 0.33963 0.0
C3963 C 0.31376 0.27025 0.33902 0.0
C3964 C 0.31327 0.23689 0.36069 0.0
C3965 C 0.31044 0.25189 0.38197 0.0
C3966 C 0.31008 0.2766 0.38145 0.0
C3967 C 0.31181 0.28565 0.36033 0.0
H3968 H 0.36185 0.63284 0.53023 0.0
H3969 H 0.31722 0.57083 0.484 0.0
H3970 H 0.39283 0.61204 0.52448 0.0
H3971 H 0.34768 0.55024 0.47884 0.0
H3972 H 0.40989 0.52828 0.45558 0.0
H3973 H 0.38211 0.55336 0.46032 0.0
H3974 H 0.40406 0.57553 0.53465 0.0
H3975 H 0.43206 0.5507 0.5298 0.0
C3976 C 0.35863 0.61488 0.51888 0.0
C3977 C 0.33706 0.60355 0.50757 0.0
C3978 C 0.37632 0.60296 0.51567 0.0
C3979 C 0.37267 0.57961 0.50106 0.0
C3980 C 0.35114 0.56843 0.4898 0.0
C3981 C 0.3336 0.58023 0.49296 0.0
C3982 C 0.40863 0.53838 0.47292 0.0
C3983 C 0.42288 0.53734 0.49235 0.0
C3984 C 0.39284 0.55281 0.47565 0.0
C3985 C 0.39086 0.56628 0.49789 0.0
C3986 C 0.40539 0.56559 0.51726 0.0
C3987 C 0.42127 0.55124 0.51451 0.0
H3988 H 0.90804 0.8996 0.52078 0.0
H3989 H 0.88904 0.95878 0.56632 0.0
H3990 H 0.94558 0.92528 0.52144 0.0
H3991 H 0.92613 0.98523 0.56621 0.0
H3992 H 1.00009 0.02501 0.57072 0.0
H3993 H 0.96457 0.99782 0.57555 0.0
H3994 H 0.96337 0.95701 0.50499 0.0
H3995 H 0.99895 0.98319 0.50075 0.0
C3996 C 0.91195 0.91823 0.53085 0.0
C3997 C 0.89539 0.92765 0.54254 0.0
C3998 C 0.93343 0.93314 0.5311 0.0
C3999 C 0.93896 0.95787 0.5432 0.0
C4000 C 0.92275 0.96649 0.55652 0.0
C4001 C 0.9013 0.95147 0.55631 0.0
C4002 C 0.99221 1.01014 0.55632 0.0
C4003 C 1.00258 1.00623 0.53544 0.0
C4004 C 0.97171 0.99454 0.55901 0.0
C4005 C 0.96095 0.97472 0.54081 0.0
C4006 C 0.97122 0.97137 0.51979 0.0
C4007 C 0.9917 0.9867 0.51722 0.0
H4008 H 0.92948 0.14826 0.25456 0.0
H4009 H 0.89043 0.12979 0.31051 0.0
H4010 H 0.91139 0.18288 0.25282 0.0
H4011 H 0.87241 0.16377 0.30879 0.0
H4012 H 0.84266 0.23462 0.31002 0.0
H4013 H 0.85983 0.19929 0.31123 0.0
H4014 H 0.88961 0.21016 0.24755 0.0
H4015 H 0.87228 0.24496 0.24647 0.0
C4016 C 0.91727 0.15132 0.26681 0.0
C4017 C 0.91238 0.13495 0.28292 0.0
C4018 C 0.90634 0.17172 0.26572 0.0
C4019 C 0.88949 0.17774 0.28062 0.0
C4020 C 0.88488 0.16134 0.29671 0.0
C4021 C 0.89566 0.14109 0.29773 0.0
C4022 C 0.8522 0.22921 0.29571 0.0
C4023 C 0.85451 0.24325 0.27744 0.0
C4024 C 0.8627 0.20846 0.29651 0.0
C4025 C 0.87705 0.20021 0.27951 0.0
C4026 C 0.87928 0.2145 0.26143 0.0
C4027 C 0.86873 0.23497 0.26059 0.0
H4028 H 0.73912 0.10495 0.05207 0.0
H4029 H 0.72456 0.16257 0.01833 0.0
H4030 H 0.69982 0.09297 0.05911 0.0
H4031 H 0.68487 0.15004 0.0243 0.0
H4032 H 0.61663 0.13149 0.04944 0.0
H4033 H 0.6574 0.1474 0.05241 0.0
H4034 H 0.66623 0.07291 0.0354 0.0
H4035 H 0.62639 0.05755 0.03207 0.0
C4036 C 0.72729 0.11474 0.04585 0.0
C4037 C 0.73437 0.134 0.03394 0.0
C4038 C 0.70489 0.10804 0.04998 0.0
C4039 C 0.68921 0.12048 0.04214 0.0
C4040 C 0.69658 0.14033 0.03085 0.0
C4041 C 0.71913 0.14728 0.0271 0.0
C4042 C 0.62747 0.11865 0.04677 0.0
C4043 C 0.6183 0.09325 0.04083 0.0
C4044 C 0.6507 0.1277 0.04831 0.0
C4045 C 0.66502 0.1114 0.04386 0.0
C4046 C 0.65579 0.08601 0.03901 0.0
C4047 C 0.63274 0.0771 0.03721 0.0
H4048 H 0.25576 0.49961 0.22258 0.0
H4049 H 0.20499 0.47942 0.26835 0.0
H4050 H 0.27227 0.46557 0.22933 0.0
H4051 H 0.22166 0.44573 0.27569 0.0
H4052 H 0.25947 0.39139 0.29255 0.0
H4053 H 0.23667 0.40825 0.26611 0.0
H4054 H 0.29306 0.46945 0.26772 0.0
H4055 H 0.31548 0.45245 0.29373 0.0
C4056 C 0.24761 0.48717 0.23326 0.0
C4057 C 0.22937 0.49201 0.24519 0.0
C4058 C 0.25705 0.46778 0.23721 0.0
C4059 C 0.24859 0.45343 0.2535 0.0
C4060 C 0.22853 0.45641 0.26299 0.0
C4061 C 0.21896 0.47568 0.25883 0.0
C4062 C 0.2669 0.40818 0.28673 0.0
C4063 C 0.28892 0.42098 0.29515 0.0
C4064 C 0.25399 0.41774 0.27164 0.0
C4065 C 0.26309 0.44008 0.26478 0.0
C4066 C 0.28566 0.45195 0.27226 0.0
C4067 C 0.29844 0.44248 0.28737 0.0
H4068 H 0.27459 0.4249 0.06384 0.0
H4069 H 0.27148 0.41687 0.98841 0.0
H4070 H 0.24236 0.44435 0.06398 0.0
H4071 H 0.23934 0.43591 0.98841 0.0
H4072 H 0.17575 0.46356 0.99315 0.0
H4073 H 0.1995 0.43425 0.99665 0.0
H4074 H 0.23977 0.48564 0.05541 0.0
H4075 H 0.21618 0.5148 0.05165 0.0
C4076 C 0.26644 0.42638 0.04724 0.0
C4077 C 0.27537 0.41914 0.02609 0.0
C4078 C 0.24818 0.43779 0.04732 0.0
C4079 C 0.23829 0.4418 0.0262 0.0
C4080 C 0.24631 0.43291 1.00495 0.0
C4081 C 0.26474 0.42196 1.00493 0.0
C4082 C 0.18938 0.46825 1.00711 0.0
C4083 C 0.1942 0.49142 0.0221 0.0
C4084 C 0.20305 0.45157 1.00906 0.0
C4085 C 0.2216 0.45759 0.02629 0.0
C4086 C 0.22553 0.48025 0.04212 0.0
C4087 C 0.21211 0.49703 0.0399 0.0
H4088 H 0.94063 0.9902 0.29176 0.0
H4089 H 0.88419 1.00359 0.25281 0.0
H4090 H 0.9197 0.94851 0.29212 0.0
H4091 H 0.86313 0.96156 0.25236 0.0
H4092 H 0.82176 0.88689 0.26527 0.0
H4093 H 0.84208 0.92914 0.26576 0.0
H4094 H 0.90475 0.90826 0.27856 0.0
H4095 H 0.88433 0.86659 0.27893 0.0
C4096 C 0.92365 0.98432 0.28318 0.0
C4097 C 0.9142 1.00125 0.27298 0.0
C4098 C 0.9114 0.95986 0.28317 0.0
C4099 C 0.88902 0.95038 0.27233 0.0
C4100 C 0.87987 0.96727 0.26145 0.0
C4101 C 0.89211 0.99186 0.26169 0.0
C4102 C 0.83987 0.89117 0.26828 0.0
C4103 C 0.85091 0.87239 0.2721 0.0
C4104 C 0.85184 0.91587 0.2684 0.0
C4105 C 0.87571 0.92341 0.27222 0.0
C4106 C 0.88664 0.90443 0.27591 0.0
C4107 C 0.87468 0.87987 0.27592 0.0
H4108 H 0.75526 0.1083 0.73091 0.0
H4109 H 0.70348 0.13266 0.76951 0.0
H4110 H 0.77492 0.1511 0.73306 0.0
H4111 H 0.72258 0.1756 0.77064 0.0
H4112 H 0.75282 0.24584 0.7418 0.0
H4113 H 0.73395 0.20225 0.73653 0.0
H4114 H 0.7925 0.18786 0.77141 0.0
H4115 H 0.81106 0.23147 0.77752 0.0
C4116 C 0.74827 0.12291 0.74001 0.0
C4117 C 0.72852 0.11753 0.75096 0.0
C4118 C 0.75931 0.14724 0.74095 0.0
C4119 C 0.75014 0.16636 0.75199 0.0
C4120 C 0.72982 0.16097 0.762 0.0
C4121 C 0.719 0.13661 0.76144 0.0
C4122 C 0.76169 0.23316 0.74798 0.0
C4123 C 0.7835 0.24156 0.75941 0.0
C4124 C 0.75093 0.20845 0.74508 0.0
C4125 C 0.76195 0.19198 0.75355 0.0
C4126 C 0.7839 0.20032 0.76463 0.0
C4127 C 0.7945 0.2251 0.76794 0.0
loop_
_geom_bond_atom_site_label_1
_geom_bond_atom_site_label_2
_geom_bond_distance
_geom_bond_site_symmetry_2
_ccdc_geom_bond_type
Mn0 O5 2.095 . S
Mn0 O15 2.162 . S
Mn0 O16 2.297 . S
Mn0 O24 2.385 . S
Mn0 O25 2.209 . S
Mn0 O26 2.094 . S
Mn1 O6 2.121 . S
Mn1 N8 2.257 . S
Mn1 N17 2.282 . S
Mn1 O25 2.215 . S
Mn1 O27 2.117 . S
C2 O24 1.234 . S
C2 O25 1.283 . S
C3 O15 1.281 . S
C3 O16 1.236 . S
C4 O26 1.240 . S
C4 O27 1.264 . S
O5 Mn0 2.095 . S
O5 C14 1.250 . S
O6 Mn1 2.121 . S
O6 C14 1.258 . S
C7 N8 1.326 . S
C7 C11 1.460 . S
C7 H13 0.929 . S
N8 Mn1 2.257 . S
N8 C7 1.326 . S
N8 C12 1.362 . S
C9 C10 1.258 . S
C9 C12 1.431 . S
C9 C29 1.449 . S
C10 C9 1.258 . S
C10 C11 1.477 . S
C10 H30 0.931 . S
C11 C7 1.460 . S
C11 C10 1.477 . S
C11 H31 0.930 . S
C12 N8 1.362 . S
C12 C9 1.431 . S
C12 C22 1.476 . S
H13 C7 0.929 . S
C14 O5 1.250 . S
C14 O6 1.258 . S
O15 Mn0 2.162 . S
O15 C3 1.281 . S
O16 Mn0 2.297 . S
O16 C3 1.236 . S
N17 Mn1 2.282 . S
N17 C18 1.328 . S
N17 C22 1.318 . S
C18 N17 1.328 . S
C18 C19 1.457 . S
C18 H23 0.929 . S
C19 C18 1.457 . S
C19 C20 1.291 . S
C19 H32 0.931 . S
C20 C19 1.291 . S
C20 C21 1.373 . S
C20 H33 0.929 . S
C21 C20 1.373 . S
C21 C22 1.396 . S
C21 C28 1.403 . S
C22 C12 1.476 . S
C22 N17 1.318 . S
C22 C21 1.396 . S
H23 C18 0.929 . S
O24 Mn0 2.385 . S
O24 C2 1.234 . S
O25 Mn0 2.209 . S
O25 Mn1 2.215 . S
O25 C2 1.283 . S
O26 Mn0 2.094 . S
O26 C4 1.240 . S
O27 Mn1 2.117 . S
O27 C4 1.264 . S
C28 C21 1.403 . S
C28 C29 1.399 . S
C28 H34 0.929 . S
C29 C9 1.449 . S
C29 C28 1.399 . S
C29 H35 0.930 . S
H30 C10 0.931 . S
H31 C11 0.930 . S
H32 C19 0.931 . S
H33 C20 0.929 . S
H34 C28 0.929 . S
H35 C29 0.930 . S
Mn36 O41 2.073 1_455 S
Mn36 O51 2.163 1_455 S
Mn36 O52 2.300 1_455 S
Mn36 O60 2.409 . S
Mn36 O61 2.218 . S
Mn36 O62 2.092 . S
Mn37 O42 2.121 1_455 S
Mn37 N44 2.257 . S
Mn37 N53 2.282 . S
Mn37 O61 2.215 . S
Mn37 O63 2.117 . S
C38 O60 1.234 . S
C38 O61 1.283 . S
C39 O51 1.281 . S
C39 O52 1.236 . S
C40 O62 1.240 . S
C40 O63 1.264 . S
O41 Mn36 2.073 1_655 S
O41 C50 1.250 . S
O42 Mn37 2.121 1_655 S
O42 C50 1.258 . S
C43 N44 1.326 . S
C43 C47 1.460 . S
C43 H49 0.929 1_455 S
N44 Mn37 2.257 . S
N44 C43 1.326 . S
N44 C48 1.362 . S
C45 C46 1.258 . S
C45 C48 1.431 . S
C45 C65 1.449 . S
C46 C45 1.258 . S
C46 C47 1.477 . S
C46 H66 0.931 . S
C47 C43 1.460 . S
C47 C46 1.477 . S
C47 H67 0.930 . S
C48 N44 1.362 . S
C48 C45 1.431 . S
C48 C58 1.476 . S
H49 C43 0.929 1_655 S
C50 O41 1.250 . S
C50 O42 1.258 . S
O51 Mn36 2.163 1_655 S
O51 C39 1.281 . S
O52 Mn36 2.300 1_655 S
O52 C39 1.236 . S
N53 Mn37 2.282 . S
N53 C54 1.328 . S
N53 C58 1.318 . S
C54 N53 1.328 . S
C54 C55 1.457 . S
C54 H59 0.929 . S
C55 C54 1.457 . S
C55 C56 1.291 . S
C55 H68 0.931 . S
C56 C55 1.291 . S
C56 C57 1.373 . S
C56 H69 0.929 . S
C57 C56 1.373 . S
C57 C58 1.396 . S
C57 C64 1.403 . S
C58 C48 1.476 . S
C58 N53 1.318 . S
C58 C57 1.396 . S
H59 C54 0.929 . S
O60 Mn36 2.409 . S
O60 C38 1.234 . S
O61 Mn36 2.218 . S
O61 Mn37 2.215 . S
O61 C38 1.283 . S
O62 Mn36 2.092 . S
O62 C40 1.240 . S
O63 Mn37 2.117 . S
O63 C40 1.264 . S
C64 C57 1.403 . S
C64 C65 1.399 . S
C64 H70 0.929 . S
C65 C45 1.449 . S
C65 C64 1.399 . S
C65 H71 0.930 . S
H66 C46 0.931 . S
H67 C47 0.930 . S
H68 C55 0.931 . S
H69 C56 0.929 . S
H70 C64 0.929 . S
H71 C65 0.930 . S
Mn72 O77 2.095 . S
Mn72 O87 2.162 . S
Mn72 O88 2.297 . S
Mn72 O96 2.385 . S
Mn72 O97 2.209 . S
Mn72 O98 2.094 . S
Mn73 O78 2.121 . S
Mn73 N80 2.257 . S
Mn73 N89 2.282 . S
Mn73 O97 2.215 . S
Mn73 O99 2.117 . S
C74 O96 1.234 . S
C74 O97 1.283 . S
C75 O87 1.281 . S
C75 O88 1.236 . S
C76 O98 1.240 . S
C76 O99 1.264 . S
O77 Mn72 2.095 . S
O77 C86 1.250 . S
O78 Mn73 2.121 . S
O78 C86 1.258 . S
C79 N80 1.326 . S
C79 C83 1.460 . S
C79 H85 0.929 . S
N80 Mn73 2.257 . S
N80 C79 1.326 . S
N80 C84 1.362 . S
C81 C82 1.258 . S
C81 C84 1.431 . S
C81 C101 1.449 . S
C82 C81 1.258 . S
C82 C83 1.477 . S
C82 H102 0.931 . S
C83 C79 1.460 . S
C83 C82 1.477 . S
C83 H103 0.930 . S
C84 N80 1.362 . S
C84 C81 1.431 . S
C84 C94 1.476 . S
H85 C79 0.929 . S
C86 O77 1.250 . S
C86 O78 1.258 . S
O87 Mn72 2.162 . S
O87 C75 1.281 . S
O88 Mn72 2.297 . S
O88 C75 1.236 . S
N89 Mn73 2.282 . S
N89 C90 1.328 . S
N89 C94 1.318 . S
C90 N89 1.328 . S
C90 C91 1.457 . S
C90 H95 0.929 . S
C91 C90 1.457 . S
C91 C92 1.291 . S
C91 H104 0.931 . S
C92 C91 1.291 . S
C92 C93 1.373 . S
C92 H105 0.929 . S
C93 C92 1.373 . S
C93 C94 1.396 . S
C93 C100 1.403 . S
C94 C84 1.476 . S
C94 N89 1.318 . S
C94 C93 1.396 . S
H95 C90 0.929 . S
O96 Mn72 2.385 . S
O96 C74 1.234 . S
O97 Mn72 2.209 . S
O97 Mn73 2.215 . S
O97 C74 1.283 . S
O98 Mn72 2.094 . S
O98 C76 1.240 . S
O99 Mn73 2.117 . S
O99 C76 1.264 . S
C100 C93 1.403 . S
C100 C101 1.399 . S
C100 H106 0.929 . S
C101 C81 1.449 . S
C101 C100 1.399 . S
C101 H107 0.930 . S
H102 C82 0.931 . S
H103 C83 0.930 . S
H104 C91 0.931 . S
H105 C92 0.929 . S
H106 C100 0.929 . S
H107 C101 0.930 . S
Mn108 O113 2.095 . S
Mn108 O123 2.162 . S
Mn108 O124 2.297 . S
Mn108 O132 2.385 . S
Mn108 O133 2.209 . S
Mn108 O134 2.094 . S
Mn109 O114 2.121 . S
Mn109 N116 2.257 . S
Mn109 N125 2.282 . S
Mn109 O133 2.215 . S
Mn109 O135 2.117 . S
C110 O132 1.234 . S
C110 O133 1.283 . S
C111 O123 1.281 . S
C111 O124 1.236 . S
C112 O134 1.240 . S
C112 O135 1.264 . S
O113 Mn108 2.095 . S
O113 C122 1.250 . S
O114 Mn109 2.121 . S
O114 C122 1.258 . S
C115 N116 1.326 . S
C115 C119 1.460 . S
C115 H121 0.929 . S
N116 Mn109 2.257 . S
N116 C115 1.326 . S
N116 C120 1.362 . S
C117 C118 1.258 . S
C117 C120 1.431 . S
C117 C137 1.449 . S
C118 C117 1.258 . S
C118 C119 1.477 . S
C118 H138 0.931 . S
C119 C115 1.460 . S
C119 C118 1.477 . S
C119 H139 0.930 . S
C120 N116 1.362 . S
C120 C117 1.431 . S
C120 C130 1.476 . S
H121 C115 0.929 . S
C122 O113 1.250 . S
C122 O114 1.258 . S
O123 Mn108 2.162 . S
O123 C111 1.281 . S
O124 Mn108 2.297 . S
O124 C111 1.236 . S
N125 Mn109 2.282 . S
N125 C126 1.328 . S
N125 C130 1.318 . S
C126 N125 1.328 . S
C126 C127 1.457 . S
C126 H131 0.929 . S
C127 C126 1.457 . S
C127 C128 1.291 . S
C127 H140 0.931 . S
C128 C127 1.291 . S
C128 C129 1.373 . S
C128 H141 0.929 . S
C129 C128 1.373 . S
C129 C130 1.396 . S
C129 C136 1.403 . S
C130 C120 1.476 . S
C130 N125 1.318 . S
C130 C129 1.396 . S
H131 C126 0.929 . S
O132 Mn108 2.385 . S
O132 C110 1.234 . S
O133 Mn108 2.209 . S
O133 Mn109 2.215 . S
O133 C110 1.283 . S
O134 Mn108 2.094 . S
O134 C112 1.240 . S
O135 Mn109 2.117 . S
O135 C112 1.264 . S
C136 C129 1.403 . S
C136 C137 1.399 . S
C136 H142 0.929 . S
C137 C117 1.449 . S
C137 C136 1.399 . S
C137 H143 0.930 . S
H138 C118 0.931 . S
H139 C119 0.930 . S
H140 C127 0.931 . S
H141 C128 0.929 . S
H142 C136 0.929 . S
H143 C137 0.930 . S
Mn144 O149 2.095 . S
Mn144 O159 2.162 . S
Mn144 O160 2.297 . S
Mn144 O168 2.385 . S
Mn144 O169 2.209 . S
Mn144 O170 2.094 . S
Mn145 O150 2.121 . S
Mn145 N152 2.257 . S
Mn145 N161 2.282 . S
Mn145 O169 2.215 . S
Mn145 O171 2.117 . S
C146 O168 1.234 . S
C146 O169 1.283 . S
C147 O159 1.281 . S
C147 O160 1.236 . S
C148 O170 1.240 . S
C148 O171 1.264 . S
O149 Mn144 2.095 . S
O149 C158 1.250 . S
O150 Mn145 2.121 . S
O150 C158 1.258 . S
C151 N152 1.326 . S
C151 C155 1.460 1_554 S
C151 H157 0.929 . S
N152 Mn145 2.257 . S
N152 C151 1.326 . S
N152 C156 1.362 . S
C153 C154 1.258 . S
C153 C156 1.431 1_556 S
C153 C173 1.449 . S
C154 C153 1.258 . S
C154 C155 1.477 . S
C154 H174 0.931 . S
C155 C151 1.460 1_556 S
C155 C154 1.477 . S
C155 H175 0.930 . S
C156 N152 1.362 . S
C156 C153 1.431 1_554 S
C156 C166 1.476 . S
H157 C151 0.929 . S
C158 O149 1.250 . S
C158 O150 1.258 . S
O159 Mn144 2.162 . S
O159 C147 1.281 . S
O160 Mn144 2.297 . S
O160 C147 1.236 . S
N161 Mn145 2.282 . S
N161 C162 1.328 . S
N161 C166 1.318 . S
C162 N161 1.328 . S
C162 C163 1.457 . S
C162 H167 0.929 . S
C163 C162 1.457 . S
C163 C164 1.291 . S
C163 H176 0.931 . S
C164 C163 1.291 . S
C164 C165 1.373 . S
C164 H177 0.929 . S
C165 C164 1.373 . S
C165 C166 1.396 . S
C165 C172 1.421 . S
C166 C156 1.476 . S
C166 N161 1.318 . S
C166 C165 1.396 . S
H167 C162 0.929 . S
O168 Mn144 2.385 . S
O168 C146 1.234 . S
O169 Mn144 2.209 . S
O169 Mn145 2.215 . S
O169 C146 1.283 . S
O170 Mn144 2.094 . S
O170 C148 1.240 . S
O171 Mn145 2.117 . S
O171 C148 1.264 . S
C172 C165 1.421 . S
C172 C173 1.383 1_554 S
C172 H178 0.927 1_554 S
C173 C153 1.449 . S
C173 C172 1.383 1_556 S
C173 H179 0.930 . S
H174 C154 0.931 . S
H175 C155 0.930 . S
H176 C163 0.931 . S
H177 C164 0.929 . S
H178 C172 0.927 1_556 S
H179 C173 0.930 . S
Mn180 O185 2.095 . S
Mn180 O195 2.162 . S
Mn180 O196 2.297 . S
Mn180 O204 2.385 . S
Mn180 O205 2.209 . S
Mn180 O206 2.094 . S
Mn181 O186 2.121 . S
Mn181 N188 2.257 . S
Mn181 N197 2.282 . S
Mn181 O205 2.215 . S
Mn181 O207 2.117 . S
C182 O204 1.234 . S
C182 O205 1.283 . S
C183 O195 1.281 . S
C183 O196 1.236 . S
C184 O206 1.240 . S
C184 O207 1.264 . S
O185 Mn180 2.095 . S
O185 C194 1.250 . S
O186 Mn181 2.121 . S
O186 C194 1.258 . S
C187 N188 1.326 . S
C187 C191 1.460 . S
C187 H193 0.929 . S
N188 Mn181 2.257 . S
N188 C187 1.326 . S
N188 C192 1.362 . S
C189 C190 1.258 . S
C189 C192 1.431 . S
C189 C209 1.449 . S
C190 C189 1.258 . S
C190 C191 1.477 . S
C190 H210 0.931 . S
C191 C187 1.460 . S
C191 C190 1.477 . S
C191 H211 0.930 . S
C192 N188 1.362 . S
C192 C189 1.431 . S
C192 C202 1.476 . S
H193 C187 0.929 . S
C194 O185 1.250 . S
C194 O186 1.258 . S
O195 Mn180 2.162 . S
O195 C183 1.281 . S
O196 Mn180 2.297 . S
O196 C183 1.236 . S
N197 Mn181 2.282 . S
N197 C198 1.328 . S
N197 C202 1.318 . S
C198 N197 1.328 . S
C198 C199 1.457 . S
C198 H203 0.929 . S
C199 C198 1.457 . S
C199 C200 1.291 . S
C199 H212 0.931 . S
C200 C199 1.291 . S
C200 C201 1.373 . S
C200 H213 0.929 . S
C201 C200 1.373 . S
C201 C202 1.396 . S
C201 C208 1.403 . S
C202 C192 1.476 . S
C202 N197 1.318 . S
C202 C201 1.396 . S
H203 C198 0.929 . S
O204 Mn180 2.385 . S
O204 C182 1.234 . S
O205 Mn180 2.209 . S
O205 Mn181 2.215 . S
O205 C182 1.283 . S
O206 Mn180 2.094 . S
O206 C184 1.240 . S
O207 Mn181 2.117 . S
O207 C184 1.264 . S
C208 C201 1.403 . S
C208 C209 1.399 . S
C208 H214 0.929 . S
C209 C189 1.449 . S
C209 C208 1.399 . S
C209 H215 0.930 . S
H210 C190 0.931 . S
H211 C191 0.930 . S
H212 C199 0.931 . S
H213 C200 0.929 . S
H214 C208 0.929 . S
H215 C209 0.930 . S
Mn216 O221 2.095 . S
Mn216 O231 2.162 . S
Mn216 O232 2.297 . S
Mn216 O240 2.385 . S
Mn216 O241 2.209 . S
Mn216 O242 2.094 . S
Mn217 O222 2.121 . S
Mn217 N224 2.257 . S
Mn217 N233 2.282 . S
Mn217 O241 2.215 . S
Mn217 O243 2.117 . S
C218 O240 1.234 . S
C218 O241 1.283 . S
C219 O231 1.281 . S
C219 O232 1.236 . S
C220 O242 1.240 . S
C220 O243 1.264 . S
O221 Mn216 2.095 . S
O221 C230 1.250 . S
O222 Mn217 2.121 . S
O222 C230 1.258 . S
C223 N224 1.326 . S
C223 C227 1.460 . S
C223 H229 0.929 . S
N224 Mn217 2.257 . S
N224 C223 1.326 . S
N224 C228 1.362 . S
C225 C226 1.258 . S
C225 C228 1.431 . S
C225 C245 1.449 . S
C226 C225 1.258 . S
C226 C227 1.477 . S
C226 H246 0.931 . S
C227 C223 1.460 . S
C227 C226 1.477 . S
C227 H247 0.930 . S
C228 N224 1.362 . S
C228 C225 1.431 . S
C228 C238 1.476 . S
H229 C223 0.929 . S
C230 O221 1.250 . S
C230 O222 1.258 . S
O231 Mn216 2.162 . S
O231 C219 1.281 . S
O232 Mn216 2.297 . S
O232 C219 1.236 . S
N233 Mn217 2.282 . S
N233 C234 1.328 . S
N233 C238 1.318 . S
C234 N233 1.328 . S
C234 C235 1.457 . S
C234 H239 0.929 . S
C235 C234 1.457 . S
C235 C236 1.291 . S
C235 H248 0.931 . S
C236 C235 1.291 . S
C236 C237 1.373 . S
C236 H249 0.929 . S
C237 C236 1.373 . S
C237 C238 1.396 . S
C237 C244 1.403 . S
C238 C228 1.476 . S
C238 N233 1.318 . S
C238 C237 1.396 . S
H239 C234 0.929 . S
O240 Mn216 2.385 . S
O240 C218 1.234 . S
O241 Mn216 2.209 . S
O241 Mn217 2.215 . S
O241 C218 1.283 . S
O242 Mn216 2.094 . S
O242 C220 1.240 . S
O243 Mn217 2.117 . S
O243 C220 1.264 . S
C244 C237 1.403 . S
C244 C245 1.399 . S
C244 H250 0.929 . S
C245 C225 1.449 . S
C245 C244 1.399 . S
C245 H251 0.930 . S
H246 C226 0.931 . S
H247 C227 0.930 . S
H248 C235 0.931 . S
H249 C236 0.929 . S
H250 C244 0.929 . S
H251 C245 0.930 . S
Mn252 O257 2.095 . S
Mn252 O267 2.162 . S
Mn252 O268 2.297 . S
Mn252 O276 2.385 1_455 S
Mn252 O277 2.209 . S
Mn252 O278 2.094 . S
Mn253 O258 2.121 . S
Mn253 N260 2.257 . S
Mn253 N269 2.282 1_455 S
Mn253 O277 2.215 . S
Mn253 O279 2.117 . S
C254 O276 1.234 . S
C254 O277 1.283 1_655 S
C255 O267 1.281 . S
C255 O268 1.236 . S
C256 O278 1.240 . S
C256 O279 1.264 . S
O257 Mn252 2.095 . S
O257 C266 1.250 . S
O258 Mn253 2.121 . S
O258 C266 1.258 . S
C259 N260 1.326 . S
C259 C263 1.460 . S
C259 H265 0.929 . S
N260 Mn253 2.257 . S
N260 C259 1.326 . S
N260 C264 1.362 1_455 S
C261 C262 1.258 . S
C261 C264 1.431 . S
C261 C281 1.449 . S
C262 C261 1.258 . S
C262 C263 1.477 1_655 S
C262 H282 0.931 . S
C263 C259 1.460 . S
C263 C262 1.477 1_455 S
C263 H283 0.930 . S
C264 N260 1.362 1_655 S
C264 C261 1.431 . S
C264 C274 1.476 . S
H265 C259 0.929 . S
C266 O257 1.250 . S
C266 O258 1.258 . S
O267 Mn252 2.162 . S
O267 C255 1.281 . S
O268 Mn252 2.297 . S
O268 C255 1.236 . S
N269 Mn253 2.282 1_655 S
N269 C270 1.328 . S
N269 C274 1.318 . S
C270 N269 1.328 . S
C270 C271 1.457 . S
C270 H275 0.929 . S
C271 C270 1.457 . S
C271 C272 1.291 . S
C271 H284 0.931 . S
C272 C271 1.291 . S
C272 C273 1.373 . S
C272 H285 0.929 . S
C273 C272 1.373 . S
C273 C274 1.396 . S
C273 C280 1.403 . S
C274 C264 1.476 . S
C274 N269 1.318 . S
C274 C273 1.396 . S
H275 C270 0.929 . S
O276 Mn252 2.385 1_655 S
O276 C254 1.234 . S
O277 Mn252 2.209 . S
O277 Mn253 2.215 . S
O277 C254 1.283 1_455 S
O278 Mn252 2.094 . S
O278 C256 1.240 . S
O279 Mn253 2.117 . S
O279 C256 1.264 . S
C280 C273 1.403 . S
C280 C281 1.399 . S
C280 H286 0.929 . S
C281 C261 1.449 . S
C281 C280 1.399 . S
C281 H287 0.930 . S
H282 C262 0.931 . S
H283 C263 0.930 . S
H284 C271 0.931 . S
H285 C272 0.929 . S
H286 C280 0.929 . S
H287 C281 0.930 . S
Mn288 O293 2.095 . S
Mn288 O303 2.162 . S
Mn288 O304 2.297 . S
Mn288 O312 2.385 1_545 S
Mn288 O313 2.209 1_545 S
Mn288 O314 2.094 . S
Mn289 O294 2.121 . S
Mn289 N296 2.257 1_545 S
Mn289 N305 2.282 1_545 S
Mn289 O313 2.215 1_545 S
Mn289 O315 2.117 . S
C290 O312 1.234 . S
C290 O313 1.283 . S
C291 O303 1.281 . S
C291 O304 1.236 . S
C292 O314 1.240 . S
C292 O315 1.264 . S
O293 Mn288 2.095 . S
O293 C302 1.250 . S
O294 Mn289 2.121 . S
O294 C302 1.258 . S
C295 N296 1.326 1_545 S
C295 C299 1.460 1_545 S
C295 H301 0.929 . S
N296 Mn289 2.257 1_565 S
N296 C295 1.326 1_565 S
N296 C300 1.362 . S
C297 C298 1.258 . S
C297 C300 1.431 . S
C297 C317 1.449 . S
C298 C297 1.258 . S
C298 C299 1.477 . S
C298 H318 0.931 . S
C299 C295 1.460 1_565 S
C299 C298 1.477 . S
C299 H319 0.930 1_565 S
C300 N296 1.362 . S
C300 C297 1.431 . S
C300 C310 1.476 . S
H301 C295 0.929 . S
C302 O293 1.250 . S
C302 O294 1.258 . S
O303 Mn288 2.162 . S
O303 C291 1.281 . S
O304 Mn288 2.297 . S
O304 C291 1.236 . S
N305 Mn289 2.282 1_565 S
N305 C306 1.328 . S
N305 C310 1.318 . S
C306 N305 1.328 . S
C306 C307 1.457 . S
C306 H311 0.929 . S
C307 C306 1.457 . S
C307 C308 1.291 . S
C307 H320 0.931 . S
C308 C307 1.291 . S
C308 C309 1.373 . S
C308 H321 0.929 . S
C309 C308 1.373 . S
C309 C310 1.396 . S
C309 C316 1.403 . S
C310 C300 1.476 . S
C310 N305 1.318 . S
C310 C309 1.396 . S
H311 C306 0.929 . S
O312 Mn288 2.385 1_565 S
O312 C290 1.234 . S
O313 Mn288 2.209 1_565 S
O313 Mn289 2.215 1_565 S
O313 C290 1.283 . S
O314 Mn288 2.094 . S
O314 C292 1.240 . S
O315 Mn289 2.117 . S
O315 C292 1.264 . S
C316 C309 1.403 . S
C316 C317 1.399 . S
C316 H322 0.929 . S
C317 C297 1.449 . S
C317 C316 1.399 . S
C317 H323 0.930 . S
H318 C298 0.931 . S
H319 C299 0.930 1_545 S
H320 C307 0.931 . S
H321 C308 0.929 . S
H322 C316 0.929 . S
H323 C317 0.930 . S
Mn324 O329 2.095 . S
Mn324 O339 2.162 . S
Mn324 O340 2.297 . S
Mn324 O348 2.385 . S
Mn324 O349 2.209 . S
Mn324 O350 2.094 . S
Mn325 O330 2.121 . S
Mn325 N332 2.257 . S
Mn325 N341 2.282 . S
Mn325 O349 2.215 . S
Mn325 O351 2.117 . S
C326 O348 1.234 . S
C326 O349 1.283 . S
C327 O339 1.281 . S
C327 O340 1.236 . S
C328 O350 1.240 . S
C328 O351 1.264 . S
O329 Mn324 2.095 . S
O329 C338 1.250 . S
O330 Mn325 2.121 . S
O330 C338 1.258 . S
C331 N332 1.326 . S
C331 C335 1.460 . S
C331 H337 0.929 . S
N332 Mn325 2.257 . S
N332 C331 1.326 . S
N332 C336 1.362 . S
C333 C334 1.258 . S
C333 C336 1.431 . S
C333 C353 1.449 . S
C334 C333 1.258 . S
C334 C335 1.477 . S
C334 H354 0.931 . S
C335 C331 1.460 . S
C335 C334 1.477 . S
C335 H355 0.930 . S
C336 N332 1.362 . S
C336 C333 1.431 . S
C336 C346 1.476 . S
H337 C331 0.929 . S
C338 O329 1.250 . S
C338 O330 1.258 . S
O339 Mn324 2.162 . S
O339 C327 1.281 . S
O340 Mn324 2.297 . S
O340 C327 1.236 . S
N341 Mn325 2.282 . S
N341 C342 1.328 . S
N341 C346 1.318 . S
C342 N341 1.328 . S
C342 C343 1.457 . S
C342 H347 0.929 . S
C343 C342 1.457 . S
C343 C344 1.291 . S
C343 H356 0.931 . S
C344 C343 1.291 . S
C344 C345 1.373 . S
C344 H357 0.929 . S
C345 C344 1.373 . S
C345 C346 1.396 . S
C345 C352 1.403 . S
C346 C336 1.476 . S
C346 N341 1.318 . S
C346 C345 1.396 . S
H347 C342 0.929 . S
O348 Mn324 2.385 . S
O348 C326 1.234 . S
O349 Mn324 2.209 . S
O349 Mn325 2.215 . S
O349 C326 1.283 . S
O350 Mn324 2.094 . S
O350 C328 1.240 . S
O351 Mn325 2.117 . S
O351 C328 1.264 . S
C352 C345 1.403 . S
C352 C353 1.399 . S
C352 H358 0.929 . S
C353 C333 1.449 . S
C353 C352 1.399 . S
C353 H359 0.930 . S
H354 C334 0.931 . S
H355 C335 0.930 . S
H356 C343 0.931 . S
H357 C344 0.929 . S
H358 C352 0.929 . S
H359 C353 0.930 . S
Mn360 O365 2.111 . S
Mn360 O375 2.160 . S
Mn360 O376 2.295 . S
Mn360 O384 2.369 1_565 S
Mn360 O385 2.203 1_565 S
Mn360 O386 2.093 . S
Mn361 O366 2.121 1_545 S
Mn361 N368 2.257 . S
Mn361 N377 2.282 . S
Mn361 O385 2.215 . S
Mn361 O387 2.117 . S
C362 O384 1.234 . S
C362 O385 1.283 . S
C363 O375 1.281 . S
C363 O376 1.236 . S
C364 O386 1.246 1_545 S
C364 O387 1.264 . S
O365 Mn360 2.111 . S
O365 C374 1.250 . S
O366 Mn361 2.121 1_565 S
O366 C374 1.258 . S
C367 N368 1.326 . S
C367 C371 1.460 . S
C367 H373 0.942 . S
N368 Mn361 2.257 . S
N368 C367 1.326 . S
N368 C372 1.362 . S
C369 C370 1.258 . S
C369 C372 1.431 . S
C369 C389 1.449 . S
C370 C369 1.258 . S
C370 C371 1.477 . S
C370 H390 0.931 . S
C371 C367 1.460 . S
C371 C370 1.477 . S
C371 H391 0.930 . S
C372 N368 1.362 . S
C372 C369 1.431 . S
C372 C382 1.476 . S
H373 C367 0.942 . S
C374 O365 1.250 . S
C374 O366 1.258 . S
O375 Mn360 2.160 . S
O375 C363 1.281 . S
O376 Mn360 2.295 . S
O376 C363 1.236 . S
N377 Mn361 2.282 . S
N377 C378 1.328 . S
N377 C382 1.318 . S
C378 N377 1.328 . S
C378 C379 1.457 . S
C378 H383 0.929 . S
C379 C378 1.457 . S
C379 C380 1.291 . S
C379 H392 0.931 . S
C380 C379 1.291 . S
C380 C381 1.373 . S
C380 H393 0.929 . S
C381 C380 1.373 . S
C381 C382 1.396 . S
C381 C388 1.403 . S
C382 C372 1.476 . S
C382 N377 1.318 . S
C382 C381 1.396 . S
H383 C378 0.929 . S
O384 Mn360 2.369 1_545 S
O384 C362 1.234 . S
O385 Mn360 2.203 1_545 S
O385 Mn361 2.215 . S
O385 C362 1.283 . S
O386 Mn360 2.093 . S
O386 C364 1.246 1_565 S
O387 Mn361 2.117 . S
O387 C364 1.264 . S
C388 C381 1.403 . S
C388 C389 1.399 . S
C388 H394 0.929 . S
C389 C369 1.449 . S
C389 C388 1.399 . S
C389 H395 0.930 . S
H390 C370 0.931 . S
H391 C371 0.930 . S
H392 C379 0.931 . S
H393 C380 0.929 . S
H394 C388 0.929 . S
H395 C389 0.930 . S
Mn396 O401 2.095 . S
Mn396 O411 2.162 . S
Mn396 O412 2.297 . S
Mn396 O420 2.385 . S
Mn396 O421 2.209 . S
Mn396 O422 2.094 1_554 S
Mn397 O402 2.121 . S
Mn397 N404 2.257 1_565 S
Mn397 N413 2.282 . S
Mn397 O421 2.215 1_556 S
Mn397 O423 2.117 . S
C398 O420 1.234 . S
C398 O421 1.283 . S
C399 O411 1.281 . S
C399 O412 1.236 . S
C400 O422 1.240 . S
C400 O423 1.264 . S
O401 Mn396 2.095 . S
O401 C410 1.250 . S
O402 Mn397 2.121 . S
O402 C410 1.258 1_556 S
C403 N404 1.326 . S
C403 C407 1.460 1_556 S
C403 H409 0.929 1_556 S
N404 Mn397 2.257 1_545 S
N404 C403 1.326 . S
N404 C408 1.362 . S
C405 C406 1.258 . S
C405 C408 1.431 . S
C405 C425 1.449 . S
C406 C405 1.258 . S
C406 C407 1.477 1_556 S
C406 H426 0.931 . S
C407 C403 1.460 1_554 S
C407 C406 1.477 1_554 S
C407 H427 0.930 . S
C408 N404 1.362 . S
C408 C405 1.431 . S
C408 C418 1.476 1_545 S
H409 C403 0.929 1_554 S
C410 O401 1.250 . S
C410 O402 1.258 1_554 S
O411 Mn396 2.162 . S
O411 C399 1.281 . S
O412 Mn396 2.297 . S
O412 C399 1.236 . S
N413 Mn397 2.282 . S
N413 C414 1.328 . S
N413 C418 1.318 . S
C414 N413 1.328 . S
C414 C415 1.457 . S
C414 H419 0.929 . S
C415 C414 1.457 . S
C415 C416 1.291 . S
C415 H428 0.931 . S
C416 C415 1.291 . S
C416 C417 1.373 1_565 S
C416 H429 0.929 . S
C417 C416 1.373 1_545 S
C417 C418 1.396 1_545 S
C417 C424 1.403 . S
C418 C408 1.476 1_565 S
C418 N413 1.318 . S
C418 C417 1.396 1_565 S
H419 C414 0.929 . S
O420 Mn396 2.385 . S
O420 C398 1.234 . S
O421 Mn396 2.209 . S
O421 Mn397 2.215 1_554 S
O421 C398 1.283 . S
O422 Mn396 2.094 1_556 S
O422 C400 1.240 . S
O423 Mn397 2.117 . S
O423 C400 1.264 . S
C424 C417 1.403 . S
C424 C425 1.399 . S
C424 H430 0.929 . S
C425 C405 1.449 . S
C425 C424 1.399 . S
C425 H431 0.930 . S
H426 C406 0.931 . S
H427 C407 0.930 . S
H428 C415 0.931 . S
H429 C416 0.929 . S
H430 C424 0.929 . S
H431 C425 0.930 . S
Mn432 O437 2.095 . S
Mn432 O447 2.162 . S
Mn432 O448 2.297 . S
Mn432 O456 2.385 . S
Mn432 O457 2.209 . S
Mn432 O458 2.094 . S
Mn433 O438 2.121 . S
Mn433 N440 2.257 . S
Mn433 N449 2.282 1_554 S
Mn433 O457 2.215 . S
Mn433 O459 2.117 1_554 S
C434 O456 1.234 . S
C434 O457 1.283 . S
C435 O447 1.281 . S
C435 O448 1.236 . S
C436 O458 1.240 1_556 S
C436 O459 1.264 . S
O437 Mn432 2.095 . S
O437 C446 1.250 . S
O438 Mn433 2.121 . S
O438 C446 1.258 . S
C439 N440 1.326 . S
C439 C443 1.460 . S
C439 H445 0.929 . S
N440 Mn433 2.257 . S
N440 C439 1.326 . S
N440 C444 1.362 . S
C441 C442 1.258 . S
C441 C444 1.431 . S
C441 C461 1.449 . S
C442 C441 1.258 . S
C442 C443 1.477 . S
C442 H462 0.931 . S
C443 C439 1.460 . S
C443 C442 1.477 . S
C443 H463 0.930 . S
C444 N440 1.362 . S
C444 C441 1.431 . S
C444 C454 1.476 1_554 S
H445 C439 0.929 . S
C446 O437 1.250 . S
C446 O438 1.258 . S
O447 Mn432 2.162 . S
O447 C435 1.281 . S
O448 Mn432 2.297 . S
O448 C435 1.236 . S
N449 Mn433 2.282 1_556 S
N449 C450 1.328 . S
N449 C454 1.318 . S
C450 N449 1.328 . S
C450 C451 1.457 . S
C450 H455 0.929 . S
C451 C450 1.457 . S
C451 C452 1.291 . S
C451 H464 0.931 . S
C452 C451 1.291 . S
C452 C453 1.373 . S
C452 H465 0.929 . S
C453 C452 1.373 . S
C453 C454 1.396 . S
C453 C460 1.403 . S
C454 C444 1.476 1_556 S
C454 N449 1.318 . S
C454 C453 1.396 . S
H455 C450 0.929 . S
O456 Mn432 2.385 . S
O456 C434 1.234 . S
O457 Mn432 2.209 . S
O457 Mn433 2.215 . S
O457 C434 1.283 . S
O458 Mn432 2.094 . S
O458 C436 1.240 1_554 S
O459 Mn433 2.117 1_556 S
O459 C436 1.264 . S
C460 C453 1.403 . S
C460 C461 1.399 1_556 S
C460 H466 0.929 . S
C461 C441 1.449 . S
C461 C460 1.399 1_554 S
C461 H467 0.930 . S
H462 C442 0.931 . S
H463 C443 0.930 . S
H464 C451 0.931 . S
H465 C452 0.929 . S
H466 C460 0.929 . S
H467 C461 0.930 . S
Mn468 O473 2.095 . S
Mn468 O483 2.162 . S
Mn468 O484 2.297 . S
Mn468 O492 2.385 . S
Mn468 O493 2.209 . S
Mn468 O494 2.094 . S
Mn469 O474 2.121 1_556 S
Mn469 N476 2.257 . S
Mn469 N485 2.282 . S
Mn469 O493 2.215 1_556 S
Mn469 O495 2.117 . S
C470 O492 1.234 . S
C470 O493 1.283 . S
C471 O483 1.281 . S
C471 O484 1.236 . S
C472 O494 1.240 1_556 S
C472 O495 1.264 . S
O473 Mn468 2.095 . S
O473 C482 1.250 . S
O474 Mn469 2.121 1_554 S
O474 C482 1.258 . S
C475 N476 1.326 . S
C475 C479 1.460 . S
C475 H481 0.929 1_556 S
N476 Mn469 2.257 . S
N476 C475 1.326 . S
N476 C480 1.362 . S
C477 C478 1.258 . S
C477 C480 1.431 . S
C477 C497 1.449 . S
C478 C477 1.258 . S
C478 C479 1.477 . S
C478 H498 0.931 1_545 S
C479 C475 1.460 . S
C479 C478 1.477 . S
C479 H499 0.930 . S
C480 N476 1.362 . S
C480 C477 1.431 . S
C480 C490 1.476 . S
H481 C475 0.929 1_554 S
C482 O473 1.250 . S
C482 O474 1.258 . S
O483 Mn468 2.162 . S
O483 C471 1.281 . S
O484 Mn468 2.297 . S
O484 C471 1.236 . S
N485 Mn469 2.282 . S
N485 C486 1.328 . S
N485 C490 1.318 . S
C486 N485 1.328 . S
C486 C487 1.457 . S
C486 H491 0.929 . S
C487 C486 1.457 . S
C487 C488 1.291 . S
C487 H500 0.931 . S
C488 C487 1.291 . S
C488 C489 1.373 . S
C488 H501 0.929 . S
C489 C488 1.373 . S
C489 C490 1.396 . S
C489 C496 1.403 . S
C490 C480 1.476 . S
C490 N485 1.318 . S
C490 C489 1.396 . S
H491 C486 0.929 . S
O492 Mn468 2.385 . S
O492 C470 1.234 . S
O493 Mn468 2.209 . S
O493 Mn469 2.215 1_554 S
O493 C470 1.283 . S
O494 Mn468 2.094 . S
O494 C472 1.240 1_554 S
O495 Mn469 2.117 . S
O495 C472 1.264 . S
C496 C489 1.403 . S
C496 C497 1.399 . S
C496 H502 0.929 . S
C497 C477 1.449 . S
C497 C496 1.399 . S
C497 H503 0.930 . S
H498 C478 0.931 1_565 S
H499 C479 0.930 . S
H500 C487 0.931 . S
H501 C488 0.929 . S
H502 C496 0.929 . S
H503 C497 0.930 . S
Mn504 O509 2.095 . S
Mn504 O519 2.162 . S
Mn504 O520 2.297 . S
Mn504 O528 2.385 . S
Mn504 O529 2.209 . S
Mn504 O530 2.094 . S
Mn505 O510 2.121 . S
Mn505 N512 2.257 . S
Mn505 N521 2.282 . S
Mn505 O529 2.215 . S
Mn505 O531 2.117 . S
C506 O528 1.234 . S
C506 O529 1.283 . S
C507 O519 1.281 . S
C507 O520 1.236 . S
C508 O530 1.240 . S
C508 O531 1.264 . S
O509 Mn504 2.095 . S
O509 C518 1.250 . S
O510 Mn505 2.121 . S
O510 C518 1.258 . S
C511 N512 1.326 . S
C511 C515 1.460 . S
C511 H517 0.929 . S
N512 Mn505 2.257 . S
N512 C511 1.326 . S
N512 C516 1.362 . S
C513 C514 1.258 . S
C513 C516 1.431 . S
C513 C533 1.449 . S
C514 C513 1.258 . S
C514 C515 1.477 . S
C514 H534 0.931 . S
C515 C511 1.460 . S
C515 C514 1.477 . S
C515 H535 0.930 . S
C516 N512 1.362 . S
C516 C513 1.431 . S
C516 C526 1.476 . S
H517 C511 0.929 . S
C518 O509 1.250 . S
C518 O510 1.258 . S
O519 Mn504 2.162 . S
O519 C507 1.281 . S
O520 Mn504 2.297 . S
O520 C507 1.236 . S
N521 Mn505 2.282 . S
N521 C522 1.328 . S
N521 C526 1.318 . S
C522 N521 1.328 . S
C522 C523 1.457 . S
C522 H527 0.929 . S
C523 C522 1.457 . S
C523 C524 1.291 . S
C523 H536 0.931 . S
C524 C523 1.291 . S
C524 C525 1.373 . S
C524 H537 0.929 . S
C525 C524 1.373 . S
C525 C526 1.396 . S
C525 C532 1.403 . S
C526 C516 1.476 . S
C526 N521 1.318 . S
C526 C525 1.396 . S
H527 C522 0.929 . S
O528 Mn504 2.385 . S
O528 C506 1.234 . S
O529 Mn504 2.209 . S
O529 Mn505 2.215 . S
O529 C506 1.283 . S
O530 Mn504 2.094 . S
O530 C508 1.240 . S
O531 Mn505 2.117 . S
O531 C508 1.264 . S
C532 C525 1.403 . S
C532 C533 1.399 . S
C532 H538 0.929 . S
C533 C513 1.449 . S
C533 C532 1.399 . S
C533 H539 0.930 . S
H534 C514 0.931 . S
H535 C515 0.930 . S
H536 C523 0.931 . S
H537 C524 0.929 . S
H538 C532 0.929 . S
H539 C533 0.930 . S
Mn540 O545 2.095 . S
Mn540 O555 2.162 . S
Mn540 O556 2.297 . S
Mn540 O564 2.385 . S
Mn540 O565 2.209 . S
Mn540 O566 2.094 . S
Mn541 O546 2.121 . S
Mn541 N548 2.257 . S
Mn541 N557 2.282 . S
Mn541 O565 2.215 . S
Mn541 O567 2.117 . S
C542 O564 1.234 . S
C542 O565 1.283 . S
C543 O555 1.281 . S
C543 O556 1.236 . S
C544 O566 1.240 . S
C544 O567 1.264 . S
O545 Mn540 2.095 . S
O545 C554 1.250 . S
O546 Mn541 2.121 . S
O546 C554 1.258 . S
C547 N548 1.326 . S
C547 C551 1.460 . S
C547 H553 0.929 . S
N548 Mn541 2.257 . S
N548 C547 1.326 . S
N548 C552 1.362 . S
C549 C550 1.258 1_565 S
C549 C552 1.431 . S
C549 C569 1.449 . S
C550 C549 1.258 1_545 S
C550 C551 1.477 1_545 S
C550 H570 0.931 . S
C551 C547 1.460 . S
C551 C550 1.477 1_565 S
C551 H571 0.930 1_565 S
C552 N548 1.362 . S
C552 C549 1.431 . S
C552 C562 1.476 . S
H553 C547 0.929 . S
C554 O545 1.250 . S
C554 O546 1.258 . S
O555 Mn540 2.162 . S
O555 C543 1.281 . S
O556 Mn540 2.297 . S
O556 C543 1.236 . S
N557 Mn541 2.282 . S
N557 C558 1.328 . S
N557 C562 1.318 . S
C558 N557 1.328 . S
C558 C559 1.457 . S
C558 H563 0.929 . S
C559 C558 1.457 . S
C559 C560 1.291 . S
C559 H572 0.931 . S
C560 C559 1.291 . S
C560 C561 1.373 . S
C560 H573 0.929 . S
C561 C560 1.373 . S
C561 C562 1.396 . S
C561 C568 1.403 . S
C562 C552 1.476 . S
C562 N557 1.318 . S
C562 C561 1.396 . S
H563 C558 0.929 . S
O564 Mn540 2.385 . S
O564 C542 1.234 . S
O565 Mn540 2.209 . S
O565 Mn541 2.215 . S
O565 C542 1.283 . S
O566 Mn540 2.094 . S
O566 C544 1.240 . S
O567 Mn541 2.117 . S
O567 C544 1.264 . S
C568 C561 1.403 . S
C568 C569 1.399 . S
C568 H574 0.929 . S
C569 C549 1.449 . S
C569 C568 1.399 . S
C569 H575 0.930 1_565 S
H570 C550 0.931 . S
H571 C551 0.930 1_545 S
H572 C559 0.931 . S
H573 C560 0.929 . S
H574 C568 0.929 . S
H575 C569 0.930 1_545 S
Mn576 O581 2.095 . S
Mn576 O591 2.162 . S
Mn576 O592 2.297 . S
Mn576 O600 2.385 . S
Mn576 O601 2.209 . S
Mn576 O602 2.094 . S
Mn577 O582 2.121 . S
Mn577 N584 2.257 . S
Mn577 N593 2.282 . S
Mn577 O601 2.215 . S
Mn577 O603 2.117 . S
C578 O600 1.234 . S
C578 O601 1.283 . S
C579 O591 1.281 . S
C579 O592 1.236 . S
C580 O602 1.240 . S
C580 O603 1.264 . S
O581 Mn576 2.095 . S
O581 C590 1.250 . S
O582 Mn577 2.121 . S
O582 C590 1.258 . S
C583 N584 1.326 . S
C583 C587 1.460 . S
C583 H589 0.929 . S
N584 Mn577 2.257 . S
N584 C583 1.326 . S
N584 C588 1.362 . S
C585 C586 1.258 . S
C585 C588 1.431 . S
C585 C605 1.449 1_545 S
C586 C585 1.258 . S
C586 C587 1.477 . S
C586 H606 0.931 . S
C587 C583 1.460 . S
C587 C586 1.477 . S
C587 H607 0.930 . S
C588 N584 1.362 . S
C588 C585 1.431 . S
C588 C598 1.476 . S
H589 C583 0.929 . S
C590 O581 1.250 . S
C590 O582 1.258 . S
O591 Mn576 2.162 . S
O591 C579 1.281 . S
O592 Mn576 2.297 . S
O592 C579 1.236 . S
N593 Mn577 2.282 . S
N593 C594 1.328 . S
N593 C598 1.318 . S
C594 N593 1.328 . S
C594 C595 1.457 1_545 S
C594 H599 0.929 . S
C595 C594 1.457 1_565 S
C595 C596 1.291 . S
C595 H608 0.931 . S
C596 C595 1.291 . S
C596 C597 1.373 . S
C596 H609 0.929 . S
C597 C596 1.373 . S
C597 C598 1.396 1_565 S
C597 C604 1.403 . S
C598 C588 1.476 . S
C598 N593 1.318 . S
C598 C597 1.396 1_545 S
H599 C594 0.929 . S
O600 Mn576 2.385 . S
O600 C578 1.234 . S
O601 Mn576 2.209 . S
O601 Mn577 2.215 . S
O601 C578 1.283 . S
O602 Mn576 2.094 . S
O602 C580 1.240 . S
O603 Mn577 2.117 . S
O603 C580 1.264 . S
C604 C597 1.403 . S
C604 C605 1.399 . S
C604 H610 0.929 . S
C605 C585 1.449 1_565 S
C605 C604 1.399 . S
C605 H611 0.930 . S
H606 C586 0.931 . S
H607 C587 0.930 . S
H608 C595 0.931 . S
H609 C596 0.929 . S
H610 C604 0.929 . S
H611 C605 0.930 . S
Mn612 O617 2.095 . S
Mn612 O627 2.162 . S
Mn612 O628 2.297 . S
Mn612 O636 2.385 . S
Mn612 O637 2.209 . S
Mn612 O638 2.094 . S
Mn613 O618 2.121 . S
Mn613 N620 2.257 . S
Mn613 N629 2.282 . S
Mn613 O637 2.215 . S
Mn613 O639 2.117 . S
C614 O636 1.234 . S
C614 O637 1.283 . S
C615 O627 1.281 . S
C615 O628 1.236 . S
C616 O638 1.240 . S
C616 O639 1.264 . S
O617 Mn612 2.095 . S
O617 C626 1.250 . S
O618 Mn613 2.121 . S
O618 C626 1.258 . S
C619 N620 1.326 . S
C619 C623 1.460 . S
C619 H625 0.929 . S
N620 Mn613 2.257 . S
N620 C619 1.326 . S
N620 C624 1.362 . S
C621 C622 1.258 . S
C621 C624 1.431 . S
C621 C641 1.449 . S
C622 C621 1.258 . S
C622 C623 1.477 . S
C622 H642 0.931 . S
C623 C619 1.460 . S
C623 C622 1.477 . S
C623 H643 0.930 . S
C624 N620 1.362 . S
C624 C621 1.431 . S
C624 C634 1.476 . S
H625 C619 0.929 . S
C626 O617 1.250 . S
C626 O618 1.258 . S
O627 Mn612 2.162 . S
O627 C615 1.281 . S
O628 Mn612 2.297 . S
O628 C615 1.236 . S
N629 Mn613 2.282 . S
N629 C630 1.328 . S
N629 C634 1.318 . S
C630 N629 1.328 . S
C630 C631 1.457 . S
C630 H635 0.929 . S
C631 C630 1.457 . S
C631 C632 1.291 . S
C631 H644 0.931 . S
C632 C631 1.291 . S
C632 C633 1.373 . S
C632 H645 0.929 . S
C633 C632 1.373 . S
C633 C634 1.396 . S
C633 C640 1.403 . S
C634 C624 1.476 . S
C634 N629 1.318 . S
C634 C633 1.396 . S
H635 C630 0.929 . S
O636 Mn612 2.385 . S
O636 C614 1.234 . S
O637 Mn612 2.209 . S
O637 Mn613 2.215 . S
O637 C614 1.283 . S
O638 Mn612 2.094 . S
O638 C616 1.240 . S
O639 Mn613 2.117 . S
O639 C616 1.264 . S
C640 C633 1.403 . S
C640 C641 1.399 . S
C640 H646 0.929 . S
C641 C621 1.449 . S
C641 C640 1.399 . S
C641 H647 0.930 . S
H642 C622 0.931 . S
H643 C623 0.930 . S
H644 C631 0.931 . S
H645 C632 0.929 . S
H646 C640 0.929 . S
H647 C641 0.930 . S
Mn648 O653 2.095 . S
Mn648 O663 2.162 . S
Mn648 O664 2.297 . S
Mn648 O672 2.385 . S
Mn648 O673 2.209 . S
Mn648 O674 2.094 . S
Mn649 O654 2.121 . S
Mn649 N656 2.257 . S
Mn649 N665 2.282 . S
Mn649 O673 2.215 . S
Mn649 O675 2.117 . S
C650 O672 1.234 . S
C650 O673 1.283 . S
C651 O663 1.281 . S
C651 O664 1.236 . S
C652 O674 1.240 . S
C652 O675 1.264 . S
O653 Mn648 2.095 . S
O653 C662 1.250 . S
O654 Mn649 2.121 . S
O654 C662 1.258 . S
C655 N656 1.326 . S
C655 C659 1.460 . S
C655 H661 0.929 . S
N656 Mn649 2.257 . S
N656 C655 1.326 . S
N656 C660 1.362 . S
C657 C658 1.258 . S
C657 C660 1.431 . S
C657 C677 1.449 . S
C658 C657 1.258 . S
C658 C659 1.477 . S
C658 H678 0.931 . S
C659 C655 1.460 . S
C659 C658 1.477 . S
C659 H679 0.930 . S
C660 N656 1.362 . S
C660 C657 1.431 . S
C660 C670 1.476 . S
H661 C655 0.929 . S
C662 O653 1.250 . S
C662 O654 1.258 . S
O663 Mn648 2.162 . S
O663 C651 1.281 . S
O664 Mn648 2.297 . S
O664 C651 1.236 . S
N665 Mn649 2.282 . S
N665 C666 1.328 . S
N665 C670 1.318 . S
C666 N665 1.328 . S
C666 C667 1.457 . S
C666 H671 0.929 . S
C667 C666 1.457 . S
C667 C668 1.291 . S
C667 H680 0.931 . S
C668 C667 1.291 . S
C668 C669 1.373 . S
C668 H681 0.929 . S
C669 C668 1.373 . S
C669 C670 1.396 . S
C669 C676 1.403 . S
C670 C660 1.476 . S
C670 N665 1.318 . S
C670 C669 1.396 . S
H671 C666 0.929 . S
O672 Mn648 2.385 . S
O672 C650 1.234 . S
O673 Mn648 2.209 . S
O673 Mn649 2.215 . S
O673 C650 1.283 . S
O674 Mn648 2.094 . S
O674 C652 1.240 . S
O675 Mn649 2.117 . S
O675 C652 1.264 . S
C676 C669 1.403 . S
C676 C677 1.399 . S
C676 H682 0.929 . S
C677 C657 1.449 . S
C677 C676 1.399 . S
C677 H683 0.930 . S
H678 C658 0.931 . S
H679 C659 0.930 . S
H680 C667 0.931 . S
H681 C668 0.929 . S
H682 C676 0.929 . S
H683 C677 0.930 . S
Mn684 O689 2.095 . S
Mn684 O699 2.162 . S
Mn684 O700 2.297 . S
Mn684 O708 2.385 . S
Mn684 O709 2.209 . S
Mn684 O710 2.094 . S
Mn685 O690 2.121 . S
Mn685 N692 2.257 . S
Mn685 N701 2.282 . S
Mn685 O709 2.215 . S
Mn685 O711 2.117 . S
C686 O708 1.234 . S
C686 O709 1.283 . S
C687 O699 1.281 . S
C687 O700 1.236 . S
C688 O710 1.240 . S
C688 O711 1.264 . S
O689 Mn684 2.095 . S
O689 C698 1.250 . S
O690 Mn685 2.121 . S
O690 C698 1.258 . S
C691 N692 1.326 . S
C691 C695 1.460 . S
C691 H697 0.929 . S
N692 Mn685 2.257 . S
N692 C691 1.326 . S
N692 C696 1.362 . S
C693 C694 1.258 . S
C693 C696 1.431 . S
C693 C713 1.449 . S
C694 C693 1.258 . S
C694 C695 1.477 . S
C694 H714 0.931 . S
C695 C691 1.460 . S
C695 C694 1.477 . S
C695 H715 0.930 . S
C696 N692 1.362 . S
C696 C693 1.431 . S
C696 C706 1.476 . S
H697 C691 0.929 . S
C698 O689 1.250 . S
C698 O690 1.258 . S
O699 Mn684 2.162 . S
O699 C687 1.281 . S
O700 Mn684 2.297 . S
O700 C687 1.236 . S
N701 Mn685 2.282 . S
N701 C702 1.328 . S
N701 C706 1.318 . S
C702 N701 1.328 . S
C702 C703 1.457 . S
C702 H707 0.929 . S
C703 C702 1.457 . S
C703 C704 1.291 . S
C703 H716 0.931 . S
C704 C703 1.291 . S
C704 C705 1.373 . S
C704 H717 0.929 . S
C705 C704 1.373 . S
C705 C706 1.396 . S
C705 C712 1.403 . S
C706 C696 1.476 . S
C706 N701 1.318 . S
C706 C705 1.396 . S
H707 C702 0.929 . S
O708 Mn684 2.385 . S
O708 C686 1.234 . S
O709 Mn684 2.209 . S
O709 Mn685 2.215 . S
O709 C686 1.283 . S
O710 Mn684 2.094 . S
O710 C688 1.240 . S
O711 Mn685 2.117 . S
O711 C688 1.264 . S
C712 C705 1.403 . S
C712 C713 1.399 . S
C712 H718 0.929 . S
C713 C693 1.449 . S
C713 C712 1.399 . S
C713 H719 0.930 . S
H714 C694 0.931 . S
H715 C695 0.930 . S
H716 C703 0.931 . S
H717 C704 0.929 . S
H718 C712 0.929 . S
H719 C713 0.930 . S
Mn720 O725 2.095 1_554 S
Mn720 O735 2.162 . S
Mn720 O736 2.297 . S
Mn720 O744 2.385 . S
Mn720 O745 2.209 1_554 S
Mn720 O746 2.094 1_554 S
Mn721 O726 2.121 . S
Mn721 N728 2.257 . S
Mn721 N737 2.282 . S
Mn721 O745 2.215 . S
Mn721 O747 2.117 . S
C722 O744 1.234 1_556 S
C722 O745 1.283 . S
C723 O735 1.281 . S
C723 O736 1.236 . S
C724 O746 1.240 . S
C724 O747 1.264 . S
O725 Mn720 2.095 1_556 S
O725 C734 1.250 . S
O726 Mn721 2.121 . S
O726 C734 1.258 . S
C727 N728 1.326 . S
C727 C731 1.460 . S
C727 H733 0.929 . S
N728 Mn721 2.257 . S
N728 C727 1.326 . S
N728 C732 1.362 . S
C729 C730 1.258 . S
C729 C732 1.431 . S
C729 C749 1.449 . S
C730 C729 1.258 . S
C730 C731 1.477 . S
C730 H750 0.931 . S
C731 C727 1.460 . S
C731 C730 1.477 . S
C731 H751 0.930 . S
C732 N728 1.362 . S
C732 C729 1.431 . S
C732 C742 1.476 . S
H733 C727 0.929 . S
C734 O725 1.250 . S
C734 O726 1.258 . S
O735 Mn720 2.162 . S
O735 C723 1.281 . S
O736 Mn720 2.297 . S
O736 C723 1.236 . S
N737 Mn721 2.282 . S
N737 C738 1.328 . S
N737 C742 1.318 . S
C738 N737 1.328 . S
C738 C739 1.457 . S
C738 H743 0.929 . S
C739 C738 1.457 . S
C739 C740 1.291 . S
C739 H752 0.931 . S
C740 C739 1.291 . S
C740 C741 1.373 . S
C740 H753 0.929 . S
C741 C740 1.373 . S
C741 C742 1.396 . S
C741 C748 1.403 . S
C742 C732 1.476 . S
C742 N737 1.318 . S
C742 C741 1.396 . S
H743 C738 0.929 . S
O744 Mn720 2.385 . S
O744 C722 1.234 1_554 S
O745 Mn720 2.209 1_556 S
O745 Mn721 2.215 . S
O745 C722 1.283 . S
O746 Mn720 2.094 1_556 S
O746 C724 1.240 . S
O747 Mn721 2.117 . S
O747 C724 1.264 . S
C748 C741 1.403 . S
C748 C749 1.399 . S
C748 H754 0.929 . S
C749 C729 1.449 . S
C749 C748 1.399 . S
C749 H755 0.930 . S
H750 C730 0.931 . S
H751 C731 0.930 . S
H752 C739 0.931 . S
H753 C740 0.929 . S
H754 C748 0.929 . S
H755 C749 0.930 . S
Mn756 O761 2.095 . S
Mn756 O771 2.162 . S
Mn756 O772 2.297 . S
Mn756 O780 2.385 . S
Mn756 O781 2.209 . S
Mn756 O782 2.094 . S
Mn757 O762 2.121 . S
Mn757 N764 2.257 . S
Mn757 N773 2.282 . S
Mn757 O781 2.215 . S
Mn757 O783 2.117 . S
C758 O780 1.234 . S
C758 O781 1.283 . S
C759 O771 1.281 . S
C759 O772 1.236 . S
C760 O782 1.240 . S
C760 O783 1.264 . S
O761 Mn756 2.095 . S
O761 C770 1.250 . S
O762 Mn757 2.121 . S
O762 C770 1.258 . S
C763 N764 1.326 . S
C763 C767 1.460 . S
C763 H769 0.929 . S
N764 Mn757 2.257 . S
N764 C763 1.326 . S
N764 C768 1.362 . S
C765 C766 1.258 . S
C765 C768 1.431 . S
C765 C785 1.449 . S
C766 C765 1.258 . S
C766 C767 1.477 . S
C766 H786 0.931 . S
C767 C763 1.460 . S
C767 C766 1.477 . S
C767 H787 0.930 . S
C768 N764 1.362 . S
C768 C765 1.431 . S
C768 C778 1.476 . S
H769 C763 0.929 . S
C770 O761 1.250 . S
C770 O762 1.258 . S
O771 Mn756 2.162 . S
O771 C759 1.281 . S
O772 Mn756 2.297 . S
O772 C759 1.236 . S
N773 Mn757 2.282 . S
N773 C774 1.328 . S
N773 C778 1.318 . S
C774 N773 1.328 . S
C774 C775 1.457 . S
C774 H779 0.929 . S
C775 C774 1.457 . S
C775 C776 1.291 . S
C775 H788 0.931 . S
C776 C775 1.291 . S
C776 C777 1.373 . S
C776 H789 0.929 . S
C777 C776 1.373 . S
C777 C778 1.396 . S
C777 C784 1.403 . S
C778 C768 1.476 . S
C778 N773 1.318 . S
C778 C777 1.396 . S
H779 C774 0.929 . S
O780 Mn756 2.385 . S
O780 C758 1.234 . S
O781 Mn756 2.209 . S
O781 Mn757 2.215 . S
O781 C758 1.283 . S
O782 Mn756 2.094 . S
O782 C760 1.240 . S
O783 Mn757 2.117 . S
O783 C760 1.264 . S
C784 C777 1.403 . S
C784 C785 1.399 . S
C784 H790 0.929 . S
C785 C765 1.449 . S
C785 C784 1.399 . S
C785 H791 0.930 . S
H786 C766 0.931 . S
H787 C767 0.930 . S
H788 C775 0.931 . S
H789 C776 0.929 . S
H790 C784 0.929 . S
H791 C785 0.930 . S
Mn792 O797 2.095 . S
Mn792 O807 2.162 . S
Mn792 O808 2.297 . S
Mn792 O816 2.385 . S
Mn792 O817 2.209 . S
Mn792 O818 2.094 . S
Mn793 O798 2.121 . S
Mn793 N800 2.257 . S
Mn793 N809 2.282 . S
Mn793 O817 2.215 . S
Mn793 O819 2.117 . S
C794 O816 1.234 . S
C794 O817 1.283 . S
C795 O807 1.281 . S
C795 O808 1.236 . S
C796 O818 1.240 . S
C796 O819 1.264 . S
O797 Mn792 2.095 . S
O797 C806 1.250 . S
O798 Mn793 2.121 . S
O798 C806 1.258 . S
C799 N800 1.326 . S
C799 C803 1.460 . S
C799 H805 0.929 . S
N800 Mn793 2.257 . S
N800 C799 1.326 . S
N800 C804 1.362 . S
C801 C802 1.258 . S
C801 C804 1.431 . S
C801 C821 1.449 . S
C802 C801 1.258 . S
C802 C803 1.477 . S
C802 H822 0.931 . S
C803 C799 1.460 . S
C803 C802 1.477 . S
C803 H823 0.930 . S
C804 N800 1.362 . S
C804 C801 1.431 . S
C804 C814 1.476 . S
H805 C799 0.929 . S
C806 O797 1.250 . S
C806 O798 1.258 . S
O807 Mn792 2.162 . S
O807 C795 1.281 . S
O808 Mn792 2.297 . S
O808 C795 1.236 . S
N809 Mn793 2.282 . S
N809 C810 1.328 . S
N809 C814 1.318 . S
C810 N809 1.328 . S
C810 C811 1.457 . S
C810 H815 0.929 . S
C811 C810 1.457 . S
C811 C812 1.291 . S
C811 H824 0.931 . S
C812 C811 1.291 . S
C812 C813 1.373 . S
C812 H825 0.929 . S
C813 C812 1.373 . S
C813 C814 1.396 . S
C813 C820 1.403 . S
C814 C804 1.476 . S
C814 N809 1.318 . S
C814 C813 1.396 . S
H815 C810 0.929 . S
O816 Mn792 2.385 . S
O816 C794 1.234 . S
O817 Mn792 2.209 . S
O817 Mn793 2.215 . S
O817 C794 1.283 . S
O818 Mn792 2.094 . S
O818 C796 1.240 . S
O819 Mn793 2.117 . S
O819 C796 1.264 . S
C820 C813 1.403 . S
C820 C821 1.399 . S
C820 H826 0.929 . S
C821 C801 1.449 . S
C821 C820 1.399 . S
C821 H827 0.930 . S
H822 C802 0.931 . S
H823 C803 0.930 . S
H824 C811 0.931 . S
H825 C812 0.929 . S
H826 C820 0.929 . S
H827 C821 0.930 . S
Mn828 O833 2.095 . S
Mn828 O843 2.162 . S
Mn828 O844 2.297 . S
Mn828 O852 2.385 . S
Mn828 O853 2.209 . S
Mn828 O854 2.094 . S
Mn829 O834 2.121 . S
Mn829 N836 2.257 . S
Mn829 N845 2.282 . S
Mn829 O853 2.215 . S
Mn829 O855 2.117 . S
C830 O852 1.234 . S
C830 O853 1.283 . S
C831 O843 1.281 . S
C831 O844 1.236 . S
C832 O854 1.240 . S
C832 O855 1.264 . S
O833 Mn828 2.095 . S
O833 C842 1.250 . S
O834 Mn829 2.121 . S
O834 C842 1.258 . S
C835 N836 1.326 . S
C835 C839 1.460 . S
C835 H841 0.929 . S
N836 Mn829 2.257 . S
N836 C835 1.326 . S
N836 C840 1.362 . S
C837 C838 1.258 . S
C837 C840 1.431 . S
C837 C857 1.449 . S
C838 C837 1.258 . S
C838 C839 1.477 . S
C838 H858 0.931 . S
C839 C835 1.460 . S
C839 C838 1.477 . S
C839 H859 0.930 . S
C840 N836 1.362 . S
C840 C837 1.431 . S
C840 C850 1.476 . S
H841 C835 0.929 . S
C842 O833 1.250 . S
C842 O834 1.258 . S
O843 Mn828 2.162 . S
O843 C831 1.281 . S
O844 Mn828 2.297 . S
O844 C831 1.236 . S
N845 Mn829 2.282 . S
N845 C846 1.328 . S
N845 C850 1.318 . S
C846 N845 1.328 . S
C846 C847 1.457 . S
C846 H851 0.929 . S
C847 C846 1.457 . S
C847 C848 1.291 . S
C847 H860 0.931 . S
C848 C847 1.291 . S
C848 C849 1.373 . S
C848 H861 0.929 . S
C849 C848 1.373 . S
C849 C850 1.396 . S
C849 C856 1.403 . S
C850 C840 1.476 . S
C850 N845 1.318 . S
C850 C849 1.396 . S
H851 C846 0.929 . S
O852 Mn828 2.385 . S
O852 C830 1.234 . S
O853 Mn828 2.209 . S
O853 Mn829 2.215 . S
O853 C830 1.283 . S
O854 Mn828 2.094 . S
O854 C832 1.240 . S
O855 Mn829 2.117 . S
O855 C832 1.264 . S
C856 C849 1.403 . S
C856 C857 1.399 . S
C856 H862 0.929 . S
C857 C837 1.449 . S
C857 C856 1.399 . S
C857 H863 0.930 . S
H858 C838 0.931 . S
H859 C839 0.930 . S
H860 C847 0.931 . S
H861 C848 0.929 . S
H862 C856 0.929 . S
H863 C857 0.930 . S
Gd864 N895 2.661 . S
Gd864 N901 2.601 . S
Gd864 O908 2.545 . S
Gd864 O909 2.606 . S
Gd864 O911 2.429 . S
Gd864 O912 2.543 . S
Gd864 O913 2.412 . S
Gd864 O915 2.362 . S
Gd864 O916 2.324 1_554 S
Gd864 C923 2.828 . S
Gd865 N874 2.686 1_545 S
Gd865 N878 2.581 1_544 S
Gd865 O909 2.378 . S
Gd865 O910 2.365 . S
Gd865 O914 2.517 1_454 S
Gd865 O915 2.612 . S
Gd865 O917 2.395 1_554 S
Gd865 O918 2.533 1_554 S
Gd865 O919 2.423 1_455 S
Gd865 C932 2.819 1_454 S
C866 C869 1.417 . S
C866 C871 1.431 1_554 S
C866 C872 1.412 . S
C867 C870 1.437 . S
C867 C871 1.317 . S
C867 H886 0.929 . S
C868 C869 1.426 1_556 S
C868 C870 1.413 . S
C868 N878 1.359 1_655 S
C869 C866 1.417 . S
C869 C868 1.426 1_554 S
C869 N874 1.350 1_655 S
C870 C867 1.437 . S
C870 C868 1.413 . S
C870 C880 1.391 . S
C871 C866 1.431 1_556 S
C871 C867 1.317 . S
C871 H882 0.912 1_556 S
C872 C866 1.412 . S
C872 C873 1.353 1_655 S
C872 H884 0.930 . S
C873 C872 1.353 1_455 S
C873 C875 1.404 . S
C873 H885 0.930 . S
N874 Gd865 2.686 1_565 S
N874 C869 1.350 1_455 S
N874 C875 1.307 . S
C875 C873 1.404 . S
C875 N874 1.307 . S
C875 H876 0.930 . S
H876 C875 0.930 . S
C877 N878 1.334 . S
C877 C879 1.394 1_455 S
C877 H881 0.930 . S
N878 Gd865 2.581 1_566 S
N878 C868 1.359 1_455 S
N878 C877 1.334 . S
C879 C877 1.394 1_655 S
C879 C880 1.359 . S
C879 H891 0.930 . S
C880 C870 1.391 . S
C880 C879 1.359 . S
C880 H892 0.929 . S
H881 C877 0.930 . S
H882 C871 0.912 1_554 S
H883 C900 0.930 . S
H884 C872 0.930 . S
H885 C873 0.930 . S
H886 C867 0.929 . S
H887 C905 0.930 . S
H888 C896 0.930 . S
H889 C897 0.930 . S
H890 C921 0.929 . S
H891 C879 0.930 . S
H892 C880 0.929 . S
H893 C922 0.930 . S
H894 C903 0.930 . S
N895 Gd864 2.661 . S
N895 C899 1.350 . S
N895 C900 1.307 1_554 S
C896 H888 0.930 . S
C896 C897 1.355 . S
C896 C898 1.412 1_556 S
C897 H889 0.930 . S
C897 C896 1.355 . S
C897 C900 1.402 . S
C898 C896 1.412 1_554 S
C898 C899 1.417 . S
C898 C922 1.431 . S
C899 N895 1.350 . S
C899 C898 1.417 . S
C899 C902 1.426 . S
C900 H883 0.930 . S
C900 N895 1.307 1_556 S
C900 C897 1.402 . S
N901 Gd864 2.601 . S
N901 C902 1.359 . S
N901 C905 1.334 . S
C902 C899 1.426 . S
C902 N901 1.359 . S
C902 C906 1.413 . S
C903 H894 0.930 . S
C903 C904 1.359 . S
C903 C905 1.394 . S
C904 C903 1.359 . S
C904 C906 1.391 . S
C904 H907 0.929 . S
C905 H887 0.930 . S
C905 N901 1.334 . S
C905 C903 1.394 . S
C906 C902 1.413 . S
C906 C904 1.391 . S
C906 C921 1.437 . S
H907 C904 0.929 . S
O908 Gd864 2.545 . S
O908 C923 1.258 . S
O909 Gd864 2.606 . S
O909 Gd865 2.378 . S
O909 C920 1.284 1_545 S
O910 Gd865 2.365 . S
O910 C930 1.254 . S
O911 Gd864 2.429 . S
O911 C930 1.268 . S
O912 Gd864 2.543 . S
O912 C920 1.250 1_545 S
O913 Gd864 2.412 . S
O913 C923 1.252 . S
O914 Gd865 2.517 1_656 S
O914 C932 1.258 . S
O915 Gd864 2.362 . S
O915 Gd865 2.612 . S
O915 C931 1.284 . S
O916 Gd864 2.324 1_556 S
O916 C939 1.254 . S
O917 Gd865 2.395 1_556 S
O917 C939 1.268 . S
O918 Gd865 2.533 1_556 S
O918 C931 1.250 1_556 S
O919 Gd865 2.423 1_655 S
O919 C932 1.252 1_554 S
C920 O909 1.284 1_565 S
C920 O912 1.250 1_565 S
C921 H890 0.929 . S
C921 C906 1.437 . S
C921 C922 1.317 . S
C922 H893 0.930 . S
C922 C898 1.431 . S
C922 C921 1.317 . S
C923 Gd864 2.828 . S
C923 O908 1.258 . S
C923 O913 1.252 . S
C923 C924 1.497 . S
C924 C923 1.497 . S
C924 C925 1.395 . S
C924 C926 1.380 . S
C925 C924 1.395 . S
C925 C928 1.398 . S
C925 H940 0.930 . S
C926 C924 1.380 . S
C926 C927 1.391 . S
C926 H941 0.930 . S
C927 C926 1.391 . S
C927 C929 1.387 . S
C928 C925 1.398 . S
C928 C929 1.380 . S
C928 H942 0.930 . S
C929 C927 1.387 . S
C929 C928 1.380 . S
C929 H943 0.930 . S
C930 O910 1.254 . S
C930 O911 1.268 . S
C931 O915 1.284 . S
C931 O918 1.250 1_554 S
C932 Gd865 2.819 1_656 S
C932 O914 1.258 . S
C932 O919 1.252 1_556 S
C932 C933 1.497 . S
C933 C932 1.497 . S
C933 C934 1.395 . S
C933 C935 1.360 1_556 S
C934 C933 1.395 . S
C934 C937 1.398 . S
C934 H944 0.930 . S
C935 C933 1.360 1_554 S
C935 C936 1.385 1_554 S
C935 H945 0.957 . S
C936 C935 1.385 1_556 S
C936 C938 1.387 . S
C937 C934 1.398 . S
C937 C938 1.380 . S
C937 H946 0.930 . S
C938 C936 1.387 . S
C938 C937 1.380 . S
C938 H947 0.930 . S
C939 O916 1.254 . S
C939 O917 1.268 . S
H940 C925 0.930 . S
H941 C926 0.930 . S
H942 C928 0.930 . S
H943 C929 0.930 . S
H944 C934 0.930 . S
H945 C935 0.957 . S
H946 C937 0.930 . S
H947 C938 0.930 . S
Gd948 N979 2.661 . S
Gd948 N985 2.601 . S
Gd948 O992 2.545 . S
Gd948 O993 2.606 . S
Gd948 O995 2.429 . S
Gd948 O996 2.545 . S
Gd948 O997 2.412 . S
Gd948 O999 2.362 . S
Gd948 O1000 2.324 . S
Gd948 C1007 2.828 . S
Gd949 N958 2.661 . S
Gd949 N962 2.601 . S
Gd949 O993 2.362 . S
Gd949 O994 2.324 . S
Gd949 O998 2.545 . S
Gd949 O999 2.606 . S
Gd949 O1001 2.429 . S
Gd949 O1002 2.545 . S
Gd949 O1003 2.412 . S
Gd949 C1016 2.828 . S
C950 C953 1.417 . S
C950 C955 1.431 . S
C950 C956 1.412 . S
C951 C954 1.437 . S
C951 C955 1.317 . S
C951 H970 0.929 . S
C952 C953 1.426 . S
C952 C954 1.413 . S
C952 N962 1.359 . S
C953 C950 1.417 . S
C953 C952 1.426 . S
C953 N958 1.350 . S
C954 C951 1.437 . S
C954 C952 1.413 . S
C954 C964 1.391 . S
C955 C950 1.431 . S
C955 C951 1.317 . S
C955 H966 0.930 . S
C956 C950 1.412 . S
C956 C957 1.355 . S
C956 H968 0.930 . S
C957 C956 1.355 . S
C957 C959 1.402 . S
C957 H969 0.930 . S
N958 Gd949 2.661 . S
N958 C953 1.350 . S
N958 C959 1.307 . S
C959 C957 1.402 . S
C959 N958 1.307 . S
C959 H960 0.930 . S
H960 C959 0.930 . S
C961 N962 1.334 . S
C961 C963 1.394 . S
C961 H965 0.930 . S
N962 Gd949 2.601 . S
N962 C952 1.359 . S
N962 C961 1.334 . S
C963 C961 1.394 . S
C963 C964 1.359 . S
C963 H975 0.930 . S
C964 C954 1.391 . S
C964 C963 1.359 . S
C964 H976 0.929 . S
H965 C961 0.930 . S
H966 C955 0.930 . S
H967 C984 0.930 . S
H968 C956 0.930 . S
H969 C957 0.930 . S
H970 C951 0.929 . S
H971 C989 0.930 . S
H972 C980 0.930 . S
H973 C981 0.930 . S
H974 C1005 0.929 . S
H975 C963 0.930 . S
H976 C964 0.929 . S
H977 C1006 0.930 . S
H978 C987 0.930 . S
N979 Gd948 2.661 . S
N979 C983 1.350 . S
N979 C984 1.307 . S
C980 H972 0.930 . S
C980 C981 1.355 . S
C980 C982 1.412 . S
C981 H973 0.930 . S
C981 C980 1.355 . S
C981 C984 1.402 . S
C982 C980 1.412 . S
C982 C983 1.417 . S
C982 C1006 1.431 . S
C983 N979 1.350 . S
C983 C982 1.417 . S
C983 C986 1.426 . S
C984 H967 0.930 . S
C984 N979 1.307 . S
C984 C981 1.402 . S
N985 Gd948 2.601 . S
N985 C986 1.359 . S
N985 C989 1.334 . S
C986 C983 1.426 . S
C986 N985 1.359 . S
C986 C990 1.413 . S
C987 H978 0.930 . S
C987 C988 1.359 . S
C987 C989 1.394 . S
C988 C987 1.359 . S
C988 C990 1.391 . S
C988 H991 0.929 . S
C989 H971 0.930 . S
C989 N985 1.334 . S
C989 C987 1.394 . S
C990 C986 1.413 . S
C990 C988 1.391 . S
C990 C1005 1.437 . S
H991 C988 0.929 . S
O992 Gd948 2.545 . S
O992 C1007 1.258 . S
O993 Gd948 2.606 . S
O993 Gd949 2.362 . S
O993 C1004 1.284 . S
O994 Gd949 2.324 . S
O994 C1014 1.254 . S
O995 Gd948 2.429 . S
O995 C1014 1.268 . S
O996 Gd948 2.545 . S
O996 C1004 1.250 . S
O997 Gd948 2.412 . S
O997 C1007 1.252 . S
O998 Gd949 2.545 . S
O998 C1016 1.258 . S
O999 Gd948 2.362 . S
O999 Gd949 2.606 . S
O999 C1015 1.284 . S
O1000 Gd948 2.324 . S
O1000 C1023 1.254 . S
O1001 Gd949 2.429 . S
O1001 C1023 1.268 . S
O1002 Gd949 2.545 . S
O1002 C1015 1.250 . S
O1003 Gd949 2.412 . S
O1003 C1016 1.252 . S
C1004 O993 1.284 . S
C1004 O996 1.250 . S
C1005 H974 0.929 . S
C1005 C990 1.437 . S
C1005 C1006 1.317 . S
C1006 H977 0.930 . S
C1006 C982 1.431 . S
C1006 C1005 1.317 . S
C1007 Gd948 2.828 . S
C1007 O992 1.258 . S
C1007 O997 1.252 . S
C1007 C1008 1.497 . S
C1008 C1007 1.497 . S
C1008 C1009 1.395 . S
C1008 C1010 1.380 . S
C1009 C1008 1.395 . S
C1009 C1012 1.398 . S
C1009 H1024 0.930 . S
C1010 C1008 1.380 . S
C1010 C1011 1.391 . S
C1010 H1025 0.930 . S
C1011 C1010 1.391 . S
C1011 C1013 1.387 . S
C1012 C1009 1.398 . S
C1012 C1013 1.380 . S
C1012 H1026 0.930 . S
C1013 C1011 1.387 . S
C1013 C1012 1.380 . S
C1013 H1027 0.930 . S
C1014 O994 1.254 . S
C1014 O995 1.268 . S
C1015 O999 1.284 . S
C1015 O1002 1.250 . S
C1016 Gd949 2.828 . S
C1016 O998 1.258 . S
C1016 O1003 1.252 . S
C1016 C1017 1.497 . S
C1017 C1016 1.497 . S
C1017 C1018 1.395 . S
C1017 C1019 1.380 . S
C1018 C1017 1.395 . S
C1018 C1021 1.398 . S
C1018 H1028 0.930 . S
C1019 C1017 1.380 . S
C1019 C1020 1.391 . S
C1019 H1029 0.930 . S
C1020 C1019 1.391 . S
C1020 C1022 1.387 . S
C1021 C1018 1.398 . S
C1021 C1022 1.380 . S
C1021 H1030 0.930 . S
C1022 C1020 1.387 . S
C1022 C1021 1.380 . S
C1022 H1031 0.930 . S
C1023 O1000 1.254 . S
C1023 O1001 1.268 . S
H1024 C1009 0.930 . S
H1025 C1010 0.930 . S
H1026 C1012 0.930 . S
H1027 C1013 0.930 . S
H1028 C1018 0.930 . S
H1029 C1019 0.930 . S
H1030 C1021 0.930 . S
H1031 C1022 0.930 . S
Gd1032 N1063 2.661 1_545 S
Gd1032 N1069 2.601 . S
Gd1032 O1076 2.545 . S
Gd1032 O1077 2.606 . S
Gd1032 O1079 2.429 . S
Gd1032 O1080 2.545 . S
Gd1032 O1081 2.412 . S
Gd1032 O1083 2.362 . S
Gd1032 O1084 2.324 . S
Gd1032 C1091 2.828 . S
Gd1033 N1042 2.661 . S
Gd1033 N1046 2.601 . S
Gd1033 O1077 2.362 . S
Gd1033 O1078 2.324 . S
Gd1033 O1082 2.545 . S
Gd1033 O1083 2.606 . S
Gd1033 O1085 2.429 . S
Gd1033 O1086 2.545 1_545 S
Gd1033 O1087 2.412 . S
Gd1033 C1100 2.828 . S
C1034 C1037 1.417 . S
C1034 C1039 1.431 . S
C1034 C1040 1.412 . S
C1035 C1038 1.437 . S
C1035 C1039 1.317 . S
C1035 H1054 0.929 . S
C1036 C1037 1.426 . S
C1036 C1038 1.413 . S
C1036 N1046 1.359 . S
C1037 C1034 1.417 . S
C1037 C1036 1.426 . S
C1037 N1042 1.350 . S
C1038 C1035 1.437 . S
C1038 C1036 1.413 . S
C1038 C1048 1.391 . S
C1039 C1034 1.431 . S
C1039 C1035 1.317 . S
C1039 H1050 0.930 . S
C1040 C1034 1.412 . S
C1040 C1041 1.355 . S
C1040 H1052 0.930 . S
C1041 C1040 1.355 . S
C1041 C1043 1.402 . S
C1041 H1053 0.930 . S
N1042 Gd1033 2.661 . S
N1042 C1037 1.350 . S
N1042 C1043 1.307 . S
C1043 C1041 1.402 . S
C1043 N1042 1.307 . S
C1043 H1044 0.930 . S
H1044 C1043 0.930 . S
C1045 N1046 1.334 . S
C1045 C1047 1.394 . S
C1045 H1049 0.930 . S
N1046 Gd1033 2.601 . S
N1046 C1036 1.359 . S
N1046 C1045 1.334 . S
C1047 C1045 1.394 . S
C1047 C1048 1.359 . S
C1047 H1059 0.930 . S
C1048 C1038 1.391 . S
C1048 C1047 1.359 . S
C1048 H1060 0.929 . S
H1049 C1045 0.930 . S
H1050 C1039 0.930 . S
H1051 C1068 0.930 . S
H1052 C1040 0.930 . S
H1053 C1041 0.930 . S
H1054 C1035 0.929 . S
H1055 C1073 0.930 . S
H1056 C1064 0.930 . S
H1057 C1065 0.930 . S
H1058 C1089 0.929 . S
H1059 C1047 0.930 . S
H1060 C1048 0.929 . S
H1061 C1090 0.930 . S
H1062 C1071 0.930 . S
N1063 Gd1032 2.661 1_565 S
N1063 C1067 1.350 . S
N1063 C1068 1.307 . S
C1064 H1056 0.930 . S
C1064 C1065 1.355 . S
C1064 C1066 1.412 . S
C1065 H1057 0.930 . S
C1065 C1064 1.355 . S
C1065 C1068 1.402 . S
C1066 C1064 1.412 . S
C1066 C1067 1.417 . S
C1066 C1090 1.431 . S
C1067 N1063 1.350 . S
C1067 C1066 1.417 . S
C1067 C1070 1.426 . S
C1068 H1051 0.930 . S
C1068 N1063 1.307 . S
C1068 C1065 1.402 . S
N1069 Gd1032 2.601 . S
N1069 C1070 1.359 1_545 S
N1069 C1073 1.334 . S
C1070 C1067 1.426 . S
C1070 N1069 1.359 1_565 S
C1070 C1074 1.413 . S
C1071 H1062 0.930 . S
C1071 C1072 1.359 1_545 S
C1071 C1073 1.394 . S
C1072 C1071 1.359 1_565 S
C1072 C1074 1.391 . S
C1072 H1075 0.929 . S
C1073 H1055 0.930 . S
C1073 N1069 1.334 . S
C1073 C1071 1.394 . S
C1074 C1070 1.413 . S
C1074 C1072 1.391 . S
C1074 C1089 1.437 . S
H1075 C1072 0.929 . S
O1076 Gd1032 2.545 . S
O1076 C1091 1.258 . S
O1077 Gd1032 2.606 . S
O1077 Gd1033 2.362 . S
O1077 C1088 1.284 . S
O1078 Gd1033 2.324 . S
O1078 C1098 1.254 . S
O1079 Gd1032 2.429 . S
O1079 C1098 1.268 . S
O1080 Gd1032 2.545 . S
O1080 C1088 1.250 . S
O1081 Gd1032 2.412 . S
O1081 C1091 1.252 . S
O1082 Gd1033 2.545 . S
O1082 C1100 1.258 . S
O1083 Gd1032 2.362 . S
O1083 Gd1033 2.606 . S
O1083 C1099 1.284 1_545 S
O1084 Gd1032 2.324 . S
O1084 C1107 1.254 . S
O1085 Gd1033 2.429 . S
O1085 C1107 1.268 . S
O1086 Gd1033 2.545 1_565 S
O1086 C1099 1.250 . S
O1087 Gd1033 2.412 . S
O1087 C1100 1.252 . S
C1088 O1077 1.284 . S
C1088 O1080 1.250 . S
C1089 H1058 0.929 . S
C1089 C1074 1.437 . S
C1089 C1090 1.317 . S
C1090 H1061 0.930 . S
C1090 C1066 1.431 . S
C1090 C1089 1.317 . S
C1091 Gd1032 2.828 . S
C1091 O1076 1.258 . S
C1091 O1081 1.252 . S
C1091 C1092 1.497 . S
C1092 C1091 1.497 . S
C1092 C1093 1.395 . S
C1092 C1094 1.380 . S
C1093 C1092 1.395 . S
C1093 C1096 1.398 . S
C1093 H1108 0.930 . S
C1094 C1092 1.380 . S
C1094 C1095 1.391 . S
C1094 H1109 0.930 . S
C1095 C1094 1.391 . S
C1095 C1097 1.387 . S
C1096 C1093 1.398 . S
C1096 C1097 1.380 . S
C1096 H1110 0.930 . S
C1097 C1095 1.387 . S
C1097 C1096 1.380 . S
C1097 H1111 0.930 . S
C1098 O1078 1.254 . S
C1098 O1079 1.268 . S
C1099 O1083 1.284 1_565 S
C1099 O1086 1.250 . S
C1100 Gd1033 2.828 . S
C1100 O1082 1.258 . S
C1100 O1087 1.252 . S
C1100 C1101 1.497 . S
C1101 C1100 1.497 . S
C1101 C1102 1.395 . S
C1101 C1103 1.380 . S
C1102 C1101 1.395 . S
C1102 C1105 1.418 . S
C1102 H1112 0.930 . S
C1103 C1101 1.380 . S
C1103 C1104 1.391 1_545 S
C1103 H1113 0.930 . S
C1104 C1103 1.391 1_565 S
C1104 C1106 1.387 . S
C1105 C1102 1.418 . S
C1105 C1106 1.358 1_545 S
C1105 H1114 0.930 . S
C1106 C1104 1.387 . S
C1106 C1105 1.358 1_565 S
C1106 H1115 0.930 . S
C1107 O1084 1.254 . S
C1107 O1085 1.268 . S
H1108 C1093 0.930 . S
H1109 C1094 0.930 . S
H1110 C1096 0.930 . S
H1111 C1097 0.930 . S
H1112 C1102 0.930 . S
H1113 C1103 0.930 . S
H1114 C1105 0.930 . S
H1115 C1106 0.930 . S
Gd1116 N1147 2.661 . S
Gd1116 N1153 2.601 . S
Gd1116 O1160 2.545 . S
Gd1116 O1161 2.606 . S
Gd1116 O1163 2.429 . S
Gd1116 O1164 2.545 . S
Gd1116 O1165 2.412 . S
Gd1116 O1167 2.362 . S
Gd1116 O1168 2.324 . S
Gd1116 C1175 2.828 . S
Gd1117 N1126 2.661 . S
Gd1117 N1130 2.601 . S
Gd1117 O1161 2.362 . S
Gd1117 O1162 2.324 . S
Gd1117 O1166 2.545 . S
Gd1117 O1167 2.606 . S
Gd1117 O1169 2.429 . S
Gd1117 O1170 2.545 . S
Gd1117 O1171 2.412 . S
Gd1117 C1184 2.828 . S
C1118 C1121 1.417 . S
C1118 C1123 1.431 . S
C1118 C1124 1.412 . S
C1119 C1122 1.437 . S
C1119 C1123 1.317 . S
C1119 H1138 0.929 . S
C1120 C1121 1.426 . S
C1120 C1122 1.413 . S
C1120 N1130 1.359 . S
C1121 C1118 1.417 . S
C1121 C1120 1.426 . S
C1121 N1126 1.350 . S
C1122 C1119 1.437 . S
C1122 C1120 1.413 . S
C1122 C1132 1.391 . S
C1123 C1118 1.431 . S
C1123 C1119 1.317 . S
C1123 H1134 0.930 . S
C1124 C1118 1.412 . S
C1124 C1125 1.355 . S
C1124 H1136 0.930 . S
C1125 C1124 1.355 . S
C1125 C1127 1.402 . S
C1125 H1137 0.930 . S
N1126 Gd1117 2.661 . S
N1126 C1121 1.350 . S
N1126 C1127 1.307 . S
C1127 C1125 1.402 . S
C1127 N1126 1.307 . S
C1127 H1128 0.930 . S
H1128 C1127 0.930 . S
C1129 N1130 1.334 . S
C1129 C1131 1.394 . S
C1129 H1133 0.930 . S
N1130 Gd1117 2.601 . S
N1130 C1120 1.359 . S
N1130 C1129 1.334 . S
C1131 C1129 1.394 . S
C1131 C1132 1.359 . S
C1131 H1143 0.930 . S
C1132 C1122 1.391 . S
C1132 C1131 1.359 . S
C1132 H1144 0.929 . S
H1133 C1129 0.930 . S
H1134 C1123 0.930 . S
H1135 C1152 0.930 . S
H1136 C1124 0.930 . S
H1137 C1125 0.930 . S
H1138 C1119 0.929 . S
H1139 C1157 0.930 . S
H1140 C1148 0.930 . S
H1141 C1149 0.930 . S
H1142 C1173 0.929 . S
H1143 C1131 0.930 . S
H1144 C1132 0.929 . S
H1145 C1174 0.930 . S
H1146 C1155 0.930 . S
N1147 Gd1116 2.661 . S
N1147 C1151 1.350 . S
N1147 C1152 1.307 . S
C1148 H1140 0.930 . S
C1148 C1149 1.355 . S
C1148 C1150 1.412 . S
C1149 H1141 0.930 . S
C1149 C1148 1.355 . S
C1149 C1152 1.402 . S
C1150 C1148 1.412 . S
C1150 C1151 1.417 . S
C1150 C1174 1.431 . S
C1151 N1147 1.350 . S
C1151 C1150 1.417 . S
C1151 C1154 1.426 . S
C1152 H1135 0.930 . S
C1152 N1147 1.307 . S
C1152 C1149 1.402 . S
N1153 Gd1116 2.601 . S
N1153 C1154 1.359 . S
N1153 C1157 1.334 . S
C1154 C1151 1.426 . S
C1154 N1153 1.359 . S
C1154 C1158 1.413 . S
C1155 H1146 0.930 . S
C1155 C1156 1.359 . S
C1155 C1157 1.394 . S
C1156 C1155 1.359 . S
C1156 C1158 1.391 . S
C1156 H1159 0.929 . S
C1157 H1139 0.930 . S
C1157 N1153 1.334 . S
C1157 C1155 1.394 . S
C1158 C1154 1.413 . S
C1158 C1156 1.391 . S
C1158 C1173 1.437 . S
H1159 C1156 0.929 . S
O1160 Gd1116 2.545 . S
O1160 C1175 1.258 . S
O1161 Gd1116 2.606 . S
O1161 Gd1117 2.362 . S
O1161 C1172 1.284 . S
O1162 Gd1117 2.324 . S
O1162 C1182 1.254 . S
O1163 Gd1116 2.429 . S
O1163 C1182 1.268 . S
O1164 Gd1116 2.545 . S
O1164 C1172 1.250 . S
O1165 Gd1116 2.412 . S
O1165 C1175 1.252 . S
O1166 Gd1117 2.545 . S
O1166 C1184 1.258 . S
O1167 Gd1116 2.362 . S
O1167 Gd1117 2.606 . S
O1167 C1183 1.284 . S
O1168 Gd1116 2.324 . S
O1168 C1191 1.254 . S
O1169 Gd1117 2.429 . S
O1169 C1191 1.268 . S
O1170 Gd1117 2.545 . S
O1170 C1183 1.250 . S
O1171 Gd1117 2.412 . S
O1171 C1184 1.252 . S
C1172 O1161 1.284 . S
C1172 O1164 1.250 . S
C1173 H1142 0.929 . S
C1173 C1158 1.437 . S
C1173 C1174 1.317 . S
C1174 H1145 0.930 . S
C1174 C1150 1.431 . S
C1174 C1173 1.317 . S
C1175 Gd1116 2.828 . S
C1175 O1160 1.258 . S
C1175 O1165 1.252 . S
C1175 C1176 1.497 . S
C1176 C1175 1.497 . S
C1176 C1177 1.395 . S
C1176 C1178 1.380 . S
C1177 C1176 1.395 . S
C1177 C1180 1.398 . S
C1177 H1192 0.930 . S
C1178 C1176 1.380 . S
C1178 C1179 1.391 . S
C1178 H1193 0.930 . S
C1179 C1178 1.391 . S
C1179 C1181 1.387 . S
C1180 C1177 1.398 . S
C1180 C1181 1.380 . S
C1180 H1194 0.930 . S
C1181 C1179 1.387 . S
C1181 C1180 1.380 . S
C1181 H1195 0.930 . S
C1182 O1162 1.254 . S
C1182 O1163 1.268 . S
C1183 O1167 1.284 . S
C1183 O1170 1.250 . S
C1184 Gd1117 2.828 . S
C1184 O1166 1.258 . S
C1184 O1171 1.252 . S
C1184 C1185 1.497 . S
C1185 C1184 1.497 . S
C1185 C1186 1.395 . S
C1185 C1187 1.380 . S
C1186 C1185 1.395 . S
C1186 C1189 1.398 . S
C1186 H1196 0.930 . S
C1187 C1185 1.380 . S
C1187 C1188 1.391 . S
C1187 H1197 0.930 . S
C1188 C1187 1.391 . S
C1188 C1190 1.387 . S
C1189 C1186 1.398 . S
C1189 C1190 1.380 . S
C1189 H1198 0.930 . S
C1190 C1188 1.387 . S
C1190 C1189 1.380 . S
C1190 H1199 0.930 . S
C1191 O1168 1.254 . S
C1191 O1169 1.268 . S
H1192 C1177 0.930 . S
H1193 C1178 0.930 . S
H1194 C1180 0.930 . S
H1195 C1181 0.930 . S
H1196 C1186 0.930 . S
H1197 C1187 0.930 . S
H1198 C1189 0.930 . S
H1199 C1190 0.930 . S
Gd1200 N1231 2.661 1_545 S
Gd1200 N1237 2.601 1_545 S
Gd1200 O1244 2.545 1_545 S
Gd1200 O1245 2.606 . S
Gd1200 O1247 2.429 . S
Gd1200 O1248 2.545 . S
Gd1200 O1249 2.412 1_545 S
Gd1200 O1251 2.362 . S
Gd1200 O1252 2.324 . S
Gd1200 C1259 2.828 1_545 S
Gd1201 N1210 2.661 . S
Gd1201 N1214 2.601 . S
Gd1201 O1245 2.362 . S
Gd1201 O1246 2.324 . S
Gd1201 O1250 2.545 . S
Gd1201 O1251 2.606 . S
Gd1201 O1253 2.429 . S
Gd1201 O1254 2.545 . S
Gd1201 O1255 2.412 . S
Gd1201 C1268 2.828 . S
C1202 C1205 1.417 . S
C1202 C1207 1.431 . S
C1202 C1208 1.412 . S
C1203 C1206 1.437 . S
C1203 C1207 1.317 . S
C1203 H1222 0.929 . S
C1204 C1205 1.426 . S
C1204 C1206 1.413 . S
C1204 N1214 1.359 . S
C1205 C1202 1.417 . S
C1205 C1204 1.426 . S
C1205 N1210 1.350 . S
C1206 C1203 1.437 . S
C1206 C1204 1.413 . S
C1206 C1216 1.391 . S
C1207 C1202 1.431 . S
C1207 C1203 1.317 . S
C1207 H1218 0.930 . S
C1208 C1202 1.412 . S
C1208 C1209 1.355 . S
C1208 H1220 0.930 . S
C1209 C1208 1.355 . S
C1209 C1211 1.402 . S
C1209 H1221 0.930 . S
N1210 Gd1201 2.661 . S
N1210 C1205 1.350 . S
N1210 C1211 1.307 . S
C1211 C1209 1.402 . S
C1211 N1210 1.307 . S
C1211 H1212 0.930 . S
H1212 C1211 0.930 . S
C1213 N1214 1.334 . S
C1213 C1215 1.363 1_455 S
C1213 H1217 0.930 . S
N1214 Gd1201 2.601 . S
N1214 C1204 1.359 . S
N1214 C1213 1.334 . S
C1215 C1213 1.363 1_655 S
C1215 C1216 1.340 1_655 S
C1215 H1227 0.981 . S
C1216 C1206 1.391 . S
C1216 C1215 1.340 1_455 S
C1216 H1228 0.929 . S
H1217 C1213 0.930 . S
H1218 C1207 0.930 . S
H1219 C1236 0.930 . S
H1220 C1208 0.930 . S
H1221 C1209 0.930 . S
H1222 C1203 0.929 . S
H1223 C1241 0.932 . S
H1224 C1232 0.925 1_655 S
H1225 C1233 0.929 1_655 S
H1226 C1257 0.929 . S
H1227 C1215 0.981 . S
H1228 C1216 0.929 . S
H1229 C1258 0.930 . S
H1230 C1239 0.930 . S
N1231 Gd1200 2.661 1_565 S
N1231 C1235 1.350 . S
N1231 C1236 1.307 . S
C1232 H1224 0.925 1_455 S
C1232 C1233 1.355 . S
C1232 C1234 1.412 . S
C1233 H1225 0.929 1_455 S
C1233 C1232 1.355 . S
C1233 C1236 1.403 . S
C1234 C1232 1.412 . S
C1234 C1235 1.417 . S
C1234 C1258 1.431 . S
C1235 N1231 1.350 . S
C1235 C1234 1.417 . S
C1235 C1238 1.426 . S
C1236 H1219 0.930 . S
C1236 N1231 1.307 . S
C1236 C1233 1.403 . S
N1237 Gd1200 2.601 1_565 S
N1237 C1238 1.359 . S
N1237 C1241 1.334 . S
C1238 C1235 1.426 . S
C1238 N1237 1.359 . S
C1238 C1242 1.413 . S
C1239 H1230 0.930 . S
C1239 C1240 1.359 . S
C1239 C1241 1.394 . S
C1240 C1239 1.359 . S
C1240 C1242 1.391 . S
C1240 H1243 0.929 . S
C1241 H1223 0.932 . S
C1241 N1237 1.334 . S
C1241 C1239 1.394 . S
C1242 C1238 1.413 . S
C1242 C1240 1.391 . S
C1242 C1257 1.437 . S
H1243 C1240 0.929 . S
O1244 Gd1200 2.545 1_565 S
O1244 C1259 1.258 . S
O1245 Gd1200 2.606 . S
O1245 Gd1201 2.362 . S
O1245 C1256 1.284 . S
O1246 Gd1201 2.324 . S
O1246 C1266 1.254 . S
O1247 Gd1200 2.429 . S
O1247 C1266 1.268 . S
O1248 Gd1200 2.545 . S
O1248 C1256 1.250 . S
O1249 Gd1200 2.412 1_565 S
O1249 C1259 1.252 . S
O1250 Gd1201 2.545 . S
O1250 C1268 1.258 . S
O1251 Gd1200 2.362 . S
O1251 Gd1201 2.606 . S
O1251 C1267 1.284 . S
O1252 Gd1200 2.324 . S
O1252 C1275 1.254 . S
O1253 Gd1201 2.429 . S
O1253 C1275 1.268 . S
O1254 Gd1201 2.545 . S
O1254 C1267 1.250 . S
O1255 Gd1201 2.412 . S
O1255 C1268 1.252 . S
C1256 O1245 1.284 . S
C1256 O1248 1.250 . S
C1257 H1226 0.929 . S
C1257 C1242 1.437 . S
C1257 C1258 1.317 . S
C1258 H1229 0.930 . S
C1258 C1234 1.431 . S
C1258 C1257 1.317 . S
C1259 Gd1200 2.828 1_565 S
C1259 O1244 1.258 . S
C1259 O1249 1.252 . S
C1259 C1260 1.497 . S
C1260 C1259 1.497 . S
C1260 C1261 1.395 . S
C1260 C1262 1.380 . S
C1261 C1260 1.395 . S
C1261 C1264 1.398 . S
C1261 H1276 0.930 . S
C1262 C1260 1.380 . S
C1262 C1263 1.391 . S
C1262 H1277 0.930 . S
C1263 C1262 1.391 . S
C1263 C1265 1.387 . S
C1264 C1261 1.398 . S
C1264 C1265 1.380 . S
C1264 H1278 0.930 . S
C1265 C1263 1.387 . S
C1265 C1264 1.380 . S
C1265 H1279 0.930 . S
C1266 O1246 1.254 . S
C1266 O1247 1.268 . S
C1267 O1251 1.284 . S
C1267 O1254 1.250 . S
C1268 Gd1201 2.828 . S
C1268 O1250 1.258 . S
C1268 O1255 1.252 . S
C1268 C1269 1.497 . S
C1269 C1268 1.497 . S
C1269 C1270 1.395 . S
C1269 C1271 1.380 . S
C1270 C1269 1.395 . S
C1270 C1273 1.398 . S
C1270 H1280 0.930 . S
C1271 C1269 1.380 . S
C1271 C1272 1.391 . S
C1271 H1281 0.930 . S
C1272 C1271 1.391 . S
C1272 C1274 1.387 . S
C1273 C1270 1.398 . S
C1273 C1274 1.380 . S
C1273 H1282 0.930 . S
C1274 C1272 1.387 . S
C1274 C1273 1.380 . S
C1274 H1283 0.930 . S
C1275 O1252 1.254 . S
C1275 O1253 1.268 . S
H1276 C1261 0.930 . S
H1277 C1262 0.930 . S
H1278 C1264 0.930 . S
H1279 C1265 0.930 . S
H1280 C1270 0.930 . S
H1281 C1271 0.930 . S
H1282 C1273 0.930 . S
H1283 C1274 0.930 . S
Gd1284 N1315 2.661 . S
Gd1284 N1321 2.601 . S
Gd1284 O1328 2.545 . S
Gd1284 O1329 2.606 . S
Gd1284 O1331 2.429 . S
Gd1284 O1332 2.545 . S
Gd1284 O1333 2.412 . S
Gd1284 O1335 2.362 . S
Gd1284 O1336 2.324 . S
Gd1284 C1343 2.828 . S
Gd1285 N1294 2.661 . S
Gd1285 N1298 2.601 . S
Gd1285 O1329 2.362 . S
Gd1285 O1330 2.324 . S
Gd1285 O1334 2.545 . S
Gd1285 O1335 2.606 . S
Gd1285 O1337 2.429 . S
Gd1285 O1338 2.545 . S
Gd1285 O1339 2.412 . S
Gd1285 C1352 2.828 . S
C1286 C1289 1.417 . S
C1286 C1291 1.431 . S
C1286 C1292 1.412 . S
C1287 C1290 1.437 . S
C1287 C1291 1.317 . S
C1287 H1306 0.929 . S
C1288 C1289 1.426 . S
C1288 C1290 1.413 . S
C1288 N1298 1.359 . S
C1289 C1286 1.417 . S
C1289 C1288 1.426 . S
C1289 N1294 1.350 . S
C1290 C1287 1.437 . S
C1290 C1288 1.413 . S
C1290 C1300 1.391 . S
C1291 C1286 1.431 . S
C1291 C1287 1.317 . S
C1291 H1302 0.930 . S
C1292 C1286 1.412 . S
C1292 C1293 1.355 . S
C1292 H1304 0.930 . S
C1293 C1292 1.355 . S
C1293 C1295 1.402 . S
C1293 H1305 0.930 . S
N1294 Gd1285 2.661 . S
N1294 C1289 1.350 . S
N1294 C1295 1.307 . S
C1295 C1293 1.402 . S
C1295 N1294 1.307 . S
C1295 H1296 0.930 . S
H1296 C1295 0.930 . S
C1297 N1298 1.334 . S
C1297 C1299 1.394 . S
C1297 H1301 0.930 . S
N1298 Gd1285 2.601 . S
N1298 C1288 1.359 . S
N1298 C1297 1.334 . S
C1299 C1297 1.394 . S
C1299 C1300 1.359 . S
C1299 H1311 0.930 . S
C1300 C1290 1.391 . S
C1300 C1299 1.359 . S
C1300 H1312 0.929 . S
H1301 C1297 0.930 . S
H1302 C1291 0.930 . S
H1303 C1320 0.930 . S
H1304 C1292 0.930 . S
H1305 C1293 0.930 . S
H1306 C1287 0.929 . S
H1307 C1325 0.930 . S
H1308 C1316 0.930 . S
H1309 C1317 0.930 . S
H1310 C1341 0.929 . S
H1311 C1299 0.930 . S
H1312 C1300 0.929 . S
H1313 C1342 0.930 . S
H1314 C1323 0.930 . S
N1315 Gd1284 2.661 . S
N1315 C1319 1.350 . S
N1315 C1320 1.307 . S
C1316 H1308 0.930 . S
C1316 C1317 1.355 . S
C1316 C1318 1.412 . S
C1317 H1309 0.930 . S
C1317 C1316 1.355 . S
C1317 C1320 1.402 . S
C1318 C1316 1.412 . S
C1318 C1319 1.417 . S
C1318 C1342 1.431 . S
C1319 N1315 1.350 . S
C1319 C1318 1.417 . S
C1319 C1322 1.426 . S
C1320 H1303 0.930 . S
C1320 N1315 1.307 . S
C1320 C1317 1.402 . S
N1321 Gd1284 2.601 . S
N1321 C1322 1.359 . S
N1321 C1325 1.334 . S
C1322 C1319 1.426 . S
C1322 N1321 1.359 . S
C1322 C1326 1.413 . S
C1323 H1314 0.930 . S
C1323 C1324 1.359 . S
C1323 C1325 1.394 . S
C1324 C1323 1.359 . S
C1324 C1326 1.391 . S
C1324 H1327 0.929 . S
C1325 H1307 0.930 . S
C1325 N1321 1.334 . S
C1325 C1323 1.394 . S
C1326 C1322 1.413 . S
C1326 C1324 1.391 . S
C1326 C1341 1.437 . S
H1327 C1324 0.929 . S
O1328 Gd1284 2.545 . S
O1328 C1343 1.258 . S
O1329 Gd1284 2.606 . S
O1329 Gd1285 2.362 . S
O1329 C1340 1.284 . S
O1330 Gd1285 2.324 . S
O1330 C1350 1.254 . S
O1331 Gd1284 2.429 . S
O1331 C1350 1.268 . S
O1332 Gd1284 2.545 . S
O1332 C1340 1.250 . S
O1333 Gd1284 2.412 . S
O1333 C1343 1.252 . S
O1334 Gd1285 2.545 . S
O1334 C1352 1.258 . S
O1335 Gd1284 2.362 . S
O1335 Gd1285 2.606 . S
O1335 C1351 1.284 . S
O1336 Gd1284 2.324 . S
O1336 C1359 1.254 . S
O1337 Gd1285 2.429 . S
O1337 C1359 1.268 . S
O1338 Gd1285 2.545 . S
O1338 C1351 1.250 . S
O1339 Gd1285 2.412 . S
O1339 C1352 1.252 . S
C1340 O1329 1.284 . S
C1340 O1332 1.250 . S
C1341 H1310 0.929 . S
C1341 C1326 1.437 . S
C1341 C1342 1.317 . S
C1342 H1313 0.930 . S
C1342 C1318 1.431 . S
C1342 C1341 1.317 . S
C1343 Gd1284 2.828 . S
C1343 O1328 1.258 . S
C1343 O1333 1.252 . S
C1343 C1344 1.497 . S
C1344 C1343 1.497 . S
C1344 C1345 1.395 . S
C1344 C1346 1.380 . S
C1345 C1344 1.395 . S
C1345 C1348 1.398 . S
C1345 H1360 0.930 . S
C1346 C1344 1.380 . S
C1346 C1347 1.391 . S
C1346 H1361 0.930 . S
C1347 C1346 1.391 . S
C1347 C1349 1.387 . S
C1348 C1345 1.398 . S
C1348 C1349 1.380 . S
C1348 H1362 0.930 . S
C1349 C1347 1.387 . S
C1349 C1348 1.380 . S
C1349 H1363 0.930 . S
C1350 O1330 1.254 . S
C1350 O1331 1.268 . S
C1351 O1335 1.284 . S
C1351 O1338 1.250 . S
C1352 Gd1285 2.828 . S
C1352 O1334 1.258 . S
C1352 O1339 1.252 . S
C1352 C1353 1.497 . S
C1353 C1352 1.497 . S
C1353 C1354 1.395 . S
C1353 C1355 1.380 . S
C1354 C1353 1.395 . S
C1354 C1357 1.398 . S
C1354 H1364 0.930 . S
C1355 C1353 1.380 . S
C1355 C1356 1.391 . S
C1355 H1365 0.930 . S
C1356 C1355 1.391 . S
C1356 C1358 1.387 . S
C1357 C1354 1.398 . S
C1357 C1358 1.380 . S
C1357 H1366 0.930 . S
C1358 C1356 1.387 . S
C1358 C1357 1.380 . S
C1358 H1367 0.930 . S
C1359 O1336 1.254 . S
C1359 O1337 1.268 . S
H1360 C1345 0.930 . S
H1361 C1346 0.930 . S
H1362 C1348 0.930 . S
H1363 C1349 0.930 . S
H1364 C1354 0.930 . S
H1365 C1355 0.930 . S
H1366 C1357 0.930 . S
H1367 C1358 0.930 . S
Gd1368 N1399 2.661 . S
Gd1368 N1405 2.601 . S
Gd1368 O1412 2.545 . S
Gd1368 O1413 2.606 1_556 S
Gd1368 O1415 2.429 1_556 S
Gd1368 O1416 2.545 . S
Gd1368 O1417 2.412 . S
Gd1368 O1419 2.362 1_556 S
Gd1368 O1420 2.324 . S
Gd1368 C1427 2.828 . S
Gd1369 N1378 2.661 . S
Gd1369 N1382 2.601 . S
Gd1369 O1413 2.362 . S
Gd1369 O1414 2.324 . S
Gd1369 O1418 2.545 1_545 S
Gd1369 O1419 2.606 . S
Gd1369 O1421 2.429 1_545 S
Gd1369 O1422 2.545 . S
Gd1369 O1423 2.412 . S
Gd1369 C1436 2.828 . S
C1370 C1373 1.417 . S
C1370 C1375 1.431 . S
C1370 C1376 1.412 . S
C1371 C1374 1.437 . S
C1371 C1375 1.317 . S
C1371 H1390 0.929 . S
C1372 C1373 1.426 . S
C1372 C1374 1.413 . S
C1372 N1382 1.359 . S
C1373 C1370 1.417 . S
C1373 C1372 1.426 . S
C1373 N1378 1.350 . S
C1374 C1371 1.437 . S
C1374 C1372 1.413 . S
C1374 C1384 1.391 1_545 S
C1375 C1370 1.431 . S
C1375 C1371 1.317 . S
C1375 H1386 0.930 . S
C1376 C1370 1.412 . S
C1376 C1377 1.355 . S
C1376 H1388 0.930 . S
C1377 C1376 1.355 . S
C1377 C1379 1.402 . S
C1377 H1389 0.930 . S
N1378 Gd1369 2.661 . S
N1378 C1373 1.350 . S
N1378 C1379 1.307 . S
C1379 C1377 1.402 . S
C1379 N1378 1.307 . S
C1379 H1380 0.930 . S
H1380 C1379 0.930 . S
C1381 N1382 1.334 1_565 S
C1381 C1383 1.394 . S
C1381 H1385 0.930 . S
N1382 Gd1369 2.601 . S
N1382 C1372 1.359 . S
N1382 C1381 1.334 1_545 S
C1383 C1381 1.394 . S
C1383 C1384 1.359 . S
C1383 H1395 0.930 . S
C1384 C1374 1.391 1_565 S
C1384 C1383 1.359 . S
C1384 H1396 0.929 . S
H1385 C1381 0.930 . S
H1386 C1375 0.930 . S
H1387 C1404 0.930 . S
H1388 C1376 0.930 . S
H1389 C1377 0.930 . S
H1390 C1371 0.929 . S
H1391 C1409 0.930 . S
H1392 C1400 0.930 . S
H1393 C1401 0.930 . S
H1394 C1425 0.929 . S
H1395 C1383 0.930 . S
H1396 C1384 0.929 . S
H1397 C1426 0.930 . S
H1398 C1407 0.930 . S
N1399 Gd1368 2.661 . S
N1399 C1403 1.350 . S
N1399 C1404 1.307 1_545 S
C1400 H1392 0.930 . S
C1400 C1401 1.355 . S
C1400 C1402 1.412 1_565 S
C1401 H1393 0.930 . S
C1401 C1400 1.355 . S
C1401 C1404 1.402 . S
C1402 C1400 1.412 1_545 S
C1402 C1403 1.417 . S
C1402 C1426 1.431 . S
C1403 N1399 1.350 . S
C1403 C1402 1.417 . S
C1403 C1406 1.426 . S
C1404 H1387 0.930 . S
C1404 N1399 1.307 1_565 S
C1404 C1401 1.402 . S
N1405 Gd1368 2.601 . S
N1405 C1406 1.359 . S
N1405 C1409 1.334 . S
C1406 C1403 1.426 . S
C1406 N1405 1.359 . S
C1406 C1410 1.413 . S
C1407 H1398 0.930 . S
C1407 C1408 1.359 . S
C1407 C1409 1.394 . S
C1408 C1407 1.359 . S
C1408 C1410 1.391 . S
C1408 H1411 0.929 . S
C1409 H1391 0.930 . S
C1409 N1405 1.334 . S
C1409 C1407 1.394 . S
C1410 C1406 1.413 . S
C1410 C1408 1.391 . S
C1410 C1425 1.437 . S
H1411 C1408 0.929 . S
O1412 Gd1368 2.545 . S
O1412 C1427 1.258 . S
O1413 Gd1368 2.606 1_554 S
O1413 Gd1369 2.362 . S
O1413 C1424 1.284 . S
O1414 Gd1369 2.324 . S
O1414 C1434 1.254 . S
O1415 Gd1368 2.429 1_554 S
O1415 C1434 1.268 . S
O1416 Gd1368 2.545 . S
O1416 C1424 1.250 1_556 S
O1417 Gd1368 2.412 . S
O1417 C1427 1.252 . S
O1418 Gd1369 2.545 1_565 S
O1418 C1436 1.258 1_565 S
O1419 Gd1368 2.362 1_554 S
O1419 Gd1369 2.606 . S
O1419 C1435 1.284 . S
O1420 Gd1368 2.324 . S
O1420 C1443 1.258 . S
O1421 Gd1369 2.429 1_565 S
O1421 C1443 1.267 1_564 S
O1422 Gd1369 2.545 . S
O1422 C1435 1.250 . S
O1423 Gd1369 2.412 . S
O1423 C1436 1.252 . S
C1424 O1413 1.284 . S
C1424 O1416 1.250 1_554 S
C1425 H1394 0.929 . S
C1425 C1410 1.437 . S
C1425 C1426 1.317 . S
C1426 H1397 0.930 . S
C1426 C1402 1.431 . S
C1426 C1425 1.317 . S
C1427 Gd1368 2.828 . S
C1427 O1412 1.258 . S
C1427 O1417 1.252 . S
C1427 C1428 1.497 . S
C1428 C1427 1.497 . S
C1428 C1429 1.395 . S
C1428 C1430 1.380 . S
C1429 C1428 1.395 . S
C1429 C1432 1.398 . S
C1429 H1444 0.930 . S
C1430 C1428 1.380 . S
C1430 C1431 1.391 . S
C1430 H1445 0.930 . S
C1431 C1430 1.391 . S
C1431 C1433 1.387 . S
C1432 C1429 1.398 . S
C1432 C1433 1.380 . S
C1432 H1446 0.930 . S
C1433 C1431 1.387 . S
C1433 C1432 1.380 . S
C1433 H1447 0.930 . S
C1434 O1414 1.254 . S
C1434 O1415 1.268 . S
C1435 O1419 1.284 . S
C1435 O1422 1.250 . S
C1436 Gd1369 2.828 . S
C1436 O1418 1.258 1_545 S
C1436 O1423 1.252 . S
C1436 C1437 1.497 . S
C1437 C1436 1.497 . S
C1437 C1438 1.395 1_545 S
C1437 C1439 1.380 . S
C1438 C1437 1.395 1_565 S
C1438 C1441 1.398 . S
C1438 H1448 0.930 . S
C1439 C1437 1.380 . S
C1439 C1440 1.391 . S
C1439 H1449 0.930 . S
C1440 C1439 1.391 . S
C1440 C1442 1.387 1_545 S
C1441 C1438 1.398 . S
C1441 C1442 1.380 . S
C1441 H1450 0.930 . S
C1442 C1440 1.387 1_565 S
C1442 C1441 1.380 . S
C1442 H1451 0.930 . S
C1443 O1420 1.258 . S
C1443 O1421 1.267 1_546 S
H1444 C1429 0.930 . S
H1445 C1430 0.930 . S
H1446 C1432 0.930 . S
H1447 C1433 0.930 . S
H1448 C1438 0.930 . S
H1449 C1439 0.930 . S
H1450 C1441 0.930 . S
H1451 C1442 0.930 . S
Gd1452 N1483 2.661 . S
Gd1452 N1489 2.601 . S
Gd1452 O1496 2.545 . S
Gd1452 O1497 2.606 . S
Gd1452 O1499 2.429 . S
Gd1452 O1500 2.545 . S
Gd1452 O1501 2.412 . S
Gd1452 O1503 2.362 . S
Gd1452 O1504 2.324 . S
Gd1452 C1511 2.828 . S
Gd1453 N1462 2.661 . S
Gd1453 N1466 2.601 . S
Gd1453 O1497 2.362 . S
Gd1453 O1498 2.324 . S
Gd1453 O1502 2.545 . S
Gd1453 O1503 2.606 . S
Gd1453 O1505 2.429 . S
Gd1453 O1506 2.545 . S
Gd1453 O1507 2.412 . S
Gd1453 C1520 2.828 . S
C1454 C1457 1.417 . S
C1454 C1459 1.431 . S
C1454 C1460 1.412 . S
C1455 C1458 1.437 . S
C1455 C1459 1.317 . S
C1455 H1474 0.929 . S
C1456 C1457 1.426 . S
C1456 C1458 1.413 . S
C1456 N1466 1.359 . S
C1457 C1454 1.417 . S
C1457 C1456 1.426 . S
C1457 N1462 1.350 . S
C1458 C1455 1.437 . S
C1458 C1456 1.413 . S
C1458 C1468 1.391 . S
C1459 C1454 1.431 . S
C1459 C1455 1.317 . S
C1459 H1470 0.930 . S
C1460 C1454 1.412 . S
C1460 C1461 1.355 . S
C1460 H1472 0.930 . S
C1461 C1460 1.355 . S
C1461 C1463 1.402 . S
C1461 H1473 0.930 . S
N1462 Gd1453 2.661 . S
N1462 C1457 1.350 . S
N1462 C1463 1.307 . S
C1463 C1461 1.402 . S
C1463 N1462 1.307 . S
C1463 H1464 0.930 . S
H1464 C1463 0.930 . S
C1465 N1466 1.334 . S
C1465 C1467 1.394 . S
C1465 H1469 0.930 . S
N1466 Gd1453 2.601 . S
N1466 C1456 1.359 . S
N1466 C1465 1.334 . S
C1467 C1465 1.394 . S
C1467 C1468 1.359 . S
C1467 H1479 0.930 . S
C1468 C1458 1.391 . S
C1468 C1467 1.359 . S
C1468 H1480 0.929 . S
H1469 C1465 0.930 . S
H1470 C1459 0.930 . S
H1471 C1488 0.930 . S
H1472 C1460 0.930 . S
H1473 C1461 0.930 . S
H1474 C1455 0.929 . S
H1475 C1493 0.930 . S
H1476 C1484 0.930 . S
H1477 C1485 0.930 . S
H1478 C1509 0.929 . S
H1479 C1467 0.930 . S
H1480 C1468 0.929 . S
H1481 C1510 0.930 . S
H1482 C1491 0.930 . S
N1483 Gd1452 2.661 . S
N1483 C1487 1.350 . S
N1483 C1488 1.307 . S
C1484 H1476 0.930 . S
C1484 C1485 1.355 . S
C1484 C1486 1.412 . S
C1485 H1477 0.930 . S
C1485 C1484 1.355 . S
C1485 C1488 1.402 . S
C1486 C1484 1.412 . S
C1486 C1487 1.417 . S
C1486 C1510 1.431 . S
C1487 N1483 1.350 . S
C1487 C1486 1.417 . S
C1487 C1490 1.426 . S
C1488 H1471 0.930 . S
C1488 N1483 1.307 . S
C1488 C1485 1.402 . S
N1489 Gd1452 2.601 . S
N1489 C1490 1.359 . S
N1489 C1493 1.334 . S
C1490 C1487 1.426 . S
C1490 N1489 1.359 . S
C1490 C1494 1.413 . S
C1491 H1482 0.930 . S
C1491 C1492 1.359 . S
C1491 C1493 1.394 . S
C1492 C1491 1.359 . S
C1492 C1494 1.391 . S
C1492 H1495 0.929 . S
C1493 H1475 0.930 . S
C1493 N1489 1.334 . S
C1493 C1491 1.394 . S
C1494 C1490 1.413 . S
C1494 C1492 1.391 . S
C1494 C1509 1.437 . S
H1495 C1492 0.929 . S
O1496 Gd1452 2.545 . S
O1496 C1511 1.258 . S
O1497 Gd1452 2.606 . S
O1497 Gd1453 2.362 . S
O1497 C1508 1.284 . S
O1498 Gd1453 2.324 . S
O1498 C1518 1.254 . S
O1499 Gd1452 2.429 . S
O1499 C1518 1.268 . S
O1500 Gd1452 2.545 . S
O1500 C1508 1.250 . S
O1501 Gd1452 2.412 . S
O1501 C1511 1.252 . S
O1502 Gd1453 2.545 . S
O1502 C1520 1.258 . S
O1503 Gd1452 2.362 . S
O1503 Gd1453 2.606 . S
O1503 C1519 1.284 . S
O1504 Gd1452 2.324 . S
O1504 C1527 1.254 . S
O1505 Gd1453 2.429 . S
O1505 C1527 1.268 . S
O1506 Gd1453 2.545 . S
O1506 C1519 1.250 . S
O1507 Gd1453 2.412 . S
O1507 C1520 1.252 . S
C1508 O1497 1.284 . S
C1508 O1500 1.250 . S
C1509 H1478 0.929 . S
C1509 C1494 1.437 . S
C1509 C1510 1.317 . S
C1510 H1481 0.930 . S
C1510 C1486 1.431 . S
C1510 C1509 1.317 . S
C1511 Gd1452 2.828 . S
C1511 O1496 1.258 . S
C1511 O1501 1.252 . S
C1511 C1512 1.497 . S
C1512 C1511 1.497 . S
C1512 C1513 1.395 . S
C1512 C1514 1.380 . S
C1513 C1512 1.395 . S
C1513 C1516 1.398 . S
C1513 H1528 0.930 . S
C1514 C1512 1.380 . S
C1514 C1515 1.391 . S
C1514 H1529 0.930 . S
C1515 C1514 1.391 . S
C1515 C1517 1.387 . S
C1516 C1513 1.398 . S
C1516 C1517 1.380 . S
C1516 H1530 0.930 . S
C1517 C1515 1.387 . S
C1517 C1516 1.380 . S
C1517 H1531 0.930 . S
C1518 O1498 1.254 . S
C1518 O1499 1.268 . S
C1519 O1503 1.284 . S
C1519 O1506 1.250 . S
C1520 Gd1453 2.828 . S
C1520 O1502 1.258 . S
C1520 O1507 1.252 . S
C1520 C1521 1.497 . S
C1521 C1520 1.497 . S
C1521 C1522 1.395 . S
C1521 C1523 1.380 . S
C1522 C1521 1.395 . S
C1522 C1525 1.398 . S
C1522 H1532 0.930 . S
C1523 C1521 1.380 . S
C1523 C1524 1.391 . S
C1523 H1533 0.930 . S
C1524 C1523 1.391 . S
C1524 C1526 1.387 . S
C1525 C1522 1.398 . S
C1525 C1526 1.380 . S
C1525 H1534 0.930 . S
C1526 C1524 1.387 . S
C1526 C1525 1.380 . S
C1526 H1535 0.930 . S
C1527 O1504 1.254 . S
C1527 O1505 1.268 . S
H1528 C1513 0.930 . S
H1529 C1514 0.930 . S
H1530 C1516 0.930 . S
H1531 C1517 0.930 . S
H1532 C1522 0.930 . S
H1533 C1523 0.930 . S
H1534 C1525 0.930 . S
H1535 C1526 0.930 . S
Gd1536 N1567 2.661 1_554 S
Gd1536 N1573 2.601 1_554 S
Gd1536 O1580 2.545 . S
Gd1536 O1581 2.606 . S
Gd1536 O1583 2.429 . S
Gd1536 O1584 2.545 . S
Gd1536 O1585 2.412 . S
Gd1536 O1587 2.362 1_554 S
Gd1536 O1588 2.324 . S
Gd1536 C1595 2.828 . S
Gd1537 N1546 2.661 . S
Gd1537 N1550 2.601 . S
Gd1537 O1581 2.362 . S
Gd1537 O1582 2.324 . S
Gd1537 O1586 2.545 . S
Gd1537 O1587 2.606 1_554 S
Gd1537 O1589 2.429 . S
Gd1537 O1590 2.545 1_554 S
Gd1537 O1591 2.412 . S
Gd1537 C1604 2.828 . S
C1538 C1541 1.417 . S
C1538 C1543 1.431 . S
C1538 C1544 1.412 . S
C1539 C1542 1.437 . S
C1539 C1543 1.317 . S
C1539 H1558 0.929 . S
C1540 C1541 1.426 . S
C1540 C1542 1.413 . S
C1540 N1550 1.359 . S
C1541 C1538 1.417 . S
C1541 C1540 1.426 . S
C1541 N1546 1.350 . S
C1542 C1539 1.437 . S
C1542 C1540 1.413 . S
C1542 C1552 1.391 . S
C1543 C1538 1.431 . S
C1543 C1539 1.317 . S
C1543 H1554 0.930 . S
C1544 C1538 1.412 . S
C1544 C1545 1.355 . S
C1544 H1556 0.930 . S
C1545 C1544 1.355 . S
C1545 C1547 1.402 . S
C1545 H1557 0.930 . S
N1546 Gd1537 2.661 . S
N1546 C1541 1.350 . S
N1546 C1547 1.307 . S
C1547 C1545 1.402 . S
C1547 N1546 1.307 . S
C1547 H1548 0.930 . S
H1548 C1547 0.930 . S
C1549 N1550 1.334 . S
C1549 C1551 1.394 . S
C1549 H1553 0.930 . S
N1550 Gd1537 2.601 . S
N1550 C1540 1.359 . S
N1550 C1549 1.334 . S
C1551 C1549 1.394 . S
C1551 C1552 1.359 . S
C1551 H1563 0.930 . S
C1552 C1542 1.391 . S
C1552 C1551 1.359 . S
C1552 H1564 0.929 . S
H1553 C1549 0.930 . S
H1554 C1543 0.930 . S
H1555 C1572 0.930 . S
H1556 C1544 0.930 . S
H1557 C1545 0.930 . S
H1558 C1539 0.929 . S
H1559 C1577 0.930 . S
H1560 C1568 0.930 . S
H1561 C1569 0.930 . S
H1562 C1593 0.929 . S
H1563 C1551 0.930 . S
H1564 C1552 0.929 . S
H1565 C1594 0.930 . S
H1566 C1575 0.930 . S
N1567 Gd1536 2.661 1_556 S
N1567 C1571 1.350 . S
N1567 C1572 1.307 . S
C1568 H1560 0.930 . S
C1568 C1569 1.355 . S
C1568 C1570 1.412 . S
C1569 H1561 0.930 . S
C1569 C1568 1.355 . S
C1569 C1572 1.402 . S
C1570 C1568 1.412 . S
C1570 C1571 1.417 . S
C1570 C1594 1.431 . S
C1571 N1567 1.350 . S
C1571 C1570 1.417 . S
C1571 C1574 1.426 . S
C1572 H1555 0.930 . S
C1572 N1567 1.307 . S
C1572 C1569 1.402 . S
N1573 Gd1536 2.601 1_556 S
N1573 C1574 1.359 . S
N1573 C1577 1.334 . S
C1574 C1571 1.426 . S
C1574 N1573 1.359 . S
C1574 C1578 1.413 . S
C1575 H1566 0.930 . S
C1575 C1576 1.359 . S
C1575 C1577 1.394 . S
C1576 C1575 1.359 . S
C1576 C1578 1.391 . S
C1576 H1579 0.929 . S
C1577 H1559 0.930 . S
C1577 N1573 1.334 . S
C1577 C1575 1.394 . S
C1578 C1574 1.413 . S
C1578 C1576 1.391 . S
C1578 C1593 1.437 . S
H1579 C1576 0.929 . S
O1580 Gd1536 2.545 . S
O1580 C1595 1.258 . S
O1581 Gd1536 2.606 . S
O1581 Gd1537 2.362 . S
O1581 C1592 1.284 . S
O1582 Gd1537 2.324 . S
O1582 C1602 1.254 . S
O1583 Gd1536 2.429 . S
O1583 C1602 1.268 . S
O1584 Gd1536 2.545 . S
O1584 C1592 1.250 . S
O1585 Gd1536 2.412 . S
O1585 C1595 1.252 . S
O1586 Gd1537 2.545 . S
O1586 C1604 1.258 . S
O1587 Gd1536 2.362 1_556 S
O1587 Gd1537 2.606 1_556 S
O1587 C1603 1.284 . S
O1588 Gd1536 2.324 . S
O1588 C1611 1.254 . S
O1589 Gd1537 2.429 . S
O1589 C1611 1.268 . S
O1590 Gd1537 2.545 1_556 S
O1590 C1603 1.250 . S
O1591 Gd1537 2.412 . S
O1591 C1604 1.252 . S
C1592 O1581 1.284 . S
C1592 O1584 1.250 . S
C1593 H1562 0.929 . S
C1593 C1578 1.437 . S
C1593 C1594 1.317 . S
C1594 H1565 0.930 . S
C1594 C1570 1.431 . S
C1594 C1593 1.317 . S
C1595 Gd1536 2.828 . S
C1595 O1580 1.258 . S
C1595 O1585 1.252 . S
C1595 C1596 1.497 . S
C1596 C1595 1.497 . S
C1596 C1597 1.395 . S
C1596 C1598 1.380 . S
C1597 C1596 1.395 . S
C1597 C1600 1.398 . S
C1597 H1612 0.930 . S
C1598 C1596 1.380 . S
C1598 C1599 1.391 . S
C1598 H1613 0.930 . S
C1599 C1598 1.391 . S
C1599 C1601 1.387 . S
C1600 C1597 1.398 . S
C1600 C1601 1.380 . S
C1600 H1614 0.930 . S
C1601 C1599 1.387 . S
C1601 C1600 1.380 . S
C1601 H1615 0.930 . S
C1602 O1582 1.254 . S
C1602 O1583 1.268 . S
C1603 O1587 1.284 . S
C1603 O1590 1.250 . S
C1604 Gd1537 2.828 . S
C1604 O1586 1.258 . S
C1604 O1591 1.252 . S
C1604 C1605 1.497 . S
C1605 C1604 1.497 . S
C1605 C1606 1.395 . S
C1605 C1607 1.389 . S
C1606 C1605 1.395 . S
C1606 C1609 1.398 . S
C1606 H1616 0.930 . S
C1607 C1605 1.389 . S
C1607 C1608 1.385 1_554 S
C1607 H1617 0.927 1_554 S
C1608 C1607 1.385 1_556 S
C1608 C1610 1.387 1_556 S
C1609 C1606 1.398 . S
C1609 C1610 1.380 . S
C1609 H1618 0.930 . S
C1610 C1608 1.387 1_554 S
C1610 C1609 1.380 . S
C1610 H1619 0.930 1_554 S
C1611 O1588 1.254 . S
C1611 O1589 1.268 . S
H1612 C1597 0.930 . S
H1613 C1598 0.930 . S
H1614 C1600 0.930 . S
H1615 C1601 0.930 . S
H1616 C1606 0.930 . S
H1617 C1607 0.927 1_556 S
H1618 C1609 0.930 . S
H1619 C1610 0.930 1_556 S
Gd1620 N1651 2.661 . S
Gd1620 N1657 2.601 . S
Gd1620 O1664 2.545 . S
Gd1620 O1665 2.606 . S
Gd1620 O1667 2.429 . S
Gd1620 O1668 2.545 . S
Gd1620 O1669 2.412 . S
Gd1620 O1671 2.362 . S
Gd1620 O1672 2.324 . S
Gd1620 C1679 2.828 . S
Gd1621 N1630 2.661 . S
Gd1621 N1634 2.601 . S
Gd1621 O1665 2.362 . S
Gd1621 O1666 2.324 . S
Gd1621 O1670 2.545 . S
Gd1621 O1671 2.606 . S
Gd1621 O1673 2.429 . S
Gd1621 O1674 2.545 . S
Gd1621 O1675 2.412 . S
Gd1621 C1688 2.828 . S
C1622 C1625 1.417 . S
C1622 C1627 1.431 . S
C1622 C1628 1.412 . S
C1623 C1626 1.437 . S
C1623 C1627 1.317 . S
C1623 H1642 0.929 . S
C1624 C1625 1.426 . S
C1624 C1626 1.413 . S
C1624 N1634 1.359 . S
C1625 C1622 1.417 . S
C1625 C1624 1.426 . S
C1625 N1630 1.350 . S
C1626 C1623 1.437 . S
C1626 C1624 1.413 . S
C1626 C1636 1.391 . S
C1627 C1622 1.431 . S
C1627 C1623 1.317 . S
C1627 H1638 0.930 . S
C1628 C1622 1.412 . S
C1628 C1629 1.355 . S
C1628 H1640 0.930 . S
C1629 C1628 1.355 . S
C1629 C1631 1.402 . S
C1629 H1641 0.930 . S
N1630 Gd1621 2.661 . S
N1630 C1625 1.350 . S
N1630 C1631 1.307 . S
C1631 C1629 1.402 . S
C1631 N1630 1.307 . S
C1631 H1632 0.930 . S
H1632 C1631 0.930 . S
C1633 N1634 1.334 . S
C1633 C1635 1.394 . S
C1633 H1637 0.930 . S
N1634 Gd1621 2.601 . S
N1634 C1624 1.359 . S
N1634 C1633 1.334 . S
C1635 C1633 1.394 . S
C1635 C1636 1.359 . S
C1635 H1647 0.930 . S
C1636 C1626 1.391 . S
C1636 C1635 1.359 . S
C1636 H1648 0.929 . S
H1637 C1633 0.930 . S
H1638 C1627 0.930 . S
H1639 C1656 0.930 . S
H1640 C1628 0.930 . S
H1641 C1629 0.930 . S
H1642 C1623 0.929 . S
H1643 C1661 0.930 . S
H1644 C1652 0.930 . S
H1645 C1653 0.930 . S
H1646 C1677 0.929 . S
H1647 C1635 0.930 . S
H1648 C1636 0.929 . S
H1649 C1678 0.930 . S
H1650 C1659 0.930 . S
N1651 Gd1620 2.661 . S
N1651 C1655 1.350 . S
N1651 C1656 1.307 . S
C1652 H1644 0.930 . S
C1652 C1653 1.355 . S
C1652 C1654 1.412 . S
C1653 H1645 0.930 . S
C1653 C1652 1.355 . S
C1653 C1656 1.402 . S
C1654 C1652 1.412 . S
C1654 C1655 1.417 . S
C1654 C1678 1.431 . S
C1655 N1651 1.350 . S
C1655 C1654 1.417 . S
C1655 C1658 1.426 . S
C1656 H1639 0.930 . S
C1656 N1651 1.307 . S
C1656 C1653 1.402 . S
N1657 Gd1620 2.601 . S
N1657 C1658 1.359 . S
N1657 C1661 1.334 . S
C1658 C1655 1.426 . S
C1658 N1657 1.359 . S
C1658 C1662 1.413 . S
C1659 H1650 0.930 . S
C1659 C1660 1.359 . S
C1659 C1661 1.394 . S
C1660 C1659 1.359 . S
C1660 C1662 1.391 . S
C1660 H1663 0.929 . S
C1661 H1643 0.930 . S
C1661 N1657 1.334 . S
C1661 C1659 1.394 . S
C1662 C1658 1.413 . S
C1662 C1660 1.391 . S
C1662 C1677 1.437 . S
H1663 C1660 0.929 . S
O1664 Gd1620 2.545 . S
O1664 C1679 1.258 . S
O1665 Gd1620 2.606 . S
O1665 Gd1621 2.362 . S
O1665 C1676 1.284 . S
O1666 Gd1621 2.324 . S
O1666 C1686 1.254 . S
O1667 Gd1620 2.429 . S
O1667 C1686 1.268 . S
O1668 Gd1620 2.545 . S
O1668 C1676 1.250 . S
O1669 Gd1620 2.412 . S
O1669 C1679 1.252 . S
O1670 Gd1621 2.545 . S
O1670 C1688 1.258 . S
O1671 Gd1620 2.362 . S
O1671 Gd1621 2.606 . S
O1671 C1687 1.284 . S
O1672 Gd1620 2.324 . S
O1672 C1695 1.254 . S
O1673 Gd1621 2.429 . S
O1673 C1695 1.268 . S
O1674 Gd1621 2.545 . S
O1674 C1687 1.250 . S
O1675 Gd1621 2.412 . S
O1675 C1688 1.252 . S
C1676 O1665 1.284 . S
C1676 O1668 1.250 . S
C1677 H1646 0.929 . S
C1677 C1662 1.437 . S
C1677 C1678 1.317 . S
C1678 H1649 0.930 . S
C1678 C1654 1.431 . S
C1678 C1677 1.317 . S
C1679 Gd1620 2.828 . S
C1679 O1664 1.258 . S
C1679 O1669 1.252 . S
C1679 C1680 1.497 . S
C1680 C1679 1.497 . S
C1680 C1681 1.395 . S
C1680 C1682 1.380 . S
C1681 C1680 1.395 . S
C1681 C1684 1.398 . S
C1681 H1696 0.930 . S
C1682 C1680 1.380 . S
C1682 C1683 1.391 . S
C1682 H1697 0.930 . S
C1683 C1682 1.391 . S
C1683 C1685 1.387 . S
C1684 C1681 1.398 . S
C1684 C1685 1.380 . S
C1684 H1698 0.930 . S
C1685 C1683 1.387 . S
C1685 C1684 1.380 . S
C1685 H1699 0.930 . S
C1686 O1666 1.254 . S
C1686 O1667 1.268 . S
C1687 O1671 1.284 . S
C1687 O1674 1.250 . S
C1688 Gd1621 2.828 . S
C1688 O1670 1.258 . S
C1688 O1675 1.252 . S
C1688 C1689 1.497 . S
C1689 C1688 1.497 . S
C1689 C1690 1.395 . S
C1689 C1691 1.380 . S
C1690 C1689 1.395 . S
C1690 C1693 1.398 . S
C1690 H1700 0.930 . S
C1691 C1689 1.380 . S
C1691 C1692 1.391 . S
C1691 H1701 0.930 . S
C1692 C1691 1.391 . S
C1692 C1694 1.387 . S
C1693 C1690 1.398 . S
C1693 C1694 1.380 . S
C1693 H1702 0.930 . S
C1694 C1692 1.387 . S
C1694 C1693 1.380 . S
C1694 H1703 0.930 . S
C1695 O1672 1.254 . S
C1695 O1673 1.268 . S
H1696 C1681 0.930 . S
H1697 C1682 0.930 . S
H1698 C1684 0.930 . S
H1699 C1685 0.930 . S
H1700 C1690 0.930 . S
H1701 C1691 0.930 . S
H1702 C1693 0.930 . S
H1703 C1694 0.930 . S
Gd1704 N1735 2.661 . S
Gd1704 N1741 2.601 . S
Gd1704 O1748 2.545 . S
Gd1704 O1749 2.606 . S
Gd1704 O1751 2.429 . S
Gd1704 O1752 2.545 . S
Gd1704 O1753 2.412 . S
Gd1704 O1755 2.362 . S
Gd1704 O1756 2.324 . S
Gd1704 C1763 2.828 . S
Gd1705 N1714 2.661 . S
Gd1705 N1718 2.601 . S
Gd1705 O1749 2.362 . S
Gd1705 O1750 2.324 . S
Gd1705 O1754 2.545 . S
Gd1705 O1755 2.606 . S
Gd1705 O1757 2.429 . S
Gd1705 O1758 2.545 . S
Gd1705 O1759 2.412 . S
Gd1705 C1772 2.828 . S
C1706 C1709 1.417 . S
C1706 C1711 1.431 . S
C1706 C1712 1.412 . S
C1707 C1710 1.437 . S
C1707 C1711 1.317 . S
C1707 H1726 0.929 . S
C1708 C1709 1.426 . S
C1708 C1710 1.413 . S
C1708 N1718 1.359 . S
C1709 C1706 1.417 . S
C1709 C1708 1.426 . S
C1709 N1714 1.350 . S
C1710 C1707 1.437 . S
C1710 C1708 1.413 . S
C1710 C1720 1.391 . S
C1711 C1706 1.431 . S
C1711 C1707 1.317 . S
C1711 H1722 0.930 . S
C1712 C1706 1.412 . S
C1712 C1713 1.355 . S
C1712 H1724 0.930 . S
C1713 C1712 1.355 . S
C1713 C1715 1.402 . S
C1713 H1725 0.930 . S
N1714 Gd1705 2.661 . S
N1714 C1709 1.350 . S
N1714 C1715 1.307 . S
C1715 C1713 1.402 . S
C1715 N1714 1.307 . S
C1715 H1716 0.930 . S
H1716 C1715 0.930 . S
C1717 N1718 1.334 . S
C1717 C1719 1.394 . S
C1717 H1721 0.930 . S
N1718 Gd1705 2.601 . S
N1718 C1708 1.359 . S
N1718 C1717 1.334 . S
C1719 C1717 1.394 . S
C1719 C1720 1.359 . S
C1719 H1731 0.930 . S
C1720 C1710 1.391 . S
C1720 C1719 1.359 . S
C1720 H1732 0.929 . S
H1721 C1717 0.930 . S
H1722 C1711 0.930 . S
H1723 C1740 0.930 . S
H1724 C1712 0.930 . S
H1725 C1713 0.930 . S
H1726 C1707 0.929 . S
H1727 C1745 0.930 . S
H1728 C1736 0.930 . S
H1729 C1737 0.937 1_655 S
H1730 C1761 0.929 . S
H1731 C1719 0.930 . S
H1732 C1720 0.929 . S
H1733 C1762 0.930 . S
H1734 C1743 0.930 . S
N1735 Gd1704 2.661 . S
N1735 C1739 1.350 . S
N1735 C1740 1.307 . S
C1736 H1728 0.930 . S
C1736 C1737 1.329 1_655 S
C1736 C1738 1.412 . S
C1737 H1729 0.937 1_455 S
C1737 C1736 1.329 1_455 S
C1737 C1740 1.422 . S
C1738 C1736 1.412 . S
C1738 C1739 1.417 1_655 S
C1738 C1762 1.431 . S
C1739 N1735 1.350 . S
C1739 C1738 1.417 1_455 S
C1739 C1742 1.426 . S
C1740 H1723 0.930 . S
C1740 N1735 1.307 . S
C1740 C1737 1.422 . S
N1741 Gd1704 2.601 . S
N1741 C1742 1.359 . S
N1741 C1745 1.334 . S
C1742 C1739 1.426 . S
C1742 N1741 1.359 . S
C1742 C1746 1.413 1_455 S
C1743 H1734 0.930 . S
C1743 C1744 1.359 1_455 S
C1743 C1745 1.394 . S
C1744 C1743 1.359 1_655 S
C1744 C1746 1.391 . S
C1744 H1747 0.929 . S
C1745 H1727 0.930 . S
C1745 N1741 1.334 . S
C1745 C1743 1.394 . S
C1746 C1742 1.413 1_655 S
C1746 C1744 1.391 . S
C1746 C1761 1.437 . S
H1747 C1744 0.929 . S
O1748 Gd1704 2.545 . S
O1748 C1763 1.258 . S
O1749 Gd1704 2.606 . S
O1749 Gd1705 2.362 . S
O1749 C1760 1.284 . S
O1750 Gd1705 2.324 . S
O1750 C1770 1.254 . S
O1751 Gd1704 2.429 . S
O1751 C1770 1.268 . S
O1752 Gd1704 2.545 . S
O1752 C1760 1.250 . S
O1753 Gd1704 2.412 . S
O1753 C1763 1.252 . S
O1754 Gd1705 2.545 . S
O1754 C1772 1.258 . S
O1755 Gd1704 2.362 . S
O1755 Gd1705 2.606 . S
O1755 C1771 1.284 . S
O1756 Gd1704 2.324 . S
O1756 C1779 1.254 . S
O1757 Gd1705 2.429 . S
O1757 C1779 1.268 . S
O1758 Gd1705 2.545 . S
O1758 C1771 1.250 . S
O1759 Gd1705 2.412 . S
O1759 C1772 1.252 . S
C1760 O1749 1.284 . S
C1760 O1752 1.250 . S
C1761 H1730 0.929 . S
C1761 C1746 1.437 . S
C1761 C1762 1.317 . S
C1762 H1733 0.930 . S
C1762 C1738 1.431 . S
C1762 C1761 1.317 . S
C1763 Gd1704 2.828 . S
C1763 O1748 1.258 . S
C1763 O1753 1.252 . S
C1763 C1764 1.497 . S
C1764 C1763 1.497 . S
C1764 C1765 1.395 . S
C1764 C1766 1.380 . S
C1765 C1764 1.395 . S
C1765 C1768 1.398 . S
C1765 H1780 0.930 . S
C1766 C1764 1.380 . S
C1766 C1767 1.391 . S
C1766 H1781 0.930 . S
C1767 C1766 1.391 . S
C1767 C1769 1.387 . S
C1768 C1765 1.398 . S
C1768 C1769 1.380 . S
C1768 H1782 0.930 . S
C1769 C1767 1.387 . S
C1769 C1768 1.380 . S
C1769 H1783 0.930 . S
C1770 O1750 1.254 . S
C1770 O1751 1.268 . S
C1771 O1755 1.284 . S
C1771 O1758 1.250 . S
C1772 Gd1705 2.828 . S
C1772 O1754 1.258 . S
C1772 O1759 1.252 . S
C1772 C1773 1.497 . S
C1773 C1772 1.497 . S
C1773 C1774 1.395 . S
C1773 C1775 1.380 . S
C1774 C1773 1.395 . S
C1774 C1777 1.398 . S
C1774 H1784 0.930 . S
C1775 C1773 1.380 . S
C1775 C1776 1.391 . S
C1775 H1785 0.930 . S
C1776 C1775 1.391 . S
C1776 C1778 1.387 . S
C1777 C1774 1.398 . S
C1777 C1778 1.380 . S
C1777 H1786 0.930 . S
C1778 C1776 1.387 . S
C1778 C1777 1.380 . S
C1778 H1787 0.930 . S
C1779 O1756 1.254 . S
C1779 O1757 1.268 . S
H1780 C1765 0.930 . S
H1781 C1766 0.930 . S
H1782 C1768 0.930 . S
H1783 C1769 0.930 . S
H1784 C1774 0.930 . S
H1785 C1775 0.930 . S
H1786 C1777 0.930 . S
H1787 C1778 0.930 . S
Gd1788 N1819 2.661 . S
Gd1788 N1825 2.601 . S
Gd1788 O1832 2.545 . S
Gd1788 O1833 2.606 . S
Gd1788 O1835 2.429 . S
Gd1788 O1836 2.545 . S
Gd1788 O1837 2.412 . S
Gd1788 O1839 2.362 . S
Gd1788 O1840 2.324 . S
Gd1788 C1847 2.828 . S
Gd1789 N1798 2.661 . S
Gd1789 N1802 2.601 . S
Gd1789 O1833 2.362 . S
Gd1789 O1834 2.324 . S
Gd1789 O1838 2.545 . S
Gd1789 O1839 2.606 . S
Gd1789 O1841 2.429 . S
Gd1789 O1842 2.545 . S
Gd1789 O1843 2.412 . S
Gd1789 C1856 2.828 . S
C1790 C1793 1.417 . S
C1790 C1795 1.431 . S
C1790 C1796 1.412 . S
C1791 C1794 1.437 . S
C1791 C1795 1.317 . S
C1791 H1810 0.929 . S
C1792 C1793 1.426 . S
C1792 C1794 1.413 . S
C1792 N1802 1.359 . S
C1793 C1790 1.417 . S
C1793 C1792 1.426 . S
C1793 N1798 1.350 . S
C1794 C1791 1.437 . S
C1794 C1792 1.413 . S
C1794 C1804 1.391 . S
C1795 C1790 1.431 . S
C1795 C1791 1.317 . S
C1795 H1806 0.930 . S
C1796 C1790 1.412 . S
C1796 C1797 1.355 . S
C1796 H1808 0.930 . S
C1797 C1796 1.355 . S
C1797 C1799 1.402 . S
C1797 H1809 0.930 . S
N1798 Gd1789 2.661 . S
N1798 C1793 1.350 . S
N1798 C1799 1.307 . S
C1799 C1797 1.402 . S
C1799 N1798 1.307 . S
C1799 H1800 0.930 . S
H1800 C1799 0.930 . S
C1801 N1802 1.334 . S
C1801 C1803 1.394 . S
C1801 H1805 0.930 . S
N1802 Gd1789 2.601 . S
N1802 C1792 1.359 . S
N1802 C1801 1.334 . S
C1803 C1801 1.394 . S
C1803 C1804 1.359 . S
C1803 H1815 0.930 . S
C1804 C1794 1.391 . S
C1804 C1803 1.359 . S
C1804 H1816 0.929 . S
H1805 C1801 0.930 . S
H1806 C1795 0.930 . S
H1807 C1824 0.930 . S
H1808 C1796 0.930 . S
H1809 C1797 0.930 . S
H1810 C1791 0.929 . S
H1811 C1829 0.930 . S
H1812 C1820 0.930 . S
H1813 C1821 0.930 . S
H1814 C1845 0.929 . S
H1815 C1803 0.930 . S
H1816 C1804 0.929 . S
H1817 C1846 0.930 . S
H1818 C1827 0.930 . S
N1819 Gd1788 2.661 . S
N1819 C1823 1.350 . S
N1819 C1824 1.307 . S
C1820 H1812 0.930 . S
C1820 C1821 1.355 . S
C1820 C1822 1.412 . S
C1821 H1813 0.930 . S
C1821 C1820 1.355 . S
C1821 C1824 1.402 . S
C1822 C1820 1.412 . S
C1822 C1823 1.417 . S
C1822 C1846 1.431 . S
C1823 N1819 1.350 . S
C1823 C1822 1.417 . S
C1823 C1826 1.426 . S
C1824 H1807 0.930 . S
C1824 N1819 1.307 . S
C1824 C1821 1.402 . S
N1825 Gd1788 2.601 . S
N1825 C1826 1.359 . S
N1825 C1829 1.334 . S
C1826 C1823 1.426 . S
C1826 N1825 1.359 . S
C1826 C1830 1.413 . S
C1827 H1818 0.930 . S
C1827 C1828 1.359 . S
C1827 C1829 1.394 . S
C1828 C1827 1.359 . S
C1828 C1830 1.391 . S
C1828 H1831 0.929 . S
C1829 H1811 0.930 . S
C1829 N1825 1.334 . S
C1829 C1827 1.394 . S
C1830 C1826 1.413 . S
C1830 C1828 1.391 . S
C1830 C1845 1.437 . S
H1831 C1828 0.929 . S
O1832 Gd1788 2.545 . S
O1832 C1847 1.258 . S
O1833 Gd1788 2.606 . S
O1833 Gd1789 2.362 . S
O1833 C1844 1.284 . S
O1834 Gd1789 2.324 . S
O1834 C1854 1.254 . S
O1835 Gd1788 2.429 . S
O1835 C1854 1.268 . S
O1836 Gd1788 2.545 . S
O1836 C1844 1.250 . S
O1837 Gd1788 2.412 . S
O1837 C1847 1.252 . S
O1838 Gd1789 2.545 . S
O1838 C1856 1.258 . S
O1839 Gd1788 2.362 . S
O1839 Gd1789 2.606 . S
O1839 C1855 1.284 . S
O1840 Gd1788 2.324 . S
O1840 C1863 1.254 . S
O1841 Gd1789 2.429 . S
O1841 C1863 1.268 . S
O1842 Gd1789 2.545 . S
O1842 C1855 1.250 . S
O1843 Gd1789 2.412 . S
O1843 C1856 1.252 . S
C1844 O1833 1.284 . S
C1844 O1836 1.250 . S
C1845 H1814 0.929 . S
C1845 C1830 1.437 . S
C1845 C1846 1.317 . S
C1846 H1817 0.930 . S
C1846 C1822 1.431 . S
C1846 C1845 1.317 . S
C1847 Gd1788 2.828 . S
C1847 O1832 1.258 . S
C1847 O1837 1.252 . S
C1847 C1848 1.497 . S
C1848 C1847 1.497 . S
C1848 C1849 1.395 . S
C1848 C1850 1.380 . S
C1849 C1848 1.395 . S
C1849 C1852 1.398 . S
C1849 H1864 0.930 . S
C1850 C1848 1.380 . S
C1850 C1851 1.391 . S
C1850 H1865 0.930 . S
C1851 C1850 1.391 . S
C1851 C1853 1.387 . S
C1852 C1849 1.398 . S
C1852 C1853 1.380 . S
C1852 H1866 0.930 . S
C1853 C1851 1.387 . S
C1853 C1852 1.380 . S
C1853 H1867 0.930 . S
C1854 O1834 1.254 . S
C1854 O1835 1.268 . S
C1855 O1839 1.284 . S
C1855 O1842 1.250 . S
C1856 Gd1789 2.828 . S
C1856 O1838 1.258 . S
C1856 O1843 1.252 . S
C1856 C1857 1.497 . S
C1857 C1856 1.497 . S
C1857 C1858 1.395 . S
C1857 C1859 1.380 . S
C1858 C1857 1.395 . S
C1858 C1861 1.398 . S
C1858 H1868 0.930 . S
C1859 C1857 1.380 . S
C1859 C1860 1.391 . S
C1859 H1869 0.930 . S
C1860 C1859 1.391 . S
C1860 C1862 1.387 . S
C1861 C1858 1.398 . S
C1861 C1862 1.380 . S
C1861 H1870 0.930 . S
C1862 C1860 1.387 . S
C1862 C1861 1.380 . S
C1862 H1871 0.930 . S
C1863 O1840 1.254 . S
C1863 O1841 1.268 . S
H1864 C1849 0.930 . S
H1865 C1850 0.930 . S
H1866 C1852 0.930 . S
H1867 C1853 0.930 . S
H1868 C1858 0.930 . S
H1869 C1859 0.930 . S
H1870 C1861 0.930 . S
H1871 C1862 0.930 . S
Gd1872 N1903 2.661 . S
Gd1872 N1909 2.601 . S
Gd1872 O1916 2.545 . S
Gd1872 O1917 2.606 . S
Gd1872 O1919 2.429 . S
Gd1872 O1920 2.545 . S
Gd1872 O1921 2.412 . S
Gd1872 O1923 2.362 . S
Gd1872 O1924 2.324 . S
Gd1872 C1931 2.828 . S
Gd1873 N1882 2.661 . S
Gd1873 N1886 2.601 . S
Gd1873 O1917 2.362 . S
Gd1873 O1918 2.324 . S
Gd1873 O1922 2.545 . S
Gd1873 O1923 2.606 . S
Gd1873 O1925 2.429 . S
Gd1873 O1926 2.545 . S
Gd1873 O1927 2.412 . S
Gd1873 C1940 2.828 . S
C1874 C1877 1.417 . S
C1874 C1879 1.431 . S
C1874 C1880 1.412 . S
C1875 C1878 1.437 . S
C1875 C1879 1.317 . S
C1875 H1894 0.929 . S
C1876 C1877 1.426 . S
C1876 C1878 1.413 . S
C1876 N1886 1.359 . S
C1877 C1874 1.417 . S
C1877 C1876 1.426 . S
C1877 N1882 1.350 . S
C1878 C1875 1.437 . S
C1878 C1876 1.413 . S
C1878 C1888 1.391 . S
C1879 C1874 1.431 . S
C1879 C1875 1.317 . S
C1879 H1890 0.930 . S
C1880 C1874 1.412 . S
C1880 C1881 1.355 . S
C1880 H1892 0.930 . S
C1881 C1880 1.355 . S
C1881 C1883 1.402 . S
C1881 H1893 0.930 . S
N1882 Gd1873 2.661 . S
N1882 C1877 1.350 . S
N1882 C1883 1.307 . S
C1883 C1881 1.402 . S
C1883 N1882 1.307 . S
C1883 H1884 0.930 . S
H1884 C1883 0.930 . S
C1885 N1886 1.334 . S
C1885 C1887 1.394 . S
C1885 H1889 0.930 . S
N1886 Gd1873 2.601 . S
N1886 C1876 1.359 . S
N1886 C1885 1.334 . S
C1887 C1885 1.394 . S
C1887 C1888 1.359 . S
C1887 H1899 0.930 . S
C1888 C1878 1.391 . S
C1888 C1887 1.359 . S
C1888 H1900 0.929 . S
H1889 C1885 0.930 . S
H1890 C1879 0.930 . S
H1891 C1908 0.930 . S
H1892 C1880 0.930 . S
H1893 C1881 0.930 . S
H1894 C1875 0.929 . S
H1895 C1913 0.930 . S
H1896 C1904 0.930 . S
H1897 C1905 0.930 . S
H1898 C1929 0.929 . S
H1899 C1887 0.930 . S
H1900 C1888 0.929 . S
H1901 C1930 0.930 . S
H1902 C1911 0.930 . S
N1903 Gd1872 2.661 . S
N1903 C1907 1.350 . S
N1903 C1908 1.307 . S
C1904 H1896 0.930 . S
C1904 C1905 1.355 . S
C1904 C1906 1.412 . S
C1905 H1897 0.930 . S
C1905 C1904 1.355 . S
C1905 C1908 1.402 . S
C1906 C1904 1.412 . S
C1906 C1907 1.417 . S
C1906 C1930 1.431 . S
C1907 N1903 1.350 . S
C1907 C1906 1.417 . S
C1907 C1910 1.426 . S
C1908 H1891 0.930 . S
C1908 N1903 1.307 . S
C1908 C1905 1.402 . S
N1909 Gd1872 2.601 . S
N1909 C1910 1.359 . S
N1909 C1913 1.334 . S
C1910 C1907 1.426 . S
C1910 N1909 1.359 . S
C1910 C1914 1.413 . S
C1911 H1902 0.930 . S
C1911 C1912 1.359 . S
C1911 C1913 1.394 . S
C1912 C1911 1.359 . S
C1912 C1914 1.391 . S
C1912 H1915 0.929 . S
C1913 H1895 0.930 . S
C1913 N1909 1.334 . S
C1913 C1911 1.394 . S
C1914 C1910 1.413 . S
C1914 C1912 1.391 . S
C1914 C1929 1.437 . S
H1915 C1912 0.929 . S
O1916 Gd1872 2.545 . S
O1916 C1931 1.258 . S
O1917 Gd1872 2.606 . S
O1917 Gd1873 2.362 . S
O1917 C1928 1.284 . S
O1918 Gd1873 2.324 . S
O1918 C1938 1.254 . S
O1919 Gd1872 2.429 . S
O1919 C1938 1.268 . S
O1920 Gd1872 2.545 . S
O1920 C1928 1.250 . S
O1921 Gd1872 2.412 . S
O1921 C1931 1.252 . S
O1922 Gd1873 2.545 . S
O1922 C1940 1.258 . S
O1923 Gd1872 2.362 . S
O1923 Gd1873 2.606 . S
O1923 C1939 1.284 . S
O1924 Gd1872 2.324 . S
O1924 C1947 1.254 . S
O1925 Gd1873 2.429 . S
O1925 C1947 1.268 . S
O1926 Gd1873 2.545 . S
O1926 C1939 1.250 . S
O1927 Gd1873 2.412 . S
O1927 C1940 1.252 . S
C1928 O1917 1.284 . S
C1928 O1920 1.250 . S
C1929 H1898 0.929 . S
C1929 C1914 1.437 . S
C1929 C1930 1.317 . S
C1930 H1901 0.930 . S
C1930 C1906 1.431 . S
C1930 C1929 1.317 . S
C1931 Gd1872 2.828 . S
C1931 O1916 1.258 . S
C1931 O1921 1.252 . S
C1931 C1932 1.497 . S
C1932 C1931 1.497 . S
C1932 C1933 1.395 . S
C1932 C1934 1.380 . S
C1933 C1932 1.395 . S
C1933 C1936 1.398 . S
C1933 H1948 0.930 . S
C1934 C1932 1.380 . S
C1934 C1935 1.391 . S
C1934 H1949 0.930 . S
C1935 C1934 1.391 . S
C1935 C1937 1.387 . S
C1936 C1933 1.398 . S
C1936 C1937 1.380 . S
C1936 H1950 0.930 . S
C1937 C1935 1.387 . S
C1937 C1936 1.380 . S
C1937 H1951 0.930 . S
C1938 O1918 1.254 . S
C1938 O1919 1.268 . S
C1939 O1923 1.284 . S
C1939 O1926 1.250 . S
C1940 Gd1873 2.828 . S
C1940 O1922 1.258 . S
C1940 O1927 1.252 . S
C1940 C1941 1.497 . S
C1941 C1940 1.497 . S
C1941 C1942 1.395 . S
C1941 C1943 1.380 . S
C1942 C1941 1.395 . S
C1942 C1945 1.398 . S
C1942 H1952 0.930 . S
C1943 C1941 1.380 . S
C1943 C1944 1.391 . S
C1943 H1953 0.930 . S
C1944 C1943 1.391 . S
C1944 C1946 1.387 . S
C1945 C1942 1.398 . S
C1945 C1946 1.380 . S
C1945 H1954 0.930 . S
C1946 C1944 1.387 . S
C1946 C1945 1.380 . S
C1946 H1955 0.930 . S
C1947 O1924 1.254 . S
C1947 O1925 1.268 . S
H1948 C1933 0.930 . S
H1949 C1934 0.930 . S
H1950 C1936 0.930 . S
H1951 C1937 0.930 . S
H1952 C1942 0.930 . S
H1953 C1943 0.930 . S
H1954 C1945 0.930 . S
H1955 C1946 0.930 . S
Gd1956 N1987 2.661 . S
Gd1956 N1993 2.601 . S
Gd1956 O2000 2.545 . S
Gd1956 O2001 2.606 . S
Gd1956 O2003 2.429 . S
Gd1956 O2004 2.545 . S
Gd1956 O2005 2.412 . S
Gd1956 O2007 2.362 . S
Gd1956 O2008 2.324 . S
Gd1956 C2015 2.828 . S
Gd1957 N1966 2.661 . S
Gd1957 N1970 2.601 . S
Gd1957 O2001 2.362 . S
Gd1957 O2002 2.324 . S
Gd1957 O2006 2.545 . S
Gd1957 O2007 2.606 . S
Gd1957 O2009 2.429 . S
Gd1957 O2010 2.545 . S
Gd1957 O2011 2.412 . S
Gd1957 C2024 2.828 . S
C1958 C1961 1.417 . S
C1958 C1963 1.431 . S
C1958 C1964 1.412 . S
C1959 C1962 1.437 . S
C1959 C1963 1.317 . S
C1959 H1978 0.929 . S
C1960 C1961 1.426 . S
C1960 C1962 1.413 . S
C1960 N1970 1.359 . S
C1961 C1958 1.417 . S
C1961 C1960 1.426 . S
C1961 N1966 1.350 . S
C1962 C1959 1.437 . S
C1962 C1960 1.413 . S
C1962 C1972 1.391 . S
C1963 C1958 1.431 . S
C1963 C1959 1.317 . S
C1963 H1974 0.930 . S
C1964 C1958 1.412 . S
C1964 C1965 1.355 . S
C1964 H1976 0.930 . S
C1965 C1964 1.355 . S
C1965 C1967 1.402 . S
C1965 H1977 0.930 . S
N1966 Gd1957 2.661 . S
N1966 C1961 1.350 . S
N1966 C1967 1.307 . S
C1967 C1965 1.402 . S
C1967 N1966 1.307 . S
C1967 H1968 0.930 . S
H1968 C1967 0.930 . S
C1969 N1970 1.334 . S
C1969 C1971 1.394 . S
C1969 H1973 0.930 . S
N1970 Gd1957 2.601 . S
N1970 C1960 1.359 . S
N1970 C1969 1.334 . S
C1971 C1969 1.394 . S
C1971 C1972 1.359 . S
C1971 H1983 0.930 . S
C1972 C1962 1.391 . S
C1972 C1971 1.359 . S
C1972 H1984 0.929 . S
H1973 C1969 0.930 . S
H1974 C1963 0.930 . S
H1975 C1992 0.930 . S
H1976 C1964 0.930 . S
H1977 C1965 0.930 . S
H1978 C1959 0.929 . S
H1979 C1997 0.930 . S
H1980 C1988 0.930 . S
H1981 C1989 0.930 . S
H1982 C2013 0.929 . S
H1983 C1971 0.930 . S
H1984 C1972 0.929 . S
H1985 C2014 0.930 . S
H1986 C1995 0.930 . S
N1987 Gd1956 2.661 . S
N1987 C1991 1.350 . S
N1987 C1992 1.307 . S
C1988 H1980 0.930 . S
C1988 C1989 1.355 . S
C1988 C1990 1.412 . S
C1989 H1981 0.930 . S
C1989 C1988 1.355 . S
C1989 C1992 1.402 . S
C1990 C1988 1.412 . S
C1990 C1991 1.417 . S
C1990 C2014 1.431 . S
C1991 N1987 1.350 . S
C1991 C1990 1.417 . S
C1991 C1994 1.426 . S
C1992 H1975 0.930 . S
C1992 N1987 1.307 . S
C1992 C1989 1.402 . S
N1993 Gd1956 2.601 . S
N1993 C1994 1.359 . S
N1993 C1997 1.334 . S
C1994 C1991 1.426 . S
C1994 N1993 1.359 . S
C1994 C1998 1.413 . S
C1995 H1986 0.930 . S
C1995 C1996 1.359 . S
C1995 C1997 1.394 . S
C1996 C1995 1.359 . S
C1996 C1998 1.391 . S
C1996 H1999 0.929 . S
C1997 H1979 0.930 . S
C1997 N1993 1.334 . S
C1997 C1995 1.394 . S
C1998 C1994 1.413 . S
C1998 C1996 1.391 . S
C1998 C2013 1.437 . S
H1999 C1996 0.929 . S
O2000 Gd1956 2.545 . S
O2000 C2015 1.258 . S
O2001 Gd1956 2.606 . S
O2001 Gd1957 2.362 . S
O2001 C2012 1.284 . S
O2002 Gd1957 2.324 . S
O2002 C2022 1.254 . S
O2003 Gd1956 2.429 . S
O2003 C2022 1.268 . S
O2004 Gd1956 2.545 . S
O2004 C2012 1.250 . S
O2005 Gd1956 2.412 . S
O2005 C2015 1.252 . S
O2006 Gd1957 2.545 . S
O2006 C2024 1.258 . S
O2007 Gd1956 2.362 . S
O2007 Gd1957 2.606 . S
O2007 C2023 1.284 . S
O2008 Gd1956 2.324 . S
O2008 C2031 1.254 . S
O2009 Gd1957 2.429 . S
O2009 C2031 1.268 . S
O2010 Gd1957 2.545 . S
O2010 C2023 1.250 . S
O2011 Gd1957 2.412 . S
O2011 C2024 1.252 . S
C2012 O2001 1.284 . S
C2012 O2004 1.250 . S
C2013 H1982 0.929 . S
C2013 C1998 1.437 . S
C2013 C2014 1.317 . S
C2014 H1985 0.930 . S
C2014 C1990 1.431 . S
C2014 C2013 1.317 . S
C2015 Gd1956 2.828 . S
C2015 O2000 1.258 . S
C2015 O2005 1.252 . S
C2015 C2016 1.497 . S
C2016 C2015 1.497 . S
C2016 C2017 1.395 . S
C2016 C2018 1.380 . S
C2017 C2016 1.395 . S
C2017 C2020 1.398 . S
C2017 H2032 0.930 . S
C2018 C2016 1.380 . S
C2018 C2019 1.391 . S
C2018 H2033 0.930 . S
C2019 C2018 1.391 . S
C2019 C2021 1.387 . S
C2020 C2017 1.398 . S
C2020 C2021 1.380 . S
C2020 H2034 0.930 . S
C2021 C2019 1.387 . S
C2021 C2020 1.380 . S
C2021 H2035 0.930 . S
C2022 O2002 1.254 . S
C2022 O2003 1.268 . S
C2023 O2007 1.284 . S
C2023 O2010 1.250 . S
C2024 Gd1957 2.828 . S
C2024 O2006 1.258 . S
C2024 O2011 1.252 . S
C2024 C2025 1.497 . S
C2025 C2024 1.497 . S
C2025 C2026 1.395 . S
C2025 C2027 1.380 . S
C2026 C2025 1.395 . S
C2026 C2029 1.398 . S
C2026 H2036 0.930 . S
C2027 C2025 1.380 . S
C2027 C2028 1.391 . S
C2027 H2037 0.930 . S
C2028 C2027 1.391 . S
C2028 C2030 1.387 . S
C2029 C2026 1.398 . S
C2029 C2030 1.380 . S
C2029 H2038 0.930 . S
C2030 C2028 1.387 . S
C2030 C2029 1.380 . S
C2030 H2039 0.930 . S
C2031 O2008 1.254 . S
C2031 O2009 1.268 . S
H2032 C2017 0.930 . S
H2033 C2018 0.930 . S
H2034 C2020 0.930 . S
H2035 C2021 0.930 . S
H2036 C2026 0.930 . S
H2037 C2027 0.930 . S
H2038 C2029 0.930 . S
H2039 C2030 0.930 . S
Gd2040 N2071 2.661 . S
Gd2040 N2077 2.601 . S
Gd2040 O2084 2.545 . S
Gd2040 O2085 2.606 . S
Gd2040 O2087 2.429 . S
Gd2040 O2088 2.545 . S
Gd2040 O2089 2.412 . S
Gd2040 O2091 2.362 . S
Gd2040 O2092 2.324 . S
Gd2040 C2099 2.828 . S
Gd2041 N2050 2.661 . S
Gd2041 N2054 2.601 . S
Gd2041 O2085 2.362 . S
Gd2041 O2086 2.324 . S
Gd2041 O2090 2.545 . S
Gd2041 O2091 2.606 . S
Gd2041 O2093 2.429 . S
Gd2041 O2094 2.545 . S
Gd2041 O2095 2.412 . S
Gd2041 C2108 2.828 . S
C2042 C2045 1.417 . S
C2042 C2047 1.431 . S
C2042 C2048 1.412 . S
C2043 C2046 1.437 . S
C2043 C2047 1.317 . S
C2043 H2062 0.929 . S
C2044 C2045 1.426 . S
C2044 C2046 1.413 . S
C2044 N2054 1.359 . S
C2045 C2042 1.417 . S
C2045 C2044 1.426 . S
C2045 N2050 1.350 . S
C2046 C2043 1.437 . S
C2046 C2044 1.413 . S
C2046 C2056 1.391 . S
C2047 C2042 1.431 . S
C2047 C2043 1.317 . S
C2047 H2058 0.930 . S
C2048 C2042 1.412 . S
C2048 C2049 1.355 . S
C2048 H2060 0.930 . S
C2049 C2048 1.355 . S
C2049 C2051 1.402 . S
C2049 H2061 0.930 . S
N2050 Gd2041 2.661 . S
N2050 C2045 1.350 . S
N2050 C2051 1.307 . S
C2051 C2049 1.402 . S
C2051 N2050 1.307 . S
C2051 H2052 0.930 . S
H2052 C2051 0.930 . S
C2053 N2054 1.334 . S
C2053 C2055 1.394 . S
C2053 H2057 0.930 . S
N2054 Gd2041 2.601 . S
N2054 C2044 1.359 . S
N2054 C2053 1.334 . S
C2055 C2053 1.394 . S
C2055 C2056 1.359 . S
C2055 H2067 0.930 . S
C2056 C2046 1.391 . S
C2056 C2055 1.359 . S
C2056 H2068 0.929 . S
H2057 C2053 0.930 . S
H2058 C2047 0.930 . S
H2059 C2076 0.930 . S
H2060 C2048 0.930 . S
H2061 C2049 0.930 . S
H2062 C2043 0.929 . S
H2063 C2081 0.930 . S
H2064 C2072 0.930 . S
H2065 C2073 0.930 . S
H2066 C2097 0.929 . S
H2067 C2055 0.930 . S
H2068 C2056 0.929 . S
H2069 C2098 0.930 . S
H2070 C2079 0.930 . S
N2071 Gd2040 2.661 . S
N2071 C2075 1.350 . S
N2071 C2076 1.307 . S
C2072 H2064 0.930 . S
C2072 C2073 1.355 . S
C2072 C2074 1.412 . S
C2073 H2065 0.930 . S
C2073 C2072 1.355 . S
C2073 C2076 1.402 . S
C2074 C2072 1.412 . S
C2074 C2075 1.417 . S
C2074 C2098 1.431 . S
C2075 N2071 1.350 . S
C2075 C2074 1.417 . S
C2075 C2078 1.426 . S
C2076 H2059 0.930 . S
C2076 N2071 1.307 . S
C2076 C2073 1.402 . S
N2077 Gd2040 2.601 . S
N2077 C2078 1.359 . S
N2077 C2081 1.334 . S
C2078 C2075 1.426 . S
C2078 N2077 1.359 . S
C2078 C2082 1.413 . S
C2079 H2070 0.930 . S
C2079 C2080 1.359 . S
C2079 C2081 1.394 . S
C2080 C2079 1.359 . S
C2080 C2082 1.391 . S
C2080 H2083 0.929 . S
C2081 H2063 0.930 . S
C2081 N2077 1.334 . S
C2081 C2079 1.394 . S
C2082 C2078 1.413 . S
C2082 C2080 1.391 . S
C2082 C2097 1.437 . S
H2083 C2080 0.929 . S
O2084 Gd2040 2.545 . S
O2084 C2099 1.258 . S
O2085 Gd2040 2.606 . S
O2085 Gd2041 2.362 . S
O2085 C2096 1.284 . S
O2086 Gd2041 2.324 . S
O2086 C2106 1.254 . S
O2087 Gd2040 2.429 . S
O2087 C2106 1.268 . S
O2088 Gd2040 2.545 . S
O2088 C2096 1.250 . S
O2089 Gd2040 2.412 . S
O2089 C2099 1.252 . S
O2090 Gd2041 2.545 . S
O2090 C2108 1.258 . S
O2091 Gd2040 2.362 . S
O2091 Gd2041 2.606 . S
O2091 C2107 1.284 . S
O2092 Gd2040 2.324 . S
O2092 C2115 1.254 . S
O2093 Gd2041 2.429 . S
O2093 C2115 1.268 . S
O2094 Gd2041 2.545 . S
O2094 C2107 1.250 . S
O2095 Gd2041 2.412 . S
O2095 C2108 1.252 . S
C2096 O2085 1.284 . S
C2096 O2088 1.250 . S
C2097 H2066 0.929 . S
C2097 C2082 1.437 . S
C2097 C2098 1.317 . S
C2098 H2069 0.930 . S
C2098 C2074 1.431 . S
C2098 C2097 1.317 . S
C2099 Gd2040 2.828 . S
C2099 O2084 1.258 . S
C2099 O2089 1.252 . S
C2099 C2100 1.497 . S
C2100 C2099 1.497 . S
C2100 C2101 1.395 . S
C2100 C2102 1.380 . S
C2101 C2100 1.395 . S
C2101 C2104 1.398 . S
C2101 H2116 0.930 . S
C2102 C2100 1.380 . S
C2102 C2103 1.391 . S
C2102 H2117 0.930 . S
C2103 C2102 1.391 . S
C2103 C2105 1.387 . S
C2104 C2101 1.398 . S
C2104 C2105 1.380 . S
C2104 H2118 0.930 . S
C2105 C2103 1.387 . S
C2105 C2104 1.380 . S
C2105 H2119 0.930 . S
C2106 O2086 1.254 . S
C2106 O2087 1.268 . S
C2107 O2091 1.284 . S
C2107 O2094 1.250 . S
C2108 Gd2041 2.828 . S
C2108 O2090 1.258 . S
C2108 O2095 1.252 . S
C2108 C2109 1.497 . S
C2109 C2108 1.497 . S
C2109 C2110 1.395 . S
C2109 C2111 1.380 . S
C2110 C2109 1.395 . S
C2110 C2113 1.398 . S
C2110 H2120 0.930 . S
C2111 C2109 1.380 . S
C2111 C2112 1.391 . S
C2111 H2121 0.930 . S
C2112 C2111 1.391 . S
C2112 C2114 1.387 . S
C2113 C2110 1.398 . S
C2113 C2114 1.380 . S
C2113 H2122 0.930 . S
C2114 C2112 1.387 . S
C2114 C2113 1.380 . S
C2114 H2123 0.930 . S
C2115 O2092 1.254 . S
C2115 O2093 1.268 . S
H2116 C2101 0.930 . S
H2117 C2102 0.930 . S
H2118 C2104 0.930 . S
H2119 C2105 0.930 . S
H2120 C2110 0.930 . S
H2121 C2111 0.930 . S
H2122 C2113 0.930 . S
H2123 C2114 0.930 . S
Gd2124 N2155 2.661 . S
Gd2124 N2161 2.601 . S
Gd2124 O2168 2.545 . S
Gd2124 O2169 2.606 . S
Gd2124 O2171 2.429 . S
Gd2124 O2172 2.545 . S
Gd2124 O2173 2.412 1_455 S
Gd2124 O2175 2.362 . S
Gd2124 O2176 2.324 1_554 S
Gd2124 C2183 2.828 1_455 S
Gd2125 N2134 2.661 . S
Gd2125 N2138 2.601 1_554 S
Gd2125 O2169 2.362 . S
Gd2125 O2170 2.324 . S
Gd2125 O2174 2.545 1_554 S
Gd2125 O2175 2.606 . S
Gd2125 O2177 2.429 1_554 S
Gd2125 O2178 2.545 1_554 S
Gd2125 O2179 2.412 . S
Gd2125 C2192 2.828 1_554 S
C2126 C2129 1.417 . S
C2126 C2131 1.431 . S
C2126 C2132 1.412 . S
C2127 C2130 1.437 . S
C2127 C2131 1.317 1_556 S
C2127 H2146 0.929 . S
C2128 C2129 1.426 1_556 S
C2128 C2130 1.413 . S
C2128 N2138 1.359 . S
C2129 C2126 1.417 . S
C2129 C2128 1.426 1_554 S
C2129 N2134 1.350 . S
C2130 C2127 1.437 . S
C2130 C2128 1.413 . S
C2130 C2140 1.391 . S
C2131 C2126 1.431 . S
C2131 C2127 1.317 1_554 S
C2131 H2142 0.930 . S
C2132 C2126 1.412 . S
C2132 C2133 1.355 . S
C2132 H2144 0.930 . S
C2133 C2132 1.355 . S
C2133 C2135 1.402 . S
C2133 H2145 0.930 . S
N2134 Gd2125 2.661 . S
N2134 C2129 1.350 . S
N2134 C2135 1.307 . S
C2135 C2133 1.402 . S
C2135 N2134 1.307 . S
C2135 H2136 0.930 . S
H2136 C2135 0.930 . S
C2137 N2138 1.334 . S
C2137 C2139 1.394 . S
C2137 H2141 0.930 . S
N2138 Gd2125 2.601 1_556 S
N2138 C2128 1.359 . S
N2138 C2137 1.334 . S
C2139 C2137 1.394 . S
C2139 C2140 1.359 . S
C2139 H2151 0.930 . S
C2140 C2130 1.391 . S
C2140 C2139 1.359 . S
C2140 H2152 0.929 . S
H2141 C2137 0.930 . S
H2142 C2131 0.930 . S
H2143 C2160 0.917 1_455 S
H2144 C2132 0.930 . S
H2145 C2133 0.930 . S
H2146 C2127 0.929 . S
H2147 C2165 0.930 . S
H2148 C2156 0.930 . S
H2149 C2157 0.930 . S
H2150 C2181 0.929 . S
H2151 C2139 0.930 . S
H2152 C2140 0.929 . S
H2153 C2182 0.930 . S
H2154 C2163 0.930 . S
N2155 Gd2124 2.661 . S
N2155 C2159 1.350 1_455 S
N2155 C2160 1.306 1_454 S
C2156 H2148 0.930 . S
C2156 C2157 1.355 . S
C2156 C2158 1.412 1_556 S
C2157 H2149 0.930 . S
C2157 C2156 1.355 . S
C2157 C2160 1.416 . S
C2158 C2156 1.412 1_554 S
C2158 C2159 1.417 . S
C2158 C2182 1.431 . S
C2159 N2155 1.350 1_655 S
C2159 C2158 1.417 . S
C2159 C2162 1.426 . S
C2160 H2143 0.917 1_655 S
C2160 N2155 1.306 1_656 S
C2160 C2157 1.416 . S
N2161 Gd2124 2.601 . S
N2161 C2162 1.359 1_455 S
N2161 C2165 1.334 . S
C2162 C2159 1.426 . S
C2162 N2161 1.359 1_655 S
C2162 C2166 1.413 . S
C2163 H2154 0.930 . S
C2163 C2164 1.359 1_455 S
C2163 C2165 1.394 . S
C2164 C2163 1.359 1_655 S
C2164 C2166 1.391 . S
C2164 H2167 0.929 . S
C2165 H2147 0.930 . S
C2165 N2161 1.334 . S
C2165 C2163 1.394 . S
C2166 C2162 1.413 . S
C2166 C2164 1.391 . S
C2166 C2181 1.437 . S
H2167 C2164 0.929 . S
O2168 Gd2124 2.545 . S
O2168 C2183 1.258 1_455 S
O2169 Gd2124 2.606 . S
O2169 Gd2125 2.362 . S
O2169 C2180 1.284 . S
O2170 Gd2125 2.324 . S
O2170 C2190 1.254 . S
O2171 Gd2124 2.429 . S
O2171 C2190 1.268 . S
O2172 Gd2124 2.545 . S
O2172 C2180 1.250 . S
O2173 Gd2124 2.412 1_655 S
O2173 C2183 1.252 . S
O2174 Gd2125 2.545 1_556 S
O2174 C2192 1.258 . S
O2175 Gd2124 2.362 . S
O2175 Gd2125 2.606 . S
O2175 C2191 1.284 . S
O2176 Gd2124 2.324 1_556 S
O2176 C2199 1.254 . S
O2177 Gd2125 2.429 1_556 S
O2177 C2199 1.268 . S
O2178 Gd2125 2.545 1_556 S
O2178 C2191 1.250 1_556 S
O2179 Gd2125 2.412 . S
O2179 C2192 1.252 1_554 S
C2180 O2169 1.284 . S
C2180 O2172 1.250 . S
C2181 H2150 0.929 . S
C2181 C2166 1.437 . S
C2181 C2182 1.317 . S
C2182 H2153 0.930 . S
C2182 C2158 1.431 . S
C2182 C2181 1.317 . S
C2183 Gd2124 2.828 1_655 S
C2183 O2168 1.258 1_655 S
C2183 O2173 1.252 . S
C2183 C2184 1.497 . S
C2184 C2183 1.497 . S
C2184 C2185 1.395 . S
C2184 C2186 1.380 . S
C2185 C2184 1.395 . S
C2185 C2188 1.398 . S
C2185 H2200 0.930 . S
C2186 C2184 1.380 . S
C2186 C2187 1.391 . S
C2186 H2201 0.930 . S
C2187 C2186 1.391 . S
C2187 C2189 1.387 . S
C2188 C2185 1.398 . S
C2188 C2189 1.380 . S
C2188 H2202 0.930 . S
C2189 C2187 1.387 . S
C2189 C2188 1.380 . S
C2189 H2203 0.930 . S
C2190 O2170 1.254 . S
C2190 O2171 1.268 . S
C2191 O2175 1.284 . S
C2191 O2178 1.250 1_554 S
C2192 Gd2125 2.828 1_556 S
C2192 O2174 1.258 . S
C2192 O2179 1.252 1_556 S
C2192 C2193 1.497 . S
C2193 C2192 1.497 . S
C2193 C2194 1.395 . S
C2193 C2195 1.380 1_556 S
C2194 C2193 1.395 . S
C2194 C2197 1.398 . S
C2194 H2204 0.930 . S
C2195 C2193 1.380 1_554 S
C2195 C2196 1.391 1_554 S
C2195 H2205 0.930 . S
C2196 C2195 1.391 1_556 S
C2196 C2198 1.387 . S
C2197 C2194 1.398 . S
C2197 C2198 1.380 . S
C2197 H2206 0.930 . S
C2198 C2196 1.387 . S
C2198 C2197 1.380 . S
C2198 H2207 0.930 . S
C2199 O2176 1.254 . S
C2199 O2177 1.268 . S
H2200 C2185 0.930 . S
H2201 C2186 0.930 . S
H2202 C2188 0.930 . S
H2203 C2189 0.930 . S
H2204 C2194 0.930 . S
H2205 C2195 0.930 . S
H2206 C2197 0.930 . S
H2207 C2198 0.930 . S
H2208 C2216 0.950 . S
H2209 C2221 0.950 . S
H2210 C2218 0.950 . S
H2211 C2220 0.950 1_554 S
H2212 C2222 0.950 . S
H2213 C2224 0.950 . S
H2214 C2226 0.950 . S
H2215 C2227 0.950 . S
C2216 H2208 0.950 . S
C2216 C2217 1.386 . S
C2216 C2218 1.391 . S
C2217 C2216 1.386 . S
C2217 C2221 1.393 . S
C2218 H2210 0.950 . S
C2218 C2216 1.391 . S
C2218 C2219 1.400 . S
C2219 C2218 1.400 . S
C2219 C2220 1.398 . S
C2219 C2225 1.491 . S
C2220 H2211 0.950 1_556 S
C2220 C2219 1.398 . S
C2220 C2221 1.391 . S
C2221 H2209 0.950 . S
C2221 C2217 1.393 . S
C2221 C2220 1.391 . S
C2222 H2212 0.950 . S
C2222 C2223 1.386 . S
C2222 C2224 1.391 . S
C2223 C2222 1.386 . S
C2223 C2227 1.393 1_554 S
C2224 H2213 0.950 . S
C2224 C2222 1.391 . S
C2224 C2225 1.400 1_554 S
C2225 C2219 1.491 . S
C2225 C2224 1.400 1_556 S
C2225 C2226 1.398 . S
C2226 H2214 0.950 . S
C2226 C2225 1.398 . S
C2226 C2227 1.391 . S
C2227 H2215 0.950 . S
C2227 C2223 1.393 1_556 S
C2227 C2226 1.391 . S
H2228 C2236 0.950 . S
H2229 C2241 0.950 . S
H2230 C2238 0.950 . S
H2231 C2240 0.950 . S
H2232 C2242 0.950 . S
H2233 C2244 0.950 . S
H2234 C2246 0.950 . S
H2235 C2247 0.950 . S
C2236 H2228 0.950 . S
C2236 C2237 1.386 . S
C2236 C2238 1.391 . S
C2237 C2236 1.386 . S
C2237 C2241 1.393 . S
C2238 H2230 0.950 . S
C2238 C2236 1.391 . S
C2238 C2239 1.400 . S
C2239 C2238 1.400 . S
C2239 C2240 1.398 . S
C2239 C2245 1.491 . S
C2240 H2231 0.950 . S
C2240 C2239 1.398 . S
C2240 C2241 1.391 . S
C2241 H2229 0.950 . S
C2241 C2237 1.393 . S
C2241 C2240 1.391 . S
C2242 H2232 0.950 . S
C2242 C2243 1.386 . S
C2242 C2244 1.391 . S
C2243 C2242 1.386 . S
C2243 C2247 1.393 . S
C2244 H2233 0.950 . S
C2244 C2242 1.391 . S
C2244 C2245 1.400 . S
C2245 C2239 1.491 . S
C2245 C2244 1.400 . S
C2245 C2246 1.398 . S
C2246 H2234 0.950 . S
C2246 C2245 1.398 . S
C2246 C2247 1.391 . S
C2247 H2235 0.950 . S
C2247 C2243 1.393 . S
C2247 C2246 1.391 . S
H2248 C2256 0.950 . S
H2249 C2261 0.950 . S
H2250 C2258 0.950 . S
H2251 C2260 0.950 . S
H2252 C2262 0.950 . S
H2253 C2264 0.950 . S
H2254 C2266 0.950 . S
H2255 C2267 0.950 . S
C2256 H2248 0.950 . S
C2256 C2257 1.386 . S
C2256 C2258 1.391 . S
C2257 C2256 1.386 . S
C2257 C2261 1.393 . S
C2258 H2250 0.950 . S
C2258 C2256 1.391 . S
C2258 C2259 1.400 . S
C2259 C2258 1.400 . S
C2259 C2260 1.398 . S
C2259 C2265 1.491 . S
C2260 H2251 0.950 . S
C2260 C2259 1.398 . S
C2260 C2261 1.391 . S
C2261 H2249 0.950 . S
C2261 C2257 1.393 . S
C2261 C2260 1.391 . S
C2262 H2252 0.950 . S
C2262 C2263 1.386 . S
C2262 C2264 1.391 . S
C2263 C2262 1.386 . S
C2263 C2267 1.393 . S
C2264 H2253 0.950 . S
C2264 C2262 1.391 . S
C2264 C2265 1.400 . S
C2265 C2259 1.491 . S
C2265 C2264 1.400 . S
C2265 C2266 1.398 . S
C2266 H2254 0.950 . S
C2266 C2265 1.398 . S
C2266 C2267 1.391 . S
C2267 H2255 0.950 . S
C2267 C2263 1.393 . S
C2267 C2266 1.391 . S
H2268 C2276 0.950 . S
H2269 C2281 0.950 . S
H2270 C2278 0.950 . S
H2271 C2280 0.950 . S
H2272 C2282 0.950 . S
H2273 C2284 0.950 . S
H2274 C2286 0.950 . S
H2275 C2287 0.950 . S
C2276 H2268 0.950 . S
C2276 C2277 1.386 . S
C2276 C2278 1.391 . S
C2277 C2276 1.386 . S
C2277 C2281 1.393 . S
C2278 H2270 0.950 . S
C2278 C2276 1.391 . S
C2278 C2279 1.400 . S
C2279 C2278 1.400 . S
C2279 C2280 1.398 . S
C2279 C2285 1.491 . S
C2280 H2271 0.950 . S
C2280 C2279 1.398 . S
C2280 C2281 1.391 . S
C2281 H2269 0.950 . S
C2281 C2277 1.393 . S
C2281 C2280 1.391 . S
C2282 H2272 0.950 . S
C2282 C2283 1.386 . S
C2282 C2284 1.391 . S
C2283 C2282 1.386 . S
C2283 C2287 1.393 . S
C2284 H2273 0.950 . S
C2284 C2282 1.391 . S
C2284 C2285 1.400 . S
C2285 C2279 1.491 . S
C2285 C2284 1.400 . S
C2285 C2286 1.398 . S
C2286 H2274 0.950 . S
C2286 C2285 1.398 . S
C2286 C2287 1.391 . S
C2287 H2275 0.950 . S
C2287 C2283 1.393 . S
C2287 C2286 1.391 . S
H2288 C2296 0.950 . S
H2289 C2301 0.950 . S
H2290 C2298 0.950 . S
H2291 C2300 0.936 1_655 S
H2292 C2302 0.950 . S
H2293 C2304 0.950 1_655 S
H2294 C2306 0.950 . S
H2295 C2307 0.950 . S
C2296 H2288 0.950 . S
C2296 C2297 1.386 . S
C2296 C2298 1.391 . S
C2297 C2296 1.386 . S
C2297 C2301 1.393 1_455 S
C2298 H2290 0.950 . S
C2298 C2296 1.391 . S
C2298 C2299 1.400 . S
C2299 C2298 1.400 . S
C2299 C2300 1.415 . S
C2299 C2305 1.491 . S
C2300 H2291 0.936 1_455 S
C2300 C2299 1.415 . S
C2300 C2301 1.387 1_455 S
C2301 H2289 0.950 . S
C2301 C2297 1.393 1_655 S
C2301 C2300 1.387 1_655 S
C2302 H2292 0.950 . S
C2302 C2303 1.386 . S
C2302 C2304 1.391 . S
C2303 C2302 1.386 . S
C2303 C2307 1.393 . S
C2304 H2293 0.950 1_455 S
C2304 C2302 1.391 . S
C2304 C2305 1.400 . S
C2305 C2299 1.491 . S
C2305 C2304 1.400 . S
C2305 C2306 1.398 . S
C2306 H2294 0.950 . S
C2306 C2305 1.398 . S
C2306 C2307 1.391 . S
C2307 H2295 0.950 . S
C2307 C2303 1.393 . S
C2307 C2306 1.391 . S
H2308 C2316 0.950 . S
H2309 C2321 0.950 . S
H2310 C2318 0.950 . S
H2311 C2320 0.950 . S
H2312 C2322 0.950 . S
H2313 C2324 0.950 . S
H2314 C2326 0.950 . S
H2315 C2327 0.950 . S
C2316 H2308 0.950 . S
C2316 C2317 1.386 . S
C2316 C2318 1.391 . S
C2317 C2316 1.386 . S
C2317 C2321 1.393 . S
C2318 H2310 0.950 . S
C2318 C2316 1.391 . S
C2318 C2319 1.400 . S
C2319 C2318 1.400 . S
C2319 C2320 1.398 . S
C2319 C2325 1.491 . S
C2320 H2311 0.950 . S
C2320 C2319 1.398 . S
C2320 C2321 1.391 . S
C2321 H2309 0.950 . S
C2321 C2317 1.393 . S
C2321 C2320 1.391 . S
C2322 H2312 0.950 . S
C2322 C2323 1.386 . S
C2322 C2324 1.391 . S
C2323 C2322 1.386 . S
C2323 C2327 1.393 . S
C2324 H2313 0.950 . S
C2324 C2322 1.391 . S
C2324 C2325 1.400 . S
C2325 C2319 1.491 . S
C2325 C2324 1.400 . S
C2325 C2326 1.398 . S
C2326 H2314 0.950 . S
C2326 C2325 1.398 . S
C2326 C2327 1.391 . S
C2327 H2315 0.950 . S
C2327 C2323 1.393 . S
C2327 C2326 1.391 . S
H2328 C2336 0.950 . S
H2329 C2341 0.950 . S
H2330 C2338 0.950 . S
H2331 C2340 0.950 . S
H2332 C2342 0.950 . S
H2333 C2344 0.950 . S
H2334 C2346 0.950 . S
H2335 C2347 0.950 . S
C2336 H2328 0.950 . S
C2336 C2337 1.386 . S
C2336 C2338 1.391 . S
C2337 C2336 1.386 . S
C2337 C2341 1.393 . S
C2338 H2330 0.950 . S
C2338 C2336 1.391 . S
C2338 C2339 1.400 . S
C2339 C2338 1.400 . S
C2339 C2340 1.398 . S
C2339 C2345 1.491 . S
C2340 H2331 0.950 . S
C2340 C2339 1.398 . S
C2340 C2341 1.391 . S
C2341 H2329 0.950 . S
C2341 C2337 1.393 . S
C2341 C2340 1.391 . S
C2342 H2332 0.950 . S
C2342 C2343 1.386 . S
C2342 C2344 1.391 . S
C2343 C2342 1.386 . S
C2343 C2347 1.393 . S
C2344 H2333 0.950 . S
C2344 C2342 1.391 . S
C2344 C2345 1.400 . S
C2345 C2339 1.491 . S
C2345 C2344 1.400 . S
C2345 C2346 1.398 . S
C2346 H2334 0.950 . S
C2346 C2345 1.398 . S
C2346 C2347 1.391 . S
C2347 H2335 0.950 . S
C2347 C2343 1.393 . S
C2347 C2346 1.391 . S
H2348 C2356 0.950 . S
H2349 C2361 0.950 . S
H2350 C2358 0.950 . S
H2351 C2360 0.950 . S
H2352 C2362 0.950 . S
H2353 C2364 0.950 . S
H2354 C2366 0.950 . S
H2355 C2367 0.950 . S
C2356 H2348 0.950 . S
C2356 C2357 1.386 . S
C2356 C2358 1.391 . S
C2357 C2356 1.386 . S
C2357 C2361 1.393 . S
C2358 H2350 0.950 . S
C2358 C2356 1.391 . S
C2358 C2359 1.400 . S
C2359 C2358 1.400 . S
C2359 C2360 1.398 . S
C2359 C2365 1.491 . S
C2360 H2351 0.950 . S
C2360 C2359 1.398 . S
C2360 C2361 1.391 . S
C2361 H2349 0.950 . S
C2361 C2357 1.393 . S
C2361 C2360 1.391 . S
C2362 H2352 0.950 . S
C2362 C2363 1.386 . S
C2362 C2364 1.391 . S
C2363 C2362 1.386 . S
C2363 C2367 1.393 . S
C2364 H2353 0.950 . S
C2364 C2362 1.391 . S
C2364 C2365 1.400 . S
C2365 C2359 1.491 . S
C2365 C2364 1.400 . S
C2365 C2366 1.398 . S
C2366 H2354 0.950 . S
C2366 C2365 1.398 . S
C2366 C2367 1.391 . S
C2367 H2355 0.950 . S
C2367 C2363 1.393 . S
C2367 C2366 1.391 . S
H2368 C2376 0.950 1_455 S
H2369 C2381 0.950 . S
H2370 C2378 0.950 . S
H2371 C2380 0.950 . S
H2372 C2382 0.950 . S
H2373 C2384 0.950 1_655 S
H2374 C2386 0.950 . S
H2375 C2387 0.950 . S
C2376 H2368 0.950 1_655 S
C2376 C2377 1.386 . S
C2376 C2378 1.391 1_655 S
C2377 C2376 1.386 . S
C2377 C2381 1.393 . S
C2378 H2370 0.950 . S
C2378 C2376 1.391 1_455 S
C2378 C2379 1.397 1_455 S
C2379 C2378 1.397 1_655 S
C2379 C2380 1.417 . S
C2379 C2385 1.477 1_655 S
C2380 H2371 0.950 . S
C2380 C2379 1.417 . S
C2380 C2381 1.391 . S
C2381 H2369 0.950 . S
C2381 C2377 1.393 . S
C2381 C2380 1.391 . S
C2382 H2372 0.950 . S
C2382 C2383 1.386 . S
C2382 C2384 1.391 . S
C2383 C2382 1.386 . S
C2383 C2387 1.393 . S
C2384 H2373 0.950 1_455 S
C2384 C2382 1.391 . S
C2384 C2385 1.400 . S
C2385 C2379 1.477 1_455 S
C2385 C2384 1.400 . S
C2385 C2386 1.398 . S
C2386 H2374 0.950 . S
C2386 C2385 1.398 . S
C2386 C2387 1.391 . S
C2387 H2375 0.950 . S
C2387 C2383 1.393 . S
C2387 C2386 1.391 . S
H2388 C2396 0.950 . S
H2389 C2401 0.950 . S
H2390 C2398 0.950 . S
H2391 C2400 0.950 . S
H2392 C2402 0.950 . S
H2393 C2404 0.950 . S
H2394 C2406 0.950 . S
H2395 C2407 0.950 . S
C2396 H2388 0.950 . S
C2396 C2397 1.386 . S
C2396 C2398 1.391 . S
C2397 C2396 1.386 . S
C2397 C2401 1.393 . S
C2398 H2390 0.950 . S
C2398 C2396 1.391 . S
C2398 C2399 1.400 . S
C2399 C2398 1.400 . S
C2399 C2400 1.398 . S
C2399 C2405 1.491 . S
C2400 H2391 0.950 . S
C2400 C2399 1.398 . S
C2400 C2401 1.391 . S
C2401 H2389 0.950 . S
C2401 C2397 1.393 . S
C2401 C2400 1.391 . S
C2402 H2392 0.950 . S
C2402 C2403 1.386 . S
C2402 C2404 1.391 . S
C2403 C2402 1.386 . S
C2403 C2407 1.393 . S
C2404 H2393 0.950 . S
C2404 C2402 1.391 . S
C2404 C2405 1.400 . S
C2405 C2399 1.491 . S
C2405 C2404 1.400 . S
C2405 C2406 1.398 . S
C2406 H2394 0.950 . S
C2406 C2405 1.398 . S
C2406 C2407 1.391 . S
C2407 H2395 0.950 . S
C2407 C2403 1.393 . S
C2407 C2406 1.391 . S
H2408 C2416 0.950 . S
H2409 C2421 0.950 . S
H2410 C2418 0.950 . S
H2411 C2420 0.950 . S
H2412 C2422 0.961 . S
H2413 C2424 0.950 . S
H2414 C2426 0.950 . S
H2415 C2427 0.950 . S
C2416 H2408 0.950 . S
C2416 C2417 1.386 . S
C2416 C2418 1.391 . S
C2417 C2416 1.386 . S
C2417 C2421 1.393 . S
C2418 H2410 0.950 . S
C2418 C2416 1.391 . S
C2418 C2419 1.400 . S
C2419 C2418 1.400 . S
C2419 C2420 1.398 . S
C2419 C2425 1.491 . S
C2420 H2411 0.950 . S
C2420 C2419 1.398 . S
C2420 C2421 1.391 . S
C2421 H2409 0.950 . S
C2421 C2417 1.393 . S
C2421 C2420 1.391 . S
C2422 H2412 0.961 . S
C2422 C2423 1.386 . S
C2422 C2424 1.391 . S
C2423 C2422 1.386 . S
C2423 C2427 1.393 . S
C2424 H2413 0.950 . S
C2424 C2422 1.391 . S
C2424 C2425 1.400 . S
C2425 C2419 1.491 . S
C2425 C2424 1.400 . S
C2425 C2426 1.398 . S
C2426 H2414 0.950 . S
C2426 C2425 1.398 . S
C2426 C2427 1.391 . S
C2427 H2415 0.950 . S
C2427 C2423 1.393 . S
C2427 C2426 1.391 . S
H2428 C2436 0.950 . S
H2429 C2441 0.950 . S
H2430 C2438 0.950 . S
H2431 C2440 0.950 . S
H2432 C2442 0.950 . S
H2433 C2444 0.950 . S
H2434 C2446 0.950 . S
H2435 C2447 0.950 . S
C2436 H2428 0.950 . S
C2436 C2437 1.386 . S
C2436 C2438 1.391 . S
C2437 C2436 1.386 . S
C2437 C2441 1.393 . S
C2438 H2430 0.950 . S
C2438 C2436 1.391 . S
C2438 C2439 1.400 . S
C2439 C2438 1.400 . S
C2439 C2440 1.398 . S
C2439 C2445 1.491 . S
C2440 H2431 0.950 . S
C2440 C2439 1.398 . S
C2440 C2441 1.391 . S
C2441 H2429 0.950 . S
C2441 C2437 1.393 . S
C2441 C2440 1.391 . S
C2442 H2432 0.950 . S
C2442 C2443 1.386 . S
C2442 C2444 1.391 . S
C2443 C2442 1.386 . S
C2443 C2447 1.393 . S
C2444 H2433 0.950 . S
C2444 C2442 1.391 . S
C2444 C2445 1.400 . S
C2445 C2439 1.491 . S
C2445 C2444 1.400 . S
C2445 C2446 1.398 . S
C2446 H2434 0.950 . S
C2446 C2445 1.398 . S
C2446 C2447 1.391 . S
C2447 H2435 0.950 . S
C2447 C2443 1.393 . S
C2447 C2446 1.391 . S
H2448 C2456 0.950 . S
H2449 C2461 0.950 . S
H2450 C2458 0.950 . S
H2451 C2460 0.950 . S
H2452 C2462 0.950 . S
H2453 C2464 0.950 . S
H2454 C2466 0.950 1_655 S
H2455 C2467 0.950 . S
C2456 H2448 0.950 . S
C2456 C2457 1.386 . S
C2456 C2458 1.391 . S
C2457 C2456 1.386 . S
C2457 C2461 1.393 1_655 S
C2458 H2450 0.950 . S
C2458 C2456 1.391 . S
C2458 C2459 1.400 1_655 S
C2459 C2458 1.400 1_455 S
C2459 C2460 1.398 . S
C2459 C2465 1.491 . S
C2460 H2451 0.950 . S
C2460 C2459 1.398 . S
C2460 C2461 1.391 . S
C2461 H2449 0.950 . S
C2461 C2457 1.393 1_455 S
C2461 C2460 1.391 . S
C2462 H2452 0.950 . S
C2462 C2463 1.386 . S
C2462 C2464 1.391 . S
C2463 C2462 1.386 . S
C2463 C2467 1.393 . S
C2464 H2453 0.950 . S
C2464 C2462 1.391 . S
C2464 C2465 1.400 . S
C2465 C2459 1.491 . S
C2465 C2464 1.400 . S
C2465 C2466 1.398 . S
C2466 H2454 0.950 1_455 S
C2466 C2465 1.398 . S
C2466 C2467 1.391 . S
C2467 H2455 0.950 . S
C2467 C2463 1.393 . S
C2467 C2466 1.391 . S
H2468 C2476 0.950 . S
H2469 C2481 0.950 . S
H2470 C2478 0.950 . S
H2471 C2480 0.950 . S
H2472 C2482 0.950 . S
H2473 C2484 0.950 . S
H2474 C2486 0.950 . S
H2475 C2487 0.950 . S
C2476 H2468 0.950 . S
C2476 C2477 1.386 . S
C2476 C2478 1.391 . S
C2477 C2476 1.386 . S
C2477 C2481 1.393 . S
C2478 H2470 0.950 . S
C2478 C2476 1.391 . S
C2478 C2479 1.400 . S
C2479 C2478 1.400 . S
C2479 C2480 1.398 . S
C2479 C2485 1.491 . S
C2480 H2471 0.950 . S
C2480 C2479 1.398 . S
C2480 C2481 1.391 . S
C2481 H2469 0.950 . S
C2481 C2477 1.393 . S
C2481 C2480 1.391 . S
C2482 H2472 0.950 . S
C2482 C2483 1.386 . S
C2482 C2484 1.391 . S
C2483 C2482 1.386 . S
C2483 C2487 1.393 . S
C2484 H2473 0.950 . S
C2484 C2482 1.391 . S
C2484 C2485 1.400 . S
C2485 C2479 1.491 . S
C2485 C2484 1.400 . S
C2485 C2486 1.398 . S
C2486 H2474 0.950 . S
C2486 C2485 1.398 . S
C2486 C2487 1.391 . S
C2487 H2475 0.950 . S
C2487 C2483 1.393 . S
C2487 C2486 1.391 . S
H2488 C2496 0.950 . S
H2489 C2501 0.950 . S
H2490 C2498 0.950 . S
H2491 C2500 0.950 . S
H2492 C2502 0.950 . S
H2493 C2504 0.950 . S
H2494 C2506 0.950 . S
H2495 C2507 0.950 . S
C2496 H2488 0.950 . S
C2496 C2497 1.386 . S
C2496 C2498 1.391 . S
C2497 C2496 1.386 . S
C2497 C2501 1.393 . S
C2498 H2490 0.950 . S
C2498 C2496 1.391 . S
C2498 C2499 1.400 . S
C2499 C2498 1.400 . S
C2499 C2500 1.398 . S
C2499 C2505 1.491 . S
C2500 H2491 0.950 . S
C2500 C2499 1.398 . S
C2500 C2501 1.391 . S
C2501 H2489 0.950 . S
C2501 C2497 1.393 . S
C2501 C2500 1.391 . S
C2502 H2492 0.950 . S
C2502 C2503 1.386 . S
C2502 C2504 1.391 . S
C2503 C2502 1.386 . S
C2503 C2507 1.393 . S
C2504 H2493 0.950 . S
C2504 C2502 1.391 . S
C2504 C2505 1.400 . S
C2505 C2499 1.491 . S
C2505 C2504 1.400 . S
C2505 C2506 1.398 . S
C2506 H2494 0.950 . S
C2506 C2505 1.398 . S
C2506 C2507 1.391 . S
C2507 H2495 0.950 . S
C2507 C2503 1.393 . S
C2507 C2506 1.391 . S
H2508 C2516 0.950 . S
H2509 C2521 0.950 . S
H2510 C2518 0.950 . S
H2511 C2520 0.950 . S
H2512 C2522 0.950 . S
H2513 C2524 0.950 . S
H2514 C2526 0.950 . S
H2515 C2527 0.950 . S
C2516 H2508 0.950 . S
C2516 C2517 1.386 . S
C2516 C2518 1.391 . S
C2517 C2516 1.386 . S
C2517 C2521 1.393 . S
C2518 H2510 0.950 . S
C2518 C2516 1.391 . S
C2518 C2519 1.400 . S
C2519 C2518 1.400 . S
C2519 C2520 1.398 . S
C2519 C2525 1.491 . S
C2520 H2511 0.950 . S
C2520 C2519 1.398 . S
C2520 C2521 1.391 . S
C2521 H2509 0.950 . S
C2521 C2517 1.393 . S
C2521 C2520 1.391 . S
C2522 H2512 0.950 . S
C2522 C2523 1.386 . S
C2522 C2524 1.391 . S
C2523 C2522 1.386 . S
C2523 C2527 1.393 . S
C2524 H2513 0.950 . S
C2524 C2522 1.391 . S
C2524 C2525 1.400 . S
C2525 C2519 1.491 . S
C2525 C2524 1.400 . S
C2525 C2526 1.398 . S
C2526 H2514 0.950 . S
C2526 C2525 1.398 . S
C2526 C2527 1.391 . S
C2527 H2515 0.950 . S
C2527 C2523 1.393 . S
C2527 C2526 1.391 . S
H2528 C2536 0.950 . S
H2529 C2541 0.950 . S
H2530 C2538 0.950 . S
H2531 C2540 0.950 1_545 S
H2532 C2542 0.950 . S
H2533 C2544 0.950 . S
H2534 C2546 0.950 . S
H2535 C2547 0.950 . S
C2536 H2528 0.950 . S
C2536 C2537 1.386 . S
C2536 C2538 1.391 . S
C2537 C2536 1.386 . S
C2537 C2541 1.393 . S
C2538 H2530 0.950 . S
C2538 C2536 1.391 . S
C2538 C2539 1.400 . S
C2539 C2538 1.400 . S
C2539 C2540 1.398 . S
C2539 C2545 1.491 . S
C2540 H2531 0.950 1_565 S
C2540 C2539 1.398 . S
C2540 C2541 1.391 . S
C2541 H2529 0.950 . S
C2541 C2537 1.393 . S
C2541 C2540 1.391 . S
C2542 H2532 0.950 . S
C2542 C2543 1.386 . S
C2542 C2544 1.391 . S
C2543 C2542 1.386 . S
C2543 C2547 1.393 1_545 S
C2544 H2533 0.950 . S
C2544 C2542 1.391 . S
C2544 C2545 1.400 1_545 S
C2545 C2539 1.491 . S
C2545 C2544 1.400 1_565 S
C2545 C2546 1.398 . S
C2546 H2534 0.950 . S
C2546 C2545 1.398 . S
C2546 C2547 1.391 . S
C2547 H2535 0.950 . S
C2547 C2543 1.393 1_565 S
C2547 C2546 1.391 . S
H2548 C2556 0.950 . S
H2549 C2561 0.950 . S
H2550 C2558 0.950 . S
H2551 C2560 0.950 . S
H2552 C2562 0.950 . S
H2553 C2564 0.950 . S
H2554 C2566 0.950 . S
H2555 C2567 0.950 . S
C2556 H2548 0.950 . S
C2556 C2557 1.386 1_554 S
C2556 C2558 1.391 . S
C2557 C2556 1.386 1_556 S
C2557 C2561 1.393 . S
C2558 H2550 0.950 . S
C2558 C2556 1.391 . S
C2558 C2559 1.400 1_554 S
C2559 C2558 1.400 1_556 S
C2559 C2560 1.398 . S
C2559 C2565 1.491 . S
C2560 H2551 0.950 . S
C2560 C2559 1.398 . S
C2560 C2561 1.391 . S
C2561 H2549 0.950 . S
C2561 C2557 1.393 . S
C2561 C2560 1.391 . S
C2562 H2552 0.950 . S
C2562 C2563 1.386 . S
C2562 C2564 1.391 . S
C2563 C2562 1.386 . S
C2563 C2567 1.393 1_556 S
C2564 H2553 0.950 . S
C2564 C2562 1.391 . S
C2564 C2565 1.400 . S
C2565 C2559 1.491 . S
C2565 C2564 1.400 . S
C2565 C2566 1.398 1_556 S
C2566 H2554 0.950 . S
C2566 C2565 1.398 1_554 S
C2566 C2567 1.391 . S
C2567 H2555 0.950 . S
C2567 C2563 1.393 1_554 S
C2567 C2566 1.391 . S
H2568 C2576 0.950 . S
H2569 C2581 0.950 . S
H2570 C2578 0.950 . S
H2571 C2580 0.950 . S
H2572 C2582 0.950 . S
H2573 C2584 0.950 . S
H2574 C2586 0.950 . S
H2575 C2587 0.950 . S
C2576 H2568 0.950 . S
C2576 C2577 1.386 . S
C2576 C2578 1.391 . S
C2577 C2576 1.386 . S
C2577 C2581 1.393 . S
C2578 H2570 0.950 . S
C2578 C2576 1.391 . S
C2578 C2579 1.400 . S
C2579 C2578 1.400 . S
C2579 C2580 1.398 . S
C2579 C2585 1.491 . S
C2580 H2571 0.950 . S
C2580 C2579 1.398 . S
C2580 C2581 1.391 . S
C2581 H2569 0.950 . S
C2581 C2577 1.393 . S
C2581 C2580 1.391 . S
C2582 H2572 0.950 . S
C2582 C2583 1.386 . S
C2582 C2584 1.391 . S
C2583 C2582 1.386 . S
C2583 C2587 1.393 . S
C2584 H2573 0.950 . S
C2584 C2582 1.391 . S
C2584 C2585 1.400 . S
C2585 C2579 1.491 . S
C2585 C2584 1.400 . S
C2585 C2586 1.398 . S
C2586 H2574 0.950 . S
C2586 C2585 1.398 . S
C2586 C2587 1.391 . S
C2587 H2575 0.950 . S
C2587 C2583 1.393 . S
C2587 C2586 1.391 . S
H2588 C2596 0.950 . S
H2589 C2601 0.950 . S
H2590 C2598 0.950 . S
H2591 C2600 0.950 . S
H2592 C2602 0.950 1_455 S
H2593 C2604 0.950 . S
H2594 C2606 0.950 . S
H2595 C2607 0.950 . S
C2596 H2588 0.950 . S
C2596 C2597 1.386 . S
C2596 C2598 1.391 . S
C2597 C2596 1.386 . S
C2597 C2601 1.393 . S
C2598 H2590 0.950 . S
C2598 C2596 1.391 . S
C2598 C2599 1.400 . S
C2599 C2598 1.400 . S
C2599 C2600 1.398 . S
C2599 C2605 1.491 . S
C2600 H2591 0.950 . S
C2600 C2599 1.398 . S
C2600 C2601 1.391 . S
C2601 H2589 0.950 . S
C2601 C2597 1.393 . S
C2601 C2600 1.391 . S
C2602 H2592 0.950 1_655 S
C2602 C2603 1.386 1_655 S
C2602 C2604 1.391 . S
C2603 C2602 1.386 1_455 S
C2603 C2607 1.393 . S
C2604 H2593 0.950 . S
C2604 C2602 1.391 . S
C2604 C2605 1.400 . S
C2605 C2599 1.491 . S
C2605 C2604 1.400 . S
C2605 C2606 1.398 . S
C2606 H2594 0.950 . S
C2606 C2605 1.398 . S
C2606 C2607 1.391 1_655 S
C2607 H2595 0.950 . S
C2607 C2603 1.393 . S
C2607 C2606 1.391 1_455 S
H2608 C2616 0.950 . S
H2609 C2621 0.950 . S
H2610 C2618 0.950 . S
H2611 C2620 0.950 . S
H2612 C2622 0.950 . S
H2613 C2624 0.950 . S
H2614 C2626 0.950 . S
H2615 C2627 0.950 . S
C2616 H2608 0.950 . S
C2616 C2617 1.386 . S
C2616 C2618 1.391 . S
C2617 C2616 1.386 . S
C2617 C2621 1.393 . S
C2618 H2610 0.950 . S
C2618 C2616 1.391 . S
C2618 C2619 1.400 . S
C2619 C2618 1.400 . S
C2619 C2620 1.398 . S
C2619 C2625 1.491 . S
C2620 H2611 0.950 . S
C2620 C2619 1.398 . S
C2620 C2621 1.391 . S
C2621 H2609 0.950 . S
C2621 C2617 1.393 . S
C2621 C2620 1.391 . S
C2622 H2612 0.950 . S
C2622 C2623 1.386 . S
C2622 C2624 1.391 . S
C2623 C2622 1.386 . S
C2623 C2627 1.393 . S
C2624 H2613 0.950 . S
C2624 C2622 1.391 . S
C2624 C2625 1.400 . S
C2625 C2619 1.491 . S
C2625 C2624 1.400 . S
C2625 C2626 1.398 . S
C2626 H2614 0.950 . S
C2626 C2625 1.398 . S
C2626 C2627 1.391 . S
C2627 H2615 0.950 . S
C2627 C2623 1.393 . S
C2627 C2626 1.391 . S
H2628 C2636 0.950 . S
H2629 C2641 0.950 . S
H2630 C2638 0.950 . S
H2631 C2640 0.950 . S
H2632 C2642 0.950 . S
H2633 C2644 0.950 . S
H2634 C2646 0.950 . S
H2635 C2647 0.950 . S
C2636 H2628 0.950 . S
C2636 C2637 1.386 . S
C2636 C2638 1.391 . S
C2637 C2636 1.386 . S
C2637 C2641 1.393 . S
C2638 H2630 0.950 . S
C2638 C2636 1.391 . S
C2638 C2639 1.400 . S
C2639 C2638 1.400 . S
C2639 C2640 1.398 . S
C2639 C2645 1.491 . S
C2640 H2631 0.950 . S
C2640 C2639 1.398 . S
C2640 C2641 1.391 . S
C2641 H2629 0.950 . S
C2641 C2637 1.393 . S
C2641 C2640 1.391 . S
C2642 H2632 0.950 . S
C2642 C2643 1.386 . S
C2642 C2644 1.391 . S
C2643 C2642 1.386 . S
C2643 C2647 1.393 . S
C2644 H2633 0.950 . S
C2644 C2642 1.391 . S
C2644 C2645 1.400 . S
C2645 C2639 1.491 . S
C2645 C2644 1.400 . S
C2645 C2646 1.398 . S
C2646 H2634 0.950 . S
C2646 C2645 1.398 . S
C2646 C2647 1.391 . S
C2647 H2635 0.950 . S
C2647 C2643 1.393 . S
C2647 C2646 1.391 . S
H2648 C2656 0.950 . S
H2649 C2661 0.950 . S
H2650 C2658 0.950 . S
H2651 C2660 0.950 . S
H2652 C2662 0.950 . S
H2653 C2664 0.950 . S
H2654 C2666 0.950 . S
H2655 C2667 0.950 . S
C2656 H2648 0.950 . S
C2656 C2657 1.386 . S
C2656 C2658 1.391 . S
C2657 C2656 1.386 . S
C2657 C2661 1.393 . S
C2658 H2650 0.950 . S
C2658 C2656 1.391 . S
C2658 C2659 1.400 . S
C2659 C2658 1.400 . S
C2659 C2660 1.398 . S
C2659 C2665 1.491 . S
C2660 H2651 0.950 . S
C2660 C2659 1.398 . S
C2660 C2661 1.391 . S
C2661 H2649 0.950 . S
C2661 C2657 1.393 . S
C2661 C2660 1.391 . S
C2662 H2652 0.950 . S
C2662 C2663 1.386 . S
C2662 C2664 1.391 . S
C2663 C2662 1.386 . S
C2663 C2667 1.393 . S
C2664 H2653 0.950 . S
C2664 C2662 1.391 . S
C2664 C2665 1.400 . S
C2665 C2659 1.491 . S
C2665 C2664 1.400 . S
C2665 C2666 1.398 . S
C2666 H2654 0.950 . S
C2666 C2665 1.398 . S
C2666 C2667 1.391 . S
C2667 H2655 0.950 . S
C2667 C2663 1.393 . S
C2667 C2666 1.391 . S
H2668 C2676 0.950 . S
H2669 C2681 0.950 . S
H2670 C2678 0.950 . S
H2671 C2680 0.950 . S
H2672 C2682 0.950 . S
H2673 C2684 0.950 . S
H2674 C2686 0.950 . S
H2675 C2687 0.950 . S
C2676 H2668 0.950 . S
C2676 C2677 1.386 . S
C2676 C2678 1.391 . S
C2677 C2676 1.386 . S
C2677 C2681 1.393 . S
C2678 H2670 0.950 . S
C2678 C2676 1.391 . S
C2678 C2679 1.400 . S
C2679 C2678 1.400 . S
C2679 C2680 1.398 . S
C2679 C2685 1.491 . S
C2680 H2671 0.950 . S
C2680 C2679 1.398 . S
C2680 C2681 1.391 . S
C2681 H2669 0.950 . S
C2681 C2677 1.393 . S
C2681 C2680 1.391 . S
C2682 H2672 0.950 . S
C2682 C2683 1.386 . S
C2682 C2684 1.391 . S
C2683 C2682 1.386 . S
C2683 C2687 1.393 . S
C2684 H2673 0.950 . S
C2684 C2682 1.391 . S
C2684 C2685 1.400 . S
C2685 C2679 1.491 . S
C2685 C2684 1.400 . S
C2685 C2686 1.398 . S
C2686 H2674 0.950 . S
C2686 C2685 1.398 . S
C2686 C2687 1.391 . S
C2687 H2675 0.950 . S
C2687 C2683 1.393 . S
C2687 C2686 1.391 . S
H2688 C2696 0.950 . S
H2689 C2701 0.950 . S
H2690 C2698 0.950 . S
H2691 C2700 0.950 . S
H2692 C2702 0.950 . S
H2693 C2704 0.950 . S
H2694 C2706 0.950 . S
H2695 C2707 0.950 . S
C2696 H2688 0.950 . S
C2696 C2697 1.386 . S
C2696 C2698 1.391 . S
C2697 C2696 1.386 . S
C2697 C2701 1.393 . S
C2698 H2690 0.950 . S
C2698 C2696 1.391 . S
C2698 C2699 1.400 . S
C2699 C2698 1.400 . S
C2699 C2700 1.398 . S
C2699 C2705 1.491 . S
C2700 H2691 0.950 . S
C2700 C2699 1.398 . S
C2700 C2701 1.391 . S
C2701 H2689 0.950 . S
C2701 C2697 1.393 . S
C2701 C2700 1.391 . S
C2702 H2692 0.950 . S
C2702 C2703 1.386 . S
C2702 C2704 1.391 . S
C2703 C2702 1.386 . S
C2703 C2707 1.393 . S
C2704 H2693 0.950 . S
C2704 C2702 1.391 . S
C2704 C2705 1.400 . S
C2705 C2699 1.491 . S
C2705 C2704 1.400 . S
C2705 C2706 1.398 . S
C2706 H2694 0.950 . S
C2706 C2705 1.398 . S
C2706 C2707 1.391 . S
C2707 H2695 0.950 . S
C2707 C2703 1.393 . S
C2707 C2706 1.391 . S
H2708 C2716 0.950 . S
H2709 C2721 0.950 . S
H2710 C2718 0.950 . S
H2711 C2720 0.950 . S
H2712 C2722 0.950 . S
H2713 C2724 0.950 . S
H2714 C2726 0.950 . S
H2715 C2727 0.950 . S
C2716 H2708 0.950 . S
C2716 C2717 1.386 . S
C2716 C2718 1.391 . S
C2717 C2716 1.386 . S
C2717 C2721 1.393 . S
C2718 H2710 0.950 . S
C2718 C2716 1.391 . S
C2718 C2719 1.400 . S
C2719 C2718 1.400 . S
C2719 C2720 1.398 . S
C2719 C2725 1.491 . S
C2720 H2711 0.950 . S
C2720 C2719 1.398 . S
C2720 C2721 1.391 . S
C2721 H2709 0.950 . S
C2721 C2717 1.393 . S
C2721 C2720 1.391 . S
C2722 H2712 0.950 . S
C2722 C2723 1.386 . S
C2722 C2724 1.391 . S
C2723 C2722 1.386 . S
C2723 C2727 1.393 . S
C2724 H2713 0.950 . S
C2724 C2722 1.391 . S
C2724 C2725 1.400 . S
C2725 C2719 1.491 . S
C2725 C2724 1.400 . S
C2725 C2726 1.398 . S
C2726 H2714 0.950 . S
C2726 C2725 1.398 . S
C2726 C2727 1.391 . S
C2727 H2715 0.950 . S
C2727 C2723 1.393 . S
C2727 C2726 1.391 . S
H2728 C2736 0.950 . S
H2729 C2741 0.950 . S
H2730 C2738 0.950 . S
H2731 C2740 0.950 . S
H2732 C2742 0.950 . S
H2733 C2744 0.950 . S
H2734 C2746 0.950 . S
H2735 C2747 0.950 . S
C2736 H2728 0.950 . S
C2736 C2737 1.386 . S
C2736 C2738 1.391 . S
C2737 C2736 1.386 . S
C2737 C2741 1.393 . S
C2738 H2730 0.950 . S
C2738 C2736 1.391 . S
C2738 C2739 1.400 . S
C2739 C2738 1.400 . S
C2739 C2740 1.398 . S
C2739 C2745 1.491 . S
C2740 H2731 0.950 . S
C2740 C2739 1.398 . S
C2740 C2741 1.391 . S
C2741 H2729 0.950 . S
C2741 C2737 1.393 . S
C2741 C2740 1.391 . S
C2742 H2732 0.950 . S
C2742 C2743 1.386 . S
C2742 C2744 1.391 . S
C2743 C2742 1.386 . S
C2743 C2747 1.393 . S
C2744 H2733 0.950 . S
C2744 C2742 1.391 . S
C2744 C2745 1.400 . S
C2745 C2739 1.491 . S
C2745 C2744 1.400 . S
C2745 C2746 1.398 . S
C2746 H2734 0.950 . S
C2746 C2745 1.398 . S
C2746 C2747 1.391 . S
C2747 H2735 0.950 . S
C2747 C2743 1.393 . S
C2747 C2746 1.391 . S
H2748 C2756 0.950 . S
H2749 C2761 0.950 . S
H2750 C2758 0.950 . S
H2751 C2760 0.950 . S
H2752 C2762 0.950 . S
H2753 C2764 0.950 . S
H2754 C2766 0.950 . S
H2755 C2767 0.950 . S
C2756 H2748 0.950 . S
C2756 C2757 1.386 . S
C2756 C2758 1.391 . S
C2757 C2756 1.386 . S
C2757 C2761 1.393 . S
C2758 H2750 0.950 . S
C2758 C2756 1.391 . S
C2758 C2759 1.400 . S
C2759 C2758 1.400 . S
C2759 C2760 1.398 . S
C2759 C2765 1.491 . S
C2760 H2751 0.950 . S
C2760 C2759 1.398 . S
C2760 C2761 1.391 . S
C2761 H2749 0.950 . S
C2761 C2757 1.393 . S
C2761 C2760 1.391 . S
C2762 H2752 0.950 . S
C2762 C2763 1.386 . S
C2762 C2764 1.391 . S
C2763 C2762 1.386 . S
C2763 C2767 1.393 . S
C2764 H2753 0.950 . S
C2764 C2762 1.391 . S
C2764 C2765 1.400 . S
C2765 C2759 1.491 . S
C2765 C2764 1.400 . S
C2765 C2766 1.398 . S
C2766 H2754 0.950 . S
C2766 C2765 1.398 . S
C2766 C2767 1.391 . S
C2767 H2755 0.950 . S
C2767 C2763 1.393 . S
C2767 C2766 1.391 . S
H2768 C2776 0.950 . S
H2769 C2781 0.950 . S
H2770 C2778 0.950 . S
H2771 C2780 0.950 . S
H2772 C2782 0.950 . S
H2773 C2784 0.950 . S
H2774 C2786 0.950 . S
H2775 C2787 0.950 . S
C2776 H2768 0.950 . S
C2776 C2777 1.386 . S
C2776 C2778 1.391 . S
C2777 C2776 1.386 . S
C2777 C2781 1.393 . S
C2778 H2770 0.950 . S
C2778 C2776 1.391 . S
C2778 C2779 1.400 . S
C2779 C2778 1.400 . S
C2779 C2780 1.398 . S
C2779 C2785 1.491 . S
C2780 H2771 0.950 . S
C2780 C2779 1.398 . S
C2780 C2781 1.391 . S
C2781 H2769 0.950 . S
C2781 C2777 1.393 . S
C2781 C2780 1.391 . S
C2782 H2772 0.950 . S
C2782 C2783 1.386 . S
C2782 C2784 1.391 . S
C2783 C2782 1.386 . S
C2783 C2787 1.393 . S
C2784 H2773 0.950 . S
C2784 C2782 1.391 . S
C2784 C2785 1.400 . S
C2785 C2779 1.491 . S
C2785 C2784 1.400 . S
C2785 C2786 1.398 . S
C2786 H2774 0.950 . S
C2786 C2785 1.398 . S
C2786 C2787 1.391 . S
C2787 H2775 0.950 . S
C2787 C2783 1.393 . S
C2787 C2786 1.391 . S
H2788 C2796 0.950 . S
H2789 C2801 0.950 . S
H2790 C2798 0.950 . S
H2791 C2800 0.950 . S
H2792 C2802 0.950 . S
H2793 C2804 0.950 . S
H2794 C2806 0.950 . S
H2795 C2807 0.950 . S
C2796 H2788 0.950 . S
C2796 C2797 1.386 . S
C2796 C2798 1.391 . S
C2797 C2796 1.386 . S
C2797 C2801 1.393 . S
C2798 H2790 0.950 . S
C2798 C2796 1.391 . S
C2798 C2799 1.400 . S
C2799 C2798 1.400 . S
C2799 C2800 1.398 . S
C2799 C2805 1.491 . S
C2800 H2791 0.950 . S
C2800 C2799 1.398 . S
C2800 C2801 1.391 . S
C2801 H2789 0.950 . S
C2801 C2797 1.393 . S
C2801 C2800 1.391 . S
C2802 H2792 0.950 . S
C2802 C2803 1.386 . S
C2802 C2804 1.391 . S
C2803 C2802 1.386 . S
C2803 C2807 1.393 . S
C2804 H2793 0.950 . S
C2804 C2802 1.391 . S
C2804 C2805 1.400 . S
C2805 C2799 1.491 . S
C2805 C2804 1.400 . S
C2805 C2806 1.398 . S
C2806 H2794 0.950 . S
C2806 C2805 1.398 . S
C2806 C2807 1.391 . S
C2807 H2795 0.950 . S
C2807 C2803 1.393 . S
C2807 C2806 1.391 . S
H2808 C2816 0.950 . S
H2809 C2821 0.950 . S
H2810 C2818 0.950 . S
H2811 C2820 0.950 . S
H2812 C2822 0.950 1_554 S
H2813 C2824 0.950 . S
H2814 C2826 0.950 . S
H2815 C2827 0.944 1_545 S
C2816 H2808 0.950 . S
C2816 C2817 1.386 . S
C2816 C2818 1.391 . S
C2817 C2816 1.386 . S
C2817 C2821 1.393 . S
C2818 H2810 0.950 . S
C2818 C2816 1.391 . S
C2818 C2819 1.400 . S
C2819 C2818 1.400 . S
C2819 C2820 1.398 . S
C2819 C2825 1.491 . S
C2820 H2811 0.950 . S
C2820 C2819 1.398 . S
C2820 C2821 1.391 . S
C2821 H2809 0.950 . S
C2821 C2817 1.393 . S
C2821 C2820 1.391 . S
C2822 H2812 0.950 1_556 S
C2822 C2823 1.386 . S
C2822 C2824 1.391 . S
C2823 C2822 1.386 . S
C2823 C2827 1.393 . S
C2824 H2813 0.950 . S
C2824 C2822 1.391 . S
C2824 C2825 1.400 . S
C2825 C2819 1.491 . S
C2825 C2824 1.400 . S
C2825 C2826 1.398 . S
C2826 H2814 0.950 . S
C2826 C2825 1.398 . S
C2826 C2827 1.391 . S
C2827 H2815 0.944 1_565 S
C2827 C2823 1.393 . S
C2827 C2826 1.391 . S
H2828 C2836 0.950 . S
H2829 C2841 0.950 . S
H2830 C2838 0.950 . S
H2831 C2840 0.950 . S
H2832 C2842 0.950 . S
H2833 C2844 0.950 . S
H2834 C2846 0.950 . S
H2835 C2847 0.950 . S
C2836 H2828 0.950 . S
C2836 C2837 1.386 . S
C2836 C2838 1.391 . S
C2837 C2836 1.386 . S
C2837 C2841 1.393 . S
C2838 H2830 0.950 . S
C2838 C2836 1.391 . S
C2838 C2839 1.400 . S
C2839 C2838 1.400 . S
C2839 C2840 1.398 . S
C2839 C2845 1.491 . S
C2840 H2831 0.950 . S
C2840 C2839 1.398 . S
C2840 C2841 1.391 . S
C2841 H2829 0.950 . S
C2841 C2837 1.393 . S
C2841 C2840 1.391 . S
C2842 H2832 0.950 . S
C2842 C2843 1.386 . S
C2842 C2844 1.391 . S
C2843 C2842 1.386 . S
C2843 C2847 1.393 . S
C2844 H2833 0.950 . S
C2844 C2842 1.391 . S
C2844 C2845 1.400 . S
C2845 C2839 1.491 . S
C2845 C2844 1.400 . S
C2845 C2846 1.398 . S
C2846 H2834 0.950 . S
C2846 C2845 1.398 . S
C2846 C2847 1.391 . S
C2847 H2835 0.950 . S
C2847 C2843 1.393 . S
C2847 C2846 1.391 . S
H2848 C2856 0.950 . S
H2849 C2861 0.950 . S
H2850 C2858 0.950 . S
H2851 C2860 0.950 . S
H2852 C2862 0.950 . S
H2853 C2864 0.950 . S
H2854 C2866 0.950 . S
H2855 C2867 0.950 . S
C2856 H2848 0.950 . S
C2856 C2857 1.386 . S
C2856 C2858 1.391 . S
C2857 C2856 1.386 . S
C2857 C2861 1.393 1_545 S
C2858 H2850 0.950 . S
C2858 C2856 1.391 . S
C2858 C2859 1.400 . S
C2859 C2858 1.400 . S
C2859 C2860 1.398 1_545 S
C2859 C2865 1.491 . S
C2860 H2851 0.950 . S
C2860 C2859 1.398 1_565 S
C2860 C2861 1.391 . S
C2861 H2849 0.950 . S
C2861 C2857 1.393 1_565 S
C2861 C2860 1.391 . S
C2862 H2852 0.950 . S
C2862 C2863 1.386 1_565 S
C2862 C2864 1.391 . S
C2863 C2862 1.386 1_545 S
C2863 C2867 1.393 . S
C2864 H2853 0.950 . S
C2864 C2862 1.391 . S
C2864 C2865 1.400 1_565 S
C2865 C2859 1.491 . S
C2865 C2864 1.400 1_545 S
C2865 C2866 1.398 . S
C2866 H2854 0.950 . S
C2866 C2865 1.398 . S
C2866 C2867 1.391 . S
C2867 H2855 0.950 . S
C2867 C2863 1.393 . S
C2867 C2866 1.391 . S
H2868 C2876 0.950 . S
H2869 C2881 0.950 . S
H2870 C2878 0.950 . S
H2871 C2880 0.950 . S
H2872 C2882 0.950 . S
H2873 C2884 0.950 . S
H2874 C2886 0.950 . S
H2875 C2887 0.950 . S
C2876 H2868 0.950 . S
C2876 C2877 1.386 . S
C2876 C2878 1.391 . S
C2877 C2876 1.386 . S
C2877 C2881 1.393 . S
C2878 H2870 0.950 . S
C2878 C2876 1.391 . S
C2878 C2879 1.400 . S
C2879 C2878 1.400 . S
C2879 C2880 1.398 . S
C2879 C2885 1.491 . S
C2880 H2871 0.950 . S
C2880 C2879 1.398 . S
C2880 C2881 1.391 . S
C2881 H2869 0.950 . S
C2881 C2877 1.393 . S
C2881 C2880 1.391 . S
C2882 H2872 0.950 . S
C2882 C2883 1.386 . S
C2882 C2884 1.391 . S
C2883 C2882 1.386 . S
C2883 C2887 1.393 . S
C2884 H2873 0.950 . S
C2884 C2882 1.391 . S
C2884 C2885 1.400 . S
C2885 C2879 1.491 . S
C2885 C2884 1.400 . S
C2885 C2886 1.398 . S
C2886 H2874 0.950 . S
C2886 C2885 1.398 . S
C2886 C2887 1.391 . S
C2887 H2875 0.950 . S
C2887 C2883 1.393 . S
C2887 C2886 1.391 . S
H2888 C2896 0.953 . S
H2889 C2901 0.950 . S
H2890 C2898 0.950 . S
H2891 C2900 0.950 . S
H2892 C2902 0.950 . S
H2893 C2904 0.950 . S
H2894 C2906 0.950 . S
H2895 C2907 0.950 . S
C2896 H2888 0.953 . S
C2896 C2897 1.386 . S
C2896 C2898 1.391 . S
C2897 C2896 1.386 . S
C2897 C2901 1.393 . S
C2898 H2890 0.950 . S
C2898 C2896 1.391 . S
C2898 C2899 1.400 . S
C2899 C2898 1.400 . S
C2899 C2900 1.398 . S
C2899 C2905 1.491 . S
C2900 H2891 0.950 . S
C2900 C2899 1.398 . S
C2900 C2901 1.391 . S
C2901 H2889 0.950 . S
C2901 C2897 1.393 . S
C2901 C2900 1.391 . S
C2902 H2892 0.950 . S
C2902 C2903 1.386 . S
C2902 C2904 1.391 . S
C2903 C2902 1.386 . S
C2903 C2907 1.393 . S
C2904 H2893 0.950 . S
C2904 C2902 1.391 . S
C2904 C2905 1.400 . S
C2905 C2899 1.491 . S
C2905 C2904 1.400 . S
C2905 C2906 1.398 . S
C2906 H2894 0.950 . S
C2906 C2905 1.398 . S
C2906 C2907 1.391 . S
C2907 H2895 0.950 . S
C2907 C2903 1.393 . S
C2907 C2906 1.391 . S
H2908 C2916 0.950 . S
H2909 C2921 0.950 . S
H2910 C2918 0.950 . S
H2911 C2920 0.950 . S
H2912 C2922 0.950 . S
H2913 C2924 0.950 . S
H2914 C2926 0.950 . S
H2915 C2927 0.950 . S
C2916 H2908 0.950 . S
C2916 C2917 1.386 . S
C2916 C2918 1.391 . S
C2917 C2916 1.386 . S
C2917 C2921 1.393 . S
C2918 H2910 0.950 . S
C2918 C2916 1.391 . S
C2918 C2919 1.400 . S
C2919 C2918 1.400 . S
C2919 C2920 1.398 . S
C2919 C2925 1.491 . S
C2920 H2911 0.950 . S
C2920 C2919 1.398 . S
C2920 C2921 1.391 . S
C2921 H2909 0.950 . S
C2921 C2917 1.393 . S
C2921 C2920 1.391 . S
C2922 H2912 0.950 . S
C2922 C2923 1.386 . S
C2922 C2924 1.391 . S
C2923 C2922 1.386 . S
C2923 C2927 1.393 . S
C2924 H2913 0.950 . S
C2924 C2922 1.391 . S
C2924 C2925 1.400 . S
C2925 C2919 1.491 . S
C2925 C2924 1.400 . S
C2925 C2926 1.398 . S
C2926 H2914 0.950 . S
C2926 C2925 1.398 . S
C2926 C2927 1.391 . S
C2927 H2915 0.950 . S
C2927 C2923 1.393 . S
C2927 C2926 1.391 . S
H2928 C2936 0.950 . S
H2929 C2941 0.950 . S
H2930 C2938 0.950 . S
H2931 C2940 0.950 . S
H2932 C2942 0.950 . S
H2933 C2944 0.950 . S
H2934 C2946 0.950 . S
H2935 C2947 0.950 . S
C2936 H2928 0.950 . S
C2936 C2937 1.386 . S
C2936 C2938 1.391 . S
C2937 C2936 1.386 . S
C2937 C2941 1.393 1_565 S
C2938 H2930 0.950 . S
C2938 C2936 1.391 . S
C2938 C2939 1.400 1_565 S
C2939 C2938 1.400 1_545 S
C2939 C2940 1.398 . S
C2939 C2945 1.491 . S
C2940 H2931 0.950 . S
C2940 C2939 1.398 . S
C2940 C2941 1.391 . S
C2941 H2929 0.950 . S
C2941 C2937 1.393 1_545 S
C2941 C2940 1.391 . S
C2942 H2932 0.950 . S
C2942 C2943 1.386 . S
C2942 C2944 1.391 . S
C2943 C2942 1.386 . S
C2943 C2947 1.393 . S
C2944 H2933 0.950 . S
C2944 C2942 1.391 . S
C2944 C2945 1.400 . S
C2945 C2939 1.491 . S
C2945 C2944 1.400 . S
C2945 C2946 1.398 . S
C2946 H2934 0.950 . S
C2946 C2945 1.398 . S
C2946 C2947 1.391 . S
C2947 H2935 0.950 . S
C2947 C2943 1.393 . S
C2947 C2946 1.391 . S
H2948 C2956 0.950 . S
H2949 C2961 0.950 . S
H2950 C2958 0.950 . S
H2951 C2960 0.950 . S
H2952 C2962 0.950 . S
H2953 C2964 0.950 . S
H2954 C2966 0.950 . S
H2955 C2967 0.950 . S
C2956 H2948 0.950 . S
C2956 C2957 1.386 . S
C2956 C2958 1.391 . S
C2957 C2956 1.386 . S
C2957 C2961 1.393 . S
C2958 H2950 0.950 . S
C2958 C2956 1.391 . S
C2958 C2959 1.400 . S
C2959 C2958 1.400 . S
C2959 C2960 1.398 . S
C2959 C2965 1.491 . S
C2960 H2951 0.950 . S
C2960 C2959 1.398 . S
C2960 C2961 1.391 . S
C2961 H2949 0.950 . S
C2961 C2957 1.393 . S
C2961 C2960 1.391 . S
C2962 H2952 0.950 . S
C2962 C2963 1.386 . S
C2962 C2964 1.391 . S
C2963 C2962 1.386 . S
C2963 C2967 1.393 . S
C2964 H2953 0.950 . S
C2964 C2962 1.391 . S
C2964 C2965 1.400 . S
C2965 C2959 1.491 . S
C2965 C2964 1.400 . S
C2965 C2966 1.398 . S
C2966 H2954 0.950 . S
C2966 C2965 1.398 . S
C2966 C2967 1.391 . S
C2967 H2955 0.950 . S
C2967 C2963 1.393 . S
C2967 C2966 1.391 . S
H2968 C2976 0.950 . S
H2969 C2981 0.950 . S
H2970 C2978 0.950 . S
H2971 C2980 0.950 . S
H2972 C2982 0.950 . S
H2973 C2984 0.950 . S
H2974 C2986 0.950 . S
H2975 C2987 0.950 . S
C2976 H2968 0.950 . S
C2976 C2977 1.386 . S
C2976 C2978 1.391 . S
C2977 C2976 1.386 . S
C2977 C2981 1.393 . S
C2978 H2970 0.950 . S
C2978 C2976 1.391 . S
C2978 C2979 1.400 . S
C2979 C2978 1.400 . S
C2979 C2980 1.398 . S
C2979 C2985 1.491 . S
C2980 H2971 0.950 . S
C2980 C2979 1.398 . S
C2980 C2981 1.391 . S
C2981 H2969 0.950 . S
C2981 C2977 1.393 . S
C2981 C2980 1.391 . S
C2982 H2972 0.950 . S
C2982 C2983 1.386 . S
C2982 C2984 1.391 . S
C2983 C2982 1.386 . S
C2983 C2987 1.393 . S
C2984 H2973 0.950 . S
C2984 C2982 1.391 . S
C2984 C2985 1.400 . S
C2985 C2979 1.491 . S
C2985 C2984 1.400 . S
C2985 C2986 1.398 . S
C2986 H2974 0.950 . S
C2986 C2985 1.398 . S
C2986 C2987 1.391 . S
C2987 H2975 0.950 . S
C2987 C2983 1.393 . S
C2987 C2986 1.391 . S
H2988 C2996 0.950 . S
H2989 C3001 0.950 . S
H2990 C2998 0.950 . S
H2991 C3000 0.950 . S
H2992 C3002 0.950 . S
H2993 C3004 0.950 . S
H2994 C3006 0.950 . S
H2995 C3007 0.950 . S
C2996 H2988 0.950 . S
C2996 C2997 1.386 . S
C2996 C2998 1.391 . S
C2997 C2996 1.386 . S
C2997 C3001 1.393 . S
C2998 H2990 0.950 . S
C2998 C2996 1.391 . S
C2998 C2999 1.400 . S
C2999 C2998 1.400 . S
C2999 C3000 1.398 . S
C2999 C3005 1.491 . S
C3000 H2991 0.950 . S
C3000 C2999 1.398 . S
C3000 C3001 1.391 . S
C3001 H2989 0.950 . S
C3001 C2997 1.393 . S
C3001 C3000 1.391 . S
C3002 H2992 0.950 . S
C3002 C3003 1.386 . S
C3002 C3004 1.391 . S
C3003 C3002 1.386 . S
C3003 C3007 1.393 . S
C3004 H2993 0.950 . S
C3004 C3002 1.391 . S
C3004 C3005 1.400 . S
C3005 C2999 1.491 . S
C3005 C3004 1.400 . S
C3005 C3006 1.398 . S
C3006 H2994 0.950 . S
C3006 C3005 1.398 . S
C3006 C3007 1.391 . S
C3007 H2995 0.950 . S
C3007 C3003 1.393 . S
C3007 C3006 1.391 . S
H3008 C3016 0.950 1_556 S
H3009 C3021 0.950 . S
H3010 C3018 0.950 . S
H3011 C3020 0.950 . S
H3012 C3022 0.950 . S
H3013 C3024 0.950 . S
H3014 C3026 0.950 . S
H3015 C3027 0.950 . S
C3016 H3008 0.950 1_554 S
C3016 C3017 1.386 . S
C3016 C3018 1.391 1_554 S
C3017 C3016 1.386 . S
C3017 C3021 1.393 . S
C3018 H3010 0.950 . S
C3018 C3016 1.391 1_556 S
C3018 C3019 1.400 1_556 S
C3019 C3018 1.400 1_554 S
C3019 C3020 1.398 . S
C3019 C3025 1.491 . S
C3020 H3011 0.950 . S
C3020 C3019 1.398 . S
C3020 C3021 1.391 . S
C3021 H3009 0.950 . S
C3021 C3017 1.393 . S
C3021 C3020 1.391 . S
C3022 H3012 0.950 . S
C3022 C3023 1.386 . S
C3022 C3024 1.391 . S
C3023 C3022 1.386 . S
C3023 C3027 1.393 1_554 S
C3024 H3013 0.950 . S
C3024 C3022 1.391 . S
C3024 C3025 1.400 . S
C3025 C3019 1.491 . S
C3025 C3024 1.400 . S
C3025 C3026 1.398 1_554 S
C3026 H3014 0.950 . S
C3026 C3025 1.398 1_556 S
C3026 C3027 1.391 . S
C3027 H3015 0.950 . S
C3027 C3023 1.393 1_556 S
C3027 C3026 1.391 . S
H3028 C3036 0.950 . S
H3029 C3041 0.950 . S
H3030 C3038 0.950 . S
H3031 C3040 0.950 . S
H3032 C3042 0.950 . S
H3033 C3044 0.950 . S
H3034 C3046 0.950 . S
H3035 C3047 0.950 . S
C3036 H3028 0.950 . S
C3036 C3037 1.386 . S
C3036 C3038 1.391 . S
C3037 C3036 1.386 . S
C3037 C3041 1.393 . S
C3038 H3030 0.950 . S
C3038 C3036 1.391 . S
C3038 C3039 1.400 . S
C3039 C3038 1.400 . S
C3039 C3040 1.398 . S
C3039 C3045 1.491 . S
C3040 H3031 0.950 . S
C3040 C3039 1.398 . S
C3040 C3041 1.391 . S
C3041 H3029 0.950 . S
C3041 C3037 1.393 . S
C3041 C3040 1.391 . S
C3042 H3032 0.950 . S
C3042 C3043 1.386 . S
C3042 C3044 1.391 . S
C3043 C3042 1.386 . S
C3043 C3047 1.393 . S
C3044 H3033 0.950 . S
C3044 C3042 1.391 . S
C3044 C3045 1.400 . S
C3045 C3039 1.491 . S
C3045 C3044 1.400 . S
C3045 C3046 1.398 . S
C3046 H3034 0.950 . S
C3046 C3045 1.398 . S
C3046 C3047 1.391 . S
C3047 H3035 0.950 . S
C3047 C3043 1.393 . S
C3047 C3046 1.391 . S
H3048 C3056 0.950 . S
H3049 C3061 0.950 . S
H3050 C3058 0.950 . S
H3051 C3060 0.950 . S
H3052 C3062 0.950 . S
H3053 C3064 0.950 . S
H3054 C3066 0.950 . S
H3055 C3067 0.950 . S
C3056 H3048 0.950 . S
C3056 C3057 1.386 . S
C3056 C3058 1.391 . S
C3057 C3056 1.386 . S
C3057 C3061 1.393 . S
C3058 H3050 0.950 . S
C3058 C3056 1.391 . S
C3058 C3059 1.400 . S
C3059 C3058 1.400 . S
C3059 C3060 1.398 . S
C3059 C3065 1.491 . S
C3060 H3051 0.950 . S
C3060 C3059 1.398 . S
C3060 C3061 1.391 . S
C3061 H3049 0.950 . S
C3061 C3057 1.393 . S
C3061 C3060 1.391 . S
C3062 H3052 0.950 . S
C3062 C3063 1.386 . S
C3062 C3064 1.391 . S
C3063 C3062 1.386 . S
C3063 C3067 1.393 . S
C3064 H3053 0.950 . S
C3064 C3062 1.391 . S
C3064 C3065 1.400 . S
C3065 C3059 1.491 . S
C3065 C3064 1.400 . S
C3065 C3066 1.398 . S
C3066 H3054 0.950 . S
C3066 C3065 1.398 . S
C3066 C3067 1.391 . S
C3067 H3055 0.950 . S
C3067 C3063 1.393 . S
C3067 C3066 1.391 . S
H3068 C3076 0.950 . S
H3069 C3081 0.950 . S
H3070 C3078 0.950 . S
H3071 C3080 0.950 . S
H3072 C3082 0.950 . S
H3073 C3084 0.950 . S
H3074 C3086 0.950 . S
H3075 C3087 0.950 . S
C3076 H3068 0.950 . S
C3076 C3077 1.386 . S
C3076 C3078 1.391 . S
C3077 C3076 1.386 . S
C3077 C3081 1.393 . S
C3078 H3070 0.950 . S
C3078 C3076 1.391 . S
C3078 C3079 1.400 . S
C3079 C3078 1.400 . S
C3079 C3080 1.398 . S
C3079 C3085 1.491 . S
C3080 H3071 0.950 . S
C3080 C3079 1.398 . S
C3080 C3081 1.391 . S
C3081 H3069 0.950 . S
C3081 C3077 1.393 . S
C3081 C3080 1.391 . S
C3082 H3072 0.950 . S
C3082 C3083 1.386 . S
C3082 C3084 1.391 . S
C3083 C3082 1.386 . S
C3083 C3087 1.393 . S
C3084 H3073 0.950 . S
C3084 C3082 1.391 . S
C3084 C3085 1.400 . S
C3085 C3079 1.491 . S
C3085 C3084 1.400 . S
C3085 C3086 1.398 . S
C3086 H3074 0.950 . S
C3086 C3085 1.398 . S
C3086 C3087 1.391 . S
C3087 H3075 0.950 . S
C3087 C3083 1.393 . S
C3087 C3086 1.391 . S
H3088 C3096 0.950 . S
H3089 C3101 0.950 . S
H3090 C3098 0.948 1_545 S
H3091 C3100 0.950 . S
H3092 C3102 0.950 . S
H3093 C3104 0.950 . S
H3094 C3106 0.950 . S
H3095 C3107 0.950 . S
C3096 H3088 0.950 . S
C3096 C3097 1.386 . S
C3096 C3098 1.378 1_545 S
C3097 C3096 1.386 . S
C3097 C3101 1.393 1_545 S
C3098 H3090 0.948 1_565 S
C3098 C3096 1.378 1_565 S
C3098 C3099 1.415 . S
C3099 C3098 1.415 . S
C3099 C3100 1.398 . S
C3099 C3105 1.491 . S
C3100 H3091 0.950 . S
C3100 C3099 1.398 . S
C3100 C3101 1.391 . S
C3101 H3089 0.950 . S
C3101 C3097 1.393 1_565 S
C3101 C3100 1.391 . S
C3102 H3092 0.950 . S
C3102 C3103 1.386 . S
C3102 C3104 1.391 . S
C3103 C3102 1.386 . S
C3103 C3107 1.393 . S
C3104 H3093 0.950 . S
C3104 C3102 1.391 . S
C3104 C3105 1.400 . S
C3105 C3099 1.491 . S
C3105 C3104 1.400 . S
C3105 C3106 1.398 . S
C3106 H3094 0.950 . S
C3106 C3105 1.398 . S
C3106 C3107 1.391 . S
C3107 H3095 0.950 . S
C3107 C3103 1.393 . S
C3107 C3106 1.391 . S
H3108 C3116 0.950 . S
H3109 C3121 0.950 . S
H3110 C3118 0.950 . S
H3111 C3120 0.950 . S
H3112 C3122 0.950 1_545 S
H3113 C3124 0.950 . S
H3114 C3126 0.950 . S
H3115 C3127 0.950 . S
C3116 H3108 0.950 . S
C3116 C3117 1.386 . S
C3116 C3118 1.391 . S
C3117 C3116 1.386 . S
C3117 C3121 1.393 . S
C3118 H3110 0.950 . S
C3118 C3116 1.391 . S
C3118 C3119 1.400 . S
C3119 C3118 1.400 . S
C3119 C3120 1.398 . S
C3119 C3125 1.491 . S
C3120 H3111 0.950 . S
C3120 C3119 1.398 . S
C3120 C3121 1.391 . S
C3121 H3109 0.950 . S
C3121 C3117 1.393 . S
C3121 C3120 1.391 . S
C3122 H3112 0.950 1_565 S
C3122 C3123 1.386 . S
C3122 C3124 1.391 . S
C3123 C3122 1.386 . S
C3123 C3127 1.393 . S
C3124 H3113 0.950 . S
C3124 C3122 1.391 . S
C3124 C3125 1.400 . S
C3125 C3119 1.491 . S
C3125 C3124 1.400 . S
C3125 C3126 1.398 . S
C3126 H3114 0.950 . S
C3126 C3125 1.398 . S
C3126 C3127 1.391 . S
C3127 H3115 0.950 . S
C3127 C3123 1.393 . S
C3127 C3126 1.391 . S
H3128 C3136 0.950 . S
H3129 C3141 0.950 . S
H3130 C3138 0.950 . S
H3131 C3140 0.950 . S
H3132 C3142 0.950 . S
H3133 C3144 0.950 . S
H3134 C3146 0.950 . S
H3135 C3147 0.950 . S
C3136 H3128 0.950 . S
C3136 C3137 1.386 . S
C3136 C3138 1.391 . S
C3137 C3136 1.386 . S
C3137 C3141 1.393 . S
C3138 H3130 0.950 . S
C3138 C3136 1.391 . S
C3138 C3139 1.400 . S
C3139 C3138 1.400 . S
C3139 C3140 1.398 . S
C3139 C3145 1.491 . S
C3140 H3131 0.950 . S
C3140 C3139 1.398 . S
C3140 C3141 1.391 . S
C3141 H3129 0.950 . S
C3141 C3137 1.393 . S
C3141 C3140 1.391 . S
C3142 H3132 0.950 . S
C3142 C3143 1.386 . S
C3142 C3144 1.391 . S
C3143 C3142 1.386 . S
C3143 C3147 1.393 . S
C3144 H3133 0.950 . S
C3144 C3142 1.391 . S
C3144 C3145 1.400 . S
C3145 C3139 1.491 . S
C3145 C3144 1.400 . S
C3145 C3146 1.398 . S
C3146 H3134 0.950 . S
C3146 C3145 1.398 . S
C3146 C3147 1.391 . S
C3147 H3135 0.950 . S
C3147 C3143 1.393 . S
C3147 C3146 1.391 . S
H3148 C3156 0.950 . S
H3149 C3161 0.950 . S
H3150 C3158 0.950 . S
H3151 C3160 0.950 . S
H3152 C3162 0.950 . S
H3153 C3164 0.950 . S
H3154 C3166 0.950 . S
H3155 C3167 0.950 . S
C3156 H3148 0.950 . S
C3156 C3157 1.386 . S
C3156 C3158 1.391 . S
C3157 C3156 1.386 . S
C3157 C3161 1.393 . S
C3158 H3150 0.950 . S
C3158 C3156 1.391 . S
C3158 C3159 1.400 . S
C3159 C3158 1.400 . S
C3159 C3160 1.398 . S
C3159 C3165 1.491 . S
C3160 H3151 0.950 . S
C3160 C3159 1.398 . S
C3160 C3161 1.391 . S
C3161 H3149 0.950 . S
C3161 C3157 1.393 . S
C3161 C3160 1.391 . S
C3162 H3152 0.950 . S
C3162 C3163 1.386 . S
C3162 C3164 1.391 . S
C3163 C3162 1.386 . S
C3163 C3167 1.393 . S
C3164 H3153 0.950 . S
C3164 C3162 1.391 . S
C3164 C3165 1.400 . S
C3165 C3159 1.491 . S
C3165 C3164 1.400 . S
C3165 C3166 1.398 . S
C3166 H3154 0.950 . S
C3166 C3165 1.398 . S
C3166 C3167 1.391 . S
C3167 H3155 0.950 . S
C3167 C3163 1.393 . S
C3167 C3166 1.391 . S
H3168 C3176 0.950 . S
H3169 C3181 0.950 . S
H3170 C3178 0.950 . S
H3171 C3180 0.950 . S
H3172 C3182 0.950 . S
H3173 C3184 0.950 . S
H3174 C3186 0.950 . S
H3175 C3187 0.950 . S
C3176 H3168 0.950 . S
C3176 C3177 1.386 . S
C3176 C3178 1.391 . S
C3177 C3176 1.386 . S
C3177 C3181 1.393 . S
C3178 H3170 0.950 . S
C3178 C3176 1.391 . S
C3178 C3179 1.400 . S
C3179 C3178 1.400 . S
C3179 C3180 1.398 . S
C3179 C3185 1.491 . S
C3180 H3171 0.950 . S
C3180 C3179 1.398 . S
C3180 C3181 1.391 . S
C3181 H3169 0.950 . S
C3181 C3177 1.393 . S
C3181 C3180 1.391 . S
C3182 H3172 0.950 . S
C3182 C3183 1.386 . S
C3182 C3184 1.391 . S
C3183 C3182 1.386 . S
C3183 C3187 1.393 . S
C3184 H3173 0.950 . S
C3184 C3182 1.391 . S
C3184 C3185 1.400 . S
C3185 C3179 1.491 . S
C3185 C3184 1.400 . S
C3185 C3186 1.398 . S
C3186 H3174 0.950 . S
C3186 C3185 1.398 . S
C3186 C3187 1.391 . S
C3187 H3175 0.950 . S
C3187 C3183 1.393 . S
C3187 C3186 1.391 . S
H3188 C3196 0.950 . S
H3189 C3201 0.950 . S
H3190 C3198 0.950 . S
H3191 C3200 0.950 . S
H3192 C3202 0.950 . S
H3193 C3204 0.950 . S
H3194 C3206 0.950 . S
H3195 C3207 0.950 . S
C3196 H3188 0.950 . S
C3196 C3197 1.386 . S
C3196 C3198 1.391 . S
C3197 C3196 1.386 . S
C3197 C3201 1.393 . S
C3198 H3190 0.950 . S
C3198 C3196 1.391 . S
C3198 C3199 1.400 . S
C3199 C3198 1.400 . S
C3199 C3200 1.398 . S
C3199 C3205 1.491 . S
C3200 H3191 0.950 . S
C3200 C3199 1.398 . S
C3200 C3201 1.391 . S
C3201 H3189 0.950 . S
C3201 C3197 1.393 . S
C3201 C3200 1.391 . S
C3202 H3192 0.950 . S
C3202 C3203 1.386 . S
C3202 C3204 1.391 . S
C3203 C3202 1.386 . S
C3203 C3207 1.393 . S
C3204 H3193 0.950 . S
C3204 C3202 1.391 . S
C3204 C3205 1.400 . S
C3205 C3199 1.491 . S
C3205 C3204 1.400 . S
C3205 C3206 1.398 . S
C3206 H3194 0.950 . S
C3206 C3205 1.398 . S
C3206 C3207 1.391 . S
C3207 H3195 0.950 . S
C3207 C3203 1.393 . S
C3207 C3206 1.391 . S
H3208 C3216 0.950 . S
H3209 C3221 0.984 . S
H3210 C3218 0.950 . S
H3211 C3220 0.950 . S
H3212 C3222 0.950 . S
H3213 C3224 0.950 . S
H3214 C3226 0.955 . S
H3215 C3227 0.950 . S
C3216 H3208 0.950 . S
C3216 C3217 1.386 . S
C3216 C3218 1.391 . S
C3217 C3216 1.386 . S
C3217 C3221 1.393 . S
C3218 H3210 0.950 . S
C3218 C3216 1.391 . S
C3218 C3219 1.400 . S
C3219 C3218 1.400 . S
C3219 C3220 1.398 . S
C3219 C3225 1.491 . S
C3220 H3211 0.950 . S
C3220 C3219 1.398 . S
C3220 C3221 1.391 . S
C3221 H3209 0.984 . S
C3221 C3217 1.393 . S
C3221 C3220 1.391 . S
C3222 H3212 0.950 . S
C3222 C3223 1.386 . S
C3222 C3224 1.391 1_554 S
C3223 C3222 1.386 . S
C3223 C3227 1.393 . S
C3224 H3213 0.950 . S
C3224 C3222 1.391 1_556 S
C3224 C3225 1.400 . S
C3225 C3219 1.491 . S
C3225 C3224 1.400 . S
C3225 C3226 1.391 1_556 S
C3226 H3214 0.955 . S
C3226 C3225 1.391 1_554 S
C3226 C3227 1.396 . S
C3227 H3215 0.950 . S
C3227 C3223 1.393 . S
C3227 C3226 1.396 . S
H3228 C3236 0.950 . S
H3229 C3241 0.950 . S
H3230 C3238 0.950 . S
H3231 C3240 0.950 . S
H3232 C3242 0.950 . S
H3233 C3244 0.950 . S
H3234 C3246 0.950 . S
H3235 C3247 0.950 . S
C3236 H3228 0.950 . S
C3236 C3237 1.386 . S
C3236 C3238 1.391 1_455 S
C3237 C3236 1.386 . S
C3237 C3241 1.393 . S
C3238 H3230 0.950 . S
C3238 C3236 1.391 1_655 S
C3238 C3239 1.400 . S
C3239 C3238 1.400 . S
C3239 C3240 1.398 1_655 S
C3239 C3245 1.491 . S
C3240 H3231 0.950 . S
C3240 C3239 1.398 1_455 S
C3240 C3241 1.391 . S
C3241 H3229 0.950 . S
C3241 C3237 1.393 . S
C3241 C3240 1.391 . S
C3242 H3232 0.950 . S
C3242 C3243 1.386 . S
C3242 C3244 1.391 . S
C3243 C3242 1.386 . S
C3243 C3247 1.393 . S
C3244 H3233 0.950 . S
C3244 C3242 1.391 . S
C3244 C3245 1.400 . S
C3245 C3239 1.491 . S
C3245 C3244 1.400 . S
C3245 C3246 1.398 . S
C3246 H3234 0.950 . S
C3246 C3245 1.398 . S
C3246 C3247 1.391 . S
C3247 H3235 0.950 . S
C3247 C3243 1.393 . S
C3247 C3246 1.391 . S
H3248 C3256 0.950 . S
H3249 C3261 0.950 . S
H3250 C3258 0.950 . S
H3251 C3260 0.950 . S
H3252 C3262 0.950 . S
H3253 C3264 0.950 . S
H3254 C3266 0.950 . S
H3255 C3267 0.950 . S
C3256 H3248 0.950 . S
C3256 C3257 1.386 . S
C3256 C3258 1.391 . S
C3257 C3256 1.386 . S
C3257 C3261 1.393 . S
C3258 H3250 0.950 . S
C3258 C3256 1.391 . S
C3258 C3259 1.400 . S
C3259 C3258 1.400 . S
C3259 C3260 1.398 . S
C3259 C3265 1.491 . S
C3260 H3251 0.950 . S
C3260 C3259 1.398 . S
C3260 C3261 1.391 . S
C3261 H3249 0.950 . S
C3261 C3257 1.393 . S
C3261 C3260 1.391 . S
C3262 H3252 0.950 . S
C3262 C3263 1.386 . S
C3262 C3264 1.391 . S
C3263 C3262 1.386 . S
C3263 C3267 1.393 . S
C3264 H3253 0.950 . S
C3264 C3262 1.391 . S
C3264 C3265 1.400 . S
C3265 C3259 1.491 . S
C3265 C3264 1.400 . S
C3265 C3266 1.398 . S
C3266 H3254 0.950 . S
C3266 C3265 1.398 . S
C3266 C3267 1.391 . S
C3267 H3255 0.950 . S
C3267 C3263 1.393 . S
C3267 C3266 1.391 . S
H3268 C3276 0.950 . S
H3269 C3281 0.950 . S
H3270 C3278 0.950 . S
H3271 C3280 0.950 . S
H3272 C3282 0.950 . S
H3273 C3284 0.934 1_455 S
H3274 C3286 0.950 . S
H3275 C3287 0.950 . S
C3276 H3268 0.950 . S
C3276 C3277 1.386 . S
C3276 C3278 1.391 . S
C3277 C3276 1.386 . S
C3277 C3281 1.393 . S
C3278 H3270 0.950 . S
C3278 C3276 1.391 . S
C3278 C3279 1.400 . S
C3279 C3278 1.400 . S
C3279 C3280 1.398 . S
C3279 C3285 1.491 1_455 S
C3280 H3271 0.950 . S
C3280 C3279 1.398 . S
C3280 C3281 1.391 . S
C3281 H3269 0.950 . S
C3281 C3277 1.393 . S
C3281 C3280 1.391 . S
C3282 H3272 0.950 . S
C3282 C3283 1.386 . S
C3282 C3284 1.391 . S
C3283 C3282 1.386 . S
C3283 C3287 1.393 . S
C3284 H3273 0.934 1_655 S
C3284 C3282 1.391 . S
C3284 C3285 1.400 . S
C3285 C3279 1.491 1_655 S
C3285 C3284 1.400 . S
C3285 C3286 1.398 . S
C3286 H3274 0.950 . S
C3286 C3285 1.398 . S
C3286 C3287 1.391 . S
C3287 H3275 0.950 . S
C3287 C3283 1.393 . S
C3287 C3286 1.391 . S
H3288 C3296 0.950 . S
H3289 C3301 0.950 . S
H3290 C3298 0.950 . S
H3291 C3300 0.950 . S
H3292 C3302 0.950 . S
H3293 C3304 0.950 . S
H3294 C3306 0.950 . S
H3295 C3307 0.950 . S
C3296 H3288 0.950 . S
C3296 C3297 1.386 . S
C3296 C3298 1.391 . S
C3297 C3296 1.386 . S
C3297 C3301 1.393 1_655 S
C3298 H3290 0.950 . S
C3298 C3296 1.391 . S
C3298 C3299 1.400 1_655 S
C3299 C3298 1.400 1_455 S
C3299 C3300 1.398 . S
C3299 C3305 1.491 . S
C3300 H3291 0.950 . S
C3300 C3299 1.398 . S
C3300 C3301 1.391 . S
C3301 H3289 0.950 . S
C3301 C3297 1.393 1_455 S
C3301 C3300 1.391 . S
C3302 H3292 0.950 . S
C3302 C3303 1.386 . S
C3302 C3304 1.391 . S
C3303 C3302 1.386 . S
C3303 C3307 1.393 . S
C3304 H3293 0.950 . S
C3304 C3302 1.391 . S
C3304 C3305 1.400 . S
C3305 C3299 1.491 . S
C3305 C3304 1.400 . S
C3305 C3306 1.398 . S
C3306 H3294 0.950 . S
C3306 C3305 1.398 . S
C3306 C3307 1.391 . S
C3307 H3295 0.950 . S
C3307 C3303 1.393 . S
C3307 C3306 1.391 . S
H3308 C3316 0.950 . S
H3309 C3321 0.950 . S
H3310 C3318 0.950 . S
H3311 C3320 0.950 . S
H3312 C3322 0.950 . S
H3313 C3324 0.950 . S
H3314 C3326 0.950 . S
H3315 C3327 0.950 . S
C3316 H3308 0.950 . S
C3316 C3317 1.386 . S
C3316 C3318 1.391 . S
C3317 C3316 1.386 . S
C3317 C3321 1.393 . S
C3318 H3310 0.950 . S
C3318 C3316 1.391 . S
C3318 C3319 1.400 . S
C3319 C3318 1.400 . S
C3319 C3320 1.398 . S
C3319 C3325 1.491 . S
C3320 H3311 0.950 . S
C3320 C3319 1.398 . S
C3320 C3321 1.391 . S
C3321 H3309 0.950 . S
C3321 C3317 1.393 . S
C3321 C3320 1.391 . S
C3322 H3312 0.950 . S
C3322 C3323 1.386 . S
C3322 C3324 1.391 . S
C3323 C3322 1.386 . S
C3323 C3327 1.393 . S
C3324 H3313 0.950 . S
C3324 C3322 1.391 . S
C3324 C3325 1.400 . S
C3325 C3319 1.491 . S
C3325 C3324 1.400 . S
C3325 C3326 1.398 . S
C3326 H3314 0.950 . S
C3326 C3325 1.398 . S
C3326 C3327 1.391 . S
C3327 H3315 0.950 . S
C3327 C3323 1.393 . S
C3327 C3326 1.391 . S
H3328 C3336 0.950 . S
H3329 C3341 0.950 . S
H3330 C3338 0.950 . S
H3331 C3340 0.950 . S
H3332 C3342 0.950 . S
H3333 C3344 0.950 . S
H3334 C3346 0.950 . S
H3335 C3347 0.950 . S
C3336 H3328 0.950 . S
C3336 C3337 1.386 . S
C3336 C3338 1.391 . S
C3337 C3336 1.386 . S
C3337 C3341 1.393 . S
C3338 H3330 0.950 . S
C3338 C3336 1.391 . S
C3338 C3339 1.400 . S
C3339 C3338 1.400 . S
C3339 C3340 1.398 . S
C3339 C3345 1.491 . S
C3340 H3331 0.950 . S
C3340 C3339 1.398 . S
C3340 C3341 1.391 . S
C3341 H3329 0.950 . S
C3341 C3337 1.393 . S
C3341 C3340 1.391 . S
C3342 H3332 0.950 . S
C3342 C3343 1.386 . S
C3342 C3344 1.391 . S
C3343 C3342 1.386 . S
C3343 C3347 1.393 . S
C3344 H3333 0.950 . S
C3344 C3342 1.391 . S
C3344 C3345 1.400 . S
C3345 C3339 1.491 . S
C3345 C3344 1.400 . S
C3345 C3346 1.398 . S
C3346 H3334 0.950 . S
C3346 C3345 1.398 . S
C3346 C3347 1.391 . S
C3347 H3335 0.950 . S
C3347 C3343 1.393 . S
C3347 C3346 1.391 . S
H3348 C3356 0.950 . S
H3349 C3361 0.950 . S
H3350 C3358 0.950 . S
H3351 C3360 0.950 . S
H3352 C3362 0.950 . S
H3353 C3364 0.950 . S
H3354 C3366 0.950 . S
H3355 C3367 0.950 . S
C3356 H3348 0.950 . S
C3356 C3357 1.386 . S
C3356 C3358 1.391 . S
C3357 C3356 1.386 . S
C3357 C3361 1.393 . S
C3358 H3350 0.950 . S
C3358 C3356 1.391 . S
C3358 C3359 1.400 . S
C3359 C3358 1.400 . S
C3359 C3360 1.398 . S
C3359 C3365 1.491 . S
C3360 H3351 0.950 . S
C3360 C3359 1.398 . S
C3360 C3361 1.391 . S
C3361 H3349 0.950 . S
C3361 C3357 1.393 . S
C3361 C3360 1.391 . S
C3362 H3352 0.950 . S
C3362 C3363 1.386 . S
C3362 C3364 1.391 . S
C3363 C3362 1.386 . S
C3363 C3367 1.393 . S
C3364 H3353 0.950 . S
C3364 C3362 1.391 . S
C3364 C3365 1.400 . S
C3365 C3359 1.491 . S
C3365 C3364 1.400 . S
C3365 C3366 1.398 . S
C3366 H3354 0.950 . S
C3366 C3365 1.398 . S
C3366 C3367 1.391 . S
C3367 H3355 0.950 . S
C3367 C3363 1.393 . S
C3367 C3366 1.391 . S
H3368 C3376 0.950 . S
H3369 C3381 0.950 . S
H3370 C3378 0.950 . S
H3371 C3380 0.950 . S
H3372 C3382 0.950 . S
H3373 C3384 0.950 . S
H3374 C3386 0.950 . S
H3375 C3387 0.950 . S
C3376 H3368 0.950 . S
C3376 C3377 1.386 . S
C3376 C3378 1.391 . S
C3377 C3376 1.386 . S
C3377 C3381 1.393 . S
C3378 H3370 0.950 . S
C3378 C3376 1.391 . S
C3378 C3379 1.400 . S
C3379 C3378 1.400 . S
C3379 C3380 1.398 . S
C3379 C3385 1.491 . S
C3380 H3371 0.950 . S
C3380 C3379 1.398 . S
C3380 C3381 1.391 . S
C3381 H3369 0.950 . S
C3381 C3377 1.393 . S
C3381 C3380 1.391 . S
C3382 H3372 0.950 . S
C3382 C3383 1.386 . S
C3382 C3384 1.391 . S
C3383 C3382 1.386 . S
C3383 C3387 1.393 . S
C3384 H3373 0.950 . S
C3384 C3382 1.391 . S
C3384 C3385 1.400 . S
C3385 C3379 1.491 . S
C3385 C3384 1.400 . S
C3385 C3386 1.398 . S
C3386 H3374 0.950 . S
C3386 C3385 1.398 . S
C3386 C3387 1.391 . S
C3387 H3375 0.950 . S
C3387 C3383 1.393 . S
C3387 C3386 1.391 . S
H3388 C3396 0.950 . S
H3389 C3401 0.950 . S
H3390 C3398 0.950 . S
H3391 C3400 0.950 . S
H3392 C3402 0.950 . S
H3393 C3404 0.950 . S
H3394 C3406 0.950 . S
H3395 C3407 0.950 . S
C3396 H3388 0.950 . S
C3396 C3397 1.386 . S
C3396 C3398 1.391 . S
C3397 C3396 1.386 . S
C3397 C3401 1.393 . S
C3398 H3390 0.950 . S
C3398 C3396 1.391 . S
C3398 C3399 1.400 . S
C3399 C3398 1.400 . S
C3399 C3400 1.398 . S
C3399 C3405 1.491 . S
C3400 H3391 0.950 . S
C3400 C3399 1.398 . S
C3400 C3401 1.391 . S
C3401 H3389 0.950 . S
C3401 C3397 1.393 . S
C3401 C3400 1.391 . S
C3402 H3392 0.950 . S
C3402 C3403 1.386 . S
C3402 C3404 1.391 . S
C3403 C3402 1.386 . S
C3403 C3407 1.393 . S
C3404 H3393 0.950 . S
C3404 C3402 1.391 . S
C3404 C3405 1.400 . S
C3405 C3399 1.491 . S
C3405 C3404 1.400 . S
C3405 C3406 1.398 . S
C3406 H3394 0.950 . S
C3406 C3405 1.398 . S
C3406 C3407 1.391 . S
C3407 H3395 0.950 . S
C3407 C3403 1.393 . S
C3407 C3406 1.391 . S
H3408 C3416 0.950 . S
H3409 C3421 0.950 . S
H3410 C3418 0.950 . S
H3411 C3420 0.950 . S
H3412 C3422 0.950 . S
H3413 C3424 0.950 . S
H3414 C3426 0.950 . S
H3415 C3427 0.950 . S
C3416 H3408 0.950 . S
C3416 C3417 1.386 . S
C3416 C3418 1.391 . S
C3417 C3416 1.386 . S
C3417 C3421 1.393 . S
C3418 H3410 0.950 . S
C3418 C3416 1.391 . S
C3418 C3419 1.400 . S
C3419 C3418 1.400 . S
C3419 C3420 1.398 . S
C3419 C3425 1.491 . S
C3420 H3411 0.950 . S
C3420 C3419 1.398 . S
C3420 C3421 1.391 . S
C3421 H3409 0.950 . S
C3421 C3417 1.393 . S
C3421 C3420 1.391 . S
C3422 H3412 0.950 . S
C3422 C3423 1.386 . S
C3422 C3424 1.391 . S
C3423 C3422 1.386 . S
C3423 C3427 1.393 . S
C3424 H3413 0.950 . S
C3424 C3422 1.391 . S
C3424 C3425 1.400 . S
C3425 C3419 1.491 . S
C3425 C3424 1.400 . S
C3425 C3426 1.398 . S
C3426 H3414 0.950 . S
C3426 C3425 1.398 . S
C3426 C3427 1.391 . S
C3427 H3415 0.950 . S
C3427 C3423 1.393 . S
C3427 C3426 1.391 . S
H3428 C3436 0.950 . S
H3429 C3441 0.950 . S
H3430 C3438 0.950 . S
H3431 C3440 0.950 . S
H3432 C3442 0.950 . S
H3433 C3444 0.950 . S
H3434 C3446 0.950 . S
H3435 C3447 0.950 . S
C3436 H3428 0.950 . S
C3436 C3437 1.386 . S
C3436 C3438 1.391 . S
C3437 C3436 1.386 . S
C3437 C3441 1.393 . S
C3438 H3430 0.950 . S
C3438 C3436 1.391 . S
C3438 C3439 1.400 . S
C3439 C3438 1.400 . S
C3439 C3440 1.398 . S
C3439 C3445 1.491 . S
C3440 H3431 0.950 . S
C3440 C3439 1.398 . S
C3440 C3441 1.391 . S
C3441 H3429 0.950 . S
C3441 C3437 1.393 . S
C3441 C3440 1.391 . S
C3442 H3432 0.950 . S
C3442 C3443 1.386 . S
C3442 C3444 1.391 . S
C3443 C3442 1.386 . S
C3443 C3447 1.393 . S
C3444 H3433 0.950 . S
C3444 C3442 1.391 . S
C3444 C3445 1.400 . S
C3445 C3439 1.491 . S
C3445 C3444 1.400 . S
C3445 C3446 1.398 . S
C3446 H3434 0.950 . S
C3446 C3445 1.398 . S
C3446 C3447 1.391 . S
C3447 H3435 0.950 . S
C3447 C3443 1.393 . S
C3447 C3446 1.391 . S
H3448 C3456 0.950 . S
H3449 C3461 0.950 . S
H3450 C3458 0.950 . S
H3451 C3460 0.950 . S
H3452 C3462 0.950 . S
H3453 C3464 0.950 . S
H3454 C3466 0.950 . S
H3455 C3467 0.950 . S
C3456 H3448 0.950 . S
C3456 C3457 1.386 . S
C3456 C3458 1.391 . S
C3457 C3456 1.386 . S
C3457 C3461 1.393 . S
C3458 H3450 0.950 . S
C3458 C3456 1.391 . S
C3458 C3459 1.400 . S
C3459 C3458 1.400 . S
C3459 C3460 1.398 . S
C3459 C3465 1.491 . S
C3460 H3451 0.950 . S
C3460 C3459 1.398 . S
C3460 C3461 1.391 . S
C3461 H3449 0.950 . S
C3461 C3457 1.393 . S
C3461 C3460 1.391 . S
C3462 H3452 0.950 . S
C3462 C3463 1.386 . S
C3462 C3464 1.391 . S
C3463 C3462 1.386 . S
C3463 C3467 1.393 . S
C3464 H3453 0.950 . S
C3464 C3462 1.391 . S
C3464 C3465 1.400 . S
C3465 C3459 1.491 . S
C3465 C3464 1.400 . S
C3465 C3466 1.398 . S
C3466 H3454 0.950 . S
C3466 C3465 1.398 . S
C3466 C3467 1.391 . S
C3467 H3455 0.950 . S
C3467 C3463 1.393 . S
C3467 C3466 1.391 . S
H3468 C3476 0.950 . S
H3469 C3481 0.950 . S
H3470 C3478 0.950 . S
H3471 C3480 0.950 . S
H3472 C3482 0.950 . S
H3473 C3484 0.950 . S
H3474 C3486 0.950 . S
H3475 C3487 0.950 . S
C3476 H3468 0.950 . S
C3476 C3477 1.386 . S
C3476 C3478 1.391 . S
C3477 C3476 1.386 . S
C3477 C3481 1.393 . S
C3478 H3470 0.950 . S
C3478 C3476 1.391 . S
C3478 C3479 1.400 . S
C3479 C3478 1.400 . S
C3479 C3480 1.398 . S
C3479 C3485 1.491 . S
C3480 H3471 0.950 . S
C3480 C3479 1.398 . S
C3480 C3481 1.391 . S
C3481 H3469 0.950 . S
C3481 C3477 1.393 . S
C3481 C3480 1.391 . S
C3482 H3472 0.950 . S
C3482 C3483 1.386 . S
C3482 C3484 1.391 . S
C3483 C3482 1.386 . S
C3483 C3487 1.393 . S
C3484 H3473 0.950 . S
C3484 C3482 1.391 . S
C3484 C3485 1.400 . S
C3485 C3479 1.491 . S
C3485 C3484 1.400 . S
C3485 C3486 1.398 . S
C3486 H3474 0.950 . S
C3486 C3485 1.398 . S
C3486 C3487 1.391 . S
C3487 H3475 0.950 . S
C3487 C3483 1.393 . S
C3487 C3486 1.391 . S
H3488 C3496 0.950 . S
H3489 C3501 0.950 . S
H3490 C3498 0.950 . S
H3491 C3500 0.950 . S
H3492 C3502 0.950 . S
H3493 C3504 0.950 . S
H3494 C3506 0.950 . S
H3495 C3507 0.950 . S
C3496 H3488 0.950 . S
C3496 C3497 1.386 . S
C3496 C3498 1.391 . S
C3497 C3496 1.386 . S
C3497 C3501 1.393 . S
C3498 H3490 0.950 . S
C3498 C3496 1.391 . S
C3498 C3499 1.400 . S
C3499 C3498 1.400 . S
C3499 C3500 1.398 . S
C3499 C3505 1.491 . S
C3500 H3491 0.950 . S
C3500 C3499 1.398 . S
C3500 C3501 1.391 . S
C3501 H3489 0.950 . S
C3501 C3497 1.393 . S
C3501 C3500 1.391 . S
C3502 H3492 0.950 . S
C3502 C3503 1.386 . S
C3502 C3504 1.391 . S
C3503 C3502 1.386 . S
C3503 C3507 1.393 . S
C3504 H3493 0.950 . S
C3504 C3502 1.391 . S
C3504 C3505 1.400 . S
C3505 C3499 1.491 . S
C3505 C3504 1.400 . S
C3505 C3506 1.398 . S
C3506 H3494 0.950 . S
C3506 C3505 1.398 . S
C3506 C3507 1.391 . S
C3507 H3495 0.950 . S
C3507 C3503 1.393 . S
C3507 C3506 1.391 . S
H3508 C3516 0.950 . S
H3509 C3521 0.950 . S
H3510 C3518 0.950 . S
H3511 C3520 0.950 . S
H3512 C3522 0.950 . S
H3513 C3524 0.950 . S
H3514 C3526 0.950 . S
H3515 C3527 0.950 . S
C3516 H3508 0.950 . S
C3516 C3517 1.386 . S
C3516 C3518 1.391 . S
C3517 C3516 1.386 . S
C3517 C3521 1.393 . S
C3518 H3510 0.950 . S
C3518 C3516 1.391 . S
C3518 C3519 1.400 . S
C3519 C3518 1.400 . S
C3519 C3520 1.398 . S
C3519 C3525 1.491 . S
C3520 H3511 0.950 . S
C3520 C3519 1.398 . S
C3520 C3521 1.391 . S
C3521 H3509 0.950 . S
C3521 C3517 1.393 . S
C3521 C3520 1.391 . S
C3522 H3512 0.950 . S
C3522 C3523 1.386 . S
C3522 C3524 1.391 . S
C3523 C3522 1.386 . S
C3523 C3527 1.393 . S
C3524 H3513 0.950 . S
C3524 C3522 1.391 . S
C3524 C3525 1.400 . S
C3525 C3519 1.491 . S
C3525 C3524 1.400 . S
C3525 C3526 1.398 . S
C3526 H3514 0.950 . S
C3526 C3525 1.398 . S
C3526 C3527 1.391 . S
C3527 H3515 0.950 . S
C3527 C3523 1.393 . S
C3527 C3526 1.391 . S
H3528 C3536 0.950 . S
H3529 C3541 0.950 . S
H3530 C3538 0.950 . S
H3531 C3540 0.950 . S
H3532 C3542 0.950 . S
H3533 C3544 0.950 . S
H3534 C3546 0.950 . S
H3535 C3547 0.950 . S
C3536 H3528 0.950 . S
C3536 C3537 1.386 . S
C3536 C3538 1.391 . S
C3537 C3536 1.386 . S
C3537 C3541 1.393 . S
C3538 H3530 0.950 . S
C3538 C3536 1.391 . S
C3538 C3539 1.400 . S
C3539 C3538 1.400 . S
C3539 C3540 1.398 . S
C3539 C3545 1.491 . S
C3540 H3531 0.950 . S
C3540 C3539 1.398 . S
C3540 C3541 1.391 . S
C3541 H3529 0.950 . S
C3541 C3537 1.393 . S
C3541 C3540 1.391 . S
C3542 H3532 0.950 . S
C3542 C3543 1.386 . S
C3542 C3544 1.391 . S
C3543 C3542 1.386 . S
C3543 C3547 1.393 . S
C3544 H3533 0.950 . S
C3544 C3542 1.391 . S
C3544 C3545 1.400 . S
C3545 C3539 1.491 . S
C3545 C3544 1.400 . S
C3545 C3546 1.398 . S
C3546 H3534 0.950 . S
C3546 C3545 1.398 . S
C3546 C3547 1.391 . S
C3547 H3535 0.950 . S
C3547 C3543 1.393 . S
C3547 C3546 1.391 . S
H3548 C3556 0.950 . S
H3549 C3561 0.950 . S
H3550 C3558 0.950 1_545 S
H3551 C3560 0.950 . S
H3552 C3562 0.931 1_566 S
H3553 C3564 0.956 . S
H3554 C3566 0.950 . S
H3555 C3567 0.950 . S
C3556 H3548 0.950 . S
C3556 C3557 1.386 . S
C3556 C3558 1.391 . S
C3557 C3556 1.386 . S
C3557 C3561 1.393 1_554 S
C3558 H3550 0.950 1_565 S
C3558 C3556 1.391 . S
C3558 C3559 1.400 . S
C3559 C3558 1.400 . S
C3559 C3560 1.398 1_554 S
C3559 C3565 1.491 . S
C3560 H3551 0.950 . S
C3560 C3559 1.398 1_556 S
C3560 C3561 1.391 . S
C3561 H3549 0.950 . S
C3561 C3557 1.393 1_556 S
C3561 C3560 1.391 . S
C3562 H3552 0.931 1_544 S
C3562 C3563 1.401 . S
C3562 C3564 1.397 1_544 S
C3563 C3562 1.401 . S
C3563 C3567 1.393 . S
C3564 H3553 0.956 . S
C3564 C3562 1.397 1_566 S
C3564 C3565 1.392 1_556 S
C3565 C3559 1.491 . S
C3565 C3564 1.392 1_554 S
C3565 C3566 1.398 1_565 S
C3566 H3554 0.950 . S
C3566 C3565 1.398 1_545 S
C3566 C3567 1.391 . S
C3567 H3555 0.950 . S
C3567 C3563 1.393 . S
C3567 C3566 1.391 . S
H3568 C3576 0.950 . S
H3569 C3581 0.950 . S
H3570 C3578 0.950 . S
H3571 C3580 0.950 . S
H3572 C3582 0.950 . S
H3573 C3584 0.950 . S
H3574 C3586 0.950 . S
H3575 C3587 0.950 . S
C3576 H3568 0.950 . S
C3576 C3577 1.386 . S
C3576 C3578 1.391 . S
C3577 C3576 1.386 . S
C3577 C3581 1.393 . S
C3578 H3570 0.950 . S
C3578 C3576 1.391 . S
C3578 C3579 1.400 . S
C3579 C3578 1.400 . S
C3579 C3580 1.398 . S
C3579 C3585 1.491 . S
C3580 H3571 0.950 . S
C3580 C3579 1.398 . S
C3580 C3581 1.391 . S
C3581 H3569 0.950 . S
C3581 C3577 1.393 . S
C3581 C3580 1.391 . S
C3582 H3572 0.950 . S
C3582 C3583 1.386 . S
C3582 C3584 1.391 . S
C3583 C3582 1.386 . S
C3583 C3587 1.393 . S
C3584 H3573 0.950 . S
C3584 C3582 1.391 . S
C3584 C3585 1.400 . S
C3585 C3579 1.491 . S
C3585 C3584 1.400 . S
C3585 C3586 1.398 . S
C3586 H3574 0.950 . S
C3586 C3585 1.398 . S
C3586 C3587 1.391 . S
C3587 H3575 0.950 . S
C3587 C3583 1.393 . S
C3587 C3586 1.391 . S
H3588 C3596 0.965 . S
H3589 C3601 0.950 . S
H3590 C3598 0.950 . S
H3591 C3600 0.950 . S
H3592 C3602 0.950 . S
H3593 C3604 0.950 . S
H3594 C3606 0.950 . S
H3595 C3607 0.950 . S
C3596 H3588 0.965 . S
C3596 C3597 1.379 1_556 S
C3596 C3598 1.383 1_556 S
C3597 C3596 1.379 1_554 S
C3597 C3601 1.393 . S
C3598 H3590 0.950 . S
C3598 C3596 1.383 1_554 S
C3598 C3599 1.400 . S
C3599 C3598 1.400 . S
C3599 C3600 1.398 . S
C3599 C3605 1.491 . S
C3600 H3591 0.950 . S
C3600 C3599 1.398 . S
C3600 C3601 1.391 . S
C3601 H3589 0.950 . S
C3601 C3597 1.393 . S
C3601 C3600 1.391 . S
C3602 H3592 0.950 . S
C3602 C3603 1.386 . S
C3602 C3604 1.391 . S
C3603 C3602 1.386 . S
C3603 C3607 1.393 . S
C3604 H3593 0.950 . S
C3604 C3602 1.391 . S
C3604 C3605 1.400 . S
C3605 C3599 1.491 . S
C3605 C3604 1.400 . S
C3605 C3606 1.398 . S
C3606 H3594 0.950 . S
C3606 C3605 1.398 . S
C3606 C3607 1.391 . S
C3607 H3595 0.950 . S
C3607 C3603 1.393 . S
C3607 C3606 1.391 . S
H3608 C3616 0.950 . S
H3609 C3621 0.950 . S
H3610 C3618 0.950 . S
H3611 C3620 0.950 . S
H3612 C3622 0.950 . S
H3613 C3624 0.950 . S
H3614 C3626 0.950 . S
H3615 C3627 0.950 . S
C3616 H3608 0.950 . S
C3616 C3617 1.386 . S
C3616 C3618 1.391 . S
C3617 C3616 1.386 . S
C3617 C3621 1.393 . S
C3618 H3610 0.950 . S
C3618 C3616 1.391 . S
C3618 C3619 1.400 . S
C3619 C3618 1.400 . S
C3619 C3620 1.398 . S
C3619 C3625 1.491 . S
C3620 H3611 0.950 . S
C3620 C3619 1.398 . S
C3620 C3621 1.391 . S
C3621 H3609 0.950 . S
C3621 C3617 1.393 . S
C3621 C3620 1.391 . S
C3622 H3612 0.950 . S
C3622 C3623 1.386 . S
C3622 C3624 1.391 . S
C3623 C3622 1.386 . S
C3623 C3627 1.393 . S
C3624 H3613 0.950 . S
C3624 C3622 1.391 . S
C3624 C3625 1.400 . S
C3625 C3619 1.491 . S
C3625 C3624 1.400 . S
C3625 C3626 1.398 . S
C3626 H3614 0.950 . S
C3626 C3625 1.398 . S
C3626 C3627 1.391 . S
C3627 H3615 0.950 . S
C3627 C3623 1.393 . S
C3627 C3626 1.391 . S
H3628 C3636 0.950 . S
H3629 C3641 0.950 . S
H3630 C3638 0.950 . S
H3631 C3640 0.950 . S
H3632 C3642 0.950 . S
H3633 C3644 0.950 . S
H3634 C3646 0.950 . S
H3635 C3647 0.950 . S
C3636 H3628 0.950 . S
C3636 C3637 1.386 . S
C3636 C3638 1.391 . S
C3637 C3636 1.386 . S
C3637 C3641 1.393 . S
C3638 H3630 0.950 . S
C3638 C3636 1.391 . S
C3638 C3639 1.400 . S
C3639 C3638 1.400 . S
C3639 C3640 1.398 . S
C3639 C3645 1.491 . S
C3640 H3631 0.950 . S
C3640 C3639 1.398 . S
C3640 C3641 1.391 . S
C3641 H3629 0.950 . S
C3641 C3637 1.393 . S
C3641 C3640 1.391 . S
C3642 H3632 0.950 . S
C3642 C3643 1.386 . S
C3642 C3644 1.391 . S
C3643 C3642 1.386 . S
C3643 C3647 1.393 . S
C3644 H3633 0.950 . S
C3644 C3642 1.391 . S
C3644 C3645 1.400 . S
C3645 C3639 1.491 . S
C3645 C3644 1.400 . S
C3645 C3646 1.398 . S
C3646 H3634 0.950 . S
C3646 C3645 1.398 . S
C3646 C3647 1.391 . S
C3647 H3635 0.950 . S
C3647 C3643 1.393 . S
C3647 C3646 1.391 . S
H3648 C3656 0.950 . S
H3649 C3661 0.950 . S
H3650 C3658 0.950 . S
H3651 C3660 0.950 . S
H3652 C3662 0.950 . S
H3653 C3664 0.950 . S
H3654 C3666 0.950 . S
H3655 C3667 0.950 . S
C3656 H3648 0.950 . S
C3656 C3657 1.386 . S
C3656 C3658 1.391 . S
C3657 C3656 1.386 . S
C3657 C3661 1.393 . S
C3658 H3650 0.950 . S
C3658 C3656 1.391 . S
C3658 C3659 1.400 . S
C3659 C3658 1.400 . S
C3659 C3660 1.398 . S
C3659 C3665 1.491 . S
C3660 H3651 0.950 . S
C3660 C3659 1.398 . S
C3660 C3661 1.391 . S
C3661 H3649 0.950 . S
C3661 C3657 1.393 . S
C3661 C3660 1.391 . S
C3662 H3652 0.950 . S
C3662 C3663 1.386 . S
C3662 C3664 1.391 . S
C3663 C3662 1.386 . S
C3663 C3667 1.393 . S
C3664 H3653 0.950 . S
C3664 C3662 1.391 . S
C3664 C3665 1.400 . S
C3665 C3659 1.491 . S
C3665 C3664 1.400 . S
C3665 C3666 1.398 . S
C3666 H3654 0.950 . S
C3666 C3665 1.398 . S
C3666 C3667 1.391 . S
C3667 H3655 0.950 . S
C3667 C3663 1.393 . S
C3667 C3666 1.391 . S
H3668 C3676 0.950 . S
H3669 C3681 0.950 . S
H3670 C3678 0.950 . S
H3671 C3680 0.950 . S
H3672 C3682 0.950 . S
H3673 C3684 0.950 . S
H3674 C3686 0.950 . S
H3675 C3687 0.950 . S
C3676 H3668 0.950 . S
C3676 C3677 1.386 . S
C3676 C3678 1.391 . S
C3677 C3676 1.386 . S
C3677 C3681 1.393 . S
C3678 H3670 0.950 . S
C3678 C3676 1.391 . S
C3678 C3679 1.400 . S
C3679 C3678 1.400 . S
C3679 C3680 1.398 . S
C3679 C3685 1.491 . S
C3680 H3671 0.950 . S
C3680 C3679 1.398 . S
C3680 C3681 1.391 . S
C3681 H3669 0.950 . S
C3681 C3677 1.393 . S
C3681 C3680 1.391 . S
C3682 H3672 0.950 . S
C3682 C3683 1.386 . S
C3682 C3684 1.391 . S
C3683 C3682 1.386 . S
C3683 C3687 1.393 . S
C3684 H3673 0.950 . S
C3684 C3682 1.391 . S
C3684 C3685 1.400 . S
C3685 C3679 1.491 . S
C3685 C3684 1.400 . S
C3685 C3686 1.398 . S
C3686 H3674 0.950 . S
C3686 C3685 1.398 . S
C3686 C3687 1.391 . S
C3687 H3675 0.950 . S
C3687 C3683 1.393 . S
C3687 C3686 1.391 . S
H3688 C3696 0.950 . S
H3689 C3701 0.950 . S
H3690 C3698 0.950 . S
H3691 C3700 0.950 . S
H3692 C3702 0.950 1_556 S
H3693 C3704 0.950 . S
H3694 C3706 0.950 . S
H3695 C3707 0.950 . S
C3696 H3688 0.950 . S
C3696 C3697 1.386 . S
C3696 C3698 1.391 . S
C3697 C3696 1.386 . S
C3697 C3701 1.393 . S
C3698 H3690 0.950 . S
C3698 C3696 1.391 . S
C3698 C3699 1.400 . S
C3699 C3698 1.400 . S
C3699 C3700 1.398 . S
C3699 C3705 1.491 . S
C3700 H3691 0.950 . S
C3700 C3699 1.398 . S
C3700 C3701 1.391 . S
C3701 H3689 0.950 . S
C3701 C3697 1.393 . S
C3701 C3700 1.391 . S
C3702 H3692 0.950 1_554 S
C3702 C3703 1.386 . S
C3702 C3704 1.391 . S
C3703 C3702 1.386 . S
C3703 C3707 1.393 . S
C3704 H3693 0.950 . S
C3704 C3702 1.391 . S
C3704 C3705 1.400 . S
C3705 C3699 1.491 . S
C3705 C3704 1.400 . S
C3705 C3706 1.398 . S
C3706 H3694 0.950 . S
C3706 C3705 1.398 . S
C3706 C3707 1.391 . S
C3707 H3695 0.950 . S
C3707 C3703 1.393 . S
C3707 C3706 1.391 . S
H3708 C3716 0.950 . S
H3709 C3721 0.950 . S
H3710 C3718 0.950 . S
H3711 C3720 0.950 . S
H3712 C3722 0.950 . S
H3713 C3724 0.950 . S
H3714 C3726 0.950 . S
H3715 C3727 0.950 . S
C3716 H3708 0.950 . S
C3716 C3717 1.386 . S
C3716 C3718 1.391 . S
C3717 C3716 1.386 . S
C3717 C3721 1.393 . S
C3718 H3710 0.950 . S
C3718 C3716 1.391 . S
C3718 C3719 1.400 . S
C3719 C3718 1.400 . S
C3719 C3720 1.398 . S
C3719 C3725 1.491 . S
C3720 H3711 0.950 . S
C3720 C3719 1.398 . S
C3720 C3721 1.391 . S
C3721 H3709 0.950 . S
C3721 C3717 1.393 . S
C3721 C3720 1.391 . S
C3722 H3712 0.950 . S
C3722 C3723 1.386 . S
C3722 C3724 1.391 . S
C3723 C3722 1.386 . S
C3723 C3727 1.393 . S
C3724 H3713 0.950 . S
C3724 C3722 1.391 . S
C3724 C3725 1.400 . S
C3725 C3719 1.491 . S
C3725 C3724 1.400 . S
C3725 C3726 1.398 . S
C3726 H3714 0.950 . S
C3726 C3725 1.398 . S
C3726 C3727 1.391 . S
C3727 H3715 0.950 . S
C3727 C3723 1.393 . S
C3727 C3726 1.391 . S
H3728 C3736 0.950 . S
H3729 C3741 0.950 . S
H3730 C3738 0.950 . S
H3731 C3740 0.950 . S
H3732 C3742 0.950 . S
H3733 C3744 0.950 . S
H3734 C3746 0.950 . S
H3735 C3747 0.950 . S
C3736 H3728 0.950 . S
C3736 C3737 1.386 . S
C3736 C3738 1.391 . S
C3737 C3736 1.386 . S
C3737 C3741 1.393 . S
C3738 H3730 0.950 . S
C3738 C3736 1.391 . S
C3738 C3739 1.400 . S
C3739 C3738 1.400 . S
C3739 C3740 1.398 . S
C3739 C3745 1.491 . S
C3740 H3731 0.950 . S
C3740 C3739 1.398 . S
C3740 C3741 1.391 . S
C3741 H3729 0.950 . S
C3741 C3737 1.393 . S
C3741 C3740 1.391 . S
C3742 H3732 0.950 . S
C3742 C3743 1.386 . S
C3742 C3744 1.391 . S
C3743 C3742 1.386 . S
C3743 C3747 1.393 . S
C3744 H3733 0.950 . S
C3744 C3742 1.391 . S
C3744 C3745 1.400 . S
C3745 C3739 1.491 . S
C3745 C3744 1.400 . S
C3745 C3746 1.398 . S
C3746 H3734 0.950 . S
C3746 C3745 1.398 . S
C3746 C3747 1.391 . S
C3747 H3735 0.950 . S
C3747 C3743 1.393 . S
C3747 C3746 1.391 . S
H3748 C3756 0.950 . S
H3749 C3761 0.950 . S
H3750 C3758 0.950 . S
H3751 C3760 0.950 . S
H3752 C3762 0.950 . S
H3753 C3764 0.950 . S
H3754 C3766 0.950 . S
H3755 C3767 0.950 . S
C3756 H3748 0.950 . S
C3756 C3757 1.386 . S
C3756 C3758 1.391 . S
C3757 C3756 1.386 . S
C3757 C3761 1.393 . S
C3758 H3750 0.950 . S
C3758 C3756 1.391 . S
C3758 C3759 1.400 . S
C3759 C3758 1.400 . S
C3759 C3760 1.398 . S
C3759 C3765 1.491 . S
C3760 H3751 0.950 . S
C3760 C3759 1.398 . S
C3760 C3761 1.391 . S
C3761 H3749 0.950 . S
C3761 C3757 1.393 . S
C3761 C3760 1.391 . S
C3762 H3752 0.950 . S
C3762 C3763 1.386 . S
C3762 C3764 1.391 . S
C3763 C3762 1.386 . S
C3763 C3767 1.393 . S
C3764 H3753 0.950 . S
C3764 C3762 1.391 . S
C3764 C3765 1.400 . S
C3765 C3759 1.491 . S
C3765 C3764 1.400 . S
C3765 C3766 1.398 . S
C3766 H3754 0.950 . S
C3766 C3765 1.398 . S
C3766 C3767 1.391 . S
C3767 H3755 0.950 . S
C3767 C3763 1.393 . S
C3767 C3766 1.391 . S
H3768 C3776 0.950 . S
H3769 C3781 0.950 . S
H3770 C3778 0.950 . S
H3771 C3780 0.950 . S
H3772 C3782 0.950 . S
H3773 C3784 0.950 . S
H3774 C3786 0.950 . S
H3775 C3787 0.950 . S
C3776 H3768 0.950 . S
C3776 C3777 1.386 . S
C3776 C3778 1.391 . S
C3777 C3776 1.386 . S
C3777 C3781 1.393 . S
C3778 H3770 0.950 . S
C3778 C3776 1.391 . S
C3778 C3779 1.400 . S
C3779 C3778 1.400 . S
C3779 C3780 1.398 . S
C3779 C3785 1.491 . S
C3780 H3771 0.950 . S
C3780 C3779 1.398 . S
C3780 C3781 1.391 . S
C3781 H3769 0.950 . S
C3781 C3777 1.393 . S
C3781 C3780 1.391 . S
C3782 H3772 0.950 . S
C3782 C3783 1.386 . S
C3782 C3784 1.391 . S
C3783 C3782 1.386 . S
C3783 C3787 1.393 . S
C3784 H3773 0.950 . S
C3784 C3782 1.391 . S
C3784 C3785 1.400 . S
C3785 C3779 1.491 . S
C3785 C3784 1.400 . S
C3785 C3786 1.398 . S
C3786 H3774 0.950 . S
C3786 C3785 1.398 . S
C3786 C3787 1.391 . S
C3787 H3775 0.950 . S
C3787 C3783 1.393 . S
C3787 C3786 1.391 . S
H3788 C3796 0.950 . S
H3789 C3801 0.950 . S
H3790 C3798 0.950 . S
H3791 C3800 0.950 . S
H3792 C3802 0.950 . S
H3793 C3804 0.950 . S
H3794 C3806 0.950 . S
H3795 C3807 0.950 . S
C3796 H3788 0.950 . S
C3796 C3797 1.386 . S
C3796 C3798 1.391 . S
C3797 C3796 1.386 . S
C3797 C3801 1.393 . S
C3798 H3790 0.950 . S
C3798 C3796 1.391 . S
C3798 C3799 1.400 . S
C3799 C3798 1.400 . S
C3799 C3800 1.398 . S
C3799 C3805 1.491 . S
C3800 H3791 0.950 . S
C3800 C3799 1.398 . S
C3800 C3801 1.391 . S
C3801 H3789 0.950 . S
C3801 C3797 1.393 . S
C3801 C3800 1.391 . S
C3802 H3792 0.950 . S
C3802 C3803 1.386 . S
C3802 C3804 1.391 . S
C3803 C3802 1.386 . S
C3803 C3807 1.393 . S
C3804 H3793 0.950 . S
C3804 C3802 1.391 . S
C3804 C3805 1.400 . S
C3805 C3799 1.491 . S
C3805 C3804 1.400 . S
C3805 C3806 1.398 . S
C3806 H3794 0.950 . S
C3806 C3805 1.398 . S
C3806 C3807 1.391 . S
C3807 H3795 0.950 . S
C3807 C3803 1.393 . S
C3807 C3806 1.391 . S
H3808 C3816 0.950 . S
H3809 C3821 0.950 . S
H3810 C3818 0.950 . S
H3811 C3820 0.950 . S
H3812 C3822 0.950 . S
H3813 C3824 0.950 . S
H3814 C3826 0.950 . S
H3815 C3827 0.950 . S
C3816 H3808 0.950 . S
C3816 C3817 1.386 . S
C3816 C3818 1.391 . S
C3817 C3816 1.386 . S
C3817 C3821 1.393 . S
C3818 H3810 0.950 . S
C3818 C3816 1.391 . S
C3818 C3819 1.400 . S
C3819 C3818 1.400 . S
C3819 C3820 1.398 . S
C3819 C3825 1.491 . S
C3820 H3811 0.950 . S
C3820 C3819 1.398 . S
C3820 C3821 1.391 . S
C3821 H3809 0.950 . S
C3821 C3817 1.393 . S
C3821 C3820 1.391 . S
C3822 H3812 0.950 . S
C3822 C3823 1.386 . S
C3822 C3824 1.391 . S
C3823 C3822 1.386 . S
C3823 C3827 1.393 . S
C3824 H3813 0.950 . S
C3824 C3822 1.391 . S
C3824 C3825 1.400 . S
C3825 C3819 1.491 . S
C3825 C3824 1.400 . S
C3825 C3826 1.398 . S
C3826 H3814 0.950 . S
C3826 C3825 1.398 . S
C3826 C3827 1.391 . S
C3827 H3815 0.950 . S
C3827 C3823 1.393 . S
C3827 C3826 1.391 . S
H3828 C3836 0.950 . S
H3829 C3841 0.950 . S
H3830 C3838 0.950 . S
H3831 C3840 0.950 . S
H3832 C3842 0.950 . S
H3833 C3844 0.950 . S
H3834 C3846 0.950 . S
H3835 C3847 0.950 . S
C3836 H3828 0.950 . S
C3836 C3837 1.386 . S
C3836 C3838 1.391 . S
C3837 C3836 1.386 . S
C3837 C3841 1.393 . S
C3838 H3830 0.950 . S
C3838 C3836 1.391 . S
C3838 C3839 1.400 . S
C3839 C3838 1.400 . S
C3839 C3840 1.398 . S
C3839 C3845 1.491 . S
C3840 H3831 0.950 . S
C3840 C3839 1.398 . S
C3840 C3841 1.391 . S
C3841 H3829 0.950 . S
C3841 C3837 1.393 . S
C3841 C3840 1.391 . S
C3842 H3832 0.950 . S
C3842 C3843 1.386 . S
C3842 C3844 1.391 . S
C3843 C3842 1.386 . S
C3843 C3847 1.393 . S
C3844 H3833 0.950 . S
C3844 C3842 1.391 . S
C3844 C3845 1.400 . S
C3845 C3839 1.491 . S
C3845 C3844 1.400 . S
C3845 C3846 1.398 . S
C3846 H3834 0.950 . S
C3846 C3845 1.398 . S
C3846 C3847 1.391 . S
C3847 H3835 0.950 . S
C3847 C3843 1.393 . S
C3847 C3846 1.391 . S
H3848 C3856 0.950 . S
H3849 C3861 0.950 . S
H3850 C3858 0.950 . S
H3851 C3860 0.950 1_455 S
H3852 C3862 0.950 . S
H3853 C3864 0.950 . S
H3854 C3866 0.950 . S
H3855 C3867 0.950 . S
C3856 H3848 0.950 . S
C3856 C3857 1.386 . S
C3856 C3858 1.391 . S
C3857 C3856 1.386 . S
C3857 C3861 1.393 . S
C3858 H3850 0.950 . S
C3858 C3856 1.391 . S
C3858 C3859 1.400 . S
C3859 C3858 1.400 . S
C3859 C3860 1.398 . S
C3859 C3865 1.513 . S
C3860 H3851 0.950 1_655 S
C3860 C3859 1.398 . S
C3860 C3861 1.391 . S
C3861 H3849 0.950 . S
C3861 C3857 1.393 . S
C3861 C3860 1.391 . S
C3862 H3852 0.950 . S
C3862 C3863 1.386 . S
C3862 C3864 1.391 . S
C3863 C3862 1.386 . S
C3863 C3867 1.393 . S
C3864 H3853 0.950 . S
C3864 C3862 1.391 . S
C3864 C3865 1.364 1_455 S
C3865 C3859 1.513 . S
C3865 C3864 1.364 1_655 S
C3865 C3866 1.412 . S
C3866 H3854 0.950 . S
C3866 C3865 1.412 . S
C3866 C3867 1.391 1_655 S
C3867 H3855 0.950 . S
C3867 C3863 1.393 . S
C3867 C3866 1.391 1_455 S
H3868 C3876 0.950 . S
H3869 C3881 0.950 . S
H3870 C3878 0.950 . S
H3871 C3880 0.950 . S
H3872 C3882 0.950 . S
H3873 C3884 0.950 . S
H3874 C3886 0.950 . S
H3875 C3887 0.950 . S
C3876 H3868 0.950 . S
C3876 C3877 1.386 . S
C3876 C3878 1.391 . S
C3877 C3876 1.386 . S
C3877 C3881 1.393 . S
C3878 H3870 0.950 . S
C3878 C3876 1.391 . S
C3878 C3879 1.400 . S
C3879 C3878 1.400 . S
C3879 C3880 1.398 . S
C3879 C3885 1.491 . S
C3880 H3871 0.950 . S
C3880 C3879 1.398 . S
C3880 C3881 1.391 . S
C3881 H3869 0.950 . S
C3881 C3877 1.393 . S
C3881 C3880 1.391 . S
C3882 H3872 0.950 . S
C3882 C3883 1.386 . S
C3882 C3884 1.391 . S
C3883 C3882 1.386 . S
C3883 C3887 1.393 . S
C3884 H3873 0.950 . S
C3884 C3882 1.391 . S
C3884 C3885 1.400 . S
C3885 C3879 1.491 . S
C3885 C3884 1.400 . S
C3885 C3886 1.398 . S
C3886 H3874 0.950 . S
C3886 C3885 1.398 . S
C3886 C3887 1.391 . S
C3887 H3875 0.950 . S
C3887 C3883 1.393 . S
C3887 C3886 1.391 . S
H3888 C3896 0.950 . S
H3889 C3901 0.950 . S
H3890 C3898 0.950 . S
H3891 C3900 0.950 . S
H3892 C3902 0.950 . S
H3893 C3904 0.950 . S
H3894 C3906 0.950 . S
H3895 C3907 0.950 . S
C3896 H3888 0.950 . S
C3896 C3897 1.386 . S
C3896 C3898 1.391 . S
C3897 C3896 1.386 . S
C3897 C3901 1.393 . S
C3898 H3890 0.950 . S
C3898 C3896 1.391 . S
C3898 C3899 1.400 . S
C3899 C3898 1.400 . S
C3899 C3900 1.398 . S
C3899 C3905 1.491 . S
C3900 H3891 0.950 . S
C3900 C3899 1.398 . S
C3900 C3901 1.391 . S
C3901 H3889 0.950 . S
C3901 C3897 1.393 . S
C3901 C3900 1.391 . S
C3902 H3892 0.950 . S
C3902 C3903 1.386 . S
C3902 C3904 1.391 . S
C3903 C3902 1.386 . S
C3903 C3907 1.393 . S
C3904 H3893 0.950 . S
C3904 C3902 1.391 . S
C3904 C3905 1.400 . S
C3905 C3899 1.491 . S
C3905 C3904 1.400 . S
C3905 C3906 1.398 . S
C3906 H3894 0.950 . S
C3906 C3905 1.398 . S
C3906 C3907 1.391 . S
C3907 H3895 0.950 . S
C3907 C3903 1.393 . S
C3907 C3906 1.391 . S
H3908 C3916 0.950 . S
H3909 C3921 0.950 . S
H3910 C3918 0.950 . S
H3911 C3920 0.950 . S
H3912 C3922 0.950 . S
H3913 C3924 0.950 . S
H3914 C3926 0.950 . S
H3915 C3927 0.950 . S
C3916 H3908 0.950 . S
C3916 C3917 1.386 . S
C3916 C3918 1.391 . S
C3917 C3916 1.386 . S
C3917 C3921 1.393 . S
C3918 H3910 0.950 . S
C3918 C3916 1.391 . S
C3918 C3919 1.400 . S
C3919 C3918 1.400 . S
C3919 C3920 1.398 . S
C3919 C3925 1.491 . S
C3920 H3911 0.950 . S
C3920 C3919 1.398 . S
C3920 C3921 1.391 . S
C3921 H3909 0.950 . S
C3921 C3917 1.393 . S
C3921 C3920 1.391 . S
C3922 H3912 0.950 . S
C3922 C3923 1.386 . S
C3922 C3924 1.391 . S
C3923 C3922 1.386 . S
C3923 C3927 1.393 . S
C3924 H3913 0.950 . S
C3924 C3922 1.391 . S
C3924 C3925 1.400 . S
C3925 C3919 1.491 . S
C3925 C3924 1.400 . S
C3925 C3926 1.398 . S
C3926 H3914 0.950 . S
C3926 C3925 1.398 . S
C3926 C3927 1.391 . S
C3927 H3915 0.950 . S
C3927 C3923 1.393 . S
C3927 C3926 1.391 . S
H3928 C3936 0.950 . S
H3929 C3941 0.950 . S
H3930 C3938 0.950 . S
H3931 C3940 0.950 . S
H3932 C3942 0.950 . S
H3933 C3944 0.950 . S
H3934 C3946 0.941 1_455 S
H3935 C3947 0.950 . S
C3936 H3928 0.950 . S
C3936 C3937 1.386 . S
C3936 C3938 1.391 . S
C3937 C3936 1.386 . S
C3937 C3941 1.393 . S
C3938 H3930 0.950 . S
C3938 C3936 1.391 . S
C3938 C3939 1.400 . S
C3939 C3938 1.400 . S
C3939 C3940 1.398 . S
C3939 C3945 1.491 . S
C3940 H3931 0.950 . S
C3940 C3939 1.398 . S
C3940 C3941 1.391 . S
C3941 H3929 0.950 . S
C3941 C3937 1.393 . S
C3941 C3940 1.391 . S
C3942 H3932 0.950 . S
C3942 C3943 1.386 1_655 S
C3942 C3944 1.391 . S
C3943 C3942 1.386 1_455 S
C3943 C3947 1.393 . S
C3944 H3933 0.950 . S
C3944 C3942 1.391 . S
C3944 C3945 1.400 . S
C3945 C3939 1.491 . S
C3945 C3944 1.400 . S
C3945 C3946 1.398 . S
C3946 H3934 0.941 1_655 S
C3946 C3945 1.398 . S
C3946 C3947 1.391 1_655 S
C3947 H3935 0.950 . S
C3947 C3943 1.393 . S
C3947 C3946 1.391 1_455 S
H3948 C3956 0.950 . S
H3949 C3961 0.950 . S
H3950 C3958 0.950 . S
H3951 C3960 0.950 . S
H3952 C3962 0.950 . S
H3953 C3964 0.950 . S
H3954 C3966 0.950 . S
H3955 C3967 0.950 . S
C3956 H3948 0.950 . S
C3956 C3957 1.386 . S
C3956 C3958 1.391 . S
C3957 C3956 1.386 . S
C3957 C3961 1.393 . S
C3958 H3950 0.950 . S
C3958 C3956 1.391 . S
C3958 C3959 1.400 . S
C3959 C3958 1.400 . S
C3959 C3960 1.398 . S
C3959 C3965 1.491 . S
C3960 H3951 0.950 . S
C3960 C3959 1.398 . S
C3960 C3961 1.391 . S
C3961 H3949 0.950 . S
C3961 C3957 1.393 . S
C3961 C3960 1.391 . S
C3962 H3952 0.950 . S
C3962 C3963 1.386 . S
C3962 C3964 1.391 . S
C3963 C3962 1.386 . S
C3963 C3967 1.393 . S
C3964 H3953 0.950 . S
C3964 C3962 1.391 . S
C3964 C3965 1.400 . S
C3965 C3959 1.491 . S
C3965 C3964 1.400 . S
C3965 C3966 1.398 . S
C3966 H3954 0.950 . S
C3966 C3965 1.398 . S
C3966 C3967 1.391 . S
C3967 H3955 0.950 . S
C3967 C3963 1.393 . S
C3967 C3966 1.391 . S
H3968 C3976 0.950 . S
H3969 C3981 0.950 . S
H3970 C3978 0.950 . S
H3971 C3980 0.950 . S
H3972 C3982 0.950 . S
H3973 C3984 0.950 . S
H3974 C3986 0.950 . S
H3975 C3987 0.950 . S
C3976 H3968 0.950 . S
C3976 C3977 1.386 . S
C3976 C3978 1.391 . S
C3977 C3976 1.386 . S
C3977 C3981 1.393 . S
C3978 H3970 0.950 . S
C3978 C3976 1.391 . S
C3978 C3979 1.400 . S
C3979 C3978 1.400 . S
C3979 C3980 1.398 . S
C3979 C3985 1.491 . S
C3980 H3971 0.950 . S
C3980 C3979 1.398 . S
C3980 C3981 1.391 . S
C3981 H3969 0.950 . S
C3981 C3977 1.393 . S
C3981 C3980 1.391 . S
C3982 H3972 0.950 . S
C3982 C3983 1.386 . S
C3982 C3984 1.391 . S
C3983 C3982 1.386 . S
C3983 C3987 1.393 . S
C3984 H3973 0.950 . S
C3984 C3982 1.391 . S
C3984 C3985 1.400 . S
C3985 C3979 1.491 . S
C3985 C3984 1.400 . S
C3985 C3986 1.398 . S
C3986 H3974 0.950 . S
C3986 C3985 1.398 . S
C3986 C3987 1.391 . S
C3987 H3975 0.950 . S
C3987 C3983 1.393 . S
C3987 C3986 1.391 . S
H3988 C3996 0.950 . S
H3989 C4001 0.950 . S
H3990 C3998 0.950 . S
H3991 C4000 0.950 . S
H3992 C4002 0.950 . S
H3993 C4004 0.950 . S
H3994 C4006 0.950 . S
H3995 C4007 0.950 . S
C3996 H3988 0.950 . S
C3996 C3997 1.386 . S
C3996 C3998 1.391 . S
C3997 C3996 1.386 . S
C3997 C4001 1.393 . S
C3998 H3990 0.950 . S
C3998 C3996 1.391 . S
C3998 C3999 1.400 . S
C3999 C3998 1.400 . S
C3999 C4000 1.398 . S
C3999 C4005 1.491 . S
C4000 H3991 0.950 . S
C4000 C3999 1.398 . S
C4000 C4001 1.391 . S
C4001 H3989 0.950 . S
C4001 C3997 1.393 . S
C4001 C4000 1.391 . S
C4002 H3992 0.950 . S
C4002 C4003 1.386 1_545 S
C4002 C4004 1.391 1_545 S
C4003 C4002 1.386 1_565 S
C4003 C4007 1.393 . S
C4004 H3993 0.950 . S
C4004 C4002 1.391 1_565 S
C4004 C4005 1.400 . S
C4005 C3999 1.491 . S
C4005 C4004 1.400 . S
C4005 C4006 1.398 . S
C4006 H3994 0.950 . S
C4006 C4005 1.398 . S
C4006 C4007 1.391 . S
C4007 H3995 0.950 . S
C4007 C4003 1.393 . S
C4007 C4006 1.391 . S
H4008 C4016 0.950 . S
H4009 C4021 0.950 . S
H4010 C4018 0.950 . S
H4011 C4020 0.950 . S
H4012 C4022 0.950 . S
H4013 C4024 0.950 . S
H4014 C4026 0.950 . S
H4015 C4027 0.950 . S
C4016 H4008 0.950 . S
C4016 C4017 1.386 . S
C4016 C4018 1.391 . S
C4017 C4016 1.386 . S
C4017 C4021 1.393 . S
C4018 H4010 0.950 . S
C4018 C4016 1.391 . S
C4018 C4019 1.400 . S
C4019 C4018 1.400 . S
C4019 C4020 1.398 . S
C4019 C4025 1.491 . S
C4020 H4011 0.950 . S
C4020 C4019 1.398 . S
C4020 C4021 1.391 . S
C4021 H4009 0.950 . S
C4021 C4017 1.393 . S
C4021 C4020 1.391 . S
C4022 H4012 0.950 . S
C4022 C4023 1.386 . S
C4022 C4024 1.391 . S
C4023 C4022 1.386 . S
C4023 C4027 1.393 . S
C4024 H4013 0.950 . S
C4024 C4022 1.391 . S
C4024 C4025 1.400 . S
C4025 C4019 1.491 . S
C4025 C4024 1.400 . S
C4025 C4026 1.398 . S
C4026 H4014 0.950 . S
C4026 C4025 1.398 . S
C4026 C4027 1.391 . S
C4027 H4015 0.950 . S
C4027 C4023 1.393 . S
C4027 C4026 1.391 . S
H4028 C4036 0.950 . S
H4029 C4041 0.950 . S
H4030 C4038 0.950 . S
H4031 C4040 0.950 . S
H4032 C4042 0.950 1_556 S
H4033 C4044 0.951 1_556 S
H4034 C4046 0.950 . S
H4035 C4047 0.950 . S
C4036 H4028 0.950 . S
C4036 C4037 1.386 . S
C4036 C4038 1.391 . S
C4037 C4036 1.386 . S
C4037 C4041 1.393 . S
C4038 H4030 0.950 . S
C4038 C4036 1.391 . S
C4038 C4039 1.400 . S
C4039 C4038 1.400 . S
C4039 C4040 1.398 . S
C4039 C4045 1.491 . S
C4040 H4031 0.950 . S
C4040 C4039 1.398 . S
C4040 C4041 1.391 . S
C4041 H4029 0.950 . S
C4041 C4037 1.393 . S
C4041 C4040 1.391 . S
C4042 H4032 0.950 1_554 S
C4042 C4043 1.386 . S
C4042 C4044 1.391 . S
C4043 C4042 1.386 . S
C4043 C4047 1.393 . S
C4044 H4033 0.951 1_554 S
C4044 C4042 1.391 . S
C4044 C4045 1.400 . S
C4045 C4039 1.491 . S
C4045 C4044 1.400 . S
C4045 C4046 1.398 . S
C4046 H4034 0.950 . S
C4046 C4045 1.398 . S
C4046 C4047 1.391 . S
C4047 H4035 0.950 . S
C4047 C4043 1.393 . S
C4047 C4046 1.391 . S
H4048 C4056 0.950 . S
H4049 C4061 0.950 . S
H4050 C4058 0.950 . S
H4051 C4060 0.950 . S
H4052 C4062 0.950 . S
H4053 C4064 0.950 . S
H4054 C4066 0.950 . S
H4055 C4067 0.950 . S
C4056 H4048 0.950 . S
C4056 C4057 1.386 . S
C4056 C4058 1.391 . S
C4057 C4056 1.386 . S
C4057 C4061 1.393 . S
C4058 H4050 0.950 . S
C4058 C4056 1.391 . S
C4058 C4059 1.400 . S
C4059 C4058 1.400 . S
C4059 C4060 1.398 . S
C4059 C4065 1.491 . S
C4060 H4051 0.950 . S
C4060 C4059 1.398 . S
C4060 C4061 1.391 . S
C4061 H4049 0.950 . S
C4061 C4057 1.393 . S
C4061 C4060 1.391 . S
C4062 H4052 0.950 . S
C4062 C4063 1.386 . S
C4062 C4064 1.391 . S
C4063 C4062 1.386 . S
C4063 C4067 1.393 . S
C4064 H4053 0.950 . S
C4064 C4062 1.391 . S
C4064 C4065 1.400 . S
C4065 C4059 1.491 . S
C4065 C4064 1.400 . S
C4065 C4066 1.398 . S
C4066 H4054 0.950 . S
C4066 C4065 1.398 . S
C4066 C4067 1.391 . S
C4067 H4055 0.950 . S
C4067 C4063 1.393 . S
C4067 C4066 1.391 . S
H4068 C4076 0.950 . S
H4069 C4081 0.950 1_556 S
H4070 C4078 0.950 . S
H4071 C4080 0.950 1_556 S
H4072 C4082 0.950 . S
H4073 C4084 0.950 . S
H4074 C4086 0.950 . S
H4075 C4087 0.950 . S
C4076 H4068 0.950 . S
C4076 C4077 1.386 . S
C4076 C4078 1.391 . S
C4077 C4076 1.386 . S
C4077 C4081 1.393 . S
C4078 H4070 0.950 . S
C4078 C4076 1.391 . S
C4078 C4079 1.400 . S
C4079 C4078 1.400 . S
C4079 C4080 1.398 . S
C4079 C4085 1.491 . S
C4080 H4071 0.950 1_554 S
C4080 C4079 1.398 . S
C4080 C4081 1.391 . S
C4081 H4069 0.950 1_554 S
C4081 C4077 1.393 . S
C4081 C4080 1.391 . S
C4082 H4072 0.950 . S
C4082 C4083 1.386 1_556 S
C4082 C4084 1.391 . S
C4083 C4082 1.386 1_554 S
C4083 C4087 1.393 . S
C4084 H4073 0.950 . S
C4084 C4082 1.391 . S
C4084 C4085 1.400 1_556 S
C4085 C4079 1.491 . S
C4085 C4084 1.400 1_554 S
C4085 C4086 1.398 . S
C4086 H4074 0.950 . S
C4086 C4085 1.398 . S
C4086 C4087 1.391 . S
C4087 H4075 0.950 . S
C4087 C4083 1.393 . S
C4087 C4086 1.391 . S
H4088 C4096 0.950 . S
H4089 C4101 0.950 . S
H4090 C4098 0.950 . S
H4091 C4100 0.950 . S
H4092 C4102 0.950 . S
H4093 C4104 0.950 . S
H4094 C4106 0.950 . S
H4095 C4107 0.950 . S
C4096 H4088 0.950 . S
C4096 C4097 1.386 . S
C4096 C4098 1.391 . S
C4097 C4096 1.386 . S
C4097 C4101 1.393 . S
C4098 H4090 0.950 . S
C4098 C4096 1.391 . S
C4098 C4099 1.400 . S
C4099 C4098 1.400 . S
C4099 C4100 1.398 . S
C4099 C4105 1.491 . S
C4100 H4091 0.950 . S
C4100 C4099 1.398 . S
C4100 C4101 1.391 . S
C4101 H4089 0.950 . S
C4101 C4097 1.393 . S
C4101 C4100 1.391 . S
C4102 H4092 0.950 . S
C4102 C4103 1.386 . S
C4102 C4104 1.391 . S
C4103 C4102 1.386 . S
C4103 C4107 1.393 . S
C4104 H4093 0.950 . S
C4104 C4102 1.391 . S
C4104 C4105 1.400 . S
C4105 C4099 1.491 . S
C4105 C4104 1.400 . S
C4105 C4106 1.398 . S
C4106 H4094 0.950 . S
C4106 C4105 1.398 . S
C4106 C4107 1.391 . S
C4107 H4095 0.950 . S
C4107 C4103 1.393 . S
C4107 C4106 1.391 . S
H4108 C4116 0.950 . S
H4109 C4121 0.950 . S
H4110 C4118 0.950 . S
H4111 C4120 0.950 . S
H4112 C4122 0.950 . S
H4113 C4124 0.950 . S
H4114 C4126 0.950 . S
H4115 C4127 0.950 . S
C4116 H4108 0.950 . S
C4116 C4117 1.386 . S
C4116 C4118 1.391 . S
C4117 C4116 1.386 . S
C4117 C4121 1.393 . S
C4118 H4110 0.950 . S
C4118 C4116 1.391 . S
C4118 C4119 1.400 . S
C4119 C4118 1.400 . S
C4119 C4120 1.398 . S
C4119 C4125 1.491 . S
C4120 H4111 0.950 . S
C4120 C4119 1.398 . S
C4120 C4121 1.391 . S
C4121 H4109 0.950 . S
C4121 C4117 1.393 . S
C4121 C4120 1.391 . S
C4122 H4112 0.950 . S
C4122 C4123 1.386 . S
C4122 C4124 1.391 . S
C4123 C4122 1.386 . S
C4123 C4127 1.393 . S
C4124 H4113 0.950 . S
C4124 C4122 1.391 . S
C4124 C4125 1.400 . S
C4125 C4119 1.491 . S
C4125 C4124 1.400 . S
C4125 C4126 1.398 . S
C4126 H4114 0.950 . S
C4126 C4125 1.398 . S
C4126 C4127 1.391 . S
C4127 H4115 0.950 . S
C4127 C4123 1.393 . S
C4127 C4126 1.391 . S
C2217 C255 1.753 . S
C2223 C931 1.624 . S
C2237 C147 2.187 . S
C2243 C1014 2.146 . S
C2257 C184 1.488 . S
C2263 C1099 1.451 . S
C2283 C1179 1.477 . S
C2277 C220 1.601 . S
C2297 C40 1.513 . S
C2303 C1263 1.484 . S
C2323 C1356 0.981 . S
C2317 C74 1.030 . S
C2343 C1434 0.914 . S
C2337 C110 0.887 . S
C2357 C14 1.429 . S
C2363 C1519 1.281 . S
C2383 C930 2.058 . S
C2377 C579 2.152 . S
C2397 C616 0.710 . S
C2403 C1011 0.749 . S
C2423 C1098 1.232 . S
C2417 C687 1.275 . S
C2443 C1183 1.610 . S
C2437 C436 1.670 . S
C2457 C580 2.104 . S
C2463 C1267 1.960 . S
C2483 C1359 1.132 . S
C2477 C615 1.206 . S
C2503 C1431 0.820 . S
C2497 C688 0.804 . S
C2523 C1518 1.545 . S
C2517 C435 1.671 . S
C2543 C927 1.411 . S
C2537 C410 1.477 . S
C2557 C722 1.996 . S
C2563 C1602 1.928 1_556 S
C2583 C1676 2.283 . S
C2577 C842 2.400 . S
C2603 C1771 0.547 . S
C2597 C794 0.555 . S
C2617 C302 0.968 . S
C2623 C1515 0.946 . S
C2637 C338 1.454 . S
C2643 C1095 1.388 . S
C2657 C830 2.332 . S
C2663 C1854 2.250 . S
C2683 C1939 0.845 . S
C2677 C758 0.821 . S
C2703 C920 1.586 . S
C2697 C158 1.628 . S
C2723 C1947 2.130 . S
C2717 C254 2.200 . S
C2737 C218 1.500 . S
C2743 C1088 1.444 . S
C2757 C194 1.511 . S
C2763 C1860 1.436 . S
C2783 C1272 1.477 . S
C2777 C3 1.525 . S
C2797 C111 0.922 . S
C2803 C1683 0.904 . S
C2823 C1443 0.919 1_565 S
C2817 C76 0.877 . S
C2843 C2012 1.325 . S
C2837 C50 1.387 . S
C2863 C939 1.997 . S
C2857 C364 2.107 . S
C2883 C1944 0.711 . S
C2877 C795 0.694 . S
C2897 C292 1.219 . S
C2903 C1107 1.172 . S
C2917 C723 1.634 . S
C2923 C1844 1.537 . S
C2937 C363 2.127 . S
C2943 C1256 1.946 . S
C2963 C1686 1.128 . S
C2957 C796 1.198 . S
C2977 C291 0.779 . S
C2983 C1440 0.793 . S
C2997 C724 1.660 . S
C3003 C2031 1.515 . S
C3017 C482 1.432 . S
C3023 C936 1.390 1_554 S
C3037 C434 1.966 . S
C3043 C1611 1.886 . S
C3057 C662 2.343 . S
C3063 C1351 2.239 . S
C3077 C614 0.490 . S
C3083 C1760 0.547 . S
C3103 C2028 0.917 . S
C3097 C698 0.856 . S
C3117 C554 1.392 . S
C3123 C1104 1.411 . S
C3143 C1191 2.197 . S
C3137 C650 2.267 . S
C3163 C1004 0.774 . S
C3157 C506 0.766 . S
C3177 C183 1.764 . S
C3183 C2107 1.637 . S
C3203 C1938 2.154 . S
C3197 C219 2.192 . S
C3217 C256 1.484 . S
C3223 C2191 1.444 . S
C3237 C148 1.599 . S
C3243 C1851 1.485 . S
C3257 C122 1.542 . S
C3263 C1599 1.531 . S
C3283 C1692 0.910 . S
C3277 C2 0.979 . S
C3303 C1770 0.876 . S
C3297 C39 0.833 . S
C3323 C2023 1.320 . S
C3317 C86 1.494 . S
C3343 C2106 2.069 . S
C3337 C651 2.163 . S
C3357 C472 0.711 . S
C3363 C1935 0.686 . S
C3383 C2190 1.224 . S
C3377 C507 1.259 . S
C3403 C1855 1.589 . S
C3397 C544 1.686 . S
C3423 C1603 1.976 . S
C3417 C652 2.128 . S
C3437 C471 1.194 . S
C3443 C1695 1.118 . S
C3463 C1767 0.753 . S
C3457 C508 0.799 . S
C3477 C543 1.680 . S
C3483 C2022 1.539 . S
C3503 C2103 1.429 . S
C3497 C806 1.493 . S
C3517 C326 1.969 . S
C3523 C1266 1.906 . S
C3543 C1340 2.250 . S
C3537 C374 2.367 . S
C3563 C1435 0.651 . S
C3557 C398 0.559 . S
C3583 C2019 0.888 . S
C3577 C770 0.919 . S
C3597 C734 1.450 1_554 S
C3603 C2187 1.403 . S
C3623 C1182 2.249 . S
C3617 C362 2.306 . S
C3643 C1015 0.814 . S
C3637 C290 0.860 . S
C3657 C230 1.642 . S
C3663 C2096 1.608 . S
C3683 C1023 2.147 . S
C3677 C182 2.199 . S
C3697 C146 1.501 . S
C3703 C2180 1.459 . S
C3717 C266 1.523 . S
C3723 C1188 1.434 . S
C3737 C75 1.553 . S
C3743 C1608 1.505 . S
C3763 C1347 0.996 . S
C3757 C38 1.039 . S
C3777 C4 0.843 . S
C3783 C1779 0.817 . S
C3797 C112 1.462 . S
C3803 C1508 1.308 . S
C3823 C2115 1.990 . S
C3817 C832 2.104 . S
C3837 C399 0.688 . S
C3843 C1020 0.724 . S
C3863 C2199 1.179 . S
C3857 C760 1.210 . S
C3877 C327 1.635 . S
C3883 C1172 1.539 . S
C3897 C831 2.158 . S
C3903 C1592 1.975 . S
C3923 C1350 1.104 . S
C3917 C400 1.195 . S
C3937 C759 0.796 . S
C3943 C1776 0.779 . S
C3963 C1527 1.520 . S
C3957 C328 1.656 . S
C3983 C2112 1.408 . S
C3977 C626 1.432 . S
C4003 C1275 1.904 1_665 S
C3997 C542 1.971 . S
C4017 C590 2.315 . S
C4023 C1687 2.213 . S
C4043 C1424 0.558 . S
C4037 C470 0.486 . S
C4057 C518 0.794 . S
C4063 C1524 0.872 . S
C4077 C446 1.351 . S
C4083 C2196 1.418 1_554 S
C4103 C1863 2.209 . S
C4097 C578 2.273 1_565 S
C4123 C1928 0.769 . S
C4117 C686 0.742 . S
