# Generated by pormake.
# Topology myd, (4,6)-cn, num edge types: 1
# Building blocks:
#     Node 0, Type 0, BuildingBlock: KOZSID_clean_sbu_0, # of connection points: 4
#     Node 1, Type 0, BuildingBlock: KOZSID_clean_sbu_0, # of connection points: 4
#     Node 2, Type 0, BuildingBlock: KOZSID_clean_sbu_0, # of connection points: 4
#     Node 3, Type 0, BuildingBlock: KOZSID_clean_sbu_0, # of connection points: 4
#     Node 4, Type 0, BuildingBlock: KOZSID_clean_sbu_0, # of connection points: 4
#     Node 5, Type 0, BuildingBlock: KOZSID_clean_sbu_0, # of connection points: 4
#     Node 6, Type 0, BuildingBlock: KOZSID_clean_sbu_0, # of connection points: 4
#     Node 7, Type 0, BuildingBlock: KOZSID_clean_sbu_0, # of connection points: 4
#     Node 8, Type 0, BuildingBlock: KOZSID_clean_sbu_0, # of connection points: 4
#     Node 9, Type 0, BuildingBlock: KOZSID_clean_sbu_0, # of connection points: 4
#     Node 10, Type 0, BuildingBlock: KOZSID_clean_sbu_0, # of connection points: 4
#     Node 11, Type 0, BuildingBlock: KOZSID_clean_sbu_0, # of connection points: 4
#     Node 12, Type 1, BuildingBlock: VOLQOD_clean_sbu_1, # of connection points: 6
#     Node 13, Type 1, BuildingBlock: VOLQOD_clean_sbu_1, # of connection points: 6
#     Node 14, Type 1, BuildingBlock: VOLQOD_clean_sbu_1, # of connection points: 6
#     Node 15, Type 1, BuildingBlock: VOLQOD_clean_sbu_1, # of connection points: 6
#     Node 16, Type 1, BuildingBlock: VOLQOD_clean_sbu_1, # of connection points: 6
#     Node 17, Type 1, BuildingBlock: VOLQOD_clean_sbu_1, # of connection points: 6
#     Node 18, Type 1, BuildingBlock: VOLQOD_clean_sbu_1, # of connection points: 6
#     Node 19, Type 1, BuildingBlock: VOLQOD_clean_sbu_1, # of connection points: 6
#     Edge 20, Type (0, 1), BuildingBlock: MIFKUJ_clean_linker_0, # of connection points: 2
#     Edge 21, Type (0, 1), BuildingBlock: MIFKUJ_clean_linker_0, # of connection points: 2
#     Edge 22, Type (0, 1), BuildingBlock: MIFKUJ_clean_linker_0, # of connection points: 2
#     Edge 23, Type (0, 1), BuildingBlock: MIFKUJ_clean_linker_0, # of connection points: 2
#     Edge 24, Type (0, 1), BuildingBlock: MIFKUJ_clean_linker_0, # of connection points: 2
#     Edge 25, Type (0, 1), BuildingBlock: MIFKUJ_clean_linker_0, # of connection points: 2
#     Edge 26, Type (0, 1), BuildingBlock: MIFKUJ_clean_linker_0, # of connection points: 2
#     Edge 27, Type (0, 1), BuildingBlock: MIFKUJ_clean_linker_0, # of connection points: 2
#     Edge 28, Type (0, 1), BuildingBlock: MIFKUJ_clean_linker_0, # of connection points: 2
#     Edge 29, Type (0, 1), BuildingBlock: MIFKUJ_clean_linker_0, # of connection points: 2
#     Edge 30, Type (0, 1), BuildingBlock: MIFKUJ_clean_linker_0, # of connection points: 2
#     Edge 31, Type (0, 1), BuildingBlock: MIFKUJ_clean_linker_0, # of connection points: 2
#     Edge 32, Type (0, 1), BuildingBlock: MIFKUJ_clean_linker_0, # of connection points: 2
#     Edge 33, Type (0, 1), BuildingBlock: MIFKUJ_clean_linker_0, # of connection points: 2
#     Edge 34, Type (0, 1), BuildingBlock: MIFKUJ_clean_linker_0, # of connection points: 2
#     Edge 35, Type (0, 1), BuildingBlock: MIFKUJ_clean_linker_0, # of connection points: 2
#     Edge 36, Type (0, 1), BuildingBlock: MIFKUJ_clean_linker_0, # of connection points: 2
#     Edge 37, Type (0, 1), BuildingBlock: MIFKUJ_clean_linker_0, # of connection points: 2
#     Edge 38, Type (0, 1), BuildingBlock: MIFKUJ_clean_linker_0, # of connection points: 2
#     Edge 39, Type (0, 1), BuildingBlock: MIFKUJ_clean_linker_0, # of connection points: 2
#     Edge 40, Type (0, 1), BuildingBlock: MIFKUJ_clean_linker_0, # of connection points: 2
#     Edge 41, Type (0, 1), BuildingBlock: MIFKUJ_clean_linker_0, # of connection points: 2
#     Edge 42, Type (0, 1), BuildingBlock: MIFKUJ_clean_linker_0, # of connection points: 2
#     Edge 43, Type (0, 1), BuildingBlock: MIFKUJ_clean_linker_0, # of connection points: 2
#     Edge 44, Type (0, 1), BuildingBlock: MIFKUJ_clean_linker_0, # of connection points: 2
#     Edge 45, Type (0, 1), BuildingBlock: MIFKUJ_clean_linker_0, # of connection points: 2
#     Edge 46, Type (0, 1), BuildingBlock: MIFKUJ_clean_linker_0, # of connection points: 2
#     Edge 47, Type (0, 1), BuildingBlock: MIFKUJ_clean_linker_0, # of connection points: 2
#     Edge 48, Type (0, 1), BuildingBlock: MIFKUJ_clean_linker_0, # of connection points: 2
#     Edge 49, Type (0, 1), BuildingBlock: MIFKUJ_clean_linker_0, # of connection points: 2
#     Edge 50, Type (0, 1), BuildingBlock: MIFKUJ_clean_linker_0, # of connection points: 2
#     Edge 51, Type (0, 1), BuildingBlock: MIFKUJ_clean_linker_0, # of connection points: 2
#     Edge 52, Type (0, 1), BuildingBlock: MIFKUJ_clean_linker_0, # of connection points: 2
#     Edge 53, Type (0, 1), BuildingBlock: MIFKUJ_clean_linker_0, # of connection points: 2
#     Edge 54, Type (0, 1), BuildingBlock: MIFKUJ_clean_linker_0, # of connection points: 2
#     Edge 55, Type (0, 1), BuildingBlock: MIFKUJ_clean_linker_0, # of connection points: 2
#     Edge 56, Type (0, 1), BuildingBlock: MIFKUJ_clean_linker_0, # of connection points: 2
#     Edge 57, Type (0, 1), BuildingBlock: MIFKUJ_clean_linker_0, # of connection points: 2
#     Edge 58, Type (0, 1), BuildingBlock: MIFKUJ_clean_linker_0, # of connection points: 2
#     Edge 59, Type (0, 1), BuildingBlock: MIFKUJ_clean_linker_0, # of connection points: 2
#     Edge 60, Type (0, 1), BuildingBlock: MIFKUJ_clean_linker_0, # of connection points: 2
#     Edge 61, Type (0, 1), BuildingBlock: MIFKUJ_clean_linker_0, # of connection points: 2
#     Edge 62, Type (0, 1), BuildingBlock: MIFKUJ_clean_linker_0, # of connection points: 2
#     Edge 63, Type (0, 1), BuildingBlock: MIFKUJ_clean_linker_0, # of connection points: 2
#     Edge 64, Type (0, 1), BuildingBlock: MIFKUJ_clean_linker_0, # of connection points: 2
#     Edge 65, Type (0, 1), BuildingBlock: MIFKUJ_clean_linker_0, # of connection points: 2
#     Edge 66, Type (0, 1), BuildingBlock: MIFKUJ_clean_linker_0, # of connection points: 2
#     Edge 67, Type (0, 1), BuildingBlock: MIFKUJ_clean_linker_0, # of connection points: 2
# Relax obj value: 0.173
# Max RMSD: 0.165
# Mean RMSD: 0.128
data_MOF--net-myd--node1-KOZSID_clean_sbu_0--node2-VOLQOD_clean_sbu_1--edge1-MIFKUJ_clean_linker_0
_symmetry_space_group_name_H-M    P1
_symmetry_Int_Tables_number       1
_symmetry_cell_setting            triclinic
loop_
_symmetry_equiv_pos_as_xyz
'x, y, z'
_cell_length_a     65.317901
_cell_length_b     65.480324
_cell_length_c     65.475714
_cell_angle_alpha  92.352984
_cell_angle_beta   90.41895
_cell_angle_gamma 92.748113
loop_
_atom_site_label
_atom_site_type_symbol
_atom_site_fract_x
_atom_site_fract_y
_atom_site_fract_z
_atom_type_partial_charge
C0 C 0.97938 0.2733 0.34335 0.0
C1 C 0.95911 0.27649 0.34817 0.0
C2 C 0.94753 0.26164 0.33757 0.0
C3 C 0.96135 0.25038 0.32686 0.0
N4 N 0.98109 0.25677 0.33041 0.0
Co5 Co 0.006 0.24654 0.31628 0.0
N6 N 0.98884 0.22736 0.29781 0.0
C7 C 0.96833 0.2235 0.29876 0.0
C8 C 0.96091 0.20923 0.28433 0.0
C9 C 0.97767 0.2036 0.27353 0.0
C10 C 0.9944 0.2149 0.28199 0.0
N11 N 0.03091 0.2371 0.30163 0.0
C12 C 0.03244 0.22418 0.28507 0.0
C13 C 0.05268 0.22251 0.27914 0.0
C14 C 0.06436 0.23473 0.2925 0.0
C15 C 0.05065 0.24324 0.30568 0.0
N16 N 0.02313 0.26533 0.33514 0.0
C17 C 0.04381 0.26679 0.33662 0.0
C18 C 0.05107 0.28177 0.35045 0.0
C19 C 0.03403 0.29065 0.35793 0.0
C20 C 0.01733 0.28056 0.34812 0.0
N21 N 0.00805 0.22406 0.33587 0.0
C22 C 0.01113 0.18788 0.35769 0.0
C23 C 0.02861 0.1996 0.3525 0.0
C24 C 0.02673 0.2175 0.34184 0.0
C25 C 0.99206 0.19537 0.353 0.0
C26 C 0.99089 0.21339 0.34239 0.0
N27 N 0.004 0.26854 0.29658 0.0
C28 C 0.0195 0.29673 0.27853 0.0
C29 C 0.00161 0.29848 0.26693 0.0
C30 C 0.98481 0.28517 0.27089 0.0
C31 C 0.98625 0.27064 0.28579 0.0
C32 C 0.02041 0.2817 0.29303 0.0
H33 H 0.97287 0.26106 0.28816 0.0
H34 H 0.03458 0.28089 0.30114 0.0
H35 H 0.04071 0.22541 0.33816 0.0
H36 H 0.97588 0.21805 0.33933 0.0
C37 C 0.95627 0.23477 0.31223 0.0
C38 C 0.99644 0.28705 0.35029 0.0
C39 C 0.01523 0.21325 0.27447 0.0
C40 C 0.05584 0.25665 0.32227 0.0
H41 H 0.95328 0.28866 0.35782 0.0
H42 H 0.93097 0.25983 0.33705 0.0
H43 H 0.94514 0.20386 0.28171 0.0
H44 H 0.97757 0.19255 0.26077 0.0
H45 H 0.05843 0.21339 0.26646 0.0
H46 H 0.08087 0.23712 0.29259 0.0
H47 H 0.06689 0.28658 0.35368 0.0
H48 H 0.03389 0.3037 0.36863 0.0
H49 H 0.04379 0.19461 0.35591 0.0
H50 H 0.97801 0.18724 0.35731 0.0
H51 H 0.03283 0.30689 0.2765 0.0
H52 H 0.97064 0.28556 0.26227 0.0
C53 C 0.99361 0.72317 0.13552 0.0
C54 C 0.97522 0.71819 0.1254 0.0
C55 C 0.96086 0.72987 0.13458 0.0
C56 C 0.97133 0.74126 0.14968 0.0
N57 N 0.99157 0.73783 0.15042 0.0
Co58 Co 0.01252 0.75026 0.17029 0.0
N59 N 0.99088 0.76449 0.18629 0.0
C60 C 0.9705 0.76395 0.1822 0.0
C61 C 0.95951 0.77502 0.19612 0.0
C62 C 0.97367 0.78309 0.20998 0.0
C63 C 0.99257 0.77645 0.20365 0.0
N64 N 0.03355 0.76287 0.19002 0.0
C65 C 0.0312 0.77532 0.20678 0.0
C66 C 0.04987 0.7808 0.21625 0.0
C67 C 0.06456 0.77156 0.20499 0.0
C68 C 0.05408 0.761 0.18939 0.0
N69 N 0.03403 0.73564 0.15449 0.0
C70 C 0.0545 0.73672 0.15801 0.0
C71 C 0.06512 0.72387 0.14541 0.0
C72 C 0.05053 0.71361 0.13341 0.0
C73 C 0.0318 0.72095 0.13938 0.0
N74 N 0.01638 0.77446 0.15296 0.0
C75 C 0.02198 0.81111 0.13211 0.0
C76 C 0.03865 0.7996 0.13685 0.0
C77 C 0.03554 0.78151 0.14727 0.0
C78 C 0.00242 0.8036 0.13713 0.0
C79 C 0.99998 0.7853 0.14722 0.0
N80 N 0.00867 0.72636 0.1877 0.0
C81 C 0.02259 0.70164 0.20979 0.0
C82 C 0.00289 0.69492 0.21539 0.0
C83 C 0.98617 0.70348 0.2062 0.0
C84 C 0.98938 0.71889 0.19231 0.0
C85 C 0.02512 0.71736 0.19606 0.0
H86 H 0.97603 0.7248 0.18574 0.0
H87 H 0.0405 0.72231 0.19274 0.0
H88 H 0.04895 0.77381 0.15086 0.0
H89 H 0.98466 0.78051 0.15044 0.0
C90 C 0.9622 0.75319 0.16494 0.0
C91 C 0.01218 0.71235 0.13162 0.0
C92 C 0.01169 0.78228 0.21435 0.0
C93 C 0.06303 0.74868 0.17435 0.0
H94 H 0.9724 0.70672 0.11319 0.0
H95 H 0.94457 0.72934 0.13133 0.0
H96 H 0.94316 0.77706 0.19614 0.0
H97 H 0.97049 0.79289 0.22317 0.0
H98 H 0.05259 0.79042 0.22993 0.0
H99 H 0.08092 0.77232 0.20793 0.0
H100 H 0.08142 0.72158 0.14553 0.0
H101 H 0.05332 0.70162 0.12207 0.0
H102 H 0.05411 0.80488 0.13318 0.0
H103 H 0.98902 0.81188 0.13337 0.0
H104 H 0.03598 0.69537 0.21656 0.0
H105 H 0.97063 0.69845 0.20988 0.0
C106 C 0.36169 0.98526 0.28 0.0
C107 C 0.37144 0.96704 0.28143 0.0
C108 C 0.36591 0.95529 0.26419 0.0
C109 C 0.35318 0.96703 0.25325 0.0
N110 N 0.35052 0.98536 0.26256 0.0
Co111 Co 0.33285 0.0068 0.25309 0.0
N112 N 0.31651 0.98676 0.23537 0.0
C113 C 0.3224 0.96812 0.229 0.0
C114 C 0.30818 0.9578 0.21639 0.0
C115 C 0.29256 0.97088 0.21448 0.0
C116 C 0.29815 0.98857 0.22603 0.0
N117 N 0.31523 0.02845 0.24376 0.0
C118 C 0.29695 0.02681 0.23378 0.0
C119 C 0.29026 0.04605 0.22955 0.0
C120 C 0.30506 0.06008 0.23688 0.0
C121 C 0.31992 0.04873 0.24517 0.0
N122 N 0.34943 0.02662 0.27076 0.0
C123 C 0.35081 0.04704 0.26918 0.0
C124 C 0.36267 0.05665 0.28448 0.0
C125 C 0.36901 0.04128 0.29636 0.0
C126 C 0.36073 0.02308 0.28752 0.0
N127 N 0.35133 0.01188 0.23025 0.0
C128 C 0.37678 0.01899 0.19675 0.0
C129 C 0.3852 0.01638 0.21621 0.0
C130 C 0.37217 0.0129 0.23281 0.0
C131 C 0.35544 0.01773 0.19451 0.0
C132 C 0.34311 0.01427 0.2113 0.0
N133 N 0.31427 0.00171 0.27569 0.0
C134 C 0.29332 0.01438 0.303 0.0
C135 C 0.28593 0.99445 0.3066 0.0
C136 C 0.29347 0.97819 0.29484 0.0
C137 C 0.30772 0.98213 0.27957 0.0
C138 C 0.30739 0.01769 0.28739 0.0
H139 H 0.31321 0.96933 0.27069 0.0
H140 H 0.31243 0.03322 0.28455 0.0
H141 H 0.37891 0.01104 0.24769 0.0
H142 H 0.32682 0.01344 0.20878 0.0
C143 C 0.33998 0.95992 0.23725 0.0
C144 C 0.3638 0.00256 0.29487 0.0
C145 C 0.28697 0.00752 0.22565 0.0
C146 C 0.33703 0.05654 0.25657 0.0
H147 H 0.38127 0.96266 0.29374 0.0
H148 H 0.36972 0.93963 0.26072 0.0
H149 H 0.30889 0.94247 0.20969 0.0
H150 H 0.27886 0.96794 0.20521 0.0
H151 H 0.27641 0.04956 0.2215 0.0
H152 H 0.30482 0.07657 0.23649 0.0
H153 H 0.36522 0.07295 0.28751 0.0
H154 H 0.37825 0.04338 0.31011 0.0
H155 H 0.40164 0.01724 0.21864 0.0
H156 H 0.34818 0.0191 0.17974 0.0
H157 H 0.28772 0.02738 0.31167 0.0
H158 H 0.28824 0.96253 0.2973 0.0
C159 C 0.65162 0.49019 0.23183 0.0
C160 C 0.63952 0.47365 0.22405 0.0
C161 C 0.64554 0.45692 0.23387 0.0
C162 C 0.66093 0.46422 0.24695 0.0
N163 N 0.66475 0.48468 0.24648 0.0
Co164 Co 0.68698 0.50152 0.26136 0.0
N165 N 0.69783 0.4766 0.27367 0.0
C166 C 0.6897 0.4572 0.27179 0.0
C167 C 0.70027 0.44345 0.28245 0.0
C168 C 0.71602 0.45474 0.2918 0.0
C169 C 0.71413 0.4748 0.28625 0.0
N170 N 0.70971 0.51834 0.27553 0.0
C171 C 0.72534 0.51242 0.28724 0.0
C172 C 0.73821 0.52897 0.29372 0.0
C173 C 0.73041 0.54594 0.28581 0.0
C174 C 0.71333 0.53883 0.27496 0.0
N175 N 0.67567 0.52647 0.24959 0.0
C176 C 0.68201 0.54621 0.25353 0.0
C177 C 0.67158 0.55983 0.24253 0.0
C178 C 0.65803 0.54805 0.23058 0.0
C179 C 0.66104 0.52789 0.23505 0.0
N180 N 0.66922 0.5051 0.28577 0.0
C181 C 0.64939 0.50817 0.32384 0.0
C182 C 0.6607 0.52482 0.31634 0.0
C183 C 0.67024 0.52303 0.29739 0.0
C184 C 0.647 0.49041 0.31134 0.0
C185 C 0.65688 0.48925 0.29248 0.0
N186 N 0.70497 0.49793 0.23734 0.0
C187 C 0.72863 0.51228 0.21292 0.0
C188 C 0.73386 0.49276 0.20611 0.0
C189 C 0.72372 0.47586 0.21449 0.0
C190 C 0.70918 0.47877 0.22977 0.0
C191 C 0.71433 0.51451 0.22852 0.0
H192 H 0.70181 0.46532 0.23552 0.0
H193 H 0.71144 0.5298 0.23354 0.0
H194 H 0.67874 0.53625 0.29279 0.0
H195 H 0.65472 0.47516 0.28394 0.0
C196 C 0.67282 0.4522 0.25904 0.0
C197 C 0.65117 0.51052 0.22381 0.0
C198 C 0.72826 0.49154 0.29317 0.0
C199 C 0.69986 0.55111 0.26493 0.0
H200 H 0.62799 0.47366 0.21208 0.0
H201 H 0.63988 0.44122 0.23125 0.0
H202 H 0.69704 0.42712 0.28314 0.0
H203 H 0.72767 0.44887 0.30151 0.0
H204 H 0.75173 0.52881 0.30335 0.0
H205 H 0.73634 0.56161 0.28794 0.0
H206 H 0.67436 0.57625 0.24227 0.0
H207 H 0.64774 0.55355 0.21923 0.0
H208 H 0.66247 0.53915 0.3252 0.0
H209 H 0.63823 0.47712 0.3164 0.0
H210 H 0.73614 0.5258 0.20681 0.0
H211 H 0.7271 0.46045 0.20938 0.0
C212 C 0.30307 0.36609 0.98373 0.0
C213 C 0.30872 0.3728 0.96468 0.0
C214 C 0.29551 0.363 0.95083 0.0
C215 C 0.28264 0.35089 0.9622 0.0
N216 N 0.28652 0.35276 0.98252 0.0
Co217 Co 0.27311 0.33664 0.00459 0.0
N218 N 0.25688 0.31887 0.98399 0.0
C219 C 0.25654 0.32066 0.96346 0.0
C220 C 0.24414 0.30605 0.95331 0.0
C221 C 0.23613 0.29417 0.96822 0.0
C222 C 0.2441 0.30229 0.98668 0.0
N223 N 0.26 0.3204 0.02669 0.0
C224 C 0.24699 0.30364 0.02533 0.0
C225 C 0.24149 0.29704 0.04451 0.0
C226 C 0.25153 0.31 0.05848 0.0
C227 C 0.26251 0.32373 0.04711 0.0
N228 N 0.28946 0.35435 0.0251 0.0
C229 C 0.28831 0.35414 0.0457 0.0
C230 C 0.30247 0.36722 0.05562 0.0
C231 C 0.31367 0.37593 0.04045 0.0
C232 C 0.30562 0.3676 0.02213 0.0
N233 N 0.25014 0.35575 0.00612 0.0
C234 C 0.21284 0.37573 0.00833 0.0
C235 C 0.22417 0.37263 0.02598 0.0
C236 C 0.24266 0.36271 0.02453 0.0
C237 C 0.22125 0.37022 0.98952 0.0
C238 C 0.23992 0.3607 0.98877 0.0
N239 N 0.29555 0.31742 0.00305 0.0
C240 C 0.32007 0.29687 0.01955 0.0
C241 C 0.32517 0.28773 0.00075 0.0
C242 C 0.31583 0.29422 0.9831 0.0
C243 C 0.30135 0.30915 0.98455 0.0
C244 C 0.30518 0.31153 0.02037 0.0
H245 H 0.2948 0.31357 0.97055 0.0
H246 H 0.30138 0.31766 0.03516 0.0
H247 H 0.25021 0.36038 0.03859 0.0
H248 H 0.24538 0.35707 0.97394 0.0
C249 C 0.26874 0.33569 0.9541 0.0
C250 C 0.31472 0.3715 0.00238 0.0
C251 C 0.23936 0.29353 0.00631 0.0
C252 C 0.27574 0.33952 0.05515 0.0
H253 H 0.32156 0.38307 0.96111 0.0
H254 H 0.29599 0.36372 0.93436 0.0
H255 H 0.24151 0.30407 0.93699 0.0
H256 H 0.22574 0.2809 0.96575 0.0
H257 H 0.23129 0.28416 0.04804 0.0
H258 H 0.25104 0.30936 0.07497 0.0
H259 H 0.30511 0.36929 0.07193 0.0
H260 H 0.32679 0.38657 0.04258 0.0
H261 H 0.21836 0.37698 0.04091 0.0
H262 H 0.21328 0.37296 0.97539 0.0
H263 H 0.32701 0.29222 0.0336 0.0
H264 H 0.31961 0.2877 0.9682 0.0
C265 C 0.23035 0.63578 0.46975 0.0
C266 C 0.22703 0.6295 0.44942 0.0
C267 C 0.24131 0.63994 0.43829 0.0
C268 C 0.25237 0.65211 0.4523 0.0
N269 N 0.24633 0.64975 0.47182 0.0
Co270 Co 0.25629 0.66627 0.49674 0.0
N271 N 0.27439 0.68441 0.47986 0.0
C272 C 0.27744 0.68262 0.45946 0.0
C273 C 0.29077 0.69736 0.45223 0.0
C274 C 0.29664 0.70927 0.46902 0.0
C275 C 0.28651 0.70102 0.48558 0.0
N276 N 0.26574 0.683 0.52166 0.0
C277 C 0.27838 0.69999 0.52333 0.0
C278 C 0.28066 0.70722 0.54349 0.0
C279 C 0.26896 0.69434 0.55499 0.0
C280 C 0.26025 0.68007 0.54126 0.0
N281 N 0.23847 0.64794 0.51359 0.0
C282 C 0.23712 0.64813 0.5342 0.0
C283 C 0.2235 0.6335 0.54121 0.0
C284 C 0.21532 0.6237 0.52402 0.0
C285 C 0.22438 0.63311 0.50751 0.0
N286 N 0.27957 0.64795 0.50016 0.0
C287 C 0.31582 0.62694 0.50576 0.0
C288 C 0.30306 0.63129 0.52219 0.0
C289 C 0.28521 0.64177 0.51909 0.0
C290 C 0.30962 0.63224 0.48634 0.0
C291 C 0.29145 0.64234 0.48387 0.0
N292 N 0.2334 0.68477 0.49338 0.0
C293 C 0.20611 0.70444 0.50773 0.0
C294 C 0.20381 0.71433 0.4894 0.0
C295 C 0.21584 0.70845 0.47285 0.0
C296 C 0.23022 0.69358 0.47507 0.0
C297 C 0.22098 0.68985 0.50942 0.0
H298 H 0.23888 0.68971 0.46186 0.0
H299 H 0.22251 0.68317 0.52394 0.0
H300 H 0.27658 0.64511 0.53238 0.0
H301 H 0.28764 0.64577 0.46865 0.0
C302 C 0.2668 0.66751 0.44737 0.0
C303 C 0.21728 0.62925 0.48653 0.0
C304 C 0.28874 0.70963 0.50637 0.0
C305 C 0.24712 0.66362 0.54634 0.0
H306 H 0.21515 0.61909 0.443 0.0
H307 H 0.24272 0.63953 0.42181 0.0
H308 H 0.29544 0.69937 0.43658 0.0
H309 H 0.30709 0.72262 0.46904 0.0
H310 H 0.28989 0.72039 0.54928 0.0
H311 H 0.26707 0.69524 0.57141 0.0
H312 H 0.21927 0.63095 0.55689 0.0
H313 H 0.20329 0.61173 0.52359 0.0
H314 H 0.30723 0.62737 0.53754 0.0
H315 H 0.31886 0.62875 0.47308 0.0
H316 H 0.19702 0.70849 0.52094 0.0
H317 H 0.21427 0.71543 0.45823 0.0
C318 C 0.78329 0.8414 0.47529 0.0
C319 C 0.78794 0.84675 0.45552 0.0
C320 C 0.77365 0.83665 0.44302 0.0
C321 C 0.76121 0.82571 0.45583 0.0
N322 N 0.76639 0.82859 0.47582 0.0
Co323 Co 0.75399 0.81411 0.49951 0.0
N324 N 0.73516 0.7967 0.48092 0.0
C325 C 0.73286 0.79815 0.46047 0.0
C326 C 0.71863 0.78424 0.4519 0.0
C327 C 0.71137 0.77325 0.4678 0.0
C328 C 0.72164 0.78115 0.48524 0.0
N329 N 0.74225 0.79912 0.52318 0.0
C330 C 0.72849 0.78299 0.52342 0.0
C331 C 0.72474 0.77695 0.5432 0.0
C332 C 0.73674 0.7896 0.55588 0.0
C333 C 0.74706 0.80258 0.54321 0.0
N334 N 0.77243 0.83189 0.5181 0.0
C335 C 0.77268 0.83266 0.53877 0.0
C336 C 0.78758 0.84597 0.54718 0.0
C337 C 0.79769 0.85389 0.5309 0.0
C338 C 0.78833 0.84485 0.51348 0.0
N339 N 0.73226 0.83445 0.50218 0.0
C340 C 0.6966 0.85701 0.50578 0.0
C341 C 0.70725 0.85144 0.5231 0.0
C342 C 0.72496 0.84043 0.52097 0.0
C343 C 0.70504 0.85254 0.48668 0.0
C344 C 0.7228 0.84151 0.48527 0.0
N345 N 0.77529 0.7937 0.49685 0.0
C346 C 0.8014 0.77395 0.5119 0.0
C347 C 0.80388 0.76305 0.49338 0.0
C348 C 0.79228 0.76812 0.47651 0.0
C349 C 0.77833 0.78353 0.47851 0.0
C350 C 0.78699 0.78904 0.51334 0.0
H351 H 0.77 0.78683 0.46507 0.0
H352 H 0.78533 0.79657 0.52797 0.0
H353 H 0.73208 0.83653 0.5348 0.0
H354 H 0.72813 0.8384 0.47024 0.0
C355 C 0.74546 0.81159 0.44954 0.0
C356 C 0.79599 0.84784 0.49297 0.0
C357 C 0.7184 0.77306 0.50544 0.0
C358 C 0.76098 0.81846 0.54966 0.0
H359 H 0.80069 0.85648 0.45062 0.0
H360 H 0.77288 0.83667 0.4265 0.0
H361 H 0.71439 0.78202 0.43593 0.0
H362 H 0.70001 0.76066 0.46665 0.0
H363 H 0.71434 0.76473 0.54798 0.0
H364 H 0.73776 0.78939 0.57238 0.0
H365 H 0.7914 0.8487 0.5632 0.0
H366 H 0.81095 0.86447 0.5317 0.0
H367 H 0.70172 0.85518 0.53829 0.0
H368 H 0.69751 0.85668 0.47276 0.0
H369 H 0.81009 0.77044 0.52536 0.0
H370 H 0.79399 0.76023 0.46179 0.0
C371 C 0.48718 0.78975 0.86115 0.0
C372 C 0.46828 0.79402 0.8694 0.0
C373 C 0.45474 0.77884 0.86218 0.0
C374 C 0.4661 0.76632 0.84992 0.0
N375 N 0.48619 0.77225 0.84931 0.0
Co376 Co 0.50779 0.76007 0.83159 0.0
N377 N 0.48727 0.73998 0.81812 0.0
C378 C 0.46728 0.73708 0.82301 0.0
C379 C 0.45712 0.7219 0.81135 0.0
C380 C 0.47149 0.71457 0.79831 0.0
C381 C 0.48968 0.72576 0.8028 0.0
N382 N 0.52929 0.74863 0.81328 0.0
C383 C 0.52756 0.73412 0.79793 0.0
C384 C 0.54632 0.73103 0.78871 0.0
C385 C 0.56036 0.74411 0.79855 0.0
C386 C 0.54946 0.7544 0.81313 0.0
N387 N 0.52836 0.77975 0.84549 0.0
C388 C 0.5489 0.78063 0.84299 0.0
C389 C 0.55883 0.79633 0.85417 0.0
C390 C 0.54368 0.80632 0.86407 0.0
C391 C 0.52534 0.79609 0.85826 0.0
N392 N 0.51329 0.73929 0.85221 0.0
C393 C 0.51995 0.70447 0.87504 0.0
C394 C 0.53623 0.7152 0.86597 0.0
C395 C 0.53263 0.73252 0.85494 0.0
C396 C 0.50055 0.71245 0.87391 0.0
C397 C 0.49762 0.72979 0.86264 0.0
N398 N 0.5023 0.78035 0.81085 0.0
C399 C 0.51449 0.80591 0.78764 0.0
C400 C 0.49482 0.80714 0.77942 0.0
C401 C 0.47885 0.79524 0.78764 0.0
C402 C 0.48286 0.7822 0.80338 0.0
C403 C 0.5179 0.79242 0.80317 0.0
H404 H 0.47005 0.77357 0.80914 0.0
H405 H 0.53332 0.79174 0.80854 0.0
H406 H 0.54572 0.73975 0.84832 0.0
H407 H 0.48239 0.73476 0.86213 0.0
C408 C 0.45817 0.74982 0.83761 0.0
C409 C 0.50538 0.80335 0.8639 0.0
C410 C 0.50872 0.72249 0.79193 0.0
C411 C 0.55785 0.76894 0.82745 0.0
H412 H 0.46457 0.80709 0.8791 0.0
H413 H 0.4384 0.77758 0.86484 0.0
H414 H 0.44108 0.71699 0.81201 0.0
H415 H 0.46885 0.70248 0.78668 0.0
H416 H 0.54957 0.72027 0.77631 0.0
H417 H 0.57663 0.74575 0.79558 0.0
H418 H 0.575 0.8008 0.85409 0.0
H419 H 0.54574 0.82009 0.87374 0.0
H420 H 0.55171 0.71006 0.86703 0.0
H421 H 0.48745 0.70486 0.88091 0.0
H422 H 0.52734 0.81482 0.78167 0.0
H423 H 0.4633 0.79597 0.78193 0.0
C424 C 0.53798 0.28251 0.65984 0.0
C425 C 0.55765 0.28898 0.65437 0.0
C426 C 0.57063 0.27568 0.66257 0.0
C427 C 0.55817 0.262 0.67258 0.0
N428 N 0.53799 0.26542 0.67081 0.0
Co429 Co 0.51471 0.25088 0.68484 0.0
N430 N 0.53389 0.2337 0.69987 0.0
C431 C 0.55425 0.23249 0.69675 0.0
C432 C 0.5633 0.21886 0.70889 0.0
C433 C 0.54779 0.21088 0.72045 0.0
C434 C 0.53012 0.22024 0.71473 0.0
N435 N 0.49148 0.23739 0.69995 0.0
C436 C 0.49178 0.22432 0.71547 0.0
C437 C 0.47219 0.21974 0.72259 0.0
C438 C 0.45905 0.23023 0.71112 0.0
C439 C 0.47131 0.24072 0.69783 0.0
N440 N 0.49549 0.26735 0.66908 0.0
C441 C 0.47481 0.26528 0.66865 0.0
C442 C 0.46581 0.27911 0.6567 0.0
C443 C 0.4817 0.2909 0.64935 0.0
C444 C 0.49953 0.28352 0.65727 0.0
N445 N 0.51257 0.22903 0.66269 0.0
C446 C 0.51061 0.1941 0.63608 0.0
C447 C 0.49305 0.20091 0.64564 0.0
C448 C 0.49432 0.21837 0.65857 0.0
C449 C 0.52883 0.20588 0.63873 0.0
C450 C 0.52946 0.2232 0.65195 0.0
N451 N 0.51688 0.27236 0.70682 0.0
C452 C 0.50159 0.29849 0.72792 0.0
C453 C 0.51997 0.30223 0.7387 0.0
C454 C 0.53687 0.2911 0.73309 0.0
C455 C 0.53506 0.27646 0.71706 0.0
C456 C 0.50032 0.28341 0.71221 0.0
H457 H 0.54852 0.26854 0.71321 0.0
H458 H 0.48578 0.28079 0.70471 0.0
H459 H 0.48033 0.22252 0.66535 0.0
H460 H 0.54395 0.23117 0.6535 0.0
C461 C 0.56482 0.24617 0.68427 0.0
C462 C 0.51979 0.29335 0.65477 0.0
C463 C 0.51018 0.21592 0.72392 0.0
C464 C 0.46437 0.2532 0.68267 0.0
H465 H 0.56211 0.30214 0.64566 0.0
H466 H 0.58719 0.27626 0.66179 0.0
H467 H 0.57937 0.21561 0.70973 0.0
H468 H 0.54935 0.19965 0.73197 0.0
H469 H 0.46782 0.20984 0.73482 0.0
H470 H 0.44253 0.23021 0.71232 0.0
H471 H 0.44961 0.28131 0.65473 0.0
H472 H 0.48023 0.30402 0.64002 0.0
H473 H 0.47844 0.19251 0.64352 0.0
H474 H 0.5428 0.20126 0.63141 0.0
H475 H 0.48813 0.30678 0.73194 0.0
H476 H 0.55145 0.29376 0.74099 0.0
C477 C 0.86881 0.48556 0.78133 0.0
C478 C 0.87712 0.46674 0.78386 0.0
C479 C 0.86914 0.45386 0.76834 0.0
C480 C 0.85649 0.46557 0.75726 0.0
N481 N 0.85619 0.48491 0.76487 0.0
Co482 Co 0.83958 0.50683 0.75471 0.0
N483 N 0.82013 0.48673 0.74065 0.0
C484 C 0.82381 0.46708 0.7357 0.0
C485 C 0.80755 0.45688 0.72576 0.0
C486 C 0.79289 0.47108 0.72417 0.0
C487 C 0.80109 0.48927 0.73317 0.0
N488 N 0.82308 0.52895 0.74457 0.0
C489 C 0.8038 0.52802 0.73676 0.0
C490 C 0.7984 0.54718 0.73078 0.0
C491 C 0.815 0.56039 0.73488 0.0
C492 C 0.8296 0.54866 0.74308 0.0
N493 N 0.85918 0.52672 0.76877 0.0
C494 C 0.8621 0.54663 0.76484 0.0
C495 C 0.87594 0.55664 0.77814 0.0
C496 C 0.88197 0.54207 0.79118 0.0
C497 C 0.87152 0.52389 0.78498 0.0
N498 N 0.85605 0.50775 0.72989 0.0
C499 C 0.87895 0.50976 0.69403 0.0
C500 C 0.88866 0.5076 0.71292 0.0
C501 C 0.87693 0.50682 0.73074 0.0
C502 C 0.85762 0.51062 0.69344 0.0
C503 C 0.8465 0.50943 0.71142 0.0
N504 N 0.82305 0.50595 0.77936 0.0
C505 C 0.80578 0.52347 0.80669 0.0
C506 C 0.79861 0.50475 0.81414 0.0
C507 C 0.80423 0.48663 0.80407 0.0
C508 C 0.81633 0.48756 0.78663 0.0
C509 C 0.81809 0.52374 0.78937 0.0
H510 H 0.82008 0.4734 0.77889 0.0
H511 H 0.82344 0.53835 0.78396 0.0
H512 H 0.8847 0.50552 0.7452 0.0
H513 H 0.83009 0.50994 0.71029 0.0
C514 C 0.84134 0.45812 0.7432 0.0
C515 C 0.87354 0.50401 0.7942 0.0
C516 C 0.7913 0.50901 0.73255 0.0
C517 C 0.8482 0.55599 0.7522 0.0
H518 H 0.88758 0.46274 0.79578 0.0
H519 H 0.87131 0.43763 0.76622 0.0
H520 H 0.80625 0.4409 0.72076 0.0
H521 H 0.77801 0.46841 0.71691 0.0
H522 H 0.78413 0.55112 0.72378 0.0
H523 H 0.81608 0.57669 0.73259 0.0
H524 H 0.88009 0.57285 0.77917 0.0
H525 H 0.89249 0.54473 0.80393 0.0
H526 H 0.90517 0.50691 0.71395 0.0
H527 H 0.84951 0.51197 0.6791 0.0
H528 H 0.80186 0.53781 0.81416 0.0
H529 H 0.79879 0.47185 0.80924 0.0
C530 C 0.16831 0.03385 0.77799 0.0
C531 C 0.16344 0.05392 0.78258 0.0
C532 C 0.16936 0.06508 0.76611 0.0
C533 C 0.17768 0.05133 0.75251 0.0
N534 N 0.17731 0.03229 0.75948 0.0
Co535 Co 0.18904 0.00808 0.7458 0.0
N536 N 0.20695 0.02542 0.72861 0.0
C537 C 0.20421 0.04513 0.72465 0.0
C538 C 0.21879 0.05305 0.7118 0.0
C539 C 0.2313 0.03727 0.70725 0.0
C540 C 0.22365 0.02053 0.71767 0.0
N541 N 0.20062 0.98374 0.73216 0.0
C542 C 0.21788 0.98227 0.72096 0.0
C543 C 0.22025 0.96215 0.71413 0.0
C544 C 0.20363 0.95085 0.72097 0.0
C545 C 0.19211 0.96457 0.73168 0.0
N546 N 0.17104 0.99088 0.7629 0.0
C547 C 0.16518 0.97114 0.75903 0.0
C548 C 0.15278 0.9634 0.77404 0.0
C549 C 0.15085 0.97932 0.78815 0.0
C550 C 0.16229 0.99586 0.78092 0.0
N551 N 0.16765 0.00767 0.7248 0.0
C552 C 0.13763 0.0073 0.6942 0.0
C553 C 0.15819 0.00488 0.68928 0.0
C554 C 0.17287 0.00498 0.70473 0.0
C555 C 0.13228 0.00974 0.71479 0.0
C556 C 0.14759 0.01007 0.72989 0.0
N557 N 0.21042 0.00851 0.76666 0.0
C558 C 0.23029 0.99108 0.79094 0.0
C559 C 0.24156 0.0093 0.79603 0.0
C560 C 0.23677 0.02715 0.7864 0.0
C561 C 0.22105 0.02647 0.77189 0.0
C562 C 0.21488 0.99098 0.77605 0.0
H563 H 0.21756 0.04046 0.76481 0.0
H564 H 0.20666 0.97669 0.77203 0.0
H565 H 0.18849 0.00283 0.70036 0.0
H566 H 0.14324 0.01225 0.74567 0.0
C567 C 0.18993 0.05635 0.73576 0.0
C568 C 0.16389 0.01634 0.79088 0.0
C569 C 0.23118 0.99979 0.71507 0.0
C570 C 0.17514 0.95963 0.7439 0.0
H571 H 0.15671 0.06007 0.7964 0.0
H572 H 0.16888 0.08148 0.76485 0.0
H573 H 0.22049 0.06858 0.70678 0.0
H574 H 0.24434 0.03791 0.69715 0.0
H575 H 0.23254 0.95627 0.70496 0.0
H576 H 0.20066 0.93449 0.7189 0.0
H577 H 0.1468 0.94779 0.7752 0.0
H578 H 0.1422 0.97881 0.80218 0.0
H579 H 0.16288 0.00253 0.67355 0.0
H580 H 0.11649 0.0116 0.71914 0.0
H581 H 0.2337 0.97696 0.79802 0.0
H582 H 0.24508 0.04156 0.79012 0.0
C583 C 0.74314 0.14666 0.96595 0.0
C584 C 0.73848 0.13919 0.94627 0.0
C585 C 0.7511 0.14986 0.93354 0.0
C586 C 0.76268 0.16314 0.94618 0.0
N587 N 0.75845 0.16134 0.96624 0.0
Co588 Co 0.77093 0.17793 0.98994 0.0
N589 N 0.78659 0.19626 0.97113 0.0
C590 C 0.78657 0.19497 0.95043 0.0
C591 C 0.79823 0.2102 0.94177 0.0
C592 C 0.8061 0.22201 0.95786 0.0
C593 C 0.79884 0.21315 0.9755 0.0
N594 N 0.78362 0.19427 0.01369 0.0
C595 C 0.79654 0.21106 0.01399 0.0
C596 C 0.80212 0.21752 0.03381 0.0
C597 C 0.79223 0.2044 0.0465 0.0
C598 C 0.7813 0.1907 0.03377 0.0
N599 N 0.7548 0.1599 0.00867 0.0
C600 C 0.75521 0.16068 0.02935 0.0
C601 C 0.74143 0.14715 0.03789 0.0
C602 C 0.73131 0.13742 0.0217 0.0
C603 C 0.73964 0.14557 0.00419 0.0
N604 N 0.79439 0.15943 0.99046 0.0
C605 C 0.8314 0.13901 0.99262 0.0
C606 C 0.81863 0.14055 0.00955 0.0
C607 C 0.80036 0.15076 0.00815 0.0
C608 C 0.82473 0.14661 0.97428 0.0
C609 C 0.80619 0.15635 0.97346 0.0
N610 N 0.74797 0.19669 0.98947 0.0
C611 C 0.72501 0.21905 0.00737 0.0
C612 C 0.71937 0.22757 0.98905 0.0
C613 C 0.72739 0.21954 0.97087 0.0
C614 C 0.74134 0.20404 0.9714 0.0
C615 C 0.73928 0.20375 0.00724 0.0
H616 H 0.74696 0.19855 0.95705 0.0
H617 H 0.74351 0.1982 0.02172 0.0
H618 H 0.79168 0.15186 0.02178 0.0
H619 H 0.80207 0.16162 0.95896 0.0
C620 C 0.77552 0.17918 0.93959 0.0
C621 C 0.73169 0.14036 0.98375 0.0
C622 C 0.8039 0.22139 0.996 0.0
C623 C 0.76785 0.17512 0.04026 0.0
H624 H 0.72669 0.12772 0.94162 0.0
H625 H 0.7511 0.14879 0.917 0.0
H626 H 0.80064 0.2125 0.92567 0.0
H627 H 0.81601 0.23564 0.95674 0.0
H628 H 0.81221 0.23045 0.03861 0.0
H629 H 0.79271 0.20495 0.06305 0.0
H630 H 0.73859 0.14513 0.05396 0.0
H631 H 0.71881 0.12605 0.0227 0.0
H632 H 0.82313 0.13467 0.02406 0.0
H633 H 0.83391 0.14526 0.96061 0.0
H634 H 0.7191 0.22473 0.02182 0.0
H635 H 0.72307 0.22534 0.95627 0.0
O636 O 0.10985 0.04741 0.0887 0.0
Zn637 Zn 0.08207 0.05291 0.07754 0.0
O638 O 0.08452 0.06393 0.05047 0.0
Zn639 Zn 0.07322 0.09105 0.05058 0.0
Zn640 Zn 0.11335 0.06605 0.04281 0.0
Zn641 Zn 0.06918 0.04554 0.03103 0.0
O642 O 0.04723 0.09058 0.03366 0.0
O643 O 0.04234 0.05788 0.02343 0.0
O644 O 0.06933 0.07259 0.09753 0.0
O645 O 0.06509 0.09983 0.07915 0.0
O646 O 0.09402 0.11254 0.04117 0.0
O647 O 0.12265 0.09556 0.04063 0.0
O648 O 0.1169 0.0536 0.01436 0.0
O649 O 0.06625 0.02575 0.07666 0.0
O650 O 0.08584 0.04054 0.00547 0.0
O651 O 0.06233 0.01832 0.04339 0.0
C652 C 0.128 0.04769 0.08174 0.0
C653 C 0.03627 0.07612 0.02486 0.0
C654 C 0.1134 0.11212 0.0391 0.0
C655 C 0.06391 0.09089 0.09605 0.0
C656 C 0.10463 0.04451 0.00134 0.0
C657 C 0.06077 0.01332 0.06194 0.0
O658 O 0.13185 0.05363 0.06377 0.0
O659 O 0.92731 0.46733 0.08775 0.0
Zn660 Zn 0.9562 0.46323 0.07817 0.0
O661 O 0.95611 0.45242 0.04996 0.0
Zn662 Zn 0.96641 0.42497 0.04949 0.0
Zn663 Zn 0.92815 0.45161 0.03928 0.0
Zn664 Zn 0.9735 0.46969 0.03289 0.0
O665 O 0.99391 0.42417 0.0358 0.0
O666 O 1.00022 0.45621 0.02678 0.0
O667 O 0.96855 0.44399 0.09779 0.0
O668 O 0.97074 0.41574 0.07815 0.0
O669 O 0.94638 0.40457 0.03574 0.0
O670 O 0.91863 0.42258 0.0327 0.0
O671 O 0.92666 0.4657 0.01263 0.0
O672 O 0.97108 0.49082 0.08008 0.0
O673 O 0.95889 0.47557 0.00619 0.0
O674 O 0.98074 0.4964 0.0482 0.0
C675 C 0.90999 0.46754 0.07871 0.0
C676 C 0.00576 0.43792 0.02833 0.0
C677 C 0.92755 0.40574 0.03101 0.0
C678 C 0.97216 0.42508 0.09559 0.0
C679 C 0.94002 0.47362 0.00086 0.0
C680 C 0.97941 0.5023 0.06692 0.0
O681 O 0.90811 0.46308 0.05964 0.0
O682 O 0.09134 0.9067 0.46384 0.0
Zn683 Zn 0.08302 0.93562 0.45949 0.0
O684 O 0.05659 0.93538 0.44525 0.0
Zn685 Zn 0.06059 0.9458 0.41811 0.0
Zn686 Zn 0.04484 0.90734 0.44342 0.0
Zn687 Zn 0.03772 0.95289 0.45985 0.0
O688 O 0.04813 0.9732 0.41531 0.0
O689 O 0.03374 0.97927 0.44538 0.0
O690 O 0.10581 0.94894 0.44302 0.0
O691 O 0.09052 0.95059 0.41276 0.0
O692 O 0.04916 0.9258 0.39638 0.0
O693 O 0.0401 0.89855 0.41394 0.0
O694 O 0.017 0.90546 0.45648 0.0
O695 O 0.08084 0.94975 0.48732 0.0
O696 O 0.01018 0.93797 0.46322 0.0
O697 O 0.04896 0.96025 0.48798 0.0
C698 C 0.08207 0.88912 0.4621 0.0
C699 C 0.03849 0.98486 0.42753 0.0
C700 C 0.04202 0.9074 0.39705 0.0
C701 C 0.10651 0.95251 0.42403 0.0
C702 C 0.00468 0.91899 0.46236 0.0
C703 C 0.06625 0.95834 0.49664 0.0
O704 O 0.06368 0.88706 0.4554 0.0
O705 O 0.96636 0.58105 0.40523 0.0
Zn706 Zn 0.96475 0.57336 0.4346 0.0
O707 O 0.95437 0.54518 0.43675 0.0
Zn708 Zn 0.92779 0.54506 0.45004 0.0
Zn709 Zn 0.95196 0.53255 0.40926 0.0
Zn710 Zn 0.97299 0.52976 0.45297 0.0
O711 O 0.92898 0.53286 0.47783 0.0
O712 O 0.96148 0.5249 0.48099 0.0
O713 O 0.94661 0.59355 0.44892 0.0
O714 O 0.91886 0.57384 0.45494 0.0
O715 O 0.90621 0.52986 0.43256 0.0
O716 O 0.9225 0.52404 0.40337 0.0
O717 O 0.967 0.5065 0.40709 0.0
O718 O 0.99359 0.57641 0.44536 0.0
O719 O 0.97775 0.50215 0.43884 0.0
O720 O 1.00002 0.54579 0.45687 0.0
C721 C 0.96573 0.57091 0.38821 0.0
C722 C 0.94358 0.5263 0.48837 0.0
C723 C 0.90628 0.52309 0.41404 0.0
C724 C 0.92814 0.5914 0.45491 0.0
C725 C 0.97532 0.4957 0.42028 0.0
C726 C 0.00567 0.5642 0.45332 0.0
O727 O 0.96155 0.55168 0.38732 0.0
O728 O 0.41612 0.9626 0.58674 0.0
Zn729 Zn 0.44429 0.95548 0.57751 0.0
O730 O 0.44292 0.9419 0.55041 0.0
Zn731 Zn 0.45248 0.91442 0.55286 0.0
Zn732 Zn 0.41461 0.94054 0.54024 0.0
Zn733 Zn 0.46056 0.9567 0.53129 0.0
O734 O 0.47988 0.91173 0.53969 0.0
O735 O 0.48583 0.94097 0.5243 0.0
O736 O 0.45522 0.93754 0.59923 0.0
O737 O 0.45629 0.90763 0.58224 0.0
O738 O 0.4323 0.89333 0.54062 0.0
O739 O 0.40485 0.91119 0.53523 0.0
O740 O 0.41267 0.95347 0.51274 0.0
O741 O 0.46136 0.9817 0.57675 0.0
O742 O 0.44499 0.96219 0.50528 0.0
O743 O 0.47069 0.98382 0.54428 0.0
C744 C 0.39822 0.961 0.57882 0.0
C745 C 0.49133 0.92334 0.52904 0.0
C746 C 0.41362 0.89424 0.53519 0.0
C747 C 0.45796 0.9184 0.59884 0.0
C748 C 0.426 0.96061 0.50044 0.0
C749 C 0.47035 0.99129 0.56255 0.0
O750 O 0.39522 0.95325 0.56079 0.0
O751 O 0.59451 0.54149 0.61926 0.0
Zn752 Zn 0.56569 0.54371 0.60859 0.0
O753 O 0.56595 0.55249 0.58048 0.0
Zn754 Zn 0.55454 0.57939 0.57909 0.0
Zn755 Zn 0.59415 0.55377 0.57088 0.0
Zn756 Zn 0.5494 0.53298 0.56318 0.0
O757 O 0.52817 0.57795 0.56275 0.0
O758 O 0.52223 0.54468 0.55574 0.0
O759 O 0.55181 0.56389 0.62744 0.0
O760 O 0.54731 0.58984 0.6073 0.0
O761 O 0.57466 0.60008 0.56731 0.0
O762 O 0.60294 0.5827 0.5648 0.0
O763 O 0.59636 0.53803 0.54399 0.0
O764 O 0.5524 0.51534 0.61003 0.0
O765 O 0.56446 0.52642 0.53694 0.0
O766 O 0.54383 0.50673 0.57781 0.0
C767 C 0.61202 0.54109 0.61086 0.0
C768 C 0.51666 0.56308 0.55555 0.0
C769 C 0.59364 0.59921 0.56318 0.0
C770 C 0.54622 0.582 0.62477 0.0
C771 C 0.58322 0.5289 0.53189 0.0
C772 C 0.54529 0.50226 0.59652 0.0
O773 O 0.61415 0.54427 0.5919 0.0
O774 O 0.61227 0.42569 0.98146 0.0
Zn775 Zn 0.60454 0.45488 0.97818 0.0
O776 O 0.57771 0.45615 0.96512 0.0
Zn777 Zn 0.58127 0.46765 0.93823 0.0
Zn778 Zn 0.56544 0.42827 0.96277 0.0
Zn779 Zn 0.55968 0.47356 0.98125 0.0
O780 O 0.56801 0.4946 0.93665 0.0
O781 O 0.55425 0.49997 0.96714 0.0
O782 O 0.62706 0.46757 0.96132 0.0
O783 O 0.61112 0.47361 0.93229 0.0
O784 O 0.56937 0.44827 0.9161 0.0
O785 O 0.56037 0.42063 0.93316 0.0
O786 O 0.53768 0.42643 0.9761 0.0
O787 O 0.60423 0.46913 0.00594 0.0
O788 O 0.53223 0.45862 0.98581 0.0
O789 O 0.57297 0.48103 0.00869 0.0
C790 C 0.60254 0.40838 0.97957 0.0
C791 C 0.55831 0.50581 0.94921 0.0
C792 C 0.56209 0.4299 0.9165 0.0
C793 C 0.62743 0.47354 0.94307 0.0
C794 C 0.52608 0.43986 0.98362 0.0
C795 C 0.59074 0.47854 0.01612 0.0
O796 O 0.58389 0.40695 0.97361 0.0
O797 O 0.48559 0.10066 0.91612 0.0
Zn798 Zn 0.48085 0.0924 0.94513 0.0
O799 O 0.46793 0.06493 0.9455 0.0
Zn800 Zn 0.44089 0.06654 0.95755 0.0
Zn801 Zn 0.46557 0.05332 0.91762 0.0
Zn802 Zn 0.48428 0.04737 0.96185 0.0
O803 O 0.44015 0.05419 0.98513 0.0
O804 O 0.47105 0.04216 0.98917 0.0
O805 O 0.46317 0.11373 0.95836 0.0
O806 O 0.43382 0.09585 0.96235 0.0
O807 O 0.41897 0.05285 0.93924 0.0
O808 O 0.43596 0.04733 0.91042 0.0
O809 O 0.47867 0.02599 0.91497 0.0
O810 O 0.50858 0.09303 0.95863 0.0
O811 O 0.48778 0.02014 0.94688 0.0
O812 O 0.51224 0.06092 0.96731 0.0
C813 C 0.48378 0.09141 0.89865 0.0
C814 C 0.45324 0.04557 0.99596 0.0
C815 C 0.41935 0.04694 0.92048 0.0
C816 C 0.44428 0.11279 0.96316 0.0
C817 C 0.48568 0.01426 0.92814 0.0
C818 C 0.51935 0.07928 0.9659 0.0
O819 O 0.47694 0.07285 0.89687 0.0
H820 H 0.98813 0.15251 0.34896 0.0
H821 H 0.99183 0.11892 0.36303 0.0
H822 H 0.04173 0.14356 0.40147 0.0
H823 H 0.03812 0.17728 0.38743 0.0
H824 H 0.05162 0.10859 0.38399 0.0
H825 H 0.99397 0.13155 0.42124 0.0
H826 H 0.95989 0.1456 0.42595 0.0
H827 H 0.93218 0.09434 0.39124 0.0
H828 H 0.96615 0.08012 0.38607 0.0
H829 H 0.02137 0.01567 0.45037 0.0
H830 H 0.01607 0.05067 0.44046 0.0
H831 H 0.03935 0.0362 0.38039 0.0
H832 H 0.04502 0.00137 0.39023 0.0
H833 H 0.9935 0.06737 0.41214 0.0
H834 H 0.06655 0.07699 0.36304 0.0
H835 H 0.10139 0.06406 0.36127 0.0
H836 H 0.09974 0.05255 0.42534 0.0
H837 H 0.06502 0.06567 0.42756 0.0
C838 C 0.99968 0.1509 0.36066 0.0
C839 C 0.01278 0.16766 0.36711 0.0
C840 C 0.0018 0.13163 0.36867 0.0
C841 C 0.01693 0.1287 0.38348 0.0
C842 C 0.02996 0.14541 0.39004 0.0
C843 C 0.0279 0.16469 0.38197 0.0
C844 C 0.01957 0.10805 0.39159 0.0
C845 C 0.0389 0.09961 0.39017 0.0
C846 C 0.0031 0.09639 0.4 0.0
C847 C 0.98263 0.10486 0.40313 0.0
C848 C 0.98063 0.12335 0.41448 0.0
C849 C 0.96133 0.13133 0.41726 0.0
C850 C 0.94389 0.12089 0.40887 0.0
C851 C 0.94571 0.10242 0.39772 0.0
C852 C 0.96498 0.09438 0.39488 0.0
C853 C 0.02526 0.01988 0.43501 0.0
C854 C 0.03376 0.00568 0.42116 0.0
C855 C 0.02219 0.03992 0.42935 0.0
C856 C 0.0276 0.0462 0.40978 0.0
C857 C 0.03543 0.03186 0.39571 0.0
C858 C 0.03857 0.01188 0.40136 0.0
C859 C 0.02543 0.06779 0.40412 0.0
C860 C 0.0062 0.07638 0.40599 0.0
C861 C 0.0421 0.07977 0.39651 0.0
C862 C 0.06311 0.07213 0.3954 0.0
C863 C 0.07366 0.07178 0.37677 0.0
C864 C 0.09338 0.0644 0.37568 0.0
C865 C 0.10274 0.05742 0.39316 0.0
C866 C 0.09244 0.05788 0.41179 0.0
C867 C 0.07273 0.06527 0.41296 0.0
H868 H 0.11799 0.05169 0.39228 0.0
H869 H 0.92896 0.1271 0.41103 0.0
H870 H 0.00213 0.32156 0.32932 0.0
H871 H 0.99889 0.35704 0.34199 0.0
H872 H 0.98047 0.33553 0.40086 0.0
H873 H 0.98342 0.29997 0.38795 0.0
H874 H 0.95768 0.36678 0.38974 0.0
H875 H 0.02902 0.35351 0.39304 0.0
H876 H 0.06182 0.34203 0.37945 0.0
H877 H 0.06218 0.38896 0.33552 0.0
H878 H 0.02915 0.40048 0.34858 0.0
H879 H 0.97733 0.46267 0.44436 0.0
H880 H 0.98152 0.42694 0.43309 0.0
H881 H 0.9891 0.44525 0.371 0.0
H882 H 0.98446 0.48091 0.38203 0.0
H883 H 0.01788 0.41556 0.38506 0.0
H884 H 0.94574 0.42714 0.38017 0.0
H885 H 0.91244 0.43817 0.39296 0.0
H886 H 0.91391 0.39438 0.43994 0.0
H887 H 0.94738 0.38327 0.42757 0.0
C888 C 0.9972 0.32452 0.34488 0.0
C889 C 0.99293 0.30826 0.35771 0.0
C890 C 0.99545 0.34471 0.35215 0.0
C891 C 0.98971 0.34896 0.37248 0.0
C892 C 0.98494 0.33262 0.38515 0.0
C893 C 0.98662 0.31238 0.37783 0.0
C894 C 0.98922 0.37047 0.3806 0.0
C895 C 0.97095 0.37734 0.389 0.0
C896 C 0.00643 0.38438 0.37932 0.0
C897 C 0.02651 0.37775 0.37169 0.0
C898 C 0.03602 0.36131 0.3804 0.0
C899 C 0.05466 0.35479 0.37279 0.0
C900 C 0.06407 0.36474 0.35661 0.0
C901 C 0.05487 0.38126 0.34804 0.0
C902 C 0.03619 0.38779 0.35555 0.0
C903 C 0.98021 0.45913 0.42836 0.0
C904 C 0.98054 0.47459 0.41407 0.0
C905 C 0.98249 0.43872 0.42195 0.0
C906 C 0.9855 0.4335 0.40121 0.0
C907 C 0.98679 0.449 0.38707 0.0
C908 C 0.9841 0.46934 0.39339 0.0
C909 C 0.98637 0.41178 0.39411 0.0
C910 C 0.0047 0.40491 0.3859 0.0
C911 C 0.96925 0.39787 0.39559 0.0
C912 C 0.94918 0.40456 0.40311 0.0
C913 C 0.93907 0.42001 0.39336 0.0
C914 C 0.92014 0.42624 0.40049 0.0
C915 C 0.9111 0.41703 0.4173 0.0
C916 C 0.92095 0.40153 0.42695 0.0
C917 C 0.93989 0.39525 0.41988 0.0
H918 H 0.89644 0.42187 0.4228 0.0
H919 H 0.0785 0.35967 0.35073 0.0
H920 H 0.00652 0.84704 0.14521 0.0
H921 H 0.0117 0.88054 0.13051 0.0
H922 H 0.04892 0.85401 0.08307 0.0
H923 H 0.04439 0.82052 0.09836 0.0
H924 H 0.06614 0.88828 0.09539 0.0
H925 H 0.99806 0.86831 0.07441 0.0
H926 H 0.96222 0.8555 0.07811 0.0
H927 H 0.95049 0.90694 0.11839 0.0
H928 H 0.98635 0.91992 0.11517 0.0
H929 H 0.06245 0.97872 0.03734 0.0
H930 H 0.05408 0.94339 0.04656 0.0
H931 H 0.03465 0.96503 0.10606 0.0
H932 H 0.04343 0.00033 0.09718 0.0
H933 H 0.00781 0.93246 0.08394 0.0
H934 H 0.07826 0.95021 0.1053 0.0
H935 H 0.11366 0.96279 0.09868 0.0
H936 H 0.12013 0.91399 0.0537 0.0
H937 H 0.08455 0.90141 0.0597 0.0
C938 C 0.01568 0.84837 0.13155 0.0
C939 C 0.02493 0.83123 0.12279 0.0
C940 C 0.01857 0.86749 0.1231 0.0
C941 C 0.03033 0.86977 0.10538 0.0
C942 C 0.03971 0.85264 0.09668 0.0
C943 C 0.03712 0.83354 0.10538 0.0
C944 C 0.03326 0.89018 0.09638 0.0
C945 C 0.05331 0.89773 0.09256 0.0
C946 C 0.01659 0.90269 0.09276 0.0
C947 C 0.99495 0.89501 0.09466 0.0
C948 C 0.98788 0.87683 0.08416 0.0
C949 C 0.96755 0.86954 0.08616 0.0
C950 C 0.9541 0.88038 0.0985 0.0
C951 C 0.96093 0.89855 0.10884 0.0
C952 C 0.98125 0.9059 0.10691 0.0
C953 C 0.05614 0.97597 0.05228 0.0
C954 C 0.05368 0.99226 0.06659 0.0
C955 C 0.05142 0.95581 0.05752 0.0
C956 C 0.04383 0.9517 0.07698 0.0
C957 C 0.04047 0.96797 0.09095 0.0
C958 C 0.04557 0.98808 0.08589 0.0
C959 C 0.04055 0.9304 0.0833 0.0
C960 C 0.0205 0.92278 0.08661 0.0
C961 C 0.05715 0.91769 0.08607 0.0
C962 C 0.07866 0.92503 0.08276 0.0
C963 C 0.08716 0.94228 0.09386 0.0
C964 C 0.10727 0.94939 0.09024 0.0
C965 C 0.11913 0.93922 0.07575 0.0
C966 C 0.11092 0.92188 0.06489 0.0
C967 C 0.09077 0.91476 0.06838 0.0
H968 H 0.13469 0.94475 0.07294 0.0
H969 H 0.93837 0.87471 0.10003 0.0
H970 H 0.99635 0.67982 0.15111 0.0
H971 H 0.99391 0.64397 0.13867 0.0
H972 H 0.02197 0.66108 0.08195 0.0
H973 H 0.02385 0.69713 0.09429 0.0
H974 H 0.98981 0.63416 0.07552 0.0
H975 H 0.04975 0.63879 0.11827 0.0
H976 H 0.06932 0.64824 0.14987 0.0
H977 H 0.02967 0.60803 0.18363 0.0
H978 H 0.00966 0.59855 0.15228 0.0
H979 H 0.0005 0.53044 0.04424 0.0
H980 H 0.01004 0.56602 0.05421 0.0
H981 H 0.98402 0.55746 0.1138 0.0
H982 H 0.97484 0.52182 0.10419 0.0
H983 H 0.0189 0.58045 0.11681 0.0
H984 H 0.95701 0.57887 0.0757 0.0
H985 H 0.93591 0.57028 0.04486 0.0
H986 H 0.9783 0.60525 0.00872 0.0
H987 H 0.9998 0.61382 0.03932 0.0
C988 C 0.0019 0.67582 0.13597 0.0
C989 C 0.01047 0.69092 0.12365 0.0
C990 C 0.00064 0.65542 0.12894 0.0
C991 C 0.00814 0.64985 0.10955 0.0
C992 C 0.01625 0.66507 0.09701 0.0
C993 C 0.0174 0.68554 0.10403 0.0
C994 C 0.00731 0.62809 0.10242 0.0
C995 C 0.99651 0.62245 0.08432 0.0
C996 C 0.01576 0.61282 0.11414 0.0
C997 C 0.02813 0.61804 0.13293 0.0
C998 C 0.04515 0.63201 0.13245 0.0
C999 C 0.05632 0.63738 0.15032 0.0
C1000 C 0.05073 0.62876 0.16875 0.0
C1001 C 0.03399 0.61469 0.16934 0.0
C1002 C 0.02274 0.60929 0.15151 0.0
C1003 C 0.99697 0.53606 0.05954 0.0
C1004 C 0.98672 0.52333 0.07335 0.0
C1005 C 0.0024 0.55642 0.06518 0.0
C1006 C 0.99744 0.56445 0.08463 0.0
C1007 C 0.98796 0.55157 0.09871 0.0
C1008 C 0.98266 0.5312 0.09314 0.0
C1009 C 0.00113 0.58649 0.09006 0.0
C1010 C 0.01246 0.5922 0.10785 0.0
C1011 C 0.9931 0.60182 0.07811 0.0
C1012 C 0.98012 0.59679 0.05974 0.0
C1013 C 0.9619 0.5846 0.06114 0.0
C1014 C 0.94986 0.57976 0.04372 0.0
C1015 C 0.95579 0.58717 0.02483 0.0
C1016 C 0.97375 0.59949 0.02335 0.0
C1017 C 0.98586 0.60436 0.04073 0.0
H1018 H 0.94645 0.5834 0.01135 0.0
H1019 H 0.05937 0.63296 0.18258 0.0
H1020 H 0.4123 0.00062 0.18548 0.0
H1021 H 0.43006 0.00317 0.15261 0.0
H1022 H 0.38759 0.04731 0.13382 0.0
H1023 H 0.37035 0.0455 0.16662 0.0
H1024 H 0.391 0.00971 0.10733 0.0
H1025 H 0.43136 0.0649 0.14295 0.0
H1026 H 0.45469 0.07909 0.1703 0.0
H1027 H 0.49978 0.03652 0.15203 0.0
H1028 H 0.47656 0.02186 0.12474 0.0
H1029 H 0.41822 0.05409 0.0164 0.0
H1030 H 0.40948 0.04671 0.05144 0.0
H1031 H 0.46678 0.01759 0.05882 0.0
H1032 H 0.47596 0.02539 0.02363 0.0
H1033 H 0.45934 0.0414 0.09179 0.0
H1034 H 0.42191 0.98872 0.05391 0.0
H1035 H 0.39923 0.97312 0.02671 0.0
H1036 H 0.34944 0.00778 0.04939 0.0
H1037 H 0.37189 0.02383 0.07656 0.0
C1038 C 0.40711 0.01126 0.17455 0.0
C1039 C 0.3897 0.0226 0.17852 0.0
C1040 C 0.41719 0.0126 0.15577 0.0
C1041 C 0.40992 0.02524 0.14077 0.0
C1042 C 0.39326 0.03732 0.14514 0.0
C1043 C 0.38339 0.03618 0.16387 0.0
C1044 C 0.41845 0.02495 0.11991 0.0
C1045 C 0.40591 0.01669 0.10387 0.0
C1046 C 0.43822 0.0333 0.11561 0.0
C1047 C 0.45212 0.04209 0.13201 0.0
C1048 C 0.44616 0.0584 0.14492 0.0
C1049 C 0.45938 0.06657 0.16037 0.0
C1050 C 0.47868 0.05866 0.16295 0.0
C1051 C 0.48481 0.0426 0.15005 0.0
C1052 C 0.47163 0.03436 0.13458 0.0
C1053 C 0.42897 0.046 0.02535 0.0
C1054 C 0.44776 0.04022 0.0171 0.0
C1055 C 0.4239 0.04172 0.04542 0.0
C1056 C 0.43731 0.03129 0.05769 0.0
C1057 C 0.45615 0.02557 0.0496 0.0
C1058 C 0.46133 0.02997 0.02947 0.0
C1059 C 0.43154 0.02681 0.07901 0.0
C1060 C 0.44457 0.03407 0.09517 0.0
C1061 C 0.41229 0.01725 0.0835 0.0
C1062 C 0.39864 0.00758 0.06722 0.0
C1063 C 0.40616 0.99313 0.05302 0.0
C1064 C 0.39334 0.98419 0.03762 0.0
C1065 C 0.37291 0.98948 0.0363 0.0
C1066 C 0.36526 0.0037 0.05042 0.0
C1067 C 0.37803 0.0127 0.06585 0.0
H1068 H 0.36301 0.98254 0.02436 0.0
H1069 H 0.4889 0.06502 0.17491 0.0
H1070 H 0.61418 0.52276 0.21073 0.0
H1071 H 0.60189 0.52331 0.17514 0.0
H1072 H 0.66032 0.50299 0.15408 0.0
H1073 H 0.67256 0.50271 0.18957 0.0
H1074 H 0.64576 0.53204 0.12993 0.0
H1075 H 0.6206 0.46937 0.15979 0.0
H1076 H 0.60192 0.44934 0.1854 0.0
H1077 H 0.54618 0.47759 0.16996 0.0
H1078 H 0.56463 0.49805 0.14445 0.0
H1079 H 0.62771 0.47846 0.03588 0.0
H1080 H 0.63577 0.48979 0.07104 0.0
H1081 H 0.57357 0.50763 0.07942 0.0
H1082 H 0.56523 0.49613 0.04416 0.0
H1083 H 0.5865 0.48486 0.11032 0.0
H1084 H 0.61152 0.54398 0.07655 0.0
H1085 H 0.63079 0.56329 0.05081 0.0
H1086 H 0.68721 0.54119 0.0732 0.0
H1087 H 0.66826 0.52149 0.09889 0.0
C1088 C 0.62436 0.51872 0.19838 0.0
C1089 C 0.6442 0.51268 0.20257 0.0
C1090 C 0.61739 0.51898 0.17816 0.0
C1091 C 0.63017 0.51303 0.16202 0.0
C1092 C 0.65026 0.5077 0.16631 0.0
C1093 C 0.65721 0.50745 0.18647 0.0
C1094 C 0.62234 0.51099 0.14074 0.0
C1095 C 0.63284 0.52169 0.12559 0.0
C1096 C 0.60517 0.49786 0.13523 0.0
C1097 C 0.59404 0.48541 0.15039 0.0
C1098 C 0.60439 0.47142 0.16196 0.0
C1099 C 0.59384 0.45998 0.17644 0.0
C1100 C 0.57289 0.46223 0.17935 0.0
C1101 C 0.56243 0.47589 0.16772 0.0
C1102 C 0.57292 0.48742 0.15325 0.0
C1103 C 0.61573 0.48491 0.0451 0.0
C1104 C 0.5958 0.48634 0.03718 0.0
C1105 C 0.62041 0.49151 0.06518 0.0
C1106 C 0.60532 0.49977 0.07775 0.0
C1107 C 0.58545 0.50138 0.06991 0.0
C1108 C 0.58074 0.49482 0.04976 0.0
C1109 C 0.61018 0.5056 0.09939 0.0
C1110 C 0.59915 0.49555 0.11464 0.0
C1111 C 0.62693 0.51925 0.10496 0.0
C1112 C 0.63843 0.53114 0.08958 0.0
C1113 C 0.62802 0.54311 0.0759 0.0
C1114 C 0.63889 0.55415 0.06132 0.0
C1115 C 0.66021 0.55344 0.06034 0.0
C1116 C 0.6707 0.54172 0.07397 0.0
C1117 C 0.6599 0.53064 0.08856 0.0
H1118 H 0.66859 0.56199 0.04905 0.0
H1119 H 0.56475 0.45336 0.19057 0.0
H1120 H 0.4003 0.01431 0.31368 0.0
H1121 H 0.41068 0.00851 0.34896 0.0
H1122 H 0.35268 0.97611 0.35875 0.0
H1123 H 0.34205 0.98268 0.32366 0.0
H1124 H 0.36237 0.00064 0.39093 0.0
H1125 H 0.39764 0.9511 0.35006 0.0
H1126 H 0.42019 0.93955 0.3223 0.0
H1127 H 0.47053 0.97619 0.34901 0.0
H1128 H 0.44818 0.98822 0.37678 0.0
H1129 H 0.38882 0.952 0.48163 0.0
H1130 H 0.37844 0.95995 0.4471 0.0
H1131 H 0.43746 0.99045 0.43783 0.0
H1132 H 0.44822 0.98194 0.4722 0.0
H1133 H 0.42739 0.96762 0.40544 0.0
H1134 H 0.3921 0.01696 0.44656 0.0
H1135 H 0.36939 0.02866 0.47414 0.0
H1136 H 0.31903 0.99242 0.44695 0.0
H1137 H 0.34151 0.9803 0.41934 0.0
C1138 C 0.38971 0.00624 0.32353 0.0
C1139 C 0.37026 0.99926 0.31621 0.0
C1140 C 0.39571 0.00271 0.34359 0.0
C1141 C 0.38254 0.9917 0.35653 0.0
C1142 C 0.3631 0.98468 0.34912 0.0
C1143 C 0.35705 0.98836 0.32911 0.0
C1144 C 0.38904 0.98741 0.37774 0.0
C1145 C 0.37647 0.99319 0.39408 0.0
C1146 C 0.40767 0.97812 0.38195 0.0
C1147 C 0.42119 0.9707 0.3654 0.0
C1148 C 0.41349 0.95679 0.34995 0.0
C1149 C 0.42624 0.95015 0.33421 0.0
C1150 C 0.44677 0.95716 0.33387 0.0
C1151 C 0.45461 0.97079 0.34929 0.0
C1152 C 0.44192 0.97751 0.36503 0.0
C1153 C 0.39957 0.96054 0.47233 0.0
C1154 C 0.41935 0.9664 0.47977 0.0
C1155 C 0.39357 0.96516 0.45255 0.0
C1156 C 0.40703 0.9761 0.43987 0.0
C1157 C 0.42676 0.98202 0.44729 0.0
C1158 C 0.43287 0.9772 0.46699 0.0
C1159 C 0.40073 0.98087 0.4187 0.0
C1160 C 0.41333 0.97514 0.40233 0.0
C1161 C 0.38212 0.99021 0.41447 0.0
C1162 C 0.36854 0.99759 0.43098 0.0
C1163 C 0.37622 0.01139 0.44654 0.0
C1164 C 0.36338 0.01811 0.46216 0.0
C1165 C 0.34279 0.01125 0.46232 0.0
C1166 C 0.33498 0.99771 0.44682 0.0
C1167 C 0.34776 0.99092 0.43117 0.0
H1168 H 0.33288 0.01646 0.47444 0.0
H1169 H 0.45662 0.952 0.32167 0.0
H1170 H 0.66849 0.52433 0.35841 0.0
H1171 H 0.65563 0.52493 0.39333 0.0
H1172 H 0.59912 0.49405 0.37224 0.0
H1173 H 0.61177 0.49375 0.33703 0.0
H1174 H 0.59307 0.52655 0.39998 0.0
H1175 H 0.63359 0.46736 0.39551 0.0
H1176 H 0.66455 0.44857 0.38749 0.0
H1177 H 0.69942 0.4872 0.43093 0.0
H1178 H 0.66872 0.50642 0.439 0.0
H1179 H 0.55981 0.50959 0.50114 0.0
H1180 H 0.56975 0.50278 0.46565 0.0
H1181 H 0.63074 0.528 0.47947 0.0
H1182 H 0.62113 0.53445 0.51496 0.0
H1183 H 0.63259 0.49528 0.45463 0.0
H1184 H 0.59445 0.55638 0.4569 0.0
H1185 H 0.56469 0.57709 0.46459 0.0
H1186 H 0.52666 0.53695 0.42525 0.0
H1187 H 0.55617 0.51583 0.41753 0.0
C1188 C 0.65321 0.51789 0.36113 0.0
C1189 C 0.64113 0.50902 0.34493 0.0
C1190 C 0.64597 0.51806 0.38113 0.0
C1191 C 0.62653 0.50931 0.3854 0.0
C1192 C 0.61422 0.50079 0.36926 0.0
C1193 C 0.6215 0.50052 0.3492 0.0
C1194 C 0.61919 0.5091 0.40678 0.0
C1195 C 0.60147 0.51938 0.41188 0.0
C1196 C 0.63045 0.50014 0.42236 0.0
C1197 C 0.64887 0.48842 0.41775 0.0
C1198 C 0.64788 0.47193 0.40326 0.0
C1199 C 0.66539 0.46119 0.39872 0.0
C1200 C 0.68395 0.46671 0.40866 0.0
C1201 C 0.68503 0.48295 0.42323 0.0
C1202 C 0.66758 0.49375 0.42781 0.0
C1203 C 0.57542 0.51346 0.4967 0.0
C1204 C 0.58962 0.52271 0.51092 0.0
C1205 C 0.58104 0.50966 0.47637 0.0
C1206 C 0.6009 0.51519 0.46981 0.0
C1207 C 0.61532 0.52363 0.48415 0.0
C1208 C 0.60976 0.52735 0.50447 0.0
C1209 C 0.60657 0.51296 0.44792 0.0
C1210 C 0.62401 0.50223 0.44271 0.0
C1211 C 0.59518 0.5217 0.43227 0.0
C1212 C 0.57744 0.5344 0.43684 0.0
C1213 C 0.5797 0.55188 0.45002 0.0
C1214 C 0.56289 0.56371 0.45436 0.0
C1215 C 0.54378 0.5583 0.44547 0.0
C1216 C 0.54146 0.54109 0.43216 0.0
C1217 C 0.55822 0.52919 0.42779 0.0
H1218 H 0.53078 0.56747 0.44884 0.0
H1219 H 0.69749 0.45839 0.40511 0.0
H1220 H 0.17825 0.35894 0.99002 0.0
H1221 H 0.14351 0.37095 0.99222 0.0
H1222 H 0.16548 0.42241 0.031 0.0
H1223 H 0.20025 0.40977 0.02954 0.0
H1224 H 0.13154 0.40874 0.04532 0.0
H1225 H 0.152 0.42626 0.97827 0.0
H1226 H 0.16585 0.42076 0.94365 0.0
H1227 H 0.11712 0.37603 0.92922 0.0
H1228 H 0.10313 0.38105 0.96386 0.0
H1229 H 0.03995 0.46364 0.02884 0.0
H1230 H 0.07558 0.45433 0.02407 0.0
H1231 H 0.05515 0.39155 0.01103 0.0
H1232 H 0.01952 0.40058 0.01642 0.0
H1233 H 0.08831 0.4133 0.98316 0.0
H1234 H 0.07027 0.3952 0.05258 0.0
H1235 H 0.05656 0.40301 0.08686 0.0
H1236 H 0.10175 0.45245 0.09587 0.0
H1237 H 0.11549 0.44513 0.06145 0.0
C1238 C 0.17567 0.3729 0.99889 0.0
C1239 C 0.19194 0.38356 0.00944 0.0
C1240 C 0.15581 0.37982 1.00007 0.0
C1241 C 0.15184 0.39789 0.01138 0.0
C1242 C 0.16811 0.40849 0.02209 0.0
C1243 C 0.18796 0.40131 0.02124 0.0
C1244 C 0.13065 0.40536 0.01239 0.0
C1245 C 0.12229 0.41002 0.03165 0.0
C1246 C 0.11832 0.4069 0.99463 0.0
C1247 C 0.12661 0.40392 0.97373 0.0
C1248 C 0.14431 0.41516 0.96776 0.0
C1249 C 0.15217 0.41214 0.94813 0.0
C1250 C 0.14239 0.39803 0.93426 0.0
C1251 C 0.12469 0.38695 0.93998 0.0
C1252 C 0.11677 0.38989 0.95961 0.0
C1253 C 0.04302 0.44791 0.02467 0.0
C1254 C 0.02695 0.43282 0.02301 0.0
C1255 C 0.06336 0.44262 0.02203 0.0
C1256 C 0.0679 0.42227 0.01727 0.0
C1257 C 0.05188 0.40734 0.01469 0.0
C1258 C 0.03158 0.41252 0.01781 0.0
C1259 C 0.08945 0.41638 0.01596 0.0
C1260 C 0.09778 0.41209 0.9967 0.0
C1261 C 0.10186 0.41549 0.03363 0.0
C1262 C 0.09372 0.4198 0.05435 0.0
C1263 C 0.07713 0.40788 0.06178 0.0
C1264 C 0.06939 0.41218 0.08126 0.0
C1265 C 0.07824 0.42826 0.09352 0.0
C1266 C 0.09489 0.44003 0.08634 0.0
C1267 C 0.10265 0.43581 0.06685 0.0
H1268 H 0.07224 0.43156 0.1086 0.0
H1269 H 0.14851 0.39571 0.91907 0.0
H1270 H 0.20229 0.59466 0.46523 0.0
H1271 H 0.16632 0.58424 0.45848 0.0
H1272 H 0.14779 0.63542 0.49661 0.0
H1273 H 0.18359 0.64723 0.501 0.0
H1274 H 0.13719 0.57138 0.47814 0.0
H1275 H 0.1026 0.65146 0.48531 0.0
H1276 H 0.11316 0.68741 0.47937 0.0
H1277 H 0.15614 0.66765 0.43426 0.0
H1278 H 0.14566 0.63161 0.43974 0.0
H1279 H 0.03032 0.5546 0.48499 0.0
H1280 H 0.06609 0.56622 0.49116 0.0
H1281 H 0.06523 0.60013 0.43595 0.0
H1282 H 0.02913 0.58978 0.43069 0.0
H1283 H 0.08576 0.62149 0.46113 0.0
H1284 H 0.08783 0.55102 0.44023 0.0
H1285 H 0.0791 0.51398 0.44078 0.0
H1286 H 0.10346 0.51259 0.50178 0.0
H1287 H 0.1121 0.54969 0.50168 0.0
C1288 C 0.19044 0.60405 0.47147 0.0
C1289 C 0.19559 0.6222 0.48286 0.0
C1290 C 0.1699 0.5979 0.46797 0.0
C1291 C 0.15417 0.60935 0.47653 0.0
C1292 C 0.15947 0.62678 0.48905 0.0
C1293 C 0.17994 0.6334 0.49177 0.0
C1294 C 0.13229 0.603 0.47251 0.0
C1295 C 0.126 0.58235 0.4743 0.0
C1296 C 0.11763 0.61716 0.46708 0.0
C1297 C 0.12344 0.63883 0.46307 0.0
C1298 C 0.11418 0.6548 0.47401 0.0
C1299 C 0.12019 0.67519 0.47076 0.0
C1300 C 0.13536 0.67981 0.4565 0.0
C1301 C 0.14444 0.66405 0.44534 0.0
C1302 C 0.13847 0.64364 0.44852 0.0
C1303 C 0.03782 0.56463 0.47429 0.0
C1304 C 0.02708 0.5713 0.45737 0.0
C1305 C 0.05829 0.57115 0.47771 0.0
C1306 C 0.06859 0.58373 0.46378 0.0
C1307 C 0.0577 0.59049 0.44696 0.0
C1308 C 0.03708 0.58453 0.44392 0.0
C1309 C 0.09069 0.58983 0.46661 0.0
C1310 C 0.097 0.61048 0.46475 0.0
C1311 C 0.10554 0.57549 0.4709 0.0
C1312 C 0.10044 0.55316 0.47101 0.0
C1313 C 0.09121 0.54283 0.4538 0.0
C1314 C 0.08629 0.52183 0.45403 0.0
C1315 C 0.09068 0.51095 0.47132 0.0
C1316 C 0.10004 0.52104 0.4884 0.0
C1317 C 0.10497 0.54206 0.48827 0.0
H1318 H 0.08686 0.49469 0.47147 0.0
H1319 H 0.14006 0.6956 0.45408 0.0
H1320 H 0.80926 0.88703 0.48632 0.0
H1321 H 0.84484 0.90013 0.4823 0.0
H1322 H 0.86591 0.83929 0.48943 0.0
H1323 H 0.83034 0.8264 0.49383 0.0
H1324 H 0.88956 0.86668 0.51092 0.0
H1325 H 0.86302 0.85996 0.44254 0.0
H1326 H 0.83864 0.8653 0.41457 0.0
H1327 H 0.85173 0.93018 0.42047 0.0
H1328 H 0.87594 0.92525 0.44875 0.0
H1329 H 0.98911 0.8802 0.46843 0.0
H1330 H 0.95354 0.86935 0.47502 0.0
H1331 H 0.93618 0.93201 0.47396 0.0
H1332 H 0.97179 0.94308 0.46744 0.0
H1333 H 0.91066 0.90482 0.44999 0.0
H1334 H 0.93832 0.91059 0.51822 0.0
H1335 H 0.96293 0.90423 0.54571 0.0
H1336 H 0.9482 0.83968 0.53902 0.0
H1337 H 0.92371 0.84563 0.51127 0.0
C1338 C 0.82158 0.87658 0.48696 0.0
C1339 C 0.81733 0.85579 0.49019 0.0
C1340 C 0.84183 0.88398 0.48463 0.0
C1341 C 0.85804 0.87064 0.48533 0.0
C1342 C 0.85368 0.84986 0.48882 0.0
C1343 C 0.83345 0.84249 0.49122 0.0
C1344 C 0.87955 0.87829 0.48239 0.0
C1345 C 0.89421 0.87482 0.49749 0.0
C1346 C 0.88556 0.88925 0.46504 0.0
C1347 C 0.87114 0.89225 0.44792 0.0
C1348 C 0.86058 0.87538 0.43799 0.0
C1349 C 0.84681 0.87833 0.42206 0.0
C1350 C 0.8436 0.89807 0.41578 0.0
C1351 C 0.85421 0.9149 0.42538 0.0
C1352 C 0.86796 0.91204 0.44136 0.0
C1353 C 0.97778 0.89172 0.46972 0.0
C1354 C 0.98332 0.91253 0.46742 0.0
C1355 C 0.95746 0.88548 0.47354 0.0
C1356 C 0.94226 0.89989 0.47506 0.0
C1357 C 0.94771 0.92066 0.47285 0.0
C1358 C 0.96808 0.92696 0.46922 0.0
C1359 C 0.92061 0.89316 0.47849 0.0
C1360 C 0.90595 0.89677 0.46346 0.0
C1361 C 0.91465 0.88216 0.4958 0.0
C1362 C 0.92931 0.87855 0.51253 0.0
C1363 C 0.94045 0.89502 0.52249 0.0
C1364 C 0.95436 0.8915 0.53814 0.0
C1365 C 0.95717 0.87156 0.54407 0.0
C1366 C 0.94603 0.85511 0.53439 0.0
C1367 C 0.93212 0.85855 0.51872 0.0
H1368 H 0.96794 0.86886 0.55619 0.0
H1369 H 0.83293 0.90033 0.40344 0.0
H1370 H 0.353 0.64075 0.49217 0.0
H1371 H 0.38646 0.62723 0.4989 0.0
H1372 H 0.3575 0.57895 0.53306 0.0
H1373 H 0.324 0.59313 0.52709 0.0
H1374 H 0.38916 0.59217 0.55279 0.0
H1375 H 0.37852 0.57121 0.48303 0.0
H1376 H 0.37019 0.57464 0.44658 0.0
H1377 H 0.42168 0.61725 0.44088 0.0
H1378 H 0.43016 0.6143 0.47738 0.0
H1379 H 0.48234 0.53737 0.55367 0.0
H1380 H 0.44757 0.54564 0.54342 0.0
H1381 H 0.46968 0.60645 0.52923 0.0
H1382 H 0.50432 0.59853 0.53996 0.0
H1383 H 0.4411 0.58342 0.4986 0.0
H1384 H 0.44891 0.60482 0.57055 0.0
H1385 H 0.45689 0.59875 0.60661 0.0
H1386 H 0.4095 0.55098 0.6069 0.0
H1387 H 0.40147 0.55657 0.57071 0.0
C1388 C 0.35378 0.62712 0.50093 0.0
C1389 C 0.33592 0.61789 0.50899 0.0
C1390 C 0.37292 0.61932 0.5047 0.0
C1391 C 0.37459 0.60176 0.51616 0.0
C1392 C 0.35668 0.59247 0.52414 0.0
C1393 C 0.33755 0.60053 0.52071 0.0
C1394 C 0.39508 0.5937 0.52049 0.0
C1395 C 0.40031 0.58992 0.54081 0.0
C1396 C 0.40988 0.59086 0.50499 0.0
C1397 C 0.40488 0.59265 0.483 0.0
C1398 C 0.38799 0.58142 0.47404 0.0
C1399 C 0.38325 0.58327 0.45336 0.0
C1400 C 0.39537 0.59619 0.44143 0.0
C1401 C 0.41229 0.60726 0.45015 0.0
C1402 C 0.41708 0.60549 0.47083 0.0
C1403 C 0.47983 0.55243 0.54817 0.0
C1404 C 0.49604 0.56733 0.54768 0.0
C1405 C 0.45998 0.55712 0.54237 0.0
C1406 C 0.45612 0.57665 0.53562 0.0
C1407 C 0.47239 0.59129 0.53438 0.0
C1408 C 0.49213 0.58676 0.54058 0.0
C1409 C 0.43497 0.58221 0.53075 0.0
C1410 C 0.42973 0.5855 0.5104 0.0
C1411 C 0.42003 0.5842 0.54611 0.0
C1412 C 0.42477 0.58094 0.56787 0.0
C1413 C 0.44034 0.59288 0.57825 0.0
C1414 C 0.44484 0.58956 0.59872 0.0
C1415 C 0.43376 0.57444 0.60902 0.0
C1416 C 0.4181 0.56266 0.59889 0.0
C1417 C 0.41356 0.5659 0.5784 0.0
H1418 H 0.43726 0.57189 0.62487 0.0
H1419 H 0.39168 0.59759 0.42543 0.0
H1420 H 0.50363 0.69021 0.91069 0.0
H1421 H 0.50774 0.65662 0.92508 0.0
H1422 H 0.54718 0.64015 0.87512 0.0
H1423 H 0.54288 0.67341 0.86053 0.0
H1424 H 0.51804 0.60996 0.88221 0.0
H1425 H 0.56698 0.65335 0.92181 0.0
H1426 H 0.57763 0.68292 0.94461 0.0
H1427 H 0.53619 0.66154 0.99056 0.0
H1428 H 0.52508 0.63197 0.9679 0.0
H1429 H 0.56813 0.52447 0.91381 0.0
H1430 H 0.55908 0.5581 0.90333 0.0
H1431 H 0.5256 0.56731 0.95923 0.0
H1432 H 0.53506 0.53361 0.97016 0.0
H1433 H 0.54765 0.60111 0.9511 0.0
H1434 H 0.50042 0.5565 0.91321 0.0
H1435 H 0.48905 0.52692 0.89073 0.0
H1436 H 0.52557 0.55053 0.84197 0.0
H1437 H 0.5374 0.58012 0.86424 0.0
C1438 C 0.51316 0.67942 0.90279 0.0
C1439 C 0.52303 0.68454 0.88452 0.0
C1440 C 0.51559 0.66028 0.91108 0.0
C1441 C 0.52786 0.64591 0.90123 0.0
C1442 C 0.53767 0.651 0.883 0.0
C1443 C 0.53535 0.67011 0.87479 0.0
C1444 C 0.53035 0.6254 0.90959 0.0
C1445 C 0.52468 0.60802 0.89721 0.0
C1446 C 0.53831 0.62285 0.92944 0.0
C1447 C 0.54503 0.64058 0.94308 0.0
C1448 C 0.56001 0.65505 0.93671 0.0
C1449 C 0.56616 0.67179 0.94962 0.0
C1450 C 0.55755 0.67414 0.969 0.0
C1451 C 0.54282 0.65972 0.97553 0.0
C1452 C 0.5366 0.64296 0.96267 0.0
C1453 C 0.55875 0.53353 0.92391 0.0
C1454 C 0.55223 0.52621 0.94282 0.0
C1455 C 0.55351 0.5528 0.91782 0.0
C1456 C 0.54134 0.56515 0.9303 0.0
C1457 C 0.53492 0.55802 0.94928 0.0
C1458 C 0.54029 0.53872 0.95548 0.0
C1459 C 0.53578 0.58562 0.92352 0.0
C1460 C 0.54081 0.603 0.93619 0.0
C1461 C 0.52706 0.58819 0.90397 0.0
C1462 C 0.51991 0.57046 0.89046 0.0
C1463 C 0.50614 0.55532 0.89774 0.0
C1464 C 0.4996 0.53856 0.88503 0.0
C1465 C 0.50661 0.53683 0.86495 0.0
C1466 C 0.52016 0.55188 0.85753 0.0
C1467 C 0.52676 0.56867 0.87019 0.0
H1468 H 0.50153 0.52384 0.85514 0.0
H1469 H 0.56233 0.68711 0.97898 0.0
H1470 H 0.50223 0.81883 0.90295 0.0
H1471 H 0.50014 0.85492 0.91424 0.0
H1472 H 0.50245 0.87235 0.85137 0.0
H1473 H 0.50497 0.83628 0.84024 0.0
H1474 H 0.52654 0.89769 0.8744 0.0
H1475 H 0.45744 0.87064 0.8781 0.0
H1476 H 0.42956 0.84662 0.88839 0.0
H1477 H 0.44193 0.86316 0.95157 0.0
H1478 H 0.47016 0.88704 0.94166 0.0
H1479 H 0.48828 0.99767 0.88919 0.0
H1480 H 0.49312 0.96193 0.87883 0.0
H1481 H 0.49754 0.94667 0.94209 0.0
H1482 H 0.4928 0.98239 0.95264 0.0
H1483 H 0.4704 0.92041 0.91929 0.0
H1484 H 0.53951 0.94828 0.91455 0.0
H1485 H 0.56674 0.97253 0.90324 0.0
H1486 H 0.55301 0.95488 0.84056 0.0
H1487 H 0.52548 0.93072 0.85149 0.0
C1488 C 0.5022 0.83046 0.89165 0.0
C1489 C 0.50354 0.82501 0.8708 0.0
C1490 C 0.50097 0.851 0.89804 0.0
C1491 C 0.50088 0.86636 0.88363 0.0
C1492 C 0.50246 0.86081 0.86276 0.0
C1493 C 0.50379 0.84028 0.8564 0.0
C1494 C 0.49915 0.8882 0.8903 0.0
C1495 C 0.51411 0.90268 0.88401 0.0
C1496 C 0.48314 0.8947 0.90313 0.0
C1497 C 0.46606 0.88048 0.90914 0.0
C1498 C 0.45433 0.86904 0.89419 0.0
C1499 C 0.43845 0.85546 0.89995 0.0
C1500 C 0.43401 0.85333 0.92062 0.0
C1501 C 0.44541 0.86481 0.93557 0.0
C1502 C 0.46135 0.87837 0.92989 0.0
C1503 C 0.49047 0.98677 0.90092 0.0
C1504 C 0.49017 0.99294 0.92176 0.0
C1505 C 0.49327 0.96635 0.89496 0.0
C1506 C 0.49574 0.95166 0.90969 0.0
C1507 C 0.49565 0.95777 0.93048 0.0
C1508 C 0.49305 0.97822 0.93647 0.0
C1509 C 0.49779 0.92982 0.90341 0.0
C1510 C 0.48284 0.91536 0.90973 0.0
C1511 C 0.51368 0.92338 0.89045 0.0
C1512 C 0.5303 0.93783 0.88384 0.0
C1513 C 0.54218 0.94969 0.89834 0.0
C1514 C 0.5577 0.9634 0.892 0.0
C1515 C 0.56157 0.96528 0.87119 0.0
C1516 C 0.54998 0.95342 0.85668 0.0
C1517 C 0.53442 0.93971 0.86294 0.0
H1518 H 0.57359 0.9759 0.86631 0.0
H1519 H 0.4217 0.84281 0.92505 0.0
H1520 H 0.51494 0.30743 0.61654 0.0
H1521 H 0.51798 0.34312 0.6063 0.0
H1522 H 0.53284 0.36279 0.66862 0.0
H1523 H 0.52943 0.3271 0.67883 0.0
H1524 H 0.50541 0.38693 0.65231 0.0
H1525 H 0.56974 0.36028 0.63259 0.0
H1526 H 0.59238 0.33605 0.61538 0.0
H1527 H 0.56746 0.35024 0.55705 0.0
H1528 H 0.54441 0.37432 0.57396 0.0
H1529 H 0.54691 0.48693 0.63476 0.0
H1530 H 0.54093 0.45147 0.64411 0.0
H1531 H 0.52583 0.43394 0.58139 0.0
H1532 H 0.53202 0.46938 0.57179 0.0
H1533 H 0.55254 0.40859 0.59731 0.0
H1534 H 0.4886 0.43598 0.61743 0.0
H1535 H 0.46623 0.4602 0.63506 0.0
H1536 H 0.49098 0.44481 0.69307 0.0
H1537 H 0.51371 0.42069 0.67577 0.0
C1538 C 0.51884 0.31946 0.62795 0.0
C1539 C 0.5219 0.31477 0.64841 0.0
C1540 C 0.52065 0.33977 0.62213 0.0
C1541 C 0.52578 0.35561 0.63668 0.0
C1542 C 0.52883 0.35082 0.65716 0.0
C1543 C 0.52698 0.33053 0.66297 0.0
C1544 C 0.52791 0.37718 0.63057 0.0
C1545 C 0.51589 0.39173 0.64045 0.0
C1546 C 0.54125 0.38333 0.61478 0.0
C1547 C 0.5552 0.36896 0.60456 0.0
C1548 C 0.56896 0.35812 0.61611 0.0
C1549 C 0.58189 0.34442 0.6064 0.0
C1550 C 0.58133 0.34157 0.58514 0.0
C1551 C 0.56786 0.35244 0.57353 0.0
C1552 C 0.55487 0.36612 0.58316 0.0
C1553 C 0.54212 0.47561 0.62295 0.0
C1554 C 0.53995 0.48106 0.6025 0.0
C1555 C 0.53865 0.45532 0.62835 0.0
C1556 C 0.5328 0.44007 0.61348 0.0
C1557 C 0.53033 0.44547 0.59311 0.0
C1558 C 0.5338 0.46577 0.58768 0.0
C1559 C 0.53005 0.41836 0.61906 0.0
C1560 C 0.54198 0.40379 0.6091 0.0
C1561 C 0.51669 0.41221 0.63483 0.0
C1562 C 0.50299 0.42666 0.64528 0.0
C1563 C 0.48939 0.43788 0.63394 0.0
C1564 C 0.47662 0.45157 0.64387 0.0
C1565 C 0.47722 0.45408 0.66517 0.0
C1566 C 0.49055 0.44287 0.67658 0.0
C1567 C 0.50336 0.42917 0.66671 0.0
H1568 H 0.46732 0.46469 0.67283 0.0
H1569 H 0.59135 0.33097 0.57765 0.0
H1570 H 0.49374 0.15829 0.64874 0.0
H1571 H 0.49386 0.12462 0.63139 0.0
H1572 H 0.52686 0.15052 0.58104 0.0
H1573 H 0.52684 0.18456 0.5985 0.0
H1574 H 0.49124 0.12266 0.57038 0.0
H1575 H 0.55365 0.12459 0.60858 0.0
H1576 H 0.57579 0.13149 0.63897 0.0
H1577 H 0.53951 0.08785 0.67214 0.0
H1578 H 0.51694 0.08091 0.64206 0.0
H1579 H 0.4907 0.01706 0.53662 0.0
H1580 H 0.5045 0.05193 0.54458 0.0
H1581 H 0.48508 0.04697 0.6071 0.0
H1582 H 0.47165 0.0122 0.59947 0.0
H1583 H 0.52219 0.06572 0.60551 0.0
H1584 H 0.45612 0.07009 0.57128 0.0
H1585 H 0.43184 0.0639 0.5424 0.0
H1586 H 0.47344 0.09602 0.50305 0.0
H1587 H 0.49808 0.10217 0.53168 0.0
C1588 C 0.50085 0.15688 0.63389 0.0
C1589 C 0.51018 0.17401 0.62489 0.0
C1590 C 0.50105 0.13764 0.62408 0.0
C1591 C 0.51053 0.13514 0.60507 0.0
C1592 C 0.51957 0.15222 0.59577 0.0
C1593 C 0.51959 0.17155 0.60574 0.0
C1594 C 0.51063 0.11449 0.59519 0.0
C1595 C 0.49847 0.11023 0.57766 0.0
C1596 C 0.51986 0.09837 0.60495 0.0
C1597 C 0.53354 0.10229 0.62305 0.0
C1598 C 0.55031 0.11655 0.62239 0.0
C1599 C 0.56295 0.12046 0.63956 0.0
C1600 C 0.55905 0.11013 0.65748 0.0
C1601 C 0.54252 0.09583 0.65825 0.0
C1602 C 0.52982 0.09188 0.64112 0.0
C1603 C 0.48953 0.02334 0.55211 0.0
C1604 C 0.47992 0.01188 0.56737 0.0
C1605 C 0.4974 0.04327 0.5566 0.0
C1606 C 0.49564 0.05208 0.57638 0.0
C1607 C 0.48665 0.04044 0.59174 0.0
C1608 C 0.47887 0.02057 0.58731 0.0
C1609 C 0.50211 0.07374 0.58117 0.0
C1610 C 0.5155 0.07817 0.59778 0.0
C1611 C 0.49385 0.08999 0.57067 0.0
C1612 C 0.47903 0.08635 0.55352 0.0
C1613 C 0.46015 0.07569 0.55642 0.0
C1614 C 0.44631 0.07221 0.54011 0.0
C1615 C 0.45113 0.0795 0.52088 0.0
C1616 C 0.46976 0.09034 0.51794 0.0
C1617 C 0.48366 0.09383 0.5342 0.0
H1618 H 0.4404 0.0768 0.50828 0.0
H1619 H 0.56885 0.11319 0.67076 0.0
H1620 H 0.90758 0.48397 0.67919 0.0
H1621 H 0.92398 0.48445 0.64549 0.0
H1622 H 0.89263 0.53885 0.63193 0.0
H1623 H 0.87623 0.53837 0.66537 0.0
H1624 H 0.90343 0.48201 0.60741 0.0
H1625 H 0.92467 0.5687 0.60335 0.0
H1626 H 0.93613 0.5977 0.62654 0.0
H1627 H 0.96264 0.55627 0.66724 0.0
H1628 H 0.95161 0.52704 0.64416 0.0
H1629 H 0.90672 0.51973 0.50718 0.0
H1630 H 0.90069 0.51387 0.54334 0.0
H1631 H 0.96588 0.51623 0.55473 0.0
H1632 H 0.97211 0.5219 0.51852 0.0
H1633 H 0.94426 0.54138 0.58186 0.0
H1634 H 0.94189 0.4719 0.55636 0.0
H1635 H 0.93079 0.4427 0.53328 0.0
H1636 H 0.86848 0.44867 0.55218 0.0
H1637 H 0.87916 0.47811 0.57516 0.0
C1638 C 0.90451 0.49619 0.6691 0.0
C1639 C 0.89065 0.51112 0.67481 0.0
C1640 C 0.91375 0.49637 0.64986 0.0
C1641 C 0.90956 0.51172 0.63627 0.0
C1642 C 0.89621 0.52698 0.64225 0.0
C1643 C 0.8868 0.52665 0.6613 0.0
C1644 C 0.91818 0.5114 0.61539 0.0
C1645 C 0.91252 0.49489 0.60185 0.0
C1646 C 0.93019 0.52814 0.60823 0.0
C1647 C 0.93718 0.54566 0.62207 0.0
C1648 C 0.93305 0.56578 0.61719 0.0
C1649 C 0.93944 0.58226 0.63033 0.0
C1650 C 0.95006 0.57882 0.64837 0.0
C1651 C 0.95436 0.5589 0.65329 0.0
C1652 C 0.94801 0.54237 0.64019 0.0
C1653 C 0.9198 0.51881 0.51732 0.0
C1654 C 0.9399 0.52129 0.50995 0.0
C1655 C 0.91632 0.5154 0.53797 0.0
C1656 C 0.93285 0.51455 0.55167 0.0
C1657 C 0.95293 0.51681 0.54437 0.0
C1658 C 0.95644 0.51996 0.52366 0.0
C1659 C 0.92903 0.51225 0.57377 0.0
C1660 C 0.93547 0.52834 0.58749 0.0
C1661 C 0.9178 0.49509 0.5811 0.0
C1662 C 0.91132 0.47732 0.56738 0.0
C1663 C 0.9258 0.46709 0.55548 0.0
C1664 C 0.91959 0.45048 0.54243 0.0
C1665 C 0.89894 0.44386 0.54123 0.0
C1666 C 0.88447 0.45382 0.55312 0.0
C1667 C 0.8906 0.47046 0.56617 0.0
H1668 H 0.89416 0.43099 0.53112 0.0
H1669 H 0.95499 0.5916 0.65853 0.0
H1670 H 0.13892 0.02842 0.65939 0.0
H1671 H 0.11739 0.02211 0.62901 0.0
H1672 H 0.07996 0.97784 0.66091 0.0
H1673 H 0.10184 0.98394 0.69141 0.0
H1674 H 0.09357 0.9616 0.62636 0.0
H1675 H 0.05889 0.02099 0.64425 0.0
H1676 H 0.05449 0.05672 0.65607 0.0
H1677 H 0.08683 0.0781 0.60362 0.0
H1678 H 0.09171 0.04251 0.59161 0.0
H1679 H 0.03833 0.97613 0.52192 0.0
H1680 H 0.04245 0.98558 0.5583 0.0
H1681 H 0.10459 0.96611 0.55671 0.0
H1682 H 0.1006 0.95639 0.5205 0.0
H1683 H 0.06809 0.01244 0.57935 0.0
H1684 H 0.11533 0.94266 0.59947 0.0
H1685 H 0.11761 0.90643 0.58824 0.0
H1686 H 0.05528 0.90481 0.56673 0.0
H1687 H 0.05251 0.94093 0.57809 0.0
C1688 C 0.12582 0.01768 0.66005 0.0
C1689 C 0.12211 0.00652 0.67762 0.0
C1690 C 0.11341 0.0142 0.64275 0.0
C1691 C 0.097 0.99956 0.6427 0.0
C1692 C 0.09251 0.98926 0.66066 0.0
C1693 C 0.10492 0.99282 0.67807 0.0
C1694 C 0.08666 0.99317 0.6231 0.0
C1695 C 0.08771 0.97267 0.6162 0.0
C1696 C 0.07863 0.00752 0.60998 0.0
C1697 C 0.07572 0.02903 0.61706 0.0
C1698 C 0.06519 0.0333 0.63529 0.0
C1699 C 0.06259 0.05354 0.64202 0.0
C1700 C 0.07039 0.06967 0.63061 0.0
C1701 C 0.08078 0.06559 0.61243 0.0
C1702 C 0.08343 0.04538 0.60563 0.0
C1703 C 0.05291 0.97392 0.52928 0.0
C1704 C 0.0691 0.96536 0.5183 0.0
C1705 C 0.05522 0.97935 0.55006 0.0
C1706 C 0.07368 0.97622 0.56024 0.0
C1707 C 0.09006 0.96827 0.54921 0.0
C1708 C 0.08778 0.96282 0.52847 0.0
C1709 C 0.07604 0.98117 0.58243 0.0
C1710 C 0.0735 0.00133 0.58972 0.0
C1711 C 0.08235 0.96644 0.59607 0.0
C1712 C 0.08377 0.94456 0.58954 0.0
C1713 C 0.10206 0.93454 0.59247 0.0
C1714 C 0.10345 0.91403 0.58605 0.0
C1715 C 0.08662 0.90334 0.57674 0.0
C1716 C 0.06833 0.91312 0.57389 0.0
C1717 C 0.06685 0.93363 0.5803 0.0
H1718 H 0.08773 0.88747 0.57176 0.0
H1719 H 0.06836 0.08533 0.63585 0.0
H1720 H 0.85218 0.48823 0.8256 0.0
H1721 H 0.8639 0.48449 0.86086 0.0
H1722 H 0.92304 0.51188 0.84589 0.0
H1723 H 0.91154 0.51471 0.81039 0.0
H1724 H 0.92758 0.48 0.86859 0.0
H1725 H 0.88593 0.53896 0.8733 0.0
H1726 H 0.85427 0.55708 0.8676 0.0
H1727 H 0.82049 0.5141 0.9038 0.0
H1728 H 0.85193 0.49559 0.90955 0.0
H1729 H 0.96305 0.49249 0.97132 0.0
H1730 H 0.95224 0.49994 0.93663 0.0
H1731 H 0.89148 0.47478 0.94866 0.0
H1732 H 0.90194 0.46783 0.98336 0.0
H1733 H 0.88835 0.50724 0.92743 0.0
H1734 H 0.92773 0.44728 0.9215 0.0
H1735 H 0.95796 0.42668 0.92602 0.0
H1736 H 0.99441 0.469 0.89143 0.0
H1737 H 0.96444 0.49 0.88694 0.0
C1738 C 0.86765 0.49348 0.82995 0.0
C1739 C 0.88081 0.50226 0.81555 0.0
C1740 C 0.87431 0.49147 0.85008 0.0
C1741 C 0.89422 0.49836 0.85622 0.0
C1742 C 0.90754 0.50668 0.84162 0.0
C1743 C 0.90092 0.50851 0.82143 0.0
C1744 C 0.90127 0.49661 0.87775 0.0
C1745 C 0.91919 0.48628 0.88144 0.0
C1746 C 0.89003 0.50428 0.89459 0.0
C1747 C 0.87127 0.51582 0.89175 0.0
C1748 C 0.87175 0.53335 0.88001 0.0
C1749 C 0.85383 0.54368 0.87677 0.0
C1750 C 0.83537 0.53672 0.8853 0.0
C1751 C 0.8348 0.51948 0.8972 0.0
C1752 C 0.85267 0.50908 0.90049 0.0
C1753 C 0.94734 0.48869 0.96664 0.0
C1754 C 0.93343 0.47945 0.98017 0.0
C1755 C 0.9412 0.49287 0.94673 0.0
C1756 C 0.92109 0.48763 0.93984 0.0
C1757 C 0.90706 0.47896 0.95353 0.0
C1758 C 0.91313 0.47494 0.97342 0.0
C1759 C 0.9147 0.49062 0.91829 0.0
C1760 C 0.89687 0.50115 0.91459 0.0
C1761 C 0.92588 0.48292 0.90142 0.0
C1762 C 0.94391 0.47033 0.90409 0.0
C1763 C 0.94224 0.45228 0.915 0.0
C1764 C 0.95931 0.44052 0.91753 0.0
C1765 C 0.97811 0.44657 0.90907 0.0
C1766 C 0.97985 0.46436 0.89801 0.0
C1767 C 0.96283 0.47619 0.89546 0.0
H1768 H 0.99131 0.43744 0.91105 0.0
H1769 H 0.82151 0.5447 0.88272 0.0
H1770 H 0.18414 0.00198 0.82314 0.0
H1771 H 0.17481 0.00432 0.85936 0.0
H1772 H 0.12274 0.03913 0.84404 0.0
H1773 H 0.1313 0.03549 0.80781 0.0
H1774 H 0.17264 0.0331 0.88632 0.0
H1775 H 0.08381 0.03161 0.87598 0.0
H1776 H 0.05742 0.01642 0.85204 0.0
H1777 H 0.09749 0.96889 0.83412 0.0
H1778 H 0.12399 0.9836 0.85817 0.0
H1779 H 0.13012 0.06832 0.97882 0.0
H1780 H 0.14059 0.06214 0.94351 0.0
H1781 H 0.10718 0.00351 0.94183 0.0
H1782 H 0.09526 0.01062 0.97669 0.0
H1783 H 0.1013 0.01778 0.90848 0.0
H1784 H 0.16372 0.01134 0.94536 0.0
H1785 H 0.19146 0.02137 0.97005 0.0
H1786 H 0.20669 0.07489 0.93646 0.0
H1787 H 0.17891 0.06527 0.91167 0.0
C1788 C 0.17073 0.01013 0.82763 0.0
C1789 C 0.1587 0.01898 0.81285 0.0
C1790 C 0.16543 0.01153 0.84829 0.0
C1791 C 0.14797 0.02179 0.85453 0.0
C1792 C 0.13609 0.03085 0.83968 0.0
C1793 C 0.14119 0.02911 0.819 0.0
C1794 C 0.14214 0.02299 0.87651 0.0
C1795 C 0.15705 0.02967 0.89117 0.0
C1796 C 0.12195 0.01798 0.88304 0.0
C1797 C 0.10595 0.00884 0.86875 0.0
C1798 C 0.08695 0.01786 0.86701 0.0
C1799 C 0.07198 0.00934 0.85341 0.0
C1800 C 0.0758 0.99174 0.84153 0.0
C1801 C 0.09457 0.98256 0.84328 0.0
C1802 C 0.10958 0.99099 0.85689 0.0
C1803 C 0.12515 0.05406 0.97092 0.0
C1804 C 0.11203 0.03986 0.98049 0.0
C1805 C 0.13127 0.05043 0.95074 0.0
C1806 C 0.12518 0.03208 0.93996 0.0
C1807 C 0.11217 0.01779 0.94968 0.0
C1808 C 0.10544 0.02177 0.96965 0.0
C1809 C 0.13175 0.02817 0.91838 0.0
C1810 C 0.11695 0.02105 0.90374 0.0
C1811 C 0.15226 0.03193 0.91201 0.0
C1812 C 0.16914 0.03764 0.92674 0.0
C1813 C 0.17293 0.02528 0.94329 0.0
C1814 C 0.18867 0.03089 0.95729 0.0
C1815 C 0.20081 0.04876 0.95484 0.0
C1816 C 0.19728 0.06104 0.93834 0.0
C1817 C 0.18157 0.0555 0.92428 0.0
H1818 H 0.21297 0.05309 0.96572 0.0
H1819 H 0.06419 0.98518 0.83099 0.0
H1820 H 0.66565 0.84652 0.53167 0.0
H1821 H 0.63126 0.85943 0.53304 0.0
H1822 H 0.64646 0.90026 0.4848 0.0
H1823 H 0.68126 0.88779 0.48369 0.0
H1824 H 0.62389 0.91858 0.51582 0.0
H1825 H 0.61951 0.85695 0.47327 0.0
H1826 H 0.62508 0.82059 0.46488 0.0
H1827 H 0.58875 0.80305 0.51626 0.0
H1828 H 0.58319 0.83934 0.52513 0.0
H1829 H 0.51884 0.94086 0.50253 0.0
H1830 H 0.55376 0.9307 0.49537 0.0
H1831 H 0.54575 0.88122 0.53657 0.0
H1832 H 0.51081 0.89075 0.54317 0.0
H1833 H 0.56518 0.86826 0.50499 0.0
H1834 H 0.57215 0.92862 0.54994 0.0
H1835 H 0.56738 0.96469 0.56041 0.0
H1836 H 0.59918 0.9843 0.50694 0.0
H1837 H 0.60392 0.94832 0.49603 0.0
C1838 C 0.66186 0.85852 0.5216 0.0
C1839 C 0.67622 0.8661 0.50754 0.0
C1840 C 0.6421 0.86573 0.52226 0.0
C1841 C 0.63622 0.88056 0.5088 0.0
C1842 C 0.65067 0.88871 0.49523 0.0
C1843 C 0.67049 0.88147 0.49453 0.0
C1844 C 0.61478 0.88707 0.50864 0.0
C1845 C 0.61103 0.90768 0.51312 0.0
C1846 C 0.59803 0.87274 0.50546 0.0
C1847 C 0.60105 0.85088 0.49993 0.0
C1848 C 0.6128 0.84535 0.48284 0.0
C1849 C 0.61595 0.82475 0.478 0.0
C1850 C 0.6073 0.80952 0.49005 0.0
C1851 C 0.59544 0.81486 0.50694 0.0
C1852 C 0.59226 0.83544 0.51186 0.0
C1853 C 0.52448 0.92771 0.50991 0.0
C1854 C 0.51202 0.91667 0.52346 0.0
C1855 C 0.5445 0.922 0.50591 0.0
C1856 C 0.55255 0.90538 0.51569 0.0
C1857 C 0.53993 0.89408 0.52882 0.0
C1858 C 0.51991 0.89959 0.5326 0.0
C1859 C 0.57416 0.89977 0.51268 0.0
C1860 C 0.57799 0.87928 0.50752 0.0
C1861 C 0.59096 0.91417 0.51548 0.0
C1862 C 0.58817 0.93579 0.52205 0.0
C1863 C 0.57799 0.94063 0.54034 0.0
C1864 C 0.57531 0.96105 0.54637 0.0
C1865 C 0.58291 0.97677 0.53431 0.0
C1866 C 0.59327 0.9721 0.51624 0.0
C1867 C 0.59596 0.9517 0.51013 0.0
H1868 H 0.58083 0.99258 0.539 0.0
H1869 H 0.60978 0.79358 0.48629 0.0
H1870 H 0.69841 0.16176 0.97629 0.0
H1871 H 0.66248 0.149 0.97489 0.0
H1872 H 0.6814 0.08785 0.98461 0.0
H1873 H 0.71747 0.1007 0.98579 0.0
H1874 H 0.65062 0.0888 0.95537 0.0
H1875 H 0.66402 0.11464 0.02359 0.0
H1876 H 0.67683 0.14015 0.04993 0.0
H1877 H 0.63313 0.18234 0.03023 0.0
H1878 H 0.62031 0.15721 0.00347 0.0
H1879 H 0.54887 0.05323 0.97658 0.0
H1880 H 0.58542 0.0616 0.98212 0.0
H1881 H 0.5755 0.12525 0.97299 0.0
H1882 H 0.53897 0.11712 0.96758 0.0
H1883 H 0.60251 0.12012 0.0045 0.0
H1884 H 0.59182 0.09575 0.93432 0.0
H1885 H 0.57968 0.07085 0.9071 0.0
H1886 H 0.61858 0.02605 0.93051 0.0
H1887 H 0.63075 0.05063 0.95806 0.0
C1888 C 0.69479 0.14558 0.97788 0.0
C1889 C 0.71038 0.13212 0.98122 0.0
C1890 C 0.67438 0.13833 0.97719 0.0
C1891 C 0.66933 0.11755 0.97997 0.0
C1892 C 0.68503 0.10394 0.98252 0.0
C1893 C 0.7055 0.11122 0.98321 0.0
C1894 C 0.64759 0.11029 0.98083 0.0
C1895 C 0.64015 0.09536 0.96634 0.0
C1896 C 0.63397 0.11908 0.99502 0.0
C1897 C 0.6413 0.13407 0.01142 0.0
C1898 C 0.65722 0.1294 0.02479 0.0
C1899 C 0.66448 0.14379 0.0398 0.0
C1900 C 0.65582 0.16286 0.04174 0.0
C1901 C 0.63983 0.16756 0.0287 0.0
C1902 C 0.63255 0.15323 0.01362 0.0
C1903 C 0.5544 0.06906 0.97601 0.0
C1904 C 0.54102 0.08449 0.97144 0.0
C1905 C 0.5753 0.07378 0.97912 0.0
C1906 C 0.58315 0.09399 0.9777 0.0
C1907 C 0.56972 0.10955 0.9741 0.0
C1908 C 0.54885 0.10485 0.97093 0.0
C1909 C 0.60548 0.09888 0.97882 0.0
C1910 C 0.61303 0.11337 0.99371 0.0
C1911 C 0.6192 0.08968 0.96501 0.0
C1912 C 0.61201 0.07494 0.94838 0.0
C1913 C 0.59766 0.08054 0.93376 0.0
C1914 C 0.5908 0.06649 0.91826 0.0
C1915 C 0.59831 0.04686 0.91711 0.0
C1916 C 0.61275 0.04125 0.93144 0.0
C1917 C 0.61964 0.05524 0.94699 0.0
H1918 H 0.59297 0.036 0.9051 0.0
H1919 H 0.66147 0.174 0.05336 0.0
H1920 H 0.3292 0.41086 0.9984 0.0
H1921 H 0.36519 0.42348 0.99705 0.0
H1922 H 0.38461 0.36183 0.00263 0.0
H1923 H 0.3486 0.34939 0.00438 0.0
H1924 H 0.40778 0.38767 0.02626 0.0
H1925 H 0.38479 0.38488 0.95665 0.0
H1926 H 0.36205 0.39205 0.92787 0.0
H1927 H 0.37602 0.45649 0.93747 0.0
H1928 H 0.39858 0.44972 0.96657 0.0
H1929 H 0.5095 0.40111 0.98797 0.0
H1930 H 0.47352 0.39076 0.99327 0.0
H1931 H 0.4578 0.454 0.99509 0.0
H1932 H 0.49381 0.46456 0.98996 0.0
H1933 H 0.43278 0.42851 0.96851 0.0
H1934 H 0.45713 0.43019 0.03791 0.0
H1935 H 0.48012 0.42186 0.06609 0.0
H1936 H 0.46419 0.35788 0.05562 0.0
H1937 H 0.44132 0.36581 0.02715 0.0
C1938 C 0.34125 0.40012 0.99929 0.0
C1939 C 0.33637 0.37922 0.00131 0.0
C1940 C 0.36174 0.40727 0.99848 0.0
C1941 C 0.37764 0.39357 0.99949 0.0
C1942 C 0.37265 0.37268 0.00181 0.0
C1943 C 0.35216 0.36557 0.0027 0.0
C1944 C 0.39946 0.40096 0.99799 0.0
C1945 C 0.41328 0.39641 0.01351 0.0
C1946 C 0.40661 0.41268 0.98154 0.0
C1947 C 0.3932 0.4168 0.96393 0.0
C1948 C 0.38289 0.40059 0.95273 0.0
C1949 C 0.37004 0.40458 0.93635 0.0
C1950 C 0.36755 0.42472 0.93088 0.0
C1951 C 0.37794 0.4409 0.94175 0.0
C1952 C 0.39076 0.437 0.95819 0.0
C1953 C 0.49844 0.41286 0.9897 0.0
C1954 C 0.50457 0.43368 0.98855 0.0
C1955 C 0.47788 0.40691 0.99277 0.0
C1956 C 0.463 0.42162 0.99462 0.0
C1957 C 0.46905 0.44241 0.99371 0.0
C1958 C 0.48967 0.44841 0.99089 0.0
C1959 C 0.44103 0.41519 0.99675 0.0
C1960 C 0.42722 0.41988 0.9813 0.0
C1961 C 0.43394 0.40341 0.01314 0.0
C1962 C 0.44766 0.39859 0.03026 0.0
C1963 C 0.45867 0.41433 0.04149 0.0
C1964 C 0.47165 0.40968 0.05754 0.0
C1965 C 0.47366 0.38935 0.06261 0.0
C1966 C 0.46264 0.37363 0.05166 0.0
C1967 C 0.44965 0.37819 0.03558 0.0
H1968 H 0.48371 0.38578 0.07504 0.0
H1969 H 0.3576 0.42778 0.91818 0.0
H1970 H 0.84143 0.10264 0.00833 0.0
H1971 H 0.87567 0.08922 0.01141 0.0
H1972 H 0.90198 0.14355 0.98466 0.0
H1973 H 0.86774 0.15643 0.9807 0.0
H1974 H 0.92084 0.11352 0.97013 0.0
H1975 H 0.90272 0.13451 0.03839 0.0
H1976 H 0.88152 0.13565 0.0694 0.0
H1977 H 0.8874 0.07117 0.07566 0.0
H1978 H 0.90842 0.0696 0.04452 0.0
H1979 H 0.02213 0.11279 0.01401 0.0
H1980 H 0.98676 0.12056 0.00582 0.0
H1981 H 0.96753 0.05734 0.01264 0.0
H1982 H 0.00298 0.04929 0.02037 0.0
H1983 H 0.94497 0.08902 0.03642 0.0
H1984 H 0.96644 0.07056 0.96811 0.0
H1985 H 0.98932 0.07236 0.93839 0.0
H1986 H 0.97895 0.13631 0.93414 0.0
H1987 H 0.95623 0.13496 0.96404 0.0
C1988 C 0.85457 0.11162 0.00308 0.0
C1989 C 0.85198 0.13054 0.99428 0.0
C1990 C 0.87415 0.10402 0.00493 0.0
C1991 C 0.89157 0.1155 0.99859 0.0
C1992 C 0.88888 0.13433 0.98963 0.0
C1993 C 0.8693 0.14171 0.98739 0.0
C1994 C 0.91262 0.10809 0.00137 0.0
C1995 C 0.9261 0.10836 0.98472 0.0
C1996 C 0.91957 0.101 0.02028 0.0
C1997 C 0.90694 0.1019 0.039 0.0
C1998 C 0.89936 0.12055 0.04629 0.0
C1999 C 0.8874 0.12128 0.06391 0.0
C2000 C 0.88307 0.10348 0.07446 0.0
C2001 C 0.89074 0.08493 0.06745 0.0
C2002 C 0.90268 0.08412 0.04983 0.0
C2003 C 0.01043 0.10047 0.01348 0.0
C2004 C 0.01536 0.08041 0.0178 0.0
C2005 C 0.99025 0.10494 0.00879 0.0
C2006 C 0.97457 0.08952 0.00866 0.0
C2007 C 0.97945 0.06943 0.01266 0.0
C2008 C 0.99971 0.06485 0.01694 0.0
C2009 C 0.95299 0.09468 0.00529 0.0
C2010 C 0.93952 0.09404 0.02184 0.0
C2011 C 0.9462 0.10187 0.98647 0.0
C2012 C 0.95978 0.10269 0.96844 0.0
C2013 C 0.96919 0.08505 0.96096 0.0
C2014 C 0.98209 0.08598 0.94405 0.0
C2015 C 0.98563 0.10445 0.93441 0.0
C2016 C 0.97621 0.12202 0.94163 0.0
C2017 C 0.9633 0.12117 0.95855 0.0
H2018 H 0.99563 0.10514 0.92132 0.0
H2019 H 0.87381 0.10408 0.08809 0.0
H2020 H 0.00841 0.22098 0.23466 0.0
H2021 H 0.01519 0.19884 0.20452 0.0
H2022 H 0.0371 0.15305 0.24382 0.0
H2023 H 0.03061 0.17543 0.27389 0.0
H2024 H 0.06229 0.15848 0.21254 0.0
H2025 H 0.99012 0.14733 0.22077 0.0
H2026 H 0.95441 0.1572 0.22506 0.0
H2027 H 0.95612 0.18494 0.16677 0.0
H2028 H 0.99199 0.17556 0.16228 0.0
H2029 H 0.0645 0.0791 0.13568 0.0
H2030 H 0.05459 0.09878 0.16624 0.0
H2031 H 0.03738 0.14804 0.12891 0.0
H2032 H 0.04721 0.12848 0.09821 0.0
H2033 H 0.00918 0.13963 0.15962 0.0
H2034 H 0.08212 0.15187 0.1526 0.0
H2035 H 0.11782 0.14178 0.14871 0.0
H2036 H 0.11414 0.11112 0.20539 0.0
H2037 H 0.0783 0.12079 0.20947 0.0
C2038 C 0.01463 0.20615 0.23672 0.0
C2039 C 0.01904 0.19974 0.25636 0.0
C2040 C 0.01841 0.1935 0.2196 0.0
C2041 C 0.02645 0.17419 0.22194 0.0
C2042 C 0.03088 0.16786 0.24167 0.0
C2043 C 0.02715 0.18055 0.25877 0.0
C2044 C 0.03065 0.16079 0.20379 0.0
C2045 C 0.05058 0.1541 0.20115 0.0
C2046 C 0.01546 0.15539 0.18872 0.0
C2047 C 0.99382 0.1609 0.19128 0.0
C2048 C 0.98294 0.15568 0.20893 0.0
C2049 C 0.96266 0.16117 0.21139 0.0
C2050 C 0.95301 0.17173 0.19621 0.0
C2051 C 0.96362 0.17678 0.17852 0.0
C2052 C 0.98393 0.17137 0.17601 0.0
C2053 C 0.05847 0.09405 0.13392 0.0
C2054 C 0.05678 0.10226 0.11448 0.0
C2055 C 0.05287 0.10529 0.15142 0.0
C2056 C 0.04545 0.12493 0.14982 0.0
C2057 C 0.0431 0.13291 0.13044 0.0
C2058 C 0.04881 0.12174 0.11293 0.0
C2059 C 0.04079 0.13743 0.16842 0.0
C2060 C 0.02081 0.14396 0.17111 0.0
C2061 C 0.05589 0.1426 0.1836 0.0
C2062 C 0.07746 0.13686 0.18123 0.0
C2063 C 0.08887 0.14283 0.16415 0.0
C2064 C 0.10914 0.13721 0.16192 0.0
C2065 C 0.11822 0.12576 0.17676 0.0
C2066 C 0.10707 0.11996 0.19389 0.0
C2067 C 0.08679 0.12551 0.19617 0.0
H2068 H 0.13392 0.12143 0.17501 0.0
H2069 H 0.93731 0.17596 0.19814 0.0
H2070 H 0.03245 0.31206 0.24165 0.0
H2071 H 0.0305 0.33636 0.21461 0.0
H2072 H 0.96611 0.34218 0.22649 0.0
H2073 H 0.96831 0.31937 0.25469 0.0
H2074 H 0.01256 0.33498 0.18067 0.0
H2075 H 0.94911 0.38677 0.21318 0.0
H2076 H 0.93791 0.40073 0.24661 0.0
H2077 H 0.99823 0.39474 0.27148 0.0
H2078 H 0.00987 0.38102 0.23814 0.0
H2079 H 0.96745 0.38392 0.09994 0.0
H2080 H 0.97488 0.36471 0.12999 0.0
H2081 H 0.9968 0.4205 0.1621 0.0
H2082 H 0.98833 0.43998 0.13229 0.0
H2083 H 0.97632 0.39975 0.1871 0.0
H2084 H 0.03011 0.38303 0.14223 0.0
H2085 H 0.04621 0.37197 0.10994 0.0
H2086 H 0.0144 0.31319 0.11212 0.0
H2087 H 0.99791 0.32397 0.14432 0.0
C2088 C 0.01796 0.31889 0.23894 0.0
C2089 C 0.00056 0.31367 0.25057 0.0
C2090 C 0.01682 0.33263 0.22322 0.0
C2091 C 0.99821 0.34136 0.21854 0.0
C2092 C 0.98079 0.33608 0.23 0.0
C2093 C 0.982 0.32267 0.24598 0.0
C2094 C 0.99682 0.35533 0.20121 0.0
C2095 C 0.00473 0.34919 0.18215 0.0
C2096 C 0.98713 0.37422 0.20312 0.0
C2097 C 0.9803 0.3827 0.22318 0.0
C2098 C 0.96001 0.38853 0.22575 0.0
C2099 C 0.95358 0.39638 0.2447 0.0
C2100 C 0.96734 0.39857 0.26117 0.0
C2101 C 0.98757 0.39297 0.25872 0.0
C2102 C 0.99409 0.38514 0.23981 0.0
C2103 C 0.97395 0.3921 0.11336 0.0
C2104 C 0.97742 0.41346 0.11369 0.0
C2105 C 0.97832 0.38106 0.13054 0.0
C2106 C 0.98684 0.39103 0.14827 0.0
C2107 C 0.99028 0.4124 0.14864 0.0
C2108 C 0.9855 0.42353 0.13157 0.0
C2109 C 0.99165 0.37913 0.16649 0.0
C2110 C 0.98434 0.38564 0.18569 0.0
C2111 C 0.00266 0.36102 0.16491 0.0
C2112 C 0.01266 0.35437 0.14562 0.0
C2113 C 0.02646 0.36778 0.13576 0.0
C2114 C 0.03566 0.36156 0.11748 0.0
C2115 C 0.0313 0.34191 0.10896 0.0
C2116 C 0.01776 0.32841 0.11874 0.0
C2117 C 0.0085 0.33456 0.13703 0.0
H2118 H 0.03843 0.33713 0.0948 0.0
H2119 H 0.96232 0.40463 0.27583 0.0
H2120 H 0.02061 0.82312 0.21613 0.0
H2121 H 0.02285 0.84604 0.24679 0.0
H2122 H 0.00502 0.79535 0.28402 0.0
H2123 H 0.00255 0.77254 0.25322 0.0
H2124 H 0.98654 0.83056 0.29619 0.0
H2125 H 0.05422 0.80959 0.28008 0.0
H2126 H 0.08391 0.80462 0.25769 0.0
H2127 H 0.09058 0.86943 0.25021 0.0
H2128 H 0.06069 0.87476 0.2723 0.0
H2129 H 0.02586 0.86815 0.39255 0.0
H2130 H 0.01798 0.84856 0.36075 0.0
H2131 H 0.03729 0.90065 0.32618 0.0
H2132 H 0.04546 0.92037 0.35794 0.0
H2133 H 0.05405 0.86594 0.31196 0.0
H2134 H 0.98696 0.88684 0.32982 0.0
H2135 H 0.95724 0.89125 0.35232 0.0
H2136 H 0.94967 0.82612 0.35703 0.0
H2137 H 0.97954 0.82133 0.33479 0.0
C2138 C 0.01698 0.81707 0.23089 0.0
C2139 C 0.01152 0.79626 0.2326 0.0
C2140 C 0.01829 0.83005 0.24832 0.0
C2141 C 0.01433 0.8223 0.26766 0.0
C2142 C 0.00813 0.80159 0.26922 0.0
C2143 C 0.00679 0.78861 0.25176 0.0
C2144 C 0.0177 0.83553 0.28633 0.0
C2145 C 0.00133 0.83817 0.29977 0.0
C2146 C 0.03692 0.84569 0.29073 0.0
C2147 C 0.05509 0.84255 0.27768 0.0
C2148 C 0.06193 0.82277 0.27354 0.0
C2149 C 0.0788 0.81989 0.26092 0.0
C2150 C 0.08909 0.83669 0.25249 0.0
C2151 C 0.08257 0.85643 0.25673 0.0
C2152 C 0.06567 0.85939 0.26931 0.0
C2153 C 0.02832 0.87553 0.37821 0.0
C2154 C 0.03632 0.89584 0.3778 0.0
C2155 C 0.02371 0.86432 0.36004 0.0
C2156 C 0.02688 0.87323 0.34114 0.0
C2157 C 0.0347 0.89353 0.34064 0.0
C2158 C 0.03932 0.90477 0.35881 0.0
C2159 C 0.02288 0.86104 0.32188 0.0
C2160 C 0.03919 0.8585 0.30833 0.0
C2161 C 0.00363 0.85091 0.31747 0.0
C2162 C 0.9856 0.85374 0.33078 0.0
C2163 C 0.97906 0.87347 0.33578 0.0
C2164 C 0.96217 0.87603 0.34847 0.0
C2165 C 0.95161 0.85898 0.35614 0.0
C2166 C 0.95788 0.83932 0.35109 0.0
C2167 C 0.97478 0.83667 0.33843 0.0
H2168 H 0.93854 0.861 0.36595 0.0
H2169 H 0.10215 0.83443 0.24271 0.0
H2170 H 0.97909 0.69888 0.24896 0.0
H2171 H 0.97469 0.67521 0.27676 0.0
H2172 H 0.01497 0.6337 0.24636 0.0
H2173 H 0.01975 0.65762 0.21853 0.0
H2174 H 0.97395 0.6165 0.26353 0.0
H2175 H 0.0362 0.6562 0.2815 0.0
H2176 H 0.0571 0.68837 0.28683 0.0
H2177 H 0.0152 0.70909 0.33256 0.0
H2178 H 0.99386 0.67716 0.32726 0.0
H2179 H 0.9786 0.55513 0.35129 0.0
H2180 H 0.98675 0.57387 0.32053 0.0
H2181 H 0.9697 0.62997 0.35141 0.0
H2182 H 0.96254 0.61154 0.38234 0.0
H2183 H 0.00228 0.63775 0.33207 0.0
H2184 H 0.93861 0.60141 0.3136 0.0
H2185 H 0.91497 0.57114 0.30802 0.0
H2186 H 0.95581 0.546 0.26356 0.0
H2187 H 0.97982 0.57602 0.26907 0.0
C2188 C 0.98687 0.68463 0.24812 0.0
C2189 C 0.99973 0.68003 0.23163 0.0
C2190 C 0.98439 0.67118 0.264 0.0
C2191 C 0.99452 0.65277 0.26356 0.0
C2192 C 0.00702 0.64785 0.2469 0.0
C2193 C 0.00981 0.66152 0.23113 0.0
C2194 C 0.9924 0.63914 0.28096 0.0
C2195 C 0.98043 0.62086 0.27847 0.0
C2196 C 0.00042 0.64524 0.30047 0.0
C2197 C 0.01334 0.66436 0.30385 0.0
C2198 C 0.03134 0.66769 0.29257 0.0
C2199 C 0.04329 0.68587 0.29561 0.0
C2200 C 0.03745 0.70078 0.30999 0.0
C2201 C 0.01969 0.69753 0.32141 0.0
C2202 C 0.00768 0.67938 0.31841 0.0
C2203 C 0.97655 0.57146 0.35145 0.0
C2204 C 0.96994 0.58186 0.36924 0.0
C2205 C 0.98112 0.58215 0.33383 0.0
C2206 C 0.97863 0.60336 0.33349 0.0
C2207 C 0.97186 0.61367 0.35124 0.0
C2208 C 0.9677 0.60309 0.36893 0.0
C2209 C 0.98339 0.61506 0.31492 0.0
C2210 C 0.99591 0.63309 0.31715 0.0
C2211 C 0.97552 0.60888 0.29526 0.0
C2212 C 0.96111 0.59084 0.29193 0.0
C2213 C 0.94262 0.58935 0.30275 0.0
C2214 C 0.92914 0.57226 0.29958 0.0
C2215 C 0.93392 0.55663 0.28549 0.0
C2216 C 0.95215 0.55809 0.2745 0.0
C2217 C 0.96569 0.57515 0.27763 0.0
H2218 H 0.92347 0.54341 0.28305 0.0
H2219 H 0.04672 0.71485 0.31233 0.0
H2220 H 0.29121 0.01147 0.18495 0.0
H2221 H 0.26427 0.01609 0.15948 0.0
H2222 H 0.21852 0.01159 0.20651 0.0
H2223 H 0.24564 0.00688 0.23205 0.0
H2224 H 0.20697 0.98995 0.1698 0.0
H2225 H 0.23394 0.05692 0.19186 0.0
H2226 H 0.26162 0.08325 0.19889 0.0
H2227 H 0.27815 0.08096 0.13551 0.0
H2228 H 0.25081 0.0543 0.12816 0.0
H2229 H 0.12482 0.03465 0.12072 0.0
H2230 H 0.15216 0.0258 0.14365 0.0
H2231 H 0.19671 0.03749 0.09672 0.0
H2232 H 0.16929 0.04683 0.0736 0.0
H2233 H 0.20965 0.05448 0.13247 0.0
H2234 H 0.18311 0.98818 0.10982 0.0
H2235 H 0.1568 0.96061 0.10231 0.0
H2236 H 0.14022 0.96081 0.16565 0.0
H2237 H 0.16636 0.98853 0.17353 0.0
C2238 C 0.27535 0.01126 0.18972 0.0
C2239 C 0.27031 0.0088 0.2103 0.0
C2240 C 0.26002 0.01396 0.17524 0.0
C2241 C 0.23942 0.01436 0.18114 0.0
C2242 C 0.23433 0.0113 0.20166 0.0
C2243 C 0.24973 0.00867 0.2162 0.0
C2244 C 0.22337 0.01881 0.16601 0.0
C2245 C 0.20737 0.00415 0.16181 0.0
C2246 C 0.22428 0.03711 0.15518 0.0
C2247 C 0.24044 0.05347 0.15949 0.0
C2248 C 0.24356 0.06193 0.17944 0.0
C2249 C 0.25919 0.07692 0.18348 0.0
C2250 C 0.27166 0.08375 0.16767 0.0
C2251 C 0.26849 0.07564 0.14776 0.0
C2252 C 0.25293 0.06059 0.14364 0.0
C2253 C 0.1404 0.03526 0.11513 0.0
C2254 C 0.14481 0.04145 0.09522 0.0
C2255 C 0.15604 0.03006 0.12829 0.0
C2256 C 0.1765 0.03069 0.12187 0.0
C2257 C 0.18102 0.03682 0.10201 0.0
C2258 C 0.16533 0.04209 0.08878 0.0
C2259 C 0.1931 0.02563 0.13622 0.0
C2260 C 0.20922 0.04021 0.14035 0.0
C2261 C 0.19237 0.0072 0.14689 0.0
C2262 C 0.17659 0.99056 0.14223 0.0
C2263 C 0.17375 0.98246 0.12213 0.0
C2264 C 0.15889 0.96677 0.11781 0.0
C2265 C 0.1468 0.95899 0.13348 0.0
C2266 C 0.14959 0.96686 0.15352 0.0
C2267 C 0.16446 0.98253 0.15793 0.0
H2268 H 0.13531 0.94684 0.1301 0.0
H2269 H 0.28376 0.09535 0.17083 0.0
H2270 H 0.76708 0.4697 0.20993 0.0
H2271 H 0.79611 0.46704 0.18659 0.0
H2272 H 0.7675 0.50704 0.14545 0.0
H2273 H 0.73855 0.51015 0.16903 0.0
H2274 H 0.78571 0.46705 0.12801 0.0
H2275 H 0.80107 0.52937 0.16895 0.0
H2276 H 0.80498 0.54939 0.20158 0.0
H2277 H 0.85102 0.50963 0.22119 0.0
H2278 H 0.84713 0.48917 0.18878 0.0
H2279 H 0.87308 0.4802 0.06507 0.0
H2280 H 0.84241 0.4863 0.08523 0.0
H2281 H 0.8743 0.46997 0.13974 0.0
H2282 H 0.9052 0.46488 0.11987 0.0
H2283 H 0.85293 0.49992 0.14939 0.0
H2284 H 0.83796 0.43658 0.11161 0.0
H2285 H 0.834 0.41356 0.08093 0.0
H2286 H 0.78774 0.45093 0.05743 0.0
H2287 H 0.79162 0.47434 0.08787 0.0
C2288 C 0.7669 0.47775 0.19581 0.0
C2289 C 0.75061 0.4901 0.19123 0.0
C2290 C 0.78348 0.47628 0.18256 0.0
C2291 C 0.7839 0.48687 0.16437 0.0
C2292 C 0.76739 0.49875 0.15943 0.0
C2293 C 0.75096 0.50056 0.1729 0.0
C2294 C 0.80199 0.48601 0.15093 0.0
C2295 C 0.80037 0.47449 0.13243 0.0
C2296 C 0.82116 0.49522 0.15712 0.0
C2297 C 0.82365 0.50762 0.17653 0.0
C2298 C 0.81188 0.52478 0.18029 0.0
C2299 C 0.81412 0.53623 0.19874 0.0
C2300 C 0.8282 0.53075 0.21348 0.0
C2301 C 0.8401 0.51384 0.20978 0.0
C2302 C 0.8379 0.50233 0.19136 0.0
C2303 C 0.87355 0.47802 0.08138 0.0
C2304 C 0.89156 0.47201 0.09086 0.0
C2305 C 0.85596 0.48138 0.09288 0.0
C2306 C 0.85582 0.47822 0.114 0.0
C2307 C 0.87393 0.47253 0.1235 0.0
C2308 C 0.89162 0.46959 0.1121 0.0
C2309 C 0.83691 0.48071 0.1263 0.0
C2310 C 0.83832 0.49255 0.14471 0.0
C2311 C 0.81764 0.47139 0.12021 0.0
C2312 C 0.81525 0.45733 0.10191 0.0
C2313 C 0.82705 0.43997 0.09983 0.0
C2314 C 0.82481 0.42684 0.08249 0.0
C2315 C 0.81067 0.43081 0.06721 0.0
C2316 C 0.79871 0.4479 0.06926 0.0
C2317 C 0.80092 0.46109 0.08656 0.0
H2318 H 0.80896 0.42063 0.0538 0.0
H2319 H 0.82992 0.53964 0.22775 0.0
H2320 H 0.25059 0.97139 0.30059 0.0
H2321 H 0.22218 0.96685 0.32437 0.0
H2322 H 0.25545 0.00465 0.3701 0.0
H2323 H 0.28401 0.00944 0.34618 0.0
H2324 H 0.23418 0.96493 0.38332 0.0
H2325 H 0.22239 0.02755 0.34984 0.0
H2326 H 0.21988 0.04887 0.31983 0.0
H2327 H 0.17142 0.0085 0.29493 0.0
H2328 H 0.17387 0.98674 0.32464 0.0
H2329 H 0.14226 0.9674 0.44287 0.0
H2330 H 0.17464 0.97734 0.42643 0.0
H2331 H 0.14777 0.96021 0.36739 0.0
H2332 H 0.11542 0.95108 0.38354 0.0
H2333 H 0.16828 0.99423 0.36457 0.0
H2334 H 0.18176 0.92965 0.39406 0.0
H2335 H 0.1845 0.90575 0.422 0.0
H2336 H 0.22935 0.94666 0.45239 0.0
H2337 H 0.22667 0.97093 0.42474 0.0
C2338 C 0.25197 0.97851 0.3158 0.0
C2339 C 0.26946 0.99076 0.32159 0.0
C2340 C 0.23573 0.97598 0.32931 0.0
C2341 C 0.23677 0.98548 0.3489 0.0
C2342 C 0.25445 0.99721 0.35502 0.0
C2343 C 0.27063 1.00001 0.34136 0.0
C2344 C 0.21884 0.98375 0.36244 0.0
C2345 C 0.21984 0.97164 0.37955 0.0
C2346 C 0.20013 0.99221 0.35716 0.0
C2347 C 0.19842 0.00543 0.3394 0.0
C2348 C 0.2113 0.02313 0.33789 0.0
C2349 C 0.20988 0.03531 0.32095 0.0
C2350 C 0.19553 0.03003 0.30547 0.0
C2351 C 0.18253 0.01257 0.30693 0.0
C2352 C 0.18392 0.00032 0.32383 0.0
C2353 C 0.1433 0.9658 0.42639 0.0
C2354 C 0.12626 0.95849 0.41451 0.0
C2355 C 0.16183 0.9714 0.41701 0.0
C2356 C 0.16373 0.96936 0.39566 0.0
C2357 C 0.1467 0.96205 0.38387 0.0
C2358 C 0.12818 0.95678 0.39315 0.0
C2359 C 0.18328 0.97481 0.38527 0.0
C2360 C 0.18264 0.98772 0.36869 0.0
C2361 C 0.2022 0.96678 0.39087 0.0
C2362 C 0.20382 0.95221 0.40748 0.0
C2363 C 0.19208 0.93362 0.40679 0.0
C2364 C 0.19364 0.92 0.42256 0.0
C2365 C 0.20704 0.92472 0.439 0.0
C2366 C 0.21894 0.94305 0.43967 0.0
C2367 C 0.21742 0.95674 0.42396 0.0
H2368 H 0.20823 0.91415 0.45119 0.0
H2369 H 0.19445 0.03947 0.29235 0.0
H2370 H 0.72569 0.48798 0.33416 0.0
H2371 H 0.75427 0.48631 0.35856 0.0
H2372 H 0.79689 0.48553 0.30848 0.0
H2373 H 0.76825 0.48702 0.28415 0.0
H2374 H 0.80775 0.46016 0.33995 0.0
H2375 H 0.78723 0.5299 0.33131 0.0
H2376 H 0.7622 0.55696 0.33176 0.0
H2377 H 0.75011 0.54726 0.39509 0.0
H2378 H 0.77498 0.52002 0.39496 0.0
H2379 H 0.90037 0.50856 0.37464 0.0
H2380 H 0.86822 0.49666 0.35816 0.0
H2381 H 0.83639 0.50586 0.41506 0.0
H2382 H 0.86853 0.51822 0.4317 0.0
H2383 H 0.81728 0.52289 0.38484 0.0
H2384 H 0.84283 0.45752 0.39513 0.0
H2385 H 0.86847 0.43109 0.39482 0.0
H2386 H 0.87128 0.43193 0.32937 0.0
H2387 H 0.84585 0.45859 0.32928 0.0
C2388 C 0.74117 0.487 0.32849 0.0
C2389 C 0.74505 0.48769 0.3075 0.0
C2390 C 0.75741 0.48606 0.34233 0.0
C2391 C 0.77765 0.48597 0.33528 0.0
C2392 C 0.78136 0.48551 0.31418 0.0
C2393 C 0.76512 0.48645 0.30035 0.0
C2394 C 0.79509 0.48864 0.34978 0.0
C2395 C 0.80992 0.47384 0.34978 0.0
C2396 C 0.79754 0.50628 0.36295 0.0
C2397 C 0.78278 0.5228 0.36307 0.0
C2398 C 0.77914 0.53346 0.3453 0.0
C2399 C 0.765 0.54884 0.34549 0.0
C2400 C 0.75451 0.55376 0.36342 0.0
C2401 C 0.75821 0.54339 0.38121 0.0
C2402 C 0.77234 0.52801 0.38109 0.0
C2403 C 0.8866 0.50789 0.38376 0.0
C2404 C 0.88702 0.51446 0.40448 0.0
C2405 C 0.86824 0.50091 0.37432 0.0
C2406 C 0.84996 0.50014 0.38545 0.0
C2407 C 0.85036 0.50627 0.40624 0.0
C2408 C 0.86874 0.51333 0.4157 0.0
C2409 C 0.83028 0.49457 0.37483 0.0
C2410 C 0.815 0.50891 0.37545 0.0
C2411 C 0.82745 0.47648 0.36232 0.0
C2412 C 0.8425 0.46017 0.36222 0.0
C2413 C 0.84899 0.45216 0.38067 0.0
C2414 C 0.86349 0.43713 0.38057 0.0
C2415 C 0.87154 0.42987 0.3621 0.0
C2416 C 0.86503 0.43757 0.34367 0.0
C2417 C 0.85055 0.45262 0.34369 0.0
H2418 H 0.88279 0.41826 0.36206 0.0
H2419 H 0.74356 0.56566 0.36353 0.0
H2420 H 0.1979 0.29014 0.00227 0.0
H2421 H 0.17545 0.25929 0.00577 0.0
H2422 H 0.22847 0.22408 0.01618 0.0
H2423 H 0.25086 0.25496 0.01252 0.0
H2424 H 0.20009 0.20346 0.9906 0.0
H2425 H 0.20124 0.24059 0.05547 0.0
H2426 H 0.19748 0.271 0.07835 0.0
H2427 H 0.13394 0.2723 0.06141 0.0
H2428 H 0.13742 0.24211 0.03811 0.0
H2429 H 0.15507 0.1174 0.0371 0.0
H2430 H 0.17523 0.14846 0.02982 0.0
H2431 H 0.11978 0.181 0.02369 0.0
H2432 H 0.09937 0.14997 0.0314 0.0
H2433 H 0.14813 0.20351 0.04553 0.0
H2434 H 0.14672 0.16526 0.98155 0.0
H2435 H 0.15075 0.13481 0.95877 0.0
H2436 H 0.21481 0.13541 0.97408 0.0
H2437 H 0.21111 0.1657 0.99719 0.0
C2438 C 0.20464 0.27572 0.00511 0.0
C2439 C 0.22594 0.2747 0.00714 0.0
C2440 C 0.19189 0.25818 0.00717 0.0
C2441 C 0.2003 0.23945 0.01141 0.0
C2442 C 0.22168 0.23837 0.01288 0.0
C2443 C 0.23442 0.25593 0.01086 0.0
C2444 C 0.1868 0.22114 0.01511 0.0
C2445 C 0.18885 0.20338 0.00271 0.0
C2446 C 0.17185 0.22123 0.03065 0.0
C2447 C 0.16965 0.23921 0.04488 0.0
C2448 C 0.1865 0.24745 0.0565 0.0
C2449 C 0.18442 0.26464 0.06956 0.0
C2450 C 0.16549 0.27361 0.0713 0.0
C2451 C 0.1486 0.26536 0.06002 0.0
C2452 C 0.15062 0.24821 0.04688 0.0
C2453 C 0.14708 0.13112 0.03418 0.0
C2454 C 0.12555 0.13113 0.03474 0.0
C2455 C 0.15867 0.14887 0.02992 0.0
C2456 C 0.14902 0.16698 0.02587 0.0
C2457 C 0.12755 0.16717 0.02668 0.0
C2458 C 0.11591 0.1494 0.03106 0.0
C2459 C 0.16143 0.18574 0.02106 0.0
C2460 C 0.15923 0.2036 0.03328 0.0
C2461 C 0.17625 0.18572 0.00536 0.0
C2462 C 0.17859 0.16767 0.99123 0.0
C2463 C 0.16164 0.15883 0.98016 0.0
C2464 C 0.16387 0.1416 0.96717 0.0
C2465 C 0.18302 0.13315 0.96501 0.0
C2466 C 0.19999 0.14196 0.97578 0.0
C2467 C 0.19784 0.15918 0.98881 0.0
H2468 H 0.18471 0.1198 0.95497 0.0
H2469 H 0.1639 0.28691 0.08142 0.0
H2470 H 0.21294 0.75209 0.47524 0.0
H2471 H 0.19033 0.78066 0.4727 0.0
H2472 H 0.14046 0.74379 0.49691 0.0
H2473 H 0.1632 0.71509 0.49974 0.0
H2474 H 0.13091 0.76655 0.46044 0.0
H2475 H 0.16078 0.77728 0.52773 0.0
H2476 H 0.18943 0.78069 0.55256 0.0
H2477 H 0.21515 0.83218 0.52135 0.0
H2478 H 0.1868 0.82888 0.49614 0.0
H2479 H 0.06614 0.85068 0.46984 0.0
H2480 H 0.08492 0.82021 0.47666 0.0
H2481 H 0.14218 0.85518 0.47109 0.0
H2482 H 0.1235 0.8858 0.46527 0.0
H2483 H 0.14624 0.83163 0.50032 0.0
H2484 H 0.12011 0.82054 0.43185 0.0
H2485 H 0.09376 0.81731 0.40458 0.0
H2486 H 0.06363 0.76728 0.43461 0.0
H2487 H 0.08967 0.77039 0.46221 0.0
C2488 C 0.19713 0.75005 0.47995 0.0
C2489 C 0.18981 0.7314 0.48771 0.0
C2490 C 0.18427 0.76639 0.47857 0.0
C2491 C 0.16376 0.76437 0.48471 0.0
C2492 C 0.15626 0.74565 0.49213 0.0
C2493 C 0.16925 0.72935 0.49384 0.0
C2494 C 0.15036 0.78198 0.48343 0.0
C2495 C 0.13397 0.78069 0.4694 0.0
C2496 C 0.1548 0.80058 0.49468 0.0
C2497 C 0.17175 0.80272 0.50995 0.0
C2498 C 0.17263 0.78923 0.52607 0.0
C2499 C 0.1888 0.79116 0.54023 0.0
C2500 C 0.20412 0.80661 0.53851 0.0
C2501 C 0.20328 0.8202 0.52265 0.0
C2502 C 0.18715 0.81832 0.50844 0.0
C2503 C 0.08273 0.85188 0.47018 0.0
C2504 C 0.0933 0.87069 0.46697 0.0
C2505 C 0.09349 0.83439 0.47394 0.0
C2506 C 0.11506 0.83517 0.47402 0.0
C2507 C 0.12558 0.85405 0.47113 0.0
C2508 C 0.11485 0.87161 0.46777 0.0
C2509 C 0.12677 0.81646 0.47704 0.0
C2510 C 0.14293 0.8175 0.49142 0.0
C2511 C 0.12237 0.79775 0.46578 0.0
C2512 C 0.1067 0.79586 0.44921 0.0
C2513 C 0.10777 0.80896 0.43272 0.0
C2514 C 0.09291 0.80713 0.41719 0.0
C2515 C 0.077 0.79215 0.4179 0.0
C2516 C 0.07594 0.77891 0.43411 0.0
C2517 C 0.09075 0.78069 0.44969 0.0
H2518 H 0.06551 0.79076 0.40586 0.0
H2519 H 0.21663 0.80808 0.54948 0.0
H2520 H 0.84403 0.7632 0.50564 0.0
H2521 H 0.86738 0.73493 0.50203 0.0
H2522 H 0.81866 0.6964 0.47411 0.0
H2523 H 0.79541 0.72457 0.47745 0.0
H2524 H 0.84183 0.67798 0.50589 0.0
H2525 H 0.85169 0.71618 0.44417 0.0
H2526 H 0.8602 0.74751 0.42571 0.0
H2527 H 0.9196 0.75259 0.45454 0.0
H2528 H 0.9113 0.72143 0.4734 0.0
H2529 H 0.88678 0.5945 0.45741 0.0
H2530 H 0.868 0.62463 0.46684 0.0
H2531 H 0.92506 0.65971 0.47707 0.0
H2532 H 0.94402 0.62967 0.46668 0.0
H2533 H 0.90046 0.68182 0.4582 0.0
H2534 H 0.89342 0.64296 0.51753 0.0
H2535 H 0.88604 0.6126 0.5378 0.0
H2536 H 0.82344 0.60987 0.51697 0.0
H2537 H 0.83051 0.64005 0.49634 0.0
C2538 C 0.83835 0.74865 0.49882 0.0
C2539 C 0.81799 0.74604 0.49172 0.0
C2540 C 0.85167 0.73259 0.49672 0.0
C2541 C 0.84471 0.71365 0.48776 0.0
C2542 C 0.82428 0.71092 0.48107 0.0
C2543 C 0.81109 0.72702 0.48286 0.0
C2544 C 0.8587 0.69667 0.48494 0.0
C2545 C 0.8546 0.6787 0.49539 0.0
C2546 C 0.87576 0.69801 0.47183 0.0
C2547 C 0.88078 0.71663 0.46037 0.0
C2548 C 0.86649 0.72408 0.44671 0.0
C2549 C 0.87129 0.74179 0.43615 0.0
C2550 C 0.8904 0.75207 0.439 0.0
C2551 C 0.90478 0.74463 0.45237 0.0
C2552 C 0.90004 0.72695 0.46299 0.0
C2553 C 0.89538 0.60858 0.46179 0.0
C2554 C 0.91691 0.60965 0.4614 0.0
C2555 C 0.88459 0.62581 0.46732 0.0
C2556 C 0.89507 0.6444 0.47313 0.0
C2557 C 0.91661 0.64554 0.47274 0.0
C2558 C 0.92743 0.62835 0.46684 0.0
C2559 C 0.88341 0.66273 0.47885 0.0
C2560 C 0.88792 0.68104 0.46896 0.0
C2561 C 0.86693 0.66182 0.49281 0.0
C2562 C 0.86255 0.6437 0.50527 0.0
C2563 C 0.87811 0.63581 0.51716 0.0
C2564 C 0.87398 0.61864 0.52873 0.0
C2565 C 0.85429 0.60929 0.52864 0.0
C2566 C 0.83869 0.61713 0.51702 0.0
C2567 C 0.84274 0.63428 0.50541 0.0
H2568 H 0.85112 0.596 0.53761 0.0
H2569 H 0.89409 0.76577 0.4308 0.0
H2570 H 0.27702 0.74865 0.51065 0.0
H2571 H 0.29933 0.77984 0.515 0.0
H2572 H 0.3525 0.74311 0.51475 0.0
H2573 H 0.33009 0.71194 0.51057 0.0
H2574 H 0.35478 0.77418 0.54446 0.0
H2575 H 0.3398 0.76574 0.47278 0.0
H2576 H 0.3171 0.76038 0.4426 0.0
H2577 H 0.28884 0.81692 0.45738 0.0
H2578 H 0.31111 0.82243 0.4879 0.0
H2579 H 0.42752 0.85557 0.53073 0.0
H2580 H 0.40711 0.82369 0.52439 0.0
H2581 H 0.35218 0.85755 0.52143 0.0
H2582 H 0.37246 0.88955 0.52736 0.0
H2583 H 0.35183 0.82712 0.49252 0.0
H2584 H 0.36536 0.83469 0.56498 0.0
H2585 H 0.38731 0.83981 0.59574 0.0
H2586 H 0.41789 0.78487 0.57973 0.0
H2587 H 0.39629 0.77958 0.5487 0.0
C2588 C 0.29347 0.74739 0.51171 0.0
C2589 C 0.30206 0.72821 0.51027 0.0
C2590 C 0.30615 0.76508 0.5141 0.0
C2591 C 0.32753 0.76371 0.51494 0.0
C2592 C 0.33604 0.74443 0.51409 0.0
C2593 C 0.32334 0.72674 0.51169 0.0
C2594 C 0.34103 0.78246 0.51618 0.0
C2595 C 0.35437 0.78564 0.53298 0.0
C2596 C 0.34016 0.79748 0.50131 0.0
C2597 C 0.32702 0.79442 0.48273 0.0
C2598 C 0.32866 0.77697 0.46968 0.0
C2599 C 0.31587 0.77391 0.4525 0.0
C2600 C 0.30152 0.78829 0.44809 0.0
C2601 C 0.29996 0.80579 0.46083 0.0
C2602 C 0.31267 0.8089 0.47806 0.0
C2603 C 0.41112 0.85627 0.52857 0.0
C2604 C 0.40159 0.87509 0.52975 0.0
C2605 C 0.39948 0.83804 0.52501 0.0
C2606 C 0.37812 0.83828 0.5228 0.0
C2607 C 0.36865 0.85706 0.52316 0.0
C2608 C 0.38028 0.87532 0.52661 0.0
C2609 C 0.3655 0.81894 0.5209 0.0
C2610 C 0.35232 0.81563 0.50396 0.0
C2611 C 0.36649 0.8038 0.53566 0.0
C2612 C 0.37935 0.80685 0.55442 0.0
C2613 C 0.37686 0.82378 0.56795 0.0
C2614 C 0.38922 0.8267 0.58544 0.0
C2615 C 0.40402 0.81271 0.58966 0.0
C2616 C 0.40644 0.79572 0.57642 0.0
C2617 C 0.39413 0.79274 0.55889 0.0
H2618 H 0.41359 0.815 0.6032 0.0
H2619 H 0.29163 0.78589 0.43479 0.0
H2620 H 0.50984 0.72804 0.7511 0.0
H2621 H 0.5128 0.70179 0.72355 0.0
H2622 H 0.51209 0.65497 0.76812 0.0
H2623 H 0.50935 0.68136 0.79567 0.0
H2624 H 0.54263 0.65044 0.74096 0.0
H2625 H 0.47067 0.6603 0.73785 0.0
H2626 H 0.43966 0.68018 0.73591 0.0
H2627 H 0.45869 0.70215 0.6778 0.0
H2628 H 0.48999 0.68264 0.67953 0.0
H2629 H 0.53989 0.57046 0.66417 0.0
H2630 H 0.52997 0.59202 0.69349 0.0
H2631 H 0.52696 0.64357 0.65479 0.0
H2632 H 0.53637 0.62211 0.62538 0.0
H2633 H 0.49594 0.64315 0.68071 0.0
H2634 H 0.56915 0.63663 0.6854 0.0
H2635 H 0.60086 0.61776 0.68726 0.0
H2636 H 0.5799 0.59041 0.74231 0.0
H2637 H 0.54793 0.60892 0.74061 0.0
C2638 C 0.51012 0.71209 0.75487 0.0
C2639 C 0.50928 0.70652 0.77529 0.0
C2640 C 0.51174 0.69714 0.73921 0.0
C2641 C 0.51244 0.67639 0.74378 0.0
C2642 C 0.5115 0.67086 0.76427 0.0
C2643 C 0.50987 0.68584 0.77993 0.0
C2644 C 0.51506 0.66063 0.72721 0.0
C2645 C 0.5322 0.64856 0.72797 0.0
C2646 C 0.50168 0.6585 0.71008 0.0
C2647 C 0.48277 0.67011 0.7089 0.0
C2648 C 0.46832 0.66948 0.72472 0.0
C2649 C 0.45068 0.68067 0.72365 0.0
C2650 C 0.44722 0.69245 0.70676 0.0
C2651 C 0.46139 0.69302 0.69088 0.0
C2652 C 0.47908 0.68188 0.69189 0.0
C2653 C 0.53698 0.58635 0.66186 0.0
C2654 C 0.53909 0.59457 0.64243 0.0
C2655 C 0.53137 0.59867 0.67866 0.0
C2656 C 0.52801 0.61949 0.67639 0.0
C2657 C 0.52949 0.62756 0.65691 0.0
C2658 C 0.53496 0.61525 0.64011 0.0
C2659 C 0.52367 0.63316 0.69433 0.0
C2660 C 0.50622 0.64485 0.69383 0.0
C2661 C 0.53682 0.63503 0.71166 0.0
C2662 C 0.55606 0.62397 0.71275 0.0
C2663 C 0.57124 0.62647 0.69781 0.0
C2664 C 0.58927 0.61586 0.69885 0.0
C2665 C 0.59236 0.60284 0.71485 0.0
C2666 C 0.57746 0.60046 0.72989 0.0
C2667 C 0.5594 0.61102 0.72891 0.0
H2668 H 0.60633 0.59464 0.71563 0.0
H2669 H 0.43356 0.70111 0.70596 0.0
H2670 H 0.47377 0.79629 0.7443 0.0
H2671 H 0.46865 0.81709 0.71461 0.0
H2672 H 0.50232 0.86796 0.74506 0.0
H2673 H 0.50766 0.8471 0.77484 0.0
H2674 H 0.46364 0.87747 0.72485 0.0
H2675 H 0.52675 0.84427 0.71146 0.0
H2676 H 0.54852 0.81457 0.70844 0.0
H2677 H 0.50853 0.78698 0.66167 0.0
H2678 H 0.48635 0.81639 0.66463 0.0
H2679 H 0.47131 0.93615 0.63559 0.0
H2680 H 0.47879 0.91896 0.6671 0.0
H2681 H 0.46176 0.86059 0.63718 0.0
H2682 H 0.45509 0.87754 0.60554 0.0
H2683 H 0.49405 0.85644 0.65849 0.0
H2684 H 0.42984 0.88674 0.67218 0.0
H2685 H 0.40582 0.91461 0.67529 0.0
H2686 H 0.44465 0.94558 0.72111 0.0
H2687 H 0.46905 0.91801 0.71806 0.0
C2688 C 0.47992 0.81196 0.74474 0.0
C2689 C 0.49111 0.8201 0.76185 0.0
C2690 C 0.47707 0.82378 0.72776 0.0
C2691 C 0.48519 0.844 0.72765 0.0
C2692 C 0.49596 0.85237 0.74489 0.0
C2693 C 0.49908 0.84044 0.76179 0.0
C2694 C 0.48279 0.85613 0.70926 0.0
C2695 C 0.47053 0.87314 0.71038 0.0
C2696 C 0.49137 0.85007 0.69034 0.0
C2697 C 0.50479 0.83246 0.6884 0.0
C2698 C 0.52251 0.8318 0.70065 0.0
C2699 C 0.53494 0.81503 0.69892 0.0
C2700 C 0.52989 0.79888 0.6849 0.0
C2701 C 0.51242 0.79949 0.67253 0.0
C2702 C 0.49992 0.81622 0.67422 0.0
C2703 C 0.46919 0.91965 0.63574 0.0
C2704 C 0.46261 0.90823 0.61804 0.0
C2705 C 0.47336 0.90984 0.65381 0.0
C2706 C 0.47059 0.88846 0.65466 0.0
C2707 C 0.46409 0.87707 0.63695 0.0
C2708 C 0.46024 0.88681 0.61885 0.0
C2709 C 0.47459 0.87778 0.67384 0.0
C2710 C 0.4872 0.86098 0.67292 0.0
C2711 C 0.46602 0.88384 0.69285 0.0
C2712 C 0.45138 0.90043 0.69472 0.0
C2713 C 0.43334 0.89958 0.6828 0.0
C2714 C 0.41964 0.9153 0.68457 0.0
C2715 C 0.42374 0.93189 0.69834 0.0
C2716 C 0.44152 0.93275 0.71042 0.0
C2717 C 0.45528 0.91707 0.70868 0.0
H2718 H 0.41311 0.94405 0.6997 0.0
H2719 H 0.53953 0.78591 0.68359 0.0
H2720 H 0.50992 0.34223 0.73949 0.0
H2721 H 0.51354 0.36722 0.76855 0.0
H2722 H 0.53661 0.32061 0.80602 0.0
H2723 H 0.53334 0.29577 0.77705 0.0
H2724 H 0.5048 0.34552 0.82421 0.0
H2725 H 0.56976 0.35104 0.78782 0.0
H2726 H 0.59058 0.35728 0.75722 0.0
H2727 H 0.56708 0.41719 0.75375 0.0
H2728 H 0.54589 0.41116 0.78418 0.0
H2729 H 0.55642 0.38875 0.90972 0.0
H2730 H 0.54564 0.37035 0.87813 0.0
H2731 H 0.54149 0.42757 0.84824 0.0
H2732 H 0.55309 0.44616 0.87979 0.0
H2733 H 0.55879 0.40149 0.8239 0.0
H2734 H 0.49777 0.39901 0.86253 0.0
H2735 H 0.47587 0.39374 0.89255 0.0
H2736 H 0.48914 0.33012 0.89108 0.0
H2737 H 0.51138 0.33505 0.86124 0.0
C2738 C 0.51565 0.33739 0.754 0.0
C2739 C 0.52146 0.3172 0.75614 0.0
C2740 C 0.51774 0.35161 0.77048 0.0
C2741 C 0.52534 0.34566 0.78932 0.0
C2742 C 0.53068 0.3254 0.79157 0.0
C2743 C 0.52893 0.31131 0.77505 0.0
C2744 C 0.52836 0.36056 0.80669 0.0
C2745 C 0.51661 0.35776 0.82425 0.0
C2746 C 0.54323 0.37692 0.80629 0.0
C2747 C 0.55605 0.38055 0.78809 0.0
C2748 C 0.56888 0.36546 0.78041 0.0
C2749 C 0.58078 0.36898 0.76312 0.0
C2750 C 0.5801 0.38759 0.7535 0.0
C2751 C 0.56756 0.40276 0.76119 0.0
C2752 C 0.55561 0.39931 0.77845 0.0
C2753 C 0.55314 0.39746 0.89646 0.0
C2754 C 0.5555 0.41891 0.89726 0.0
C2755 C 0.54684 0.38692 0.87843 0.0
C2756 C 0.54228 0.3976 0.86094 0.0
C2757 C 0.5448 0.41903 0.8616 0.0
C2758 C 0.55142 0.42962 0.87961 0.0
C2759 C 0.53563 0.38615 0.84185 0.0
C2760 C 0.54666 0.38958 0.82389 0.0
C2761 C 0.51982 0.37055 0.84178 0.0
C2762 C 0.50635 0.36744 0.85969 0.0
C2763 C 0.49613 0.38392 0.86868 0.0
C2764 C 0.48364 0.38099 0.88566 0.0
C2765 C 0.48114 0.36162 0.89373 0.0
C2766 C 0.49109 0.34512 0.88481 0.0
C2767 C 0.50362 0.34797 0.86784 0.0
H2768 H 0.47146 0.35938 0.90689 0.0
H2769 H 0.58932 0.39029 0.74013 0.0
H2770 H 0.52159 0.22476 0.76339 0.0
H2771 H 0.51848 0.2023 0.79245 0.0
H2772 H 0.49219 0.15379 0.75241 0.0
H2773 H 0.49503 0.17646 0.72346 0.0
H2774 H 0.47106 0.15667 0.78693 0.0
H2775 H 0.54179 0.15346 0.76953 0.0
H2776 H 0.5765 0.16741 0.76195 0.0
H2777 H 0.58134 0.19563 0.82227 0.0
H2778 H 0.54648 0.18215 0.83009 0.0
H2779 H 0.47764 0.07867 0.85852 0.0
H2780 H 0.48374 0.09854 0.82815 0.0
H2781 H 0.50711 0.14989 0.86617 0.0
H2782 H 0.50122 0.13014 0.89661 0.0
H2783 H 0.5303 0.14425 0.83187 0.0
H2784 H 0.45887 0.14891 0.84833 0.0
H2785 H 0.42401 0.1352 0.85572 0.0
H2786 H 0.42074 0.10398 0.79673 0.0
H2787 H 0.45573 0.11729 0.7891 0.0
C2788 C 0.5152 0.20928 0.76092 0.0
C2789 C 0.5085 0.20221 0.74139 0.0
C2790 C 0.5135 0.19644 0.77743 0.0
C2791 C 0.5053 0.17626 0.77458 0.0
C2792 C 0.49857 0.16927 0.75497 0.0
C2793 C 0.50022 0.18214 0.73848 0.0
C2794 C 0.50345 0.16258 0.7921 0.0
C2795 C 0.48409 0.15369 0.79654 0.0
C2796 C 0.52037 0.15899 0.80491 0.0
C2797 C 0.54144 0.16693 0.80034 0.0
C2798 C 0.55019 0.16276 0.78113 0.0
C2799 C 0.5699 0.17057 0.7768 0.0
C2800 C 0.5811 0.18243 0.79161 0.0
C2801 C 0.57263 0.18646 0.8108 0.0
C2802 C 0.5529 0.17873 0.8152 0.0
C2803 C 0.48424 0.09413 0.86045 0.0
C2804 C 0.48881 0.10283 0.88006 0.0
C2805 C 0.48765 0.10549 0.84306 0.0
C2806 C 0.49565 0.12578 0.84492 0.0
C2807 C 0.50089 0.13427 0.86438 0.0
C2808 C 0.49743 0.12296 0.88178 0.0
C2809 C 0.49792 0.13843 0.82667 0.0
C2810 C 0.51733 0.14714 0.82214 0.0
C2811 C 0.48107 0.14183 0.81373 0.0
C2812 C 0.45999 0.13391 0.81824 0.0
C2813 C 0.45078 0.13899 0.837 0.0
C2814 C 0.43099 0.13131 0.84122 0.0
C2815 C 0.42019 0.11868 0.82673 0.0
C2816 C 0.42914 0.11374 0.80795 0.0
C2817 C 0.44894 0.12136 0.80367 0.0
H2818 H 0.40487 0.11275 0.83002 0.0
H2819 H 0.59636 0.18846 0.78822 0.0
H2820 H 0.78623 0.50452 0.6915 0.0
H2821 H 0.75502 0.50891 0.67143 0.0
H2822 H 0.72199 0.52155 0.72702 0.0
H2823 H 0.75333 0.51692 0.74714 0.0
H2824 H 0.69943 0.49606 0.699 0.0
H2825 H 0.73867 0.5599 0.69964 0.0
H2826 H 0.76995 0.58177 0.69509 0.0
H2827 H 0.7706 0.56383 0.63129 0.0
H2828 H 0.73954 0.54151 0.63554 0.0
H2829 H 0.61433 0.53954 0.65251 0.0
H2830 H 0.64425 0.53344 0.67349 0.0
H2831 H 0.68082 0.52712 0.61919 0.0
H2832 H 0.65102 0.5338 0.59806 0.0
H2833 H 0.70143 0.54947 0.64733 0.0
H2834 H 0.66308 0.48506 0.64641 0.0
H2835 H 0.63255 0.46206 0.65073 0.0
H2836 H 0.63057 0.48021 0.71442 0.0
H2837 H 0.66095 0.50354 0.71042 0.0
C2838 C 0.77219 0.50796 0.69937 0.0
C2839 C 0.77195 0.51023 0.72076 0.0
C2840 C 0.75445 0.51057 0.68795 0.0
C2841 C 0.73623 0.51573 0.69773 0.0
C2842 C 0.73587 0.51754 0.71919 0.0
C2843 C 0.75369 0.51494 0.73064 0.0
C2844 C 0.71783 0.51995 0.68544 0.0
C2845 C 0.69974 0.50792 0.6879 0.0
C2846 C 0.71843 0.53513 0.67064 0.0
C2847 C 0.73686 0.5489 0.66795 0.0
C2848 C 0.74555 0.56051 0.68466 0.0
C2849 C 0.76324 0.573 0.68214 0.0
C2850 C 0.77227 0.57417 0.66292 0.0
C2851 C 0.7636 0.5629 0.64617 0.0
C2852 C 0.74594 0.55033 0.64863 0.0
C2853 C 0.62871 0.53679 0.64497 0.0
C2854 C 0.63022 0.53707 0.62355 0.0
C2855 C 0.64582 0.53321 0.65703 0.0
C2856 C 0.66476 0.52949 0.64794 0.0
C2857 C 0.66637 0.52991 0.62657 0.0
C2858 C 0.64929 0.53368 0.6145 0.0
C2859 C 0.68295 0.52547 0.66073 0.0
C2860 C 0.70104 0.5376 0.65841 0.0
C2861 C 0.68237 0.5103 0.6756 0.0
C2862 C 0.66418 0.49619 0.67807 0.0
C2863 C 0.65605 0.48425 0.66131 0.0
C2864 C 0.63879 0.47114 0.6637 0.0
C2865 C 0.6296 0.46971 0.68283 0.0
C2866 C 0.63769 0.48135 0.69961 0.0
C2867 C 0.65495 0.49451 0.6973 0.0
H2868 H 0.61623 0.45955 0.68465 0.0
H2869 H 0.78597 0.58384 0.66099 0.0
H2870 H 0.2285 0.98694 0.67516 0.0
H2871 H 0.25663 0.98166 0.65119 0.0
H2872 H 0.30043 0.00048 0.69877 0.0
H2873 H 0.27213 0.00586 0.72275 0.0
H2874 H 0.31004 0.01758 0.66241 0.0
H2875 H 0.2919 0.95062 0.68561 0.0
H2876 H 0.2682 0.92134 0.69258 0.0
H2877 H 0.25317 0.91389 0.62867 0.0
H2878 H 0.27652 0.94339 0.62136 0.0
H2879 H 0.39924 0.97875 0.61738 0.0
H2880 H 0.3704 0.98663 0.63923 0.0
H2881 H 0.32824 0.96527 0.59113 0.0
H2882 H 0.35713 0.957 0.56913 0.0
H2883 H 0.31721 0.94986 0.62701 0.0
H2884 H 0.33566 0.01636 0.60357 0.0
H2885 H 0.35885 0.04602 0.59651 0.0
H2886 H 0.37303 0.05453 0.66052 0.0
H2887 H 0.35015 0.02473 0.66794 0.0
C2888 C 0.24418 0.98977 0.68045 0.0
C2889 C 0.24833 0.99637 0.70079 0.0
C2890 C 0.2602 0.98679 0.6668 0.0
C2891 C 0.28066 0.99039 0.67326 0.0
C2892 C 0.28478 0.99751 0.6935 0.0
C2893 C 0.2687 0.00047 0.70718 0.0
C2894 C 0.2977 0.98655 0.65891 0.0
C2895 C 0.31178 0.00271 0.65487 0.0
C2896 C 0.29964 0.96728 0.64865 0.0
C2897 C 0.28582 0.94934 0.65297 0.0
C2898 C 0.28343 0.94284 0.67306 0.0
C2899 C 0.27007 0.92619 0.67707 0.0
C2900 C 0.25915 0.91579 0.66108 0.0
C2901 C 0.26162 0.92198 0.64104 0.0
C2902 C 0.27492 0.93866 0.63695 0.0
C2903 C 0.38386 0.97587 0.6113 0.0
C2904 C 0.38056 0.96724 0.59143 0.0
C2905 C 0.36735 0.98047 0.62384 0.0
C2906 C 0.34713 0.97673 0.61678 0.0
C2907 C 0.34372 0.96832 0.59689 0.0
C2908 C 0.36027 0.96369 0.5843 0.0
C2909 C 0.32962 0.9809 0.63051 0.0
C2910 C 0.31545 0.96477 0.63447 0.0
C2911 C 0.32759 1.00021 0.64067 0.0
C2912 C 0.34133 0.01819 0.63628 0.0
C2913 C 0.34385 0.02445 0.61612 0.0
C2914 C 0.35692 0.04131 0.61206 0.0
C2915 C 0.36744 0.05212 0.62805 0.0
C2916 C 0.36489 0.04612 0.64815 0.0
C2917 C 0.35185 0.02926 0.65229 0.0
H2918 H 0.37755 0.06516 0.62488 0.0
H2919 H 0.24882 0.90291 0.66422 0.0
H2920 H 0.76425 0.52609 0.8193 0.0
H2921 H 0.73888 0.52298 0.84627 0.0
H2922 H 0.77528 0.47891 0.87534 0.0
H2923 H 0.80051 0.4816 0.84788 0.0
H2924 H 0.73768 0.46521 0.87363 0.0
H2925 H 0.76981 0.52814 0.89662 0.0
H2926 H 0.78478 0.56324 0.89442 0.0
H2927 H 0.72606 0.58433 0.87737 0.0
H2928 H 0.71077 0.54928 0.87914 0.0
H2929 H 0.66584 0.46448 0.95567 0.0
H2930 H 0.69837 0.47218 0.93855 0.0
H2931 H 0.66649 0.50424 0.89273 0.0
H2932 H 0.63387 0.49638 0.90953 0.0
H2933 H 0.70532 0.52417 0.90821 0.0
H2934 H 0.67593 0.45842 0.88099 0.0
H2935 H 0.66216 0.42305 0.88478 0.0
H2936 H 0.71858 0.40756 0.91303 0.0
H2937 H 0.73257 0.44295 0.90965 0.0
C2938 C 0.767 0.51601 0.83163 0.0
C2939 C 0.78431 0.5041 0.83155 0.0
C2940 C 0.75253 0.51428 0.8471 0.0
C2941 C 0.75528 0.50091 0.86304 0.0
C2942 C 0.77283 0.48933 0.86322 0.0
C2943 C 0.78721 0.49086 0.84756 0.0
C2944 C 0.73902 0.49804 0.87856 0.0
C2945 C 0.73097 0.47812 0.88153 0.0
C2946 C 0.73009 0.51483 0.88884 0.0
C2947 C 0.73915 0.53602 0.8879 0.0
C2948 C 0.7601 0.54023 0.89227 0.0
C2949 C 0.76865 0.56013 0.89111 0.0
C2950 C 0.75638 0.576 0.88574 0.0
C2951 C 0.73553 0.57201 0.88154 0.0
C2952 C 0.72691 0.55213 0.88265 0.0
C2953 C 0.66578 0.47339 0.94209 0.0
C2954 C 0.64727 0.4797 0.93385 0.0
C2955 C 0.68436 0.47775 0.93235 0.0
C2956 C 0.68475 0.48872 0.91439 0.0
C2957 C 0.66645 0.49581 0.90663 0.0
C2958 C 0.64784 0.49119 0.91617 0.0
C2959 C 0.70393 0.49151 0.90276 0.0
C2960 C 0.71242 0.51136 0.90055 0.0
C2961 C 0.71353 0.47466 0.89348 0.0
C2962 C 0.70519 0.45336 0.89529 0.0
C2963 C 0.68533 0.44751 0.88816 0.0
C2964 C 0.6775 0.42746 0.89021 0.0
C2965 C 0.68946 0.41308 0.8992 0.0
C2966 C 0.70931 0.41872 0.9061 0.0
C2967 C 0.7172 0.43876 0.90412 0.0
H2968 H 0.68338 0.39757 0.90078 0.0
H2969 H 0.76303 0.5914 0.88484 0.0
H2970 H 0.28044 0.02414 0.79043 0.0
H2971 H 0.30897 0.02555 0.81496 0.0
H2972 H 0.26986 0.99707 0.85951 0.0
H2973 H 0.24118 0.99538 0.83479 0.0
H2974 H 0.29404 0.03464 0.8732 0.0
H2975 H 0.30202 0.96848 0.84102 0.0
H2976 H 0.30411 0.94388 0.81166 0.0
H2977 H 0.35704 0.97747 0.78984 0.0
H2978 H 0.35509 0.00246 0.8189 0.0
H2979 H 0.38288 0.03443 0.9375 0.0
H2980 H 0.35105 0.02319 0.91952 0.0
H2981 H 0.38048 0.03308 0.86169 0.0
H2982 H 0.41238 0.0435 0.87944 0.0
H2983 H 0.35828 0.99946 0.85867 0.0
H2984 H 0.34774 0.06805 0.88554 0.0
H2985 H 0.34569 0.09521 0.91258 0.0
H2986 H 0.2981 0.06005 0.94201 0.0
H2987 H 0.30007 0.03255 0.91525 0.0
C2988 C 0.27796 0.01817 0.80545 0.0
C2989 C 0.25871 0.00968 0.81082 0.0
C2990 C 0.29423 0.0189 0.81937 0.0
C2991 C 0.29145 0.01132 0.83893 0.0
C2992 C 0.27222 0.00292 0.84442 0.0
C2993 C 0.25596 0.00189 0.83034 0.0
C2994 C 0.30875 0.01273 0.85359 0.0
C2995 C 0.30797 0.02661 0.87039 0.0
C2996 C 0.32695 0.00257 0.84948 0.0
C2997 C 0.32833 0.98741 0.8321 0.0
C2998 C 0.31402 0.9707 0.82989 0.0
C2999 C 0.3152 0.95667 0.81331 0.0
C3000 C 0.33068 0.95912 0.79888 0.0
C3001 C 0.34506 0.97559 0.80103 0.0
C3002 C 0.34394 0.98968 0.81757 0.0
C3003 C 0.38254 0.03413 0.92095 0.0
C3004 C 0.40011 0.0399 0.90988 0.0
C3005 C 0.36434 0.02777 0.9107 0.0
C3006 C 0.36331 0.02751 0.88925 0.0
C3007 C 0.38092 0.03306 0.87823 0.0
C3008 C 0.39914 0.03908 0.88842 0.0
C3009 C 0.34391 0.02192 0.87805 0.0
C3010 C 0.34427 0.00721 0.86185 0.0
C3011 C 0.32543 0.03163 0.88249 0.0
C3012 C 0.32424 0.04815 0.89856 0.0
C3013 C 0.33696 0.06605 0.89787 0.0
C3014 C 0.33579 0.08151 0.91313 0.0
C3015 C 0.32182 0.07933 0.92904 0.0
C3016 C 0.30895 0.0617 0.9297 0.0
C3017 C 0.31008 0.04617 0.91449 0.0
H3018 H 0.32094 0.09132 0.94084 0.0
H3019 H 0.33156 0.94825 0.78605 0.0
H3020 H 0.67673 0.77154 0.50474 0.0
H3021 H 0.65347 0.74207 0.51174 0.0
H3022 H 0.70555 0.70483 0.51942 0.0
H3023 H 0.72871 0.73427 0.51218 0.0
H3024 H 0.67418 0.6841 0.498 0.0
H3025 H 0.68292 0.72604 0.56012 0.0
H3026 H 0.68211 0.75839 0.58068 0.0
H3027 H 0.61749 0.76073 0.56907 0.0
H3028 H 0.61799 0.72855 0.54812 0.0
H3029 H 0.63474 0.60372 0.55614 0.0
H3030 H 0.65384 0.63366 0.54406 0.0
H3031 H 0.59809 0.66628 0.54177 0.0
H3032 H 0.5788 0.6364 0.55429 0.0
H3033 H 0.62882 0.69016 0.55823 0.0
H3034 H 0.61942 0.64697 0.49801 0.0
H3035 H 0.6202 0.61485 0.47709 0.0
H3036 H 0.68556 0.6149 0.48457 0.0
H3037 H 0.68515 0.64688 0.5058 0.0
C3038 C 0.68306 0.75694 0.50768 0.0
C3039 C 0.70434 0.75495 0.50797 0.0
C3040 C 0.66986 0.7402 0.51173 0.0
C3041 C 0.67781 0.72133 0.51629 0.0
C3042 C 0.69911 0.71924 0.51591 0.0
C3043 C 0.71229 0.73597 0.51185 0.0
C3044 C 0.66409 0.70403 0.52248 0.0
C3045 C 0.66436 0.68535 0.51125 0.0
C3046 C 0.65093 0.70587 0.53947 0.0
C3047 C 0.65053 0.725 0.55239 0.0
C3048 C 0.66856 0.73352 0.56185 0.0
C3049 C 0.66816 0.75182 0.57358 0.0
C3050 C 0.64977 0.76163 0.57615 0.0
C3051 C 0.63173 0.75312 0.56704 0.0
C3052 C 0.63206 0.73485 0.55525 0.0
C3053 C 0.62647 0.61722 0.55307 0.0
C3054 C 0.60519 0.6176 0.5561 0.0
C3055 C 0.63743 0.63432 0.54606 0.0
C3056 C 0.62734 0.65209 0.54167 0.0
C3057 C 0.60616 0.65268 0.54497 0.0
C3058 C 0.59516 0.63558 0.5521 0.0
C3059 C 0.63906 0.67008 0.53388 0.0
C3060 C 0.63844 0.68892 0.54484 0.0
C3061 C 0.65188 0.66839 0.51659 0.0
C3062 C 0.65222 0.64926 0.50364 0.0
C3063 C 0.63394 0.64007 0.49531 0.0
C3064 C 0.63432 0.62189 0.48338 0.0
C3065 C 0.65291 0.61282 0.47953 0.0
C3066 C 0.67117 0.62194 0.48757 0.0
C3067 C 0.67088 0.64011 0.49953 0.0
H3068 H 0.65318 0.59874 0.4703 0.0
H3069 H 0.64948 0.7758 0.58523 0.0
H3070 H 0.72585 0.26288 0.96894 0.0
H3071 H 0.70468 0.29276 0.96933 0.0
H3072 H 0.66171 0.26254 0.00914 0.0
H3073 H 0.68301 0.23256 0.00898 0.0
H3074 H 0.64408 0.28276 0.97363 0.0
H3075 H 0.6911 0.29642 0.03069 0.0
H3076 H 0.72555 0.2995 0.0465 0.0
H3077 H 0.74368 0.34604 0.00504 0.0
H3078 H 0.70941 0.34304 0.98879 0.0
H3079 H 0.58707 0.37129 0.99208 0.0
H3080 H 0.60564 0.34007 0.99619 0.0
H3081 H 0.66138 0.37147 0.97683 0.0
H3082 H 0.64318 0.40291 0.97416 0.0
H3083 H 0.67166 0.34913 0.00415 0.0
H3084 H 0.62875 0.33545 0.94494 0.0
H3085 H 0.59643 0.33224 0.92509 0.0
H3086 H 0.57292 0.28634 0.96489 0.0
H3087 H 0.60502 0.28946 0.98513 0.0
C3088 C 0.71181 0.26253 0.97765 0.0
C3089 C 0.70606 0.24537 0.9889 0.0
C3090 C 0.69979 0.27964 0.97793 0.0
C3091 C 0.68168 0.27988 0.98931 0.0
C3092 C 0.67565 0.26264 1.00027 0.0
C3093 C 0.68785 0.2456 1.00025 0.0
C3094 C 0.66931 0.29834 0.98996 0.0
C3095 C 0.6499 0.29724 0.98058 0.0
C3096 C 0.67725 0.31732 0.99842 0.0
C3097 C 0.69774 0.31939 0.00843 0.0
C3098 C 0.70248 0.30722 0.02486 0.0
C3099 C 0.72197 0.30896 0.03392 0.0
C3100 C 0.73681 0.32293 0.02676 0.0
C3101 C 0.73217 0.33523 0.01057 0.0
C3102 C 0.71271 0.33353 0.00145 0.0
C3103 C 0.60332 0.37151 0.98887 0.0
C3104 C 0.61366 0.38955 0.98282 0.0
C3105 C 0.61393 0.35359 0.99103 0.0
C3106 C 0.63493 0.35311 0.9864 0.0
C3107 C 0.64524 0.37127 0.98057 0.0
C3108 C 0.6348 0.3893 0.97901 0.0
C3109 C 0.64628 0.33385 0.98751 0.0
C3110 C 0.6656 0.33473 0.99725 0.0
C3111 C 0.63848 0.31479 0.97883 0.0
C3112 C 0.61918 0.31286 0.96668 0.0
C3113 C 0.61662 0.32478 0.94954 0.0
C3114 C 0.59836 0.32296 0.93821 0.0
C3115 C 0.58261 0.30914 0.94376 0.0
C3116 C 0.58512 0.29706 0.96063 0.0
C3117 C 0.60335 0.29884 0.97203 0.0
H3118 H 0.56847 0.30776 0.93497 0.0
H3119 H 0.7519 0.32424 0.03378 0.0
H3120 H 0.31801 0.25025 0.9823 0.0
H3121 H 0.34127 0.22204 0.97972 0.0
H3122 H 0.38763 0.25887 0.01333 0.0
H3123 H 0.36413 0.28715 0.01633 0.0
H3124 H 0.39961 0.23682 0.97344 0.0
H3125 H 0.36883 0.22589 0.03888 0.0
H3126 H 0.33984 0.22251 0.06262 0.0
H3127 H 0.31448 0.17113 0.02641 0.0
H3128 H 0.34316 0.17441 0.00227 0.0
H3129 H 0.46201 0.15018 0.97552 0.0
H3130 H 0.44457 0.1813 0.98548 0.0
H3131 H 0.386 0.14938 0.97395 0.0
H3132 H 0.40323 0.11819 0.96483 0.0
H3133 H 0.38341 0.17144 0.00691 0.0
H3134 H 0.40973 0.1837 0.93971 0.0
H3135 H 0.43635 0.18695 0.91336 0.0
H3136 H 0.46759 0.23519 0.94951 0.0
H3137 H 0.44127 0.23203 0.97621 0.0
C3138 C 0.33317 0.25231 0.98912 0.0
C3139 C 0.33935 0.27081 0.99948 0.0
C3140 C 0.34638 0.23622 0.98769 0.0
C3141 C 0.36609 0.23844 0.99635 0.0
C3142 C 0.37244 0.25695 0.00656 0.0
C3143 C 0.35904 0.27298 0.00834 0.0
C3144 C 0.37989 0.22123 0.99454 0.0
C3145 C 0.39642 0.22263 0.98107 0.0
C3146 C 0.37525 0.20264 0.00409 0.0
C3147 C 0.35807 0.20051 0.01868 0.0
C3148 C 0.35698 0.21398 0.03588 0.0
C3149 C 0.34062 0.21206 0.04943 0.0
C3150 C 0.32531 0.19664 0.046 0.0
C3151 C 0.32635 0.18307 0.02904 0.0
C3152 C 0.34267 0.18494 0.01544 0.0
C3153 C 0.44541 0.14982 0.97516 0.0
C3154 C 0.43401 0.13172 0.96935 0.0
C3155 C 0.43546 0.16764 0.98078 0.0
C3156 C 0.41395 0.1678 0.98024 0.0
C3157 C 0.4026 0.14967 0.97458 0.0
C3158 C 0.41249 0.13183 0.9693 0.0
C3159 C 0.40304 0.18674 0.98539 0.0
C3160 C 0.38695 0.18568 0.99949 0.0
C3161 C 0.40786 0.20553 0.97608 0.0
C3162 C 0.42368 0.20745 0.96006 0.0
C3163 C 0.42237 0.19488 0.94211 0.0
C3164 C 0.43738 0.19673 0.9271 0.0
C3165 C 0.45369 0.21122 0.92979 0.0
C3166 C 0.45498 0.22394 0.94747 0.0
C3167 C 0.44002 0.22213 0.96254 0.0
H3168 H 0.4653 0.21263 0.91816 0.0
H3169 H 0.31266 0.19517 0.05651 0.0
H3170 H 0.79229 0.25943 0.00685 0.0
H3171 H 0.81432 0.29081 0.01103 0.0
H3172 H 0.86714 0.2565 0.99504 0.0
H3173 H 0.84506 0.22509 0.99112 0.0
H3174 H 0.87397 0.28259 0.02864 0.0
H3175 H 0.84633 0.28558 0.96048 0.0
H3176 H 0.81834 0.28454 0.93493 0.0
H3177 H 0.79274 0.33676 0.96515 0.0
H3178 H 0.82042 0.33791 0.99107 0.0
H3179 H 0.94178 0.36859 0.01893 0.0
H3180 H 0.92148 0.33704 0.01034 0.0
H3181 H 0.86582 0.36888 0.02021 0.0
H3182 H 0.88594 0.40056 0.02818 0.0
H3183 H 0.86133 0.34334 0.98827 0.0
H3184 H 0.8862 0.3397 0.05723 0.0
H3185 H 0.9125 0.3408 0.08452 0.0
H3186 H 0.94146 0.29024 0.05486 0.0
H3187 H 0.91548 0.28902 0.02722 0.0
C3188 C 0.80862 0.25875 0.00427 0.0
C3189 C 0.81717 0.24017 0.99859 0.0
C3190 C 0.82113 0.27656 0.00656 0.0
C3191 C 0.84228 0.27594 0.00308 0.0
C3192 C 0.85084 0.25724 0.99771 0.0
C3193 C 0.83832 0.23943 0.99543 0.0
C3194 C 0.85549 0.29483 0.00512 0.0
C3195 C 0.87146 0.29578 0.0196 0.0
C3196 C 0.85177 0.31213 0.99365 0.0
C3197 C 0.83538 0.31174 0.97779 0.0
C3198 C 0.83468 0.29678 0.96173 0.0
C3199 C 0.81887 0.29617 0.94718 0.0
C3200 C 0.80376 0.31056 0.94843 0.0
C3201 C 0.80446 0.32562 0.9642 0.0
C3202 C 0.82022 0.32628 0.97881 0.0
C3203 C 0.92522 0.3689 0.01911 0.0
C3204 C 0.91546 0.38701 0.02441 0.0
C3205 C 0.91365 0.35086 0.01426 0.0
C3206 C 0.89217 0.35057 0.01501 0.0
C3207 C 0.88239 0.36878 0.01958 0.0
C3208 C 0.89393 0.38686 0.02418 0.0
C3209 C 0.87983 0.33116 0.01186 0.0
C3210 C 0.86399 0.33011 0.9972 0.0
C3211 C 0.88349 0.31383 0.02336 0.0
C3212 C 0.89902 0.31441 0.04005 0.0
C3213 C 0.89826 0.32891 0.05646 0.0
C3214 C 0.9131 0.32954 0.072 0.0
C3215 C 0.92868 0.31564 0.0714 0.0
C3216 C 0.9294 0.30102 0.05529 0.0
C3217 C 0.91462 0.30034 0.03969 0.0
H3218 H 0.94015 0.31616 0.08344 0.0
H3219 H 0.79152 0.31005 0.93716 0.0
loop_
_geom_bond_atom_site_label_1
_geom_bond_atom_site_label_2
_geom_bond_distance
_geom_bond_site_symmetry_2
_ccdc_geom_bond_type
C0 C1 1.443 . S
C0 N4 1.376 . S
C0 C38 1.389 . S
C1 C0 1.443 . S
C1 C2 1.340 . S
C1 H41 0.951 . S
C2 C1 1.340 . S
C2 C3 1.439 . S
C2 H42 0.950 . S
C3 C2 1.439 . S
C3 N4 1.374 . S
C3 C37 1.395 . S
N4 C0 1.376 . S
N4 C3 1.374 . S
N4 Co5 2.008 1_655 S
Co5 N4 2.008 1_455 S
Co5 N6 1.995 1_455 S
Co5 N11 2.008 . S
Co5 N16 1.995 . S
Co5 N21 2.282 . S
Co5 N27 2.282 1_455 S
N6 Co5 1.995 1_655 S
N6 C7 1.376 . S
N6 C10 1.383 . S
C7 N6 1.376 . S
C7 C8 1.446 . S
C7 C37 1.391 . S
C8 C7 1.446 . S
C8 C9 1.339 . S
C8 H43 0.949 . S
C9 C8 1.339 . S
C9 C10 1.439 . S
C9 H44 0.950 . S
C10 N6 1.383 . S
C10 C9 1.439 . S
C10 C39 1.392 1_655 S
N11 Co5 2.008 . S
N11 C12 1.376 . S
N11 C15 1.374 . S
C12 N11 1.376 . S
C12 C13 1.443 . S
C12 C39 1.389 . S
C13 C12 1.443 . S
C13 C14 1.340 . S
C13 H45 0.951 . S
C14 C13 1.340 . S
C14 C15 1.439 . S
C14 H46 0.950 . S
C15 N11 1.374 . S
C15 C14 1.439 . S
C15 C40 1.395 . S
N16 Co5 1.995 . S
N16 C17 1.376 . S
N16 C20 1.383 . S
C17 N16 1.376 . S
C17 C18 1.446 . S
C17 C40 1.391 . S
C18 C17 1.446 . S
C18 C19 1.339 . S
C18 H47 0.949 . S
C19 C18 1.339 . S
C19 C20 1.439 . S
C19 H48 0.950 . S
C20 N16 1.383 . S
C20 C19 1.439 . S
C20 C38 1.392 1_455 S
N21 Co5 2.282 . S
N21 C24 1.332 . S
N21 C26 1.332 1_455 S
C22 C23 1.386 . S
C22 C25 1.388 1_455 S
C23 C22 1.386 . S
C23 C24 1.382 . S
C23 H49 0.950 . S
C24 N21 1.332 . S
C24 C23 1.382 . S
C24 H35 0.952 . S
C25 C22 1.388 1_655 S
C25 C26 1.382 . S
C25 H50 0.950 . S
C26 N21 1.332 1_655 S
C26 C25 1.382 . S
C26 H36 0.948 . S
N27 Co5 2.282 1_655 S
N27 C31 1.332 . S
N27 C32 1.332 1_655 S
C28 C29 1.388 1_455 S
C28 C32 1.382 . S
C28 H51 0.950 . S
C29 C28 1.388 1_655 S
C29 C30 1.386 . S
C30 C29 1.386 . S
C30 C31 1.382 . S
C30 H52 0.950 . S
C31 N27 1.332 . S
C31 C30 1.382 . S
C31 H33 0.952 . S
C32 N27 1.332 1_455 S
C32 C28 1.382 . S
C32 H34 0.948 . S
H33 C31 0.952 . S
H34 C32 0.948 . S
H35 C24 0.952 . S
H36 C26 0.948 . S
C37 C3 1.395 . S
C37 C7 1.391 . S
C38 C0 1.389 . S
C38 C20 1.392 1_655 S
C39 C10 1.392 1_455 S
C39 C12 1.389 . S
C40 C15 1.395 . S
C40 C17 1.391 . S
H41 C1 0.951 . S
H42 C2 0.950 . S
H43 C8 0.949 . S
H44 C9 0.950 . S
H45 C13 0.951 . S
H46 C14 0.950 . S
H47 C18 0.949 . S
H48 C19 0.950 . S
H49 C23 0.950 . S
H50 C25 0.950 . S
H51 C28 0.950 . S
H52 C30 0.950 . S
C53 C54 1.443 . S
C53 N57 1.376 . S
C53 C91 1.389 1_655 S
C54 C53 1.443 . S
C54 C55 1.340 . S
C54 H94 0.951 . S
C55 C54 1.340 . S
C55 C56 1.439 . S
C55 H95 0.950 . S
C56 C55 1.439 . S
C56 N57 1.374 . S
C56 C90 1.395 . S
N57 C53 1.376 . S
N57 C56 1.374 . S
N57 Co58 2.008 1_655 S
Co58 N57 2.008 1_455 S
Co58 N59 1.995 . S
Co58 N64 2.008 . S
Co58 N69 1.995 . S
Co58 N74 2.282 . S
Co58 N80 2.282 . S
N59 Co58 1.995 . S
N59 C60 1.376 1_455 S
N59 C63 1.383 . S
C60 N59 1.376 1_655 S
C60 C61 1.446 . S
C60 C90 1.391 . S
C61 C60 1.446 . S
C61 C62 1.339 . S
C61 H96 0.949 . S
C62 C61 1.339 . S
C62 C63 1.439 1_655 S
C62 H97 0.950 . S
C63 N59 1.383 . S
C63 C62 1.439 1_455 S
C63 C92 1.392 . S
N64 Co58 2.008 . S
N64 C65 1.376 . S
N64 C68 1.374 . S
C65 N64 1.376 . S
C65 C66 1.443 . S
C65 C92 1.389 . S
C66 C65 1.443 . S
C66 C67 1.340 . S
C66 H98 0.951 . S
C67 C66 1.340 . S
C67 C68 1.439 . S
C67 H99 0.950 . S
C68 N64 1.374 . S
C68 C67 1.439 . S
C68 C93 1.395 . S
N69 Co58 1.995 . S
N69 C70 1.376 . S
N69 C73 1.383 . S
C70 N69 1.376 . S
C70 C71 1.446 . S
C70 C93 1.391 . S
C71 C70 1.446 . S
C71 C72 1.339 . S
C71 H100 0.949 . S
C72 C71 1.339 . S
C72 C73 1.439 . S
C72 H101 0.950 . S
C73 N69 1.383 . S
C73 C72 1.439 . S
C73 C91 1.392 . S
N74 Co58 2.282 . S
N74 C77 1.332 . S
N74 C79 1.332 . S
C75 C76 1.386 . S
C75 C78 1.388 . S
C76 C75 1.386 . S
C76 C77 1.382 . S
C76 H102 0.950 . S
C77 N74 1.332 . S
C77 C76 1.382 . S
C77 H88 0.952 . S
C78 C75 1.388 . S
C78 C79 1.382 . S
C78 H103 0.950 . S
C79 N74 1.332 . S
C79 C78 1.382 . S
C79 H89 0.948 . S
N80 Co58 2.282 . S
N80 C84 1.339 . S
N80 C85 1.332 . S
C81 C82 1.388 . S
C81 C85 1.382 . S
C81 H104 0.950 . S
C82 C81 1.388 . S
C82 C83 1.386 1_455 S
C83 C82 1.386 1_655 S
C83 C84 1.380 1_655 S
C83 H105 0.950 . S
C84 N80 1.339 . S
C84 C83 1.380 1_455 S
C84 H86 0.946 1_455 S
C85 N80 1.332 . S
C85 C81 1.382 . S
C85 H87 0.948 . S
H86 C84 0.946 1_655 S
H87 C85 0.948 . S
H88 C77 0.952 . S
H89 C79 0.948 . S
C90 C56 1.395 . S
C90 C60 1.391 . S
C91 C53 1.389 1_455 S
C91 C73 1.392 . S
C92 C63 1.392 . S
C92 C65 1.389 . S
C93 C68 1.395 . S
C93 C70 1.391 . S
H94 C54 0.951 . S
H95 C55 0.950 . S
H96 C61 0.949 . S
H97 C62 0.950 . S
H98 C66 0.951 . S
H99 C67 0.950 . S
H100 C71 0.949 . S
H101 C72 0.950 . S
H102 C76 0.950 . S
H103 C78 0.950 . S
H104 C81 0.950 . S
H105 C83 0.950 . S
C106 C107 1.443 . S
C106 N110 1.376 . S
C106 C144 1.389 . S
C107 C106 1.443 . S
C107 C108 1.340 . S
C107 H147 0.951 . S
C108 C107 1.340 . S
C108 C109 1.439 . S
C108 H148 0.950 . S
C109 C108 1.439 . S
C109 N110 1.374 . S
C109 C143 1.395 . S
N110 C106 1.376 . S
N110 C109 1.374 . S
N110 Co111 2.008 1_565 S
Co111 N110 2.008 1_545 S
Co111 N112 1.995 1_545 S
Co111 N117 2.008 . S
Co111 N122 1.995 . S
Co111 N127 2.282 . S
Co111 N133 2.283 1_545 S
N112 Co111 1.995 1_565 S
N112 C113 1.376 . S
N112 C116 1.383 . S
C113 N112 1.376 . S
C113 C114 1.446 . S
C113 C143 1.391 . S
C114 C113 1.446 . S
C114 C115 1.339 . S
C114 H149 0.949 . S
C115 C114 1.339 . S
C115 C116 1.439 . S
C115 H150 0.950 . S
C116 N112 1.383 . S
C116 C115 1.439 . S
C116 C145 1.392 1_565 S
N117 Co111 2.008 . S
N117 C118 1.376 . S
N117 C121 1.374 . S
C118 N117 1.376 . S
C118 C119 1.443 . S
C118 C145 1.389 . S
C119 C118 1.443 . S
C119 C120 1.340 . S
C119 H151 0.951 . S
C120 C119 1.340 . S
C120 C121 1.439 . S
C120 H152 0.950 . S
C121 N117 1.374 . S
C121 C120 1.439 . S
C121 C146 1.395 . S
N122 Co111 1.995 . S
N122 C123 1.376 . S
N122 C126 1.383 . S
C123 N122 1.376 . S
C123 C124 1.446 . S
C123 C146 1.391 . S
C124 C123 1.446 . S
C124 C125 1.339 . S
C124 H153 0.949 . S
C125 C124 1.339 . S
C125 C126 1.439 . S
C125 H154 0.950 . S
C126 N122 1.383 . S
C126 C125 1.439 . S
C126 C144 1.392 1_545 S
N127 Co111 2.282 . S
N127 C130 1.332 . S
N127 C132 1.332 1_545 S
C128 C129 1.386 . S
C128 C131 1.388 . S
C129 C128 1.386 . S
C129 C130 1.382 . S
C129 H155 0.950 . S
C130 N127 1.332 . S
C130 C129 1.382 . S
C130 H141 0.952 . S
C131 C128 1.388 . S
C131 C132 1.382 1_545 S
C131 H156 0.950 1_545 S
C132 N127 1.332 1_565 S
C132 C131 1.382 1_565 S
C132 H142 0.948 . S
N133 Co111 2.283 1_565 S
N133 C137 1.328 . S
N133 C138 1.335 1_565 S
C134 C135 1.388 1_545 S
C134 C138 1.382 . S
C134 H157 0.950 . S
C135 C134 1.388 1_565 S
C135 C136 1.386 . S
C136 C135 1.386 . S
C136 C137 1.382 . S
C136 H158 0.950 . S
C137 N133 1.328 . S
C137 C136 1.382 . S
C137 H139 0.952 . S
C138 N133 1.335 1_545 S
C138 C134 1.382 . S
C138 H140 0.948 . S
H139 C137 0.952 . S
H140 C138 0.948 . S
H141 C130 0.952 . S
H142 C132 0.948 . S
C143 C109 1.395 . S
C143 C113 1.391 . S
C144 C106 1.389 . S
C144 C126 1.392 1_565 S
C145 C116 1.392 1_545 S
C145 C118 1.389 . S
C146 C121 1.395 . S
C146 C123 1.391 . S
H147 C107 0.951 . S
H148 C108 0.950 . S
H149 C114 0.949 . S
H150 C115 0.950 . S
H151 C119 0.951 . S
H152 C120 0.950 . S
H153 C124 0.949 . S
H154 C125 0.950 . S
H155 C129 0.950 . S
H156 C131 0.950 1_565 S
H157 C134 0.950 . S
H158 C136 0.950 . S
C159 C160 1.443 . S
C159 N163 1.376 . S
C159 C197 1.389 . S
C160 C159 1.443 . S
C160 C161 1.340 . S
C160 H200 0.951 . S
C161 C160 1.340 . S
C161 C162 1.439 . S
C161 H201 0.950 . S
C162 C161 1.439 . S
C162 N163 1.374 . S
C162 C196 1.395 . S
N163 C159 1.376 . S
N163 C162 1.374 . S
N163 Co164 2.008 . S
Co164 N163 2.008 . S
Co164 N165 1.995 . S
Co164 N170 2.008 . S
Co164 N175 1.995 . S
Co164 N180 2.282 . S
Co164 N186 2.282 . S
N165 Co164 1.995 . S
N165 C166 1.376 . S
N165 C169 1.383 . S
C166 N165 1.376 . S
C166 C167 1.446 . S
C166 C196 1.391 . S
C167 C166 1.446 . S
C167 C168 1.339 . S
C167 H202 0.949 . S
C168 C167 1.339 . S
C168 C169 1.439 . S
C168 H203 0.950 . S
C169 N165 1.383 . S
C169 C168 1.439 . S
C169 C198 1.392 . S
N170 Co164 2.008 . S
N170 C171 1.376 . S
N170 C174 1.374 . S
C171 N170 1.376 . S
C171 C172 1.443 . S
C171 C198 1.389 . S
C172 C171 1.443 . S
C172 C173 1.340 . S
C172 H204 0.951 . S
C173 C172 1.340 . S
C173 C174 1.439 . S
C173 H205 0.950 . S
C174 N170 1.374 . S
C174 C173 1.439 . S
C174 C199 1.395 . S
N175 Co164 1.995 . S
N175 C176 1.376 . S
N175 C179 1.383 . S
C176 N175 1.376 . S
C176 C177 1.446 . S
C176 C199 1.391 . S
C177 C176 1.446 . S
C177 C178 1.339 . S
C177 H206 0.949 . S
C178 C177 1.339 . S
C178 C179 1.439 . S
C178 H207 0.950 . S
C179 N175 1.383 . S
C179 C178 1.439 . S
C179 C197 1.392 . S
N180 Co164 2.282 . S
N180 C183 1.332 . S
N180 C185 1.332 . S
C181 C182 1.386 . S
C181 C184 1.388 . S
C182 C181 1.386 . S
C182 C183 1.382 . S
C182 H208 0.950 . S
C183 N180 1.332 . S
C183 C182 1.382 . S
C183 H194 0.952 . S
C184 C181 1.388 . S
C184 C185 1.382 . S
C184 H209 0.950 . S
C185 N180 1.332 . S
C185 C184 1.382 . S
C185 H195 0.948 . S
N186 Co164 2.282 . S
N186 C190 1.332 . S
N186 C191 1.332 . S
C187 C188 1.388 . S
C187 C191 1.382 . S
C187 H210 0.950 . S
C188 C187 1.388 . S
C188 C189 1.386 . S
C189 C188 1.386 . S
C189 C190 1.382 . S
C189 H211 0.950 . S
C190 N186 1.332 . S
C190 C189 1.382 . S
C190 H192 0.952 . S
C191 N186 1.332 . S
C191 C187 1.382 . S
C191 H193 0.948 . S
H192 C190 0.952 . S
H193 C191 0.948 . S
H194 C183 0.952 . S
H195 C185 0.948 . S
C196 C162 1.395 . S
C196 C166 1.391 . S
C197 C159 1.389 . S
C197 C179 1.392 . S
C198 C169 1.392 . S
C198 C171 1.389 . S
C199 C174 1.395 . S
C199 C176 1.391 . S
H200 C160 0.951 . S
H201 C161 0.950 . S
H202 C167 0.949 . S
H203 C168 0.950 . S
H204 C172 0.951 . S
H205 C173 0.950 . S
H206 C177 0.949 . S
H207 C178 0.950 . S
H208 C182 0.950 . S
H209 C184 0.950 . S
H210 C187 0.950 . S
H211 C189 0.950 . S
C212 C213 1.443 . S
C212 N216 1.376 . S
C212 C250 1.389 1_556 S
C213 C212 1.443 . S
C213 C214 1.340 . S
C213 H253 0.951 . S
C214 C213 1.340 . S
C214 C215 1.439 . S
C214 H254 0.950 . S
C215 C214 1.439 . S
C215 N216 1.374 . S
C215 C249 1.395 . S
N216 C212 1.376 . S
N216 C215 1.374 . S
N216 Co217 2.008 1_556 S
Co217 N216 2.008 1_554 S
Co217 N218 1.995 . S
Co217 N223 2.008 . S
Co217 N228 1.995 . S
Co217 N233 2.282 . S
Co217 N239 2.282 . S
N218 Co217 1.995 . S
N218 C219 1.376 1_554 S
N218 C222 1.383 . S
C219 N218 1.376 1_556 S
C219 C220 1.446 . S
C219 C249 1.391 . S
C220 C219 1.446 . S
C220 C221 1.339 . S
C220 H255 0.949 . S
C221 C220 1.339 . S
C221 C222 1.439 1_556 S
C221 H256 0.950 . S
C222 N218 1.383 . S
C222 C221 1.439 1_554 S
C222 C251 1.392 . S
N223 Co217 2.008 . S
N223 C224 1.376 . S
N223 C227 1.374 . S
C224 N223 1.376 . S
C224 C225 1.443 . S
C224 C251 1.389 . S
C225 C224 1.443 . S
C225 C226 1.340 . S
C225 H257 0.951 . S
C226 C225 1.340 . S
C226 C227 1.439 . S
C226 H258 0.950 . S
C227 N223 1.374 . S
C227 C226 1.439 . S
C227 C252 1.395 . S
N228 Co217 1.995 . S
N228 C229 1.376 . S
N228 C232 1.383 . S
C229 N228 1.376 . S
C229 C230 1.446 . S
C229 C252 1.391 . S
C230 C229 1.446 . S
C230 C231 1.339 . S
C230 H259 0.949 . S
C231 C230 1.339 . S
C231 C232 1.439 . S
C231 H260 0.950 . S
C232 N228 1.383 . S
C232 C231 1.439 . S
C232 C250 1.392 . S
N233 Co217 2.282 . S
N233 C236 1.332 . S
N233 C238 1.332 . S
C234 C235 1.386 . S
C234 C237 1.388 . S
C235 C234 1.386 . S
C235 C236 1.382 . S
C235 H261 0.950 . S
C236 N233 1.332 . S
C236 C235 1.382 . S
C236 H247 0.952 . S
C237 C234 1.388 . S
C237 C238 1.382 . S
C237 H262 0.950 . S
C238 N233 1.332 . S
C238 C237 1.382 . S
C238 H248 0.948 1_554 S
N239 Co217 2.282 . S
N239 C243 1.332 1_554 S
N239 C244 1.332 . S
C240 C241 1.388 . S
C240 C244 1.382 . S
C240 H263 0.950 . S
C241 C240 1.388 . S
C241 C242 1.386 1_554 S
C242 C241 1.386 1_556 S
C242 C243 1.382 . S
C242 H264 0.950 . S
C243 N239 1.332 1_556 S
C243 C242 1.382 . S
C243 H245 0.952 . S
C244 N239 1.332 . S
C244 C240 1.382 . S
C244 H246 0.948 . S
H245 C243 0.952 . S
H246 C244 0.948 . S
H247 C236 0.952 . S
H248 C238 0.948 1_556 S
C249 C215 1.395 . S
C249 C219 1.391 . S
C250 C212 1.389 1_554 S
C250 C232 1.392 . S
C251 C222 1.392 . S
C251 C224 1.389 . S
C252 C227 1.395 . S
C252 C229 1.391 . S
H253 C213 0.951 . S
H254 C214 0.950 . S
H255 C220 0.949 . S
H256 C221 0.950 . S
H257 C225 0.951 . S
H258 C226 0.950 . S
H259 C230 0.949 . S
H260 C231 0.950 . S
H261 C235 0.950 . S
H262 C237 0.950 . S
H263 C240 0.950 . S
H264 C242 0.950 . S
C265 C266 1.443 . S
C265 N269 1.376 . S
C265 C303 1.389 . S
C266 C265 1.443 . S
C266 C267 1.340 . S
C266 H306 0.951 . S
C267 C266 1.340 . S
C267 C268 1.439 . S
C267 H307 0.950 . S
C268 C267 1.439 . S
C268 N269 1.374 . S
C268 C302 1.395 . S
N269 C265 1.376 . S
N269 C268 1.374 . S
N269 Co270 2.008 . S
Co270 N269 2.008 . S
Co270 N271 1.995 . S
Co270 N276 2.008 . S
Co270 N281 1.995 . S
Co270 N286 2.282 . S
Co270 N292 2.282 . S
N271 Co270 1.995 . S
N271 C272 1.376 . S
N271 C275 1.383 . S
C272 N271 1.376 . S
C272 C273 1.446 . S
C272 C302 1.391 . S
C273 C272 1.446 . S
C273 C274 1.339 . S
C273 H308 0.949 . S
C274 C273 1.339 . S
C274 C275 1.439 . S
C274 H309 0.950 . S
C275 N271 1.383 . S
C275 C274 1.439 . S
C275 C304 1.392 . S
N276 Co270 2.008 . S
N276 C277 1.376 . S
N276 C280 1.374 . S
C277 N276 1.376 . S
C277 C278 1.443 . S
C277 C304 1.389 . S
C278 C277 1.443 . S
C278 C279 1.340 . S
C278 H310 0.951 . S
C279 C278 1.340 . S
C279 C280 1.439 . S
C279 H311 0.950 . S
C280 N276 1.374 . S
C280 C279 1.439 . S
C280 C305 1.395 . S
N281 Co270 1.995 . S
N281 C282 1.376 . S
N281 C285 1.383 . S
C282 N281 1.376 . S
C282 C283 1.446 . S
C282 C305 1.391 . S
C283 C282 1.446 . S
C283 C284 1.339 . S
C283 H312 0.949 . S
C284 C283 1.339 . S
C284 C285 1.439 . S
C284 H313 0.950 . S
C285 N281 1.383 . S
C285 C284 1.439 . S
C285 C303 1.392 . S
N286 Co270 2.282 . S
N286 C289 1.332 . S
N286 C291 1.332 . S
C287 C288 1.386 . S
C287 C290 1.388 . S
C288 C287 1.386 . S
C288 C289 1.382 . S
C288 H314 0.950 . S
C289 N286 1.332 . S
C289 C288 1.382 . S
C289 H300 0.952 . S
C290 C287 1.388 . S
C290 C291 1.382 . S
C290 H315 0.950 . S
C291 N286 1.332 . S
C291 C290 1.382 . S
C291 H301 0.948 . S
N292 Co270 2.282 . S
N292 C296 1.332 . S
N292 C297 1.332 . S
C293 C294 1.388 . S
C293 C297 1.382 . S
C293 H316 0.950 . S
C294 C293 1.388 . S
C294 C295 1.386 . S
C295 C294 1.386 . S
C295 C296 1.382 . S
C295 H317 0.950 . S
C296 N292 1.332 . S
C296 C295 1.382 . S
C296 H298 0.952 . S
C297 N292 1.332 . S
C297 C293 1.382 . S
C297 H299 0.948 . S
H298 C296 0.952 . S
H299 C297 0.948 . S
H300 C289 0.952 . S
H301 C291 0.948 . S
C302 C268 1.395 . S
C302 C272 1.391 . S
C303 C265 1.389 . S
C303 C285 1.392 . S
C304 C275 1.392 . S
C304 C277 1.389 . S
C305 C280 1.395 . S
C305 C282 1.391 . S
H306 C266 0.951 . S
H307 C267 0.950 . S
H308 C273 0.949 . S
H309 C274 0.950 . S
H310 C278 0.951 . S
H311 C279 0.950 . S
H312 C283 0.949 . S
H313 C284 0.950 . S
H314 C288 0.950 . S
H315 C290 0.950 . S
H316 C293 0.950 . S
H317 C295 0.950 . S
C318 C319 1.443 . S
C318 N322 1.376 . S
C318 C356 1.389 . S
C319 C318 1.443 . S
C319 C320 1.340 . S
C319 H359 0.951 . S
C320 C319 1.340 . S
C320 C321 1.439 . S
C320 H360 0.950 . S
C321 C320 1.439 . S
C321 N322 1.374 . S
C321 C355 1.395 . S
N322 C318 1.376 . S
N322 C321 1.374 . S
N322 Co323 2.008 . S
Co323 N322 2.008 . S
Co323 N324 1.995 . S
Co323 N329 2.008 . S
Co323 N334 1.995 . S
Co323 N339 2.282 . S
Co323 N345 2.282 . S
N324 Co323 1.995 . S
N324 C325 1.376 . S
N324 C328 1.383 . S
C325 N324 1.376 . S
C325 C326 1.446 . S
C325 C355 1.391 . S
C326 C325 1.446 . S
C326 C327 1.339 . S
C326 H361 0.949 . S
C327 C326 1.339 . S
C327 C328 1.439 . S
C327 H362 0.950 . S
C328 N324 1.383 . S
C328 C327 1.439 . S
C328 C357 1.392 . S
N329 Co323 2.008 . S
N329 C330 1.376 . S
N329 C333 1.374 . S
C330 N329 1.376 . S
C330 C331 1.443 . S
C330 C357 1.389 . S
C331 C330 1.443 . S
C331 C332 1.340 . S
C331 H363 0.951 . S
C332 C331 1.340 . S
C332 C333 1.439 . S
C332 H364 0.950 . S
C333 N329 1.374 . S
C333 C332 1.439 . S
C333 C358 1.395 . S
N334 Co323 1.995 . S
N334 C335 1.376 . S
N334 C338 1.383 . S
C335 N334 1.376 . S
C335 C336 1.446 . S
C335 C358 1.391 . S
C336 C335 1.446 . S
C336 C337 1.339 . S
C336 H365 0.949 . S
C337 C336 1.339 . S
C337 C338 1.439 . S
C337 H366 0.950 . S
C338 N334 1.383 . S
C338 C337 1.439 . S
C338 C356 1.392 . S
N339 Co323 2.282 . S
N339 C342 1.332 . S
N339 C344 1.332 . S
C340 C341 1.386 . S
C340 C343 1.388 . S
C341 C340 1.386 . S
C341 C342 1.382 . S
C341 H367 0.950 . S
C342 N339 1.332 . S
C342 C341 1.382 . S
C342 H353 0.952 . S
C343 C340 1.388 . S
C343 C344 1.382 . S
C343 H368 0.950 . S
C344 N339 1.332 . S
C344 C343 1.382 . S
C344 H354 0.948 . S
N345 Co323 2.282 . S
N345 C349 1.332 . S
N345 C350 1.332 . S
C346 C347 1.388 . S
C346 C350 1.382 . S
C346 H369 0.950 . S
C347 C346 1.388 . S
C347 C348 1.386 . S
C348 C347 1.386 . S
C348 C349 1.382 . S
C348 H370 0.950 . S
C349 N345 1.332 . S
C349 C348 1.382 . S
C349 H351 0.952 . S
C350 N345 1.332 . S
C350 C346 1.382 . S
C350 H352 0.948 . S
H351 C349 0.952 . S
H352 C350 0.948 . S
H353 C342 0.952 . S
H354 C344 0.948 . S
C355 C321 1.395 . S
C355 C325 1.391 . S
C356 C318 1.389 . S
C356 C338 1.392 . S
C357 C328 1.392 . S
C357 C330 1.389 . S
C358 C333 1.395 . S
C358 C335 1.391 . S
H359 C319 0.951 . S
H360 C320 0.950 . S
H361 C326 0.949 . S
H362 C327 0.950 . S
H363 C331 0.951 . S
H364 C332 0.950 . S
H365 C336 0.949 . S
H366 C337 0.950 . S
H367 C341 0.950 . S
H368 C343 0.950 . S
H369 C346 0.950 . S
H370 C348 0.950 . S
C371 C372 1.443 . S
C371 N375 1.376 . S
C371 C409 1.389 . S
C372 C371 1.443 . S
C372 C373 1.340 . S
C372 H412 0.951 . S
C373 C372 1.340 . S
C373 C374 1.439 . S
C373 H413 0.950 . S
C374 C373 1.439 . S
C374 N375 1.374 . S
C374 C408 1.395 . S
N375 C371 1.376 . S
N375 C374 1.374 . S
N375 Co376 2.008 . S
Co376 N375 2.008 . S
Co376 N377 1.995 . S
Co376 N382 2.008 . S
Co376 N387 1.995 . S
Co376 N392 2.282 . S
Co376 N398 2.282 . S
N377 Co376 1.995 . S
N377 C378 1.376 . S
N377 C381 1.383 . S
C378 N377 1.376 . S
C378 C379 1.446 . S
C378 C408 1.391 . S
C379 C378 1.446 . S
C379 C380 1.339 . S
C379 H414 0.949 . S
C380 C379 1.339 . S
C380 C381 1.439 . S
C380 H415 0.950 . S
C381 N377 1.383 . S
C381 C380 1.439 . S
C381 C410 1.392 . S
N382 Co376 2.008 . S
N382 C383 1.376 . S
N382 C386 1.374 . S
C383 N382 1.376 . S
C383 C384 1.443 . S
C383 C410 1.389 . S
C384 C383 1.443 . S
C384 C385 1.340 . S
C384 H416 0.951 . S
C385 C384 1.340 . S
C385 C386 1.439 . S
C385 H417 0.950 . S
C386 N382 1.374 . S
C386 C385 1.439 . S
C386 C411 1.395 . S
N387 Co376 1.995 . S
N387 C388 1.376 . S
N387 C391 1.383 . S
C388 N387 1.376 . S
C388 C389 1.446 . S
C388 C411 1.391 . S
C389 C388 1.446 . S
C389 C390 1.339 . S
C389 H418 0.949 . S
C390 C389 1.339 . S
C390 C391 1.439 . S
C390 H419 0.950 . S
C391 N387 1.383 . S
C391 C390 1.439 . S
C391 C409 1.392 . S
N392 Co376 2.282 . S
N392 C395 1.332 . S
N392 C397 1.332 . S
C393 C394 1.386 . S
C393 C396 1.388 . S
C394 C393 1.386 . S
C394 C395 1.382 . S
C394 H420 0.950 . S
C395 N392 1.332 . S
C395 C394 1.382 . S
C395 H406 0.952 . S
C396 C393 1.388 . S
C396 C397 1.382 . S
C396 H421 0.950 . S
C397 N392 1.332 . S
C397 C396 1.382 . S
C397 H407 0.948 . S
N398 Co376 2.282 . S
N398 C402 1.332 . S
N398 C403 1.332 . S
C399 C400 1.388 . S
C399 C403 1.382 . S
C399 H422 0.950 . S
C400 C399 1.388 . S
C400 C401 1.386 . S
C401 C400 1.386 . S
C401 C402 1.382 . S
C401 H423 0.950 . S
C402 N398 1.332 . S
C402 C401 1.382 . S
C402 H404 0.952 . S
C403 N398 1.332 . S
C403 C399 1.382 . S
C403 H405 0.948 . S
H404 C402 0.952 . S
H405 C403 0.948 . S
H406 C395 0.952 . S
H407 C397 0.948 . S
C408 C374 1.395 . S
C408 C378 1.391 . S
C409 C371 1.389 . S
C409 C391 1.392 . S
C410 C381 1.392 . S
C410 C383 1.389 . S
C411 C386 1.395 . S
C411 C388 1.391 . S
H412 C372 0.951 . S
H413 C373 0.950 . S
H414 C379 0.949 . S
H415 C380 0.950 . S
H416 C384 0.951 . S
H417 C385 0.950 . S
H418 C389 0.949 . S
H419 C390 0.950 . S
H420 C394 0.950 . S
H421 C396 0.950 . S
H422 C399 0.950 . S
H423 C401 0.950 . S
C424 C425 1.443 . S
C424 N428 1.376 . S
C424 C462 1.389 . S
C425 C424 1.443 . S
C425 C426 1.340 . S
C425 H465 0.951 . S
C426 C425 1.340 . S
C426 C427 1.439 . S
C426 H466 0.950 . S
C427 C426 1.439 . S
C427 N428 1.374 . S
C427 C461 1.395 . S
N428 C424 1.376 . S
N428 C427 1.374 . S
N428 Co429 2.008 . S
Co429 N428 2.008 . S
Co429 N430 1.995 . S
Co429 N435 2.008 . S
Co429 N440 1.995 . S
Co429 N445 2.282 . S
Co429 N451 2.282 . S
N430 Co429 1.995 . S
N430 C431 1.376 . S
N430 C434 1.383 . S
C431 N430 1.376 . S
C431 C432 1.446 . S
C431 C461 1.391 . S
C432 C431 1.446 . S
C432 C433 1.339 . S
C432 H467 0.949 . S
C433 C432 1.339 . S
C433 C434 1.439 . S
C433 H468 0.950 . S
C434 N430 1.383 . S
C434 C433 1.439 . S
C434 C463 1.392 . S
N435 Co429 2.008 . S
N435 C436 1.376 . S
N435 C439 1.374 . S
C436 N435 1.376 . S
C436 C437 1.443 . S
C436 C463 1.389 . S
C437 C436 1.443 . S
C437 C438 1.340 . S
C437 H469 0.951 . S
C438 C437 1.340 . S
C438 C439 1.439 . S
C438 H470 0.950 . S
C439 N435 1.374 . S
C439 C438 1.439 . S
C439 C464 1.395 . S
N440 Co429 1.995 . S
N440 C441 1.376 . S
N440 C444 1.383 . S
C441 N440 1.376 . S
C441 C442 1.446 . S
C441 C464 1.391 . S
C442 C441 1.446 . S
C442 C443 1.339 . S
C442 H471 0.949 . S
C443 C442 1.339 . S
C443 C444 1.439 . S
C443 H472 0.950 . S
C444 N440 1.383 . S
C444 C443 1.439 . S
C444 C462 1.392 . S
N445 Co429 2.282 . S
N445 C448 1.332 . S
N445 C450 1.332 . S
C446 C447 1.386 . S
C446 C449 1.388 . S
C447 C446 1.386 . S
C447 C448 1.382 . S
C447 H473 0.950 . S
C448 N445 1.332 . S
C448 C447 1.382 . S
C448 H459 0.952 . S
C449 C446 1.388 . S
C449 C450 1.382 . S
C449 H474 0.950 . S
C450 N445 1.332 . S
C450 C449 1.382 . S
C450 H460 0.948 . S
N451 Co429 2.282 . S
N451 C455 1.332 . S
N451 C456 1.332 . S
C452 C453 1.388 . S
C452 C456 1.382 . S
C452 H475 0.950 . S
C453 C452 1.388 . S
C453 C454 1.386 . S
C454 C453 1.386 . S
C454 C455 1.382 . S
C454 H476 0.950 . S
C455 N451 1.332 . S
C455 C454 1.382 . S
C455 H457 0.952 . S
C456 N451 1.332 . S
C456 C452 1.382 . S
C456 H458 0.948 . S
H457 C455 0.952 . S
H458 C456 0.948 . S
H459 C448 0.952 . S
H460 C450 0.948 . S
C461 C427 1.395 . S
C461 C431 1.391 . S
C462 C424 1.389 . S
C462 C444 1.392 . S
C463 C434 1.392 . S
C463 C436 1.389 . S
C464 C439 1.395 . S
C464 C441 1.391 . S
H465 C425 0.951 . S
H466 C426 0.950 . S
H467 C432 0.949 . S
H468 C433 0.950 . S
H469 C437 0.951 . S
H470 C438 0.950 . S
H471 C442 0.949 . S
H472 C443 0.950 . S
H473 C447 0.950 . S
H474 C449 0.950 . S
H475 C452 0.950 . S
H476 C454 0.950 . S
C477 C478 1.443 . S
C477 N481 1.376 . S
C477 C515 1.389 . S
C478 C477 1.443 . S
C478 C479 1.340 . S
C478 H518 0.951 . S
C479 C478 1.340 . S
C479 C480 1.439 . S
C479 H519 0.950 . S
C480 C479 1.439 . S
C480 N481 1.374 . S
C480 C514 1.395 . S
N481 C477 1.376 . S
N481 C480 1.374 . S
N481 Co482 2.008 . S
Co482 N481 2.008 . S
Co482 N483 1.995 . S
Co482 N488 2.008 . S
Co482 N493 1.995 . S
Co482 N498 2.282 . S
Co482 N504 2.282 . S
N483 Co482 1.995 . S
N483 C484 1.376 . S
N483 C487 1.383 . S
C484 N483 1.376 . S
C484 C485 1.446 . S
C484 C514 1.391 . S
C485 C484 1.446 . S
C485 C486 1.339 . S
C485 H520 0.949 . S
C486 C485 1.339 . S
C486 C487 1.439 . S
C486 H521 0.950 . S
C487 N483 1.383 . S
C487 C486 1.439 . S
C487 C516 1.392 . S
N488 Co482 2.008 . S
N488 C489 1.376 . S
N488 C492 1.374 . S
C489 N488 1.376 . S
C489 C490 1.443 . S
C489 C516 1.389 . S
C490 C489 1.443 . S
C490 C491 1.340 . S
C490 H522 0.951 . S
C491 C490 1.340 . S
C491 C492 1.439 . S
C491 H523 0.950 . S
C492 N488 1.374 . S
C492 C491 1.439 . S
C492 C517 1.395 . S
N493 Co482 1.995 . S
N493 C494 1.376 . S
N493 C497 1.383 . S
C494 N493 1.376 . S
C494 C495 1.446 . S
C494 C517 1.391 . S
C495 C494 1.446 . S
C495 C496 1.339 . S
C495 H524 0.949 . S
C496 C495 1.339 . S
C496 C497 1.439 . S
C496 H525 0.950 . S
C497 N493 1.383 . S
C497 C496 1.439 . S
C497 C515 1.392 . S
N498 Co482 2.282 . S
N498 C501 1.332 . S
N498 C503 1.332 . S
C499 C500 1.386 . S
C499 C502 1.388 . S
C500 C499 1.386 . S
C500 C501 1.382 . S
C500 H526 0.950 . S
C501 N498 1.332 . S
C501 C500 1.382 . S
C501 H512 0.952 . S
C502 C499 1.388 . S
C502 C503 1.382 . S
C502 H527 0.950 . S
C503 N498 1.332 . S
C503 C502 1.382 . S
C503 H513 0.948 . S
N504 Co482 2.282 . S
N504 C508 1.332 . S
N504 C509 1.332 . S
C505 C506 1.388 . S
C505 C509 1.382 . S
C505 H528 0.950 . S
C506 C505 1.388 . S
C506 C507 1.386 . S
C507 C506 1.386 . S
C507 C508 1.382 . S
C507 H529 0.950 . S
C508 N504 1.332 . S
C508 C507 1.382 . S
C508 H510 0.952 . S
C509 N504 1.332 . S
C509 C505 1.382 . S
C509 H511 0.948 . S
H510 C508 0.952 . S
H511 C509 0.948 . S
H512 C501 0.952 . S
H513 C503 0.948 . S
C514 C480 1.395 . S
C514 C484 1.391 . S
C515 C477 1.389 . S
C515 C497 1.392 . S
C516 C487 1.392 . S
C516 C489 1.389 . S
C517 C492 1.395 . S
C517 C494 1.391 . S
H518 C478 0.951 . S
H519 C479 0.950 . S
H520 C485 0.949 . S
H521 C486 0.950 . S
H522 C490 0.951 . S
H523 C491 0.950 . S
H524 C495 0.949 . S
H525 C496 0.950 . S
H526 C500 0.950 . S
H527 C502 0.950 . S
H528 C505 0.950 . S
H529 C507 0.950 . S
C530 C531 1.443 . S
C530 N534 1.376 . S
C530 C568 1.389 . S
C531 C530 1.443 . S
C531 C532 1.340 . S
C531 H571 0.951 . S
C532 C531 1.340 . S
C532 C533 1.439 . S
C532 H572 0.950 . S
C533 C532 1.439 . S
C533 N534 1.374 . S
C533 C567 1.395 . S
N534 C530 1.376 . S
N534 C533 1.374 . S
N534 Co535 2.008 . S
Co535 N534 2.008 . S
Co535 N536 1.995 . S
Co535 N541 2.008 1_545 S
Co535 N546 1.995 1_545 S
Co535 N551 2.282 . S
Co535 N557 2.282 . S
N536 Co535 1.995 . S
N536 C537 1.376 . S
N536 C540 1.383 . S
C537 N536 1.376 . S
C537 C538 1.446 . S
C537 C567 1.391 . S
C538 C537 1.446 . S
C538 C539 1.339 . S
C538 H573 0.949 . S
C539 C538 1.339 . S
C539 C540 1.439 . S
C539 H574 0.950 . S
C540 N536 1.383 . S
C540 C539 1.439 . S
C540 C569 1.392 . S
N541 Co535 2.008 1_565 S
N541 C542 1.376 . S
N541 C545 1.374 . S
C542 N541 1.376 . S
C542 C543 1.443 . S
C542 C569 1.389 1_565 S
C543 C542 1.443 . S
C543 C544 1.340 . S
C543 H575 0.951 . S
C544 C543 1.340 . S
C544 C545 1.439 . S
C544 H576 0.950 . S
C545 N541 1.374 . S
C545 C544 1.439 . S
C545 C570 1.395 . S
N546 Co535 1.995 1_565 S
N546 C547 1.376 . S
N546 C550 1.383 1_565 S
C547 N546 1.376 . S
C547 C548 1.446 . S
C547 C570 1.391 . S
C548 C547 1.446 . S
C548 C549 1.339 . S
C548 H577 0.949 . S
C549 C548 1.339 . S
C549 C550 1.439 1_565 S
C549 H578 0.950 . S
C550 N546 1.383 1_545 S
C550 C549 1.439 1_545 S
C550 C568 1.392 . S
N551 Co535 2.282 . S
N551 C554 1.332 1_545 S
N551 C556 1.332 . S
C552 C553 1.386 . S
C552 C555 1.388 1_565 S
C553 C552 1.386 . S
C553 C554 1.382 . S
C553 H579 0.950 . S
C554 N551 1.332 1_565 S
C554 C553 1.382 . S
C554 H565 0.952 . S
C555 C552 1.388 1_545 S
C555 C556 1.382 . S
C555 H580 0.950 . S
C556 N551 1.332 . S
C556 C555 1.382 . S
C556 H566 0.948 . S
N557 Co535 2.282 . S
N557 C561 1.332 . S
N557 C562 1.332 . S
C558 C559 1.388 . S
C558 C562 1.382 . S
C558 H581 0.955 1_545 S
C559 C558 1.388 . S
C559 C560 1.386 . S
C560 C559 1.386 . S
C560 C561 1.382 . S
C560 H582 0.950 . S
C561 N557 1.332 . S
C561 C560 1.382 . S
C561 H563 0.952 . S
C562 N557 1.332 . S
C562 C558 1.382 . S
C562 H564 0.948 1_545 S
H563 C561 0.952 . S
H564 C562 0.948 1_565 S
H565 C554 0.952 . S
H566 C556 0.948 . S
C567 C533 1.395 . S
C567 C537 1.391 . S
C568 C530 1.389 . S
C568 C550 1.392 . S
C569 C540 1.392 . S
C569 C542 1.389 1_545 S
C570 C545 1.395 . S
C570 C547 1.391 . S
H571 C531 0.951 . S
H572 C532 0.950 . S
H573 C538 0.949 . S
H574 C539 0.950 . S
H575 C543 0.951 . S
H576 C544 0.950 . S
H577 C548 0.949 . S
H578 C549 0.950 . S
H579 C553 0.950 . S
H580 C555 0.950 . S
H581 C558 0.955 1_565 S
H582 C560 0.950 . S
C583 C584 1.443 . S
C583 N587 1.376 . S
C583 C621 1.389 . S
C584 C583 1.443 . S
C584 C585 1.340 . S
C584 H624 0.951 . S
C585 C584 1.340 . S
C585 C586 1.439 . S
C585 H625 0.950 . S
C586 C585 1.439 . S
C586 N587 1.374 . S
C586 C620 1.395 . S
N587 C583 1.376 . S
N587 C586 1.374 . S
N587 Co588 2.008 1_556 S
Co588 N587 2.008 1_554 S
Co588 N589 1.995 1_554 S
Co588 N594 2.008 . S
Co588 N599 1.995 . S
Co588 N604 2.282 . S
Co588 N610 2.282 1_554 S
N589 Co588 1.995 1_556 S
N589 C590 1.376 . S
N589 C593 1.383 . S
C590 N589 1.376 . S
C590 C591 1.446 . S
C590 C620 1.391 . S
C591 C590 1.446 . S
C591 C592 1.339 . S
C591 H626 0.949 . S
C592 C591 1.339 . S
C592 C593 1.439 . S
C592 H627 0.950 . S
C593 N589 1.383 . S
C593 C592 1.439 . S
C593 C622 1.392 1_556 S
N594 Co588 2.008 . S
N594 C595 1.376 . S
N594 C598 1.374 . S
C595 N594 1.376 . S
C595 C596 1.443 . S
C595 C622 1.389 . S
C596 C595 1.443 . S
C596 C597 1.340 . S
C596 H628 0.951 . S
C597 C596 1.340 . S
C597 C598 1.439 . S
C597 H629 0.950 . S
C598 N594 1.374 . S
C598 C597 1.439 . S
C598 C623 1.395 . S
N599 Co588 1.995 . S
N599 C600 1.376 . S
N599 C603 1.383 . S
C600 N599 1.376 . S
C600 C601 1.446 . S
C600 C623 1.391 . S
C601 C600 1.446 . S
C601 C602 1.339 . S
C601 H630 0.949 . S
C602 C601 1.339 . S
C602 C603 1.439 . S
C602 H631 0.950 . S
C603 N599 1.383 . S
C603 C602 1.439 . S
C603 C621 1.392 1_554 S
N604 Co588 2.282 . S
N604 C607 1.332 . S
N604 C609 1.332 1_554 S
C605 C606 1.386 . S
C605 C608 1.388 1_554 S
C606 C605 1.386 . S
C606 C607 1.382 . S
C606 H632 0.950 . S
C607 N604 1.332 . S
C607 C606 1.382 . S
C607 H618 0.952 . S
C608 C605 1.388 1_556 S
C608 C609 1.382 . S
C608 H633 0.950 . S
C609 N604 1.332 1_556 S
C609 C608 1.382 . S
C609 H619 0.948 . S
N610 Co588 2.282 1_556 S
N610 C614 1.332 . S
N610 C615 1.332 1_556 S
C611 C612 1.388 1_554 S
C611 C615 1.382 . S
C611 H634 0.950 . S
C612 C611 1.388 1_556 S
C612 C613 1.386 . S
C613 C612 1.386 . S
C613 C614 1.382 . S
C613 H635 0.950 . S
C614 N610 1.332 . S
C614 C613 1.382 . S
C614 H616 0.952 . S
C615 N610 1.332 1_554 S
C615 C611 1.382 . S
C615 H617 0.948 . S
H616 C614 0.952 . S
H617 C615 0.948 . S
H618 C607 0.952 . S
H619 C609 0.948 . S
C620 C586 1.395 . S
C620 C590 1.391 . S
C621 C583 1.389 . S
C621 C603 1.392 1_556 S
C622 C593 1.392 1_554 S
C622 C595 1.389 . S
C623 C598 1.395 . S
C623 C600 1.391 . S
H624 C584 0.951 . S
H625 C585 0.950 . S
H626 C591 0.949 . S
H627 C592 0.950 . S
H628 C596 0.951 . S
H629 C597 0.950 . S
H630 C601 0.949 . S
H631 C602 0.950 . S
H632 C606 0.950 . S
H633 C608 0.950 . S
H634 C611 0.950 . S
H635 C613 0.950 . S
O636 Zn637 1.953 . S
O636 C652 1.225 . S
Zn637 O636 1.953 . S
Zn637 O638 1.949 . S
Zn637 O644 1.919 . S
Zn637 O649 1.924 . S
O638 Zn637 1.949 . S
O638 Zn639 1.923 . S
O638 Zn640 1.950 . S
O638 Zn641 1.945 . S
Zn639 O638 1.923 . S
Zn639 O642 1.933 . S
Zn639 O645 1.941 . S
Zn639 O646 1.965 . S
Zn640 O638 1.950 . S
Zn640 O647 1.938 . S
Zn640 O648 1.906 . S
Zn640 O658 1.953 . S
Zn641 O638 1.945 . S
Zn641 O643 1.932 . S
Zn641 O650 1.977 . S
Zn641 O651 1.910 . S
O642 Zn639 1.933 . S
O642 C653 1.226 . S
O643 Zn641 1.932 . S
O643 C653 1.307 . S
O644 Zn637 1.919 . S
O644 C655 1.253 . S
O645 Zn639 1.941 . S
O645 C655 1.283 . S
O646 Zn639 1.965 . S
O646 C654 1.303 . S
O647 Zn640 1.938 . S
O647 C654 1.247 . S
O648 Zn640 1.906 . S
O648 C656 1.304 . S
O649 Zn637 1.924 . S
O649 C657 1.311 . S
O650 Zn641 1.977 . S
O650 C656 1.272 . S
O651 Zn641 1.910 . S
O651 C657 1.231 . S
C652 O636 1.225 . S
C652 O658 1.298 . S
C653 O642 1.226 . S
C653 O643 1.307 . S
C654 O646 1.303 . S
C654 O647 1.247 . S
C655 O644 1.253 . S
C655 O645 1.283 . S
C656 O648 1.304 . S
C656 O650 1.272 . S
C657 O649 1.311 . S
C657 O651 1.231 . S
O658 Zn640 1.953 . S
O658 C652 1.298 . S
O659 Zn660 1.953 . S
O659 C675 1.225 . S
Zn660 O659 1.953 . S
Zn660 O661 1.949 . S
Zn660 O667 1.919 . S
Zn660 O672 1.924 . S
O661 Zn660 1.949 . S
O661 Zn662 1.923 . S
O661 Zn663 1.950 . S
O661 Zn664 1.945 . S
Zn662 O661 1.923 . S
Zn662 O665 1.933 . S
Zn662 O668 1.941 . S
Zn662 O669 1.965 . S
Zn663 O661 1.950 . S
Zn663 O670 1.938 . S
Zn663 O671 1.906 . S
Zn663 O681 1.953 . S
Zn664 O661 1.945 . S
Zn664 O666 1.968 . S
Zn664 O673 1.977 . S
Zn664 O674 1.910 . S
O665 Zn662 1.933 . S
O665 C676 1.226 1_655 S
O666 Zn664 1.968 . S
O666 C676 1.298 1_655 S
O667 Zn660 1.919 . S
O667 C678 1.253 . S
O668 Zn662 1.941 . S
O668 C678 1.283 . S
O669 Zn662 1.965 . S
O669 C677 1.303 . S
O670 Zn663 1.938 . S
O670 C677 1.247 . S
O671 Zn663 1.906 . S
O671 C679 1.323 . S
O672 Zn660 1.924 . S
O672 C680 1.311 . S
O673 Zn664 1.977 . S
O673 C679 1.297 . S
O674 Zn664 1.910 . S
O674 C680 1.231 . S
C675 O659 1.225 . S
C675 O681 1.298 . S
C676 O665 1.226 1_455 S
C676 O666 1.298 1_455 S
C677 O669 1.303 . S
C677 O670 1.247 . S
C678 O667 1.253 . S
C678 O668 1.283 . S
C679 O671 1.323 . S
C679 O673 1.297 . S
C680 O672 1.311 . S
C680 O674 1.231 . S
O681 Zn663 1.953 . S
O681 C675 1.298 . S
O682 Zn683 1.953 . S
O682 C698 1.225 . S
Zn683 O682 1.953 . S
Zn683 O684 1.949 . S
Zn683 O690 1.919 . S
Zn683 O695 1.924 . S
O684 Zn683 1.949 . S
O684 Zn685 1.923 . S
O684 Zn686 1.950 . S
O684 Zn687 1.945 . S
Zn685 O684 1.923 . S
Zn685 O688 1.933 . S
Zn685 O691 1.941 . S
Zn685 O692 1.965 . S
Zn686 O684 1.950 . S
Zn686 O693 1.938 . S
Zn686 O694 1.906 . S
Zn686 O704 1.953 . S
Zn687 O684 1.945 . S
Zn687 O689 1.932 . S
Zn687 O696 1.977 . S
Zn687 O697 1.910 . S
O688 Zn685 1.933 . S
O688 C699 1.226 . S
O689 Zn687 1.932 . S
O689 C699 1.307 . S
O690 Zn683 1.919 . S
O690 C701 1.253 . S
O691 Zn685 1.941 . S
O691 C701 1.283 . S
O692 Zn685 1.965 . S
O692 C700 1.303 . S
O693 Zn686 1.938 . S
O693 C700 1.247 . S
O694 Zn686 1.906 . S
O694 C702 1.304 . S
O695 Zn683 1.924 . S
O695 C703 1.311 . S
O696 Zn687 1.977 . S
O696 C702 1.272 . S
O697 Zn687 1.910 . S
O697 C703 1.231 . S
C698 O682 1.225 . S
C698 O704 1.298 . S
C699 O688 1.226 . S
C699 O689 1.307 . S
C700 O692 1.303 . S
C700 O693 1.247 . S
C701 O690 1.253 . S
C701 O691 1.283 . S
C702 O694 1.304 . S
C702 O696 1.272 . S
C703 O695 1.311 . S
C703 O697 1.231 . S
O704 Zn686 1.953 . S
O704 C698 1.298 . S
O705 Zn706 1.953 . S
O705 C721 1.225 . S
Zn706 O705 1.953 . S
Zn706 O707 1.949 . S
Zn706 O713 1.919 . S
Zn706 O718 1.924 . S
O707 Zn706 1.949 . S
O707 Zn708 1.923 . S
O707 Zn709 1.950 . S
O707 Zn710 1.945 . S
Zn708 O707 1.923 . S
Zn708 O711 1.933 . S
Zn708 O714 1.941 . S
Zn708 O715 1.965 . S
Zn709 O707 1.950 . S
Zn709 O716 1.938 . S
Zn709 O717 1.906 . S
Zn709 O727 1.953 . S
Zn710 O707 1.945 . S
Zn710 O712 1.932 . S
Zn710 O719 1.977 . S
Zn710 O720 1.910 . S
O711 Zn708 1.933 . S
O711 C722 1.226 . S
O712 Zn710 1.932 . S
O712 C722 1.307 . S
O713 Zn706 1.919 . S
O713 C724 1.253 . S
O714 Zn708 1.941 . S
O714 C724 1.283 . S
O715 Zn708 1.965 . S
O715 C723 1.303 . S
O716 Zn709 1.938 . S
O716 C723 1.247 . S
O717 Zn709 1.906 . S
O717 C725 1.304 . S
O718 Zn706 1.924 . S
O718 C726 1.311 1_655 S
O719 Zn710 1.977 . S
O719 C725 1.272 . S
O720 Zn710 1.910 . S
O720 C726 1.231 1_655 S
C721 O705 1.225 . S
C721 O727 1.298 . S
C722 O711 1.226 . S
C722 O712 1.307 . S
C723 O715 1.303 . S
C723 O716 1.247 . S
C724 O713 1.253 . S
C724 O714 1.283 . S
C725 O717 1.304 . S
C725 O719 1.272 . S
C726 O718 1.311 1_455 S
C726 O720 1.231 1_455 S
O727 Zn709 1.953 . S
O727 C721 1.298 . S
O728 Zn729 1.953 . S
O728 C744 1.225 . S
Zn729 O728 1.953 . S
Zn729 O730 1.949 . S
Zn729 O736 1.919 . S
Zn729 O741 1.924 . S
O730 Zn729 1.949 . S
O730 Zn731 1.923 . S
O730 Zn732 1.950 . S
O730 Zn733 1.945 . S
Zn731 O730 1.923 . S
Zn731 O734 1.933 . S
Zn731 O737 1.941 . S
Zn731 O738 1.965 . S
Zn732 O730 1.950 . S
Zn732 O739 1.938 . S
Zn732 O740 1.906 . S
Zn732 O750 1.953 . S
Zn733 O730 1.945 . S
Zn733 O735 1.932 . S
Zn733 O742 1.977 . S
Zn733 O743 1.910 . S
O734 Zn731 1.933 . S
O734 C745 1.226 . S
O735 Zn733 1.932 . S
O735 C745 1.307 . S
O736 Zn729 1.919 . S
O736 C747 1.253 . S
O737 Zn731 1.941 . S
O737 C747 1.283 . S
O738 Zn731 1.965 . S
O738 C746 1.303 . S
O739 Zn732 1.938 . S
O739 C746 1.247 . S
O740 Zn732 1.906 . S
O740 C748 1.304 . S
O741 Zn729 1.924 . S
O741 C749 1.311 . S
O742 Zn733 1.977 . S
O742 C748 1.272 . S
O743 Zn733 1.910 . S
O743 C749 1.231 . S
C744 O728 1.225 . S
C744 O750 1.298 . S
C745 O734 1.226 . S
C745 O735 1.307 . S
C746 O738 1.303 . S
C746 O739 1.247 . S
C747 O736 1.253 . S
C747 O737 1.283 . S
C748 O740 1.304 . S
C748 O742 1.272 . S
C749 O741 1.311 . S
C749 O743 1.231 . S
O750 Zn732 1.953 . S
O750 C744 1.298 . S
O751 Zn752 1.953 . S
O751 C767 1.225 . S
Zn752 O751 1.953 . S
Zn752 O753 1.949 . S
Zn752 O759 1.919 . S
Zn752 O764 1.924 . S
O753 Zn752 1.949 . S
O753 Zn754 1.923 . S
O753 Zn755 1.950 . S
O753 Zn756 1.945 . S
Zn754 O753 1.923 . S
Zn754 O757 1.933 . S
Zn754 O760 1.941 . S
Zn754 O761 1.965 . S
Zn755 O753 1.950 . S
Zn755 O762 1.938 . S
Zn755 O763 1.906 . S
Zn755 O773 1.953 . S
Zn756 O753 1.945 . S
Zn756 O758 1.932 . S
Zn756 O765 1.977 . S
Zn756 O766 1.910 . S
O757 Zn754 1.933 . S
O757 C768 1.226 . S
O758 Zn756 1.932 . S
O758 C768 1.307 . S
O759 Zn752 1.919 . S
O759 C770 1.253 . S
O760 Zn754 1.941 . S
O760 C770 1.283 . S
O761 Zn754 1.965 . S
O761 C769 1.303 . S
O762 Zn755 1.938 . S
O762 C769 1.247 . S
O763 Zn755 1.906 . S
O763 C771 1.304 . S
O764 Zn752 1.924 . S
O764 C772 1.311 . S
O765 Zn756 1.977 . S
O765 C771 1.272 . S
O766 Zn756 1.910 . S
O766 C772 1.231 . S
C767 O751 1.225 . S
C767 O773 1.298 . S
C768 O757 1.226 . S
C768 O758 1.307 . S
C769 O761 1.303 . S
C769 O762 1.247 . S
C770 O759 1.253 . S
C770 O760 1.283 . S
C771 O763 1.304 . S
C771 O765 1.272 . S
C772 O764 1.311 . S
C772 O766 1.231 . S
O773 Zn755 1.953 . S
O773 C767 1.298 . S
O774 Zn775 1.953 . S
O774 C790 1.225 . S
Zn775 O774 1.953 . S
Zn775 O776 1.949 . S
Zn775 O782 1.919 . S
Zn775 O787 1.924 . S
O776 Zn775 1.949 . S
O776 Zn777 1.923 . S
O776 Zn778 1.950 . S
O776 Zn779 1.945 . S
Zn777 O776 1.923 . S
Zn777 O780 1.933 . S
Zn777 O783 1.941 . S
Zn777 O784 1.965 . S
Zn778 O776 1.950 . S
Zn778 O785 1.938 . S
Zn778 O786 1.906 . S
Zn778 O796 1.953 . S
Zn779 O776 1.945 . S
Zn779 O781 1.932 . S
Zn779 O788 1.977 . S
Zn779 O789 1.910 1_556 S
O780 Zn777 1.933 . S
O780 C791 1.226 . S
O781 Zn779 1.932 . S
O781 C791 1.307 . S
O782 Zn775 1.919 . S
O782 C793 1.253 . S
O783 Zn777 1.941 . S
O783 C793 1.283 . S
O784 Zn777 1.965 . S
O784 C792 1.303 . S
O785 Zn778 1.938 . S
O785 C792 1.247 . S
O786 Zn778 1.906 . S
O786 C794 1.304 . S
O787 Zn775 1.924 . S
O787 C795 1.311 1_556 S
O788 Zn779 1.977 . S
O788 C794 1.272 . S
O789 Zn779 1.910 1_554 S
O789 C795 1.231 . S
C790 O774 1.225 . S
C790 O796 1.298 . S
C791 O780 1.226 . S
C791 O781 1.307 . S
C792 O784 1.303 . S
C792 O785 1.247 . S
C793 O782 1.253 . S
C793 O783 1.283 . S
C794 O786 1.304 . S
C794 O788 1.272 . S
C795 O787 1.311 1_554 S
C795 O789 1.231 . S
O796 Zn778 1.953 . S
O796 C790 1.298 . S
O797 Zn798 1.953 . S
O797 C813 1.225 . S
Zn798 O797 1.953 . S
Zn798 O799 1.949 . S
Zn798 O805 1.919 . S
Zn798 O810 1.924 . S
O799 Zn798 1.949 . S
O799 Zn800 1.923 . S
O799 Zn801 1.950 . S
O799 Zn802 1.945 . S
Zn800 O799 1.923 . S
Zn800 O803 1.933 . S
Zn800 O806 1.941 . S
Zn800 O807 1.965 . S
Zn801 O799 1.950 . S
Zn801 O808 1.938 . S
Zn801 O809 1.906 . S
Zn801 O819 1.953 . S
Zn802 O799 1.945 . S
Zn802 O804 1.932 . S
Zn802 O811 1.977 . S
Zn802 O812 1.910 . S
O803 Zn800 1.933 . S
O803 C814 1.226 . S
O804 Zn802 1.932 . S
O804 C814 1.307 . S
O805 Zn798 1.919 . S
O805 C816 1.253 . S
O806 Zn800 1.941 . S
O806 C816 1.283 . S
O807 Zn800 1.965 . S
O807 C815 1.303 . S
O808 Zn801 1.938 . S
O808 C815 1.247 . S
O809 Zn801 1.906 . S
O809 C817 1.304 . S
O810 Zn798 1.924 . S
O810 C818 1.311 . S
O811 Zn802 1.977 . S
O811 C817 1.272 . S
O812 Zn802 1.910 . S
O812 C818 1.231 . S
C813 O797 1.225 . S
C813 O819 1.298 . S
C814 O803 1.226 . S
C814 O804 1.307 . S
C815 O807 1.303 . S
C815 O808 1.247 . S
C816 O805 1.253 . S
C816 O806 1.283 . S
C817 O809 1.304 . S
C817 O811 1.272 . S
C818 O810 1.311 . S
C818 O812 1.231 . S
O819 Zn801 1.953 . S
O819 C813 1.298 . S
H820 C838 0.951 1_655 S
H821 C840 0.951 1_655 S
H822 C842 0.950 . S
H823 C843 0.950 . S
H824 C845 0.950 . S
H825 C848 0.950 . S
H826 C849 0.950 . S
H827 C851 0.950 . S
H828 C852 0.950 . S
H829 C853 0.951 . S
H830 C855 0.951 . S
H831 C857 0.950 . S
H832 C858 0.950 1_565 S
H833 C860 0.950 1_655 S
H834 C863 0.950 . S
H835 C864 0.950 . S
H836 C866 0.950 . S
H837 C867 0.950 . S
C838 H820 0.951 1_455 S
C838 C839 1.366 . S
C838 C840 1.388 . S
C839 C838 1.366 . S
C839 C843 1.385 . S
C840 H821 0.951 1_455 S
C840 C838 1.388 . S
C840 C841 1.366 . S
C841 C840 1.366 . S
C841 C842 1.414 . S
C841 C844 1.499 . S
C842 H822 0.950 . S
C842 C841 1.414 . S
C842 C843 1.374 . S
C843 H823 0.950 . S
C843 C839 1.385 . S
C843 C842 1.374 . S
C844 C841 1.499 . S
C844 C845 1.373 . S
C844 C846 1.389 . S
C845 H824 0.950 . S
C845 C844 1.373 . S
C845 C861 1.377 . S
C846 C844 1.389 . S
C846 C847 1.524 1_455 S
C846 C860 1.377 . S
C847 C846 1.524 1_655 S
C847 C848 1.397 . S
C847 C852 1.363 . S
C848 H825 0.950 . S
C848 C847 1.397 . S
C848 C849 1.334 . S
C849 H826 0.950 . S
C849 C848 1.334 . S
C849 C850 1.287 . S
C850 C849 1.287 . S
C850 C851 1.524 . S
C850 H869 0.913 . S
C851 H827 0.950 . S
C851 C850 1.524 . S
C851 C852 1.415 . S
C852 H828 0.950 . S
C852 C847 1.363 . S
C852 C851 1.415 . S
C853 H829 0.951 . S
C853 C854 1.366 . S
C853 C855 1.388 . S
C854 C853 1.366 . S
C854 C858 1.385 . S
C855 H830 0.951 . S
C855 C853 1.388 . S
C855 C856 1.366 . S
C856 C855 1.366 . S
C856 C857 1.414 . S
C856 C859 1.499 . S
C857 H831 0.950 . S
C857 C856 1.414 . S
C857 C858 1.374 . S
C858 H832 0.950 1_545 S
C858 C854 1.385 . S
C858 C857 1.374 . S
C859 C856 1.499 . S
C859 C860 1.373 . S
C859 C861 1.389 . S
C860 H833 0.950 1_455 S
C860 C846 1.377 . S
C860 C859 1.373 . S
C861 C845 1.377 . S
C861 C859 1.389 . S
C861 C862 1.524 . S
C862 C861 1.524 . S
C862 C863 1.397 . S
C862 C867 1.363 . S
C863 H834 0.950 . S
C863 C862 1.397 . S
C863 C864 1.334 . S
C864 H835 0.950 . S
C864 C863 1.334 . S
C864 C865 1.287 . S
C865 C864 1.287 . S
C865 C866 1.524 . S
C865 H868 0.999 . S
C866 H836 0.950 . S
C866 C865 1.524 . S
C866 C867 1.415 . S
C867 H837 0.950 . S
C867 C862 1.363 . S
C867 C866 1.415 . S
H868 C865 0.999 . S
H869 C850 0.913 . S
H870 C888 0.951 1_455 S
H871 C890 0.951 1_455 S
H872 C892 0.950 . S
H873 C893 0.950 . S
H874 C895 0.950 . S
H875 C898 0.950 . S
H876 C899 0.950 . S
H877 C901 0.950 . S
H878 C902 0.950 . S
H879 C903 0.951 . S
H880 C905 0.951 . S
H881 C907 0.950 . S
H882 C908 0.950 . S
H883 C910 0.950 1_455 S
H884 C913 0.950 . S
H885 C914 0.950 . S
H886 C916 0.950 . S
H887 C917 0.950 . S
C888 H870 0.951 1_655 S
C888 C889 1.366 . S
C888 C890 1.388 . S
C889 C888 1.366 . S
C889 C893 1.385 . S
C890 H871 0.951 1_655 S
C890 C888 1.388 . S
C890 C891 1.366 . S
C891 C890 1.366 . S
C891 C892 1.414 . S
C891 C894 1.499 . S
C892 H872 0.950 . S
C892 C891 1.414 . S
C892 C893 1.374 . S
C893 H873 0.950 . S
C893 C889 1.385 . S
C893 C892 1.374 . S
C894 C891 1.499 . S
C894 C895 1.373 . S
C894 C896 1.389 . S
C895 H874 0.950 . S
C895 C894 1.373 . S
C895 C911 1.377 . S
C896 C894 1.389 . S
C896 C897 1.524 1_655 S
C896 C910 1.377 . S
C897 C896 1.524 1_455 S
C897 C898 1.397 . S
C897 C902 1.363 . S
C898 H875 0.950 . S
C898 C897 1.397 . S
C898 C899 1.334 . S
C899 H876 0.950 . S
C899 C898 1.334 . S
C899 C900 1.287 . S
C900 C899 1.287 . S
C900 C901 1.524 . S
C900 H919 0.913 . S
C901 H877 0.950 . S
C901 C900 1.524 . S
C901 C902 1.415 . S
C902 H878 0.950 . S
C902 C897 1.363 . S
C902 C901 1.415 . S
C903 H879 0.951 . S
C903 C904 1.366 . S
C903 C905 1.388 . S
C904 C903 1.366 . S
C904 C908 1.385 . S
C905 H880 0.951 . S
C905 C903 1.388 . S
C905 C906 1.366 . S
C906 C905 1.366 . S
C906 C907 1.414 . S
C906 C909 1.499 . S
C907 H881 0.950 . S
C907 C906 1.414 . S
C907 C908 1.374 . S
C908 H882 0.950 . S
C908 C904 1.385 . S
C908 C907 1.374 . S
C909 C906 1.499 . S
C909 C910 1.373 . S
C909 C911 1.389 . S
C910 H883 0.950 1_655 S
C910 C896 1.377 . S
C910 C909 1.373 . S
C911 C895 1.377 . S
C911 C909 1.389 . S
C911 C912 1.524 . S
C912 C911 1.524 . S
C912 C913 1.397 . S
C912 C917 1.363 . S
C913 H884 0.950 . S
C913 C912 1.397 . S
C913 C914 1.334 . S
C914 H885 0.950 . S
C914 C913 1.334 . S
C914 C915 1.287 . S
C915 C914 1.287 . S
C915 C916 1.524 . S
C915 H918 0.999 . S
C916 H886 0.950 . S
C916 C915 1.524 . S
C916 C917 1.415 . S
C917 H887 0.950 . S
C917 C912 1.363 . S
C917 C916 1.415 . S
H918 C915 0.999 . S
H919 C900 0.913 . S
H920 C938 0.951 . S
H921 C940 0.951 . S
H922 C942 0.950 . S
H923 C943 0.950 . S
H924 C945 0.950 . S
H925 C948 0.950 . S
H926 C949 0.950 . S
H927 C951 0.950 . S
H928 C952 0.950 . S
H929 C953 0.951 . S
H930 C955 0.951 . S
H931 C957 0.950 . S
H932 C958 0.950 . S
H933 C960 0.950 . S
H934 C963 0.950 . S
H935 C964 0.950 . S
H936 C966 0.950 . S
H937 C967 0.950 . S
C938 H920 0.951 . S
C938 C939 1.366 . S
C938 C940 1.388 . S
C939 C938 1.366 . S
C939 C943 1.385 . S
C940 H921 0.951 . S
C940 C938 1.388 . S
C940 C941 1.366 . S
C941 C940 1.366 . S
C941 C942 1.414 . S
C941 C944 1.499 . S
C942 H922 0.950 . S
C942 C941 1.414 . S
C942 C943 1.374 . S
C943 H923 0.950 . S
C943 C939 1.385 . S
C943 C942 1.374 . S
C944 C941 1.499 . S
C944 C945 1.373 . S
C944 C946 1.389 . S
C945 H924 0.950 . S
C945 C944 1.373 . S
C945 C961 1.377 . S
C946 C944 1.389 . S
C946 C947 1.524 . S
C946 C960 1.377 . S
C947 C946 1.524 . S
C947 C948 1.397 . S
C947 C952 1.363 1_455 S
C948 H925 0.950 . S
C948 C947 1.397 . S
C948 C949 1.334 1_455 S
C949 H926 0.950 . S
C949 C948 1.334 1_655 S
C949 C950 1.287 . S
C950 C949 1.287 . S
C950 C951 1.524 . S
C950 H969 0.913 . S
C951 H927 0.950 . S
C951 C950 1.524 . S
C951 C952 1.415 . S
C952 H928 0.950 . S
C952 C947 1.363 1_655 S
C952 C951 1.415 . S
C953 H929 0.951 . S
C953 C954 1.366 . S
C953 C955 1.388 . S
C954 C953 1.366 . S
C954 C958 1.385 . S
C955 H930 0.951 . S
C955 C953 1.388 . S
C955 C956 1.366 . S
C956 C955 1.366 . S
C956 C957 1.414 . S
C956 C959 1.499 . S
C957 H931 0.950 . S
C957 C956 1.414 . S
C957 C958 1.374 . S
C958 H932 0.950 . S
C958 C954 1.385 . S
C958 C957 1.374 . S
C959 C956 1.499 . S
C959 C960 1.373 . S
C959 C961 1.389 . S
C960 H933 0.950 . S
C960 C946 1.377 . S
C960 C959 1.373 . S
C961 C945 1.377 . S
C961 C959 1.389 . S
C961 C962 1.524 . S
C962 C961 1.524 . S
C962 C963 1.397 . S
C962 C967 1.363 . S
C963 H934 0.950 . S
C963 C962 1.397 . S
C963 C964 1.334 . S
C964 H935 0.950 . S
C964 C963 1.334 . S
C964 C965 1.287 . S
C965 C964 1.287 . S
C965 C966 1.524 . S
C965 H968 0.999 . S
C966 H936 0.950 . S
C966 C965 1.524 . S
C966 C967 1.415 . S
C967 H937 0.950 . S
C967 C962 1.363 . S
C967 C966 1.415 . S
H968 C965 0.999 . S
H969 C950 0.913 . S
H970 C988 0.951 . S
H971 C990 0.951 . S
H972 C992 0.950 . S
H973 C993 0.950 . S
H974 C995 0.950 . S
H975 C998 0.950 . S
H976 C999 0.950 . S
H977 C1001 0.950 . S
H978 C1002 0.952 . S
H979 C1003 0.951 . S
H980 C1005 0.951 1_455 S
H981 C1007 0.950 . S
H982 C1008 0.950 . S
H983 C1010 0.950 . S
H984 C1013 0.950 . S
H985 C1014 0.950 . S
H986 C1016 0.950 . S
H987 C1017 0.950 1_455 S
C988 H970 0.951 . S
C988 C989 1.366 1_655 S
C988 C990 1.388 . S
C989 C988 1.366 1_455 S
C989 C993 1.385 . S
C990 H971 0.951 . S
C990 C988 1.388 . S
C990 C991 1.366 1_655 S
C991 C990 1.366 1_455 S
C991 C992 1.414 . S
C991 C994 1.499 1_455 S
C992 H972 0.950 . S
C992 C991 1.414 . S
C992 C993 1.374 . S
C993 H973 0.950 . S
C993 C989 1.385 . S
C993 C992 1.374 . S
C994 C991 1.499 1_655 S
C994 C995 1.373 . S
C994 C996 1.387 1_655 S
C995 H974 0.950 . S
C995 C994 1.373 . S
C995 C1011 1.377 . S
C996 C994 1.387 1_455 S
C996 C997 1.534 . S
C996 C1010 1.371 1_455 S
C997 C996 1.534 . S
C997 C998 1.397 . S
C997 C1002 1.362 1_455 S
C998 H975 0.950 . S
C998 C997 1.397 . S
C998 C999 1.334 . S
C999 H976 0.950 . S
C999 C998 1.334 . S
C999 C1000 1.287 . S
C1000 C999 1.287 . S
C1000 C1001 1.524 . S
C1000 H1019 0.913 . S
C1001 H977 0.950 . S
C1001 C1000 1.524 . S
C1001 C1002 1.414 1_455 S
C1002 H978 0.952 . S
C1002 C997 1.362 1_655 S
C1002 C1001 1.414 1_655 S
C1003 H979 0.951 . S
C1003 C1004 1.366 . S
C1003 C1005 1.388 . S
C1004 C1003 1.366 . S
C1004 C1008 1.385 . S
C1005 H980 0.951 1_655 S
C1005 C1003 1.388 . S
C1005 C1006 1.366 . S
C1006 C1005 1.366 . S
C1006 C1007 1.414 . S
C1006 C1009 1.499 . S
C1007 H981 0.950 . S
C1007 C1006 1.414 . S
C1007 C1008 1.374 . S
C1008 H982 0.950 . S
C1008 C1004 1.385 . S
C1008 C1007 1.374 . S
C1009 C1006 1.499 . S
C1009 C1010 1.373 . S
C1009 C1011 1.389 . S
C1010 H983 0.950 . S
C1010 C996 1.371 1_655 S
C1010 C1009 1.373 . S
C1011 C995 1.377 . S
C1011 C1009 1.389 . S
C1011 C1012 1.524 . S
C1012 C1011 1.524 . S
C1012 C1013 1.397 . S
C1012 C1017 1.363 . S
C1013 H984 0.950 . S
C1013 C1012 1.397 . S
C1013 C1014 1.334 . S
C1014 H985 0.950 . S
C1014 C1013 1.334 . S
C1014 C1015 1.287 . S
C1015 C1014 1.287 . S
C1015 C1016 1.524 . S
C1015 H1018 0.999 . S
C1016 H986 0.950 . S
C1016 C1015 1.524 . S
C1016 C1017 1.415 . S
C1017 H987 0.950 1_655 S
C1017 C1012 1.363 . S
C1017 C1016 1.415 . S
H1018 C1015 0.999 . S
H1019 C1000 0.913 . S
H1020 C1038 0.951 . S
H1021 C1040 0.951 . S
H1022 C1042 0.950 . S
H1023 C1043 0.950 . S
H1024 C1045 0.950 . S
H1025 C1048 0.950 . S
H1026 C1049 0.950 . S
H1027 C1051 0.950 . S
H1028 C1052 0.950 . S
H1029 C1053 0.951 . S
H1030 C1055 0.951 . S
H1031 C1057 0.950 . S
H1032 C1058 0.950 . S
H1033 C1060 0.950 . S
H1034 C1063 0.950 . S
H1035 C1064 0.950 . S
H1036 C1066 0.950 . S
H1037 C1067 0.950 1_545 S
C1038 H1020 0.951 . S
C1038 C1039 1.366 . S
C1038 C1040 1.388 . S
C1039 C1038 1.366 . S
C1039 C1043 1.385 . S
C1040 H1021 0.951 . S
C1040 C1038 1.388 . S
C1040 C1041 1.366 . S
C1041 C1040 1.366 . S
C1041 C1042 1.414 . S
C1041 C1044 1.499 . S
C1042 H1022 0.950 . S
C1042 C1041 1.414 . S
C1042 C1043 1.374 . S
C1043 H1023 0.950 . S
C1043 C1039 1.385 . S
C1043 C1042 1.374 . S
C1044 C1041 1.499 . S
C1044 C1045 1.373 . S
C1044 C1046 1.389 . S
C1045 H1024 0.950 . S
C1045 C1044 1.373 . S
C1045 C1061 1.377 . S
C1046 C1044 1.389 . S
C1046 C1047 1.524 . S
C1046 C1060 1.377 . S
C1047 C1046 1.524 . S
C1047 C1048 1.397 . S
C1047 C1052 1.363 . S
C1048 H1025 0.950 . S
C1048 C1047 1.397 . S
C1048 C1049 1.334 . S
C1049 H1026 0.950 . S
C1049 C1048 1.334 . S
C1049 C1050 1.287 . S
C1050 C1049 1.287 . S
C1050 C1051 1.524 . S
C1050 H1069 0.913 . S
C1051 H1027 0.950 . S
C1051 C1050 1.524 . S
C1051 C1052 1.415 . S
C1052 H1028 0.950 . S
C1052 C1047 1.363 . S
C1052 C1051 1.415 . S
C1053 H1029 0.951 . S
C1053 C1054 1.366 . S
C1053 C1055 1.388 . S
C1054 C1053 1.366 . S
C1054 C1058 1.385 . S
C1055 H1030 0.951 . S
C1055 C1053 1.388 . S
C1055 C1056 1.366 . S
C1056 C1055 1.366 . S
C1056 C1057 1.414 . S
C1056 C1059 1.499 . S
C1057 H1031 0.950 . S
C1057 C1056 1.414 . S
C1057 C1058 1.374 . S
C1058 H1032 0.950 . S
C1058 C1054 1.385 . S
C1058 C1057 1.374 . S
C1059 C1056 1.499 . S
C1059 C1060 1.373 . S
C1059 C1061 1.389 . S
C1060 H1033 0.950 . S
C1060 C1046 1.377 . S
C1060 C1059 1.373 . S
C1061 C1045 1.377 . S
C1061 C1059 1.389 . S
C1061 C1062 1.557 . S
C1062 C1061 1.557 . S
C1062 C1063 1.364 1_545 S
C1062 C1067 1.362 1_545 S
C1063 H1034 0.950 . S
C1063 C1062 1.364 1_565 S
C1063 C1064 1.334 . S
C1064 H1035 0.950 . S
C1064 C1063 1.334 . S
C1064 C1065 1.287 . S
C1065 C1064 1.287 . S
C1065 C1066 1.524 . S
C1065 H1068 0.999 . S
C1066 H1036 0.950 . S
C1066 C1065 1.524 . S
C1066 C1067 1.415 . S
C1067 H1037 0.950 1_565 S
C1067 C1062 1.362 1_565 S
C1067 C1066 1.415 . S
H1068 C1065 0.999 . S
H1069 C1050 0.913 . S
H1070 C1088 0.951 . S
H1071 C1090 0.951 . S
H1072 C1092 0.950 . S
H1073 C1093 0.950 . S
H1074 C1095 0.950 . S
H1075 C1098 0.950 . S
H1076 C1099 0.950 . S
H1077 C1101 0.950 . S
H1078 C1102 0.950 . S
H1079 C1103 0.951 . S
H1080 C1105 0.951 . S
H1081 C1107 0.950 . S
H1082 C1108 0.950 . S
H1083 C1110 0.950 . S
H1084 C1113 0.950 . S
H1085 C1114 0.950 . S
H1086 C1116 0.950 . S
H1087 C1117 0.950 . S
C1088 H1070 0.951 . S
C1088 C1089 1.366 . S
C1088 C1090 1.388 . S
C1089 C1088 1.366 . S
C1089 C1093 1.385 . S
C1090 H1071 0.951 . S
C1090 C1088 1.388 . S
C1090 C1091 1.366 . S
C1091 C1090 1.366 . S
C1091 C1092 1.414 . S
C1091 C1094 1.499 . S
C1092 H1072 0.950 . S
C1092 C1091 1.414 . S
C1092 C1093 1.374 . S
C1093 H1073 0.950 . S
C1093 C1089 1.385 . S
C1093 C1092 1.374 . S
C1094 C1091 1.499 . S
C1094 C1095 1.373 . S
C1094 C1096 1.389 . S
C1095 H1074 0.950 . S
C1095 C1094 1.373 . S
C1095 C1111 1.377 . S
C1096 C1094 1.389 . S
C1096 C1097 1.524 . S
C1096 C1110 1.377 . S
C1097 C1096 1.524 . S
C1097 C1098 1.397 . S
C1097 C1102 1.363 . S
C1098 H1075 0.950 . S
C1098 C1097 1.397 . S
C1098 C1099 1.334 . S
C1099 H1076 0.950 . S
C1099 C1098 1.334 . S
C1099 C1100 1.287 . S
C1100 C1099 1.287 . S
C1100 C1101 1.524 . S
C1100 H1119 0.913 . S
C1101 H1077 0.950 . S
C1101 C1100 1.524 . S
C1101 C1102 1.415 . S
C1102 H1078 0.950 . S
C1102 C1097 1.363 . S
C1102 C1101 1.415 . S
C1103 H1079 0.951 . S
C1103 C1104 1.366 . S
C1103 C1105 1.388 . S
C1104 C1103 1.366 . S
C1104 C1108 1.385 . S
C1105 H1080 0.951 . S
C1105 C1103 1.388 . S
C1105 C1106 1.366 . S
C1106 C1105 1.366 . S
C1106 C1107 1.414 . S
C1106 C1109 1.499 . S
C1107 H1081 0.950 . S
C1107 C1106 1.414 . S
C1107 C1108 1.374 . S
C1108 H1082 0.950 . S
C1108 C1104 1.385 . S
C1108 C1107 1.374 . S
C1109 C1106 1.499 . S
C1109 C1110 1.373 . S
C1109 C1111 1.389 . S
C1110 H1083 0.950 . S
C1110 C1096 1.377 . S
C1110 C1109 1.373 . S
C1111 C1095 1.377 . S
C1111 C1109 1.389 . S
C1111 C1112 1.524 . S
C1112 C1111 1.524 . S
C1112 C1113 1.397 . S
C1112 C1117 1.363 . S
C1113 H1084 0.950 . S
C1113 C1112 1.397 . S
C1113 C1114 1.334 . S
C1114 H1085 0.950 . S
C1114 C1113 1.334 . S
C1114 C1115 1.287 . S
C1115 C1114 1.287 . S
C1115 C1116 1.524 . S
C1115 H1118 0.999 . S
C1116 H1086 0.950 . S
C1116 C1115 1.524 . S
C1116 C1117 1.415 . S
C1117 H1087 0.950 . S
C1117 C1112 1.363 . S
C1117 C1116 1.415 . S
H1118 C1115 0.999 . S
H1119 C1100 0.913 . S
H1120 C1138 0.951 . S
H1121 C1140 0.951 . S
H1122 C1142 0.950 . S
H1123 C1143 0.950 . S
H1124 C1145 0.950 . S
H1125 C1148 0.950 . S
H1126 C1149 0.950 1_565 S
H1127 C1151 0.950 . S
H1128 C1152 0.950 . S
H1129 C1153 0.951 . S
H1130 C1155 0.951 . S
H1131 C1157 0.989 . S
H1132 C1158 0.950 . S
H1133 C1160 0.950 . S
H1134 C1163 0.950 . S
H1135 C1164 0.950 . S
H1136 C1166 0.950 . S
H1137 C1167 0.950 . S
C1138 H1120 0.951 . S
C1138 C1139 1.366 1_545 S
C1138 C1140 1.388 . S
C1139 C1138 1.366 1_565 S
C1139 C1143 1.385 . S
C1140 H1121 0.951 . S
C1140 C1138 1.388 . S
C1140 C1141 1.366 1_545 S
C1141 C1140 1.366 1_565 S
C1141 C1142 1.414 . S
C1141 C1144 1.499 . S
C1142 H1122 0.950 . S
C1142 C1141 1.414 . S
C1142 C1143 1.374 . S
C1143 H1123 0.950 . S
C1143 C1139 1.385 . S
C1143 C1142 1.374 . S
C1144 C1141 1.499 . S
C1144 C1145 1.373 . S
C1144 C1146 1.389 . S
C1145 H1124 0.950 . S
C1145 C1144 1.373 . S
C1145 C1161 1.377 . S
C1146 C1144 1.389 . S
C1146 C1147 1.524 1_565 S
C1146 C1160 1.377 . S
C1147 C1146 1.524 1_545 S
C1147 C1148 1.397 1_545 S
C1147 C1152 1.363 . S
C1148 H1125 0.950 . S
C1148 C1147 1.397 1_565 S
C1148 C1149 1.334 1_565 S
C1149 H1126 0.950 1_545 S
C1149 C1148 1.334 1_545 S
C1149 C1150 1.287 . S
C1150 C1149 1.287 . S
C1150 C1151 1.524 . S
C1150 H1169 0.913 . S
C1151 H1127 0.950 . S
C1151 C1150 1.524 . S
C1151 C1152 1.415 . S
C1152 H1128 0.950 . S
C1152 C1147 1.363 . S
C1152 C1151 1.415 . S
C1153 H1129 0.951 . S
C1153 C1154 1.366 . S
C1153 C1155 1.388 . S
C1154 C1153 1.366 . S
C1154 C1158 1.385 . S
C1155 H1130 0.951 . S
C1155 C1153 1.388 . S
C1155 C1156 1.366 . S
C1156 C1155 1.366 . S
C1156 C1157 1.414 . S
C1156 C1159 1.499 . S
C1157 H1131 0.989 . S
C1157 C1156 1.414 . S
C1157 C1158 1.374 . S
C1158 H1132 0.950 . S
C1158 C1154 1.385 . S
C1158 C1157 1.374 . S
C1159 C1156 1.499 . S
C1159 C1160 1.373 . S
C1159 C1161 1.389 . S
C1160 H1133 0.950 . S
C1160 C1146 1.377 . S
C1160 C1159 1.373 . S
C1161 C1145 1.377 . S
C1161 C1159 1.389 . S
C1161 C1162 1.524 . S
C1162 C1161 1.524 . S
C1162 C1163 1.397 . S
C1162 C1167 1.363 . S
C1163 H1134 0.950 . S
C1163 C1162 1.397 . S
C1163 C1164 1.334 . S
C1164 H1135 0.950 . S
C1164 C1163 1.334 . S
C1164 C1165 1.287 . S
C1165 C1164 1.287 . S
C1165 C1166 1.524 . S
C1165 H1168 0.999 . S
C1166 H1136 0.950 . S
C1166 C1165 1.524 . S
C1166 C1167 1.415 . S
C1167 H1137 0.950 . S
C1167 C1162 1.363 . S
C1167 C1166 1.415 . S
H1168 C1165 0.999 . S
H1169 C1150 0.913 . S
H1170 C1188 0.951 . S
H1171 C1190 0.951 . S
H1172 C1192 0.950 . S
H1173 C1193 0.950 . S
H1174 C1195 0.950 . S
H1175 C1198 0.950 . S
H1176 C1199 0.950 . S
H1177 C1201 0.950 . S
H1178 C1202 0.950 . S
H1179 C1203 0.951 . S
H1180 C1205 0.951 . S
H1181 C1207 0.950 . S
H1182 C1208 0.950 . S
H1183 C1210 0.950 . S
H1184 C1213 0.950 . S
H1185 C1214 0.950 . S
H1186 C1216 0.950 . S
H1187 C1217 0.950 . S
C1188 H1170 0.951 . S
C1188 C1189 1.366 . S
C1188 C1190 1.388 . S
C1189 C1188 1.366 . S
C1189 C1193 1.385 . S
C1190 H1171 0.951 . S
C1190 C1188 1.388 . S
C1190 C1191 1.366 . S
C1191 C1190 1.366 . S
C1191 C1192 1.414 . S
C1191 C1194 1.499 . S
C1192 H1172 0.950 . S
C1192 C1191 1.414 . S
C1192 C1193 1.374 . S
C1193 H1173 0.950 . S
C1193 C1189 1.385 . S
C1193 C1192 1.374 . S
C1194 C1191 1.499 . S
C1194 C1195 1.373 . S
C1194 C1196 1.389 . S
C1195 H1174 0.950 . S
C1195 C1194 1.373 . S
C1195 C1211 1.377 . S
C1196 C1194 1.389 . S
C1196 C1197 1.524 . S
C1196 C1210 1.377 . S
C1197 C1196 1.524 . S
C1197 C1198 1.397 . S
C1197 C1202 1.363 . S
C1198 H1175 0.950 . S
C1198 C1197 1.397 . S
C1198 C1199 1.334 . S
C1199 H1176 0.950 . S
C1199 C1198 1.334 . S
C1199 C1200 1.287 . S
C1200 C1199 1.287 . S
C1200 C1201 1.524 . S
C1200 H1219 0.913 . S
C1201 H1177 0.950 . S
C1201 C1200 1.524 . S
C1201 C1202 1.415 . S
C1202 H1178 0.950 . S
C1202 C1197 1.363 . S
C1202 C1201 1.415 . S
C1203 H1179 0.951 . S
C1203 C1204 1.366 . S
C1203 C1205 1.388 . S
C1204 C1203 1.366 . S
C1204 C1208 1.385 . S
C1205 H1180 0.951 . S
C1205 C1203 1.388 . S
C1205 C1206 1.366 . S
C1206 C1205 1.366 . S
C1206 C1207 1.414 . S
C1206 C1209 1.499 . S
C1207 H1181 0.950 . S
C1207 C1206 1.414 . S
C1207 C1208 1.374 . S
C1208 H1182 0.950 . S
C1208 C1204 1.385 . S
C1208 C1207 1.374 . S
C1209 C1206 1.499 . S
C1209 C1210 1.373 . S
C1209 C1211 1.389 . S
C1210 H1183 0.950 . S
C1210 C1196 1.377 . S
C1210 C1209 1.373 . S
C1211 C1195 1.377 . S
C1211 C1209 1.389 . S
C1211 C1212 1.524 . S
C1212 C1211 1.524 . S
C1212 C1213 1.397 . S
C1212 C1217 1.363 . S
C1213 H1184 0.950 . S
C1213 C1212 1.397 . S
C1213 C1214 1.334 . S
C1214 H1185 0.950 . S
C1214 C1213 1.334 . S
C1214 C1215 1.287 . S
C1215 C1214 1.287 . S
C1215 C1216 1.524 . S
C1215 H1218 0.999 . S
C1216 H1186 0.950 . S
C1216 C1215 1.524 . S
C1216 C1217 1.415 . S
C1217 H1187 0.950 . S
C1217 C1212 1.363 . S
C1217 C1216 1.415 . S
H1218 C1215 0.999 . S
H1219 C1200 0.913 . S
H1220 C1238 0.951 . S
H1221 C1240 0.951 . S
H1222 C1242 0.950 . S
H1223 C1243 0.950 . S
H1224 C1245 0.950 . S
H1225 C1248 0.950 . S
H1226 C1249 0.950 . S
H1227 C1251 0.950 . S
H1228 C1252 0.950 . S
H1229 C1253 0.951 . S
H1230 C1255 0.951 . S
H1231 C1257 0.950 . S
H1232 C1258 0.950 . S
H1233 C1260 0.950 . S
H1234 C1263 0.950 . S
H1235 C1264 0.950 . S
H1236 C1266 0.950 . S
H1237 C1267 0.950 . S
C1238 H1220 0.951 . S
C1238 C1239 1.366 . S
C1238 C1240 1.388 . S
C1239 C1238 1.366 . S
C1239 C1243 1.385 . S
C1240 H1221 0.951 . S
C1240 C1238 1.388 . S
C1240 C1241 1.366 . S
C1241 C1240 1.366 . S
C1241 C1242 1.414 . S
C1241 C1244 1.499 . S
C1242 H1222 0.950 . S
C1242 C1241 1.414 . S
C1242 C1243 1.374 . S
C1243 H1223 0.950 . S
C1243 C1239 1.385 . S
C1243 C1242 1.374 . S
C1244 C1241 1.499 . S
C1244 C1245 1.373 . S
C1244 C1246 1.389 . S
C1245 H1224 0.950 . S
C1245 C1244 1.373 . S
C1245 C1261 1.377 . S
C1246 C1244 1.389 . S
C1246 C1247 1.524 1_554 S
C1246 C1260 1.377 . S
C1247 C1246 1.524 1_556 S
C1247 C1248 1.397 . S
C1247 C1252 1.363 . S
C1248 H1225 0.950 . S
C1248 C1247 1.397 . S
C1248 C1249 1.334 . S
C1249 H1226 0.950 . S
C1249 C1248 1.334 . S
C1249 C1250 1.287 . S
C1250 C1249 1.287 . S
C1250 C1251 1.524 . S
C1250 H1269 0.913 . S
C1251 H1227 0.950 . S
C1251 C1250 1.524 . S
C1251 C1252 1.415 . S
C1252 H1228 0.950 . S
C1252 C1247 1.363 . S
C1252 C1251 1.415 . S
C1253 H1229 0.951 . S
C1253 C1254 1.366 . S
C1253 C1255 1.388 . S
C1254 C1253 1.366 . S
C1254 C1258 1.385 . S
C1255 H1230 0.951 . S
C1255 C1253 1.388 . S
C1255 C1256 1.366 . S
C1256 C1255 1.366 . S
C1256 C1257 1.414 . S
C1256 C1259 1.499 . S
C1257 H1231 0.950 . S
C1257 C1256 1.414 . S
C1257 C1258 1.374 . S
C1258 H1232 0.950 . S
C1258 C1254 1.385 . S
C1258 C1257 1.374 . S
C1259 C1256 1.499 . S
C1259 C1260 1.373 . S
C1259 C1261 1.389 . S
C1260 H1233 0.950 . S
C1260 C1246 1.377 . S
C1260 C1259 1.373 . S
C1261 C1245 1.377 . S
C1261 C1259 1.389 . S
C1261 C1262 1.524 . S
C1262 C1261 1.524 . S
C1262 C1263 1.397 . S
C1262 C1267 1.363 . S
C1263 H1234 0.950 . S
C1263 C1262 1.397 . S
C1263 C1264 1.334 . S
C1264 H1235 0.950 . S
C1264 C1263 1.334 . S
C1264 C1265 1.287 . S
C1265 C1264 1.287 . S
C1265 C1266 1.524 . S
C1265 H1268 0.999 . S
C1266 H1236 0.950 . S
C1266 C1265 1.524 . S
C1266 C1267 1.415 . S
C1267 H1237 0.950 . S
C1267 C1262 1.363 . S
C1267 C1266 1.415 . S
H1268 C1265 0.999 . S
H1269 C1250 0.913 . S
H1270 C1288 0.951 . S
H1271 C1290 0.951 . S
H1272 C1292 0.950 . S
H1273 C1293 0.950 . S
H1274 C1295 0.950 . S
H1275 C1298 0.950 . S
H1276 C1299 0.950 . S
H1277 C1301 0.950 . S
H1278 C1302 0.950 . S
H1279 C1303 0.951 . S
H1280 C1305 0.951 . S
H1281 C1307 0.950 . S
H1282 C1308 0.950 . S
H1283 C1310 0.950 . S
H1284 C1313 0.950 . S
H1285 C1314 0.950 . S
H1286 C1316 0.950 . S
H1287 C1317 0.950 . S
C1288 H1270 0.951 . S
C1288 C1289 1.366 . S
C1288 C1290 1.388 . S
C1289 C1288 1.366 . S
C1289 C1293 1.385 . S
C1290 H1271 0.951 . S
C1290 C1288 1.388 . S
C1290 C1291 1.366 . S
C1291 C1290 1.366 . S
C1291 C1292 1.414 . S
C1291 C1294 1.499 . S
C1292 H1272 0.950 . S
C1292 C1291 1.414 . S
C1292 C1293 1.374 . S
C1293 H1273 0.950 . S
C1293 C1289 1.385 . S
C1293 C1292 1.374 . S
C1294 C1291 1.499 . S
C1294 C1295 1.373 . S
C1294 C1296 1.389 . S
C1295 H1274 0.950 . S
C1295 C1294 1.373 . S
C1295 C1311 1.377 . S
C1296 C1294 1.389 . S
C1296 C1297 1.524 . S
C1296 C1310 1.377 . S
C1297 C1296 1.524 . S
C1297 C1298 1.397 . S
C1297 C1302 1.363 . S
C1298 H1275 0.950 . S
C1298 C1297 1.397 . S
C1298 C1299 1.334 . S
C1299 H1276 0.950 . S
C1299 C1298 1.334 . S
C1299 C1300 1.287 . S
C1300 C1299 1.287 . S
C1300 C1301 1.524 . S
C1300 H1319 0.913 . S
C1301 H1277 0.950 . S
C1301 C1300 1.524 . S
C1301 C1302 1.415 . S
C1302 H1278 0.950 . S
C1302 C1297 1.363 . S
C1302 C1301 1.415 . S
C1303 H1279 0.951 . S
C1303 C1304 1.366 . S
C1303 C1305 1.388 . S
C1304 C1303 1.366 . S
C1304 C1308 1.385 . S
C1305 H1280 0.951 . S
C1305 C1303 1.388 . S
C1305 C1306 1.366 . S
C1306 C1305 1.366 . S
C1306 C1307 1.414 . S
C1306 C1309 1.499 . S
C1307 H1281 0.950 . S
C1307 C1306 1.414 . S
C1307 C1308 1.374 . S
C1308 H1282 0.950 . S
C1308 C1304 1.385 . S
C1308 C1307 1.374 . S
C1309 C1306 1.499 . S
C1309 C1310 1.373 . S
C1309 C1311 1.389 . S
C1310 H1283 0.950 . S
C1310 C1296 1.377 . S
C1310 C1309 1.373 . S
C1311 C1295 1.377 . S
C1311 C1309 1.389 . S
C1311 C1312 1.524 . S
C1312 C1311 1.524 . S
C1312 C1313 1.397 . S
C1312 C1317 1.363 . S
C1313 H1284 0.950 . S
C1313 C1312 1.397 . S
C1313 C1314 1.334 . S
C1314 H1285 0.950 . S
C1314 C1313 1.334 . S
C1314 C1315 1.287 . S
C1315 C1314 1.287 . S
C1315 C1316 1.524 . S
C1315 H1318 0.999 . S
C1316 H1286 0.950 . S
C1316 C1315 1.524 . S
C1316 C1317 1.415 . S
C1317 H1287 0.950 . S
C1317 C1312 1.363 . S
C1317 C1316 1.415 . S
H1318 C1315 0.999 . S
H1319 C1300 0.913 . S
H1320 C1338 0.951 . S
H1321 C1340 0.951 . S
H1322 C1342 0.950 . S
H1323 C1343 0.950 . S
H1324 C1345 0.950 . S
H1325 C1348 0.950 . S
H1326 C1349 0.950 . S
H1327 C1351 0.950 . S
H1328 C1352 0.950 . S
H1329 C1353 0.951 . S
H1330 C1355 0.951 . S
H1331 C1357 0.950 . S
H1332 C1358 0.950 . S
H1333 C1360 0.950 . S
H1334 C1363 0.950 . S
H1335 C1364 0.950 . S
H1336 C1366 0.950 . S
H1337 C1367 0.950 . S
C1338 H1320 0.951 . S
C1338 C1339 1.366 . S
C1338 C1340 1.388 . S
C1339 C1338 1.366 . S
C1339 C1343 1.385 . S
C1340 H1321 0.951 . S
C1340 C1338 1.388 . S
C1340 C1341 1.366 . S
C1341 C1340 1.366 . S
C1341 C1342 1.414 . S
C1341 C1344 1.499 . S
C1342 H1322 0.950 . S
C1342 C1341 1.414 . S
C1342 C1343 1.374 . S
C1343 H1323 0.950 . S
C1343 C1339 1.385 . S
C1343 C1342 1.374 . S
C1344 C1341 1.499 . S
C1344 C1345 1.373 . S
C1344 C1346 1.389 . S
C1345 H1324 0.950 . S
C1345 C1344 1.373 . S
C1345 C1361 1.377 . S
C1346 C1344 1.389 . S
C1346 C1347 1.524 . S
C1346 C1360 1.377 . S
C1347 C1346 1.524 . S
C1347 C1348 1.397 . S
C1347 C1352 1.363 . S
C1348 H1325 0.950 . S
C1348 C1347 1.397 . S
C1348 C1349 1.334 . S
C1349 H1326 0.950 . S
C1349 C1348 1.334 . S
C1349 C1350 1.287 . S
C1350 C1349 1.287 . S
C1350 C1351 1.524 . S
C1350 H1369 0.913 . S
C1351 H1327 0.950 . S
C1351 C1350 1.524 . S
C1351 C1352 1.415 . S
C1352 H1328 0.950 . S
C1352 C1347 1.363 . S
C1352 C1351 1.415 . S
C1353 H1329 0.951 . S
C1353 C1354 1.366 . S
C1353 C1355 1.388 . S
C1354 C1353 1.366 . S
C1354 C1358 1.385 . S
C1355 H1330 0.951 . S
C1355 C1353 1.388 . S
C1355 C1356 1.366 . S
C1356 C1355 1.366 . S
C1356 C1357 1.414 . S
C1356 C1359 1.499 . S
C1357 H1331 0.950 . S
C1357 C1356 1.414 . S
C1357 C1358 1.374 . S
C1358 H1332 0.950 . S
C1358 C1354 1.385 . S
C1358 C1357 1.374 . S
C1359 C1356 1.499 . S
C1359 C1360 1.373 . S
C1359 C1361 1.389 . S
C1360 H1333 0.950 . S
C1360 C1346 1.377 . S
C1360 C1359 1.373 . S
C1361 C1345 1.377 . S
C1361 C1359 1.389 . S
C1361 C1362 1.524 . S
C1362 C1361 1.524 . S
C1362 C1363 1.397 . S
C1362 C1367 1.363 . S
C1363 H1334 0.950 . S
C1363 C1362 1.397 . S
C1363 C1364 1.334 . S
C1364 H1335 0.950 . S
C1364 C1363 1.334 . S
C1364 C1365 1.287 . S
C1365 C1364 1.287 . S
C1365 C1366 1.524 . S
C1365 H1368 0.999 . S
C1366 H1336 0.950 . S
C1366 C1365 1.524 . S
C1366 C1367 1.415 . S
C1367 H1337 0.950 . S
C1367 C1362 1.363 . S
C1367 C1366 1.415 . S
H1368 C1365 0.999 . S
H1369 C1350 0.913 . S
H1370 C1388 0.951 . S
H1371 C1390 0.951 . S
H1372 C1392 0.950 . S
H1373 C1393 0.950 . S
H1374 C1395 0.950 . S
H1375 C1398 0.950 . S
H1376 C1399 0.950 . S
H1377 C1401 0.950 . S
H1378 C1402 0.950 . S
H1379 C1403 0.951 . S
H1380 C1405 0.951 . S
H1381 C1407 0.950 . S
H1382 C1408 0.950 . S
H1383 C1410 0.950 . S
H1384 C1413 0.950 . S
H1385 C1414 0.950 . S
H1386 C1416 0.950 . S
H1387 C1417 0.950 . S
C1388 H1370 0.951 . S
C1388 C1389 1.366 . S
C1388 C1390 1.388 . S
C1389 C1388 1.366 . S
C1389 C1393 1.385 . S
C1390 H1371 0.951 . S
C1390 C1388 1.388 . S
C1390 C1391 1.366 . S
C1391 C1390 1.366 . S
C1391 C1392 1.414 . S
C1391 C1394 1.499 . S
C1392 H1372 0.950 . S
C1392 C1391 1.414 . S
C1392 C1393 1.374 . S
C1393 H1373 0.950 . S
C1393 C1389 1.385 . S
C1393 C1392 1.374 . S
C1394 C1391 1.499 . S
C1394 C1395 1.373 . S
C1394 C1396 1.389 . S
C1395 H1374 0.950 . S
C1395 C1394 1.373 . S
C1395 C1411 1.377 . S
C1396 C1394 1.389 . S
C1396 C1397 1.524 . S
C1396 C1410 1.377 . S
C1397 C1396 1.524 . S
C1397 C1398 1.397 . S
C1397 C1402 1.363 . S
C1398 H1375 0.950 . S
C1398 C1397 1.397 . S
C1398 C1399 1.334 . S
C1399 H1376 0.950 . S
C1399 C1398 1.334 . S
C1399 C1400 1.287 . S
C1400 C1399 1.287 . S
C1400 C1401 1.524 . S
C1400 H1419 0.913 . S
C1401 H1377 0.950 . S
C1401 C1400 1.524 . S
C1401 C1402 1.415 . S
C1402 H1378 0.950 . S
C1402 C1397 1.363 . S
C1402 C1401 1.415 . S
C1403 H1379 0.951 . S
C1403 C1404 1.366 . S
C1403 C1405 1.388 . S
C1404 C1403 1.366 . S
C1404 C1408 1.385 . S
C1405 H1380 0.951 . S
C1405 C1403 1.388 . S
C1405 C1406 1.366 . S
C1406 C1405 1.366 . S
C1406 C1407 1.414 . S
C1406 C1409 1.499 . S
C1407 H1381 0.950 . S
C1407 C1406 1.414 . S
C1407 C1408 1.374 . S
C1408 H1382 0.950 . S
C1408 C1404 1.385 . S
C1408 C1407 1.374 . S
C1409 C1406 1.499 . S
C1409 C1410 1.373 . S
C1409 C1411 1.389 . S
C1410 H1383 0.950 . S
C1410 C1396 1.377 . S
C1410 C1409 1.373 . S
C1411 C1395 1.377 . S
C1411 C1409 1.389 . S
C1411 C1412 1.524 . S
C1412 C1411 1.524 . S
C1412 C1413 1.397 . S
C1412 C1417 1.363 . S
C1413 H1384 0.950 . S
C1413 C1412 1.397 . S
C1413 C1414 1.334 . S
C1414 H1385 0.950 . S
C1414 C1413 1.334 . S
C1414 C1415 1.287 . S
C1415 C1414 1.287 . S
C1415 C1416 1.524 . S
C1415 H1418 0.999 . S
C1416 H1386 0.950 . S
C1416 C1415 1.524 . S
C1416 C1417 1.415 . S
C1417 H1387 0.950 . S
C1417 C1412 1.363 . S
C1417 C1416 1.415 . S
H1418 C1415 0.999 . S
H1419 C1400 0.913 . S
H1420 C1438 0.951 . S
H1421 C1440 0.951 . S
H1422 C1442 0.950 . S
H1423 C1443 0.950 . S
H1424 C1445 0.950 . S
H1425 C1448 0.950 . S
H1426 C1449 0.950 . S
H1427 C1451 0.950 . S
H1428 C1452 0.950 . S
H1429 C1453 0.951 . S
H1430 C1455 0.951 . S
H1431 C1457 0.950 . S
H1432 C1458 0.950 . S
H1433 C1460 0.950 . S
H1434 C1463 0.950 . S
H1435 C1464 0.950 . S
H1436 C1466 0.950 . S
H1437 C1467 0.950 . S
C1438 H1420 0.951 . S
C1438 C1439 1.366 . S
C1438 C1440 1.388 . S
C1439 C1438 1.366 . S
C1439 C1443 1.385 . S
C1440 H1421 0.951 . S
C1440 C1438 1.388 . S
C1440 C1441 1.366 . S
C1441 C1440 1.366 . S
C1441 C1442 1.414 . S
C1441 C1444 1.499 . S
C1442 H1422 0.950 . S
C1442 C1441 1.414 . S
C1442 C1443 1.374 . S
C1443 H1423 0.950 . S
C1443 C1439 1.385 . S
C1443 C1442 1.374 . S
C1444 C1441 1.499 . S
C1444 C1445 1.373 . S
C1444 C1446 1.389 . S
C1445 H1424 0.950 . S
C1445 C1444 1.373 . S
C1445 C1461 1.377 . S
C1446 C1444 1.389 . S
C1446 C1447 1.524 . S
C1446 C1460 1.377 . S
C1447 C1446 1.524 . S
C1447 C1448 1.397 . S
C1447 C1452 1.363 . S
C1448 H1425 0.950 . S
C1448 C1447 1.397 . S
C1448 C1449 1.334 . S
C1449 H1426 0.950 . S
C1449 C1448 1.334 . S
C1449 C1450 1.287 . S
C1450 C1449 1.287 . S
C1450 C1451 1.524 . S
C1450 H1469 0.913 . S
C1451 H1427 0.950 . S
C1451 C1450 1.524 . S
C1451 C1452 1.415 . S
C1452 H1428 0.950 . S
C1452 C1447 1.363 . S
C1452 C1451 1.415 . S
C1453 H1429 0.951 . S
C1453 C1454 1.366 . S
C1453 C1455 1.388 . S
C1454 C1453 1.366 . S
C1454 C1458 1.385 . S
C1455 H1430 0.951 . S
C1455 C1453 1.388 . S
C1455 C1456 1.366 . S
C1456 C1455 1.366 . S
C1456 C1457 1.414 . S
C1456 C1459 1.499 . S
C1457 H1431 0.950 . S
C1457 C1456 1.414 . S
C1457 C1458 1.374 . S
C1458 H1432 0.950 . S
C1458 C1454 1.385 . S
C1458 C1457 1.374 . S
C1459 C1456 1.499 . S
C1459 C1460 1.373 . S
C1459 C1461 1.389 . S
C1460 H1433 0.950 . S
C1460 C1446 1.377 . S
C1460 C1459 1.373 . S
C1461 C1445 1.377 . S
C1461 C1459 1.389 . S
C1461 C1462 1.524 . S
C1462 C1461 1.524 . S
C1462 C1463 1.397 . S
C1462 C1467 1.363 . S
C1463 H1434 0.950 . S
C1463 C1462 1.397 . S
C1463 C1464 1.334 . S
C1464 H1435 0.950 . S
C1464 C1463 1.334 . S
C1464 C1465 1.287 . S
C1465 C1464 1.287 . S
C1465 C1466 1.524 . S
C1465 H1468 0.999 . S
C1466 H1436 0.950 . S
C1466 C1465 1.524 . S
C1466 C1467 1.415 . S
C1467 H1437 0.950 . S
C1467 C1462 1.363 . S
C1467 C1466 1.415 . S
H1468 C1465 0.999 . S
H1469 C1450 0.913 . S
H1470 C1488 0.951 . S
H1471 C1490 0.951 . S
H1472 C1492 0.950 . S
H1473 C1493 0.950 . S
H1474 C1495 0.950 . S
H1475 C1498 0.950 . S
H1476 C1499 0.950 . S
H1477 C1501 0.950 . S
H1478 C1502 0.950 . S
H1479 C1503 0.951 . S
H1480 C1505 0.951 . S
H1481 C1507 0.950 . S
H1482 C1508 0.950 . S
H1483 C1510 0.950 . S
H1484 C1513 0.950 . S
H1485 C1514 0.950 . S
H1486 C1516 0.950 . S
H1487 C1517 0.950 . S
C1488 H1470 0.951 . S
C1488 C1489 1.366 . S
C1488 C1490 1.388 . S
C1489 C1488 1.366 . S
C1489 C1493 1.385 . S
C1490 H1471 0.951 . S
C1490 C1488 1.388 . S
C1490 C1491 1.366 . S
C1491 C1490 1.366 . S
C1491 C1492 1.414 . S
C1491 C1494 1.499 . S
C1492 H1472 0.950 . S
C1492 C1491 1.414 . S
C1492 C1493 1.374 . S
C1493 H1473 0.950 . S
C1493 C1489 1.385 . S
C1493 C1492 1.374 . S
C1494 C1491 1.499 . S
C1494 C1495 1.373 . S
C1494 C1496 1.389 . S
C1495 H1474 0.950 . S
C1495 C1494 1.373 . S
C1495 C1511 1.377 . S
C1496 C1494 1.389 . S
C1496 C1497 1.524 . S
C1496 C1510 1.377 . S
C1497 C1496 1.524 . S
C1497 C1498 1.397 . S
C1497 C1502 1.363 . S
C1498 H1475 0.950 . S
C1498 C1497 1.397 . S
C1498 C1499 1.334 . S
C1499 H1476 0.950 . S
C1499 C1498 1.334 . S
C1499 C1500 1.287 . S
C1500 C1499 1.287 . S
C1500 C1501 1.524 . S
C1500 H1519 0.913 . S
C1501 H1477 0.950 . S
C1501 C1500 1.524 . S
C1501 C1502 1.415 . S
C1502 H1478 0.950 . S
C1502 C1497 1.363 . S
C1502 C1501 1.415 . S
C1503 H1479 0.951 . S
C1503 C1504 1.366 . S
C1503 C1505 1.388 . S
C1504 C1503 1.366 . S
C1504 C1508 1.385 . S
C1505 H1480 0.951 . S
C1505 C1503 1.388 . S
C1505 C1506 1.366 . S
C1506 C1505 1.366 . S
C1506 C1507 1.414 . S
C1506 C1509 1.499 . S
C1507 H1481 0.950 . S
C1507 C1506 1.414 . S
C1507 C1508 1.374 . S
C1508 H1482 0.950 . S
C1508 C1504 1.385 . S
C1508 C1507 1.374 . S
C1509 C1506 1.499 . S
C1509 C1510 1.373 . S
C1509 C1511 1.389 . S
C1510 H1483 0.950 . S
C1510 C1496 1.377 . S
C1510 C1509 1.373 . S
C1511 C1495 1.377 . S
C1511 C1509 1.389 . S
C1511 C1512 1.524 . S
C1512 C1511 1.524 . S
C1512 C1513 1.397 . S
C1512 C1517 1.363 . S
C1513 H1484 0.950 . S
C1513 C1512 1.397 . S
C1513 C1514 1.334 . S
C1514 H1485 0.950 . S
C1514 C1513 1.334 . S
C1514 C1515 1.287 . S
C1515 C1514 1.287 . S
C1515 C1516 1.524 . S
C1515 H1518 0.999 . S
C1516 H1486 0.950 . S
C1516 C1515 1.524 . S
C1516 C1517 1.415 . S
C1517 H1487 0.950 . S
C1517 C1512 1.363 . S
C1517 C1516 1.415 . S
H1518 C1515 0.999 . S
H1519 C1500 0.913 . S
H1520 C1538 0.951 . S
H1521 C1540 0.951 . S
H1522 C1542 0.950 . S
H1523 C1543 0.950 . S
H1524 C1545 0.950 . S
H1525 C1548 0.950 . S
H1526 C1549 0.950 . S
H1527 C1551 0.950 . S
H1528 C1552 0.950 . S
H1529 C1553 0.951 . S
H1530 C1555 0.951 . S
H1531 C1557 0.950 . S
H1532 C1558 0.950 . S
H1533 C1560 0.950 . S
H1534 C1563 0.950 . S
H1535 C1564 0.950 . S
H1536 C1566 0.950 . S
H1537 C1567 0.950 . S
C1538 H1520 0.951 . S
C1538 C1539 1.366 . S
C1538 C1540 1.388 . S
C1539 C1538 1.366 . S
C1539 C1543 1.385 . S
C1540 H1521 0.951 . S
C1540 C1538 1.388 . S
C1540 C1541 1.366 . S
C1541 C1540 1.366 . S
C1541 C1542 1.414 . S
C1541 C1544 1.499 . S
C1542 H1522 0.950 . S
C1542 C1541 1.414 . S
C1542 C1543 1.374 . S
C1543 H1523 0.950 . S
C1543 C1539 1.385 . S
C1543 C1542 1.374 . S
C1544 C1541 1.499 . S
C1544 C1545 1.373 . S
C1544 C1546 1.389 . S
C1545 H1524 0.950 . S
C1545 C1544 1.373 . S
C1545 C1561 1.377 . S
C1546 C1544 1.389 . S
C1546 C1547 1.524 . S
C1546 C1560 1.377 . S
C1547 C1546 1.524 . S
C1547 C1548 1.397 . S
C1547 C1552 1.363 . S
C1548 H1525 0.950 . S
C1548 C1547 1.397 . S
C1548 C1549 1.334 . S
C1549 H1526 0.950 . S
C1549 C1548 1.334 . S
C1549 C1550 1.287 . S
C1550 C1549 1.287 . S
C1550 C1551 1.524 . S
C1550 H1569 0.913 . S
C1551 H1527 0.950 . S
C1551 C1550 1.524 . S
C1551 C1552 1.415 . S
C1552 H1528 0.950 . S
C1552 C1547 1.363 . S
C1552 C1551 1.415 . S
C1553 H1529 0.951 . S
C1553 C1554 1.366 . S
C1553 C1555 1.388 . S
C1554 C1553 1.366 . S
C1554 C1558 1.385 . S
C1555 H1530 0.951 . S
C1555 C1553 1.388 . S
C1555 C1556 1.366 . S
C1556 C1555 1.366 . S
C1556 C1557 1.414 . S
C1556 C1559 1.499 . S
C1557 H1531 0.950 . S
C1557 C1556 1.414 . S
C1557 C1558 1.374 . S
C1558 H1532 0.950 . S
C1558 C1554 1.385 . S
C1558 C1557 1.374 . S
C1559 C1556 1.499 . S
C1559 C1560 1.373 . S
C1559 C1561 1.389 . S
C1560 H1533 0.950 . S
C1560 C1546 1.377 . S
C1560 C1559 1.373 . S
C1561 C1545 1.377 . S
C1561 C1559 1.389 . S
C1561 C1562 1.524 . S
C1562 C1561 1.524 . S
C1562 C1563 1.397 . S
C1562 C1567 1.363 . S
C1563 H1534 0.950 . S
C1563 C1562 1.397 . S
C1563 C1564 1.334 . S
C1564 H1535 0.950 . S
C1564 C1563 1.334 . S
C1564 C1565 1.287 . S
C1565 C1564 1.287 . S
C1565 C1566 1.524 . S
C1565 H1568 0.999 . S
C1566 H1536 0.950 . S
C1566 C1565 1.524 . S
C1566 C1567 1.415 . S
C1567 H1537 0.950 . S
C1567 C1562 1.363 . S
C1567 C1566 1.415 . S
H1568 C1565 0.999 . S
H1569 C1550 0.913 . S
H1570 C1588 0.951 . S
H1571 C1590 0.951 . S
H1572 C1592 0.950 . S
H1573 C1593 0.950 . S
H1574 C1595 0.950 . S
H1575 C1598 0.950 . S
H1576 C1599 0.950 . S
H1577 C1601 0.950 . S
H1578 C1602 0.950 . S
H1579 C1603 0.951 . S
H1580 C1605 0.951 . S
H1581 C1607 0.950 . S
H1582 C1608 0.950 . S
H1583 C1610 0.950 . S
H1584 C1613 0.950 . S
H1585 C1614 0.950 . S
H1586 C1616 0.950 . S
H1587 C1617 0.950 . S
C1588 H1570 0.951 . S
C1588 C1589 1.366 . S
C1588 C1590 1.388 . S
C1589 C1588 1.366 . S
C1589 C1593 1.385 . S
C1590 H1571 0.951 . S
C1590 C1588 1.388 . S
C1590 C1591 1.366 . S
C1591 C1590 1.366 . S
C1591 C1592 1.414 . S
C1591 C1594 1.499 . S
C1592 H1572 0.950 . S
C1592 C1591 1.414 . S
C1592 C1593 1.374 . S
C1593 H1573 0.950 . S
C1593 C1589 1.385 . S
C1593 C1592 1.374 . S
C1594 C1591 1.499 . S
C1594 C1595 1.373 . S
C1594 C1596 1.389 . S
C1595 H1574 0.950 . S
C1595 C1594 1.373 . S
C1595 C1611 1.377 . S
C1596 C1594 1.389 . S
C1596 C1597 1.524 . S
C1596 C1610 1.377 . S
C1597 C1596 1.524 . S
C1597 C1598 1.397 . S
C1597 C1602 1.363 . S
C1598 H1575 0.950 . S
C1598 C1597 1.397 . S
C1598 C1599 1.334 . S
C1599 H1576 0.950 . S
C1599 C1598 1.334 . S
C1599 C1600 1.287 . S
C1600 C1599 1.287 . S
C1600 C1601 1.524 . S
C1600 H1619 0.913 . S
C1601 H1577 0.950 . S
C1601 C1600 1.524 . S
C1601 C1602 1.415 . S
C1602 H1578 0.950 . S
C1602 C1597 1.363 . S
C1602 C1601 1.415 . S
C1603 H1579 0.951 . S
C1603 C1604 1.366 . S
C1603 C1605 1.388 . S
C1604 C1603 1.366 . S
C1604 C1608 1.385 . S
C1605 H1580 0.951 . S
C1605 C1603 1.388 . S
C1605 C1606 1.366 . S
C1606 C1605 1.366 . S
C1606 C1607 1.414 . S
C1606 C1609 1.499 . S
C1607 H1581 0.950 . S
C1607 C1606 1.414 . S
C1607 C1608 1.374 . S
C1608 H1582 0.950 . S
C1608 C1604 1.385 . S
C1608 C1607 1.374 . S
C1609 C1606 1.499 . S
C1609 C1610 1.373 . S
C1609 C1611 1.389 . S
C1610 H1583 0.950 . S
C1610 C1596 1.377 . S
C1610 C1609 1.373 . S
C1611 C1595 1.377 . S
C1611 C1609 1.389 . S
C1611 C1612 1.524 . S
C1612 C1611 1.524 . S
C1612 C1613 1.397 . S
C1612 C1617 1.363 . S
C1613 H1584 0.950 . S
C1613 C1612 1.397 . S
C1613 C1614 1.334 . S
C1614 H1585 0.950 . S
C1614 C1613 1.334 . S
C1614 C1615 1.287 . S
C1615 C1614 1.287 . S
C1615 C1616 1.524 . S
C1615 H1618 0.999 . S
C1616 H1586 0.950 . S
C1616 C1615 1.524 . S
C1616 C1617 1.415 . S
C1617 H1587 0.950 . S
C1617 C1612 1.363 . S
C1617 C1616 1.415 . S
H1618 C1615 0.999 . S
H1619 C1600 0.913 . S
H1620 C1638 0.951 . S
H1621 C1640 0.951 . S
H1622 C1642 0.950 . S
H1623 C1643 0.950 . S
H1624 C1645 0.950 . S
H1625 C1648 0.950 . S
H1626 C1649 0.950 . S
H1627 C1651 0.950 . S
H1628 C1652 0.950 . S
H1629 C1653 0.951 . S
H1630 C1655 0.951 . S
H1631 C1657 0.950 . S
H1632 C1658 0.950 . S
H1633 C1660 0.950 . S
H1634 C1663 0.950 . S
H1635 C1664 0.950 . S
H1636 C1666 0.950 . S
H1637 C1667 0.950 . S
C1638 H1620 0.951 . S
C1638 C1639 1.366 . S
C1638 C1640 1.388 . S
C1639 C1638 1.366 . S
C1639 C1643 1.385 . S
C1640 H1621 0.951 . S
C1640 C1638 1.388 . S
C1640 C1641 1.366 . S
C1641 C1640 1.366 . S
C1641 C1642 1.414 . S
C1641 C1644 1.499 . S
C1642 H1622 0.950 . S
C1642 C1641 1.414 . S
C1642 C1643 1.374 . S
C1643 H1623 0.950 . S
C1643 C1639 1.385 . S
C1643 C1642 1.374 . S
C1644 C1641 1.499 . S
C1644 C1645 1.373 . S
C1644 C1646 1.389 . S
C1645 H1624 0.950 . S
C1645 C1644 1.373 . S
C1645 C1661 1.377 . S
C1646 C1644 1.389 . S
C1646 C1647 1.524 . S
C1646 C1660 1.377 . S
C1647 C1646 1.524 . S
C1647 C1648 1.397 . S
C1647 C1652 1.363 . S
C1648 H1625 0.950 . S
C1648 C1647 1.397 . S
C1648 C1649 1.334 . S
C1649 H1626 0.950 . S
C1649 C1648 1.334 . S
C1649 C1650 1.287 . S
C1650 C1649 1.287 . S
C1650 C1651 1.524 . S
C1650 H1669 0.913 . S
C1651 H1627 0.950 . S
C1651 C1650 1.524 . S
C1651 C1652 1.415 . S
C1652 H1628 0.950 . S
C1652 C1647 1.363 . S
C1652 C1651 1.415 . S
C1653 H1629 0.951 . S
C1653 C1654 1.366 . S
C1653 C1655 1.388 . S
C1654 C1653 1.366 . S
C1654 C1658 1.385 . S
C1655 H1630 0.951 . S
C1655 C1653 1.388 . S
C1655 C1656 1.366 . S
C1656 C1655 1.366 . S
C1656 C1657 1.414 . S
C1656 C1659 1.499 . S
C1657 H1631 0.950 . S
C1657 C1656 1.414 . S
C1657 C1658 1.374 . S
C1658 H1632 0.950 . S
C1658 C1654 1.385 . S
C1658 C1657 1.374 . S
C1659 C1656 1.499 . S
C1659 C1660 1.373 . S
C1659 C1661 1.389 . S
C1660 H1633 0.950 . S
C1660 C1646 1.377 . S
C1660 C1659 1.373 . S
C1661 C1645 1.377 . S
C1661 C1659 1.389 . S
C1661 C1662 1.524 . S
C1662 C1661 1.524 . S
C1662 C1663 1.397 . S
C1662 C1667 1.363 . S
C1663 H1634 0.950 . S
C1663 C1662 1.397 . S
C1663 C1664 1.334 . S
C1664 H1635 0.950 . S
C1664 C1663 1.334 . S
C1664 C1665 1.287 . S
C1665 C1664 1.287 . S
C1665 C1666 1.524 . S
C1665 H1668 0.999 . S
C1666 H1636 0.950 . S
C1666 C1665 1.524 . S
C1666 C1667 1.415 . S
C1667 H1637 0.950 . S
C1667 C1662 1.363 . S
C1667 C1666 1.415 . S
H1668 C1665 0.999 . S
H1669 C1650 0.913 . S
H1670 C1688 0.951 . S
H1671 C1690 0.951 . S
H1672 C1692 0.950 . S
H1673 C1693 0.950 . S
H1674 C1695 0.950 . S
H1675 C1698 0.950 1_565 S
H1676 C1699 0.950 . S
H1677 C1701 0.950 . S
H1678 C1702 0.950 . S
H1679 C1703 0.951 . S
H1680 C1705 0.951 . S
H1681 C1707 0.950 . S
H1682 C1708 0.950 . S
H1683 C1710 0.950 . S
H1684 C1713 0.950 . S
H1685 C1714 0.950 . S
H1686 C1716 0.950 . S
H1687 C1717 0.950 . S
C1688 H1670 0.951 . S
C1688 C1689 1.366 1_545 S
C1688 C1690 1.388 . S
C1689 C1688 1.366 1_565 S
C1689 C1693 1.385 . S
C1690 H1671 0.951 . S
C1690 C1688 1.388 . S
C1690 C1691 1.366 1_545 S
C1691 C1690 1.366 1_565 S
C1691 C1692 1.414 . S
C1691 C1694 1.499 . S
C1692 H1672 0.950 . S
C1692 C1691 1.414 . S
C1692 C1693 1.374 . S
C1693 H1673 0.950 . S
C1693 C1689 1.385 . S
C1693 C1692 1.374 . S
C1694 C1691 1.499 . S
C1694 C1695 1.373 . S
C1694 C1696 1.389 . S
C1695 H1674 0.950 . S
C1695 C1694 1.373 . S
C1695 C1711 1.377 . S
C1696 C1694 1.389 . S
C1696 C1697 1.524 1_565 S
C1696 C1710 1.377 . S
C1697 C1696 1.524 1_545 S
C1697 C1698 1.397 . S
C1697 C1702 1.363 . S
C1698 H1675 0.950 1_545 S
C1698 C1697 1.397 . S
C1698 C1699 1.334 . S
C1699 H1676 0.950 . S
C1699 C1698 1.334 . S
C1699 C1700 1.287 . S
C1700 C1699 1.287 . S
C1700 C1701 1.524 . S
C1700 H1719 0.913 . S
C1701 H1677 0.950 . S
C1701 C1700 1.524 . S
C1701 C1702 1.415 . S
C1702 H1678 0.950 . S
C1702 C1697 1.363 . S
C1702 C1701 1.415 . S
C1703 H1679 0.951 . S
C1703 C1704 1.366 . S
C1703 C1705 1.388 . S
C1704 C1703 1.366 . S
C1704 C1708 1.385 . S
C1705 H1680 0.951 . S
C1705 C1703 1.388 . S
C1705 C1706 1.366 . S
C1706 C1705 1.366 . S
C1706 C1707 1.414 . S
C1706 C1709 1.499 . S
C1707 H1681 0.950 . S
C1707 C1706 1.414 . S
C1707 C1708 1.374 . S
C1708 H1682 0.950 . S
C1708 C1704 1.385 . S
C1708 C1707 1.374 . S
C1709 C1706 1.499 . S
C1709 C1710 1.373 . S
C1709 C1711 1.389 . S
C1710 H1683 0.950 . S
C1710 C1696 1.377 . S
C1710 C1709 1.373 . S
C1711 C1695 1.377 . S
C1711 C1709 1.389 . S
C1711 C1712 1.524 . S
C1712 C1711 1.524 . S
C1712 C1713 1.397 . S
C1712 C1717 1.363 . S
C1713 H1684 0.950 . S
C1713 C1712 1.397 . S
C1713 C1714 1.334 . S
C1714 H1685 0.950 . S
C1714 C1713 1.334 . S
C1714 C1715 1.287 . S
C1715 C1714 1.287 . S
C1715 C1716 1.524 . S
C1715 H1718 0.999 . S
C1716 H1686 0.950 . S
C1716 C1715 1.524 . S
C1716 C1717 1.415 . S
C1717 H1687 0.950 . S
C1717 C1712 1.363 . S
C1717 C1716 1.415 . S
H1718 C1715 0.999 . S
H1719 C1700 0.913 . S
H1720 C1738 0.951 . S
H1721 C1740 0.951 . S
H1722 C1742 0.950 . S
H1723 C1743 0.950 . S
H1724 C1745 0.950 . S
H1725 C1748 0.950 . S
H1726 C1749 0.950 . S
H1727 C1751 0.950 . S
H1728 C1752 0.950 . S
H1729 C1753 0.951 . S
H1730 C1755 0.951 . S
H1731 C1757 0.950 . S
H1732 C1758 0.950 . S
H1733 C1760 0.950 . S
H1734 C1763 0.950 . S
H1735 C1764 0.950 . S
H1736 C1766 0.950 . S
H1737 C1767 0.950 . S
C1738 H1720 0.951 . S
C1738 C1739 1.366 . S
C1738 C1740 1.388 . S
C1739 C1738 1.366 . S
C1739 C1743 1.385 . S
C1740 H1721 0.951 . S
C1740 C1738 1.388 . S
C1740 C1741 1.366 . S
C1741 C1740 1.366 . S
C1741 C1742 1.414 . S
C1741 C1744 1.499 . S
C1742 H1722 0.950 . S
C1742 C1741 1.414 . S
C1742 C1743 1.374 . S
C1743 H1723 0.950 . S
C1743 C1739 1.385 . S
C1743 C1742 1.374 . S
C1744 C1741 1.499 . S
C1744 C1745 1.373 . S
C1744 C1746 1.389 . S
C1745 H1724 0.950 . S
C1745 C1744 1.373 . S
C1745 C1761 1.377 . S
C1746 C1744 1.389 . S
C1746 C1747 1.524 . S
C1746 C1760 1.377 . S
C1747 C1746 1.524 . S
C1747 C1748 1.397 . S
C1747 C1752 1.363 . S
C1748 H1725 0.950 . S
C1748 C1747 1.397 . S
C1748 C1749 1.334 . S
C1749 H1726 0.950 . S
C1749 C1748 1.334 . S
C1749 C1750 1.287 . S
C1750 C1749 1.287 . S
C1750 C1751 1.524 . S
C1750 H1769 0.913 . S
C1751 H1727 0.950 . S
C1751 C1750 1.524 . S
C1751 C1752 1.415 . S
C1752 H1728 0.950 . S
C1752 C1747 1.363 . S
C1752 C1751 1.415 . S
C1753 H1729 0.951 . S
C1753 C1754 1.366 . S
C1753 C1755 1.388 . S
C1754 C1753 1.366 . S
C1754 C1758 1.385 . S
C1755 H1730 0.951 . S
C1755 C1753 1.388 . S
C1755 C1756 1.366 . S
C1756 C1755 1.366 . S
C1756 C1757 1.414 . S
C1756 C1759 1.499 . S
C1757 H1731 0.950 . S
C1757 C1756 1.414 . S
C1757 C1758 1.374 . S
C1758 H1732 0.950 . S
C1758 C1754 1.385 . S
C1758 C1757 1.374 . S
C1759 C1756 1.499 . S
C1759 C1760 1.373 . S
C1759 C1761 1.389 . S
C1760 H1733 0.950 . S
C1760 C1746 1.377 . S
C1760 C1759 1.373 . S
C1761 C1745 1.377 . S
C1761 C1759 1.389 . S
C1761 C1762 1.524 . S
C1762 C1761 1.524 . S
C1762 C1763 1.397 . S
C1762 C1767 1.363 . S
C1763 H1734 0.950 . S
C1763 C1762 1.397 . S
C1763 C1764 1.334 . S
C1764 H1735 0.950 . S
C1764 C1763 1.334 . S
C1764 C1765 1.287 . S
C1765 C1764 1.287 . S
C1765 C1766 1.524 . S
C1765 H1768 0.999 . S
C1766 H1736 0.950 . S
C1766 C1765 1.524 . S
C1766 C1767 1.415 . S
C1767 H1737 0.950 . S
C1767 C1762 1.363 . S
C1767 C1766 1.415 . S
H1768 C1765 0.999 . S
H1769 C1750 0.913 . S
H1770 C1788 0.951 1_565 S
H1771 C1790 0.975 . S
H1772 C1792 0.950 . S
H1773 C1793 0.950 . S
H1774 C1795 0.950 . S
H1775 C1798 0.950 . S
H1776 C1799 0.950 . S
H1777 C1801 0.950 . S
H1778 C1802 0.950 . S
H1779 C1803 0.951 . S
H1780 C1805 0.951 . S
H1781 C1807 0.950 . S
H1782 C1808 0.950 . S
H1783 C1810 0.950 . S
H1784 C1813 0.950 . S
H1785 C1814 0.950 . S
H1786 C1816 0.950 . S
H1787 C1817 0.950 . S
C1788 H1770 0.951 1_545 S
C1788 C1789 1.366 . S
C1788 C1790 1.388 . S
C1789 C1788 1.366 . S
C1789 C1793 1.385 . S
C1790 H1771 0.975 . S
C1790 C1788 1.388 . S
C1790 C1791 1.366 . S
C1791 C1790 1.366 . S
C1791 C1792 1.414 . S
C1791 C1794 1.499 . S
C1792 H1772 0.950 . S
C1792 C1791 1.414 . S
C1792 C1793 1.374 . S
C1793 H1773 0.950 . S
C1793 C1789 1.385 . S
C1793 C1792 1.374 . S
C1794 C1791 1.499 . S
C1794 C1795 1.373 . S
C1794 C1796 1.389 . S
C1795 H1774 0.950 . S
C1795 C1794 1.373 . S
C1795 C1811 1.377 . S
C1796 C1794 1.389 . S
C1796 C1797 1.524 . S
C1796 C1810 1.377 . S
C1797 C1796 1.524 . S
C1797 C1798 1.397 . S
C1797 C1802 1.363 1_545 S
C1798 H1775 0.950 . S
C1798 C1797 1.397 . S
C1798 C1799 1.334 1_545 S
C1799 H1776 0.950 . S
C1799 C1798 1.334 1_565 S
C1799 C1800 1.287 . S
C1800 C1799 1.287 . S
C1800 C1801 1.524 . S
C1800 H1819 0.913 . S
C1801 H1777 0.950 . S
C1801 C1800 1.524 . S
C1801 C1802 1.415 . S
C1802 H1778 0.950 . S
C1802 C1797 1.363 1_565 S
C1802 C1801 1.415 . S
C1803 H1779 0.951 . S
C1803 C1804 1.366 . S
C1803 C1805 1.388 . S
C1804 C1803 1.366 . S
C1804 C1808 1.385 . S
C1805 H1780 0.951 . S
C1805 C1803 1.388 . S
C1805 C1806 1.366 . S
C1806 C1805 1.366 . S
C1806 C1807 1.414 . S
C1806 C1809 1.499 . S
C1807 H1781 0.950 . S
C1807 C1806 1.414 . S
C1807 C1808 1.374 . S
C1808 H1782 0.950 . S
C1808 C1804 1.385 . S
C1808 C1807 1.374 . S
C1809 C1806 1.499 . S
C1809 C1810 1.373 . S
C1809 C1811 1.389 . S
C1810 H1783 0.950 . S
C1810 C1796 1.377 . S
C1810 C1809 1.373 . S
C1811 C1795 1.377 . S
C1811 C1809 1.389 . S
C1811 C1812 1.524 . S
C1812 C1811 1.524 . S
C1812 C1813 1.397 . S
C1812 C1817 1.363 . S
C1813 H1784 0.950 . S
C1813 C1812 1.397 . S
C1813 C1814 1.334 . S
C1814 H1785 0.950 . S
C1814 C1813 1.334 . S
C1814 C1815 1.287 . S
C1815 C1814 1.287 . S
C1815 C1816 1.524 . S
C1815 H1818 0.999 . S
C1816 H1786 0.950 . S
C1816 C1815 1.524 . S
C1816 C1817 1.415 . S
C1817 H1787 0.950 . S
C1817 C1812 1.363 . S
C1817 C1816 1.415 . S
H1818 C1815 0.999 . S
H1819 C1800 0.913 . S
H1820 C1838 0.951 . S
H1821 C1840 0.951 . S
H1822 C1842 0.950 . S
H1823 C1843 0.950 . S
H1824 C1845 0.950 . S
H1825 C1848 0.950 . S
H1826 C1849 0.950 . S
H1827 C1851 0.950 . S
H1828 C1852 0.950 . S
H1829 C1853 0.951 . S
H1830 C1855 0.951 . S
H1831 C1857 0.950 . S
H1832 C1858 0.950 . S
H1833 C1860 0.950 . S
H1834 C1863 0.950 . S
H1835 C1864 0.950 . S
H1836 C1866 0.950 . S
H1837 C1867 0.950 . S
C1838 H1820 0.951 . S
C1838 C1839 1.366 . S
C1838 C1840 1.388 . S
C1839 C1838 1.366 . S
C1839 C1843 1.385 . S
C1840 H1821 0.951 . S
C1840 C1838 1.388 . S
C1840 C1841 1.366 . S
C1841 C1840 1.366 . S
C1841 C1842 1.414 . S
C1841 C1844 1.499 . S
C1842 H1822 0.950 . S
C1842 C1841 1.414 . S
C1842 C1843 1.374 . S
C1843 H1823 0.950 . S
C1843 C1839 1.385 . S
C1843 C1842 1.374 . S
C1844 C1841 1.499 . S
C1844 C1845 1.373 . S
C1844 C1846 1.389 . S
C1845 H1824 0.950 . S
C1845 C1844 1.373 . S
C1845 C1861 1.377 . S
C1846 C1844 1.389 . S
C1846 C1847 1.524 . S
C1846 C1860 1.377 . S
C1847 C1846 1.524 . S
C1847 C1848 1.397 . S
C1847 C1852 1.363 . S
C1848 H1825 0.950 . S
C1848 C1847 1.397 . S
C1848 C1849 1.334 . S
C1849 H1826 0.950 . S
C1849 C1848 1.334 . S
C1849 C1850 1.287 . S
C1850 C1849 1.287 . S
C1850 C1851 1.524 . S
C1850 H1869 0.913 . S
C1851 H1827 0.950 . S
C1851 C1850 1.524 . S
C1851 C1852 1.415 . S
C1852 H1828 0.950 . S
C1852 C1847 1.363 . S
C1852 C1851 1.415 . S
C1853 H1829 0.951 . S
C1853 C1854 1.366 . S
C1853 C1855 1.388 . S
C1854 C1853 1.366 . S
C1854 C1858 1.385 . S
C1855 H1830 0.951 . S
C1855 C1853 1.388 . S
C1855 C1856 1.366 . S
C1856 C1855 1.366 . S
C1856 C1857 1.414 . S
C1856 C1859 1.499 . S
C1857 H1831 0.950 . S
C1857 C1856 1.414 . S
C1857 C1858 1.374 . S
C1858 H1832 0.950 . S
C1858 C1854 1.385 . S
C1858 C1857 1.374 . S
C1859 C1856 1.499 . S
C1859 C1860 1.373 . S
C1859 C1861 1.389 . S
C1860 H1833 0.950 . S
C1860 C1846 1.377 . S
C1860 C1859 1.373 . S
C1861 C1845 1.377 . S
C1861 C1859 1.389 . S
C1861 C1862 1.524 . S
C1862 C1861 1.524 . S
C1862 C1863 1.397 . S
C1862 C1867 1.363 . S
C1863 H1834 0.950 . S
C1863 C1862 1.397 . S
C1863 C1864 1.334 . S
C1864 H1835 0.950 . S
C1864 C1863 1.334 . S
C1864 C1865 1.287 . S
C1865 C1864 1.287 . S
C1865 C1866 1.524 . S
C1865 H1868 0.999 . S
C1866 H1836 0.950 . S
C1866 C1865 1.524 . S
C1866 C1867 1.415 . S
C1867 H1837 0.950 . S
C1867 C1862 1.363 . S
C1867 C1866 1.415 . S
H1868 C1865 0.999 . S
H1869 C1850 0.913 . S
H1870 C1888 0.951 . S
H1871 C1890 0.951 . S
H1872 C1892 0.950 . S
H1873 C1893 0.950 . S
H1874 C1895 0.950 . S
H1875 C1898 0.950 . S
H1876 C1899 0.950 . S
H1877 C1901 0.950 . S
H1878 C1902 0.950 . S
H1879 C1903 0.951 . S
H1880 C1905 0.951 . S
H1881 C1907 0.950 . S
H1882 C1908 0.950 . S
H1883 C1910 0.950 . S
H1884 C1913 0.950 . S
H1885 C1914 0.950 . S
H1886 C1916 0.950 . S
H1887 C1917 0.950 . S
C1888 H1870 0.951 . S
C1888 C1889 1.366 . S
C1888 C1890 1.388 . S
C1889 C1888 1.366 . S
C1889 C1893 1.385 . S
C1890 H1871 0.951 . S
C1890 C1888 1.388 . S
C1890 C1891 1.366 . S
C1891 C1890 1.366 . S
C1891 C1892 1.414 . S
C1891 C1894 1.499 . S
C1892 H1872 0.950 . S
C1892 C1891 1.414 . S
C1892 C1893 1.374 . S
C1893 H1873 0.950 . S
C1893 C1889 1.385 . S
C1893 C1892 1.374 . S
C1894 C1891 1.499 . S
C1894 C1895 1.373 . S
C1894 C1896 1.389 . S
C1895 H1874 0.950 . S
C1895 C1894 1.373 . S
C1895 C1911 1.377 . S
C1896 C1894 1.389 . S
C1896 C1897 1.524 1_556 S
C1896 C1910 1.377 . S
C1897 C1896 1.524 1_554 S
C1897 C1898 1.397 . S
C1897 C1902 1.363 . S
C1898 H1875 0.950 . S
C1898 C1897 1.397 . S
C1898 C1899 1.334 . S
C1899 H1876 0.950 . S
C1899 C1898 1.334 . S
C1899 C1900 1.287 . S
C1900 C1899 1.287 . S
C1900 C1901 1.524 . S
C1900 H1919 0.913 . S
C1901 H1877 0.950 . S
C1901 C1900 1.524 . S
C1901 C1902 1.415 . S
C1902 H1878 0.950 . S
C1902 C1897 1.363 . S
C1902 C1901 1.415 . S
C1903 H1879 0.951 . S
C1903 C1904 1.366 . S
C1903 C1905 1.388 . S
C1904 C1903 1.366 . S
C1904 C1908 1.385 . S
C1905 H1880 0.951 . S
C1905 C1903 1.388 . S
C1905 C1906 1.366 . S
C1906 C1905 1.366 . S
C1906 C1907 1.414 . S
C1906 C1909 1.499 . S
C1907 H1881 0.950 . S
C1907 C1906 1.414 . S
C1907 C1908 1.374 . S
C1908 H1882 0.950 . S
C1908 C1904 1.385 . S
C1908 C1907 1.374 . S
C1909 C1906 1.499 . S
C1909 C1910 1.373 . S
C1909 C1911 1.389 . S
C1910 H1883 0.950 . S
C1910 C1896 1.377 . S
C1910 C1909 1.373 . S
C1911 C1895 1.377 . S
C1911 C1909 1.389 . S
C1911 C1912 1.524 . S
C1912 C1911 1.524 . S
C1912 C1913 1.397 . S
C1912 C1917 1.363 . S
C1913 H1884 0.950 . S
C1913 C1912 1.397 . S
C1913 C1914 1.334 . S
C1914 H1885 0.950 . S
C1914 C1913 1.334 . S
C1914 C1915 1.287 . S
C1915 C1914 1.287 . S
C1915 C1916 1.524 . S
C1915 H1918 0.999 . S
C1916 H1886 0.950 . S
C1916 C1915 1.524 . S
C1916 C1917 1.415 . S
C1917 H1887 0.950 . S
C1917 C1912 1.363 . S
C1917 C1916 1.415 . S
H1918 C1915 0.999 . S
H1919 C1900 0.913 . S
H1920 C1938 0.951 . S
H1921 C1940 0.951 . S
H1922 C1942 0.950 . S
H1923 C1943 0.950 . S
H1924 C1945 0.950 . S
H1925 C1948 0.950 . S
H1926 C1949 0.950 . S
H1927 C1951 0.950 . S
H1928 C1952 0.950 . S
H1929 C1953 0.936 1_554 S
H1930 C1955 0.951 . S
H1931 C1957 0.950 . S
H1932 C1958 0.950 . S
H1933 C1960 0.950 . S
H1934 C1963 0.950 . S
H1935 C1964 0.950 . S
H1936 C1966 0.950 . S
H1937 C1967 0.950 . S
C1938 H1920 0.951 . S
C1938 C1939 1.366 1_556 S
C1938 C1940 1.388 . S
C1939 C1938 1.366 1_554 S
C1939 C1943 1.385 . S
C1940 H1921 0.951 . S
C1940 C1938 1.388 . S
C1940 C1941 1.347 1_556 S
C1941 C1940 1.347 1_554 S
C1941 C1942 1.438 . S
C1941 C1944 1.495 1_554 S
C1942 H1922 0.950 . S
C1942 C1941 1.438 . S
C1942 C1943 1.374 . S
C1943 H1923 0.950 . S
C1943 C1939 1.385 . S
C1943 C1942 1.374 . S
C1944 C1941 1.495 1_556 S
C1944 C1945 1.373 1_556 S
C1944 C1946 1.389 . S
C1945 H1924 0.950 . S
C1945 C1944 1.373 1_554 S
C1945 C1961 1.377 . S
C1946 C1944 1.389 . S
C1946 C1947 1.524 . S
C1946 C1960 1.377 . S
C1947 C1946 1.524 . S
C1947 C1948 1.397 . S
C1947 C1952 1.363 . S
C1948 H1925 0.950 . S
C1948 C1947 1.397 . S
C1948 C1949 1.334 . S
C1949 H1926 0.950 . S
C1949 C1948 1.334 . S
C1949 C1950 1.287 . S
C1950 C1949 1.287 . S
C1950 C1951 1.524 . S
C1950 H1969 0.913 . S
C1951 H1927 0.950 . S
C1951 C1950 1.524 . S
C1951 C1952 1.415 . S
C1952 H1928 0.950 . S
C1952 C1947 1.363 . S
C1952 C1951 1.415 . S
C1953 H1929 0.936 1_556 S
C1953 C1954 1.384 . S
C1953 C1955 1.384 1_556 S
C1954 C1953 1.384 . S
C1954 C1958 1.385 . S
C1955 H1930 0.951 . S
C1955 C1953 1.384 1_554 S
C1955 C1956 1.366 1_554 S
C1956 C1955 1.366 1_556 S
C1956 C1957 1.414 . S
C1956 C1959 1.499 . S
C1957 H1931 0.950 . S
C1957 C1956 1.414 . S
C1957 C1958 1.374 . S
C1958 H1932 0.950 . S
C1958 C1954 1.385 . S
C1958 C1957 1.374 . S
C1959 C1956 1.499 . S
C1959 C1960 1.373 . S
C1959 C1961 1.389 1_556 S
C1960 H1933 0.950 . S
C1960 C1946 1.377 . S
C1960 C1959 1.373 . S
C1961 C1945 1.377 . S
C1961 C1959 1.389 1_554 S
C1961 C1962 1.524 . S
C1962 C1961 1.524 . S
C1962 C1963 1.397 . S
C1962 C1967 1.363 . S
C1963 H1934 0.950 . S
C1963 C1962 1.397 . S
C1963 C1964 1.334 . S
C1964 H1935 0.950 . S
C1964 C1963 1.334 . S
C1964 C1965 1.287 . S
C1965 C1964 1.287 . S
C1965 C1966 1.524 . S
C1965 H1968 0.999 . S
C1966 H1936 0.950 . S
C1966 C1965 1.524 . S
C1966 C1967 1.415 . S
C1967 H1937 0.950 . S
C1967 C1962 1.363 . S
C1967 C1966 1.415 . S
H1968 C1965 0.999 . S
H1969 C1950 0.913 . S
H1970 C1988 0.951 . S
H1971 C1990 0.951 . S
H1972 C1992 0.950 . S
H1973 C1993 0.950 . S
H1974 C1995 0.950 1_556 S
H1975 C1998 0.950 . S
H1976 C1999 0.950 . S
H1977 C2001 0.950 . S
H1978 C2002 0.950 . S
H1979 C2003 0.951 . S
H1980 C2005 0.951 . S
H1981 C2007 0.950 . S
H1982 C2008 0.950 . S
H1983 C2010 0.950 . S
H1984 C2013 0.950 . S
H1985 C2014 0.950 . S
H1986 C2016 0.950 . S
H1987 C2017 0.950 . S
C1988 H1970 0.951 . S
C1988 C1989 1.366 . S
C1988 C1990 1.388 . S
C1989 C1988 1.366 . S
C1989 C1993 1.385 . S
C1990 H1971 0.951 . S
C1990 C1988 1.388 . S
C1990 C1991 1.366 . S
C1991 C1990 1.366 . S
C1991 C1992 1.414 . S
C1991 C1994 1.499 . S
C1992 H1972 0.950 . S
C1992 C1991 1.414 . S
C1992 C1993 1.374 . S
C1993 H1973 0.950 . S
C1993 C1989 1.385 . S
C1993 C1992 1.374 . S
C1994 C1991 1.499 . S
C1994 C1995 1.373 . S
C1994 C1996 1.389 . S
C1995 H1974 0.950 1_554 S
C1995 C1994 1.373 . S
C1995 C2011 1.377 . S
C1996 C1994 1.389 . S
C1996 C1997 1.524 . S
C1996 C2010 1.377 . S
C1997 C1996 1.524 . S
C1997 C1998 1.397 . S
C1997 C2002 1.363 . S
C1998 H1975 0.950 . S
C1998 C1997 1.397 . S
C1998 C1999 1.334 . S
C1999 H1976 0.950 . S
C1999 C1998 1.334 . S
C1999 C2000 1.287 . S
C2000 C1999 1.287 . S
C2000 C2001 1.524 . S
C2000 H2019 0.913 . S
C2001 H1977 0.950 . S
C2001 C2000 1.524 . S
C2001 C2002 1.415 . S
C2002 H1978 0.950 . S
C2002 C1997 1.363 . S
C2002 C2001 1.415 . S
C2003 H1979 0.951 . S
C2003 C2004 1.366 . S
C2003 C2005 1.388 1_455 S
C2004 C2003 1.366 . S
C2004 C2008 1.385 1_455 S
C2005 H1980 0.951 . S
C2005 C2003 1.388 1_655 S
C2005 C2006 1.366 . S
C2006 C2005 1.366 . S
C2006 C2007 1.414 . S
C2006 C2009 1.499 . S
C2007 H1981 0.950 . S
C2007 C2006 1.414 . S
C2007 C2008 1.374 . S
C2008 H1982 0.950 . S
C2008 C2004 1.385 1_655 S
C2008 C2007 1.374 . S
C2009 C2006 1.499 . S
C2009 C2010 1.373 . S
C2009 C2011 1.389 . S
C2010 H1983 0.950 . S
C2010 C1996 1.377 . S
C2010 C2009 1.373 . S
C2011 C1995 1.377 . S
C2011 C2009 1.389 . S
C2011 C2012 1.524 1_554 S
C2012 C2011 1.524 1_556 S
C2012 C2013 1.397 . S
C2012 C2017 1.363 . S
C2013 H1984 0.950 . S
C2013 C2012 1.397 . S
C2013 C2014 1.334 . S
C2014 H1985 0.950 . S
C2014 C2013 1.334 . S
C2014 C2015 1.287 . S
C2015 C2014 1.287 . S
C2015 C2016 1.524 . S
C2015 H2018 0.999 . S
C2016 H1986 0.950 . S
C2016 C2015 1.524 . S
C2016 C2017 1.415 . S
C2017 H1987 0.950 . S
C2017 C2012 1.363 . S
C2017 C2016 1.415 . S
H2018 C2015 0.999 . S
H2019 C2000 0.913 . S
H2020 C2038 0.951 1_655 S
H2021 C2040 0.951 1_655 S
H2022 C2042 0.950 . S
H2023 C2043 0.950 . S
H2024 C2045 0.950 . S
H2025 C2048 0.950 . S
H2026 C2049 0.950 . S
H2027 C2051 0.950 . S
H2028 C2052 0.950 . S
H2029 C2053 0.951 . S
H2030 C2055 0.951 . S
H2031 C2057 0.950 . S
H2032 C2058 0.950 . S
H2033 C2060 0.950 . S
H2034 C2063 0.950 . S
H2035 C2064 0.950 . S
H2036 C2066 0.950 . S
H2037 C2067 0.950 . S
C2038 H2020 0.951 1_455 S
C2038 C2039 1.366 . S
C2038 C2040 1.388 . S
C2039 C2038 1.366 . S
C2039 C2043 1.385 . S
C2040 H2021 0.951 1_455 S
C2040 C2038 1.388 . S
C2040 C2041 1.366 . S
C2041 C2040 1.366 . S
C2041 C2042 1.414 . S
C2041 C2044 1.499 . S
C2042 H2022 0.950 . S
C2042 C2041 1.414 . S
C2042 C2043 1.374 . S
C2043 H2023 0.950 . S
C2043 C2039 1.385 . S
C2043 C2042 1.374 . S
C2044 C2041 1.499 . S
C2044 C2045 1.373 . S
C2044 C2046 1.389 . S
C2045 H2024 0.950 . S
C2045 C2044 1.373 . S
C2045 C2061 1.377 . S
C2046 C2044 1.389 . S
C2046 C2047 1.524 . S
C2046 C2060 1.377 . S
C2047 C2046 1.524 . S
C2047 C2048 1.397 . S
C2047 C2052 1.363 1_455 S
C2048 H2025 0.950 . S
C2048 C2047 1.397 . S
C2048 C2049 1.334 1_455 S
C2049 H2026 0.950 . S
C2049 C2048 1.334 1_655 S
C2049 C2050 1.287 . S
C2050 C2049 1.287 . S
C2050 C2051 1.524 . S
C2050 H2069 0.913 . S
C2051 H2027 0.950 . S
C2051 C2050 1.524 . S
C2051 C2052 1.415 . S
C2052 H2028 0.950 . S
C2052 C2047 1.363 1_655 S
C2052 C2051 1.415 . S
C2053 H2029 0.951 . S
C2053 C2054 1.366 . S
C2053 C2055 1.388 . S
C2054 C2053 1.366 . S
C2054 C2058 1.385 . S
C2055 H2030 0.951 . S
C2055 C2053 1.388 . S
C2055 C2056 1.366 . S
C2056 C2055 1.366 . S
C2056 C2057 1.414 . S
C2056 C2059 1.499 . S
C2057 H2031 0.950 . S
C2057 C2056 1.414 . S
C2057 C2058 1.374 . S
C2058 H2032 0.950 . S
C2058 C2054 1.385 . S
C2058 C2057 1.374 . S
C2059 C2056 1.499 . S
C2059 C2060 1.373 . S
C2059 C2061 1.389 . S
C2060 H2033 0.950 . S
C2060 C2046 1.377 . S
C2060 C2059 1.373 . S
C2061 C2045 1.377 . S
C2061 C2059 1.389 . S
C2061 C2062 1.524 . S
C2062 C2061 1.524 . S
C2062 C2063 1.397 . S
C2062 C2067 1.363 . S
C2063 H2034 0.950 . S
C2063 C2062 1.397 . S
C2063 C2064 1.334 . S
C2064 H2035 0.950 . S
C2064 C2063 1.334 . S
C2064 C2065 1.287 . S
C2065 C2064 1.287 . S
C2065 C2066 1.524 . S
C2065 H2068 0.999 . S
C2066 H2036 0.950 . S
C2066 C2065 1.524 . S
C2066 C2067 1.415 . S
C2067 H2037 0.950 . S
C2067 C2062 1.363 . S
C2067 C2066 1.415 . S
H2068 C2065 0.999 . S
H2069 C2050 0.913 . S
H2070 C2088 0.951 . S
H2071 C2090 0.965 . S
H2072 C2092 0.950 . S
H2073 C2093 0.950 . S
H2074 C2095 0.950 . S
H2075 C2098 0.950 . S
H2076 C2099 0.950 . S
H2077 C2101 0.950 . S
H2078 C2102 0.950 . S
H2079 C2103 0.951 . S
H2080 C2105 0.951 . S
H2081 C2107 0.950 1_455 S
H2082 C2108 0.950 1_455 S
H2083 C2110 0.950 . S
H2084 C2113 0.983 . S
H2085 C2114 0.950 . S
H2086 C2116 0.950 . S
H2087 C2117 0.950 . S
C2088 H2070 0.951 . S
C2088 C2089 1.366 1_455 S
C2088 C2090 1.389 . S
C2089 C2088 1.366 1_655 S
C2089 C2093 1.385 . S
C2090 H2071 0.965 . S
C2090 C2088 1.389 . S
C2090 C2091 1.351 1_455 S
C2091 C2090 1.351 1_655 S
C2091 C2092 1.414 . S
C2091 C2094 1.499 . S
C2092 H2072 0.950 . S
C2092 C2091 1.414 . S
C2092 C2093 1.374 . S
C2093 H2073 0.950 . S
C2093 C2089 1.385 . S
C2093 C2092 1.374 . S
C2094 C2091 1.499 . S
C2094 C2095 1.373 . S
C2094 C2096 1.389 . S
C2095 H2074 0.950 . S
C2095 C2094 1.373 . S
C2095 C2111 1.377 . S
C2096 C2094 1.389 . S
C2096 C2097 1.524 . S
C2096 C2110 1.377 . S
C2097 C2096 1.524 . S
C2097 C2098 1.397 . S
C2097 C2102 1.363 1_655 S
C2098 H2075 0.950 . S
C2098 C2097 1.397 . S
C2098 C2099 1.334 . S
C2099 H2076 0.950 . S
C2099 C2098 1.334 . S
C2099 C2100 1.287 . S
C2100 C2099 1.287 . S
C2100 C2101 1.524 1_655 S
C2100 H2119 0.913 . S
C2101 H2077 0.950 . S
C2101 C2100 1.524 1_455 S
C2101 C2102 1.415 . S
C2102 H2078 0.950 . S
C2102 C2097 1.363 1_455 S
C2102 C2101 1.415 . S
C2103 H2079 0.951 . S
C2103 C2104 1.366 . S
C2103 C2105 1.388 . S
C2104 C2103 1.366 . S
C2104 C2108 1.385 . S
C2105 H2080 0.951 . S
C2105 C2103 1.388 . S
C2105 C2106 1.366 . S
C2106 C2105 1.366 . S
C2106 C2107 1.414 . S
C2106 C2109 1.499 . S
C2107 H2081 0.950 1_655 S
C2107 C2106 1.414 . S
C2107 C2108 1.374 . S
C2108 H2082 0.950 1_655 S
C2108 C2104 1.385 . S
C2108 C2107 1.374 . S
C2109 C2106 1.499 . S
C2109 C2110 1.373 . S
C2109 C2111 1.389 . S
C2110 H2083 0.950 . S
C2110 C2096 1.377 . S
C2110 C2109 1.373 . S
C2111 C2095 1.377 . S
C2111 C2109 1.389 . S
C2111 C2112 1.524 . S
C2112 C2111 1.524 . S
C2112 C2113 1.397 . S
C2112 C2117 1.363 . S
C2113 H2084 0.983 . S
C2113 C2112 1.397 . S
C2113 C2114 1.334 . S
C2114 H2085 0.950 . S
C2114 C2113 1.334 . S
C2114 C2115 1.287 . S
C2115 C2114 1.287 . S
C2115 C2116 1.524 . S
C2115 H2118 0.999 . S
C2116 H2086 0.950 . S
C2116 C2115 1.524 . S
C2116 C2117 1.415 . S
C2117 H2087 0.950 . S
C2117 C2112 1.363 . S
C2117 C2116 1.415 . S
H2118 C2115 0.999 . S
H2119 C2100 0.913 . S
H2120 C2138 0.951 . S
H2121 C2140 0.951 . S
H2122 C2142 0.950 . S
H2123 C2143 0.950 . S
H2124 C2145 0.950 . S
H2125 C2148 0.950 . S
H2126 C2149 0.950 . S
H2127 C2151 0.950 . S
H2128 C2152 0.950 . S
H2129 C2153 0.951 . S
H2130 C2155 0.951 . S
H2131 C2157 0.950 . S
H2132 C2158 0.950 . S
H2133 C2160 0.950 . S
H2134 C2163 0.950 1_455 S
H2135 C2164 0.950 . S
H2136 C2166 0.950 . S
H2137 C2167 0.950 . S
C2138 H2120 0.951 . S
C2138 C2139 1.366 . S
C2138 C2140 1.388 . S
C2139 C2138 1.366 . S
C2139 C2143 1.385 . S
C2140 H2121 0.951 . S
C2140 C2138 1.388 . S
C2140 C2141 1.366 . S
C2141 C2140 1.366 . S
C2141 C2142 1.414 . S
C2141 C2144 1.499 . S
C2142 H2122 0.950 . S
C2142 C2141 1.414 . S
C2142 C2143 1.374 . S
C2143 H2123 0.950 . S
C2143 C2139 1.385 . S
C2143 C2142 1.374 . S
C2144 C2141 1.499 . S
C2144 C2145 1.373 . S
C2144 C2146 1.389 . S
C2145 H2124 0.950 . S
C2145 C2144 1.373 . S
C2145 C2161 1.377 . S
C2146 C2144 1.389 . S
C2146 C2147 1.524 . S
C2146 C2160 1.377 . S
C2147 C2146 1.524 . S
C2147 C2148 1.397 . S
C2147 C2152 1.363 . S
C2148 H2125 0.950 . S
C2148 C2147 1.397 . S
C2148 C2149 1.334 . S
C2149 H2126 0.950 . S
C2149 C2148 1.334 . S
C2149 C2150 1.287 . S
C2150 C2149 1.287 . S
C2150 C2151 1.524 . S
C2150 H2169 0.913 . S
C2151 H2127 0.950 . S
C2151 C2150 1.524 . S
C2151 C2152 1.415 . S
C2152 H2128 0.950 . S
C2152 C2147 1.363 . S
C2152 C2151 1.415 . S
C2153 H2129 0.951 . S
C2153 C2154 1.366 . S
C2153 C2155 1.388 . S
C2154 C2153 1.366 . S
C2154 C2158 1.385 . S
C2155 H2130 0.951 . S
C2155 C2153 1.388 . S
C2155 C2156 1.366 . S
C2156 C2155 1.366 . S
C2156 C2157 1.414 . S
C2156 C2159 1.499 . S
C2157 H2131 0.950 . S
C2157 C2156 1.414 . S
C2157 C2158 1.374 . S
C2158 H2132 0.950 . S
C2158 C2154 1.385 . S
C2158 C2157 1.374 . S
C2159 C2156 1.499 . S
C2159 C2160 1.373 . S
C2159 C2161 1.389 . S
C2160 H2133 0.950 . S
C2160 C2146 1.377 . S
C2160 C2159 1.373 . S
C2161 C2145 1.377 . S
C2161 C2159 1.389 . S
C2161 C2162 1.524 . S
C2162 C2161 1.524 . S
C2162 C2163 1.397 1_455 S
C2162 C2167 1.363 1_455 S
C2163 H2134 0.950 1_655 S
C2163 C2162 1.397 1_655 S
C2163 C2164 1.334 . S
C2164 H2135 0.950 . S
C2164 C2163 1.334 . S
C2164 C2165 1.287 . S
C2165 C2164 1.287 . S
C2165 C2166 1.524 . S
C2165 H2168 0.999 . S
C2166 H2136 0.950 . S
C2166 C2165 1.524 . S
C2166 C2167 1.415 . S
C2167 H2137 0.950 . S
C2167 C2162 1.363 1_655 S
C2167 C2166 1.415 . S
H2168 C2165 0.999 . S
H2169 C2150 0.913 . S
H2170 C2188 0.951 . S
H2171 C2190 0.951 . S
H2172 C2192 0.950 . S
H2173 C2193 0.950 . S
H2174 C2195 0.950 . S
H2175 C2198 0.950 . S
H2176 C2199 0.950 . S
H2177 C2201 0.950 1_655 S
H2178 C2202 0.950 . S
H2179 C2203 0.951 . S
H2180 C2205 0.951 . S
H2181 C2207 0.950 . S
H2182 C2208 0.950 . S
H2183 C2210 0.950 . S
H2184 C2213 0.950 . S
H2185 C2214 0.950 . S
H2186 C2216 0.950 . S
H2187 C2217 0.950 . S
C2188 H2170 0.951 . S
C2188 C2189 1.366 1_655 S
C2188 C2190 1.388 . S
C2189 C2188 1.366 1_455 S
C2189 C2193 1.385 . S
C2190 H2171 0.951 . S
C2190 C2188 1.388 . S
C2190 C2191 1.366 . S
C2191 C2190 1.366 . S
C2191 C2192 1.414 1_655 S
C2191 C2194 1.499 . S
C2192 H2172 0.950 . S
C2192 C2191 1.414 1_455 S
C2192 C2193 1.374 . S
C2193 H2173 0.950 . S
C2193 C2189 1.385 . S
C2193 C2192 1.374 . S
C2194 C2191 1.499 . S
C2194 C2195 1.373 . S
C2194 C2196 1.389 . S
C2195 H2174 0.950 . S
C2195 C2194 1.373 . S
C2195 C2211 1.377 . S
C2196 C2194 1.389 . S
C2196 C2197 1.524 1_655 S
C2196 C2210 1.377 . S
C2197 C2196 1.524 1_455 S
C2197 C2198 1.397 . S
C2197 C2202 1.363 1_455 S
C2198 H2175 0.950 . S
C2198 C2197 1.397 . S
C2198 C2199 1.334 . S
C2199 H2176 0.950 . S
C2199 C2198 1.334 . S
C2199 C2200 1.287 . S
C2200 C2199 1.287 . S
C2200 C2201 1.524 . S
C2200 H2219 0.913 . S
C2201 H2177 0.950 1_455 S
C2201 C2200 1.524 . S
C2201 C2202 1.415 1_455 S
C2202 H2178 0.950 . S
C2202 C2197 1.363 1_655 S
C2202 C2201 1.415 1_655 S
C2203 H2179 0.951 . S
C2203 C2204 1.366 . S
C2203 C2205 1.388 . S
C2204 C2203 1.366 . S
C2204 C2208 1.385 . S
C2205 H2180 0.951 . S
C2205 C2203 1.388 . S
C2205 C2206 1.366 . S
C2206 C2205 1.366 . S
C2206 C2207 1.414 . S
C2206 C2209 1.499 . S
C2207 H2181 0.950 . S
C2207 C2206 1.414 . S
C2207 C2208 1.374 . S
C2208 H2182 0.950 . S
C2208 C2204 1.385 . S
C2208 C2207 1.374 . S
C2209 C2206 1.499 . S
C2209 C2210 1.373 . S
C2209 C2211 1.389 . S
C2210 H2183 0.950 . S
C2210 C2196 1.377 . S
C2210 C2209 1.373 . S
C2211 C2195 1.377 . S
C2211 C2209 1.389 . S
C2211 C2212 1.524 . S
C2212 C2211 1.524 . S
C2212 C2213 1.397 . S
C2212 C2217 1.363 . S
C2213 H2184 0.950 . S
C2213 C2212 1.397 . S
C2213 C2214 1.334 . S
C2214 H2185 0.950 . S
C2214 C2213 1.334 . S
C2214 C2215 1.287 . S
C2215 C2214 1.287 . S
C2215 C2216 1.524 . S
C2215 H2218 0.999 . S
C2216 H2186 0.950 . S
C2216 C2215 1.524 . S
C2216 C2217 1.415 . S
C2217 H2187 0.950 . S
C2217 C2212 1.363 . S
C2217 C2216 1.415 . S
H2218 C2215 0.999 . S
H2219 C2200 0.913 . S
H2220 C2238 0.951 . S
H2221 C2240 0.951 . S
H2222 C2242 0.950 . S
H2223 C2243 0.950 . S
H2224 C2245 0.950 . S
H2225 C2248 0.950 . S
H2226 C2249 0.950 . S
H2227 C2251 0.950 . S
H2228 C2252 0.950 . S
H2229 C2253 0.951 . S
H2230 C2255 0.951 . S
H2231 C2257 0.950 . S
H2232 C2258 0.950 . S
H2233 C2260 0.950 . S
H2234 C2263 0.950 . S
H2235 C2264 0.950 . S
H2236 C2266 0.950 . S
H2237 C2267 0.934 1_545 S
C2238 H2220 0.951 . S
C2238 C2239 1.366 . S
C2238 C2240 1.388 . S
C2239 C2238 1.366 . S
C2239 C2243 1.385 . S
C2240 H2221 0.951 . S
C2240 C2238 1.388 . S
C2240 C2241 1.366 . S
C2241 C2240 1.366 . S
C2241 C2242 1.414 . S
C2241 C2244 1.499 . S
C2242 H2222 0.950 . S
C2242 C2241 1.414 . S
C2242 C2243 1.374 . S
C2243 H2223 0.950 . S
C2243 C2239 1.385 . S
C2243 C2242 1.374 . S
C2244 C2241 1.499 . S
C2244 C2245 1.373 . S
C2244 C2246 1.389 . S
C2245 H2224 0.950 . S
C2245 C2244 1.373 . S
C2245 C2261 1.377 . S
C2246 C2244 1.389 . S
C2246 C2247 1.524 . S
C2246 C2260 1.377 . S
C2247 C2246 1.524 . S
C2247 C2248 1.397 . S
C2247 C2252 1.363 . S
C2248 H2225 0.950 . S
C2248 C2247 1.397 . S
C2248 C2249 1.334 . S
C2249 H2226 0.950 . S
C2249 C2248 1.334 . S
C2249 C2250 1.287 . S
C2250 C2249 1.287 . S
C2250 C2251 1.524 . S
C2250 H2269 0.913 . S
C2251 H2227 0.950 . S
C2251 C2250 1.524 . S
C2251 C2252 1.415 . S
C2252 H2228 0.950 . S
C2252 C2247 1.363 . S
C2252 C2251 1.415 . S
C2253 H2229 0.951 . S
C2253 C2254 1.366 . S
C2253 C2255 1.388 . S
C2254 C2253 1.366 . S
C2254 C2258 1.385 . S
C2255 H2230 0.951 . S
C2255 C2253 1.388 . S
C2255 C2256 1.366 . S
C2256 C2255 1.366 . S
C2256 C2257 1.414 . S
C2256 C2259 1.499 . S
C2257 H2231 0.950 . S
C2257 C2256 1.414 . S
C2257 C2258 1.374 . S
C2258 H2232 0.950 . S
C2258 C2254 1.385 . S
C2258 C2257 1.374 . S
C2259 C2256 1.499 . S
C2259 C2260 1.373 . S
C2259 C2261 1.389 . S
C2260 H2233 0.950 . S
C2260 C2246 1.377 . S
C2260 C2259 1.373 . S
C2261 C2245 1.377 . S
C2261 C2259 1.389 . S
C2261 C2262 1.524 . S
C2262 C2261 1.524 . S
C2262 C2263 1.397 1_545 S
C2262 C2267 1.356 1_545 S
C2263 H2234 0.950 . S
C2263 C2262 1.397 1_565 S
C2263 C2264 1.334 . S
C2264 H2235 0.950 . S
C2264 C2263 1.334 . S
C2264 C2265 1.287 . S
C2265 C2264 1.287 . S
C2265 C2266 1.524 . S
C2265 H2268 0.999 . S
C2266 H2236 0.950 . S
C2266 C2265 1.524 . S
C2266 C2267 1.439 . S
C2267 H2237 0.934 1_565 S
C2267 C2262 1.356 1_565 S
C2267 C2266 1.439 . S
H2268 C2265 0.999 . S
H2269 C2250 0.913 . S
H2270 C2288 0.951 . S
H2271 C2290 0.951 . S
H2272 C2292 0.950 . S
H2273 C2293 0.950 . S
H2274 C2295 0.950 . S
H2275 C2298 0.950 . S
H2276 C2299 0.950 . S
H2277 C2301 0.950 . S
H2278 C2302 0.950 . S
H2279 C2303 0.951 . S
H2280 C2305 0.951 . S
H2281 C2307 0.950 . S
H2282 C2308 0.950 . S
H2283 C2310 0.950 . S
H2284 C2313 0.950 . S
H2285 C2314 0.950 . S
H2286 C2316 0.950 . S
H2287 C2317 0.950 . S
C2288 H2270 0.951 . S
C2288 C2289 1.366 . S
C2288 C2290 1.388 . S
C2289 C2288 1.366 . S
C2289 C2293 1.385 . S
C2290 H2271 0.951 . S
C2290 C2288 1.388 . S
C2290 C2291 1.366 . S
C2291 C2290 1.366 . S
C2291 C2292 1.414 . S
C2291 C2294 1.499 . S
C2292 H2272 0.950 . S
C2292 C2291 1.414 . S
C2292 C2293 1.374 . S
C2293 H2273 0.950 . S
C2293 C2289 1.385 . S
C2293 C2292 1.374 . S
C2294 C2291 1.499 . S
C2294 C2295 1.373 . S
C2294 C2296 1.389 . S
C2295 H2274 0.950 . S
C2295 C2294 1.373 . S
C2295 C2311 1.377 . S
C2296 C2294 1.389 . S
C2296 C2297 1.524 . S
C2296 C2310 1.377 . S
C2297 C2296 1.524 . S
C2297 C2298 1.397 . S
C2297 C2302 1.363 . S
C2298 H2275 0.950 . S
C2298 C2297 1.397 . S
C2298 C2299 1.334 . S
C2299 H2276 0.950 . S
C2299 C2298 1.334 . S
C2299 C2300 1.287 . S
C2300 C2299 1.287 . S
C2300 C2301 1.524 . S
C2300 H2319 0.913 . S
C2301 H2277 0.950 . S
C2301 C2300 1.524 . S
C2301 C2302 1.415 . S
C2302 H2278 0.950 . S
C2302 C2297 1.363 . S
C2302 C2301 1.415 . S
C2303 H2279 0.951 . S
C2303 C2304 1.366 . S
C2303 C2305 1.388 . S
C2304 C2303 1.366 . S
C2304 C2308 1.385 . S
C2305 H2280 0.951 . S
C2305 C2303 1.388 . S
C2305 C2306 1.366 . S
C2306 C2305 1.366 . S
C2306 C2307 1.414 . S
C2306 C2309 1.499 . S
C2307 H2281 0.950 . S
C2307 C2306 1.414 . S
C2307 C2308 1.374 . S
C2308 H2282 0.950 . S
C2308 C2304 1.385 . S
C2308 C2307 1.374 . S
C2309 C2306 1.499 . S
C2309 C2310 1.373 . S
C2309 C2311 1.389 . S
C2310 H2283 0.950 . S
C2310 C2296 1.377 . S
C2310 C2309 1.373 . S
C2311 C2295 1.377 . S
C2311 C2309 1.389 . S
C2311 C2312 1.524 . S
C2312 C2311 1.524 . S
C2312 C2313 1.397 . S
C2312 C2317 1.363 . S
C2313 H2284 0.950 . S
C2313 C2312 1.397 . S
C2313 C2314 1.334 . S
C2314 H2285 0.950 . S
C2314 C2313 1.334 . S
C2314 C2315 1.287 . S
C2315 C2314 1.287 . S
C2315 C2316 1.524 . S
C2315 H2318 0.999 . S
C2316 H2286 0.950 . S
C2316 C2315 1.524 . S
C2316 C2317 1.415 . S
C2317 H2287 0.950 . S
C2317 C2312 1.363 . S
C2317 C2316 1.415 . S
H2318 C2315 0.999 . S
H2319 C2300 0.913 . S
H2320 C2338 0.951 . S
H2321 C2340 0.951 . S
H2322 C2342 0.950 1_545 S
H2323 C2343 0.942 1_545 S
H2324 C2345 0.950 . S
H2325 C2348 0.950 1_545 S
H2326 C2349 0.950 1_545 S
H2327 C2351 0.950 . S
H2328 C2352 0.950 . S
H2329 C2353 0.951 . S
H2330 C2355 0.951 . S
H2331 C2357 0.950 . S
H2332 C2358 0.950 . S
H2333 C2360 0.950 . S
H2334 C2363 0.950 . S
H2335 C2364 0.950 . S
H2336 C2366 0.950 . S
H2337 C2367 0.947 . S
C2338 H2320 0.951 . S
C2338 C2339 1.366 . S
C2338 C2340 1.388 . S
C2339 C2338 1.366 . S
C2339 C2343 1.391 . S
C2340 H2321 0.951 . S
C2340 C2338 1.388 . S
C2340 C2341 1.366 . S
C2341 C2340 1.366 . S
C2341 C2342 1.414 . S
C2341 C2344 1.499 . S
C2342 H2322 0.950 1_565 S
C2342 C2341 1.414 . S
C2342 C2343 1.375 . S
C2343 H2323 0.942 1_565 S
C2343 C2339 1.391 . S
C2343 C2342 1.375 . S
C2344 C2341 1.499 . S
C2344 C2345 1.373 . S
C2344 C2346 1.389 . S
C2345 H2324 0.950 . S
C2345 C2344 1.373 . S
C2345 C2361 1.377 . S
C2346 C2344 1.389 . S
C2346 C2347 1.524 . S
C2346 C2360 1.377 . S
C2347 C2346 1.524 . S
C2347 C2348 1.397 . S
C2347 C2352 1.363 . S
C2348 H2325 0.950 1_565 S
C2348 C2347 1.397 . S
C2348 C2349 1.334 . S
C2349 H2326 0.950 1_565 S
C2349 C2348 1.334 . S
C2349 C2350 1.287 . S
C2350 C2349 1.287 . S
C2350 C2351 1.524 . S
C2350 H2369 0.913 . S
C2351 H2327 0.950 . S
C2351 C2350 1.524 . S
C2351 C2352 1.415 . S
C2352 H2328 0.950 . S
C2352 C2347 1.363 . S
C2352 C2351 1.415 . S
C2353 H2329 0.951 . S
C2353 C2354 1.366 . S
C2353 C2355 1.388 . S
C2354 C2353 1.366 . S
C2354 C2358 1.385 . S
C2355 H2330 0.951 . S
C2355 C2353 1.388 . S
C2355 C2356 1.366 . S
C2356 C2355 1.366 . S
C2356 C2357 1.414 . S
C2356 C2359 1.499 . S
C2357 H2331 0.950 . S
C2357 C2356 1.414 . S
C2357 C2358 1.374 . S
C2358 H2332 0.950 . S
C2358 C2354 1.385 . S
C2358 C2357 1.374 . S
C2359 C2356 1.499 . S
C2359 C2360 1.373 . S
C2359 C2361 1.389 . S
C2360 H2333 0.950 . S
C2360 C2346 1.377 . S
C2360 C2359 1.373 . S
C2361 C2345 1.377 . S
C2361 C2359 1.389 . S
C2361 C2362 1.524 . S
C2362 C2361 1.524 . S
C2362 C2363 1.397 . S
C2362 C2367 1.363 . S
C2363 H2334 0.950 . S
C2363 C2362 1.397 . S
C2363 C2364 1.334 . S
C2364 H2335 0.950 . S
C2364 C2363 1.334 . S
C2364 C2365 1.287 . S
C2365 C2364 1.287 . S
C2365 C2366 1.524 . S
C2365 H2368 0.999 . S
C2366 H2336 0.950 . S
C2366 C2365 1.524 . S
C2366 C2367 1.415 . S
C2367 H2337 0.947 . S
C2367 C2362 1.363 . S
C2367 C2366 1.415 . S
H2368 C2365 0.999 . S
H2369 C2350 0.913 . S
H2370 C2388 0.951 . S
H2371 C2390 0.951 . S
H2372 C2392 0.950 . S
H2373 C2393 0.950 . S
H2374 C2395 0.950 . S
H2375 C2398 0.950 . S
H2376 C2399 0.950 . S
H2377 C2401 0.950 . S
H2378 C2402 0.950 . S
H2379 C2403 0.951 . S
H2380 C2405 0.951 . S
H2381 C2407 0.950 . S
H2382 C2408 0.950 . S
H2383 C2410 0.950 . S
H2384 C2413 0.950 . S
H2385 C2414 0.950 . S
H2386 C2416 0.950 . S
H2387 C2417 0.950 . S
C2388 H2370 0.951 . S
C2388 C2389 1.366 . S
C2388 C2390 1.388 . S
C2389 C2388 1.366 . S
C2389 C2393 1.385 . S
C2390 H2371 0.951 . S
C2390 C2388 1.388 . S
C2390 C2391 1.366 . S
C2391 C2390 1.366 . S
C2391 C2392 1.414 . S
C2391 C2394 1.499 . S
C2392 H2372 0.950 . S
C2392 C2391 1.414 . S
C2392 C2393 1.374 . S
C2393 H2373 0.950 . S
C2393 C2389 1.385 . S
C2393 C2392 1.374 . S
C2394 C2391 1.499 . S
C2394 C2395 1.373 . S
C2394 C2396 1.389 . S
C2395 H2374 0.950 . S
C2395 C2394 1.373 . S
C2395 C2411 1.377 . S
C2396 C2394 1.389 . S
C2396 C2397 1.524 . S
C2396 C2410 1.377 . S
C2397 C2396 1.524 . S
C2397 C2398 1.397 . S
C2397 C2402 1.363 . S
C2398 H2375 0.950 . S
C2398 C2397 1.397 . S
C2398 C2399 1.334 . S
C2399 H2376 0.950 . S
C2399 C2398 1.334 . S
C2399 C2400 1.287 . S
C2400 C2399 1.287 . S
C2400 C2401 1.524 . S
C2400 H2419 0.913 . S
C2401 H2377 0.950 . S
C2401 C2400 1.524 . S
C2401 C2402 1.415 . S
C2402 H2378 0.950 . S
C2402 C2397 1.363 . S
C2402 C2401 1.415 . S
C2403 H2379 0.951 . S
C2403 C2404 1.366 . S
C2403 C2405 1.388 . S
C2404 C2403 1.366 . S
C2404 C2408 1.385 . S
C2405 H2380 0.951 . S
C2405 C2403 1.388 . S
C2405 C2406 1.366 . S
C2406 C2405 1.366 . S
C2406 C2407 1.414 . S
C2406 C2409 1.499 . S
C2407 H2381 0.950 . S
C2407 C2406 1.414 . S
C2407 C2408 1.374 . S
C2408 H2382 0.950 . S
C2408 C2404 1.385 . S
C2408 C2407 1.374 . S
C2409 C2406 1.499 . S
C2409 C2410 1.373 . S
C2409 C2411 1.389 . S
C2410 H2383 0.950 . S
C2410 C2396 1.377 . S
C2410 C2409 1.373 . S
C2411 C2395 1.377 . S
C2411 C2409 1.389 . S
C2411 C2412 1.524 . S
C2412 C2411 1.524 . S
C2412 C2413 1.397 . S
C2412 C2417 1.363 . S
C2413 H2384 0.950 . S
C2413 C2412 1.397 . S
C2413 C2414 1.334 . S
C2414 H2385 0.950 . S
C2414 C2413 1.334 . S
C2414 C2415 1.287 . S
C2415 C2414 1.287 . S
C2415 C2416 1.524 . S
C2415 H2418 0.999 . S
C2416 H2386 0.950 . S
C2416 C2415 1.524 . S
C2416 C2417 1.415 . S
C2417 H2387 0.950 . S
C2417 C2412 1.363 . S
C2417 C2416 1.415 . S
H2418 C2415 0.999 . S
H2419 C2400 0.913 . S
H2420 C2438 0.951 . S
H2421 C2440 0.951 . S
H2422 C2442 0.950 . S
H2423 C2443 0.950 . S
H2424 C2445 0.950 . S
H2425 C2448 0.950 . S
H2426 C2449 0.950 . S
H2427 C2451 0.950 . S
H2428 C2452 0.950 . S
H2429 C2453 0.951 . S
H2430 C2455 0.951 . S
H2431 C2457 0.950 . S
H2432 C2458 0.950 . S
H2433 C2460 0.950 . S
H2434 C2463 0.950 . S
H2435 C2464 0.950 1_556 S
H2436 C2466 0.950 . S
H2437 C2467 0.950 . S
C2438 H2420 0.951 . S
C2438 C2439 1.366 . S
C2438 C2440 1.388 . S
C2439 C2438 1.366 . S
C2439 C2443 1.385 . S
C2440 H2421 0.951 . S
C2440 C2438 1.388 . S
C2440 C2441 1.366 . S
C2441 C2440 1.366 . S
C2441 C2442 1.414 . S
C2441 C2444 1.499 . S
C2442 H2422 0.950 . S
C2442 C2441 1.414 . S
C2442 C2443 1.374 . S
C2443 H2423 0.950 . S
C2443 C2439 1.385 . S
C2443 C2442 1.374 . S
C2444 C2441 1.499 . S
C2444 C2445 1.373 . S
C2444 C2446 1.389 . S
C2445 H2424 0.950 . S
C2445 C2444 1.373 . S
C2445 C2461 1.377 . S
C2446 C2444 1.389 . S
C2446 C2447 1.524 . S
C2446 C2460 1.377 . S
C2447 C2446 1.524 . S
C2447 C2448 1.397 . S
C2447 C2452 1.363 . S
C2448 H2425 0.950 . S
C2448 C2447 1.397 . S
C2448 C2449 1.334 . S
C2449 H2426 0.950 . S
C2449 C2448 1.334 . S
C2449 C2450 1.287 . S
C2450 C2449 1.287 . S
C2450 C2451 1.524 . S
C2450 H2469 0.913 . S
C2451 H2427 0.950 . S
C2451 C2450 1.524 . S
C2451 C2452 1.415 . S
C2452 H2428 0.950 . S
C2452 C2447 1.363 . S
C2452 C2451 1.415 . S
C2453 H2429 0.951 . S
C2453 C2454 1.366 . S
C2453 C2455 1.388 . S
C2454 C2453 1.366 . S
C2454 C2458 1.385 . S
C2455 H2430 0.951 . S
C2455 C2453 1.388 . S
C2455 C2456 1.366 . S
C2456 C2455 1.366 . S
C2456 C2457 1.414 . S
C2456 C2459 1.499 . S
C2457 H2431 0.950 . S
C2457 C2456 1.414 . S
C2457 C2458 1.374 . S
C2458 H2432 0.950 . S
C2458 C2454 1.385 . S
C2458 C2457 1.374 . S
C2459 C2456 1.499 . S
C2459 C2460 1.373 . S
C2459 C2461 1.389 . S
C2460 H2433 0.950 . S
C2460 C2446 1.377 . S
C2460 C2459 1.373 . S
C2461 C2445 1.377 . S
C2461 C2459 1.389 . S
C2461 C2462 1.524 . S
C2462 C2461 1.524 . S
C2462 C2463 1.397 . S
C2462 C2467 1.363 . S
C2463 H2434 0.950 . S
C2463 C2462 1.397 . S
C2463 C2464 1.334 . S
C2464 H2435 0.950 1_554 S
C2464 C2463 1.334 . S
C2464 C2465 1.287 . S
C2465 C2464 1.287 . S
C2465 C2466 1.524 . S
C2465 H2468 0.999 . S
C2466 H2436 0.950 . S
C2466 C2465 1.524 . S
C2466 C2467 1.415 . S
C2467 H2437 0.950 . S
C2467 C2462 1.363 . S
C2467 C2466 1.415 . S
H2468 C2465 0.999 . S
H2469 C2450 0.913 . S
H2470 C2488 0.951 . S
H2471 C2490 0.951 . S
H2472 C2492 0.950 . S
H2473 C2493 0.950 . S
H2474 C2495 0.950 . S
H2475 C2498 0.950 . S
H2476 C2499 0.950 . S
H2477 C2501 0.950 . S
H2478 C2502 0.950 . S
H2479 C2503 0.951 . S
H2480 C2505 0.951 . S
H2481 C2507 0.950 . S
H2482 C2508 0.950 . S
H2483 C2510 0.950 . S
H2484 C2513 0.950 . S
H2485 C2514 0.950 . S
H2486 C2516 0.950 . S
H2487 C2517 0.950 . S
C2488 H2470 0.951 . S
C2488 C2489 1.366 . S
C2488 C2490 1.388 . S
C2489 C2488 1.366 . S
C2489 C2493 1.385 . S
C2490 H2471 0.951 . S
C2490 C2488 1.388 . S
C2490 C2491 1.366 . S
C2491 C2490 1.366 . S
C2491 C2492 1.414 . S
C2491 C2494 1.499 . S
C2492 H2472 0.950 . S
C2492 C2491 1.414 . S
C2492 C2493 1.374 . S
C2493 H2473 0.950 . S
C2493 C2489 1.385 . S
C2493 C2492 1.374 . S
C2494 C2491 1.499 . S
C2494 C2495 1.373 . S
C2494 C2496 1.389 . S
C2495 H2474 0.950 . S
C2495 C2494 1.373 . S
C2495 C2511 1.377 . S
C2496 C2494 1.389 . S
C2496 C2497 1.524 . S
C2496 C2510 1.377 . S
C2497 C2496 1.524 . S
C2497 C2498 1.397 . S
C2497 C2502 1.363 . S
C2498 H2475 0.950 . S
C2498 C2497 1.397 . S
C2498 C2499 1.334 . S
C2499 H2476 0.950 . S
C2499 C2498 1.334 . S
C2499 C2500 1.287 . S
C2500 C2499 1.287 . S
C2500 C2501 1.524 . S
C2500 H2519 0.913 . S
C2501 H2477 0.950 . S
C2501 C2500 1.524 . S
C2501 C2502 1.415 . S
C2502 H2478 0.950 . S
C2502 C2497 1.363 . S
C2502 C2501 1.415 . S
C2503 H2479 0.951 . S
C2503 C2504 1.366 . S
C2503 C2505 1.388 . S
C2504 C2503 1.366 . S
C2504 C2508 1.385 . S
C2505 H2480 0.951 . S
C2505 C2503 1.388 . S
C2505 C2506 1.366 . S
C2506 C2505 1.366 . S
C2506 C2507 1.414 . S
C2506 C2509 1.499 . S
C2507 H2481 0.950 . S
C2507 C2506 1.414 . S
C2507 C2508 1.374 . S
C2508 H2482 0.950 . S
C2508 C2504 1.385 . S
C2508 C2507 1.374 . S
C2509 C2506 1.499 . S
C2509 C2510 1.373 . S
C2509 C2511 1.389 . S
C2510 H2483 0.950 . S
C2510 C2496 1.377 . S
C2510 C2509 1.373 . S
C2511 C2495 1.377 . S
C2511 C2509 1.389 . S
C2511 C2512 1.524 . S
C2512 C2511 1.524 . S
C2512 C2513 1.397 . S
C2512 C2517 1.363 . S
C2513 H2484 0.950 . S
C2513 C2512 1.397 . S
C2513 C2514 1.334 . S
C2514 H2485 0.950 . S
C2514 C2513 1.334 . S
C2514 C2515 1.287 . S
C2515 C2514 1.287 . S
C2515 C2516 1.524 . S
C2515 H2518 0.999 . S
C2516 H2486 0.950 . S
C2516 C2515 1.524 . S
C2516 C2517 1.415 . S
C2517 H2487 0.950 . S
C2517 C2512 1.363 . S
C2517 C2516 1.415 . S
H2518 C2515 0.999 . S
H2519 C2500 0.913 . S
H2520 C2538 0.951 . S
H2521 C2540 0.951 . S
H2522 C2542 0.950 . S
H2523 C2543 0.950 . S
H2524 C2545 0.950 . S
H2525 C2548 0.950 . S
H2526 C2549 0.950 . S
H2527 C2551 0.950 . S
H2528 C2552 0.950 . S
H2529 C2553 0.951 . S
H2530 C2555 0.951 . S
H2531 C2557 0.950 . S
H2532 C2558 0.950 . S
H2533 C2560 0.950 . S
H2534 C2563 0.950 . S
H2535 C2564 0.950 . S
H2536 C2566 0.950 . S
H2537 C2567 0.950 . S
C2538 H2520 0.951 . S
C2538 C2539 1.366 . S
C2538 C2540 1.388 . S
C2539 C2538 1.366 . S
C2539 C2543 1.385 . S
C2540 H2521 0.951 . S
C2540 C2538 1.388 . S
C2540 C2541 1.366 . S
C2541 C2540 1.366 . S
C2541 C2542 1.414 . S
C2541 C2544 1.499 . S
C2542 H2522 0.950 . S
C2542 C2541 1.414 . S
C2542 C2543 1.374 . S
C2543 H2523 0.950 . S
C2543 C2539 1.385 . S
C2543 C2542 1.374 . S
C2544 C2541 1.499 . S
C2544 C2545 1.373 . S
C2544 C2546 1.389 . S
C2545 H2524 0.950 . S
C2545 C2544 1.373 . S
C2545 C2561 1.377 . S
C2546 C2544 1.389 . S
C2546 C2547 1.524 . S
C2546 C2560 1.377 . S
C2547 C2546 1.524 . S
C2547 C2548 1.397 . S
C2547 C2552 1.363 . S
C2548 H2525 0.950 . S
C2548 C2547 1.397 . S
C2548 C2549 1.334 . S
C2549 H2526 0.950 . S
C2549 C2548 1.334 . S
C2549 C2550 1.287 . S
C2550 C2549 1.287 . S
C2550 C2551 1.524 . S
C2550 H2569 0.913 . S
C2551 H2527 0.950 . S
C2551 C2550 1.524 . S
C2551 C2552 1.415 . S
C2552 H2528 0.950 . S
C2552 C2547 1.363 . S
C2552 C2551 1.415 . S
C2553 H2529 0.951 . S
C2553 C2554 1.366 . S
C2553 C2555 1.388 . S
C2554 C2553 1.366 . S
C2554 C2558 1.385 . S
C2555 H2530 0.951 . S
C2555 C2553 1.388 . S
C2555 C2556 1.366 . S
C2556 C2555 1.366 . S
C2556 C2557 1.414 . S
C2556 C2559 1.499 . S
C2557 H2531 0.950 . S
C2557 C2556 1.414 . S
C2557 C2558 1.374 . S
C2558 H2532 0.950 . S
C2558 C2554 1.385 . S
C2558 C2557 1.374 . S
C2559 C2556 1.499 . S
C2559 C2560 1.373 . S
C2559 C2561 1.389 . S
C2560 H2533 0.950 . S
C2560 C2546 1.377 . S
C2560 C2559 1.373 . S
C2561 C2545 1.377 . S
C2561 C2559 1.389 . S
C2561 C2562 1.524 . S
C2562 C2561 1.524 . S
C2562 C2563 1.397 . S
C2562 C2567 1.363 . S
C2563 H2534 0.950 . S
C2563 C2562 1.397 . S
C2563 C2564 1.334 . S
C2564 H2535 0.950 . S
C2564 C2563 1.334 . S
C2564 C2565 1.287 . S
C2565 C2564 1.287 . S
C2565 C2566 1.524 . S
C2565 H2568 0.999 . S
C2566 H2536 0.950 . S
C2566 C2565 1.524 . S
C2566 C2567 1.415 . S
C2567 H2537 0.950 . S
C2567 C2562 1.363 . S
C2567 C2566 1.415 . S
H2568 C2565 0.999 . S
H2569 C2550 0.913 . S
H2570 C2588 0.951 . S
H2571 C2590 0.951 . S
H2572 C2592 0.950 . S
H2573 C2593 0.950 . S
H2574 C2595 0.950 . S
H2575 C2598 0.950 . S
H2576 C2599 0.950 . S
H2577 C2601 0.950 . S
H2578 C2602 0.950 . S
H2579 C2603 0.951 . S
H2580 C2605 0.951 . S
H2581 C2607 0.950 . S
H2582 C2608 0.950 . S
H2583 C2610 0.950 . S
H2584 C2613 0.950 . S
H2585 C2614 0.950 . S
H2586 C2616 0.950 . S
H2587 C2617 0.950 . S
C2588 H2570 0.951 . S
C2588 C2589 1.366 . S
C2588 C2590 1.388 . S
C2589 C2588 1.366 . S
C2589 C2593 1.385 . S
C2590 H2571 0.951 . S
C2590 C2588 1.388 . S
C2590 C2591 1.366 . S
C2591 C2590 1.366 . S
C2591 C2592 1.414 . S
C2591 C2594 1.499 . S
C2592 H2572 0.950 . S
C2592 C2591 1.414 . S
C2592 C2593 1.374 . S
C2593 H2573 0.950 . S
C2593 C2589 1.385 . S
C2593 C2592 1.374 . S
C2594 C2591 1.499 . S
C2594 C2595 1.373 . S
C2594 C2596 1.389 . S
C2595 H2574 0.950 . S
C2595 C2594 1.373 . S
C2595 C2611 1.377 . S
C2596 C2594 1.389 . S
C2596 C2597 1.524 . S
C2596 C2610 1.377 . S
C2597 C2596 1.524 . S
C2597 C2598 1.397 . S
C2597 C2602 1.363 . S
C2598 H2575 0.950 . S
C2598 C2597 1.397 . S
C2598 C2599 1.334 . S
C2599 H2576 0.950 . S
C2599 C2598 1.334 . S
C2599 C2600 1.287 . S
C2600 C2599 1.287 . S
C2600 C2601 1.524 . S
C2600 H2619 0.913 . S
C2601 H2577 0.950 . S
C2601 C2600 1.524 . S
C2601 C2602 1.415 . S
C2602 H2578 0.950 . S
C2602 C2597 1.363 . S
C2602 C2601 1.415 . S
C2603 H2579 0.951 . S
C2603 C2604 1.366 . S
C2603 C2605 1.388 . S
C2604 C2603 1.366 . S
C2604 C2608 1.385 . S
C2605 H2580 0.951 . S
C2605 C2603 1.388 . S
C2605 C2606 1.366 . S
C2606 C2605 1.366 . S
C2606 C2607 1.414 . S
C2606 C2609 1.499 . S
C2607 H2581 0.950 . S
C2607 C2606 1.414 . S
C2607 C2608 1.374 . S
C2608 H2582 0.950 . S
C2608 C2604 1.385 . S
C2608 C2607 1.374 . S
C2609 C2606 1.499 . S
C2609 C2610 1.373 . S
C2609 C2611 1.389 . S
C2610 H2583 0.950 . S
C2610 C2596 1.377 . S
C2610 C2609 1.373 . S
C2611 C2595 1.377 . S
C2611 C2609 1.389 . S
C2611 C2612 1.524 . S
C2612 C2611 1.524 . S
C2612 C2613 1.397 . S
C2612 C2617 1.363 . S
C2613 H2584 0.950 . S
C2613 C2612 1.397 . S
C2613 C2614 1.334 . S
C2614 H2585 0.950 . S
C2614 C2613 1.334 . S
C2614 C2615 1.287 . S
C2615 C2614 1.287 . S
C2615 C2616 1.524 . S
C2615 H2618 0.999 . S
C2616 H2586 0.950 . S
C2616 C2615 1.524 . S
C2616 C2617 1.415 . S
C2617 H2587 0.950 . S
C2617 C2612 1.363 . S
C2617 C2616 1.415 . S
H2618 C2615 0.999 . S
H2619 C2600 0.913 . S
H2620 C2638 0.951 . S
H2621 C2640 0.951 . S
H2622 C2642 0.950 . S
H2623 C2643 0.950 . S
H2624 C2645 0.950 . S
H2625 C2648 0.950 . S
H2626 C2649 0.950 . S
H2627 C2651 0.950 . S
H2628 C2652 0.950 . S
H2629 C2653 0.951 . S
H2630 C2655 0.951 . S
H2631 C2657 0.950 . S
H2632 C2658 0.950 . S
H2633 C2660 0.950 . S
H2634 C2663 0.950 . S
H2635 C2664 0.950 . S
H2636 C2666 0.950 . S
H2637 C2667 0.950 . S
C2638 H2620 0.951 . S
C2638 C2639 1.366 . S
C2638 C2640 1.388 . S
C2639 C2638 1.366 . S
C2639 C2643 1.385 . S
C2640 H2621 0.951 . S
C2640 C2638 1.388 . S
C2640 C2641 1.366 . S
C2641 C2640 1.366 . S
C2641 C2642 1.414 . S
C2641 C2644 1.499 . S
C2642 H2622 0.950 . S
C2642 C2641 1.414 . S
C2642 C2643 1.374 . S
C2643 H2623 0.950 . S
C2643 C2639 1.385 . S
C2643 C2642 1.374 . S
C2644 C2641 1.499 . S
C2644 C2645 1.373 . S
C2644 C2646 1.389 . S
C2645 H2624 0.950 . S
C2645 C2644 1.373 . S
C2645 C2661 1.377 . S
C2646 C2644 1.389 . S
C2646 C2647 1.524 . S
C2646 C2660 1.377 . S
C2647 C2646 1.524 . S
C2647 C2648 1.397 . S
C2647 C2652 1.363 . S
C2648 H2625 0.950 . S
C2648 C2647 1.397 . S
C2648 C2649 1.334 . S
C2649 H2626 0.950 . S
C2649 C2648 1.334 . S
C2649 C2650 1.287 . S
C2650 C2649 1.287 . S
C2650 C2651 1.524 . S
C2650 H2669 0.913 . S
C2651 H2627 0.950 . S
C2651 C2650 1.524 . S
C2651 C2652 1.415 . S
C2652 H2628 0.950 . S
C2652 C2647 1.363 . S
C2652 C2651 1.415 . S
C2653 H2629 0.951 . S
C2653 C2654 1.366 . S
C2653 C2655 1.388 . S
C2654 C2653 1.366 . S
C2654 C2658 1.385 . S
C2655 H2630 0.951 . S
C2655 C2653 1.388 . S
C2655 C2656 1.366 . S
C2656 C2655 1.366 . S
C2656 C2657 1.414 . S
C2656 C2659 1.499 . S
C2657 H2631 0.950 . S
C2657 C2656 1.414 . S
C2657 C2658 1.374 . S
C2658 H2632 0.950 . S
C2658 C2654 1.385 . S
C2658 C2657 1.374 . S
C2659 C2656 1.499 . S
C2659 C2660 1.373 . S
C2659 C2661 1.389 . S
C2660 H2633 0.950 . S
C2660 C2646 1.377 . S
C2660 C2659 1.373 . S
C2661 C2645 1.377 . S
C2661 C2659 1.389 . S
C2661 C2662 1.524 . S
C2662 C2661 1.524 . S
C2662 C2663 1.397 . S
C2662 C2667 1.363 . S
C2663 H2634 0.950 . S
C2663 C2662 1.397 . S
C2663 C2664 1.334 . S
C2664 H2635 0.950 . S
C2664 C2663 1.334 . S
C2664 C2665 1.287 . S
C2665 C2664 1.287 . S
C2665 C2666 1.524 . S
C2665 H2668 0.999 . S
C2666 H2636 0.950 . S
C2666 C2665 1.524 . S
C2666 C2667 1.415 . S
C2667 H2637 0.950 . S
C2667 C2662 1.363 . S
C2667 C2666 1.415 . S
H2668 C2665 0.999 . S
H2669 C2650 0.913 . S
H2670 C2688 0.951 . S
H2671 C2690 0.951 . S
H2672 C2692 0.950 . S
H2673 C2693 0.950 . S
H2674 C2695 0.950 . S
H2675 C2698 0.950 . S
H2676 C2699 0.950 . S
H2677 C2701 0.950 . S
H2678 C2702 0.950 . S
H2679 C2703 0.951 . S
H2680 C2705 0.951 . S
H2681 C2707 0.950 . S
H2682 C2708 0.950 . S
H2683 C2710 0.950 . S
H2684 C2713 0.950 . S
H2685 C2714 0.950 . S
H2686 C2716 0.950 . S
H2687 C2717 0.950 . S
C2688 H2670 0.951 . S
C2688 C2689 1.366 . S
C2688 C2690 1.388 . S
C2689 C2688 1.366 . S
C2689 C2693 1.385 . S
C2690 H2671 0.951 . S
C2690 C2688 1.388 . S
C2690 C2691 1.366 . S
C2691 C2690 1.366 . S
C2691 C2692 1.414 . S
C2691 C2694 1.499 . S
C2692 H2672 0.950 . S
C2692 C2691 1.414 . S
C2692 C2693 1.374 . S
C2693 H2673 0.950 . S
C2693 C2689 1.385 . S
C2693 C2692 1.374 . S
C2694 C2691 1.499 . S
C2694 C2695 1.373 . S
C2694 C2696 1.389 . S
C2695 H2674 0.950 . S
C2695 C2694 1.373 . S
C2695 C2711 1.377 . S
C2696 C2694 1.389 . S
C2696 C2697 1.524 . S
C2696 C2710 1.377 . S
C2697 C2696 1.524 . S
C2697 C2698 1.397 . S
C2697 C2702 1.363 . S
C2698 H2675 0.950 . S
C2698 C2697 1.397 . S
C2698 C2699 1.334 . S
C2699 H2676 0.950 . S
C2699 C2698 1.334 . S
C2699 C2700 1.287 . S
C2700 C2699 1.287 . S
C2700 C2701 1.524 . S
C2700 H2719 0.913 . S
C2701 H2677 0.950 . S
C2701 C2700 1.524 . S
C2701 C2702 1.415 . S
C2702 H2678 0.950 . S
C2702 C2697 1.363 . S
C2702 C2701 1.415 . S
C2703 H2679 0.951 . S
C2703 C2704 1.366 . S
C2703 C2705 1.388 . S
C2704 C2703 1.366 . S
C2704 C2708 1.385 . S
C2705 H2680 0.951 . S
C2705 C2703 1.388 . S
C2705 C2706 1.366 . S
C2706 C2705 1.366 . S
C2706 C2707 1.414 . S
C2706 C2709 1.499 . S
C2707 H2681 0.950 . S
C2707 C2706 1.414 . S
C2707 C2708 1.374 . S
C2708 H2682 0.950 . S
C2708 C2704 1.385 . S
C2708 C2707 1.374 . S
C2709 C2706 1.499 . S
C2709 C2710 1.373 . S
C2709 C2711 1.389 . S
C2710 H2683 0.950 . S
C2710 C2696 1.377 . S
C2710 C2709 1.373 . S
C2711 C2695 1.377 . S
C2711 C2709 1.389 . S
C2711 C2712 1.524 . S
C2712 C2711 1.524 . S
C2712 C2713 1.397 . S
C2712 C2717 1.363 . S
C2713 H2684 0.950 . S
C2713 C2712 1.397 . S
C2713 C2714 1.334 . S
C2714 H2685 0.950 . S
C2714 C2713 1.334 . S
C2714 C2715 1.287 . S
C2715 C2714 1.287 . S
C2715 C2716 1.524 . S
C2715 H2718 0.999 . S
C2716 H2686 0.950 . S
C2716 C2715 1.524 . S
C2716 C2717 1.415 . S
C2717 H2687 0.950 . S
C2717 C2712 1.363 . S
C2717 C2716 1.415 . S
H2718 C2715 0.999 . S
H2719 C2700 0.913 . S
H2720 C2738 0.951 . S
H2721 C2740 0.951 . S
H2722 C2742 0.950 . S
H2723 C2743 0.950 . S
H2724 C2745 0.950 . S
H2725 C2748 0.950 . S
H2726 C2749 0.950 . S
H2727 C2751 0.950 . S
H2728 C2752 0.950 . S
H2729 C2753 0.951 . S
H2730 C2755 0.951 . S
H2731 C2757 0.950 . S
H2732 C2758 0.950 . S
H2733 C2760 0.950 . S
H2734 C2763 0.950 . S
H2735 C2764 0.950 . S
H2736 C2766 0.950 . S
H2737 C2767 0.950 . S
C2738 H2720 0.951 . S
C2738 C2739 1.366 . S
C2738 C2740 1.388 . S
C2739 C2738 1.366 . S
C2739 C2743 1.385 . S
C2740 H2721 0.951 . S
C2740 C2738 1.388 . S
C2740 C2741 1.366 . S
C2741 C2740 1.366 . S
C2741 C2742 1.414 . S
C2741 C2744 1.499 . S
C2742 H2722 0.950 . S
C2742 C2741 1.414 . S
C2742 C2743 1.374 . S
C2743 H2723 0.950 . S
C2743 C2739 1.385 . S
C2743 C2742 1.374 . S
C2744 C2741 1.499 . S
C2744 C2745 1.373 . S
C2744 C2746 1.389 . S
C2745 H2724 0.950 . S
C2745 C2744 1.373 . S
C2745 C2761 1.377 . S
C2746 C2744 1.389 . S
C2746 C2747 1.524 . S
C2746 C2760 1.377 . S
C2747 C2746 1.524 . S
C2747 C2748 1.397 . S
C2747 C2752 1.363 . S
C2748 H2725 0.950 . S
C2748 C2747 1.397 . S
C2748 C2749 1.334 . S
C2749 H2726 0.950 . S
C2749 C2748 1.334 . S
C2749 C2750 1.287 . S
C2750 C2749 1.287 . S
C2750 C2751 1.524 . S
C2750 H2769 0.913 . S
C2751 H2727 0.950 . S
C2751 C2750 1.524 . S
C2751 C2752 1.415 . S
C2752 H2728 0.950 . S
C2752 C2747 1.363 . S
C2752 C2751 1.415 . S
C2753 H2729 0.951 . S
C2753 C2754 1.366 . S
C2753 C2755 1.388 . S
C2754 C2753 1.366 . S
C2754 C2758 1.385 . S
C2755 H2730 0.951 . S
C2755 C2753 1.388 . S
C2755 C2756 1.366 . S
C2756 C2755 1.366 . S
C2756 C2757 1.414 . S
C2756 C2759 1.499 . S
C2757 H2731 0.950 . S
C2757 C2756 1.414 . S
C2757 C2758 1.374 . S
C2758 H2732 0.950 . S
C2758 C2754 1.385 . S
C2758 C2757 1.374 . S
C2759 C2756 1.499 . S
C2759 C2760 1.373 . S
C2759 C2761 1.389 . S
C2760 H2733 0.950 . S
C2760 C2746 1.377 . S
C2760 C2759 1.373 . S
C2761 C2745 1.377 . S
C2761 C2759 1.389 . S
C2761 C2762 1.524 . S
C2762 C2761 1.524 . S
C2762 C2763 1.397 . S
C2762 C2767 1.363 . S
C2763 H2734 0.950 . S
C2763 C2762 1.397 . S
C2763 C2764 1.334 . S
C2764 H2735 0.950 . S
C2764 C2763 1.334 . S
C2764 C2765 1.287 . S
C2765 C2764 1.287 . S
C2765 C2766 1.524 . S
C2765 H2768 0.999 . S
C2766 H2736 0.950 . S
C2766 C2765 1.524 . S
C2766 C2767 1.415 . S
C2767 H2737 0.950 . S
C2767 C2762 1.363 . S
C2767 C2766 1.415 . S
H2768 C2765 0.999 . S
H2769 C2750 0.913 . S
H2770 C2788 0.951 . S
H2771 C2790 0.951 . S
H2772 C2792 0.950 . S
H2773 C2793 0.950 . S
H2774 C2795 0.950 . S
H2775 C2798 0.950 . S
H2776 C2799 0.950 . S
H2777 C2801 0.950 . S
H2778 C2802 0.950 . S
H2779 C2803 0.951 . S
H2780 C2805 0.951 . S
H2781 C2807 0.950 . S
H2782 C2808 0.950 . S
H2783 C2810 0.950 . S
H2784 C2813 0.950 . S
H2785 C2814 0.950 . S
H2786 C2816 0.950 . S
H2787 C2817 0.950 . S
C2788 H2770 0.951 . S
C2788 C2789 1.366 . S
C2788 C2790 1.388 . S
C2789 C2788 1.366 . S
C2789 C2793 1.385 . S
C2790 H2771 0.951 . S
C2790 C2788 1.388 . S
C2790 C2791 1.366 . S
C2791 C2790 1.366 . S
C2791 C2792 1.414 . S
C2791 C2794 1.499 . S
C2792 H2772 0.950 . S
C2792 C2791 1.414 . S
C2792 C2793 1.374 . S
C2793 H2773 0.950 . S
C2793 C2789 1.385 . S
C2793 C2792 1.374 . S
C2794 C2791 1.499 . S
C2794 C2795 1.373 . S
C2794 C2796 1.389 . S
C2795 H2774 0.950 . S
C2795 C2794 1.373 . S
C2795 C2811 1.377 . S
C2796 C2794 1.389 . S
C2796 C2797 1.524 . S
C2796 C2810 1.377 . S
C2797 C2796 1.524 . S
C2797 C2798 1.397 . S
C2797 C2802 1.363 . S
C2798 H2775 0.950 . S
C2798 C2797 1.397 . S
C2798 C2799 1.334 . S
C2799 H2776 0.950 . S
C2799 C2798 1.334 . S
C2799 C2800 1.287 . S
C2800 C2799 1.287 . S
C2800 C2801 1.524 . S
C2800 H2819 0.913 . S
C2801 H2777 0.950 . S
C2801 C2800 1.524 . S
C2801 C2802 1.415 . S
C2802 H2778 0.950 . S
C2802 C2797 1.363 . S
C2802 C2801 1.415 . S
C2803 H2779 0.951 . S
C2803 C2804 1.366 . S
C2803 C2805 1.388 . S
C2804 C2803 1.366 . S
C2804 C2808 1.385 . S
C2805 H2780 0.951 . S
C2805 C2803 1.388 . S
C2805 C2806 1.366 . S
C2806 C2805 1.366 . S
C2806 C2807 1.414 . S
C2806 C2809 1.499 . S
C2807 H2781 0.950 . S
C2807 C2806 1.414 . S
C2807 C2808 1.374 . S
C2808 H2782 0.950 . S
C2808 C2804 1.385 . S
C2808 C2807 1.374 . S
C2809 C2806 1.499 . S
C2809 C2810 1.373 . S
C2809 C2811 1.389 . S
C2810 H2783 0.950 . S
C2810 C2796 1.377 . S
C2810 C2809 1.373 . S
C2811 C2795 1.377 . S
C2811 C2809 1.389 . S
C2811 C2812 1.524 . S
C2812 C2811 1.524 . S
C2812 C2813 1.397 . S
C2812 C2817 1.363 . S
C2813 H2784 0.950 . S
C2813 C2812 1.397 . S
C2813 C2814 1.334 . S
C2814 H2785 0.950 . S
C2814 C2813 1.334 . S
C2814 C2815 1.287 . S
C2815 C2814 1.287 . S
C2815 C2816 1.524 . S
C2815 H2818 0.999 . S
C2816 H2786 0.950 . S
C2816 C2815 1.524 . S
C2816 C2817 1.415 . S
C2817 H2787 0.950 . S
C2817 C2812 1.363 . S
C2817 C2816 1.415 . S
H2818 C2815 0.999 . S
H2819 C2800 0.913 . S
H2820 C2838 0.951 . S
H2821 C2840 0.951 . S
H2822 C2842 0.950 . S
H2823 C2843 0.950 . S
H2824 C2845 0.950 . S
H2825 C2848 0.950 . S
H2826 C2849 0.950 . S
H2827 C2851 0.950 . S
H2828 C2852 0.950 . S
H2829 C2853 0.951 . S
H2830 C2855 0.951 . S
H2831 C2857 0.950 . S
H2832 C2858 0.950 . S
H2833 C2860 0.950 . S
H2834 C2863 0.950 . S
H2835 C2864 0.950 . S
H2836 C2866 0.950 . S
H2837 C2867 0.950 . S
C2838 H2820 0.951 . S
C2838 C2839 1.366 . S
C2838 C2840 1.388 . S
C2839 C2838 1.366 . S
C2839 C2843 1.385 . S
C2840 H2821 0.951 . S
C2840 C2838 1.388 . S
C2840 C2841 1.366 . S
C2841 C2840 1.366 . S
C2841 C2842 1.414 . S
C2841 C2844 1.499 . S
C2842 H2822 0.950 . S
C2842 C2841 1.414 . S
C2842 C2843 1.374 . S
C2843 H2823 0.950 . S
C2843 C2839 1.385 . S
C2843 C2842 1.374 . S
C2844 C2841 1.499 . S
C2844 C2845 1.373 . S
C2844 C2846 1.389 . S
C2845 H2824 0.950 . S
C2845 C2844 1.373 . S
C2845 C2861 1.377 . S
C2846 C2844 1.389 . S
C2846 C2847 1.524 . S
C2846 C2860 1.377 . S
C2847 C2846 1.524 . S
C2847 C2848 1.397 . S
C2847 C2852 1.363 . S
C2848 H2825 0.950 . S
C2848 C2847 1.397 . S
C2848 C2849 1.334 . S
C2849 H2826 0.950 . S
C2849 C2848 1.334 . S
C2849 C2850 1.287 . S
C2850 C2849 1.287 . S
C2850 C2851 1.524 . S
C2850 H2869 0.913 . S
C2851 H2827 0.950 . S
C2851 C2850 1.524 . S
C2851 C2852 1.415 . S
C2852 H2828 0.950 . S
C2852 C2847 1.363 . S
C2852 C2851 1.415 . S
C2853 H2829 0.951 . S
C2853 C2854 1.366 . S
C2853 C2855 1.388 . S
C2854 C2853 1.366 . S
C2854 C2858 1.385 . S
C2855 H2830 0.951 . S
C2855 C2853 1.388 . S
C2855 C2856 1.366 . S
C2856 C2855 1.366 . S
C2856 C2857 1.414 . S
C2856 C2859 1.499 . S
C2857 H2831 0.950 . S
C2857 C2856 1.414 . S
C2857 C2858 1.374 . S
C2858 H2832 0.950 . S
C2858 C2854 1.385 . S
C2858 C2857 1.374 . S
C2859 C2856 1.499 . S
C2859 C2860 1.373 . S
C2859 C2861 1.389 . S
C2860 H2833 0.950 . S
C2860 C2846 1.377 . S
C2860 C2859 1.373 . S
C2861 C2845 1.377 . S
C2861 C2859 1.389 . S
C2861 C2862 1.524 . S
C2862 C2861 1.524 . S
C2862 C2863 1.397 . S
C2862 C2867 1.363 . S
C2863 H2834 0.950 . S
C2863 C2862 1.397 . S
C2863 C2864 1.334 . S
C2864 H2835 0.950 . S
C2864 C2863 1.334 . S
C2864 C2865 1.287 . S
C2865 C2864 1.287 . S
C2865 C2866 1.524 . S
C2865 H2868 0.999 . S
C2866 H2836 0.950 . S
C2866 C2865 1.524 . S
C2866 C2867 1.415 . S
C2867 H2837 0.950 . S
C2867 C2862 1.363 . S
C2867 C2866 1.415 . S
H2868 C2865 0.999 . S
H2869 C2850 0.913 . S
H2870 C2888 0.951 . S
H2871 C2890 0.951 . S
H2872 C2892 0.950 . S
H2873 C2893 0.950 . S
H2874 C2895 0.912 1_545 S
H2875 C2898 0.950 . S
H2876 C2899 0.950 . S
H2877 C2901 0.950 . S
H2878 C2902 0.950 . S
H2879 C2903 0.951 . S
H2880 C2905 0.951 . S
H2881 C2907 0.950 . S
H2882 C2908 0.950 . S
H2883 C2910 0.950 . S
H2884 C2913 0.950 . S
H2885 C2914 0.950 . S
H2886 C2916 0.950 . S
H2887 C2917 0.950 . S
C2888 H2870 0.951 . S
C2888 C2889 1.366 . S
C2888 C2890 1.388 . S
C2889 C2888 1.366 . S
C2889 C2893 1.385 1_565 S
C2890 H2871 0.951 . S
C2890 C2888 1.388 . S
C2890 C2891 1.366 . S
C2891 C2890 1.366 . S
C2891 C2892 1.414 1_565 S
C2891 C2894 1.499 . S
C2892 H2872 0.950 . S
C2892 C2891 1.414 1_545 S
C2892 C2893 1.374 . S
C2893 H2873 0.950 . S
C2893 C2889 1.385 1_545 S
C2893 C2892 1.374 . S
C2894 C2891 1.499 . S
C2894 C2895 1.403 . S
C2894 C2896 1.389 . S
C2895 H2874 0.912 1_565 S
C2895 C2894 1.403 . S
C2895 C2911 1.385 . S
C2896 C2894 1.389 . S
C2896 C2897 1.524 . S
C2896 C2910 1.377 . S
C2897 C2896 1.524 . S
C2897 C2898 1.397 . S
C2897 C2902 1.363 . S
C2898 H2875 0.950 . S
C2898 C2897 1.397 . S
C2898 C2899 1.334 . S
C2899 H2876 0.950 . S
C2899 C2898 1.334 . S
C2899 C2900 1.287 . S
C2900 C2899 1.287 . S
C2900 C2901 1.524 . S
C2900 H2919 0.913 . S
C2901 H2877 0.950 . S
C2901 C2900 1.524 . S
C2901 C2902 1.415 . S
C2902 H2878 0.950 . S
C2902 C2897 1.363 . S
C2902 C2901 1.415 . S
C2903 H2879 0.951 . S
C2903 C2904 1.366 . S
C2903 C2905 1.388 . S
C2904 C2903 1.366 . S
C2904 C2908 1.385 . S
C2905 H2880 0.951 . S
C2905 C2903 1.388 . S
C2905 C2906 1.366 . S
C2906 C2905 1.366 . S
C2906 C2907 1.414 . S
C2906 C2909 1.499 . S
C2907 H2881 0.950 . S
C2907 C2906 1.414 . S
C2907 C2908 1.374 . S
C2908 H2882 0.950 . S
C2908 C2904 1.385 . S
C2908 C2907 1.374 . S
C2909 C2906 1.499 . S
C2909 C2910 1.373 . S
C2909 C2911 1.389 . S
C2910 H2883 0.950 . S
C2910 C2896 1.377 . S
C2910 C2909 1.373 . S
C2911 C2895 1.385 . S
C2911 C2909 1.389 . S
C2911 C2912 1.524 1_565 S
C2912 C2911 1.524 1_545 S
C2912 C2913 1.397 . S
C2912 C2917 1.363 . S
C2913 H2884 0.950 . S
C2913 C2912 1.397 . S
C2913 C2914 1.334 . S
C2914 H2885 0.950 . S
C2914 C2913 1.334 . S
C2914 C2915 1.287 . S
C2915 C2914 1.287 . S
C2915 C2916 1.524 . S
C2915 H2918 0.999 . S
C2916 H2886 0.950 . S
C2916 C2915 1.524 . S
C2916 C2917 1.415 . S
C2917 H2887 0.950 . S
C2917 C2912 1.363 . S
C2917 C2916 1.415 . S
H2918 C2915 0.999 . S
H2919 C2900 0.913 . S
H2920 C2938 0.951 . S
H2921 C2940 0.951 . S
H2922 C2942 0.950 . S
H2923 C2943 0.950 . S
H2924 C2945 0.950 . S
H2925 C2948 0.950 . S
H2926 C2949 0.950 . S
H2927 C2951 0.950 . S
H2928 C2952 0.950 . S
H2929 C2953 0.951 . S
H2930 C2955 0.951 . S
H2931 C2957 0.950 . S
H2932 C2958 0.950 . S
H2933 C2960 0.950 . S
H2934 C2963 0.950 . S
H2935 C2964 0.950 . S
H2936 C2966 0.950 . S
H2937 C2967 0.950 . S
C2938 H2920 0.951 . S
C2938 C2939 1.366 . S
C2938 C2940 1.388 . S
C2939 C2938 1.366 . S
C2939 C2943 1.385 . S
C2940 H2921 0.951 . S
C2940 C2938 1.388 . S
C2940 C2941 1.366 . S
C2941 C2940 1.366 . S
C2941 C2942 1.414 . S
C2941 C2944 1.499 . S
C2942 H2922 0.950 . S
C2942 C2941 1.414 . S
C2942 C2943 1.374 . S
C2943 H2923 0.950 . S
C2943 C2939 1.385 . S
C2943 C2942 1.374 . S
C2944 C2941 1.499 . S
C2944 C2945 1.373 . S
C2944 C2946 1.389 . S
C2945 H2924 0.950 . S
C2945 C2944 1.373 . S
C2945 C2961 1.377 . S
C2946 C2944 1.389 . S
C2946 C2947 1.524 . S
C2946 C2960 1.377 . S
C2947 C2946 1.524 . S
C2947 C2948 1.397 . S
C2947 C2952 1.363 . S
C2948 H2925 0.950 . S
C2948 C2947 1.397 . S
C2948 C2949 1.334 . S
C2949 H2926 0.950 . S
C2949 C2948 1.334 . S
C2949 C2950 1.287 . S
C2950 C2949 1.287 . S
C2950 C2951 1.524 . S
C2950 H2969 0.913 . S
C2951 H2927 0.950 . S
C2951 C2950 1.524 . S
C2951 C2952 1.415 . S
C2952 H2928 0.950 . S
C2952 C2947 1.363 . S
C2952 C2951 1.415 . S
C2953 H2929 0.951 . S
C2953 C2954 1.366 . S
C2953 C2955 1.388 . S
C2954 C2953 1.366 . S
C2954 C2958 1.385 . S
C2955 H2930 0.951 . S
C2955 C2953 1.388 . S
C2955 C2956 1.366 . S
C2956 C2955 1.366 . S
C2956 C2957 1.414 . S
C2956 C2959 1.499 . S
C2957 H2931 0.950 . S
C2957 C2956 1.414 . S
C2957 C2958 1.374 . S
C2958 H2932 0.950 . S
C2958 C2954 1.385 . S
C2958 C2957 1.374 . S
C2959 C2956 1.499 . S
C2959 C2960 1.373 . S
C2959 C2961 1.389 . S
C2960 H2933 0.950 . S
C2960 C2946 1.377 . S
C2960 C2959 1.373 . S
C2961 C2945 1.377 . S
C2961 C2959 1.389 . S
C2961 C2962 1.524 . S
C2962 C2961 1.524 . S
C2962 C2963 1.397 . S
C2962 C2967 1.363 . S
C2963 H2934 0.950 . S
C2963 C2962 1.397 . S
C2963 C2964 1.334 . S
C2964 H2935 0.950 . S
C2964 C2963 1.334 . S
C2964 C2965 1.287 . S
C2965 C2964 1.287 . S
C2965 C2966 1.524 . S
C2965 H2968 0.999 . S
C2966 H2936 0.950 . S
C2966 C2965 1.524 . S
C2966 C2967 1.415 . S
C2967 H2937 0.950 . S
C2967 C2962 1.363 . S
C2967 C2966 1.415 . S
H2968 C2965 0.999 . S
H2969 C2950 0.913 . S
H2970 C2988 0.951 . S
H2971 C2990 0.951 . S
H2972 C2992 0.950 . S
H2973 C2993 0.950 . S
H2974 C2995 0.950 . S
H2975 C2998 0.950 . S
H2976 C2999 0.950 . S
H2977 C3001 0.950 . S
H2978 C3002 0.950 . S
H2979 C3003 0.951 . S
H2980 C3005 0.951 . S
H2981 C3007 0.950 . S
H2982 C3008 0.950 . S
H2983 C3010 0.950 . S
H2984 C3013 0.950 . S
H2985 C3014 0.950 . S
H2986 C3016 0.950 . S
H2987 C3017 0.950 . S
C2988 H2970 0.951 . S
C2988 C2989 1.366 . S
C2988 C2990 1.388 . S
C2989 C2988 1.366 . S
C2989 C2993 1.385 . S
C2990 H2971 0.951 . S
C2990 C2988 1.388 . S
C2990 C2991 1.366 . S
C2991 C2990 1.366 . S
C2991 C2992 1.414 . S
C2991 C2994 1.499 . S
C2992 H2972 0.950 . S
C2992 C2991 1.414 . S
C2992 C2993 1.374 . S
C2993 H2973 0.950 . S
C2993 C2989 1.385 . S
C2993 C2992 1.374 . S
C2994 C2991 1.499 . S
C2994 C2995 1.373 . S
C2994 C2996 1.389 . S
C2995 H2974 0.950 . S
C2995 C2994 1.373 . S
C2995 C3011 1.377 . S
C2996 C2994 1.389 . S
C2996 C2997 1.524 . S
C2996 C3010 1.377 . S
C2997 C2996 1.524 . S
C2997 C2998 1.397 . S
C2997 C3002 1.363 . S
C2998 H2975 0.950 . S
C2998 C2997 1.397 . S
C2998 C2999 1.334 . S
C2999 H2976 0.950 . S
C2999 C2998 1.334 . S
C2999 C3000 1.287 . S
C3000 C2999 1.287 . S
C3000 C3001 1.524 . S
C3000 H3019 0.913 . S
C3001 H2977 0.950 . S
C3001 C3000 1.524 . S
C3001 C3002 1.415 . S
C3002 H2978 0.950 . S
C3002 C2997 1.363 . S
C3002 C3001 1.415 . S
C3003 H2979 0.951 . S
C3003 C3004 1.366 . S
C3003 C3005 1.388 . S
C3004 C3003 1.366 . S
C3004 C3008 1.385 . S
C3005 H2980 0.951 . S
C3005 C3003 1.388 . S
C3005 C3006 1.366 . S
C3006 C3005 1.366 . S
C3006 C3007 1.414 . S
C3006 C3009 1.499 . S
C3007 H2981 0.950 . S
C3007 C3006 1.414 . S
C3007 C3008 1.374 . S
C3008 H2982 0.950 . S
C3008 C3004 1.385 . S
C3008 C3007 1.374 . S
C3009 C3006 1.499 . S
C3009 C3010 1.373 . S
C3009 C3011 1.389 . S
C3010 H2983 0.950 . S
C3010 C2996 1.377 . S
C3010 C3009 1.373 . S
C3011 C2995 1.377 . S
C3011 C3009 1.389 . S
C3011 C3012 1.524 . S
C3012 C3011 1.524 . S
C3012 C3013 1.397 . S
C3012 C3017 1.363 . S
C3013 H2984 0.950 . S
C3013 C3012 1.397 . S
C3013 C3014 1.334 . S
C3014 H2985 0.950 . S
C3014 C3013 1.334 . S
C3014 C3015 1.287 . S
C3015 C3014 1.287 . S
C3015 C3016 1.524 . S
C3015 H3018 0.999 . S
C3016 H2986 0.950 . S
C3016 C3015 1.524 . S
C3016 C3017 1.415 . S
C3017 H2987 0.950 . S
C3017 C3012 1.363 . S
C3017 C3016 1.415 . S
H3018 C3015 0.999 . S
H3019 C3000 0.913 . S
H3020 C3038 0.951 . S
H3021 C3040 0.951 . S
H3022 C3042 0.950 . S
H3023 C3043 0.950 . S
H3024 C3045 0.950 . S
H3025 C3048 0.950 . S
H3026 C3049 0.950 . S
H3027 C3051 0.950 . S
H3028 C3052 0.950 . S
H3029 C3053 0.951 . S
H3030 C3055 0.951 . S
H3031 C3057 0.950 . S
H3032 C3058 0.950 . S
H3033 C3060 0.950 . S
H3034 C3063 0.950 . S
H3035 C3064 0.950 . S
H3036 C3066 0.950 . S
H3037 C3067 0.950 . S
C3038 H3020 0.951 . S
C3038 C3039 1.366 . S
C3038 C3040 1.388 . S
C3039 C3038 1.366 . S
C3039 C3043 1.385 . S
C3040 H3021 0.951 . S
C3040 C3038 1.388 . S
C3040 C3041 1.366 . S
C3041 C3040 1.366 . S
C3041 C3042 1.414 . S
C3041 C3044 1.499 . S
C3042 H3022 0.950 . S
C3042 C3041 1.414 . S
C3042 C3043 1.374 . S
C3043 H3023 0.950 . S
C3043 C3039 1.385 . S
C3043 C3042 1.374 . S
C3044 C3041 1.499 . S
C3044 C3045 1.373 . S
C3044 C3046 1.389 . S
C3045 H3024 0.950 . S
C3045 C3044 1.373 . S
C3045 C3061 1.377 . S
C3046 C3044 1.389 . S
C3046 C3047 1.524 . S
C3046 C3060 1.377 . S
C3047 C3046 1.524 . S
C3047 C3048 1.397 . S
C3047 C3052 1.363 . S
C3048 H3025 0.950 . S
C3048 C3047 1.397 . S
C3048 C3049 1.334 . S
C3049 H3026 0.950 . S
C3049 C3048 1.334 . S
C3049 C3050 1.287 . S
C3050 C3049 1.287 . S
C3050 C3051 1.524 . S
C3050 H3069 0.913 . S
C3051 H3027 0.950 . S
C3051 C3050 1.524 . S
C3051 C3052 1.415 . S
C3052 H3028 0.950 . S
C3052 C3047 1.363 . S
C3052 C3051 1.415 . S
C3053 H3029 0.951 . S
C3053 C3054 1.366 . S
C3053 C3055 1.388 . S
C3054 C3053 1.366 . S
C3054 C3058 1.385 . S
C3055 H3030 0.951 . S
C3055 C3053 1.388 . S
C3055 C3056 1.366 . S
C3056 C3055 1.366 . S
C3056 C3057 1.414 . S
C3056 C3059 1.499 . S
C3057 H3031 0.950 . S
C3057 C3056 1.414 . S
C3057 C3058 1.374 . S
C3058 H3032 0.950 . S
C3058 C3054 1.385 . S
C3058 C3057 1.374 . S
C3059 C3056 1.499 . S
C3059 C3060 1.373 . S
C3059 C3061 1.389 . S
C3060 H3033 0.950 . S
C3060 C3046 1.377 . S
C3060 C3059 1.373 . S
C3061 C3045 1.377 . S
C3061 C3059 1.389 . S
C3061 C3062 1.524 . S
C3062 C3061 1.524 . S
C3062 C3063 1.397 . S
C3062 C3067 1.363 . S
C3063 H3034 0.950 . S
C3063 C3062 1.397 . S
C3063 C3064 1.334 . S
C3064 H3035 0.950 . S
C3064 C3063 1.334 . S
C3064 C3065 1.287 . S
C3065 C3064 1.287 . S
C3065 C3066 1.524 . S
C3065 H3068 0.999 . S
C3066 H3036 0.950 . S
C3066 C3065 1.524 . S
C3066 C3067 1.415 . S
C3067 H3037 0.950 . S
C3067 C3062 1.363 . S
C3067 C3066 1.415 . S
H3068 C3065 0.999 . S
H3069 C3050 0.913 . S
H3070 C3088 0.951 . S
H3071 C3090 0.951 . S
H3072 C3092 0.985 . S
H3073 C3093 0.950 . S
H3074 C3095 0.950 . S
H3075 C3098 0.950 1_554 S
H3076 C3099 0.950 1_554 S
H3077 C3101 0.950 . S
H3078 C3102 0.950 . S
H3079 C3103 0.951 1_554 S
H3080 C3105 0.951 1_554 S
H3081 C3107 0.950 . S
H3082 C3108 0.950 . S
H3083 C3110 0.950 . S
H3084 C3113 0.950 . S
H3085 C3114 0.950 . S
H3086 C3116 0.945 . S
H3087 C3117 0.950 1_554 S
C3088 H3070 0.951 . S
C3088 C3089 1.366 . S
C3088 C3090 1.388 . S
C3089 C3088 1.366 . S
C3089 C3093 1.385 1_556 S
C3090 H3071 0.951 . S
C3090 C3088 1.388 . S
C3090 C3091 1.366 . S
C3091 C3090 1.366 . S
C3091 C3092 1.377 1_556 S
C3091 C3094 1.499 . S
C3092 H3072 0.985 . S
C3092 C3091 1.377 1_554 S
C3092 C3093 1.378 . S
C3093 H3073 0.950 . S
C3093 C3089 1.385 1_554 S
C3093 C3092 1.378 . S
C3094 C3091 1.499 . S
C3094 C3095 1.373 . S
C3094 C3096 1.389 . S
C3095 H3074 0.950 . S
C3095 C3094 1.373 . S
C3095 C3111 1.377 . S
C3096 C3094 1.389 . S
C3096 C3097 1.524 . S
C3096 C3110 1.377 . S
C3097 C3096 1.524 . S
C3097 C3098 1.397 . S
C3097 C3102 1.363 . S
C3098 H3075 0.950 1_556 S
C3098 C3097 1.397 . S
C3098 C3099 1.334 . S
C3099 H3076 0.950 1_556 S
C3099 C3098 1.334 . S
C3099 C3100 1.287 . S
C3100 C3099 1.287 . S
C3100 C3101 1.524 . S
C3100 H3119 0.913 . S
C3101 H3077 0.950 . S
C3101 C3100 1.524 . S
C3101 C3102 1.415 . S
C3102 H3078 0.950 . S
C3102 C3097 1.363 . S
C3102 C3101 1.415 . S
C3103 H3079 0.951 1_556 S
C3103 C3104 1.366 . S
C3103 C3105 1.388 . S
C3104 C3103 1.366 . S
C3104 C3108 1.385 . S
C3105 H3080 0.951 1_556 S
C3105 C3103 1.388 . S
C3105 C3106 1.366 . S
C3106 C3105 1.366 . S
C3106 C3107 1.414 . S
C3106 C3109 1.499 . S
C3107 H3081 0.950 . S
C3107 C3106 1.414 . S
C3107 C3108 1.374 . S
C3108 H3082 0.950 . S
C3108 C3104 1.385 . S
C3108 C3107 1.374 . S
C3109 C3106 1.499 . S
C3109 C3110 1.373 . S
C3109 C3111 1.389 . S
C3110 H3083 0.950 . S
C3110 C3096 1.377 . S
C3110 C3109 1.373 . S
C3111 C3095 1.377 . S
C3111 C3109 1.389 . S
C3111 C3112 1.524 . S
C3112 C3111 1.524 . S
C3112 C3113 1.397 . S
C3112 C3117 1.363 . S
C3113 H3084 0.950 . S
C3113 C3112 1.397 . S
C3113 C3114 1.334 . S
C3114 H3085 0.950 . S
C3114 C3113 1.334 . S
C3114 C3115 1.287 . S
C3115 C3114 1.287 . S
C3115 C3116 1.529 1_556 S
C3115 H3118 0.999 . S
C3116 H3086 0.945 . S
C3116 C3115 1.529 1_554 S
C3116 C3117 1.415 1_554 S
C3117 H3087 0.950 1_556 S
C3117 C3112 1.363 . S
C3117 C3116 1.415 1_556 S
H3118 C3115 0.999 . S
H3119 C3100 0.913 . S
H3120 C3138 0.951 . S
H3121 C3140 0.951 . S
H3122 C3142 0.951 . S
H3123 C3143 0.950 . S
H3124 C3145 0.950 . S
H3125 C3148 0.950 . S
H3126 C3149 0.950 . S
H3127 C3151 0.950 . S
H3128 C3152 0.981 . S
H3129 C3153 0.951 . S
H3130 C3155 0.951 . S
H3131 C3157 0.950 . S
H3132 C3158 0.950 . S
H3133 C3160 0.950 . S
H3134 C3163 0.950 . S
H3135 C3164 0.950 . S
H3136 C3166 0.950 . S
H3137 C3167 0.950 . S
C3138 H3120 0.951 . S
C3138 C3139 1.366 1_556 S
C3138 C3140 1.388 . S
C3139 C3138 1.366 1_554 S
C3139 C3143 1.385 . S
C3140 H3121 0.951 . S
C3140 C3138 1.388 . S
C3140 C3141 1.366 . S
C3141 C3140 1.366 . S
C3141 C3142 1.411 1_556 S
C3141 C3144 1.499 . S
C3142 H3122 0.951 . S
C3142 C3141 1.411 1_554 S
C3142 C3143 1.376 . S
C3143 H3123 0.950 . S
C3143 C3139 1.385 . S
C3143 C3142 1.376 . S
C3144 C3141 1.499 . S
C3144 C3145 1.373 . S
C3144 C3146 1.389 . S
C3145 H3124 0.950 . S
C3145 C3144 1.373 . S
C3145 C3161 1.377 . S
C3146 C3144 1.389 . S
C3146 C3147 1.524 1_556 S
C3146 C3160 1.377 . S
C3147 C3146 1.524 1_554 S
C3147 C3148 1.397 . S
C3147 C3152 1.363 . S
C3148 H3125 0.950 . S
C3148 C3147 1.397 . S
C3148 C3149 1.334 . S
C3149 H3126 0.950 . S
C3149 C3148 1.334 . S
C3149 C3150 1.287 . S
C3150 C3149 1.287 . S
C3150 C3151 1.524 . S
C3150 H3169 0.913 . S
C3151 H3127 0.950 . S
C3151 C3150 1.524 . S
C3151 C3152 1.415 . S
C3152 H3128 0.981 . S
C3152 C3147 1.363 . S
C3152 C3151 1.415 . S
C3153 H3129 0.951 . S
C3153 C3154 1.366 . S
C3153 C3155 1.388 . S
C3154 C3153 1.366 . S
C3154 C3158 1.385 . S
C3155 H3130 0.951 . S
C3155 C3153 1.388 . S
C3155 C3156 1.366 . S
C3156 C3155 1.366 . S
C3156 C3157 1.414 . S
C3156 C3159 1.499 . S
C3157 H3131 0.950 . S
C3157 C3156 1.414 . S
C3157 C3158 1.374 . S
C3158 H3132 0.950 . S
C3158 C3154 1.385 . S
C3158 C3157 1.374 . S
C3159 C3156 1.499 . S
C3159 C3160 1.373 . S
C3159 C3161 1.389 . S
C3160 H3133 0.950 . S
C3160 C3146 1.377 . S
C3160 C3159 1.373 . S
C3161 C3145 1.377 . S
C3161 C3159 1.389 . S
C3161 C3162 1.524 . S
C3162 C3161 1.524 . S
C3162 C3163 1.397 . S
C3162 C3167 1.363 . S
C3163 H3134 0.950 . S
C3163 C3162 1.397 . S
C3163 C3164 1.334 . S
C3164 H3135 0.950 . S
C3164 C3163 1.334 . S
C3164 C3165 1.287 . S
C3165 C3164 1.287 . S
C3165 C3166 1.524 . S
C3165 H3168 0.999 . S
C3166 H3136 0.950 . S
C3166 C3165 1.524 . S
C3166 C3167 1.415 . S
C3167 H3137 0.950 . S
C3167 C3162 1.363 . S
C3167 C3166 1.415 . S
H3168 C3165 0.999 . S
H3169 C3150 0.913 . S
H3170 C3188 0.951 . S
H3171 C3190 0.951 . S
H3172 C3192 0.950 . S
H3173 C3193 0.950 1_556 S
H3174 C3195 0.950 . S
H3175 C3198 0.950 . S
H3176 C3199 0.950 . S
H3177 C3201 0.950 . S
H3178 C3202 0.950 . S
H3179 C3203 0.951 . S
H3180 C3205 0.951 . S
H3181 C3207 0.950 . S
H3182 C3208 0.950 . S
H3183 C3210 0.950 . S
H3184 C3213 0.950 . S
H3185 C3214 0.950 . S
H3186 C3216 0.950 . S
H3187 C3217 0.950 . S
C3188 H3170 0.951 . S
C3188 C3189 1.366 . S
C3188 C3190 1.388 . S
C3189 C3188 1.366 . S
C3189 C3193 1.385 . S
C3190 H3171 0.951 . S
C3190 C3188 1.388 . S
C3190 C3191 1.366 . S
C3191 C3190 1.366 . S
C3191 C3192 1.414 . S
C3191 C3194 1.499 . S
C3192 H3172 0.950 . S
C3192 C3191 1.414 . S
C3192 C3193 1.374 . S
C3193 H3173 0.950 1_554 S
C3193 C3189 1.385 . S
C3193 C3192 1.374 . S
C3194 C3191 1.499 . S
C3194 C3195 1.373 . S
C3194 C3196 1.389 . S
C3195 H3174 0.950 . S
C3195 C3194 1.373 . S
C3195 C3211 1.377 . S
C3196 C3194 1.389 . S
C3196 C3197 1.524 . S
C3196 C3210 1.377 . S
C3197 C3196 1.524 . S
C3197 C3198 1.397 1_554 S
C3197 C3202 1.363 . S
C3198 H3175 0.950 . S
C3198 C3197 1.397 1_556 S
C3198 C3199 1.334 . S
C3199 H3176 0.950 . S
C3199 C3198 1.334 . S
C3199 C3200 1.287 . S
C3200 C3199 1.287 . S
C3200 C3201 1.524 1_556 S
C3200 H3219 0.913 . S
C3201 H3177 0.950 . S
C3201 C3200 1.524 1_554 S
C3201 C3202 1.415 . S
C3202 H3178 0.950 . S
C3202 C3197 1.363 . S
C3202 C3201 1.415 . S
C3203 H3179 0.951 . S
C3203 C3204 1.366 . S
C3203 C3205 1.388 . S
C3204 C3203 1.366 . S
C3204 C3208 1.385 . S
C3205 H3180 0.951 . S
C3205 C3203 1.388 . S
C3205 C3206 1.366 . S
C3206 C3205 1.366 . S
C3206 C3207 1.414 . S
C3206 C3209 1.499 . S
C3207 H3181 0.950 . S
C3207 C3206 1.414 . S
C3207 C3208 1.374 . S
C3208 H3182 0.950 . S
C3208 C3204 1.385 . S
C3208 C3207 1.374 . S
C3209 C3206 1.499 . S
C3209 C3210 1.373 . S
C3209 C3211 1.389 . S
C3210 H3183 0.950 . S
C3210 C3196 1.377 . S
C3210 C3209 1.373 . S
C3211 C3195 1.377 . S
C3211 C3209 1.389 . S
C3211 C3212 1.524 . S
C3212 C3211 1.524 . S
C3212 C3213 1.397 . S
C3212 C3217 1.363 . S
C3213 H3184 0.950 . S
C3213 C3212 1.397 . S
C3213 C3214 1.334 . S
C3214 H3185 0.950 . S
C3214 C3213 1.334 . S
C3214 C3215 1.287 . S
C3215 C3214 1.287 . S
C3215 C3216 1.524 . S
C3215 H3218 0.999 . S
C3216 H3186 0.950 . S
C3216 C3215 1.524 . S
C3216 C3217 1.415 . S
C3217 H3187 0.950 . S
C3217 C3212 1.363 . S
C3217 C3216 1.415 . S
H3218 C3215 0.999 . S
H3219 C3200 0.913 . S
C839 C22 1.664 . S
C854 C699 1.665 1_545 S
C904 C725 1.788 . S
C889 C38 1.809 . S
C954 C657 1.774 1_565 S
C939 C75 1.757 . S
C989 C91 1.499 . S
C1004 C680 1.504 . S
C1039 C128 1.577 . S
C1054 C814 1.583 1_554 S
C1089 C197 1.406 . S
C1104 C795 1.416 . S
C1154 C748 1.853 . S
C1139 C144 1.874 . S
C1189 C181 1.757 . S
C1204 C771 1.755 . S
C1254 C676 1.789 . S
C1239 C234 1.795 . S
C1304 C726 1.551 . S
C1289 C303 1.545 . S
C1339 C356 1.716 . S
C1354 C702 1.691 1_655 S
C1389 C287 1.857 . S
C1404 C768 1.864 . S
C1454 C791 1.621 . S
C1439 C393 1.618 . S
C1504 C817 1.827 1_565 S
C1489 C409 1.836 . S
C1539 C462 1.950 . S
C1554 C772 1.964 . S
C1604 C749 1.398 1_545 S
C1589 C446 1.393 . S
C1639 C499 1.571 . S
C1654 C722 1.570 . S
C1689 C552 1.382 . S
C1704 C703 1.393 . S
C1754 C679 1.678 1_556 S
C1739 C515 1.751 . S
C1789 C568 2.012 . S
C1804 C656 2.005 1_556 S
C1854 C745 1.873 . S
C1839 C340 1.874 . S
C1904 C818 1.451 . S
C1889 C621 1.448 . S
C1939 C250 1.610 . S
C1954 C794 1.587 . S
C1989 C605 1.794 . S
C2004 C653 1.790 . S
C2054 C655 1.339 . S
C2039 C39 1.360 . S
C2089 C29 1.190 . S
C2104 C678 1.153 . S
C2154 C700 1.227 . S
C2139 C92 1.211 . S
C2204 C721 1.113 . S
C2189 C82 1.101 . S
C2239 C145 1.484 . S
C2254 C652 1.495 . S
C2289 C188 1.182 . S
C2304 C675 1.194 . S
C2354 C701 1.216 . S
C2339 C135 1.248 . S
C2389 C198 1.371 . S
C2404 C723 1.390 . S
C2439 C251 1.269 . S
C2454 C654 1.276 . S
C2504 C698 1.131 . S
C2489 C294 1.119 . S
C2539 C347 1.245 . S
C2554 C724 1.218 . S
C2589 C304 1.256 . S
C2604 C746 1.266 . S
C2654 C770 1.344 . S
C2639 C410 1.377 . S
C2689 C400 1.208 . S
C2704 C747 1.180 . S
C2739 C453 0.930 . S
C2754 C792 0.940 . S
C2789 C463 1.401 . S
C2804 C813 1.410 . S
C2839 C516 1.464 . S
C2854 C767 1.482 . S
C2904 C744 1.501 . S
C2889 C569 1.493 1_565 S
C2939 C506 1.186 . S
C2954 C793 1.145 . S
C3004 C815 1.149 . S
C2989 C559 1.137 . S
C3054 C769 1.260 . S
C3039 C357 1.260 . S
C3104 C790 1.132 . S
C3089 C612 1.123 . S
C3154 C816 1.179 . S
C3139 C241 1.204 . S
C3189 C622 1.150 . S
C3204 C677 1.162 . S
