# Generated by pormake.
# Topology tph, (6,8)-cn, num edge types: 1
# Building blocks:
#     Node 0, Type 0, BuildingBlock: OJICUG_clean_sbu_0, # of connection points: 6
#     Node 1, Type 0, BuildingBlock: OJICUG_clean_sbu_0, # of connection points: 6
#     Node 2, Type 0, BuildingBlock: OJICUG_clean_sbu_0, # of connection points: 6
#     Node 3, Type 0, BuildingBlock: OJICUG_clean_sbu_0, # of connection points: 6
#     Node 4, Type 0, BuildingBlock: OJICUG_clean_sbu_0, # of connection points: 6
#     Node 5, Type 0, BuildingBlock: OJICUG_clean_sbu_0, # of connection points: 6
#     Node 6, Type 0, BuildingBlock: OJICUG_clean_sbu_0, # of connection points: 6
#     Node 7, Type 0, BuildingBlock: OJICUG_clean_sbu_0, # of connection points: 6
#     Node 8, Type 0, BuildingBlock: OJICUG_clean_sbu_0, # of connection points: 6
#     Node 9, Type 0, BuildingBlock: OJICUG_clean_sbu_0, # of connection points: 6
#     Node 10, Type 0, BuildingBlock: OJICUG_clean_sbu_0, # of connection points: 6
#     Node 11, Type 0, BuildingBlock: OJICUG_clean_sbu_0, # of connection points: 6
#     Node 12, Type 0, BuildingBlock: OJICUG_clean_sbu_0, # of connection points: 6
#     Node 13, Type 0, BuildingBlock: OJICUG_clean_sbu_0, # of connection points: 6
#     Node 14, Type 0, BuildingBlock: OJICUG_clean_sbu_0, # of connection points: 6
#     Node 15, Type 0, BuildingBlock: OJICUG_clean_sbu_0, # of connection points: 6
#     Node 16, Type 1, BuildingBlock: TAGTUT_clean_sbu_3, # of connection points: 8
#     Node 17, Type 1, BuildingBlock: TAGTUT_clean_sbu_3, # of connection points: 8
#     Node 18, Type 1, BuildingBlock: TAGTUT_clean_sbu_3, # of connection points: 8
#     Node 19, Type 1, BuildingBlock: TAGTUT_clean_sbu_3, # of connection points: 8
#     Node 20, Type 1, BuildingBlock: TAGTUT_clean_sbu_3, # of connection points: 8
#     Node 21, Type 1, BuildingBlock: TAGTUT_clean_sbu_3, # of connection points: 8
#     Node 22, Type 1, BuildingBlock: TAGTUT_clean_sbu_3, # of connection points: 8
#     Node 23, Type 1, BuildingBlock: TAGTUT_clean_sbu_3, # of connection points: 8
#     Node 24, Type 1, BuildingBlock: TAGTUT_clean_sbu_3, # of connection points: 8
#     Node 25, Type 1, BuildingBlock: TAGTUT_clean_sbu_3, # of connection points: 8
#     Node 26, Type 1, BuildingBlock: TAGTUT_clean_sbu_3, # of connection points: 8
#     Node 27, Type 1, BuildingBlock: TAGTUT_clean_sbu_3, # of connection points: 8
#     Edge 28, Type (0, 1), BuildingBlock: CIFDUS_clean_linker_0, # of connection points: 2
#     Edge 29, Type (0, 1), BuildingBlock: CIFDUS_clean_linker_0, # of connection points: 2
#     Edge 30, Type (0, 1), BuildingBlock: CIFDUS_clean_linker_0, # of connection points: 2
#     Edge 31, Type (0, 1), BuildingBlock: CIFDUS_clean_linker_0, # of connection points: 2
#     Edge 32, Type (0, 1), BuildingBlock: CIFDUS_clean_linker_0, # of connection points: 2
#     Edge 33, Type (0, 1), BuildingBlock: CIFDUS_clean_linker_0, # of connection points: 2
#     Edge 34, Type (0, 1), BuildingBlock: CIFDUS_clean_linker_0, # of connection points: 2
#     Edge 35, Type (0, 1), BuildingBlock: CIFDUS_clean_linker_0, # of connection points: 2
#     Edge 36, Type (0, 1), BuildingBlock: CIFDUS_clean_linker_0, # of connection points: 2
#     Edge 37, Type (0, 1), BuildingBlock: CIFDUS_clean_linker_0, # of connection points: 2
#     Edge 38, Type (0, 1), BuildingBlock: CIFDUS_clean_linker_0, # of connection points: 2
#     Edge 39, Type (0, 1), BuildingBlock: CIFDUS_clean_linker_0, # of connection points: 2
#     Edge 40, Type (0, 1), BuildingBlock: CIFDUS_clean_linker_0, # of connection points: 2
#     Edge 41, Type (0, 1), BuildingBlock: CIFDUS_clean_linker_0, # of connection points: 2
#     Edge 42, Type (0, 1), BuildingBlock: CIFDUS_clean_linker_0, # of connection points: 2
#     Edge 43, Type (0, 1), BuildingBlock: CIFDUS_clean_linker_0, # of connection points: 2
#     Edge 44, Type (0, 1), BuildingBlock: CIFDUS_clean_linker_0, # of connection points: 2
#     Edge 45, Type (0, 1), BuildingBlock: CIFDUS_clean_linker_0, # of connection points: 2
#     Edge 46, Type (0, 1), BuildingBlock: CIFDUS_clean_linker_0, # of connection points: 2
#     Edge 47, Type (0, 1), BuildingBlock: CIFDUS_clean_linker_0, # of connection points: 2
#     Edge 48, Type (0, 1), BuildingBlock: CIFDUS_clean_linker_0, # of connection points: 2
#     Edge 49, Type (0, 1), BuildingBlock: CIFDUS_clean_linker_0, # of connection points: 2
#     Edge 50, Type (0, 1), BuildingBlock: CIFDUS_clean_linker_0, # of connection points: 2
#     Edge 51, Type (0, 1), BuildingBlock: CIFDUS_clean_linker_0, # of connection points: 2
#     Edge 52, Type (0, 1), BuildingBlock: CIFDUS_clean_linker_0, # of connection points: 2
#     Edge 53, Type (0, 1), BuildingBlock: CIFDUS_clean_linker_0, # of connection points: 2
#     Edge 54, Type (0, 1), BuildingBlock: CIFDUS_clean_linker_0, # of connection points: 2
#     Edge 55, Type (0, 1), BuildingBlock: CIFDUS_clean_linker_0, # of connection points: 2
#     Edge 56, Type (0, 1), BuildingBlock: CIFDUS_clean_linker_0, # of connection points: 2
#     Edge 57, Type (0, 1), BuildingBlock: CIFDUS_clean_linker_0, # of connection points: 2
#     Edge 58, Type (0, 1), BuildingBlock: CIFDUS_clean_linker_0, # of connection points: 2
#     Edge 59, Type (0, 1), BuildingBlock: CIFDUS_clean_linker_0, # of connection points: 2
#     Edge 60, Type (0, 1), BuildingBlock: CIFDUS_clean_linker_0, # of connection points: 2
#     Edge 61, Type (0, 1), BuildingBlock: CIFDUS_clean_linker_0, # of connection points: 2
#     Edge 62, Type (0, 1), BuildingBlock: CIFDUS_clean_linker_0, # of connection points: 2
#     Edge 63, Type (0, 1), BuildingBlock: CIFDUS_clean_linker_0, # of connection points: 2
#     Edge 64, Type (0, 1), BuildingBlock: CIFDUS_clean_linker_0, # of connection points: 2
#     Edge 65, Type (0, 1), BuildingBlock: CIFDUS_clean_linker_0, # of connection points: 2
#     Edge 66, Type (0, 1), BuildingBlock: CIFDUS_clean_linker_0, # of connection points: 2
#     Edge 67, Type (0, 1), BuildingBlock: CIFDUS_clean_linker_0, # of connection points: 2
#     Edge 68, Type (0, 1), BuildingBlock: CIFDUS_clean_linker_0, # of connection points: 2
#     Edge 69, Type (0, 1), BuildingBlock: CIFDUS_clean_linker_0, # of connection points: 2
#     Edge 70, Type (0, 1), BuildingBlock: CIFDUS_clean_linker_0, # of connection points: 2
#     Edge 71, Type (0, 1), BuildingBlock: CIFDUS_clean_linker_0, # of connection points: 2
#     Edge 72, Type (0, 1), BuildingBlock: CIFDUS_clean_linker_0, # of connection points: 2
#     Edge 73, Type (0, 1), BuildingBlock: CIFDUS_clean_linker_0, # of connection points: 2
#     Edge 74, Type (0, 1), BuildingBlock: CIFDUS_clean_linker_0, # of connection points: 2
#     Edge 75, Type (0, 1), BuildingBlock: CIFDUS_clean_linker_0, # of connection points: 2
#     Edge 76, Type (0, 1), BuildingBlock: CIFDUS_clean_linker_0, # of connection points: 2
#     Edge 77, Type (0, 1), BuildingBlock: CIFDUS_clean_linker_0, # of connection points: 2
#     Edge 78, Type (0, 1), BuildingBlock: CIFDUS_clean_linker_0, # of connection points: 2
#     Edge 79, Type (0, 1), BuildingBlock: CIFDUS_clean_linker_0, # of connection points: 2
#     Edge 80, Type (0, 1), BuildingBlock: CIFDUS_clean_linker_0, # of connection points: 2
#     Edge 81, Type (0, 1), BuildingBlock: CIFDUS_clean_linker_0, # of connection points: 2
#     Edge 82, Type (0, 1), BuildingBlock: CIFDUS_clean_linker_0, # of connection points: 2
#     Edge 83, Type (0, 1), BuildingBlock: CIFDUS_clean_linker_0, # of connection points: 2
#     Edge 84, Type (0, 1), BuildingBlock: CIFDUS_clean_linker_0, # of connection points: 2
#     Edge 85, Type (0, 1), BuildingBlock: CIFDUS_clean_linker_0, # of connection points: 2
#     Edge 86, Type (0, 1), BuildingBlock: CIFDUS_clean_linker_0, # of connection points: 2
#     Edge 87, Type (0, 1), BuildingBlock: CIFDUS_clean_linker_0, # of connection points: 2
#     Edge 88, Type (0, 1), BuildingBlock: CIFDUS_clean_linker_0, # of connection points: 2
#     Edge 89, Type (0, 1), BuildingBlock: CIFDUS_clean_linker_0, # of connection points: 2
#     Edge 90, Type (0, 1), BuildingBlock: CIFDUS_clean_linker_0, # of connection points: 2
#     Edge 91, Type (0, 1), BuildingBlock: CIFDUS_clean_linker_0, # of connection points: 2
#     Edge 92, Type (0, 1), BuildingBlock: CIFDUS_clean_linker_0, # of connection points: 2
#     Edge 93, Type (0, 1), BuildingBlock: CIFDUS_clean_linker_0, # of connection points: 2
#     Edge 94, Type (0, 1), BuildingBlock: CIFDUS_clean_linker_0, # of connection points: 2
#     Edge 95, Type (0, 1), BuildingBlock: CIFDUS_clean_linker_0, # of connection points: 2
#     Edge 96, Type (0, 1), BuildingBlock: CIFDUS_clean_linker_0, # of connection points: 2
#     Edge 97, Type (0, 1), BuildingBlock: CIFDUS_clean_linker_0, # of connection points: 2
#     Edge 98, Type (0, 1), BuildingBlock: CIFDUS_clean_linker_0, # of connection points: 2
#     Edge 99, Type (0, 1), BuildingBlock: CIFDUS_clean_linker_0, # of connection points: 2
#     Edge 100, Type (0, 1), BuildingBlock: CIFDUS_clean_linker_0, # of connection points: 2
#     Edge 101, Type (0, 1), BuildingBlock: CIFDUS_clean_linker_0, # of connection points: 2
#     Edge 102, Type (0, 1), BuildingBlock: CIFDUS_clean_linker_0, # of connection points: 2
#     Edge 103, Type (0, 1), BuildingBlock: CIFDUS_clean_linker_0, # of connection points: 2
#     Edge 104, Type (0, 1), BuildingBlock: CIFDUS_clean_linker_0, # of connection points: 2
#     Edge 105, Type (0, 1), BuildingBlock: CIFDUS_clean_linker_0, # of connection points: 2
#     Edge 106, Type (0, 1), BuildingBlock: CIFDUS_clean_linker_0, # of connection points: 2
#     Edge 107, Type (0, 1), BuildingBlock: CIFDUS_clean_linker_0, # of connection points: 2
#     Edge 108, Type (0, 1), BuildingBlock: CIFDUS_clean_linker_0, # of connection points: 2
#     Edge 109, Type (0, 1), BuildingBlock: CIFDUS_clean_linker_0, # of connection points: 2
#     Edge 110, Type (0, 1), BuildingBlock: CIFDUS_clean_linker_0, # of connection points: 2
#     Edge 111, Type (0, 1), BuildingBlock: CIFDUS_clean_linker_0, # of connection points: 2
#     Edge 112, Type (0, 1), BuildingBlock: CIFDUS_clean_linker_0, # of connection points: 2
#     Edge 113, Type (0, 1), BuildingBlock: CIFDUS_clean_linker_0, # of connection points: 2
#     Edge 114, Type (0, 1), BuildingBlock: CIFDUS_clean_linker_0, # of connection points: 2
#     Edge 115, Type (0, 1), BuildingBlock: CIFDUS_clean_linker_0, # of connection points: 2
#     Edge 116, Type (0, 1), BuildingBlock: CIFDUS_clean_linker_0, # of connection points: 2
#     Edge 117, Type (0, 1), BuildingBlock: CIFDUS_clean_linker_0, # of connection points: 2
#     Edge 118, Type (0, 1), BuildingBlock: CIFDUS_clean_linker_0, # of connection points: 2
#     Edge 119, Type (0, 1), BuildingBlock: CIFDUS_clean_linker_0, # of connection points: 2
#     Edge 120, Type (0, 1), BuildingBlock: CIFDUS_clean_linker_0, # of connection points: 2
#     Edge 121, Type (0, 1), BuildingBlock: CIFDUS_clean_linker_0, # of connection points: 2
#     Edge 122, Type (0, 1), BuildingBlock: CIFDUS_clean_linker_0, # of connection points: 2
#     Edge 123, Type (0, 1), BuildingBlock: CIFDUS_clean_linker_0, # of connection points: 2
# Relax obj value: 0.175
# Max RMSD: 0.262
# Mean RMSD: 0.253
data_MOF--net-tph--node1-OJICUG_clean_sbu_0--node2-TAGTUT_clean_sbu_3--edge1-CIFDUS_clean_linker_0
_symmetry_space_group_name_H-M    P1
_symmetry_Int_Tables_number       1
_symmetry_cell_setting            triclinic
loop_
_symmetry_equiv_pos_as_xyz
'x, y, z'
_cell_length_a     42.493669
_cell_length_b     42.797834
_cell_length_c     42.505889
_cell_angle_alpha  89.334076
_cell_angle_beta   89.983279
_cell_angle_gamma 89.361136
loop_
_atom_site_label
_atom_site_type_symbol
_atom_site_fract_x
_atom_site_fract_y
_atom_site_fract_z
_atom_type_partial_charge
Sc0 Sc 0.14797 0.20074 0.21641 0.0
Sc1 Sc 0.20932 0.14753 0.20775 0.0
Sc2 Sc 0.19379 0.20297 0.14975 0.0
O3 O 0.1841 0.18392 0.19155 0.0
C4 C 0.12181 0.204 0.14667 0.0
C5 C 0.13899 0.12933 0.22307 0.0
C6 C 0.2059 0.13051 0.13728 0.0
C7 C 0.19826 0.18263 0.26986 0.0
C8 C 0.17617 0.2617 0.1921 0.0
C9 C 0.26058 0.19084 0.17326 0.0
O10 O 0.11987 0.21311 0.17502 0.0
O11 O 0.1683 0.12441 0.22748 0.0
O12 O 0.20795 0.15904 0.12885 0.0
O13 O 0.17056 0.19043 0.26116 0.0
O14 O 0.18082 0.24959 0.16522 0.0
O15 O 0.25252 0.1659 0.18779 0.0
O16 O 0.16872 0.24583 0.21635 0.0
O17 O 0.21844 0.17107 0.2511 0.0
O18 O 0.24084 0.21116 0.16346 0.0
O19 O 0.12733 0.15583 0.21567 0.0
O20 O 0.1473 0.19428 0.13464 0.0
O21 O 0.20131 0.12205 0.16562 0.0
Sc22 Sc 0.45491 0.60114 0.04148 0.0
Sc23 Sc 0.39817 0.54942 0.06744 0.0
Sc24 Sc 0.47331 0.54573 0.09897 0.0
O25 O 0.44227 0.56526 0.06893 0.0
C26 C 0.51747 0.56526 0.04026 0.0
C27 C 0.41039 0.56098 0.9964 0.0
C28 C 0.44044 0.48671 0.07682 0.0
C29 C 0.38784 0.62329 0.06101 0.0
C30 C 0.48733 0.61577 0.10726 0.0
C31 C 0.4095 0.54648 0.13871 0.0
O32 O 0.49461 0.57574 0.02395 0.0
O33 O 0.40117 0.54206 0.01772 0.0
O34 O 0.46643 0.50106 0.07815 0.0
O35 O 0.41686 0.6289 0.05793 0.0
O36 O 0.48101 0.58967 0.12018 0.0
O37 O 0.39319 0.55763 0.11629 0.0
O38 O 0.48281 0.622 0.07823 0.0
O39 O 0.37696 0.59565 0.05998 0.0
O40 O 0.43725 0.53545 0.13477 0.0
O41 O 0.42736 0.58466 0.00215 0.0
O42 O 0.51365 0.5551 0.06836 0.0
O43 O 0.41377 0.50092 0.07662 0.0
Sc44 Sc 0.84295 0.29432 0.18864 0.0
Sc45 Sc 0.77337 0.29105 0.147 0.0
Sc46 Sc 0.78647 0.35099 0.19791 0.0
O47 O 0.80095 0.31183 0.17791 0.0
C48 C 0.81643 0.32169 0.25479 0.0
C49 C 0.8072 0.23339 0.1841 0.0
C50 C 0.72275 0.31243 0.19167 0.0
C51 C 0.83678 0.28222 0.11393 0.0
C52 C 0.8597 0.36314 0.18813 0.0
C53 C 0.76362 0.36452 0.13246 0.0
O54 O 0.83912 0.31071 0.23804 0.0
O55 O 0.79081 0.24395 0.16089 0.0
O56 O 0.73679 0.33837 0.19498 0.0
O57 O 0.8509 0.27689 0.14018 0.0
O58 O 0.83401 0.36939 0.20238 0.0
O59 O 0.75417 0.33638 0.12904 0.0
O60 O 0.8647 0.33708 0.17503 0.0
O61 O 0.80914 0.29363 0.11239 0.0
O62 O 0.78357 0.37172 0.15315 0.0
O63 O 0.82212 0.25131 0.20225 0.0
O64 O 0.79025 0.32983 0.2428 0.0
O65 O 0.73679 0.28831 0.18137 0.0
Sc66 Sc 0.61224 0.94842 0.06871 0.0
Sc67 Sc 0.5711 0.87825 0.06295 0.0
Sc68 Sc 0.543 0.9364 0.11057 0.0
O69 O 0.57559 0.92146 0.07982 0.0
C70 C 0.60435 0.9529 0.144 0.0
C71 C 0.64535 0.88212 0.07233 0.0
C72 C 0.55067 0.86921 0.132 0.0
C73 C 0.59409 0.91707 0.0028 0.0
C74 C 0.56435 0.00142 0.08081 0.0
C75 C 0.5018 0.9086 0.05926 0.0
O76 O 0.61715 0.96045 0.11776 0.0
O77 O 0.62025 0.86785 0.06572 0.0
O78 O 0.5306 0.89018 0.12531 0.0
O79 O 0.60893 0.93694 0.01925 0.0
O80 O 0.55022 0.98515 0.10136 0.0
O81 O 0.51995 0.88453 0.05833 0.0
O82 O 0.58292 0.9893 0.06082 0.0
O83 O 0.57689 0.89564 0.01496 0.0
O84 O 0.50882 0.9334 0.07395 0.0
O85 O 0.64657 0.91148 0.07582 0.0
O86 O 0.57817 0.93888 0.14649 0.0
O87 O 0.56948 0.85978 0.11093 0.0
Sc88 Sc 0.1933 0.85019 0.27281 0.0
Sc89 Sc 0.13281 0.79791 0.28433 0.0
Sc90 Sc 0.19207 0.80326 0.33933 0.0
O91 O 0.17297 0.81675 0.29859 0.0
C92 C 0.25269 0.81218 0.30334 0.0
C93 C 0.17232 0.80719 0.2203 0.0
C94 C 0.1645 0.73941 0.31247 0.0
C95 C 0.1194 0.86382 0.26135 0.0
C96 C 0.20322 0.87694 0.33834 0.0
C97 C 0.12195 0.80626 0.35771 0.0
O98 O 0.24085 0.83571 0.2884 0.0
O99 O 0.14683 0.801 0.23495 0.0
O100 O 0.17726 0.75512 0.33426 0.0
O101 O 0.14815 0.86857 0.2539 0.0
O102 O 0.20898 0.84957 0.3491 0.0
O103 O 0.11377 0.79423 0.33171 0.0
O104 O 0.19084 0.88205 0.31148 0.0
O105 O 0.11163 0.84268 0.2808 0.0
O106 O 0.14974 0.81515 0.36316 0.0
O107 O 0.19602 0.81901 0.23384 0.0
O108 O 0.23557 0.79215 0.31714 0.0
O109 O 0.15203 0.75201 0.28826 0.0
Sc110 Sc 0.0828 0.60578 0.93809 0.0
Sc111 Sc 0.06829 0.54977 0.88268 0.0
Sc112 Sc 0.12024 0.53269 0.94203 0.0
O113 O 0.08928 0.56251 0.92257 0.0
C114 C 0.15722 0.59568 0.94341 0.0
C115 C 0.07989 0.61727 0.86544 0.0
C116 C 0.13766 0.53379 0.87336 0.0
C117 C 0.01386 0.57904 0.9208 0.0
C118 C 0.09172 0.56768 0.00199 0.0
C119 C 0.07209 0.48582 0.92048 0.0
O120 O 0.1322 0.61202 0.94639 0.0
O121 O 0.06003 0.59579 0.86562 0.0
O122 O 0.13265 0.51558 0.89646 0.0
O123 O 0.03203 0.60092 0.9301 0.0
O124 O 0.10946 0.54763 0.98874 0.0
O125 O 0.07082 0.50054 0.89434 0.0
O126 O 0.0765 0.589 0.98679 0.0
O127 O 0.0239 0.55478 0.90622 0.0
O128 O 0.08443 0.49767 0.94482 0.0
O129 O 0.09266 0.62556 0.89098 0.0
O130 O 0.15762 0.56628 0.93932 0.0
O131 O 0.11492 0.54956 0.86147 0.0
Sc132 Sc 0.85203 0.69443 0.3048 0.0
Sc133 Sc 0.79755 0.63687 0.30136 0.0
Sc134 Sc 0.79365 0.68993 0.36111 0.0
O135 O 0.81464 0.67359 0.3229 0.0
C136 C 0.86069 0.70334 0.38041 0.0
C137 C 0.87327 0.62909 0.2923 0.0
C138 C 0.7913 0.61482 0.36876 0.0
C139 C 0.81314 0.67331 0.24361 0.0
C140 C 0.81501 0.75182 0.32247 0.0
C141 C 0.73464 0.67203 0.32524 0.0
O142 O 0.86829 0.71016 0.35188 0.0
O143 O 0.84503 0.62202 0.28448 0.0
O144 O 0.78148 0.64188 0.37753 0.0
O145 O 0.83948 0.68117 0.25581 0.0
O146 O 0.80482 0.73884 0.34784 0.0
O147 O 0.74827 0.64709 0.31555 0.0
O148 O 0.82532 0.73601 0.29958 0.0
O149 O 0.79034 0.66446 0.26048 0.0
O150 O 0.74986 0.69438 0.33693 0.0
O151 O 0.87881 0.65253 0.30936 0.0
O152 O 0.83671 0.68694 0.38667 0.0
O153 O 0.80473 0.61038 0.34256 0.0
Sc154 Sc 0.94556 0.92118 0.88837 0.0
Sc155 Sc 0.89505 0.94756 0.94697 0.0
Sc156 Sc 0.95599 0.89498 0.96445 0.0
O157 O 0.93248 0.92241 0.93347 0.0
C158 C 0.95839 0.85291 0.90402 0.0
C159 C 0.87086 0.92526 0.88058 0.0
C160 C 0.88527 0.87725 0.97121 0.0
C161 C 0.93311 0.99324 0.89984 0.0
C162 C 0.01097 0.92136 0.92903 0.0
C163 C 0.93071 0.94882 0.01042 0.0
O164 O 0.94129 0.87178 0.88847 0.0
O165 O 0.86728 0.93415 0.90852 0.0
O166 O 0.91422 0.86949 0.97005 0.0
O167 O 0.94794 0.97089 0.88667 0.0
O168 O 0.99758 0.92097 0.95582 0.0
O169 O 0.9171 0.96408 0.98861 0.0
O170 O 0.99562 0.91811 0.90323 0.0
O171 O 0.9127 0.98902 0.92175 0.0
O172 O 0.94408 0.9226 0.00554 0.0
O173 O 0.89796 0.92194 0.86818 0.0
O174 O 0.97158 0.8609 0.9295 0.0
O175 O 0.87536 0.90572 0.96991 0.0
Sc176 Sc 0.39444 0.45065 0.43737 0.0
Sc177 Sc 0.44011 0.38895 0.46501 0.0
Sc178 Sc 0.4491 0.41738 0.38813 0.0
O179 O 0.4297 0.41988 0.43084 0.0
C180 C 0.37925 0.43245 0.37111 0.0
C181 C 0.36798 0.38672 0.45927 0.0
C182 C 0.44144 0.34571 0.4054 0.0
C183 C 0.42354 0.44476 0.50653 0.0
C184 C 0.4442 0.49105 0.40464 0.0
C185 C 0.50732 0.40313 0.43313 0.0
O186 O 0.38345 0.45546 0.38865 0.0
O187 O 0.3913 0.38509 0.47796 0.0
O188 O 0.44997 0.36763 0.38711 0.0
O189 O 0.40141 0.45205 0.48759 0.0
O190 O 0.45008 0.46825 0.38614 0.0
O191 O 0.48936 0.39123 0.45401 0.0
O192 O 0.42688 0.48837 0.42925 0.0
O193 O 0.4453 0.42553 0.49913 0.0
O194 O 0.49676 0.417 0.40829 0.0
O195 O 0.36349 0.41053 0.44144 0.0
O196 O 0.40181 0.41325 0.36686 0.0
O197 O 0.4348 0.34953 0.43419 0.0
Sc198 Sc 0.34509 0.79328 0.68014 0.0
Sc199 Sc 0.2772 0.78807 0.63614 0.0
Sc200 Sc 0.29195 0.85377 0.67893 0.0
O201 O 0.30478 0.81149 0.66524 0.0
C202 C 0.3187 0.83059 0.7408 0.0
C203 C 0.3056 0.7346 0.68197 0.0
C204 C 0.22717 0.81679 0.67779 0.0
C205 C 0.34091 0.77093 0.60768 0.0
C206 C 0.36624 0.86029 0.67123 0.0
C207 C 0.2697 0.85944 0.61294 0.0
O208 O 0.34071 0.81581 0.72636 0.0
O209 O 0.2921 0.74259 0.65616 0.0
O210 O 0.24188 0.84263 0.67731 0.0
O211 O 0.35318 0.76941 0.63524 0.0
O212 O 0.33996 0.8699 0.68207 0.0
O213 O 0.25915 0.83152 0.61297 0.0
O214 O 0.37059 0.83244 0.6622 0.0
O215 O 0.31434 0.78403 0.60248 0.0
O216 O 0.2915 0.86744 0.63124 0.0
O217 O 0.32071 0.7538 0.69849 0.0
O218 O 0.29388 0.84014 0.72693 0.0
O219 O 0.24013 0.79117 0.66991 0.0
Sc220 Sc 0.11432 0.45764 0.57337 0.0
Sc221 Sc 0.08069 0.38567 0.5569 0.0
Sc222 Sc 0.04541 0.43609 0.6111 0.0
O223 O 0.07982 0.42647 0.57997 0.0
C224 C 0.10661 0.46084 0.64519 0.0
C225 C 0.15288 0.39402 0.56835 0.0
C226 C 0.06457 0.36689 0.62828 0.0
C227 C 0.09916 0.43786 0.50455 0.0
C228 C 0.05349 0.50165 0.58412 0.0
C229 C 0.00785 0.39902 0.55823 0.0
O230 O 0.12493 0.45621 0.62209 0.0
O231 O 0.12863 0.37718 0.56864 0.0
O232 O 0.056 0.39427 0.63566 0.0
O233 O 0.10429 0.45926 0.52438 0.0
O234 O 0.03436 0.47941 0.58818 0.0
O235 O 0.03209 0.38984 0.54341 0.0
O236 O 0.08304 0.49725 0.58128 0.0
O237 O 0.09302 0.40953 0.51236 0.0
O238 O 0.00913 0.4138 0.58395 0.0
O239 O 0.15167 0.42356 0.56561 0.0
O240 O 0.07681 0.45922 0.64341 0.0
O241 O 0.07017 0.35875 0.59993 0.0
Sc242 Sc 0.95302 0.10232 0.53948 0.0
Sc243 Sc 0.89391 0.05468 0.56492 0.0
Sc244 Sc 0.9606 0.0641 0.61184 0.0
O245 O 0.93666 0.07266 0.57217 0.0
C246 C 0.01756 0.07455 0.56717 0.0
C247 C 0.92705 0.05164 0.49785 0.0
C248 C 0.93305 -0.00277 0.59087 0.0
C249 C 0.88543 0.12272 0.54377 0.0
C250 C 0.96453 0.13833 0.60108 0.0
C251 C 0.89086 0.06645 0.63799 0.0
O252 O 0.00129 0.09318 0.55025 0.0
O253 O 0.90223 0.05159 0.51472 0.0
O254 O 0.94972 0.01457 0.60861 0.0
O255 O 0.90673 0.11548 0.52443 0.0
O256 O 0.97154 0.11316 0.61611 0.0
O257 O 0.8798 0.05534 0.61293 0.0
O258 O 0.95328 0.13923 0.5733 0.0
O259 O 0.87498 0.10203 0.56249 0.0
O260 O 0.91969 0.0732 0.64128 0.0
O261 O 0.95219 0.06528 0.50613 0.0
O262 O 0.00524 0.05634 0.58755 0.0
O263 O 0.91313 0.00794 0.5708 0.0
Sc264 Sc 0.68923 0.7153 0.64611 0.0
Sc265 Sc 0.64761 0.71697 0.71557 0.0
Sc266 Sc 0.70599 0.66096 0.70496 0.0
O267 O 0.68148 0.69791 0.68908 0.0
C268 C 0.69906 0.64191 0.63516 0.0
C269 C 0.61732 0.71979 0.64777 0.0
C270 C 0.63517 0.64615 0.72338 0.0
C271 C 0.67732 0.77599 0.68829 0.0
C272 C 0.75722 0.70187 0.66711 0.0
C273 C 0.6988 0.69603 0.76726 0.0
O274 O 0.70062 0.67015 0.6255 0.0
O275 O 0.6181 0.73058 0.67553 0.0
O276 O 0.66446 0.63981 0.72644 0.0
O277 O 0.67934 0.76302 0.66142 0.0
O278 O 0.74916 0.6778 0.68317 0.0
O279 O 0.6712 0.70521 0.75965 0.0
O280 O 0.73753 0.72181 0.65635 0.0
O281 O 0.671 0.7609 0.71343 0.0
O282 O 0.71796 0.68468 0.74742 0.0
O283 O 0.6413 0.70808 0.63447 0.0
O284 O 0.69568 0.63467 0.66397 0.0
O285 O 0.62454 0.6732 0.71636 0.0
Sc286 Sc 0.68776 0.33659 0.77914 0.0
Sc287 Sc 0.62377 0.28877 0.79083 0.0
Sc288 Sc 0.67707 0.29909 0.85018 0.0
O289 O 0.66311 0.30789 0.80653 0.0
C290 C 0.74094 0.29801 0.81864 0.0
C291 C 0.66788 0.29126 0.72953 0.0
C292 C 0.64897 0.23342 0.82856 0.0
C293 C 0.61559 0.35273 0.76105 0.0
C294 C 0.69309 0.37135 0.8412 0.0
C295 C 0.60646 0.30667 0.86072 0.0
O296 O 0.73293 0.32112 0.80074 0.0
O297 O 0.64108 0.2874 0.7425 0.0
O298 O 0.65915 0.25154 0.84982 0.0
O299 O 0.64504 0.35522 0.75504 0.0
O300 O 0.69653 0.34539 0.85588 0.0
O301 O 0.60111 0.29022 0.83655 0.0
O302 O 0.68394 0.37318 0.81279 0.0
O303 O 0.60525 0.33366 0.78144 0.0
O304 O 0.63352 0.31696 0.86712 0.0
O305 O 0.69152 0.30035 0.74512 0.0
O306 O 0.72095 0.28186 0.83361 0.0
O307 O 0.64112 0.24306 0.80124 0.0
Sc308 Sc 0.57513 0.1091 0.44835 0.0
Sc309 Sc 0.5662 0.04673 0.39712 0.0
Sc310 Sc 0.60854 0.03648 0.46678 0.0
O311 O 0.58264 0.06384 0.43743 0.0
C312 C 0.6443 0.10079 0.46834 0.0
C313 C 0.58141 0.11512 0.37339 0.0
C314 C 0.6392 0.02637 0.40016 0.0
C315 C 0.50788 0.08569 0.42705 0.0
C316 C 0.57072 0.07198 0.51564 0.0
C317 C 0.56425 0.98473 0.43685 0.0
O318 O 0.62449 0.11555 0.45141 0.0
O319 O 0.57752 0.08628 0.3705 0.0
O320 O 0.64121 0.02779 0.42996 0.0
O321 O 0.52504 0.10323 0.4439 0.0
O322 O 0.57617 0.04529 0.50403 0.0
O323 O 0.55298 0.00282 0.41602 0.0
O324 O 0.57293 0.09729 0.49934 0.0
O325 O 0.51923 0.06488 0.40852 0.0
O326 O 0.58469 0.99337 0.4566 0.0
O327 O 0.57887 0.12837 0.39999 0.0
O328 O 0.63833 0.0747 0.48154 0.0
O329 O 0.61349 0.03034 0.38481 0.0
Sc330 Sc 0.34708 0.19909 0.81683 0.0
Sc331 Sc 0.29579 0.13801 0.81406 0.0
Sc332 Sc 0.28004 0.20002 0.86284 0.0
O333 O 0.30736 0.17955 0.83081 0.0
C334 C 0.34482 0.21491 0.89118 0.0
C335 C 0.37104 0.13246 0.81765 0.0
C336 C 0.27601 0.12653 0.88019 0.0
C337 C 0.31932 0.16677 0.7536 0.0
C338 C 0.30719 0.25827 0.82148 0.0
C339 C 0.22818 0.17233 0.82429 0.0
O340 O 0.35652 0.21863 0.86358 0.0
O341 O 0.34504 0.12304 0.80626 0.0
O342 O 0.2651 0.15443 0.88304 0.0
O343 O 0.3413 0.1806 0.76867 0.0
O344 O 0.29224 0.24735 0.84539 0.0
O345 O 0.2448 0.14754 0.82008 0.0
O346 O 0.32278 0.24074 0.80317 0.0
O347 O 0.29507 0.15606 0.76735 0.0
O348 O 0.24087 0.19814 0.8312 0.0
O349 O 0.37334 0.1587 0.83076 0.0
O350 O 0.31819 0.20228 0.89566 0.0
O351 O 0.29763 0.1202 0.86066 0.0
C352 C 0.04814 0.20163 0.87288 0.0
C353 C 0.01909 0.2167 0.99307 0.0
C354 C 0.92666 0.22611 0.96172 0.0
Mg355 Mg 0.00884 0.21758 0.81172 0.0
Mg356 Mg 0.96786 0.28247 0.80578 0.0
O357 O 0.97308 0.24464 0.82737 0.0
Mg358 Mg 0.98392 0.24476 0.87338 0.0
O359 O 0.99801 0.2391 0.9185 0.0
Mg360 Mg 0.9906 0.19295 0.92503 0.0
Mg361 Mg 0.98243 0.26409 0.94986 0.0
C362 C 0.92052 0.2899 0.86267 0.0
O363 O 0.00369 0.29581 0.87593 0.0
O364 O 0.98373 0.21823 0.76418 0.0
O365 O 0.99556 0.30662 0.92733 0.0
O366 O 0.03696 0.25853 0.7916 0.0
O367 O 0.95536 0.26308 0.76055 0.0
O368 O 0.01276 0.30394 0.80015 0.0
O369 O 0.96541 0.19538 0.87714 0.0
O370 O 0.98042 0.1756 0.83135 0.0
C371 C 0.96661 0.17268 0.85803 0.0
C372 C 0.96538 0.23721 0.74915 0.0
O373 O 0.93397 0.26815 0.87952 0.0
O374 O 0.01601 0.19582 0.97197 0.0
O375 O 0.93234 0.30079 0.83703 0.0
O376 O 0.94395 0.20224 0.95501 0.0
O377 O 0.00791 0.24449 0.98973 0.0
O378 O 0.93451 0.25342 0.95302 0.0
O379 O 0.03051 0.22275 0.86069 0.0
O380 O 0.03903 0.18623 0.89735 0.0
C381 C 0.03613 0.28828 0.78975 0.0
C382 C 0.00457 0.31451 0.89959 0.0
C383 C 0.55939 0.69814 0.38652 0.0
C384 C 0.50896 0.71919 0.4995 0.0
C385 C 0.42322 0.72432 0.45045 0.0
Mg386 Mg 0.53316 0.71339 0.31921 0.0
Mg387 Mg 0.48862 0.77423 0.30324 0.0
O388 O 0.49334 0.7382 0.32755 0.0
Mg389 Mg 0.49614 0.74116 0.37458 0.0
O390 O 0.50181 0.738 0.42169 0.0
Mg391 Mg 0.49368 0.69206 0.42832 0.0
Mg392 Mg 0.47917 0.76351 0.44843 0.0
C393 C 0.43167 0.78072 0.35091 0.0
O394 O 0.5133 0.79302 0.37851 0.0
O395 O 0.5163 0.70953 0.26886 0.0
O396 O 0.49573 0.80544 0.42725 0.0
O397 O 0.56012 0.75696 0.2996 0.0
O398 O 0.48745 0.75259 0.25728 0.0
O399 O 0.53109 0.79916 0.30847 0.0
O400 O 0.47875 0.69158 0.37663 0.0
O401 O 0.50478 0.67005 0.33673 0.0
C402 C 0.48555 0.66789 0.35995 0.0
C403 C 0.5005 0.72666 0.24945 0.0
O404 O 0.44457 0.76246 0.37186 0.0
O405 O 0.51001 0.69743 0.47904 0.0
O406 O 0.44609 0.78955 0.32585 0.0
O407 O 0.44259 0.70123 0.44829 0.0
O408 O 0.49779 0.7465 0.49311 0.0
O409 O 0.43141 0.75178 0.44274 0.0
O410 O 0.54595 0.72033 0.37095 0.0
O411 O 0.5451 0.68453 0.40949 0.0
C412 C 0.55583 0.78656 0.29719 0.0
C413 C 0.50953 0.81243 0.40133 0.0
C414 C 0.97423 0.82268 0.64465 0.0
C415 C 0.98294 0.75877 0.75304 0.0
C416 C 0.05624 0.71139 0.71211 0.0
Mg417 Mg 0.99219 0.80035 0.57347 0.0
Mg418 Mg 0.98529 0.72748 0.5563 0.0
O419 O 0.00538 0.75558 0.58216 0.0
Mg420 Mg 0.99582 0.75178 0.62826 0.0
O421 O 0.98821 0.75158 0.67489 0.0
Mg422 Mg 0.02278 0.77998 0.6883 0.0
Mg423 Mg 0.98691 0.71336 0.69664 0.0
C424 C 0.01413 0.68055 0.60653 0.0
O425 O 0.94965 0.72516 0.62443 0.0
O426 O 0.01412 0.79396 0.52448 0.0
O427 O 0.95217 0.69215 0.66643 0.0
O428 O 0.94507 0.78639 0.54657 0.0
O429 O 0.00485 0.7437 0.51248 0.0
O430 O 0.93641 0.73641 0.55662 0.0
O431 O 0.04081 0.77728 0.6371 0.0
O432 O 0.0399 0.81238 0.59769 0.0
C433 C 0.0529 0.80051 0.62248 0.0
C434 C 0.01509 0.77094 0.50529 0.0
O435 O 0.0186 0.7018 0.62729 0.0
O436 O 0.00016 0.77823 0.73771 0.0
O437 O 0.00062 0.68599 0.58005 0.0
O438 O 0.05529 0.74094 0.70785 0.0
O439 O 0.97367 0.73287 0.74153 0.0
O440 O 0.03349 0.69431 0.70338 0.0
O441 O 0.97199 0.80065 0.62448 0.0
O442 O 0.99016 0.81876 0.67003 0.0
C443 C 0.928 0.76201 0.54378 0.0
C444 C 0.93896 0.70222 0.64098 0.0
C445 C 0.86241 0.00299 0.17604 0.0
C446 C 0.74913 0.00577 0.23633 0.0
C447 C 0.79738 0.04726 0.30489 0.0
Mg448 Mg 0.92979 0.00815 0.20645 0.0
Mg449 Mg 0.94483 0.97347 0.27325 0.0
O450 O 0.92027 0.00356 0.25299 0.0
Mg451 Mg 0.87367 -0.00328 0.25153 0.0
O452 O 0.82666 0.99382 0.24508 0.0
Mg453 Mg 0.81828 0.03839 0.2293 0.0
Mg454 Mg 0.80402 0.98557 0.28144 0.0
C455 C 0.89525 0.99039 0.32574 0.0
O456 O 0.87261 0.94293 0.26387 0.0
O457 O 0.979 0.02296 0.22163 0.0
O458 O 0.82723 0.94221 0.29179 0.0
O459 O 0.95293 0.95876 0.20299 0.0
O460 O 0.9894 -0.00328 0.26685 0.0
O461 O 0.94346 0.9319 0.24666 0.0
O462 O 0.86885 0.04871 0.24207 0.0
O463 O 0.90863 0.05867 0.2095 0.0
C464 C 0.88433 0.06764 0.22495 0.0
C465 C 0.99743 0.01549 0.24457 0.0
O466 O 0.87482 0.00176 0.3061 0.0
O467 O 0.76813 0.02312 0.22064 0.0
O468 O 0.92035 0.97597 0.31704 0.0
O469 O 0.79703 0.05662 0.27628 0.0
O470 O 0.75759 0.98966 0.26061 0.0
O471 O 0.81294 0.02285 0.31206 0.0
O472 O 0.87897 0.99161 0.19856 0.0
O473 O 0.83798 0.02005 0.18153 0.0
C474 C 0.9552 0.93354 0.21923 0.0
C475 C 0.8524 0.92885 0.28176 0.0
C476 C 0.21189 0.85761 0.0463 0.0
C477 C 0.22593 0.9783 0.0337 0.0
C478 C 0.22951 0.96071 0.93654 0.0
Mg479 Mg 0.23026 0.802 0.00219 0.0
Mg480 Mg 0.29361 0.80355 0.95932 0.0
O481 O 0.25472 0.82249 0.96713 0.0
Mg482 Mg 0.25368 0.86667 0.98269 0.0
O483 O 0.24761 0.90923 0.00137 0.0
Mg484 Mg 0.2006 0.91551 0.99627 0.0
Mg485 Mg 0.27206 0.94255 0.9892 0.0
C486 C 0.29743 0.86594 0.9185 0.0
O487 O 0.30611 0.86772 0.00041 0.0
O488 O 0.23187 0.75754 0.9726 0.0
O489 O 0.31652 0.91926 0.99601 0.0
O490 O 0.2737 0.78188 0.0278 0.0
O491 O 0.27574 0.75942 0.94265 0.0
O492 O 0.3177 0.79438 0.00261 0.0
O493 O 0.20251 0.87103 0.96582 0.0
O494 O 0.18646 0.82267 0.97658 0.0
C495 C 0.181 0.85034 0.96577 0.0
C496 C 0.25072 0.74578 0.95218 0.0
O497 O 0.27532 0.88012 0.93389 0.0
O498 O 0.20449 0.95831 0.02792 0.0
O499 O 0.30922 0.83947 0.92733 0.0
O500 O 0.20683 0.95051 0.95355 0.0
O501 O 0.25343 0.97698 0.0213 0.0
O502 O 0.25806 0.95428 0.943 0.0
O503 O 0.23381 0.84817 0.02821 0.0
O504 O 0.19587 0.8824 0.0398 0.0
C505 C 0.30366 0.78182 0.02592 0.0
C506 C 0.32531 0.8909 0.00131 0.0
C507 C 0.12078 0.43693 0.20376 0.0
C508 C 0.00572 0.46673 0.23608 0.0
C509 C 0.03748 0.55835 0.24144 0.0
Mg510 Mg 0.18647 0.46724 0.21601 0.0
Mg511 Mg 0.20275 0.51131 0.27592 0.0
O512 O 0.17556 0.50439 0.24249 0.0
Mg513 Mg 0.12871 0.49693 0.24792 0.0
O514 O 0.08261 0.48683 0.24786 0.0
Mg515 Mg 0.07075 0.49605 0.20279 0.0
Mg516 Mg 0.05447 0.50081 0.27782 0.0
C517 C 0.14606 0.55918 0.28943 0.0
O518 O 0.13128 0.47618 0.29983 0.0
O519 O 0.23593 0.48709 0.20941 0.0
O520 O 0.08234 0.48765 0.31778 0.0
O521 O 0.21038 0.43893 0.25729 0.0
O522 O 0.24668 0.51844 0.25002 0.0
O523 O 0.20906 0.46789 0.30047 0.0
O524 O 0.12069 0.51793 0.19787 0.0
O525 O 0.16442 0.49765 0.17637 0.0
C526 C 0.13919 0.51442 0.17421 0.0
C527 C 0.2547 0.50481 0.22444 0.0
O528 O 0.12627 0.54488 0.27183 0.0
O529 O 0.02345 0.47184 0.21215 0.0
O530 O 0.17408 0.5488 0.29509 0.0
O531 O 0.04335 0.54268 0.21645 0.0
O532 O 0.01315 0.47541 0.26384 0.0
O533 O 0.0464 0.54873 0.26843 0.0
O534 O 0.13615 0.45073 0.22519 0.0
O535 O 0.09558 0.44891 0.19189 0.0
C536 C 0.21706 0.44284 0.2864 0.0
C537 C 0.11057 0.47758 0.32209 0.0
C538 C 0.69125 0.62875 0.01868 0.0
C539 C 0.74625 0.7364 0.04174 0.0
C540 C 0.80323 0.71498 0.96471 0.0
Mg541 Mg 0.71851 0.56855 0.98804 0.0
Mg542 Mg 0.79161 0.54665 0.99732 0.0
O543 O 0.76476 0.57823 0.98336 0.0
Mg544 Mg 0.76591 0.62118 0.00229 0.0
O545 O 0.76132 0.6642 0.01914 0.0
Mg546 Mg 0.73323 0.68407 0.98605 0.0
Mg547 Mg 0.79788 0.68612 0.02765 0.0
C548 C 0.83914 0.60206 0.98257 0.0
O549 O 0.78824 0.60951 0.05172 0.0
O550 O 0.72714 0.52598 0.95669 0.0
O551 O 0.82025 0.65105 0.05695 0.0
O552 O 0.72595 0.53565 0.03073 0.0
O553 O 0.77746 0.511 0.96482 0.0
O554 O 0.77688 0.53277 0.04317 0.0
O555 O 0.74381 0.64006 0.95635 0.0
O556 O 0.71087 0.60137 0.94546 0.0
C557 C 0.7229 0.62795 0.93882 0.0
C558 C 0.7506 0.50757 0.95165 0.0
O559 O 0.81824 0.62419 0.98426 0.0
O560 O 0.72824 0.72421 0.02105 0.0
O561 O 0.83335 0.57333 0.98918 0.0
O562 O 0.77332 0.71291 0.96375 0.0
O563 O 0.77412 0.72628 0.04793 0.0
O564 O 0.81939 0.69929 0.98459 0.0
O565 O 0.71607 0.61192 0.01884 0.0
O566 O 0.69155 0.65688 0.00817 0.0
C567 C 0.74822 0.52639 0.04879 0.0
C568 C 0.80971 0.62467 0.0666 0.0
C569 C 0.18707 0.14258 0.53124 0.0
C570 C 0.25237 0.24723 0.5464 0.0
C571 C 0.30362 0.21743 0.46859 0.0
Mg572 Mg 0.20645 0.07931 0.49697 0.0
Mg573 Mg 0.27924 0.05169 0.49299 0.0
O574 O 0.25297 0.08617 0.49095 0.0
Mg575 Mg 0.25925 0.12837 0.5099 0.0
O576 O 0.25952 0.17198 0.52647 0.0
Mg577 Mg 0.2323 0.19357 0.49404 0.0
Mg578 Mg 0.29772 0.19131 0.53364 0.0
C579 C 0.32993 0.10519 0.48202 0.0
O580 O 0.28299 0.11482 0.55837 0.0
O581 O 0.20857 0.03934 0.46106 0.0
O582 O 0.31622 0.15533 0.56429 0.0
O583 O 0.21619 0.04195 0.53634 0.0
O584 O 0.25918 0.02452 0.45615 0.0
O585 O 0.26747 0.0289 0.53592 0.0
O586 O 0.23651 0.14861 0.46507 0.0
O587 O 0.1984 0.11426 0.45678 0.0
C588 C 0.21309 0.1391 0.44914 0.0
C589 C 0.23019 0.02264 0.44831 0.0
O590 O 0.31091 0.12801 0.48865 0.0
O591 O 0.23285 0.23603 0.52655 0.0
O592 O 0.32227 0.07633 0.48454 0.0
O593 O 0.27358 0.21724 0.46795 0.0
O594 O 0.2788 0.23413 0.55322 0.0
O595 O 0.31887 0.20204 0.48953 0.0
O596 O 0.20922 0.12223 0.52957 0.0
O597 O 0.19095 0.1705 0.5207 0.0
C598 C 0.23978 0.02631 0.54716 0.0
C599 C 0.30465 0.12927 0.57379 0.0
C600 C 0.38885 0.57133 0.71715 0.0
C601 C 0.49843 0.5243 0.74724 0.0
C602 C 0.45913 0.43711 0.72643 0.0
Mg603 Mg 0.32169 0.5459 0.72369 0.0
Mg604 Mg 0.30452 0.49677 0.77841 0.0
O605 O 0.32749 0.50183 0.74145 0.0
Mg606 Mg 0.37436 0.50268 0.74862 0.0
O607 O 0.42101 0.50752 0.75171 0.0
Mg608 Mg 0.43297 0.5097 0.70581 0.0
Mg609 Mg 0.44649 0.4832 0.77806 0.0
C610 C 0.34828 0.43639 0.78057 0.0
O611 O 0.37269 0.5108 0.80229 0.0
O612 O 0.27052 0.53297 0.71559 0.0
O613 O 0.41757 0.48735 0.81979 0.0
O614 O 0.30194 0.56785 0.76927 0.0
O615 O 0.25848 0.50246 0.75743 0.0
O616 O 0.31379 0.53536 0.80791 0.0
O617 O 0.38147 0.49437 0.69603 0.0
O618 O 0.34112 0.52359 0.67811 0.0
C619 C 0.36503 0.50559 0.6732 0.0
C620 C 0.25069 0.51762 0.73235 0.0
O621 O 0.3699 0.44914 0.76325 0.0
O622 O 0.48144 0.52601 0.72227 0.0
O623 O 0.32408 0.45172 0.79027 0.0
O624 O 0.45428 0.45963 0.70696 0.0
O625 O 0.48952 0.5096 0.77213 0.0
O626 O 0.45244 0.43942 0.75552 0.0
O627 O 0.3725 0.55453 0.73579 0.0
O628 O 0.41357 0.56018 0.70409 0.0
C629 C 0.30137 0.56091 0.79851 0.0
C630 C 0.39073 0.50055 0.82452 0.0
C631 C 0.71408 0.36269 0.5642 0.0
C632 C 0.73043 0.48152 0.54727 0.0
C633 C 0.73749 0.45965 0.45128 0.0
Mg634 Mg 0.73167 0.30465 0.52557 0.0
Mg635 Mg 0.79302 0.30164 0.48095 0.0
O636 O 0.75419 0.32132 0.48715 0.0
Mg637 Mg 0.7547 0.36652 0.49952 0.0
O638 O 0.75036 0.40994 0.51627 0.0
Mg639 Mg 0.7037 0.41782 0.51104 0.0
Mg640 Mg 0.77741 0.44202 0.50712 0.0
C641 C 0.79714 0.35931 0.43403 0.0
O642 O 0.80667 0.36608 0.51718 0.0
O643 O 0.73161 0.25766 0.50098 0.0
O644 O 0.82109 0.41682 0.51466 0.0
O645 O 0.77597 0.28559 0.55096 0.0
O646 O 0.77507 0.25568 0.47049 0.0
O647 O 0.81843 0.29886 0.52409 0.0
O648 O 0.70294 0.37128 0.48318 0.0
O649 O 0.68757 0.3242 0.50016 0.0
C650 C 0.68145 0.35065 0.48674 0.0
C651 C 0.75015 0.24337 0.482 0.0
O652 O 0.77623 0.37564 0.44906 0.0
O653 O 0.70872 0.46214 0.54055 0.0
O654 O 0.80814 0.33317 0.44461 0.0
O655 O 0.71286 0.45047 0.46625 0.0
O656 O 0.75877 0.47852 0.53726 0.0
O657 O 0.76511 0.45263 0.46075 0.0
O658 O 0.73586 0.35254 0.54644 0.0
O659 O 0.69762 0.38694 0.55657 0.0
C660 C 0.80585 0.28579 0.54794 0.0
C661 C 0.82736 0.38772 0.51919 0.0
C662 C 0.63212 0.03799 0.68625 0.0
C663 C 0.74603 0.04036 0.7429 0.0
C664 C 0.71989 0.95645 0.78196 0.0
Mg665 Mg 0.5694 0.00234 0.70886 0.0
Mg666 Mg 0.553 0.98952 0.78291 0.0
O667 O 0.58269 0.98561 0.75151 0.0
Mg668 Mg 0.6259 0.00377 0.75535 0.0
O669 O 0.66983 0.0211 0.75384 0.0
Mg670 Mg 0.68769 0.99473 0.71914 0.0
Mg671 Mg 0.69361 0.02069 0.79085 0.0
C672 C 0.61112 0.96715 0.82432 0.0
O673 O 0.61424 0.04446 0.78811 0.0
O674 O 0.52601 0.97053 0.7117 0.0
O675 O 0.65884 0.04775 0.81698 0.0
O676 O 0.5367 0.04182 0.73064 0.0
O677 O 0.51586 0.96267 0.76312 0.0
O678 O 0.53763 0.03647 0.7829 0.0
O679 O 0.64227 0.96541 0.72315 0.0
O680 O 0.6013 0.96209 0.69038 0.0
C681 C 0.62858 0.9527 0.69984 0.0
C682 C 0.50943 0.95876 0.73402 0.0
O683 O 0.63191 0.97493 0.80342 0.0
O684 O 0.73126 0.02622 0.72095 0.0
O685 O 0.58157 0.97228 0.82069 0.0
O686 O 0.71574 0.96191 0.75264 0.0
O687 O 0.73629 0.04114 0.77146 0.0
O688 O 0.70663 0.97344 0.80268 0.0
O689 O 0.61443 0.03179 0.7099 0.0
O690 O 0.6607 0.0282 0.68548 0.0
C691 C 0.52836 0.0509 0.75819 0.0
C692 C 0.63042 0.05648 0.8105 0.0
C693 C 0.4664 0.31711 0.14879 0.0
C694 C 0.47606 0.25428 0.26004 0.0
C695 C 0.55355 0.21427 0.22192 0.0
Mg696 Mg 0.4891 0.29473 0.08094 0.0
Mg697 Mg 0.48504 0.22218 0.06403 0.0
O698 O 0.50494 0.25078 0.08953 0.0
Mg699 Mg 0.49418 0.24668 0.13554 0.0
O700 O 0.48397 0.24701 0.1818 0.0
Mg701 Mg 0.51457 0.27936 0.19617 0.0
Mg702 Mg 0.48594 0.20895 0.20382 0.0
C703 C 0.51972 0.17738 0.11247 0.0
O704 O 0.4507 0.21694 0.13034 0.0
O705 O 0.5099 0.29007 0.03157 0.0
O706 O 0.45409 0.18459 0.17278 0.0
O707 O 0.44199 0.27913 0.05643 0.0
O708 O 0.50149 0.23969 0.01969 0.0
O709 O 0.43553 0.22851 0.06523 0.0
O710 O 0.53613 0.27573 0.14602 0.0
O711 O 0.53688 0.30888 0.10505 0.0
C712 C 0.54887 0.29824 0.13094 0.0
C713 C 0.51031 0.2673 0.01213 0.0
O714 O 0.5204 0.19782 0.13466 0.0
O715 O 0.49017 0.27597 0.24449 0.0
O716 O 0.5057 0.18218 0.08613 0.0
O717 O 0.54902 0.24359 0.21831 0.0
O718 O 0.47114 0.22698 0.24905 0.0
O719 O 0.53411 0.19477 0.2108 0.0
O720 O 0.46846 0.29364 0.13056 0.0
O721 O 0.47956 0.31649 0.17588 0.0
C722 C 0.42542 0.2544 0.0542 0.0
C723 C 0.44112 0.19345 0.14676 0.0
H724 H 0.07896 0.38176 0.68756 0.0
H725 H 0.05973 0.3025 0.62898 0.0
H726 H 0.05728 0.26876 0.67608 0.0
H727 H 0.05093 0.26462 0.73346 0.0
H728 H 0.06224 0.34621 0.79089 0.0
H729 H 0.07847 0.3764 0.74449 0.0
C730 C 0.07448 0.35701 0.68496 0.0
C731 C 0.06857 0.34472 0.65493 0.0
C732 C 0.0719 0.33835 0.71196 0.0
C733 C 0.06391 0.31251 0.65187 0.0
C734 C 0.06243 0.29334 0.67878 0.0
C735 C 0.05816 0.2887 0.736 0.0
C736 C 0.05565 0.30328 0.76551 0.0
C737 C 0.06509 0.30634 0.70895 0.0
C738 C 0.0643 0.3346 0.76845 0.0
C739 C 0.07316 0.35185 0.7419 0.0
H740 H 0.59245 0.67515 0.61281 0.0
H741 H 0.57928 0.77114 0.63963 0.0
H742 H 0.54044 0.77878 0.59737 0.0
H743 H 0.51715 0.75989 0.54794 0.0
H744 H 0.5322 0.66361 0.52149 0.0
H745 H 0.56312 0.65426 0.56872 0.0
C746 C 0.58043 0.69751 0.60979 0.0
C747 C 0.5887 0.72266 0.62874 0.0
C748 C 0.5589 0.70176 0.58527 0.0
C749 C 0.57301 0.75149 0.62516 0.0
C750 C 0.55113 0.75589 0.60085 0.0
C751 C 0.52676 0.73675 0.55276 0.0
C752 C 0.52305 0.71276 0.53072 0.0
C753 C 0.54493 0.7315 0.57995 0.0
C754 C 0.53522 0.68275 0.53764 0.0
C755 C 0.5529 0.67729 0.56469 0.0
H756 H 0.91916 0.17345 0.6274 0.0
H757 H 0.01945 0.1658 0.61418 0.0
H758 H 0.02819 0.20242 0.65692 0.0
H759 H 0.00773 0.22641 0.70461 0.0
H760 H 0.90784 0.23095 0.72129 0.0
H761 H 0.89807 0.20604 0.67044 0.0
C762 C 0.94275 0.18096 0.63321 0.0
C763 C 0.96872 0.16736 0.61802 0.0
C764 C 0.94754 0.20071 0.65882 0.0
C765 C 0.99931 0.17643 0.62568 0.0
C766 C 0.00426 0.19701 0.65025 0.0
C767 C 0.98382 0.22258 0.69661 0.0
C768 C 0.95849 0.22969 0.71645 0.0
C769 C 0.97865 0.20773 0.66805 0.0
C770 C 0.92756 0.2253 0.70615 0.0
C771 C 0.92207 0.21096 0.67728 0.0
H772 H 0.32466 0.77271 0.54552 0.0
H773 H 0.39335 0.73318 0.60994 0.0
H774 H 0.42056 0.70821 0.56621 0.0
H775 H 0.4284 0.70277 0.50944 0.0
H776 H 0.36313 0.7467 0.44476 0.0
H777 H 0.3301 0.76347 0.48883 0.0
C778 C 0.34548 0.75849 0.55011 0.0
C779 C 0.35718 0.75535 0.58105 0.0
C780 C 0.36125 0.74442 0.52477 0.0
C781 C 0.38407 0.73656 0.5864 0.0
C782 C 0.39953 0.72202 0.5614 0.0
C783 C 0.40617 0.71475 0.50497 0.0
C784 C 0.39778 0.72292 0.47391 0.0
C785 C 0.38868 0.72628 0.53046 0.0
C786 C 0.3696 0.73954 0.46844 0.0
C787 C 0.35111 0.74965 0.49368 0.0
H788 H 0.09456 0.67826 0.84857 0.0
H789 H 0.08369 0.58549 0.81169 0.0
H790 H 0.08291 0.60606 0.75832 0.0
H791 H 0.0734 0.65086 0.72339 0.0
H792 H 0.08485 0.74404 0.75884 0.0
H793 H 0.09827 0.72296 0.81063 0.0
C794 C 0.09296 0.6626 0.82878 0.0
C795 C 0.08799 0.63057 0.83417 0.0
C796 C 0.09224 0.67465 0.79765 0.0
C797 C 0.08648 0.61043 0.80823 0.0
C798 C 0.0861 0.62211 0.77758 0.0
C799 C 0.08007 0.66651 0.74209 0.0
C800 C 0.0772 0.6989 0.73734 0.0
C801 C 0.08715 0.6543 0.77211 0.0
C802 C 0.08647 0.71889 0.76176 0.0
C803 C 0.09378 0.70688 0.79169 0.0
H804 H 0.84121 0.70493 0.44143 0.0
H805 H 0.91624 0.73644 0.38079 0.0
H806 H 0.94093 0.76231 0.42555 0.0
H807 H 0.94268 0.77324 0.48277 0.0
H808 H 0.86857 0.73937 0.54291 0.0
H809 H 0.84136 0.71818 0.49723 0.0
C810 C 0.86306 0.71732 0.43779 0.0
C811 C 0.87703 0.71817 0.40758 0.0
C812 C 0.87685 0.73243 0.46352 0.0
C813 C 0.90507 0.73495 0.40365 0.0
C814 C 0.91908 0.74997 0.42926 0.0
C815 C 0.91992 0.76233 0.48564 0.0
C816 C 0.90709 0.75878 0.51614 0.0
C817 C 0.90523 0.74878 0.45935 0.0
C818 C 0.87836 0.74326 0.51966 0.0
C819 C 0.86313 0.73067 0.49358 0.0
H820 H 0.92133 0.81244 0.87418 0.0
H821 H 0.01832 0.83234 0.89458 0.0
H822 H 0.03524 0.80076 0.85003 0.0
H823 H 0.02137 0.77732 0.79925 0.0
H824 H 0.92442 0.75734 0.77866 0.0
H825 H 0.90829 0.77913 0.82934 0.0
C826 C 0.9462 0.80872 0.86954 0.0
C827 C 0.96859 0.82483 0.88721 0.0
C828 C 0.95559 0.79138 0.84335 0.0
C829 C 0.00075 0.81996 0.88134 0.0
C830 C 0.01037 0.80235 0.85553 0.0
C831 C 0.9968 0.77731 0.80625 0.0
C832 C 0.9739 0.76667 0.78528 0.0
C833 C 0.98787 0.78959 0.83537 0.0
C834 C 0.94225 0.76586 0.79452 0.0
C835 C 0.93309 0.7783 0.82339 0.0
H836 H 0.07441 0.76634 0.36995 0.0
H837 H 0.11992 0.84888 0.40428 0.0
H838 H 0.08832 0.84684 0.45218 0.0
H839 H 0.05212 0.81859 0.48638 0.0
H840 H 0.00874 0.73418 0.45366 0.0
H841 H 0.0351 0.74001 0.40295 0.0
C842 C 0.07689 0.78418 0.38768 0.0
C843 C 0.09947 0.80756 0.38387 0.0
C844 C 0.05942 0.78229 0.41557 0.0
C845 C 0.10278 0.83047 0.407 0.0
C846 C 0.08482 0.82931 0.43435 0.0
C847 C 0.04815 0.80164 0.46806 0.0
C848 C 0.02894 0.77578 0.4739 0.0
C849 C 0.06377 0.80479 0.43927 0.0
C850 C 0.02392 0.75405 0.4499 0.0
C851 C 0.03887 0.7574 0.42087 0.0
H852 H 0.65751 0.06193 0.35043 0.0
H853 H 0.68903 0.98917 0.41441 0.0
H854 H 0.74265 0.99373 0.39438 0.0
H855 H 0.78015 0.01792 0.35895 0.0
H856 H 0.74926 0.08942 0.29298 0.0
H857 H 0.69612 0.08719 0.31495 0.0
C858 C 0.67603 0.04655 0.3593 0.0
C859 C 0.66933 0.02466 0.38324 0.0
C860 C 0.70703 0.04993 0.34826 0.0
C861 C 0.69365 0.00568 0.39549 0.0
C862 C 0.72432 0.00862 0.3844 0.0
C863 C 0.76205 0.03348 0.34957 0.0
C864 C 0.7688 0.05356 0.32402 0.0
C865 C 0.73131 0.03086 0.36104 0.0
C866 C 0.74488 0.07371 0.31263 0.0
C867 C 0.71431 0.07206 0.32481 0.0
H868 H 0.26875 0.07091 0.85282 0.0
H869 H 0.24319 0.12181 0.93619 0.0
H870 H 0.21842 0.07461 0.9581 0.0
H871 H 0.21154 0.01723 0.95624 0.0
H872 H 0.24159 0.96681 0.87419 0.0
H873 H 0.25604 0.01589 0.84822 0.0
C874 C 0.25777 0.0718 0.87584 0.0
C875 C 0.25875 0.09951 0.89342 0.0
C876 C 0.24386 0.0448 0.88807 0.0
C877 C 0.2433 0.10058 0.92256 0.0
C878 C 0.22908 0.07365 0.93496 0.0
C879 C 0.21979 0.01729 0.93207 0.0
C880 C 0.22491 0.98865 0.91673 0.0
C881 C 0.23002 0.04541 0.91824 0.0
C882 C 0.23675 0.98867 0.88597 0.0
C883 C 0.24557 0.01665 0.87146 0.0
H884 H 0.35641 0.40657 0.31583 0.0
H885 H 0.32738 0.44491 0.40491 0.0
H886 H 0.27279 0.44295 0.38935 0.0
H887 H 0.23401 0.43981 0.34777 0.0
H888 H 0.26147 0.40653 0.25637 0.0
H889 H 0.31482 0.39608 0.27561 0.0
C890 C 0.33803 0.41389 0.33192 0.0
C891 C 0.34625 0.42625 0.36137 0.0
C892 C 0.30604 0.41382 0.32234 0.0
C893 C 0.32202 0.43559 0.38198 0.0
C894 C 0.29057 0.43451 0.37314 0.0
C895 C 0.25134 0.42928 0.33228 0.0
C896 C 0.24369 0.42457 0.30055 0.0
C897 C 0.28238 0.42496 0.34296 0.0
C898 C 0.2665 0.41054 0.28097 0.0
C899 C 0.29733 0.40503 0.29183 0.0
H900 H 0.73864 0.37817 0.88455 0.0
H901 H 0.66613 0.429 0.83392 0.0
H902 H 0.67831 0.47634 0.86311 0.0
H903 H 0.70816 0.50238 0.90456 0.0
H904 H 0.78229 0.45196 0.95337 0.0
H905 H 0.77112 0.40526 0.92304 0.0
C906 C 0.72552 0.39965 0.87998 0.0
C907 C 0.70127 0.40018 0.85757 0.0
C908 C 0.733 0.42673 0.89639 0.0
C909 C 0.68485 0.42818 0.85122 0.0
C910 C 0.69176 0.45515 0.8679 0.0
C911 C 0.72194 0.48119 0.90841 0.0
C912 C 0.74581 0.48046 0.93129 0.0
C913 C 0.71557 0.45457 0.89076 0.0
C914 C 0.76384 0.45307 0.93579 0.0
C915 C 0.75737 0.42634 0.91861 0.0
H916 H 0.62759 0.00869 0.15596 0.0
H917 H 0.6198 0.91549 0.19423 0.0
H918 H 0.66218 0.926 0.23182 0.0
H919 H 0.70811 0.95816 0.24515 0.0
H920 H 0.71717 0.0499 0.20291 0.0
H921 H 0.66732 0.04378 0.17568 0.0
C922 C 0.63467 0.99108 0.17323 0.0
C923 C 0.62146 0.96134 0.1723 0.0
C924 C 0.65958 -0.00312 0.19352 0.0
C925 C 0.63004 0.93856 0.19475 0.0
C926 C 0.65441 0.94447 0.21589 0.0
C927 C 0.69875 0.97701 0.23053 0.0
C928 C 0.71656 0.00401 0.22518 0.0
C929 C 0.67048 0.97297 0.2142 0.0
C930 C 0.70417 0.02852 0.20658 0.0
C931 C 0.67567 0.02512 0.19111 0.0
H932 H 0.18281 0.07195 0.13851 0.0
H933 H 0.24023 0.13444 0.08323 0.0
H934 H 0.25189 0.09252 0.04627 0.0
H935 H 0.2471 0.03759 0.03077 0.0
H936 H 0.18744 0.97604 0.08461 0.0
H937 H 0.17536 0.01813 0.12123 0.0
C938 C 0.19781 0.07637 0.11831 0.0
C939 C 0.21085 0.10606 0.11367 0.0
C940 C 0.20415 0.05233 0.09709 0.0
C941 C 0.22985 0.11172 0.08719 0.0
C942 C 0.23667 0.08776 0.06618 0.0
C943 C 0.23157 0.03346 0.05062 0.0
C944 C 0.21846 0.00383 0.05535 0.0
C945 C 0.22422 0.05789 0.07112 0.0
C946 C 0.19783 -0.00124 0.08066 0.0
C947 C 0.19095 0.02275 0.10156 0.0
H948 H 0.38442 0.49214 0.15523 0.0
H949 H 0.39172 0.58795 0.18337 0.0
H950 H 0.34481 0.58258 0.21654 0.0
H951 H 0.29638 0.55314 0.22936 0.0
H952 H 0.28706 0.45925 0.19486 0.0
H953 H 0.33961 0.46122 0.17234 0.0
C954 C 0.37655 0.51129 0.16989 0.0
C955 C 0.39173 0.5401 0.16759 0.0
C956 C 0.34836 0.50866 0.18681 0.0
C957 C 0.38074 0.56529 0.18557 0.0
C958 C 0.35357 0.56238 0.20398 0.0
C959 C 0.3061 0.53308 0.21721 0.0
C960 C 0.28757 0.50641 0.21312 0.0
C961 C 0.33625 0.53464 0.20346 0.0
C962 C 0.3005 0.48042 0.19756 0.0
C963 C 0.33069 0.48138 0.18489 0.0
H964 H 0.7595 0.4236 0.1518 0.0
H965 H 0.73711 0.36525 0.07292 0.0
H966 H 0.72397 0.41222 0.0414 0.0
H967 H 0.72753 0.46965 0.03443 0.0
H968 H 0.75763 0.52615 0.11188 0.0
H969 H 0.75903 0.47988 0.14635 0.0
C970 C 0.75161 0.42097 0.1277 0.0
C971 C 0.75013 0.39106 0.11431 0.0
C972 C 0.7456 0.44777 0.1097 0.0
C973 C 0.73879 0.38805 0.08354 0.0
C974 C 0.73147 0.41488 0.06558 0.0
C975 C 0.73342 0.47176 0.05915 0.0
C976 C 0.74208 0.50098 0.07107 0.0
C977 C 0.73598 0.44483 0.07812 0.0
C978 C 0.75056 0.50379 0.10266 0.0
C979 C 0.75156 0.47739 0.12214 0.0
H980 H 0.40415 0.68398 0.06671 0.0
H981 H 0.32309 0.6242 0.06133 0.0
H982 H 0.28864 0.67025 0.05764 0.0
H983 H 0.28281 0.72637 0.04707 0.0
H984 H 0.36482 0.78492 0.04554 0.0
H985 H 0.3977 0.74042 0.06187 0.0
C986 C 0.37891 0.68086 0.06506 0.0
C987 C 0.36629 0.65059 0.06352 0.0
C988 C 0.35947 0.70729 0.06188 0.0
C989 C 0.33348 0.64717 0.06209 0.0
C990 C 0.31378 0.67351 0.05999 0.0
C991 C 0.30771 0.72967 0.05142 0.0
C992 C 0.32145 0.75888 0.04513 0.0
C993 C 0.32667 0.70358 0.05867 0.0
C994 C 0.35377 0.7627 0.05031 0.0
C995 C 0.37257 0.73718 0.0593 0.0
H996 H 0.3912 0.32855 0.46359 0.0
H997 H 0.30537 0.37934 0.44304 0.0
H998 H 0.27764 0.32941 0.43736 0.0
H999 H 0.27793 0.27165 0.44471 0.0
H1000 H 0.36658 0.22305 0.45909 0.0
H1001 H 0.39413 0.27256 0.45719 0.0
C1002 C 0.36673 0.32904 0.45671 0.0
C1003 C 0.35032 0.35765 0.45411 0.0
C1004 C 0.35179 0.30074 0.45153 0.0
C1005 C 0.31837 0.35756 0.44571 0.0
C1006 C 0.30268 0.32907 0.44218 0.0
C1007 C 0.3034 0.27171 0.44617 0.0
C1008 C 0.32011 0.2437 0.45313 0.0
C1009 C 0.31914 0.30046 0.44574 0.0
C1010 C 0.35312 0.24426 0.45438 0.0
C1011 C 0.36885 0.2726 0.45379 0.0
H1012 H 0.55724 0.33329 0.7489 0.0
H1013 H 0.61942 0.41068 0.73179 0.0
H1014 H 0.57499 0.44158 0.71049 0.0
H1015 H 0.51742 0.4493 0.70703 0.0
H1016 H 0.45568 0.37386 0.7324 0.0
H1017 H 0.50113 0.33882 0.73942 0.0
C1018 C 0.56125 0.35688 0.74028 0.0
C1019 C 0.59135 0.37014 0.74282 0.0
C1020 C 0.5356 0.37459 0.7294 0.0
C1021 C 0.59638 0.40021 0.73051 0.0
C1022 C 0.57096 0.41781 0.71846 0.0
C1023 C 0.51398 0.42478 0.71269 0.0
C1024 C 0.48338 0.41382 0.71875 0.0
C1025 C 0.54029 0.40564 0.71911 0.0
C1026 C 0.47901 0.38243 0.7271 0.0
C1027 C 0.505 0.36266 0.73156 0.0
H1028 H 0.68179 0.1298 0.42701 0.0
H1029 H 0.67091 0.10871 0.5258 0.0
H1030 H 0.70903 0.14908 0.53877 0.0
H1031 H 0.73575 0.19716 0.52211 0.0
H1032 H 0.74566 0.21903 0.42342 0.0
H1033 H 0.718 0.17103 0.40992 0.0
C1034 C 0.68864 0.13349 0.45128 0.0
C1035 C 0.67343 0.11705 0.47555 0.0
C1036 C 0.7099 0.15704 0.45843 0.0
C1037 C 0.68245 0.12134 0.50689 0.0
C1038 C 0.70394 0.14457 0.51426 0.0
C1039 C 0.73254 0.19081 0.49767 0.0
C1040 C 0.74187 0.21149 0.47367 0.0
C1041 C 0.71635 0.16363 0.49029 0.0
C1042 C 0.73834 0.20327 0.44209 0.0
C1043 C 0.7224 0.17604 0.43446 0.0
H1044 H 0.93441 0.64719 0.29384 0.0
H1045 H 0.87445 0.57585 0.25629 0.0
H1046 H 0.92022 0.55116 0.23125 0.0
H1047 H 0.97793 0.54751 0.22396 0.0
H1048 H 0.03735 0.61737 0.26435 0.0
H1049 H 0.99091 0.64583 0.28325 0.0
C1050 C 0.93114 0.62618 0.28025 0.0
C1051 C 0.90088 0.61311 0.27754 0.0
C1052 C 0.95746 0.61233 0.26576 0.0
C1053 C 0.89738 0.5862 0.25925 0.0
C1054 C 0.92355 0.57221 0.24471 0.0
C1055 C 0.98055 0.56973 0.23566 0.0
C1056 C 0.01099 0.5809 0.24196 0.0
C1057 C 0.95376 0.58491 0.24806 0.0
C1058 C 0.01419 0.6089 0.25843 0.0
C1059 C 0.98764 0.62478 0.26975 0.0
H1060 H 0.17144 0.34925 0.6088 0.0
H1061 H 0.20068 0.40056 0.52628 0.0
H1062 H 0.24042 0.36026 0.515 0.0
H1063 H 0.25729 0.30519 0.52229 0.0
H1064 H 0.22592 0.25332 0.60364 0.0
H1065 H 0.19675 0.29918 0.62226 0.0
C1066 C 0.18744 0.35209 0.58907 0.0
C1067 C 0.18318 0.37736 0.56814 0.0
C1068 C 0.20933 0.32846 0.58234 0.0
C1069 C 0.20382 0.38121 0.54268 0.0
C1070 C 0.22618 0.35799 0.53604 0.0
C1071 C 0.24497 0.30451 0.54466 0.0
C1072 C 0.24338 0.27632 0.56171 0.0
C1073 C 0.22779 0.33071 0.55471 0.0
C1074 C 0.22735 0.27509 0.59045 0.0
C1075 C 0.21057 0.30116 0.6009 0.0
H1076 H 0.62002 0.60489 0.77042 0.0
H1077 H 0.59989 0.63113 0.67421 0.0
H1078 H 0.55776 0.59304 0.67215 0.0
H1079 H 0.524 0.55616 0.69865 0.0
H1080 H 0.54037 0.53131 0.79607 0.0
H1081 H 0.58684 0.56467 0.7967 0.0
C1082 C 0.60659 0.60174 0.74902 0.0
C1083 C 0.61268 0.62057 0.72252 0.0
C1084 C 0.58168 0.58035 0.7483 0.0
C1085 C 0.59524 0.61679 0.69485 0.0
C1086 C 0.57122 0.59511 0.69368 0.0
C1087 C 0.53774 0.55775 0.72007 0.0
C1088 C 0.52842 0.54155 0.74738 0.0
C1089 C 0.56376 0.57737 0.72045 0.0
C1090 C 0.54687 0.54372 0.77474 0.0
C1091 C 0.57341 0.56285 0.77514 0.0
H1092 H 0.377 0.89717 0.72021 0.0
H1093 H 0.41795 0.86548 0.63326 0.0
H1094 H 0.46621 0.8943 0.64457 0.0
H1095 H 0.49718 0.92677 0.68059 0.0
H1096 H 0.45683 0.95381 0.76961 0.0
H1097 H 0.40782 0.9282 0.75623 0.0
C1098 C 0.3963 0.89706 0.70346 0.0
C1099 C 0.39395 0.87984 0.67573 0.0
C1100 C 0.42413 0.91239 0.71076 0.0
C1101 C 0.41934 0.87895 0.65463 0.0
C1102 C 0.44687 0.89524 0.66117 0.0
C1103 C 0.47761 0.92701 0.69698 0.0
C1104 C 0.48055 0.94203 0.72603 0.0
C1105 C 0.44964 0.91172 0.68939 0.0
C1106 C 0.4552 0.94207 0.74723 0.0
C1107 C 0.42711 0.92764 0.73954 0.0
H1108 H 0.58408 0.81903 0.15701 0.0
H1109 H 0.52645 0.89857 0.1827 0.0
H1110 H 0.53101 0.88429 0.23781 0.0
H1111 H 0.54534 0.84642 0.27812 0.0
H1112 H 0.59786 0.76336 0.25346 0.0
H1113 H 0.6029 0.78273 0.19939 0.0
C1114 C 0.57257 0.83318 0.17471 0.0
C1115 C 0.55425 0.85937 0.16546 0.0
C1116 C 0.57476 0.82451 0.20681 0.0
C1117 C 0.53998 0.87778 0.18884 0.0
C1118 C 0.54283 0.86986 0.22055 0.0
C1119 C 0.55861 0.83277 0.26121 0.0
C1120 C 0.5704 0.80304 0.26987 0.0
C1121 C 0.55942 0.84289 0.22974 0.0
C1122 C 0.58815 0.7862 0.2476 0.0
C1123 C 0.59058 0.79702 0.21641 0.0
H1124 H 0.10737 0.16541 0.10019 0.0
H1125 H 0.07674 0.25027 0.14507 0.0
H1126 H 0.04002 0.26105 0.10159 0.0
H1127 H 0.02181 0.24911 0.04791 0.0
H1128 H 0.05459 0.16441 0.00345 0.0
H1129 H 0.08555 0.1509 0.04973 0.0
C1130 C 0.09224 0.18601 0.10066 0.0
C1131 C 0.09484 0.20724 0.12534 0.0
C1132 C 0.07209 0.19233 0.07546 0.0
C1133 C 0.07493 0.23359 0.12619 0.0
C1134 C 0.05428 0.2399 0.10122 0.0
C1135 C 0.03565 0.22767 0.04843 0.0
C1136 C 0.03632 0.20811 0.02204 0.0
C1137 C 0.05354 0.21996 0.0752 0.0
C1138 C 0.05386 0.18007 0.02328 0.0
C1139 C 0.07156 0.17224 0.04976 0.0
H1140 H 0.4591 0.67046 0.12081 0.0
H1141 H 0.54149 0.61372 0.13978 0.0
H1142 H 0.55577 0.64754 0.18333 0.0
H1143 H 0.54006 0.68718 0.22057 0.0
H1144 H 0.45493 0.74125 0.20568 0.0
H1145 H 0.44655 0.71498 0.15544 0.0
C1146 C 0.48063 0.66629 0.13401 0.0
C1147 C 0.49939 0.64 0.12753 0.0
C1148 C 0.48776 0.68492 0.15989 0.0
C1149 C 0.52696 0.63406 0.1447 0.0
C1150 C 0.53495 0.65321 0.16958 0.0
C1151 C 0.51977 0.69344 0.20623 0.0
C1152 C 0.49763 0.71537 0.21707 0.0
C1153 C 0.51473 0.67773 0.1782 0.0
C1154 C 0.47203 0.72405 0.19788 0.0
C1155 C 0.46721 0.70899 0.16929 0.0
H1156 H 0.87299 0.23068 0.09886 0.0
H1157 H 0.8319 0.31538 0.06007 0.0
H1158 H 0.85007 0.30145 0.00779 0.0
H1159 H 0.87994 0.26729 0.97347 0.0
H1160 H 0.92434 0.18383 0.01096 0.0
H1161 H 0.90112 0.19411 0.06268 0.0
C1162 C 0.8685 0.24619 0.07897 0.0
C1163 C 0.85161 0.27433 0.08346 0.0
C1164 C 0.87875 0.23779 0.04852 0.0
C1165 C 0.84514 0.29379 0.05732 0.0
C1166 C 0.85526 0.28572 0.02733 0.0
C1167 C 0.8839 0.25085 0.99274 0.0
C1168 C 0.90397 0.22492 0.98827 0.0
C1169 C 0.87212 0.25789 0.02266 0.0
C1170 C 0.9087 0.2038 0.01351 0.0
C1171 C 0.89598 0.21007 0.04334 0.0
H1172 H 0.58139 0.17922 0.36059 0.0
H1173 H 0.59732 0.08925 0.31771 0.0
H1174 H 0.59604 0.11286 0.26603 0.0
H1175 H 0.5801 0.15697 0.23249 0.0
H1176 H 0.56997 0.24826 0.27322 0.0
H1177 H 0.58019 0.22644 0.32549 0.0
C1178 C 0.58524 0.16494 0.34001 0.0
C1179 C 0.58771 0.13227 0.34334 0.0
C1180 C 0.58531 0.17879 0.30962 0.0
C1181 C 0.59381 0.11434 0.3162 0.0
C1182 C 0.59334 0.12777 0.28632 0.0
C1183 C 0.58139 0.17229 0.25261 0.0
C1184 C 0.57311 0.20388 0.24904 0.0
C1185 C 0.58753 0.1597 0.28266 0.0
C1186 C 0.57559 0.22358 0.2753 0.0
C1187 C 0.58114 0.21109 0.30541 0.0
H1188 H 0.33045 0.20646 0.95344 0.0
H1189 H 0.39736 0.25153 0.89185 0.0
H1190 H 0.42476 0.27236 0.93739 0.0
H1191 H 0.43192 0.27493 0.99465 0.0
H1192 H 0.36817 0.22609 0.05626 0.0
H1193 H 0.33664 0.21049 0.01084 0.0
C1194 C 0.35096 0.22093 0.94987 0.0
C1195 C 0.36185 0.22717 0.91905 0.0
C1196 C 0.36683 0.23265 0.97624 0.0
C1197 C 0.38853 0.24601 0.91514 0.0
C1198 C 0.40412 0.25814 0.94122 0.0
C1199 C 0.41046 0.26183 0.99818 0.0
C1200 C 0.4018 0.25242 0.02882 0.0
C1201 C 0.39363 0.25144 0.97186 0.0
C1202 C 0.37478 0.23425 0.03297 0.0
C1203 C 0.35707 0.22497 0.00697 0.0
H1204 H 0.48818 0.30555 0.39433 0.0
H1205 H 0.38873 0.32032 0.38162 0.0
H1206 H 0.38932 0.28663 0.33543 0.0
H1207 H 0.42116 0.26503 0.29158 0.0
H1208 H 0.52142 0.25504 0.30318 0.0
H1209 H 0.51785 0.27427 0.3568 0.0
C1210 C 0.46643 0.29984 0.3824 0.0
C1211 C 0.43854 0.31512 0.39099 0.0
C1212 C 0.46744 0.28214 0.35496 0.0
C1213 C 0.4104 0.30833 0.37535 0.0
C1214 C 0.41089 0.28961 0.3486 0.0
C1215 C 0.44191 0.26627 0.30636 0.0
C1216 C 0.47158 0.25926 0.29372 0.0
C1217 C 0.43969 0.27827 0.33697 0.0
C1218 C 0.49848 0.26077 0.31267 0.0
C1219 C 0.49643 0.27173 0.34326 0.0
H1220 H 0.56172 0.2646 0.8743 0.0
H1221 H 0.59887 0.35327 0.90291 0.0
H1222 H 0.56868 0.35052 0.95174 0.0
H1223 H 0.53884 0.31907 0.98927 0.0
H1224 H 0.50496 0.22847 0.96205 0.0
H1225 H 0.52683 0.23584 0.90957 0.0
C1226 C 0.56245 0.28371 0.89083 0.0
C1227 C 0.58261 0.30888 0.88544 0.0
C1228 C 0.54628 0.28127 0.91935 0.0
C1229 C 0.58362 0.3335 0.90696 0.0
C1230 C 0.56657 0.33185 0.93487 0.0
C1231 C 0.53595 0.30106 0.97178 0.0
C1232 C 0.52107 0.27298 0.97975 0.0
C1233 C 0.54903 0.30516 0.94189 0.0
C1234 C 0.51706 0.25004 0.95671 0.0
C1235 C 0.52938 0.25426 0.92664 0.0
H1236 H 0.16054 0.57569 0.82956 0.0
H1237 H 0.18962 0.50817 0.90057 0.0
H1238 H 0.24427 0.51948 0.89027 0.0
H1239 H 0.28382 0.54256 0.85695 0.0
H1240 H 0.25632 0.60471 0.78092 0.0
H1241 H 0.20172 0.60329 0.79884 0.0
C1242 C 0.17886 0.56339 0.84263 0.0
C1243 C 0.17079 0.54055 0.86524 0.0
C1244 C 0.21074 0.56955 0.83622 0.0
C1245 C 0.19491 0.52538 0.8825 0.0
C1246 C 0.22634 0.53205 0.87693 0.0
C1247 C 0.2661 0.55651 0.84468 0.0
C1248 C 0.27405 0.57259 0.81686 0.0
C1249 C 0.23453 0.55342 0.85333 0.0
C1250 C 0.25087 0.59146 0.80206 0.0
C1251 C 0.21944 0.59018 0.81192 0.0
H1252 H 0.7364 0.59676 0.39811 0.0
H1253 H 0.83161 0.56734 0.37728 0.0
H1254 H 0.81931 0.51397 0.39206 0.0
H1255 H 0.78264 0.4758 0.41071 0.0
H1256 H 0.69051 0.50437 0.44255 0.0
H1257 H 0.6993 0.5572 0.42114 0.0
C1258 C 0.75459 0.57879 0.39788 0.0
C1259 C 0.78499 0.58602 0.38687 0.0
C1260 C 0.74742 0.54775 0.40682 0.0
C1261 C 0.80817 0.56238 0.38594 0.0
C1262 C 0.80103 0.53175 0.39385 0.0
C1263 C 0.76416 0.49341 0.41267 0.0
C1264 C 0.73613 0.48614 0.42852 0.0
C1265 C 0.77073 0.52415 0.40386 0.0
C1266 C 0.71228 0.50915 0.43023 0.0
C1267 C 0.71766 0.53961 0.41877 0.0
H1268 H 0.85935 0.92856 0.81655 0.0
H1269 H 0.81562 0.90742 0.9059 0.0
H1270 H 0.76396 0.90931 0.88177 0.0
H1271 H 0.73076 0.92693 0.83791 0.0
H1272 H 0.77333 0.94662 0.74786 0.0
H1273 H 0.82527 0.93449 0.76929 0.0
C1274 C 0.83858 0.92357 0.83048 0.0
C1275 C 0.84135 0.9191 0.86317 0.0
C1276 C 0.80847 0.92466 0.81641 0.0
C1277 C 0.81416 0.91207 0.88082 0.0
C1278 C 0.78447 0.91301 0.86707 0.0
C1279 C 0.75128 0.92743 0.82271 0.0
C1280 C 0.74814 0.93814 0.79157 0.0
C1281 C 0.78122 0.92083 0.83525 0.0
C1282 C 0.77496 0.93843 0.77202 0.0
C1283 C 0.80487 0.93189 0.78436 0.0
H1284 H 0.17238 0.93197 0.34802 0.0
H1285 H 0.25713 0.8803 0.37125 0.0
H1286 H 0.27389 0.92198 0.40587 0.0
H1287 H 0.26328 0.97143 0.43156 0.0
H1288 H 0.17701 0.02212 0.41198 0.0
H1289 H 0.16189 0.98249 0.37393 0.0
C1290 C 0.19461 0.93016 0.36048 0.0
C1291 C 0.21353 0.90331 0.35729 0.0
C1292 C 0.20367 0.95382 0.3811 0.0
C1293 C 0.24215 0.9008 0.37367 0.0
C1294 C 0.25175 0.92456 0.3934 0.0
C1295 C 0.2413 0.974 0.41877 0.0
C1296 C 0.22133 -0.00038 0.42448 0.0
C1297 C 0.2325 0.95092 0.39762 0.0
C1298 C 0.19272 0.00244 0.40803 0.0
C1299 C 0.1841 0.97986 0.38626 0.0
H1300 H 0.12879 0.51768 0.65241 0.0
H1301 H 0.11859 0.42879 0.69943 0.0
H1302 H 0.16051 0.44203 0.73647 0.0
H1303 H 0.20736 0.47357 0.74641 0.0
H1304 H 0.22058 0.55971 0.6944 0.0
H1305 H 0.16999 0.55326 0.66849 0.0
C1306 C 0.13499 0.50192 0.6717 0.0
C1307 C 0.12113 0.4725 0.67358 0.0
C1308 C 0.16017 0.5089 0.6913 0.0
C1309 C 0.12907 0.45174 0.69808 0.0
C1310 C 0.15327 0.45914 0.71883 0.0
C1311 C 0.19879 0.49125 0.72994 0.0
C1312 C 0.21794 0.51654 0.72152 0.0
C1313 C 0.17024 0.4868 0.71431 0.0
C1314 C 0.20654 0.53955 0.70049 0.0
C1315 C 0.1776 0.53597 0.68579 0.0
H1316 H 0.67856 0.58257 0.64074 0.0
H1317 H 0.73266 0.64328 0.58028 0.0
H1318 H 0.74828 0.59859 0.54816 0.0
H1319 H 0.74846 0.54164 0.53888 0.0
H1320 H 0.69198 0.48192 0.598 0.0
H1321 H 0.67574 0.52678 0.62943 0.0
C1322 C 0.69355 0.58607 0.62036 0.0
C1323 C 0.70458 0.61611 0.61298 0.0
C1324 C 0.7024 0.56037 0.60212 0.0
C1325 C 0.72368 0.62038 0.58631 0.0
C1326 C 0.73287 0.59481 0.56814 0.0
C1327 C 0.7328 0.53856 0.55881 0.0
C1328 C 0.7218 0.50861 0.56658 0.0
C1329 C 0.72282 0.56461 0.57617 0.0
C1330 C 0.70088 0.50482 0.59186 0.0
C1331 C 0.69154 0.53042 0.60972 0.0
H1332 H 0.88497 0.04367 0.69805 0.0
H1333 H 0.84342 0.10714 0.63003 0.0
H1334 H 0.79476 0.10917 0.66032 0.0
H1335 H 0.76087 0.0841 0.6996 0.0
H1336 H 0.80132 0.02066 0.76811 0.0
H1337 H 0.85356 0.02757 0.74473 0.0
C1338 C 0.86567 0.05889 0.69074 0.0
C1339 C 0.86744 0.07503 0.66188 0.0
C1340 C 0.83736 0.05942 0.70803 0.0
C1341 C 0.84231 0.09447 0.65224 0.0
C1342 C 0.81443 0.09545 0.66938 0.0
C1343 C 0.7814 0.07278 0.71003 0.0
C1344 C 0.77755 0.05193 0.73529 0.0
C1345 C 0.81114 0.07671 0.69633 0.0
C1346 C 0.80403 0.0371 0.74873 0.0
C1347 C 0.8338 0.0408 0.73518 0.0
H1348 H 0.25462 0.9138 0.63905 0.0
H1349 H 0.24732 0.86364 0.55202 0.0
H1350 H 0.23069 0.91219 0.52484 0.0
H1351 H 0.22796 0.96998 0.52469 0.0
H1352 H 0.24144 0.01987 0.61102 0.0
H1353 H 0.24577 0.97016 0.64015 0.0
C1354 C 0.24891 0.9134 0.61416 0.0
C1355 C 0.2528 0.88551 0.59724 0.0
C1356 C 0.24074 0.94135 0.59881 0.0
C1357 C 0.24465 0.88493 0.56534 0.0
C1358 C 0.23542 0.91269 0.54988 0.0
C1359 C 0.2308 0.96976 0.55008 0.0
C1360 C 0.23405 -0.00182 0.56604 0.0
C1361 C 0.23475 0.94119 0.56616 0.0
C1362 C 0.23843 -0.00188 0.59863 0.0
C1363 C 0.24117 0.96978 0.61507 0.0
H1364 H 0.83922 0.14908 0.58056 0.0
H1365 H 0.91471 0.17193 0.51641 0.0
H1366 H 0.90245 0.22706 0.52098 0.0
H1367 H 0.86598 0.26783 0.53622 0.0
H1368 H 0.78632 0.24571 0.59505 0.0
H1369 H 0.8058 0.19207 0.60132 0.0
C1370 C 0.85295 0.16616 0.56764 0.0
C1371 C 0.87721 0.15618 0.54744 0.0
C1372 C 0.84541 0.1982 0.56985 0.0
C1373 C 0.89527 0.17872 0.53144 0.0
C1374 C 0.88855 0.21041 0.53428 0.0
C1375 C 0.85322 0.25162 0.55119 0.0
C1376 C 0.82406 0.26053 0.56404 0.0
C1377 C 0.86308 0.22033 0.55255 0.0
C1378 C 0.80854 0.23936 0.58423 0.0
C1379 C 0.81936 0.20846 0.58737 0.0
H1380 H 0.89753 0.82187 0.94503 0.0
H1381 H 0.82259 0.87454 0.98902 0.0
H1382 H 0.78772 0.82931 0.9842 0.0
H1383 H 0.78129 0.77321 0.97295 0.0
H1384 H 0.85854 0.72066 0.93323 0.0
H1385 H 0.88984 0.76824 0.92977 0.0
C1386 C 0.87363 0.82359 0.9539 0.0
C1387 C 0.86294 0.85118 0.96848 0.0
C1388 C 0.85413 0.79779 0.9511 0.0
C1389 C 0.83152 0.85333 0.97842 0.0
C1390 C 0.81164 0.82757 0.97549 0.0
C1391 C 0.80454 0.77252 0.96238 0.0
C1392 C 0.81761 0.74373 0.95279 0.0
C1393 C 0.82297 0.7995 0.96243 0.0
C1394 C 0.84802 0.74271 0.94015 0.0
C1395 C 0.86597 0.76975 0.93868 0.0
H1396 H 0.06241 0.84027 0.24969 0.0
H1397 H 0.11776 0.923 0.23452 0.0
H1398 H 0.07139 0.95002 0.2121 0.0
H1399 H 0.01378 0.952 0.20477 0.0
H1400 H 0.95859 0.87028 0.22527 0.0
H1401 H 0.0067 0.8403 0.23659 0.0
C1402 C 0.06448 0.86423 0.2414 0.0
C1403 C 0.09324 0.88001 0.24463 0.0
C1404 C 0.03786 0.87947 0.22907 0.0
C1405 C 0.09577 0.91059 0.23274 0.0
C1406 C 0.06929 0.92594 0.21992 0.0
C1407 C 0.01242 0.92725 0.21036 0.0
C1408 C 0.98273 0.91313 0.21383 0.0
C1409 C 0.04001 0.91086 0.21888 0.0
C1410 C 0.98118 0.88136 0.22198 0.0
C1411 C 0.00863 0.86446 0.22895 0.0
H1412 H 0.18045 0.6327 0.89825 0.0
H1413 H 0.19785 0.59794 0.99217 0.0
H1414 H 0.23485 0.64038 0.00134 0.0
H1415 H 0.25196 0.69319 0.98645 0.0
H1416 H 0.23256 0.72939 0.89344 0.0
H1417 H 0.20688 0.68037 0.87953 0.0
C1418 C 0.19347 0.63384 0.92017 0.0
C1419 C 0.18676 0.61264 0.9446 0.0
C1420 C 0.21369 0.65884 0.9255 0.0
C1421 C 0.20316 0.61406 0.9731 0.0
C1422 C 0.22391 0.63849 0.97841 0.0
C1423 C 0.24296 0.68976 0.96285 0.0
C1424 C 0.2436 0.71451 0.94098 0.0
C1425 C 0.22785 0.66193 0.95542 0.0
C1426 C 0.23214 0.71035 0.91045 0.0
C1427 C 0.21734 0.6825 0.90265 0.0
H1428 H 0.393 0.11212 0.76138 0.0
H1429 H 0.41663 0.11811 0.85971 0.0
H1430 H 0.46957 0.09794 0.84899 0.0
H1431 H 0.50861 0.07794 0.81212 0.0
H1432 H 0.48584 0.07134 0.71348 0.0
H1433 H 0.43371 0.09402 0.72356 0.0
C1434 C 0.40962 0.10829 0.78044 0.0
C1435 C 0.40078 0.11558 0.81145 0.0
C1436 C 0.44042 0.09764 0.77391 0.0
C1437 C 0.4228 0.11187 0.83583 0.0
C1438 C 0.45313 0.10075 0.82964 0.0
C1439 C 0.4925 0.08189 0.79263 0.0
C1440 C 0.50121 0.0727 0.76208 0.0
C1441 C 0.46223 0.09371 0.79878 0.0
C1442 C 0.48 0.07837 0.73719 0.0
C1443 C 0.44993 0.09084 0.74304 0.0
H1444 H 0.65197 0.82766 0.10286 0.0
H1445 H 0.70229 0.89356 0.045 0.0
H1446 H 0.74325 0.85406 0.03481 0.0
H1447 H 0.75783 0.79783 0.03362 0.0
H1448 H 0.70447 0.73195 0.08871 0.0
H1449 H 0.67175 0.77433 0.10936 0.0
C1450 C 0.67247 0.83356 0.08884 0.0
C1451 C 0.67415 0.86302 0.07427 0.0
C1452 C 0.69506 0.81057 0.08236 0.0
C1453 C 0.70073 0.87086 0.0564 0.0
C1454 C 0.72388 0.8482 0.05033 0.0
C1455 C 0.73971 0.79315 0.051 0.0
C1456 C 0.73322 0.76221 0.05982 0.0
C1457 C 0.72035 0.81754 0.06185 0.0
C1458 C 0.70962 0.75584 0.08189 0.0
C1459 C 0.69089 0.77996 0.09349 0.0
H1460 H 0.11999 0.09172 0.27122 0.0
H1461 H 0.11055 0.10894 0.17155 0.0
H1462 H 0.06783 0.07146 0.16869 0.0
H1463 H 0.02919 0.03949 0.19548 0.0
H1464 H 0.03574 0.02354 0.29568 0.0
H1465 H 0.08391 0.05438 0.2975 0.0
C1466 C 0.10892 0.08653 0.24892 0.0
C1467 C 0.11791 0.1028 0.22164 0.0
C1468 C 0.08373 0.06562 0.24765 0.0
C1469 C 0.10359 0.09648 0.19274 0.0
C1470 C 0.07921 0.07523 0.19114 0.0
C1471 C 0.04127 0.04255 0.21771 0.0
C1472 C 0.02864 0.02997 0.24548 0.0
C1473 C 0.06838 0.06059 0.21861 0.0
C1474 C 0.04494 0.03335 0.27399 0.0
C1475 C 0.07238 0.05104 0.27506 0.0
H1476 H 0.87319 0.40151 0.2364 0.0
H1477 H 0.90624 0.37216 0.14532 0.0
H1478 H 0.95389 0.40289 0.15164 0.0
H1479 H 0.98747 0.43518 0.18433 0.0
H1480 H 0.95605 0.46223 0.27683 0.0
H1481 H 0.90647 0.43512 0.26875 0.0
C1482 C 0.8906 0.40235 0.21774 0.0
C1483 C 0.88626 0.3848 0.19038 0.0
C1484 C 0.91837 0.41922 0.22198 0.0
C1485 C 0.90917 0.38554 0.16658 0.0
C1486 C 0.93642 0.40299 0.17023 0.0
C1487 C 0.96975 0.43532 0.20271 0.0
C1488 C 0.97556 0.45057 0.2312 0.0
C1489 C 0.94152 0.41941 0.19807 0.0
C1490 C 0.95233 0.4504 0.25477 0.0
C1491 C 0.92391 0.43503 0.25013 0.0
H1492 H 0.18403 0.21771 0.8149 0.0
H1493 H 0.19469 0.12197 0.84587 0.0
H1494 H 0.13987 0.12171 0.86384 0.0
H1495 H 0.08946 0.15056 0.87456 0.0
H1496 H 0.08024 0.24598 0.8413 0.0
H1497 H 0.13333 0.24436 0.82072 0.0
C1498 C 0.17419 0.19657 0.82502 0.0
C1499 C 0.19351 0.16994 0.8289 0.0
C1500 C 0.14274 0.19663 0.83541 0.0
C1501 C 0.1803 0.14273 0.84212 0.0
C1502 C 0.14898 0.14269 0.85279 0.0
C1503 C 0.09908 0.17087 0.86269 0.0
C1504 C 0.0806 0.19836 0.8597 0.0
C1505 C 0.13007 0.16978 0.85024 0.0
C1506 C 0.09354 0.22437 0.8439 0.0
C1507 C 0.12411 0.22359 0.8321 0.0
H1508 H 0.42339 0.54888 0.42243 0.0
H1509 H 0.49346 0.50256 0.36544 0.0
H1510 H 0.51199 0.55282 0.34598 0.0
H1511 H 0.50777 0.61006 0.34405 0.0
H1512 H 0.43748 0.65646 0.40065 0.0
H1513 H 0.41965 0.60627 0.42106 0.0
C1514 C 0.44292 0.54981 0.40603 0.0
C1515 C 0.45689 0.52195 0.39541 0.0
C1516 C 0.45332 0.57888 0.39453 0.0
C1517 C 0.48206 0.52362 0.37391 0.0
C1518 C 0.49271 0.55238 0.36267 0.0
C1519 C 0.48843 0.60917 0.36068 0.0
C1520 C 0.47403 0.63702 0.37074 0.0
C1521 C 0.4783 0.58016 0.37251 0.0
C1522 C 0.44914 0.63541 0.39257 0.0
C1523 C 0.43889 0.60669 0.40431 0.0
H1524 H 0.78656 0.34051 0.83039 0.0
H1525 H 0.76907 0.24156 0.82733 0.0
H1526 H 0.8217 0.23042 0.84797 0.0
H1527 H 0.8737 0.24863 0.86417 0.0
H1528 H 0.89249 0.34723 0.8652 0.0
H1529 H 0.83803 0.35886 0.84975 0.0
C1530 C 0.79458 0.31655 0.83372 0.0
C1531 C 0.77432 0.29185 0.82656 0.0
C1532 C 0.8247 0.31031 0.84636 0.0
C1533 C 0.78453 0.26092 0.83207 0.0
C1534 C 0.81445 0.25454 0.84425 0.0
C1535 C 0.86543 0.27266 0.86236 0.0
C1536 C 0.88679 0.29707 0.86657 0.0
C1537 C 0.83473 0.27903 0.85154 0.0
C1538 C 0.87617 0.32812 0.86291 0.0
C1539 C 0.84525 0.33472 0.85336 0.0
H1540 H 0.54374 0.954 0.38564 0.0
H1541 H 0.5673 0.94065 0.4838 0.0
H1542 H 0.5552 0.8851 0.47987 0.0
H1543 H 0.53642 0.84138 0.44928 0.0
H1544 H 0.51278 0.85373 0.3512 0.0
H1545 H 0.52758 0.90906 0.35402 0.0
C1546 C 0.54594 0.939 0.40629 0.0
C1547 C 0.55581 0.95148 0.43522 0.0
C1548 C 0.5395 0.90712 0.40367 0.0
C1549 C 0.55942 0.93164 0.46147 0.0
C1550 C 0.55266 0.89994 0.45916 0.0
C1551 C 0.53466 0.85616 0.4284 0.0
C1552 C 0.52317 0.84384 0.40014 0.0
C1553 C 0.54256 0.8876 0.43047 0.0
C1554 C 0.52163 0.86284 0.37312 0.0
C1555 C 0.52975 0.89442 0.37489 0.0
H1556 H 0.18787 0.85469 0.64522 0.0
H1557 H 0.19011 0.77803 0.71189 0.0
H1558 H 0.13396 0.76925 0.70347 0.0
H1559 H 0.08749 0.77793 0.67117 0.0
H1560 H 0.08607 0.85102 0.60034 0.0
H1561 H 0.13886 0.86676 0.61627 0.0
C1562 C 0.17568 0.83682 0.65866 0.0
C1563 C 0.19272 0.81715 0.67935 0.0
C1564 C 0.14393 0.83082 0.65231 0.0
C1565 C 0.17717 0.7935 0.69608 0.0
C1566 C 0.14525 0.78833 0.69102 0.0
C1567 C 0.09836 0.79766 0.6595 0.0
C1568 C 0.08294 0.81299 0.63432 0.0
C1569 C 0.12883 0.80597 0.66821 0.0
C1570 C 0.09753 0.83857 0.61956 0.0
C1571 C 0.1277 0.84759 0.62868 0.0
H1572 H 0.08369 0.55081 0.60936 0.0
H1573 H 0.99574 0.52381 0.56734 0.0
H1574 H 0.97448 0.57642 0.57506 0.0
H1575 H 0.9818 0.63018 0.59115 0.0
H1576 H 0.06921 0.65845 0.63299 0.0
H1577 H 0.08961 0.60458 0.62921 0.0
C1578 C 0.06 0.55663 0.6016 0.0
C1579 C 0.04145 0.53381 0.58713 0.0
C1580 C 0.04776 0.58672 0.6067 0.0
C1581 C 0.01049 0.54119 0.5781 0.0
C1582 C 0.99831 0.57112 0.5827 0.0
C1583 C 0.0052 0.62442 0.59985 0.0
C1584 C 0.02422 0.64803 0.61199 0.0
C1585 C 0.01681 0.59401 0.59674 0.0
C1586 C 0.05422 0.64045 0.62369 0.0
C1587 C 0.06594 0.60985 0.62109 0.0
H1588 H 0.80414 0.65827 0.67105 0.0
H1589 H 0.78422 0.75298 0.64004 0.0
H1590 H 0.83802 0.7582 0.62137 0.0
H1591 H 0.89165 0.73812 0.61897 0.0
H1592 H 0.91325 0.64541 0.65412 0.0
H1593 H 0.85741 0.63653 0.66453 0.0
C1594 C 0.81161 0.68011 0.66039 0.0
C1595 C 0.79034 0.70536 0.65752 0.0
C1596 C 0.84265 0.68306 0.64976 0.0
C1597 C 0.80022 0.73328 0.64297 0.0
C1598 C 0.83091 0.73624 0.63202 0.0
C1599 C 0.88403 0.71557 0.62786 0.0
C1600 C 0.90638 0.69251 0.63599 0.0
C1601 C 0.85241 0.71148 0.63574 0.0
C1602 C 0.89629 0.66348 0.64774 0.0
C1603 C 0.8645 0.65861 0.65416 0.0
H1604 H 0.94085 0.9658 0.6453 0.0
H1605 H 0.93231 0.95203 0.54548 0.0
H1606 H 0.9419 0.89565 0.5529 0.0
H1607 H 0.95658 0.85076 0.58819 0.0
H1608 H 0.96239 0.86651 0.68826 0.0
H1609 H 0.94954 0.92127 0.68031 0.0
C1610 C 0.94101 0.95043 0.62516 0.0
C1611 C 0.93646 0.96299 0.5949 0.0
C1612 C 0.94601 0.91828 0.62968 0.0
C1613 C 0.93596 0.9428 0.56905 0.0
C1614 C 0.94149 0.91061 0.5733 0.0
C1615 C 0.95452 0.8661 0.60822 0.0
C1616 C 0.96111 0.8545 0.63871 0.0
C1617 C 0.94703 0.89809 0.60355 0.0
C1618 C 0.95809 0.87476 0.66444 0.0
C1619 C 0.95073 0.90622 0.66 0.0
H1620 H 0.82613 0.2025 0.23668 0.0
H1621 H 0.80648 0.18855 0.13833 0.0
H1622 H 0.83025 0.13613 0.14163 0.0
H1623 H 0.8599 0.09536 0.17215 0.0
H1624 H 0.87793 0.10998 0.2706 0.0
H1625 H 0.85227 0.16135 0.26748 0.0
C1626 C 0.82658 0.18784 0.21602 0.0
C1627 C 0.81454 0.19949 0.1873 0.0
C1628 C 0.84084 0.15816 0.21796 0.0
C1629 C 0.8152 0.18007 0.16084 0.0
C1630 C 0.82923 0.15025 0.16261 0.0
C1631 C 0.85855 0.11016 0.19267 0.0
C1632 C 0.87159 0.0996 0.22135 0.0
C1633 C 0.84286 0.13936 0.19088 0.0
C1634 C 0.86871 0.11817 0.24817 0.0
C1635 C 0.85379 0.14733 0.24645 0.0
H1636 H 0.46097 0.85983 0.05596 0.0
H1637 H 0.4739 0.95586 0.02714 0.0
H1638 H 0.4216 0.9572 0.00366 0.0
H1639 H 0.37159 0.93289 0.99464 0.0
H1640 H 0.3548 0.83865 0.02706 0.0
H1641 H 0.40956 0.83444 0.04533 0.0
C1642 C 0.45232 0.88085 0.04419 0.0
C1643 C 0.47108 0.90779 0.0433 0.0
C1644 C 0.42168 0.88175 0.03154 0.0
C1645 C 0.45971 0.935 0.0283 0.0
C1646 C 0.42988 0.93575 0.01485 0.0
C1647 C 0.37969 0.91126 0.00563 0.0
C1648 C 0.35893 0.88612 0.00969 0.0
C1649 C 0.41052 0.90953 0.01692 0.0
C1650 C 0.37028 0.85825 0.02354 0.0
C1651 C 0.40152 0.85597 0.03417 0.0
H1652 H 0.14657 0.30177 0.15264 0.0
H1653 H 0.20159 0.29689 0.23779 0.0
H1654 H 0.19224 0.35262 0.24656 0.0
H1655 H 0.16351 0.40029 0.23337 0.0
H1656 H 0.1037 0.40443 0.15128 0.0
H1657 H 0.11978 0.35111 0.13777 0.0
C1658 C 0.15703 0.31323 0.17266 0.0
C1659 C 0.17483 0.29571 0.19452 0.0
C1660 C 0.15027 0.34477 0.17828 0.0
C1661 C 0.18785 0.31025 0.22078 0.0
C1662 C 0.1824 0.34194 0.22581 0.0
C1663 C 0.15433 0.38981 0.2122 0.0
C1664 C 0.13235 0.40618 0.1934 0.0
C1665 C 0.16287 0.3591 0.20523 0.0
C1666 C 0.12048 0.39214 0.16624 0.0
C1667 C 0.12968 0.36173 0.15852 0.0
H1668 H 0.57327 0.55749 0.07174 0.0
H1669 H 0.53441 0.58947 0.98297 0.0
H1670 H 0.58449 0.61281 0.96888 0.0
H1671 H 0.63815 0.62831 0.98357 0.0
H1672 H 0.67827 0.59385 0.07047 0.0
H1673 H 0.62887 0.56774 0.08367 0.0
C1674 C 0.57588 0.56893 0.049 0.0
C1675 C 0.54977 0.572 0.02873 0.0
C1676 C 0.60481 0.58263 0.04103 0.0
C1677 C 0.55388 0.58686 0.99927 0.0
C1678 C 0.5825 0.60052 0.99122 0.0
C1679 C 0.63585 0.61523 0.00546 0.0
C1680 C 0.66124 0.61367 0.02652 0.0
C1681 C 0.6078 0.59944 0.01233 0.0
C1682 C 0.65864 0.59578 0.05427 0.0
C1683 C 0.63052 0.58072 0.0617 0.0
H1684 H 0.85255 0.78267 0.28132 0.0
H1685 H 0.79026 0.79772 0.36024 0.0
H1686 H 0.80047 0.85391 0.35703 0.0
H1687 H 0.82458 0.89836 0.33001 0.0
H1688 H 0.88568 0.88342 0.25024 0.0
H1689 H 0.87942 0.82681 0.25655 0.0
C1690 C 0.84092 0.79814 0.29779 0.0
C1691 C 0.82001 0.78601 0.32063 0.0
C1692 C 0.84716 0.83017 0.29598 0.0
C1693 C 0.806 0.80645 0.3422 0.0
C1694 C 0.812 0.8385 0.34046 0.0
C1695 C 0.83685 0.88276 0.31411 0.0
C1696 C 0.85522 0.8951 0.28932 0.0
C1697 C 0.83226 0.85055 0.31724 0.0
C1698 C 0.87145 0.87455 0.26945 0.0
C1699 C 0.86753 0.84225 0.27284 0.0
H1700 H 0.03609 0.86487 0.93666 0.0
H1701 H 0.06112 0.96137 0.92452 0.0
H1702 H 0.11696 0.94766 0.93329 0.0
H1703 H 0.15778 0.90813 0.9479 0.0
H1704 H 0.13073 0.8118 0.96098 0.0
H1705 H 0.07657 0.82543 0.94788 0.0
C1706 C 0.05394 0.88273 0.93509 0.0
C1707 C 0.04487 0.91389 0.92935 0.0
C1708 C 0.08551 0.87469 0.94066 0.0
C1709 C 0.06784 0.93714 0.92839 0.0
C1710 C 0.09962 0.92928 0.93362 0.0
C1711 C 0.1401 0.89009 0.94771 0.0
C1712 C 0.14847 0.85897 0.95578 0.0
C1713 C 0.10866 0.89814 0.94034 0.0
C1714 C 0.12512 0.83594 0.95519 0.0
C1715 C 0.09405 0.84368 0.94766 0.0
H1716 H 0.11996 0.70239 0.28815 0.0
H1717 H 0.20345 0.70028 0.34599 0.0
H1718 H 0.20128 0.64322 0.34898 0.0
H1719 H 0.17937 0.59447 0.32987 0.0
H1720 H 0.0969 0.59675 0.27038 0.0
H1721 H 0.09416 0.65349 0.27453 0.0
C1722 C 0.13768 0.68943 0.30143 0.0
C1723 C 0.16235 0.7053 0.31611 0.0
C1724 C 0.13623 0.65683 0.30306 0.0
C1725 C 0.18454 0.68842 0.33412 0.0
C1726 C 0.18325 0.65588 0.33589 0.0
C1727 C 0.16042 0.60727 0.31823 0.0
C1728 C 0.13885 0.59146 0.29917 0.0
C1729 C 0.15969 0.63988 0.31973 0.0
C1730 C 0.114 0.60833 0.28495 0.0
C1731 C 0.11262 0.64083 0.28701 0.0
H1732 H 0.98238 0.62513 0.95317 0.0
H1733 H 0.96781 0.53978 0.90184 0.0
H1734 H 0.91198 0.5424 0.91349 0.0
H1735 H 0.86818 0.56604 0.94109 0.0
H1736 H 0.88064 0.65005 0.99435 0.0
H1737 H 0.93641 0.6514 0.97831 0.0
C1738 C 0.96698 0.60719 0.94438 0.0
C1739 C 0.97956 0.58203 0.92693 0.0
C1740 C 0.93457 0.60869 0.95135 0.0
C1741 C 0.95908 0.55921 0.91556 0.0
C1742 C 0.92704 0.5607 0.92213 0.0
C1743 C 0.88304 0.58488 0.94899 0.0
C1744 C 0.87063 0.60768 0.96917 0.0
C1745 C 0.91473 0.58493 0.9404 0.0
C1746 C 0.88979 0.63228 0.97877 0.0
C1747 C 0.92166 0.63281 0.96984 0.0
H1748 H 0.22111 0.7963 0.18076 0.0
H1749 H 0.12284 0.82243 0.18244 0.0
H1750 H 0.12554 0.83898 0.12732 0.0
H1751 H 0.15792 0.85278 0.08093 0.0
H1752 H 0.25567 0.82438 0.07906 0.0
H1753 H 0.25105 0.80188 0.13169 0.0
C1754 C 0.20011 0.80479 0.16874 0.0
C1755 C 0.17194 0.80833 0.18561 0.0
C1756 C 0.20187 0.81443 0.13714 0.0
C1757 C 0.14479 0.81923 0.16984 0.0
C1758 C 0.14641 0.8291 0.13842 0.0
C1759 C 0.17802 0.84132 0.09197 0.0
C1760 C 0.20718 0.84074 0.07639 0.0
C1761 C 0.17514 0.82794 0.12221 0.0
C1762 C 0.23296 0.82528 0.09063 0.0
C1763 C 0.23041 0.81244 0.12079 0.0
H1764 H 0.1574 0.17782 0.3183 0.0
H1765 H 0.25617 0.18752 0.2973 0.0
H1766 H 0.26902 0.18032 0.35306 0.0
H1767 H 0.25259 0.16429 0.40633 0.0
H1768 H 0.15439 0.14826 0.42538 0.0
H1769 H 0.14071 0.16548 0.37201 0.0
C1770 C 0.18169 0.17903 0.32601 0.0
C1771 C 0.20582 0.18308 0.30376 0.0
C1772 C 0.18894 0.17353 0.35777 0.0
C1773 C 0.23721 0.18421 0.31402 0.0
C1774 C 0.24455 0.18007 0.34586 0.0
C1775 C 0.22816 0.16536 0.39894 0.0
C1776 C 0.20447 0.15511 0.41955 0.0
C1777 C 0.22069 0.17371 0.36776 0.0
C1778 C 0.17294 0.15603 0.40974 0.0
C1779 C 0.16516 0.16573 0.37925 0.0
H1780 H 0.39277 0.5061 0.97052 0.0
H1781 H 0.40707 0.60362 0.94843 0.0
H1782 H 0.39544 0.59415 0.89318 0.0
H1783 H 0.38764 0.55712 0.85031 0.0
H1784 H 0.37943 0.45895 0.87148 0.0
H1785 H 0.38118 0.46963 0.92799 0.0
C1786 C 0.39294 0.52533 0.95367 0.0
C1787 C 0.40116 0.55541 0.96346 0.0
C1788 C 0.38706 0.51957 0.9218 0.0
C1789 C 0.40133 0.58012 0.94137 0.0
C1790 C 0.39452 0.57478 0.90981 0.0
C1791 C 0.38517 0.53832 0.86747 0.0
C1792 C 0.38293 0.50745 0.85721 0.0
C1793 C 0.38816 0.54448 0.89964 0.0
C1794 C 0.38069 0.48294 0.87924 0.0
C1795 C 0.38206 0.48902 0.9114 0.0
H1796 H 0.78296 0.36352 0.28887 0.0
H1797 H 0.86133 0.29869 0.29598 0.0
H1798 H 0.86666 0.3108 0.35198 0.0
H1799 H 0.84501 0.33496 0.39945 0.0
H1800 H 0.76447 0.39714 0.39247 0.0
H1801 H 0.76518 0.39216 0.33522 0.0
C1802 C 0.80125 0.35188 0.30258 0.0
C1803 C 0.82119 0.32943 0.2884 0.0
C1804 C 0.80409 0.35895 0.33457 0.0
C1805 C 0.84536 0.31555 0.30638 0.0
C1806 C 0.84846 0.3226 0.33834 0.0
C1807 C 0.82795 0.34803 0.38542 0.0
C1808 C 0.80422 0.36589 0.40041 0.0
C1809 C 0.82744 0.34367 0.35277 0.0
C1810 C 0.78288 0.38316 0.38173 0.0
C1811 C 0.78297 0.37988 0.349 0.0
H1812 H 0.1271 0.40911 0.45377 0.0
H1813 H 0.07207 0.48975 0.48111 0.0
H1814 H 0.07469 0.51075 0.42783 0.0
H1815 H 0.09107 0.50614 0.37373 0.0
H1816 H 0.14533 0.42639 0.34342 0.0
H1817 H 0.14581 0.40561 0.3978 0.0
C1818 C 0.11543 0.43104 0.44777 0.0
C1819 C 0.09906 0.44773 0.47118 0.0
C1820 C 0.11752 0.44343 0.41687 0.0
C1821 C 0.08462 0.47645 0.46343 0.0
C1822 C 0.08626 0.48858 0.43305 0.0
C1823 C 0.10336 0.48433 0.37905 0.0
C1824 C 0.11797 0.46771 0.35471 0.0
C1825 C 0.10262 0.47234 0.40971 0.0
C1826 C 0.13413 0.43972 0.3619 0.0
C1827 C 0.13396 0.42767 0.39287 0.0
H1828 H 0.28428 0.12734 0.7182 0.0
H1829 H 0.36488 0.18787 0.71308 0.0
H1830 H 0.37204 0.17465 0.65774 0.0
H1831 H 0.35232 0.15036 0.60999 0.0
H1832 H 0.26945 0.09299 0.61409 0.0
H1833 H 0.26761 0.0989 0.67122 0.0
C1834 C 0.30342 0.1378 0.70505 0.0
C1835 C 0.32359 0.15926 0.71976 0.0
C1836 C 0.30744 0.13004 0.67325 0.0
C1837 C 0.34866 0.1718 0.70236 0.0
C1838 C 0.35292 0.16404 0.67075 0.0
C1839 C 0.33422 0.13846 0.62339 0.0
C1840 C 0.31065 0.12175 0.60751 0.0
C1841 C 0.33211 0.14366 0.65586 0.0
C1842 C 0.28787 0.10602 0.62547 0.0
C1843 C 0.28644 0.10993 0.65814 0.0
H1844 H 0.38404 0.48979 0.52754 0.0
H1845 H 0.45679 0.4256 0.55919 0.0
H1846 H 0.44608 0.43989 0.61385 0.0
H1847 H 0.41293 0.46759 0.65267 0.0
H1848 H 0.33917 0.53011 0.61962 0.0
H1849 H 0.35331 0.51911 0.56544 0.0
C1850 C 0.39783 0.479 0.54628 0.0
C1851 C 0.42099 0.45639 0.5392 0.0
C1852 C 0.39106 0.48672 0.57748 0.0
C1853 C 0.43881 0.44306 0.5639 0.0
C1854 C 0.43253 0.45106 0.59519 0.0
C1855 C 0.40005 0.47893 0.63363 0.0
C1856 C 0.37478 0.49943 0.64035 0.0
C1857 C 0.40818 0.47234 0.60228 0.0
C1858 C 0.35849 0.51401 0.6153 0.0
C1859 C 0.36661 0.50781 0.58422 0.0
H1860 H 0.61224 0.10044 0.55314 0.0
H1861 H 0.53011 0.04254 0.55536 0.0
H1862 H 0.53921 0.03052 0.61117 0.0
H1863 H 0.57559 0.02957 0.65661 0.0
H1864 H 0.66134 0.0822 0.6514 0.0
H1865 H 0.64596 0.10328 0.59993 0.0
C1866 C 0.59566 0.08626 0.56626 0.0
C1867 C 0.57014 0.07296 0.55042 0.0
C1868 C 0.60224 0.07788 0.59776 0.0
C1869 C 0.54951 0.05355 0.56729 0.0
C1870 C 0.55498 0.04636 0.59909 0.0
C1871 C 0.59044 0.04628 0.64457 0.0
C1872 C 0.61956 0.05436 0.65785 0.0
C1873 C 0.58201 0.05734 0.61424 0.0
C1874 C 0.63887 0.07558 0.64162 0.0
C1875 C 0.63009 0.08762 0.61215 0.0
H1876 H 0.69549 0.63954 0.36359 0.0
H1877 H 0.69709 0.71257 0.2931 0.0
H1878 H 0.64219 0.72612 0.30474 0.0
H1879 H 0.59573 0.72067 0.33852 0.0
H1880 H 0.59457 0.6494 0.41117 0.0
H1881 H 0.64718 0.63189 0.39543 0.0
C1882 C 0.68337 0.65771 0.35015 0.0
C1883 C 0.69996 0.67457 0.32696 0.0
C1884 C 0.65213 0.66619 0.35793 0.0
C1885 C 0.6845 0.69887 0.31051 0.0
C1886 C 0.65326 0.70683 0.31745 0.0
C1887 C 0.60675 0.70111 0.35079 0.0
C1888 C 0.59102 0.68658 0.37618 0.0
C1889 C 0.63713 0.69124 0.34171 0.0
C1890 C 0.60599 0.66125 0.3917 0.0
C1891 C 0.63613 0.65113 0.38264 0.0
H1892 H 0.91657 0.05005 0.92534 0.0
H1893 H 0.96508 0.00847 0.84654 0.0
H1894 H 0.97822 0.05974 0.82618 0.0
H1895 H 0.9778 0.11639 0.83099 0.0
H1896 H 0.93045 0.15911 0.90959 0.0
H1897 H 0.91505 0.10772 0.92943 0.0
C1898 C 0.9299 0.05223 0.90369 0.0
C1899 C 0.93994 0.02522 0.88781 0.0
C1900 C 0.93773 0.0821 0.89192 0.0
C1901 C 0.95722 0.02865 0.85966 0.0
C1902 C 0.96475 0.05807 0.84779 0.0
C1903 C 0.96391 0.11454 0.85234 0.0
C1904 C 0.95551 0.14161 0.86882 0.0
C1905 C 0.95538 0.08494 0.8638 0.0
C1906 C 0.93754 0.13865 0.89652 0.0
C1907 C 0.92866 0.10923 0.90791 0.0
H1908 H 0.28382 0.77649 0.34721 0.0
H1909 H 0.29915 0.84503 0.27351 0.0
H1910 H 0.3554 0.84457 0.2854 0.0
H1911 H 0.40011 0.82336 0.31494 0.0
H1912 H 0.38568 0.75344 0.38742 0.0
H1913 H 0.32875 0.75698 0.37872 0.0
C1914 C 0.29944 0.79118 0.33349 0.0
C1915 C 0.28719 0.81043 0.30904 0.0
C1916 C 0.33174 0.79106 0.34071 0.0
C1917 C 0.30785 0.82974 0.29212 0.0
C1918 C 0.34 0.82964 0.29907 0.0
C1919 C 0.3846 0.80908 0.32922 0.0
C1920 C 0.39735 0.78794 0.35171 0.0
C1921 C 0.35216 0.81031 0.32319 0.0
C1922 C 0.37666 0.77004 0.37014 0.0
C1923 C 0.34411 0.77173 0.36481 0.0
H1924 H 0.05399 0.45045 0.87093 0.0
H1925 H 0.06483 0.44809 0.9721 0.0
H1926 H 0.04577 0.39459 0.97365 0.0
H1927 H 0.02572 0.34953 0.94692 0.0
H1928 H 0.01422 0.35041 0.84594 0.0
H1929 H 0.03457 0.40391 0.84363 0.0
C1930 C 0.05215 0.4383 0.89337 0.0
C1931 C 0.06069 0.45336 0.92146 0.0
C1932 C 0.04126 0.40749 0.89408 0.0
C1933 C 0.05841 0.43712 0.95021 0.0
C1934 C 0.04752 0.40656 0.9511 0.0
C1935 C 0.02738 0.3613 0.92425 0.0
C1936 C 0.01801 0.34611 0.8966 0.0
C1937 C 0.0388 0.39169 0.92324 0.0
C1938 C 0.02116 0.36161 0.86752 0.0
C1939 C 0.03267 0.39218 0.86627 0.0
H1940 H 0.68454 0.35041 0.15776 0.0
H1941 H 0.68456 0.27196 0.22228 0.0
H1942 H 0.62873 0.26343 0.21157 0.0
H1943 H 0.5831 0.27365 0.17874 0.0
H1944 H 0.58346 0.34864 0.11002 0.0
H1945 H 0.63636 0.36322 0.12727 0.0
C1946 C 0.67192 0.33212 0.17017 0.0
C1947 C 0.68822 0.31207 0.19116 0.0
C1948 C 0.64034 0.32638 0.16254 0.0
C1949 C 0.67218 0.28782 0.20641 0.0
C1950 C 0.64045 0.28282 0.20005 0.0
C1951 C 0.59428 0.29363 0.16787 0.0
C1952 C 0.57924 0.30997 0.14304 0.0
C1953 C 0.62471 0.30125 0.17735 0.0
C1954 C 0.59451 0.33555 0.12905 0.0
C1955 C 0.62474 0.34387 0.13894 0.0
H1956 H 0.54709 0.03494 0.1318 0.0
H1957 H 0.5756 0.04507 0.03469 0.0
H1958 H 0.56935 0.10181 0.03834 0.0
H1959 H 0.55144 0.14748 0.06754 0.0
H1960 H 0.521 0.13782 0.1639 0.0
H1961 H 0.53366 0.08164 0.16263 0.0
C1962 C 0.55182 0.04954 0.11135 0.0
C1963 C 0.56107 0.03577 0.0827 0.0
C1964 C 0.54836 0.08205 0.11372 0.0
C1965 C 0.56805 0.05505 0.05679 0.0
C1966 C 0.56461 0.08745 0.05893 0.0
C1967 C 0.54816 0.13314 0.0885 0.0
C1968 C 0.53509 0.14651 0.11573 0.0
C1969 C 0.55429 0.10104 0.08709 0.0
C1970 C 0.53125 0.12799 0.14282 0.0
C1971 C 0.53802 0.09588 0.14186 0.0
H1972 H 0.30805 0.14803 0.17861 0.0
H1973 H 0.2866 0.24122 0.14384 0.0
H1974 H 0.33989 0.24601 0.12379 0.0
H1975 H 0.39347 0.22654 0.12161 0.0
H1976 H 0.41708 0.13614 0.16152 0.0
H1977 H 0.36142 0.12662 0.17232 0.0
C1978 C 0.31506 0.16947 0.16684 0.0
C1979 C 0.29353 0.19443 0.16332 0.0
C1980 C 0.34583 0.17224 0.15554 0.0
C1981 C 0.30283 0.2218 0.14738 0.0
C1982 C 0.3332 0.22449 0.13558 0.0
C1983 C 0.38639 0.20426 0.13163 0.0
C1984 C 0.4092 0.1822 0.14115 0.0
C1985 C 0.35498 0.2001 0.14003 0.0
C1986 C 0.39974 0.15348 0.15415 0.0
C1987 C 0.36807 0.14831 0.16083 0.0
H1988 H 0.41155 0.45256 0.12197 0.0
H1989 H 0.47458 0.44503 0.04299 0.0
H1990 H 0.4856 0.39025 0.05666 0.0
H1991 H 0.48222 0.34699 0.09461 0.0
H1992 H 0.42369 0.35571 0.1768 0.0
H1993 H 0.40622 0.4078 0.15885 0.0
C1994 C 0.42695 0.43856 0.10732 0.0
C1995 C 0.44182 0.45248 0.08119 0.0
C1996 C 0.43441 0.40759 0.11634 0.0
C1997 C 0.46258 0.43456 0.06291 0.0
C1998 C 0.46905 0.40337 0.07089 0.0
C1999 C 0.46487 0.35976 0.10806 0.0
C2000 C 0.45369 0.34722 0.13661 0.0
C2001 C 0.45578 0.38993 0.09803 0.0
C2002 C 0.4324 0.36485 0.15461 0.0
C2003 C 0.42244 0.39458 0.14434 0.0
H2004 H 0.34287 0.696 0.64947 0.0
H2005 H 0.28467 0.70091 0.73222 0.0
H2006 H 0.30522 0.64999 0.75041 0.0
H2007 H 0.34321 0.60662 0.74476 0.0
H2008 H 0.40404 0.60374 0.66351 0.0
H2009 H 0.3798 0.65183 0.64313 0.0
C2010 C 0.33405 0.68533 0.67098 0.0
C2011 C 0.31167 0.70144 0.68911 0.0
C2012 C 0.34721 0.65701 0.68198 0.0
C2013 C 0.30127 0.68831 0.71759 0.0
C2014 C 0.31335 0.6595 0.72814 0.0
C2015 C 0.35098 0.61636 0.72248 0.0
C2016 C 0.37541 0.60152 0.70573 0.0
C2017 C 0.33692 0.64405 0.71089 0.0
C2018 C 0.38554 0.61478 0.6771 0.0
C2019 C 0.37148 0.64215 0.66526 0.0
H2020 H 0.95783 0.37129 0.58583 0.0
H2021 H 0.98874 0.41504 0.49955 0.0
H2022 H 0.93533 0.41242 0.47817 0.0
H2023 H 0.87902 0.40272 0.4865 0.0
H2024 H 0.8482 0.35583 0.57105 0.0
H2025 H 0.90259 0.3538 0.59059 0.0
C2026 C 0.95278 0.37983 0.56221 0.0
C2027 C 0.97675 0.39377 0.54433 0.0
C2028 C 0.92223 0.37758 0.54989 0.0
C2029 C 0.97041 0.40435 0.51362 0.0
C2030 C 0.93996 0.40291 0.50147 0.0
C2031 C 0.88446 0.39142 0.50887 0.0
C2032 C 0.85998 0.37967 0.52755 0.0
C2033 C 0.91559 0.39026 0.5197 0.0
C2034 C 0.86693 0.36488 0.55637 0.0
C2035 C 0.89789 0.36401 0.5676 0.0
H2036 H 0.65085 0.81771 0.64774 0.0
H2037 H 0.70487 0.81057 0.73342 0.0
H2038 H 0.69919 0.86687 0.74122 0.0
H2039 H 0.67278 0.91594 0.72777 0.0
H2040 H 0.61323 0.92225 0.64561 0.0
H2041 H 0.62756 0.86854 0.63193 0.0
C2042 C 0.66196 0.82872 0.66767 0.0
C2043 C 0.67824 0.81026 0.69002 0.0
C2044 C 0.65731 0.8608 0.67275 0.0
C2045 C 0.69215 0.82448 0.71606 0.0
C2046 C 0.68885 0.85657 0.72052 0.0
C2047 C 0.66343 0.90591 0.70645 0.0
C2048 C 0.64175 0.92301 0.68785 0.0
C2049 C 0.67056 0.87471 0.69962 0.0
C2050 C 0.62978 0.90949 0.66043 0.0
C2051 C 0.63787 0.87876 0.65268 0.0
H2052 H 0.04495 0.12972 0.5691 0.0
H2053 H 0.06677 0.03145 0.56321 0.0
H2054 H 0.1226 0.04378 0.55362 0.0
H2055 H 0.16382 0.08346 0.54213 0.0
H2056 H 0.13903 0.18153 0.54689 0.0
H2057 H 0.08562 0.16827 0.56177 0.0
C2058 C 0.06199 0.11092 0.56598 0.0
C2059 C 0.05187 0.07977 0.56644 0.0
C2060 C 0.09339 0.11824 0.55998 0.0
C2061 C 0.07413 0.0556 0.56295 0.0
C2062 C 0.10591 0.06272 0.55724 0.0
C2063 C 0.1468 0.10189 0.54664 0.0
C2064 C 0.15545 0.13352 0.54285 0.0
C2065 C 0.11565 0.09407 0.55492 0.0
C2066 C 0.13306 0.15706 0.54909 0.0
C2067 C 0.10246 0.14952 0.55771 0.0
H2068 H 0.3489 0.28865 0.78336 0.0
H2069 H 0.27412 0.30549 0.85017 0.0
H2070 H 0.28262 0.36175 0.84527 0.0
H2071 H 0.31053 0.40574 0.82182 0.0
H2072 H 0.38503 0.38964 0.75457 0.0
H2073 H 0.37798 0.33308 0.76077 0.0
C2074 C 0.33416 0.30455 0.79669 0.0
C2075 C 0.3105 0.29266 0.81688 0.0
C2076 C 0.33952 0.33687 0.79411 0.0
C2077 C 0.2922 0.31381 0.83429 0.0
C2078 C 0.2972 0.346 0.83162 0.0
C2079 C 0.32549 0.39001 0.80852 0.0
C2080 C 0.34822 0.40216 0.7875 0.0
C2081 C 0.32079 0.35772 0.81166 0.0
C2082 C 0.36748 0.38113 0.77094 0.0
C2083 C 0.36321 0.34877 0.77427 0.0
H2084 H 0.5346 0.35975 0.47063 0.0
H2085 H 0.55788 0.43529 0.40704 0.0
H2086 H 0.6142 0.42649 0.41827 0.0
H2087 H 0.6569 0.39686 0.44713 0.0
H2088 H 0.63027 0.32079 0.5091 0.0
H2089 H 0.57529 0.33062 0.49763 0.0
C2090 C 0.5518 0.37461 0.45921 0.0
C2091 C 0.54181 0.39844 0.43826 0.0
C2092 C 0.58373 0.36928 0.46557 0.0
C2093 C 0.56479 0.41682 0.42333 0.0
C2094 C 0.597 0.41181 0.42984 0.0
C2095 C 0.639 0.38254 0.4581 0.0
C2096 C 0.64799 0.35801 0.47895 0.0
C2097 C 0.6068 0.38809 0.45108 0.0
C2098 C 0.62438 0.33962 0.49282 0.0
C2099 C 0.59275 0.34524 0.48634 0.0
H2100 H 0.60232 0.19694 0.80789 0.0
H2101 H 0.6844 0.19618 0.86755 0.0
H2102 H 0.68006 0.13953 0.8748 0.0
H2103 H 0.65884 0.09027 0.856 0.0
H2104 H 0.57826 0.0913 0.794 0.0
H2105 H 0.57485 0.14796 0.79754 0.0
C2106 C 0.61908 0.18433 0.82269 0.0
C2107 C 0.6443 0.20025 0.83628 0.0
C2108 C 0.61644 0.15197 0.82664 0.0
C2109 C 0.66519 0.18411 0.85638 0.0
C2110 C 0.66265 0.15183 0.86057 0.0
C2111 C 0.63994 0.10274 0.84394 0.0
C2112 C 0.61976 0.08667 0.8236 0.0
C2113 C 0.63917 0.13542 0.84469 0.0
C2114 C 0.59466 0.10308 0.8092 0.0
C2115 C 0.59295 0.13559 0.81084 0.0
H2116 H 0.47421 0.13011 0.45937 0.0
H2117 H 0.46292 0.04802 0.4023 0.0
H2118 H 0.40646 0.04944 0.41182 0.0
H2119 H 0.36122 0.07075 0.43977 0.0
H2120 H 0.37096 0.15223 0.49751 0.0
H2121 H 0.42714 0.15471 0.4837 0.0
C2122 C 0.45941 0.11264 0.44879 0.0
C2123 C 0.47309 0.08868 0.43043 0.0
C2124 C 0.42673 0.11349 0.45447 0.0
C2125 C 0.45331 0.06658 0.41664 0.0
C2126 C 0.42094 0.06733 0.4221 0.0
C2127 C 0.37555 0.08929 0.44916 0.0
C2128 C 0.36212 0.111 0.47004 0.0
C2129 C 0.40758 0.0902 0.4415 0.0
C2130 C 0.38078 0.13524 0.48145 0.0
C2131 C 0.41291 0.13646 0.47373 0.0
H2132 H 0.71925 0.28812 0.69216 0.0
H2133 H 0.61939 0.30719 0.68998 0.0
H2134 H 0.62437 0.3312 0.63786 0.0
H2135 H 0.65847 0.35269 0.59555 0.0
H2136 H 0.75821 0.33268 0.59866 0.0
H2137 H 0.75193 0.30362 0.64765 0.0
C2138 C 0.69845 0.29676 0.6799 0.0
C2139 C 0.66913 0.29605 0.69505 0.0
C2140 C 0.70157 0.31123 0.65035 0.0
C2141 C 0.6423 0.30719 0.6788 0.0
C2142 C 0.64518 0.32143 0.64915 0.0
C2143 C 0.6787 0.34197 0.60709 0.0
C2144 C 0.70878 0.34527 0.59384 0.0
C2145 C 0.67491 0.32471 0.63524 0.0
C2146 C 0.73479 0.33064 0.60853 0.0
C2147 C 0.73127 0.31392 0.63652 0.0
H2148 H 0.66022 0.6773 0.81378 0.0
H2149 H 0.75569 0.70515 0.79538 0.0
H2150 H 0.77074 0.69021 0.84921 0.0
H2151 H 0.75791 0.66348 0.89925 0.0
H2152 H 0.66388 0.62957 0.91442 0.0
H2153 H 0.64692 0.65271 0.86428 0.0
C2154 C 0.68412 0.68083 0.82186 0.0
C2155 C 0.70678 0.69258 0.80089 0.0
C2156 C 0.69289 0.67063 0.85213 0.0
C2157 C 0.73787 0.6963 0.81128 0.0
C2158 C 0.74648 0.6876 0.84194 0.0
C2159 C 0.73362 0.66165 0.89171 0.0
C2160 C 0.71214 0.64484 0.91031 0.0
C2161 C 0.72439 0.67387 0.86225 0.0
C2162 C 0.68082 0.64224 0.90028 0.0
C2163 C 0.67113 0.65547 0.87168 0.0
H2164 H 0.8749 0.04143 0.46278 0.0
H2165 H 0.97599 0.02937 0.46331 0.0
H2166 H 0.97391 0.0064 0.41113 0.0
H2167 H 0.94428 0.9927 0.36512 0.0
H2168 H 0.8436 0.00715 0.36177 0.0
H2169 H 0.84454 0.02624 0.41596 0.0
C2170 C 0.89643 0.03354 0.45154 0.0
C2171 C 0.92562 0.03711 0.46675 0.0
C2172 C 0.89511 0.02096 0.4213 0.0
C2173 C 0.95335 0.02709 0.45191 0.0
C2174 C 0.95214 0.01388 0.42219 0.0
C2175 C 0.92229 -0.00049 0.3762 0.0
C2176 C 0.89381 -0.00144 0.35934 0.0
C2177 C 0.92323 0.01107 0.40666 0.0
C2178 C 0.8658 0.00797 0.3741 0.0
C2179 C 0.86639 0.01882 0.40505 0.0
H2180 H 0.28232 0.87072 0.77458 0.0
H2181 H 0.3653 0.81175 0.78164 0.0
H2182 H 0.37083 0.82546 0.83698 0.0
H2183 H 0.3481 0.84818 0.88434 0.0
H2184 H 0.2624 0.90305 0.87829 0.0
H2185 H 0.26321 0.89869 0.821 0.0
C2186 C 0.30169 0.86081 0.78812 0.0
C2187 C 0.32289 0.83947 0.77412 0.0
C2188 C 0.30459 0.86861 0.81993 0.0
C2189 C 0.34829 0.82767 0.79192 0.0
C2190 C 0.35159 0.83568 0.82351 0.0
C2191 C 0.32997 0.8599 0.87046 0.0
C2192 C 0.30472 0.87516 0.88566 0.0
C2193 C 0.32937 0.8554 0.8379 0.0
C2194 C 0.28197 0.89095 0.8673 0.0
C2195 C 0.2821 0.88793 0.83455 0.0
H2196 H 0.63758 0.94959 0.96816 0.0
H2197 H 0.55766 0.88886 0.95864 0.0
H2198 H 0.56016 0.89471 0.90159 0.0
H2199 H 0.58103 0.92139 0.85508 0.0
H2200 H 0.65959 0.9835 0.86352 0.0
H2201 H 0.66244 0.9719 0.92024 0.0
C2202 C 0.62076 0.93751 0.95363 0.0
C2203 C 0.59704 0.91922 0.9679 0.0
C2204 C 0.62234 0.94096 0.92064 0.0
C2205 C 0.57593 0.90329 0.94852 0.0
C2206 C 0.57738 0.90657 0.91582 0.0
C2207 C 0.59934 0.93176 0.86921 0.0
C2208 C 0.62002 0.95334 0.85521 0.0
C2209 C 0.6 0.92585 0.90173 0.0
C2210 C 0.64367 0.96655 0.87368 0.0
C2211 C 0.6449 0.96029 0.90619 0.0
H2212 H 0.85662 0.64869 0.20277 0.0
H2213 H 0.76081 0.68253 0.20907 0.0
H2214 H 0.74944 0.66221 0.15711 0.0
H2215 H 0.76656 0.63626 0.10943 0.0
H2216 H 0.86339 0.60811 0.0987 0.0
H2217 H 0.87426 0.6229 0.15333 0.0
C2218 C 0.83355 0.65229 0.19233 0.0
C2219 C 0.8097 0.66755 0.20957 0.0
C2220 C 0.82701 0.64023 0.16226 0.0
C2221 C 0.77965 0.67126 0.19611 0.0
C2222 C 0.77298 0.65923 0.1666 0.0
C2223 C 0.78971 0.63208 0.11957 0.0
C2224 C 0.81383 0.61992 0.10062 0.0
C2225 C 0.79631 0.64336 0.14966 0.0
C2226 C 0.84417 0.61621 0.11336 0.0
C2227 C 0.85053 0.62549 0.14427 0.0
H2228 H 0.89057 0.99425 0.03063 0.0
H2229 H 0.95951 0.9269 0.06429 0.0
H2230 H 0.94512 0.93877 0.11861 0.0
H2231 H 0.91002 0.965 0.1561 0.0
H2232 H 0.83969 0.0307 0.12209 0.0
H2233 H 0.85739 0.02231 0.06815 0.0
C2234 C 0.90293 0.98247 0.04976 0.0
C2235 C 0.92614 0.95963 0.04324 0.0
C2236 C 0.89386 0.98869 0.08085 0.0
C2237 C 0.9416 0.94455 0.06852 0.0
C2238 C 0.93323 0.9512 0.0996 0.0
C2239 C 0.89869 0.97772 0.13697 0.0
C2240 C 0.87342 -0.00162 0.14325 0.0
C2241 C 0.90887 0.97266 0.10598 0.0
C2242 C 0.85898 0.01449 0.11803 0.0
C2243 C 0.86918 0.00979 0.08715 0.0
H2244 H 0.14309 0.57009 0.03715 0.0
H2245 H 0.04255 0.56153 0.04432 0.0
H2246 H 0.04774 0.54689 0.1004 0.0
H2247 H 0.08235 0.52992 0.14555 0.0
H2248 H 0.18312 0.53643 0.13458 0.0
H2249 H 0.17643 0.55847 0.08214 0.0
C2250 C 0.12222 0.56576 0.05124 0.0
C2251 C 0.09252 0.56696 0.0368 0.0
C2252 C 0.12557 0.55641 0.08275 0.0
C2253 C 0.06564 0.56116 0.0551 0.0
C2254 C 0.06871 0.5524 0.08703 0.0
C2255 C 0.10271 0.53663 0.13177 0.0
C2256 C 0.13325 0.53105 0.14387 0.0
C2257 C 0.09873 0.54891 0.10089 0.0
C2258 C 0.15941 0.53989 0.12571 0.0
C2259 C 0.15564 0.55264 0.09569 0.0
loop_
_geom_bond_atom_site_label_1
_geom_bond_atom_site_label_2
_geom_bond_distance
_geom_bond_site_symmetry_2
_ccdc_geom_bond_type
Sc0 O3 2.025 . S
Sc0 O10 2.105 . S
Sc0 O13 2.105 . S
Sc0 O16 2.105 . S
Sc0 O19 2.105 . S
Sc1 O3 2.025 . S
Sc1 O11 2.105 . S
Sc1 O15 2.105 . S
Sc1 O17 2.105 . S
Sc1 O21 2.105 . S
Sc2 O3 2.025 . S
Sc2 O12 2.105 . S
Sc2 O14 2.105 . S
Sc2 O18 2.105 . S
Sc2 O20 2.105 . S
O3 Sc0 2.025 . S
O3 Sc1 2.025 . S
O3 Sc2 2.025 . S
C4 O10 1.268 . S
C4 O20 1.268 . S
C5 O11 1.268 . S
C5 O19 1.268 . S
C6 O12 1.268 . S
C6 O21 1.268 . S
C7 O13 1.268 . S
C7 O17 1.268 . S
C8 O14 1.268 . S
C8 O16 1.268 . S
C9 O15 1.268 . S
C9 O18 1.268 . S
O10 Sc0 2.105 . S
O10 C4 1.268 . S
O11 Sc1 2.105 . S
O11 C5 1.268 . S
O12 Sc2 2.105 . S
O12 C6 1.268 . S
O13 Sc0 2.105 . S
O13 C7 1.268 . S
O14 Sc2 2.105 . S
O14 C8 1.268 . S
O15 Sc1 2.105 . S
O15 C9 1.268 . S
O16 Sc0 2.105 . S
O16 C8 1.268 . S
O17 Sc1 2.105 . S
O17 C7 1.268 . S
O18 Sc2 2.105 . S
O18 C9 1.268 . S
O19 Sc0 2.105 . S
O19 C5 1.268 . S
O20 Sc2 2.105 . S
O20 C4 1.268 . S
O21 Sc1 2.105 . S
O21 C6 1.268 . S
Sc22 O25 2.025 . S
Sc22 O32 2.105 . S
Sc22 O35 2.105 . S
Sc22 O38 2.105 . S
Sc22 O41 2.105 . S
Sc23 O25 2.025 . S
Sc23 O33 2.105 . S
Sc23 O37 2.105 . S
Sc23 O39 2.105 . S
Sc23 O43 2.105 . S
Sc24 O25 2.025 . S
Sc24 O34 2.105 . S
Sc24 O36 2.105 . S
Sc24 O40 2.105 . S
Sc24 O42 2.105 . S
O25 Sc22 2.025 . S
O25 Sc23 2.025 . S
O25 Sc24 2.025 . S
C26 O32 1.268 . S
C26 O42 1.268 . S
C27 O33 1.268 . S
C27 O41 1.268 . S
C28 O34 1.268 . S
C28 O43 1.268 . S
C29 O35 1.268 . S
C29 O39 1.268 . S
C30 O36 1.268 . S
C30 O38 1.268 . S
C31 O37 1.268 . S
C31 O40 1.268 . S
O32 Sc22 2.105 . S
O32 C26 1.268 . S
O33 Sc23 2.105 . S
O33 C27 1.268 . S
O34 Sc24 2.105 . S
O34 C28 1.268 . S
O35 Sc22 2.105 . S
O35 C29 1.268 . S
O36 Sc24 2.105 . S
O36 C30 1.268 . S
O37 Sc23 2.105 . S
O37 C31 1.268 . S
O38 Sc22 2.105 . S
O38 C30 1.268 . S
O39 Sc23 2.105 . S
O39 C29 1.268 . S
O40 Sc24 2.105 . S
O40 C31 1.268 . S
O41 Sc22 2.105 . S
O41 C27 1.268 . S
O42 Sc24 2.105 . S
O42 C26 1.268 . S
O43 Sc23 2.105 . S
O43 C28 1.268 . S
Sc44 O47 2.025 . S
Sc44 O54 2.105 . S
Sc44 O57 2.105 . S
Sc44 O60 2.105 . S
Sc44 O63 2.105 . S
Sc45 O47 2.025 . S
Sc45 O55 2.105 . S
Sc45 O59 2.105 . S
Sc45 O61 2.105 . S
Sc45 O65 2.105 . S
Sc46 O47 2.025 . S
Sc46 O56 2.105 . S
Sc46 O58 2.105 . S
Sc46 O62 2.105 . S
Sc46 O64 2.105 . S
O47 Sc44 2.025 . S
O47 Sc45 2.025 . S
O47 Sc46 2.025 . S
C48 O54 1.268 . S
C48 O64 1.268 . S
C49 O55 1.268 . S
C49 O63 1.268 . S
C50 O56 1.268 . S
C50 O65 1.268 . S
C51 O57 1.268 . S
C51 O61 1.268 . S
C52 O58 1.268 . S
C52 O60 1.268 . S
C53 O59 1.268 . S
C53 O62 1.268 . S
O54 Sc44 2.105 . S
O54 C48 1.268 . S
O55 Sc45 2.105 . S
O55 C49 1.268 . S
O56 Sc46 2.105 . S
O56 C50 1.268 . S
O57 Sc44 2.105 . S
O57 C51 1.268 . S
O58 Sc46 2.105 . S
O58 C52 1.268 . S
O59 Sc45 2.105 . S
O59 C53 1.268 . S
O60 Sc44 2.105 . S
O60 C52 1.268 . S
O61 Sc45 2.105 . S
O61 C51 1.268 . S
O62 Sc46 2.105 . S
O62 C53 1.268 . S
O63 Sc44 2.105 . S
O63 C49 1.268 . S
O64 Sc46 2.105 . S
O64 C48 1.268 . S
O65 Sc45 2.105 . S
O65 C50 1.268 . S
Sc66 O69 2.025 . S
Sc66 O76 2.105 . S
Sc66 O79 2.105 . S
Sc66 O82 2.105 . S
Sc66 O85 2.105 . S
Sc67 O69 2.025 . S
Sc67 O77 2.105 . S
Sc67 O81 2.105 . S
Sc67 O83 2.105 . S
Sc67 O87 2.105 . S
Sc68 O69 2.025 . S
Sc68 O78 2.105 . S
Sc68 O80 2.105 . S
Sc68 O84 2.105 . S
Sc68 O86 2.105 . S
O69 Sc66 2.025 . S
O69 Sc67 2.025 . S
O69 Sc68 2.025 . S
C70 O76 1.268 . S
C70 O86 1.268 . S
C71 O77 1.268 . S
C71 O85 1.268 . S
C72 O78 1.268 . S
C72 O87 1.268 . S
C73 O79 1.268 . S
C73 O83 1.268 . S
C74 O80 1.268 . S
C74 O82 1.268 . S
C75 O81 1.268 . S
C75 O84 1.268 . S
O76 Sc66 2.105 . S
O76 C70 1.268 . S
O77 Sc67 2.105 . S
O77 C71 1.268 . S
O78 Sc68 2.105 . S
O78 C72 1.268 . S
O79 Sc66 2.105 . S
O79 C73 1.268 . S
O80 Sc68 2.105 . S
O80 C74 1.268 . S
O81 Sc67 2.105 . S
O81 C75 1.268 . S
O82 Sc66 2.105 . S
O82 C74 1.268 . S
O83 Sc67 2.105 . S
O83 C73 1.268 . S
O84 Sc68 2.105 . S
O84 C75 1.268 . S
O85 Sc66 2.105 . S
O85 C71 1.268 . S
O86 Sc68 2.105 . S
O86 C70 1.268 . S
O87 Sc67 2.105 . S
O87 C72 1.268 . S
Sc88 O91 2.025 . S
Sc88 O98 2.105 . S
Sc88 O101 2.105 . S
Sc88 O104 2.105 . S
Sc88 O107 2.105 . S
Sc89 O91 2.025 . S
Sc89 O99 2.105 . S
Sc89 O103 2.105 . S
Sc89 O105 2.105 . S
Sc89 O109 2.105 . S
Sc90 O91 2.025 . S
Sc90 O100 2.105 . S
Sc90 O102 2.105 . S
Sc90 O106 2.105 . S
Sc90 O108 2.105 . S
O91 Sc88 2.025 . S
O91 Sc89 2.025 . S
O91 Sc90 2.025 . S
C92 O98 1.268 . S
C92 O108 1.268 . S
C93 O99 1.268 . S
C93 O107 1.268 . S
C94 O100 1.268 . S
C94 O109 1.268 . S
C95 O101 1.268 . S
C95 O105 1.268 . S
C96 O102 1.268 . S
C96 O104 1.268 . S
C97 O103 1.268 . S
C97 O106 1.268 . S
O98 Sc88 2.105 . S
O98 C92 1.268 . S
O99 Sc89 2.105 . S
O99 C93 1.268 . S
O100 Sc90 2.105 . S
O100 C94 1.268 . S
O101 Sc88 2.105 . S
O101 C95 1.268 . S
O102 Sc90 2.105 . S
O102 C96 1.268 . S
O103 Sc89 2.105 . S
O103 C97 1.268 . S
O104 Sc88 2.105 . S
O104 C96 1.268 . S
O105 Sc89 2.105 . S
O105 C95 1.268 . S
O106 Sc90 2.105 . S
O106 C97 1.268 . S
O107 Sc88 2.105 . S
O107 C93 1.268 . S
O108 Sc90 2.105 . S
O108 C92 1.268 . S
O109 Sc89 2.105 . S
O109 C94 1.268 . S
Sc110 O113 2.025 . S
Sc110 O120 2.105 . S
Sc110 O123 2.105 . S
Sc110 O126 2.105 . S
Sc110 O129 2.105 . S
Sc111 O113 2.025 . S
Sc111 O121 2.105 . S
Sc111 O125 2.105 . S
Sc111 O127 2.105 . S
Sc111 O131 2.105 . S
Sc112 O113 2.025 . S
Sc112 O122 2.105 . S
Sc112 O124 2.105 . S
Sc112 O128 2.105 . S
Sc112 O130 2.105 . S
O113 Sc110 2.025 . S
O113 Sc111 2.025 . S
O113 Sc112 2.025 . S
C114 O120 1.268 . S
C114 O130 1.268 . S
C115 O121 1.268 . S
C115 O129 1.268 . S
C116 O122 1.268 . S
C116 O131 1.268 . S
C117 O123 1.268 . S
C117 O127 1.268 . S
C118 O124 1.268 . S
C118 O126 1.268 . S
C119 O125 1.268 . S
C119 O128 1.268 . S
O120 Sc110 2.105 . S
O120 C114 1.268 . S
O121 Sc111 2.105 . S
O121 C115 1.268 . S
O122 Sc112 2.105 . S
O122 C116 1.268 . S
O123 Sc110 2.105 . S
O123 C117 1.268 . S
O124 Sc112 2.105 . S
O124 C118 1.268 . S
O125 Sc111 2.105 . S
O125 C119 1.268 . S
O126 Sc110 2.105 . S
O126 C118 1.268 . S
O127 Sc111 2.105 . S
O127 C117 1.268 . S
O128 Sc112 2.105 . S
O128 C119 1.268 . S
O129 Sc110 2.105 . S
O129 C115 1.268 . S
O130 Sc112 2.105 . S
O130 C114 1.268 . S
O131 Sc111 2.105 . S
O131 C116 1.268 . S
Sc132 O135 2.025 . S
Sc132 O142 2.105 . S
Sc132 O145 2.105 . S
Sc132 O148 2.105 . S
Sc132 O151 2.105 . S
Sc133 O135 2.025 . S
Sc133 O143 2.105 . S
Sc133 O147 2.105 . S
Sc133 O149 2.105 . S
Sc133 O153 2.105 . S
Sc134 O135 2.025 . S
Sc134 O144 2.105 . S
Sc134 O146 2.105 . S
Sc134 O150 2.105 . S
Sc134 O152 2.105 . S
O135 Sc132 2.025 . S
O135 Sc133 2.025 . S
O135 Sc134 2.025 . S
C136 O142 1.268 . S
C136 O152 1.268 . S
C137 O143 1.268 . S
C137 O151 1.268 . S
C138 O144 1.268 . S
C138 O153 1.268 . S
C139 O145 1.268 . S
C139 O149 1.268 . S
C140 O146 1.268 . S
C140 O148 1.268 . S
C141 O147 1.268 . S
C141 O150 1.268 . S
O142 Sc132 2.105 . S
O142 C136 1.268 . S
O143 Sc133 2.105 . S
O143 C137 1.268 . S
O144 Sc134 2.105 . S
O144 C138 1.268 . S
O145 Sc132 2.105 . S
O145 C139 1.268 . S
O146 Sc134 2.105 . S
O146 C140 1.268 . S
O147 Sc133 2.105 . S
O147 C141 1.268 . S
O148 Sc132 2.105 . S
O148 C140 1.268 . S
O149 Sc133 2.105 . S
O149 C139 1.268 . S
O150 Sc134 2.105 . S
O150 C141 1.268 . S
O151 Sc132 2.105 . S
O151 C137 1.268 . S
O152 Sc134 2.105 . S
O152 C136 1.268 . S
O153 Sc133 2.105 . S
O153 C138 1.268 . S
Sc154 O157 2.025 . S
Sc154 O164 2.105 . S
Sc154 O167 2.105 . S
Sc154 O170 2.105 . S
Sc154 O173 2.105 . S
Sc155 O157 2.025 . S
Sc155 O165 2.105 . S
Sc155 O169 2.105 . S
Sc155 O171 2.105 . S
Sc155 O175 2.105 . S
Sc156 O157 2.025 . S
Sc156 O166 2.105 . S
Sc156 O168 2.105 . S
Sc156 O172 2.105 . S
Sc156 O174 2.105 . S
O157 Sc154 2.025 . S
O157 Sc155 2.025 . S
O157 Sc156 2.025 . S
C158 O164 1.268 . S
C158 O174 1.268 . S
C159 O165 1.268 . S
C159 O173 1.268 . S
C160 O166 1.268 . S
C160 O175 1.268 . S
C161 O167 1.268 . S
C161 O171 1.268 . S
C162 O168 1.268 . S
C162 O170 1.268 . S
C163 O169 1.268 . S
C163 O172 1.268 . S
O164 Sc154 2.105 . S
O164 C158 1.268 . S
O165 Sc155 2.105 . S
O165 C159 1.268 . S
O166 Sc156 2.105 . S
O166 C160 1.268 . S
O167 Sc154 2.105 . S
O167 C161 1.268 . S
O168 Sc156 2.105 . S
O168 C162 1.268 . S
O169 Sc155 2.105 . S
O169 C163 1.268 . S
O170 Sc154 2.105 . S
O170 C162 1.268 . S
O171 Sc155 2.105 . S
O171 C161 1.268 . S
O172 Sc156 2.105 . S
O172 C163 1.268 . S
O173 Sc154 2.105 . S
O173 C159 1.268 . S
O174 Sc156 2.105 . S
O174 C158 1.268 . S
O175 Sc155 2.105 . S
O175 C160 1.268 . S
Sc176 O179 2.025 . S
Sc176 O186 2.105 . S
Sc176 O189 2.105 . S
Sc176 O192 2.105 . S
Sc176 O195 2.105 . S
Sc177 O179 2.025 . S
Sc177 O187 2.105 . S
Sc177 O191 2.105 . S
Sc177 O193 2.105 . S
Sc177 O197 2.105 . S
Sc178 O179 2.025 . S
Sc178 O188 2.105 . S
Sc178 O190 2.105 . S
Sc178 O194 2.105 . S
Sc178 O196 2.105 . S
O179 Sc176 2.025 . S
O179 Sc177 2.025 . S
O179 Sc178 2.025 . S
C180 O186 1.268 . S
C180 O196 1.268 . S
C181 O187 1.268 . S
C181 O195 1.268 . S
C182 O188 1.268 . S
C182 O197 1.268 . S
C183 O189 1.268 . S
C183 O193 1.268 . S
C184 O190 1.268 . S
C184 O192 1.268 . S
C185 O191 1.268 . S
C185 O194 1.268 . S
O186 Sc176 2.105 . S
O186 C180 1.268 . S
O187 Sc177 2.105 . S
O187 C181 1.268 . S
O188 Sc178 2.105 . S
O188 C182 1.268 . S
O189 Sc176 2.105 . S
O189 C183 1.268 . S
O190 Sc178 2.105 . S
O190 C184 1.268 . S
O191 Sc177 2.105 . S
O191 C185 1.268 . S
O192 Sc176 2.105 . S
O192 C184 1.268 . S
O193 Sc177 2.105 . S
O193 C183 1.268 . S
O194 Sc178 2.105 . S
O194 C185 1.268 . S
O195 Sc176 2.105 . S
O195 C181 1.268 . S
O196 Sc178 2.105 . S
O196 C180 1.268 . S
O197 Sc177 2.105 . S
O197 C182 1.268 . S
Sc198 O201 2.025 . S
Sc198 O208 2.105 . S
Sc198 O211 2.105 . S
Sc198 O214 2.105 . S
Sc198 O217 2.105 . S
Sc199 O201 2.025 . S
Sc199 O209 2.105 . S
Sc199 O213 2.105 . S
Sc199 O215 2.105 . S
Sc199 O219 2.105 . S
Sc200 O201 2.025 . S
Sc200 O210 2.105 . S
Sc200 O212 2.105 . S
Sc200 O216 2.105 . S
Sc200 O218 2.105 . S
O201 Sc198 2.025 . S
O201 Sc199 2.025 . S
O201 Sc200 2.025 . S
C202 O208 1.268 . S
C202 O218 1.268 . S
C203 O209 1.268 . S
C203 O217 1.268 . S
C204 O210 1.268 . S
C204 O219 1.268 . S
C205 O211 1.268 . S
C205 O215 1.268 . S
C206 O212 1.268 . S
C206 O214 1.268 . S
C207 O213 1.268 . S
C207 O216 1.268 . S
O208 Sc198 2.105 . S
O208 C202 1.268 . S
O209 Sc199 2.105 . S
O209 C203 1.268 . S
O210 Sc200 2.105 . S
O210 C204 1.268 . S
O211 Sc198 2.105 . S
O211 C205 1.268 . S
O212 Sc200 2.105 . S
O212 C206 1.268 . S
O213 Sc199 2.105 . S
O213 C207 1.268 . S
O214 Sc198 2.105 . S
O214 C206 1.268 . S
O215 Sc199 2.105 . S
O215 C205 1.268 . S
O216 Sc200 2.105 . S
O216 C207 1.268 . S
O217 Sc198 2.105 . S
O217 C203 1.268 . S
O218 Sc200 2.105 . S
O218 C202 1.268 . S
O219 Sc199 2.105 . S
O219 C204 1.268 . S
Sc220 O223 2.025 . S
Sc220 O230 2.105 . S
Sc220 O233 2.105 . S
Sc220 O236 2.105 . S
Sc220 O239 2.105 . S
Sc221 O223 2.025 . S
Sc221 O231 2.105 . S
Sc221 O235 2.105 . S
Sc221 O237 2.105 . S
Sc221 O241 2.105 . S
Sc222 O223 2.025 . S
Sc222 O232 2.105 . S
Sc222 O234 2.105 . S
Sc222 O238 2.105 . S
Sc222 O240 2.105 . S
O223 Sc220 2.025 . S
O223 Sc221 2.025 . S
O223 Sc222 2.025 . S
C224 O230 1.268 . S
C224 O240 1.268 . S
C225 O231 1.268 . S
C225 O239 1.268 . S
C226 O232 1.268 . S
C226 O241 1.268 . S
C227 O233 1.268 . S
C227 O237 1.268 . S
C228 O234 1.268 . S
C228 O236 1.268 . S
C229 O235 1.268 . S
C229 O238 1.268 . S
O230 Sc220 2.105 . S
O230 C224 1.268 . S
O231 Sc221 2.105 . S
O231 C225 1.268 . S
O232 Sc222 2.105 . S
O232 C226 1.268 . S
O233 Sc220 2.105 . S
O233 C227 1.268 . S
O234 Sc222 2.105 . S
O234 C228 1.268 . S
O235 Sc221 2.105 . S
O235 C229 1.268 . S
O236 Sc220 2.105 . S
O236 C228 1.268 . S
O237 Sc221 2.105 . S
O237 C227 1.268 . S
O238 Sc222 2.105 . S
O238 C229 1.268 . S
O239 Sc220 2.105 . S
O239 C225 1.268 . S
O240 Sc222 2.105 . S
O240 C224 1.268 . S
O241 Sc221 2.105 . S
O241 C226 1.268 . S
Sc242 O245 2.025 . S
Sc242 O252 2.105 . S
Sc242 O255 2.105 . S
Sc242 O258 2.105 . S
Sc242 O261 2.105 . S
Sc243 O245 2.025 . S
Sc243 O253 2.105 . S
Sc243 O257 2.105 . S
Sc243 O259 2.105 . S
Sc243 O263 2.105 . S
Sc244 O245 2.025 . S
Sc244 O254 2.105 . S
Sc244 O256 2.105 . S
Sc244 O260 2.105 . S
Sc244 O262 2.105 . S
O245 Sc242 2.025 . S
O245 Sc243 2.025 . S
O245 Sc244 2.025 . S
C246 O252 1.268 . S
C246 O262 1.268 . S
C247 O253 1.268 . S
C247 O261 1.268 . S
C248 O254 1.268 . S
C248 O263 1.268 . S
C249 O255 1.268 . S
C249 O259 1.268 . S
C250 O256 1.268 . S
C250 O258 1.268 . S
C251 O257 1.268 . S
C251 O260 1.268 . S
O252 Sc242 2.105 . S
O252 C246 1.268 . S
O253 Sc243 2.105 . S
O253 C247 1.268 . S
O254 Sc244 2.105 . S
O254 C248 1.268 . S
O255 Sc242 2.105 . S
O255 C249 1.268 . S
O256 Sc244 2.105 . S
O256 C250 1.268 . S
O257 Sc243 2.105 . S
O257 C251 1.268 . S
O258 Sc242 2.105 . S
O258 C250 1.268 . S
O259 Sc243 2.105 . S
O259 C249 1.268 . S
O260 Sc244 2.105 . S
O260 C251 1.268 . S
O261 Sc242 2.105 . S
O261 C247 1.268 . S
O262 Sc244 2.105 . S
O262 C246 1.268 . S
O263 Sc243 2.105 . S
O263 C248 1.268 . S
Sc264 O267 2.025 . S
Sc264 O274 2.105 . S
Sc264 O277 2.105 . S
Sc264 O280 2.105 . S
Sc264 O283 2.105 . S
Sc265 O267 2.025 . S
Sc265 O275 2.105 . S
Sc265 O279 2.105 . S
Sc265 O281 2.105 . S
Sc265 O285 2.105 . S
Sc266 O267 2.025 . S
Sc266 O276 2.105 . S
Sc266 O278 2.105 . S
Sc266 O282 2.105 . S
Sc266 O284 2.105 . S
O267 Sc264 2.025 . S
O267 Sc265 2.025 . S
O267 Sc266 2.025 . S
C268 O274 1.268 . S
C268 O284 1.268 . S
C269 O275 1.268 . S
C269 O283 1.268 . S
C270 O276 1.268 . S
C270 O285 1.268 . S
C271 O277 1.268 . S
C271 O281 1.268 . S
C272 O278 1.268 . S
C272 O280 1.268 . S
C273 O279 1.268 . S
C273 O282 1.268 . S
O274 Sc264 2.105 . S
O274 C268 1.268 . S
O275 Sc265 2.105 . S
O275 C269 1.268 . S
O276 Sc266 2.105 . S
O276 C270 1.268 . S
O277 Sc264 2.105 . S
O277 C271 1.268 . S
O278 Sc266 2.105 . S
O278 C272 1.268 . S
O279 Sc265 2.105 . S
O279 C273 1.268 . S
O280 Sc264 2.105 . S
O280 C272 1.268 . S
O281 Sc265 2.105 . S
O281 C271 1.268 . S
O282 Sc266 2.105 . S
O282 C273 1.268 . S
O283 Sc264 2.105 . S
O283 C269 1.268 . S
O284 Sc266 2.105 . S
O284 C268 1.268 . S
O285 Sc265 2.105 . S
O285 C270 1.268 . S
Sc286 O289 2.025 . S
Sc286 O296 2.105 . S
Sc286 O299 2.105 . S
Sc286 O302 2.105 . S
Sc286 O305 2.105 . S
Sc287 O289 2.025 . S
Sc287 O297 2.105 . S
Sc287 O301 2.105 . S
Sc287 O303 2.105 . S
Sc287 O307 2.105 . S
Sc288 O289 2.025 . S
Sc288 O298 2.105 . S
Sc288 O300 2.105 . S
Sc288 O304 2.105 . S
Sc288 O306 2.105 . S
O289 Sc286 2.025 . S
O289 Sc287 2.025 . S
O289 Sc288 2.025 . S
C290 O296 1.268 . S
C290 O306 1.268 . S
C291 O297 1.268 . S
C291 O305 1.268 . S
C292 O298 1.268 . S
C292 O307 1.268 . S
C293 O299 1.268 . S
C293 O303 1.268 . S
C294 O300 1.268 . S
C294 O302 1.268 . S
C295 O301 1.268 . S
C295 O304 1.268 . S
O296 Sc286 2.105 . S
O296 C290 1.268 . S
O297 Sc287 2.105 . S
O297 C291 1.268 . S
O298 Sc288 2.105 . S
O298 C292 1.268 . S
O299 Sc286 2.105 . S
O299 C293 1.268 . S
O300 Sc288 2.105 . S
O300 C294 1.268 . S
O301 Sc287 2.105 . S
O301 C295 1.268 . S
O302 Sc286 2.105 . S
O302 C294 1.268 . S
O303 Sc287 2.105 . S
O303 C293 1.268 . S
O304 Sc288 2.105 . S
O304 C295 1.268 . S
O305 Sc286 2.105 . S
O305 C291 1.268 . S
O306 Sc288 2.105 . S
O306 C290 1.268 . S
O307 Sc287 2.105 . S
O307 C292 1.268 . S
Sc308 O311 2.025 . S
Sc308 O318 2.105 . S
Sc308 O321 2.105 . S
Sc308 O324 2.105 . S
Sc308 O327 2.105 . S
Sc309 O311 2.025 . S
Sc309 O319 2.105 . S
Sc309 O323 2.105 . S
Sc309 O325 2.105 . S
Sc309 O329 2.105 . S
Sc310 O311 2.025 . S
Sc310 O320 2.105 . S
Sc310 O322 2.105 . S
Sc310 O326 2.105 . S
Sc310 O328 2.105 . S
O311 Sc308 2.025 . S
O311 Sc309 2.025 . S
O311 Sc310 2.025 . S
C312 O318 1.268 . S
C312 O328 1.268 . S
C313 O319 1.268 . S
C313 O327 1.268 . S
C314 O320 1.268 . S
C314 O329 1.268 . S
C315 O321 1.268 . S
C315 O325 1.268 . S
C316 O322 1.268 . S
C316 O324 1.268 . S
C317 O323 1.268 . S
C317 O326 1.268 . S
O318 Sc308 2.105 . S
O318 C312 1.268 . S
O319 Sc309 2.105 . S
O319 C313 1.268 . S
O320 Sc310 2.105 . S
O320 C314 1.268 . S
O321 Sc308 2.105 . S
O321 C315 1.268 . S
O322 Sc310 2.105 . S
O322 C316 1.268 . S
O323 Sc309 2.105 . S
O323 C317 1.268 . S
O324 Sc308 2.105 . S
O324 C316 1.268 . S
O325 Sc309 2.105 . S
O325 C315 1.268 . S
O326 Sc310 2.105 . S
O326 C317 1.268 . S
O327 Sc308 2.105 . S
O327 C313 1.268 . S
O328 Sc310 2.105 . S
O328 C312 1.268 . S
O329 Sc309 2.105 . S
O329 C314 1.268 . S
Sc330 O333 2.025 . S
Sc330 O340 2.105 . S
Sc330 O343 2.105 . S
Sc330 O346 2.105 . S
Sc330 O349 2.105 . S
Sc331 O333 2.025 . S
Sc331 O341 2.105 . S
Sc331 O345 2.105 . S
Sc331 O347 2.105 . S
Sc331 O351 2.105 . S
Sc332 O333 2.025 . S
Sc332 O342 2.105 . S
Sc332 O344 2.105 . S
Sc332 O348 2.105 . S
Sc332 O350 2.105 . S
O333 Sc330 2.025 . S
O333 Sc331 2.025 . S
O333 Sc332 2.025 . S
C334 O340 1.268 . S
C334 O350 1.268 . S
C335 O341 1.268 . S
C335 O349 1.268 . S
C336 O342 1.268 . S
C336 O351 1.268 . S
C337 O343 1.268 . S
C337 O347 1.268 . S
C338 O344 1.268 . S
C338 O346 1.268 . S
C339 O345 1.268 . S
C339 O348 1.268 . S
O340 Sc330 2.105 . S
O340 C334 1.268 . S
O341 Sc331 2.105 . S
O341 C335 1.268 . S
O342 Sc332 2.105 . S
O342 C336 1.268 . S
O343 Sc330 2.105 . S
O343 C337 1.268 . S
O344 Sc332 2.105 . S
O344 C338 1.268 . S
O345 Sc331 2.105 . S
O345 C339 1.268 . S
O346 Sc330 2.105 . S
O346 C338 1.268 . S
O347 Sc331 2.105 . S
O347 C337 1.268 . S
O348 Sc332 2.105 . S
O348 C339 1.268 . S
O349 Sc330 2.105 . S
O349 C335 1.268 . S
O350 Sc332 2.105 . S
O350 C334 1.268 . S
O351 Sc331 2.105 . S
O351 C336 1.268 . S
C352 O379 1.312 . S
C352 O380 1.208 . S
C353 O374 1.331 . S
C353 O377 1.244 . S
C354 O376 1.264 . S
C354 O378 1.273 . S
Mg355 O357 1.936 1_455 S
Mg355 O364 2.081 1_455 S
Mg355 O366 2.023 . S
Mg355 O370 2.033 . S
Mg355 O379 2.291 . S
Mg356 O357 1.963 . S
Mg356 O367 1.942 . S
Mg356 O368 1.955 1_655 S
Mg356 O375 1.986 . S
O357 Mg355 1.936 1_655 S
O357 Mg356 1.963 . S
O357 Mg358 1.915 . S
Mg358 O357 1.915 . S
Mg358 O359 1.915 1_655 S
Mg358 O363 2.013 1_655 S
Mg358 O369 2.114 . S
Mg358 O373 2.013 . S
Mg358 O379 2.114 1_655 S
O359 Mg358 1.915 1_455 S
O359 Mg360 1.936 . S
O359 Mg361 1.963 1_455 S
Mg360 O359 1.936 . S
Mg360 O369 2.291 1_455 S
Mg360 O374 2.081 . S
Mg360 O376 2.023 1_455 S
Mg360 O380 2.031 . S
Mg361 O359 1.963 1_655 S
Mg361 O365 1.986 1_655 S
Mg361 O377 1.942 1_655 S
Mg361 O378 1.955 . S
C362 O373 1.191 . S
C362 O375 1.307 . S
O363 Mg358 2.013 1_455 S
O363 C382 1.191 . S
O364 Mg355 2.081 1_655 S
O364 C372 1.331 . S
O365 Mg361 1.986 1_455 S
O365 C382 1.307 . S
O366 Mg355 2.023 . S
O366 C381 1.264 . S
O367 Mg356 1.942 . S
O367 C372 1.244 . S
O368 Mg356 1.955 1_455 S
O368 C381 1.273 . S
O369 Mg358 2.114 . S
O369 Mg360 2.291 1_655 S
O369 C371 1.312 . S
O370 Mg355 2.033 . S
O370 C371 1.206 1_455 S
C371 O369 1.312 . S
C371 O370 1.206 1_655 S
C372 O364 1.331 . S
C372 O367 1.244 . S
O373 Mg358 2.013 . S
O373 C362 1.191 . S
O374 C353 1.331 . S
O374 Mg360 2.081 . S
O375 Mg356 1.986 . S
O375 C362 1.307 . S
O376 C354 1.264 . S
O376 Mg360 2.023 1_655 S
O377 C353 1.244 . S
O377 Mg361 1.942 1_455 S
O378 C354 1.273 . S
O378 Mg361 1.955 . S
O379 C352 1.312 . S
O379 Mg355 2.291 . S
O379 Mg358 2.114 1_455 S
O380 C352 1.208 . S
O380 Mg360 2.031 . S
C381 O366 1.264 . S
C381 O368 1.273 . S
C382 O363 1.191 . S
C382 O365 1.307 . S
C383 O410 1.312 . S
C383 O411 1.208 . S
C384 O405 1.331 . S
C384 O408 1.244 . S
C385 O407 1.264 . S
C385 O409 1.273 . S
Mg386 O388 1.936 . S
Mg386 O395 2.081 . S
Mg386 O397 2.023 . S
Mg386 O401 2.031 . S
Mg386 O410 2.291 . S
Mg387 O388 1.963 . S
Mg387 O398 1.942 . S
Mg387 O399 1.955 . S
Mg387 O406 1.986 . S
O388 Mg386 1.936 . S
O388 Mg387 1.963 . S
O388 Mg389 1.915 . S
Mg389 O388 1.915 . S
Mg389 O390 1.915 . S
Mg389 O394 2.013 . S
Mg389 O400 2.114 . S
Mg389 O404 2.013 . S
Mg389 O410 2.114 . S
O390 Mg389 1.915 . S
O390 Mg391 1.936 . S
O390 Mg392 1.963 . S
Mg391 O390 1.936 . S
Mg391 O400 2.291 . S
Mg391 O405 2.081 . S
Mg391 O407 2.023 . S
Mg391 O411 2.031 . S
Mg392 O390 1.963 . S
Mg392 O396 1.986 . S
Mg392 O408 1.942 . S
Mg392 O409 1.955 . S
C393 O404 1.191 . S
C393 O406 1.307 . S
O394 Mg389 2.013 . S
O394 C413 1.191 . S
O395 Mg386 2.081 . S
O395 C403 1.331 . S
O396 Mg392 1.986 . S
O396 C413 1.307 . S
O397 Mg386 2.023 . S
O397 C412 1.264 . S
O398 Mg387 1.942 . S
O398 C403 1.244 . S
O399 Mg387 1.955 . S
O399 C412 1.273 . S
O400 Mg389 2.114 . S
O400 Mg391 2.291 . S
O400 C402 1.312 . S
O401 Mg386 2.031 . S
O401 C402 1.208 . S
C402 O400 1.312 . S
C402 O401 1.208 . S
C403 O395 1.331 . S
C403 O398 1.244 . S
O404 Mg389 2.013 . S
O404 C393 1.191 . S
O405 C384 1.331 . S
O405 Mg391 2.081 . S
O406 Mg387 1.986 . S
O406 C393 1.307 . S
O407 C385 1.264 . S
O407 Mg391 2.023 . S
O408 C384 1.244 . S
O408 Mg392 1.942 . S
O409 C385 1.273 . S
O409 Mg392 1.955 . S
O410 C383 1.312 . S
O410 Mg386 2.291 . S
O410 Mg389 2.114 . S
O411 C383 1.208 . S
O411 Mg391 2.031 . S
C412 O397 1.264 . S
C412 O399 1.273 . S
C413 O394 1.191 . S
C413 O396 1.307 . S
C414 O441 1.312 . S
C414 O442 1.210 1_655 S
C415 O436 1.331 . S
C415 O439 1.244 . S
C416 O438 1.264 . S
C416 O440 1.273 . S
Mg417 O419 1.936 . S
Mg417 O426 2.081 . S
Mg417 O428 2.023 1_455 S
Mg417 O432 2.031 . S
Mg417 O441 2.291 1_455 S
Mg418 O419 1.963 1_655 S
Mg418 O429 1.942 1_655 S
Mg418 O430 1.955 . S
Mg418 O437 1.986 1_655 S
O419 Mg417 1.936 . S
O419 Mg418 1.963 1_455 S
O419 Mg420 1.915 1_455 S
Mg420 O419 1.915 1_655 S
Mg420 O421 1.915 . S
Mg420 O425 2.013 . S
Mg420 O431 2.114 1_655 S
Mg420 O435 2.013 1_655 S
Mg420 O441 2.114 . S
O421 Mg420 1.915 . S
O421 Mg422 1.936 1_655 S
O421 Mg423 1.963 . S
Mg422 O421 1.936 1_455 S
Mg422 O431 2.291 . S
Mg422 O436 2.081 1_455 S
Mg422 O438 2.023 . S
Mg422 O442 2.029 . S
Mg423 O421 1.963 . S
Mg423 O427 1.986 . S
Mg423 O439 1.942 . S
Mg423 O440 1.955 1_655 S
C424 O435 1.191 . S
C424 O437 1.307 . S
O425 Mg420 2.013 . S
O425 C444 1.191 . S
O426 Mg417 2.081 . S
O426 C434 1.331 . S
O427 Mg423 1.986 . S
O427 C444 1.307 . S
O428 Mg417 2.023 1_655 S
O428 C443 1.264 . S
O429 Mg418 1.942 1_455 S
O429 C434 1.244 . S
O430 Mg418 1.955 . S
O430 C443 1.273 . S
O431 Mg420 2.114 1_455 S
O431 Mg422 2.291 . S
O431 C433 1.312 . S
O432 Mg417 2.031 . S
O432 C433 1.208 . S
C433 O431 1.312 . S
C433 O432 1.208 . S
C434 O426 1.331 . S
C434 O429 1.244 . S
O435 Mg420 2.013 1_455 S
O435 C424 1.191 . S
O436 C415 1.331 . S
O436 Mg422 2.081 1_655 S
O437 Mg418 1.986 1_455 S
O437 C424 1.307 . S
O438 C416 1.264 . S
O438 Mg422 2.023 . S
O439 C415 1.244 . S
O439 Mg423 1.942 . S
O440 C416 1.273 . S
O440 Mg423 1.955 1_455 S
O441 C414 1.312 . S
O441 Mg417 2.291 1_655 S
O441 Mg420 2.114 . S
O442 C414 1.210 1_455 S
O442 Mg422 2.029 . S
C443 O428 1.264 . S
C443 O430 1.273 . S
C444 O425 1.191 . S
C444 O427 1.307 . S
C445 O472 1.312 . S
C445 O473 1.206 1_565 S
C446 O467 1.331 . S
C446 O470 1.244 . S
C447 O469 1.264 . S
C447 O471 1.273 . S
Mg448 O450 1.936 . S
Mg448 O457 2.081 . S
Mg448 O459 2.023 1_545 S
Mg448 O463 2.031 . S
Mg448 O472 2.291 1_545 S
Mg449 O450 1.963 1_565 S
Mg449 O460 1.942 1_565 S
Mg449 O461 1.955 . S
Mg449 O468 1.986 1_565 S
O450 Mg448 1.936 . S
O450 Mg449 1.963 1_545 S
O450 Mg451 1.915 1_545 S
Mg451 O450 1.915 1_565 S
Mg451 O452 1.915 . S
Mg451 O456 2.013 . S
Mg451 O462 2.114 1_565 S
Mg451 O466 2.013 1_565 S
Mg451 O472 2.114 . S
O452 Mg451 1.915 . S
O452 Mg453 1.936 1_565 S
O452 Mg454 1.963 . S
Mg453 O452 1.936 1_545 S
Mg453 O462 2.291 . S
Mg453 O467 2.081 1_545 S
Mg453 O469 2.023 . S
Mg453 O473 2.034 . S
Mg454 O452 1.963 . S
Mg454 O458 1.986 . S
Mg454 O470 1.942 . S
Mg454 O471 1.955 1_565 S
C455 O466 1.191 . S
C455 O468 1.307 . S
O456 Mg451 2.013 . S
O456 C475 1.191 . S
O457 Mg448 2.081 . S
O457 C465 1.331 . S
O458 Mg454 1.986 . S
O458 C475 1.307 . S
O459 Mg448 2.023 1_565 S
O459 C474 1.264 . S
O460 Mg449 1.942 1_545 S
O460 C465 1.244 . S
O461 Mg449 1.955 . S
O461 C474 1.273 . S
O462 Mg451 2.114 1_545 S
O462 Mg453 2.291 . S
O462 C464 1.312 . S
O463 Mg448 2.031 . S
O463 C464 1.208 . S
C464 O462 1.312 . S
C464 O463 1.208 . S
C465 O457 1.331 . S
C465 O460 1.244 . S
O466 Mg451 2.013 1_545 S
O466 C455 1.191 . S
O467 C446 1.331 . S
O467 Mg453 2.081 1_565 S
O468 Mg449 1.986 1_545 S
O468 C455 1.307 . S
O469 C447 1.264 . S
O469 Mg453 2.023 . S
O470 C446 1.244 . S
O470 Mg454 1.942 . S
O471 C447 1.273 . S
O471 Mg454 1.955 1_545 S
O472 C445 1.312 . S
O472 Mg448 2.291 1_565 S
O472 Mg451 2.114 . S
O473 C445 1.206 1_545 S
O473 Mg453 2.034 . S
C474 O459 1.264 . S
C474 O461 1.273 . S
C475 O456 1.191 . S
C475 O458 1.307 . S
C476 O503 1.312 . S
C476 O504 1.208 . S
C477 O498 1.331 . S
C477 O501 1.244 . S
C478 O500 1.264 . S
C478 O502 1.273 . S
Mg479 O481 1.936 1_554 S
Mg479 O488 2.081 1_554 S
Mg479 O490 2.023 . S
Mg479 O494 2.031 . S
Mg479 O503 2.291 . S
Mg480 O481 1.963 . S
Mg480 O491 1.942 . S
Mg480 O492 1.955 1_556 S
Mg480 O499 1.986 . S
O481 Mg479 1.936 1_556 S
O481 Mg480 1.963 . S
O481 Mg482 1.915 . S
Mg482 O481 1.915 . S
Mg482 O483 1.915 1_556 S
Mg482 O487 2.013 1_556 S
Mg482 O493 2.114 . S
Mg482 O497 2.013 . S
Mg482 O503 2.114 1_556 S
O483 Mg482 1.915 1_554 S
O483 Mg484 1.936 . S
O483 Mg485 1.963 1_554 S
Mg484 O483 1.936 . S
Mg484 O493 2.291 1_554 S
Mg484 O498 2.081 . S
Mg484 O500 2.023 1_554 S
Mg484 O504 2.031 . S
Mg485 O483 1.963 1_556 S
Mg485 O489 1.986 1_556 S
Mg485 O501 1.942 1_556 S
Mg485 O502 1.955 . S
C486 O497 1.191 . S
C486 O499 1.307 . S
O487 Mg482 2.013 1_554 S
O487 C506 1.191 . S
O488 Mg479 2.081 1_556 S
O488 C496 1.331 . S
O489 Mg485 1.986 1_554 S
O489 C506 1.307 . S
O490 Mg479 2.023 . S
O490 C505 1.264 . S
O491 Mg480 1.942 . S
O491 C496 1.244 . S
O492 Mg480 1.955 1_554 S
O492 C505 1.273 . S
O493 Mg482 2.114 . S
O493 Mg484 2.291 1_556 S
O493 C495 1.312 . S
O494 Mg479 2.031 . S
O494 C495 1.209 1_554 S
C495 O493 1.312 . S
C495 O494 1.209 1_556 S
C496 O488 1.331 . S
C496 O491 1.244 . S
O497 Mg482 2.013 . S
O497 C486 1.191 . S
O498 C477 1.331 . S
O498 Mg484 2.081 . S
O499 Mg480 1.986 . S
O499 C486 1.307 . S
O500 C478 1.264 . S
O500 Mg484 2.023 1_556 S
O501 C477 1.244 . S
O501 Mg485 1.942 1_554 S
O502 C478 1.273 . S
O502 Mg485 1.955 . S
O503 C476 1.312 . S
O503 Mg479 2.291 . S
O503 Mg482 2.114 1_554 S
O504 C476 1.208 . S
O504 Mg484 2.031 . S
C505 O490 1.264 . S
C505 O492 1.273 . S
C506 O487 1.191 . S
C506 O489 1.307 . S
C507 O534 1.312 . S
C507 O535 1.208 . S
C508 O529 1.331 . S
C508 O532 1.244 . S
C509 O531 1.264 . S
C509 O533 1.273 . S
Mg510 O512 1.936 . S
Mg510 O519 2.081 . S
Mg510 O521 2.023 . S
Mg510 O525 2.031 . S
Mg510 O534 2.291 . S
Mg511 O512 1.963 . S
Mg511 O522 1.942 . S
Mg511 O523 1.955 . S
Mg511 O530 1.986 . S
O512 Mg510 1.936 . S
O512 Mg511 1.963 . S
O512 Mg513 1.915 . S
Mg513 O512 1.915 . S
Mg513 O514 1.915 . S
Mg513 O518 2.013 . S
Mg513 O524 2.114 . S
Mg513 O528 2.013 . S
Mg513 O534 2.114 . S
O514 Mg513 1.915 . S
O514 Mg515 1.936 . S
O514 Mg516 1.963 . S
Mg515 O514 1.936 . S
Mg515 O524 2.291 . S
Mg515 O529 2.081 . S
Mg515 O531 2.023 . S
Mg515 O535 2.031 . S
Mg516 O514 1.963 . S
Mg516 O520 1.986 . S
Mg516 O532 1.942 . S
Mg516 O533 1.955 . S
C517 O528 1.191 . S
C517 O530 1.307 . S
O518 Mg513 2.013 . S
O518 C537 1.191 . S
O519 Mg510 2.081 . S
O519 C527 1.331 . S
O520 Mg516 1.986 . S
O520 C537 1.307 . S
O521 Mg510 2.023 . S
O521 C536 1.264 . S
O522 Mg511 1.942 . S
O522 C527 1.244 . S
O523 Mg511 1.955 . S
O523 C536 1.273 . S
O524 Mg513 2.114 . S
O524 Mg515 2.291 . S
O524 C526 1.312 . S
O525 Mg510 2.031 . S
O525 C526 1.208 . S
C526 O524 1.312 . S
C526 O525 1.208 . S
C527 O519 1.331 . S
C527 O522 1.244 . S
O528 Mg513 2.013 . S
O528 C517 1.191 . S
O529 C508 1.331 . S
O529 Mg515 2.081 . S
O530 Mg511 1.986 . S
O530 C517 1.307 . S
O531 C509 1.264 . S
O531 Mg515 2.023 . S
O532 C508 1.244 . S
O532 Mg516 1.942 . S
O533 C509 1.273 . S
O533 Mg516 1.955 . S
O534 C507 1.312 . S
O534 Mg510 2.291 . S
O534 Mg513 2.114 . S
O535 C507 1.208 . S
O535 Mg515 2.031 . S
C536 O521 1.264 . S
C536 O523 1.273 . S
C537 O518 1.191 . S
C537 O520 1.307 . S
C538 O565 1.312 . S
C538 O566 1.208 . S
C539 O560 1.331 . S
C539 O563 1.244 . S
C540 O562 1.264 . S
C540 O564 1.273 . S
Mg541 O543 1.936 . S
Mg541 O550 2.081 . S
Mg541 O552 2.023 1_556 S
Mg541 O556 2.031 . S
Mg541 O565 2.291 1_556 S
Mg542 O543 1.963 1_554 S
Mg542 O553 1.942 1_554 S
Mg542 O554 1.955 . S
Mg542 O561 1.986 1_554 S
O543 Mg541 1.936 . S
O543 Mg542 1.963 1_556 S
O543 Mg544 1.915 1_556 S
Mg544 O543 1.915 1_554 S
Mg544 O545 1.915 . S
Mg544 O549 2.013 . S
Mg544 O555 2.114 1_554 S
Mg544 O559 2.013 1_554 S
Mg544 O565 2.114 . S
O545 Mg544 1.915 . S
O545 Mg546 1.936 1_554 S
O545 Mg547 1.963 . S
Mg546 O545 1.936 1_556 S
Mg546 O555 2.291 . S
Mg546 O560 2.081 1_556 S
Mg546 O562 2.023 . S
Mg546 O566 2.031 1_556 S
Mg547 O545 1.963 . S
Mg547 O551 1.986 . S
Mg547 O563 1.942 . S
Mg547 O564 1.955 1_554 S
C548 O559 1.191 . S
C548 O561 1.307 . S
O549 Mg544 2.013 . S
O549 C568 1.191 . S
O550 Mg541 2.081 . S
O550 C558 1.331 . S
O551 Mg547 1.986 . S
O551 C568 1.307 . S
O552 Mg541 2.023 1_554 S
O552 C567 1.264 . S
O553 Mg542 1.942 1_556 S
O553 C558 1.244 . S
O554 Mg542 1.955 . S
O554 C567 1.273 . S
O555 Mg544 2.114 1_556 S
O555 Mg546 2.291 . S
O555 C557 1.312 . S
O556 Mg541 2.031 . S
O556 C557 1.208 . S
C557 O555 1.312 . S
C557 O556 1.208 . S
C558 O550 1.331 . S
C558 O553 1.244 . S
O559 Mg544 2.013 1_556 S
O559 C548 1.191 . S
O560 C539 1.331 . S
O560 Mg546 2.081 1_554 S
O561 Mg542 1.986 1_556 S
O561 C548 1.307 . S
O562 C540 1.264 . S
O562 Mg546 2.023 . S
O563 C539 1.244 . S
O563 Mg547 1.942 . S
O564 C540 1.273 . S
O564 Mg547 1.955 1_556 S
O565 C538 1.312 . S
O565 Mg541 2.291 1_554 S
O565 Mg544 2.114 . S
O566 C538 1.208 . S
O566 Mg546 2.031 1_554 S
C567 O552 1.264 . S
C567 O554 1.273 . S
C568 O549 1.191 . S
C568 O551 1.307 . S
C569 O596 1.312 . S
C569 O597 1.208 . S
C570 O591 1.331 . S
C570 O594 1.244 . S
C571 O593 1.264 . S
C571 O595 1.273 . S
Mg572 O574 1.936 . S
Mg572 O581 2.081 . S
Mg572 O583 2.023 . S
Mg572 O587 2.031 . S
Mg572 O596 2.291 . S
Mg573 O574 1.963 . S
Mg573 O584 1.942 . S
Mg573 O585 1.955 . S
Mg573 O592 1.986 . S
O574 Mg572 1.936 . S
O574 Mg573 1.963 . S
O574 Mg575 1.915 . S
Mg575 O574 1.915 . S
Mg575 O576 1.915 . S
Mg575 O580 2.013 . S
Mg575 O586 2.114 . S
Mg575 O590 2.013 . S
Mg575 O596 2.114 . S
O576 Mg575 1.915 . S
O576 Mg577 1.936 . S
O576 Mg578 1.963 . S
Mg577 O576 1.936 . S
Mg577 O586 2.291 . S
Mg577 O591 2.081 . S
Mg577 O593 2.023 . S
Mg577 O597 2.031 . S
Mg578 O576 1.963 . S
Mg578 O582 1.986 . S
Mg578 O594 1.942 . S
Mg578 O595 1.955 . S
C579 O590 1.191 . S
C579 O592 1.307 . S
O580 Mg575 2.013 . S
O580 C599 1.191 . S
O581 Mg572 2.081 . S
O581 C589 1.331 . S
O582 Mg578 1.986 . S
O582 C599 1.307 . S
O583 Mg572 2.023 . S
O583 C598 1.264 . S
O584 Mg573 1.942 . S
O584 C589 1.244 . S
O585 Mg573 1.955 . S
O585 C598 1.273 . S
O586 Mg575 2.114 . S
O586 Mg577 2.291 . S
O586 C588 1.312 . S
O587 Mg572 2.031 . S
O587 C588 1.208 . S
C588 O586 1.312 . S
C588 O587 1.208 . S
C589 O581 1.331 . S
C589 O584 1.244 . S
O590 Mg575 2.013 . S
O590 C579 1.191 . S
O591 C570 1.331 . S
O591 Mg577 2.081 . S
O592 Mg573 1.986 . S
O592 C579 1.307 . S
O593 C571 1.264 . S
O593 Mg577 2.023 . S
O594 C570 1.244 . S
O594 Mg578 1.942 . S
O595 C571 1.273 . S
O595 Mg578 1.955 . S
O596 C569 1.312 . S
O596 Mg572 2.291 . S
O596 Mg575 2.114 . S
O597 C569 1.208 . S
O597 Mg577 2.031 . S
C598 O583 1.264 . S
C598 O585 1.273 . S
C599 O580 1.191 . S
C599 O582 1.307 . S
C600 O627 1.312 . S
C600 O628 1.208 . S
C601 O622 1.331 . S
C601 O625 1.244 . S
C602 O624 1.264 . S
C602 O626 1.273 . S
Mg603 O605 1.936 . S
Mg603 O612 2.081 . S
Mg603 O614 2.023 . S
Mg603 O618 2.031 . S
Mg603 O627 2.291 . S
Mg604 O605 1.963 . S
Mg604 O615 1.942 . S
Mg604 O616 1.955 . S
Mg604 O623 1.986 . S
O605 Mg603 1.936 . S
O605 Mg604 1.963 . S
O605 Mg606 1.915 . S
Mg606 O605 1.915 . S
Mg606 O607 1.915 . S
Mg606 O611 2.013 . S
Mg606 O617 2.114 . S
Mg606 O621 2.013 . S
Mg606 O627 2.114 . S
O607 Mg606 1.915 . S
O607 Mg608 1.936 . S
O607 Mg609 1.963 . S
Mg608 O607 1.936 . S
Mg608 O617 2.291 . S
Mg608 O622 2.081 . S
Mg608 O624 2.023 . S
Mg608 O628 2.031 . S
Mg609 O607 1.963 . S
Mg609 O613 1.986 . S
Mg609 O625 1.942 . S
Mg609 O626 1.955 . S
C610 O621 1.191 . S
C610 O623 1.307 . S
O611 Mg606 2.013 . S
O611 C630 1.191 . S
O612 Mg603 2.081 . S
O612 C620 1.331 . S
O613 Mg609 1.986 . S
O613 C630 1.307 . S
O614 Mg603 2.023 . S
O614 C629 1.264 . S
O615 Mg604 1.942 . S
O615 C620 1.244 . S
O616 Mg604 1.955 . S
O616 C629 1.273 . S
O617 Mg606 2.114 . S
O617 Mg608 2.291 . S
O617 C619 1.312 . S
O618 Mg603 2.031 . S
O618 C619 1.208 . S
C619 O617 1.312 . S
C619 O618 1.208 . S
C620 O612 1.331 . S
C620 O615 1.244 . S
O621 Mg606 2.013 . S
O621 C610 1.191 . S
O622 C601 1.331 . S
O622 Mg608 2.081 . S
O623 Mg604 1.986 . S
O623 C610 1.307 . S
O624 C602 1.264 . S
O624 Mg608 2.023 . S
O625 C601 1.244 . S
O625 Mg609 1.942 . S
O626 C602 1.273 . S
O626 Mg609 1.955 . S
O627 C600 1.312 . S
O627 Mg603 2.291 . S
O627 Mg606 2.114 . S
O628 C600 1.208 . S
O628 Mg608 2.031 . S
C629 O614 1.264 . S
C629 O616 1.273 . S
C630 O611 1.191 . S
C630 O613 1.307 . S
C631 O658 1.312 . S
C631 O659 1.208 . S
C632 O653 1.331 . S
C632 O656 1.244 . S
C633 O655 1.264 . S
C633 O657 1.273 . S
Mg634 O636 1.936 . S
Mg634 O643 2.081 . S
Mg634 O645 2.023 . S
Mg634 O649 2.031 . S
Mg634 O658 2.291 . S
Mg635 O636 1.963 . S
Mg635 O646 1.942 . S
Mg635 O647 1.955 . S
Mg635 O654 1.986 . S
O636 Mg634 1.936 . S
O636 Mg635 1.963 . S
O636 Mg637 1.915 . S
Mg637 O636 1.915 . S
Mg637 O638 1.915 . S
Mg637 O642 2.013 . S
Mg637 O648 2.114 . S
Mg637 O652 2.013 . S
Mg637 O658 2.114 . S
O638 Mg637 1.915 . S
O638 Mg639 1.936 . S
O638 Mg640 1.963 . S
Mg639 O638 1.936 . S
Mg639 O648 2.291 . S
Mg639 O653 2.081 . S
Mg639 O655 2.023 . S
Mg639 O659 2.031 . S
Mg640 O638 1.963 . S
Mg640 O644 1.986 . S
Mg640 O656 1.942 . S
Mg640 O657 1.955 . S
C641 O652 1.191 . S
C641 O654 1.307 . S
O642 Mg637 2.013 . S
O642 C661 1.191 . S
O643 Mg634 2.081 . S
O643 C651 1.331 . S
O644 Mg640 1.986 . S
O644 C661 1.307 . S
O645 Mg634 2.023 . S
O645 C660 1.264 . S
O646 Mg635 1.942 . S
O646 C651 1.244 . S
O647 Mg635 1.955 . S
O647 C660 1.273 . S
O648 Mg637 2.114 . S
O648 Mg639 2.291 . S
O648 C650 1.312 . S
O649 Mg634 2.031 . S
O649 C650 1.208 . S
C650 O648 1.312 . S
C650 O649 1.208 . S
C651 O643 1.331 . S
C651 O646 1.244 . S
O652 Mg637 2.013 . S
O652 C641 1.191 . S
O653 C632 1.331 . S
O653 Mg639 2.081 . S
O654 Mg635 1.986 . S
O654 C641 1.307 . S
O655 C633 1.264 . S
O655 Mg639 2.023 . S
O656 C632 1.244 . S
O656 Mg640 1.942 . S
O657 C633 1.273 . S
O657 Mg640 1.955 . S
O658 C631 1.312 . S
O658 Mg634 2.291 . S
O658 Mg637 2.114 . S
O659 C631 1.208 . S
O659 Mg639 2.031 . S
C660 O645 1.264 . S
C660 O647 1.273 . S
C661 O642 1.191 . S
C661 O644 1.307 . S
C662 O689 1.312 . S
C662 O690 1.208 . S
C663 O684 1.331 . S
C663 O687 1.244 . S
C664 O686 1.264 . S
C664 O688 1.273 . S
Mg665 O667 1.936 . S
Mg665 O674 2.081 . S
Mg665 O676 2.023 1_565 S
Mg665 O680 2.031 . S
Mg665 O689 2.291 1_565 S
Mg666 O667 1.963 1_545 S
Mg666 O677 1.942 1_545 S
Mg666 O678 1.955 . S
Mg666 O685 1.986 1_545 S
O667 Mg665 1.936 . S
O667 Mg666 1.963 1_565 S
O667 Mg668 1.915 1_565 S
Mg668 O667 1.915 1_545 S
Mg668 O669 1.915 . S
Mg668 O673 2.013 . S
Mg668 O679 2.114 1_545 S
Mg668 O683 2.013 1_545 S
Mg668 O689 2.114 . S
O669 Mg668 1.915 . S
O669 Mg670 1.936 1_545 S
O669 Mg671 1.963 . S
Mg670 O669 1.936 1_565 S
Mg670 O679 2.291 . S
Mg670 O684 2.081 1_565 S
Mg670 O686 2.023 . S
Mg670 O690 2.031 1_565 S
Mg671 O669 1.963 . S
Mg671 O675 1.986 . S
Mg671 O687 1.942 . S
Mg671 O688 1.955 1_545 S
C672 O683 1.191 . S
C672 O685 1.307 . S
O673 Mg668 2.013 . S
O673 C692 1.191 . S
O674 Mg665 2.081 . S
O674 C682 1.331 . S
O675 Mg671 1.986 . S
O675 C692 1.307 . S
O676 Mg665 2.023 1_545 S
O676 C691 1.264 . S
O677 Mg666 1.942 1_565 S
O677 C682 1.244 . S
O678 Mg666 1.955 . S
O678 C691 1.273 . S
O679 Mg668 2.114 1_565 S
O679 Mg670 2.291 . S
O679 C681 1.312 . S
O680 Mg665 2.031 . S
O680 C681 1.208 . S
C681 O679 1.312 . S
C681 O680 1.208 . S
C682 O674 1.331 . S
C682 O677 1.244 . S
O683 Mg668 2.013 1_565 S
O683 C672 1.191 . S
O684 C663 1.331 . S
O684 Mg670 2.081 1_545 S
O685 Mg666 1.986 1_565 S
O685 C672 1.307 . S
O686 C664 1.264 . S
O686 Mg670 2.023 . S
O687 C663 1.244 . S
O687 Mg671 1.942 . S
O688 C664 1.273 . S
O688 Mg671 1.955 1_565 S
O689 C662 1.312 . S
O689 Mg665 2.291 1_545 S
O689 Mg668 2.114 . S
O690 C662 1.208 . S
O690 Mg670 2.031 1_545 S
C691 O676 1.264 . S
C691 O678 1.273 . S
C692 O673 1.191 . S
C692 O675 1.307 . S
C693 O720 1.312 . S
C693 O721 1.208 . S
C694 O715 1.331 . S
C694 O718 1.244 . S
C695 O717 1.264 . S
C695 O719 1.273 . S
Mg696 O698 1.936 . S
Mg696 O705 2.081 . S
Mg696 O707 2.023 . S
Mg696 O711 2.031 . S
Mg696 O720 2.291 . S
Mg697 O698 1.963 . S
Mg697 O708 1.942 . S
Mg697 O709 1.955 . S
Mg697 O716 1.986 . S
O698 Mg696 1.936 . S
O698 Mg697 1.963 . S
O698 Mg699 1.915 . S
Mg699 O698 1.915 . S
Mg699 O700 1.915 . S
Mg699 O704 2.013 . S
Mg699 O710 2.114 . S
Mg699 O714 2.013 . S
Mg699 O720 2.114 . S
O700 Mg699 1.915 . S
O700 Mg701 1.936 . S
O700 Mg702 1.963 . S
Mg701 O700 1.936 . S
Mg701 O710 2.291 . S
Mg701 O715 2.081 . S
Mg701 O717 2.023 . S
Mg701 O721 2.031 . S
Mg702 O700 1.963 . S
Mg702 O706 1.986 . S
Mg702 O718 1.942 . S
Mg702 O719 1.955 . S
C703 O714 1.191 . S
C703 O716 1.307 . S
O704 Mg699 2.013 . S
O704 C723 1.191 . S
O705 Mg696 2.081 . S
O705 C713 1.331 . S
O706 Mg702 1.986 . S
O706 C723 1.307 . S
O707 Mg696 2.023 . S
O707 C722 1.264 . S
O708 Mg697 1.942 . S
O708 C713 1.244 . S
O709 Mg697 1.955 . S
O709 C722 1.273 . S
O710 Mg699 2.114 . S
O710 Mg701 2.291 . S
O710 C712 1.312 . S
O711 Mg696 2.031 . S
O711 C712 1.208 . S
C712 O710 1.312 . S
C712 O711 1.208 . S
C713 O705 1.331 . S
C713 O708 1.244 . S
O714 Mg699 2.013 . S
O714 C703 1.191 . S
O715 C694 1.331 . S
O715 Mg701 2.081 . S
O716 Mg697 1.986 . S
O716 C703 1.307 . S
O717 C695 1.264 . S
O717 Mg701 2.023 . S
O718 C694 1.244 . S
O718 Mg702 1.942 . S
O719 C695 1.273 . S
O719 Mg702 1.955 . S
O720 C693 1.312 . S
O720 Mg696 2.291 . S
O720 Mg699 2.114 . S
O721 C693 1.208 . S
O721 Mg701 2.031 . S
C722 O707 1.264 . S
C722 O709 1.273 . S
C723 O704 1.191 . S
C723 O706 1.307 . S
H724 C730 0.930 . S
H725 C733 0.930 . S
H726 C734 0.930 . S
H727 C735 0.930 . S
H728 C738 0.920 1_655 S
H729 C739 0.930 1_655 S
C730 H724 0.930 . S
C730 C731 1.355 . S
C730 C732 1.415 . S
C731 C730 1.355 . S
C731 C733 1.419 . S
C732 C730 1.415 . S
C732 C737 1.425 . S
C732 C739 1.409 . S
C733 H725 0.930 . S
C733 C731 1.419 . S
C733 C734 1.362 . S
C734 H726 0.930 . S
C734 C733 1.362 . S
C734 C737 1.409 . S
C735 H727 0.930 . S
C735 C736 1.355 . S
C735 C737 1.415 . S
C736 C735 1.355 . S
C736 C738 1.419 . S
C737 C732 1.425 . S
C737 C734 1.409 . S
C737 C735 1.415 . S
C738 H728 0.920 1_455 S
C738 C736 1.419 . S
C738 C739 1.362 . S
C739 H729 0.930 1_455 S
C739 C732 1.409 . S
C739 C738 1.362 . S
H740 C746 0.930 . S
H741 C749 0.930 . S
H742 C750 0.930 . S
H743 C751 0.930 . S
H744 C754 0.930 . S
H745 C755 0.930 . S
C746 H740 0.930 . S
C746 C747 1.355 . S
C746 C748 1.415 . S
C747 C746 1.355 . S
C747 C749 1.419 . S
C748 C746 1.415 . S
C748 C753 1.425 . S
C748 C755 1.409 . S
C749 H741 0.930 . S
C749 C747 1.419 . S
C749 C750 1.362 . S
C750 H742 0.930 . S
C750 C749 1.362 . S
C750 C753 1.409 . S
C751 H743 0.930 . S
C751 C752 1.355 . S
C751 C753 1.415 . S
C752 C751 1.355 . S
C752 C754 1.419 . S
C753 C748 1.425 . S
C753 C750 1.409 . S
C753 C751 1.415 . S
C754 H744 0.930 . S
C754 C752 1.419 . S
C754 C755 1.362 . S
C755 H745 0.930 . S
C755 C748 1.409 . S
C755 C754 1.362 . S
H756 C762 0.930 . S
H757 C765 0.930 . S
H758 C766 0.930 . S
H759 C767 0.930 . S
H760 C770 0.930 . S
H761 C771 0.930 . S
C762 H756 0.930 . S
C762 C763 1.355 . S
C762 C764 1.415 . S
C763 C762 1.355 . S
C763 C765 1.419 . S
C764 C762 1.415 . S
C764 C769 1.425 . S
C764 C771 1.409 . S
C765 H757 0.930 . S
C765 C763 1.419 . S
C765 C766 1.362 . S
C766 H758 0.930 . S
C766 C765 1.362 . S
C766 C769 1.409 . S
C767 H759 0.930 . S
C767 C768 1.355 . S
C767 C769 1.415 . S
C768 C767 1.355 . S
C768 C770 1.419 . S
C769 C764 1.425 . S
C769 C766 1.409 . S
C769 C767 1.415 . S
C770 H760 0.930 . S
C770 C768 1.419 . S
C770 C771 1.362 . S
C771 H761 0.930 . S
C771 C764 1.409 . S
C771 C770 1.362 . S
H772 C778 0.930 . S
H773 C781 0.930 . S
H774 C782 0.930 . S
H775 C783 0.930 . S
H776 C786 0.930 . S
H777 C787 0.930 . S
C778 H772 0.930 . S
C778 C779 1.355 . S
C778 C780 1.415 . S
C779 C778 1.355 . S
C779 C781 1.419 . S
C780 C778 1.415 . S
C780 C785 1.425 . S
C780 C787 1.409 . S
C781 H773 0.930 . S
C781 C779 1.419 . S
C781 C782 1.362 . S
C782 H774 0.930 . S
C782 C781 1.362 . S
C782 C785 1.409 . S
C783 H775 0.930 . S
C783 C784 1.355 . S
C783 C785 1.415 . S
C784 C783 1.355 . S
C784 C786 1.419 . S
C785 C780 1.425 . S
C785 C782 1.409 . S
C785 C783 1.415 . S
C786 H776 0.930 . S
C786 C784 1.419 . S
C786 C787 1.362 . S
C787 H777 0.930 . S
C787 C780 1.409 . S
C787 C786 1.362 . S
H788 C794 0.930 . S
H789 C797 0.930 . S
H790 C798 0.930 . S
H791 C799 0.930 . S
H792 C802 0.930 . S
H793 C803 0.930 . S
C794 H788 0.930 . S
C794 C795 1.355 . S
C794 C796 1.415 . S
C795 C794 1.355 . S
C795 C797 1.419 . S
C796 C794 1.415 . S
C796 C801 1.425 . S
C796 C803 1.409 . S
C797 H789 0.930 . S
C797 C795 1.419 . S
C797 C798 1.362 . S
C798 H790 0.930 . S
C798 C797 1.362 . S
C798 C801 1.409 . S
C799 H791 0.930 . S
C799 C800 1.355 . S
C799 C801 1.415 . S
C800 C799 1.355 . S
C800 C802 1.419 . S
C801 C796 1.425 . S
C801 C798 1.409 . S
C801 C799 1.415 . S
C802 H792 0.930 . S
C802 C800 1.419 . S
C802 C803 1.362 . S
C803 H793 0.930 . S
C803 C796 1.409 . S
C803 C802 1.362 . S
H804 C810 0.930 . S
H805 C813 0.930 . S
H806 C814 0.930 . S
H807 C815 0.930 . S
H808 C818 0.930 . S
H809 C819 0.930 . S
C810 H804 0.930 . S
C810 C811 1.355 . S
C810 C812 1.415 . S
C811 C810 1.355 . S
C811 C813 1.419 . S
C812 C810 1.415 . S
C812 C817 1.425 . S
C812 C819 1.409 . S
C813 H805 0.930 . S
C813 C811 1.419 . S
C813 C814 1.362 . S
C814 H806 0.930 . S
C814 C813 1.362 . S
C814 C817 1.409 . S
C815 H807 0.930 . S
C815 C816 1.355 . S
C815 C817 1.415 . S
C816 C815 1.355 . S
C816 C818 1.419 . S
C817 C812 1.425 . S
C817 C814 1.409 . S
C817 C815 1.415 . S
C818 H808 0.930 . S
C818 C816 1.419 . S
C818 C819 1.362 . S
C819 H809 0.930 . S
C819 C812 1.409 . S
C819 C818 1.362 . S
H820 C826 0.930 . S
H821 C829 0.930 . S
H822 C830 0.930 . S
H823 C831 0.930 . S
H824 C834 0.930 . S
H825 C835 0.930 . S
C826 H820 0.930 . S
C826 C827 1.355 . S
C826 C828 1.415 . S
C827 C826 1.355 . S
C827 C829 1.419 . S
C828 C826 1.415 . S
C828 C833 1.425 . S
C828 C835 1.409 . S
C829 H821 0.930 . S
C829 C827 1.419 . S
C829 C830 1.362 . S
C830 H822 0.930 . S
C830 C829 1.362 . S
C830 C833 1.409 . S
C831 H823 0.930 . S
C831 C832 1.355 . S
C831 C833 1.415 . S
C832 C831 1.355 . S
C832 C834 1.419 . S
C833 C828 1.425 . S
C833 C830 1.409 . S
C833 C831 1.415 . S
C834 H824 0.930 . S
C834 C832 1.419 . S
C834 C835 1.362 . S
C835 H825 0.930 . S
C835 C828 1.409 . S
C835 C834 1.362 . S
H836 C842 0.930 . S
H837 C845 0.930 . S
H838 C846 0.930 . S
H839 C847 0.930 . S
H840 C850 0.930 . S
H841 C851 0.930 . S
C842 H836 0.930 . S
C842 C843 1.355 . S
C842 C844 1.415 . S
C843 C842 1.355 . S
C843 C845 1.419 . S
C844 C842 1.415 . S
C844 C849 1.425 . S
C844 C851 1.409 . S
C845 H837 0.930 . S
C845 C843 1.419 . S
C845 C846 1.362 . S
C846 H838 0.930 . S
C846 C845 1.362 . S
C846 C849 1.409 . S
C847 H839 0.930 . S
C847 C848 1.355 . S
C847 C849 1.415 . S
C848 C847 1.355 . S
C848 C850 1.419 . S
C849 C844 1.425 . S
C849 C846 1.409 . S
C849 C847 1.415 . S
C850 H840 0.930 . S
C850 C848 1.419 . S
C850 C851 1.362 . S
C851 H841 0.930 . S
C851 C844 1.409 . S
C851 C850 1.362 . S
H852 C858 0.930 . S
H853 C861 0.930 . S
H854 C862 0.930 . S
H855 C863 0.930 . S
H856 C866 0.930 . S
H857 C867 0.930 . S
C858 H852 0.930 . S
C858 C859 1.355 . S
C858 C860 1.415 . S
C859 C858 1.355 . S
C859 C861 1.419 . S
C860 C858 1.415 . S
C860 C865 1.425 . S
C860 C867 1.409 . S
C861 H853 0.930 . S
C861 C859 1.419 . S
C861 C862 1.362 . S
C862 H854 0.930 . S
C862 C861 1.362 . S
C862 C865 1.409 . S
C863 H855 0.930 . S
C863 C864 1.355 . S
C863 C865 1.415 . S
C864 C863 1.355 . S
C864 C866 1.419 . S
C865 C860 1.425 . S
C865 C862 1.409 . S
C865 C863 1.415 . S
C866 H856 0.930 . S
C866 C864 1.419 . S
C866 C867 1.362 . S
C867 H857 0.930 . S
C867 C860 1.409 . S
C867 C866 1.362 . S
H868 C874 0.930 . S
H869 C877 0.930 . S
H870 C878 0.930 . S
H871 C879 0.930 1_565 S
H872 C882 0.930 . S
H873 C883 0.930 . S
C874 H868 0.930 . S
C874 C875 1.355 . S
C874 C876 1.415 . S
C875 C874 1.355 . S
C875 C877 1.419 . S
C876 C874 1.415 . S
C876 C881 1.425 . S
C876 C883 1.409 . S
C877 H869 0.930 . S
C877 C875 1.419 . S
C877 C878 1.362 . S
C878 H870 0.930 . S
C878 C877 1.362 . S
C878 C881 1.409 . S
C879 H871 0.930 1_545 S
C879 C880 1.355 . S
C879 C881 1.415 . S
C880 C879 1.355 . S
C880 C882 1.419 . S
C881 C876 1.425 . S
C881 C878 1.409 . S
C881 C879 1.415 . S
C882 H872 0.930 . S
C882 C880 1.419 . S
C882 C883 1.362 . S
C883 H873 0.930 . S
C883 C876 1.409 . S
C883 C882 1.362 . S
H884 C890 0.930 . S
H885 C893 0.930 . S
H886 C894 0.930 . S
H887 C895 0.930 . S
H888 C898 0.930 . S
H889 C899 0.930 . S
C890 H884 0.930 . S
C890 C891 1.355 . S
C890 C892 1.415 . S
C891 C890 1.355 . S
C891 C893 1.419 . S
C892 C890 1.415 . S
C892 C897 1.425 . S
C892 C899 1.409 . S
C893 H885 0.930 . S
C893 C891 1.419 . S
C893 C894 1.362 . S
C894 H886 0.930 . S
C894 C893 1.362 . S
C894 C897 1.409 . S
C895 H887 0.930 . S
C895 C896 1.355 . S
C895 C897 1.415 . S
C896 C895 1.355 . S
C896 C898 1.419 . S
C897 C892 1.425 . S
C897 C894 1.409 . S
C897 C895 1.415 . S
C898 H888 0.930 . S
C898 C896 1.419 . S
C898 C899 1.362 . S
C899 H889 0.930 . S
C899 C892 1.409 . S
C899 C898 1.362 . S
H900 C906 0.930 . S
H901 C909 0.930 . S
H902 C910 0.930 . S
H903 C911 0.930 . S
H904 C914 0.930 . S
H905 C915 0.930 . S
C906 H900 0.930 . S
C906 C907 1.355 . S
C906 C908 1.415 . S
C907 C906 1.355 . S
C907 C909 1.419 . S
C908 C906 1.415 . S
C908 C913 1.425 . S
C908 C915 1.409 . S
C909 H901 0.930 . S
C909 C907 1.419 . S
C909 C910 1.362 . S
C910 H902 0.930 . S
C910 C909 1.362 . S
C910 C913 1.409 . S
C911 H903 0.930 . S
C911 C912 1.355 . S
C911 C913 1.415 . S
C912 C911 1.355 . S
C912 C914 1.419 . S
C913 C908 1.425 . S
C913 C910 1.409 . S
C913 C911 1.415 . S
C914 H904 0.930 . S
C914 C912 1.419 . S
C914 C915 1.362 . S
C915 H905 0.930 . S
C915 C908 1.409 . S
C915 C914 1.362 . S
H916 C922 0.930 . S
H917 C925 0.930 . S
H918 C926 0.930 . S
H919 C927 0.930 . S
H920 C930 0.930 . S
H921 C931 0.930 . S
C922 H916 0.930 . S
C922 C923 1.355 . S
C922 C924 1.415 . S
C923 C922 1.355 . S
C923 C925 1.419 . S
C924 C922 1.415 . S
C924 C929 1.425 . S
C924 C931 1.409 . S
C925 H917 0.930 . S
C925 C923 1.419 . S
C925 C926 1.362 . S
C926 H918 0.930 . S
C926 C925 1.362 . S
C926 C929 1.409 . S
C927 H919 0.930 . S
C927 C928 1.355 . S
C927 C929 1.415 . S
C928 C927 1.355 . S
C928 C930 1.419 . S
C929 C924 1.425 . S
C929 C926 1.409 . S
C929 C927 1.415 . S
C930 H920 0.930 . S
C930 C928 1.419 . S
C930 C931 1.362 . S
C931 H921 0.930 . S
C931 C924 1.409 . S
C931 C930 1.362 . S
H932 C938 0.930 . S
H933 C941 0.930 . S
H934 C942 0.930 . S
H935 C943 0.930 . S
H936 C946 0.930 1_565 S
H937 C947 0.930 . S
C938 H932 0.930 . S
C938 C939 1.355 . S
C938 C940 1.415 . S
C939 C938 1.355 . S
C939 C941 1.419 . S
C940 C938 1.415 . S
C940 C945 1.425 . S
C940 C947 1.409 . S
C941 H933 0.930 . S
C941 C939 1.419 . S
C941 C942 1.362 . S
C942 H934 0.930 . S
C942 C941 1.362 . S
C942 C945 1.409 . S
C943 H935 0.930 . S
C943 C944 1.355 . S
C943 C945 1.415 . S
C944 C943 1.355 . S
C944 C946 1.419 . S
C945 C940 1.425 . S
C945 C942 1.409 . S
C945 C943 1.415 . S
C946 H936 0.930 1_545 S
C946 C944 1.419 . S
C946 C947 1.362 . S
C947 H937 0.930 . S
C947 C940 1.409 . S
C947 C946 1.362 . S
H948 C954 0.930 . S
H949 C957 0.930 . S
H950 C958 0.930 . S
H951 C959 0.930 . S
H952 C962 0.930 . S
H953 C963 0.930 . S
C954 H948 0.930 . S
C954 C955 1.355 . S
C954 C956 1.415 . S
C955 C954 1.355 . S
C955 C957 1.419 . S
C956 C954 1.415 . S
C956 C961 1.425 . S
C956 C963 1.409 . S
C957 H949 0.930 . S
C957 C955 1.419 . S
C957 C958 1.362 . S
C958 H950 0.930 . S
C958 C957 1.362 . S
C958 C961 1.409 . S
C959 H951 0.930 . S
C959 C960 1.355 . S
C959 C961 1.415 . S
C960 C959 1.355 . S
C960 C962 1.419 . S
C961 C956 1.425 . S
C961 C958 1.409 . S
C961 C959 1.415 . S
C962 H952 0.930 . S
C962 C960 1.419 . S
C962 C963 1.362 . S
C963 H953 0.930 . S
C963 C956 1.409 . S
C963 C962 1.362 . S
H964 C970 0.930 . S
H965 C973 0.930 . S
H966 C974 0.930 . S
H967 C975 0.930 . S
H968 C978 0.930 . S
H969 C979 0.930 . S
C970 H964 0.930 . S
C970 C971 1.355 . S
C970 C972 1.415 . S
C971 C970 1.355 . S
C971 C973 1.419 . S
C972 C970 1.415 . S
C972 C977 1.425 . S
C972 C979 1.409 . S
C973 H965 0.930 . S
C973 C971 1.419 . S
C973 C974 1.362 . S
C974 H966 0.930 . S
C974 C973 1.362 . S
C974 C977 1.409 . S
C975 H967 0.930 . S
C975 C976 1.355 . S
C975 C977 1.415 . S
C976 C975 1.355 . S
C976 C978 1.419 . S
C977 C972 1.425 . S
C977 C974 1.409 . S
C977 C975 1.415 . S
C978 H968 0.930 . S
C978 C976 1.419 . S
C978 C979 1.362 . S
C979 H969 0.930 . S
C979 C972 1.409 . S
C979 C978 1.362 . S
H980 C986 0.930 . S
H981 C989 0.930 . S
H982 C990 0.930 . S
H983 C991 0.930 . S
H984 C994 0.930 . S
H985 C995 0.930 . S
C986 H980 0.930 . S
C986 C987 1.355 . S
C986 C988 1.415 . S
C987 C986 1.355 . S
C987 C989 1.419 . S
C988 C986 1.415 . S
C988 C993 1.425 . S
C988 C995 1.409 . S
C989 H981 0.930 . S
C989 C987 1.419 . S
C989 C990 1.362 . S
C990 H982 0.930 . S
C990 C989 1.362 . S
C990 C993 1.409 . S
C991 H983 0.930 . S
C991 C992 1.355 . S
C991 C993 1.415 . S
C992 C991 1.355 . S
C992 C994 1.419 . S
C993 C988 1.425 . S
C993 C990 1.409 . S
C993 C991 1.415 . S
C994 H984 0.930 . S
C994 C992 1.419 . S
C994 C995 1.362 . S
C995 H985 0.930 . S
C995 C988 1.409 . S
C995 C994 1.362 . S
H996 C1002 0.930 . S
H997 C1005 0.930 . S
H998 C1006 0.930 . S
H999 C1007 0.930 . S
H1000 C1010 0.930 . S
H1001 C1011 0.930 . S
C1002 H996 0.930 . S
C1002 C1003 1.355 . S
C1002 C1004 1.415 . S
C1003 C1002 1.355 . S
C1003 C1005 1.419 . S
C1004 C1002 1.415 . S
C1004 C1009 1.425 . S
C1004 C1011 1.409 . S
C1005 H997 0.930 . S
C1005 C1003 1.419 . S
C1005 C1006 1.362 . S
C1006 H998 0.930 . S
C1006 C1005 1.362 . S
C1006 C1009 1.409 . S
C1007 H999 0.930 . S
C1007 C1008 1.355 . S
C1007 C1009 1.415 . S
C1008 C1007 1.355 . S
C1008 C1010 1.419 . S
C1009 C1004 1.425 . S
C1009 C1006 1.409 . S
C1009 C1007 1.415 . S
C1010 H1000 0.930 . S
C1010 C1008 1.419 . S
C1010 C1011 1.362 . S
C1011 H1001 0.930 . S
C1011 C1004 1.409 . S
C1011 C1010 1.362 . S
H1012 C1018 0.930 . S
H1013 C1021 0.930 . S
H1014 C1022 0.930 . S
H1015 C1023 0.930 . S
H1016 C1026 0.930 . S
H1017 C1027 0.930 . S
C1018 H1012 0.930 . S
C1018 C1019 1.355 . S
C1018 C1020 1.415 . S
C1019 C1018 1.355 . S
C1019 C1021 1.419 . S
C1020 C1018 1.415 . S
C1020 C1025 1.425 . S
C1020 C1027 1.409 . S
C1021 H1013 0.930 . S
C1021 C1019 1.419 . S
C1021 C1022 1.362 . S
C1022 H1014 0.930 . S
C1022 C1021 1.362 . S
C1022 C1025 1.409 . S
C1023 H1015 0.930 . S
C1023 C1024 1.355 . S
C1023 C1025 1.415 . S
C1024 C1023 1.355 . S
C1024 C1026 1.419 . S
C1025 C1020 1.425 . S
C1025 C1022 1.409 . S
C1025 C1023 1.415 . S
C1026 H1016 0.930 . S
C1026 C1024 1.419 . S
C1026 C1027 1.362 . S
C1027 H1017 0.930 . S
C1027 C1020 1.409 . S
C1027 C1026 1.362 . S
H1028 C1034 0.930 . S
H1029 C1037 0.930 . S
H1030 C1038 0.930 . S
H1031 C1039 0.930 . S
H1032 C1042 0.930 . S
H1033 C1043 0.930 . S
C1034 H1028 0.930 . S
C1034 C1035 1.355 . S
C1034 C1036 1.415 . S
C1035 C1034 1.355 . S
C1035 C1037 1.419 . S
C1036 C1034 1.415 . S
C1036 C1041 1.425 . S
C1036 C1043 1.409 . S
C1037 H1029 0.930 . S
C1037 C1035 1.419 . S
C1037 C1038 1.362 . S
C1038 H1030 0.930 . S
C1038 C1037 1.362 . S
C1038 C1041 1.409 . S
C1039 H1031 0.930 . S
C1039 C1040 1.355 . S
C1039 C1041 1.415 . S
C1040 C1039 1.355 . S
C1040 C1042 1.419 . S
C1041 C1036 1.425 . S
C1041 C1038 1.409 . S
C1041 C1039 1.415 . S
C1042 H1032 0.930 . S
C1042 C1040 1.419 . S
C1042 C1043 1.362 . S
C1043 H1033 0.930 . S
C1043 C1036 1.409 . S
C1043 C1042 1.362 . S
H1044 C1050 0.930 . S
H1045 C1053 0.930 . S
H1046 C1054 0.930 . S
H1047 C1055 0.930 . S
H1048 C1058 0.930 . S
H1049 C1059 0.930 . S
C1050 H1044 0.930 . S
C1050 C1051 1.355 . S
C1050 C1052 1.415 . S
C1051 C1050 1.355 . S
C1051 C1053 1.419 . S
C1052 C1050 1.415 . S
C1052 C1057 1.425 . S
C1052 C1059 1.409 . S
C1053 H1045 0.930 . S
C1053 C1051 1.419 . S
C1053 C1054 1.362 . S
C1054 H1046 0.930 . S
C1054 C1053 1.362 . S
C1054 C1057 1.409 . S
C1055 H1047 0.930 . S
C1055 C1056 1.383 . S
C1055 C1057 1.415 . S
C1056 C1055 1.383 . S
C1056 C1058 1.415 1_655 S
C1057 C1052 1.425 . S
C1057 C1054 1.409 . S
C1057 C1055 1.415 . S
C1058 H1048 0.930 . S
C1058 C1056 1.415 1_455 S
C1058 C1059 1.362 1_455 S
C1059 H1049 0.930 . S
C1059 C1052 1.409 . S
C1059 C1058 1.362 1_655 S
H1060 C1066 0.930 . S
H1061 C1069 0.930 . S
H1062 C1070 0.930 . S
H1063 C1071 0.930 . S
H1064 C1074 0.930 . S
H1065 C1075 0.930 . S
C1066 H1060 0.930 . S
C1066 C1067 1.355 . S
C1066 C1068 1.415 . S
C1067 C1066 1.355 . S
C1067 C1069 1.419 . S
C1068 C1066 1.415 . S
C1068 C1073 1.425 . S
C1068 C1075 1.409 . S
C1069 H1061 0.930 . S
C1069 C1067 1.419 . S
C1069 C1070 1.362 . S
C1070 H1062 0.930 . S
C1070 C1069 1.362 . S
C1070 C1073 1.409 . S
C1071 H1063 0.930 . S
C1071 C1072 1.355 . S
C1071 C1073 1.415 . S
C1072 C1071 1.355 . S
C1072 C1074 1.419 . S
C1073 C1068 1.425 . S
C1073 C1070 1.409 . S
C1073 C1071 1.415 . S
C1074 H1064 0.930 . S
C1074 C1072 1.419 . S
C1074 C1075 1.362 . S
C1075 H1065 0.930 . S
C1075 C1068 1.409 . S
C1075 C1074 1.362 . S
H1076 C1082 0.930 . S
H1077 C1085 0.930 . S
H1078 C1086 0.930 . S
H1079 C1087 0.930 . S
H1080 C1090 0.930 . S
H1081 C1091 0.930 . S
C1082 H1076 0.930 . S
C1082 C1083 1.355 . S
C1082 C1084 1.415 . S
C1083 C1082 1.355 . S
C1083 C1085 1.419 . S
C1084 C1082 1.415 . S
C1084 C1089 1.425 . S
C1084 C1091 1.409 . S
C1085 H1077 0.930 . S
C1085 C1083 1.419 . S
C1085 C1086 1.362 . S
C1086 H1078 0.930 . S
C1086 C1085 1.362 . S
C1086 C1089 1.409 . S
C1087 H1079 0.930 . S
C1087 C1088 1.355 . S
C1087 C1089 1.415 . S
C1088 C1087 1.355 . S
C1088 C1090 1.419 . S
C1089 C1084 1.425 . S
C1089 C1086 1.409 . S
C1089 C1087 1.415 . S
C1090 H1080 0.930 . S
C1090 C1088 1.419 . S
C1090 C1091 1.362 . S
C1091 H1081 0.930 . S
C1091 C1084 1.409 . S
C1091 C1090 1.362 . S
H1092 C1098 0.930 . S
H1093 C1101 0.930 . S
H1094 C1102 0.930 . S
H1095 C1103 0.930 . S
H1096 C1106 0.930 . S
H1097 C1107 0.930 . S
C1098 H1092 0.930 . S
C1098 C1099 1.355 . S
C1098 C1100 1.415 . S
C1099 C1098 1.355 . S
C1099 C1101 1.419 . S
C1100 C1098 1.415 . S
C1100 C1105 1.425 . S
C1100 C1107 1.409 . S
C1101 H1093 0.930 . S
C1101 C1099 1.419 . S
C1101 C1102 1.362 . S
C1102 H1094 0.930 . S
C1102 C1101 1.362 . S
C1102 C1105 1.409 . S
C1103 H1095 0.930 . S
C1103 C1104 1.355 . S
C1103 C1105 1.415 . S
C1104 C1103 1.355 . S
C1104 C1106 1.419 . S
C1105 C1100 1.425 . S
C1105 C1102 1.409 . S
C1105 C1103 1.415 . S
C1106 H1096 0.930 . S
C1106 C1104 1.419 . S
C1106 C1107 1.362 . S
C1107 H1097 0.930 . S
C1107 C1100 1.409 . S
C1107 C1106 1.362 . S
H1108 C1114 0.930 . S
H1109 C1117 0.930 . S
H1110 C1118 0.930 . S
H1111 C1119 0.930 . S
H1112 C1122 0.930 . S
H1113 C1123 0.930 . S
C1114 H1108 0.930 . S
C1114 C1115 1.355 . S
C1114 C1116 1.415 . S
C1115 C1114 1.355 . S
C1115 C1117 1.419 . S
C1116 C1114 1.415 . S
C1116 C1121 1.425 . S
C1116 C1123 1.409 . S
C1117 H1109 0.930 . S
C1117 C1115 1.419 . S
C1117 C1118 1.362 . S
C1118 H1110 0.930 . S
C1118 C1117 1.362 . S
C1118 C1121 1.409 . S
C1119 H1111 0.930 . S
C1119 C1120 1.355 . S
C1119 C1121 1.415 . S
C1120 C1119 1.355 . S
C1120 C1122 1.419 . S
C1121 C1116 1.425 . S
C1121 C1118 1.409 . S
C1121 C1119 1.415 . S
C1122 H1112 0.930 . S
C1122 C1120 1.419 . S
C1122 C1123 1.362 . S
C1123 H1113 0.930 . S
C1123 C1116 1.409 . S
C1123 C1122 1.362 . S
H1124 C1130 0.930 . S
H1125 C1133 0.930 . S
H1126 C1134 0.930 . S
H1127 C1135 0.930 . S
H1128 C1138 0.930 1_556 S
H1129 C1139 0.930 . S
C1130 H1124 0.930 . S
C1130 C1131 1.355 . S
C1130 C1132 1.415 . S
C1131 C1130 1.355 . S
C1131 C1133 1.419 . S
C1132 C1130 1.415 . S
C1132 C1137 1.425 . S
C1132 C1139 1.409 . S
C1133 H1125 0.930 . S
C1133 C1131 1.419 . S
C1133 C1134 1.362 . S
C1134 H1126 0.930 . S
C1134 C1133 1.362 . S
C1134 C1137 1.409 . S
C1135 H1127 0.930 . S
C1135 C1136 1.355 . S
C1135 C1137 1.415 . S
C1136 C1135 1.355 . S
C1136 C1138 1.419 . S
C1137 C1132 1.425 . S
C1137 C1134 1.409 . S
C1137 C1135 1.415 . S
C1138 H1128 0.930 1_554 S
C1138 C1136 1.419 . S
C1138 C1139 1.362 . S
C1139 H1129 0.930 . S
C1139 C1132 1.409 . S
C1139 C1138 1.362 . S
H1140 C1146 0.930 . S
H1141 C1149 0.930 . S
H1142 C1150 0.930 . S
H1143 C1151 0.930 . S
H1144 C1154 0.930 . S
H1145 C1155 0.930 . S
C1146 H1140 0.930 . S
C1146 C1147 1.355 . S
C1146 C1148 1.415 . S
C1147 C1146 1.355 . S
C1147 C1149 1.419 . S
C1148 C1146 1.415 . S
C1148 C1153 1.425 . S
C1148 C1155 1.409 . S
C1149 H1141 0.930 . S
C1149 C1147 1.419 . S
C1149 C1150 1.362 . S
C1150 H1142 0.930 . S
C1150 C1149 1.362 . S
C1150 C1153 1.409 . S
C1151 H1143 0.930 . S
C1151 C1152 1.355 . S
C1151 C1153 1.415 . S
C1152 C1151 1.355 . S
C1152 C1154 1.419 . S
C1153 C1148 1.425 . S
C1153 C1150 1.409 . S
C1153 C1151 1.415 . S
C1154 H1144 0.930 . S
C1154 C1152 1.419 . S
C1154 C1155 1.362 . S
C1155 H1145 0.930 . S
C1155 C1148 1.409 . S
C1155 C1154 1.362 . S
H1156 C1162 0.930 . S
H1157 C1165 0.930 . S
H1158 C1166 0.930 . S
H1159 C1167 0.930 1_556 S
H1160 C1170 0.930 . S
H1161 C1171 0.930 . S
C1162 H1156 0.930 . S
C1162 C1163 1.355 . S
C1162 C1164 1.415 . S
C1163 C1162 1.355 . S
C1163 C1165 1.419 . S
C1164 C1162 1.415 . S
C1164 C1169 1.425 . S
C1164 C1171 1.409 . S
C1165 H1157 0.930 . S
C1165 C1163 1.419 . S
C1165 C1166 1.362 . S
C1166 H1158 0.930 . S
C1166 C1165 1.362 . S
C1166 C1169 1.409 . S
C1167 H1159 0.930 1_554 S
C1167 C1168 1.355 . S
C1167 C1169 1.415 . S
C1168 C1167 1.355 . S
C1168 C1170 1.419 . S
C1169 C1164 1.425 . S
C1169 C1166 1.409 . S
C1169 C1167 1.415 . S
C1170 H1160 0.930 . S
C1170 C1168 1.419 . S
C1170 C1171 1.362 . S
C1171 H1161 0.930 . S
C1171 C1164 1.409 . S
C1171 C1170 1.362 . S
H1172 C1178 0.930 . S
H1173 C1181 0.930 . S
H1174 C1182 0.930 . S
H1175 C1183 0.930 . S
H1176 C1186 0.930 . S
H1177 C1187 0.930 . S
C1178 H1172 0.930 . S
C1178 C1179 1.355 . S
C1178 C1180 1.415 . S
C1179 C1178 1.355 . S
C1179 C1181 1.419 . S
C1180 C1178 1.415 . S
C1180 C1185 1.425 . S
C1180 C1187 1.409 . S
C1181 H1173 0.930 . S
C1181 C1179 1.419 . S
C1181 C1182 1.362 . S
C1182 H1174 0.930 . S
C1182 C1181 1.362 . S
C1182 C1185 1.409 . S
C1183 H1175 0.930 . S
C1183 C1184 1.355 . S
C1183 C1185 1.415 . S
C1184 C1183 1.355 . S
C1184 C1186 1.419 . S
C1185 C1180 1.425 . S
C1185 C1182 1.409 . S
C1185 C1183 1.415 . S
C1186 H1176 0.930 . S
C1186 C1184 1.419 . S
C1186 C1187 1.362 . S
C1187 H1177 0.930 . S
C1187 C1180 1.409 . S
C1187 C1186 1.362 . S
H1188 C1194 0.930 . S
H1189 C1197 0.930 . S
H1190 C1198 0.930 . S
H1191 C1199 0.930 1_554 S
H1192 C1202 0.930 . S
H1193 C1203 0.930 . S
C1194 H1188 0.930 . S
C1194 C1195 1.355 . S
C1194 C1196 1.415 . S
C1195 C1194 1.355 . S
C1195 C1197 1.419 . S
C1196 C1194 1.415 . S
C1196 C1201 1.425 . S
C1196 C1203 1.409 . S
C1197 H1189 0.930 . S
C1197 C1195 1.419 . S
C1197 C1198 1.362 . S
C1198 H1190 0.930 . S
C1198 C1197 1.362 . S
C1198 C1201 1.409 . S
C1199 H1191 0.930 1_556 S
C1199 C1200 1.355 . S
C1199 C1201 1.415 . S
C1200 C1199 1.355 . S
C1200 C1202 1.419 . S
C1201 C1196 1.425 . S
C1201 C1198 1.409 . S
C1201 C1199 1.415 . S
C1202 H1192 0.930 . S
C1202 C1200 1.419 . S
C1202 C1203 1.362 . S
C1203 H1193 0.930 . S
C1203 C1196 1.409 . S
C1203 C1202 1.362 . S
H1204 C1210 0.930 . S
H1205 C1213 0.930 . S
H1206 C1214 0.930 . S
H1207 C1215 0.930 . S
H1208 C1218 0.930 . S
H1209 C1219 0.930 . S
C1210 H1204 0.930 . S
C1210 C1211 1.355 . S
C1210 C1212 1.415 . S
C1211 C1210 1.355 . S
C1211 C1213 1.419 . S
C1212 C1210 1.415 . S
C1212 C1217 1.425 . S
C1212 C1219 1.409 . S
C1213 H1205 0.930 . S
C1213 C1211 1.419 . S
C1213 C1214 1.362 . S
C1214 H1206 0.930 . S
C1214 C1213 1.362 . S
C1214 C1217 1.409 . S
C1215 H1207 0.930 . S
C1215 C1216 1.355 . S
C1215 C1217 1.415 . S
C1216 C1215 1.355 . S
C1216 C1218 1.419 . S
C1217 C1212 1.425 . S
C1217 C1214 1.409 . S
C1217 C1215 1.415 . S
C1218 H1208 0.930 . S
C1218 C1216 1.419 . S
C1218 C1219 1.362 . S
C1219 H1209 0.930 . S
C1219 C1212 1.409 . S
C1219 C1218 1.362 . S
H1220 C1226 0.930 . S
H1221 C1229 0.930 . S
H1222 C1230 0.930 . S
H1223 C1231 0.931 . S
H1224 C1234 0.930 . S
H1225 C1235 0.930 . S
C1226 H1220 0.930 . S
C1226 C1227 1.355 . S
C1226 C1228 1.415 . S
C1227 C1226 1.355 . S
C1227 C1229 1.419 . S
C1228 C1226 1.415 . S
C1228 C1233 1.425 . S
C1228 C1235 1.409 . S
C1229 H1221 0.930 . S
C1229 C1227 1.419 . S
C1229 C1230 1.362 . S
C1230 H1222 0.930 . S
C1230 C1229 1.362 . S
C1230 C1233 1.409 . S
C1231 H1223 0.931 . S
C1231 C1232 1.355 . S
C1231 C1233 1.415 . S
C1232 C1231 1.355 . S
C1232 C1234 1.419 . S
C1233 C1228 1.425 . S
C1233 C1230 1.409 . S
C1233 C1231 1.415 . S
C1234 H1224 0.930 . S
C1234 C1232 1.419 . S
C1234 C1235 1.362 . S
C1235 H1225 0.930 . S
C1235 C1228 1.409 . S
C1235 C1234 1.362 . S
H1236 C1242 0.930 . S
H1237 C1245 0.930 . S
H1238 C1246 0.930 . S
H1239 C1247 0.930 . S
H1240 C1250 0.930 . S
H1241 C1251 0.930 . S
C1242 H1236 0.930 . S
C1242 C1243 1.355 . S
C1242 C1244 1.415 . S
C1243 C1242 1.355 . S
C1243 C1245 1.419 . S
C1244 C1242 1.415 . S
C1244 C1249 1.425 . S
C1244 C1251 1.409 . S
C1245 H1237 0.930 . S
C1245 C1243 1.419 . S
C1245 C1246 1.362 . S
C1246 H1238 0.930 . S
C1246 C1245 1.362 . S
C1246 C1249 1.409 . S
C1247 H1239 0.930 . S
C1247 C1248 1.355 . S
C1247 C1249 1.415 . S
C1248 C1247 1.355 . S
C1248 C1250 1.419 . S
C1249 C1244 1.425 . S
C1249 C1246 1.409 . S
C1249 C1247 1.415 . S
C1250 H1240 0.930 . S
C1250 C1248 1.419 . S
C1250 C1251 1.362 . S
C1251 H1241 0.930 . S
C1251 C1244 1.409 . S
C1251 C1250 1.362 . S
H1252 C1258 0.930 . S
H1253 C1261 0.930 . S
H1254 C1262 0.930 . S
H1255 C1263 0.930 . S
H1256 C1266 0.930 . S
H1257 C1267 0.930 . S
C1258 H1252 0.930 . S
C1258 C1259 1.355 . S
C1258 C1260 1.415 . S
C1259 C1258 1.355 . S
C1259 C1261 1.419 . S
C1260 C1258 1.415 . S
C1260 C1265 1.425 . S
C1260 C1267 1.409 . S
C1261 H1253 0.930 . S
C1261 C1259 1.419 . S
C1261 C1262 1.362 . S
C1262 H1254 0.930 . S
C1262 C1261 1.362 . S
C1262 C1265 1.409 . S
C1263 H1255 0.930 . S
C1263 C1264 1.355 . S
C1263 C1265 1.415 . S
C1264 C1263 1.355 . S
C1264 C1266 1.419 . S
C1265 C1260 1.425 . S
C1265 C1262 1.409 . S
C1265 C1263 1.415 . S
C1266 H1256 0.930 . S
C1266 C1264 1.419 . S
C1266 C1267 1.362 . S
C1267 H1257 0.930 . S
C1267 C1260 1.409 . S
C1267 C1266 1.362 . S
H1268 C1274 0.930 . S
H1269 C1277 0.930 . S
H1270 C1278 0.930 . S
H1271 C1279 0.930 . S
H1272 C1282 0.930 . S
H1273 C1283 0.930 . S
C1274 H1268 0.930 . S
C1274 C1275 1.355 . S
C1274 C1276 1.415 . S
C1275 C1274 1.355 . S
C1275 C1277 1.419 . S
C1276 C1274 1.415 . S
C1276 C1281 1.425 . S
C1276 C1283 1.409 . S
C1277 H1269 0.930 . S
C1277 C1275 1.419 . S
C1277 C1278 1.362 . S
C1278 H1270 0.930 . S
C1278 C1277 1.362 . S
C1278 C1281 1.409 . S
C1279 H1271 0.930 . S
C1279 C1280 1.355 . S
C1279 C1281 1.415 . S
C1280 C1279 1.355 . S
C1280 C1282 1.419 . S
C1281 C1276 1.425 . S
C1281 C1278 1.409 . S
C1281 C1279 1.415 . S
C1282 H1272 0.930 . S
C1282 C1280 1.419 . S
C1282 C1283 1.362 . S
C1283 H1273 0.930 . S
C1283 C1276 1.409 . S
C1283 C1282 1.362 . S
H1284 C1290 0.930 . S
H1285 C1293 0.930 . S
H1286 C1294 0.930 . S
H1287 C1295 0.930 . S
H1288 C1298 0.930 1_545 S
H1289 C1299 0.930 . S
C1290 H1284 0.930 . S
C1290 C1291 1.355 . S
C1290 C1292 1.415 . S
C1291 C1290 1.355 . S
C1291 C1293 1.419 . S
C1292 C1290 1.415 . S
C1292 C1297 1.425 . S
C1292 C1299 1.409 . S
C1293 H1285 0.930 . S
C1293 C1291 1.419 . S
C1293 C1294 1.362 . S
C1294 H1286 0.930 . S
C1294 C1293 1.362 . S
C1294 C1297 1.409 . S
C1295 H1287 0.930 . S
C1295 C1296 1.355 . S
C1295 C1297 1.415 . S
C1296 C1295 1.355 . S
C1296 C1298 1.419 . S
C1297 C1292 1.425 . S
C1297 C1294 1.409 . S
C1297 C1295 1.415 . S
C1298 H1288 0.930 1_565 S
C1298 C1296 1.419 . S
C1298 C1299 1.362 . S
C1299 H1289 0.930 . S
C1299 C1292 1.409 . S
C1299 C1298 1.362 . S
H1300 C1306 0.930 . S
H1301 C1309 0.930 . S
H1302 C1310 0.930 . S
H1303 C1311 0.930 . S
H1304 C1314 0.930 . S
H1305 C1315 0.930 . S
C1306 H1300 0.930 . S
C1306 C1307 1.355 . S
C1306 C1308 1.415 . S
C1307 C1306 1.355 . S
C1307 C1309 1.419 . S
C1308 C1306 1.415 . S
C1308 C1313 1.425 . S
C1308 C1315 1.409 . S
C1309 H1301 0.930 . S
C1309 C1307 1.419 . S
C1309 C1310 1.362 . S
C1310 H1302 0.930 . S
C1310 C1309 1.362 . S
C1310 C1313 1.409 . S
C1311 H1303 0.930 . S
C1311 C1312 1.355 . S
C1311 C1313 1.415 . S
C1312 C1311 1.355 . S
C1312 C1314 1.419 . S
C1313 C1308 1.425 . S
C1313 C1310 1.409 . S
C1313 C1311 1.415 . S
C1314 H1304 0.930 . S
C1314 C1312 1.419 . S
C1314 C1315 1.362 . S
C1315 H1305 0.930 . S
C1315 C1308 1.409 . S
C1315 C1314 1.362 . S
H1316 C1322 0.930 . S
H1317 C1325 0.930 . S
H1318 C1326 0.930 . S
H1319 C1327 0.930 . S
H1320 C1330 0.930 . S
H1321 C1331 0.930 . S
C1322 H1316 0.930 . S
C1322 C1323 1.355 . S
C1322 C1324 1.415 . S
C1323 C1322 1.355 . S
C1323 C1325 1.419 . S
C1324 C1322 1.415 . S
C1324 C1329 1.425 . S
C1324 C1331 1.409 . S
C1325 H1317 0.930 . S
C1325 C1323 1.419 . S
C1325 C1326 1.362 . S
C1326 H1318 0.930 . S
C1326 C1325 1.362 . S
C1326 C1329 1.409 . S
C1327 H1319 0.930 . S
C1327 C1328 1.355 . S
C1327 C1329 1.415 . S
C1328 C1327 1.355 . S
C1328 C1330 1.419 . S
C1329 C1324 1.425 . S
C1329 C1326 1.409 . S
C1329 C1327 1.415 . S
C1330 H1320 0.930 . S
C1330 C1328 1.419 . S
C1330 C1331 1.362 . S
C1331 H1321 0.930 . S
C1331 C1324 1.409 . S
C1331 C1330 1.362 . S
H1332 C1338 0.930 . S
H1333 C1341 0.930 . S
H1334 C1342 0.930 . S
H1335 C1343 0.930 . S
H1336 C1346 0.930 . S
H1337 C1347 0.930 . S
C1338 H1332 0.930 . S
C1338 C1339 1.355 . S
C1338 C1340 1.415 . S
C1339 C1338 1.355 . S
C1339 C1341 1.419 . S
C1340 C1338 1.415 . S
C1340 C1345 1.425 . S
C1340 C1347 1.409 . S
C1341 H1333 0.930 . S
C1341 C1339 1.419 . S
C1341 C1342 1.362 . S
C1342 H1334 0.930 . S
C1342 C1341 1.362 . S
C1342 C1345 1.409 . S
C1343 H1335 0.930 . S
C1343 C1344 1.355 . S
C1343 C1345 1.415 . S
C1344 C1343 1.355 . S
C1344 C1346 1.419 . S
C1345 C1340 1.425 . S
C1345 C1342 1.409 . S
C1345 C1343 1.415 . S
C1346 H1336 0.930 . S
C1346 C1344 1.419 . S
C1346 C1347 1.362 . S
C1347 H1337 0.930 . S
C1347 C1340 1.409 . S
C1347 C1346 1.362 . S
H1348 C1354 0.930 . S
H1349 C1357 0.930 . S
H1350 C1358 0.930 . S
H1351 C1359 0.930 . S
H1352 C1362 0.908 1_545 S
H1353 C1363 0.930 . S
C1354 H1348 0.930 . S
C1354 C1355 1.355 . S
C1354 C1356 1.415 . S
C1355 C1354 1.355 . S
C1355 C1357 1.419 . S
C1356 C1354 1.415 . S
C1356 C1361 1.425 . S
C1356 C1363 1.409 . S
C1357 H1349 0.930 . S
C1357 C1355 1.419 . S
C1357 C1358 1.362 . S
C1358 H1350 0.930 . S
C1358 C1357 1.362 . S
C1358 C1361 1.409 . S
C1359 H1351 0.930 . S
C1359 C1360 1.355 . S
C1359 C1361 1.415 . S
C1360 C1359 1.355 . S
C1360 C1362 1.420 . S
C1361 C1356 1.425 . S
C1361 C1358 1.409 . S
C1361 C1359 1.415 . S
C1362 H1352 0.908 1_565 S
C1362 C1360 1.420 . S
C1362 C1363 1.384 . S
C1363 H1353 0.930 . S
C1363 C1356 1.409 . S
C1363 C1362 1.384 . S
H1364 C1370 0.930 . S
H1365 C1373 0.930 . S
H1366 C1374 0.930 . S
H1367 C1375 0.930 . S
H1368 C1378 0.930 . S
H1369 C1379 0.930 . S
C1370 H1364 0.930 . S
C1370 C1371 1.355 . S
C1370 C1372 1.415 . S
C1371 C1370 1.355 . S
C1371 C1373 1.419 . S
C1372 C1370 1.415 . S
C1372 C1377 1.425 . S
C1372 C1379 1.409 . S
C1373 H1365 0.930 . S
C1373 C1371 1.419 . S
C1373 C1374 1.362 . S
C1374 H1366 0.930 . S
C1374 C1373 1.362 . S
C1374 C1377 1.409 . S
C1375 H1367 0.930 . S
C1375 C1376 1.355 . S
C1375 C1377 1.415 . S
C1376 C1375 1.355 . S
C1376 C1378 1.419 . S
C1377 C1372 1.425 . S
C1377 C1374 1.409 . S
C1377 C1375 1.415 . S
C1378 H1368 0.930 . S
C1378 C1376 1.419 . S
C1378 C1379 1.362 . S
C1379 H1369 0.930 . S
C1379 C1372 1.409 . S
C1379 C1378 1.362 . S
H1380 C1386 0.930 . S
H1381 C1389 0.930 . S
H1382 C1390 0.930 . S
H1383 C1391 0.930 . S
H1384 C1394 0.930 . S
H1385 C1395 0.930 . S
C1386 H1380 0.930 . S
C1386 C1387 1.355 . S
C1386 C1388 1.415 . S
C1387 C1386 1.355 . S
C1387 C1389 1.419 . S
C1388 C1386 1.415 . S
C1388 C1393 1.425 . S
C1388 C1395 1.409 . S
C1389 H1381 0.930 . S
C1389 C1387 1.419 . S
C1389 C1390 1.362 . S
C1390 H1382 0.930 . S
C1390 C1389 1.362 . S
C1390 C1393 1.409 . S
C1391 H1383 0.930 . S
C1391 C1392 1.355 . S
C1391 C1393 1.415 . S
C1392 C1391 1.355 . S
C1392 C1394 1.419 . S
C1393 C1388 1.425 . S
C1393 C1390 1.409 . S
C1393 C1391 1.415 . S
C1394 H1384 0.930 . S
C1394 C1392 1.419 . S
C1394 C1395 1.362 . S
C1395 H1385 0.930 . S
C1395 C1388 1.409 . S
C1395 C1394 1.362 . S
H1396 C1402 0.930 . S
H1397 C1405 0.930 . S
H1398 C1406 0.930 . S
H1399 C1407 0.930 1_655 S
H1400 C1410 0.930 . S
H1401 C1411 0.930 . S
C1402 H1396 0.930 . S
C1402 C1403 1.355 . S
C1402 C1404 1.415 . S
C1403 C1402 1.355 . S
C1403 C1405 1.419 . S
C1404 C1402 1.415 . S
C1404 C1409 1.425 . S
C1404 C1411 1.409 . S
C1405 H1397 0.930 . S
C1405 C1403 1.419 . S
C1405 C1406 1.362 . S
C1406 H1398 0.930 . S
C1406 C1405 1.362 . S
C1406 C1409 1.409 . S
C1407 H1399 0.930 1_455 S
C1407 C1408 1.355 . S
C1407 C1409 1.415 . S
C1408 C1407 1.355 . S
C1408 C1410 1.419 . S
C1409 C1404 1.425 . S
C1409 C1406 1.409 . S
C1409 C1407 1.415 . S
C1410 H1400 0.930 . S
C1410 C1408 1.419 . S
C1410 C1411 1.362 . S
C1411 H1401 0.930 . S
C1411 C1404 1.409 . S
C1411 C1410 1.362 . S
H1412 C1418 0.930 . S
H1413 C1421 0.930 . S
H1414 C1422 0.930 . S
H1415 C1423 0.930 . S
H1416 C1426 0.930 . S
H1417 C1427 0.930 . S
C1418 H1412 0.930 . S
C1418 C1419 1.355 . S
C1418 C1420 1.415 . S
C1419 C1418 1.355 . S
C1419 C1421 1.419 . S
C1420 C1418 1.415 . S
C1420 C1425 1.425 . S
C1420 C1427 1.409 . S
C1421 H1413 0.930 . S
C1421 C1419 1.419 . S
C1421 C1422 1.362 . S
C1422 H1414 0.930 . S
C1422 C1421 1.362 . S
C1422 C1425 1.409 . S
C1423 H1415 0.930 . S
C1423 C1424 1.355 . S
C1423 C1425 1.415 . S
C1424 C1423 1.355 . S
C1424 C1426 1.419 . S
C1425 C1420 1.425 . S
C1425 C1422 1.409 . S
C1425 C1423 1.415 . S
C1426 H1416 0.930 . S
C1426 C1424 1.419 . S
C1426 C1427 1.362 . S
C1427 H1417 0.930 . S
C1427 C1420 1.409 . S
C1427 C1426 1.362 . S
H1428 C1434 0.930 . S
H1429 C1437 0.930 . S
H1430 C1438 0.930 . S
H1431 C1439 0.930 . S
H1432 C1442 0.930 . S
H1433 C1443 0.930 . S
C1434 H1428 0.930 . S
C1434 C1435 1.355 . S
C1434 C1436 1.415 . S
C1435 C1434 1.355 . S
C1435 C1437 1.419 . S
C1436 C1434 1.415 . S
C1436 C1441 1.425 . S
C1436 C1443 1.409 . S
C1437 H1429 0.930 . S
C1437 C1435 1.419 . S
C1437 C1438 1.362 . S
C1438 H1430 0.930 . S
C1438 C1437 1.362 . S
C1438 C1441 1.409 . S
C1439 H1431 0.930 . S
C1439 C1440 1.355 . S
C1439 C1441 1.415 . S
C1440 C1439 1.355 . S
C1440 C1442 1.419 . S
C1441 C1436 1.425 . S
C1441 C1438 1.409 . S
C1441 C1439 1.415 . S
C1442 H1432 0.930 . S
C1442 C1440 1.419 . S
C1442 C1443 1.362 . S
C1443 H1433 0.930 . S
C1443 C1436 1.409 . S
C1443 C1442 1.362 . S
H1444 C1450 0.930 . S
H1445 C1453 0.930 . S
H1446 C1454 0.930 . S
H1447 C1455 0.930 . S
H1448 C1458 0.930 . S
H1449 C1459 0.930 . S
C1450 H1444 0.930 . S
C1450 C1451 1.355 . S
C1450 C1452 1.415 . S
C1451 C1450 1.355 . S
C1451 C1453 1.419 . S
C1452 C1450 1.415 . S
C1452 C1457 1.425 . S
C1452 C1459 1.409 . S
C1453 H1445 0.930 . S
C1453 C1451 1.419 . S
C1453 C1454 1.362 . S
C1454 H1446 0.930 . S
C1454 C1453 1.362 . S
C1454 C1457 1.409 . S
C1455 H1447 0.930 . S
C1455 C1456 1.355 . S
C1455 C1457 1.415 . S
C1456 C1455 1.355 . S
C1456 C1458 1.419 . S
C1457 C1452 1.425 . S
C1457 C1454 1.409 . S
C1457 C1455 1.415 . S
C1458 H1448 0.930 . S
C1458 C1456 1.419 . S
C1458 C1459 1.362 . S
C1459 H1449 0.930 . S
C1459 C1452 1.409 . S
C1459 C1458 1.362 . S
H1460 C1466 0.930 . S
H1461 C1469 0.930 . S
H1462 C1470 0.930 . S
H1463 C1471 0.930 . S
H1464 C1474 0.930 . S
H1465 C1475 0.930 . S
C1466 H1460 0.930 . S
C1466 C1467 1.355 . S
C1466 C1468 1.415 . S
C1467 C1466 1.355 . S
C1467 C1469 1.419 . S
C1468 C1466 1.415 . S
C1468 C1473 1.425 . S
C1468 C1475 1.409 . S
C1469 H1461 0.930 . S
C1469 C1467 1.419 . S
C1469 C1470 1.362 . S
C1470 H1462 0.930 . S
C1470 C1469 1.362 . S
C1470 C1473 1.409 . S
C1471 H1463 0.930 . S
C1471 C1472 1.355 . S
C1471 C1473 1.415 . S
C1472 C1471 1.355 . S
C1472 C1474 1.419 . S
C1473 C1468 1.425 . S
C1473 C1470 1.409 . S
C1473 C1471 1.415 . S
C1474 H1464 0.930 . S
C1474 C1472 1.419 . S
C1474 C1475 1.362 . S
C1475 H1465 0.930 . S
C1475 C1468 1.409 . S
C1475 C1474 1.362 . S
H1476 C1482 0.930 . S
H1477 C1485 0.930 . S
H1478 C1486 0.930 . S
H1479 C1487 0.930 . S
H1480 C1490 0.930 . S
H1481 C1491 0.930 . S
C1482 H1476 0.930 . S
C1482 C1483 1.355 . S
C1482 C1484 1.415 . S
C1483 C1482 1.355 . S
C1483 C1485 1.419 . S
C1484 C1482 1.415 . S
C1484 C1489 1.425 . S
C1484 C1491 1.409 . S
C1485 H1477 0.930 . S
C1485 C1483 1.419 . S
C1485 C1486 1.362 . S
C1486 H1478 0.930 . S
C1486 C1485 1.362 . S
C1486 C1489 1.409 . S
C1487 H1479 0.930 . S
C1487 C1488 1.355 . S
C1487 C1489 1.415 . S
C1488 C1487 1.355 . S
C1488 C1490 1.419 . S
C1489 C1484 1.425 . S
C1489 C1486 1.409 . S
C1489 C1487 1.415 . S
C1490 H1480 0.930 . S
C1490 C1488 1.419 . S
C1490 C1491 1.362 . S
C1491 H1481 0.930 . S
C1491 C1484 1.409 . S
C1491 C1490 1.362 . S
H1492 C1498 0.930 . S
H1493 C1501 0.930 . S
H1494 C1502 0.930 . S
H1495 C1503 0.930 . S
H1496 C1506 0.930 . S
H1497 C1507 0.930 . S
C1498 H1492 0.930 . S
C1498 C1499 1.355 . S
C1498 C1500 1.415 . S
C1499 C1498 1.355 . S
C1499 C1501 1.419 . S
C1500 C1498 1.415 . S
C1500 C1505 1.425 . S
C1500 C1507 1.409 . S
C1501 H1493 0.930 . S
C1501 C1499 1.419 . S
C1501 C1502 1.362 . S
C1502 H1494 0.930 . S
C1502 C1501 1.362 . S
C1502 C1505 1.409 . S
C1503 H1495 0.930 . S
C1503 C1504 1.355 . S
C1503 C1505 1.415 . S
C1504 C1503 1.355 . S
C1504 C1506 1.419 . S
C1505 C1500 1.425 . S
C1505 C1502 1.409 . S
C1505 C1503 1.415 . S
C1506 H1496 0.930 . S
C1506 C1504 1.419 . S
C1506 C1507 1.362 . S
C1507 H1497 0.930 . S
C1507 C1500 1.409 . S
C1507 C1506 1.362 . S
H1508 C1514 0.930 . S
H1509 C1517 0.930 . S
H1510 C1518 0.930 . S
H1511 C1519 0.930 . S
H1512 C1522 0.930 . S
H1513 C1523 0.930 . S
C1514 H1508 0.930 . S
C1514 C1515 1.355 . S
C1514 C1516 1.415 . S
C1515 C1514 1.355 . S
C1515 C1517 1.419 . S
C1516 C1514 1.415 . S
C1516 C1521 1.425 . S
C1516 C1523 1.409 . S
C1517 H1509 0.930 . S
C1517 C1515 1.419 . S
C1517 C1518 1.362 . S
C1518 H1510 0.930 . S
C1518 C1517 1.362 . S
C1518 C1521 1.409 . S
C1519 H1511 0.930 . S
C1519 C1520 1.355 . S
C1519 C1521 1.415 . S
C1520 C1519 1.355 . S
C1520 C1522 1.419 . S
C1521 C1516 1.425 . S
C1521 C1518 1.409 . S
C1521 C1519 1.415 . S
C1522 H1512 0.930 . S
C1522 C1520 1.419 . S
C1522 C1523 1.362 . S
C1523 H1513 0.930 . S
C1523 C1516 1.409 . S
C1523 C1522 1.362 . S
H1524 C1530 0.930 . S
H1525 C1533 0.930 . S
H1526 C1534 0.930 . S
H1527 C1535 0.930 . S
H1528 C1538 0.930 . S
H1529 C1539 0.930 . S
C1530 H1524 0.930 . S
C1530 C1531 1.355 . S
C1530 C1532 1.415 . S
C1531 C1530 1.355 . S
C1531 C1533 1.419 . S
C1532 C1530 1.415 . S
C1532 C1537 1.425 . S
C1532 C1539 1.409 . S
C1533 H1525 0.930 . S
C1533 C1531 1.419 . S
C1533 C1534 1.362 . S
C1534 H1526 0.930 . S
C1534 C1533 1.362 . S
C1534 C1537 1.409 . S
C1535 H1527 0.930 . S
C1535 C1536 1.355 . S
C1535 C1537 1.415 . S
C1536 C1535 1.355 . S
C1536 C1538 1.419 . S
C1537 C1532 1.425 . S
C1537 C1534 1.409 . S
C1537 C1535 1.415 . S
C1538 H1528 0.930 . S
C1538 C1536 1.419 . S
C1538 C1539 1.362 . S
C1539 H1529 0.930 . S
C1539 C1532 1.409 . S
C1539 C1538 1.362 . S
H1540 C1546 0.930 . S
H1541 C1549 0.930 . S
H1542 C1550 0.930 . S
H1543 C1551 0.930 . S
H1544 C1554 0.930 . S
H1545 C1555 0.930 . S
C1546 H1540 0.930 . S
C1546 C1547 1.355 . S
C1546 C1548 1.415 . S
C1547 C1546 1.355 . S
C1547 C1549 1.419 . S
C1548 C1546 1.415 . S
C1548 C1553 1.425 . S
C1548 C1555 1.409 . S
C1549 H1541 0.930 . S
C1549 C1547 1.419 . S
C1549 C1550 1.362 . S
C1550 H1542 0.930 . S
C1550 C1549 1.362 . S
C1550 C1553 1.409 . S
C1551 H1543 0.930 . S
C1551 C1552 1.355 . S
C1551 C1553 1.415 . S
C1552 C1551 1.355 . S
C1552 C1554 1.419 . S
C1553 C1548 1.425 . S
C1553 C1550 1.409 . S
C1553 C1551 1.415 . S
C1554 H1544 0.930 . S
C1554 C1552 1.419 . S
C1554 C1555 1.362 . S
C1555 H1545 0.930 . S
C1555 C1548 1.409 . S
C1555 C1554 1.362 . S
H1556 C1562 0.930 . S
H1557 C1565 0.930 . S
H1558 C1566 0.930 . S
H1559 C1567 0.930 . S
H1560 C1570 0.930 . S
H1561 C1571 0.930 . S
C1562 H1556 0.930 . S
C1562 C1563 1.355 . S
C1562 C1564 1.415 . S
C1563 C1562 1.355 . S
C1563 C1565 1.419 . S
C1564 C1562 1.415 . S
C1564 C1569 1.425 . S
C1564 C1571 1.409 . S
C1565 H1557 0.930 . S
C1565 C1563 1.419 . S
C1565 C1566 1.362 . S
C1566 H1558 0.930 . S
C1566 C1565 1.362 . S
C1566 C1569 1.409 . S
C1567 H1559 0.930 . S
C1567 C1568 1.355 . S
C1567 C1569 1.415 . S
C1568 C1567 1.355 . S
C1568 C1570 1.419 . S
C1569 C1564 1.425 . S
C1569 C1566 1.409 . S
C1569 C1567 1.415 . S
C1570 H1560 0.930 . S
C1570 C1568 1.419 . S
C1570 C1571 1.362 . S
C1571 H1561 0.930 . S
C1571 C1564 1.409 . S
C1571 C1570 1.362 . S
H1572 C1578 0.930 . S
H1573 C1581 0.930 . S
H1574 C1582 0.930 . S
H1575 C1583 0.930 . S
H1576 C1586 0.930 . S
H1577 C1587 0.930 . S
C1578 H1572 0.930 . S
C1578 C1579 1.355 . S
C1578 C1580 1.415 . S
C1579 C1578 1.355 . S
C1579 C1581 1.419 . S
C1580 C1578 1.415 . S
C1580 C1585 1.425 . S
C1580 C1587 1.409 . S
C1581 H1573 0.930 . S
C1581 C1579 1.419 . S
C1581 C1582 1.362 . S
C1582 H1574 0.930 . S
C1582 C1581 1.362 . S
C1582 C1585 1.409 . S
C1583 H1575 0.930 . S
C1583 C1584 1.355 . S
C1583 C1585 1.415 . S
C1584 C1583 1.355 . S
C1584 C1586 1.419 . S
C1585 C1580 1.425 . S
C1585 C1582 1.409 . S
C1585 C1583 1.415 . S
C1586 H1576 0.930 . S
C1586 C1584 1.419 . S
C1586 C1587 1.362 . S
C1587 H1577 0.930 . S
C1587 C1580 1.409 . S
C1587 C1586 1.362 . S
H1588 C1594 0.930 . S
H1589 C1597 0.930 . S
H1590 C1598 0.930 . S
H1591 C1599 0.930 . S
H1592 C1602 0.930 . S
H1593 C1603 0.930 . S
C1594 H1588 0.930 . S
C1594 C1595 1.355 . S
C1594 C1596 1.415 . S
C1595 C1594 1.355 . S
C1595 C1597 1.419 . S
C1596 C1594 1.415 . S
C1596 C1601 1.425 . S
C1596 C1603 1.409 . S
C1597 H1589 0.930 . S
C1597 C1595 1.419 . S
C1597 C1598 1.362 . S
C1598 H1590 0.930 . S
C1598 C1597 1.362 . S
C1598 C1601 1.409 . S
C1599 H1591 0.930 . S
C1599 C1600 1.355 . S
C1599 C1601 1.415 . S
C1600 C1599 1.355 . S
C1600 C1602 1.419 . S
C1601 C1596 1.425 . S
C1601 C1598 1.409 . S
C1601 C1599 1.415 . S
C1602 H1592 0.930 . S
C1602 C1600 1.419 . S
C1602 C1603 1.362 . S
C1603 H1593 0.930 . S
C1603 C1596 1.409 . S
C1603 C1602 1.362 . S
H1604 C1610 0.930 . S
H1605 C1613 0.930 . S
H1606 C1614 0.930 . S
H1607 C1615 0.930 . S
H1608 C1618 0.930 . S
H1609 C1619 0.930 . S
C1610 H1604 0.930 . S
C1610 C1611 1.355 . S
C1610 C1612 1.415 . S
C1611 C1610 1.355 . S
C1611 C1613 1.419 . S
C1612 C1610 1.415 . S
C1612 C1617 1.425 . S
C1612 C1619 1.409 . S
C1613 H1605 0.930 . S
C1613 C1611 1.419 . S
C1613 C1614 1.362 . S
C1614 H1606 0.930 . S
C1614 C1613 1.362 . S
C1614 C1617 1.409 . S
C1615 H1607 0.930 . S
C1615 C1616 1.355 . S
C1615 C1617 1.415 . S
C1616 C1615 1.355 . S
C1616 C1618 1.419 . S
C1617 C1612 1.425 . S
C1617 C1614 1.409 . S
C1617 C1615 1.415 . S
C1618 H1608 0.930 . S
C1618 C1616 1.419 . S
C1618 C1619 1.362 . S
C1619 H1609 0.930 . S
C1619 C1612 1.409 . S
C1619 C1618 1.362 . S
H1620 C1626 0.930 . S
H1621 C1629 0.930 . S
H1622 C1630 0.930 . S
H1623 C1631 0.930 . S
H1624 C1634 0.930 . S
H1625 C1635 0.930 . S
C1626 H1620 0.930 . S
C1626 C1627 1.355 . S
C1626 C1628 1.415 . S
C1627 C1626 1.355 . S
C1627 C1629 1.419 . S
C1628 C1626 1.415 . S
C1628 C1633 1.425 . S
C1628 C1635 1.409 . S
C1629 H1621 0.930 . S
C1629 C1627 1.419 . S
C1629 C1630 1.362 . S
C1630 H1622 0.930 . S
C1630 C1629 1.362 . S
C1630 C1633 1.409 . S
C1631 H1623 0.930 . S
C1631 C1632 1.355 . S
C1631 C1633 1.415 . S
C1632 C1631 1.355 . S
C1632 C1634 1.419 . S
C1633 C1628 1.425 . S
C1633 C1630 1.409 . S
C1633 C1631 1.415 . S
C1634 H1624 0.930 . S
C1634 C1632 1.419 . S
C1634 C1635 1.362 . S
C1635 H1625 0.930 . S
C1635 C1628 1.409 . S
C1635 C1634 1.362 . S
H1636 C1642 0.930 . S
H1637 C1645 0.930 . S
H1638 C1646 0.930 1_556 S
H1639 C1647 0.930 1_556 S
H1640 C1650 0.930 . S
H1641 C1651 0.930 . S
C1642 H1636 0.930 . S
C1642 C1643 1.355 . S
C1642 C1644 1.415 . S
C1643 C1642 1.355 . S
C1643 C1645 1.419 . S
C1644 C1642 1.415 . S
C1644 C1649 1.425 . S
C1644 C1651 1.409 . S
C1645 H1637 0.930 . S
C1645 C1643 1.419 . S
C1645 C1646 1.362 . S
C1646 H1638 0.930 1_554 S
C1646 C1645 1.362 . S
C1646 C1649 1.409 . S
C1647 H1639 0.930 1_554 S
C1647 C1648 1.355 . S
C1647 C1649 1.415 . S
C1648 C1647 1.355 . S
C1648 C1650 1.419 . S
C1649 C1644 1.425 . S
C1649 C1646 1.409 . S
C1649 C1647 1.415 . S
C1650 H1640 0.930 . S
C1650 C1648 1.419 . S
C1650 C1651 1.362 . S
C1651 H1641 0.930 . S
C1651 C1644 1.409 . S
C1651 C1650 1.362 . S
H1652 C1658 0.930 . S
H1653 C1661 0.930 . S
H1654 C1662 0.930 . S
H1655 C1663 0.930 . S
H1656 C1666 0.930 . S
H1657 C1667 0.930 . S
C1658 H1652 0.930 . S
C1658 C1659 1.355 . S
C1658 C1660 1.415 . S
C1659 C1658 1.355 . S
C1659 C1661 1.419 . S
C1660 C1658 1.415 . S
C1660 C1665 1.425 . S
C1660 C1667 1.409 . S
C1661 H1653 0.930 . S
C1661 C1659 1.419 . S
C1661 C1662 1.362 . S
C1662 H1654 0.930 . S
C1662 C1661 1.362 . S
C1662 C1665 1.409 . S
C1663 H1655 0.930 . S
C1663 C1664 1.355 . S
C1663 C1665 1.415 . S
C1664 C1663 1.355 . S
C1664 C1666 1.419 . S
C1665 C1660 1.425 . S
C1665 C1662 1.409 . S
C1665 C1663 1.415 . S
C1666 H1656 0.930 . S
C1666 C1664 1.419 . S
C1666 C1667 1.362 . S
C1667 H1657 0.930 . S
C1667 C1660 1.409 . S
C1667 C1666 1.362 . S
H1668 C1674 0.930 . S
H1669 C1677 0.930 . S
H1670 C1678 0.930 1_556 S
H1671 C1679 0.930 1_556 S
H1672 C1682 0.930 . S
H1673 C1683 0.930 . S
C1674 H1668 0.930 . S
C1674 C1675 1.355 . S
C1674 C1676 1.415 . S
C1675 C1674 1.355 . S
C1675 C1677 1.419 . S
C1676 C1674 1.415 . S
C1676 C1681 1.425 . S
C1676 C1683 1.409 . S
C1677 H1669 0.930 . S
C1677 C1675 1.419 . S
C1677 C1678 1.362 . S
C1678 H1670 0.930 1_554 S
C1678 C1677 1.362 . S
C1678 C1681 1.409 . S
C1679 H1671 0.930 1_554 S
C1679 C1680 1.355 . S
C1679 C1681 1.415 . S
C1680 C1679 1.355 . S
C1680 C1682 1.419 . S
C1681 C1676 1.425 . S
C1681 C1678 1.409 . S
C1681 C1679 1.415 . S
C1682 H1672 0.930 . S
C1682 C1680 1.419 . S
C1682 C1683 1.362 . S
C1683 H1673 0.930 . S
C1683 C1676 1.409 . S
C1683 C1682 1.362 . S
H1684 C1690 0.930 . S
H1685 C1693 0.930 . S
H1686 C1694 0.930 . S
H1687 C1695 0.930 . S
H1688 C1698 0.930 . S
H1689 C1699 0.930 . S
C1690 H1684 0.930 . S
C1690 C1691 1.355 . S
C1690 C1692 1.415 . S
C1691 C1690 1.355 . S
C1691 C1693 1.419 . S
C1692 C1690 1.415 . S
C1692 C1697 1.425 . S
C1692 C1699 1.409 . S
C1693 H1685 0.930 . S
C1693 C1691 1.419 . S
C1693 C1694 1.362 . S
C1694 H1686 0.930 . S
C1694 C1693 1.362 . S
C1694 C1697 1.409 . S
C1695 H1687 0.930 . S
C1695 C1696 1.355 . S
C1695 C1697 1.415 . S
C1696 C1695 1.355 . S
C1696 C1698 1.419 . S
C1697 C1692 1.425 . S
C1697 C1694 1.409 . S
C1697 C1695 1.415 . S
C1698 H1688 0.930 . S
C1698 C1696 1.419 . S
C1698 C1699 1.362 . S
C1699 H1689 0.930 . S
C1699 C1692 1.409 . S
C1699 C1698 1.362 . S
H1700 C1706 0.930 . S
H1701 C1709 0.930 . S
H1702 C1710 0.930 . S
H1703 C1711 0.930 . S
H1704 C1714 0.930 . S
H1705 C1715 0.930 . S
C1706 H1700 0.930 . S
C1706 C1707 1.355 . S
C1706 C1708 1.415 . S
C1707 C1706 1.355 . S
C1707 C1709 1.419 . S
C1708 C1706 1.415 . S
C1708 C1713 1.425 . S
C1708 C1715 1.409 . S
C1709 H1701 0.930 . S
C1709 C1707 1.419 . S
C1709 C1710 1.362 . S
C1710 H1702 0.930 . S
C1710 C1709 1.362 . S
C1710 C1713 1.409 . S
C1711 H1703 0.930 . S
C1711 C1712 1.355 . S
C1711 C1713 1.415 . S
C1712 C1711 1.355 . S
C1712 C1714 1.419 . S
C1713 C1708 1.425 . S
C1713 C1710 1.409 . S
C1713 C1711 1.415 . S
C1714 H1704 0.930 . S
C1714 C1712 1.419 . S
C1714 C1715 1.362 . S
C1715 H1705 0.930 . S
C1715 C1708 1.409 . S
C1715 C1714 1.362 . S
H1716 C1722 0.930 . S
H1717 C1725 0.930 . S
H1718 C1726 0.930 . S
H1719 C1727 0.930 . S
H1720 C1730 0.930 . S
H1721 C1731 0.930 . S
C1722 H1716 0.930 . S
C1722 C1723 1.355 . S
C1722 C1724 1.415 . S
C1723 C1722 1.355 . S
C1723 C1725 1.419 . S
C1724 C1722 1.415 . S
C1724 C1729 1.425 . S
C1724 C1731 1.409 . S
C1725 H1717 0.930 . S
C1725 C1723 1.419 . S
C1725 C1726 1.362 . S
C1726 H1718 0.930 . S
C1726 C1725 1.362 . S
C1726 C1729 1.409 . S
C1727 H1719 0.930 . S
C1727 C1728 1.355 . S
C1727 C1729 1.415 . S
C1728 C1727 1.355 . S
C1728 C1730 1.419 . S
C1729 C1724 1.425 . S
C1729 C1726 1.409 . S
C1729 C1727 1.415 . S
C1730 H1720 0.930 . S
C1730 C1728 1.419 . S
C1730 C1731 1.362 . S
C1731 H1721 0.930 . S
C1731 C1724 1.409 . S
C1731 C1730 1.362 . S
H1732 C1738 0.930 . S
H1733 C1741 0.930 . S
H1734 C1742 0.930 . S
H1735 C1743 0.930 . S
H1736 C1746 0.930 . S
H1737 C1747 0.930 . S
C1738 H1732 0.930 . S
C1738 C1739 1.355 . S
C1738 C1740 1.415 . S
C1739 C1738 1.355 . S
C1739 C1741 1.419 . S
C1740 C1738 1.415 . S
C1740 C1745 1.425 . S
C1740 C1747 1.409 . S
C1741 H1733 0.930 . S
C1741 C1739 1.419 . S
C1741 C1742 1.362 . S
C1742 H1734 0.930 . S
C1742 C1741 1.362 . S
C1742 C1745 1.409 . S
C1743 H1735 0.930 . S
C1743 C1744 1.355 . S
C1743 C1745 1.415 . S
C1744 C1743 1.355 . S
C1744 C1746 1.419 . S
C1745 C1740 1.425 . S
C1745 C1742 1.409 . S
C1745 C1743 1.415 . S
C1746 H1736 0.930 . S
C1746 C1744 1.419 . S
C1746 C1747 1.362 . S
C1747 H1737 0.930 . S
C1747 C1740 1.409 . S
C1747 C1746 1.362 . S
H1748 C1754 0.930 . S
H1749 C1757 0.930 . S
H1750 C1758 0.930 . S
H1751 C1759 0.930 . S
H1752 C1762 0.930 . S
H1753 C1763 0.930 . S
C1754 H1748 0.930 . S
C1754 C1755 1.355 . S
C1754 C1756 1.415 . S
C1755 C1754 1.355 . S
C1755 C1757 1.419 . S
C1756 C1754 1.415 . S
C1756 C1761 1.425 . S
C1756 C1763 1.409 . S
C1757 H1749 0.930 . S
C1757 C1755 1.419 . S
C1757 C1758 1.362 . S
C1758 H1750 0.930 . S
C1758 C1757 1.362 . S
C1758 C1761 1.409 . S
C1759 H1751 0.930 . S
C1759 C1760 1.355 . S
C1759 C1761 1.415 . S
C1760 C1759 1.355 . S
C1760 C1762 1.419 . S
C1761 C1756 1.425 . S
C1761 C1758 1.409 . S
C1761 C1759 1.415 . S
C1762 H1752 0.930 . S
C1762 C1760 1.419 . S
C1762 C1763 1.362 . S
C1763 H1753 0.930 . S
C1763 C1756 1.409 . S
C1763 C1762 1.362 . S
H1764 C1770 0.930 . S
H1765 C1773 0.930 . S
H1766 C1774 0.930 . S
H1767 C1775 0.930 . S
H1768 C1778 0.930 . S
H1769 C1779 0.930 . S
C1770 H1764 0.930 . S
C1770 C1771 1.355 . S
C1770 C1772 1.415 . S
C1771 C1770 1.355 . S
C1771 C1773 1.419 . S
C1772 C1770 1.415 . S
C1772 C1777 1.425 . S
C1772 C1779 1.409 . S
C1773 H1765 0.930 . S
C1773 C1771 1.419 . S
C1773 C1774 1.362 . S
C1774 H1766 0.930 . S
C1774 C1773 1.362 . S
C1774 C1777 1.409 . S
C1775 H1767 0.930 . S
C1775 C1776 1.355 . S
C1775 C1777 1.415 . S
C1776 C1775 1.355 . S
C1776 C1778 1.419 . S
C1777 C1772 1.425 . S
C1777 C1774 1.409 . S
C1777 C1775 1.415 . S
C1778 H1768 0.930 . S
C1778 C1776 1.419 . S
C1778 C1779 1.362 . S
C1779 H1769 0.930 . S
C1779 C1772 1.409 . S
C1779 C1778 1.362 . S
H1780 C1786 0.930 . S
H1781 C1789 0.930 . S
H1782 C1790 0.930 . S
H1783 C1791 0.930 . S
H1784 C1794 0.930 . S
H1785 C1795 0.930 . S
C1786 H1780 0.930 . S
C1786 C1787 1.355 . S
C1786 C1788 1.415 . S
C1787 C1786 1.355 . S
C1787 C1789 1.419 . S
C1788 C1786 1.415 . S
C1788 C1793 1.425 . S
C1788 C1795 1.409 . S
C1789 H1781 0.930 . S
C1789 C1787 1.419 . S
C1789 C1790 1.362 . S
C1790 H1782 0.930 . S
C1790 C1789 1.362 . S
C1790 C1793 1.409 . S
C1791 H1783 0.930 . S
C1791 C1792 1.355 . S
C1791 C1793 1.415 . S
C1792 C1791 1.355 . S
C1792 C1794 1.419 . S
C1793 C1788 1.425 . S
C1793 C1790 1.409 . S
C1793 C1791 1.415 . S
C1794 H1784 0.930 . S
C1794 C1792 1.419 . S
C1794 C1795 1.362 . S
C1795 H1785 0.930 . S
C1795 C1788 1.409 . S
C1795 C1794 1.362 . S
H1796 C1802 0.930 . S
H1797 C1805 0.930 . S
H1798 C1806 0.930 . S
H1799 C1807 0.930 . S
H1800 C1810 0.930 . S
H1801 C1811 0.930 . S
C1802 H1796 0.930 . S
C1802 C1803 1.355 . S
C1802 C1804 1.415 . S
C1803 C1802 1.355 . S
C1803 C1805 1.419 . S
C1804 C1802 1.415 . S
C1804 C1809 1.425 . S
C1804 C1811 1.409 . S
C1805 H1797 0.930 . S
C1805 C1803 1.419 . S
C1805 C1806 1.362 . S
C1806 H1798 0.930 . S
C1806 C1805 1.362 . S
C1806 C1809 1.409 . S
C1807 H1799 0.930 . S
C1807 C1808 1.355 . S
C1807 C1809 1.415 . S
C1808 C1807 1.355 . S
C1808 C1810 1.419 . S
C1809 C1804 1.425 . S
C1809 C1806 1.409 . S
C1809 C1807 1.415 . S
C1810 H1800 0.930 . S
C1810 C1808 1.419 . S
C1810 C1811 1.362 . S
C1811 H1801 0.930 . S
C1811 C1804 1.409 . S
C1811 C1810 1.362 . S
H1812 C1818 0.930 . S
H1813 C1821 0.930 . S
H1814 C1822 0.930 . S
H1815 C1823 0.930 . S
H1816 C1826 0.930 . S
H1817 C1827 0.930 . S
C1818 H1812 0.930 . S
C1818 C1819 1.355 . S
C1818 C1820 1.415 . S
C1819 C1818 1.355 . S
C1819 C1821 1.419 . S
C1820 C1818 1.415 . S
C1820 C1825 1.425 . S
C1820 C1827 1.409 . S
C1821 H1813 0.930 . S
C1821 C1819 1.419 . S
C1821 C1822 1.362 . S
C1822 H1814 0.930 . S
C1822 C1821 1.362 . S
C1822 C1825 1.409 . S
C1823 H1815 0.930 . S
C1823 C1824 1.355 . S
C1823 C1825 1.415 . S
C1824 C1823 1.355 . S
C1824 C1826 1.419 . S
C1825 C1820 1.425 . S
C1825 C1822 1.409 . S
C1825 C1823 1.415 . S
C1826 H1816 0.930 . S
C1826 C1824 1.419 . S
C1826 C1827 1.362 . S
C1827 H1817 0.930 . S
C1827 C1820 1.409 . S
C1827 C1826 1.362 . S
H1828 C1834 0.930 . S
H1829 C1837 0.930 . S
H1830 C1838 0.930 . S
H1831 C1839 0.930 . S
H1832 C1842 0.930 . S
H1833 C1843 0.930 . S
C1834 H1828 0.930 . S
C1834 C1835 1.355 . S
C1834 C1836 1.415 . S
C1835 C1834 1.355 . S
C1835 C1837 1.419 . S
C1836 C1834 1.415 . S
C1836 C1841 1.425 . S
C1836 C1843 1.409 . S
C1837 H1829 0.930 . S
C1837 C1835 1.419 . S
C1837 C1838 1.362 . S
C1838 H1830 0.930 . S
C1838 C1837 1.362 . S
C1838 C1841 1.409 . S
C1839 H1831 0.930 . S
C1839 C1840 1.355 . S
C1839 C1841 1.415 . S
C1840 C1839 1.355 . S
C1840 C1842 1.419 . S
C1841 C1836 1.425 . S
C1841 C1838 1.409 . S
C1841 C1839 1.415 . S
C1842 H1832 0.930 . S
C1842 C1840 1.419 . S
C1842 C1843 1.362 . S
C1843 H1833 0.930 . S
C1843 C1836 1.409 . S
C1843 C1842 1.362 . S
H1844 C1850 0.930 . S
H1845 C1853 0.930 . S
H1846 C1854 0.930 . S
H1847 C1855 0.930 . S
H1848 C1858 0.930 . S
H1849 C1859 0.930 . S
C1850 H1844 0.930 . S
C1850 C1851 1.355 . S
C1850 C1852 1.415 . S
C1851 C1850 1.355 . S
C1851 C1853 1.419 . S
C1852 C1850 1.415 . S
C1852 C1857 1.425 . S
C1852 C1859 1.409 . S
C1853 H1845 0.930 . S
C1853 C1851 1.419 . S
C1853 C1854 1.362 . S
C1854 H1846 0.930 . S
C1854 C1853 1.362 . S
C1854 C1857 1.409 . S
C1855 H1847 0.930 . S
C1855 C1856 1.355 . S
C1855 C1857 1.415 . S
C1856 C1855 1.355 . S
C1856 C1858 1.419 . S
C1857 C1852 1.425 . S
C1857 C1854 1.409 . S
C1857 C1855 1.415 . S
C1858 H1848 0.930 . S
C1858 C1856 1.419 . S
C1858 C1859 1.362 . S
C1859 H1849 0.930 . S
C1859 C1852 1.409 . S
C1859 C1858 1.362 . S
H1860 C1866 0.930 . S
H1861 C1869 0.930 . S
H1862 C1870 0.930 . S
H1863 C1871 0.930 . S
H1864 C1874 0.930 . S
H1865 C1875 0.930 . S
C1866 H1860 0.930 . S
C1866 C1867 1.355 . S
C1866 C1868 1.415 . S
C1867 C1866 1.355 . S
C1867 C1869 1.419 . S
C1868 C1866 1.415 . S
C1868 C1873 1.425 . S
C1868 C1875 1.409 . S
C1869 H1861 0.930 . S
C1869 C1867 1.419 . S
C1869 C1870 1.362 . S
C1870 H1862 0.930 . S
C1870 C1869 1.362 . S
C1870 C1873 1.409 . S
C1871 H1863 0.930 . S
C1871 C1872 1.355 . S
C1871 C1873 1.415 . S
C1872 C1871 1.355 . S
C1872 C1874 1.419 . S
C1873 C1868 1.425 . S
C1873 C1870 1.409 . S
C1873 C1871 1.415 . S
C1874 H1864 0.930 . S
C1874 C1872 1.419 . S
C1874 C1875 1.362 . S
C1875 H1865 0.930 . S
C1875 C1868 1.409 . S
C1875 C1874 1.362 . S
H1876 C1882 0.930 . S
H1877 C1885 0.930 . S
H1878 C1886 0.930 . S
H1879 C1887 0.930 . S
H1880 C1890 0.930 . S
H1881 C1891 0.930 . S
C1882 H1876 0.930 . S
C1882 C1883 1.355 . S
C1882 C1884 1.415 . S
C1883 C1882 1.355 . S
C1883 C1885 1.419 . S
C1884 C1882 1.415 . S
C1884 C1889 1.425 . S
C1884 C1891 1.409 . S
C1885 H1877 0.930 . S
C1885 C1883 1.419 . S
C1885 C1886 1.362 . S
C1886 H1878 0.930 . S
C1886 C1885 1.362 . S
C1886 C1889 1.409 . S
C1887 H1879 0.930 . S
C1887 C1888 1.355 . S
C1887 C1889 1.415 . S
C1888 C1887 1.355 . S
C1888 C1890 1.419 . S
C1889 C1884 1.425 . S
C1889 C1886 1.409 . S
C1889 C1887 1.415 . S
C1890 H1880 0.930 . S
C1890 C1888 1.419 . S
C1890 C1891 1.362 . S
C1891 H1881 0.930 . S
C1891 C1884 1.409 . S
C1891 C1890 1.362 . S
H1892 C1898 0.930 . S
H1893 C1901 0.930 . S
H1894 C1902 0.930 1_455 S
H1895 C1903 0.930 1_455 S
H1896 C1906 0.930 . S
H1897 C1907 0.930 . S
C1898 H1892 0.930 . S
C1898 C1899 1.355 . S
C1898 C1900 1.415 . S
C1899 C1898 1.355 . S
C1899 C1901 1.419 . S
C1900 C1898 1.415 . S
C1900 C1905 1.425 . S
C1900 C1907 1.409 . S
C1901 H1893 0.930 . S
C1901 C1899 1.419 . S
C1901 C1902 1.362 . S
C1902 H1894 0.930 1_655 S
C1902 C1901 1.362 . S
C1902 C1905 1.409 . S
C1903 H1895 0.930 1_655 S
C1903 C1904 1.355 . S
C1903 C1905 1.415 . S
C1904 C1903 1.355 . S
C1904 C1906 1.419 . S
C1905 C1900 1.425 . S
C1905 C1902 1.409 . S
C1905 C1903 1.415 . S
C1906 H1896 0.930 . S
C1906 C1904 1.419 . S
C1906 C1907 1.362 . S
C1907 H1897 0.930 . S
C1907 C1900 1.409 . S
C1907 C1906 1.362 . S
H1908 C1914 0.930 . S
H1909 C1917 0.930 . S
H1910 C1918 0.930 . S
H1911 C1919 0.930 . S
H1912 C1922 0.930 . S
H1913 C1923 0.930 . S
C1914 H1908 0.930 . S
C1914 C1915 1.355 . S
C1914 C1916 1.415 . S
C1915 C1914 1.355 . S
C1915 C1917 1.419 . S
C1916 C1914 1.415 . S
C1916 C1921 1.425 . S
C1916 C1923 1.409 . S
C1917 H1909 0.930 . S
C1917 C1915 1.419 . S
C1917 C1918 1.362 . S
C1918 H1910 0.930 . S
C1918 C1917 1.362 . S
C1918 C1921 1.409 . S
C1919 H1911 0.930 . S
C1919 C1920 1.355 . S
C1919 C1921 1.415 . S
C1920 C1919 1.355 . S
C1920 C1922 1.419 . S
C1921 C1916 1.425 . S
C1921 C1918 1.409 . S
C1921 C1919 1.415 . S
C1922 H1912 0.930 . S
C1922 C1920 1.419 . S
C1922 C1923 1.362 . S
C1923 H1913 0.930 . S
C1923 C1916 1.409 . S
C1923 C1922 1.362 . S
H1924 C1930 0.930 . S
H1925 C1933 0.930 . S
H1926 C1934 0.930 . S
H1927 C1935 0.930 . S
H1928 C1938 0.930 1_655 S
H1929 C1939 0.930 1_655 S
C1930 H1924 0.930 . S
C1930 C1931 1.355 . S
C1930 C1932 1.415 . S
C1931 C1930 1.355 . S
C1931 C1933 1.419 . S
C1932 C1930 1.415 . S
C1932 C1937 1.425 . S
C1932 C1939 1.409 . S
C1933 H1925 0.930 . S
C1933 C1931 1.419 . S
C1933 C1934 1.362 . S
C1934 H1926 0.930 . S
C1934 C1933 1.362 . S
C1934 C1937 1.409 . S
C1935 H1927 0.930 . S
C1935 C1936 1.355 . S
C1935 C1937 1.415 . S
C1936 C1935 1.355 . S
C1936 C1938 1.419 . S
C1937 C1932 1.425 . S
C1937 C1934 1.409 . S
C1937 C1935 1.415 . S
C1938 H1928 0.930 1_455 S
C1938 C1936 1.419 . S
C1938 C1939 1.362 . S
C1939 H1929 0.930 1_455 S
C1939 C1932 1.409 . S
C1939 C1938 1.362 . S
H1940 C1946 0.930 . S
H1941 C1949 0.930 . S
H1942 C1950 0.930 . S
H1943 C1951 0.930 . S
H1944 C1954 0.930 . S
H1945 C1955 0.930 . S
C1946 H1940 0.930 . S
C1946 C1947 1.355 . S
C1946 C1948 1.415 . S
C1947 C1946 1.355 . S
C1947 C1949 1.419 . S
C1948 C1946 1.415 . S
C1948 C1953 1.425 . S
C1948 C1955 1.409 . S
C1949 H1941 0.930 . S
C1949 C1947 1.419 . S
C1949 C1950 1.362 . S
C1950 H1942 0.930 . S
C1950 C1949 1.362 . S
C1950 C1953 1.409 . S
C1951 H1943 0.930 . S
C1951 C1952 1.355 . S
C1951 C1953 1.415 . S
C1952 C1951 1.355 . S
C1952 C1954 1.419 . S
C1953 C1948 1.425 . S
C1953 C1950 1.409 . S
C1953 C1951 1.415 . S
C1954 H1944 0.930 . S
C1954 C1952 1.419 . S
C1954 C1955 1.362 . S
C1955 H1945 0.930 . S
C1955 C1948 1.409 . S
C1955 C1954 1.362 . S
H1956 C1962 0.930 . S
H1957 C1965 0.930 . S
H1958 C1966 0.930 . S
H1959 C1967 0.930 . S
H1960 C1970 0.930 . S
H1961 C1971 0.930 . S
C1962 H1956 0.930 . S
C1962 C1963 1.355 . S
C1962 C1964 1.415 . S
C1963 C1962 1.355 . S
C1963 C1965 1.419 . S
C1964 C1962 1.415 . S
C1964 C1969 1.425 . S
C1964 C1971 1.409 . S
C1965 H1957 0.930 . S
C1965 C1963 1.419 . S
C1965 C1966 1.362 . S
C1966 H1958 0.930 . S
C1966 C1965 1.362 . S
C1966 C1969 1.409 . S
C1967 H1959 0.930 . S
C1967 C1968 1.355 . S
C1967 C1969 1.415 . S
C1968 C1967 1.355 . S
C1968 C1970 1.419 . S
C1969 C1964 1.425 . S
C1969 C1966 1.409 . S
C1969 C1967 1.415 . S
C1970 H1960 0.930 . S
C1970 C1968 1.419 . S
C1970 C1971 1.362 . S
C1971 H1961 0.930 . S
C1971 C1964 1.409 . S
C1971 C1970 1.362 . S
H1972 C1978 0.930 . S
H1973 C1981 0.930 . S
H1974 C1982 0.930 . S
H1975 C1983 0.930 . S
H1976 C1986 0.930 . S
H1977 C1987 0.930 . S
C1978 H1972 0.930 . S
C1978 C1979 1.355 . S
C1978 C1980 1.415 . S
C1979 C1978 1.355 . S
C1979 C1981 1.419 . S
C1980 C1978 1.415 . S
C1980 C1985 1.425 . S
C1980 C1987 1.409 . S
C1981 H1973 0.930 . S
C1981 C1979 1.419 . S
C1981 C1982 1.362 . S
C1982 H1974 0.930 . S
C1982 C1981 1.362 . S
C1982 C1985 1.409 . S
C1983 H1975 0.930 . S
C1983 C1984 1.355 . S
C1983 C1985 1.415 . S
C1984 C1983 1.355 . S
C1984 C1986 1.419 . S
C1985 C1980 1.425 . S
C1985 C1982 1.409 . S
C1985 C1983 1.415 . S
C1986 H1976 0.930 . S
C1986 C1984 1.419 . S
C1986 C1987 1.362 . S
C1987 H1977 0.930 . S
C1987 C1980 1.409 . S
C1987 C1986 1.362 . S
H1988 C1994 0.930 . S
H1989 C1997 0.930 . S
H1990 C1998 0.930 . S
H1991 C1999 0.930 . S
H1992 C2002 0.930 . S
H1993 C2003 0.930 . S
C1994 H1988 0.930 . S
C1994 C1995 1.355 . S
C1994 C1996 1.415 . S
C1995 C1994 1.355 . S
C1995 C1997 1.419 . S
C1996 C1994 1.415 . S
C1996 C2001 1.425 . S
C1996 C2003 1.409 . S
C1997 H1989 0.930 . S
C1997 C1995 1.419 . S
C1997 C1998 1.362 . S
C1998 H1990 0.930 . S
C1998 C1997 1.362 . S
C1998 C2001 1.409 . S
C1999 H1991 0.930 . S
C1999 C2000 1.355 . S
C1999 C2001 1.415 . S
C2000 C1999 1.355 . S
C2000 C2002 1.419 . S
C2001 C1996 1.425 . S
C2001 C1998 1.409 . S
C2001 C1999 1.415 . S
C2002 H1992 0.930 . S
C2002 C2000 1.419 . S
C2002 C2003 1.362 . S
C2003 H1993 0.930 . S
C2003 C1996 1.409 . S
C2003 C2002 1.362 . S
H2004 C2010 0.930 . S
H2005 C2013 0.930 . S
H2006 C2014 0.930 . S
H2007 C2015 0.930 . S
H2008 C2018 0.930 . S
H2009 C2019 0.930 . S
C2010 H2004 0.930 . S
C2010 C2011 1.355 . S
C2010 C2012 1.415 . S
C2011 C2010 1.355 . S
C2011 C2013 1.419 . S
C2012 C2010 1.415 . S
C2012 C2017 1.425 . S
C2012 C2019 1.409 . S
C2013 H2005 0.930 . S
C2013 C2011 1.419 . S
C2013 C2014 1.362 . S
C2014 H2006 0.930 . S
C2014 C2013 1.362 . S
C2014 C2017 1.409 . S
C2015 H2007 0.930 . S
C2015 C2016 1.355 . S
C2015 C2017 1.415 . S
C2016 C2015 1.355 . S
C2016 C2018 1.419 . S
C2017 C2012 1.425 . S
C2017 C2014 1.409 . S
C2017 C2015 1.415 . S
C2018 H2008 0.930 . S
C2018 C2016 1.419 . S
C2018 C2019 1.362 . S
C2019 H2009 0.930 . S
C2019 C2012 1.409 . S
C2019 C2018 1.362 . S
H2020 C2026 0.930 . S
H2021 C2029 0.930 . S
H2022 C2030 0.930 . S
H2023 C2031 0.930 . S
H2024 C2034 0.930 . S
H2025 C2035 0.930 . S
C2026 H2020 0.930 . S
C2026 C2027 1.355 . S
C2026 C2028 1.415 . S
C2027 C2026 1.355 . S
C2027 C2029 1.419 . S
C2028 C2026 1.415 . S
C2028 C2033 1.425 . S
C2028 C2035 1.409 . S
C2029 H2021 0.930 . S
C2029 C2027 1.419 . S
C2029 C2030 1.362 . S
C2030 H2022 0.930 . S
C2030 C2029 1.362 . S
C2030 C2033 1.409 . S
C2031 H2023 0.930 . S
C2031 C2032 1.355 . S
C2031 C2033 1.415 . S
C2032 C2031 1.355 . S
C2032 C2034 1.419 . S
C2033 C2028 1.425 . S
C2033 C2030 1.409 . S
C2033 C2031 1.415 . S
C2034 H2024 0.930 . S
C2034 C2032 1.419 . S
C2034 C2035 1.362 . S
C2035 H2025 0.930 . S
C2035 C2028 1.409 . S
C2035 C2034 1.362 . S
H2036 C2042 0.930 . S
H2037 C2045 0.930 . S
H2038 C2046 0.930 . S
H2039 C2047 0.930 . S
H2040 C2050 0.930 . S
H2041 C2051 0.930 . S
C2042 H2036 0.930 . S
C2042 C2043 1.355 . S
C2042 C2044 1.415 . S
C2043 C2042 1.355 . S
C2043 C2045 1.419 . S
C2044 C2042 1.415 . S
C2044 C2049 1.425 . S
C2044 C2051 1.409 . S
C2045 H2037 0.930 . S
C2045 C2043 1.419 . S
C2045 C2046 1.362 . S
C2046 H2038 0.930 . S
C2046 C2045 1.362 . S
C2046 C2049 1.409 . S
C2047 H2039 0.930 . S
C2047 C2048 1.355 . S
C2047 C2049 1.415 . S
C2048 C2047 1.355 . S
C2048 C2050 1.419 . S
C2049 C2044 1.425 . S
C2049 C2046 1.409 . S
C2049 C2047 1.415 . S
C2050 H2040 0.930 . S
C2050 C2048 1.419 . S
C2050 C2051 1.362 . S
C2051 H2041 0.930 . S
C2051 C2044 1.409 . S
C2051 C2050 1.362 . S
H2052 C2058 0.930 . S
H2053 C2061 0.930 . S
H2054 C2062 0.930 . S
H2055 C2063 0.930 . S
H2056 C2066 0.930 . S
H2057 C2067 0.930 . S
C2058 H2052 0.930 . S
C2058 C2059 1.355 . S
C2058 C2060 1.415 . S
C2059 C2058 1.355 . S
C2059 C2061 1.419 . S
C2060 C2058 1.415 . S
C2060 C2065 1.425 . S
C2060 C2067 1.409 . S
C2061 H2053 0.930 . S
C2061 C2059 1.419 . S
C2061 C2062 1.362 . S
C2062 H2054 0.930 . S
C2062 C2061 1.362 . S
C2062 C2065 1.409 . S
C2063 H2055 0.930 . S
C2063 C2064 1.355 . S
C2063 C2065 1.415 . S
C2064 C2063 1.355 . S
C2064 C2066 1.419 . S
C2065 C2060 1.425 . S
C2065 C2062 1.409 . S
C2065 C2063 1.415 . S
C2066 H2056 0.930 . S
C2066 C2064 1.419 . S
C2066 C2067 1.362 . S
C2067 H2057 0.930 . S
C2067 C2060 1.409 . S
C2067 C2066 1.362 . S
H2068 C2074 0.930 . S
H2069 C2077 0.930 . S
H2070 C2078 0.930 . S
H2071 C2079 0.930 . S
H2072 C2082 0.930 . S
H2073 C2083 0.930 . S
C2074 H2068 0.930 . S
C2074 C2075 1.355 . S
C2074 C2076 1.415 . S
C2075 C2074 1.355 . S
C2075 C2077 1.419 . S
C2076 C2074 1.415 . S
C2076 C2081 1.425 . S
C2076 C2083 1.409 . S
C2077 H2069 0.930 . S
C2077 C2075 1.419 . S
C2077 C2078 1.362 . S
C2078 H2070 0.930 . S
C2078 C2077 1.362 . S
C2078 C2081 1.409 . S
C2079 H2071 0.930 . S
C2079 C2080 1.355 . S
C2079 C2081 1.415 . S
C2080 C2079 1.355 . S
C2080 C2082 1.419 . S
C2081 C2076 1.425 . S
C2081 C2078 1.409 . S
C2081 C2079 1.415 . S
C2082 H2072 0.930 . S
C2082 C2080 1.419 . S
C2082 C2083 1.362 . S
C2083 H2073 0.930 . S
C2083 C2076 1.409 . S
C2083 C2082 1.362 . S
H2084 C2090 0.930 . S
H2085 C2093 0.930 . S
H2086 C2094 0.930 . S
H2087 C2095 0.930 . S
H2088 C2098 0.930 . S
H2089 C2099 0.930 . S
C2090 H2084 0.930 . S
C2090 C2091 1.355 . S
C2090 C2092 1.415 . S
C2091 C2090 1.355 . S
C2091 C2093 1.419 . S
C2092 C2090 1.415 . S
C2092 C2097 1.425 . S
C2092 C2099 1.409 . S
C2093 H2085 0.930 . S
C2093 C2091 1.419 . S
C2093 C2094 1.362 . S
C2094 H2086 0.930 . S
C2094 C2093 1.362 . S
C2094 C2097 1.409 . S
C2095 H2087 0.930 . S
C2095 C2096 1.355 . S
C2095 C2097 1.415 . S
C2096 C2095 1.355 . S
C2096 C2098 1.419 . S
C2097 C2092 1.425 . S
C2097 C2094 1.409 . S
C2097 C2095 1.415 . S
C2098 H2088 0.930 . S
C2098 C2096 1.419 . S
C2098 C2099 1.362 . S
C2099 H2089 0.930 . S
C2099 C2092 1.409 . S
C2099 C2098 1.362 . S
H2100 C2106 0.930 . S
H2101 C2109 0.930 . S
H2102 C2110 0.930 . S
H2103 C2111 0.930 . S
H2104 C2114 0.930 . S
H2105 C2115 0.930 . S
C2106 H2100 0.930 . S
C2106 C2107 1.355 . S
C2106 C2108 1.415 . S
C2107 C2106 1.355 . S
C2107 C2109 1.419 . S
C2108 C2106 1.415 . S
C2108 C2113 1.425 . S
C2108 C2115 1.409 . S
C2109 H2101 0.930 . S
C2109 C2107 1.419 . S
C2109 C2110 1.362 . S
C2110 H2102 0.930 . S
C2110 C2109 1.362 . S
C2110 C2113 1.409 . S
C2111 H2103 0.930 . S
C2111 C2112 1.355 . S
C2111 C2113 1.415 . S
C2112 C2111 1.355 . S
C2112 C2114 1.419 . S
C2113 C2108 1.425 . S
C2113 C2110 1.409 . S
C2113 C2111 1.415 . S
C2114 H2104 0.930 . S
C2114 C2112 1.419 . S
C2114 C2115 1.362 . S
C2115 H2105 0.930 . S
C2115 C2108 1.409 . S
C2115 C2114 1.362 . S
H2116 C2122 0.930 . S
H2117 C2125 0.930 . S
H2118 C2126 0.930 . S
H2119 C2127 0.930 . S
H2120 C2130 0.930 . S
H2121 C2131 0.930 . S
C2122 H2116 0.930 . S
C2122 C2123 1.355 . S
C2122 C2124 1.415 . S
C2123 C2122 1.355 . S
C2123 C2125 1.419 . S
C2124 C2122 1.415 . S
C2124 C2129 1.425 . S
C2124 C2131 1.409 . S
C2125 H2117 0.930 . S
C2125 C2123 1.419 . S
C2125 C2126 1.362 . S
C2126 H2118 0.930 . S
C2126 C2125 1.362 . S
C2126 C2129 1.409 . S
C2127 H2119 0.930 . S
C2127 C2128 1.355 . S
C2127 C2129 1.415 . S
C2128 C2127 1.355 . S
C2128 C2130 1.419 . S
C2129 C2124 1.425 . S
C2129 C2126 1.409 . S
C2129 C2127 1.415 . S
C2130 H2120 0.930 . S
C2130 C2128 1.419 . S
C2130 C2131 1.362 . S
C2131 H2121 0.930 . S
C2131 C2124 1.409 . S
C2131 C2130 1.362 . S
H2132 C2138 0.930 . S
H2133 C2141 0.930 . S
H2134 C2142 0.930 . S
H2135 C2143 0.930 . S
H2136 C2146 0.930 . S
H2137 C2147 0.930 . S
C2138 H2132 0.930 . S
C2138 C2139 1.355 . S
C2138 C2140 1.415 . S
C2139 C2138 1.355 . S
C2139 C2141 1.419 . S
C2140 C2138 1.415 . S
C2140 C2145 1.425 . S
C2140 C2147 1.409 . S
C2141 H2133 0.930 . S
C2141 C2139 1.419 . S
C2141 C2142 1.362 . S
C2142 H2134 0.930 . S
C2142 C2141 1.362 . S
C2142 C2145 1.409 . S
C2143 H2135 0.930 . S
C2143 C2144 1.355 . S
C2143 C2145 1.415 . S
C2144 C2143 1.355 . S
C2144 C2146 1.419 . S
C2145 C2140 1.425 . S
C2145 C2142 1.409 . S
C2145 C2143 1.415 . S
C2146 H2136 0.930 . S
C2146 C2144 1.419 . S
C2146 C2147 1.362 . S
C2147 H2137 0.930 . S
C2147 C2140 1.409 . S
C2147 C2146 1.362 . S
H2148 C2154 0.930 . S
H2149 C2157 0.930 . S
H2150 C2158 0.930 . S
H2151 C2159 0.930 . S
H2152 C2162 0.930 . S
H2153 C2163 0.930 . S
C2154 H2148 0.930 . S
C2154 C2155 1.355 . S
C2154 C2156 1.415 . S
C2155 C2154 1.355 . S
C2155 C2157 1.419 . S
C2156 C2154 1.415 . S
C2156 C2161 1.425 . S
C2156 C2163 1.409 . S
C2157 H2149 0.930 . S
C2157 C2155 1.419 . S
C2157 C2158 1.362 . S
C2158 H2150 0.930 . S
C2158 C2157 1.362 . S
C2158 C2161 1.409 . S
C2159 H2151 0.930 . S
C2159 C2160 1.355 . S
C2159 C2161 1.415 . S
C2160 C2159 1.355 . S
C2160 C2162 1.419 . S
C2161 C2156 1.425 . S
C2161 C2158 1.409 . S
C2161 C2159 1.415 . S
C2162 H2152 0.930 . S
C2162 C2160 1.419 . S
C2162 C2163 1.362 . S
C2163 H2153 0.930 . S
C2163 C2156 1.409 . S
C2163 C2162 1.362 . S
H2164 C2170 0.930 . S
H2165 C2173 0.930 . S
H2166 C2174 0.930 1_565 S
H2167 C2175 0.930 1_565 S
H2168 C2178 0.930 . S
H2169 C2179 0.930 . S
C2170 H2164 0.930 . S
C2170 C2171 1.355 . S
C2170 C2172 1.415 . S
C2171 C2170 1.355 . S
C2171 C2173 1.419 . S
C2172 C2170 1.415 . S
C2172 C2177 1.425 . S
C2172 C2179 1.409 . S
C2173 H2165 0.930 . S
C2173 C2171 1.419 . S
C2173 C2174 1.362 . S
C2174 H2166 0.930 1_545 S
C2174 C2173 1.362 . S
C2174 C2177 1.409 . S
C2175 H2167 0.930 1_545 S
C2175 C2176 1.355 . S
C2175 C2177 1.415 . S
C2176 C2175 1.355 . S
C2176 C2178 1.419 . S
C2177 C2172 1.425 . S
C2177 C2174 1.409 . S
C2177 C2175 1.415 . S
C2178 H2168 0.930 . S
C2178 C2176 1.419 . S
C2178 C2179 1.362 . S
C2179 H2169 0.930 . S
C2179 C2172 1.409 . S
C2179 C2178 1.362 . S
H2180 C2186 0.930 . S
H2181 C2189 0.930 . S
H2182 C2190 0.930 . S
H2183 C2191 0.930 . S
H2184 C2194 0.930 . S
H2185 C2195 0.930 . S
C2186 H2180 0.930 . S
C2186 C2187 1.355 . S
C2186 C2188 1.415 . S
C2187 C2186 1.355 . S
C2187 C2189 1.419 . S
C2188 C2186 1.415 . S
C2188 C2193 1.425 . S
C2188 C2195 1.409 . S
C2189 H2181 0.930 . S
C2189 C2187 1.419 . S
C2189 C2190 1.362 . S
C2190 H2182 0.930 . S
C2190 C2189 1.362 . S
C2190 C2193 1.409 . S
C2191 H2183 0.930 . S
C2191 C2192 1.355 . S
C2191 C2193 1.415 . S
C2192 C2191 1.355 . S
C2192 C2194 1.419 . S
C2193 C2188 1.425 . S
C2193 C2190 1.409 . S
C2193 C2191 1.415 . S
C2194 H2184 0.930 . S
C2194 C2192 1.419 . S
C2194 C2195 1.362 . S
C2195 H2185 0.930 . S
C2195 C2188 1.409 . S
C2195 C2194 1.362 . S
H2196 C2202 0.930 . S
H2197 C2205 0.930 . S
H2198 C2206 0.930 . S
H2199 C2207 0.930 . S
H2200 C2210 0.942 . S
H2201 C2211 0.930 1_545 S
C2202 H2196 0.930 . S
C2202 C2203 1.355 . S
C2202 C2204 1.415 . S
C2203 C2202 1.355 . S
C2203 C2205 1.419 . S
C2204 C2202 1.415 . S
C2204 C2209 1.425 . S
C2204 C2211 1.409 . S
C2205 H2197 0.930 . S
C2205 C2203 1.419 . S
C2205 C2206 1.362 . S
C2206 H2198 0.930 . S
C2206 C2205 1.362 . S
C2206 C2209 1.409 . S
C2207 H2199 0.930 . S
C2207 C2208 1.355 . S
C2207 C2209 1.415 . S
C2208 C2207 1.355 . S
C2208 C2210 1.408 1_565 S
C2209 C2204 1.425 . S
C2209 C2206 1.409 . S
C2209 C2207 1.415 . S
C2210 H2200 0.942 . S
C2210 C2208 1.408 1_545 S
C2210 C2211 1.360 1_545 S
C2211 H2201 0.930 1_565 S
C2211 C2204 1.409 . S
C2211 C2210 1.360 1_565 S
H2212 C2218 0.930 . S
H2213 C2221 0.930 . S
H2214 C2222 0.930 . S
H2215 C2223 0.930 . S
H2216 C2226 0.930 . S
H2217 C2227 0.930 . S
C2218 H2212 0.930 . S
C2218 C2219 1.355 . S
C2218 C2220 1.415 . S
C2219 C2218 1.355 . S
C2219 C2221 1.419 . S
C2220 C2218 1.415 . S
C2220 C2225 1.425 . S
C2220 C2227 1.409 . S
C2221 H2213 0.930 . S
C2221 C2219 1.419 . S
C2221 C2222 1.362 . S
C2222 H2214 0.930 . S
C2222 C2221 1.362 . S
C2222 C2225 1.409 . S
C2223 H2215 0.930 . S
C2223 C2224 1.355 . S
C2223 C2225 1.415 . S
C2224 C2223 1.355 . S
C2224 C2226 1.419 . S
C2225 C2220 1.425 . S
C2225 C2222 1.409 . S
C2225 C2223 1.415 . S
C2226 H2216 0.930 . S
C2226 C2224 1.419 . S
C2226 C2227 1.362 . S
C2227 H2217 0.930 . S
C2227 C2220 1.409 . S
C2227 C2226 1.362 . S
H2228 C2234 0.930 . S
H2229 C2237 0.930 . S
H2230 C2238 0.930 . S
H2231 C2239 0.930 . S
H2232 C2242 0.930 . S
H2233 C2243 0.930 . S
C2234 H2228 0.930 . S
C2234 C2235 1.355 . S
C2234 C2236 1.415 . S
C2235 C2234 1.355 . S
C2235 C2237 1.419 . S
C2236 C2234 1.415 . S
C2236 C2241 1.425 . S
C2236 C2243 1.409 . S
C2237 H2229 0.930 . S
C2237 C2235 1.419 . S
C2237 C2238 1.362 . S
C2238 H2230 0.930 . S
C2238 C2237 1.362 . S
C2238 C2241 1.409 . S
C2239 H2231 0.930 . S
C2239 C2240 1.355 . S
C2239 C2241 1.415 . S
C2240 C2239 1.355 . S
C2240 C2242 1.419 . S
C2241 C2236 1.425 . S
C2241 C2238 1.409 . S
C2241 C2239 1.415 . S
C2242 H2232 0.930 . S
C2242 C2240 1.419 . S
C2242 C2243 1.362 . S
C2243 H2233 0.930 . S
C2243 C2236 1.409 . S
C2243 C2242 1.362 . S
H2244 C2250 0.930 . S
H2245 C2253 0.930 . S
H2246 C2254 0.930 . S
H2247 C2255 0.930 . S
H2248 C2258 0.930 . S
H2249 C2259 0.930 . S
C2250 H2244 0.930 . S
C2250 C2251 1.355 . S
C2250 C2252 1.415 . S
C2251 C2250 1.355 . S
C2251 C2253 1.419 . S
C2252 C2250 1.415 . S
C2252 C2257 1.425 . S
C2252 C2259 1.409 . S
C2253 H2245 0.930 . S
C2253 C2251 1.419 . S
C2253 C2254 1.362 . S
C2254 H2246 0.930 . S
C2254 C2253 1.362 . S
C2254 C2257 1.409 . S
C2255 H2247 0.930 . S
C2255 C2256 1.355 . S
C2255 C2257 1.415 . S
C2256 C2255 1.355 . S
C2256 C2258 1.419 . S
C2257 C2252 1.425 . S
C2257 C2254 1.409 . S
C2257 C2255 1.415 . S
C2258 H2248 0.930 . S
C2258 C2256 1.419 . S
C2258 C2259 1.362 . S
C2259 H2249 0.930 . S
C2259 C2252 1.409 . S
C2259 C2258 1.362 . S
C736 C381 1.137 . S
C731 C226 1.273 . S
C752 C384 1.479 . S
C747 C269 1.581 . S
C768 C372 1.068 . S
C763 C250 1.161 . S
C779 C205 1.738 . S
C784 C385 1.607 . S
C800 C416 1.216 . S
C795 C115 1.232 . S
C811 C136 1.752 . S
C816 C443 1.615 . S
C832 C415 1.115 . S
C827 C158 1.103 . S
C843 C97 1.659 . S
C848 C434 1.578 . S
C859 C314 1.258 . S
C864 C447 1.176 . S
C875 C336 1.756 . S
C880 C478 1.654 1_545 S
C896 C536 1.226 . S
C891 C180 1.242 . S
C912 C558 1.579 . S
C907 C294 1.673 . S
C928 C446 1.060 . S
C923 C70 1.095 . S
C944 C477 1.526 1_545 S
C939 C6 1.627 . S
C955 C31 1.087 . S
C960 C527 1.075 . S
C971 C53 1.707 . S
C976 C567 1.584 . S
C987 C29 1.300 . S
C992 C505 1.234 . S
C1008 C571 1.283 . S
C1003 C181 1.301 . S
C1019 C293 1.759 . S
C1024 C602 1.657 . S
C1040 C651 1.129 . S
C1035 C312 1.116 . S
C1051 C137 1.741 . S
C1056 C509 1.580 1_655 S
C1072 C570 1.044 . S
C1067 C225 1.128 . S
C1088 C601 1.534 . S
C1083 C270 1.623 . S
C1104 C682 1.595 . S
C1099 C206 1.679 . S
C1115 C72 1.234 . S
C1120 C412 1.178 . S
C1131 C4 1.614 . S
C1136 C353 1.529 1_554 S
C1152 C403 1.114 . S
C1147 C30 1.104 . S
C1163 C51 1.779 . S
C1168 C354 1.674 1_554 S
C1179 C313 1.250 . S
C1184 C695 1.158 . S
C1195 C334 1.790 . S
C1200 C722 1.674 1_556 S
C1216 C694 1.051 . S
C1211 C182 1.112 . S
C1227 C295 1.659 . S
C1232 C713 1.580 1_556 S
C1243 C116 1.264 . S
C1248 C629 1.170 . S
C1264 C633 1.641 . S
C1259 C138 1.749 . S
C1280 C664 1.203 . S
C1275 C159 1.244 . S
C1296 C589 1.535 1_565 S
C1291 C96 1.639 . S
C1312 C620 1.036 . S
C1307 C224 1.104 . S
C1323 C268 1.639 . S
C1328 C632 1.543 . S
C1339 C251 1.087 . S
C1344 C663 1.069 . S
C1360 C598 1.569 1_565 S
C1355 C207 1.699 . S
C1371 C249 1.260 . S
C1376 C660 1.183 . S
C1392 C540 1.271 . S
C1387 C160 1.274 . S
C1403 C95 1.750 . S
C1408 C474 1.644 1_455 S
C1419 C114 1.145 . S
C1424 C496 1.078 . S
C1435 C335 1.767 . S
C1440 C691 1.647 . S
C1451 C71 1.127 . S
C1456 C539 1.036 . S
C1467 C5 1.617 . S
C1472 C465 1.522 1_455 S
C1488 C508 1.530 1_655 S
C1483 C52 1.634 . S
C1504 C352 1.575 . S
C1499 C339 1.472 . S
C1520 C402 1.947 . S
C1515 C184 1.864 . S
C1536 C362 1.461 . S
C1531 C290 1.478 . S
C1552 C413 1.773 . S
C1547 C317 1.775 1_565 S
C1568 C433 1.539 . S
C1563 C204 1.486 . S
C1579 C228 1.739 . S
C1584 C424 1.722 . S
C1595 C272 1.392 . S
C1600 C444 1.360 . S
C1611 C248 1.876 1_565 S
C1616 C414 1.903 . S
C1632 C464 1.539 . S
C1627 C49 1.429 . S
C1648 C506 1.750 . S
C1643 C75 1.749 . S
C1659 C8 1.413 . S
C1664 C507 1.557 . S
C1680 C538 1.912 . S
C1675 C26 1.837 . S
C1691 C140 1.478 . S
C1696 C475 1.479 . S
C1712 C495 1.919 . S
C1707 C162 1.910 1_455 S
C1728 C517 1.449 . S
C1723 C94 1.445 . S
C1739 C117 1.829 1_655 S
C1744 C548 1.823 . S
C1760 C476 1.520 . S
C1755 C93 1.377 . S
C1771 C7 1.439 . S
C1776 C588 1.496 . S
C1787 C27 1.807 1_556 S
C1792 C630 1.803 . S
C1803 C48 1.425 . S
C1808 C641 1.404 . S
C1824 C537 1.764 . S
C1819 C227 1.775 . S
C1840 C599 1.460 . S
C1835 C337 1.458 . S
C1851 C183 1.823 . S
C1856 C619 1.880 . S
C1872 C662 1.928 . S
C1867 C316 1.879 . S
C1888 C383 1.618 . S
C1883 C141 1.505 . S
C1899 C161 1.863 1_545 S
C1904 C371 1.948 . S
C1915 C92 1.393 . S
C1920 C393 1.398 . S
C1931 C119 1.801 . S
C1936 C382 1.784 . S
C1952 C712 1.578 . S
C1947 C50 1.513 . S
C1968 C703 1.722 . S
C1963 C74 1.734 1_545 S
C1979 C9 1.362 . S
C1984 C723 1.332 . S
C1995 C28 1.834 . S
C2000 C693 1.914 . S
C2011 C203 1.496 . S
C2016 C600 1.582 . S
C2032 C661 1.753 . S
C2027 C229 1.754 1_655 S
C2048 C681 1.567 . S
C2043 C271 1.495 . S
C2059 C246 1.872 1_455 S
C2064 C569 1.898 . S
C2080 C610 1.436 . S
C2075 C338 1.468 . S
C2091 C185 1.908 . S
C2096 C650 1.918 . S
C2112 C692 1.465 . S
C2107 C292 1.469 . S
C2123 C315 1.802 . S
C2128 C579 1.785 . S
C2139 C291 1.385 . S
C2144 C631 1.491 . S
C2155 C273 1.455 . S
C2160 C557 1.501 . S
C2176 C455 1.761 . S
C2171 C247 1.759 . S
C2187 C202 1.497 . S
C2192 C486 1.502 . S
C2203 C73 1.815 1_556 S
C2208 C672 1.798 . S
C2219 C139 1.519 . S
C2224 C568 1.504 . S
C2240 C445 1.888 . S
C2235 C163 1.815 1_554 S
C2251 C118 1.882 1_554 S
C2256 C526 1.926 . S
