# Generated by pormake.
# Topology ibd, (4,6)-cn, num edge types: 1
# Building blocks:
#     Node 0, Type 0, BuildingBlock: NAHDIM_clean_sbu_0, # of connection points: 4
#     Node 1, Type 0, BuildingBlock: NAHDIM_clean_sbu_0, # of connection points: 4
#     Node 2, Type 0, BuildingBlock: NAHDIM_clean_sbu_0, # of connection points: 4
#     Node 3, Type 0, BuildingBlock: NAHDIM_clean_sbu_0, # of connection points: 4
#     Node 4, Type 0, BuildingBlock: NAHDIM_clean_sbu_0, # of connection points: 4
#     Node 5, Type 0, BuildingBlock: NAHDIM_clean_sbu_0, # of connection points: 4
#     Node 6, Type 0, BuildingBlock: NAHDIM_clean_sbu_0, # of connection points: 4
#     Node 7, Type 0, BuildingBlock: NAHDIM_clean_sbu_0, # of connection points: 4
#     Node 8, Type 0, BuildingBlock: NAHDIM_clean_sbu_0, # of connection points: 4
#     Node 9, Type 0, BuildingBlock: NAHDIM_clean_sbu_0, # of connection points: 4
#     Node 10, Type 0, BuildingBlock: NAHDIM_clean_sbu_0, # of connection points: 4
#     Node 11, Type 0, BuildingBlock: NAHDIM_clean_sbu_0, # of connection points: 4
#     Node 12, Type 0, BuildingBlock: NAHDIM_clean_sbu_0, # of connection points: 4
#     Node 13, Type 0, BuildingBlock: NAHDIM_clean_sbu_0, # of connection points: 4
#     Node 14, Type 0, BuildingBlock: NAHDIM_clean_sbu_0, # of connection points: 4
#     Node 15, Type 0, BuildingBlock: NAHDIM_clean_sbu_0, # of connection points: 4
#     Node 16, Type 0, BuildingBlock: NAHDIM_clean_sbu_0, # of connection points: 4
#     Node 17, Type 0, BuildingBlock: NAHDIM_clean_sbu_0, # of connection points: 4
#     Node 18, Type 0, BuildingBlock: NAHDIM_clean_sbu_0, # of connection points: 4
#     Node 19, Type 0, BuildingBlock: NAHDIM_clean_sbu_0, # of connection points: 4
#     Node 20, Type 0, BuildingBlock: NAHDIM_clean_sbu_0, # of connection points: 4
#     Node 21, Type 0, BuildingBlock: NAHDIM_clean_sbu_0, # of connection points: 4
#     Node 22, Type 0, BuildingBlock: NAHDIM_clean_sbu_0, # of connection points: 4
#     Node 23, Type 0, BuildingBlock: NAHDIM_clean_sbu_0, # of connection points: 4
#     Node 24, Type 1, BuildingBlock: OJICUG_clean_sbu_0, # of connection points: 6
#     Node 25, Type 1, BuildingBlock: OJICUG_clean_sbu_0, # of connection points: 6
#     Node 26, Type 1, BuildingBlock: OJICUG_clean_sbu_0, # of connection points: 6
#     Node 27, Type 1, BuildingBlock: OJICUG_clean_sbu_0, # of connection points: 6
#     Node 28, Type 1, BuildingBlock: OJICUG_clean_sbu_0, # of connection points: 6
#     Node 29, Type 1, BuildingBlock: OJICUG_clean_sbu_0, # of connection points: 6
#     Node 30, Type 1, BuildingBlock: OJICUG_clean_sbu_0, # of connection points: 6
#     Node 31, Type 1, BuildingBlock: OJICUG_clean_sbu_0, # of connection points: 6
#     Node 32, Type 1, BuildingBlock: OJICUG_clean_sbu_0, # of connection points: 6
#     Node 33, Type 1, BuildingBlock: OJICUG_clean_sbu_0, # of connection points: 6
#     Node 34, Type 1, BuildingBlock: OJICUG_clean_sbu_0, # of connection points: 6
#     Node 35, Type 1, BuildingBlock: OJICUG_clean_sbu_0, # of connection points: 6
#     Node 36, Type 1, BuildingBlock: OJICUG_clean_sbu_0, # of connection points: 6
#     Node 37, Type 1, BuildingBlock: OJICUG_clean_sbu_0, # of connection points: 6
#     Node 38, Type 1, BuildingBlock: OJICUG_clean_sbu_0, # of connection points: 6
#     Node 39, Type 1, BuildingBlock: OJICUG_clean_sbu_0, # of connection points: 6
#     Edge 40, Type (0, 1), BuildingBlock: AJUNOK_clean_linker_0, # of connection points: 2
#     Edge 41, Type (0, 1), BuildingBlock: AJUNOK_clean_linker_0, # of connection points: 2
#     Edge 42, Type (0, 1), BuildingBlock: AJUNOK_clean_linker_0, # of connection points: 2
#     Edge 43, Type (0, 1), BuildingBlock: AJUNOK_clean_linker_0, # of connection points: 2
#     Edge 44, Type (0, 1), BuildingBlock: AJUNOK_clean_linker_0, # of connection points: 2
#     Edge 45, Type (0, 1), BuildingBlock: AJUNOK_clean_linker_0, # of connection points: 2
#     Edge 46, Type (0, 1), BuildingBlock: AJUNOK_clean_linker_0, # of connection points: 2
#     Edge 47, Type (0, 1), BuildingBlock: AJUNOK_clean_linker_0, # of connection points: 2
#     Edge 48, Type (0, 1), BuildingBlock: AJUNOK_clean_linker_0, # of connection points: 2
#     Edge 49, Type (0, 1), BuildingBlock: AJUNOK_clean_linker_0, # of connection points: 2
#     Edge 50, Type (0, 1), BuildingBlock: AJUNOK_clean_linker_0, # of connection points: 2
#     Edge 51, Type (0, 1), BuildingBlock: AJUNOK_clean_linker_0, # of connection points: 2
#     Edge 52, Type (0, 1), BuildingBlock: AJUNOK_clean_linker_0, # of connection points: 2
#     Edge 53, Type (0, 1), BuildingBlock: AJUNOK_clean_linker_0, # of connection points: 2
#     Edge 54, Type (0, 1), BuildingBlock: AJUNOK_clean_linker_0, # of connection points: 2
#     Edge 55, Type (0, 1), BuildingBlock: AJUNOK_clean_linker_0, # of connection points: 2
#     Edge 56, Type (0, 1), BuildingBlock: AJUNOK_clean_linker_0, # of connection points: 2
#     Edge 57, Type (0, 1), BuildingBlock: AJUNOK_clean_linker_0, # of connection points: 2
#     Edge 58, Type (0, 1), BuildingBlock: AJUNOK_clean_linker_0, # of connection points: 2
#     Edge 59, Type (0, 1), BuildingBlock: AJUNOK_clean_linker_0, # of connection points: 2
#     Edge 60, Type (0, 1), BuildingBlock: AJUNOK_clean_linker_0, # of connection points: 2
#     Edge 61, Type (0, 1), BuildingBlock: AJUNOK_clean_linker_0, # of connection points: 2
#     Edge 62, Type (0, 1), BuildingBlock: AJUNOK_clean_linker_0, # of connection points: 2
#     Edge 63, Type (0, 1), BuildingBlock: AJUNOK_clean_linker_0, # of connection points: 2
#     Edge 64, Type (0, 1), BuildingBlock: AJUNOK_clean_linker_0, # of connection points: 2
#     Edge 65, Type (0, 1), BuildingBlock: AJUNOK_clean_linker_0, # of connection points: 2
#     Edge 66, Type (0, 1), BuildingBlock: AJUNOK_clean_linker_0, # of connection points: 2
#     Edge 67, Type (0, 1), BuildingBlock: AJUNOK_clean_linker_0, # of connection points: 2
#     Edge 68, Type (0, 1), BuildingBlock: AJUNOK_clean_linker_0, # of connection points: 2
#     Edge 69, Type (0, 1), BuildingBlock: AJUNOK_clean_linker_0, # of connection points: 2
#     Edge 70, Type (0, 1), BuildingBlock: AJUNOK_clean_linker_0, # of connection points: 2
#     Edge 71, Type (0, 1), BuildingBlock: AJUNOK_clean_linker_0, # of connection points: 2
#     Edge 72, Type (0, 1), BuildingBlock: AJUNOK_clean_linker_0, # of connection points: 2
#     Edge 73, Type (0, 1), BuildingBlock: AJUNOK_clean_linker_0, # of connection points: 2
#     Edge 74, Type (0, 1), BuildingBlock: AJUNOK_clean_linker_0, # of connection points: 2
#     Edge 75, Type (0, 1), BuildingBlock: AJUNOK_clean_linker_0, # of connection points: 2
#     Edge 76, Type (0, 1), BuildingBlock: AJUNOK_clean_linker_0, # of connection points: 2
#     Edge 77, Type (0, 1), BuildingBlock: AJUNOK_clean_linker_0, # of connection points: 2
#     Edge 78, Type (0, 1), BuildingBlock: AJUNOK_clean_linker_0, # of connection points: 2
#     Edge 79, Type (0, 1), BuildingBlock: AJUNOK_clean_linker_0, # of connection points: 2
#     Edge 80, Type (0, 1), BuildingBlock: AJUNOK_clean_linker_0, # of connection points: 2
#     Edge 81, Type (0, 1), BuildingBlock: AJUNOK_clean_linker_0, # of connection points: 2
#     Edge 82, Type (0, 1), BuildingBlock: AJUNOK_clean_linker_0, # of connection points: 2
#     Edge 83, Type (0, 1), BuildingBlock: AJUNOK_clean_linker_0, # of connection points: 2
#     Edge 84, Type (0, 1), BuildingBlock: AJUNOK_clean_linker_0, # of connection points: 2
#     Edge 85, Type (0, 1), BuildingBlock: AJUNOK_clean_linker_0, # of connection points: 2
#     Edge 86, Type (0, 1), BuildingBlock: AJUNOK_clean_linker_0, # of connection points: 2
#     Edge 87, Type (0, 1), BuildingBlock: AJUNOK_clean_linker_0, # of connection points: 2
#     Edge 88, Type (0, 1), BuildingBlock: AJUNOK_clean_linker_0, # of connection points: 2
#     Edge 89, Type (0, 1), BuildingBlock: AJUNOK_clean_linker_0, # of connection points: 2
#     Edge 90, Type (0, 1), BuildingBlock: AJUNOK_clean_linker_0, # of connection points: 2
#     Edge 91, Type (0, 1), BuildingBlock: AJUNOK_clean_linker_0, # of connection points: 2
#     Edge 92, Type (0, 1), BuildingBlock: AJUNOK_clean_linker_0, # of connection points: 2
#     Edge 93, Type (0, 1), BuildingBlock: AJUNOK_clean_linker_0, # of connection points: 2
#     Edge 94, Type (0, 1), BuildingBlock: AJUNOK_clean_linker_0, # of connection points: 2
#     Edge 95, Type (0, 1), BuildingBlock: AJUNOK_clean_linker_0, # of connection points: 2
#     Edge 96, Type (0, 1), BuildingBlock: AJUNOK_clean_linker_0, # of connection points: 2
#     Edge 97, Type (0, 1), BuildingBlock: AJUNOK_clean_linker_0, # of connection points: 2
#     Edge 98, Type (0, 1), BuildingBlock: AJUNOK_clean_linker_0, # of connection points: 2
#     Edge 99, Type (0, 1), BuildingBlock: AJUNOK_clean_linker_0, # of connection points: 2
#     Edge 100, Type (0, 1), BuildingBlock: AJUNOK_clean_linker_0, # of connection points: 2
#     Edge 101, Type (0, 1), BuildingBlock: AJUNOK_clean_linker_0, # of connection points: 2
#     Edge 102, Type (0, 1), BuildingBlock: AJUNOK_clean_linker_0, # of connection points: 2
#     Edge 103, Type (0, 1), BuildingBlock: AJUNOK_clean_linker_0, # of connection points: 2
#     Edge 104, Type (0, 1), BuildingBlock: AJUNOK_clean_linker_0, # of connection points: 2
#     Edge 105, Type (0, 1), BuildingBlock: AJUNOK_clean_linker_0, # of connection points: 2
#     Edge 106, Type (0, 1), BuildingBlock: AJUNOK_clean_linker_0, # of connection points: 2
#     Edge 107, Type (0, 1), BuildingBlock: AJUNOK_clean_linker_0, # of connection points: 2
#     Edge 108, Type (0, 1), BuildingBlock: AJUNOK_clean_linker_0, # of connection points: 2
#     Edge 109, Type (0, 1), BuildingBlock: AJUNOK_clean_linker_0, # of connection points: 2
#     Edge 110, Type (0, 1), BuildingBlock: AJUNOK_clean_linker_0, # of connection points: 2
#     Edge 111, Type (0, 1), BuildingBlock: AJUNOK_clean_linker_0, # of connection points: 2
#     Edge 112, Type (0, 1), BuildingBlock: AJUNOK_clean_linker_0, # of connection points: 2
#     Edge 113, Type (0, 1), BuildingBlock: AJUNOK_clean_linker_0, # of connection points: 2
#     Edge 114, Type (0, 1), BuildingBlock: AJUNOK_clean_linker_0, # of connection points: 2
#     Edge 115, Type (0, 1), BuildingBlock: AJUNOK_clean_linker_0, # of connection points: 2
#     Edge 116, Type (0, 1), BuildingBlock: AJUNOK_clean_linker_0, # of connection points: 2
#     Edge 117, Type (0, 1), BuildingBlock: AJUNOK_clean_linker_0, # of connection points: 2
#     Edge 118, Type (0, 1), BuildingBlock: AJUNOK_clean_linker_0, # of connection points: 2
#     Edge 119, Type (0, 1), BuildingBlock: AJUNOK_clean_linker_0, # of connection points: 2
#     Edge 120, Type (0, 1), BuildingBlock: AJUNOK_clean_linker_0, # of connection points: 2
#     Edge 121, Type (0, 1), BuildingBlock: AJUNOK_clean_linker_0, # of connection points: 2
#     Edge 122, Type (0, 1), BuildingBlock: AJUNOK_clean_linker_0, # of connection points: 2
#     Edge 123, Type (0, 1), BuildingBlock: AJUNOK_clean_linker_0, # of connection points: 2
#     Edge 124, Type (0, 1), BuildingBlock: AJUNOK_clean_linker_0, # of connection points: 2
#     Edge 125, Type (0, 1), BuildingBlock: AJUNOK_clean_linker_0, # of connection points: 2
#     Edge 126, Type (0, 1), BuildingBlock: AJUNOK_clean_linker_0, # of connection points: 2
#     Edge 127, Type (0, 1), BuildingBlock: AJUNOK_clean_linker_0, # of connection points: 2
#     Edge 128, Type (0, 1), BuildingBlock: AJUNOK_clean_linker_0, # of connection points: 2
#     Edge 129, Type (0, 1), BuildingBlock: AJUNOK_clean_linker_0, # of connection points: 2
#     Edge 130, Type (0, 1), BuildingBlock: AJUNOK_clean_linker_0, # of connection points: 2
#     Edge 131, Type (0, 1), BuildingBlock: AJUNOK_clean_linker_0, # of connection points: 2
#     Edge 132, Type (0, 1), BuildingBlock: AJUNOK_clean_linker_0, # of connection points: 2
#     Edge 133, Type (0, 1), BuildingBlock: AJUNOK_clean_linker_0, # of connection points: 2
#     Edge 134, Type (0, 1), BuildingBlock: AJUNOK_clean_linker_0, # of connection points: 2
#     Edge 135, Type (0, 1), BuildingBlock: AJUNOK_clean_linker_0, # of connection points: 2
# Relax obj value: 0.382
# Max RMSD: 0.298
# Mean RMSD: 0.288
data_MOF--net-ibd--node1-NAHDIM_clean_sbu_0--node2-OJICUG_clean_sbu_0--edge1-AJUNOK_clean_linker_0
_symmetry_space_group_name_H-M    P1
_symmetry_Int_Tables_number       1
_symmetry_cell_setting            triclinic
loop_
_symmetry_equiv_pos_as_xyz
'x, y, z'
_cell_length_a     36.316369
_cell_length_b     36.221912
_cell_length_c     36.199127
_cell_angle_alpha  90.890338
_cell_angle_beta   90.814246
_cell_angle_gamma 91.76591
loop_
_atom_site_label
_atom_site_type_symbol
_atom_site_fract_x
_atom_site_fract_y
_atom_site_fract_z
_atom_type_partial_charge
C0 C 0.04246 0.18658 0.35717 0.0
O1 O 0.04681 0.22253 0.3615 0.0
O2 O 0.00361 0.24806 0.41766 0.0
Zn3 Zn 0.97671 0.20663 0.3898 0.0
O4 O 0.95541 0.22828 0.34378 0.0
C5 C 0.91668 0.20266 0.44065 0.0
O6 O 0.91406 0.23724 0.4309 0.0
O7 O 0.01385 0.17091 0.37044 0.0
C8 C 0.92385 0.238 0.33288 0.0
O9 O 0.89539 0.23423 0.35463 0.0
C10 C 0.99371 0.28144 0.41737 0.0
O11 O 0.96423 0.29026 0.39845 0.0
O12 O 0.94041 0.18286 0.42492 0.0
C13 C 0.09202 0.65385 0.6567 0.0
O14 O 0.07273 0.63071 0.63524 0.0
O15 O 0.01989 0.66945 0.59344 0.0
Zn16 Zn 0.04945 0.70878 0.62072 0.0
O17 O 0.01734 0.73207 0.65852 0.0
C18 C 0.04219 0.75773 0.56148 0.0
O19 O 0.00849 0.74393 0.56396 0.0
O20 O 0.09027 0.68822 0.65089 0.0
C21 C 0.983 0.73778 0.65691 0.0
O22 O 0.96425 0.72987 0.62639 0.0
C23 C 0.99327 0.65039 0.60647 0.0
O24 O 0.98557 0.6533 0.64172 0.0
O25 O 0.06661 0.74684 0.58403 0.0
C26 C 0.5184 0.69702 0.81093 0.0
O27 O 0.51914 0.73333 0.81186 0.0
O28 O 0.51528 0.75074 0.89567 0.0
Zn29 Zn 0.47848 0.71314 0.87369 0.0
O30 O 0.43972 0.74048 0.84561 0.0
C31 C 0.47975 0.6716 0.93906 0.0
O32 O 0.51512 0.67407 0.93201 0.0
O33 O 0.50299 0.67995 0.83719 0.0
C34 C 0.42192 0.72639 0.81813 0.0
O35 O 0.42602 0.69134 0.80978 0.0
C36 C 0.50573 0.78387 0.90098 0.0
O37 O 0.47268 0.79327 0.89023 0.0
O38 O 0.45719 0.685 0.91607 0.0
C39 C 0.56028 0.17578 0.1571 0.0
O40 O 0.54491 0.15736 0.12909 0.0
O41 O 0.4917 0.20417 0.09607 0.0
Zn42 Zn 0.52204 0.23918 0.12779 0.0
O43 O 0.48804 0.26338 0.16323 0.0
C44 C 0.53384 0.29696 0.07448 0.0
O45 O 0.49769 0.29683 0.07491 0.0
O46 O 0.55597 0.21042 0.15986 0.0
C47 C 0.45465 0.27221 0.15875 0.0
O48 O 0.43902 0.26993 0.12583 0.0
C49 C 0.46382 0.18582 0.10751 0.0
O50 O 0.45368 0.18894 0.14206 0.0
O51 O 0.55056 0.27525 0.09583 0.0
C52 C 0.01199 0.71235 0.10222 0.0
O53 O 0.02817 0.71476 0.1349 0.0
O54 O 0.0214 0.79494 0.15146 0.0
Zn55 Zn 0.97431 0.77578 0.12898 0.0
O56 O 0.95215 0.81498 0.09857 0.0
C57 C 0.93828 0.77951 0.19837 0.0
O58 O 0.95611 0.81162 0.19985 0.0
O59 O 0.98644 0.73432 0.09469 0.0
C60 C 0.96277 0.84871 0.098 0.0
O61 O 0.98794 0.86149 0.12161 0.0
C62 C 0.04915 0.80983 0.13591 0.0
O63 O 0.04904 0.81502 0.10011 0.0
O64 O 0.94085 0.75929 0.16953 0.0
C65 C 0.5749 0.73922 0.38627 0.0
O66 O 0.55423 0.73908 0.35625 0.0
O67 O 0.5182 0.80731 0.35957 0.0
Zn68 Zn 0.56626 0.81874 0.38601 0.0
O69 O 0.5572 0.84852 0.43205 0.0
C70 C 0.58281 0.87005 0.33276 0.0
O71 O 0.55165 0.88163 0.34589 0.0
O72 O 0.58527 0.76972 0.4016 0.0
C73 C 0.55892 0.8828 0.44021 0.0
O74 O 0.56928 0.90705 0.41557 0.0
C75 C 0.49205 0.7873 0.37217 0.0
O76 O 0.49358 0.77727 0.40686 0.0
O77 O 0.59822 0.84346 0.34861 0.0
C78 C 0.58264 0.17414 0.59877 0.0
O79 O 0.60748 0.18467 0.62381 0.0
O80 O 0.58229 0.25897 0.65297 0.0
Zn81 Zn 0.5393 0.23614 0.62525 0.0
O82 O 0.51897 0.272 0.58963 0.0
C83 C 0.49638 0.24022 0.69099 0.0
O84 O 0.51778 0.26961 0.69736 0.0
O85 O 0.5531 0.19175 0.59578 0.0
C86 C 0.49821 0.2987 0.59678 0.0
O87 O 0.48848 0.30525 0.63099 0.0
C88 C 0.59771 0.28984 0.64535 0.0
O89 O 0.58799 0.30661 0.61499 0.0
O90 O 0.50051 0.22147 0.66147 0.0
C91 C 0.07308 0.2322 0.9412 0.0
O92 O 0.03898 0.24317 0.94255 0.0
O93 O 0.02204 0.27021 0.87342 0.0
Zn94 Zn 0.07124 0.2905 0.89231 0.0
O95 O 0.06319 0.33121 0.92943 0.0
C96 C 0.10993 0.34096 0.84139 0.0
O97 O 0.11329 0.36427 0.86946 0.0
O98 O 0.09523 0.24877 0.91954 0.0
C99 C 0.04863 0.36224 0.92435 0.0
O100 O 0.03852 0.37146 0.89087 0.0
C101 C 0.00424 0.28707 0.84878 0.0
O102 O 0.01756 0.31888 0.83718 0.0
O103 O 0.0972 0.30842 0.84676 0.0
C104 C 0.39327 0.99506 0.17453 0.0
O105 O 0.36675 0.97284 0.18606 0.0
O106 O 0.33081 0.01654 0.25126 0.0
Zn107 Zn 0.38188 0.03756 0.24286 0.0
O108 O 0.41327 0.01583 0.28128 0.0
C109 C 0.36442 0.1159 0.24984 0.0
O110 O 0.37122 0.1503 0.26048 0.0
O111 O 0.40228 0.02385 0.19348 0.0
C112 C 0.40597 0.02092 0.31517 0.0
O113 O 0.37709 0.03992 0.32415 0.0
C114 C 0.3288 0.98387 0.2637 0.0
O115 O 0.35893 0.96512 0.26767 0.0
O116 O 0.38925 0.09237 0.25324 0.0
C117 C 0.29518 0.1039 0.56658 0.0
O118 O 0.30927 0.13028 0.54617 0.0
O119 O 0.25149 0.17021 0.51345 0.0
Zn120 Zn 0.22484 0.1328 0.54379 0.0
O121 O 0.19105 0.10297 0.51015 0.0
C122 C 0.16317 0.16431 0.58304 0.0
O123 O 0.14191 0.14187 0.56271 0.0
O124 O 0.26041 0.10032 0.56944 0.0
C125 C 0.17379 0.07438 0.52124 0.0
O126 O 0.17744 0.06494 0.55598 0.0
C127 C 0.25999 0.16638 0.47974 0.0
O128 O 0.25216 0.13496 0.46234 0.0
O129 O 0.19786 0.16226 0.58075 0.0
C130 C 0.16117 0.94689 0.65907 0.0
O131 O 0.13603 0.9273 0.67647 0.0
O132 O 0.11675 0.96579 0.73892 0.0
Zn133 Zn 0.13576 0.00592 0.70563 0.0
O134 O 0.17022 0.04153 0.73267 0.0
C135 C 0.06348 0.03158 0.70579 0.0
O136 O 0.06446 0.01387 0.73706 0.0
O137 O 0.16418 0.98152 0.66529 0.0
C138 C 0.16109 0.06722 0.75472 0.0
O139 O 0.12617 0.07155 0.76211 0.0
C140 C 0.11613 0.96412 0.77395 0.0
O141 O 0.1334 0.99004 0.79387 0.0
O142 O 0.0921 0.0333 0.68601 0.0
C143 C 0.33833 0.85711 0.06055 0.0
O144 O 0.35614 0.88187 0.04092 0.0
O145 O 0.29258 0.90253 0.98294 0.0
Zn146 Zn 0.27294 0.85934 0.01004 0.0
O147 O 0.26137 0.81465 0.97896 0.0
C148 C 0.20519 0.89557 0.01679 0.0
O149 O 0.20893 0.8986 0.98091 0.0
O150 O 0.30621 0.84571 0.05082 0.0
C151 C 0.24713 0.81372 0.94675 0.0
O152 O 0.2404 0.84484 0.93017 0.0
C153 C 0.30928 0.90514 0.95255 0.0
O154 O 0.31784 0.8751 0.93422 0.0
O155 O 0.22785 0.87641 0.03455 0.0
C156 C 0.17489 0.39586 0.01977 0.0
O157 O 0.17606 0.3615 0.00778 0.0
O158 O 0.26513 0.35209 0.01424 0.0
Zn159 Zn 0.24567 0.3828 0.0565 0.0
O160 O 0.2825 0.42114 0.07683 0.0
C161 C 0.24862 0.32449 0.10984 0.0
O162 O 0.28403 0.32548 0.10284 0.0
O163 O 0.20135 0.40961 0.0394 0.0
C164 C 0.28712 0.4278 0.11123 0.0
O165 O 0.26918 0.40726 0.135 0.0
C166 C 0.299 0.34951 0.00656 0.0
O167 O 0.32355 0.36916 0.02603 0.0
O168 O 0.22818 0.34787 0.09473 0.0
C169 C 0.78645 0.19323 0.90425 0.0
O170 O 0.82141 0.20078 0.91173 0.0
O171 O 0.83058 0.10044 0.93579 0.0
Zn172 Zn 0.79611 0.1365 0.95714 0.0
O173 O 0.82101 0.17262 0.99291 0.0
C174 C 0.72748 0.0965 0.96466 0.0
O175 O 0.72689 0.09939 0.92853 0.0
O176 O 0.77127 0.16505 0.91847 0.0
C177 C 0.85533 0.17971 0.99699 0.0
O178 O 0.87873 0.1613 0.97704 0.0
C179 C 0.83916 0.0976 0.90196 0.0
O180 O 0.8263 0.1212 0.87821 0.0
O181 O 0.75526 0.10936 0.98302 0.0
C182 C 0.07571 0.54764 0.34854 0.0
O183 O 0.07573 0.51303 0.33709 0.0
O184 O 0.16936 0.50831 0.33093 0.0
Zn185 Zn 0.14042 0.54827 0.30789 0.0
O186 O 0.11297 0.52441 0.26488 0.0
C187 C 0.16861 0.61472 0.27073 0.0
O188 O 0.13537 0.61771 0.25659 0.0
O189 O 0.10338 0.56859 0.34192 0.0
C190 C 0.08283 0.53599 0.25218 0.0
O191 O 0.07055 0.56743 0.26486 0.0
C192 C 0.1836 0.48611 0.30804 0.0
O193 O 0.17852 0.49139 0.27255 0.0
O194 O 0.17543 0.58828 0.29217 0.0
C195 C 0.67594 0.87824 0.51112 0.0
O196 O 0.68749 0.84468 0.50524 0.0
O197 O 0.75731 0.84736 0.55476 0.0
Zn198 Zn 0.72 0.87882 0.5794 0.0
O199 O 0.7401 0.92444 0.60505 0.0
C200 C 0.71018 0.8192 0.62523 0.0
O201 O 0.74618 0.82358 0.6276 0.0
O202 O 0.68582 0.89593 0.54036 0.0
C203 C 0.77177 0.93182 0.61894 0.0
O204 O 0.79644 0.90607 0.61987 0.0
C205 C 0.77199 0.8525 0.52356 0.0
O206 O 0.76709 0.88369 0.50639 0.0
O207 O 0.69171 0.84506 0.61175 0.0
C208 C 0.83748 0.11842 0.26189 0.0
O209 O 0.83478 0.15448 0.26252 0.0
O210 O 0.89488 0.02354 0.28794 0.0
Zn211 Zn 0.87131 0.04946 0.24502 0.0
O212 O 0.82403 0.02541 0.22712 0.0
C213 C 0.91396 0.01507 0.18787 0.0
O214 O 0.89679 0.98408 0.19664 0.0
O215 O 0.86741 0.10425 0.25242 0.0
C216 C 0.81473 0.03184 0.19394 0.0
O217 O 0.83525 0.05474 0.17465 0.0
C218 C 0.89153 0.9886 0.29047 0.0
O219 O 0.86786 0.97063 0.26849 0.0
O220 O 0.9066 0.04492 0.20449 0.0
C221 C 0.22281 0.66962 0.38768 0.0
O222 O 0.2035 0.63939 0.39487 0.0
O223 O 0.31745 0.61105 0.41882 0.0
Zn224 Zn 0.28088 0.64535 0.44096 0.0
O225 O 0.30785 0.68378 0.47259 0.0
C226 C 0.23405 0.58341 0.45842 0.0
O227 O 0.24519 0.57291 0.42562 0.0
O228 O 0.25458 0.67466 0.40246 0.0
C229 C 0.31751 0.68236 0.5064 0.0
O230 O 0.30942 0.65261 0.52532 0.0
C231 C 0.34684 0.60368 0.4364 0.0
O232 O 0.35501 0.62152 0.46737 0.0
O233 O 0.24511 0.61481 0.47119 0.0
C234 C 0.32754 0.51856 0.81063 0.0
O235 O 0.35078 0.49729 0.82758 0.0
O236 O 0.41248 0.48377 0.77594 0.0
Zn237 Zn 0.36771 0.49657 0.74625 0.0
O238 O 0.3393 0.45159 0.72879 0.0
C239 C 0.37341 0.52161 0.66879 0.0
O240 O 0.3455 0.49891 0.66073 0.0
O241 O 0.33135 0.52448 0.77635 0.0
C242 C 0.34656 0.42882 0.70311 0.0
O243 O 0.37877 0.43109 0.68709 0.0
C244 C 0.41566 0.4543 0.79412 0.0
O245 O 0.38776 0.43037 0.79481 0.0
O246 O 0.38503 0.52536 0.70203 0.0
C247 C 0.57517 0.00516 0.87118 0.0
O248 O 0.57091 0.97148 0.85747 0.0
O249 O 0.66752 0.96422 0.83071 0.0
Zn250 Zn 0.63455 0.00649 0.82184 0.0
O251 O 0.59886 0.98986 0.78167 0.0
C252 C 0.65632 0.08219 0.80122 0.0
O253 O 0.62143 0.09027 0.80343 0.0
O254 O 0.6051 0.02282 0.86497 0.0
C255 C 0.56879 0.00582 0.77571 0.0
O256 O 0.56232 0.03669 0.79361 0.0
C257 C 0.68108 0.95103 0.80125 0.0
O258 O 0.67138 0.96503 0.76943 0.0
O259 O 0.6664 0.04944 0.80688 0.0
C260 C 0.82395 0.61502 0.0787 0.0
O261 O 0.8419 0.6389 0.0582 0.0
O262 O 0.7858 0.67295 0.00788 0.0
Zn263 Zn 0.75694 0.64345 0.04474 0.0
O264 O 0.72405 0.60689 0.01773 0.0
C265 C 0.74121 0.70885 0.08383 0.0
O266 O 0.77721 0.71265 0.08178 0.0
O267 O 0.78895 0.61438 0.07849 0.0
C268 C 0.70751 0.61305 0.98742 0.0
O269 O 0.71109 0.64579 0.97254 0.0
C270 C 0.80879 0.66272 0.98391 0.0
O271 O 0.81749 0.62786 0.98127 0.0
O272 O 0.72578 0.67903 0.07183 0.0
C273 C 0.91645 0.52959 0.66632 0.0
O274 O 0.88515 0.53187 0.64799 0.0
O275 O 0.85513 0.48314 0.74929 0.0
Zn276 Zn 0.87327 0.53332 0.73459 0.0
O277 O 0.8905 0.56238 0.77918 0.0
C278 C 0.79871 0.54896 0.72349 0.0
O279 O 0.79667 0.53139 0.75491 0.0
O280 O 0.91655 0.52963 0.70139 0.0
C281 C 0.88202 0.55691 0.81262 0.0
O282 O 0.8559 0.5326 0.82055 0.0
C283 C 0.8663 0.4633 0.77551 0.0
O284 O 0.89742 0.47236 0.79276 0.0
O285 O 0.8302 0.55561 0.70973 0.0
C286 C 0.76661 0.35438 0.56178 0.0
O287 O 0.73837 0.37531 0.56789 0.0
O288 O 0.77632 0.40039 0.46208 0.0
Zn289 Zn 0.74725 0.35866 0.48338 0.0
O290 O 0.74286 0.3133 0.45093 0.0
C291 C 0.6812 0.39972 0.47721 0.0
O292 O 0.695 0.40739 0.44478 0.0
O293 O 0.77427 0.34474 0.52896 0.0
C294 C 0.7217 0.30903 0.42289 0.0
O295 O 0.70199 0.33678 0.41214 0.0
C296 C 0.78202 0.40749 0.42843 0.0
O297 O 0.76903 0.38466 0.40254 0.0
O298 O 0.6979 0.37736 0.49776 0.0
C299 C 0.68301 0.41518 0.19631 0.0
O300 O 0.66016 0.39124 0.21146 0.0
O301 O 0.62287 0.42612 0.2696 0.0
Zn302 Zn 0.64967 0.46752 0.24505 0.0
O303 O 0.67545 0.50206 0.28165 0.0
C304 C 0.58634 0.50666 0.24359 0.0
O305 O 0.5894 0.4974 0.27842 0.0
O306 O 0.68351 0.44879 0.20688 0.0
C307 C 0.67823 0.53613 0.27377 0.0
O308 O 0.66668 0.54685 0.24121 0.0
C309 C 0.61807 0.42248 0.30402 0.0
O310 O 0.6375 0.44343 0.3275 0.0
O311 O 0.61041 0.49618 0.221 0.0
Sc312 Sc 0.10265 0.13656 0.14479 0.0
Sc313 Sc 0.14125 0.0571 0.17971 0.0
Sc314 Sc 0.18393 0.10472 0.10909 0.0
O315 O 0.14209 0.09944 0.14444 0.0
C316 C 0.11861 0.13784 0.06061 0.0
C317 C 0.05895 0.05862 0.1546 0.0
C318 C 0.1651 0.02127 0.10285 0.0
C319 C 0.10983 0.12145 0.23013 0.0
C320 C 0.17813 0.18501 0.13949 0.0
C321 C 0.22394 0.07873 0.18117 0.0
O322 O 0.09489 0.1342 0.08581 0.0
O323 O 0.0871 0.0402 0.16249 0.0
O324 O 0.16914 0.05168 0.08605 0.0
O325 O 0.1063 0.14354 0.20355 0.0
O326 O 0.19849 0.15797 0.13205 0.0
O327 O 0.19486 0.0737 0.19952 0.0
O328 O 0.14297 0.18194 0.14066 0.0
O329 O 0.1193 0.08822 0.22557 0.0
O330 O 0.22352 0.0808 0.14619 0.0
O331 O 0.06006 0.09348 0.1495 0.0
O332 O 0.15227 0.13079 0.06618 0.0
O333 O 0.16198 0.01973 0.13787 0.0
Sc334 Sc 0.15379 0.88376 0.39228 0.0
Sc335 Sc 0.07404 0.84827 0.34906 0.0
Sc336 Sc 0.10634 0.93818 0.32924 0.0
O337 O 0.11114 0.89043 0.35713 0.0
C338 C 0.12941 0.965 0.41139 0.0
C339 C 0.08549 0.84405 0.43409 0.0
C340 C 0.02247 0.91855 0.34102 0.0
C341 C 0.14935 0.80458 0.35732 0.0
C342 C 0.19264 0.93054 0.32847 0.0
C343 C 0.09297 0.87415 0.26833 0.0
O344 O 0.14224 0.93411 0.42045 0.0
O345 O 0.06292 0.84497 0.40691 0.0
O346 O 0.04902 0.9419 0.33985 0.0
O347 O 0.16859 0.83319 0.36629 0.0
O348 O 0.16266 0.94109 0.31479 0.0
O349 O 0.08527 0.84941 0.29176 0.0
O350 O 0.19399 0.9113 0.35754 0.0
O351 O 0.11439 0.80517 0.35415 0.0
O352 O 0.09697 0.90841 0.27687 0.0
O353 O 0.11928 0.85436 0.43154 0.0
O354 O 0.1169 0.97145 0.37905 0.0
O355 O 0.02716 0.88386 0.34172 0.0
Sc356 Sc 0.43867 0.85413 0.63532 0.0
Sc357 Sc 0.37788 0.90108 0.57816 0.0
Sc358 Sc 0.37063 0.90898 0.67356 0.0
O359 O 0.39598 0.88788 0.62906 0.0
C360 C 0.39188 0.83018 0.70455 0.0
C361 C 0.38693 0.81435 0.57304 0.0
C362 C 0.30258 0.89471 0.62359 0.0
C363 C 0.46401 0.8955 0.56312 0.0
C364 C 0.45536 0.92116 0.69319 0.0
C365 C 0.37017 0.97641 0.61666 0.0
O366 O 0.41316 0.8231 0.67817 0.0
O367 O 0.37051 0.84362 0.56425 0.0
O368 O 0.31795 0.88765 0.65433 0.0
O369 O 0.47115 0.87953 0.59315 0.0
O370 O 0.42215 0.93138 0.69422 0.0
O371 O 0.38454 0.95887 0.59017 0.0
O372 O 0.46524 0.89278 0.67478 0.0
O373 O 0.43147 0.90303 0.55337 0.0
O374 O 0.36057 0.96081 0.64647 0.0
O375 O 0.41353 0.81396 0.59654 0.0
O376 O 0.37606 0.86082 0.70777 0.0
O377 O 0.32093 0.90292 0.59502 0.0
Sc378 Sc 0.36817 0.10601 0.83892 0.0
Sc379 Sc 0.41142 0.17229 0.89636 0.0
Sc380 Sc 0.32283 0.13896 0.91655 0.0
O381 O 0.36718 0.13966 0.88361 0.0
C382 C 0.28667 0.12917 0.83498 0.0
C383 C 0.41054 0.17913 0.81045 0.0
C384 C 0.34312 0.2233 0.91848 0.0
C385 C 0.44761 0.09661 0.87208 0.0
C386 C 0.33044 0.05456 0.89871 0.0
C387 C 0.38927 0.14596 0.97498 0.0
O388 O 0.31719 0.12621 0.8186 0.0
O389 O 0.4135 0.19497 0.84198 0.0
O390 O 0.31827 0.19794 0.91415 0.0
O391 O 0.41837 0.08276 0.85734 0.0
O392 O 0.32584 0.0804 0.92219 0.0
O393 O 0.4136 0.15148 0.9508 0.0
O394 O 0.34033 0.06064 0.86579 0.0
O395 O 0.45064 0.13038 0.88237 0.0
O396 O 0.35492 0.14521 0.96749 0.0
O397 O 0.39729 0.1464 0.80615 0.0
O398 O 0.28459 0.13143 0.87008 0.0
O399 O 0.37732 0.21727 0.9145 0.0
Sc400 Sc 0.68495 0.3957 0.91385 0.0
Sc401 Sc 0.61343 0.34846 0.86483 0.0
Sc402 Sc 0.64694 0.4342 0.83382 0.0
O403 O 0.64804 0.39304 0.87114 0.0
C404 C 0.6622 0.47877 0.91028 0.0
C405 C 0.61355 0.35969 0.95193 0.0
C406 C 0.56196 0.41596 0.84404 0.0
C407 C 0.68964 0.31282 0.88635 0.0
C408 C 0.73241 0.42357 0.84574 0.0
C409 C 0.63437 0.36314 0.78158 0.0
O410 O 0.6705 0.45064 0.92882 0.0
O411 O 0.59768 0.35017 0.92164 0.0
O412 O 0.58834 0.43912 0.83853 0.0
O413 O 0.7034 0.34201 0.90127 0.0
O414 O 0.70482 0.43061 0.82543 0.0
O415 O 0.62593 0.34183 0.80777 0.0
O416 O 0.72967 0.4151 0.87956 0.0
O417 O 0.6564 0.30972 0.87497 0.0
O418 O 0.63995 0.39766 0.78633 0.0
O419 O 0.64565 0.37481 0.95377 0.0
O420 O 0.65499 0.47707 0.87578 0.0
O421 O 0.5671 0.38242 0.85231 0.0
Sc422 Sc 0.96117 0.35885 0.13083 0.0
Sc423 Sc 0.89405 0.40963 0.17576 0.0
Sc424 Sc 0.88891 0.3978 0.08069 0.0
O425 O 0.91504 0.38864 0.12906 0.0
C426 C 0.97264 0.39801 0.05439 0.0
C427 C 0.97937 0.42935 0.18364 0.0
C428 C 0.88205 0.47461 0.11777 0.0
C429 C 0.92398 0.33355 0.2056 0.0
C430 C 0.90532 0.3125 0.07676 0.0
C431 C 0.82161 0.38657 0.13565 0.0
O432 O 0.98535 0.38551 0.08429 0.0
O433 O 0.94574 0.43631 0.18913 0.0
O434 O 0.89232 0.45649 0.08958 0.0
O435 O 0.94382 0.32743 0.17777 0.0
O436 O 0.88454 0.33947 0.07044 0.0
O437 O 0.84161 0.38362 0.16434 0.0
O438 O 0.93538 0.31549 0.09562 0.0
O439 O 0.90616 0.3629 0.20925 0.0
O440 O 0.83458 0.39591 0.10462 0.0
O441 O 0.98944 0.40102 0.16534 0.0
O442 O 0.93841 0.40172 0.04879 0.0
O443 O 0.87774 0.45993 0.14921 0.0
Sc444 Sc 0.85398 0.62339 0.35056 0.0
Sc445 Sc 0.89778 0.68761 0.40958 0.0
Sc446 Sc 0.82039 0.63658 0.43927 0.0
O447 O 0.85715 0.64964 0.39981 0.0
C448 C 0.7719 0.63138 0.36399 0.0
C449 C 0.88215 0.70412 0.3266 0.0
C450 C 0.82799 0.72328 0.44845 0.0
C451 C 0.93846 0.62185 0.36908 0.0
C452 C 0.83059 0.55863 0.40506 0.0
C453 C 0.89497 0.64571 0.48541 0.0
O454 O 0.79852 0.6402 0.34313 0.0
O455 O 0.88761 0.71659 0.35925 0.0
O456 O 0.80777 0.69384 0.44772 0.0
O457 O 0.90916 0.60515 0.35733 0.0
O458 O 0.83111 0.5788 0.43411 0.0
O459 O 0.91255 0.66132 0.45968 0.0
O460 O 0.83449 0.57181 0.37303 0.0
O461 O 0.93855 0.65404 0.38373 0.0
O462 O 0.86034 0.63961 0.48424 0.0
O463 O 0.87286 0.67058 0.31995 0.0
O464 O 0.77599 0.62833 0.39885 0.0
O465 O 0.86123 0.72439 0.43761 0.0
Sc466 Sc 0.94266 0.82908 0.87267 0.0
Sc467 Sc 0.86109 0.87206 0.89411 0.0
Sc468 Sc 0.90077 0.88668 0.80893 0.0
O469 O 0.90167 0.8626 0.85878 0.0
C470 C 0.98709 0.88715 0.82837 0.0
C471 C 0.92841 0.87245 0.94881 0.0
C472 C 0.88022 0.95171 0.86044 0.0
C473 C 0.87426 0.78584 0.90541 0.0
C474 C 0.92473 0.80843 0.78702 0.0
C475 C 0.81451 0.87354 0.82286 0.0
O476 O 0.98412 0.87001 0.85855 0.0
O477 O 0.89841 0.88605 0.93825 0.0
O478 O 0.9002 0.94076 0.8341 0.0
O479 O 0.90477 0.78506 0.88856 0.0
O480 O 0.90167 0.8337 0.78189 0.0
O481 O 0.81953 0.85833 0.85365 0.0
O482 O 0.9434 0.80581 0.81702 0.0
O483 O 0.85733 0.81558 0.91111 0.0
O484 O 0.84115 0.88732 0.80468 0.0
O485 O 0.94609 0.84959 0.9293 0.0
O486 O 0.9601 0.89099 0.80612 0.0
O487 O 0.86167 0.92989 0.88088 0.0
Sc488 Sc 0.80661 0.16612 0.6519 0.0
Sc489 Sc 0.89839 0.19365 0.6637 0.0
Sc490 Sc 0.85728 0.13302 0.72604 0.0
O491 O 0.85424 0.16421 0.68075 0.0
C492 C 0.77678 0.15707 0.73422 0.0
C493 C 0.83091 0.2483 0.65266 0.0
C494 C 0.90422 0.20609 0.75012 0.0
C495 C 0.86566 0.17149 0.58713 0.0
C496 C 0.81195 0.08191 0.66651 0.0
C497 C 0.93431 0.11896 0.69013 0.0
O498 O 0.77213 0.15813 0.69942 0.0
O499 O 0.86461 0.23992 0.64913 0.0
O500 O 0.88898 0.17491 0.75737 0.0
O501 O 0.83295 0.17414 0.59881 0.0
O502 O 0.82657 0.08762 0.6985 0.0
O503 O 0.9368 0.15057 0.67535 0.0
O504 O 0.80644 0.10754 0.64355 0.0
O505 O 0.89336 0.17113 0.60879 0.0
O506 O 0.90612 0.1081 0.7076 0.0
O507 O 0.80572 0.2246 0.66027 0.0
O508 O 0.80846 0.15495 0.74901 0.0
O509 O 0.9071 0.218 0.7174 0.0
Sc510 Sc 0.62843 0.0318 0.33583 0.0
Sc511 Sc 0.68111 0.07456 0.40857 0.0
Sc512 Sc 0.59888 0.11304 0.37926 0.0
O513 O 0.63618 0.07316 0.37448 0.0
C514 C 0.60211 0.10211 0.29179 0.0
C515 C 0.71401 0.05002 0.3309 0.0
C516 C 0.67496 0.15922 0.38881 0.0
C517 C 0.65644 0.98961 0.40654 0.0
C518 C 0.54773 0.0405 0.36704 0.0
C519 C 0.61946 0.10134 0.46374 0.0
O520 O 0.61228 0.0689 0.29281 0.0
O521 O 0.71721 0.06049 0.36446 0.0
O522 O 0.6405 0.15629 0.38244 0.0
O523 O 0.64309 0.98931 0.37394 0.0
O524 O 0.55355 0.07395 0.37704 0.0
O525 O 0.65137 0.08968 0.4573 0.0
O526 O 0.57215 0.02139 0.35163 0.0
O527 O 0.6704 0.01823 0.42265 0.0
O528 O 0.59698 0.1096 0.43825 0.0
O529 O 0.68356 0.03945 0.31601 0.0
O530 O 0.59678 0.12131 0.32076 0.0
O531 O 0.69425 0.13195 0.39792 0.0
Sc532 Sc 0.64984 0.91636 0.05359 0.0
Sc533 Sc 0.57513 0.87623 0.09808 0.0
Sc534 Sc 0.60192 0.96649 0.11854 0.0
O535 O 0.60887 0.91978 0.08966 0.0
C536 C 0.68656 0.96205 0.12217 0.0
C537 C 0.65293 0.83874 0.08872 0.0
C538 C 0.58943 0.9047 0.17832 0.0
C539 C 0.58217 0.87203 0.01308 0.0
C540 C 0.62981 0.99669 0.04037 0.0
C541 C 0.52087 0.94464 0.10292 0.0
O542 O 0.6879 0.94939 0.08906 0.0
O543 O 0.61795 0.83618 0.09079 0.0
O544 O 0.58525 0.93787 0.16819 0.0
O545 O 0.61609 0.88255 0.01463 0.0
O546 O 0.62079 0.00127 0.07396 0.0
O547 O 0.52781 0.91063 0.10732 0.0
O548 O 0.63273 0.96481 0.02583 0.0
O549 O 0.56103 0.87316 0.04072 0.0
O550 O 0.54632 0.96903 0.09899 0.0
O551 O 0.66982 0.86831 0.07963 0.0
O552 O 0.65666 0.96543 0.13932 0.0
O553 O 0.58956 0.87788 0.15538 0.0
Sc554 Sc 0.35501 0.65517 0.13803 0.0
Sc555 Sc 0.44457 0.67905 0.16963 0.0
Sc556 Sc 0.38577 0.62326 0.2237 0.0
O557 O 0.39519 0.6524 0.1771 0.0
C558 C 0.30679 0.65598 0.21126 0.0
C559 C 0.38723 0.73744 0.14143 0.0
C560 C 0.42899 0.69534 0.25504 0.0
C561 C 0.42708 0.65197 0.08774 0.0
C562 C 0.3505 0.5704 0.15938 0.0
C563 C 0.46879 0.6044 0.20677 0.0
O564 O 0.31074 0.65976 0.17675 0.0
O565 O 0.41968 0.72854 0.1504 0.0
O566 O 0.40769 0.66726 0.25952 0.0
O567 O 0.3925 0.65116 0.0926 0.0
O568 O 0.36261 0.57634 0.19227 0.0
O569 O 0.47543 0.63273 0.18749 0.0
O570 O 0.34743 0.59605 0.13596 0.0
O571 O 0.45005 0.65908 0.11384 0.0
O572 O 0.43788 0.59771 0.22149 0.0
O573 O 0.36029 0.71427 0.13801 0.0
O574 O 0.33244 0.64495 0.23203 0.0
O575 O 0.44407 0.70252 0.22439 0.0
Sc576 Sc 0.10204 0.55206 0.87019 0.0
Sc577 Sc 0.14902 0.59684 0.9451 0.0
Sc578 Sc 0.08817 0.64586 0.88978 0.0
O579 O 0.11299 0.59812 0.90182 0.0
C580 C 0.10489 0.61533 0.8096 0.0
C581 C 0.18972 0.55363 0.88076 0.0
C582 C 0.16714 0.67747 0.91454 0.0
C583 C 0.11226 0.51581 0.94906 0.0
C584 C 0.02281 0.58575 0.87645 0.0
C585 C 0.08324 0.64278 0.97786 0.0
O586 O 0.10289 0.58178 0.81918 0.0
O587 O 0.19004 0.57197 0.91109 0.0
O588 O 0.13687 0.67984 0.89715 0.0
O589 O 0.10063 0.51457 0.91584 0.0
O590 O 0.03599 0.6184 0.88037 0.0
O591 O 0.1105 0.62185 0.98209 0.0
O592 O 0.04298 0.55759 0.8745 0.0
O593 O 0.12926 0.5439 0.963 0.0
O594 O 0.07272 0.65391 0.94636 0.0
O595 O 0.16022 0.54423 0.86304 0.0
O596 O 0.10164 0.64203 0.83233 0.0
O597 O 0.17485 0.6495 0.93347 0.0
Sc598 Sc 0.15378 0.3869 0.56318 0.0
Sc599 Sc 0.07021 0.38008 0.61022 0.0
Sc600 Sc 0.13403 0.45227 0.6325 0.0
O601 O 0.11912 0.40682 0.60156 0.0
C602 C 0.20983 0.41092 0.62773 0.0
C603 C 0.12372 0.31334 0.59933 0.0
C604 C 0.10054 0.39711 0.69195 0.0
C605 C 0.07431 0.37236 0.52406 0.0
C606 C 0.16176 0.47354 0.55112 0.0
C607 C 0.04883 0.46472 0.61992 0.0
O608 O 0.20292 0.39548 0.59665 0.0
O609 O 0.09224 0.32583 0.60601 0.0
O610 O 0.11802 0.42678 0.68378 0.0
O611 O 0.1094 0.37319 0.52447 0.0
O612 O 0.15354 0.48164 0.58438 0.0
O613 O 0.04129 0.43051 0.61537 0.0
O614 O 0.16111 0.44041 0.53862 0.0
O615 O 0.05546 0.37856 0.55266 0.0
O616 O 0.08138 0.47759 0.62573 0.0
O617 O 0.14991 0.33261 0.58585 0.0
O618 O 0.18739 0.4315 0.64405 0.0
O619 O 0.08196 0.37771 0.66836 0.0
Sc620 Sc 0.55589 0.6401 0.58577 0.0
Sc621 Sc 0.57994 0.5554 0.62435 0.0
Sc622 Sc 0.63664 0.59831 0.5601 0.0
O623 O 0.59029 0.59767 0.58989 0.0
C624 C 0.58165 0.63685 0.50396 0.0
C625 C 0.49976 0.57079 0.59401 0.0
C626 C 0.6093 0.51634 0.55032 0.0
C627 C 0.55551 0.62545 0.672 0.0
C628 C 0.63589 0.67947 0.59061 0.0
C629 C 0.66571 0.56475 0.63477 0.0
O630 O 0.55475 0.63838 0.52602 0.0
O631 O 0.52408 0.54829 0.60411 0.0
O632 O 0.62102 0.54606 0.53566 0.0
O633 O 0.55427 0.64677 0.64452 0.0
O634 O 0.65367 0.65038 0.58447 0.0
O635 O 0.63428 0.56004 0.64916 0.0
O636 O 0.60098 0.6805 0.5869 0.0
O637 O 0.56215 0.59124 0.66883 0.0
O638 O 0.66951 0.57249 0.60107 0.0
O639 O 0.50713 0.60457 0.58711 0.0
O640 O 0.61271 0.62536 0.51403 0.0
O641 O 0.59736 0.51499 0.58334 0.0
Sc642 Sc 0.3552 0.37842 0.42441 0.0
Sc643 Sc 0.38858 0.39636 0.33532 0.0
Sc644 Sc 0.41587 0.31749 0.38225 0.0
O645 O 0.38644 0.36413 0.38061 0.0
C646 C 0.42389 0.34675 0.46598 0.0
C647 C 0.387 0.45707 0.39977 0.0
C648 C 0.47259 0.3742 0.3476 0.0
C649 C 0.30385 0.39925 0.35628 0.0
C650 C 0.34073 0.29064 0.41723 0.0
C651 C 0.39333 0.31828 0.29628 0.0
O652 O 0.39802 0.36942 0.4646 0.0
O653 O 0.39474 0.44672 0.36721 0.0
O654 O 0.46595 0.34674 0.36813 0.0
O655 O 0.30853 0.39027 0.3898 0.0
O656 O 0.36828 0.28437 0.39699 0.0
O657 O 0.38254 0.35121 0.29649 0.0
O658 O 0.33393 0.32264 0.43003 0.0
O659 O 0.33 0.40215 0.33343 0.0
O660 O 0.406 0.30319 0.32504 0.0
O661 O 0.37299 0.43548 0.42345 0.0
O662 O 0.43145 0.32555 0.4391 0.0
O663 O 0.44758 0.3934 0.33305 0.0
C664 C 0.08854 0.1883 0.30699 0.0
C665 C 0.06565 0.16709 0.33014 0.0
C666 C 0.10478 0.1726 0.27599 0.0
C667 C 0.09942 0.13492 0.26716 0.0
H668 H 0.09224 0.21784 0.31135 0.0
H669 H 0.12033 0.19054 0.25782 0.0
S670 S 0.04765 0.06578 0.32225 0.0
N671 N 0.0424 0.1053 0.3447 0.0
N672 N 0.07362 0.07566 0.28643 0.0
C673 C 0.07954 0.11258 0.29184 0.0
C674 C 0.06245 0.12871 0.32332 0.0
C675 C 0.08901 0.79385 0.52543 0.0
C676 C 0.05195 0.78326 0.53114 0.0
C677 C 0.09933 0.81504 0.49497 0.0
C678 C 0.07306 0.82648 0.46885 0.0
H679 H 0.11046 0.78481 0.54397 0.0
H680 H 0.12841 0.82121 0.49122 0.0
S681 S 0.97173 0.80996 0.47357 0.0
N682 N 0.98843 0.78873 0.50987 0.0
N683 N 0.00782 0.82843 0.45275 0.0
C684 C 0.03566 0.8177 0.47529 0.0
C685 C 0.02514 0.79615 0.50635 0.0
C686 C 0.40176 0.73987 0.75369 0.0
C687 C 0.40482 0.75116 0.791 0.0
C688 C 0.39455 0.76528 0.72595 0.0
C689 C 0.38955 0.80283 0.73447 0.0
H690 H 0.40761 0.71181 0.74543 0.0
H691 H 0.39494 0.75581 0.69741 0.0
S692 S 0.38818 0.84508 0.82844 0.0
N693 N 0.39734 0.80135 0.83546 0.0
N694 N 0.38346 0.84909 0.78324 0.0
C695 C 0.38891 0.81376 0.77189 0.0
C696 C 0.39668 0.78792 0.80018 0.0
C697 C 0.45726 0.14419 0.05327 0.0
C698 C 0.4404 0.1659 0.08015 0.0
C699 C 0.43849 0.13384 0.02068 0.0
C700 C 0.40253 0.1456 0.0136 0.0
H701 H 0.48599 0.13737 0.05633 0.0
H702 H 0.45338 0.1192 -0.00044 0.0
S703 S 0.3449 0.19886 0.07771 0.0
N704 N 0.38455 0.19508 0.10008 0.0
N705 N 0.34926 0.17637 0.03805 0.0
C706 C 0.38409 0.16415 0.04191 0.0
C707 C 0.40316 0.17429 0.07545 0.0
C708 C 0.09076 0.80677 0.18899 0.0
C709 C 0.07674 0.82791 0.16033 0.0
C710 C 0.10023 0.82317 0.22297 0.0
C711 C 0.09532 0.86117 0.22952 0.0
H712 H 0.09029 0.77688 0.18659 0.0
H713 H 0.10803 0.80521 0.24524 0.0
S714 S 0.07188 0.9297 0.15859 0.0
N715 N 0.06767 0.88938 0.13678 0.0
N716 N 0.08521 0.92071 0.2013 0.0
C717 C 0.08737 0.8834 0.19909 0.0
C718 C 0.07808 0.86652 0.16415 0.0
C719 C 0.5463 0.87208 0.50617 0.0
C720 C 0.54217 0.89441 0.47511 0.0
C721 C 0.52287 0.87512 0.53628 0.0
C722 C 0.49392 0.90008 0.53602 0.0
H723 H 0.56629 0.85048 0.50618 0.0
H724 H 0.52568 0.85562 0.55846 0.0
S725 S 0.47631 0.96976 0.46425 0.0
N726 N 0.51108 0.94625 0.44819 0.0
N727 N 0.46625 0.95157 0.50461 0.0
C728 C 0.49183 0.92505 0.50667 0.0
C729 C 0.51625 0.92235 0.47623 0.0
C730 C 0.47196 0.24339 0.75506 0.0
C731 C 0.47032 0.22724 0.71946 0.0
C732 C 0.45089 0.22894 0.78383 0.0
C733 C 0.42727 0.19772 0.77819 0.0
H734 H 0.49075 0.26652 0.76129 0.0
H735 H 0.4545 0.24146 0.81106 0.0
S736 S 0.40845 0.14887 0.68851 0.0
N737 N 0.43994 0.18102 0.67902 0.0
N738 N 0.40024 0.15387 0.733 0.0
C739 C 0.42349 0.18286 0.74206 0.0
C740 C 0.44503 0.19758 0.71275 0.0
C741 C 0.05947 0.18748 0.99133 0.0
C742 C 0.08536 0.20359 0.96732 0.0
C743 C 0.07025 0.16427 0.01979 0.0
C744 C 0.10747 0.15598 0.02565 0.0
H745 H 0.03061 0.19387 0.98915 0.0
H746 H 0.04922 0.15406 0.03831 0.0
S747 S 0.18561 0.18651 0.96692 0.0
N748 N 0.14942 0.20625 0.94861 0.0
N749 N 0.16989 0.16255 0.00211 0.0
C750 C 0.13339 0.16969 0.00012 0.0
C751 C 0.12231 0.1935 0.97103 0.0
C752 C 0.32634 0.08482 0.20059 0.0
C753 C 0.3284 0.10469 0.23418 0.0
C754 C 0.29225 0.07537 0.18407 0.0
C755 C 0.25923 0.08504 0.201 0.0
H756 H 0.35124 0.07747 0.18648 0.0
H757 H 0.29175 0.06087 0.15765 0.0
S758 S 0.25037 0.13608 0.29 0.0
N759 N 0.29523 0.13313 0.2843 0.0
N760 N 0.23081 0.11486 0.25374 0.0
C761 C 0.26105 0.10402 0.23522 0.0
C762 C 0.29579 0.11415 0.25164 0.0
C763 C 0.1477 0.01214 0.50375 0.0
C764 C 0.155 0.04902 0.49411 0.0
C765 C 0.13678 0.98567 0.47701 0.0
C766 C 0.1325 0.99501 0.43959 0.0
H767 H 0.1525 0.00305 0.53173 0.0
H768 H 0.1334 0.95724 0.48556 0.0
S769 S 0.14108 0.08928 0.40132 0.0
N770 N 0.15193 0.09476 0.44558 0.0
N771 N 0.13131 0.04476 0.39521 0.0
C772 C 0.13629 0.03242 0.43015 0.0
C773 C 0.14766 0.05947 0.45744 0.0
C774 C 0.20474 0.89534 0.65664 0.0
C775 C 0.1921 0.92827 0.64152 0.0
C776 C 0.23971 0.88257 0.64823 0.0
C777 C 0.26274 0.90179 0.62374 0.0
H778 H 0.189 0.88106 0.67755 0.0
H779 H 0.24967 0.85884 0.66276 0.0
S780 S 0.23927 0.98566 0.57159 0.0
N781 N 0.20297 0.9771 0.59742 0.0
N782 N 0.2683 0.95266 0.58064 0.0
C783 C 0.24871 0.93253 0.60542 0.0
C784 C 0.21344 0.94592 0.6146 0.0
C785 C 0.30625 0.97334 0.95897 0.0
C786 C 0.31613 0.94247 0.93759 0.0
C787 C 0.31058 0.00914 0.94586 0.0
C788 C 0.32504 0.01588 0.91073 0.0
H789 H 0.29481 0.97005 0.98624 0.0
H790 H 0.30245 0.03169 0.96366 0.0
S791 S 0.35566 0.94471 0.84365 0.0
N792 N 0.34126 0.92089 0.87947 0.0
N793 N 0.3497 0.9885 0.85463 0.0
C794 C 0.33522 0.98531 0.8889 0.0
C795 C 0.33077 0.94858 0.90239 0.0
C796 C 0.29434 0.94925 0.31142 0.0
C797 C 0.29404 0.96883 0.27822 0.0
C798 C 0.26151 0.93643 0.32724 0.0
C799 C 0.22722 0.94236 0.31012 0.0
H800 H 0.3201 0.94471 0.32589 0.0
H801 H 0.26309 0.92236 0.35337 0.0
S802 S 0.21269 0.98773 0.21967 0.0
N803 N 0.25763 0.99107 0.22705 0.0
N804 N 0.19568 0.96618 0.25577 0.0
C805 C 0.22689 0.9606 0.27584 0.0
C806 C 0.26036 0.9741 0.26016 0.0
C807 C 0.3054 0.05537 0.61312 0.0
C808 C 0.31887 0.07617 0.58348 0.0
C809 C 0.32415 0.0249 0.62598 0.0
C810 C 0.35683 0.01374 0.60929 0.0
H811 H 0.27929 0.06167 0.6255 0.0
H812 H 0.3114 0.0085 0.64737 0.0
S813 S 0.40653 0.0621 0.53442 0.0
N814 N 0.36919 0.08621 0.54069 0.0
N815 N 0.40423 0.02838 0.56457 0.0
C816 C 0.37208 0.03592 0.58149 0.0
C817 C 0.35317 0.06732 0.56867 0.0
C818 C 0.22505 0.09345 0.75681 0.0
C819 C 0.19039 0.09013 0.77337 0.0
C820 C 0.25533 0.1095 0.77586 0.0
C821 C 0.25241 0.12235 0.81262 0.0
H822 H 0.22927 0.0822 0.72933 0.0
H823 H 0.28171 0.10949 0.76228 0.0
S824 S 0.16598 0.12603 0.86611 0.0
N825 N 0.15342 0.10561 0.8266 0.0
N826 N 0.21058 0.13547 0.86289 0.0
C827 C 0.2171 0.12218 0.82836 0.0
C828 C 0.18603 0.1061 0.80863 0.0
C829 C 0.17742 0.9572 0.02083 0.0
C830 C 0.18466 0.9234 0.03755 0.0
C831 C 0.16906 0.98822 0.04212 0.0
C832 C 0.16734 0.98655 0.08091 0.0
H833 H 0.18108 0.96068 0.99142 0.0
H834 H 0.16582 0.01412 0.02805 0.0
S835 S 0.17472 0.90186 0.13686 0.0
N836 N 0.1828 0.88807 0.09413 0.0
N837 N 0.16682 0.9464 0.13439 0.0
C838 C 0.17029 0.95181 0.09751 0.0
C839 C 0.17896 0.9202 0.07573 0.0
C840 C 0.19233 0.28701 0.12468 0.0
C841 C 0.23095 0.29178 0.12702 0.0
C842 C 0.17506 0.25293 0.1317 0.0
C843 C 0.19573 0.22233 0.14145 0.0
H844 H 0.1753 0.30897 0.11486 0.0
H845 H 0.1456 0.25003 0.12684 0.0
S846 S 0.29617 0.22324 0.1622 0.0
N847 N 0.28843 0.26525 0.1474 0.0
N848 N 0.25581 0.20094 0.16084 0.0
C849 C 0.2338 0.22784 0.1482 0.0
C850 C 0.25146 0.26267 0.141 0.0
C851 C 0.72382 0.21578 0.88984 0.0
C852 C 0.76241 0.22176 0.88935 0.0
C853 C 0.69995 0.24514 0.88654 0.0
C854 C 0.71395 0.28132 0.88254 0.0
H855 H 0.71189 0.18869 0.89543 0.0
H856 H 0.67065 0.23979 0.88961 0.0
S857 S 0.81172 0.31012 0.86872 0.0
N858 N 0.81283 0.26541 0.87674 0.0
N859 N 0.76786 0.32063 0.87033 0.0
C860 C 0.75205 0.28702 0.87753 0.0
C861 C 0.77635 0.25716 0.88083 0.0
C862 C 0.02027 0.51657 0.22921 0.0
C863 C 0.05821 0.5104 0.23037 0.0
C864 C 0.99541 0.4903 0.2138 0.0
C865 C 0.00732 0.45667 0.19861 0.0
H866 H 0.00933 0.5413 0.24155 0.0
H867 H 0.96643 0.49646 0.21433 0.0
S868 S 0.10456 0.42881 0.19138 0.0
N869 N 0.10713 0.46949 0.21263 0.0
N870 N 0.06025 0.41996 0.18341 0.0
C871 C 0.04545 0.45082 0.19809 0.0
C872 C 0.07089 0.47768 0.21401 0.0
C873 C 0.77475 0.78461 0.51276 0.0
C874 C 0.78745 0.8205 0.50397 0.0
C875 C 0.78717 0.75356 0.49383 0.0
C876 C 0.81331 0.75701 0.46571 0.0
H877 H 0.75454 0.78037 0.53414 0.0
H878 H 0.77675 0.72656 0.50191 0.0
S879 S 0.85521 0.84479 0.43196 0.0
N880 N 0.82715 0.85781 0.4649 0.0
N881 N 0.85134 0.79925 0.42973 0.0
C882 C 0.82632 0.79273 0.4566 0.0
C883 C 0.81313 0.8245 0.47556 0.0
C884 C 0.9571 0.03941 0.1419 0.0
C885 C 0.94978 0.01456 0.17043 0.0
C886 C 0.99319 0.05156 0.13481 0.0
C887 C 0.02277 0.03949 0.15642 0.0
H888 H 0.93459 0.05185 0.12714 0.0
H889 H -0.0023 0.07232 0.11398 0.0
S890 S 0.01719 0.97426 0.23453 0.0
N891 N 0.97436 0.97704 0.21927 0.0
N892 N 0.0422 0.00073 0.20716 0.0
C893 C 0.01584 0.01278 0.18356 0.0
C894 C 0.9792 -1e-05 0.19022 0.0
C895 C 0.33735 0.74872 0.50561 0.0
C896 C 0.33747 0.71463 0.52372 0.0
C897 C 0.35451 0.78033 0.52133 0.0
C898 C 0.37292 0.77927 0.55571 0.0
H899 H 0.32316 0.75138 0.4793 0.0
H900 H 0.35286 0.80601 0.50652 0.0
S901 S 0.38354 0.6964 0.61355 0.0
N902 N 0.35913 0.68122 0.57725 0.0
N903 N 0.39165 0.74091 0.60686 0.0
C904 C 0.37447 0.74513 0.57367 0.0
C905 C 0.35659 0.7128 0.55773 0.0
C906 C 0.00767 0.54998 0.3431 0.0
C907 C 0.04082 0.56453 0.35853 0.0
C908 C 0.97482 0.56869 0.34678 0.0
C909 C 0.97378 0.60262 0.36622 0.0
H910 H 0.00727 0.52474 0.32661 0.0
H911 H 0.95022 0.55666 0.3336 0.0
S912 S 0.05278 0.6499 0.41577 0.0
N913 N 0.07051 0.61301 0.39645 0.0
N914 N 0.00869 0.64829 0.40393 0.0
C915 C 0.00663 0.61664 0.38322 0.0
C916 C 0.04014 0.59756 0.37925 0.0
C917 C 0.48278 0.46865 0.80376 0.0
C918 C 0.45172 0.44597 0.81132 0.0
C919 C 0.51799 0.45968 0.8161 0.0
C920 C 0.52374 0.42758 0.83655 0.0
H921 H 0.48024 0.49297 0.78698 0.0
H922 H 0.54101 0.47738 0.80811 0.0
S923 S 0.45085 0.36198 0.86889 0.0
N924 N 0.42841 0.39219 0.84419 0.0
N925 N 0.49469 0.37529 0.86754 0.0
C926 C 0.49264 0.40583 0.84633 0.0
C927 C 0.45664 0.41501 0.83368 0.0
C928 C 0.98306 0.75065 0.72458 0.0
C929 C 0.9647 0.75212 0.69018 0.0
C930 C 0.96845 0.76662 0.75626 0.0
C931 C 0.935 0.78519 0.7549 0.0
H932 H 0.00949 0.73776 0.72704 0.0
H933 H 0.98463 0.76589 0.7816 0.0
S934 S 0.87352 0.79243 0.67254 0.0
N935 N 0.90938 0.77012 0.65726 0.0
N936 N 0.88186 0.80059 0.71693 0.0
C937 C 0.91513 0.78485 0.72114 0.0
C938 C 0.92999 0.76823 0.68877 0.0
C939 C 0.91401 0.16199 0.4958 0.0
C940 C 0.89811 0.18974 0.47454 0.0
C941 C 0.90187 0.15466 0.53162 0.0
C942 C 0.87281 0.17412 0.54715 0.0
H943 H 0.93757 0.14744 0.48574 0.0
H944 H 0.91631 0.13464 0.54786 0.0
S945 S 0.81923 0.24662 0.50163 0.0
N946 N 0.84979 0.23468 0.47062 0.0
N947 N 0.82663 0.22033 0.53768 0.0
C948 C 0.8549 0.2 0.52526 0.0
C949 C 0.86765 0.20795 0.48901 0.0
C950 C 0.5858 0.17622 0.22139 0.0
C951 C 0.57626 0.15609 0.1889 0.0
C952 C 0.59517 0.15843 0.25399 0.0
C953 C 0.59575 0.11967 0.25559 0.0
H954 H 0.58466 0.20607 0.22225 0.0
H955 H 0.60124 0.17536 0.27839 0.0
S956 S 0.57775 0.05405 0.17704 0.0
N957 N 0.57137 0.09518 0.15941 0.0
N958 N 0.58931 0.06165 0.22085 0.0
C959 C 0.58862 0.09913 0.22276 0.0
C960 C 0.57879 0.11734 0.18941 0.0
C961 C 0.5121 0.84051 0.94082 0.0
C962 C 0.52863 0.80978 0.9244 0.0
C963 C 0.53066 0.86207 0.96797 0.0
C964 C 0.56677 0.85434 0.97911 0.0
H965 H 0.48381 0.84684 0.93429 0.0
H966 H 0.51609 0.88408 0.98146 0.0
S967 S 0.62416 0.77999 0.94184 0.0
N968 N 0.58452 0.77471 0.91913 0.0
N969 N 0.61962 0.81596 0.96984 0.0
C970 C 0.58469 0.8255 0.96113 0.0
C971 C 0.56555 0.80301 0.93386 0.0
C972 C 0.95857 0.28469 0.79676 0.0
C973 C 0.97285 0.2684 0.82868 0.0
C974 C 0.93422 0.26509 0.77293 0.0
C975 C 0.92298 0.22836 0.78001 0.0
H976 H 0.96771 0.31217 0.78888 0.0
H977 H 0.92558 0.27839 0.74778 0.0
S978 S 0.94642 0.1756 0.86384 0.0
N979 N 0.96959 0.21531 0.86916 0.0
N980 N 0.92373 0.17834 0.82418 0.0
C981 C 0.93421 0.21291 0.81364 0.0
C982 C 0.95921 0.23294 0.83799 0.0
C983 C 0.62844 0.14127 0.56046 0.0
C984 C 0.59149 0.14718 0.56937 0.0
C985 C 0.63743 0.12331 0.52736 0.0
C986 C 0.60974 0.11076 0.50216 0.0
H987 H 0.65063 0.15291 0.5777 0.0
H988 H 0.66624 0.12184 0.52026 0.0
S989 S 0.50896 0.11097 0.51723 0.0
N990 N 0.52714 0.13281 0.55383 0.0
N991 N 0.54411 0.09923 0.4916 0.0
C992 C 0.57279 0.11291 0.51272 0.0
C993 C 0.56364 0.13108 0.54637 0.0
C994 C 0.58457 0.91593 0.28249 0.0
C995 C 0.59302 0.88066 0.29505 0.0
C996 C 0.58455 0.92393 0.24478 0.0
C997 C 0.59306 0.89681 0.21825 0.0
H998 H 0.57664 0.93714 0.30188 0.0
H999 H 0.57645 0.95113 0.23642 0.0
S1000 S 0.62367 0.80194 0.23771 0.0
N1001 N 0.61461 0.81977 0.27869 0.0
N1002 N 0.61537 0.83472 0.20783 0.0
C1003 C 0.60462 0.8623 0.23081 0.0
C1004 C 0.60459 0.85427 0.26924 0.0
C1005 C 0.91895 0.87112 0.05171 0.0
C1006 C 0.95554 0.86828 0.0638 0.0
C1007 C 0.91068 0.87642 0.01442 0.0
C1008 C 0.93876 0.87772 0.98798 0.0
H1009 H 0.89654 0.8663 0.07067 0.0
H1010 H 0.88194 0.87592 0.0059 0.0
S1011 S 0.03921 0.8775 0.00685 0.0
N1012 N 0.02029 0.87251 0.04779 0.0
N1013 N 0.00461 0.88076 0.97705 0.0
C1014 C 0.97557 0.87814 0.00022 0.0
C1015 C 0.984 0.8739 0.03843 0.0
C1016 C 0.71861 0.90698 0.83681 0.0
C1017 C 0.71096 0.92422 0.8032 0.0
C1018 C 0.75059 0.88701 0.84164 0.0
C1019 C 0.77653 0.88402 0.81322 0.0
H1020 H 0.70073 0.91044 0.86023 0.0
H1021 H 0.75625 0.8764 0.86889 0.0
S1022 S 0.7656 0.91722 0.7175 0.0
N1023 N 0.72882 0.93169 0.739 0.0
N1024 N 0.78947 0.89471 0.74854 0.0
C1025 C 0.76747 0.89801 0.7784 0.0
C1026 C 0.73457 0.918 0.77328 0.0
C1027 C 0.8121 0.97756 0.6548 0.0
C1028 C 0.78104 0.97008 0.63187 0.0
C1029 C 0.82148 0.01373 0.66676 0.0
C1030 C 0.80064 0.04376 0.65545 0.0
H1031 H 0.82924 0.95533 0.6637 0.0
H1032 H 0.84572 0.0183 0.68424 0.0
S1033 S 0.71634 0.03929 0.59624 0.0
N1034 N 0.72895 0.99604 0.59908 0.0
N1035 N 0.74708 0.06374 0.62105 0.0
C1036 C 0.76943 0.03671 0.63279 0.0
C1037 C 0.75952 -4e-05 0.62112 0.0
C1038 C 0.81179 0.07232 0.30501 0.0
C1039 C 0.80676 0.0948 0.27424 0.0
C1040 C 0.78161 0.05461 0.32156 0.0
C1041 C 0.74573 0.05819 0.30722 0.0
H1042 H 0.83879 0.07046 0.31784 0.0
H1043 H 0.78607 0.03989 0.34699 0.0
S1044 S 0.71957 0.10883 0.22294 0.0
N1045 N 0.76454 0.11638 0.22735 0.0
N1046 N 0.70768 0.08209 0.25763 0.0
C1047 C 0.74101 0.07776 0.27429 0.0
C1048 C 0.77163 0.09652 0.25805 0.0
C1049 C 0.67557 0.04955 0.96371 0.0
C1050 C 0.69746 0.07605 0.98347 0.0
C1051 C 0.65087 0.02587 0.98196 0.0
C1052 C 0.64672 0.02824 0.02052 0.0
H1053 H 0.67908 0.04552 0.93427 0.0
H1054 H 0.63649 0.0042 0.96602 0.0
S1055 S 0.69301 0.09746 0.08386 0.0
N1056 N 0.71001 0.10654 0.04283 0.0
N1057 N 0.66333 0.06251 0.07714 0.0
C1058 C 0.66594 0.05698 0.04003 0.0
C1059 C 0.69149 0.08068 0.02151 0.0
C1060 C 0.71985 0.10868 0.80531 0.0
C1061 C 0.68421 0.10987 0.78992 0.0
C1062 C 0.74934 0.1281 0.78959 0.0
C1063 C 0.74434 0.14862 0.75726 0.0
H1064 H 0.72538 0.09088 0.8284 0.0
H1065 H 0.77664 0.12407 0.80098 0.0
S1066 S 0.65488 0.16659 0.71111 0.0
N1067 N 0.64419 0.13801 0.74472 0.0
N1068 N 0.69993 0.17408 0.71433 0.0
C1069 C 0.70812 0.1532 0.74404 0.0
C1070 C 0.67792 0.13384 0.76057 0.0
C1071 C 0.67505 0.89602 0.44501 0.0
C1072 C 0.6606 0.89965 0.48074 0.0
C1073 C 0.67111 0.92419 0.41918 0.0
C1074 C 0.65261 0.95634 0.42869 0.0
H1075 H 0.6924 0.87316 0.43818 0.0
H1076 H 0.68505 0.92216 0.393 0.0
S1077 S 0.60202 0.97452 0.51485 0.0
N1078 N 0.62133 0.93441 0.5215 0.0
N1079 N 0.61399 0.98725 0.47297 0.0
C1080 C 0.63448 0.95817 0.46255 0.0
C1081 C 0.63837 0.92969 0.48864 0.0
C1082 C 0.77915 0.01084 0.13765 0.0
C1083 C 0.78244 0.01258 0.17645 0.0
C1084 C 0.74881 0.99294 0.12014 0.0
C1085 C 0.72044 0.97661 0.14085 0.0
H1086 H 0.80014 0.02345 0.12055 0.0
H1087 H 0.74699 0.99302 0.09024 0.0
S1088 S 0.71623 0.97266 0.24321 0.0
N1089 N 0.75519 0.99554 0.23503 0.0
N1090 N 0.69792 0.9623 0.20222 0.0
C1091 C 0.72363 0.97766 0.17969 0.0
C1092 C 0.75469 0.99554 0.19747 0.0
C1093 C 0.8687 0.03848 0.91602 0.0
C1094 C 0.85752 0.06385 0.88934 0.0
C1095 C 0.87835 0.00284 0.90592 0.0
C1096 C 0.87792 0.99134 0.86875 0.0
H1097 H 0.86798 0.04534 0.94523 0.0
H1098 H 0.88462 0.98356 0.92757 0.0
S1099 S 0.85718 0.04858 0.78757 0.0
N1100 N 0.85116 0.07628 0.82354 0.0
N1101 N 0.87005 0.00888 0.80469 0.0
C1102 C 0.87032 0.0172 0.84142 0.0
C1103 C 0.85997 0.05365 0.85171 0.0
C1104 C 0.80513 0.72219 0.95149 0.0
C1105 C 0.82539 0.6909 0.95968 0.0
C1106 C 0.82081 0.75169 0.93232 0.0
C1107 C 0.85768 0.75147 0.92077 0.0
H1108 H 0.77697 0.72431 0.96063 0.0
H1109 H 0.80397 0.77536 0.92748 0.0
S1110 S 0.9221 0.67486 0.93379 0.0
N1111 N 0.88359 0.66018 0.95326 0.0
N1112 N 0.9136 0.71612 0.91744 0.0
C1113 C 0.8779 0.71954 0.92732 0.0
C1114 C 0.86163 0.68915 0.94674 0.0
C1115 C 0.33391 0.82018 0.11688 0.0
C1116 C 0.35647 0.83687 0.09024 0.0
C1117 C 0.34571 0.78987 0.13655 0.0
C1118 C 0.38063 0.77563 0.13056 0.0
H1119 H 0.30563 0.82832 0.12002 0.0
H1120 H 0.32628 0.77571 0.1543 0.0
S1121 S 0.45349 0.81551 0.07097 0.0
N1122 N 0.41769 0.84173 0.06406 0.0
N1123 N 0.44031 0.78466 0.10164 0.0
C1124 C 0.40539 0.79533 0.10804 0.0
C1125 C 0.39319 0.8262 0.0877 0.0
C1126 C 0.92921 0.53958 0.85839 0.0
C1127 C 0.91035 0.56755 0.84028 0.0
C1128 C 0.965 0.5462 0.87248 0.0
C1129 C 0.98261 0.58116 0.86946 0.0
H1130 H 0.91784 0.51157 0.8584 0.0
H1131 H 0.9797 0.52325 0.88375 0.0
S1132 S 0.94106 0.66516 0.83066 0.0
N1133 N 0.9091 0.63218 0.82443 0.0
N1134 N 0.97569 0.64552 0.85191 0.0
C1135 C 0.96203 0.61035 0.85519 0.0
C1136 C 0.92597 0.6033 0.84035 0.0
C1137 C 0.11375 0.21047 0.58619 0.0
C1138 C 0.14848 0.19885 0.59831 0.0
C1139 C 0.1044 0.24759 0.58942 0.0
C1140 C 0.12958 0.27396 0.6047 0.0
H1141 H 0.09496 0.19164 0.57124 0.0
H1142 H 0.0787 0.25613 0.57715 0.0
S1143 S 0.21915 0.25616 0.64992 0.0
N1144 N 0.20443 0.2154 0.63362 0.0
N1145 N 0.18699 0.28535 0.63859 0.0
C1146 C 0.16228 0.26207 0.62087 0.0
C1147 C 0.17162 0.22432 0.61813 0.0
C1148 C 0.06442 0.91777 0.76676 0.0
C1149 C 0.08794 0.93913 0.79054 0.0
C1150 C 0.03264 0.90006 0.77974 0.0
C1151 C 0.02336 0.90215 0.81718 0.0
H1152 H 0.06937 0.91618 0.73734 0.0
H1153 H 0.01462 0.88534 0.76002 0.0
S1154 S 0.07801 0.94949 0.89213 0.0
N1155 N 0.10151 0.95808 0.8543 0.0
N1156 N 0.04179 0.92366 0.8788 0.0
C1157 C 0.04791 0.92074 0.84194 0.0
C1158 C 0.08022 0.93947 0.8286 0.0
C1159 C 0.73313 0.24136 0.42254 0.0
C1160 C 0.71467 0.27133 0.40727 0.0
C1161 C 0.72202 0.20483 0.41411 0.0
C1162 C 0.69195 0.19688 0.39013 0.0
H1163 H 0.75506 0.246 0.44281 0.0
H1164 H 0.73553 0.18285 0.42846 0.0
S1165 S 0.63974 0.26494 0.33637 0.0
N1166 N 0.66882 0.29035 0.36225 0.0
N1167 N 0.64794 0.22162 0.3464 0.0
C1168 C 0.67562 0.22642 0.37187 0.0
C1169 C 0.68701 0.26367 0.3804 0.0
C1170 C 0.98492 0.53071 0.66482 0.0
C1171 C 0.95099 0.52114 0.64735 0.0
C1172 C 0.01772 0.51528 0.65308 0.0
C1173 C 0.01746 0.48927 0.6239 0.0
H1174 H 0.98583 0.54848 0.68921 0.0
H1175 H 0.04272 0.52126 0.66905 0.0
S1176 S 0.93729 0.46056 0.56447 0.0
N1177 N 0.92016 0.48871 0.59572 0.0
N1178 N 0.98179 0.45901 0.57413 0.0
C1179 C 0.98442 0.48236 0.60389 0.0
C1180 C 0.95112 0.49854 0.61547 0.0
C1181 C 0.52526 0.53302 0.25449 0.0
C1182 C 0.55618 0.53023 0.23187 0.0
C1183 C 0.49693 0.5566 0.24565 0.0
C1184 C 0.49859 0.57863 0.21403 0.0
H1185 H 0.52292 0.51703 0.27944 0.0
H1186 H 0.47394 0.5581 0.2643 0.0
S1187 S 0.57297 0.58036 0.14476 0.0
N1188 N 0.58642 0.55044 0.17575 0.0
N1189 N 0.53299 0.59513 0.15914 0.0
C1190 C 0.52906 0.57566 0.19072 0.0
C1191 C 0.55786 0.55129 0.19959 0.0
C1192 C 0.54314 0.69771 0.74716 0.0
C1193 C 0.53099 0.67711 0.77751 0.0
C1194 C 0.55169 0.68055 0.71371 0.0
C1195 C 0.5487 0.64191 0.709 0.0
H1196 H 0.54526 0.72759 0.74878 0.0
H1197 H 0.56034 0.69797 0.69116 0.0
S1198 S 0.52067 0.57484 0.78068 0.0
N1199 N 0.51826 0.61561 0.80141 0.0
N1200 N 0.5345 0.58323 0.73829 0.0
C1201 C 0.53798 0.6207 0.73952 0.0
C1202 C 0.52906 0.6383 0.77378 0.0
C1203 C 0.5931 0.31517 0.04358 0.0
C1204 C 0.55459 0.31837 0.04629 0.0
C1205 C 0.61265 0.33086 0.01419 0.0
C1206 C 0.59435 0.34998 0.98629 0.0
H1207 H 0.60815 0.2992 0.06347 0.0
H1208 H 0.64188 0.32616 0.01219 0.0
S1209 S 0.49546 0.37193 0.98333 0.0
N1210 N 0.5 0.34669 0.02064 0.0
N1211 N 0.53683 0.3752 0.96519 0.0
C1212 C 0.55648 0.35546 0.9898 0.0
C1213 C 0.53659 0.33996 0.01988 0.0
C1214 C 0.89431 0.28509 0.29332 0.0
C1215 C 0.92112 0.25834 0.29786 0.0
C1216 C 0.89494 0.30862 0.26292 0.0
C1217 C 0.92217 0.30606 0.23567 0.0
H1218 H 0.87365 0.28904 0.31419 0.0
H1219 H 0.87429 0.3295 0.26125 0.0
S1220 S 0.99619 0.23747 0.23287 0.0
N1221 N 0.97383 0.22841 0.2712 0.0
N1222 N 0.97499 0.27236 0.21406 0.0
C1223 C 0.94796 0.27798 0.23895 0.0
C1224 C 0.94744 0.25423 0.27003 0.0
C1225 C 0.9283 0.64495 0.58434 0.0
C1226 C 0.9654 0.63585 0.57984 0.0
C1227 C 0.90397 0.64491 0.55388 0.0
C1228 C 0.91632 0.6358 0.51838 0.0
H1229 H 0.91902 0.65578 0.61056 0.0
H1230 H 0.87656 0.65523 0.55758 0.0
S1231 S 0.00774 0.6002 0.49452 0.0
N1232 N 0.01102 0.61037 0.5391 0.0
N1233 N 0.96536 0.61014 0.48185 0.0
C1234 C 0.95188 0.62214 0.51462 0.0
C1235 C 0.97645 0.62211 0.54547 0.0
C1236 C 0.62937 0.29017 0.70644 0.0
C1237 C 0.61807 0.31001 0.67542 0.0
C1238 C 0.63756 0.30813 0.74003 0.0
C1239 C 0.63491 0.34666 0.74393 0.0
H1240 H 0.62928 0.26025 0.70559 0.0
H1241 H 0.64381 0.29133 0.76369 0.0
S1242 S 0.61616 0.4121 0.66854 0.0
N1243 N 0.6118 0.37083 0.64865 0.0
N1244 N 0.62732 0.40476 0.71214 0.0
C1245 C 0.62839 0.36728 0.71199 0.0
C1246 C 0.61997 0.34888 0.67756 0.0
C1247 C 0.05049 0.37449 0.99204 0.0
C1248 C 0.036 0.38295 0.95707 0.0
C1249 C 0.03189 0.38362 0.02426 0.0
C1250 C -0.00217 0.40114 0.0226 0.0
H1251 H 0.07484 0.35809 0.99449 0.0
H1252 H 0.04266 0.37367 0.05019 0.0
S1253 S 0.95474 0.43993 0.93868 0.0
N1254 N 0.9907 0.4179 0.92322 0.0
N1255 N 0.95536 0.43479 0.98393 0.0
C1256 C 0.98605 0.41465 0.98827 0.0
C1257 C 0.00527 0.40561 0.95539 0.0
C1258 C 0.89689 0.73248 0.22755 0.0
C1259 C 0.91922 0.76476 0.23123 0.0
C1260 C 0.88297 0.71449 0.25852 0.0
C1261 C 0.89092 0.72789 0.2946 0.0
H1262 H 0.89113 0.72013 0.20055 0.0
H1263 H 0.86714 0.68894 0.25404 0.0
S1264 S 0.94461 0.81382 0.31927 0.0
N1265 N 0.94587 0.8114 0.27373 0.0
N1266 N 0.91975 0.77747 0.33199 0.0
C1267 C 0.91109 0.76157 0.2986 0.0
C1268 C 0.92525 0.78001 0.26694 0.0
C1269 C 0.54373 0.69345 0.42598 0.0
C1270 C 0.57603 0.70598 0.40866 0.0
C1271 C 0.54523 0.66849 0.45511 0.0
C1272 C 0.5791 0.65499 0.46751 0.0
H1273 H 0.51751 0.70509 0.41886 0.0
H1274 H 0.51998 0.66157 0.46937 0.0
S1275 S 0.67056 0.67446 0.4253 0.0
N1276 N 0.64179 0.70015 0.40203 0.0
N1277 N 0.64513 0.65194 0.45554 0.0
C1278 C 0.61113 0.66459 0.44745 0.0
C1279 C 0.60949 0.69061 0.4184 0.0
C1280 C 0.73068 0.54051 0.71327 0.0
C1281 C 0.76472 0.556 0.70204 0.0
C1282 C 0.69866 0.54369 0.69164 0.0
C1283 C 0.69951 0.56232 0.65788 0.0
H1284 H 0.7288 0.52501 0.73856 0.0
H1285 H 0.67327 0.53078 0.7011 0.0
S1286 S 0.78105 0.61082 0.61772 0.0
N1287 N 0.79679 0.59279 0.65617 0.0
N1288 N 0.73687 0.59886 0.61554 0.0
C1289 C 0.73318 0.57899 0.64693 0.0
C1290 C 0.76568 0.57583 0.669 0.0
C1291 C 0.6803 0.54924 0.98674 0.0
C1292 C 0.68857 0.58179 0.96747 0.0
C1293 C 0.66898 0.51674 0.9681 0.0
C1294 C 0.66557 0.51531 0.92932 0.0
H1295 H 0.68418 0.5483 0.01645 0.0
H1296 H 0.66467 0.49206 0.98422 0.0
S1297 S 0.67834 0.59461 0.86636 0.0
N1298 N 0.68822 0.61197 0.90789 0.0
N1299 N 0.66702 0.55068 0.8726 0.0
C1300 C 0.67065 0.54849 0.90992 0.0
C1301 C 0.68216 0.58178 0.92905 0.0
C1302 C 0.73094 0.37015 0.18152 0.0
C1303 C 0.7127 0.40254 0.17262 0.0
C1304 C 0.76527 0.36292 0.16641 0.0
C1305 C 0.78173 0.38737 0.1413 0.0
H1306 H 0.72032 0.35207 0.20271 0.0
H1307 H 0.78019 0.33952 0.17638 0.0
S1308 S 0.74154 0.47225 0.10409 0.0
N1309 N 0.7109 0.45658 0.13376 0.0
N1310 N 0.77505 0.44245 0.10448 0.0
C1311 C 0.76179 0.4176 0.12913 0.0
C1312 C 0.72728 0.42539 0.14511 0.0
C1313 C 0.81737 0.46466 0.44758 0.0
C1314 C 0.79879 0.44387 0.41945 0.0
C1315 C 0.82876 0.50133 0.44221 0.0
C1316 C 0.82227 0.51865 0.40842 0.0
H1317 H 0.8222 0.4529 0.47449 0.0
H1318 H 0.84201 0.51646 0.46506 0.0
S1319 S 0.7763 0.47595 0.32516 0.0
N1320 N 0.77575 0.44284 0.35599 0.0
N1321 N 0.79741 0.51185 0.34569 0.0
C1322 C 0.80527 0.49772 0.37938 0.0
C1323 C 0.79349 0.46029 0.38494 0.0
C1324 C 0.83427 0.44444 0.83285 0.0
C1325 C 0.8375 0.44134 0.79422 0.0
C1326 C 0.80054 0.43657 0.84994 0.0
C1327 C 0.76919 0.42546 0.82885 0.0
H1328 H 0.85676 0.45626 0.84958 0.0
H1329 H 0.7984 0.44174 0.87938 0.0
S1330 S 0.76635 0.40378 0.72824 0.0
N1331 N 0.80882 0.41966 0.73653 0.0
N1332 N 0.74558 0.4046 0.76851 0.0
C1333 C 0.77339 0.41813 0.79088 0.0
C1334 C 0.80761 0.426 0.77362 0.0
C1335 C 0.87369 0.56926 0.07606 0.0
C1336 C 0.84303 0.58328 0.09429 0.0
C1337 C 0.88725 0.53464 0.08491 0.0
C1338 C 0.87112 0.51322 0.1128 0.0
H1339 H 0.88585 0.58395 0.05318 0.0
H1340 H 0.90974 0.52406 0.06894 0.0
S1341 S 0.79312 0.5398 0.17186 0.0
N1342 N 0.79896 0.57475 0.14356 0.0
N1343 N 0.82484 0.51004 0.16081 0.0
C1344 C 0.84213 0.52817 0.13304 0.0
C1345 C 0.82797 0.56313 0.12361 0.0
C1346 C 0.70865 0.59777 0.28684 0.0
C1347 C 0.69611 0.56324 0.29981 0.0
C1348 C 0.73018 0.62197 0.30932 0.0
C1349 C 0.73953 0.61279 0.34578 0.0
H1350 H 0.70369 0.60537 0.25841 0.0
H1351 H 0.7416 0.64695 0.29729 0.0
S1352 S 0.70843 0.52825 0.39488 0.0
N1353 N 0.69071 0.52304 0.35282 0.0
N1354 N 0.73085 0.56858 0.39525 0.0
C1355 C 0.72423 0.57986 0.36019 0.0
C1356 C 0.70273 0.55499 0.3371 0.0
C1357 C 0.64617 0.42225 0.53161 0.0
C1358 C 0.65295 0.42355 0.49339 0.0
C1359 C 0.62812 0.45082 0.54968 0.0
C1360 C 0.61626 0.48159 0.5301 0.0
H1361 H 0.6574 0.40061 0.54831 0.0
H1362 H 0.6265 0.45031 0.57953 0.0
S1363 S 0.61745 0.49286 0.42846 0.0
N1364 N 0.63927 0.45425 0.43562 0.0
N1365 N 0.6052 0.5078 0.46968 0.0
C1366 C 0.61853 0.4808 0.49136 0.0
C1367 C 0.63691 0.45177 0.47294 0.0
C1368 C 0.65449 0.77767 0.62525 0.0
C1369 C 0.69303 0.78171 0.62389 0.0
C1370 C 0.63646 0.74431 0.61521 0.0
C1371 C 0.65623 0.71361 0.60318 0.0
H1372 H 0.63795 0.80099 0.63264 0.0
H1373 H 0.60664 0.74301 0.61606 0.0
S1374 S 0.75809 0.7091 0.59728 0.0
N1375 N 0.75077 0.75154 0.61196 0.0
N1376 N 0.71693 0.68883 0.59278 0.0
C1377 C 0.69501 0.71669 0.60352 0.0
C1378 C 0.7134 0.75069 0.61405 0.0
C1379 C 0.22454 0.73596 0.37048 0.0
C1380 C 0.20517 0.70169 0.37034 0.0
C1381 C 0.20664 0.7687 0.36336 0.0
C1382 C 0.1685 0.76881 0.35568 0.0
H1383 H 0.25338 0.73802 0.37846 0.0
H1384 H 0.2227 0.79434 0.36613 0.0
S1385 S 0.10775 0.68543 0.34048 0.0
N1386 N 0.14763 0.66895 0.35376 0.0
N1387 N 0.11376 0.73081 0.34028 0.0
C1388 C 0.14974 0.73437 0.35091 0.0
C1389 C 0.16813 0.70077 0.35824 0.0
C1390 C 0.54861 0.95718 0.72953 0.0
C1391 C 0.53956 0.9866 0.75322 0.0
C1392 C 0.5213 0.93631 0.71025 0.0
C1393 C 0.48373 0.94386 0.71399 0.0
H1394 H 0.57708 0.94994 0.72603 0.0
H1395 H 0.52985 0.91398 0.69238 0.0
S1396 S 0.44542 0.01784 0.77338 0.0
N1397 N 0.49042 0.02223 0.77963 0.0
N1398 N 0.43899 0.98309 0.74375 0.0
C1399 C 0.47432 0.97348 0.73755 0.0
C1400 C 0.50222 0.99483 0.75701 0.0
C1401 C 0.28432 0.29568 0.96386 0.0
C1402 C 0.3106 0.32117 0.97917 0.0
C1403 C 0.29487 0.26556 0.94208 0.0
C1404 C 0.3322 0.25953 0.9345 0.0
H1405 H 0.25538 0.29799 0.96999 0.0
H1406 H 0.27355 0.24592 0.93259 0.0
S1407 S 0.41138 0.32131 0.96341 0.0
N1408 N 0.37527 0.34066 0.9818 0.0
N1409 N 0.39515 0.28428 0.94081 0.0
C1410 C 0.35852 0.28636 0.9474 0.0
C1411 C 0.34773 0.31701 0.96976 0.0
C1412 C 0.40795 0.57291 0.63913 0.0
C1413 C 0.39743 0.53536 0.63942 0.0
C1414 C 0.43879 0.58511 0.61943 0.0
C1415 C 0.46093 0.55983 0.60068 0.0
H1416 H 0.39382 0.59257 0.65631 0.0
H1417 H 0.44751 0.6139 0.62241 0.0
S1418 S 0.44137 0.45931 0.58851 0.0
N1419 N 0.40788 0.47376 0.61501 0.0
N1420 N 0.4672 0.49636 0.57953 0.0
C1421 C 0.44862 0.52271 0.59801 0.0
C1422 C 0.41651 0.51052 0.61713 0.0
C1423 C 0.90606 0.2215 0.0234 0.0
C1424 C 0.86831 0.21111 0.02128 0.0
C1425 C 0.91839 0.25341 0.04307 0.0
C1426 C 0.89332 0.2762 0.06092 0.0
H1427 H 0.9262 0.20554 0.00887 0.0
H1428 H 0.94743 0.26118 0.04285 0.0
S1429 S 0.79246 0.25927 0.06809 0.0
N1430 N 0.80656 0.22471 0.0422 0.0
N1431 N 0.8298 0.28464 0.07842 0.0
C1432 C 0.85589 0.26524 0.06062 0.0
C1433 C 0.84336 0.23271 0.04102 0.0
C1434 C 0.5459 0.06559 0.8837 0.0
C1435 C 0.54227 0.02683 0.87991 0.0
C1436 C 0.51512 0.08789 0.88227 0.0
C1437 C 0.47943 0.07237 0.8771 0.0
H1438 H 0.57289 0.07913 0.88567 0.0
H1439 H 0.51957 0.11759 0.88365 0.0
S1440 S 0.4542 0.9721 0.87345 0.0
N1441 N 0.49961 0.9737 0.87625 0.0
N1442 N 0.44173 0.01553 0.87392 0.0
C1443 C 0.47511 0.03353 0.87646 0.0
C1444 C 0.5065 0.01081 0.87793 0.0
C1445 C 0.9283 0.93197 0.29866 0.0
C1446 C 0.92029 0.96811 0.31037 0.0
C1447 C 0.96023 0.91482 0.31095 0.0
C1448 C 0.98505 0.93287 0.33581 0.0
H1449 H 0.91129 0.91776 0.27777 0.0
H1450 H 0.96699 0.88857 0.29859 0.0
S1451 S 0.9736 0.02487 0.3799 0.0
N1452 N 0.93755 0.01945 0.35179 0.0
N1453 N -0.00269 0.98694 0.37519 0.0
C1454 C 0.97591 0.96775 0.34996 0.0
C1455 C 0.94356 0.98537 0.33726 0.0
C1456 C 0.44263 0.26286 0.22513 0.0
C1457 C 0.43283 0.27982 0.19192 0.0
C1458 C 0.4263 0.27252 0.25839 0.0
C1459 C 0.40003 0.30025 0.26001 0.0
H1460 H 0.46413 0.24277 0.22574 0.0
H1461 H 0.43662 0.26004 0.28333 0.0
S1462 S 0.35932 0.34745 0.17939 0.0
N1463 N 0.39091 0.32097 0.16136 0.0
N1464 N 0.36056 0.34017 0.22434 0.0
C1465 C 0.38736 0.31488 0.22639 0.0
C1466 C 0.40373 0.30446 0.19222 0.0
C1467 C 0.42893 0.65955 0.98355 0.0
C1468 C 0.46678 0.65943 0.97579 0.0
C1469 C 0.41618 0.65457 0.01949 0.0
C1470 C 0.44075 0.64944 0.0493 0.0
H1471 H 0.40895 0.66521 0.96203 0.0
H1472 H 0.38692 0.65683 0.02409 0.0
S1473 S 0.54203 0.64018 0.04279 0.0
N1474 N 0.52836 0.64873 0.00017 0.0
N1475 N 0.50435 0.63952 0.06776 0.0
C1476 C 0.47841 0.64631 0.04148 0.0
C1477 C 0.49142 0.65124 0.00475 0.0
C1478 C 0.09438 0.6062 0.70565 0.0
C1479 C 0.10453 0.64181 0.69364 0.0
C1480 C 0.09647 0.5972 0.74307 0.0
C1481 C 0.10871 0.6235 0.76989 0.0
H1482 H 0.08243 0.58576 0.68649 0.0
H1483 H 0.08635 0.57012 0.75118 0.0
S1484 S 0.1465 0.71776 0.75194 0.0
N1485 N 0.13331 0.7014 0.71087 0.0
N1486 N 0.13689 0.68448 0.78124 0.0
C1487 C 0.12224 0.65799 0.75789 0.0
C1488 C 0.12038 0.66709 0.71973 0.0
C1489 C 0.05259 0.30568 0.44543 0.0
C1490 C 0.01456 0.30948 0.43981 0.0
C1491 C 0.07246 0.32873 0.47037 0.0
C1492 C 0.05485 0.35593 0.4913 0.0
H1493 H 0.06692 0.2839 0.43131 0.0
H1494 H 0.10132 0.32336 0.47509 0.0
S1495 S 0.95638 0.37961 0.48384 0.0
N1496 N 0.96059 0.34475 0.45438 0.0
N1497 N -0.00218 0.3876 0.50219 0.0
C1498 C 0.01724 0.36148 0.48429 0.0
C1499 C -0.00289 0.33837 0.4583 0.0
C1500 C 0.46703 0.77905 0.30821 0.0
C1501 C 0.46745 0.76727 0.34505 0.0
C1502 C 0.45272 0.75625 0.27969 0.0
C1503 C 0.43798 0.7207 0.28671 0.0
H1504 H 0.47981 0.80532 0.30092 0.0
H1505 H 0.45465 0.76614 0.25166 0.0
S1506 S 0.42634 0.67921 0.37915 0.0
N1507 N 0.44717 0.71967 0.38771 0.0
N1508 N 0.42019 0.67668 0.33388 0.0
C1509 C 0.43502 0.70986 0.32377 0.0
C1510 C 0.44972 0.7332 0.353 0.0
C1511 C 0.01424 0.69355 0.03578 0.0
C1512 C 0.02751 0.68959 0.07217 0.0
C1513 C 0.03175 0.67726 0.00584 0.0
C1514 C 0.06329 0.6561 0.01084 0.0
H1515 H 0.99092 0.71057 0.03003 0.0
H1516 H 0.02084 0.68226 0.9784 0.0
S1517 S 0.10578 0.63254 0.10113 0.0
N1518 N 0.07169 0.65959 0.11201 0.0
N1519 N 0.10467 0.62875 0.05562 0.0
C1520 C 0.07546 0.64985 0.04731 0.0
C1521 C 0.05757 0.66663 0.07794 0.0
C1522 C 0.11415 0.39284 0.79626 0.0
C1523 C 0.11226 0.35457 0.80293 0.0
C1524 C 0.11061 0.40655 0.76033 0.0
C1525 C 0.10465 0.38253 0.72979 0.0
H1526 H 0.11718 0.41251 0.81902 0.0
H1527 H 0.11162 0.43617 0.75658 0.0
S1528 S 0.10313 0.27996 0.73145 0.0
N1529 N 0.10808 0.29287 0.7752 0.0
N1530 N 0.10118 0.31858 0.70804 0.0
C1531 C 0.10448 0.34422 0.73585 0.0
C1532 C 0.10841 0.33027 0.77228 0.0
C1533 C 0.49827 0.31568 0.53071 0.0
C1534 C 0.48199 0.31874 0.56558 0.0
C1535 C 0.48022 0.32733 0.49892 0.0
C1536 C 0.44515 0.34258 0.50067 0.0
H1537 H 0.52447 0.30253 0.5276 0.0
H1538 H 0.4932 0.32275 0.47253 0.0
S1539 S 0.39312 0.36221 0.5859 0.0
N1540 N 0.43084 0.3424 0.60067 0.0
N1541 N 0.39671 0.36442 0.54055 0.0
C1542 C 0.42996 0.34897 0.53566 0.0
C1543 C 0.44845 0.337 0.56825 0.0
C1544 C 0.2194 0.45663 0.35841 0.0
C1545 C 0.20925 0.45788 0.3208 0.0
C1546 C 0.24817 0.43471 0.3703 0.0
C1547 C 0.26793 0.41348 0.34497 0.0
H1548 H 0.20642 0.47415 0.37861 0.0
H1549 H 0.25666 0.43658 0.39911 0.0
S1550 S 0.24719 0.40077 0.24497 0.0
N1551 N 0.21733 0.43113 0.25929 0.0
N1552 N 0.27194 0.39053 0.28181 0.0
C1553 C 0.25601 0.41192 0.30792 0.0
C1554 C 0.2265 0.43396 0.29579 0.0
C1555 C 0.31476 0.49025 0.0986 0.0
C1556 C 0.30757 0.46191 0.12387 0.0
C1557 C 0.32955 0.52467 0.1103 0.0
C1558 C 0.33811 0.53231 0.1478 0.0
H1559 H 0.30765 0.48642 0.0696 0.0
H1560 H 0.33355 0.54572 0.08967 0.0
S1561 S 0.32871 0.46579 0.22455 0.0
N1562 N 0.31315 0.44252 0.18768 0.0
N1563 N 0.34103 0.50721 0.20982 0.0
C1564 C 0.33288 0.50351 0.17316 0.0
C1565 C 0.31758 0.46838 0.16118 0.0
C1566 C 0.26143 0.53516 0.80831 0.0
C1567 C 0.29364 0.52983 0.82937 0.0
C1568 C 0.22793 0.54224 0.82527 0.0
C1569 C 0.2254 0.5449 0.86396 0.0
H1570 H 0.26178 0.5329 0.77844 0.0
H1571 H 0.20389 0.546 0.80783 0.0
S1572 S 0.30197 0.53436 0.93163 0.0
N1573 N 0.3211 0.52826 0.89096 0.0
N1574 N 0.25819 0.54231 0.92291 0.0
C1575 C 0.25755 0.54036 0.88538 0.0
C1576 C 0.29161 0.5326 0.86807 0.0
C1577 C 0.20626 0.52052 0.46901 0.0
C1578 C 0.21188 0.55738 0.48119 0.0
C1579 C 0.18869 0.49418 0.49114 0.0
C1580 C 0.17581 0.5034 0.52656 0.0
H1581 H 0.21653 0.51146 0.44253 0.0
H1582 H 0.18628 0.46603 0.48065 0.0
S1583 S 0.17952 0.59737 0.56962 0.0
N1584 N 0.2002 0.60263 0.52965 0.0
N1585 N 0.16704 0.55323 0.57131 0.0
C1586 C 0.1795 0.54069 0.53832 0.0
C1587 C 0.19756 0.56758 0.51569 0.0
C1588 C 0.2314 0.64203 0.28011 0.0
C1589 C 0.20005 0.6371 0.25722 0.0
C1590 C 0.26543 0.65256 0.26551 0.0
C1591 C 0.26949 0.658 0.22731 0.0
H1592 H 0.23023 0.63504 0.30909 0.0
H1593 H 0.28922 0.65337 0.28395 0.0
S1594 S 0.19358 0.65757 0.15738 0.0
N1595 N 0.17334 0.64535 0.19606 0.0
N1596 N 0.23754 0.66493 0.16823 0.0
C1597 C 0.23732 0.65791 0.205 0.0
C1598 C 0.20247 0.64742 0.22008 0.0
C1599 C 0.1354 0.41782 0.96817 0.0
C1600 C 0.14707 0.42087 0.00531 0.0
C1601 C 0.11894 0.44756 0.95069 0.0
C1602 C 0.11386 0.4811 0.96995 0.0
H1603 H 0.14219 0.39388 0.95159 0.0
H1604 H 0.11394 0.44552 0.92114 0.0
S1605 S 0.12861 0.49779 0.07048 0.0
N1606 N 0.14435 0.45611 0.06281 0.0
N1607 N 0.11324 0.51193 0.0301 0.0
C1608 C 0.12021 0.48209 0.00835 0.0
C1609 C 0.13704 0.45197 0.02602 0.0
C1610 C 0.31261 0.41098 0.64496 0.0
C1611 C 0.31453 0.41099 0.68385 0.0
C1612 C 0.27847 0.40803 0.6263 0.0
C1613 C 0.24553 0.40523 0.64612 0.0
H1614 H 0.33705 0.41689 0.62902 0.0
H1615 H 0.27771 0.41104 0.59656 0.0
S1616 S 0.23664 0.3944 0.74726 0.0
N1617 N 0.28133 0.4006 0.74081 0.0
N1618 N 0.21727 0.39545 0.70576 0.0
C1619 C 0.24751 0.40082 0.68453 0.0
C1620 C 0.28208 0.40345 0.70341 0.0
C1621 C 0.36535 0.55708 0.38959 0.0
C1622 C 0.36648 0.57002 0.42638 0.0
C1623 C 0.37598 0.5213 0.38056 0.0
C1624 C 0.38731 0.49701 0.40819 0.0
H1625 H 0.35422 0.57397 0.36791 0.0
H1626 H 0.37225 0.51167 0.35223 0.0
S1627 S 0.40059 0.51941 0.50781 0.0
N1628 N 0.38462 0.5575 0.48991 0.0
N1629 N 0.40358 0.48978 0.47293 0.0
C1630 C 0.39154 0.51064 0.44456 0.0
C1631 C 0.38141 0.54734 0.45367 0.0
C1632 C 0.27821 0.23298 0.47754 0.0
C1633 C 0.27852 0.19764 0.46093 0.0
C1634 C 0.29713 0.263 0.46223 0.0
C1635 C 0.31756 0.259 0.42977 0.0
H1636 H 0.26359 0.23758 0.50301 0.0
H1637 H 0.29668 0.28931 0.47685 0.0
S1638 S 0.3249 0.17289 0.37365 0.0
N1639 N 0.299 0.16069 0.40883 0.0
N1640 N 0.33503 0.21732 0.38003 0.0
C1641 C 0.31712 0.22409 0.41203 0.0
C1642 C 0.29746 0.1934 0.42756 0.0
C1643 C 0.82262 0.32584 0.58651 0.0
C1644 C 0.78638 0.33689 0.59231 0.0
C1645 C 0.83888 0.30016 0.60944 0.0
C1646 C 0.81912 0.28413 0.63855 0.0
H1647 H 0.83758 0.33504 0.56246 0.0
H1648 H 0.86562 0.29019 0.60188 0.0
S1649 S 0.72672 0.31042 0.67046 0.0
N1650 N 0.73379 0.33532 0.63322 0.0
N1651 N 0.76419 0.28627 0.6762 0.0
C1652 C 0.78458 0.29828 0.6473 0.0
C1653 C 0.7682 0.32493 0.62416 0.0
C1654 C 0.44502 0.04434 0.36722 0.0
C1655 C 0.43569 0.0156 0.34211 0.0
C1656 C 0.48137 0.04945 0.3799 0.0
C1657 C 0.50915 0.02602 0.36754 0.0
H1658 H 0.42559 0.06564 0.37331 0.0
H1659 H 0.48827 0.07425 0.39596 0.0
S1660 S 0.49389 0.93833 0.31443 0.0
N1661 N 0.45327 0.95745 0.31465 0.0
N1662 N 0.5218 0.96654 0.33876 0.0
C1663 C 0.4982 0.9932 0.3486 0.0
C1664 C 0.46121 0.98814 0.3357 0.0
C1665 C 0.68004 0.73864 0.08615 0.0
C1666 C 0.71846 0.74116 0.09221 0.0
C1667 C 0.65862 0.77014 0.08702 0.0
C1668 C 0.67483 0.80536 0.09386 0.0
H1669 H 0.6665 0.71241 0.07888 0.0
H1670 H 0.62951 0.767 0.08036 0.0
S1671 S 0.77302 0.82625 0.11826 0.0
N1672 N 0.77092 0.78124 0.1103 0.0
N1673 N 0.73067 0.84039 0.11184 0.0
C1674 C 0.7127 0.80795 0.10277 0.0
C1675 C 0.7345 0.77586 0.10202 0.0
C1676 C 0.55345 0.40267 0.28999 0.0
C1677 C 0.58306 0.40475 0.31559 0.0
C1678 C 0.51805 0.3923 0.30082 0.0
C1679 C 0.51087 0.3828 0.33745 0.0
H1680 H 0.55706 0.41085 0.26158 0.0
H1681 H 0.49599 0.39213 0.28032 0.0
S1682 S 0.5791 0.37959 0.41439 0.0
N1683 N 0.6033 0.39396 0.37874 0.0
N1684 N 0.53629 0.3732 0.39895 0.0
C1685 C 0.54035 0.3826 0.36301 0.0
C1686 C 0.57657 0.39396 0.35212 0.0
C1687 C 0.24015 0.74541 0.95103 0.0
C1688 C 0.23231 0.77789 0.93194 0.0
C1689 C 0.22067 0.7123 0.94338 0.0
C1690 C 0.19251 0.71028 0.9163 0.0
H1691 H 0.26014 0.7459 0.97354 0.0
H1692 H 0.22636 0.68877 0.96042 0.0
S1693 S 0.16717 0.78523 0.85264 0.0
N1694 N 0.19879 0.80447 0.88061 0.0
N1695 N 0.16221 0.74199 0.86591 0.0
C1696 C 0.187 0.74155 0.89439 0.0
C1697 C 0.20693 0.7754 0.90224 0.0
C1698 C 0.42471 0.94443 0.14124 0.0
C1699 C 0.41896 0.98241 0.14605 0.0
C1700 C 0.45625 0.93204 0.12363 0.0
C1701 C 0.48303 0.95723 0.11015 0.0
H1702 H 0.40657 0.92418 0.15397 0.0
H1703 H 0.46098 0.90265 0.12333 0.0
S1704 S 0.47466 0.05917 0.10636 0.0
N1705 N 0.43806 0.04468 0.12915 0.0
N1706 N 0.49709 0.02163 0.09556 0.0
C1707 C 0.47479 0.99504 0.11033 0.0
C1708 C 0.44282 0.00758 0.12848 0.0
C1709 C 0.03216 0.08621 0.68017 0.0
C1710 C 0.02994 0.05105 0.69591 0.0
C1711 C 0.00076 0.1076 0.67691 0.0
C1712 C 0.96616 0.09432 0.68906 0.0
H1713 H 0.05858 0.09806 0.67222 0.0
H1714 H 0.004 0.13526 0.66622 0.0
S1715 S 0.94544 0.00087 0.72633 0.0
N1716 N 0.99031 0.00198 0.71968 0.0
N1717 N 0.93118 0.04143 0.71301 0.0
C1718 C 0.96339 0.05791 0.7023 0.0
C1719 C 0.99533 0.03648 0.70589 0.0
loop_
_geom_bond_atom_site_label_1
_geom_bond_atom_site_label_2
_geom_bond_distance
_geom_bond_site_symmetry_2
_ccdc_geom_bond_type
C0 O1 1.160 . S
C0 O7 1.185 . S
O1 C0 1.160 . S
O2 Zn3 1.899 . S
O2 C10 1.284 . S
Zn3 O2 1.899 . S
Zn3 O4 2.032 1_455 S
Zn3 O7 2.086 . S
Zn3 O12 1.977 1_455 S
O4 Zn3 2.032 1_655 S
O4 C8 1.278 . S
C5 O6 1.203 . S
C5 O12 1.267 . S
O6 C5 1.203 . S
O7 C0 1.185 . S
O7 Zn3 2.086 . S
C8 O4 1.278 . S
C8 O9 1.211 . S
O9 C8 1.211 . S
C10 O2 1.284 . S
C10 O11 1.273 . S
O11 C10 1.273 . S
O12 Zn3 1.977 1_655 S
O12 C5 1.267 . S
C13 O14 1.160 . S
C13 O20 1.185 . S
O14 C13 1.160 . S
O15 Zn16 1.899 1_655 S
O15 C23 1.284 . S
Zn16 O15 1.899 1_455 S
Zn16 O17 2.032 1_455 S
Zn16 O20 2.086 . S
Zn16 O25 1.977 . S
O17 Zn16 2.032 1_655 S
O17 C21 1.278 . S
C18 O19 1.203 . S
C18 O25 1.267 . S
O19 C18 1.203 . S
O20 C13 1.185 . S
O20 Zn16 2.086 . S
C21 O17 1.278 . S
C21 O22 1.211 . S
O22 C21 1.211 . S
C23 O15 1.284 . S
C23 O24 1.273 . S
O24 C23 1.273 . S
O25 Zn16 1.977 . S
O25 C18 1.267 . S
C26 O27 1.160 . S
C26 O33 1.185 . S
O27 C26 1.160 . S
O28 Zn29 1.899 . S
O28 C36 1.284 . S
Zn29 O28 1.899 . S
Zn29 O30 2.032 . S
Zn29 O33 2.086 . S
Zn29 O38 1.977 . S
O30 Zn29 2.032 . S
O30 C34 1.278 . S
C31 O32 1.203 . S
C31 O38 1.267 . S
O32 C31 1.203 . S
O33 C26 1.185 . S
O33 Zn29 2.086 . S
C34 O30 1.278 . S
C34 O35 1.211 . S
O35 C34 1.211 . S
C36 O28 1.284 . S
C36 O37 1.273 . S
O37 C36 1.273 . S
O38 Zn29 1.977 . S
O38 C31 1.267 . S
C39 O40 1.160 . S
C39 O46 1.185 . S
O40 C39 1.160 . S
O41 Zn42 1.899 . S
O41 C49 1.284 . S
Zn42 O41 1.899 . S
Zn42 O43 2.032 . S
Zn42 O46 2.086 . S
Zn42 O51 1.977 . S
O43 Zn42 2.032 . S
O43 C47 1.278 . S
C44 O45 1.203 . S
C44 O51 1.267 . S
O45 C44 1.203 . S
O46 C39 1.185 . S
O46 Zn42 2.086 . S
C47 O43 1.278 . S
C47 O48 1.211 . S
O48 C47 1.211 . S
C49 O41 1.284 . S
C49 O50 1.273 . S
O50 C49 1.273 . S
O51 Zn42 1.977 . S
O51 C44 1.267 . S
C52 O53 1.160 . S
C52 O59 1.185 . S
O53 C52 1.160 . S
O54 Zn55 1.899 . S
O54 C62 1.284 . S
Zn55 O54 1.899 . S
Zn55 O56 2.032 1_455 S
Zn55 O59 2.086 . S
Zn55 O64 1.977 1_455 S
O56 Zn55 2.032 1_655 S
O56 C60 1.278 . S
C57 O58 1.203 . S
C57 O64 1.267 . S
O58 C57 1.203 . S
O59 C52 1.185 . S
O59 Zn55 2.086 . S
C60 O56 1.278 . S
C60 O61 1.211 . S
O61 C60 1.211 . S
C62 O54 1.284 . S
C62 O63 1.273 . S
O63 C62 1.273 . S
O64 Zn55 1.977 1_655 S
O64 C57 1.267 . S
C65 O66 1.160 . S
C65 O72 1.185 . S
O66 C65 1.160 . S
O67 Zn68 1.899 . S
O67 C75 1.284 . S
Zn68 O67 1.899 . S
Zn68 O69 2.032 . S
Zn68 O72 2.086 . S
Zn68 O77 1.977 . S
O69 Zn68 2.032 . S
O69 C73 1.278 . S
C70 O71 1.203 . S
C70 O77 1.267 . S
O71 C70 1.203 . S
O72 C65 1.185 . S
O72 Zn68 2.086 . S
C73 O69 1.278 . S
C73 O74 1.211 . S
O74 C73 1.211 . S
C75 O67 1.284 . S
C75 O76 1.273 . S
O76 C75 1.273 . S
O77 Zn68 1.977 . S
O77 C70 1.267 . S
C78 O79 1.160 . S
C78 O85 1.185 . S
O79 C78 1.160 . S
O80 Zn81 1.899 . S
O80 C88 1.284 . S
Zn81 O80 1.899 . S
Zn81 O82 2.032 . S
Zn81 O85 2.086 . S
Zn81 O90 1.977 . S
O82 Zn81 2.032 . S
O82 C86 1.278 . S
C83 O84 1.203 . S
C83 O90 1.267 . S
O84 C83 1.203 . S
O85 C78 1.185 . S
O85 Zn81 2.086 . S
C86 O82 1.278 . S
C86 O87 1.211 . S
O87 C86 1.211 . S
C88 O80 1.284 . S
C88 O89 1.273 . S
O89 C88 1.273 . S
O90 Zn81 1.977 . S
O90 C83 1.267 . S
C91 O92 1.160 . S
C91 O98 1.185 . S
O92 C91 1.160 . S
O93 Zn94 1.899 . S
O93 C101 1.284 1_455 S
Zn94 O93 1.899 . S
Zn94 O95 2.032 1_455 S
Zn94 O98 2.086 . S
Zn94 O103 1.977 . S
O95 Zn94 2.032 1_655 S
O95 C99 1.278 . S
C96 O97 1.203 . S
C96 O103 1.267 . S
O97 C96 1.203 . S
O98 C91 1.185 . S
O98 Zn94 2.086 . S
C99 O95 1.278 . S
C99 O100 1.211 . S
O100 C99 1.211 . S
C101 O93 1.284 1_655 S
C101 O102 1.273 . S
O102 C101 1.273 . S
O103 Zn94 1.977 . S
O103 C96 1.267 . S
C104 O105 1.160 . S
C104 O111 1.185 . S
O105 C104 1.160 . S
O106 Zn107 1.899 1_565 S
O106 C114 1.284 . S
Zn107 O106 1.899 1_545 S
Zn107 O108 2.032 . S
Zn107 O111 2.086 1_545 S
Zn107 O116 1.977 . S
O108 Zn107 2.032 . S
O108 C112 1.278 . S
C109 O110 1.203 . S
C109 O116 1.267 . S
O110 C109 1.203 . S
O111 C104 1.185 . S
O111 Zn107 2.086 1_565 S
C112 O108 1.278 . S
C112 O113 1.211 . S
O113 C112 1.211 . S
C114 O106 1.284 . S
C114 O115 1.282 . S
O115 C114 1.282 . S
O116 Zn107 1.977 . S
O116 C109 1.267 . S
C117 O118 1.160 . S
C117 O124 1.185 . S
O118 C117 1.160 . S
O119 Zn120 1.899 . S
O119 C127 1.284 . S
Zn120 O119 1.899 . S
Zn120 O121 2.032 . S
Zn120 O124 2.086 . S
Zn120 O129 1.977 . S
O121 Zn120 2.032 . S
O121 C125 1.278 . S
C122 O123 1.203 . S
C122 O129 1.267 . S
O123 C122 1.203 . S
O124 C117 1.185 . S
O124 Zn120 2.086 . S
C125 O121 1.278 . S
C125 O126 1.211 . S
O126 C125 1.211 . S
C127 O119 1.284 . S
C127 O128 1.273 . S
O128 C127 1.273 . S
O129 Zn120 1.977 . S
O129 C122 1.267 . S
C130 O131 1.160 . S
C130 O137 1.185 . S
O131 C130 1.160 . S
O132 Zn133 1.899 . S
O132 C140 1.284 . S
Zn133 O132 1.899 . S
Zn133 O134 2.032 1_565 S
Zn133 O137 2.086 . S
Zn133 O142 1.977 1_565 S
O134 Zn133 2.032 1_545 S
O134 C138 1.278 . S
C135 O136 1.203 . S
C135 O142 1.267 . S
O136 C135 1.203 . S
O137 C130 1.185 . S
O137 Zn133 2.086 . S
C138 O134 1.278 . S
C138 O139 1.211 . S
O139 C138 1.211 . S
C140 O132 1.284 . S
C140 O141 1.273 . S
O141 C140 1.273 . S
O142 Zn133 1.977 1_545 S
O142 C135 1.267 . S
C143 O144 1.160 . S
C143 O150 1.185 . S
O144 C143 1.160 . S
O145 Zn146 1.899 . S
O145 C153 1.284 1_554 S
Zn146 O145 1.899 . S
Zn146 O147 2.032 1_554 S
Zn146 O150 2.086 . S
Zn146 O155 1.977 . S
O147 Zn146 2.032 1_556 S
O147 C151 1.278 . S
C148 O149 1.203 . S
C148 O155 1.267 . S
O149 C148 1.203 . S
O150 C143 1.185 . S
O150 Zn146 2.086 . S
C151 O147 1.278 . S
C151 O152 1.211 . S
O152 C151 1.211 . S
C153 O145 1.284 1_556 S
C153 O154 1.273 . S
O154 C153 1.273 . S
O155 Zn146 1.977 . S
O155 C148 1.267 . S
C156 O157 1.160 . S
C156 O163 1.185 . S
O157 C156 1.160 . S
O158 Zn159 1.899 1_556 S
O158 C166 1.284 . S
Zn159 O158 1.899 1_554 S
Zn159 O160 2.032 . S
Zn159 O163 2.086 1_554 S
Zn159 O168 1.977 . S
O160 Zn159 2.032 . S
O160 C164 1.278 . S
C161 O162 1.203 . S
C161 O168 1.267 . S
O162 C161 1.203 . S
O163 C156 1.185 . S
O163 Zn159 2.086 1_556 S
C164 O160 1.278 . S
C164 O165 1.211 . S
O165 C164 1.211 . S
C166 O158 1.284 . S
C166 O167 1.273 . S
O167 C166 1.273 . S
O168 Zn159 1.977 . S
O168 C161 1.267 . S
C169 O170 1.160 . S
C169 O176 1.185 . S
O170 C169 1.160 . S
O171 Zn172 1.899 . S
O171 C179 1.284 . S
Zn172 O171 1.899 . S
Zn172 O173 2.032 1_556 S
Zn172 O176 2.086 . S
Zn172 O181 1.977 1_556 S
O173 Zn172 2.032 1_554 S
O173 C177 1.278 . S
C174 O175 1.203 . S
C174 O181 1.267 . S
O175 C174 1.203 . S
O176 C169 1.185 . S
O176 Zn172 2.086 . S
C177 O173 1.278 . S
C177 O178 1.211 . S
O178 C177 1.211 . S
C179 O171 1.284 . S
C179 O180 1.273 . S
O180 C179 1.273 . S
O181 Zn172 1.977 1_554 S
O181 C174 1.267 . S
C182 O183 1.160 . S
C182 O189 1.185 . S
O183 C182 1.160 . S
O184 Zn185 1.899 . S
O184 C192 1.284 . S
Zn185 O184 1.899 . S
Zn185 O186 2.032 . S
Zn185 O189 2.086 . S
Zn185 O194 1.977 . S
O186 Zn185 2.032 . S
O186 C190 1.278 . S
C187 O188 1.203 . S
C187 O194 1.267 . S
O188 C187 1.203 . S
O189 C182 1.185 . S
O189 Zn185 2.086 . S
C190 O186 1.278 . S
C190 O191 1.211 . S
O191 C190 1.211 . S
C192 O184 1.284 . S
C192 O193 1.273 . S
O193 C192 1.273 . S
O194 Zn185 1.977 . S
O194 C187 1.267 . S
C195 O196 1.160 . S
C195 O202 1.185 . S
O196 C195 1.160 . S
O197 Zn198 1.899 . S
O197 C205 1.284 . S
Zn198 O197 1.899 . S
Zn198 O199 2.032 . S
Zn198 O202 2.086 . S
Zn198 O207 1.977 . S
O199 Zn198 2.032 . S
O199 C203 1.278 . S
C200 O201 1.203 . S
C200 O207 1.267 . S
O201 C200 1.203 . S
O202 C195 1.185 . S
O202 Zn198 2.086 . S
C203 O199 1.278 . S
C203 O204 1.211 . S
O204 C203 1.211 . S
C205 O197 1.284 . S
C205 O206 1.273 . S
O206 C205 1.273 . S
O207 Zn198 1.977 . S
O207 C200 1.267 . S
C208 O209 1.160 . S
C208 O215 1.185 . S
O209 C208 1.160 . S
O210 Zn211 1.899 . S
O210 C218 1.284 1_545 S
Zn211 O210 1.899 . S
Zn211 O212 2.032 1_545 S
Zn211 O215 2.086 . S
Zn211 O220 1.977 . S
O212 Zn211 2.032 1_565 S
O212 C216 1.278 . S
C213 O214 1.203 . S
C213 O220 1.267 . S
O214 C213 1.203 . S
O215 C208 1.185 . S
O215 Zn211 2.086 . S
C216 O212 1.278 . S
C216 O217 1.211 . S
O217 C216 1.211 . S
C218 O210 1.284 1_565 S
C218 O219 1.273 . S
O219 C218 1.273 . S
O220 Zn211 1.977 . S
O220 C213 1.267 . S
C221 O222 1.160 . S
C221 O228 1.185 . S
O222 C221 1.160 . S
O223 Zn224 1.899 . S
O223 C231 1.284 . S
Zn224 O223 1.899 . S
Zn224 O225 2.032 . S
Zn224 O228 2.086 . S
Zn224 O233 1.977 . S
O225 Zn224 2.032 . S
O225 C229 1.278 . S
C226 O227 1.203 . S
C226 O233 1.267 . S
O227 C226 1.203 . S
O228 C221 1.185 . S
O228 Zn224 2.086 . S
C229 O225 1.278 . S
C229 O230 1.211 . S
O230 C229 1.211 . S
C231 O223 1.284 . S
C231 O232 1.273 . S
O232 C231 1.273 . S
O233 Zn224 1.977 . S
O233 C226 1.267 . S
C234 O235 1.160 . S
C234 O241 1.185 . S
O235 C234 1.160 . S
O236 Zn237 1.899 . S
O236 C244 1.284 . S
Zn237 O236 1.899 . S
Zn237 O238 2.032 . S
Zn237 O241 2.086 . S
Zn237 O246 1.977 . S
O238 Zn237 2.032 . S
O238 C242 1.278 . S
C239 O240 1.203 . S
C239 O246 1.267 . S
O240 C239 1.203 . S
O241 C234 1.185 . S
O241 Zn237 2.086 . S
C242 O238 1.278 . S
C242 O243 1.211 . S
O243 C242 1.211 . S
C244 O236 1.284 . S
C244 O245 1.273 . S
O245 C244 1.273 . S
O246 Zn237 1.977 . S
O246 C239 1.267 . S
C247 O248 1.160 . S
C247 O254 1.185 . S
O248 C247 1.160 . S
O249 Zn250 1.902 . S
O249 C257 1.276 1_545 S
Zn250 O249 1.902 . S
Zn250 O251 2.032 1_545 S
Zn250 O254 2.086 . S
Zn250 O259 1.977 . S
O251 Zn250 2.032 1_565 S
O251 C255 1.278 . S
C252 O253 1.203 . S
C252 O259 1.267 . S
O253 C252 1.203 . S
O254 C247 1.185 . S
O254 Zn250 2.086 . S
C255 O251 1.278 . S
C255 O256 1.211 . S
O256 C255 1.211 . S
C257 O249 1.276 1_565 S
C257 O258 1.273 . S
O258 C257 1.273 . S
O259 Zn250 1.977 . S
O259 C252 1.267 . S
C260 O261 1.160 . S
C260 O267 1.185 . S
O261 C260 1.160 . S
O262 Zn263 1.892 1_556 S
O262 C270 1.302 . S
Zn263 O262 1.892 1_554 S
Zn263 O264 2.032 1_554 S
Zn263 O267 2.086 . S
Zn263 O272 1.977 . S
O264 Zn263 2.032 1_556 S
O264 C268 1.278 . S
C265 O266 1.203 . S
C265 O272 1.267 . S
O266 C265 1.203 . S
O267 C260 1.185 . S
O267 Zn263 2.086 . S
C268 O264 1.278 . S
C268 O269 1.211 . S
O269 C268 1.211 . S
C270 O262 1.302 . S
C270 O271 1.273 . S
O271 C270 1.273 . S
O272 Zn263 1.977 . S
O272 C265 1.267 . S
C273 O274 1.160 . S
C273 O280 1.185 . S
O274 C273 1.160 . S
O275 Zn276 1.899 . S
O275 C283 1.284 . S
Zn276 O275 1.899 . S
Zn276 O277 2.032 . S
Zn276 O280 2.086 . S
Zn276 O285 1.977 . S
O277 Zn276 2.032 . S
O277 C281 1.278 . S
C278 O279 1.203 . S
C278 O285 1.267 . S
O279 C278 1.203 . S
O280 C273 1.185 . S
O280 Zn276 2.086 . S
C281 O277 1.278 . S
C281 O282 1.211 . S
O282 C281 1.211 . S
C283 O275 1.284 . S
C283 O284 1.273 . S
O284 C283 1.273 . S
O285 Zn276 1.977 . S
O285 C278 1.267 . S
C286 O287 1.160 . S
C286 O293 1.185 . S
O287 C286 1.160 . S
O288 Zn289 1.899 . S
O288 C296 1.284 . S
Zn289 O288 1.899 . S
Zn289 O290 2.032 . S
Zn289 O293 2.086 . S
Zn289 O298 1.977 . S
O290 Zn289 2.032 . S
O290 C294 1.278 . S
C291 O292 1.203 . S
C291 O298 1.267 . S
O292 C291 1.203 . S
O293 C286 1.185 . S
O293 Zn289 2.086 . S
C294 O290 1.278 . S
C294 O295 1.211 . S
O295 C294 1.211 . S
C296 O288 1.284 . S
C296 O297 1.273 . S
O297 C296 1.273 . S
O298 Zn289 1.977 . S
O298 C291 1.267 . S
C299 O300 1.160 . S
C299 O306 1.185 . S
O300 C299 1.160 . S
O301 Zn302 1.899 . S
O301 C309 1.284 . S
Zn302 O301 1.899 . S
Zn302 O303 2.032 . S
Zn302 O306 2.086 . S
Zn302 O311 1.977 . S
O303 Zn302 2.032 . S
O303 C307 1.278 . S
C304 O305 1.203 . S
C304 O311 1.267 . S
O305 C304 1.203 . S
O306 C299 1.185 . S
O306 Zn302 2.086 . S
C307 O303 1.278 . S
C307 O308 1.211 . S
O308 C307 1.211 . S
C309 O301 1.284 . S
C309 O310 1.273 . S
O310 C309 1.273 . S
O311 Zn302 1.977 . S
O311 C304 1.267 . S
Sc312 O315 2.025 . S
Sc312 O322 2.105 . S
Sc312 O325 2.105 . S
Sc312 O328 2.105 . S
Sc312 O331 2.105 . S
Sc313 O315 2.025 . S
Sc313 O323 2.105 . S
Sc313 O327 2.105 . S
Sc313 O329 2.105 . S
Sc313 O333 2.105 . S
Sc314 O315 2.025 . S
Sc314 O324 2.105 . S
Sc314 O326 2.105 . S
Sc314 O330 2.105 . S
Sc314 O332 2.105 . S
O315 Sc312 2.025 . S
O315 Sc313 2.025 . S
O315 Sc314 2.025 . S
C316 O322 1.268 . S
C316 O332 1.268 . S
C317 O323 1.268 . S
C317 O331 1.268 . S
C318 O324 1.268 . S
C318 O333 1.268 . S
C319 O325 1.268 . S
C319 O329 1.268 . S
C320 O326 1.268 . S
C320 O328 1.268 . S
C321 O327 1.268 . S
C321 O330 1.268 . S
O322 Sc312 2.105 . S
O322 C316 1.268 . S
O323 Sc313 2.105 . S
O323 C317 1.268 . S
O324 Sc314 2.105 . S
O324 C318 1.268 . S
O325 Sc312 2.105 . S
O325 C319 1.268 . S
O326 Sc314 2.105 . S
O326 C320 1.268 . S
O327 Sc313 2.105 . S
O327 C321 1.268 . S
O328 Sc312 2.105 . S
O328 C320 1.268 . S
O329 Sc313 2.105 . S
O329 C319 1.268 . S
O330 Sc314 2.105 . S
O330 C321 1.268 . S
O331 Sc312 2.105 . S
O331 C317 1.268 . S
O332 Sc314 2.105 . S
O332 C316 1.268 . S
O333 Sc313 2.105 . S
O333 C318 1.268 . S
Sc334 O337 2.025 . S
Sc334 O344 2.105 . S
Sc334 O347 2.105 . S
Sc334 O350 2.105 . S
Sc334 O353 2.105 . S
Sc335 O337 2.025 . S
Sc335 O345 2.105 . S
Sc335 O349 2.105 . S
Sc335 O351 2.105 . S
Sc335 O355 2.105 . S
Sc336 O337 2.025 . S
Sc336 O346 2.105 . S
Sc336 O348 2.105 . S
Sc336 O352 2.105 . S
Sc336 O354 2.105 . S
O337 Sc334 2.025 . S
O337 Sc335 2.025 . S
O337 Sc336 2.025 . S
C338 O344 1.268 . S
C338 O354 1.268 . S
C339 O345 1.268 . S
C339 O353 1.268 . S
C340 O346 1.268 . S
C340 O355 1.268 . S
C341 O347 1.268 . S
C341 O351 1.268 . S
C342 O348 1.268 . S
C342 O350 1.268 . S
C343 O349 1.268 . S
C343 O352 1.268 . S
O344 Sc334 2.105 . S
O344 C338 1.268 . S
O345 Sc335 2.105 . S
O345 C339 1.268 . S
O346 Sc336 2.105 . S
O346 C340 1.268 . S
O347 Sc334 2.105 . S
O347 C341 1.268 . S
O348 Sc336 2.105 . S
O348 C342 1.268 . S
O349 Sc335 2.105 . S
O349 C343 1.268 . S
O350 Sc334 2.105 . S
O350 C342 1.268 . S
O351 Sc335 2.105 . S
O351 C341 1.268 . S
O352 Sc336 2.105 . S
O352 C343 1.268 . S
O353 Sc334 2.105 . S
O353 C339 1.268 . S
O354 Sc336 2.105 . S
O354 C338 1.268 . S
O355 Sc335 2.105 . S
O355 C340 1.268 . S
Sc356 O359 2.025 . S
Sc356 O366 2.105 . S
Sc356 O369 2.105 . S
Sc356 O372 2.105 . S
Sc356 O375 2.105 . S
Sc357 O359 2.025 . S
Sc357 O367 2.105 . S
Sc357 O371 2.105 . S
Sc357 O373 2.105 . S
Sc357 O377 2.105 . S
Sc358 O359 2.025 . S
Sc358 O368 2.105 . S
Sc358 O370 2.105 . S
Sc358 O374 2.105 . S
Sc358 O376 2.105 . S
O359 Sc356 2.025 . S
O359 Sc357 2.025 . S
O359 Sc358 2.025 . S
C360 O366 1.268 . S
C360 O376 1.268 . S
C361 O367 1.268 . S
C361 O375 1.268 . S
C362 O368 1.268 . S
C362 O377 1.268 . S
C363 O369 1.268 . S
C363 O373 1.268 . S
C364 O370 1.268 . S
C364 O372 1.268 . S
C365 O371 1.268 . S
C365 O374 1.268 . S
O366 Sc356 2.105 . S
O366 C360 1.268 . S
O367 Sc357 2.105 . S
O367 C361 1.268 . S
O368 Sc358 2.105 . S
O368 C362 1.268 . S
O369 Sc356 2.105 . S
O369 C363 1.268 . S
O370 Sc358 2.105 . S
O370 C364 1.268 . S
O371 Sc357 2.105 . S
O371 C365 1.268 . S
O372 Sc356 2.105 . S
O372 C364 1.268 . S
O373 Sc357 2.105 . S
O373 C363 1.268 . S
O374 Sc358 2.105 . S
O374 C365 1.268 . S
O375 Sc356 2.105 . S
O375 C361 1.268 . S
O376 Sc358 2.105 . S
O376 C360 1.268 . S
O377 Sc357 2.105 . S
O377 C362 1.268 . S
Sc378 O381 2.025 . S
Sc378 O388 2.105 . S
Sc378 O391 2.105 . S
Sc378 O394 2.105 . S
Sc378 O397 2.105 . S
Sc379 O381 2.025 . S
Sc379 O389 2.105 . S
Sc379 O393 2.105 . S
Sc379 O395 2.105 . S
Sc379 O399 2.105 . S
Sc380 O381 2.025 . S
Sc380 O390 2.105 . S
Sc380 O392 2.105 . S
Sc380 O396 2.105 . S
Sc380 O398 2.105 . S
O381 Sc378 2.025 . S
O381 Sc379 2.025 . S
O381 Sc380 2.025 . S
C382 O388 1.268 . S
C382 O398 1.268 . S
C383 O389 1.268 . S
C383 O397 1.268 . S
C384 O390 1.268 . S
C384 O399 1.268 . S
C385 O391 1.268 . S
C385 O395 1.268 . S
C386 O392 1.268 . S
C386 O394 1.268 . S
C387 O393 1.268 . S
C387 O396 1.268 . S
O388 Sc378 2.105 . S
O388 C382 1.268 . S
O389 Sc379 2.105 . S
O389 C383 1.268 . S
O390 Sc380 2.105 . S
O390 C384 1.268 . S
O391 Sc378 2.105 . S
O391 C385 1.268 . S
O392 Sc380 2.105 . S
O392 C386 1.268 . S
O393 Sc379 2.105 . S
O393 C387 1.268 . S
O394 Sc378 2.105 . S
O394 C386 1.268 . S
O395 Sc379 2.105 . S
O395 C385 1.268 . S
O396 Sc380 2.105 . S
O396 C387 1.268 . S
O397 Sc378 2.105 . S
O397 C383 1.268 . S
O398 Sc380 2.105 . S
O398 C382 1.268 . S
O399 Sc379 2.105 . S
O399 C384 1.268 . S
Sc400 O403 2.025 . S
Sc400 O410 2.105 . S
Sc400 O413 2.105 . S
Sc400 O416 2.105 . S
Sc400 O419 2.105 . S
Sc401 O403 2.025 . S
Sc401 O411 2.105 . S
Sc401 O415 2.105 . S
Sc401 O417 2.105 . S
Sc401 O421 2.105 . S
Sc402 O403 2.025 . S
Sc402 O412 2.105 . S
Sc402 O414 2.105 . S
Sc402 O418 2.105 . S
Sc402 O420 2.105 . S
O403 Sc400 2.025 . S
O403 Sc401 2.025 . S
O403 Sc402 2.025 . S
C404 O410 1.268 . S
C404 O420 1.268 . S
C405 O411 1.268 . S
C405 O419 1.268 . S
C406 O412 1.268 . S
C406 O421 1.268 . S
C407 O413 1.268 . S
C407 O417 1.268 . S
C408 O414 1.268 . S
C408 O416 1.268 . S
C409 O415 1.268 . S
C409 O418 1.268 . S
O410 Sc400 2.105 . S
O410 C404 1.268 . S
O411 Sc401 2.105 . S
O411 C405 1.268 . S
O412 Sc402 2.105 . S
O412 C406 1.268 . S
O413 Sc400 2.105 . S
O413 C407 1.268 . S
O414 Sc402 2.105 . S
O414 C408 1.268 . S
O415 Sc401 2.105 . S
O415 C409 1.268 . S
O416 Sc400 2.105 . S
O416 C408 1.268 . S
O417 Sc401 2.105 . S
O417 C407 1.268 . S
O418 Sc402 2.105 . S
O418 C409 1.268 . S
O419 Sc400 2.105 . S
O419 C405 1.268 . S
O420 Sc402 2.105 . S
O420 C404 1.268 . S
O421 Sc401 2.105 . S
O421 C406 1.268 . S
Sc422 O425 2.025 . S
Sc422 O432 2.105 . S
Sc422 O435 2.105 . S
Sc422 O438 2.105 . S
Sc422 O441 2.105 . S
Sc423 O425 2.025 . S
Sc423 O433 2.105 . S
Sc423 O437 2.105 . S
Sc423 O439 2.105 . S
Sc423 O443 2.105 . S
Sc424 O425 2.025 . S
Sc424 O434 2.105 . S
Sc424 O436 2.105 . S
Sc424 O440 2.105 . S
Sc424 O442 2.105 . S
O425 Sc422 2.025 . S
O425 Sc423 2.025 . S
O425 Sc424 2.025 . S
C426 O432 1.268 . S
C426 O442 1.268 . S
C427 O433 1.268 . S
C427 O441 1.268 . S
C428 O434 1.268 . S
C428 O443 1.268 . S
C429 O435 1.268 . S
C429 O439 1.268 . S
C430 O436 1.268 . S
C430 O438 1.268 . S
C431 O437 1.268 . S
C431 O440 1.268 . S
O432 Sc422 2.105 . S
O432 C426 1.268 . S
O433 Sc423 2.105 . S
O433 C427 1.268 . S
O434 Sc424 2.105 . S
O434 C428 1.268 . S
O435 Sc422 2.105 . S
O435 C429 1.268 . S
O436 Sc424 2.105 . S
O436 C430 1.268 . S
O437 Sc423 2.105 . S
O437 C431 1.268 . S
O438 Sc422 2.105 . S
O438 C430 1.268 . S
O439 Sc423 2.105 . S
O439 C429 1.268 . S
O440 Sc424 2.105 . S
O440 C431 1.268 . S
O441 Sc422 2.105 . S
O441 C427 1.268 . S
O442 Sc424 2.105 . S
O442 C426 1.268 . S
O443 Sc423 2.105 . S
O443 C428 1.268 . S
Sc444 O447 2.025 . S
Sc444 O454 2.105 . S
Sc444 O457 2.105 . S
Sc444 O460 2.105 . S
Sc444 O463 2.105 . S
Sc445 O447 2.025 . S
Sc445 O455 2.105 . S
Sc445 O459 2.105 . S
Sc445 O461 2.105 . S
Sc445 O465 2.105 . S
Sc446 O447 2.025 . S
Sc446 O456 2.105 . S
Sc446 O458 2.105 . S
Sc446 O462 2.105 . S
Sc446 O464 2.105 . S
O447 Sc444 2.025 . S
O447 Sc445 2.025 . S
O447 Sc446 2.025 . S
C448 O454 1.268 . S
C448 O464 1.268 . S
C449 O455 1.268 . S
C449 O463 1.268 . S
C450 O456 1.268 . S
C450 O465 1.268 . S
C451 O457 1.268 . S
C451 O461 1.268 . S
C452 O458 1.268 . S
C452 O460 1.268 . S
C453 O459 1.268 . S
C453 O462 1.268 . S
O454 Sc444 2.105 . S
O454 C448 1.268 . S
O455 Sc445 2.105 . S
O455 C449 1.268 . S
O456 Sc446 2.105 . S
O456 C450 1.268 . S
O457 Sc444 2.105 . S
O457 C451 1.268 . S
O458 Sc446 2.105 . S
O458 C452 1.268 . S
O459 Sc445 2.105 . S
O459 C453 1.268 . S
O460 Sc444 2.105 . S
O460 C452 1.268 . S
O461 Sc445 2.105 . S
O461 C451 1.268 . S
O462 Sc446 2.105 . S
O462 C453 1.268 . S
O463 Sc444 2.105 . S
O463 C449 1.268 . S
O464 Sc446 2.105 . S
O464 C448 1.268 . S
O465 Sc445 2.105 . S
O465 C450 1.268 . S
Sc466 O469 2.025 . S
Sc466 O476 2.105 . S
Sc466 O479 2.105 . S
Sc466 O482 2.105 . S
Sc466 O485 2.105 . S
Sc467 O469 2.025 . S
Sc467 O477 2.105 . S
Sc467 O481 2.105 . S
Sc467 O483 2.105 . S
Sc467 O487 2.105 . S
Sc468 O469 2.025 . S
Sc468 O478 2.105 . S
Sc468 O480 2.105 . S
Sc468 O484 2.105 . S
Sc468 O486 2.105 . S
O469 Sc466 2.025 . S
O469 Sc467 2.025 . S
O469 Sc468 2.025 . S
C470 O476 1.268 . S
C470 O486 1.268 . S
C471 O477 1.268 . S
C471 O485 1.268 . S
C472 O478 1.268 . S
C472 O487 1.268 . S
C473 O479 1.268 . S
C473 O483 1.268 . S
C474 O480 1.268 . S
C474 O482 1.268 . S
C475 O481 1.268 . S
C475 O484 1.268 . S
O476 Sc466 2.105 . S
O476 C470 1.268 . S
O477 Sc467 2.105 . S
O477 C471 1.268 . S
O478 Sc468 2.105 . S
O478 C472 1.268 . S
O479 Sc466 2.105 . S
O479 C473 1.268 . S
O480 Sc468 2.105 . S
O480 C474 1.268 . S
O481 Sc467 2.105 . S
O481 C475 1.268 . S
O482 Sc466 2.105 . S
O482 C474 1.268 . S
O483 Sc467 2.105 . S
O483 C473 1.268 . S
O484 Sc468 2.105 . S
O484 C475 1.268 . S
O485 Sc466 2.105 . S
O485 C471 1.268 . S
O486 Sc468 2.105 . S
O486 C470 1.268 . S
O487 Sc467 2.105 . S
O487 C472 1.268 . S
Sc488 O491 2.025 . S
Sc488 O498 2.105 . S
Sc488 O501 2.105 . S
Sc488 O504 2.105 . S
Sc488 O507 2.105 . S
Sc489 O491 2.025 . S
Sc489 O499 2.105 . S
Sc489 O503 2.105 . S
Sc489 O505 2.105 . S
Sc489 O509 2.105 . S
Sc490 O491 2.025 . S
Sc490 O500 2.105 . S
Sc490 O502 2.105 . S
Sc490 O506 2.105 . S
Sc490 O508 2.105 . S
O491 Sc488 2.025 . S
O491 Sc489 2.025 . S
O491 Sc490 2.025 . S
C492 O498 1.268 . S
C492 O508 1.268 . S
C493 O499 1.268 . S
C493 O507 1.268 . S
C494 O500 1.268 . S
C494 O509 1.268 . S
C495 O501 1.268 . S
C495 O505 1.268 . S
C496 O502 1.268 . S
C496 O504 1.268 . S
C497 O503 1.268 . S
C497 O506 1.268 . S
O498 Sc488 2.105 . S
O498 C492 1.268 . S
O499 Sc489 2.105 . S
O499 C493 1.268 . S
O500 Sc490 2.105 . S
O500 C494 1.268 . S
O501 Sc488 2.105 . S
O501 C495 1.268 . S
O502 Sc490 2.105 . S
O502 C496 1.268 . S
O503 Sc489 2.105 . S
O503 C497 1.268 . S
O504 Sc488 2.105 . S
O504 C496 1.268 . S
O505 Sc489 2.105 . S
O505 C495 1.268 . S
O506 Sc490 2.105 . S
O506 C497 1.268 . S
O507 Sc488 2.105 . S
O507 C493 1.268 . S
O508 Sc490 2.105 . S
O508 C492 1.268 . S
O509 Sc489 2.105 . S
O509 C494 1.268 . S
Sc510 O513 2.025 . S
Sc510 O520 2.105 . S
Sc510 O523 2.105 . S
Sc510 O526 2.105 . S
Sc510 O529 2.105 . S
Sc511 O513 2.025 . S
Sc511 O521 2.105 . S
Sc511 O525 2.105 . S
Sc511 O527 2.105 . S
Sc511 O531 2.105 . S
Sc512 O513 2.025 . S
Sc512 O522 2.105 . S
Sc512 O524 2.105 . S
Sc512 O528 2.105 . S
Sc512 O530 2.105 . S
O513 Sc510 2.025 . S
O513 Sc511 2.025 . S
O513 Sc512 2.025 . S
C514 O520 1.268 . S
C514 O530 1.268 . S
C515 O521 1.268 . S
C515 O529 1.268 . S
C516 O522 1.268 . S
C516 O531 1.268 . S
C517 O523 1.268 . S
C517 O527 1.268 . S
C518 O524 1.268 . S
C518 O526 1.268 . S
C519 O525 1.268 . S
C519 O528 1.268 . S
O520 Sc510 2.105 . S
O520 C514 1.268 . S
O521 Sc511 2.105 . S
O521 C515 1.268 . S
O522 Sc512 2.105 . S
O522 C516 1.268 . S
O523 Sc510 2.105 . S
O523 C517 1.268 . S
O524 Sc512 2.105 . S
O524 C518 1.268 . S
O525 Sc511 2.105 . S
O525 C519 1.268 . S
O526 Sc510 2.105 . S
O526 C518 1.268 . S
O527 Sc511 2.105 . S
O527 C517 1.268 . S
O528 Sc512 2.105 . S
O528 C519 1.268 . S
O529 Sc510 2.105 . S
O529 C515 1.268 . S
O530 Sc512 2.105 . S
O530 C514 1.268 . S
O531 Sc511 2.105 . S
O531 C516 1.268 . S
Sc532 O535 2.025 . S
Sc532 O542 2.105 . S
Sc532 O545 2.105 . S
Sc532 O548 2.105 . S
Sc532 O551 2.105 . S
Sc533 O535 2.025 . S
Sc533 O543 2.105 . S
Sc533 O547 2.105 . S
Sc533 O549 2.105 . S
Sc533 O553 2.105 . S
Sc534 O535 2.025 . S
Sc534 O544 2.105 . S
Sc534 O546 2.105 . S
Sc534 O550 2.105 . S
Sc534 O552 2.105 . S
O535 Sc532 2.025 . S
O535 Sc533 2.025 . S
O535 Sc534 2.025 . S
C536 O542 1.268 . S
C536 O552 1.268 . S
C537 O543 1.268 . S
C537 O551 1.268 . S
C538 O544 1.268 . S
C538 O553 1.268 . S
C539 O545 1.268 . S
C539 O549 1.268 . S
C540 O546 1.268 . S
C540 O548 1.268 . S
C541 O547 1.268 . S
C541 O550 1.268 . S
O542 Sc532 2.105 . S
O542 C536 1.268 . S
O543 Sc533 2.105 . S
O543 C537 1.268 . S
O544 Sc534 2.105 . S
O544 C538 1.268 . S
O545 Sc532 2.105 . S
O545 C539 1.268 . S
O546 Sc534 2.105 . S
O546 C540 1.268 . S
O547 Sc533 2.105 . S
O547 C541 1.268 . S
O548 Sc532 2.105 . S
O548 C540 1.268 . S
O549 Sc533 2.105 . S
O549 C539 1.268 . S
O550 Sc534 2.105 . S
O550 C541 1.268 . S
O551 Sc532 2.105 . S
O551 C537 1.268 . S
O552 Sc534 2.105 . S
O552 C536 1.268 . S
O553 Sc533 2.105 . S
O553 C538 1.268 . S
Sc554 O557 2.025 . S
Sc554 O564 2.105 . S
Sc554 O567 2.105 . S
Sc554 O570 2.105 . S
Sc554 O573 2.105 . S
Sc555 O557 2.025 . S
Sc555 O565 2.105 . S
Sc555 O569 2.105 . S
Sc555 O571 2.105 . S
Sc555 O575 2.105 . S
Sc556 O557 2.025 . S
Sc556 O566 2.105 . S
Sc556 O568 2.105 . S
Sc556 O572 2.105 . S
Sc556 O574 2.105 . S
O557 Sc554 2.025 . S
O557 Sc555 2.025 . S
O557 Sc556 2.025 . S
C558 O564 1.268 . S
C558 O574 1.268 . S
C559 O565 1.268 . S
C559 O573 1.268 . S
C560 O566 1.268 . S
C560 O575 1.268 . S
C561 O567 1.268 . S
C561 O571 1.268 . S
C562 O568 1.268 . S
C562 O570 1.268 . S
C563 O569 1.268 . S
C563 O572 1.268 . S
O564 Sc554 2.105 . S
O564 C558 1.268 . S
O565 Sc555 2.105 . S
O565 C559 1.268 . S
O566 Sc556 2.105 . S
O566 C560 1.268 . S
O567 Sc554 2.105 . S
O567 C561 1.268 . S
O568 Sc556 2.105 . S
O568 C562 1.268 . S
O569 Sc555 2.105 . S
O569 C563 1.268 . S
O570 Sc554 2.105 . S
O570 C562 1.268 . S
O571 Sc555 2.105 . S
O571 C561 1.268 . S
O572 Sc556 2.105 . S
O572 C563 1.268 . S
O573 Sc554 2.105 . S
O573 C559 1.268 . S
O574 Sc556 2.105 . S
O574 C558 1.268 . S
O575 Sc555 2.105 . S
O575 C560 1.268 . S
Sc576 O579 2.025 . S
Sc576 O586 2.105 . S
Sc576 O589 2.105 . S
Sc576 O592 2.105 . S
Sc576 O595 2.105 . S
Sc577 O579 2.025 . S
Sc577 O587 2.105 . S
Sc577 O591 2.105 . S
Sc577 O593 2.105 . S
Sc577 O597 2.105 . S
Sc578 O579 2.025 . S
Sc578 O588 2.105 . S
Sc578 O590 2.105 . S
Sc578 O594 2.105 . S
Sc578 O596 2.105 . S
O579 Sc576 2.025 . S
O579 Sc577 2.025 . S
O579 Sc578 2.025 . S
C580 O586 1.268 . S
C580 O596 1.268 . S
C581 O587 1.268 . S
C581 O595 1.268 . S
C582 O588 1.268 . S
C582 O597 1.268 . S
C583 O589 1.268 . S
C583 O593 1.268 . S
C584 O590 1.268 . S
C584 O592 1.268 . S
C585 O591 1.268 . S
C585 O594 1.268 . S
O586 Sc576 2.105 . S
O586 C580 1.268 . S
O587 Sc577 2.105 . S
O587 C581 1.268 . S
O588 Sc578 2.105 . S
O588 C582 1.268 . S
O589 Sc576 2.105 . S
O589 C583 1.268 . S
O590 Sc578 2.105 . S
O590 C584 1.268 . S
O591 Sc577 2.105 . S
O591 C585 1.268 . S
O592 Sc576 2.105 . S
O592 C584 1.268 . S
O593 Sc577 2.105 . S
O593 C583 1.268 . S
O594 Sc578 2.105 . S
O594 C585 1.268 . S
O595 Sc576 2.105 . S
O595 C581 1.268 . S
O596 Sc578 2.105 . S
O596 C580 1.268 . S
O597 Sc577 2.105 . S
O597 C582 1.268 . S
Sc598 O601 2.025 . S
Sc598 O608 2.105 . S
Sc598 O611 2.105 . S
Sc598 O614 2.105 . S
Sc598 O617 2.105 . S
Sc599 O601 2.025 . S
Sc599 O609 2.105 . S
Sc599 O613 2.105 . S
Sc599 O615 2.105 . S
Sc599 O619 2.105 . S
Sc600 O601 2.025 . S
Sc600 O610 2.105 . S
Sc600 O612 2.105 . S
Sc600 O616 2.105 . S
Sc600 O618 2.105 . S
O601 Sc598 2.025 . S
O601 Sc599 2.025 . S
O601 Sc600 2.025 . S
C602 O608 1.268 . S
C602 O618 1.268 . S
C603 O609 1.268 . S
C603 O617 1.268 . S
C604 O610 1.268 . S
C604 O619 1.268 . S
C605 O611 1.268 . S
C605 O615 1.268 . S
C606 O612 1.268 . S
C606 O614 1.268 . S
C607 O613 1.268 . S
C607 O616 1.268 . S
O608 Sc598 2.105 . S
O608 C602 1.268 . S
O609 Sc599 2.105 . S
O609 C603 1.268 . S
O610 Sc600 2.105 . S
O610 C604 1.268 . S
O611 Sc598 2.105 . S
O611 C605 1.268 . S
O612 Sc600 2.105 . S
O612 C606 1.268 . S
O613 Sc599 2.105 . S
O613 C607 1.268 . S
O614 Sc598 2.105 . S
O614 C606 1.268 . S
O615 Sc599 2.105 . S
O615 C605 1.268 . S
O616 Sc600 2.105 . S
O616 C607 1.268 . S
O617 Sc598 2.105 . S
O617 C603 1.268 . S
O618 Sc600 2.105 . S
O618 C602 1.268 . S
O619 Sc599 2.105 . S
O619 C604 1.268 . S
Sc620 O623 2.025 . S
Sc620 O630 2.105 . S
Sc620 O633 2.105 . S
Sc620 O636 2.105 . S
Sc620 O639 2.105 . S
Sc621 O623 2.025 . S
Sc621 O631 2.105 . S
Sc621 O635 2.105 . S
Sc621 O637 2.105 . S
Sc621 O641 2.105 . S
Sc622 O623 2.025 . S
Sc622 O632 2.105 . S
Sc622 O634 2.105 . S
Sc622 O638 2.105 . S
Sc622 O640 2.105 . S
O623 Sc620 2.025 . S
O623 Sc621 2.025 . S
O623 Sc622 2.025 . S
C624 O630 1.268 . S
C624 O640 1.268 . S
C625 O631 1.268 . S
C625 O639 1.268 . S
C626 O632 1.268 . S
C626 O641 1.268 . S
C627 O633 1.268 . S
C627 O637 1.268 . S
C628 O634 1.268 . S
C628 O636 1.268 . S
C629 O635 1.268 . S
C629 O638 1.268 . S
O630 Sc620 2.105 . S
O630 C624 1.268 . S
O631 Sc621 2.105 . S
O631 C625 1.268 . S
O632 Sc622 2.105 . S
O632 C626 1.268 . S
O633 Sc620 2.105 . S
O633 C627 1.268 . S
O634 Sc622 2.105 . S
O634 C628 1.268 . S
O635 Sc621 2.105 . S
O635 C629 1.268 . S
O636 Sc620 2.105 . S
O636 C628 1.268 . S
O637 Sc621 2.105 . S
O637 C627 1.268 . S
O638 Sc622 2.105 . S
O638 C629 1.268 . S
O639 Sc620 2.105 . S
O639 C625 1.268 . S
O640 Sc622 2.105 . S
O640 C624 1.268 . S
O641 Sc621 2.105 . S
O641 C626 1.268 . S
Sc642 O645 2.025 . S
Sc642 O652 2.105 . S
Sc642 O655 2.105 . S
Sc642 O658 2.105 . S
Sc642 O661 2.105 . S
Sc643 O645 2.025 . S
Sc643 O653 2.105 . S
Sc643 O657 2.105 . S
Sc643 O659 2.105 . S
Sc643 O663 2.105 . S
Sc644 O645 2.025 . S
Sc644 O654 2.105 . S
Sc644 O656 2.105 . S
Sc644 O660 2.105 . S
Sc644 O662 2.105 . S
O645 Sc642 2.025 . S
O645 Sc643 2.025 . S
O645 Sc644 2.025 . S
C646 O652 1.268 . S
C646 O662 1.268 . S
C647 O653 1.268 . S
C647 O661 1.268 . S
C648 O654 1.268 . S
C648 O663 1.268 . S
C649 O655 1.268 . S
C649 O659 1.268 . S
C650 O656 1.268 . S
C650 O658 1.268 . S
C651 O657 1.268 . S
C651 O660 1.268 . S
O652 Sc642 2.105 . S
O652 C646 1.268 . S
O653 Sc643 2.105 . S
O653 C647 1.268 . S
O654 Sc644 2.105 . S
O654 C648 1.268 . S
O655 Sc642 2.105 . S
O655 C649 1.268 . S
O656 Sc644 2.105 . S
O656 C650 1.268 . S
O657 Sc643 2.105 . S
O657 C651 1.268 . S
O658 Sc642 2.105 . S
O658 C650 1.268 . S
O659 Sc643 2.105 . S
O659 C649 1.268 . S
O660 Sc644 2.105 . S
O660 C651 1.268 . S
O661 Sc642 2.105 . S
O661 C647 1.268 . S
O662 Sc644 2.105 . S
O662 C646 1.268 . S
O663 Sc643 2.105 . S
O663 C648 1.268 . S
C664 C665 1.369 . S
C664 C666 1.419 . S
C664 H668 0.930 . S
C665 C664 1.369 . S
C665 C674 1.429 . S
C666 C664 1.419 . S
C666 C667 1.363 . S
C666 H669 0.929 . S
C667 C666 1.363 . S
C667 C673 1.428 . S
H668 C664 0.930 . S
H669 C666 0.929 . S
S670 N671 1.613 . S
S670 N672 1.610 . S
N671 S670 1.613 . S
N671 C674 1.350 . S
N672 S670 1.610 . S
N672 C673 1.351 . S
C673 C667 1.428 . S
C673 N672 1.351 . S
C673 C674 1.434 . S
C674 C665 1.429 . S
C674 N671 1.350 . S
C674 C673 1.434 . S
C675 C676 1.369 . S
C675 C677 1.419 . S
C675 H679 0.930 . S
C676 C675 1.369 . S
C676 C685 1.429 . S
C677 C675 1.419 . S
C677 C678 1.363 . S
C677 H680 0.929 . S
C678 C677 1.363 . S
C678 C684 1.428 . S
H679 C675 0.930 . S
H680 C677 0.929 . S
S681 N682 1.613 . S
S681 N683 1.610 1_655 S
N682 S681 1.613 . S
N682 C685 1.351 1_655 S
N683 S681 1.610 1_455 S
N683 C684 1.351 . S
C684 C678 1.428 . S
C684 N683 1.351 . S
C684 C685 1.434 . S
C685 C676 1.429 . S
C685 N682 1.351 1_455 S
C685 C684 1.434 . S
C686 C687 1.369 . S
C686 C688 1.419 . S
C686 H690 0.930 . S
C687 C686 1.369 . S
C687 C696 1.429 . S
C688 C686 1.419 . S
C688 C689 1.363 . S
C688 H691 0.929 . S
C689 C688 1.363 . S
C689 C695 1.428 . S
H690 C686 0.930 . S
H691 C688 0.929 . S
S692 N693 1.613 . S
S692 N694 1.610 . S
N693 S692 1.613 . S
N693 C696 1.350 . S
N694 S692 1.610 . S
N694 C695 1.351 . S
C695 C689 1.428 . S
C695 N694 1.351 . S
C695 C696 1.434 . S
C696 C687 1.429 . S
C696 N693 1.350 . S
C696 C695 1.434 . S
C697 C698 1.369 . S
C697 C699 1.419 . S
C697 H701 0.930 . S
C698 C697 1.369 . S
C698 C707 1.429 . S
C699 C697 1.419 . S
C699 C700 1.350 1_554 S
C699 H702 0.929 . S
C700 C699 1.350 1_556 S
C700 C706 1.430 . S
H701 C697 0.930 . S
H702 C699 0.929 . S
S703 N704 1.613 1_556 S
S703 N705 1.610 . S
N704 S703 1.613 1_554 S
N704 C707 1.350 . S
N705 S703 1.610 . S
N705 C706 1.351 . S
C706 C700 1.430 . S
C706 N705 1.351 . S
C706 C707 1.434 1_556 S
C707 C698 1.429 . S
C707 N704 1.350 . S
C707 C706 1.434 1_554 S
C708 C709 1.369 . S
C708 C710 1.419 . S
C708 H712 0.930 . S
C709 C708 1.369 . S
C709 C718 1.429 . S
C710 C708 1.419 . S
C710 C711 1.363 . S
C710 H713 0.929 . S
C711 C710 1.363 . S
C711 C717 1.428 . S
H712 C708 0.930 . S
H713 C710 0.929 . S
S714 N715 1.613 . S
S714 N716 1.610 . S
N715 S714 1.613 . S
N715 C718 1.350 . S
N716 S714 1.610 . S
N716 C717 1.351 . S
C717 C711 1.428 . S
C717 N716 1.351 . S
C717 C718 1.434 . S
C718 C709 1.429 . S
C718 N715 1.350 . S
C718 C717 1.434 . S
C719 C720 1.369 . S
C719 C721 1.419 . S
C719 H723 0.930 . S
C720 C719 1.369 . S
C720 C729 1.429 . S
C721 C719 1.419 . S
C721 C722 1.363 . S
C721 H724 0.929 . S
C722 C721 1.363 . S
C722 C728 1.428 . S
H723 C719 0.930 . S
H724 C721 0.929 . S
S725 N726 1.613 . S
S725 N727 1.610 . S
N726 S725 1.613 . S
N726 C729 1.350 . S
N727 S725 1.610 . S
N727 C728 1.351 . S
C728 C722 1.428 . S
C728 N727 1.351 . S
C728 C729 1.434 . S
C729 C720 1.429 . S
C729 N726 1.350 . S
C729 C728 1.434 . S
C730 C731 1.369 . S
C730 C732 1.419 . S
C730 H734 0.930 . S
C731 C730 1.369 . S
C731 C740 1.429 . S
C732 C730 1.419 . S
C732 C733 1.363 . S
C732 H735 0.929 . S
C733 C732 1.363 . S
C733 C739 1.428 . S
H734 C730 0.930 . S
H735 C732 0.929 . S
S736 N737 1.613 . S
S736 N738 1.610 . S
N737 S736 1.613 . S
N737 C740 1.350 . S
N738 S736 1.610 . S
N738 C739 1.351 . S
C739 C733 1.428 . S
C739 N738 1.351 . S
C739 C740 1.434 . S
C740 C731 1.429 . S
C740 N737 1.350 . S
C740 C739 1.434 . S
C741 C742 1.369 . S
C741 C743 1.419 1_556 S
C741 H745 0.930 . S
C742 C741 1.369 . S
C742 C751 1.429 . S
C743 C741 1.419 1_554 S
C743 C744 1.363 . S
C743 H746 0.929 . S
C744 C743 1.363 . S
C744 C750 1.428 1_554 S
H745 C741 0.930 . S
H746 C743 0.929 . S
S747 N748 1.613 . S
S747 N749 1.610 . S
N748 S747 1.613 . S
N748 C751 1.350 . S
N749 S747 1.610 . S
N749 C750 1.351 . S
C750 C744 1.428 1_556 S
C750 N749 1.351 . S
C750 C751 1.434 . S
C751 C742 1.429 . S
C751 N748 1.350 . S
C751 C750 1.434 . S
C752 C753 1.369 . S
C752 C754 1.419 . S
C752 H756 0.930 . S
C753 C752 1.369 . S
C753 C762 1.429 . S
C754 C752 1.419 . S
C754 C755 1.363 . S
C754 H757 0.929 . S
C755 C754 1.363 . S
C755 C761 1.428 . S
H756 C752 0.930 . S
H757 C754 0.929 . S
S758 N759 1.613 . S
S758 N760 1.610 . S
N759 S758 1.613 . S
N759 C762 1.350 . S
N760 S758 1.610 . S
N760 C761 1.351 . S
C761 C755 1.428 . S
C761 N760 1.351 . S
C761 C762 1.434 . S
C762 C753 1.429 . S
C762 N759 1.350 . S
C762 C761 1.434 . S
C763 C764 1.369 . S
C763 C765 1.419 . S
C763 H767 0.930 . S
C764 C763 1.369 . S
C764 C773 1.429 . S
C765 C763 1.419 . S
C765 C766 1.363 . S
C765 H768 0.929 . S
C766 C765 1.363 . S
C766 C772 1.428 . S
H767 C763 0.930 . S
H768 C765 0.929 . S
S769 N770 1.613 1_565 S
S769 N771 1.610 . S
N770 S769 1.613 1_545 S
N770 C773 1.350 . S
N771 S769 1.610 . S
N771 C772 1.351 1_565 S
C772 C766 1.428 . S
C772 N771 1.351 1_545 S
C772 C773 1.434 . S
C773 C764 1.429 . S
C773 N770 1.350 . S
C773 C772 1.434 . S
C774 C775 1.369 . S
C774 C776 1.419 . S
C774 H778 0.930 . S
C775 C774 1.369 . S
C775 C784 1.429 . S
C776 C774 1.419 . S
C776 C777 1.363 . S
C776 H779 0.929 . S
C777 C776 1.363 . S
C777 C783 1.428 . S
H778 C774 0.930 . S
H779 C776 0.929 . S
S780 N781 1.613 . S
S780 N782 1.610 . S
N781 S780 1.613 . S
N781 C784 1.350 . S
N782 S780 1.610 . S
N782 C783 1.351 . S
C783 C777 1.428 . S
C783 N782 1.351 . S
C783 C784 1.434 . S
C784 C775 1.429 . S
C784 N781 1.350 . S
C784 C783 1.434 . S
C785 C786 1.369 . S
C785 C787 1.419 . S
C785 H789 0.930 . S
C786 C785 1.369 . S
C786 C795 1.429 . S
C787 C785 1.419 . S
C787 C788 1.363 1_565 S
C787 H790 0.929 . S
C788 C787 1.363 1_545 S
C788 C794 1.428 . S
H789 C785 0.930 . S
H790 C787 0.929 . S
S791 N792 1.613 1_545 S
S791 N793 1.610 . S
N792 S791 1.613 1_565 S
N792 C795 1.350 . S
N793 S791 1.610 . S
N793 C794 1.351 . S
C794 C788 1.428 . S
C794 N793 1.351 . S
C794 C795 1.434 1_545 S
C795 C786 1.429 . S
C795 N792 1.350 . S
C795 C794 1.434 1_565 S
C796 C797 1.369 . S
C796 C798 1.419 . S
C796 H800 0.930 . S
C797 C796 1.369 . S
C797 C806 1.429 . S
C798 C796 1.419 . S
C798 C799 1.363 . S
C798 H801 0.929 . S
C799 C798 1.363 . S
C799 C805 1.428 . S
H800 C796 0.930 . S
H801 C798 0.929 . S
S802 N803 1.613 . S
S802 N804 1.610 . S
N803 S802 1.613 . S
N803 C806 1.350 . S
N804 S802 1.610 . S
N804 C805 1.351 . S
C805 C799 1.428 . S
C805 N804 1.351 . S
C805 C806 1.434 . S
C806 C797 1.429 . S
C806 N803 1.350 . S
C806 C805 1.434 . S
C807 C808 1.369 . S
C807 C809 1.419 . S
C807 H811 0.930 . S
C808 C807 1.369 . S
C808 C817 1.429 . S
C809 C807 1.419 . S
C809 C810 1.363 1_545 S
C809 H812 0.929 1_545 S
C810 C809 1.363 1_565 S
C810 C816 1.428 1_565 S
H811 C807 0.930 . S
H812 C809 0.929 1_565 S
S813 N814 1.613 . S
S813 N815 1.610 1_545 S
N814 S813 1.613 . S
N814 C817 1.350 . S
N815 S813 1.610 1_565 S
N815 C816 1.351 1_565 S
C816 C810 1.428 1_545 S
C816 N815 1.351 1_545 S
C816 C817 1.434 . S
C817 C808 1.429 . S
C817 N814 1.350 . S
C817 C816 1.434 . S
C818 C819 1.369 . S
C818 C820 1.419 . S
C818 H822 0.930 . S
C819 C818 1.369 . S
C819 C828 1.429 . S
C820 C818 1.419 . S
C820 C821 1.363 . S
C820 H823 0.929 . S
C821 C820 1.363 . S
C821 C827 1.428 . S
H822 C818 0.930 . S
H823 C820 0.929 . S
S824 N825 1.613 . S
S824 N826 1.610 . S
N825 S824 1.613 . S
N825 C828 1.350 . S
N826 S824 1.610 . S
N826 C827 1.351 . S
C827 C821 1.428 . S
C827 N826 1.351 . S
C827 C828 1.434 . S
C828 C819 1.429 . S
C828 N825 1.350 . S
C828 C827 1.434 . S
C829 C830 1.369 . S
C829 C831 1.419 1_565 S
C829 H833 0.930 . S
C830 C829 1.369 . S
C830 C839 1.429 . S
C831 C829 1.419 1_545 S
C831 C832 1.363 . S
C831 H834 0.929 . S
C832 C831 1.363 . S
C832 C838 1.428 1_545 S
H833 C829 0.930 . S
H834 C831 0.929 . S
S835 N836 1.613 . S
S835 N837 1.610 1_565 S
N836 S835 1.613 . S
N836 C839 1.350 . S
N837 S835 1.610 1_545 S
N837 C838 1.351 1_545 S
C838 C832 1.428 1_565 S
C838 N837 1.351 1_565 S
C838 C839 1.434 . S
C839 C830 1.429 . S
C839 N836 1.350 . S
C839 C838 1.434 . S
C840 C841 1.369 . S
C840 C842 1.419 . S
C840 H844 0.930 . S
C841 C840 1.369 . S
C841 C850 1.429 . S
C842 C840 1.419 . S
C842 C843 1.363 . S
C842 H845 0.929 . S
C843 C842 1.363 . S
C843 C849 1.428 . S
H844 C840 0.930 . S
H845 C842 0.929 . S
S846 N847 1.613 . S
S846 N848 1.610 . S
N847 S846 1.613 . S
N847 C850 1.350 . S
N848 S846 1.610 . S
N848 C849 1.351 . S
C849 C843 1.428 . S
C849 N848 1.351 . S
C849 C850 1.434 . S
C850 C841 1.429 . S
C850 N847 1.350 . S
C850 C849 1.434 . S
C851 C852 1.369 . S
C851 C853 1.419 . S
C851 H855 0.930 . S
C852 C851 1.369 . S
C852 C861 1.429 . S
C853 C851 1.419 . S
C853 C854 1.363 . S
C853 H856 0.929 . S
C854 C853 1.363 . S
C854 C860 1.428 . S
H855 C851 0.930 . S
H856 C853 0.929 . S
S857 N858 1.613 . S
S857 N859 1.610 . S
N858 S857 1.613 . S
N858 C861 1.350 . S
N859 S857 1.610 . S
N859 C860 1.351 . S
C860 C854 1.428 . S
C860 N859 1.351 . S
C860 C861 1.434 . S
C861 C852 1.429 . S
C861 N858 1.350 . S
C861 C860 1.434 . S
C862 C863 1.369 . S
C862 C864 1.419 . S
C862 H866 0.930 . S
C863 C862 1.369 . S
C863 C872 1.429 . S
C864 C862 1.419 . S
C864 C865 1.363 . S
C864 H867 0.929 . S
C865 C864 1.363 . S
C865 C871 1.428 . S
H866 C862 0.930 . S
H867 C864 0.929 . S
S868 N869 1.613 . S
S868 N870 1.610 1_455 S
N869 S868 1.613 . S
N869 C872 1.350 . S
N870 S868 1.610 1_655 S
N870 C871 1.351 1_655 S
C871 C865 1.428 . S
C871 N870 1.351 1_455 S
C871 C872 1.434 . S
C872 C863 1.429 . S
C872 N869 1.350 . S
C872 C871 1.434 . S
C873 C874 1.369 . S
C873 C875 1.419 . S
C873 H877 0.930 . S
C874 C873 1.369 . S
C874 C883 1.429 . S
C875 C873 1.419 . S
C875 C876 1.363 . S
C875 H878 0.929 . S
C876 C875 1.363 . S
C876 C882 1.428 . S
H877 C873 0.930 . S
H878 C875 0.929 . S
S879 N880 1.613 . S
S879 N881 1.610 . S
N880 S879 1.613 . S
N880 C883 1.350 . S
N881 S879 1.610 . S
N881 C882 1.351 . S
C882 C876 1.428 . S
C882 N881 1.351 . S
C882 C883 1.434 . S
C883 C874 1.429 . S
C883 N880 1.350 . S
C883 C882 1.434 . S
C884 C885 1.369 . S
C884 C886 1.419 . S
C884 H888 0.930 . S
C885 C884 1.369 . S
C885 C894 1.429 . S
C886 C884 1.419 . S
C886 C887 1.363 1_655 S
C886 H889 0.929 . S
C887 C886 1.363 1_455 S
C887 C893 1.428 . S
H888 C884 0.930 . S
H889 C886 0.929 . S
S890 N891 1.613 1_455 S
S890 N892 1.610 . S
N891 S890 1.613 1_655 S
N891 C894 1.350 . S
N892 S890 1.610 . S
N892 C893 1.351 . S
C893 C887 1.428 . S
C893 N892 1.351 . S
C893 C894 1.434 1_455 S
C894 C885 1.429 . S
C894 N891 1.350 . S
C894 C893 1.434 1_655 S
C895 C896 1.369 . S
C895 C897 1.419 . S
C895 H899 0.930 . S
C896 C895 1.369 . S
C896 C905 1.429 . S
C897 C895 1.419 . S
C897 C898 1.363 . S
C897 H900 0.929 . S
C898 C897 1.363 . S
C898 C904 1.428 . S
H899 C895 0.930 . S
H900 C897 0.929 . S
S901 N902 1.613 . S
S901 N903 1.610 . S
N902 S901 1.613 . S
N902 C905 1.350 . S
N903 S901 1.610 . S
N903 C904 1.351 . S
C904 C898 1.428 . S
C904 N903 1.351 . S
C904 C905 1.434 . S
C905 C896 1.429 . S
C905 N902 1.350 . S
C905 C904 1.434 . S
C906 C907 1.369 . S
C906 C908 1.419 1_455 S
C906 H910 0.930 . S
C907 C906 1.369 . S
C907 C916 1.429 . S
C908 C906 1.419 1_655 S
C908 C909 1.363 . S
C908 H911 0.929 . S
C909 C908 1.363 . S
C909 C915 1.428 1_655 S
H910 C906 0.930 . S
H911 C908 0.929 . S
S912 N913 1.613 . S
S912 N914 1.610 . S
N913 S912 1.613 . S
N913 C916 1.350 . S
N914 S912 1.610 . S
N914 C915 1.351 . S
C915 C909 1.428 1_455 S
C915 N914 1.351 . S
C915 C916 1.434 . S
C916 C907 1.429 . S
C916 N913 1.350 . S
C916 C915 1.434 . S
C917 C918 1.369 . S
C917 C919 1.419 . S
C917 H921 0.930 . S
C918 C917 1.369 . S
C918 C927 1.429 . S
C919 C917 1.419 . S
C919 C920 1.363 . S
C919 H922 0.929 . S
C920 C919 1.363 . S
C920 C926 1.428 . S
H921 C917 0.930 . S
H922 C919 0.929 . S
S923 N924 1.613 . S
S923 N925 1.610 . S
N924 S923 1.613 . S
N924 C927 1.350 . S
N925 S923 1.610 . S
N925 C926 1.351 . S
C926 C920 1.428 . S
C926 N925 1.351 . S
C926 C927 1.434 . S
C927 C918 1.429 . S
C927 N924 1.350 . S
C927 C926 1.434 . S
C928 C929 1.369 . S
C928 C930 1.419 . S
C928 H932 0.930 . S
C929 C928 1.369 . S
C929 C938 1.429 . S
C930 C928 1.419 . S
C930 C931 1.363 . S
C930 H933 0.929 . S
C931 C930 1.363 . S
C931 C937 1.428 . S
H932 C928 0.930 . S
H933 C930 0.929 . S
S934 N935 1.613 . S
S934 N936 1.610 . S
N935 S934 1.613 . S
N935 C938 1.350 . S
N936 S934 1.610 . S
N936 C937 1.351 . S
C937 C931 1.428 . S
C937 N936 1.351 . S
C937 C938 1.434 . S
C938 C929 1.429 . S
C938 N935 1.350 . S
C938 C937 1.434 . S
C939 C940 1.369 . S
C939 C941 1.419 . S
C939 H943 0.930 . S
C940 C939 1.369 . S
C940 C949 1.429 . S
C941 C939 1.419 . S
C941 C942 1.363 . S
C941 H944 0.929 . S
C942 C941 1.363 . S
C942 C948 1.428 . S
H943 C939 0.930 . S
H944 C941 0.929 . S
S945 N946 1.613 . S
S945 N947 1.610 . S
N946 S945 1.613 . S
N946 C949 1.350 . S
N947 S945 1.610 . S
N947 C948 1.351 . S
C948 C942 1.428 . S
C948 N947 1.351 . S
C948 C949 1.434 . S
C949 C940 1.429 . S
C949 N946 1.350 . S
C949 C948 1.434 . S
C950 C951 1.369 . S
C950 C952 1.419 . S
C950 H954 0.930 . S
C951 C950 1.369 . S
C951 C960 1.429 . S
C952 C950 1.419 . S
C952 C953 1.363 . S
C952 H955 0.929 . S
C953 C952 1.363 . S
C953 C959 1.428 . S
H954 C950 0.930 . S
H955 C952 0.929 . S
S956 N957 1.613 . S
S956 N958 1.610 . S
N957 S956 1.613 . S
N957 C960 1.350 . S
N958 S956 1.610 . S
N958 C959 1.351 . S
C959 C953 1.428 . S
C959 N958 1.351 . S
C959 C960 1.434 . S
C960 C951 1.429 . S
C960 N957 1.350 . S
C960 C959 1.434 . S
C961 C962 1.369 . S
C961 C963 1.419 . S
C961 H965 0.930 . S
C962 C961 1.369 . S
C962 C971 1.429 . S
C963 C961 1.419 . S
C963 C964 1.363 1_556 S
C963 H966 0.928 1_556 S
C964 C963 1.363 1_554 S
C964 C970 1.428 . S
H965 C961 0.930 . S
H966 C963 0.928 1_554 S
S967 N968 1.613 1_554 S
S967 N969 1.610 . S
N968 S967 1.613 1_556 S
N968 C971 1.350 . S
N969 S967 1.610 . S
N969 C970 1.351 . S
C970 C964 1.428 . S
C970 N969 1.351 . S
C970 C971 1.434 1_554 S
C971 C962 1.429 . S
C971 N968 1.350 . S
C971 C970 1.434 1_556 S
C972 C973 1.369 . S
C972 C974 1.419 . S
C972 H976 0.930 . S
C973 C972 1.369 . S
C973 C982 1.429 . S
C974 C972 1.419 . S
C974 C975 1.363 . S
C974 H977 0.929 . S
C975 C974 1.363 . S
C975 C981 1.428 . S
H976 C972 0.930 . S
H977 C974 0.929 . S
S978 N979 1.613 . S
S978 N980 1.610 . S
N979 S978 1.613 . S
N979 C982 1.350 . S
N980 S978 1.610 . S
N980 C981 1.351 . S
C981 C975 1.428 . S
C981 N980 1.351 . S
C981 C982 1.434 . S
C982 C973 1.429 . S
C982 N979 1.350 . S
C982 C981 1.434 . S
C983 C984 1.369 . S
C983 C985 1.419 . S
C983 H987 0.930 . S
C984 C983 1.369 . S
C984 C993 1.429 . S
C985 C983 1.419 . S
C985 C986 1.363 . S
C985 H988 0.929 . S
C986 C985 1.363 . S
C986 C992 1.428 . S
H987 C983 0.930 . S
H988 C985 0.929 . S
S989 N990 1.613 . S
S989 N991 1.610 . S
N990 S989 1.613 . S
N990 C993 1.350 . S
N991 S989 1.610 . S
N991 C992 1.351 . S
C992 C986 1.428 . S
C992 N991 1.351 . S
C992 C993 1.434 . S
C993 C984 1.429 . S
C993 N990 1.350 . S
C993 C992 1.434 . S
C994 C995 1.369 . S
C994 C996 1.419 . S
C994 H998 0.930 . S
C995 C994 1.369 . S
C995 C1004 1.429 . S
C996 C994 1.419 . S
C996 C997 1.363 . S
C996 H999 0.929 . S
C997 C996 1.363 . S
C997 C1003 1.428 . S
H998 C994 0.930 . S
H999 C996 0.929 . S
S1000 N1001 1.613 . S
S1000 N1002 1.610 . S
N1001 S1000 1.613 . S
N1001 C1004 1.350 . S
N1002 S1000 1.610 . S
N1002 C1003 1.351 . S
C1003 C997 1.428 . S
C1003 N1002 1.351 . S
C1003 C1004 1.434 . S
C1004 C995 1.429 . S
C1004 N1001 1.350 . S
C1004 C1003 1.434 . S
C1005 C1006 1.369 . S
C1005 C1007 1.419 . S
C1005 H1009 0.930 . S
C1006 C1005 1.369 . S
C1006 C1015 1.429 . S
C1007 C1005 1.419 . S
C1007 C1008 1.359 1_554 S
C1007 H1010 0.929 1_554 S
C1008 C1007 1.359 1_556 S
C1008 C1014 1.409 1_556 S
H1009 C1005 0.930 . S
H1010 C1007 0.929 1_556 S
S1011 N1012 1.613 . S
S1011 N1013 1.610 . S
N1012 S1011 1.613 . S
N1012 C1015 1.350 . S
N1013 S1011 1.610 . S
N1013 C1014 1.351 . S
C1014 C1008 1.409 1_554 S
C1014 N1013 1.351 . S
C1014 C1015 1.434 . S
C1015 C1006 1.429 . S
C1015 N1012 1.350 . S
C1015 C1014 1.434 . S
C1016 C1017 1.369 . S
C1016 C1018 1.419 . S
C1016 H1020 0.930 . S
C1017 C1016 1.369 . S
C1017 C1026 1.429 . S
C1018 C1016 1.419 . S
C1018 C1019 1.363 . S
C1018 H1021 0.929 . S
C1019 C1018 1.363 . S
C1019 C1025 1.428 . S
H1020 C1016 0.930 . S
H1021 C1018 0.929 . S
S1022 N1023 1.613 . S
S1022 N1024 1.610 . S
N1023 S1022 1.613 . S
N1023 C1026 1.350 . S
N1024 S1022 1.610 . S
N1024 C1025 1.351 . S
C1025 C1019 1.428 . S
C1025 N1024 1.351 . S
C1025 C1026 1.434 . S
C1026 C1017 1.429 . S
C1026 N1023 1.350 . S
C1026 C1025 1.434 . S
C1027 C1028 1.369 . S
C1027 C1029 1.419 . S
C1027 H1031 0.930 . S
C1028 C1027 1.369 . S
C1028 C1037 1.429 . S
C1029 C1027 1.419 . S
C1029 C1030 1.363 1_565 S
C1029 H1032 0.929 . S
C1030 C1029 1.363 1_545 S
C1030 C1036 1.428 . S
H1031 C1027 0.930 . S
H1032 C1029 0.929 . S
S1033 N1034 1.613 1_545 S
S1033 N1035 1.610 . S
N1034 S1033 1.613 1_565 S
N1034 C1037 1.350 . S
N1035 S1033 1.610 . S
N1035 C1036 1.351 . S
C1036 C1030 1.428 . S
C1036 N1035 1.351 . S
C1036 C1037 1.434 1_545 S
C1037 C1028 1.429 . S
C1037 N1034 1.350 . S
C1037 C1036 1.434 1_565 S
C1038 C1039 1.369 . S
C1038 C1040 1.419 . S
C1038 H1042 0.930 . S
C1039 C1038 1.369 . S
C1039 C1048 1.429 . S
C1040 C1038 1.419 . S
C1040 C1041 1.363 . S
C1040 H1043 0.929 . S
C1041 C1040 1.363 . S
C1041 C1047 1.428 . S
H1042 C1038 0.930 . S
H1043 C1040 0.929 . S
S1044 N1045 1.613 . S
S1044 N1046 1.610 . S
N1045 S1044 1.613 . S
N1045 C1048 1.350 . S
N1046 S1044 1.610 . S
N1046 C1047 1.351 . S
C1047 C1041 1.428 . S
C1047 N1046 1.351 . S
C1047 C1048 1.434 . S
C1048 C1039 1.429 . S
C1048 N1045 1.350 . S
C1048 C1047 1.434 . S
C1049 C1050 1.369 . S
C1049 C1051 1.419 1_545 S
C1049 H1053 0.930 . S
C1050 C1049 1.369 . S
C1050 C1059 1.429 . S
C1051 C1049 1.419 1_565 S
C1051 C1052 1.363 . S
C1051 H1054 0.929 . S
C1052 C1051 1.363 . S
C1052 C1058 1.428 1_565 S
H1053 C1049 0.930 . S
H1054 C1051 0.929 . S
S1055 N1056 1.613 . S
S1055 N1057 1.610 . S
N1056 S1055 1.613 . S
N1056 C1059 1.350 . S
N1057 S1055 1.610 . S
N1057 C1058 1.351 . S
C1058 C1052 1.428 1_545 S
C1058 N1057 1.351 . S
C1058 C1059 1.434 . S
C1059 C1050 1.429 . S
C1059 N1056 1.350 . S
C1059 C1058 1.434 . S
C1060 C1061 1.369 . S
C1060 C1062 1.419 . S
C1060 H1064 0.930 . S
C1061 C1060 1.369 . S
C1061 C1070 1.429 . S
C1062 C1060 1.419 . S
C1062 C1063 1.363 . S
C1062 H1065 0.929 . S
C1063 C1062 1.363 . S
C1063 C1069 1.428 . S
H1064 C1060 0.930 . S
H1065 C1062 0.929 . S
S1066 N1067 1.613 . S
S1066 N1068 1.610 . S
N1067 S1066 1.613 . S
N1067 C1070 1.350 . S
N1068 S1066 1.610 . S
N1068 C1069 1.351 . S
C1069 C1063 1.428 . S
C1069 N1068 1.351 . S
C1069 C1070 1.434 . S
C1070 C1061 1.429 . S
C1070 N1067 1.350 . S
C1070 C1069 1.434 . S
C1071 C1072 1.369 . S
C1071 C1073 1.430 . S
C1071 H1075 0.930 . S
C1072 C1071 1.369 . S
C1072 C1081 1.429 . S
C1073 C1071 1.430 . S
C1073 C1074 1.354 1_565 S
C1073 H1076 0.927 1_565 S
C1074 C1073 1.354 1_545 S
C1074 C1080 1.428 . S
H1075 C1071 0.930 . S
H1076 C1073 0.927 1_545 S
S1077 N1078 1.613 1_545 S
S1077 N1079 1.610 . S
N1078 S1077 1.613 1_565 S
N1078 C1081 1.350 . S
N1079 S1077 1.610 . S
N1079 C1080 1.351 . S
C1080 C1074 1.428 . S
C1080 N1079 1.351 . S
C1080 C1081 1.434 1_545 S
C1081 C1072 1.429 . S
C1081 N1078 1.350 . S
C1081 C1080 1.434 1_565 S
C1082 C1083 1.369 . S
C1082 C1084 1.419 . S
C1082 H1086 0.930 . S
C1083 C1082 1.369 . S
C1083 C1092 1.429 . S
C1084 C1082 1.419 . S
C1084 C1085 1.363 . S
C1084 H1087 0.929 . S
C1085 C1084 1.363 . S
C1085 C1091 1.428 . S
H1086 C1082 0.930 . S
H1087 C1084 0.929 . S
S1088 N1089 1.613 . S
S1088 N1090 1.610 . S
N1089 S1088 1.613 . S
N1089 C1092 1.350 . S
N1090 S1088 1.610 . S
N1090 C1091 1.351 . S
C1091 C1085 1.428 . S
C1091 N1090 1.351 . S
C1091 C1092 1.434 . S
C1092 C1083 1.429 . S
C1092 N1089 1.350 . S
C1092 C1091 1.434 . S
C1093 C1094 1.369 . S
C1093 C1095 1.419 . S
C1093 H1097 0.930 . S
C1094 C1093 1.369 . S
C1094 C1103 1.429 . S
C1095 C1093 1.419 . S
C1095 C1096 1.363 1_545 S
C1095 H1098 0.929 . S
C1096 C1095 1.363 1_565 S
C1096 C1102 1.428 1_565 S
H1097 C1093 0.930 . S
H1098 C1095 0.929 . S
S1099 N1100 1.613 . S
S1099 N1101 1.610 . S
N1100 S1099 1.613 . S
N1100 C1103 1.350 . S
N1101 S1099 1.610 . S
N1101 C1102 1.351 . S
C1102 C1096 1.428 1_545 S
C1102 N1101 1.351 . S
C1102 C1103 1.434 . S
C1103 C1094 1.429 . S
C1103 N1100 1.350 . S
C1103 C1102 1.434 . S
C1104 C1105 1.369 . S
C1104 C1106 1.419 . S
C1104 H1108 0.930 . S
C1105 C1104 1.369 . S
C1105 C1114 1.429 . S
C1106 C1104 1.419 . S
C1106 C1107 1.363 . S
C1106 H1109 0.929 . S
C1107 C1106 1.363 . S
C1107 C1113 1.428 . S
H1108 C1104 0.930 . S
H1109 C1106 0.929 . S
S1110 N1111 1.613 . S
S1110 N1112 1.610 . S
N1111 S1110 1.613 . S
N1111 C1114 1.350 . S
N1112 S1110 1.610 . S
N1112 C1113 1.351 . S
C1113 C1107 1.428 . S
C1113 N1112 1.351 . S
C1113 C1114 1.434 . S
C1114 C1105 1.429 . S
C1114 N1111 1.350 . S
C1114 C1113 1.434 . S
C1115 C1116 1.369 . S
C1115 C1117 1.419 . S
C1115 H1119 0.930 . S
C1116 C1115 1.369 . S
C1116 C1125 1.429 . S
C1117 C1115 1.419 . S
C1117 C1118 1.363 . S
C1117 H1120 0.929 . S
C1118 C1117 1.363 . S
C1118 C1124 1.428 . S
H1119 C1115 0.930 . S
H1120 C1117 0.929 . S
S1121 N1122 1.613 . S
S1121 N1123 1.610 . S
N1122 S1121 1.613 . S
N1122 C1125 1.350 . S
N1123 S1121 1.610 . S
N1123 C1124 1.351 . S
C1124 C1118 1.428 . S
C1124 N1123 1.351 . S
C1124 C1125 1.434 . S
C1125 C1116 1.429 . S
C1125 N1122 1.350 . S
C1125 C1124 1.434 . S
C1126 C1127 1.369 . S
C1126 C1128 1.419 . S
C1126 H1130 0.930 . S
C1127 C1126 1.369 . S
C1127 C1136 1.429 . S
C1128 C1126 1.419 . S
C1128 C1129 1.363 1_655 S
C1128 H1131 0.929 . S
C1129 C1128 1.363 1_455 S
C1129 C1135 1.428 . S
H1130 C1126 0.930 . S
H1131 C1128 0.929 . S
S1132 N1133 1.613 1_455 S
S1132 N1134 1.610 . S
N1133 S1132 1.613 1_655 S
N1133 C1136 1.350 . S
N1134 S1132 1.610 . S
N1134 C1135 1.351 . S
C1135 C1129 1.428 . S
C1135 N1134 1.351 . S
C1135 C1136 1.434 1_455 S
C1136 C1127 1.429 . S
C1136 N1133 1.350 . S
C1136 C1135 1.434 1_655 S
C1137 C1138 1.369 . S
C1137 C1139 1.419 . S
C1137 H1141 0.930 . S
C1138 C1137 1.369 . S
C1138 C1147 1.429 . S
C1139 C1137 1.419 . S
C1139 C1140 1.363 . S
C1139 H1142 0.929 . S
C1140 C1139 1.363 . S
C1140 C1146 1.428 . S
H1141 C1137 0.930 . S
H1142 C1139 0.929 . S
S1143 N1144 1.613 . S
S1143 N1145 1.610 . S
N1144 S1143 1.613 . S
N1144 C1147 1.350 . S
N1145 S1143 1.610 . S
N1145 C1146 1.351 . S
C1146 C1140 1.428 . S
C1146 N1145 1.351 . S
C1146 C1147 1.434 . S
C1147 C1138 1.429 . S
C1147 N1144 1.350 . S
C1147 C1146 1.434 . S
C1148 C1149 1.369 . S
C1148 C1150 1.419 1_455 S
C1148 H1152 0.930 . S
C1149 C1148 1.369 . S
C1149 C1158 1.429 . S
C1150 C1148 1.419 1_655 S
C1150 C1151 1.363 . S
C1150 H1153 0.929 . S
C1151 C1150 1.363 . S
C1151 C1157 1.428 1_655 S
H1152 C1148 0.930 . S
H1153 C1150 0.929 . S
S1154 N1155 1.613 . S
S1154 N1156 1.610 . S
N1155 S1154 1.613 . S
N1155 C1158 1.350 . S
N1156 S1154 1.610 . S
N1156 C1157 1.351 . S
C1157 C1151 1.428 1_455 S
C1157 N1156 1.351 . S
C1157 C1158 1.434 . S
C1158 C1149 1.429 . S
C1158 N1155 1.350 . S
C1158 C1157 1.434 . S
C1159 C1160 1.369 . S
C1159 C1161 1.419 . S
C1159 H1163 0.930 . S
C1160 C1159 1.369 . S
C1160 C1169 1.429 . S
C1161 C1159 1.419 . S
C1161 C1162 1.363 . S
C1161 H1164 0.929 . S
C1162 C1161 1.363 . S
C1162 C1168 1.428 . S
H1163 C1159 0.930 . S
H1164 C1161 0.929 . S
S1165 N1166 1.613 . S
S1165 N1167 1.610 . S
N1166 S1165 1.613 . S
N1166 C1169 1.350 . S
N1167 S1165 1.610 . S
N1167 C1168 1.351 . S
C1168 C1162 1.428 . S
C1168 N1167 1.351 . S
C1168 C1169 1.434 . S
C1169 C1160 1.429 . S
C1169 N1166 1.350 . S
C1169 C1168 1.434 . S
C1170 C1171 1.369 . S
C1170 C1172 1.419 1_655 S
C1170 H1174 0.930 . S
C1171 C1170 1.369 . S
C1171 C1180 1.429 . S
C1172 C1170 1.419 1_455 S
C1172 C1173 1.363 . S
C1172 H1175 0.929 . S
C1173 C1172 1.363 . S
C1173 C1179 1.428 1_455 S
H1174 C1170 0.930 . S
H1175 C1172 0.929 . S
S1176 N1177 1.613 . S
S1176 N1178 1.610 . S
N1177 S1176 1.613 . S
N1177 C1180 1.350 . S
N1178 S1176 1.610 . S
N1178 C1179 1.351 . S
C1179 C1173 1.428 1_655 S
C1179 N1178 1.351 . S
C1179 C1180 1.434 . S
C1180 C1171 1.429 . S
C1180 N1177 1.350 . S
C1180 C1179 1.434 . S
C1181 C1182 1.369 . S
C1181 C1183 1.419 . S
C1181 H1185 0.930 . S
C1182 C1181 1.369 . S
C1182 C1191 1.429 . S
C1183 C1181 1.419 . S
C1183 C1184 1.363 . S
C1183 H1186 0.929 . S
C1184 C1183 1.363 . S
C1184 C1190 1.428 . S
H1185 C1181 0.930 . S
H1186 C1183 0.929 . S
S1187 N1188 1.613 . S
S1187 N1189 1.610 . S
N1188 S1187 1.613 . S
N1188 C1191 1.350 . S
N1189 S1187 1.610 . S
N1189 C1190 1.351 . S
C1190 C1184 1.428 . S
C1190 N1189 1.351 . S
C1190 C1191 1.434 . S
C1191 C1182 1.429 . S
C1191 N1188 1.350 . S
C1191 C1190 1.434 . S
C1192 C1193 1.369 . S
C1192 C1194 1.419 . S
C1192 H1196 0.930 . S
C1193 C1192 1.369 . S
C1193 C1202 1.429 . S
C1194 C1192 1.419 . S
C1194 C1195 1.363 . S
C1194 H1197 0.929 . S
C1195 C1194 1.363 . S
C1195 C1201 1.428 . S
H1196 C1192 0.930 . S
H1197 C1194 0.929 . S
S1198 N1199 1.613 . S
S1198 N1200 1.610 . S
N1199 S1198 1.613 . S
N1199 C1202 1.350 . S
N1200 S1198 1.610 . S
N1200 C1201 1.351 . S
C1201 C1195 1.428 . S
C1201 N1200 1.351 . S
C1201 C1202 1.434 . S
C1202 C1193 1.429 . S
C1202 N1199 1.350 . S
C1202 C1201 1.434 . S
C1203 C1204 1.369 . S
C1203 C1205 1.419 . S
C1203 H1207 0.930 . S
C1204 C1203 1.369 . S
C1204 C1213 1.429 . S
C1205 C1203 1.419 . S
C1205 C1206 1.363 1_554 S
C1205 H1208 0.929 . S
C1206 C1205 1.363 1_556 S
C1206 C1212 1.428 . S
H1207 C1203 0.930 . S
H1208 C1205 0.929 . S
S1209 N1210 1.613 1_556 S
S1209 N1211 1.610 . S
N1210 S1209 1.613 1_554 S
N1210 C1213 1.350 . S
N1211 S1209 1.610 . S
N1211 C1212 1.351 . S
C1212 C1206 1.428 . S
C1212 N1211 1.351 . S
C1212 C1213 1.434 1_556 S
C1213 C1204 1.429 . S
C1213 N1210 1.350 . S
C1213 C1212 1.434 1_554 S
C1214 C1215 1.369 . S
C1214 C1216 1.419 . S
C1214 H1218 0.930 . S
C1215 C1214 1.369 . S
C1215 C1224 1.429 . S
C1216 C1214 1.419 . S
C1216 C1217 1.363 . S
C1216 H1219 0.929 . S
C1217 C1216 1.363 . S
C1217 C1223 1.428 . S
H1218 C1214 0.930 . S
H1219 C1216 0.929 . S
S1220 N1221 1.613 . S
S1220 N1222 1.610 1_455 S
N1221 S1220 1.613 . S
N1221 C1224 1.350 1_455 S
N1222 S1220 1.610 1_655 S
N1222 C1223 1.351 . S
C1223 C1217 1.428 . S
C1223 N1222 1.351 . S
C1223 C1224 1.434 . S
C1224 C1215 1.429 . S
C1224 N1221 1.350 1_655 S
C1224 C1223 1.434 . S
C1225 C1226 1.369 . S
C1225 C1227 1.419 . S
C1225 H1229 0.930 . S
C1226 C1225 1.369 . S
C1226 C1235 1.429 . S
C1227 C1225 1.419 . S
C1227 C1228 1.363 . S
C1227 H1230 0.929 . S
C1228 C1227 1.363 . S
C1228 C1234 1.428 . S
H1229 C1225 0.930 . S
H1230 C1227 0.929 . S
S1231 N1232 1.613 . S
S1231 N1233 1.610 . S
N1232 S1231 1.613 . S
N1232 C1235 1.350 . S
N1233 S1231 1.610 . S
N1233 C1234 1.351 . S
C1234 C1228 1.428 . S
C1234 N1233 1.351 . S
C1234 C1235 1.434 . S
C1235 C1226 1.429 . S
C1235 N1232 1.350 . S
C1235 C1234 1.434 . S
C1236 C1237 1.369 . S
C1236 C1238 1.419 . S
C1236 H1240 0.930 . S
C1237 C1236 1.369 . S
C1237 C1246 1.429 . S
C1238 C1236 1.419 . S
C1238 C1239 1.363 . S
C1238 H1241 0.929 . S
C1239 C1238 1.363 . S
C1239 C1245 1.428 . S
H1240 C1236 0.930 . S
H1241 C1238 0.929 . S
S1242 N1243 1.613 . S
S1242 N1244 1.610 . S
N1243 S1242 1.613 . S
N1243 C1246 1.350 . S
N1244 S1242 1.610 . S
N1244 C1245 1.351 . S
C1245 C1239 1.428 . S
C1245 N1244 1.351 . S
C1245 C1246 1.434 . S
C1246 C1237 1.429 . S
C1246 N1243 1.350 . S
C1246 C1245 1.434 . S
C1247 C1248 1.369 . S
C1247 C1249 1.419 1_556 S
C1247 H1251 0.930 1_655 S
C1248 C1247 1.369 . S
C1248 C1257 1.429 . S
C1249 C1247 1.419 1_554 S
C1249 C1250 1.363 . S
C1249 H1252 0.929 . S
C1250 C1249 1.363 . S
C1250 C1256 1.428 1_554 S
H1251 C1247 0.930 1_455 S
H1252 C1249 0.929 . S
S1253 N1254 1.613 . S
S1253 N1255 1.610 . S
N1254 S1253 1.613 . S
N1254 C1257 1.350 . S
N1255 S1253 1.610 . S
N1255 C1256 1.351 . S
C1256 C1250 1.428 1_556 S
C1256 N1255 1.351 . S
C1256 C1257 1.434 . S
C1257 C1248 1.429 . S
C1257 N1254 1.350 . S
C1257 C1256 1.434 . S
C1258 C1259 1.369 . S
C1258 C1260 1.419 . S
C1258 H1262 0.930 . S
C1259 C1258 1.369 . S
C1259 C1268 1.429 . S
C1260 C1258 1.419 . S
C1260 C1261 1.363 . S
C1260 H1263 0.929 . S
C1261 C1260 1.363 . S
C1261 C1267 1.428 . S
H1262 C1258 0.930 . S
H1263 C1260 0.929 . S
S1264 N1265 1.613 . S
S1264 N1266 1.610 . S
N1265 S1264 1.613 . S
N1265 C1268 1.350 . S
N1266 S1264 1.610 . S
N1266 C1267 1.351 . S
C1267 C1261 1.428 . S
C1267 N1266 1.351 . S
C1267 C1268 1.434 . S
C1268 C1259 1.429 . S
C1268 N1265 1.350 . S
C1268 C1267 1.434 . S
C1269 C1270 1.369 . S
C1269 C1271 1.419 . S
C1269 H1273 0.930 . S
C1270 C1269 1.369 . S
C1270 C1279 1.429 . S
C1271 C1269 1.419 . S
C1271 C1272 1.363 . S
C1271 H1274 0.929 . S
C1272 C1271 1.363 . S
C1272 C1278 1.428 . S
H1273 C1269 0.930 . S
H1274 C1271 0.929 . S
S1275 N1276 1.613 . S
S1275 N1277 1.610 . S
N1276 S1275 1.613 . S
N1276 C1279 1.350 . S
N1277 S1275 1.610 . S
N1277 C1278 1.351 . S
C1278 C1272 1.428 . S
C1278 N1277 1.351 . S
C1278 C1279 1.434 . S
C1279 C1270 1.429 . S
C1279 N1276 1.350 . S
C1279 C1278 1.434 . S
C1280 C1281 1.369 . S
C1280 C1282 1.419 . S
C1280 H1284 0.930 . S
C1281 C1280 1.369 . S
C1281 C1290 1.429 . S
C1282 C1280 1.419 . S
C1282 C1283 1.363 . S
C1282 H1285 0.929 . S
C1283 C1282 1.363 . S
C1283 C1289 1.428 . S
H1284 C1280 0.930 . S
H1285 C1282 0.929 . S
S1286 N1287 1.613 . S
S1286 N1288 1.610 . S
N1287 S1286 1.613 . S
N1287 C1290 1.350 . S
N1288 S1286 1.610 . S
N1288 C1289 1.351 . S
C1289 C1283 1.428 . S
C1289 N1288 1.351 . S
C1289 C1290 1.434 . S
C1290 C1281 1.429 . S
C1290 N1287 1.350 . S
C1290 C1289 1.434 . S
C1291 C1292 1.369 . S
C1291 C1293 1.419 . S
C1291 H1295 0.930 1_556 S
C1292 C1291 1.369 . S
C1292 C1301 1.429 . S
C1293 C1291 1.419 . S
C1293 C1294 1.363 . S
C1293 H1296 0.929 . S
C1294 C1293 1.363 . S
C1294 C1300 1.428 . S
H1295 C1291 0.930 1_554 S
H1296 C1293 0.929 . S
S1297 N1298 1.613 . S
S1297 N1299 1.610 . S
N1298 S1297 1.613 . S
N1298 C1301 1.350 . S
N1299 S1297 1.610 . S
N1299 C1300 1.351 . S
C1300 C1294 1.428 . S
C1300 N1299 1.351 . S
C1300 C1301 1.434 . S
C1301 C1292 1.429 . S
C1301 N1298 1.350 . S
C1301 C1300 1.434 . S
C1302 C1303 1.369 . S
C1302 C1304 1.419 . S
C1302 H1306 0.930 . S
C1303 C1302 1.369 . S
C1303 C1312 1.429 . S
C1304 C1302 1.419 . S
C1304 C1305 1.363 . S
C1304 H1307 0.929 . S
C1305 C1304 1.363 . S
C1305 C1311 1.428 . S
H1306 C1302 0.930 . S
H1307 C1304 0.929 . S
S1308 N1309 1.613 . S
S1308 N1310 1.610 . S
N1309 S1308 1.613 . S
N1309 C1312 1.350 . S
N1310 S1308 1.610 . S
N1310 C1311 1.351 . S
C1311 C1305 1.428 . S
C1311 N1310 1.351 . S
C1311 C1312 1.434 . S
C1312 C1303 1.429 . S
C1312 N1309 1.350 . S
C1312 C1311 1.434 . S
C1313 C1314 1.369 . S
C1313 C1315 1.419 . S
C1313 H1317 0.930 . S
C1314 C1313 1.369 . S
C1314 C1323 1.429 . S
C1315 C1313 1.419 . S
C1315 C1316 1.363 . S
C1315 H1318 0.929 . S
C1316 C1315 1.363 . S
C1316 C1322 1.428 . S
H1317 C1313 0.930 . S
H1318 C1315 0.929 . S
S1319 N1320 1.613 . S
S1319 N1321 1.610 . S
N1320 S1319 1.613 . S
N1320 C1323 1.350 . S
N1321 S1319 1.610 . S
N1321 C1322 1.351 . S
C1322 C1316 1.428 . S
C1322 N1321 1.351 . S
C1322 C1323 1.434 . S
C1323 C1314 1.429 . S
C1323 N1320 1.350 . S
C1323 C1322 1.434 . S
C1324 C1325 1.369 . S
C1324 C1326 1.419 . S
C1324 H1328 0.930 . S
C1325 C1324 1.369 . S
C1325 C1334 1.429 . S
C1326 C1324 1.419 . S
C1326 C1327 1.363 . S
C1326 H1329 0.929 . S
C1327 C1326 1.363 . S
C1327 C1333 1.428 . S
H1328 C1324 0.930 . S
H1329 C1326 0.929 . S
S1330 N1331 1.613 . S
S1330 N1332 1.610 . S
N1331 S1330 1.613 . S
N1331 C1334 1.350 . S
N1332 S1330 1.610 . S
N1332 C1333 1.351 . S
C1333 C1327 1.428 . S
C1333 N1332 1.351 . S
C1333 C1334 1.434 . S
C1334 C1325 1.429 . S
C1334 N1331 1.350 . S
C1334 C1333 1.434 . S
C1335 C1336 1.369 . S
C1335 C1337 1.419 . S
C1335 H1339 0.930 . S
C1336 C1335 1.369 . S
C1336 C1345 1.429 . S
C1337 C1335 1.419 . S
C1337 C1338 1.363 . S
C1337 H1340 0.929 . S
C1338 C1337 1.363 . S
C1338 C1344 1.428 . S
H1339 C1335 0.930 . S
H1340 C1337 0.929 . S
S1341 N1342 1.613 . S
S1341 N1343 1.610 . S
N1342 S1341 1.613 . S
N1342 C1345 1.350 . S
N1343 S1341 1.610 . S
N1343 C1344 1.351 . S
C1344 C1338 1.428 . S
C1344 N1343 1.351 . S
C1344 C1345 1.434 . S
C1345 C1336 1.429 . S
C1345 N1342 1.350 . S
C1345 C1344 1.434 . S
C1346 C1347 1.369 . S
C1346 C1348 1.419 . S
C1346 H1350 0.930 . S
C1347 C1346 1.369 . S
C1347 C1356 1.429 . S
C1348 C1346 1.419 . S
C1348 C1349 1.363 . S
C1348 H1351 0.929 . S
C1349 C1348 1.363 . S
C1349 C1355 1.428 . S
H1350 C1346 0.930 . S
H1351 C1348 0.929 . S
S1352 N1353 1.613 . S
S1352 N1354 1.610 . S
N1353 S1352 1.613 . S
N1353 C1356 1.350 . S
N1354 S1352 1.610 . S
N1354 C1355 1.351 . S
C1355 C1349 1.428 . S
C1355 N1354 1.351 . S
C1355 C1356 1.434 . S
C1356 C1347 1.429 . S
C1356 N1353 1.350 . S
C1356 C1355 1.434 . S
C1357 C1358 1.369 . S
C1357 C1359 1.419 . S
C1357 H1361 0.930 . S
C1358 C1357 1.369 . S
C1358 C1367 1.429 . S
C1359 C1357 1.419 . S
C1359 C1360 1.363 . S
C1359 H1362 0.929 . S
C1360 C1359 1.363 . S
C1360 C1366 1.428 . S
H1361 C1357 0.930 . S
H1362 C1359 0.929 . S
S1363 N1364 1.613 . S
S1363 N1365 1.610 . S
N1364 S1363 1.613 . S
N1364 C1367 1.350 . S
N1365 S1363 1.610 . S
N1365 C1366 1.351 . S
C1366 C1360 1.428 . S
C1366 N1365 1.351 . S
C1366 C1367 1.434 . S
C1367 C1358 1.429 . S
C1367 N1364 1.350 . S
C1367 C1366 1.434 . S
C1368 C1369 1.369 . S
C1368 C1370 1.419 . S
C1368 H1372 0.930 . S
C1369 C1368 1.369 . S
C1369 C1378 1.429 . S
C1370 C1368 1.419 . S
C1370 C1371 1.363 . S
C1370 H1373 0.929 . S
C1371 C1370 1.363 . S
C1371 C1377 1.428 . S
H1372 C1368 0.930 . S
H1373 C1370 0.929 . S
S1374 N1375 1.613 . S
S1374 N1376 1.610 . S
N1375 S1374 1.613 . S
N1375 C1378 1.350 . S
N1376 S1374 1.610 . S
N1376 C1377 1.351 . S
C1377 C1371 1.428 . S
C1377 N1376 1.351 . S
C1377 C1378 1.434 . S
C1378 C1369 1.429 . S
C1378 N1375 1.350 . S
C1378 C1377 1.434 . S
C1379 C1380 1.369 . S
C1379 C1381 1.419 . S
C1379 H1383 0.930 . S
C1380 C1379 1.369 . S
C1380 C1389 1.429 . S
C1381 C1379 1.419 . S
C1381 C1382 1.363 . S
C1381 H1384 0.929 . S
C1382 C1381 1.363 . S
C1382 C1388 1.428 . S
H1383 C1379 0.930 . S
H1384 C1381 0.929 . S
S1385 N1386 1.613 . S
S1385 N1387 1.610 . S
N1386 S1385 1.613 . S
N1386 C1389 1.350 . S
N1387 S1385 1.610 . S
N1387 C1388 1.351 . S
C1388 C1382 1.428 . S
C1388 N1387 1.351 . S
C1388 C1389 1.434 . S
C1389 C1380 1.429 . S
C1389 N1386 1.350 . S
C1389 C1388 1.434 . S
C1390 C1391 1.369 . S
C1390 C1392 1.419 . S
C1390 H1394 0.930 . S
C1391 C1390 1.369 . S
C1391 C1400 1.429 . S
C1392 C1390 1.419 . S
C1392 C1393 1.363 . S
C1392 H1395 0.929 . S
C1393 C1392 1.363 . S
C1393 C1399 1.428 . S
H1394 C1390 0.930 . S
H1395 C1392 0.929 . S
S1396 N1397 1.613 . S
S1396 N1398 1.610 . S
N1397 S1396 1.613 . S
N1397 C1400 1.350 . S
N1398 S1396 1.610 . S
N1398 C1399 1.351 . S
C1399 C1393 1.428 . S
C1399 N1398 1.351 . S
C1399 C1400 1.434 . S
C1400 C1391 1.429 . S
C1400 N1397 1.350 . S
C1400 C1399 1.434 . S
C1401 C1402 1.369 . S
C1401 C1403 1.419 . S
C1401 H1405 0.930 . S
C1402 C1401 1.369 . S
C1402 C1411 1.429 . S
C1403 C1401 1.419 . S
C1403 C1404 1.363 . S
C1403 H1406 0.929 . S
C1404 C1403 1.363 . S
C1404 C1410 1.428 . S
H1405 C1401 0.930 . S
H1406 C1403 0.929 . S
S1407 N1408 1.613 . S
S1407 N1409 1.610 . S
N1408 S1407 1.613 . S
N1408 C1411 1.350 . S
N1409 S1407 1.610 . S
N1409 C1410 1.351 . S
C1410 C1404 1.428 . S
C1410 N1409 1.351 . S
C1410 C1411 1.434 . S
C1411 C1402 1.429 . S
C1411 N1408 1.350 . S
C1411 C1410 1.434 . S
C1412 C1413 1.369 . S
C1412 C1414 1.419 . S
C1412 H1416 0.930 . S
C1413 C1412 1.369 . S
C1413 C1422 1.429 . S
C1414 C1412 1.419 . S
C1414 C1415 1.363 . S
C1414 H1417 0.929 . S
C1415 C1414 1.363 . S
C1415 C1421 1.428 . S
H1416 C1412 0.930 . S
H1417 C1414 0.929 . S
S1418 N1419 1.613 . S
S1418 N1420 1.610 . S
N1419 S1418 1.613 . S
N1419 C1422 1.350 . S
N1420 S1418 1.610 . S
N1420 C1421 1.351 . S
C1421 C1415 1.428 . S
C1421 N1420 1.351 . S
C1421 C1422 1.434 . S
C1422 C1413 1.429 . S
C1422 N1419 1.350 . S
C1422 C1421 1.434 . S
C1423 C1424 1.369 . S
C1423 C1425 1.419 . S
C1423 H1427 0.930 . S
C1424 C1423 1.369 . S
C1424 C1433 1.429 . S
C1425 C1423 1.419 . S
C1425 C1426 1.363 . S
C1425 H1428 0.929 . S
C1426 C1425 1.363 . S
C1426 C1432 1.428 . S
H1427 C1423 0.930 . S
H1428 C1425 0.929 . S
S1429 N1430 1.613 . S
S1429 N1431 1.610 . S
N1430 S1429 1.613 . S
N1430 C1433 1.350 . S
N1431 S1429 1.610 . S
N1431 C1432 1.351 . S
C1432 C1426 1.428 . S
C1432 N1431 1.351 . S
C1432 C1433 1.434 . S
C1433 C1424 1.429 . S
C1433 N1430 1.350 . S
C1433 C1432 1.434 . S
C1434 C1435 1.369 . S
C1434 C1436 1.419 . S
C1434 H1438 0.930 . S
C1435 C1434 1.369 . S
C1435 C1444 1.429 . S
C1436 C1434 1.419 . S
C1436 C1437 1.363 . S
C1436 H1439 0.929 . S
C1437 C1436 1.363 . S
C1437 C1443 1.428 . S
H1438 C1434 0.930 . S
H1439 C1436 0.929 . S
S1440 N1441 1.613 . S
S1440 N1442 1.610 . S
N1441 S1440 1.613 . S
N1441 C1444 1.350 . S
N1442 S1440 1.610 . S
N1442 C1443 1.351 . S
C1443 C1437 1.428 . S
C1443 N1442 1.351 . S
C1443 C1444 1.434 . S
C1444 C1435 1.429 . S
C1444 N1441 1.350 . S
C1444 C1443 1.434 . S
C1445 C1446 1.369 . S
C1445 C1447 1.419 1_655 S
C1445 H1449 0.930 . S
C1446 C1445 1.369 . S
C1446 C1455 1.429 . S
C1447 C1445 1.419 1_455 S
C1447 C1448 1.363 . S
C1447 H1450 0.929 . S
C1448 C1447 1.363 . S
C1448 C1454 1.428 1_455 S
H1449 C1445 0.930 . S
H1450 C1447 0.929 . S
S1451 N1452 1.613 . S
S1451 N1453 1.610 1_645 S
N1452 S1451 1.613 . S
N1452 C1455 1.350 1_545 S
N1453 S1451 1.610 1_465 S
N1453 C1454 1.351 1_455 S
C1454 C1448 1.428 1_655 S
C1454 N1453 1.351 1_655 S
C1454 C1455 1.434 . S
C1455 C1446 1.429 . S
C1455 N1452 1.350 1_565 S
C1455 C1454 1.434 . S
C1456 C1457 1.369 . S
C1456 C1458 1.419 . S
C1456 H1460 0.930 . S
C1457 C1456 1.369 . S
C1457 C1466 1.429 . S
C1458 C1456 1.419 . S
C1458 C1459 1.363 . S
C1458 H1461 0.929 . S
C1459 C1458 1.363 . S
C1459 C1465 1.428 . S
H1460 C1456 0.930 . S
H1461 C1458 0.929 . S
S1462 N1463 1.613 . S
S1462 N1464 1.610 . S
N1463 S1462 1.613 . S
N1463 C1466 1.350 . S
N1464 S1462 1.610 . S
N1464 C1465 1.351 . S
C1465 C1459 1.428 . S
C1465 N1464 1.351 . S
C1465 C1466 1.434 . S
C1466 C1457 1.429 . S
C1466 N1463 1.350 . S
C1466 C1465 1.434 . S
C1467 C1468 1.369 . S
C1467 C1469 1.419 . S
C1467 H1471 0.930 . S
C1468 C1467 1.369 . S
C1468 C1477 1.429 . S
C1469 C1467 1.419 . S
C1469 C1470 1.363 1_556 S
C1469 H1472 0.929 . S
C1470 C1469 1.363 1_554 S
C1470 C1476 1.428 . S
H1471 C1467 0.930 . S
H1472 C1469 0.929 . S
S1473 N1474 1.603 1_554 S
S1473 N1475 1.610 . S
N1474 S1473 1.603 1_556 S
N1474 C1477 1.352 . S
N1475 S1473 1.610 . S
N1475 C1476 1.351 . S
C1476 C1470 1.428 . S
C1476 N1475 1.351 . S
C1476 C1477 1.434 1_554 S
C1477 C1468 1.429 . S
C1477 N1474 1.352 . S
C1477 C1476 1.434 1_556 S
C1478 C1479 1.369 . S
C1478 C1480 1.419 . S
C1478 H1482 0.930 . S
C1479 C1478 1.369 . S
C1479 C1488 1.429 . S
C1480 C1478 1.419 . S
C1480 C1481 1.363 . S
C1480 H1483 0.929 . S
C1481 C1480 1.363 . S
C1481 C1487 1.428 . S
H1482 C1478 0.930 . S
H1483 C1480 0.929 . S
S1484 N1485 1.613 . S
S1484 N1486 1.610 . S
N1485 S1484 1.613 . S
N1485 C1488 1.350 . S
N1486 S1484 1.610 . S
N1486 C1487 1.351 . S
C1487 C1481 1.428 . S
C1487 N1486 1.351 . S
C1487 C1488 1.434 . S
C1488 C1479 1.429 . S
C1488 N1485 1.350 . S
C1488 C1487 1.434 . S
C1489 C1490 1.369 . S
C1489 C1491 1.419 . S
C1489 H1493 0.930 . S
C1490 C1489 1.369 . S
C1490 C1499 1.429 . S
C1491 C1489 1.419 . S
C1491 C1492 1.363 . S
C1491 H1494 0.929 . S
C1492 C1491 1.363 . S
C1492 C1498 1.428 . S
H1493 C1489 0.930 . S
H1494 C1491 0.929 . S
S1495 N1496 1.613 1_655 S
S1495 N1497 1.610 1_655 S
N1496 S1495 1.613 1_455 S
N1496 C1499 1.350 . S
N1497 S1495 1.610 1_455 S
N1497 C1498 1.351 . S
C1498 C1492 1.428 . S
C1498 N1497 1.351 . S
C1498 C1499 1.434 . S
C1499 C1490 1.429 . S
C1499 N1496 1.350 . S
C1499 C1498 1.434 . S
C1500 C1501 1.369 . S
C1500 C1502 1.419 . S
C1500 H1504 0.930 . S
C1501 C1500 1.369 . S
C1501 C1510 1.429 . S
C1502 C1500 1.419 . S
C1502 C1503 1.363 . S
C1502 H1505 0.929 . S
C1503 C1502 1.363 . S
C1503 C1509 1.428 . S
H1504 C1500 0.930 . S
H1505 C1502 0.929 . S
S1506 N1507 1.613 . S
S1506 N1508 1.610 . S
N1507 S1506 1.613 . S
N1507 C1510 1.350 . S
N1508 S1506 1.610 . S
N1508 C1509 1.351 . S
C1509 C1503 1.428 . S
C1509 N1508 1.351 . S
C1509 C1510 1.434 . S
C1510 C1501 1.429 . S
C1510 N1507 1.350 . S
C1510 C1509 1.434 . S
C1511 C1512 1.369 . S
C1511 C1513 1.419 1_554 S
C1511 H1515 0.930 . S
C1512 C1511 1.369 . S
C1512 C1521 1.429 . S
C1513 C1511 1.419 1_556 S
C1513 C1514 1.363 . S
C1513 H1516 0.929 . S
C1514 C1513 1.363 . S
C1514 C1520 1.428 1_556 S
H1515 C1511 0.930 . S
H1516 C1513 0.929 . S
S1517 N1518 1.613 . S
S1517 N1519 1.610 . S
N1518 S1517 1.613 . S
N1518 C1521 1.350 . S
N1519 S1517 1.610 . S
N1519 C1520 1.351 . S
C1520 C1514 1.428 1_554 S
C1520 N1519 1.351 . S
C1520 C1521 1.434 . S
C1521 C1512 1.429 . S
C1521 N1518 1.350 . S
C1521 C1520 1.434 . S
C1522 C1523 1.369 . S
C1522 C1524 1.419 . S
C1522 H1526 0.930 . S
C1523 C1522 1.369 . S
C1523 C1532 1.429 . S
C1524 C1522 1.419 . S
C1524 C1525 1.363 . S
C1524 H1527 0.929 . S
C1525 C1524 1.363 . S
C1525 C1531 1.428 . S
H1526 C1522 0.930 . S
H1527 C1524 0.929 . S
S1528 N1529 1.613 . S
S1528 N1530 1.610 . S
N1529 S1528 1.613 . S
N1529 C1532 1.350 . S
N1530 S1528 1.610 . S
N1530 C1531 1.351 . S
C1531 C1525 1.428 . S
C1531 N1530 1.351 . S
C1531 C1532 1.434 . S
C1532 C1523 1.429 . S
C1532 N1529 1.350 . S
C1532 C1531 1.434 . S
C1533 C1534 1.369 . S
C1533 C1535 1.419 . S
C1533 H1537 0.930 . S
C1534 C1533 1.369 . S
C1534 C1543 1.429 . S
C1535 C1533 1.419 . S
C1535 C1536 1.363 . S
C1535 H1538 0.929 . S
C1536 C1535 1.363 . S
C1536 C1542 1.428 . S
H1537 C1533 0.930 . S
H1538 C1535 0.929 . S
S1539 N1540 1.613 . S
S1539 N1541 1.610 . S
N1540 S1539 1.613 . S
N1540 C1543 1.350 . S
N1541 S1539 1.610 . S
N1541 C1542 1.351 . S
C1542 C1536 1.428 . S
C1542 N1541 1.351 . S
C1542 C1543 1.434 . S
C1543 C1534 1.429 . S
C1543 N1540 1.350 . S
C1543 C1542 1.434 . S
C1544 C1545 1.369 . S
C1544 C1546 1.419 . S
C1544 H1548 0.930 . S
C1545 C1544 1.369 . S
C1545 C1554 1.429 . S
C1546 C1544 1.419 . S
C1546 C1547 1.363 . S
C1546 H1549 0.929 . S
C1547 C1546 1.363 . S
C1547 C1553 1.428 . S
H1548 C1544 0.930 . S
H1549 C1546 0.929 . S
S1550 N1551 1.613 . S
S1550 N1552 1.610 . S
N1551 S1550 1.613 . S
N1551 C1554 1.350 . S
N1552 S1550 1.610 . S
N1552 C1553 1.351 . S
C1553 C1547 1.428 . S
C1553 N1552 1.351 . S
C1553 C1554 1.434 . S
C1554 C1545 1.429 . S
C1554 N1551 1.350 . S
C1554 C1553 1.434 . S
C1555 C1556 1.369 . S
C1555 C1557 1.419 . S
C1555 H1559 0.930 . S
C1556 C1555 1.369 . S
C1556 C1565 1.429 . S
C1557 C1555 1.419 . S
C1557 C1558 1.363 . S
C1557 H1560 0.929 . S
C1558 C1557 1.363 . S
C1558 C1564 1.428 . S
H1559 C1555 0.930 . S
H1560 C1557 0.929 . S
S1561 N1562 1.613 . S
S1561 N1563 1.610 . S
N1562 S1561 1.613 . S
N1562 C1565 1.350 . S
N1563 S1561 1.610 . S
N1563 C1564 1.351 . S
C1564 C1558 1.428 . S
C1564 N1563 1.351 . S
C1564 C1565 1.434 . S
C1565 C1556 1.429 . S
C1565 N1562 1.350 . S
C1565 C1564 1.434 . S
C1566 C1567 1.369 . S
C1566 C1568 1.419 . S
C1566 H1570 0.930 . S
C1567 C1566 1.369 . S
C1567 C1576 1.429 . S
C1568 C1566 1.419 . S
C1568 C1569 1.363 . S
C1568 H1571 0.929 . S
C1569 C1568 1.363 . S
C1569 C1575 1.428 . S
H1570 C1566 0.930 . S
H1571 C1568 0.929 . S
S1572 N1573 1.613 . S
S1572 N1574 1.610 . S
N1573 S1572 1.613 . S
N1573 C1576 1.350 . S
N1574 S1572 1.610 . S
N1574 C1575 1.351 . S
C1575 C1569 1.428 . S
C1575 N1574 1.351 . S
C1575 C1576 1.434 . S
C1576 C1567 1.429 . S
C1576 N1573 1.350 . S
C1576 C1575 1.434 . S
C1577 C1578 1.369 . S
C1577 C1579 1.419 . S
C1577 H1581 0.930 . S
C1578 C1577 1.369 . S
C1578 C1587 1.429 . S
C1579 C1577 1.419 . S
C1579 C1580 1.363 . S
C1579 H1582 0.929 . S
C1580 C1579 1.363 . S
C1580 C1586 1.428 . S
H1581 C1577 0.930 . S
H1582 C1579 0.929 . S
S1583 N1584 1.613 . S
S1583 N1585 1.610 . S
N1584 S1583 1.613 . S
N1584 C1587 1.350 . S
N1585 S1583 1.610 . S
N1585 C1586 1.351 . S
C1586 C1580 1.428 . S
C1586 N1585 1.351 . S
C1586 C1587 1.434 . S
C1587 C1578 1.429 . S
C1587 N1584 1.350 . S
C1587 C1586 1.434 . S
C1588 C1589 1.369 . S
C1588 C1590 1.419 . S
C1588 H1592 0.930 . S
C1589 C1588 1.369 . S
C1589 C1598 1.429 . S
C1590 C1588 1.419 . S
C1590 C1591 1.363 . S
C1590 H1593 0.929 . S
C1591 C1590 1.363 . S
C1591 C1597 1.428 . S
H1592 C1588 0.930 . S
H1593 C1590 0.929 . S
S1594 N1595 1.613 . S
S1594 N1596 1.610 . S
N1595 S1594 1.613 . S
N1595 C1598 1.350 . S
N1596 S1594 1.610 . S
N1596 C1597 1.351 . S
C1597 C1591 1.428 . S
C1597 N1596 1.351 . S
C1597 C1598 1.434 . S
C1598 C1589 1.429 . S
C1598 N1595 1.350 . S
C1598 C1597 1.434 . S
C1599 C1600 1.369 . S
C1599 C1601 1.419 . S
C1599 H1603 0.930 . S
C1600 C1599 1.369 . S
C1600 C1609 1.429 . S
C1601 C1599 1.419 . S
C1601 C1602 1.363 . S
C1601 H1604 0.929 . S
C1602 C1601 1.363 . S
C1602 C1608 1.428 . S
H1603 C1599 0.930 . S
H1604 C1601 0.929 . S
S1605 N1606 1.613 . S
S1605 N1607 1.610 1_554 S
N1606 S1605 1.613 . S
N1606 C1609 1.350 1_554 S
N1607 S1605 1.610 1_556 S
N1607 C1608 1.351 . S
C1608 C1602 1.428 . S
C1608 N1607 1.351 . S
C1608 C1609 1.434 . S
C1609 C1600 1.429 . S
C1609 N1606 1.350 1_556 S
C1609 C1608 1.434 . S
C1610 C1611 1.369 . S
C1610 C1612 1.419 . S
C1610 H1614 0.930 . S
C1611 C1610 1.369 . S
C1611 C1620 1.429 . S
C1612 C1610 1.419 . S
C1612 C1613 1.363 . S
C1612 H1615 0.929 . S
C1613 C1612 1.363 . S
C1613 C1619 1.428 . S
H1614 C1610 0.930 . S
H1615 C1612 0.929 . S
S1616 N1617 1.613 . S
S1616 N1618 1.610 . S
N1617 S1616 1.613 . S
N1617 C1620 1.350 . S
N1618 S1616 1.610 . S
N1618 C1619 1.351 . S
C1619 C1613 1.428 . S
C1619 N1618 1.351 . S
C1619 C1620 1.434 . S
C1620 C1611 1.429 . S
C1620 N1617 1.350 . S
C1620 C1619 1.434 . S
C1621 C1622 1.369 . S
C1621 C1623 1.419 . S
C1621 H1625 0.930 . S
C1622 C1621 1.369 . S
C1622 C1631 1.429 . S
C1623 C1621 1.419 . S
C1623 C1624 1.363 . S
C1623 H1626 0.929 . S
C1624 C1623 1.363 . S
C1624 C1630 1.428 . S
H1625 C1621 0.930 . S
H1626 C1623 0.929 . S
S1627 N1628 1.613 . S
S1627 N1629 1.610 . S
N1628 S1627 1.613 . S
N1628 C1631 1.350 . S
N1629 S1627 1.610 . S
N1629 C1630 1.351 . S
C1630 C1624 1.428 . S
C1630 N1629 1.351 . S
C1630 C1631 1.434 . S
C1631 C1622 1.429 . S
C1631 N1628 1.350 . S
C1631 C1630 1.434 . S
C1632 C1633 1.369 . S
C1632 C1634 1.419 . S
C1632 H1636 0.930 . S
C1633 C1632 1.369 . S
C1633 C1642 1.429 . S
C1634 C1632 1.419 . S
C1634 C1635 1.363 . S
C1634 H1637 0.929 . S
C1635 C1634 1.363 . S
C1635 C1641 1.428 . S
H1636 C1632 0.930 . S
H1637 C1634 0.929 . S
S1638 N1639 1.613 . S
S1638 N1640 1.610 . S
N1639 S1638 1.613 . S
N1639 C1642 1.350 . S
N1640 S1638 1.610 . S
N1640 C1641 1.351 . S
C1641 C1635 1.428 . S
C1641 N1640 1.351 . S
C1641 C1642 1.434 . S
C1642 C1633 1.429 . S
C1642 N1639 1.350 . S
C1642 C1641 1.434 . S
C1643 C1644 1.369 . S
C1643 C1645 1.419 . S
C1643 H1647 0.930 . S
C1644 C1643 1.369 . S
C1644 C1653 1.429 . S
C1645 C1643 1.419 . S
C1645 C1646 1.363 . S
C1645 H1648 0.929 . S
C1646 C1645 1.363 . S
C1646 C1652 1.428 . S
H1647 C1643 0.930 . S
H1648 C1645 0.929 . S
S1649 N1650 1.613 . S
S1649 N1651 1.610 . S
N1650 S1649 1.613 . S
N1650 C1653 1.350 . S
N1651 S1649 1.610 . S
N1651 C1652 1.351 . S
C1652 C1646 1.428 . S
C1652 N1651 1.351 . S
C1652 C1653 1.434 . S
C1653 C1644 1.429 . S
C1653 N1650 1.350 . S
C1653 C1652 1.434 . S
C1654 C1655 1.369 . S
C1654 C1656 1.419 . S
C1654 H1658 0.930 . S
C1655 C1654 1.369 . S
C1655 C1664 1.429 . S
C1656 C1654 1.419 . S
C1656 C1657 1.363 . S
C1656 H1659 0.929 . S
C1657 C1656 1.363 . S
C1657 C1663 1.428 . S
H1658 C1654 0.930 . S
H1659 C1656 0.929 . S
S1660 N1661 1.613 . S
S1660 N1662 1.610 . S
N1661 S1660 1.613 . S
N1661 C1664 1.350 . S
N1662 S1660 1.610 . S
N1662 C1663 1.351 . S
C1663 C1657 1.428 . S
C1663 N1662 1.351 . S
C1663 C1664 1.434 . S
C1664 C1655 1.429 . S
C1664 N1661 1.350 . S
C1664 C1663 1.434 . S
C1665 C1666 1.369 . S
C1665 C1667 1.419 . S
C1665 H1669 0.930 . S
C1666 C1665 1.369 . S
C1666 C1675 1.429 . S
C1667 C1665 1.419 . S
C1667 C1668 1.363 . S
C1667 H1670 0.929 . S
C1668 C1667 1.363 . S
C1668 C1674 1.428 . S
H1669 C1665 0.930 . S
H1670 C1667 0.929 . S
S1671 N1672 1.613 . S
S1671 N1673 1.610 . S
N1672 S1671 1.613 . S
N1672 C1675 1.350 . S
N1673 S1671 1.610 . S
N1673 C1674 1.351 . S
C1674 C1668 1.428 . S
C1674 N1673 1.351 . S
C1674 C1675 1.434 . S
C1675 C1666 1.429 . S
C1675 N1672 1.350 . S
C1675 C1674 1.434 . S
C1676 C1677 1.369 . S
C1676 C1678 1.419 . S
C1676 H1680 0.930 . S
C1677 C1676 1.369 . S
C1677 C1686 1.429 . S
C1678 C1676 1.419 . S
C1678 C1679 1.363 . S
C1678 H1681 0.929 . S
C1679 C1678 1.363 . S
C1679 C1685 1.428 . S
H1680 C1676 0.930 . S
H1681 C1678 0.929 . S
S1682 N1683 1.613 . S
S1682 N1684 1.610 . S
N1683 S1682 1.613 . S
N1683 C1686 1.350 . S
N1684 S1682 1.610 . S
N1684 C1685 1.351 . S
C1685 C1679 1.428 . S
C1685 N1684 1.351 . S
C1685 C1686 1.434 . S
C1686 C1677 1.429 . S
C1686 N1683 1.350 . S
C1686 C1685 1.434 . S
C1687 C1688 1.369 . S
C1687 C1689 1.419 . S
C1687 H1691 0.930 . S
C1688 C1687 1.369 . S
C1688 C1697 1.429 . S
C1689 C1687 1.419 . S
C1689 C1690 1.363 . S
C1689 H1692 0.929 . S
C1690 C1689 1.363 . S
C1690 C1696 1.428 . S
H1691 C1687 0.930 . S
H1692 C1689 0.929 . S
S1693 N1694 1.613 . S
S1693 N1695 1.610 . S
N1694 S1693 1.613 . S
N1694 C1697 1.350 . S
N1695 S1693 1.610 . S
N1695 C1696 1.351 . S
C1696 C1690 1.428 . S
C1696 N1695 1.351 . S
C1696 C1697 1.434 . S
C1697 C1688 1.429 . S
C1697 N1694 1.350 . S
C1697 C1696 1.434 . S
C1698 C1699 1.369 . S
C1698 C1700 1.419 . S
C1698 H1702 0.930 . S
C1699 C1698 1.369 . S
C1699 C1708 1.429 . S
C1700 C1698 1.419 . S
C1700 C1701 1.363 . S
C1700 H1703 0.929 . S
C1701 C1700 1.363 . S
C1701 C1707 1.428 . S
H1702 C1698 0.930 . S
H1703 C1700 0.929 . S
S1704 N1705 1.613 1_545 S
S1704 N1706 1.610 1_545 S
N1705 S1704 1.613 1_565 S
N1705 C1708 1.350 . S
N1706 S1704 1.610 1_565 S
N1706 C1707 1.351 . S
C1707 C1701 1.428 . S
C1707 N1706 1.351 . S
C1707 C1708 1.434 . S
C1708 C1699 1.429 . S
C1708 N1705 1.350 . S
C1708 C1707 1.434 . S
C1709 C1710 1.369 . S
C1709 C1711 1.419 . S
C1709 H1713 0.930 . S
C1710 C1709 1.369 . S
C1710 C1719 1.429 . S
C1711 C1709 1.419 . S
C1711 C1712 1.363 1_455 S
C1711 H1714 0.929 . S
C1712 C1711 1.363 1_655 S
C1712 C1718 1.428 . S
H1713 C1709 0.930 . S
H1714 C1711 0.929 . S
S1715 N1716 1.613 1_655 S
S1715 N1717 1.610 . S
N1716 S1715 1.613 1_455 S
N1716 C1719 1.350 . S
N1717 S1715 1.610 . S
N1717 C1718 1.351 . S
C1718 C1712 1.428 . S
C1718 N1717 1.351 . S
C1718 C1719 1.434 1_655 S
C1719 C1710 1.429 . S
C1719 N1716 1.350 . S
C1719 C1718 1.434 1_455 S
C667 C319 1.065 . S
C665 C0 1.105 . S
C676 C18 1.214 . S
C678 C339 1.221 . S
C689 C360 1.259 . S
C687 C34 1.313 . S
C700 C387 1.191 . S
C698 C49 1.251 . S
C711 C343 1.183 . S
C709 C62 1.252 . S
C720 C73 1.308 . S
C722 C363 1.269 . S
C733 C383 1.224 . S
C731 C83 1.219 . S
C742 C91 1.102 . S
C744 C316 1.067 . S
C753 C109 1.098 . S
C755 C321 1.101 . S
C766 C338 1.172 1_545 S
C764 C125 1.234 . S
C777 C362 1.231 . S
C775 C130 1.277 . S
C788 C386 1.214 . S
C786 C153 1.270 . S
C799 C342 1.216 . S
C797 C114 1.270 . S
C810 C365 1.234 . S
C808 C117 1.269 . S
C819 C138 1.229 . S
C821 C382 1.180 . S
C832 C318 1.094 . S
C830 C148 1.106 . S
C841 C161 1.103 . S
C843 C320 1.112 . S
C852 C169 1.267 . S
C854 C407 1.240 . S
C865 C427 1.180 1_455 S
C863 C190 1.237 . S
C876 C450 1.194 . S
C874 C205 1.269 . S
C885 C213 1.107 . S
C887 C317 1.107 . S
C896 C229 1.229 . S
C898 C361 1.189 . S
C909 C451 1.239 . S
C907 C182 1.270 . S
C920 C406 1.197 . S
C918 C244 1.270 . S
C931 C474 1.279 . S
C929 C21 1.372 . S
C942 C495 1.187 . S
C940 C5 1.216 . S
C951 C39 1.159 . S
C953 C514 1.086 . S
C962 C36 1.238 . S
C964 C539 1.185 . S
C973 C101 1.240 . S
C975 C494 1.188 . S
C984 C78 1.159 . S
C986 C519 1.088 . S
C997 C538 1.198 . S
C995 C70 1.225 . S
C1006 C60 1.372 . S
C1008 C471 1.306 . S
C1017 C257 1.275 . S
C1019 C475 1.232 . S
C1030 C496 1.181 . S
C1028 C203 1.260 . S
C1041 C515 1.181 . S
C1039 C208 1.259 . S
C1052 C540 1.148 . S
C1050 C174 1.173 . S
C1063 C492 1.141 . S
C1061 C252 1.163 . S
C1074 C517 1.188 . S
C1072 C195 1.261 . S
C1085 C536 1.191 . S
C1083 C216 1.261 . S
C1094 C179 1.282 . S
C1096 C472 1.224 . S
C1107 C473 1.217 . S
C1105 C270 1.274 . S
C1116 C143 1.267 . S
C1118 C559 1.186 . S
C1129 C584 1.182 . S
C1127 C281 1.260 . S
C1138 C122 1.178 . S
C1140 C603 1.154 . S
C1151 C470 1.222 . S
C1149 C140 1.272 . S
C1162 C516 1.182 . S
C1160 C294 1.260 . S
C1173 C607 1.192 . S
C1171 C273 1.270 . S
C1182 C304 1.175 . S
C1184 C563 1.143 . S
C1193 C26 1.107 . S
C1195 C627 1.059 . S
C1204 C44 1.213 . S
C1206 C405 1.218 . S
C1217 C429 1.259 . S
C1215 C8 1.315 . S
C1226 C23 1.251 . S
C1228 C453 1.180 . S
C1237 C88 1.254 . S
C1239 C409 1.184 . S
C1248 C99 1.312 . S
C1250 C426 1.266 . S
C1261 C449 1.214 . S
C1259 C57 1.218 . S
C1272 C624 1.069 . S
C1270 C65 1.101 . S
C1283 C629 1.098 . S
C1281 C278 1.105 . S
C1294 C404 1.177 . S
C1292 C268 1.232 . S
C1305 C431 1.227 . S
C1303 C299 1.277 . S
C1314 C296 1.273 . S
C1316 C452 1.215 . S
C1327 C408 1.223 . S
C1325 C283 1.273 . S
C1336 C260 1.277 . S
C1338 C428 1.226 . S
C1349 C448 1.173 . S
C1347 C307 1.234 . S
C1358 C291 1.092 . S
C1360 C626 1.099 . S
C1371 C628 1.118 . S
C1369 C200 1.109 . S
C1380 C221 1.268 . S
C1382 C341 1.240 . S
C1393 C364 1.190 . S
C1391 C255 1.229 . S
C1402 C166 1.269 . S
C1404 C384 1.193 . S
C1415 C625 1.112 . S
C1413 C239 1.103 . S
C1426 C430 1.181 . S
C1424 C177 1.233 . S
C1437 C385 1.231 . S
C1435 C247 1.273 . S
C1448 C340 1.202 . S
C1446 C218 1.269 . S
C1457 C47 1.372 . S
C1459 C651 1.276 . S
C1468 C31 1.215 . S
C1470 C561 1.191 . S
C1479 C13 1.159 . S
C1481 C580 1.089 . S
C1492 C605 1.194 . S
C1490 C10 1.231 . S
C1503 C560 1.192 . S
C1501 C75 1.238 . S
C1512 C52 1.160 . S
C1514 C585 1.087 . S
C1525 C604 1.198 . S
C1523 C96 1.224 . S
C1534 C86 1.371 . S
C1536 C646 1.271 . S
C1547 C649 1.232 . S
C1545 C192 1.274 . S
C1556 C164 1.260 . S
C1558 C562 1.185 . S
C1567 C234 1.262 . S
C1569 C581 1.187 . S
C1580 C606 1.150 . S
C1578 C226 1.175 . S
C1591 C558 1.141 . S
C1589 C187 1.168 . S
C1600 C156 1.260 . S
C1602 C583 1.186 . S
C1613 C602 1.183 . S
C1611 C242 1.260 . S
C1624 C647 1.229 . S
C1622 C231 1.273 . S
C1635 C650 1.224 . S
C1633 C127 1.268 . S
C1646 C493 1.191 . S
C1644 C286 1.268 . S
C1655 C112 1.260 . S
C1657 C518 1.186 . S
C1666 C265 1.168 . S
C1668 C537 1.144 . S
C1679 C648 1.222 . S
C1677 C309 1.270 . S
C1690 C582 1.187 . S
C1688 C151 1.261 . S
C1701 C541 1.192 . S
C1699 C104 1.268 . S
C1712 C497 1.144 . S
C1710 C135 1.166 . S
