# Generated by pormake.
# Topology pyr, (3,6)-cn, num edge types: 1
# Building blocks:
#     Node 0, Type 0, BuildingBlock: WUSLED_clean_sbu_0, # of connection points: 3
#     Node 1, Type 0, BuildingBlock: WUSLED_clean_sbu_0, # of connection points: 3
#     Node 2, Type 0, BuildingBlock: WUSLED_clean_sbu_0, # of connection points: 3
#     Node 3, Type 0, BuildingBlock: WUSLED_clean_sbu_0, # of connection points: 3
#     Node 4, Type 0, BuildingBlock: WUSLED_clean_sbu_0, # of connection points: 3
#     Node 5, Type 0, BuildingBlock: WUSLED_clean_sbu_0, # of connection points: 3
#     Node 6, Type 0, BuildingBlock: WUSLED_clean_sbu_0, # of connection points: 3
#     Node 7, Type 0, BuildingBlock: WUSLED_clean_sbu_0, # of connection points: 3
#     Node 8, Type 1, BuildingBlock: MIDCAF_clean_sbu_0, # of connection points: 6
#     Node 9, Type 1, BuildingBlock: MIDCAF_clean_sbu_0, # of connection points: 6
#     Node 10, Type 1, BuildingBlock: MIDCAF_clean_sbu_0, # of connection points: 6
#     Node 11, Type 1, BuildingBlock: MIDCAF_clean_sbu_0, # of connection points: 6
#     Edge 12, Type (0, 1), BuildingBlock: XUDNAN_clean_linker_2, # of connection points: 2
#     Edge 13, Type (0, 1), BuildingBlock: XUDNAN_clean_linker_2, # of connection points: 2
#     Edge 14, Type (0, 1), BuildingBlock: XUDNAN_clean_linker_2, # of connection points: 2
#     Edge 15, Type (0, 1), BuildingBlock: XUDNAN_clean_linker_2, # of connection points: 2
#     Edge 16, Type (0, 1), BuildingBlock: XUDNAN_clean_linker_2, # of connection points: 2
#     Edge 17, Type (0, 1), BuildingBlock: XUDNAN_clean_linker_2, # of connection points: 2
#     Edge 18, Type (0, 1), BuildingBlock: XUDNAN_clean_linker_2, # of connection points: 2
#     Edge 19, Type (0, 1), BuildingBlock: XUDNAN_clean_linker_2, # of connection points: 2
#     Edge 20, Type (0, 1), BuildingBlock: XUDNAN_clean_linker_2, # of connection points: 2
#     Edge 21, Type (0, 1), BuildingBlock: XUDNAN_clean_linker_2, # of connection points: 2
#     Edge 22, Type (0, 1), BuildingBlock: XUDNAN_clean_linker_2, # of connection points: 2
#     Edge 23, Type (0, 1), BuildingBlock: XUDNAN_clean_linker_2, # of connection points: 2
#     Edge 24, Type (0, 1), BuildingBlock: XUDNAN_clean_linker_2, # of connection points: 2
#     Edge 25, Type (0, 1), BuildingBlock: XUDNAN_clean_linker_2, # of connection points: 2
#     Edge 26, Type (0, 1), BuildingBlock: XUDNAN_clean_linker_2, # of connection points: 2
#     Edge 27, Type (0, 1), BuildingBlock: XUDNAN_clean_linker_2, # of connection points: 2
#     Edge 28, Type (0, 1), BuildingBlock: XUDNAN_clean_linker_2, # of connection points: 2
#     Edge 29, Type (0, 1), BuildingBlock: XUDNAN_clean_linker_2, # of connection points: 2
#     Edge 30, Type (0, 1), BuildingBlock: XUDNAN_clean_linker_2, # of connection points: 2
#     Edge 31, Type (0, 1), BuildingBlock: XUDNAN_clean_linker_2, # of connection points: 2
#     Edge 32, Type (0, 1), BuildingBlock: XUDNAN_clean_linker_2, # of connection points: 2
#     Edge 33, Type (0, 1), BuildingBlock: XUDNAN_clean_linker_2, # of connection points: 2
#     Edge 34, Type (0, 1), BuildingBlock: XUDNAN_clean_linker_2, # of connection points: 2
#     Edge 35, Type (0, 1), BuildingBlock: XUDNAN_clean_linker_2, # of connection points: 2
# Relax obj value: 0.020
# Max RMSD: 0.063
# Mean RMSD: 0.028
data_MOF--net-pry--node1-WUSLED_clean_sbu_0--node2-MIDCAF_clean_sbu_0--edge1-XUDNAN_clean_linker_2
_symmetry_space_group_name_H-M    P1
_symmetry_Int_Tables_number       1
_symmetry_cell_setting            triclinic
loop_
_symmetry_equiv_pos_as_xyz
'x, y, z'
_cell_length_a     46.37789
_cell_length_b     46.595929
_cell_length_c     46.572305
_cell_angle_alpha  89.504581
_cell_angle_beta   90.310083
_cell_angle_gamma 90.535051
loop_
_atom_site_label
_atom_site_type_symbol
_atom_site_fract_x
_atom_site_fract_y
_atom_site_fract_z
_atom_type_partial_charge
C0 C 0.2132 0.29035 0.17556 0.0
C1 C 0.20419 0.31098 0.19538 0.0
C2 C 0.18373 0.34007 0.15659 0.0
C3 C 0.18971 0.33565 0.18596 0.0
C4 C 0.1926 0.31923 0.1369 0.0
C5 C 0.20722 0.29472 0.1463 0.0
U6 U 0.22695 0.22543 0.22563 0.0
O7 O 0.23888 0.18121 0.21459 0.0
O8 O 0.26791 0.20741 0.24121 0.0
C9 C 0.26397 0.183 0.22771 0.0
C10 C 0.22932 0.26448 0.18459 0.0
C11 C 0.28891 0.17173 0.21201 0.0
C12 C 0.32061 0.13163 0.20281 0.0
C13 C 0.29658 0.14302 0.21646 0.0
C14 C 0.32961 0.1775 0.17956 0.0
C15 C 0.33766 0.14874 0.18438 0.0
C16 C 0.30544 0.18892 0.1933 0.0
C17 C 0.17721 0.21078 0.29037 0.0
C18 C 0.18637 0.18885 0.33723 0.0
C19 C 0.13851 0.18648 0.31638 0.0
C20 C 0.1483 0.20183 0.29233 0.0
C21 C 0.15738 0.17989 0.33921 0.0
C22 C 0.19623 0.20404 0.31304 0.0
C23 C 0.18659 0.22774 0.26495 0.0
O24 O 0.24427 0.26624 0.20861 0.0
O25 O 0.21557 0.23986 0.18182 0.0
O26 O 0.18271 0.21545 0.23991 0.0
O27 O 0.21137 0.24158 0.26695 0.0
H28 H 0.20837 0.30809 0.21812 0.0
H29 H 0.18287 0.35109 0.20172 0.0
H30 H 0.18864 0.32207 0.11412 0.0
H31 H 0.21405 0.27918 0.13061 0.0
H32 H 0.3257 0.10928 0.20658 0.0
H33 H 0.28401 0.12936 0.23069 0.0
H34 H 0.3423 0.19134 0.16563 0.0
H35 H 0.29983 0.21116 0.18954 0.0
H36 H 0.20154 0.18384 0.35428 0.0
H37 H 0.11598 0.1802 0.31733 0.0
H38 H 0.13317 0.2069 0.27527 0.0
H39 H 0.21869 0.21055 0.31216 0.0
C40 C 0.26634 0.8435 0.67553 0.0
C41 C 0.24599 0.85184 0.69605 0.0
C42 C 0.21785 0.87632 0.65892 0.0
C43 C 0.22195 0.86805 0.6878 0.0
C44 C 0.23868 0.86839 0.63866 0.0
C45 C 0.26253 0.8521 0.64687 0.0
U46 U 0.33207 0.82426 0.72253 0.0
O47 O 0.34856 0.78205 0.73593 0.0
O48 O 0.37529 0.8106 0.70915 0.0
C49 C 0.37223 0.78492 0.72068 0.0
C50 C 0.29139 0.82549 0.6831 0.0
C51 C 0.38024 0.76054 0.70223 0.0
C52 C 0.41741 0.73549 0.67591 0.0
C53 C 0.4087 0.75872 0.69246 0.0
C54 C 0.3692 0.71534 0.67836 0.0
C55 C 0.39789 0.71329 0.66887 0.0
C56 C 0.36044 0.73873 0.69484 0.0
C57 C 0.35062 0.8725 0.78755 0.0
C58 C 0.37683 0.86216 0.83187 0.0
C59 C 0.37134 0.91134 0.8157 0.0
C60 C 0.35586 0.90185 0.79173 0.0
C61 C 0.38189 0.89166 0.83619 0.0
C62 C 0.36142 0.85264 0.80771 0.0
C63 C 0.33295 0.86362 0.76261 0.0
O64 O 0.31683 0.83764 0.67963 0.0
O65 O 0.28953 0.80999 0.70678 0.0
O66 O 0.31849 0.8393 0.76497 0.0
O67 O 0.34482 0.86737 0.73728 0.0
H68 H 0.24846 0.84561 0.71838 0.0
H69 H 0.2063 0.87359 0.70396 0.0
H70 H 0.23669 0.87489 0.61636 0.0
H71 H 0.27802 0.84608 0.6307 0.0
H72 H 0.4395 0.73505 0.66852 0.0
H73 H 0.42435 0.77529 0.69778 0.0
H74 H 0.35361 0.69858 0.67359 0.0
H75 H 0.3383 0.73955 0.70202 0.0
H76 H 0.3849 0.84644 0.84709 0.0
H77 H 0.37444 0.93421 0.81853 0.0
H78 H 0.3476 0.91755 0.77655 0.0
H79 H 0.35777 0.82984 0.80493 0.0
C80 C 0.6765 0.33739 0.76129 0.0
C81 C 0.69402 0.355 0.74391 0.0
C82 C 0.65307 0.36506 0.71227 0.0
C83 C 0.6824 0.36872 0.71959 0.0
C84 C 0.63565 0.34771 0.73013 0.0
C85 C 0.64727 0.33402 0.7543 0.0
U86 U 0.73085 0.3261 0.82356 0.0
O87 O 0.72179 0.31263 0.86814 0.0
O88 O 0.74856 0.28578 0.84069 0.0
C89 C 0.73488 0.28794 0.86523 0.0
C90 C 0.68796 0.32201 0.78662 0.0
C91 C 0.71858 0.26228 0.87507 0.0
C92 C 0.6931 0.21733 0.86574 0.0
C93 C 0.70797 0.2417 0.8557 0.0
C94 C 0.69876 0.23397 0.91457 0.0
C95 C 0.68829 0.21319 0.89531 0.0
C96 C 0.71381 0.25819 0.90454 0.0
C97 C 0.79491 0.37844 0.83486 0.0
C98 C 0.81917 0.39496 0.8783 0.0
C99 C 0.84422 0.39673 0.83286 0.0
C100 C 0.81989 0.38509 0.81921 0.0
C101 C 0.84409 0.4022 0.86255 0.0
C102 C 0.79488 0.38315 0.86464 0.0
C103 C 0.76889 0.36807 0.81939 0.0
O104 O 0.71274 0.30895 0.78339 0.0
O105 O 0.68596 0.33542 0.81122 0.0
O106 O 0.74409 0.37051 0.83269 0.0
O107 O 0.77137 0.34366 0.80571 0.0
H108 H 0.71667 0.35795 0.74901 0.0
H109 H 0.69649 0.38178 0.70627 0.0
H110 H 0.61288 0.34487 0.72561 0.0
H111 H 0.63335 0.32068 0.76756 0.0
H112 H 0.685 0.20192 0.85033 0.0
H113 H 0.71115 0.24442 0.83281 0.0
H114 H 0.69567 0.23132 0.93748 0.0
H115 H 0.72184 0.27373 0.91988 0.0
H116 H 0.81807 0.39915 0.9011 0.0
H117 H 0.86313 0.40152 0.82008 0.0
H118 H 0.82047 0.38162 0.79624 0.0
H119 H 0.77594 0.37824 0.87732 0.0
C120 C 0.7623 0.67636 0.32681 0.0
C121 C 0.7637 0.67172 0.35665 0.0
C122 C 0.71464 0.65234 0.35647 0.0
C123 C 0.74014 0.65977 0.3713 0.0
C124 C 0.71312 0.65779 0.32673 0.0
C125 C 0.73672 0.66955 0.31209 0.0
U126 U 0.82479 0.72964 0.31321 0.0
O127 O 0.86926 0.72157 0.2997 0.0
O128 O 0.84077 0.74727 0.2721 0.0
C129 C 0.8656 0.73407 0.27453 0.0
C130 C 0.78743 0.68708 0.31037 0.0
C131 C 0.87443 0.71724 0.24942 0.0
C132 C 0.88013 0.67158 0.22525 0.0
C133 C 0.87073 0.68729 0.24884 0.0
C134 C 0.89625 0.71559 0.20211 0.0
C135 C 0.89312 0.68554 0.20166 0.0
C136 C 0.88707 0.73126 0.22583 0.0
C137 C 0.83703 0.79266 0.36505 0.0
C138 C 0.86225 0.83793 0.35631 0.0
C139 C 0.85564 0.82058 0.40503 0.0
C140 C 0.84106 0.7964 0.39464 0.0
C141 C 0.86639 0.84165 0.38601 0.0
C142 C 0.84781 0.81357 0.34589 0.0
C143 C 0.82127 0.76696 0.35496 0.0
O144 O 0.78394 0.71157 0.29662 0.0
O145 O 0.81281 0.68487 0.32288 0.0
O146 O 0.83507 0.74256 0.35752 0.0
O147 O 0.80706 0.76948 0.33055 0.0
H148 H 0.78314 0.67682 0.36861 0.0
H149 H 0.74227 0.65559 0.39412 0.0
H150 H 0.69369 0.65286 0.31468 0.0
H151 H 0.73511 0.67303 0.2891 0.0
H152 H 0.87708 0.64851 0.22538 0.0
H153 H 0.86075 0.67602 0.2667 0.0
H154 H 0.90639 0.72694 0.18439 0.0
H155 H 0.89009 0.75435 0.22586 0.0
H156 H 0.87058 0.85361 0.34111 0.0
H157 H 0.85823 0.82294 0.42802 0.0
H158 H 0.83284 0.78058 0.40978 0.0
H159 H 0.84512 0.81108 0.32293 0.0
C160 C 0.89184 0.82779 0.94695 0.0
C161 C 0.91408 0.81373 0.93263 0.0
C162 C 0.91754 0.77865 0.97171 0.0
C163 C 0.92681 0.78937 0.94489 0.0
C164 C 0.89541 0.79308 0.98606 0.0
C165 C 0.88267 0.8174 0.97375 0.0
U166 U 0.88483 0.88466 0.88755 0.0
O167 O 0.84592 0.90206 0.86683 0.0
O168 O 0.87498 0.93067 0.89071 0.0
C169 C 0.8502 0.92793 0.87715 0.0
C170 C 0.87778 0.85305 0.93408 0.0
C171 C 0.82521 0.94082 0.89133 0.0
C172 C 0.78896 0.94049 0.92886 0.0
C173 C 0.81303 0.92818 0.91594 0.0
C174 C 0.78918 0.97834 0.89287 0.0
C175 C 0.77667 0.9657 0.91743 0.0
C176 C 0.8132 0.96598 0.87996 0.0
C177 C 0.93748 0.88407 0.82402 0.0
C178 C 0.97644 0.8874 0.78937 0.0
C179 C 0.93117 0.91114 0.77959 0.0
C180 C 0.92036 0.90114 0.80591 0.0
C181 C 0.95936 0.90435 0.77094 0.0
C182 C 0.96559 0.87737 0.81562 0.0
C183 C 0.92642 0.87273 0.85153 0.0
O184 O 0.89339 0.87673 0.93349 0.0
O185 O 0.86379 0.84841 0.90992 0.0
O186 O 0.90075 0.86054 0.85059 0.0
O187 O 0.93006 0.88944 0.87388 0.0
H188 H 0.92152 0.82154 0.91195 0.0
H189 H 0.94408 0.77906 0.93343 0.0
H190 H 0.88753 0.78526 1.00656 0.0
H191 H 0.86547 0.82799 0.98508 0.0
H192 H 0.78013 0.93039 0.94795 0.0
H193 H 0.82211 0.90878 0.92509 0.0
H194 H 0.7801 0.99751 0.88329 0.0
H195 H 0.8223 0.97599 0.86093 0.0
H196 H 0.99836 0.88212 0.78368 0.0
H197 H 0.91726 0.92384 0.76584 0.0
H198 H 0.89858 0.90656 0.81202 0.0
H199 H 0.97917 0.86431 0.82938 0.0
C200 C 0.61456 0.16897 0.32184 0.0
C201 C 0.62918 0.14777 0.30665 0.0
C202 C 0.59085 0.14675 0.27056 0.0
C203 C 0.61747 0.13679 0.28122 0.0
C204 C 0.57618 0.16782 0.28613 0.0
C205 C 0.58796 0.17882 0.31152 0.0
U206 U 0.67038 0.16904 0.38245 0.0
O207 O 0.69449 0.20521 0.40139 0.0
O208 O 0.66573 0.17888 0.4283 0.0
C209 C 0.68179 0.20225 0.42643 0.0
C210 C 0.62702 0.18136 0.34811 0.0
C211 C 0.66992 0.22882 0.43883 0.0
C212 C 0.67631 0.27927 0.45078 0.0
C213 C 0.68687 0.25395 0.43905 0.0
C214 C 0.63174 0.25475 0.46291 0.0
C215 C 0.64859 0.28004 0.46287 0.0
C216 C 0.64224 0.22945 0.451 0.0
C217 C 0.72781 0.11091 0.38594 0.0
C218 C 0.76525 0.11078 0.42261 0.0
C219 C 0.76361 0.07316 0.38702 0.0
C220 C 0.73925 0.08575 0.37453 0.0
C221 C 0.77699 0.08558 0.41115 0.0
C222 C 0.74087 0.12332 0.41011 0.0
C223 C 0.70243 0.12408 0.37233 0.0
O224 O 0.62419 0.16567 0.37154 0.0
O225 O 0.65293 0.19267 0.3453 0.0
O226 O 0.70696 0.14937 0.36039 0.0
O227 O 0.67856 0.12281 0.3874 0.0
H228 H 0.64979 0.13994 0.31431 0.0
H229 H 0.62957 0.1209 0.26963 0.0
H230 H 0.55549 0.17569 0.2788 0.0
H231 H 0.57635 0.19513 0.32305 0.0
H232 H 0.68976 0.29838 0.44993 0.0
H233 H 0.70834 0.25405 0.42997 0.0
H234 H 0.61047 0.25437 0.47239 0.0
H235 H 0.62866 0.21043 0.45143 0.0
H236 H 0.77475 0.12069 0.44141 0.0
H237 H 0.77225 0.05399 0.37746 0.0
H238 H 0.72943 0.07593 0.35582 0.0
H239 H 0.73223 0.14271 0.41926 0.0
C240 C 0.33331 0.6079 0.15905 0.0
C241 C 0.32005 0.62119 0.13537 0.0
C242 C 0.28281 0.58385 0.13464 0.0
C243 C 0.29502 0.60929 0.12328 0.0
C244 C 0.29647 0.57046 0.15818 0.0
C245 C 0.32148 0.58242 0.17028 0.0
U246 U 0.39289 0.66498 0.16159 0.0
O247 O 0.41084 0.68859 0.19836 0.0
O248 O 0.43885 0.66102 0.17298 0.0
C249 C 0.43643 0.67699 0.19595 0.0
C250 C 0.35915 0.62062 0.17249 0.0
C251 C 0.4486 0.66487 0.2226 0.0
C252 C 0.4458 0.63208 0.26338 0.0
C253 C 0.43421 0.6429 0.2377 0.0
C254 C 0.48641 0.66487 0.25894 0.0
C255 C 0.47202 0.643 0.27439 0.0
C256 C 0.47478 0.67568 0.2333 0.0
C257 C 0.39597 0.72379 0.10394 0.0
C258 C 0.43013 0.76355 0.10639 0.0
C259 C 0.39765 0.75957 0.06567 0.0
C260 C 0.38581 0.73444 0.07757 0.0
C261 C 0.41983 0.77455 0.08003 0.0
C262 C 0.41831 0.73839 0.11822 0.0
C263 C 0.38281 0.69774 0.11648 0.0
O264 O 0.38305 0.61885 0.15759 0.0
O265 O 0.35552 0.64604 0.18389 0.0
O266 O 0.37019 0.7012 0.1414 0.0
O267 O 0.39861 0.6745 0.11556 0.0
H268 H 0.32898 0.64083 0.12635 0.0
H269 H 0.28531 0.61993 0.10492 0.0
H270 H 0.28751 0.55105 0.16765 0.0
H271 H 0.33143 0.57191 0.18861 0.0
H272 H 0.43392 0.61553 0.27486 0.0
H273 H 0.41392 0.63433 0.22976 0.0
H274 H 0.50679 0.6735 0.26654 0.0
H275 H 0.48622 0.69258 0.22185 0.0
H276 H 0.44747 0.77429 0.11782 0.0
H277 H 0.38902 0.76758 0.04552 0.0
H278 H 0.36852 0.72344 0.06628 0.0
H279 H 0.42651 0.73038 0.13857 0.0
C280 C 0.12488 0.31855 0.64341 0.0
C281 C 0.13933 0.31559 0.6172 0.0
C282 C 0.11501 0.26974 0.60923 0.0
C283 C 0.13432 0.2914 0.60014 0.0
C284 C 0.10046 0.27308 0.63542 0.0
C285 C 0.10537 0.29724 0.65232 0.0
U286 U 0.16888 0.38467 0.66508 0.0
O287 O 0.15457 0.42653 0.68082 0.0
O288 O 0.18197 0.39926 0.70802 0.0
C289 C 0.16646 0.42266 0.70623 0.0
C290 C 0.13025 0.3433 0.6621 0.0
C291 C 0.14782 0.42812 0.73093 0.0
C292 C 0.10575 0.41698 0.76007 0.0
C293 C 0.12304 0.4114 0.7362 0.0
C294 C 0.13803 0.45587 0.77349 0.0
C295 C 0.11301 0.4394 0.77892 0.0
C296 C 0.1552 0.45029 0.74971 0.0
C297 C 0.23542 0.40684 0.62217 0.0
C298 C 0.26494 0.4484 0.63453 0.0
C299 C 0.27783 0.41875 0.59416 0.0
C300 C 0.25397 0.40103 0.59942 0.0
C301 C 0.28356 0.44274 0.61154 0.0
C302 C 0.24099 0.43059 0.63978 0.0
C303 C 0.21052 0.38781 0.62725 0.0
O304 O 0.1536 0.34171 0.67812 0.0
O305 O 0.12667 0.3687 0.65017 0.0
O306 O 0.18511 0.39946 0.62316 0.0
O307 O 0.21194 0.37193 0.65067 0.0
H308 H 0.1546 0.33185 0.61008 0.0
H309 H 0.14595 0.28935 0.58017 0.0
H310 H 0.08508 0.25704 0.6428 0.0
H311 H 0.09399 0.29923 0.67246 0.0
H312 H 0.08658 0.404 0.76359 0.0
H313 H 0.1171 0.3941 0.72187 0.0
H314 H 0.14463 0.47289 0.78786 0.0
H315 H 0.17438 0.46325 0.74605 0.0
H316 H 0.26868 0.46675 0.64821 0.0
H317 H 0.29203 0.41339 0.57665 0.0
H318 H 0.25007 0.38268 0.58575 0.0
H319 H 0.22681 0.43533 0.6575 0.0
Zn320 Zn 0.9928 0.05383 0.5576 0.0
Zn321 Zn 0.0533 0.99151 0.49365 0.0
Zn322 Zn 0.02294 0.02352 0.52595 0.0
C323 C 0.06845 0.04805 0.47996 0.0
C324 C 0.99722 0.97886 0.47938 0.0
O325 O 0.02287 1.00304 0.56975 0.0
O326 O 0.98703 0.02636 0.58961 0.0
C327 C 0.03921 0.08778 0.54436 0.0
O328 O 0.0542 0.05229 0.50325 0.0
O329 O 0.06927 0.02326 0.46925 0.0
O330 O 0.02173 0.96751 0.47781 0.0
O331 O 0.9937 1.00167 0.49446 0.0
O332 O 0.02061 0.08532 0.56389 0.0
O333 O 0.04179 0.06788 0.52549 0.0
O334 O 0.97807 0.023 0.50847 0.0
O335 O 0.96021 0.06053 0.5307 0.0
C336 C 0.95768 0.0413 0.51193 0.0
O337 O 0.04679 0.99348 0.55475 0.0
O338 O 0.07766 0.97456 0.52442 0.0
C339 C 1.00507 1.00627 0.59071 0.0
C340 C 0.06891 0.97767 0.54983 0.0
Zn341 Zn 0.49942 0.06067 0.99839 0.0
Zn342 Zn 0.55991 0.99394 0.06201 0.0
Zn343 Zn 0.5304 0.02576 0.02857 0.0
C344 C 0.59595 0.00921 0.01667 0.0
C345 C 0.51479 0.95992 0.04406 0.0
O346 O 0.50541 0.05373 0.05817 0.0
O347 O 0.47417 0.07524 0.02942 0.0
C348 C 0.5562 0.07332 0.98489 0.0
O349 O 0.5754 0.0272 0.01219 0.0
O350 O 0.59331 0.98995 0.03573 0.0
O351 O 0.53221 0.9616 0.06488 0.0
O352 O 0.5126 0.98099 0.026 0.0
O353 O 0.53185 0.0852 0.98451 0.0
O354 O 0.55963 0.04919 0.99825 0.0
O355 O 0.49922 0.99845 1.00479 0.0
O356 O 0.48386 0.03003 0.97257 0.0
C357 C 0.48474 1.00448 0.98185 0.0
O358 O 0.53026 0.04476 0.07233 0.0
O359 O 0.56387 0.02005 0.09515 0.0
C360 C 0.48296 0.06965 0.05454 0.0
C361 C 0.54661 0.04083 0.09453 0.0
Zn362 Zn 0.56569 0.55466 0.55136 0.0
Zn363 Zn 0.49749 0.49049 0.48506 0.0
Zn364 Zn 0.52951 0.52263 0.51907 0.0
C365 C 0.54289 0.45621 0.50389 0.0
C366 C 0.51525 0.53696 0.4518 0.0
O367 O 0.50189 0.54683 0.5489 0.0
O368 O 0.53342 0.57675 0.56868 0.0
C369 C 0.5747 0.49646 0.56575 0.0
O370 O 0.54735 0.47848 0.51968 0.0
O371 O 0.52236 0.45602 0.48597 0.0
O372 O 0.49828 0.51566 0.45062 0.0
O373 O 0.53007 0.54162 0.47489 0.0
O374 O 0.58151 0.52145 0.57386 0.0
O375 O 0.55749 0.49307 0.54412 0.0
O376 O 0.55458 0.55095 0.49017 0.0
O377 O 0.58777 0.5711 0.51798 0.0
C378 C 0.57745 0.56662 0.49322 0.0
O379 O 0.48531 0.52463 0.53643 0.0
O380 O 0.46293 0.49214 0.50981 0.0
C381 C 0.50762 0.5683 0.56534 0.0
C382 C 0.46263 0.50964 0.53038 0.0
Zn383 Zn 0.06272 0.56544 0.99344 0.0
Zn384 Zn 0.99886 0.49564 0.0533 0.0
Zn385 Zn 0.03184 0.53127 0.02378 0.0
C386 C 0.05559 0.48347 0.06879 0.0
C387 C 0.98613 0.48625 0.99543 0.0
O388 O 0.01421 0.576 0.02699 0.0
O389 O 0.03701 0.59867 0.99176 0.0
C390 C 0.09781 0.54688 0.03831 0.0
O391 O 0.05998 0.50709 0.05468 0.0
O392 O 0.03073 0.47222 0.06946 0.0
O393 O 0.97649 0.48016 0.02008 0.0
O394 O 0.00816 0.50323 0.99285 0.0
O395 O 0.09623 0.56694 0.01999 0.0
O396 O 0.07645 0.52924 0.04167 0.0
O397 O 0.03228 0.51473 0.97907 0.0
O398 O 0.06551 0.54212 0.95847 0.0
C399 C 0.04831 0.52102 0.9573 0.0
O400 O 0.99978 0.55752 0.04648 0.0
O401 O 0.98116 0.52618 0.0774 0.0
C402 C 0.01804 0.59852 0.01102 0.0
C403 C 0.98329 0.55162 0.06799 0.0
H404 H 0.12141 0.13276 0.34048 0.0
H405 H 0.1693 0.19047 0.39608 0.0
H406 H 0.15109 0.16391 0.43864 0.0
H407 H 0.0587 0.12482 0.38538 0.0
H408 H 0.05354 0.08743 0.377 0.0
H409 H 0.07015 0.11127 0.35118 0.0
H410 H 0.11461 0.07806 0.34896 0.0
H411 H 0.09812 0.05411 0.37472 0.0
H412 H 0.1335 0.06889 0.38166 0.0
H413 H 0.12715 0.13037 0.47548 0.0
H414 H 0.10143 0.09178 0.50247 0.0
H415 H 0.06945 0.05695 0.42236 0.0
C416 C 0.1279 0.14 0.3616 0.0
C417 C 0.14674 0.16378 0.36491 0.0
C418 C 0.15509 0.17217 0.39297 0.0
C419 C 0.14471 0.15733 0.41729 0.0
C420 C 0.12607 0.13403 0.41322 0.0
C421 C 0.11789 0.12537 0.38602 0.0
C422 C 0.0982 0.09931 0.38729 0.0
C423 C 0.06838 0.10613 0.37446 0.0
C424 C 0.11194 0.07357 0.37227 0.0
C425 C 0.09657 0.09458 0.41943 0.0
C426 C 0.1126 0.11488 0.43415 0.0
C427 C 0.11439 0.11452 0.46412 0.0
C428 C 0.09951 0.09277 0.47931 0.0
C429 C 0.08305 0.07187 0.46451 0.0
C430 C 0.08175 0.07283 0.43422 0.0
H431 H 0.42277 0.93449 0.83909 0.0
H432 H 0.376 0.87303 0.89208 0.0
H433 H 0.39934 0.89317 0.93547 0.0
H434 H 0.4894 0.9351 0.88139 0.0
H435 H 0.49531 0.973 0.87567 0.0
H436 H 0.47658 0.95214 0.84891 0.0
H437 H 0.43328 0.98681 0.85124 0.0
H438 H 0.45181 0.0077 0.87803 0.0
H439 H 0.41637 0.9933 0.88532 0.0
H440 H 0.42499 0.92334 0.97364 0.0
H441 H 0.45179 0.95963 1.00233 0.0
H442 H 0.48197 1.0001 0.9239 0.0
C443 C 0.41751 0.92514 0.85979 0.0
C444 C 0.39751 0.90217 0.86215 0.0
C445 C 0.39149 0.8904 0.88967 0.0
C446 C 0.40454 0.9018 0.91446 0.0
C447 C 0.42376 0.92481 0.91137 0.0
C448 C 0.43036 0.93616 0.88465 0.0
C449 C 0.45091 0.96145 0.88702 0.0
C450 C 0.47976 0.95502 0.87238 0.0
C451 C 0.43727 0.98893 0.87468 0.0
C452 C 0.4544 0.96302 0.91928 0.0
C453 C 0.43874 0.94166 0.93306 0.0
C454 C 0.43776 0.93978 0.963 0.0
C455 C 0.45321 0.96025 0.97914 0.0
C456 C 0.46959 0.98198 0.9653 0.0
C457 C 0.46998 0.98337 0.93502 0.0
H458 H 0.66386 0.41965 0.69116 0.0
H459 H 0.61346 0.34254 0.67445 0.0
H460 H 0.58991 0.36677 0.63344 0.0
H461 H 0.60941 0.46933 0.67563 0.0
H462 H 0.63277 0.49534 0.65847 0.0
H463 H 0.64703 0.4714 0.68543 0.0
H464 H 0.6855 0.45391 0.64958 0.0
H465 H 0.67139 0.4779 0.62251 0.0
H466 H 0.67422 0.4401 0.61523 0.0
H467 H 0.56883 0.4007 0.59673 0.0
H468 H 0.55299 0.44135 0.56644 0.0
H469 H 0.61917 0.49539 0.60483 0.0
C470 C 0.64831 0.40763 0.67856 0.0
C471 C 0.64045 0.37918 0.68626 0.0
C472 C 0.61956 0.36448 0.66938 0.0
C473 C 0.60619 0.37799 0.64586 0.0
C474 C 0.6141 0.40616 0.63917 0.0
C475 C 0.63484 0.42074 0.65488 0.0
C476 C 0.63866 0.45122 0.6438 0.0
C477 C 0.63153 0.4731 0.66723 0.0
C478 C 0.66926 0.45606 0.63208 0.0
C479 C 0.61641 0.45166 0.61983 0.0
C480 C 0.60256 0.42542 0.61743 0.0
C481 C 0.57997 0.42116 0.59799 0.0
C482 C 0.57125 0.44436 0.58067 0.0
C483 C 0.58535 0.47139 0.58252 0.0
C484 C 0.60828 0.47488 0.60241 0.0
H485 H 0.92415 0.63577 0.20333 0.0
H486 H 0.8866 0.69754 0.14416 0.0
H487 H 0.90498 0.66977 0.10316 0.0
H488 H 0.98854 0.62401 0.16334 0.0
H489 H 0.99014 0.5863 0.17212 0.0
H490 H 0.97348 0.61077 0.19657 0.0
H491 H 0.92649 0.58021 0.19541 0.0
H492 H 0.94303 0.55564 0.17096 0.0
H493 H 0.90947 0.57254 0.1614 0.0
H494 H 0.92689 0.63428 0.0685 0.0
H495 H 0.95265 0.59541 0.04345 0.0
H496 H 0.9768 0.55819 0.12554 0.0
C497 C 0.91951 0.6433 0.18175 0.0
C498 C 0.90381 0.66875 0.17693 0.0
C499 C 0.89872 0.67819 0.14835 0.0
C500 C 0.90894 0.66249 0.12494 0.0
C501 C 0.92434 0.63746 0.13048 0.0
C502 C 0.92971 0.62803 0.15821 0.0
C503 C 0.9474 0.60089 0.15846 0.0
C504 C 0.97662 0.6058 0.17351 0.0
C505 C 0.93059 0.57584 0.17238 0.0
C506 C 0.9511 0.59643 0.12655 0.0
C507 C 0.93756 0.61766 0.1107 0.0
C508 C 0.93784 0.61777 0.08074 0.0
C509 C 0.9527 0.59584 0.06669 0.0
C510 C 0.96732 0.57446 0.08261 0.0
C511 C 0.96605 0.57455 0.11288 0.0
H512 H 0.35685 0.15716 0.12887 0.0
H513 H 0.3773 0.11208 0.20826 0.0
H514 H 0.41831 0.08889 0.18458 0.0
H515 H 0.37222 0.10062 0.08202 0.0
H516 H 0.38795 0.12301 0.05439 0.0
H517 H 0.36129 0.13748 0.07803 0.0
H518 H 0.39676 0.17819 0.09257 0.0
H519 H 0.42353 0.16388 0.06887 0.0
H520 H 0.432 0.1692 0.10628 0.0
H521 H 0.45499 0.06766 0.15114 0.0
H522 H 0.48473 0.05106 0.11084 0.0
H523 H 0.44219 0.11186 0.05405 0.0
C524 C 0.37025 0.14285 0.14147 0.0
C525 C 0.36363 0.13639 0.17045 0.0
C526 C 0.38155 0.11709 0.18592 0.0
C527 C 0.40508 0.10394 0.17272 0.0
C528 C 0.41069 0.11043 0.14403 0.0
C529 C 0.39392 0.12958 0.12864 0.0
C530 C 0.40394 0.13204 0.09778 0.0
C531 C 0.37992 0.12272 0.07683 0.0
C532 C 0.4147 0.16265 0.09099 0.0
C533 C 0.42859 0.11089 0.09811 0.0
C534 C 0.43225 0.09873 0.12501 0.0
C535 C 0.45268 0.07747 0.13012 0.0
C536 C 0.46969 0.06831 0.10711 0.0
C537 C 0.46646 0.08063 0.07937 0.0
C538 C 0.44561 0.10228 0.07504 0.0
H539 H 0.18644 0.8701 0.60923 0.0
H540 H 0.19057 0.92015 0.68733 0.0
H541 H 0.14901 0.9487 0.67036 0.0
H542 H 0.17307 0.92801 0.56275 0.0
H543 H 0.14944 0.90803 0.53926 0.0
H544 H 0.17711 0.88975 0.55925 0.0
H545 H 0.13852 0.8556 0.58131 0.0
H546 H 0.11068 0.87393 0.56144 0.0
H547 H 0.10822 0.87049 0.59993 0.0
H548 H 0.10856 0.9742 0.64256 0.0
H549 H 0.0756 0.9951 0.60594 0.0
H550 H 0.1 0.92881 0.54627 0.0
C551 C 0.17869 0.88703 0.62288 0.0
C552 C 0.19191 0.89281 0.64965 0.0
C553 C 0.18064 0.91497 0.66691 0.0
C554 C 0.15705 0.93138 0.65741 0.0
C555 C 0.14486 0.92532 0.63066 0.0
C556 C 0.15539 0.90363 0.6137 0.0
C557 C 0.13996 0.90242 0.58506 0.0
C558 C 0.16116 0.90736 0.56012 0.0
C559 C 0.12336 0.87391 0.58175 0.0
C560 C 0.11958 0.92731 0.58813 0.0
C561 C 0.12225 0.94006 0.6147 0.0
C562 C 0.10617 0.96418 0.6218 0.0
C563 C 0.08742 0.97585 0.60095 0.0
C564 C 0.08519 0.9635 0.57335 0.0
C565 C 0.10117 0.93867 0.56722 0.0
H566 H 0.86639 0.39148 0.91664 0.0
H567 H 0.87894 0.44532 0.84109 0.0
H568 H 0.9196 0.46985 0.86521 0.0
H569 H 0.87856 0.44629 0.96733 0.0
H570 H 0.89671 0.42347 0.99296 0.0
H571 H 0.87042 0.4084 0.96872 0.0
H572 H 0.9083 0.37223 0.95076 0.0
H573 H 0.93476 0.3873 0.97492 0.0
H574 H 0.94226 0.38539 0.93705 0.0
H575 H 0.95682 0.49113 0.8991 0.0
H576 H 0.98633 0.50771 0.94017 0.0
H577 H 0.94941 0.44005 0.99337 0.0
C578 C 0.87767 0.40838 0.90507 0.0
C579 C 0.86943 0.41624 0.8768 0.0
C580 C 0.88507 0.4384 0.8625 0.0
C581 C 0.90816 0.45261 0.87609 0.0
C582 C 0.91552 0.44445 0.90401 0.0
C583 C 0.90072 0.42283 0.91833 0.0
C584 C 0.9119 0.41911 0.94874 0.0
C585 C 0.88798 0.42466 0.97072 0.0
C586 C 0.92509 0.38923 0.95311 0.0
C587 C 0.93489 0.44241 0.9495 0.0
C588 C 0.93689 0.45663 0.92343 0.0
C589 C 0.95573 0.47984 0.91947 0.0
C590 C 0.97264 0.48897 0.94288 0.0
C591 C 0.97071 0.47485 0.96987 0.0
C592 C 0.9517 0.45111 0.97295 0.0
H593 H 0.69434 0.66284 0.41099 0.0
H594 H 0.67991 0.60865 0.33677 0.0
H595 H 0.64068 0.58347 0.36237 0.0
H596 H 0.68492 0.60789 0.46306 0.0
H597 H 0.66717 0.63036 0.4887 0.0
H598 H 0.69237 0.64593 0.46363 0.0
H599 H 0.65323 0.68136 0.44588 0.0
H600 H 0.62789 0.66585 0.47091 0.0
H601 H 0.61907 0.66756 0.43319 0.0
H602 H 0.60546 0.56168 0.39718 0.0
H603 H 0.57727 0.54475 0.43885 0.0
H604 H 0.61433 0.61291 0.49053 0.0
C605 C 0.68293 0.64573 0.40004 0.0
C606 C 0.69019 0.63795 0.37169 0.0
C607 C 0.67447 0.6155 0.35821 0.0
C608 C 0.6522 0.60092 0.37264 0.0
C609 C 0.6458 0.609 0.40059 0.0
C610 C 0.66067 0.63088 0.41416 0.0
C611 C 0.65045 0.63443 0.44477 0.0
C612 C 0.6752 0.62934 0.4663 0.0
C613 C 0.63685 0.66406 0.44892 0.0
C614 C 0.62793 0.61072 0.44646 0.0
C615 C 0.62539 0.59648 0.42066 0.0
C616 C 0.60691 0.57298 0.41735 0.0
C617 C 0.59076 0.56366 0.44109 0.0
C618 C 0.59296 0.57795 0.46775 0.0
C619 C 0.61183 0.60181 0.47032 0.0
H620 H 0.14041 0.34329 0.11632 0.0
H621 H 0.19177 0.39595 0.17387 0.0
H622 H 0.16603 0.43916 0.1566 0.0
H623 H 0.13756 0.39403 0.05719 0.0
H624 H 0.10092 0.38474 0.04778 0.0
H625 H 0.12393 0.35832 0.0643 0.0
H626 H 0.08645 0.35029 0.10475 0.0
H627 H 0.06332 0.37661 0.08832 0.0
H628 H 0.07443 0.38053 0.12524 0.0
H629 H 0.13361 0.47696 0.13281 0.0
H630 H 0.09632 0.50478 0.10631 0.0
H631 H 0.06709 0.42688 0.06479 0.0
C632 C 0.1465 0.36393 0.12511 0.0
C633 C 0.16821 0.36619 0.1464 0.0
C634 C 0.17505 0.39361 0.15771 0.0
C635 C 0.16068 0.41831 0.14789 0.0
C636 C 0.13942 0.41528 0.1268 0.0
C637 C 0.13231 0.3887 0.11567 0.0
C638 C 0.10814 0.39092 0.09384 0.0
C639 C 0.11825 0.38144 0.06401 0.0
C640 C 0.08151 0.37356 0.10363 0.0
C641 C 0.10259 0.42285 0.09446 0.0
C642 C 0.12092 0.4367 0.11342 0.0
C643 C 0.1193 0.46629 0.1178 0.0
C644 C 0.09825 0.48196 0.10258 0.0
C645 C 0.07933 0.468 0.0832 0.0
C646 C 0.08158 0.43811 0.07925 0.0
H647 H 0.64605 0.21126 0.93627 0.0
H648 H 0.69393 0.15708 0.87857 0.0
H649 H 0.66693 0.11455 0.89653 0.0
H650 H 0.64222 0.16092 0.99591 0.0
H651 H 0.60615 0.17112 1.00547 0.0
H652 H 0.62998 0.19689 0.98866 0.0
H653 H 0.59215 0.20557 0.9484 0.0
H654 H 0.56821 0.17989 0.96512 0.0
H655 H 0.57851 0.1755 0.92816 0.0
H656 H 0.63353 0.07775 0.92076 0.0
H657 H 0.59547 0.05096 0.94749 0.0
H658 H 0.57015 0.12968 0.98878 0.0
C659 C 0.65113 0.19041 0.92763 0.0
C660 C 0.67221 0.18749 0.90609 0.0
C661 C 0.67773 0.15987 0.89494 0.0
C662 C 0.66263 0.13557 0.90515 0.0
C663 C 0.64199 0.13923 0.92644 0.0
C664 C 0.63618 0.16603 0.93744 0.0
C665 C 0.61231 0.16452 0.95942 0.0
C666 C 0.62334 0.17392 0.98912 0.0
C667 C 0.58626 0.18242 0.94968 0.0
C668 C 0.60542 0.13272 0.95902 0.0
C669 C 0.62286 0.11835 0.94006 0.0
C670 C 0.61992 0.08881 0.93579 0.0
C671 C 0.59843 0.07373 0.95113 0.0
C672 C 0.5804 0.08823 0.97049 0.0
C673 C 0.58397 0.11805 0.97434 0.0
H674 H 0.90791 0.84263 0.42795 0.0
H675 H 0.86096 0.89812 0.3693 0.0
H676 H 0.88753 0.94028 0.38837 0.0
H677 H 0.91052 0.89138 0.48807 0.0
H678 H 0.94643 0.88098 0.49856 0.0
H679 H 0.92293 0.85561 0.48088 0.0
H680 H 0.96145 0.84798 0.44159 0.0
H681 H 0.98507 0.87323 0.45919 0.0
H682 H 0.97542 0.87857 0.422 0.0
H683 H 0.92047 0.97648 0.41384 0.0
H684 H 0.95831 1.00249 0.44161 0.0
H685 H 0.98285 0.92272 0.48294 0.0
C686 C 0.90294 0.86368 0.41933 0.0
C687 C 0.88225 0.86711 0.39725 0.0
C688 C 0.87686 0.89498 0.38612 0.0
C689 C 0.8917 0.91905 0.39695 0.0
C690 C 0.91192 0.91487 0.41883 0.0
C691 C 0.9176 0.88781 0.42976 0.0
C692 C 0.94107 0.88874 0.4524 0.0
C693 C 0.92953 0.87858 0.48171 0.0
C694 C 0.9673 0.87109 0.44324 0.0
C695 C 0.94791 0.92052 0.45243 0.0
C696 C 0.93077 0.9354 0.43314 0.0
C697 C 0.93384 0.96503 0.42913 0.0
C698 C 0.95518 0.97966 0.44505 0.0
C699 C 0.97292 0.9646 0.46468 0.0
C700 C 0.96918 0.93474 0.46832 0.0
H701 H 0.44982 0.68554 0.67281 0.0
H702 H 0.36839 0.68395 0.62645 0.0
H703 H 0.38572 0.64341 0.5975 0.0
H704 H 0.4938 0.67362 0.6127 0.0
H705 H 0.51945 0.65188 0.63205 0.0
H706 H 0.49939 0.67877 0.65066 0.0
H707 H 0.48085 0.64008 0.68659 0.0
H708 H 0.50078 0.61301 0.66797 0.0
H709 H 0.46251 0.60859 0.67322 0.0
H710 H 0.41386 0.60462 0.5712 0.0
H711 H 0.45042 0.57313 0.54951 0.0
H712 H 0.51298 0.60125 0.61309 0.0
C713 C 0.43554 0.67677 0.65658 0.0
C714 C 0.40768 0.68808 0.65199 0.0
C715 C 0.38966 0.67551 0.63072 0.0
C716 C 0.39937 0.6525 0.61408 0.0
C717 C 0.42712 0.64216 0.61899 0.0
C718 C 0.44489 0.65397 0.63977 0.0
C719 C 0.47427 0.64015 0.63997 0.0
C720 C 0.49812 0.66243 0.63345 0.0
C721 C 0.47992 0.62453 0.66864 0.0
C722 C 0.47056 0.61911 0.61565 0.0
C723 C 0.44315 0.62023 0.60395 0.0
C724 C 0.43527 0.60338 0.58047 0.0
C725 C 0.45611 0.58536 0.56839 0.0
C726 C 0.48446 0.58442 0.5798 0.0
C727 C 0.49145 0.60131 0.60395 0.0
H728 H 0.9514 0.95719 0.74553 0.0
H729 H 0.9934 0.8755 0.73262 0.0
H730 H 0.01216 0.89312 0.68604 0.0
H731 H 0.9289 0.96718 0.67272 0.0
H732 H 0.93456 1.00549 0.67311 0.0
H733 H 0.92569 0.98663 0.70582 0.0
H734 H 0.97169 0.00746 0.73009 0.0
H735 H 0.98076 0.02629 0.69738 0.0
H736 H 1.00632 1.00211 0.71366 0.0
H737 H 0.02443 0.91953 0.63907 0.0
H738 H 0.0285 0.95207 0.59687 0.0
H739 H 0.9791 0.01605 0.64189 0.0
C740 C 0.96441 0.94288 0.73291 0.0
C741 C 0.9709 0.91493 0.74288 0.0
C742 C 0.9884 0.89714 0.72571 0.0
C743 C 0.99907 0.90691 0.69913 0.0
C744 C 0.99214 0.93457 0.68995 0.0
C745 C 0.97521 0.95225 0.70641 0.0
C746 C 0.97023 0.98079 0.69158 0.0
C747 C 0.93793 0.98527 0.68544 0.0
C748 C 0.98302 1.00562 0.70923 0.0
C749 C 0.98689 0.97641 0.66415 0.0
C750 C 0.99944 0.94968 0.66346 0.0
C751 C 0.01497 0.94066 0.63959 0.0
C752 C 0.01744 0.95938 0.61579 0.0
C753 C 1.00466 0.98686 0.61618 0.0
C754 C 0.98939 0.99531 0.64087 0.0
H755 H 0.59134 0.0912 0.25119 0.0
H756 H 0.56327 0.17686 0.22758 0.0
H757 H 0.54494 0.15843 0.18131 0.0
H758 H 0.61745 0.07278 0.18298 0.0
H759 H 0.60613 0.03573 0.18535 0.0
H760 H 0.6145 0.05527 0.21753 0.0
H761 H 0.56384 0.04286 0.23768 0.0
H762 H 0.55529 0.02331 0.20548 0.0
H763 H 0.53221 0.05189 0.21694 0.0
H764 H 0.53281 0.13096 0.13582 0.0
H765 H 0.5289 0.09707 0.09531 0.0
H766 H 0.56512 0.02988 0.14912 0.0
C767 C 0.58131 0.10614 0.23636 0.0
C768 C 0.57871 0.1355 0.24315 0.0
C769 C 0.56514 0.15419 0.22314 0.0
C770 C 0.55474 0.14394 0.19672 0.0
C771 C 0.55794 0.11492 0.19063 0.0
C772 C 0.57086 0.0963 0.20995 0.0
C773 C 0.57299 0.0664 0.1978 0.0
C774 C 0.60465 0.05701 0.19579 0.0
C775 C 0.55501 0.04485 0.21553 0.0
C776 C 0.55987 0.07121 0.16836 0.0
C777 C 0.55101 0.09923 0.16465 0.0
C778 C 0.53934 0.10888 0.13865 0.0
C779 C 0.53706 0.08945 0.11579 0.0
C780 C 0.54633 0.06074 0.11915 0.0
C781 C 0.55761 0.05162 0.14592 0.0
H782 H 0.47282 0.58715 0.29395 0.0
H783 H 0.49812 0.6737 0.31768 0.0
H784 H 0.51643 0.65544 0.3642 0.0
H785 H 0.44652 0.56638 0.36179 0.0
H786 H 0.45897 0.52994 0.35965 0.0
H787 H 0.45047 0.54957 0.32733 0.0
H788 H 0.50176 0.5399 0.30794 0.0
H789 H 0.51043 0.52029 0.34033 0.0
H790 H 0.5328 0.55013 0.3291 0.0
H791 H 0.52855 0.62791 0.41002 0.0
H792 H 0.53219 0.5938 0.45089 0.0
H793 H 0.49916 0.52564 0.39665 0.0
C794 C 0.48226 0.60231 0.30886 0.0
C795 C 0.48407 0.63188 0.30202 0.0
C796 C 0.49686 0.65089 0.32216 0.0
C797 C 0.50726 0.64072 0.34871 0.0
C798 C 0.50489 0.61147 0.35482 0.0
C799 C 0.49274 0.59255 0.3354 0.0
C800 C 0.49135 0.56239 0.34762 0.0
C801 C 0.45997 0.55144 0.34919 0.0
C802 C 0.51021 0.54198 0.33021 0.0
C803 C 0.50391 0.56737 0.37723 0.0
C804 C 0.51192 0.59573 0.38096 0.0
C805 C 0.52272 0.60557 0.40717 0.0
C806 C 0.52489 0.58601 0.43023 0.0
C807 C 0.51639 0.55695 0.42689 0.0
C808 C 0.50613 0.54764 0.39986 0.0
H809 H 0.09833 0.49208 0.79928 0.0
H810 H 0.08766 0.40102 0.81664 0.0
H811 H 0.06255 0.41215 0.86191 0.0
H812 H 0.11746 0.51078 0.86783 0.0
H813 H 0.09946 0.54491 0.86747 0.0
H814 H 0.11156 0.52969 0.8344 0.0
H815 H 0.0597 0.53282 0.81354 0.0
H816 H 0.04741 0.54808 0.84669 0.0
H817 H 0.03019 0.51625 0.83274 0.0
H818 H 0.04423 0.43368 0.90858 0.0
H819 H 0.03651 0.46323 0.9519 0.0
H820 H 0.06059 0.53952 0.90347 0.0
C821 C 0.09037 0.47443 0.81237 0.0
C822 C 0.095 0.44569 0.80441 0.0
C823 C 0.08405 0.42324 0.8221 0.0
C824 C 0.06979 0.42936 0.84788 0.0
C825 C 0.06639 0.45803 0.8555 0.0
C826 C 0.07628 0.48016 0.83808 0.0
C827 C 0.07274 0.509 0.85213 0.0
C828 C 0.10204 0.52448 0.85567 0.0
C829 C 0.05122 0.52763 0.83527 0.0
C830 C 0.0605 0.49965 0.88075 0.0
C831 C 0.05633 0.47027 0.88222 0.0
C832 C 0.04699 0.45675 0.90746 0.0
C833 C 0.04258 0.47366 0.93193 0.0
C834 C 0.04788 0.50361 0.93093 0.0
C835 C 0.05623 0.51667 0.9048 0.0
H836 H 0.72907 0.93758 0.93902 0.0
H837 H 0.76538 0.02286 0.92617 0.0
H838 H 0.72217 0.04394 0.94827 0.0
H839 H 0.65507 0.95596 0.9246 0.0
H840 H 0.64097 0.93197 0.95177 0.0
H841 H 0.67439 0.92386 0.9342 0.0
H842 H 0.70024 0.92069 0.98361 0.0
H843 H 0.66689 0.92865 1.00132 0.0
H844 H 0.69844 0.95058 0.00784 0.0
H845 H 0.6751 0.0555 0.97393 0.0
H846 H 0.62891 0.05593 1.0007 0.0
H847 H 0.62395 0.96326 0.99566 0.0
C848 C 0.72809 0.96069 0.94099 0.0
C849 C 0.7507 0.97853 0.93083 0.0
C850 C 0.74823 0.00872 0.93348 0.0
C851 C 0.7238 0.0209 0.94612 0.0
C852 C 0.70193 1.00264 0.95593 0.0
C853 C 0.7039 0.97317 0.95347 0.0
C854 C 0.67774 0.95814 0.966 0.0
C855 C 0.66106 0.94151 0.94275 0.0
C856 C 0.68635 0.93836 0.99119 0.0
C857 C 0.66085 0.98369 0.97621 0.0
C858 C 0.67499 0.00924 0.97017 0.0
C859 C 0.66369 0.03561 0.9784 0.0
C860 C 0.63735 0.03574 0.99328 0.0
C861 C 0.62258 0.00975 0.99942 0.0
C862 C 0.63463 0.9835 0.99084 0.0
H863 H 0.82532 0.11338 0.43131 0.0
H864 H 0.78814 0.02832 0.4205 0.0
H865 H 0.83163 1.00701 0.44269 0.0
H866 H 0.89933 0.09425 0.41723 0.0
H867 H 0.91373 0.11835 0.44388 0.0
H868 H 0.8803 0.12658 0.42588 0.0
H869 H 0.85471 0.13039 0.47506 0.0
H870 H 0.88806 0.12229 0.49318 0.0
H871 H 0.85637 0.10068 0.50004 0.0
H872 H 0.87874 0.99527 0.46872 0.0
H873 H 0.9248 0.9947 0.49619 0.0
H874 H 0.93039 0.08731 0.48916 0.0
C875 C 0.8262 0.09027 0.43368 0.0
C876 C 0.80325 0.07255 0.42415 0.0
C877 C 0.80557 0.04235 0.42732 0.0
C878 C 0.83015 0.03004 0.44 0.0
C879 C 0.8523 0.0482 0.44929 0.0
C880 C 0.85051 0.07767 0.44622 0.0
C881 C 0.87682 0.09261 0.45854 0.0
C882 C 0.89353 0.1089 0.43498 0.0
C883 C 0.86848 0.11266 0.48317 0.0
C884 C 0.89353 0.067 0.46949 0.0
C885 C 0.87923 0.0415 0.46384 0.0
C886 C 0.89027 0.01511 0.47288 0.0
C887 C 0.91651 0.01491 0.4882 0.0
C888 C 0.93137 0.04085 0.49403 0.0
C889 C 0.91962 0.06712 0.48457 0.0
H890 H 0.23482 0.6131 0.11685 0.0
H891 H 0.26933 0.52712 0.12447 0.0
H892 H 0.22435 0.50736 0.10334 0.0
H893 H 0.1607 0.59457 0.13316 0.0
H894 H 0.14627 0.61996 0.10758 0.0
H895 H 0.18058 0.62692 0.12457 0.0
H896 H 0.20459 0.6323 0.07463 0.0
H897 H 0.17036 0.6255 0.05752 0.0
H898 H 0.20098 0.60366 0.04905 0.0
H899 H 0.17593 0.49745 0.07842 0.0
H900 H 0.12916 0.49888 0.05217 0.0
H901 H 0.1271 0.59116 0.06206 0.0
C902 C 0.23303 0.59011 0.114 0.0
C903 C 0.25568 0.57169 0.12229 0.0
C904 C 0.25218 0.54167 0.11856 0.0
C905 C 0.22674 0.53024 0.10649 0.0
C906 C 0.2049 0.54909 0.09841 0.0
C907 C 0.20786 0.57839 0.1021 0.0
C908 C 0.18169 0.59424 0.09106 0.0
C909 C 0.16641 0.60984 0.11556 0.0
C910 C 0.18991 0.61515 0.06661 0.0
C911 C 0.16369 0.56938 0.08013 0.0
C912 C 0.17724 0.54342 0.08465 0.0
C913 C 0.16498 0.51764 0.0752 0.0
C914 C 0.13834 0.51856 0.06058 0.0
C915 C 0.12427 0.54498 0.05591 0.0
C916 C 0.1372 0.57059 0.06583 0.0
H917 H 0.3033 0.46083 0.55921 0.0
H918 H 0.32205 0.46602 0.65034 0.0
H919 H 0.3675 0.4921 0.63955 0.0
H920 H 0.37141 0.44334 0.53866 0.0
H921 H 0.37087 0.46322 0.50529 0.0
H922 H 0.33769 0.45029 0.52056 0.0
H923 H 0.31755 0.50204 0.51983 0.0
H924 H 0.35085 0.51517 0.50458 0.0
H925 H 0.33746 0.53042 0.5373 0.0
H926 H 0.41438 0.51145 0.6181 0.0
H927 H 0.45793 0.51973 0.58835 0.0
H928 H 0.408 0.5007 0.51184 0.0
C929 C 0.31672 0.46783 0.57696 0.0
C930 C 0.30911 0.46136 0.60561 0.0
C931 C 0.32723 0.47106 0.62821 0.0
C932 C 0.35311 0.48588 0.62227 0.0
C933 C 0.36039 0.49111 0.59365 0.0
C934 C 0.34252 0.48247 0.57141 0.0
C935 C 0.35636 0.48769 0.54252 0.0
C936 C 0.35926 0.45946 0.5258 0.0
C937 C 0.33955 0.51017 0.52503 0.0
C938 C 0.38539 0.49932 0.55192 0.0
C939 C 0.38723 0.50186 0.58143 0.0
C940 C 0.41296 0.51004 0.59496 0.0
C941 C 0.43757 0.51482 0.57793 0.0
C942 C 0.4362 0.51099 0.54785 0.0
C943 C 0.40956 0.50402 0.53479 0.0
H944 H 0.93242 0.7293 0.94396 0.0
H945 H 0.93241 0.76833 0.02821 0.0
H946 H 0.95493 0.72478 0.04881 0.0
H947 H 0.91747 0.65627 0.96768 0.0
H948 H 0.94086 0.64082 0.9413 0.0
H949 H 0.9232 0.67435 0.93378 0.0
H950 H 0.9727 0.69854 0.92343 0.0
H951 H 0.99045 0.66508 0.93076 0.0
H952 H 1.00083 0.69683 0.95024 0.0
H953 H 0.9807 0.6774 0.05949 0.0
H954 H 1.00716 0.63121 0.05859 0.0
H955 H 0.98951 0.62419 0.96753 0.0
C956 C 0.93719 0.72879 0.96675 0.0
C957 C 0.93065 0.75231 0.98443 0.0
C958 C 0.93692 0.75048 0.01424 0.0
C959 C 0.94979 0.72586 0.02614 0.0
C960 C 0.95612 0.70314 0.008 0.0
C961 C 0.94993 0.70444 0.97893 0.0
C962 C 0.95962 0.67768 0.96377 0.0
C963 C 0.93374 0.66132 0.95088 0.0
C964 C 0.98225 0.68498 0.9407 0.0
C965 C 0.97276 0.66129 0.98867 0.0
C966 C 0.97043 0.6761 0.01412 0.0
C967 C 0.98228 0.66549 0.03972 0.0
C968 C 0.9971 0.63925 0.03911 0.0
C969 C 0.99964 0.62399 0.01316 0.0
C970 C 0.98727 0.63521 0.98777 0.0
H971 H 0.43394 0.82382 0.10887 0.0
H972 H 0.43316 0.78686 0.02368 0.0
H973 H 0.45413 0.83186 1.00394 0.0
H974 H 0.41663 0.8967 0.08707 0.0
H975 H 0.44015 0.91254 0.11361 0.0
H976 H 0.42349 0.87809 0.12047 0.0
H977 H 0.47377 0.85586 0.12979 0.0
H978 H 0.49053 0.89023 0.12312 0.0
H979 H 0.5013 0.85943 0.10278 0.0
H980 H 0.47848 0.8805 0.99421 0.0
H981 H 0.50397 0.92762 0.996 0.0
H982 H 0.48779 0.93192 0.08735 0.0
C983 C 0.43821 0.8251 0.08605 0.0
C984 C 0.43192 0.80175 0.06785 0.0
C985 C 0.4375 0.80456 0.03803 0.0
C986 C 0.44948 0.83002 0.02663 0.0
C987 C 0.45559 0.85256 0.04527 0.0
C988 C 0.45004 0.85028 0.07435 0.0
C989 C 0.45937 0.87708 0.09009 0.0
C990 C 0.43335 0.89198 0.1036 0.0
C991 C 0.48263 0.87023 0.11277 0.0
C992 C 0.47158 0.89462 0.06547 0.0
C993 C 0.46908 0.88033 0.03968 0.0
C994 C 0.48013 0.89202 0.01424 0.0
C995 C 0.49436 0.91883 0.01535 0.0
C996 C 0.49708 0.93359 0.04163 0.0
C997 C 0.48547 0.92128 0.06686 0.0
H998 H 0.1116 0.21441 0.62858 0.0
H999 H 0.10644 0.26595 0.55082 0.0
H1000 H 0.09315 0.22252 0.52321 0.0
H1001 H 0.13858 0.14791 0.59511 0.0
H1002 H 0.11714 0.12549 0.61859 0.0
H1003 H 0.13052 0.1597 0.63093 0.0
H1004 H 0.07842 0.1749 0.64334 0.0
H1005 H 0.06497 0.14081 0.63119 0.0
H1006 H 0.05088 0.17351 0.6159 0.0
H1007 H 0.07371 0.17414 0.50567 0.0
H1008 H 0.04978 0.12647 0.5007 0.0
H1009 H 0.06843 0.10768 0.59 0.0
C1010 C 0.10806 0.21653 0.60566 0.0
C1011 C 0.10999 0.24354 0.59185 0.0
C1012 C 0.10537 0.24539 0.56179 0.0
C1013 C 0.09779 0.22084 0.54595 0.0
C1014 C 0.09533 0.19459 0.56045 0.0
C1015 C 0.10058 0.19237 0.58965 0.0
C1016 C 0.09416 0.16249 0.60087 0.0
C1017 C 0.12175 0.14805 0.61203 0.0
C1018 C 0.07071 0.16298 0.62418 0.0
C1019 C 0.08332 0.14845 0.57372 0.0
C1020 C 0.08454 0.16701 0.55042 0.0
C1021 C 0.0733 0.15926 0.52363 0.0
C1022 C 0.05991 0.13215 0.52089 0.0
C1023 C 0.05803 0.11335 0.5448 0.0
C1024 C 0.07032 0.12149 0.57125 0.0
H1025 H 0.5933 0.30062 0.45893 0.0
H1026 H 0.67794 0.32133 0.49369 0.0
H1027 H 0.65949 0.3676 0.51093 0.0
H1028 H 0.57614 0.36938 0.43412 0.0
H1029 H 0.53855 0.36713 0.44357 0.0
H1030 H 0.55803 0.33499 0.43558 0.0
H1031 H 0.54374 0.31332 0.485 0.0
H1032 H 0.52412 0.34542 0.49313 0.0
H1033 H 0.55189 0.33294 0.51728 0.0
H1034 H 0.63247 0.4135 0.52094 0.0
H1035 H 0.59905 0.45441 0.52325 0.0
H1036 H 0.53159 0.40201 0.48488 0.0
C1037 C 0.60787 0.31453 0.47071 0.0
C1038 C 0.63714 0.30722 0.47485 0.0
C1039 C 0.65554 0.32652 0.48983 0.0
C1040 C 0.6452 0.35278 0.49995 0.0
C1041 C 0.61631 0.35937 0.49521 0.0
C1042 C 0.59788 0.34068 0.48112 0.0
C1043 C 0.56806 0.35323 0.47778 0.0
C1044 C 0.55973 0.35637 0.44587 0.0
C1045 C 0.54563 0.33515 0.49429 0.0
C1046 C 0.57273 0.38218 0.49162 0.0
C1047 C 0.60064 0.38533 0.50169 0.0
C1048 C 0.6104 0.41102 0.51367 0.0
C1049 C 0.59118 0.4341 0.51512 0.0
C1050 C 0.56245 0.43123 0.50501 0.0
C1051 C 0.55325 0.40478 0.49329 0.0
loop_
_geom_bond_atom_site_label_1
_geom_bond_atom_site_label_2
_geom_bond_distance
_geom_bond_site_symmetry_2
_ccdc_geom_bond_type
C0 C1 1.264 . S
C0 C5 1.479 . S
C0 C10 1.465 . S
C1 C0 1.264 . S
C1 C3 1.339 . S
C1 H28 0.931 . S
C2 C3 1.395 . S
C2 C4 1.320 . S
C3 C1 1.339 . S
C3 C2 1.395 . S
C3 H29 0.929 . S
C4 C2 1.320 . S
C4 C5 1.405 . S
C4 H30 0.930 . S
C5 C0 1.479 . S
C5 C4 1.405 . S
C5 H31 0.931 . S
U6 O7 2.454 . S
U6 O8 2.458 . S
U6 C9 2.984 . S
U6 C10 2.847 . S
U6 C23 2.882 . S
U6 O24 2.441 . S
U6 O25 2.420 . S
U6 O26 2.455 . S
U6 O27 2.449 . S
O7 U6 2.454 . S
O7 C9 1.353 . S
O8 U6 2.458 . S
O8 C9 1.286 . S
C9 U6 2.984 . S
C9 O7 1.353 . S
C9 O8 1.286 . S
C9 C11 1.363 . S
C10 C0 1.465 . S
C10 U6 2.847 . S
C10 O24 1.249 . S
C10 O25 1.202 . S
C11 C9 1.363 . S
C11 C13 1.408 . S
C11 C16 1.342 . S
C12 C13 1.310 . S
C12 C15 1.461 . S
C12 H32 0.932 . S
C13 C11 1.408 . S
C13 C12 1.310 . S
C13 H33 0.930 . S
C14 C15 1.474 . S
C14 C16 1.285 . S
C14 H34 0.929 . S
C15 C12 1.461 . S
C15 C14 1.474 . S
C16 C11 1.342 . S
C16 C14 1.285 . S
C16 H35 0.930 . S
C17 C20 1.424 . S
C17 C22 1.245 . S
C17 C23 1.428 . S
C18 C21 1.260 . S
C18 C22 1.477 . S
C18 H36 0.932 . S
C19 C20 1.384 . S
C19 C21 1.479 . S
C19 H37 0.929 . S
C20 C17 1.424 . S
C20 C19 1.384 . S
C20 H38 0.928 . S
C21 C18 1.260 . S
C21 C19 1.479 . S
C22 C17 1.245 . S
C22 C18 1.477 . S
C22 H39 0.932 . S
C23 U6 2.882 . S
C23 C17 1.428 . S
C23 O26 1.301 . S
C23 O27 1.282 . S
O24 U6 2.441 . S
O24 C10 1.249 . S
O25 U6 2.420 . S
O25 C10 1.202 . S
O26 U6 2.455 . S
O26 C23 1.301 . S
O27 U6 2.449 . S
O27 C23 1.282 . S
H28 C1 0.931 . S
H29 C3 0.929 . S
H30 C4 0.930 . S
H31 C5 0.931 . S
H32 C12 0.932 . S
H33 C13 0.930 . S
H34 C14 0.929 . S
H35 C16 0.930 . S
H36 C18 0.932 . S
H37 C19 0.929 . S
H38 C20 0.928 . S
H39 C22 0.932 . S
C40 C41 1.264 . S
C40 C45 1.479 . S
C40 C50 1.465 . S
C41 C40 1.264 . S
C41 C43 1.339 . S
C41 H68 0.931 . S
C42 C43 1.395 . S
C42 C44 1.320 . S
C43 C41 1.339 . S
C43 C42 1.395 . S
C43 H69 0.929 . S
C44 C42 1.320 . S
C44 C45 1.405 . S
C44 H70 0.930 . S
C45 C40 1.479 . S
C45 C44 1.405 . S
C45 H71 0.931 . S
U46 O47 2.454 . S
U46 O48 2.458 . S
U46 C49 2.984 . S
U46 C50 2.847 . S
U46 C63 2.882 . S
U46 O64 2.441 . S
U46 O65 2.420 . S
U46 O66 2.455 . S
U46 O67 2.449 . S
O47 U46 2.454 . S
O47 C49 1.353 . S
O48 U46 2.458 . S
O48 C49 1.286 . S
C49 U46 2.984 . S
C49 O47 1.353 . S
C49 O48 1.286 . S
C49 C51 1.363 . S
C50 C40 1.465 . S
C50 U46 2.847 . S
C50 O64 1.249 . S
C50 O65 1.202 . S
C51 C49 1.363 . S
C51 C53 1.408 . S
C51 C56 1.342 . S
C52 C53 1.310 . S
C52 C55 1.461 . S
C52 H72 0.932 . S
C53 C51 1.408 . S
C53 C52 1.310 . S
C53 H73 0.930 . S
C54 C55 1.474 . S
C54 C56 1.285 . S
C54 H74 0.929 . S
C55 C52 1.461 . S
C55 C54 1.474 . S
C56 C51 1.342 . S
C56 C54 1.285 . S
C56 H75 0.930 . S
C57 C60 1.424 . S
C57 C62 1.245 . S
C57 C63 1.428 . S
C58 C61 1.260 . S
C58 C62 1.477 . S
C58 H76 0.932 . S
C59 C60 1.384 . S
C59 C61 1.479 . S
C59 H77 0.929 . S
C60 C57 1.424 . S
C60 C59 1.384 . S
C60 H78 0.928 . S
C61 C58 1.260 . S
C61 C59 1.479 . S
C62 C57 1.245 . S
C62 C58 1.477 . S
C62 H79 0.932 . S
C63 U46 2.882 . S
C63 C57 1.428 . S
C63 O66 1.301 . S
C63 O67 1.282 . S
O64 U46 2.441 . S
O64 C50 1.249 . S
O65 U46 2.420 . S
O65 C50 1.202 . S
O66 U46 2.455 . S
O66 C63 1.301 . S
O67 U46 2.449 . S
O67 C63 1.282 . S
H68 C41 0.931 . S
H69 C43 0.929 . S
H70 C44 0.930 . S
H71 C45 0.931 . S
H72 C52 0.932 . S
H73 C53 0.930 . S
H74 C54 0.929 . S
H75 C56 0.930 . S
H76 C58 0.932 . S
H77 C59 0.929 . S
H78 C60 0.928 . S
H79 C62 0.932 . S
C80 C81 1.264 . S
C80 C85 1.479 . S
C80 C90 1.465 . S
C81 C80 1.264 . S
C81 C83 1.339 . S
C81 H108 0.931 . S
C82 C83 1.395 . S
C82 C84 1.320 . S
C83 C81 1.339 . S
C83 C82 1.395 . S
C83 H109 0.929 . S
C84 C82 1.320 . S
C84 C85 1.405 . S
C84 H110 0.930 . S
C85 C80 1.479 . S
C85 C84 1.405 . S
C85 H111 0.931 . S
U86 O87 2.454 . S
U86 O88 2.458 . S
U86 C89 2.984 . S
U86 C90 2.847 . S
U86 C103 2.882 . S
U86 O104 2.441 . S
U86 O105 2.420 . S
U86 O106 2.455 . S
U86 O107 2.449 . S
O87 U86 2.454 . S
O87 C89 1.353 . S
O88 U86 2.458 . S
O88 C89 1.286 . S
C89 U86 2.984 . S
C89 O87 1.353 . S
C89 O88 1.286 . S
C89 C91 1.363 . S
C90 C80 1.465 . S
C90 U86 2.847 . S
C90 O104 1.249 . S
C90 O105 1.202 . S
C91 C89 1.363 . S
C91 C93 1.408 . S
C91 C96 1.342 . S
C92 C93 1.310 . S
C92 C95 1.461 . S
C92 H112 0.932 . S
C93 C91 1.408 . S
C93 C92 1.310 . S
C93 H113 0.930 . S
C94 C95 1.474 . S
C94 C96 1.285 . S
C94 H114 0.929 . S
C95 C92 1.461 . S
C95 C94 1.474 . S
C96 C91 1.342 . S
C96 C94 1.285 . S
C96 H115 0.930 . S
C97 C100 1.424 . S
C97 C102 1.245 . S
C97 C103 1.428 . S
C98 C101 1.260 . S
C98 C102 1.477 . S
C98 H116 0.932 . S
C99 C100 1.384 . S
C99 C101 1.479 . S
C99 H117 0.929 . S
C100 C97 1.424 . S
C100 C99 1.384 . S
C100 H118 0.928 . S
C101 C98 1.260 . S
C101 C99 1.479 . S
C102 C97 1.245 . S
C102 C98 1.477 . S
C102 H119 0.932 . S
C103 U86 2.882 . S
C103 C97 1.428 . S
C103 O106 1.301 . S
C103 O107 1.282 . S
O104 U86 2.441 . S
O104 C90 1.249 . S
O105 U86 2.420 . S
O105 C90 1.202 . S
O106 U86 2.455 . S
O106 C103 1.301 . S
O107 U86 2.449 . S
O107 C103 1.282 . S
H108 C81 0.931 . S
H109 C83 0.929 . S
H110 C84 0.930 . S
H111 C85 0.931 . S
H112 C92 0.932 . S
H113 C93 0.930 . S
H114 C94 0.929 . S
H115 C96 0.930 . S
H116 C98 0.932 . S
H117 C99 0.929 . S
H118 C100 0.928 . S
H119 C102 0.932 . S
C120 C121 1.264 . S
C120 C125 1.479 . S
C120 C130 1.465 . S
C121 C120 1.264 . S
C121 C123 1.339 . S
C121 H148 0.931 . S
C122 C123 1.395 . S
C122 C124 1.320 . S
C123 C121 1.339 . S
C123 C122 1.395 . S
C123 H149 0.929 . S
C124 C122 1.320 . S
C124 C125 1.405 . S
C124 H150 0.930 . S
C125 C120 1.479 . S
C125 C124 1.405 . S
C125 H151 0.931 . S
U126 O127 2.454 . S
U126 O128 2.458 . S
U126 C129 2.984 . S
U126 C130 2.847 . S
U126 C143 2.882 . S
U126 O144 2.441 . S
U126 O145 2.420 . S
U126 O146 2.455 . S
U126 O147 2.449 . S
O127 U126 2.454 . S
O127 C129 1.353 . S
O128 U126 2.458 . S
O128 C129 1.286 . S
C129 U126 2.984 . S
C129 O127 1.353 . S
C129 O128 1.286 . S
C129 C131 1.363 . S
C130 C120 1.465 . S
C130 U126 2.847 . S
C130 O144 1.249 . S
C130 O145 1.202 . S
C131 C129 1.363 . S
C131 C133 1.408 . S
C131 C136 1.342 . S
C132 C133 1.310 . S
C132 C135 1.461 . S
C132 H152 0.932 . S
C133 C131 1.408 . S
C133 C132 1.310 . S
C133 H153 0.930 . S
C134 C135 1.474 . S
C134 C136 1.285 . S
C134 H154 0.929 . S
C135 C132 1.461 . S
C135 C134 1.474 . S
C136 C131 1.342 . S
C136 C134 1.285 . S
C136 H155 0.930 . S
C137 C140 1.424 . S
C137 C142 1.245 . S
C137 C143 1.428 . S
C138 C141 1.260 . S
C138 C142 1.477 . S
C138 H156 0.932 . S
C139 C140 1.384 . S
C139 C141 1.479 . S
C139 H157 0.929 . S
C140 C137 1.424 . S
C140 C139 1.384 . S
C140 H158 0.928 . S
C141 C138 1.260 . S
C141 C139 1.479 . S
C142 C137 1.245 . S
C142 C138 1.477 . S
C142 H159 0.932 . S
C143 U126 2.882 . S
C143 C137 1.428 . S
C143 O146 1.301 . S
C143 O147 1.282 . S
O144 U126 2.441 . S
O144 C130 1.249 . S
O145 U126 2.420 . S
O145 C130 1.202 . S
O146 U126 2.455 . S
O146 C143 1.301 . S
O147 U126 2.449 . S
O147 C143 1.282 . S
H148 C121 0.931 . S
H149 C123 0.929 . S
H150 C124 0.930 . S
H151 C125 0.931 . S
H152 C132 0.932 . S
H153 C133 0.930 . S
H154 C134 0.929 . S
H155 C136 0.930 . S
H156 C138 0.932 . S
H157 C139 0.929 . S
H158 C140 0.928 . S
H159 C142 0.932 . S
C160 C161 1.264 . S
C160 C165 1.479 . S
C160 C170 1.465 . S
C161 C160 1.264 . S
C161 C163 1.339 1_655 S
C161 H188 0.931 . S
C162 C163 1.395 1_655 S
C162 C164 1.320 . S
C163 C161 1.339 1_455 S
C163 C162 1.395 1_455 S
C163 H189 0.929 . S
C164 C162 1.320 . S
C164 C165 1.405 . S
C164 H190 0.930 1_556 S
C165 C160 1.479 . S
C165 C164 1.405 . S
C165 H191 0.931 . S
U166 O167 2.454 . S
U166 O168 2.458 . S
U166 C169 2.984 . S
U166 C170 2.847 . S
U166 C183 2.882 . S
U166 O184 2.441 . S
U166 O185 2.420 . S
U166 O186 2.455 . S
U166 O187 2.449 . S
O167 U166 2.454 . S
O167 C169 1.353 . S
O168 U166 2.458 . S
O168 C169 1.286 . S
C169 U166 2.984 . S
C169 O167 1.353 . S
C169 O168 1.286 . S
C169 C171 1.363 . S
C170 C160 1.465 . S
C170 U166 2.847 . S
C170 O184 1.249 . S
C170 O185 1.202 . S
C171 C169 1.363 . S
C171 C173 1.408 . S
C171 C176 1.342 . S
C172 C173 1.310 1_554 S
C172 C175 1.461 1_554 S
C172 H192 0.932 . S
C173 C171 1.408 . S
C173 C172 1.310 1_556 S
C173 H193 0.930 . S
C174 C175 1.479 . S
C174 C176 1.292 . S
C174 H194 0.918 1_565 S
C175 C172 1.461 1_556 S
C175 C174 1.479 . S
C176 C171 1.342 . S
C176 C174 1.292 . S
C176 H195 0.930 . S
C177 C180 1.424 . S
C177 C182 1.245 . S
C177 C183 1.428 . S
C178 C181 1.260 . S
C178 C182 1.477 . S
C178 H196 0.932 1_565 S
C179 C180 1.384 . S
C179 C181 1.479 . S
C179 H197 0.929 1_655 S
C180 C177 1.424 . S
C180 C179 1.384 . S
C180 H198 0.928 . S
C181 C178 1.260 . S
C181 C179 1.479 . S
C182 C177 1.245 . S
C182 C178 1.477 . S
C182 H199 0.932 . S
C183 U166 2.882 . S
C183 C177 1.428 . S
C183 O186 1.301 . S
C183 O187 1.282 . S
O184 U166 2.441 . S
O184 C170 1.249 . S
O185 U166 2.420 . S
O185 C170 1.202 . S
O186 U166 2.455 . S
O186 C183 1.301 . S
O187 U166 2.449 . S
O187 C183 1.282 . S
H188 C161 0.931 . S
H189 C163 0.929 . S
H190 C164 0.930 1_554 S
H191 C165 0.931 . S
H192 C172 0.932 . S
H193 C173 0.930 . S
H194 C174 0.918 1_545 S
H195 C176 0.930 . S
H196 C178 0.932 1_545 S
H197 C179 0.929 1_455 S
H198 C180 0.928 . S
H199 C182 0.932 . S
C200 C201 1.264 . S
C200 C205 1.479 . S
C200 C210 1.465 . S
C201 C200 1.264 . S
C201 C203 1.339 . S
C201 H228 0.931 . S
C202 C203 1.395 . S
C202 C204 1.320 . S
C203 C201 1.339 . S
C203 C202 1.395 . S
C203 H229 0.929 . S
C204 C202 1.320 . S
C204 C205 1.405 . S
C204 H230 0.930 . S
C205 C200 1.479 . S
C205 C204 1.405 . S
C205 H231 0.931 . S
U206 O207 2.454 . S
U206 O208 2.458 . S
U206 C209 2.984 . S
U206 C210 2.847 . S
U206 C223 2.882 . S
U206 O224 2.441 . S
U206 O225 2.420 . S
U206 O226 2.455 . S
U206 O227 2.449 . S
O207 U206 2.454 . S
O207 C209 1.353 . S
O208 U206 2.458 . S
O208 C209 1.286 . S
C209 U206 2.984 . S
C209 O207 1.353 . S
C209 O208 1.286 . S
C209 C211 1.363 . S
C210 C200 1.465 . S
C210 U206 2.847 . S
C210 O224 1.249 . S
C210 O225 1.202 . S
C211 C209 1.363 . S
C211 C213 1.408 . S
C211 C216 1.342 . S
C212 C213 1.310 . S
C212 C215 1.461 . S
C212 H232 0.932 . S
C213 C211 1.408 . S
C213 C212 1.310 . S
C213 H233 0.930 . S
C214 C215 1.474 . S
C214 C216 1.285 . S
C214 H234 0.929 . S
C215 C212 1.461 . S
C215 C214 1.474 . S
C216 C211 1.342 . S
C216 C214 1.285 . S
C216 H235 0.930 . S
C217 C220 1.424 . S
C217 C222 1.245 . S
C217 C223 1.428 . S
C218 C221 1.260 . S
C218 C222 1.477 . S
C218 H236 0.932 . S
C219 C220 1.384 . S
C219 C221 1.479 . S
C219 H237 0.929 . S
C220 C217 1.424 . S
C220 C219 1.384 . S
C220 H238 0.928 . S
C221 C218 1.260 . S
C221 C219 1.479 . S
C222 C217 1.245 . S
C222 C218 1.477 . S
C222 H239 0.932 . S
C223 U206 2.882 . S
C223 C217 1.428 . S
C223 O226 1.301 . S
C223 O227 1.282 . S
O224 U206 2.441 . S
O224 C210 1.249 . S
O225 U206 2.420 . S
O225 C210 1.202 . S
O226 U206 2.455 . S
O226 C223 1.301 . S
O227 U206 2.449 . S
O227 C223 1.282 . S
H228 C201 0.931 . S
H229 C203 0.929 . S
H230 C204 0.930 . S
H231 C205 0.931 . S
H232 C212 0.932 . S
H233 C213 0.930 . S
H234 C214 0.929 . S
H235 C216 0.930 . S
H236 C218 0.932 . S
H237 C219 0.929 . S
H238 C220 0.928 . S
H239 C222 0.932 . S
C240 C241 1.264 . S
C240 C245 1.479 . S
C240 C250 1.465 . S
C241 C240 1.264 . S
C241 C243 1.339 . S
C241 H268 0.931 . S
C242 C243 1.395 . S
C242 C244 1.320 . S
C243 C241 1.339 . S
C243 C242 1.395 . S
C243 H269 0.929 . S
C244 C242 1.320 . S
C244 C245 1.405 . S
C244 H270 0.930 . S
C245 C240 1.479 . S
C245 C244 1.405 . S
C245 H271 0.931 . S
U246 O247 2.454 . S
U246 O248 2.458 . S
U246 C249 2.984 . S
U246 C250 2.847 . S
U246 C263 2.882 . S
U246 O264 2.441 . S
U246 O265 2.420 . S
U246 O266 2.455 . S
U246 O267 2.449 . S
O247 U246 2.454 . S
O247 C249 1.353 . S
O248 U246 2.458 . S
O248 C249 1.286 . S
C249 U246 2.984 . S
C249 O247 1.353 . S
C249 O248 1.286 . S
C249 C251 1.363 . S
C250 C240 1.465 . S
C250 U246 2.847 . S
C250 O264 1.249 . S
C250 O265 1.202 . S
C251 C249 1.363 . S
C251 C253 1.408 . S
C251 C256 1.342 . S
C252 C253 1.310 . S
C252 C255 1.461 . S
C252 H272 0.932 . S
C253 C251 1.408 . S
C253 C252 1.310 . S
C253 H273 0.930 . S
C254 C255 1.474 . S
C254 C256 1.285 . S
C254 H274 0.929 . S
C255 C252 1.461 . S
C255 C254 1.474 . S
C256 C251 1.342 . S
C256 C254 1.285 . S
C256 H275 0.930 . S
C257 C260 1.424 . S
C257 C262 1.245 . S
C257 C263 1.428 . S
C258 C261 1.260 . S
C258 C262 1.477 . S
C258 H276 0.932 . S
C259 C260 1.384 . S
C259 C261 1.479 . S
C259 H277 0.929 . S
C260 C257 1.424 . S
C260 C259 1.384 . S
C260 H278 0.928 . S
C261 C258 1.260 . S
C261 C259 1.479 . S
C262 C257 1.245 . S
C262 C258 1.477 . S
C262 H279 0.932 . S
C263 U246 2.882 . S
C263 C257 1.428 . S
C263 O266 1.301 . S
C263 O267 1.282 . S
O264 U246 2.441 . S
O264 C250 1.249 . S
O265 U246 2.420 . S
O265 C250 1.202 . S
O266 U246 2.455 . S
O266 C263 1.301 . S
O267 U246 2.449 . S
O267 C263 1.282 . S
H268 C241 0.931 . S
H269 C243 0.929 . S
H270 C244 0.930 . S
H271 C245 0.931 . S
H272 C252 0.932 . S
H273 C253 0.930 . S
H274 C254 0.929 . S
H275 C256 0.930 . S
H276 C258 0.932 . S
H277 C259 0.929 . S
H278 C260 0.928 . S
H279 C262 0.932 . S
C280 C281 1.264 . S
C280 C285 1.479 . S
C280 C290 1.465 . S
C281 C280 1.264 . S
C281 C283 1.339 . S
C281 H308 0.931 . S
C282 C283 1.395 . S
C282 C284 1.320 . S
C283 C281 1.339 . S
C283 C282 1.395 . S
C283 H309 0.929 . S
C284 C282 1.320 . S
C284 C285 1.405 . S
C284 H310 0.930 . S
C285 C280 1.479 . S
C285 C284 1.405 . S
C285 H311 0.931 . S
U286 O287 2.454 . S
U286 O288 2.458 . S
U286 C289 2.984 . S
U286 C290 2.847 . S
U286 C303 2.882 . S
U286 O304 2.441 . S
U286 O305 2.420 . S
U286 O306 2.455 . S
U286 O307 2.449 . S
O287 U286 2.454 . S
O287 C289 1.353 . S
O288 U286 2.458 . S
O288 C289 1.286 . S
C289 U286 2.984 . S
C289 O287 1.353 . S
C289 O288 1.286 . S
C289 C291 1.363 . S
C290 C280 1.465 . S
C290 U286 2.847 . S
C290 O304 1.249 . S
C290 O305 1.202 . S
C291 C289 1.363 . S
C291 C293 1.408 . S
C291 C296 1.342 . S
C292 C293 1.310 . S
C292 C295 1.461 . S
C292 H312 0.932 . S
C293 C291 1.408 . S
C293 C292 1.310 . S
C293 H313 0.930 . S
C294 C295 1.474 . S
C294 C296 1.285 . S
C294 H314 0.929 . S
C295 C292 1.461 . S
C295 C294 1.474 . S
C296 C291 1.342 . S
C296 C294 1.285 . S
C296 H315 0.930 . S
C297 C300 1.424 . S
C297 C302 1.245 . S
C297 C303 1.428 . S
C298 C301 1.260 . S
C298 C302 1.477 . S
C298 H316 0.932 . S
C299 C300 1.384 . S
C299 C301 1.479 . S
C299 H317 0.929 . S
C300 C297 1.424 . S
C300 C299 1.384 . S
C300 H318 0.928 . S
C301 C298 1.260 . S
C301 C299 1.479 . S
C302 C297 1.245 . S
C302 C298 1.477 . S
C302 H319 0.932 . S
C303 U286 2.882 . S
C303 C297 1.428 . S
C303 O306 1.301 . S
C303 O307 1.282 . S
O304 U286 2.441 . S
O304 C290 1.249 . S
O305 U286 2.420 . S
O305 C290 1.202 . S
O306 U286 2.455 . S
O306 C303 1.301 . S
O307 U286 2.449 . S
O307 C303 1.282 . S
H308 C281 0.931 . S
H309 C283 0.929 . S
H310 C284 0.930 . S
H311 C285 0.931 . S
H312 C292 0.932 . S
H313 C293 0.930 . S
H314 C294 0.929 . S
H315 C296 0.930 . S
H316 C298 0.932 . S
H317 C299 0.929 . S
H318 C300 0.928 . S
H319 C302 0.932 . S
Zn320 O326 1.920 . S
Zn320 O332 1.898 . S
Zn320 O335 1.905 . S
Zn321 O329 1.905 1_565 S
Zn321 O330 1.898 . S
Zn321 O338 1.920 . S
Zn322 O325 2.080 1_455 S
Zn322 O328 2.114 . S
Zn322 O331 2.120 1_445 S
Zn322 O333 2.120 . S
Zn322 O334 2.114 1_455 S
Zn322 O337 2.080 . S
C323 O328 1.166 . S
C323 O329 1.182 . S
C324 O330 1.167 1_655 S
C324 O331 1.299 . S
O325 Zn322 2.080 1_655 S
O325 C339 1.305 . S
O326 Zn320 1.920 . S
O326 C339 1.234 . S
C327 O332 1.167 1_455 S
C327 O333 1.299 . S
O328 Zn322 2.114 . S
O328 C323 1.166 . S
O329 Zn321 1.905 1_545 S
O329 C323 1.182 . S
O330 Zn321 1.898 . S
O330 C324 1.167 1_455 S
O331 Zn322 2.120 1_665 S
O331 C324 1.299 . S
O332 Zn320 1.898 . S
O332 C327 1.167 1_655 S
O333 Zn322 2.120 . S
O333 C327 1.299 . S
O334 Zn322 2.114 1_655 S
O334 C336 1.166 . S
O335 Zn320 1.905 . S
O335 C336 1.182 . S
C336 O334 1.166 . S
C336 O335 1.182 . S
O337 Zn322 2.080 . S
O337 C340 1.305 1_545 S
O338 Zn321 1.920 . S
O338 C340 1.234 . S
C339 O325 1.305 . S
C339 O326 1.234 . S
C340 O337 1.305 1_565 S
C340 O338 1.234 . S
Zn341 O347 1.920 1_556 S
Zn341 O353 1.898 . S
Zn341 O356 1.905 . S
Zn342 O350 1.905 . S
Zn342 O351 1.898 . S
Zn342 O359 1.920 . S
Zn343 O346 2.080 . S
Zn343 O349 2.114 1_545 S
Zn343 O352 2.120 1_545 S
Zn343 O354 2.120 . S
Zn343 O355 2.114 1_544 S
Zn343 O358 2.080 . S
C344 O349 1.166 . S
C344 O350 1.182 . S
C345 O351 1.167 . S
C345 O352 1.299 . S
O346 Zn343 2.080 . S
O346 C360 1.305 . S
O347 Zn341 1.920 1_554 S
O347 C360 1.234 . S
C348 O353 1.167 . S
C348 O354 1.299 1_556 S
O349 Zn343 2.114 1_565 S
O349 C344 1.166 . S
O350 Zn342 1.905 . S
O350 C344 1.182 . S
O351 Zn342 1.898 . S
O351 C345 1.167 . S
O352 Zn343 2.120 1_565 S
O352 C345 1.299 . S
O353 Zn341 1.898 . S
O353 C348 1.167 . S
O354 Zn343 2.120 . S
O354 C348 1.299 1_554 S
O355 Zn343 2.114 1_566 S
O355 C357 1.166 . S
O356 Zn341 1.905 . S
O356 C357 1.182 1_545 S
C357 O355 1.166 . S
C357 O356 1.182 1_565 S
O358 Zn343 2.080 . S
O358 C361 1.305 . S
O359 Zn342 1.920 . S
O359 C361 1.234 1_565 S
C360 O346 1.305 . S
C360 O347 1.234 . S
C361 O358 1.305 . S
C361 O359 1.234 1_545 S
Zn362 O368 1.920 . S
Zn362 O374 1.898 . S
Zn362 O377 1.905 . S
Zn363 O371 1.905 . S
Zn363 O372 1.898 . S
Zn363 O380 1.920 . S
Zn364 O367 2.080 . S
Zn364 O370 2.114 . S
Zn364 O373 2.120 . S
Zn364 O375 2.120 . S
Zn364 O376 2.114 . S
Zn364 O379 2.080 . S
C365 O370 1.166 . S
C365 O371 1.182 . S
C366 O372 1.167 . S
C366 O373 1.299 . S
O367 Zn364 2.080 . S
O367 C381 1.305 . S
O368 Zn362 1.920 . S
O368 C381 1.234 . S
C369 O374 1.167 . S
C369 O375 1.299 . S
O370 Zn364 2.114 . S
O370 C365 1.166 . S
O371 Zn363 1.905 . S
O371 C365 1.182 . S
O372 Zn363 1.898 . S
O372 C366 1.167 . S
O373 Zn364 2.120 . S
O373 C366 1.299 . S
O374 Zn362 1.898 . S
O374 C369 1.167 . S
O375 Zn364 2.120 . S
O375 C369 1.299 . S
O376 Zn364 2.114 . S
O376 C378 1.166 . S
O377 Zn362 1.905 . S
O377 C378 1.182 . S
C378 O376 1.166 . S
C378 O377 1.182 . S
O379 Zn364 2.080 . S
O379 C382 1.305 . S
O380 Zn363 1.920 . S
O380 C382 1.234 . S
C381 O367 1.305 . S
C381 O368 1.234 . S
C382 O379 1.305 . S
C382 O380 1.234 . S
Zn383 O389 1.920 . S
Zn383 O395 1.898 . S
Zn383 O398 1.905 . S
Zn384 O392 1.905 1_655 S
Zn384 O393 1.898 . S
Zn384 O401 1.920 . S
Zn385 O388 2.080 1_554 S
Zn385 O391 2.114 . S
Zn385 O394 2.120 1_454 S
Zn385 O396 2.120 . S
Zn385 O397 2.114 1_554 S
Zn385 O400 2.080 . S
C386 O391 1.166 . S
C386 O392 1.182 . S
C387 O393 1.167 1_556 S
C387 O394 1.299 . S
O388 Zn385 2.080 1_556 S
O388 C402 1.305 . S
O389 Zn383 1.920 . S
O389 C402 1.234 . S
C390 O395 1.167 1_554 S
C390 O396 1.299 . S
O391 Zn385 2.114 . S
O391 C386 1.166 . S
O392 Zn384 1.905 1_455 S
O392 C386 1.182 . S
O393 Zn384 1.898 . S
O393 C387 1.167 1_554 S
O394 Zn385 2.120 1_656 S
O394 C387 1.299 . S
O395 Zn383 1.898 . S
O395 C390 1.167 1_556 S
O396 Zn385 2.120 . S
O396 C390 1.299 . S
O397 Zn385 2.114 1_556 S
O397 C399 1.166 . S
O398 Zn383 1.905 . S
O398 C399 1.182 . S
C399 O397 1.166 . S
C399 O398 1.182 . S
O400 Zn385 2.080 . S
O400 C403 1.305 1_455 S
O401 Zn384 1.920 . S
O401 C403 1.234 . S
C402 O388 1.305 . S
C402 O389 1.234 . S
C403 O400 1.305 1_655 S
C403 O401 1.234 . S
H404 C416 0.930 . S
H405 C418 0.930 . S
H406 C419 0.930 . S
H407 C423 0.959 . S
H408 C423 0.959 . S
H409 C423 0.961 . S
H410 C424 0.960 . S
H411 C424 0.961 . S
H412 C424 0.959 . S
H413 C427 0.929 . S
H414 C428 0.931 . S
H415 C430 0.930 . S
C416 H404 0.930 . S
C416 C417 1.399 . S
C416 C421 1.399 . S
C417 C416 1.399 . S
C417 C418 1.376 . S
C418 H405 0.930 . S
C418 C417 1.376 . S
C418 C419 1.388 . S
C419 H406 0.930 . S
C419 C418 1.388 . S
C419 C420 1.390 . S
C420 C419 1.390 . S
C420 C421 1.394 . S
C420 C426 1.465 . S
C421 C416 1.399 . S
C421 C420 1.394 . S
C421 C422 1.516 . S
C422 C421 1.516 . S
C422 C423 1.502 . S
C422 C424 1.561 . S
C422 C425 1.526 . S
C423 H407 0.959 . S
C423 H408 0.959 . S
C423 H409 0.961 . S
C423 C422 1.502 . S
C424 H410 0.960 . S
C424 H411 0.961 . S
C424 H412 0.959 . S
C424 C422 1.561 . S
C425 C422 1.526 . S
C425 C426 1.396 . S
C425 C430 1.390 . S
C426 C420 1.465 . S
C426 C425 1.396 . S
C426 C427 1.399 . S
C427 H413 0.929 . S
C427 C426 1.399 . S
C427 C428 1.385 . S
C428 H414 0.931 . S
C428 C427 1.385 . S
C428 C429 1.389 . S
C429 C428 1.389 . S
C429 C430 1.387 . S
C430 H415 0.930 . S
C430 C425 1.390 . S
C430 C429 1.387 . S
H431 C443 0.930 . S
H432 C445 0.930 . S
H433 C446 0.930 . S
H434 C450 0.959 . S
H435 C450 0.959 . S
H436 C450 0.961 . S
H437 C451 0.960 . S
H438 C451 0.961 1_545 S
H439 C451 0.959 . S
H440 C454 0.929 . S
H441 C455 0.931 . S
H442 C457 0.930 . S
C443 H431 0.930 . S
C443 C444 1.399 . S
C443 C448 1.399 . S
C444 C443 1.399 . S
C444 C445 1.376 . S
C445 H432 0.930 . S
C445 C444 1.376 . S
C445 C446 1.388 . S
C446 H433 0.930 . S
C446 C445 1.388 . S
C446 C447 1.390 . S
C447 C446 1.390 . S
C447 C448 1.394 . S
C447 C453 1.465 . S
C448 C443 1.399 . S
C448 C447 1.394 . S
C448 C449 1.516 . S
C449 C448 1.516 . S
C449 C450 1.502 . S
C449 C451 1.561 . S
C449 C452 1.526 . S
C450 H434 0.959 . S
C450 H435 0.959 . S
C450 H436 0.961 . S
C450 C449 1.502 . S
C451 H437 0.960 . S
C451 H438 0.961 1_565 S
C451 H439 0.959 . S
C451 C449 1.561 . S
C452 C449 1.526 . S
C452 C453 1.396 . S
C452 C457 1.390 . S
C453 C447 1.465 . S
C453 C452 1.396 . S
C453 C454 1.399 . S
C454 H440 0.929 . S
C454 C453 1.399 . S
C454 C455 1.385 . S
C455 H441 0.931 . S
C455 C454 1.385 . S
C455 C456 1.389 . S
C456 C455 1.389 . S
C456 C457 1.387 . S
C457 H442 0.930 . S
C457 C452 1.390 . S
C457 C456 1.387 . S
H458 C470 0.930 . S
H459 C472 0.930 . S
H460 C473 0.930 . S
H461 C477 0.959 . S
H462 C477 0.959 . S
H463 C477 0.961 . S
H464 C478 0.960 . S
H465 C478 0.961 . S
H466 C478 0.959 . S
H467 C481 0.929 . S
H468 C482 0.931 . S
H469 C484 0.930 . S
C470 H458 0.930 . S
C470 C471 1.399 . S
C470 C475 1.399 . S
C471 C470 1.399 . S
C471 C472 1.376 . S
C472 H459 0.930 . S
C472 C471 1.376 . S
C472 C473 1.388 . S
C473 H460 0.930 . S
C473 C472 1.388 . S
C473 C474 1.390 . S
C474 C473 1.390 . S
C474 C475 1.394 . S
C474 C480 1.465 . S
C475 C470 1.399 . S
C475 C474 1.394 . S
C475 C476 1.516 . S
C476 C475 1.516 . S
C476 C477 1.502 . S
C476 C478 1.561 . S
C476 C479 1.526 . S
C477 H461 0.959 . S
C477 H462 0.959 . S
C477 H463 0.961 . S
C477 C476 1.502 . S
C478 H464 0.960 . S
C478 H465 0.961 . S
C478 H466 0.959 . S
C478 C476 1.561 . S
C479 C476 1.526 . S
C479 C480 1.396 . S
C479 C484 1.390 . S
C480 C474 1.465 . S
C480 C479 1.396 . S
C480 C481 1.399 . S
C481 H467 0.929 . S
C481 C480 1.399 . S
C481 C482 1.385 . S
C482 H468 0.931 . S
C482 C481 1.385 . S
C482 C483 1.389 . S
C483 C482 1.389 . S
C483 C484 1.387 . S
C484 H469 0.930 . S
C484 C479 1.390 . S
C484 C483 1.387 . S
H485 C497 0.930 . S
H486 C499 0.930 . S
H487 C500 0.930 . S
H488 C504 0.959 . S
H489 C504 0.959 . S
H490 C504 0.961 . S
H491 C505 0.960 . S
H492 C505 0.961 . S
H493 C505 0.959 . S
H494 C508 0.929 . S
H495 C509 0.931 . S
H496 C511 0.930 . S
C497 H485 0.930 . S
C497 C498 1.399 . S
C497 C502 1.399 . S
C498 C497 1.399 . S
C498 C499 1.376 . S
C499 H486 0.930 . S
C499 C498 1.376 . S
C499 C500 1.388 . S
C500 H487 0.930 . S
C500 C499 1.388 . S
C500 C501 1.390 . S
C501 C500 1.390 . S
C501 C502 1.394 . S
C501 C507 1.465 . S
C502 C497 1.399 . S
C502 C501 1.394 . S
C502 C503 1.516 . S
C503 C502 1.516 . S
C503 C504 1.502 . S
C503 C505 1.561 . S
C503 C506 1.526 . S
C504 H488 0.959 . S
C504 H489 0.959 . S
C504 H490 0.961 . S
C504 C503 1.502 . S
C505 H491 0.960 . S
C505 H492 0.961 . S
C505 H493 0.959 . S
C505 C503 1.561 . S
C506 C503 1.526 . S
C506 C507 1.396 . S
C506 C511 1.390 . S
C507 C501 1.465 . S
C507 C506 1.396 . S
C507 C508 1.399 . S
C508 H494 0.929 . S
C508 C507 1.399 . S
C508 C509 1.385 . S
C509 H495 0.931 . S
C509 C508 1.385 . S
C509 C510 1.389 . S
C510 C509 1.389 . S
C510 C511 1.387 . S
C511 H496 0.930 . S
C511 C506 1.390 . S
C511 C510 1.387 . S
H512 C524 0.930 . S
H513 C526 0.930 . S
H514 C527 0.930 . S
H515 C531 0.959 . S
H516 C531 0.959 . S
H517 C531 0.961 . S
H518 C532 0.960 . S
H519 C532 0.961 . S
H520 C532 0.959 . S
H521 C535 0.929 . S
H522 C536 0.931 . S
H523 C538 0.930 . S
C524 H512 0.930 . S
C524 C525 1.399 . S
C524 C529 1.399 . S
C525 C524 1.399 . S
C525 C526 1.376 . S
C526 H513 0.930 . S
C526 C525 1.376 . S
C526 C527 1.388 . S
C527 H514 0.930 . S
C527 C526 1.388 . S
C527 C528 1.390 . S
C528 C527 1.390 . S
C528 C529 1.394 . S
C528 C534 1.465 . S
C529 C524 1.399 . S
C529 C528 1.394 . S
C529 C530 1.516 . S
C530 C529 1.516 . S
C530 C531 1.502 . S
C530 C532 1.561 . S
C530 C533 1.526 . S
C531 H515 0.959 . S
C531 H516 0.959 . S
C531 H517 0.961 . S
C531 C530 1.502 . S
C532 H518 0.960 . S
C532 H519 0.961 . S
C532 H520 0.959 . S
C532 C530 1.561 . S
C533 C530 1.526 . S
C533 C534 1.396 . S
C533 C538 1.390 . S
C534 C528 1.465 . S
C534 C533 1.396 . S
C534 C535 1.399 . S
C535 H521 0.929 . S
C535 C534 1.399 . S
C535 C536 1.385 . S
C536 H522 0.931 . S
C536 C535 1.385 . S
C536 C537 1.389 . S
C537 C536 1.389 . S
C537 C538 1.387 . S
C538 H523 0.930 . S
C538 C533 1.390 . S
C538 C537 1.387 . S
H539 C551 0.930 . S
H540 C553 0.930 . S
H541 C554 0.930 . S
H542 C558 0.959 . S
H543 C558 0.959 . S
H544 C558 0.961 . S
H545 C559 0.960 . S
H546 C559 0.957 1_545 S
H547 C559 0.959 1_545 S
H548 C562 0.929 . S
H549 C563 0.931 . S
H550 C565 0.930 . S
C551 H539 0.930 . S
C551 C552 1.399 . S
C551 C556 1.399 . S
C552 C551 1.399 . S
C552 C553 1.376 . S
C553 H540 0.930 . S
C553 C552 1.376 . S
C553 C554 1.388 . S
C554 H541 0.930 . S
C554 C553 1.388 . S
C554 C555 1.390 . S
C555 C554 1.390 . S
C555 C556 1.394 . S
C555 C561 1.465 . S
C556 C551 1.399 . S
C556 C555 1.394 . S
C556 C557 1.516 . S
C557 C556 1.516 . S
C557 C558 1.502 . S
C557 C559 1.561 . S
C557 C560 1.526 . S
C558 H542 0.959 . S
C558 H543 0.959 . S
C558 H544 0.961 . S
C558 C557 1.502 . S
C559 H545 0.960 . S
C559 H546 0.957 1_565 S
C559 H547 0.959 1_565 S
C559 C557 1.561 . S
C560 C557 1.526 . S
C560 C561 1.396 . S
C560 C565 1.390 . S
C561 C555 1.465 . S
C561 C560 1.396 . S
C561 C562 1.399 . S
C562 H548 0.929 . S
C562 C561 1.399 . S
C562 C563 1.385 . S
C563 H549 0.931 . S
C563 C562 1.385 . S
C563 C564 1.389 . S
C564 C563 1.389 . S
C564 C565 1.387 . S
C565 H550 0.930 . S
C565 C560 1.390 . S
C565 C564 1.387 . S
H566 C578 0.930 . S
H567 C580 0.930 . S
H568 C581 0.930 . S
H569 C585 0.959 . S
H570 C585 0.959 . S
H571 C585 0.961 . S
H572 C586 0.960 . S
H573 C586 0.961 . S
H574 C586 0.959 . S
H575 C589 0.929 . S
H576 C590 0.931 . S
H577 C592 0.930 . S
C578 H566 0.930 . S
C578 C579 1.399 . S
C578 C583 1.399 . S
C579 C578 1.399 . S
C579 C580 1.376 . S
C580 H567 0.930 . S
C580 C579 1.376 . S
C580 C581 1.388 . S
C581 H568 0.930 . S
C581 C580 1.388 . S
C581 C582 1.390 . S
C582 C581 1.390 . S
C582 C583 1.394 . S
C582 C588 1.465 . S
C583 C578 1.399 . S
C583 C582 1.394 . S
C583 C584 1.516 . S
C584 C583 1.516 . S
C584 C585 1.502 . S
C584 C586 1.561 . S
C584 C587 1.526 . S
C585 H569 0.959 . S
C585 H570 0.959 . S
C585 H571 0.961 . S
C585 C584 1.502 . S
C586 H572 0.960 . S
C586 H573 0.961 . S
C586 H574 0.959 . S
C586 C584 1.561 . S
C587 C584 1.526 . S
C587 C588 1.396 . S
C587 C592 1.390 . S
C588 C582 1.465 . S
C588 C587 1.396 . S
C588 C589 1.399 . S
C589 H575 0.929 . S
C589 C588 1.399 . S
C589 C590 1.385 . S
C590 H576 0.931 . S
C590 C589 1.385 . S
C590 C591 1.389 . S
C591 C590 1.389 . S
C591 C592 1.387 . S
C592 H577 0.930 . S
C592 C587 1.390 . S
C592 C591 1.387 . S
H593 C605 0.930 . S
H594 C607 0.930 . S
H595 C608 0.930 . S
H596 C612 0.959 . S
H597 C612 0.959 . S
H598 C612 0.961 . S
H599 C613 0.960 . S
H600 C613 0.961 . S
H601 C613 0.959 . S
H602 C616 0.929 . S
H603 C617 0.931 . S
H604 C619 0.930 . S
C605 H593 0.930 . S
C605 C606 1.399 . S
C605 C610 1.399 . S
C606 C605 1.399 . S
C606 C607 1.376 . S
C607 H594 0.930 . S
C607 C606 1.376 . S
C607 C608 1.388 . S
C608 H595 0.930 . S
C608 C607 1.388 . S
C608 C609 1.390 . S
C609 C608 1.390 . S
C609 C610 1.394 . S
C609 C615 1.465 . S
C610 C605 1.399 . S
C610 C609 1.394 . S
C610 C611 1.516 . S
C611 C610 1.516 . S
C611 C612 1.502 . S
C611 C613 1.561 . S
C611 C614 1.526 . S
C612 H596 0.959 . S
C612 H597 0.959 . S
C612 H598 0.961 . S
C612 C611 1.502 . S
C613 H599 0.960 . S
C613 H600 0.961 . S
C613 H601 0.959 . S
C613 C611 1.561 . S
C614 C611 1.526 . S
C614 C615 1.396 . S
C614 C619 1.390 . S
C615 C609 1.465 . S
C615 C614 1.396 . S
C615 C616 1.399 . S
C616 H602 0.929 . S
C616 C615 1.399 . S
C616 C617 1.385 . S
C617 H603 0.931 . S
C617 C616 1.385 . S
C617 C618 1.389 . S
C618 C617 1.389 . S
C618 C619 1.387 . S
C619 H604 0.930 . S
C619 C614 1.390 . S
C619 C618 1.387 . S
H620 C632 0.930 . S
H621 C634 0.930 . S
H622 C635 0.930 . S
H623 C639 0.959 . S
H624 C639 0.959 . S
H625 C639 0.961 . S
H626 C640 0.960 . S
H627 C640 0.961 . S
H628 C640 0.959 . S
H629 C643 0.929 . S
H630 C644 0.931 . S
H631 C646 0.930 . S
C632 H620 0.930 . S
C632 C633 1.399 . S
C632 C637 1.399 . S
C633 C632 1.399 . S
C633 C634 1.376 . S
C634 H621 0.930 . S
C634 C633 1.376 . S
C634 C635 1.388 . S
C635 H622 0.930 . S
C635 C634 1.388 . S
C635 C636 1.390 . S
C636 C635 1.390 . S
C636 C637 1.394 . S
C636 C642 1.465 . S
C637 C632 1.399 . S
C637 C636 1.394 . S
C637 C638 1.516 . S
C638 C637 1.516 . S
C638 C639 1.502 . S
C638 C640 1.561 . S
C638 C641 1.526 . S
C639 H623 0.959 . S
C639 H624 0.959 . S
C639 H625 0.961 . S
C639 C638 1.502 . S
C640 H626 0.960 . S
C640 H627 0.961 . S
C640 H628 0.959 . S
C640 C638 1.561 . S
C641 C638 1.526 . S
C641 C642 1.396 . S
C641 C646 1.390 . S
C642 C636 1.465 . S
C642 C641 1.396 . S
C642 C643 1.399 . S
C643 H629 0.929 . S
C643 C642 1.399 . S
C643 C644 1.385 . S
C644 H630 0.931 . S
C644 C643 1.385 . S
C644 C645 1.389 . S
C645 C644 1.389 . S
C645 C646 1.387 . S
C646 H631 0.930 . S
C646 C641 1.390 . S
C646 C645 1.387 . S
H647 C659 0.930 . S
H648 C661 0.930 . S
H649 C662 0.930 . S
H650 C666 0.959 . S
H651 C666 0.959 . S
H652 C666 0.961 . S
H653 C667 0.960 . S
H654 C667 0.961 1_554 S
H655 C667 0.959 . S
H656 C670 0.929 . S
H657 C671 0.931 . S
H658 C673 0.930 1_554 S
C659 H647 0.930 . S
C659 C660 1.399 . S
C659 C664 1.399 . S
C660 C659 1.399 . S
C660 C661 1.376 . S
C661 H648 0.930 . S
C661 C660 1.376 . S
C661 C662 1.388 . S
C662 H649 0.930 . S
C662 C661 1.388 . S
C662 C663 1.390 . S
C663 C662 1.390 . S
C663 C664 1.394 . S
C663 C669 1.465 . S
C664 C659 1.399 . S
C664 C663 1.394 . S
C664 C665 1.516 . S
C665 C664 1.516 . S
C665 C666 1.502 1_556 S
C665 C667 1.561 . S
C665 C668 1.526 . S
C666 H650 0.959 . S
C666 H651 0.959 . S
C666 H652 0.961 . S
C666 C665 1.502 1_554 S
C667 H653 0.960 . S
C667 H654 0.961 1_556 S
C667 H655 0.959 . S
C667 C665 1.561 . S
C668 C665 1.526 . S
C668 C669 1.396 . S
C668 C673 1.390 . S
C669 C663 1.465 . S
C669 C668 1.396 . S
C669 C670 1.399 . S
C670 H656 0.929 . S
C670 C669 1.399 . S
C670 C671 1.385 . S
C671 H657 0.931 . S
C671 C670 1.385 . S
C671 C672 1.389 . S
C672 C671 1.389 . S
C672 C673 1.387 . S
C673 H658 0.930 1_556 S
C673 C668 1.390 . S
C673 C672 1.387 . S
H674 C686 0.930 . S
H675 C688 0.930 . S
H676 C689 0.930 . S
H677 C693 0.959 . S
H678 C693 0.959 . S
H679 C693 0.961 . S
H680 C694 0.960 . S
H681 C694 0.961 . S
H682 C694 0.959 . S
H683 C697 0.929 . S
H684 C698 0.931 . S
H685 C700 0.930 . S
C686 H674 0.930 . S
C686 C687 1.399 . S
C686 C691 1.399 . S
C687 C686 1.399 . S
C687 C688 1.376 . S
C688 H675 0.930 . S
C688 C687 1.376 . S
C688 C689 1.388 . S
C689 H676 0.930 . S
C689 C688 1.388 . S
C689 C690 1.390 . S
C690 C689 1.390 . S
C690 C691 1.394 . S
C690 C696 1.465 . S
C691 C686 1.399 . S
C691 C690 1.394 . S
C691 C692 1.516 . S
C692 C691 1.516 . S
C692 C693 1.502 . S
C692 C694 1.561 . S
C692 C695 1.526 . S
C693 H677 0.959 . S
C693 H678 0.959 . S
C693 H679 0.961 . S
C693 C692 1.502 . S
C694 H680 0.960 . S
C694 H681 0.961 . S
C694 H682 0.959 . S
C694 C692 1.561 . S
C695 C692 1.526 . S
C695 C696 1.396 . S
C695 C700 1.390 . S
C696 C690 1.465 . S
C696 C695 1.396 . S
C696 C697 1.399 . S
C697 H683 0.929 . S
C697 C696 1.399 . S
C697 C698 1.385 . S
C698 H684 0.931 . S
C698 C697 1.385 . S
C698 C699 1.389 . S
C699 C698 1.389 . S
C699 C700 1.387 . S
C700 H685 0.930 . S
C700 C695 1.390 . S
C700 C699 1.387 . S
H701 C713 0.930 . S
H702 C715 0.930 . S
H703 C716 0.930 . S
H704 C720 0.959 . S
H705 C720 0.959 . S
H706 C720 0.961 . S
H707 C721 0.960 . S
H708 C721 0.961 . S
H709 C721 0.959 . S
H710 C724 0.929 . S
H711 C725 0.931 . S
H712 C727 0.930 . S
C713 H701 0.930 . S
C713 C714 1.399 . S
C713 C718 1.399 . S
C714 C713 1.399 . S
C714 C715 1.376 . S
C715 H702 0.930 . S
C715 C714 1.376 . S
C715 C716 1.388 . S
C716 H703 0.930 . S
C716 C715 1.388 . S
C716 C717 1.390 . S
C717 C716 1.390 . S
C717 C718 1.394 . S
C717 C723 1.465 . S
C718 C713 1.399 . S
C718 C717 1.394 . S
C718 C719 1.516 . S
C719 C718 1.516 . S
C719 C720 1.502 . S
C719 C721 1.561 . S
C719 C722 1.526 . S
C720 H704 0.959 . S
C720 H705 0.959 . S
C720 H706 0.961 . S
C720 C719 1.502 . S
C721 H707 0.960 . S
C721 H708 0.961 . S
C721 H709 0.959 . S
C721 C719 1.561 . S
C722 C719 1.526 . S
C722 C723 1.396 . S
C722 C727 1.390 . S
C723 C717 1.465 . S
C723 C722 1.396 . S
C723 C724 1.399 . S
C724 H710 0.929 . S
C724 C723 1.399 . S
C724 C725 1.385 . S
C725 H711 0.931 . S
C725 C724 1.385 . S
C725 C726 1.389 . S
C726 C725 1.389 . S
C726 C727 1.387 . S
C727 H712 0.930 . S
C727 C722 1.390 . S
C727 C726 1.387 . S
H728 C740 0.930 . S
H729 C742 0.930 . S
H730 C743 0.930 . S
H731 C747 0.959 . S
H732 C747 0.959 . S
H733 C747 0.961 . S
H734 C748 0.960 . S
H735 C748 0.961 . S
H736 C748 0.959 . S
H737 C751 0.929 . S
H738 C752 0.931 . S
H739 C754 0.930 . S
C740 H728 0.930 . S
C740 C741 1.399 1_465 S
C740 C745 1.398 1_455 S
C741 C740 1.399 1_645 S
C741 C742 1.376 . S
C742 H729 0.930 . S
C742 C741 1.376 . S
C742 C743 1.388 . S
C743 H730 0.930 . S
C743 C742 1.388 . S
C743 C744 1.390 . S
C744 C743 1.390 . S
C744 C745 1.397 1_545 S
C744 C750 1.465 . S
C745 C740 1.398 1_655 S
C745 C744 1.397 1_565 S
C745 C746 1.514 1_655 S
C746 C745 1.514 1_455 S
C746 C747 1.502 . S
C746 C748 1.561 1_455 S
C746 C749 1.523 1_455 S
C747 H731 0.959 . S
C747 H732 0.959 . S
C747 H733 0.961 . S
C747 C746 1.502 . S
C748 H734 0.960 . S
C748 H735 0.961 . S
C748 H736 0.959 . S
C748 C746 1.561 1_655 S
C749 C746 1.523 1_655 S
C749 C750 1.400 1_565 S
C749 C754 1.388 1_655 S
C750 C744 1.465 . S
C750 C749 1.400 1_545 S
C750 C751 1.399 . S
C751 H737 0.929 . S
C751 C750 1.399 . S
C751 C752 1.385 . S
C752 H738 0.931 . S
C752 C751 1.385 . S
C752 C753 1.389 . S
C753 C752 1.389 . S
C753 C754 1.387 1_645 S
C754 H739 0.930 . S
C754 C749 1.388 1_455 S
C754 C753 1.387 1_465 S
H755 C767 0.930 1_565 S
H756 C769 0.930 . S
H757 C770 0.930 . S
H758 C774 0.959 1_545 S
H759 C774 0.959 . S
H760 C774 0.961 . S
H761 C775 0.960 . S
H762 C775 0.961 . S
H763 C775 0.959 . S
H764 C778 0.929 . S
H765 C779 0.931 . S
H766 C781 0.930 1_565 S
C767 H755 0.930 1_545 S
C767 C768 1.399 . S
C767 C772 1.399 . S
C768 C767 1.399 . S
C768 C769 1.376 . S
C769 H756 0.930 . S
C769 C768 1.376 . S
C769 C770 1.388 . S
C770 H757 0.930 . S
C770 C769 1.388 . S
C770 C771 1.390 . S
C771 C770 1.390 . S
C771 C772 1.394 . S
C771 C777 1.465 . S
C772 C767 1.399 . S
C772 C771 1.394 . S
C772 C773 1.516 1_545 S
C773 C772 1.516 1_565 S
C773 C774 1.502 . S
C773 C775 1.561 . S
C773 C776 1.526 1_565 S
C774 H758 0.959 1_565 S
C774 H759 0.959 . S
C774 H760 0.961 . S
C774 C773 1.502 . S
C775 H761 0.960 . S
C775 H762 0.961 . S
C775 H763 0.959 . S
C775 C773 1.561 . S
C776 C773 1.526 1_545 S
C776 C777 1.396 . S
C776 C781 1.390 . S
C777 C771 1.465 . S
C777 C776 1.396 . S
C777 C778 1.399 . S
C778 H764 0.929 . S
C778 C777 1.399 . S
C778 C779 1.385 . S
C779 H765 0.931 . S
C779 C778 1.385 . S
C779 C780 1.389 . S
C780 C779 1.389 . S
C780 C781 1.387 . S
C781 H766 0.930 1_545 S
C781 C776 1.390 . S
C781 C780 1.387 . S
H782 C794 0.930 . S
H783 C796 0.930 . S
H784 C797 0.930 . S
H785 C801 0.959 . S
H786 C801 0.959 . S
H787 C801 0.961 . S
H788 C802 0.960 . S
H789 C802 0.961 . S
H790 C802 0.959 . S
H791 C805 0.929 . S
H792 C806 0.931 . S
H793 C808 0.930 . S
C794 H782 0.930 . S
C794 C795 1.399 . S
C794 C799 1.399 . S
C795 C794 1.399 . S
C795 C796 1.376 . S
C796 H783 0.930 . S
C796 C795 1.376 . S
C796 C797 1.388 . S
C797 H784 0.930 . S
C797 C796 1.388 . S
C797 C798 1.390 . S
C798 C797 1.390 . S
C798 C799 1.394 . S
C798 C804 1.465 . S
C799 C794 1.399 . S
C799 C798 1.394 . S
C799 C800 1.516 . S
C800 C799 1.516 . S
C800 C801 1.502 . S
C800 C802 1.561 . S
C800 C803 1.526 . S
C801 H785 0.959 . S
C801 H786 0.959 . S
C801 H787 0.961 . S
C801 C800 1.502 . S
C802 H788 0.960 . S
C802 H789 0.961 . S
C802 H790 0.959 . S
C802 C800 1.561 . S
C803 C800 1.526 . S
C803 C804 1.396 . S
C803 C808 1.390 . S
C804 C798 1.465 . S
C804 C803 1.396 . S
C804 C805 1.399 . S
C805 H791 0.929 . S
C805 C804 1.399 . S
C805 C806 1.385 . S
C806 H792 0.931 . S
C806 C805 1.385 . S
C806 C807 1.389 . S
C807 C806 1.389 . S
C807 C808 1.387 . S
C808 H793 0.930 . S
C808 C803 1.390 . S
C808 C807 1.387 . S
H809 C821 0.930 . S
H810 C823 0.930 . S
H811 C824 0.930 . S
H812 C828 0.959 . S
H813 C828 0.959 . S
H814 C828 0.961 . S
H815 C829 0.960 . S
H816 C829 0.961 . S
H817 C829 0.959 . S
H818 C832 0.929 . S
H819 C833 0.931 . S
H820 C835 0.930 . S
C821 H809 0.930 . S
C821 C822 1.399 . S
C821 C826 1.399 . S
C822 C821 1.399 . S
C822 C823 1.376 . S
C823 H810 0.930 . S
C823 C822 1.376 . S
C823 C824 1.388 . S
C824 H811 0.930 . S
C824 C823 1.388 . S
C824 C825 1.390 . S
C825 C824 1.390 . S
C825 C826 1.394 . S
C825 C831 1.465 . S
C826 C821 1.399 . S
C826 C825 1.394 . S
C826 C827 1.516 . S
C827 C826 1.516 . S
C827 C828 1.502 . S
C827 C829 1.561 . S
C827 C830 1.526 . S
C828 H812 0.959 . S
C828 H813 0.959 . S
C828 H814 0.961 . S
C828 C827 1.502 . S
C829 H815 0.960 . S
C829 H816 0.961 . S
C829 H817 0.959 . S
C829 C827 1.561 . S
C830 C827 1.526 . S
C830 C831 1.396 . S
C830 C835 1.390 . S
C831 C825 1.465 . S
C831 C830 1.396 . S
C831 C832 1.399 . S
C832 H818 0.929 . S
C832 C831 1.399 . S
C832 C833 1.385 . S
C833 H819 0.931 . S
C833 C832 1.385 . S
C833 C834 1.389 . S
C834 C833 1.389 . S
C834 C835 1.387 . S
C835 H820 0.930 . S
C835 C830 1.390 . S
C835 C834 1.387 . S
H836 C848 0.930 . S
H837 C850 0.930 . S
H838 C851 0.930 . S
H839 C855 0.959 . S
H840 C855 0.959 . S
H841 C855 0.961 . S
H842 C856 0.954 1_556 S
H843 C856 0.955 1_556 S
H844 C856 0.977 . S
H845 C859 0.929 . S
H846 C860 0.931 . S
H847 C862 0.913 1_556 S
C848 H836 0.930 . S
C848 C849 1.399 1_556 S
C848 C853 1.399 . S
C849 C848 1.399 1_554 S
C849 C850 1.376 1_565 S
C850 H837 0.930 . S
C850 C849 1.376 1_545 S
C850 C851 1.388 . S
C851 H838 0.930 . S
C851 C850 1.388 . S
C851 C852 1.390 . S
C852 C851 1.390 . S
C852 C853 1.394 1_544 S
C852 C858 1.465 . S
C853 C848 1.399 . S
C853 C852 1.394 1_566 S
C853 C854 1.516 . S
C854 C853 1.516 . S
C854 C855 1.502 . S
C854 C856 1.555 1_556 S
C854 C857 1.526 1_556 S
C855 H839 0.959 . S
C855 H840 0.959 . S
C855 H841 0.961 . S
C855 C854 1.502 . S
C856 H842 0.954 1_554 S
C856 H843 0.955 1_554 S
C856 H844 0.977 . S
C856 C854 1.555 1_554 S
C857 C854 1.526 1_554 S
C857 C858 1.396 1_565 S
C857 C862 1.392 . S
C858 C852 1.465 . S
C858 C857 1.396 1_545 S
C858 C859 1.399 . S
C859 H845 0.929 . S
C859 C858 1.399 . S
C859 C860 1.385 . S
C860 H846 0.931 . S
C860 C859 1.385 . S
C860 C861 1.389 1_545 S
C861 C860 1.389 1_565 S
C861 C862 1.402 . S
C862 H847 0.913 1_554 S
C862 C857 1.392 . S
C862 C861 1.402 . S
H863 C875 0.930 . S
H864 C877 0.930 . S
H865 C878 0.930 1_565 S
H866 C882 0.959 . S
H867 C882 0.959 . S
H868 C882 0.961 . S
H869 C883 0.960 . S
H870 C883 0.961 . S
H871 C883 0.959 . S
H872 C886 0.929 1_565 S
H873 C887 0.950 . S
H874 C889 0.930 . S
C875 H863 0.930 . S
C875 C876 1.399 . S
C875 C880 1.399 . S
C876 C875 1.399 . S
C876 C877 1.376 . S
C877 H864 0.930 . S
C877 C876 1.376 . S
C877 C878 1.388 . S
C878 H865 0.930 1_545 S
C878 C877 1.388 . S
C878 C879 1.390 . S
C879 C878 1.390 . S
C879 C880 1.394 . S
C879 C885 1.465 . S
C880 C875 1.399 . S
C880 C879 1.394 . S
C880 C881 1.516 . S
C881 C880 1.516 . S
C881 C882 1.502 . S
C881 C883 1.561 . S
C881 C884 1.526 . S
C882 H866 0.959 . S
C882 H867 0.959 . S
C882 H868 0.961 . S
C882 C881 1.502 . S
C883 H869 0.960 . S
C883 H870 0.961 . S
C883 H871 0.959 . S
C883 C881 1.561 . S
C884 C881 1.526 . S
C884 C885 1.396 . S
C884 C889 1.390 . S
C885 C879 1.465 . S
C885 C884 1.396 . S
C885 C886 1.399 . S
C886 H872 0.929 1_545 S
C886 C885 1.399 . S
C886 C887 1.385 . S
C887 H873 0.950 . S
C887 C886 1.385 . S
C887 C888 1.389 . S
C888 C887 1.389 . S
C888 C889 1.387 . S
C889 H874 0.930 . S
C889 C884 1.390 . S
C889 C888 1.387 . S
H890 C902 0.930 . S
H891 C904 0.930 . S
H892 C905 0.945 . S
H893 C909 0.959 . S
H894 C909 0.959 . S
H895 C909 0.961 . S
H896 C910 0.960 . S
H897 C910 0.961 . S
H898 C910 0.959 1_556 S
H899 C913 0.929 1_556 S
H900 C914 0.931 . S
H901 C916 0.930 . S
C902 H890 0.930 . S
C902 C903 1.399 . S
C902 C907 1.399 . S
C903 C902 1.399 . S
C903 C904 1.376 . S
C904 H891 0.930 . S
C904 C903 1.376 . S
C904 C905 1.388 . S
C905 H892 0.945 . S
C905 C904 1.388 . S
C905 C906 1.390 . S
C906 C905 1.390 . S
C906 C907 1.394 . S
C906 C912 1.465 . S
C907 C902 1.399 . S
C907 C906 1.394 . S
C907 C908 1.516 . S
C908 C907 1.516 . S
C908 C909 1.502 . S
C908 C910 1.561 . S
C908 C911 1.526 . S
C909 H893 0.959 . S
C909 H894 0.959 . S
C909 H895 0.961 . S
C909 C908 1.502 . S
C910 H896 0.960 . S
C910 H897 0.961 . S
C910 H898 0.959 1_554 S
C910 C908 1.561 . S
C911 C908 1.526 . S
C911 C912 1.396 . S
C911 C916 1.390 . S
C912 C906 1.465 . S
C912 C911 1.396 . S
C912 C913 1.399 . S
C913 H899 0.929 1_554 S
C913 C912 1.399 . S
C913 C914 1.385 . S
C914 H900 0.931 . S
C914 C913 1.385 . S
C914 C915 1.389 . S
C915 C914 1.389 . S
C915 C916 1.387 . S
C916 H901 0.930 . S
C916 C911 1.390 . S
C916 C915 1.387 . S
H917 C929 0.930 . S
H918 C931 0.930 . S
H919 C932 0.930 . S
H920 C936 0.959 . S
H921 C936 0.959 . S
H922 C936 0.961 . S
H923 C937 0.960 . S
H924 C937 0.961 . S
H925 C937 0.959 . S
H926 C940 0.929 . S
H927 C941 0.931 . S
H928 C943 0.930 . S
C929 H917 0.930 . S
C929 C930 1.399 . S
C929 C934 1.399 . S
C930 C929 1.399 . S
C930 C931 1.376 . S
C931 H918 0.930 . S
C931 C930 1.376 . S
C931 C932 1.388 . S
C932 H919 0.930 . S
C932 C931 1.388 . S
C932 C933 1.390 . S
C933 C932 1.390 . S
C933 C934 1.394 . S
C933 C939 1.465 . S
C934 C929 1.399 . S
C934 C933 1.394 . S
C934 C935 1.516 . S
C935 C934 1.516 . S
C935 C936 1.502 . S
C935 C937 1.561 . S
C935 C938 1.526 . S
C936 H920 0.959 . S
C936 H921 0.959 . S
C936 H922 0.961 . S
C936 C935 1.502 . S
C937 H923 0.960 . S
C937 H924 0.961 . S
C937 H925 0.959 . S
C937 C935 1.561 . S
C938 C935 1.526 . S
C938 C939 1.396 . S
C938 C943 1.390 . S
C939 C933 1.465 . S
C939 C938 1.396 . S
C939 C940 1.399 . S
C940 H926 0.929 . S
C940 C939 1.399 . S
C940 C941 1.385 . S
C941 H927 0.931 . S
C941 C940 1.385 . S
C941 C942 1.389 . S
C942 C941 1.389 . S
C942 C943 1.387 . S
C943 H928 0.930 . S
C943 C938 1.390 . S
C943 C942 1.387 . S
H944 C956 0.930 1_655 S
H945 C958 0.930 . S
H946 C959 0.930 . S
H947 C963 0.959 . S
H948 C963 0.959 . S
H949 C963 0.961 . S
H950 C964 0.960 . S
H951 C964 0.961 . S
H952 C964 0.959 . S
H953 C967 0.929 . S
H954 C968 0.931 . S
H955 C970 0.930 . S
C956 H944 0.930 1_455 S
C956 C957 1.399 . S
C956 C961 1.399 . S
C957 C956 1.399 . S
C957 C958 1.376 1_556 S
C958 H945 0.930 . S
C958 C957 1.376 1_554 S
C958 C959 1.388 . S
C959 H946 0.930 . S
C959 C958 1.388 . S
C959 C960 1.404 . S
C960 C959 1.404 . S
C960 C961 1.376 1_554 S
C960 C966 1.466 . S
C961 C956 1.399 . S
C961 C960 1.376 1_556 S
C961 C962 1.516 . S
C962 C961 1.516 . S
C962 C963 1.502 1_455 S
C962 C964 1.561 . S
C962 C965 1.526 . S
C963 H947 0.959 . S
C963 H948 0.959 . S
C963 H949 0.961 . S
C963 C962 1.502 1_655 S
C964 H950 0.960 . S
C964 H951 0.961 . S
C964 H952 0.959 . S
C964 C962 1.561 . S
C965 C962 1.526 . S
C965 C966 1.396 1_556 S
C965 C970 1.390 . S
C966 C960 1.466 . S
C966 C965 1.396 1_554 S
C966 C967 1.399 . S
C967 H953 0.929 . S
C967 C966 1.399 . S
C967 C968 1.385 . S
C968 H954 0.931 . S
C968 C967 1.385 . S
C968 C969 1.389 1_554 S
C969 C968 1.389 1_556 S
C969 C970 1.387 . S
C970 H955 0.930 . S
C970 C965 1.390 . S
C970 C969 1.387 . S
H971 C983 0.930 . S
H972 C985 0.930 1_556 S
H973 C986 0.930 1_556 S
H974 C990 0.959 . S
H975 C990 0.959 . S
H976 C990 0.961 . S
H977 C991 0.960 . S
H978 C991 0.961 . S
H979 C991 0.959 . S
H980 C994 0.929 1_556 S
H981 C995 0.931 1_556 S
H982 C997 0.930 . S
C983 H971 0.930 . S
C983 C984 1.399 . S
C983 C988 1.399 . S
C984 C983 1.399 . S
C984 C985 1.376 . S
C985 H972 0.930 1_554 S
C985 C984 1.376 . S
C985 C986 1.388 . S
C986 H973 0.930 1_554 S
C986 C985 1.388 . S
C986 C987 1.390 . S
C987 C986 1.390 . S
C987 C988 1.394 . S
C987 C993 1.465 . S
C988 C983 1.399 . S
C988 C987 1.394 . S
C988 C989 1.516 . S
C989 C988 1.516 . S
C989 C990 1.502 . S
C989 C991 1.561 . S
C989 C992 1.526 . S
C990 H974 0.959 . S
C990 H975 0.959 . S
C990 H976 0.961 . S
C990 C989 1.502 . S
C991 H977 0.960 . S
C991 H978 0.961 . S
C991 H979 0.959 . S
C991 C989 1.561 . S
C992 C989 1.526 . S
C992 C993 1.396 . S
C992 C997 1.390 . S
C993 C987 1.465 . S
C993 C992 1.396 . S
C993 C994 1.399 . S
C994 H980 0.929 1_554 S
C994 C993 1.399 . S
C994 C995 1.385 . S
C995 H981 0.931 1_554 S
C995 C994 1.385 . S
C995 C996 1.389 . S
C996 C995 1.389 . S
C996 C997 1.387 . S
C997 H982 0.930 . S
C997 C992 1.390 . S
C997 C996 1.387 . S
H998 C1010 0.930 . S
H999 C1012 0.930 . S
H1000 C1013 0.930 1_655 S
H1001 C1017 0.959 . S
H1002 C1017 0.959 . S
H1003 C1017 0.961 . S
H1004 C1018 0.960 . S
H1005 C1018 0.961 . S
H1006 C1018 0.959 . S
H1007 C1021 0.924 1_655 S
H1008 C1022 0.931 1_655 S
H1009 C1024 0.930 . S
C1010 H998 0.930 . S
C1010 C1011 1.399 . S
C1010 C1015 1.399 . S
C1011 C1010 1.399 . S
C1011 C1012 1.376 . S
C1012 H999 0.930 . S
C1012 C1011 1.376 . S
C1012 C1013 1.388 . S
C1013 H1000 0.930 1_455 S
C1013 C1012 1.388 . S
C1013 C1014 1.390 . S
C1014 C1013 1.390 . S
C1014 C1015 1.394 . S
C1014 C1020 1.465 . S
C1015 C1010 1.399 . S
C1015 C1014 1.394 . S
C1015 C1016 1.516 . S
C1016 C1015 1.516 . S
C1016 C1017 1.502 . S
C1016 C1018 1.561 . S
C1016 C1019 1.526 . S
C1017 H1001 0.959 . S
C1017 H1002 0.959 . S
C1017 H1003 0.961 . S
C1017 C1016 1.502 . S
C1018 H1004 0.960 . S
C1018 H1005 0.961 . S
C1018 H1006 0.959 . S
C1018 C1016 1.561 . S
C1019 C1016 1.526 . S
C1019 C1020 1.396 . S
C1019 C1024 1.390 . S
C1020 C1014 1.465 . S
C1020 C1019 1.396 . S
C1020 C1021 1.404 . S
C1021 H1007 0.924 1_455 S
C1021 C1020 1.404 . S
C1021 C1022 1.386 . S
C1022 H1008 0.931 1_455 S
C1022 C1021 1.386 . S
C1022 C1023 1.389 . S
C1023 C1022 1.389 . S
C1023 C1024 1.387 . S
C1024 H1009 0.930 . S
C1024 C1019 1.390 . S
C1024 C1023 1.387 . S
H1025 C1037 0.930 . S
H1026 C1039 0.930 . S
H1027 C1040 0.930 . S
H1028 C1044 0.959 . S
H1029 C1044 0.959 . S
H1030 C1044 0.961 . S
H1031 C1045 0.960 . S
H1032 C1045 0.961 . S
H1033 C1045 0.959 . S
H1034 C1048 0.929 . S
H1035 C1049 0.931 . S
H1036 C1051 0.930 . S
C1037 H1025 0.930 . S
C1037 C1038 1.399 . S
C1037 C1042 1.399 . S
C1038 C1037 1.399 . S
C1038 C1039 1.376 . S
C1039 H1026 0.930 . S
C1039 C1038 1.376 . S
C1039 C1040 1.388 . S
C1040 H1027 0.930 . S
C1040 C1039 1.388 . S
C1040 C1041 1.390 . S
C1041 C1040 1.390 . S
C1041 C1042 1.394 . S
C1041 C1047 1.465 . S
C1042 C1037 1.399 . S
C1042 C1041 1.394 . S
C1042 C1043 1.516 . S
C1043 C1042 1.516 . S
C1043 C1044 1.502 . S
C1043 C1045 1.561 . S
C1043 C1046 1.526 . S
C1044 H1028 0.959 . S
C1044 H1029 0.959 . S
C1044 H1030 0.961 . S
C1044 C1043 1.502 . S
C1045 H1031 0.960 . S
C1045 H1032 0.961 . S
C1045 H1033 0.959 . S
C1045 C1043 1.561 . S
C1046 C1043 1.526 . S
C1046 C1047 1.396 . S
C1046 C1051 1.390 . S
C1047 C1041 1.465 . S
C1047 C1046 1.396 . S
C1047 C1048 1.399 . S
C1048 H1034 0.929 . S
C1048 C1047 1.399 . S
C1048 C1049 1.385 . S
C1049 H1035 0.931 . S
C1049 C1048 1.385 . S
C1049 C1050 1.389 . S
C1050 C1049 1.389 . S
C1050 C1051 1.387 . S
C1051 H1036 0.930 . S
C1051 C1046 1.390 . S
C1051 C1050 1.387 . S
C417 C21 1.556 . S
C429 C323 1.439 . S
C444 C61 1.502 . S
C456 C357 1.434 . S
C483 C369 1.390 . S
C471 C82 1.443 . S
C498 C135 1.518 . S
C510 C403 1.458 . S
C537 C360 1.408 . S
C525 C15 1.531 . S
C564 C340 1.380 . S
C552 C42 1.525 . S
C591 C387 1.416 . S
C579 C101 1.475 . S
C618 C378 1.428 . S
C606 C122 1.464 . S
C633 C2 1.554 . S
C645 C386 1.407 . S
C672 C348 1.341 . S
C660 C95 1.450 . S
C687 C141 1.508 . S
C699 C324 1.368 . S
C714 C55 1.500 . S
C726 C381 1.363 . S
C753 C339 1.683 . S
C741 C181 1.736 1_545 S
C768 C202 1.698 . S
C780 C361 1.732 . S
C795 C255 1.753 . S
C807 C366 1.733 . S
C822 C295 1.787 . S
C834 C399 1.748 . S
C849 C175 1.812 1_554 S
C861 C344 1.701 . S
C888 C336 1.752 . S
C876 C221 1.800 . S
C915 C390 1.681 . S
C903 C242 1.738 . S
C942 C382 1.715 . S
C930 C301 1.833 . S
C957 C162 1.729 1_455 S
C969 C402 1.669 . S
C996 C345 1.708 . S
C984 C261 1.761 . S
C1023 C327 1.674 . S
C1011 C282 1.827 . S
C1038 C215 1.764 . S
C1050 C365 1.726 . S
