# Generated by pormake.
# Topology iac, (4,6)-cn, num edge types: 1
# Building blocks:
#     Node 0, Type 0, BuildingBlock: AZAVOO_clean_sbu_0, # of connection points: 4
#     Node 1, Type 0, BuildingBlock: AZAVOO_clean_sbu_0, # of connection points: 4
#     Node 2, Type 0, BuildingBlock: AZAVOO_clean_sbu_0, # of connection points: 4
#     Node 3, Type 0, BuildingBlock: AZAVOO_clean_sbu_0, # of connection points: 4
#     Node 4, Type 0, BuildingBlock: AZAVOO_clean_sbu_0, # of connection points: 4
#     Node 5, Type 0, BuildingBlock: AZAVOO_clean_sbu_0, # of connection points: 4
#     Node 6, Type 0, BuildingBlock: AZAVOO_clean_sbu_0, # of connection points: 4
#     Node 7, Type 0, BuildingBlock: AZAVOO_clean_sbu_0, # of connection points: 4
#     Node 8, Type 0, BuildingBlock: AZAVOO_clean_sbu_0, # of connection points: 4
#     Node 9, Type 0, BuildingBlock: AZAVOO_clean_sbu_0, # of connection points: 4
#     Node 10, Type 0, BuildingBlock: AZAVOO_clean_sbu_0, # of connection points: 4
#     Node 11, Type 0, BuildingBlock: AZAVOO_clean_sbu_0, # of connection points: 4
#     Node 12, Type 0, BuildingBlock: AZAVOO_clean_sbu_0, # of connection points: 4
#     Node 13, Type 0, BuildingBlock: AZAVOO_clean_sbu_0, # of connection points: 4
#     Node 14, Type 0, BuildingBlock: AZAVOO_clean_sbu_0, # of connection points: 4
#     Node 15, Type 0, BuildingBlock: AZAVOO_clean_sbu_0, # of connection points: 4
#     Node 16, Type 0, BuildingBlock: AZAVOO_clean_sbu_0, # of connection points: 4
#     Node 17, Type 0, BuildingBlock: AZAVOO_clean_sbu_0, # of connection points: 4
#     Node 18, Type 0, BuildingBlock: AZAVOO_clean_sbu_0, # of connection points: 4
#     Node 19, Type 0, BuildingBlock: AZAVOO_clean_sbu_0, # of connection points: 4
#     Node 20, Type 0, BuildingBlock: AZAVOO_clean_sbu_0, # of connection points: 4
#     Node 21, Type 0, BuildingBlock: AZAVOO_clean_sbu_0, # of connection points: 4
#     Node 22, Type 0, BuildingBlock: AZAVOO_clean_sbu_0, # of connection points: 4
#     Node 23, Type 0, BuildingBlock: AZAVOO_clean_sbu_0, # of connection points: 4
#     Node 24, Type 1, BuildingBlock: FUNLAD_clean_sbu_0, # of connection points: 6
#     Node 25, Type 1, BuildingBlock: FUNLAD_clean_sbu_0, # of connection points: 6
#     Node 26, Type 1, BuildingBlock: FUNLAD_clean_sbu_0, # of connection points: 6
#     Node 27, Type 1, BuildingBlock: FUNLAD_clean_sbu_0, # of connection points: 6
#     Node 28, Type 1, BuildingBlock: FUNLAD_clean_sbu_0, # of connection points: 6
#     Node 29, Type 1, BuildingBlock: FUNLAD_clean_sbu_0, # of connection points: 6
#     Node 30, Type 1, BuildingBlock: FUNLAD_clean_sbu_0, # of connection points: 6
#     Node 31, Type 1, BuildingBlock: FUNLAD_clean_sbu_0, # of connection points: 6
#     Node 32, Type 1, BuildingBlock: FUNLAD_clean_sbu_0, # of connection points: 6
#     Node 33, Type 1, BuildingBlock: FUNLAD_clean_sbu_0, # of connection points: 6
#     Node 34, Type 1, BuildingBlock: FUNLAD_clean_sbu_0, # of connection points: 6
#     Node 35, Type 1, BuildingBlock: FUNLAD_clean_sbu_0, # of connection points: 6
#     Node 36, Type 1, BuildingBlock: FUNLAD_clean_sbu_0, # of connection points: 6
#     Node 37, Type 1, BuildingBlock: FUNLAD_clean_sbu_0, # of connection points: 6
#     Node 38, Type 1, BuildingBlock: FUNLAD_clean_sbu_0, # of connection points: 6
#     Node 39, Type 1, BuildingBlock: FUNLAD_clean_sbu_0, # of connection points: 6
#     Edge 40, Type (0, 1), BuildingBlock: EZIPEK_clean_linker_0, # of connection points: 2
#     Edge 41, Type (0, 1), BuildingBlock: EZIPEK_clean_linker_0, # of connection points: 2
#     Edge 42, Type (0, 1), BuildingBlock: EZIPEK_clean_linker_0, # of connection points: 2
#     Edge 43, Type (0, 1), BuildingBlock: EZIPEK_clean_linker_0, # of connection points: 2
#     Edge 44, Type (0, 1), BuildingBlock: EZIPEK_clean_linker_0, # of connection points: 2
#     Edge 45, Type (0, 1), BuildingBlock: EZIPEK_clean_linker_0, # of connection points: 2
#     Edge 46, Type (0, 1), BuildingBlock: EZIPEK_clean_linker_0, # of connection points: 2
#     Edge 47, Type (0, 1), BuildingBlock: EZIPEK_clean_linker_0, # of connection points: 2
#     Edge 48, Type (0, 1), BuildingBlock: EZIPEK_clean_linker_0, # of connection points: 2
#     Edge 49, Type (0, 1), BuildingBlock: EZIPEK_clean_linker_0, # of connection points: 2
#     Edge 50, Type (0, 1), BuildingBlock: EZIPEK_clean_linker_0, # of connection points: 2
#     Edge 51, Type (0, 1), BuildingBlock: EZIPEK_clean_linker_0, # of connection points: 2
#     Edge 52, Type (0, 1), BuildingBlock: EZIPEK_clean_linker_0, # of connection points: 2
#     Edge 53, Type (0, 1), BuildingBlock: EZIPEK_clean_linker_0, # of connection points: 2
#     Edge 54, Type (0, 1), BuildingBlock: EZIPEK_clean_linker_0, # of connection points: 2
#     Edge 55, Type (0, 1), BuildingBlock: EZIPEK_clean_linker_0, # of connection points: 2
#     Edge 56, Type (0, 1), BuildingBlock: EZIPEK_clean_linker_0, # of connection points: 2
#     Edge 57, Type (0, 1), BuildingBlock: EZIPEK_clean_linker_0, # of connection points: 2
#     Edge 58, Type (0, 1), BuildingBlock: EZIPEK_clean_linker_0, # of connection points: 2
#     Edge 59, Type (0, 1), BuildingBlock: EZIPEK_clean_linker_0, # of connection points: 2
#     Edge 60, Type (0, 1), BuildingBlock: EZIPEK_clean_linker_0, # of connection points: 2
#     Edge 61, Type (0, 1), BuildingBlock: EZIPEK_clean_linker_0, # of connection points: 2
#     Edge 62, Type (0, 1), BuildingBlock: EZIPEK_clean_linker_0, # of connection points: 2
#     Edge 63, Type (0, 1), BuildingBlock: EZIPEK_clean_linker_0, # of connection points: 2
#     Edge 64, Type (0, 1), BuildingBlock: EZIPEK_clean_linker_0, # of connection points: 2
#     Edge 65, Type (0, 1), BuildingBlock: EZIPEK_clean_linker_0, # of connection points: 2
#     Edge 66, Type (0, 1), BuildingBlock: EZIPEK_clean_linker_0, # of connection points: 2
#     Edge 67, Type (0, 1), BuildingBlock: EZIPEK_clean_linker_0, # of connection points: 2
#     Edge 68, Type (0, 1), BuildingBlock: EZIPEK_clean_linker_0, # of connection points: 2
#     Edge 69, Type (0, 1), BuildingBlock: EZIPEK_clean_linker_0, # of connection points: 2
#     Edge 70, Type (0, 1), BuildingBlock: EZIPEK_clean_linker_0, # of connection points: 2
#     Edge 71, Type (0, 1), BuildingBlock: EZIPEK_clean_linker_0, # of connection points: 2
#     Edge 72, Type (0, 1), BuildingBlock: EZIPEK_clean_linker_0, # of connection points: 2
#     Edge 73, Type (0, 1), BuildingBlock: EZIPEK_clean_linker_0, # of connection points: 2
#     Edge 74, Type (0, 1), BuildingBlock: EZIPEK_clean_linker_0, # of connection points: 2
#     Edge 75, Type (0, 1), BuildingBlock: EZIPEK_clean_linker_0, # of connection points: 2
#     Edge 76, Type (0, 1), BuildingBlock: EZIPEK_clean_linker_0, # of connection points: 2
#     Edge 77, Type (0, 1), BuildingBlock: EZIPEK_clean_linker_0, # of connection points: 2
#     Edge 78, Type (0, 1), BuildingBlock: EZIPEK_clean_linker_0, # of connection points: 2
#     Edge 79, Type (0, 1), BuildingBlock: EZIPEK_clean_linker_0, # of connection points: 2
#     Edge 80, Type (0, 1), BuildingBlock: EZIPEK_clean_linker_0, # of connection points: 2
#     Edge 81, Type (0, 1), BuildingBlock: EZIPEK_clean_linker_0, # of connection points: 2
#     Edge 82, Type (0, 1), BuildingBlock: EZIPEK_clean_linker_0, # of connection points: 2
#     Edge 83, Type (0, 1), BuildingBlock: EZIPEK_clean_linker_0, # of connection points: 2
#     Edge 84, Type (0, 1), BuildingBlock: EZIPEK_clean_linker_0, # of connection points: 2
#     Edge 85, Type (0, 1), BuildingBlock: EZIPEK_clean_linker_0, # of connection points: 2
#     Edge 86, Type (0, 1), BuildingBlock: EZIPEK_clean_linker_0, # of connection points: 2
#     Edge 87, Type (0, 1), BuildingBlock: EZIPEK_clean_linker_0, # of connection points: 2
#     Edge 88, Type (0, 1), BuildingBlock: EZIPEK_clean_linker_0, # of connection points: 2
#     Edge 89, Type (0, 1), BuildingBlock: EZIPEK_clean_linker_0, # of connection points: 2
#     Edge 90, Type (0, 1), BuildingBlock: EZIPEK_clean_linker_0, # of connection points: 2
#     Edge 91, Type (0, 1), BuildingBlock: EZIPEK_clean_linker_0, # of connection points: 2
#     Edge 92, Type (0, 1), BuildingBlock: EZIPEK_clean_linker_0, # of connection points: 2
#     Edge 93, Type (0, 1), BuildingBlock: EZIPEK_clean_linker_0, # of connection points: 2
#     Edge 94, Type (0, 1), BuildingBlock: EZIPEK_clean_linker_0, # of connection points: 2
#     Edge 95, Type (0, 1), BuildingBlock: EZIPEK_clean_linker_0, # of connection points: 2
#     Edge 96, Type (0, 1), BuildingBlock: EZIPEK_clean_linker_0, # of connection points: 2
#     Edge 97, Type (0, 1), BuildingBlock: EZIPEK_clean_linker_0, # of connection points: 2
#     Edge 98, Type (0, 1), BuildingBlock: EZIPEK_clean_linker_0, # of connection points: 2
#     Edge 99, Type (0, 1), BuildingBlock: EZIPEK_clean_linker_0, # of connection points: 2
#     Edge 100, Type (0, 1), BuildingBlock: EZIPEK_clean_linker_0, # of connection points: 2
#     Edge 101, Type (0, 1), BuildingBlock: EZIPEK_clean_linker_0, # of connection points: 2
#     Edge 102, Type (0, 1), BuildingBlock: EZIPEK_clean_linker_0, # of connection points: 2
#     Edge 103, Type (0, 1), BuildingBlock: EZIPEK_clean_linker_0, # of connection points: 2
#     Edge 104, Type (0, 1), BuildingBlock: EZIPEK_clean_linker_0, # of connection points: 2
#     Edge 105, Type (0, 1), BuildingBlock: EZIPEK_clean_linker_0, # of connection points: 2
#     Edge 106, Type (0, 1), BuildingBlock: EZIPEK_clean_linker_0, # of connection points: 2
#     Edge 107, Type (0, 1), BuildingBlock: EZIPEK_clean_linker_0, # of connection points: 2
#     Edge 108, Type (0, 1), BuildingBlock: EZIPEK_clean_linker_0, # of connection points: 2
#     Edge 109, Type (0, 1), BuildingBlock: EZIPEK_clean_linker_0, # of connection points: 2
#     Edge 110, Type (0, 1), BuildingBlock: EZIPEK_clean_linker_0, # of connection points: 2
#     Edge 111, Type (0, 1), BuildingBlock: EZIPEK_clean_linker_0, # of connection points: 2
#     Edge 112, Type (0, 1), BuildingBlock: EZIPEK_clean_linker_0, # of connection points: 2
#     Edge 113, Type (0, 1), BuildingBlock: EZIPEK_clean_linker_0, # of connection points: 2
#     Edge 114, Type (0, 1), BuildingBlock: EZIPEK_clean_linker_0, # of connection points: 2
#     Edge 115, Type (0, 1), BuildingBlock: EZIPEK_clean_linker_0, # of connection points: 2
#     Edge 116, Type (0, 1), BuildingBlock: EZIPEK_clean_linker_0, # of connection points: 2
#     Edge 117, Type (0, 1), BuildingBlock: EZIPEK_clean_linker_0, # of connection points: 2
#     Edge 118, Type (0, 1), BuildingBlock: EZIPEK_clean_linker_0, # of connection points: 2
#     Edge 119, Type (0, 1), BuildingBlock: EZIPEK_clean_linker_0, # of connection points: 2
#     Edge 120, Type (0, 1), BuildingBlock: EZIPEK_clean_linker_0, # of connection points: 2
#     Edge 121, Type (0, 1), BuildingBlock: EZIPEK_clean_linker_0, # of connection points: 2
#     Edge 122, Type (0, 1), BuildingBlock: EZIPEK_clean_linker_0, # of connection points: 2
#     Edge 123, Type (0, 1), BuildingBlock: EZIPEK_clean_linker_0, # of connection points: 2
#     Edge 124, Type (0, 1), BuildingBlock: EZIPEK_clean_linker_0, # of connection points: 2
#     Edge 125, Type (0, 1), BuildingBlock: EZIPEK_clean_linker_0, # of connection points: 2
#     Edge 126, Type (0, 1), BuildingBlock: EZIPEK_clean_linker_0, # of connection points: 2
#     Edge 127, Type (0, 1), BuildingBlock: EZIPEK_clean_linker_0, # of connection points: 2
#     Edge 128, Type (0, 1), BuildingBlock: EZIPEK_clean_linker_0, # of connection points: 2
#     Edge 129, Type (0, 1), BuildingBlock: EZIPEK_clean_linker_0, # of connection points: 2
#     Edge 130, Type (0, 1), BuildingBlock: EZIPEK_clean_linker_0, # of connection points: 2
#     Edge 131, Type (0, 1), BuildingBlock: EZIPEK_clean_linker_0, # of connection points: 2
#     Edge 132, Type (0, 1), BuildingBlock: EZIPEK_clean_linker_0, # of connection points: 2
#     Edge 133, Type (0, 1), BuildingBlock: EZIPEK_clean_linker_0, # of connection points: 2
#     Edge 134, Type (0, 1), BuildingBlock: EZIPEK_clean_linker_0, # of connection points: 2
#     Edge 135, Type (0, 1), BuildingBlock: EZIPEK_clean_linker_0, # of connection points: 2
# Relax obj value: 0.409
# Max RMSD: 0.306
# Mean RMSD: 0.191
data_MOF--net-iac--node1-AZAVOO_clean_sbu_0--node2-FUNLAD_clean_sbu_0--edge1-EZIPEK_clean_linker_0
_symmetry_space_group_name_H-M    P1
_symmetry_Int_Tables_number       1
_symmetry_cell_setting            triclinic
loop_
_symmetry_equiv_pos_as_xyz
'x, y, z'
_cell_length_a     41.74432
_cell_length_b     37.907299
_cell_length_c     44.47955
_cell_angle_alpha  92.585195
_cell_angle_beta   92.898649
_cell_angle_gamma 90.739745
loop_
_atom_site_label
_atom_site_type_symbol
_atom_site_fract_x
_atom_site_fract_y
_atom_site_fract_z
_atom_type_partial_charge
Mg0 Mg 0.08617 0.23878 0.19369 0.0
O1 O 0.07288 0.19423 0.15886 0.0
O2 O 0.02648 0.20646 0.13425 0.0
Mg3 Mg 0.01024 0.26122 0.15009 0.0
C4 C 0.05056 0.1866 0.1388 0.0
C5 C 0.10242 0.21149 0.25688 0.0
O6 O 0.10129 0.19512 0.28223 0.0
O7 O 0.10118 0.27061 0.1548 0.0
O8 O 0.0552 0.28345 0.12979 0.0
O9 O 0.04896 0.21703 0.22562 0.0
O10 O 0.03645 0.25567 0.19332 0.0
C11 C 0.08575 0.28484 0.13325 0.0
C12 C 0.02751 0.2367 0.21412 0.0
O13 O 0.08103 0.20488 0.23565 0.0
Mg14 Mg 0.0423 0.75567 0.37782 0.0
O15 O 0.03892 0.80318 0.41238 0.0
O16 O 0.98907 0.80122 0.42847 0.0
Mg17 Mg 0.96171 0.75286 0.40695 0.0
C18 C 0.01675 0.81598 0.42831 0.0
C19 C 0.10754 0.75309 0.34842 0.0
O20 O 0.08711 0.7389 0.32776 0.0
O21 O 0.04685 0.71632 0.41675 0.0
O22 O 0.99583 0.7132 0.42974 0.0
O23 O 0.0207 0.7881 0.34019 0.0
O24 O 0.99246 0.75515 0.3689 0.0
C25 C 0.02484 0.70277 0.43202 0.0
C26 C 0.99292 0.77688 0.34759 0.0
O27 O 0.09721 0.76336 0.37386 0.0
Mg28 Mg 0.56352 0.71819 0.67489 0.0
O29 O 0.56839 0.66919 0.64432 0.0
O30 O 0.52458 0.676 0.6144 0.0
Mg31 Mg 0.48572 0.70826 0.63807 0.0
C32 C 0.55288 0.6639 0.61894 0.0
C33 C 0.6206 0.76215 0.69014 0.0
O34 O 0.59528 0.78229 0.69165 0.0
O35 O 0.56359 0.74563 0.63054 0.0
O36 O 0.51193 0.75732 0.62244 0.0
O37 O 0.54787 0.69264 0.71703 0.0
O38 O 0.51666 0.70605 0.67813 0.0
C39 C 0.54131 0.76179 0.61656 0.0
C40 C 0.51918 0.69564 0.70508 0.0
O41 O 0.61662 0.72956 0.68263 0.0
Mg42 Mg 0.53503 0.2557 0.87682 0.0
O43 O 0.53709 0.30682 0.9082 0.0
O44 O 0.4935 0.30497 0.93535 0.0
Mg45 Mg 0.46355 0.25492 0.92142 0.0
C46 C 0.51916 0.32035 0.92805 0.0
C47 C 0.59625 0.24774 0.84037 0.0
O48 O 0.57519 0.22771 0.8244 0.0
O49 O 0.54853 0.21824 0.91537 0.0
O50 O 0.50201 0.21604 0.93819 0.0
O51 O 0.50497 0.28324 0.8413 0.0
O52 O 0.4846 0.25297 0.87705 0.0
C53 C 0.53062 0.20536 0.93487 0.0
C54 C 0.47988 0.27159 0.85387 0.0
O55 O 0.58775 0.26365 0.86448 0.0
Mg56 Mg 0.16639 0.01533 0.26792 0.0
O57 O 0.19583 0.06658 0.26483 0.0
O58 O 0.21963 0.07707 0.31076 0.0
Mg59 Mg 0.20587 0.03469 0.3426 0.0
C60 C 0.21382 0.08536 0.28356 0.0
C61 C 0.14719 0.97747 0.20814 0.0
O62 O 0.14875 0.9517 0.2269 0.0
O63 O 0.21107 0.98215 0.26735 0.0
O64 O 0.23004 0.99097 0.31521 0.0
O65 O 0.12387 0.04503 0.28356 0.0
O66 O 0.1628 0.02499 0.31343 0.0
C67 C 0.23055 0.97519 0.28925 0.0
C68 C 0.13619 0.04139 0.31051 0.0
O69 O 0.15606 0.00844 0.21749 0.0
Mg70 Mg 0.29529 0.93524 0.57801 0.0
O71 O 0.29842 0.89355 0.53892 0.0
O72 O 0.34767 0.87104 0.54295 0.0
Mg73 Mg 0.37297 0.89189 0.58664 0.0
C74 C 0.32042 0.87373 0.52893 0.0
C75 C 0.23281 0.97462 0.56683 0.0
O76 O 0.25378 0.00049 0.57255 0.0
O77 O 0.28534 0.89161 0.6105 0.0
O78 O 0.33379 0.86717 0.61417 0.0
O79 O 0.31963 0.97539 0.55081 0.0
O80 O 0.34496 0.93952 0.58135 0.0
C81 C 0.30445 0.86866 0.62111 0.0
C82 C 0.34641 0.96297 0.56142 0.0
O83 O 0.24215 0.94284 0.56706 0.0
Mg84 Mg 0.42652 0.02426 0.74701 0.0
O85 O 0.38967 0.97798 0.75308 0.0
O86 O 0.36675 0.99361 0.7964 0.0
Mg87 Mg 0.38856 0.04468 0.81804 0.0
C88 C 0.37012 0.97211 0.77386 0.0
C89 C 0.46721 0.02578 0.69718 0.0
O90 O 0.48033 0.04216 0.72149 0.0
O91 O 0.3871 0.06299 0.73393 0.0
O92 O 0.3704 0.0793 0.77943 0.0
O93 O 0.46473 0.99481 0.77118 0.0
O94 O 0.43033 0.02975 0.79329 0.0
C95 C 0.37085 0.08303 0.75105 0.0
C96 C 0.45302 0.00721 0.79576 0.0
O97 O 0.43913 0.01232 0.69827 0.0
Mg98 Mg 0.33273 0.11753 0.01487 0.0
O99 O 0.3004 0.15491 0.03806 0.0
O100 O 0.35124 0.16968 0.04452 0.0
Mg101 Mg 0.35326 0.14048 0.9969 0.0
C102 C 0.32238 0.17333 0.05234 0.0
C103 C 0.30119 0.04377 0.00386 0.0
O104 O 0.31849 0.04568 0.98017 0.0
O105 O 0.30334 0.11875 0.96961 0.0
O106 O 0.34912 0.11747 0.94923 0.0
O107 O 0.36443 0.10282 0.05484 0.0
O108 O 0.37502 0.08643 0.00847 0.0
C109 C 0.31896 0.11356 0.94615 0.0
C110 C 0.38121 0.08422 0.03678 0.0
O111 O 0.30222 0.06971 0.02307 0.0
Mg112 Mg 0.79032 0.43093 0.0726 0.0
O113 O 0.79667 0.39032 0.0333 0.0
O114 O 0.84068 0.35984 0.04528 0.0
Mg115 Mg 0.86345 0.38246 0.08967 0.0
C116 C 0.81704 0.36647 0.02722 0.0
C117 C 0.72719 0.47052 0.0632 0.0
O118 O 0.74629 0.49488 0.07659 0.0
O119 O 0.77412 0.38917 0.10508 0.0
O120 O 0.8212 0.36491 0.11692 0.0
O121 O 0.81922 0.46953 0.04826 0.0
O122 O 0.8406 0.43373 0.08055 0.0
C123 C 0.79115 0.36792 0.12032 0.0
C124 C 0.84495 0.4582 0.06185 0.0
O125 O 0.73816 0.43999 0.05731 0.0
Mg126 Mg 0.92528 0.53135 0.26455 0.0
O127 O 0.88911 0.48748 0.27562 0.0
O128 O 0.87335 0.50342 0.32185 0.0
Mg129 Mg 0.90047 0.55327 0.34043 0.0
C130 C 0.87229 0.48252 0.29845 0.0
C131 C 0.95721 0.52316 0.20913 0.0
O132 O 0.97625 0.53885 0.2302 0.0
O133 O 0.88395 0.56944 0.257 0.0
O134 O 0.87561 0.58748 0.30436 0.0
O135 O 0.96625 0.50126 0.28271 0.0
O136 O 0.93774 0.53792 0.31003 0.0
C137 C 0.87076 0.59018 0.27592 0.0
C138 C 0.96036 0.51513 0.30884 0.0
O139 O 0.92851 0.51539 0.21522 0.0
Mg140 Mg 0.84665 0.60865 0.47262 0.0
O141 O 0.85348 0.62585 0.52232 0.0
O142 O 0.90612 0.62925 0.53404 0.0
Mg143 Mg 0.93169 0.60329 0.49446 0.0
C144 C 0.87708 0.63443 0.54064 0.0
C145 C 0.77297 0.62458 0.47774 0.0
O146 O 0.74748 0.64451 0.47737 0.0
O147 O 0.87007 0.65859 0.46171 0.0
O148 O 0.9232 0.65581 0.47115 0.0
O149 O 0.83901 0.55291 0.4847 0.0
O150 O 0.88589 0.57809 0.47611 0.0
C151 C 0.89814 0.67195 0.46204 0.0
C152 C 0.86998 0.55128 0.48444 0.0
O153 O 0.79954 0.63743 0.47078 0.0
Mg154 Mg 0.66537 0.50298 0.75864 0.0
O155 O 0.69154 0.55717 0.76149 0.0
O156 O 0.72172 0.55739 0.8046 0.0
Mg157 Mg 0.71068 0.50915 0.83118 0.0
C158 C 0.71211 0.57201 0.7805 0.0
C159 C 0.64065 0.47502 0.69747 0.0
O160 O 0.63821 0.4482 0.71496 0.0
O161 O 0.7117 0.47423 0.75062 0.0
O162 O 0.73556 0.47387 0.79647 0.0
O163 O 0.62368 0.5277 0.77956 0.0
O164 O 0.665 0.5048 0.80477 0.0
C165 C 0.73458 0.46477 0.76843 0.0
C166 C 0.63859 0.52194 0.80508 0.0
O167 O 0.65279 0.50406 0.70845 0.0
Mg168 Mg 0.01107 0.77577 0.90842 0.0
O169 O 0.03439 0.82851 0.89834 0.0
O170 O 0.98404 0.83234 0.90178 0.0
Mg171 Mg 0.93374 0.82796 0.91882 0.0
C172 C 0.01145 0.84679 0.90779 0.0
C173 C 0.08728 0.75222 0.9172 0.0
O174 O 0.10787 0.73173 0.93102 0.0
O175 O 0.00489 0.79729 0.95646 0.0
O176 O 0.95183 0.79505 0.95856 0.0
O177 O 0.99408 0.7573 0.86167 0.0
O178 O 0.96602 0.79339 0.88993 0.0
C179 C 0.97983 0.78879 0.96985 0.0
C180 C 0.96709 0.77233 0.86648 0.0
O181 O 0.05789 0.74946 0.92293 0.0
Mg182 Mg 0.02642 0.27311 0.68153 0.0
O183 O 0.02316 0.22327 0.65042 0.0
O184 O 0.97845 0.22633 0.62103 0.0
Mg185 Mg 0.95093 0.27587 0.63721 0.0
C186 C 0.00436 0.21091 0.62896 0.0
C187 C 0.09666 0.28455 0.706 0.0
O188 O 0.08293 0.31225 0.71832 0.0
O189 O 0.03752 0.30767 0.64235 0.0
O190 O 0.98881 0.31452 0.62025 0.0
O191 O 0.99971 0.24731 0.71803 0.0
O192 O 0.97635 0.27757 0.68219 0.0
C193 C 0.01869 0.32259 0.62346 0.0
C194 C 0.97365 0.25997 0.70602 0.0
O195 O 0.07965 0.26249 0.68963 0.0
Mg196 Mg 0.48891 0.25243 0.37966 0.0
O197 O 0.5266 0.29618 0.39345 0.0
O198 O 0.48306 0.32379 0.40213 0.0
Mg199 Mg 0.42956 0.32453 0.39837 0.0
C200 C 0.51327 0.32348 0.40432 0.0
C201 C 0.55518 0.20707 0.37981 0.0
O202 O 0.5704 0.17768 0.385 0.0
O203 O 0.47659 0.25011 0.42885 0.0
O204 O 0.43669 0.28818 0.43794 0.0
O205 O 0.4826 0.26657 0.33091 0.0
O206 O 0.45458 0.289 0.36719 0.0
C207 C 0.45591 0.26393 0.44595 0.0
C208 C 0.45946 0.2866 0.33905 0.0
O209 O 0.52536 0.20837 0.38412 0.0
Mg210 Mg 0.5381 0.78005 0.1848 0.0
O211 O 0.53575 0.72893 0.15308 0.0
O212 O 0.4906 0.73287 0.12422 0.0
Mg213 Mg 0.46257 0.78217 0.13885 0.0
C214 C 0.51638 0.71686 0.13164 0.0
C215 C 0.60117 0.7875 0.22429 0.0
O216 O 0.58067 0.80563 0.24001 0.0
O217 O 0.55007 0.81418 0.14495 0.0
O218 O 0.50148 0.81929 0.12178 0.0
O219 O 0.50983 0.75715 0.22194 0.0
O220 O 0.48782 0.78337 0.18336 0.0
C221 C 0.53135 0.82741 0.12487 0.0
C222 C 0.48414 0.76889 0.20855 0.0
O223 O 0.59152 0.77247 0.19917 0.0
Mg224 Mg 0.92339 0.03893 0.82092 0.0
O225 O 0.90469 0.98279 0.81209 0.0
O226 O 0.87099 0.96955 0.84722 0.0
Mg227 Mg 0.87503 0.0161 0.88278 0.0
C228 C 0.88467 0.96194 0.82281 0.0
C229 C 0.95547 0.00955 0.76672 0.0
O230 O 0.96715 0.99089 0.78878 0.0
O231 O 0.87386 0.05849 0.80836 0.0
O232 O 0.84624 0.04963 0.84897 0.0
O233 O 0.96696 0.0224 0.84689 0.0
O234 O 0.92145 0.03706 0.86753 0.0
C235 C 0.84808 0.06114 0.82252 0.0
C236 C 0.95083 0.02713 0.87081 0.0
O237 O 0.93649 0.03461 0.77246 0.0
Mg238 Mg 0.79262 0.10277 0.47644 0.0
O239 O 0.78714 0.13354 0.52076 0.0
O240 O 0.83125 0.1649 0.53506 0.0
Mg241 Mg 0.86631 0.15278 0.49819 0.0
C242 C 0.80268 0.15473 0.53912 0.0
C243 C 0.73016 0.08049 0.50148 0.0
O244 O 0.75174 0.07353 0.52281 0.0
O245 O 0.78768 0.15337 0.45054 0.0
O246 O 0.83315 0.18222 0.46554 0.0
O247 O 0.81366 0.05723 0.50031 0.0
O248 O 0.84218 0.10149 0.48399 0.0
C249 C 0.8067 0.18003 0.44979 0.0
C250 C 0.84135 0.07205 0.49736 0.0
O251 O 0.73898 0.09264 0.47693 0.0
Mg252 Mg 0.658 0.01574 0.32454 0.0
O253 O 0.67982 0.07089 0.32488 0.0
O254 O 0.70639 0.08305 0.36866 0.0
Mg255 Mg 0.69721 0.03428 0.39668 0.0
C256 C 0.69745 0.0914 0.34211 0.0
C257 C 0.6369 0.0417 0.263 0.0
O258 O 0.6161 0.05776 0.27988 0.0
O259 O 0.70624 0.99166 0.32127 0.0
O260 O 0.73084 0.0006 0.36624 0.0
O261 O 0.61277 0.03679 0.34011 0.0
O262 O 0.65099 0.01644 0.37107 0.0
C263 C 0.73074 0.98832 0.33898 0.0
C264 C 0.62275 0.02992 0.3672 0.0
O265 O 0.65646 0.02046 0.27475 0.0
Mg266 Mg 0.76719 0.00308 0.02721 0.0
O267 O 0.77075 0.9683 0.9852 0.0
O268 O 0.82053 0.94751 0.99053 0.0
Mg269 Mg 0.84868 0.96957 0.03358 0.0
C270 C 0.7933 0.94885 0.97618 0.0
C271 C 0.74508 0.06086 0.98556 0.0
O272 O 0.74486 0.08755 0.96773 0.0
O273 O 0.76538 0.95268 0.05418 0.0
O274 O 0.81614 0.93457 0.05925 0.0
O275 O 0.77852 0.03571 0.07096 0.0
O276 O 0.81493 0.01203 0.04325 0.0
C277 C 0.78639 0.93139 0.06428 0.0
C278 C 0.80804 0.02831 0.06782 0.0
O279 O 0.771 0.05188 -0.00096 0.0
Mg280 Mg 0.28216 0.61639 0.9883 0.0
O281 O 0.28738 0.6494 0.03177 0.0
O282 O 0.33024 0.68517 0.03116 0.0
Mg283 Mg 0.35543 0.67099 0.98757 0.0
C284 C 0.30564 0.67369 0.04376 0.0
C285 C 0.22415 0.59447 0.0273 0.0
O286 O 0.24721 0.59406 0.04848 0.0
O287 O 0.26668 0.66555 0.96309 0.0
O288 O 0.3136 0.69375 0.95914 0.0
O289 O 0.31303 0.57334 0.00689 0.0
O290 O 0.3319 0.61832 0.98297 0.0
C291 C 0.28345 0.69038 0.95284 0.0
C292 C 0.33735 0.58985 0.99687 0.0
O293 O 0.23066 0.60267 0.00074 0.0
Mg294 Mg 0.14321 0.50948 0.82354 0.0
O295 O 0.17117 0.56003 0.81581 0.0
O296 O 0.20279 0.5738 0.85644 0.0
Mg297 Mg 0.1934 0.53059 0.89019 0.0
C298 C 0.19218 0.5799 0.82983 0.0
C299 C 0.0985 0.50985 0.76911 0.0
O300 O 0.07953 0.50368 0.79101 0.0
O301 O 0.1867 0.47534 0.81716 0.0
O302 O 0.21581 0.48661 0.86032 0.0
O303 O 0.10489 0.54023 0.84376 0.0
O304 O 0.14428 0.51581 0.87067 0.0
C305 C 0.21074 0.46944 0.83506 0.0
C306 C 0.11769 0.53291 0.86978 0.0
O307 O 0.12868 0.51004 0.77429 0.0
Mg308 Mg 0.23609 0.50789 0.5271 0.0
O309 O 0.21064 0.46247 0.49709 0.0
O310 O 0.25712 0.44599 0.51059 0.0
Mg311 Mg 0.30605 0.42752 0.52274 0.0
C312 C 0.23007 0.43733 0.49824 0.0
C313 C 0.23962 0.5705 0.57299 0.0
O314 O 0.25021 0.59699 0.59095 0.0
O315 O 0.25028 0.47552 0.56982 0.0
O316 O 0.28978 0.43528 0.56945 0.0
O317 O 0.27897 0.53093 0.49937 0.0
O318 O 0.28266 0.48007 0.51536 0.0
C319 C 0.26838 0.45298 0.58272 0.0
C320 C 0.29668 0.50507 0.50413 0.0
O321 O 0.25884 0.55251 0.55766 0.0
Mg322 Mg 0.43208 0.51659 0.30916 0.0
O323 O 0.39801 0.47173 0.31746 0.0
O324 O 0.3678 0.49742 0.35147 0.0
Mg325 Mg 0.40123 0.53553 0.38105 0.0
C326 C 0.37144 0.47466 0.32995 0.0
C327 C 0.45288 0.48509 0.2498 0.0
O328 O 0.47951 0.4834 0.26665 0.0
O329 O 0.39038 0.55316 0.30179 0.0
O330 O 0.3821 0.57605 0.34805 0.0
O331 O 0.47353 0.48863 0.32869 0.0
O332 O 0.44406 0.52665 0.35415 0.0
C333 C 0.37758 0.57573 0.31937 0.0
C334 C 0.46811 0.50555 0.3538 0.0
O335 O 0.42801 0.49767 0.26098 0.0
C336 C 0.01663 0.01253 0.98765 0.0
N337 N 0.97838 0.99668 0.07129 0.0
C338 C 0.96449 0.02793 0.06532 0.0
C339 C 0.93789 0.03906 0.08018 0.0
C340 C 0.92489 0.01848 0.10237 0.0
C341 C 0.93924 0.98541 0.10728 0.0
C342 C 0.96623 0.97521 0.09168 0.0
Zn343 Zn 0.0213 0.99011 0.05233 0.0
C344 C 0.03201 0.92486 0.01921 0.0
N345 N 0.11179 0.99136 0.01514 0.0
C346 C 0.1251 0.01952 0.00226 0.0
C347 C 0.12915 0.96215 0.02134 0.0
C348 C 0.16178 0.9614 0.01637 0.0
C349 C 0.1765 0.99132 0.00559 0.0
C350 C 0.15782 0.02012 0.99739 0.0
Zn351 Zn 0.06749 0.99478 0.03145 0.0
O352 O 0.00148 0.01041 0.01154 0.0
C353 C 0.05664 0.06016 0.06381 0.0
O354 O 0.04678 0.00784 0.98879 0.0
H355 H 0.1182 0.94026 0.03194 0.0
H356 H 0.97463 0.04522 0.04954 0.0
H357 H 0.11077 0.04235 -0.00254 0.0
O358 O 0.0334 0.0409 0.07059 0.0
O359 O 0.07606 0.04868 0.04483 0.0
H360 H 0.97782 0.95054 0.09632 0.0
O361 O 0.0877 0.98155 0.07428 0.0
O362 O 0.04118 0.96942 0.09237 0.0
O363 O 0.05838 0.94174 0.01795 0.0
O364 O 0.00969 0.93911 0.03373 0.0
C365 C 0.07148 0.97207 0.096 0.0
H366 H 0.92764 0.06369 0.07347 0.0
H367 H 0.93023 0.96709 0.12271 0.0
H368 H 0.1758 0.93888 0.02289 0.0
H369 H 0.16877 0.0435 0.98889 0.0
C370 C 0.36148 0.77261 0.2664 0.0
N371 N 0.27321 0.7574 0.21854 0.0
C372 C 0.28813 0.77811 0.19912 0.0
C373 C 0.28828 0.76796 0.16866 0.0
C374 C 0.27249 0.73663 0.15831 0.0
C375 C 0.25399 0.7181 0.17804 0.0
C376 C 0.25494 0.7289 0.20849 0.0
Zn377 Zn 0.28775 0.76352 0.2627 0.0
C378 C 0.30852 0.6962 0.28766 0.0
N379 N 0.32451 0.77808 0.35321 0.0
C380 C 0.34293 0.80669 0.36268 0.0
C381 C 0.30925 0.75833 0.37313 0.0
C382 C 0.30939 0.76929 0.40348 0.0
C383 C 0.32589 0.80041 0.4133 0.0
C384 C 0.34408 0.81833 0.39295 0.0
Zn385 Zn 0.31029 0.77116 0.3088 0.0
O386 O 0.33646 0.76903 0.24892 0.0
C387 C 0.28933 0.8387 0.28396 0.0
O388 O 0.35847 0.77537 0.29473 0.0
H389 H 0.29469 0.73573 0.3651 0.0
H390 H 0.30249 0.80068 0.20765 0.0
H391 H 0.35461 0.82213 0.34642 0.0
O392 O 0.28004 0.8184 0.26167 0.0
O393 O 0.30453 0.82614 0.30636 0.0
H394 H 0.24346 0.71279 0.22441 0.0
O395 O 0.26152 0.76674 0.32257 0.0
O396 O 0.23987 0.7574 0.27695 0.0
O397 O 0.31622 0.71651 0.31042 0.0
O398 O 0.29504 0.7086 0.26431 0.0
C399 C 0.23667 0.76103 0.30522 0.0
H400 H 0.3027 0.78277 0.15389 0.0
H401 H 0.24156 0.69378 0.17052 0.0
H402 H 0.29508 0.75499 0.41869 0.0
H403 H 0.35701 0.84251 0.39997 0.0
C404 C 0.53574 0.02653 0.58881 0.0
N405 N 0.55833 0.94562 0.52682 0.0
C406 C 0.57579 0.937 0.55191 0.0
C407 C 0.57757 0.90209 0.55957 0.0
C408 C 0.56297 0.87567 0.54023 0.0
C409 C 0.55013 0.88478 0.5119 0.0
C410 C 0.54691 0.92048 0.50605 0.0
Zn411 Zn 0.54368 0.99598 0.52597 0.0
C412 C 0.47337 0.00055 0.52567 0.0
N413 N 0.5136 0.10123 0.52728 0.0
C414 C 0.49154 0.11117 0.54749 0.0
C415 C 0.52353 0.12342 0.50642 0.0
C416 C 0.50943 0.15617 0.50389 0.0
C417 C 0.48543 0.16623 0.52338 0.0
C418 C 0.47745 0.14421 0.54629 0.0
Zn419 Zn 0.52934 0.05127 0.52647 0.0
O420 O 0.54171 0.99806 0.57423 0.0
C421 C 0.59949 0.04585 0.52628 0.0
O422 O 0.53076 0.05371 0.57384 0.0
H423 H 0.54147 0.11517 0.491 0.0
H424 H 0.58606 0.95739 0.56735 0.0
H425 H 0.48387 0.09301 0.56383 0.0
O426 O 0.59201 0.01349 0.5282 0.0
O427 O 0.57768 0.06893 0.52623 0.0
H428 H 0.53334 0.92801 0.48606 0.0
O429 O 0.52879 0.0492 0.47844 0.0
O430 O 0.54531 0.99492 0.47852 0.0
O431 O 0.48075 0.03317 0.52658 0.0
O432 O 0.4953 0.97785 0.52357 0.0
C433 C 0.53851 0.02213 0.4639 0.0
H434 H 0.58848 0.89609 0.58134 0.0
H435 H 0.53966 0.86483 0.49603 0.0
H436 H 0.51628 0.17299 0.48614 0.0
H437 H 0.45926 0.15163 0.56182 0.0
C438 C 0.31252 0.21659 0.74054 0.0
N439 N 0.26497 0.23643 0.81828 0.0
C440 C 0.24955 0.20596 0.80806 0.0
C441 C 0.24899 0.17702 0.82613 0.0
C442 C 0.26436 0.17998 0.85473 0.0
C443 C 0.27654 0.21282 0.86613 0.0
C444 C 0.2766 0.24113 0.84727 0.0
Zn445 Zn 0.28133 0.26714 0.78642 0.0
C446 C 0.35197 0.28338 0.79768 0.0
N447 N 0.31837 0.32166 0.71523 0.0
C448 C 0.30779 0.31338 0.68635 0.0
C449 C 0.32808 0.3551 0.72411 0.0
C450 C 0.32102 0.3829 0.7056 0.0
C451 C 0.30658 0.37558 0.67683 0.0
C452 C 0.30243 0.3402 0.66635 0.0
Zn453 Zn 0.30315 0.29107 0.7481 0.0
O454 O 0.29832 0.22004 0.76502 0.0
C455 C 0.23204 0.27501 0.73761 0.0
O456 O 0.31672 0.24352 0.72509 0.0
H457 H 0.33708 0.36094 0.74703 0.0
H458 H 0.241 0.20255 0.78477 0.0
H459 H 0.29992 0.2867 0.67987 0.0
O460 O 0.23643 0.26221 0.76324 0.0
O461 O 0.25584 0.28847 0.72523 0.0
H462 H 0.28889 0.2655 0.85474 0.0
O463 O 0.29012 0.33839 0.77219 0.0
O464 O 0.26469 0.31411 0.80763 0.0
O465 O 0.34927 0.29335 0.77077 0.0
O466 O 0.32721 0.27266 0.81033 0.0
C467 C 0.27322 0.34185 0.79491 0.0
H468 H 0.23969 0.1518 0.81685 0.0
H469 H 0.28862 0.21553 0.88827 0.0
H470 H 0.32461 0.40982 0.71447 0.0
H471 H 0.29172 0.33366 0.64406 0.0
C472 C 0.09845 0.00403 0.54423 0.0
N473 N 0.04738 0.05317 0.47438 0.0
C474 C 0.07449 0.07334 0.47356 0.0
C475 C 0.08652 0.08124 0.4459 0.0
C476 C 0.07009 0.06839 0.41933 0.0
C477 C 0.04019 0.05159 0.42084 0.0
C478 C 0.02931 0.04388 0.44887 0.0
Zn479 Zn 0.03756 0.02884 0.51259 0.0
C480 C 0.02993 0.94954 0.49969 0.0
N481 N 0.01968 0.97558 0.59205 0.0
C482 C 0.03986 0.98349 0.61651 0.0
C483 C 0.99011 0.96094 0.59507 0.0
C484 C 0.97812 0.95862 0.62366 0.0
C485 C 0.99734 0.97051 0.6489 0.0
C486 C 0.02924 0.98053 0.64538 0.0
Zn487 Zn 0.0297 0.99889 0.55322 0.0
O488 O 0.08792 0.02051 0.52161 0.0
C489 C 0.03423 0.07788 0.56625 0.0
O490 O 0.07896 0.99189 0.56219 0.0
H491 H 0.97457 0.95446 0.57537 0.0
H492 H 0.0883 0.08056 0.4942 0.0
H493 H 0.06295 0.99582 0.61395 0.0
O494 O 0.03934 0.07829 0.53826 0.0
O495 O 0.03146 0.04832 0.57827 0.0
H496 H 0.00796 0.02765 0.45002 0.0
O497 O 0.97945 0.0068 0.54342 0.0
O498 O 0.98894 0.03687 0.50374 0.0
O499 O 0.02812 0.94973 0.52818 0.0
O500 O 0.03343 0.97893 0.48738 0.0
C501 C 0.96928 0.02427 0.52127 0.0
H502 H 0.10985 0.09394 0.44527 0.0
H503 H 0.02729 0.04105 0.40059 0.0
H504 H 0.95336 0.95071 0.62585 0.0
H505 H 0.0445 0.98994 0.66459 0.0
C506 C 0.27071 0.78326 0.72033 0.0
N507 N 0.33841 0.73332 0.77438 0.0
C508 C 0.3414 0.71023 0.75039 0.0
C509 C 0.37159 0.69827 0.74301 0.0
C510 C 0.39863 0.70977 0.76087 0.0
C511 C 0.3946 0.73092 0.78705 0.0
C512 C 0.36406 0.74289 0.79321 0.0
Zn513 Zn 0.29576 0.75765 0.77975 0.0
C514 C 0.30457 0.83736 0.78501 0.0
N515 N 0.20698 0.81042 0.7898 0.0
C516 C 0.18025 0.79035 0.78248 0.0
C517 C 0.20593 0.8383 0.8102 0.0
C518 C 0.17926 0.84267 0.82773 0.0
C519 C 0.15536 0.81617 0.82591 0.0
C520 C 0.15453 0.79172 0.80119 0.0
Zn521 Zn 0.25046 0.78675 0.78301 0.0
O522 O 0.2896 0.76139 0.73233 0.0
C523 C 0.24129 0.70733 0.77923 0.0
O524 O 0.24865 0.7966 0.73587 0.0
H525 H 0.22701 0.85454 0.81576 0.0
H526 H 0.3206 0.70267 0.73594 0.0
H527 H 0.18037 0.7699 0.7648 0.0
O528 O 0.27167 0.70785 0.77851 0.0
O529 O 0.22647 0.7361 0.77664 0.0
H530 H 0.36116 0.76139 0.81206 0.0
O531 O 0.25415 0.77659 0.8307 0.0
O532 O 0.30174 0.75363 0.82701 0.0
O533 O 0.27477 0.83613 0.78929 0.0
O534 O 0.31971 0.80865 0.78142 0.0
C535 C 0.27815 0.76125 0.84284 0.0
H536 H 0.37406 0.68206 0.72259 0.0
H537 H 0.41515 0.7404 0.8011 0.0
H538 H 0.17991 0.86296 0.84571 0.0
H539 H 0.13588 0.77156 0.79805 0.0
C540 C 0.56152 0.94855 0.05527 0.0
N541 N 0.5862 0.05195 0.08594 0.0
C542 C 0.57179 0.04217 0.11101 0.0
C543 C 0.586 0.05045 0.13922 0.0
C544 C 0.6158 0.06784 0.14153 0.0
C545 C 0.62935 0.07996 0.11569 0.0
C546 C 0.61369 0.0719 0.08769 0.0
Zn547 Zn 0.56932 0.02834 0.04682 0.0
C548 C 0.62415 0.00396 0.01129 0.0
N549 N 0.53783 0.97374 0.96601 0.0
C550 C 0.50919 0.95602 0.96286 0.0
C551 C 0.55336 0.98409 0.94166 0.0
C552 C 0.53865 0.98008 0.91304 0.0
C553 C 0.50759 0.96581 0.90966 0.0
C554 C 0.49333 0.95182 0.93446 0.0
Zn555 Zn 0.55392 0.99642 0.00614 0.0
O556 O 0.57049 0.97805 0.068 0.0
C557 C 0.49965 0.02053 0.04365 0.0
O558 O 0.55337 0.94719 0.02731 0.0
H559 H 0.57569 0.99882 0.94459 0.0
H560 H 0.55062 0.02545 0.10919 0.0
H561 H 0.49734 0.94807 0.98257 0.0
O562 O 0.52272 0.03478 0.05942 0.0
O563 O 0.50568 0.00443 0.0189 0.0
H564 H 0.62469 0.07931 0.06735 0.0
O565 O 0.55341 0.04674 0.98491 0.0
O566 O 0.56705 0.07807 0.02618 0.0
O567 O 0.60237 0.9885 0.99454 0.0
O568 O 0.61597 0.0222 0.0341 0.0
C569 C 0.55893 0.07677 -0.00176 0.0
H570 H 0.57528 0.04054 0.15894 0.0
H571 H 0.65255 0.09321 0.11703 0.0
H572 H 0.55 0.9913 0.8942 0.0
H573 H 0.46918 0.94087 0.93235 0.0
C574 C 0.25909 0.22839 0.28173 0.0
N575 N 0.28888 0.29124 0.21345 0.0
C576 C 0.3108 0.26528 0.21001 0.0
C577 C 0.31698 0.2513 0.18157 0.0
C578 C 0.3 0.26359 0.15638 0.0
C579 C 0.27861 0.29152 0.16002 0.0
C580 C 0.27346 0.30525 0.18912 0.0
Zn581 Zn 0.27541 0.30058 0.25656 0.0
C582 C 0.20654 0.30436 0.26074 0.0
N583 N 0.249 0.30946 0.34753 0.0
C584 C 0.25647 0.28962 0.3716 0.0
C585 C 0.23155 0.33934 0.35075 0.0
C586 C 0.22457 0.35283 0.3791 0.0
C587 C 0.2336 0.33431 0.40462 0.0
C588 C 0.24794 0.30112 0.40052 0.0
Zn589 Zn 0.26417 0.30003 0.30478 0.0
O590 O 0.26644 0.2446 0.25855 0.0
C591 C 0.33309 0.29616 0.29957 0.0
O592 O 0.25724 0.24543 0.30681 0.0
H593 H 0.22414 0.35386 0.33132 0.0
H594 H 0.32204 0.25352 0.22943 0.0
H595 H 0.26968 0.26548 0.36853 0.0
O596 O 0.32308 0.29635 0.27225 0.0
O597 O 0.31316 0.29652 0.32035 0.0
H598 H 0.2558 0.32551 0.19235 0.0
O599 O 0.27199 0.35402 0.30248 0.0
O600 O 0.28433 0.35622 0.25569 0.0
O601 O 0.2159 0.30338 0.28832 0.0
O602 O 0.2275 0.30526 0.24115 0.0
C603 C 0.28104 0.37209 0.28117 0.0
H604 H 0.33331 0.22944 0.17939 0.0
H605 H 0.26493 0.3012 0.14084 0.0
H606 H 0.21279 0.37808 0.38109 0.0
H607 H 0.25418 0.28541 0.41964 0.0
C608 C 0.59412 0.5068 0.03907 0.0
N609 N 0.5517 0.56061 0.96801 0.0
C610 C 0.58082 0.57714 0.96787 0.0
C611 C 0.59559 0.58076 0.94069 0.0
C612 C 0.57986 0.5673 0.91397 0.0
C613 C 0.54825 0.55474 0.91441 0.0
C614 C 0.5345 0.55148 0.94197 0.0
Zn615 Zn 0.5383 0.53698 0.00542 0.0
C616 C 0.5269 0.45838 0.99051 0.0
N617 N 0.50951 0.48223 0.07968 0.0
C618 C 0.52415 0.49115 0.10695 0.0
C619 C 0.48379 0.45964 0.07671 0.0
C620 C 0.46995 0.44756 0.10224 0.0
C621 C 0.48271 0.45958 0.13057 0.0
C622 C 0.51097 0.48002 0.13296 0.0
Zn623 Zn 0.52318 0.50756 0.04387 0.0
O624 O 0.58692 0.52521 0.01664 0.0
C625 C 0.53479 0.58608 0.05937 0.0
O626 O 0.57203 0.49614 0.05521 0.0
H627 H 0.47268 0.45296 0.05466 0.0
H628 H 0.594 0.58408 0.98891 0.0
H629 H 0.54474 0.50886 0.10859 0.0
O630 O 0.54283 0.5857 0.0321 0.0
O631 O 0.52623 0.55706 0.07016 0.0
H632 H 0.51158 0.53801 0.94262 0.0
O633 O 0.47452 0.51889 0.03294 0.0
O634 O 0.4889 0.549 0.99476 0.0
O635 O 0.51962 0.45913 0.01786 0.0
O636 O 0.53479 0.48722 0.97909 0.0
C637 C 0.46705 0.53795 0.01103 0.0
H638 H 0.62017 0.59032 0.94087 0.0
H639 H 0.53575 0.54394 0.89403 0.0
H640 H 0.44802 0.43186 0.09997 0.0
H641 H 0.52121 0.48954 0.15475 0.0
C642 C 0.76442 0.30073 0.23114 0.0
N643 N 0.83939 0.25554 0.27843 0.0
C644 C 0.84332 0.23582 0.25258 0.0
C645 C 0.87396 0.22917 0.2429 0.0
C646 C 0.90065 0.24245 0.26031 0.0
C647 C 0.89611 0.26056 0.28794 0.0
C648 C 0.86497 0.26713 0.29654 0.0
Zn649 Zn 0.79457 0.27246 0.28663 0.0
C650 C 0.79701 0.35346 0.30044 0.0
N651 N 0.70334 0.31295 0.30548 0.0
C652 C 0.68083 0.29259 0.28951 0.0
C653 C 0.69594 0.33171 0.33097 0.0
C654 C 0.66608 0.32658 0.34331 0.0
C655 C 0.64518 0.30006 0.33034 0.0
C656 C 0.65182 0.28489 0.302 0.0
Zn657 Zn 0.74949 0.29904 0.2976 0.0
O658 O 0.78786 0.28281 0.24071 0.0
C659 C 0.74833 0.21715 0.28921 0.0
O660 O 0.74244 0.30874 0.24913 0.0
H661 H 0.71424 0.34763 0.34343 0.0
H662 H 0.82262 0.22675 0.23862 0.0
H663 H 0.68704 0.27839 0.26904 0.0
O664 O 0.77625 0.2202 0.27955 0.0
O665 O 0.73279 0.24503 0.29485 0.0
H666 H 0.86124 0.28288 0.31691 0.0
O667 O 0.75836 0.29064 0.34466 0.0
O668 O 0.80125 0.26184 0.33199 0.0
O669 O 0.76691 0.35116 0.30316 0.0
O670 O 0.81299 0.32556 0.29537 0.0
C671 C 0.78199 0.27133 0.35188 0.0
H672 H 0.87679 0.21514 0.22146 0.0
H673 H 0.91639 0.27114 0.30181 0.0
H674 H 0.66122 0.33961 0.36474 0.0
H675 H 0.63604 0.26492 0.29084 0.0
C676 C 0.04837 0.44836 0.56001 0.0
N677 N 0.03056 0.55002 0.59504 0.0
C678 C 0.01208 0.53076 0.61278 0.0
C679 C 0.01803 0.53249 0.64384 0.0
C680 C 0.04292 0.55444 0.65624 0.0
C681 C 0.05776 0.57842 0.6381 0.0
C682 C 0.0511 0.57571 0.60701 0.0
Zn683 Zn 0.03879 0.52771 0.5539 0.0
C684 C 0.10923 0.52628 0.54547 0.0
N685 N 0.05914 0.47542 0.47123 0.0
C686 C 0.03754 0.45 0.46095 0.0
C687 C 0.07587 0.49438 0.45188 0.0
C688 C 0.06605 0.49357 0.42143 0.0
C689 C 0.03865 0.47351 0.41176 0.0
C690 C 0.02623 0.44908 0.43097 0.0
Zn691 Zn 0.05145 0.49855 0.51228 0.0
O692 O 0.04011 0.4768 0.57356 0.0
C693 C 0.98049 0.49901 0.52253 0.0
O694 O 0.0571 0.44938 0.5331 0.0
H695 H 0.09339 0.51396 0.46054 0.0
H696 H 0.99604 0.51043 0.60279 0.0
H697 H 0.02537 0.43439 0.4767 0.0
O698 O 0.98955 0.51995 0.54447 0.0
O699 O 0.0014 0.48711 0.50519 0.0
H700 H 0.06552 0.59066 0.59241 0.0
O701 O 0.04458 0.54834 0.49095 0.0
O702 O 0.03761 0.57818 0.53322 0.0
O703 O 0.10109 0.51062 0.52034 0.0
O704 O 0.08812 0.53492 0.56374 0.0
C705 C 0.04007 0.57786 0.50476 0.0
H706 H 0.00623 0.51377 0.65747 0.0
H707 H 0.07711 0.59563 0.64727 0.0
H708 H 0.07648 0.51223 0.40683 0.0
H709 H 0.00547 0.43273 0.42394 0.0
C710 C 0.80979 0.7237 0.26851 0.0
N711 N 0.7933 0.78011 0.35084 0.0
C712 C 0.79194 0.74622 0.35957 0.0
C713 C 0.81038 0.73648 0.38485 0.0
C714 C 0.8299 0.76203 0.40097 0.0
C715 C 0.82672 0.79747 0.39442 0.0
C716 C 0.80772 0.80606 0.36929 0.0
Zn717 Zn 0.79441 0.78891 0.30561 0.0
C718 C 0.86576 0.80144 0.2951 0.0
N719 N 0.80817 0.812 0.21498 0.0
C720 C 0.78855 0.79363 0.19424 0.0
C721 C 0.82427 0.8416 0.20777 0.0
C722 C 0.81889 0.85539 0.17943 0.0
C723 C 0.79694 0.83834 0.15855 0.0
C724 C 0.78252 0.80646 0.16563 0.0
Zn725 Zn 0.80521 0.80061 0.25905 0.0
O726 O 0.80494 0.73477 0.2953 0.0
C727 C 0.73415 0.78748 0.26993 0.0
O728 O 0.80821 0.74544 0.24758 0.0
H729 H 0.83952 0.85589 0.22467 0.0
H730 H 0.78026 0.72591 0.3449 0.0
H731 H 0.77566 0.77041 0.20058 0.0
O732 O 0.74403 0.77908 0.29622 0.0
O733 O 0.75419 0.79815 0.25165 0.0
H734 H 0.80897 0.8328 0.36236 0.0
O735 O 0.80232 0.85612 0.27099 0.0
O736 O 0.78422 0.84268 0.31436 0.0
O737 O 0.85659 0.80252 0.26742 0.0
O738 O 0.84486 0.79833 0.31458 0.0
C739 C 0.79083 0.86585 0.29588 0.0
H740 H 0.81234 0.70879 0.3896 0.0
H741 H 0.84153 0.8177 0.40644 0.0
H742 H 0.83024 0.88018 0.17448 0.0
H743 H 0.76531 0.79295 0.14994 0.0
C744 C 0.8504 0.2587 0.76154 0.0
N745 N 0.76523 0.23786 0.71115 0.0
C746 C 0.78249 0.25411 0.69045 0.0
C747 C 0.78146 0.24121 0.66068 0.0
C748 C 0.76224 0.21163 0.65212 0.0
C749 C 0.74208 0.1975 0.67302 0.0
C750 C 0.74426 0.21094 0.70288 0.0
Zn751 Zn 0.778 0.25046 0.75513 0.0
C752 C 0.79347 0.18708 0.78862 0.0
N753 N 0.80915 0.27777 0.84606 0.0
C754 C 0.82311 0.30987 0.85332 0.0
C755 C 0.7993 0.25661 0.86789 0.0
C756 C 0.80221 0.26812 0.89824 0.0
C757 C 0.81446 0.30211 0.90604 0.0
C758 C 0.82563 0.3228 0.88325 0.0
Zn759 Zn 0.79626 0.26455 0.80168 0.0
O760 O 0.82709 0.24809 0.74389 0.0
C761 C 0.78036 0.32777 0.7671 0.0
O762 O 0.84503 0.2698 0.78827 0.0
H763 H 0.78782 0.23142 0.86175 0.0
H764 H 0.79893 0.27553 0.69743 0.0
H765 H 0.83101 0.32623 0.83578 0.0
O766 O 0.77718 0.30436 0.74589 0.0
O767 O 0.78748 0.31846 0.79365 0.0
H768 H 0.73083 0.19843 0.71975 0.0
O769 O 0.74781 0.25904 0.81422 0.0
O770 O 0.72906 0.25239 0.76717 0.0
O771 O 0.80418 0.21025 0.8083 0.0
O772 O 0.77909 0.19667 0.7646 0.0
C773 C 0.72414 0.25533 0.79517 0.0
H774 H 0.79709 0.25277 0.64494 0.0
H775 H 0.72687 0.17468 0.66686 0.0
H776 H 0.79362 0.25137 0.91531 0.0
H777 H 0.83548 0.34906 0.88852 0.0
C778 C 0.76629 0.71245 0.76946 0.0
N779 N 0.82947 0.74507 0.70471 0.0
C780 C 0.8353 0.70977 0.70409 0.0
C781 C 0.84441 0.69225 0.67777 0.0
C782 C 0.84901 0.71139 0.65209 0.0
C783 C 0.84476 0.74815 0.65374 0.0
C784 C 0.83434 0.76448 0.68029 0.0
Zn785 Zn 0.8106 0.76679 0.74286 0.0
C786 C 0.74688 0.79854 0.72963 0.0
N787 N 0.76992 0.80661 0.82305 0.0
C788 C 0.77761 0.79309 0.85029 0.0
C789 C 0.75857 0.84 0.82103 0.0
C790 C 0.7575 0.8623 0.8467 0.0
C791 C 0.76843 0.8501 0.87454 0.0
C792 C 0.77716 0.81467 0.87659 0.0
Zn793 Zn 0.78705 0.78395 0.78459 0.0
O794 O 0.7853 0.71799 0.74864 0.0
C795 C 0.85067 0.75074 0.79655 0.0
O796 O 0.76141 0.73712 0.78886 0.0
H797 H 0.75336 0.85066 0.79924 0.0
H798 H 0.83222 0.69482 0.72387 0.0
H799 H 0.78671 0.76659 0.85144 0.0
O800 O 0.84962 0.7489 0.76807 0.0
O801 O 0.82724 0.76458 0.80968 0.0
H802 H 0.82954 0.79246 0.68119 0.0
O803 O 0.81242 0.83062 0.78106 0.0
O804 O 0.83641 0.81638 0.73957 0.0
O805 O 0.74801 0.80223 0.75824 0.0
O806 O 0.77055 0.78453 0.71709 0.0
C807 C 0.83192 0.83827 0.76152 0.0
H808 H 0.84762 0.66392 0.67738 0.0
H809 H 0.84831 0.76375 0.63434 0.0
H810 H 0.75068 0.88958 0.84453 0.0
H811 H 0.78564 0.8046 0.89792 0.0
C812 C 0.5535 0.49837 0.45771 0.0
N813 N 0.49848 0.47956 0.52726 0.0
C814 C 0.48118 0.45956 0.50574 0.0
C815 C 0.44835 0.46424 0.50115 0.0
C816 C 0.43338 0.49043 0.51823 0.0
C817 C 0.4513 0.50984 0.54103 0.0
C818 C 0.48399 0.50358 0.5455 0.0
Zn819 Zn 0.54676 0.4823 0.52282 0.0
C820 C 0.56997 0.4129 0.49732 0.0
N821 N 0.6437 0.48859 0.5007 0.0
C822 C 0.6511 0.51686 0.48455 0.0
C823 C 0.66695 0.46868 0.51391 0.0
C824 C 0.6993 0.47845 0.5125 0.0
C825 C 0.70706 0.50899 0.49762 0.0
C826 C 0.68273 0.52747 0.48265 0.0
Zn827 Zn 0.59669 0.48352 0.50871 0.0
O828 O 0.53471 0.4953 0.47877 0.0
C829 C 0.57359 0.55236 0.53548 0.0
O830 O 0.58344 0.49507 0.46294 0.0
H831 H 0.66036 0.44644 0.52682 0.0
H832 H 0.49302 0.44167 0.49052 0.0
H833 H 0.63234 0.5327 0.4747 0.0
O834 O 0.54766 0.53508 0.53696 0.0
O835 O 0.59717 0.53815 0.52299 0.0
H836 H 0.498 0.51936 0.56235 0.0
O837 O 0.60843 0.47222 0.55473 0.0
O838 O 0.55806 0.46957 0.56723 0.0
O839 O 0.59633 0.42922 0.49455 0.0
O840 O 0.54732 0.4296 0.50919 0.0
C841 C 0.58783 0.46885 0.57467 0.0
H842 H 0.43498 0.44852 0.48371 0.0
H843 H 0.44012 0.52983 0.55499 0.0
H844 H 0.71775 0.4637 0.52419 0.0
H845 H 0.68806 0.55123 0.47105 0.0
C846 C 0.01727 0.51432 0.0954 0.0
N847 N 0.0582 0.44223 0.03513 0.0
C848 C 0.04222 0.41842 0.05097 0.0
C849 C 0.05703 0.38754 0.05928 0.0
C850 C 0.08855 0.38132 0.05132 0.0
C851 C 0.10341 0.40427 0.03238 0.0
C852 C 0.08756 0.435 0.02447 0.0
Zn853 Zn 0.04072 0.49196 0.0355 0.0
C854 C 0.97041 0.49251 0.02216 0.0
N855 N 0.00655 0.59568 0.03952 0.0
C856 C 0.02148 0.61939 0.0597 0.0
C857 C 0.98144 0.60498 0.02112 0.0
C858 C 0.97257 0.64008 0.02042 0.0
C859 C 0.99078 0.66566 0.03776 0.0
C860 C 0.0141 0.65509 0.05901 0.0
Zn861 Zn 0.02327 0.54627 0.03607 0.0
O862 O 0.02889 0.48756 0.08186 0.0
C863 C 0.0946 0.54453 0.04707 0.0
O864 O 0.01519 0.543 0.082 0.0
H865 H 0.96975 0.5857 0.00547 0.0
H866 H 0.01902 0.42465 0.05933 0.0
H867 H 0.04068 0.61105 0.07485 0.0
O868 O 0.08811 0.51174 0.04761 0.0
O869 O 0.07164 0.56603 0.04444 0.0
H870 H 0.09974 0.45413 0.01176 0.0
O871 O 0.03069 0.55074 0.9899 0.0
O872 O 0.05126 0.49762 0.98975 0.0
O873 O 0.97585 0.52552 0.02634 0.0
O874 O 0.99415 0.472 0.02298 0.0
C875 C 0.04566 0.5262 0.97656 0.0
H876 H 0.04499 0.37003 0.07382 0.0
H877 H 0.12771 0.39985 0.0258 0.0
H878 H 0.95462 0.64773 0.00358 0.0
H879 H 0.02867 0.67437 0.07244 0.0
C880 C 0.0653 0.12291 0.13058 0.0
C881 C 0.05411 0.15483 0.1185 0.0
C882 C 0.04835 0.12522 0.06818 0.0
C883 C 0.0615 0.09446 0.08023 0.0
N884 N 0.09168 0.06755 0.12032 0.0
N885 N 0.04389 0.18851 0.07383 0.0
C886 C 0.07311 0.09457 0.11061 0.0
C887 C 0.04818 0.15672 0.08669 0.0
N888 N 0.06653 0.11865 0.16098 0.0
N889 N 0.03532 0.12417 0.03934 0.0
H890 H 0.04501 0.21263 0.08599 0.0
H891 H 0.04271 0.19128 0.05061 0.0
H892 H 0.03634 0.10187 0.0248 0.0
H893 H 0.02186 0.14464 0.03057 0.0
H894 H 0.07194 0.09468 0.17049 0.0
H895 H 0.05854 0.13759 0.17647 0.0
H896 H 0.09821 0.04676 0.10582 0.0
H897 H 0.10316 0.0678 0.14169 0.0
C898 C 0.1486 0.78186 0.31749 0.0
C899 C 0.1416 0.7587 0.34065 0.0
C900 C 0.19702 0.7372 0.34099 0.0
C901 C 0.20415 0.76068 0.31802 0.0
N902 N 0.18906 0.81148 0.29004 0.0
N903 N 0.16027 0.71907 0.37833 0.0
C904 C 0.18055 0.7847 0.3078 0.0
C905 C 0.16627 0.73806 0.35376 0.0
N906 N 0.12453 0.80107 0.30452 0.0
N907 N 0.21905 0.71274 0.34954 0.0
H908 H 0.1378 0.71786 0.38747 0.0
H909 H 0.178 0.70668 0.39113 0.0
H910 H 0.24178 0.71133 0.34106 0.0
H911 H 0.21417 0.6921 0.36336 0.0
H912 H 0.12688 0.8146 0.28488 0.0
H913 H 0.10152 0.80216 0.31262 0.0
H914 H 0.17407 0.83228 0.2847 0.0
H915 H 0.21223 0.81498 0.28287 0.0
C916 C 0.52533 0.79288 0.56946 0.0
C917 C 0.54926 0.78583 0.59222 0.0
C918 C 0.58538 0.82475 0.56704 0.0
C919 C 0.55878 0.83993 0.55187 0.0
N920 N 0.50058 0.84036 0.54362 0.0
N921 N 0.60237 0.80235 0.61458 0.0
C922 C 0.52786 0.82436 0.55395 0.0
C923 C 0.57979 0.80312 0.59135 0.0
N924 N 0.50058 0.76967 0.56215 0.0
N925 N 0.61581 0.83271 0.55946 0.0
H926 H 0.59818 0.79198 0.63519 0.0
H927 H 0.62381 0.81682 0.61496 0.0
H928 H 0.62026 0.84861 0.54151 0.0
H929 H 0.63592 0.82047 0.5689 0.0
H930 H 0.48387 0.77364 0.54442 0.0
H931 H 0.49948 0.74457 0.57074 0.0
H932 H 0.47778 0.83039 0.54735 0.0
H933 H 0.5002 0.86515 0.53454 0.0
C934 C 0.43226 0.3087 0.83879 0.0
C935 C 0.44696 0.2752 0.83987 0.0
C936 C 0.39791 0.24696 0.81651 0.0
C937 C 0.38426 0.28078 0.81304 0.0
N938 N 0.38917 0.3442 0.81796 0.0
N939 N 0.44617 0.21319 0.82485 0.0
C940 C 0.40174 0.3118 0.82322 0.0
C941 C 0.43036 0.24449 0.82753 0.0
N942 N 0.44685 0.33723 0.85382 0.0
N943 N 0.3799 0.21708 0.80931 0.0
H944 H 0.47006 0.21019 0.83219 0.0
H945 H 0.43665 0.19092 0.81285 0.0
H946 H 0.35668 0.21741 0.7996 0.0
H947 H 0.38713 0.19188 0.81483 0.0
H948 H 0.43616 0.36174 0.8566 0.0
H949 H 0.46879 0.33544 0.86582 0.0
H950 H 0.4021 0.3678 0.82169 0.0
H951 H 0.36624 0.34745 0.80812 0.0
C952 C 0.03755 0.87947 0.43503 0.0
C953 C 0.02252 0.84962 0.44692 0.0
C954 C 0.00791 0.88705 0.49037 0.0
C955 C 0.02728 0.91537 0.48105 0.0
N956 N 0.06732 0.93367 0.44676 0.0
N957 N 0.00173 0.8237 0.49078 0.0
C958 C 0.04414 0.91024 0.45405 0.0
C959 C 0.01034 0.85299 0.47612 0.0
N960 N 0.04417 0.87955 0.40526 0.0
N961 N 0.98556 0.89272 0.5114 0.0
H962 H 0.00493 0.79807 0.482 0.0
H963 H 0.99515 0.82494 0.51311 0.0
H964 H 0.98003 0.91773 0.52014 0.0
H965 H 0.9694 0.87313 0.51694 0.0
H966 H 0.05209 0.90211 0.39511 0.0
H967 H 0.0384 0.85861 0.38991 0.0
H968 H 0.08214 0.92877 0.4289 0.0
H969 H 0.07448 0.9558 0.46015 0.0
C970 C 0.47887 0.73204 0.72988 0.0
C971 C 0.49102 0.69793 0.72367 0.0
C972 C 0.44523 0.67147 0.74712 0.0
C973 C 0.43103 0.70532 0.74922 0.0
N974 N 0.43164 0.76679 0.73655 0.0
N975 N 0.48587 0.63476 0.72459 0.0
C976 C 0.44718 0.73541 0.73913 0.0
C977 C 0.47436 0.6674 0.73198 0.0
N978 N 0.49779 0.76134 0.72714 0.0
N979 N 0.4311 0.64355 0.75996 0.0
H980 H 0.50762 0.6313 0.71433 0.0
H981 H 0.47316 0.61135 0.72709 0.0
H982 H 0.4098 0.64587 0.77115 0.0
H983 H 0.44165 0.61893 0.76156 0.0
H984 H 0.4912 0.78663 0.73437 0.0
H985 H 0.52143 0.76002 0.7206 0.0
H986 H 0.44132 0.78831 0.72618 0.0
H987 H 0.4078 0.77039 0.74178 0.0
C988 C 0.51953 0.14204 0.94547 0.0
C989 C 0.54013 0.17219 0.9499 0.0
C990 C 0.57602 0.13791 0.98285 0.0
C991 C 0.55289 0.10985 0.98174 0.0
N992 N 0.49872 0.08991 0.96733 0.0
N993 N 0.5865 0.20019 0.97568 0.0
C994 C 0.52359 0.11317 0.96447 0.0
C995 C 0.56809 0.1705 0.96933 0.0
N996 N 0.49663 0.14031 0.92234 0.0
N997 N 0.60594 0.13306 0.99575 0.0
H998 H 0.58142 0.22425 0.96615 0.0
H999 H 0.6052 0.20162 0.99213 0.0
H1000 H 0.61291 0.10941 0.00505 0.0
H1001 H 0.62475 0.15121 0.99468 0.0
H1002 H 0.48312 0.11751 0.91641 0.0
H1003 H 0.49368 0.16007 0.90689 0.0
H1004 H 0.47589 0.09338 0.95742 0.0
H1005 H 0.49959 0.06957 0.98234 0.0
C1006 C 0.12433 0.27141 0.27421 0.0
C1007 C 0.12513 0.24126 0.2541 0.0
C1008 C 0.16692 0.27004 0.2271 0.0
C1009 C 0.17265 0.29404 0.25209 0.0
N1010 N 0.15242 0.32408 0.29564 0.0
N1011 N 0.14814 0.21134 0.21126 0.0
C1012 C 0.14949 0.2971 0.27424 0.0
C1013 C 0.14637 0.2406 0.23016 0.0
N1014 N 0.0993 0.27571 0.29263 0.0
N1015 N 0.18062 0.27567 0.20051 0.0
H1016 H 0.13386 0.18881 0.21298 0.0
H1017 H 0.16564 0.20849 0.19546 0.0
H1018 H 0.19327 0.29894 0.19706 0.0
H1019 H 0.17553 0.25993 0.18098 0.0
H1020 H 0.09604 0.29836 0.30616 0.0
H1021 H 0.08016 0.25773 0.29251 0.0
H1022 H 0.13907 0.32579 0.31477 0.0
H1023 H 0.16909 0.34465 0.29412 0.0
C1024 C 0.09548 0.98735 0.17952 0.0
C1025 C 0.12659 0.97281 0.1802 0.0
C1026 C 0.11674 0.94903 0.12839 0.0
C1027 C 0.088 0.96866 0.12609 0.0
N1028 N 0.0523 0.01105 0.149 0.0
N1029 N 0.16801 0.94101 0.15534 0.0
C1030 C 0.07766 0.98867 0.15161 0.0
C1031 C 0.13751 0.95372 0.1547 0.0
N1032 N 0.08268 0.99947 0.20569 0.0
N1033 N 0.12364 0.9252 0.10573 0.0
H1034 H 0.18354 0.94345 0.17449 0.0
H1035 H 0.17867 0.93031 0.1364 0.0
H1036 H 0.10826 0.92022 0.08674 0.0
H1037 H 0.14278 0.90791 0.10709 0.0
H1038 H 0.05877 0.00665 0.207 0.0
H1039 H 0.09495 0.99903 0.2267 0.0
H1040 H 0.04647 0.02917 0.16609 0.0
H1041 H 0.03901 0.01469 0.12901 0.0
C1042 C 0.32612 0.81753 0.49841 0.0
C1043 C 0.31508 0.85283 0.49996 0.0
C1044 C 0.30301 0.84876 0.44539 0.0
C1045 C 0.32048 0.81696 0.44345 0.0
N1046 N 0.35086 0.77186 0.46812 0.0
N1047 N 0.29465 0.90333 0.47361 0.0
C1048 C 0.33242 0.80132 0.46999 0.0
C1049 C 0.30349 0.86873 0.47319 0.0
N1050 N 0.32982 0.79924 0.52412 0.0
N1051 N 0.28538 0.85954 0.4208 0.0
H1052 H 0.29363 0.91935 0.49308 0.0
H1053 H 0.29038 0.91707 0.45407 0.0
H1054 H 0.28394 0.84528 0.40014 0.0
H1055 H 0.26957 0.88055 0.42178 0.0
H1056 H 0.33524 0.77249 0.52408 0.0
H1057 H 0.32383 0.80983 0.54514 0.0
H1058 H 0.36302 0.76165 0.48675 0.0
H1059 H 0.35619 0.75935 0.44765 0.0
C1060 C 0.49952 0.99339 0.65879 0.0
C1061 C 0.48535 0.02515 0.66938 0.0
C1062 C 0.51685 0.05875 0.63514 0.0
C1063 C 0.52696 0.02674 0.62121 0.0
N1064 N 0.54115 0.96651 0.62956 0.0
N1065 N 0.47795 0.08785 0.6658 0.0
C1066 C 0.52213 0.99466 0.63582 0.0
C1067 C 0.49353 0.05782 0.6572 0.0
N1068 N 0.49104 0.96203 0.67041 0.0
N1069 N 0.53135 0.08986 0.62878 0.0
H1070 H 0.46013 0.08812 0.68145 0.0
H1071 H 0.48043 0.11168 0.65531 0.0
H1072 H 0.55114 0.09064 0.61536 0.0
H1073 H 0.52689 0.11391 0.63992 0.0
H1074 H 0.49759 0.93751 0.66141 0.0
H1075 H 0.47542 0.96029 0.68787 0.0
H1076 H 0.54036 0.94286 0.64052 0.0
H1077 H 0.56101 0.96868 0.61645 0.0
C1078 C 0.31919 0.11458 0.88999 0.0
C1079 C 0.30194 0.11014 0.91602 0.0
C1080 C 0.25407 0.13445 0.89203 0.0
C1081 C 0.2739 0.14812 0.87036 0.0
N1082 N 0.32294 0.14565 0.84376 0.0
N1083 N 0.25026 0.09493 0.93334 0.0
C1084 C 0.30554 0.13551 0.86721 0.0
C1085 C 0.26819 0.11292 0.91412 0.0
N1086 N 0.34801 0.09848 0.88731 0.0
N1087 N 0.2227 0.14404 0.89262 0.0
H1088 H 0.26084 0.07754 0.94833 0.0
H1089 H 0.22529 0.09426 0.93221 0.0
H1090 H 0.21183 0.15912 0.87601 0.0
H1091 H 0.20788 0.138 0.90988 0.0
H1092 H 0.36135 0.0991 0.8682 0.0
H1093 H 0.3567 0.0812 0.90334 0.0
H1094 H 0.34722 0.1406 0.84195 0.0
H1095 H 0.31303 0.16003 0.82621 0.0
C1096 C 0.10846 0.08443 0.34504 0.0
C1097 C 0.11794 0.04949 0.33735 0.0
C1098 C 0.09989 0.02914 0.38494 0.0
C1099 C 0.08761 0.06316 0.39153 0.0
N1100 N 0.07654 0.12235 0.37694 0.0
N1101 N 0.11455 0.98705 0.34602 0.0
C1102 C 0.09081 0.09068 0.37129 0.0
C1103 C 0.11135 0.02139 0.35618 0.0
N1104 N 0.11725 0.11161 0.32793 0.0
N1105 N 0.1013 0.00437 0.40641 0.0
H1106 H 0.12146 0.9799 0.3244 0.0
H1107 H 0.10684 0.9656 0.35777 0.0
H1108 H 0.09335 0.00882 0.42808 0.0
H1109 H 0.11331 0.98061 0.40368 0.0
H1110 H 0.11394 0.1381 0.334 0.0
H1111 H 0.12997 0.10769 0.30854 0.0
H1112 H 0.0752 0.14227 0.36158 0.0
H1113 H 0.06413 0.12778 0.39636 0.0
C1114 C 0.2664 0.8243 0.64272 0.0
C1115 C 0.29434 0.84626 0.64573 0.0
C1116 C 0.31026 0.81893 0.69276 0.0
C1117 C 0.28012 0.80057 0.69242 0.0
N1118 N 0.22822 0.78808 0.66768 0.0
N1119 N 0.33658 0.8723 0.67894 0.0
C1120 C 0.25768 0.80412 0.6676 0.0
C1121 C 0.31445 0.84578 0.67224 0.0
N1122 N 0.24893 0.82163 0.61589 0.0
N1123 N 0.33524 0.81146 0.71244 0.0
H1124 H 0.33903 0.89407 0.66566 0.0
H1125 H 0.34949 0.87507 0.69962 0.0
H1126 H 0.33519 0.79162 0.72769 0.0
H1127 H 0.35811 0.82246 0.71105 0.0
H1128 H 0.23014 0.80352 0.61137 0.0
H1129 H 0.25493 0.83551 0.5972 0.0
H1130 H 0.20958 0.79287 0.65201 0.0
H1131 H 0.222 0.7712 0.68441 0.0
C1132 C 0.46845 0.01986 0.85039 0.0
C1133 C 0.46461 0.99503 0.82553 0.0
C1134 C 0.48725 0.94886 0.85693 0.0
C1135 C 0.48841 0.97319 0.88198 0.0
N1136 N 0.47269 0.02901 0.90453 0.0
N1137 N 0.46405 0.93369 0.80708 0.0
C1138 C 0.47619 0.00763 0.87936 0.0
C1139 C 0.47222 0.95882 0.82927 0.0
N1140 N 0.46757 0.05537 0.84616 0.0
N1141 N 0.50112 0.91659 0.85941 0.0
H1142 H 0.45106 0.93904 0.78725 0.0
H1143 H 0.46657 0.90671 0.80984 0.0
H1144 H 0.51095 0.908 0.8798 0.0
H1145 H 0.50464 0.89937 0.841 0.0
H1146 H 0.47332 0.07438 0.86331 0.0
H1147 H 0.46523 0.06607 0.82501 0.0
H1148 H 0.46085 0.05302 0.90399 0.0
H1149 H 0.47872 0.02124 0.92627 0.0
C1150 C 0.29691 0.18508 0.10151 0.0
C1151 C 0.31469 0.19774 0.07775 0.0
C1152 C 0.32113 0.25557 0.10457 0.0
C1153 C 0.30179 0.24334 0.12731 0.0
N1154 N 0.26445 0.20001 0.14367 0.0
N1155 N 0.33723 0.24722 0.0532 0.0
C1156 C 0.28735 0.20924 0.12444 0.0
C1157 C 0.32495 0.23368 0.07823 0.0
N1158 N 0.29091 0.1497 0.10335 0.0
N1159 N 0.33666 0.28751 0.10857 0.0
H1160 H 0.33951 0.23232 0.03316 0.0
H1161 H 0.34223 0.274 0.0513 0.0
H1162 H 0.33365 0.3046 0.12724 0.0
H1163 H 0.35407 0.29599 0.09444 0.0
H1164 H 0.28099 0.13885 0.12194 0.0
H1165 H 0.29886 0.13067 0.08792 0.0
H1166 H 0.25088 0.17673 0.1408 0.0
H1167 H 0.25675 0.21722 0.16073 0.0
C1168 C 0.2612 0.99936 0.97938 0.0
C1169 C 0.27605 0.01587 0.0058 0.0
C1170 C 0.22889 0.00379 0.03401 0.0
C1171 C 0.2118 0.99441 0.00628 0.0
N1172 N 0.21126 0.98032 0.95287 0.0
N1173 N 0.28079 0.01627 0.05972 0.0
C1174 C 0.22797 0.99072 0.97906 0.0
C1175 C 0.262 0.01223 0.03372 0.0
N1176 N 0.27916 0.99007 0.95555 0.0
N1177 N 0.21306 0.00726 0.06015 0.0
H1178 H 0.30552 0.02076 0.0594 0.0
H1179 H 0.27284 0.01133 0.08096 0.0
H1180 H 0.18873 0.00136 0.06147 0.0
H1181 H 0.22352 0.01809 0.08027 0.0
H1182 H 0.27003 0.9763 0.93616 0.0
H1183 H 0.30414 0.99148 0.95702 0.0
H1184 H 0.22064 0.98136 0.93168 0.0
H1185 H 0.18726 0.97212 0.95225 0.0
C1186 C 0.67418 0.49085 0.08106 0.0
C1187 C 0.69273 0.47813 0.05709 0.0
C1188 C 0.64516 0.47929 0.02246 0.0
C1189 C 0.62791 0.49651 0.04549 0.0
N1190 N 0.62792 0.52415 0.09547 0.0
N1191 N 0.69725 0.46556 0.00378 0.0
C1192 C 0.6429 0.50371 0.07451 0.0
C1193 C 0.6786 0.47368 0.02744 0.0
N1194 N 0.68591 0.48942 0.11024 0.0
N1195 N 0.62943 0.46696 0.99629 0.0
H1196 H 0.72191 0.46174 0.00634 0.0
H1197 H 0.68879 0.46584 0.98135 0.0
H1198 H 0.60478 0.46942 0.99206 0.0
H1199 H 0.6402 0.45111 0.98005 0.0
H1200 H 0.67213 0.49499 0.12871 0.0
H1201 H 0.70828 0.47908 0.11611 0.0
H1202 H 0.63917 0.53338 0.11581 0.0
H1203 H 0.60534 0.5348 0.09135 0.0
C1204 C 0.86106 0.42383 0.31971 0.0
C1205 C 0.85225 0.45001 0.2991 0.0
C1206 C 0.80561 0.41391 0.28024 0.0
C1207 C 0.81382 0.38833 0.30171 0.0
N1208 N 0.84469 0.3726 0.34617 0.0
N1209 N 0.81349 0.47347 0.26365 0.0
C1210 C 0.84026 0.39436 0.32266 0.0
C1211 C 0.82373 0.44606 0.28046 0.0
N1212 N 0.88982 0.4266 0.33586 0.0
N1213 N 0.78143 0.40695 0.25881 0.0
H1214 H 0.82638 0.49717 0.26298 0.0
H1215 H 0.79112 0.47395 0.25224 0.0
H1216 H 0.76726 0.38407 0.25788 0.0
H1217 H 0.7769 0.42248 0.24041 0.0
H1218 H 0.8994 0.40638 0.34843 0.0
H1219 H 0.90545 0.44815 0.33493 0.0
H1220 H 0.86157 0.37746 0.36397 0.0
H1221 H 0.82921 0.35149 0.34953 0.0
C1222 C 0.90561 0.50119 0.47481 0.0
C1223 C 0.88783 0.52118 0.49562 0.0
C1224 C 0.92362 0.50364 0.53698 0.0
C1225 C 0.94559 0.49285 0.51535 0.0
N1226 N 0.94964 0.46094 0.46772 0.0
N1227 N 0.87518 0.53607 0.5468 0.0
C1228 C 0.93406 0.4848 0.48536 0.0
C1229 C 0.89474 0.51968 0.52701 0.0
N1230 N 0.89621 0.5 0.44491 0.0
N1231 N 0.93071 0.49817 0.56666 0.0
H1232 H 0.85344 0.5471 0.53981 0.0
H1233 H 0.88064 0.53931 0.56986 0.0
H1234 H 0.95106 0.48423 0.57341 0.0
H1235 H 0.91529 0.50394 0.58382 0.0
H1236 H 0.91006 0.48949 0.42797 0.0
H1237 H 0.87453 0.51068 0.43718 0.0
H1238 H 0.94173 0.45295 0.44587 0.0
H1239 H 0.96807 0.44566 0.47664 0.0
C1240 C 0.20299 0.14848 0.27503 0.0
C1241 C 0.22517 0.12058 0.2754 0.0
C1242 C 0.26944 0.16341 0.2731 0.0
C1243 C 0.24766 0.19121 0.27832 0.0
N1244 N 0.19363 0.20998 0.28706 0.0
N1245 N 0.27959 0.10053 0.27497 0.0
C1246 C 0.2144 0.18371 0.27991 0.0
C1247 C 0.25848 0.12777 0.27426 0.0
N1248 N 0.17097 0.14148 0.26976 0.0
N1249 N 0.30043 0.17105 0.26702 0.0
H1250 H 0.27206 0.07411 0.27396 0.0
H1251 H 0.30435 0.10408 0.27782 0.0
H1252 H 0.30909 0.19684 0.26634 0.0
H1253 H 0.31673 0.15208 0.26029 0.0
H1254 H 0.15424 0.1611 0.26595 0.0
H1255 H 0.16147 0.11608 0.26582 0.0
H1256 H 0.17029 0.20502 0.29315 0.0
H1257 H 0.20027 0.23653 0.28928 0.0
C1258 C 0.40332 0.98146 0.57317 0.0
C1259 C 0.37807 0.97449 0.55113 0.0
C1260 C 0.41504 0.9873 0.51149 0.0
C1261 C 0.44079 0.98954 0.5335 0.0
N1262 N 0.46018 0.97959 0.58446 0.0
N1263 N 0.36142 0.96459 0.49846 0.0
C1264 C 0.43517 0.98379 0.56406 0.0
C1265 C 0.3842 0.97593 0.51996 0.0
N1266 N 0.39689 0.98743 0.60281 0.0
N1267 N 0.42004 0.99588 0.48258 0.0
H1268 H 0.33903 0.95497 0.50361 0.0
H1269 H 0.36581 0.96162 0.47564 0.0
H1270 H 0.44263 0.00287 0.4755 0.0
H1271 H 0.40148 0.99838 0.46629 0.0
H1272 H 0.41435 0.99589 0.61925 0.0
H1273 H 0.37364 0.98815 0.61035 0.0
H1274 H 0.45706 0.97164 0.60626 0.0
H1275 H 0.48392 0.97974 0.57853 0.0
C1276 C 0.82037 0.62553 0.27929 0.0
C1277 C 0.84985 0.61948 0.26541 0.0
C1278 C 0.84931 0.67974 0.24734 0.0
C1279 C 0.82081 0.68668 0.2629 0.0
N1280 N 0.77453 0.66343 0.28593 0.0
N1281 N 0.88493 0.63638 0.22649 0.0
C1282 C 0.80485 0.65859 0.27641 0.0
C1283 C 0.86169 0.64492 0.24604 0.0
N1284 N 0.80744 0.59958 0.29551 0.0
N1285 N 0.86648 0.70667 0.23598 0.0
H1286 H 0.89528 0.6117 0.22447 0.0
H1287 H 0.8914 0.65273 0.20952 0.0
H1288 H 0.8597 0.73293 0.23656 0.0
H1289 H 0.88964 0.70368 0.22864 0.0
H1290 H 0.78863 0.60351 0.30971 0.0
H1291 H 0.81623 0.57392 0.29519 0.0
H1292 H 0.76024 0.64337 0.29359 0.0
H1293 H 0.76241 0.68708 0.28362 0.0
C1294 C 0.7839 0.42792 0.77655 0.0
C1295 C 0.7566 0.43642 0.75818 0.0
C1296 C 0.74923 0.37526 0.74087 0.0
C1297 C 0.77467 0.36548 0.76122 0.0
N1298 N 0.8236 0.38405 0.78932 0.0
N1299 N 0.73003 0.42185 0.70985 0.0
C1300 C 0.79452 0.39235 0.77624 0.0
C1301 C 0.74492 0.41137 0.73582 0.0
N1302 N 0.7993 0.45385 0.79424 0.0
N1303 N 0.72736 0.3511 0.72825 0.0
H1304 H 0.72899 0.4484 0.70465 0.0
H1305 H 0.72345 0.40394 0.69205 0.0
H1306 H 0.72662 0.32469 0.73362 0.0
H1307 H 0.70734 0.35853 0.71516 0.0
H1308 H 0.81676 0.44901 0.81105 0.0
H1309 H 0.79399 0.48048 0.792 0.0
H1310 H 0.84005 0.40278 0.79875 0.0
H1311 H 0.83274 0.35861 0.78803 0.0
C1312 C 0.04845 0.87403 0.94951 0.0
C1313 C 0.01711 0.87057 0.93551 0.0
C1314 C 0.99434 0.89001 0.98317 0.0
C1315 C 0.02559 0.89499 0.99653 0.0
N1316 N 0.08049 0.87711 0.99655 0.0
N1317 N 0.96218 0.8889 0.93646 0.0
C1318 C 0.05203 0.88203 0.98094 0.0
C1319 C 0.99049 0.88234 0.95167 0.0
N1320 N 0.07475 0.87305 0.93245 0.0
N1321 N 0.9685 0.89108 0.00075 0.0
H1322 H 0.96016 0.88858 0.91296 0.0
H1323 H 0.94205 0.89834 0.94692 0.0
H1324 H 0.97115 0.89301 0.02421 0.0
H1325 H 0.9452 0.88507 0.99242 0.0
H1326 H 0.09805 0.87779 0.94138 0.0
H1327 H 0.0729 0.87288 0.90897 0.0
H1328 H 0.1001 0.86507 0.98701 0.0
H1329 H 0.08284 0.88145 0.01993 0.0
C1330 C 0.92805 0.29169 0.72986 0.0
C1331 C 0.94276 0.25922 0.72162 0.0
C1332 C 0.89979 0.22707 0.74529 0.0
C1333 C 0.88328 0.25923 0.75 0.0
N1334 N 0.87911 0.32151 0.74216 0.0
N1335 N 0.94084 0.19559 0.71853 0.0
C1336 C 0.89673 0.29138 0.74106 0.0
C1337 C 0.92824 0.22673 0.7287 0.0
N1338 N 0.94457 0.32289 0.72836 0.0
N1339 N 0.88859 0.197 0.75726 0.0
H1340 H 0.96148 0.19439 0.70627 0.0
H1341 H 0.92952 0.17116 0.72008 0.0
H1342 H 0.86814 0.19661 0.76981 0.0
H1343 H 0.90098 0.17333 0.75712 0.0
H1344 H 0.93632 0.34691 0.73702 0.0
H1345 H 0.96803 0.32445 0.72147 0.0
H1346 H 0.88617 0.34483 0.73269 0.0
H1347 H 0.85608 0.32235 0.75018 0.0
C1348 C 0.43061 0.22378 0.48032 0.0
C1349 C 0.45413 0.24993 0.47607 0.0
C1350 C 0.48585 0.23057 0.5196 0.0
C1351 C 0.46781 0.1988 0.51739 0.0
N1352 N 0.42011 0.16618 0.49939 0.0
N1353 N 0.50171 0.28242 0.49378 0.0
C1354 C 0.43853 0.19624 0.49974 0.0
C1355 C 0.48059 0.2553 0.49704 0.0
N1356 N 0.40164 0.2245 0.46469 0.0
N1357 N 0.5092 0.23545 0.54205 0.0
H1358 H 0.4976 0.30094 0.47747 0.0
H1359 H 0.52336 0.2859 0.50631 0.0
H1360 H 0.51315 0.21667 0.55828 0.0
H1361 H 0.52245 0.2588 0.54603 0.0
H1362 H 0.38256 0.20753 0.46832 0.0
H1363 H 0.39572 0.24441 0.45005 0.0
H1364 H 0.40087 0.1607 0.48402 0.0
H1365 H 0.42469 0.146 0.51407 0.0
C1366 C 0.64999 0.7544 0.24293 0.0
C1367 C 0.63547 0.78675 0.23537 0.0
C1368 C 0.68383 0.81926 0.25545 0.0
C1369 C 0.69942 0.78683 0.26039 0.0
N1370 N 0.69928 0.72336 0.25455 0.0
N1371 N 0.64068 0.84944 0.22924 0.0
C1372 C 0.683 0.75431 0.25302 0.0
C1373 C 0.65298 0.81907 0.24026 0.0
N1374 N 0.63198 0.72395 0.24155 0.0
N1375 N 0.69824 0.85029 0.26601 0.0
H1376 H 0.61854 0.85027 0.21735 0.0
H1377 H 0.65369 0.87307 0.22924 0.0
H1378 H 0.72059 0.85135 0.27764 0.0
H1379 H 0.68685 0.87457 0.26585 0.0
H1380 H 0.64021 0.70031 0.24992 0.0
H1381 H 0.60784 0.72292 0.23423 0.0
H1382 H 0.68978 0.69908 0.2463 0.0
H1383 H 0.72331 0.7224 0.26198 0.0
C1384 C 0.99389 0.14608 0.61793 0.0
C1385 C 0.01249 0.17675 0.61349 0.0
C1386 C 0.04859 0.14115 0.58269 0.0
C1387 C 0.02771 0.11141 0.58393 0.0
N1388 N 0.97705 0.08762 0.59941 0.0
N1389 N 0.05537 0.20484 0.58873 0.0
C1390 C 0.99955 0.1143 0.60085 0.0
C1391 C 0.03931 0.17465 0.5951 0.0
N1392 N 0.97124 0.14703 0.63912 0.0
N1393 N 0.07798 0.13711 0.57085 0.0
H1394 H 0.04937 0.22975 0.59748 0.0
H1395 H 0.07281 0.20559 0.57283 0.0
H1396 H 0.08611 0.1128 0.56262 0.0
H1397 H 0.09556 0.15692 0.572 0.0
H1398 H 0.95958 0.12457 0.64604 0.0
H1399 H 0.96607 0.16986 0.65182 0.0
H1400 H 0.95453 0.09022 0.60824 0.0
H1401 H 0.979 0.06407 0.58678 0.0
C1402 C 0.56751 0.25204 0.34177 0.0
C1403 C 0.57358 0.23795 0.37042 0.0
C1404 C 0.62548 0.26856 0.3754 0.0
C1405 C 0.61886 0.28424 0.34721 0.0
N1406 N 0.57884 0.29961 0.3092 0.0
N1407 N 0.60298 0.24233 0.41842 0.0
C1408 C 0.58811 0.27906 0.33242 0.0
C1409 C 0.60067 0.24973 0.38862 0.0
N1410 N 0.54382 0.23788 0.32247 0.0
N1411 N 0.65583 0.26851 0.38844 0.0
H1412 H 0.58493 0.22871 0.42872 0.0
H1413 H 0.62097 0.25305 0.43334 0.0
H1414 H 0.67574 0.2794 0.37904 0.0
H1415 H 0.66192 0.25413 0.40727 0.0
H1416 H 0.54085 0.24478 0.30009 0.0
H1417 H 0.5287 0.21737 0.32815 0.0
H1418 H 0.55572 0.29859 0.29914 0.0
H1419 H 0.59331 0.32012 0.30234 0.0
C1420 C 0.53146 0.8922 0.11737 0.0
C1421 C 0.54261 0.85832 0.10855 0.0
C1422 C 0.57062 0.88448 0.06732 0.0
C1423 C 0.55601 0.91744 0.07394 0.0
N1424 N 0.51689 0.95022 0.10175 0.0
N1425 N 0.57071 0.82103 0.07385 0.0
C1426 C 0.53509 0.92073 0.09817 0.0
C1427 C 0.56178 0.85411 0.08321 0.0
N1428 N 0.5177 0.8973 0.14446 0.0
N1429 N 0.59359 0.88248 0.04653 0.0
H1430 H 0.56527 0.79858 0.08547 0.0
H1431 H 0.58166 0.81556 0.05368 0.0
H1432 H 0.6008 0.90422 0.03483 0.0
H1433 H 0.60738 0.86018 0.04268 0.0
H1434 H 0.51233 0.9222 0.15358 0.0
H1435 H 0.51459 0.87709 0.15927 0.0
H1436 H 0.4987 0.95229 0.11691 0.0
H1437 H 0.51734 0.97118 0.08747 0.0
C1438 C 0.9105 0.74893 0.86307 0.0
C1439 C 0.93766 0.76165 0.84841 0.0
C1440 C 0.91061 0.74576 0.7998 0.0
C1441 C 0.88109 0.74322 0.81402 0.0
N1442 N 0.85395 0.73274 0.8593 0.0
N1443 N 0.96265 0.77434 0.80214 0.0
C1444 C 0.88137 0.74176 0.84581 0.0
C1445 C 0.93763 0.76036 0.81655 0.0
N1446 N 0.91302 0.7419 0.89299 0.0
N1447 N 0.91336 0.73276 0.77094 0.0
H1448 H 0.98251 0.78661 0.81356 0.0
H1449 H 0.96199 0.77694 0.77888 0.0
H1450 H 0.89542 0.71721 0.75958 0.0
H1451 H 0.93507 0.73245 0.76034 0.0
H1452 H 0.89499 0.72978 0.90433 0.0
H1453 H 0.93427 0.74503 0.90615 0.0
H1454 H 0.85084 0.73639 0.8823 0.0
H1455 H 0.83414 0.72141 0.84706 0.0
C1456 C 0.99229 0.04798 0.91076 0.0
C1457 C 0.9667 0.02426 0.90118 0.0
C1458 C 0.97212 0.9947 0.94902 0.0
C1459 C 0.99872 0.01743 0.95827 0.0
N1460 N 0.02988 0.07002 0.95105 0.0
N1461 N 0.93429 0.97293 0.90892 0.0
C1462 C 0.00787 0.04509 0.93983 0.0
C1463 C 0.95678 0.99746 0.91993 0.0
N1464 N 0.00178 0.07323 0.89189 0.0
N1465 N 0.96133 0.97036 0.96803 0.0
H1466 H 0.92351 0.97325 0.88729 0.0
H1467 H 0.92765 0.95072 0.92011 0.0
H1468 H 0.97413 0.963 0.98731 0.0
H1469 H 0.93872 0.95843 0.96547 0.0
H1470 H 0.02272 0.08833 0.89536 0.0
H1471 H 0.98924 0.07845 0.87174 0.0
H1472 H 0.03564 0.09286 0.94029 0.0
H1473 H 0.04086 0.06954 0.9726 0.0
C1474 C 0.76967 0.19792 0.56782 0.0
C1475 C 0.78749 0.16635 0.56693 0.0
C1476 C 0.78419 0.16152 0.62125 0.0
C1477 C 0.76687 0.19348 0.6225 0.0
N1478 N 0.73666 0.2378 0.59689 0.0
N1479 N 0.80571 0.11415 0.5921 0.0
C1480 C 0.75753 0.21035 0.59565 0.0
C1481 C 0.79247 0.14681 0.59312 0.0
N1482 N 0.76529 0.21646 0.54229 0.0
N1483 N 0.79386 0.14531 0.64696 0.0
H1484 H 0.81157 0.10054 0.57227 0.0
H1485 H 0.81157 0.10054 0.57227 0.0
H1486 H 0.78999 0.15551 0.66859 0.0
H1487 H 0.80688 0.12197 0.64656 0.0
H1488 H 0.75562 0.24161 0.54198 0.0
H1489 H 0.77287 0.20731 0.52138 0.0
H1490 H 0.72663 0.24946 0.57795 0.0
H1491 H 0.7272 0.24702 0.617 0.0
C1492 C 0.58595 0.05972 0.40302 0.0
C1493 C 0.59864 0.02812 0.39054 0.0
C1494 C 0.55969 0.99336 0.41711 0.0
C1495 C 0.55024 0.02465 0.43264 0.0
N1496 N 0.54175 0.08698 0.42809 0.0
N1497 N 0.59682 0.96446 0.38406 0.0
C1498 C 0.55958 0.05783 0.42201 0.0
C1499 C 0.58507 0.99478 0.39691 0.0
N1500 N 0.59988 0.09148 0.39763 0.0
N1501 N 0.5428 0.9628 0.42053 0.0
H1502 H 0.614 0.9643 0.36785 0.0
H1503 H 0.5908 0.93924 0.39039 0.0
H1504 H 0.52242 0.96235 0.4332 0.0
H1505 H 0.54648 0.93912 0.40856 0.0
H1506 H 0.59422 0.11502 0.40899 0.0
H1507 H 0.61911 0.09384 0.3837 0.0
H1508 H 0.54607 0.11151 0.41933 0.0
H1509 H 0.51973 0.08531 0.43805 0.0
C1510 C 0.79239 0.86938 0.0785 0.0
C1511 C 0.77738 0.90228 0.08365 0.0
C1512 C 0.76418 0.88455 0.1339 0.0
C1513 C 0.78616 0.85651 0.13114 0.0
N1514 N 0.81983 0.8201 0.1006 0.0
N1515 N 0.74456 0.93952 0.115 0.0
C1516 C 0.79937 0.84779 0.10315 0.0
C1517 C 0.76116 0.90903 0.11066 0.0
N1518 N 0.80002 0.85921 0.04991 0.0
N1519 N 0.74628 0.88759 0.15879 0.0
H1520 H 0.73907 0.95678 0.09806 0.0
H1521 H 0.73677 0.94841 0.13583 0.0
H1522 H 0.74823 0.87017 0.17627 0.0
H1523 H 0.72756 0.90524 0.16099 0.0
H1524 H 0.80883 0.83441 0.04403 0.0
H1525 H 0.79435 0.87458 0.03153 0.0
H1526 H 0.83312 0.81491 0.08175 0.0
H1527 H 0.82482 0.80329 0.11812 0.0
C1528 C 0.97462 0.026 0.71669 0.0
C1529 C 0.9631 0.99991 0.73544 0.0
C1530 C 0.9729 0.95365 0.69689 0.0
C1531 C 0.98278 0.98001 0.67769 0.0
N1532 N 0.98365 0.04157 0.66572 0.0
N1533 N 0.94257 0.94055 0.74007 0.0
C1534 C 0.98055 0.01633 0.68644 0.0
C1535 C 0.95963 0.96413 0.72458 0.0
N1536 N 0.98173 0.05947 0.72806 0.0
N1537 N 0.97706 0.91879 0.68918 0.0
H1538 H 0.93108 0.94768 0.75966 0.0
H1539 H 0.93689 0.91497 0.73179 0.0
H1540 H 0.98643 0.91021 0.66885 0.0
H1541 H 0.97349 0.89864 0.70389 0.0
H1542 H 0.99335 0.07828 0.71596 0.0
H1543 H 0.97907 0.06751 0.7505 0.0
H1544 H 0.97928 0.06821 0.67035 0.0
H1545 H 0.98726 0.03547 0.64306 0.0
C1546 C 0.76753 0.21824 0.42111 0.0
C1547 C 0.7996 0.20792 0.42787 0.0
C1548 C 0.81786 0.25206 0.39387 0.0
C1549 C 0.78613 0.2559 0.38192 0.0
N1550 N 0.73059 0.23563 0.38132 0.0
N1551 N 0.85482 0.20942 0.41267 0.0
C1552 C 0.76067 0.23749 0.39491 0.0
C1553 C 0.82485 0.22357 0.4124 0.0
N1554 N 0.74367 0.21026 0.43968 0.0
N1555 N 0.84158 0.27476 0.38656 0.0
H1556 H 0.86044 0.18542 0.42197 0.0
H1557 H 0.8729 0.21891 0.39969 0.0
H1558 H 0.83696 0.29628 0.37327 0.0
H1559 H 0.86477 0.27428 0.39645 0.0
H1560 H 0.7204 0.21959 0.43651 0.0
H1561 H 0.74803 0.19816 0.46005 0.0
H1562 H 0.71269 0.21902 0.38851 0.0
H1563 H 0.7242 0.24763 0.36137 0.0
C1564 C 0.63732 0.08635 0.22326 0.0
C1565 C 0.6393 0.05048 0.23121 0.0
C1566 C 0.64525 0.03308 0.17841 0.0
C1567 C 0.63419 0.06658 0.17046 0.0
N1568 N 0.62094 0.12632 0.18451 0.0
N1569 N 0.64239 0.98855 0.21512 0.0
C1570 C 0.63112 0.09387 0.19264 0.0
C1571 C 0.64336 0.02344 0.20857 0.0
N1572 N 0.64225 0.11303 0.2447 0.0
N1573 N 0.65559 0.00997 0.15668 0.0
H1574 H 0.63814 0.97969 0.23639 0.0
H1575 H 0.64227 0.96812 0.19863 0.0
H1576 H 0.65657 0.01673 0.13424 0.0
H1577 H 0.6662 0.98599 0.1615 0.0
H1578 H 0.64332 0.13953 0.23956 0.0
H1579 H 0.649 0.10841 0.26704 0.0
H1580 H 0.61452 0.14608 0.20002 0.0
H1581 H 0.61763 0.13268 0.16199 0.0
C1582 C 0.76172 0.89823 0.95082 0.0
C1583 C 0.78653 0.92417 0.94985 0.0
C1584 C 0.80131 0.89912 0.90087 0.0
C1585 C 0.77452 0.87553 0.90056 0.0
N1586 N 0.7262 0.85619 0.92268 0.0
N1587 N 0.82641 0.95333 0.92199 0.0
C1588 C 0.7538 0.87614 0.9248 0.0
C1589 C 0.80539 0.92574 0.92432 0.0
N1590 N 0.7468 0.89343 0.97705 0.0
N1591 N 0.8234 0.89537 0.8793 0.0
H1592 H 0.82977 0.97355 0.93859 0.0
H1593 H 0.83833 0.95792 0.9025 0.0
H1594 H 0.82141 0.87613 0.86176 0.0
H1595 H 0.84514 0.90926 0.88022 0.0
H1596 H 0.73108 0.87245 0.97996 0.0
H1597 H 0.75234 0.90834 0.99695 0.0
H1598 H 0.70836 0.85853 0.93817 0.0
H1599 H 0.71984 0.83937 0.90407 0.0
C1600 C 0.85182 0.06503 0.09442 0.0
C1601 C 0.83247 0.03409 0.09269 0.0
C1602 C 0.87192 0.00505 0.12502 0.0
C1603 C 0.89446 0.03027 0.11658 0.0
N1604 N 0.9006 0.0932 0.11694 0.0
N1605 N 0.81783 0.98103 0.11654 0.0
C1606 C 0.8823 0.06375 0.10979 0.0
C1607 C 0.84035 0.00608 0.11165 0.0
N1608 N 0.84204 0.09427 0.07996 0.0
N1609 N 0.87993 0.98329 0.14764 0.0
H1610 H 0.79396 0.98414 0.10921 0.0
H1611 H 0.82271 0.95802 0.12774 0.0
H1612 H 0.90183 0.98652 0.15998 0.0
H1613 H 0.8641 0.96522 0.15608 0.0
H1614 H 0.85675 0.1164 0.0781 0.0
H1615 H 0.81928 0.09565 0.06923 0.0
H1616 H 0.8925 0.11874 0.11388 0.0
H1617 H 0.92318 0.09127 0.12799 0.0
C1618 C 0.38164 0.5512 0.97904 0.0
C1619 C 0.37045 0.57625 0.00068 0.0
C1620 C 0.42312 0.57748 0.02789 0.0
C1621 C 0.43378 0.55099 0.00721 0.0
N1622 N 0.42282 0.50946 0.96533 0.0
N1623 N 0.37898 0.61157 0.04672 0.0
C1624 C 0.41295 0.53704 0.9833 0.0
C1625 C 0.39081 0.58894 0.02538 0.0
N1626 N 0.36255 0.5417 0.954 0.0
N1627 N 0.44429 0.59252 0.04938 0.0
H1628 H 0.35611 0.62198 0.0445 0.0
H1629 H 0.39089 0.61863 0.06727 0.0
H1630 H 0.46777 0.58408 0.05265 0.0
H1631 H 0.43949 0.61481 0.06282 0.0
H1632 H 0.37032 0.52666 0.9357 0.0
H1633 H 0.33923 0.55082 0.95052 0.0
H1634 H 0.40785 0.4954 0.94951 0.0
H1635 H 0.44571 0.49888 0.96766 0.0
C1636 C 0.22377 0.6101 0.7911 0.0
C1637 C 0.20285 0.61234 0.81529 0.0
C1638 C 0.20442 0.67694 0.81439 0.0
C1639 C 0.22444 0.67495 0.78913 0.0
N1640 N 0.24672 0.63922 0.74945 0.0
N1641 N 0.16668 0.64699 0.84453 0.0
C1642 C 0.23215 0.64132 0.77629 0.0
C1643 C 0.19108 0.64548 0.82512 0.0
N1644 N 0.23642 0.57826 0.78287 0.0
N1645 N 0.1999 0.7083 0.82992 0.0
H1646 H 0.15663 0.62461 0.85339 0.0
H1647 H 0.15441 0.6701 0.84961 0.0
H1648 H 0.20887 0.73248 0.82405 0.0
H1649 H 0.18952 0.70999 0.85075 0.0
H1650 H 0.25452 0.57535 0.76772 0.0
H1651 H 0.23051 0.55495 0.79302 0.0
H1652 H 0.2504 0.61553 0.73744 0.0
H1653 H 0.25221 0.6615 0.73763 0.0
C1654 C 0.19249 0.53303 0.58341 0.0
C1655 C 0.20516 0.56223 0.56889 0.0
C1656 C 0.15373 0.56996 0.54152 0.0
C1657 C 0.14259 0.53785 0.55274 0.0
N1658 N 0.15161 0.48685 0.58226 0.0
N1659 N 0.19957 0.60686 0.53208 0.0
C1660 C 0.162 0.51884 0.57324 0.0
C1661 C 0.18624 0.58036 0.54743 0.0
N1662 N 0.20944 0.51937 0.60717 0.0
N1663 N 0.13294 0.59117 0.52624 0.0
H1664 H 0.22303 0.61615 0.53662 0.0
H1665 H 0.18806 0.61807 0.51359 0.0
H1666 H 0.10874 0.58474 0.52211 0.0
H1667 H 0.13891 0.61654 0.52015 0.0
H1668 H 0.20038 0.50006 0.62047 0.0
H1669 H 0.23185 0.52944 0.61508 0.0
H1670 H 0.16571 0.47025 0.59522 0.0
H1671 H 0.1296 0.47555 0.57465 0.0
C1672 C 0.84413 0.93273 0.78589 0.0
C1673 C 0.87346 0.93081 0.80347 0.0
C1674 C 0.88074 0.86994 0.78403 0.0
C1675 C 0.85076 0.87139 0.7676 0.0
N1676 N 0.8077 0.90523 0.74687 0.0
N1677 N 0.92313 0.90116 0.81435 0.0
C1678 C 0.83382 0.90338 0.76651 0.0
C1679 C 0.89298 0.90057 0.80079 0.0
N1680 N 0.82587 0.96235 0.78825 0.0
N1681 N 0.89642 0.83857 0.78509 0.0
H1682 H 0.93226 0.92257 0.82784 0.0
H1683 H 0.93989 0.88152 0.81075 0.0
H1684 H 0.88894 0.8163 0.77182 0.0
H1685 H 0.91601 0.83415 0.79978 0.0
H1686 H 0.80277 0.96425 0.77862 0.0
H1687 H 0.83321 0.98492 0.80116 0.0
H1688 H 0.79512 0.92822 0.74294 0.0
H1689 H 0.80023 0.88388 0.73242 0.0
C1690 C 0.67912 0.04705 0.48851 0.0
C1691 C 0.69606 0.07361 0.50638 0.0
C1692 C 0.65049 0.08064 0.53875 0.0
C1693 C 0.63272 0.05576 0.51962 0.0
N1694 N 0.62774 0.02125 0.4724 0.0
N1695 N 0.6966 0.12041 0.54501 0.0
C1696 C 0.64635 0.04065 0.49339 0.0
C1697 C 0.68136 0.09183 0.53052 0.0
N1698 N 0.69464 0.02674 0.46778 0.0
N1699 N 0.63844 0.09245 0.56533 0.0
H1700 H 0.71908 0.12957 0.53932 0.0
H1701 H 0.68586 0.13694 0.56076 0.0
H1702 H 0.61603 0.08454 0.57219 0.0
H1703 H 0.65166 0.10768 0.58174 0.0
H1704 H 0.68445 0.00416 0.45676 0.0
H1705 H 0.71871 0.03052 0.46336 0.0
H1706 H 0.63543 0.01337 0.45124 0.0
H1707 H 0.60363 0.01575 0.47486 0.0
C1708 C 0.23838 0.41213 0.84648 0.0
C1709 C 0.23219 0.43996 0.82673 0.0
C1710 C 0.25548 0.40532 0.78573 0.0
C1711 C 0.26283 0.37771 0.80589 0.0
N1712 N 0.27281 0.36327 0.8579 0.0
N1713 N 0.24496 0.46758 0.78111 0.0
C1714 C 0.25795 0.38378 0.83707 0.0
C1715 C 0.2441 0.438 0.79753 0.0
N1716 N 0.22422 0.41132 0.87348 0.0
N1717 N 0.25728 0.40051 0.75521 0.0
H1718 H 0.23736 0.49208 0.78939 0.0
H1719 H 0.25653 0.46865 0.76093 0.0
H1720 H 0.26547 0.37806 0.74417 0.0
H1721 H 0.24786 0.41836 0.74008 0.0
H1722 H 0.22563 0.38958 0.88701 0.0
H1723 H 0.20849 0.43048 0.88104 0.0
H1724 H 0.27189 0.36855 0.88105 0.0
H1725 H 0.28941 0.34409 0.85216 0.0
C1726 C 0.32497 0.60644 0.31676 0.0
C1727 C 0.35623 0.60227 0.30607 0.0
C1728 C 0.34653 0.65009 0.27176 0.0
C1729 C 0.31916 0.65934 0.28772 0.0
N1730 N 0.27972 0.64515 0.32285 0.0
N1731 N 0.39782 0.62127 0.27404 0.0
C1732 C 0.30742 0.63687 0.30929 0.0
C1733 C 0.3671 0.62385 0.2832 0.0
N1734 N 0.31185 0.58083 0.33323 0.0
N1735 N 0.35329 0.66699 0.24628 0.0
H1736 H 0.41463 0.60413 0.28311 0.0
H1737 H 0.40774 0.63833 0.25924 0.0
H1738 H 0.33893 0.6867 0.23749 0.0
H1739 H 0.3713 0.65911 0.23217 0.0
H1740 H 0.28821 0.58103 0.33963 0.0
H1741 H 0.32368 0.55751 0.33802 0.0
H1742 H 0.27181 0.63271 0.34157 0.0
H1743 H 0.26501 0.66533 0.31536 0.0
C1744 C 0.59398 0.62079 0.59834 0.0
C1745 C 0.56723 0.64295 0.59364 0.0
C1746 C 0.55556 0.61412 0.5439 0.0
C1747 C 0.57692 0.58698 0.55183 0.0
N1748 N 0.6184 0.56491 0.58586 0.0
N1749 N 0.53868 0.67395 0.55473 0.0
C1750 C 0.59733 0.59082 0.57845 0.0
C1751 C 0.55273 0.64373 0.56411 0.0
N1752 N 0.6175 0.62983 0.61989 0.0
N1753 N 0.53715 0.61091 0.5176 0.0
H1754 H 0.54028 0.69749 0.56784 0.0
H1755 H 0.5297 0.67713 0.53276 0.0
H1756 H 0.54006 0.5905 0.50148 0.0
H1757 H 0.51814 0.6275 0.51244 0.0
H1758 H 0.6386 0.61577 0.62289 0.0
H1759 H 0.61871 0.65444 0.63128 0.0
H1760 H 0.63023 0.5639 0.60699 0.0
H1761 H 0.62264 0.54299 0.57179 0.0
C1762 C 0.64813 0.2194 0.8273 0.0
C1763 C 0.62971 0.25051 0.83034 0.0
C1764 C 0.67407 0.28529 0.81153 0.0
C1765 C 0.69112 0.25368 0.80602 0.0
N1766 N 0.69299 0.19016 0.80462 0.0
N1767 N 0.62307 0.31239 0.82154 0.0
C1768 C 0.6777 0.22058 0.81271 0.0
C1769 C 0.64219 0.28337 0.8216 0.0
N1770 N 0.63797 0.18902 0.83954 0.0
N1771 N 0.68854 0.31718 0.80747 0.0
H1772 H 0.59969 0.3121 0.82874 0.0
H1773 H 0.62939 0.33606 0.81225 0.0
H1774 H 0.71126 0.31952 0.79894 0.0
H1775 H 0.67901 0.34129 0.81435 0.0
H1776 H 0.65183 0.16646 0.84092 0.0
H1777 H 0.61683 0.18733 0.85097 0.0
H1778 H 0.68286 0.16507 0.80589 0.0
H1779 H 0.71486 0.19004 0.79426 0.0
C1780 C 0.11588 0.33852 0.11938 0.0
C1781 C 0.10327 0.3044 0.11124 0.0
C1782 C 0.09927 0.31804 0.05821 0.0
C1783 C 0.10627 0.35362 0.06703 0.0
N1784 N 0.13358 0.39516 0.10212 0.0
N1785 N 0.0964 0.25737 0.07352 0.0
C1786 C 0.11943 0.36274 0.09634 0.0
C1787 C 0.09982 0.29263 0.08063 0.0
N1788 N 0.12185 0.3485 0.14905 0.0
N1789 N 0.08983 0.30947 0.02894 0.0
H1790 H 0.09783 0.23881 0.09018 0.0
H1791 H 0.09522 0.24656 0.05155 0.0
H1792 H 0.09037 0.32806 0.01233 0.0
H1793 H 0.08099 0.28466 0.0214 0.0
H1794 H 0.12741 0.37429 0.15675 0.0
H1795 H 0.1204 0.33088 0.16628 0.0
H1796 H 0.14539 0.40292 0.12255 0.0
H1797 H 0.13595 0.41314 0.08526 0.0
C1798 C 0.94994 0.81992 0.33104 0.0
C1799 C 0.96261 0.78526 0.33041 0.0
C1800 C 0.91252 0.76205 0.30569 0.0
C1801 C 0.90017 0.79675 0.3047 0.0
N1802 N 0.90846 0.85943 0.31262 0.0
N1803 N 0.95931 0.72533 0.30983 0.0
C1804 C 0.91944 0.82599 0.31606 0.0
C1805 C 0.94493 0.75702 0.31537 0.0
N1806 N 0.96631 0.84655 0.34712 0.0
N1807 N 0.89271 0.7335 0.29932 0.0
H1808 H 0.98324 0.72071 0.31617 0.0
H1809 H 0.94856 0.70496 0.29621 0.0
H1810 H 0.86854 0.73599 0.2933 0.0
H1811 H 0.89936 0.70761 0.30311 0.0
H1812 H 0.95699 0.87154 0.35127 0.0
H1813 H 0.98864 0.84293 0.35804 0.0
H1814 H 0.9223 0.8821 0.31792 0.0
H1815 H 0.88608 0.86441 0.30225 0.0
C1816 C 0.5388 0.35984 0.97263 0.0
C1817 C 0.52688 0.35614 0.94223 0.0
C1818 C 0.51504 0.41953 0.94291 0.0
C1819 C 0.52828 0.4237 0.97299 0.0
N1820 N 0.56221 0.39931 0.01235 0.0
N1821 N 0.51322 0.38434 0.89595 0.0
C1822 C 0.54293 0.39426 0.9867 0.0
C1823 C 0.51821 0.38665 0.92654 0.0
N1824 N 0.54605 0.33048 0.98818 0.0
N1825 N 0.49771 0.44601 0.93043 0.0
H1826 H 0.51663 0.36102 0.88327 0.0
H1827 H 0.50948 0.40628 0.883 0.0
H1828 H 0.49333 0.46987 0.94192 0.0
H1829 H 0.48483 0.44288 0.90977 0.0
H1830 H 0.55119 0.33127 0.01138 0.0
H1831 H 0.54509 0.30504 0.97812 0.0
H1832 H 0.57573 0.3793 0.02176 0.0
H1833 H 0.56777 0.42424 0.02225 0.0
C1834 C 0.98097 0.27096 0.23259 0.0
C1835 C 0.99459 0.23784 0.22487 0.0
C1836 C 0.94791 0.20748 0.24348 0.0
C1837 C 0.93299 0.24056 0.24809 0.0
N1838 N 0.93213 0.30308 0.2395 0.0
N1839 N 0.98792 0.17469 0.21681 0.0
C1840 C 0.94854 0.27212 0.24036 0.0
C1841 C 0.97721 0.20604 0.22859 0.0
N1842 N 0.99933 0.30119 0.23417 0.0
N1843 N 0.93461 0.17764 0.25405 0.0
H1844 H 0.00856 0.17278 0.20461 0.0
H1845 H 0.97457 0.15124 0.21637 0.0
H1846 H 0.91333 0.17778 0.26538 0.0
H1847 H 0.94617 0.15345 0.254 0.0
H1848 H 0.99115 0.32532 0.24269 0.0
H1849 H 0.02373 0.30163 0.23025 0.0
H1850 H 0.94159 0.32596 0.23102 0.0
H1851 H 0.90798 0.30502 0.24423 0.0
C1852 C 0.04961 0.64287 0.4418 0.0
C1853 C 0.03199 0.67253 0.45206 0.0
C1854 C 0.01707 0.63909 0.49568 0.0
C1855 C 0.0381 0.61132 0.48748 0.0
N1856 N 0.08211 0.59392 0.45672 0.0
N1857 N 0.00638 0.7016 0.4937 0.0
C1858 C 0.0567 0.61532 0.46175 0.0
C1859 C 0.01811 0.67149 0.48058 0.0
N1860 N 0.05818 0.6396 0.41258 0.0
N1861 N 0.9946 0.6342 0.51645 0.0
H1862 H 0.00808 0.72614 0.48413 0.0
H1863 H 0.99851 0.70284 0.51559 0.0
H1864 H 0.9906 0.61016 0.52617 0.0
H1865 H 0.97708 0.65274 0.52108 0.0
H1866 H 0.06816 0.61663 0.40355 0.0
H1867 H 0.05207 0.65778 0.39646 0.0
H1868 H 0.09774 0.59786 0.43959 0.0
H1869 H 0.09015 0.57541 0.47181 0.0
C1870 C 0.65918 0.79896 0.72367 0.0
C1871 C 0.65299 0.77779 0.69677 0.0
C1872 C 0.70906 0.78579 0.68374 0.0
C1873 C 0.71548 0.80297 0.71251 0.0
N1874 N 0.6943 0.84308 0.74948 0.0
N1875 N 0.66925 0.75965 0.64713 0.0
C1876 C 0.68959 0.81547 0.72891 0.0
C1877 C 0.67714 0.77377 0.67543 0.0
N1878 N 0.6371 0.8013 0.74532 0.0
N1879 N 0.73328 0.78158 0.66445 0.0
H1880 H 0.64602 0.75145 0.64015 0.0
H1881 H 0.68498 0.758 0.62975 0.0
H1882 H 0.75474 0.796 0.66753 0.0
H1883 H 0.7319 0.76511 0.64507 0.0
H1884 H 0.64207 0.81377 0.76644 0.0
H1885 H 0.61516 0.78776 0.7436 0.0
H1886 H 0.67569 0.85497 0.76076 0.0
H1887 H 0.71631 0.85659 0.75215 0.0
C1888 C 0.63747 0.44704 0.64505 0.0
C1889 C 0.62611 0.47228 0.66637 0.0
C1890 C 0.58858 0.49456 0.62789 0.0
C1891 C 0.59884 0.46815 0.60684 0.0
N1892 N 0.62771 0.41455 0.59715 0.0
N1893 N 0.58533 0.51359 0.68031 0.0
C1894 C 0.62175 0.44297 0.61596 0.0
C1895 C 0.60002 0.49414 0.65845 0.0
N1896 N 0.66401 0.42784 0.65224 0.0
N1897 N 0.56927 0.52127 0.61859 0.0
H1898 H 0.59264 0.51367 0.70308 0.0
H1899 H 0.56395 0.52687 0.67632 0.0
H1900 H 0.56042 0.52339 0.59648 0.0
H1901 H 0.56452 0.54344 0.63224 0.0
H1902 H 0.67566 0.41193 0.63667 0.0
H1903 H 0.67596 0.43006 0.67336 0.0
H1904 H 0.64178 0.39342 0.60359 0.0
H1905 H 0.61605 0.41037 0.57595 0.0
C1906 C 0.84417 0.34845 0.97989 0.0
C1907 C 0.81595 0.34903 0.99655 0.0
C1908 C 0.78579 0.32151 0.9527 0.0
C1909 C 0.81489 0.31669 0.93779 0.0
N1910 N 0.8728 0.31803 0.94089 0.0
N1911 N 0.76113 0.32951 0.00064 0.0
C1912 C 0.84442 0.32778 0.95256 0.0
C1913 C 0.78706 0.33361 0.9835 0.0
N1914 N 0.87016 0.3693 0.98902 0.0
N1915 N 0.7569 0.3162 0.93721 0.0
H1916 H 0.76143 0.3371 0.02348 0.0
H1917 H 0.74053 0.31536 0.99293 0.0
H1918 H 0.75477 0.3087 0.91435 0.0
H1919 H 0.73511 0.32273 0.9463 0.0
H1920 H 0.89007 0.37202 0.97602 0.0
H1921 H 0.87039 0.38717 0.00755 0.0
H1922 H 0.89493 0.32278 0.95239 0.0
H1923 H 0.87402 0.30195 0.92133 0.0
C1924 C 0.95457 0.52877 0.1531 0.0
C1925 C 0.9699 0.51535 0.17915 0.0
C1926 C 0.01657 0.49895 0.15025 0.0
C1927 C 0.00059 0.51119 0.12395 0.0
N1928 N 0.95001 0.52599 0.09897 0.0
N1929 N 0.01138 0.47923 0.20093 0.0
C1930 C 0.96822 0.52243 0.12496 0.0
C1931 C 0.99966 0.49772 0.1772 0.0
N1932 N 0.92806 0.54939 0.15519 0.0
N1933 N 0.04818 0.4901 0.14996 0.0
H1934 H 0.99909 0.47693 0.22062 0.0
H1935 H 0.03145 0.46325 0.19989 0.0
H1936 H 0.06136 0.49086 0.1307 0.0
H1937 H 0.06197 0.48471 0.16935 0.0
H1938 H 0.9184 0.56311 0.13716 0.0
H1939 H 0.91744 0.55563 0.17541 0.0
H1940 H 0.92542 0.53052 0.09848 0.0
H1941 H 0.95865 0.52008 0.07793 0.0
C1942 C 0.90327 0.71015 0.41999 0.0
C1943 C 0.89996 0.70763 0.45107 0.0
C1944 C 0.85919 0.75309 0.451 0.0
C1945 C 0.8583 0.75062 0.41907 0.0
N1946 N 0.88675 0.73568 0.37393 0.0
N1947 N 0.88629 0.73553 0.49775 0.0
C1948 C 0.88306 0.73285 0.40394 0.0
C1949 C 0.88231 0.73306 0.4671 0.0
N1950 N 0.92405 0.6888 0.40537 0.0
N1951 N 0.83666 0.77214 0.46558 0.0
H1952 H 0.90278 0.71971 0.50915 0.0
H1953 H 0.87536 0.75444 0.51131 0.0
H1954 H 0.81958 0.78709 0.45416 0.0
H1955 H 0.83416 0.77218 0.48874 0.0
H1956 H 0.9264 0.68901 0.38211 0.0
H1957 H 0.93922 0.6718 0.41699 0.0
H1958 H 0.8731 0.75232 0.36048 0.0
H1959 H 0.8731 0.75232 0.36048 0.0
C1960 C 0.62002 0.51015 0.8561 0.0
C1961 C 0.62574 0.53469 0.83376 0.0
C1962 C 0.60237 0.58197 0.86463 0.0
C1963 C 0.59839 0.55776 0.8875 0.0
N1964 N 0.60995 0.50118 0.90825 0.0
N1965 N 0.62862 0.59513 0.81897 0.0
C1966 C 0.60948 0.52264 0.8843 0.0
C1967 C 0.61871 0.57102 0.83862 0.0
N1968 N 0.62259 0.47467 0.84976 0.0
N1969 N 0.58984 0.615 0.86747 0.0
H1970 H 0.64129 0.58817 0.80003 0.0
H1971 H 0.627 0.62232 0.82287 0.0
H1972 H 0.5787 0.62409 0.88676 0.0
H1973 H 0.58871 0.63252 0.85009 0.0
H1974 H 0.61513 0.4555 0.86406 0.0
H1975 H 0.62909 0.46402 0.82897 0.0
H1976 H 0.62108 0.47674 0.9081 0.0
H1977 H 0.60185 0.50899 0.92929 0.0
C1978 C 0.75509 0.32674 0.14827 0.0
C1979 C 0.77883 0.35393 0.14836 0.0
C1980 C 0.79282 0.3455 0.20134 0.0
C1981 C 0.76787 0.31957 0.2025 0.0
N1982 N 0.72201 0.28926 0.17785 0.0
N1983 N 0.81094 0.39756 0.17762 0.0
C1984 C 0.7477 0.3116 0.17622 0.0
C1985 C 0.79452 0.36601 0.17579 0.0
N1986 N 0.74062 0.3146 0.12153 0.0
N1987 N 0.81614 0.34989 0.22388 0.0
H1988 H 0.81207 0.41395 0.15945 0.0
H1989 H 0.82018 0.40923 0.19797 0.0
H1990 H 0.81698 0.33568 0.24316 0.0
H1991 H 0.83659 0.3656 0.22208 0.0
H1992 H 0.72545 0.29252 0.11934 0.0
H1993 H 0.74528 0.32574 0.10113 0.0
H1994 H 0.7048 0.28467 0.16029 0.0
H1995 H 0.71683 0.27708 0.19765 0.0
C1996 C 0.98992 0.52981 0.35857 0.0
C1997 C 0.97884 0.50421 0.33604 0.0
C1998 C 0.01073 0.45922 0.36116 0.0
C1999 C 0.01864 0.48392 0.38526 0.0
N2000 N 0.00651 0.5396 0.41095 0.0
N2001 N 0.97209 0.44228 0.32071 0.0
C2002 C 0.00546 0.51831 0.38526 0.0
C2003 C 0.98733 0.46818 0.33866 0.0
N2004 N 0.98735 0.56512 0.35411 0.0
N2005 N 0.02591 0.42754 0.35943 0.0
H2006 H 0.95325 0.44726 0.30528 0.0
H2007 H 0.97551 0.41545 0.32369 0.0
H2008 H 0.04349 0.42035 0.37542 0.0
H2009 H 0.02319 0.41 0.34071 0.0
H2010 H 0.99792 0.58439 0.36905 0.0
H2011 H 0.9782 0.57521 0.33411 0.0
H2012 H 0.99471 0.56365 0.41238 0.0
H2013 H 0.01578 0.5316 0.43171 0.0
C2014 C 0.88797 0.6476 0.59662 0.0
C2015 C 0.87044 0.65428 0.56927 0.0
C2016 C 0.83667 0.69534 0.59705 0.0
C2017 C 0.85698 0.69249 0.62335 0.0
N2018 N 0.90696 0.67193 0.64561 0.0
N2019 N 0.83462 0.69382 0.54285 0.0
C2020 C 0.8842 0.67044 0.62239 0.0
C2021 C 0.84665 0.68086 0.56923 0.0
N2022 N 0.90705 0.61871 0.59859 0.0
N2023 N 0.80728 0.71057 0.59859 0.0
H2024 H 0.84308 0.68659 0.52185 0.0
H2025 H 0.81918 0.71522 0.54224 0.0
H2026 H 0.79809 0.7199 0.61876 0.0
H2027 H 0.79065 0.71018 0.58026 0.0
H2028 H 0.91794 0.61119 0.61888 0.0
H2029 H 0.90908 0.60005 0.58089 0.0
H2030 H 0.92859 0.65858 0.64469 0.0
H2031 H 0.90579 0.68942 0.66429 0.0
C2032 C 0.76853 0.55985 0.4646 0.0
C2033 C 0.77033 0.58788 0.48685 0.0
C2034 C 0.74668 0.55055 0.52325 0.0
C2035 C 0.73946 0.52524 0.49941 0.0
N2036 N 0.75365 0.49827 0.4525 0.0
N2037 N 0.77303 0.60638 0.53927 0.0
C2038 C 0.75469 0.52717 0.47195 0.0
C2039 C 0.76369 0.58181 0.51704 0.0
N2040 N 0.77799 0.56535 0.43622 0.0
N2041 N 0.7346 0.54599 0.55079 0.0
H2042 H 0.78558 0.62939 0.53473 0.0
H2043 H 0.77082 0.60278 0.56213 0.0
H2044 H 0.72307 0.52259 0.55588 0.0
H2045 H 0.73549 0.56523 0.56826 0.0
H2046 H 0.77441 0.54712 0.41813 0.0
H2047 H 0.789 0.58884 0.4306 0.0
H2048 H 0.76545 0.49677 0.43243 0.0
H2049 H 0.74276 0.47465 0.45812 0.0
C2050 C 0.18177 0.0027 0.58247 0.0
C2051 C 0.19852 0.98261 0.56075 0.0
C2052 C 0.14905 0.9749 0.529 0.0
C2053 C 0.13313 0.99775 0.54929 0.0
N2054 N 0.13538 0.03829 0.59271 0.0
N2055 N 0.19981 0.95551 0.51064 0.0
C2056 C 0.14981 0.01311 0.57529 0.0
C2057 C 0.18265 0.97036 0.53321 0.0
N2058 N 0.19581 0.0104 0.61049 0.0
N2059 N 0.13182 0.95622 0.50654 0.0
H2060 H 0.22458 0.95222 0.51261 0.0
H2061 H 0.18997 0.94953 0.48899 0.0
H2062 H 0.10702 0.95808 0.50342 0.0
H2063 H 0.14158 0.93643 0.49297 0.0
H2064 H 0.18355 0.02171 0.62824 0.0
H2065 H 0.21887 0.00247 0.61698 0.0
H2066 H 0.14748 0.05316 0.61009 0.0
H2067 H 0.11198 0.04662 0.58808 0.0
C2068 C 0.36404 0.91439 0.79872 0.0
C2069 C 0.35419 0.93684 0.77519 0.0
C2070 C 0.31175 0.89402 0.75798 0.0
C2071 C 0.32109 0.87205 0.78207 0.0
N2072 N 0.35249 0.86349 0.82794 0.0
N2073 N 0.31685 0.95064 0.73467 0.0
C2074 C 0.34643 0.88272 0.803 0.0
C2075 C 0.32762 0.92726 0.75531 0.0
N2076 N 0.39061 0.92327 0.81687 0.0
N2077 N 0.28813 0.88272 0.73723 0.0
H2078 H 0.32839 0.97473 0.73175 0.0
H2079 H 0.29556 0.94749 0.72159 0.0
H2080 H 0.27523 0.85929 0.73875 0.0
H2081 H 0.28232 0.89528 0.71742 0.0
H2082 H 0.4017 0.9063 0.83177 0.0
H2083 H 0.40301 0.94714 0.81583 0.0
H2084 H 0.3681 0.87163 0.84596 0.0
H2085 H 0.3399 0.84037 0.83197 0.0
C2086 C 0.40972 0.02692 0.0346 0.0
C2087 C 0.40767 0.06178 0.04745 0.0
C2088 C 0.45982 0.05468 0.07312 0.0
C2089 C 0.46602 0.02672 0.05217 0.0
N2090 N 0.44383 0.97768 0.02144 0.0
N2091 N 0.43179 0.1092 0.07997 0.0
C2092 C 0.43985 0.0099 0.03558 0.0
C2093 C 0.43262 0.07559 0.06764 0.0
N2094 N 0.38268 0.01015 0.02235 0.0
N2095 N 0.47907 0.06039 0.0986 0.0
H2096 H 0.45138 0.12101 0.09218 0.0
H2097 H 0.41292 0.12634 0.07615 0.0
H2098 H 0.49655 0.04242 0.10498 0.0
H2099 H 0.47428 0.07942 0.11538 0.0
H2100 H 0.38188 0.98415 0.01378 0.0
H2101 H 0.36017 0.02152 0.02352 0.0
H2102 H 0.42725 0.96588 0.00572 0.0
H2103 H 0.46393 0.96242 0.02621 0.0
C2104 C 0.73173 0.62055 0.74786 0.0
C2105 C 0.72351 0.60881 0.77643 0.0
C2106 C 0.74656 0.66327 0.80035 0.0
C2107 C 0.75089 0.67709 0.77168 0.0
N2108 N 0.73777 0.67164 0.71793 0.0
N2109 N 0.71257 0.62624 0.82802 0.0
C2110 C 0.74053 0.65662 0.74527 0.0
C2111 C 0.72758 0.63241 0.80213 0.0
N2112 N 0.73272 0.59741 0.72351 0.0
N2113 N 0.76183 0.67801 0.82587 0.0
H2114 H 0.6962 0.60551 0.82972 0.0
H2115 H 0.71326 0.64441 0.84638 0.0
H2116 H 0.77878 0.69839 0.82567 0.0
H2117 H 0.76083 0.6667 0.84676 0.0
H2118 H 0.74134 0.60461 0.70303 0.0
H2119 H 0.72848 0.57037 0.72461 0.0
H2120 H 0.72788 0.65817 0.69863 0.0
H2121 H 0.74145 0.69855 0.71526 0.0
C2122 C 0.90511 0.44949 0.06094 0.0
C2123 C 0.87781 0.46938 0.05269 0.0
C2124 C 0.91073 0.5008 0.01747 0.0
C2125 C 0.93687 0.47862 0.02455 0.0
N2126 N 0.95185 0.42146 0.04234 0.0
N2127 N 0.85956 0.52384 0.03187 0.0
C2128 C 0.93185 0.4496 0.04278 0.0
C2129 C 0.8817 0.49764 0.03293 0.0
N2130 N 0.90753 0.43404 0.08802 0.0
N2131 N 0.91356 0.52406 0.99514 0.0
H2132 H 0.84113 0.52582 0.04677 0.0
H2133 H 0.86197 0.5464 0.01964 0.0
H2134 H 0.93414 0.52536 0.9828 0.0
H2135 H 0.89469 0.53897 0.98664 0.0
H2136 H 0.92823 0.42129 0.09554 0.0
H2137 H 0.89142 0.43924 0.10476 0.0
H2138 H 0.9478 0.3992 0.05468 0.0
H2139 H 0.96883 0.41787 0.02615 0.0
C2140 C 0.32145 0.1178 0.73842 0.0
C2141 C 0.35527 0.11482 0.73888 0.0
C2142 C 0.36092 0.17863 0.73277 0.0
C2143 C 0.32701 0.18181 0.73302 0.0
N2144 N 0.27495 0.15387 0.72754 0.0
N2145 N 0.40655 0.14029 0.72813 0.0
C2146 C 0.30728 0.15104 0.73298 0.0
C2147 C 0.3747 0.14448 0.73289 0.0
N2148 N 0.303 0.08905 0.74409 0.0
N2149 N 0.38027 0.20812 0.73521 0.0
H2150 H 0.41804 0.11612 0.72926 0.0
H2151 H 0.421 0.16018 0.72034 0.0
H2152 H 0.37173 0.23377 0.73511 0.0
H2153 H 0.40498 0.20732 0.7397 0.0
H2154 H 0.2786 0.0903 0.74776 0.0
H2155 H 0.31259 0.06396 0.7464 0.0
H2156 H 0.25918 0.13233 0.72496 0.0
H2157 H 0.26443 0.17787 0.7226 0.0
C2158 C 0.23577 0.91397 0.30565 0.0
C2159 C 0.24692 0.94107 0.28768 0.0
C2160 C 0.2856 0.90061 0.26588 0.0
C2161 C 0.27676 0.87488 0.28636 0.0
N2162 N 0.24678 0.85943 0.32943 0.0
N2163 N 0.28424 0.96227 0.25295 0.0
C2164 C 0.25316 0.88242 0.30757 0.0
C2165 C 0.27237 0.93502 0.26834 0.0
N2166 N 0.20722 0.91731 0.31934 0.0
N2167 N 0.30623 0.89201 0.24392 0.0
H2168 H 0.27468 0.98757 0.25419 0.0
H2169 H 0.30485 0.96057 0.24076 0.0
H2170 H 0.31713 0.8675 0.24218 0.0
H2171 H 0.31099 0.90826 0.22637 0.0
H2172 H 0.19606 0.89656 0.32955 0.0
H2173 H 0.19272 0.93941 0.31775 0.0
H2174 H 0.23303 0.86615 0.34768 0.0
H2175 H 0.25677 0.83458 0.3309 0.0
C2176 C 0.51285 0.36261 0.45088 0.0
C2177 C 0.53057 0.34814 0.42696 0.0
C2178 C 0.58038 0.36661 0.45608 0.0
C2179 C 0.56137 0.37937 0.47968 0.0
N2180 N 0.51264 0.36942 0.50483 0.0
N2181 N 0.58174 0.34152 0.40462 0.0
C2182 C 0.52876 0.36964 0.47893 0.0
C2183 C 0.56477 0.35098 0.4291 0.0
N2184 N 0.48165 0.37251 0.44668 0.0
N2185 N 0.61298 0.36834 0.46021 0.0
H2186 H 0.57053 0.33447 0.38368 0.0
H2187 H 0.60655 0.34333 0.40401 0.0
H2188 H 0.62409 0.37626 0.48102 0.0
H2189 H 0.6289 0.3592 0.44451 0.0
H2190 H 0.46883 0.38395 0.46403 0.0
H2191 H 0.47069 0.37549 0.4254 0.0
H2192 H 0.48862 0.36148 0.50508 0.0
H2193 H 0.52459 0.37348 0.52594 0.0
C2194 C 0.43467 0.80143 0.22459 0.0
C2195 C 0.45261 0.76967 0.22341 0.0
C2196 C 0.41386 0.74279 0.25593 0.0
C2197 C 0.39377 0.77259 0.25331 0.0
N2198 N 0.38334 0.8288 0.23184 0.0
N2199 N 0.4557 0.70788 0.23389 0.0
C2200 C 0.40356 0.80129 0.23639 0.0
C2201 C 0.44132 0.73977 0.23814 0.0
N2202 N 0.44812 0.83253 0.21664 0.0
N2203 N 0.40692 0.71736 0.27549 0.0
H2204 H 0.47478 0.70411 0.2199 0.0
H2205 H 0.44658 0.68445 0.24165 0.0
H2206 H 0.38656 0.71785 0.28813 0.0
H2207 H 0.42284 0.69747 0.28109 0.0
H2208 H 0.43727 0.85691 0.21988 0.0
H2209 H 0.47169 0.83491 0.21027 0.0
H2210 H 0.38749 0.84823 0.21659 0.0
H2211 H 0.36139 0.83092 0.24186 0.0
C2212 C 0.99664 0.72767 0.97768 0.0
C2213 C 0.98291 0.75882 0.98961 0.0
C2214 C 0.97614 0.73005 0.03709 0.0
C2215 C 0.99318 0.70083 0.02542 0.0
N2216 N 0.02923 0.67779 0.9887 0.0
N2217 N 0.96279 0.79191 0.03202 0.0
C2218 C 0.00724 0.70213 0.99733 0.0
C2219 C 0.97367 0.76089 0.0199 0.0
N2220 N 0.99628 0.72056 0.94734 0.0
N2221 N 0.96179 0.72786 0.06383 0.0
H2222 H 0.96035 0.8145 0.01957 0.0
H2223 H 0.9582 0.79577 0.05472 0.0
H2224 H 0.96431 0.70587 0.07702 0.0
H2225 H 0.94639 0.74695 0.07211 0.0
H2226 H 0.00436 0.69688 0.93778 0.0
H2227 H 0.98304 0.73563 0.93238 0.0
H2228 H 0.04135 0.67956 0.96886 0.0
H2229 H 0.03767 0.65826 0.00274 0.0
C2230 C 0.15247 0.30931 0.70495 0.0
C2231 C 0.13193 0.28034 0.70996 0.0
C2232 C 0.17903 0.2453 0.72347 0.0
C2233 C 0.19871 0.27618 0.72403 0.0
N2234 N 0.20198 0.33962 0.72046 0.0
N2235 N 0.12555 0.22159 0.72811 0.0
C2236 C 0.18499 0.30872 0.7158 0.0
C2237 C 0.14515 0.24833 0.72002 0.0
N2238 N 0.14116 0.3372 0.68933 0.0
N2239 N 0.19278 0.213 0.72596 0.0
H2240 H 0.10061 0.22302 0.72707 0.0
H2241 H 0.1341 0.19932 0.73863 0.0
H2242 H 0.21756 0.20992 0.72782 0.0
H2243 H 0.17987 0.18929 0.72294 0.0
H2244 H 0.15601 0.35749 0.68277 0.0
H2245 H 0.11775 0.33805 0.68004 0.0
H2246 H 0.19179 0.36434 0.71799 0.0
H2247 H 0.22534 0.34077 0.72963 0.0
C2248 C 0.52094 0.6838 0.0815 0.0
C2249 C 0.52426 0.68398 0.11347 0.0
C2250 C 0.54137 0.62208 0.10924 0.0
C2251 C 0.53263 0.62031 0.07777 0.0
N2252 N 0.50572 0.64922 0.03612 0.0
N2253 N 0.53223 0.65025 0.15799 0.0
C2254 C 0.52022 0.65112 0.06441 0.0
C2255 C 0.53311 0.6523 0.12746 0.0
N2256 N 0.51932 0.71491 0.06718 0.0
N2257 N 0.55859 0.59557 0.12173 0.0
H2258 H 0.52527 0.67114 0.17213 0.0
H2259 H 0.53524 0.62667 0.1689 0.0
H2260 H 0.56662 0.57398 0.10909 0.0
H2261 H 0.56805 0.59711 0.1439 0.0
H2262 H 0.51982 0.71615 0.04384 0.0
H2263 H 0.52141 0.73951 0.07866 0.0
H2264 H 0.49376 0.67047 0.02687 0.0
H2265 H 0.50187 0.62573 0.02334 0.0
C2266 C 0.12816 0.79628 0.90429 0.0
C2267 C 0.09934 0.77764 0.89589 0.0
C2268 C 0.10195 0.80033 0.84555 0.0
C2269 C 0.13474 0.80963 0.85166 0.0
N2270 N 0.18081 0.80781 0.88772 0.0
N2271 N 0.06172 0.75699 0.8556 0.0
C2272 C 0.14841 0.8061 0.88146 0.0
C2273 C 0.08645 0.77883 0.86585 0.0
N2274 N 0.13685 0.80319 0.93398 0.0
N2275 N 0.0861 0.81081 0.81999 0.0
H2276 H 0.05164 0.73832 0.86892 0.0
H2277 H 0.05371 0.75494 0.83299 0.0
H2278 H 0.09691 0.82717 0.80504 0.0
H2279 H 0.06157 0.80623 0.8156 0.0
H2280 H 0.15687 0.81879 0.94096 0.0
H2281 H 0.122 0.79669 0.95117 0.0
H2282 H 0.19111 0.80243 0.90884 0.0
H2283 H 0.19771 0.80963 0.87147 0.0
C2284 C 0.04751 0.38172 0.62148 0.0
C2285 C 0.03093 0.35248 0.60628 0.0
C2286 C 0.0259 0.38607 0.56043 0.0
C2287 C 0.04477 0.41407 0.57483 0.0
N2288 N 0.08034 0.43405 0.6167 0.0
N2289 N 0.01257 0.32364 0.55899 0.0
C2290 C 0.0578 0.4104 0.60459 0.0
C2291 C 0.02285 0.35363 0.57497 0.0
N2292 N 0.05155 0.38363 0.65222 0.0
N2293 N 0.00885 0.39104 0.53396 0.0
H2294 H 0.01095 0.2992 0.56875 0.0
H2295 H 0.00914 0.32234 0.53558 0.0
H2296 H 0.00829 0.41506 0.52351 0.0
H2297 H 0.99235 0.37253 0.52418 0.0
H2298 H 0.06044 0.40615 0.66433 0.0
H2299 H 0.04305 0.3645 0.666 0.0
H2300 H 0.09322 0.43032 0.63697 0.0
H2301 H 0.08851 0.45533 0.60501 0.0
C2302 C 0.41644 0.3289 0.32749 0.0
C2303 C 0.43466 0.29981 0.31765 0.0
C2304 C 0.38745 0.27119 0.29317 0.0
C2305 C 0.3681 0.29777 0.3062 0.0
N2306 N 0.36434 0.35682 0.32857 0.0
N2307 N 0.44065 0.25563 0.27818 0.0
C2308 C 0.38265 0.32842 0.32107 0.0
C2309 C 0.42119 0.27515 0.29593 0.0
N2310 N 0.43184 0.35612 0.34365 0.0
N2311 N 0.37371 0.24126 0.27966 0.0
H2312 H 0.46538 0.26024 0.27875 0.0
H2313 H 0.43198 0.23862 0.26048 0.0
H2314 H 0.34904 0.2367 0.27842 0.0
H2315 H 0.3869 0.21965 0.27236 0.0
H2316 H 0.42043 0.3773 0.35398 0.0
H2317 H 0.45683 0.35681 0.34686 0.0
H2318 H 0.37359 0.38072 0.33783 0.0
H2319 H 0.3396 0.35719 0.32413 0.0
C2320 C 0.50645 0.53613 0.39229 0.0
C2321 C 0.49182 0.50431 0.37963 0.0
C2322 C 0.52862 0.47007 0.41099 0.0
C2323 C 0.53894 0.5015 0.42712 0.0
N2324 N 0.53729 0.56462 0.43451 0.0
N2325 N 0.48655 0.44077 0.37937 0.0
C2326 C 0.52781 0.53464 0.41809 0.0
C2327 C 0.50248 0.47114 0.38941 0.0
N2328 N 0.50138 0.56745 0.37885 0.0
N2329 N 0.54386 0.43919 0.41641 0.0
H2330 H 0.46627 0.44055 0.36467 0.0
H2331 H 0.49153 0.41613 0.38781 0.0
H2332 H 0.56317 0.43781 0.43212 0.0
H2333 H 0.53976 0.4162 0.403 0.0
H2334 H 0.51383 0.5907 0.38555 0.0
H2335 H 0.48727 0.56968 0.35904 0.0
H2336 H 0.52684 0.5891 0.43152 0.0
H2337 H 0.55476 0.56446 0.45215 0.0
C2338 C 0.28071 0.72249 0.07376 0.0
C2339 C 0.29695 0.68983 0.07291 0.0
C2340 C 0.29896 0.68944 0.1278 0.0
C2341 C 0.28004 0.7203 0.12868 0.0
N2342 N 0.24863 0.76341 0.10261 0.0
N2343 N 0.31424 0.6379 0.09839 0.0
C2344 C 0.26972 0.73614 0.10165 0.0
C2345 C 0.30381 0.67192 0.09969 0.0
N2346 N 0.2758 0.74037 0.04794 0.0
N2347 N 0.31361 0.67773 0.15363 0.0
H2348 H 0.31737 0.62373 0.07818 0.0
H2349 H 0.31648 0.62255 0.11722 0.0
H2350 H 0.31179 0.69041 0.17475 0.0
H2351 H 0.33032 0.65754 0.15366 0.0
H2352 H 0.26725 0.76603 0.04762 0.0
H2353 H 0.28224 0.73038 0.0269 0.0
H2354 H 0.23769 0.77381 0.08348 0.0
H2355 H 0.23996 0.77376 0.1227 0.0
C2356 C 0.10519 0.55729 0.92108 0.0
C2357 C 0.0975 0.53368 0.89618 0.0
C2358 C 0.05275 0.50837 0.92252 0.0
C2359 C 0.06038 0.53208 0.94747 0.0
N2360 N 0.09036 0.58316 0.96903 0.0
N2361 N 0.0634 0.48784 0.87159 0.0
C2362 C 0.08539 0.55795 0.94622 0.0
C2363 C 0.07093 0.50971 0.89635 0.0
N2364 N 0.13216 0.57822 0.92107 0.0
N2365 N 0.02848 0.48403 0.92431 0.0
H2366 H 0.07789 0.48498 0.85327 0.0
H2367 H 0.04231 0.47295 0.86846 0.0
H2368 H 0.01305 0.48433 0.94206 0.0
H2369 H 0.02381 0.46297 0.90885 0.0
H2370 H 0.14184 0.59257 0.93995 0.0
H2371 H 0.14629 0.57961 0.90246 0.0
H2372 H 0.10551 0.60501 0.96786 0.0
H2373 H 0.0779 0.58399 0.98866 0.0
C2374 C 0.24758 0.42069 0.62473 0.0
C2375 C 0.26719 0.44804 0.61515 0.0
C2376 C 0.31015 0.43373 0.65107 0.0
C2377 C 0.29183 0.40412 0.6592 0.0
N2378 N 0.23857 0.37947 0.66354 0.0
N2379 N 0.30785 0.49129 0.62941 0.0
C2380 C 0.25883 0.40101 0.64937 0.0
C2381 C 0.2951 0.45849 0.63242 0.0
N2382 N 0.21944 0.4122 0.60901 0.0
N2383 N 0.34221 0.43678 0.6586 0.0
H2384 H 0.29616 0.50935 0.61575 0.0
H2385 H 0.32749 0.50129 0.64268 0.0
H2386 H 0.35499 0.41776 0.67018 0.0
H2387 H 0.35669 0.45657 0.65067 0.0
H2388 H 0.20569 0.38984 0.61278 0.0
H2389 H 0.21077 0.42722 0.59133 0.0
H2390 H 0.21392 0.37808 0.65849 0.0
H2391 H 0.24605 0.36592 0.68248 0.0
C2392 C 0.44214 0.49714 0.19538 0.0
C2393 C 0.45242 0.47366 0.21781 0.0
C2394 C 0.47315 0.43313 0.17953 0.0
C2395 C 0.46413 0.45738 0.15759 0.0
N2396 N 0.43013 0.50493 0.14235 0.0
N2397 N 0.46776 0.41479 0.23056 0.0
C2398 C 0.44471 0.48651 0.16479 0.0
C2399 C 0.46461 0.44 0.20963 0.0
N2400 N 0.4329 0.53073 0.20304 0.0
N2401 N 0.49114 0.40463 0.17174 0.0
H2402 H 0.46081 0.41893 0.25265 0.0
H2403 H 0.47425 0.38889 0.22534 0.0
H2404 H 0.49631 0.39842 0.14941 0.0
H2405 H 0.50181 0.38819 0.18736 0.0
H2406 H 0.42878 0.54993 0.18733 0.0
H2407 H 0.43228 0.54088 0.22513 0.0
H2408 H 0.41341 0.52454 0.14633 0.0
H2409 H 0.43218 0.49806 0.11958 0.0
C2410 C 0.26113 0.69331 0.90042 0.0
C2411 C 0.27005 0.71165 0.9279 0.0
C2412 C 0.2763 0.76586 0.89996 0.0
C2413 C 0.27544 0.745 0.87258 0.0
N2414 N 0.27457 0.68594 0.84893 0.0
N2415 N 0.28429 0.76656 0.95463 0.0
C2416 C 0.26981 0.70793 0.87334 0.0
C2417 C 0.27672 0.74853 0.92793 0.0
N2418 N 0.24509 0.66166 0.89991 0.0
N2419 N 0.27743 0.80181 0.89929 0.0
H2420 H 0.28278 0.7547 0.97526 0.0
H2421 H 0.29288 0.79253 0.95621 0.0
H2422 H 0.27845 0.81496 0.87923 0.0
H2423 H 0.27527 0.81846 0.91833 0.0
H2424 H 0.23653 0.64861 0.87991 0.0
H2425 H 0.23632 0.65113 0.91912 0.0
H2426 H 0.27306 0.6585 0.84956 0.0
H2427 H 0.28417 0.69445 0.82948 0.0
C2428 C 0.09248 0.50421 0.71295 0.0
C2429 C 0.08493 0.52208 0.74024 0.0
C2430 C 0.04947 0.56182 0.71257 0.0
C2431 C 0.05866 0.54534 0.68527 0.0
N2432 N 0.09406 0.50611 0.65885 0.0
N2433 N 0.06263 0.57312 0.76577 0.0
C2434 C 0.08183 0.5182 0.68527 0.0
C2435 C 0.06513 0.55236 0.74006 0.0
N2436 N 0.10843 0.47294 0.71343 0.0
N2437 N 0.02556 0.5861 0.71225 0.0
H2438 H 0.07482 0.56807 0.78613 0.0
H2439 H 0.05109 0.59731 0.76624 0.0
H2440 H 0.01446 0.5945 0.69233 0.0
H2441 H 0.01529 0.59606 0.73167 0.0
H2442 H 0.11138 0.45677 0.69423 0.0
H2443 H 0.1162 0.46144 0.73333 0.0
H2444 H 0.11397 0.48987 0.65804 0.0
H2445 H 0.08627 0.51463 0.63779 0.0
C2446 C 0.24899 0.37717 0.4833 0.0
C2447 C 0.22394 0.40173 0.48275 0.0
C2448 C 0.19824 0.36612 0.44076 0.0
C2449 C 0.22863 0.3513 0.43493 0.0
N2450 N 0.28479 0.34583 0.45168 0.0
N2451 N 0.16886 0.41216 0.46672 0.0
C2452 C 0.25447 0.35686 0.45678 0.0
C2453 C 0.19645 0.39382 0.4634 0.0
N2454 N 0.26682 0.37259 0.50926 0.0
N2455 N 0.17137 0.35321 0.42497 0.0
H2456 H 0.16485 0.4277 0.48605 0.0
H2457 H 0.14976 0.41122 0.4507 0.0
H2458 H 0.17219 0.33197 0.40926 0.0
H2459 H 0.14821 0.36106 0.42942 0.0
H2460 H 0.28437 0.35332 0.51099 0.0
H2461 H 0.26088 0.38507 0.5296 0.0
H2462 H 0.30422 0.35232 0.46669 0.0
H2463 H 0.29136 0.33382 0.43148 0.0
C2464 C 0.351 0.51023 0.48168 0.0
C2465 C 0.33204 0.50716 0.50693 0.0
C2466 C 0.37876 0.49015 0.53777 0.0
C2467 C 0.39851 0.49609 0.51365 0.0
N2468 N 0.40461 0.51838 0.46411 0.0
N2469 N 0.33042 0.50652 0.56114 0.0
C2470 C 0.38502 0.50811 0.48591 0.0
C2471 C 0.34674 0.50101 0.53561 0.0
N2472 N 0.33661 0.51409 0.4538 0.0
N2473 N 0.38999 0.47267 0.56232 0.0
H2474 H 0.30697 0.51547 0.56082 0.0
H2475 H 0.34171 0.50636 0.58256 0.0
H2476 H 0.41308 0.46257 0.56435 0.0
H2477 H 0.37518 0.46481 0.57907 0.0
H2478 H 0.34898 0.5127 0.43403 0.0
H2479 H 0.31183 0.51651 0.45039 0.0
H2480 H 0.3962 0.53025 0.44463 0.0
H2481 H 0.42957 0.51784 0.46672 0.0
C2482 C 0.89368 0.07715 0.52639 0.0
C2483 C 0.87158 0.05586 0.50839 0.0
C2484 C 0.91206 0.00967 0.50493 0.0
C2485 C 0.93534 0.03406 0.51801 0.0
N2486 N 0.94909 0.09392 0.53576 0.0
N2487 N 0.8604 0.00221 0.47787 0.0
C2488 C 0.92643 0.06864 0.52722 0.0
C2489 C 0.88069 0.02186 0.49726 0.0
N2490 N 0.88316 0.10481 0.54363 0.0
N2491 N 0.92009 0.97528 0.49928 0.0
H2492 H 0.8374 0.01015 0.47134 0.0
H2493 H 0.86724 0.97915 0.46645 0.0
H2494 H 0.94323 0.96602 0.50351 0.0
H2495 H 0.90332 0.95552 0.49258 0.0
H2496 H 0.898 0.11955 0.55918 0.0
H2497 H 0.85882 0.10968 0.54496 0.0
H2498 H 0.94352 0.12038 0.53983 0.0
H2499 H 0.97361 0.08921 0.53623 0.0
C2500 C 0.68971 0.14856 0.3158 0.0
C2501 C 0.71064 0.12382 0.32915 0.0
C2502 C 0.75667 0.16057 0.31738 0.0
C2503 C 0.7361 0.18286 0.3002 0.0
N2504 N 0.68296 0.19311 0.27865 0.0
N2505 N 0.76459 0.10192 0.33519 0.0
C2506 C 0.70254 0.17532 0.29811 0.0
C2507 C 0.74425 0.12847 0.32767 0.0
N2508 N 0.65769 0.14717 0.32073 0.0
N2509 N 0.78742 0.17069 0.32612 0.0
H2510 H 0.75675 0.0775 0.34212 0.0
H2511 H 0.78904 0.10291 0.33144 0.0
H2512 H 0.79785 0.19466 0.32137 0.0
H2513 H 0.80153 0.1568 0.34142 0.0
H2514 H 0.64175 0.16665 0.31416 0.0
H2515 H 0.64762 0.12828 0.33393 0.0
H2516 H 0.65854 0.1876 0.27504 0.0
H2517 H 0.69178 0.21087 0.26373 0.0
C2518 C 0.70579 0.04 0.0212 0.0
C2519 C 0.71519 0.04169 0.99119 0.0
C2520 C 0.66809 0.00573 0.97341 0.0
C2521 C 0.65852 0.00543 0.00369 0.0
N2522 N 0.67692 0.00609 0.0559 0.0
N2523 N 0.71046 0.01852 0.93974 0.0
C2524 C 0.68054 0.01695 0.0274 0.0
C2525 C 0.69787 0.02227 0.96747 0.0
N2526 N 0.71965 0.06182 0.04359 0.0
N2527 N 0.64902 0.99061 0.95042 0.0
H2528 H 0.73227 0.03009 0.9348 0.0
H2529 H 0.70071 0.00175 0.92238 0.0
H2530 H 0.63095 0.97229 0.95385 0.0
H2531 H 0.65182 0.99541 0.92783 0.0
H2532 H 0.71127 0.06359 0.0653 0.0
H2533 H 0.73737 0.08051 0.03978 0.0
H2534 H 0.69369 0.01198 0.07366 0.0
H2535 H 0.65909 0.98785 0.06059 0.0
C2536 C 0.32083 0.43825 0.33449 0.0
C2537 C 0.34322 0.4542 0.31622 0.0
C2538 C 0.31544 0.42612 0.27082 0.0
C2539 C 0.295 0.4081 0.28964 0.0
N2540 N 0.26721 0.41277 0.3352 0.0
N2541 N 0.35265 0.47501 0.26671 0.0
C2542 C 0.29401 0.41993 0.32024 0.0
C2543 C 0.33788 0.45163 0.28418 0.0
N2544 N 0.3263 0.43773 0.36501 0.0
N2545 N 0.31313 0.41956 0.24038 0.0
H2546 H 0.36679 0.49601 0.27585 0.0
H2547 H 0.34791 0.47629 0.24358 0.0
H2548 H 0.29326 0.40677 0.22947 0.0
H2549 H 0.33062 0.42737 0.22605 0.0
H2550 H 0.31227 0.42286 0.37864 0.0
H2551 H 0.34674 0.44868 0.37639 0.0
H2552 H 0.26348 0.42217 0.35714 0.0
H2553 H 0.26348 0.42217 0.35714 0.0
C2554 C 0.17329 0.59864 0.05582 0.0
C2555 C 0.19154 0.5813 0.03353 0.0
C2556 C 0.14616 0.54135 0.01973 0.0
C2557 C 0.12837 0.55678 0.04336 0.0
N2558 N 0.12712 0.59659 0.08702 0.0
N2559 N 0.19597 0.53186 0.99728 0.0
C2560 C 0.14253 0.58455 0.06228 0.0
C2561 C 0.17837 0.55153 0.01667 0.0
N2562 N 0.18472 0.6294 0.0699 0.0
N2563 N 0.13231 0.51728 -0.00084 0.0
H2564 H 0.22032 0.53598 0.99417 0.0
H2565 H 0.22032 0.53598 0.99417 0.0
H2566 H 0.10807 0.51109 -0.00185 0.0
H2567 H 0.14468 0.50556 0.98159 0.0
H2568 H 0.17121 0.64539 0.0839 0.0
H2569 H 0.20693 0.64055 0.06569 0.0
H2570 H 0.13749 0.61418 0.10347 0.0
H2571 H 0.10488 0.58659 0.09254 0.0
C2572 C 0.75738 0.95898 0.29555 0.0
C2573 C 0.75765 0.96638 0.32715 0.0
C2574 C 0.79457 0.91709 0.33345 0.0
C2575 C 0.78478 0.9036 0.30406 0.0
N2576 N 0.75651 0.91313 0.25615 0.0
N2577 N 0.78474 0.95744 0.37564 0.0
C2578 C 0.76672 0.92522 0.28447 0.0
C2579 C 0.77906 0.94723 0.34604 0.0
N2580 N 0.74843 0.98446 0.27622 0.0
N2581 N 0.81967 0.90186 0.34864 0.0
H2582 H 0.7797 0.98259 0.38431 0.0
H2583 H 0.79551 0.94122 0.39139 0.0
H2584 H 0.83265 0.88137 0.33887 0.0
H2585 H 0.8298 0.91182 0.36921 0.0
H2586 H 0.74988 0.98129 0.25292 0.0
H2587 H 0.74353 0.01016 0.28396 0.0
H2588 H 0.74025 0.92683 0.24266 0.0
H2589 H 0.76202 0.8884 0.24688 0.0
C2590 C 0.79971 0.10036 0.8279 0.0
C2591 C 0.82191 0.08324 0.80936 0.0
C2592 C 0.81494 0.12802 0.77199 0.0
C2593 C 0.79861 0.14918 0.79344 0.0
N2594 N 0.77047 0.15386 0.83952 0.0
N2595 N 0.83358 0.06949 0.75796 0.0
C2596 C 0.78909 0.13462 0.8206 0.0
C2597 C 0.82385 0.09342 0.77935 0.0
N2598 N 0.78726 0.08286 0.85091 0.0
N2599 N 0.82446 0.14167 0.74587 0.0
H2600 H 0.83838 0.04337 0.76303 0.0
H2601 H 0.83299 0.07416 0.73504 0.0
H2602 H 0.81946 0.16715 0.73945 0.0
H2603 H 0.83976 0.12857 0.73148 0.0
H2604 H 0.76981 0.09304 0.86461 0.0
H2605 H 0.79126 0.05607 0.85365 0.0
H2606 H 0.766 0.14695 0.8613 0.0
H2607 H 0.75999 0.17756 0.83357 0.0
loop_
_geom_bond_atom_site_label_1
_geom_bond_atom_site_label_2
_geom_bond_distance
_geom_bond_site_symmetry_2
_ccdc_geom_bond_type
Mg0 O1 2.028 . S
Mg0 O7 1.986 . S
Mg0 O9 2.114 . S
Mg0 O10 2.251 . S
Mg0 O13 2.010 . S
O1 Mg0 2.028 . S
O1 C4 1.250 . S
O2 Mg3 2.028 . S
O2 C4 1.248 . S
Mg3 O2 2.028 . S
Mg3 O8 2.032 . S
Mg3 O10 2.079 . S
C4 O1 1.250 . S
C4 O2 1.248 . S
C5 O6 1.264 . S
C5 O13 1.249 . S
O6 C5 1.264 . S
O7 Mg0 1.986 . S
O7 C11 1.246 . S
O8 Mg3 2.032 . S
O8 C11 1.259 . S
O9 Mg0 2.114 . S
O9 C12 1.252 . S
O10 Mg0 2.251 . S
O10 Mg3 2.079 . S
O10 C12 1.273 . S
C11 O7 1.246 . S
C11 O8 1.259 . S
C12 O9 1.252 . S
C12 O10 1.273 . S
O13 Mg0 2.010 . S
O13 C5 1.249 . S
Mg14 O15 2.028 . S
Mg14 O21 1.986 . S
Mg14 O23 2.114 . S
Mg14 O24 2.251 1_455 S
Mg14 O27 2.010 . S
O15 Mg14 2.028 . S
O15 C18 1.250 . S
O16 Mg17 2.028 1_455 S
O16 C18 1.248 . S
Mg17 O16 2.028 1_655 S
Mg17 O22 2.032 1_655 S
Mg17 O24 2.079 . S
C18 O15 1.250 . S
C18 O16 1.248 . S
C19 O20 1.264 . S
C19 O27 1.249 . S
O20 C19 1.264 . S
O21 Mg14 1.986 . S
O21 C25 1.246 . S
O22 Mg17 2.032 1_455 S
O22 C25 1.259 . S
O23 Mg14 2.114 . S
O23 C26 1.252 1_455 S
O24 Mg14 2.251 1_655 S
O24 Mg17 2.079 . S
O24 C26 1.273 . S
C25 O21 1.246 . S
C25 O22 1.259 . S
C26 O23 1.252 1_655 S
C26 O24 1.273 . S
O27 Mg14 2.010 . S
O27 C19 1.249 . S
Mg28 O29 2.028 . S
Mg28 O35 1.986 . S
Mg28 O37 2.114 . S
Mg28 O38 2.251 . S
Mg28 O41 2.010 . S
O29 Mg28 2.028 . S
O29 C32 1.250 . S
O30 Mg31 2.028 . S
O30 C32 1.248 . S
Mg31 O30 2.028 . S
Mg31 O36 2.032 . S
Mg31 O38 2.079 . S
C32 O29 1.250 . S
C32 O30 1.248 . S
C33 O34 1.264 . S
C33 O41 1.249 . S
O34 C33 1.264 . S
O35 Mg28 1.986 . S
O35 C39 1.246 . S
O36 Mg31 2.032 . S
O36 C39 1.259 . S
O37 Mg28 2.114 . S
O37 C40 1.252 . S
O38 Mg28 2.251 . S
O38 Mg31 2.079 . S
O38 C40 1.273 . S
C39 O35 1.246 . S
C39 O36 1.259 . S
C40 O37 1.252 . S
C40 O38 1.273 . S
O41 Mg28 2.010 . S
O41 C33 1.249 . S
Mg42 O43 2.028 . S
Mg42 O49 1.986 . S
Mg42 O51 2.114 . S
Mg42 O52 2.251 . S
Mg42 O55 2.010 . S
O43 Mg42 2.028 . S
O43 C46 1.250 . S
O44 Mg45 2.028 . S
O44 C46 1.248 . S
Mg45 O44 2.028 . S
Mg45 O50 2.032 . S
Mg45 O52 2.079 . S
C46 O43 1.250 . S
C46 O44 1.248 . S
C47 O48 1.264 . S
C47 O55 1.249 . S
O48 C47 1.264 . S
O49 Mg42 1.986 . S
O49 C53 1.246 . S
O50 Mg45 2.032 . S
O50 C53 1.259 . S
O51 Mg42 2.114 . S
O51 C54 1.252 . S
O52 Mg42 2.251 . S
O52 Mg45 2.079 . S
O52 C54 1.273 . S
C53 O49 1.246 . S
C53 O50 1.259 . S
C54 O51 1.252 . S
C54 O52 1.273 . S
O55 Mg42 2.010 . S
O55 C47 1.249 . S
Mg56 O57 2.028 . S
Mg56 O63 1.986 1_545 S
Mg56 O65 2.114 . S
Mg56 O66 2.251 . S
Mg56 O69 2.010 . S
O57 Mg56 2.028 . S
O57 C60 1.250 . S
O58 Mg59 2.028 . S
O58 C60 1.248 . S
Mg59 O58 2.028 . S
Mg59 O64 2.032 1_545 S
Mg59 O66 2.079 . S
C60 O57 1.250 . S
C60 O58 1.248 . S
C61 O62 1.267 . S
C61 O69 1.249 . S
O62 C61 1.267 . S
O63 Mg56 1.986 1_565 S
O63 C67 1.246 . S
O64 Mg59 2.032 1_565 S
O64 C67 1.259 . S
O65 Mg56 2.114 . S
O65 C68 1.252 . S
O66 Mg56 2.251 . S
O66 Mg59 2.079 . S
O66 C68 1.273 . S
C67 O63 1.246 . S
C67 O64 1.259 . S
C68 O65 1.252 . S
C68 O66 1.273 . S
O69 Mg56 2.010 . S
O69 C61 1.249 . S
Mg70 O71 2.028 . S
Mg70 O77 1.986 . S
Mg70 O79 2.114 . S
Mg70 O80 2.251 . S
Mg70 O83 2.010 . S
O71 Mg70 2.028 . S
O71 C74 1.250 . S
O72 Mg73 2.028 . S
O72 C74 1.248 . S
Mg73 O72 2.028 . S
Mg73 O78 2.032 . S
Mg73 O80 2.079 . S
C74 O71 1.250 . S
C74 O72 1.248 . S
C75 O76 1.264 1_565 S
C75 O83 1.249 . S
O76 C75 1.264 1_545 S
O77 Mg70 1.986 . S
O77 C81 1.246 . S
O78 Mg73 2.032 . S
O78 C81 1.259 . S
O79 Mg70 2.114 . S
O79 C82 1.252 . S
O80 Mg70 2.251 . S
O80 Mg73 2.079 . S
O80 C82 1.273 . S
C81 O77 1.246 . S
C81 O78 1.259 . S
C82 O79 1.252 . S
C82 O80 1.273 . S
O83 Mg70 2.010 . S
O83 C75 1.249 . S
Mg84 O85 2.028 1_545 S
Mg84 O91 1.986 . S
Mg84 O93 2.114 . S
Mg84 O94 2.251 . S
Mg84 O97 2.010 . S
O85 Mg84 2.028 1_565 S
O85 C88 1.250 . S
O86 Mg87 2.028 1_565 S
O86 C88 1.248 . S
Mg87 O86 2.028 1_545 S
Mg87 O92 2.032 . S
Mg87 O94 2.079 . S
C88 O85 1.250 . S
C88 O86 1.248 . S
C89 O90 1.264 . S
C89 O97 1.249 . S
O90 C89 1.264 . S
O91 Mg84 1.986 . S
O91 C95 1.246 . S
O92 Mg87 2.032 . S
O92 C95 1.259 . S
O93 Mg84 2.114 . S
O93 C96 1.252 . S
O94 Mg84 2.251 . S
O94 Mg87 2.079 . S
O94 C96 1.273 . S
C95 O91 1.246 . S
C95 O92 1.259 . S
C96 O93 1.252 . S
C96 O94 1.273 . S
O97 Mg84 2.010 . S
O97 C89 1.249 . S
Mg98 O99 2.028 . S
Mg98 O105 1.986 1_554 S
Mg98 O107 2.114 . S
Mg98 O108 2.251 . S
Mg98 O111 2.010 . S
O99 Mg98 2.028 . S
O99 C102 1.250 . S
O100 Mg101 2.028 . S
O100 C102 1.248 . S
Mg101 O100 2.028 . S
Mg101 O106 2.032 . S
Mg101 O108 2.079 . S
C102 O99 1.250 . S
C102 O100 1.248 . S
C103 O104 1.264 . S
C103 O111 1.249 . S
O104 C103 1.264 . S
O105 Mg98 1.986 1_556 S
O105 C109 1.246 . S
O106 Mg101 2.032 . S
O106 C109 1.259 1_554 S
O107 Mg98 2.114 . S
O107 C110 1.252 . S
O108 Mg98 2.251 . S
O108 Mg101 2.079 . S
O108 C110 1.273 . S
C109 O105 1.246 . S
C109 O106 1.259 1_556 S
C110 O107 1.252 . S
C110 O108 1.273 . S
O111 Mg98 2.010 . S
O111 C103 1.249 . S
Mg112 O113 2.028 . S
Mg112 O119 1.986 . S
Mg112 O121 2.114 . S
Mg112 O122 2.251 . S
Mg112 O125 2.010 . S
O113 Mg112 2.028 . S
O113 C116 1.250 . S
O114 Mg115 2.028 . S
O114 C116 1.248 . S
Mg115 O114 2.028 . S
Mg115 O120 2.032 . S
Mg115 O122 2.079 . S
C116 O113 1.250 . S
C116 O114 1.248 . S
C117 O118 1.264 . S
C117 O125 1.249 . S
O118 C117 1.264 . S
O119 Mg112 1.986 . S
O119 C123 1.246 . S
O120 Mg115 2.032 . S
O120 C123 1.259 . S
O121 Mg112 2.114 . S
O121 C124 1.252 . S
O122 Mg112 2.251 . S
O122 Mg115 2.079 . S
O122 C124 1.273 . S
C123 O119 1.246 . S
C123 O120 1.259 . S
C124 O121 1.252 . S
C124 O122 1.273 . S
O125 Mg112 2.010 . S
O125 C117 1.249 . S
Mg126 O127 2.028 . S
Mg126 O133 1.986 . S
Mg126 O135 2.114 . S
Mg126 O136 2.251 . S
Mg126 O139 2.010 . S
O127 Mg126 2.028 . S
O127 C130 1.250 . S
O128 Mg129 2.028 . S
O128 C130 1.248 . S
Mg129 O128 2.028 . S
Mg129 O134 2.032 . S
Mg129 O136 2.079 . S
C130 O127 1.250 . S
C130 O128 1.248 . S
C131 O132 1.264 . S
C131 O139 1.249 . S
O132 C131 1.264 . S
O133 Mg126 1.986 . S
O133 C137 1.246 . S
O134 Mg129 2.032 . S
O134 C137 1.259 . S
O135 Mg126 2.114 . S
O135 C138 1.252 . S
O136 Mg126 2.251 . S
O136 Mg129 2.079 . S
O136 C138 1.273 . S
C137 O133 1.246 . S
C137 O134 1.259 . S
C138 O135 1.252 . S
C138 O136 1.273 . S
O139 Mg126 2.010 . S
O139 C131 1.249 . S
Mg140 O141 2.028 . S
Mg140 O147 1.986 . S
Mg140 O149 2.114 . S
Mg140 O150 2.251 . S
Mg140 O153 2.010 . S
O141 Mg140 2.028 . S
O141 C144 1.250 . S
O142 Mg143 2.028 . S
O142 C144 1.248 . S
Mg143 O142 2.028 . S
Mg143 O148 2.032 . S
Mg143 O150 2.079 . S
C144 O141 1.250 . S
C144 O142 1.248 . S
C145 O146 1.264 . S
C145 O153 1.249 . S
O146 C145 1.264 . S
O147 Mg140 1.986 . S
O147 C151 1.246 . S
O148 Mg143 2.032 . S
O148 C151 1.259 . S
O149 Mg140 2.114 . S
O149 C152 1.252 . S
O150 Mg140 2.251 . S
O150 Mg143 2.079 . S
O150 C152 1.273 . S
C151 O147 1.246 . S
C151 O148 1.259 . S
C152 O149 1.252 . S
C152 O150 1.273 . S
O153 Mg140 2.010 . S
O153 C145 1.249 . S
Mg154 O155 2.028 . S
Mg154 O161 1.986 . S
Mg154 O163 2.114 . S
Mg154 O164 2.251 . S
Mg154 O167 2.010 . S
O155 Mg154 2.028 . S
O155 C158 1.250 . S
O156 Mg157 2.028 . S
O156 C158 1.248 . S
Mg157 O156 2.028 . S
Mg157 O162 2.032 . S
Mg157 O164 2.079 . S
C158 O155 1.250 . S
C158 O156 1.248 . S
C159 O160 1.264 . S
C159 O167 1.249 . S
O160 C159 1.264 . S
O161 Mg154 1.986 . S
O161 C165 1.246 . S
O162 Mg157 2.032 . S
O162 C165 1.259 . S
O163 Mg154 2.114 . S
O163 C166 1.252 . S
O164 Mg154 2.251 . S
O164 Mg157 2.079 . S
O164 C166 1.273 . S
C165 O161 1.246 . S
C165 O162 1.259 . S
C166 O163 1.252 . S
C166 O164 1.273 . S
O167 Mg154 2.010 . S
O167 C159 1.249 . S
Mg168 O169 2.028 1_655 S
Mg168 O175 1.986 1_655 S
Mg168 O177 2.114 . S
Mg168 O178 2.251 . S
Mg168 O181 2.010 1_655 S
O169 Mg168 2.028 1_455 S
O169 C172 1.250 1_455 S
O170 Mg171 2.028 . S
O170 C172 1.248 . S
Mg171 O170 2.028 . S
Mg171 O176 2.032 . S
Mg171 O178 2.079 . S
C172 O169 1.250 1_655 S
C172 O170 1.248 . S
C173 O174 1.264 . S
C173 O181 1.249 . S
O174 C173 1.264 . S
O175 Mg168 1.986 1_455 S
O175 C179 1.246 1_455 S
O176 Mg171 2.032 . S
O176 C179 1.259 . S
O177 Mg168 2.114 . S
O177 C180 1.252 . S
O178 Mg168 2.251 . S
O178 Mg171 2.079 . S
O178 C180 1.273 . S
C179 O175 1.246 1_655 S
C179 O176 1.259 . S
C180 O177 1.252 . S
C180 O178 1.273 . S
O181 Mg168 2.010 1_455 S
O181 C173 1.249 . S
Mg182 O183 2.028 . S
Mg182 O189 1.986 . S
Mg182 O191 2.114 . S
Mg182 O192 2.251 1_455 S
Mg182 O195 2.010 . S
O183 Mg182 2.028 . S
O183 C186 1.250 . S
O184 Mg185 2.028 1_455 S
O184 C186 1.248 . S
Mg185 O184 2.028 1_655 S
Mg185 O190 2.032 1_655 S
Mg185 O192 2.079 . S
C186 O183 1.250 . S
C186 O184 1.248 . S
C187 O188 1.264 . S
C187 O195 1.249 . S
O188 C187 1.264 . S
O189 Mg182 1.986 . S
O189 C193 1.246 . S
O190 Mg185 2.032 1_455 S
O190 C193 1.259 . S
O191 Mg182 2.114 . S
O191 C194 1.252 1_455 S
O192 Mg182 2.251 1_655 S
O192 Mg185 2.079 . S
O192 C194 1.273 . S
C193 O189 1.246 . S
C193 O190 1.259 . S
C194 O191 1.252 1_655 S
C194 O192 1.273 . S
O195 Mg182 2.010 . S
O195 C187 1.249 . S
Mg196 O197 2.028 . S
Mg196 O203 1.986 . S
Mg196 O205 2.114 . S
Mg196 O206 2.251 . S
Mg196 O209 2.010 . S
O197 Mg196 2.028 . S
O197 C200 1.250 . S
O198 Mg199 2.028 . S
O198 C200 1.248 . S
Mg199 O198 2.028 . S
Mg199 O204 2.032 . S
Mg199 O206 2.079 . S
C200 O197 1.250 . S
C200 O198 1.248 . S
C201 O202 1.264 . S
C201 O209 1.249 . S
O202 C201 1.264 . S
O203 Mg196 1.986 . S
O203 C207 1.246 . S
O204 Mg199 2.032 . S
O204 C207 1.259 . S
O205 Mg196 2.114 . S
O205 C208 1.252 . S
O206 Mg196 2.251 . S
O206 Mg199 2.079 . S
O206 C208 1.273 . S
C207 O203 1.246 . S
C207 O204 1.259 . S
C208 O205 1.252 . S
C208 O206 1.273 . S
O209 Mg196 2.010 . S
O209 C201 1.249 . S
Mg210 O211 2.028 . S
Mg210 O217 1.986 . S
Mg210 O219 2.114 . S
Mg210 O220 2.251 . S
Mg210 O223 2.010 . S
O211 Mg210 2.028 . S
O211 C214 1.250 . S
O212 Mg213 2.028 . S
O212 C214 1.248 . S
Mg213 O212 2.028 . S
Mg213 O218 2.032 . S
Mg213 O220 2.079 . S
C214 O211 1.250 . S
C214 O212 1.248 . S
C215 O216 1.264 . S
C215 O223 1.249 . S
O216 C215 1.264 . S
O217 Mg210 1.986 . S
O217 C221 1.246 . S
O218 Mg213 2.032 . S
O218 C221 1.259 . S
O219 Mg210 2.114 . S
O219 C222 1.252 . S
O220 Mg210 2.251 . S
O220 Mg213 2.079 . S
O220 C222 1.273 . S
C221 O217 1.246 . S
C221 O218 1.259 . S
C222 O219 1.252 . S
C222 O220 1.273 . S
O223 Mg210 2.010 . S
O223 C215 1.249 . S
Mg224 O225 2.028 1_545 S
Mg224 O231 1.986 . S
Mg224 O233 2.114 1_545 S
Mg224 O234 2.251 . S
Mg224 O237 2.010 . S
O225 Mg224 2.028 1_565 S
O225 C228 1.250 . S
O226 Mg227 2.028 1_565 S
O226 C228 1.248 . S
Mg227 O226 2.028 1_545 S
Mg227 O232 2.032 . S
Mg227 O234 2.079 . S
C228 O225 1.250 . S
C228 O226 1.248 . S
C229 O230 1.264 . S
C229 O237 1.249 . S
O230 C229 1.264 . S
O231 Mg224 1.986 . S
O231 C235 1.246 . S
O232 Mg227 2.032 . S
O232 C235 1.259 . S
O233 Mg224 2.114 1_565 S
O233 C236 1.252 1_565 S
O234 Mg224 2.251 . S
O234 Mg227 2.079 . S
O234 C236 1.273 . S
C235 O231 1.246 . S
C235 O232 1.259 . S
C236 O233 1.252 1_545 S
C236 O234 1.273 . S
O237 Mg224 2.010 . S
O237 C229 1.249 . S
Mg238 O239 2.028 . S
Mg238 O245 1.986 . S
Mg238 O247 2.114 . S
Mg238 O248 2.251 . S
Mg238 O251 2.010 . S
O239 Mg238 2.028 . S
O239 C242 1.250 . S
O240 Mg241 2.028 . S
O240 C242 1.248 . S
Mg241 O240 2.028 . S
Mg241 O246 2.032 . S
Mg241 O248 2.079 . S
C242 O239 1.250 . S
C242 O240 1.248 . S
C243 O244 1.264 . S
C243 O251 1.249 . S
O244 C243 1.264 . S
O245 Mg238 1.986 . S
O245 C249 1.246 . S
O246 Mg241 2.032 . S
O246 C249 1.259 . S
O247 Mg238 2.114 . S
O247 C250 1.252 . S
O248 Mg238 2.251 . S
O248 Mg241 2.079 . S
O248 C250 1.273 . S
C249 O245 1.246 . S
C249 O246 1.259 . S
C250 O247 1.252 . S
C250 O248 1.273 . S
O251 Mg238 2.010 . S
O251 C243 1.249 . S
Mg252 O253 2.028 . S
Mg252 O259 1.986 1_545 S
Mg252 O261 2.114 . S
Mg252 O262 2.251 . S
Mg252 O265 2.010 . S
O253 Mg252 2.028 . S
O253 C256 1.250 . S
O254 Mg255 2.028 . S
O254 C256 1.248 . S
Mg255 O254 2.028 . S
Mg255 O260 2.032 1_545 S
Mg255 O262 2.079 . S
C256 O253 1.250 . S
C256 O254 1.248 . S
C257 O258 1.264 1_545 S
C257 O265 1.249 . S
O258 C257 1.264 1_565 S
O259 Mg252 1.986 1_565 S
O259 C263 1.246 . S
O260 Mg255 2.032 1_565 S
O260 C263 1.259 . S
O261 Mg252 2.114 . S
O261 C264 1.252 . S
O262 Mg252 2.251 . S
O262 Mg255 2.079 . S
O262 C264 1.273 . S
C263 O259 1.246 . S
C263 O260 1.259 . S
C264 O261 1.252 . S
C264 O262 1.273 . S
O265 Mg252 2.010 . S
O265 C257 1.249 . S
Mg266 O267 2.028 . S
Mg266 O273 1.986 . S
Mg266 O275 2.114 . S
Mg266 O276 2.251 . S
Mg266 O279 2.010 . S
O267 Mg266 2.028 . S
O267 C270 1.250 1_554 S
O268 Mg269 2.028 . S
O268 C270 1.248 1_554 S
Mg269 O268 2.028 . S
Mg269 O274 2.032 . S
Mg269 O276 2.079 . S
C270 O267 1.250 1_556 S
C270 O268 1.248 1_556 S
C271 O272 1.264 1_565 S
C271 O279 1.249 . S
O272 C271 1.264 1_545 S
O273 Mg266 1.986 . S
O273 C277 1.246 . S
O274 Mg269 2.032 . S
O274 C277 1.259 . S
O275 Mg266 2.114 . S
O275 C278 1.252 . S
O276 Mg266 2.251 . S
O276 Mg269 2.079 . S
O276 C278 1.273 . S
C277 O273 1.246 . S
C277 O274 1.259 . S
C278 O275 1.252 . S
C278 O276 1.273 . S
O279 Mg266 2.010 . S
O279 C271 1.249 . S
Mg280 O281 2.028 1_556 S
Mg280 O287 1.986 . S
Mg280 O289 2.114 1_556 S
Mg280 O290 2.251 . S
Mg280 O293 2.010 . S
O281 Mg280 2.028 1_554 S
O281 C284 1.250 . S
O282 Mg283 2.047 . S
O282 C284 1.248 . S
Mg283 O282 2.047 . S
Mg283 O288 2.016 1_554 S
Mg283 O290 2.077 1_554 S
C284 O281 1.250 . S
C284 O282 1.248 . S
C285 O286 1.264 . S
C285 O293 1.249 . S
O286 C285 1.264 . S
O287 Mg280 1.986 . S
O287 C291 1.246 . S
O288 Mg283 2.016 1_556 S
O288 C291 1.259 . S
O289 Mg280 2.114 1_554 S
O289 C292 1.252 . S
O290 Mg280 2.251 . S
O290 Mg283 2.077 1_556 S
O290 C292 1.273 1_556 S
C291 O287 1.246 . S
C291 O288 1.259 . S
C292 O289 1.252 . S
C292 O290 1.273 1_554 S
O293 Mg280 2.010 . S
O293 C285 1.249 . S
Mg294 O295 2.028 . S
Mg294 O301 1.986 . S
Mg294 O303 2.114 . S
Mg294 O304 2.251 . S
Mg294 O307 2.010 . S
O295 Mg294 2.028 . S
O295 C298 1.250 . S
O296 Mg297 2.028 . S
O296 C298 1.248 . S
Mg297 O296 2.028 . S
Mg297 O302 2.032 . S
Mg297 O304 2.079 . S
C298 O295 1.250 . S
C298 O296 1.248 . S
C299 O300 1.264 . S
C299 O307 1.249 . S
O300 C299 1.264 . S
O301 Mg294 1.986 . S
O301 C305 1.246 . S
O302 Mg297 2.032 . S
O302 C305 1.259 . S
O303 Mg294 2.114 . S
O303 C306 1.252 . S
O304 Mg294 2.251 . S
O304 Mg297 2.079 . S
O304 C306 1.273 . S
C305 O301 1.246 . S
C305 O302 1.259 . S
C306 O303 1.252 . S
C306 O304 1.273 . S
O307 Mg294 2.010 . S
O307 C299 1.249 . S
Mg308 O309 2.028 . S
Mg308 O315 1.986 . S
Mg308 O317 2.114 . S
Mg308 O318 2.251 . S
Mg308 O321 2.010 . S
O309 Mg308 2.028 . S
O309 C312 1.250 . S
O310 Mg311 2.028 . S
O310 C312 1.248 . S
Mg311 O310 2.028 . S
Mg311 O316 2.032 . S
Mg311 O318 2.079 . S
C312 O309 1.250 . S
C312 O310 1.248 . S
C313 O314 1.264 . S
C313 O321 1.249 . S
O314 C313 1.264 . S
O315 Mg308 1.986 . S
O315 C319 1.246 . S
O316 Mg311 2.032 . S
O316 C319 1.259 . S
O317 Mg308 2.114 . S
O317 C320 1.252 . S
O318 Mg308 2.251 . S
O318 Mg311 2.079 . S
O318 C320 1.273 . S
C319 O315 1.246 . S
C319 O316 1.259 . S
C320 O317 1.252 . S
C320 O318 1.273 . S
O321 Mg308 2.010 . S
O321 C313 1.249 . S
Mg322 O323 2.028 . S
Mg322 O329 1.986 . S
Mg322 O331 2.114 . S
Mg322 O332 2.251 . S
Mg322 O335 2.010 . S
O323 Mg322 2.028 . S
O323 C326 1.250 . S
O324 Mg325 2.028 . S
O324 C326 1.248 . S
Mg325 O324 2.028 . S
Mg325 O330 2.032 . S
Mg325 O332 2.079 . S
C326 O323 1.250 . S
C326 O324 1.248 . S
C327 O328 1.264 . S
C327 O335 1.249 . S
O328 C327 1.264 . S
O329 Mg322 1.986 . S
O329 C333 1.246 . S
O330 Mg325 2.032 . S
O330 C333 1.259 . S
O331 Mg322 2.114 . S
O331 C334 1.252 . S
O332 Mg322 2.251 . S
O332 Mg325 2.079 . S
O332 C334 1.273 . S
C333 O329 1.246 . S
C333 O330 1.259 . S
C334 O331 1.252 . S
C334 O332 1.273 . S
O335 Mg322 2.010 . S
O335 C327 1.249 . S
C336 O352 1.251 1_456 S
C336 O354 1.254 . S
N337 C338 1.339 . S
N337 C342 1.299 1_545 S
N337 Zn343 2.022 1_655 S
C338 N337 1.339 . S
C338 C339 1.379 . S
C338 H356 0.952 . S
C339 C338 1.379 . S
C339 C340 1.390 1_545 S
C339 H366 0.949 . S
C340 C339 1.390 1_565 S
C340 C341 1.357 . S
C341 C340 1.357 . S
C341 C342 1.370 . S
C341 H367 0.950 . S
C342 N337 1.299 1_565 S
C342 C341 1.370 . S
C342 H360 0.948 . S
Zn343 N337 2.022 1_455 S
Zn343 O352 2.039 1_455 S
Zn343 O358 2.034 . S
Zn343 O362 2.025 1_545 S
Zn343 O364 2.024 1_545 S
C344 O363 1.246 . S
C344 O364 1.249 . S
N345 C346 1.307 1_554 S
N345 C347 1.333 . S
N345 Zn351 2.020 . S
C346 N345 1.307 1_556 S
C346 C350 1.370 . S
C346 H357 0.948 . S
C347 N345 1.333 . S
C347 C348 1.379 . S
C347 H355 0.952 . S
C348 C347 1.379 . S
C348 C349 1.413 . S
C348 H368 0.949 . S
C349 C348 1.413 . S
C349 C350 1.345 1_554 S
C350 C346 1.370 . S
C350 C349 1.345 1_556 S
C350 H369 0.950 . S
Zn351 N345 2.020 . S
Zn351 O354 2.025 1_554 S
Zn351 O359 2.024 . S
Zn351 O361 2.039 . S
Zn351 O363 2.034 1_545 S
O352 C336 1.251 1_654 S
O352 Zn343 2.039 1_655 S
C353 O358 1.246 . S
C353 O359 1.249 . S
O354 C336 1.254 . S
O354 Zn351 2.025 1_556 S
H355 C347 0.952 . S
H356 C338 0.952 . S
H357 C346 0.948 . S
O358 Zn343 2.034 . S
O358 C353 1.246 . S
O359 Zn351 2.024 . S
O359 C353 1.249 . S
H360 C342 0.948 . S
O361 Zn351 2.039 . S
O361 C365 1.253 . S
O362 Zn343 2.025 1_565 S
O362 C365 1.253 1_565 S
O363 C344 1.246 . S
O363 Zn351 2.034 1_565 S
O364 Zn343 2.024 1_565 S
O364 C344 1.249 . S
C365 O361 1.253 . S
C365 O362 1.253 1_545 S
H366 C339 0.949 . S
H367 C341 0.950 . S
H368 C348 0.949 . S
H369 C350 0.950 . S
C370 O386 1.251 . S
C370 O388 1.254 . S
N371 C372 1.333 . S
N371 C376 1.307 . S
N371 Zn377 2.020 . S
C372 N371 1.333 . S
C372 C373 1.379 . S
C372 H390 0.952 . S
C373 C372 1.379 . S
C373 C374 1.390 . S
C373 H400 0.949 . S
C374 C373 1.390 . S
C374 C375 1.357 . S
C375 C374 1.357 . S
C375 C376 1.370 . S
C375 H401 0.950 . S
C376 N371 1.307 . S
C376 C375 1.370 . S
C376 H394 0.948 . S
Zn377 N371 2.020 . S
Zn377 O386 2.039 . S
Zn377 O392 2.034 . S
Zn377 O396 2.025 . S
Zn377 O398 2.024 . S
C378 O397 1.246 . S
C378 O398 1.249 . S
N379 C380 1.307 . S
N379 C381 1.333 . S
N379 Zn385 2.020 . S
C380 N379 1.307 . S
C380 C384 1.370 . S
C380 H391 0.948 . S
C381 N379 1.333 . S
C381 C382 1.379 . S
C381 H389 0.952 . S
C382 C381 1.379 . S
C382 C383 1.390 . S
C382 H402 0.949 . S
C383 C382 1.390 . S
C383 C384 1.357 . S
C384 C380 1.370 . S
C384 C383 1.357 . S
C384 H403 0.950 . S
Zn385 N379 2.020 . S
Zn385 O388 2.025 . S
Zn385 O393 2.024 . S
Zn385 O395 2.039 . S
Zn385 O397 2.034 . S
O386 C370 1.251 . S
O386 Zn377 2.039 . S
C387 O392 1.246 . S
C387 O393 1.249 . S
O388 C370 1.254 . S
O388 Zn385 2.025 . S
H389 C381 0.952 . S
H390 C372 0.952 . S
H391 C380 0.948 . S
O392 Zn377 2.034 . S
O392 C387 1.246 . S
O393 Zn385 2.024 . S
O393 C387 1.249 . S
H394 C376 0.948 . S
O395 Zn385 2.039 . S
O395 C399 1.251 . S
O396 Zn377 2.025 . S
O396 C399 1.254 . S
O397 C378 1.246 . S
O397 Zn385 2.034 . S
O398 Zn377 2.024 . S
O398 C378 1.249 . S
C399 O395 1.251 . S
C399 O396 1.254 . S
H400 C373 0.949 . S
H401 C375 0.950 . S
H402 C382 0.949 . S
H403 C384 0.950 . S
C404 O420 1.251 . S
C404 O422 1.254 . S
N405 C406 1.333 . S
N405 C410 1.307 . S
N405 Zn411 2.020 . S
C406 N405 1.333 . S
C406 C407 1.379 . S
C406 H424 0.952 . S
C407 C406 1.379 . S
C407 C408 1.390 . S
C407 H434 0.949 . S
C408 C407 1.390 . S
C408 C409 1.357 . S
C409 C408 1.357 . S
C409 C410 1.370 . S
C409 H435 0.950 . S
C410 N405 1.307 . S
C410 C409 1.370 . S
C410 H428 0.948 . S
Zn411 N405 2.020 . S
Zn411 O420 2.039 1_565 S
Zn411 O426 2.034 1_565 S
Zn411 O430 2.025 . S
Zn411 O432 2.024 . S
C412 O431 1.246 1_565 S
C412 O432 1.249 . S
N413 C414 1.307 . S
N413 C415 1.333 . S
N413 Zn419 2.020 . S
C414 N413 1.307 . S
C414 C418 1.370 . S
C414 H425 0.948 . S
C415 N413 1.333 . S
C415 C416 1.379 . S
C415 H423 0.952 . S
C416 C415 1.379 . S
C416 C417 1.390 . S
C416 H436 0.949 . S
C417 C416 1.390 . S
C417 C418 1.357 . S
C418 C414 1.370 . S
C418 C417 1.357 . S
C418 H437 0.950 . S
Zn419 N413 2.020 . S
Zn419 O422 2.025 . S
Zn419 O427 2.024 . S
Zn419 O429 2.039 . S
Zn419 O431 2.034 . S
O420 C404 1.251 . S
O420 Zn411 2.039 1_545 S
C421 O426 1.246 . S
C421 O427 1.249 . S
O422 C404 1.254 . S
O422 Zn419 2.025 . S
H423 C415 0.952 . S
H424 C406 0.952 . S
H425 C414 0.948 . S
O426 Zn411 2.034 1_545 S
O426 C421 1.246 . S
O427 Zn419 2.024 . S
O427 C421 1.249 . S
H428 C410 0.948 . S
O429 Zn419 2.039 . S
O429 C433 1.251 . S
O430 Zn411 2.025 . S
O430 C433 1.254 1_565 S
O431 C412 1.246 1_545 S
O431 Zn419 2.034 . S
O432 Zn411 2.024 . S
O432 C412 1.249 . S
C433 O429 1.251 . S
C433 O430 1.254 1_545 S
H434 C407 0.949 . S
H435 C409 0.950 . S
H436 C416 0.949 . S
H437 C418 0.950 . S
C438 O454 1.251 . S
C438 O456 1.254 . S
N439 C440 1.333 . S
N439 C444 1.307 . S
N439 Zn445 2.020 . S
C440 N439 1.333 . S
C440 C441 1.379 . S
C440 H458 0.952 . S
C441 C440 1.379 . S
C441 C442 1.390 . S
C441 H468 0.949 . S
C442 C441 1.390 . S
C442 C443 1.357 . S
C443 C442 1.357 . S
C443 C444 1.370 . S
C443 H469 0.950 . S
C444 N439 1.307 . S
C444 C443 1.370 . S
C444 H462 0.948 . S
Zn445 N439 2.020 . S
Zn445 O454 2.039 . S
Zn445 O460 2.034 . S
Zn445 O464 2.025 . S
Zn445 O466 2.024 . S
C446 O465 1.246 . S
C446 O466 1.249 . S
N447 C448 1.307 . S
N447 C449 1.333 . S
N447 Zn453 2.020 . S
C448 N447 1.307 . S
C448 C452 1.370 . S
C448 H459 0.948 . S
C449 N447 1.333 . S
C449 C450 1.379 . S
C449 H457 0.952 . S
C450 C449 1.379 . S
C450 C451 1.390 . S
C450 H470 0.949 . S
C451 C450 1.390 . S
C451 C452 1.357 . S
C452 C448 1.370 . S
C452 C451 1.357 . S
C452 H471 0.950 . S
Zn453 N447 2.020 . S
Zn453 O456 2.025 . S
Zn453 O461 2.024 . S
Zn453 O463 2.039 . S
Zn453 O465 2.034 . S
O454 C438 1.251 . S
O454 Zn445 2.039 . S
C455 O460 1.246 . S
C455 O461 1.249 . S
O456 C438 1.254 . S
O456 Zn453 2.025 . S
H457 C449 0.952 . S
H458 C440 0.952 . S
H459 C448 0.948 . S
O460 Zn445 2.034 . S
O460 C455 1.246 . S
O461 Zn453 2.024 . S
O461 C455 1.249 . S
H462 C444 0.948 . S
O463 Zn453 2.039 . S
O463 C467 1.251 . S
O464 Zn445 2.025 . S
O464 C467 1.254 . S
O465 C446 1.246 . S
O465 Zn453 2.034 . S
O466 Zn445 2.024 . S
O466 C446 1.249 . S
C467 O463 1.251 . S
C467 O464 1.254 . S
H468 C441 0.949 . S
H469 C443 0.950 . S
H470 C450 0.949 . S
H471 C452 0.950 . S
C472 O488 1.251 . S
C472 O490 1.253 1_545 S
N473 C474 1.333 . S
N473 C478 1.307 . S
N473 Zn479 2.020 . S
C474 N473 1.333 . S
C474 C475 1.379 . S
C474 H492 0.952 . S
C475 C474 1.379 . S
C475 C476 1.390 . S
C475 H502 0.949 . S
C476 C475 1.390 . S
C476 C477 1.357 . S
C477 C476 1.357 . S
C477 C478 1.370 . S
C477 H503 0.950 . S
C478 N473 1.307 . S
C478 C477 1.370 . S
C478 H496 0.948 . S
Zn479 N473 2.020 . S
Zn479 O488 2.039 . S
Zn479 O494 2.034 . S
Zn479 O498 2.025 . S
Zn479 O500 2.024 1_545 S
C480 O499 1.246 . S
C480 O500 1.249 . S
N481 C482 1.307 . S
N481 C483 1.333 1_455 S
N481 Zn487 2.020 1_565 S
C482 N481 1.307 . S
C482 C486 1.370 . S
C482 H493 0.948 1_565 S
C483 N481 1.333 1_655 S
C483 C484 1.379 . S
C483 H491 0.952 . S
C484 C483 1.379 . S
C484 C485 1.390 . S
C484 H504 0.949 . S
C485 C484 1.390 . S
C485 C486 1.357 1_655 S
C486 C482 1.370 . S
C486 C485 1.357 1_455 S
C486 H505 0.950 . S
Zn487 N481 2.020 1_545 S
Zn487 O490 2.024 1_545 S
Zn487 O495 2.024 . S
Zn487 O497 2.039 1_455 S
Zn487 O499 2.034 1_545 S
O488 C472 1.251 . S
O488 Zn479 2.039 . S
C489 O494 1.246 . S
C489 O495 1.249 . S
O490 C472 1.253 1_565 S
O490 Zn487 2.024 1_565 S
H491 C483 0.952 . S
H492 C474 0.952 . S
H493 C482 0.948 1_545 S
O494 Zn479 2.034 . S
O494 C489 1.246 . S
O495 Zn487 2.024 . S
O495 C489 1.249 . S
H496 C478 0.948 . S
O497 Zn487 2.039 1_655 S
O497 C501 1.251 . S
O498 Zn479 2.025 . S
O498 C501 1.254 1_455 S
O499 C480 1.246 . S
O499 Zn487 2.034 1_565 S
O500 Zn479 2.024 1_565 S
O500 C480 1.249 . S
C501 O497 1.251 . S
C501 O498 1.254 1_655 S
H502 C475 0.949 . S
H503 C477 0.950 . S
H504 C484 0.949 . S
H505 C486 0.950 . S
C506 O522 1.251 . S
C506 O524 1.254 . S
N507 C508 1.333 . S
N507 C512 1.307 . S
N507 Zn513 2.020 . S
C508 N507 1.333 . S
C508 C509 1.379 . S
C508 H526 0.952 . S
C509 C508 1.379 . S
C509 C510 1.390 . S
C509 H536 0.949 . S
C510 C509 1.390 . S
C510 C511 1.357 . S
C511 C510 1.357 . S
C511 C512 1.370 . S
C511 H537 0.950 . S
C512 N507 1.307 . S
C512 C511 1.370 . S
C512 H530 0.948 . S
Zn513 N507 2.020 . S
Zn513 O522 2.039 . S
Zn513 O528 2.034 . S
Zn513 O532 2.025 . S
Zn513 O534 2.024 . S
C514 O533 1.246 . S
C514 O534 1.249 . S
N515 C516 1.307 . S
N515 C517 1.333 . S
N515 Zn521 2.020 . S
C516 N515 1.307 . S
C516 C520 1.370 . S
C516 H527 0.948 . S
C517 N515 1.333 . S
C517 C518 1.379 . S
C517 H525 0.952 . S
C518 C517 1.379 . S
C518 C519 1.390 . S
C518 H538 0.949 . S
C519 C518 1.390 . S
C519 C520 1.357 . S
C520 C516 1.370 . S
C520 C519 1.357 . S
C520 H539 0.950 . S
Zn521 N515 2.020 . S
Zn521 O524 2.025 . S
Zn521 O529 2.024 . S
Zn521 O531 2.039 . S
Zn521 O533 2.034 . S
O522 C506 1.251 . S
O522 Zn513 2.039 . S
C523 O528 1.246 . S
C523 O529 1.249 . S
O524 C506 1.254 . S
O524 Zn521 2.025 . S
H525 C517 0.952 . S
H526 C508 0.952 . S
H527 C516 0.948 . S
O528 Zn513 2.034 . S
O528 C523 1.246 . S
O529 Zn521 2.024 . S
O529 C523 1.249 . S
H530 C512 0.948 . S
O531 Zn521 2.039 . S
O531 C535 1.251 . S
O532 Zn513 2.025 . S
O532 C535 1.254 . S
O533 C514 1.246 . S
O533 Zn521 2.034 . S
O534 Zn513 2.024 . S
O534 C514 1.249 . S
C535 O531 1.251 . S
C535 O532 1.254 . S
H536 C509 0.949 . S
H537 C511 0.950 . S
H538 C518 0.949 . S
H539 C520 0.950 . S
C540 O556 1.251 . S
C540 O558 1.254 . S
N541 C542 1.333 . S
N541 C546 1.307 . S
N541 Zn547 2.020 . S
C542 N541 1.333 . S
C542 C543 1.379 . S
C542 H560 0.952 . S
C543 C542 1.379 . S
C543 C544 1.390 . S
C543 H570 0.949 . S
C544 C543 1.390 . S
C544 C545 1.357 . S
C545 C544 1.357 . S
C545 C546 1.370 . S
C545 H571 0.950 . S
C546 N541 1.307 . S
C546 C545 1.370 . S
C546 H564 0.948 . S
Zn547 N541 2.020 . S
Zn547 O556 2.039 1_545 S
Zn547 O562 2.034 . S
Zn547 O566 2.025 . S
Zn547 O568 2.024 . S
C548 O567 1.245 1_545 S
C548 O568 1.249 . S
N549 C550 1.307 . S
N549 C551 1.333 1_565 S
N549 Zn555 2.020 1_566 S
C550 N549 1.307 . S
C550 C554 1.370 . S
C550 H561 0.948 . S
C551 N549 1.333 1_545 S
C551 C552 1.379 . S
C551 H559 0.952 . S
C552 C551 1.379 . S
C552 C553 1.390 1_545 S
C552 H572 0.949 . S
C553 C552 1.390 1_565 S
C553 C554 1.357 . S
C554 C550 1.370 . S
C554 C553 1.357 . S
C554 H573 0.950 . S
Zn555 N549 2.020 1_544 S
Zn555 O558 2.025 1_545 S
Zn555 O563 2.024 . S
Zn555 O565 2.039 1_554 S
Zn555 O567 2.031 1_545 S
O556 C540 1.251 . S
O556 Zn547 2.039 1_565 S
C557 O562 1.246 . S
C557 O563 1.249 . S
O558 C540 1.254 . S
O558 Zn555 2.025 1_565 S
H559 C551 0.952 . S
H560 C542 0.952 . S
H561 C550 0.948 . S
O562 Zn547 2.034 . S
O562 C557 1.246 . S
O563 Zn555 2.024 . S
O563 C557 1.249 . S
H564 C546 0.948 . S
O565 Zn555 2.039 1_556 S
O565 C569 1.251 1_556 S
O566 Zn547 2.025 . S
O566 C569 1.254 . S
O567 C548 1.245 1_565 S
O567 Zn555 2.031 1_565 S
O568 Zn547 2.024 . S
O568 C548 1.249 . S
C569 O565 1.251 1_554 S
C569 O566 1.254 . S
H570 C543 0.949 . S
H571 C545 0.950 . S
H572 C552 0.949 . S
H573 C554 0.950 . S
C574 O590 1.251 . S
C574 O592 1.254 . S
N575 C576 1.333 . S
N575 C580 1.307 . S
N575 Zn581 2.020 . S
C576 N575 1.333 . S
C576 C577 1.379 . S
C576 H594 0.952 . S
C577 C576 1.379 . S
C577 C578 1.390 . S
C577 H604 0.949 . S
C578 C577 1.390 . S
C578 C579 1.357 . S
C579 C578 1.357 . S
C579 C580 1.370 . S
C579 H605 0.950 . S
C580 N575 1.307 . S
C580 C579 1.370 . S
C580 H598 0.948 . S
Zn581 N575 2.020 . S
Zn581 O590 2.039 . S
Zn581 O596 2.034 . S
Zn581 O600 2.025 . S
Zn581 O602 2.024 . S
C582 O601 1.246 . S
C582 O602 1.249 . S
N583 C584 1.307 . S
N583 C585 1.333 . S
N583 Zn589 2.020 . S
C584 N583 1.307 . S
C584 C588 1.370 . S
C584 H595 0.948 . S
C585 N583 1.333 . S
C585 C586 1.379 . S
C585 H593 0.952 . S
C586 C585 1.379 . S
C586 C587 1.390 . S
C586 H606 0.949 . S
C587 C586 1.390 . S
C587 C588 1.357 . S
C588 C584 1.370 . S
C588 C587 1.357 . S
C588 H607 0.950 . S
Zn589 N583 2.020 . S
Zn589 O592 2.025 . S
Zn589 O597 2.024 . S
Zn589 O599 2.039 . S
Zn589 O601 2.034 . S
O590 C574 1.251 . S
O590 Zn581 2.039 . S
C591 O596 1.246 . S
C591 O597 1.249 . S
O592 C574 1.254 . S
O592 Zn589 2.025 . S
H593 C585 0.952 . S
H594 C576 0.952 . S
H595 C584 0.948 . S
O596 Zn581 2.034 . S
O596 C591 1.246 . S
O597 Zn589 2.024 . S
O597 C591 1.249 . S
H598 C580 0.948 . S
O599 Zn589 2.039 . S
O599 C603 1.251 . S
O600 Zn581 2.025 . S
O600 C603 1.254 . S
O601 C582 1.246 . S
O601 Zn589 2.034 . S
O602 Zn581 2.024 . S
O602 C582 1.249 . S
C603 O599 1.251 . S
C603 O600 1.254 . S
H604 C577 0.949 . S
H605 C579 0.950 . S
H606 C586 0.949 . S
H607 C588 0.950 . S
C608 O624 1.251 . S
C608 O626 1.254 . S
N609 C610 1.333 . S
N609 C614 1.307 . S
N609 Zn615 2.020 1_556 S
C610 N609 1.333 . S
C610 C611 1.379 . S
C610 H628 0.952 . S
C611 C610 1.379 . S
C611 C612 1.390 . S
C611 H638 0.949 . S
C612 C611 1.390 . S
C612 C613 1.357 . S
C613 C612 1.357 . S
C613 C614 1.370 . S
C613 H639 0.950 . S
C614 N609 1.307 . S
C614 C613 1.370 . S
C614 H632 0.948 . S
Zn615 N609 2.020 1_554 S
Zn615 O624 2.039 . S
Zn615 O630 2.034 . S
Zn615 O634 2.025 1_554 S
Zn615 O636 2.024 1_554 S
C616 O635 1.246 . S
C616 O636 1.249 1_554 S
N617 C618 1.307 . S
N617 C619 1.333 . S
N617 Zn623 2.020 . S
C618 N617 1.307 . S
C618 C622 1.370 . S
C618 H629 0.948 . S
C619 N617 1.333 . S
C619 C620 1.379 . S
C619 H627 0.952 . S
C620 C619 1.379 . S
C620 C621 1.390 . S
C620 H640 0.949 . S
C621 C620 1.390 . S
C621 C622 1.357 . S
C622 C618 1.370 . S
C622 C621 1.357 . S
C622 H641 0.950 . S
Zn623 N617 2.020 . S
Zn623 O626 2.025 . S
Zn623 O631 2.024 . S
Zn623 O633 2.039 . S
Zn623 O635 2.034 . S
O624 C608 1.251 . S
O624 Zn615 2.039 . S
C625 O630 1.246 . S
C625 O631 1.249 . S
O626 C608 1.254 . S
O626 Zn623 2.025 . S
H627 C619 0.952 . S
H628 C610 0.952 . S
H629 C618 0.948 . S
O630 Zn615 2.034 . S
O630 C625 1.246 . S
O631 Zn623 2.024 . S
O631 C625 1.249 . S
H632 C614 0.948 . S
O633 Zn623 2.039 . S
O633 C637 1.251 . S
O634 Zn615 2.025 1_556 S
O634 C637 1.254 1_556 S
O635 C616 1.246 . S
O635 Zn623 2.034 . S
O636 Zn615 2.024 1_556 S
O636 C616 1.249 1_556 S
C637 O633 1.251 . S
C637 O634 1.254 1_554 S
H638 C611 0.949 . S
H639 C613 0.950 . S
H640 C620 0.949 . S
H641 C622 0.950 . S
C642 O658 1.251 . S
C642 O660 1.254 . S
N643 C644 1.333 . S
N643 C648 1.307 . S
N643 Zn649 2.020 . S
C644 N643 1.333 . S
C644 C645 1.379 . S
C644 H662 0.952 . S
C645 C644 1.379 . S
C645 C646 1.390 . S
C645 H672 0.949 . S
C646 C645 1.390 . S
C646 C647 1.357 . S
C647 C646 1.357 . S
C647 C648 1.370 . S
C647 H673 0.950 . S
C648 N643 1.307 . S
C648 C647 1.370 . S
C648 H666 0.948 . S
Zn649 N643 2.020 . S
Zn649 O658 2.039 . S
Zn649 O664 2.034 . S
Zn649 O668 2.025 . S
Zn649 O670 2.024 . S
C650 O669 1.246 . S
C650 O670 1.249 . S
N651 C652 1.307 . S
N651 C653 1.333 . S
N651 Zn657 2.020 . S
C652 N651 1.307 . S
C652 C656 1.370 . S
C652 H663 0.948 . S
C653 N651 1.333 . S
C653 C654 1.379 . S
C653 H661 0.952 . S
C654 C653 1.379 . S
C654 C655 1.390 . S
C654 H674 0.949 . S
C655 C654 1.390 . S
C655 C656 1.357 . S
C656 C652 1.370 . S
C656 C655 1.357 . S
C656 H675 0.950 . S
Zn657 N651 2.020 . S
Zn657 O660 2.025 . S
Zn657 O665 2.024 . S
Zn657 O667 2.039 . S
Zn657 O669 2.034 . S
O658 C642 1.251 . S
O658 Zn649 2.039 . S
C659 O664 1.246 . S
C659 O665 1.249 . S
O660 C642 1.254 . S
O660 Zn657 2.025 . S
H661 C653 0.952 . S
H662 C644 0.952 . S
H663 C652 0.948 . S
O664 Zn649 2.034 . S
O664 C659 1.246 . S
O665 Zn657 2.024 . S
O665 C659 1.249 . S
H666 C648 0.948 . S
O667 Zn657 2.039 . S
O667 C671 1.251 . S
O668 Zn649 2.025 . S
O668 C671 1.254 . S
O669 C650 1.246 . S
O669 Zn657 2.034 . S
O670 Zn649 2.024 . S
O670 C650 1.249 . S
C671 O667 1.251 . S
C671 O668 1.254 . S
H672 C645 0.949 . S
H673 C647 0.950 . S
H674 C654 0.949 . S
H675 C656 0.950 . S
C676 O692 1.251 . S
C676 O694 1.254 . S
N677 C678 1.333 . S
N677 C682 1.307 . S
N677 Zn683 2.020 . S
C678 N677 1.333 . S
C678 C679 1.379 . S
C678 H696 0.952 . S
C679 C678 1.379 . S
C679 C680 1.390 . S
C679 H706 0.949 . S
C680 C679 1.390 . S
C680 C681 1.357 . S
C681 C680 1.357 . S
C681 C682 1.370 . S
C681 H707 0.950 . S
C682 N677 1.307 . S
C682 C681 1.370 . S
C682 H700 0.948 . S
Zn683 N677 2.020 . S
Zn683 O692 2.039 . S
Zn683 O698 2.021 1_455 S
Zn683 O702 2.025 . S
Zn683 O704 2.024 . S
C684 O703 1.246 . S
C684 O704 1.249 . S
N685 C686 1.307 1_455 S
N685 C687 1.333 . S
N685 Zn691 2.020 . S
C686 N685 1.307 1_655 S
C686 C690 1.370 . S
C686 H697 0.948 . S
C687 N685 1.333 . S
C687 C688 1.379 . S
C687 H695 0.952 . S
C688 C687 1.379 . S
C688 C689 1.390 1_455 S
C688 H708 0.949 . S
C689 C688 1.390 1_655 S
C689 C690 1.357 . S
C690 C686 1.370 . S
C690 C689 1.357 . S
C690 H709 0.950 . S
Zn691 N685 2.020 . S
Zn691 O694 2.025 . S
Zn691 O699 2.024 1_455 S
Zn691 O701 2.039 . S
Zn691 O703 2.034 . S
O692 C676 1.251 . S
O692 Zn683 2.039 . S
C693 O698 1.255 . S
C693 O699 1.249 . S
O694 C676 1.254 . S
O694 Zn691 2.025 . S
H695 C687 0.952 . S
H696 C678 0.952 . S
H697 C686 0.948 . S
O698 Zn683 2.021 1_655 S
O698 C693 1.255 . S
O699 Zn691 2.024 1_655 S
O699 C693 1.249 . S
H700 C682 0.948 . S
O701 Zn691 2.039 . S
O701 C705 1.251 . S
O702 Zn683 2.025 . S
O702 C705 1.254 . S
O703 C684 1.246 . S
O703 Zn691 2.034 . S
O704 Zn683 2.024 . S
O704 C684 1.249 . S
C705 O701 1.251 . S
C705 O702 1.254 . S
H706 C679 0.949 . S
H707 C681 0.950 . S
H708 C688 0.949 . S
H709 C690 0.950 . S
C710 O726 1.251 . S
C710 O728 1.254 . S
N711 C712 1.333 . S
N711 C716 1.307 . S
N711 Zn717 2.020 . S
C712 N711 1.333 . S
C712 C713 1.379 . S
C712 H730 0.952 . S
C713 C712 1.379 . S
C713 C714 1.390 . S
C713 H740 0.949 . S
C714 C713 1.390 . S
C714 C715 1.357 . S
C715 C714 1.357 . S
C715 C716 1.370 . S
C715 H741 0.950 . S
C716 N711 1.307 . S
C716 C715 1.370 . S
C716 H734 0.948 . S
Zn717 N711 2.020 . S
Zn717 O726 2.039 . S
Zn717 O732 2.034 . S
Zn717 O736 2.025 . S
Zn717 O738 2.024 . S
C718 O737 1.246 . S
C718 O738 1.249 . S
N719 C720 1.307 . S
N719 C721 1.333 . S
N719 Zn725 2.020 . S
C720 N719 1.307 . S
C720 C724 1.370 . S
C720 H731 0.948 . S
C721 N719 1.333 . S
C721 C722 1.379 . S
C721 H729 0.952 . S
C722 C721 1.379 . S
C722 C723 1.390 . S
C722 H742 0.949 . S
C723 C722 1.390 . S
C723 C724 1.357 . S
C724 C720 1.370 . S
C724 C723 1.357 . S
C724 H743 0.950 . S
Zn725 N719 2.020 . S
Zn725 O728 2.025 . S
Zn725 O733 2.024 . S
Zn725 O735 2.039 . S
Zn725 O737 2.034 . S
O726 C710 1.251 . S
O726 Zn717 2.039 . S
C727 O732 1.246 . S
C727 O733 1.249 . S
O728 C710 1.254 . S
O728 Zn725 2.025 . S
H729 C721 0.952 . S
H730 C712 0.952 . S
H731 C720 0.948 . S
O732 Zn717 2.034 . S
O732 C727 1.246 . S
O733 Zn725 2.024 . S
O733 C727 1.249 . S
H734 C716 0.948 . S
O735 Zn725 2.039 . S
O735 C739 1.251 . S
O736 Zn717 2.025 . S
O736 C739 1.254 . S
O737 C718 1.246 . S
O737 Zn725 2.034 . S
O738 Zn717 2.024 . S
O738 C718 1.249 . S
C739 O735 1.251 . S
C739 O736 1.254 . S
H740 C713 0.949 . S
H741 C715 0.950 . S
H742 C722 0.949 . S
H743 C724 0.950 . S
C744 O760 1.251 . S
C744 O762 1.254 . S
N745 C746 1.333 . S
N745 C750 1.307 . S
N745 Zn751 2.020 . S
C746 N745 1.333 . S
C746 C747 1.379 . S
C746 H764 0.952 . S
C747 C746 1.379 . S
C747 C748 1.390 . S
C747 H774 0.949 . S
C748 C747 1.390 . S
C748 C749 1.357 . S
C749 C748 1.357 . S
C749 C750 1.370 . S
C749 H775 0.950 . S
C750 N745 1.307 . S
C750 C749 1.370 . S
C750 H768 0.948 . S
Zn751 N745 2.020 . S
Zn751 O760 2.039 . S
Zn751 O766 2.034 . S
Zn751 O770 2.025 . S
Zn751 O772 2.024 . S
C752 O771 1.246 . S
C752 O772 1.249 . S
N753 C754 1.307 . S
N753 C755 1.333 . S
N753 Zn759 2.020 . S
C754 N753 1.307 . S
C754 C758 1.370 . S
C754 H765 0.948 . S
C755 N753 1.333 . S
C755 C756 1.379 . S
C755 H763 0.952 . S
C756 C755 1.379 . S
C756 C757 1.390 . S
C756 H776 0.949 . S
C757 C756 1.390 . S
C757 C758 1.357 . S
C758 C754 1.370 . S
C758 C757 1.357 . S
C758 H777 0.950 . S
Zn759 N753 2.020 . S
Zn759 O762 2.025 . S
Zn759 O767 2.024 . S
Zn759 O769 2.039 . S
Zn759 O771 2.034 . S
O760 C744 1.251 . S
O760 Zn751 2.039 . S
C761 O766 1.246 . S
C761 O767 1.249 . S
O762 C744 1.254 . S
O762 Zn759 2.025 . S
H763 C755 0.952 . S
H764 C746 0.952 . S
H765 C754 0.948 . S
O766 Zn751 2.034 . S
O766 C761 1.246 . S
O767 Zn759 2.024 . S
O767 C761 1.249 . S
H768 C750 0.948 . S
O769 Zn759 2.039 . S
O769 C773 1.251 . S
O770 Zn751 2.025 . S
O770 C773 1.254 . S
O771 C752 1.246 . S
O771 Zn759 2.034 . S
O772 Zn751 2.024 . S
O772 C752 1.249 . S
C773 O769 1.251 . S
C773 O770 1.254 . S
H774 C747 0.949 . S
H775 C749 0.950 . S
H776 C756 0.949 . S
H777 C758 0.950 . S
C778 O794 1.251 . S
C778 O796 1.254 . S
N779 C780 1.333 . S
N779 C784 1.307 . S
N779 Zn785 2.020 . S
C780 N779 1.333 . S
C780 C781 1.379 . S
C780 H798 0.952 . S
C781 C780 1.379 . S
C781 C782 1.390 . S
C781 H808 0.949 . S
C782 C781 1.390 . S
C782 C783 1.357 . S
C783 C782 1.357 . S
C783 C784 1.370 . S
C783 H809 0.950 . S
C784 N779 1.307 . S
C784 C783 1.370 . S
C784 H802 0.948 . S
Zn785 N779 2.020 . S
Zn785 O794 2.039 . S
Zn785 O800 2.034 . S
Zn785 O804 2.025 . S
Zn785 O806 2.024 . S
C786 O805 1.246 . S
C786 O806 1.249 . S
N787 C788 1.307 . S
N787 C789 1.333 . S
N787 Zn793 2.020 . S
C788 N787 1.307 . S
C788 C792 1.370 . S
C788 H799 0.948 . S
C789 N787 1.333 . S
C789 C790 1.379 . S
C789 H797 0.952 . S
C790 C789 1.379 . S
C790 C791 1.390 . S
C790 H810 0.949 . S
C791 C790 1.390 . S
C791 C792 1.357 . S
C792 C788 1.370 . S
C792 C791 1.357 . S
C792 H811 0.950 . S
Zn793 N787 2.020 . S
Zn793 O796 2.025 . S
Zn793 O801 2.024 . S
Zn793 O803 2.039 . S
Zn793 O805 2.034 . S
O794 C778 1.251 . S
O794 Zn785 2.039 . S
C795 O800 1.246 . S
C795 O801 1.249 . S
O796 C778 1.254 . S
O796 Zn793 2.025 . S
H797 C789 0.952 . S
H798 C780 0.952 . S
H799 C788 0.948 . S
O800 Zn785 2.034 . S
O800 C795 1.246 . S
O801 Zn793 2.024 . S
O801 C795 1.249 . S
H802 C784 0.948 . S
O803 Zn793 2.039 . S
O803 C807 1.251 . S
O804 Zn785 2.025 . S
O804 C807 1.254 . S
O805 C786 1.246 . S
O805 Zn793 2.034 . S
O806 Zn785 2.024 . S
O806 C786 1.249 . S
C807 O803 1.251 . S
C807 O804 1.254 . S
H808 C781 0.949 . S
H809 C783 0.950 . S
H810 C790 0.949 . S
H811 C792 0.950 . S
C812 O828 1.251 . S
C812 O830 1.254 . S
N813 C814 1.333 . S
N813 C818 1.307 . S
N813 Zn819 2.020 . S
C814 N813 1.333 . S
C814 C815 1.379 . S
C814 H832 0.952 . S
C815 C814 1.379 . S
C815 C816 1.390 . S
C815 H842 0.949 . S
C816 C815 1.390 . S
C816 C817 1.357 . S
C817 C816 1.357 . S
C817 C818 1.370 . S
C817 H843 0.950 . S
C818 N813 1.307 . S
C818 C817 1.370 . S
C818 H836 0.948 . S
Zn819 N813 2.020 . S
Zn819 O828 2.039 . S
Zn819 O834 2.034 . S
Zn819 O838 2.025 . S
Zn819 O840 2.024 . S
C820 O839 1.246 . S
C820 O840 1.249 . S
N821 C822 1.307 . S
N821 C823 1.333 . S
N821 Zn827 2.020 . S
C822 N821 1.307 . S
C822 C826 1.370 . S
C822 H833 0.948 . S
C823 N821 1.333 . S
C823 C824 1.379 . S
C823 H831 0.952 . S
C824 C823 1.379 . S
C824 C825 1.390 . S
C824 H844 0.949 . S
C825 C824 1.390 . S
C825 C826 1.357 . S
C826 C822 1.370 . S
C826 C825 1.357 . S
C826 H845 0.950 . S
Zn827 N821 2.020 . S
Zn827 O830 2.025 . S
Zn827 O835 2.024 . S
Zn827 O837 2.039 . S
Zn827 O839 2.034 . S
O828 C812 1.251 . S
O828 Zn819 2.039 . S
C829 O834 1.246 . S
C829 O835 1.249 . S
O830 C812 1.254 . S
O830 Zn827 2.025 . S
H831 C823 0.952 . S
H832 C814 0.952 . S
H833 C822 0.948 . S
O834 Zn819 2.034 . S
O834 C829 1.246 . S
O835 Zn827 2.024 . S
O835 C829 1.249 . S
H836 C818 0.948 . S
O837 Zn827 2.039 . S
O837 C841 1.251 . S
O838 Zn819 2.025 . S
O838 C841 1.254 . S
O839 C820 1.246 . S
O839 Zn827 2.034 . S
O840 Zn819 2.024 . S
O840 C820 1.249 . S
C841 O837 1.251 . S
C841 O838 1.254 . S
H842 C815 0.949 . S
H843 C817 0.950 . S
H844 C824 0.949 . S
H845 C826 0.950 . S
C846 O862 1.251 . S
C846 O864 1.254 . S
N847 C848 1.333 . S
N847 C852 1.307 . S
N847 Zn853 2.020 . S
C848 N847 1.333 . S
C848 C849 1.379 . S
C848 H866 0.952 . S
C849 C848 1.379 . S
C849 C850 1.390 . S
C849 H876 0.949 . S
C850 C849 1.390 . S
C850 C851 1.357 . S
C851 C850 1.357 . S
C851 C852 1.370 . S
C851 H877 0.950 . S
C852 N847 1.307 . S
C852 C851 1.370 . S
C852 H870 0.948 . S
Zn853 N847 2.020 . S
Zn853 O862 2.039 . S
Zn853 O868 2.034 . S
Zn853 O872 2.025 1_554 S
Zn853 O874 2.024 . S
C854 O873 1.246 . S
C854 O874 1.249 1_655 S
N855 C856 1.307 . S
N855 C857 1.333 1_554 S
N855 Zn861 2.020 . S
C856 N855 1.307 . S
C856 C860 1.370 . S
C856 H867 0.948 . S
C857 N855 1.333 1_556 S
C857 C858 1.379 1_455 S
C857 H865 0.952 . S
C858 C857 1.379 1_655 S
C858 C859 1.390 . S
C858 H878 0.949 . S
C859 C858 1.390 . S
C859 C860 1.357 1_656 S
C860 C856 1.370 . S
C860 C859 1.357 1_454 S
C860 H879 0.950 . S
Zn861 N855 2.020 . S
Zn861 O864 2.025 . S
Zn861 O869 2.024 . S
Zn861 O871 2.039 1_554 S
Zn861 O873 2.034 1_455 S
O862 C846 1.251 . S
O862 Zn853 2.039 . S
C863 O868 1.246 . S
C863 O869 1.249 . S
O864 C846 1.254 . S
O864 Zn861 2.025 . S
H865 C857 0.952 . S
H866 C848 0.952 . S
H867 C856 0.948 . S
O868 Zn853 2.034 . S
O868 C863 1.246 . S
O869 Zn861 2.024 . S
O869 C863 1.249 . S
H870 C852 0.948 . S
O871 Zn861 2.039 1_556 S
O871 C875 1.251 . S
O872 Zn853 2.025 1_556 S
O872 C875 1.254 . S
O873 C854 1.246 . S
O873 Zn861 2.034 1_655 S
O874 Zn853 2.024 . S
O874 C854 1.249 1_455 S
C875 O871 1.251 . S
C875 O872 1.254 . S
H876 C849 0.949 . S
H877 C851 0.950 . S
H878 C858 0.949 . S
H879 C860 0.950 . S
C880 C881 1.363 . S
C880 C886 1.379 . S
C880 N888 1.356 . S
C881 C880 1.363 . S
C881 C887 1.363 . S
C882 C883 1.363 . S
C882 C887 1.379 . S
C882 N889 1.356 . S
C883 C882 1.363 . S
C883 C886 1.363 . S
N884 C886 1.356 . S
N884 H896 0.984 . S
N884 H897 0.985 . S
N885 C887 1.356 . S
N885 H890 0.984 . S
N885 H891 0.985 . S
C886 C880 1.379 . S
C886 C883 1.363 . S
C886 N884 1.356 . S
C887 C881 1.363 . S
C887 C882 1.379 . S
C887 N885 1.356 . S
N888 C880 1.356 . S
N888 H894 0.984 . S
N888 H895 0.984 . S
N889 C882 1.356 . S
N889 H892 0.984 . S
N889 H893 0.985 . S
H890 N885 0.984 . S
H891 N885 0.985 . S
H892 N889 0.984 . S
H893 N889 0.985 . S
H894 N888 0.984 . S
H895 N888 0.984 . S
H896 N884 0.984 . S
H897 N884 0.985 . S
C898 C899 1.363 . S
C898 C904 1.379 . S
C898 N906 1.356 . S
C899 C898 1.363 . S
C899 C905 1.363 . S
C900 C901 1.363 . S
C900 C905 1.379 . S
C900 N907 1.356 . S
C901 C900 1.363 . S
C901 C904 1.363 . S
N902 C904 1.356 . S
N902 H914 0.984 . S
N902 H915 0.985 . S
N903 C905 1.356 . S
N903 H908 0.984 . S
N903 H909 0.985 . S
C904 C898 1.379 . S
C904 C901 1.363 . S
C904 N902 1.356 . S
C905 C899 1.363 . S
C905 C900 1.379 . S
C905 N903 1.356 . S
N906 C898 1.356 . S
N906 H912 0.984 . S
N906 H913 0.984 . S
N907 C900 1.356 . S
N907 H910 0.984 . S
N907 H911 0.985 . S
H908 N903 0.984 . S
H909 N903 0.985 . S
H910 N907 0.984 . S
H911 N907 0.985 . S
H912 N906 0.984 . S
H913 N906 0.984 . S
H914 N902 0.984 . S
H915 N902 0.985 . S
C916 C917 1.363 . S
C916 C922 1.379 . S
C916 N924 1.356 . S
C917 C916 1.363 . S
C917 C923 1.363 . S
C918 C919 1.363 . S
C918 C923 1.379 . S
C918 N925 1.356 . S
C919 C918 1.363 . S
C919 C922 1.363 . S
N920 C922 1.356 . S
N920 H932 0.984 . S
N920 H933 0.985 . S
N921 C923 1.356 . S
N921 H926 0.984 . S
N921 H927 0.985 . S
C922 C916 1.379 . S
C922 C919 1.363 . S
C922 N920 1.356 . S
C923 C917 1.363 . S
C923 C918 1.379 . S
C923 N921 1.356 . S
N924 C916 1.356 . S
N924 H930 0.984 . S
N924 H931 0.984 . S
N925 C918 1.356 . S
N925 H928 0.984 . S
N925 H929 0.985 . S
H926 N921 0.984 . S
H927 N921 0.985 . S
H928 N925 0.984 . S
H929 N925 0.985 . S
H930 N924 0.984 . S
H931 N924 0.984 . S
H932 N920 0.984 . S
H933 N920 0.985 . S
C934 C935 1.363 . S
C934 C940 1.379 . S
C934 N942 1.356 . S
C935 C934 1.363 . S
C935 C941 1.363 . S
C936 C937 1.363 . S
C936 C941 1.379 . S
C936 N943 1.356 . S
C937 C936 1.363 . S
C937 C940 1.363 . S
N938 C940 1.356 . S
N938 H950 0.984 . S
N938 H951 0.985 . S
N939 C941 1.356 . S
N939 H944 0.984 . S
N939 H945 0.985 . S
C940 C934 1.379 . S
C940 C937 1.363 . S
C940 N938 1.356 . S
C941 C935 1.363 . S
C941 C936 1.379 . S
C941 N939 1.356 . S
N942 C934 1.356 . S
N942 H948 0.984 . S
N942 H949 0.984 . S
N943 C936 1.356 . S
N943 H946 0.984 . S
N943 H947 0.985 . S
H944 N939 0.984 . S
H945 N939 0.985 . S
H946 N943 0.984 . S
H947 N943 0.985 . S
H948 N942 0.984 . S
H949 N942 0.984 . S
H950 N938 0.984 . S
H951 N938 0.985 . S
C952 C953 1.363 . S
C952 C958 1.379 . S
C952 N960 1.356 . S
C953 C952 1.363 . S
C953 C959 1.363 . S
C954 C955 1.363 . S
C954 C959 1.379 . S
C954 N961 1.356 . S
C955 C954 1.363 . S
C955 C958 1.363 . S
N956 C958 1.356 . S
N956 H968 0.984 . S
N956 H969 0.985 . S
N957 C959 1.356 . S
N957 H962 0.984 . S
N957 H963 0.985 . S
C958 C952 1.379 . S
C958 C955 1.363 . S
C958 N956 1.356 . S
C959 C953 1.363 . S
C959 C954 1.379 . S
C959 N957 1.356 . S
N960 C952 1.356 . S
N960 H966 0.984 . S
N960 H967 0.984 . S
N961 C954 1.356 . S
N961 H964 0.984 . S
N961 H965 0.985 1_455 S
H962 N957 0.984 . S
H963 N957 0.985 . S
H964 N961 0.984 . S
H965 N961 0.985 1_655 S
H966 N960 0.984 . S
H967 N960 0.984 . S
H968 N956 0.984 . S
H969 N956 0.985 . S
C970 C971 1.363 . S
C970 C976 1.379 . S
C970 N978 1.356 . S
C971 C970 1.363 . S
C971 C977 1.363 . S
C972 C973 1.363 . S
C972 C977 1.379 . S
C972 N979 1.356 . S
C973 C972 1.363 . S
C973 C976 1.363 . S
N974 C976 1.356 . S
N974 H986 0.984 . S
N974 H987 0.985 . S
N975 C977 1.356 . S
N975 H980 0.984 . S
N975 H981 0.985 . S
C976 C970 1.379 . S
C976 C973 1.363 . S
C976 N974 1.356 . S
C977 C971 1.363 . S
C977 C972 1.379 . S
C977 N975 1.356 . S
N978 C970 1.356 . S
N978 H984 0.984 . S
N978 H985 0.984 . S
N979 C972 1.356 . S
N979 H982 0.984 . S
N979 H983 0.985 . S
H980 N975 0.984 . S
H981 N975 0.985 . S
H982 N979 0.984 . S
H983 N979 0.985 . S
H984 N978 0.984 . S
H985 N978 0.984 . S
H986 N974 0.984 . S
H987 N974 0.985 . S
C988 C989 1.363 . S
C988 C994 1.379 . S
C988 N996 1.356 . S
C989 C988 1.363 . S
C989 C995 1.363 . S
C990 C991 1.363 1_554 S
C990 C995 1.379 1_554 S
C990 N997 1.356 . S
C991 C990 1.363 1_556 S
C991 C994 1.363 . S
N992 C994 1.356 . S
N992 H1004 0.984 . S
N992 H1005 0.985 . S
N993 C995 1.356 . S
N993 H998 0.984 . S
N993 H999 0.981 1_556 S
C994 C988 1.379 . S
C994 C991 1.363 . S
C994 N992 1.356 . S
C995 C989 1.363 . S
C995 C990 1.379 1_556 S
C995 N993 1.356 . S
N996 C988 1.356 . S
N996 H1002 0.984 . S
N996 H1003 0.984 . S
N997 C990 1.356 . S
N997 H1000 0.984 . S
N997 H1001 0.985 . S
H998 N993 0.984 . S
H999 N993 0.981 1_554 S
H1000 N997 0.984 . S
H1001 N997 0.985 . S
H1002 N996 0.984 . S
H1003 N996 0.984 . S
H1004 N992 0.984 . S
H1005 N992 0.985 . S
C1006 C1007 1.363 . S
C1006 C1012 1.379 . S
C1006 N1014 1.356 . S
C1007 C1006 1.363 . S
C1007 C1013 1.363 . S
C1008 C1009 1.363 . S
C1008 C1013 1.379 . S
C1008 N1015 1.356 . S
C1009 C1008 1.363 . S
C1009 C1012 1.363 . S
N1010 C1012 1.356 . S
N1010 H1022 0.984 . S
N1010 H1023 0.985 . S
N1011 C1013 1.356 . S
N1011 H1016 0.984 . S
N1011 H1017 0.985 . S
C1012 C1006 1.379 . S
C1012 C1009 1.363 . S
C1012 N1010 1.356 . S
C1013 C1007 1.363 . S
C1013 C1008 1.379 . S
C1013 N1011 1.356 . S
N1014 C1006 1.356 . S
N1014 H1020 0.984 . S
N1014 H1021 0.984 . S
N1015 C1008 1.356 . S
N1015 H1018 0.984 . S
N1015 H1019 0.985 . S
H1016 N1011 0.984 . S
H1017 N1011 0.985 . S
H1018 N1015 0.984 . S
H1019 N1015 0.985 . S
H1020 N1014 0.984 . S
H1021 N1014 0.984 . S
H1022 N1010 0.984 . S
H1023 N1010 0.985 . S
C1024 C1025 1.363 . S
C1024 C1030 1.379 . S
C1024 N1032 1.356 . S
C1025 C1024 1.363 . S
C1025 C1031 1.383 . S
C1026 C1027 1.363 1_565 S
C1026 C1031 1.371 1_565 S
C1026 N1033 1.356 . S
C1027 C1026 1.363 1_545 S
C1027 C1030 1.363 . S
N1028 C1030 1.356 . S
N1028 H1040 0.984 . S
N1028 H1041 0.985 . S
N1029 C1031 1.351 1_565 S
N1029 H1034 0.984 1_565 S
N1029 H1035 0.985 . S
C1030 C1024 1.379 . S
C1030 C1027 1.363 . S
C1030 N1028 1.356 . S
C1031 C1025 1.383 . S
C1031 C1026 1.371 1_545 S
C1031 N1029 1.351 1_545 S
N1032 C1024 1.356 . S
N1032 H1038 0.984 . S
N1032 H1039 0.984 . S
N1033 C1026 1.356 . S
N1033 H1036 0.984 . S
N1033 H1037 0.985 . S
H1034 N1029 0.984 1_545 S
H1035 N1029 0.985 . S
H1036 N1033 0.984 . S
H1037 N1033 0.985 . S
H1038 N1032 0.984 . S
H1039 N1032 0.984 . S
H1040 N1028 0.984 . S
H1041 N1028 0.985 . S
C1042 C1043 1.363 . S
C1042 C1048 1.379 . S
C1042 N1050 1.356 . S
C1043 C1042 1.363 . S
C1043 C1049 1.363 . S
C1044 C1045 1.363 . S
C1044 C1049 1.379 . S
C1044 N1051 1.356 . S
C1045 C1044 1.363 . S
C1045 C1048 1.363 . S
N1046 C1048 1.356 . S
N1046 H1058 0.984 . S
N1046 H1059 0.985 . S
N1047 C1049 1.356 . S
N1047 H1052 0.984 . S
N1047 H1053 0.985 . S
C1048 C1042 1.379 . S
C1048 C1045 1.363 . S
C1048 N1046 1.356 . S
C1049 C1043 1.363 . S
C1049 C1044 1.379 . S
C1049 N1047 1.356 . S
N1050 C1042 1.356 . S
N1050 H1056 0.984 . S
N1050 H1057 0.984 . S
N1051 C1044 1.356 . S
N1051 H1054 0.984 . S
N1051 H1055 0.985 . S
H1052 N1047 0.984 . S
H1053 N1047 0.985 . S
H1054 N1051 0.984 . S
H1055 N1051 0.985 . S
H1056 N1050 0.984 . S
H1057 N1050 0.984 . S
H1058 N1046 0.984 . S
H1059 N1046 0.985 . S
C1060 C1061 1.363 1_565 S
C1060 C1066 1.376 1_565 S
C1060 N1068 1.356 . S
C1061 C1060 1.363 1_545 S
C1061 C1067 1.363 . S
C1062 C1063 1.363 . S
C1062 C1067 1.379 . S
C1062 N1069 1.356 . S
C1063 C1062 1.363 . S
C1063 C1066 1.371 . S
N1064 C1066 1.353 1_565 S
N1064 H1076 0.984 . S
N1064 H1077 0.985 . S
N1065 C1067 1.356 . S
N1065 H1070 0.984 . S
N1065 H1071 0.985 . S
C1066 C1060 1.376 1_545 S
C1066 C1063 1.371 . S
C1066 N1064 1.353 1_545 S
C1067 C1061 1.363 . S
C1067 C1062 1.379 . S
C1067 N1065 1.356 . S
N1068 C1060 1.356 . S
N1068 H1074 0.984 . S
N1068 H1075 0.984 . S
N1069 C1062 1.356 . S
N1069 H1072 0.984 . S
N1069 H1073 0.985 . S
H1070 N1065 0.984 . S
H1071 N1065 0.985 . S
H1072 N1069 0.984 . S
H1073 N1069 0.985 . S
H1074 N1068 0.984 . S
H1075 N1068 0.984 . S
H1076 N1064 0.984 . S
H1077 N1064 0.985 . S
C1078 C1079 1.363 . S
C1078 C1084 1.379 . S
C1078 N1086 1.356 . S
C1079 C1078 1.363 . S
C1079 C1085 1.363 . S
C1080 C1081 1.363 . S
C1080 C1085 1.379 . S
C1080 N1087 1.356 . S
C1081 C1080 1.363 . S
C1081 C1084 1.363 . S
N1082 C1084 1.356 . S
N1082 H1094 0.984 . S
N1082 H1095 0.985 . S
N1083 C1085 1.356 . S
N1083 H1088 0.984 . S
N1083 H1089 0.985 . S
C1084 C1078 1.379 . S
C1084 C1081 1.363 . S
C1084 N1082 1.356 . S
C1085 C1079 1.363 . S
C1085 C1080 1.379 . S
C1085 N1083 1.356 . S
N1086 C1078 1.356 . S
N1086 H1092 0.984 . S
N1086 H1093 0.984 . S
N1087 C1080 1.356 . S
N1087 H1090 0.984 . S
N1087 H1091 0.985 . S
H1088 N1083 0.984 . S
H1089 N1083 0.985 . S
H1090 N1087 0.984 . S
H1091 N1087 0.985 . S
H1092 N1086 0.984 . S
H1093 N1086 0.984 . S
H1094 N1082 0.984 . S
H1095 N1082 0.985 . S
C1096 C1097 1.363 . S
C1096 C1102 1.379 . S
C1096 N1104 1.356 . S
C1097 C1096 1.363 . S
C1097 C1103 1.363 . S
C1098 C1099 1.363 . S
C1098 C1103 1.379 . S
C1098 N1105 1.356 . S
C1099 C1098 1.363 . S
C1099 C1102 1.363 . S
N1100 C1102 1.356 . S
N1100 H1112 0.984 . S
N1100 H1113 0.985 . S
N1101 C1103 1.356 1_565 S
N1101 H1106 0.984 . S
N1101 H1107 0.985 . S
C1102 C1096 1.379 . S
C1102 C1099 1.363 . S
C1102 N1100 1.356 . S
C1103 C1097 1.363 . S
C1103 C1098 1.379 . S
C1103 N1101 1.356 1_545 S
N1104 C1096 1.356 . S
N1104 H1110 0.984 . S
N1104 H1111 0.984 . S
N1105 C1098 1.356 . S
N1105 H1108 0.984 . S
N1105 H1109 0.985 1_545 S
H1106 N1101 0.984 . S
H1107 N1101 0.985 . S
H1108 N1105 0.984 . S
H1109 N1105 0.985 1_565 S
H1110 N1104 0.984 . S
H1111 N1104 0.984 . S
H1112 N1100 0.984 . S
H1113 N1100 0.985 . S
C1114 C1115 1.363 . S
C1114 C1120 1.379 . S
C1114 N1122 1.356 . S
C1115 C1114 1.363 . S
C1115 C1121 1.363 . S
C1116 C1117 1.363 . S
C1116 C1121 1.379 . S
C1116 N1123 1.356 . S
C1117 C1116 1.363 . S
C1117 C1120 1.363 . S
N1118 C1120 1.356 . S
N1118 H1130 0.984 . S
N1118 H1131 0.985 . S
N1119 C1121 1.356 . S
N1119 H1124 0.984 . S
N1119 H1125 0.985 . S
C1120 C1114 1.379 . S
C1120 C1117 1.363 . S
C1120 N1118 1.356 . S
C1121 C1115 1.363 . S
C1121 C1116 1.379 . S
C1121 N1119 1.356 . S
N1122 C1114 1.356 . S
N1122 H1128 0.984 . S
N1122 H1129 0.984 . S
N1123 C1116 1.356 . S
N1123 H1126 0.984 . S
N1123 H1127 0.985 . S
H1124 N1119 0.984 . S
H1125 N1119 0.985 . S
H1126 N1123 0.984 . S
H1127 N1123 0.985 . S
H1128 N1122 0.984 . S
H1129 N1122 0.984 . S
H1130 N1118 0.984 . S
H1131 N1118 0.985 . S
C1132 C1133 1.363 . S
C1132 C1138 1.379 1_545 S
C1132 N1140 1.356 . S
C1133 C1132 1.363 . S
C1133 C1139 1.357 1_545 S
C1134 C1135 1.363 . S
C1134 C1139 1.389 . S
C1134 N1141 1.356 . S
C1135 C1134 1.363 . S
C1135 C1138 1.363 . S
N1136 C1138 1.356 . S
N1136 H1148 0.984 . S
N1136 H1149 0.985 . S
N1137 C1139 1.349 1_545 S
N1137 H1142 0.984 . S
N1137 H1143 0.985 . S
C1138 C1132 1.379 1_565 S
C1138 C1135 1.363 . S
C1138 N1136 1.356 . S
C1139 C1133 1.357 1_565 S
C1139 C1134 1.389 . S
C1139 N1137 1.349 1_565 S
N1140 C1132 1.356 . S
N1140 H1146 0.984 . S
N1140 H1147 0.984 . S
N1141 C1134 1.356 . S
N1141 H1144 0.984 . S
N1141 H1145 0.985 . S
H1142 N1137 0.984 . S
H1143 N1137 0.985 . S
H1144 N1141 0.984 . S
H1145 N1141 0.985 . S
H1146 N1140 0.984 . S
H1147 N1140 0.984 . S
H1148 N1136 0.984 . S
H1149 N1136 0.985 . S
C1150 C1151 1.363 . S
C1150 C1156 1.379 . S
C1150 N1158 1.356 . S
C1151 C1150 1.363 . S
C1151 C1157 1.363 . S
C1152 C1153 1.363 . S
C1152 C1157 1.379 . S
C1152 N1159 1.356 . S
C1153 C1152 1.363 . S
C1153 C1156 1.363 . S
N1154 C1156 1.356 . S
N1154 H1166 0.984 . S
N1154 H1167 0.985 . S
N1155 C1157 1.356 . S
N1155 H1160 0.984 . S
N1155 H1161 0.985 . S
C1156 C1150 1.379 . S
C1156 C1153 1.363 . S
C1156 N1154 1.356 . S
C1157 C1151 1.363 . S
C1157 C1152 1.379 . S
C1157 N1155 1.356 . S
N1158 C1150 1.356 . S
N1158 H1164 0.984 . S
N1158 H1165 0.984 . S
N1159 C1152 1.356 . S
N1159 H1162 0.984 . S
N1159 H1163 0.985 . S
H1160 N1155 0.984 . S
H1161 N1155 0.985 . S
H1162 N1159 0.984 . S
H1163 N1159 0.985 . S
H1164 N1158 0.984 . S
H1165 N1158 0.984 . S
H1166 N1154 0.984 . S
H1167 N1154 0.985 . S
C1168 C1169 1.363 . S
C1168 C1174 1.379 1_554 S
C1168 N1176 1.356 . S
C1169 C1168 1.363 . S
C1169 C1175 1.363 . S
C1170 C1171 1.363 . S
C1170 C1175 1.379 . S
C1170 N1177 1.356 . S
C1171 C1170 1.363 . S
C1171 C1174 1.363 1_554 S
N1172 C1174 1.356 . S
N1172 H1184 0.984 1_545 S
N1172 H1185 0.985 . S
N1173 C1175 1.356 . S
N1173 H1178 0.984 . S
N1173 H1179 0.985 . S
C1174 C1168 1.379 1_556 S
C1174 C1171 1.363 1_556 S
C1174 N1172 1.356 . S
C1175 C1169 1.363 . S
C1175 C1170 1.379 . S
C1175 N1173 1.356 . S
N1176 C1168 1.356 . S
N1176 H1182 0.984 1_545 S
N1176 H1183 0.984 . S
N1177 C1170 1.356 . S
N1177 H1180 0.984 . S
N1177 H1181 0.985 . S
H1178 N1173 0.984 . S
H1179 N1173 0.985 . S
H1180 N1177 0.984 . S
H1181 N1177 0.985 . S
H1182 N1176 0.984 1_565 S
H1183 N1176 0.984 . S
H1184 N1172 0.984 1_565 S
H1185 N1172 0.985 . S
C1186 C1187 1.363 . S
C1186 C1192 1.379 . S
C1186 N1194 1.356 . S
C1187 C1186 1.363 . S
C1187 C1193 1.363 . S
C1188 C1189 1.363 . S
C1188 C1193 1.379 . S
C1188 N1195 1.356 . S
C1189 C1188 1.363 . S
C1189 C1192 1.363 . S
N1190 C1192 1.356 . S
N1190 H1202 0.984 . S
N1190 H1203 0.985 . S
N1191 C1193 1.356 . S
N1191 H1196 0.984 . S
N1191 H1197 0.985 1_554 S
C1192 C1186 1.379 . S
C1192 C1189 1.363 . S
C1192 N1190 1.356 . S
C1193 C1187 1.363 . S
C1193 C1188 1.379 . S
C1193 N1191 1.356 . S
N1194 C1186 1.356 . S
N1194 H1200 0.984 . S
N1194 H1201 0.984 . S
N1195 C1188 1.356 . S
N1195 H1198 0.984 . S
N1195 H1199 0.985 1_554 S
H1196 N1191 0.984 . S
H1197 N1191 0.985 1_556 S
H1198 N1195 0.984 . S
H1199 N1195 0.985 1_556 S
H1200 N1194 0.984 . S
H1201 N1194 0.984 . S
H1202 N1190 0.984 . S
H1203 N1190 0.985 . S
C1204 C1205 1.363 . S
C1204 C1210 1.379 . S
C1204 N1212 1.356 . S
C1205 C1204 1.363 . S
C1205 C1211 1.363 . S
C1206 C1207 1.363 . S
C1206 C1211 1.379 . S
C1206 N1213 1.356 . S
C1207 C1206 1.363 . S
C1207 C1210 1.363 . S
N1208 C1210 1.356 . S
N1208 H1220 0.984 . S
N1208 H1221 0.985 . S
N1209 C1211 1.356 . S
N1209 H1214 0.984 . S
N1209 H1215 0.985 . S
C1210 C1204 1.379 . S
C1210 C1207 1.363 . S
C1210 N1208 1.356 . S
C1211 C1205 1.363 . S
C1211 C1206 1.379 . S
C1211 N1209 1.356 . S
N1212 C1204 1.356 . S
N1212 H1218 0.984 . S
N1212 H1219 0.984 . S
N1213 C1206 1.356 . S
N1213 H1216 0.984 . S
N1213 H1217 0.985 . S
H1214 N1209 0.984 . S
H1215 N1209 0.985 . S
H1216 N1213 0.984 . S
H1217 N1213 0.985 . S
H1218 N1212 0.984 . S
H1219 N1212 0.984 . S
H1220 N1208 0.984 . S
H1221 N1208 0.985 . S
C1222 C1223 1.363 . S
C1222 C1228 1.379 . S
C1222 N1230 1.356 . S
C1223 C1222 1.363 . S
C1223 C1229 1.363 . S
C1224 C1225 1.363 . S
C1224 C1229 1.379 . S
C1224 N1231 1.356 . S
C1225 C1224 1.363 . S
C1225 C1228 1.363 . S
N1226 C1228 1.356 . S
N1226 H1238 0.984 . S
N1226 H1239 0.985 1_655 S
N1227 C1229 1.356 . S
N1227 H1232 0.984 . S
N1227 H1233 0.985 . S
C1228 C1222 1.379 . S
C1228 C1225 1.363 . S
C1228 N1226 1.356 . S
C1229 C1223 1.363 . S
C1229 C1224 1.379 . S
C1229 N1227 1.356 . S
N1230 C1222 1.356 . S
N1230 H1236 0.984 . S
N1230 H1237 0.984 . S
N1231 C1224 1.356 . S
N1231 H1234 0.984 . S
N1231 H1235 0.985 . S
H1232 N1227 0.984 . S
H1233 N1227 0.985 . S
H1234 N1231 0.984 . S
H1235 N1231 0.985 . S
H1236 N1230 0.984 . S
H1237 N1230 0.984 . S
H1238 N1226 0.984 . S
H1239 N1226 0.985 1_455 S
C1240 C1241 1.363 . S
C1240 C1246 1.379 . S
C1240 N1248 1.356 . S
C1241 C1240 1.363 . S
C1241 C1247 1.363 . S
C1242 C1243 1.363 . S
C1242 C1247 1.379 . S
C1242 N1249 1.356 . S
C1243 C1242 1.363 . S
C1243 C1246 1.363 . S
N1244 C1246 1.356 . S
N1244 H1256 0.984 . S
N1244 H1257 0.985 . S
N1245 C1247 1.356 . S
N1245 H1250 0.984 . S
N1245 H1251 0.985 . S
C1246 C1240 1.379 . S
C1246 C1243 1.363 . S
C1246 N1244 1.356 . S
C1247 C1241 1.363 . S
C1247 C1242 1.379 . S
C1247 N1245 1.356 . S
N1248 C1240 1.356 . S
N1248 H1254 0.984 . S
N1248 H1255 0.984 . S
N1249 C1242 1.356 . S
N1249 H1252 0.984 . S
N1249 H1253 0.985 . S
H1250 N1245 0.984 . S
H1251 N1245 0.985 . S
H1252 N1249 0.984 . S
H1253 N1249 0.985 . S
H1254 N1248 0.984 . S
H1255 N1248 0.984 . S
H1256 N1244 0.984 . S
H1257 N1244 0.985 . S
C1258 C1259 1.363 . S
C1258 C1264 1.379 . S
C1258 N1266 1.356 . S
C1259 C1258 1.363 . S
C1259 C1265 1.363 . S
C1260 C1261 1.363 . S
C1260 C1265 1.379 . S
C1260 N1267 1.356 . S
C1261 C1260 1.363 . S
C1261 C1264 1.363 . S
N1262 C1264 1.356 . S
N1262 H1274 0.984 . S
N1262 H1275 0.985 . S
N1263 C1265 1.356 . S
N1263 H1268 0.984 . S
N1263 H1269 0.985 . S
C1264 C1258 1.379 . S
C1264 C1261 1.363 . S
C1264 N1262 1.356 . S
C1265 C1259 1.363 . S
C1265 C1260 1.379 . S
C1265 N1263 1.356 . S
N1266 C1258 1.356 . S
N1266 H1272 0.984 . S
N1266 H1273 0.984 . S
N1267 C1260 1.356 . S
N1267 H1270 0.984 . S
N1267 H1271 0.985 . S
H1268 N1263 0.984 . S
H1269 N1263 0.985 . S
H1270 N1267 0.984 . S
H1271 N1267 0.985 . S
H1272 N1266 0.984 . S
H1273 N1266 0.984 . S
H1274 N1262 0.984 . S
H1275 N1262 0.985 . S
C1276 C1277 1.363 . S
C1276 C1282 1.379 . S
C1276 N1284 1.356 . S
C1277 C1276 1.363 . S
C1277 C1283 1.363 . S
C1278 C1279 1.363 . S
C1278 C1283 1.379 . S
C1278 N1285 1.356 . S
C1279 C1278 1.363 . S
C1279 C1282 1.363 . S
N1280 C1282 1.356 . S
N1280 H1292 0.984 . S
N1280 H1293 0.985 . S
N1281 C1283 1.356 . S
N1281 H1286 0.984 . S
N1281 H1287 0.985 . S
C1282 C1276 1.379 . S
C1282 C1279 1.363 . S
C1282 N1280 1.356 . S
C1283 C1277 1.363 . S
C1283 C1278 1.379 . S
C1283 N1281 1.356 . S
N1284 C1276 1.356 . S
N1284 H1290 0.984 . S
N1284 H1291 0.984 . S
N1285 C1278 1.356 . S
N1285 H1288 0.984 . S
N1285 H1289 0.985 . S
H1286 N1281 0.984 . S
H1287 N1281 0.985 . S
H1288 N1285 0.984 . S
H1289 N1285 0.985 . S
H1290 N1284 0.984 . S
H1291 N1284 0.984 . S
H1292 N1280 0.984 . S
H1293 N1280 0.985 . S
C1294 C1295 1.363 . S
C1294 C1300 1.379 . S
C1294 N1302 1.356 . S
C1295 C1294 1.363 . S
C1295 C1301 1.363 . S
C1296 C1297 1.363 . S
C1296 C1301 1.379 . S
C1296 N1303 1.356 . S
C1297 C1296 1.363 . S
C1297 C1300 1.363 . S
N1298 C1300 1.356 . S
N1298 H1310 0.984 . S
N1298 H1311 0.985 . S
N1299 C1301 1.356 . S
N1299 H1304 0.984 . S
N1299 H1305 0.985 . S
C1300 C1294 1.379 . S
C1300 C1297 1.363 . S
C1300 N1298 1.356 . S
C1301 C1295 1.363 . S
C1301 C1296 1.379 . S
C1301 N1299 1.356 . S
N1302 C1294 1.356 . S
N1302 H1308 0.984 . S
N1302 H1309 0.984 . S
N1303 C1296 1.356 . S
N1303 H1306 0.984 . S
N1303 H1307 0.985 . S
H1304 N1299 0.984 . S
H1305 N1299 0.985 . S
H1306 N1303 0.984 . S
H1307 N1303 0.985 . S
H1308 N1302 0.984 . S
H1309 N1302 0.984 . S
H1310 N1298 0.984 . S
H1311 N1298 0.985 . S
C1312 C1313 1.363 . S
C1312 C1318 1.379 . S
C1312 N1320 1.356 . S
C1313 C1312 1.363 . S
C1313 C1319 1.363 . S
C1314 C1315 1.363 . S
C1314 C1319 1.379 . S
C1314 N1321 1.356 1_556 S
C1315 C1314 1.363 . S
C1315 C1318 1.363 . S
N1316 C1318 1.356 . S
N1316 H1328 0.984 . S
N1316 H1329 0.985 . S
N1317 C1319 1.356 1_655 S
N1317 H1322 0.984 . S
N1317 H1323 0.985 . S
C1318 C1312 1.379 . S
C1318 C1315 1.363 . S
C1318 N1316 1.356 . S
C1319 C1313 1.363 . S
C1319 C1314 1.379 . S
C1319 N1317 1.356 1_455 S
N1320 C1312 1.356 . S
N1320 H1326 0.984 . S
N1320 H1327 0.984 . S
N1321 C1314 1.356 1_554 S
N1321 H1324 0.984 . S
N1321 H1325 0.985 . S
H1322 N1317 0.984 . S
H1323 N1317 0.985 . S
H1324 N1321 0.984 . S
H1325 N1321 0.985 . S
H1326 N1320 0.984 . S
H1327 N1320 0.984 . S
H1328 N1316 0.984 . S
H1329 N1316 0.985 . S
C1330 C1331 1.363 . S
C1330 C1336 1.379 . S
C1330 N1338 1.356 . S
C1331 C1330 1.363 . S
C1331 C1337 1.363 . S
C1332 C1333 1.363 . S
C1332 C1337 1.379 . S
C1332 N1339 1.356 . S
C1333 C1332 1.363 . S
C1333 C1336 1.363 . S
N1334 C1336 1.356 . S
N1334 H1346 0.984 . S
N1334 H1347 0.985 . S
N1335 C1337 1.356 . S
N1335 H1340 0.984 . S
N1335 H1341 0.985 . S
C1336 C1330 1.379 . S
C1336 C1333 1.363 . S
C1336 N1334 1.356 . S
C1337 C1331 1.363 . S
C1337 C1332 1.379 . S
C1337 N1335 1.356 . S
N1338 C1330 1.356 . S
N1338 H1344 0.984 . S
N1338 H1345 0.984 . S
N1339 C1332 1.356 . S
N1339 H1342 0.984 . S
N1339 H1343 0.985 . S
H1340 N1335 0.984 . S
H1341 N1335 0.985 . S
H1342 N1339 0.984 . S
H1343 N1339 0.985 . S
H1344 N1338 0.984 . S
H1345 N1338 0.984 . S
H1346 N1334 0.984 . S
H1347 N1334 0.985 . S
C1348 C1349 1.363 . S
C1348 C1354 1.379 . S
C1348 N1356 1.356 . S
C1349 C1348 1.363 . S
C1349 C1355 1.363 . S
C1350 C1351 1.363 . S
C1350 C1355 1.379 . S
C1350 N1357 1.356 . S
C1351 C1350 1.363 . S
C1351 C1354 1.363 . S
N1352 C1354 1.356 . S
N1352 H1364 0.984 . S
N1352 H1365 0.985 . S
N1353 C1355 1.356 . S
N1353 H1358 0.984 . S
N1353 H1359 0.985 . S
C1354 C1348 1.379 . S
C1354 C1351 1.363 . S
C1354 N1352 1.356 . S
C1355 C1349 1.363 . S
C1355 C1350 1.379 . S
C1355 N1353 1.356 . S
N1356 C1348 1.356 . S
N1356 H1362 0.984 . S
N1356 H1363 0.984 . S
N1357 C1350 1.356 . S
N1357 H1360 0.984 . S
N1357 H1361 0.985 . S
H1358 N1353 0.984 . S
H1359 N1353 0.985 . S
H1360 N1357 0.984 . S
H1361 N1357 0.985 . S
H1362 N1356 0.984 . S
H1363 N1356 0.984 . S
H1364 N1352 0.984 . S
H1365 N1352 0.985 . S
C1366 C1367 1.363 . S
C1366 C1372 1.379 . S
C1366 N1374 1.356 . S
C1367 C1366 1.363 . S
C1367 C1373 1.363 . S
C1368 C1369 1.363 . S
C1368 C1373 1.379 . S
C1368 N1375 1.356 . S
C1369 C1368 1.363 . S
C1369 C1372 1.363 . S
N1370 C1372 1.356 . S
N1370 H1382 0.984 . S
N1370 H1383 0.985 . S
N1371 C1373 1.356 . S
N1371 H1376 0.984 . S
N1371 H1377 0.985 . S
C1372 C1366 1.379 . S
C1372 C1369 1.363 . S
C1372 N1370 1.356 . S
C1373 C1367 1.363 . S
C1373 C1368 1.379 . S
C1373 N1371 1.356 . S
N1374 C1366 1.356 . S
N1374 H1380 0.984 . S
N1374 H1381 0.984 . S
N1375 C1368 1.356 . S
N1375 H1378 0.984 . S
N1375 H1379 0.985 . S
H1376 N1371 0.984 . S
H1377 N1371 0.985 . S
H1378 N1375 0.984 . S
H1379 N1375 0.985 . S
H1380 N1374 0.984 . S
H1381 N1374 0.984 . S
H1382 N1370 0.984 . S
H1383 N1370 0.985 . S
C1384 C1385 1.363 . S
C1384 C1390 1.379 . S
C1384 N1392 1.356 . S
C1385 C1384 1.363 . S
C1385 C1391 1.363 . S
C1386 C1387 1.363 . S
C1386 C1391 1.379 . S
C1386 N1393 1.356 . S
C1387 C1386 1.363 . S
C1387 C1390 1.363 . S
N1388 C1390 1.356 . S
N1388 H1400 0.984 1_455 S
N1388 H1401 0.985 . S
N1389 C1391 1.356 . S
N1389 H1394 0.984 . S
N1389 H1395 0.985 . S
C1390 C1384 1.379 . S
C1390 C1387 1.363 . S
C1390 N1388 1.356 . S
C1391 C1385 1.363 . S
C1391 C1386 1.379 . S
C1391 N1389 1.356 . S
N1392 C1384 1.356 . S
N1392 H1398 0.984 1_455 S
N1392 H1399 0.984 . S
N1393 C1386 1.356 . S
N1393 H1396 0.984 . S
N1393 H1397 0.985 . S
H1394 N1389 0.984 . S
H1395 N1389 0.985 . S
H1396 N1393 0.984 . S
H1397 N1393 0.985 . S
H1398 N1392 0.984 1_655 S
H1399 N1392 0.984 . S
H1400 N1388 0.984 1_655 S
H1401 N1388 0.985 . S
C1402 C1403 1.363 . S
C1402 C1408 1.379 . S
C1402 N1410 1.356 . S
C1403 C1402 1.363 . S
C1403 C1409 1.363 . S
C1404 C1405 1.363 . S
C1404 C1409 1.379 . S
C1404 N1411 1.356 . S
C1405 C1404 1.363 . S
C1405 C1408 1.363 . S
N1406 C1408 1.356 . S
N1406 H1418 0.984 . S
N1406 H1419 0.985 . S
N1407 C1409 1.356 . S
N1407 H1412 0.984 . S
N1407 H1413 0.985 . S
C1408 C1402 1.379 . S
C1408 C1405 1.363 . S
C1408 N1406 1.356 . S
C1409 C1403 1.363 . S
C1409 C1404 1.379 . S
C1409 N1407 1.356 . S
N1410 C1402 1.356 . S
N1410 H1416 0.984 . S
N1410 H1417 0.984 . S
N1411 C1404 1.356 . S
N1411 H1414 0.984 . S
N1411 H1415 0.985 . S
H1412 N1407 0.984 . S
H1413 N1407 0.985 . S
H1414 N1411 0.984 . S
H1415 N1411 0.985 . S
H1416 N1410 0.984 . S
H1417 N1410 0.984 . S
H1418 N1406 0.984 . S
H1419 N1406 0.985 . S
C1420 C1421 1.363 . S
C1420 C1426 1.379 . S
C1420 N1428 1.356 . S
C1421 C1420 1.363 . S
C1421 C1427 1.363 . S
C1422 C1423 1.363 . S
C1422 C1427 1.379 . S
C1422 N1429 1.356 . S
C1423 C1422 1.363 . S
C1423 C1426 1.363 . S
N1424 C1426 1.356 . S
N1424 H1436 0.984 . S
N1424 H1437 0.985 . S
N1425 C1427 1.356 . S
N1425 H1430 0.984 . S
N1425 H1431 0.985 . S
C1426 C1420 1.379 . S
C1426 C1423 1.363 . S
C1426 N1424 1.356 . S
C1427 C1421 1.363 . S
C1427 C1422 1.379 . S
C1427 N1425 1.356 . S
N1428 C1420 1.356 . S
N1428 H1434 0.984 . S
N1428 H1435 0.984 . S
N1429 C1422 1.356 . S
N1429 H1432 0.984 . S
N1429 H1433 0.985 . S
H1430 N1425 0.984 . S
H1431 N1425 0.985 . S
H1432 N1429 0.984 . S
H1433 N1429 0.985 . S
H1434 N1428 0.984 . S
H1435 N1428 0.984 . S
H1436 N1424 0.984 . S
H1437 N1424 0.985 . S
C1438 C1439 1.363 . S
C1438 C1444 1.379 . S
C1438 N1446 1.356 . S
C1439 C1438 1.363 . S
C1439 C1445 1.363 . S
C1440 C1441 1.363 . S
C1440 C1445 1.379 . S
C1440 N1447 1.356 . S
C1441 C1440 1.363 . S
C1441 C1444 1.363 . S
N1442 C1444 1.356 . S
N1442 H1454 0.984 . S
N1442 H1455 0.985 . S
N1443 C1445 1.356 . S
N1443 H1448 0.984 . S
N1443 H1449 0.985 . S
C1444 C1438 1.379 . S
C1444 C1441 1.363 . S
C1444 N1442 1.356 . S
C1445 C1439 1.363 . S
C1445 C1440 1.379 . S
C1445 N1443 1.356 . S
N1446 C1438 1.356 . S
N1446 H1452 0.984 . S
N1446 H1453 0.984 . S
N1447 C1440 1.356 . S
N1447 H1450 0.984 . S
N1447 H1451 0.985 . S
H1448 N1443 0.984 . S
H1449 N1443 0.985 . S
H1450 N1447 0.984 . S
H1451 N1447 0.985 . S
H1452 N1446 0.984 . S
H1453 N1446 0.984 . S
H1454 N1442 0.984 . S
H1455 N1442 0.985 . S
C1456 C1457 1.363 . S
C1456 C1462 1.379 1_655 S
C1456 N1464 1.356 . S
C1457 C1456 1.363 . S
C1457 C1463 1.363 1_545 S
C1458 C1459 1.363 . S
C1458 C1463 1.378 1_545 S
C1458 N1465 1.356 . S
C1459 C1458 1.363 . S
C1459 C1462 1.363 1_655 S
N1460 C1462 1.356 . S
N1460 H1472 0.984 . S
N1460 H1473 0.985 . S
N1461 C1463 1.357 . S
N1461 H1466 0.984 . S
N1461 H1467 0.985 . S
C1462 C1456 1.379 1_455 S
C1462 C1459 1.363 1_455 S
C1462 N1460 1.356 . S
C1463 C1457 1.363 1_565 S
C1463 C1458 1.378 1_565 S
C1463 N1461 1.357 . S
N1464 C1456 1.356 . S
N1464 H1470 0.974 1_655 S
N1464 H1471 0.984 . S
N1465 C1458 1.356 . S
N1465 H1468 0.984 . S
N1465 H1469 0.985 1_545 S
H1466 N1461 0.984 . S
H1467 N1461 0.985 . S
H1468 N1465 0.984 . S
H1469 N1465 0.985 1_565 S
H1470 N1464 0.974 1_455 S
H1471 N1464 0.984 . S
H1472 N1460 0.984 . S
H1473 N1460 0.985 . S
C1474 C1475 1.363 . S
C1474 C1480 1.379 . S
C1474 N1482 1.356 . S
C1475 C1474 1.363 . S
C1475 C1481 1.363 . S
C1476 C1477 1.363 . S
C1476 C1481 1.379 . S
C1476 N1483 1.356 . S
C1477 C1476 1.363 . S
C1477 C1480 1.363 . S
N1478 C1480 1.356 . S
N1478 H1490 0.984 . S
N1478 H1491 0.985 . S
N1479 C1481 1.356 . S
N1479 H1484 0.984 . S
N1479 H1485 0.985 . S
C1480 C1474 1.379 . S
C1480 C1477 1.363 . S
C1480 N1478 1.356 . S
C1481 C1475 1.363 . S
C1481 C1476 1.379 . S
C1481 N1479 1.356 . S
N1482 C1474 1.356 . S
N1482 H1488 0.984 . S
N1482 H1489 0.984 . S
N1483 C1476 1.356 . S
N1483 H1486 0.984 . S
N1483 H1487 0.985 . S
H1484 N1479 0.984 . S
H1485 N1479 0.985 . S
H1486 N1483 0.984 . S
H1487 N1483 0.985 . S
H1488 N1482 0.984 . S
H1489 N1482 0.984 . S
H1490 N1478 0.984 . S
H1491 N1478 0.985 . S
C1492 C1493 1.363 . S
C1492 C1498 1.379 . S
C1492 N1500 1.356 . S
C1493 C1492 1.363 . S
C1493 C1499 1.363 . S
C1494 C1495 1.362 1_565 S
C1494 C1499 1.377 1_565 S
C1494 N1501 1.359 . S
C1495 C1494 1.362 1_545 S
C1495 C1498 1.363 . S
N1496 C1498 1.356 . S
N1496 H1508 0.984 . S
N1496 H1509 0.985 . S
N1497 C1499 1.356 . S
N1497 H1502 0.984 . S
N1497 H1503 0.985 1_545 S
C1498 C1492 1.379 . S
C1498 C1495 1.363 . S
C1498 N1496 1.356 . S
C1499 C1493 1.363 . S
C1499 C1494 1.377 1_545 S
C1499 N1497 1.356 . S
N1500 C1492 1.356 . S
N1500 H1506 0.984 . S
N1500 H1507 0.984 . S
N1501 C1494 1.359 . S
N1501 H1504 0.984 . S
N1501 H1505 0.985 . S
H1502 N1497 0.984 . S
H1503 N1497 0.985 1_565 S
H1504 N1501 0.984 . S
H1505 N1501 0.985 . S
H1506 N1500 0.984 . S
H1507 N1500 0.984 . S
H1508 N1496 0.984 . S
H1509 N1496 0.985 . S
C1510 C1511 1.363 . S
C1510 C1516 1.379 . S
C1510 N1518 1.356 . S
C1511 C1510 1.363 . S
C1511 C1517 1.363 . S
C1512 C1513 1.363 . S
C1512 C1517 1.379 . S
C1512 N1519 1.356 . S
C1513 C1512 1.363 . S
C1513 C1516 1.363 . S
N1514 C1516 1.356 . S
N1514 H1526 0.984 . S
N1514 H1527 0.985 . S
N1515 C1517 1.356 . S
N1515 H1520 0.984 . S
N1515 H1521 0.985 . S
C1516 C1510 1.379 . S
C1516 C1513 1.363 . S
C1516 N1514 1.356 . S
C1517 C1511 1.363 . S
C1517 C1512 1.379 . S
C1517 N1515 1.356 . S
N1518 C1510 1.356 . S
N1518 H1524 0.984 . S
N1518 H1525 0.984 . S
N1519 C1512 1.356 . S
N1519 H1522 0.984 . S
N1519 H1523 0.985 . S
H1520 N1515 0.984 . S
H1521 N1515 0.985 . S
H1522 N1519 0.984 . S
H1523 N1519 0.985 . S
H1524 N1518 0.984 . S
H1525 N1518 0.984 . S
H1526 N1514 0.984 . S
H1527 N1514 0.985 . S
C1528 C1529 1.363 1_545 S
C1528 C1534 1.379 . S
C1528 N1536 1.356 . S
C1529 C1528 1.363 1_565 S
C1529 C1535 1.363 . S
C1530 C1531 1.363 . S
C1530 C1535 1.379 . S
C1530 N1537 1.356 . S
C1531 C1530 1.363 . S
C1531 C1534 1.363 1_565 S
N1532 C1534 1.356 . S
N1532 H1544 0.984 . S
N1532 H1545 0.985 . S
N1533 C1535 1.356 . S
N1533 H1538 0.984 . S
N1533 H1539 0.985 . S
C1534 C1528 1.379 . S
C1534 C1531 1.363 1_545 S
C1534 N1532 1.356 . S
C1535 C1529 1.363 . S
C1535 C1530 1.379 . S
C1535 N1533 1.356 . S
N1536 C1528 1.356 . S
N1536 H1542 0.984 . S
N1536 H1543 0.984 . S
N1537 C1530 1.356 . S
N1537 H1540 0.984 . S
N1537 H1541 0.985 . S
H1538 N1533 0.984 . S
H1539 N1533 0.985 . S
H1540 N1537 0.984 . S
H1541 N1537 0.985 . S
H1542 N1536 0.984 . S
H1543 N1536 0.984 . S
H1544 N1532 0.984 . S
H1545 N1532 0.985 . S
C1546 C1547 1.363 . S
C1546 C1552 1.379 . S
C1546 N1554 1.356 . S
C1547 C1546 1.363 . S
C1547 C1553 1.363 . S
C1548 C1549 1.363 . S
C1548 C1553 1.379 . S
C1548 N1555 1.356 . S
C1549 C1548 1.363 . S
C1549 C1552 1.363 . S
N1550 C1552 1.356 . S
N1550 H1562 0.984 . S
N1550 H1563 0.985 . S
N1551 C1553 1.356 . S
N1551 H1556 0.984 . S
N1551 H1557 0.985 . S
C1552 C1546 1.379 . S
C1552 C1549 1.363 . S
C1552 N1550 1.356 . S
C1553 C1547 1.363 . S
C1553 C1548 1.379 . S
C1553 N1551 1.356 . S
N1554 C1546 1.356 . S
N1554 H1560 0.984 . S
N1554 H1561 0.984 . S
N1555 C1548 1.356 . S
N1555 H1558 0.984 . S
N1555 H1559 0.985 . S
H1556 N1551 0.984 . S
H1557 N1551 0.985 . S
H1558 N1555 0.984 . S
H1559 N1555 0.985 . S
H1560 N1554 0.984 . S
H1561 N1554 0.984 . S
H1562 N1550 0.984 . S
H1563 N1550 0.985 . S
C1564 C1565 1.363 . S
C1564 C1570 1.379 . S
C1564 N1572 1.356 . S
C1565 C1564 1.363 . S
C1565 C1571 1.363 . S
C1566 C1567 1.363 . S
C1566 C1571 1.379 . S
C1566 N1573 1.356 . S
C1567 C1566 1.363 . S
C1567 C1570 1.363 . S
N1568 C1570 1.356 . S
N1568 H1580 0.984 . S
N1568 H1581 0.985 . S
N1569 C1571 1.356 . S
N1569 H1574 0.984 . S
N1569 H1575 0.985 . S
C1570 C1564 1.379 . S
C1570 C1567 1.363 . S
C1570 N1568 1.356 . S
C1571 C1565 1.363 . S
C1571 C1566 1.379 . S
C1571 N1569 1.356 . S
N1572 C1564 1.356 . S
N1572 H1578 0.984 . S
N1572 H1579 0.984 . S
N1573 C1566 1.356 . S
N1573 H1576 0.984 . S
N1573 H1577 0.985 . S
H1574 N1569 0.984 . S
H1575 N1569 0.985 . S
H1576 N1573 0.984 . S
H1577 N1573 0.985 . S
H1578 N1572 0.984 . S
H1579 N1572 0.984 . S
H1580 N1568 0.984 . S
H1581 N1568 0.985 . S
C1582 C1583 1.363 . S
C1582 C1588 1.379 . S
C1582 N1590 1.356 . S
C1583 C1582 1.363 . S
C1583 C1589 1.363 . S
C1584 C1585 1.363 . S
C1584 C1589 1.379 . S
C1584 N1591 1.356 . S
C1585 C1584 1.363 . S
C1585 C1588 1.363 . S
N1586 C1588 1.356 . S
N1586 H1598 0.984 . S
N1586 H1599 0.985 . S
N1587 C1589 1.356 . S
N1587 H1592 0.984 . S
N1587 H1593 0.985 . S
C1588 C1582 1.379 . S
C1588 C1585 1.363 . S
C1588 N1586 1.356 . S
C1589 C1583 1.363 . S
C1589 C1584 1.379 . S
C1589 N1587 1.356 . S
N1590 C1582 1.356 . S
N1590 H1596 0.984 . S
N1590 H1597 0.984 1_556 S
N1591 C1584 1.356 . S
N1591 H1594 0.984 . S
N1591 H1595 0.985 . S
H1592 N1587 0.984 . S
H1593 N1587 0.985 . S
H1594 N1591 0.984 . S
H1595 N1591 0.985 . S
H1596 N1590 0.984 . S
H1597 N1590 0.984 1_554 S
H1598 N1586 0.984 . S
H1599 N1586 0.985 . S
C1600 C1601 1.363 1_545 S
C1600 C1606 1.379 . S
C1600 N1608 1.356 . S
C1601 C1600 1.363 1_565 S
C1601 C1607 1.363 . S
C1602 C1603 1.363 . S
C1602 C1607 1.379 . S
C1602 N1609 1.356 . S
C1603 C1602 1.363 . S
C1603 C1606 1.363 1_565 S
N1604 C1606 1.356 . S
N1604 H1616 0.984 . S
N1604 H1617 0.985 . S
N1605 C1607 1.356 . S
N1605 H1610 0.984 . S
N1605 H1611 0.985 . S
C1606 C1600 1.379 . S
C1606 C1603 1.363 1_545 S
C1606 N1604 1.356 . S
C1607 C1601 1.363 . S
C1607 C1602 1.379 . S
C1607 N1605 1.356 . S
N1608 C1600 1.356 . S
N1608 H1614 0.984 1_554 S
N1608 H1615 0.983 1_554 S
N1609 C1602 1.356 . S
N1609 H1612 0.984 . S
N1609 H1613 0.985 . S
H1610 N1605 0.984 . S
H1611 N1605 0.985 . S
H1612 N1609 0.984 . S
H1613 N1609 0.985 . S
H1614 N1608 0.984 1_556 S
H1615 N1608 0.983 1_556 S
H1616 N1604 0.984 . S
H1617 N1604 0.985 . S
C1618 C1619 1.363 1_556 S
C1618 C1624 1.379 . S
C1618 N1626 1.356 . S
C1619 C1618 1.363 1_554 S
C1619 C1625 1.363 . S
C1620 C1621 1.363 . S
C1620 C1625 1.379 . S
C1620 N1627 1.356 . S
C1621 C1620 1.363 . S
C1621 C1624 1.363 1_554 S
N1622 C1624 1.356 . S
N1622 H1634 0.984 . S
N1622 H1635 0.985 . S
N1623 C1625 1.356 . S
N1623 H1628 0.984 . S
N1623 H1629 0.985 . S
C1624 C1618 1.379 . S
C1624 C1621 1.363 1_556 S
C1624 N1622 1.356 . S
C1625 C1619 1.363 . S
C1625 C1620 1.379 . S
C1625 N1623 1.356 . S
N1626 C1618 1.356 . S
N1626 H1632 0.984 . S
N1626 H1633 0.984 . S
N1627 C1620 1.356 . S
N1627 H1630 0.984 . S
N1627 H1631 0.985 . S
H1628 N1623 0.984 . S
H1629 N1623 0.985 . S
H1630 N1627 0.984 . S
H1631 N1627 0.985 . S
H1632 N1626 0.984 . S
H1633 N1626 0.984 . S
H1634 N1622 0.984 . S
H1635 N1622 0.985 . S
C1636 C1637 1.363 . S
C1636 C1642 1.379 . S
C1636 N1644 1.356 . S
C1637 C1636 1.363 . S
C1637 C1643 1.363 . S
C1638 C1639 1.363 . S
C1638 C1643 1.379 . S
C1638 N1645 1.356 . S
C1639 C1638 1.363 . S
C1639 C1642 1.363 . S
N1640 C1642 1.356 . S
N1640 H1652 0.984 . S
N1640 H1653 0.985 . S
N1641 C1643 1.356 . S
N1641 H1646 0.984 . S
N1641 H1647 0.985 . S
C1642 C1636 1.379 . S
C1642 C1639 1.363 . S
C1642 N1640 1.356 . S
C1643 C1637 1.363 . S
C1643 C1638 1.379 . S
C1643 N1641 1.356 . S
N1644 C1636 1.356 . S
N1644 H1650 0.984 . S
N1644 H1651 0.984 . S
N1645 C1638 1.356 . S
N1645 H1648 0.984 . S
N1645 H1649 0.985 . S
H1646 N1641 0.984 . S
H1647 N1641 0.985 . S
H1648 N1645 0.984 . S
H1649 N1645 0.985 . S
H1650 N1644 0.984 . S
H1651 N1644 0.984 . S
H1652 N1640 0.984 . S
H1653 N1640 0.985 . S
C1654 C1655 1.363 . S
C1654 C1660 1.379 . S
C1654 N1662 1.356 . S
C1655 C1654 1.363 . S
C1655 C1661 1.363 . S
C1656 C1657 1.363 . S
C1656 C1661 1.379 . S
C1656 N1663 1.356 . S
C1657 C1656 1.363 . S
C1657 C1660 1.363 . S
N1658 C1660 1.356 . S
N1658 H1670 0.984 . S
N1658 H1671 0.985 . S
N1659 C1661 1.356 . S
N1659 H1664 0.984 . S
N1659 H1665 0.985 . S
C1660 C1654 1.379 . S
C1660 C1657 1.363 . S
C1660 N1658 1.356 . S
C1661 C1655 1.363 . S
C1661 C1656 1.379 . S
C1661 N1659 1.356 . S
N1662 C1654 1.356 . S
N1662 H1668 0.984 . S
N1662 H1669 0.984 . S
N1663 C1656 1.356 . S
N1663 H1666 0.984 . S
N1663 H1667 0.985 . S
H1664 N1659 0.984 . S
H1665 N1659 0.985 . S
H1666 N1663 0.984 . S
H1667 N1663 0.985 . S
H1668 N1662 0.984 . S
H1669 N1662 0.984 . S
H1670 N1658 0.984 . S
H1671 N1658 0.985 . S
C1672 C1673 1.363 . S
C1672 C1678 1.379 . S
C1672 N1680 1.356 . S
C1673 C1672 1.363 . S
C1673 C1679 1.363 . S
C1674 C1675 1.363 . S
C1674 C1679 1.379 . S
C1674 N1681 1.356 . S
C1675 C1674 1.363 . S
C1675 C1678 1.363 . S
N1676 C1678 1.356 . S
N1676 H1688 0.984 . S
N1676 H1689 0.985 . S
N1677 C1679 1.356 . S
N1677 H1682 0.984 . S
N1677 H1683 0.985 . S
C1678 C1672 1.379 . S
C1678 C1675 1.363 . S
C1678 N1676 1.356 . S
C1679 C1673 1.363 . S
C1679 C1674 1.379 . S
C1679 N1677 1.356 . S
N1680 C1672 1.356 . S
N1680 H1686 0.984 . S
N1680 H1687 0.984 . S
N1681 C1674 1.356 . S
N1681 H1684 0.984 . S
N1681 H1685 0.985 . S
H1682 N1677 0.984 . S
H1683 N1677 0.985 . S
H1684 N1681 0.984 . S
H1685 N1681 0.985 . S
H1686 N1680 0.984 . S
H1687 N1680 0.984 . S
H1688 N1676 0.984 . S
H1689 N1676 0.985 . S
C1690 C1691 1.363 . S
C1690 C1696 1.379 . S
C1690 N1698 1.356 . S
C1691 C1690 1.363 . S
C1691 C1697 1.363 . S
C1692 C1693 1.363 . S
C1692 C1697 1.379 . S
C1692 N1699 1.356 . S
C1693 C1692 1.363 . S
C1693 C1696 1.363 . S
N1694 C1696 1.356 . S
N1694 H1706 0.984 . S
N1694 H1707 0.985 . S
N1695 C1697 1.356 . S
N1695 H1700 0.984 . S
N1695 H1701 0.985 . S
C1696 C1690 1.379 . S
C1696 C1693 1.363 . S
C1696 N1694 1.356 . S
C1697 C1691 1.363 . S
C1697 C1692 1.379 . S
C1697 N1695 1.356 . S
N1698 C1690 1.356 . S
N1698 H1704 0.984 . S
N1698 H1705 0.984 . S
N1699 C1692 1.356 . S
N1699 H1702 0.984 . S
N1699 H1703 0.985 . S
H1700 N1695 0.984 . S
H1701 N1695 0.985 . S
H1702 N1699 0.984 . S
H1703 N1699 0.985 . S
H1704 N1698 0.984 . S
H1705 N1698 0.984 . S
H1706 N1694 0.984 . S
H1707 N1694 0.985 . S
C1708 C1709 1.363 . S
C1708 C1714 1.379 . S
C1708 N1716 1.356 . S
C1709 C1708 1.363 . S
C1709 C1715 1.363 . S
C1710 C1711 1.363 . S
C1710 C1715 1.379 . S
C1710 N1717 1.356 . S
C1711 C1710 1.363 . S
C1711 C1714 1.363 . S
N1712 C1714 1.356 . S
N1712 H1724 0.984 . S
N1712 H1725 0.985 . S
N1713 C1715 1.356 . S
N1713 H1718 0.984 . S
N1713 H1719 0.985 . S
C1714 C1708 1.379 . S
C1714 C1711 1.363 . S
C1714 N1712 1.356 . S
C1715 C1709 1.363 . S
C1715 C1710 1.379 . S
C1715 N1713 1.356 . S
N1716 C1708 1.356 . S
N1716 H1722 0.984 . S
N1716 H1723 0.984 . S
N1717 C1710 1.356 . S
N1717 H1720 0.984 . S
N1717 H1721 0.985 . S
H1718 N1713 0.984 . S
H1719 N1713 0.985 . S
H1720 N1717 0.984 . S
H1721 N1717 0.985 . S
H1722 N1716 0.984 . S
H1723 N1716 0.984 . S
H1724 N1712 0.984 . S
H1725 N1712 0.985 . S
C1726 C1727 1.363 . S
C1726 C1732 1.379 . S
C1726 N1734 1.356 . S
C1727 C1726 1.363 . S
C1727 C1733 1.363 . S
C1728 C1729 1.363 . S
C1728 C1733 1.379 . S
C1728 N1735 1.356 . S
C1729 C1728 1.363 . S
C1729 C1732 1.363 . S
N1730 C1732 1.356 . S
N1730 H1742 0.984 . S
N1730 H1743 0.985 . S
N1731 C1733 1.356 . S
N1731 H1736 0.984 . S
N1731 H1737 0.985 . S
C1732 C1726 1.379 . S
C1732 C1729 1.363 . S
C1732 N1730 1.356 . S
C1733 C1727 1.363 . S
C1733 C1728 1.379 . S
C1733 N1731 1.356 . S
N1734 C1726 1.356 . S
N1734 H1740 0.984 . S
N1734 H1741 0.984 . S
N1735 C1728 1.356 . S
N1735 H1738 0.984 . S
N1735 H1739 0.985 . S
H1736 N1731 0.984 . S
H1737 N1731 0.985 . S
H1738 N1735 0.984 . S
H1739 N1735 0.985 . S
H1740 N1734 0.984 . S
H1741 N1734 0.984 . S
H1742 N1730 0.984 . S
H1743 N1730 0.985 . S
C1744 C1745 1.363 . S
C1744 C1750 1.379 . S
C1744 N1752 1.356 . S
C1745 C1744 1.363 . S
C1745 C1751 1.363 . S
C1746 C1747 1.363 . S
C1746 C1751 1.379 . S
C1746 N1753 1.356 . S
C1747 C1746 1.363 . S
C1747 C1750 1.363 . S
N1748 C1750 1.356 . S
N1748 H1760 0.984 . S
N1748 H1761 0.985 . S
N1749 C1751 1.356 . S
N1749 H1754 0.984 . S
N1749 H1755 0.985 . S
C1750 C1744 1.379 . S
C1750 C1747 1.363 . S
C1750 N1748 1.356 . S
C1751 C1745 1.363 . S
C1751 C1746 1.379 . S
C1751 N1749 1.356 . S
N1752 C1744 1.356 . S
N1752 H1758 0.984 . S
N1752 H1759 0.984 . S
N1753 C1746 1.356 . S
N1753 H1756 0.984 . S
N1753 H1757 0.985 . S
H1754 N1749 0.984 . S
H1755 N1749 0.985 . S
H1756 N1753 0.984 . S
H1757 N1753 0.985 . S
H1758 N1752 0.984 . S
H1759 N1752 0.984 . S
H1760 N1748 0.984 . S
H1761 N1748 0.985 . S
C1762 C1763 1.363 . S
C1762 C1768 1.379 . S
C1762 N1770 1.356 . S
C1763 C1762 1.363 . S
C1763 C1769 1.363 . S
C1764 C1765 1.363 . S
C1764 C1769 1.379 . S
C1764 N1771 1.356 . S
C1765 C1764 1.363 . S
C1765 C1768 1.363 . S
N1766 C1768 1.356 . S
N1766 H1778 0.984 . S
N1766 H1779 0.985 . S
N1767 C1769 1.356 . S
N1767 H1772 0.984 . S
N1767 H1773 0.985 . S
C1768 C1762 1.379 . S
C1768 C1765 1.363 . S
C1768 N1766 1.356 . S
C1769 C1763 1.363 . S
C1769 C1764 1.379 . S
C1769 N1767 1.356 . S
N1770 C1762 1.356 . S
N1770 H1776 0.984 . S
N1770 H1777 0.984 . S
N1771 C1764 1.356 . S
N1771 H1774 0.984 . S
N1771 H1775 0.985 . S
H1772 N1767 0.984 . S
H1773 N1767 0.985 . S
H1774 N1771 0.984 . S
H1775 N1771 0.985 . S
H1776 N1770 0.984 . S
H1777 N1770 0.984 . S
H1778 N1766 0.984 . S
H1779 N1766 0.985 . S
C1780 C1781 1.363 . S
C1780 C1786 1.379 . S
C1780 N1788 1.356 . S
C1781 C1780 1.363 . S
C1781 C1787 1.363 . S
C1782 C1783 1.363 . S
C1782 C1787 1.379 . S
C1782 N1789 1.356 . S
C1783 C1782 1.363 . S
C1783 C1786 1.363 . S
N1784 C1786 1.356 . S
N1784 H1796 0.984 . S
N1784 H1797 0.985 . S
N1785 C1787 1.356 . S
N1785 H1790 0.984 . S
N1785 H1791 0.985 . S
C1786 C1780 1.379 . S
C1786 C1783 1.363 . S
C1786 N1784 1.356 . S
C1787 C1781 1.363 . S
C1787 C1782 1.379 . S
C1787 N1785 1.356 . S
N1788 C1780 1.356 . S
N1788 H1794 0.984 . S
N1788 H1795 0.984 . S
N1789 C1782 1.356 . S
N1789 H1792 0.984 . S
N1789 H1793 0.985 . S
H1790 N1785 0.984 . S
H1791 N1785 0.985 . S
H1792 N1789 0.984 . S
H1793 N1789 0.985 . S
H1794 N1788 0.984 . S
H1795 N1788 0.984 . S
H1796 N1784 0.984 . S
H1797 N1784 0.985 . S
C1798 C1799 1.363 . S
C1798 C1804 1.379 . S
C1798 N1806 1.356 . S
C1799 C1798 1.363 . S
C1799 C1805 1.363 . S
C1800 C1801 1.363 . S
C1800 C1805 1.379 . S
C1800 N1807 1.356 . S
C1801 C1800 1.363 . S
C1801 C1804 1.363 . S
N1802 C1804 1.356 . S
N1802 H1814 0.984 . S
N1802 H1815 0.985 . S
N1803 C1805 1.356 . S
N1803 H1808 0.984 . S
N1803 H1809 0.985 . S
C1804 C1798 1.379 . S
C1804 C1801 1.363 . S
C1804 N1802 1.356 . S
C1805 C1799 1.363 . S
C1805 C1800 1.379 . S
C1805 N1803 1.356 . S
N1806 C1798 1.356 . S
N1806 H1812 0.984 . S
N1806 H1813 0.984 . S
N1807 C1800 1.356 . S
N1807 H1810 0.984 . S
N1807 H1811 0.985 . S
H1808 N1803 0.984 . S
H1809 N1803 0.985 . S
H1810 N1807 0.984 . S
H1811 N1807 0.985 . S
H1812 N1806 0.984 . S
H1813 N1806 0.984 . S
H1814 N1802 0.984 . S
H1815 N1802 0.985 . S
C1816 C1817 1.363 . S
C1816 C1822 1.379 1_556 S
C1816 N1824 1.356 . S
C1817 C1816 1.363 . S
C1817 C1823 1.363 . S
C1818 C1819 1.363 . S
C1818 C1823 1.379 . S
C1818 N1825 1.356 . S
C1819 C1818 1.363 . S
C1819 C1822 1.363 1_556 S
N1820 C1822 1.356 . S
N1820 H1832 0.984 . S
N1820 H1833 0.985 . S
N1821 C1823 1.356 . S
N1821 H1826 0.984 . S
N1821 H1827 0.985 . S
C1822 C1816 1.379 1_554 S
C1822 C1819 1.363 1_554 S
C1822 N1820 1.356 . S
C1823 C1817 1.363 . S
C1823 C1818 1.379 . S
C1823 N1821 1.356 . S
N1824 C1816 1.356 . S
N1824 H1830 0.984 1_556 S
N1824 H1831 0.984 . S
N1825 C1818 1.356 . S
N1825 H1828 0.984 . S
N1825 H1829 0.985 . S
H1826 N1821 0.984 . S
H1827 N1821 0.985 . S
H1828 N1825 0.984 . S
H1829 N1825 0.985 . S
H1830 N1824 0.984 1_554 S
H1831 N1824 0.984 . S
H1832 N1820 0.984 . S
H1833 N1820 0.985 . S
C1834 C1835 1.363 1_655 S
C1834 C1840 1.379 . S
C1834 N1842 1.356 1_655 S
C1835 C1834 1.363 1_455 S
C1835 C1841 1.363 1_455 S
C1836 C1837 1.363 . S
C1836 C1841 1.379 . S
C1836 N1843 1.356 . S
C1837 C1836 1.363 . S
C1837 C1840 1.363 . S
N1838 C1840 1.356 . S
N1838 H1850 0.984 . S
N1838 H1851 0.985 . S
N1839 C1841 1.356 1_455 S
N1839 H1844 0.984 . S
N1839 H1845 0.985 . S
C1840 C1834 1.379 . S
C1840 C1837 1.363 . S
C1840 N1838 1.356 . S
C1841 C1835 1.363 1_655 S
C1841 C1836 1.379 . S
C1841 N1839 1.356 1_655 S
N1842 C1834 1.356 1_455 S
N1842 H1848 0.984 . S
N1842 H1849 0.984 . S
N1843 C1836 1.356 . S
N1843 H1846 0.984 . S
N1843 H1847 0.985 . S
H1844 N1839 0.984 . S
H1845 N1839 0.985 . S
H1846 N1843 0.984 . S
H1847 N1843 0.985 . S
H1848 N1842 0.984 . S
H1849 N1842 0.984 . S
H1850 N1838 0.984 . S
H1851 N1838 0.985 . S
C1852 C1853 1.363 . S
C1852 C1858 1.379 . S
C1852 N1860 1.356 . S
C1853 C1852 1.363 . S
C1853 C1859 1.363 . S
C1854 C1855 1.363 . S
C1854 C1859 1.379 . S
C1854 N1861 1.356 . S
C1855 C1854 1.363 . S
C1855 C1858 1.363 . S
N1856 C1858 1.356 . S
N1856 H1868 0.984 . S
N1856 H1869 0.985 . S
N1857 C1859 1.356 . S
N1857 H1862 0.984 . S
N1857 H1863 0.985 1_455 S
C1858 C1852 1.379 . S
C1858 C1855 1.363 . S
C1858 N1856 1.356 . S
C1859 C1853 1.363 . S
C1859 C1854 1.379 . S
C1859 N1857 1.356 . S
N1860 C1852 1.356 . S
N1860 H1866 0.984 . S
N1860 H1867 0.984 . S
N1861 C1854 1.356 . S
N1861 H1864 0.984 . S
N1861 H1865 0.985 1_455 S
H1862 N1857 0.984 . S
H1863 N1857 0.985 1_655 S
H1864 N1861 0.984 . S
H1865 N1861 0.985 1_655 S
H1866 N1860 0.984 . S
H1867 N1860 0.984 . S
H1868 N1856 0.984 . S
H1869 N1856 0.985 . S
C1870 C1871 1.363 . S
C1870 C1876 1.379 . S
C1870 N1878 1.356 . S
C1871 C1870 1.363 . S
C1871 C1877 1.363 . S
C1872 C1873 1.363 . S
C1872 C1877 1.379 . S
C1872 N1879 1.356 . S
C1873 C1872 1.363 . S
C1873 C1876 1.363 . S
N1874 C1876 1.356 . S
N1874 H1886 0.984 . S
N1874 H1887 0.985 . S
N1875 C1877 1.356 . S
N1875 H1880 0.984 . S
N1875 H1881 0.985 . S
C1876 C1870 1.379 . S
C1876 C1873 1.363 . S
C1876 N1874 1.356 . S
C1877 C1871 1.363 . S
C1877 C1872 1.379 . S
C1877 N1875 1.356 . S
N1878 C1870 1.356 . S
N1878 H1884 0.984 . S
N1878 H1885 0.984 . S
N1879 C1872 1.356 . S
N1879 H1882 0.984 . S
N1879 H1883 0.985 . S
H1880 N1875 0.984 . S
H1881 N1875 0.985 . S
H1882 N1879 0.984 . S
H1883 N1879 0.985 . S
H1884 N1878 0.984 . S
H1885 N1878 0.984 . S
H1886 N1874 0.984 . S
H1887 N1874 0.985 . S
C1888 C1889 1.363 . S
C1888 C1894 1.379 . S
C1888 N1896 1.356 . S
C1889 C1888 1.363 . S
C1889 C1895 1.363 . S
C1890 C1891 1.363 . S
C1890 C1895 1.379 . S
C1890 N1897 1.356 . S
C1891 C1890 1.363 . S
C1891 C1894 1.363 . S
N1892 C1894 1.356 . S
N1892 H1904 0.984 . S
N1892 H1905 0.985 . S
N1893 C1895 1.356 . S
N1893 H1898 0.984 . S
N1893 H1899 0.985 . S
C1894 C1888 1.379 . S
C1894 C1891 1.363 . S
C1894 N1892 1.356 . S
C1895 C1889 1.363 . S
C1895 C1890 1.379 . S
C1895 N1893 1.356 . S
N1896 C1888 1.356 . S
N1896 H1902 0.984 . S
N1896 H1903 0.984 . S
N1897 C1890 1.356 . S
N1897 H1900 0.984 . S
N1897 H1901 0.985 . S
H1898 N1893 0.984 . S
H1899 N1893 0.985 . S
H1900 N1897 0.984 . S
H1901 N1897 0.985 . S
H1902 N1896 0.984 . S
H1903 N1896 0.984 . S
H1904 N1892 0.984 . S
H1905 N1892 0.985 . S
C1906 C1907 1.373 . S
C1906 C1912 1.379 . S
C1906 N1914 1.356 1_556 S
C1907 C1906 1.373 . S
C1907 C1913 1.376 . S
C1908 C1909 1.363 . S
C1908 C1913 1.379 . S
C1908 N1915 1.356 . S
C1909 C1908 1.363 . S
C1909 C1912 1.363 . S
N1910 C1912 1.356 . S
N1910 H1922 0.984 . S
N1910 H1923 0.985 . S
N1911 C1913 1.356 . S
N1911 H1916 0.984 1_556 S
N1911 H1917 0.985 . S
C1912 C1906 1.379 . S
C1912 C1909 1.363 . S
C1912 N1910 1.356 . S
C1913 C1907 1.376 . S
C1913 C1908 1.379 . S
C1913 N1911 1.356 . S
N1914 C1906 1.356 1_554 S
N1914 H1920 0.984 . S
N1914 H1921 0.984 . S
N1915 C1908 1.356 . S
N1915 H1918 0.984 . S
N1915 H1919 0.985 . S
H1916 N1911 0.984 1_554 S
H1917 N1911 0.985 . S
H1918 N1915 0.984 . S
H1919 N1915 0.985 . S
H1920 N1914 0.984 . S
H1921 N1914 0.984 . S
H1922 N1910 0.984 . S
H1923 N1910 0.985 . S
C1924 C1925 1.363 . S
C1924 C1930 1.379 . S
C1924 N1932 1.356 . S
C1925 C1924 1.363 . S
C1925 C1931 1.363 . S
C1926 C1927 1.358 1_455 S
C1926 C1931 1.379 1_455 S
C1926 N1933 1.356 . S
C1927 C1926 1.358 1_655 S
C1927 C1930 1.393 . S
N1928 C1930 1.356 . S
N1928 H1940 0.984 . S
N1928 H1941 0.985 . S
N1929 C1931 1.356 . S
N1929 H1934 0.984 . S
N1929 H1935 0.996 . S
C1930 C1924 1.379 . S
C1930 C1927 1.393 . S
C1930 N1928 1.356 . S
C1931 C1925 1.363 . S
C1931 C1926 1.379 1_655 S
C1931 N1929 1.356 . S
N1932 C1924 1.356 . S
N1932 H1938 0.984 . S
N1932 H1939 0.984 . S
N1933 C1926 1.356 . S
N1933 H1936 0.984 . S
N1933 H1937 0.985 . S
H1934 N1929 0.984 . S
H1935 N1929 0.996 . S
H1936 N1933 0.984 . S
H1937 N1933 0.985 . S
H1938 N1932 0.984 . S
H1939 N1932 0.984 . S
H1940 N1928 0.984 . S
H1941 N1928 0.985 . S
C1942 C1943 1.363 . S
C1942 C1948 1.379 . S
C1942 N1950 1.356 . S
C1943 C1942 1.363 . S
C1943 C1949 1.363 . S
C1944 C1945 1.363 . S
C1944 C1949 1.379 . S
C1944 N1951 1.356 . S
C1945 C1944 1.363 . S
C1945 C1948 1.363 . S
N1946 C1948 1.356 . S
N1946 H1958 0.984 . S
N1946 H1959 0.985 . S
N1947 C1949 1.356 . S
N1947 H1952 0.984 . S
N1947 H1953 0.985 . S
C1948 C1942 1.379 . S
C1948 C1945 1.363 . S
C1948 N1946 1.356 . S
C1949 C1943 1.363 . S
C1949 C1944 1.379 . S
C1949 N1947 1.356 . S
N1950 C1942 1.356 . S
N1950 H1956 0.984 . S
N1950 H1957 0.984 . S
N1951 C1944 1.356 . S
N1951 H1954 0.984 . S
N1951 H1955 0.985 . S
H1952 N1947 0.984 . S
H1953 N1947 0.985 . S
H1954 N1951 0.984 . S
H1955 N1951 0.985 . S
H1956 N1950 0.984 . S
H1957 N1950 0.984 . S
H1958 N1946 0.984 . S
H1959 N1946 0.985 . S
C1960 C1961 1.363 . S
C1960 C1966 1.379 . S
C1960 N1968 1.356 . S
C1961 C1960 1.363 . S
C1961 C1967 1.363 . S
C1962 C1963 1.363 . S
C1962 C1967 1.379 . S
C1962 N1969 1.356 . S
C1963 C1962 1.363 . S
C1963 C1966 1.363 . S
N1964 C1966 1.356 . S
N1964 H1976 0.984 . S
N1964 H1977 0.985 . S
N1965 C1967 1.356 . S
N1965 H1970 0.984 . S
N1965 H1971 0.985 . S
C1966 C1960 1.379 . S
C1966 C1963 1.363 . S
C1966 N1964 1.356 . S
C1967 C1961 1.363 . S
C1967 C1962 1.379 . S
C1967 N1965 1.356 . S
N1968 C1960 1.356 . S
N1968 H1974 0.984 . S
N1968 H1975 0.984 . S
N1969 C1962 1.356 . S
N1969 H1972 0.984 . S
N1969 H1973 0.985 . S
H1970 N1965 0.984 . S
H1971 N1965 0.985 . S
H1972 N1969 0.984 . S
H1973 N1969 0.985 . S
H1974 N1968 0.984 . S
H1975 N1968 0.984 . S
H1976 N1964 0.984 . S
H1977 N1964 0.985 . S
C1978 C1979 1.363 . S
C1978 C1984 1.379 . S
C1978 N1986 1.356 . S
C1979 C1978 1.363 . S
C1979 C1985 1.363 . S
C1980 C1981 1.363 . S
C1980 C1985 1.379 . S
C1980 N1987 1.356 . S
C1981 C1980 1.363 . S
C1981 C1984 1.363 . S
N1982 C1984 1.356 . S
N1982 H1994 0.984 . S
N1982 H1995 0.985 . S
N1983 C1985 1.356 . S
N1983 H1988 0.984 . S
N1983 H1989 0.985 . S
C1984 C1978 1.379 . S
C1984 C1981 1.363 . S
C1984 N1982 1.356 . S
C1985 C1979 1.363 . S
C1985 C1980 1.379 . S
C1985 N1983 1.356 . S
N1986 C1978 1.356 . S
N1986 H1992 0.984 . S
N1986 H1993 0.984 . S
N1987 C1980 1.356 . S
N1987 H1990 0.984 . S
N1987 H1991 0.985 . S
H1988 N1983 0.984 . S
H1989 N1983 0.985 . S
H1990 N1987 0.984 . S
H1991 N1987 0.985 . S
H1992 N1986 0.984 . S
H1993 N1986 0.984 . S
H1994 N1982 0.984 . S
H1995 N1982 0.985 . S
C1996 C1997 1.363 . S
C1996 C2002 1.379 . S
C1996 N2004 1.356 . S
C1997 C1996 1.363 . S
C1997 C2003 1.363 . S
C1998 C1999 1.363 . S
C1998 C2003 1.379 . S
C1998 N2005 1.356 . S
C1999 C1998 1.363 . S
C1999 C2002 1.363 . S
N2000 C2002 1.356 1_455 S
N2000 H2012 0.984 . S
N2000 H2013 0.985 . S
N2001 C2003 1.356 . S
N2001 H2006 0.984 . S
N2001 H2007 0.985 . S
C2002 C1996 1.379 . S
C2002 C1999 1.363 . S
C2002 N2000 1.356 1_655 S
C2003 C1997 1.363 . S
C2003 C1998 1.379 . S
C2003 N2001 1.356 . S
N2004 C1996 1.356 . S
N2004 H2010 0.984 . S
N2004 H2011 0.984 . S
N2005 C1998 1.356 . S
N2005 H2008 0.984 . S
N2005 H2009 0.985 . S
H2006 N2001 0.984 . S
H2007 N2001 0.985 . S
H2008 N2005 0.984 . S
H2009 N2005 0.985 . S
H2010 N2004 0.984 . S
H2011 N2004 0.984 . S
H2012 N2000 0.984 . S
H2013 N2000 0.985 . S
C2014 C2015 1.363 . S
C2014 C2020 1.379 . S
C2014 N2022 1.356 . S
C2015 C2014 1.363 . S
C2015 C2021 1.363 . S
C2016 C2017 1.363 . S
C2016 C2021 1.379 . S
C2016 N2023 1.356 . S
C2017 C2016 1.363 . S
C2017 C2020 1.363 . S
N2018 C2020 1.356 . S
N2018 H2030 0.984 . S
N2018 H2031 0.985 . S
N2019 C2021 1.356 . S
N2019 H2024 0.984 . S
N2019 H2025 0.985 . S
C2020 C2014 1.379 . S
C2020 C2017 1.363 . S
C2020 N2018 1.356 . S
C2021 C2015 1.363 . S
C2021 C2016 1.379 . S
C2021 N2019 1.356 . S
N2022 C2014 1.356 . S
N2022 H2028 0.984 . S
N2022 H2029 0.984 . S
N2023 C2016 1.356 . S
N2023 H2026 0.984 . S
N2023 H2027 0.985 . S
H2024 N2019 0.984 . S
H2025 N2019 0.985 . S
H2026 N2023 0.984 . S
H2027 N2023 0.985 . S
H2028 N2022 0.984 . S
H2029 N2022 0.984 . S
H2030 N2018 0.984 . S
H2031 N2018 0.985 . S
C2032 C2033 1.363 . S
C2032 C2038 1.379 . S
C2032 N2040 1.356 . S
C2033 C2032 1.363 . S
C2033 C2039 1.363 . S
C2034 C2035 1.363 . S
C2034 C2039 1.379 . S
C2034 N2041 1.356 . S
C2035 C2034 1.363 . S
C2035 C2038 1.363 . S
N2036 C2038 1.356 . S
N2036 H2048 0.984 . S
N2036 H2049 0.985 . S
N2037 C2039 1.356 . S
N2037 H2042 0.984 . S
N2037 H2043 0.985 . S
C2038 C2032 1.379 . S
C2038 C2035 1.363 . S
C2038 N2036 1.356 . S
C2039 C2033 1.363 . S
C2039 C2034 1.379 . S
C2039 N2037 1.356 . S
N2040 C2032 1.356 . S
N2040 H2046 0.984 . S
N2040 H2047 0.984 . S
N2041 C2034 1.356 . S
N2041 H2044 0.984 . S
N2041 H2045 0.985 . S
H2042 N2037 0.984 . S
H2043 N2037 0.985 . S
H2044 N2041 0.984 . S
H2045 N2041 0.985 . S
H2046 N2040 0.984 . S
H2047 N2040 0.984 . S
H2048 N2036 0.984 . S
H2049 N2036 0.985 . S
C2050 C2051 1.379 . S
C2050 C2056 1.373 1_565 S
C2050 N2058 1.350 1_565 S
C2051 C2050 1.379 . S
C2051 C2057 1.363 . S
C2052 C2053 1.363 . S
C2052 C2057 1.379 . S
C2052 N2059 1.356 . S
C2053 C2052 1.363 . S
C2053 C2056 1.363 1_565 S
N2054 C2056 1.356 . S
N2054 H2066 0.984 . S
N2054 H2067 0.985 . S
N2055 C2057 1.356 . S
N2055 H2060 0.984 . S
N2055 H2061 0.985 . S
C2056 C2050 1.373 1_545 S
C2056 C2053 1.363 1_545 S
C2056 N2054 1.356 . S
C2057 C2051 1.363 . S
C2057 C2052 1.379 . S
C2057 N2055 1.356 . S
N2058 C2050 1.350 1_545 S
N2058 H2064 0.984 . S
N2058 H2065 0.979 1_545 S
N2059 C2052 1.356 . S
N2059 H2062 0.984 . S
N2059 H2063 0.985 . S
H2060 N2055 0.984 . S
H2061 N2055 0.985 . S
H2062 N2059 0.984 . S
H2063 N2059 0.985 . S
H2064 N2058 0.984 . S
H2065 N2058 0.979 1_565 S
H2066 N2054 0.984 . S
H2067 N2054 0.985 . S
C2068 C2069 1.363 . S
C2068 C2074 1.379 . S
C2068 N2076 1.356 . S
C2069 C2068 1.363 . S
C2069 C2075 1.363 . S
C2070 C2071 1.363 . S
C2070 C2075 1.379 . S
C2070 N2077 1.356 . S
C2071 C2070 1.363 . S
C2071 C2074 1.363 . S
N2072 C2074 1.356 . S
N2072 H2084 0.984 . S
N2072 H2085 0.985 . S
N2073 C2075 1.356 . S
N2073 H2078 0.984 . S
N2073 H2079 0.985 . S
C2074 C2068 1.379 . S
C2074 C2071 1.363 . S
C2074 N2072 1.356 . S
C2075 C2069 1.363 . S
C2075 C2070 1.379 . S
C2075 N2073 1.356 . S
N2076 C2068 1.356 . S
N2076 H2082 0.984 . S
N2076 H2083 0.984 . S
N2077 C2070 1.356 . S
N2077 H2080 0.984 . S
N2077 H2081 0.985 . S
H2078 N2073 0.984 . S
H2079 N2073 0.985 . S
H2080 N2077 0.984 . S
H2081 N2077 0.985 . S
H2082 N2076 0.984 . S
H2083 N2076 0.984 . S
H2084 N2072 0.984 . S
H2085 N2072 0.985 . S
C2086 C2087 1.363 . S
C2086 C2092 1.379 . S
C2086 N2094 1.356 . S
C2087 C2086 1.363 . S
C2087 C2093 1.363 . S
C2088 C2089 1.363 . S
C2088 C2093 1.379 . S
C2088 N2095 1.356 . S
C2089 C2088 1.363 . S
C2089 C2092 1.363 . S
N2090 C2092 1.356 1_565 S
N2090 H2102 0.984 . S
N2090 H2103 0.985 1_565 S
N2091 C2093 1.356 . S
N2091 H2096 0.984 . S
N2091 H2097 0.985 . S
C2092 C2086 1.379 . S
C2092 C2089 1.363 . S
C2092 N2090 1.356 1_545 S
C2093 C2087 1.363 . S
C2093 C2088 1.379 . S
C2093 N2091 1.356 . S
N2094 C2086 1.356 . S
N2094 H2100 0.984 1_545 S
N2094 H2101 0.984 . S
N2095 C2088 1.356 . S
N2095 H2098 0.984 . S
N2095 H2099 0.985 . S
H2096 N2091 0.984 . S
H2097 N2091 0.985 . S
H2098 N2095 0.984 . S
H2099 N2095 0.985 . S
H2100 N2094 0.984 1_565 S
H2101 N2094 0.984 . S
H2102 N2090 0.984 . S
H2103 N2090 0.985 1_545 S
C2104 C2105 1.363 . S
C2104 C2110 1.379 . S
C2104 N2112 1.356 . S
C2105 C2104 1.363 . S
C2105 C2111 1.363 . S
C2106 C2107 1.363 . S
C2106 C2111 1.379 . S
C2106 N2113 1.356 . S
C2107 C2106 1.363 . S
C2107 C2110 1.363 . S
N2108 C2110 1.356 . S
N2108 H2120 0.984 . S
N2108 H2121 0.985 . S
N2109 C2111 1.356 . S
N2109 H2114 0.984 . S
N2109 H2115 0.985 . S
C2110 C2104 1.379 . S
C2110 C2107 1.363 . S
C2110 N2108 1.356 . S
C2111 C2105 1.363 . S
C2111 C2106 1.379 . S
C2111 N2109 1.356 . S
N2112 C2104 1.356 . S
N2112 H2118 0.984 . S
N2112 H2119 0.984 . S
N2113 C2106 1.356 . S
N2113 H2116 0.984 . S
N2113 H2117 0.985 . S
H2114 N2109 0.984 . S
H2115 N2109 0.985 . S
H2116 N2113 0.984 . S
H2117 N2113 0.985 . S
H2118 N2112 0.984 . S
H2119 N2112 0.984 . S
H2120 N2108 0.984 . S
H2121 N2108 0.985 . S
C2122 C2123 1.363 . S
C2122 C2128 1.379 . S
C2122 N2130 1.356 . S
C2123 C2122 1.363 . S
C2123 C2129 1.363 . S
C2124 C2125 1.363 . S
C2124 C2129 1.379 . S
C2124 N2131 1.356 . S
C2125 C2124 1.363 . S
C2125 C2128 1.363 . S
N2126 C2128 1.356 . S
N2126 H2138 0.984 . S
N2126 H2139 0.985 . S
N2127 C2129 1.356 . S
N2127 H2132 0.984 . S
N2127 H2133 0.985 . S
C2128 C2122 1.379 . S
C2128 C2125 1.363 . S
C2128 N2126 1.356 . S
C2129 C2123 1.363 . S
C2129 C2124 1.379 . S
C2129 N2127 1.356 . S
N2130 C2122 1.356 . S
N2130 H2136 0.984 . S
N2130 H2137 0.984 . S
N2131 C2124 1.356 . S
N2131 H2134 0.984 1_554 S
N2131 H2135 0.985 1_554 S
H2132 N2127 0.984 . S
H2133 N2127 0.985 . S
H2134 N2131 0.984 1_556 S
H2135 N2131 0.985 1_556 S
H2136 N2130 0.984 . S
H2137 N2130 0.984 . S
H2138 N2126 0.984 . S
H2139 N2126 0.985 . S
C2140 C2141 1.363 . S
C2140 C2146 1.379 . S
C2140 N2148 1.356 . S
C2141 C2140 1.363 . S
C2141 C2147 1.363 . S
C2142 C2143 1.363 . S
C2142 C2147 1.379 . S
C2142 N2149 1.356 . S
C2143 C2142 1.363 . S
C2143 C2146 1.363 . S
N2144 C2146 1.356 . S
N2144 H2156 0.984 . S
N2144 H2157 0.985 . S
N2145 C2147 1.356 . S
N2145 H2150 0.984 . S
N2145 H2151 0.985 . S
C2146 C2140 1.379 . S
C2146 C2143 1.363 . S
C2146 N2144 1.356 . S
C2147 C2141 1.363 . S
C2147 C2142 1.379 . S
C2147 N2145 1.356 . S
N2148 C2140 1.356 . S
N2148 H2154 0.984 . S
N2148 H2155 0.984 . S
N2149 C2142 1.356 . S
N2149 H2152 0.984 . S
N2149 H2153 0.985 . S
H2150 N2145 0.984 . S
H2151 N2145 0.985 . S
H2152 N2149 0.984 . S
H2153 N2149 0.985 . S
H2154 N2148 0.984 . S
H2155 N2148 0.984 . S
H2156 N2144 0.984 . S
H2157 N2144 0.985 . S
C2158 C2159 1.363 . S
C2158 C2164 1.379 . S
C2158 N2166 1.356 . S
C2159 C2158 1.363 . S
C2159 C2165 1.363 . S
C2160 C2161 1.363 . S
C2160 C2165 1.379 . S
C2160 N2167 1.356 . S
C2161 C2160 1.363 . S
C2161 C2164 1.363 . S
N2162 C2164 1.356 . S
N2162 H2174 0.984 . S
N2162 H2175 0.985 . S
N2163 C2165 1.356 . S
N2163 H2168 0.984 . S
N2163 H2169 0.985 . S
C2164 C2158 1.379 . S
C2164 C2161 1.363 . S
C2164 N2162 1.356 . S
C2165 C2159 1.363 . S
C2165 C2160 1.379 . S
C2165 N2163 1.356 . S
N2166 C2158 1.356 . S
N2166 H2172 0.984 . S
N2166 H2173 0.984 . S
N2167 C2160 1.356 . S
N2167 H2170 0.984 . S
N2167 H2171 0.985 . S
H2168 N2163 0.984 . S
H2169 N2163 0.985 . S
H2170 N2167 0.984 . S
H2171 N2167 0.985 . S
H2172 N2166 0.984 . S
H2173 N2166 0.984 . S
H2174 N2162 0.984 . S
H2175 N2162 0.985 . S
C2176 C2177 1.363 . S
C2176 C2182 1.379 . S
C2176 N2184 1.356 . S
C2177 C2176 1.363 . S
C2177 C2183 1.363 . S
C2178 C2179 1.363 . S
C2178 C2183 1.379 . S
C2178 N2185 1.356 . S
C2179 C2178 1.363 . S
C2179 C2182 1.363 . S
N2180 C2182 1.356 . S
N2180 H2192 0.984 . S
N2180 H2193 0.985 . S
N2181 C2183 1.356 . S
N2181 H2186 0.984 . S
N2181 H2187 0.985 . S
C2182 C2176 1.379 . S
C2182 C2179 1.363 . S
C2182 N2180 1.356 . S
C2183 C2177 1.363 . S
C2183 C2178 1.379 . S
C2183 N2181 1.356 . S
N2184 C2176 1.356 . S
N2184 H2190 0.984 . S
N2184 H2191 0.984 . S
N2185 C2178 1.356 . S
N2185 H2188 0.984 . S
N2185 H2189 0.985 . S
H2186 N2181 0.984 . S
H2187 N2181 0.985 . S
H2188 N2185 0.984 . S
H2189 N2185 0.985 . S
H2190 N2184 0.984 . S
H2191 N2184 0.984 . S
H2192 N2180 0.984 . S
H2193 N2180 0.985 . S
C2194 C2195 1.363 . S
C2194 C2200 1.379 . S
C2194 N2202 1.356 . S
C2195 C2194 1.363 . S
C2195 C2201 1.363 . S
C2196 C2197 1.363 . S
C2196 C2201 1.379 . S
C2196 N2203 1.356 . S
C2197 C2196 1.363 . S
C2197 C2200 1.363 . S
N2198 C2200 1.356 . S
N2198 H2210 0.984 . S
N2198 H2211 0.985 . S
N2199 C2201 1.356 . S
N2199 H2204 0.984 . S
N2199 H2205 0.985 . S
C2200 C2194 1.379 . S
C2200 C2197 1.363 . S
C2200 N2198 1.356 . S
C2201 C2195 1.363 . S
C2201 C2196 1.379 . S
C2201 N2199 1.356 . S
N2202 C2194 1.356 . S
N2202 H2208 0.984 . S
N2202 H2209 0.984 . S
N2203 C2196 1.356 . S
N2203 H2206 0.984 . S
N2203 H2207 0.985 . S
H2204 N2199 0.984 . S
H2205 N2199 0.985 . S
H2206 N2203 0.984 . S
H2207 N2203 0.985 . S
H2208 N2202 0.984 . S
H2209 N2202 0.984 . S
H2210 N2198 0.984 . S
H2211 N2198 0.985 . S
C2212 C2213 1.363 1_455 S
C2212 C2218 1.379 1_455 S
C2212 N2220 1.356 . S
C2213 C2212 1.363 1_655 S
C2213 C2219 1.363 . S
C2214 C2215 1.363 . S
C2214 C2219 1.379 . S
C2214 N2221 1.356 1_556 S
C2215 C2214 1.363 . S
C2215 C2218 1.363 . S
N2216 C2218 1.356 . S
N2216 H2228 0.984 1_655 S
N2216 H2229 0.985 . S
N2217 C2219 1.356 . S
N2217 H2222 0.984 . S
N2217 H2223 0.985 1_556 S
C2218 C2212 1.379 1_655 S
C2218 C2215 1.363 . S
C2218 N2216 1.356 . S
C2219 C2213 1.363 . S
C2219 C2214 1.379 . S
C2219 N2217 1.356 . S
N2220 C2212 1.356 . S
N2220 H2226 0.984 . S
N2220 H2227 0.984 . S
N2221 C2214 1.356 1_554 S
N2221 H2224 0.984 . S
N2221 H2225 0.985 . S
H2222 N2217 0.984 . S
H2223 N2217 0.985 1_554 S
H2224 N2221 0.984 . S
H2225 N2221 0.985 . S
H2226 N2220 0.984 . S
H2227 N2220 0.984 . S
H2228 N2216 0.984 1_455 S
H2229 N2216 0.985 . S
C2230 C2231 1.363 . S
C2230 C2236 1.379 . S
C2230 N2238 1.356 . S
C2231 C2230 1.363 . S
C2231 C2237 1.363 . S
C2232 C2233 1.363 . S
C2232 C2237 1.379 . S
C2232 N2239 1.356 . S
C2233 C2232 1.363 . S
C2233 C2236 1.363 . S
N2234 C2236 1.356 . S
N2234 H2246 0.984 . S
N2234 H2247 0.985 . S
N2235 C2237 1.356 . S
N2235 H2240 0.984 . S
N2235 H2241 0.985 . S
C2236 C2230 1.379 . S
C2236 C2233 1.363 . S
C2236 N2234 1.356 . S
C2237 C2231 1.363 . S
C2237 C2232 1.379 . S
C2237 N2235 1.356 . S
N2238 C2230 1.356 . S
N2238 H2244 0.984 . S
N2238 H2245 0.984 . S
N2239 C2232 1.356 . S
N2239 H2242 0.984 . S
N2239 H2243 0.985 . S
H2240 N2235 0.984 . S
H2241 N2235 0.985 . S
H2242 N2239 0.984 . S
H2243 N2239 0.985 . S
H2244 N2238 0.984 . S
H2245 N2238 0.984 . S
H2246 N2234 0.984 . S
H2247 N2234 0.985 . S
C2248 C2249 1.363 . S
C2248 C2254 1.379 . S
C2248 N2256 1.356 . S
C2249 C2248 1.363 . S
C2249 C2255 1.363 . S
C2250 C2251 1.363 . S
C2250 C2255 1.379 . S
C2250 N2257 1.356 . S
C2251 C2250 1.363 . S
C2251 C2254 1.363 . S
N2252 C2254 1.356 . S
N2252 H2264 0.984 . S
N2252 H2265 0.985 . S
N2253 C2255 1.356 . S
N2253 H2258 0.984 . S
N2253 H2259 0.985 . S
C2254 C2248 1.379 . S
C2254 C2251 1.363 . S
C2254 N2252 1.356 . S
C2255 C2249 1.363 . S
C2255 C2250 1.379 . S
C2255 N2253 1.356 . S
N2256 C2248 1.356 . S
N2256 H2262 0.984 . S
N2256 H2263 0.984 . S
N2257 C2250 1.356 . S
N2257 H2260 0.984 . S
N2257 H2261 0.985 . S
H2258 N2253 0.984 . S
H2259 N2253 0.985 . S
H2260 N2257 0.984 . S
H2261 N2257 0.985 . S
H2262 N2256 0.984 . S
H2263 N2256 0.984 . S
H2264 N2252 0.984 . S
H2265 N2252 0.985 . S
C2266 C2267 1.363 . S
C2266 C2272 1.379 . S
C2266 N2274 1.356 . S
C2267 C2266 1.363 . S
C2267 C2273 1.363 . S
C2268 C2269 1.363 . S
C2268 C2273 1.379 . S
C2268 N2275 1.356 . S
C2269 C2268 1.363 . S
C2269 C2272 1.363 . S
N2270 C2272 1.356 . S
N2270 H2282 0.984 . S
N2270 H2283 0.985 . S
N2271 C2273 1.356 . S
N2271 H2276 0.984 . S
N2271 H2277 0.985 . S
C2272 C2266 1.379 . S
C2272 C2269 1.363 . S
C2272 N2270 1.356 . S
C2273 C2267 1.363 . S
C2273 C2268 1.379 . S
C2273 N2271 1.356 . S
N2274 C2266 1.356 . S
N2274 H2280 0.984 . S
N2274 H2281 0.984 . S
N2275 C2268 1.356 . S
N2275 H2278 0.984 . S
N2275 H2279 0.985 . S
H2276 N2271 0.984 . S
H2277 N2271 0.985 . S
H2278 N2275 0.984 . S
H2279 N2275 0.985 . S
H2280 N2274 0.984 . S
H2281 N2274 0.984 . S
H2282 N2270 0.984 . S
H2283 N2270 0.985 . S
C2284 C2285 1.363 . S
C2284 C2290 1.379 . S
C2284 N2292 1.356 . S
C2285 C2284 1.363 . S
C2285 C2291 1.363 . S
C2286 C2287 1.363 . S
C2286 C2291 1.379 . S
C2286 N2293 1.356 1_455 S
C2287 C2286 1.363 . S
C2287 C2290 1.363 . S
N2288 C2290 1.356 . S
N2288 H2300 0.984 . S
N2288 H2301 0.985 . S
N2289 C2291 1.356 . S
N2289 H2294 0.984 . S
N2289 H2295 0.985 1_455 S
C2290 C2284 1.379 . S
C2290 C2287 1.363 . S
C2290 N2288 1.356 . S
C2291 C2285 1.363 . S
C2291 C2286 1.379 . S
C2291 N2289 1.356 . S
N2292 C2284 1.356 . S
N2292 H2298 0.984 . S
N2292 H2299 0.984 . S
N2293 C2286 1.356 1_655 S
N2293 H2296 0.984 . S
N2293 H2297 0.985 . S
H2294 N2289 0.984 . S
H2295 N2289 0.985 1_655 S
H2296 N2293 0.984 . S
H2297 N2293 0.985 . S
H2298 N2292 0.984 . S
H2299 N2292 0.984 . S
H2300 N2288 0.984 . S
H2301 N2288 0.985 . S
C2302 C2303 1.363 . S
C2302 C2308 1.379 . S
C2302 N2310 1.356 . S
C2303 C2302 1.363 . S
C2303 C2309 1.363 . S
C2304 C2305 1.363 . S
C2304 C2309 1.379 . S
C2304 N2311 1.356 . S
C2305 C2304 1.363 . S
C2305 C2308 1.363 . S
N2306 C2308 1.356 . S
N2306 H2318 0.984 . S
N2306 H2319 0.985 . S
N2307 C2309 1.356 . S
N2307 H2312 0.984 . S
N2307 H2313 0.985 . S
C2308 C2302 1.379 . S
C2308 C2305 1.363 . S
C2308 N2306 1.356 . S
C2309 C2303 1.363 . S
C2309 C2304 1.379 . S
C2309 N2307 1.356 . S
N2310 C2302 1.356 . S
N2310 H2316 0.984 . S
N2310 H2317 0.984 . S
N2311 C2304 1.356 . S
N2311 H2314 0.984 . S
N2311 H2315 0.985 . S
H2312 N2307 0.984 . S
H2313 N2307 0.985 . S
H2314 N2311 0.984 . S
H2315 N2311 0.985 . S
H2316 N2310 0.984 . S
H2317 N2310 0.984 . S
H2318 N2306 0.984 . S
H2319 N2306 0.985 . S
C2320 C2321 1.363 . S
C2320 C2326 1.379 . S
C2320 N2328 1.356 . S
C2321 C2320 1.363 . S
C2321 C2327 1.363 . S
C2322 C2323 1.363 . S
C2322 C2327 1.379 . S
C2322 N2329 1.356 . S
C2323 C2322 1.363 . S
C2323 C2326 1.363 . S
N2324 C2326 1.356 . S
N2324 H2336 0.984 . S
N2324 H2337 0.985 . S
N2325 C2327 1.356 . S
N2325 H2330 0.984 . S
N2325 H2331 0.985 . S
C2326 C2320 1.379 . S
C2326 C2323 1.363 . S
C2326 N2324 1.356 . S
C2327 C2321 1.363 . S
C2327 C2322 1.379 . S
C2327 N2325 1.356 . S
N2328 C2320 1.356 . S
N2328 H2334 0.984 . S
N2328 H2335 0.984 . S
N2329 C2322 1.356 . S
N2329 H2332 0.984 . S
N2329 H2333 0.985 . S
H2330 N2325 0.984 . S
H2331 N2325 0.985 . S
H2332 N2329 0.984 . S
H2333 N2329 0.985 . S
H2334 N2328 0.984 . S
H2335 N2328 0.984 . S
H2336 N2324 0.984 . S
H2337 N2324 0.985 . S
C2338 C2339 1.363 . S
C2338 C2344 1.379 . S
C2338 N2346 1.356 . S
C2339 C2338 1.363 . S
C2339 C2345 1.363 . S
C2340 C2341 1.363 . S
C2340 C2345 1.379 . S
C2340 N2347 1.356 . S
C2341 C2340 1.363 . S
C2341 C2344 1.363 . S
N2342 C2344 1.356 . S
N2342 H2354 0.984 . S
N2342 H2355 0.985 . S
N2343 C2345 1.356 . S
N2343 H2348 0.984 . S
N2343 H2349 0.985 . S
C2344 C2338 1.379 . S
C2344 C2341 1.363 . S
C2344 N2342 1.356 . S
C2345 C2339 1.363 . S
C2345 C2340 1.379 . S
C2345 N2343 1.356 . S
N2346 C2338 1.356 . S
N2346 H2352 0.984 . S
N2346 H2353 0.984 . S
N2347 C2340 1.356 . S
N2347 H2350 0.984 . S
N2347 H2351 0.985 . S
H2348 N2343 0.984 . S
H2349 N2343 0.985 . S
H2350 N2347 0.984 . S
H2351 N2347 0.985 . S
H2352 N2346 0.984 . S
H2353 N2346 0.984 . S
H2354 N2342 0.984 . S
H2355 N2342 0.985 . S
C2356 C2357 1.363 . S
C2356 C2362 1.379 . S
C2356 N2364 1.356 . S
C2357 C2356 1.363 . S
C2357 C2363 1.363 . S
C2358 C2359 1.363 . S
C2358 C2363 1.379 . S
C2358 N2365 1.356 . S
C2359 C2358 1.363 . S
C2359 C2362 1.363 . S
N2360 C2362 1.356 . S
N2360 H2372 0.973 1_556 S
N2360 H2373 0.985 . S
N2361 C2363 1.356 . S
N2361 H2366 0.984 . S
N2361 H2367 0.985 . S
C2362 C2356 1.379 . S
C2362 C2359 1.363 . S
C2362 N2360 1.356 . S
C2363 C2357 1.363 . S
C2363 C2358 1.379 . S
C2363 N2361 1.356 . S
N2364 C2356 1.356 . S
N2364 H2370 0.984 . S
N2364 H2371 0.984 . S
N2365 C2358 1.356 . S
N2365 H2368 0.984 . S
N2365 H2369 0.985 . S
H2366 N2361 0.984 . S
H2367 N2361 0.985 . S
H2368 N2365 0.984 . S
H2369 N2365 0.985 . S
H2370 N2364 0.984 . S
H2371 N2364 0.984 . S
H2372 N2360 0.973 1_554 S
H2373 N2360 0.985 . S
C2374 C2375 1.363 . S
C2374 C2380 1.379 . S
C2374 N2382 1.356 . S
C2375 C2374 1.363 . S
C2375 C2381 1.363 . S
C2376 C2377 1.363 . S
C2376 C2381 1.379 . S
C2376 N2383 1.356 . S
C2377 C2376 1.363 . S
C2377 C2380 1.363 . S
N2378 C2380 1.356 . S
N2378 H2390 0.984 . S
N2378 H2391 0.985 . S
N2379 C2381 1.356 . S
N2379 H2384 0.984 . S
N2379 H2385 0.985 . S
C2380 C2374 1.379 . S
C2380 C2377 1.363 . S
C2380 N2378 1.356 . S
C2381 C2375 1.363 . S
C2381 C2376 1.379 . S
C2381 N2379 1.356 . S
N2382 C2374 1.356 . S
N2382 H2388 0.984 . S
N2382 H2389 0.984 . S
N2383 C2376 1.356 . S
N2383 H2386 0.984 . S
N2383 H2387 0.985 . S
H2384 N2379 0.984 . S
H2385 N2379 0.985 . S
H2386 N2383 0.984 . S
H2387 N2383 0.985 . S
H2388 N2382 0.984 . S
H2389 N2382 0.984 . S
H2390 N2378 0.984 . S
H2391 N2378 0.985 . S
C2392 C2393 1.363 . S
C2392 C2398 1.379 . S
C2392 N2400 1.356 . S
C2393 C2392 1.363 . S
C2393 C2399 1.363 . S
C2394 C2395 1.363 . S
C2394 C2399 1.379 . S
C2394 N2401 1.356 . S
C2395 C2394 1.363 . S
C2395 C2398 1.363 . S
N2396 C2398 1.356 . S
N2396 H2408 0.984 . S
N2396 H2409 0.985 . S
N2397 C2399 1.356 . S
N2397 H2402 0.984 . S
N2397 H2403 0.985 . S
C2398 C2392 1.379 . S
C2398 C2395 1.363 . S
C2398 N2396 1.356 . S
C2399 C2393 1.363 . S
C2399 C2394 1.379 . S
C2399 N2397 1.356 . S
N2400 C2392 1.356 . S
N2400 H2406 0.984 . S
N2400 H2407 0.984 . S
N2401 C2394 1.356 . S
N2401 H2404 0.984 . S
N2401 H2405 0.985 . S
H2402 N2397 0.984 . S
H2403 N2397 0.985 . S
H2404 N2401 0.984 . S
H2405 N2401 0.985 . S
H2406 N2400 0.984 . S
H2407 N2400 0.984 . S
H2408 N2396 0.984 . S
H2409 N2396 0.985 . S
C2410 C2411 1.363 . S
C2410 C2416 1.379 . S
C2410 N2418 1.356 . S
C2411 C2410 1.363 . S
C2411 C2417 1.363 . S
C2412 C2413 1.363 . S
C2412 C2417 1.379 . S
C2412 N2419 1.356 . S
C2413 C2412 1.363 . S
C2413 C2416 1.363 . S
N2414 C2416 1.356 . S
N2414 H2426 0.984 . S
N2414 H2427 0.985 . S
N2415 C2417 1.356 . S
N2415 H2420 0.984 . S
N2415 H2421 0.985 . S
C2416 C2410 1.379 . S
C2416 C2413 1.363 . S
C2416 N2414 1.356 . S
C2417 C2411 1.363 . S
C2417 C2412 1.379 . S
C2417 N2415 1.356 . S
N2418 C2410 1.356 . S
N2418 H2424 0.984 . S
N2418 H2425 0.984 . S
N2419 C2412 1.356 . S
N2419 H2422 0.984 . S
N2419 H2423 0.985 . S
H2420 N2415 0.984 . S
H2421 N2415 0.985 . S
H2422 N2419 0.984 . S
H2423 N2419 0.985 . S
H2424 N2418 0.984 . S
H2425 N2418 0.984 . S
H2426 N2414 0.984 . S
H2427 N2414 0.985 . S
C2428 C2429 1.363 . S
C2428 C2434 1.379 . S
C2428 N2436 1.356 . S
C2429 C2428 1.363 . S
C2429 C2435 1.363 . S
C2430 C2431 1.363 . S
C2430 C2435 1.379 . S
C2430 N2437 1.356 . S
C2431 C2430 1.363 . S
C2431 C2434 1.363 . S
N2432 C2434 1.356 . S
N2432 H2444 0.984 . S
N2432 H2445 0.985 . S
N2433 C2435 1.356 . S
N2433 H2438 0.984 . S
N2433 H2439 0.985 . S
C2434 C2428 1.379 . S
C2434 C2431 1.363 . S
C2434 N2432 1.356 . S
C2435 C2429 1.363 . S
C2435 C2430 1.379 . S
C2435 N2433 1.356 . S
N2436 C2428 1.356 . S
N2436 H2442 0.984 . S
N2436 H2443 0.984 . S
N2437 C2430 1.356 . S
N2437 H2440 0.984 . S
N2437 H2441 0.985 . S
H2438 N2433 0.984 . S
H2439 N2433 0.985 . S
H2440 N2437 0.984 . S
H2441 N2437 0.985 . S
H2442 N2436 0.984 . S
H2443 N2436 0.984 . S
H2444 N2432 0.984 . S
H2445 N2432 0.985 . S
C2446 C2447 1.363 . S
C2446 C2452 1.379 . S
C2446 N2454 1.356 . S
C2447 C2446 1.363 . S
C2447 C2453 1.363 . S
C2448 C2449 1.363 . S
C2448 C2453 1.379 . S
C2448 N2455 1.356 . S
C2449 C2448 1.363 . S
C2449 C2452 1.363 . S
N2450 C2452 1.356 . S
N2450 H2462 0.984 . S
N2450 H2463 0.985 . S
N2451 C2453 1.356 . S
N2451 H2456 0.984 . S
N2451 H2457 0.985 . S
C2452 C2446 1.379 . S
C2452 C2449 1.363 . S
C2452 N2450 1.356 . S
C2453 C2447 1.363 . S
C2453 C2448 1.379 . S
C2453 N2451 1.356 . S
N2454 C2446 1.356 . S
N2454 H2460 0.984 . S
N2454 H2461 0.984 . S
N2455 C2448 1.356 . S
N2455 H2458 0.984 . S
N2455 H2459 0.985 . S
H2456 N2451 0.984 . S
H2457 N2451 0.985 . S
H2458 N2455 0.984 . S
H2459 N2455 0.985 . S
H2460 N2454 0.984 . S
H2461 N2454 0.984 . S
H2462 N2450 0.984 . S
H2463 N2450 0.985 . S
C2464 C2465 1.363 . S
C2464 C2470 1.379 . S
C2464 N2472 1.356 . S
C2465 C2464 1.363 . S
C2465 C2471 1.363 . S
C2466 C2467 1.363 . S
C2466 C2471 1.379 . S
C2466 N2473 1.356 . S
C2467 C2466 1.363 . S
C2467 C2470 1.363 . S
N2468 C2470 1.356 . S
N2468 H2480 0.984 . S
N2468 H2481 0.985 . S
N2469 C2471 1.356 . S
N2469 H2474 0.984 . S
N2469 H2475 0.985 . S
C2470 C2464 1.379 . S
C2470 C2467 1.363 . S
C2470 N2468 1.356 . S
C2471 C2465 1.363 . S
C2471 C2466 1.379 . S
C2471 N2469 1.356 . S
N2472 C2464 1.356 . S
N2472 H2478 0.984 . S
N2472 H2479 0.984 . S
N2473 C2466 1.356 . S
N2473 H2476 0.984 . S
N2473 H2477 0.985 . S
H2474 N2469 0.984 . S
H2475 N2469 0.985 . S
H2476 N2473 0.984 . S
H2477 N2473 0.985 . S
H2478 N2472 0.984 . S
H2479 N2472 0.984 . S
H2480 N2468 0.984 . S
H2481 N2468 0.985 . S
C2482 C2483 1.363 . S
C2482 C2488 1.379 . S
C2482 N2490 1.356 . S
C2483 C2482 1.363 . S
C2483 C2489 1.363 . S
C2484 C2485 1.363 . S
C2484 C2489 1.379 . S
C2484 N2491 1.356 . S
C2485 C2484 1.363 . S
C2485 C2488 1.363 . S
N2486 C2488 1.356 . S
N2486 H2498 0.984 . S
N2486 H2499 0.985 . S
N2487 C2489 1.356 . S
N2487 H2492 0.984 . S
N2487 H2493 0.985 . S
C2488 C2482 1.379 . S
C2488 C2485 1.363 . S
C2488 N2486 1.356 . S
C2489 C2483 1.363 . S
C2489 C2484 1.379 . S
C2489 N2487 1.356 . S
N2490 C2482 1.356 . S
N2490 H2496 0.984 . S
N2490 H2497 0.984 . S
N2491 C2484 1.356 . S
N2491 H2494 0.984 . S
N2491 H2495 0.985 1_545 S
H2492 N2487 0.984 . S
H2493 N2487 0.985 . S
H2494 N2491 0.984 . S
H2495 N2491 0.985 1_565 S
H2496 N2490 0.984 . S
H2497 N2490 0.984 . S
H2498 N2486 0.984 . S
H2499 N2486 0.985 . S
C2500 C2501 1.363 . S
C2500 C2506 1.379 . S
C2500 N2508 1.356 . S
C2501 C2500 1.363 . S
C2501 C2507 1.363 . S
C2502 C2503 1.363 . S
C2502 C2507 1.379 . S
C2502 N2509 1.356 . S
C2503 C2502 1.363 . S
C2503 C2506 1.363 . S
N2504 C2506 1.356 . S
N2504 H2516 0.984 . S
N2504 H2517 0.985 . S
N2505 C2507 1.356 . S
N2505 H2510 0.984 . S
N2505 H2511 0.985 . S
C2506 C2500 1.379 . S
C2506 C2503 1.363 . S
C2506 N2504 1.356 . S
C2507 C2501 1.363 . S
C2507 C2502 1.379 . S
C2507 N2505 1.356 . S
N2508 C2500 1.356 . S
N2508 H2514 0.984 . S
N2508 H2515 0.984 . S
N2509 C2502 1.356 . S
N2509 H2512 0.984 . S
N2509 H2513 0.985 . S
H2510 N2505 0.984 . S
H2511 N2505 0.985 . S
H2512 N2509 0.984 . S
H2513 N2509 0.985 . S
H2514 N2508 0.984 . S
H2515 N2508 0.984 . S
H2516 N2504 0.984 . S
H2517 N2504 0.985 . S
C2518 C2519 1.363 . S
C2518 C2524 1.379 . S
C2518 N2526 1.356 . S
C2519 C2518 1.363 . S
C2519 C2525 1.363 1_554 S
C2520 C2521 1.363 1_556 S
C2520 C2525 1.379 . S
C2520 N2527 1.356 . S
C2521 C2520 1.363 1_554 S
C2521 C2524 1.363 . S
N2522 C2524 1.356 . S
N2522 H2534 0.984 . S
N2522 H2535 0.985 . S
N2523 C2525 1.356 . S
N2523 H2528 0.984 . S
N2523 H2529 0.985 . S
C2524 C2518 1.379 . S
C2524 C2521 1.363 . S
C2524 N2522 1.356 . S
C2525 C2519 1.363 1_556 S
C2525 C2520 1.379 . S
C2525 N2523 1.356 . S
N2526 C2518 1.356 . S
N2526 H2532 0.984 . S
N2526 H2533 0.984 . S
N2527 C2520 1.356 . S
N2527 H2530 0.984 . S
N2527 H2531 0.988 . S
H2528 N2523 0.984 . S
H2529 N2523 0.985 . S
H2530 N2527 0.984 . S
H2531 N2527 0.988 . S
H2532 N2526 0.984 . S
H2533 N2526 0.984 . S
H2534 N2522 0.984 . S
H2535 N2522 0.985 . S
C2536 C2537 1.363 . S
C2536 C2542 1.379 . S
C2536 N2544 1.356 . S
C2537 C2536 1.363 . S
C2537 C2543 1.363 . S
C2538 C2539 1.363 . S
C2538 C2543 1.379 . S
C2538 N2545 1.356 . S
C2539 C2538 1.363 . S
C2539 C2542 1.363 . S
N2540 C2542 1.356 . S
N2540 H2552 0.984 . S
N2540 H2553 0.985 . S
N2541 C2543 1.356 . S
N2541 H2546 0.984 . S
N2541 H2547 0.985 . S
C2542 C2536 1.379 . S
C2542 C2539 1.363 . S
C2542 N2540 1.356 . S
C2543 C2537 1.363 . S
C2543 C2538 1.379 . S
C2543 N2541 1.356 . S
N2544 C2536 1.356 . S
N2544 H2550 0.984 . S
N2544 H2551 0.984 . S
N2545 C2538 1.356 . S
N2545 H2548 0.984 . S
N2545 H2549 0.985 . S
H2546 N2541 0.984 . S
H2547 N2541 0.985 . S
H2548 N2545 0.984 . S
H2549 N2545 0.985 . S
H2550 N2544 0.984 . S
H2551 N2544 0.984 . S
H2552 N2540 0.984 . S
H2553 N2540 0.985 . S
C2554 C2555 1.363 . S
C2554 C2560 1.379 . S
C2554 N2562 1.356 . S
C2555 C2554 1.363 . S
C2555 C2561 1.369 . S
C2556 C2557 1.363 . S
C2556 C2561 1.389 . S
C2556 N2563 1.356 . S
C2557 C2556 1.363 . S
C2557 C2560 1.363 . S
N2558 C2560 1.356 . S
N2558 H2570 0.984 . S
N2558 H2571 0.985 . S
N2559 C2561 1.339 1_556 S
N2559 H2564 0.984 . S
N2559 H2565 0.985 . S
C2560 C2554 1.379 . S
C2560 C2557 1.363 . S
C2560 N2558 1.356 . S
C2561 C2555 1.369 . S
C2561 C2556 1.389 . S
C2561 N2559 1.339 1_554 S
N2562 C2554 1.356 . S
N2562 H2568 0.984 . S
N2562 H2569 0.984 . S
N2563 C2556 1.356 . S
N2563 H2566 0.984 . S
N2563 H2567 0.985 1_554 S
H2564 N2559 0.984 . S
H2565 N2559 0.985 . S
H2566 N2563 0.984 . S
H2567 N2563 0.985 1_556 S
H2568 N2562 0.984 . S
H2569 N2562 0.984 . S
H2570 N2558 0.984 . S
H2571 N2558 0.985 . S
C2572 C2573 1.363 . S
C2572 C2578 1.379 . S
C2572 N2580 1.356 . S
C2573 C2572 1.363 . S
C2573 C2579 1.363 . S
C2574 C2575 1.363 . S
C2574 C2579 1.379 . S
C2574 N2581 1.356 . S
C2575 C2574 1.363 . S
C2575 C2578 1.363 . S
N2576 C2578 1.356 . S
N2576 H2588 0.984 . S
N2576 H2589 0.985 . S
N2577 C2579 1.356 . S
N2577 H2582 0.984 . S
N2577 H2583 0.985 . S
C2578 C2572 1.379 . S
C2578 C2575 1.363 . S
C2578 N2576 1.356 . S
C2579 C2573 1.363 . S
C2579 C2574 1.379 . S
C2579 N2577 1.356 . S
N2580 C2572 1.356 . S
N2580 H2586 0.984 . S
N2580 H2587 0.984 . S
N2581 C2574 1.356 . S
N2581 H2584 0.984 . S
N2581 H2585 0.985 . S
H2582 N2577 0.984 . S
H2583 N2577 0.985 . S
H2584 N2581 0.984 . S
H2585 N2581 0.985 . S
H2586 N2580 0.984 . S
H2587 N2580 0.984 . S
H2588 N2576 0.984 . S
H2589 N2576 0.985 . S
C2590 C2591 1.363 . S
C2590 C2596 1.379 . S
C2590 N2598 1.356 . S
C2591 C2590 1.363 . S
C2591 C2597 1.363 . S
C2592 C2593 1.363 . S
C2592 C2597 1.379 . S
C2592 N2599 1.356 . S
C2593 C2592 1.363 . S
C2593 C2596 1.363 . S
N2594 C2596 1.356 . S
N2594 H2606 0.984 . S
N2594 H2607 0.985 . S
N2595 C2597 1.356 . S
N2595 H2600 0.984 . S
N2595 H2601 0.985 . S
C2596 C2590 1.379 . S
C2596 C2593 1.363 . S
C2596 N2594 1.356 . S
C2597 C2591 1.363 . S
C2597 C2592 1.379 . S
C2597 N2595 1.356 . S
N2598 C2590 1.356 . S
N2598 H2604 0.984 . S
N2598 H2605 0.984 . S
N2599 C2592 1.356 . S
N2599 H2602 0.984 . S
N2599 H2603 0.985 . S
H2600 N2595 0.984 . S
H2601 N2595 0.985 . S
H2602 N2599 0.984 . S
H2603 N2599 0.985 . S
H2604 N2598 0.984 . S
H2605 N2598 0.984 . S
H2606 N2594 0.984 . S
H2607 N2594 0.985 . S
C883 C353 1.173 . S
C881 C4 1.078 . S
C899 C19 1.522 . S
C901 C399 1.858 . S
C917 C39 0.936 . S
C919 C408 0.930 . S
C937 C446 1.652 . S
C935 C54 1.687 . S
C953 C18 1.596 . S
C955 C480 1.638 . S
C973 C510 0.943 . S
C971 C40 0.945 . S
C991 C569 1.596 1_556 S
C989 C53 1.597 . S
C1007 C5 0.805 . S
C1009 C582 1.177 . S
C1025 C61 1.070 . S
C1027 C365 1.384 . S
C1043 C74 1.268 . S
C1045 C383 1.329 . S
C1063 C404 1.625 . S
C1061 C89 1.247 . S
C1081 C442 1.068 . S
C1079 C109 1.146 . S
C1097 C68 1.327 . S
C1099 C476 1.283 . S
C1117 C506 1.673 . S
C1115 C81 1.712 . S
C1135 C553 1.293 . S
C1133 C96 1.329 . S
C1153 C578 0.911 . S
C1151 C102 0.906 . S
C1171 C349 0.918 . S
C1169 C103 0.798 . S
C1189 C608 1.664 . S
C1187 C117 1.490 . S
C1205 C130 1.506 . S
C1207 C650 1.622 . S
C1225 C693 0.563 . S
C1223 C152 0.552 . S
C1241 C60 1.419 . S
C1243 C574 1.477 . S
C1261 C412 1.610 . S
C1259 C82 1.619 . S
C1277 C137 1.372 . S
C1279 C710 1.410 . S
C1297 C761 1.590 . S
C1295 C165 1.567 . S
C1313 C172 1.184 1_455 S
C1315 C344 1.170 1_556 S
C1333 C744 1.947 . S
C1331 C194 1.963 . S
C1349 C207 0.915 . S
C1351 C417 0.918 . S
C1367 C215 1.509 . S
C1369 C727 1.723 . S
C1387 C489 1.697 . S
C1385 C186 1.706 . S
C1405 C655 0.964 . S
C1403 C201 0.883 . S
C1423 C540 1.636 . S
C1421 C221 1.625 . S
C1441 C795 1.176 . S
C1439 C180 1.176 . S
C1459 C336 1.418 1_655 S
C1457 C236 1.461 . S
C1475 C242 1.416 . S
C1477 C748 1.374 . S
C1495 C433 1.765 . S
C1493 C264 1.815 . S
C1511 C277 1.103 . S
C1513 C723 1.151 . S
C1529 C229 1.172 1_565 S
C1531 C485 1.225 . S
C1547 C249 1.659 . S
C1549 C671 1.667 . S
C1567 C544 1.300 . S
C1565 C257 1.241 . S
C1583 C270 0.900 . S
C1585 C791 0.903 . S
C1601 C278 0.902 . S
C1603 C340 0.910 . S
C1619 C292 1.703 . S
C1621 C637 1.718 . S
C1637 C298 1.787 . S
C1639 C523 1.716 . S
C1655 C313 0.659 . S
C1657 C684 0.609 . S
C1675 C807 1.499 . S
C1673 C228 1.552 . S
C1693 C421 1.605 . S
C1691 C243 1.589 . S
C1711 C467 1.405 . S
C1709 C305 1.403 . S
C1729 C378 1.592 . S
C1727 C333 1.595 . S
C1745 C32 1.078 . S
C1747 C829 1.173 . S
C1765 C773 1.858 . S
C1763 C47 1.522 . S
C1783 C850 0.930 . S
C1781 C11 0.936 . S
C1799 C26 1.687 . S
C1801 C718 1.652 . S
C1817 C46 1.596 . S
C1819 C616 1.638 1_556 S
C1837 C646 0.943 . S
C1835 C12 0.945 . S
C1855 C705 1.596 . S
C1853 C25 1.597 . S
C1873 C786 1.177 . S
C1871 C33 0.805 . S
C1891 C841 1.384 . S
C1889 C159 1.070 . S
C1907 C116 1.245 1_556 S
C1909 C757 1.329 . S
C1925 C131 1.247 . S
C1927 C846 1.606 1_655 S
C1945 C714 1.068 . S
C1943 C151 1.146 . S
C1963 C612 1.283 . S
C1961 C166 1.327 . S
C1979 C123 1.712 . S
C1981 C642 1.673 . S
C1999 C689 1.293 . S
C1997 C138 1.329 . S
C2015 C144 0.906 . S
C2017 C782 0.911 . S
C2035 C825 0.919 . S
C2033 C145 0.798 . S
C2053 C472 1.664 1_565 S
C2051 C75 1.490 . S
C2071 C514 1.622 . S
C2069 C88 1.506 . S
C2087 C110 0.552 . S
C2089 C557 0.563 . S
C2107 C778 1.477 . S
C2105 C158 1.420 . S
C2123 C124 1.618 . S
C2125 C854 1.610 . S
C2143 C438 1.410 . S
C2141 C95 1.372 . S
C2161 C387 1.590 . S
C2159 C67 1.567 . S
C2177 C200 1.184 . S
C2179 C820 1.170 . S
C2197 C370 1.947 . S
C2195 C222 1.963 . S
C2215 C859 0.918 . S
C2213 C179 0.915 . S
C2231 C187 1.509 . S
C2233 C455 1.723 . S
C2249 C214 1.706 . S
C2251 C625 1.697 . S
C2267 C173 0.883 . S
C2269 C519 0.960 . S
C2285 C193 1.625 . S
C2287 C676 1.636 . S
C2303 C208 1.172 . S
C2305 C591 1.176 . S
C2323 C812 1.418 . S
C2321 C334 1.461 . S
C2339 C284 1.416 . S
C2341 C374 1.374 . S
C2359 C875 1.765 . S
C2357 C306 1.815 . S
C2375 C319 1.103 . S
C2377 C451 1.151 . S
C2393 C327 1.172 . S
C2395 C621 1.226 . S
C2413 C535 1.667 . S
C2411 C291 1.659 . S
C2429 C299 1.241 . S
C2431 C680 1.300 . S
C2449 C587 0.903 . S
C2447 C312 0.900 . S
C2467 C816 0.910 . S
C2465 C320 0.902 . S
C2485 C501 1.718 . S
C2483 C250 1.703 . S
C2501 C256 1.787 . S
C2503 C659 1.716 . S
C2521 C548 0.609 1_565 S
C2519 C271 0.659 . S
C2539 C603 1.499 . S
C2537 C326 1.552 . S
C2555 C285 1.590 1_554 S
C2557 C863 1.605 . S
C2575 C739 1.405 . S
C2573 C263 1.403 . S
C2593 C752 1.592 . S
C2591 C235 1.595 . S
