# Generated by pormake.
# Topology nia, (6,6)-cn, num edge types: 1
# Building blocks:
#     Node 0, Type 0, BuildingBlock: KUMBOL_clean_sbu_1, # of connection points: 6
#     Node 1, Type 0, BuildingBlock: KUMBOL_clean_sbu_1, # of connection points: 6
#     Node 2, Type 1, BuildingBlock: MIDCAF_clean_sbu_0, # of connection points: 6
#     Node 3, Type 1, BuildingBlock: MIDCAF_clean_sbu_0, # of connection points: 6
#     Edge 4, Type (0, 1), BuildingBlock: UVAHIK_clean_linker_0, # of connection points: 2
#     Edge 5, Type (0, 1), BuildingBlock: UVAHIK_clean_linker_0, # of connection points: 2
#     Edge 6, Type (0, 1), BuildingBlock: UVAHIK_clean_linker_0, # of connection points: 2
#     Edge 7, Type (0, 1), BuildingBlock: UVAHIK_clean_linker_0, # of connection points: 2
#     Edge 8, Type (0, 1), BuildingBlock: UVAHIK_clean_linker_0, # of connection points: 2
#     Edge 9, Type (0, 1), BuildingBlock: UVAHIK_clean_linker_0, # of connection points: 2
#     Edge 10, Type (0, 1), BuildingBlock: UVAHIK_clean_linker_0, # of connection points: 2
#     Edge 11, Type (0, 1), BuildingBlock: UVAHIK_clean_linker_0, # of connection points: 2
#     Edge 12, Type (0, 1), BuildingBlock: UVAHIK_clean_linker_0, # of connection points: 2
#     Edge 13, Type (0, 1), BuildingBlock: UVAHIK_clean_linker_0, # of connection points: 2
#     Edge 14, Type (0, 1), BuildingBlock: UVAHIK_clean_linker_0, # of connection points: 2
#     Edge 15, Type (0, 1), BuildingBlock: UVAHIK_clean_linker_0, # of connection points: 2
# Relax obj value: 0.166
# Max RMSD: 0.273
# Mean RMSD: 0.198
data_MOF--net-nia--node1-KUMBOL_clean_sbu_1--node2-MIDCAF_clean_sbu_0--edge1-UVAHIK_clean_linker_0
_symmetry_space_group_name_H-M    P1
_symmetry_Int_Tables_number       1
_symmetry_cell_setting            triclinic
loop_
_symmetry_equiv_pos_as_xyz
'x, y, z'
_cell_length_a     35.538821
_cell_length_b     35.544078
_cell_length_c     40.254234
_cell_angle_alpha  90.075108
_cell_angle_beta   90.025727
_cell_angle_gamma 134.14987
loop_
_atom_site_label
_atom_site_type_symbol
_atom_site_fract_x
_atom_site_fract_y
_atom_site_fract_z
_atom_type_partial_charge
C0 C 0.92522 0.9358 0.90499 0.0
C1 C 0.8341 0.85707 0.91554 0.0
C2 C 0.88146 0.90734 0.9255 0.0
C3 C 0.83211 0.83515 0.88573 0.0
C4 C 0.92307 0.91435 0.87471 0.0
C5 C 0.87643 0.86373 0.86535 0.0
N6 N 0.97057 0.98385 0.91529 0.0
C7 C 0.01436 0.01351 0.8959 0.0
C8 C 0.96823 0.94412 0.85501 0.0
C9 C 0.01397 -0.00594 0.86556 0.0
Gd10 Gd 0.02292 0.98648 0.04359 0.0
Gd11 Gd 0.96874 0.0125 0.96721 0.0
N12 N 0.88479 0.92916 0.95466 0.0
C13 C 0.78971 0.83075 0.93546 0.0
C14 C 0.84013 0.90574 0.97215 0.0
C15 C 0.79248 0.85573 0.96345 0.0
H16 H 0.8401 0.92561 0.99232 0.0
H17 H 0.75764 0.83692 0.978 0.0
H18 H 0.15184 0.0766 0.019 0.0
H19 H 0.04943 0.05229 0.90385 0.0
H20 H 0.23312 0.16528 0.03448 0.0
H21 H 0.75263 0.79212 0.92868 0.0
H22 H 0.79624 0.79634 0.87798 0.0
H23 H 0.94054 0.94334 0.10646 0.0
H24 H 0.96816 0.92895 0.83162 0.0
H25 H 0.04893 0.01755 0.85038 0.0
H26 H 0.19103 0.20031 0.13555 0.0
H27 H 0.87421 0.84636 0.84236 0.0
H28 H 0.01842 0.06433 0.18016 0.0
H29 H 0.9389 0.97587 0.16027 0.0
N30 N 0.01921 0.01295 0.09584 0.0
C31 C 0.06393 0.06093 0.10677 0.0
C32 C 0.97499 0.98213 0.11484 0.0
C33 C 0.01925 0.05016 0.15659 0.0
C34 C 0.97421 0.0003 0.14539 0.0
C35 C 0.06489 0.08112 0.1373 0.0
H36 H 0.11222 0.14807 0.17054 0.0
N37 N 0.10585 0.07021 0.05709 0.0
C38 C 0.10817 0.09066 0.08663 0.0
C39 C 0.19965 0.16874 0.07747 0.0
C40 C 0.15484 0.14094 0.09718 0.0
C41 C 0.15092 0.09522 0.03962 0.0
C42 C 0.19794 0.14526 0.04896 0.0
O43 O 0.98276 0.96013 0.95981 0.0
O44 O 0.96104 0.91843 0.00973 0.0
O45 O 0.06667 0.96441 0.04571 0.0
O46 O 0.00915 0.93692 0.08326 0.0
O47 O 0.92445 0.98318 0.01628 0.0
O48 O 0.93487 0.93148 0.0399 0.0
O49 O 0.00961 0.03948 0.05094 0.0
O50 O 0.03144 0.08037 1.00074 0.0
O51 O 0.92785 0.03778 0.96536 0.0
O52 O 0.98243 0.06099 0.92675 0.0
O53 O 0.06767 0.01615 0.99468 0.0
O54 O 0.05675 0.0673 0.97068 0.0
C55 C 0.96306 0.91878 0.97717 0.0
C56 C 0.90958 0.94607 0.03709 0.0
C57 C 0.02132 0.88182 0.06961 0.0
C58 C 0.03095 0.82198 0.08352 0.0
C59 C 0.95389 0.79039 0.05339 0.0
C60 C 0.97318 0.84054 0.05415 0.0
C61 C 0.98232 0.78099 0.06805 0.0
C62 C 0.05015 0.87252 0.08407 0.0
C63 C 0.04139 0.93446 0.07154 0.0
C64 C 0.15569 0.16152 0.12732 0.0
C65 C 0.11089 0.13168 0.14733 0.0
H66 H 0.23622 0.20743 0.08471 0.0
C67 C 0.02959 0.08067 0.03325 0.0
C68 C 0.08223 0.05294 0.97367 0.0
C69 C 0.97526 0.11998 0.94 0.0
C70 C 0.97191 0.18368 0.92337 0.0
C71 C 0.04484 0.21103 0.95659 0.0
C72 C 0.02285 0.15978 0.95651 0.0
C73 C 0.01974 0.22306 0.94009 0.0
C74 C 0.9499 0.13198 0.92356 0.0
C75 C 0.95245 0.06617 0.93888 0.0
H76 H 0.91655 0.75858 0.04161 0.0
H77 H 0.95032 0.84695 0.043 0.0
H78 H 0.96583 0.74144 0.06761 0.0
H79 H 0.08771 0.90486 0.09549 0.0
H80 H 0.08168 0.24163 0.96928 0.0
H81 H 0.04323 0.15138 0.96903 0.0
H82 H 0.03814 0.26333 0.94011 0.0
H83 H 0.91281 0.10088 0.9112 0.0
C84 C 0.05713 0.06956 0.61371 0.0
C85 C 0.14025 0.1593 0.60548 0.0
C86 C 0.08997 0.11404 0.59385 0.0
C87 C 0.15742 0.1587 0.63673 0.0
C88 C 0.07404 0.06902 0.64525 0.0
C89 C 0.12441 0.11372 0.65656 0.0
N90 N 0.00924 0.02622 0.6017 0.0
C91 C 0.97562 0.98183 0.62034 0.0
C92 C 0.04003 0.02327 0.66432 0.0
C93 C -0.00951 0.97959 0.65187 0.0
Gd94 Gd 0.01275 0.97794 0.47099 0.0
Gd95 Gd -0.01144 0.03247 0.54803 0.0
N96 N 0.07285 0.11298 0.56322 0.0
C97 C 0.17165 0.20404 0.58548 0.0
C98 C 0.1018 0.15792 0.54494 0.0
C99 C 0.15192 0.20361 0.55538 0.0
H100 H 0.08628 0.1598 0.52282 0.0
H101 H 0.17499 0.23876 0.54041 0.0
H102 H 0.9142 0.8502 0.4943 0.0
H103 H 0.93705 0.94837 0.61106 0.0
H104 H 0.82471 0.7725 0.47666 0.0
H105 H 0.21048 0.23956 0.59351 0.0
H106 H 0.19609 0.19297 0.64588 0.0
H107 H 0.06566 0.0636 0.40876 0.0
H108 H 0.05158 0.02131 0.68867 0.0
H109 H 0.96374 0.94419 0.66653 0.0
H110 H 0.80422 0.82328 0.37323 0.0
H111 H 0.13822 0.11391 0.68063 0.0
H112 H 0.95041 -0.00433 0.3321 0.0
H113 H 0.03908 0.07084 0.35426 0.0
N114 N -0.0076 0.98646 0.41782 0.0
C115 C 0.94419 0.94403 0.40564 0.0
C116 C 0.02662 0.03124 0.39958 0.0
C117 C 0.96187 -0.00752 0.35608 0.0
C118 C 0.01186 0.03508 0.36855 0.0
C119 C 0.92737 0.94615 0.37457 0.0
H120 H 0.86286 0.90343 0.33949 0.0
N121 N 0.92802 0.89859 0.45517 0.0
C122 C 0.91095 0.89895 0.42493 0.0
C123 C 0.82847 0.80924 0.4326 0.0
C124 C 0.86031 0.85463 0.41319 0.0
C125 C 0.89864 0.85304 0.47274 0.0
C126 C 0.84813 0.80816 0.46219 0.0
O127 O 0.04697 0.02529 0.55365 0.0
O128 O 0.08315 0.04341 0.50189 0.0
O129 O 0.0323 0.9319 0.47154 0.0
O130 O 0.0591 0.98567 0.43141 0.0
O131 O 0.01539 0.07533 0.49838 0.0
O132 O 0.06706 0.0658 0.47336 0.0
O133 O 0.95676 0.98776 0.46578 0.0
O134 O 0.91856 0.96696 0.51691 0.0
O135 O 0.97141 0.08056 0.54672 0.0
O136 O 0.93922 0.02385 0.58575 0.0
O137 O -0.01407 0.93452 0.52035 0.0
O138 O 0.93556 0.94422 0.54781 0.0
C139 C 0.08689 0.04497 0.5344 0.0
C140 C 0.0516 0.09022 0.47669 0.0
C141 C 0.11307 0.97269 0.4464 0.0
C142 C 0.17294 0.96398 0.42988 0.0
C143 C 0.20446 0.03896 0.46284 0.0
C144 C 0.15438 0.01976 0.46275 0.0
C145 C 0.21389 0.01162 0.44637 0.0
C146 C 0.12229 0.94471 0.43024 0.0
C147 C 0.06086 0.95373 0.44481 0.0
C148 C 0.84319 0.85679 0.38243 0.0
C149 C 0.87663 0.90239 0.36317 0.0
H150 H 0.78933 0.77439 0.42449 0.0
C151 C 0.91639 0.96771 0.48445 0.0
C152 C 0.94981 0.91886 0.54242 0.0
C153 C 0.88922 0.04151 0.56844 0.0
C154 C 0.83443 0.05977 0.57527 0.0
C155 C 0.79771 0.97635 0.5521 0.0
C156 C 0.8461 0.99215 0.55514 0.0
C157 C 0.79171 0.00952 0.56223 0.0
C158 C 0.8834 0.07537 0.57827 0.0
C159 C 0.9402 0.05775 0.57225 0.0
H160 H 0.23628 0.07557 0.47532 0.0
H161 H 0.14804 0.04201 0.47497 0.0
H162 H 0.25358 0.02847 0.44608 0.0
H163 H 0.08993 0.90801 0.41801 0.0
H164 H 0.76449 0.93796 0.54209 0.0
H165 H 0.84971 0.96561 0.54739 0.0
H166 H 0.75314 -0.00482 0.5603 0.0
H167 H 0.91713 0.11383 0.58795 0.0
Zn168 Zn 0.36339 0.66846 0.19633 0.0
Zn169 Zn 0.32835 0.63933 0.31761 0.0
Zn170 Zn 0.34776 0.65323 0.25688 0.0
C171 C 0.43297 0.69106 0.31112 0.0
C172 C 0.26393 0.54036 0.29431 0.0
O173 O 0.31569 0.68576 0.23781 0.0
O174 O 0.31674 0.67738 0.1835 0.0
C175 C 0.46171 0.7342 0.22094 0.0
O176 O 0.42429 0.696 0.28112 0.0
O177 O 0.39567 0.66361 0.33164 0.0
O178 O 0.26607 0.5632 0.3193 0.0
O179 O 0.29355 0.56752 0.26897 0.0
O180 O 0.43946 0.73075 0.19507 0.0
O181 O 0.43393 0.70591 0.24654 0.0
O182 O 0.3043 0.57526 0.23445 0.0
O183 O 0.33971 0.60078 0.1845 0.0
C184 C 0.31033 0.5646 0.2055 0.0
O185 O 0.31612 0.6877 0.27235 0.0
O186 O 0.31891 0.68646 0.32717 0.0
C187 C 0.30407 0.68854 0.20807 0.0
C188 C 0.31087 0.69967 0.30116 0.0
Zn189 Zn 0.63295 0.32813 0.81901 0.0
Zn190 Zn 0.66377 0.3615 0.64237 0.0
Zn191 Zn 0.64585 0.34511 0.75907 0.0
C192 C 0.69837 0.43051 0.70963 0.0
C193 C 0.57484 0.30334 0.70136 0.0
O194 O 0.6808 0.31383 0.77202 0.0
O195 O 0.66652 0.30201 0.82606 0.0
C196 C 0.69399 0.43722 0.80748 0.0
O197 O 0.69275 0.42485 0.74125 0.0
O198 O 0.67775 0.38954 0.69247 0.0
O199 O 0.62022 0.33187 0.68796 0.0
O200 O 0.57281 0.30053 0.73314 0.0
O201 O 0.67188 0.40253 0.82983 0.0
O202 O 0.69113 0.42478 0.77696 0.0
O203 O 0.55987 0.29202 0.76742 0.0
O204 O 0.55555 0.27574 0.82091 0.0
C205 C 0.53287 0.26862 0.79412 0.0
O206 O 0.67915 0.31783 0.7378 0.0
O207 O 0.6723 0.34101 0.68976 0.0
C208 C 0.68454 0.29935 0.80014 0.0
C209 C 0.68479 0.32015 0.70621 0.0
C210 C 0.06274 0.77719 0.08363 0.0
C211 C 0.06154 0.81199 0.09878 0.0
C212 C 0.09117 0.76752 0.0978 0.0
C213 C 0.1531 0.77875 0.17655 0.0
H214 H 0.22072 0.75487 0.11725 0.0
C215 C 0.2897 0.7479 0.21607 0.0
C216 C 0.27495 0.70329 0.20155 0.0
C217 C 0.26488 0.76415 0.20646 0.0
C218 C 0.202 0.76145 0.13411 0.0
H219 H 0.08918 0.8635 0.14116 0.0
H220 H 0.14042 0.84807 0.16523 0.0
H221 H 0.17682 0.77919 0.09432 0.0
H222 H 0.22344 0.64089 0.16567 0.0
H223 H 0.18097 0.6696 0.14851 0.0
H224 H 0.17944 0.76143 0.21637 0.0
C225 C 0.11859 0.82759 0.14261 0.0
C226 C 0.17651 0.77505 0.12099 0.0
C227 C 0.08974 0.83699 0.12853 0.0
C228 C 0.23518 0.6752 0.17742 0.0
C229 C 0.21104 0.69169 0.16754 0.0
C230 C 0.17932 0.76571 0.18974 0.0
C231 C 0.1198 0.79282 0.12736 0.0
C232 C 0.1506 0.78265 0.14192 0.0
C233 C 0.22612 0.73671 0.18155 0.0
C234 C 0.20293 0.75578 0.16851 0.0
H235 H 0.04212 0.75768 0.06053 0.0
H236 H 0.09028 0.73973 0.08561 0.0
H237 H 0.13336 0.78401 0.19343 0.0
H238 H 0.32145 0.77108 0.23395 0.0
H239 H 0.2774 0.79923 0.21745 0.0
C240 C 0.14039 0.05947 0.58254 0.0
C241 C 0.13807 0.07167 0.54991 0.0
C242 C 0.1887 0.08588 0.5977 0.0
C243 C 0.32783 0.16289 0.5796 0.0
H244 H 0.34825 0.20674 0.67143 0.0
C245 C 0.52839 0.28855 0.64828 0.0
C246 C 0.52642 0.27594 0.68171 0.0
C247 C 0.48205 0.26463 0.6309 0.0
C248 C 0.34308 0.19428 0.64588 0.0
H249 H 0.18465 0.12123 0.50755 0.0
H250 H 0.26911 0.16672 0.5338 0.0
H251 H 0.26557 0.16331 0.64379 0.0
H252 H 0.4742 0.22651 0.72255 0.0
H253 H 0.39408 0.1848 0.69248 0.0
H254 H 0.40529 0.1935 0.58183 0.0
C255 C 0.23351 0.13655 0.54764 0.0
C256 C 0.29563 0.1694 0.63003 0.0
C257 C 0.18513 0.11041 0.53257 0.0
C258 C 0.47725 0.23793 0.69704 0.0
C259 C 0.43118 0.21407 0.67978 0.0
C260 C 0.37537 0.18771 0.59551 0.0
C261 C 0.23587 0.1248 0.58046 0.0
C262 C 0.2872 0.15294 0.5968 0.0
C263 C 0.43289 0.22757 0.64663 0.0
C264 C 0.38338 0.20323 0.62898 0.0
H265 H 0.1048 0.02929 0.59638 0.0
H266 H 0.18905 0.07532 0.62285 0.0
H267 H 0.32241 0.1503 0.55406 0.0
H268 H 0.56569 0.31777 0.63579 0.0
H269 H 0.48486 0.27616 0.60545 0.0
C270 C 0.03291 0.1266 0.08157 0.0
C271 C 0.05358 0.1292 0.051 0.0
C272 C 0.05833 0.17195 0.10025 0.0
C273 C 0.15828 0.3169 0.09367 0.0
H274 H 0.16698 0.31205 0.18948 0.0
C275 C 0.30369 0.50332 0.16979 0.0
C276 C 0.28223 0.51062 0.19522 0.0
C277 C 0.27452 0.45424 0.15532 0.0
C278 C 0.1644 0.31369 0.16279 0.0
H279 H 0.1164 0.18076 0.01562 0.0
H280 H 0.16155 0.26012 0.04837 0.0
H281 H 0.11811 0.23164 0.15666 0.0
H282 H 0.21414 0.47179 0.22641 0.0
H283 H 0.16315 0.38473 0.2015 0.0
H284 H 0.20594 0.39912 0.09973 0.0
C285 C 0.12515 0.22331 0.05776 0.0
C286 C 0.13633 0.26777 0.14397 0.0
C287 C 0.09938 0.17796 0.03894 0.0
C288 C 0.23198 0.46704 0.2073 0.0
C289 C 0.20273 0.41745 0.19291 0.0
C290 C 0.18677 0.36268 0.11239 0.0
C291 C 0.10514 0.22081 0.08878 0.0
C292 C 0.13332 0.26897 0.10912 0.0
C293 C 0.22326 0.41122 0.16602 0.0
C294 C 0.19053 0.36162 0.14703 0.0
H295 H -0.00265 0.0893 0.09125 0.0
H296 H 0.04131 0.16862 0.12371 0.0
H297 H 0.15579 0.31914 0.06705 0.0
H298 H 0.34252 0.5361 0.16015 0.0
H299 H 0.29146 0.45021 0.13497 0.0
C300 C 0.79112 0.09333 0.56943 0.0
C301 C 0.82697 0.09471 0.58607 0.0
C302 C 0.78067 0.12249 0.58091 0.0
C303 C 0.79392 0.19187 0.65687 0.0
H304 H 0.74618 0.23658 0.59676 0.0
C305 C 0.69634 0.25845 0.70706 0.0
C306 C 0.70278 0.29724 0.69025 0.0
C307 C 0.71444 0.23734 0.69337 0.0
C308 C 0.76009 0.22514 0.61399 0.0
H309 H 0.88139 0.13028 0.62753 0.0
H310 H 0.86545 0.18317 0.64639 0.0
H311 H 0.77575 0.19725 0.57456 0.0
H312 H 0.73283 0.34388 0.64548 0.0
H313 H 0.76609 0.3082 0.62171 0.0
H314 H 0.7806 0.22184 0.69617 0.0
C315 C 0.84382 0.15796 0.62503 0.0
C316 C 0.77635 0.2016 0.60122 0.0
C317 C 0.85372 0.1281 0.61381 0.0
C318 C 0.72722 0.31396 0.65901 0.0
C319 C 0.74609 0.29324 0.64537 0.0
C320 C 0.77847 0.2161 0.66957 0.0
C321 C 0.80641 0.15495 0.60912 0.0
C322 C 0.79271 0.18372 0.62248 0.0
C323 C 0.74026 0.25476 0.66249 0.0
C324 C 0.76029 0.23224 0.64844 0.0
H325 H 0.77049 0.06924 0.54752 0.0
H326 H 0.75119 0.11828 0.568 0.0
H327 H 0.80558 0.17839 0.6743 0.0
H328 H 0.67663 0.24379 0.73085 0.0
H329 H 0.70746 0.20676 0.70703 0.0
C330 C 0.84916 0.9493 0.06559 0.0
C331 C 0.86594 0.92377 0.06044 0.0
C332 C 0.81055 0.93063 0.08911 0.0
C333 C 0.70269 0.81254 0.13773 0.0
H334 H 0.71278 0.91272 0.18762 0.0
C335 C 0.53775 0.74331 0.22679 0.0
C336 C 0.51837 0.76566 0.21878 0.0
C337 C 0.58693 0.76596 0.21499 0.0
C338 C 0.70952 0.88425 0.17401 0.0
H339 H 0.85413 0.85762 0.07548 0.0
H340 H 0.78722 0.8254 0.11692 0.0
H341 H 0.784 0.94394 0.15061 0.0
H342 H 0.53642 0.83102 0.19467 0.0
H343 H 0.62238 0.87126 0.17497 0.0
H344 H 0.62773 0.75293 0.16077 0.0
C345 C 0.80371 0.85975 0.10259 0.0
C346 C 0.75016 0.90211 0.15257 0.0
C347 C 0.84224 0.87834 0.0789 0.0
C348 C 0.55072 0.81331 0.20142 0.0
C349 C 0.59998 0.8363 0.19011 0.0
C350 C 0.66218 0.79467 0.15934 0.0
C351 C 0.78765 0.88594 0.10823 0.0
C352 C 0.74669 0.86657 0.13347 0.0
C353 C 0.61768 0.81168 0.19544 0.0
C354 C 0.66454 0.83037 0.17712 0.0
H355 H 0.86643 0.98434 0.0518 0.0
H356 H 0.79842 0.95118 0.09213 0.0
H357 H 0.69833 0.78397 0.12328 0.0
H358 H 0.51324 0.7062 0.23979 0.0
H359 H 0.59978 0.74638 0.21978 0.0
C360 C 0.8816 0.84712 0.58294 0.0
C361 C 0.92404 0.86987 0.56147 0.0
C362 C 0.85778 0.8009 0.60041 0.0
C363 C 0.87712 0.71168 0.62227 0.0
H364 H 0.73008 0.61528 0.6459 0.0
C365 C 0.74828 0.49405 0.66222 0.0
C366 C 0.72465 0.48136 0.69358 0.0
C367 C 0.7731 0.54212 0.64715 0.0
C368 C 0.77124 0.642 0.63951 0.0
H369 H 0.97368 0.86044 0.54124 0.0
H370 H 0.93062 0.77923 0.56951 0.0
H371 H 0.77155 0.69682 0.61731 0.0
H372 H 0.70736 0.50861 0.7333 0.0
H373 H 0.74928 0.59188 0.70639 0.0
H374 H 0.87543 0.65491 0.64311 0.0
C375 C 0.91684 0.79787 0.5744 0.0
C376 C 0.79537 0.68917 0.62332 0.0
C377 C 0.9414 0.84461 0.55768 0.0
C378 C 0.72569 0.51747 0.70929 0.0
C379 C 0.74935 0.56495 0.69383 0.0
C380 C 0.85259 0.66395 0.63766 0.0
C381 C 0.87479 0.7752 0.59632 0.0
C382 C 0.84884 0.72496 0.61433 0.0
C383 C 0.77357 0.5779 0.66269 0.0
C384 C 0.79946 0.62865 0.64648 0.0
H385 H 0.86654 0.86485 0.58625 0.0
H386 H 0.8262 0.78569 0.61729 0.0
H387 H 0.91854 0.73823 0.61688 0.0
H388 H 0.74814 0.46706 0.64952 0.0
H389 H 0.79136 0.55109 0.62309 0.0
C390 C 0.22104 0.93593 0.42435 0.0
C391 C 0.18357 0.93534 0.41199 0.0
C392 C 0.23329 0.9117 0.40686 0.0
C393 C 0.18378 0.80767 0.34924 0.0
H394 H 0.33072 0.8897 0.33231 0.0
C395 C 0.25306 0.71523 0.29018 0.0
C396 C 0.29785 0.73072 0.30494 0.0
C397 C 0.23865 0.74247 0.29724 0.0
C398 C 0.28951 0.86603 0.337 0.0
H399 H 0.12899 0.90751 0.37144 0.0
H400 H 0.14907 0.86323 0.3417 0.0
H401 H 0.30507 0.93129 0.3577 0.0
H402 H 0.36201 0.78547 0.33903 0.0
H403 H 0.33665 0.83191 0.35208 0.0
H404 H 0.1683 0.74166 0.33027 0.0
C405 C 0.16919 0.88319 0.36485 0.0
C406 C 0.2749 0.88999 0.35142 0.0
C407 C 0.15752 0.9083 0.38207 0.0
C408 C 0.32783 0.77347 0.32685 0.0
C409 C 0.31342 0.80033 0.33409 0.0
C410 C 0.19847 0.78337 0.33525 0.0
C411 C 0.20775 0.88539 0.37687 0.0
C412 C 0.22207 0.86082 0.35836 0.0
C413 C 0.26846 0.78511 0.31961 0.0
C414 C 0.25173 0.81199 0.32977 0.0
H415 H 0.24098 0.95502 0.44768 0.0
H416 H 0.26257 0.91316 0.41694 0.0
H417 H 0.14275 0.78437 0.3544 0.0
H418 H 0.22862 0.68142 0.27386 0.0
H419 H 0.20394 0.72978 0.28551 0.0
C420 C 0.14379 0.05079 0.94586 0.0
C421 C 0.12593 0.07539 0.95038 0.0
C422 C 0.18242 0.06956 0.92234 0.0
C423 C 0.28853 0.18702 0.87278 0.0
H424 H 0.28122 0.0874 0.82475 0.0
C425 C 0.44428 0.18942 0.81366 0.0
C426 C 0.47607 0.23633 0.79553 0.0
C427 C 0.39438 0.16562 0.82399 0.0
C428 C 0.28361 0.11568 0.8378 0.0
H429 H 0.13574 0.13998 0.93423 0.0
H430 H 0.20264 0.17232 0.89281 0.0
H431 H 0.20928 0.05563 0.86122 0.0
H432 H 0.47987 0.29369 0.7722 0.0
H433 H 0.39219 0.25224 0.79071 0.0
H434 H 0.36341 0.247 0.84976 0.0
C435 C 0.18702 0.13865 0.90761 0.0
C436 C 0.24262 0.09753 0.85894 0.0
C437 C 0.1485 0.11998 0.9313 0.0
C438 C 0.45571 0.25715 0.78582 0.0
C439 C 0.4059 0.23376 0.79672 0.0
C440 C 0.32938 0.20517 0.85144 0.0
C441 C 0.20418 0.11338 0.90262 0.0
C442 C 0.2452 0.13291 0.87745 0.0
C443 C 0.37556 0.1888 0.81695 0.0
C444 C 0.32802 0.16968 0.83441 0.0
H445 H 0.1274 0.01642 0.96015 0.0
H446 H 0.19546 0.04979 0.9198 0.0
H447 H 0.29216 0.21546 0.88678 0.0
H448 H 0.45942 0.17297 0.82169 0.0
H449 H 0.37229 0.13131 0.83972 0.0
C450 C 0.1197 0.15955 0.43598 0.0
C451 C 0.07334 0.13413 0.45384 0.0
C452 C 0.13806 0.19844 0.41274 0.0
C453 C 0.09495 0.25156 0.36313 0.0
H454 H 0.24417 0.37461 0.35606 0.0
C455 C 0.18486 0.45181 0.31468 0.0
C456 C 0.23248 0.48378 0.29726 0.0
C457 C 0.16154 0.4025 0.32609 0.0
C458 C 0.20243 0.34001 0.35719 0.0
H459 H 0.01099 0.1311 0.46213 0.0
H460 H 0.04389 0.20004 0.42262 0.0
H461 H 0.21287 0.30375 0.39323 0.0
H462 H 0.29157 0.48822 0.27633 0.0
H463 H 0.25084 0.40167 0.29654 0.0
H464 H 0.08467 0.28926 0.32815 0.0
C465 C 0.06526 0.18882 0.42566 0.0
C466 C 0.1844 0.29932 0.37861 0.0
C467 C 0.04672 0.1497 0.44871 0.0
C468 C 0.25453 0.46404 0.2894 0.0
C469 C 0.23154 0.41484 0.30127 0.0
C470 C 0.11299 0.29247 0.34194 0.0
C471 C 0.11089 0.21338 0.40707 0.0
C472 C 0.13034 0.25496 0.38237 0.0
C473 C 0.18583 0.38443 0.32081 0.0
C474 C 0.16689 0.33758 0.33917 0.0
H475 H 0.1414 0.14878 0.43956 0.0
H476 H 0.17312 0.21613 0.39881 0.0
H477 H 0.05313 0.21751 0.36472 0.0
H478 H 0.16732 0.46634 0.32126 0.0
H479 H 0.12656 0.38029 0.3412 0.0
C480 C 0.91906 0.17293 0.87566 0.0
C481 C 0.94472 0.19636 0.90627 0.0
C482 C 0.89203 0.18365 0.86029 0.0
C483 C 0.8572 0.23228 0.82583 0.0
H484 H 0.77648 0.24005 0.88463 0.0
C485 C 0.75577 0.30253 0.78657 0.0
C486 C 0.70908 0.27907 0.80321 0.0
C487 C 0.78338 0.28892 0.79493 0.0
C488 C 0.79826 0.23742 0.86771 0.0
H489 H 0.96251 0.25002 0.94442 0.0
H490 H 0.91681 0.26971 0.91732 0.0
H491 H 0.8275 0.22445 0.90767 0.0
H492 H 0.65195 0.21981 0.83902 0.0
H493 H 0.69866 0.19482 0.85265 0.0
H494 H 0.82654 0.24424 0.78574 0.0
C495 C 0.91682 0.2424 0.90538 0.0
C496 C 0.82828 0.22929 0.88104 0.0
C497 C 0.94362 0.23158 0.92075 0.0
C498 C 0.68838 0.23912 0.82625 0.0
C499 C 0.71534 0.22508 0.8342 0.0
C500 C 0.82688 0.24038 0.81239 0.0
C501 C 0.89005 0.21803 0.8752 0.0
C502 C 0.85829 0.22677 0.86037 0.0
C503 C 0.76433 0.25141 0.81983 0.0
C504 C 0.79682 0.24274 0.83323 0.0
H505 H 0.91977 0.14621 0.86355 0.0
H506 H 0.87159 0.16397 0.83718 0.0
H507 H 0.88019 0.2309 0.80924 0.0
H508 H 0.77242 0.33346 0.76868 0.0
H509 H 0.82094 0.30984 0.7833 0.0
C510 C 0.86907 0.96305 0.43663 0.0
C511 C 0.86719 0.94376 0.46764 0.0
C512 C 0.82331 0.93727 0.41843 0.0
C513 C 0.67874 0.83959 0.4261 0.0
H514 H 0.68214 0.82616 0.33066 0.0
C515 C 0.49059 0.69693 0.35049 0.0
C516 C 0.48592 0.71778 0.323 0.0
C517 C 0.53894 0.72491 0.36573 0.0
C518 C 0.68086 0.83005 0.35723 0.0
H519 H 0.81625 0.88324 0.50441 0.0
H520 H 0.73588 0.83747 0.47249 0.0
H521 H 0.76245 0.87447 0.36335 0.0
H522 H 0.52864 0.78357 0.28921 0.0
H523 H 0.6143 0.83241 0.31556 0.0
H524 H 0.59697 0.79409 0.42006 0.0
C525 C 0.77266 0.87301 0.46236 0.0
C526 C 0.72675 0.8578 0.37598 0.0
C527 C 0.81856 0.89915 0.48071 0.0
C528 C 0.53127 0.76615 0.30993 0.0
C529 C 0.58011 0.79419 0.32515 0.0
C530 C 0.63293 0.81149 0.40744 0.0
C531 C 0.77459 0.89144 0.4308 0.0
C532 C 0.72615 0.8627 0.41068 0.0
C533 C 0.5839 0.77441 0.35382 0.0
C534 C 0.63343 0.80612 0.3729 0.0
H535 H 0.90619 -0.00226 0.42615 0.0
H536 H 0.8262 0.95318 0.39458 0.0
H537 H 0.67702 0.84349 0.4526 0.0
H538 H 0.4564 0.65947 0.36095 0.0
H539 H 0.54097 0.70834 0.38741 0.0
C540 C 0.89412 0.82167 0.96955 0.0
C541 C 0.94058 0.87115 0.95883 0.0
C542 C 0.86888 0.77768 0.94933 0.0
C543 C 0.88841 0.72582 0.87947 0.0
H544 H 0.73765 0.63041 0.87003 0.0
C545 C 0.76369 0.53539 0.79984 0.0
C546 C 0.72094 0.49096 0.81758 0.0
C547 C 0.7911 0.58583 0.81216 0.0
C548 C 0.77978 0.65676 0.87237 0.0
H549 H -0.00115 0.91351 0.91975 0.0
H550 H 0.9551 0.83661 0.88458 0.0
H551 H 0.78593 0.70991 0.90323 0.0
H552 H 0.67186 0.46429 0.86108 0.0
H553 H 0.71904 0.55116 0.88224 0.0
H554 H 0.88194 0.67181 0.84924 0.0
C555 C 0.93795 0.83167 0.90839 0.0
C556 C 0.80732 0.70204 0.89154 0.0
C557 C 0.96287 0.87563 0.92846 0.0
C558 C 0.70489 0.49776 0.84694 0.0
C559 C 0.73165 0.54765 0.85894 0.0
C560 C 0.86076 0.68033 0.86029 0.0
C561 C 0.89009 0.78244 0.91827 0.0
C562 C 0.86171 0.73635 0.89599 0.0
C563 C 0.77548 0.59229 0.84204 0.0
C564 C 0.80597 0.64465 0.85729 0.0
H565 H 0.87614 0.81738 0.99282 0.0
H566 H 0.83242 0.74001 0.9578 0.0
H567 H 0.93036 0.75163 0.88245 0.0
H568 H 0.77698 0.53118 0.77722 0.0
H569 H 0.82473 0.61965 0.79859 0.0
loop_
_geom_bond_atom_site_label_1
_geom_bond_atom_site_label_2
_geom_bond_distance
_geom_bond_site_symmetry_2
_ccdc_geom_bond_type
C0 C2 1.422 . S
C0 C4 1.415 . S
C0 N6 1.369 1_665 S
C1 C2 1.421 . S
C1 C3 1.417 . S
C1 C13 1.422 . S
C2 C0 1.422 . S
C2 C1 1.421 . S
C2 N12 1.359 . S
C3 C1 1.417 . S
C3 C5 1.329 . S
C3 H22 0.930 . S
C4 C0 1.415 . S
C4 C5 1.437 . S
C4 C8 1.413 1_665 S
C5 C3 1.329 . S
C5 C4 1.437 . S
C5 H27 0.929 . S
N6 C0 1.369 1_445 S
N6 C7 1.338 . S
N6 Gd11 2.622 1_455 S
C7 N6 1.338 . S
C7 C9 1.378 . S
C7 H19 0.929 . S
C8 C4 1.413 1_445 S
C8 C9 1.348 . S
C8 H24 0.931 1_545 S
C9 C7 1.378 . S
C9 C8 1.348 . S
C9 H25 0.930 . S
Gd10 N30 2.622 . S
Gd10 N37 2.570 1_565 S
Gd10 O44 2.350 1_454 S
Gd10 O45 2.468 . S
Gd10 O46 2.427 . S
Gd10 O48 2.388 1_455 S
Gd10 O49 2.386 1_565 S
Gd10 O53 2.283 1_564 S
Gd10 C63 2.805 . S
Gd11 N6 2.622 1_655 S
Gd11 N12 2.570 1_545 S
Gd11 O43 2.386 1_545 S
Gd11 O47 2.307 1_546 S
Gd11 O50 2.353 1_656 S
Gd11 O51 2.468 . S
Gd11 O52 2.427 1_655 S
Gd11 O54 2.388 1_655 S
Gd11 C75 2.805 . S
N12 C2 1.359 . S
N12 Gd11 2.570 1_565 S
N12 C14 1.343 . S
C13 C1 1.422 . S
C13 C15 1.321 . S
C13 H21 0.931 . S
C14 N12 1.343 . S
C14 C15 1.390 . S
C14 H16 0.931 . S
C15 C13 1.321 . S
C15 C14 1.390 . S
C15 H17 0.930 . S
H16 C14 0.931 . S
H17 C15 0.930 . S
H18 C41 0.931 . S
H19 C7 0.929 . S
H20 C42 0.930 . S
H21 C13 0.931 . S
H22 C3 0.930 . S
H23 C32 0.929 . S
H24 C8 0.931 1_565 S
H25 C9 0.930 . S
H26 C64 0.930 . S
H27 C5 0.929 . S
H28 C33 0.931 . S
H29 C34 0.930 . S
N30 Gd10 2.622 . S
N30 C31 1.369 1_565 S
N30 C32 1.338 1_455 S
C31 N30 1.369 1_545 S
C31 C35 1.415 . S
C31 C38 1.422 . S
C32 H23 0.929 . S
C32 N30 1.338 1_655 S
C32 C34 1.378 . S
C33 H28 0.931 . S
C33 C34 1.348 1_545 S
C33 C35 1.413 1_655 S
C34 H29 0.930 . S
C34 C32 1.378 . S
C34 C33 1.348 1_565 S
C35 C31 1.415 . S
C35 C33 1.413 1_455 S
C35 C65 1.437 . S
H36 C65 0.929 . S
N37 Gd10 2.570 1_545 S
N37 C38 1.359 . S
N37 C41 1.343 . S
C38 C31 1.422 . S
C38 N37 1.359 . S
C38 C40 1.421 . S
C39 C40 1.422 . S
C39 C42 1.321 . S
C39 H66 0.931 . S
C40 C38 1.421 . S
C40 C39 1.422 . S
C40 C64 1.417 . S
C41 H18 0.931 . S
C41 N37 1.343 . S
C41 C42 1.390 . S
C42 H20 0.930 . S
C42 C39 1.321 . S
C42 C41 1.390 . S
O43 Gd11 2.386 1_565 S
O43 C55 1.265 . S
O44 Gd10 2.350 1_656 S
O44 C55 1.246 . S
O45 Gd10 2.468 . S
O45 C63 1.263 . S
O46 Gd10 2.427 . S
O46 C63 1.252 . S
O47 Gd11 2.307 1_564 S
O47 C56 1.261 . S
O48 Gd10 2.388 1_655 S
O48 C56 1.252 . S
O49 Gd10 2.386 1_545 S
O49 C67 1.265 . S
O50 Gd11 2.353 1_454 S
O50 C67 1.242 . S
O51 Gd11 2.468 . S
O51 C75 1.263 . S
O52 Gd11 2.427 1_455 S
O52 C75 1.252 1_455 S
O53 Gd10 2.283 1_546 S
O53 C68 1.289 . S
O54 Gd11 2.388 1_455 S
O54 C68 1.252 . S
C55 O43 1.265 . S
C55 O44 1.246 . S
C56 O47 1.261 . S
C56 O48 1.252 . S
C57 C60 1.394 . S
C57 C62 1.370 . S
C57 C63 1.500 . S
C58 C61 1.383 . S
C58 C62 1.395 . S
C59 C60 1.396 . S
C59 C61 1.365 . S
C59 H76 0.929 . S
C60 C57 1.394 . S
C60 C59 1.396 . S
C60 H77 0.930 1_455 S
C61 C58 1.383 . S
C61 C59 1.365 . S
C61 H78 0.931 . S
C62 C57 1.370 . S
C62 C58 1.395 . S
C62 H79 0.930 . S
C63 Gd10 2.805 . S
C63 O45 1.263 . S
C63 O46 1.252 . S
C63 C57 1.500 . S
C64 H26 0.930 . S
C64 C40 1.417 . S
C64 C65 1.329 . S
C65 C35 1.437 . S
C65 H36 0.929 . S
C65 C64 1.329 . S
H66 C39 0.931 . S
C67 O49 1.265 . S
C67 O50 1.242 . S
C68 O53 1.289 . S
C68 O54 1.252 . S
C69 C72 1.394 . S
C69 C74 1.370 . S
C69 C75 1.500 . S
C70 C73 1.383 . S
C70 C74 1.395 . S
C71 C72 1.396 . S
C71 C73 1.365 . S
C71 H80 0.929 1_655 S
C72 C69 1.394 . S
C72 C71 1.396 . S
C72 H81 0.930 1_655 S
C73 C70 1.383 . S
C73 C71 1.365 . S
C73 H82 0.931 . S
C74 C69 1.370 . S
C74 C70 1.395 . S
C74 H83 0.930 . S
C75 Gd11 2.805 . S
C75 O51 1.263 . S
C75 O52 1.252 1_655 S
C75 C69 1.500 . S
H76 C59 0.929 . S
H77 C60 0.930 1_655 S
H78 C61 0.931 . S
H79 C62 0.930 . S
H80 C71 0.929 1_455 S
H81 C72 0.930 1_455 S
H82 C73 0.931 . S
H83 C74 0.930 . S
C84 C86 1.422 . S
C84 C88 1.415 . S
C84 N90 1.369 . S
C85 C86 1.421 . S
C85 C87 1.417 . S
C85 C97 1.422 . S
C86 C84 1.422 . S
C86 C85 1.421 . S
C86 N96 1.359 . S
C87 C85 1.417 . S
C87 C89 1.329 . S
C87 H106 0.930 . S
C88 C84 1.415 . S
C88 C89 1.437 . S
C88 C92 1.413 . S
C89 C87 1.329 . S
C89 C88 1.437 . S
C89 H111 0.929 . S
N90 C84 1.369 . S
N90 C91 1.338 1_445 S
N90 Gd95 2.622 1_455 S
C91 N90 1.338 1_665 S
C91 C93 1.378 . S
C91 H103 0.929 . S
C92 C88 1.413 . S
C92 C93 1.348 1_445 S
C92 H108 0.926 1_545 S
C93 C91 1.378 . S
C93 C92 1.348 1_665 S
C93 H109 0.930 . S
Gd94 N114 2.622 1_565 S
Gd94 N121 2.570 1_455 S
Gd94 O128 2.353 1_565 S
Gd94 O129 2.468 . S
Gd94 O130 2.427 1_565 S
Gd94 O132 2.388 1_565 S
Gd94 O133 2.386 1_455 S
Gd94 O137 2.307 1_455 S
Gd94 C147 2.805 . S
Gd95 N90 2.622 1_655 S
Gd95 N96 2.570 1_655 S
Gd95 O127 2.386 1_655 S
Gd95 O131 2.307 1_655 S
Gd95 O134 2.353 1_545 S
Gd95 O135 2.468 . S
Gd95 O136 2.427 . S
Gd95 O138 2.388 1_545 S
Gd95 C159 2.805 . S
N96 C86 1.359 . S
N96 Gd95 2.570 1_455 S
N96 C98 1.343 . S
C97 C85 1.422 . S
C97 C99 1.321 . S
C97 H105 0.931 . S
C98 N96 1.343 . S
C98 C99 1.390 . S
C98 H100 0.931 . S
C99 C97 1.321 . S
C99 C98 1.390 . S
C99 H101 0.930 . S
H100 C98 0.931 . S
H101 C99 0.930 . S
H102 C125 0.931 . S
H103 C91 0.929 . S
H104 C126 0.930 . S
H105 C97 0.931 . S
H106 C87 0.930 . S
H107 C116 0.929 . S
H108 C92 0.926 1_565 S
H109 C93 0.930 . S
H110 C148 0.930 . S
H111 C89 0.929 . S
H112 C117 0.931 . S
H113 C118 0.930 . S
N114 Gd94 2.622 1_545 S
N114 C115 1.369 1_445 S
N114 C116 1.338 . S
C115 N114 1.369 1_665 S
C115 C119 1.415 . S
C115 C122 1.422 . S
C116 H107 0.929 . S
C116 N114 1.338 . S
C116 C118 1.378 . S
C117 H112 0.931 . S
C117 C118 1.348 . S
C117 C119 1.413 1_445 S
C118 H113 0.930 . S
C118 C116 1.378 . S
C118 C117 1.348 . S
C119 C115 1.415 . S
C119 C117 1.413 1_665 S
C119 C149 1.437 . S
H120 C149 0.929 . S
N121 Gd94 2.570 1_655 S
N121 C122 1.359 . S
N121 C125 1.343 . S
C122 C115 1.422 . S
C122 N121 1.359 . S
C122 C124 1.421 . S
C123 C124 1.422 . S
C123 C126 1.321 . S
C123 H150 0.931 . S
C124 C122 1.421 . S
C124 C123 1.422 . S
C124 C148 1.417 . S
C125 H102 0.931 . S
C125 N121 1.343 . S
C125 C126 1.390 . S
C126 H104 0.930 . S
C126 C123 1.321 . S
C126 C125 1.390 . S
O127 Gd95 2.386 1_455 S
O127 C139 1.265 . S
O128 Gd94 2.353 1_545 S
O128 C139 1.242 . S
O129 Gd94 2.468 . S
O129 C147 1.263 . S
O130 Gd94 2.427 1_545 S
O130 C147 1.252 1_545 S
O131 Gd95 2.307 1_455 S
O131 C140 1.261 . S
O132 Gd94 2.388 1_545 S
O132 C140 1.252 . S
O133 Gd94 2.386 1_655 S
O133 C151 1.265 . S
O134 Gd95 2.353 1_565 S
O134 C151 1.242 . S
O135 Gd95 2.468 . S
O135 C159 1.263 . S
O136 Gd95 2.427 . S
O136 C159 1.252 . S
O137 Gd94 2.307 1_655 S
O137 C152 1.261 . S
O138 Gd95 2.388 1_565 S
O138 C152 1.252 . S
C139 O127 1.265 . S
C139 O128 1.242 . S
C140 O131 1.261 . S
C140 O132 1.252 . S
C141 C144 1.394 . S
C141 C146 1.370 . S
C141 C147 1.500 . S
C142 C145 1.383 . S
C142 C146 1.395 . S
C143 C144 1.396 . S
C143 C145 1.365 . S
C143 H160 0.929 1_565 S
C144 C141 1.394 . S
C144 C143 1.396 . S
C144 H161 0.930 1_565 S
C145 C142 1.383 . S
C145 C143 1.365 . S
C145 H162 0.931 . S
C146 C141 1.370 . S
C146 C142 1.395 . S
C146 H163 0.930 . S
C147 Gd94 2.805 . S
C147 O129 1.263 . S
C147 O130 1.252 1_565 S
C147 C141 1.500 . S
C148 H110 0.930 . S
C148 C124 1.417 . S
C148 C149 1.329 . S
C149 C119 1.437 . S
C149 H120 0.929 . S
C149 C148 1.329 . S
H150 C123 0.931 . S
C151 O133 1.265 . S
C151 O134 1.242 . S
C152 O137 1.261 . S
C152 O138 1.252 . S
C153 C156 1.394 . S
C153 C158 1.370 . S
C153 C159 1.500 . S
C154 C157 1.383 . S
C154 C158 1.395 . S
C155 C156 1.396 . S
C155 C157 1.365 . S
C155 H164 0.929 . S
C156 C153 1.394 . S
C156 C155 1.396 . S
C156 H165 0.930 . S
C157 C154 1.383 . S
C157 C155 1.365 . S
C157 H166 0.931 . S
C158 C153 1.370 . S
C158 C154 1.395 . S
C158 H167 0.930 . S
C159 Gd95 2.805 . S
C159 O135 1.263 . S
C159 O136 1.252 . S
C159 C153 1.500 . S
H160 C143 0.929 1_545 S
H161 C144 0.930 1_545 S
H162 C145 0.931 . S
H163 C146 0.930 . S
H164 C155 0.929 . S
H165 C156 0.930 . S
H166 C157 0.931 . S
H167 C158 0.930 . S
Zn168 O174 1.920 . S
Zn168 O180 1.898 . S
Zn168 O183 1.905 . S
Zn169 O177 1.905 . S
Zn169 O178 1.898 . S
Zn169 O186 1.920 . S
Zn170 O173 2.080 . S
Zn170 O176 2.114 . S
Zn170 O179 2.120 . S
Zn170 O181 2.120 . S
Zn170 O182 2.114 . S
Zn170 O185 2.080 . S
C171 O176 1.166 . S
C171 O177 1.182 . S
C172 O178 1.167 . S
C172 O179 1.299 . S
O173 Zn170 2.080 . S
O173 C187 1.305 . S
O174 Zn168 1.920 . S
O174 C187 1.234 . S
C175 O180 1.167 . S
C175 O181 1.299 . S
O176 Zn170 2.114 . S
O176 C171 1.166 . S
O177 Zn169 1.905 . S
O177 C171 1.182 . S
O178 Zn169 1.898 . S
O178 C172 1.167 . S
O179 Zn170 2.120 . S
O179 C172 1.299 . S
O180 Zn168 1.898 . S
O180 C175 1.167 . S
O181 Zn170 2.120 . S
O181 C175 1.299 . S
O182 Zn170 2.114 . S
O182 C184 1.166 . S
O183 Zn168 1.905 . S
O183 C184 1.182 . S
C184 O182 1.166 . S
C184 O183 1.182 . S
O185 Zn170 2.080 . S
O185 C188 1.305 . S
O186 Zn169 1.920 . S
O186 C188 1.234 . S
C187 O173 1.305 . S
C187 O174 1.234 . S
C188 O185 1.305 . S
C188 O186 1.234 . S
Zn189 O195 1.920 . S
Zn189 O201 1.898 . S
Zn189 O204 1.905 . S
Zn190 O198 1.905 . S
Zn190 O199 1.898 . S
Zn190 O207 1.920 . S
Zn191 O194 2.080 . S
Zn191 O197 2.114 . S
Zn191 O200 2.120 . S
Zn191 O202 2.120 . S
Zn191 O203 2.114 . S
Zn191 O206 2.080 . S
C192 O197 1.166 . S
C192 O198 1.182 . S
C193 O199 1.167 . S
C193 O200 1.299 . S
O194 Zn191 2.080 . S
O194 C208 1.305 . S
O195 Zn189 1.920 . S
O195 C208 1.234 . S
C196 O201 1.167 . S
C196 O202 1.299 . S
O197 Zn191 2.114 . S
O197 C192 1.166 . S
O198 Zn190 1.905 . S
O198 C192 1.182 . S
O199 Zn190 1.898 . S
O199 C193 1.167 . S
O200 Zn191 2.120 . S
O200 C193 1.299 . S
O201 Zn189 1.898 . S
O201 C196 1.167 . S
O202 Zn191 2.120 . S
O202 C196 1.299 . S
O203 Zn191 2.114 . S
O203 C205 1.166 . S
O204 Zn189 1.905 . S
O204 C205 1.182 . S
C205 O203 1.166 . S
C205 O204 1.182 . S
O206 Zn191 2.080 . S
O206 C209 1.305 . S
O207 Zn190 1.920 . S
O207 C209 1.234 . S
C208 O194 1.305 . S
C208 O195 1.234 . S
C209 O206 1.305 . S
C209 O207 1.234 . S
C210 C211 1.349 . S
C210 C212 1.327 . S
C210 H235 0.950 . S
C211 C210 1.349 . S
C211 C227 1.349 . S
C212 C210 1.327 . S
C212 C231 1.429 . S
C212 H236 0.950 . S
C213 C230 1.574 . S
C213 C232 1.368 . S
C213 H237 0.949 . S
H214 C218 0.949 . S
C215 C216 1.349 . S
C215 C217 1.327 . S
C215 H238 0.950 . S
C216 C215 1.349 . S
C216 C228 1.349 . S
C217 C215 1.327 . S
C217 C233 1.429 . S
C217 H239 0.950 . S
C218 H214 0.949 . S
C218 C226 1.574 . S
C218 C234 1.368 . S
H219 C227 0.950 . S
H220 C225 0.950 . S
H221 C226 0.949 . S
H222 C228 0.950 . S
H223 C229 0.950 . S
H224 C230 0.949 . S
C225 H220 0.950 . S
C225 C227 1.327 . S
C225 C231 1.429 . S
C226 C218 1.574 . S
C226 H221 0.949 . S
C226 C232 1.368 . S
C227 C211 1.349 . S
C227 H219 0.950 . S
C227 C225 1.327 . S
C228 C216 1.349 . S
C228 H222 0.950 . S
C228 C229 1.327 . S
C229 H223 0.950 . S
C229 C228 1.327 . S
C229 C233 1.429 . S
C230 C213 1.574 . S
C230 H224 0.949 . S
C230 C234 1.368 . S
C231 C212 1.429 . S
C231 C225 1.429 . S
C231 C232 1.523 . S
C232 C213 1.368 . S
C232 C226 1.368 . S
C232 C231 1.523 . S
C233 C217 1.429 . S
C233 C229 1.429 . S
C233 C234 1.523 . S
C234 C218 1.368 . S
C234 C230 1.368 . S
C234 C233 1.523 . S
H235 C210 0.950 . S
H236 C212 0.950 . S
H237 C213 0.949 . S
H238 C215 0.950 . S
H239 C217 0.950 . S
C240 C241 1.349 . S
C240 C242 1.327 . S
C240 H265 0.950 . S
C241 C240 1.349 . S
C241 C257 1.349 . S
C242 C240 1.327 . S
C242 C261 1.429 . S
C242 H266 0.950 . S
C243 C260 1.574 . S
C243 C262 1.368 . S
C243 H267 0.949 . S
H244 C248 0.949 . S
C245 C246 1.349 . S
C245 C247 1.327 . S
C245 H268 0.950 . S
C246 C245 1.349 . S
C246 C258 1.349 . S
C247 C245 1.327 . S
C247 C263 1.429 . S
C247 H269 0.950 . S
C248 H244 0.949 . S
C248 C256 1.574 . S
C248 C264 1.368 . S
H249 C257 0.950 . S
H250 C255 0.950 . S
H251 C256 0.949 . S
H252 C258 0.950 . S
H253 C259 0.950 . S
H254 C260 0.949 . S
C255 H250 0.950 . S
C255 C257 1.327 . S
C255 C261 1.429 . S
C256 C248 1.574 . S
C256 H251 0.949 . S
C256 C262 1.368 . S
C257 C241 1.349 . S
C257 H249 0.950 . S
C257 C255 1.327 . S
C258 C246 1.349 . S
C258 H252 0.950 . S
C258 C259 1.327 . S
C259 H253 0.950 . S
C259 C258 1.327 . S
C259 C263 1.429 . S
C260 C243 1.574 . S
C260 H254 0.949 . S
C260 C264 1.368 . S
C261 C242 1.429 . S
C261 C255 1.429 . S
C261 C262 1.523 . S
C262 C243 1.368 . S
C262 C256 1.368 . S
C262 C261 1.523 . S
C263 C247 1.429 . S
C263 C259 1.429 . S
C263 C264 1.523 . S
C264 C248 1.368 . S
C264 C260 1.368 . S
C264 C263 1.523 . S
H265 C240 0.950 . S
H266 C242 0.950 . S
H267 C243 0.949 . S
H268 C245 0.950 . S
H269 C247 0.950 . S
C270 C271 1.349 . S
C270 C272 1.327 . S
C270 H295 0.950 . S
C271 C270 1.349 . S
C271 C287 1.349 . S
C272 C270 1.327 . S
C272 C291 1.429 . S
C272 H296 0.950 . S
C273 C290 1.574 . S
C273 C292 1.368 . S
C273 H297 0.949 . S
H274 C278 0.949 . S
C275 C276 1.349 . S
C275 C277 1.327 . S
C275 H298 0.950 . S
C276 C275 1.349 . S
C276 C288 1.349 . S
C277 C275 1.327 . S
C277 C293 1.429 . S
C277 H299 0.950 . S
C278 H274 0.949 . S
C278 C286 1.574 . S
C278 C294 1.368 . S
H279 C287 0.950 . S
H280 C285 0.950 . S
H281 C286 0.949 . S
H282 C288 0.950 . S
H283 C289 0.950 . S
H284 C290 0.949 . S
C285 H280 0.950 . S
C285 C287 1.327 . S
C285 C291 1.429 . S
C286 C278 1.574 . S
C286 H281 0.949 . S
C286 C292 1.368 . S
C287 C271 1.349 . S
C287 H279 0.950 . S
C287 C285 1.327 . S
C288 C276 1.349 . S
C288 H282 0.950 . S
C288 C289 1.327 . S
C289 H283 0.950 . S
C289 C288 1.327 . S
C289 C293 1.429 . S
C290 C273 1.574 . S
C290 H284 0.949 . S
C290 C294 1.368 . S
C291 C272 1.429 . S
C291 C285 1.429 . S
C291 C292 1.523 . S
C292 C273 1.368 . S
C292 C286 1.368 . S
C292 C291 1.523 . S
C293 C277 1.429 . S
C293 C289 1.429 . S
C293 C294 1.523 . S
C294 C278 1.368 . S
C294 C290 1.368 . S
C294 C293 1.523 . S
H295 C270 0.950 . S
H296 C272 0.950 . S
H297 C273 0.949 . S
H298 C275 0.950 . S
H299 C277 0.950 . S
C300 C301 1.349 . S
C300 C302 1.327 . S
C300 H325 0.950 . S
C301 C300 1.349 . S
C301 C317 1.349 . S
C302 C300 1.327 . S
C302 C321 1.429 . S
C302 H326 0.950 . S
C303 C320 1.574 . S
C303 C322 1.368 . S
C303 H327 0.949 . S
H304 C308 0.949 . S
C305 C306 1.349 . S
C305 C307 1.327 . S
C305 H328 0.950 . S
C306 C305 1.349 . S
C306 C318 1.349 . S
C307 C305 1.327 . S
C307 C323 1.429 . S
C307 H329 0.950 . S
C308 H304 0.949 . S
C308 C316 1.574 . S
C308 C324 1.368 . S
H309 C317 0.950 . S
H310 C315 0.950 . S
H311 C316 0.949 . S
H312 C318 0.950 . S
H313 C319 0.950 . S
H314 C320 0.949 . S
C315 H310 0.950 . S
C315 C317 1.327 . S
C315 C321 1.429 . S
C316 C308 1.574 . S
C316 H311 0.949 . S
C316 C322 1.368 . S
C317 C301 1.349 . S
C317 H309 0.950 . S
C317 C315 1.327 . S
C318 C306 1.349 . S
C318 H312 0.950 . S
C318 C319 1.327 . S
C319 H313 0.950 . S
C319 C318 1.327 . S
C319 C323 1.429 . S
C320 C303 1.574 . S
C320 H314 0.949 . S
C320 C324 1.368 . S
C321 C302 1.429 . S
C321 C315 1.429 . S
C321 C322 1.523 . S
C322 C303 1.368 . S
C322 C316 1.368 . S
C322 C321 1.523 . S
C323 C307 1.429 . S
C323 C319 1.429 . S
C323 C324 1.523 . S
C324 C308 1.368 . S
C324 C320 1.368 . S
C324 C323 1.523 . S
H325 C300 0.950 . S
H326 C302 0.950 . S
H327 C303 0.949 . S
H328 C305 0.950 . S
H329 C307 0.950 . S
C330 C331 1.349 . S
C330 C332 1.327 . S
C330 H355 0.950 . S
C331 C330 1.349 . S
C331 C347 1.349 . S
C332 C330 1.327 . S
C332 C351 1.429 . S
C332 H356 0.950 . S
C333 C350 1.574 . S
C333 C352 1.368 . S
C333 H357 0.949 . S
H334 C338 0.949 . S
C335 C336 1.349 . S
C335 C337 1.327 . S
C335 H358 0.950 . S
C336 C335 1.349 . S
C336 C348 1.349 . S
C337 C335 1.327 . S
C337 C353 1.429 . S
C337 H359 0.950 . S
C338 H334 0.949 . S
C338 C346 1.574 . S
C338 C354 1.368 . S
H339 C347 0.950 . S
H340 C345 0.950 . S
H341 C346 0.949 . S
H342 C348 0.950 . S
H343 C349 0.950 . S
H344 C350 0.949 . S
C345 H340 0.950 . S
C345 C347 1.327 . S
C345 C351 1.429 . S
C346 C338 1.574 . S
C346 H341 0.949 . S
C346 C352 1.368 . S
C347 C331 1.349 . S
C347 H339 0.950 . S
C347 C345 1.327 . S
C348 C336 1.349 . S
C348 H342 0.950 . S
C348 C349 1.327 . S
C349 H343 0.950 . S
C349 C348 1.327 . S
C349 C353 1.429 . S
C350 C333 1.574 . S
C350 H344 0.949 . S
C350 C354 1.368 . S
C351 C332 1.429 . S
C351 C345 1.429 . S
C351 C352 1.523 . S
C352 C333 1.368 . S
C352 C346 1.368 . S
C352 C351 1.523 . S
C353 C337 1.429 . S
C353 C349 1.429 . S
C353 C354 1.523 . S
C354 C338 1.368 . S
C354 C350 1.368 . S
C354 C353 1.523 . S
H355 C330 0.950 . S
H356 C332 0.950 . S
H357 C333 0.949 . S
H358 C335 0.950 . S
H359 C337 0.950 . S
C360 C361 1.349 . S
C360 C362 1.327 . S
C360 H385 0.950 . S
C361 C360 1.349 . S
C361 C377 1.349 . S
C362 C360 1.327 . S
C362 C381 1.429 . S
C362 H386 0.950 . S
C363 C380 1.574 . S
C363 C382 1.368 . S
C363 H387 0.949 . S
H364 C368 0.949 . S
C365 C366 1.349 . S
C365 C367 1.327 . S
C365 H388 0.950 . S
C366 C365 1.349 . S
C366 C378 1.349 . S
C367 C365 1.327 . S
C367 C383 1.429 . S
C367 H389 0.950 . S
C368 H364 0.949 . S
C368 C376 1.574 . S
C368 C384 1.368 . S
H369 C377 0.950 . S
H370 C375 0.950 . S
H371 C376 0.949 . S
H372 C378 0.950 . S
H373 C379 0.950 . S
H374 C380 0.949 . S
C375 H370 0.950 . S
C375 C377 1.327 . S
C375 C381 1.429 . S
C376 C368 1.574 . S
C376 H371 0.949 . S
C376 C382 1.368 . S
C377 C361 1.349 . S
C377 H369 0.950 . S
C377 C375 1.327 . S
C378 C366 1.349 . S
C378 H372 0.950 . S
C378 C379 1.327 . S
C379 H373 0.950 . S
C379 C378 1.327 . S
C379 C383 1.429 . S
C380 C363 1.574 . S
C380 H374 0.949 . S
C380 C384 1.368 . S
C381 C362 1.429 . S
C381 C375 1.429 . S
C381 C382 1.523 . S
C382 C363 1.368 . S
C382 C376 1.368 . S
C382 C381 1.523 . S
C383 C367 1.429 . S
C383 C379 1.429 . S
C383 C384 1.523 . S
C384 C368 1.368 . S
C384 C380 1.368 . S
C384 C383 1.523 . S
H385 C360 0.950 . S
H386 C362 0.950 . S
H387 C363 0.949 . S
H388 C365 0.950 . S
H389 C367 0.950 . S
C390 C391 1.349 . S
C390 C392 1.327 . S
C390 H415 0.950 . S
C391 C390 1.349 . S
C391 C407 1.349 . S
C392 C390 1.327 . S
C392 C411 1.429 . S
C392 H416 0.950 . S
C393 C410 1.574 . S
C393 C412 1.368 . S
C393 H417 0.949 . S
H394 C398 0.949 . S
C395 C396 1.349 . S
C395 C397 1.327 . S
C395 H418 0.950 . S
C396 C395 1.349 . S
C396 C408 1.349 . S
C397 C395 1.327 . S
C397 C413 1.429 . S
C397 H419 0.950 . S
C398 H394 0.949 . S
C398 C406 1.574 . S
C398 C414 1.368 . S
H399 C407 0.950 . S
H400 C405 0.950 . S
H401 C406 0.949 . S
H402 C408 0.950 . S
H403 C409 0.950 . S
H404 C410 0.949 . S
C405 H400 0.950 . S
C405 C407 1.327 . S
C405 C411 1.429 . S
C406 C398 1.574 . S
C406 H401 0.949 . S
C406 C412 1.368 . S
C407 C391 1.349 . S
C407 H399 0.950 . S
C407 C405 1.327 . S
C408 C396 1.349 . S
C408 H402 0.950 . S
C408 C409 1.327 . S
C409 H403 0.950 . S
C409 C408 1.327 . S
C409 C413 1.429 . S
C410 C393 1.574 . S
C410 H404 0.949 . S
C410 C414 1.368 . S
C411 C392 1.429 . S
C411 C405 1.429 . S
C411 C412 1.523 . S
C412 C393 1.368 . S
C412 C406 1.368 . S
C412 C411 1.523 . S
C413 C397 1.429 . S
C413 C409 1.429 . S
C413 C414 1.523 . S
C414 C398 1.368 . S
C414 C410 1.368 . S
C414 C413 1.523 . S
H415 C390 0.950 . S
H416 C392 0.950 . S
H417 C393 0.949 . S
H418 C395 0.950 . S
H419 C397 0.950 . S
C420 C421 1.349 . S
C420 C422 1.327 . S
C420 H445 0.950 . S
C421 C420 1.349 . S
C421 C437 1.349 . S
C422 C420 1.327 . S
C422 C441 1.429 . S
C422 H446 0.950 . S
C423 C440 1.574 . S
C423 C442 1.368 . S
C423 H447 0.949 . S
H424 C428 0.949 . S
C425 C426 1.349 . S
C425 C427 1.327 . S
C425 H448 0.950 . S
C426 C425 1.349 . S
C426 C438 1.349 . S
C427 C425 1.327 . S
C427 C443 1.429 . S
C427 H449 0.950 . S
C428 H424 0.949 . S
C428 C436 1.574 . S
C428 C444 1.368 . S
H429 C437 0.950 . S
H430 C435 0.950 . S
H431 C436 0.949 . S
H432 C438 0.950 . S
H433 C439 0.950 . S
H434 C440 0.949 . S
C435 H430 0.950 . S
C435 C437 1.327 . S
C435 C441 1.429 . S
C436 C428 1.574 . S
C436 H431 0.949 . S
C436 C442 1.368 . S
C437 C421 1.349 . S
C437 H429 0.950 . S
C437 C435 1.327 . S
C438 C426 1.349 . S
C438 H432 0.950 . S
C438 C439 1.327 . S
C439 H433 0.950 . S
C439 C438 1.327 . S
C439 C443 1.429 . S
C440 C423 1.574 . S
C440 H434 0.949 . S
C440 C444 1.368 . S
C441 C422 1.429 . S
C441 C435 1.429 . S
C441 C442 1.523 . S
C442 C423 1.368 . S
C442 C436 1.368 . S
C442 C441 1.523 . S
C443 C427 1.429 . S
C443 C439 1.429 . S
C443 C444 1.523 . S
C444 C428 1.368 . S
C444 C440 1.368 . S
C444 C443 1.523 . S
H445 C420 0.950 . S
H446 C422 0.950 . S
H447 C423 0.949 . S
H448 C425 0.950 . S
H449 C427 0.950 . S
C450 C451 1.349 . S
C450 C452 1.327 . S
C450 H475 0.950 . S
C451 C450 1.349 . S
C451 C467 1.349 . S
C452 C450 1.327 . S
C452 C471 1.429 . S
C452 H476 0.950 . S
C453 C470 1.574 . S
C453 C472 1.368 . S
C453 H477 0.949 . S
H454 C458 0.949 . S
C455 C456 1.349 . S
C455 C457 1.327 . S
C455 H478 0.950 . S
C456 C455 1.349 . S
C456 C468 1.349 . S
C457 C455 1.327 . S
C457 C473 1.429 . S
C457 H479 0.950 . S
C458 H454 0.949 . S
C458 C466 1.574 . S
C458 C474 1.368 . S
H459 C467 0.950 . S
H460 C465 0.950 . S
H461 C466 0.949 . S
H462 C468 0.950 . S
H463 C469 0.950 . S
H464 C470 0.949 . S
C465 H460 0.950 . S
C465 C467 1.327 . S
C465 C471 1.429 . S
C466 C458 1.574 . S
C466 H461 0.949 . S
C466 C472 1.368 . S
C467 C451 1.349 . S
C467 H459 0.950 . S
C467 C465 1.327 . S
C468 C456 1.349 . S
C468 H462 0.950 . S
C468 C469 1.327 . S
C469 H463 0.950 . S
C469 C468 1.327 . S
C469 C473 1.429 . S
C470 C453 1.574 . S
C470 H464 0.949 . S
C470 C474 1.368 . S
C471 C452 1.429 . S
C471 C465 1.429 . S
C471 C472 1.523 . S
C472 C453 1.368 . S
C472 C466 1.368 . S
C472 C471 1.523 . S
C473 C457 1.429 . S
C473 C469 1.429 . S
C473 C474 1.523 . S
C474 C458 1.368 . S
C474 C470 1.368 . S
C474 C473 1.523 . S
H475 C450 0.950 . S
H476 C452 0.950 . S
H477 C453 0.949 . S
H478 C455 0.950 . S
H479 C457 0.950 . S
C480 C481 1.349 . S
C480 C482 1.327 . S
C480 H505 0.950 . S
C481 C480 1.349 . S
C481 C497 1.349 . S
C482 C480 1.327 . S
C482 C501 1.429 . S
C482 H506 0.950 . S
C483 C500 1.574 . S
C483 C502 1.368 . S
C483 H507 0.949 . S
H484 C488 0.949 . S
C485 C486 1.349 . S
C485 C487 1.327 . S
C485 H508 0.950 . S
C486 C485 1.349 . S
C486 C498 1.349 . S
C487 C485 1.327 . S
C487 C503 1.429 . S
C487 H509 0.950 . S
C488 H484 0.949 . S
C488 C496 1.574 . S
C488 C504 1.368 . S
H489 C497 0.950 . S
H490 C495 0.950 . S
H491 C496 0.949 . S
H492 C498 0.950 . S
H493 C499 0.950 . S
H494 C500 0.949 . S
C495 H490 0.950 . S
C495 C497 1.327 . S
C495 C501 1.429 . S
C496 C488 1.574 . S
C496 H491 0.949 . S
C496 C502 1.368 . S
C497 C481 1.349 . S
C497 H489 0.950 . S
C497 C495 1.327 . S
C498 C486 1.349 . S
C498 H492 0.950 . S
C498 C499 1.327 . S
C499 H493 0.950 . S
C499 C498 1.327 . S
C499 C503 1.429 . S
C500 C483 1.574 . S
C500 H494 0.949 . S
C500 C504 1.368 . S
C501 C482 1.429 . S
C501 C495 1.429 . S
C501 C502 1.523 . S
C502 C483 1.368 . S
C502 C496 1.368 . S
C502 C501 1.523 . S
C503 C487 1.429 . S
C503 C499 1.429 . S
C503 C504 1.523 . S
C504 C488 1.368 . S
C504 C500 1.368 . S
C504 C503 1.523 . S
H505 C480 0.950 . S
H506 C482 0.950 . S
H507 C483 0.949 . S
H508 C485 0.950 . S
H509 C487 0.950 . S
C510 C511 1.349 . S
C510 C512 1.327 . S
C510 H535 0.950 . S
C511 C510 1.349 . S
C511 C527 1.349 . S
C512 C510 1.327 . S
C512 C531 1.429 . S
C512 H536 0.950 . S
C513 C530 1.574 . S
C513 C532 1.368 . S
C513 H537 0.949 . S
H514 C518 0.949 . S
C515 C516 1.349 . S
C515 C517 1.327 . S
C515 H538 0.950 . S
C516 C515 1.349 . S
C516 C528 1.349 . S
C517 C515 1.327 . S
C517 C533 1.429 . S
C517 H539 0.950 . S
C518 H514 0.949 . S
C518 C526 1.574 . S
C518 C534 1.368 . S
H519 C527 0.950 . S
H520 C525 0.950 . S
H521 C526 0.949 . S
H522 C528 0.950 . S
H523 C529 0.950 . S
H524 C530 0.949 . S
C525 H520 0.950 . S
C525 C527 1.327 . S
C525 C531 1.429 . S
C526 C518 1.574 . S
C526 H521 0.949 . S
C526 C532 1.368 . S
C527 C511 1.349 . S
C527 H519 0.950 . S
C527 C525 1.327 . S
C528 C516 1.349 . S
C528 H522 0.950 . S
C528 C529 1.327 . S
C529 H523 0.950 . S
C529 C528 1.327 . S
C529 C533 1.429 . S
C530 C513 1.574 . S
C530 H524 0.949 . S
C530 C534 1.368 . S
C531 C512 1.429 . S
C531 C525 1.429 . S
C531 C532 1.523 . S
C532 C513 1.368 . S
C532 C526 1.368 . S
C532 C531 1.523 . S
C533 C517 1.429 . S
C533 C529 1.429 . S
C533 C534 1.523 . S
C534 C518 1.368 . S
C534 C530 1.368 . S
C534 C533 1.523 . S
H535 C510 0.950 . S
H536 C512 0.950 . S
H537 C513 0.949 . S
H538 C515 0.950 . S
H539 C517 0.950 . S
C540 C541 1.349 . S
C540 C542 1.327 . S
C540 H565 0.950 . S
C541 C540 1.349 . S
C541 C557 1.349 . S
C542 C540 1.327 . S
C542 C561 1.429 . S
C542 H566 0.950 . S
C543 C560 1.574 . S
C543 C562 1.368 . S
C543 H567 0.949 . S
H544 C548 0.949 . S
C545 C546 1.349 . S
C545 C547 1.327 . S
C545 H568 0.950 . S
C546 C545 1.349 . S
C546 C558 1.349 . S
C547 C545 1.327 . S
C547 C563 1.429 . S
C547 H569 0.950 . S
C548 H544 0.949 . S
C548 C556 1.574 . S
C548 C564 1.368 . S
H549 C557 0.950 . S
H550 C555 0.950 . S
H551 C556 0.949 . S
H552 C558 0.950 . S
H553 C559 0.950 . S
H554 C560 0.949 . S
C555 H550 0.950 . S
C555 C557 1.327 . S
C555 C561 1.429 . S
C556 C548 1.574 . S
C556 H551 0.949 . S
C556 C562 1.368 . S
C557 C541 1.349 . S
C557 H549 0.950 . S
C557 C555 1.327 . S
C558 C546 1.349 . S
C558 H552 0.950 . S
C558 C559 1.327 . S
C559 H553 0.950 . S
C559 C558 1.327 . S
C559 C563 1.429 . S
C560 C543 1.574 . S
C560 H554 0.949 . S
C560 C564 1.368 . S
C561 C542 1.429 . S
C561 C555 1.429 . S
C561 C562 1.523 . S
C562 C543 1.368 . S
C562 C556 1.368 . S
C562 C561 1.523 . S
C563 C547 1.429 . S
C563 C559 1.429 . S
C563 C564 1.523 . S
C564 C548 1.368 . S
C564 C560 1.368 . S
C564 C563 1.523 . S
H565 C540 0.950 . S
H566 C542 0.950 . S
H567 C543 0.949 . S
H568 C545 0.950 . S
H569 C547 0.950 . S
C211 C58 1.164 . S
C216 C187 1.247 . S
C241 C139 1.516 . S
C246 C193 1.379 . S
C271 C67 1.586 . S
C276 C184 1.461 . S
C301 C154 1.193 . S
C306 C209 1.252 . S
C331 C56 1.568 . S
C336 C175 1.436 . S
C366 C192 1.516 . S
C361 C152 1.608 . S
C391 C142 1.164 . S
C396 C188 1.247 . S
C426 C205 1.516 . S
C421 C68 1.608 . S
C456 C172 1.436 . S
C451 C140 1.568 . S
C486 C208 1.252 . S
C481 C70 1.193 . S
C516 C171 1.461 . S
C511 C151 1.586 . S
C546 C196 1.379 . S
C541 C55 1.516 . S
