# Generated by pormake.
# Topology ibd, (4,6)-cn, num edge types: 1
# Building blocks:
#     Node 0, Type 0, BuildingBlock: CEKHIL_clean_sbu_0, # of connection points: 4
#     Node 1, Type 0, BuildingBlock: CEKHIL_clean_sbu_0, # of connection points: 4
#     Node 2, Type 0, BuildingBlock: CEKHIL_clean_sbu_0, # of connection points: 4
#     Node 3, Type 0, BuildingBlock: CEKHIL_clean_sbu_0, # of connection points: 4
#     Node 4, Type 0, BuildingBlock: CEKHIL_clean_sbu_0, # of connection points: 4
#     Node 5, Type 0, BuildingBlock: CEKHIL_clean_sbu_0, # of connection points: 4
#     Node 6, Type 0, BuildingBlock: CEKHIL_clean_sbu_0, # of connection points: 4
#     Node 7, Type 0, BuildingBlock: CEKHIL_clean_sbu_0, # of connection points: 4
#     Node 8, Type 0, BuildingBlock: CEKHIL_clean_sbu_0, # of connection points: 4
#     Node 9, Type 0, BuildingBlock: CEKHIL_clean_sbu_0, # of connection points: 4
#     Node 10, Type 0, BuildingBlock: CEKHIL_clean_sbu_0, # of connection points: 4
#     Node 11, Type 0, BuildingBlock: CEKHIL_clean_sbu_0, # of connection points: 4
#     Node 12, Type 0, BuildingBlock: CEKHIL_clean_sbu_0, # of connection points: 4
#     Node 13, Type 0, BuildingBlock: CEKHIL_clean_sbu_0, # of connection points: 4
#     Node 14, Type 0, BuildingBlock: CEKHIL_clean_sbu_0, # of connection points: 4
#     Node 15, Type 0, BuildingBlock: CEKHIL_clean_sbu_0, # of connection points: 4
#     Node 16, Type 0, BuildingBlock: CEKHIL_clean_sbu_0, # of connection points: 4
#     Node 17, Type 0, BuildingBlock: CEKHIL_clean_sbu_0, # of connection points: 4
#     Node 18, Type 0, BuildingBlock: CEKHIL_clean_sbu_0, # of connection points: 4
#     Node 19, Type 0, BuildingBlock: CEKHIL_clean_sbu_0, # of connection points: 4
#     Node 20, Type 0, BuildingBlock: CEKHIL_clean_sbu_0, # of connection points: 4
#     Node 21, Type 0, BuildingBlock: CEKHIL_clean_sbu_0, # of connection points: 4
#     Node 22, Type 0, BuildingBlock: CEKHIL_clean_sbu_0, # of connection points: 4
#     Node 23, Type 0, BuildingBlock: CEKHIL_clean_sbu_0, # of connection points: 4
#     Node 24, Type 1, BuildingBlock: CIFDUS_clean_sbu_1, # of connection points: 6
#     Node 25, Type 1, BuildingBlock: CIFDUS_clean_sbu_1, # of connection points: 6
#     Node 26, Type 1, BuildingBlock: CIFDUS_clean_sbu_1, # of connection points: 6
#     Node 27, Type 1, BuildingBlock: CIFDUS_clean_sbu_1, # of connection points: 6
#     Node 28, Type 1, BuildingBlock: CIFDUS_clean_sbu_1, # of connection points: 6
#     Node 29, Type 1, BuildingBlock: CIFDUS_clean_sbu_1, # of connection points: 6
#     Node 30, Type 1, BuildingBlock: CIFDUS_clean_sbu_1, # of connection points: 6
#     Node 31, Type 1, BuildingBlock: CIFDUS_clean_sbu_1, # of connection points: 6
#     Node 32, Type 1, BuildingBlock: CIFDUS_clean_sbu_1, # of connection points: 6
#     Node 33, Type 1, BuildingBlock: CIFDUS_clean_sbu_1, # of connection points: 6
#     Node 34, Type 1, BuildingBlock: CIFDUS_clean_sbu_1, # of connection points: 6
#     Node 35, Type 1, BuildingBlock: CIFDUS_clean_sbu_1, # of connection points: 6
#     Node 36, Type 1, BuildingBlock: CIFDUS_clean_sbu_1, # of connection points: 6
#     Node 37, Type 1, BuildingBlock: CIFDUS_clean_sbu_1, # of connection points: 6
#     Node 38, Type 1, BuildingBlock: CIFDUS_clean_sbu_1, # of connection points: 6
#     Node 39, Type 1, BuildingBlock: CIFDUS_clean_sbu_1, # of connection points: 6
#     Edge 40, Type (0, 1), BuildingBlock: AJUNOK_clean_linker_0, # of connection points: 2
#     Edge 41, Type (0, 1), BuildingBlock: AJUNOK_clean_linker_0, # of connection points: 2
#     Edge 42, Type (0, 1), BuildingBlock: AJUNOK_clean_linker_0, # of connection points: 2
#     Edge 43, Type (0, 1), BuildingBlock: AJUNOK_clean_linker_0, # of connection points: 2
#     Edge 44, Type (0, 1), BuildingBlock: AJUNOK_clean_linker_0, # of connection points: 2
#     Edge 45, Type (0, 1), BuildingBlock: AJUNOK_clean_linker_0, # of connection points: 2
#     Edge 46, Type (0, 1), BuildingBlock: AJUNOK_clean_linker_0, # of connection points: 2
#     Edge 47, Type (0, 1), BuildingBlock: AJUNOK_clean_linker_0, # of connection points: 2
#     Edge 48, Type (0, 1), BuildingBlock: AJUNOK_clean_linker_0, # of connection points: 2
#     Edge 49, Type (0, 1), BuildingBlock: AJUNOK_clean_linker_0, # of connection points: 2
#     Edge 50, Type (0, 1), BuildingBlock: AJUNOK_clean_linker_0, # of connection points: 2
#     Edge 51, Type (0, 1), BuildingBlock: AJUNOK_clean_linker_0, # of connection points: 2
#     Edge 52, Type (0, 1), BuildingBlock: AJUNOK_clean_linker_0, # of connection points: 2
#     Edge 53, Type (0, 1), BuildingBlock: AJUNOK_clean_linker_0, # of connection points: 2
#     Edge 54, Type (0, 1), BuildingBlock: AJUNOK_clean_linker_0, # of connection points: 2
#     Edge 55, Type (0, 1), BuildingBlock: AJUNOK_clean_linker_0, # of connection points: 2
#     Edge 56, Type (0, 1), BuildingBlock: AJUNOK_clean_linker_0, # of connection points: 2
#     Edge 57, Type (0, 1), BuildingBlock: AJUNOK_clean_linker_0, # of connection points: 2
#     Edge 58, Type (0, 1), BuildingBlock: AJUNOK_clean_linker_0, # of connection points: 2
#     Edge 59, Type (0, 1), BuildingBlock: AJUNOK_clean_linker_0, # of connection points: 2
#     Edge 60, Type (0, 1), BuildingBlock: AJUNOK_clean_linker_0, # of connection points: 2
#     Edge 61, Type (0, 1), BuildingBlock: AJUNOK_clean_linker_0, # of connection points: 2
#     Edge 62, Type (0, 1), BuildingBlock: AJUNOK_clean_linker_0, # of connection points: 2
#     Edge 63, Type (0, 1), BuildingBlock: AJUNOK_clean_linker_0, # of connection points: 2
#     Edge 64, Type (0, 1), BuildingBlock: AJUNOK_clean_linker_0, # of connection points: 2
#     Edge 65, Type (0, 1), BuildingBlock: AJUNOK_clean_linker_0, # of connection points: 2
#     Edge 66, Type (0, 1), BuildingBlock: AJUNOK_clean_linker_0, # of connection points: 2
#     Edge 67, Type (0, 1), BuildingBlock: AJUNOK_clean_linker_0, # of connection points: 2
#     Edge 68, Type (0, 1), BuildingBlock: AJUNOK_clean_linker_0, # of connection points: 2
#     Edge 69, Type (0, 1), BuildingBlock: AJUNOK_clean_linker_0, # of connection points: 2
#     Edge 70, Type (0, 1), BuildingBlock: AJUNOK_clean_linker_0, # of connection points: 2
#     Edge 71, Type (0, 1), BuildingBlock: AJUNOK_clean_linker_0, # of connection points: 2
#     Edge 72, Type (0, 1), BuildingBlock: AJUNOK_clean_linker_0, # of connection points: 2
#     Edge 73, Type (0, 1), BuildingBlock: AJUNOK_clean_linker_0, # of connection points: 2
#     Edge 74, Type (0, 1), BuildingBlock: AJUNOK_clean_linker_0, # of connection points: 2
#     Edge 75, Type (0, 1), BuildingBlock: AJUNOK_clean_linker_0, # of connection points: 2
#     Edge 76, Type (0, 1), BuildingBlock: AJUNOK_clean_linker_0, # of connection points: 2
#     Edge 77, Type (0, 1), BuildingBlock: AJUNOK_clean_linker_0, # of connection points: 2
#     Edge 78, Type (0, 1), BuildingBlock: AJUNOK_clean_linker_0, # of connection points: 2
#     Edge 79, Type (0, 1), BuildingBlock: AJUNOK_clean_linker_0, # of connection points: 2
#     Edge 80, Type (0, 1), BuildingBlock: AJUNOK_clean_linker_0, # of connection points: 2
#     Edge 81, Type (0, 1), BuildingBlock: AJUNOK_clean_linker_0, # of connection points: 2
#     Edge 82, Type (0, 1), BuildingBlock: AJUNOK_clean_linker_0, # of connection points: 2
#     Edge 83, Type (0, 1), BuildingBlock: AJUNOK_clean_linker_0, # of connection points: 2
#     Edge 84, Type (0, 1), BuildingBlock: AJUNOK_clean_linker_0, # of connection points: 2
#     Edge 85, Type (0, 1), BuildingBlock: AJUNOK_clean_linker_0, # of connection points: 2
#     Edge 86, Type (0, 1), BuildingBlock: AJUNOK_clean_linker_0, # of connection points: 2
#     Edge 87, Type (0, 1), BuildingBlock: AJUNOK_clean_linker_0, # of connection points: 2
#     Edge 88, Type (0, 1), BuildingBlock: AJUNOK_clean_linker_0, # of connection points: 2
#     Edge 89, Type (0, 1), BuildingBlock: AJUNOK_clean_linker_0, # of connection points: 2
#     Edge 90, Type (0, 1), BuildingBlock: AJUNOK_clean_linker_0, # of connection points: 2
#     Edge 91, Type (0, 1), BuildingBlock: AJUNOK_clean_linker_0, # of connection points: 2
#     Edge 92, Type (0, 1), BuildingBlock: AJUNOK_clean_linker_0, # of connection points: 2
#     Edge 93, Type (0, 1), BuildingBlock: AJUNOK_clean_linker_0, # of connection points: 2
#     Edge 94, Type (0, 1), BuildingBlock: AJUNOK_clean_linker_0, # of connection points: 2
#     Edge 95, Type (0, 1), BuildingBlock: AJUNOK_clean_linker_0, # of connection points: 2
#     Edge 96, Type (0, 1), BuildingBlock: AJUNOK_clean_linker_0, # of connection points: 2
#     Edge 97, Type (0, 1), BuildingBlock: AJUNOK_clean_linker_0, # of connection points: 2
#     Edge 98, Type (0, 1), BuildingBlock: AJUNOK_clean_linker_0, # of connection points: 2
#     Edge 99, Type (0, 1), BuildingBlock: AJUNOK_clean_linker_0, # of connection points: 2
#     Edge 100, Type (0, 1), BuildingBlock: AJUNOK_clean_linker_0, # of connection points: 2
#     Edge 101, Type (0, 1), BuildingBlock: AJUNOK_clean_linker_0, # of connection points: 2
#     Edge 102, Type (0, 1), BuildingBlock: AJUNOK_clean_linker_0, # of connection points: 2
#     Edge 103, Type (0, 1), BuildingBlock: AJUNOK_clean_linker_0, # of connection points: 2
#     Edge 104, Type (0, 1), BuildingBlock: AJUNOK_clean_linker_0, # of connection points: 2
#     Edge 105, Type (0, 1), BuildingBlock: AJUNOK_clean_linker_0, # of connection points: 2
#     Edge 106, Type (0, 1), BuildingBlock: AJUNOK_clean_linker_0, # of connection points: 2
#     Edge 107, Type (0, 1), BuildingBlock: AJUNOK_clean_linker_0, # of connection points: 2
#     Edge 108, Type (0, 1), BuildingBlock: AJUNOK_clean_linker_0, # of connection points: 2
#     Edge 109, Type (0, 1), BuildingBlock: AJUNOK_clean_linker_0, # of connection points: 2
#     Edge 110, Type (0, 1), BuildingBlock: AJUNOK_clean_linker_0, # of connection points: 2
#     Edge 111, Type (0, 1), BuildingBlock: AJUNOK_clean_linker_0, # of connection points: 2
#     Edge 112, Type (0, 1), BuildingBlock: AJUNOK_clean_linker_0, # of connection points: 2
#     Edge 113, Type (0, 1), BuildingBlock: AJUNOK_clean_linker_0, # of connection points: 2
#     Edge 114, Type (0, 1), BuildingBlock: AJUNOK_clean_linker_0, # of connection points: 2
#     Edge 115, Type (0, 1), BuildingBlock: AJUNOK_clean_linker_0, # of connection points: 2
#     Edge 116, Type (0, 1), BuildingBlock: AJUNOK_clean_linker_0, # of connection points: 2
#     Edge 117, Type (0, 1), BuildingBlock: AJUNOK_clean_linker_0, # of connection points: 2
#     Edge 118, Type (0, 1), BuildingBlock: AJUNOK_clean_linker_0, # of connection points: 2
#     Edge 119, Type (0, 1), BuildingBlock: AJUNOK_clean_linker_0, # of connection points: 2
#     Edge 120, Type (0, 1), BuildingBlock: AJUNOK_clean_linker_0, # of connection points: 2
#     Edge 121, Type (0, 1), BuildingBlock: AJUNOK_clean_linker_0, # of connection points: 2
#     Edge 122, Type (0, 1), BuildingBlock: AJUNOK_clean_linker_0, # of connection points: 2
#     Edge 123, Type (0, 1), BuildingBlock: AJUNOK_clean_linker_0, # of connection points: 2
#     Edge 124, Type (0, 1), BuildingBlock: AJUNOK_clean_linker_0, # of connection points: 2
#     Edge 125, Type (0, 1), BuildingBlock: AJUNOK_clean_linker_0, # of connection points: 2
#     Edge 126, Type (0, 1), BuildingBlock: AJUNOK_clean_linker_0, # of connection points: 2
#     Edge 127, Type (0, 1), BuildingBlock: AJUNOK_clean_linker_0, # of connection points: 2
#     Edge 128, Type (0, 1), BuildingBlock: AJUNOK_clean_linker_0, # of connection points: 2
#     Edge 129, Type (0, 1), BuildingBlock: AJUNOK_clean_linker_0, # of connection points: 2
#     Edge 130, Type (0, 1), BuildingBlock: AJUNOK_clean_linker_0, # of connection points: 2
#     Edge 131, Type (0, 1), BuildingBlock: AJUNOK_clean_linker_0, # of connection points: 2
#     Edge 132, Type (0, 1), BuildingBlock: AJUNOK_clean_linker_0, # of connection points: 2
#     Edge 133, Type (0, 1), BuildingBlock: AJUNOK_clean_linker_0, # of connection points: 2
#     Edge 134, Type (0, 1), BuildingBlock: AJUNOK_clean_linker_0, # of connection points: 2
#     Edge 135, Type (0, 1), BuildingBlock: AJUNOK_clean_linker_0, # of connection points: 2
# Relax obj value: 0.352
# Max RMSD: 0.307
# Mean RMSD: 0.277
data_MOF--net-ibd--node1-CEKHIL_clean_sbu_0--node2-CIFDUS_clean_sbu_1--edge1-AJUNOK_clean_linker_0
_symmetry_space_group_name_H-M    P1
_symmetry_Int_Tables_number       1
_symmetry_cell_setting            triclinic
loop_
_symmetry_equiv_pos_as_xyz
'x, y, z'
_cell_length_a     34.964629
_cell_length_b     35.773079
_cell_length_c     36.421515
_cell_angle_alpha  90.944939
_cell_angle_beta   89.79403
_cell_angle_gamma 93.736011
loop_
_atom_site_label
_atom_site_type_symbol
_atom_site_fract_x
_atom_site_fract_y
_atom_site_fract_z
_atom_type_partial_charge
Co0 Co 0.00294 0.31879 0.36335 0.0
O1 O 0.01875 0.35114 0.3228 0.0
O2 O 0.9595 0.32793 0.33365 0.0
C3 C 0.0326 0.35031 0.4096 0.0
O4 O 0.97482 0.28705 0.40349 0.0
Co5 Co 0.06192 0.27548 0.40637 0.0
O6 O 0.01944 0.26657 0.44153 0.0
C7 C 0.04546 0.25689 0.32938 0.0
C8 C 0.98284 0.34858 0.31344 0.0
C9 C 0.98493 0.27247 0.43398 0.0
O10 O 0.01438 0.27407 0.33167 0.0
O11 O 0.07024 0.25783 0.35511 0.0
O12 O 0.001 0.36141 0.39603 0.0
O13 O 0.04837 0.32443 0.39082 0.0
Co14 Co 0.98619 0.78089 0.64671 0.0
O15 O 0.94964 0.77582 0.68577 0.0
O16 O 0.98785 0.82681 0.67519 0.0
C17 C 0.95016 0.75692 0.6003 0.0
O18 O 0.02656 0.79501 0.60851 0.0
Co19 Co 0.01533 0.70852 0.61313 0.0
O20 O 0.03943 0.74312 0.57634 0.0
C21 C 0.03602 0.73027 0.68824 0.0
C22 C 0.96264 0.80913 0.69611 0.0
C23 C 0.04221 0.77859 0.58111 0.0
O24 O 0.02535 0.7627 0.68074 0.0
O25 O 0.03142 0.70252 0.6657 0.0
O26 O 0.9474 0.79152 0.61079 0.0
O27 O 0.97 0.73676 0.6215 0.0
Co28 Co 0.50705 0.8186 0.86797 0.0
O29 O 0.51216 0.85012 0.82567 0.0
O30 O 0.45944 0.81599 0.84158 0.0
C31 C 0.53518 0.85709 0.91006 0.0
O32 O 0.49219 0.78431 0.91151 0.0
Co33 Co 0.58279 0.79131 0.89859 0.0
O34 O 0.5478 0.76873 0.93606 0.0
C35 C 0.55567 0.76626 0.82686 0.0
C36 C 0.47737 0.83789 0.81799 0.0
C37 C 0.51142 0.76889 0.93686 0.0
O38 O 0.5225 0.77577 0.83645 0.0
O39 O 0.58557 0.77306 0.84647 0.0
O40 O 0.50005 0.86121 0.9 0.0
O41 O 0.55379 0.83465 0.88949 0.0
Co42 Co 0.48272 0.28499 0.14619 0.0
O43 O 0.44814 0.28435 0.18695 0.0
O44 O 0.48798 0.33279 0.17192 0.0
C45 C 0.44339 0.25975 0.10309 0.0
O46 O 0.52136 0.294 0.10481 0.0
Co47 Co 0.50459 0.20795 0.11511 0.0
O48 O 0.52493 0.2391 0.07392 0.0
C49 C 0.52999 0.23326 0.18817 0.0
C50 C 0.4627 0.31779 0.19457 0.0
C51 C 0.53153 0.27452 0.07667 0.0
O52 O 0.52243 0.26636 0.17926 0.0
O53 O 0.52174 0.20461 0.16751 0.0
O54 O 0.44249 0.29516 0.11148 0.0
O55 O 0.46308 0.2404 0.12503 0.0
Co56 Co -0.00379 0.78993 0.11892 0.0
O57 O 0.008 0.82445 0.07997 0.0
O58 O 0.95044 0.79712 0.09065 0.0
C59 C 0.02644 0.81946 0.16668 0.0
O60 O 0.9732 0.7547 0.15794 0.0
Co61 Co 0.06107 0.74628 0.15053 0.0
O62 O 0.0215 0.72883 0.18688 0.0
C63 C 0.04191 0.73807 0.07379 0.0
C64 C 0.97241 0.81864 0.06991 0.0
C65 C 0.98667 0.73703 0.18518 0.0
O66 O 0.0088 0.74823 0.08376 0.0
O67 O 0.06963 0.73785 0.09651 0.0
O68 O 0.99361 0.83025 0.15558 0.0
O69 O 0.0425 0.79636 0.14448 0.0
Co70 Co 0.51145 0.7823 0.39125 0.0
O71 O 0.47456 0.77233 0.43064 0.0
O72 O 0.50565 0.8271 0.42011 0.0
C73 C 0.48046 0.75532 0.34188 0.0
O74 O 0.54925 0.804 0.35293 0.0
Co75 Co 0.55189 0.71608 0.35724 0.0
O76 O 0.56704 0.75403 0.32026 0.0
C77 C 0.57049 0.73882 0.43244 0.0
C78 C 0.48192 0.80714 0.44056 0.0
C79 C 0.56498 0.78928 0.3246 0.0
O80 O 0.55322 0.76875 0.42637 0.0
O81 O 0.57109 0.71204 0.4088 0.0
O82 O 0.47163 0.78773 0.35489 0.0
O83 O 0.50207 0.73719 0.36346 0.0
Co84 Co 0.49719 0.29167 0.62119 0.0
O85 O 0.50789 0.32612 0.58217 0.0
O86 O 0.45096 0.29751 0.59297 0.0
C87 C 0.52762 0.32261 0.66814 0.0
O88 O 0.47571 0.25596 0.66071 0.0
Co89 Co 0.56464 0.25111 0.65272 0.0
O90 O 0.52586 0.23226 0.68904 0.0
C91 C 0.54434 0.24086 0.57635 0.0
C92 C 0.47255 0.31914 0.57194 0.0
C93 C 0.49035 0.23772 0.68695 0.0
O94 O 0.51085 0.25023 0.5861 0.0
O95 O 0.57236 0.24273 0.5988 0.0
O96 O 0.494 0.33213 0.65788 0.0
O97 O 0.54365 0.29977 0.6458 0.0
Co98 Co 0.01251 0.28584 0.89265 0.0
O99 O 0.97619 0.27863 0.93273 0.0
O100 O 0.01122 0.33116 0.92146 0.0
C101 C 0.977 0.26225 0.84458 0.0
O102 O 0.0503 0.3041 0.85241 0.0
Co103 Co 0.04627 0.2172 0.85791 0.0
O104 O 0.05736 0.25251 0.8177 0.0
C105 C 0.06987 0.23841 0.93222 0.0
C106 C 0.98591 0.31315 0.94193 0.0
C107 C 0.05828 0.288 0.82155 0.0
O108 O 0.05403 0.26925 0.92681 0.0
O109 O 0.06818 0.21182 0.90828 0.0
O110 O 0.97213 0.29514 0.85859 0.0
O111 O -0.00216 0.24156 0.8648 0.0
Co112 Co 0.36509 0.01113 0.22209 0.0
O113 O 0.40748 0.01603 0.18901 0.0
O114 O 0.39107 0.9647 0.22031 0.0
C115 C 0.32065 0.03824 0.18909 0.0
O116 O 0.32276 -0.00223 0.25819 0.0
Co117 Co 0.33707 0.08432 0.25647 0.0
O118 O 0.29414 0.05022 0.27461 0.0
C119 C 0.41288 0.06012 0.27383 0.0
C120 C 0.41613 0.98324 0.19981 0.0
C121 C 0.29549 0.01469 0.27387 0.0
O122 O 0.40081 0.02748 0.26278 0.0
O123 O 0.39296 0.08865 0.27056 0.0
O124 O 0.32723 0.00336 0.18246 0.0
O125 O 0.34461 0.05628 0.21096 0.0
Co126 Co 0.25648 0.14942 0.52248 0.0
O127 O 0.25513 0.10988 0.55829 0.0
O128 O 0.30447 0.12717 0.5224 0.0
C129 C 0.2303 0.19606 0.5537 0.0
O130 O 0.26984 0.1886 0.48411 0.0
Co131 Co 0.18302 0.17546 0.48794 0.0
O132 O 0.21752 0.22069 0.47743 0.0
C133 C 0.20625 0.10027 0.47016 0.0
C134 C 0.28905 0.10348 0.54564 0.0
C135 C 0.25377 0.21862 0.47585 0.0
O136 O 0.23854 0.11027 0.48487 0.0
O137 O 0.17829 0.12166 0.46978 0.0
O138 O 0.2657 0.18857 0.55946 0.0
O139 O 0.21017 0.1709 0.53456 0.0
Co140 Co 0.12693 0.04903 0.72697 0.0
O141 O 0.16956 0.0504 0.69307 0.0
O142 O 0.14854 0.00106 0.72521 0.0
C143 C 0.08369 0.07686 0.6947 0.0
O144 O 0.08307 0.03742 0.76327 0.0
Co145 Co 0.09937 0.12388 0.75939 0.0
O146 O 0.05473 0.0911 0.77536 0.0
C147 C 0.17333 0.09721 0.78126 0.0
C148 C 0.17385 0.01611 0.70264 0.0
C149 C 0.05512 0.05551 0.77637 0.0
O150 O 0.16376 0.06505 0.76701 0.0
O151 O 0.15314 0.12556 0.77826 0.0
O152 O 0.08966 0.04187 0.68786 0.0
O153 O 0.10878 0.09504 0.7152 0.0
Co154 Co 0.24018 0.90694 0.01622 0.0
O155 O 0.22696 0.86748 0.05024 0.0
O156 O 0.28531 0.88131 0.02869 0.0
C157 C 0.20746 0.95275 0.04084 0.0
O158 O 0.26513 0.94746 0.98288 0.0
Co159 Co 0.17937 0.93571 0.96502 0.0
O160 O 0.21868 0.97666 0.9547 0.0
C161 C 0.19412 0.85753 0.9675 0.0
C162 C 0.26262 0.85932 0.04833 0.0
C163 C 0.25323 0.97555 0.96522 0.0
O164 O 0.22851 0.86951 0.97559 0.0
O165 O 0.16782 0.88023 0.96378 0.0
O166 O 0.24027 0.94519 0.05497 0.0
O167 O 0.19357 0.92904 0.01642 0.0
Co168 Co 0.2712 0.41713 0.00335 0.0
O169 O 0.31518 0.38678 0.00246 0.0
O170 O 0.27138 0.38799 0.95863 0.0
C171 C 0.29651 0.47332 0.02371 0.0
O172 O 0.22346 0.44482 0.99423 0.0
Co173 Co 0.24001 0.44309 0.07872 0.0
O174 O 0.21043 0.47508 0.04708 0.0
C175 C 0.22698 0.36487 0.05675 0.0
C176 C 0.3008 0.37247 0.97204 0.0
C177 C 0.20552 0.46913 0.01277 0.0
O178 O 0.24073 0.37354 0.02528 0.0
O179 O 0.22584 0.38812 0.08367 0.0
O180 O 0.30113 0.46283 0.98963 0.0
O181 O 0.28381 0.44676 0.04528 0.0
Co182 Co 0.74531 0.16404 0.9886 0.0
O183 O 0.78948 0.13561 0.98585 0.0
O184 O 0.74583 0.13761 0.94175 0.0
C185 C 0.77396 0.21693 0.01272 0.0
O186 O 0.69709 0.19206 0.98309 0.0
Co187 Co 0.71494 0.18506 0.06483 0.0
O188 O 0.68924 0.2235 0.03622 0.0
C189 C 0.7073 0.10687 0.0401 0.0
C190 C 0.77628 0.12313 0.95447 0.0
C191 C 0.68278 0.21859 0.00199 0.0
O192 O 0.71564 0.1187 0.008 0.0
O193 O 0.70742 0.12855 0.06842 0.0
O194 O 0.7754 0.21072 0.97747 0.0
O195 O 0.75941 0.18932 0.03204 0.0
Co196 Co 0.12963 0.53839 0.26723 0.0
O197 O 0.16512 0.50129 0.25872 0.0
O198 O 0.16194 0.53492 0.31016 0.0
C199 C 0.07809 0.50564 0.24538 0.0
O200 O 0.09439 0.57835 0.28387 0.0
Co201 Co 0.09448 0.57217 0.1987 0.0
O202 O 0.0575 0.59058 0.23544 0.0
C203 C 0.17605 0.58635 0.21474 0.0
C204 C 0.17909 0.50987 0.29081 0.0
C205 C 0.06499 0.59268 0.26969 0.0
O206 O 0.16828 0.57636 0.24757 0.0
O207 O 0.1509 0.58408 0.1892 0.0
O208 O 0.08872 0.50067 0.27899 0.0
O209 O 0.10126 0.52634 0.22532 0.0
Co210 Co 0.7762 0.91044 0.50754 0.0
O211 O 0.81536 0.87673 0.52042 0.0
O212 O 0.78493 0.87682 0.4671 0.0
C213 C 0.80379 0.96646 0.52691 0.0
O214 O 0.73603 0.94071 0.48391 0.0
Co215 Co 0.73264 0.95056 0.56975 0.0
O216 O 0.7153 0.97953 0.52812 0.0
C217 C 0.71513 0.87047 0.55611 0.0
C218 C 0.80954 0.86177 0.48798 0.0
C219 C 0.71794 0.969 0.49476 0.0
O220 O 0.73586 0.87269 0.52695 0.0
O221 O 0.71254 0.89804 0.57854 0.0
O222 O 0.81414 0.95119 0.49609 0.0
O223 O 0.7825 0.94448 0.54763 0.0
Co224 Co 0.86958 0.00706 0.27265 0.0
O225 O 0.90929 0.97361 0.26362 0.0
O226 O 0.89716 0.00221 0.31702 0.0
C227 C 0.82075 0.97458 0.2446 0.0
O228 O 0.82973 0.04104 0.29256 0.0
Co229 Co 0.83759 0.04799 0.20744 0.0
O230 O 0.79621 0.05725 0.24354 0.0
C231 C 0.91828 0.0582 0.22648 0.0
C232 C 0.9185 0.98093 0.29761 0.0
C233 C 0.79932 0.05251 0.27794 0.0
O234 O 0.90745 0.04991 0.25913 0.0
O235 O 0.89471 0.0562 0.19966 0.0
O236 O 0.83128 0.96569 0.27738 0.0
O237 O 0.84385 -0.00134 0.22796 0.0
Co238 Co 0.24764 0.66437 0.4992 0.0
O239 O 0.28911 0.63508 0.51023 0.0
O240 O 0.26214 0.63711 0.45526 0.0
C241 C 0.26935 0.71663 0.52941 0.0
O242 O 0.20418 0.69433 0.48124 0.0
Co243 Co 0.19899 0.68241 0.56741 0.0
O244 O 0.18049 0.72023 0.53296 0.0
C245 C 0.20544 0.6057 0.54186 0.0
C246 C 0.2866 0.62232 0.47691 0.0
C247 C 0.18395 0.71828 0.49807 0.0
O248 O 0.21165 0.62024 0.51047 0.0
O249 O 0.20196 0.62607 0.57076 0.0
O250 O 0.28168 0.71022 0.49628 0.0
O251 O 0.24899 0.68907 0.54372 0.0
Co252 Co 0.37055 0.50533 0.7735 0.0
O253 O 0.40809 0.46911 0.7742 0.0
O254 O 0.39443 0.50757 0.82069 0.0
C255 C 0.32357 0.47019 0.74698 0.0
O256 O 0.33148 0.54424 0.7819 0.0
Co257 Co 0.34556 0.53345 0.69839 0.0
O258 O 0.30093 0.54869 0.72816 0.0
C259 C 0.4239 0.55048 0.72426 0.0
C260 C 0.41574 0.48225 0.80689 0.0
C261 C 0.30221 0.55262 0.76306 0.0
O262 O 0.4116 0.54342 0.75666 0.0
O263 O 0.40282 0.54521 0.69576 0.0
O264 O 0.32934 0.46748 0.78207 0.0
O265 O 0.34949 0.48965 0.72879 0.0
Co266 Co 0.63503 0.03775 0.77098 0.0
O267 O 0.67571 0.00728 0.75595 0.0
O268 O 0.66347 0.02479 0.81345 0.0
C269 C 0.5854 0.01176 0.73816 0.0
O270 O 0.59577 0.06771 0.79656 0.0
Co271 Co 0.60303 0.09194 0.71637 0.0
O272 O 0.57048 0.10766 0.75799 0.0
C273 C 0.68346 0.09294 0.73341 0.0
C274 C 0.68598 0.00894 0.79032 0.0
C275 C 0.57122 0.09151 0.78881 0.0
O276 O 0.67165 0.0824 0.76497 0.0
O277 O 0.65983 0.09621 0.70718 0.0
O278 O 0.59628 0.99585 0.76795 0.0
O279 O 0.60866 0.03869 0.72623 0.0
Co280 Co 0.74807 0.64969 0.01346 0.0
O281 O 0.74525 0.60933 0.0478 0.0
O282 O 0.79454 0.62411 0.01091 0.0
C283 C 0.72649 0.69654 0.04748 0.0
O284 O 0.76029 0.69099 0.97664 0.0
Co285 Co 0.67063 0.67421 0.98648 0.0
O286 O 0.70432 0.71769 0.96943 0.0
C287 C 0.69293 0.59854 0.9743 0.0
C288 C 0.77848 0.60147 0.03493 0.0
C289 C 0.74086 0.71863 0.96696 0.0
O290 O 0.72686 0.61382 0.97452 0.0
O291 O 0.66412 0.61756 0.98189 0.0
O292 O 0.76128 0.68651 0.05163 0.0
O293 O 0.70405 0.67255 0.02923 0.0
Co294 Co 0.86543 0.50994 0.72116 0.0
O295 O 0.90044 0.50818 0.68099 0.0
O296 O 0.89059 0.46316 0.72195 0.0
C297 C 0.81546 0.53268 0.6914 0.0
O298 O 0.83071 0.50199 0.7651 0.0
Co299 Co 0.84086 0.58575 0.75125 0.0
O300 O 0.80161 0.55459 0.77881 0.0
C301 C 0.92007 0.56564 0.76041 0.0
C302 C 0.91008 0.47654 0.69408 0.0
C303 C 0.80439 0.51944 0.78164 0.0
O304 O 0.90844 0.53189 0.75242 0.0
O305 O 0.89799 0.59271 0.75871 0.0
O306 O 0.82099 0.49708 0.68931 0.0
O307 O 0.84235 0.55339 0.70752 0.0
Co308 Co 0.74253 0.40539 0.52412 0.0
O309 O 0.73325 0.36362 0.5564 0.0
O310 O 0.7903 0.38357 0.53493 0.0
C311 C 0.70624 0.44789 0.55037 0.0
O312 O 0.76353 0.44848 0.49194 0.0
Co313 Co 0.67813 0.43062 0.47488 0.0
O314 O 0.71577 0.47049 0.45876 0.0
C315 C 0.69992 0.35472 0.47351 0.0
C316 C 0.76965 0.35858 0.55307 0.0
C317 C 0.75015 0.47244 0.47009 0.0
O318 O 0.73351 0.36862 0.4822 0.0
O319 O 0.67158 0.37522 0.47188 0.0
O320 O 0.73975 0.44221 0.56414 0.0
O321 O 0.69388 0.42378 0.52567 0.0
Co322 Co 0.62337 0.548 0.22387 0.0
O323 O 0.66547 0.54931 0.18947 0.0
O324 O 0.64221 0.49894 0.21905 0.0
C325 C 0.5815 0.57987 0.19389 0.0
O326 O 0.57966 0.53641 0.26029 0.0
Co327 Co 0.60219 0.62261 0.26121 0.0
O328 O 0.55661 0.59122 0.27805 0.0
C329 C 0.67631 0.59207 0.27363 0.0
C330 C 0.66791 0.51418 0.19701 0.0
C331 C 0.5542 0.55547 0.27651 0.0
O332 O 0.66137 0.55998 0.26383 0.0
O333 O 0.65874 0.62221 0.27148 0.0
O334 O 0.58554 0.54488 0.18527 0.0
O335 O 0.60756 0.59582 0.21495 0.0
O336 O 0.15828 0.19626 0.10234 0.0
Mn337 Mn 0.12803 0.15455 0.13204 0.0
O338 O 0.20659 0.22068 0.13745 0.0
Mn339 Mn 0.19172 0.19465 0.17896 0.0
O340 O 0.09321 0.11423 0.16278 0.0
O341 O 0.08553 0.16018 0.09595 0.0
Mn342 Mn 0.05985 0.11741 0.08709 0.0
O343 O 0.14879 0.11321 0.09919 0.0
O344 O 0.03737 0.10813 0.13145 0.0
O345 O 0.10521 0.19403 0.16794 0.0
O346 O 0.15323 0.21324 0.20621 0.0
O347 O 0.04398 0.15037 0.05274 0.0
O348 O 0.09631 0.08414 0.073 0.0
C349 C 0.20471 0.13764 0.18115 0.0
C350 C 0.18779 0.21886 0.10762 0.0
C351 C 0.05692 0.10384 0.16026 0.0
C352 C 0.07121 0.17263 0.0662 0.0
C353 C 0.13228 0.08689 0.07964 0.0
C354 C 0.11794 0.21011 0.19772 0.0
O355 O 0.17462 0.14909 0.16482 0.0
O356 O 0.22459 0.16345 0.1994 0.0
O357 O 0.07671 0.8635 0.34014 0.0
Mn358 Mn 0.11205 0.89218 0.38104 0.0
O359 O 0.11188 0.81832 0.31669 0.0
Mn360 Mn 0.15823 0.83621 0.33472 0.0
O361 O 0.14999 0.92525 0.41556 0.0
O362 O 0.07271 0.93151 0.38499 0.0
Mn363 Mn 0.069 0.94344 0.43205 0.0
O364 O 0.08693 0.86282 0.42595 0.0
O365 O 0.11469 0.96553 0.44666 0.0
O366 O 0.14212 0.92092 0.33894 0.0
O367 O 0.17924 0.8781 0.31307 0.0
O368 O 0.03554 0.97249 0.41092 0.0
O369 O 0.05135 0.90237 0.45731 0.0
C370 C 0.16859 0.82514 0.3906 0.0
C371 C 0.08189 0.83652 0.31675 0.0
C372 C 0.14666 0.95491 0.4357 0.0
C373 C 0.04636 0.9552 0.38148 0.0
C374 C 0.06578 0.87101 0.45362 0.0
C375 C 0.1703 0.91171 0.31835 0.0
O376 O 0.14926 0.852 0.37905 0.0
O377 O 0.18505 0.80665 0.36486 0.0
O378 O 0.42294 0.94169 0.66059 0.0
Mn379 Mn 0.37921 0.91282 0.62896 0.0
O380 O 0.45362 0.98475 0.62585 0.0
Mn381 Mn 0.43185 0.96379 0.5843 0.0
O382 O 0.33689 0.87841 0.60021 0.0
O383 O 0.37793 0.87513 0.66993 0.0
Mn384 Mn 0.3302 0.86966 0.68504 0.0
O385 O 0.33592 0.94363 0.65409 0.0
O386 O 0.30181 0.85198 0.64587 0.0
O387 O 0.4179 0.88114 0.59785 0.0
O388 O 0.45373 0.923 0.56525 0.0
O389 O 0.35516 0.83791 0.71337 0.0
O390 O 0.31681 0.91418 0.70482 0.0
C391 C 0.3793 0.98021 0.56583 0.0
C392 C 0.44819 0.96903 0.65641 0.0
C393 C 0.3106 0.85431 0.61215 0.0
C394 C 0.38492 0.8525 0.69624 0.0
C395 C 0.31494 0.94119 0.68315 0.0
C396 C 0.44136 0.88964 0.5713 0.0
O397 O 0.38155 0.95386 0.59008 0.0
O398 O 0.41133 0.99426 0.55224 0.0
O399 O 0.40431 0.20185 0.93363 0.0
Mn400 Mn 0.3794 0.16998 0.88917 0.0
O401 O 0.45197 0.17073 0.95436 0.0
Mn402 Mn 0.42715 0.12771 0.93736 0.0
O403 O 0.34798 0.13876 0.84879 0.0
O404 O 0.34207 0.21157 0.88718 0.0
Mn405 Mn 0.33731 0.22237 0.84018 0.0
O406 O 0.41451 0.19674 0.84893 0.0
O407 O 0.3184 0.18054 0.81533 0.0
O408 O 0.34342 0.13781 0.92539 0.0
O409 O 0.38401 0.10892 0.96053 0.0
O410 O 0.30562 0.25302 0.8637 0.0
O411 O 0.38329 0.24219 0.82324 0.0
C412 C 0.44647 0.10543 0.88976 0.0
C413 C 0.4321 0.19874 0.95604 0.0
C414 C 0.32253 0.14727 0.82541 0.0
C415 C 0.32012 0.23924 0.89284 0.0
C416 C 0.41254 0.22346 0.82592 0.0
C417 C 0.35036 0.11323 0.94962 0.0
O418 O 0.42046 0.13049 0.88942 0.0
O419 O 0.45692 0.09306 0.92123 0.0
O420 O 0.58241 0.36725 0.84042 0.0
Mn421 Mn 0.6143 0.39363 0.88494 0.0
O422 O 0.62062 0.32552 0.81538 0.0
Mn423 Mn 0.66457 0.34089 0.8397 0.0
O424 O 0.64837 0.42426 0.92519 0.0
O425 O 0.57377 0.43241 0.88781 0.0
Mn426 Mn 0.56535 0.4378 0.93556 0.0
O427 O 0.5858 0.36027 0.92453 0.0
O428 O 0.60802 0.45774 0.95809 0.0
O429 O 0.64857 0.42545 0.84703 0.0
O430 O 0.68846 0.38383 0.82353 0.0
O431 O 0.53457 0.47027 0.91651 0.0
O432 O 0.5445 0.39438 0.95495 0.0
C433 C 0.66706 0.32374 0.8948 0.0
C434 C 0.58954 0.34201 0.81585 0.0
C435 C 0.64158 0.44953 0.94974 0.0
C436 C 0.54735 0.45652 0.886 0.0
C437 C 0.56039 0.36403 0.94948 0.0
C438 C 0.67873 0.41719 0.82853 0.0
O439 O 0.65127 0.35322 0.88397 0.0
O440 O 0.68656 0.30757 0.8695 0.0
O441 O 0.91461 0.44715 0.16393 0.0
Mn442 Mn 0.87756 0.41716 0.12725 0.0
O443 O 0.9585 0.4762 0.12885 0.0
Mn444 Mn 0.92956 0.47346 0.08723 0.0
O445 O 0.84134 0.37966 0.09363 0.0
O446 O 0.87668 0.3789 0.16692 0.0
Mn447 Mn 0.83031 0.35977 0.17606 0.0
O448 O 0.83008 0.44159 0.15126 0.0
O449 O 0.81952 0.33482 0.13333 0.0
O450 O 0.92227 0.39225 0.09646 0.0
O451 O 0.94336 0.43686 0.05664 0.0
O452 O 0.86112 0.34302 0.21241 0.0
O453 O 0.79906 0.39814 0.18629 0.0
C454 C 0.87432 0.49438 0.08605 0.0
C455 C 0.94727 0.46447 0.15962 0.0
C456 C 0.8256 0.34649 0.10084 0.0
C457 C 0.88752 0.36467 0.19722 0.0
C458 C 0.80186 0.43034 0.17195 0.0
C459 C 0.93712 0.4026 0.06496 0.0
O460 O 0.87936 0.45883 0.08937 0.0
O461 O 0.90508 0.5153 0.07942 0.0
O462 O 0.90573 0.69824 0.43093 0.0
Mn463 Mn 0.87911 0.66888 0.38704 0.0
O464 O 0.93355 0.65463 0.4638 0.0
Mn465 Mn 0.92522 0.61504 0.43093 0.0
O466 O 0.84804 0.63841 0.34496 0.0
O467 O 0.8403 0.70809 0.38938 0.0
Mn468 Mn 0.82328 0.71816 0.34579 0.0
O469 O 0.91006 0.70048 0.34737 0.0
O470 O 0.79861 0.67402 0.33225 0.0
O471 O 0.84505 0.63387 0.42306 0.0
O472 O 0.88114 0.58662 0.43784 0.0
O473 O 0.80345 0.75256 0.37742 0.0
O474 O 0.86586 0.73165 0.31742 0.0
C475 C 0.95275 0.61468 0.37944 0.0
C476 C 0.92323 0.68776 0.45955 0.0
C477 C 0.81482 0.64327 0.33077 0.0
C478 C 0.82465 0.73768 0.40152 0.0
C479 C 0.89995 0.72157 0.32111 0.0
C480 C 0.84906 0.60068 0.43553 0.0
O481 O 0.92262 0.6333 0.38627 0.0
O482 O 0.96404 0.59472 0.40622 0.0
O483 O 0.83986 0.87578 0.91447 0.0
Mn484 Mn 0.87279 0.9172 0.88542 0.0
O485 O 0.79652 0.84874 0.87502 0.0
Mn486 Mn 0.81822 0.86941 0.83367 0.0
O487 O 0.90749 0.95694 0.85544 0.0
O488 O 0.91098 0.91768 0.92794 0.0
Mn489 Mn 0.92686 0.96512 0.9351 0.0
O490 O 0.84332 0.96045 0.91004 0.0
O491 O 0.95314 0.9806 0.89417 0.0
O492 O 0.90279 0.87679 0.85656 0.0
O493 O 0.86084 0.8485 0.81619 0.0
O494 O 0.95199 0.94087 0.96982 0.0
O495 O 0.88582 0.99285 0.94649 0.0
C496 C 0.80765 0.92561 0.82226 0.0
C497 C 0.811 0.85273 0.90686 0.0
C498 C 0.93901 0.97658 0.86227 0.0
C499 C 0.93368 0.91163 0.9553 0.0
C500 C 0.85309 0.98847 0.93131 0.0
C501 C 0.89452 0.8552 0.82856 0.0
O502 O 0.83316 0.916 0.84527 0.0
O503 O 0.79014 0.89808 0.80427 0.0
O504 O 0.91767 0.20499 0.67497 0.0
Mn505 Mn 0.88425 0.17498 0.63308 0.0
O506 O 0.8799 0.24438 0.70385 0.0
Mn507 Mn 0.83603 0.22191 0.68435 0.0
O508 O 0.85214 0.13909 0.59368 0.0
O509 O 0.92744 0.1405 0.62992 0.0
Mn510 Mn 0.93922 0.13359 0.58362 0.0
O511 O 0.90713 0.20841 0.58914 0.0
O512 O 0.8975 0.1096 0.56223 0.0
O513 O 0.85696 0.14134 0.67389 0.0
O514 O 0.81997 0.17869 0.70697 0.0
O515 O 0.97263 0.10642 0.60787 0.0
O516 O 0.95505 0.17839 0.56367 0.0
C517 C 0.81795 0.23756 0.63217 0.0
C518 C 0.91198 0.23024 0.69997 0.0
C519 C 0.86257 0.11434 0.56943 0.0
C520 C 0.95528 0.11944 0.63642 0.0
C521 C 0.93374 0.20566 0.56477 0.0
C522 C 0.83198 0.14679 0.69933 0.0
O523 O 0.84281 0.21247 0.63694 0.0
O524 O 0.80229 0.25026 0.66176 0.0
O525 O 0.64547 0.1852 0.41541 0.0
Mn526 Mn 0.6157 0.14487 0.3825 0.0
O527 O 0.69402 0.21253 0.38265 0.0
Mn528 Mn 0.67908 0.1909 0.33852 0.0
O529 O 0.58332 0.10626 0.34815 0.0
O530 O 0.57202 0.14449 0.41966 0.0
Mn531 Mn 0.55367 0.0979 0.42604 0.0
O532 O 0.63989 0.10224 0.41016 0.0
O533 O 0.53398 0.08192 0.38226 0.0
O534 O 0.59194 0.18632 0.35116 0.0
O535 O 0.63953 0.21135 0.31498 0.0
O536 O 0.52609 0.12605 0.45744 0.0
O537 O 0.59324 0.07094 0.44215 0.0
C538 C 0.69021 0.13373 0.33105 0.0
C539 C 0.67502 0.20834 0.41223 0.0
C540 C 0.55124 0.0865 0.35187 0.0
C541 C 0.5487 0.15344 0.44575 0.0
C542 C 0.62778 0.07564 0.43116 0.0
C543 C 0.60445 0.20691 0.32428 0.0
O544 O 0.66091 0.14518 0.34841 0.0
O545 O 0.71135 0.15987 0.31525 0.0
O546 O 0.58765 0.87414 0.0798 0.0
Mn547 Mn 0.62125 0.89984 0.12233 0.0
O548 O 0.53421 0.90249 0.081 0.0
Mn549 Mn 0.56285 0.9458 0.09087 0.0
O550 O 0.65852 0.92577 0.16052 0.0
O551 O 0.66011 0.8581 0.10776 0.0
Mn552 Mn 0.65576 0.84351 0.15449 0.0
O553 O 0.59157 0.87077 0.16573 0.0
O554 O 0.67322 0.87633 0.19141 0.0
O555 O 0.64889 0.93646 0.084 0.0
O556 O 0.59936 0.96125 0.05717 0.0
O557 O 0.69276 0.81651 0.14088 0.0
O558 O 0.61109 0.81538 0.16085 0.0
C559 C 0.55702 0.96299 0.14389 0.0
C560 C 0.55453 0.87875 0.06637 0.0
C561 C 0.67638 0.91129 0.18664 0.0
C562 C 0.68483 0.83135 0.1098 0.0
C563 C 0.5898 0.83706 0.17676 0.0
C564 C 0.63516 0.95949 0.06137 0.0
O565 O 0.58206 0.93874 0.13466 0.0
O566 O 0.54148 0.98096 0.11773 0.0
O567 O 0.42263 0.69916 0.17216 0.0
Mn568 Mn 0.38508 0.6757 0.12954 0.0
O569 O 0.39365 0.74551 0.19905 0.0
Mn570 Mn 0.34843 0.72549 0.18094 0.0
O571 O 0.34785 0.64596 0.09023 0.0
O572 O 0.42229 0.63556 0.12592 0.0
Mn573 Mn 0.42715 0.61916 0.08074 0.0
O574 O 0.41644 0.7052 0.08794 0.0
O575 O 0.38053 0.59704 0.07024 0.0
O576 O 0.3522 0.6442 0.16723 0.0
O577 O 0.32596 0.6851 0.20482 0.0
O578 O 0.46149 0.59434 0.10733 0.0
O579 O 0.44279 0.66024 0.05349 0.0
C580 C 0.32397 0.74634 0.13551 0.0
C581 C 0.42245 0.72645 0.19581 0.0
C582 C 0.34966 0.61329 0.07421 0.0
C583 C 0.44931 0.61446 0.13428 0.0
C584 C 0.43626 0.69432 0.06013 0.0
C585 C 0.32872 0.65203 0.19284 0.0
O586 O 0.34753 0.71902 0.13197 0.0
O587 O 0.31627 0.75894 0.16812 0.0
O588 O 0.13767 0.6839 0.92154 0.0
Mn589 Mn 0.11431 0.64245 0.88492 0.0
O590 O 0.1922 0.70839 0.89789 0.0
Mn591 Mn 0.17927 0.68948 0.85252 0.0
O592 O 0.0864 0.60368 0.84778 0.0
O593 O 0.06675 0.6429 0.91625 0.0
Mn594 Mn 0.04424 0.59789 0.92115 0.0
O595 O 0.13353 0.60006 0.91755 0.0
O596 O 0.03018 0.58445 0.87449 0.0
O597 O 0.09356 0.68258 0.85056 0.0
O598 O 0.14455 0.71366 0.82534 0.0
O599 O 0.01716 0.62948 0.95039 0.0
O600 O 0.08073 0.57025 0.94231 0.0
C601 C 0.19534 0.6382 0.83426 0.0
C602 C 0.16801 0.706 0.92365 0.0
C603 C 0.05212 0.58774 0.8467 0.0
C604 C 0.04355 0.65451 0.94095 0.0
C605 C 0.11691 0.57481 0.93802 0.0
C606 C 0.10874 0.70591 0.82747 0.0
O607 O 0.16412 0.64098 0.85402 0.0
O608 O 0.21609 0.66858 0.82708 0.0
O609 O 0.0869 0.37908 0.58037 0.0
Mn610 Mn 0.12208 0.40267 0.62262 0.0
O611 O 0.04845 0.42405 0.56574 0.0
Mn612 Mn 0.07845 0.46201 0.58668 0.0
O613 O 0.1597 0.42823 0.66113 0.0
O614 O 0.15714 0.35676 0.61361 0.0
Mn615 Mn 0.15659 0.34588 0.66152 0.0
O616 O 0.08768 0.3777 0.66459 0.0
O617 O 0.1793 0.38089 0.69303 0.0
O618 O 0.15713 0.43272 0.58395 0.0
O619 O 0.12069 0.47533 0.56037 0.0
O620 O 0.18904 0.31422 0.64586 0.0
O621 O 0.11117 0.32364 0.67583 0.0
C622 C 0.06054 0.47037 0.63809 0.0
C623 C 0.05966 0.39135 0.56118 0.0
C624 C 0.17978 0.41541 0.68667 0.0
C625 C 0.17979 0.32822 0.61475 0.0
C626 C 0.08573 0.34628 0.68092 0.0
C627 C 0.15223 0.46049 0.56274 0.0
O628 O 0.08586 0.44555 0.63057 0.0
O629 O 0.05898 0.49769 0.61523 0.0
O630 O 0.65962 0.69659 0.60254 0.0
Mn631 Mn 0.62941 0.65454 0.6315 0.0
O632 O 0.6979 0.72585 0.64538 0.0
Mn633 Mn 0.68945 0.69299 0.68375 0.0
O634 O 0.59566 0.61513 0.66307 0.0
O635 O 0.58704 0.65934 0.59523 0.0
Mn636 Mn 0.56012 0.61677 0.5888 0.0
O637 O 0.64968 0.61225 0.59955 0.0
O638 O 0.53855 0.6105 0.6342 0.0
O639 O 0.60624 0.69489 0.66604 0.0
O640 O 0.64823 0.70242 0.71256 0.0
O641 O 0.54366 0.6491 0.55387 0.0
O642 O 0.59598 0.58223 0.57633 0.0
C643 C 0.70533 0.63672 0.67998 0.0
C644 C 0.6821 0.7242 0.61379 0.0
C645 C 0.55904 0.60703 0.66254 0.0
C646 C 0.57085 0.67186 0.56655 0.0
C647 C 0.63211 0.58475 0.58236 0.0
C648 C 0.61493 0.70451 0.69927 0.0
O649 O 0.67573 0.64913 0.66394 0.0
O650 O 0.72519 0.66151 0.69944 0.0
O651 O 0.34553 0.37985 0.42588 0.0
Mn652 Mn 0.37348 0.41934 0.3916 0.0
O653 O 0.32548 0.33724 0.38507 0.0
Mn654 Mn 0.31824 0.37202 0.34976 0.0
O655 O 0.40498 0.45971 0.35875 0.0
O656 O 0.41946 0.41603 0.4253 0.0
Mn657 Mn 0.43835 0.4629 0.43148 0.0
O658 O 0.35029 0.46098 0.42423 0.0
O659 O 0.46192 0.46984 0.38731 0.0
O660 O 0.39696 0.3795 0.35476 0.0
O661 O 0.35124 0.36751 0.31216 0.0
O662 O 0.45169 0.43902 0.4725 0.0
O663 O 0.40192 0.49641 0.44192 0.0
C664 C 0.29022 0.42273 0.35628 0.0
C665 C 0.33311 0.34662 0.41765 0.0
C666 C 0.44091 0.47138 0.35901 0.0
C667 C 0.42985 0.41154 0.45911 0.0
C668 C 0.36591 0.49017 0.44038 0.0
C669 C 0.38627 0.37017 0.32154 0.0
O670 O 0.32747 0.42204 0.3569 0.0
O671 O 0.27175 0.39034 0.35388 0.0
C672 C 0.04449 0.25172 0.26044 0.0
C673 C 0.0556 0.23799 0.29467 0.0
C674 C 0.06263 0.24094 0.22767 0.0
C675 C 0.09186 0.21589 0.22866 0.0
H676 H 0.02377 0.27283 0.2593 0.0
H677 H 0.05562 0.25398 0.20214 0.0
S678 S 0.12598 0.16656 0.30995 0.0
N679 N 0.0937 0.19406 0.32636 0.0
N680 N 0.12699 0.1735 0.26532 0.0
C681 C 0.1002 0.19923 0.26213 0.0
C682 C 0.08223 0.2103 0.29507 0.0
C683 C 0.06099 0.78588 0.515 0.0
C684 C 0.05686 0.8021 0.55032 0.0
C685 C 0.06401 0.80808 0.48358 0.0
C686 C 0.06378 0.84713 0.48642 0.0
H687 H 0.05917 0.75573 0.51117 0.0
H688 H 0.0645 0.79462 0.45689 0.0
S689 S 0.06088 0.90388 0.57294 0.0
N690 N 0.05774 0.86002 0.58641 0.0
N691 N 0.06423 0.90154 0.52782 0.0
C692 C 0.06271 0.86381 0.52181 0.0
C693 C 0.0594 0.84135 0.55364 0.0
C694 C 0.45449 0.87875 0.76882 0.0
C695 C 0.46164 0.84299 0.78131 0.0
C696 C 0.4343 0.88276 0.73601 0.0
C697 C 0.42181 0.85121 0.71461 0.0
H698 H 0.46177 0.90332 0.7858 0.0
H699 H 0.42474 0.91012 0.72965 0.0
S700 S 0.44205 0.75275 0.7315 0.0
N701 N 0.46066 0.77636 0.76723 0.0
N702 N 0.42383 0.78416 0.70504 0.0
C703 C 0.43326 0.81603 0.7247 0.0
C704 C 0.45278 0.8118 0.75839 0.0
C705 C 0.43491 0.26919 0.03556 0.0
C706 C 0.43326 0.24524 0.06606 0.0
C707 C 0.43335 0.25457 -0.00057 0.0
C708 C 0.4299 0.21576 0.99305 0.0
H709 H 0.43977 0.29919 0.03953 0.0
H710 H 0.43687 0.27344 0.97665 0.0
S711 S 0.41946 0.14171 0.06361 0.0
N712 N 0.42456 0.18135 0.08739 0.0
N713 N 0.42099 0.15391 0.02014 0.0
C714 C 0.42585 0.19187 0.02347 0.0
C715 C 0.42765 0.20661 0.05984 0.0
C716 C 0.05854 0.79734 0.22271 0.0
C717 C 0.03831 0.82476 0.20572 0.0
C718 C 0.06619 0.79887 0.2603 0.0
C719 C 0.05879 0.83055 0.28228 0.0
H720 H 0.06934 0.77451 0.20698 0.0
H721 H 0.08141 0.77618 0.2714 0.0
S722 S 0.01222 0.91395 0.24885 0.0
N723 N 0.0113 0.88513 0.21299 0.0
N724 N 0.03303 0.89205 0.28223 0.0
C725 C 0.0398 0.85919 0.2652 0.0
C726 C 0.02852 0.8557 0.22727 0.0
C727 C 0.46822 0.808 0.50888 0.0
C728 C 0.46509 0.82394 0.47383 0.0
C729 C 0.4588 0.82802 0.54121 0.0
C730 C 0.44535 0.86411 0.53904 0.0
H731 H 0.47987 0.78088 0.51146 0.0
H732 H 0.46376 0.81605 0.56776 0.0
S733 S 0.42533 0.91462 0.45328 0.0
N734 N 0.44382 0.87568 0.43894 0.0
N735 N 0.42395 0.91214 0.49845 0.0
C736 C 0.43903 0.8785 0.50378 0.0
C737 C 0.44951 0.85878 0.47148 0.0
C738 C 0.46919 0.2632 0.74639 0.0
C739 C 0.46864 0.23282 0.72135 0.0
C740 C 0.45389 0.25927 0.78177 0.0
C741 C 0.43748 0.22468 0.79339 0.0
H742 H 0.48141 0.29038 0.73857 0.0
H743 H 0.45375 0.28373 0.79972 0.0
S744 S 0.4239 0.13781 0.73643 0.0
N745 N 0.44825 0.16769 0.70958 0.0
N746 N 0.41738 0.16053 0.77558 0.0
C747 C 0.43577 0.19422 0.76823 0.0
C748 C 0.45189 0.19819 0.73229 0.0
C749 C 0.10501 0.19809 0.97475 0.0
C750 C 0.08567 0.23094 0.96947 0.0
C751 C 0.1079 0.18265 0.00974 0.0
C752 C 0.0909 0.199 0.04062 0.0
H753 H 0.11467 0.18213 0.95135 0.0
H754 H 0.1185 0.15493 0.01165 0.0
S755 S 0.05158 0.29235 0.04455 0.0
N756 N 0.06053 0.2853 0.00044 0.0
N757 N 0.06416 0.2546 0.06571 0.0
C758 C 0.07767 0.23481 0.03687 0.0
C759 C 0.07542 0.2512 0.00133 0.0
C760 C 0.25037 0.04731 0.19441 0.0
C761 C 0.28579 0.05546 0.17672 0.0
C762 C 0.22048 0.07178 0.19196 0.0
C763 C 0.22474 0.10414 0.17053 0.0
H764 H 0.24696 0.02392 0.21285 0.0
H765 H 0.19551 0.06719 0.20941 0.0
S766 S 0.30993 0.1346 0.11502 0.0
N767 N 0.32208 0.09594 0.13484 0.0
N768 N 0.26547 0.14052 0.1283 0.0
C769 C 0.25847 0.10996 0.14962 0.0
C770 C 0.28917 0.08598 0.15321 0.0
C771 C 0.18063 0.05297 0.42343 0.0
C772 C 0.20047 0.06108 0.45627 0.0
C773 C 0.16971 0.01586 0.41315 0.0
C774 C 0.17665 0.98563 0.43613 0.0
H775 H 0.1718 0.07549 0.40651 0.0
H776 H 0.15138 0.01121 0.38933 0.0
S777 S 0.23152 0.99149 0.52277 0.0
N778 N 0.23079 0.03538 0.50949 0.0
N779 N 0.208 0.9659 0.49097 0.0
C780 C 0.19912 0.99304 0.46739 0.0
C781 C 0.21137 0.03076 0.47737 0.0
C782 C 0.24355 0.01757 0.68519 0.0
C783 C 0.2087 0.99684 0.69268 0.0
C784 C 0.27823 -0.00016 0.68149 0.0
C785 C 0.27897 0.96087 0.68509 0.0
H786 H 0.24436 0.04784 0.68379 0.0
H787 H 0.30461 0.01677 0.67715 0.0
S788 S 0.19461 0.89358 0.69891 0.0
N789 N 0.17669 0.93512 0.69974 0.0
N790 N 0.24108 0.90176 0.69226 0.0
C791 C 0.24387 0.93981 0.6905 0.0
C792 C 0.20893 0.95778 0.6944 0.0
C793 C 0.26857 0.0388 0.93725 0.0
C794 C 0.27862 0.01046 0.96135 0.0
C795 C 0.2898 0.07357 0.93564 0.0
C796 C 0.32168 0.08182 0.95852 0.0
H797 H 0.24427 0.03396 0.91903 0.0
H798 H 0.2821 0.0934 0.91519 0.0
S799 S 0.35787 0.0187 0.02921 0.0
N800 N 0.32163 0.994 0.00993 0.0
N801 N 0.36025 0.05937 0.00839 0.0
C802 C 0.33079 0.05431 0.9841 0.0
C803 C 0.30984 0.01866 0.98498 0.0
C804 C 0.26761 0.95272 0.29154 0.0
C805 C 0.26292 0.99106 0.28833 0.0
C806 C 0.23701 0.92797 0.29996 0.0
C807 C 0.19992 0.94014 0.30631 0.0
H808 H 0.29521 0.94127 0.28699 0.0
H809 H 0.24321 0.8988 0.30211 0.0
S810 S 0.17234 0.03823 0.30342 0.0
N811 N 0.21854 0.04086 0.29329 0.0
N812 N 0.16037 0.99343 0.31028 0.0
C813 C 0.19469 0.97859 0.30444 0.0
C814 C 0.2263 0.00424 0.29532 0.0
C815 C 0.30534 0.04882 0.58409 0.0
C816 C 0.30576 0.06704 0.55017 0.0
C817 C 0.32524 0.01619 0.58847 0.0
C818 C 0.345 0.00059 0.55883 0.0
H819 H 0.29193 0.06119 0.60781 0.0
H820 H 0.32833 0.0054 0.61574 0.0
S821 S 0.3464 0.03249 0.46256 0.0
N822 N 0.32203 0.06351 0.48518 0.0
N823 N 0.35796 0.00186 0.49336 0.0
C824 C 0.34143 0.01607 0.52399 0.0
C825 C 0.32237 0.04957 0.5197 0.0
C826 C 0.24256 0.08406 0.78606 0.0
C827 C 0.21077 0.10254 0.79961 0.0
C828 C 0.28007 0.09542 0.79728 0.0
C829 C 0.28623 0.12444 0.8233 0.0
H830 H 0.2388 0.06303 0.76439 0.0
H831 H 0.30415 0.0836 0.78358 0.0
S832 S 0.21247 0.17804 0.87054 0.0
N833 N 0.18795 0.14891 0.84244 0.0
N834 N 0.25766 0.16834 0.86532 0.0
C835 C 0.25428 0.14001 0.83987 0.0
C836 C 0.21666 0.12967 0.82748 0.0
C837 C 0.19953 0.00861 0.08148 0.0
C838 C 0.18945 0.98819 0.04924 0.0
C839 C 0.18228 0.04185 0.09041 0.0
C840 C 0.15493 0.05602 0.06707 0.0
H841 H 0.21998 -0.0017 0.10052 0.0
H842 H 0.18915 0.05562 0.11643 0.0
S843 S 0.12217 0.01643 0.97729 0.0
N844 N 0.15147 0.98621 0.9931 0.0
N845 N 0.12164 0.04992 0.00887 0.0
C846 C 0.14619 0.03716 0.03397 0.0
C847 C 0.16275 0.00286 0.02533 0.0
C848 C 0.17749 0.31487 0.07362 0.0
C849 C 0.21504 0.32535 0.0625 0.0
C850 C 0.1673 0.27785 0.08342 0.0
C851 C 0.19464 0.2507 0.08325 0.0
H852 H 0.1564 0.33565 0.07617 0.0
H853 H 0.13893 0.27135 0.09459 0.0
S854 S 0.29544 0.26338 0.05196 0.0
N855 N 0.27839 0.3051 0.04764 0.0
N856 N 0.25957 0.23579 0.06782 0.0
C857 C 0.23148 0.26029 0.0697 0.0
C858 C 0.24161 0.29769 0.05887 0.0
C859 C 0.64807 0.23709 0.94689 0.0
C860 C 0.6636 0.2473 0.98136 0.0
C861 C 0.64382 0.26393 0.9202 0.0
C862 C 0.65517 0.30181 0.92695 0.0
H863 H 0.64281 0.20783 0.93915 0.0
H864 H 0.63558 0.25435 0.89278 0.0
S865 S 0.68495 0.34462 0.01621 0.0
N866 N 0.68087 0.29909 0.02387 0.0
N867 N 0.67361 0.34961 0.97262 0.0
C868 C 0.66491 0.31329 0.96278 0.0
C869 C 0.66889 0.28586 0.9904 0.0
C870 C 0.00667 0.49799 0.24139 0.0
C871 C 0.04298 0.4874 0.22992 0.0
C872 C 0.97371 0.48735 0.2206 0.0
C873 C 0.97671 0.4656 0.18835 0.0
H874 H 0.0042 0.51684 0.26475 0.0
H875 H 0.94667 0.49856 0.22806 0.0
S876 S 0.06449 0.42602 0.1509 0.0
N877 N 0.07933 0.45083 0.18735 0.0
N878 N 0.01775 0.42988 0.14899 0.0
C879 C 0.01237 0.45196 0.1791 0.0
C880 C 0.04557 0.46322 0.19968 0.0
C881 C 0.85017 0.82905 0.44373 0.0
C882 C 0.82738 0.82749 0.47546 0.0
C883 C 0.85625 0.79653 0.42314 0.0
C884 C 0.83821 0.76166 0.43265 0.0
H885 H 0.86047 0.85591 0.43293 0.0
H886 H 0.87051 0.79965 0.39679 0.0
S887 S 0.7834 0.74149 0.5178 0.0
N888 N 0.79351 0.78729 0.5197 0.0
N889 N 0.80272 0.7264 0.4793 0.0
C890 C 0.81947 0.75902 0.46667 0.0
C891 C 0.81432 0.79205 0.4884 0.0
C892 C 0.98168 0.09631 0.23204 0.0
C893 C 0.9598 0.0647 0.21834 0.0
C894 C 0.01852 0.1062 0.21765 0.0
C895 C 0.03462 0.0844 0.18968 0.0
H896 H 0.96907 0.11511 0.25156 0.0
H897 H 0.0324 0.13313 0.22538 0.0
S898 S 0.99201 0.99464 0.15097 0.0
N899 N 0.95927 0.00863 0.17999 0.0
N900 N 0.02829 0.02652 0.15386 0.0
C901 C 0.01493 0.05012 0.17986 0.0
C902 C 0.9774 0.04062 0.1937 0.0
C903 C 0.29463 0.78456 0.53178 0.0
C904 C 0.27748 0.75275 0.54931 0.0
C905 C 0.30347 0.81842 0.55137 0.0
C906 C 0.29504 0.82171 0.58909 0.0
H907 H 0.30182 0.78315 0.50286 0.0
H908 H 0.31793 0.84167 0.53716 0.0
S909 S 0.25057 0.74526 0.64759 0.0
N910 N 0.25327 0.7263 0.60631 0.0
N911 N 0.26774 0.78883 0.64284 0.0
C912 C 0.27673 0.78987 0.60641 0.0
C913 C 0.2686 0.7557 0.58665 0.0
C914 C -0.00295 0.60459 0.2859 0.0
C915 C 0.03646 0.60822 0.29477 0.0
C916 C 0.96885 0.6104 0.31268 0.0
C917 C 0.97939 0.62122 0.3486 0.0
H918 H 0.98785 0.59418 0.25905 0.0
H919 H 0.93897 0.60396 0.30593 0.0
S920 S 0.07818 0.63783 0.38471 0.0
N921 N 0.08411 0.62585 0.34127 0.0
N922 N 0.03144 0.63816 0.39094 0.0
C923 C 0.01855 0.62808 0.35676 0.0
C924 C 0.04705 0.62133 0.32998 0.0
C925 C 0.45971 0.43826 0.83273 0.0
C926 C 0.45205 0.47483 0.82348 0.0
C927 C 0.4948 0.43111 0.8485 0.0
C928 C 0.52326 0.46014 0.85431 0.0
H929 H 0.43799 0.41548 0.82916 0.0
H930 H 0.49852 0.40332 0.85884 0.0
S931 S 0.51812 0.55982 0.83049 0.0
N932 N 0.47617 0.53977 0.818 0.0
N933 N 0.54255 0.52603 0.84736 0.0
C934 C 0.51672 0.49626 0.84269 0.0
C935 C 0.48084 0.50372 0.82738 0.0
C936 C 0.95201 0.801 0.76307 0.0
C937 C 0.95208 0.82416 0.73213 0.0
C938 C 0.93802 0.81311 0.79709 0.0
C939 C 0.92364 0.84863 0.80088 0.0
H940 H 0.96148 0.77281 0.76058 0.0
H941 H 0.93562 0.79362 0.81957 0.0
S942 S 0.9148 0.91822 0.72741 0.0
N943 N 0.93631 0.88358 0.70724 0.0
N944 N 0.90839 0.90584 0.77058 0.0
C945 C 0.92462 0.87227 0.77028 0.0
C946 C 0.93926 0.86015 0.73596 0.0
C947 C 0.94413 0.22296 0.46371 0.0
C948 C 0.95665 0.2609 0.46246 0.0
C949 C 0.93268 0.20652 0.49696 0.0
C950 C 0.93383 0.22722 0.53036 0.0
H951 H 0.94683 0.20506 0.43967 0.0
H952 H 0.92597 0.17649 0.49703 0.0
S953 S 0.95697 0.32906 0.5404 0.0
N954 N 0.96378 0.32005 0.49625 0.0
N955 N 0.94259 0.28872 0.55903 0.0
C956 C 0.94217 0.26592 0.52886 0.0
C957 C 0.95365 0.28281 0.49479 0.0
C958 C 0.54819 0.19184 0.23857 0.0
C959 C 0.54726 0.22813 0.22461 0.0
C960 C 0.5641 0.18591 0.27284 0.0
C961 C 0.57806 0.21588 0.29533 0.0
H962 H 0.53777 0.16757 0.22247 0.0
H963 H 0.56858 0.15741 0.28041 0.0
S964 S 0.58558 0.31612 0.27111 0.0
N965 N 0.56449 0.29474 0.23531 0.0
N966 N 0.59278 0.28287 0.30077 0.0
C967 C 0.57749 0.25233 0.28203 0.0
C968 C 0.56222 0.2586 0.24655 0.0
C969 C 0.57026 0.84505 0.96826 0.0
C970 C 0.54655 0.86736 0.94798 0.0
C971 C 0.57138 0.84751 0.00676 0.0
C972 C 0.54997 0.87343 0.02608 0.0
H973 H 0.58713 0.82474 0.95457 0.0
H974 H 0.58919 0.82912 0.02143 0.0
S975 S 0.49404 0.94691 0.9836 0.0
N976 N 0.50822 0.92134 0.94868 0.0
N977 N 0.51098 0.92759 0.02043 0.0
C978 C 0.52945 0.89869 0.00535 0.0
C979 C 0.528 0.89558 0.96645 0.0
C980 C 0.96603 0.21794 0.78906 0.0
C981 C 0.96558 0.25405 0.80524 0.0
C982 C 0.95284 0.21065 0.75264 0.0
C983 C 0.9394 0.23932 0.73077 0.0
H984 H 0.97506 0.19489 0.8051 0.0
H985 H 0.95058 0.18194 0.74258 0.0
S986 S 0.938 0.33973 0.75749 0.0
N987 N 0.95407 0.31955 0.79425 0.0
N988 N 0.93066 0.30573 0.72669 0.0
C989 C 0.94168 0.27585 0.74573 0.0
C990 C 0.95417 0.2832 0.78265 0.0
C991 C 0.52036 0.22593 0.51259 0.0
C992 C 0.54993 0.2252 0.53874 0.0
C993 C 0.52242 0.20652 0.47894 0.0
C994 C 0.55436 0.1863 0.46998 0.0
H995 H 0.49444 0.23981 0.51887 0.0
H996 H 0.49757 0.20481 0.46115 0.0
S997 S 0.64125 0.17874 0.52623 0.0
N998 N 0.61412 0.20559 0.55109 0.0
N999 N 0.61706 0.16861 0.48821 0.0
C1000 C 0.58534 0.18787 0.49431 0.0
C1001 C 0.58342 0.20754 0.52858 0.0
C1002 C 0.60703 0.7993 0.27121 0.0
C1003 C 0.57705 0.81206 0.29262 0.0
C1004 C 0.61049 0.80799 0.23424 0.0
C1005 C 0.58431 0.83024 0.21671 0.0
H1006 H 0.62639 0.77998 0.28244 0.0
H1007 H 0.63375 0.7962 0.21919 0.0
S1008 S 0.50708 0.87926 0.26339 0.0
N1009 N 0.52538 0.8544 0.29611 0.0
N1010 N 0.5318 0.87071 0.22574 0.0
C1011 C 0.55687 0.84687 0.23884 0.0
C1012 C 0.55339 0.83796 0.27705 0.0
C1013 C 0.98598 0.8451 0.0081 0.0
C1014 C 0.95884 0.83424 0.03513 0.0
C1015 C 0.97566 0.86512 0.97741 0.0
C1016 C 0.93796 0.87551 0.97278 0.0
H1017 H 0.01591 0.83981 0.01155 0.0
H1018 H -0.00179 0.87602 0.95926 0.0
S1019 S 0.85482 0.84862 0.03181 0.0
N1020 N 0.89129 0.83028 0.05208 0.0
N1021 N 0.8725 0.86959 0.99485 0.0
C1022 C 0.90979 0.86151 -0.00268 0.0
C1023 C 0.92012 0.84054 0.02853 0.0
C1024 C 0.72781 0.9834 0.838 0.0
C1025 C 0.72325 0.99639 0.80216 0.0
C1026 C 0.76108 0.96616 0.84783 0.0
C1027 C 0.79058 0.96167 0.82214 0.0
H1028 H 0.70441 0.98373 0.85756 0.0
H1029 H 0.76138 0.95188 0.87382 0.0
S1030 S 0.79769 0.00174 0.72924 0.0
N1031 N 0.75471 0.01157 0.74404 0.0
N1032 N 0.81717 0.97915 0.7629 0.0
C1033 C 0.78874 0.97963 0.78842 0.0
C1034 C 0.75483 0.99672 0.77813 0.0
C1035 C 0.83906 0.02773 0.51268 0.0
C1036 C 0.81226 0.00741 0.53468 0.0
C1037 C 0.85033 0.06532 0.52071 0.0
C1038 C 0.83615 0.08443 0.55178 0.0
H1039 H 0.85294 0.01408 0.48996 0.0
H1040 H 0.87327 0.0784 0.50433 0.0
S1041 S 0.75475 0.04837 0.60916 0.0
N1042 N 0.76468 0.0122 0.58304 0.0
N1043 N 0.78551 0.08306 0.59717 0.0
C1044 C 0.80534 0.06616 0.57044 0.0
C1045 C 0.79385 0.02754 0.56246 0.0
C1046 C 0.77138 0.07917 0.33516 0.0
C1047 C 0.76617 0.06063 0.30114 0.0
C1048 C 0.74088 0.09671 0.35169 0.0
C1049 C 0.70512 0.09686 0.33398 0.0
H1050 H 0.79976 0.08369 0.3469 0.0
H1051 H 0.74721 0.11555 0.37481 0.0
S1052 S 0.67356 0.03923 0.25335 0.0
N1053 N 0.7198 0.03308 0.25707 0.0
N1054 N 0.66312 0.06751 0.28777 0.0
C1055 C 0.69785 0.07217 0.30444 0.0
C1056 C 0.72859 0.05411 0.28764 0.0
C1057 C 0.65489 0.05846 0.02977 0.0
C1058 C 0.69192 0.06769 0.04266 0.0
C1059 C 0.63877 0.02181 0.03158 0.0
C1060 C 0.65858 0.9928 0.0475 0.0
H1061 H 0.63782 0.07997 0.01895 0.0
H1062 H 0.60932 0.01707 0.02259 0.0
S1063 S 0.76191 0.00031 0.07096 0.0
N1064 N 0.75211 0.0437 0.0614 0.0
N1065 N 0.72111 0.97449 0.06684 0.0
C1066 C 0.69741 0.00092 0.05635 0.0
C1067 C 0.71418 0.03849 0.05365 0.0
C1068 C 0.7376 0.10113 0.68961 0.0
C1069 C 0.72511 0.09856 0.72615 0.0
C1070 C 0.7759 0.11004 0.68118 0.0
C1071 C 0.80354 0.11673 0.70855 0.0
H1072 H 0.71729 0.09882 0.66717 0.0
H1073 H 0.7826 0.11835 0.6535 0.0
S1074 S 0.78751 0.10751 0.80863 0.0
N1075 N 0.74463 0.09829 0.79041 0.0
N1076 N 0.81706 0.11612 0.7738 0.0
C1077 C 0.79238 0.11089 0.74518 0.0
C1078 C 0.75305 0.10161 0.75412 0.0
C1079 C 0.66197 0.98262 0.45835 0.0
C1080 C 0.70001 0.99203 0.46826 0.0
C1081 C 0.63921 0.00988 0.4449 0.0
C1082 C 0.65395 0.04721 0.44113 0.0
H1083 H 0.64897 0.9549 0.46367 0.0
H1084 H 0.60941 0.002 0.43883 0.0
S1085 S 0.75333 0.0844 0.46031 0.0
N1086 N 0.75265 0.03967 0.47102 0.0
N1087 N 0.70982 0.09129 0.44536 0.0
C1088 C 0.69285 0.05619 0.44835 0.0
C1089 C 0.71594 0.02839 0.46213 0.0
C1090 C 0.76374 0.92934 0.24628 0.0
C1091 C 0.78268 0.96085 0.23016 0.0
C1092 C 0.72759 0.9154 0.23418 0.0
C1093 C 0.70843 0.93268 0.20574 0.0
H1094 H 0.77738 0.91455 0.26785 0.0
H1095 H 0.71533 0.88985 0.24627 0.0
S1096 S 0.74203 0.02051 0.15962 0.0
N1097 N 0.77795 0.01093 0.18636 0.0
N1098 N 0.70855 0.98654 0.16587 0.0
C1099 C 0.72567 0.96592 0.19133 0.0
C1100 C 0.76327 0.97934 0.2027 0.0
C1101 C 0.83096 0.09008 0.93116 0.0
C1102 C 0.79171 0.08921 0.93883 0.0
C1103 C 0.84973 0.05698 0.92756 0.0
C1104 C 0.83012 0.02166 0.93212 0.0
H1105 H 0.8477 0.11663 0.92989 0.0
H1106 H 0.88033 0.05916 0.92231 0.0
S1107 S 0.72676 0.00432 0.95241 0.0
N1108 N 0.73327 0.05043 0.95029 0.0
N1109 N 0.76895 0.98774 0.94364 0.0
C1110 C 0.79044 0.02019 0.9382 0.0
C1111 C 0.77114 0.05416 0.94166 0.0
C1112 C 0.73921 0.78565 0.94914 0.0
C1113 C 0.76104 0.75476 0.95623 0.0
C1114 C 0.75648 0.81983 0.93775 0.0
C1115 C 0.79632 0.8248 0.93327 0.0
H1116 H 0.70823 0.78325 0.95105 0.0
H1117 H 0.73828 0.8417 0.92977 0.0
S1118 S 0.86732 0.75549 0.95298 0.0
N1119 N 0.8255 0.73329 0.96196 0.0
N1120 N 0.85768 0.7978 0.93982 0.0
C1121 C 0.81888 0.79551 0.94298 0.0
C1122 C 0.80132 0.7604 0.95453 0.0
C1123 C 0.31384 0.8145 0.05982 0.0
C1124 C 0.27629 0.82554 0.06619 0.0
C1125 C 0.32837 0.78459 0.07892 0.0
C1126 C 0.30572 0.76476 0.1049 0.0
H1127 H 0.33276 0.83007 0.04113 0.0
H1128 H 0.35832 0.77912 0.07563 0.0
S1129 S 0.2043 0.77894 0.12851 0.0
N1130 N 0.21576 0.81132 0.09789 0.0
N1131 N 0.243 0.75545 0.13336 0.0
C1132 C 0.26727 0.77346 0.10921 0.0
C1133 C 0.25258 0.80385 0.09008 0.0
C1134 C 0.98218 0.54206 0.78204 0.0
C1135 C 0.95995 0.57255 0.77413 0.0
C1136 C 0.01708 0.5474 0.80093 0.0
C1137 C 0.03121 0.58341 0.81205 0.0
H1138 H 0.97133 0.51357 0.77613 0.0
H1139 H 0.031 0.52304 0.81012 0.0
S1140 S 0.98621 0.6726 0.79554 0.0
N1141 N 0.95706 0.6403 0.77572 0.0
N1142 N 0.02148 0.64982 0.81251 0.0
C1143 C 0.01106 0.61416 0.80147 0.0
C1144 C 0.97564 0.60887 0.78231 0.0
C1145 C 0.17808 0.24113 0.5606 0.0
C1146 C 0.21732 0.23448 0.56085 0.0
C1147 C 0.16527 0.27615 0.57157 0.0
C1148 C 0.19119 0.30593 0.58269 0.0
H1149 H 0.15695 0.21842 0.55442 0.0
H1150 H 0.1348 0.27838 0.57569 0.0
S1151 S 0.29715 0.30587 0.58001 0.0
N1152 N 0.28229 0.26293 0.56703 0.0
N1153 N 0.25793 0.32828 0.58733 0.0
C1154 C 0.2305 0.30096 0.5785 0.0
C1155 C 0.24365 0.2653 0.568 0.0
C1156 C -0.00186 0.05415 0.81801 0.0
C1157 C 0.02197 0.03482 0.79401 0.0
C1158 C 0.96842 0.03523 0.8374 0.0
C1159 C 0.96098 0.99636 0.83327 0.0
H1160 H 0.00348 0.08393 0.82326 0.0
H1161 H 0.95253 0.05081 0.85744 0.0
S1162 S 0.01279 0.93294 0.77225 0.0
N1163 N 0.03386 0.97486 0.76504 0.0
N1164 N 0.97898 0.93921 0.80312 0.0
C1165 C 0.98325 0.97689 0.80827 0.0
C1166 C 0.0135 0.99616 0.78823 0.0
C1167 C 0.72417 0.29162 0.45929 0.0
C1168 C 0.6932 0.31431 0.46482 0.0
C1169 C 0.71803 0.25462 0.44628 0.0
C1170 C 0.68077 0.2392 0.43889 0.0
H1171 H 0.75338 0.30303 0.46306 0.0
H1172 H 0.74263 0.23895 0.43938 0.0
S1173 S 0.58995 0.28509 0.4526 0.0
N1174 N 0.62357 0.31679 0.466 0.0
N1175 N 0.61277 0.24822 0.43992 0.0
C1176 C 0.64962 0.26047 0.44716 0.0
C1177 C 0.65566 0.29788 0.46046 0.0
C1178 C 0.97668 0.45656 0.70439 0.0
C1179 C 0.94545 0.46067 0.68057 0.0
C1180 C 0.01455 0.45572 0.69068 0.0
C1181 C 0.02188 0.45885 0.65285 0.0
H1182 H 0.97233 0.45752 0.73382 0.0
H1183 H 0.03819 0.45582 0.70982 0.0
S1184 S 0.94839 0.46625 0.5795 0.0
N1185 N 0.92358 0.46384 0.61801 0.0
N1186 N 0.99337 0.46354 0.59195 0.0
C1187 C 0.98995 0.45979 0.62894 0.0
C1188 C 0.95205 0.46031 0.64288 0.0
C1189 C 0.51081 0.57157 0.19523 0.0
C1190 C 0.54395 0.59533 0.19017 0.0
C1191 C 0.47492 0.58278 0.18517 0.0
C1192 C 0.47168 0.61709 0.16781 0.0
H1193 H 0.51289 0.54322 0.20469 0.0
H1194 H 0.45086 0.56207 0.1853 0.0
S1195 S 0.54793 0.69309 0.15822 0.0
N1196 N 0.56998 0.65801 0.17576 0.0
N1197 N 0.50241 0.67811 0.15413 0.0
C1198 C 0.50339 0.64328 0.16826 0.0
C1199 C 0.53993 0.63231 0.17954 0.0
C1200 C 0.56915 0.71019 0.79009 0.0
C1201 C 0.55966 0.74754 0.79132 0.0
C1202 C 0.58168 0.69426 0.75737 0.0
C1203 C 0.58581 0.71554 0.72531 0.0
H1204 H 0.5693 0.69404 0.81501 0.0
H1205 H 0.59196 0.66632 0.75804 0.0
S1206 S 0.55842 0.81272 0.71339 0.0
N1207 N 0.54977 0.80393 0.75717 0.0
N1208 N 0.57455 0.77398 0.69545 0.0
C1209 C 0.57266 0.75166 0.7253 0.0
C1210 C 0.55939 0.7678 0.75861 0.0
C1211 C 0.53774 0.27957 0.00852 0.0
C1212 C 0.54631 0.29454 0.04394 0.0
C1213 C 0.54394 0.30131 0.97706 0.0
C1214 C 0.55897 0.33842 0.9804 0.0
H1215 H 0.52391 0.25174 0.00519 0.0
H1216 H 0.53514 0.2898 0.95048 0.0
S1217 S 0.59355 0.38811 0.06535 0.0
N1218 N 0.57582 0.34686 0.07941 0.0
N1219 N 0.58773 0.38748 0.02039 0.0
C1220 C 0.57075 0.3525 0.01509 0.0
C1221 C 0.56435 0.33061 0.04692 0.0
C1222 C 0.93429 0.38597 0.2853 0.0
C1223 C 0.96811 0.36731 0.28113 0.0
C1224 C 0.91117 0.39211 0.25505 0.0
C1225 C 0.92037 0.37844 0.2199 0.0
H1226 H 0.9238 0.3927 0.3125 0.0
H1227 H 0.88332 0.40286 0.26013 0.0
S1228 S 0.01093 0.33721 0.19323 0.0
N1229 N 0.01443 0.34359 0.2382 0.0
N1230 N 0.96922 0.35263 0.18138 0.0
C1231 C 0.95665 0.36467 0.21456 0.0
C1232 C 0.98098 0.35955 0.24537 0.0
C1233 C 0.95898 0.75749 0.53231 0.0
C1234 C 0.93839 0.74411 0.56324 0.0
C1235 C 0.95281 0.74083 0.49746 0.0
C1236 C 0.92448 0.71166 0.49261 0.0
H1237 H 0.98096 0.7799 0.53528 0.0
H1238 H 0.97125 0.74962 0.4748 0.0
S1239 S 0.85585 0.67404 0.56266 0.0
N1240 N 0.88457 0.70462 0.58554 0.0
N1241 N 0.87114 0.6748 0.51969 0.0
C1242 C 0.90088 0.70111 0.52248 0.0
C1243 C 0.90813 0.71709 0.55799 0.0
C1244 C 0.56535 0.30327 0.7216 0.0
C1245 C 0.54135 0.32882 0.70649 0.0
C1246 C 0.57568 0.30519 0.75851 0.0
C1247 C 0.566 0.33512 0.78181 0.0
H1248 H 0.57653 0.28125 0.70495 0.0
H1249 H 0.59395 0.28404 0.76807 0.0
S1250 S 0.50502 0.41125 0.75492 0.0
N1251 N 0.50666 0.38452 0.71765 0.0
N1252 N 0.53103 0.39157 0.78615 0.0
C1253 C 0.54208 0.36129 0.76704 0.0
C1254 C 0.52917 0.35771 0.72959 0.0
C1255 C 0.9661 0.31746 0.00859 0.0
C1256 C 0.96787 0.33235 0.97295 0.0
C1257 C 0.95489 0.3393 0.03904 0.0
C1258 C 0.94388 0.37601 0.03409 0.0
H1259 H 0.9751 0.28954 0.01312 0.0
H1260 H 0.95622 0.32803 0.06639 0.0
S1261 S 0.9327 0.42254 0.94408 0.0
N1262 N 0.95168 0.38273 0.9336 0.0
N1263 N 0.92723 0.42235 0.98904 0.0
C1264 C 0.94124 0.38894 -0.00238 0.0
C1265 C 0.95408 0.3675 0.96745 0.0
C1266 C 0.97207 0.7058 0.24535 0.0
C1267 C 0.96364 0.73287 0.21939 0.0
C1268 C 0.9537 0.70424 0.27974 0.0
C1269 C 0.92622 0.72959 0.28959 0.0
H1270 H 0.9929 0.68549 0.23901 0.0
H1271 H 0.96007 0.68225 0.29819 0.0
S1272 S 0.89985 0.81074 0.23484 0.0
N1273 N 0.92996 0.78901 0.2083 0.0
N1274 N 0.89565 0.78599 0.27265 0.0
C1275 C 0.91945 0.75831 0.26486 0.0
C1276 C 0.93791 0.75983 0.22983 0.0
C1277 C 0.56441 0.74769 0.50048 0.0
C1278 C 0.58402 0.73234 0.47048 0.0
C1279 C 0.56554 0.73182 0.53549 0.0
C1280 C 0.58733 0.70097 0.54195 0.0
H1281 H 0.5446 0.76916 0.49608 0.0
H1282 H 0.54573 0.74083 0.55628 0.0
S1283 S 0.65333 0.65845 0.47596 0.0
N1284 N 0.63263 0.69022 0.45185 0.0
N1285 N 0.63558 0.66138 0.51793 0.0
C1286 C 0.61203 0.68979 0.51393 0.0
C1287 C 0.61014 0.70517 0.47802 0.0
C1288 C 0.74961 0.55025 0.70773 0.0
C1289 C 0.77883 0.54827 0.68131 0.0
C1290 C 0.72134 0.57612 0.70465 0.0
C1291 C 0.72045 0.59969 0.67425 0.0
H1292 H 0.7501 0.53386 0.73225 0.0
H1293 H 0.70228 0.58002 0.72774 0.0
S1294 S 0.78317 0.5967 0.59225 0.0
N1295 N 0.80038 0.56609 0.62031 0.0
N1296 N 0.74636 0.61394 0.61381 0.0
C1297 C 0.74623 0.59415 0.64532 0.0
C1298 C 0.77554 0.56839 0.64888 0.0
C1299 C 0.70072 0.53782 0.93976 0.0
C1300 C 0.68813 0.55723 0.97104 0.0
C1301 C 0.69201 0.49893 0.93528 0.0
C1302 C 0.67109 0.47843 0.96227 0.0
H1303 H 0.71479 0.55314 0.91756 0.0
H1304 H 0.69764 0.48595 0.9089 0.0
S1305 S 0.64222 0.51483 0.05356 0.0
N1306 N 0.66095 0.5521 0.03223 0.0
N1307 N 0.64642 0.47918 0.02474 0.0
C1308 C 0.66435 0.49679 -0.00398 0.0
C1309 C 0.67181 0.53629 -4e-05 0.0
C1310 C 0.73846 0.51189 0.18682 0.0
C1311 C 0.70142 0.49383 0.1857 0.0
C1312 C 0.77128 0.49154 0.18222 0.0
C1313 C 0.76789 0.45271 0.17551 0.0
H1314 H 0.74218 0.54155 0.19302 0.0
H1315 H 0.79932 0.50602 0.18511 0.0
S1316 S 0.67707 0.39352 0.16501 0.0
N1317 N 0.6632 0.4358 0.17473 0.0
N1318 N 0.72437 0.3977 0.16451 0.0
C1319 C 0.73085 0.43484 0.17253 0.0
C1320 C 0.69771 0.45538 0.17789 0.0
C1321 C 0.7863 0.53199 0.48842 0.0
C1322 C 0.77393 0.50624 0.46065 0.0
C1323 C 0.80721 0.56558 0.47976 0.0
C1324 C 0.81628 0.57432 0.44312 0.0
H1325 H 0.77998 0.52598 0.51696 0.0
H1326 H 0.81816 0.58379 0.50192 0.0
S1327 S 0.79339 0.51412 0.36121 0.0
N1328 N 0.77236 0.49121 0.39557 0.0
N1329 N 0.81449 0.55263 0.37959 0.0
C1330 C 0.80416 0.5485 0.41535 0.0
C1331 C 0.78213 0.51492 0.42405 0.0
C1332 C 0.77454 0.45705 0.79536 0.0
C1333 C 0.77266 0.49595 0.79838 0.0
C1334 C 0.74327 0.43297 0.80328 0.0
C1335 C 0.70836 0.44599 0.81639 0.0
H1336 H 0.8001 0.44452 0.78545 0.0
H1337 H 0.74744 0.40343 0.79938 0.0
S1338 S 0.68851 0.54553 0.83142 0.0
N1339 N 0.73313 0.54707 0.81608 0.0
N1340 N 0.674 0.50069 0.83302 0.0
C1341 C 0.70598 0.48483 0.82074 0.0
C1342 C 0.73819 0.50996 0.8116 0.0
C1343 C 0.79145 0.55348 0.08156 0.0
C1344 C 0.79628 0.56716 0.04572 0.0
C1345 C 0.81344 0.5248 0.09399 0.0
C1346 C 0.83943 0.50808 0.07053 0.0
H1347 H 0.77313 0.5671 0.10098 0.0
H1348 H 0.81301 0.51838 0.12283 0.0
S1349 S 0.85638 0.52843 0.97211 0.0
N1350 N 0.82484 0.5583 0.98549 0.0
N1351 N 0.86451 0.50316 0.00847 0.0
C1352 C 0.84066 0.5183 0.03341 0.0
C1353 C 0.81958 0.54833 0.02111 0.0
C1354 C 0.72332 0.59013 0.324 0.0
C1355 C 0.71584 0.59438 0.28669 0.0
C1356 C 0.75993 0.59948 0.33801 0.0
C1357 C 0.79026 0.61262 0.31506 0.0
H1358 H 0.70012 0.58273 0.34286 0.0
H1359 H 0.763 0.60143 0.36759 0.0
S1360 S 0.78558 0.6236 0.21431 0.0
N1361 N 0.74154 0.60898 0.22625 0.0
N1362 N 0.81097 0.62526 0.25257 0.0
C1363 C 0.7838 0.61283 0.27705 0.0
C1364 C 0.74627 0.60427 0.26286 0.0
C1365 C 0.69538 0.50366 0.59036 0.0
C1366 C 0.68699 0.48295 0.5579 0.0
C1367 C 0.67824 0.53733 0.59771 0.0
C1368 C 0.65357 0.55226 0.57221 0.0
H1369 H 0.71442 0.49328 0.61069 0.0
H1370 H 0.68294 0.55089 0.62414 0.0
S1371 S 0.62279 0.51045 0.48287 0.0
N1372 N 0.65055 0.48002 0.50077 0.0
N1373 N 0.62237 0.54515 0.51314 0.0
C1374 C 0.64561 0.53257 0.53949 0.0
C1375 C 0.66139 0.49748 0.53269 0.0
C1376 C 0.70304 0.80094 0.54473 0.0
C1377 C 0.69737 0.83323 0.56655 0.0
C1378 C 0.69532 0.76471 0.55865 0.0
C1379 C 0.68219 0.7601 0.59476 0.0
H1380 H 0.71555 0.80358 0.51759 0.0
H1381 H 0.70182 0.74052 0.54208 0.0
S1382 S 0.65149 0.83414 0.65876 0.0
N1383 N 0.66904 0.85704 0.62288 0.0
N1384 N 0.65561 0.78944 0.64886 0.0
C1385 C 0.67177 0.7917 0.61485 0.0
C1386 C 0.67905 0.82824 0.60076 0.0
C1387 C 0.19582 0.78347 0.47809 0.0
C1388 C 0.17219 0.7501 0.4771 0.0
C1389 C 0.19134 0.81157 0.45244 0.0
C1390 C 0.16251 0.80725 0.42587 0.0
H1391 H 0.21981 0.78653 0.49685 0.0
H1392 H 0.21255 0.83501 0.45132 0.0
S1393 S 0.08967 0.72812 0.41562 0.0
N1394 N 0.11646 0.71624 0.45032 0.0
N1395 N 0.10769 0.76948 0.40224 0.0
C1396 C 0.13655 0.7757 0.42692 0.0
C1397 C 0.14148 0.74684 0.45255 0.0
C1398 C 0.53362 0.96348 0.71878 0.0
C1399 C 0.54757 0.00131 0.72099 0.0
C1400 C 0.49905 0.95285 0.7005 0.0
C1401 C 0.4765 0.97987 0.6853 0.0
H1402 H 0.5506 0.94179 0.72934 0.0
H1403 H 0.49145 0.92333 0.69597 0.0
S1404 S 0.49684 0.08266 0.68873 0.0
N1405 N 0.53428 0.0656 0.70828 0.0
N1406 N 0.46803 0.04593 0.67759 0.0
C1407 C 0.48854 0.01774 0.69011 0.0
C1408 C 0.5244 0.0284 0.70697 0.0
C1409 C 0.27975 0.30642 0.95717 0.0
C1410 C 0.30972 0.33463 0.95912 0.0
C1411 C 0.28527 0.27134 0.94102 0.0
C1412 C 0.32084 0.26334 0.92585 0.0
H1413 H 0.25128 0.31213 0.9667 0.0
H1414 H 0.26053 0.25184 0.93697 0.0
S1415 S 0.40875 0.32719 0.92522 0.0
N1416 N 0.37673 0.3515 0.94692 0.0
N1417 N 0.3869 0.28592 0.91524 0.0
C1418 C 0.35176 0.29031 0.93015 0.0
C1419 C 0.3462 0.32601 0.94696 0.0
C1420 C 0.4766 0.6012 0.72464 0.0
C1421 C 0.46451 0.5633 0.71949 0.0
C1422 C 0.51283 0.61499 0.71216 0.0
C1423 C 0.5378 0.59128 0.69414 0.0
H1424 H 0.45685 0.62076 0.73547 0.0
H1425 H 0.51925 0.64505 0.71239 0.0
S1426 S 0.52259 0.48844 0.6822 0.0
N1427 N 0.48264 0.50118 0.70176 0.0
N1428 N 0.55049 0.52724 0.67796 0.0
C1429 C 0.52786 0.55264 0.69352 0.0
C1430 C 0.49103 0.53862 0.70602 0.0
C1431 C 0.80784 0.24793 0.06486 0.0
C1432 C 0.79085 0.25154 0.03063 0.0
C1433 C 0.82177 0.27918 0.0849 0.0
C1434 C 0.81791 0.31613 0.07276 0.0
H1435 H 0.81017 0.22055 0.07665 0.0
H1436 H 0.8344 0.27403 0.11133 0.0
S1437 S 0.78076 0.34067 0.98174 0.0
N1438 N 0.77542 0.29437 0.98233 0.0
N1439 N 0.79982 0.35416 0.02173 0.0
C1440 C 0.80317 0.32036 0.03733 0.0
C1441 C 0.78985 0.28782 0.01599 0.0
C1442 C 0.51335 0.12365 0.81022 0.0
C1443 C 0.53825 0.09451 0.81383 0.0
C1444 C 0.48084 0.12548 0.83266 0.0
C1445 C 0.4715 0.09763 0.85845 0.0
H1446 H 0.51962 0.14581 0.79075 0.0
H1447 H 0.46456 0.15001 0.83149 0.0
S1448 S 0.52439 0.01286 0.87562 0.0
N1449 N 0.54968 0.03581 0.84396 0.0
N1450 N 0.48736 0.03804 0.88381 0.0
C1451 C 0.49457 0.06693 0.86034 0.0
C1452 C 0.52834 0.06578 0.83879 0.0
C1453 C 0.96118 0.93593 0.32377 0.0
C1454 C 0.95549 0.97202 0.31157 0.0
C1455 C 0.99461 0.92904 0.34276 0.0
C1456 C 0.02313 0.95788 0.34908 0.0
H1457 H 0.93886 0.91366 0.32058 0.0
H1458 H -0.00315 0.90183 0.35495 0.0
S1459 S 0.02124 0.05692 0.32189 0.0
N1460 N 0.98058 0.03666 0.30625 0.0
N1461 N 0.04386 0.02336 0.34143 0.0
C1462 C 0.01844 0.99353 0.33521 0.0
C1463 C 0.98431 0.00071 0.31652 0.0
C1464 C 0.42624 0.36563 0.22614 0.0
C1465 C 0.45116 0.33676 0.22836 0.0
C1466 C 0.40766 0.37824 0.25757 0.0
C1467 C 0.41379 0.36271 0.29223 0.0
H1468 H 0.41906 0.37669 0.1997 0.0
H1469 H 0.38665 0.39894 0.25442 0.0
S1470 S 0.47919 0.28863 0.31262 0.0
N1471 N 0.48287 0.2942 0.26775 0.0
N1472 N 0.44871 0.31904 0.3273 0.0
C1473 C 0.44067 0.33563 0.2952 0.0
C1474 C 0.45907 0.32222 0.26299 0.0
C1475 C 0.45245 0.75541 0.97685 0.0
C1476 C 0.49195 0.75233 0.97013 0.0
C1477 C 0.43445 0.7398 0.00841 0.0
C1478 C 0.45546 0.72108 0.0345 0.0
H1479 H 0.43513 0.76921 0.95727 0.0
H1480 H 0.40367 0.74058 0.01136 0.0
S1481 S 0.55934 0.70631 0.03161 0.0
N1482 N 0.55135 0.72943 0.99392 0.0
N1483 N 0.5175 0.70139 0.05257 0.0
C1484 C 0.49497 0.71919 0.02896 0.0
C1485 C 0.51319 0.73439 -0.00301 0.0
C1486 C 0.0681 0.69051 0.73302 0.0
C1487 C 0.05399 0.72522 0.72458 0.0
C1488 C 0.08476 0.68471 0.76706 0.0
C1489 C 0.08709 0.71298 0.79435 0.0
H1490 H 0.06663 0.66761 0.71315 0.0
H1491 H 0.09612 0.65778 0.77212 0.0
S1492 S 0.05605 0.80926 0.78675 0.0
N1493 N 0.04479 0.78903 0.74678 0.0
N1494 N 0.07575 0.77704 0.81107 0.0
C1495 C 0.0736 0.74784 0.78667 0.0
C1496 C 0.05691 0.75414 0.75177 0.0
C1497 C 0.02101 0.38656 0.46579 0.0
C1498 C 0.04177 0.35912 0.44845 0.0
C1499 C 0.0237 0.39321 0.50326 0.0
C1500 C 0.04857 0.37383 0.52543 0.0
H1501 H 0.00197 0.40313 0.45038 0.0
H1502 H 0.0071 0.41527 0.51451 0.0
S1503 S 0.1083 0.29754 0.49407 0.0
N1504 N 0.08787 0.31152 0.45634 0.0
N1505 N 0.09232 0.32383 0.52774 0.0
C1506 C 0.0688 0.34536 0.50887 0.0
C1507 C 0.06609 0.33851 0.47012 0.0
C1508 C 0.46781 0.77509 0.27774 0.0
C1509 C 0.47347 0.74575 0.30205 0.0
C1510 C 0.45741 0.76837 0.24096 0.0
C1511 C 0.45033 0.73175 0.22674 0.0
H1512 H 0.46949 0.80376 0.28763 0.0
H1513 H 0.45114 0.79218 0.22448 0.0
S1514 S 0.46278 0.6446 0.27771 0.0
N1515 N 0.47448 0.67831 0.30803 0.0
N1516 N 0.45176 0.66556 0.2395 0.0
C1517 C 0.45802 0.70201 0.24993 0.0
C1518 C 0.47002 0.70897 0.28743 0.0
C1519 C 0.07808 0.70154 0.02705 0.0
C1520 C 0.04721 0.72362 0.03566 0.0
C1521 C 0.0802 0.68298 0.9929 0.0
C1522 C 0.05186 0.68632 0.96611 0.0
H1523 H 0.0993 0.69636 0.04762 0.0
H1524 H 0.10198 0.66308 0.98889 0.0
S1525 S 0.97073 0.74753 0.97115 0.0
N1526 N 0.99168 0.75289 0.01162 0.0
N1527 N -0.00412 0.71767 0.94779 0.0
C1528 C 0.02342 0.71135 0.97276 0.0
C1529 C 0.02105 0.73013 0.00745 0.0
C1530 C 0.04246 0.2914 0.75559 0.0
C1531 C 0.05947 0.30921 0.78692 0.0
C1532 C 0.04476 0.30763 0.72112 0.0
C1533 C 0.06567 0.34175 0.71604 0.0
H1534 H 0.02864 0.26354 0.75714 0.0
H1535 H 0.03386 0.2913 0.69762 0.0
S1536 S 0.1155 0.40061 0.7884 0.0
N1537 N 0.09612 0.36422 0.8108 0.0
N1538 N 0.10271 0.39405 0.74501 0.0
C1539 C 0.081 0.36124 0.74724 0.0
C1540 C 0.07773 0.34498 0.78289 0.0
C1541 C 0.41969 0.34042 0.53188 0.0
C1542 C 0.45866 0.33397 0.53693 0.0
C1543 C 0.40795 0.36129 0.5019 0.0
C1544 C 0.43463 0.37497 0.47559 0.0
H1545 H 0.39879 0.33224 0.55276 0.0
H1546 H 0.37881 0.36989 0.50138 0.0
S1547 S 0.53833 0.36066 0.47304 0.0
N1548 N 0.52281 0.33924 0.51055 0.0
N1549 N 0.50013 0.37648 0.45379 0.0
C1550 C 0.47242 0.36431 0.47789 0.0
C1551 C 0.4847 0.34453 0.50884 0.0
C1552 C 0.2346 0.50608 0.33398 0.0
C1553 C 0.21319 0.49169 0.30368 0.0
C1554 C 0.26419 0.48611 0.34857 0.0
C1555 C 0.27227 0.45102 0.33409 0.0
H1556 H 0.22776 0.53221 0.34711 0.0
H1557 H 0.27955 0.49738 0.37191 0.0
S1558 S 0.23281 0.40679 0.24825 0.0
N1559 N 0.20829 0.4442 0.25476 0.0
N1560 N 0.26374 0.4075 0.28235 0.0
C1561 C 0.25499 0.43932 0.30067 0.0
C1562 C 0.22512 0.45929 0.2857 0.0
C1563 C 0.29428 0.52424 0.07254 0.0
C1564 C 0.29951 0.51378 0.03545 0.0
C1565 C 0.30216 0.56153 0.08491 0.0
C1566 C 0.3162 0.58972 0.06082 0.0
H1567 H 0.28655 0.50309 0.09266 0.0
H1568 H 0.3024 0.56709 0.11426 0.0
S1569 S 0.32616 0.5792 0.96005 0.0
N1570 N 0.31244 0.53663 0.97375 0.0
N1571 N 0.3277 0.60602 -0.00261 0.0
C1572 C 0.31606 0.58064 0.02313 0.0
C1573 C 0.30828 0.54278 0.01042 0.0
C1574 C 0.24067 0.58458 0.76195 0.0
C1575 C 0.26848 0.56709 0.78222 0.0
C1576 C 0.2111 0.60244 0.7796 0.0
C1577 C 0.20826 0.60355 0.81809 0.0
H1578 H 0.24305 0.5867 0.73238 0.0
H1579 H 0.19297 0.61909 0.76322 0.0
S1580 S 0.26724 0.55406 0.88315 0.0
N1581 N 0.28616 0.54534 0.84254 0.0
N1582 N 0.23133 0.58067 0.87551 0.0
C1583 C 0.23292 0.58261 0.83834 0.0
C1584 C 0.26301 0.5641 0.82046 0.0
C1585 C 0.18582 0.54299 0.51387 0.0
C1586 C 0.20135 0.56425 0.54377 0.0
C1587 C 0.17784 0.50418 0.51659 0.0
C1588 C 0.18421 0.48552 0.54967 0.0
H1589 H 0.17718 0.55671 0.48921 0.0
H1590 H 0.16115 0.4899 0.49491 0.0
S1591 S 0.23647 0.52616 0.63056 0.0
N1592 N 0.23202 0.56218 0.60341 0.0
N1593 N 0.21628 0.48931 0.60856 0.0
C1594 C 0.20565 0.50534 0.57696 0.0
C1595 C 0.21357 0.5449 0.57441 0.0
C1596 C 0.24554 0.59348 0.23199 0.0
C1597 C 0.21602 0.60039 0.20692 0.0
C1598 C 0.28339 0.60789 0.22646 0.0
C1599 C 0.29298 0.62871 0.19522 0.0
H1600 H 0.2393 0.57755 0.25657 0.0
H1601 H 0.3048 0.60385 0.2472 0.0
S1602 S 0.22729 0.65599 0.12208 0.0
N1603 N 0.19964 0.63049 0.15021 0.0
N1604 N 0.27083 0.65649 0.13945 0.0
C1605 C 0.26424 0.635 0.16958 0.0
C1606 C 0.22574 0.62103 0.17544 0.0
C1607 C 0.19008 0.50458 0.95702 0.0
C1608 C 0.18099 0.49401 0.99324 0.0
C1609 C 0.1699 0.53171 0.93949 0.0
C1610 C 0.14 0.54883 0.95758 0.0
H1611 H 0.21348 0.4925 0.94243 0.0
H1612 H 0.17709 0.5387 0.91141 0.0
S1613 S 0.10409 0.52995 0.05189 0.0
N1614 N 0.13933 0.50188 0.04609 0.0
N1615 N 0.10164 0.55303 0.01317 0.0
C1616 C 0.13026 0.53811 0.99353 0.0
C1617 C 0.15075 0.51065 0.01137 0.0
C1618 C 0.25222 0.46395 0.7499 0.0
C1619 C 0.28644 0.45874 0.73049 0.0
C1620 C 0.21648 0.45296 0.73438 0.0
C1621 C 0.21433 0.43683 0.69907 0.0
H1622 H 0.25311 0.47617 0.77732 0.0
H1623 H 0.1907 0.45557 0.75056 0.0
S1624 S 0.29559 0.41509 0.63839 0.0
N1625 N 0.31597 0.43565 0.67495 0.0
N1626 N 0.24896 0.41466 0.64587 0.0
C1627 C 0.24833 0.43205 0.67935 0.0
C1628 C 0.28445 0.44317 0.69505 0.0
C1629 C 0.28867 0.5594 0.44626 0.0
C1630 C 0.3068 0.58866 0.46736 0.0
C1631 C 0.30587 0.52521 0.44138 0.0
C1632 C 0.34271 0.52037 0.45483 0.0
H1633 H 0.26049 0.56235 0.43482 0.0
H1634 H 0.29037 0.5023 0.42752 0.0
S1635 S 0.39588 0.58342 0.5217 0.0
N1636 N 0.35887 0.60669 0.50952 0.0
N1637 N 0.39182 0.54358 0.49815 0.0
C1638 C 0.35909 0.5479 0.47904 0.0
C1639 C 0.34117 0.58196 0.4853 0.0
C1640 C 0.26363 0.28831 0.47189 0.0
C1641 C 0.27814 0.25268 0.46697 0.0
C1642 C 0.28491 0.32091 0.46119 0.0
C1643 C 0.32127 0.31886 0.44515 0.0
H1644 H 0.23502 0.29098 0.48276 0.0
H1645 H 0.27132 0.34729 0.46214 0.0
S1646 S 0.37477 0.2338 0.43153 0.0
N1647 N 0.33335 0.21824 0.44934 0.0
N1648 N 0.37286 0.27968 0.42891 0.0
C1649 C 0.33753 0.28409 0.4434 0.0
C1650 C 0.31603 0.25089 0.45427 0.0
C1651 C 0.82337 0.32481 0.58007 0.0
C1652 C 0.78593 0.32396 0.56599 0.0
C1653 C 0.83712 0.293 0.59645 0.0
C1654 C 0.81404 0.25934 0.59882 0.0
H1655 H 0.84107 0.35083 0.58084 0.0
H1656 H 0.86427 0.296 0.61083 0.0
S1657 S 0.71816 0.24018 0.55764 0.0
N1658 N 0.72901 0.28484 0.54927 0.0
N1659 N 0.75506 0.22531 0.5801 0.0
C1660 C 0.77856 0.25707 0.58099 0.0
C1661 C 0.76435 0.2894 0.56471 0.0
C1662 C 0.47119 0.10048 0.29009 0.0
C1663 C 0.45199 0.06479 0.28934 0.0
C1664 C 0.50744 0.10633 0.30582 0.0
C1665 C 0.52657 0.07672 0.32047 0.0
H1666 H 0.45737 0.12455 0.28011 0.0
H1667 H 0.51798 0.13494 0.31101 0.0
S1668 S 0.49006 0.97726 0.3239 0.0
N1669 N 0.45564 -0.0014 0.30348 0.0
N1670 N 0.52449 0.01009 0.33232 0.0
C1671 C 0.50889 0.0404 0.31784 0.0
C1672 C 0.47146 0.03432 0.3025 0.0
C1673 C 0.68003 0.74798 0.04999 0.0
C1674 C 0.71718 0.73602 0.05544 0.0
C1675 C 0.67049 0.78421 0.06106 0.0
C1676 C 0.69778 0.8096 0.07796 0.0
H1677 H 0.6576 0.72856 0.03926 0.0
H1678 H 0.64061 0.79056 0.06057 0.0
S1679 S 0.8001 0.79435 0.09339 0.0
N1680 N 0.78245 0.75471 0.0746 0.0
N1681 N 0.7643 0.82218 0.09474 0.0
C1682 C 0.73589 0.79956 0.07909 0.0
C1683 C 0.74554 0.76274 0.06857 0.0
C1684 C 0.51011 0.49751 0.28426 0.0
C1685 C 0.52015 0.53533 0.29357 0.0
C1686 C 0.47991 0.47726 0.30227 0.0
C1687 C 0.45828 0.49437 0.3296 0.0
H1688 H 0.52668 0.48294 0.26405 0.0
H1689 H 0.4754 0.44743 0.29678 0.0
S1690 S 0.47119 0.59247 0.36342 0.0
N1691 N 0.50474 0.58893 0.33178 0.0
N1692 N 0.4473 0.55118 0.36396 0.0
C1693 C 0.46616 0.53261 0.33728 0.0
C1694 C 0.4973 0.55301 0.31977 0.0
C1695 C 0.21254 0.79105 0.96949 0.0
C1696 C 0.18434 0.81667 0.96355 0.0
C1697 C 0.20518 0.75274 0.96199 0.0
C1698 C 0.16933 0.73868 0.94859 0.0
H1699 H 0.24116 0.80079 0.97807 0.0
H1700 H 0.22873 0.73455 0.96336 0.0
S1701 S 0.08364 0.79257 0.9348 0.0
N1702 N 0.11721 0.82406 0.94887 0.0
N1703 N 0.10403 0.75227 0.93415 0.0
C1704 C 0.13972 0.76321 0.94651 0.0
C1705 C 0.14713 0.80224 0.95393 0.0
C1706 C 0.46577 0.93706 0.18529 0.0
C1707 C 0.45635 0.97299 0.19665 0.0
C1708 C 0.50373 0.9305 0.17527 0.0
C1709 C 0.53314 0.9595 0.17683 0.0
H1710 H 0.44338 0.91511 0.18077 0.0
H1711 H 0.50883 0.90433 0.16124 0.0
S1712 S 0.52475 0.05521 0.21401 0.0
N1713 N 0.48065 0.03574 0.21514 0.0
N1714 N 0.55171 0.02229 0.19827 0.0
C1715 C 0.52496 0.99322 0.19407 0.0
C1716 C 0.48644 0.0005 0.20288 0.0
C1717 C 0.01318 0.06493 0.68831 0.0
C1718 C 0.04531 0.09064 0.69034 0.0
C1719 C 0.97695 0.077 0.68043 0.0
C1720 C 0.97259 0.11461 0.672 0.0
H1721 H 0.01627 0.03516 0.69101 0.0
H1722 H 0.95397 0.05596 0.67453 0.0
S1723 S 0.04441 0.19402 0.6861 0.0
N1724 N 0.06801 0.15639 0.69385 0.0
N1725 N -9e-05 0.17851 0.67679 0.0
C1726 C 0.00256 0.14108 0.68085 0.0
C1727 C 0.03943 0.12908 0.68953 0.0
loop_
_geom_bond_atom_site_label_1
_geom_bond_atom_site_label_2
_geom_bond_distance
_geom_bond_site_symmetry_2
_ccdc_geom_bond_type
Co0 O1 2.216 . S
Co0 O2 2.091 1_455 S
Co0 O4 2.004 1_455 S
Co0 O10 2.021 . S
Co0 O12 2.137 . S
Co0 O13 2.244 . S
O1 Co0 2.216 . S
O1 C8 1.247 1_455 S
O2 Co0 2.091 1_655 S
O2 C8 1.261 . S
C3 O12 1.247 . S
C3 O13 1.272 . S
O4 Co0 2.004 1_655 S
O4 C9 1.259 . S
Co5 O6 2.061 . S
Co5 O11 2.052 . S
Co5 O13 2.135 . S
O6 Co5 2.061 . S
O6 C9 1.235 1_455 S
C7 O10 1.238 . S
C7 O11 1.241 . S
C8 O1 1.247 1_655 S
C8 O2 1.261 . S
C9 O4 1.259 . S
C9 O6 1.235 1_655 S
O10 Co0 2.021 . S
O10 C7 1.238 . S
O11 Co5 2.052 . S
O11 C7 1.241 . S
O12 Co0 2.137 . S
O12 C3 1.247 . S
O13 Co0 2.244 . S
O13 C3 1.272 . S
O13 Co5 2.135 . S
Co14 O15 2.216 . S
Co14 O16 2.091 . S
Co14 O18 2.004 1_655 S
Co14 O24 2.021 1_655 S
Co14 O26 2.137 . S
Co14 O27 2.244 . S
O15 Co14 2.216 . S
O15 C22 1.247 . S
O16 Co14 2.091 . S
O16 C22 1.261 . S
C17 O26 1.247 . S
C17 O27 1.272 . S
O18 Co14 2.004 1_455 S
O18 C23 1.259 . S
Co19 O20 2.061 . S
Co19 O25 2.052 . S
Co19 O27 2.135 1_455 S
O20 Co19 2.061 . S
O20 C23 1.235 . S
C21 O24 1.238 . S
C21 O25 1.241 . S
C22 O15 1.247 . S
C22 O16 1.261 . S
C23 O18 1.259 . S
C23 O20 1.235 . S
O24 Co14 2.021 1_455 S
O24 C21 1.238 . S
O25 Co19 2.052 . S
O25 C21 1.241 . S
O26 Co14 2.137 . S
O26 C17 1.247 . S
O27 Co14 2.244 . S
O27 C17 1.272 . S
O27 Co19 2.135 1_655 S
Co28 O29 2.216 . S
Co28 O30 2.091 . S
Co28 O32 2.004 . S
Co28 O38 2.021 . S
Co28 O40 2.137 . S
Co28 O41 2.244 . S
O29 Co28 2.216 . S
O29 C36 1.247 . S
O30 Co28 2.091 . S
O30 C36 1.261 . S
C31 O40 1.247 . S
C31 O41 1.272 . S
O32 Co28 2.004 . S
O32 C37 1.259 . S
Co33 O34 2.061 . S
Co33 O39 2.052 . S
Co33 O41 2.135 . S
O34 Co33 2.061 . S
O34 C37 1.235 . S
C35 O38 1.238 . S
C35 O39 1.241 . S
C36 O29 1.247 . S
C36 O30 1.261 . S
C37 O32 1.259 . S
C37 O34 1.235 . S
O38 Co28 2.021 . S
O38 C35 1.238 . S
O39 Co33 2.052 . S
O39 C35 1.241 . S
O40 Co28 2.137 . S
O40 C31 1.247 . S
O41 Co28 2.244 . S
O41 C31 1.272 . S
O41 Co33 2.135 . S
Co42 O43 2.216 . S
Co42 O44 2.091 . S
Co42 O46 2.004 . S
Co42 O52 2.021 . S
Co42 O54 2.137 . S
Co42 O55 2.244 . S
O43 Co42 2.216 . S
O43 C50 1.247 . S
O44 Co42 2.091 . S
O44 C50 1.261 . S
C45 O54 1.247 . S
C45 O55 1.272 . S
O46 Co42 2.004 . S
O46 C51 1.259 . S
Co47 O48 2.061 . S
Co47 O53 2.052 . S
Co47 O55 2.135 . S
O48 Co47 2.061 . S
O48 C51 1.235 . S
C49 O52 1.238 . S
C49 O53 1.241 . S
C50 O43 1.247 . S
C50 O44 1.261 . S
C51 O46 1.259 . S
C51 O48 1.235 . S
O52 Co42 2.021 . S
O52 C49 1.238 . S
O53 Co47 2.052 . S
O53 C49 1.241 . S
O54 Co42 2.137 . S
O54 C45 1.247 . S
O55 Co42 2.244 . S
O55 C45 1.272 . S
O55 Co47 2.135 . S
Co56 O57 2.216 1_655 S
Co56 O58 2.091 . S
Co56 O60 2.004 . S
Co56 O66 2.021 1_655 S
Co56 O68 2.137 . S
Co56 O69 2.244 1_655 S
O57 Co56 2.216 1_455 S
O57 C64 1.247 1_455 S
O58 Co56 2.091 . S
O58 C64 1.261 . S
C59 O68 1.247 1_455 S
C59 O69 1.272 . S
O60 Co56 2.004 . S
O60 C65 1.259 . S
Co61 O62 2.061 . S
Co61 O67 2.052 . S
Co61 O69 2.135 . S
O62 Co61 2.061 . S
O62 C65 1.235 1_455 S
C63 O66 1.238 . S
C63 O67 1.241 . S
C64 O57 1.247 1_655 S
C64 O58 1.261 . S
C65 O60 1.259 . S
C65 O62 1.235 1_655 S
O66 Co56 2.021 1_455 S
O66 C63 1.238 . S
O67 Co61 2.052 . S
O67 C63 1.241 . S
O68 Co56 2.137 . S
O68 C59 1.247 1_655 S
O69 Co56 2.244 1_455 S
O69 C59 1.272 . S
O69 Co61 2.135 . S
Co70 O71 2.216 . S
Co70 O72 2.091 . S
Co70 O74 2.004 . S
Co70 O80 2.021 . S
Co70 O82 2.137 . S
Co70 O83 2.244 . S
O71 Co70 2.216 . S
O71 C78 1.247 . S
O72 Co70 2.091 . S
O72 C78 1.261 . S
C73 O82 1.247 . S
C73 O83 1.272 . S
O74 Co70 2.004 . S
O74 C79 1.259 . S
Co75 O76 2.061 . S
Co75 O81 2.052 . S
Co75 O83 2.135 . S
O76 Co75 2.061 . S
O76 C79 1.235 . S
C77 O80 1.238 . S
C77 O81 1.241 . S
C78 O71 1.247 . S
C78 O72 1.261 . S
C79 O74 1.259 . S
C79 O76 1.235 . S
O80 Co70 2.021 . S
O80 C77 1.238 . S
O81 Co75 2.052 . S
O81 C77 1.241 . S
O82 Co70 2.137 . S
O82 C73 1.247 . S
O83 Co70 2.244 . S
O83 C73 1.272 . S
O83 Co75 2.135 . S
Co84 O85 2.216 . S
Co84 O86 2.091 . S
Co84 O88 2.004 . S
Co84 O94 2.021 . S
Co84 O96 2.137 . S
Co84 O97 2.244 . S
O85 Co84 2.216 . S
O85 C92 1.247 . S
O86 Co84 2.091 . S
O86 C92 1.261 . S
C87 O96 1.247 . S
C87 O97 1.272 . S
O88 Co84 2.004 . S
O88 C93 1.259 . S
Co89 O90 2.061 . S
Co89 O95 2.052 . S
Co89 O97 2.135 . S
O90 Co89 2.061 . S
O90 C93 1.235 . S
C91 O94 1.238 . S
C91 O95 1.241 . S
C92 O85 1.247 . S
C92 O86 1.261 . S
C93 O88 1.259 . S
C93 O90 1.235 . S
O94 Co84 2.021 . S
O94 C91 1.238 . S
O95 Co89 2.052 . S
O95 C91 1.241 . S
O96 Co84 2.137 . S
O96 C87 1.247 . S
O97 Co84 2.244 . S
O97 C87 1.272 . S
O97 Co89 2.135 . S
Co98 O99 2.216 1_455 S
Co98 O100 2.091 . S
Co98 O102 2.004 . S
Co98 O108 2.021 . S
Co98 O110 2.137 1_455 S
Co98 O111 2.244 . S
O99 Co98 2.216 1_655 S
O99 C106 1.247 . S
O100 Co98 2.091 . S
O100 C106 1.261 1_455 S
C101 O110 1.247 . S
C101 O111 1.272 1_655 S
O102 Co98 2.004 . S
O102 C107 1.259 . S
Co103 O104 2.061 . S
Co103 O109 2.052 . S
Co103 O111 2.135 . S
O104 Co103 2.061 . S
O104 C107 1.235 . S
C105 O108 1.238 . S
C105 O109 1.241 . S
C106 O99 1.247 . S
C106 O100 1.261 1_655 S
C107 O102 1.259 . S
C107 O104 1.235 . S
O108 Co98 2.021 . S
O108 C105 1.238 . S
O109 Co103 2.052 . S
O109 C105 1.241 . S
O110 Co98 2.137 1_655 S
O110 C101 1.247 . S
O111 Co98 2.244 . S
O111 C101 1.272 1_455 S
O111 Co103 2.135 . S
Co112 O113 2.216 1_565 S
Co112 O114 2.091 . S
Co112 O116 2.004 . S
Co112 O122 2.021 1_565 S
Co112 O124 2.137 . S
Co112 O125 2.244 1_565 S
O113 Co112 2.216 1_545 S
O113 C120 1.247 1_545 S
O114 Co112 2.091 . S
O114 C120 1.261 . S
C115 O124 1.247 1_545 S
C115 O125 1.272 . S
O116 Co112 2.004 . S
O116 C121 1.259 . S
Co117 O118 2.061 . S
Co117 O123 2.052 . S
Co117 O125 2.135 . S
O118 Co117 2.061 . S
O118 C121 1.235 1_545 S
C119 O122 1.238 . S
C119 O123 1.241 . S
C120 O113 1.247 1_565 S
C120 O114 1.261 . S
C121 O116 1.259 . S
C121 O118 1.235 1_565 S
O122 Co112 2.021 1_545 S
O122 C119 1.238 . S
O123 Co117 2.052 . S
O123 C119 1.241 . S
O124 Co112 2.137 . S
O124 C115 1.247 1_565 S
O125 Co112 2.244 1_545 S
O125 C115 1.272 . S
O125 Co117 2.135 . S
Co126 O127 2.216 . S
Co126 O128 2.091 . S
Co126 O130 2.004 . S
Co126 O136 2.021 . S
Co126 O138 2.137 . S
Co126 O139 2.244 . S
O127 Co126 2.216 . S
O127 C134 1.247 . S
O128 Co126 2.091 . S
O128 C134 1.261 . S
C129 O138 1.247 . S
C129 O139 1.272 . S
O130 Co126 2.004 . S
O130 C135 1.259 . S
Co131 O132 2.061 . S
Co131 O137 2.052 . S
Co131 O139 2.135 . S
O132 Co131 2.061 . S
O132 C135 1.235 . S
C133 O136 1.238 . S
C133 O137 1.241 . S
C134 O127 1.247 . S
C134 O128 1.261 . S
C135 O130 1.259 . S
C135 O132 1.235 . S
O136 Co126 2.021 . S
O136 C133 1.238 . S
O137 Co131 2.052 . S
O137 C133 1.241 . S
O138 Co126 2.137 . S
O138 C129 1.247 . S
O139 Co126 2.244 . S
O139 C129 1.272 . S
O139 Co131 2.135 . S
Co140 O141 2.216 . S
Co140 O142 2.091 . S
Co140 O144 2.004 . S
Co140 O150 2.021 . S
Co140 O152 2.137 . S
Co140 O153 2.244 . S
O141 Co140 2.216 . S
O141 C148 1.247 . S
O142 Co140 2.091 . S
O142 C148 1.261 . S
C143 O152 1.247 . S
C143 O153 1.272 . S
O144 Co140 2.004 . S
O144 C149 1.259 . S
Co145 O146 2.061 . S
Co145 O151 2.052 . S
Co145 O153 2.135 . S
O146 Co145 2.061 . S
O146 C149 1.235 . S
C147 O150 1.238 . S
C147 O151 1.241 . S
C148 O141 1.247 . S
C148 O142 1.261 . S
C149 O144 1.259 . S
C149 O146 1.235 . S
O150 Co140 2.021 . S
O150 C147 1.238 . S
O151 Co145 2.052 . S
O151 C147 1.241 . S
O152 Co140 2.137 . S
O152 C143 1.247 . S
O153 Co140 2.244 . S
O153 C143 1.272 . S
O153 Co145 2.135 . S
Co154 O155 2.216 . S
Co154 O156 2.091 . S
Co154 O158 2.024 . S
Co154 O164 2.021 1_554 S
Co154 O166 2.137 . S
Co154 O167 2.244 . S
O155 Co154 2.216 . S
O155 C162 1.247 . S
O156 Co154 2.091 . S
O156 C162 1.261 . S
C157 O166 1.247 . S
C157 O167 1.272 . S
O158 Co154 2.024 . S
O158 C163 1.236 1_554 S
Co159 O160 2.061 . S
Co159 O165 2.052 . S
Co159 O167 2.135 1_556 S
O160 Co159 2.061 . S
O160 C163 1.235 . S
C161 O164 1.238 . S
C161 O165 1.241 . S
C162 O155 1.247 . S
C162 O156 1.261 . S
C163 O158 1.236 1_556 S
C163 O160 1.235 . S
O164 Co154 2.021 1_556 S
O164 C161 1.238 . S
O165 Co159 2.052 . S
O165 C161 1.241 . S
O166 Co154 2.137 . S
O166 C157 1.247 . S
O167 Co154 2.244 . S
O167 C157 1.272 . S
O167 Co159 2.135 1_554 S
Co168 O169 2.216 1_556 S
Co168 O170 2.091 . S
Co168 O172 2.004 . S
Co168 O178 2.021 1_556 S
Co168 O180 2.136 1_556 S
Co168 O181 2.244 1_556 S
O169 Co168 2.216 1_554 S
O169 C176 1.247 1_554 S
O170 Co168 2.091 . S
O170 C176 1.261 . S
C171 O180 1.266 . S
C171 O181 1.272 . S
O172 Co168 2.004 . S
O172 C177 1.259 . S
Co173 O174 2.061 . S
Co173 O179 2.052 . S
Co173 O181 2.135 . S
O174 Co173 2.061 . S
O174 C177 1.235 1_554 S
C175 O178 1.238 . S
C175 O179 1.241 . S
C176 O169 1.247 1_556 S
C176 O170 1.261 . S
C177 O172 1.259 . S
C177 O174 1.235 1_556 S
O178 Co168 2.021 1_554 S
O178 C175 1.238 . S
O179 Co173 2.052 . S
O179 C175 1.241 . S
O180 Co168 2.136 1_554 S
O180 C171 1.266 . S
O181 Co168 2.244 1_554 S
O181 C171 1.272 . S
O181 Co173 2.135 . S
Co182 O183 2.216 1_556 S
Co182 O184 2.091 . S
Co182 O186 2.004 . S
Co182 O192 2.021 1_556 S
Co182 O194 2.137 . S
Co182 O195 2.244 1_556 S
O183 Co182 2.216 1_554 S
O183 C190 1.247 1_554 S
O184 Co182 2.091 . S
O184 C190 1.261 . S
C185 O194 1.247 1_554 S
C185 O195 1.272 . S
O186 Co182 2.004 . S
O186 C191 1.259 . S
Co187 O188 2.061 . S
Co187 O193 2.052 . S
Co187 O195 2.135 . S
O188 Co187 2.061 . S
O188 C191 1.235 1_554 S
C189 O192 1.238 . S
C189 O193 1.241 . S
C190 O183 1.247 1_556 S
C190 O184 1.261 . S
C191 O186 1.259 . S
C191 O188 1.235 1_556 S
O192 Co182 2.021 1_554 S
O192 C189 1.238 . S
O193 Co187 2.052 . S
O193 C189 1.241 . S
O194 Co182 2.137 . S
O194 C185 1.247 1_556 S
O195 Co182 2.244 1_554 S
O195 C185 1.272 . S
O195 Co187 2.135 . S
Co196 O197 2.216 . S
Co196 O198 2.091 . S
Co196 O200 2.004 . S
Co196 O206 2.021 . S
Co196 O208 2.137 . S
Co196 O209 2.244 . S
O197 Co196 2.216 . S
O197 C204 1.247 . S
O198 Co196 2.091 . S
O198 C204 1.261 . S
C199 O208 1.247 . S
C199 O209 1.272 . S
O200 Co196 2.004 . S
O200 C205 1.259 . S
Co201 O202 2.061 . S
Co201 O207 2.052 . S
Co201 O209 2.135 . S
O202 Co201 2.061 . S
O202 C205 1.235 . S
C203 O206 1.238 . S
C203 O207 1.241 . S
C204 O197 1.247 . S
C204 O198 1.261 . S
C205 O200 1.259 . S
C205 O202 1.235 . S
O206 Co196 2.021 . S
O206 C203 1.238 . S
O207 Co201 2.052 . S
O207 C203 1.241 . S
O208 Co196 2.137 . S
O208 C199 1.247 . S
O209 Co196 2.244 . S
O209 C199 1.272 . S
O209 Co201 2.135 . S
Co210 O211 2.216 . S
Co210 O212 2.091 . S
Co210 O214 2.004 . S
Co210 O220 2.021 . S
Co210 O222 2.137 . S
Co210 O223 2.244 . S
O211 Co210 2.216 . S
O211 C218 1.247 . S
O212 Co210 2.091 . S
O212 C218 1.261 . S
C213 O222 1.247 . S
C213 O223 1.272 . S
O214 Co210 2.004 . S
O214 C219 1.259 . S
Co215 O216 2.061 . S
Co215 O221 2.052 . S
Co215 O223 2.135 . S
O216 Co215 2.061 . S
O216 C219 1.235 . S
C217 O220 1.238 . S
C217 O221 1.241 . S
C218 O211 1.247 . S
C218 O212 1.261 . S
C219 O214 1.259 . S
C219 O216 1.235 . S
O220 Co210 2.021 . S
O220 C217 1.238 . S
O221 Co215 2.052 . S
O221 C217 1.241 . S
O222 Co210 2.137 . S
O222 C213 1.247 . S
O223 Co210 2.244 . S
O223 C213 1.272 . S
O223 Co215 2.135 . S
Co224 O225 2.216 . S
Co224 O226 2.091 . S
Co224 O228 2.004 1_565 S
Co224 O234 2.021 1_565 S
Co224 O236 2.137 . S
Co224 O237 2.244 . S
O225 Co224 2.216 . S
O225 C232 1.247 . S
O226 Co224 2.091 . S
O226 C232 1.261 . S
C227 O236 1.247 . S
C227 O237 1.272 . S
O228 Co224 2.004 1_545 S
O228 C233 1.259 . S
Co229 O230 2.061 . S
Co229 O235 2.052 . S
Co229 O237 2.135 1_545 S
O230 Co229 2.061 . S
O230 C233 1.235 . S
C231 O234 1.238 . S
C231 O235 1.241 . S
C232 O225 1.247 . S
C232 O226 1.261 . S
C233 O228 1.259 . S
C233 O230 1.235 . S
O234 Co224 2.021 1_545 S
O234 C231 1.238 . S
O235 Co229 2.052 . S
O235 C231 1.241 . S
O236 Co224 2.137 . S
O236 C227 1.247 . S
O237 Co224 2.244 . S
O237 C227 1.272 . S
O237 Co229 2.135 1_565 S
Co238 O239 2.216 . S
Co238 O240 2.091 . S
Co238 O242 2.004 . S
Co238 O248 2.021 . S
Co238 O250 2.137 . S
Co238 O251 2.244 . S
O239 Co238 2.216 . S
O239 C246 1.247 . S
O240 Co238 2.091 . S
O240 C246 1.261 . S
C241 O250 1.247 . S
C241 O251 1.272 . S
O242 Co238 2.004 . S
O242 C247 1.259 . S
Co243 O244 2.061 . S
Co243 O249 2.052 . S
Co243 O251 2.135 . S
O244 Co243 2.061 . S
O244 C247 1.235 . S
C245 O248 1.238 . S
C245 O249 1.241 . S
C246 O239 1.247 . S
C246 O240 1.261 . S
C247 O242 1.259 . S
C247 O244 1.235 . S
O248 Co238 2.021 . S
O248 C245 1.238 . S
O249 Co243 2.052 . S
O249 C245 1.241 . S
O250 Co238 2.137 . S
O250 C241 1.247 . S
O251 Co238 2.244 . S
O251 C241 1.272 . S
O251 Co243 2.135 . S
Co252 O253 2.216 . S
Co252 O254 2.091 . S
Co252 O256 2.004 . S
Co252 O262 2.021 . S
Co252 O264 2.137 . S
Co252 O265 2.244 . S
O253 Co252 2.216 . S
O253 C260 1.247 . S
O254 Co252 2.091 . S
O254 C260 1.261 . S
C255 O264 1.247 . S
C255 O265 1.272 . S
O256 Co252 2.004 . S
O256 C261 1.259 . S
Co257 O258 2.061 . S
Co257 O263 2.052 . S
Co257 O265 2.135 . S
O258 Co257 2.061 . S
O258 C261 1.235 . S
C259 O262 1.238 . S
C259 O263 1.241 . S
C260 O253 1.247 . S
C260 O254 1.261 . S
C261 O256 1.259 . S
C261 O258 1.235 . S
O262 Co252 2.021 . S
O262 C259 1.238 . S
O263 Co257 2.052 . S
O263 C259 1.241 . S
O264 Co252 2.137 . S
O264 C255 1.247 . S
O265 Co252 2.244 . S
O265 C255 1.272 . S
O265 Co257 2.135 . S
Co266 O267 2.216 . S
Co266 O268 2.091 . S
Co266 O270 2.004 . S
Co266 O276 2.021 . S
Co266 O278 2.137 1_545 S
Co266 O279 2.244 . S
O267 Co266 2.216 . S
O267 C274 1.247 . S
O268 Co266 2.091 . S
O268 C274 1.261 . S
C269 O278 1.247 1_545 S
C269 O279 1.272 . S
O270 Co266 2.004 . S
O270 C275 1.259 . S
Co271 O272 2.061 . S
Co271 O277 2.052 . S
Co271 O279 2.135 . S
O272 Co271 2.061 . S
O272 C275 1.235 . S
C273 O276 1.238 . S
C273 O277 1.241 . S
C274 O267 1.247 . S
C274 O268 1.261 . S
C275 O270 1.259 . S
C275 O272 1.235 . S
O276 Co266 2.021 . S
O276 C273 1.238 . S
O277 Co271 2.052 . S
O277 C273 1.241 . S
O278 Co266 2.137 1_565 S
O278 C269 1.247 1_565 S
O279 Co266 2.244 . S
O279 C269 1.272 . S
O279 Co271 2.135 . S
Co280 O281 2.216 . S
Co280 O282 2.091 . S
Co280 O284 2.004 1_554 S
Co280 O290 2.021 1_554 S
Co280 O292 2.137 . S
Co280 O293 2.244 . S
O281 Co280 2.216 . S
O281 C288 1.247 . S
O282 Co280 2.091 . S
O282 C288 1.261 . S
C283 O292 1.247 . S
C283 O293 1.272 . S
O284 Co280 2.004 1_556 S
O284 C289 1.259 . S
Co285 O286 2.061 . S
Co285 O291 2.052 . S
Co285 O293 2.135 1_556 S
O286 Co285 2.061 . S
O286 C289 1.235 . S
C287 O290 1.238 . S
C287 O291 1.241 . S
C288 O281 1.247 . S
C288 O282 1.261 . S
C289 O284 1.259 . S
C289 O286 1.235 . S
O290 Co280 2.021 1_556 S
O290 C287 1.238 . S
O291 Co285 2.052 . S
O291 C287 1.241 . S
O292 Co280 2.137 . S
O292 C283 1.247 . S
O293 Co280 2.244 . S
O293 C283 1.272 . S
O293 Co285 2.135 1_554 S
Co294 O295 2.216 . S
Co294 O296 2.091 . S
Co294 O298 2.004 . S
Co294 O304 2.021 . S
Co294 O306 2.137 . S
Co294 O307 2.244 . S
O295 Co294 2.216 . S
O295 C302 1.247 . S
O296 Co294 2.091 . S
O296 C302 1.261 . S
C297 O306 1.247 . S
C297 O307 1.272 . S
O298 Co294 2.004 . S
O298 C303 1.259 . S
Co299 O300 2.061 . S
Co299 O305 2.052 . S
Co299 O307 2.135 . S
O300 Co299 2.061 . S
O300 C303 1.235 . S
C301 O304 1.238 . S
C301 O305 1.241 . S
C302 O295 1.247 . S
C302 O296 1.261 . S
C303 O298 1.259 . S
C303 O300 1.235 . S
O304 Co294 2.021 . S
O304 C301 1.238 . S
O305 Co299 2.052 . S
O305 C301 1.241 . S
O306 Co294 2.137 . S
O306 C297 1.247 . S
O307 Co294 2.244 . S
O307 C297 1.272 . S
O307 Co299 2.135 . S
Co308 O309 2.216 . S
Co308 O310 2.091 . S
Co308 O312 2.004 . S
Co308 O318 2.021 . S
Co308 O320 2.137 . S
Co308 O321 2.244 . S
O309 Co308 2.216 . S
O309 C316 1.247 . S
O310 Co308 2.091 . S
O310 C316 1.261 . S
C311 O320 1.247 . S
C311 O321 1.272 . S
O312 Co308 2.004 . S
O312 C317 1.259 . S
Co313 O314 2.061 . S
Co313 O319 2.052 . S
Co313 O321 2.135 . S
O314 Co313 2.061 . S
O314 C317 1.235 . S
C315 O318 1.238 . S
C315 O319 1.241 . S
C316 O309 1.247 . S
C316 O310 1.261 . S
C317 O312 1.259 . S
C317 O314 1.235 . S
O318 Co308 2.021 . S
O318 C315 1.238 . S
O319 Co313 2.052 . S
O319 C315 1.241 . S
O320 Co308 2.137 . S
O320 C311 1.247 . S
O321 Co308 2.244 . S
O321 C311 1.272 . S
O321 Co313 2.135 . S
Co322 O323 2.216 . S
Co322 O324 2.091 . S
Co322 O326 2.004 . S
Co322 O332 2.021 . S
Co322 O334 2.137 . S
Co322 O335 2.244 . S
O323 Co322 2.216 . S
O323 C330 1.247 . S
O324 Co322 2.091 . S
O324 C330 1.261 . S
C325 O334 1.247 . S
C325 O335 1.272 . S
O326 Co322 2.004 . S
O326 C331 1.259 . S
Co327 O328 2.061 . S
Co327 O333 2.052 . S
Co327 O335 2.135 . S
O328 Co327 2.061 . S
O328 C331 1.235 . S
C329 O332 1.238 . S
C329 O333 1.241 . S
C330 O323 1.247 . S
C330 O324 1.261 . S
C331 O326 1.259 . S
C331 O328 1.235 . S
O332 Co322 2.021 . S
O332 C329 1.238 . S
O333 Co327 2.052 . S
O333 C329 1.241 . S
O334 Co322 2.137 . S
O334 C325 1.247 . S
O335 Co322 2.244 . S
O335 C325 1.272 . S
O335 Co327 2.135 . S
O336 Mn337 2.163 . S
O336 C350 1.244 . S
Mn337 O336 2.163 . S
Mn337 O340 2.160 . S
Mn337 O341 2.221 . S
Mn337 O343 2.163 . S
Mn337 O345 2.160 . S
Mn337 O355 2.221 . S
O338 Mn339 2.087 . S
O338 C350 1.256 . S
Mn339 O338 2.087 . S
Mn339 O346 2.089 . S
Mn339 O355 2.290 . S
Mn339 O356 2.251 . S
O340 Mn337 2.160 . S
O340 C351 1.239 . S
O341 Mn337 2.221 . S
O341 Mn342 2.290 . S
O341 C352 1.278 . S
Mn342 O341 2.290 . S
Mn342 O344 2.089 . S
Mn342 O347 2.251 . S
Mn342 O348 2.087 . S
O343 Mn337 2.163 . S
O343 C353 1.244 . S
O344 Mn342 2.089 . S
O344 C351 1.256 . S
O345 Mn337 2.160 . S
O345 C354 1.239 . S
O346 Mn339 2.089 . S
O346 C354 1.256 . S
O347 Mn342 2.251 . S
O347 C352 1.241 . S
O348 Mn342 2.087 . S
O348 C353 1.256 . S
C349 O355 1.278 . S
C349 O356 1.241 . S
C350 O336 1.244 . S
C350 O338 1.256 . S
C351 O340 1.239 . S
C351 O344 1.256 . S
C352 O341 1.278 . S
C352 O347 1.241 . S
C353 O343 1.244 . S
C353 O348 1.256 . S
C354 O345 1.239 . S
C354 O346 1.256 . S
O355 Mn337 2.221 . S
O355 Mn339 2.290 . S
O355 C349 1.278 . S
O356 Mn339 2.251 . S
O356 C349 1.241 . S
O357 Mn358 2.163 . S
O357 C371 1.244 . S
Mn358 O357 2.163 . S
Mn358 O361 2.160 . S
Mn358 O362 2.221 . S
Mn358 O364 2.163 . S
Mn358 O366 2.160 . S
Mn358 O376 2.221 . S
O359 Mn360 2.087 . S
O359 C371 1.256 . S
Mn360 O359 2.087 . S
Mn360 O367 2.089 . S
Mn360 O376 2.290 . S
Mn360 O377 2.251 . S
O361 Mn358 2.160 . S
O361 C372 1.239 . S
O362 Mn358 2.221 . S
O362 Mn363 2.290 . S
O362 C373 1.278 . S
Mn363 O362 2.290 . S
Mn363 O365 2.089 . S
Mn363 O368 2.251 . S
Mn363 O369 2.087 . S
O364 Mn358 2.163 . S
O364 C374 1.244 . S
O365 Mn363 2.089 . S
O365 C372 1.256 . S
O366 Mn358 2.160 . S
O366 C375 1.239 . S
O367 Mn360 2.089 . S
O367 C375 1.256 . S
O368 Mn363 2.251 . S
O368 C373 1.241 . S
O369 Mn363 2.087 . S
O369 C374 1.256 . S
C370 O376 1.278 . S
C370 O377 1.241 . S
C371 O357 1.244 . S
C371 O359 1.256 . S
C372 O361 1.239 . S
C372 O365 1.256 . S
C373 O362 1.278 . S
C373 O368 1.241 . S
C374 O364 1.244 . S
C374 O369 1.256 . S
C375 O366 1.239 . S
C375 O367 1.256 . S
O376 Mn358 2.221 . S
O376 Mn360 2.290 . S
O376 C370 1.278 . S
O377 Mn360 2.251 . S
O377 C370 1.241 . S
O378 Mn379 2.163 . S
O378 C392 1.244 . S
Mn379 O378 2.163 . S
Mn379 O382 2.160 . S
Mn379 O383 2.221 . S
Mn379 O385 2.163 . S
Mn379 O387 2.160 . S
Mn379 O397 2.221 . S
O380 Mn381 2.087 1_545 S
O380 C392 1.255 1_545 S
Mn381 O380 2.087 1_565 S
Mn381 O388 2.089 . S
Mn381 O397 2.290 . S
Mn381 O398 2.251 1_565 S
O382 Mn379 2.160 . S
O382 C393 1.239 . S
O383 Mn379 2.221 . S
O383 Mn384 2.290 . S
O383 C394 1.278 . S
Mn384 O383 2.290 . S
Mn384 O386 2.089 . S
Mn384 O389 2.251 . S
Mn384 O390 2.087 . S
O385 Mn379 2.163 . S
O385 C395 1.244 . S
O386 Mn384 2.089 . S
O386 C393 1.256 . S
O387 Mn379 2.160 . S
O387 C396 1.239 . S
O388 Mn381 2.089 . S
O388 C396 1.256 . S
O389 Mn384 2.251 . S
O389 C394 1.241 . S
O390 Mn384 2.087 . S
O390 C395 1.256 . S
C391 O397 1.278 . S
C391 O398 1.241 1_565 S
C392 O378 1.244 . S
C392 O380 1.255 1_565 S
C393 O382 1.239 . S
C393 O386 1.256 . S
C394 O383 1.278 . S
C394 O389 1.241 . S
C395 O385 1.244 . S
C395 O390 1.256 . S
C396 O387 1.239 . S
C396 O388 1.256 . S
O397 Mn379 2.221 . S
O397 Mn381 2.290 . S
O397 C391 1.278 . S
O398 Mn381 2.251 1_545 S
O398 C391 1.241 1_545 S
O399 Mn400 2.163 . S
O399 C413 1.244 . S
Mn400 O399 2.163 . S
Mn400 O403 2.160 . S
Mn400 O404 2.221 . S
Mn400 O406 2.163 . S
Mn400 O408 2.160 . S
Mn400 O418 2.221 . S
O401 Mn402 2.087 . S
O401 C413 1.256 . S
Mn402 O401 2.087 . S
Mn402 O409 2.089 . S
Mn402 O418 2.290 . S
Mn402 O419 2.251 . S
O403 Mn400 2.160 . S
O403 C414 1.239 . S
O404 Mn400 2.221 . S
O404 Mn405 2.290 . S
O404 C415 1.278 . S
Mn405 O404 2.290 . S
Mn405 O407 2.089 . S
Mn405 O410 2.251 . S
Mn405 O411 2.087 . S
O406 Mn400 2.163 . S
O406 C416 1.244 . S
O407 Mn405 2.089 . S
O407 C414 1.256 . S
O408 Mn400 2.160 . S
O408 C417 1.239 . S
O409 Mn402 2.089 . S
O409 C417 1.256 . S
O410 Mn405 2.251 . S
O410 C415 1.241 . S
O411 Mn405 2.087 . S
O411 C416 1.256 . S
C412 O418 1.278 . S
C412 O419 1.241 . S
C413 O399 1.244 . S
C413 O401 1.256 . S
C414 O403 1.239 . S
C414 O407 1.256 . S
C415 O404 1.278 . S
C415 O410 1.241 . S
C416 O406 1.244 . S
C416 O411 1.256 . S
C417 O408 1.239 . S
C417 O409 1.256 . S
O418 Mn400 2.221 . S
O418 Mn402 2.290 . S
O418 C412 1.278 . S
O419 Mn402 2.251 . S
O419 C412 1.241 . S
O420 Mn421 2.163 . S
O420 C434 1.244 . S
Mn421 O420 2.163 . S
Mn421 O424 2.160 . S
Mn421 O425 2.221 . S
Mn421 O427 2.163 . S
Mn421 O429 2.160 . S
Mn421 O439 2.221 . S
O422 Mn423 2.087 . S
O422 C434 1.256 . S
Mn423 O422 2.087 . S
Mn423 O430 2.089 . S
Mn423 O439 2.290 . S
Mn423 O440 2.251 . S
O424 Mn421 2.160 . S
O424 C435 1.239 . S
O425 Mn421 2.221 . S
O425 Mn426 2.290 . S
O425 C436 1.278 . S
Mn426 O425 2.290 . S
Mn426 O428 2.089 . S
Mn426 O431 2.251 . S
Mn426 O432 2.087 . S
O427 Mn421 2.163 . S
O427 C437 1.244 . S
O428 Mn426 2.089 . S
O428 C435 1.256 . S
O429 Mn421 2.160 . S
O429 C438 1.239 . S
O430 Mn423 2.089 . S
O430 C438 1.256 . S
O431 Mn426 2.251 . S
O431 C436 1.241 . S
O432 Mn426 2.087 . S
O432 C437 1.256 . S
C433 O439 1.278 . S
C433 O440 1.241 . S
C434 O420 1.244 . S
C434 O422 1.256 . S
C435 O424 1.239 . S
C435 O428 1.256 . S
C436 O425 1.278 . S
C436 O431 1.241 . S
C437 O427 1.244 . S
C437 O432 1.256 . S
C438 O429 1.239 . S
C438 O430 1.256 . S
O439 Mn421 2.221 . S
O439 Mn423 2.290 . S
O439 C433 1.278 . S
O440 Mn423 2.251 . S
O440 C433 1.241 . S
O441 Mn442 2.163 . S
O441 C455 1.244 . S
Mn442 O441 2.163 . S
Mn442 O445 2.160 . S
Mn442 O446 2.221 . S
Mn442 O448 2.163 . S
Mn442 O450 2.160 . S
Mn442 O460 2.221 . S
O443 Mn444 2.087 . S
O443 C455 1.256 . S
Mn444 O443 2.087 . S
Mn444 O451 2.089 . S
Mn444 O460 2.290 . S
Mn444 O461 2.251 . S
O445 Mn442 2.160 . S
O445 C456 1.239 . S
O446 Mn442 2.221 . S
O446 Mn447 2.290 . S
O446 C457 1.278 . S
Mn447 O446 2.290 . S
Mn447 O449 2.089 . S
Mn447 O452 2.251 . S
Mn447 O453 2.087 . S
O448 Mn442 2.163 . S
O448 C458 1.244 . S
O449 Mn447 2.089 . S
O449 C456 1.256 . S
O450 Mn442 2.160 . S
O450 C459 1.239 . S
O451 Mn444 2.089 . S
O451 C459 1.256 . S
O452 Mn447 2.251 . S
O452 C457 1.241 . S
O453 Mn447 2.087 . S
O453 C458 1.256 . S
C454 O460 1.278 . S
C454 O461 1.241 . S
C455 O441 1.244 . S
C455 O443 1.256 . S
C456 O445 1.239 . S
C456 O449 1.256 . S
C457 O446 1.278 . S
C457 O452 1.241 . S
C458 O448 1.244 . S
C458 O453 1.256 . S
C459 O450 1.239 . S
C459 O451 1.256 . S
O460 Mn442 2.221 . S
O460 Mn444 2.290 . S
O460 C454 1.278 . S
O461 Mn444 2.251 . S
O461 C454 1.241 . S
O462 Mn463 2.163 . S
O462 C476 1.244 . S
Mn463 O462 2.163 . S
Mn463 O466 2.160 . S
Mn463 O467 2.221 . S
Mn463 O469 2.163 . S
Mn463 O471 2.160 . S
Mn463 O481 2.221 . S
O464 Mn465 2.087 . S
O464 C476 1.256 . S
Mn465 O464 2.087 . S
Mn465 O472 2.089 . S
Mn465 O481 2.290 . S
Mn465 O482 2.251 . S
O466 Mn463 2.160 . S
O466 C477 1.239 . S
O467 Mn463 2.221 . S
O467 Mn468 2.290 . S
O467 C478 1.278 . S
Mn468 O467 2.290 . S
Mn468 O470 2.089 . S
Mn468 O473 2.251 . S
Mn468 O474 2.087 . S
O469 Mn463 2.163 . S
O469 C479 1.244 . S
O470 Mn468 2.089 . S
O470 C477 1.256 . S
O471 Mn463 2.160 . S
O471 C480 1.239 . S
O472 Mn465 2.089 . S
O472 C480 1.256 . S
O473 Mn468 2.251 . S
O473 C478 1.241 . S
O474 Mn468 2.087 . S
O474 C479 1.256 . S
C475 O481 1.278 . S
C475 O482 1.241 . S
C476 O462 1.244 . S
C476 O464 1.256 . S
C477 O466 1.239 . S
C477 O470 1.256 . S
C478 O467 1.278 . S
C478 O473 1.241 . S
C479 O469 1.244 . S
C479 O474 1.256 . S
C480 O471 1.239 . S
C480 O472 1.256 . S
O481 Mn463 2.221 . S
O481 Mn465 2.290 . S
O481 C475 1.278 . S
O482 Mn465 2.251 . S
O482 C475 1.241 . S
O483 Mn484 2.163 . S
O483 C497 1.244 . S
Mn484 O483 2.163 . S
Mn484 O487 2.160 . S
Mn484 O488 2.221 . S
Mn484 O490 2.163 . S
Mn484 O492 2.160 . S
Mn484 O502 2.221 . S
O485 Mn486 2.087 . S
O485 C497 1.256 . S
Mn486 O485 2.087 . S
Mn486 O493 2.089 . S
Mn486 O502 2.290 . S
Mn486 O503 2.251 . S
O487 Mn484 2.160 . S
O487 C498 1.239 . S
O488 Mn484 2.221 . S
O488 Mn489 2.290 . S
O488 C499 1.278 . S
Mn489 O488 2.290 . S
Mn489 O491 2.077 1_565 S
Mn489 O494 2.251 . S
Mn489 O495 2.087 . S
O490 Mn484 2.163 . S
O490 C500 1.244 . S
O491 Mn489 2.077 1_545 S
O491 C498 1.249 1_545 S
O492 Mn484 2.160 . S
O492 C501 1.239 . S
O493 Mn486 2.089 . S
O493 C501 1.256 . S
O494 Mn489 2.251 . S
O494 C499 1.241 . S
O495 Mn489 2.087 . S
O495 C500 1.256 . S
C496 O502 1.278 . S
C496 O503 1.241 . S
C497 O483 1.244 . S
C497 O485 1.256 . S
C498 O487 1.239 . S
C498 O491 1.249 1_565 S
C499 O488 1.278 . S
C499 O494 1.241 . S
C500 O490 1.244 . S
C500 O495 1.256 . S
C501 O492 1.239 . S
C501 O493 1.256 . S
O502 Mn484 2.221 . S
O502 Mn486 2.290 . S
O502 C496 1.278 . S
O503 Mn486 2.251 . S
O503 C496 1.241 . S
O504 Mn505 2.163 . S
O504 C518 1.244 . S
Mn505 O504 2.163 . S
Mn505 O508 2.160 . S
Mn505 O509 2.221 . S
Mn505 O511 2.163 . S
Mn505 O513 2.160 . S
Mn505 O523 2.221 . S
O506 Mn507 2.087 . S
O506 C518 1.256 . S
Mn507 O506 2.087 . S
Mn507 O514 2.089 . S
Mn507 O523 2.290 . S
Mn507 O524 2.251 . S
O508 Mn505 2.160 . S
O508 C519 1.239 . S
O509 Mn505 2.221 . S
O509 Mn510 2.290 . S
O509 C520 1.278 . S
Mn510 O509 2.290 . S
Mn510 O512 2.089 . S
Mn510 O515 2.251 . S
Mn510 O516 2.087 . S
O511 Mn505 2.163 . S
O511 C521 1.244 . S
O512 Mn510 2.089 . S
O512 C519 1.256 . S
O513 Mn505 2.160 . S
O513 C522 1.239 . S
O514 Mn507 2.089 . S
O514 C522 1.256 . S
O515 Mn510 2.251 . S
O515 C520 1.241 . S
O516 Mn510 2.087 . S
O516 C521 1.256 . S
C517 O523 1.278 . S
C517 O524 1.241 . S
C518 O504 1.244 . S
C518 O506 1.256 . S
C519 O508 1.239 . S
C519 O512 1.256 . S
C520 O509 1.278 . S
C520 O515 1.241 . S
C521 O511 1.244 . S
C521 O516 1.256 . S
C522 O513 1.239 . S
C522 O514 1.256 . S
O523 Mn505 2.221 . S
O523 Mn507 2.290 . S
O523 C517 1.278 . S
O524 Mn507 2.251 . S
O524 C517 1.241 . S
O525 Mn526 2.163 . S
O525 C539 1.244 . S
Mn526 O525 2.163 . S
Mn526 O529 2.160 . S
Mn526 O530 2.221 . S
Mn526 O532 2.163 . S
Mn526 O534 2.160 . S
Mn526 O544 2.221 . S
O527 Mn528 2.087 . S
O527 C539 1.256 . S
Mn528 O527 2.087 . S
Mn528 O535 2.089 . S
Mn528 O544 2.290 . S
Mn528 O545 2.251 . S
O529 Mn526 2.160 . S
O529 C540 1.239 . S
O530 Mn526 2.221 . S
O530 Mn531 2.290 . S
O530 C541 1.278 . S
Mn531 O530 2.290 . S
Mn531 O533 2.089 . S
Mn531 O536 2.251 . S
Mn531 O537 2.087 . S
O532 Mn526 2.163 . S
O532 C542 1.244 . S
O533 Mn531 2.089 . S
O533 C540 1.256 . S
O534 Mn526 2.160 . S
O534 C543 1.239 . S
O535 Mn528 2.089 . S
O535 C543 1.256 . S
O536 Mn531 2.251 . S
O536 C541 1.241 . S
O537 Mn531 2.087 . S
O537 C542 1.256 . S
C538 O544 1.278 . S
C538 O545 1.241 . S
C539 O525 1.244 . S
C539 O527 1.256 . S
C540 O529 1.239 . S
C540 O533 1.256 . S
C541 O530 1.278 . S
C541 O536 1.241 . S
C542 O532 1.244 . S
C542 O537 1.256 . S
C543 O534 1.239 . S
C543 O535 1.256 . S
O544 Mn526 2.221 . S
O544 Mn528 2.290 . S
O544 C538 1.278 . S
O545 Mn528 2.251 . S
O545 C538 1.241 . S
O546 Mn547 2.163 . S
O546 C560 1.244 . S
Mn547 O546 2.163 . S
Mn547 O550 2.160 . S
Mn547 O551 2.221 . S
Mn547 O553 2.163 . S
Mn547 O555 2.160 . S
Mn547 O565 2.221 . S
O548 Mn549 2.087 . S
O548 C560 1.256 . S
Mn549 O548 2.087 . S
Mn549 O556 2.089 . S
Mn549 O565 2.290 . S
Mn549 O566 2.251 . S
O550 Mn547 2.160 . S
O550 C561 1.239 . S
O551 Mn547 2.221 . S
O551 Mn552 2.290 . S
O551 C562 1.278 . S
Mn552 O551 2.290 . S
Mn552 O554 2.089 . S
Mn552 O557 2.251 . S
Mn552 O558 2.087 . S
O553 Mn547 2.163 . S
O553 C563 1.244 . S
O554 Mn552 2.089 . S
O554 C561 1.256 . S
O555 Mn547 2.160 . S
O555 C564 1.239 . S
O556 Mn549 2.089 . S
O556 C564 1.256 . S
O557 Mn552 2.251 . S
O557 C562 1.241 . S
O558 Mn552 2.087 . S
O558 C563 1.256 . S
C559 O565 1.278 . S
C559 O566 1.241 . S
C560 O546 1.244 . S
C560 O548 1.256 . S
C561 O550 1.239 . S
C561 O554 1.256 . S
C562 O551 1.278 . S
C562 O557 1.241 . S
C563 O553 1.244 . S
C563 O558 1.256 . S
C564 O555 1.239 . S
C564 O556 1.256 . S
O565 Mn547 2.221 . S
O565 Mn549 2.290 . S
O565 C559 1.278 . S
O566 Mn549 2.251 . S
O566 C559 1.241 . S
O567 Mn568 2.163 . S
O567 C581 1.244 . S
Mn568 O567 2.163 . S
Mn568 O571 2.160 . S
Mn568 O572 2.221 . S
Mn568 O574 2.163 . S
Mn568 O576 2.160 . S
Mn568 O586 2.221 . S
O569 Mn570 2.087 . S
O569 C581 1.256 . S
Mn570 O569 2.087 . S
Mn570 O577 2.089 . S
Mn570 O586 2.290 . S
Mn570 O587 2.251 . S
O571 Mn568 2.160 . S
O571 C582 1.239 . S
O572 Mn568 2.221 . S
O572 Mn573 2.290 . S
O572 C583 1.278 . S
Mn573 O572 2.290 . S
Mn573 O575 2.089 . S
Mn573 O578 2.251 . S
Mn573 O579 2.087 . S
O574 Mn568 2.163 . S
O574 C584 1.244 . S
O575 Mn573 2.089 . S
O575 C582 1.256 . S
O576 Mn568 2.160 . S
O576 C585 1.239 . S
O577 Mn570 2.089 . S
O577 C585 1.256 . S
O578 Mn573 2.251 . S
O578 C583 1.241 . S
O579 Mn573 2.087 . S
O579 C584 1.256 . S
C580 O586 1.278 . S
C580 O587 1.241 . S
C581 O567 1.244 . S
C581 O569 1.256 . S
C582 O571 1.239 . S
C582 O575 1.256 . S
C583 O572 1.278 . S
C583 O578 1.241 . S
C584 O574 1.244 . S
C584 O579 1.256 . S
C585 O576 1.239 . S
C585 O577 1.256 . S
O586 Mn568 2.221 . S
O586 Mn570 2.290 . S
O586 C580 1.278 . S
O587 Mn570 2.251 . S
O587 C580 1.241 . S
O588 Mn589 2.163 . S
O588 C602 1.244 . S
Mn589 O588 2.163 . S
Mn589 O592 2.160 . S
Mn589 O593 2.221 . S
Mn589 O595 2.163 . S
Mn589 O597 2.160 . S
Mn589 O607 2.221 . S
O590 Mn591 2.087 . S
O590 C602 1.256 . S
Mn591 O590 2.087 . S
Mn591 O598 2.089 . S
Mn591 O607 2.290 . S
Mn591 O608 2.251 . S
O592 Mn589 2.160 . S
O592 C603 1.239 . S
O593 Mn589 2.221 . S
O593 Mn594 2.290 . S
O593 C604 1.278 . S
Mn594 O593 2.290 . S
Mn594 O596 2.089 . S
Mn594 O599 2.251 . S
Mn594 O600 2.087 . S
O595 Mn589 2.163 . S
O595 C605 1.244 . S
O596 Mn594 2.089 . S
O596 C603 1.256 . S
O597 Mn589 2.160 . S
O597 C606 1.239 . S
O598 Mn591 2.089 . S
O598 C606 1.256 . S
O599 Mn594 2.251 . S
O599 C604 1.241 . S
O600 Mn594 2.087 . S
O600 C605 1.256 . S
C601 O607 1.278 . S
C601 O608 1.241 . S
C602 O588 1.244 . S
C602 O590 1.256 . S
C603 O592 1.239 . S
C603 O596 1.256 . S
C604 O593 1.278 . S
C604 O599 1.241 . S
C605 O595 1.244 . S
C605 O600 1.256 . S
C606 O597 1.239 . S
C606 O598 1.256 . S
O607 Mn589 2.221 . S
O607 Mn591 2.290 . S
O607 C601 1.278 . S
O608 Mn591 2.251 . S
O608 C601 1.241 . S
O609 Mn610 2.163 . S
O609 C623 1.244 . S
Mn610 O609 2.163 . S
Mn610 O613 2.160 . S
Mn610 O614 2.221 . S
Mn610 O616 2.163 . S
Mn610 O618 2.160 . S
Mn610 O628 2.221 . S
O611 Mn612 2.087 . S
O611 C623 1.256 . S
Mn612 O611 2.087 . S
Mn612 O619 2.089 . S
Mn612 O628 2.290 . S
Mn612 O629 2.251 . S
O613 Mn610 2.160 . S
O613 C624 1.239 . S
O614 Mn610 2.221 . S
O614 Mn615 2.290 . S
O614 C625 1.278 . S
Mn615 O614 2.290 . S
Mn615 O617 2.089 . S
Mn615 O620 2.251 . S
Mn615 O621 2.087 . S
O616 Mn610 2.163 . S
O616 C626 1.244 . S
O617 Mn615 2.089 . S
O617 C624 1.256 . S
O618 Mn610 2.160 . S
O618 C627 1.239 . S
O619 Mn612 2.089 . S
O619 C627 1.256 . S
O620 Mn615 2.251 . S
O620 C625 1.241 . S
O621 Mn615 2.087 . S
O621 C626 1.256 . S
C622 O628 1.278 . S
C622 O629 1.241 . S
C623 O609 1.244 . S
C623 O611 1.256 . S
C624 O613 1.239 . S
C624 O617 1.256 . S
C625 O614 1.278 . S
C625 O620 1.241 . S
C626 O616 1.244 . S
C626 O621 1.256 . S
C627 O618 1.239 . S
C627 O619 1.256 . S
O628 Mn610 2.221 . S
O628 Mn612 2.290 . S
O628 C622 1.278 . S
O629 Mn612 2.251 . S
O629 C622 1.241 . S
O630 Mn631 2.163 . S
O630 C644 1.244 . S
Mn631 O630 2.163 . S
Mn631 O634 2.160 . S
Mn631 O635 2.221 . S
Mn631 O637 2.163 . S
Mn631 O639 2.160 . S
Mn631 O649 2.221 . S
O632 Mn633 2.087 . S
O632 C644 1.256 . S
Mn633 O632 2.087 . S
Mn633 O640 2.089 . S
Mn633 O649 2.290 . S
Mn633 O650 2.251 . S
O634 Mn631 2.160 . S
O634 C645 1.239 . S
O635 Mn631 2.221 . S
O635 Mn636 2.290 . S
O635 C646 1.278 . S
Mn636 O635 2.290 . S
Mn636 O638 2.089 . S
Mn636 O641 2.251 . S
Mn636 O642 2.087 . S
O637 Mn631 2.163 . S
O637 C647 1.244 . S
O638 Mn636 2.089 . S
O638 C645 1.256 . S
O639 Mn631 2.160 . S
O639 C648 1.239 . S
O640 Mn633 2.089 . S
O640 C648 1.256 . S
O641 Mn636 2.251 . S
O641 C646 1.241 . S
O642 Mn636 2.087 . S
O642 C647 1.256 . S
C643 O649 1.278 . S
C643 O650 1.241 . S
C644 O630 1.244 . S
C644 O632 1.256 . S
C645 O634 1.239 . S
C645 O638 1.256 . S
C646 O635 1.278 . S
C646 O641 1.241 . S
C647 O637 1.244 . S
C647 O642 1.256 . S
C648 O639 1.239 . S
C648 O640 1.256 . S
O649 Mn631 2.221 . S
O649 Mn633 2.290 . S
O649 C643 1.278 . S
O650 Mn633 2.251 . S
O650 C643 1.241 . S
O651 Mn652 2.163 . S
O651 C665 1.244 . S
Mn652 O651 2.163 . S
Mn652 O655 2.160 . S
Mn652 O656 2.221 . S
Mn652 O658 2.163 . S
Mn652 O660 2.160 . S
Mn652 O670 2.221 . S
O653 Mn654 2.087 . S
O653 C665 1.256 . S
Mn654 O653 2.087 . S
Mn654 O661 2.089 . S
Mn654 O670 2.290 . S
Mn654 O671 2.251 . S
O655 Mn652 2.160 . S
O655 C666 1.239 . S
O656 Mn652 2.221 . S
O656 Mn657 2.290 . S
O656 C667 1.278 . S
Mn657 O656 2.290 . S
Mn657 O659 2.089 . S
Mn657 O662 2.251 . S
Mn657 O663 2.087 . S
O658 Mn652 2.163 . S
O658 C668 1.244 . S
O659 Mn657 2.089 . S
O659 C666 1.256 . S
O660 Mn652 2.160 . S
O660 C669 1.239 . S
O661 Mn654 2.089 . S
O661 C669 1.256 . S
O662 Mn657 2.251 . S
O662 C667 1.241 . S
O663 Mn657 2.087 . S
O663 C668 1.256 . S
C664 O670 1.278 . S
C664 O671 1.241 . S
C665 O651 1.244 . S
C665 O653 1.256 . S
C666 O655 1.239 . S
C666 O659 1.256 . S
C667 O656 1.278 . S
C667 O662 1.241 . S
C668 O658 1.244 . S
C668 O663 1.256 . S
C669 O660 1.239 . S
C669 O661 1.256 . S
O670 Mn652 2.221 . S
O670 Mn654 2.290 . S
O670 C664 1.278 . S
O671 Mn654 2.251 . S
O671 C664 1.241 . S
C672 C673 1.369 . S
C672 C674 1.419 . S
C672 H676 0.930 . S
C673 C672 1.369 . S
C673 C682 1.429 . S
C674 C672 1.419 . S
C674 C675 1.363 . S
C674 H677 0.929 . S
C675 C674 1.363 . S
C675 C681 1.428 . S
H676 C672 0.930 . S
H677 C674 0.929 . S
S678 N679 1.613 . S
S678 N680 1.610 . S
N679 S678 1.613 . S
N679 C682 1.350 . S
N680 S678 1.610 . S
N680 C681 1.351 . S
C681 C675 1.428 . S
C681 N680 1.351 . S
C681 C682 1.434 . S
C682 C673 1.429 . S
C682 N679 1.350 . S
C682 C681 1.434 . S
C683 C684 1.369 . S
C683 C685 1.419 . S
C683 H687 0.930 . S
C684 C683 1.369 . S
C684 C693 1.429 . S
C685 C683 1.419 . S
C685 C686 1.363 . S
C685 H688 0.929 . S
C686 C685 1.363 . S
C686 C692 1.428 . S
H687 C683 0.930 . S
H688 C685 0.929 . S
S689 N690 1.613 . S
S689 N691 1.610 . S
N690 S689 1.613 . S
N690 C693 1.350 . S
N691 S689 1.610 . S
N691 C692 1.351 . S
C692 C686 1.428 . S
C692 N691 1.351 . S
C692 C693 1.434 . S
C693 C684 1.429 . S
C693 N690 1.350 . S
C693 C692 1.434 . S
C694 C695 1.369 . S
C694 C696 1.419 . S
C694 H698 0.930 . S
C695 C694 1.369 . S
C695 C704 1.429 . S
C696 C694 1.419 . S
C696 C697 1.363 . S
C696 H699 0.929 . S
C697 C696 1.363 . S
C697 C703 1.428 . S
H698 C694 0.930 . S
H699 C696 0.929 . S
S700 N701 1.613 . S
S700 N702 1.610 . S
N701 S700 1.613 . S
N701 C704 1.350 . S
N702 S700 1.610 . S
N702 C703 1.351 . S
C703 C697 1.428 . S
C703 N702 1.351 . S
C703 C704 1.434 . S
C704 C695 1.429 . S
C704 N701 1.350 . S
C704 C703 1.434 . S
C705 C706 1.369 . S
C705 C707 1.419 . S
C705 H709 0.930 . S
C706 C705 1.369 . S
C706 C715 1.429 . S
C707 C705 1.419 . S
C707 C708 1.363 1_554 S
C707 H710 0.929 1_554 S
C708 C707 1.363 1_556 S
C708 C714 1.428 1_556 S
H709 C705 0.930 . S
H710 C707 0.929 1_556 S
S711 N712 1.613 . S
S711 N713 1.610 . S
N712 S711 1.613 . S
N712 C715 1.350 . S
N713 S711 1.610 . S
N713 C714 1.351 . S
C714 C708 1.428 1_554 S
C714 N713 1.351 . S
C714 C715 1.434 . S
C715 C706 1.429 . S
C715 N712 1.350 . S
C715 C714 1.434 . S
C716 C717 1.369 . S
C716 C718 1.419 . S
C716 H720 0.930 . S
C717 C716 1.369 . S
C717 C726 1.429 . S
C718 C716 1.419 . S
C718 C719 1.363 . S
C718 H721 0.929 . S
C719 C718 1.363 . S
C719 C725 1.428 . S
H720 C716 0.930 . S
H721 C718 0.929 . S
S722 N723 1.610 1_655 S
S722 N724 1.598 1_655 S
N723 S722 1.610 1_455 S
N723 C726 1.350 . S
N724 S722 1.598 1_455 S
N724 C725 1.351 . S
C725 C719 1.428 . S
C725 N724 1.351 . S
C725 C726 1.434 . S
C726 C717 1.429 . S
C726 N723 1.350 . S
C726 C725 1.434 . S
C727 C728 1.369 . S
C727 C729 1.419 . S
C727 H731 0.930 . S
C728 C727 1.369 . S
C728 C737 1.429 . S
C729 C727 1.419 . S
C729 C730 1.363 . S
C729 H732 0.929 . S
C730 C729 1.363 . S
C730 C736 1.428 . S
H731 C727 0.930 . S
H732 C729 0.929 . S
S733 N734 1.613 . S
S733 N735 1.610 . S
N734 S733 1.613 . S
N734 C737 1.350 . S
N735 S733 1.610 . S
N735 C736 1.351 . S
C736 C730 1.428 . S
C736 N735 1.351 . S
C736 C737 1.434 . S
C737 C728 1.429 . S
C737 N734 1.350 . S
C737 C736 1.434 . S
C738 C739 1.369 . S
C738 C740 1.419 . S
C738 H742 0.930 . S
C739 C738 1.369 . S
C739 C748 1.429 . S
C740 C738 1.419 . S
C740 C741 1.363 . S
C740 H743 0.929 . S
C741 C740 1.363 . S
C741 C747 1.428 . S
H742 C738 0.930 . S
H743 C740 0.929 . S
S744 N745 1.613 . S
S744 N746 1.610 . S
N745 S744 1.613 . S
N745 C748 1.350 . S
N746 S744 1.610 . S
N746 C747 1.351 . S
C747 C741 1.428 . S
C747 N746 1.351 . S
C747 C748 1.434 . S
C748 C739 1.429 . S
C748 N745 1.350 . S
C748 C747 1.434 . S
C749 C750 1.369 . S
C749 C751 1.419 1_556 S
C749 H753 0.930 . S
C750 C749 1.369 . S
C750 C759 1.429 1_556 S
C751 C749 1.419 1_554 S
C751 C752 1.363 . S
C751 H754 0.929 . S
C752 C751 1.363 . S
C752 C758 1.428 . S
H753 C749 0.930 . S
H754 C751 0.929 . S
S755 N756 1.613 . S
S755 N757 1.610 . S
N756 S755 1.613 . S
N756 C759 1.350 . S
N757 S755 1.610 . S
N757 C758 1.351 . S
C758 C752 1.428 . S
C758 N757 1.351 . S
C758 C759 1.434 . S
C759 C750 1.429 1_554 S
C759 N756 1.350 . S
C759 C758 1.434 . S
C760 C761 1.369 . S
C760 C762 1.419 . S
C760 H764 0.930 . S
C761 C760 1.369 . S
C761 C770 1.429 . S
C762 C760 1.419 . S
C762 C763 1.363 . S
C762 H765 0.929 . S
C763 C762 1.363 . S
C763 C769 1.428 . S
H764 C760 0.930 . S
H765 C762 0.929 . S
S766 N767 1.613 . S
S766 N768 1.610 . S
N767 S766 1.613 . S
N767 C770 1.350 . S
N768 S766 1.610 . S
N768 C769 1.351 . S
C769 C763 1.428 . S
C769 N768 1.351 . S
C769 C770 1.434 . S
C770 C761 1.429 . S
C770 N767 1.350 . S
C770 C769 1.434 . S
C771 C772 1.369 . S
C771 C773 1.419 . S
C771 H775 0.930 . S
C772 C771 1.369 . S
C772 C781 1.429 . S
C773 C771 1.419 . S
C773 C774 1.363 1_545 S
C773 H776 0.929 . S
C774 C773 1.363 1_565 S
C774 C780 1.428 1_565 S
H775 C771 0.930 . S
H776 C773 0.929 . S
S777 N778 1.613 . S
S777 N779 1.610 1_545 S
N778 S777 1.613 . S
N778 C781 1.350 . S
N779 S777 1.610 1_565 S
N779 C780 1.351 1_565 S
C780 C774 1.428 1_545 S
C780 N779 1.351 1_545 S
C780 C781 1.434 . S
C781 C772 1.429 . S
C781 N778 1.350 . S
C781 C780 1.434 . S
C782 C783 1.369 . S
C782 C784 1.419 . S
C782 H786 0.930 . S
C783 C782 1.369 . S
C783 C792 1.429 1_545 S
C784 C782 1.419 . S
C784 C785 1.363 1_545 S
C784 H787 0.929 . S
C785 C784 1.363 1_565 S
C785 C791 1.428 . S
H786 C782 0.930 . S
H787 C784 0.929 . S
S788 N789 1.613 . S
S788 N790 1.610 . S
N789 S788 1.613 . S
N789 C792 1.350 . S
N790 S788 1.610 . S
N790 C791 1.351 . S
C791 C785 1.428 . S
C791 N790 1.351 . S
C791 C792 1.434 . S
C792 C783 1.429 1_565 S
C792 N789 1.350 . S
C792 C791 1.434 . S
C793 C794 1.369 . S
C793 C795 1.419 . S
C793 H797 0.930 . S
C794 C793 1.369 . S
C794 C803 1.429 . S
C795 C793 1.419 . S
C795 C796 1.363 . S
C795 H798 0.929 . S
C796 C795 1.363 . S
C796 C802 1.428 . S
H797 C793 0.930 . S
H798 C795 0.929 . S
S799 N800 1.613 1_545 S
S799 N801 1.610 . S
N800 S799 1.613 1_565 S
N800 C803 1.350 1_564 S
N801 S799 1.610 . S
N801 C802 1.351 1_554 S
C802 C796 1.428 . S
C802 N801 1.351 1_556 S
C802 C803 1.434 . S
C803 C794 1.429 . S
C803 N800 1.350 1_546 S
C803 C802 1.434 . S
C804 C805 1.369 . S
C804 C806 1.419 . S
C804 H808 0.930 . S
C805 C804 1.369 . S
C805 C814 1.429 . S
C806 C804 1.419 . S
C806 C807 1.363 . S
C806 H809 0.929 . S
C807 C806 1.363 . S
C807 C813 1.428 . S
H808 C804 0.930 . S
H809 C806 0.929 . S
S810 N811 1.613 . S
S810 N812 1.610 . S
N811 S810 1.613 . S
N811 C814 1.350 1_545 S
N812 S810 1.610 . S
N812 C813 1.351 1_545 S
C813 C807 1.428 . S
C813 N812 1.351 1_565 S
C813 C814 1.434 . S
C814 C805 1.429 . S
C814 N811 1.350 1_565 S
C814 C813 1.434 . S
C815 C816 1.369 . S
C815 C817 1.419 . S
C815 H819 0.930 . S
C816 C815 1.369 . S
C816 C825 1.429 . S
C817 C815 1.419 . S
C817 C818 1.363 . S
C817 H820 0.929 . S
C818 C817 1.363 . S
C818 C824 1.428 . S
H819 C815 0.930 . S
H820 C817 0.929 . S
S821 N822 1.613 . S
S821 N823 1.610 . S
N822 S821 1.613 . S
N822 C825 1.350 . S
N823 S821 1.610 . S
N823 C824 1.351 . S
C824 C818 1.428 . S
C824 N823 1.351 . S
C824 C825 1.434 . S
C825 C816 1.429 . S
C825 N822 1.350 . S
C825 C824 1.434 . S
C826 C827 1.369 . S
C826 C828 1.419 . S
C826 H830 0.930 . S
C827 C826 1.369 . S
C827 C836 1.429 . S
C828 C826 1.419 . S
C828 C829 1.363 . S
C828 H831 0.929 . S
C829 C828 1.363 . S
C829 C835 1.428 . S
H830 C826 0.930 . S
H831 C828 0.929 . S
S832 N833 1.613 . S
S832 N834 1.610 . S
N833 S832 1.613 . S
N833 C836 1.350 . S
N834 S832 1.610 . S
N834 C835 1.351 . S
C835 C829 1.428 . S
C835 N834 1.351 . S
C835 C836 1.434 . S
C836 C827 1.429 . S
C836 N833 1.350 . S
C836 C835 1.434 . S
C837 C838 1.369 1_545 S
C837 C839 1.419 . S
C837 H841 0.933 . S
C838 C837 1.369 1_565 S
C838 C847 1.429 1_565 S
C839 C837 1.419 . S
C839 C840 1.363 . S
C839 H842 0.929 . S
C840 C839 1.363 . S
C840 C846 1.428 . S
H841 C837 0.933 . S
H842 C839 0.929 . S
S843 N844 1.613 1_546 S
S843 N845 1.610 1_556 S
N844 S843 1.613 1_564 S
N844 C847 1.350 1_565 S
N845 S843 1.610 1_554 S
N845 C846 1.351 . S
C846 C840 1.428 . S
C846 N845 1.351 . S
C846 C847 1.434 . S
C847 C838 1.429 1_545 S
C847 N844 1.350 1_545 S
C847 C846 1.434 . S
C848 C849 1.369 . S
C848 C850 1.419 . S
C848 H852 0.930 . S
C849 C848 1.369 . S
C849 C858 1.429 . S
C850 C848 1.419 . S
C850 C851 1.363 . S
C850 H853 0.929 . S
C851 C850 1.363 . S
C851 C857 1.428 . S
H852 C848 0.930 . S
H853 C850 0.929 . S
S854 N855 1.613 . S
S854 N856 1.610 . S
N855 S854 1.613 . S
N855 C858 1.350 . S
N856 S854 1.610 . S
N856 C857 1.351 . S
C857 C851 1.428 . S
C857 N856 1.351 . S
C857 C858 1.434 . S
C858 C849 1.429 . S
C858 N855 1.350 . S
C858 C857 1.434 . S
C859 C860 1.369 . S
C859 C861 1.419 . S
C859 H863 0.930 . S
C860 C859 1.369 . S
C860 C869 1.429 . S
C861 C859 1.419 . S
C861 C862 1.363 . S
C861 H864 0.929 . S
C862 C861 1.363 . S
C862 C868 1.428 . S
H863 C859 0.930 . S
H864 C861 0.929 . S
S865 N866 1.613 . S
S865 N867 1.610 . S
N866 S865 1.613 . S
N866 C869 1.350 1_554 S
N867 S865 1.610 . S
N867 C868 1.351 1_554 S
C868 C862 1.428 . S
C868 N867 1.351 1_556 S
C868 C869 1.434 . S
C869 C860 1.429 . S
C869 N866 1.350 1_556 S
C869 C868 1.434 . S
C870 C871 1.369 . S
C870 C872 1.419 1_455 S
C870 H874 0.930 . S
C871 C870 1.369 . S
C871 C880 1.429 . S
C872 C870 1.419 1_655 S
C872 C873 1.363 . S
C872 H875 0.929 . S
C873 C872 1.363 . S
C873 C879 1.428 1_655 S
H874 C870 0.930 . S
H875 C872 0.929 . S
S876 N877 1.613 . S
S876 N878 1.610 . S
N877 S876 1.613 . S
N877 C880 1.350 . S
N878 S876 1.610 . S
N878 C879 1.351 . S
C879 C873 1.428 1_455 S
C879 N878 1.351 . S
C879 C880 1.434 . S
C880 C871 1.429 . S
C880 N877 1.350 . S
C880 C879 1.434 . S
C881 C882 1.369 . S
C881 C883 1.419 . S
C881 H885 0.930 . S
C882 C881 1.369 . S
C882 C891 1.429 . S
C883 C881 1.419 . S
C883 C884 1.363 . S
C883 H886 0.929 . S
C884 C883 1.363 . S
C884 C890 1.428 . S
H885 C881 0.930 . S
H886 C883 0.929 . S
S887 N888 1.613 . S
S887 N889 1.610 . S
N888 S887 1.613 . S
N888 C891 1.350 . S
N889 S887 1.610 . S
N889 C890 1.351 . S
C890 C884 1.428 . S
C890 N889 1.351 . S
C890 C891 1.434 . S
C891 C882 1.429 . S
C891 N888 1.350 . S
C891 C890 1.434 . S
C892 C893 1.369 . S
C892 C894 1.419 1_655 S
C892 H896 0.930 . S
C893 C892 1.369 . S
C893 C902 1.429 . S
C894 C892 1.419 1_455 S
C894 C895 1.363 . S
C894 H897 0.929 . S
C895 C894 1.363 . S
C895 C901 1.428 . S
H896 C892 0.930 . S
H897 C894 0.929 . S
S898 N899 1.613 . S
S898 N900 1.591 1_655 S
N899 S898 1.613 . S
N899 C902 1.350 . S
N900 S898 1.591 1_455 S
N900 C901 1.351 . S
C901 C895 1.428 . S
C901 N900 1.351 . S
C901 C902 1.434 1_455 S
C902 C893 1.429 . S
C902 N899 1.350 . S
C902 C901 1.434 1_655 S
C903 C904 1.369 . S
C903 C905 1.419 . S
C903 H907 0.930 . S
C904 C903 1.369 . S
C904 C913 1.429 . S
C905 C903 1.419 . S
C905 C906 1.363 . S
C905 H908 0.929 . S
C906 C905 1.363 . S
C906 C912 1.428 . S
H907 C903 0.930 . S
H908 C905 0.929 . S
S909 N910 1.613 . S
S909 N911 1.610 . S
N910 S909 1.613 . S
N910 C913 1.350 . S
N911 S909 1.610 . S
N911 C912 1.351 . S
C912 C906 1.428 . S
C912 N911 1.351 . S
C912 C913 1.434 . S
C913 C904 1.429 . S
C913 N910 1.350 . S
C913 C912 1.434 . S
C914 C915 1.369 . S
C914 C916 1.419 1_455 S
C914 H918 0.930 . S
C915 C914 1.369 . S
C915 C924 1.429 . S
C916 C914 1.419 1_655 S
C916 C917 1.363 . S
C916 H919 0.929 . S
C917 C916 1.363 . S
C917 C923 1.428 1_655 S
H918 C914 0.930 . S
H919 C916 0.929 . S
S920 N921 1.613 . S
S920 N922 1.610 . S
N921 S920 1.613 . S
N921 C924 1.350 . S
N922 S920 1.610 . S
N922 C923 1.351 . S
C923 C917 1.428 1_455 S
C923 N922 1.351 . S
C923 C924 1.434 . S
C924 C915 1.429 . S
C924 N921 1.350 . S
C924 C923 1.434 . S
C925 C926 1.369 . S
C925 C927 1.419 . S
C925 H929 0.930 . S
C926 C925 1.369 . S
C926 C935 1.429 . S
C927 C925 1.419 . S
C927 C928 1.363 . S
C927 H930 0.929 . S
C928 C927 1.363 . S
C928 C934 1.428 . S
H929 C925 0.930 . S
H930 C927 0.929 . S
S931 N932 1.613 . S
S931 N933 1.610 . S
N932 S931 1.613 . S
N932 C935 1.350 . S
N933 S931 1.610 . S
N933 C934 1.351 . S
C934 C928 1.428 . S
C934 N933 1.351 . S
C934 C935 1.434 . S
C935 C926 1.429 . S
C935 N932 1.350 . S
C935 C934 1.434 . S
C936 C937 1.369 . S
C936 C938 1.419 . S
C936 H940 0.930 . S
C937 C936 1.369 . S
C937 C946 1.429 . S
C938 C936 1.419 . S
C938 C939 1.363 . S
C938 H941 0.929 . S
C939 C938 1.363 . S
C939 C945 1.428 . S
H940 C936 0.930 . S
H941 C938 0.929 . S
S942 N943 1.613 . S
S942 N944 1.610 . S
N943 S942 1.613 . S
N943 C946 1.350 . S
N944 S942 1.610 . S
N944 C945 1.351 . S
C945 C939 1.428 . S
C945 N944 1.351 . S
C945 C946 1.434 . S
C946 C937 1.429 . S
C946 N943 1.350 . S
C946 C945 1.434 . S
C947 C948 1.369 . S
C947 C949 1.419 . S
C947 H951 0.930 . S
C948 C947 1.369 . S
C948 C957 1.429 . S
C949 C947 1.419 . S
C949 C950 1.363 . S
C949 H952 0.929 . S
C950 C949 1.363 . S
C950 C956 1.428 . S
H951 C947 0.930 . S
H952 C949 0.929 . S
S953 N954 1.613 . S
S953 N955 1.610 . S
N954 S953 1.613 . S
N954 C957 1.350 . S
N955 S953 1.610 . S
N955 C956 1.351 . S
C956 C950 1.428 . S
C956 N955 1.351 . S
C956 C957 1.434 . S
C957 C948 1.429 . S
C957 N954 1.350 . S
C957 C956 1.434 . S
C958 C959 1.369 . S
C958 C960 1.419 . S
C958 H962 0.930 . S
C959 C958 1.369 . S
C959 C968 1.429 . S
C960 C958 1.419 . S
C960 C961 1.363 . S
C960 H963 0.929 . S
C961 C960 1.363 . S
C961 C967 1.428 . S
H962 C958 0.930 . S
H963 C960 0.929 . S
S964 N965 1.613 . S
S964 N966 1.610 . S
N965 S964 1.613 . S
N965 C968 1.350 . S
N966 S964 1.610 . S
N966 C967 1.351 . S
C967 C961 1.428 . S
C967 N966 1.351 . S
C967 C968 1.434 . S
C968 C959 1.429 . S
C968 N965 1.350 . S
C968 C967 1.434 . S
C969 C970 1.369 . S
C969 C971 1.419 1_556 S
C969 H973 0.930 . S
C970 C969 1.369 . S
C970 C979 1.429 . S
C971 C969 1.419 1_554 S
C971 C972 1.363 . S
C971 H974 0.929 . S
C972 C971 1.363 . S
C972 C978 1.428 . S
H973 C969 0.930 . S
H974 C971 0.929 . S
S975 N976 1.613 . S
S975 N977 1.610 1_556 S
N976 S975 1.613 . S
N976 C979 1.350 . S
N977 S975 1.610 1_554 S
N977 C978 1.351 . S
C978 C972 1.428 . S
C978 N977 1.351 . S
C978 C979 1.434 1_554 S
C979 C970 1.429 . S
C979 N976 1.350 . S
C979 C978 1.434 1_556 S
C980 C981 1.369 . S
C980 C982 1.419 . S
C980 H984 0.930 . S
C981 C980 1.369 . S
C981 C990 1.429 . S
C982 C980 1.419 . S
C982 C983 1.363 . S
C982 H985 0.929 . S
C983 C982 1.363 . S
C983 C989 1.428 . S
H984 C980 0.930 . S
H985 C982 0.929 . S
S986 N987 1.613 . S
S986 N988 1.610 . S
N987 S986 1.613 . S
N987 C990 1.350 . S
N988 S986 1.610 . S
N988 C989 1.351 . S
C989 C983 1.428 . S
C989 N988 1.351 . S
C989 C990 1.434 . S
C990 C981 1.429 . S
C990 N987 1.350 . S
C990 C989 1.434 . S
C991 C992 1.369 . S
C991 C993 1.419 . S
C991 H995 0.930 . S
C992 C991 1.369 . S
C992 C1001 1.429 . S
C993 C991 1.419 . S
C993 C994 1.363 . S
C993 H996 0.929 . S
C994 C993 1.363 . S
C994 C1000 1.428 . S
H995 C991 0.930 . S
H996 C993 0.929 . S
S997 N998 1.613 . S
S997 N999 1.610 . S
N998 S997 1.613 . S
N998 C1001 1.350 . S
N999 S997 1.610 . S
N999 C1000 1.351 . S
C1000 C994 1.428 . S
C1000 N999 1.351 . S
C1000 C1001 1.434 . S
C1001 C992 1.429 . S
C1001 N998 1.350 . S
C1001 C1000 1.434 . S
C1002 C1003 1.369 . S
C1002 C1004 1.419 . S
C1002 H1006 0.930 . S
C1003 C1002 1.369 . S
C1003 C1012 1.429 . S
C1004 C1002 1.419 . S
C1004 C1005 1.363 . S
C1004 H1007 0.929 . S
C1005 C1004 1.363 . S
C1005 C1011 1.428 . S
H1006 C1002 0.930 . S
H1007 C1004 0.929 . S
S1008 N1009 1.613 . S
S1008 N1010 1.610 . S
N1009 S1008 1.613 . S
N1009 C1012 1.350 . S
N1010 S1008 1.610 . S
N1010 C1011 1.351 . S
C1011 C1005 1.428 . S
C1011 N1010 1.351 . S
C1011 C1012 1.434 . S
C1012 C1003 1.429 . S
C1012 N1009 1.350 . S
C1012 C1011 1.434 . S
C1013 C1014 1.369 . S
C1013 C1015 1.419 1_554 S
C1013 H1017 0.930 1_655 S
C1014 C1013 1.369 . S
C1014 C1023 1.429 . S
C1015 C1013 1.419 1_556 S
C1015 C1016 1.363 . S
C1015 H1018 0.929 . S
C1016 C1015 1.363 . S
C1016 C1022 1.439 . S
H1017 C1013 0.930 1_455 S
H1018 C1015 0.929 . S
S1019 N1020 1.613 . S
S1019 N1021 1.610 1_554 S
N1020 S1019 1.613 . S
N1020 C1023 1.350 . S
N1021 S1019 1.610 1_556 S
N1021 C1022 1.355 . S
C1022 C1016 1.439 . S
C1022 N1021 1.355 . S
C1022 C1023 1.418 1_556 S
C1023 C1014 1.429 . S
C1023 N1020 1.350 . S
C1023 C1022 1.418 1_554 S
C1024 C1025 1.369 . S
C1024 C1026 1.419 . S
C1024 H1028 0.930 . S
C1025 C1024 1.369 . S
C1025 C1034 1.429 1_565 S
C1026 C1024 1.419 . S
C1026 C1027 1.363 . S
C1026 H1029 0.929 . S
C1027 C1026 1.363 . S
C1027 C1033 1.428 . S
H1028 C1024 0.930 . S
H1029 C1026 0.929 . S
S1030 N1031 1.613 . S
S1030 N1032 1.610 . S
N1031 S1030 1.613 . S
N1031 C1034 1.350 . S
N1032 S1030 1.610 . S
N1032 C1033 1.351 1_545 S
C1033 C1027 1.428 . S
C1033 N1032 1.351 1_565 S
C1033 C1034 1.434 1_565 S
C1034 C1025 1.429 1_545 S
C1034 N1031 1.350 . S
C1034 C1033 1.434 1_545 S
C1035 C1036 1.369 . S
C1035 C1037 1.419 . S
C1035 H1039 0.930 . S
C1036 C1035 1.369 . S
C1036 C1045 1.429 . S
C1037 C1035 1.419 . S
C1037 C1038 1.363 . S
C1037 H1040 0.929 . S
C1038 C1037 1.363 . S
C1038 C1044 1.428 . S
H1039 C1035 0.930 . S
H1040 C1037 0.929 . S
S1041 N1042 1.613 . S
S1041 N1043 1.610 . S
N1042 S1041 1.613 . S
N1042 C1045 1.350 . S
N1043 S1041 1.610 . S
N1043 C1044 1.351 . S
C1044 C1038 1.428 . S
C1044 N1043 1.351 . S
C1044 C1045 1.434 . S
C1045 C1036 1.429 . S
C1045 N1042 1.350 . S
C1045 C1044 1.434 . S
C1046 C1047 1.369 . S
C1046 C1048 1.419 . S
C1046 H1050 0.930 . S
C1047 C1046 1.369 . S
C1047 C1056 1.429 . S
C1048 C1046 1.419 . S
C1048 C1049 1.363 . S
C1048 H1051 0.929 . S
C1049 C1048 1.363 . S
C1049 C1055 1.428 . S
H1050 C1046 0.930 . S
H1051 C1048 0.929 . S
S1052 N1053 1.613 . S
S1052 N1054 1.610 . S
N1053 S1052 1.613 . S
N1053 C1056 1.350 . S
N1054 S1052 1.610 . S
N1054 C1055 1.351 . S
C1055 C1049 1.428 . S
C1055 N1054 1.351 . S
C1055 C1056 1.434 . S
C1056 C1047 1.429 . S
C1056 N1053 1.350 . S
C1056 C1055 1.434 . S
C1057 C1058 1.369 . S
C1057 C1059 1.419 . S
C1057 H1061 0.930 . S
C1058 C1057 1.369 . S
C1058 C1067 1.429 . S
C1059 C1057 1.419 . S
C1059 C1060 1.363 1_545 S
C1059 H1062 0.929 . S
C1060 C1059 1.363 1_565 S
C1060 C1066 1.428 1_565 S
H1061 C1057 0.930 . S
H1062 C1059 0.929 . S
S1063 N1064 1.613 . S
S1063 N1065 1.610 . S
N1064 S1063 1.613 . S
N1064 C1067 1.350 . S
N1065 S1063 1.610 . S
N1065 C1066 1.351 . S
C1066 C1060 1.428 1_545 S
C1066 N1065 1.351 . S
C1066 C1067 1.434 . S
C1067 C1058 1.429 . S
C1067 N1064 1.350 . S
C1067 C1066 1.434 . S
C1068 C1069 1.369 . S
C1068 C1070 1.419 . S
C1068 H1072 0.930 . S
C1069 C1068 1.369 . S
C1069 C1078 1.429 . S
C1070 C1068 1.419 . S
C1070 C1071 1.363 . S
C1070 H1073 0.929 . S
C1071 C1070 1.363 . S
C1071 C1077 1.428 . S
H1072 C1068 0.930 . S
H1073 C1070 0.929 . S
S1074 N1075 1.613 . S
S1074 N1076 1.610 . S
N1075 S1074 1.613 . S
N1075 C1078 1.350 . S
N1076 S1074 1.610 . S
N1076 C1077 1.351 . S
C1077 C1071 1.428 . S
C1077 N1076 1.351 . S
C1077 C1078 1.434 . S
C1078 C1069 1.429 . S
C1078 N1075 1.350 . S
C1078 C1077 1.434 . S
C1079 C1080 1.369 . S
C1079 C1081 1.419 1_565 S
C1079 H1083 0.930 . S
C1080 C1079 1.369 . S
C1080 C1089 1.429 1_565 S
C1081 C1079 1.419 1_545 S
C1081 C1082 1.363 . S
C1081 H1084 0.929 . S
C1082 C1081 1.363 . S
C1082 C1088 1.428 . S
H1083 C1079 0.930 . S
H1084 C1081 0.929 . S
S1085 N1086 1.613 . S
S1085 N1087 1.610 . S
N1086 S1085 1.613 . S
N1086 C1089 1.350 . S
N1087 S1085 1.610 . S
N1087 C1088 1.351 . S
C1088 C1082 1.428 . S
C1088 N1087 1.351 . S
C1088 C1089 1.434 . S
C1089 C1080 1.429 1_545 S
C1089 N1086 1.350 . S
C1089 C1088 1.434 . S
C1090 C1091 1.369 . S
C1090 C1092 1.419 . S
C1090 H1094 0.930 . S
C1091 C1090 1.369 . S
C1091 C1100 1.429 . S
C1092 C1090 1.419 . S
C1092 C1093 1.363 . S
C1092 H1095 0.929 . S
C1093 C1092 1.363 . S
C1093 C1099 1.428 . S
H1094 C1090 0.930 . S
H1095 C1092 0.929 . S
S1096 N1097 1.613 . S
S1096 N1098 1.610 . S
N1097 S1096 1.613 . S
N1097 C1100 1.350 1_545 S
N1098 S1096 1.610 . S
N1098 C1099 1.351 1_545 S
C1099 C1093 1.428 . S
C1099 N1098 1.351 1_565 S
C1099 C1100 1.434 . S
C1100 C1091 1.429 . S
C1100 N1097 1.350 1_565 S
C1100 C1099 1.434 . S
C1101 C1102 1.369 . S
C1101 C1103 1.419 . S
C1101 H1105 0.930 . S
C1102 C1101 1.369 . S
C1102 C1111 1.429 . S
C1103 C1101 1.419 . S
C1103 C1104 1.363 . S
C1103 H1106 0.929 . S
C1104 C1103 1.363 . S
C1104 C1110 1.428 . S
H1105 C1101 0.930 . S
H1106 C1103 0.929 . S
S1107 N1108 1.617 . S
S1107 N1109 1.616 1_545 S
N1108 S1107 1.617 . S
N1108 C1111 1.350 . S
N1109 S1107 1.616 1_565 S
N1109 C1110 1.351 1_565 S
C1110 C1104 1.428 . S
C1110 N1109 1.351 1_545 S
C1110 C1111 1.434 . S
C1111 C1102 1.429 . S
C1111 N1108 1.350 . S
C1111 C1110 1.434 . S
C1112 C1113 1.369 . S
C1112 C1114 1.419 . S
C1112 H1116 0.930 . S
C1113 C1112 1.369 . S
C1113 C1122 1.429 . S
C1114 C1112 1.419 . S
C1114 C1115 1.363 . S
C1114 H1117 0.929 . S
C1115 C1114 1.363 . S
C1115 C1121 1.428 . S
H1116 C1112 0.930 . S
H1117 C1114 0.929 . S
S1118 N1119 1.613 . S
S1118 N1120 1.610 . S
N1119 S1118 1.613 . S
N1119 C1122 1.350 . S
N1120 S1118 1.610 . S
N1120 C1121 1.351 . S
C1121 C1115 1.428 . S
C1121 N1120 1.351 . S
C1121 C1122 1.434 . S
C1122 C1113 1.429 . S
C1122 N1119 1.350 . S
C1122 C1121 1.434 . S
C1123 C1124 1.369 . S
C1123 C1125 1.419 . S
C1123 H1127 0.930 . S
C1124 C1123 1.369 . S
C1124 C1133 1.429 . S
C1125 C1123 1.419 . S
C1125 C1126 1.363 . S
C1125 H1128 0.929 . S
C1126 C1125 1.363 . S
C1126 C1132 1.428 . S
H1127 C1123 0.930 . S
H1128 C1125 0.929 . S
S1129 N1130 1.613 . S
S1129 N1131 1.610 . S
N1130 S1129 1.613 . S
N1130 C1133 1.350 . S
N1131 S1129 1.610 . S
N1131 C1132 1.351 . S
C1132 C1126 1.428 . S
C1132 N1131 1.351 . S
C1132 C1133 1.434 . S
C1133 C1124 1.429 . S
C1133 N1130 1.350 . S
C1133 C1132 1.434 . S
C1134 C1135 1.369 . S
C1134 C1136 1.419 1_655 S
C1134 H1138 0.930 . S
C1135 C1134 1.369 . S
C1135 C1144 1.429 . S
C1136 C1134 1.419 1_455 S
C1136 C1137 1.363 . S
C1136 H1139 0.929 . S
C1137 C1136 1.363 . S
C1137 C1143 1.428 . S
H1138 C1134 0.930 . S
H1139 C1136 0.929 . S
S1140 N1141 1.613 . S
S1140 N1142 1.610 1_655 S
N1141 S1140 1.613 . S
N1141 C1144 1.350 . S
N1142 S1140 1.610 1_455 S
N1142 C1143 1.351 . S
C1143 C1137 1.428 . S
C1143 N1142 1.351 . S
C1143 C1144 1.434 1_455 S
C1144 C1135 1.429 . S
C1144 N1141 1.350 . S
C1144 C1143 1.434 1_655 S
C1145 C1146 1.369 . S
C1145 C1147 1.419 . S
C1145 H1149 0.930 . S
C1146 C1145 1.369 . S
C1146 C1155 1.429 . S
C1147 C1145 1.419 . S
C1147 C1148 1.363 . S
C1147 H1150 0.929 . S
C1148 C1147 1.363 . S
C1148 C1154 1.428 . S
H1149 C1145 0.930 . S
H1150 C1147 0.929 . S
S1151 N1152 1.613 . S
S1151 N1153 1.610 . S
N1152 S1151 1.613 . S
N1152 C1155 1.350 . S
N1153 S1151 1.610 . S
N1153 C1154 1.351 . S
C1154 C1148 1.428 . S
C1154 N1153 1.351 . S
C1154 C1155 1.434 . S
C1155 C1146 1.429 . S
C1155 N1152 1.350 . S
C1155 C1154 1.434 . S
C1156 C1157 1.369 . S
C1156 C1158 1.419 1_455 S
C1156 H1160 0.930 . S
C1157 C1156 1.369 . S
C1157 C1166 1.429 1_545 S
C1158 C1156 1.419 1_655 S
C1158 C1159 1.363 . S
C1158 H1161 0.929 . S
C1159 C1158 1.363 . S
C1159 C1165 1.428 1_545 S
H1160 C1156 0.930 . S
H1161 C1158 0.929 . S
S1162 N1163 1.613 1_655 S
S1162 N1164 1.610 . S
N1163 S1162 1.613 1_455 S
N1163 C1166 1.350 . S
N1164 S1162 1.610 . S
N1164 C1165 1.351 . S
C1165 C1159 1.428 1_565 S
C1165 N1164 1.351 . S
C1165 C1166 1.434 1_655 S
C1166 C1157 1.429 1_565 S
C1166 N1163 1.350 . S
C1166 C1165 1.434 1_455 S
C1167 C1168 1.369 . S
C1167 C1169 1.419 . S
C1167 H1171 0.930 . S
C1168 C1167 1.369 . S
C1168 C1177 1.429 . S
C1169 C1167 1.419 . S
C1169 C1170 1.363 . S
C1169 H1172 0.929 . S
C1170 C1169 1.363 . S
C1170 C1176 1.428 . S
H1171 C1167 0.930 . S
H1172 C1169 0.929 . S
S1173 N1174 1.613 . S
S1173 N1175 1.610 . S
N1174 S1173 1.613 . S
N1174 C1177 1.350 . S
N1175 S1173 1.610 . S
N1175 C1176 1.351 . S
C1176 C1170 1.428 . S
C1176 N1175 1.351 . S
C1176 C1177 1.434 . S
C1177 C1168 1.429 . S
C1177 N1174 1.350 . S
C1177 C1176 1.434 . S
C1178 C1179 1.369 . S
C1178 C1180 1.419 1_655 S
C1178 H1182 0.930 . S
C1179 C1178 1.369 . S
C1179 C1188 1.429 . S
C1180 C1178 1.419 1_455 S
C1180 C1181 1.363 . S
C1180 H1183 0.929 . S
C1181 C1180 1.363 . S
C1181 C1187 1.428 . S
H1182 C1178 0.930 . S
H1183 C1180 0.929 . S
S1184 N1185 1.613 . S
S1184 N1186 1.610 1_655 S
N1185 S1184 1.613 . S
N1185 C1188 1.350 . S
N1186 S1184 1.610 1_455 S
N1186 C1187 1.351 . S
C1187 C1181 1.428 . S
C1187 N1186 1.351 . S
C1187 C1188 1.434 1_455 S
C1188 C1179 1.429 . S
C1188 N1185 1.350 . S
C1188 C1187 1.434 1_655 S
C1189 C1190 1.369 . S
C1189 C1191 1.419 . S
C1189 H1193 0.930 . S
C1190 C1189 1.369 . S
C1190 C1199 1.429 . S
C1191 C1189 1.419 . S
C1191 C1192 1.363 . S
C1191 H1194 0.929 . S
C1192 C1191 1.363 . S
C1192 C1198 1.428 . S
H1193 C1189 0.930 . S
H1194 C1191 0.929 . S
S1195 N1196 1.613 . S
S1195 N1197 1.610 . S
N1196 S1195 1.613 . S
N1196 C1199 1.350 . S
N1197 S1195 1.610 . S
N1197 C1198 1.351 . S
C1198 C1192 1.428 . S
C1198 N1197 1.351 . S
C1198 C1199 1.434 . S
C1199 C1190 1.429 . S
C1199 N1196 1.350 . S
C1199 C1198 1.434 . S
C1200 C1201 1.369 . S
C1200 C1202 1.419 . S
C1200 H1204 0.930 . S
C1201 C1200 1.369 . S
C1201 C1210 1.429 . S
C1202 C1200 1.419 . S
C1202 C1203 1.363 . S
C1202 H1205 0.929 . S
C1203 C1202 1.363 . S
C1203 C1209 1.428 . S
H1204 C1200 0.930 . S
H1205 C1202 0.929 . S
S1206 N1207 1.613 . S
S1206 N1208 1.610 . S
N1207 S1206 1.613 . S
N1207 C1210 1.350 . S
N1208 S1206 1.610 . S
N1208 C1209 1.351 . S
C1209 C1203 1.428 . S
C1209 N1208 1.351 . S
C1209 C1210 1.434 . S
C1210 C1201 1.429 . S
C1210 N1207 1.350 . S
C1210 C1209 1.434 . S
C1211 C1212 1.369 . S
C1211 C1213 1.419 . S
C1211 H1215 0.930 . S
C1212 C1211 1.369 . S
C1212 C1221 1.429 . S
C1213 C1211 1.419 . S
C1213 C1214 1.363 1_554 S
C1213 H1216 0.929 1_554 S
C1214 C1213 1.363 1_556 S
C1214 C1220 1.428 1_556 S
H1215 C1211 0.930 . S
H1216 C1213 0.929 1_556 S
S1217 N1218 1.613 . S
S1217 N1219 1.610 . S
N1218 S1217 1.613 . S
N1218 C1221 1.350 . S
N1219 S1217 1.610 . S
N1219 C1220 1.351 . S
C1220 C1214 1.428 1_554 S
C1220 N1219 1.351 . S
C1220 C1221 1.434 . S
C1221 C1212 1.429 . S
C1221 N1218 1.350 . S
C1221 C1220 1.434 . S
C1222 C1223 1.369 . S
C1222 C1224 1.419 . S
C1222 H1226 0.930 . S
C1223 C1222 1.369 . S
C1223 C1232 1.429 . S
C1224 C1222 1.419 . S
C1224 C1225 1.363 . S
C1224 H1227 0.929 . S
C1225 C1224 1.363 . S
C1225 C1231 1.428 . S
H1226 C1222 0.930 . S
H1227 C1224 0.929 . S
S1228 N1229 1.613 . S
S1228 N1230 1.611 . S
N1229 S1228 1.613 . S
N1229 C1232 1.350 1_455 S
N1230 S1228 1.611 . S
N1230 C1231 1.351 1_455 S
C1231 C1225 1.428 . S
C1231 N1230 1.351 1_655 S
C1231 C1232 1.434 . S
C1232 C1223 1.429 . S
C1232 N1229 1.350 1_655 S
C1232 C1231 1.434 . S
C1233 C1234 1.369 . S
C1233 C1235 1.419 . S
C1233 H1237 0.930 . S
C1234 C1233 1.369 . S
C1234 C1243 1.429 . S
C1235 C1233 1.419 . S
C1235 C1236 1.363 . S
C1235 H1238 0.929 . S
C1236 C1235 1.363 . S
C1236 C1242 1.428 . S
H1237 C1233 0.930 . S
H1238 C1235 0.929 . S
S1239 N1240 1.613 . S
S1239 N1241 1.610 . S
N1240 S1239 1.613 . S
N1240 C1243 1.350 . S
N1241 S1239 1.610 . S
N1241 C1242 1.351 . S
C1242 C1236 1.428 . S
C1242 N1241 1.351 . S
C1242 C1243 1.434 . S
C1243 C1234 1.429 . S
C1243 N1240 1.350 . S
C1243 C1242 1.434 . S
C1244 C1245 1.369 . S
C1244 C1246 1.419 . S
C1244 H1248 0.930 . S
C1245 C1244 1.369 . S
C1245 C1254 1.429 . S
C1246 C1244 1.419 . S
C1246 C1247 1.363 . S
C1246 H1249 0.929 . S
C1247 C1246 1.363 . S
C1247 C1253 1.428 . S
H1248 C1244 0.930 . S
H1249 C1246 0.929 . S
S1250 N1251 1.613 . S
S1250 N1252 1.610 . S
N1251 S1250 1.613 . S
N1251 C1254 1.350 . S
N1252 S1250 1.610 . S
N1252 C1253 1.351 . S
C1253 C1247 1.428 . S
C1253 N1252 1.351 . S
C1253 C1254 1.434 . S
C1254 C1245 1.429 . S
C1254 N1251 1.350 . S
C1254 C1253 1.434 . S
C1255 C1256 1.369 1_554 S
C1255 C1257 1.419 . S
C1255 H1259 0.930 . S
C1256 C1255 1.369 1_556 S
C1256 C1265 1.429 . S
C1257 C1255 1.419 . S
C1257 C1258 1.363 . S
C1257 H1260 0.929 . S
C1258 C1257 1.363 . S
C1258 C1264 1.428 . S
H1259 C1255 0.930 . S
H1260 C1257 0.929 . S
S1261 N1262 1.613 . S
S1261 N1263 1.610 1_556 S
N1262 S1261 1.613 . S
N1262 C1265 1.350 . S
N1263 S1261 1.610 1_554 S
N1263 C1264 1.351 . S
C1264 C1258 1.428 . S
C1264 N1263 1.351 . S
C1264 C1265 1.434 1_554 S
C1265 C1256 1.429 . S
C1265 N1262 1.350 . S
C1265 C1264 1.434 1_556 S
C1266 C1267 1.369 . S
C1266 C1268 1.419 . S
C1266 H1270 0.930 . S
C1267 C1266 1.369 . S
C1267 C1276 1.429 . S
C1268 C1266 1.419 . S
C1268 C1269 1.363 . S
C1268 H1271 0.929 . S
C1269 C1268 1.363 . S
C1269 C1275 1.428 . S
H1270 C1266 0.930 . S
H1271 C1268 0.929 . S
S1272 N1273 1.613 . S
S1272 N1274 1.610 . S
N1273 S1272 1.613 . S
N1273 C1276 1.350 . S
N1274 S1272 1.610 . S
N1274 C1275 1.351 . S
C1275 C1269 1.428 . S
C1275 N1274 1.351 . S
C1275 C1276 1.434 . S
C1276 C1267 1.429 . S
C1276 N1273 1.350 . S
C1276 C1275 1.434 . S
C1277 C1278 1.369 . S
C1277 C1279 1.419 . S
C1277 H1281 0.930 . S
C1278 C1277 1.369 . S
C1278 C1287 1.429 . S
C1279 C1277 1.419 . S
C1279 C1280 1.363 . S
C1279 H1282 0.929 . S
C1280 C1279 1.363 . S
C1280 C1286 1.428 . S
H1281 C1277 0.930 . S
H1282 C1279 0.929 . S
S1283 N1284 1.613 . S
S1283 N1285 1.610 . S
N1284 S1283 1.613 . S
N1284 C1287 1.350 . S
N1285 S1283 1.610 . S
N1285 C1286 1.351 . S
C1286 C1280 1.428 . S
C1286 N1285 1.351 . S
C1286 C1287 1.434 . S
C1287 C1278 1.429 . S
C1287 N1284 1.350 . S
C1287 C1286 1.434 . S
C1288 C1289 1.369 . S
C1288 C1290 1.419 . S
C1288 H1292 0.930 . S
C1289 C1288 1.369 . S
C1289 C1298 1.429 . S
C1290 C1288 1.419 . S
C1290 C1291 1.363 . S
C1290 H1293 0.929 . S
C1291 C1290 1.363 . S
C1291 C1297 1.428 . S
H1292 C1288 0.930 . S
H1293 C1290 0.929 . S
S1294 N1295 1.613 . S
S1294 N1296 1.610 . S
N1295 S1294 1.613 . S
N1295 C1298 1.350 . S
N1296 S1294 1.610 . S
N1296 C1297 1.351 . S
C1297 C1291 1.428 . S
C1297 N1296 1.351 . S
C1297 C1298 1.434 . S
C1298 C1289 1.429 . S
C1298 N1295 1.350 . S
C1298 C1297 1.434 . S
C1299 C1300 1.369 . S
C1299 C1301 1.419 . S
C1299 H1303 0.930 . S
C1300 C1299 1.369 . S
C1300 C1309 1.429 . S
C1301 C1299 1.419 . S
C1301 C1302 1.363 . S
C1301 H1304 0.929 . S
C1302 C1301 1.363 . S
C1302 C1308 1.428 . S
H1303 C1299 0.930 . S
H1304 C1301 0.929 . S
S1305 N1306 1.613 1_554 S
S1305 N1307 1.610 . S
N1306 S1305 1.613 1_556 S
N1306 C1309 1.350 . S
N1307 S1305 1.610 . S
N1307 C1308 1.351 1_554 S
C1308 C1302 1.428 . S
C1308 N1307 1.351 1_556 S
C1308 C1309 1.434 . S
C1309 C1300 1.429 . S
C1309 N1306 1.350 . S
C1309 C1308 1.434 . S
C1310 C1311 1.369 . S
C1310 C1312 1.419 . S
C1310 H1314 0.930 . S
C1311 C1310 1.369 . S
C1311 C1320 1.429 . S
C1312 C1310 1.419 . S
C1312 C1313 1.363 . S
C1312 H1315 0.929 . S
C1313 C1312 1.363 . S
C1313 C1319 1.428 . S
H1314 C1310 0.930 . S
H1315 C1312 0.929 . S
S1316 N1317 1.613 . S
S1316 N1318 1.610 . S
N1317 S1316 1.613 . S
N1317 C1320 1.350 . S
N1318 S1316 1.610 . S
N1318 C1319 1.351 . S
C1319 C1313 1.428 . S
C1319 N1318 1.351 . S
C1319 C1320 1.434 . S
C1320 C1311 1.429 . S
C1320 N1317 1.350 . S
C1320 C1319 1.434 . S
C1321 C1322 1.369 . S
C1321 C1323 1.419 . S
C1321 H1325 0.930 . S
C1322 C1321 1.369 . S
C1322 C1331 1.429 . S
C1323 C1321 1.419 . S
C1323 C1324 1.363 . S
C1323 H1326 0.929 . S
C1324 C1323 1.363 . S
C1324 C1330 1.428 . S
H1325 C1321 0.930 . S
H1326 C1323 0.929 . S
S1327 N1328 1.613 . S
S1327 N1329 1.610 . S
N1328 S1327 1.613 . S
N1328 C1331 1.350 . S
N1329 S1327 1.610 . S
N1329 C1330 1.351 . S
C1330 C1324 1.428 . S
C1330 N1329 1.351 . S
C1330 C1331 1.434 . S
C1331 C1322 1.429 . S
C1331 N1328 1.350 . S
C1331 C1330 1.434 . S
C1332 C1333 1.369 . S
C1332 C1334 1.419 . S
C1332 H1336 0.930 . S
C1333 C1332 1.369 . S
C1333 C1342 1.429 . S
C1334 C1332 1.419 . S
C1334 C1335 1.363 . S
C1334 H1337 0.929 . S
C1335 C1334 1.363 . S
C1335 C1341 1.428 . S
H1336 C1332 0.930 . S
H1337 C1334 0.929 . S
S1338 N1339 1.613 . S
S1338 N1340 1.610 . S
N1339 S1338 1.613 . S
N1339 C1342 1.350 . S
N1340 S1338 1.610 . S
N1340 C1341 1.351 . S
C1341 C1335 1.428 . S
C1341 N1340 1.351 . S
C1341 C1342 1.434 . S
C1342 C1333 1.429 . S
C1342 N1339 1.350 . S
C1342 C1341 1.434 . S
C1343 C1344 1.369 . S
C1343 C1345 1.419 . S
C1343 H1347 0.930 . S
C1344 C1343 1.369 . S
C1344 C1353 1.429 . S
C1345 C1343 1.419 . S
C1345 C1346 1.363 . S
C1345 H1348 0.929 . S
C1346 C1345 1.363 . S
C1346 C1352 1.428 . S
H1347 C1343 0.930 . S
H1348 C1345 0.929 . S
S1349 N1350 1.613 . S
S1349 N1351 1.610 . S
N1350 S1349 1.613 . S
N1350 C1353 1.350 . S
N1351 S1349 1.610 . S
N1351 C1352 1.351 . S
C1352 C1346 1.428 . S
C1352 N1351 1.351 . S
C1352 C1353 1.434 . S
C1353 C1344 1.429 . S
C1353 N1350 1.350 . S
C1353 C1352 1.434 . S
C1354 C1355 1.369 . S
C1354 C1356 1.419 . S
C1354 H1358 0.930 . S
C1355 C1354 1.369 . S
C1355 C1364 1.429 . S
C1356 C1354 1.419 . S
C1356 C1357 1.363 . S
C1356 H1359 0.929 . S
C1357 C1356 1.363 . S
C1357 C1363 1.428 . S
H1358 C1354 0.930 . S
H1359 C1356 0.929 . S
S1360 N1361 1.613 . S
S1360 N1362 1.610 . S
N1361 S1360 1.613 . S
N1361 C1364 1.350 . S
N1362 S1360 1.610 . S
N1362 C1363 1.351 . S
C1363 C1357 1.428 . S
C1363 N1362 1.351 . S
C1363 C1364 1.434 . S
C1364 C1355 1.429 . S
C1364 N1361 1.350 . S
C1364 C1363 1.434 . S
C1365 C1366 1.369 . S
C1365 C1367 1.419 . S
C1365 H1369 0.930 . S
C1366 C1365 1.369 . S
C1366 C1375 1.429 . S
C1367 C1365 1.419 . S
C1367 C1368 1.363 . S
C1367 H1370 0.929 . S
C1368 C1367 1.363 . S
C1368 C1374 1.428 . S
H1369 C1365 0.930 . S
H1370 C1367 0.929 . S
S1371 N1372 1.613 . S
S1371 N1373 1.610 . S
N1372 S1371 1.613 . S
N1372 C1375 1.350 . S
N1373 S1371 1.610 . S
N1373 C1374 1.351 . S
C1374 C1368 1.428 . S
C1374 N1373 1.351 . S
C1374 C1375 1.434 . S
C1375 C1366 1.429 . S
C1375 N1372 1.350 . S
C1375 C1374 1.434 . S
C1376 C1377 1.369 . S
C1376 C1378 1.419 . S
C1376 H1380 0.930 . S
C1377 C1376 1.369 . S
C1377 C1386 1.429 . S
C1378 C1376 1.419 . S
C1378 C1379 1.363 . S
C1378 H1381 0.929 . S
C1379 C1378 1.363 . S
C1379 C1385 1.428 . S
H1380 C1376 0.930 . S
H1381 C1378 0.929 . S
S1382 N1383 1.613 . S
S1382 N1384 1.610 . S
N1383 S1382 1.613 . S
N1383 C1386 1.350 . S
N1384 S1382 1.610 . S
N1384 C1385 1.351 . S
C1385 C1379 1.428 . S
C1385 N1384 1.351 . S
C1385 C1386 1.434 . S
C1386 C1377 1.429 . S
C1386 N1383 1.350 . S
C1386 C1385 1.434 . S
C1387 C1388 1.369 . S
C1387 C1389 1.419 . S
C1387 H1391 0.930 . S
C1388 C1387 1.369 . S
C1388 C1397 1.429 . S
C1389 C1387 1.419 . S
C1389 C1390 1.363 . S
C1389 H1392 0.929 . S
C1390 C1389 1.363 . S
C1390 C1396 1.428 . S
H1391 C1387 0.930 . S
H1392 C1389 0.929 . S
S1393 N1394 1.613 . S
S1393 N1395 1.610 . S
N1394 S1393 1.613 . S
N1394 C1397 1.350 . S
N1395 S1393 1.610 . S
N1395 C1396 1.351 . S
C1396 C1390 1.428 . S
C1396 N1395 1.351 . S
C1396 C1397 1.434 . S
C1397 C1388 1.429 . S
C1397 N1394 1.350 . S
C1397 C1396 1.434 . S
C1398 C1399 1.369 . S
C1398 C1400 1.419 . S
C1398 H1402 0.930 . S
C1399 C1398 1.369 . S
C1399 C1408 1.429 1_565 S
C1400 C1398 1.419 . S
C1400 C1401 1.363 . S
C1400 H1403 0.929 . S
C1401 C1400 1.363 . S
C1401 C1407 1.428 1_565 S
H1402 C1398 0.930 . S
H1403 C1400 0.929 . S
S1404 N1405 1.613 . S
S1404 N1406 1.610 . S
N1405 S1404 1.613 . S
N1405 C1408 1.350 . S
N1406 S1404 1.610 . S
N1406 C1407 1.351 . S
C1407 C1401 1.428 1_545 S
C1407 N1406 1.351 . S
C1407 C1408 1.434 . S
C1408 C1399 1.429 1_545 S
C1408 N1405 1.350 . S
C1408 C1407 1.434 . S
C1409 C1410 1.369 . S
C1409 C1411 1.419 . S
C1409 H1413 0.930 . S
C1410 C1409 1.369 . S
C1410 C1419 1.429 . S
C1411 C1409 1.419 . S
C1411 C1412 1.363 . S
C1411 H1414 0.929 . S
C1412 C1411 1.363 . S
C1412 C1418 1.428 . S
H1413 C1409 0.930 . S
H1414 C1411 0.929 . S
S1415 N1416 1.613 . S
S1415 N1417 1.610 . S
N1416 S1415 1.613 . S
N1416 C1419 1.350 . S
N1417 S1415 1.610 . S
N1417 C1418 1.351 . S
C1418 C1412 1.428 . S
C1418 N1417 1.351 . S
C1418 C1419 1.434 . S
C1419 C1410 1.429 . S
C1419 N1416 1.350 . S
C1419 C1418 1.434 . S
C1420 C1421 1.369 . S
C1420 C1422 1.419 . S
C1420 H1424 0.930 . S
C1421 C1420 1.369 . S
C1421 C1430 1.429 . S
C1422 C1420 1.419 . S
C1422 C1423 1.363 . S
C1422 H1425 0.929 . S
C1423 C1422 1.363 . S
C1423 C1429 1.428 . S
H1424 C1420 0.930 . S
H1425 C1422 0.929 . S
S1426 N1427 1.613 . S
S1426 N1428 1.610 . S
N1427 S1426 1.613 . S
N1427 C1430 1.350 . S
N1428 S1426 1.610 . S
N1428 C1429 1.351 . S
C1429 C1423 1.428 . S
C1429 N1428 1.351 . S
C1429 C1430 1.434 . S
C1430 C1421 1.429 . S
C1430 N1427 1.350 . S
C1430 C1429 1.434 . S
C1431 C1432 1.369 . S
C1431 C1433 1.419 . S
C1431 H1435 0.930 . S
C1432 C1431 1.369 . S
C1432 C1441 1.429 . S
C1433 C1431 1.419 . S
C1433 C1434 1.363 . S
C1433 H1436 0.929 . S
C1434 C1433 1.363 . S
C1434 C1440 1.428 . S
H1435 C1431 0.930 . S
H1436 C1433 0.929 . S
S1437 N1438 1.613 . S
S1437 N1439 1.610 1_556 S
N1438 S1437 1.613 . S
N1438 C1441 1.350 1_556 S
N1439 S1437 1.610 1_554 S
N1439 C1440 1.351 . S
C1440 C1434 1.428 . S
C1440 N1439 1.351 . S
C1440 C1441 1.434 . S
C1441 C1432 1.429 . S
C1441 N1438 1.350 1_554 S
C1441 C1440 1.434 . S
C1442 C1443 1.369 . S
C1442 C1444 1.419 . S
C1442 H1446 0.930 . S
C1443 C1442 1.369 . S
C1443 C1452 1.429 . S
C1444 C1442 1.419 . S
C1444 C1445 1.363 . S
C1444 H1447 0.929 . S
C1445 C1444 1.363 . S
C1445 C1451 1.428 . S
H1446 C1442 0.930 . S
H1447 C1444 0.929 . S
S1448 N1449 1.613 . S
S1448 N1450 1.610 . S
N1449 S1448 1.613 . S
N1449 C1452 1.350 . S
N1450 S1448 1.610 . S
N1450 C1451 1.351 . S
C1451 C1445 1.428 . S
C1451 N1450 1.351 . S
C1451 C1452 1.434 . S
C1452 C1443 1.429 . S
C1452 N1449 1.350 . S
C1452 C1451 1.434 . S
C1453 C1454 1.369 . S
C1453 C1455 1.419 1_655 S
C1453 H1457 0.930 . S
C1454 C1453 1.369 . S
C1454 C1463 1.429 . S
C1455 C1453 1.419 1_455 S
C1455 C1456 1.363 . S
C1455 H1458 0.929 . S
C1456 C1455 1.363 . S
C1456 C1462 1.428 . S
H1457 C1453 0.930 . S
H1458 C1455 0.929 . S
S1459 N1460 1.613 . S
S1459 N1461 1.610 1_655 S
N1460 S1459 1.613 . S
N1460 C1463 1.350 1_545 S
N1461 S1459 1.610 1_455 S
N1461 C1462 1.351 1_545 S
C1462 C1456 1.428 . S
C1462 N1461 1.351 1_565 S
C1462 C1463 1.434 1_455 S
C1463 C1454 1.429 . S
C1463 N1460 1.350 1_565 S
C1463 C1462 1.434 1_655 S
C1464 C1465 1.369 . S
C1464 C1466 1.419 . S
C1464 H1468 0.930 . S
C1465 C1464 1.369 . S
C1465 C1474 1.429 . S
C1466 C1464 1.419 . S
C1466 C1467 1.363 . S
C1466 H1469 0.929 . S
C1467 C1466 1.363 . S
C1467 C1473 1.428 . S
H1468 C1464 0.930 . S
H1469 C1466 0.929 . S
S1470 N1471 1.613 . S
S1470 N1472 1.610 . S
N1471 S1470 1.613 . S
N1471 C1474 1.350 . S
N1472 S1470 1.610 . S
N1472 C1473 1.351 . S
C1473 C1467 1.428 . S
C1473 N1472 1.351 . S
C1473 C1474 1.434 . S
C1474 C1465 1.429 . S
C1474 N1471 1.350 . S
C1474 C1473 1.434 . S
C1475 C1476 1.369 . S
C1475 C1477 1.419 1_556 S
C1475 H1479 0.930 . S
C1476 C1475 1.369 . S
C1476 C1485 1.429 . S
C1477 C1475 1.419 1_554 S
C1477 C1478 1.363 . S
C1477 H1480 0.929 . S
C1478 C1477 1.363 . S
C1478 C1484 1.428 . S
H1479 C1475 0.930 . S
H1480 C1477 0.929 . S
S1481 N1482 1.613 1_554 S
S1481 N1483 1.610 . S
N1482 S1481 1.613 1_556 S
N1482 C1485 1.350 . S
N1483 S1481 1.610 . S
N1483 C1484 1.351 . S
C1484 C1478 1.428 . S
C1484 N1483 1.351 . S
C1484 C1485 1.434 1_554 S
C1485 C1476 1.429 . S
C1485 N1482 1.350 . S
C1485 C1484 1.434 1_556 S
C1486 C1487 1.369 . S
C1486 C1488 1.419 . S
C1486 H1490 0.930 . S
C1487 C1486 1.369 . S
C1487 C1496 1.429 . S
C1488 C1486 1.419 . S
C1488 C1489 1.363 . S
C1488 H1491 0.929 . S
C1489 C1488 1.363 . S
C1489 C1495 1.428 . S
H1490 C1486 0.930 . S
H1491 C1488 0.929 . S
S1492 N1493 1.613 . S
S1492 N1494 1.610 . S
N1493 S1492 1.613 . S
N1493 C1496 1.350 . S
N1494 S1492 1.610 . S
N1494 C1495 1.351 . S
C1495 C1489 1.428 . S
C1495 N1494 1.351 . S
C1495 C1496 1.434 . S
C1496 C1487 1.429 . S
C1496 N1493 1.350 . S
C1496 C1495 1.434 . S
C1497 C1498 1.369 . S
C1497 C1499 1.419 . S
C1497 H1501 0.930 . S
C1498 C1497 1.369 . S
C1498 C1507 1.429 . S
C1499 C1497 1.419 . S
C1499 C1500 1.363 . S
C1499 H1502 0.929 . S
C1500 C1499 1.363 . S
C1500 C1506 1.428 . S
H1501 C1497 0.930 . S
H1502 C1499 0.929 . S
S1503 N1504 1.613 . S
S1503 N1505 1.610 . S
N1504 S1503 1.613 . S
N1504 C1507 1.350 . S
N1505 S1503 1.610 . S
N1505 C1506 1.351 . S
C1506 C1500 1.428 . S
C1506 N1505 1.351 . S
C1506 C1507 1.434 . S
C1507 C1498 1.429 . S
C1507 N1504 1.350 . S
C1507 C1506 1.434 . S
C1508 C1509 1.369 . S
C1508 C1510 1.419 . S
C1508 H1512 0.930 . S
C1509 C1508 1.369 . S
C1509 C1518 1.429 . S
C1510 C1508 1.419 . S
C1510 C1511 1.363 . S
C1510 H1513 0.929 . S
C1511 C1510 1.363 . S
C1511 C1517 1.428 . S
H1512 C1508 0.930 . S
H1513 C1510 0.929 . S
S1514 N1515 1.613 . S
S1514 N1516 1.610 . S
N1515 S1514 1.613 . S
N1515 C1518 1.350 . S
N1516 S1514 1.610 . S
N1516 C1517 1.351 . S
C1517 C1511 1.428 . S
C1517 N1516 1.351 . S
C1517 C1518 1.434 . S
C1518 C1509 1.429 . S
C1518 N1515 1.350 . S
C1518 C1517 1.434 . S
C1519 C1520 1.369 . S
C1519 C1521 1.419 . S
C1519 H1523 0.930 . S
C1520 C1519 1.369 . S
C1520 C1529 1.429 . S
C1521 C1519 1.419 . S
C1521 C1522 1.363 1_554 S
C1521 H1524 0.929 . S
C1522 C1521 1.363 1_556 S
C1522 C1528 1.428 . S
H1523 C1519 0.930 . S
H1524 C1521 0.929 . S
S1525 N1526 1.613 1_556 S
S1525 N1527 1.610 1_655 S
N1526 S1525 1.613 1_554 S
N1526 C1529 1.350 1_655 S
N1527 S1525 1.610 1_455 S
N1527 C1528 1.351 . S
C1528 C1522 1.428 . S
C1528 N1527 1.351 . S
C1528 C1529 1.434 1_556 S
C1529 C1520 1.429 . S
C1529 N1526 1.350 1_455 S
C1529 C1528 1.434 1_554 S
C1530 C1531 1.369 . S
C1530 C1532 1.419 . S
C1530 H1534 0.930 . S
C1531 C1530 1.369 . S
C1531 C1540 1.429 . S
C1532 C1530 1.419 . S
C1532 C1533 1.363 . S
C1532 H1535 0.929 . S
C1533 C1532 1.363 . S
C1533 C1539 1.428 . S
H1534 C1530 0.930 . S
H1535 C1532 0.929 . S
S1536 N1537 1.613 . S
S1536 N1538 1.610 . S
N1537 S1536 1.613 . S
N1537 C1540 1.350 . S
N1538 S1536 1.610 . S
N1538 C1539 1.351 . S
C1539 C1533 1.428 . S
C1539 N1538 1.351 . S
C1539 C1540 1.434 . S
C1540 C1531 1.429 . S
C1540 N1537 1.350 . S
C1540 C1539 1.434 . S
C1541 C1542 1.369 . S
C1541 C1543 1.419 . S
C1541 H1545 0.930 . S
C1542 C1541 1.369 . S
C1542 C1551 1.429 . S
C1543 C1541 1.419 . S
C1543 C1544 1.363 . S
C1543 H1546 0.929 . S
C1544 C1543 1.363 . S
C1544 C1550 1.428 . S
H1545 C1541 0.930 . S
H1546 C1543 0.929 . S
S1547 N1548 1.613 . S
S1547 N1549 1.610 . S
N1548 S1547 1.613 . S
N1548 C1551 1.350 . S
N1549 S1547 1.610 . S
N1549 C1550 1.351 . S
C1550 C1544 1.428 . S
C1550 N1549 1.351 . S
C1550 C1551 1.434 . S
C1551 C1542 1.429 . S
C1551 N1548 1.350 . S
C1551 C1550 1.434 . S
C1552 C1553 1.369 . S
C1552 C1554 1.419 . S
C1552 H1556 0.930 . S
C1553 C1552 1.369 . S
C1553 C1562 1.429 . S
C1554 C1552 1.419 . S
C1554 C1555 1.363 . S
C1554 H1557 0.929 . S
C1555 C1554 1.363 . S
C1555 C1561 1.428 . S
H1556 C1552 0.930 . S
H1557 C1554 0.929 . S
S1558 N1559 1.613 . S
S1558 N1560 1.610 . S
N1559 S1558 1.613 . S
N1559 C1562 1.350 . S
N1560 S1558 1.610 . S
N1560 C1561 1.351 . S
C1561 C1555 1.428 . S
C1561 N1560 1.351 . S
C1561 C1562 1.434 . S
C1562 C1553 1.429 . S
C1562 N1559 1.350 . S
C1562 C1561 1.434 . S
C1563 C1564 1.369 . S
C1563 C1565 1.419 . S
C1563 H1567 0.930 . S
C1564 C1563 1.369 . S
C1564 C1573 1.429 . S
C1565 C1563 1.419 . S
C1565 C1566 1.363 . S
C1565 H1568 0.929 . S
C1566 C1565 1.363 . S
C1566 C1572 1.428 . S
H1567 C1563 0.930 . S
H1568 C1565 0.929 . S
S1569 N1570 1.613 . S
S1569 N1571 1.610 . S
N1570 S1569 1.613 . S
N1570 C1573 1.350 1_556 S
N1571 S1569 1.610 . S
N1571 C1572 1.351 1_556 S
C1572 C1566 1.428 . S
C1572 N1571 1.351 1_554 S
C1572 C1573 1.434 . S
C1573 C1564 1.429 . S
C1573 N1570 1.350 1_554 S
C1573 C1572 1.434 . S
C1574 C1575 1.369 . S
C1574 C1576 1.419 . S
C1574 H1578 0.930 . S
C1575 C1574 1.369 . S
C1575 C1584 1.429 . S
C1576 C1574 1.419 . S
C1576 C1577 1.363 . S
C1576 H1579 0.929 . S
C1577 C1576 1.363 . S
C1577 C1583 1.428 . S
H1578 C1574 0.930 . S
H1579 C1576 0.929 . S
S1580 N1581 1.613 . S
S1580 N1582 1.610 . S
N1581 S1580 1.613 . S
N1581 C1584 1.350 . S
N1582 S1580 1.610 . S
N1582 C1583 1.351 . S
C1583 C1577 1.428 . S
C1583 N1582 1.351 . S
C1583 C1584 1.434 . S
C1584 C1575 1.429 . S
C1584 N1581 1.350 . S
C1584 C1583 1.434 . S
C1585 C1586 1.369 . S
C1585 C1587 1.419 . S
C1585 H1589 0.930 . S
C1586 C1585 1.369 . S
C1586 C1595 1.429 . S
C1587 C1585 1.419 . S
C1587 C1588 1.363 . S
C1587 H1590 0.929 . S
C1588 C1587 1.363 . S
C1588 C1594 1.428 . S
H1589 C1585 0.930 . S
H1590 C1587 0.929 . S
S1591 N1592 1.613 . S
S1591 N1593 1.610 . S
N1592 S1591 1.613 . S
N1592 C1595 1.350 . S
N1593 S1591 1.610 . S
N1593 C1594 1.351 . S
C1594 C1588 1.428 . S
C1594 N1593 1.351 . S
C1594 C1595 1.434 . S
C1595 C1586 1.429 . S
C1595 N1592 1.350 . S
C1595 C1594 1.434 . S
C1596 C1597 1.369 . S
C1596 C1598 1.419 . S
C1596 H1600 0.930 . S
C1597 C1596 1.369 . S
C1597 C1606 1.429 . S
C1598 C1596 1.419 . S
C1598 C1599 1.363 . S
C1598 H1601 0.929 . S
C1599 C1598 1.363 . S
C1599 C1605 1.428 . S
H1600 C1596 0.930 . S
H1601 C1598 0.929 . S
S1602 N1603 1.613 . S
S1602 N1604 1.610 . S
N1603 S1602 1.613 . S
N1603 C1606 1.350 . S
N1604 S1602 1.610 . S
N1604 C1605 1.351 . S
C1605 C1599 1.428 . S
C1605 N1604 1.351 . S
C1605 C1606 1.434 . S
C1606 C1597 1.429 . S
C1606 N1603 1.350 . S
C1606 C1605 1.434 . S
C1607 C1608 1.369 . S
C1607 C1609 1.419 . S
C1607 H1611 0.930 . S
C1608 C1607 1.369 . S
C1608 C1617 1.429 . S
C1609 C1607 1.419 . S
C1609 C1610 1.363 . S
C1609 H1612 0.929 . S
C1610 C1609 1.363 . S
C1610 C1616 1.428 . S
H1611 C1607 0.930 . S
H1612 C1609 0.929 . S
S1613 N1614 1.613 . S
S1613 N1615 1.610 . S
N1614 S1613 1.613 . S
N1614 C1617 1.350 1_554 S
N1615 S1613 1.610 . S
N1615 C1616 1.351 1_554 S
C1616 C1610 1.428 . S
C1616 N1615 1.351 1_556 S
C1616 C1617 1.434 . S
C1617 C1608 1.429 . S
C1617 N1614 1.350 1_556 S
C1617 C1616 1.434 . S
C1618 C1619 1.369 . S
C1618 C1620 1.419 . S
C1618 H1622 0.930 . S
C1619 C1618 1.369 . S
C1619 C1628 1.429 . S
C1620 C1618 1.419 . S
C1620 C1621 1.363 . S
C1620 H1623 0.929 . S
C1621 C1620 1.363 . S
C1621 C1627 1.428 . S
H1622 C1618 0.930 . S
H1623 C1620 0.929 . S
S1624 N1625 1.613 . S
S1624 N1626 1.610 . S
N1625 S1624 1.613 . S
N1625 C1628 1.350 . S
N1626 S1624 1.610 . S
N1626 C1627 1.351 . S
C1627 C1621 1.428 . S
C1627 N1626 1.351 . S
C1627 C1628 1.434 . S
C1628 C1619 1.429 . S
C1628 N1625 1.350 . S
C1628 C1627 1.434 . S
C1629 C1630 1.369 . S
C1629 C1631 1.419 . S
C1629 H1633 0.930 . S
C1630 C1629 1.369 . S
C1630 C1639 1.429 . S
C1631 C1629 1.419 . S
C1631 C1632 1.363 . S
C1631 H1634 0.929 . S
C1632 C1631 1.363 . S
C1632 C1638 1.428 . S
H1633 C1629 0.930 . S
H1634 C1631 0.929 . S
S1635 N1636 1.613 . S
S1635 N1637 1.610 . S
N1636 S1635 1.613 . S
N1636 C1639 1.350 . S
N1637 S1635 1.610 . S
N1637 C1638 1.351 . S
C1638 C1632 1.428 . S
C1638 N1637 1.351 . S
C1638 C1639 1.434 . S
C1639 C1630 1.429 . S
C1639 N1636 1.350 . S
C1639 C1638 1.434 . S
C1640 C1641 1.369 . S
C1640 C1642 1.419 . S
C1640 H1644 0.930 . S
C1641 C1640 1.369 . S
C1641 C1650 1.429 . S
C1642 C1640 1.419 . S
C1642 C1643 1.363 . S
C1642 H1645 0.929 . S
C1643 C1642 1.363 . S
C1643 C1649 1.428 . S
H1644 C1640 0.930 . S
H1645 C1642 0.929 . S
S1646 N1647 1.613 . S
S1646 N1648 1.610 . S
N1647 S1646 1.613 . S
N1647 C1650 1.350 . S
N1648 S1646 1.610 . S
N1648 C1649 1.351 . S
C1649 C1643 1.428 . S
C1649 N1648 1.351 . S
C1649 C1650 1.434 . S
C1650 C1641 1.429 . S
C1650 N1647 1.350 . S
C1650 C1649 1.434 . S
C1651 C1652 1.369 . S
C1651 C1653 1.419 . S
C1651 H1655 0.930 . S
C1652 C1651 1.369 . S
C1652 C1661 1.429 . S
C1653 C1651 1.419 . S
C1653 C1654 1.363 . S
C1653 H1656 0.929 . S
C1654 C1653 1.363 . S
C1654 C1660 1.428 . S
H1655 C1651 0.930 . S
H1656 C1653 0.929 . S
S1657 N1658 1.613 . S
S1657 N1659 1.610 . S
N1658 S1657 1.613 . S
N1658 C1661 1.350 . S
N1659 S1657 1.610 . S
N1659 C1660 1.351 . S
C1660 C1654 1.428 . S
C1660 N1659 1.351 . S
C1660 C1661 1.434 . S
C1661 C1652 1.429 . S
C1661 N1658 1.350 . S
C1661 C1660 1.434 . S
C1662 C1663 1.369 . S
C1662 C1664 1.419 . S
C1662 H1666 0.930 . S
C1663 C1662 1.369 . S
C1663 C1672 1.429 . S
C1664 C1662 1.419 . S
C1664 C1665 1.363 . S
C1664 H1667 0.929 . S
C1665 C1664 1.363 . S
C1665 C1671 1.428 . S
H1666 C1662 0.930 . S
H1667 C1664 0.929 . S
S1668 N1669 1.613 . S
S1668 N1670 1.610 . S
N1669 S1668 1.613 . S
N1669 C1672 1.350 1_565 S
N1670 S1668 1.610 . S
N1670 C1671 1.351 1_565 S
C1671 C1665 1.428 . S
C1671 N1670 1.351 1_545 S
C1671 C1672 1.434 . S
C1672 C1663 1.429 . S
C1672 N1669 1.350 1_545 S
C1672 C1671 1.434 . S
C1673 C1674 1.369 . S
C1673 C1675 1.419 . S
C1673 H1677 0.930 . S
C1674 C1673 1.369 . S
C1674 C1683 1.429 . S
C1675 C1673 1.419 . S
C1675 C1676 1.363 . S
C1675 H1678 0.929 . S
C1676 C1675 1.363 . S
C1676 C1682 1.428 . S
H1677 C1673 0.930 . S
H1678 C1675 0.929 . S
S1679 N1680 1.613 . S
S1679 N1681 1.610 . S
N1680 S1679 1.613 . S
N1680 C1683 1.350 . S
N1681 S1679 1.610 . S
N1681 C1682 1.351 . S
C1682 C1676 1.428 . S
C1682 N1681 1.351 . S
C1682 C1683 1.434 . S
C1683 C1674 1.429 . S
C1683 N1680 1.350 . S
C1683 C1682 1.434 . S
C1684 C1685 1.369 . S
C1684 C1686 1.419 . S
C1684 H1688 0.930 . S
C1685 C1684 1.369 . S
C1685 C1694 1.429 . S
C1686 C1684 1.419 . S
C1686 C1687 1.363 . S
C1686 H1689 0.929 . S
C1687 C1686 1.363 . S
C1687 C1693 1.428 . S
H1688 C1684 0.930 . S
H1689 C1686 0.929 . S
S1690 N1691 1.613 . S
S1690 N1692 1.610 . S
N1691 S1690 1.613 . S
N1691 C1694 1.350 . S
N1692 S1690 1.610 . S
N1692 C1693 1.351 . S
C1693 C1687 1.428 . S
C1693 N1692 1.351 . S
C1693 C1694 1.434 . S
C1694 C1685 1.429 . S
C1694 N1691 1.350 . S
C1694 C1693 1.434 . S
C1695 C1696 1.369 . S
C1695 C1697 1.419 . S
C1695 H1699 0.930 . S
C1696 C1695 1.369 . S
C1696 C1705 1.429 . S
C1697 C1695 1.419 . S
C1697 C1698 1.363 . S
C1697 H1700 0.929 . S
C1698 C1697 1.363 . S
C1698 C1704 1.428 . S
H1699 C1695 0.930 . S
H1700 C1697 0.929 . S
S1701 N1702 1.613 . S
S1701 N1703 1.610 . S
N1702 S1701 1.613 . S
N1702 C1705 1.350 . S
N1703 S1701 1.610 . S
N1703 C1704 1.351 . S
C1704 C1698 1.428 . S
C1704 N1703 1.351 . S
C1704 C1705 1.434 . S
C1705 C1696 1.429 . S
C1705 N1702 1.350 . S
C1705 C1704 1.434 . S
C1706 C1707 1.369 . S
C1706 C1708 1.419 . S
C1706 H1710 0.930 . S
C1707 C1706 1.369 . S
C1707 C1716 1.429 . S
C1708 C1706 1.419 . S
C1708 C1709 1.363 . S
C1708 H1711 0.929 . S
C1709 C1708 1.363 . S
C1709 C1715 1.428 . S
H1710 C1706 0.930 . S
H1711 C1708 0.929 . S
S1712 N1713 1.613 . S
S1712 N1714 1.610 . S
N1713 S1712 1.613 . S
N1713 C1716 1.350 1_545 S
N1714 S1712 1.610 . S
N1714 C1715 1.351 1_545 S
C1715 C1709 1.428 . S
C1715 N1714 1.351 1_565 S
C1715 C1716 1.434 . S
C1716 C1707 1.429 . S
C1716 N1713 1.350 1_565 S
C1716 C1715 1.434 . S
C1717 C1718 1.369 . S
C1717 C1719 1.419 1_455 S
C1717 H1721 0.930 . S
C1718 C1717 1.369 . S
C1718 C1727 1.429 . S
C1719 C1717 1.419 1_655 S
C1719 C1720 1.363 . S
C1719 H1722 0.929 . S
C1720 C1719 1.363 . S
C1720 C1726 1.428 1_655 S
H1721 C1717 0.930 . S
H1722 C1719 0.929 . S
S1723 N1724 1.613 . S
S1723 N1725 1.610 1_455 S
N1724 S1723 1.613 . S
N1724 C1727 1.350 . S
N1725 S1723 1.610 1_655 S
N1725 C1726 1.351 1_655 S
C1726 C1720 1.428 1_455 S
C1726 N1725 1.351 1_455 S
C1726 C1727 1.434 . S
C1727 C1718 1.429 . S
C1727 N1724 1.350 . S
C1727 C1726 1.434 . S
C675 C354 1.315 . S
C673 C7 1.427 . S
C684 C23 1.546 . S
C686 C374 1.647 . S
C697 C394 1.223 . S
C695 C36 1.298 . S
C708 C413 1.583 . S
C706 C45 1.532 . S
C719 C371 1.555 . S
C717 C59 1.512 . S
C728 C78 1.359 . S
C730 C396 1.270 . S
C741 C416 1.535 . S
C739 C93 1.462 . S
C750 C105 1.528 . S
C752 C352 1.400 . S
C761 C115 1.643 . S
C763 C349 1.536 . S
C774 C372 1.425 . S
C772 C133 1.576 . S
C785 C395 1.575 . S
C783 C148 1.479 . S
C796 C417 1.478 . S
C794 C163 1.530 1_545 S
C807 C375 1.167 . S
C805 C121 1.229 . S
C818 C391 1.189 1_545 S
C816 C134 1.280 . S
C827 C147 1.433 . S
C829 C414 1.264 . S
C840 C353 1.323 . S
C838 C157 1.261 . S
C849 C175 1.599 . S
C851 C350 1.629 . S
C860 C191 1.131 . S
C862 C433 1.043 . S
C873 C455 1.485 . S
C871 C199 1.449 . S
C884 C478 1.165 . S
C882 C218 1.343 . S
C893 C231 1.609 . S
C895 C351 1.527 . S
C904 C241 1.591 . S
C906 C393 1.502 . S
C917 C475 1.297 . S
C915 C205 1.439 . S
C928 C436 1.084 . S
C926 C260 1.198 . S
C939 C501 1.102 . S
C937 C22 1.207 . S
C950 C521 1.605 . S
C948 C9 1.553 . S
C959 C49 1.412 . S
C961 C543 1.269 . S
C970 C31 1.318 . S
C972 C560 1.333 . S
C981 C101 1.612 . S
C983 C518 1.625 . S
C992 C91 1.414 . S
C994 C541 1.174 . S
C1005 C563 1.506 . S
C1003 C79 1.426 . S
C1014 C64 1.305 . S
C1016 C499 1.122 . S
C1025 C274 1.147 1_565 S
C1027 C496 1.011 . S
C1038 C519 1.470 . S
C1036 C213 1.580 1_545 S
C1049 C538 1.304 . S
C1047 C233 1.439 . S
C1060 C564 1.427 . S
C1058 C189 1.632 . S
C1071 C522 1.236 . S
C1069 C273 1.403 . S
C1082 C542 1.233 . S
C1080 C219 1.185 . S
C1093 C561 1.071 . S
C1091 C227 1.152 . S
C1102 C190 1.340 . S
C1104 C500 1.352 1_545 S
C1115 C497 1.413 . S
C1113 C289 1.373 . S
C1124 C162 1.357 . S
C1126 C580 1.099 . S
C1137 C603 1.396 . S
C1135 C301 1.531 . S
C1146 C129 1.443 . S
C1148 C625 1.165 . S
C1159 C498 1.362 1_545 S
C1157 C149 1.408 . S
C1170 C539 1.469 . S
C1168 C315 1.497 . S
C1181 C622 1.038 . S
C1179 C302 1.309 . S
C1190 C325 1.151 . S
C1192 C583 0.971 . S
C1201 C35 1.428 . S
C1203 C648 1.325 . S
C1212 C51 1.549 . S
C1214 C437 1.646 . S
C1225 C457 1.226 . S
C1223 C8 1.306 . S
C1234 C17 1.537 . S
C1236 C476 1.582 . S
C1245 C87 1.514 . S
C1247 C434 1.556 . S
C1256 C106 1.359 . S
C1258 C459 1.270 . S
C1269 C479 1.540 . S
C1267 C65 1.453 . S
C1280 C646 1.388 . S
C1278 C77 1.527 . S
C1291 C643 1.542 . S
C1289 C297 1.646 . S
C1302 C435 1.421 . S
C1300 C287 1.573 . S
C1313 C458 1.574 . S
C1311 C330 1.482 . S
C1322 C317 1.538 . S
C1324 C480 1.474 . S
C1335 C438 1.166 . S
C1333 C303 1.230 . S
C1344 C288 1.281 . S
C1346 C454 1.185 . S
C1357 C477 1.274 . S
C1355 C329 1.430 . S
C1366 C311 1.261 . S
C1368 C647 1.323 . S
C1379 C644 1.625 . S
C1377 C217 1.598 . S
C1388 C247 1.142 . S
C1390 C370 1.028 . S
C1401 C392 1.488 . S
C1399 C269 1.443 1_565 S
C1410 C176 1.349 . S
C1412 C415 1.150 . S
C1423 C645 1.531 . S
C1421 C259 1.611 . S
C1434 C456 1.507 . S
C1432 C185 1.591 . S
C1445 C412 1.299 . S
C1443 C275 1.436 . S
C1456 C373 1.084 . S
C1454 C232 1.198 . S
C1465 C50 1.198 . S
C1467 C669 1.114 . S
C1476 C37 1.557 . S
C1478 C584 1.600 . S
C1487 C21 1.411 . S
C1489 C606 1.268 . S
C1500 C623 1.343 . S
C1498 C3 1.308 . S
C1511 C581 1.627 . S
C1509 C73 1.614 . S
C1520 C63 1.413 . S
C1522 C604 1.176 . S
C1533 C626 1.498 . S
C1531 C107 1.441 . S
C1542 C92 1.306 . S
C1544 C667 1.113 . S
C1555 C664 0.996 . S
C1553 C204 1.155 . S
C1564 C171 1.579 . S
C1566 C582 1.469 . S
C1575 C261 1.443 . S
C1577 C601 1.308 . S
C1588 C627 1.424 . S
C1586 C245 1.633 . S
C1599 C585 1.224 . S
C1597 C203 1.406 . S
C1608 C177 1.193 . S
C1610 C605 1.228 . S
C1621 C624 1.054 . S
C1619 C255 1.166 . S
C1632 C668 1.347 . S
C1630 C246 1.346 . S
C1643 C665 1.411 . S
C1641 C135 1.376 . S
C1654 C517 1.111 . S
C1652 C316 1.351 . S
C1663 C119 1.532 . S
C1665 C540 1.397 . S
C1674 C283 1.442 . S
C1676 C562 1.165 . S
C1687 C666 1.362 . S
C1685 C331 1.405 . S
C1698 C602 1.469 . S
C1696 C161 1.497 . S
C1709 C559 1.049 . S
C1707 C120 1.299 . S
C1720 C520 0.976 . S
C1718 C143 1.148 . S
