# Generated by pormake.
# Topology llj, (12,3)-cn, num edge types: 1
# Building blocks:
#     Node 0, Type 0, BuildingBlock: QEWDON_clean_sbu_0, # of connection points: 12
#     Node 1, Type 0, BuildingBlock: QEWDON_clean_sbu_0, # of connection points: 12
#     Node 2, Type 1, BuildingBlock: WUSLED_clean_sbu_0, # of connection points: 3
#     Node 3, Type 1, BuildingBlock: WUSLED_clean_sbu_0, # of connection points: 3
#     Node 4, Type 1, BuildingBlock: WUSLED_clean_sbu_0, # of connection points: 3
#     Node 5, Type 1, BuildingBlock: WUSLED_clean_sbu_0, # of connection points: 3
#     Node 6, Type 1, BuildingBlock: WUSLED_clean_sbu_0, # of connection points: 3
#     Node 7, Type 1, BuildingBlock: WUSLED_clean_sbu_0, # of connection points: 3
#     Node 8, Type 1, BuildingBlock: WUSLED_clean_sbu_0, # of connection points: 3
#     Node 9, Type 1, BuildingBlock: WUSLED_clean_sbu_0, # of connection points: 3
#     Edge 10, Type (0, 1), BuildingBlock: MIFKUJ_clean_linker_0, # of connection points: 2
#     Edge 11, Type (0, 1), BuildingBlock: MIFKUJ_clean_linker_0, # of connection points: 2
#     Edge 12, Type (0, 1), BuildingBlock: MIFKUJ_clean_linker_0, # of connection points: 2
#     Edge 13, Type (0, 1), BuildingBlock: MIFKUJ_clean_linker_0, # of connection points: 2
#     Edge 14, Type (0, 1), BuildingBlock: MIFKUJ_clean_linker_0, # of connection points: 2
#     Edge 15, Type (0, 1), BuildingBlock: MIFKUJ_clean_linker_0, # of connection points: 2
#     Edge 16, Type (0, 1), BuildingBlock: MIFKUJ_clean_linker_0, # of connection points: 2
#     Edge 17, Type (0, 1), BuildingBlock: MIFKUJ_clean_linker_0, # of connection points: 2
#     Edge 18, Type (0, 1), BuildingBlock: MIFKUJ_clean_linker_0, # of connection points: 2
#     Edge 19, Type (0, 1), BuildingBlock: MIFKUJ_clean_linker_0, # of connection points: 2
#     Edge 20, Type (0, 1), BuildingBlock: MIFKUJ_clean_linker_0, # of connection points: 2
#     Edge 21, Type (0, 1), BuildingBlock: MIFKUJ_clean_linker_0, # of connection points: 2
#     Edge 22, Type (0, 1), BuildingBlock: MIFKUJ_clean_linker_0, # of connection points: 2
#     Edge 23, Type (0, 1), BuildingBlock: MIFKUJ_clean_linker_0, # of connection points: 2
#     Edge 24, Type (0, 1), BuildingBlock: MIFKUJ_clean_linker_0, # of connection points: 2
#     Edge 25, Type (0, 1), BuildingBlock: MIFKUJ_clean_linker_0, # of connection points: 2
#     Edge 26, Type (0, 1), BuildingBlock: MIFKUJ_clean_linker_0, # of connection points: 2
#     Edge 27, Type (0, 1), BuildingBlock: MIFKUJ_clean_linker_0, # of connection points: 2
#     Edge 28, Type (0, 1), BuildingBlock: MIFKUJ_clean_linker_0, # of connection points: 2
#     Edge 29, Type (0, 1), BuildingBlock: MIFKUJ_clean_linker_0, # of connection points: 2
#     Edge 30, Type (0, 1), BuildingBlock: MIFKUJ_clean_linker_0, # of connection points: 2
#     Edge 31, Type (0, 1), BuildingBlock: MIFKUJ_clean_linker_0, # of connection points: 2
#     Edge 32, Type (0, 1), BuildingBlock: MIFKUJ_clean_linker_0, # of connection points: 2
#     Edge 33, Type (0, 1), BuildingBlock: MIFKUJ_clean_linker_0, # of connection points: 2
# Relax obj value: 0.010
# Max RMSD: 0.046
# Mean RMSD: 0.044
data_MOF--net-llj--node1-QEWDON_clean_sbu_0--node2-WUSLED_clean_sbu_0--edge1-MIFKUJ_clean_linker_0
_symmetry_space_group_name_H-M    P1
_symmetry_Int_Tables_number       1
_symmetry_cell_setting            triclinic
loop_
_symmetry_equiv_pos_as_xyz
'x, y, z'
_cell_length_a     58.174026
_cell_length_b     58.155791
_cell_length_c     40.484673
_cell_angle_alpha  90.224697
_cell_angle_beta   90.245264
_cell_angle_gamma 89.97294
loop_
_atom_site_label
_atom_site_type_symbol
_atom_site_fract_x
_atom_site_fract_y
_atom_site_fract_z
_atom_type_partial_charge
Zn0 Zn 0.97559 0.05378 0.99508 0.0
Zn1 Zn 0.96871 0.04271 0.07205 0.0
O2 O 0.98849 0.03547 0.03304 0.0
H3 H 0.99809 0.02199 0.03075 0.0
C4 C 0.94326 0.99014 0.91965 0.0
O5 O 0.9647 0.99392 0.92842 0.0
Zn6 Zn 0.0284 0.9569 0.07203 0.0
Zn7 Zn 0.03059 0.95475 0.99409 0.0
O8 O 0.00981 0.96404 0.03171 0.0
H9 H 0.99871 0.97636 0.03024 0.0
Zn10 Zn 0.9402 0.96368 0.9829 0.0
O11 O 0.94958 0.98399 0.02154 0.0
Zn12 Zn 0.94506 0.96504 0.06244 0.0
H13 H 0.95844 0.99797 0.01976 0.0
Zn14 Zn 0.05226 0.03973 0.9888 0.0
O15 O 0.04811 0.01655 0.02559 0.0
H16 H 0.04238 0.00108 0.02282 0.0
Zn17 Zn 0.0526 0.03435 0.0674 0.0
C18 C 0.08026 0.01634 0.94264 0.0
O19 O 0.09306 0.01692 0.96946 0.0
O20 O 0.95169 0.07789 0.00942 0.0
O21 O 0.9465 0.06948 0.06249 0.0
O22 O 0.05534 0.93155 0.008 0.0
O23 O 0.05168 0.9312 0.0627 0.0
O24 O 0.92026 0.93658 0.99763 0.0
O25 O 0.92411 0.93762 0.05234 0.0
C26 C 0.01134 0.04918 0.10934 0.0
O27 O 0.07264 0.06693 0.00369 0.0
O28 O 0.07343 0.06197 0.05818 0.0
O29 O 0.0152 0.94803 0.94902 0.0
C30 C 0.94194 0.08167 0.03705 0.0
O31 O 0.99673 0.06179 0.9557 0.0
C32 C 0.98531 0.94878 0.10567 0.0
O33 O 0.93031 0.9785 0.93846 0.0
C34 C 0.0609 0.92359 0.03618 0.0
O35 O 0.06047 0.02552 0.94345 0.0
C36 C 0.93561 0.00577 0.09991 0.0
O37 O 0.98954 0.05074 0.11058 0.0
O38 O 0.02054 0.04292 0.0823 0.0
C39 C 0.91558 0.9287 0.02614 0.0
O40 O 0.00704 0.94736 0.10861 0.0
O41 O 0.9769 0.95623 0.07867 0.0
C42 C 0.05994 0.99307 0.10317 0.0
O43 O 0.92967 0.98484 0.09674 0.0
O44 O 0.95148 0.01323 0.08125 0.0
C45 C 0.07971 0.07283 0.03236 0.0
O46 O 0.06718 0.01363 0.10153 0.0
O47 O 0.04436 0.9867 0.08305 0.0
C48 C 0.99406 0.94266 0.94722 0.0
O49 O 0.98174 0.94225 0.97433 0.0
C50 C 0.00831 0.08026 0.95783 0.0
O51 O 0.00674 0.09275 0.98485 0.0
Zn52 Zn 0.46461 0.56229 0.49267 0.0
Zn53 Zn 0.4673 0.55262 0.57022 0.0
O54 O 0.48353 0.54656 0.52771 0.0
H55 H 0.4937 0.53375 0.52354 0.0
C56 C 0.41625 0.4872 0.44211 0.0
O57 O 0.4022 0.48533 0.46729 0.0
Zn58 Zn 0.53033 0.45576 0.56683 0.0
Zn59 Zn 0.53075 0.45062 0.48846 0.0
O60 O 0.51024 0.45966 0.52677 0.0
H61 H 0.49749 0.47024 0.52498 0.0
Zn62 Zn 0.44557 0.46647 0.49103 0.0
O63 O 0.45292 0.4891 0.52771 0.0
Zn64 Zn 0.44842 0.47173 0.56974 0.0
H65 H 0.46222 0.5027 0.52493 0.0
Zn66 Zn 0.56037 0.53203 0.48373 0.0
O67 O 0.54474 0.51628 0.52194 0.0
H68 H 0.5322 0.50553 0.51927 0.0
Zn69 Zn 0.55032 0.53629 0.56158 0.0
C70 C 0.56973 0.49114 0.4432 0.0
O71 O 0.56561 0.48075 0.47131 0.0
O72 O 0.44133 0.58518 0.51181 0.0
O73 O 0.44306 0.57824 0.56581 0.0
O74 O 0.55731 0.42966 0.50296 0.0
O75 O 0.55586 0.43238 0.55775 0.0
O76 O 0.42556 0.43971 0.50753 0.0
O77 O 0.42681 0.4444 0.5621 0.0
C78 C 0.51237 0.55673 0.60094 0.0
O79 O 0.58251 0.55767 0.49832 0.0
O80 O 0.57466 0.561 0.55195 0.0
O81 O 0.51609 0.44374 0.44249 0.0
C82 C 0.43487 0.58936 0.54125 0.0
O83 O 0.48096 0.57209 0.44985 0.0
C84 C 0.48917 0.44806 0.60573 0.0
O85 O 0.43682 0.48018 0.44535 0.0
C86 C 0.56464 0.42395 0.53146 0.0
O87 O 0.56847 0.51294 0.44195 0.0
C88 C 0.43875 0.51483 0.60363 0.0
O89 O 0.49105 0.56057 0.60491 0.0
O90 O 0.51943 0.54944 0.57318 0.0
C91 C 0.41953 0.43369 0.53648 0.0
O92 O 0.51072 0.44427 0.60453 0.0
O93 O 0.48027 0.46088 0.58365 0.0
C94 C 0.5555 0.49531 0.60025 0.0
O95 O 0.43407 0.49349 0.60321 0.0
O96 O 0.45299 0.5223 0.58249 0.0
C97 C 0.58593 0.56714 0.52636 0.0
O98 O 0.56083 0.5165 0.5997 0.0
O99 O 0.54367 0.48706 0.57657 0.0
C100 C 0.51768 0.42327 0.43159 0.0
O101 O 0.52832 0.40783 0.44967 0.0
C102 C 0.5013 0.56573 0.44312 0.0
O103 O 0.5122 0.55194 0.46352 0.0
C104 C 0.35388 0.30554 0.92014 0.0
C105 C 0.35731 0.32946 0.91951 0.0
C106 C 0.37176 0.32693 0.86328 0.0
C107 C 0.36602 0.34005 0.8913 0.0
C108 C 0.36856 0.30298 0.86406 0.0
C109 C 0.35958 0.2924 0.8922 0.0
U110 U 0.35281 0.29807 0.01333 0.0
O111 O 0.32385 0.29464 0.0477 0.0
O112 O 0.34954 0.2671 0.044 0.0
C113 C 0.32969 0.27367 0.0563 0.0
C114 C 0.34473 0.2941 0.9498 0.0
C115 C 0.311 0.2567 0.05477 0.0
C116 C 0.28739 0.22946 0.02414 0.0
C117 C 0.30588 0.24483 0.0254 0.0
C118 C 0.27894 0.23775 0.08153 0.0
C119 C 0.27359 0.22591 0.05214 0.0
C120 C 0.2975 0.25299 0.08282 0.0
C121 C 0.39329 0.33525 0.0656 0.0
C122 C 0.39695 0.33124 0.12509 0.0
C123 C 0.417 0.36192 0.09692 0.0
C124 C 0.40789 0.35437 0.06679 0.0
C125 C 0.41168 0.35043 0.12643 0.0
C126 C 0.38778 0.32374 0.0949 0.0
C127 C 0.38398 0.32761 0.03362 0.0
O128 O 0.35929 0.28079 0.96568 0.0
O129 O 0.33231 0.30705 0.96957 0.0
O130 O 0.36247 0.33327 0.02782 0.0
O131 O 0.3888 0.3063 0.02519 0.0
H132 H 0.35336 0.34 0.94086 0.0
H133 H 0.36865 0.35849 0.89159 0.0
H134 H 0.37277 0.29247 0.84277 0.0
H135 H 0.35715 0.27393 0.8922 0.0
H136 H 0.28354 0.22078 0.00105 0.0
H137 H 0.31601 0.24766 0.00339 0.0
H138 H 0.2688 0.2352 0.10359 0.0
H139 H 0.30119 0.26205 0.10566 0.0
H140 H 0.39232 0.32217 0.14742 0.0
H141 H 0.42852 0.37654 0.09702 0.0
H142 H 0.41233 0.36342 0.04436 0.0
H143 H 0.37641 0.30899 0.09439 0.0
C144 C 0.69183 0.35412 0.11081 0.0
C145 C 0.67516 0.37105 0.10478 0.0
C146 C 0.66795 0.37455 0.1639 0.0
C147 C 0.66333 0.3812 0.13111 0.0
C148 C 0.68474 0.35759 0.16968 0.0
C149 C 0.69656 0.34749 0.14335 0.0
U150 U 0.70439 0.34648 0.01881 0.0
O151 O 0.73739 0.34086 0.99367 0.0
O152 O 0.7103 0.31472 0.99038 0.0
C153 C 0.73186 0.3199 0.98434 0.0
C154 C 0.70427 0.34309 0.0835 0.0
C155 C 0.74867 0.30196 0.99292 0.0
C156 C 0.76933 0.27946 0.03394 0.0
C157 C 0.75341 0.29667 0.02605 0.0
C158 C 0.77589 0.27267 0.97565 0.0
C159 C 0.78078 0.26723 0.00882 0.0
C160 C 0.75999 0.28988 0.96781 0.0
C161 C 0.67086 0.38387 0.95615 0.0
C162 C 0.66147 0.37614 0.8985 0.0
C163 C 0.65776 0.41475 0.92045 0.0
C164 C 0.66539 0.40708 0.95126 0.0
C165 C 0.65529 0.39933 0.89379 0.0
C166 C 0.6692 0.36848 0.9294 0.0
C167 C 0.67699 0.37614 0.98973 0.0
O168 O 0.69173 0.32999 0.06401 0.0
O169 O 0.71853 0.35642 0.06731 0.0
O170 O 0.69773 0.38146 1.00023 0.0
O171 O 0.67065 0.3552 0.99777 0.0
H172 H 0.67127 0.37632 0.07973 0.0
H173 H 0.65036 0.39404 0.12577 0.0
H174 H 0.68898 0.35232 0.1946 0.0
H175 H 0.70943 0.33448 0.14842 0.0
H176 H 0.77286 0.27592 0.05971 0.0
H177 H 0.74482 0.30588 0.04578 0.0
H178 H 0.7841 0.2634 0.95567 0.0
H179 H 0.75645 0.29369 0.94211 0.0
H180 H 0.65967 0.36376 0.87861 0.0
H181 H 0.65364 0.4328 0.91758 0.0
H182 H 0.66665 0.41925 0.97152 0.0
H183 H 0.67339 0.35047 0.93256 0.0
C184 C 0.63378 0.69818 0.11665 0.0
C185 C 0.61175 0.68868 0.11273 0.0
C186 C 0.61209 0.6764 0.17011 0.0
C187 C 0.60093 0.678 0.13933 0.0
C188 C 0.63408 0.68608 0.17394 0.0
C189 C 0.64481 0.69693 0.14742 0.0
U190 U 0.64506 0.70174 0.02448 0.0
O191 O 0.65209 0.73156 0.99285 0.0
O192 O 0.67776 0.70411 0.99777 0.0
C193 C 0.67329 0.72492 0.98695 0.0
C194 C 0.64596 0.70833 0.08856 0.0
C195 C 0.69107 0.74202 0.99452 0.0
C196 C 0.71243 0.76475 0.03462 0.0
C197 C 0.69496 0.74906 0.02725 0.0
C198 C 0.72215 0.76667 0.97651 0.0
C199 C 0.72631 0.77366 0.00934 0.0
C200 C 0.70466 0.75096 0.96919 0.0
C201 C 0.61167 0.66209 0.96583 0.0
C202 C 0.62394 0.6485 0.91182 0.0
C203 C 0.58383 0.64609 0.92731 0.0
C204 C 0.58901 0.65601 0.95792 0.0
C205 C 0.60127 0.64189 0.90405 0.0
C206 C 0.62908 0.65858 0.9424 0.0
C207 C 0.6168 0.67135 0.99893 0.0
O208 O 0.66004 0.69426 0.07323 0.0
O209 O 0.63343 0.72083 0.06833 0.0
O210 O 0.61099 0.69292 0.00405 0.0
O211 O 0.63706 0.66602 0.01122 0.0
H212 H 0.60308 0.68922 0.08901 0.0
H213 H 0.58409 0.67047 0.13559 0.0
H214 H 0.64298 0.68527 0.19747 0.0
H215 H 0.66186 0.70408 0.15081 0.0
H216 H 0.715 0.77 0.06006 0.0
H217 H 0.68455 0.74228 0.04711 0.0
H218 H 0.73271 0.77298 0.95654 0.0
H219 H 0.70192 0.74559 0.94382 0.0
H220 H 0.63781 0.64539 0.89463 0.0
H221 H 0.56611 0.64171 0.9219 0.0
H222 H 0.57533 0.65874 0.97558 0.0
H223 H 0.6467 0.66328 0.94792 0.0
C224 C 0.29899 0.63202 0.11408 0.0
C225 C 0.31306 0.61346 0.10497 0.0
C226 C 0.32061 0.60502 0.16294 0.0
C227 C 0.32377 0.60006 0.1292 0.0
C228 C 0.30651 0.62373 0.17181 0.0
C229 C 0.2958 0.63708 0.14757 0.0
U230 U 0.29074 0.649 0.02433 0.0
O231 O 0.25964 0.65833 0.99648 0.0
O232 O 0.28781 0.68325 0.00166 0.0
C233 C 0.26659 0.67957 0.99169 0.0
C234 C 0.28793 0.64643 0.08887 0.0
C235 C 0.24995 0.69795 0.99939 0.0
C236 C 0.2167 0.71258 0.02909 0.0
C237 C 0.23273 0.69507 0.02325 0.0
C238 C 0.23528 0.73622 0.98797 0.0
C239 C 0.21767 0.73332 0.01133 0.0
C240 C 0.25117 0.71869 0.98201 0.0
C241 C 0.32487 0.61709 0.95786 0.0
C242 C 0.33091 0.63089 0.90195 0.0
C243 C 0.33928 0.59121 0.91557 0.0
C244 C 0.33245 0.59525 0.94812 0.0
C245 C 0.33871 0.60901 0.89215 0.0
C246 C 0.32393 0.63487 0.93452 0.0
C247 C 0.31828 0.62098 0.99247 0.0
O248 O 0.30173 0.66073 0.07363 0.0
O249 O 0.27376 0.63564 0.06873 0.0
O250 O 0.29698 0.61567 0.99991 0.0
O251 O 0.32512 0.64052 0.00565 0.0
H252 H 0.31573 0.60936 0.07914 0.0
H253 H 0.33429 0.58565 0.1215 0.0
H254 H 0.30399 0.62826 0.19751 0.0
H255 H 0.28512 0.65145 0.15499 0.0
H256 H 0.20328 0.70965 0.04704 0.0
H257 H 0.23151 0.67923 0.03712 0.0
H258 H 0.2369 0.75211 0.97432 0.0
H259 H 0.26441 0.7213 0.96366 0.0
H260 H 0.33008 0.64487 0.88438 0.0
H261 H 0.34546 0.57425 0.9089 0.0
H262 H 0.3333 0.58133 0.96581 0.0
H263 H 0.31793 0.65184 0.94152 0.0
C264 C 0.86119 0.80619 0.42945 0.0
C265 C 0.8717 0.82766 0.43417 0.0
C266 C 0.88101 0.82956 0.37561 0.0
C267 C 0.8814 0.83928 0.40751 0.0
C268 C 0.87067 0.80786 0.37114 0.0
C269 C 0.86082 0.79631 0.39785 0.0
U270 U 0.8561 0.79798 0.52159 0.0
O271 O 0.82595 0.79391 0.55349 0.0
O272 O 0.85213 0.76676 0.55168 0.0
C273 C 0.83175 0.77298 0.56241 0.0
C274 C 0.85074 0.79409 0.45747 0.0
C275 C 0.81348 0.75566 0.55908 0.0
C276 C 0.78453 0.73589 0.52615 0.0
C277 C 0.80265 0.75164 0.52857 0.0
C278 C 0.78821 0.72773 0.58459 0.0
C279 C 0.77695 0.72387 0.55421 0.0
C280 C 0.80628 0.7435 0.58697 0.0
C281 C 0.894 0.83652 0.57642 0.0
C282 C 0.89091 0.83845 0.63618 0.0
C283 C 0.91983 0.86096 0.60802 0.0
C284 C 0.91228 0.85214 0.57772 0.0
C285 C 0.90918 0.85431 0.63762 0.0
C286 C 0.88339 0.82959 0.60579 0.0
C287 C 0.88593 0.82814 0.54414 0.0
O288 O 0.86483 0.78099 0.47453 0.0
O289 O 0.83732 0.80678 0.47618 0.0
O290 O 0.86457 0.83333 0.53658 0.0
O291 O 0.89142 0.80682 0.53671 0.0
H292 H 0.87225 0.83553 0.45847 0.0
H293 H 0.88888 0.85607 0.41187 0.0
H294 H 0.87036 0.79968 0.34707 0.0
H295 H 0.85292 0.77965 0.39383 0.0
H296 H 0.77612 0.73354 0.50247 0.0
H297 H 0.808 0.76093 0.50677 0.0
H298 H 0.78309 0.71851 0.60655 0.0
H299 H 0.81452 0.74635 0.61069 0.0
H300 H 0.88254 0.83276 0.65854 0.0
H301 H 0.93373 0.87335 0.60818 0.0
H302 H 0.92059 0.85771 0.55522 0.0
H303 H 0.86925 0.81748 0.60518 0.0
C304 C 0.20704 0.87961 0.61584 0.0
C305 C 0.19203 0.89739 0.60669 0.0
C306 C 0.18547 0.90664 0.66454 0.0
C307 C 0.18133 0.9108 0.63083 0.0
C308 C 0.20079 0.88897 0.67352 0.0
C309 C 0.21147 0.87554 0.64931 0.0
U310 U 0.21272 0.86366 0.5261 0.0
O311 O 0.2427 0.85325 0.49663 0.0
O312 O 0.21328 0.8299 0.50151 0.0
C313 C 0.23464 0.83239 0.49167 0.0
C314 C 0.2174 0.86488 0.59048 0.0
C315 C 0.25024 0.81366 0.50124 0.0
C316 C 0.26956 0.7914 0.54379 0.0
C317 C 0.25484 0.80933 0.53469 0.0
C318 C 0.2753 0.78202 0.48602 0.0
C319 C 0.27999 0.77754 0.51955 0.0
C320 C 0.26053 0.79994 0.47697 0.0
C321 C 0.17656 0.90019 0.46573 0.0
C322 C 0.17429 0.89438 0.40638 0.0
C323 C 0.15148 0.92418 0.43249 0.0
C324 C 0.16065 0.91817 0.46317 0.0
C325 C 0.15806 0.91228 0.40374 0.0
C326 C 0.18345 0.88834 0.4372 0.0
C327 C 0.18526 0.89395 0.49855 0.0
O328 O 0.20284 0.8512 0.57519 0.0
O329 O 0.23156 0.87536 0.5703 0.0
O330 O 0.20723 0.89773 0.50396 0.0
O331 O 0.17814 0.8741 0.51004 0.0
H332 H 0.18844 0.90073 0.58086 0.0
H333 H 0.16987 0.92446 0.62311 0.0
H334 H 0.20412 0.88515 0.69926 0.0
H335 H 0.22294 0.86179 0.65672 0.0
H336 H 0.27303 0.7886 0.56977 0.0
H337 H 0.24705 0.81985 0.55376 0.0
H338 H 0.28281 0.7715 0.46676 0.0
H339 H 0.25709 0.80302 0.45104 0.0
H340 H 0.17956 0.88477 0.38473 0.0
H341 H 0.13932 0.93826 0.43125 0.0
H342 H 0.15522 0.92752 0.48499 0.0
H343 H 0.1957 0.87435 0.43884 0.0
C344 C 0.13612 0.20246 0.61962 0.0
C345 C 0.11815 0.18687 0.61382 0.0
C346 C 0.11351 0.18153 0.67306 0.0
C347 C 0.10691 0.17651 0.64034 0.0
C348 C 0.13148 0.19731 0.67862 0.0
C349 C 0.14267 0.20767 0.65209 0.0
U350 U 0.14841 0.20675 0.52779 0.0
O351 O 0.1552 0.23689 0.49674 0.0
O352 O 0.18145 0.20999 0.50197 0.0
C353 C 0.17661 0.23074 0.49124 0.0
C354 C 0.14859 0.21282 0.59201 0.0
C355 C 0.19409 0.24824 0.49876 0.0
C356 C 0.21043 0.27702 0.53567 0.0
C357 C 0.19332 0.26088 0.52834 0.0
C358 C 0.22939 0.26782 0.48409 0.0
C359 C 0.22873 0.28065 0.51366 0.0
C360 C 0.21219 0.25181 0.47672 0.0
C361 C 0.11505 0.16755 0.46759 0.0
C362 C 0.12535 0.14649 0.41767 0.0
C363 C 0.08634 0.16003 0.42508 0.0
C364 C 0.09248 0.16953 0.45561 0.0
C365 C 0.10261 0.1481 0.40593 0.0
C366 C 0.13152 0.15613 0.44817 0.0
C367 C 0.12058 0.17645 0.50094 0.0
O368 O 0.16285 0.19891 0.57672 0.0
O369 O 0.13609 0.2253 0.57173 0.0
O370 O 0.11451 0.19784 0.50698 0.0
O371 O 0.14088 0.17113 0.51313 0.0
H372 H 0.11292 0.18265 0.5888 0.0
H373 H 0.09297 0.16466 0.63522 0.0
H374 H 0.13722 0.20131 0.70346 0.0
H375 H 0.15663 0.21957 0.65693 0.0
H376 H 0.20922 0.28675 0.55845 0.0
H377 H 0.17953 0.25822 0.54582 0.0
H378 H 0.24342 0.26983 0.46685 0.0
H379 H 0.21317 0.24202 0.45394 0.0
H380 H 0.13827 0.13724 0.40376 0.0
H381 H 0.06878 0.16199 0.41656 0.0
H382 H 0.07946 0.17822 0.4701 0.0
H383 H 0.14909 0.15427 0.45671 0.0
C384 C 0.80196 0.13452 0.61084 0.0
C385 C 0.82436 0.12656 0.6049 0.0
C386 C 0.82584 0.10952 0.65967 0.0
C387 C 0.83624 0.11429 0.62918 0.0
C388 C 0.80326 0.1172 0.66532 0.0
C389 C 0.79145 0.12968 0.64112 0.0
U390 U 0.78969 0.14805 0.52086 0.0
O391 O 0.75709 0.15622 0.49554 0.0
O392 O 0.78555 0.18101 0.49529 0.0
C393 C 0.76379 0.17718 0.48829 0.0
C394 C 0.78939 0.14771 0.58561 0.0
C395 C 0.74785 0.1957 0.49765 0.0
C396 C 0.73549 0.22544 0.536 0.0
C397 C 0.75008 0.20713 0.52811 0.0
C398 C 0.71575 0.22056 0.4836 0.0
C399 C 0.71828 0.23246 0.51371 0.0
C400 C 0.73047 0.20237 0.47562 0.0
C401 C 0.8225 0.11408 0.45463 0.0
C402 C 0.83226 0.1262 0.39899 0.0
C403 C 0.83306 0.08576 0.41314 0.0
C404 C 0.82625 0.09116 0.4453 0.0
C405 C 0.8364 0.10324 0.38974 0.0
C406 C 0.82524 0.13157 0.43113 0.0
C407 C 0.81655 0.1193 0.48919 0.0
O408 O 0.80188 0.16206 0.56823 0.0
O409 O 0.77478 0.13581 0.56756 0.0
O410 O 0.79552 0.11404 0.49817 0.0
O411 O 0.82355 0.13929 0.50069 0.0
H412 H 0.8327 0.12985 0.58151 0.0
H413 H 0.85349 0.10832 0.62397 0.0
H414 H 0.79487 0.11389 0.68866 0.0
H415 H 0.77415 0.13561 0.64607 0.0
H416 H 0.73766 0.23411 0.55953 0.0
H417 H 0.76327 0.20207 0.5456 0.0
H418 H 0.70278 0.22571 0.46583 0.0
H419 H 0.72849 0.19371 0.45203 0.0
H420 H 0.83445 0.13999 0.38138 0.0
H421 H 0.83634 0.06794 0.40685 0.0
H422 H 0.82425 0.07743 0.46308 0.0
H423 H 0.82226 0.1494 0.43769 0.0
H424 H 0.09902 0.09786 0.98252 0.0
H425 H 0.13114 0.12469 0.9866 0.0
H426 H 0.13228 0.11666 0.09247 0.0
H427 H 0.10032 0.08947 0.08865 0.0
H428 H 0.13861 0.16507 0.01602 0.0
H429 H 0.18811 0.11688 0.1186 0.0
H430 H 0.19176 0.07755 0.14071 0.0
H431 H 0.17301 0.04948 0.04611 0.0
H432 H 0.16954 0.08861 0.02335 0.0
H433 H 0.23058 0.23356 0.07672 0.0
H434 H 0.19713 0.20815 0.07368 0.0
H435 H 0.23721 0.15786 0.02058 0.0
H436 H 0.27089 0.18308 0.02396 0.0
H437 H 0.21086 0.13811 0.06886 0.0
H438 H 0.20069 0.19041 0.97902 0.0
H439 H 0.19813 0.22841 0.95246 0.0
H440 H 0.1403 0.24578 0.01323 0.0
H441 H 0.14273 0.20798 0.0405 0.0
C442 C 0.10591 0.10195 0.0068 0.0
C443 C 0.0972 0.09129 0.03528 0.0
C444 C 0.12427 0.11735 0.00902 0.0
C445 C 0.13436 0.1224 0.03975 0.0
C446 C 0.12501 0.11268 0.06841 0.0
C447 C 0.10666 0.09721 0.06623 0.0
C448 C 0.1552 0.13711 0.04149 0.0
C449 C 0.15436 0.15921 0.02772 0.0
C450 C 0.17593 0.1293 0.05613 0.0
C451 C 0.17834 0.10568 0.0694 0.0
C452 C 0.18486 0.1023 0.1025 0.0
C453 C 0.18688 0.08005 0.11515 0.0
C454 C 0.18255 0.06103 0.09486 0.0
C455 C 0.17628 0.06422 0.06183 0.0
C456 C 0.17426 0.08644 0.04906 0.0
C457 C 0.23233 0.217 0.06466 0.0
C458 C 0.25337 0.21033 0.05054 0.0
C459 C 0.21317 0.20258 0.06274 0.0
C460 C 0.21465 0.1812 0.0467 0.0
C461 C 0.23571 0.17431 0.03304 0.0
C462 C 0.25486 0.1888 0.03476 0.0
C463 C 0.19413 0.16617 0.04387 0.0
C464 C 0.19504 0.14401 0.0574 0.0
C465 C 0.17362 0.17375 0.02845 0.0
C466 C 0.17204 0.19646 0.01203 0.0
C467 C 0.18755 0.20241 0.98691 0.0
C468 C 0.1861 0.2239 0.97169 0.0
C469 C 0.1691 0.23952 0.98121 0.0
C470 C 0.15348 0.23367 0.00591 0.0
C471 C 0.15487 0.21221 0.02124 0.0
H472 H 0.168 0.25615 0.96939 0.0
H473 H 0.1841 0.04382 0.1047 0.0
H474 H 0.90946 0.08982 0.08497 0.0
H475 H 0.88181 0.12176 0.08728 0.0
H476 H 0.90976 0.14921 0.9972 0.0
H477 H 0.93707 0.11747 0.99445 0.0
H478 H 0.90317 0.18259 0.0473 0.0
H479 H 0.86192 0.1204 0.9927 0.0
H480 H 0.84613 0.08112 0.98908 0.0
H481 H 0.80615 0.09326 0.07635 0.0
H482 H 0.82195 0.13254 0.08072 0.0
H483 H 0.82195 0.25818 0.97881 0.0
H484 H 0.84895 0.2272 0.99082 0.0
H485 H 0.80552 0.20399 0.07008 0.0
H486 H 0.7779 0.23449 0.05735 0.0
H487 H 0.81949 0.16846 0.03464 0.0
H488 H 0.85644 0.23186 0.08622 0.0
H489 H 0.87223 0.27102 0.09172 0.0
H490 H 0.92042 0.25697 0.01418 0.0
H491 H 0.90469 0.21782 0.00785 0.0
C492 C 0.90972 0.1027 0.06572 0.0
C493 C 0.92538 0.10101 0.03942 0.0
C494 C 0.89391 0.12089 0.06706 0.0
C495 C 0.89374 0.13781 0.04236 0.0
C496 C 0.90964 0.13637 0.01653 0.0
C497 C 0.92516 0.11811 0.01492 0.0
C498 C 0.87677 0.15687 0.04265 0.0
C499 C 0.88487 0.17956 0.04439 0.0
C500 C 0.85287 0.15284 0.03994 0.0
C501 C 0.84332 0.12928 0.03727 0.0
C502 C 0.84992 0.11462 0.01128 0.0
C503 C 0.84093 0.09237 0.00905 0.0
C504 C 0.8252 0.08467 0.03253 0.0
C505 C 0.81837 0.09923 0.05822 0.0
C506 C 0.82732 0.12149 0.06058 0.0
C507 C 0.81803 0.24643 0.99869 0.0
C508 C 0.7977 0.24884 0.01706 0.0
C509 C 0.83366 0.22886 0.00581 0.0
C510 C 0.82946 0.2134 0.03168 0.0
C511 C 0.80921 0.21576 0.05012 0.0
C512 C 0.79352 0.23333 0.04297 0.0
C513 C 0.84589 0.19435 0.0385 0.0
C514 C 0.83772 0.17162 0.03809 0.0
C515 C 0.86974 0.19836 0.04278 0.0
C516 C 0.87925 0.22194 0.04639 0.0
C517 C 0.87028 0.23717 0.07014 0.0
C518 C 0.87924 0.25936 0.07345 0.0
C519 C 0.89729 0.26649 0.05327 0.0
C520 C 0.90643 0.25143 0.02978 0.0
C521 C 0.89751 0.22922 0.02635 0.0
H522 H 0.90421 0.28368 0.05587 0.0
H523 H 0.81826 0.06744 0.03076 0.0
H524 H 0.90558 0.90161 0.07976 0.0
H525 H 0.87384 0.87392 0.0846 0.0
H526 H 0.8537 0.88778 0.98405 0.0
H527 H 0.8854 0.91483 0.97861 0.0
H528 H 0.81774 0.89197 0.03771 0.0
H529 H 0.87714 0.84189 0.99149 0.0
H530 H 0.91528 0.82337 0.99238 0.0
H531 H 0.89993 0.79278 0.0861 0.0
H532 H 0.86179 0.81141 0.08594 0.0
H533 H 0.73866 0.81225 0.97541 0.0
H534 H 0.77093 0.83791 0.98673 0.0
H535 H 0.7888 0.79801 0.07273 0.0
H536 H 0.75695 0.77172 0.06084 0.0
H537 H 0.82605 0.80706 0.03792 0.0
H538 H 0.76503 0.85122 0.08146 0.0
H539 H 0.72707 0.86999 0.0838 0.0
H540 H 0.74495 0.91241 0.00125 0.0
H541 H 0.78291 0.89366 0.99806 0.0
C542 C 0.89455 0.89852 0.05858 0.0
C543 C 0.89802 0.91041 0.0288 0.0
C544 C 0.87646 0.88277 0.06143 0.0
C545 C 0.86146 0.87903 0.03472 0.0
C546 C 0.8651 0.89057 0.00492 0.0
C547 C 0.88333 0.90592 0.00185 0.0
C548 C 0.84146 0.86359 0.03762 0.0
C549 C 0.81945 0.87339 0.03767 0.0
C550 C 0.84389 0.83946 0.03886 0.0
C551 C 0.86677 0.82829 0.03892 0.0
C552 C 0.882 0.83142 0.01245 0.0
C553 C 0.90359 0.82086 0.01278 0.0
C554 C 0.91006 0.80698 0.03934 0.0
C555 C 0.89492 0.80358 0.06558 0.0
C556 C 0.87332 0.81413 0.06538 0.0
C557 C 0.74949 0.80887 0.99667 0.0
C558 C 0.74526 0.78991 0.01718 0.0
C559 C 0.76778 0.82372 0.00335 0.0
C560 C 0.78211 0.82006 0.03084 0.0
C561 C 0.77788 0.80123 0.05149 0.0
C562 C 0.75958 0.78633 0.0448 0.0
C563 C 0.80208 0.83538 0.03688 0.0
C564 C 0.82415 0.82561 0.03859 0.0
C565 C 0.79968 0.85961 0.03776 0.0
C566 C 0.77679 0.87089 0.03938 0.0
C567 C 0.76081 0.86441 0.06361 0.0
C568 C 0.7393 0.87508 0.06513 0.0
C569 C 0.73359 0.89235 0.04265 0.0
C570 C 0.7494 0.89902 0.01864 0.0
C571 C 0.77093 0.88839 0.01699 0.0
H572 H 0.71693 0.9006 0.04388 0.0
H573 H 0.92678 0.7988 0.03955 0.0
H574 H 0.08938 0.90872 0.98718 0.0
H575 H 0.11425 0.87491 0.98729 0.0
H576 H 0.09367 0.85961 0.08683 0.0
H577 H 0.06916 0.894 0.08758 0.0
H578 H 0.14371 0.85759 0.07312 0.0
H579 H 0.07125 0.82856 0.03407 0.0
H580 H 0.0366 0.82856 0.9988 0.0
H581 H 0.07859 0.8216 0.91236 0.0
H582 H 0.11354 0.82191 0.9471 0.0
H583 H 0.19805 0.74742 0.06977 0.0
H584 H 0.16979 0.77805 0.07797 0.0
H585 H 0.1704 0.79225 0.97346 0.0
H586 H 0.1976 0.76098 0.96484 0.0
H587 H 0.12829 0.79368 0.9946 0.0
H588 H 0.20053 0.82486 0.03235 0.0
H589 H 0.23573 0.82683 0.06639 0.0
H590 H 0.19493 0.83149 0.15431 0.0
H591 H 0.15947 0.82917 0.12083 0.0
C592 C 0.09033 0.89839 0.00936 0.0
C593 C 0.07735 0.90415 0.03747 0.0
C594 C 0.10451 0.87904 0.00929 0.0
C595 C 0.1059 0.86494 0.03721 0.0
C596 C 0.09322 0.87068 0.06544 0.0
C597 C 0.07915 0.89023 0.0657 0.0
C598 C 0.12045 0.84406 0.03651 0.0
C599 C 0.14013 0.84332 0.05655 0.0
C600 C 0.11602 0.82586 0.01415 0.0
C601 C 0.09503 0.82546 0.99318 0.0
C602 C 0.07311 0.82722 0.00752 0.0
C603 C 0.05341 0.82712 0.98763 0.0
C604 C 0.05539 0.82513 0.95336 0.0
C605 C 0.07708 0.82316 0.93892 0.0
C606 C 0.09684 0.82327 0.9587 0.0
C607 C 0.19195 0.75686 0.04846 0.0
C608 C 0.20029 0.7518 0.01665 0.0
C609 C 0.17596 0.77456 0.05325 0.0
C610 C 0.16819 0.78773 0.0264 0.0
C611 C 0.17618 0.78243 0.99461 0.0
C612 C 0.19198 0.76467 0.98977 0.0
C613 C 0.15184 0.80713 0.03112 0.0
C614 C 0.13177 0.80767 0.01169 0.0
C615 C 0.15602 0.82522 0.05397 0.0
C616 C 0.17735 0.82647 0.07411 0.0
C617 C 0.19906 0.82605 0.05897 0.0
C618 C 0.21906 0.82728 0.07816 0.0
C619 C 0.21757 0.82918 0.1125 0.0
C620 C 0.19607 0.82993 0.12772 0.0
C621 C 0.17601 0.82865 0.10865 0.0
H622 H 0.23308 0.83016 0.12731 0.0
H623 H 0.04012 0.82506 0.938 0.0
H624 H 0.59584 0.59528 0.5793 0.0
H625 H 0.62772 0.62265 0.58447 0.0
H626 H 0.64974 0.60568 0.48578 0.0
H627 H 0.618 0.57858 0.48019 0.0
H628 H 0.68544 0.60479 0.53243 0.0
H629 H 0.62482 0.65502 0.49661 0.0
H630 H 0.58607 0.67214 0.49889 0.0
H631 H 0.60022 0.69831 0.59623 0.0
H632 H 0.63895 0.68097 0.59468 0.0
H633 H 0.76685 0.6931 0.50466 0.0
H634 H 0.73392 0.66715 0.50078 0.0
H635 H 0.70957 0.69157 0.59511 0.0
H636 H 0.74197 0.71821 0.59857 0.0
H637 H 0.67485 0.68836 0.55229 0.0
H638 H 0.73632 0.63916 0.58732 0.0
H639 H 0.77474 0.62131 0.58511 0.0
H640 H 0.75906 0.59267 0.48973 0.0
H641 H 0.72064 0.61063 0.49117 0.0
C642 C 0.60737 0.59748 0.55863 0.0
C643 C 0.60434 0.58469 0.52936 0.0
C644 C 0.62555 0.61314 0.56161 0.0
C645 C 0.64109 0.61614 0.5355 0.0
C646 C 0.63802 0.60353 0.50626 0.0
C647 C 0.61976 0.5881 0.5031 0.0
C648 C 0.66085 0.6321 0.53877 0.0
C649 C 0.68317 0.62311 0.53641 0.0
C650 C 0.65782 0.65587 0.54471 0.0
C651 C 0.63465 0.66646 0.54567 0.0
C652 C 0.61957 0.66423 0.51861 0.0
C653 C 0.59764 0.67401 0.51975 0.0
C654 C 0.59066 0.68625 0.54773 0.0
C655 C 0.60564 0.68878 0.57459 0.0
C656 C 0.62759 0.67899 0.57359 0.0
C657 C 0.75441 0.6931 0.52447 0.0
C658 C 0.75714 0.70771 0.55199 0.0
C659 C 0.73569 0.67807 0.52238 0.0
C660 C 0.7194 0.67718 0.54786 0.0
C661 C 0.72196 0.69187 0.57521 0.0
C662 C 0.74064 0.70694 0.57729 0.0
C663 C 0.69958 0.6611 0.54585 0.0
C664 C 0.67721 0.67004 0.54845 0.0
C665 C 0.70258 0.63723 0.54018 0.0
C666 C 0.72568 0.62643 0.53922 0.0
C667 C 0.74113 0.62922 0.56575 0.0
C668 C 0.7629 0.61905 0.56466 0.0
C669 C 0.76936 0.60591 0.53726 0.0
C670 C 0.75405 0.60288 0.51092 0.0
C671 C 0.73227 0.61303 0.51187 0.0
H672 H 0.78621 0.59805 0.53646 0.0
H673 H 0.57367 0.69382 0.54858 0.0
H674 H 0.40527 0.59601 0.59341 0.0
H675 H 0.3777 0.62786 0.60053 0.0
H676 H 0.40041 0.65739 0.50873 0.0
H677 H 0.4273 0.62576 0.50112 0.0
H678 H 0.39793 0.68902 0.5636 0.0
H679 H 0.35417 0.62904 0.50736 0.0
H680 H 0.33608 0.59089 0.50179 0.0
H681 H 0.2968 0.60325 0.58964 0.0
H682 H 0.31507 0.64131 0.59616 0.0
H683 H 0.32074 0.76557 0.49082 0.0
H684 H 0.34619 0.73382 0.50543 0.0
H685 H 0.30096 0.71505 0.58505 0.0
H686 H 0.27495 0.74648 0.56987 0.0
H687 H 0.31383 0.67783 0.55081 0.0
H688 H 0.35232 0.74013 0.6022 0.0
H689 H 0.36924 0.77882 0.60753 0.0
H690 H 0.4179 0.76275 0.5314 0.0
H691 H 0.40105 0.72406 0.52523 0.0
C692 C 0.40432 0.60935 0.57484 0.0
C693 C 0.41835 0.60835 0.54663 0.0
C694 C 0.3886 0.62745 0.57891 0.0
C695 C 0.38712 0.64495 0.55515 0.0
C696 C 0.40137 0.64409 0.52737 0.0
C697 C 0.41664 0.62591 0.52299 0.0
C698 C 0.37068 0.66427 0.55832 0.0
C699 C 0.37952 0.68664 0.5609 0.0
C700 C 0.34665 0.66102 0.55589 0.0
C701 C 0.33625 0.63786 0.55254 0.0
C702 C 0.34195 0.62348 0.52579 0.0
C703 C 0.3316 0.60191 0.52238 0.0
C704 C 0.31531 0.59465 0.54535 0.0
C705 C 0.30941 0.60891 0.57185 0.0
C706 C 0.31981 0.63045 0.57548 0.0
C707 C 0.31612 0.75464 0.51134 0.0
C708 C 0.29578 0.75855 0.52913 0.0
C709 C 0.33083 0.73664 0.51994 0.0
C710 C 0.32567 0.72224 0.54667 0.0
C711 C 0.30537 0.72604 0.56449 0.0
C712 C 0.29061 0.7441 0.5559 0.0
C713 C 0.34114 0.70273 0.55487 0.0
C714 C 0.33215 0.68032 0.55445 0.0
C715 C 0.36506 0.70593 0.55955 0.0
C716 C 0.37531 0.7292 0.56313 0.0
C717 C 0.36652 0.74489 0.58641 0.0
C718 C 0.37612 0.76682 0.58962 0.0
C719 C 0.39461 0.77325 0.56979 0.0
C720 C 0.40357 0.75774 0.54675 0.0
C721 C 0.39402 0.73579 0.54342 0.0
H722 H 0.40202 0.79024 0.57231 0.0
H723 H 0.30726 0.57798 0.5426 0.0
H724 H 0.4013 0.41571 0.59353 0.0
H725 H 0.36895 0.38875 0.59782 0.0
H726 H 0.36566 0.38376 0.49163 0.0
H727 H 0.39793 0.4101 0.48702 0.0
H728 H 0.32375 0.39756 0.52356 0.0
H729 H 0.38334 0.33781 0.53026 0.0
H730 H 0.41659 0.31768 0.55484 0.0
H731 H 0.38171 0.31424 0.64795 0.0
H732 H 0.34817 0.33418 0.62379 0.0
H733 H 0.25048 0.30997 0.47128 0.0
H734 H 0.28208 0.33613 0.48342 0.0
H735 H 0.27986 0.31682 0.58616 0.0
H736 H 0.24897 0.28955 0.57383 0.0
H737 H 0.3224 0.31803 0.56722 0.0
H738 H 0.26055 0.37029 0.55978 0.0
H739 H 0.22581 0.38879 0.5371 0.0
H740 H 0.26326 0.40884 0.45073 0.0
H741 H 0.29817 0.39016 0.47264 0.0
C742 C 0.39393 0.40853 0.57111 0.0
C743 C 0.40211 0.41525 0.5399 0.0
C744 C 0.37548 0.39314 0.57365 0.0
C745 C 0.36485 0.38446 0.54501 0.0
C746 C 0.37359 0.39039 0.51401 0.0
C747 C 0.39209 0.40547 0.51143 0.0
C748 C 0.34349 0.37073 0.54669 0.0
C749 C 0.32341 0.38012 0.53295 0.0
C750 C 0.34284 0.34848 0.56044 0.0
C751 C 0.36339 0.33763 0.57533 0.0
C752 C 0.38287 0.33294 0.55605 0.0
C753 C 0.40168 0.3214 0.56982 0.0
C754 C 0.4012 0.31459 0.60289 0.0
C755 C 0.382 0.31944 0.62231 0.0
C756 C 0.36308 0.33079 0.60857 0.0
C757 C 0.25678 0.31112 0.49645 0.0
C758 C 0.24719 0.29756 0.52153 0.0
C759 C 0.27466 0.32638 0.50347 0.0
C760 C 0.28314 0.32877 0.53584 0.0
C761 C 0.27352 0.31539 0.56104 0.0
C762 C 0.25571 0.29995 0.55398 0.0
C763 C 0.30275 0.34447 0.54275 0.0
C764 C 0.32247 0.3356 0.55831 0.0
C765 C 0.30294 0.36743 0.53122 0.0
C766 C 0.28196 0.37867 0.5178 0.0
C767 C 0.26135 0.37848 0.53583 0.0
C768 C 0.24162 0.38903 0.52313 0.0
C769 C 0.24232 0.39995 0.49247 0.0
C770 C 0.26275 0.40037 0.47447 0.0
C771 C 0.28252 0.38983 0.48705 0.0
H772 H 0.22703 0.40812 0.48269 0.0
H773 H 0.41574 0.3056 0.61349 0.0
H774 H 0.58685 0.408 0.58707 0.0
H775 H 0.61589 0.37747 0.58988 0.0
H776 H 0.61177 0.36872 0.48417 0.0
H777 H 0.58353 0.39941 0.48092 0.0
H778 H 0.61293 0.33291 0.57373 0.0
H779 H 0.66164 0.35241 0.45277 0.0
H780 H 0.67176 0.38592 0.41863 0.0
H781 H 0.66948 0.4296 0.5043 0.0
H782 H 0.65959 0.39632 0.53904 0.0
H783 H 0.67172 0.23644 0.50562 0.0
H784 H 0.64786 0.27049 0.51537 0.0
H785 H 0.70764 0.30805 0.54847 0.0
H786 H 0.73163 0.27413 0.53849 0.0
H787 H 0.68228 0.3319 0.50277 0.0
H788 H 0.66923 0.29168 0.60383 0.0
H789 H 0.65895 0.25849 0.63847 0.0
H790 H 0.59141 0.25719 0.59531 0.0
H791 H 0.6014 0.29017 0.56004 0.0
C792 C 0.59232 0.39973 0.56439 0.0
C793 C 0.58292 0.40626 0.53374 0.0
C794 C 0.60883 0.38223 0.56608 0.0
C795 C 0.61619 0.37099 0.53722 0.0
C796 C 0.60675 0.37746 0.50671 0.0
C797 C 0.59048 0.395 0.50492 0.0
C798 C 0.63316 0.35194 0.53876 0.0
C799 C 0.62818 0.33275 0.5584 0.0
C800 C 0.65319 0.35182 0.51898 0.0
C801 C 0.65976 0.37187 0.49848 0.0
C802 C 0.66346 0.36913 0.46437 0.0
C803 C 0.66911 0.3881 0.44489 0.0
C804 C 0.67122 0.40988 0.45927 0.0
C805 C 0.66778 0.41273 0.49318 0.0
C806 C 0.66212 0.39382 0.51277 0.0
C807 C 0.67975 0.25194 0.51505 0.0
C808 C 0.70353 0.25263 0.52129 0.0
C809 C 0.66609 0.27131 0.52084 0.0
C810 C 0.67598 0.29174 0.53285 0.0
C811 C 0.69968 0.29242 0.53931 0.0
C812 C 0.71331 0.27301 0.53379 0.0
C813 C 0.66174 0.31268 0.53711 0.0
C814 C 0.66719 0.33218 0.51843 0.0
C815 C 0.64223 0.3131 0.55785 0.0
C816 C 0.63614 0.2933 0.5791 0.0
C817 C 0.65225 0.28421 0.60153 0.0
C818 C 0.64646 0.26545 0.62131 0.0
C819 C 0.62456 0.25571 0.61904 0.0
C820 C 0.60838 0.26474 0.59702 0.0
C821 C 0.61409 0.28349 0.57716 0.0
H822 H 0.62011 0.24119 0.63438 0.0
H823 H 0.67555 0.42454 0.44414 0.0
H824 H 0.99693 0.0472 0.17289 0.0
H825 H 0.01671 0.0619 0.22185 0.0
H826 H 0.07579 0.07885 0.16303 0.0
H827 H 0.05613 0.0639 0.11378 0.0
H828 H 0.08709 0.0624 0.22718 0.0
H829 H 0.03837 0.11873 0.17678 0.0
H830 H 0.00218 0.13313 0.15268 0.0
H831 H 0.9681 0.12366 0.24549 0.0
H832 H 0.004 0.10885 0.27003 0.0
H833 H 0.1268 0.14538 0.34777 0.0
H834 H 0.11493 0.12666 0.29613 0.0
H835 H 0.05081 0.1069 0.34089 0.0
H836 H 0.06267 0.125 0.39264 0.0
H837 H 0.04475 0.12666 0.28037 0.0
H838 H 0.09265 0.06889 0.33015 0.0
H839 H 0.12845 0.05376 0.35446 0.0
H840 H 0.16382 0.06539 0.26319 0.0
H841 H 0.12842 0.08144 0.23867 0.0
C842 C 0.01429 0.05369 0.17037 0.0
C843 C 0.02495 0.05459 0.1393 0.0
C844 C 0.02552 0.06207 0.19839 0.0
C845 C 0.04745 0.07186 0.19593 0.0
C846 C 0.05881 0.07141 0.16542 0.0
C847 C 0.0476 0.06282 0.13727 0.0
C848 C 0.05732 0.08432 0.22465 0.0
C849 C 0.07808 0.0767 0.23855 0.0
C850 C 0.04533 0.1028 0.23962 0.0
C851 C 0.02385 0.11236 0.22514 0.0
C852 C 0.02313 0.11954 0.192 0.0
C853 C 0.00266 0.1278 0.17826 0.0
C854 C 0.98282 0.12921 0.1975 0.0
C855 C 0.98346 0.1225 0.23058 0.0
C856 C 0.00388 0.1142 0.24443 0.0
C857 C 0.11028 0.13683 0.34674 0.0
C858 C 0.09564 0.13681 0.37437 0.0
C859 C 0.10352 0.1262 0.31718 0.0
C860 C 0.08202 0.11535 0.31474 0.0
C861 C 0.06742 0.11529 0.34221 0.0
C862 C 0.07419 0.12578 0.37173 0.0
C863 C 0.07431 0.10447 0.28342 0.0
C864 C 0.05392 0.11249 0.2689 0.0
C865 C 0.08666 0.08641 0.26799 0.0
C866 C 0.10794 0.0767 0.28271 0.0
C867 C 0.10812 0.06853 0.31537 0.0
C868 C 0.12835 0.05975 0.32919 0.0
C869 C 0.14839 0.05859 0.31038 0.0
C870 C 0.14828 0.06632 0.27775 0.0
C871 C 0.12816 0.07533 0.26391 0.0
H872 H 0.164 0.05168 0.32109 0.0
H873 H 0.96698 0.13557 0.1868 0.0
H874 H 0.94802 0.04872 0.12312 0.0
H875 H 0.93048 0.07029 0.16847 0.0
H876 H 0.879 0.01748 0.17844 0.0
H877 H 0.89667 0.99571 0.13372 0.0
H878 H 0.86096 0.0619 0.18325 0.0
H879 H 0.92266 0.01622 0.22577 0.0
H880 H 0.9624 0.0021 0.23144 0.0
H881 H 0.98472 0.06945 0.26098 0.0
H882 H 0.94528 0.08429 0.25398 0.0
H883 H 0.82188 0.0686 0.34884 0.0
H884 H 0.83788 0.05744 0.29533 0.0
H885 H 0.8862 0.11355 0.30136 0.0
H886 H 0.87043 0.12465 0.35515 0.0
H887 H 0.90675 0.07228 0.2859 0.0
H888 H 0.84274 0.11662 0.2475 0.0
H889 H 0.80212 0.12851 0.24425 0.0
H890 H 0.78317 0.06098 0.21068 0.0
H891 H 0.82365 0.04856 0.21418 0.0
C892 C 0.93299 0.04175 0.13478 0.0
C893 C 0.92407 0.02031 0.12504 0.0
C894 C 0.92291 0.05412 0.16068 0.0
C895 C 0.90354 0.04537 0.17693 0.0
C896 C 0.89394 0.02454 0.16621 0.0
C897 C 0.90418 0.01206 0.14073 0.0
C898 C 0.89397 0.05702 0.20642 0.0
C899 C 0.87093 0.06416 0.20574 0.0
C900 C 0.90714 0.06019 0.23555 0.0
C901 C 0.93105 0.05149 0.2387 0.0
C902 C 0.93611 0.02817 0.23276 0.0
C903 C 0.9586 0.02002 0.23623 0.0
C904 C 0.97612 0.03493 0.24627 0.0
C905 C 0.97119 0.05802 0.2528 0.0
C906 C 0.94879 0.06632 0.24895 0.0
C907 C 0.83585 0.07861 0.33869 0.0
C908 C 0.84492 0.09748 0.35619 0.0
C909 C 0.84485 0.07234 0.30801 0.0
C910 C 0.86311 0.08478 0.29426 0.0
C911 C 0.87204 0.10379 0.31148 0.0
C912 C 0.86292 0.11019 0.34207 0.0
C913 C 0.87368 0.07707 0.26285 0.0
C914 C 0.8969 0.07052 0.26321 0.0
C915 C 0.8606 0.07419 0.23357 0.0
C916 C 0.83623 0.08161 0.23135 0.0
C917 C 0.8299 0.10424 0.23968 0.0
C918 C 0.80689 0.11109 0.23774 0.0
C919 C 0.79007 0.0955 0.22732 0.0
C920 C 0.79622 0.07304 0.21876 0.0
C921 C 0.8192 0.06609 0.22068 0.0
H922 H 0.77227 0.10084 0.22584 0.0
H923 H 0.99349 0.02855 0.2492 0.0
H924 H 0.99433 0.95431 0.17095 0.0
H925 H 0.97418 0.93647 0.21712 0.0
H926 H 0.9243 0.90787 0.14935 0.0
H927 H 0.9445 0.92579 0.10318 0.0
H928 H 0.90458 0.92155 0.2083 0.0
H929 H 0.96933 0.876 0.17281 0.0
H930 H 0.01012 0.87034 0.1585 0.0
H931 H 0.03013 0.88974 0.25694 0.0
H932 H 0.98944 0.89579 0.27172 0.0
H933 H 0.8648 0.8321 0.31189 0.0
H934 H 0.88115 0.85345 0.2658 0.0
H935 H 0.93585 0.87784 0.32911 0.0
H936 H 0.92035 0.85555 0.37481 0.0
H937 H 0.95265 0.86648 0.27162 0.0
H938 H 0.88852 0.91195 0.30782 0.0
H939 H 0.84806 0.91946 0.32225 0.0
H940 H 0.82713 0.9017 0.22356 0.0
H941 H 0.86746 0.89379 0.20866 0.0
C942 C 0.97876 0.94464 0.16601 0.0
C943 C 0.97077 0.94157 0.1335 0.0
C944 C 0.96732 0.9344 0.19237 0.0
C945 C 0.94798 0.92052 0.18659 0.0
C946 C 0.93917 0.91855 0.15436 0.0
C947 C 0.95055 0.92898 0.12798 0.0
C948 C 0.9382 0.90656 0.2137 0.0
C949 C 0.91497 0.90931 0.22193 0.0
C950 C 0.95192 0.89088 0.2318 0.0
C951 C 0.97635 0.88651 0.22329 0.0
C952 C 0.98243 0.87913 0.19137 0.0
C953 C 0.00553 0.87586 0.18318 0.0
C954 C 0.02271 0.87973 0.20678 0.0
C955 C 0.0168 0.88676 0.23868 0.0
C956 C 0.99372 0.89008 0.247 0.0
C957 C 0.8805 0.84173 0.31594 0.0
C958 C 0.89116 0.84217 0.34721 0.0
C959 C 0.88967 0.85419 0.28962 0.0
C960 C 0.9095 0.86763 0.2941 0.0
C961 C 0.92044 0.86774 0.32507 0.0
C962 C 0.9114 0.85514 0.35131 0.0
C963 C 0.91895 0.88154 0.26656 0.0
C964 C 0.94217 0.87872 0.2581 0.0
C965 C 0.90522 0.89722 0.24838 0.0
C966 C 0.88098 0.90206 0.25723 0.0
C967 C 0.87527 0.90948 0.28927 0.0
C968 C 0.85236 0.91384 0.29752 0.0
C969 C 0.83502 0.91099 0.27386 0.0
C970 C 0.84057 0.90386 0.24187 0.0
C971 C 0.86345 0.89945 0.2335 0.0
H972 H 0.8173 0.91437 0.28029 0.0
H973 H 0.04059 0.87725 0.20036 0.0
H974 H 0.10486 0.98505 0.11663 0.0
H975 H 0.12074 0.96532 0.1651 0.0
H976 H 0.05215 0.94848 0.19683 0.0
H977 H 0.03627 0.96783 0.14795 0.0
H978 H 0.08399 0.9783 0.24068 0.0
H979 H 0.07795 0.90472 0.18527 0.0
H980 H 0.08417 0.87475 0.14307 0.0
H981 H 0.15723 0.88385 0.1515 0.0
H982 H 0.15141 0.91382 0.194 0.0
H983 H 0.11307 0.92209 0.39008 0.0
H984 H 0.09616 0.93296 0.33709 0.0
H985 H 0.16266 0.92725 0.291 0.0
H986 H 0.17972 0.91632 0.34406 0.0
H987 H 0.13099 0.90771 0.25354 0.0
H988 H 0.13889 0.97938 0.30901 0.0
H989 H 0.13483 0.00805 0.35356 0.0
H990 H 0.06137 0.00547 0.34353 0.0
H991 H 0.06496 0.9763 0.29944 0.0
C992 C 0.09327 0.97645 0.13342 0.0
C993 C 0.0694 0.97757 0.12844 0.0
C994 C 0.10232 0.96518 0.16098 0.0
C995 C 0.0876 0.95535 0.18433 0.0
C996 C 0.06376 0.95571 0.17879 0.0
C997 C 0.05472 0.96657 0.1508 0.0
C998 C 0.09698 0.94796 0.21658 0.0
C999 C 0.0939 0.96264 0.24377 0.0
C1000 C 0.11076 0.92813 0.21999 0.0
C1001 C 0.11423 0.91167 0.19249 0.0
C1002 C 0.09532 0.90062 0.17769 0.0
C1003 C 0.09879 0.88353 0.15387 0.0
C1004 C 0.12111 0.87746 0.14453 0.0
C1005 C 0.13998 0.8886 0.15875 0.0
C1006 C 0.1366 0.90559 0.18276 0.0
C1007 C 0.12415 0.92334 0.36873 0.0
C1008 C 0.14778 0.91847 0.37131 0.0
C1009 C 0.11445 0.92956 0.33844 0.0
C1010 C 0.12819 0.93123 0.31014 0.0
C1011 C 0.15173 0.92608 0.31252 0.0
C1012 C 0.16144 0.91977 0.34282 0.0
C1013 C 0.11789 0.93794 0.27796 0.0
C1014 C 0.12096 0.92332 0.25067 0.0
C1015 C 0.10446 0.9581 0.27431 0.0
C1016 C 0.10219 0.97539 0.3012 0.0
C1017 C 0.12185 0.98468 0.31658 0.0
C1018 C 0.11963 0.00105 0.34173 0.0
C1019 C 0.09785 0.00852 0.35145 0.0
C1020 C 0.07823 0.99962 0.33604 0.0
C1021 C 0.08035 0.98313 0.311 0.0
H1022 H 0.09617 0.02128 0.37083 0.0
H1023 H 0.12384 0.86395 0.12656 0.0
H1024 H 0.05762 0.00981 0.88371 0.0
H1025 H 0.07299 0.99235 0.83313 0.0
H1026 H 0.13799 0.98117 0.88208 0.0
H1027 H 0.1228 0.99816 0.93266 0.0
H1028 H 0.14114 0.00303 0.81943 0.0
H1029 H 0.10562 0.93752 0.87146 0.0
H1030 H 0.07459 0.91387 0.89488 0.0
H1031 H 0.03706 0.91816 0.80356 0.0
H1032 H 0.06763 0.94228 0.77982 0.0
H1033 H 0.20329 0.92408 0.72208 0.0
H1034 H 0.18296 0.94505 0.76544 0.0
H1035 H 0.12029 0.94158 0.70827 0.0
H1036 H 0.14035 0.91993 0.66524 0.0
H1037 H 0.11263 0.93001 0.7706 0.0
H1038 H 0.14924 0.99214 0.7163 0.0
H1039 H 0.18102 0.01389 0.69121 0.0
H1040 H 0.21604 0.01628 0.78473 0.0
H1041 H 0.18463 0.99424 0.81031 0.0
C1042 C 0.07513 0.00349 0.88374 0.0
C1043 C 0.08902 0.0054 0.91217 0.0
C1044 C 0.08385 0.99351 0.85488 0.0
C1045 C 0.1066 0.98552 0.85399 0.0
C1046 C 0.1204 0.9873 0.88233 0.0
C1047 C 0.11166 0.99697 0.91123 0.0
C1048 C 0.1164 0.97568 0.82343 0.0
C1049 C 0.13502 0.987 0.80878 0.0
C1050 C 0.10784 0.95521 0.80906 0.0
C1051 C 0.0888 0.94194 0.824 0.0
C1052 C 0.09056 0.93378 0.85657 0.0
C1053 C 0.07309 0.92021 0.86986 0.0
C1054 C 0.05388 0.9145 0.85071 0.0
C1055 C 0.05193 0.92262 0.81838 0.0
C1056 C 0.06931 0.93626 0.80501 0.0
C1057 C 0.18517 0.92773 0.71877 0.0
C1058 C 0.17343 0.92033 0.69023 0.0
C1059 C 0.17363 0.93995 0.7434 0.0
C1060 C 0.15016 0.94513 0.7399 0.0
C1061 C 0.13842 0.93788 0.71138 0.0
C1062 C 0.14995 0.92565 0.68672 0.0
C1063 C 0.13771 0.95712 0.76683 0.0
C1064 C 0.11855 0.94625 0.78081 0.0
C1065 C 0.14566 0.97812 0.78043 0.0
C1066 C 0.16465 0.99135 0.76516 0.0
C1067 C 0.16381 0.99713 0.73147 0.0
C1068 C 0.18174 0.00954 0.71716 0.0
C1069 C 0.20056 0.01641 0.73634 0.0
C1070 C 0.20146 0.01092 0.76989 0.0
C1071 C 0.18358 0.99849 0.78432 0.0
H1072 H 0.21442 0.02603 0.72523 0.0
H1073 H 0.04055 0.9037 0.86088 0.0
H1074 H 0.01852 0.05721 0.90053 0.0
H1075 H 0.0376 0.07266 0.85155 0.0
H1076 H 0.04695 0.13766 0.90147 0.0
H1077 H 0.02807 0.1224 0.95046 0.0
H1078 H 0.02666 0.142 0.84001 0.0
H1079 H 0.0914 0.10386 0.88926 0.0
H1080 H 0.11453 0.07199 0.91172 0.0
H1081 H 0.10887 0.03582 0.81938 0.0
H1082 H 0.08526 0.06726 0.79656 0.0
H1083 H 0.10087 0.2008 0.73206 0.0
H1084 H 0.08328 0.18178 0.77927 0.0
H1085 H 0.08181 0.11775 0.72512 0.0
H1086 H 0.10025 0.13648 0.67818 0.0
H1087 H 0.09687 0.11114 0.78668 0.0
H1088 H 0.03275 0.14894 0.73686 0.0
H1089 H 0.01094 0.18129 0.71306 0.0
H1090 H 0.01521 0.21761 0.80543 0.0
H1091 H 0.03734 0.1856 0.82966 0.0
C1092 C 0.02484 0.07473 0.90117 0.0
C1093 C 0.02162 0.08866 0.92928 0.0
C1094 C 0.0358 0.08349 0.87322 0.0
C1095 C 0.04361 0.10632 0.87291 0.0
C1096 C 0.04095 0.12003 0.90121 0.0
C1097 C 0.03022 0.11124 0.92922 0.0
C1098 C 0.0534 0.11643 0.84255 0.0
C1099 C 0.04217 0.13542 0.82854 0.0
C1100 C 0.07315 0.1073 0.82703 0.0
C1101 C 0.08636 0.08785 0.84128 0.0
C1102 C 0.09476 0.08896 0.87389 0.0
C1103 C 0.10803 0.071 0.88666 0.0
C1104 C 0.11324 0.05195 0.86693 0.0
C1105 C 0.10487 0.05062 0.83459 0.0
C1106 C 0.09151 0.06849 0.82175 0.0
C1107 C 0.09695 0.18264 0.73024 0.0
C1108 C 0.10198 0.17017 0.70133 0.0
C1109 C 0.08666 0.17183 0.75713 0.0
C1110 C 0.08097 0.14839 0.75559 0.0
C1111 C 0.08597 0.13587 0.7268 0.0
C1112 C 0.09632 0.14666 0.69989 0.0
C1113 C 0.07029 0.1369 0.78436 0.0
C1114 C 0.08127 0.11762 0.79801 0.0
C1115 C 0.0502 0.14564 0.79947 0.0
C1116 C 0.03689 0.16494 0.78498 0.0
C1117 C 0.0292 0.1639 0.75202 0.0
C1118 C 0.01675 0.18216 0.73847 0.0
C1119 C 0.01174 0.20152 0.7577 0.0
C1120 C 0.01913 0.20262 0.79055 0.0
C1121 C 0.0316 0.18441 0.80422 0.0
H1122 H 0.00209 0.21563 0.74716 0.0
H1123 H 0.12389 0.03831 0.87664 0.0
H1124 H 0.90241 0.9798 0.88986 0.0
H1125 H 0.88498 0.99841 0.84207 0.0
H1126 H 0.94499 0.04127 0.83154 0.0
H1127 H 0.96253 0.02282 0.87978 0.0
H1128 H 0.90586 0.06633 0.83211 0.0
H1129 H 0.93267 0.00166 0.76552 0.0
H1130 H 0.93857 0.96091 0.75073 0.0
H1131 H 0.86647 0.94785 0.76247 0.0
H1132 H 0.85997 0.98885 0.77571 0.0
H1133 H 0.87008 0.11624 0.68024 0.0
H1134 H 0.8913 0.09486 0.72248 0.0
H1135 H 0.83169 0.05257 0.73977 0.0
H1136 H 0.81041 0.0738 0.69729 0.0
H1137 H 0.87175 0.02713 0.73449 0.0
H1138 H 0.84453 0.09288 0.79379 0.0
H1139 H 0.8382 0.1341 0.80488 0.0
H1140 H 0.91112 0.14515 0.8095 0.0
H1141 H 0.9179 0.10401 0.79793 0.0
C1142 C 0.91203 0.99304 0.87722 0.0
C1143 C 0.93376 1.00001 0.88883 0.0
C1144 C 0.90212 0.00351 0.84966 0.0
C1145 C 0.91373 0.02112 0.83305 0.0
C1146 C 0.93573 0.02768 0.84397 0.0
C1147 C 0.94574 0.01712 0.87152 0.0
C1148 C 0.90193 0.03405 0.80638 0.0
C1149 C 0.89881 0.05784 0.8104 0.0
C1150 C 0.89202 0.02289 0.77869 0.0
C1151 C 0.89589 0.99818 0.77191 0.0
C1152 C 0.91812 0.99004 0.76514 0.0
C1153 C 0.92155 0.96693 0.75692 0.0
C1154 C 0.90299 0.95169 0.75622 0.0
C1155 C 0.88086 0.95964 0.76319 0.0
C1156 C 0.87724 0.98285 0.77071 0.0
C1157 C 0.86154 0.10232 0.69295 0.0
C1158 C 0.83859 0.09668 0.6855 0.0
C1159 C 0.87362 0.09023 0.7172 0.0
C1160 C 0.86301 0.07224 0.73438 0.0
C1161 C 0.84017 0.06643 0.72681 0.0
C1162 C 0.828 0.07865 0.70274 0.0
C1163 C 0.87584 0.05942 0.76011 0.0
C1164 C 0.87899 0.03566 0.75602 0.0
C1165 C 0.88572 0.07063 0.7878 0.0
C1166 C 0.88172 0.09541 0.7946 0.0
C1167 C 0.85922 0.10414 0.79683 0.0
C1168 C 0.85555 0.12748 0.80328 0.0
C1169 C 0.87425 0.14225 0.80779 0.0
C1170 C 0.89666 0.13369 0.80594 0.0
C1171 C 0.90042 0.11036 0.79945 0.0
H1172 H 0.87137 0.16032 0.81281 0.0
H1173 H 0.90572 0.93379 0.75 0.0
H1174 H 0.01658 0.93411 0.8898 0.0
H1175 H 0.0005 0.92011 0.83788 0.0
H1176 H 0.9324 0.92233 0.87958 0.0
H1177 H 0.94871 0.93464 0.93261 0.0
H1178 H 0.93679 0.88494 0.84581 0.0
H1179 H 0.95362 0.96388 0.82244 0.0
H1180 H 0.97803 0.99851 0.82089 0.0
H1181 H 0.02552 0.96386 0.75686 0.0
H1182 H 0.00146 0.92897 0.75805 0.0
H1183 H 0.88268 0.86918 0.68926 0.0
H1184 H 0.89564 0.88577 0.74175 0.0
H1185 H 0.96617 0.8786 0.71097 0.0
H1186 H 0.95337 0.86189 0.65852 0.0
H1187 H 0.95854 0.92024 0.73906 0.0
H1188 H 0.94315 0.84118 0.76522 0.0
H1189 H 0.91981 0.80586 0.76797 0.0
H1190 H 0.87001 0.84089 0.82786 0.0
H1191 H 0.89292 0.87653 0.82508 0.0
C1192 C 0.99819 0.93162 0.88794 0.0
C1193 C 0.98392 0.93557 0.91525 0.0
C1194 C 0.98897 0.92381 0.85811 0.0
C1195 C 0.96517 0.92064 0.85448 0.0
C1196 C 0.95081 0.92473 0.88169 0.0
C1197 C 0.96013 0.93193 0.91192 0.0
C1198 C 0.9555 0.9124 0.82253 0.0
C1199 C 0.94115 0.89299 0.82254 0.0
C1200 C 0.96165 0.92251 0.79204 0.0
C1201 C 0.97579 0.94374 0.79046 0.0
C1202 C 0.96931 0.96361 0.8081 0.0
C1203 C 0.98306 0.9833 0.80725 0.0
C1204 C 0.00332 0.98337 0.78885 0.0
C1205 C 0.00979 0.9638 0.77105 0.0
C1206 C 0.99605 0.94409 0.77168 0.0
C1207 C 0.90096 0.87091 0.6938 0.0
C1208 C 0.91699 0.86413 0.66974 0.0
C1209 C 0.90833 0.88047 0.72376 0.0
C1210 C 0.93188 0.88326 0.73037 0.0
C1211 C 0.94792 0.87668 0.70633 0.0
C1212 C 0.94056 0.86716 0.67635 0.0
C1213 C 0.93986 0.89285 0.76246 0.0
C1214 C 0.95396 0.91243 0.76242 0.0
C1215 C 0.93341 0.88298 0.79293 0.0
C1216 C 0.91962 0.86158 0.79464 0.0
C1217 C 0.92712 0.8414 0.77874 0.0
C1218 C 0.91399 0.82131 0.78035 0.0
C1219 C 0.8934 0.82115 0.798 0.0
C1220 C 0.88594 0.84106 0.81415 0.0
C1221 C 0.89899 0.8612 0.81258 0.0
H1222 H 0.88326 0.80558 0.79923 0.0
H1223 H 0.014 0.9986 0.78836 0.0
H1224 H 0.50638 0.53873 0.66145 0.0
H1225 H 0.52742 0.54863 0.71189 0.0
H1226 H 0.57323 0.59151 0.65554 0.0
H1227 H 0.55262 0.58074 0.60458 0.0
H1228 H 0.59509 0.57102 0.7102 0.0
H1229 H 0.52653 0.61665 0.68919 0.0
H1230 H 0.48541 0.62094 0.67512 0.0
H1231 H 0.46714 0.58039 0.75948 0.0
H1232 H 0.50805 0.57619 0.77423 0.0
H1233 H 0.61878 0.65112 0.84251 0.0
H1234 H 0.60863 0.63263 0.79002 0.0
H1235 H 0.56102 0.58838 0.84066 0.0
H1236 H 0.57143 0.60627 0.89322 0.0
H1237 H 0.54154 0.60975 0.78774 0.0
H1238 H 0.60961 0.56686 0.81195 0.0
H1239 H 0.65049 0.56124 0.82595 0.0
H1240 H 0.67022 0.59442 0.73587 0.0
H1241 H 0.62941 0.6007 0.72164 0.0
C1242 C 0.52134 0.54975 0.65978 0.0
C1243 C 0.52788 0.55916 0.62942 0.0
C1244 C 0.53332 0.55542 0.68853 0.0
C1245 C 0.55149 0.57127 0.68754 0.0
C1246 C 0.55919 0.57932 0.65683 0.0
C1247 C 0.54746 0.57318 0.6278 0.0
C1248 C 0.56015 0.58159 0.71873 0.0
C1249 C 0.58352 0.57976 0.72701 0.0
C1250 C 0.54494 0.5927 0.74084 0.0
C1251 C 0.52029 0.5961 0.73278 0.0
C1252 C 0.51369 0.60877 0.70479 0.0
C1253 C 0.49043 0.61123 0.69674 0.0
C1254 C 0.47364 0.60109 0.71651 0.0
C1255 C 0.48009 0.58849 0.74437 0.0
C1256 C 0.5033 0.58614 0.75269 0.0
C1257 C 0.60643 0.6372 0.84258 0.0
C1258 C 0.5958 0.63032 0.87211 0.0
C1259 C 0.60064 0.62667 0.81254 0.0
C1260 C 0.58413 0.6091 0.8115 0.0
C1261 C 0.57375 0.60198 0.84093 0.0
C1262 C 0.5796 0.61237 0.87093 0.0
C1263 C 0.57653 0.59905 0.77958 0.0
C1264 C 0.55325 0.60108 0.77102 0.0
C1265 C 0.59189 0.58818 0.7574 0.0
C1266 C 0.61644 0.5845 0.76592 0.0
C1267 C 0.62266 0.57318 0.79528 0.0
C1268 C 0.64582 0.56982 0.80322 0.0
C1269 C 0.66294 0.57748 0.78183 0.0
C1270 C 0.65693 0.58852 0.75244 0.0
C1271 C 0.63379 0.59199 0.74443 0.0
H1272 H 0.68086 0.57482 0.78801 0.0
H1273 H 0.45565 0.60303 0.71022 0.0
H1274 H 0.40148 0.50473 0.64105 0.0
H1275 H 0.38368 0.52808 0.6839 0.0
H1276 H 0.43239 0.58241 0.66583 0.0
H1277 H 0.45058 0.55886 0.62322 0.0
H1278 H 0.42823 0.57298 0.73164 0.0
H1279 H 0.37812 0.59092 0.64369 0.0
H1280 H 0.35398 0.58297 0.59484 0.0
H1281 H 0.30825 0.54265 0.65416 0.0
H1282 H 0.33243 0.54996 0.70328 0.0
H1283 H 0.3666 0.6362 0.85447 0.0
H1284 H 0.38215 0.62756 0.79964 0.0
H1285 H 0.34496 0.56342 0.79801 0.0
H1286 H 0.32906 0.57212 0.85247 0.0
H1287 H 0.34403 0.58609 0.737 0.0
H1288 H 0.40161 0.56255 0.82031 0.0
H1289 H 0.42721 0.57058 0.86778 0.0
H1290 H 0.45883 0.62566 0.81418 0.0
H1291 H 0.4332 0.61808 0.76659 0.0
C1292 C 0.40841 0.5217 0.64596 0.0
C1293 C 0.42752 0.52994 0.62842 0.0
C1294 C 0.39808 0.5351 0.67038 0.0
C1295 C 0.40654 0.5571 0.67786 0.0
C1296 C 0.42553 0.5655 0.66039 0.0
C1297 C 0.43585 0.55206 0.6358 0.0
C1298 C 0.39612 0.57054 0.7052 0.0
C1299 C 0.40994 0.57651 0.73237 0.0
C1300 C 0.37219 0.57489 0.70636 0.0
C1301 C 0.3572 0.57086 0.67713 0.0
C1302 C 0.363 0.58024 0.64628 0.0
C1303 C 0.3493 0.57585 0.61854 0.0
C1304 C 0.32961 0.56226 0.62138 0.0
C1305 C 0.32352 0.55315 0.65201 0.0
C1306 C 0.33721 0.55743 0.67982 0.0
C1307 C 0.36143 0.62045 0.84216 0.0
C1308 C 0.34674 0.60474 0.85789 0.0
C1309 C 0.37042 0.61548 0.81094 0.0
C1310 C 0.36485 0.59476 0.7949 0.0
C1311 C 0.34948 0.57951 0.80996 0.0
C1312 C 0.34058 0.5844 0.8412 0.0
C1313 C 0.37613 0.58806 0.76353 0.0
C1314 C 0.36244 0.58327 0.73572 0.0
C1315 C 0.40023 0.58522 0.76149 0.0
C1316 C 0.41552 0.5898 0.79004 0.0
C1317 C 0.41397 0.57642 0.81877 0.0
C1318 C 0.42847 0.58089 0.84567 0.0
C1319 C 0.44462 0.59863 0.84401 0.0
C1320 C 0.44629 0.61196 0.81546 0.0
C1321 C 0.43179 0.60759 0.78854 0.0
H1322 H 0.45586 0.60204 0.86484 0.0
H1323 H 0.31905 0.55877 0.59988 0.0
H1324 H 0.50303 0.41417 0.6474 0.0
H1325 H 0.4804 0.39389 0.68872 0.0
H1326 H 0.42129 0.43519 0.66413 0.0
H1327 H 0.44373 0.45514 0.62223 0.0
H1328 H 0.43433 0.42908 0.73723 0.0
H1329 H 0.41635 0.38752 0.63654 0.0
H1330 H 0.42916 0.36944 0.58456 0.0
H1331 H 0.4696 0.3209 0.63946 0.0
H1332 H 0.45737 0.33904 0.69175 0.0
H1333 H 0.35596 0.36557 0.83259 0.0
H1334 H 0.37324 0.38583 0.78607 0.0
H1335 H 0.42681 0.33459 0.78103 0.0
H1336 H 0.40923 0.31397 0.82713 0.0
H1337 H 0.41485 0.34669 0.72068 0.0
H1338 H 0.43511 0.38694 0.82006 0.0
H1339 H 0.42832 0.40694 0.87294 0.0
H1340 H 0.38841 0.45835 0.82287 0.0
H1341 H 0.39469 0.43845 0.76971 0.0
C1342 C 0.48525 0.41903 0.65075 0.0
C1343 C 0.47522 0.43642 0.63134 0.0
C1344 C 0.47235 0.4074 0.67438 0.0
C1345 C 0.44923 0.4131 0.6794 0.0
C1346 C 0.43918 0.43065 0.66063 0.0
C1347 C 0.45203 0.44204 0.63659 0.0
C1348 C 0.43555 0.40027 0.70387 0.0
C1349 C 0.42961 0.41121 0.73348 0.0
C1350 C 0.43015 0.37681 0.69914 0.0
C1351 C 0.43613 0.36477 0.66799 0.0
C1352 C 0.42804 0.37305 0.63748 0.0
C1353 C 0.43528 0.36287 0.60798 0.0
C1354 C 0.4504 0.3442 0.60871 0.0
C1355 C 0.45802 0.33547 0.63895 0.0
C1356 C 0.45092 0.34567 0.66853 0.0
C1357 C 0.37138 0.3586 0.82146 0.0
C1358 C 0.38139 0.33832 0.83367 0.0
C1359 C 0.38125 0.37018 0.7949 0.0
C1360 C 0.40159 0.36198 0.78042 0.0
C1361 C 0.41115 0.34127 0.79181 0.0
C1362 C 0.40111 0.32951 0.81815 0.0
C1363 C 0.41339 0.3755 0.75441 0.0
C1364 C 0.41916 0.36466 0.72447 0.0
C1365 C 0.41895 0.39905 0.75906 0.0
C1366 C 0.41515 0.41106 0.79097 0.0
C1367 C 0.42473 0.40241 0.82036 0.0
C1368 C 0.421 0.41374 0.85038 0.0
C1369 C 0.40788 0.43386 0.85128 0.0
C1370 C 0.39852 0.44273 0.82214 0.0
C1371 C 0.40217 0.43144 0.79206 0.0
H1372 H 0.40502 0.44262 0.87454 0.0
H1373 H 0.45599 0.33633 0.58585 0.0
H1374 H 0.58302 0.45745 0.59869 0.0
H1375 H 0.60076 0.43821 0.64617 0.0
H1376 H 0.56265 0.4825 0.71215 0.0
H1377 H 0.54608 0.50244 0.66462 0.0
H1378 H 0.6042 0.4825 0.73036 0.0
H1379 H 0.55239 0.42016 0.69807 0.0
H1380 H 0.5366 0.39147 0.65902 0.0
H1381 H 0.60362 0.36183 0.64704 0.0
H1382 H 0.61988 0.39039 0.68582 0.0
H1383 H 0.6197 0.42931 0.88405 0.0
H1384 H 0.60399 0.44314 0.83188 0.0
H1385 H 0.65238 0.4011 0.77839 0.0
H1386 H 0.66849 0.38729 0.83077 0.0
H1387 H 0.60969 0.39868 0.75091 0.0
H1388 H 0.66112 0.45788 0.7846 0.0
H1389 H 0.67887 0.48656 0.82172 0.0
H1390 H 0.61465 0.52263 0.82854 0.0
H1391 H 0.59638 0.49396 0.79185 0.0
C1392 C 0.57806 0.46256 0.6234 0.0
C1393 C 0.56302 0.48112 0.62823 0.0
C1394 C 0.58818 0.45159 0.65057 0.0
C1395 C 0.58293 0.45868 0.68298 0.0
C1396 C 0.5671 0.4767 0.68753 0.0
C1397 C 0.55749 0.48799 0.66043 0.0
C1398 C 0.59505 0.44881 0.71221 0.0
C1399 C 0.60499 0.46416 0.73506 0.0
C1400 C 0.59728 0.42483 0.71765 0.0
C1401 C 0.58738 0.40754 0.69463 0.0
C1402 C 0.56378 0.40761 0.68696 0.0
C1403 C 0.55475 0.39139 0.66486 0.0
C1404 C 0.56911 0.37497 0.65038 0.0
C1405 C 0.59252 0.37462 0.65816 0.0
C1406 C 0.60165 0.39078 0.68025 0.0
C1407 C 0.62725 0.42318 0.86125 0.0
C1408 C 0.64557 0.40737 0.8617 0.0
C1409 C 0.61816 0.43105 0.83139 0.0
C1410 C 0.62719 0.42341 0.80119 0.0
C1411 C 0.64515 0.40726 0.8014 0.0
C1412 C 0.65431 0.39935 0.83137 0.0
C1413 C 0.6178 0.43246 0.76958 0.0
C1414 C 0.60869 0.417 0.7462 0.0
C1415 C 0.61643 0.45636 0.76344 0.0
C1416 C 0.62731 0.47359 0.78574 0.0
C1417 C 0.65071 0.47179 0.79426 0.0
C1418 C 0.66088 0.48809 0.81517 0.0
C1419 C 0.64788 0.50636 0.82756 0.0
C1420 C 0.62469 0.50844 0.81896 0.0
C1421 C 0.61442 0.49218 0.7981 0.0
H1422 H 0.65579 0.51893 0.84378 0.0
H1423 H 0.56209 0.36248 0.63322 0.0
H1424 H 0.58239 0.50767 0.38289 0.0
H1425 H 0.59599 0.4858 0.33527 0.0
H1426 H 0.5865 0.42254 0.38882 0.0
H1427 H 0.57319 0.44435 0.43691 0.0
H1428 H 0.62782 0.42388 0.35919 0.0
H1429 H 0.55024 0.43903 0.32863 0.0
H1430 H 0.51576 0.46247 0.31802 0.0
H1431 H 0.55092 0.49833 0.24084 0.0
H1432 H 0.5859 0.47554 0.25144 0.0
H1433 H 0.65082 0.35356 0.21907 0.0
H1434 H 0.63153 0.37155 0.2661 0.0
H1435 H 0.63745 0.43782 0.21944 0.0
H1436 H 0.65681 0.41998 0.17238 0.0
H1437 H 0.59567 0.43251 0.24623 0.0
H1438 H 0.67391 0.4216 0.28095 0.0
H1439 H 0.70955 0.40005 0.29246 0.0
H1440 H 0.67367 0.35791 0.36219 0.0
H1441 H 0.63772 0.37898 0.3507 0.0
C1442 C 0.58305 0.48909 0.38453 0.0
C1443 C 0.57678 0.47776 0.41375 0.0
C1444 C 0.59075 0.4766 0.3572 0.0
C1445 C 0.5921 0.45252 0.35839 0.0
C1446 C 0.58561 0.44112 0.38739 0.0
C1447 C 0.57796 0.45361 0.41482 0.0
C1448 C 0.60114 0.4394 0.32974 0.0
C1449 C 0.62052 0.42542 0.33459 0.0
C1450 C 0.59196 0.44193 0.2975 0.0
C1451 C 0.57083 0.45562 0.291 0.0
C1452 C 0.55075 0.45204 0.30957 0.0
C1453 C 0.53107 0.46518 0.30352 0.0
C1454 C 0.53113 0.48184 0.27877 0.0
C1455 C 0.55089 0.4854 0.26 0.0
C1456 C 0.57066 0.47237 0.26602 0.0
C1457 C 0.64814 0.37199 0.21889 0.0
C1458 C 0.6555 0.38535 0.19202 0.0
C1459 C 0.63706 0.38223 0.24577 0.0
C1460 C 0.63327 0.40607 0.24648 0.0
C1461 C 0.64014 0.41939 0.21941 0.0
C1462 C 0.65117 0.40915 0.19248 0.0
C1463 C 0.62251 0.41726 0.27565 0.0
C1464 C 0.60283 0.43085 0.27089 0.0
C1465 C 0.6315 0.41455 0.30797 0.0
C1466 C 0.65304 0.40165 0.31459 0.0
C1467 C 0.67356 0.40756 0.29845 0.0
C1468 C 0.69383 0.39547 0.30503 0.0
C1469 C 0.69386 0.37756 0.32794 0.0
C1470 C 0.67361 0.37174 0.34436 0.0
C1471 C 0.65328 0.38375 0.33782 0.0
H1472 H 0.70958 0.36825 0.33304 0.0
H1473 H 0.51586 0.49198 0.27413 0.0
H1474 H 0.54489 0.55639 0.42147 0.0
H1475 H 0.56443 0.57318 0.37389 0.0
H1476 H 0.50372 0.61279 0.35101 0.0
H1477 H 0.48396 0.59583 0.39794 0.0
H1478 H 0.52186 0.59496 0.29636 0.0
H1479 H 0.54958 0.63741 0.391 0.0
H1480 H 0.56731 0.64139 0.4462 0.0
H1481 H 0.62901 0.60935 0.41078 0.0
H1482 H 0.61157 0.60501 0.35537 0.0
H1483 H 0.56778 0.68037 0.19154 0.0
H1484 H 0.54959 0.65983 0.23712 0.0
H1485 H 0.61322 0.62406 0.25655 0.0
H1486 H 0.63157 0.64487 0.21137 0.0
H1487 H 0.59477 0.63788 0.31243 0.0
H1488 H 0.56709 0.5984 0.21565 0.0
H1489 H 0.54834 0.59449 0.16117 0.0
H1490 H 0.48539 0.62102 0.20117 0.0
H1491 H 0.50387 0.62548 0.25575 0.0
C1492 C 0.53567 0.56857 0.40618 0.0
C1493 C 0.51292 0.57488 0.41358 0.0
C1494 C 0.54689 0.57822 0.3791 0.0
C1495 C 0.53561 0.59446 0.3592 0.0
C1496 C 0.51274 0.60032 0.36608 0.0
C1497 C 0.5015 0.59064 0.39299 0.0
C1498 C 0.54762 0.60574 0.33145 0.0
C1499 C 0.53769 0.60454 0.29987 0.0
C1500 C 0.56852 0.61779 0.33602 0.0
C1501 C 0.57919 0.6207 0.36914 0.0
C1502 C 0.56689 0.63111 0.39503 0.0
C1503 C 0.57689 0.63345 0.42633 0.0
C1504 C 0.59924 0.62557 0.43199 0.0
C1505 C 0.61169 0.61542 0.40633 0.0
C1506 C 0.60177 0.61305 0.37497 0.0
C1507 C 0.57783 0.66804 0.20546 0.0
C1508 C 0.60106 0.66417 0.1979 0.0
C1509 C 0.56742 0.65628 0.23144 0.0
C1510 C 0.57995 0.64013 0.24994 0.0
C1511 C 0.60322 0.63642 0.24261 0.0
C1512 C 0.61369 0.64834 0.21685 0.0
C1513 C 0.56889 0.62732 0.27721 0.0
C1514 C 0.57901 0.6282 0.30877 0.0
C1515 C 0.54806 0.61507 0.27264 0.0
C1516 C 0.53696 0.6125 0.23973 0.0
C1517 C 0.54932 0.60361 0.21276 0.0
C1518 C 0.53872 0.60127 0.18187 0.0
C1519 C 0.51572 0.60757 0.17769 0.0
C1520 C 0.50323 0.61619 0.20442 0.0
C1521 C 0.51376 0.61863 0.23534 0.0
H1522 H 0.50755 0.60572 0.15376 0.0
H1523 H 0.60692 0.62738 0.45623 0.0
H1524 H 0.3735 0.50388 0.42818 0.0
H1525 H 0.35995 0.52098 0.37679 0.0
H1526 H 0.42677 0.51075 0.33329 0.0
H1527 H 0.44063 0.49378 0.385 0.0
H1528 H 0.41027 0.55308 0.31995 0.0
H1529 H 0.38294 0.47671 0.31182 0.0
H1530 H 0.36372 0.44103 0.32919 0.0
H1531 H 0.29932 0.47683 0.33547 0.0
H1532 H 0.31821 0.51286 0.31865 0.0
H1533 H 0.36441 0.58735 0.16312 0.0
H1534 H 0.38295 0.56446 0.2063 0.0
H1535 H 0.32128 0.56828 0.26484 0.0
H1536 H 0.30238 0.59037 0.22137 0.0
H1537 H 0.33879 0.52567 0.26537 0.0
H1538 H 0.36866 0.60317 0.27944 0.0
H1539 H 0.38888 0.63824 0.26164 0.0
H1540 H 0.44985 0.59874 0.24272 0.0
H1541 H 0.42986 0.56337 0.25997 0.0
C1542 C 0.38535 0.50519 0.40771 0.0
C1543 C 0.40814 0.4974 0.41069 0.0
C1544 C 0.37753 0.51489 0.37826 0.0
C1545 C 0.39226 0.51687 0.35104 0.0
C1546 C 0.4151 0.50932 0.35396 0.0
C1547 C 0.42296 0.49958 0.3835 0.0
C1548 C 0.38372 0.52729 0.3199 0.0
C1549 C 0.39488 0.54684 0.30762 0.0
C1550 C 0.36355 0.51922 0.30398 0.0
C1551 C 0.35205 0.49756 0.31413 0.0
C1552 C 0.36471 0.47704 0.31713 0.0
C1553 C 0.35386 0.45673 0.32685 0.0
C1554 C 0.33032 0.45666 0.33345 0.0
C1555 C 0.31756 0.47691 0.33033 0.0
C1556 C 0.32833 0.49728 0.32067 0.0
C1557 C 0.3547 0.58309 0.18502 0.0
C1558 C 0.33193 0.59082 0.18885 0.0
C1559 C 0.36541 0.57018 0.20982 0.0
C1560 C 0.3536 0.56489 0.239 0.0
C1561 C 0.33076 0.57222 0.2426 0.0
C1562 C 0.32004 0.58505 0.21784 0.0
C1563 C 0.36492 0.55188 0.26608 0.0
C1564 C 0.35431 0.53176 0.2775 0.0
C1565 C 0.3857 0.55932 0.28103 0.0
C1566 C 0.39767 0.58059 0.2706 0.0
C1567 C 0.3863 0.60193 0.2712 0.0
C1568 C 0.39774 0.62187 0.26126 0.0
C1569 C 0.42061 0.6207 0.25095 0.0
C1570 C 0.43212 0.59961 0.25063 0.0
C1571 C 0.42074 0.57962 0.26049 0.0
H1572 H 0.42944 0.63616 0.24329 0.0
H1573 H 0.32195 0.44092 0.34094 0.0
H1574 H 0.5146 0.38027 0.40483 0.0
H1575 H 0.49674 0.36901 0.35268 0.0
H1576 H 0.47964 0.43987 0.33307 0.0
H1577 H 0.49712 0.45125 0.38575 0.0
H1578 H 0.44466 0.41418 0.31817 0.0
H1579 H 0.52448 0.41112 0.29212 0.0
H1580 H 0.56522 0.40021 0.29934 0.0
H1581 H 0.54734 0.32894 0.28965 0.0
H1582 H 0.50646 0.33937 0.28308 0.0
H1583 H 0.41664 0.39468 0.14869 0.0
H1584 H 0.4346 0.40774 0.20014 0.0
H1585 H 0.44696 0.33731 0.22813 0.0
H1586 H 0.42957 0.32412 0.17627 0.0
H1587 H 0.4848 0.36406 0.23744 0.0
H1588 H 0.40406 0.36841 0.26593 0.0
H1589 H 0.36383 0.3806 0.25751 0.0
H1590 H 0.38477 0.45138 0.25897 0.0
H1591 H 0.42509 0.43961 0.26771 0.0
C1592 C 0.50715 0.39351 0.38938 0.0
C1593 C 0.50733 0.41668 0.39944 0.0
C1594 C 0.49704 0.38705 0.35942 0.0
C1595 C 0.4872 0.40363 0.33857 0.0
C1596 C 0.48724 0.42677 0.34863 0.0
C1597 C 0.49727 0.43326 0.37873 0.0
C1598 C 0.47634 0.39667 0.30674 0.0
C1599 C 0.4536 0.40351 0.30032 0.0
C1600 C 0.48781 0.38243 0.28357 0.0
C1601 C 0.51239 0.37605 0.28747 0.0
C1602 C 0.52924 0.39313 0.29185 0.0
C1603 C 0.55234 0.38704 0.29576 0.0
C1604 C 0.55886 0.36393 0.29498 0.0
C1605 C 0.54227 0.34684 0.29028 0.0
C1606 C 0.51912 0.35283 0.28646 0.0
C1607 C 0.42326 0.38196 0.16574 0.0
C1608 C 0.42169 0.35835 0.15836 0.0
C1609 C 0.43332 0.38945 0.19528 0.0
C1610 C 0.44193 0.37349 0.21812 0.0
C1611 C 0.44036 0.34991 0.21089 0.0
C1612 C 0.43025 0.3424 0.18137 0.0
C1613 C 0.45314 0.38138 0.24917 0.0
C1614 C 0.47594 0.37475 0.25535 0.0
C1615 C 0.44185 0.39601 0.27192 0.0
C1616 C 0.41758 0.40312 0.26722 0.0
C1617 C 0.40007 0.38657 0.26439 0.0
C1618 C 0.37725 0.39341 0.25969 0.0
C1619 C 0.37174 0.41676 0.25778 0.0
C1620 C 0.38904 0.43332 0.26066 0.0
C1621 C 0.41186 0.42657 0.26561 0.0
H1622 H 0.35407 0.42203 0.25409 0.0
H1623 H 0.57676 0.35927 0.29796 0.0
loop_
_geom_bond_atom_site_label_1
_geom_bond_atom_site_label_2
_geom_bond_distance
_geom_bond_site_symmetry_2
_ccdc_geom_bond_type
Zn0 O2 1.933 1_556 S
Zn0 O20 1.993 . S
Zn0 O31 1.955 . S
Zn1 O2 1.911 . S
Zn1 O21 1.970 . S
Zn1 O37 1.945 . S
Zn1 O44 1.981 . S
O2 Zn0 1.933 1_554 S
O2 Zn1 1.911 . S
O2 H3 0.841 1_655 S
H3 O2 0.841 1_455 S
C4 O5 1.246 . S
C4 O33 1.276 1_545 S
O5 C4 1.246 . S
Zn6 O8 1.911 . S
Zn6 O23 1.970 . S
Zn6 O40 1.945 . S
Zn6 O47 1.981 . S
Zn7 O8 1.933 1_556 S
Zn7 O22 1.985 . S
Zn7 O29 1.955 . S
O8 Zn6 1.911 . S
O8 Zn7 1.933 1_554 S
O8 H9 0.841 1_455 S
H9 O8 0.841 1_655 S
Zn10 O11 1.933 1_556 S
Zn10 O24 1.985 . S
Zn10 O33 1.955 . S
O11 Zn10 1.933 1_554 S
O11 Zn12 1.911 . S
O11 H13 0.841 1_565 S
Zn12 O11 1.911 . S
Zn12 O25 1.970 . S
Zn12 O41 1.981 . S
Zn12 O43 1.945 . S
H13 O11 0.841 1_545 S
Zn14 O15 1.933 1_556 S
Zn14 O27 1.990 . S
Zn14 O35 1.955 . S
O15 Zn14 1.933 1_554 S
O15 H16 0.841 1_545 S
O15 Zn17 1.911 . S
H16 O15 0.841 1_565 S
Zn17 O15 1.911 . S
Zn17 O28 1.970 . S
Zn17 O38 1.981 . S
Zn17 O46 1.945 . S
C18 O19 1.246 . S
C18 O35 1.276 1_565 S
O19 C18 1.246 . S
O20 Zn0 1.993 . S
O20 C30 1.213 1_556 S
O21 Zn1 1.970 . S
O21 C30 1.263 . S
O22 Zn7 1.985 . S
O22 C34 1.245 1_556 S
O23 Zn6 1.970 . S
O23 C34 1.263 . S
O24 Zn10 1.985 . S
O24 C39 1.245 1_556 S
O25 Zn12 1.970 . S
O25 C39 1.263 . S
C26 O37 1.262 1_455 S
C26 O38 1.245 . S
O27 Zn14 1.990 . S
O27 C45 1.223 1_556 S
O28 Zn17 1.970 . S
O28 C45 1.263 . S
O29 Zn7 1.955 . S
O29 C48 1.276 1_455 S
C30 O20 1.213 1_554 S
C30 O21 1.263 . S
O31 Zn0 1.955 . S
O31 C50 1.276 1_655 S
C32 O40 1.262 1_655 S
C32 O41 1.245 . S
O33 C4 1.276 1_565 S
O33 Zn10 1.955 . S
C34 O22 1.245 1_554 S
C34 O23 1.263 . S
O35 Zn14 1.955 . S
O35 C18 1.276 1_545 S
C36 O43 1.262 1_545 S
C36 O44 1.245 . S
O37 Zn1 1.945 . S
O37 C26 1.262 1_655 S
O38 Zn17 1.981 . S
O38 C26 1.245 . S
C39 O24 1.245 1_554 S
C39 O25 1.263 . S
O40 Zn6 1.945 . S
O40 C32 1.262 1_455 S
O41 Zn12 1.981 . S
O41 C32 1.245 . S
C42 O46 1.262 1_565 S
C42 O47 1.245 . S
O43 Zn12 1.945 . S
O43 C36 1.262 1_565 S
O44 Zn1 1.981 . S
O44 C36 1.245 . S
C45 O27 1.223 1_554 S
C45 O28 1.263 . S
O46 Zn17 1.945 . S
O46 C42 1.262 1_545 S
O47 Zn6 1.981 . S
O47 C42 1.245 . S
C48 O29 1.276 1_655 S
C48 O49 1.246 . S
O49 C48 1.246 . S
C50 O31 1.276 1_455 S
C50 O51 1.246 . S
O51 C50 1.246 . S
Zn52 O54 1.933 . S
Zn52 O72 1.985 . S
Zn52 O83 1.955 . S
Zn53 O54 1.911 . S
Zn53 O73 1.970 . S
Zn53 O89 1.945 . S
Zn53 O96 1.981 . S
O54 Zn52 1.933 . S
O54 Zn53 1.911 . S
O54 H55 0.841 . S
H55 O54 0.841 . S
C56 O57 1.246 . S
C56 O85 1.276 . S
O57 C56 1.246 . S
Zn58 O60 1.911 . S
Zn58 O75 1.970 . S
Zn58 O92 1.945 . S
Zn58 O99 1.981 . S
Zn59 O60 1.933 . S
Zn59 O74 1.985 . S
Zn59 O81 1.955 . S
O60 Zn58 1.911 . S
O60 Zn59 1.933 . S
O60 H61 0.841 . S
H61 O60 0.841 . S
Zn62 O63 1.933 . S
Zn62 O76 1.985 . S
Zn62 O85 1.955 . S
O63 Zn62 1.933 . S
O63 Zn64 1.911 . S
O63 H65 0.841 . S
Zn64 O63 1.911 . S
Zn64 O77 1.970 . S
Zn64 O93 1.981 . S
Zn64 O95 1.945 . S
H65 O63 0.841 . S
Zn66 O67 1.933 . S
Zn66 O79 1.985 . S
Zn66 O87 1.955 . S
O67 Zn66 1.933 . S
O67 H68 0.841 . S
O67 Zn69 1.911 . S
H68 O67 0.841 . S
Zn69 O67 1.911 . S
Zn69 O80 1.970 . S
Zn69 O90 1.981 . S
Zn69 O98 1.945 . S
C70 O71 1.246 . S
C70 O87 1.276 . S
O71 C70 1.246 . S
O72 Zn52 1.985 . S
O72 C82 1.245 . S
O73 Zn53 1.970 . S
O73 C82 1.263 . S
O74 Zn59 1.985 . S
O74 C86 1.245 . S
O75 Zn58 1.970 . S
O75 C86 1.263 . S
O76 Zn62 1.985 . S
O76 C91 1.245 . S
O77 Zn64 1.970 . S
O77 C91 1.263 . S
C78 O89 1.262 . S
C78 O90 1.245 . S
O79 Zn66 1.985 . S
O79 C97 1.245 . S
O80 Zn69 1.970 . S
O80 C97 1.263 . S
O81 Zn59 1.955 . S
O81 C100 1.276 . S
C82 O72 1.245 . S
C82 O73 1.263 . S
O83 Zn52 1.955 . S
O83 C102 1.276 . S
C84 O92 1.262 . S
C84 O93 1.245 . S
O85 C56 1.276 . S
O85 Zn62 1.955 . S
C86 O74 1.245 . S
C86 O75 1.263 . S
O87 Zn66 1.955 . S
O87 C70 1.276 . S
C88 O95 1.262 . S
C88 O96 1.245 . S
O89 Zn53 1.945 . S
O89 C78 1.262 . S
O90 Zn69 1.981 . S
O90 C78 1.245 . S
C91 O76 1.245 . S
C91 O77 1.263 . S
O92 Zn58 1.945 . S
O92 C84 1.262 . S
O93 Zn64 1.981 . S
O93 C84 1.245 . S
C94 O98 1.262 . S
C94 O99 1.245 . S
O95 Zn64 1.945 . S
O95 C88 1.262 . S
O96 Zn53 1.981 . S
O96 C88 1.245 . S
C97 O79 1.245 . S
C97 O80 1.263 . S
O98 Zn69 1.945 . S
O98 C94 1.262 . S
O99 Zn58 1.981 . S
O99 C94 1.245 . S
C100 O81 1.276 . S
C100 O101 1.246 . S
O101 C100 1.246 . S
C102 O83 1.276 . S
C102 O103 1.246 . S
O103 C102 1.246 . S
C104 C105 1.264 . S
C104 C109 1.479 . S
C104 C114 1.465 . S
C105 C104 1.264 . S
C105 C107 1.339 . S
C105 H132 0.931 . S
C106 C107 1.395 . S
C106 C108 1.320 . S
C107 C105 1.339 . S
C107 C106 1.395 . S
C107 H133 0.929 . S
C108 C106 1.320 . S
C108 C109 1.405 . S
C108 H134 0.930 . S
C109 C104 1.479 . S
C109 C108 1.405 . S
C109 H135 0.931 . S
U110 O111 2.454 1_554 S
U110 O112 2.458 . S
U110 C113 2.984 . S
U110 C114 2.847 1_554 S
U110 C127 2.882 . S
U110 O128 2.441 1_554 S
U110 O129 2.420 1_554 S
U110 O130 2.455 . S
U110 O131 2.449 . S
O111 U110 2.454 1_556 S
O111 C113 1.353 1_556 S
O112 U110 2.458 . S
O112 C113 1.286 . S
C113 U110 2.984 . S
C113 O111 1.353 1_554 S
C113 O112 1.286 . S
C113 C115 1.363 . S
C114 C104 1.465 . S
C114 U110 2.847 1_556 S
C114 O128 1.249 . S
C114 O129 1.202 . S
C115 C113 1.363 . S
C115 C117 1.408 1_554 S
C115 C120 1.342 . S
C116 C117 1.310 . S
C116 C119 1.461 1_556 S
C116 H136 0.932 . S
C117 C115 1.408 1_556 S
C117 C116 1.310 . S
C117 H137 0.930 . S
C118 C119 1.474 . S
C118 C120 1.285 . S
C118 H138 0.929 . S
C119 C116 1.461 1_554 S
C119 C118 1.474 . S
C120 C115 1.342 . S
C120 C118 1.285 . S
C120 H139 0.930 . S
C121 C124 1.424 . S
C121 C126 1.245 . S
C121 C127 1.428 . S
C122 C125 1.260 . S
C122 C126 1.477 . S
C122 H140 0.932 . S
C123 C124 1.384 . S
C123 C125 1.479 . S
C123 H141 0.929 . S
C124 C121 1.424 . S
C124 C123 1.384 . S
C124 H142 0.928 . S
C125 C122 1.260 . S
C125 C123 1.479 . S
C126 C121 1.245 . S
C126 C122 1.477 . S
C126 H143 0.932 . S
C127 U110 2.882 . S
C127 C121 1.428 . S
C127 O130 1.301 . S
C127 O131 1.282 . S
O128 U110 2.441 1_556 S
O128 C114 1.249 . S
O129 U110 2.420 1_556 S
O129 C114 1.202 . S
O130 U110 2.455 . S
O130 C127 1.301 . S
O131 U110 2.449 . S
O131 C127 1.282 . S
H132 C105 0.931 . S
H133 C107 0.929 . S
H134 C108 0.930 . S
H135 C109 0.931 . S
H136 C116 0.932 . S
H137 C117 0.930 . S
H138 C118 0.929 . S
H139 C120 0.930 . S
H140 C122 0.932 . S
H141 C123 0.929 . S
H142 C124 0.928 . S
H143 C126 0.932 . S
C144 C145 1.264 . S
C144 C149 1.479 . S
C144 C154 1.465 . S
C145 C144 1.264 . S
C145 C147 1.339 . S
C145 H172 0.931 . S
C146 C147 1.395 . S
C146 C148 1.320 . S
C147 C145 1.339 . S
C147 C146 1.395 . S
C147 H173 0.929 . S
C148 C146 1.320 . S
C148 C149 1.405 . S
C148 H174 0.930 . S
C149 C144 1.479 . S
C149 C148 1.405 . S
C149 H175 0.931 . S
U150 O151 2.454 . S
U150 O152 2.472 . S
U150 C153 2.984 . S
U150 C154 2.847 . S
U150 C167 2.882 1_554 S
U150 O168 2.441 . S
U150 O169 2.420 . S
U150 O170 2.455 1_554 S
U150 O171 2.449 1_554 S
O151 U150 2.454 . S
O151 C153 1.353 . S
O152 U150 2.472 . S
O152 C153 1.311 . S
C153 U150 2.984 . S
C153 O151 1.353 . S
C153 O152 1.311 . S
C153 C155 1.363 . S
C154 C144 1.465 . S
C154 U150 2.847 . S
C154 O168 1.249 . S
C154 O169 1.202 . S
C155 C153 1.363 . S
C155 C157 1.408 . S
C155 C160 1.342 1_554 S
C156 C157 1.310 . S
C156 C159 1.461 . S
C156 H176 0.932 . S
C157 C155 1.408 . S
C157 C156 1.310 . S
C157 H177 0.930 . S
C158 C159 1.474 1_556 S
C158 C160 1.285 . S
C158 H178 0.929 . S
C159 C156 1.461 . S
C159 C158 1.474 1_554 S
C160 C155 1.342 1_556 S
C160 C158 1.285 . S
C160 H179 0.930 . S
C161 C164 1.424 . S
C161 C166 1.245 . S
C161 C167 1.428 . S
C162 C165 1.260 . S
C162 C166 1.477 . S
C162 H180 0.932 . S
C163 C164 1.384 . S
C163 C165 1.479 . S
C163 H181 0.929 . S
C164 C161 1.424 . S
C164 C163 1.384 . S
C164 H182 0.928 . S
C165 C162 1.260 . S
C165 C163 1.479 . S
C166 C161 1.245 . S
C166 C162 1.477 . S
C166 H183 0.932 . S
C167 U150 2.882 1_556 S
C167 C161 1.428 . S
C167 O170 1.301 . S
C167 O171 1.282 . S
O168 U150 2.441 . S
O168 C154 1.249 . S
O169 U150 2.420 . S
O169 C154 1.202 . S
O170 U150 2.455 1_556 S
O170 C167 1.301 . S
O171 U150 2.449 1_556 S
O171 C167 1.282 . S
H172 C145 0.931 . S
H173 C147 0.929 . S
H174 C148 0.930 . S
H175 C149 0.931 . S
H176 C156 0.932 . S
H177 C157 0.930 . S
H178 C158 0.929 . S
H179 C160 0.930 . S
H180 C162 0.932 . S
H181 C163 0.929 . S
H182 C164 0.928 . S
H183 C166 0.932 . S
C184 C185 1.264 . S
C184 C189 1.479 . S
C184 C194 1.465 . S
C185 C184 1.264 . S
C185 C187 1.339 . S
C185 H212 0.931 . S
C186 C187 1.395 . S
C186 C188 1.320 . S
C187 C185 1.339 . S
C187 C186 1.395 . S
C187 H213 0.929 . S
C188 C186 1.320 . S
C188 C189 1.405 . S
C188 H214 0.930 . S
C189 C184 1.479 . S
C189 C188 1.405 . S
C189 H215 0.931 . S
U190 O191 2.454 . S
U190 O192 2.472 . S
U190 C193 2.984 . S
U190 C194 2.847 . S
U190 C207 2.882 1_554 S
U190 O208 2.441 . S
U190 O209 2.420 . S
U190 O210 2.455 1_554 S
U190 O211 2.449 1_554 S
O191 U190 2.454 . S
O191 C193 1.353 . S
O192 U190 2.472 . S
O192 C193 1.311 . S
C193 U190 2.984 . S
C193 O191 1.353 . S
C193 O192 1.311 . S
C193 C195 1.363 . S
C194 C184 1.465 . S
C194 U190 2.847 . S
C194 O208 1.249 . S
C194 O209 1.202 . S
C195 C193 1.363 . S
C195 C197 1.408 . S
C195 C200 1.342 1_554 S
C196 C197 1.310 . S
C196 C199 1.461 . S
C196 H216 0.932 . S
C197 C195 1.408 . S
C197 C196 1.310 . S
C197 H217 0.930 . S
C198 C199 1.474 1_556 S
C198 C200 1.285 . S
C198 H218 0.929 . S
C199 C196 1.461 . S
C199 C198 1.474 1_554 S
C200 C195 1.342 1_556 S
C200 C198 1.285 . S
C200 H219 0.930 . S
C201 C204 1.424 . S
C201 C206 1.245 . S
C201 C207 1.428 . S
C202 C205 1.260 . S
C202 C206 1.477 . S
C202 H220 0.932 . S
C203 C204 1.384 . S
C203 C205 1.479 . S
C203 H221 0.929 . S
C204 C201 1.424 . S
C204 C203 1.384 . S
C204 H222 0.928 . S
C205 C202 1.260 . S
C205 C203 1.479 . S
C206 C201 1.245 . S
C206 C202 1.477 . S
C206 H223 0.932 . S
C207 U190 2.882 1_556 S
C207 C201 1.428 . S
C207 O210 1.301 . S
C207 O211 1.282 . S
O208 U190 2.441 . S
O208 C194 1.249 . S
O209 U190 2.420 . S
O209 C194 1.202 . S
O210 U190 2.455 1_556 S
O210 C207 1.301 . S
O211 U190 2.449 1_556 S
O211 C207 1.282 . S
H212 C185 0.931 . S
H213 C187 0.929 . S
H214 C188 0.930 . S
H215 C189 0.931 . S
H216 C196 0.932 . S
H217 C197 0.930 . S
H218 C198 0.929 . S
H219 C200 0.930 . S
H220 C202 0.932 . S
H221 C203 0.929 . S
H222 C204 0.928 . S
H223 C206 0.932 . S
C224 C225 1.264 . S
C224 C229 1.479 . S
C224 C234 1.465 . S
C225 C224 1.264 . S
C225 C227 1.339 . S
C225 H252 0.931 . S
C226 C227 1.395 . S
C226 C228 1.320 . S
C227 C225 1.339 . S
C227 C226 1.395 . S
C227 H253 0.929 . S
C228 C226 1.320 . S
C228 C229 1.405 . S
C228 H254 0.930 . S
C229 C224 1.479 . S
C229 C228 1.405 . S
C229 H255 0.931 . S
U230 O231 2.454 . S
U230 O232 2.450 1_554 S
U230 C233 2.984 . S
U230 C234 2.847 . S
U230 C247 2.882 1_554 S
U230 O248 2.441 . S
U230 O249 2.420 . S
U230 O250 2.455 1_554 S
U230 O251 2.449 1_554 S
O231 U230 2.454 . S
O231 C233 1.353 . S
O232 U230 2.450 1_556 S
O232 C233 1.272 1_556 S
C233 U230 2.984 . S
C233 O231 1.353 . S
C233 O232 1.272 1_554 S
C233 C235 1.363 . S
C234 C224 1.465 . S
C234 U230 2.847 . S
C234 O248 1.249 . S
C234 O249 1.202 . S
C235 C233 1.363 . S
C235 C237 1.408 . S
C235 C240 1.342 1_554 S
C236 C237 1.310 . S
C236 C239 1.461 . S
C236 H256 0.932 . S
C237 C235 1.408 . S
C237 C236 1.310 . S
C237 H257 0.930 . S
C238 C239 1.474 1_556 S
C238 C240 1.285 . S
C238 H258 0.929 . S
C239 C236 1.461 . S
C239 C238 1.474 1_554 S
C240 C235 1.342 1_556 S
C240 C238 1.285 . S
C240 H259 0.930 . S
C241 C244 1.424 . S
C241 C246 1.245 . S
C241 C247 1.428 . S
C242 C245 1.260 . S
C242 C246 1.477 . S
C242 H260 0.932 . S
C243 C244 1.384 . S
C243 C245 1.479 . S
C243 H261 0.929 . S
C244 C241 1.424 . S
C244 C243 1.384 . S
C244 H262 0.928 . S
C245 C242 1.260 . S
C245 C243 1.479 . S
C246 C241 1.245 . S
C246 C242 1.477 . S
C246 H263 0.932 . S
C247 U230 2.882 1_556 S
C247 C241 1.428 . S
C247 O250 1.301 . S
C247 O251 1.282 . S
O248 U230 2.441 . S
O248 C234 1.249 . S
O249 U230 2.420 . S
O249 C234 1.202 . S
O250 U230 2.455 1_556 S
O250 C247 1.301 . S
O251 U230 2.449 1_556 S
O251 C247 1.282 . S
H252 C225 0.931 . S
H253 C227 0.929 . S
H254 C228 0.930 . S
H255 C229 0.931 . S
H256 C236 0.932 . S
H257 C237 0.930 . S
H258 C238 0.929 . S
H259 C240 0.930 . S
H260 C242 0.932 . S
H261 C243 0.929 . S
H262 C244 0.928 . S
H263 C246 0.932 . S
C264 C265 1.264 . S
C264 C269 1.479 . S
C264 C274 1.465 . S
C265 C264 1.264 . S
C265 C267 1.339 . S
C265 H292 0.931 . S
C266 C267 1.395 . S
C266 C268 1.320 . S
C267 C265 1.339 . S
C267 C266 1.395 . S
C267 H293 0.929 . S
C268 C266 1.320 . S
C268 C269 1.405 . S
C268 H294 0.930 . S
C269 C264 1.479 . S
C269 C268 1.405 . S
C269 H295 0.931 . S
U270 O271 2.454 . S
U270 O272 2.458 . S
U270 C273 2.984 . S
U270 C274 2.847 . S
U270 C287 2.882 . S
U270 O288 2.441 . S
U270 O289 2.420 . S
U270 O290 2.455 . S
U270 O291 2.449 . S
O271 U270 2.454 . S
O271 C273 1.353 . S
O272 U270 2.458 . S
O272 C273 1.286 . S
C273 U270 2.984 . S
C273 O271 1.353 . S
C273 O272 1.286 . S
C273 C275 1.363 . S
C274 C264 1.465 . S
C274 U270 2.847 . S
C274 O288 1.249 . S
C274 O289 1.202 . S
C275 C273 1.363 . S
C275 C277 1.408 . S
C275 C280 1.342 . S
C276 C277 1.310 . S
C276 C279 1.461 . S
C276 H296 0.932 . S
C277 C275 1.408 . S
C277 C276 1.310 . S
C277 H297 0.930 . S
C278 C279 1.474 . S
C278 C280 1.285 . S
C278 H298 0.929 . S
C279 C276 1.461 . S
C279 C278 1.474 . S
C280 C275 1.342 . S
C280 C278 1.285 . S
C280 H299 0.930 . S
C281 C284 1.424 . S
C281 C286 1.245 . S
C281 C287 1.428 . S
C282 C285 1.260 . S
C282 C286 1.477 . S
C282 H300 0.932 . S
C283 C284 1.384 . S
C283 C285 1.479 . S
C283 H301 0.929 . S
C284 C281 1.424 . S
C284 C283 1.384 . S
C284 H302 0.928 . S
C285 C282 1.260 . S
C285 C283 1.479 . S
C286 C281 1.245 . S
C286 C282 1.477 . S
C286 H303 0.932 . S
C287 U270 2.882 . S
C287 C281 1.428 . S
C287 O290 1.301 . S
C287 O291 1.282 . S
O288 U270 2.441 . S
O288 C274 1.249 . S
O289 U270 2.420 . S
O289 C274 1.202 . S
O290 U270 2.455 . S
O290 C287 1.301 . S
O291 U270 2.449 . S
O291 C287 1.282 . S
H292 C265 0.931 . S
H293 C267 0.929 . S
H294 C268 0.930 . S
H295 C269 0.931 . S
H296 C276 0.932 . S
H297 C277 0.930 . S
H298 C278 0.929 . S
H299 C280 0.930 . S
H300 C282 0.932 . S
H301 C283 0.929 . S
H302 C284 0.928 . S
H303 C286 0.932 . S
C304 C305 1.264 . S
C304 C309 1.479 . S
C304 C314 1.465 . S
C305 C304 1.264 . S
C305 C307 1.339 . S
C305 H332 0.931 . S
C306 C307 1.395 . S
C306 C308 1.320 . S
C307 C305 1.339 . S
C307 C306 1.395 . S
C307 H333 0.929 . S
C308 C306 1.320 . S
C308 C309 1.405 . S
C308 H334 0.930 . S
C309 C304 1.479 . S
C309 C308 1.405 . S
C309 H335 0.931 . S
U310 O311 2.454 . S
U310 O312 2.458 . S
U310 C313 2.984 . S
U310 C314 2.847 . S
U310 C327 2.882 . S
U310 O328 2.441 . S
U310 O329 2.420 . S
U310 O330 2.455 . S
U310 O331 2.449 . S
O311 U310 2.454 . S
O311 C313 1.353 . S
O312 U310 2.458 . S
O312 C313 1.286 . S
C313 U310 2.984 . S
C313 O311 1.353 . S
C313 O312 1.286 . S
C313 C315 1.363 . S
C314 C304 1.465 . S
C314 U310 2.847 . S
C314 O328 1.249 . S
C314 O329 1.202 . S
C315 C313 1.363 . S
C315 C317 1.408 . S
C315 C320 1.342 . S
C316 C317 1.310 . S
C316 C319 1.461 . S
C316 H336 0.932 . S
C317 C315 1.408 . S
C317 C316 1.310 . S
C317 H337 0.930 . S
C318 C319 1.474 . S
C318 C320 1.285 . S
C318 H338 0.929 . S
C319 C316 1.461 . S
C319 C318 1.474 . S
C320 C315 1.342 . S
C320 C318 1.285 . S
C320 H339 0.930 . S
C321 C324 1.424 . S
C321 C326 1.245 . S
C321 C327 1.428 . S
C322 C325 1.260 . S
C322 C326 1.477 . S
C322 H340 0.932 . S
C323 C324 1.384 . S
C323 C325 1.479 . S
C323 H341 0.929 . S
C324 C321 1.424 . S
C324 C323 1.384 . S
C324 H342 0.928 . S
C325 C322 1.260 . S
C325 C323 1.479 . S
C326 C321 1.245 . S
C326 C322 1.477 . S
C326 H343 0.932 . S
C327 U310 2.882 . S
C327 C321 1.428 . S
C327 O330 1.301 . S
C327 O331 1.282 . S
O328 U310 2.441 . S
O328 C314 1.249 . S
O329 U310 2.420 . S
O329 C314 1.202 . S
O330 U310 2.455 . S
O330 C327 1.301 . S
O331 U310 2.449 . S
O331 C327 1.282 . S
H332 C305 0.931 . S
H333 C307 0.929 . S
H334 C308 0.930 . S
H335 C309 0.931 . S
H336 C316 0.932 . S
H337 C317 0.930 . S
H338 C318 0.929 . S
H339 C320 0.930 . S
H340 C322 0.932 . S
H341 C323 0.929 . S
H342 C324 0.928 . S
H343 C326 0.932 . S
C344 C345 1.264 . S
C344 C349 1.479 . S
C344 C354 1.465 . S
C345 C344 1.264 . S
C345 C347 1.339 . S
C345 H372 0.931 . S
C346 C347 1.395 . S
C346 C348 1.320 . S
C347 C345 1.339 . S
C347 C346 1.395 . S
C347 H373 0.929 . S
C348 C346 1.320 . S
C348 C349 1.405 . S
C348 H374 0.930 . S
C349 C344 1.479 . S
C349 C348 1.405 . S
C349 H375 0.931 . S
U350 O351 2.454 . S
U350 O352 2.458 . S
U350 C353 2.984 . S
U350 C354 2.847 . S
U350 C367 2.882 . S
U350 O368 2.441 . S
U350 O369 2.420 . S
U350 O370 2.455 . S
U350 O371 2.449 . S
O351 U350 2.454 . S
O351 C353 1.353 . S
O352 U350 2.458 . S
O352 C353 1.286 . S
C353 U350 2.984 . S
C353 O351 1.353 . S
C353 O352 1.286 . S
C353 C355 1.363 . S
C354 C344 1.465 . S
C354 U350 2.847 . S
C354 O368 1.249 . S
C354 O369 1.202 . S
C355 C353 1.363 . S
C355 C357 1.408 . S
C355 C360 1.342 . S
C356 C357 1.310 . S
C356 C359 1.461 . S
C356 H376 0.932 . S
C357 C355 1.408 . S
C357 C356 1.310 . S
C357 H377 0.930 . S
C358 C359 1.474 . S
C358 C360 1.285 . S
C358 H378 0.929 . S
C359 C356 1.461 . S
C359 C358 1.474 . S
C360 C355 1.342 . S
C360 C358 1.285 . S
C360 H379 0.930 . S
C361 C364 1.424 . S
C361 C366 1.245 . S
C361 C367 1.428 . S
C362 C365 1.260 . S
C362 C366 1.477 . S
C362 H380 0.932 . S
C363 C364 1.384 . S
C363 C365 1.479 . S
C363 H381 0.929 . S
C364 C361 1.424 . S
C364 C363 1.384 . S
C364 H382 0.928 . S
C365 C362 1.260 . S
C365 C363 1.479 . S
C366 C361 1.245 . S
C366 C362 1.477 . S
C366 H383 0.932 . S
C367 U350 2.882 . S
C367 C361 1.428 . S
C367 O370 1.301 . S
C367 O371 1.282 . S
O368 U350 2.441 . S
O368 C354 1.249 . S
O369 U350 2.420 . S
O369 C354 1.202 . S
O370 U350 2.455 . S
O370 C367 1.301 . S
O371 U350 2.449 . S
O371 C367 1.282 . S
H372 C345 0.931 . S
H373 C347 0.929 . S
H374 C348 0.930 . S
H375 C349 0.931 . S
H376 C356 0.932 . S
H377 C357 0.930 . S
H378 C358 0.929 . S
H379 C360 0.930 . S
H380 C362 0.932 . S
H381 C363 0.929 . S
H382 C364 0.928 . S
H383 C366 0.932 . S
C384 C385 1.264 . S
C384 C389 1.479 . S
C384 C394 1.465 . S
C385 C384 1.264 . S
C385 C387 1.339 . S
C385 H412 0.931 . S
C386 C387 1.395 . S
C386 C388 1.320 . S
C387 C385 1.339 . S
C387 C386 1.395 . S
C387 H413 0.929 . S
C388 C386 1.320 . S
C388 C389 1.405 . S
C388 H414 0.930 . S
C389 C384 1.479 . S
C389 C388 1.405 . S
C389 H415 0.931 . S
U390 O391 2.454 . S
U390 O392 2.458 . S
U390 C393 2.984 . S
U390 C394 2.847 . S
U390 C407 2.882 . S
U390 O408 2.441 . S
U390 O409 2.420 . S
U390 O410 2.455 . S
U390 O411 2.449 . S
O391 U390 2.454 . S
O391 C393 1.353 . S
O392 U390 2.458 . S
O392 C393 1.286 . S
C393 U390 2.984 . S
C393 O391 1.353 . S
C393 O392 1.286 . S
C393 C395 1.363 . S
C394 C384 1.465 . S
C394 U390 2.847 . S
C394 O408 1.249 . S
C394 O409 1.202 . S
C395 C393 1.363 . S
C395 C397 1.408 . S
C395 C400 1.342 . S
C396 C397 1.310 . S
C396 C399 1.461 . S
C396 H416 0.932 . S
C397 C395 1.408 . S
C397 C396 1.310 . S
C397 H417 0.930 . S
C398 C399 1.474 . S
C398 C400 1.285 . S
C398 H418 0.929 . S
C399 C396 1.461 . S
C399 C398 1.474 . S
C400 C395 1.342 . S
C400 C398 1.285 . S
C400 H419 0.930 . S
C401 C404 1.424 . S
C401 C406 1.245 . S
C401 C407 1.428 . S
C402 C405 1.260 . S
C402 C406 1.477 . S
C402 H420 0.932 . S
C403 C404 1.384 . S
C403 C405 1.479 . S
C403 H421 0.929 . S
C404 C401 1.424 . S
C404 C403 1.384 . S
C404 H422 0.928 . S
C405 C402 1.260 . S
C405 C403 1.479 . S
C406 C401 1.245 . S
C406 C402 1.477 . S
C406 H423 0.932 . S
C407 U390 2.882 . S
C407 C401 1.428 . S
C407 O410 1.301 . S
C407 O411 1.282 . S
O408 U390 2.441 . S
O408 C394 1.249 . S
O409 U390 2.420 . S
O409 C394 1.202 . S
O410 U390 2.455 . S
O410 C407 1.301 . S
O411 U390 2.449 . S
O411 C407 1.282 . S
H412 C385 0.931 . S
H413 C387 0.929 . S
H414 C388 0.930 . S
H415 C389 0.931 . S
H416 C396 0.932 . S
H417 C397 0.930 . S
H418 C398 0.929 . S
H419 C400 0.930 . S
H420 C402 0.932 . S
H421 C403 0.929 . S
H422 C404 0.928 . S
H423 C406 0.932 . S
H424 C442 0.951 . S
H425 C444 0.951 . S
H426 C446 0.950 . S
H427 C447 0.950 . S
H428 C449 0.950 . S
H429 C452 0.950 . S
H430 C453 0.950 . S
H431 C455 0.950 . S
H432 C456 0.950 . S
H433 C457 0.951 . S
H434 C459 0.951 . S
H435 C461 0.950 . S
H436 C462 0.950 . S
H437 C464 0.950 . S
H438 C467 0.950 . S
H439 C468 0.950 . S
H440 C470 0.950 . S
H441 C471 0.950 1_554 S
C442 H424 0.951 . S
C442 C443 1.366 . S
C442 C444 1.388 . S
C443 C442 1.366 . S
C443 C447 1.385 . S
C444 H425 0.951 . S
C444 C442 1.388 . S
C444 C445 1.366 . S
C445 C444 1.366 . S
C445 C446 1.414 . S
C445 C448 1.499 . S
C446 H426 0.950 . S
C446 C445 1.414 . S
C446 C447 1.374 . S
C447 H427 0.950 . S
C447 C443 1.385 . S
C447 C446 1.374 . S
C448 C445 1.499 . S
C448 C449 1.373 . S
C448 C450 1.389 . S
C449 H428 0.950 . S
C449 C448 1.373 . S
C449 C465 1.377 . S
C450 C448 1.389 . S
C450 C451 1.524 . S
C450 C464 1.377 . S
C451 C450 1.524 . S
C451 C452 1.397 . S
C451 C456 1.363 . S
C452 H429 0.950 . S
C452 C451 1.397 . S
C452 C453 1.334 . S
C453 H430 0.950 . S
C453 C452 1.334 . S
C453 C454 1.287 . S
C454 C453 1.287 . S
C454 C455 1.524 . S
C454 H473 0.913 . S
C455 H431 0.950 . S
C455 C454 1.524 . S
C455 C456 1.415 . S
C456 H432 0.950 . S
C456 C451 1.363 . S
C456 C455 1.415 . S
C457 H433 0.951 . S
C457 C458 1.366 . S
C457 C459 1.388 . S
C458 C457 1.366 . S
C458 C462 1.385 . S
C459 H434 0.951 . S
C459 C457 1.388 . S
C459 C460 1.366 . S
C460 C459 1.366 . S
C460 C461 1.414 . S
C460 C463 1.499 . S
C461 H435 0.950 . S
C461 C460 1.414 . S
C461 C462 1.374 . S
C462 H436 0.950 . S
C462 C458 1.385 . S
C462 C461 1.374 . S
C463 C460 1.499 . S
C463 C464 1.373 . S
C463 C465 1.389 . S
C464 H437 0.950 . S
C464 C450 1.377 . S
C464 C463 1.373 . S
C465 C449 1.377 . S
C465 C463 1.389 . S
C465 C466 1.524 1_554 S
C466 C465 1.524 1_556 S
C466 C467 1.397 . S
C466 C471 1.363 . S
C467 H438 0.950 . S
C467 C466 1.397 . S
C467 C468 1.334 . S
C468 H439 0.950 . S
C468 C467 1.334 . S
C468 C469 1.287 . S
C469 C468 1.287 . S
C469 C470 1.524 . S
C469 H472 0.999 . S
C470 H440 0.950 . S
C470 C469 1.524 . S
C470 C471 1.415 . S
C471 H441 0.950 1_556 S
C471 C466 1.363 . S
C471 C470 1.415 . S
H472 C469 0.999 . S
H473 C454 0.913 . S
H474 C492 0.951 . S
H475 C494 0.951 . S
H476 C496 0.950 . S
H477 C497 0.950 . S
H478 C499 0.950 . S
H479 C502 0.950 . S
H480 C503 0.950 . S
H481 C505 0.950 . S
H482 C506 0.947 1_554 S
H483 C507 0.951 . S
H484 C509 0.951 . S
H485 C511 0.950 . S
H486 C512 0.950 . S
H487 C514 0.950 1_556 S
H488 C517 0.950 . S
H489 C518 0.950 . S
H490 C520 0.950 . S
H491 C521 0.950 . S
C492 H474 0.951 . S
C492 C493 1.366 . S
C492 C494 1.388 . S
C493 C492 1.366 . S
C493 C497 1.385 . S
C494 H475 0.951 . S
C494 C492 1.388 . S
C494 C495 1.366 . S
C495 C494 1.366 . S
C495 C496 1.414 . S
C495 C498 1.499 . S
C496 H476 0.950 . S
C496 C495 1.414 . S
C496 C497 1.374 . S
C497 H477 0.950 . S
C497 C493 1.385 . S
C497 C496 1.374 . S
C498 C495 1.499 . S
C498 C499 1.373 . S
C498 C500 1.389 . S
C499 H478 0.950 . S
C499 C498 1.373 . S
C499 C515 1.377 . S
C500 C498 1.389 . S
C500 C501 1.524 1_554 S
C500 C514 1.377 . S
C501 C500 1.524 1_556 S
C501 C502 1.397 . S
C501 C506 1.363 . S
C502 H479 0.950 . S
C502 C501 1.397 . S
C502 C503 1.334 . S
C503 H480 0.950 . S
C503 C502 1.334 . S
C503 C504 1.287 . S
C504 C503 1.287 . S
C504 C505 1.524 . S
C504 H523 0.913 . S
C505 H481 0.950 . S
C505 C504 1.524 . S
C505 C506 1.415 . S
C506 H482 0.947 1_556 S
C506 C501 1.363 . S
C506 C505 1.415 . S
C507 H483 0.951 . S
C507 C508 1.366 . S
C507 C509 1.388 . S
C508 C507 1.366 . S
C508 C512 1.385 . S
C509 H484 0.951 . S
C509 C507 1.388 . S
C509 C510 1.366 . S
C510 C509 1.366 . S
C510 C511 1.414 . S
C510 C513 1.499 . S
C511 H485 0.950 . S
C511 C510 1.414 . S
C511 C512 1.374 . S
C512 H486 0.950 . S
C512 C508 1.385 . S
C512 C511 1.374 . S
C513 C510 1.499 . S
C513 C514 1.373 . S
C513 C515 1.389 . S
C514 H487 0.950 1_554 S
C514 C500 1.377 . S
C514 C513 1.373 . S
C515 C499 1.377 . S
C515 C513 1.389 . S
C515 C516 1.524 . S
C516 C515 1.524 . S
C516 C517 1.397 . S
C516 C521 1.363 . S
C517 H488 0.950 . S
C517 C516 1.397 . S
C517 C518 1.334 . S
C518 H489 0.950 . S
C518 C517 1.334 . S
C518 C519 1.287 . S
C519 C518 1.287 . S
C519 C520 1.524 . S
C519 H522 0.999 . S
C520 H490 0.950 . S
C520 C519 1.524 . S
C520 C521 1.415 . S
C521 H491 0.950 . S
C521 C516 1.363 . S
C521 C520 1.415 . S
H522 C519 0.999 . S
H523 C504 0.913 . S
H524 C542 0.951 . S
H525 C544 0.951 . S
H526 C546 0.950 . S
H527 C547 0.950 . S
H528 C549 0.950 . S
H529 C552 0.950 . S
H530 C553 0.950 . S
H531 C555 0.950 . S
H532 C556 0.950 1_554 S
H533 C557 0.951 . S
H534 C559 0.951 . S
H535 C561 0.950 . S
H536 C562 0.950 . S
H537 C564 0.952 . S
H538 C567 0.950 . S
H539 C568 0.950 . S
H540 C570 0.950 . S
H541 C571 0.950 . S
C542 H524 0.951 . S
C542 C543 1.366 . S
C542 C544 1.388 . S
C543 C542 1.366 . S
C543 C547 1.385 . S
C544 H525 0.951 . S
C544 C542 1.388 . S
C544 C545 1.366 . S
C545 C544 1.366 . S
C545 C546 1.414 . S
C545 C548 1.499 . S
C546 H526 0.950 . S
C546 C545 1.414 . S
C546 C547 1.374 . S
C547 H527 0.950 . S
C547 C543 1.385 . S
C547 C546 1.374 . S
C548 C545 1.499 . S
C548 C549 1.373 . S
C548 C550 1.389 . S
C549 H528 0.950 . S
C549 C548 1.373 . S
C549 C565 1.377 . S
C550 C548 1.389 . S
C550 C551 1.524 1_554 S
C550 C564 1.377 . S
C551 C550 1.524 1_556 S
C551 C552 1.397 . S
C551 C556 1.363 . S
C552 H529 0.950 . S
C552 C551 1.397 . S
C552 C553 1.334 . S
C553 H530 0.950 . S
C553 C552 1.334 . S
C553 C554 1.287 . S
C554 C553 1.287 . S
C554 C555 1.524 . S
C554 H573 0.913 . S
C555 H531 0.950 . S
C555 C554 1.524 . S
C555 C556 1.415 . S
C556 H532 0.950 1_556 S
C556 C551 1.363 . S
C556 C555 1.415 . S
C557 H533 0.951 . S
C557 C558 1.366 . S
C557 C559 1.388 . S
C558 C557 1.366 . S
C558 C562 1.385 . S
C559 H534 0.951 . S
C559 C557 1.388 . S
C559 C560 1.366 . S
C560 C559 1.366 . S
C560 C561 1.414 . S
C560 C563 1.499 . S
C561 H535 0.950 . S
C561 C560 1.414 . S
C561 C562 1.374 . S
C562 H536 0.950 . S
C562 C558 1.385 . S
C562 C561 1.374 . S
C563 C560 1.499 . S
C563 C564 1.373 . S
C563 C565 1.389 . S
C564 H537 0.952 . S
C564 C550 1.377 . S
C564 C563 1.373 . S
C565 C549 1.377 . S
C565 C563 1.389 . S
C565 C566 1.524 . S
C566 C565 1.524 . S
C566 C567 1.397 . S
C566 C571 1.363 . S
C567 H538 0.950 . S
C567 C566 1.397 . S
C567 C568 1.334 . S
C568 H539 0.950 . S
C568 C567 1.334 . S
C568 C569 1.287 . S
C569 C568 1.287 . S
C569 C570 1.524 . S
C569 H572 0.999 . S
C570 H540 0.950 . S
C570 C569 1.524 . S
C570 C571 1.415 . S
C571 H541 0.950 . S
C571 C566 1.363 . S
C571 C570 1.415 . S
H572 C569 0.999 . S
H573 C554 0.913 . S
H574 C592 0.951 . S
H575 C594 0.951 . S
H576 C596 0.950 . S
H577 C597 0.950 . S
H578 C599 0.950 . S
H579 C602 0.950 . S
H580 C603 0.950 . S
H581 C605 0.950 . S
H582 C606 0.950 . S
H583 C607 0.951 . S
H584 C609 0.951 . S
H585 C611 0.950 . S
H586 C612 0.950 . S
H587 C614 0.950 1_556 S
H588 C617 0.950 . S
H589 C618 0.950 . S
H590 C620 0.950 . S
H591 C621 0.950 . S
C592 H574 0.951 . S
C592 C593 1.366 1_556 S
C592 C594 1.388 . S
C593 C592 1.366 1_554 S
C593 C597 1.385 . S
C594 H575 0.951 . S
C594 C592 1.388 . S
C594 C595 1.366 1_556 S
C595 C594 1.366 1_554 S
C595 C596 1.414 . S
C595 C598 1.499 . S
C596 H576 0.950 . S
C596 C595 1.414 . S
C596 C597 1.374 . S
C597 H577 0.950 . S
C597 C593 1.385 . S
C597 C596 1.374 . S
C598 C595 1.499 . S
C598 C599 1.373 . S
C598 C600 1.389 . S
C599 H578 0.950 . S
C599 C598 1.373 . S
C599 C615 1.377 . S
C600 C598 1.389 . S
C600 C601 1.524 1_554 S
C600 C614 1.377 . S
C601 C600 1.524 1_556 S
C601 C602 1.397 1_556 S
C601 C606 1.363 . S
C602 H579 0.950 . S
C602 C601 1.397 1_554 S
C602 C603 1.334 . S
C603 H580 0.950 . S
C603 C602 1.334 . S
C603 C604 1.287 1_554 S
C604 C603 1.287 1_556 S
C604 C605 1.524 . S
C604 H623 0.913 . S
C605 H581 0.950 . S
C605 C604 1.524 . S
C605 C606 1.415 . S
C606 H582 0.950 . S
C606 C601 1.363 . S
C606 C605 1.415 . S
C607 H583 0.951 . S
C607 C608 1.366 . S
C607 C609 1.388 . S
C608 C607 1.366 . S
C608 C612 1.385 1_554 S
C609 H584 0.951 . S
C609 C607 1.388 . S
C609 C610 1.366 . S
C610 C609 1.366 . S
C610 C611 1.414 1_554 S
C610 C613 1.499 . S
C611 H585 0.950 . S
C611 C610 1.414 1_556 S
C611 C612 1.374 . S
C612 H586 0.950 . S
C612 C608 1.385 1_556 S
C612 C611 1.374 . S
C613 C610 1.499 . S
C613 C614 1.373 . S
C613 C615 1.389 . S
C614 H587 0.950 1_554 S
C614 C600 1.377 . S
C614 C613 1.373 . S
C615 C599 1.377 . S
C615 C613 1.389 . S
C615 C616 1.524 . S
C616 C615 1.524 . S
C616 C617 1.397 . S
C616 C621 1.363 . S
C617 H588 0.950 . S
C617 C616 1.397 . S
C617 C618 1.334 . S
C618 H589 0.950 . S
C618 C617 1.334 . S
C618 C619 1.287 . S
C619 C618 1.287 . S
C619 C620 1.524 . S
C619 H622 0.999 . S
C620 H590 0.950 . S
C620 C619 1.524 . S
C620 C621 1.415 . S
C621 H591 0.950 . S
C621 C616 1.363 . S
C621 C620 1.415 . S
H622 C619 0.999 . S
H623 C604 0.913 . S
H624 C642 0.951 . S
H625 C644 0.951 . S
H626 C646 0.950 . S
H627 C647 0.950 . S
H628 C649 0.950 . S
H629 C652 0.950 . S
H630 C653 0.950 . S
H631 C655 0.950 . S
H632 C656 0.950 . S
H633 C657 0.951 . S
H634 C659 0.951 . S
H635 C661 0.950 . S
H636 C662 0.950 . S
H637 C664 0.950 . S
H638 C667 0.950 . S
H639 C668 0.950 . S
H640 C670 0.950 . S
H641 C671 0.950 . S
C642 H624 0.951 . S
C642 C643 1.366 . S
C642 C644 1.388 . S
C643 C642 1.366 . S
C643 C647 1.385 . S
C644 H625 0.951 . S
C644 C642 1.388 . S
C644 C645 1.366 . S
C645 C644 1.366 . S
C645 C646 1.414 . S
C645 C648 1.499 . S
C646 H626 0.950 . S
C646 C645 1.414 . S
C646 C647 1.374 . S
C647 H627 0.950 . S
C647 C643 1.385 . S
C647 C646 1.374 . S
C648 C645 1.499 . S
C648 C649 1.373 . S
C648 C650 1.389 . S
C649 H628 0.950 . S
C649 C648 1.373 . S
C649 C665 1.377 . S
C650 C648 1.389 . S
C650 C651 1.524 . S
C650 C664 1.377 . S
C651 C650 1.524 . S
C651 C652 1.397 . S
C651 C656 1.363 . S
C652 H629 0.950 . S
C652 C651 1.397 . S
C652 C653 1.334 . S
C653 H630 0.950 . S
C653 C652 1.334 . S
C653 C654 1.287 . S
C654 C653 1.287 . S
C654 C655 1.524 . S
C654 H673 0.913 . S
C655 H631 0.950 . S
C655 C654 1.524 . S
C655 C656 1.415 . S
C656 H632 0.950 . S
C656 C651 1.363 . S
C656 C655 1.415 . S
C657 H633 0.951 . S
C657 C658 1.366 . S
C657 C659 1.388 . S
C658 C657 1.366 . S
C658 C662 1.385 . S
C659 H634 0.951 . S
C659 C657 1.388 . S
C659 C660 1.366 . S
C660 C659 1.366 . S
C660 C661 1.414 . S
C660 C663 1.499 . S
C661 H635 0.950 . S
C661 C660 1.414 . S
C661 C662 1.374 . S
C662 H636 0.950 . S
C662 C658 1.385 . S
C662 C661 1.374 . S
C663 C660 1.499 . S
C663 C664 1.373 . S
C663 C665 1.389 . S
C664 H637 0.950 . S
C664 C650 1.377 . S
C664 C663 1.373 . S
C665 C649 1.377 . S
C665 C663 1.389 . S
C665 C666 1.524 . S
C666 C665 1.524 . S
C666 C667 1.397 . S
C666 C671 1.363 . S
C667 H638 0.950 . S
C667 C666 1.397 . S
C667 C668 1.334 . S
C668 H639 0.950 . S
C668 C667 1.334 . S
C668 C669 1.287 . S
C669 C668 1.287 . S
C669 C670 1.524 . S
C669 H672 0.999 . S
C670 H640 0.950 . S
C670 C669 1.524 . S
C670 C671 1.415 . S
C671 H641 0.950 . S
C671 C666 1.363 . S
C671 C670 1.415 . S
H672 C669 0.999 . S
H673 C654 0.913 . S
H674 C692 0.951 . S
H675 C694 0.951 . S
H676 C696 0.950 . S
H677 C697 0.950 . S
H678 C699 0.950 . S
H679 C702 0.950 . S
H680 C703 0.950 . S
H681 C705 0.950 . S
H682 C706 0.950 . S
H683 C707 0.951 . S
H684 C709 0.951 . S
H685 C711 0.950 . S
H686 C712 0.950 . S
H687 C714 0.950 . S
H688 C717 0.950 . S
H689 C718 0.950 . S
H690 C720 0.950 . S
H691 C721 0.950 . S
C692 H674 0.951 . S
C692 C693 1.366 . S
C692 C694 1.388 . S
C693 C692 1.366 . S
C693 C697 1.385 . S
C694 H675 0.951 . S
C694 C692 1.388 . S
C694 C695 1.366 . S
C695 C694 1.366 . S
C695 C696 1.414 . S
C695 C698 1.499 . S
C696 H676 0.950 . S
C696 C695 1.414 . S
C696 C697 1.374 . S
C697 H677 0.950 . S
C697 C693 1.385 . S
C697 C696 1.374 . S
C698 C695 1.499 . S
C698 C699 1.373 . S
C698 C700 1.389 . S
C699 H678 0.950 . S
C699 C698 1.373 . S
C699 C715 1.377 . S
C700 C698 1.389 . S
C700 C701 1.524 . S
C700 C714 1.377 . S
C701 C700 1.524 . S
C701 C702 1.397 . S
C701 C706 1.363 . S
C702 H679 0.950 . S
C702 C701 1.397 . S
C702 C703 1.334 . S
C703 H680 0.950 . S
C703 C702 1.334 . S
C703 C704 1.287 . S
C704 C703 1.287 . S
C704 C705 1.524 . S
C704 H723 0.913 . S
C705 H681 0.950 . S
C705 C704 1.524 . S
C705 C706 1.415 . S
C706 H682 0.950 . S
C706 C701 1.363 . S
C706 C705 1.415 . S
C707 H683 0.951 . S
C707 C708 1.366 . S
C707 C709 1.388 . S
C708 C707 1.366 . S
C708 C712 1.385 . S
C709 H684 0.951 . S
C709 C707 1.388 . S
C709 C710 1.366 . S
C710 C709 1.366 . S
C710 C711 1.414 . S
C710 C713 1.499 . S
C711 H685 0.950 . S
C711 C710 1.414 . S
C711 C712 1.374 . S
C712 H686 0.950 . S
C712 C708 1.385 . S
C712 C711 1.374 . S
C713 C710 1.499 . S
C713 C714 1.373 . S
C713 C715 1.389 . S
C714 H687 0.950 . S
C714 C700 1.377 . S
C714 C713 1.373 . S
C715 C699 1.377 . S
C715 C713 1.389 . S
C715 C716 1.524 . S
C716 C715 1.524 . S
C716 C717 1.397 . S
C716 C721 1.363 . S
C717 H688 0.950 . S
C717 C716 1.397 . S
C717 C718 1.334 . S
C718 H689 0.950 . S
C718 C717 1.334 . S
C718 C719 1.287 . S
C719 C718 1.287 . S
C719 C720 1.524 . S
C719 H722 0.999 . S
C720 H690 0.950 . S
C720 C719 1.524 . S
C720 C721 1.415 . S
C721 H691 0.950 . S
C721 C716 1.363 . S
C721 C720 1.415 . S
H722 C719 0.999 . S
H723 C704 0.913 . S
H724 C742 0.951 . S
H725 C744 0.951 . S
H726 C746 0.950 . S
H727 C747 0.950 . S
H728 C749 0.950 . S
H729 C752 0.950 . S
H730 C753 0.950 . S
H731 C755 0.950 . S
H732 C756 0.950 . S
H733 C757 0.951 . S
H734 C759 0.951 . S
H735 C761 0.950 . S
H736 C762 0.950 . S
H737 C764 0.950 . S
H738 C767 0.950 . S
H739 C768 0.950 . S
H740 C770 0.950 . S
H741 C771 0.950 . S
C742 H724 0.951 . S
C742 C743 1.366 . S
C742 C744 1.388 . S
C743 C742 1.366 . S
C743 C747 1.385 . S
C744 H725 0.951 . S
C744 C742 1.388 . S
C744 C745 1.366 . S
C745 C744 1.366 . S
C745 C746 1.414 . S
C745 C748 1.499 . S
C746 H726 0.950 . S
C746 C745 1.414 . S
C746 C747 1.374 . S
C747 H727 0.950 . S
C747 C743 1.385 . S
C747 C746 1.374 . S
C748 C745 1.499 . S
C748 C749 1.373 . S
C748 C750 1.389 . S
C749 H728 0.950 . S
C749 C748 1.373 . S
C749 C765 1.377 . S
C750 C748 1.389 . S
C750 C751 1.524 . S
C750 C764 1.377 . S
C751 C750 1.524 . S
C751 C752 1.397 . S
C751 C756 1.363 . S
C752 H729 0.950 . S
C752 C751 1.397 . S
C752 C753 1.334 . S
C753 H730 0.950 . S
C753 C752 1.334 . S
C753 C754 1.287 . S
C754 C753 1.287 . S
C754 C755 1.524 . S
C754 H773 0.913 . S
C755 H731 0.950 . S
C755 C754 1.524 . S
C755 C756 1.415 . S
C756 H732 0.950 . S
C756 C751 1.363 . S
C756 C755 1.415 . S
C757 H733 0.951 . S
C757 C758 1.366 . S
C757 C759 1.388 . S
C758 C757 1.366 . S
C758 C762 1.385 . S
C759 H734 0.951 . S
C759 C757 1.388 . S
C759 C760 1.366 . S
C760 C759 1.366 . S
C760 C761 1.414 . S
C760 C763 1.499 . S
C761 H735 0.950 . S
C761 C760 1.414 . S
C761 C762 1.374 . S
C762 H736 0.950 . S
C762 C758 1.385 . S
C762 C761 1.374 . S
C763 C760 1.499 . S
C763 C764 1.373 . S
C763 C765 1.389 . S
C764 H737 0.950 . S
C764 C750 1.377 . S
C764 C763 1.373 . S
C765 C749 1.377 . S
C765 C763 1.389 . S
C765 C766 1.524 . S
C766 C765 1.524 . S
C766 C767 1.397 . S
C766 C771 1.363 . S
C767 H738 0.950 . S
C767 C766 1.397 . S
C767 C768 1.334 . S
C768 H739 0.950 . S
C768 C767 1.334 . S
C768 C769 1.287 . S
C769 C768 1.287 . S
C769 C770 1.524 . S
C769 H772 0.999 . S
C770 H740 0.950 . S
C770 C769 1.524 . S
C770 C771 1.415 . S
C771 H741 0.950 . S
C771 C766 1.363 . S
C771 C770 1.415 . S
H772 C769 0.999 . S
H773 C754 0.913 . S
H774 C792 0.951 . S
H775 C794 0.951 . S
H776 C796 0.950 . S
H777 C797 0.950 . S
H778 C799 0.950 . S
H779 C802 0.950 . S
H780 C803 0.950 . S
H781 C805 0.950 . S
H782 C806 0.950 . S
H783 C807 0.951 . S
H784 C809 0.951 . S
H785 C811 0.950 . S
H786 C812 0.950 . S
H787 C814 0.950 . S
H788 C817 0.950 . S
H789 C818 0.950 . S
H790 C820 0.950 . S
H791 C821 0.950 . S
C792 H774 0.951 . S
C792 C793 1.366 . S
C792 C794 1.388 . S
C793 C792 1.366 . S
C793 C797 1.385 . S
C794 H775 0.951 . S
C794 C792 1.388 . S
C794 C795 1.366 . S
C795 C794 1.366 . S
C795 C796 1.414 . S
C795 C798 1.499 . S
C796 H776 0.950 . S
C796 C795 1.414 . S
C796 C797 1.374 . S
C797 H777 0.950 . S
C797 C793 1.385 . S
C797 C796 1.374 . S
C798 C795 1.499 . S
C798 C799 1.373 . S
C798 C800 1.389 . S
C799 H778 0.950 . S
C799 C798 1.373 . S
C799 C815 1.377 . S
C800 C798 1.389 . S
C800 C801 1.524 . S
C800 C814 1.377 . S
C801 C800 1.524 . S
C801 C802 1.397 . S
C801 C806 1.363 . S
C802 H779 0.950 . S
C802 C801 1.397 . S
C802 C803 1.334 . S
C803 H780 0.950 . S
C803 C802 1.334 . S
C803 C804 1.287 . S
C804 C803 1.287 . S
C804 C805 1.524 . S
C804 H823 0.913 . S
C805 H781 0.950 . S
C805 C804 1.524 . S
C805 C806 1.415 . S
C806 H782 0.950 . S
C806 C801 1.363 . S
C806 C805 1.415 . S
C807 H783 0.951 . S
C807 C808 1.366 . S
C807 C809 1.388 . S
C808 C807 1.366 . S
C808 C812 1.385 . S
C809 H784 0.951 . S
C809 C807 1.388 . S
C809 C810 1.366 . S
C810 C809 1.366 . S
C810 C811 1.414 . S
C810 C813 1.499 . S
C811 H785 0.950 . S
C811 C810 1.414 . S
C811 C812 1.374 . S
C812 H786 0.950 . S
C812 C808 1.385 . S
C812 C811 1.374 . S
C813 C810 1.499 . S
C813 C814 1.373 . S
C813 C815 1.389 . S
C814 H787 0.950 . S
C814 C800 1.377 . S
C814 C813 1.373 . S
C815 C799 1.377 . S
C815 C813 1.389 . S
C815 C816 1.524 . S
C816 C815 1.524 . S
C816 C817 1.397 . S
C816 C821 1.363 . S
C817 H788 0.950 . S
C817 C816 1.397 . S
C817 C818 1.334 . S
C818 H789 0.950 . S
C818 C817 1.334 . S
C818 C819 1.287 . S
C819 C818 1.287 . S
C819 C820 1.524 . S
C819 H822 0.999 . S
C820 H790 0.950 . S
C820 C819 1.524 . S
C820 C821 1.415 . S
C821 H791 0.950 . S
C821 C816 1.363 . S
C821 C820 1.415 . S
H822 C819 0.999 . S
H823 C804 0.913 . S
H824 C842 0.951 . S
H825 C844 0.951 . S
H826 C846 0.950 . S
H827 C847 0.950 . S
H828 C849 0.950 . S
H829 C852 0.950 . S
H830 C853 0.950 . S
H831 C855 0.950 . S
H832 C856 0.950 . S
H833 C857 0.951 . S
H834 C859 0.951 . S
H835 C861 0.950 . S
H836 C862 0.950 . S
H837 C864 0.950 . S
H838 C867 0.950 . S
H839 C868 0.950 . S
H840 C870 0.950 . S
H841 C871 0.950 . S
C842 H824 0.951 . S
C842 C843 1.366 . S
C842 C844 1.388 . S
C843 C842 1.366 . S
C843 C847 1.385 . S
C844 H825 0.951 . S
C844 C842 1.388 . S
C844 C845 1.366 . S
C845 C844 1.366 . S
C845 C846 1.414 . S
C845 C848 1.499 . S
C846 H826 0.950 . S
C846 C845 1.414 . S
C846 C847 1.374 . S
C847 H827 0.950 . S
C847 C843 1.385 . S
C847 C846 1.374 . S
C848 C845 1.499 . S
C848 C849 1.373 . S
C848 C850 1.389 . S
C849 H828 0.950 . S
C849 C848 1.373 . S
C849 C865 1.377 . S
C850 C848 1.389 . S
C850 C851 1.524 1_455 S
C850 C864 1.377 . S
C851 C850 1.524 1_655 S
C851 C852 1.397 . S
C851 C856 1.363 . S
C852 H829 0.950 . S
C852 C851 1.397 . S
C852 C853 1.334 . S
C853 H830 0.950 . S
C853 C852 1.334 . S
C853 C854 1.287 . S
C854 C853 1.287 . S
C854 C855 1.524 . S
C854 H873 0.913 . S
C855 H831 0.950 . S
C855 C854 1.524 . S
C855 C856 1.415 . S
C856 H832 0.950 . S
C856 C851 1.363 . S
C856 C855 1.415 . S
C857 H833 0.951 . S
C857 C858 1.366 . S
C857 C859 1.388 . S
C858 C857 1.366 . S
C858 C862 1.385 . S
C859 H834 0.951 . S
C859 C857 1.388 . S
C859 C860 1.366 . S
C860 C859 1.366 . S
C860 C861 1.414 . S
C860 C863 1.499 . S
C861 H835 0.950 . S
C861 C860 1.414 . S
C861 C862 1.374 . S
C862 H836 0.950 . S
C862 C858 1.385 . S
C862 C861 1.374 . S
C863 C860 1.499 . S
C863 C864 1.373 . S
C863 C865 1.389 . S
C864 H837 0.950 . S
C864 C850 1.377 . S
C864 C863 1.373 . S
C865 C849 1.377 . S
C865 C863 1.389 . S
C865 C866 1.524 . S
C866 C865 1.524 . S
C866 C867 1.397 . S
C866 C871 1.363 . S
C867 H838 0.950 . S
C867 C866 1.397 . S
C867 C868 1.334 . S
C868 H839 0.950 . S
C868 C867 1.334 . S
C868 C869 1.287 . S
C869 C868 1.287 . S
C869 C870 1.524 . S
C869 H872 0.999 . S
C870 H840 0.950 . S
C870 C869 1.524 . S
C870 C871 1.415 . S
C871 H841 0.950 . S
C871 C866 1.363 . S
C871 C870 1.415 . S
H872 C869 0.999 . S
H873 C854 0.913 . S
H874 C892 0.951 . S
H875 C894 0.951 . S
H876 C896 0.943 1_565 S
H877 C897 0.950 1_565 S
H878 C899 0.950 . S
H879 C902 0.950 . S
H880 C903 0.950 . S
H881 C905 0.950 . S
H882 C906 0.950 . S
H883 C907 0.951 . S
H884 C909 0.951 . S
H885 C911 0.950 . S
H886 C912 0.950 . S
H887 C914 0.950 . S
H888 C917 0.950 . S
H889 C918 0.950 . S
H890 C920 0.950 . S
H891 C921 0.950 1_565 S
C892 H874 0.951 . S
C892 C893 1.366 . S
C892 C894 1.388 . S
C893 C892 1.366 . S
C893 C897 1.385 . S
C894 H875 0.951 . S
C894 C892 1.388 . S
C894 C895 1.366 . S
C895 C894 1.366 . S
C895 C896 1.414 . S
C895 C898 1.499 . S
C896 H876 0.943 1_545 S
C896 C895 1.414 . S
C896 C897 1.374 . S
C897 H877 0.950 1_545 S
C897 C893 1.385 . S
C897 C896 1.374 . S
C898 C895 1.499 . S
C898 C899 1.373 . S
C898 C900 1.389 . S
C899 H878 0.950 . S
C899 C898 1.373 . S
C899 C915 1.377 . S
C900 C898 1.389 . S
C900 C901 1.524 . S
C900 C914 1.377 . S
C901 C900 1.524 . S
C901 C902 1.397 . S
C901 C906 1.363 . S
C902 H879 0.950 . S
C902 C901 1.397 . S
C902 C903 1.334 . S
C903 H880 0.950 . S
C903 C902 1.334 . S
C903 C904 1.287 . S
C904 C903 1.287 . S
C904 C905 1.524 . S
C904 H923 0.913 . S
C905 H881 0.950 . S
C905 C904 1.524 . S
C905 C906 1.415 . S
C906 H882 0.950 . S
C906 C901 1.363 . S
C906 C905 1.415 . S
C907 H883 0.951 . S
C907 C908 1.366 . S
C907 C909 1.388 . S
C908 C907 1.366 . S
C908 C912 1.385 . S
C909 H884 0.951 . S
C909 C907 1.388 . S
C909 C910 1.366 . S
C910 C909 1.366 . S
C910 C911 1.414 . S
C910 C913 1.499 . S
C911 H885 0.950 . S
C911 C910 1.414 . S
C911 C912 1.374 . S
C912 H886 0.950 . S
C912 C908 1.385 . S
C912 C911 1.374 . S
C913 C910 1.499 . S
C913 C914 1.373 . S
C913 C915 1.389 . S
C914 H887 0.950 . S
C914 C900 1.377 . S
C914 C913 1.373 . S
C915 C899 1.377 . S
C915 C913 1.389 . S
C915 C916 1.524 . S
C916 C915 1.524 . S
C916 C917 1.397 . S
C916 C921 1.363 . S
C917 H888 0.950 . S
C917 C916 1.397 . S
C917 C918 1.334 . S
C918 H889 0.950 . S
C918 C917 1.334 . S
C918 C919 1.287 . S
C919 C918 1.287 . S
C919 C920 1.524 1_545 S
C919 H922 0.999 . S
C920 H890 0.950 . S
C920 C919 1.524 1_565 S
C920 C921 1.415 1_565 S
C921 H891 0.950 1_545 S
C921 C916 1.363 . S
C921 C920 1.415 1_545 S
H922 C919 0.999 . S
H923 C904 0.913 . S
H924 C942 0.951 . S
H925 C944 0.951 . S
H926 C946 0.950 . S
H927 C947 0.950 . S
H928 C949 0.950 . S
H929 C952 0.948 . S
H930 C953 0.950 . S
H931 C955 0.950 . S
H932 C956 0.950 . S
H933 C957 0.951 . S
H934 C959 0.951 . S
H935 C961 0.950 . S
H936 C962 0.950 . S
H937 C964 0.950 . S
H938 C967 0.950 . S
H939 C968 0.950 . S
H940 C970 0.950 . S
H941 C971 0.950 . S
C942 H924 0.951 . S
C942 C943 1.366 . S
C942 C944 1.388 . S
C943 C942 1.366 . S
C943 C947 1.385 . S
C944 H925 0.951 . S
C944 C942 1.388 . S
C944 C945 1.366 . S
C945 C944 1.366 . S
C945 C946 1.414 . S
C945 C948 1.499 . S
C946 H926 0.950 . S
C946 C945 1.414 . S
C946 C947 1.374 . S
C947 H927 0.950 . S
C947 C943 1.385 . S
C947 C946 1.374 . S
C948 C945 1.499 . S
C948 C949 1.373 . S
C948 C950 1.389 . S
C949 H928 0.950 . S
C949 C948 1.373 . S
C949 C965 1.377 . S
C950 C948 1.389 . S
C950 C951 1.524 1_655 S
C950 C964 1.377 . S
C951 C950 1.524 1_455 S
C951 C952 1.397 . S
C951 C956 1.363 . S
C952 H929 0.948 . S
C952 C951 1.397 . S
C952 C953 1.334 . S
C953 H930 0.950 . S
C953 C952 1.334 . S
C953 C954 1.287 . S
C954 C953 1.287 . S
C954 C955 1.524 . S
C954 H973 0.913 . S
C955 H931 0.950 . S
C955 C954 1.524 . S
C955 C956 1.415 . S
C956 H932 0.950 . S
C956 C951 1.363 . S
C956 C955 1.415 . S
C957 H933 0.951 . S
C957 C958 1.366 . S
C957 C959 1.388 . S
C958 C957 1.366 . S
C958 C962 1.385 . S
C959 H934 0.951 . S
C959 C957 1.388 . S
C959 C960 1.366 . S
C960 C959 1.366 . S
C960 C961 1.414 . S
C960 C963 1.499 . S
C961 H935 0.950 . S
C961 C960 1.414 . S
C961 C962 1.374 . S
C962 H936 0.950 . S
C962 C958 1.385 . S
C962 C961 1.374 . S
C963 C960 1.499 . S
C963 C964 1.373 . S
C963 C965 1.389 . S
C964 H937 0.950 . S
C964 C950 1.377 . S
C964 C963 1.373 . S
C965 C949 1.377 . S
C965 C963 1.389 . S
C965 C966 1.524 . S
C966 C965 1.524 . S
C966 C967 1.397 . S
C966 C971 1.363 . S
C967 H938 0.950 . S
C967 C966 1.397 . S
C967 C968 1.334 . S
C968 H939 0.950 . S
C968 C967 1.334 . S
C968 C969 1.287 . S
C969 C968 1.287 . S
C969 C970 1.524 . S
C969 H972 0.999 . S
C970 H940 0.950 . S
C970 C969 1.524 . S
C970 C971 1.415 . S
C971 H941 0.950 . S
C971 C966 1.363 . S
C971 C970 1.415 . S
H972 C969 0.999 . S
H973 C954 0.913 . S
H974 C992 0.951 . S
H975 C994 0.951 . S
H976 C996 0.950 . S
H977 C997 0.950 . S
H978 C999 0.950 . S
H979 C1002 0.950 . S
H980 C1003 0.950 . S
H981 C1005 0.950 . S
H982 C1006 0.950 . S
H983 C1007 0.951 . S
H984 C1009 0.951 . S
H985 C1011 0.950 . S
H986 C1012 0.950 . S
H987 C1014 0.950 . S
H988 C1017 0.950 1_565 S
H989 C1018 0.950 . S
H990 C1020 0.950 . S
H991 C1021 0.950 . S
C992 H974 0.951 . S
C992 C993 1.366 . S
C992 C994 1.388 . S
C993 C992 1.366 . S
C993 C997 1.385 . S
C994 H975 0.951 . S
C994 C992 1.388 . S
C994 C995 1.366 . S
C995 C994 1.366 . S
C995 C996 1.414 . S
C995 C998 1.499 . S
C996 H976 0.950 . S
C996 C995 1.414 . S
C996 C997 1.374 . S
C997 H977 0.950 . S
C997 C993 1.385 . S
C997 C996 1.374 . S
C998 C995 1.499 . S
C998 C999 1.373 . S
C998 C1000 1.389 . S
C999 H978 0.950 . S
C999 C998 1.373 . S
C999 C1015 1.377 . S
C1000 C998 1.389 . S
C1000 C1001 1.524 . S
C1000 C1014 1.377 . S
C1001 C1000 1.524 . S
C1001 C1002 1.397 . S
C1001 C1006 1.363 . S
C1002 H979 0.950 . S
C1002 C1001 1.397 . S
C1002 C1003 1.334 . S
C1003 H980 0.950 . S
C1003 C1002 1.334 . S
C1003 C1004 1.287 . S
C1004 C1003 1.287 . S
C1004 C1005 1.524 . S
C1004 H1023 0.913 . S
C1005 H981 0.950 . S
C1005 C1004 1.524 . S
C1005 C1006 1.415 . S
C1006 H982 0.950 . S
C1006 C1001 1.363 . S
C1006 C1005 1.415 . S
C1007 H983 0.951 . S
C1007 C1008 1.366 . S
C1007 C1009 1.388 . S
C1008 C1007 1.366 . S
C1008 C1012 1.385 . S
C1009 H984 0.951 . S
C1009 C1007 1.388 . S
C1009 C1010 1.366 . S
C1010 C1009 1.366 . S
C1010 C1011 1.414 . S
C1010 C1013 1.499 . S
C1011 H985 0.950 . S
C1011 C1010 1.414 . S
C1011 C1012 1.374 . S
C1012 H986 0.950 . S
C1012 C1008 1.385 . S
C1012 C1011 1.374 . S
C1013 C1010 1.499 . S
C1013 C1014 1.373 . S
C1013 C1015 1.389 . S
C1014 H987 0.950 . S
C1014 C1000 1.377 . S
C1014 C1013 1.373 . S
C1015 C999 1.377 . S
C1015 C1013 1.389 . S
C1015 C1016 1.524 . S
C1016 C1015 1.524 . S
C1016 C1017 1.397 1_565 S
C1016 C1021 1.363 . S
C1017 H988 0.950 1_545 S
C1017 C1016 1.397 1_545 S
C1017 C1018 1.334 . S
C1018 H989 0.950 . S
C1018 C1017 1.334 . S
C1018 C1019 1.287 . S
C1019 C1018 1.287 . S
C1019 C1020 1.524 . S
C1019 H1022 0.999 . S
C1020 H990 0.950 . S
C1020 C1019 1.524 . S
C1020 C1021 1.415 1_545 S
C1021 H991 0.950 . S
C1021 C1016 1.363 . S
C1021 C1020 1.415 1_565 S
H1022 C1019 0.999 . S
H1023 C1004 0.913 . S
H1024 C1042 0.951 . S
H1025 C1044 0.951 . S
H1026 C1046 0.950 . S
H1027 C1047 0.950 . S
H1028 C1049 0.950 . S
H1029 C1052 0.950 . S
H1030 C1053 0.950 . S
H1031 C1055 0.950 . S
H1032 C1056 0.950 . S
H1033 C1057 0.951 . S
H1034 C1059 0.951 . S
H1035 C1061 0.950 . S
H1036 C1062 0.950 . S
H1037 C1064 0.950 . S
H1038 C1067 0.950 1_565 S
H1039 C1068 0.950 . S
H1040 C1070 0.950 . S
H1041 C1071 0.952 . S
C1042 H1024 0.951 . S
C1042 C1043 1.366 . S
C1042 C1044 1.388 . S
C1043 C1042 1.366 . S
C1043 C1047 1.385 . S
C1044 H1025 0.951 . S
C1044 C1042 1.388 . S
C1044 C1045 1.366 . S
C1045 C1044 1.366 . S
C1045 C1046 1.414 . S
C1045 C1048 1.499 . S
C1046 H1026 0.950 . S
C1046 C1045 1.414 . S
C1046 C1047 1.374 . S
C1047 H1027 0.950 . S
C1047 C1043 1.385 . S
C1047 C1046 1.374 . S
C1048 C1045 1.499 . S
C1048 C1049 1.373 . S
C1048 C1050 1.389 . S
C1049 H1028 0.950 . S
C1049 C1048 1.373 . S
C1049 C1065 1.377 . S
C1050 C1048 1.389 . S
C1050 C1051 1.524 . S
C1050 C1064 1.377 . S
C1051 C1050 1.524 . S
C1051 C1052 1.397 . S
C1051 C1056 1.363 . S
C1052 H1029 0.950 . S
C1052 C1051 1.397 . S
C1052 C1053 1.334 . S
C1053 H1030 0.950 . S
C1053 C1052 1.334 . S
C1053 C1054 1.287 . S
C1054 C1053 1.287 . S
C1054 C1055 1.524 . S
C1054 H1073 0.913 . S
C1055 H1031 0.950 . S
C1055 C1054 1.524 . S
C1055 C1056 1.415 . S
C1056 H1032 0.950 . S
C1056 C1051 1.363 . S
C1056 C1055 1.415 . S
C1057 H1033 0.951 . S
C1057 C1058 1.366 . S
C1057 C1059 1.388 . S
C1058 C1057 1.366 . S
C1058 C1062 1.385 . S
C1059 H1034 0.951 . S
C1059 C1057 1.388 . S
C1059 C1060 1.366 . S
C1060 C1059 1.366 . S
C1060 C1061 1.414 . S
C1060 C1063 1.499 . S
C1061 H1035 0.950 . S
C1061 C1060 1.414 . S
C1061 C1062 1.374 . S
C1062 H1036 0.950 . S
C1062 C1058 1.385 . S
C1062 C1061 1.374 . S
C1063 C1060 1.499 . S
C1063 C1064 1.373 . S
C1063 C1065 1.389 . S
C1064 H1037 0.950 . S
C1064 C1050 1.377 . S
C1064 C1063 1.373 . S
C1065 C1049 1.377 . S
C1065 C1063 1.389 . S
C1065 C1066 1.524 . S
C1066 C1065 1.524 . S
C1066 C1067 1.397 1_565 S
C1066 C1071 1.364 . S
C1067 H1038 0.950 1_545 S
C1067 C1066 1.397 1_545 S
C1067 C1068 1.334 . S
C1068 H1039 0.950 . S
C1068 C1067 1.334 . S
C1068 C1069 1.287 . S
C1069 C1068 1.287 . S
C1069 C1070 1.524 . S
C1069 H1072 0.999 . S
C1070 H1040 0.950 . S
C1070 C1069 1.524 . S
C1070 C1071 1.413 1_545 S
C1071 H1041 0.952 . S
C1071 C1066 1.364 . S
C1071 C1070 1.413 1_565 S
H1072 C1069 0.999 . S
H1073 C1054 0.913 . S
H1074 C1092 0.951 . S
H1075 C1094 0.951 . S
H1076 C1096 0.950 . S
H1077 C1097 0.950 . S
H1078 C1099 0.950 . S
H1079 C1102 0.950 . S
H1080 C1103 0.950 . S
H1081 C1105 0.950 . S
H1082 C1106 0.950 . S
H1083 C1107 0.951 . S
H1084 C1109 0.951 . S
H1085 C1111 0.950 . S
H1086 C1112 0.950 . S
H1087 C1114 0.950 . S
H1088 C1117 0.950 1_455 S
H1089 C1118 0.950 . S
H1090 C1120 0.950 . S
H1091 C1121 0.950 . S
C1092 H1074 0.951 . S
C1092 C1093 1.366 . S
C1092 C1094 1.388 . S
C1093 C1092 1.366 . S
C1093 C1097 1.385 . S
C1094 H1075 0.951 . S
C1094 C1092 1.388 . S
C1094 C1095 1.366 . S
C1095 C1094 1.366 . S
C1095 C1096 1.414 . S
C1095 C1098 1.499 . S
C1096 H1076 0.950 . S
C1096 C1095 1.414 . S
C1096 C1097 1.374 . S
C1097 H1077 0.950 . S
C1097 C1093 1.385 . S
C1097 C1096 1.374 . S
C1098 C1095 1.499 . S
C1098 C1099 1.373 . S
C1098 C1100 1.389 . S
C1099 H1078 0.950 . S
C1099 C1098 1.373 . S
C1099 C1115 1.377 . S
C1100 C1098 1.389 . S
C1100 C1101 1.524 . S
C1100 C1114 1.377 . S
C1101 C1100 1.524 . S
C1101 C1102 1.397 . S
C1101 C1106 1.363 . S
C1102 H1079 0.950 . S
C1102 C1101 1.397 . S
C1102 C1103 1.334 . S
C1103 H1080 0.950 . S
C1103 C1102 1.334 . S
C1103 C1104 1.287 . S
C1104 C1103 1.287 . S
C1104 C1105 1.524 . S
C1104 H1123 0.913 . S
C1105 H1081 0.950 . S
C1105 C1104 1.524 . S
C1105 C1106 1.415 . S
C1106 H1082 0.950 . S
C1106 C1101 1.363 . S
C1106 C1105 1.415 . S
C1107 H1083 0.951 . S
C1107 C1108 1.366 . S
C1107 C1109 1.388 . S
C1108 C1107 1.366 . S
C1108 C1112 1.385 . S
C1109 H1084 0.951 . S
C1109 C1107 1.388 . S
C1109 C1110 1.366 . S
C1110 C1109 1.366 . S
C1110 C1111 1.414 . S
C1110 C1113 1.499 . S
C1111 H1085 0.950 . S
C1111 C1110 1.414 . S
C1111 C1112 1.374 . S
C1112 H1086 0.950 . S
C1112 C1108 1.385 . S
C1112 C1111 1.374 . S
C1113 C1110 1.499 . S
C1113 C1114 1.373 . S
C1113 C1115 1.389 . S
C1114 H1087 0.950 . S
C1114 C1100 1.377 . S
C1114 C1113 1.373 . S
C1115 C1099 1.377 . S
C1115 C1113 1.389 . S
C1115 C1116 1.524 . S
C1116 C1115 1.524 . S
C1116 C1117 1.397 1_455 S
C1116 C1121 1.363 . S
C1117 H1088 0.950 1_655 S
C1117 C1116 1.397 1_655 S
C1117 C1118 1.334 . S
C1118 H1089 0.950 . S
C1118 C1117 1.334 . S
C1118 C1119 1.287 . S
C1119 C1118 1.287 . S
C1119 C1120 1.524 . S
C1119 H1122 0.999 . S
C1120 H1090 0.950 . S
C1120 C1119 1.524 . S
C1120 C1121 1.415 1_655 S
C1121 H1091 0.950 . S
C1121 C1116 1.363 . S
C1121 C1120 1.415 1_455 S
H1122 C1119 0.999 . S
H1123 C1104 0.913 . S
H1124 C1142 0.972 . S
H1125 C1144 0.951 . S
H1126 C1146 0.950 . S
H1127 C1147 0.950 . S
H1128 C1149 0.950 . S
H1129 C1152 0.950 1_545 S
H1130 C1153 0.950 . S
H1131 C1155 0.950 . S
H1132 C1156 0.950 . S
H1133 C1157 0.951 . S
H1134 C1159 0.951 . S
H1135 C1161 0.950 . S
H1136 C1162 0.950 . S
H1137 C1164 0.950 . S
H1138 C1167 0.950 . S
H1139 C1168 0.950 . S
H1140 C1170 0.950 . S
H1141 C1171 0.950 . S
C1142 H1124 0.972 . S
C1142 C1143 1.366 . S
C1142 C1144 1.388 . S
C1143 C1142 1.366 . S
C1143 C1147 1.385 . S
C1144 H1125 0.951 . S
C1144 C1142 1.388 . S
C1144 C1145 1.366 . S
C1145 C1144 1.366 . S
C1145 C1146 1.414 . S
C1145 C1148 1.499 . S
C1146 H1126 0.950 . S
C1146 C1145 1.414 . S
C1146 C1147 1.374 . S
C1147 H1127 0.950 . S
C1147 C1143 1.385 . S
C1147 C1146 1.374 . S
C1148 C1145 1.499 . S
C1148 C1149 1.373 . S
C1148 C1150 1.389 . S
C1149 H1128 0.950 . S
C1149 C1148 1.373 . S
C1149 C1165 1.377 . S
C1150 C1148 1.389 . S
C1150 C1151 1.524 1_545 S
C1150 C1164 1.377 . S
C1151 C1150 1.524 1_565 S
C1151 C1152 1.397 . S
C1151 C1156 1.363 . S
C1152 H1129 0.950 1_565 S
C1152 C1151 1.397 . S
C1152 C1153 1.334 . S
C1153 H1130 0.950 . S
C1153 C1152 1.334 . S
C1153 C1154 1.287 . S
C1154 C1153 1.287 . S
C1154 C1155 1.524 . S
C1154 H1173 0.913 . S
C1155 H1131 0.950 . S
C1155 C1154 1.524 . S
C1155 C1156 1.415 . S
C1156 H1132 0.950 . S
C1156 C1151 1.363 . S
C1156 C1155 1.415 . S
C1157 H1133 0.951 . S
C1157 C1158 1.366 . S
C1157 C1159 1.388 . S
C1158 C1157 1.366 . S
C1158 C1162 1.385 . S
C1159 H1134 0.951 . S
C1159 C1157 1.388 . S
C1159 C1160 1.366 . S
C1160 C1159 1.366 . S
C1160 C1161 1.414 . S
C1160 C1163 1.499 . S
C1161 H1135 0.950 . S
C1161 C1160 1.414 . S
C1161 C1162 1.374 . S
C1162 H1136 0.950 . S
C1162 C1158 1.385 . S
C1162 C1161 1.374 . S
C1163 C1160 1.499 . S
C1163 C1164 1.373 . S
C1163 C1165 1.389 . S
C1164 H1137 0.950 . S
C1164 C1150 1.377 . S
C1164 C1163 1.373 . S
C1165 C1149 1.377 . S
C1165 C1163 1.389 . S
C1165 C1166 1.524 . S
C1166 C1165 1.524 . S
C1166 C1167 1.397 . S
C1166 C1171 1.363 . S
C1167 H1138 0.950 . S
C1167 C1166 1.397 . S
C1167 C1168 1.334 . S
C1168 H1139 0.950 . S
C1168 C1167 1.334 . S
C1168 C1169 1.287 . S
C1169 C1168 1.287 . S
C1169 C1170 1.524 . S
C1169 H1172 0.999 . S
C1170 H1140 0.950 . S
C1170 C1169 1.524 . S
C1170 C1171 1.415 . S
C1171 H1141 0.950 . S
C1171 C1166 1.363 . S
C1171 C1170 1.415 . S
H1172 C1169 0.999 . S
H1173 C1154 0.913 . S
H1174 C1192 0.951 1_455 S
H1175 C1194 0.951 . S
H1176 C1196 0.950 . S
H1177 C1197 0.950 . S
H1178 C1199 0.950 . S
H1179 C1202 0.950 . S
H1180 C1203 0.950 . S
H1181 C1205 0.950 1_455 S
H1182 C1206 0.974 . S
H1183 C1207 0.951 . S
H1184 C1209 0.951 . S
H1185 C1211 0.950 . S
H1186 C1212 0.950 . S
H1187 C1214 0.950 . S
H1188 C1217 0.950 . S
H1189 C1218 0.950 . S
H1190 C1220 0.950 . S
H1191 C1221 0.950 . S
C1192 H1174 0.951 1_655 S
C1192 C1193 1.366 . S
C1192 C1194 1.388 . S
C1193 C1192 1.366 . S
C1193 C1197 1.385 . S
C1194 H1175 0.951 . S
C1194 C1192 1.388 . S
C1194 C1195 1.366 . S
C1195 C1194 1.366 . S
C1195 C1196 1.414 . S
C1195 C1198 1.499 . S
C1196 H1176 0.950 . S
C1196 C1195 1.414 . S
C1196 C1197 1.374 . S
C1197 H1177 0.950 . S
C1197 C1193 1.385 . S
C1197 C1196 1.374 . S
C1198 C1195 1.499 . S
C1198 C1199 1.373 . S
C1198 C1200 1.389 . S
C1199 H1178 0.950 . S
C1199 C1198 1.373 . S
C1199 C1215 1.377 . S
C1200 C1198 1.389 . S
C1200 C1201 1.524 . S
C1200 C1214 1.377 . S
C1201 C1200 1.524 . S
C1201 C1202 1.397 . S
C1201 C1206 1.363 . S
C1202 H1179 0.950 . S
C1202 C1201 1.397 . S
C1202 C1203 1.334 . S
C1203 H1180 0.950 . S
C1203 C1202 1.334 . S
C1203 C1204 1.287 . S
C1204 C1203 1.287 . S
C1204 C1205 1.524 . S
C1204 H1223 0.913 . S
C1205 H1181 0.950 1_655 S
C1205 C1204 1.524 . S
C1205 C1206 1.415 . S
C1206 H1182 0.974 . S
C1206 C1201 1.363 . S
C1206 C1205 1.415 . S
C1207 H1183 0.951 . S
C1207 C1208 1.366 . S
C1207 C1209 1.388 . S
C1208 C1207 1.366 . S
C1208 C1212 1.385 . S
C1209 H1184 0.951 . S
C1209 C1207 1.388 . S
C1209 C1210 1.366 . S
C1210 C1209 1.366 . S
C1210 C1211 1.414 . S
C1210 C1213 1.499 . S
C1211 H1185 0.950 . S
C1211 C1210 1.414 . S
C1211 C1212 1.374 . S
C1212 H1186 0.950 . S
C1212 C1208 1.385 . S
C1212 C1211 1.374 . S
C1213 C1210 1.499 . S
C1213 C1214 1.373 . S
C1213 C1215 1.389 . S
C1214 H1187 0.950 . S
C1214 C1200 1.377 . S
C1214 C1213 1.373 . S
C1215 C1199 1.377 . S
C1215 C1213 1.389 . S
C1215 C1216 1.524 . S
C1216 C1215 1.524 . S
C1216 C1217 1.397 . S
C1216 C1221 1.363 . S
C1217 H1188 0.950 . S
C1217 C1216 1.397 . S
C1217 C1218 1.334 . S
C1218 H1189 0.950 . S
C1218 C1217 1.334 . S
C1218 C1219 1.287 . S
C1219 C1218 1.287 . S
C1219 C1220 1.524 . S
C1219 H1222 0.999 . S
C1220 H1190 0.950 . S
C1220 C1219 1.524 . S
C1220 C1221 1.415 . S
C1221 H1191 0.950 . S
C1221 C1216 1.363 . S
C1221 C1220 1.415 . S
H1222 C1219 0.999 . S
H1223 C1204 0.913 . S
H1224 C1242 0.951 . S
H1225 C1244 0.951 . S
H1226 C1246 0.950 . S
H1227 C1247 0.950 . S
H1228 C1249 0.950 . S
H1229 C1252 0.950 . S
H1230 C1253 0.950 . S
H1231 C1255 0.950 . S
H1232 C1256 0.950 . S
H1233 C1257 0.951 . S
H1234 C1259 0.951 . S
H1235 C1261 0.950 . S
H1236 C1262 0.950 . S
H1237 C1264 0.950 . S
H1238 C1267 0.950 . S
H1239 C1268 0.950 . S
H1240 C1270 0.950 . S
H1241 C1271 0.950 . S
C1242 H1224 0.951 . S
C1242 C1243 1.366 . S
C1242 C1244 1.388 . S
C1243 C1242 1.366 . S
C1243 C1247 1.385 . S
C1244 H1225 0.951 . S
C1244 C1242 1.388 . S
C1244 C1245 1.366 . S
C1245 C1244 1.366 . S
C1245 C1246 1.414 . S
C1245 C1248 1.499 . S
C1246 H1226 0.950 . S
C1246 C1245 1.414 . S
C1246 C1247 1.374 . S
C1247 H1227 0.950 . S
C1247 C1243 1.385 . S
C1247 C1246 1.374 . S
C1248 C1245 1.499 . S
C1248 C1249 1.373 . S
C1248 C1250 1.389 . S
C1249 H1228 0.950 . S
C1249 C1248 1.373 . S
C1249 C1265 1.377 . S
C1250 C1248 1.389 . S
C1250 C1251 1.524 . S
C1250 C1264 1.377 . S
C1251 C1250 1.524 . S
C1251 C1252 1.397 . S
C1251 C1256 1.363 . S
C1252 H1229 0.950 . S
C1252 C1251 1.397 . S
C1252 C1253 1.334 . S
C1253 H1230 0.950 . S
C1253 C1252 1.334 . S
C1253 C1254 1.287 . S
C1254 C1253 1.287 . S
C1254 C1255 1.524 . S
C1254 H1273 0.913 . S
C1255 H1231 0.950 . S
C1255 C1254 1.524 . S
C1255 C1256 1.415 . S
C1256 H1232 0.950 . S
C1256 C1251 1.363 . S
C1256 C1255 1.415 . S
C1257 H1233 0.951 . S
C1257 C1258 1.366 . S
C1257 C1259 1.388 . S
C1258 C1257 1.366 . S
C1258 C1262 1.385 . S
C1259 H1234 0.951 . S
C1259 C1257 1.388 . S
C1259 C1260 1.366 . S
C1260 C1259 1.366 . S
C1260 C1261 1.414 . S
C1260 C1263 1.499 . S
C1261 H1235 0.950 . S
C1261 C1260 1.414 . S
C1261 C1262 1.374 . S
C1262 H1236 0.950 . S
C1262 C1258 1.385 . S
C1262 C1261 1.374 . S
C1263 C1260 1.499 . S
C1263 C1264 1.373 . S
C1263 C1265 1.389 . S
C1264 H1237 0.950 . S
C1264 C1250 1.377 . S
C1264 C1263 1.373 . S
C1265 C1249 1.377 . S
C1265 C1263 1.389 . S
C1265 C1266 1.524 . S
C1266 C1265 1.524 . S
C1266 C1267 1.397 . S
C1266 C1271 1.363 . S
C1267 H1238 0.950 . S
C1267 C1266 1.397 . S
C1267 C1268 1.334 . S
C1268 H1239 0.950 . S
C1268 C1267 1.334 . S
C1268 C1269 1.287 . S
C1269 C1268 1.287 . S
C1269 C1270 1.524 . S
C1269 H1272 0.999 . S
C1270 H1240 0.950 . S
C1270 C1269 1.524 . S
C1270 C1271 1.415 . S
C1271 H1241 0.950 . S
C1271 C1266 1.363 . S
C1271 C1270 1.415 . S
H1272 C1269 0.999 . S
H1273 C1254 0.913 . S
H1274 C1292 0.951 . S
H1275 C1294 0.951 . S
H1276 C1296 0.950 . S
H1277 C1297 0.950 . S
H1278 C1299 0.950 . S
H1279 C1302 0.950 . S
H1280 C1303 0.950 . S
H1281 C1305 0.950 . S
H1282 C1306 0.950 . S
H1283 C1307 0.951 . S
H1284 C1309 0.951 . S
H1285 C1311 0.950 . S
H1286 C1312 0.950 . S
H1287 C1314 0.950 . S
H1288 C1317 0.950 . S
H1289 C1318 0.950 . S
H1290 C1320 0.950 . S
H1291 C1321 0.950 . S
C1292 H1274 0.951 . S
C1292 C1293 1.366 . S
C1292 C1294 1.388 . S
C1293 C1292 1.366 . S
C1293 C1297 1.385 . S
C1294 H1275 0.951 . S
C1294 C1292 1.388 . S
C1294 C1295 1.366 . S
C1295 C1294 1.366 . S
C1295 C1296 1.414 . S
C1295 C1298 1.499 . S
C1296 H1276 0.950 . S
C1296 C1295 1.414 . S
C1296 C1297 1.374 . S
C1297 H1277 0.950 . S
C1297 C1293 1.385 . S
C1297 C1296 1.374 . S
C1298 C1295 1.499 . S
C1298 C1299 1.373 . S
C1298 C1300 1.389 . S
C1299 H1278 0.950 . S
C1299 C1298 1.373 . S
C1299 C1315 1.377 . S
C1300 C1298 1.389 . S
C1300 C1301 1.524 . S
C1300 C1314 1.377 . S
C1301 C1300 1.524 . S
C1301 C1302 1.397 . S
C1301 C1306 1.363 . S
C1302 H1279 0.950 . S
C1302 C1301 1.397 . S
C1302 C1303 1.334 . S
C1303 H1280 0.950 . S
C1303 C1302 1.334 . S
C1303 C1304 1.287 . S
C1304 C1303 1.287 . S
C1304 C1305 1.524 . S
C1304 H1323 0.913 . S
C1305 H1281 0.950 . S
C1305 C1304 1.524 . S
C1305 C1306 1.415 . S
C1306 H1282 0.950 . S
C1306 C1301 1.363 . S
C1306 C1305 1.415 . S
C1307 H1283 0.951 . S
C1307 C1308 1.366 . S
C1307 C1309 1.388 . S
C1308 C1307 1.366 . S
C1308 C1312 1.385 . S
C1309 H1284 0.951 . S
C1309 C1307 1.388 . S
C1309 C1310 1.366 . S
C1310 C1309 1.366 . S
C1310 C1311 1.414 . S
C1310 C1313 1.499 . S
C1311 H1285 0.950 . S
C1311 C1310 1.414 . S
C1311 C1312 1.374 . S
C1312 H1286 0.950 . S
C1312 C1308 1.385 . S
C1312 C1311 1.374 . S
C1313 C1310 1.499 . S
C1313 C1314 1.373 . S
C1313 C1315 1.389 . S
C1314 H1287 0.950 . S
C1314 C1300 1.377 . S
C1314 C1313 1.373 . S
C1315 C1299 1.377 . S
C1315 C1313 1.389 . S
C1315 C1316 1.524 . S
C1316 C1315 1.524 . S
C1316 C1317 1.397 . S
C1316 C1321 1.363 . S
C1317 H1288 0.950 . S
C1317 C1316 1.397 . S
C1317 C1318 1.334 . S
C1318 H1289 0.950 . S
C1318 C1317 1.334 . S
C1318 C1319 1.287 . S
C1319 C1318 1.287 . S
C1319 C1320 1.524 . S
C1319 H1322 0.999 . S
C1320 H1290 0.950 . S
C1320 C1319 1.524 . S
C1320 C1321 1.415 . S
C1321 H1291 0.950 . S
C1321 C1316 1.363 . S
C1321 C1320 1.415 . S
H1322 C1319 0.999 . S
H1323 C1304 0.913 . S
H1324 C1342 0.951 . S
H1325 C1344 0.951 . S
H1326 C1346 0.950 . S
H1327 C1347 0.950 . S
H1328 C1349 0.950 . S
H1329 C1352 0.950 . S
H1330 C1353 0.950 . S
H1331 C1355 0.950 . S
H1332 C1356 0.950 . S
H1333 C1357 0.951 . S
H1334 C1359 0.951 . S
H1335 C1361 0.950 . S
H1336 C1362 0.950 . S
H1337 C1364 0.950 . S
H1338 C1367 0.950 . S
H1339 C1368 0.950 . S
H1340 C1370 0.950 . S
H1341 C1371 0.950 . S
C1342 H1324 0.951 . S
C1342 C1343 1.366 . S
C1342 C1344 1.388 . S
C1343 C1342 1.366 . S
C1343 C1347 1.385 . S
C1344 H1325 0.951 . S
C1344 C1342 1.388 . S
C1344 C1345 1.366 . S
C1345 C1344 1.366 . S
C1345 C1346 1.414 . S
C1345 C1348 1.499 . S
C1346 H1326 0.950 . S
C1346 C1345 1.414 . S
C1346 C1347 1.374 . S
C1347 H1327 0.950 . S
C1347 C1343 1.385 . S
C1347 C1346 1.374 . S
C1348 C1345 1.499 . S
C1348 C1349 1.373 . S
C1348 C1350 1.389 . S
C1349 H1328 0.950 . S
C1349 C1348 1.373 . S
C1349 C1365 1.377 . S
C1350 C1348 1.389 . S
C1350 C1351 1.524 . S
C1350 C1364 1.377 . S
C1351 C1350 1.524 . S
C1351 C1352 1.397 . S
C1351 C1356 1.363 . S
C1352 H1329 0.950 . S
C1352 C1351 1.397 . S
C1352 C1353 1.334 . S
C1353 H1330 0.950 . S
C1353 C1352 1.334 . S
C1353 C1354 1.287 . S
C1354 C1353 1.287 . S
C1354 C1355 1.524 . S
C1354 H1373 0.913 . S
C1355 H1331 0.950 . S
C1355 C1354 1.524 . S
C1355 C1356 1.415 . S
C1356 H1332 0.950 . S
C1356 C1351 1.363 . S
C1356 C1355 1.415 . S
C1357 H1333 0.951 . S
C1357 C1358 1.366 . S
C1357 C1359 1.388 . S
C1358 C1357 1.366 . S
C1358 C1362 1.385 . S
C1359 H1334 0.951 . S
C1359 C1357 1.388 . S
C1359 C1360 1.366 . S
C1360 C1359 1.366 . S
C1360 C1361 1.414 . S
C1360 C1363 1.499 . S
C1361 H1335 0.950 . S
C1361 C1360 1.414 . S
C1361 C1362 1.374 . S
C1362 H1336 0.950 . S
C1362 C1358 1.385 . S
C1362 C1361 1.374 . S
C1363 C1360 1.499 . S
C1363 C1364 1.373 . S
C1363 C1365 1.389 . S
C1364 H1337 0.950 . S
C1364 C1350 1.377 . S
C1364 C1363 1.373 . S
C1365 C1349 1.377 . S
C1365 C1363 1.389 . S
C1365 C1366 1.524 . S
C1366 C1365 1.524 . S
C1366 C1367 1.397 . S
C1366 C1371 1.363 . S
C1367 H1338 0.950 . S
C1367 C1366 1.397 . S
C1367 C1368 1.334 . S
C1368 H1339 0.950 . S
C1368 C1367 1.334 . S
C1368 C1369 1.287 . S
C1369 C1368 1.287 . S
C1369 C1370 1.524 . S
C1369 H1372 0.999 . S
C1370 H1340 0.950 . S
C1370 C1369 1.524 . S
C1370 C1371 1.415 . S
C1371 H1341 0.950 . S
C1371 C1366 1.363 . S
C1371 C1370 1.415 . S
H1372 C1369 0.999 . S
H1373 C1354 0.913 . S
H1374 C1392 0.951 . S
H1375 C1394 0.951 . S
H1376 C1396 0.950 . S
H1377 C1397 0.950 . S
H1378 C1399 0.950 . S
H1379 C1402 0.950 . S
H1380 C1403 0.950 . S
H1381 C1405 0.950 . S
H1382 C1406 0.950 . S
H1383 C1407 0.951 . S
H1384 C1409 0.951 . S
H1385 C1411 0.950 . S
H1386 C1412 0.950 . S
H1387 C1414 0.950 . S
H1388 C1417 0.950 . S
H1389 C1418 0.950 . S
H1390 C1420 0.950 . S
H1391 C1421 0.950 . S
C1392 H1374 0.951 . S
C1392 C1393 1.366 . S
C1392 C1394 1.388 . S
C1393 C1392 1.366 . S
C1393 C1397 1.385 . S
C1394 H1375 0.951 . S
C1394 C1392 1.388 . S
C1394 C1395 1.366 . S
C1395 C1394 1.366 . S
C1395 C1396 1.414 . S
C1395 C1398 1.499 . S
C1396 H1376 0.950 . S
C1396 C1395 1.414 . S
C1396 C1397 1.374 . S
C1397 H1377 0.950 . S
C1397 C1393 1.385 . S
C1397 C1396 1.374 . S
C1398 C1395 1.499 . S
C1398 C1399 1.373 . S
C1398 C1400 1.389 . S
C1399 H1378 0.950 . S
C1399 C1398 1.373 . S
C1399 C1415 1.377 . S
C1400 C1398 1.389 . S
C1400 C1401 1.524 . S
C1400 C1414 1.377 . S
C1401 C1400 1.524 . S
C1401 C1402 1.397 . S
C1401 C1406 1.363 . S
C1402 H1379 0.950 . S
C1402 C1401 1.397 . S
C1402 C1403 1.334 . S
C1403 H1380 0.950 . S
C1403 C1402 1.334 . S
C1403 C1404 1.287 . S
C1404 C1403 1.287 . S
C1404 C1405 1.524 . S
C1404 H1423 0.913 . S
C1405 H1381 0.950 . S
C1405 C1404 1.524 . S
C1405 C1406 1.415 . S
C1406 H1382 0.950 . S
C1406 C1401 1.363 . S
C1406 C1405 1.415 . S
C1407 H1383 0.951 . S
C1407 C1408 1.366 . S
C1407 C1409 1.388 . S
C1408 C1407 1.366 . S
C1408 C1412 1.385 . S
C1409 H1384 0.951 . S
C1409 C1407 1.388 . S
C1409 C1410 1.366 . S
C1410 C1409 1.366 . S
C1410 C1411 1.414 . S
C1410 C1413 1.499 . S
C1411 H1385 0.950 . S
C1411 C1410 1.414 . S
C1411 C1412 1.374 . S
C1412 H1386 0.950 . S
C1412 C1408 1.385 . S
C1412 C1411 1.374 . S
C1413 C1410 1.499 . S
C1413 C1414 1.373 . S
C1413 C1415 1.389 . S
C1414 H1387 0.950 . S
C1414 C1400 1.377 . S
C1414 C1413 1.373 . S
C1415 C1399 1.377 . S
C1415 C1413 1.389 . S
C1415 C1416 1.524 . S
C1416 C1415 1.524 . S
C1416 C1417 1.397 . S
C1416 C1421 1.363 . S
C1417 H1388 0.950 . S
C1417 C1416 1.397 . S
C1417 C1418 1.334 . S
C1418 H1389 0.950 . S
C1418 C1417 1.334 . S
C1418 C1419 1.287 . S
C1419 C1418 1.287 . S
C1419 C1420 1.524 . S
C1419 H1422 0.999 . S
C1420 H1390 0.950 . S
C1420 C1419 1.524 . S
C1420 C1421 1.415 . S
C1421 H1391 0.950 . S
C1421 C1416 1.363 . S
C1421 C1420 1.415 . S
H1422 C1419 0.999 . S
H1423 C1404 0.913 . S
H1424 C1442 0.951 . S
H1425 C1444 0.951 . S
H1426 C1446 0.950 . S
H1427 C1447 0.950 . S
H1428 C1449 0.950 . S
H1429 C1452 0.950 . S
H1430 C1453 0.950 . S
H1431 C1455 0.950 . S
H1432 C1456 0.950 . S
H1433 C1457 0.951 . S
H1434 C1459 0.951 . S
H1435 C1461 0.950 . S
H1436 C1462 0.950 . S
H1437 C1464 0.950 . S
H1438 C1467 0.950 . S
H1439 C1468 0.950 . S
H1440 C1470 0.950 . S
H1441 C1471 0.950 . S
C1442 H1424 0.951 . S
C1442 C1443 1.366 . S
C1442 C1444 1.388 . S
C1443 C1442 1.366 . S
C1443 C1447 1.385 . S
C1444 H1425 0.951 . S
C1444 C1442 1.388 . S
C1444 C1445 1.366 . S
C1445 C1444 1.366 . S
C1445 C1446 1.414 . S
C1445 C1448 1.499 . S
C1446 H1426 0.950 . S
C1446 C1445 1.414 . S
C1446 C1447 1.374 . S
C1447 H1427 0.950 . S
C1447 C1443 1.385 . S
C1447 C1446 1.374 . S
C1448 C1445 1.499 . S
C1448 C1449 1.373 . S
C1448 C1450 1.389 . S
C1449 H1428 0.950 . S
C1449 C1448 1.373 . S
C1449 C1465 1.377 . S
C1450 C1448 1.389 . S
C1450 C1451 1.524 . S
C1450 C1464 1.377 . S
C1451 C1450 1.524 . S
C1451 C1452 1.397 . S
C1451 C1456 1.363 . S
C1452 H1429 0.950 . S
C1452 C1451 1.397 . S
C1452 C1453 1.334 . S
C1453 H1430 0.950 . S
C1453 C1452 1.334 . S
C1453 C1454 1.287 . S
C1454 C1453 1.287 . S
C1454 C1455 1.524 . S
C1454 H1473 0.913 . S
C1455 H1431 0.950 . S
C1455 C1454 1.524 . S
C1455 C1456 1.415 . S
C1456 H1432 0.950 . S
C1456 C1451 1.363 . S
C1456 C1455 1.415 . S
C1457 H1433 0.951 . S
C1457 C1458 1.366 . S
C1457 C1459 1.388 . S
C1458 C1457 1.366 . S
C1458 C1462 1.385 . S
C1459 H1434 0.951 . S
C1459 C1457 1.388 . S
C1459 C1460 1.366 . S
C1460 C1459 1.366 . S
C1460 C1461 1.414 . S
C1460 C1463 1.499 . S
C1461 H1435 0.950 . S
C1461 C1460 1.414 . S
C1461 C1462 1.374 . S
C1462 H1436 0.950 . S
C1462 C1458 1.385 . S
C1462 C1461 1.374 . S
C1463 C1460 1.499 . S
C1463 C1464 1.373 . S
C1463 C1465 1.389 . S
C1464 H1437 0.950 . S
C1464 C1450 1.377 . S
C1464 C1463 1.373 . S
C1465 C1449 1.377 . S
C1465 C1463 1.389 . S
C1465 C1466 1.524 . S
C1466 C1465 1.524 . S
C1466 C1467 1.397 . S
C1466 C1471 1.363 . S
C1467 H1438 0.950 . S
C1467 C1466 1.397 . S
C1467 C1468 1.334 . S
C1468 H1439 0.950 . S
C1468 C1467 1.334 . S
C1468 C1469 1.287 . S
C1469 C1468 1.287 . S
C1469 C1470 1.524 . S
C1469 H1472 0.999 . S
C1470 H1440 0.950 . S
C1470 C1469 1.524 . S
C1470 C1471 1.415 . S
C1471 H1441 0.950 . S
C1471 C1466 1.363 . S
C1471 C1470 1.415 . S
H1472 C1469 0.999 . S
H1473 C1454 0.913 . S
H1474 C1492 0.951 . S
H1475 C1494 0.951 . S
H1476 C1496 0.950 . S
H1477 C1497 0.950 . S
H1478 C1499 0.950 . S
H1479 C1502 0.950 . S
H1480 C1503 0.950 . S
H1481 C1505 0.950 . S
H1482 C1506 0.950 . S
H1483 C1507 0.951 . S
H1484 C1509 0.951 . S
H1485 C1511 0.950 . S
H1486 C1512 0.950 . S
H1487 C1514 0.950 . S
H1488 C1517 0.950 . S
H1489 C1518 0.950 . S
H1490 C1520 0.950 . S
H1491 C1521 0.950 . S
C1492 H1474 0.951 . S
C1492 C1493 1.366 . S
C1492 C1494 1.388 . S
C1493 C1492 1.366 . S
C1493 C1497 1.385 . S
C1494 H1475 0.951 . S
C1494 C1492 1.388 . S
C1494 C1495 1.366 . S
C1495 C1494 1.366 . S
C1495 C1496 1.414 . S
C1495 C1498 1.499 . S
C1496 H1476 0.950 . S
C1496 C1495 1.414 . S
C1496 C1497 1.374 . S
C1497 H1477 0.950 . S
C1497 C1493 1.385 . S
C1497 C1496 1.374 . S
C1498 C1495 1.499 . S
C1498 C1499 1.373 . S
C1498 C1500 1.389 . S
C1499 H1478 0.950 . S
C1499 C1498 1.373 . S
C1499 C1515 1.377 . S
C1500 C1498 1.389 . S
C1500 C1501 1.524 . S
C1500 C1514 1.377 . S
C1501 C1500 1.524 . S
C1501 C1502 1.397 . S
C1501 C1506 1.363 . S
C1502 H1479 0.950 . S
C1502 C1501 1.397 . S
C1502 C1503 1.334 . S
C1503 H1480 0.950 . S
C1503 C1502 1.334 . S
C1503 C1504 1.287 . S
C1504 C1503 1.287 . S
C1504 C1505 1.524 . S
C1504 H1523 0.913 . S
C1505 H1481 0.950 . S
C1505 C1504 1.524 . S
C1505 C1506 1.415 . S
C1506 H1482 0.950 . S
C1506 C1501 1.363 . S
C1506 C1505 1.415 . S
C1507 H1483 0.951 . S
C1507 C1508 1.366 . S
C1507 C1509 1.388 . S
C1508 C1507 1.366 . S
C1508 C1512 1.385 . S
C1509 H1484 0.951 . S
C1509 C1507 1.388 . S
C1509 C1510 1.366 . S
C1510 C1509 1.366 . S
C1510 C1511 1.414 . S
C1510 C1513 1.499 . S
C1511 H1485 0.950 . S
C1511 C1510 1.414 . S
C1511 C1512 1.374 . S
C1512 H1486 0.950 . S
C1512 C1508 1.385 . S
C1512 C1511 1.374 . S
C1513 C1510 1.499 . S
C1513 C1514 1.373 . S
C1513 C1515 1.389 . S
C1514 H1487 0.950 . S
C1514 C1500 1.377 . S
C1514 C1513 1.373 . S
C1515 C1499 1.377 . S
C1515 C1513 1.389 . S
C1515 C1516 1.524 . S
C1516 C1515 1.524 . S
C1516 C1517 1.397 . S
C1516 C1521 1.363 . S
C1517 H1488 0.950 . S
C1517 C1516 1.397 . S
C1517 C1518 1.334 . S
C1518 H1489 0.950 . S
C1518 C1517 1.334 . S
C1518 C1519 1.287 . S
C1519 C1518 1.287 . S
C1519 C1520 1.524 . S
C1519 H1522 0.999 . S
C1520 H1490 0.950 . S
C1520 C1519 1.524 . S
C1520 C1521 1.415 . S
C1521 H1491 0.950 . S
C1521 C1516 1.363 . S
C1521 C1520 1.415 . S
H1522 C1519 0.999 . S
H1523 C1504 0.913 . S
H1524 C1542 0.951 . S
H1525 C1544 0.951 . S
H1526 C1546 0.950 . S
H1527 C1547 0.950 . S
H1528 C1549 0.950 . S
H1529 C1552 0.950 . S
H1530 C1553 0.950 . S
H1531 C1555 0.950 . S
H1532 C1556 0.950 . S
H1533 C1557 0.951 . S
H1534 C1559 0.951 . S
H1535 C1561 0.950 . S
H1536 C1562 0.950 . S
H1537 C1564 0.950 . S
H1538 C1567 0.950 . S
H1539 C1568 0.950 . S
H1540 C1570 0.950 . S
H1541 C1571 0.950 . S
C1542 H1524 0.951 . S
C1542 C1543 1.366 . S
C1542 C1544 1.388 . S
C1543 C1542 1.366 . S
C1543 C1547 1.385 . S
C1544 H1525 0.951 . S
C1544 C1542 1.388 . S
C1544 C1545 1.366 . S
C1545 C1544 1.366 . S
C1545 C1546 1.414 . S
C1545 C1548 1.499 . S
C1546 H1526 0.950 . S
C1546 C1545 1.414 . S
C1546 C1547 1.374 . S
C1547 H1527 0.950 . S
C1547 C1543 1.385 . S
C1547 C1546 1.374 . S
C1548 C1545 1.499 . S
C1548 C1549 1.373 . S
C1548 C1550 1.389 . S
C1549 H1528 0.950 . S
C1549 C1548 1.373 . S
C1549 C1565 1.377 . S
C1550 C1548 1.389 . S
C1550 C1551 1.524 . S
C1550 C1564 1.377 . S
C1551 C1550 1.524 . S
C1551 C1552 1.397 . S
C1551 C1556 1.363 . S
C1552 H1529 0.950 . S
C1552 C1551 1.397 . S
C1552 C1553 1.334 . S
C1553 H1530 0.950 . S
C1553 C1552 1.334 . S
C1553 C1554 1.287 . S
C1554 C1553 1.287 . S
C1554 C1555 1.524 . S
C1554 H1573 0.913 . S
C1555 H1531 0.950 . S
C1555 C1554 1.524 . S
C1555 C1556 1.415 . S
C1556 H1532 0.950 . S
C1556 C1551 1.363 . S
C1556 C1555 1.415 . S
C1557 H1533 0.951 . S
C1557 C1558 1.366 . S
C1557 C1559 1.388 . S
C1558 C1557 1.366 . S
C1558 C1562 1.385 . S
C1559 H1534 0.951 . S
C1559 C1557 1.388 . S
C1559 C1560 1.366 . S
C1560 C1559 1.366 . S
C1560 C1561 1.414 . S
C1560 C1563 1.499 . S
C1561 H1535 0.950 . S
C1561 C1560 1.414 . S
C1561 C1562 1.374 . S
C1562 H1536 0.950 . S
C1562 C1558 1.385 . S
C1562 C1561 1.374 . S
C1563 C1560 1.499 . S
C1563 C1564 1.373 . S
C1563 C1565 1.389 . S
C1564 H1537 0.950 . S
C1564 C1550 1.377 . S
C1564 C1563 1.373 . S
C1565 C1549 1.377 . S
C1565 C1563 1.389 . S
C1565 C1566 1.524 . S
C1566 C1565 1.524 . S
C1566 C1567 1.397 . S
C1566 C1571 1.363 . S
C1567 H1538 0.950 . S
C1567 C1566 1.397 . S
C1567 C1568 1.334 . S
C1568 H1539 0.950 . S
C1568 C1567 1.334 . S
C1568 C1569 1.287 . S
C1569 C1568 1.287 . S
C1569 C1570 1.524 . S
C1569 H1572 0.999 . S
C1570 H1540 0.950 . S
C1570 C1569 1.524 . S
C1570 C1571 1.415 . S
C1571 H1541 0.950 . S
C1571 C1566 1.363 . S
C1571 C1570 1.415 . S
H1572 C1569 0.999 . S
H1573 C1554 0.913 . S
H1574 C1592 0.951 . S
H1575 C1594 0.951 . S
H1576 C1596 0.950 . S
H1577 C1597 0.950 . S
H1578 C1599 0.950 . S
H1579 C1602 0.950 . S
H1580 C1603 0.950 . S
H1581 C1605 0.950 . S
H1582 C1606 0.950 . S
H1583 C1607 0.951 . S
H1584 C1609 0.951 . S
H1585 C1611 0.950 . S
H1586 C1612 0.950 . S
H1587 C1614 0.950 . S
H1588 C1617 0.950 . S
H1589 C1618 0.950 . S
H1590 C1620 0.950 . S
H1591 C1621 0.950 . S
C1592 H1574 0.951 . S
C1592 C1593 1.366 . S
C1592 C1594 1.388 . S
C1593 C1592 1.366 . S
C1593 C1597 1.385 . S
C1594 H1575 0.951 . S
C1594 C1592 1.388 . S
C1594 C1595 1.366 . S
C1595 C1594 1.366 . S
C1595 C1596 1.414 . S
C1595 C1598 1.499 . S
C1596 H1576 0.950 . S
C1596 C1595 1.414 . S
C1596 C1597 1.374 . S
C1597 H1577 0.950 . S
C1597 C1593 1.385 . S
C1597 C1596 1.374 . S
C1598 C1595 1.499 . S
C1598 C1599 1.373 . S
C1598 C1600 1.389 . S
C1599 H1578 0.950 . S
C1599 C1598 1.373 . S
C1599 C1615 1.377 . S
C1600 C1598 1.389 . S
C1600 C1601 1.524 . S
C1600 C1614 1.377 . S
C1601 C1600 1.524 . S
C1601 C1602 1.397 . S
C1601 C1606 1.363 . S
C1602 H1579 0.950 . S
C1602 C1601 1.397 . S
C1602 C1603 1.334 . S
C1603 H1580 0.950 . S
C1603 C1602 1.334 . S
C1603 C1604 1.287 . S
C1604 C1603 1.287 . S
C1604 C1605 1.524 . S
C1604 H1623 0.913 . S
C1605 H1581 0.950 . S
C1605 C1604 1.524 . S
C1605 C1606 1.415 . S
C1606 H1582 0.950 . S
C1606 C1601 1.363 . S
C1606 C1605 1.415 . S
C1607 H1583 0.951 . S
C1607 C1608 1.366 . S
C1607 C1609 1.388 . S
C1608 C1607 1.366 . S
C1608 C1612 1.385 . S
C1609 H1584 0.951 . S
C1609 C1607 1.388 . S
C1609 C1610 1.366 . S
C1610 C1609 1.366 . S
C1610 C1611 1.414 . S
C1610 C1613 1.499 . S
C1611 H1585 0.950 . S
C1611 C1610 1.414 . S
C1611 C1612 1.374 . S
C1612 H1586 0.950 . S
C1612 C1608 1.385 . S
C1612 C1611 1.374 . S
C1613 C1610 1.499 . S
C1613 C1614 1.373 . S
C1613 C1615 1.389 . S
C1614 H1587 0.950 . S
C1614 C1600 1.377 . S
C1614 C1613 1.373 . S
C1615 C1599 1.377 . S
C1615 C1613 1.389 . S
C1615 C1616 1.524 . S
C1616 C1615 1.524 . S
C1616 C1617 1.397 . S
C1616 C1621 1.363 . S
C1617 H1588 0.950 . S
C1617 C1616 1.397 . S
C1617 C1618 1.334 . S
C1618 H1589 0.950 . S
C1618 C1617 1.334 . S
C1618 C1619 1.287 . S
C1619 C1618 1.287 . S
C1619 C1620 1.524 . S
C1619 H1622 0.999 . S
C1620 H1590 0.950 . S
C1620 C1619 1.524 . S
C1620 C1621 1.415 . S
C1621 H1591 0.950 . S
C1621 C1616 1.363 . S
C1621 C1620 1.415 . S
H1622 C1619 0.999 . S
H1623 C1604 0.913 . S
C443 C45 1.667 . S
C458 C119 1.675 . S
C493 C30 1.667 . S
C508 C159 1.681 . S
C543 C39 1.667 . S
C558 C199 1.681 . S
C608 C239 1.682 . S
C593 C34 1.668 . S
C643 C97 1.666 . S
C658 C279 1.675 . S
C708 C319 1.681 . S
C693 C82 1.667 . S
C758 C359 1.681 . S
C743 C91 1.666 . S
C808 C399 1.682 . S
C793 C86 1.667 . S
C858 C365 1.578 . S
C843 C26 1.511 . S
C908 C405 1.605 . S
C893 C36 1.535 . S
C958 C266 1.513 . S
C943 C32 1.500 . S
C1008 C325 1.604 . S
C993 C42 1.535 . S
C1043 C18 1.566 . S
C1058 C306 1.657 . S
C1108 C346 1.683 . S
C1093 C50 1.591 . S
C1143 C4 1.566 . S
C1158 C386 1.656 . S
C1193 C48 1.602 . S
C1208 C285 1.618 . S
C1258 C205 1.579 . S
C1243 C78 1.511 . S
C1293 C88 1.536 . S
C1308 C245 1.605 . S
C1358 C106 1.512 . S
C1343 C84 1.500 . S
C1408 C165 1.604 . S
C1393 C94 1.535 . S
C1458 C146 1.657 . S
C1443 C70 1.566 . S
C1508 C186 1.683 . S
C1493 C102 1.591 . S
C1543 C56 1.567 . S
C1558 C226 1.656 . S
C1593 C100 1.603 . S
C1608 C125 1.619 . S
