# Generated by pormake.
# Topology dag, (6,3)-cn, num edge types: 1
# Building blocks:
#     Node 0, Type 0, BuildingBlock: OJICUG_clean_sbu_0, # of connection points: 6
#     Node 1, Type 0, BuildingBlock: OJICUG_clean_sbu_0, # of connection points: 6
#     Node 2, Type 0, BuildingBlock: OJICUG_clean_sbu_0, # of connection points: 6
#     Node 3, Type 0, BuildingBlock: OJICUG_clean_sbu_0, # of connection points: 6
#     Node 4, Type 1, BuildingBlock: OLANEW_clean_sbu_2, # of connection points: 3
#     Node 5, Type 1, BuildingBlock: OLANEW_clean_sbu_2, # of connection points: 3
#     Node 6, Type 1, BuildingBlock: OLANEW_clean_sbu_2, # of connection points: 3
#     Node 7, Type 1, BuildingBlock: OLANEW_clean_sbu_2, # of connection points: 3
#     Node 8, Type 1, BuildingBlock: OLANEW_clean_sbu_2, # of connection points: 3
#     Node 9, Type 1, BuildingBlock: OLANEW_clean_sbu_2, # of connection points: 3
#     Node 10, Type 1, BuildingBlock: OLANEW_clean_sbu_2, # of connection points: 3
#     Node 11, Type 1, BuildingBlock: OLANEW_clean_sbu_2, # of connection points: 3
#     Edge 12, Type (0, 1), BuildingBlock: XIVTED_clean_linker_0, # of connection points: 2
#     Edge 13, Type (0, 1), BuildingBlock: XIVTED_clean_linker_0, # of connection points: 2
#     Edge 14, Type (0, 1), BuildingBlock: XIVTED_clean_linker_0, # of connection points: 2
#     Edge 15, Type (0, 1), BuildingBlock: XIVTED_clean_linker_0, # of connection points: 2
#     Edge 16, Type (0, 1), BuildingBlock: XIVTED_clean_linker_0, # of connection points: 2
#     Edge 17, Type (0, 1), BuildingBlock: XIVTED_clean_linker_0, # of connection points: 2
#     Edge 18, Type (0, 1), BuildingBlock: XIVTED_clean_linker_0, # of connection points: 2
#     Edge 19, Type (0, 1), BuildingBlock: XIVTED_clean_linker_0, # of connection points: 2
#     Edge 20, Type (0, 1), BuildingBlock: XIVTED_clean_linker_0, # of connection points: 2
#     Edge 21, Type (0, 1), BuildingBlock: XIVTED_clean_linker_0, # of connection points: 2
#     Edge 22, Type (0, 1), BuildingBlock: XIVTED_clean_linker_0, # of connection points: 2
#     Edge 23, Type (0, 1), BuildingBlock: XIVTED_clean_linker_0, # of connection points: 2
#     Edge 24, Type (0, 1), BuildingBlock: XIVTED_clean_linker_0, # of connection points: 2
#     Edge 25, Type (0, 1), BuildingBlock: XIVTED_clean_linker_0, # of connection points: 2
#     Edge 26, Type (0, 1), BuildingBlock: XIVTED_clean_linker_0, # of connection points: 2
#     Edge 27, Type (0, 1), BuildingBlock: XIVTED_clean_linker_0, # of connection points: 2
#     Edge 28, Type (0, 1), BuildingBlock: XIVTED_clean_linker_0, # of connection points: 2
#     Edge 29, Type (0, 1), BuildingBlock: XIVTED_clean_linker_0, # of connection points: 2
#     Edge 30, Type (0, 1), BuildingBlock: XIVTED_clean_linker_0, # of connection points: 2
#     Edge 31, Type (0, 1), BuildingBlock: XIVTED_clean_linker_0, # of connection points: 2
#     Edge 32, Type (0, 1), BuildingBlock: XIVTED_clean_linker_0, # of connection points: 2
#     Edge 33, Type (0, 1), BuildingBlock: XIVTED_clean_linker_0, # of connection points: 2
#     Edge 34, Type (0, 1), BuildingBlock: XIVTED_clean_linker_0, # of connection points: 2
#     Edge 35, Type (0, 1), BuildingBlock: XIVTED_clean_linker_0, # of connection points: 2
# Relax obj value: 0.128
# Max RMSD: 0.158
# Mean RMSD: 0.121
data_MOF--net-dag--node1-OJICUG_clean_sbu_0--node2-OLANEW_clean_sbu_2--edge1-XIVTED_clean_linker_0
_symmetry_space_group_name_H-M    P1
_symmetry_Int_Tables_number       1
_symmetry_cell_setting            triclinic
loop_
_symmetry_equiv_pos_as_xyz
'x, y, z'
_cell_length_a     42.177899
_cell_length_b     39.035757
_cell_length_c     41.308504
_cell_angle_alpha  92.332581
_cell_angle_beta   93.998894
_cell_angle_gamma 91.872288
loop_
_atom_site_label
_atom_site_type_symbol
_atom_site_fract_x
_atom_site_fract_y
_atom_site_fract_z
_atom_type_partial_charge
Sc0 Sc 0.0987 0.90456 0.00745 0.0
Sc1 Sc 0.11974 0.81987 0.98721 0.0
Sc2 Sc 0.17855 0.88067 0.01837 0.0
O3 O 0.13229 0.8684 0.00427 0.0
C4 C 0.15724 0.95061 0.98689 0.0
C5 C 0.07723 0.8658 0.93947 0.0
C6 C 0.18519 0.83453 0.95421 0.0
C7 C 0.06113 0.83742 0.02921 0.0
C8 C 0.14154 0.91726 0.07437 0.0
C9 C 0.1724 0.80422 0.04294 0.0
O10 O 0.12741 0.94446 0.98682 0.0
O11 O 0.09123 0.83811 0.94584 0.0
O12 O 0.19463 0.86017 0.97292 0.0
O13 O 0.06512 0.86989 0.02873 0.0
O14 O 0.16593 0.90225 0.06491 0.0
O15 O 0.14624 0.79612 0.02681 0.0
O16 O 0.11648 0.92066 0.05591 0.0
O17 O 0.07899 0.81683 0.0152 0.0
O18 O 0.18692 0.83293 0.04087 0.0
O19 O 0.07802 0.89161 0.95935 0.0
O20 O 0.1775 0.93009 -0.00194 0.0
O21 O 0.1597 0.81711 0.95757 0.0
Sc22 Sc 0.69583 0.60356 0.47347 0.0
Sc23 Sc 0.64193 0.66843 0.45532 0.0
Sc24 Sc 0.61424 0.58644 0.47556 0.0
O25 O 0.65064 0.6196 0.46803 0.0
C26 C 0.66176 0.53703 0.44047 0.0
C27 C 0.69872 0.65006 0.41152 0.0
C28 C 0.58696 0.62342 0.41327 0.0
C29 C 0.70271 0.67855 0.50652 0.0
C30 C 0.66359 0.56988 0.5333 0.0
C31 C 0.58895 0.65713 0.50456 0.0
O32 O 0.68537 0.55821 0.44267 0.0
O33 O 0.67309 0.6655 0.41576 0.0
O34 O 0.59073 0.59633 0.4291 0.0
O35 O 0.71031 0.64734 0.50459 0.0
O36 O 0.63501 0.5746 0.52287 0.0
O37 O 0.60978 0.67676 0.49333 0.0
O38 O 0.68723 0.57651 0.51676 0.0
O39 O 0.67995 0.6904 0.48886 0.0
O40 O 0.58708 0.62496 0.49845 0.0
O41 O 0.71003 0.6287 0.43126 0.0
O42 O 0.63587 0.5429 0.45334 0.0
O43 O 0.60235 0.65164 0.42099 0.0
Sc44 Sc 0.8449 0.19442 0.01842 0.0
Sc45 Sc 0.78547 0.14221 0.97346 0.0
Sc46 Sc 0.85767 0.10781 0.0003 0.0
O47 O 0.82929 0.14834 -0.00255 0.0
C48 C 0.90589 0.16796 0.98444 0.0
C49 C 0.80631 0.21823 0.95484 0.0
C50 C 0.82665 0.09877 0.92732 0.0
C51 C 0.77227 0.18723 0.03676 0.0
C52 C 0.87416 0.14427 0.0703 0.0
C53 C 0.79172 0.07216 0.01063 0.0
O54 O 0.89062 0.19157 -0.00202 0.0
O55 O 0.78788 0.19169 0.95172 0.0
O56 O 0.84498 0.09016 0.95109 0.0
O57 O 0.80015 0.20121 0.03995 0.0
O58 O 0.87407 0.11925 0.04979 0.0
O59 O 0.77617 0.09153 0.99174 0.0
O60 O 0.86362 0.17335 0.06324 0.0
O61 O 0.76357 0.16419 0.01486 0.0
O62 O 0.8212 0.07659 0.01839 0.0
O63 O 0.82895 0.22184 0.97674 0.0
O64 O 0.8965 0.13661 0.98267 0.0
O65 O 0.80488 0.12028 0.93035 0.0
Sc66 Sc 0.35164 0.37269 0.52302 0.0
Sc67 Sc 0.27967 0.34098 0.55175 0.0
Sc68 Sc 0.34837 0.29082 0.55428 0.0
O69 O 0.32643 0.33481 0.54299 0.0
C70 C 0.37718 0.30664 0.48675 0.0
C71 C 0.28416 0.37557 0.48348 0.0
C72 C 0.28001 0.26296 0.52435 0.0
C73 C 0.3116 0.4145 0.57354 0.0
C74 C 0.40292 0.34685 0.57631 0.0
C75 C 0.30551 0.30188 0.61436 0.0
O76 O 0.37118 0.33835 0.488 0.0
O77 O 0.26798 0.36176 0.50463 0.0
O78 O 0.3095 0.25981 0.53173 0.0
O79 O 0.33505 0.41076 0.55614 0.0
O80 O 0.38952 0.31747 0.57841 0.0
O81 O 0.2856 0.32104 0.60005 0.0
O82 O 0.39225 0.36888 0.55694 0.0
O83 O 0.28911 0.39199 0.57425 0.0
O84 O 0.32875 0.28946 0.60053 0.0
O85 O 0.31404 0.3809 0.487 0.0
O86 O 0.3708 0.28669 0.50913 0.0
O87 O 0.26562 0.29055 0.53015 0.0
O88 O 0.14377 0.98567 0.32751 0.0
Cd89 Cd 0.13382 -0.00227 0.38442 0.0
O90 O 0.11037 0.02548 0.31483 0.0
Cd91 Cd 0.08172 0.0586 0.28382 0.0
O92 O 0.04592 0.08485 0.25422 0.0
C93 C 0.0177 0.07213 0.25223 0.0
O94 O 0.0116 0.04445 0.26811 0.0
C95 C 0.12862 0.00208 0.30585 0.0
C96 C 0.16455 0.05737 0.41187 0.0
O97 O 0.17812 0.02846 0.41225 0.0
O98 O 0.13644 0.05825 0.39805 0.0
O99 O 0.31855 0.6623 0.69552 0.0
Cd100 Cd 0.33465 0.72127 0.71457 0.0
O101 O 0.36783 0.64716 0.70643 0.0
Cd102 Cd 0.39049 0.69843 0.71158 0.0
O103 O 0.42813 0.71771 0.68253 0.0
C104 C 0.42109 0.715 0.6521 0.0
O105 O 0.39192 0.70503 0.64183 0.0
C106 C 0.33898 0.63905 0.69747 0.0
C107 C 0.30351 0.7465 0.76778 0.0
O108 O 0.29478 0.7547 0.73885 0.0
O109 O 0.32656 0.72611 0.77152 0.0
O110 O 0.8767 0.69148 0.13173 0.0
Cd111 Cd 0.82938 0.65657 0.14197 0.0
O112 O 0.84522 0.73277 0.11897 0.0
Cd113 Cd 0.82809 0.78086 0.10068 0.0
O114 O 0.80814 0.83047 0.09138 0.0
C115 C 0.78773 0.83516 0.068 0.0
O116 O 0.77821 0.80923 0.04803 0.0
C117 C 0.87322 0.72151 0.12156 0.0
C118 C 0.80589 0.66533 0.20318 0.0
O119 O 0.82782 0.64419 0.19806 0.0
O120 O 0.7956 0.68316 0.17952 0.0
O121 O 0.73613 0.51526 0.77779 0.0
Cd122 Cd 0.74672 0.50571 0.83553 0.0
O123 O 0.69098 0.48633 0.77968 0.0
Cd124 Cd 0.64684 0.46221 0.75766 0.0
O125 O 0.60463 0.44497 0.72736 0.0
C126 C 0.59379 0.4142 0.72695 0.0
O127 O 0.60813 0.39218 0.74568 0.0
C128 C 0.71001 0.50374 0.76367 0.0
C129 C 0.76067 0.43831 0.84954 0.0
O130 O 0.7828 0.46047 0.84481 0.0
O131 O 0.73185 0.44786 0.84703 0.0
O132 O 0.60736 0.33465 0.27478 0.0
Cd133 Cd 0.57643 0.29414 0.23744 0.0
O134 O 0.6177 0.29737 0.31226 0.0
Cd135 Cd 0.58214 0.26057 0.28957 0.0
O136 O 0.53342 0.25382 0.30315 0.0
C137 C 0.52797 0.2342 0.32606 0.0
O138 O 0.55093 0.21523 0.33767 0.0
C139 C 0.62133 0.3273 0.30175 0.0
C140 C 0.61533 0.26754 0.19164 0.0
O141 O 0.60236 0.29649 0.18805 0.0
O142 O 0.60952 0.25075 0.21672 0.0
O143 O 0.27976 0.18006 0.92624 0.0
Cd144 Cd 0.30341 0.2361 0.91575 0.0
O145 O 0.23553 0.19677 0.90226 0.0
Cd146 Cd 0.18469 0.19628 0.88948 0.0
O147 O 0.13357 0.19355 0.89179 0.0
C148 C 0.12016 0.21803 0.90596 0.0
O149 O 0.13746 0.24504 0.91736 0.0
C150 C 0.25065 0.17386 0.9173 0.0
C151 C 0.30097 0.24889 0.84982 0.0
O152 O 0.32431 0.23353 0.86366 0.0
O153 O 0.27849 0.25821 0.86721 0.0
O154 O 0.36671 0.62498 0.26951 0.0
Cd155 Cd 0.31101 0.61192 0.24933 0.0
O156 O 0.37457 0.56949 0.26869 0.0
Cd157 Cd 0.32454 0.55254 0.262 0.0
O158 O 0.28912 0.52492 0.28814 0.0
C159 C 0.28636 0.49245 0.2845 0.0
O160 O 0.3023 0.47691 0.26232 0.0
C161 C 0.38544 0.60024 0.27319 0.0
C162 C 0.28186 0.65497 0.20449 0.0
O163 O 0.30114 0.63231 0.19555 0.0
O164 O 0.2771 0.65812 0.23477 0.0
O165 O 0.88219 0.85996 0.76825 0.0
Cd166 Cd 0.82843 0.86839 0.74403 0.0
O167 O 0.89587 0.90983 0.75047 0.0
Cd168 Cd 0.92443 0.95546 0.74022 0.0
O169 O 0.94195 0.00329 0.72052 0.0
C170 C 0.93347 0.03324 0.72876 0.0
O171 O 0.94373 0.05952 0.71304 0.0
C172 C 0.90316 0.88385 0.76672 0.0
C173 C 0.80821 0.82586 0.69016 0.0
O174 O 0.82005 0.85601 0.68652 0.0
O175 O 0.8067 0.81564 0.71913 0.0
H176 H 0.18877 0.91511 0.12405 0.0
H177 H 0.08372 0.00586 0.2549 0.0
H178 H 0.09435 0.95162 0.10247 0.0
H179 H 0.17957 0.97484 0.27802 0.0
H180 H 0.0884 0.98779 0.1984 0.0
H181 H 0.18695 0.93778 0.18012 0.0
C182 C 0.16773 0.92791 0.13098 0.0
C183 C 0.14166 0.93129 0.10837 0.0
C184 C 0.10861 0.98528 0.21569 0.0
C185 C 0.13944 0.95728 0.17249 0.0
C186 C 0.1061 -0.00381 0.24796 0.0
C187 C 0.13161 -0.00715 0.2711 0.0
C188 C 0.13673 0.97049 0.20642 0.0
C189 C 0.1594 0.97813 0.26088 0.0
C190 C 0.16671 0.94087 0.16301 0.0
C191 C 0.11504 0.94821 0.11888 0.0
N192 N 0.16124 0.96748 0.22931 0.0
N193 N 0.11463 0.96044 0.15006 0.0
H194 H 0.52671 0.63801 0.50144 0.0
H195 H 0.48522 0.73065 0.66426 0.0
H196 H 0.59511 0.70953 0.55174 0.0
H197 H 0.41426 0.70195 0.58662 0.0
H198 H 0.52677 0.7228 0.62602 0.0
H199 H 0.48586 0.65933 0.53513 0.0
C200 C 0.53307 0.65834 0.51961 0.0
C201 C 0.5643 0.67194 0.52399 0.0
C202 C 0.50204 0.71886 0.61737 0.0
C203 C 0.51767 0.69627 0.56297 0.0
C204 C 0.47832 0.72328 0.63913 0.0
C205 C 0.44619 0.71645 0.62876 0.0
C206 C 0.49349 0.70702 0.5853 0.0
C207 C 0.43866 0.70712 0.59588 0.0
C208 C 0.5097 0.67066 0.53869 0.0
C209 C 0.57122 0.69847 0.54766 0.0
N210 N 0.46213 0.70213 0.57552 0.0
N211 N 0.54813 0.70947 0.56674 0.0
H212 H 0.79505 0.05176 0.07236 0.0
H213 H 0.75512 0.85841 0.01374 0.0
H214 H 0.75523 0.02228 0.97598 0.0
H215 H 0.79553 0.89159 0.1092 0.0
H216 H 0.74399 0.91818 0.00257 0.0
H217 H 0.783 -0.00585 0.0897 0.0
C218 C 0.78293 0.03324 0.0551 0.0
C219 C 0.77628 0.04146 0.02272 0.0
C220 C 0.75483 0.91226 0.02613 0.0
C221 C 0.76362 0.97508 0.04188 0.0
C222 C 0.76123 0.87817 0.03251 0.0
C223 C 0.77691 0.87013 0.06219 0.0
C224 C 0.76416 0.93834 0.04964 0.0
C225 C 0.78401 0.89668 0.08573 0.0
C226 C 0.77623 0.00028 0.0649 0.0
C227 C 0.76063 0.01675 0.0012 0.0
N228 N 0.77791 0.92956 0.0788 0.0
N229 N 0.75546 0.98428 0.01098 0.0
H230 H 0.43676 0.40813 0.58111 0.0
H231 H 0.56308 0.35095 0.72051 0.0
H232 H 0.43469 0.30747 0.6209 0.0
H233 H 0.56048 0.45277 0.68349 0.0
H234 H 0.51689 0.33381 0.68356 0.0
H235 H 0.48311 0.42406 0.61761 0.0
C236 C 0.44607 0.38927 0.59743 0.0
C237 C 0.4317 0.35634 0.59784 0.0
C238 C 0.52644 0.35989 0.68357 0.0
C239 C 0.48497 0.37461 0.63996 0.0
C240 C 0.55281 0.3697 0.70465 0.0
C241 C 0.56568 0.40335 0.70511 0.0
C242 C 0.51293 0.38389 0.66277 0.0
C243 C 0.55138 0.42656 0.68403 0.0
C244 C 0.47258 0.39846 0.61836 0.0
C245 C 0.44494 0.33313 0.61968 0.0
N246 N 0.52583 0.41638 0.66372 0.0
N247 N 0.47082 0.34272 0.63988 0.0
H248 H 0.69293 0.52477 0.38537 0.0
H249 H 0.63527 0.32759 0.36735 0.0
H250 H 0.63524 0.47506 0.45316 0.0
H251 H 0.64418 0.38994 0.28428 0.0
H252 H 0.65255 0.37726 0.403 0.0
H253 H 0.69124 0.47091 0.35203 0.0
C254 C 0.68038 0.50238 0.39346 0.0
C255 C 0.6639 0.5043 0.42179 0.0
C256 C 0.65125 0.3798 0.37693 0.0
C257 C 0.66245 0.44301 0.3844 0.0
C258 C 0.64159 0.35147 0.35655 0.0
C259 C 0.63786 0.3548 0.3228 0.0
C260 C 0.65768 0.41147 0.36345 0.0
C261 C 0.64636 0.38642 0.31019 0.0
C262 C 0.67937 0.47184 0.37445 0.0
C263 C 0.64791 0.47469 0.43123 0.0
N264 N 0.65567 0.41368 0.33056 0.0
N265 N 0.64758 0.44524 0.41258 0.0
H266 H 0.93966 0.12755 0.94482 0.0
H267 H 0.08472 0.26305 0.93964 0.0
H268 H 0.94024 0.22929 0.9902 0.0
H269 H 0.07874 0.16419 0.88828 0.0
H270 H 0.03062 0.25304 0.95582 0.0
H271 H 0.9896 0.14209 0.92186 0.0
C272 C 0.95028 0.15299 0.95001 0.0
C273 C 0.93583 0.17713 0.96978 0.0
C274 C 0.04108 0.2337 0.94077 0.0
C275 C -0.00677 0.194 0.94338 0.0
C276 C 0.07194 0.2394 0.93149 0.0
C277 C 0.08639 0.21425 0.91287 0.0
C278 C 0.02469 0.20258 0.93146 0.0
C279 C 0.06867 0.18418 0.90287 0.0
C280 C 0.9788 0.16133 0.93673 0.0
C281 C 0.9506 0.20982 0.97524 0.0
N282 N 0.03886 0.17908 0.91252 0.0
N283 N 0.97865 0.21723 0.96228 0.0
H284 H 0.28339 0.34234 0.42481 0.0
H285 H 0.25618 0.51624 0.33732 0.0
H286 H 0.252 0.43375 0.47291 0.0
H287 H 0.28294 0.42262 0.28879 0.0
H288 H 0.24274 0.48346 0.38388 0.0
H289 H 0.27137 0.36747 0.37226 0.0
C290 C 0.27288 0.36729 0.4241 0.0
C291 C 0.26838 0.38603 0.45291 0.0
C292 C 0.25099 0.46997 0.36281 0.0
C293 C 0.25587 0.41563 0.39322 0.0
C294 C 0.25865 0.48869 0.33615 0.0
C295 C 0.27146 0.47228 0.30939 0.0
C296 C 0.25641 0.43465 0.36282 0.0
C297 C 0.27371 0.43648 0.30912 0.0
C298 C 0.26624 0.38179 0.39417 0.0
C299 C 0.25542 0.41849 0.45102 0.0
N300 N 0.26685 0.41897 0.33567 0.0
N301 N 0.25012 0.43258 0.42163 0.0
H302 H 0.05446 0.81321 0.89666 0.0
H303 H 0.94326 0.93653 0.79219 0.0
H304 H 0.05453 0.92333 0.91161 0.0
H305 H 0.9331 0.82616 0.78545 0.0
H306 H -0.0094 0.93212 0.82901 0.0
H307 H 0.01648 0.81751 0.84942 0.0
C308 C 0.04687 0.83831 0.8898 0.0
C309 C 0.05745 0.8679 0.90846 0.0
C310 C 0.97833 0.90881 0.81909 0.0
C311 C 0.01393 0.87298 0.85447 0.0
C312 C 0.95147 0.91135 0.79764 0.0
C313 C 0.93431 0.8817 0.78537 0.0
C314 C 0.98807 0.87637 0.82853 0.0
C315 C 0.94557 0.84971 0.79439 0.0
C316 C 0.02508 0.84073 0.86289 0.0
C317 C 0.04674 0.89974 0.89831 0.0
N318 N 0.97159 0.84789 0.81555 0.0
N319 N 0.02548 0.90139 0.87221 0.0
H320 H 0.81498 0.12711 0.86783 0.0
H321 H 0.92961 -0.0031 0.78366 0.0
H322 H 0.85473 0.03889 0.91304 0.0
H323 H 0.89095 0.08389 0.73565 0.0
H324 H 0.89656 0.00823 0.82859 0.0
H325 H 0.83625 0.10801 0.81651 0.0
C326 C 0.82755 0.10338 0.86678 0.0
C327 C 0.83346 0.0848 0.89482 0.0
C328 C 0.89484 0.02461 0.80805 0.0
C329 C 0.85811 0.06308 0.83656 0.0
C330 C 0.91344 0.01777 0.78211 0.0
C331 C 0.91242 0.03889 0.75548 0.0
C332 C 0.8754 0.05319 0.8077 0.0
C333 C 0.89232 0.06687 0.75572 0.0
C334 C 0.83989 0.09262 0.83759 0.0
C335 C 0.85003 0.05431 0.89215 0.0
N336 N 0.87468 0.07332 0.78149 0.0
N337 N 0.86199 0.04463 0.86371 0.0
H338 H 0.38931 0.33794 0.43032 0.0
H339 H 0.50819 0.19641 0.37579 0.0
H340 H 0.40244 0.2432 0.47928 0.0
H341 H 0.48222 0.28194 0.31765 0.0
H342 H 0.46619 0.21042 0.41141 0.0
H343 H 0.42025 0.31589 0.38673 0.0
C344 C 0.3985 0.31242 0.43184 0.0
C345 C 0.39355 0.2926 0.45877 0.0
C346 C 0.46936 0.22584 0.39059 0.0
C347 C 0.42913 0.26722 0.4089 0.0
C348 C 0.49333 0.2178 0.37019 0.0
C349 C 0.49904 0.2383 0.34394 0.0
C350 C 0.45122 0.25483 0.38493 0.0
C351 C 0.47886 0.26557 0.33776 0.0
C352 C 0.41609 0.29978 0.40685 0.0
C353 C 0.4058 0.25955 0.45916 0.0
N354 N 0.45618 0.27336 0.3584 0.0
N355 N 0.42331 0.24808 0.43482 0.0
H356 H 0.21711 0.97837 -0.00157 0.0
H357 H 0.19733 0.13889 0.88758 0.0
H358 H 0.12629 -0.00161 0.94919 0.0
H359 H 0.26891 0.13371 0.96695 0.0
H360 H 0.17238 0.08554 0.90453 0.0
H361 H 0.23833 0.03243 0.98097 0.0
C362 C 0.20154 -0.00596 0.98377 0.0
C363 C 0.16974 0.98361 0.97528 0.0
C364 C 0.19333 0.09641 0.91837 0.0
C365 C 0.19428 0.04619 0.9551 0.0
C366 C 0.20739 0.12714 0.90899 0.0
C367 C 0.2348 0.14149 0.92641 0.0
C368 C 0.20725 0.07956 0.94487 0.0
C369 C 0.24777 0.12379 0.95282 0.0
C370 C 0.21374 0.02513 0.97395 0.0
C371 C 0.15089 0.00541 0.95638 0.0
N372 N 0.23396 0.09383 0.96114 0.0
N373 N 0.1635 0.03569 0.94675 0.0
H374 H 0.55643 0.67744 0.38553 0.0
H375 H 0.43205 0.55345 0.27777 0.0
H376 H 0.55966 0.56697 0.37955 0.0
H377 H 0.41553 0.66045 0.29831 0.0
H378 H 0.48441 0.5608 0.30635 0.0
H379 H 0.51039 0.67407 0.34564 0.0
C380 C 0.54782 0.65253 0.37549 0.0
C381 C 0.56181 0.62241 0.38618 0.0
C382 C 0.46951 0.5828 0.3044 0.0
C383 C 0.50917 0.61844 0.34056 0.0
C384 C 0.43955 0.57866 0.28796 0.0
C385 C 0.41906 0.60628 0.28594 0.0
C386 C 0.47929 0.61479 0.31914 0.0
C387 C 0.43041 0.63839 0.2994 0.0
C388 C 0.52143 0.65064 0.35285 0.0
C389 C 0.5495 0.59086 0.37236 0.0
N390 N 0.45964 0.64169 0.31575 0.0
N391 N 0.52388 0.58973 0.35046 0.0
H392 H 0.2611 0.44961 0.59632 0.0
H393 H 0.37663 0.58386 0.70232 0.0
H394 H 0.36364 0.45032 0.60037 0.0
H395 H 0.283 0.6121 0.66603 0.0
H396 H 0.36716 0.52736 0.67583 0.0
H397 H 0.26444 0.50276 0.63116 0.0
C398 C 0.28421 0.46079 0.60466 0.0
C399 C 0.31213 0.44575 0.59519 0.0
C400 C 0.34854 0.54579 0.67387 0.0
C401 C 0.31605 0.50561 0.63527 0.0
C402 C 0.35386 0.5781 0.68912 0.0
C403 C 0.33077 0.60309 0.68603 0.0
C404 C 0.31987 0.53806 0.65534 0.0
C405 C 0.30157 0.59373 0.66886 0.0
C406 C 0.28608 0.49104 0.6244 0.0
C407 C 0.34148 0.46123 0.60667 0.0
N408 N 0.29702 0.56199 0.65384 0.0
N409 N 0.34264 0.49012 0.62612 0.0
H410 H 0.05264 0.77073 0.04477 0.0
H411 H 0.88211 0.79183 0.11562 0.0
H412 H 0.00875 0.86886 0.05254 0.0
H413 H 0.929 0.69592 0.10434 0.0
H414 H 0.92817 0.82161 0.09501 0.0
H415 H 0.00802 0.74433 0.06942 0.0
C416 C 0.03361 0.78687 0.0517 0.0
C417 C 0.03448 0.82216 0.04623 0.0
C418 C 0.92827 0.79404 0.09703 0.0
C419 C 0.98269 0.79166 0.07473 0.0
C420 C 0.90177 0.77693 0.10843 0.0
C421 C 0.90119 0.74111 0.11096 0.0
C422 C 0.95442 0.7752 0.08827 0.0
C423 C 0.92816 0.72349 0.10268 0.0
C424 C 0.00801 0.77167 0.06588 0.0
C425 C 0.00911 0.84158 0.0562 0.0
N426 N 0.95345 0.74063 0.09161 0.0
N427 N 0.98411 0.82603 0.0698 0.0
H428 H 0.721 0.55376 0.56294 0.0
H429 H 0.65166 0.51624 0.73385 0.0
H430 H 0.62112 0.55722 0.57951 0.0
H431 H 0.75071 0.50956 0.71558 0.0
H432 H 0.63954 0.5291 0.67703 0.0
H433 H 0.73184 0.53568 0.6182 0.0
C434 C 0.70126 0.55061 0.57811 0.0
C435 C 0.67005 0.55719 0.56643 0.0
C436 C 0.66388 0.52444 0.68531 0.0
C437 C 0.68247 0.53649 0.63012 0.0
C438 C 0.67075 0.51659 0.71768 0.0
C439 C 0.70211 0.51079 0.72921 0.0
C440 C 0.68863 0.52692 0.66438 0.0
C441 C 0.72617 0.51358 0.70759 0.0
C442 C 0.70753 0.54026 0.60976 0.0
C443 C 0.64555 0.5525 0.58738 0.0
N444 N 0.71893 0.52139 0.67622 0.0
N445 N 0.65231 0.54258 0.61823 0.0
H446 H 0.91153 0.18956 0.11008 0.0
H447 H 0.95783 0.0454 0.2357 0.0
H448 H 0.87101 0.08642 0.10427 0.0
H449 H 0.02012 0.13217 0.21983 0.0
H450 H 0.91812 0.06713 0.19662 0.0
H451 H 0.94355 0.17561 0.15961 0.0
C452 C 0.90883 0.1643 0.11969 0.0
C453 C 0.88888 0.13898 0.10306 0.0
C454 C 0.94038 0.08156 0.20191 0.0
C455 C 0.92516 0.12295 0.15923 0.0
C456 C 0.96307 0.0692 0.22424 0.0
C457 C -0.00746 0.08675 0.23073 0.0
C458 C 0.94705 0.11183 0.18606 0.0
C459 C -0.00214 0.1176 0.21526 0.0
C460 C 0.92724 0.15629 0.1477 0.0
C461 C 0.88639 0.10655 0.11626 0.0
N462 N 0.97539 0.12909 0.19347 0.0
N463 N 0.90443 0.09942 0.14346 0.0
H464 H 0.2353 0.79245 0.05185 0.0
H465 H 0.22554 0.68698 0.20982 0.0
H466 H 0.14421 0.76024 0.08371 0.0
H467 H 0.2994 0.67076 0.14423 0.0
H468 H 0.19727 0.72085 0.16884 0.0
H469 H 0.26135 0.75449 0.09034 0.0
C470 C 0.22079 0.77724 0.06692 0.0
C471 C 0.18757 0.7794 0.06464 0.0
C472 C 0.21961 0.70974 0.16349 0.0
C473 C 0.21729 0.73654 0.10914 0.0
C474 C 0.23588 0.6907 0.18688 0.0
C475 C 0.26492 0.67616 0.18041 0.0
C476 C 0.2329 0.71496 0.1338 0.0
C477 C 0.27709 0.6815 0.15019 0.0
C478 C 0.23566 0.75556 0.08876 0.0
C479 C 0.16987 0.75909 0.08463 0.0
N480 N 0.2612 0.70079 0.12814 0.0
N481 N 0.185 0.73879 0.10647 0.0
H482 H 0.70463 0.74923 0.51215 0.0
H483 H 0.79472 0.75691 0.68811 0.0
H484 H 0.74084 0.65984 0.55849 0.0
H485 H 0.79223 0.84488 0.62811 0.0
H486 H 0.77081 0.72146 0.64213 0.0
H487 H 0.73254 0.78559 0.55574 0.0
C488 C 0.71849 0.73726 0.53136 0.0
C489 C 0.72036 0.70141 0.53161 0.0
C490 C 0.77568 0.74848 0.63895 0.0
C491 C 0.75196 0.74275 0.58156 0.0
C492 C 0.78926 0.76874 0.66521 0.0
C493 C 0.79547 0.80389 0.66192 0.0
C494 C 0.76774 0.76353 0.6093 0.0
C495 C 0.78794 0.81784 0.63164 0.0
C496 C 0.73448 0.75801 0.55612 0.0
C497 C 0.73877 0.68733 0.55712 0.0
N498 N 0.77417 0.79768 0.60653 0.0
N499 N 0.75358 0.70798 0.58114 0.0
H500 H 0.77011 0.25001 0.06779 0.0
H501 H 0.63291 0.20132 0.1808 0.0
H502 H 0.72117 0.1509 0.05717 0.0
H503 H 0.6477 0.30422 0.14902 0.0
H504 H 0.67065 0.18095 0.14225 0.0
H505 H 0.73094 0.26917 0.10496 0.0
C506 C 0.75119 0.23225 0.07339 0.0
C507 C 0.74881 0.19884 0.05936 0.0
C508 C 0.66544 0.20793 0.14371 0.0
C509 C 0.70427 0.2205 0.10203 0.0
C510 C 0.64407 0.21958 0.1657 0.0
C511 C 0.63718 0.25449 0.16801 0.0
C512 C 0.68051 0.23153 0.12456 0.0
C513 C 0.65222 0.27707 0.14788 0.0
C514 C 0.7288 0.24326 0.09442 0.0
C515 C 0.72371 0.17694 0.06732 0.0
N516 N 0.67344 0.26526 0.12721 0.0
N517 N 0.7025 0.18806 0.0884 0.0
H518 H 0.26105 0.32404 0.65603 0.0
H519 H 0.34335 0.22891 0.80652 0.0
H520 H 0.34306 0.26096 0.65146 0.0
H521 H 0.25723 0.28474 0.81347 0.0
H522 H 0.34296 0.2412 0.74928 0.0
H523 H 0.25843 0.31064 0.7134 0.0
C524 C 0.2784 0.30734 0.66695 0.0
C525 C 0.30235 0.29372 0.64878 0.0
C526 C 0.32405 0.25077 0.7632 0.0
C527 C 0.29952 0.27842 0.71425 0.0
C528 C 0.3243 0.24375 0.79599 0.0
C529 C 0.30032 0.25585 0.81486 0.0
C530 C 0.29971 0.27018 0.74901 0.0
C531 C 0.2762 0.27492 0.79979 0.0
C532 C 0.27689 0.29973 0.69968 0.0
C533 C 0.32419 0.27223 0.6643 0.0
N534 N 0.27654 0.2816 0.76772 0.0
N535 N 0.32226 0.26538 0.696 0.0
H536 H 0.75626 0.62557 0.39712 0.0
H537 H 0.75471 0.70215 0.22025 0.0
H538 H 0.68112 0.6882 0.35868 0.0
H539 H 0.82478 0.63352 0.25864 0.0
H540 H 0.72962 0.70177 0.272 0.0
H541 H 0.78364 0.63266 0.34795 0.0
C542 C 0.74547 0.64095 0.37839 0.0
C543 C 0.7161 0.65611 0.38211 0.0
C544 C 0.75059 0.68698 0.26912 0.0
C545 C 0.74765 0.6643 0.32525 0.0
C546 C 0.76499 0.68724 0.23963 0.0
C547 C 0.79182 0.66769 0.23503 0.0
C548 C 0.76317 0.66709 0.2942 0.0
C549 C 0.80407 0.64885 0.26098 0.0
C550 C 0.76122 0.64499 0.35021 0.0
C551 C 0.70362 0.67594 0.3569 0.0
N552 N 0.78959 0.64894 0.28933 0.0
N553 N 0.71939 0.67932 0.32945 0.0
H554 H 0.75192 0.2311 0.91734 0.0
H555 H 0.81943 0.41268 0.86347 0.0
H556 H 0.84711 0.27163 0.94369 0.0
H557 H 0.71938 0.38415 0.85797 0.0
H558 H 0.83141 0.35646 0.88413 0.0
H559 H 0.74125 0.28249 0.88677 0.0
C560 C 0.77069 0.25056 0.91638 0.0
C561 C 0.80036 0.24719 0.93339 0.0
C562 C 0.80685 0.36242 0.87821 0.0
C563 C 0.7883 0.30593 0.89849 0.0
C564 C 0.79998 0.39449 0.86632 0.0
C565 C 0.76832 0.40328 0.85927 0.0
C566 C 0.78191 0.33883 0.88295 0.0
C567 C 0.74411 0.37858 0.86335 0.0
C568 C 0.76453 0.27994 0.89906 0.0
C569 C 0.82377 0.27328 0.9313 0.0
N570 N 0.7514 0.34752 0.87508 0.0
N571 N 0.8172 0.30155 0.91431 0.0
H572 H 0.30177 0.19878 0.51308 0.0
H573 H 0.14135 0.12208 0.41863 0.0
H574 H 0.21778 0.25826 0.49817 0.0
H575 H 0.22466 0.06372 0.44107 0.0
H576 H 0.16863 0.17277 0.44608 0.0
H577 H 0.27352 0.14973 0.48546 0.0
C578 C 0.27732 0.20162 0.50403 0.0
C579 C 0.2622 0.2329 0.50803 0.0
C580 C 0.18089 0.14886 0.44495 0.0
C581 C 0.22949 0.17624 0.47605 0.0
C582 C 0.16538 0.11993 0.42924 0.0
C583 C 0.18075 0.08858 0.42755 0.0
C584 C 0.21199 0.14638 0.45898 0.0
C585 C 0.21185 0.08729 0.44176 0.0
C586 C 0.26115 0.17343 0.4882 0.0
C587 C 0.2304 0.23469 0.49573 0.0
N588 N 0.22638 0.11572 0.45683 0.0
N589 N 0.21509 0.20674 0.48022 0.0
H590 H 0.21958 0.87427 0.91467 0.0
H591 H 0.29925 0.71789 0.82659 0.0
H592 H 0.19538 0.76915 0.93376 0.0
H593 H 0.27173 0.80632 0.7734 0.0
H594 H 0.27201 0.74051 0.87303 0.0
H595 H 0.24979 0.85376 0.86908 0.0
C596 C 0.22089 0.84695 0.90944 0.0
C597 C 0.2049 0.82332 0.9278 0.0
C598 C 0.27206 0.75495 0.85118 0.0
C599 C 0.23959 0.79993 0.87655 0.0
C600 C 0.28762 0.74214 0.82476 0.0
C601 C 0.28753 0.76017 0.79607 0.0
C602 C 0.25703 0.78641 0.84921 0.0
C603 C 0.27208 0.79149 0.795 0.0
C604 C 0.23789 0.83534 0.88343 0.0
C605 C 0.20716 0.78819 0.92 0.0
N606 N 0.2576 0.8038 0.82131 0.0
N607 N 0.22438 0.77754 0.89513 0.0
loop_
_geom_bond_atom_site_label_1
_geom_bond_atom_site_label_2
_geom_bond_distance
_geom_bond_site_symmetry_2
_ccdc_geom_bond_type
Sc0 O3 2.025 . S
Sc0 O10 2.105 1_554 S
Sc0 O13 2.105 . S
Sc0 O16 2.105 . S
Sc0 O19 2.105 1_554 S
Sc1 O3 2.025 1_556 S
Sc1 O11 2.105 . S
Sc1 O15 2.105 1_556 S
Sc1 O17 2.105 1_556 S
Sc1 O21 2.105 . S
Sc2 O3 2.025 . S
Sc2 O12 2.105 1_554 S
Sc2 O14 2.105 . S
Sc2 O18 2.105 . S
Sc2 O20 2.105 1_554 S
O3 Sc0 2.025 . S
O3 Sc1 2.025 1_554 S
O3 Sc2 2.025 . S
C4 O10 1.268 . S
C4 O20 1.268 . S
C5 O11 1.268 . S
C5 O19 1.268 . S
C6 O12 1.268 . S
C6 O21 1.268 . S
C7 O13 1.268 . S
C7 O17 1.268 . S
C8 O14 1.268 . S
C8 O16 1.268 . S
C9 O15 1.268 . S
C9 O18 1.268 . S
O10 Sc0 2.105 1_556 S
O10 C4 1.268 . S
O11 Sc1 2.105 . S
O11 C5 1.268 . S
O12 Sc2 2.105 1_556 S
O12 C6 1.268 . S
O13 Sc0 2.105 . S
O13 C7 1.268 . S
O14 Sc2 2.105 . S
O14 C8 1.268 . S
O15 Sc1 2.105 1_554 S
O15 C9 1.268 . S
O16 Sc0 2.105 . S
O16 C8 1.268 . S
O17 Sc1 2.105 1_554 S
O17 C7 1.268 . S
O18 Sc2 2.105 . S
O18 C9 1.268 . S
O19 Sc0 2.105 1_556 S
O19 C5 1.268 . S
O20 Sc2 2.105 1_556 S
O20 C4 1.268 . S
O21 Sc1 2.105 . S
O21 C6 1.268 . S
Sc22 O25 2.025 . S
Sc22 O32 2.105 . S
Sc22 O35 2.105 . S
Sc22 O38 2.105 . S
Sc22 O41 2.105 . S
Sc23 O25 2.025 . S
Sc23 O33 2.105 . S
Sc23 O37 2.105 . S
Sc23 O39 2.105 . S
Sc23 O43 2.105 . S
Sc24 O25 2.025 . S
Sc24 O34 2.105 . S
Sc24 O36 2.105 . S
Sc24 O40 2.105 . S
Sc24 O42 2.105 . S
O25 Sc22 2.025 . S
O25 Sc23 2.025 . S
O25 Sc24 2.025 . S
C26 O32 1.268 . S
C26 O42 1.268 . S
C27 O33 1.268 . S
C27 O41 1.268 . S
C28 O34 1.268 . S
C28 O43 1.268 . S
C29 O35 1.268 . S
C29 O39 1.268 . S
C30 O36 1.268 . S
C30 O38 1.268 . S
C31 O37 1.268 . S
C31 O40 1.268 . S
O32 Sc22 2.105 . S
O32 C26 1.268 . S
O33 Sc23 2.105 . S
O33 C27 1.268 . S
O34 Sc24 2.105 . S
O34 C28 1.268 . S
O35 Sc22 2.105 . S
O35 C29 1.268 . S
O36 Sc24 2.105 . S
O36 C30 1.268 . S
O37 Sc23 2.105 . S
O37 C31 1.268 . S
O38 Sc22 2.105 . S
O38 C30 1.268 . S
O39 Sc23 2.105 . S
O39 C29 1.268 . S
O40 Sc24 2.105 . S
O40 C31 1.268 . S
O41 Sc22 2.105 . S
O41 C27 1.268 . S
O42 Sc24 2.105 . S
O42 C26 1.268 . S
O43 Sc23 2.105 . S
O43 C28 1.268 . S
Sc44 O47 2.025 . S
Sc44 O54 2.105 . S
Sc44 O57 2.105 . S
Sc44 O60 2.105 . S
Sc44 O63 2.105 . S
Sc45 O47 2.025 . S
Sc45 O55 2.105 1_554 S
Sc45 O59 2.105 . S
Sc45 O61 2.105 . S
Sc45 O65 2.105 1_554 S
Sc46 O47 2.025 . S
Sc46 O56 2.105 1_554 S
Sc46 O58 2.105 . S
Sc46 O62 2.105 . S
Sc46 O64 2.105 1_554 S
O47 Sc44 2.025 . S
O47 Sc45 2.025 . S
O47 Sc46 2.025 . S
C48 O54 1.268 1_556 S
C48 O64 1.268 . S
C49 O55 1.268 . S
C49 O63 1.268 1_556 S
C50 O56 1.268 . S
C50 O65 1.268 . S
C51 O57 1.268 . S
C51 O61 1.268 . S
C52 O58 1.268 . S
C52 O60 1.268 . S
C53 O59 1.268 . S
C53 O62 1.268 . S
O54 Sc44 2.105 . S
O54 C48 1.268 1_554 S
O55 Sc45 2.105 1_556 S
O55 C49 1.268 . S
O56 Sc46 2.105 1_556 S
O56 C50 1.268 . S
O57 Sc44 2.105 . S
O57 C51 1.268 . S
O58 Sc46 2.105 . S
O58 C52 1.268 . S
O59 Sc45 2.105 . S
O59 C53 1.268 . S
O60 Sc44 2.105 . S
O60 C52 1.268 . S
O61 Sc45 2.105 . S
O61 C51 1.268 . S
O62 Sc46 2.105 . S
O62 C53 1.268 . S
O63 Sc44 2.105 . S
O63 C49 1.268 1_554 S
O64 Sc46 2.105 1_556 S
O64 C48 1.268 . S
O65 Sc45 2.105 1_556 S
O65 C50 1.268 . S
Sc66 O69 2.025 . S
Sc66 O76 2.105 . S
Sc66 O79 2.105 . S
Sc66 O82 2.105 . S
Sc66 O85 2.105 . S
Sc67 O69 2.025 . S
Sc67 O77 2.105 . S
Sc67 O81 2.105 . S
Sc67 O83 2.105 . S
Sc67 O87 2.105 . S
Sc68 O69 2.025 . S
Sc68 O78 2.105 . S
Sc68 O80 2.105 . S
Sc68 O84 2.105 . S
Sc68 O86 2.105 . S
O69 Sc66 2.025 . S
O69 Sc67 2.025 . S
O69 Sc68 2.025 . S
C70 O76 1.268 . S
C70 O86 1.268 . S
C71 O77 1.268 . S
C71 O85 1.268 . S
C72 O78 1.268 . S
C72 O87 1.268 . S
C73 O79 1.268 . S
C73 O83 1.268 . S
C74 O80 1.268 . S
C74 O82 1.268 . S
C75 O81 1.268 . S
C75 O84 1.268 . S
O76 Sc66 2.105 . S
O76 C70 1.268 . S
O77 Sc67 2.105 . S
O77 C71 1.268 . S
O78 Sc68 2.105 . S
O78 C72 1.268 . S
O79 Sc66 2.105 . S
O79 C73 1.268 . S
O80 Sc68 2.105 . S
O80 C74 1.268 . S
O81 Sc67 2.105 . S
O81 C75 1.268 . S
O82 Sc66 2.105 . S
O82 C74 1.268 . S
O83 Sc67 2.105 . S
O83 C73 1.268 . S
O84 Sc68 2.105 . S
O84 C75 1.268 . S
O85 Sc66 2.105 . S
O85 C71 1.268 . S
O86 Sc68 2.105 . S
O86 C70 1.268 . S
O87 Sc67 2.105 . S
O87 C72 1.268 . S
O88 Cd89 2.300 . S
O88 C95 1.275 . S
Cd89 O88 2.300 . S
Cd89 O97 2.381 . S
Cd89 O98 2.378 . S
O90 Cd91 2.385 . S
O90 C95 1.255 . S
Cd91 O90 2.385 . S
Cd91 O92 2.317 . S
O92 Cd91 2.317 . S
O92 C93 1.232 . S
C93 O92 1.232 . S
C93 O94 1.218 . S
O94 C93 1.218 . S
C95 O88 1.275 . S
C95 O90 1.255 . S
C96 O97 1.258 . S
C96 O98 1.256 . S
O97 Cd89 2.381 . S
O97 C96 1.258 . S
O98 Cd89 2.378 . S
O98 C96 1.256 . S
O99 Cd100 2.300 . S
O99 C106 1.275 . S
Cd100 O99 2.300 . S
Cd100 O108 2.381 . S
Cd100 O109 2.378 . S
O101 Cd102 2.385 . S
O101 C106 1.255 . S
Cd102 O101 2.385 . S
Cd102 O103 2.317 . S
O103 Cd102 2.317 . S
O103 C104 1.232 . S
C104 O103 1.232 . S
C104 O105 1.218 . S
O105 C104 1.218 . S
C106 O99 1.275 . S
C106 O101 1.255 . S
C107 O108 1.258 . S
C107 O109 1.256 . S
O108 Cd100 2.381 . S
O108 C107 1.258 . S
O109 Cd100 2.378 . S
O109 C107 1.256 . S
O110 Cd111 2.300 . S
O110 C117 1.275 . S
Cd111 O110 2.300 . S
Cd111 O119 2.381 . S
Cd111 O120 2.378 . S
O112 Cd113 2.385 . S
O112 C117 1.255 . S
Cd113 O112 2.385 . S
Cd113 O114 2.317 . S
O114 Cd113 2.317 . S
O114 C115 1.232 . S
C115 O114 1.232 . S
C115 O116 1.218 . S
O116 C115 1.218 . S
C117 O110 1.275 . S
C117 O112 1.255 . S
C118 O119 1.258 . S
C118 O120 1.256 . S
O119 Cd111 2.381 . S
O119 C118 1.258 . S
O120 Cd111 2.378 . S
O120 C118 1.256 . S
O121 Cd122 2.300 . S
O121 C128 1.275 . S
Cd122 O121 2.300 . S
Cd122 O130 2.381 . S
Cd122 O131 2.378 . S
O123 Cd124 2.385 . S
O123 C128 1.255 . S
Cd124 O123 2.385 . S
Cd124 O125 2.317 . S
O125 Cd124 2.317 . S
O125 C126 1.232 . S
C126 O125 1.232 . S
C126 O127 1.218 . S
O127 C126 1.218 . S
C128 O121 1.275 . S
C128 O123 1.255 . S
C129 O130 1.258 . S
C129 O131 1.256 . S
O130 Cd122 2.381 . S
O130 C129 1.258 . S
O131 Cd122 2.378 . S
O131 C129 1.256 . S
O132 Cd133 2.300 . S
O132 C139 1.275 . S
Cd133 O132 2.300 . S
Cd133 O141 2.381 . S
Cd133 O142 2.378 . S
O134 Cd135 2.385 . S
O134 C139 1.255 . S
Cd135 O134 2.385 . S
Cd135 O136 2.317 . S
O136 Cd135 2.317 . S
O136 C137 1.232 . S
C137 O136 1.232 . S
C137 O138 1.218 . S
O138 C137 1.218 . S
C139 O132 1.275 . S
C139 O134 1.255 . S
C140 O141 1.258 . S
C140 O142 1.256 . S
O141 Cd133 2.381 . S
O141 C140 1.258 . S
O142 Cd133 2.378 . S
O142 C140 1.256 . S
O143 Cd144 2.300 . S
O143 C150 1.275 . S
Cd144 O143 2.300 . S
Cd144 O152 2.381 . S
Cd144 O153 2.378 . S
O145 Cd146 2.385 . S
O145 C150 1.255 . S
Cd146 O145 2.385 . S
Cd146 O147 2.317 . S
O147 Cd146 2.317 . S
O147 C148 1.232 . S
C148 O147 1.232 . S
C148 O149 1.218 . S
O149 C148 1.218 . S
C150 O143 1.275 . S
C150 O145 1.255 . S
C151 O152 1.258 . S
C151 O153 1.256 . S
O152 Cd144 2.381 . S
O152 C151 1.258 . S
O153 Cd144 2.378 . S
O153 C151 1.256 . S
O154 Cd155 2.300 . S
O154 C161 1.275 . S
Cd155 O154 2.300 . S
Cd155 O163 2.381 . S
Cd155 O164 2.378 . S
O156 Cd157 2.385 . S
O156 C161 1.255 . S
Cd157 O156 2.385 . S
Cd157 O158 2.317 . S
O158 Cd157 2.317 . S
O158 C159 1.232 . S
C159 O158 1.232 . S
C159 O160 1.218 . S
O160 C159 1.218 . S
C161 O154 1.275 . S
C161 O156 1.255 . S
C162 O163 1.258 . S
C162 O164 1.256 . S
O163 Cd155 2.381 . S
O163 C162 1.258 . S
O164 Cd155 2.378 . S
O164 C162 1.256 . S
O165 Cd166 2.300 . S
O165 C172 1.275 . S
Cd166 O165 2.300 . S
Cd166 O174 2.381 . S
Cd166 O175 2.378 . S
O167 Cd168 2.385 . S
O167 C172 1.255 . S
Cd168 O167 2.385 . S
Cd168 O169 2.317 . S
O169 Cd168 2.317 . S
O169 C170 1.232 . S
C170 O169 1.232 . S
C170 O171 1.218 . S
O171 C170 1.218 . S
C172 O165 1.275 . S
C172 O167 1.255 . S
C173 O174 1.258 . S
C173 O175 1.256 . S
O174 Cd166 2.381 . S
O174 C173 1.258 . S
O175 Cd166 2.378 . S
O175 C173 1.256 . S
H176 C182 0.930 . S
H177 C186 0.930 . S
H178 C191 0.929 . S
H179 C189 0.929 . S
H180 C184 0.929 . S
H181 C190 0.929 . S
C182 H176 0.930 . S
C182 C183 1.367 . S
C182 C190 1.378 . S
C183 C182 1.367 . S
C183 C191 1.433 . S
C184 H180 0.929 . S
C184 C186 1.378 . S
C184 C188 1.350 1_545 S
C185 C188 1.463 . S
C185 C190 1.350 . S
C185 N193 1.427 . S
C186 H177 0.930 . S
C186 C184 1.378 . S
C186 C187 1.367 . S
C187 C186 1.367 . S
C187 C189 1.433 1_545 S
C188 C184 1.350 1_565 S
C188 C185 1.463 . S
C188 N192 1.427 . S
C189 H179 0.929 . S
C189 C187 1.433 1_565 S
C189 N192 1.384 . S
C190 H181 0.929 . S
C190 C182 1.378 . S
C190 C185 1.350 . S
C191 H178 0.929 . S
C191 C183 1.433 . S
C191 N193 1.384 . S
N192 C188 1.427 . S
N192 C189 1.384 . S
N193 C185 1.427 . S
N193 C191 1.384 . S
H194 C200 0.930 . S
H195 C204 0.930 . S
H196 C209 0.929 . S
H197 C207 0.929 . S
H198 C202 0.929 . S
H199 C208 0.929 . S
C200 H194 0.930 . S
C200 C201 1.367 . S
C200 C208 1.378 . S
C201 C200 1.367 . S
C201 C209 1.433 . S
C202 H198 0.929 . S
C202 C204 1.378 . S
C202 C206 1.350 . S
C203 C206 1.463 . S
C203 C208 1.350 . S
C203 N211 1.427 . S
C204 H195 0.930 . S
C204 C202 1.378 . S
C204 C205 1.367 . S
C205 C204 1.367 . S
C205 C207 1.433 . S
C206 C202 1.350 . S
C206 C203 1.463 . S
C206 N210 1.427 . S
C207 H197 0.929 . S
C207 C205 1.433 . S
C207 N210 1.384 . S
C208 H199 0.929 . S
C208 C200 1.378 . S
C208 C203 1.350 . S
C209 H196 0.929 . S
C209 C201 1.433 . S
C209 N211 1.384 . S
N210 C206 1.427 . S
N210 C207 1.384 . S
N211 C203 1.427 . S
N211 C209 1.384 . S
H212 C218 0.930 . S
H213 C222 0.930 . S
H214 C227 0.929 . S
H215 C225 0.929 . S
H216 C220 0.929 . S
H217 C226 0.929 . S
C218 H212 0.930 . S
C218 C219 1.367 . S
C218 C226 1.378 1_545 S
C219 C218 1.367 . S
C219 C227 1.433 . S
C220 H216 0.929 . S
C220 C222 1.378 . S
C220 C224 1.350 . S
C221 C224 1.463 . S
C221 C226 1.350 . S
C221 N229 1.427 . S
C222 H213 0.930 . S
C222 C220 1.378 . S
C222 C223 1.367 . S
C223 C222 1.367 . S
C223 C225 1.433 . S
C224 C220 1.350 . S
C224 C221 1.463 . S
C224 N228 1.427 . S
C225 H215 0.929 . S
C225 C223 1.433 . S
C225 N228 1.384 . S
C226 H217 0.929 . S
C226 C218 1.378 1_565 S
C226 C221 1.350 . S
C227 H214 0.929 . S
C227 C219 1.433 . S
C227 N229 1.384 1_545 S
N228 C224 1.427 . S
N228 C225 1.384 . S
N229 C221 1.427 . S
N229 C227 1.384 1_565 S
H230 C236 0.930 . S
H231 C240 0.930 . S
H232 C245 0.929 . S
H233 C243 0.929 . S
H234 C238 0.929 . S
H235 C244 0.929 . S
C236 H230 0.930 . S
C236 C237 1.367 . S
C236 C244 1.378 . S
C237 C236 1.367 . S
C237 C245 1.433 . S
C238 H234 0.929 . S
C238 C240 1.378 . S
C238 C242 1.350 . S
C239 C242 1.463 . S
C239 C244 1.350 . S
C239 N247 1.427 . S
C240 H231 0.930 . S
C240 C238 1.378 . S
C240 C241 1.367 . S
C241 C240 1.367 . S
C241 C243 1.433 . S
C242 C238 1.350 . S
C242 C239 1.463 . S
C242 N246 1.427 . S
C243 H233 0.929 . S
C243 C241 1.433 . S
C243 N246 1.384 . S
C244 H235 0.929 . S
C244 C236 1.378 . S
C244 C239 1.350 . S
C245 H232 0.929 . S
C245 C237 1.433 . S
C245 N247 1.384 . S
N246 C242 1.427 . S
N246 C243 1.384 . S
N247 C239 1.427 . S
N247 C245 1.384 . S
H248 C254 0.930 . S
H249 C258 0.930 . S
H250 C263 0.929 . S
H251 C261 0.929 . S
H252 C256 0.929 . S
H253 C262 0.929 . S
C254 H248 0.930 . S
C254 C255 1.367 . S
C254 C262 1.378 . S
C255 C254 1.367 . S
C255 C263 1.433 . S
C256 H252 0.929 . S
C256 C258 1.378 . S
C256 C260 1.350 . S
C257 C260 1.463 . S
C257 C262 1.350 . S
C257 N265 1.427 . S
C258 H249 0.930 . S
C258 C256 1.378 . S
C258 C259 1.367 . S
C259 C258 1.367 . S
C259 C261 1.433 . S
C260 C256 1.350 . S
C260 C257 1.463 . S
C260 N264 1.427 . S
C261 H251 0.929 . S
C261 C259 1.433 . S
C261 N264 1.384 . S
C262 H253 0.929 . S
C262 C254 1.378 . S
C262 C257 1.350 . S
C263 H250 0.929 . S
C263 C255 1.433 . S
C263 N265 1.384 . S
N264 C260 1.427 . S
N264 C261 1.384 . S
N265 C257 1.427 . S
N265 C263 1.384 . S
H266 C272 0.930 . S
H267 C276 0.930 . S
H268 C281 0.929 . S
H269 C279 0.929 . S
H270 C274 0.929 . S
H271 C280 0.929 . S
C272 H266 0.930 . S
C272 C273 1.367 . S
C272 C280 1.378 . S
C273 C272 1.367 . S
C273 C281 1.433 1_556 S
C274 H270 0.929 . S
C274 C276 1.378 . S
C274 C278 1.350 . S
C275 C278 1.463 1_655 S
C275 C280 1.350 . S
C275 N283 1.427 . S
C276 H267 0.930 . S
C276 C274 1.378 . S
C276 C277 1.367 . S
C277 C276 1.367 . S
C277 C279 1.433 . S
C278 C274 1.350 . S
C278 C275 1.463 1_455 S
C278 N282 1.427 . S
C279 H269 0.929 . S
C279 C277 1.433 . S
C279 N282 1.384 . S
C280 H271 0.929 . S
C280 C272 1.378 . S
C280 C275 1.350 . S
C281 H268 0.929 . S
C281 C273 1.433 1_554 S
C281 N283 1.384 1_554 S
N282 C278 1.427 . S
N282 C279 1.384 . S
N283 C275 1.427 . S
N283 C281 1.384 1_556 S
H284 C290 0.930 . S
H285 C294 0.930 . S
H286 C299 0.929 . S
H287 C297 0.929 . S
H288 C292 0.929 . S
H289 C298 0.929 . S
C290 H284 0.930 . S
C290 C291 1.367 . S
C290 C298 1.378 . S
C291 C290 1.367 . S
C291 C299 1.433 . S
C292 H288 0.929 . S
C292 C294 1.378 . S
C292 C296 1.350 . S
C293 C296 1.463 . S
C293 C298 1.350 . S
C293 N301 1.427 . S
C294 H285 0.930 . S
C294 C292 1.378 . S
C294 C295 1.367 . S
C295 C294 1.367 . S
C295 C297 1.433 . S
C296 C292 1.350 . S
C296 C293 1.463 . S
C296 N300 1.427 . S
C297 H287 0.929 . S
C297 C295 1.433 . S
C297 N300 1.384 . S
C298 H289 0.929 . S
C298 C290 1.378 . S
C298 C293 1.350 . S
C299 H286 0.929 . S
C299 C291 1.433 . S
C299 N301 1.384 . S
N300 C296 1.427 . S
N300 C297 1.384 . S
N301 C293 1.427 . S
N301 C299 1.384 . S
H302 C308 0.930 . S
H303 C312 0.930 . S
H304 C317 0.929 . S
H305 C315 0.929 . S
H306 C310 0.927 1_455 S
H307 C316 0.929 . S
C308 H302 0.930 . S
C308 C309 1.367 . S
C308 C316 1.378 . S
C309 C308 1.367 . S
C309 C317 1.433 . S
C310 H306 0.927 1_655 S
C310 C312 1.380 . S
C310 C314 1.350 1_655 S
C311 C314 1.463 . S
C311 C316 1.350 . S
C311 N319 1.427 . S
C312 H303 0.930 . S
C312 C310 1.380 . S
C312 C313 1.367 . S
C313 C312 1.367 . S
C313 C315 1.433 . S
C314 C310 1.350 1_455 S
C314 C311 1.463 . S
C314 N318 1.427 1_455 S
C315 H305 0.929 . S
C315 C313 1.433 . S
C315 N318 1.384 . S
C316 H307 0.929 . S
C316 C308 1.378 . S
C316 C311 1.350 . S
C317 H304 0.929 . S
C317 C309 1.433 . S
C317 N319 1.384 . S
N318 C314 1.427 1_655 S
N318 C315 1.384 . S
N319 C311 1.427 . S
N319 C317 1.384 . S
H320 C326 0.930 . S
H321 C330 0.930 . S
H322 C335 0.929 . S
H323 C333 0.929 . S
H324 C328 0.929 . S
H325 C334 0.929 . S
C326 H320 0.930 . S
C326 C327 1.367 . S
C326 C334 1.378 . S
C327 C326 1.367 . S
C327 C335 1.433 . S
C328 H324 0.929 . S
C328 C330 1.378 . S
C328 C332 1.350 1_565 S
C329 C332 1.463 . S
C329 C334 1.350 . S
C329 N337 1.427 . S
C330 H321 0.930 . S
C330 C328 1.378 . S
C330 C331 1.367 . S
C331 C330 1.367 . S
C331 C333 1.433 1_565 S
C332 C328 1.350 1_545 S
C332 C329 1.463 . S
C332 N336 1.427 . S
C333 H323 0.929 . S
C333 C331 1.433 1_545 S
C333 N336 1.384 . S
C334 H325 0.929 . S
C334 C326 1.378 . S
C334 C329 1.350 . S
C335 H322 0.929 . S
C335 C327 1.433 . S
C335 N337 1.384 . S
N336 C332 1.427 . S
N336 C333 1.384 . S
N337 C329 1.427 . S
N337 C335 1.384 . S
H338 C344 0.930 . S
H339 C348 0.930 . S
H340 C353 0.929 . S
H341 C351 0.929 . S
H342 C346 0.929 . S
H343 C352 0.929 . S
C344 H338 0.930 . S
C344 C345 1.367 . S
C344 C352 1.378 . S
C345 C344 1.367 . S
C345 C353 1.433 . S
C346 H342 0.929 . S
C346 C348 1.378 . S
C346 C350 1.350 . S
C347 C350 1.463 . S
C347 C352 1.350 . S
C347 N355 1.427 . S
C348 H339 0.930 . S
C348 C346 1.378 . S
C348 C349 1.367 . S
C349 C348 1.367 . S
C349 C351 1.433 . S
C350 C346 1.350 . S
C350 C347 1.463 . S
C350 N354 1.427 . S
C351 H341 0.929 . S
C351 C349 1.433 . S
C351 N354 1.384 . S
C352 H343 0.929 . S
C352 C344 1.378 . S
C352 C347 1.350 . S
C353 H340 0.929 . S
C353 C345 1.433 . S
C353 N355 1.384 . S
N354 C350 1.427 . S
N354 C351 1.384 . S
N355 C347 1.427 . S
N355 C353 1.384 . S
H356 C362 0.961 1_565 S
H357 C366 0.930 . S
H358 C371 0.929 . S
H359 C369 0.929 . S
H360 C364 0.929 . S
H361 C370 0.929 . S
C362 H356 0.961 1_545 S
C362 C363 1.367 1_545 S
C362 C370 1.378 . S
C363 C362 1.367 1_565 S
C363 C371 1.433 . S
C364 H360 0.929 . S
C364 C366 1.378 . S
C364 C368 1.350 . S
C365 C368 1.463 . S
C365 C370 1.350 . S
C365 N373 1.427 . S
C366 H357 0.930 . S
C366 C364 1.378 . S
C366 C367 1.367 . S
C367 C366 1.367 . S
C367 C369 1.433 . S
C368 C364 1.350 . S
C368 C365 1.463 . S
C368 N372 1.427 . S
C369 H359 0.929 . S
C369 C367 1.433 . S
C369 N372 1.384 . S
C370 H361 0.929 . S
C370 C362 1.378 . S
C370 C365 1.350 . S
C371 H358 0.929 . S
C371 C363 1.433 . S
C371 N373 1.384 1_565 S
N372 C368 1.427 . S
N372 C369 1.384 . S
N373 C365 1.427 . S
N373 C371 1.384 1_545 S
H374 C380 0.930 . S
H375 C384 0.930 . S
H376 C389 0.929 . S
H377 C387 0.929 . S
H378 C382 0.929 . S
H379 C388 0.929 . S
C380 H374 0.930 . S
C380 C381 1.367 . S
C380 C388 1.378 . S
C381 C380 1.367 . S
C381 C389 1.433 . S
C382 H378 0.929 . S
C382 C384 1.378 . S
C382 C386 1.350 . S
C383 C386 1.463 . S
C383 C388 1.350 . S
C383 N391 1.427 . S
C384 H375 0.930 . S
C384 C382 1.378 . S
C384 C385 1.367 . S
C385 C384 1.367 . S
C385 C387 1.433 . S
C386 C382 1.350 . S
C386 C383 1.463 . S
C386 N390 1.427 . S
C387 H377 0.929 . S
C387 C385 1.433 . S
C387 N390 1.384 . S
C388 H379 0.929 . S
C388 C380 1.378 . S
C388 C383 1.350 . S
C389 H376 0.929 . S
C389 C381 1.433 . S
C389 N391 1.384 . S
N390 C386 1.427 . S
N390 C387 1.384 . S
N391 C383 1.427 . S
N391 C389 1.384 . S
H392 C398 0.930 . S
H393 C402 0.930 . S
H394 C407 0.929 . S
H395 C405 0.929 . S
H396 C400 0.929 . S
H397 C406 0.929 . S
C398 H392 0.930 . S
C398 C399 1.367 . S
C398 C406 1.378 . S
C399 C398 1.367 . S
C399 C407 1.433 . S
C400 H396 0.929 . S
C400 C402 1.378 . S
C400 C404 1.350 . S
C401 C404 1.463 . S
C401 C406 1.350 . S
C401 N409 1.427 . S
C402 H393 0.930 . S
C402 C400 1.378 . S
C402 C403 1.367 . S
C403 C402 1.367 . S
C403 C405 1.433 . S
C404 C400 1.350 . S
C404 C401 1.463 . S
C404 N408 1.427 . S
C405 H395 0.929 . S
C405 C403 1.433 . S
C405 N408 1.384 . S
C406 H397 0.929 . S
C406 C398 1.378 . S
C406 C401 1.350 . S
C407 H394 0.929 . S
C407 C399 1.433 . S
C407 N409 1.384 . S
N408 C404 1.427 . S
N408 C405 1.384 . S
N409 C401 1.427 . S
N409 C407 1.384 . S
H410 C416 0.930 . S
H411 C420 0.930 . S
H412 C425 0.929 . S
H413 C423 0.929 . S
H414 C418 0.929 . S
H415 C424 0.929 . S
C416 H410 0.930 . S
C416 C417 1.367 . S
C416 C424 1.378 1_455 S
C417 C416 1.367 . S
C417 C425 1.433 . S
C418 H414 0.929 . S
C418 C420 1.378 . S
C418 C422 1.350 . S
C419 C422 1.463 . S
C419 C424 1.350 . S
C419 N427 1.427 1_655 S
C420 H411 0.930 . S
C420 C418 1.378 . S
C420 C421 1.367 . S
C421 C420 1.367 . S
C421 C423 1.433 . S
C422 C418 1.350 . S
C422 C419 1.463 . S
C422 N426 1.427 . S
C423 H413 0.929 . S
C423 C421 1.433 . S
C423 N426 1.384 . S
C424 H415 0.929 . S
C424 C416 1.378 1_655 S
C424 C419 1.350 . S
C425 H412 0.929 . S
C425 C417 1.433 . S
C425 N427 1.384 . S
N426 C422 1.427 . S
N426 C423 1.384 . S
N427 C419 1.427 1_455 S
N427 C425 1.384 . S
H428 C434 0.930 . S
H429 C438 0.930 . S
H430 C443 0.929 . S
H431 C441 0.929 . S
H432 C436 0.929 . S
H433 C442 0.929 . S
C434 H428 0.930 . S
C434 C435 1.367 . S
C434 C442 1.378 . S
C435 C434 1.367 . S
C435 C443 1.433 . S
C436 H432 0.929 . S
C436 C438 1.378 . S
C436 C440 1.350 . S
C437 C440 1.463 . S
C437 C442 1.350 . S
C437 N445 1.427 . S
C438 H429 0.930 . S
C438 C436 1.378 . S
C438 C439 1.367 . S
C439 C438 1.367 . S
C439 C441 1.433 . S
C440 C436 1.350 . S
C440 C437 1.463 . S
C440 N444 1.427 . S
C441 H431 0.929 . S
C441 C439 1.433 . S
C441 N444 1.384 . S
C442 H433 0.929 . S
C442 C434 1.378 . S
C442 C437 1.350 . S
C443 H430 0.929 . S
C443 C435 1.433 . S
C443 N445 1.384 . S
N444 C440 1.427 . S
N444 C441 1.384 . S
N445 C437 1.427 . S
N445 C443 1.384 . S
H446 C452 0.930 . S
H447 C456 0.930 . S
H448 C461 0.929 . S
H449 C459 0.929 . S
H450 C454 0.929 . S
H451 C460 0.929 . S
C452 H446 0.930 . S
C452 C453 1.367 . S
C452 C460 1.378 . S
C453 C452 1.367 . S
C453 C461 1.433 . S
C454 H450 0.929 . S
C454 C456 1.378 1_655 S
C454 C458 1.350 . S
C455 C458 1.463 . S
C455 C460 1.350 . S
C455 N463 1.427 . S
C456 H447 0.930 . S
C456 C454 1.378 1_455 S
C456 C457 1.367 . S
C457 C456 1.367 . S
C457 C459 1.433 . S
C458 C454 1.350 . S
C458 C455 1.463 . S
C458 N462 1.427 . S
C459 H449 0.929 . S
C459 C457 1.433 . S
C459 N462 1.384 1_455 S
C460 H451 0.929 . S
C460 C452 1.378 . S
C460 C455 1.350 . S
C461 H448 0.929 . S
C461 C453 1.433 . S
C461 N463 1.384 . S
N462 C458 1.427 . S
N462 C459 1.384 1_655 S
N463 C455 1.427 . S
N463 C461 1.384 . S
H464 C470 0.930 . S
H465 C474 0.930 . S
H466 C479 0.929 . S
H467 C477 0.929 . S
H468 C472 0.929 . S
H469 C478 0.929 . S
C470 H464 0.930 . S
C470 C471 1.367 . S
C470 C478 1.378 . S
C471 C470 1.367 . S
C471 C479 1.433 . S
C472 H468 0.929 . S
C472 C474 1.378 . S
C472 C476 1.350 . S
C473 C476 1.463 . S
C473 C478 1.350 . S
C473 N481 1.427 . S
C474 H465 0.930 . S
C474 C472 1.378 . S
C474 C475 1.367 . S
C475 C474 1.367 . S
C475 C477 1.433 . S
C476 C472 1.350 . S
C476 C473 1.463 . S
C476 N480 1.427 . S
C477 H467 0.929 . S
C477 C475 1.433 . S
C477 N480 1.384 . S
C478 H469 0.929 . S
C478 C470 1.378 . S
C478 C473 1.350 . S
C479 H466 0.929 . S
C479 C471 1.433 . S
C479 N481 1.384 . S
N480 C476 1.427 . S
N480 C477 1.384 . S
N481 C473 1.427 . S
N481 C479 1.384 . S
H482 C488 0.930 . S
H483 C492 0.930 . S
H484 C497 0.929 . S
H485 C495 0.929 . S
H486 C490 0.929 . S
H487 C496 0.929 . S
C488 H482 0.930 . S
C488 C489 1.367 . S
C488 C496 1.378 . S
C489 C488 1.367 . S
C489 C497 1.433 . S
C490 H486 0.929 . S
C490 C492 1.378 . S
C490 C494 1.350 . S
C491 C494 1.463 . S
C491 C496 1.350 . S
C491 N499 1.427 . S
C492 H483 0.930 . S
C492 C490 1.378 . S
C492 C493 1.367 . S
C493 C492 1.367 . S
C493 C495 1.433 . S
C494 C490 1.350 . S
C494 C491 1.463 . S
C494 N498 1.427 . S
C495 H485 0.929 . S
C495 C493 1.433 . S
C495 N498 1.384 . S
C496 H487 0.929 . S
C496 C488 1.378 . S
C496 C491 1.350 . S
C497 H484 0.929 . S
C497 C489 1.433 . S
C497 N499 1.384 . S
N498 C494 1.427 . S
N498 C495 1.384 . S
N499 C491 1.427 . S
N499 C497 1.384 . S
H500 C506 0.930 . S
H501 C510 0.930 . S
H502 C515 0.929 . S
H503 C513 0.929 . S
H504 C508 0.929 . S
H505 C514 0.929 . S
C506 H500 0.930 . S
C506 C507 1.367 . S
C506 C514 1.378 . S
C507 C506 1.367 . S
C507 C515 1.433 . S
C508 H504 0.929 . S
C508 C510 1.378 . S
C508 C512 1.350 . S
C509 C512 1.463 . S
C509 C514 1.350 . S
C509 N517 1.427 . S
C510 H501 0.930 . S
C510 C508 1.378 . S
C510 C511 1.367 . S
C511 C510 1.367 . S
C511 C513 1.433 . S
C512 C508 1.350 . S
C512 C509 1.463 . S
C512 N516 1.427 . S
C513 H503 0.929 . S
C513 C511 1.433 . S
C513 N516 1.384 . S
C514 H505 0.929 . S
C514 C506 1.378 . S
C514 C509 1.350 . S
C515 H502 0.929 . S
C515 C507 1.433 . S
C515 N517 1.384 . S
N516 C512 1.427 . S
N516 C513 1.384 . S
N517 C509 1.427 . S
N517 C515 1.384 . S
H518 C524 0.930 . S
H519 C528 0.930 . S
H520 C533 0.929 . S
H521 C531 0.929 . S
H522 C526 0.929 . S
H523 C532 0.929 . S
C524 H518 0.930 . S
C524 C525 1.367 . S
C524 C532 1.378 . S
C525 C524 1.367 . S
C525 C533 1.433 . S
C526 H522 0.929 . S
C526 C528 1.378 . S
C526 C530 1.350 . S
C527 C530 1.463 . S
C527 C532 1.350 . S
C527 N535 1.427 . S
C528 H519 0.930 . S
C528 C526 1.378 . S
C528 C529 1.367 . S
C529 C528 1.367 . S
C529 C531 1.433 . S
C530 C526 1.350 . S
C530 C527 1.463 . S
C530 N534 1.427 . S
C531 H521 0.929 . S
C531 C529 1.433 . S
C531 N534 1.384 . S
C532 H523 0.929 . S
C532 C524 1.378 . S
C532 C527 1.350 . S
C533 H520 0.929 . S
C533 C525 1.433 . S
C533 N535 1.384 . S
N534 C530 1.427 . S
N534 C531 1.384 . S
N535 C527 1.427 . S
N535 C533 1.384 . S
H536 C542 0.930 . S
H537 C546 0.930 . S
H538 C551 0.929 . S
H539 C549 0.929 . S
H540 C544 0.929 . S
H541 C550 0.929 . S
C542 H536 0.930 . S
C542 C543 1.367 . S
C542 C550 1.378 . S
C543 C542 1.367 . S
C543 C551 1.433 . S
C544 H540 0.929 . S
C544 C546 1.378 . S
C544 C548 1.350 . S
C545 C548 1.463 . S
C545 C550 1.350 . S
C545 N553 1.427 . S
C546 H537 0.930 . S
C546 C544 1.378 . S
C546 C547 1.367 . S
C547 C546 1.367 . S
C547 C549 1.433 . S
C548 C544 1.350 . S
C548 C545 1.463 . S
C548 N552 1.427 . S
C549 H539 0.929 . S
C549 C547 1.433 . S
C549 N552 1.384 . S
C550 H541 0.929 . S
C550 C542 1.378 . S
C550 C545 1.350 . S
C551 H538 0.929 . S
C551 C543 1.433 . S
C551 N553 1.384 . S
N552 C548 1.427 . S
N552 C549 1.384 . S
N553 C545 1.427 . S
N553 C551 1.384 . S
H554 C560 0.930 . S
H555 C564 0.930 . S
H556 C569 0.929 . S
H557 C567 0.929 . S
H558 C562 0.929 . S
H559 C568 0.929 . S
C560 H554 0.930 . S
C560 C561 1.367 . S
C560 C568 1.378 . S
C561 C560 1.367 . S
C561 C569 1.433 . S
C562 H558 0.929 . S
C562 C564 1.378 . S
C562 C566 1.350 . S
C563 C566 1.463 . S
C563 C568 1.350 . S
C563 N571 1.427 . S
C564 H555 0.930 . S
C564 C562 1.378 . S
C564 C565 1.367 . S
C565 C564 1.367 . S
C565 C567 1.433 . S
C566 C562 1.350 . S
C566 C563 1.463 . S
C566 N570 1.427 . S
C567 H557 0.929 . S
C567 C565 1.433 . S
C567 N570 1.384 . S
C568 H559 0.929 . S
C568 C560 1.378 . S
C568 C563 1.350 . S
C569 H556 0.929 . S
C569 C561 1.433 . S
C569 N571 1.384 . S
N570 C566 1.427 . S
N570 C567 1.384 . S
N571 C563 1.427 . S
N571 C569 1.384 . S
H572 C578 0.930 . S
H573 C582 0.930 . S
H574 C587 0.929 . S
H575 C585 0.929 . S
H576 C580 0.929 . S
H577 C586 0.929 . S
C578 H572 0.930 . S
C578 C579 1.367 . S
C578 C586 1.378 . S
C579 C578 1.367 . S
C579 C587 1.433 . S
C580 H576 0.929 . S
C580 C582 1.378 . S
C580 C584 1.350 . S
C581 C584 1.463 . S
C581 C586 1.350 . S
C581 N589 1.427 . S
C582 H573 0.930 . S
C582 C580 1.378 . S
C582 C583 1.367 . S
C583 C582 1.367 . S
C583 C585 1.433 . S
C584 C580 1.350 . S
C584 C581 1.463 . S
C584 N588 1.427 . S
C585 H575 0.929 . S
C585 C583 1.433 . S
C585 N588 1.384 . S
C586 H577 0.929 . S
C586 C578 1.378 . S
C586 C581 1.350 . S
C587 H574 0.929 . S
C587 C579 1.433 . S
C587 N589 1.384 . S
N588 C584 1.427 . S
N588 C585 1.384 . S
N589 C581 1.427 . S
N589 C587 1.384 . S
H590 C596 0.930 . S
H591 C600 0.930 . S
H592 C605 0.929 . S
H593 C603 0.929 . S
H594 C598 0.929 . S
H595 C604 0.929 . S
C596 H590 0.930 . S
C596 C597 1.367 . S
C596 C604 1.378 . S
C597 C596 1.367 . S
C597 C605 1.433 . S
C598 H594 0.929 . S
C598 C600 1.378 . S
C598 C602 1.350 . S
C599 C602 1.463 . S
C599 C604 1.350 . S
C599 N607 1.427 . S
C600 H591 0.930 . S
C600 C598 1.378 . S
C600 C601 1.367 . S
C601 C600 1.367 . S
C601 C603 1.433 . S
C602 C598 1.350 . S
C602 C599 1.463 . S
C602 N606 1.427 . S
C603 H593 0.929 . S
C603 C601 1.433 . S
C603 N606 1.384 . S
C604 H595 0.929 . S
C604 C596 1.378 . S
C604 C599 1.350 . S
C605 H592 0.929 . S
C605 C597 1.433 . S
C605 N607 1.384 . S
N606 C602 1.427 . S
N606 C603 1.384 . S
N607 C599 1.427 . S
N607 C605 1.384 . S
C183 C8 1.542 . S
C187 C95 1.457 . S
C201 C31 1.422 . S
C205 C104 1.117 . S
C219 C53 1.262 . S
C223 C115 1.009 . S
C241 C126 1.053 . S
C237 C74 1.110 . S
C259 C139 1.320 . S
C255 C26 1.305 . S
C273 C48 1.201 . S
C277 C148 0.922 . S
C291 C71 1.097 . S
C295 C159 1.017 . S
C309 C5 1.650 . S
C313 C172 1.573 . S
C327 C50 1.191 . S
C331 C170 0.872 . S
C349 C137 1.152 . S
C345 C70 1.328 . S
C367 C150 1.554 . S
C363 C4 1.605 . S
C381 C28 1.643 . S
C385 C161 1.667 . S
C403 C106 1.383 . S
C399 C73 1.393 . S
C417 C7 1.640 . S
C421 C117 1.584 . S
C439 C128 1.437 . S
C435 C30 1.425 . S
C457 C93 0.900 . S
C453 C52 1.196 . S
C475 C162 1.452 . S
C471 C9 1.423 . S
C493 C173 1.451 . S
C489 C29 1.488 . S
C507 C51 1.323 . S
C511 C140 1.314 . S
C529 C151 1.394 . S
C525 C75 1.463 . S
C547 C118 1.525 . S
C543 C27 1.604 . S
C561 C49 1.315 . S
C565 C129 1.323 . S
C583 C96 1.373 . S
C579 C72 1.416 . S
C601 C107 1.412 . S
C597 C6 1.455 . S
