# Generated by pormake.
# Topology cml, (3,6)-cn, num edge types: 1
# Building blocks:
#     Node 0, Type 0, BuildingBlock: OLANEW_clean_sbu_2, # of connection points: 3
#     Node 1, Type 0, BuildingBlock: OLANEW_clean_sbu_2, # of connection points: 3
#     Node 2, Type 0, BuildingBlock: OLANEW_clean_sbu_2, # of connection points: 3
#     Node 3, Type 0, BuildingBlock: OLANEW_clean_sbu_2, # of connection points: 3
#     Node 4, Type 0, BuildingBlock: OLANEW_clean_sbu_2, # of connection points: 3
#     Node 5, Type 0, BuildingBlock: OLANEW_clean_sbu_2, # of connection points: 3
#     Node 6, Type 0, BuildingBlock: OLANEW_clean_sbu_2, # of connection points: 3
#     Node 7, Type 0, BuildingBlock: OLANEW_clean_sbu_2, # of connection points: 3
#     Node 8, Type 1, BuildingBlock: IZENUY_clean_sbu_0, # of connection points: 6
#     Node 9, Type 1, BuildingBlock: IZENUY_clean_sbu_0, # of connection points: 6
#     Node 10, Type 1, BuildingBlock: IZENUY_clean_sbu_0, # of connection points: 6
#     Node 11, Type 1, BuildingBlock: IZENUY_clean_sbu_0, # of connection points: 6
#     Edge 12, Type (0, 1), BuildingBlock: XUDNAN_clean_linker_2, # of connection points: 2
#     Edge 13, Type (0, 1), BuildingBlock: XUDNAN_clean_linker_2, # of connection points: 2
#     Edge 14, Type (0, 1), BuildingBlock: XUDNAN_clean_linker_2, # of connection points: 2
#     Edge 15, Type (0, 1), BuildingBlock: XUDNAN_clean_linker_2, # of connection points: 2
#     Edge 16, Type (0, 1), BuildingBlock: XUDNAN_clean_linker_2, # of connection points: 2
#     Edge 17, Type (0, 1), BuildingBlock: XUDNAN_clean_linker_2, # of connection points: 2
#     Edge 18, Type (0, 1), BuildingBlock: XUDNAN_clean_linker_2, # of connection points: 2
#     Edge 19, Type (0, 1), BuildingBlock: XUDNAN_clean_linker_2, # of connection points: 2
#     Edge 20, Type (0, 1), BuildingBlock: XUDNAN_clean_linker_2, # of connection points: 2
#     Edge 21, Type (0, 1), BuildingBlock: XUDNAN_clean_linker_2, # of connection points: 2
#     Edge 22, Type (0, 1), BuildingBlock: XUDNAN_clean_linker_2, # of connection points: 2
#     Edge 23, Type (0, 1), BuildingBlock: XUDNAN_clean_linker_2, # of connection points: 2
#     Edge 24, Type (0, 1), BuildingBlock: XUDNAN_clean_linker_2, # of connection points: 2
#     Edge 25, Type (0, 1), BuildingBlock: XUDNAN_clean_linker_2, # of connection points: 2
#     Edge 26, Type (0, 1), BuildingBlock: XUDNAN_clean_linker_2, # of connection points: 2
#     Edge 27, Type (0, 1), BuildingBlock: XUDNAN_clean_linker_2, # of connection points: 2
#     Edge 28, Type (0, 1), BuildingBlock: XUDNAN_clean_linker_2, # of connection points: 2
#     Edge 29, Type (0, 1), BuildingBlock: XUDNAN_clean_linker_2, # of connection points: 2
#     Edge 30, Type (0, 1), BuildingBlock: XUDNAN_clean_linker_2, # of connection points: 2
#     Edge 31, Type (0, 1), BuildingBlock: XUDNAN_clean_linker_2, # of connection points: 2
#     Edge 32, Type (0, 1), BuildingBlock: XUDNAN_clean_linker_2, # of connection points: 2
#     Edge 33, Type (0, 1), BuildingBlock: XUDNAN_clean_linker_2, # of connection points: 2
#     Edge 34, Type (0, 1), BuildingBlock: XUDNAN_clean_linker_2, # of connection points: 2
#     Edge 35, Type (0, 1), BuildingBlock: XUDNAN_clean_linker_2, # of connection points: 2
# Relax obj value: 0.016
# Max RMSD: 0.076
# Mean RMSD: 0.062
data_MOF--net-cml--node1-OLANEW_clean_sbu_2--node2-IZENUY_clean_sbu_0--edge1-XUDNAN_clean_linker_2
_symmetry_space_group_name_H-M    P1
_symmetry_Int_Tables_number       1
_symmetry_cell_setting            triclinic
loop_
_symmetry_equiv_pos_as_xyz
'x, y, z'
_cell_length_a     39.343148
_cell_length_b     43.434592
_cell_length_c     39.604534
_cell_angle_alpha  88.521957
_cell_angle_beta   87.815857
_cell_angle_gamma 88.785519
loop_
_atom_site_label
_atom_site_type_symbol
_atom_site_fract_x
_atom_site_fract_y
_atom_site_fract_z
_atom_type_partial_charge
O0 O 0.31379 0.42777 0.94405 0.0
Cd1 Cd 0.28281 0.38758 0.97794 0.0
O2 O 0.32551 0.45286 0.98969 0.0
Cd3 Cd 0.30578 0.4188 0.02648 0.0
O4 O 0.3145 0.39455 0.07446 0.0
C5 C 0.32911 0.4106 0.0958 0.0
O6 O 0.33559 0.43951 0.08784 0.0
C7 C 0.32702 0.45076 0.9577 0.0
C8 C 0.23139 0.35424 0.94836 0.0
O9 O 0.22604 0.38168 0.95881 0.0
O10 O 0.26145 0.34262 0.95074 0.0
O11 O 0.70208 0.64173 0.54357 0.0
Cd12 Cd 0.71344 0.63955 0.48255 0.0
O13 O 0.73891 0.6052 0.55738 0.0
Cd14 Cd 0.74455 0.58886 0.50586 0.0
O15 O 0.72929 0.55051 0.47568 0.0
C16 C 0.70097 0.55209 0.46129 0.0
O17 O 0.68304 0.57794 0.46238 0.0
C18 C 0.71759 0.6262 0.56608 0.0
C19 C 0.76483 0.68041 0.46383 0.0
O20 O 0.73421 0.68993 0.46973 0.0
O21 O 0.7713 0.65141 0.46611 0.0
O22 O 0.71447 0.41631 0.95105 0.0
Cd23 Cd 0.72127 0.36432 0.97626 0.0
O24 O 0.73299 0.43957 0.99529 0.0
Cd25 Cd 0.74111 0.39828 0.02655 0.0
O26 O 0.72867 0.38232 0.07805 0.0
C27 C 0.70134 0.36786 0.08442 0.0
O28 O 0.68289 0.36001 0.05917 0.0
C29 C 0.72105 0.441 0.96591 0.0
C30 C 0.78271 0.33229 0.96384 0.0
O31 O 0.75866 0.33155 0.94294 0.0
O32 O 0.77812 0.34898 0.98992 0.0
O33 O 0.29803 0.57279 0.45736 0.0
Cd34 Cd 0.27251 0.61805 0.48592 0.0
O35 O 0.30324 0.55214 0.50837 0.0
Cd36 Cd 0.29267 0.59218 0.53952 0.0
O37 O 0.30933 0.60953 0.58732 0.0
C38 C 0.33767 0.62295 0.58837 0.0
O39 O 0.35488 0.62888 0.55994 0.0
C40 C 0.30583 0.54982 0.47641 0.0
C41 C 0.23321 0.66239 0.4514 0.0
O42 O 0.26514 0.66591 0.45504 0.0
O43 O 0.22008 0.63714 0.4625 0.0
O44 O 0.83824 0.90717 0.94049 0.0
Cd45 Cd 0.81322 0.85767 0.96141 0.0
O46 O 0.83851 0.92116 0.9936 0.0
Cd47 Cd 0.82535 0.87781 0.01956 0.0
O48 O 0.83489 0.85393 0.06765 0.0
C49 C 0.81675 0.86167 0.0934 0.0
O50 O 0.79116 0.88116 0.08924 0.0
C51 C 0.84381 0.9274 0.96231 0.0
C52 C 0.75582 0.83246 0.93259 0.0
O53 O 0.75311 0.85619 0.95117 0.0
O54 O 0.78573 0.82126 0.92629 0.0
O55 O 0.18472 0.18007 0.54839 0.0
Cd56 Cd 0.19674 0.17461 0.48775 0.0
O57 O 0.17473 0.13075 0.55658 0.0
Cd58 Cd 0.18561 0.11741 0.50446 0.0
O59 O 0.17729 0.08621 0.46341 0.0
C60 C 0.1687 0.05939 0.47351 0.0
O61 O 0.16731 0.05313 0.50618 0.0
C62 C 0.1761 0.15774 0.56805 0.0
C63 C 0.26151 0.19297 0.46571 0.0
O64 O 0.23706 0.21269 0.46955 0.0
O65 O 0.25549 0.16459 0.47279 0.0
O66 O 0.25497 0.93267 0.95421 0.0
Cd67 Cd 0.28911 0.89523 0.98681 0.0
O68 O 0.22575 0.94732 -0.00033 0.0
Cd69 Cd 0.24302 0.91045 0.03387 0.0
O70 O 0.22598 0.88438 0.07909 0.0
C71 C 0.20359 0.89915 0.09648 0.0
O72 O 0.19503 0.92721 0.08632 0.0
C73 C 0.23303 0.95062 0.96826 0.0
C74 C 0.32727 0.85362 0.94737 0.0
O75 O 0.30044 0.84487 0.96395 0.0
O76 O 0.33586 0.88179 0.94915 0.0
O77 O 0.7972 0.07829 0.47142 0.0
Cd78 Cd 0.77827 0.1247 0.50168 0.0
O79 O 0.82785 0.05993 0.51307 0.0
Cd80 Cd 0.81776 0.09682 0.54879 0.0
O81 O 0.83013 0.11652 0.59695 0.0
C82 C 0.81951 0.10262 0.62381 0.0
O83 O 0.79963 0.07893 0.62121 0.0
C84 C 0.81697 0.05752 0.48346 0.0
C85 C 0.73488 0.16367 0.4647 0.0
O86 O 0.76723 0.16416 0.45969 0.0
O87 O 0.72279 0.14461 0.48706 0.0
Fe88 Fe 0.00355 0.81085 0.3282 0.0
Fe89 Fe 0.00393 0.85203 0.39037 0.0
O90 O 1.00179 0.84804 0.34615 0.0
Fe91 Fe 0.99795 0.88118 0.31959 0.0
O92 O 0.95791 0.86826 0.30481 0.0
O93 O 0.97605 0.82151 0.29275 0.0
O94 O 0.96532 0.79957 0.35192 0.0
C95 C 0.96081 0.80157 0.38352 0.0
C96 C 0.04454 0.84302 0.28334 0.0
O97 O 0.98089 0.81655 0.40089 0.0
C98 C 0.04431 0.90088 0.36346 0.0
O99 O 0.03118 0.79329 0.36027 0.0
O100 O 0.04515 0.83248 0.39046 0.0
O101 O 0.02221 0.86444 0.28395 0.0
O102 O 0.04204 0.82007 0.30341 0.0
C103 C 0.95519 0.89596 0.37605 0.0
O104 O 0.02704 0.88825 0.38744 0.0
O105 O 0.03771 0.89638 0.33308 0.0
C106 C 0.05154 0.80594 0.3794 0.0
O107 O 0.96295 0.87224 0.39339 0.0
O108 O 0.97299 0.90395 0.35021 0.0
C109 C 0.95397 0.84309 0.29057 0.0
Fe110 Fe 0.02893 0.15304 0.90094 0.0
Fe111 Fe 0.02618 0.11788 0.83494 0.0
O112 O 0.02236 0.15279 0.85696 0.0
Fe113 Fe 0.01147 0.18743 0.83508 0.0
O114 O 0.03598 0.21199 0.86189 0.0
O115 O 0.06406 0.17986 0.89504 0.0
O116 O 0.06072 0.12115 0.90048 0.0
C117 C 0.07917 0.10993 0.87666 0.0
C118 C 0.97314 0.19504 0.89301 0.0
O119 O 0.06992 0.11211 0.84659 0.0
C120 C 0.97023 0.14358 0.80579 0.0
O121 O 0.99403 0.1267 0.9093 0.0
O122 O 0.01001 0.09358 0.87052 0.0
O123 O 0.9731 0.19268 0.86134 0.0
O124 O 0.99816 0.18474 0.9095 0.0
C125 C 0.0568 0.16176 0.78956 0.0
O126 O 0.98265 0.12111 0.82212 0.0
O127 O 0.985 0.16921 0.80405 0.0
C128 C 0.99111 0.10086 0.89581 0.0
O129 O 0.04287 0.13596 0.79525 0.0
O130 O 0.04915 0.18449 0.80768 0.0
C131 C 0.06077 0.20613 0.88076 0.0
Fe132 Fe 0.50983 0.31628 0.32309 0.0
Fe133 Fe 0.50901 0.34391 0.3936 0.0
O134 O 0.50861 0.34885 0.34916 0.0
Fe135 Fe 0.50758 0.38634 0.33058 0.0
O136 O 0.48322 0.37532 0.29427 0.0
O137 O 0.46936 0.32724 0.30532 0.0
O138 O 0.48611 0.29135 0.35359 0.0
C139 C 0.46603 0.29832 0.3781 0.0
C140 C 0.55366 0.35773 0.28814 0.0
O141 O 0.4701 0.32241 0.39438 0.0
C142 C 0.55202 0.39229 0.38416 0.0
O143 O 0.55043 0.30366 0.33907 0.0
O144 O 0.53599 0.30855 0.39288 0.0
O145 O 0.54803 0.37937 0.30833 0.0
O146 O 0.53388 0.33512 0.28787 0.0
C147 C 0.46184 0.39353 0.38342 0.0
O148 O 0.54807 0.3652 0.39561 0.0
O149 O 0.53148 0.4042 0.36352 0.0
C150 C 0.55629 0.2986 0.3698 0.0
O151 O 0.48196 0.37822 0.40211 0.0
O152 O 0.4673 0.39566 0.35187 0.0
C153 C 0.46382 0.35281 0.29047 0.0
Fe154 Fe 0.53065 0.65224 0.87713 0.0
Fe155 Fe 0.54014 0.61134 0.81531 0.0
O156 O 0.53511 0.64843 0.83264 0.0
Fe157 Fe 0.53398 0.68142 0.80521 0.0
O158 O 0.55437 0.70672 0.8346 0.0
O159 O 0.56808 0.67639 0.87763 0.0
O160 O 0.55931 0.61924 0.88673 0.0
C161 C 0.58177 0.60538 0.8685 0.0
C162 C 0.48403 0.6976 0.85157 0.0
O163 O 0.57917 0.604 0.83695 0.0
C164 C 0.49467 0.63836 0.7727 0.0
O165 O 0.49266 0.62834 0.87961 0.0
O166 O 0.51516 0.59154 0.84862 0.0
O167 O 0.49202 0.69255 0.82108 0.0
O168 O 0.50158 0.68617 0.87522 0.0
C169 C 0.5846 0.64748 0.77421 0.0
O170 O 0.50106 0.61646 0.79309 0.0
O171 O 0.51297 0.66205 0.77095 0.0
C172 C 0.49129 0.60171 0.86764 0.0
O173 O 0.56637 0.62402 0.77863 0.0
O174 O 0.57608 0.67276 0.78724 0.0
C175 C 0.57217 0.70084 0.86007 0.0
H176 H 0.22646 0.29105 0.94378 0.0
H177 H 0.17231 0.37722 0.92324 0.0
H178 H 0.12398 0.34843 0.90315 0.0
H179 H 0.19631 0.24896 0.87252 0.0
H180 H 0.19206 0.21315 0.89617 0.0
H181 H 0.22343 0.24036 0.90736 0.0
H182 H 0.19786 0.24081 0.96857 0.0
H183 H 0.16633 0.21371 0.95752 0.0
H184 H 0.15327 0.24993 0.97562 0.0
H185 H 0.08167 0.31113 0.88557 0.0
H186 H 0.04629 0.26729 0.87302 0.0
H187 H 0.12548 0.2039 0.90712 0.0
C188 C 0.20457 0.30382 0.93466 0.0
C189 C 0.20329 0.33648 0.93483 0.0
C190 C 0.17394 0.35229 0.92329 0.0
C191 C 0.14636 0.33613 0.91179 0.0
C192 C 0.14824 0.30405 0.91227 0.0
C193 C 0.17644 0.28796 0.92351 0.0
C194 C 0.17108 0.25339 0.92254 0.0
C195 C 0.19728 0.23806 0.89819 0.0
C196 C 0.1722 0.23859 0.95819 0.0
C197 C 0.13546 0.25266 0.90901 0.0
C198 C 0.12305 0.28224 0.90305 0.0
C199 C 0.09107 0.28786 0.89016 0.0
C200 C 0.07117 0.26268 0.88305 0.0
C201 C 0.08297 0.232 0.88908 0.0
C202 C 0.11561 0.22701 0.90243 0.0
H203 H 0.81918 0.67399 0.41899 0.0
H204 H 0.77145 0.73661 0.49088 0.0
H205 H 0.81781 0.77347 0.47957 0.0
H206 H 0.90659 0.68922 0.43503 0.0
H207 H 0.9207 0.68814 0.39123 0.0
H208 H 0.88474 0.66591 0.40608 0.0
H209 H 0.84761 0.69244 0.36068 0.0
H210 H 0.8835 0.71464 0.3456 0.0
H211 H 0.84427 0.73391 0.35846 0.0
H212 H 0.87045 0.80213 0.46266 0.0
H213 H 0.92221 0.8244 0.4355 0.0
H214 H 0.93283 0.74595 0.37004 0.0
C215 C 0.81868 0.69544 0.43237 0.0
C216 C 0.79209 0.70248 0.45603 0.0
C217 C 0.79172 0.73092 0.47268 0.0
C218 C 0.81797 0.75187 0.46654 0.0
C219 C 0.84393 0.74427 0.44314 0.0
C220 C 0.84419 0.71704 0.42579 0.0
C221 C 0.87399 0.71544 0.40043 0.0
C222 C 0.89792 0.68805 0.4087 0.0
C223 C 0.86159 0.71403 0.36414 0.0
C224 C 0.8906 0.74586 0.4065 0.0
C225 C 0.87313 0.76185 0.43167 0.0
C226 C 0.88418 0.78999 0.44271 0.0
C227 C 0.91366 0.80235 0.4273 0.0
C228 C 0.93129 0.78688 0.4007 0.0
C229 C 0.91959 0.7583 0.39017 0.0
H230 H 0.80335 0.29936 0.90799 0.0
H231 H 0.83308 0.32199 0.00871 0.0
H232 H 0.88396 0.28816 0.00208 0.0
H233 H 0.83031 0.21994 0.9109 0.0
H234 H 0.84587 0.21968 0.86751 0.0
H235 H 0.81165 0.24567 0.87998 0.0
H236 H 0.84609 0.29201 0.85588 0.0
H237 H 0.88029 0.26613 0.84311 0.0
H238 H 0.88845 0.29775 0.87006 0.0
H239 H 0.93069 0.25083 0.98528 0.0
H240 H 0.97262 0.21571 0.95776 0.0
H241 H 0.91353 0.21831 0.86725 0.0
C242 C 0.82062 0.29729 0.92861 0.0
C243 C 0.81418 0.31331 0.95892 0.0
C244 C 0.83749 0.31004 0.98524 0.0
C245 C 0.86641 0.29077 0.98177 0.0
C246 C 0.8718 0.27507 0.95175 0.0
C247 C 0.84978 0.27834 0.92548 0.0
C248 C 0.86188 0.2593 0.89561 0.0
C249 C 0.83587 0.23469 0.88807 0.0
C250 C 0.86964 0.28004 0.86432 0.0
C251 C 0.89411 0.2448 0.90925 0.0
C252 C 0.89919 0.25402 0.94177 0.0
C253 C 0.92706 0.24354 0.95976 0.0
C254 C 0.95069 0.22348 0.94392 0.0
C255 C 0.9465 0.21427 0.91027 0.0
C256 C 0.91757 0.22495 0.89293 0.0
H257 H 0.16799 0.65935 0.42876 0.0
H258 H 0.24955 0.72294 0.44304 0.0
H259 H 0.21219 0.76632 0.42546 0.0
H260 H 0.13492 0.69952 0.35355 0.0
H261 H 0.09128 0.69124 0.36527 0.0
H262 H 0.12485 0.66503 0.37787 0.0
H263 H 0.10382 0.66937 0.44039 0.0
H264 H 0.0704 0.69579 0.42802 0.0
H265 H 0.09998 0.7068 0.45897 0.0
H266 H 0.16448 0.80325 0.41158 0.0
H267 H 0.11157 0.83077 0.39575 0.0
H268 H 0.06195 0.74328 0.38647 0.0
C269 C 0.17811 0.68236 0.42777 0.0
C270 C 0.21172 0.68774 0.43733 0.0
C271 C 0.22399 0.7182 0.43567 0.0
C272 C 0.2029 0.74303 0.42586 0.0
C273 C 0.16974 0.73703 0.41722 0.0
C274 C 0.15756 0.70741 0.41744 0.0
C275 C 0.1209 0.70734 0.40682 0.0
C276 C 0.11782 0.68974 0.37392 0.0
C277 C 0.0974 0.69404 0.43525 0.0
C278 C 0.11421 0.74158 0.40122 0.0
C279 C 0.14266 0.75829 0.40766 0.0
C280 C 0.1422 0.79039 0.406 0.0
C281 C 0.11199 0.80582 0.39719 0.0
C282 C 0.08278 0.78916 0.38968 0.0
C283 C 0.08404 0.7566 0.39166 0.0
H284 H 0.74609 0.7711 0.92118 0.0
H285 H 0.69593 0.8609 0.91644 0.0
H286 H 0.64384 0.83689 0.89723 0.0
H287 H 0.7074 0.73805 0.84918 0.0
H288 H 0.70276 0.70049 0.86905 0.0
H289 H 0.73673 0.72485 0.88058 0.0
H290 H 0.71604 0.72047 0.94335 0.0
H291 H 0.68191 0.69623 0.93198 0.0
H292 H 0.67262 0.73089 0.95494 0.0
H293 H 0.59794 0.80348 0.87676 0.0
H294 H 0.55961 0.76248 0.86049 0.0
H295 H 0.63703 0.6934 0.88362 0.0
C296 C 0.72423 0.7857 0.9157 0.0
C297 C 0.72516 0.81796 0.91983 0.0
C298 C 0.69581 0.83621 0.91324 0.0
C299 C 0.66614 0.82277 0.90231 0.0
C300 C 0.66593 0.79091 0.89872 0.0
C301 C 0.69405 0.77252 0.90557 0.0
C302 C 0.68643 0.7387 0.90127 0.0
C303 C 0.70972 0.72471 0.87336 0.0
C304 C 0.68943 0.72051 0.93489 0.0
C305 C 0.64975 0.74099 0.89068 0.0
C306 C 0.63864 0.77139 0.88898 0.0
C307 C 0.60625 0.77959 0.87834 0.0
C308 C 0.58469 0.75617 0.86911 0.0
C309 C 0.59523 0.72482 0.87117 0.0
C310 C 0.62813 0.71715 0.88238 0.0
H311 H 0.28707 0.25121 0.46321 0.0
H312 H 0.31238 0.15655 0.43825 0.0
H313 H 0.36784 0.17306 0.41339 0.0
H314 H 0.32479 0.28702 0.38961 0.0
H315 H 0.34059 0.31932 0.41152 0.0
H316 H 0.3031 0.30002 0.42772 0.0
H317 H 0.33119 0.29053 0.48532 0.0
H318 H 0.3687 0.30993 0.46929 0.0
H319 H 0.37217 0.27123 0.48655 0.0
H320 H 0.41895 0.20048 0.38805 0.0
H321 H 0.46416 0.23619 0.36849 0.0
H322 H 0.40672 0.31233 0.41303 0.0
C323 C 0.30434 0.23394 0.45263 0.0
C324 C 0.2954 0.20261 0.45251 0.0
C325 C 0.31877 0.18066 0.43867 0.0
C326 C 0.35026 0.18982 0.42441 0.0
C327 C 0.35815 0.22094 0.42464 0.0
C328 C 0.33606 0.24261 0.43879 0.0
C329 C 0.35084 0.27453 0.43618 0.0
C330 C 0.3285 0.29651 0.41499 0.0
C331 C 0.35604 0.28729 0.47144 0.0
C332 C 0.38451 0.26749 0.41797 0.0
C333 C 0.38816 0.2365 0.4113 0.0
C334 C 0.41656 0.22474 0.39346 0.0
C335 C 0.44201 0.24519 0.38235 0.0
C336 C 0.43903 0.27692 0.38952 0.0
C337 C 0.40989 0.28809 0.40761 0.0
H338 H 0.35165 0.7964 0.9659 0.0
H339 H 0.35008 0.86305 0.88261 0.0
H340 H 0.3862 0.828 0.84763 0.0
H341 H 0.43935 0.77638 0.95356 0.0
H342 H 0.43469 0.73634 0.96559 0.0
H343 H 0.40542 0.76482 0.98276 0.0
H344 H 0.3548 0.73489 0.96079 0.0
H345 H 0.38396 0.70631 0.9435 0.0
H346 H 0.3541 0.72598 0.91661 0.0
H347 H 0.4224 0.78636 0.82207 0.0
H348 H 0.46256 0.7437 0.80916 0.0
H349 H 0.44594 0.70575 0.91083 0.0
C350 C 0.35852 0.80323 0.94008 0.0
C351 C 0.34775 0.83206 0.92653 0.0
C352 C 0.35795 0.84088 0.89314 0.0
C353 C 0.37829 0.8211 0.87313 0.0
C354 C 0.38875 0.79288 0.88721 0.0
C355 C 0.3797 0.7841 0.92007 0.0
C356 C 0.39717 0.75388 0.93 0.0
C357 C 0.42055 0.75813 0.95973 0.0
C358 C 0.37094 0.72878 0.9382 0.0
C359 C 0.41756 0.74718 0.89765 0.0
C360 C 0.41167 0.76969 0.87313 0.0
C361 C 0.42729 0.76862 0.84106 0.0
C362 C 0.44999 0.74419 0.83396 0.0
C363 C 0.45747 0.72139 0.85901 0.0
C364 C 0.44079 0.72287 0.89122 0.0
H365 H 0.66948 0.18269 0.48172 0.0
H366 H 0.74944 0.19221 0.40383 0.0
H367 H 0.71216 0.2272 0.371 0.0
H368 H 0.59826 0.18452 0.427 0.0
H369 H 0.57124 0.20716 0.45501 0.0
H370 H 0.60377 0.18208 0.47199 0.0
H371 H 0.62909 0.22818 0.50201 0.0
H372 H 0.59665 0.2534 0.48512 0.0
H373 H 0.64091 0.26214 0.47755 0.0
H374 H 0.66583 0.25987 0.34588 0.0
H375 H 0.61486 0.29102 0.33181 0.0
H376 H 0.56599 0.26319 0.42755 0.0
C377 C 0.67903 0.19202 0.45766 0.0
C378 C 0.71228 0.18456 0.44518 0.0
C379 C 0.72407 0.19759 0.41386 0.0
C380 C 0.70306 0.21743 0.395 0.0
C381 C 0.67047 0.22437 0.40802 0.0
C382 C 0.65859 0.21234 0.43878 0.0
C383 C 0.62295 0.22442 0.44752 0.0
C384 C 0.59756 0.19796 0.45055 0.0
C385 C 0.62238 0.24315 0.47998 0.0
C386 C 0.61658 0.24493 0.41676 0.0
C387 C 0.64423 0.24432 0.39416 0.0
C388 C 0.6441 0.26068 0.36346 0.0
C389 C 0.615 0.27822 0.35565 0.0
C390 C 0.58652 0.2796 0.37861 0.0
C391 C 0.58749 0.26279 0.40963 0.0
H392 H 0.35836 0.50218 0.97987 0.0
H393 H 0.33985 0.45226 0.88896 0.0
H394 H 0.37598 0.4887 0.85575 0.0
H395 H 0.3605 0.57998 0.93953 0.0
H396 H 0.39398 0.59229 0.96561 0.0
H397 H 0.36412 0.56412 0.98179 0.0
H398 H 0.41401 0.52643 0.99504 0.0
H399 H 0.44398 0.55438 0.97885 0.0
H400 H 0.44441 0.51631 0.96174 0.0
H401 H 0.41847 0.52667 0.83362 0.0
H402 H 0.46344 0.56465 0.82325 0.0
H403 H 0.45376 0.5919 0.92783 0.0
C404 C 0.36137 0.49916 0.95286 0.0
C405 C 0.34608 0.47426 0.93703 0.0
C406 C 0.35107 0.47111 0.90169 0.0
C407 C 0.37155 0.49175 0.8826 0.0
C408 C 0.38667 0.51562 0.89912 0.0
C409 C 0.38164 0.51962 0.93341 0.0
C410 C 0.40228 0.54625 0.94524 0.0
C411 C 0.37881 0.5722 0.95884 0.0
C412 C 0.42767 0.53517 0.97178 0.0
C413 C 0.42048 0.55611 0.91237 0.0
C414 C 0.41087 0.53814 0.88612 0.0
C415 C 0.42575 0.54118 0.85383 0.0
C416 C 0.45136 0.5628 0.84824 0.0
C417 C 0.46185 0.58145 0.87463 0.0
C418 C 0.44575 0.57842 0.90704 0.0
H419 H 0.64323 0.54822 0.42518 0.0
H420 H 0.72488 0.49254 0.4675 0.0
H421 H 0.69659 0.44538 0.45078 0.0
H422 H 0.57618 0.50048 0.45154 0.0
H423 H 0.55233 0.50624 0.41385 0.0
H424 H 0.58018 0.53572 0.42678 0.0
H425 H 0.61226 0.53479 0.3684 0.0
H426 H 0.58425 0.50551 0.35515 0.0
H427 H 0.62965 0.49885 0.35299 0.0
H428 H 0.65652 0.40417 0.43428 0.0
H429 H 0.61015 0.37226 0.41465 0.0
H430 H 0.55602 0.4551 0.38155 0.0
C431 C 0.65546 0.52614 0.43048 0.0
C432 C 0.68625 0.52409 0.44769 0.0
C433 C 0.70136 0.49472 0.45421 0.0
C434 C 0.68544 0.46778 0.4449 0.0
C435 C 0.65466 0.47061 0.42873 0.0
C436 C 0.6401 0.49907 0.42111 0.0
C437 C 0.60653 0.49581 0.40423 0.0
C438 C 0.57708 0.51043 0.42537 0.0
C439 C 0.6083 0.50955 0.36804 0.0
C440 C 0.60414 0.46109 0.4042 0.0
C441 C 0.63209 0.44693 0.41849 0.0
C442 C 0.63472 0.415 0.42265 0.0
C443 C 0.60819 0.39709 0.41163 0.0
C444 C 0.57958 0.41118 0.39646 0.0
C445 C 0.57773 0.44361 0.39271 0.0
H446 H 0.69141 0.45356 0.90501 0.0
H447 H 0.72504 0.49717 0.99501 0.0
H448 H 0.69745 0.54587 0.97687 0.0
H449 H 0.69944 0.52387 0.84771 0.0
H450 H 0.66207 0.51428 0.82554 0.0
H451 H 0.68874 0.48409 0.84305 0.0
H452 H 0.6364 0.46201 0.87637 0.0
H453 H 0.6097 0.49226 0.85938 0.0
H454 H 0.61176 0.48655 0.9045 0.0
H455 H 0.65788 0.58672 0.95459 0.0
H456 H 0.61441 0.61878 0.92575 0.0
H457 H 0.60925 0.55024 0.84852 0.0
C458 C 0.69391 0.47359 0.92037 0.0
C459 C 0.71041 0.47142 0.95147 0.0
C460 C 0.71267 0.49815 0.97104 0.0
C461 C 0.69703 0.526 0.96097 0.0
C462 C 0.67973 0.527 0.93094 0.0
C463 C 0.67872 0.50172 0.9105 0.0
C464 C 0.65665 0.5084 0.88053 0.0
C465 C 0.67801 0.50762 0.84723 0.0
C466 C 0.62687 0.48598 0.88021 0.0
C467 C 0.64428 0.54084 0.88815 0.0
C468 C 0.65794 0.5512 0.91731 0.0
C469 C 0.64769 0.57923 0.93124 0.0
C470 C 0.62287 0.59717 0.91488 0.0
C471 C 0.60893 0.58712 0.88477 0.0
C472 C 0.62014 0.55879 0.87109 0.0
H473 H 0.3406 0.54063 0.41528 0.0
H474 H 0.30511 0.4935 0.50755 0.0
H475 H 0.33722 0.44681 0.49086 0.0
H476 H 0.34215 0.47077 0.36049 0.0
H477 H 0.38038 0.48275 0.33777 0.0
H478 H 0.35058 0.5112 0.35428 0.0
H479 H 0.3989 0.53555 0.38658 0.0
H480 H 0.42871 0.50704 0.37052 0.0
H481 H 0.42307 0.51187 0.41546 0.0
H482 H 0.37929 0.40827 0.4693 0.0
H483 H 0.42586 0.37836 0.44123 0.0
H484 H 0.43361 0.44865 0.36161 0.0
C485 C 0.33871 0.52013 0.43133 0.0
C486 C 0.32023 0.52071 0.46267 0.0
C487 C 0.31908 0.49364 0.48344 0.0
C488 C 0.3372 0.46693 0.47416 0.0
C489 C 0.35624 0.46743 0.44386 0.0
C490 C 0.3568 0.49308 0.42242 0.0
C491 C 0.38145 0.48802 0.39253 0.0
C492 C 0.3625 0.48819 0.3593 0.0
C493 C 0.4097 0.51204 0.39122 0.0
C494 C 0.39542 0.45606 0.40128 0.0
C495 C 0.38035 0.4446 0.43093 0.0
C496 C 0.39083 0.41668 0.44569 0.0
C497 C 0.41744 0.39997 0.42973 0.0
C498 C 0.43312 0.4111 0.39921 0.0
C499 C 0.42164 0.43935 0.38463 0.0
H500 H 0.88823 0.94266 0.90868 0.0
H501 H 0.83342 0.98063 0.9957 0.0
H502 H 0.86356 0.02946 0.98683 0.0
H503 H 0.96698 0.97457 0.92479 0.0
H504 H 0.97942 0.98305 0.88133 0.0
H505 H 0.95085 0.95205 0.89153 0.0
H506 H 0.90627 0.97652 0.85191 0.0
H507 H 0.93495 0.00739 0.84122 0.0
H508 H 0.89252 0.01598 0.85756 0.0
H509 H 0.90265 0.07257 0.97197 0.0
H510 H 0.94654 0.10837 0.95006 0.0
H511 H 0.97734 0.04305 0.8729 0.0
C512 C 0.8819 0.96159 0.92519 0.0
C513 C 0.85821 0.95789 0.95273 0.0
C514 C 0.85135 0.98294 0.97438 0.0
C515 C 0.86836 0.01081 0.96957 0.0
C516 C 0.89236 0.01343 0.94298 0.0
C517 C 0.89899 0.98968 0.9209 0.0
C518 C 0.92748 0.99815 0.89558 0.0
C519 C 0.95798 0.97561 0.8985 0.0
C520 C 0.91452 0.9996 0.85942 0.0
C521 C 0.93611 0.02999 0.90735 0.0
C522 C 0.91537 0.03838 0.93461 0.0
C523 C 0.9189 0.06637 0.95044 0.0
C524 C 0.94407 0.08652 0.9379 0.0
C525 C 0.9656 0.07863 0.90981 0.0
C526 C 0.96143 0.04985 0.89446 0.0
H527 H 0.14154 0.00339 0.48916 0.0
H528 H 0.16917 0.06383 0.404 0.0
H529 H 0.14523 0.02691 0.36512 0.0
H530 H 0.15669 0.92974 0.44644 0.0
H531 H 0.12051 0.91234 0.46805 0.0
H532 H 0.14359 0.94166 0.48831 0.0
H533 H 0.08769 0.97367 0.49702 0.0
H534 H 0.06451 0.94456 0.47676 0.0
H535 H 0.06273 0.98383 0.46099 0.0
H536 H 0.1137 0.98496 0.33622 0.0
H537 H 0.07618 0.94303 0.32041 0.0
H538 H 0.06907 0.91152 0.42531 0.0
C539 C 0.14323 0.00867 0.46229 0.0
C540 C 0.15738 0.03643 0.4496 0.0
C541 C 0.15856 0.04261 0.41427 0.0
C542 C 0.14511 0.02175 0.39201 0.0
C543 C 0.13071 0.99483 0.4055 0.0
C544 C 0.12982 0.98828 0.43987 0.0
C545 C 0.11066 0.95915 0.44848 0.0
C546 C 0.13428 0.93425 0.46371 0.0
C547 C 0.07956 0.96572 0.4722 0.0
C548 C 0.10009 0.95068 0.41371 0.0
C549 C 0.11224 0.9712 0.3891 0.0
C550 C 0.10433 0.96861 0.35526 0.0
C551 C 0.08301 0.94473 0.34652 0.0
C552 C 0.06956 0.92406 0.37164 0.0
C553 C 0.07886 0.92691 0.40548 0.0
H554 H 0.18457 0.99207 0.99122 0.0
H555 H 0.24172 0.96505 0.90041 0.0
H556 H 0.21144 0.00564 0.86768 0.0
H557 H 0.10601 0.00615 0.95274 0.0
H558 H 0.0941 0.03863 0.97836 0.0
H559 H 0.12173 0.00875 0.99472 0.0
H560 H 0.16684 0.04942 0.00638 0.0
H561 H 0.13936 0.07945 0.98989 0.0
H562 H 0.18203 0.07453 0.97238 0.0
H563 H 0.17257 0.04756 0.84442 0.0
H564 H 0.12762 0.0864 0.83228 0.0
H565 H 0.09662 0.08604 0.93868 0.0
C566 C 0.19101 0.99476 0.96449 0.0
C567 C 0.21563 0.97533 0.94842 0.0
C568 C 0.22303 0.97964 0.91333 0.0
C569 C 0.20601 0.0027 0.89454 0.0
C570 C 0.1818 0.02134 0.91123 0.0
C571 C 0.17435 0.01761 0.94543 0.0
C572 C 0.14636 0.03978 0.95716 0.0
C573 C 0.11522 0.02228 0.97158 0.0
C574 C 0.15944 0.06212 0.98298 0.0
C575 C 0.1388 0.05631 0.92411 0.0
C576 C 0.15963 0.04549 0.89793 0.0
C577 C 0.15632 0.05636 0.86478 0.0
C578 C 0.13069 0.07843 0.85815 0.0
C579 C 0.10862 0.08942 0.88453 0.0
C580 C 0.11328 0.07849 0.91799 0.0
H581 H 0.85576 0.00744 0.5032 0.0
H582 H 0.80684 0.04882 0.41616 0.0
H583 H 0.83246 0.00818 0.38026 0.0
H584 H 0.93288 0.98913 0.46251 0.0
H585 H 0.93978 0.95301 0.48488 0.0
H586 H 0.91449 0.98306 0.50449 0.0
H587 H 0.86426 0.94574 0.51365 0.0
H588 H 0.88948 0.91547 0.49411 0.0
H589 H 0.84849 0.92611 0.47805 0.0
H590 H 0.86905 0.96744 0.35274 0.0
H591 H 0.9122 0.92809 0.33584 0.0
H592 H 0.9357 0.91155 0.4409 0.0
C593 C 0.84985 0.00767 0.47671 0.0
C594 C 0.82921 0.03138 0.46252 0.0
C595 C 0.8224 0.03088 0.42768 0.0
C596 C 0.83683 0.00786 0.40708 0.0
C597 C 0.85765 0.98525 0.42177 0.0
C598 C 0.86384 0.98476 0.45587 0.0
C599 C 0.88874 0.959 0.46501 0.0
C600 C 0.92087 0.97183 0.4801 0.0
C601 C 0.87171 0.93517 0.48913 0.0
C602 C 0.89649 0.9457 0.43051 0.0
C603 C 0.87812 0.96111 0.40596 0.0
C604 C 0.88304 0.95482 0.3718 0.0
C605 C 0.90766 0.93253 0.36244 0.0
C606 C 0.92688 0.91662 0.38712 0.0
C607 C 0.92073 0.92287 0.42164 0.0
H608 H 0.36541 0.43854 0.14326 0.0
H609 H 0.3222 0.35087 0.11969 0.0
H610 H 0.34813 0.327 0.17024 0.0
H611 H 0.44385 0.40923 0.16752 0.0
H612 H 0.4488 0.43607 0.20087 0.0
H613 H 0.4236 0.44683 0.16534 0.0
H614 H 0.37202 0.45908 0.20585 0.0
H615 H 0.39715 0.44845 0.24158 0.0
H616 H 0.35723 0.43 0.2359 0.0
H617 H 0.38299 0.312 0.22109 0.0
H618 H 0.42389 0.3072 0.26696 0.0
H619 H 0.44406 0.40491 0.25581 0.0
C620 C 0.3608 0.41444 0.14898 0.0
C621 C 0.34166 0.3966 0.12757 0.0
C622 C 0.33666 0.36504 0.13581 0.0
C623 C 0.35124 0.35129 0.16449 0.0
C624 C 0.37058 0.36948 0.18468 0.0
C625 C 0.37519 0.40042 0.17731 0.0
C626 C 0.39885 0.41456 0.20153 0.0
C627 C 0.43065 0.42741 0.18268 0.0
C628 C 0.38019 0.43949 0.22246 0.0
C629 C 0.40756 0.38659 0.22323 0.0
C630 C 0.39076 0.36085 0.21347 0.0
C631 C 0.39602 0.33209 0.22912 0.0
C632 C 0.41932 0.32959 0.25513 0.0
C633 C 0.43729 0.35565 0.26495 0.0
C634 C 0.43079 0.38451 0.24898 0.0
H635 H 0.67361 0.66939 0.59376 0.0
H636 H 0.73994 0.59202 0.62021 0.0
H637 H 0.71821 0.59408 0.6793 0.0
H638 H 0.67844 0.70991 0.67633 0.0
H639 H 0.63434 0.72191 0.67538 0.0
H640 H 0.65902 0.71764 0.63641 0.0
H641 H 0.61447 0.68013 0.61547 0.0
H642 H 0.58984 0.68411 0.65432 0.0
H643 H 0.60382 0.64642 0.64091 0.0
H644 H 0.6822 0.598 0.732 0.0
H645 H 0.63694 0.60627 0.77612 0.0
H646 H 0.59614 0.68297 0.71732 0.0
C647 C 0.68428 0.65343 0.61216 0.0
C648 C 0.7085 0.63054 0.6023 0.0
C649 C 0.7215 0.60985 0.62711 0.0
C650 C 0.70935 0.61086 0.66079 0.0
C651 C 0.68464 0.63303 0.66941 0.0
C652 C 0.67262 0.65429 0.64596 0.0
C653 C 0.64406 0.67409 0.66114 0.0
C654 C 0.65461 0.7079 0.66239 0.0
C655 C 0.61112 0.67098 0.64182 0.0
C656 C 0.64081 0.65965 0.6963 0.0
C657 C 0.66465 0.63613 0.70061 0.0
C658 C 0.66413 0.61696 0.72938 0.0
C659 C 0.63836 0.62172 0.7542 0.0
C660 C 0.61386 0.64567 0.75023 0.0
C661 C 0.61546 0.66523 0.7213 0.0
H662 H 0.64495 0.33642 0.10733 0.0
H663 H 0.72631 0.39284 0.14101 0.0
H664 H 0.69899 0.39381 0.19807 0.0
H665 H 0.57852 0.37367 0.15074 0.0
H666 H 0.55488 0.33954 0.16181 0.0
H667 H 0.58252 0.34034 0.12456 0.0
H668 H 0.615 0.29173 0.14645 0.0
H669 H 0.58717 0.29055 0.18365 0.0
H670 H 0.63259 0.29157 0.18783 0.0
H671 H 0.65913 0.39432 0.24911 0.0
H672 H 0.61222 0.3899 0.29226 0.0
H673 H 0.55831 0.33129 0.22615 0.0
C674 C 0.65743 0.34843 0.12688 0.0
C675 C 0.68775 0.36458 0.11966 0.0
C676 C 0.70315 0.38018 0.14593 0.0
C677 C 0.68779 0.38093 0.17843 0.0
C678 C 0.65734 0.36558 0.1844 0.0
C679 C 0.64263 0.34916 0.15954 0.0
C680 C 0.60916 0.33568 0.17214 0.0
C681 C 0.57953 0.34806 0.15106 0.0
C682 C 0.61111 0.30028 0.17255 0.0
C683 C 0.60688 0.34785 0.20763 0.0
C684 C 0.6349 0.36507 0.21423 0.0
C685 C 0.63736 0.38043 0.24449 0.0
C686 C 0.61053 0.37797 0.26872 0.0
C687 C 0.58183 0.36009 0.26259 0.0
C688 C 0.58021 0.34471 0.23173 0.0
H689 H 0.3966 0.65315 0.60016 0.0
H690 H 0.31506 0.60179 0.65073 0.0
H691 H 0.34523 0.60273 0.70409 0.0
H692 H 0.46399 0.61614 0.64013 0.0
H693 H 0.48918 0.64995 0.64408 0.0
H694 H 0.45989 0.64804 0.61042 0.0
H695 H 0.4301 0.69865 0.62994 0.0
H696 H 0.45958 0.70092 0.66348 0.0
H697 H 0.41443 0.7016 0.67313 0.0
H698 H 0.38714 0.60338 0.74974 0.0
H699 H 0.43566 0.60858 0.78674 0.0
H700 H 0.48897 0.66188 0.70798 0.0
C701 C 0.38475 0.64264 0.62261 0.0
C702 C 0.35346 0.62735 0.62122 0.0
C703 C 0.33891 0.61374 0.65114 0.0
C704 C 0.3559 0.61409 0.68159 0.0
C705 C 0.38714 0.62855 0.68185 0.0
C706 C 0.40119 0.64307 0.65334 0.0
C707 C 0.43564 0.6561 0.66028 0.0
C708 C 0.46383 0.64169 0.63737 0.0
C709 C 0.43488 0.69142 0.65649 0.0
C710 C 0.43916 0.64582 0.69685 0.0
C711 C 0.4109 0.6299 0.70873 0.0
C712 C 0.40914 0.61626 0.74094 0.0
C713 C 0.43691 0.61912 0.76165 0.0
C714 C 0.4659 0.63572 0.75021 0.0
C715 C 0.46688 0.64945 0.71748 0.0
H716 H 0.87421 0.82901 0.11143 0.0
H717 H 0.78465 0.87647 0.15339 0.0
H718 H 0.80725 0.87032 0.21037 0.0
H719 H 0.88698 0.77468 0.18598 0.0
H720 H 0.9326 0.7772 0.1813 0.0
H721 H 0.90687 0.7806 0.14462 0.0
H722 H 0.93409 0.83308 0.12884 0.0
H723 H 0.95963 0.82999 0.1655 0.0
H724 H 0.93226 0.8633 0.15928 0.0
H725 H 0.84351 0.86771 0.26036 0.0
H726 H 0.8897 0.86548 0.30095 0.0
H727 H 0.95496 0.81751 0.22805 0.0
C728 C 0.85884 0.83724 0.13272 0.0
C729 C 0.82761 0.8532 0.1279 0.0
C730 C 0.80858 0.8641 0.15639 0.0
C731 C 0.82118 0.86066 0.18892 0.0
C732 C 0.85262 0.84587 0.19265 0.0
C733 C 0.87101 0.83388 0.16543 0.0
C734 C 0.90545 0.82144 0.17593 0.0
C735 C 0.90812 0.78639 0.17171 0.0
C736 C 0.93455 0.83795 0.15622 0.0
C737 C 0.90416 0.82961 0.21293 0.0
C738 C 0.87331 0.84347 0.22209 0.0
C739 C 0.86739 0.85612 0.25381 0.0
C740 C 0.89376 0.85488 0.27661 0.0
C741 C 0.92551 0.84085 0.26772 0.0
C742 C 0.93052 0.82752 0.23575 0.0
H743 H 0.146 0.117 0.61323 0.0
H744 H 0.1802 0.21129 0.60297 0.0
H745 H 0.15677 0.22159 0.66046 0.0
H746 H 0.06784 0.13414 0.65392 0.0
H747 H 0.06766 0.10045 0.68145 0.0
H748 H 0.09033 0.0995 0.64116 0.0
H749 H 0.14573 0.08302 0.67075 0.0
H750 H 0.12315 0.08374 0.71118 0.0
H751 H 0.16088 0.10616 0.70397 0.0
H752 H 0.12588 0.22257 0.7173 0.0
H753 H 0.08996 0.21432 0.76903 0.0
H754 H 0.07533 0.11949 0.74144 0.0
C755 C 0.14921 0.13968 0.62325 0.0
C756 C 0.16514 0.16331 0.60362 0.0
C757 C 0.16824 0.19279 0.61756 0.0
C758 C 0.15504 0.19884 0.65021 0.0
C759 C 0.13888 0.17517 0.66857 0.0
C760 C 0.13605 0.14614 0.65564 0.0
C761 C 0.11566 0.12526 0.67959 0.0
C762 C 0.08347 0.1142 0.66303 0.0
C763 C 0.13768 0.09793 0.69211 0.0
C764 C 0.10688 0.14725 0.70776 0.0
C765 C 0.12076 0.17583 0.7011 0.0
C766 C 0.11511 0.20021 0.72291 0.0
C767 C 0.09457 0.19529 0.7522 0.0
C768 C 0.07972 0.16625 0.75934 0.0
C769 C 0.08635 0.14192 0.73685 0.0
H770 H 0.15353 0.92535 0.13617 0.0
H771 H 0.21257 0.84058 0.12384 0.0
H772 H 0.17958 0.81667 0.17186 0.0
H773 H 0.14525 0.92182 0.22766 0.0
H774 H 0.10247 0.93754 0.22818 0.0
H775 H 0.13219 0.948 0.19431 0.0
H776 H 0.09001 0.92972 0.15058 0.0
H777 H 0.06026 0.91908 0.18428 0.0
H778 H 0.0745 0.89096 0.1539 0.0
H779 H 0.13785 0.80186 0.22083 0.0
H780 H 0.09172 0.79775 0.26511 0.0
H781 H 0.06089 0.89244 0.24289 0.0
C782 C 0.15987 0.90184 0.14366 0.0
C783 C 0.18569 0.88486 0.12627 0.0
C784 C 0.19294 0.85407 0.13687 0.0
C785 C 0.17434 0.84031 0.1641 0.0
C786 C 0.14869 0.8577 0.1804 0.0
C787 C 0.14162 0.88784 0.17052 0.0
C788 C 0.11222 0.90148 0.19115 0.0
C789 C 0.12373 0.92882 0.21153 0.0
C790 C 0.0825 0.91084 0.16863 0.0
C791 C 0.10344 0.87421 0.21397 0.0
C792 C 0.12478 0.84917 0.20774 0.0
C793 C 0.12106 0.82138 0.2259 0.0
C794 C 0.09479 0.81924 0.25095 0.0
C795 C 0.07251 0.84467 0.2573 0.0
C796 C 0.07722 0.87243 0.23854 0.0
H797 H 0.86692 0.14589 0.63733 0.0
H798 H 0.80349 0.07538 0.68516 0.0
H799 H 0.83138 0.08249 0.73898 0.0
H800 H 0.94134 0.12418 0.67557 0.0
H801 H 0.95657 0.16251 0.68101 0.0
H802 H 0.92856 0.15523 0.64742 0.0
H803 H 0.8864 0.19738 0.66957 0.0
H804 H 0.91446 0.20496 0.70319 0.0
H805 H 0.87075 0.19544 0.71293 0.0
H806 H 0.87136 0.09145 0.78477 0.0
H807 H 0.91881 0.10409 0.8207 0.0
H808 H 0.95514 0.1703 0.74451 0.0
C809 C 0.85827 0.13251 0.65933 0.0
C810 C 0.83296 0.11009 0.65699 0.0
C811 C 0.82274 0.09274 0.68629 0.0
C812 C 0.8384 0.09664 0.71703 0.0
C813 C 0.86396 0.11824 0.71822 0.0
C814 C 0.87356 0.1362 0.6903 0.0
C815 C 0.90336 0.15621 0.69778 0.0
C816 C 0.93427 0.14909 0.67404 0.0
C817 C 0.89312 0.19053 0.69575 0.0
C818 C 0.90978 0.14584 0.73384 0.0
C819 C 0.88661 0.12405 0.74518 0.0
C820 C 0.88917 0.10898 0.77649 0.0
C821 C 0.91627 0.11619 0.79663 0.0
C822 C 0.94029 0.13841 0.7855 0.0
C823 C 0.93662 0.15378 0.75395 0.0
loop_
_geom_bond_atom_site_label_1
_geom_bond_atom_site_label_2
_geom_bond_distance
_geom_bond_site_symmetry_2
_ccdc_geom_bond_type
O0 Cd1 2.300 . S
O0 C7 1.275 . S
Cd1 O0 2.300 . S
Cd1 O9 2.381 . S
Cd1 O10 2.378 . S
O2 Cd3 2.385 1_556 S
O2 C7 1.255 . S
Cd3 O2 2.385 1_554 S
Cd3 O4 2.317 . S
O4 Cd3 2.317 . S
O4 C5 1.232 . S
C5 O4 1.232 . S
C5 O6 1.218 . S
O6 C5 1.218 . S
C7 O0 1.275 . S
C7 O2 1.255 . S
C8 O9 1.258 . S
C8 O10 1.256 . S
O9 Cd1 2.381 . S
O9 C8 1.258 . S
O10 Cd1 2.378 . S
O10 C8 1.256 . S
O11 Cd12 2.300 . S
O11 C18 1.275 . S
Cd12 O11 2.300 . S
Cd12 O20 2.381 . S
Cd12 O21 2.378 . S
O13 Cd14 2.385 . S
O13 C18 1.255 . S
Cd14 O13 2.385 . S
Cd14 O15 2.317 . S
O15 Cd14 2.317 . S
O15 C16 1.232 . S
C16 O15 1.232 . S
C16 O17 1.218 . S
O17 C16 1.218 . S
C18 O11 1.275 . S
C18 O13 1.255 . S
C19 O20 1.258 . S
C19 O21 1.256 . S
O20 Cd12 2.381 . S
O20 C19 1.258 . S
O21 Cd12 2.378 . S
O21 C19 1.256 . S
O22 Cd23 2.300 . S
O22 C29 1.275 . S
Cd23 O22 2.300 . S
Cd23 O31 2.381 . S
Cd23 O32 2.378 . S
O24 Cd25 2.385 . S
O24 C29 1.255 1_554 S
Cd25 O24 2.385 . S
Cd25 O26 2.317 . S
O26 Cd25 2.317 . S
O26 C27 1.232 . S
C27 O26 1.232 . S
C27 O28 1.218 . S
O28 C27 1.218 . S
C29 O22 1.275 . S
C29 O24 1.255 1_556 S
C30 O31 1.258 . S
C30 O32 1.256 . S
O31 Cd23 2.381 . S
O31 C30 1.258 . S
O32 Cd23 2.378 . S
O32 C30 1.256 . S
O33 Cd34 2.300 . S
O33 C40 1.275 . S
Cd34 O33 2.300 . S
Cd34 O42 2.381 . S
Cd34 O43 2.378 . S
O35 Cd36 2.385 . S
O35 C40 1.255 . S
Cd36 O35 2.385 . S
Cd36 O37 2.317 . S
O37 Cd36 2.317 . S
O37 C38 1.232 . S
C38 O37 1.232 . S
C38 O39 1.218 . S
O39 C38 1.218 . S
C40 O33 1.275 . S
C40 O35 1.255 . S
C41 O42 1.258 . S
C41 O43 1.256 . S
O42 Cd34 2.381 . S
O42 C41 1.258 . S
O43 Cd34 2.378 . S
O43 C41 1.256 . S
O44 Cd45 2.300 . S
O44 C51 1.275 . S
Cd45 O44 2.300 . S
Cd45 O53 2.381 . S
Cd45 O54 2.378 . S
O46 Cd47 2.385 1_556 S
O46 C51 1.255 . S
Cd47 O46 2.385 1_554 S
Cd47 O48 2.317 . S
O48 Cd47 2.317 . S
O48 C49 1.232 . S
C49 O48 1.232 . S
C49 O50 1.218 . S
O50 C49 1.218 . S
C51 O44 1.275 . S
C51 O46 1.255 . S
C52 O53 1.258 . S
C52 O54 1.256 . S
O53 Cd45 2.381 . S
O53 C52 1.258 . S
O54 Cd45 2.378 . S
O54 C52 1.256 . S
O55 Cd56 2.300 . S
O55 C62 1.275 . S
Cd56 O55 2.300 . S
Cd56 O64 2.381 . S
Cd56 O65 2.378 . S
O57 Cd58 2.385 . S
O57 C62 1.255 . S
Cd58 O57 2.385 . S
Cd58 O59 2.317 . S
O59 Cd58 2.317 . S
O59 C60 1.232 . S
C60 O59 1.232 . S
C60 O61 1.218 . S
O61 C60 1.218 . S
C62 O55 1.275 . S
C62 O57 1.255 . S
C63 O64 1.258 . S
C63 O65 1.256 . S
O64 Cd56 2.381 . S
O64 C63 1.258 . S
O65 Cd56 2.378 . S
O65 C63 1.256 . S
O66 Cd67 2.300 . S
O66 C73 1.275 . S
Cd67 O66 2.300 . S
Cd67 O75 2.381 . S
Cd67 O76 2.378 . S
O68 Cd69 2.385 . S
O68 C73 1.255 1_554 S
Cd69 O68 2.385 . S
Cd69 O70 2.317 . S
O70 Cd69 2.317 . S
O70 C71 1.232 . S
C71 O70 1.232 . S
C71 O72 1.218 . S
O72 C71 1.218 . S
C73 O66 1.275 . S
C73 O68 1.255 1_556 S
C74 O75 1.258 . S
C74 O76 1.256 . S
O75 Cd67 2.381 . S
O75 C74 1.258 . S
O76 Cd67 2.378 . S
O76 C74 1.256 . S
O77 Cd78 2.300 . S
O77 C84 1.275 . S
Cd78 O77 2.300 . S
Cd78 O86 2.381 . S
Cd78 O87 2.378 . S
O79 Cd80 2.385 . S
O79 C84 1.255 . S
Cd80 O79 2.385 . S
Cd80 O81 2.317 . S
O81 Cd80 2.317 . S
O81 C82 1.232 . S
C82 O81 1.232 . S
C82 O83 1.218 . S
O83 C82 1.218 . S
C84 O77 1.275 . S
C84 O79 1.255 . S
C85 O86 1.258 . S
C85 O87 1.256 . S
O86 Cd78 2.381 . S
O86 C85 1.258 . S
O87 Cd78 2.378 . S
O87 C85 1.256 . S
Fe88 O90 1.918 . S
Fe88 O93 1.997 1_455 S
Fe88 O94 2.002 1_455 S
Fe88 O99 1.976 . S
Fe88 O102 1.996 . S
Fe89 O90 1.918 . S
Fe89 O97 1.997 1_455 S
Fe89 O100 1.996 . S
Fe89 O104 1.976 . S
Fe89 O107 2.002 1_455 S
O90 Fe88 1.918 . S
O90 Fe89 1.918 . S
O90 Fe91 1.918 . S
Fe91 O90 1.918 . S
Fe91 O92 2.002 1_455 S
Fe91 O101 1.976 . S
Fe91 O105 1.996 . S
Fe91 O108 1.997 1_455 S
O92 Fe91 2.002 1_655 S
O92 C109 1.295 . S
O93 Fe88 1.997 1_655 S
O93 C109 1.235 . S
O94 Fe88 2.002 1_655 S
O94 C95 1.295 . S
C95 O94 1.295 . S
C95 O97 1.235 . S
C96 O101 1.287 . S
C96 O102 1.255 . S
O97 Fe89 1.997 1_655 S
O97 C95 1.235 . S
C98 O104 1.287 . S
C98 O105 1.255 . S
O99 Fe88 1.976 . S
O99 C106 1.287 . S
O100 Fe89 1.996 . S
O100 C106 1.255 . S
O101 Fe91 1.976 . S
O101 C96 1.287 . S
O102 Fe88 1.996 . S
O102 C96 1.255 . S
C103 O107 1.295 . S
C103 O108 1.235 . S
O104 Fe89 1.976 . S
O104 C98 1.287 . S
O105 Fe91 1.996 . S
O105 C98 1.255 . S
C106 O99 1.287 . S
C106 O100 1.255 . S
O107 Fe89 2.002 1_655 S
O107 C103 1.295 . S
O108 Fe91 1.997 1_655 S
O108 C103 1.235 . S
C109 O92 1.295 . S
C109 O93 1.235 . S
Fe110 O112 1.918 . S
Fe110 O115 1.997 . S
Fe110 O116 2.002 . S
Fe110 O121 1.976 1_455 S
Fe110 O124 1.996 1_455 S
Fe111 O112 1.918 . S
Fe111 O119 1.997 . S
Fe111 O122 1.996 1_455 S
Fe111 O126 1.976 1_455 S
Fe111 O129 2.002 . S
O112 Fe110 1.918 . S
O112 Fe111 1.918 . S
O112 Fe113 1.918 . S
Fe113 O112 1.918 . S
Fe113 O114 2.002 . S
Fe113 O123 1.976 1_455 S
Fe113 O127 1.996 1_455 S
Fe113 O130 1.997 . S
O114 Fe113 2.002 . S
O114 C131 1.295 . S
O115 Fe110 1.997 . S
O115 C131 1.235 . S
O116 Fe110 2.002 . S
O116 C117 1.295 . S
C117 O116 1.295 . S
C117 O119 1.235 . S
C118 O123 1.287 . S
C118 O124 1.255 . S
O119 Fe111 1.997 . S
O119 C117 1.235 . S
C120 O126 1.287 . S
C120 O127 1.255 . S
O121 Fe110 1.976 1_655 S
O121 C128 1.287 . S
O122 Fe111 1.996 1_655 S
O122 C128 1.255 . S
O123 Fe113 1.976 1_655 S
O123 C118 1.287 . S
O124 Fe110 1.996 1_655 S
O124 C118 1.255 . S
C125 O129 1.295 . S
C125 O130 1.235 . S
O126 Fe111 1.976 1_655 S
O126 C120 1.287 . S
O127 Fe113 1.996 1_655 S
O127 C120 1.255 . S
C128 O121 1.287 . S
C128 O122 1.255 . S
O129 Fe111 2.002 . S
O129 C125 1.295 . S
O130 Fe113 1.997 . S
O130 C125 1.235 . S
C131 O114 1.295 . S
C131 O115 1.235 . S
Fe132 O134 1.918 . S
Fe132 O137 1.997 . S
Fe132 O138 2.002 . S
Fe132 O143 1.976 . S
Fe132 O146 1.996 . S
Fe133 O134 1.918 . S
Fe133 O141 1.997 . S
Fe133 O144 1.996 . S
Fe133 O148 1.976 . S
Fe133 O151 2.002 . S
O134 Fe132 1.918 . S
O134 Fe133 1.918 . S
O134 Fe135 1.918 . S
Fe135 O134 1.918 . S
Fe135 O136 2.002 . S
Fe135 O145 1.976 . S
Fe135 O149 1.996 . S
Fe135 O152 1.997 . S
O136 Fe135 2.002 . S
O136 C153 1.295 . S
O137 Fe132 1.997 . S
O137 C153 1.235 . S
O138 Fe132 2.002 . S
O138 C139 1.295 . S
C139 O138 1.295 . S
C139 O141 1.235 . S
C140 O145 1.287 . S
C140 O146 1.255 . S
O141 Fe133 1.997 . S
O141 C139 1.235 . S
C142 O148 1.287 . S
C142 O149 1.255 . S
O143 Fe132 1.976 . S
O143 C150 1.287 . S
O144 Fe133 1.996 . S
O144 C150 1.255 . S
O145 Fe135 1.976 . S
O145 C140 1.287 . S
O146 Fe132 1.996 . S
O146 C140 1.255 . S
C147 O151 1.295 . S
C147 O152 1.235 . S
O148 Fe133 1.976 . S
O148 C142 1.287 . S
O149 Fe135 1.996 . S
O149 C142 1.255 . S
C150 O143 1.287 . S
C150 O144 1.255 . S
O151 Fe133 2.002 . S
O151 C147 1.295 . S
O152 Fe135 1.997 . S
O152 C147 1.235 . S
C153 O136 1.295 . S
C153 O137 1.235 . S
Fe154 O156 1.918 . S
Fe154 O159 1.997 . S
Fe154 O160 2.002 . S
Fe154 O165 1.976 . S
Fe154 O168 1.996 . S
Fe155 O156 1.918 . S
Fe155 O163 1.997 . S
Fe155 O166 1.996 . S
Fe155 O170 1.976 . S
Fe155 O173 2.002 . S
O156 Fe154 1.918 . S
O156 Fe155 1.918 . S
O156 Fe157 1.918 . S
Fe157 O156 1.918 . S
Fe157 O158 2.002 . S
Fe157 O167 1.976 . S
Fe157 O171 1.996 . S
Fe157 O174 1.997 . S
O158 Fe157 2.002 . S
O158 C175 1.295 . S
O159 Fe154 1.997 . S
O159 C175 1.235 . S
O160 Fe154 2.002 . S
O160 C161 1.295 . S
C161 O160 1.295 . S
C161 O163 1.235 . S
C162 O167 1.287 . S
C162 O168 1.255 . S
O163 Fe155 1.997 . S
O163 C161 1.235 . S
C164 O170 1.287 . S
C164 O171 1.255 . S
O165 Fe154 1.976 . S
O165 C172 1.287 . S
O166 Fe155 1.996 . S
O166 C172 1.255 . S
O167 Fe157 1.976 . S
O167 C162 1.287 . S
O168 Fe154 1.996 . S
O168 C162 1.255 . S
C169 O173 1.295 . S
C169 O174 1.235 . S
O170 Fe155 1.976 . S
O170 C164 1.287 . S
O171 Fe157 1.996 . S
O171 C164 1.255 . S
C172 O165 1.287 . S
C172 O166 1.255 . S
O173 Fe155 2.002 . S
O173 C169 1.295 . S
O174 Fe157 1.997 . S
O174 C169 1.235 . S
C175 O158 1.295 . S
C175 O159 1.235 . S
H176 C188 0.930 . S
H177 C190 0.930 . S
H178 C191 0.930 . S
H179 C195 0.959 . S
H180 C195 0.959 . S
H181 C195 0.961 . S
H182 C196 0.960 . S
H183 C196 0.961 . S
H184 C196 0.959 . S
H185 C199 0.929 . S
H186 C200 0.931 . S
H187 C202 0.930 . S
C188 H176 0.930 . S
C188 C189 1.399 . S
C188 C193 1.399 . S
C189 C188 1.399 . S
C189 C190 1.376 . S
C190 H177 0.930 . S
C190 C189 1.376 . S
C190 C191 1.388 . S
C191 H178 0.930 . S
C191 C190 1.388 . S
C191 C192 1.390 . S
C192 C191 1.390 . S
C192 C193 1.394 . S
C192 C198 1.465 . S
C193 C188 1.399 . S
C193 C192 1.394 . S
C193 C194 1.516 . S
C194 C193 1.516 . S
C194 C195 1.502 . S
C194 C196 1.561 . S
C194 C197 1.526 . S
C195 H179 0.959 . S
C195 H180 0.959 . S
C195 H181 0.961 . S
C195 C194 1.502 . S
C196 H182 0.960 . S
C196 H183 0.961 . S
C196 H184 0.959 . S
C196 C194 1.561 . S
C197 C194 1.526 . S
C197 C198 1.396 . S
C197 C202 1.390 . S
C198 C192 1.465 . S
C198 C197 1.396 . S
C198 C199 1.399 . S
C199 H185 0.929 . S
C199 C198 1.399 . S
C199 C200 1.385 . S
C200 H186 0.931 . S
C200 C199 1.385 . S
C200 C201 1.389 . S
C201 C200 1.389 . S
C201 C202 1.387 . S
C202 H187 0.930 . S
C202 C197 1.390 . S
C202 C201 1.387 . S
H203 C215 0.930 . S
H204 C217 0.930 . S
H205 C218 0.930 . S
H206 C222 0.959 . S
H207 C222 0.959 . S
H208 C222 0.961 . S
H209 C223 0.960 . S
H210 C223 0.961 . S
H211 C223 0.959 . S
H212 C226 0.929 . S
H213 C227 0.931 . S
H214 C229 0.930 . S
C215 H203 0.930 . S
C215 C216 1.399 . S
C215 C220 1.399 . S
C216 C215 1.399 . S
C216 C217 1.376 . S
C217 H204 0.930 . S
C217 C216 1.376 . S
C217 C218 1.388 . S
C218 H205 0.930 . S
C218 C217 1.388 . S
C218 C219 1.390 . S
C219 C218 1.390 . S
C219 C220 1.394 . S
C219 C225 1.465 . S
C220 C215 1.399 . S
C220 C219 1.394 . S
C220 C221 1.516 . S
C221 C220 1.516 . S
C221 C222 1.502 . S
C221 C223 1.561 . S
C221 C224 1.526 . S
C222 H206 0.959 . S
C222 H207 0.959 . S
C222 H208 0.961 . S
C222 C221 1.502 . S
C223 H209 0.960 . S
C223 H210 0.961 . S
C223 H211 0.959 . S
C223 C221 1.561 . S
C224 C221 1.526 . S
C224 C225 1.396 . S
C224 C229 1.390 . S
C225 C219 1.465 . S
C225 C224 1.396 . S
C225 C226 1.399 . S
C226 H212 0.929 . S
C226 C225 1.399 . S
C226 C227 1.385 . S
C227 H213 0.931 . S
C227 C226 1.385 . S
C227 C228 1.389 . S
C228 C227 1.389 . S
C228 C229 1.387 . S
C229 H214 0.930 . S
C229 C224 1.390 . S
C229 C228 1.387 . S
H230 C242 0.930 . S
H231 C244 0.930 . S
H232 C245 0.930 . S
H233 C249 0.959 . S
H234 C249 0.959 . S
H235 C249 0.961 . S
H236 C250 0.960 . S
H237 C250 0.961 . S
H238 C250 0.959 . S
H239 C253 0.929 . S
H240 C254 0.931 . S
H241 C256 0.930 . S
C242 H230 0.930 . S
C242 C243 1.399 . S
C242 C247 1.399 . S
C243 C242 1.399 . S
C243 C244 1.376 . S
C244 H231 0.930 . S
C244 C243 1.376 . S
C244 C245 1.388 . S
C245 H232 0.930 . S
C245 C244 1.388 . S
C245 C246 1.390 . S
C246 C245 1.390 . S
C246 C247 1.394 . S
C246 C252 1.465 . S
C247 C242 1.399 . S
C247 C246 1.394 . S
C247 C248 1.516 . S
C248 C247 1.516 . S
C248 C249 1.502 . S
C248 C250 1.561 . S
C248 C251 1.526 . S
C249 H233 0.959 . S
C249 H234 0.959 . S
C249 H235 0.961 . S
C249 C248 1.502 . S
C250 H236 0.960 . S
C250 H237 0.961 . S
C250 H238 0.959 . S
C250 C248 1.561 . S
C251 C248 1.526 . S
C251 C252 1.396 . S
C251 C256 1.390 . S
C252 C246 1.465 . S
C252 C251 1.396 . S
C252 C253 1.399 . S
C253 H239 0.929 . S
C253 C252 1.399 . S
C253 C254 1.385 . S
C254 H240 0.931 . S
C254 C253 1.385 . S
C254 C255 1.389 . S
C255 C254 1.389 . S
C255 C256 1.387 . S
C256 H241 0.930 . S
C256 C251 1.390 . S
C256 C255 1.387 . S
H257 C269 0.930 . S
H258 C271 0.930 . S
H259 C272 0.930 . S
H260 C276 0.959 . S
H261 C276 0.959 . S
H262 C276 0.961 . S
H263 C277 0.960 . S
H264 C277 0.961 . S
H265 C277 0.959 . S
H266 C280 0.929 . S
H267 C281 0.931 . S
H268 C283 0.930 . S
C269 H257 0.930 . S
C269 C270 1.399 . S
C269 C274 1.399 . S
C270 C269 1.399 . S
C270 C271 1.376 . S
C271 H258 0.930 . S
C271 C270 1.376 . S
C271 C272 1.388 . S
C272 H259 0.930 . S
C272 C271 1.388 . S
C272 C273 1.390 . S
C273 C272 1.390 . S
C273 C274 1.394 . S
C273 C279 1.465 . S
C274 C269 1.399 . S
C274 C273 1.394 . S
C274 C275 1.516 . S
C275 C274 1.516 . S
C275 C276 1.502 . S
C275 C277 1.561 . S
C275 C278 1.526 . S
C276 H260 0.959 . S
C276 H261 0.959 . S
C276 H262 0.961 . S
C276 C275 1.502 . S
C277 H263 0.960 . S
C277 H264 0.961 . S
C277 H265 0.959 . S
C277 C275 1.561 . S
C278 C275 1.526 . S
C278 C279 1.396 . S
C278 C283 1.390 . S
C279 C273 1.465 . S
C279 C278 1.396 . S
C279 C280 1.399 . S
C280 H266 0.929 . S
C280 C279 1.399 . S
C280 C281 1.385 . S
C281 H267 0.931 . S
C281 C280 1.385 . S
C281 C282 1.389 . S
C282 C281 1.389 . S
C282 C283 1.387 . S
C283 H268 0.930 . S
C283 C278 1.390 . S
C283 C282 1.387 . S
H284 C296 0.930 . S
H285 C298 0.930 . S
H286 C299 0.930 . S
H287 C303 0.959 . S
H288 C303 0.959 . S
H289 C303 0.961 . S
H290 C304 0.960 . S
H291 C304 0.961 . S
H292 C304 0.959 . S
H293 C307 0.929 . S
H294 C308 0.931 . S
H295 C310 0.930 . S
C296 H284 0.930 . S
C296 C297 1.399 . S
C296 C301 1.399 . S
C297 C296 1.399 . S
C297 C298 1.376 . S
C298 H285 0.930 . S
C298 C297 1.376 . S
C298 C299 1.388 . S
C299 H286 0.930 . S
C299 C298 1.388 . S
C299 C300 1.390 . S
C300 C299 1.390 . S
C300 C301 1.394 . S
C300 C306 1.465 . S
C301 C296 1.399 . S
C301 C300 1.394 . S
C301 C302 1.516 . S
C302 C301 1.516 . S
C302 C303 1.502 . S
C302 C304 1.561 . S
C302 C305 1.526 . S
C303 H287 0.959 . S
C303 H288 0.959 . S
C303 H289 0.961 . S
C303 C302 1.502 . S
C304 H290 0.960 . S
C304 H291 0.961 . S
C304 H292 0.959 . S
C304 C302 1.561 . S
C305 C302 1.526 . S
C305 C306 1.396 . S
C305 C310 1.390 . S
C306 C300 1.465 . S
C306 C305 1.396 . S
C306 C307 1.399 . S
C307 H293 0.929 . S
C307 C306 1.399 . S
C307 C308 1.385 . S
C308 H294 0.931 . S
C308 C307 1.385 . S
C308 C309 1.389 . S
C309 C308 1.389 . S
C309 C310 1.387 . S
C310 H295 0.930 . S
C310 C305 1.390 . S
C310 C309 1.387 . S
H311 C323 0.930 . S
H312 C325 0.930 . S
H313 C326 0.930 . S
H314 C330 0.959 . S
H315 C330 0.959 . S
H316 C330 0.961 . S
H317 C331 0.960 . S
H318 C331 0.961 . S
H319 C331 0.959 . S
H320 C334 0.929 . S
H321 C335 0.931 . S
H322 C337 0.930 . S
C323 H311 0.930 . S
C323 C324 1.399 . S
C323 C328 1.399 . S
C324 C323 1.399 . S
C324 C325 1.376 . S
C325 H312 0.930 . S
C325 C324 1.376 . S
C325 C326 1.388 . S
C326 H313 0.930 . S
C326 C325 1.388 . S
C326 C327 1.390 . S
C327 C326 1.390 . S
C327 C328 1.394 . S
C327 C333 1.465 . S
C328 C323 1.399 . S
C328 C327 1.394 . S
C328 C329 1.516 . S
C329 C328 1.516 . S
C329 C330 1.502 . S
C329 C331 1.561 . S
C329 C332 1.526 . S
C330 H314 0.959 . S
C330 H315 0.959 . S
C330 H316 0.961 . S
C330 C329 1.502 . S
C331 H317 0.960 . S
C331 H318 0.961 . S
C331 H319 0.959 . S
C331 C329 1.561 . S
C332 C329 1.526 . S
C332 C333 1.396 . S
C332 C337 1.390 . S
C333 C327 1.465 . S
C333 C332 1.396 . S
C333 C334 1.399 . S
C334 H320 0.929 . S
C334 C333 1.399 . S
C334 C335 1.385 . S
C335 H321 0.931 . S
C335 C334 1.385 . S
C335 C336 1.389 . S
C336 C335 1.389 . S
C336 C337 1.387 . S
C337 H322 0.930 . S
C337 C332 1.390 . S
C337 C336 1.387 . S
H338 C350 0.930 . S
H339 C352 0.930 . S
H340 C353 0.930 . S
H341 C357 0.959 . S
H342 C357 0.959 . S
H343 C357 0.961 . S
H344 C358 0.960 . S
H345 C358 0.961 . S
H346 C358 0.959 . S
H347 C361 0.929 . S
H348 C362 0.931 . S
H349 C364 0.930 . S
C350 H338 0.930 . S
C350 C351 1.399 . S
C350 C355 1.399 . S
C351 C350 1.399 . S
C351 C352 1.376 . S
C352 H339 0.930 . S
C352 C351 1.376 . S
C352 C353 1.388 . S
C353 H340 0.930 . S
C353 C352 1.388 . S
C353 C354 1.390 . S
C354 C353 1.390 . S
C354 C355 1.394 . S
C354 C360 1.465 . S
C355 C350 1.399 . S
C355 C354 1.394 . S
C355 C356 1.516 . S
C356 C355 1.516 . S
C356 C357 1.502 . S
C356 C358 1.561 . S
C356 C359 1.526 . S
C357 H341 0.959 . S
C357 H342 0.959 . S
C357 H343 0.961 . S
C357 C356 1.502 . S
C358 H344 0.960 . S
C358 H345 0.961 . S
C358 H346 0.959 . S
C358 C356 1.561 . S
C359 C356 1.526 . S
C359 C360 1.396 . S
C359 C364 1.390 . S
C360 C354 1.465 . S
C360 C359 1.396 . S
C360 C361 1.399 . S
C361 H347 0.929 . S
C361 C360 1.399 . S
C361 C362 1.385 . S
C362 H348 0.931 . S
C362 C361 1.385 . S
C362 C363 1.389 . S
C363 C362 1.389 . S
C363 C364 1.387 . S
C364 H349 0.930 . S
C364 C359 1.390 . S
C364 C363 1.387 . S
H365 C377 0.930 . S
H366 C379 0.930 . S
H367 C380 0.930 . S
H368 C384 0.959 . S
H369 C384 0.959 . S
H370 C384 0.961 . S
H371 C385 0.960 . S
H372 C385 0.961 . S
H373 C385 0.959 . S
H374 C388 0.929 . S
H375 C389 0.931 . S
H376 C391 0.930 . S
C377 H365 0.930 . S
C377 C378 1.399 . S
C377 C382 1.399 . S
C378 C377 1.399 . S
C378 C379 1.376 . S
C379 H366 0.930 . S
C379 C378 1.376 . S
C379 C380 1.388 . S
C380 H367 0.930 . S
C380 C379 1.388 . S
C380 C381 1.390 . S
C381 C380 1.390 . S
C381 C382 1.394 . S
C381 C387 1.465 . S
C382 C377 1.399 . S
C382 C381 1.394 . S
C382 C383 1.516 . S
C383 C382 1.516 . S
C383 C384 1.502 . S
C383 C385 1.561 . S
C383 C386 1.526 . S
C384 H368 0.959 . S
C384 H369 0.959 . S
C384 H370 0.961 . S
C384 C383 1.502 . S
C385 H371 0.960 . S
C385 H372 0.961 . S
C385 H373 0.959 . S
C385 C383 1.561 . S
C386 C383 1.526 . S
C386 C387 1.396 . S
C386 C391 1.390 . S
C387 C381 1.465 . S
C387 C386 1.396 . S
C387 C388 1.399 . S
C388 H374 0.929 . S
C388 C387 1.399 . S
C388 C389 1.385 . S
C389 H375 0.931 . S
C389 C388 1.385 . S
C389 C390 1.389 . S
C390 C389 1.389 . S
C390 C391 1.387 . S
C391 H376 0.930 . S
C391 C386 1.390 . S
C391 C390 1.387 . S
H392 C404 0.930 . S
H393 C406 0.930 . S
H394 C407 0.930 . S
H395 C411 0.959 . S
H396 C411 0.959 . S
H397 C411 0.961 . S
H398 C412 0.960 1_554 S
H399 C412 0.961 . S
H400 C412 0.959 . S
H401 C415 0.929 . S
H402 C416 0.931 . S
H403 C418 0.930 . S
C404 H392 0.930 . S
C404 C405 1.399 . S
C404 C409 1.399 . S
C405 C404 1.399 . S
C405 C406 1.376 . S
C406 H393 0.930 . S
C406 C405 1.376 . S
C406 C407 1.388 . S
C407 H394 0.930 . S
C407 C406 1.388 . S
C407 C408 1.390 . S
C408 C407 1.390 . S
C408 C409 1.394 . S
C408 C414 1.465 . S
C409 C404 1.399 . S
C409 C408 1.394 . S
C409 C410 1.516 . S
C410 C409 1.516 . S
C410 C411 1.502 . S
C410 C412 1.561 . S
C410 C413 1.526 . S
C411 H395 0.959 . S
C411 H396 0.959 . S
C411 H397 0.961 . S
C411 C410 1.502 . S
C412 H398 0.960 1_556 S
C412 H399 0.961 . S
C412 H400 0.959 . S
C412 C410 1.561 . S
C413 C410 1.526 . S
C413 C414 1.396 . S
C413 C418 1.390 . S
C414 C408 1.465 . S
C414 C413 1.396 . S
C414 C415 1.399 . S
C415 H401 0.929 . S
C415 C414 1.399 . S
C415 C416 1.385 . S
C416 H402 0.931 . S
C416 C415 1.385 . S
C416 C417 1.389 . S
C417 C416 1.389 . S
C417 C418 1.387 . S
C418 H403 0.930 . S
C418 C413 1.390 . S
C418 C417 1.387 . S
H419 C431 0.930 . S
H420 C433 0.930 . S
H421 C434 0.930 . S
H422 C438 0.959 . S
H423 C438 0.959 . S
H424 C438 0.961 . S
H425 C439 0.960 . S
H426 C439 0.961 . S
H427 C439 0.959 . S
H428 C442 0.929 . S
H429 C443 0.931 . S
H430 C445 0.930 . S
C431 H419 0.930 . S
C431 C432 1.399 . S
C431 C436 1.399 . S
C432 C431 1.399 . S
C432 C433 1.376 . S
C433 H420 0.930 . S
C433 C432 1.376 . S
C433 C434 1.388 . S
C434 H421 0.930 . S
C434 C433 1.388 . S
C434 C435 1.390 . S
C435 C434 1.390 . S
C435 C436 1.394 . S
C435 C441 1.465 . S
C436 C431 1.399 . S
C436 C435 1.394 . S
C436 C437 1.516 . S
C437 C436 1.516 . S
C437 C438 1.502 . S
C437 C439 1.561 . S
C437 C440 1.526 . S
C438 H422 0.959 . S
C438 H423 0.959 . S
C438 H424 0.961 . S
C438 C437 1.502 . S
C439 H425 0.960 . S
C439 H426 0.961 . S
C439 H427 0.959 . S
C439 C437 1.561 . S
C440 C437 1.526 . S
C440 C441 1.396 . S
C440 C445 1.390 . S
C441 C435 1.465 . S
C441 C440 1.396 . S
C441 C442 1.399 . S
C442 H428 0.929 . S
C442 C441 1.399 . S
C442 C443 1.385 . S
C443 H429 0.931 . S
C443 C442 1.385 . S
C443 C444 1.389 . S
C444 C443 1.389 . S
C444 C445 1.387 . S
C445 H430 0.930 . S
C445 C440 1.390 . S
C445 C444 1.387 . S
H446 C458 0.930 . S
H447 C460 0.930 1_554 S
H448 C461 0.930 . S
H449 C465 0.959 . S
H450 C465 0.959 . S
H451 C465 0.961 . S
H452 C466 0.960 . S
H453 C466 0.961 . S
H454 C466 0.959 . S
H455 C469 0.929 . S
H456 C470 0.931 . S
H457 C472 0.930 . S
C458 H446 0.930 . S
C458 C459 1.399 . S
C458 C463 1.399 . S
C459 C458 1.399 . S
C459 C460 1.376 . S
C460 H447 0.930 1_556 S
C460 C459 1.376 . S
C460 C461 1.388 . S
C461 H448 0.930 . S
C461 C460 1.388 . S
C461 C462 1.390 . S
C462 C461 1.390 . S
C462 C463 1.394 . S
C462 C468 1.465 . S
C463 C458 1.399 . S
C463 C462 1.394 . S
C463 C464 1.516 . S
C464 C463 1.516 . S
C464 C465 1.502 . S
C464 C466 1.561 . S
C464 C467 1.526 . S
C465 H449 0.959 . S
C465 H450 0.959 . S
C465 H451 0.961 . S
C465 C464 1.502 . S
C466 H452 0.960 . S
C466 H453 0.961 . S
C466 H454 0.959 . S
C466 C464 1.561 . S
C467 C464 1.526 . S
C467 C468 1.396 . S
C467 C472 1.390 . S
C468 C462 1.465 . S
C468 C467 1.396 . S
C468 C469 1.399 . S
C469 H455 0.929 . S
C469 C468 1.399 . S
C469 C470 1.385 . S
C470 H456 0.931 . S
C470 C469 1.385 . S
C470 C471 1.389 . S
C471 C470 1.389 . S
C471 C472 1.387 . S
C472 H457 0.930 . S
C472 C467 1.390 . S
C472 C471 1.387 . S
H473 C485 0.930 . S
H474 C487 0.930 . S
H475 C488 0.930 . S
H476 C492 0.959 . S
H477 C492 0.959 . S
H478 C492 0.961 . S
H479 C493 0.960 . S
H480 C493 0.961 . S
H481 C493 0.959 . S
H482 C496 0.929 . S
H483 C497 0.931 . S
H484 C499 0.930 . S
C485 H473 0.930 . S
C485 C486 1.399 . S
C485 C490 1.399 . S
C486 C485 1.399 . S
C486 C487 1.376 . S
C487 H474 0.930 . S
C487 C486 1.376 . S
C487 C488 1.388 . S
C488 H475 0.930 . S
C488 C487 1.388 . S
C488 C489 1.390 . S
C489 C488 1.390 . S
C489 C490 1.394 . S
C489 C495 1.465 . S
C490 C485 1.399 . S
C490 C489 1.394 . S
C490 C491 1.516 . S
C491 C490 1.516 . S
C491 C492 1.502 . S
C491 C493 1.561 . S
C491 C494 1.526 . S
C492 H476 0.959 . S
C492 H477 0.959 . S
C492 H478 0.961 . S
C492 C491 1.502 . S
C493 H479 0.960 . S
C493 H480 0.961 . S
C493 H481 0.959 . S
C493 C491 1.561 . S
C494 C491 1.526 . S
C494 C495 1.396 . S
C494 C499 1.390 . S
C495 C489 1.465 . S
C495 C494 1.396 . S
C495 C496 1.399 . S
C496 H482 0.929 . S
C496 C495 1.399 . S
C496 C497 1.385 . S
C497 H483 0.931 . S
C497 C496 1.385 . S
C497 C498 1.389 . S
C498 C497 1.389 . S
C498 C499 1.387 . S
C499 H484 0.930 . S
C499 C494 1.390 . S
C499 C498 1.387 . S
H500 C512 0.930 . S
H501 C514 0.930 1_554 S
H502 C515 0.930 . S
H503 C519 0.959 . S
H504 C519 0.959 . S
H505 C519 0.961 . S
H506 C520 0.960 . S
H507 C520 0.961 . S
H508 C520 0.959 . S
H509 C523 0.929 . S
H510 C524 0.931 . S
H511 C526 0.930 . S
C512 H500 0.930 . S
C512 C513 1.399 . S
C512 C517 1.399 . S
C513 C512 1.399 . S
C513 C514 1.376 . S
C514 H501 0.930 1_556 S
C514 C513 1.376 . S
C514 C515 1.388 1_565 S
C515 H502 0.930 . S
C515 C514 1.388 1_545 S
C515 C516 1.388 1_545 S
C516 C515 1.388 1_565 S
C516 C517 1.410 . S
C516 C522 1.453 1_565 S
C517 C512 1.399 . S
C517 C516 1.410 . S
C517 C518 1.516 . S
C518 C517 1.516 . S
C518 C519 1.502 . S
C518 C520 1.561 . S
C518 C521 1.526 1_565 S
C519 H503 0.959 . S
C519 H504 0.959 . S
C519 H505 0.961 . S
C519 C518 1.502 . S
C520 H506 0.960 . S
C520 H507 0.961 . S
C520 H508 0.959 . S
C520 C518 1.561 . S
C521 C518 1.526 1_545 S
C521 C522 1.396 . S
C521 C526 1.390 . S
C522 C516 1.453 1_545 S
C522 C521 1.396 . S
C522 C523 1.399 . S
C523 H509 0.929 . S
C523 C522 1.399 . S
C523 C524 1.385 . S
C524 H510 0.931 . S
C524 C523 1.385 . S
C524 C525 1.389 . S
C525 C524 1.389 . S
C525 C526 1.387 . S
C526 H511 0.930 . S
C526 C521 1.390 . S
C526 C525 1.387 . S
H527 C539 0.930 . S
H528 C541 0.930 . S
H529 C542 0.930 1_565 S
H530 C546 0.959 . S
H531 C546 0.959 . S
H532 C546 0.961 1_545 S
H533 C547 0.960 . S
H534 C547 0.961 . S
H535 C547 0.959 . S
H536 C550 0.929 . S
H537 C551 0.931 . S
H538 C553 0.930 . S
C539 H527 0.930 . S
C539 C540 1.399 . S
C539 C544 1.399 . S
C540 C539 1.399 . S
C540 C541 1.376 . S
C541 H528 0.930 . S
C541 C540 1.376 . S
C541 C542 1.388 . S
C542 H529 0.930 1_545 S
C542 C541 1.388 . S
C542 C543 1.391 1_545 S
C543 C542 1.391 1_565 S
C543 C544 1.395 1_565 S
C543 C549 1.463 . S
C544 C539 1.399 . S
C544 C543 1.395 1_545 S
C544 C545 1.516 . S
C545 C544 1.516 . S
C545 C546 1.502 1_545 S
C545 C547 1.561 . S
C545 C548 1.526 1_545 S
C546 H530 0.959 . S
C546 H531 0.959 . S
C546 H532 0.961 1_565 S
C546 C545 1.502 1_565 S
C547 H533 0.960 . S
C547 H534 0.961 . S
C547 H535 0.959 . S
C547 C545 1.561 . S
C548 C545 1.526 1_565 S
C548 C549 1.396 . S
C548 C553 1.390 . S
C549 C543 1.463 . S
C549 C548 1.396 . S
C549 C550 1.399 . S
C550 H536 0.929 . S
C550 C549 1.399 . S
C550 C551 1.385 . S
C551 H537 0.931 . S
C551 C550 1.385 . S
C551 C552 1.389 . S
C552 C551 1.389 . S
C552 C553 1.387 . S
C553 H538 0.930 . S
C553 C548 1.390 . S
C553 C552 1.387 . S
H554 C566 0.930 . S
H555 C568 0.930 . S
H556 C569 0.930 . S
H557 C573 0.959 . S
H558 C573 0.959 . S
H559 C573 0.961 . S
H560 C574 0.960 1_554 S
H561 C574 0.961 . S
H562 C574 0.959 . S
H563 C577 0.929 . S
H564 C578 0.931 . S
H565 C580 0.930 . S
C566 H554 0.930 . S
C566 C567 1.399 . S
C566 C571 1.399 . S
C567 C566 1.399 . S
C567 C568 1.376 . S
C568 H555 0.930 . S
C568 C567 1.376 . S
C568 C569 1.388 . S
C569 H556 0.930 . S
C569 C568 1.388 . S
C569 C570 1.390 . S
C570 C569 1.390 . S
C570 C571 1.394 . S
C570 C576 1.465 1_565 S
C571 C566 1.399 . S
C571 C570 1.394 . S
C571 C572 1.516 1_565 S
C572 C571 1.516 1_545 S
C572 C573 1.502 1_545 S
C572 C574 1.561 . S
C572 C575 1.526 . S
C573 H557 0.959 . S
C573 H558 0.959 . S
C573 H559 0.961 . S
C573 C572 1.502 1_565 S
C574 H560 0.960 1_556 S
C574 H561 0.961 . S
C574 H562 0.959 . S
C574 C572 1.561 . S
C575 C572 1.526 . S
C575 C576 1.396 . S
C575 C580 1.390 . S
C576 C570 1.465 1_545 S
C576 C575 1.396 . S
C576 C577 1.399 . S
C577 H563 0.929 . S
C577 C576 1.399 . S
C577 C578 1.385 . S
C578 H564 0.931 . S
C578 C577 1.385 . S
C578 C579 1.389 . S
C579 C578 1.389 . S
C579 C580 1.387 . S
C580 H565 0.930 . S
C580 C575 1.390 . S
C580 C579 1.387 . S
H581 C593 0.930 . S
H582 C595 0.930 . S
H583 C596 0.930 . S
H584 C600 0.959 . S
H585 C600 0.959 . S
H586 C600 0.961 . S
H587 C601 0.960 . S
H588 C601 0.961 . S
H589 C601 0.959 . S
H590 C604 0.929 1_545 S
H591 C605 0.931 . S
H592 C607 0.930 . S
C593 H581 0.930 . S
C593 C594 1.399 . S
C593 C598 1.399 . S
C594 C593 1.399 . S
C594 C595 1.376 . S
C595 H582 0.930 . S
C595 C594 1.376 . S
C595 C596 1.388 . S
C596 H583 0.930 . S
C596 C595 1.388 . S
C596 C597 1.390 . S
C597 C596 1.390 . S
C597 C598 1.394 . S
C597 C603 1.465 1_545 S
C598 C593 1.399 . S
C598 C597 1.394 . S
C598 C599 1.516 1_545 S
C599 C598 1.516 1_565 S
C599 C600 1.502 . S
C599 C601 1.561 . S
C599 C602 1.526 . S
C600 H584 0.959 . S
C600 H585 0.959 . S
C600 H586 0.961 . S
C600 C599 1.502 . S
C601 H587 0.960 . S
C601 H588 0.961 . S
C601 H589 0.959 . S
C601 C599 1.561 . S
C602 C599 1.526 . S
C602 C603 1.396 . S
C602 C607 1.390 . S
C603 C597 1.465 1_565 S
C603 C602 1.396 . S
C603 C604 1.399 . S
C604 H590 0.929 1_565 S
C604 C603 1.399 . S
C604 C605 1.385 . S
C605 H591 0.931 . S
C605 C604 1.385 . S
C605 C606 1.389 . S
C606 C605 1.389 . S
C606 C607 1.387 . S
C607 H592 0.930 . S
C607 C602 1.390 . S
C607 C606 1.387 . S
H608 C620 0.930 . S
H609 C622 0.930 . S
H610 C623 0.930 . S
H611 C627 0.959 . S
H612 C627 0.959 . S
H613 C627 0.961 . S
H614 C628 0.960 . S
H615 C628 0.961 . S
H616 C628 0.959 . S
H617 C631 0.929 . S
H618 C632 0.931 . S
H619 C634 0.930 . S
C620 H608 0.930 . S
C620 C621 1.399 . S
C620 C625 1.399 . S
C621 C620 1.399 . S
C621 C622 1.376 . S
C622 H609 0.930 . S
C622 C621 1.376 . S
C622 C623 1.388 . S
C623 H610 0.930 . S
C623 C622 1.388 . S
C623 C624 1.390 . S
C624 C623 1.390 . S
C624 C625 1.394 . S
C624 C630 1.465 . S
C625 C620 1.399 . S
C625 C624 1.394 . S
C625 C626 1.516 . S
C626 C625 1.516 . S
C626 C627 1.502 . S
C626 C628 1.561 . S
C626 C629 1.526 . S
C627 H611 0.959 . S
C627 H612 0.959 . S
C627 H613 0.961 . S
C627 C626 1.502 . S
C628 H614 0.960 . S
C628 H615 0.961 . S
C628 H616 0.959 . S
C628 C626 1.561 . S
C629 C626 1.526 . S
C629 C630 1.396 . S
C629 C634 1.390 . S
C630 C624 1.465 . S
C630 C629 1.396 . S
C630 C631 1.399 . S
C631 H617 0.929 . S
C631 C630 1.399 . S
C631 C632 1.385 . S
C632 H618 0.931 . S
C632 C631 1.385 . S
C632 C633 1.389 . S
C633 C632 1.389 . S
C633 C634 1.387 . S
C634 H619 0.930 . S
C634 C629 1.390 . S
C634 C633 1.387 . S
H635 C647 0.930 . S
H636 C649 0.930 . S
H637 C650 0.930 . S
H638 C654 0.959 . S
H639 C654 0.959 . S
H640 C654 0.961 . S
H641 C655 0.960 . S
H642 C655 0.961 . S
H643 C655 0.959 . S
H644 C658 0.929 . S
H645 C659 0.931 . S
H646 C661 0.930 . S
C647 H635 0.930 . S
C647 C648 1.399 . S
C647 C652 1.399 . S
C648 C647 1.399 . S
C648 C649 1.376 . S
C649 H636 0.930 . S
C649 C648 1.376 . S
C649 C650 1.388 . S
C650 H637 0.930 . S
C650 C649 1.388 . S
C650 C651 1.390 . S
C651 C650 1.390 . S
C651 C652 1.394 . S
C651 C657 1.465 . S
C652 C647 1.399 . S
C652 C651 1.394 . S
C652 C653 1.516 . S
C653 C652 1.516 . S
C653 C654 1.502 . S
C653 C655 1.561 . S
C653 C656 1.526 . S
C654 H638 0.959 . S
C654 H639 0.959 . S
C654 H640 0.961 . S
C654 C653 1.502 . S
C655 H641 0.960 . S
C655 H642 0.961 . S
C655 H643 0.959 . S
C655 C653 1.561 . S
C656 C653 1.526 . S
C656 C657 1.396 . S
C656 C661 1.390 . S
C657 C651 1.465 . S
C657 C656 1.396 . S
C657 C658 1.399 . S
C658 H644 0.929 . S
C658 C657 1.399 . S
C658 C659 1.385 . S
C659 H645 0.931 . S
C659 C658 1.385 . S
C659 C660 1.389 . S
C660 C659 1.389 . S
C660 C661 1.387 . S
C661 H646 0.930 . S
C661 C656 1.390 . S
C661 C660 1.387 . S
H662 C674 0.930 . S
H663 C676 0.930 . S
H664 C677 0.930 . S
H665 C681 0.959 . S
H666 C681 0.959 . S
H667 C681 0.961 . S
H668 C682 0.960 . S
H669 C682 0.961 . S
H670 C682 0.959 . S
H671 C685 0.929 . S
H672 C686 0.931 . S
H673 C688 0.930 . S
C674 H662 0.930 . S
C674 C675 1.399 . S
C674 C679 1.399 . S
C675 C674 1.399 . S
C675 C676 1.376 . S
C676 H663 0.930 . S
C676 C675 1.376 . S
C676 C677 1.388 . S
C677 H664 0.930 . S
C677 C676 1.388 . S
C677 C678 1.390 . S
C678 C677 1.390 . S
C678 C679 1.394 . S
C678 C684 1.465 . S
C679 C674 1.399 . S
C679 C678 1.394 . S
C679 C680 1.516 . S
C680 C679 1.516 . S
C680 C681 1.502 . S
C680 C682 1.561 . S
C680 C683 1.526 . S
C681 H665 0.959 . S
C681 H666 0.959 . S
C681 H667 0.961 . S
C681 C680 1.502 . S
C682 H668 0.960 . S
C682 H669 0.961 . S
C682 H670 0.959 . S
C682 C680 1.561 . S
C683 C680 1.526 . S
C683 C684 1.396 . S
C683 C688 1.390 . S
C684 C678 1.465 . S
C684 C683 1.396 . S
C684 C685 1.399 . S
C685 H671 0.929 . S
C685 C684 1.399 . S
C685 C686 1.385 . S
C686 H672 0.931 . S
C686 C685 1.385 . S
C686 C687 1.389 . S
C687 C686 1.389 . S
C687 C688 1.387 . S
C688 H673 0.930 . S
C688 C683 1.390 . S
C688 C687 1.387 . S
H689 C701 0.930 . S
H690 C703 0.930 . S
H691 C704 0.930 . S
H692 C708 0.959 . S
H693 C708 0.959 . S
H694 C708 0.961 . S
H695 C709 0.960 . S
H696 C709 0.961 . S
H697 C709 0.959 . S
H698 C712 0.929 . S
H699 C713 0.931 . S
H700 C715 0.930 . S
C701 H689 0.930 . S
C701 C702 1.399 . S
C701 C706 1.399 . S
C702 C701 1.399 . S
C702 C703 1.376 . S
C703 H690 0.930 . S
C703 C702 1.376 . S
C703 C704 1.388 . S
C704 H691 0.930 . S
C704 C703 1.388 . S
C704 C705 1.390 . S
C705 C704 1.390 . S
C705 C706 1.394 . S
C705 C711 1.465 . S
C706 C701 1.399 . S
C706 C705 1.394 . S
C706 C707 1.516 . S
C707 C706 1.516 . S
C707 C708 1.502 . S
C707 C709 1.561 . S
C707 C710 1.526 . S
C708 H692 0.959 . S
C708 H693 0.959 . S
C708 H694 0.961 . S
C708 C707 1.502 . S
C709 H695 0.960 . S
C709 H696 0.961 . S
C709 H697 0.959 . S
C709 C707 1.561 . S
C710 C707 1.526 . S
C710 C711 1.396 . S
C710 C715 1.390 . S
C711 C705 1.465 . S
C711 C710 1.396 . S
C711 C712 1.399 . S
C712 H698 0.929 . S
C712 C711 1.399 . S
C712 C713 1.385 . S
C713 H699 0.931 . S
C713 C712 1.385 . S
C713 C714 1.389 . S
C714 C713 1.389 . S
C714 C715 1.387 . S
C715 H700 0.930 . S
C715 C710 1.390 . S
C715 C714 1.387 . S
H716 C728 0.930 . S
H717 C730 0.930 . S
H718 C731 0.930 . S
H719 C735 0.959 . S
H720 C735 0.959 . S
H721 C735 0.961 . S
H722 C736 0.960 . S
H723 C736 0.961 . S
H724 C736 0.959 . S
H725 C739 0.929 . S
H726 C740 0.931 . S
H727 C742 0.930 . S
C728 H716 0.930 . S
C728 C729 1.399 . S
C728 C733 1.399 . S
C729 C728 1.399 . S
C729 C730 1.376 . S
C730 H717 0.930 . S
C730 C729 1.376 . S
C730 C731 1.388 . S
C731 H718 0.930 . S
C731 C730 1.388 . S
C731 C732 1.390 . S
C732 C731 1.390 . S
C732 C733 1.394 . S
C732 C738 1.465 . S
C733 C728 1.399 . S
C733 C732 1.394 . S
C733 C734 1.516 . S
C734 C733 1.516 . S
C734 C735 1.502 . S
C734 C736 1.561 . S
C734 C737 1.526 . S
C735 H719 0.959 . S
C735 H720 0.959 . S
C735 H721 0.961 . S
C735 C734 1.502 . S
C736 H722 0.960 . S
C736 H723 0.961 . S
C736 H724 0.959 . S
C736 C734 1.561 . S
C737 C734 1.526 . S
C737 C738 1.396 . S
C737 C742 1.390 . S
C738 C732 1.465 . S
C738 C737 1.396 . S
C738 C739 1.399 . S
C739 H725 0.929 . S
C739 C738 1.399 . S
C739 C740 1.385 . S
C740 H726 0.931 . S
C740 C739 1.385 . S
C740 C741 1.389 . S
C741 C740 1.389 . S
C741 C742 1.387 . S
C742 H727 0.930 . S
C742 C737 1.390 . S
C742 C741 1.387 . S
H743 C755 0.930 . S
H744 C757 0.930 . S
H745 C758 0.930 . S
H746 C762 0.959 . S
H747 C762 0.959 . S
H748 C762 0.961 . S
H749 C763 0.960 . S
H750 C763 0.961 . S
H751 C763 0.959 . S
H752 C766 0.929 . S
H753 C767 0.931 . S
H754 C769 0.930 . S
C755 H743 0.930 . S
C755 C756 1.399 . S
C755 C760 1.399 . S
C756 C755 1.399 . S
C756 C757 1.376 . S
C757 H744 0.930 . S
C757 C756 1.376 . S
C757 C758 1.388 . S
C758 H745 0.930 . S
C758 C757 1.388 . S
C758 C759 1.390 . S
C759 C758 1.390 . S
C759 C760 1.394 . S
C759 C765 1.465 . S
C760 C755 1.399 . S
C760 C759 1.394 . S
C760 C761 1.516 . S
C761 C760 1.516 . S
C761 C762 1.502 . S
C761 C763 1.561 . S
C761 C764 1.526 . S
C762 H746 0.959 . S
C762 H747 0.959 . S
C762 H748 0.961 . S
C762 C761 1.502 . S
C763 H749 0.960 . S
C763 H750 0.961 . S
C763 H751 0.959 . S
C763 C761 1.561 . S
C764 C761 1.526 . S
C764 C765 1.396 . S
C764 C769 1.390 . S
C765 C759 1.465 . S
C765 C764 1.396 . S
C765 C766 1.399 . S
C766 H752 0.929 . S
C766 C765 1.399 . S
C766 C767 1.385 . S
C767 H753 0.931 . S
C767 C766 1.385 . S
C767 C768 1.389 . S
C768 C767 1.389 . S
C768 C769 1.387 . S
C769 H754 0.930 . S
C769 C764 1.390 . S
C769 C768 1.387 . S
H770 C782 0.930 . S
H771 C784 0.930 . S
H772 C785 0.930 . S
H773 C789 0.959 . S
H774 C789 0.959 . S
H775 C789 0.961 . S
H776 C790 0.960 . S
H777 C790 0.961 . S
H778 C790 0.959 . S
H779 C793 0.929 . S
H780 C794 0.931 . S
H781 C796 0.930 . S
C782 H770 0.930 . S
C782 C783 1.399 . S
C782 C787 1.399 . S
C783 C782 1.399 . S
C783 C784 1.376 . S
C784 H771 0.930 . S
C784 C783 1.376 . S
C784 C785 1.388 . S
C785 H772 0.930 . S
C785 C784 1.388 . S
C785 C786 1.390 . S
C786 C785 1.390 . S
C786 C787 1.394 . S
C786 C792 1.465 . S
C787 C782 1.399 . S
C787 C786 1.394 . S
C787 C788 1.516 . S
C788 C787 1.516 . S
C788 C789 1.502 . S
C788 C790 1.561 . S
C788 C791 1.526 . S
C789 H773 0.959 . S
C789 H774 0.959 . S
C789 H775 0.961 . S
C789 C788 1.502 . S
C790 H776 0.960 . S
C790 H777 0.961 . S
C790 H778 0.959 . S
C790 C788 1.561 . S
C791 C788 1.526 . S
C791 C792 1.396 . S
C791 C796 1.390 . S
C792 C786 1.465 . S
C792 C791 1.396 . S
C792 C793 1.399 . S
C793 H779 0.929 . S
C793 C792 1.399 . S
C793 C794 1.385 . S
C794 H780 0.931 . S
C794 C793 1.385 . S
C794 C795 1.389 . S
C795 C794 1.389 . S
C795 C796 1.387 . S
C796 H781 0.930 . S
C796 C791 1.390 . S
C796 C795 1.387 . S
H797 C809 0.930 . S
H798 C811 0.930 . S
H799 C812 0.930 . S
H800 C816 0.959 . S
H801 C816 0.959 . S
H802 C816 0.961 . S
H803 C817 0.960 . S
H804 C817 0.961 . S
H805 C817 0.959 . S
H806 C820 0.929 . S
H807 C821 0.931 . S
H808 C823 0.930 . S
C809 H797 0.930 . S
C809 C810 1.399 . S
C809 C814 1.399 . S
C810 C809 1.399 . S
C810 C811 1.376 . S
C811 H798 0.930 . S
C811 C810 1.376 . S
C811 C812 1.388 . S
C812 H799 0.930 . S
C812 C811 1.388 . S
C812 C813 1.390 . S
C813 C812 1.390 . S
C813 C814 1.394 . S
C813 C819 1.465 . S
C814 C809 1.399 . S
C814 C813 1.394 . S
C814 C815 1.516 . S
C815 C814 1.516 . S
C815 C816 1.502 . S
C815 C817 1.561 . S
C815 C818 1.526 . S
C816 H800 0.959 . S
C816 H801 0.959 . S
C816 H802 0.961 . S
C816 C815 1.502 . S
C817 H803 0.960 . S
C817 H804 0.961 . S
C817 H805 0.959 . S
C817 C815 1.561 . S
C818 C815 1.526 . S
C818 C819 1.396 . S
C818 C823 1.390 . S
C819 C813 1.465 . S
C819 C818 1.396 . S
C819 C820 1.399 . S
C820 H806 0.929 . S
C820 C819 1.399 . S
C820 C821 1.385 . S
C821 H807 0.931 . S
C821 C820 1.385 . S
C821 C822 1.389 . S
C822 C821 1.389 . S
C822 C823 1.387 . S
C823 H808 0.930 . S
C823 C818 1.390 . S
C823 C822 1.387 . S
C189 C8 1.712 . S
C201 C131 1.700 . S
C228 C95 1.424 . S
C216 C19 1.435 . S
C255 C118 1.527 . S
C243 C30 1.539 . S
C282 C106 1.536 . S
C270 C41 1.540 . S
C309 C175 1.687 . S
C297 C52 1.717 . S
C336 C139 1.401 . S
C324 C63 1.430 . S
C351 C74 1.544 . S
C363 C162 1.528 . S
C390 C150 1.549 . S
C378 C85 1.543 . S
C405 C7 1.597 . S
C417 C172 1.700 . S
C444 C142 1.332 . S
C432 C16 1.170 . S
C459 C29 1.600 . S
C471 C161 1.567 . S
C486 C40 1.543 . S
C498 C147 1.509 . S
C525 C128 1.703 . S
C513 C51 1.670 . S
C540 C60 1.252 . S
C552 C98 1.338 . S
C579 C117 1.600 . S
C567 C73 1.564 . S
C606 C103 1.533 . S
C594 C84 1.513 . S
C633 C153 1.488 . S
C621 C5 1.172 . S
C660 C169 1.481 . S
C648 C18 1.512 . S
C675 C27 1.298 . S
C687 C140 1.482 . S
C714 C164 1.459 . S
C702 C38 1.303 . S
C741 C109 1.500 . S
C729 C49 1.246 . S
C756 C62 1.475 . S
C768 C125 1.512 . S
C783 C71 1.411 . S
C795 C96 1.480 . S
C810 C82 1.285 . S
C822 C120 1.455 . S
