# Generated by pormake.
# Topology gar, (4,6)-cn, num edge types: 1
# Building blocks:
#     Node 0, Type 0, BuildingBlock: AZAVOO_clean_sbu_0, # of connection points: 4
#     Node 1, Type 0, BuildingBlock: AZAVOO_clean_sbu_0, # of connection points: 4
#     Node 2, Type 0, BuildingBlock: AZAVOO_clean_sbu_0, # of connection points: 4
#     Node 3, Type 0, BuildingBlock: AZAVOO_clean_sbu_0, # of connection points: 4
#     Node 4, Type 0, BuildingBlock: AZAVOO_clean_sbu_0, # of connection points: 4
#     Node 5, Type 0, BuildingBlock: AZAVOO_clean_sbu_0, # of connection points: 4
#     Node 6, Type 0, BuildingBlock: AZAVOO_clean_sbu_0, # of connection points: 4
#     Node 7, Type 0, BuildingBlock: AZAVOO_clean_sbu_0, # of connection points: 4
#     Node 8, Type 0, BuildingBlock: AZAVOO_clean_sbu_0, # of connection points: 4
#     Node 9, Type 0, BuildingBlock: AZAVOO_clean_sbu_0, # of connection points: 4
#     Node 10, Type 0, BuildingBlock: AZAVOO_clean_sbu_0, # of connection points: 4
#     Node 11, Type 0, BuildingBlock: AZAVOO_clean_sbu_0, # of connection points: 4
#     Node 12, Type 0, BuildingBlock: AZAVOO_clean_sbu_0, # of connection points: 4
#     Node 13, Type 0, BuildingBlock: AZAVOO_clean_sbu_0, # of connection points: 4
#     Node 14, Type 0, BuildingBlock: AZAVOO_clean_sbu_0, # of connection points: 4
#     Node 15, Type 0, BuildingBlock: AZAVOO_clean_sbu_0, # of connection points: 4
#     Node 16, Type 0, BuildingBlock: AZAVOO_clean_sbu_0, # of connection points: 4
#     Node 17, Type 0, BuildingBlock: AZAVOO_clean_sbu_0, # of connection points: 4
#     Node 18, Type 0, BuildingBlock: AZAVOO_clean_sbu_0, # of connection points: 4
#     Node 19, Type 0, BuildingBlock: AZAVOO_clean_sbu_0, # of connection points: 4
#     Node 20, Type 0, BuildingBlock: AZAVOO_clean_sbu_0, # of connection points: 4
#     Node 21, Type 0, BuildingBlock: AZAVOO_clean_sbu_0, # of connection points: 4
#     Node 22, Type 0, BuildingBlock: AZAVOO_clean_sbu_0, # of connection points: 4
#     Node 23, Type 0, BuildingBlock: AZAVOO_clean_sbu_0, # of connection points: 4
#     Node 24, Type 1, BuildingBlock: BETDEL_clean_sbu_0, # of connection points: 6
#     Node 25, Type 1, BuildingBlock: BETDEL_clean_sbu_0, # of connection points: 6
#     Node 26, Type 1, BuildingBlock: BETDEL_clean_sbu_0, # of connection points: 6
#     Node 27, Type 1, BuildingBlock: BETDEL_clean_sbu_0, # of connection points: 6
#     Node 28, Type 1, BuildingBlock: BETDEL_clean_sbu_0, # of connection points: 6
#     Node 29, Type 1, BuildingBlock: BETDEL_clean_sbu_0, # of connection points: 6
#     Node 30, Type 1, BuildingBlock: BETDEL_clean_sbu_0, # of connection points: 6
#     Node 31, Type 1, BuildingBlock: BETDEL_clean_sbu_0, # of connection points: 6
#     Node 32, Type 1, BuildingBlock: BETDEL_clean_sbu_0, # of connection points: 6
#     Node 33, Type 1, BuildingBlock: BETDEL_clean_sbu_0, # of connection points: 6
#     Node 34, Type 1, BuildingBlock: BETDEL_clean_sbu_0, # of connection points: 6
#     Node 35, Type 1, BuildingBlock: BETDEL_clean_sbu_0, # of connection points: 6
#     Node 36, Type 1, BuildingBlock: BETDEL_clean_sbu_0, # of connection points: 6
#     Node 37, Type 1, BuildingBlock: BETDEL_clean_sbu_0, # of connection points: 6
#     Node 38, Type 1, BuildingBlock: BETDEL_clean_sbu_0, # of connection points: 6
#     Node 39, Type 1, BuildingBlock: BETDEL_clean_sbu_0, # of connection points: 6
#     Edge 40, Type (0, 1), BuildingBlock: EZIPEK_clean_linker_0, # of connection points: 2
#     Edge 41, Type (0, 1), BuildingBlock: EZIPEK_clean_linker_0, # of connection points: 2
#     Edge 42, Type (0, 1), BuildingBlock: EZIPEK_clean_linker_0, # of connection points: 2
#     Edge 43, Type (0, 1), BuildingBlock: EZIPEK_clean_linker_0, # of connection points: 2
#     Edge 44, Type (0, 1), BuildingBlock: EZIPEK_clean_linker_0, # of connection points: 2
#     Edge 45, Type (0, 1), BuildingBlock: EZIPEK_clean_linker_0, # of connection points: 2
#     Edge 46, Type (0, 1), BuildingBlock: EZIPEK_clean_linker_0, # of connection points: 2
#     Edge 47, Type (0, 1), BuildingBlock: EZIPEK_clean_linker_0, # of connection points: 2
#     Edge 48, Type (0, 1), BuildingBlock: EZIPEK_clean_linker_0, # of connection points: 2
#     Edge 49, Type (0, 1), BuildingBlock: EZIPEK_clean_linker_0, # of connection points: 2
#     Edge 50, Type (0, 1), BuildingBlock: EZIPEK_clean_linker_0, # of connection points: 2
#     Edge 51, Type (0, 1), BuildingBlock: EZIPEK_clean_linker_0, # of connection points: 2
#     Edge 52, Type (0, 1), BuildingBlock: EZIPEK_clean_linker_0, # of connection points: 2
#     Edge 53, Type (0, 1), BuildingBlock: EZIPEK_clean_linker_0, # of connection points: 2
#     Edge 54, Type (0, 1), BuildingBlock: EZIPEK_clean_linker_0, # of connection points: 2
#     Edge 55, Type (0, 1), BuildingBlock: EZIPEK_clean_linker_0, # of connection points: 2
#     Edge 56, Type (0, 1), BuildingBlock: EZIPEK_clean_linker_0, # of connection points: 2
#     Edge 57, Type (0, 1), BuildingBlock: EZIPEK_clean_linker_0, # of connection points: 2
#     Edge 58, Type (0, 1), BuildingBlock: EZIPEK_clean_linker_0, # of connection points: 2
#     Edge 59, Type (0, 1), BuildingBlock: EZIPEK_clean_linker_0, # of connection points: 2
#     Edge 60, Type (0, 1), BuildingBlock: EZIPEK_clean_linker_0, # of connection points: 2
#     Edge 61, Type (0, 1), BuildingBlock: EZIPEK_clean_linker_0, # of connection points: 2
#     Edge 62, Type (0, 1), BuildingBlock: EZIPEK_clean_linker_0, # of connection points: 2
#     Edge 63, Type (0, 1), BuildingBlock: EZIPEK_clean_linker_0, # of connection points: 2
#     Edge 64, Type (0, 1), BuildingBlock: EZIPEK_clean_linker_0, # of connection points: 2
#     Edge 65, Type (0, 1), BuildingBlock: EZIPEK_clean_linker_0, # of connection points: 2
#     Edge 66, Type (0, 1), BuildingBlock: EZIPEK_clean_linker_0, # of connection points: 2
#     Edge 67, Type (0, 1), BuildingBlock: EZIPEK_clean_linker_0, # of connection points: 2
#     Edge 68, Type (0, 1), BuildingBlock: EZIPEK_clean_linker_0, # of connection points: 2
#     Edge 69, Type (0, 1), BuildingBlock: EZIPEK_clean_linker_0, # of connection points: 2
#     Edge 70, Type (0, 1), BuildingBlock: EZIPEK_clean_linker_0, # of connection points: 2
#     Edge 71, Type (0, 1), BuildingBlock: EZIPEK_clean_linker_0, # of connection points: 2
#     Edge 72, Type (0, 1), BuildingBlock: EZIPEK_clean_linker_0, # of connection points: 2
#     Edge 73, Type (0, 1), BuildingBlock: EZIPEK_clean_linker_0, # of connection points: 2
#     Edge 74, Type (0, 1), BuildingBlock: EZIPEK_clean_linker_0, # of connection points: 2
#     Edge 75, Type (0, 1), BuildingBlock: EZIPEK_clean_linker_0, # of connection points: 2
#     Edge 76, Type (0, 1), BuildingBlock: EZIPEK_clean_linker_0, # of connection points: 2
#     Edge 77, Type (0, 1), BuildingBlock: EZIPEK_clean_linker_0, # of connection points: 2
#     Edge 78, Type (0, 1), BuildingBlock: EZIPEK_clean_linker_0, # of connection points: 2
#     Edge 79, Type (0, 1), BuildingBlock: EZIPEK_clean_linker_0, # of connection points: 2
#     Edge 80, Type (0, 1), BuildingBlock: EZIPEK_clean_linker_0, # of connection points: 2
#     Edge 81, Type (0, 1), BuildingBlock: EZIPEK_clean_linker_0, # of connection points: 2
#     Edge 82, Type (0, 1), BuildingBlock: EZIPEK_clean_linker_0, # of connection points: 2
#     Edge 83, Type (0, 1), BuildingBlock: EZIPEK_clean_linker_0, # of connection points: 2
#     Edge 84, Type (0, 1), BuildingBlock: EZIPEK_clean_linker_0, # of connection points: 2
#     Edge 85, Type (0, 1), BuildingBlock: EZIPEK_clean_linker_0, # of connection points: 2
#     Edge 86, Type (0, 1), BuildingBlock: EZIPEK_clean_linker_0, # of connection points: 2
#     Edge 87, Type (0, 1), BuildingBlock: EZIPEK_clean_linker_0, # of connection points: 2
#     Edge 88, Type (0, 1), BuildingBlock: EZIPEK_clean_linker_0, # of connection points: 2
#     Edge 89, Type (0, 1), BuildingBlock: EZIPEK_clean_linker_0, # of connection points: 2
#     Edge 90, Type (0, 1), BuildingBlock: EZIPEK_clean_linker_0, # of connection points: 2
#     Edge 91, Type (0, 1), BuildingBlock: EZIPEK_clean_linker_0, # of connection points: 2
#     Edge 92, Type (0, 1), BuildingBlock: EZIPEK_clean_linker_0, # of connection points: 2
#     Edge 93, Type (0, 1), BuildingBlock: EZIPEK_clean_linker_0, # of connection points: 2
#     Edge 94, Type (0, 1), BuildingBlock: EZIPEK_clean_linker_0, # of connection points: 2
#     Edge 95, Type (0, 1), BuildingBlock: EZIPEK_clean_linker_0, # of connection points: 2
#     Edge 96, Type (0, 1), BuildingBlock: EZIPEK_clean_linker_0, # of connection points: 2
#     Edge 97, Type (0, 1), BuildingBlock: EZIPEK_clean_linker_0, # of connection points: 2
#     Edge 98, Type (0, 1), BuildingBlock: EZIPEK_clean_linker_0, # of connection points: 2
#     Edge 99, Type (0, 1), BuildingBlock: EZIPEK_clean_linker_0, # of connection points: 2
#     Edge 100, Type (0, 1), BuildingBlock: EZIPEK_clean_linker_0, # of connection points: 2
#     Edge 101, Type (0, 1), BuildingBlock: EZIPEK_clean_linker_0, # of connection points: 2
#     Edge 102, Type (0, 1), BuildingBlock: EZIPEK_clean_linker_0, # of connection points: 2
#     Edge 103, Type (0, 1), BuildingBlock: EZIPEK_clean_linker_0, # of connection points: 2
#     Edge 104, Type (0, 1), BuildingBlock: EZIPEK_clean_linker_0, # of connection points: 2
#     Edge 105, Type (0, 1), BuildingBlock: EZIPEK_clean_linker_0, # of connection points: 2
#     Edge 106, Type (0, 1), BuildingBlock: EZIPEK_clean_linker_0, # of connection points: 2
#     Edge 107, Type (0, 1), BuildingBlock: EZIPEK_clean_linker_0, # of connection points: 2
#     Edge 108, Type (0, 1), BuildingBlock: EZIPEK_clean_linker_0, # of connection points: 2
#     Edge 109, Type (0, 1), BuildingBlock: EZIPEK_clean_linker_0, # of connection points: 2
#     Edge 110, Type (0, 1), BuildingBlock: EZIPEK_clean_linker_0, # of connection points: 2
#     Edge 111, Type (0, 1), BuildingBlock: EZIPEK_clean_linker_0, # of connection points: 2
#     Edge 112, Type (0, 1), BuildingBlock: EZIPEK_clean_linker_0, # of connection points: 2
#     Edge 113, Type (0, 1), BuildingBlock: EZIPEK_clean_linker_0, # of connection points: 2
#     Edge 114, Type (0, 1), BuildingBlock: EZIPEK_clean_linker_0, # of connection points: 2
#     Edge 115, Type (0, 1), BuildingBlock: EZIPEK_clean_linker_0, # of connection points: 2
#     Edge 116, Type (0, 1), BuildingBlock: EZIPEK_clean_linker_0, # of connection points: 2
#     Edge 117, Type (0, 1), BuildingBlock: EZIPEK_clean_linker_0, # of connection points: 2
#     Edge 118, Type (0, 1), BuildingBlock: EZIPEK_clean_linker_0, # of connection points: 2
#     Edge 119, Type (0, 1), BuildingBlock: EZIPEK_clean_linker_0, # of connection points: 2
#     Edge 120, Type (0, 1), BuildingBlock: EZIPEK_clean_linker_0, # of connection points: 2
#     Edge 121, Type (0, 1), BuildingBlock: EZIPEK_clean_linker_0, # of connection points: 2
#     Edge 122, Type (0, 1), BuildingBlock: EZIPEK_clean_linker_0, # of connection points: 2
#     Edge 123, Type (0, 1), BuildingBlock: EZIPEK_clean_linker_0, # of connection points: 2
#     Edge 124, Type (0, 1), BuildingBlock: EZIPEK_clean_linker_0, # of connection points: 2
#     Edge 125, Type (0, 1), BuildingBlock: EZIPEK_clean_linker_0, # of connection points: 2
#     Edge 126, Type (0, 1), BuildingBlock: EZIPEK_clean_linker_0, # of connection points: 2
#     Edge 127, Type (0, 1), BuildingBlock: EZIPEK_clean_linker_0, # of connection points: 2
#     Edge 128, Type (0, 1), BuildingBlock: EZIPEK_clean_linker_0, # of connection points: 2
#     Edge 129, Type (0, 1), BuildingBlock: EZIPEK_clean_linker_0, # of connection points: 2
#     Edge 130, Type (0, 1), BuildingBlock: EZIPEK_clean_linker_0, # of connection points: 2
#     Edge 131, Type (0, 1), BuildingBlock: EZIPEK_clean_linker_0, # of connection points: 2
#     Edge 132, Type (0, 1), BuildingBlock: EZIPEK_clean_linker_0, # of connection points: 2
#     Edge 133, Type (0, 1), BuildingBlock: EZIPEK_clean_linker_0, # of connection points: 2
#     Edge 134, Type (0, 1), BuildingBlock: EZIPEK_clean_linker_0, # of connection points: 2
#     Edge 135, Type (0, 1), BuildingBlock: EZIPEK_clean_linker_0, # of connection points: 2
# Relax obj value: 0.178
# Max RMSD: 0.280
# Mean RMSD: 0.193
data_MOF--net-gar--node1-AZAVOO_clean_sbu_0--node2-BETDEL_clean_sbu_0--edge1-EZIPEK_clean_linker_0
_symmetry_space_group_name_H-M    P1
_symmetry_Int_Tables_number       1
_symmetry_cell_setting            triclinic
loop_
_symmetry_equiv_pos_as_xyz
'x, y, z'
_cell_length_a     42.569039
_cell_length_b     38.006828
_cell_length_c     40.331785
_cell_angle_alpha  98.63477
_cell_angle_beta   92.118238
_cell_angle_gamma 102.61382
loop_
_atom_site_label
_atom_site_type_symbol
_atom_site_fract_x
_atom_site_fract_y
_atom_site_fract_z
_atom_type_partial_charge
Mg0 Mg 0.02646 0.2691 0.35915 0.0
O1 O 0.0324 0.31802 0.40241 0.0
O2 O 0.98303 0.31566 0.42049 0.0
Mg3 Mg 0.9478 0.26393 0.39515 0.0
C4 C 0.01283 0.33145 0.42105 0.0
C5 C 0.08904 0.2724 0.32375 0.0
O6 O 0.06631 0.26383 0.29908 0.0
O7 O 0.02648 0.22984 0.39728 0.0
O8 O 0.97781 0.22827 0.41716 0.0
O9 O 0.00955 0.3023 0.32311 0.0
O10 O 0.97737 0.2668 0.35238 0.0
C11 C 0.00451 0.21806 0.41632 0.0
C12 C 0.98085 0.29005 0.33205 0.0
O13 O 0.08112 0.27791 0.35394 0.0
Mg14 Mg 0.99637 0.78781 0.64043 0.0
O15 O 0.98907 0.73582 0.60296 0.0
O16 O 0.94388 0.7273 0.57039 0.0
Mg17 Mg 0.92049 0.77504 0.59003 0.0
C18 C 0.96965 0.71773 0.57852 0.0
C19 C 0.0526 0.77389 0.68129 0.0
O20 O 0.03017 0.77262 0.70282 0.0
O21 O 0.01066 0.81931 0.59773 0.0
O22 O 0.96201 0.81686 0.57279 0.0
O23 O 0.96788 0.7611 0.67882 0.0
O24 O 0.94711 0.78653 0.64001 0.0
C25 C 0.99261 0.82917 0.57656 0.0
C26 C 0.94326 0.77029 0.66583 0.0
O27 O 0.04713 0.78151 0.65232 0.0
Mg28 Mg 0.52591 0.77249 0.87323 0.0
O29 O 0.53827 0.82121 0.91675 0.0
O30 O 0.49161 0.82225 0.94043 0.0
Mg31 Mg 0.45165 0.77493 0.91462 0.0
C32 C 0.52153 0.8357 0.93824 0.0
C33 C 0.57862 0.762 0.83236 0.0
O34 O 0.5514 0.7509 0.81348 0.0
O35 O 0.52446 0.73127 0.90909 0.0
O36 O 0.47756 0.73257 0.93196 0.0
O37 O 0.51324 0.80888 0.83933 0.0
O38 O 0.47839 0.77687 0.86923 0.0
C39 C 0.50282 0.71969 0.92843 0.0
C40 C 0.48424 0.80008 0.84874 0.0
O41 O 0.57799 0.77439 0.86335 0.0
Mg42 Mg 0.50886 0.30407 0.15228 0.0
O43 O 0.50367 0.24787 0.12007 0.0
O44 O 0.45169 0.22513 0.10301 0.0
Mg45 Mg 0.42343 0.26768 0.12334 0.0
C46 C 0.48114 0.22267 0.10381 0.0
C47 C 0.59013 0.30766 0.14815 0.0
O48 O 0.61612 0.32984 0.14053 0.0
O49 O 0.50208 0.32835 0.10496 0.0
O50 O 0.44936 0.30766 0.08962 0.0
O51 O 0.49702 0.28144 0.20072 0.0
O52 O 0.46103 0.29095 0.16456 0.0
C53 C 0.47722 0.327 0.08573 0.0
C54 C 0.46717 0.28074 0.19248 0.0
O55 O 0.56357 0.31785 0.14716 0.0
Mg56 Mg 0.04087 0.80664 0.1744 0.0
O57 O 0.04138 0.75397 0.13777 0.0
O58 O 0.99331 0.73643 0.10877 0.0
Mg59 Mg 0.96144 0.77564 0.1277 0.0
C60 C 0.02158 0.73194 0.11545 0.0
C61 C 0.10206 0.82639 0.21965 0.0
O62 O 0.08053 0.83862 0.23778 0.0
O63 O 0.04527 0.84099 0.13122 0.0
O64 O 0.99422 0.82347 0.10845 0.0
O65 O 0.01952 0.77481 0.214 0.0
O66 O 0.99081 0.79234 0.17555 0.0
C67 C 0.02269 0.84367 0.11041 0.0
C68 C 0.99161 0.77618 0.20122 0.0
O69 O 0.09478 0.81433 0.18847 0.0
Mg70 Mg 0.48518 0.74428 0.35715 0.0
O71 O 0.4841 0.79137 0.40097 0.0
O72 O 0.44216 0.76859 0.42954 0.0
Mg73 Mg 0.41528 0.7123 0.40277 0.0
C74 C 0.46613 0.79413 0.42566 0.0
C75 C 0.54293 0.74943 0.31753 0.0
O76 O 0.51928 0.72582 0.29902 0.0
O77 O 0.50316 0.71265 0.39439 0.0
O78 O 0.45849 0.68899 0.41819 0.0
O79 O 0.45523 0.76642 0.32266 0.0
O80 O 0.43524 0.72758 0.35622 0.0
C81 C 0.48854 0.69229 0.41401 0.0
C82 C 0.43018 0.74774 0.33446 0.0
O83 O 0.53709 0.76604 0.34565 0.0
Mg84 Mg 0.53526 0.31311 0.66295 0.0
O85 O 0.53309 0.25507 0.63552 0.0
O86 O 0.4821 0.23061 0.61599 0.0
Mg87 Mg 0.45127 0.27189 0.63224 0.0
C88 C 0.51153 0.22859 0.61969 0.0
C89 C 0.60332 0.32996 0.6942 0.0
O90 O 0.58612 0.33712 0.71966 0.0
O91 O 0.53003 0.33422 0.61319 0.0
O92 O 0.47705 0.31204 0.59932 0.0
O93 O 0.52275 0.29311 0.71166 0.0
O94 O 0.48707 0.30037 0.67356 0.0
C95 C 0.50441 0.33179 0.59452 0.0
C96 C 0.49304 0.2915 0.7022 0.0
O97 O 0.58987 0.3226 0.66457 0.0
Mg98 Mg 0.98541 0.22975 0.85194 0.0
O99 O 0.98736 0.28269 0.88949 0.0
O100 O 0.94229 0.27333 0.91667 0.0
Mg101 Mg 0.91542 0.21351 0.90117 0.0
C102 C 0.96874 0.29404 0.91076 0.0
C103 C 0.04319 0.23536 0.81019 0.0
O104 O 0.01954 0.21458 0.78952 0.0
O105 O 0.00221 0.20515 0.89495 0.0
O106 O 0.95842 0.19294 0.9238 0.0
O107 O 0.95661 0.24776 0.81331 0.0
O108 O 0.93505 0.21538 0.85145 0.0
C109 C 0.98792 0.19227 0.91917 0.0
C110 C 0.93112 0.23253 0.82683 0.0
O111 O 0.03727 0.24844 0.83957 0.0
Mg112 Mg 0.42302 0.05712 0.31086 0.0
O113 O 0.38759 0.00384 0.3161 0.0
O114 O 0.36137 0.01746 0.36182 0.0
Mg115 Mg 0.38499 0.0751 0.38876 0.0
C116 C 0.36544 0.99542 0.33596 0.0
C117 C 0.45867 0.04741 0.25169 0.0
O118 O 0.47965 0.06623 0.2761 0.0
O119 O 0.37958 0.07659 0.29643 0.0
O120 O 0.36008 0.09453 0.34528 0.0
O121 O 0.46293 0.04226 0.33703 0.0
O122 O 0.42837 0.07209 0.36183 0.0
C123 C 0.35953 0.09087 0.31319 0.0
C124 C 0.45212 0.05635 0.36423 0.0
O125 O 0.42926 0.03718 0.25736 0.0
Mg126 Mg 0.27556 0.14116 0.48384 0.0
O127 O 0.27598 0.17676 0.53561 0.0
O128 O 0.32657 0.20761 0.54978 0.0
Mg129 Mg 0.35738 0.19295 0.50566 0.0
C130 C 0.29713 0.19858 0.55667 0.0
C131 C 0.20712 0.09573 0.47732 0.0
O132 O 0.22471 0.0712 0.47324 0.0
O133 O 0.2793 0.18837 0.45319 0.0
O134 O 0.33163 0.21534 0.4638 0.0
O135 O 0.28715 0.0971 0.50959 0.0
O136 O 0.32437 0.13835 0.49094 0.0
C137 C 0.30433 0.21169 0.44761 0.0
C138 C 0.31726 0.11032 0.50603 0.0
O139 O 0.22095 0.12942 0.48162 0.0
Mg140 Mg 0.12524 0.00318 0.78071 0.0
O141 O 0.15927 0.05933 0.79038 0.0
O142 O 0.18867 0.06605 0.83872 0.0
Mg143 Mg 0.16845 0.01638 0.86379 0.0
C144 C 0.18186 0.07743 0.81178 0.0
C145 C 0.10069 0.03504 0.72147 0.0
O146 O 0.08504 0.04782 0.74627 0.0
O147 O 0.16757 0.97515 0.77043 0.0
O148 O 0.1887 0.98077 0.82331 0.0
O149 O 0.08525 0.02238 0.80858 0.0
O150 O 0.12296 1.00038 0.83179 0.0
C151 C 0.18746 0.96837 0.79191 0.0
C152 C 0.09744 0.01286 0.83479 0.0
O153 O 0.11913 0.01397 0.72693 0.0
Mg154 Mg 0.26729 0.90159 0.0251 0.0
O155 O 0.25978 0.86459 0.9728 0.0
O156 O 0.29115 0.8249 0.97765 0.0
Mg157 Mg 0.32138 0.83928 0.02764 0.0
C158 C 0.27114 0.83713 0.96069 0.0
C159 C 0.23093 0.9596 0.03158 0.0
O160 O 0.26041 0.9749 0.04441 0.0
O161 O 0.23938 0.85605 0.05024 0.0
O162 O 0.27638 0.82382 0.05672 0.0
O163 O 0.30559 0.94184 0.00709 0.0
O164 O 0.31341 0.89402 0.02834 0.0
C165 C 0.24869 0.8305 0.0621 0.0
C166 C 0.32518 0.92226 0.01498 0.0
O167 O 0.22384 0.92579 0.01911 0.0
Mg168 Mg 0.27555 0.40568 0.04794 0.0
O169 O 0.26939 0.36471 0.99763 0.0
O170 O 0.31445 0.34461 0.99349 0.0
Mg171 Mg 0.3484 0.37076 0.04018 0.0
C172 C 0.28635 0.34493 0.9815 0.0
C173 C 0.21961 0.44045 0.0541 0.0
O174 O 0.24474 0.46512 0.06884 0.0
O175 O 0.26761 0.36104 0.08171 0.0
O176 O 0.31377 0.34269 0.07644 0.0
O177 O 0.2978 0.45081 0.02118 0.0
O178 O 0.32571 0.41804 0.04615 0.0
C179 C 0.28677 0.34152 0.08972 0.0
C180 C 0.32526 0.44356 0.0285 0.0
O181 O 0.22287 0.40832 0.04334 0.0
Mg182 Mg 0.78478 0.13237 0.99176 0.0
O183 O 0.79956 0.16379 0.04357 0.0
O184 O 0.84391 0.20542 0.03795 0.0
Mg185 Mg 0.86641 0.18139 0.99073 0.0
C186 C 0.82017 0.19321 0.05466 0.0
C187 C 0.71801 0.09529 0.00695 0.0
O188 O 0.73031 0.06657 0.99908 0.0
O189 O 0.78248 0.18452 0.97291 0.0
O190 O 0.83275 0.20511 0.95895 0.0
O191 O 0.79895 0.08433 0.00626 0.0
O192 O 0.83079 0.12806 0.98403 0.0
C193 C 0.80274 0.20528 0.95792 0.0
C194 C 0.82695 0.09814 0.9965 0.0
O195 O 0.73466 0.12687 0.00581 0.0
Mg196 Mg 0.12221 0.47026 0.22893 0.0
O197 O 0.14665 0.53072 0.24537 0.0
O198 O 0.16479 0.5368 0.29937 0.0
Mg199 Mg 0.1479 0.48252 0.3182 0.0
C200 C 0.16196 0.54981 0.27227 0.0
C201 C 0.09184 0.45836 0.16228 0.0
O202 O 0.07666 0.43308 0.1786 0.0
O203 O 0.17256 0.45881 0.229 0.0
O204 O 0.18334 0.46003 0.28395 0.0
O205 O 0.07454 0.48022 0.2425 0.0
O206 O 0.10976 0.46702 0.27765 0.0
C207 C 0.19048 0.45424 0.25339 0.0
C208 C 0.08345 0.47763 0.27277 0.0
O209 O 0.11907 0.47792 0.17465 0.0
Mg210 Mg 0.77647 0.9023 0.53803 0.0
O211 O 0.77337 0.86724 0.48471 0.0
O212 O 0.81594 0.84166 0.48455 0.0
Mg213 Mg 0.846 0.86041 0.53535 0.0
C214 C 0.79083 0.84717 0.46971 0.0
C215 C 0.72078 0.94008 0.54799 0.0
O216 O 0.74486 0.96146 0.56768 0.0
O217 O 0.76049 0.85185 0.5642 0.0
O218 O 0.80641 0.83262 0.56737 0.0
O219 O 0.80682 0.95105 0.52023 0.0
O220 O 0.82694 0.91023 0.54231 0.0
C221 C 0.77726 0.83111 0.57484 0.0
C222 C 0.83181 0.93954 0.52903 0.0
O223 O 0.72495 0.91061 0.53096 0.0
Mg224 Mg 0.8925 0.03856 0.23459 0.0
O225 O 0.85761 0.98195 0.21829 0.0
O226 O 0.82806 0.97333 0.26246 0.0
Mg227 Mg 0.84501 0.01995 0.30605 0.0
C228 C 0.8356 0.96262 0.23297 0.0
C229 C 0.93922 0.06002 0.18504 0.0
O230 O 0.95296 0.07316 0.21539 0.0
O231 O 0.85281 0.07091 0.23064 0.0
O232 O 0.82695 0.05944 0.27641 0.0
O233 O 0.92764 0.00951 0.25268 0.0
O234 O 0.8928 0.03045 0.28513 0.0
C235 C 0.83103 0.07563 0.25084 0.0
C236 C 0.91555 0.01285 0.28158 0.0
O237 O 0.90961 0.04313 0.18189 0.0
Mg238 Mg 0.28948 0.62214 0.53496 0.0
O239 O 0.29667 0.67114 0.5745 0.0
O240 O 0.3496 0.69582 0.58193 0.0
Mg241 Mg 0.37409 0.66684 0.53843 0.0
C242 C 0.3206 0.69484 0.58973 0.0
C243 C 0.21795 0.5871 0.53327 0.0
O244 O 0.23059 0.55839 0.53229 0.0
O245 O 0.29475 0.6606 0.49621 0.0
O246 O 0.34612 0.69226 0.5021 0.0
O247 O 0.29558 0.57581 0.49781 0.0
O248 O 0.33568 0.61533 0.52941 0.0
C249 C 0.31727 0.68583 0.48891 0.0
C250 C 0.32619 0.58687 0.5064 0.0
O251 O 0.23624 0.61838 0.53404 0.0
Mg252 Mg 0.40161 0.54645 0.72455 0.0
O253 O 0.36644 0.49178 0.72978 0.0
O254 O 0.35141 0.50107 0.78253 0.0
Mg255 Mg 0.37936 0.55571 0.81152 0.0
C256 C 0.35035 0.48079 0.75402 0.0
C257 C 0.42671 0.55558 0.65996 0.0
O258 O 0.44383 0.58078 0.68355 0.0
O259 O 0.36096 0.57753 0.72468 0.0
O260 O 0.35352 0.58754 0.77967 0.0
O261 O 0.44239 0.52266 0.73868 0.0
O262 O 0.41555 0.55237 0.77488 0.0
C263 C 0.34818 0.5926 0.74959 0.0
C264 C 0.4363 0.5324 0.76942 0.0
O265 O 0.40136 0.53459 0.66765 0.0
Mg266 Mg 0.62069 0.98648 0.75567 0.0
O267 O 0.6462 0.04443 0.74929 0.0
O268 O 0.6665 0.07503 0.79995 0.0
Mg269 Mg 0.65201 0.03726 0.83877 0.0
C270 C 0.66204 0.07314 0.76824 0.0
C271 C 0.58604 0.9544 0.69161 0.0
O272 O 0.56973 0.93898 0.71466 0.0
O273 O 0.66914 0.97184 0.76349 0.0
O274 O 0.68471 1.00014 0.81643 0.0
O275 O 0.57438 0.00307 0.76467 0.0
O276 O 0.61123 0.00328 0.80497 0.0
C277 C 0.68856 0.97898 0.78983 0.0
C278 C 0.5836 0.00898 0.79624 0.0
O279 O 0.61537 0.97083 0.69907 0.0
Mg280 Mg 0.76605 0.63032 0.97211 0.0
O281 O 0.76462 0.66158 0.0256 0.0
O282 O 0.81318 0.69838 0.0397 0.0
Mg283 Mg 0.84569 0.68964 0.99567 0.0
C284 C 0.78437 0.68523 0.04674 0.0
C285 C 0.69978 0.57852 0.97045 0.0
O286 O 0.71926 0.55605 0.97005 0.0
O287 O 0.7654 0.68002 0.94589 0.0
O288 O 0.81626 0.71098 0.95654 0.0
O289 O 0.78383 0.58572 0.99231 0.0
O290 O 0.81566 0.6345 0.97871 0.0
C291 C 0.78838 0.7065 0.94141 0.0
C292 C 0.81279 0.60386 0.98945 0.0
O293 O 0.7114 0.61224 0.97015 0.0
Mg294 Mg 0.92332 0.58109 0.79636 0.0
O295 O 0.89743 0.52041 0.78929 0.0
O296 O 0.87745 0.50591 0.83716 0.0
Mg297 Mg 0.88745 0.55937 0.87387 0.0
C298 C 0.88221 0.49735 0.80627 0.0
C299 C 0.93712 0.54599 0.72753 0.0
O300 O 0.95033 0.5293 0.74864 0.0
O301 O 0.87412 0.5931 0.79154 0.0
O302 O 0.85184 0.57606 0.83764 0.0
O303 O 0.96902 0.57067 0.81622 0.0
O304 O 0.93017 0.58304 0.84808 0.0
C305 C 0.85014 0.58777 0.80966 0.0
C306 C 0.95781 0.57458 0.84561 0.0
O307 O 0.92634 0.57339 0.73984 0.0
Mg308 Mg 0.77316 0.41476 0.49273 0.0
O309 O 0.7586 0.3756 0.44259 0.0
O310 O 0.80168 0.35226 0.43049 0.0
Mg311 Mg 0.84302 0.37715 0.47066 0.0
C312 C 0.77294 0.35508 0.42351 0.0
C313 C 0.72557 0.4532 0.5198 0.0
O314 O 0.75431 0.47166 0.53264 0.0
O315 O 0.76905 0.36771 0.52237 0.0
O316 O 0.81523 0.35039 0.51147 0.0
O317 O 0.79197 0.46045 0.46517 0.0
O318 O 0.82066 0.42371 0.48249 0.0
C319 C 0.78943 0.34841 0.52697 0.0
C320 C 0.81928 0.45108 0.46768 0.0
O321 O 0.72285 0.42249 0.501 0.0
Mg322 Mg 0.63038 0.48114 0.26701 0.0
O323 O 0.66166 0.53901 0.27896 0.0
O324 O 0.69513 0.54194 0.32373 0.0
Mg325 Mg 0.67973 0.48757 0.34437 0.0
C326 C 0.68503 0.5562 0.29991 0.0
C327 C 0.60346 0.52008 0.21575 0.0
O328 O 0.59918 0.53934 0.24439 0.0
O329 O 0.67442 0.46043 0.24962 0.0
O330 O 0.69875 0.45632 0.29867 0.0
O331 O 0.59099 0.49473 0.29792 0.0
O332 O 0.63169 0.47408 0.31716 0.0
C333 C 0.69556 0.44975 0.2665 0.0
C334 C 0.60551 0.48499 0.32257 0.0
O335 O 0.61694 0.49335 0.21577 0.0
Dy336 Dy 0.99777 0.02536 0.00765 0.0
C337 C 0.12787 0.03376 0.0372 0.0
C338 C 0.93609 0.03325 0.00538 0.0
Dy339 Dy 0.06861 0.04856 0.03367 0.0
O340 O 0.9498 0.0198 0.97967 0.0
O341 O 0.9554 0.0402 0.03228 0.0
O342 O 0.00939 0.99068 0.96201 0.0
O343 O 0.04322 0.0375 0.984 0.0
C344 C 0.039 0.00939 0.96169 0.0
C345 C 0.02707 0.06442 0.0788 0.0
O346 O 0.06715 0.09729 0.00817 0.0
O347 O 0.01128 0.08482 0.00249 0.0
O348 O 0.12139 0.06405 0.05217 0.0
O349 O 0.10251 0.01253 0.02053 0.0
O350 O 0.05693 0.08297 0.08049 0.0
O351 O 0.02349 0.03673 0.05651 0.0
O352 O -0.00107 0.97374 0.02747 0.0
O353 O 0.0537 0.99071 0.04441 0.0
C354 C 0.03974 0.10671 0.00072 0.0
C355 C 0.02548 0.9668 0.04073 0.0
Dy356 Dy 0.25403 0.77594 0.24994 0.0
C357 C 0.2759 0.75816 0.38598 0.0
C358 C 0.23831 0.78729 0.18697 0.0
Dy359 Dy 0.25669 0.77681 0.32741 0.0
O360 O 0.264 0.77666 0.19569 0.0
O361 O 0.22105 0.79128 0.21252 0.0
O362 O 0.29585 0.74808 0.24697 0.0
O363 O 0.29169 0.78472 0.29011 0.0
C364 C 0.30744 0.76225 0.27759 0.0
C365 C 0.203 0.79012 0.29973 0.0
O366 O 0.28633 0.83214 0.32543 0.0
O367 O 0.26739 0.83629 0.2721 0.0
O368 O 0.26115 0.78461 0.38425 0.0
O369 O 0.27977 0.74252 0.35608 0.0
O370 O 0.21253 0.8016 0.33141 0.0
O371 O 0.21977 0.76889 0.28741 0.0
O372 O 0.22566 0.71902 0.25151 0.0
O373 O 0.24207 0.71696 0.30671 0.0
C374 C 0.28169 0.85209 0.3022 0.0
C375 C 0.22752 0.7009 0.27699 0.0
Dy376 Dy 0.54399 0.00934 0.53443 0.0
C377 C 0.41445 0.0304 0.53114 0.0
C378 C 0.60394 0.99463 0.54068 0.0
Dy379 Dy 0.46933 0.00693 0.54292 0.0
O380 O 0.58863 0.99593 0.51255 0.0
O381 O 0.58653 0.002 0.56557 0.0
O382 O 0.54258 0.03683 0.48917 0.0
O383 O 0.50086 0.00286 0.50231 0.0
C384 C 0.51131 0.02588 0.48359 0.0
C385 C 0.50161 0.98999 0.59323 0.0
O386 O 0.46536 0.94928 0.51816 0.0
O387 O 0.51994 0.9491 0.52296 0.0
O388 O 0.41835 0.01072 0.55422 0.0
O389 O 0.43976 0.03575 0.51404 0.0
O390 O 0.47022 0.97914 0.5884 0.0
O391 O 0.51228 0.01299 0.57462 0.0
O392 O 0.5481 0.06878 0.55612 0.0
O393 O 0.49296 0.06564 0.56121 0.0
C394 C 0.48913 0.93164 0.51595 0.0
C395 C 0.52338 0.08426 0.56356 0.0
Dy396 Dy 0.23854 0.2694 0.76278 0.0
C397 C 0.37414 0.276 0.7646 0.0
C398 C 0.17395 0.25557 0.77034 0.0
Dy399 Dy 0.30983 0.26859 0.772 0.0
O400 O 0.19207 0.28761 0.76953 0.0
O401 O 0.19085 0.23086 0.76598 0.0
O402 O 0.24907 0.31856 0.7374 0.0
O403 O 0.28305 0.31162 0.77347 0.0
C404 C 0.27811 0.33105 0.75168 0.0
C405 C 0.26852 0.20907 0.78492 0.0
O406 O 0.30511 0.29793 0.82346 0.0
O407 O 0.24917 0.28019 0.81953 0.0
O408 O 0.35591 0.24928 0.77627 0.0
O409 O 0.35759 0.29944 0.75822 0.0
O410 O 0.29703 0.22136 0.80029 0.0
O411 O 0.26505 0.2268 0.76148 0.0
O412 O 0.24515 0.2477 0.70886 0.0
O413 O 0.30083 0.25487 0.71569 0.0
C414 C 0.27713 0.29424 0.83759 0.0
C415 C 0.27351 0.24665 0.69638 0.0
Dy416 Dy 0.00613 0.00727 0.4615 0.0
C417 C 0.06372 0.07021 0.59489 0.0
C418 C 0.97139 0.98211 0.40152 0.0
Dy419 Dy 0.02951 0.04484 0.53406 0.0
O420 O 0.99661 0.97084 0.41092 0.0
O421 O 0.96473 0.00556 0.42536 0.0
O422 O 0.05265 0.03153 0.44115 0.0
O423 O 0.05223 0.02254 0.49094 0.0
C424 C 0.06918 0.03778 0.46984 0.0
C425 C 0.96578 0.01153 0.52418 0.0
O426 O 0.02807 0.09557 0.51278 0.0
O427 O 0.00527 0.06571 0.45982 0.0
O428 O 0.03276 0.0576 0.59031 0.0
O429 O 0.07572 0.07155 0.56581 0.0
O430 O 0.98289 0.01619 0.55236 0.0
O431 O 0.98248 0.02894 0.50411 0.0
O432 O 0.00339 0.95896 0.489 0.0
O433 O 0.04152 0.99022 0.53115 0.0
C434 C 0.01633 0.09589 0.48196 0.0
C435 C 0.022 0.95963 0.51629 0.0
Dy436 Dy 0.30425 0.80264 0.77092 0.0
C437 C 0.17514 0.74761 0.72135 0.0
C438 C 0.36576 0.8249 0.79923 0.0
Dy439 Dy 0.23513 0.76261 0.75309 0.0
O440 O 0.35546 0.8352 0.77239 0.0
O441 O 0.34239 0.80327 0.81068 0.0
O442 O 0.30908 0.81446 0.71802 0.0
O443 O 0.27861 0.76723 0.72637 0.0
C444 C 0.28792 0.78561 0.70369 0.0
C445 C 0.25095 0.77506 0.81931 0.0
O446 O 0.2574 0.71397 0.7432 0.0
O447 O 0.30656 0.74385 0.77178 0.0
O448 O 0.18296 0.73225 0.74621 0.0
O449 O 0.20012 0.77026 0.71368 0.0
O450 O 0.22899 0.74728 0.80439 0.0
O451 O 0.2607 0.79641 0.79876 0.0
O452 O 0.28278 0.85147 0.78031 0.0
O453 O 0.2337 0.8214 0.75221 0.0
C454 C 0.28621 0.7135 0.75667 0.0
C455 C 0.25423 0.85176 0.76647 0.0
Dy456 Dy 0.52055 0.02812 0.05659 0.0
C457 C 0.52521 0.03134 0.91662 0.0
C458 C 0.50701 0.03127 0.1214 0.0
Dy459 Dy 0.52107 0.03737 0.98358 0.0
O460 O 0.50315 0.00117 0.10014 0.0
O461 O 0.51888 0.05954 0.10756 0.0
O462 O 0.55367 0.98941 0.04905 0.0
O463 O 0.52084 0.99098 0.00982 0.0
C464 C 0.54375 0.97698 0.01778 0.0
C465 C 0.51819 0.09817 0.02667 0.0
O466 O 0.47247 1.00016 0.98153 0.0
O467 O 0.46873 0.00571 0.03931 0.0
O468 O 0.50345 0.04509 0.93244 0.0
O469 O 0.54405 0.02073 0.93706 0.0
O470 O 0.53071 0.09868 0.99792 0.0
O471 O 0.50424 0.06577 0.02831 0.0
O472 O 0.56921 0.06396 0.05708 0.0
O473 O 0.57313 0.04959 0.99985 0.0
C474 C 0.45611 0.99384 0.00807 0.0
C475 C 0.58613 0.06369 0.03043 0.0
Dy476 Dy 0.29293 0.31278 0.27426 0.0
C477 C 0.27106 0.15754 0.2583 0.0
C478 C 0.28637 0.37719 0.25579 0.0
Dy479 Dy 0.27283 0.22968 0.25839 0.0
O480 O 0.30034 0.37442 0.28446 0.0
O481 O 0.27659 0.34487 0.23829 0.0
O482 O 0.3188 0.31263 0.32387 0.0
O483 O 0.27873 0.26978 0.30446 0.0
C484 C 0.30172 0.28038 0.32722 0.0
C485 C 0.26806 0.26449 0.20551 0.0
O486 O 0.22489 0.23792 0.2737 0.0
O487 O 0.23967 0.3015 0.28342 0.0
O488 O 0.27364 0.17377 0.23213 0.0
O489 O 0.26811 0.18091 0.28433 0.0
O490 O 0.24856 0.23365 0.20836 0.0
O491 O 0.28938 0.2726 0.22963 0.0
O492 O 0.33966 0.30177 0.25615 0.0
O493 O 0.32742 0.24057 0.26196 0.0
C494 C 0.21794 0.27024 0.28225 0.0
C495 C 0.34808 0.26999 0.25556 0.0
Dy496 Dy 0.50075 0.49949 0.95639 0.0
C497 C 0.54831 0.54468 0.09108 0.0
C498 C 0.47654 0.4917 0.89156 0.0
Dy499 Dy 0.51667 0.532 0.02919 0.0
O500 O 0.49815 0.47528 0.90139 0.0
O501 O 0.46756 0.5109 0.9172 0.0
O502 O 0.55022 0.48895 0.95206 0.0
O503 O 0.5438 0.53446 0.9847 0.0
C504 C 0.56403 0.51616 0.97503 0.0
C505 C 0.45312 0.51793 0.0097 0.0
O506 O 0.52337 0.58544 0.01069 0.0
O507 O 0.49888 0.55848 0.95799 0.0
O508 O 0.51994 0.55088 0.08509 0.0
O509 O 0.55959 0.53277 0.06326 0.0
O510 O 0.46758 0.54373 0.03391 0.0
O511 O 0.47295 0.49879 1.00041 0.0
O512 O 0.48761 0.44685 0.97733 0.0
O513 O 0.51388 0.47211 0.02963 0.0
C514 C 0.51088 0.58779 0.98077 0.0
C515 C 0.49905 0.44339 0.00747 0.0
Dy516 Dy 0.79754 0.28213 0.25278 0.0
C517 C 0.66759 0.22873 0.19064 0.0
C518 C 0.85684 0.30943 0.28701 0.0
Dy519 Dy 0.72891 0.25216 0.22237 0.0
O520 O 0.84938 0.31276 0.25632 0.0
O521 O 0.83117 0.29251 0.29947 0.0
O522 O 0.81609 0.24969 0.211 0.0
O523 O 0.7755 0.27038 0.20051 0.0
C524 C 0.7945 0.25113 0.18823 0.0
C525 C 0.7346 0.2842 0.28732 0.0
O526 O 0.74522 0.19944 0.22278 0.0
O527 O 0.78945 0.22436 0.26105 0.0
O528 O 0.67595 0.22484 0.22092 0.0
O529 O 0.69337 0.24393 0.17733 0.0
O530 O 0.71114 0.2846 0.26624 0.0
O531 O 0.75192 0.2641 0.27361 0.0
O532 O 0.78096 0.33396 0.25011 0.0
O533 O 0.73931 0.30848 0.20981 0.0
C534 C 0.7699 0.19591 0.24221 0.0
C535 C 0.75899 0.33761 0.22749 0.0
Dy536 Dy 0.00704 0.52791 0.53486 0.0
C537 C 0.03665 0.52556 0.39784 0.0
C538 C 0.98169 0.5295 0.5956 0.0
Dy539 Dy 0.02363 0.53954 0.46293 0.0
O540 O 0.97673 0.50096 0.57224 0.0
O541 O 0.00097 0.55709 0.58606 0.0
O542 O 0.03419 0.48335 0.53241 0.0
O543 O 0.01148 0.49207 0.48862 0.0
C544 C 0.02986 0.47403 0.49996 0.0
C545 C 0.01797 0.60012 0.50444 0.0
O546 O 0.97142 0.51578 0.45185 0.0
O547 O 0.95801 0.51488 0.50742 0.0
O548 O 0.01774 0.54674 0.40883 0.0
O549 O 0.04852 0.51278 0.42228 0.0
O550 O 0.03541 0.60104 0.47858 0.0
O551 O 0.00208 0.568 0.50356 0.0
O552 O 0.05871 0.55806 0.54386 0.0
O553 O 0.07222 0.54756 0.48858 0.0
C554 C 0.95023 0.50987 0.47457 0.0
C555 C 0.08024 0.5581 0.52104 0.0
Dy556 Dy 0.73247 0.75906 0.25484 0.0
C557 C 0.86503 0.75105 0.24808 0.0
C558 C 0.66933 0.75333 0.26831 0.0
Dy559 Dy 0.80231 0.75201 0.25925 0.0
O560 O 0.68791 0.78166 0.25936 0.0
O561 O 0.68484 0.72748 0.26864 0.0
O562 O 0.74308 0.80423 0.22508 0.0
O563 O 0.77897 0.79814 0.25898 0.0
C564 C 0.77344 0.8153 0.23544 0.0
C565 C 0.75926 0.69657 0.27727 0.0
O566 O 0.80281 0.78083 0.312 0.0
O567 O 0.74748 0.77719 0.31048 0.0
O568 O 0.84188 0.72229 0.24695 0.0
O569 O 0.8542 0.78027 0.25632 0.0
O570 O 0.78869 0.70766 0.29048 0.0
O571 O 0.7554 0.71325 0.25317 0.0
O572 O 0.73458 0.73204 0.20125 0.0
O573 O 0.79058 0.74222 0.2035 0.0
C574 C 0.77645 0.78544 0.32692 0.0
C575 C 0.76206 0.73203 0.18641 0.0
Dy576 Dy 0.77954 0.27372 0.71243 0.0
C577 C 0.77073 0.27645 0.8539 0.0
C578 C 0.78047 0.28284 0.64693 0.0
Dy579 Dy 0.76426 0.28751 0.78993 0.0
O580 O 0.80155 0.26971 0.66249 0.0
O581 O 0.75881 0.29024 0.66693 0.0
O582 O 0.81316 0.23869 0.72611 0.0
O583 O 0.80537 0.28136 0.76134 0.0
C584 C 0.8184 0.25448 0.75754 0.0
C585 C 0.71722 0.29996 0.75013 0.0
O586 O 0.79672 0.34139 0.78659 0.0
O587 O 0.80455 0.33287 0.72878 0.0
O588 O 0.76361 0.30586 0.8457 0.0
O589 O 0.77392 0.25373 0.82754 0.0
O590 O 0.71689 0.30421 0.78285 0.0
O591 O 0.74207 0.28871 0.74215 0.0
O592 O 0.74401 0.22138 0.71412 0.0
O593 O 0.74147 0.22817 0.77257 0.0
C594 C 0.80857 0.35306 0.75921 0.0
C595 C 0.73433 0.20892 0.74189 0.0
Dy596 Dy 0.77041 0.80257 0.76837 0.0
C597 C 0.76276 0.65325 0.75714 0.0
C598 C 0.76218 0.87218 0.77697 0.0
Dy599 Dy 0.75437 0.71768 0.7426 0.0
O600 O 0.78773 0.86292 0.78825 0.0
O601 O 0.74156 0.84379 0.7614 0.0
O602 O 0.79825 0.7955 0.81421 0.0
O603 O 0.75999 0.75388 0.79172 0.0
C604 C 0.78275 0.76199 0.81464 0.0
C605 C 0.75047 0.75537 0.69031 0.0
O606 O 0.70505 0.72195 0.75609 0.0
O607 O 0.71824 0.78387 0.77936 0.0
O608 O 0.74077 0.6558 0.73459 0.0
O609 O 0.77961 0.6852 0.77063 0.0
O610 O 0.74518 0.71961 0.68671 0.0
O611 O 0.75722 0.76659 0.72137 0.0
O612 O 0.81379 0.79673 0.73918 0.0
O613 O 0.80658 0.73339 0.73338 0.0
C614 C 0.69724 0.7517 0.77173 0.0
C615 C 0.82369 0.76604 0.73014 0.0
Dy616 Dy 0.48603 0.50464 0.47726 0.0
C617 C 0.61358 0.51333 0.52317 0.0
C618 C 0.42423 0.51119 0.46922 0.0
Dy619 Dy 0.55462 0.52716 0.51242 0.0
O620 O 0.44282 0.50748 0.44461 0.0
O621 O 0.4387 0.50869 0.49727 0.0
O622 O 0.50279 0.47012 0.43454 0.0
O623 O 0.53463 0.5167 0.46074 0.0
C624 C 0.53283 0.48859 0.43905 0.0
C625 C 0.5083 0.54362 0.55076 0.0
O626 O 0.55636 0.57722 0.48848 0.0
O627 O 0.50085 0.56481 0.47609 0.0
O628 O 0.60512 0.54265 0.5376 0.0
O629 O 0.59032 0.49251 0.50296 0.0
O630 O 0.53847 0.56118 0.55641 0.0
O631 O 0.50645 0.51599 0.52867 0.0
O632 O 0.48442 0.45211 0.49613 0.0
O633 O 0.53656 0.46949 0.52207 0.0
C634 C 0.52985 0.58683 0.47843 0.0
C635 C 0.5087 0.4454 0.51383 0.0
Dy636 Dy 0.05345 0.51976 0.0116 0.0
C637 C 0.92147 0.53713 0.00706 0.0
C638 C 0.10858 0.49849 0.02666 0.0
Dy639 Dy 0.97902 0.51771 0.01469 0.0
O640 O 0.10588 0.51979 0.00473 0.0
O641 O 0.08163 0.48971 0.04048 0.0
O642 O 0.05764 0.54926 0.96692 0.0
O643 O 0.01341 0.51735 0.97645 0.0
C644 C 0.02659 0.54067 0.95908 0.0
C645 C 0.0078 0.49566 0.06491 0.0
O646 O 0.9748 0.46196 0.98484 0.0
O647 O 0.02928 0.46054 0.99194 0.0
O648 O 0.93558 0.53522 0.03565 0.0
O649 O 0.93806 0.52655 0.98259 0.0
O650 O 0.97728 0.48249 0.05543 0.0
O651 O 0.01943 0.52144 0.04964 0.0
O652 O 0.05691 0.57603 0.0406 0.0
O653 O 0.0029 0.57725 0.03035 0.0
C654 C 0.99875 0.44461 0.98136 0.0
C655 C 0.03291 0.59345 0.04231 0.0
C656 C 0.00802 0.18532 0.9773 0.0
C657 C 0.00617 0.17479 0.94175 0.0
C658 C 0.04298 0.13463 0.94891 0.0
C659 C 0.03884 0.1387 0.98369 0.0
N660 N 0.0209 0.17088 0.0323 0.0
N661 N 0.01887 0.13481 0.89392 0.0
C662 C 0.02251 0.16523 0.99828 0.0
C663 C 0.02319 0.14852 0.92752 0.0
N664 N 0.997 0.21511 0.99089 0.0
N665 N 0.06596 0.11751 0.93637 0.0
H666 H 0.00289 0.14207 0.87741 0.0
H667 H 0.02843 0.11314 0.88311 0.0
H668 H 0.08222 0.11005 0.95231 0.0
H669 H 0.07173 0.11578 0.91138 0.0
H670 H -6e-05 0.22589 0.0164 0.0
H671 H 0.98734 0.23113 0.97626 0.0
H672 H 0.00595 0.18604 0.0447 0.0
H673 H 0.03464 0.15951 0.04791 0.0
C674 C 0.12705 0.78017 0.24223 0.0
C675 C 0.12941 0.81689 0.23749 0.0
C676 C 0.17768 0.83686 0.27701 0.0
C677 C 0.17653 0.79979 0.28016 0.0
N678 N 0.15197 0.73561 0.26283 0.0
N679 N 0.15906 0.87938 0.24574 0.0
C680 C 0.15191 0.77133 0.26167 0.0
C681 C 0.15533 0.84502 0.25365 0.0
N682 N 0.10002 0.75392 0.22981 0.0
N683 N 0.20001 0.86434 0.29634 0.0
H684 H 0.14311 0.88599 0.22869 0.0
H685 H 0.17923 0.90046 0.25363 0.0
H686 H 0.2175 0.85975 0.31282 0.0
H687 H 0.19995 0.8919 0.29791 0.0
H688 H 0.09479 0.72782 0.23619 0.0
H689 H 0.08134 0.75873 0.21497 0.0
H690 H 0.13815 0.7138 0.24596 0.0
H691 H 0.16687 0.72761 0.27981 0.0
C692 C 0.50224 0.84089 0.4704 0.0
C693 C 0.47225 0.82826 0.45085 0.0
C694 C 0.45024 0.87456 0.48557 0.0
C695 C 0.4816 0.89175 0.50038 0.0
N696 N 0.53226 0.88059 0.51955 0.0
N697 N 0.41866 0.83635 0.43733 0.0
C698 C 0.50644 0.87202 0.4963 0.0
C699 C 0.44647 0.84588 0.45788 0.0
N700 N 0.52661 0.82306 0.46435 0.0
N701 N 0.42371 0.88299 0.49995 0.0
H702 H 0.41485 0.81608 0.41617 0.0
H703 H 0.4007 0.85116 0.43941 0.0
H704 H 0.4253 0.89902 0.52358 0.0
H705 H 0.40017 0.86928 0.49147 0.0
H706 H 0.55029 0.83338 0.47432 0.0
H707 H 0.52359 0.79833 0.4481 0.0
H708 H 0.55049 0.86631 0.51962 0.0
H709 H 0.53327 0.89903 0.54167 0.0
C710 C 0.46211 0.31073 0.75052 0.0
C711 C 0.46652 0.28315 0.72434 0.0
C712 C 0.41139 0.24856 0.72725 0.0
C713 C 0.40684 0.27616 0.75345 0.0
N714 N 0.42932 0.32889 0.79517 0.0
N715 N 0.44939 0.2221 0.69393 0.0
C716 C 0.43277 0.30577 0.7668 0.0
C717 C 0.44243 0.25073 0.71487 0.0
N718 N 0.48519 0.34252 0.7585 0.0
N719 N 0.38568 0.2218 0.71248 0.0
H720 H 0.47217 0.22317 0.68484 0.0
H721 H 0.43388 0.19637 0.68835 0.0
H722 H 0.3623 0.21936 0.72011 0.0
H723 H 0.38691 0.20364 0.69075 0.0
H724 H 0.4817 0.36552 0.77418 0.0
H725 H 0.50743 0.3467 0.74795 0.0
H726 H 0.44823 0.349 0.80807 0.0
H727 H 0.40804 0.32587 0.80757 0.0
C728 C 0.00771 0.8592 0.52609 0.0
C729 C 0.00609 0.86174 0.56137 0.0
C730 C 0.01676 0.92834 0.56771 0.0
C731 C 0.01945 0.92622 0.53225 0.0
N732 N 0.02629 0.89013 0.47961 0.0
N733 N 0.01612 0.89872 0.61666 0.0
C734 C 0.0175 0.89173 0.51195 0.0
C735 C 0.01337 0.89627 0.58239 0.0
N736 N -0.00045 0.82574 0.5061 0.0
N737 N 0.01462 0.96017 0.58748 0.0
H738 H 0.01093 0.87643 0.62929 0.0
H739 H 0.02588 0.92305 0.63284 0.0
H740 H 0.01726 0.98512 0.57945 0.0
H741 H 0.0074 0.96153 0.61194 0.0
H742 H 0.99652 0.82227 0.47998 0.0
H743 H 0.99406 0.80137 0.51587 0.0
H744 H 0.02806 0.86601 0.46447 0.0
H745 H 0.03521 0.91344 0.46907 0.0
C746 C 0.44431 0.83977 0.85169 0.0
C747 C 0.45768 0.81256 0.83322 0.0
C748 C 0.41476 0.80086 0.78829 0.0
C749 C 0.39972 0.82573 0.80818 0.0
N750 N 0.39889 0.86887 0.85814 0.0
N751 N 0.46098 0.77353 0.78108 0.0
C752 C 0.41439 0.84563 0.83953 0.0
C753 C 0.44466 0.79528 0.80049 0.0
N754 N 0.46091 0.86065 0.88013 0.0
N755 N 0.39911 0.78028 0.75913 0.0
H756 H 0.48223 0.76735 0.78963 0.0
H757 H 0.45496 0.76362 0.75565 0.0
H758 H 0.37753 0.78387 0.74865 0.0
H759 H 0.40634 0.75803 0.74598 0.0
H760 H 0.45404 0.88286 0.89376 0.0
H761 H 0.48342 0.85754 0.88859 0.0
H762 H 0.40614 0.88127 0.88283 0.0
H763 H 0.37771 0.87488 0.84906 0.0
C764 C 0.47641 0.17649 0.05053 0.0
C765 C 0.48983 0.19016 0.0841 0.0
C766 C 0.52606 0.14816 0.07683 0.0
C767 C 0.509 0.13049 0.04585 0.0
N768 N 0.46422 0.12472 0.00536 0.0
N769 N 0.52239 0.18193 0.13163 0.0
C770 C 0.48288 0.14356 0.03343 0.0
C771 C 0.51316 0.17388 0.09804 0.0
N772 N 0.45939 0.19601 0.03397 0.0
N773 N 0.55546 0.14206 0.08531 0.0
H774 H 0.51204 0.19879 0.1486 0.0
H775 H 0.53753 0.16843 0.14312 0.0
H776 H 0.56714 0.12667 0.06858 0.0
H777 H 0.56998 0.15653 0.10652 0.0
H778 H 0.45175 0.18867 0.00854 0.0
H779 H 0.45629 0.22176 0.04423 0.0
H780 H 0.44289 0.13114 0.99739 0.0
H781 H 0.46857 0.1009 0.99169 0.0
C782 C 0.13718 0.29743 0.29321 0.0
C783 C 0.12315 0.27415 0.31576 0.0
C784 C 0.17306 0.2522 0.31977 0.0
C785 C 0.18534 0.27174 0.29381 0.0
N786 N 0.17676 0.30882 0.25214 0.0
N787 N 0.12579 0.22468 0.34624 0.0
C788 C 0.16683 0.2934 0.27961 0.0
C789 C 0.1406 0.25036 0.32804 0.0
N790 N 0.12261 0.32417 0.28553 0.0
N791 N 0.19269 0.23651 0.33756 0.0
H792 H 0.10197 0.22196 0.35263 0.0
H793 H 0.13619 0.2039 0.35242 0.0
H794 H 0.21678 0.23763 0.33297 0.0
H795 H 0.18605 0.22559 0.35915 0.0
H796 H 0.13331 0.34437 0.27202 0.0
H797 H 0.10123 0.32841 0.29555 0.0
H798 H 0.16262 0.3217 0.23861 0.0
H799 H 0.19785 0.30579 0.24081 0.0
C800 C 0.95883 0.08342 0.13258 0.0
C801 C 0.96005 0.0597 0.15634 0.0
C802 C 0.00738 0.04214 0.13141 0.0
C803 C 0.00582 0.06531 0.1072 0.0
N804 N 0.98397 0.11204 0.08723 0.0
N805 N 0.98157 0.01214 0.17565 0.0
C806 C 0.98251 0.087 0.10842 0.0
C807 C 0.98339 0.03798 0.15509 0.0
N808 N 0.93452 0.10176 0.1327 0.0
N809 N 0.0325 0.02506 0.13235 0.0
H810 H 0.96386 0.00774 0.19272 0.0
H811 H 0.99572 0.99294 0.17412 0.0
H812 H 0.05039 0.02735 0.11531 0.0
H813 H 0.03715 0.01067 0.15126 0.0
H814 H 0.92999 0.1167 0.11419 0.0
H815 H 0.9173 0.1002 0.15048 0.0
H816 H 0.97043 0.13185 0.08893 0.0
H817 H 0.00054 0.11442 0.06891 0.0
C818 C 0.2824 0.72595 0.47067 0.0
C819 C 0.30905 0.70935 0.46526 0.0
C820 C 0.31914 0.73781 0.41517 0.0
C821 C 0.2889 0.74754 0.41658 0.0
N822 N 0.23975 0.74779 0.44477 0.0
N823 N 0.34935 0.69463 0.42819 0.0
C824 C 0.27004 0.74127 0.4443 0.0
C825 C 0.32677 0.71426 0.43661 0.0
N826 N 0.26934 0.72779 0.50116 0.0
N827 N 0.34094 0.75153 0.39366 0.0
H828 H 0.35621 0.67706 0.44298 0.0
H829 H 0.35841 0.69289 0.40449 0.0
H830 H 0.33688 0.77054 0.37877 0.0
H831 H 0.36434 0.74731 0.39366 0.0
H832 H 0.25179 0.74246 0.50737 0.0
H833 H 0.2785 0.71804 0.52144 0.0
H834 H 0.22374 0.73957 0.46253 0.0
H835 H 0.22959 0.75881 0.42604 0.0
C836 C 0.56297 0.00077 0.66671 0.0
C837 C 0.56726 0.96434 0.6643 0.0
C838 C 0.52424 0.94372 0.61891 0.0
C839 C 0.522 0.98053 0.61941 0.0
N840 N 0.53882 0.04442 0.64322 0.0
N841 N 0.55532 0.9021 0.63593 0.0
C842 C 0.54145 0.00913 0.64298 0.0
C843 C 0.54875 0.93607 0.63978 0.0
N844 N 0.57775 0.02697 0.69301 0.0
N845 N 0.50261 0.91601 0.59902 0.0
H846 H 0.57332 0.89582 0.65073 0.0
H847 H 0.54525 0.88119 0.61622 0.0
H848 H 0.48459 0.92036 0.58303 0.0
H849 H 0.5008 0.88847 0.60014 0.0
H850 H 0.57189 0.05223 0.69916 0.0
H851 H 0.5946 0.02307 0.71049 0.0
H852 H 0.55544 0.06703 0.65608 0.0
H853 H 0.52032 0.05144 0.62982 0.0
C854 C 0.29144 0.29704 0.93273 0.0
C855 C 0.27596 0.325 0.94603 0.0
C856 C 0.25713 0.32883 0.88839 0.0
C857 C 0.27662 0.3047 0.87501 0.0
N858 N 0.31385 0.26689 0.88536 0.0
N859 N 0.23098 0.35244 0.93647 0.0
C860 C 0.29411 0.28904 0.89744 0.0
C861 C 0.25495 0.33671 0.92394 0.0
N862 N 0.30115 0.27589 0.95389 0.0
N863 N 0.24193 0.34589 0.86731 0.0
H864 H 0.22512 0.3534 0.96134 0.0
H865 H 0.21338 0.35902 0.92148 0.0
H866 H 0.2421 0.34077 0.84124 0.0
H867 H 0.23136 0.36755 0.8757 0.0
H868 H 0.30971 0.25264 0.94573 0.0
H869 H 0.29643 0.27876 0.97925 0.0
H870 H 0.33059 0.25922 0.90064 0.0
H871 H 0.31513 0.25773 0.85995 0.0
C872 C 0.96376 0.01863 0.32088 0.0
C873 C 0.931 0.00147 0.3105 0.0
C874 C 0.92965 0.9624 0.35405 0.0
C875 C 0.96087 0.98231 0.36647 0.0
N876 N 0.00823 0.02948 0.36307 0.0
N877 N 0.88255 0.957 0.31651 0.0
C878 C 0.97839 0.00986 0.34977 0.0
C879 C 0.91392 0.97314 0.3268 0.0
N880 N 0.98078 0.04395 0.30353 0.0
N881 N 0.91537 0.93309 0.36842 0.0
H882 H 0.87124 0.96299 0.2956 0.0
H883 H 0.86739 0.93883 0.32901 0.0
H884 H 0.92696 0.92479 0.38816 0.0
H885 H 0.89348 0.91533 0.35949 0.0
H886 H 0.00577 0.05315 0.30643 0.0
H887 H 0.9703 0.05512 0.2851 0.0
H888 H 0.0203 0.0536 0.35564 0.0
H889 H 0.02073 0.02244 0.3828 0.0
C890 C 0.2916 0.70563 0.64094 0.0
C891 C 0.3134 0.72049 0.61833 0.0
C892 C 0.31286 0.78233 0.64687 0.0
C893 C 0.29062 0.76654 0.66896 0.0
N894 N 0.247 0.71524 0.67292 0.0
N895 N 0.33874 0.77334 0.59442 0.0
C896 C 0.2761 0.72884 0.66138 0.0
C897 C 0.32254 0.75907 0.61974 0.0
N898 N 0.28633 0.66947 0.64382 0.0
N899 N 0.32395 0.81933 0.65118 0.0
H900 H 0.34551 0.75722 0.57391 0.0
H901 H 0.34332 0.80093 0.5923 0.0
H902 H 0.31312 0.83714 0.66658 0.0
H903 H 0.34351 0.83221 0.63931 0.0
H904 H 0.27241 0.65848 0.66215 0.0
H905 H 0.29883 0.65168 0.63075 0.0
H906 H 0.23455 0.68806 0.66606 0.0
H907 H 0.23386 0.73232 0.68571 0.0
C908 C 0.53612 0.99002 0.82895 0.0
C909 C 0.56175 0.01814 0.82191 0.0
C910 C 0.55121 0.0596 0.87048 0.0
C911 C 0.5302 0.02959 0.88076 0.0
N912 N 0.50047 0.96709 0.87041 0.0
N913 N 0.59296 0.08012 0.83382 0.0
C914 C 0.52142 0.9952 0.85975 0.0
C915 C 0.56874 0.05334 0.84177 0.0
N916 N 0.52644 0.95818 0.80664 0.0
N917 N 0.55473 0.09374 0.88874 0.0
H918 H 0.60511 0.07651 0.81207 0.0
H919 H 0.60186 0.10522 0.8491 0.0
H920 H 0.54197 0.09863 0.90991 0.0
H921 H 0.56799 0.11745 0.88158 0.0
H922 H 0.50605 0.93806 0.80886 0.0
H923 H 0.53747 0.95275 0.7844 0.0
H924 H 0.49607 0.93998 0.85869 0.0
H925 H 0.48815 0.97091 0.8921 0.0
C926 C 0.30666 0.32135 0.14183 0.0
C927 C 0.28042 0.32106 0.11887 0.0
C928 C 0.24423 0.28561 0.15461 0.0
C929 C 0.27142 0.28144 0.17403 0.0
N930 N 0.3288 0.28448 0.17544 0.0
N931 N 0.22416 0.29583 0.10055 0.0
C932 C 0.30273 0.29606 0.16448 0.0
C933 C 0.24906 0.30118 0.1244 0.0
N934 N 0.33498 0.34699 0.14367 0.0
N935 N 0.21398 0.27608 0.16534 0.0
H936 H 0.22697 0.30507 0.07755 0.0
H937 H 0.20164 0.27887 0.10217 0.0
H938 H 0.20945 0.26526 0.1874 0.0
H939 H 0.19386 0.28213 0.15394 0.0
H940 H 0.35367 0.34916 0.16187 0.0
H941 H 0.33805 0.36902 0.13059 0.0
H942 H 0.35181 0.29309 0.16733 0.0
H943 H 0.32634 0.26231 0.18816 0.0
C944 C 0.18195 0.97278 0.05827 0.0
C945 C 0.20587 0.98093 0.0353 0.0
C946 C 0.18387 0.03236 0.0227 0.0
C947 C 0.15765 0.02102 0.04207 0.0
N948 N 0.13044 0.9806 0.07797 0.0
N949 N 0.22957 0.01694 0.99435 0.0
C950 C 0.15647 0.99144 0.06001 0.0
C951 C 0.20713 0.01067 0.01745 0.0
N952 N 0.18423 0.94812 0.07923 0.0
N953 N 0.18617 0.0636 0.00911 0.0
H954 H 0.24684 0.00144 0.98976 0.0
H955 H 0.22986 0.03574 0.97802 0.0
H956 H 0.16916 0.07964 0.01248 0.0
H957 H 0.20599 0.07529 0.99694 0.0
H958 H 0.16949 0.94378 0.09893 0.0
H959 H 0.20265 0.93395 0.07879 0.0
H960 H 0.12569 0.95616 0.08755 0.0
H961 H 0.11267 0.9955 0.08215 0.0
C962 C 0.64237 0.56927 0.94771 0.0
C963 C 0.66478 0.56458 0.97265 0.0
C964 C 0.62115 0.52648 0.99812 0.0
C965 C 0.59857 0.53341 0.97474 0.0
N966 N 0.58661 0.56655 0.93098 0.0
N967 N 0.67484 0.54607 0.02605 0.0
C968 C 0.60884 0.55654 0.95075 0.0
C969 C 0.65401 0.54522 0.99915 0.0
N970 N 0.65306 0.584 0.92013 0.0
N971 N 0.61136 0.50144 0.01883 0.0
H972 H 0.69884 0.5606 0.02833 0.0
H973 H 0.66757 0.53556 0.04764 0.0
H974 H 0.58737 0.48745 0.01893 0.0
H975 H 0.62732 0.49239 0.03393 0.0
H976 H 0.63792 0.5843 0.89934 0.0
H977 H 0.67743 0.593 0.91648 0.0
H978 H 0.59261 0.58683 0.91608 0.0
H979 H 0.56183 0.55671 0.9314 0.0
C980 C 0.70215 0.39682 0.22314 0.0
C981 C 0.716 0.4269 0.24871 0.0
C982 C 0.76673 0.40586 0.24918 0.0
C983 C 0.75114 0.37413 0.22634 0.0
N984 N 0.71398 0.35435 0.17715 0.0
N985 N 0.76474 0.46686 0.27666 0.0
C986 C 0.72221 0.37474 0.20832 0.0
C987 C 0.74948 0.43365 0.25881 0.0
N988 N 0.66967 0.38698 0.21476 0.0
N989 N 0.79783 0.40953 0.26123 0.0
H990 H 0.75298 0.48816 0.2824 0.0
H991 H 0.78948 0.47456 0.28301 0.0
H992 H 0.81252 0.39311 0.25012 0.0
H993 H 0.80912 0.42904 0.28151 0.0
H994 H 0.65895 0.363 0.19844 0.0
H995 H 0.65298 0.39989 0.22662 0.0
H996 H 0.69376 0.35557 0.16233 0.0
H997 H 0.72982 0.34035 0.16472 0.0
C998 C 0.86876 0.45339 0.4377 0.0
C999 C 0.84922 0.47265 0.45731 0.0
C1000 C 0.89587 0.52293 0.47543 0.0
C1001 C 0.91591 0.49942 0.46327 0.0
N1002 N 0.92233 0.4426 0.43131 0.0
N1003 N 0.84317 0.52744 0.49328 0.0
C1004 C 0.90273 0.46505 0.44314 0.0
C1005 C 0.86224 0.50846 0.47491 0.0
N1006 N 0.85451 0.42367 0.4145 0.0
N1007 N 0.90912 0.55893 0.48751 0.0
H1008 H 0.81818 0.51888 0.49246 0.0
H1009 H 0.8523 0.5512 0.51043 0.0
H1010 H 0.93383 0.57018 0.48789 0.0
H1011 H 0.89548 0.57825 0.49397 0.0
H1012 H 0.86722 0.40969 0.39757 0.0
H1013 H 0.82946 0.41561 0.41011 0.0
H1014 H 0.91366 0.41565 0.41963 0.0
H1015 H 0.94742 0.45009 0.43498 0.0
C1016 C 0.30099 0.09179 0.30377 0.0
C1017 C 0.33332 0.10108 0.29437 0.0
C1018 C 0.31373 0.12406 0.24626 0.0
C1019 C 0.28497 0.12592 0.26196 0.0
N1020 N 0.24869 0.10739 0.30352 0.0
N1021 N 0.37074 0.131 0.2576 0.0
C1022 C 0.27761 0.10798 0.28988 0.0
C1023 C 0.33985 0.11809 0.26549 0.0
N1024 N 0.29238 0.0667 0.32469 0.0
N1025 N 0.31634 0.12873 0.21354 0.0
H1026 H 0.39104 0.13062 0.27267 0.0
H1027 H 0.37604 0.14612 0.23816 0.0
H1028 H 0.2965 0.13034 0.19833 0.0
H1029 H 0.33668 0.12583 0.2007 0.0
H1030 H 0.26861 0.05725 0.33023 0.0
H1031 H 0.30827 0.05216 0.3333 0.0
H1032 H 0.2434 0.09863 0.32638 0.0
H1033 H 0.23052 0.11702 0.29213 0.0
C1034 C 0.35613 0.09374 0.54625 0.0
C1035 C 0.34177 0.08959 0.51322 0.0
C1036 C 0.37033 0.04141 0.49426 0.0
C1037 C 0.38707 0.048 0.52644 0.0
N1038 N 0.39961 0.08408 0.58187 0.0
N1039 N 0.33705 0.06228 0.4547 0.0
C1040 C 0.38077 0.0749 0.55229 0.0
C1041 C 0.34944 0.06422 0.48689 0.0
N1042 N 0.34615 0.11562 0.57187 0.0
N1043 N 0.37365 0.01245 0.47111 0.0
H1044 H 0.32077 0.07753 0.44838 0.0
H1045 H 0.34447 0.04745 0.4338 0.0
H1046 H 0.38815 0.99471 0.47605 0.0
H1047 H 0.3599 0.00382 0.44829 0.0
H1048 H 0.35287 0.11659 0.59713 0.0
H1049 H 0.32933 0.13113 0.56799 0.0
H1050 H 0.3988 0.10638 0.60003 0.0
H1051 H 0.41795 0.07117 0.58735 0.0
C1052 C 0.72355 0.59417 0.26664 0.0
C1053 C 0.70322 0.5924 0.29378 0.0
C1054 C 0.71944 0.65902 0.30993 0.0
C1055 C 0.73842 0.66103 0.28175 0.0
N1056 N 0.75532 0.63141 0.23047 0.0
N1057 N 0.67711 0.62304 0.33751 0.0
C1058 C 0.73936 0.62885 0.25914 0.0
C1059 C 0.69987 0.62482 0.31442 0.0
N1060 N 0.72889 0.56261 0.24895 0.0
N1061 N 0.72054 0.68974 0.33279 0.0
H1062 H 0.66247 0.59846 0.34142 0.0
H1063 H 0.67082 0.64589 0.35073 0.0
H1064 H 0.73323 0.71548 0.32948 0.0
H1065 H 0.71055 0.6895 0.35596 0.0
H1066 H 0.74622 0.56197 0.23146 0.0
H1067 H 0.71778 0.53668 0.25358 0.0
H1068 H 0.75355 0.6096 0.21098 0.0
H1069 H 0.76867 0.65598 0.22488 0.0
C1070 C 0.88094 0.43287 0.77961 0.0
C1071 C 0.86458 0.46129 0.7883 0.0
C1072 C 0.81339 0.41987 0.76558 0.0
C1073 C 0.82873 0.39035 0.76366 0.0
N1074 N 0.87689 0.36744 0.76891 0.0
N1075 N 0.81489 0.48234 0.78995 0.0
C1076 C 0.86256 0.39645 0.77033 0.0
C1077 C 0.83068 0.45502 0.78116 0.0
N1078 N 0.9138 0.44071 0.77968 0.0
N1079 N 0.78253 0.41426 0.75187 0.0
H1080 H 0.82677 0.50892 0.80025 0.0
H1081 H 0.78984 0.47817 0.78889 0.0
H1082 H 0.77003 0.38882 0.73906 0.0
H1083 H 0.77075 0.43524 0.74993 0.0
H1084 H 0.9269 0.42147 0.77098 0.0
H1085 H 0.92768 0.46734 0.78493 0.0
H1086 H 0.90077 0.36991 0.77751 0.0
H1087 H 0.86429 0.34052 0.7608 0.0
C1088 C 0.04242 0.87803 0.06334 0.0
C1089 C 0.02644 0.87625 0.09343 0.0
C1090 C 0.00604 0.93044 0.08603 0.0
C1091 C 0.02356 0.93374 0.05688 0.0
N1092 N 0.06125 0.91326 0.0195 0.0
N1093 N -0.00099 0.90468 0.13741 0.0
C1094 C 0.04273 0.90834 0.04614 0.0
C1095 C 0.00993 0.90358 0.10584 0.0
N1096 N 0.05627 0.85011 0.05067 0.0
N1097 N 0.98556 0.95286 0.09496 0.0
H1098 H 0.00184 0.88586 0.15299 0.0
H1099 H 0.98999 0.92614 0.14956 0.0
H1100 H 0.98329 0.97463 0.08292 0.0
H1101 H 0.96902 0.94848 0.11313 0.0
H1102 H 0.06526 0.84747 0.027 0.0
H1103 H 0.05716 0.82825 0.06327 0.0
H1104 H 0.07872 0.89862 0.01294 0.0
H1105 H 0.0602 0.93331 0.00471 0.0
C1106 C 0.89035 0.27036 0.82135 0.0
C1107 C 0.89876 0.23604 0.81471 0.0
C1108 C 0.84834 0.21098 0.77905 0.0
C1109 C 0.84195 0.24643 0.78258 0.0
N1110 N 0.84811 0.30339 0.82082 0.0
N1111 N 0.88634 0.17321 0.78747 0.0
C1112 C 0.86032 0.27439 0.80775 0.0
C1113 C 0.87759 0.20597 0.79412 0.0
N1114 N 0.91143 0.29951 0.84006 0.0
N1115 N 0.82526 0.18184 0.76324 0.0
H1116 H 0.9071 0.16832 0.79868 0.0
H1117 H 0.87414 0.15145 0.76952 0.0
H1118 H 0.80255 0.18466 0.75511 0.0
H1119 H 0.82683 0.15472 0.76173 0.0
H1120 H 0.90886 0.32635 0.84177 0.0
H1121 H 0.93277 0.2972 0.85208 0.0
H1122 H 0.85951 0.32335 0.84075 0.0
H1123 H 0.82426 0.3042 0.81601 0.0
C1124 C 0.51043 0.18097 0.56938 0.0
C1125 C 0.52086 0.19479 0.6035 0.0
C1126 C 0.54485 0.14175 0.60576 0.0
C1127 C 0.52816 0.12451 0.57439 0.0
N1128 N 0.49212 0.12742 0.52736 0.0
N1129 N 0.54596 0.18649 0.65568 0.0
C1130 C 0.51034 0.14416 0.55636 0.0
C1131 C 0.53807 0.17505 0.62204 0.0
N1132 N 0.50125 0.20328 0.54911 0.0
N1133 N 0.56665 0.1262 0.62038 0.0
H1134 H 0.54053 0.20985 0.66896 0.0
H1135 H 0.55531 0.17102 0.67111 0.0
H1136 H 0.57212 0.1019 0.60936 0.0
H1137 H 0.58164 0.13926 0.6417 0.0
H1138 H 0.49633 0.19556 0.52321 0.0
H1139 H 0.50219 0.23086 0.5575 0.0
H1140 H 0.47563 0.13914 0.51573 0.0
H1141 H 0.49159 0.10079 0.51614 0.0
C1142 C 0.5836 0.76658 0.27612 0.0
C1143 C 0.57618 0.75342 0.30665 0.0
C1144 C 0.63103 0.74409 0.3138 0.0
C1145 C 0.63715 0.753 0.2813 0.0
N1146 N 0.61777 0.76787 0.22935 0.0
N1147 N 0.59079 0.72346 0.35173 0.0
C1148 C 0.61308 0.76313 0.26189 0.0
C1149 C 0.59934 0.74053 0.3248 0.0
N1150 N 0.56274 0.78315 0.26113 0.0
N1151 N 0.65573 0.74078 0.33492 0.0
H1152 H 0.56785 0.72021 0.36073 0.0
H1153 H 0.6056 0.70969 0.36333 0.0
H1154 H 0.67963 0.74475 0.32861 0.0
H1155 H 0.65316 0.73797 0.36004 0.0
H1156 H 0.56826 0.7967 0.24075 0.0
H1157 H 0.54104 0.78633 0.27103 0.0
H1158 H 0.59978 0.77148 0.21284 0.0
H1159 H 0.63875 0.76486 0.21779 0.0
C1160 C 0.03538 0.192 0.45797 0.0
C1161 C 0.00798 0.18835 0.43541 0.0
C1162 C 0.98343 0.13059 0.45348 0.0
C1163 C 0.01288 0.13071 0.47109 0.0
N1164 N 0.06848 0.16114 0.48824 0.0
N1165 N 0.95905 0.14931 0.40628 0.0
C1166 C 0.0393 0.16147 0.47317 0.0
C1167 C 0.98276 0.15638 0.43176 0.0
N1168 N 0.05711 0.22482 0.46565 0.0
N1169 N 0.95581 0.10609 0.45793 0.0
H1170 H 0.95862 0.16604 0.38809 0.0
H1171 H 0.94197 0.12459 0.40087 0.0
H1172 H 0.95506 0.08786 0.47499 0.0
H1173 H 0.93317 0.10692 0.44775 0.0
H1174 H 0.07575 0.23016 0.48446 0.0
H1175 H 0.05472 0.24782 0.45543 0.0
H1176 H 0.08942 0.18088 0.48682 0.0
H1177 H 0.07253 0.13977 0.49995 0.0
C1178 C 0.60602 0.24886 0.13225 0.0
C1179 C 0.59351 0.27194 0.15662 0.0
C1180 C 0.61329 0.24269 0.2006 0.0
C1181 C 0.63442 0.22977 0.17786 0.0
N1182 N 0.64472 0.21067 0.12067 0.0
N1183 N 0.58069 0.28735 0.21375 0.0
C1184 C 0.6282 0.22899 0.143 0.0
C1185 C 0.5949 0.26698 0.19068 0.0
N1186 N 0.59729 0.24727 0.09907 0.0
N1187 N 0.61094 0.23186 0.23132 0.0
H1188 H 0.56627 0.30434 0.20676 0.0
H1189 H 0.58415 0.28833 0.2396 0.0
H1190 H 0.62227 0.21184 0.2377 0.0
H1191 H 0.59468 0.23894 0.24834 0.0
H1192 H 0.60401 0.2297 0.07967 0.0
H1193 H 0.58085 0.26179 0.09148 0.0
H1194 H 0.64394 0.21161 0.09501 0.0
H1195 H 0.65955 0.19442 0.12842 0.0
C1196 C 0.54916 0.90273 0.94668 0.0
C1197 C 0.536 0.87079 0.9604 0.0
C1198 C 0.53276 0.90835 0.01453 0.0
C1199 C 0.54618 0.94028 0.00084 0.0
N1200 N 0.57789 0.96614 0.95865 0.0
N1201 N 0.52554 0.84266 0.00969 0.0
C1202 C 0.55791 0.93687 0.96843 0.0
C1203 C 0.53137 0.87351 0.9952 0.0
N1204 N 0.55133 0.90125 0.91279 0.0
N1205 N 0.51947 0.9109 0.04489 0.0
H1206 H 0.52494 0.81684 0.9961 0.0
H1207 H 0.52483 0.8432 0.03555 0.0
H1208 H 0.51947 0.93555 0.0601 0.0
H1209 H 0.50596 0.88839 0.0538 0.0
H1210 H 0.557 0.92456 0.90151 0.0
H1211 H 0.54499 0.87713 0.89555 0.0
H1212 H 0.58924 0.96452 0.93619 0.0
H1213 H 0.58607 0.99076 0.97495 0.0
C1214 C 0.91301 0.79015 0.71466 0.0
C1215 C 0.91309 0.76768 0.68312 0.0
C1216 C 0.85443 0.74761 0.68087 0.0
C1217 C 0.8545 0.76748 0.71379 0.0
N1218 N 0.88448 0.8022 0.76452 0.0
N1219 N 0.88514 0.72022 0.63897 0.0
C1220 C 0.88398 0.78728 0.73141 0.0
C1221 C 0.88415 0.74499 0.66703 0.0
N1222 N 0.94031 0.81536 0.72799 0.0
N1223 N 0.826 0.73263 0.66211 0.0
H1224 H 0.90663 0.71753 0.62831 0.0
H1225 H 0.86519 0.70012 0.62815 0.0
H1226 H 0.80374 0.73437 0.67098 0.0
H1227 H 0.82459 0.72157 0.63671 0.0
H1228 H 0.94064 0.83527 0.74887 0.0
H1229 H 0.96214 0.81853 0.71663 0.0
H1230 H 0.90571 0.81336 0.77969 0.0
H1231 H 0.86375 0.80058 0.77772 0.0
C1232 C 0.09626 0.03912 0.89509 0.0
C1233 C 0.08179 0.01312 0.8669 0.0
C1234 C 0.0464 0.97865 0.90332 0.0
C1235 C 0.05802 0.00705 0.93097 0.0
N1236 N 0.10437 0.0541 0.95541 0.0
N1237 N 0.0414 0.95943 0.84289 0.0
C1238 C 0.08591 0.03455 0.9276 0.0
C1239 C 0.05633 0.98327 0.87064 0.0
N1240 N 0.11914 0.06908 0.89055 0.0
N1241 N 0.02856 0.9458 0.90886 0.0
H1242 H 0.04851 0.96134 0.81863 0.0
H1243 H 0.02031 0.93965 0.84352 0.0
H1244 H 0.02506 0.93966 0.93299 0.0
H1245 H 0.02144 0.92295 0.89022 0.0
H1246 H 0.12809 0.09131 0.90945 0.0
H1247 H 0.12698 0.07326 0.86696 0.0
H1248 H 0.12703 0.07105 0.95457 0.0
H1249 H 0.09873 0.05067 0.97958 0.0
C1250 C 0.80862 0.34684 0.58552 0.0
C1251 C 0.78739 0.33003 0.55678 0.0
C1252 C 0.76203 0.281 0.58682 0.0
C1253 C 0.78468 0.29661 0.61472 0.0
N1254 N 0.83233 0.34156 0.63944 0.0
N1255 N 0.74679 0.27937 0.52777 0.0
C1256 C 0.80901 0.32847 0.61356 0.0
C1257 C 0.76486 0.29656 0.55674 0.0
N1258 N 0.82714 0.38143 0.58676 0.0
N1259 N 0.73757 0.25172 0.58936 0.0
H1260 H 0.74811 0.29049 0.50559 0.0
H1261 H 0.73221 0.25313 0.52495 0.0
H1262 H 0.73578 0.2386 0.61039 0.0
H1263 H 0.71818 0.24153 0.57149 0.0
H1264 H 0.84003 0.39698 0.60846 0.0
H1265 H 0.8275 0.39623 0.56694 0.0
H1266 H 0.85296 0.3617 0.63801 0.0
H1267 H 0.83251 0.33074 0.66166 0.0
C1268 C 0.48579 0.07921 0.4181 0.0
C1269 C 0.4644 0.05037 0.39675 0.0
C1270 C 0.46564 0.01021 0.43798 0.0
C1271 C 0.49189 0.03643 0.45668 0.0
N1272 N 0.52719 0.09714 0.46372 0.0
N1273 N 0.43801 0.98643 0.38334 0.0
C1274 C 0.50201 0.07137 0.44656 0.0
C1275 C 0.45572 0.01524 0.40565 0.0
N1276 N 0.49055 0.11408 0.41126 0.0
N1277 N 0.44874 0.98151 0.45127 0.0
H1278 H 0.42899 0.98899 0.3597 0.0
H1279 H 0.43461 0.95941 0.38729 0.0
H1280 H 0.45069 0.98008 0.47654 0.0
H1281 H 0.4284 0.96309 0.43894 0.0
H1282 H 0.50296 0.13693 0.42797 0.0
H1283 H 0.47989 0.12056 0.38995 0.0
H1284 H 0.53868 0.12029 0.45428 0.0
H1285 H 0.53708 0.09554 0.48727 0.0
C1286 C 0.76014 0.67119 0.10156 0.0
C1287 C 0.77407 0.6972 0.08108 0.0
C1288 C 0.77808 0.74633 0.12929 0.0
C1289 C 0.76223 0.72077 0.14917 0.0
N1290 N 0.73277 0.65955 0.15198 0.0
N1291 N 0.78739 0.76026 0.07331 0.0
C1292 C 0.75114 0.6835 0.13439 0.0
C1293 C 0.7803 0.735 0.09433 0.0
N1294 N 0.75773 0.63474 0.09092 0.0
N1295 N 0.79207 0.78136 0.14388 0.0
H1296 H 0.78804 0.75303 0.04738 0.0
H1297 H 0.78904 0.78807 0.08098 0.0
H1298 H 0.79074 0.79122 0.16916 0.0
H1299 H 0.80715 0.7998 0.13149 0.0
H1300 H 0.75124 0.61495 0.10622 0.0
H1301 H 0.76522 0.62432 0.06795 0.0
H1302 H 0.72107 0.63303 0.14126 0.0
H1303 H 0.72695 0.66704 0.17651 0.0
C1304 C 0.09171 0.0193 0.6582 0.0
C1305 C 0.09697 0.04586 0.68784 0.0
C1306 C 0.08609 0.09174 0.65477 0.0
C1307 C 0.08182 0.06539 0.62529 0.0
N1308 N 0.09178 0.00835 0.59763 0.0
N1309 N 0.10954 0.10994 0.71208 0.0
C1310 C 0.08862 0.03068 0.62657 0.0
C1311 C 0.09735 0.08297 0.68548 0.0
N1312 N 0.0872 0.98294 0.66007 0.0
N1313 N 0.07887 0.12482 0.65355 0.0
H1314 H 0.11983 0.10481 0.73423 0.0
H1315 H 0.11278 0.13766 0.71078 0.0
H1316 H 0.07217 0.13256 0.63104 0.0
H1317 H 0.07796 0.14359 0.67496 0.0
H1318 H 0.08037 0.96248 0.63919 0.0
H1319 H 0.08678 0.97271 0.68263 0.0
H1320 H 0.09935 0.98403 0.59739 0.0
H1321 H 0.0907 0.01615 0.57405 0.0
C1322 C 0.75028 0.29786 0.38272 0.0
C1323 C 0.75732 0.33652 0.39019 0.0
C1324 C 0.74049 0.33965 0.33208 0.0
C1325 C 0.73854 0.30154 0.3233 0.0
N1326 N 0.73796 0.24327 0.34036 0.0
N1327 N 0.76225 0.39493 0.37164 0.0
C1328 C 0.74237 0.28031 0.34873 0.0
C1329 C 0.7528 0.35762 0.36493 0.0
N1330 N 0.75028 0.2781 0.40841 0.0
N1331 N 0.73053 0.35891 0.30929 0.0
H1332 H 0.77093 0.40951 0.39538 0.0
H1333 H 0.76388 0.41146 0.3531 0.0
H1334 H 0.72178 0.34747 0.28478 0.0
H1335 H 0.72793 0.38566 0.31562 0.0
H1336 H 0.74283 0.2498 0.40547 0.0
H1337 H 0.75547 0.29037 0.43354 0.0
H1338 H 0.74452 0.22658 0.35633 0.0
H1339 H 0.7279 0.22905 0.31689 0.0
C1340 C 0.45893 0.05976 0.19299 0.0
C1341 C 0.46907 0.04092 0.21765 0.0
C1342 C 0.50502 0.01632 0.17941 0.0
C1343 C 0.49354 0.03358 0.15424 0.0
N1344 N 0.45413 0.06397 0.13393 0.0
N1345 N 0.49676 0.99625 0.23335 0.0
C1346 C 0.46891 0.0531 0.16007 0.0
C1347 C 0.49066 0.01764 0.21058 0.0
N1348 N 0.44091 0.08509 0.20133 0.0
N1349 N 0.53041 0.99999 0.17401 0.0
H1350 H 0.48652 0.99658 0.25647 0.0
H1351 H 0.50969 0.976 0.22825 0.0
H1352 H 0.54148 0.99845 0.15135 0.0
H1353 H 0.54213 0.99043 0.19271 0.0
H1354 H 0.43616 0.10271 0.18533 0.0
H1355 H 0.43288 0.09074 0.22525 0.0
H1356 H 0.43378 0.07494 0.13626 0.0
H1357 H 0.46004 0.05871 0.10909 0.0
C1358 C 0.75532 0.71951 0.89252 0.0
C1359 C 0.78471 0.72752 0.91282 0.0
C1360 C 0.81281 0.7551 0.86745 0.0
C1361 C 0.78384 0.74492 0.84614 0.0
N1362 N 0.72975 0.70681 0.83642 0.0
N1363 N 0.83643 0.76996 0.92462 0.0
C1364 C 0.75562 0.72432 0.8581 0.0
C1365 C 0.81216 0.75018 0.90176 0.0
N1366 N 0.72672 0.71017 0.90683 0.0
N1367 N 0.84154 0.76749 0.85437 0.0
H1368 H 0.83443 0.77169 0.95047 0.0
H1369 H 0.85585 0.78913 0.91835 0.0
H1370 H 0.84342 0.76863 0.82881 0.0
H1371 H 0.86377 0.772 0.86791 0.0
H1372 H 0.70432 0.70732 0.89413 0.0
H1373 H 0.72557 0.71103 0.93272 0.0
H1374 H 0.70988 0.68904 0.84364 0.0
H1375 H 0.73047 0.70446 0.81053 0.0
C1376 C 0.8515 0.04388 0.98358 0.0
C1377 C 0.85383 0.08026 1.00003 0.0
C1378 C 0.91055 0.08658 0.01552 0.0
C1379 C 0.90759 0.04896 0.00284 0.0
N1380 N 0.8741 0.99017 0.97902 0.0
N1381 N 0.88299 0.1323 0.0394 0.0
C1382 C 0.87769 0.02702 0.98805 0.0
C1383 C 0.88255 0.10041 0.01841 0.0
N1384 N 0.82503 0.02606 0.96259 0.0
N1385 N 0.94013 0.10986 0.02264 0.0
H1386 H 0.86236 0.14248 0.04327 0.0
H1387 H 0.90288 0.14619 0.05571 0.0
H1388 H 0.96152 0.10163 0.01844 0.0
H1389 H 0.94325 0.13811 0.02874 0.0
H1390 H 0.82364 0.00103 0.94731 0.0
H1391 H 0.80554 0.03765 0.95815 0.0
H1392 H 0.85189 0.97233 0.97133 0.0
H1393 H 0.8929 0.97704 0.98189 0.0
C1394 C 0.37054 0.45172 0.99046 0.0
C1395 C 0.3554 0.46556 0.01854 0.0
C1396 C 0.39773 0.52169 0.02726 0.0
C1397 C 0.4171 0.50388 0.00579 0.0
N1398 N 0.41885 0.45509 0.96033 0.0
N1399 N 0.35381 0.51437 0.06381 0.0
C1400 C 0.40239 0.47 0.98499 0.0
C1401 C 0.36856 0.50094 0.03677 0.0
N1402 N 0.35396 0.42192 0.9685 0.0
N1403 N 0.40639 0.55864 0.03728 0.0
H1404 H 0.33201 0.50034 0.07125 0.0
H1405 H 0.36443 0.53828 0.08023 0.0
H1406 H 0.42579 0.57504 0.02777 0.0
H1407 H 0.39187 0.5734 0.05099 0.0
H1408 H 0.36233 0.41195 0.94587 0.0
H1409 H 0.3302 0.40912 0.97145 0.0
H1410 H 0.41198 0.42818 0.94808 0.0
H1411 H 0.4397 0.46991 0.95215 0.0
C1412 C 0.34458 0.6531 0.73348 0.0
C1413 C 0.32936 0.62033 0.74478 0.0
C1414 C 0.28381 0.64746 0.76173 0.0
C1415 C 0.29883 0.67982 0.74977 0.0
N1416 N 0.33829 0.70898 0.7151 0.0
N1417 N 0.28142 0.58303 0.76201 0.0
C1418 C 0.32752 0.68115 0.73266 0.0
C1419 C 0.29789 0.61647 0.75641 0.0
N1420 N 0.37613 0.65877 0.72579 0.0
N1421 N 0.25716 0.6469 0.77969 0.0
H1422 H 0.29106 0.55986 0.75789 0.0
H1423 H 0.25732 0.5775 0.76756 0.0
H1424 H 0.24623 0.66903 0.7841 0.0
H1425 H 0.24725 0.62556 0.79229 0.0
H1426 H 0.38943 0.68397 0.72157 0.0
H1427 H 0.39011 0.63953 0.72646 0.0
H1428 H 0.35696 0.70913 0.69909 0.0
H1429 H 0.32649 0.73007 0.71375 0.0
C1430 C 0.16524 0.56284 0.5566 0.0
C1431 C 0.18271 0.5831 0.53365 0.0
C1432 C 0.13306 0.59759 0.51363 0.0
C1433 C 0.11502 0.57121 0.53101 0.0
N1434 N 0.11394 0.52625 0.56776 0.0
N1435 N 0.18202 0.61531 0.48621 0.0
C1436 C 0.13102 0.55338 0.55253 0.0
C1437 C 0.1664 0.59967 0.51122 0.0
N1438 N 0.18121 0.55365 0.58286 0.0
N1439 N 0.11826 0.62086 0.49965 0.0
H1440 H 0.20605 0.61555 0.48194 0.0
H1441 H 0.1701 0.62452 0.46737 0.0
H1442 H 0.09406 0.62099 0.50257 0.0
H1443 H 0.13082 0.64262 0.48897 0.0
H1444 H 0.16942 0.54186 0.60205 0.0
H1445 H 0.20623 0.5614 0.5875 0.0
H1446 H 0.12483 0.50943 0.58024 0.0
H1447 H 0.08885 0.51885 0.56609 0.0
C1448 C 0.73785 0.9598 0.76835 0.0
C1449 C 0.71344 0.95746 0.79147 0.0
C1450 C 0.73353 0.9097 0.81417 0.0
C1451 C 0.7532 0.90721 0.78691 0.0
N1452 N 0.77564 0.92964 0.73832 0.0
N1453 N 0.68573 0.92733 0.83456 0.0
C1454 C 0.7562 0.93258 0.7643 0.0
C1455 C 0.71103 0.93219 0.81446 0.0
N1456 N 0.74362 0.98825 0.75074 0.0
N1457 N 0.73581 0.88964 0.83921 0.0
H1458 H 0.66774 0.94205 0.83493 0.0
H1459 H 0.68084 0.90629 0.84875 0.0
H1460 H 0.75206 0.87267 0.83925 0.0
H1461 H 0.72414 0.89266 0.86137 0.0
H1462 H 0.76271 0.9932 0.7354 0.0
H1463 H 0.73096 0.0089 0.75412 0.0
H1464 H 0.776 0.94433 0.71847 0.0
H1465 H 0.7907 0.91124 0.73621 0.0
C1466 C 0.66802 0.94757 0.57059 0.0
C1467 C 0.68988 0.95174 0.54498 0.0
C1468 C 0.65841 0.98932 0.51988 0.0
C1469 C 0.63469 0.98199 0.54332 0.0
N1470 N 0.6142 0.95105 0.58772 0.0
N1471 N 0.70384 0.97204 0.49251 0.0
C1472 C 0.63903 0.96035 0.56804 0.0
C1473 C 0.68431 0.97106 0.51867 0.0
N1474 N 0.67527 0.93201 0.59749 0.0
N1475 N 0.65748 0.01557 0.50035 0.0
H1476 H 0.72356 0.95984 0.4912 0.0
H1477 H 0.69891 0.98225 0.4708 0.0
H1478 H 0.64044 0.03159 0.50241 0.0
H1479 H 0.67573 0.02453 0.48503 0.0
H1480 H 0.66276 0.93253 0.61919 0.0
H1481 H 0.69535 0.92061 0.59913 0.0
H1482 H 0.61355 0.93303 0.60491 0.0
H1483 H 0.61355 0.93303 0.60491 0.0
C1484 C 0.33686 0.42309 0.77872 0.0
C1485 C 0.33308 0.44174 0.75135 0.0
C1486 C 0.29657 0.38569 0.72165 0.0
C1487 C 0.29673 0.36934 0.75132 0.0
N1488 N 0.30831 0.38112 0.81183 0.0
N1489 N 0.30397 0.44233 0.69898 0.0
C1490 C 0.31455 0.39027 0.7809 0.0
C1491 C 0.31154 0.42346 0.72328 0.0
N1492 N 0.3618 0.43633 0.80279 0.0
N1493 N 0.28277 0.36542 0.69173 0.0
H1494 H 0.31346 0.47017 0.69977 0.0
H1495 H 0.2858 0.43118 0.67989 0.0
H1496 H 0.27133 0.3379 0.68891 0.0
H1497 H 0.28531 0.37517 0.66894 0.0
H1498 H 0.36676 0.42152 0.82135 0.0
H1499 H 0.3795 0.45985 0.80213 0.0
H1500 H 0.31949 0.3973 0.83413 0.0
H1501 H 0.28835 0.36136 0.81564 0.0
C1502 C 0.16838 0.61616 0.29467 0.0
C1503 C 0.17768 0.58855 0.27212 0.0
C1504 C 0.21702 0.63501 0.24971 0.0
C1505 C 0.20945 0.66241 0.27408 0.0
N1506 N 0.1798 0.67902 0.32203 0.0
N1507 N 0.21412 0.57041 0.23198 0.0
C1508 C 0.18568 0.65297 0.2972 0.0
C1509 C 0.20265 0.59761 0.25036 0.0
N1510 N 0.14215 0.60736 0.31292 0.0
N1511 N 0.23837 0.64458 0.22632 0.0
H1512 H 0.20483 0.54272 0.23231 0.0
H1513 H 0.23465 0.57508 0.21858 0.0
H1514 H 0.25159 0.67117 0.22664 0.0
H1515 H 0.24171 0.62654 0.20535 0.0
H1516 H 0.1312 0.62658 0.32609 0.0
H1517 H 0.12965 0.58061 0.31306 0.0
H1518 H 0.16685 0.67291 0.34263 0.0
H1519 H 0.18905 0.70694 0.32341 0.0
C1520 C 0.50745 0.67505 0.46771 0.0
C1521 C 0.50673 0.67089 0.43208 0.0
C1522 C 0.53658 0.62244 0.43144 0.0
C1523 C 0.53131 0.62168 0.46576 0.0
N1524 N 0.51378 0.64795 0.51773 0.0
N1525 N 0.51935 0.63925 0.37935 0.0
C1526 C 0.51777 0.64863 0.48436 0.0
C1527 C 0.52163 0.64479 0.41374 0.0
N1528 N 0.49875 0.70455 0.48549 0.0
N1529 N 0.55523 0.60102 0.41566 0.0
H1530 H 0.50791 0.65415 0.36512 0.0
H1531 H 0.52649 0.61781 0.36466 0.0
H1532 H 0.56619 0.58443 0.42829 0.0
H1533 H 0.56254 0.60254 0.39145 0.0
H1534 H 0.50121 0.71084 0.51162 0.0
H1535 H 0.49175 0.72472 0.47395 0.0
H1536 H 0.50032 0.66359 0.53201 0.0
H1537 H 0.52326 0.63045 0.53081 0.0
C1538 C 0.64402 0.29074 0.69154 0.0
C1539 C 0.63641 0.32525 0.7011 0.0
C1540 C 0.68653 0.34626 0.7373 0.0
C1541 C 0.69395 0.31156 0.72796 0.0
N1542 N 0.68574 0.25674 0.68691 0.0
N1543 N 0.65423 0.38876 0.72512 0.0
C1544 C 0.67479 0.28587 0.70184 0.0
C1545 C 0.65901 0.35401 0.7214 0.0
N1546 N 0.62124 0.26166 0.67495 0.0
N1547 N 0.70533 0.3715 0.76193 0.0
H1548 H 0.63445 0.39514 0.7133 0.0
H1549 H 0.67123 0.41161 0.73707 0.0
H1550 H 0.72696 0.36797 0.77243 0.0
H1551 H 0.69892 0.39529 0.7729 0.0
H1552 H 0.62448 0.23499 0.67121 0.0
H1553 H 0.59795 0.26321 0.66756 0.0
H1554 H 0.67389 0.23875 0.66586 0.0
H1555 H 0.70873 0.25365 0.69278 0.0
C1556 C 0.96861 0.34095 0.9625 0.0
C1557 C 0.97765 0.33261 0.92909 0.0
C1558 C 0.00596 0.39684 0.933 0.0
C1559 C 0.99161 0.40608 0.96348 0.0
N1560 N 0.95275 0.38601 0.0031 0.0
N1561 N 0.99751 0.35694 0.87954 0.0
C1562 C 0.97064 0.37796 0.97679 0.0
C1563 C 0.99435 0.36169 0.91342 0.0
N1564 N 0.96005 0.31406 0.98161 0.0
N1565 N 0.03055 0.42113 0.92226 0.0
H1566 H 0.98702 0.33298 0.86325 0.0
H1567 H 0.00701 0.37855 0.86702 0.0
H1568 H 0.04026 0.44729 0.93522 0.0
H1569 H 0.04341 0.41377 0.90184 0.0
H1570 H 0.95579 0.31956 0.00696 0.0
H1571 H 0.96162 0.28713 0.97377 0.0
H1572 H 0.9351 0.36619 0.01132 0.0
H1573 H 0.95327 0.41253 0.01467 0.0
C1574 C 0.95567 0.78147 0.24874 0.0
C1575 C 0.96143 0.76297 0.21704 0.0
C1576 C 0.90415 0.73301 0.20698 0.0
C1577 C 0.89839 0.75121 0.23886 0.0
N1578 N 0.91959 0.78422 0.2937 0.0
N1579 N 0.94373 0.71359 0.17102 0.0
C1580 C 0.92451 0.77268 0.26093 0.0
C1581 C 0.93644 0.73616 0.19785 0.0
N1582 N 0.97924 0.80902 0.26629 0.0
N1583 N 0.87896 0.71493 0.18441 0.0
H1584 H 0.96742 0.71492 0.16455 0.0
H1585 H 0.927 0.69132 0.15767 0.0
H1586 H 0.85483 0.71263 0.1894 0.0
H1587 H 0.88194 0.70486 0.15953 0.0
H1588 H 0.97505 0.82645 0.28733 0.0
H1589 H 0.00255 0.81628 0.25861 0.0
H1590 H 0.93828 0.79698 0.31184 0.0
H1591 H 0.89712 0.77767 0.30355 0.0
C1592 C 0.46092 0.37973 0.06481 0.0
C1593 C 0.47986 0.3531 0.06142 0.0
C1594 C 0.5093 0.38293 0.01799 0.0
C1595 C 0.48933 0.40841 0.0206 0.0
N1596 N 0.44074 0.42485 0.03962 0.0
N1597 N 0.51764 0.3248 0.03038 0.0
C1598 C 0.46326 0.40452 0.04162 0.0
C1599 C 0.50272 0.35327 0.03657 0.0
N1600 N 0.44256 0.38347 0.09172 0.0
N1601 N 0.53512 0.38782 0.9987 0.0
H1602 H 0.51297 0.30259 0.04329 0.0
H1603 H 0.5324 0.32162 0.01066 0.0
H1604 H 0.53962 0.40842 0.98389 0.0
H1605 H 0.55283 0.37278 0.99868 0.0
H1606 H 0.43131 0.40517 0.09733 0.0
H1607 H 0.44116 0.36737 0.1106 0.0
H1608 H 0.4193 0.42051 0.05165 0.0
H1609 H 0.44197 0.44334 0.02298 0.0
C1610 C 0.93247 0.2726 0.29212 0.0
C1611 C 0.95193 0.29913 0.31727 0.0
C1612 C 0.91052 0.33538 0.32014 0.0
C1613 C 0.88971 0.30663 0.29781 0.0
N1614 N 0.87891 0.24528 0.26637 0.0
N1615 N 0.96037 0.35542 0.35622 0.0
C1616 C 0.9002 0.27461 0.2847 0.0
C1617 C 0.94132 0.33066 0.33144 0.0
N1618 N 0.94511 0.24568 0.27495 0.0
N1619 N 0.90087 0.36709 0.33022 0.0
H1620 H 0.98368 0.3536 0.36341 0.0
H1621 H 0.95289 0.37691 0.37041 0.0
H1622 H 0.87817 0.37073 0.32292 0.0
H1623 H 0.91578 0.39042 0.34414 0.0
H1624 H 0.93333 0.2278 0.25383 0.0
H1625 H 0.9688 0.24344 0.27975 0.0
H1626 H 0.88412 0.21974 0.25967 0.0
H1627 H 0.85492 0.24521 0.26037 0.0
C1628 C 0.97757 0.68079 0.52255 0.0
C1629 C 0.97904 0.68589 0.55839 0.0
C1630 C 0.01244 0.64107 0.5574 0.0
C1631 C 0.00692 0.63196 0.52208 0.0
N1632 N 0.97808 0.63845 0.47142 0.0
N1633 N 0.9906 0.66245 0.60894 0.0
C1634 C 0.98753 0.6503 0.5047 0.0
C1635 C 0.99411 0.66326 0.57551 0.0
N1636 N 0.96882 0.70596 0.50541 0.0
N1637 N 0.03658 0.63045 0.57354 0.0
H1638 H 0.97561 0.67657 0.62268 0.0
H1639 H -0.00052 0.6444 0.62179 0.0
H1640 H 0.05329 0.61888 0.56025 0.0
H1641 H 0.04272 0.63801 0.59927 0.0
H1642 H 0.97051 0.70486 0.47957 0.0
H1643 H 0.96337 0.73002 0.51707 0.0
H1644 H 0.96119 0.64868 0.45868 0.0
H1645 H 0.98479 0.61627 0.45738 0.0
C1646 C 0.62018 0.78238 0.79293 0.0
C1647 C 0.60914 0.7597 0.81699 0.0
C1648 C 0.64976 0.72429 0.803 0.0
C1649 C 0.66387 0.74999 0.78239 0.0
N1650 N 0.66078 0.80106 0.75441 0.0
N1651 N 0.61517 0.71193 0.84817 0.0
C1652 C 0.64842 0.7783 0.77635 0.0
C1653 C 0.62452 0.73161 0.82304 0.0
N1654 N 0.60342 0.80759 0.78585 0.0
N1655 N 0.659 0.69196 0.8024 0.0
H1656 H 0.59581 0.7152 0.8625 0.0
H1657 H 0.6283 0.69453 0.85674 0.0
H1658 H 0.67587 0.68367 0.787 0.0
H1659 H 0.64703 0.67094 0.81432 0.0
H1660 H 0.60779 0.82237 0.76614 0.0
H1661 H 0.584 0.81303 0.79915 0.0
H1662 H 0.65393 0.82528 0.75211 0.0
H1663 H 0.67847 0.79574 0.73838 0.0
C1664 C 0.46213 0.52184 0.62688 0.0
C1665 C 0.44172 0.54685 0.62822 0.0
C1666 C 0.4612 0.56532 0.57557 0.0
C1667 C 0.48478 0.54418 0.57688 0.0
N1668 N 0.50937 0.50375 0.60455 0.0
N1669 N 0.42163 0.59307 0.60502 0.0
C1670 C 0.48553 0.52255 0.6026 0.0
C1671 C 0.44098 0.56857 0.60269 0.0
N1672 N 0.45915 0.4975 0.64898 0.0
N1673 N 0.45786 0.58183 0.54823 0.0
H1674 H 0.40534 0.59458 0.62362 0.0
H1675 H 0.42263 0.61286 0.58959 0.0
H1676 H 0.4727 0.58054 0.52837 0.0
H1677 H 0.43899 0.59436 0.54391 0.0
H1678 H 0.47111 0.47626 0.64748 0.0
H1679 H 0.44247 0.49647 0.66729 0.0
H1680 H 0.51352 0.49082 0.62473 0.0
H1681 H 0.52663 0.5029 0.58697 0.0
C1682 C 0.8062 0.26498 0.93711 0.0
C1683 C 0.79036 0.22773 0.93594 0.0
C1684 C 0.75195 0.23334 0.89174 0.0
C1685 C 0.7722 0.26679 0.88764 0.0
N1686 N 0.81871 0.31561 0.90598 0.0
N1687 N 0.75065 0.17459 0.9075 0.0
C1688 C 0.79908 0.28342 0.91061 0.0
C1689 C 0.7634 0.21145 0.91251 0.0
N1690 N 0.82759 0.28267 0.96357 0.0
N1691 N 0.72237 0.22191 0.87443 0.0
H1692 H 0.76007 0.15626 0.91939 0.0
H1693 H 0.73299 0.16146 0.8884 0.0
H1694 H 0.71378 0.23782 0.85879 0.0
H1695 H 0.70539 0.19894 0.87845 0.0
H1696 H 0.83791 0.31058 0.96696 0.0
H1697 H 0.83251 0.27016 0.98388 0.0
H1698 H 0.84094 0.32674 0.9194 0.0
H1699 H 0.81328 0.33026 0.88749 0.0
C1700 C 0.06206 0.44554 0.10611 0.0
C1701 C 0.07289 0.47006 0.13634 0.0
C1702 C 0.03877 0.51036 0.12095 0.0
C1703 C 0.02659 0.48463 0.09161 0.0
N1704 N 0.0213 0.42444 0.05984 0.0
N1705 N 0.06845 0.52332 0.17547 0.0
C1706 C 0.03651 0.4511 0.08538 0.0
C1707 C 0.06057 0.50197 0.14454 0.0
N1708 N 0.077 0.41758 0.09675 0.0
N1709 N 0.02919 0.54272 0.12636 0.0
H1710 H 0.08513 0.51916 0.19314 0.0
H1711 H 0.0571 0.54401 0.18471 0.0
H1712 H 0.01126 0.54854 0.11114 0.0
H1713 H 0.03973 0.56444 0.14515 0.0
H1714 H 0.07258 0.40097 0.0733 0.0
H1715 H 0.0962 0.41327 0.11127 0.0
H1716 H 0.02538 0.39815 0.05576 0.0
H1717 H 0.00218 0.42764 0.04477 0.0
C1718 C 0.78207 0.79326 0.4229 0.0
C1719 C 0.78333 0.83101 0.43319 0.0
C1720 C 0.77648 0.83783 0.37357 0.0
C1721 C 0.77918 0.80122 0.36348 0.0
N1722 N 0.78894 0.74536 0.3787 0.0
N1723 N 0.78609 0.89064 0.41764 0.0
C1724 C 0.7833 0.77934 0.38822 0.0
C1725 C 0.78136 0.85366 0.40836 0.0
N1726 N 0.77837 0.77033 0.44626 0.0
N1727 N 0.76941 0.85769 0.34985 0.0
H1728 H 0.78948 0.90371 0.44251 0.0
H1729 H 0.7892 0.90891 0.40056 0.0
H1730 H 0.76771 0.84806 0.32408 0.0
H1731 H 0.7631 0.88276 0.35575 0.0
H1732 H 0.774 0.742 0.44006 0.0
H1733 H 0.77622 0.7793 0.47165 0.0
H1734 H 0.79571 0.72974 0.39564 0.0
H1735 H 0.78949 0.73394 0.35366 0.0
C1736 C 0.44698 0.4826 0.80001 0.0
C1737 C 0.45193 0.52043 0.79762 0.0
C1738 C 0.48261 0.53635 0.85218 0.0
C1739 C 0.47226 0.49962 0.85727 0.0
N1740 N 0.44547 0.43717 0.83681 0.0
N1741 N 0.47545 0.58358 0.82053 0.0
C1742 C 0.45526 0.47235 0.83114 0.0
C1743 C 0.47019 0.54738 0.82341 0.0
N1744 N 0.43383 0.45658 0.77298 0.0
N1745 N 0.50526 0.56032 0.8744 0.0
H1746 H 0.46955 0.59273 0.7985 0.0
H1747 H 0.48444 0.60469 0.84044 0.0
H1748 H 0.516 0.55246 0.89486 0.0
H1749 H 0.51597 0.5867 0.87077 0.0
H1750 H 0.43305 0.42889 0.77208 0.0
H1751 H 0.425 0.46258 0.75059 0.0
H1752 H 0.42966 0.41667 0.82034 0.0
H1753 H 0.45197 0.42885 0.85908 0.0
C1754 C 0.8398 0.23098 0.11198 0.0
C1755 C 0.81437 0.21432 0.08706 0.0
C1756 C 0.77485 0.22465 0.12787 0.0
C1757 C 0.8002 0.24325 0.15206 0.0
N1758 N 0.85593 0.27653 0.16169 0.0
N1759 N 0.75843 0.20902 0.06865 0.0
C1760 C 0.83245 0.2505 0.14236 0.0
C1761 C 0.78208 0.21564 0.09411 0.0
N1762 N 0.8705 0.22652 0.108 0.0
N1763 N 0.74432 0.21336 0.1372 0.0
H1764 H 0.7632 0.20499 0.04334 0.0
H1765 H 0.73507 0.21215 0.07269 0.0
H1766 H 0.73878 0.21716 0.16217 0.0
H1767 H 0.72566 0.19675 0.12072 0.0
H1768 H 0.88886 0.23563 0.12721 0.0
H1769 H 0.87692 0.21046 0.08727 0.0
H1770 H 0.87929 0.2844 0.15426 0.0
H1771 H 0.8509 0.29345 0.18273 0.0
C1772 C 0.05136 0.46353 0.32152 0.0
C1773 C 0.06549 0.48934 0.30132 0.0
C1774 C 0.05467 0.53938 0.34172 0.0
C1775 C 0.04162 0.51364 0.3624 0.0
N1776 N 0.01725 0.45133 0.36717 0.0
N1777 N 0.07167 0.54995 0.28681 0.0
C1778 C 0.03675 0.47565 0.35076 0.0
C1779 C 0.06395 0.52662 0.30947 0.0
N1780 N 0.05217 0.42755 0.31292 0.0
N1781 N 0.0604 0.57598 0.3537 0.0
H1782 H 0.08091 0.54284 0.26386 0.0
H1783 H 0.06707 0.57602 0.28995 0.0
H1784 H 0.05391 0.58653 0.37715 0.0
H1785 H 0.07355 0.59594 0.34137 0.0
H1786 H 0.04568 0.40823 0.32869 0.0
H1787 H 0.06067 0.41719 0.29043 0.0
H1788 H 0.01021 0.42345 0.35812 0.0
H1789 H 0.00535 0.45956 0.38812 0.0
C1790 C 0.74925 0.77591 0.59985 0.0
C1791 C 0.76637 0.81282 0.60406 0.0
C1792 C 0.76951 0.81507 0.66538 0.0
C1793 C 0.75219 0.7777 0.66163 0.0
N1794 N 0.71493 0.72896 0.62505 0.0
N1795 N 0.78573 0.8702 0.64095 0.0
C1796 C 0.73898 0.75993 0.62872 0.0
C1797 C 0.77428 0.8331 0.63684 0.0
N1798 N 0.74297 0.75592 0.5683 0.0
N1799 N 0.78236 0.83381 0.69596 0.0
H1800 H 0.79065 0.8846 0.62097 0.0
H1801 H 0.7878 0.88728 0.66407 0.0
H1802 H 0.77427 0.82636 0.71814 0.0
H1803 H 0.80107 0.85712 0.69913 0.0
H1804 H 0.73378 0.72775 0.56381 0.0
H1805 H 0.7492 0.76721 0.54674 0.0
H1806 H 0.70276 0.71634 0.60199 0.0
H1807 H 0.70397 0.71891 0.64546 0.0
C1808 C 0.67125 0.45457 0.54099 0.0
C1809 C 0.69778 0.47047 0.52381 0.0
C1810 C 0.67244 0.52115 0.51635 0.0
C1811 C 0.64423 0.50264 0.52932 0.0
N1812 N 0.61564 0.45182 0.55377 0.0
N1813 N 0.72257 0.51643 0.49149 0.0
C1814 C 0.64339 0.46944 0.54178 0.0
C1815 C 0.69835 0.50341 0.5109 0.0
N1816 N 0.67313 0.42599 0.55735 0.0
N1817 N 0.67421 0.55533 0.50868 0.0
H1818 H 0.74154 0.50373 0.48594 0.0
H1819 H 0.72248 0.53794 0.47831 0.0
H1820 H 0.65527 0.56864 0.51155 0.0
H1821 H 0.6953 0.57181 0.50233 0.0
H1822 H 0.656 0.41552 0.5732 0.0
H1823 H 0.69323 0.41444 0.55722 0.0
H1824 H 0.61182 0.42521 0.55885 0.0
H1825 H 0.59572 0.46343 0.55745 0.0
C1826 C 0.15093 0.09554 0.45566 0.0
C1827 C 0.17168 0.08378 0.47775 0.0
C1828 C 0.12569 0.04006 0.49341 0.0
C1829 C 0.10436 0.05452 0.4742 0.0
N1830 N 0.09695 0.10231 0.44307 0.0
N1831 N 0.17754 0.05234 0.52458 0.0
C1832 C 0.11704 0.08422 0.4572 0.0
C1833 C 0.15864 0.05848 0.49891 0.0
N1834 N 0.16334 0.11592 0.43201 0.0
N1835 N 0.11549 0.00728 0.50413 0.0
H1836 H 0.20163 0.06614 0.53003 0.0
H1837 H 0.16826 0.03667 0.54259 0.0
H1838 H 0.09275 0.99039 0.49731 0.0
H1839 H 0.13108 0.99453 0.5159 0.0
H1840 H 0.14906 0.12164 0.41288 0.0
H1841 H 0.188 0.1241 0.42931 0.0
H1842 H 0.1053 0.12634 0.43344 0.0
H1843 H 0.07201 0.09594 0.44425 0.0
C1844 C 0.22754 0.93993 0.75806 0.0
C1845 C 0.20437 0.93852 0.78257 0.0
C1846 C 0.22061 0.88629 0.80054 0.0
C1847 C 0.241 0.8847 0.77381 0.0
N1848 N 0.26177 0.90727 0.72444 0.0
N1849 N 0.17208 0.90288 0.81928 0.0
C1850 C 0.24389 0.91075 0.75165 0.0
C1851 C 0.19889 0.90945 0.80147 0.0
N1852 N 0.23456 0.9694 0.74179 0.0
N1853 N 0.22248 0.86632 0.82567 0.0
H1854 H 0.15426 0.91786 0.81905 0.0
H1855 H 0.16569 0.87987 0.83091 0.0
H1856 H 0.23944 0.85045 0.82671 0.0
H1857 H 0.21013 0.8693 0.84738 0.0
H1858 H 0.2534 0.97368 0.72605 0.0
H1859 H 0.22281 0.99088 0.74586 0.0
H1860 H 0.26218 0.92312 0.70546 0.0
H1861 H 0.27483 0.88696 0.72003 0.0
C1862 C 0.36811 0.94997 0.98022 0.0
C1863 C 0.35964 0.93259 0.00847 0.0
C1864 C 0.41675 0.9429 0.02544 0.0
C1865 C 0.42379 0.96915 0.00371 0.0
N1866 N 0.40458 0.99967 0.9611 0.0
N1867 N 0.37758 0.91722 0.06151 0.0
C1868 C 0.39921 0.97298 0.98077 0.0
C1869 C 0.38434 0.92963 0.03188 0.0
N1870 N 0.34669 0.94418 0.95283 0.0
N1871 N 0.44096 0.93066 0.0399 0.0
H1872 H 0.35448 0.90982 0.06949 0.0
H1873 H 0.39554 0.91823 0.08016 0.0
H1874 H 0.46492 0.93858 0.0342 0.0
H1875 H 0.43657 0.90946 0.05401 0.0
H1876 H 0.35277 0.95429 0.93071 0.0
H1877 H 0.32442 0.92557 0.95085 0.0
H1878 H 0.38613 0.00527 0.94647 0.0
H1879 H 0.42654 0.01841 0.96169 0.0
C1880 C 0.79956 0.61239 0.81737 0.0
C1881 C 0.81902 0.59378 0.79643 0.0
C1882 C 0.787 0.59928 0.74641 0.0
C1883 C 0.7697 0.62005 0.76741 0.0
N1884 N 0.74845 0.63065 0.821 0.0
N1885 N 0.82212 0.5568 0.74271 0.0
C1886 C 0.77195 0.62042 0.80235 0.0
C1887 C 0.80962 0.58283 0.76141 0.0
N1888 N 0.80865 0.62557 0.85057 0.0
N1889 N 0.7834 0.5974 0.7124 0.0
H1890 H 0.8378 0.54317 0.75319 0.0
H1891 H 0.81429 0.54605 0.71773 0.0
H1892 H 0.76587 0.60802 0.7011 0.0
H1893 H 0.79838 0.58657 0.69584 0.0
H1894 H 0.79653 0.64237 0.86546 0.0
H1895 H 0.8299 0.62312 0.86262 0.0
H1896 H 0.74761 0.62969 0.84666 0.0
H1897 H 0.72806 0.63609 0.80943 0.0
C1898 C 0.84349 0.56919 0.0226 0.0
C1899 C 0.84134 0.58825 0.99519 0.0
C1900 C 0.89445 0.57916 0.97977 0.0
C1901 C 0.8939 0.55478 0.00332 0.0
N1902 N 0.86426 0.52156 0.04327 0.0
N1903 N 0.86179 0.60241 0.94219 0.0
C1904 C 0.86742 0.54839 0.02375 0.0
C1905 C 0.86598 0.59081 0.97219 0.0
N1906 N 0.82362 0.57198 0.04822 0.0
N1907 N 0.92235 0.59266 0.96565 0.0
H1908 H 0.8402 0.60769 0.93355 0.0
H1909 H 0.8785 0.60243 0.92396 0.0
H1910 H 0.94457 0.58748 0.9724 0.0
H1911 H 0.92424 0.61288 0.95051 0.0
H1912 H 0.82623 0.56122 0.0702 0.0
H1913 H 0.80704 0.58858 0.04928 0.0
H1914 H 0.84376 0.51366 0.05613 0.0
H1915 H 0.8804 0.50457 0.04378 0.0
C1916 C 0.2193 0.11067 0.77391 0.0
C1917 C 0.2025 0.1115 0.80378 0.0
C1918 C 0.2311 0.17499 0.82238 0.0
C1919 C 0.24548 0.17553 0.79111 0.0
N1920 N 0.25076 0.14467 0.73541 0.0
N1921 N 0.18687 0.14677 0.85254 0.0
C1922 C 0.23846 0.14372 0.76617 0.0
C1923 C 0.20676 0.14437 0.82686 0.0
N1924 N 0.21882 0.07799 0.75408 0.0
N1925 N 0.24127 0.2032 0.84832 0.0
H1926 H 0.1683 0.12508 0.8562 0.0
H1927 H 0.1866 0.17124 0.86801 0.0
H1928 H 0.25956 0.2256 0.84644 0.0
H1929 H 0.234 0.20257 0.87265 0.0
H1930 H 0.2334 0.07518 0.73413 0.0
H1931 H 0.20617 0.05294 0.75932 0.0
H1932 H 0.24306 0.12393 0.71488 0.0
H1933 H 0.26736 0.16706 0.72966 0.0
C1934 C 0.32476 0.95052 0.29457 0.0
C1935 C 0.34149 0.96013 0.327 0.0
C1936 C 0.3061 0.90759 0.34434 0.0
C1937 C 0.29591 0.89255 0.31024 0.0
N1938 N 0.29118 0.90411 0.25278 0.0
N1939 N 0.34985 0.94486 0.38226 0.0
C1940 C 0.30386 0.91523 0.2852 0.0
C1941 C 0.33259 0.93792 0.35183 0.0
N1942 N 0.32684 0.976 0.27362 0.0
N1943 N 0.28931 0.89419 0.36967 0.0
H1944 H 0.3703 0.96605 0.3885 0.0
H1945 H 0.34566 0.92719 0.39987 0.0
H1946 H 0.26746 0.8748 0.36493 0.0
H1947 H 0.29461 0.90599 0.39487 0.0
H1948 H 0.31261 0.97189 0.2512 0.0
H1949 H 0.34016 0.00282 0.28018 0.0
H1950 H 0.30122 0.9159 0.23275 0.0
H1951 H 0.26978 0.88466 0.24595 0.0
C1952 C 0.48608 0.3859 0.57994 0.0
C1953 C 0.50435 0.35902 0.57182 0.0
C1954 C 0.52367 0.38715 0.52328 0.0
C1955 C 0.50368 0.41247 0.53022 0.0
N1956 N 0.46162 0.43216 0.56186 0.0
N1957 N 0.53688 0.33043 0.53361 0.0
C1958 C 0.48326 0.41032 0.55723 0.0
C1959 C 0.52215 0.35858 0.54283 0.0
N1960 N 0.4733 0.38987 0.61058 0.0
N1961 N 0.5445 0.39088 0.49838 0.0
H1962 H 0.5363 0.30935 0.54761 0.0
H1963 H 0.54761 0.32644 0.51099 0.0
H1964 H 0.54476 0.40996 0.48223 0.0
H1965 H 0.56253 0.37636 0.49473 0.0
H1966 H 0.46294 0.41153 0.61951 0.0
H1967 H 0.47583 0.37375 0.62883 0.0
H1968 H 0.44346 0.42844 0.57846 0.0
H1969 H 0.45999 0.45242 0.5476 0.0
C1970 C 0.3906 0.78575 0.32461 0.0
C1971 C 0.39722 0.75063 0.32349 0.0
C1972 C 0.34296 0.72284 0.2964 0.0
C1973 C 0.3383 0.75811 0.29334 0.0
N1974 N 0.36072 0.8231 0.29893 0.0
N1975 N 0.38122 0.68551 0.30406 0.0
C1976 C 0.36283 0.78963 0.30614 0.0
C1977 C 0.37371 0.71901 0.30852 0.0
N1978 N 0.41055 0.81543 0.3439 0.0
N1979 N 0.31783 0.69301 0.28857 0.0
H1980 H 0.40346 0.68131 0.31208 0.0
H1981 H 0.36638 0.6623 0.28982 0.0
H1982 H 0.29508 0.69457 0.27933 0.0
H1983 H 0.31871 0.66728 0.29399 0.0
H1984 H 0.40504 0.84104 0.34856 0.0
H1985 H 0.43091 0.81358 0.35815 0.0
H1986 H 0.37939 0.84634 0.30494 0.0
H1987 H 0.34196 0.82702 0.28361 0.0
C1988 C 0.0417 0.67363 0.11335 0.0
C1989 C 0.03123 0.69968 0.0964 0.0
C1990 C 0.02704 0.65821 0.04284 0.0
C1991 C 0.03822 0.63227 0.05952 0.0
N1992 N 0.06523 0.62085 0.10945 0.0
N1993 N 0.02405 0.72137 0.04415 0.0
C1994 C 0.04884 0.64194 0.09427 0.0
C1995 C 0.02716 0.6934 0.06083 0.0
N1996 N 0.04254 0.67753 0.14766 0.0
N1997 N 0.01535 0.649 0.00995 0.0
H1998 H 0.02497 0.74776 0.05657 0.0
H1999 H 0.02412 0.71944 0.01812 0.0
H2000 H 0.01595 0.62422 0.99536 0.0
H2001 H 0.00314 0.66496 0.99782 0.0
H2002 H 0.04614 0.65715 0.16104 0.0
H2003 H 0.03664 0.69955 0.16278 0.0
H2004 H 0.07642 0.62899 0.13365 0.0
H2005 H 0.07048 0.59699 0.09718 0.0
C2006 C 0.09913 0.22542 0.81674 0.0
C2007 C 0.07668 0.24066 0.80009 0.0
C2008 C 0.11689 0.26113 0.76101 0.0
C2009 C 0.14023 0.24923 0.77982 0.0
N2010 N 0.1553 0.22641 0.82953 0.0
N2011 N 0.06494 0.27746 0.75953 0.0
C2012 C 0.13186 0.23296 0.80872 0.0
C2013 C 0.08573 0.25971 0.77301 0.0
N2014 N 0.08902 0.20267 0.8394 0.0
N2015 N 0.12414 0.27256 0.73106 0.0
H2016 H 0.04194 0.27709 0.76775 0.0
H2017 H 0.07142 0.29508 0.74224 0.0
H2018 H 0.1466 0.27353 0.72127 0.0
H2019 H 0.10711 0.27792 0.71447 0.0
H2020 H 0.10355 0.18748 0.84938 0.0
H2021 H 0.06521 0.19627 0.84595 0.0
H2022 H 0.15092 0.21838 0.85283 0.0
H2023 H 0.17975 0.23235 0.82528 0.0
C2024 C 0.53344 0.68621 0.96323 0.0
C2025 C 0.50498 0.68721 0.94416 0.0
C2026 C 0.47905 0.62719 0.95703 0.0
C2027 C 0.50883 0.62373 0.97164 0.0
N2028 N 0.56623 0.64796 0.98329 0.0
N2029 N 0.45365 0.6537 0.91578 0.0
C2030 C 0.53659 0.65278 0.97354 0.0
C2031 C 0.4785 0.65641 0.93918 0.0
N2032 N 0.5571 0.71729 0.9722 0.0
N2033 N 0.45105 0.60286 0.96061 0.0
H2034 H 0.45302 0.67317 0.90025 0.0
H2035 H 0.43555 0.63002 0.90898 0.0
H2036 H 0.45019 0.58161 0.9744 0.0
H2037 H 0.42836 0.60628 0.95307 0.0
H2038 H 0.57693 0.71889 0.98875 0.0
H2039 H 0.55529 0.74239 0.96576 0.0
H2040 H 0.58763 0.6669 0.9816 0.0
H2041 H 0.56983 0.62367 0.99012 0.0
C2042 C 0.09344 0.73525 0.67475 0.0
C2043 C 0.08393 0.76662 0.69119 0.0
C2044 C 0.13127 0.7805 0.73114 0.0
C2045 C 0.14229 0.75121 0.71277 0.0
N2046 N 0.13656 0.70309 0.66528 0.0
N2047 N 0.0959 0.8225 0.73126 0.0
C2048 C 0.12412 0.72918 0.68404 0.0
C2049 C 0.10334 0.79011 0.7185 0.0
N2050 N 0.07267 0.71058 0.65122 0.0
N2051 N 0.14744 0.799 0.7608 0.0
H2052 H 0.07587 0.83082 0.72224 0.0
H2053 H 0.11104 0.8427 0.74862 0.0
H2054 H 0.16838 0.79324 0.77071 0.0
H2055 H 0.13875 0.81804 0.77708 0.0
H2056 H 0.07683 0.68531 0.64109 0.0
H2057 H 0.04999 0.71405 0.64369 0.0
H2058 H 0.12629 0.68901 0.64188 0.0
H2059 H 0.1584 0.69707 0.67227 0.0
C2060 C 0.01096 0.37053 0.47609 0.0
C2061 C 0.02395 0.36689 0.44417 0.0
C2062 C 0.05007 0.43211 0.45596 0.0
C2063 C 0.03054 0.43676 0.4832 0.0
N2064 N 0.98873 0.40967 0.51687 0.0
N2065 N 0.05398 0.39668 0.40202 0.0
C2066 C 0.01014 0.40576 0.49291 0.0
C2067 C 0.04344 0.39822 0.43368 0.0
N2068 N -0.00016 0.34034 0.49057 0.0
N2069 N 0.07527 0.45977 0.45174 0.0
H2070 H 0.04834 0.37341 0.38377 0.0
H2071 H 0.06593 0.41977 0.39276 0.0
H2072 H 0.08139 0.48419 0.46865 0.0
H2073 H 0.09201 0.45681 0.4339 0.0
H2074 H 0.99249 0.34192 0.51502 0.0
H2075 H 0.00171 0.31423 0.47968 0.0
H2076 H 0.97119 0.38777 0.52209 0.0
H2077 H 0.98626 0.43491 0.52924 0.0
C2078 C 0.43734 0.29915 0.24246 0.0
C2079 C 0.44079 0.27226 0.21521 0.0
C2080 C 0.38488 0.23922 0.21821 0.0
C2081 C 0.3809 0.26695 0.24491 0.0
N2082 N 0.4063 0.31598 0.28913 0.0
N2083 N 0.42208 0.21186 0.18413 0.0
C2084 C 0.40816 0.29457 0.25918 0.0
C2085 C 0.41591 0.2406 0.20556 0.0
N2086 N 0.46124 0.33006 0.25125 0.0
N2087 N 0.35892 0.21308 0.20305 0.0
H2088 H 0.44465 0.21252 0.17461 0.0
H2089 H 0.40622 0.18634 0.17863 0.0
H2090 H 0.33554 0.21051 0.21047 0.0
H2091 H 0.35994 0.19538 0.18097 0.0
H2092 H 0.45848 0.35278 0.26787 0.0
H2093 H 0.48338 0.33387 0.24047 0.0
H2094 H 0.42613 0.33432 0.30246 0.0
H2095 H 0.38557 0.31264 0.30242 0.0
C2096 C 0.56704 0.4523 0.35916 0.0
C2097 C 0.59099 0.48349 0.35514 0.0
C2098 C 0.58538 0.5122 0.41241 0.0
C2099 C 0.55769 0.48384 0.41431 0.0
N2100 N 0.53389 0.4198 0.3975 0.0
N2101 N 0.62358 0.54305 0.37718 0.0
C2102 C 0.55191 0.45164 0.38998 0.0
C2103 C 0.60065 0.5132 0.38174 0.0
N2104 N 0.55796 0.42384 0.33309 0.0
N2105 N 0.59877 0.53643 0.44041 0.0
H2106 H 0.63638 0.54371 0.35567 0.0
H2107 H 0.62847 0.56782 0.3936 0.0
H2108 H 0.59023 0.5349 0.46393 0.0
H2109 H 0.62072 0.55525 0.44134 0.0
H2110 H 0.53789 0.40247 0.33285 0.0
H2111 H 0.5694 0.42264 0.31065 0.0
H2112 H 0.53078 0.39458 0.38205 0.0
H2113 H 0.5256 0.41774 0.42131 0.0
C2114 C 0.21801 0.83331 0.11392 0.0
C2115 C 0.2302 0.81198 0.08781 0.0
C2116 C 0.23228 0.7668 0.12475 0.0
C2117 C 0.23016 0.79358 0.15266 0.0
N2118 N 0.22042 0.85316 0.17386 0.0
N2119 N 0.24058 0.75388 0.06519 0.0
C2120 C 0.22207 0.82677 0.14736 0.0
C2121 C 0.23415 0.77686 0.09218 0.0
N2122 N 0.20223 0.85922 0.10685 0.0
N2123 N 0.23203 0.73187 0.12948 0.0
H2124 H 0.23924 0.7599 0.04081 0.0
H2125 H 0.24759 0.72959 0.06687 0.0
H2126 H 0.22951 0.72363 0.15297 0.0
H2127 H 0.23134 0.71036 0.10998 0.0
H2128 H 0.19118 0.87401 0.12492 0.0
H2129 H 0.19597 0.86187 0.08227 0.0
H2130 H 0.21831 0.87933 0.17088 0.0
H2131 H 0.22377 0.85024 0.19891 0.0
C2132 C 0.97279 0.52901 0.87815 0.0
C2133 C 0.97496 0.56592 0.87475 0.0
C2134 C 0.0157 0.58577 0.92231 0.0
C2135 C 0.01061 0.54912 0.92856 0.0
N2136 N 0.98497 0.48523 0.91101 0.0
N2137 N 0.99489 0.62999 0.89572 0.0
C2138 C 0.9891 0.52064 0.90622 0.0
C2139 C 0.99536 0.59446 0.89746 0.0
N2140 N 0.95622 0.50181 0.85364 0.0
N2141 N 0.04047 0.61227 0.9392 0.0
H2142 H 0.98089 0.63745 0.87735 0.0
H2143 H 0.00623 0.65183 0.91411 0.0
H2144 H 0.05545 0.60811 0.95848 0.0
H2145 H 0.04764 0.63812 0.93254 0.0
H2146 H 0.95672 0.47436 0.85215 0.0
H2147 H 0.94367 0.5071 0.83308 0.0
H2148 H 0.96564 0.46434 0.90007 0.0
H2149 H 0.00115 0.47667 0.92594 0.0
C2150 C 0.29786 0.24905 0.60571 0.0
C2151 C 0.28787 0.21159 0.59128 0.0
C2152 C 0.26164 0.19926 0.64334 0.0
C2153 C 0.27575 0.23554 0.65933 0.0
N2154 N 0.31167 0.29373 0.65647 0.0
N2155 N 0.26547 0.14953 0.59966 0.0
C2156 C 0.29515 0.26005 0.64072 0.0
C2157 C 0.27081 0.18629 0.61082 0.0
N2158 N 0.30889 0.27448 0.58573 0.0
N2159 N 0.24003 0.17667 0.65937 0.0
H2160 H 0.27307 0.13831 0.57705 0.0
H2161 H 0.25654 0.1299 0.61447 0.0
H2162 H 0.23375 0.18417 0.68369 0.0
H2163 H 0.22627 0.15151 0.64744 0.0
H2164 H 0.31345 0.30254 0.59411 0.0
H2165 H 0.3101 0.26769 0.55984 0.0
H2166 H 0.32908 0.31086 0.64514 0.0
H2167 H 0.30991 0.30359 0.68169 0.0
C2168 C 0.56131 0.50165 0.16785 0.0
C2169 C 0.58917 0.52692 0.18412 0.0
C2170 C 0.58981 0.56458 0.1397 0.0
C2171 C 0.56123 0.54017 0.12419 0.0
N2172 N 0.51802 0.48688 0.12369 0.0
N2173 N 0.62834 0.5841 0.18848 0.0
C2174 C 0.54641 0.50914 0.13839 0.0
C2175 C 0.60291 0.55898 0.17095 0.0
N2176 N 0.54938 0.47022 0.1804 0.0
N2177 N 0.6048 0.59255 0.12403 0.0
H2178 H 0.63966 0.57999 0.2105 0.0
H2179 H 0.63727 0.60989 0.18238 0.0
H2180 H 0.59508 0.59831 0.10187 0.0
H2181 H 0.6276 0.60892 0.1318 0.0
H2182 H 0.53187 0.44837 0.1677 0.0
H2183 H 0.55805 0.46489 0.20321 0.0
H2184 H 0.5039 0.46637 0.13463 0.0
H2185 H 0.50728 0.4898 0.10094 0.0
C2186 C 0.23256 0.81017 0.909 0.0
C2187 C 0.2645 0.82111 0.92443 0.0
C2188 C 0.28435 0.79242 0.87357 0.0
C2189 C 0.25397 0.78736 0.85622 0.0
N2190 N 0.1989 0.79453 0.85669 0.0
N2191 N 0.32189 0.83123 0.91686 0.0
C2192 C 0.22784 0.79697 0.87371 0.0
C2193 C 0.29075 0.81468 0.90544 0.0
N2194 N 0.20677 0.81095 0.92805 0.0
N2195 N 0.30667 0.77458 0.86036 0.0
H2196 H 0.32789 0.85045 0.93877 0.0
H2197 H 0.34138 0.82923 0.90231 0.0
H2198 H 0.30168 0.75596 0.83799 0.0
H2199 H 0.32838 0.77519 0.87356 0.0
H2200 H 0.18298 0.7999 0.91861 0.0
H2201 H 0.20922 0.81939 0.95401 0.0
H2202 H 0.18025 0.80481 0.86757 0.0
H2203 H 0.19447 0.78525 0.83093 0.0
C2204 C 0.95161 0.50503 0.67836 0.0
C2205 C 0.9393 0.53591 0.69046 0.0
C2206 C 0.94719 0.55726 0.6363 0.0
C2207 C 0.96581 0.53082 0.62754 0.0
N2208 N 0.98747 0.48054 0.64117 0.0
N2209 N 0.90917 0.57794 0.67371 0.0
C2210 C 0.96808 0.50456 0.64852 0.0
C2211 C 0.93239 0.55849 0.66744 0.0
N2212 N 0.9453 0.47497 0.69394 0.0
N2213 N 0.94352 0.58098 0.61486 0.0
H2214 H 0.89391 0.57414 0.69311 0.0
H2215 H 0.90157 0.59352 0.65726 0.0
H2216 H 0.95094 0.5786 0.59045 0.0
H2217 H 0.93414 0.60394 0.62156 0.0
H2218 H 0.95148 0.45049 0.6846 0.0
H2219 H 0.92963 0.47277 0.7132 0.0
H2220 H 0.99266 0.46368 0.65775 0.0
H2221 H 0.00085 0.47975 0.62005 0.0
C2222 C 0.32309 0.22237 0.39057 0.0
C2223 C 0.30337 0.23011 0.41724 0.0
C2224 C 0.28106 0.26984 0.38413 0.0
C2225 C 0.30285 0.2643 0.35891 0.0
N2226 N 0.34974 0.24216 0.34239 0.0
N2227 N 0.26623 0.26454 0.44129 0.0
C2228 C 0.32542 0.24268 0.36348 0.0
C2229 C 0.28293 0.25468 0.41446 0.0
N2230 N 0.33836 0.19416 0.39008 0.0
N2231 N 0.25862 0.28968 0.37911 0.0
H2232 H 0.26716 0.254 0.46365 0.0
H2233 H 0.25341 0.28503 0.44247 0.0
H2234 H 0.25774 0.3028 0.35827 0.0
H2235 H 0.23968 0.29139 0.39441 0.0
H2236 H 0.34995 0.18462 0.36944 0.0
H2237 H 0.33658 0.17763 0.40867 0.0
H2238 H 0.3688 0.2298 0.34643 0.0
H2239 H 0.35277 0.25745 0.32291 0.0
C2240 C 0.3456 0.52874 0.4961 0.0
C2241 C 0.34907 0.56576 0.49165 0.0
C2242 C 0.39947 0.56443 0.46475 0.0
C2243 C 0.39573 0.52727 0.46887 0.0
N2244 N 0.36199 0.4716 0.48016 0.0
N2245 N 0.37429 0.61567 0.46443 0.0
C2246 C 0.36753 0.50862 0.48167 0.0
C2247 C 0.37448 0.58262 0.47365 0.0
N2248 N 0.3228 0.51351 0.51597 0.0
N2249 N 0.42758 0.58314 0.45432 0.0
H2250 H 0.35594 0.62919 0.47032 0.0
H2251 H 0.39035 0.62783 0.44836 0.0
H2252 H 0.44595 0.57082 0.44578 0.0
H2253 H 0.43344 0.61144 0.45573 0.0
H2254 H 0.32154 0.48803 0.52307 0.0
H2255 H 0.30678 0.52749 0.52794 0.0
H2256 H 0.34046 0.4557 0.48625 0.0
H2257 H 0.37784 0.45639 0.4695 0.0
C2258 C 0.87992 0.99016 0.55062 0.0
C2259 C 0.86494 0.96038 0.5254 0.0
C2260 C 0.91456 0.96754 0.49571 0.0
C2261 C 0.92982 0.99741 0.52097 0.0
N2262 N 0.92374 0.04366 0.56652 0.0
N2263 N 0.8651 0.92572 0.47045 0.0
C2264 C 0.91144 0.01066 0.54668 0.0
C2265 C 0.88138 0.95067 0.49683 0.0
N2266 N 0.86438 0.99824 0.57888 0.0
N2267 N 0.93203 0.9541 0.47137 0.0
H2268 H 0.84107 0.91228 0.47092 0.0
H2269 H 0.87443 0.92045 0.44718 0.0
H2270 H 0.95514 0.96767 0.46799 0.0
H2271 H 0.92409 0.9292 0.45543 0.0
H2272 H 0.87546 0.01673 0.59994 0.0
H2273 H 0.84097 0.98451 0.5823 0.0
H2274 H 0.91052 0.05654 0.58371 0.0
H2275 H 0.94606 0.06014 0.56314 0.0
C2276 C 0.80877 0.12876 0.27659 0.0
C2277 C 0.8123 0.10407 0.2475 0.0
C2278 C 0.784 0.13747 0.21317 0.0
C2279 C 0.77806 0.15977 0.24292 0.0
N2280 N 0.77572 0.16746 0.30304 0.0
N2281 N 0.79578 0.07971 0.18913 0.0
C2282 C 0.78727 0.15208 0.27462 0.0
C2283 C 0.79757 0.10674 0.21604 0.0
N2284 N 0.82771 0.13229 0.30557 0.0
N2285 N 0.77865 0.14651 0.18228 0.0
H2286 H 0.80453 0.05635 0.19054 0.0
H2287 H 0.78268 0.07874 0.16654 0.0
H2288 H 0.76893 0.16859 0.17869 0.0
H2289 H 0.78625 0.13363 0.16036 0.0
H2290 H 0.82766 0.15228 0.32631 0.0
H2291 H 0.8464 0.11883 0.3075 0.0
H2292 H 0.77981 0.16051 0.32662 0.0
H2293 H 0.75903 0.18376 0.30214 0.0
C2294 C 0.66326 0.10757 0.00085 0.0
C2295 C 0.68503 0.09129 0.01727 0.0
C2296 C 0.6424 0.06337 0.05025 0.0
C2297 C 0.62084 0.07971 0.03362 0.0
N2298 N 0.61321 0.12758 0.00357 0.0
N2299 N 0.69818 0.0637 0.06461 0.0
C2300 C 0.63226 0.10546 0.01254 0.0
C2301 C 0.67554 0.07228 0.04426 0.0
N2302 N 0.67124 0.12282 0.97278 0.0
N2303 N 0.6312 0.03814 0.07032 0.0
H2304 H 0.72286 0.07072 0.06147 0.0
H2305 H 0.69282 0.05293 0.08655 0.0
H2306 H 0.60746 0.03236 0.07695 0.0
H2307 H 0.64525 0.0218 0.07924 0.0
H2308 H 0.65476 0.13171 0.95816 0.0
H2309 H 0.69315 0.12324 0.96197 0.0
H2310 H 0.62127 0.14894 0.99028 0.0
H2311 H 0.59069 0.12714 0.01301 0.0
C2312 C 0.22309 0.41408 0.22056 0.0
C2313 C 0.22122 0.44268 0.24704 0.0
C2314 C 0.27383 0.43948 0.27211 0.0
C2315 C 0.27328 0.40845 0.24776 0.0
N2316 N 0.25923 0.38265 0.18955 0.0
N2317 N 0.25127 0.49244 0.28845 0.0
C2318 C 0.25205 0.40171 0.2186 0.0
C2319 C 0.2488 0.45869 0.26983 0.0
N2320 N 0.19694 0.39632 0.19915 0.0
N2321 N 0.29786 0.45028 0.29726 0.0
H2322 H 0.23418 0.50793 0.28561 0.0
H2323 H 0.27168 0.5066 0.30381 0.0
H2324 H 0.31847 0.43963 0.29667 0.0
H2325 H 0.29735 0.46968 0.3183 0.0
H2326 H 0.19712 0.37302 0.18187 0.0
H2327 H 0.17422 0.40209 0.20056 0.0
H2328 H 0.24533 0.37877 0.16691 0.0
H2329 H 0.28127 0.37494 0.18764 0.0
C2330 C 0.17308 0.46619 0.07375 0.0
C2331 C 0.1894 0.4519 0.04673 0.0
C2332 C 0.15058 0.46473 0.00641 0.0
C2333 C 0.13696 0.48336 0.03337 0.0
N2334 N 0.13801 0.50628 0.09271 0.0
N2335 N 0.19704 0.44275 0.98721 0.0
C2336 C 0.14883 0.48514 0.06711 0.0
C2337 C 0.17904 0.45243 0.01298 0.0
N2338 N 0.18029 0.46087 0.10568 0.0
N2339 N 0.13556 0.45714 0.97476 0.0
H2340 H 0.21812 0.43362 0.99071 0.0
H2341 H 0.19257 0.44673 0.96263 0.0
H2342 H 0.11412 0.46459 0.96889 0.0
H2343 H 0.14256 0.44018 0.95502 0.0
H2344 H 0.16691 0.46722 0.12592 0.0
H2345 H 0.19778 0.44681 0.11132 0.0
H2346 H 0.14812 0.51156 0.11735 0.0
H2347 H 0.12091 0.52144 0.08888 0.0
C2348 C 0.84247 0.90056 0.23546 0.0
C2349 C 0.82514 0.92289 0.22119 0.0
C2350 C 0.78137 0.8693 0.20379 0.0
C2351 C 0.79416 0.85031 0.22744 0.0
N2352 N 0.83856 0.85342 0.26916 0.0
N2353 N 0.7772 0.92881 0.19156 0.0
C2354 C 0.82544 0.86705 0.2439 0.0
C2355 C 0.79431 0.90733 0.20513 0.0
N2356 N 0.87508 0.91205 0.24218 0.0
N2357 N 0.75794 0.85136 0.17925 0.0
H2358 H 0.787 0.95637 0.19086 0.0
H2359 H 0.75301 0.91955 0.18276 0.0
H2360 H 0.75015 0.82307 0.17414 0.0
H2361 H 0.74974 0.86422 0.16068 0.0
H2362 H 0.88935 0.89543 0.25024 0.0
H2363 H 0.88801 0.93663 0.23615 0.0
H2364 H 0.85947 0.86777 0.28372 0.0
H2365 H 0.82786 0.83012 0.27831 0.0
C2366 C 0.66243 0.13575 0.75626 0.0
C2367 C 0.67678 0.10532 0.75296 0.0
C2368 C 0.7238 0.14042 0.72963 0.0
C2369 C 0.71229 0.17249 0.73938 0.0
N2370 N 0.66953 0.20116 0.75849 0.0
N2371 N 0.71914 0.07636 0.7336 0.0
C2372 C 0.68104 0.17019 0.75133 0.0
C2373 C 0.70667 0.10681 0.73818 0.0
N2374 N 0.63076 0.13124 0.76323 0.0
N2375 N 0.751 0.14215 0.71241 0.0
H2376 H 0.70601 0.05092 0.73736 0.0
H2377 H 0.74256 0.07631 0.72712 0.0
H2378 H 0.76419 0.16634 0.706 0.0
H2379 H 0.75926 0.11937 0.70211 0.0
H2380 H 0.61781 0.15154 0.76358 0.0
H2381 H 0.61643 0.10577 0.76537 0.0
H2382 H 0.64889 0.20245 0.77122 0.0
H2383 H 0.68132 0.22618 0.75241 0.0
loop_
_geom_bond_atom_site_label_1
_geom_bond_atom_site_label_2
_geom_bond_distance
_geom_bond_site_symmetry_2
_ccdc_geom_bond_type
Mg0 O1 2.028 . S
Mg0 O7 1.986 . S
Mg0 O9 2.114 . S
Mg0 O10 2.251 1_455 S
Mg0 O13 2.010 . S
O1 Mg0 2.028 . S
O1 C4 1.250 . S
O2 Mg3 2.028 1_455 S
O2 C4 1.248 . S
Mg3 O2 2.028 1_655 S
Mg3 O8 2.032 . S
Mg3 O10 2.079 . S
C4 O1 1.250 . S
C4 O2 1.248 . S
C5 O6 1.264 . S
C5 O13 1.249 . S
O6 C5 1.264 . S
O7 Mg0 1.986 . S
O7 C11 1.246 . S
O8 Mg3 2.032 . S
O8 C11 1.259 1_655 S
O9 Mg0 2.114 . S
O9 C12 1.252 1_455 S
O10 Mg0 2.251 1_655 S
O10 Mg3 2.079 . S
O10 C12 1.273 . S
C11 O7 1.246 . S
C11 O8 1.259 1_455 S
C12 O9 1.252 1_655 S
C12 O10 1.273 . S
O13 Mg0 2.010 . S
O13 C5 1.249 . S
Mg14 O15 2.028 . S
Mg14 O21 1.986 . S
Mg14 O23 2.114 1_455 S
Mg14 O24 2.251 1_455 S
Mg14 O27 2.010 . S
O15 Mg14 2.028 . S
O15 C18 1.250 1_455 S
O16 Mg17 2.028 . S
O16 C18 1.248 . S
Mg17 O16 2.028 . S
Mg17 O22 2.032 . S
Mg17 O24 2.079 . S
C18 O15 1.250 1_655 S
C18 O16 1.248 . S
C19 O20 1.264 . S
C19 O27 1.249 . S
O20 C19 1.264 . S
O21 Mg14 1.986 . S
O21 C25 1.246 . S
O22 Mg17 2.032 . S
O22 C25 1.259 1_655 S
O23 Mg14 2.114 1_655 S
O23 C26 1.252 . S
O24 Mg14 2.251 1_655 S
O24 Mg17 2.079 . S
O24 C26 1.273 . S
C25 O21 1.246 . S
C25 O22 1.259 1_455 S
C26 O23 1.252 . S
C26 O24 1.273 . S
O27 Mg14 2.010 . S
O27 C19 1.249 . S
Mg28 O29 2.028 . S
Mg28 O35 1.986 . S
Mg28 O37 2.114 . S
Mg28 O38 2.251 . S
Mg28 O41 2.010 . S
O29 Mg28 2.028 . S
O29 C32 1.250 . S
O30 Mg31 2.028 . S
O30 C32 1.248 . S
Mg31 O30 2.028 . S
Mg31 O36 2.032 . S
Mg31 O38 2.079 . S
C32 O29 1.250 . S
C32 O30 1.248 . S
C33 O34 1.264 . S
C33 O41 1.249 . S
O34 C33 1.264 . S
O35 Mg28 1.986 . S
O35 C39 1.246 . S
O36 Mg31 2.032 . S
O36 C39 1.259 . S
O37 Mg28 2.114 . S
O37 C40 1.252 . S
O38 Mg28 2.251 . S
O38 Mg31 2.079 . S
O38 C40 1.273 . S
C39 O35 1.246 . S
C39 O36 1.259 . S
C40 O37 1.252 . S
C40 O38 1.273 . S
O41 Mg28 2.010 . S
O41 C33 1.249 . S
Mg42 O43 2.028 . S
Mg42 O49 1.986 . S
Mg42 O51 2.114 . S
Mg42 O52 2.251 . S
Mg42 O55 2.010 . S
O43 Mg42 2.028 . S
O43 C46 1.250 . S
O44 Mg45 2.028 . S
O44 C46 1.248 . S
Mg45 O44 2.028 . S
Mg45 O50 2.032 . S
Mg45 O52 2.079 . S
C46 O43 1.250 . S
C46 O44 1.248 . S
C47 O48 1.264 . S
C47 O55 1.249 . S
O48 C47 1.264 . S
O49 Mg42 1.986 . S
O49 C53 1.246 . S
O50 Mg45 2.032 . S
O50 C53 1.259 . S
O51 Mg42 2.114 . S
O51 C54 1.252 . S
O52 Mg42 2.251 . S
O52 Mg45 2.079 . S
O52 C54 1.273 . S
C53 O49 1.246 . S
C53 O50 1.259 . S
C54 O51 1.252 . S
C54 O52 1.273 . S
O55 Mg42 2.010 . S
O55 C47 1.249 . S
Mg56 O57 2.028 . S
Mg56 O63 1.986 . S
Mg56 O65 2.114 . S
Mg56 O66 2.251 1_455 S
Mg56 O69 2.010 . S
O57 Mg56 2.028 . S
O57 C60 1.250 . S
O58 Mg59 2.028 . S
O58 C60 1.248 1_655 S
Mg59 O58 2.028 . S
Mg59 O64 2.032 1_655 S
Mg59 O66 2.079 . S
C60 O57 1.250 . S
C60 O58 1.248 1_455 S
C61 O62 1.264 . S
C61 O69 1.249 . S
O62 C61 1.264 . S
O63 Mg56 1.986 . S
O63 C67 1.246 . S
O64 Mg59 2.032 1_455 S
O64 C67 1.259 . S
O65 Mg56 2.114 . S
O65 C68 1.252 1_455 S
O66 Mg56 2.251 1_655 S
O66 Mg59 2.079 . S
O66 C68 1.273 . S
C67 O63 1.246 . S
C67 O64 1.259 . S
C68 O65 1.252 1_655 S
C68 O66 1.273 . S
O69 Mg56 2.010 . S
O69 C61 1.249 . S
Mg70 O71 2.028 . S
Mg70 O77 1.986 . S
Mg70 O79 2.114 . S
Mg70 O80 2.251 . S
Mg70 O83 2.010 . S
O71 Mg70 2.028 . S
O71 C74 1.250 . S
O72 Mg73 2.028 . S
O72 C74 1.248 . S
Mg73 O72 2.028 . S
Mg73 O78 2.032 . S
Mg73 O80 2.079 . S
C74 O71 1.250 . S
C74 O72 1.248 . S
C75 O76 1.264 . S
C75 O83 1.249 . S
O76 C75 1.264 . S
O77 Mg70 1.986 . S
O77 C81 1.246 . S
O78 Mg73 2.032 . S
O78 C81 1.259 . S
O79 Mg70 2.114 . S
O79 C82 1.252 . S
O80 Mg70 2.251 . S
O80 Mg73 2.079 . S
O80 C82 1.273 . S
C81 O77 1.246 . S
C81 O78 1.259 . S
C82 O79 1.252 . S
C82 O80 1.273 . S
O83 Mg70 2.010 . S
O83 C75 1.249 . S
Mg84 O85 2.028 . S
Mg84 O91 1.986 . S
Mg84 O93 2.114 . S
Mg84 O94 2.251 . S
Mg84 O97 2.010 . S
O85 Mg84 2.028 . S
O85 C88 1.250 . S
O86 Mg87 2.028 . S
O86 C88 1.248 . S
Mg87 O86 2.028 . S
Mg87 O92 2.032 . S
Mg87 O94 2.079 . S
C88 O85 1.250 . S
C88 O86 1.248 . S
C89 O90 1.264 . S
C89 O97 1.249 . S
O90 C89 1.264 . S
O91 Mg84 1.986 . S
O91 C95 1.246 . S
O92 Mg87 2.032 . S
O92 C95 1.259 . S
O93 Mg84 2.114 . S
O93 C96 1.252 . S
O94 Mg84 2.251 . S
O94 Mg87 2.079 . S
O94 C96 1.273 . S
C95 O91 1.246 . S
C95 O92 1.259 . S
C96 O93 1.252 . S
C96 O94 1.273 . S
O97 Mg84 2.010 . S
O97 C89 1.249 . S
Mg98 O99 2.026 1_655 S
Mg98 O105 1.978 1_655 S
Mg98 O107 2.132 . S
Mg98 O108 2.283 . S
Mg98 O111 1.982 1_655 S
O99 Mg98 2.026 1_455 S
O99 C102 1.252 1_455 S
O100 Mg101 2.028 . S
O100 C102 1.245 . S
Mg101 O100 2.028 . S
Mg101 O106 2.032 . S
Mg101 O108 2.079 . S
C102 O99 1.252 1_655 S
C102 O100 1.245 . S
C103 O104 1.264 . S
C103 O111 1.249 . S
O104 C103 1.264 . S
O105 Mg98 1.978 1_455 S
O105 C109 1.246 1_455 S
O106 Mg101 2.032 . S
O106 C109 1.259 . S
O107 Mg98 2.132 . S
O107 C110 1.252 . S
O108 Mg98 2.283 . S
O108 Mg101 2.079 . S
O108 C110 1.273 . S
C109 O105 1.246 1_655 S
C109 O106 1.259 . S
C110 O107 1.252 . S
C110 O108 1.273 . S
O111 Mg98 1.982 1_455 S
O111 C103 1.249 . S
Mg112 O113 2.028 1_545 S
Mg112 O119 1.986 . S
Mg112 O121 2.114 . S
Mg112 O122 2.251 . S
Mg112 O125 2.010 . S
O113 Mg112 2.028 1_565 S
O113 C116 1.250 . S
O114 Mg115 2.028 1_565 S
O114 C116 1.248 . S
Mg115 O114 2.028 1_545 S
Mg115 O120 2.032 . S
Mg115 O122 2.079 . S
C116 O113 1.250 . S
C116 O114 1.248 . S
C117 O118 1.264 . S
C117 O125 1.249 . S
O118 C117 1.264 . S
O119 Mg112 1.986 . S
O119 C123 1.246 . S
O120 Mg115 2.032 . S
O120 C123 1.259 . S
O121 Mg112 2.114 . S
O121 C124 1.252 . S
O122 Mg112 2.251 . S
O122 Mg115 2.079 . S
O122 C124 1.273 . S
C123 O119 1.246 . S
C123 O120 1.259 . S
C124 O121 1.252 . S
C124 O122 1.273 . S
O125 Mg112 2.010 . S
O125 C117 1.249 . S
Mg126 O127 2.028 . S
Mg126 O133 1.986 . S
Mg126 O135 2.114 . S
Mg126 O136 2.251 . S
Mg126 O139 2.010 . S
O127 Mg126 2.028 . S
O127 C130 1.250 . S
O128 Mg129 2.028 . S
O128 C130 1.248 . S
Mg129 O128 2.028 . S
Mg129 O134 2.032 . S
Mg129 O136 2.079 . S
C130 O127 1.250 . S
C130 O128 1.248 . S
C131 O132 1.264 . S
C131 O139 1.249 . S
O132 C131 1.264 . S
O133 Mg126 1.986 . S
O133 C137 1.246 . S
O134 Mg129 2.032 . S
O134 C137 1.259 . S
O135 Mg126 2.114 . S
O135 C138 1.252 . S
O136 Mg126 2.251 . S
O136 Mg129 2.079 . S
O136 C138 1.273 . S
C137 O133 1.246 . S
C137 O134 1.259 . S
C138 O135 1.252 . S
C138 O136 1.273 . S
O139 Mg126 2.010 . S
O139 C131 1.249 . S
Mg140 O141 2.028 1_565 S
Mg140 O147 1.986 . S
Mg140 O149 2.114 1_565 S
Mg140 O150 2.251 . S
Mg140 O153 2.010 . S
O141 Mg140 2.028 1_545 S
O141 C144 1.250 . S
O142 Mg143 2.028 . S
O142 C144 1.248 . S
Mg143 O142 2.028 . S
Mg143 O148 2.032 1_545 S
Mg143 O150 2.079 1_545 S
C144 O141 1.250 . S
C144 O142 1.248 . S
C145 O146 1.264 . S
C145 O153 1.249 . S
O146 C145 1.264 . S
O147 Mg140 1.986 . S
O147 C151 1.246 . S
O148 Mg143 2.032 1_565 S
O148 C151 1.259 . S
O149 Mg140 2.114 1_545 S
O149 C152 1.252 . S
O150 Mg140 2.251 . S
O150 Mg143 2.079 1_565 S
O150 C152 1.273 1_565 S
C151 O147 1.246 . S
C151 O148 1.259 . S
C152 O149 1.252 . S
C152 O150 1.273 1_545 S
O153 Mg140 2.010 . S
O153 C145 1.249 . S
Mg154 O155 2.028 1_554 S
Mg154 O161 1.986 . S
Mg154 O163 2.114 . S
Mg154 O164 2.251 . S
Mg154 O167 2.010 . S
O155 Mg154 2.028 1_556 S
O155 C158 1.250 . S
O156 Mg157 2.028 1_556 S
O156 C158 1.248 . S
Mg157 O156 2.028 1_554 S
Mg157 O162 2.032 . S
Mg157 O164 2.079 . S
C158 O155 1.250 . S
C158 O156 1.248 . S
C159 O160 1.264 . S
C159 O167 1.249 . S
O160 C159 1.264 . S
O161 Mg154 1.986 . S
O161 C165 1.246 . S
O162 Mg157 2.032 . S
O162 C165 1.259 . S
O163 Mg154 2.114 . S
O163 C166 1.252 . S
O164 Mg154 2.251 . S
O164 Mg157 2.079 . S
O164 C166 1.273 . S
C165 O161 1.246 . S
C165 O162 1.259 . S
C166 O163 1.252 . S
C166 O164 1.273 . S
O167 Mg154 2.010 . S
O167 C159 1.249 . S
Mg168 O169 2.028 1_554 S
Mg168 O175 1.986 . S
Mg168 O177 2.114 . S
Mg168 O178 2.251 . S
Mg168 O181 2.010 . S
O169 Mg168 2.028 1_556 S
O169 C172 1.250 . S
O170 Mg171 2.028 1_556 S
O170 C172 1.248 . S
Mg171 O170 2.028 1_554 S
Mg171 O176 2.032 . S
Mg171 O178 2.079 . S
C172 O169 1.250 . S
C172 O170 1.248 . S
C173 O174 1.264 . S
C173 O181 1.249 . S
O174 C173 1.264 . S
O175 Mg168 1.986 . S
O175 C179 1.246 . S
O176 Mg171 2.032 . S
O176 C179 1.259 . S
O177 Mg168 2.114 . S
O177 C180 1.252 . S
O178 Mg168 2.251 . S
O178 Mg171 2.079 . S
O178 C180 1.273 . S
C179 O175 1.246 . S
C179 O176 1.259 . S
C180 O177 1.252 . S
C180 O178 1.273 . S
O181 Mg168 2.010 . S
O181 C173 1.249 . S
Mg182 O183 2.028 1_556 S
Mg182 O189 1.986 . S
Mg182 O191 2.114 1_556 S
Mg182 O192 2.251 . S
Mg182 O195 2.010 . S
O183 Mg182 2.028 1_554 S
O183 C186 1.250 . S
O184 Mg185 2.028 . S
O184 C186 1.248 . S
Mg185 O184 2.028 . S
Mg185 O190 2.032 1_554 S
Mg185 O192 2.079 1_554 S
C186 O183 1.250 . S
C186 O184 1.248 . S
C187 O188 1.264 . S
C187 O195 1.249 . S
O188 C187 1.264 . S
O189 Mg182 1.986 . S
O189 C193 1.246 . S
O190 Mg185 2.032 1_556 S
O190 C193 1.259 . S
O191 Mg182 2.114 1_554 S
O191 C194 1.252 . S
O192 Mg182 2.251 . S
O192 Mg185 2.079 1_556 S
O192 C194 1.273 1_556 S
C193 O189 1.246 . S
C193 O190 1.259 . S
C194 O191 1.252 . S
C194 O192 1.273 1_554 S
O195 Mg182 2.010 . S
O195 C187 1.249 . S
Mg196 O197 2.028 . S
Mg196 O203 1.986 . S
Mg196 O205 2.114 . S
Mg196 O206 2.251 . S
Mg196 O209 2.010 . S
O197 Mg196 2.028 . S
O197 C200 1.250 . S
O198 Mg199 2.028 . S
O198 C200 1.248 . S
Mg199 O198 2.028 . S
Mg199 O204 2.032 . S
Mg199 O206 2.079 . S
C200 O197 1.250 . S
C200 O198 1.248 . S
C201 O202 1.264 . S
C201 O209 1.249 . S
O202 C201 1.264 . S
O203 Mg196 1.986 . S
O203 C207 1.246 . S
O204 Mg199 2.032 . S
O204 C207 1.259 . S
O205 Mg196 2.114 . S
O205 C208 1.252 . S
O206 Mg196 2.251 . S
O206 Mg199 2.079 . S
O206 C208 1.273 . S
C207 O203 1.246 . S
C207 O204 1.259 . S
C208 O205 1.252 . S
C208 O206 1.273 . S
O209 Mg196 2.010 . S
O209 C201 1.249 . S
Mg210 O211 2.028 . S
Mg210 O217 1.986 . S
Mg210 O219 2.114 . S
Mg210 O220 2.251 . S
Mg210 O223 2.010 . S
O211 Mg210 2.028 . S
O211 C214 1.250 . S
O212 Mg213 2.028 . S
O212 C214 1.248 . S
Mg213 O212 2.028 . S
Mg213 O218 2.032 . S
Mg213 O220 2.079 . S
C214 O211 1.250 . S
C214 O212 1.248 . S
C215 O216 1.264 . S
C215 O223 1.249 . S
O216 C215 1.264 . S
O217 Mg210 1.986 . S
O217 C221 1.246 . S
O218 Mg213 2.032 . S
O218 C221 1.259 . S
O219 Mg210 2.114 . S
O219 C222 1.252 . S
O220 Mg210 2.251 . S
O220 Mg213 2.079 . S
O220 C222 1.273 . S
C221 O217 1.246 . S
C221 O218 1.259 . S
C222 O219 1.252 . S
C222 O220 1.273 . S
O223 Mg210 2.010 . S
O223 C215 1.249 . S
Mg224 O225 2.028 . S
Mg224 O231 1.986 . S
Mg224 O233 2.114 . S
Mg224 O234 2.251 . S
Mg224 O237 2.010 . S
O225 Mg224 2.028 . S
O225 C228 1.250 1_545 S
O226 Mg227 2.006 1_565 S
O226 C228 1.256 . S
Mg227 O226 2.006 1_545 S
Mg227 O232 2.032 . S
Mg227 O234 2.079 . S
C228 O225 1.250 1_565 S
C228 O226 1.256 . S
C229 O230 1.264 . S
C229 O237 1.249 . S
O230 C229 1.264 . S
O231 Mg224 1.986 . S
O231 C235 1.246 . S
O232 Mg227 2.032 . S
O232 C235 1.259 . S
O233 Mg224 2.114 . S
O233 C236 1.252 . S
O234 Mg224 2.251 . S
O234 Mg227 2.079 . S
O234 C236 1.273 . S
C235 O231 1.246 . S
C235 O232 1.259 . S
C236 O233 1.252 . S
C236 O234 1.273 . S
O237 Mg224 2.010 . S
O237 C229 1.249 . S
Mg238 O239 2.028 . S
Mg238 O245 1.986 . S
Mg238 O247 2.114 . S
Mg238 O248 2.251 . S
Mg238 O251 2.010 . S
O239 Mg238 2.028 . S
O239 C242 1.250 . S
O240 Mg241 2.028 . S
O240 C242 1.248 . S
Mg241 O240 2.028 . S
Mg241 O246 2.032 . S
Mg241 O248 2.079 . S
C242 O239 1.250 . S
C242 O240 1.248 . S
C243 O244 1.264 . S
C243 O251 1.249 . S
O244 C243 1.264 . S
O245 Mg238 1.986 . S
O245 C249 1.246 . S
O246 Mg241 2.032 . S
O246 C249 1.259 . S
O247 Mg238 2.114 . S
O247 C250 1.252 . S
O248 Mg238 2.251 . S
O248 Mg241 2.079 . S
O248 C250 1.273 . S
C249 O245 1.246 . S
C249 O246 1.259 . S
C250 O247 1.252 . S
C250 O248 1.273 . S
O251 Mg238 2.010 . S
O251 C243 1.249 . S
Mg252 O253 2.028 . S
Mg252 O259 1.986 . S
Mg252 O261 2.114 . S
Mg252 O262 2.251 . S
Mg252 O265 2.010 . S
O253 Mg252 2.028 . S
O253 C256 1.250 . S
O254 Mg255 2.028 . S
O254 C256 1.248 . S
Mg255 O254 2.028 . S
Mg255 O260 2.032 . S
Mg255 O262 2.079 . S
C256 O253 1.250 . S
C256 O254 1.248 . S
C257 O258 1.264 . S
C257 O265 1.249 . S
O258 C257 1.264 . S
O259 Mg252 1.986 . S
O259 C263 1.246 . S
O260 Mg255 2.032 . S
O260 C263 1.259 . S
O261 Mg252 2.114 . S
O261 C264 1.252 . S
O262 Mg252 2.251 . S
O262 Mg255 2.079 . S
O262 C264 1.273 . S
C263 O259 1.246 . S
C263 O260 1.259 . S
C264 O261 1.252 . S
C264 O262 1.273 . S
O265 Mg252 2.010 . S
O265 C257 1.249 . S
Mg266 O267 2.028 . S
Mg266 O273 1.986 1_545 S
Mg266 O275 2.114 . S
Mg266 O276 2.251 . S
Mg266 O279 2.010 . S
O267 Mg266 2.028 . S
O267 C270 1.250 . S
O268 Mg269 2.028 . S
O268 C270 1.248 . S
Mg269 O268 2.028 . S
Mg269 O274 2.032 1_545 S
Mg269 O276 2.079 . S
C270 O267 1.250 . S
C270 O268 1.248 . S
C271 O272 1.264 1_545 S
C271 O279 1.249 . S
O272 C271 1.264 1_565 S
O273 Mg266 1.986 1_565 S
O273 C277 1.246 . S
O274 Mg269 2.032 1_565 S
O274 C277 1.259 . S
O275 Mg266 2.114 . S
O275 C278 1.252 . S
O276 Mg266 2.251 . S
O276 Mg269 2.079 . S
O276 C278 1.273 . S
C277 O273 1.246 . S
C277 O274 1.259 . S
C278 O275 1.252 . S
C278 O276 1.273 . S
O279 Mg266 2.010 . S
O279 C271 1.249 . S
Mg280 O281 2.028 1_556 S
Mg280 O287 1.986 . S
Mg280 O289 2.114 1_556 S
Mg280 O290 2.251 1_556 S
Mg280 O293 2.010 . S
O281 Mg280 2.028 1_554 S
O281 C284 1.250 . S
O282 Mg283 2.028 . S
O282 C284 1.248 . S
Mg283 O282 2.028 . S
Mg283 O288 2.032 1_554 S
Mg283 O290 2.080 . S
C284 O281 1.250 . S
C284 O282 1.248 . S
C285 O286 1.264 . S
C285 O293 1.249 . S
O286 C285 1.264 . S
O287 Mg280 1.986 . S
O287 C291 1.246 . S
O288 Mg283 2.032 1_556 S
O288 C291 1.259 . S
O289 Mg280 2.114 1_554 S
O289 C292 1.252 . S
O290 Mg280 2.251 1_554 S
O290 Mg283 2.080 . S
O290 C292 1.279 . S
C291 O287 1.246 . S
C291 O288 1.259 . S
C292 O289 1.252 . S
C292 O290 1.279 . S
O293 Mg280 2.010 . S
O293 C285 1.249 . S
Mg294 O295 2.028 . S
Mg294 O301 1.986 . S
Mg294 O303 2.114 . S
Mg294 O304 2.251 . S
Mg294 O307 2.010 . S
O295 Mg294 2.028 . S
O295 C298 1.250 . S
O296 Mg297 2.028 . S
O296 C298 1.248 . S
Mg297 O296 2.028 . S
Mg297 O302 2.032 . S
Mg297 O304 2.079 . S
C298 O295 1.250 . S
C298 O296 1.248 . S
C299 O300 1.264 . S
C299 O307 1.249 . S
O300 C299 1.264 . S
O301 Mg294 1.986 . S
O301 C305 1.246 . S
O302 Mg297 2.032 . S
O302 C305 1.259 . S
O303 Mg294 2.114 . S
O303 C306 1.252 . S
O304 Mg294 2.251 . S
O304 Mg297 2.079 . S
O304 C306 1.273 . S
C305 O301 1.246 . S
C305 O302 1.259 . S
C306 O303 1.252 . S
C306 O304 1.273 . S
O307 Mg294 2.010 . S
O307 C299 1.249 . S
Mg308 O309 2.028 . S
Mg308 O315 1.986 . S
Mg308 O317 2.114 . S
Mg308 O318 2.251 . S
Mg308 O321 2.010 . S
O309 Mg308 2.028 . S
O309 C312 1.250 . S
O310 Mg311 2.028 . S
O310 C312 1.248 . S
Mg311 O310 2.028 . S
Mg311 O316 2.032 . S
Mg311 O318 2.079 . S
C312 O309 1.250 . S
C312 O310 1.248 . S
C313 O314 1.264 . S
C313 O321 1.249 . S
O314 C313 1.264 . S
O315 Mg308 1.986 . S
O315 C319 1.246 . S
O316 Mg311 2.032 . S
O316 C319 1.259 . S
O317 Mg308 2.114 . S
O317 C320 1.252 . S
O318 Mg308 2.251 . S
O318 Mg311 2.079 . S
O318 C320 1.273 . S
C319 O315 1.246 . S
C319 O316 1.259 . S
C320 O317 1.252 . S
C320 O318 1.273 . S
O321 Mg308 2.010 . S
O321 C313 1.249 . S
Mg322 O323 2.028 . S
Mg322 O329 1.986 . S
Mg322 O331 2.114 . S
Mg322 O332 2.251 . S
Mg322 O335 2.010 . S
O323 Mg322 2.028 . S
O323 C326 1.250 . S
O324 Mg325 2.028 . S
O324 C326 1.248 . S
Mg325 O324 2.028 . S
Mg325 O330 2.032 . S
Mg325 O332 2.079 . S
C326 O323 1.250 . S
C326 O324 1.248 . S
C327 O328 1.264 . S
C327 O335 1.249 . S
O328 C327 1.264 . S
O329 Mg322 1.986 . S
O329 C333 1.246 . S
O330 Mg325 2.032 . S
O330 C333 1.259 . S
O331 Mg322 2.114 . S
O331 C334 1.252 . S
O332 Mg322 2.251 . S
O332 Mg325 2.079 . S
O332 C334 1.273 . S
C333 O329 1.246 . S
C333 O330 1.259 . S
C334 O331 1.252 . S
C334 O332 1.273 . S
O335 Mg322 2.010 . S
O335 C327 1.249 . S
Dy336 O340 2.398 . S
Dy336 O341 2.491 1_556 S
Dy336 O342 2.403 1_545 S
Dy336 O343 2.664 1_655 S
Dy336 O347 2.326 . S
Dy336 O351 2.324 1_556 S
Dy336 O352 2.351 1_546 S
C337 O348 1.185 . S
C337 O349 1.355 1_545 S
C338 O340 1.185 . S
C338 O341 1.355 1_556 S
Dy339 O343 2.310 1_554 S
Dy339 O346 2.351 . S
Dy339 O348 2.398 . S
Dy339 O349 2.491 1_545 S
Dy339 O350 2.403 . S
Dy339 O351 2.629 1_455 S
Dy339 O353 2.326 1_545 S
O340 Dy336 2.398 . S
O340 C338 1.185 . S
O341 Dy336 2.491 1_554 S
O341 C338 1.355 1_554 S
O342 Dy336 2.403 1_565 S
O342 C344 1.254 1_655 S
O343 Dy336 2.664 1_455 S
O343 Dy339 2.310 1_556 S
O343 C344 1.268 1_545 S
C344 O342 1.254 1_455 S
C344 O343 1.268 1_565 S
C345 O350 1.254 . S
C345 O351 1.261 1_455 S
O346 Dy339 2.351 . S
O346 C354 1.249 1_554 S
O347 Dy336 2.326 . S
O347 C354 1.267 1_655 S
O348 C337 1.185 . S
O348 Dy339 2.398 . S
O349 C337 1.355 1_565 S
O349 Dy339 2.491 1_565 S
O350 Dy339 2.403 . S
O350 C345 1.254 . S
O351 Dy336 2.324 1_554 S
O351 Dy339 2.629 1_655 S
O351 C345 1.261 1_655 S
O352 Dy336 2.351 1_564 S
O352 C355 1.249 1_655 S
O353 Dy339 2.326 1_565 S
O353 C355 1.267 . S
C354 O346 1.249 1_556 S
C354 O347 1.267 1_455 S
C355 O352 1.249 1_455 S
C355 O353 1.267 . S
Dy356 O360 2.398 . S
Dy356 O361 2.491 . S
Dy356 O362 2.403 . S
Dy356 O363 2.664 . S
Dy356 O367 2.326 . S
Dy356 O371 2.310 . S
Dy356 O372 2.351 . S
C357 O368 1.185 . S
C357 O369 1.355 . S
C358 O360 1.185 . S
C358 O361 1.355 . S
Dy359 O363 2.310 . S
Dy359 O366 2.351 . S
Dy359 O368 2.398 . S
Dy359 O369 2.491 . S
Dy359 O370 2.403 . S
Dy359 O371 2.664 . S
Dy359 O373 2.326 . S
O360 Dy356 2.398 . S
O360 C358 1.185 . S
O361 Dy356 2.491 . S
O361 C358 1.355 . S
O362 Dy356 2.403 . S
O362 C364 1.254 . S
O363 Dy356 2.664 . S
O363 Dy359 2.310 . S
O363 C364 1.268 . S
C364 O362 1.254 . S
C364 O363 1.268 . S
C365 O370 1.254 . S
C365 O371 1.268 . S
O366 Dy359 2.351 . S
O366 C374 1.249 . S
O367 Dy356 2.326 . S
O367 C374 1.267 . S
O368 C357 1.185 . S
O368 Dy359 2.398 . S
O369 C357 1.355 . S
O369 Dy359 2.491 . S
O370 Dy359 2.403 . S
O370 C365 1.254 . S
O371 Dy356 2.310 . S
O371 Dy359 2.664 . S
O371 C365 1.268 . S
O372 Dy356 2.351 . S
O372 C375 1.249 . S
O373 Dy359 2.326 . S
O373 C375 1.267 . S
C374 O366 1.249 . S
C374 O367 1.267 . S
C375 O372 1.249 . S
C375 O373 1.267 . S
Dy376 O380 2.398 . S
Dy376 O381 2.491 1_545 S
Dy376 O382 2.403 . S
Dy376 O383 2.664 . S
Dy376 O387 2.326 1_545 S
Dy376 O391 2.310 . S
Dy376 O392 2.351 . S
C377 O388 1.185 . S
C377 O389 1.355 . S
C378 O380 1.185 1_565 S
C378 O381 1.355 . S
Dy379 O383 2.310 . S
Dy379 O386 2.351 1_545 S
Dy379 O388 2.398 . S
Dy379 O389 2.491 . S
Dy379 O390 2.403 . S
Dy379 O391 2.664 . S
Dy379 O393 2.326 . S
O380 Dy376 2.398 . S
O380 C378 1.185 1_545 S
O381 Dy376 2.491 1_565 S
O381 C378 1.355 . S
O382 Dy376 2.403 . S
O382 C384 1.254 . S
O383 Dy376 2.664 . S
O383 Dy379 2.310 . S
O383 C384 1.268 . S
C384 O382 1.254 . S
C384 O383 1.268 . S
C385 O390 1.254 . S
C385 O391 1.268 . S
O386 Dy379 2.351 1_565 S
O386 C394 1.249 . S
O387 Dy376 2.326 1_565 S
O387 C394 1.267 . S
O388 C377 1.185 . S
O388 Dy379 2.398 . S
O389 C377 1.355 . S
O389 Dy379 2.491 . S
O390 Dy379 2.403 . S
O390 C385 1.254 . S
O391 Dy376 2.310 . S
O391 Dy379 2.664 . S
O391 C385 1.268 . S
O392 Dy376 2.351 . S
O392 C395 1.249 . S
O393 Dy379 2.326 . S
O393 C395 1.267 . S
C394 O386 1.249 . S
C394 O387 1.267 . S
C395 O392 1.249 . S
C395 O393 1.267 . S
Dy396 O400 2.398 . S
Dy396 O401 2.491 . S
Dy396 O402 2.403 . S
Dy396 O403 2.664 . S
Dy396 O407 2.326 . S
Dy396 O411 2.310 . S
Dy396 O412 2.351 . S
C397 O408 1.185 . S
C397 O409 1.355 . S
C398 O400 1.185 . S
C398 O401 1.355 . S
Dy399 O403 2.310 . S
Dy399 O406 2.351 . S
Dy399 O408 2.398 . S
Dy399 O409 2.491 . S
Dy399 O410 2.403 . S
Dy399 O411 2.664 . S
Dy399 O413 2.326 . S
O400 Dy396 2.398 . S
O400 C398 1.185 . S
O401 Dy396 2.491 . S
O401 C398 1.355 . S
O402 Dy396 2.403 . S
O402 C404 1.254 . S
O403 Dy396 2.664 . S
O403 Dy399 2.310 . S
O403 C404 1.268 . S
C404 O402 1.254 . S
C404 O403 1.268 . S
C405 O410 1.254 . S
C405 O411 1.268 . S
O406 Dy399 2.351 . S
O406 C414 1.249 . S
O407 Dy396 2.326 . S
O407 C414 1.267 . S
O408 C397 1.185 . S
O408 Dy399 2.398 . S
O409 C397 1.355 . S
O409 Dy399 2.491 . S
O410 Dy399 2.403 . S
O410 C405 1.254 . S
O411 Dy396 2.310 . S
O411 Dy399 2.664 . S
O411 C405 1.268 . S
O412 Dy396 2.351 . S
O412 C415 1.249 . S
O413 Dy399 2.326 . S
O413 C415 1.267 . S
C414 O406 1.249 . S
C414 O407 1.267 . S
C415 O412 1.249 . S
C415 O413 1.267 . S
Dy416 O420 2.398 1_565 S
Dy416 O421 2.491 1_465 S
Dy416 O422 2.403 1_565 S
Dy416 O423 2.664 1_565 S
Dy416 O427 2.326 1_565 S
Dy416 O431 2.310 1_465 S
Dy416 O432 2.351 . S
C417 O428 1.185 . S
C417 O429 1.355 . S
C418 O420 1.185 1_655 S
C418 O421 1.355 . S
Dy419 O423 2.310 . S
Dy419 O426 2.351 . S
Dy419 O428 2.398 . S
Dy419 O429 2.491 . S
Dy419 O430 2.403 1_455 S
Dy419 O431 2.664 1_455 S
Dy419 O433 2.326 1_545 S
O420 Dy416 2.398 1_545 S
O420 C418 1.185 1_455 S
O421 Dy416 2.491 1_645 S
O421 C418 1.355 . S
O422 Dy416 2.403 1_545 S
O422 C424 1.254 . S
O423 Dy416 2.664 1_545 S
O423 Dy419 2.310 . S
O423 C424 1.268 . S
C424 O422 1.254 . S
C424 O423 1.268 . S
C425 O430 1.254 . S
C425 O431 1.268 . S
O426 Dy419 2.351 . S
O426 C434 1.249 . S
O427 Dy416 2.326 1_545 S
O427 C434 1.267 . S
O428 C417 1.185 . S
O428 Dy419 2.398 . S
O429 C417 1.355 . S
O429 Dy419 2.491 . S
O430 Dy419 2.403 1_655 S
O430 C425 1.254 . S
O431 Dy416 2.310 1_645 S
O431 Dy419 2.664 1_655 S
O431 C425 1.268 . S
O432 Dy416 2.351 . S
O432 C435 1.249 . S
O433 Dy419 2.326 1_565 S
O433 C435 1.267 . S
C434 O426 1.249 . S
C434 O427 1.267 . S
C435 O432 1.249 . S
C435 O433 1.267 . S
Dy436 O440 2.398 . S
Dy436 O441 2.491 . S
Dy436 O442 2.403 . S
Dy436 O443 2.664 . S
Dy436 O447 2.326 . S
Dy436 O451 2.310 . S
Dy436 O452 2.351 . S
C437 O448 1.185 . S
C437 O449 1.355 . S
C438 O440 1.185 . S
C438 O441 1.355 . S
Dy439 O443 2.310 . S
Dy439 O446 2.351 . S
Dy439 O448 2.398 . S
Dy439 O449 2.491 . S
Dy439 O450 2.403 . S
Dy439 O451 2.664 . S
Dy439 O453 2.326 . S
O440 Dy436 2.398 . S
O440 C438 1.185 . S
O441 Dy436 2.491 . S
O441 C438 1.355 . S
O442 Dy436 2.403 . S
O442 C444 1.254 . S
O443 Dy436 2.664 . S
O443 Dy439 2.310 . S
O443 C444 1.268 . S
C444 O442 1.254 . S
C444 O443 1.268 . S
C445 O450 1.254 . S
C445 O451 1.268 . S
O446 Dy439 2.351 . S
O446 C454 1.249 . S
O447 Dy436 2.326 . S
O447 C454 1.267 . S
O448 C437 1.185 . S
O448 Dy439 2.398 . S
O449 C437 1.355 . S
O449 Dy439 2.491 . S
O450 Dy439 2.403 . S
O450 C445 1.254 . S
O451 Dy436 2.310 . S
O451 Dy439 2.664 . S
O451 C445 1.268 . S
O452 Dy436 2.351 . S
O452 C455 1.249 . S
O453 Dy439 2.326 . S
O453 C455 1.267 . S
C454 O446 1.249 . S
C454 O447 1.267 . S
C455 O452 1.249 . S
C455 O453 1.267 . S
Dy456 O460 2.398 1_545 S
Dy456 O461 2.491 . S
Dy456 O462 2.403 1_545 S
Dy456 O463 2.664 1_544 S
Dy456 O467 2.326 1_545 S
Dy456 O471 2.310 . S
Dy456 O472 2.351 . S
C457 O468 1.185 . S
C457 O469 1.355 . S
C458 O460 1.185 . S
C458 O461 1.355 1_565 S
Dy459 O463 2.310 1_545 S
Dy459 O466 2.351 . S
Dy459 O468 2.398 . S
Dy459 O469 2.491 . S
Dy459 O470 2.403 . S
Dy459 O471 2.664 1_556 S
Dy459 O473 2.326 . S
O460 Dy456 2.398 1_565 S
O460 C458 1.185 . S
O461 Dy456 2.491 . S
O461 C458 1.355 1_545 S
O462 Dy456 2.403 1_565 S
O462 C464 1.254 1_554 S
O463 Dy456 2.664 1_566 S
O463 Dy459 2.310 1_565 S
O463 C464 1.268 . S
C464 O462 1.254 1_556 S
C464 O463 1.268 . S
C465 O470 1.254 1_554 S
C465 O471 1.268 . S
O466 Dy459 2.351 . S
O466 C474 1.249 1_546 S
O467 Dy456 2.326 1_565 S
O467 C474 1.267 . S
O468 C457 1.185 . S
O468 Dy459 2.398 . S
O469 C457 1.355 . S
O469 Dy459 2.491 . S
O470 Dy459 2.403 . S
O470 C465 1.254 1_556 S
O471 Dy456 2.310 . S
O471 Dy459 2.664 1_554 S
O471 C465 1.268 . S
O472 Dy456 2.351 . S
O472 C475 1.249 . S
O473 Dy459 2.326 . S
O473 C475 1.267 1_556 S
C474 O466 1.249 1_564 S
C474 O467 1.267 . S
C475 O472 1.249 . S
C475 O473 1.267 1_554 S
Dy476 O480 2.398 . S
Dy476 O481 2.491 . S
Dy476 O482 2.403 . S
Dy476 O483 2.664 . S
Dy476 O487 2.326 . S
Dy476 O491 2.310 . S
Dy476 O492 2.351 . S
C477 O488 1.185 . S
C477 O489 1.355 . S
C478 O480 1.185 . S
C478 O481 1.355 . S
Dy479 O483 2.310 . S
Dy479 O486 2.351 . S
Dy479 O488 2.398 . S
Dy479 O489 2.491 . S
Dy479 O490 2.403 . S
Dy479 O491 2.664 . S
Dy479 O493 2.326 . S
O480 Dy476 2.398 . S
O480 C478 1.185 . S
O481 Dy476 2.491 . S
O481 C478 1.355 . S
O482 Dy476 2.403 . S
O482 C484 1.254 . S
O483 Dy476 2.664 . S
O483 Dy479 2.310 . S
O483 C484 1.268 . S
C484 O482 1.254 . S
C484 O483 1.268 . S
C485 O490 1.254 . S
C485 O491 1.268 . S
O486 Dy479 2.351 . S
O486 C494 1.249 . S
O487 Dy476 2.326 . S
O487 C494 1.267 . S
O488 C477 1.185 . S
O488 Dy479 2.398 . S
O489 C477 1.355 . S
O489 Dy479 2.491 . S
O490 Dy479 2.403 . S
O490 C485 1.254 . S
O491 Dy476 2.310 . S
O491 Dy479 2.664 . S
O491 C485 1.268 . S
O492 Dy476 2.351 . S
O492 C495 1.249 . S
O493 Dy479 2.326 . S
O493 C495 1.267 . S
C494 O486 1.249 . S
C494 O487 1.267 . S
C495 O492 1.249 . S
C495 O493 1.267 . S
Dy496 O500 2.398 . S
Dy496 O501 2.491 . S
Dy496 O502 2.403 . S
Dy496 O503 2.664 1_556 S
Dy496 O507 2.326 . S
Dy496 O511 2.310 1_556 S
Dy496 O512 2.351 . S
C497 O508 1.185 . S
C497 O509 1.355 . S
C498 O500 1.185 . S
C498 O501 1.355 . S
Dy499 O503 2.310 . S
Dy499 O506 2.351 . S
Dy499 O508 2.398 . S
Dy499 O509 2.491 . S
Dy499 O510 2.403 . S
Dy499 O511 2.664 . S
Dy499 O513 2.326 . S
O500 Dy496 2.398 . S
O500 C498 1.185 . S
O501 Dy496 2.491 . S
O501 C498 1.355 . S
O502 Dy496 2.403 . S
O502 C504 1.254 . S
O503 Dy496 2.664 1_554 S
O503 Dy499 2.310 . S
O503 C504 1.268 1_554 S
C504 O502 1.254 . S
C504 O503 1.268 1_556 S
C505 O510 1.254 . S
C505 O511 1.268 . S
O506 Dy499 2.351 . S
O506 C514 1.249 1_554 S
O507 Dy496 2.326 . S
O507 C514 1.267 . S
O508 C497 1.185 . S
O508 Dy499 2.398 . S
O509 C497 1.355 . S
O509 Dy499 2.491 . S
O510 Dy499 2.403 . S
O510 C505 1.254 . S
O511 Dy496 2.310 1_554 S
O511 Dy499 2.664 . S
O511 C505 1.268 . S
O512 Dy496 2.351 . S
O512 C515 1.249 1_556 S
O513 Dy499 2.326 . S
O513 C515 1.267 . S
C514 O506 1.249 1_556 S
C514 O507 1.267 . S
C515 O512 1.249 1_554 S
C515 O513 1.267 . S
Dy516 O520 2.398 . S
Dy516 O521 2.491 . S
Dy516 O522 2.403 . S
Dy516 O523 2.664 . S
Dy516 O527 2.326 . S
Dy516 O531 2.310 . S
Dy516 O532 2.351 . S
C517 O528 1.185 . S
C517 O529 1.355 . S
C518 O520 1.185 . S
C518 O521 1.355 . S
Dy519 O523 2.310 . S
Dy519 O526 2.351 . S
Dy519 O528 2.398 . S
Dy519 O529 2.491 . S
Dy519 O530 2.403 . S
Dy519 O531 2.664 . S
Dy519 O533 2.326 . S
O520 Dy516 2.398 . S
O520 C518 1.185 . S
O521 Dy516 2.491 . S
O521 C518 1.355 . S
O522 Dy516 2.403 . S
O522 C524 1.254 . S
O523 Dy516 2.664 . S
O523 Dy519 2.310 . S
O523 C524 1.268 . S
C524 O522 1.254 . S
C524 O523 1.268 . S
C525 O530 1.254 . S
C525 O531 1.268 . S
O526 Dy519 2.351 . S
O526 C534 1.249 . S
O527 Dy516 2.326 . S
O527 C534 1.267 . S
O528 C517 1.185 . S
O528 Dy519 2.398 . S
O529 C517 1.355 . S
O529 Dy519 2.491 . S
O530 Dy519 2.403 . S
O530 C525 1.254 . S
O531 Dy516 2.310 . S
O531 Dy519 2.664 . S
O531 C525 1.268 . S
O532 Dy516 2.351 . S
O532 C535 1.249 . S
O533 Dy519 2.326 . S
O533 C535 1.267 . S
C534 O526 1.249 . S
C534 O527 1.267 . S
C535 O532 1.249 . S
C535 O533 1.267 . S
Dy536 O540 2.398 1_455 S
Dy536 O541 2.491 1_455 S
Dy536 O542 2.403 . S
Dy536 O543 2.664 . S
Dy536 O547 2.326 1_455 S
Dy536 O551 2.310 . S
Dy536 O552 2.351 . S
C537 O548 1.185 . S
C537 O549 1.355 . S
C538 O540 1.185 . S
C538 O541 1.355 . S
Dy539 O543 2.310 . S
Dy539 O546 2.351 1_455 S
Dy539 O548 2.398 . S
Dy539 O549 2.491 . S
Dy539 O550 2.403 . S
Dy539 O551 2.664 . S
Dy539 O553 2.326 . S
O540 Dy536 2.398 1_655 S
O540 C538 1.185 . S
O541 Dy536 2.491 1_655 S
O541 C538 1.355 . S
O542 Dy536 2.403 . S
O542 C544 1.254 . S
O543 Dy536 2.664 . S
O543 Dy539 2.310 . S
O543 C544 1.268 . S
C544 O542 1.254 . S
C544 O543 1.268 . S
C545 O550 1.254 . S
C545 O551 1.268 . S
O546 Dy539 2.351 1_655 S
O546 C554 1.249 . S
O547 Dy536 2.326 1_655 S
O547 C554 1.267 . S
O548 C537 1.185 . S
O548 Dy539 2.398 . S
O549 C537 1.355 . S
O549 Dy539 2.491 . S
O550 Dy539 2.403 . S
O550 C545 1.254 . S
O551 Dy536 2.310 . S
O551 Dy539 2.664 . S
O551 C545 1.268 . S
O552 Dy536 2.351 . S
O552 C555 1.249 . S
O553 Dy539 2.326 . S
O553 C555 1.267 . S
C554 O546 1.249 . S
C554 O547 1.267 . S
C555 O552 1.249 . S
C555 O553 1.267 . S
Dy556 O560 2.398 . S
Dy556 O561 2.491 . S
Dy556 O562 2.403 . S
Dy556 O563 2.664 . S
Dy556 O567 2.326 . S
Dy556 O571 2.310 . S
Dy556 O572 2.351 . S
C557 O568 1.185 . S
C557 O569 1.355 . S
C558 O560 1.185 . S
C558 O561 1.355 . S
Dy559 O563 2.310 . S
Dy559 O566 2.351 . S
Dy559 O568 2.398 . S
Dy559 O569 2.491 . S
Dy559 O570 2.403 . S
Dy559 O571 2.664 . S
Dy559 O573 2.326 . S
O560 Dy556 2.398 . S
O560 C558 1.185 . S
O561 Dy556 2.491 . S
O561 C558 1.355 . S
O562 Dy556 2.403 . S
O562 C564 1.254 . S
O563 Dy556 2.664 . S
O563 Dy559 2.310 . S
O563 C564 1.268 . S
C564 O562 1.254 . S
C564 O563 1.268 . S
C565 O570 1.254 . S
C565 O571 1.268 . S
O566 Dy559 2.351 . S
O566 C574 1.249 . S
O567 Dy556 2.326 . S
O567 C574 1.267 . S
O568 C557 1.185 . S
O568 Dy559 2.398 . S
O569 C557 1.355 . S
O569 Dy559 2.491 . S
O570 Dy559 2.403 . S
O570 C565 1.254 . S
O571 Dy556 2.310 . S
O571 Dy559 2.664 . S
O571 C565 1.268 . S
O572 Dy556 2.351 . S
O572 C575 1.249 . S
O573 Dy559 2.326 . S
O573 C575 1.267 . S
C574 O566 1.249 . S
C574 O567 1.267 . S
C575 O572 1.249 . S
C575 O573 1.267 . S
Dy576 O580 2.398 . S
Dy576 O581 2.491 . S
Dy576 O582 2.403 . S
Dy576 O583 2.664 . S
Dy576 O587 2.326 . S
Dy576 O591 2.310 . S
Dy576 O592 2.351 . S
C577 O588 1.185 . S
C577 O589 1.355 . S
C578 O580 1.185 . S
C578 O581 1.355 . S
Dy579 O583 2.310 . S
Dy579 O586 2.351 . S
Dy579 O588 2.398 . S
Dy579 O589 2.491 . S
Dy579 O590 2.403 . S
Dy579 O591 2.664 . S
Dy579 O593 2.326 . S
O580 Dy576 2.398 . S
O580 C578 1.185 . S
O581 Dy576 2.491 . S
O581 C578 1.355 . S
O582 Dy576 2.403 . S
O582 C584 1.254 . S
O583 Dy576 2.664 . S
O583 Dy579 2.310 . S
O583 C584 1.268 . S
C584 O582 1.254 . S
C584 O583 1.268 . S
C585 O590 1.254 . S
C585 O591 1.268 . S
O586 Dy579 2.351 . S
O586 C594 1.249 . S
O587 Dy576 2.326 . S
O587 C594 1.267 . S
O588 C577 1.185 . S
O588 Dy579 2.398 . S
O589 C577 1.355 . S
O589 Dy579 2.491 . S
O590 Dy579 2.403 . S
O590 C585 1.254 . S
O591 Dy576 2.310 . S
O591 Dy579 2.664 . S
O591 C585 1.268 . S
O592 Dy576 2.351 . S
O592 C595 1.249 . S
O593 Dy579 2.326 . S
O593 C595 1.267 . S
C594 O586 1.249 . S
C594 O587 1.267 . S
C595 O592 1.249 . S
C595 O593 1.267 . S
Dy596 O600 2.398 . S
Dy596 O601 2.491 . S
Dy596 O602 2.403 . S
Dy596 O603 2.664 . S
Dy596 O607 2.326 . S
Dy596 O611 2.310 . S
Dy596 O612 2.351 . S
C597 O608 1.185 . S
C597 O609 1.355 . S
C598 O600 1.185 . S
C598 O601 1.355 . S
Dy599 O603 2.310 . S
Dy599 O606 2.351 . S
Dy599 O608 2.398 . S
Dy599 O609 2.491 . S
Dy599 O610 2.403 . S
Dy599 O611 2.664 . S
Dy599 O613 2.326 . S
O600 Dy596 2.398 . S
O600 C598 1.185 . S
O601 Dy596 2.491 . S
O601 C598 1.355 . S
O602 Dy596 2.403 . S
O602 C604 1.254 . S
O603 Dy596 2.664 . S
O603 Dy599 2.310 . S
O603 C604 1.268 . S
C604 O602 1.254 . S
C604 O603 1.268 . S
C605 O610 1.254 . S
C605 O611 1.268 . S
O606 Dy599 2.351 . S
O606 C614 1.249 . S
O607 Dy596 2.326 . S
O607 C614 1.267 . S
O608 C597 1.185 . S
O608 Dy599 2.398 . S
O609 C597 1.355 . S
O609 Dy599 2.491 . S
O610 Dy599 2.403 . S
O610 C605 1.254 . S
O611 Dy596 2.310 . S
O611 Dy599 2.664 . S
O611 C605 1.268 . S
O612 Dy596 2.351 . S
O612 C615 1.249 . S
O613 Dy599 2.326 . S
O613 C615 1.267 . S
C614 O606 1.249 . S
C614 O607 1.267 . S
C615 O612 1.249 . S
C615 O613 1.267 . S
Dy616 O620 2.398 . S
Dy616 O621 2.491 . S
Dy616 O622 2.403 . S
Dy616 O623 2.664 . S
Dy616 O627 2.326 . S
Dy616 O631 2.310 . S
Dy616 O632 2.351 . S
C617 O628 1.185 . S
C617 O629 1.355 . S
C618 O620 1.185 . S
C618 O621 1.355 . S
Dy619 O623 2.310 . S
Dy619 O626 2.351 . S
Dy619 O628 2.398 . S
Dy619 O629 2.491 . S
Dy619 O630 2.403 . S
Dy619 O631 2.664 . S
Dy619 O633 2.326 . S
O620 Dy616 2.398 . S
O620 C618 1.185 . S
O621 Dy616 2.491 . S
O621 C618 1.355 . S
O622 Dy616 2.403 . S
O622 C624 1.254 . S
O623 Dy616 2.664 . S
O623 Dy619 2.310 . S
O623 C624 1.268 . S
C624 O622 1.254 . S
C624 O623 1.268 . S
C625 O630 1.254 . S
C625 O631 1.268 . S
O626 Dy619 2.351 . S
O626 C634 1.249 . S
O627 Dy616 2.326 . S
O627 C634 1.267 . S
O628 C617 1.185 . S
O628 Dy619 2.398 . S
O629 C617 1.355 . S
O629 Dy619 2.491 . S
O630 Dy619 2.403 . S
O630 C625 1.254 . S
O631 Dy616 2.310 . S
O631 Dy619 2.664 . S
O631 C625 1.268 . S
O632 Dy616 2.351 . S
O632 C635 1.249 . S
O633 Dy619 2.326 . S
O633 C635 1.267 . S
C634 O626 1.249 . S
C634 O627 1.267 . S
C635 O632 1.249 . S
C635 O633 1.267 . S
Dy636 O640 2.398 . S
Dy636 O641 2.491 1_556 S
Dy636 O642 2.403 . S
Dy636 O643 2.671 . S
Dy636 O647 2.326 . S
Dy636 O651 2.310 1_556 S
Dy636 O652 2.351 1_556 S
C637 O648 1.185 . S
C637 O649 1.355 . S
C638 O640 1.185 . S
C638 O641 1.355 1_556 S
Dy639 O643 2.306 1_654 S
Dy639 O646 2.357 . S
Dy639 O648 2.398 . S
Dy639 O649 2.491 . S
Dy639 O650 2.403 . S
Dy639 O651 2.664 1_655 S
Dy639 O653 2.327 1_655 S
O640 Dy636 2.398 . S
O640 C638 1.185 . S
O641 Dy636 2.491 1_554 S
O641 C638 1.355 1_554 S
O642 Dy636 2.403 . S
O642 C644 1.254 . S
O643 Dy636 2.671 . S
O643 Dy639 2.306 1_456 S
O643 C644 1.270 . S
C644 O642 1.254 . S
C644 O643 1.270 . S
C645 O650 1.254 1_455 S
C645 O651 1.268 . S
O646 Dy639 2.357 . S
O646 C654 1.239 1_654 S
O647 Dy636 2.326 . S
O647 C654 1.267 . S
O648 C637 1.185 . S
O648 Dy639 2.398 . S
O649 C637 1.355 . S
O649 Dy639 2.491 . S
O650 Dy639 2.403 . S
O650 C645 1.254 1_655 S
O651 Dy636 2.310 1_554 S
O651 Dy639 2.664 1_455 S
O651 C645 1.268 . S
O652 Dy636 2.351 1_554 S
O652 C655 1.249 . S
O653 Dy639 2.327 1_455 S
O653 C655 1.266 . S
C654 O646 1.239 1_456 S
C654 O647 1.267 . S
C655 O652 1.249 . S
C655 O653 1.266 . S
C656 C657 1.363 1_455 S
C656 C662 1.379 . S
C656 N664 1.356 . S
C657 C656 1.363 1_655 S
C657 C663 1.363 . S
C658 C659 1.363 1_655 S
C658 C663 1.379 . S
C658 N665 1.356 . S
C659 C658 1.363 1_455 S
C659 C662 1.363 . S
N660 C662 1.356 1_554 S
N660 H672 0.984 . S
N660 H673 0.985 . S
N661 C663 1.356 . S
N661 H666 0.984 . S
N661 H667 0.985 . S
C662 C656 1.379 . S
C662 C659 1.363 . S
C662 N660 1.356 1_556 S
C663 C657 1.363 . S
C663 C658 1.379 . S
C663 N661 1.356 . S
N664 C656 1.356 . S
N664 H670 0.984 . S
N664 H671 0.984 . S
N665 C658 1.356 . S
N665 H668 0.984 . S
N665 H669 0.985 . S
H666 N661 0.984 . S
H667 N661 0.985 . S
H668 N665 0.984 . S
H669 N665 0.985 . S
H670 N664 0.984 . S
H671 N664 0.984 . S
H672 N660 0.984 . S
H673 N660 0.985 . S
C674 C675 1.363 . S
C674 C680 1.379 . S
C674 N682 1.356 . S
C675 C674 1.363 . S
C675 C681 1.363 . S
C676 C677 1.363 . S
C676 C681 1.379 . S
C676 N683 1.356 . S
C677 C676 1.363 . S
C677 C680 1.363 . S
N678 C680 1.356 . S
N678 H690 0.984 . S
N678 H691 0.985 . S
N679 C681 1.356 . S
N679 H684 0.984 . S
N679 H685 0.985 . S
C680 C674 1.379 . S
C680 C677 1.363 . S
C680 N678 1.356 . S
C681 C675 1.363 . S
C681 C676 1.379 . S
C681 N679 1.356 . S
N682 C674 1.356 . S
N682 H688 0.984 . S
N682 H689 0.984 . S
N683 C676 1.356 . S
N683 H686 0.984 . S
N683 H687 0.985 . S
H684 N679 0.984 . S
H685 N679 0.985 . S
H686 N683 0.984 . S
H687 N683 0.985 . S
H688 N682 0.984 . S
H689 N682 0.984 . S
H690 N678 0.984 . S
H691 N678 0.985 . S
C692 C693 1.363 . S
C692 C698 1.379 . S
C692 N700 1.356 . S
C693 C692 1.363 . S
C693 C699 1.363 . S
C694 C695 1.363 . S
C694 C699 1.379 . S
C694 N701 1.356 . S
C695 C694 1.363 . S
C695 C698 1.363 . S
N696 C698 1.356 . S
N696 H708 0.984 . S
N696 H709 0.985 . S
N697 C699 1.356 . S
N697 H702 0.984 . S
N697 H703 0.985 . S
C698 C692 1.379 . S
C698 C695 1.363 . S
C698 N696 1.356 . S
C699 C693 1.363 . S
C699 C694 1.379 . S
C699 N697 1.356 . S
N700 C692 1.356 . S
N700 H706 0.984 . S
N700 H707 0.984 . S
N701 C694 1.356 . S
N701 H704 0.984 . S
N701 H705 0.985 . S
H702 N697 0.984 . S
H703 N697 0.985 . S
H704 N701 0.984 . S
H705 N701 0.985 . S
H706 N700 0.984 . S
H707 N700 0.984 . S
H708 N696 0.984 . S
H709 N696 0.985 . S
C710 C711 1.363 . S
C710 C716 1.379 . S
C710 N718 1.356 . S
C711 C710 1.363 . S
C711 C717 1.363 . S
C712 C713 1.363 . S
C712 C717 1.379 . S
C712 N719 1.356 . S
C713 C712 1.363 . S
C713 C716 1.363 . S
N714 C716 1.356 . S
N714 H726 0.984 . S
N714 H727 0.985 . S
N715 C717 1.356 . S
N715 H720 0.984 . S
N715 H721 0.985 . S
C716 C710 1.379 . S
C716 C713 1.363 . S
C716 N714 1.356 . S
C717 C711 1.363 . S
C717 C712 1.379 . S
C717 N715 1.356 . S
N718 C710 1.356 . S
N718 H724 0.984 . S
N718 H725 0.984 . S
N719 C712 1.356 . S
N719 H722 0.984 . S
N719 H723 0.985 . S
H720 N715 0.984 . S
H721 N715 0.985 . S
H722 N719 0.984 . S
H723 N719 0.985 . S
H724 N718 0.984 . S
H725 N718 0.984 . S
H726 N714 0.984 . S
H727 N714 0.985 . S
C728 C729 1.363 . S
C728 C734 1.379 . S
C728 N736 1.356 . S
C729 C728 1.363 . S
C729 C735 1.363 . S
C730 C731 1.363 . S
C730 C735 1.379 . S
C730 N737 1.356 . S
C731 C730 1.363 . S
C731 C734 1.363 . S
N732 C734 1.356 . S
N732 H744 0.984 . S
N732 H745 0.985 . S
N733 C735 1.356 1_655 S
N733 H738 0.984 . S
N733 H739 0.985 . S
C734 C728 1.379 . S
C734 C731 1.363 . S
C734 N732 1.356 . S
C735 C729 1.363 . S
C735 C730 1.379 . S
C735 N733 1.356 1_455 S
N736 C728 1.356 . S
N736 H742 0.984 . S
N736 H743 0.984 . S
N737 C730 1.356 . S
N737 H740 0.984 . S
N737 H741 0.986 . S
H738 N733 0.984 . S
H739 N733 0.985 . S
H740 N737 0.984 . S
H741 N737 0.986 . S
H742 N736 0.984 . S
H743 N736 0.984 . S
H744 N732 0.984 . S
H745 N732 0.985 . S
C746 C747 1.363 . S
C746 C752 1.379 . S
C746 N754 1.356 . S
C747 C746 1.363 . S
C747 C753 1.363 . S
C748 C749 1.363 . S
C748 C753 1.379 . S
C748 N755 1.356 . S
C749 C748 1.363 . S
C749 C752 1.363 . S
N750 C752 1.356 . S
N750 H762 0.984 . S
N750 H763 0.985 . S
N751 C753 1.356 . S
N751 H756 0.984 . S
N751 H757 0.985 . S
C752 C746 1.379 . S
C752 C749 1.363 . S
C752 N750 1.356 . S
C753 C747 1.363 . S
C753 C748 1.379 . S
C753 N751 1.356 . S
N754 C746 1.356 . S
N754 H760 0.984 . S
N754 H761 0.984 . S
N755 C748 1.356 . S
N755 H758 0.984 . S
N755 H759 0.985 . S
H756 N751 0.984 . S
H757 N751 0.985 . S
H758 N755 0.984 . S
H759 N755 0.985 . S
H760 N754 0.984 . S
H761 N754 0.984 . S
H762 N750 0.984 . S
H763 N750 0.985 . S
C764 C765 1.363 . S
C764 C770 1.379 . S
C764 N772 1.356 . S
C765 C764 1.363 . S
C765 C771 1.363 . S
C766 C767 1.363 . S
C766 C771 1.379 . S
C766 N773 1.356 . S
C767 C766 1.363 . S
C767 C770 1.363 . S
N768 C770 1.356 . S
N768 H780 0.984 1_554 S
N768 H781 0.982 1_554 S
N769 C771 1.356 . S
N769 H774 0.984 . S
N769 H775 0.985 . S
C770 C764 1.379 . S
C770 C767 1.363 . S
C770 N768 1.356 . S
C771 C765 1.363 . S
C771 C766 1.379 . S
C771 N769 1.356 . S
N772 C764 1.356 . S
N772 H778 0.984 . S
N772 H779 0.984 . S
N773 C766 1.356 . S
N773 H776 0.984 . S
N773 H777 0.985 . S
H774 N769 0.984 . S
H775 N769 0.985 . S
H776 N773 0.984 . S
H777 N773 0.985 . S
H778 N772 0.984 . S
H779 N772 0.984 . S
H780 N768 0.984 1_556 S
H781 N768 0.982 1_556 S
C782 C783 1.363 . S
C782 C788 1.379 . S
C782 N790 1.356 . S
C783 C782 1.363 . S
C783 C789 1.363 . S
C784 C785 1.363 . S
C784 C789 1.379 . S
C784 N791 1.356 . S
C785 C784 1.363 . S
C785 C788 1.363 . S
N786 C788 1.356 . S
N786 H798 0.984 . S
N786 H799 0.985 . S
N787 C789 1.356 . S
N787 H792 0.984 . S
N787 H793 0.985 . S
C788 C782 1.379 . S
C788 C785 1.363 . S
C788 N786 1.356 . S
C789 C783 1.363 . S
C789 C784 1.379 . S
C789 N787 1.356 . S
N790 C782 1.356 . S
N790 H796 0.984 . S
N790 H797 0.984 . S
N791 C784 1.356 . S
N791 H794 0.984 . S
N791 H795 0.985 . S
H792 N787 0.984 . S
H793 N787 0.985 . S
H794 N791 0.984 . S
H795 N791 0.985 . S
H796 N790 0.984 . S
H797 N790 0.984 . S
H798 N786 0.984 . S
H799 N786 0.985 . S
C800 C801 1.363 . S
C800 C806 1.379 . S
C800 N808 1.356 . S
C801 C800 1.363 . S
C801 C807 1.363 . S
C802 C803 1.363 . S
C802 C807 1.379 . S
C802 N809 1.366 1_655 S
C803 C802 1.363 . S
C803 C806 1.363 . S
N804 C806 1.356 . S
N804 H816 0.984 . S
N804 H817 0.985 . S
N805 C807 1.356 1_565 S
N805 H810 0.984 1_565 S
N805 H811 0.985 . S
C806 C800 1.379 . S
C806 C803 1.363 . S
C806 N804 1.356 . S
C807 C801 1.363 . S
C807 C802 1.379 . S
C807 N805 1.356 1_545 S
N808 C800 1.356 . S
N808 H814 0.984 . S
N808 H815 0.984 . S
N809 C802 1.366 1_455 S
N809 H812 0.990 . S
N809 H813 0.969 1_545 S
H810 N805 0.984 1_545 S
H811 N805 0.985 . S
H812 N809 0.990 . S
H813 N809 0.969 1_565 S
H814 N808 0.984 . S
H815 N808 0.984 . S
H816 N804 0.984 . S
H817 N804 0.985 . S
C818 C819 1.363 . S
C818 C824 1.379 . S
C818 N826 1.356 . S
C819 C818 1.363 . S
C819 C825 1.363 . S
C820 C821 1.363 . S
C820 C825 1.379 . S
C820 N827 1.356 . S
C821 C820 1.363 . S
C821 C824 1.363 . S
N822 C824 1.356 . S
N822 H834 0.984 . S
N822 H835 0.985 . S
N823 C825 1.356 . S
N823 H828 0.984 . S
N823 H829 0.985 . S
C824 C818 1.379 . S
C824 C821 1.363 . S
C824 N822 1.356 . S
C825 C819 1.363 . S
C825 C820 1.379 . S
C825 N823 1.356 . S
N826 C818 1.356 . S
N826 H832 0.984 . S
N826 H833 0.984 . S
N827 C820 1.356 . S
N827 H830 0.984 . S
N827 H831 0.985 . S
H828 N823 0.984 . S
H829 N823 0.985 . S
H830 N827 0.984 . S
H831 N827 0.985 . S
H832 N826 0.984 . S
H833 N826 0.984 . S
H834 N822 0.984 . S
H835 N822 0.985 . S
C836 C837 1.363 . S
C836 C842 1.379 . S
C836 N844 1.356 . S
C837 C836 1.363 . S
C837 C843 1.363 1_545 S
C838 C839 1.363 1_565 S
C838 C843 1.379 . S
C838 N845 1.356 . S
C839 C838 1.363 1_545 S
C839 C842 1.363 . S
N840 C842 1.356 . S
N840 H852 0.984 . S
N840 H853 0.985 . S
N841 C843 1.356 . S
N841 H846 0.984 . S
N841 H847 0.985 . S
C842 C836 1.379 . S
C842 C839 1.363 . S
C842 N840 1.356 . S
C843 C837 1.363 1_565 S
C843 C838 1.379 . S
C843 N841 1.356 . S
N844 C836 1.356 . S
N844 H850 0.984 . S
N844 H851 0.984 . S
N845 C838 1.356 . S
N845 H848 0.984 . S
N845 H849 0.985 . S
H846 N841 0.984 . S
H847 N841 0.985 . S
H848 N845 0.984 . S
H849 N845 0.985 . S
H850 N844 0.984 . S
H851 N844 0.984 . S
H852 N840 0.984 . S
H853 N840 0.985 . S
C854 C855 1.363 . S
C854 C860 1.379 . S
C854 N862 1.356 . S
C855 C854 1.363 . S
C855 C861 1.363 . S
C856 C857 1.363 . S
C856 C861 1.379 . S
C856 N863 1.356 . S
C857 C856 1.363 . S
C857 C860 1.363 . S
N858 C860 1.356 . S
N858 H870 0.984 . S
N858 H871 0.985 . S
N859 C861 1.356 . S
N859 H864 0.984 . S
N859 H865 0.985 . S
C860 C854 1.379 . S
C860 C857 1.363 . S
C860 N858 1.356 . S
C861 C855 1.363 . S
C861 C856 1.379 . S
C861 N859 1.356 . S
N862 C854 1.356 . S
N862 H868 0.984 . S
N862 H869 0.984 . S
N863 C856 1.356 . S
N863 H866 0.984 . S
N863 H867 0.985 . S
H864 N859 0.984 . S
H865 N859 0.985 . S
H866 N863 0.984 . S
H867 N863 0.985 . S
H868 N862 0.984 . S
H869 N862 0.984 . S
H870 N858 0.984 . S
H871 N858 0.985 . S
C872 C873 1.363 . S
C872 C878 1.379 . S
C872 N880 1.356 . S
C873 C872 1.363 . S
C873 C879 1.363 . S
C874 C875 1.363 . S
C874 C879 1.379 . S
C874 N881 1.356 1_545 S
C875 C874 1.363 . S
C875 C878 1.363 . S
N876 C878 1.356 1_455 S
N876 H888 0.984 . S
N876 H889 0.985 . S
N877 C879 1.356 . S
N877 H882 0.984 . S
N877 H883 0.985 1_545 S
C878 C872 1.379 . S
C878 C875 1.363 . S
C878 N876 1.356 1_655 S
C879 C873 1.363 . S
C879 C874 1.379 . S
C879 N877 1.356 . S
N880 C872 1.356 . S
N880 H886 0.969 1_655 S
N880 H887 0.984 . S
N881 C874 1.356 1_565 S
N881 H884 0.984 . S
N881 H885 0.985 . S
H882 N877 0.984 . S
H883 N877 0.985 1_565 S
H884 N881 0.984 . S
H885 N881 0.985 . S
H886 N880 0.969 1_455 S
H887 N880 0.984 . S
H888 N876 0.984 . S
H889 N876 0.985 . S
C890 C891 1.363 . S
C890 C896 1.379 . S
C890 N898 1.356 . S
C891 C890 1.363 . S
C891 C897 1.363 . S
C892 C893 1.363 . S
C892 C897 1.379 . S
C892 N899 1.356 . S
C893 C892 1.363 . S
C893 C896 1.363 . S
N894 C896 1.356 . S
N894 H906 0.984 . S
N894 H907 0.985 . S
N895 C897 1.356 . S
N895 H900 0.984 . S
N895 H901 0.985 . S
C896 C890 1.379 . S
C896 C893 1.363 . S
C896 N894 1.356 . S
C897 C891 1.363 . S
C897 C892 1.379 . S
C897 N895 1.356 . S
N898 C890 1.356 . S
N898 H904 0.984 . S
N898 H905 0.984 . S
N899 C892 1.356 . S
N899 H902 0.984 . S
N899 H903 0.985 . S
H900 N895 0.984 . S
H901 N895 0.985 . S
H902 N899 0.984 . S
H903 N899 0.985 . S
H904 N898 0.984 . S
H905 N898 0.984 . S
H906 N894 0.984 . S
H907 N894 0.985 . S
C908 C909 1.363 . S
C908 C914 1.379 . S
C908 N916 1.356 1_545 S
C909 C908 1.363 . S
C909 C915 1.363 . S
C910 C911 1.363 . S
C910 C915 1.379 . S
C910 N917 1.356 . S
C911 C910 1.363 . S
C911 C914 1.363 . S
N912 C914 1.356 1_565 S
N912 H924 0.984 . S
N912 H925 0.985 1_565 S
N913 C915 1.356 . S
N913 H918 0.984 . S
N913 H919 0.985 . S
C914 C908 1.379 . S
C914 C911 1.363 . S
C914 N912 1.356 1_545 S
C915 C909 1.363 . S
C915 C910 1.379 . S
C915 N913 1.356 . S
N916 C908 1.356 1_565 S
N916 H922 0.984 . S
N916 H923 0.984 . S
N917 C910 1.356 . S
N917 H920 0.984 . S
N917 H921 0.985 . S
H918 N913 0.984 . S
H919 N913 0.985 . S
H920 N917 0.984 . S
H921 N917 0.985 . S
H922 N916 0.984 . S
H923 N916 0.984 . S
H924 N912 0.984 . S
H925 N912 0.985 1_545 S
C926 C927 1.363 . S
C926 C932 1.379 . S
C926 N934 1.356 . S
C927 C926 1.363 . S
C927 C933 1.363 . S
C928 C929 1.363 . S
C928 C933 1.379 . S
C928 N935 1.356 . S
C929 C928 1.363 . S
C929 C932 1.363 . S
N930 C932 1.356 . S
N930 H942 0.984 . S
N930 H943 0.985 . S
N931 C933 1.356 . S
N931 H936 0.984 . S
N931 H937 0.985 . S
C932 C926 1.379 . S
C932 C929 1.363 . S
C932 N930 1.356 . S
C933 C927 1.363 . S
C933 C928 1.379 . S
C933 N931 1.356 . S
N934 C926 1.356 . S
N934 H940 0.984 . S
N934 H941 0.984 . S
N935 C928 1.356 . S
N935 H938 0.984 . S
N935 H939 0.985 . S
H936 N931 0.984 . S
H937 N931 0.985 . S
H938 N935 0.984 . S
H939 N935 0.985 . S
H940 N934 0.984 . S
H941 N934 0.984 . S
H942 N930 0.984 . S
H943 N930 0.985 . S
C944 C945 1.363 . S
C944 C950 1.379 . S
C944 N952 1.356 . S
C945 C944 1.363 . S
C945 C951 1.363 . S
C946 C947 1.363 . S
C946 C951 1.379 . S
C946 N953 1.356 1_565 S
C947 C946 1.363 . S
C947 C950 1.363 . S
N948 C950 1.356 . S
N948 H960 0.984 . S
N948 H961 0.985 . S
N949 C951 1.356 1_556 S
N949 H954 0.984 . S
N949 H955 0.985 1_565 S
C950 C944 1.379 . S
C950 C947 1.363 . S
C950 N948 1.356 . S
C951 C945 1.363 . S
C951 C946 1.379 . S
C951 N949 1.356 1_554 S
N952 C944 1.356 . S
N952 H958 0.984 . S
N952 H959 0.984 . S
N953 C946 1.356 1_545 S
N953 H956 0.984 . S
N953 H957 0.985 1_554 S
H954 N949 0.984 . S
H955 N949 0.985 1_545 S
H956 N953 0.984 . S
H957 N953 0.985 1_556 S
H958 N952 0.984 . S
H959 N952 0.984 . S
H960 N948 0.984 . S
H961 N948 0.985 . S
C962 C963 1.363 1_556 S
C962 C968 1.379 . S
C962 N970 1.356 . S
C963 C962 1.363 1_554 S
C963 C969 1.363 . S
C964 C965 1.363 . S
C964 C969 1.379 . S
C964 N971 1.356 . S
C965 C964 1.363 . S
C965 C968 1.363 1_554 S
N966 C968 1.356 . S
N966 H978 0.984 . S
N966 H979 0.985 . S
N967 C969 1.356 . S
N967 H972 0.984 . S
N967 H973 0.985 . S
C968 C962 1.379 . S
C968 C965 1.363 1_556 S
C968 N966 1.356 . S
C969 C963 1.363 . S
C969 C964 1.379 . S
C969 N967 1.356 . S
N970 C962 1.356 . S
N970 H976 0.984 . S
N970 H977 0.984 . S
N971 C964 1.356 . S
N971 H974 0.984 . S
N971 H975 0.985 . S
H972 N967 0.984 . S
H973 N967 0.985 . S
H974 N971 0.984 . S
H975 N971 0.985 . S
H976 N970 0.984 . S
H977 N970 0.984 . S
H978 N966 0.984 . S
H979 N966 0.985 . S
C980 C981 1.363 . S
C980 C986 1.379 . S
C980 N988 1.356 . S
C981 C980 1.363 . S
C981 C987 1.363 . S
C982 C983 1.363 . S
C982 C987 1.379 . S
C982 N989 1.356 . S
C983 C982 1.363 . S
C983 C986 1.363 . S
N984 C986 1.356 . S
N984 H996 0.984 . S
N984 H997 0.985 . S
N985 C987 1.356 . S
N985 H990 0.984 . S
N985 H991 0.985 . S
C986 C980 1.379 . S
C986 C983 1.363 . S
C986 N984 1.356 . S
C987 C981 1.363 . S
C987 C982 1.379 . S
C987 N985 1.356 . S
N988 C980 1.356 . S
N988 H994 0.984 . S
N988 H995 0.984 . S
N989 C982 1.356 . S
N989 H992 0.984 . S
N989 H993 0.985 . S
H990 N985 0.984 . S
H991 N985 0.985 . S
H992 N989 0.984 . S
H993 N989 0.985 . S
H994 N988 0.984 . S
H995 N988 0.984 . S
H996 N984 0.984 . S
H997 N984 0.985 . S
C998 C999 1.363 . S
C998 C1004 1.379 . S
C998 N1006 1.356 . S
C999 C998 1.363 . S
C999 C1005 1.363 . S
C1000 C1001 1.363 . S
C1000 C1005 1.379 . S
C1000 N1007 1.356 . S
C1001 C1000 1.363 . S
C1001 C1004 1.363 . S
N1002 C1004 1.356 . S
N1002 H1014 0.984 . S
N1002 H1015 0.985 . S
N1003 C1005 1.356 . S
N1003 H1008 0.984 . S
N1003 H1009 0.985 . S
C1004 C998 1.379 . S
C1004 C1001 1.363 . S
C1004 N1002 1.356 . S
C1005 C999 1.363 . S
C1005 C1000 1.379 . S
C1005 N1003 1.356 . S
N1006 C998 1.356 . S
N1006 H1012 0.984 . S
N1006 H1013 0.984 . S
N1007 C1000 1.356 . S
N1007 H1010 0.984 . S
N1007 H1011 0.985 . S
H1008 N1003 0.984 . S
H1009 N1003 0.985 . S
H1010 N1007 0.984 . S
H1011 N1007 0.985 . S
H1012 N1006 0.984 . S
H1013 N1006 0.984 . S
H1014 N1002 0.984 . S
H1015 N1002 0.985 . S
C1016 C1017 1.363 . S
C1016 C1022 1.379 . S
C1016 N1024 1.356 . S
C1017 C1016 1.363 . S
C1017 C1023 1.363 . S
C1018 C1019 1.363 . S
C1018 C1023 1.379 . S
C1018 N1025 1.356 . S
C1019 C1018 1.363 . S
C1019 C1022 1.363 . S
N1020 C1022 1.356 . S
N1020 H1032 0.984 . S
N1020 H1033 0.985 . S
N1021 C1023 1.356 . S
N1021 H1026 0.984 . S
N1021 H1027 0.985 . S
C1022 C1016 1.379 . S
C1022 C1019 1.363 . S
C1022 N1020 1.356 . S
C1023 C1017 1.363 . S
C1023 C1018 1.379 . S
C1023 N1021 1.356 . S
N1024 C1016 1.356 . S
N1024 H1030 0.984 . S
N1024 H1031 0.984 . S
N1025 C1018 1.356 . S
N1025 H1028 0.984 . S
N1025 H1029 0.985 . S
H1026 N1021 0.984 . S
H1027 N1021 0.985 . S
H1028 N1025 0.984 . S
H1029 N1025 0.985 . S
H1030 N1024 0.984 . S
H1031 N1024 0.984 . S
H1032 N1020 0.984 . S
H1033 N1020 0.985 . S
C1034 C1035 1.363 . S
C1034 C1040 1.379 . S
C1034 N1042 1.356 . S
C1035 C1034 1.363 . S
C1035 C1041 1.363 . S
C1036 C1037 1.363 . S
C1036 C1041 1.379 . S
C1036 N1043 1.356 . S
C1037 C1036 1.363 . S
C1037 C1040 1.363 . S
N1038 C1040 1.356 . S
N1038 H1050 0.984 . S
N1038 H1051 0.985 . S
N1039 C1041 1.356 . S
N1039 H1044 0.984 . S
N1039 H1045 0.985 . S
C1040 C1034 1.379 . S
C1040 C1037 1.363 . S
C1040 N1038 1.356 . S
C1041 C1035 1.363 . S
C1041 C1036 1.379 . S
C1041 N1039 1.356 . S
N1042 C1034 1.356 . S
N1042 H1048 0.984 . S
N1042 H1049 0.984 . S
N1043 C1036 1.356 . S
N1043 H1046 0.984 . S
N1043 H1047 0.985 . S
H1044 N1039 0.984 . S
H1045 N1039 0.985 . S
H1046 N1043 0.984 . S
H1047 N1043 0.985 . S
H1048 N1042 0.984 . S
H1049 N1042 0.984 . S
H1050 N1038 0.984 . S
H1051 N1038 0.985 . S
C1052 C1053 1.363 . S
C1052 C1058 1.379 . S
C1052 N1060 1.356 . S
C1053 C1052 1.363 . S
C1053 C1059 1.363 . S
C1054 C1055 1.363 . S
C1054 C1059 1.379 . S
C1054 N1061 1.356 . S
C1055 C1054 1.363 . S
C1055 C1058 1.363 . S
N1056 C1058 1.356 . S
N1056 H1068 0.984 . S
N1056 H1069 0.985 . S
N1057 C1059 1.356 . S
N1057 H1062 0.984 . S
N1057 H1063 0.985 . S
C1058 C1052 1.379 . S
C1058 C1055 1.363 . S
C1058 N1056 1.356 . S
C1059 C1053 1.363 . S
C1059 C1054 1.379 . S
C1059 N1057 1.356 . S
N1060 C1052 1.356 . S
N1060 H1066 0.984 . S
N1060 H1067 0.984 . S
N1061 C1054 1.356 . S
N1061 H1064 0.984 . S
N1061 H1065 0.985 . S
H1062 N1057 0.984 . S
H1063 N1057 0.985 . S
H1064 N1061 0.984 . S
H1065 N1061 0.985 . S
H1066 N1060 0.984 . S
H1067 N1060 0.984 . S
H1068 N1056 0.984 . S
H1069 N1056 0.985 . S
C1070 C1071 1.363 . S
C1070 C1076 1.379 . S
C1070 N1078 1.356 . S
C1071 C1070 1.363 . S
C1071 C1077 1.363 . S
C1072 C1073 1.363 . S
C1072 C1077 1.379 . S
C1072 N1079 1.356 . S
C1073 C1072 1.363 . S
C1073 C1076 1.363 . S
N1074 C1076 1.356 . S
N1074 H1086 0.984 . S
N1074 H1087 0.985 . S
N1075 C1077 1.356 . S
N1075 H1080 0.984 . S
N1075 H1081 0.985 . S
C1076 C1070 1.379 . S
C1076 C1073 1.363 . S
C1076 N1074 1.356 . S
C1077 C1071 1.363 . S
C1077 C1072 1.379 . S
C1077 N1075 1.356 . S
N1078 C1070 1.356 . S
N1078 H1084 0.984 . S
N1078 H1085 0.984 . S
N1079 C1072 1.356 . S
N1079 H1082 0.984 . S
N1079 H1083 0.985 . S
H1080 N1075 0.984 . S
H1081 N1075 0.985 . S
H1082 N1079 0.984 . S
H1083 N1079 0.985 . S
H1084 N1078 0.984 . S
H1085 N1078 0.984 . S
H1086 N1074 0.984 . S
H1087 N1074 0.985 . S
C1088 C1089 1.363 . S
C1088 C1094 1.379 . S
C1088 N1096 1.356 . S
C1089 C1088 1.363 . S
C1089 C1095 1.363 . S
C1090 C1091 1.363 . S
C1090 C1095 1.379 . S
C1090 N1097 1.356 . S
C1091 C1090 1.363 . S
C1091 C1094 1.363 . S
N1092 C1094 1.356 1_556 S
N1092 H1104 0.984 . S
N1092 H1105 0.985 . S
N1093 C1095 1.356 . S
N1093 H1098 0.984 . S
N1093 H1099 0.985 . S
C1094 C1088 1.379 . S
C1094 C1091 1.363 . S
C1094 N1092 1.356 1_554 S
C1095 C1089 1.363 . S
C1095 C1090 1.379 . S
C1095 N1093 1.356 . S
N1096 C1088 1.356 . S
N1096 H1102 0.984 . S
N1096 H1103 0.984 . S
N1097 C1090 1.356 . S
N1097 H1100 0.984 . S
N1097 H1101 0.985 1_455 S
H1098 N1093 0.984 . S
H1099 N1093 0.985 . S
H1100 N1097 0.984 . S
H1101 N1097 0.985 1_655 S
H1102 N1096 0.984 . S
H1103 N1096 0.984 . S
H1104 N1092 0.984 . S
H1105 N1092 0.985 . S
C1106 C1107 1.363 . S
C1106 C1112 1.379 . S
C1106 N1114 1.356 . S
C1107 C1106 1.363 . S
C1107 C1113 1.363 . S
C1108 C1109 1.363 . S
C1108 C1113 1.379 . S
C1108 N1115 1.356 . S
C1109 C1108 1.363 . S
C1109 C1112 1.363 . S
N1110 C1112 1.356 . S
N1110 H1122 0.984 . S
N1110 H1123 0.985 . S
N1111 C1113 1.356 . S
N1111 H1116 0.984 . S
N1111 H1117 0.985 . S
C1112 C1106 1.379 . S
C1112 C1109 1.363 . S
C1112 N1110 1.356 . S
C1113 C1107 1.363 . S
C1113 C1108 1.379 . S
C1113 N1111 1.356 . S
N1114 C1106 1.356 . S
N1114 H1120 0.984 . S
N1114 H1121 0.984 . S
N1115 C1108 1.356 . S
N1115 H1118 0.984 . S
N1115 H1119 0.985 . S
H1116 N1111 0.984 . S
H1117 N1111 0.985 . S
H1118 N1115 0.984 . S
H1119 N1115 0.985 . S
H1120 N1114 0.984 . S
H1121 N1114 0.984 . S
H1122 N1110 0.984 . S
H1123 N1110 0.985 . S
C1124 C1125 1.363 . S
C1124 C1130 1.379 . S
C1124 N1132 1.356 . S
C1125 C1124 1.363 . S
C1125 C1131 1.363 . S
C1126 C1127 1.363 . S
C1126 C1131 1.379 . S
C1126 N1133 1.356 . S
C1127 C1126 1.363 . S
C1127 C1130 1.363 . S
N1128 C1130 1.356 . S
N1128 H1140 0.984 . S
N1128 H1141 0.985 . S
N1129 C1131 1.356 . S
N1129 H1134 0.984 . S
N1129 H1135 0.985 . S
C1130 C1124 1.379 . S
C1130 C1127 1.363 . S
C1130 N1128 1.356 . S
C1131 C1125 1.363 . S
C1131 C1126 1.379 . S
C1131 N1129 1.356 . S
N1132 C1124 1.356 . S
N1132 H1138 0.984 . S
N1132 H1139 0.984 . S
N1133 C1126 1.356 . S
N1133 H1136 0.984 . S
N1133 H1137 0.985 . S
H1134 N1129 0.984 . S
H1135 N1129 0.985 . S
H1136 N1133 0.984 . S
H1137 N1133 0.985 . S
H1138 N1132 0.984 . S
H1139 N1132 0.984 . S
H1140 N1128 0.984 . S
H1141 N1128 0.985 . S
C1142 C1143 1.363 . S
C1142 C1148 1.379 . S
C1142 N1150 1.356 . S
C1143 C1142 1.363 . S
C1143 C1149 1.363 . S
C1144 C1145 1.363 . S
C1144 C1149 1.379 . S
C1144 N1151 1.356 . S
C1145 C1144 1.363 . S
C1145 C1148 1.363 . S
N1146 C1148 1.356 . S
N1146 H1158 0.984 . S
N1146 H1159 0.985 . S
N1147 C1149 1.356 . S
N1147 H1152 0.984 . S
N1147 H1153 0.985 . S
C1148 C1142 1.379 . S
C1148 C1145 1.363 . S
C1148 N1146 1.356 . S
C1149 C1143 1.363 . S
C1149 C1144 1.379 . S
C1149 N1147 1.356 . S
N1150 C1142 1.356 . S
N1150 H1156 0.984 . S
N1150 H1157 0.984 . S
N1151 C1144 1.356 . S
N1151 H1154 0.984 . S
N1151 H1155 0.985 . S
H1152 N1147 0.984 . S
H1153 N1147 0.985 . S
H1154 N1151 0.984 . S
H1155 N1151 0.985 . S
H1156 N1150 0.984 . S
H1157 N1150 0.984 . S
H1158 N1146 0.984 . S
H1159 N1146 0.985 . S
C1160 C1161 1.363 . S
C1160 C1166 1.379 . S
C1160 N1168 1.356 . S
C1161 C1160 1.363 . S
C1161 C1167 1.363 1_455 S
C1162 C1163 1.348 1_655 S
C1162 C1167 1.379 . S
C1162 N1169 1.356 . S
C1163 C1162 1.348 1_455 S
C1163 C1166 1.379 . S
N1164 C1166 1.356 . S
N1164 H1176 0.984 . S
N1164 H1177 0.985 . S
N1165 C1167 1.356 . S
N1165 H1170 0.984 . S
N1165 H1171 0.985 . S
C1166 C1160 1.379 . S
C1166 C1163 1.379 . S
C1166 N1164 1.356 . S
C1167 C1161 1.363 1_655 S
C1167 C1162 1.379 . S
C1167 N1165 1.356 . S
N1168 C1160 1.356 . S
N1168 H1174 0.984 . S
N1168 H1175 0.984 . S
N1169 C1162 1.356 . S
N1169 H1172 0.984 . S
N1169 H1173 0.985 . S
H1170 N1165 0.984 . S
H1171 N1165 0.985 . S
H1172 N1169 0.984 . S
H1173 N1169 0.985 . S
H1174 N1168 0.984 . S
H1175 N1168 0.984 . S
H1176 N1164 0.984 . S
H1177 N1164 0.985 . S
C1178 C1179 1.363 . S
C1178 C1184 1.379 . S
C1178 N1186 1.356 . S
C1179 C1178 1.363 . S
C1179 C1185 1.363 . S
C1180 C1181 1.363 . S
C1180 C1185 1.379 . S
C1180 N1187 1.356 . S
C1181 C1180 1.363 . S
C1181 C1184 1.363 . S
N1182 C1184 1.356 . S
N1182 H1194 0.984 . S
N1182 H1195 0.985 . S
N1183 C1185 1.356 . S
N1183 H1188 0.984 . S
N1183 H1189 0.985 . S
C1184 C1178 1.379 . S
C1184 C1181 1.363 . S
C1184 N1182 1.356 . S
C1185 C1179 1.363 . S
C1185 C1180 1.379 . S
C1185 N1183 1.356 . S
N1186 C1178 1.356 . S
N1186 H1192 0.984 . S
N1186 H1193 0.984 . S
N1187 C1180 1.356 . S
N1187 H1190 0.984 . S
N1187 H1191 0.985 . S
H1188 N1183 0.984 . S
H1189 N1183 0.985 . S
H1190 N1187 0.984 . S
H1191 N1187 0.985 . S
H1192 N1186 0.984 . S
H1193 N1186 0.984 . S
H1194 N1182 0.984 . S
H1195 N1182 0.985 . S
C1196 C1197 1.363 . S
C1196 C1202 1.379 . S
C1196 N1204 1.356 . S
C1197 C1196 1.363 . S
C1197 C1203 1.363 . S
C1198 C1199 1.363 . S
C1198 C1203 1.379 . S
C1198 N1205 1.356 . S
C1199 C1198 1.363 . S
C1199 C1202 1.363 . S
N1200 C1202 1.356 . S
N1200 H1212 0.984 . S
N1200 H1213 0.985 . S
N1201 C1203 1.356 . S
N1201 H1206 0.984 . S
N1201 H1207 0.985 . S
C1202 C1196 1.379 . S
C1202 C1199 1.363 . S
C1202 N1200 1.356 . S
C1203 C1197 1.363 . S
C1203 C1198 1.379 . S
C1203 N1201 1.356 . S
N1204 C1196 1.356 . S
N1204 H1210 0.984 . S
N1204 H1211 0.984 . S
N1205 C1198 1.356 . S
N1205 H1208 0.984 1_556 S
N1205 H1209 0.985 1_556 S
H1206 N1201 0.984 . S
H1207 N1201 0.985 . S
H1208 N1205 0.984 1_554 S
H1209 N1205 0.985 1_554 S
H1210 N1204 0.984 . S
H1211 N1204 0.984 . S
H1212 N1200 0.984 . S
H1213 N1200 0.985 . S
C1214 C1215 1.363 . S
C1214 C1220 1.379 . S
C1214 N1222 1.356 . S
C1215 C1214 1.363 . S
C1215 C1221 1.363 . S
C1216 C1217 1.363 . S
C1216 C1221 1.379 . S
C1216 N1223 1.356 . S
C1217 C1216 1.363 . S
C1217 C1220 1.363 . S
N1218 C1220 1.356 . S
N1218 H1230 0.984 . S
N1218 H1231 0.985 . S
N1219 C1221 1.356 . S
N1219 H1224 0.984 . S
N1219 H1225 0.985 . S
C1220 C1214 1.379 . S
C1220 C1217 1.363 . S
C1220 N1218 1.356 . S
C1221 C1215 1.363 . S
C1221 C1216 1.379 . S
C1221 N1219 1.356 . S
N1222 C1214 1.356 . S
N1222 H1228 0.984 . S
N1222 H1229 0.984 . S
N1223 C1216 1.356 . S
N1223 H1226 0.984 . S
N1223 H1227 0.985 . S
H1224 N1219 0.984 . S
H1225 N1219 0.985 . S
H1226 N1223 0.984 . S
H1227 N1223 0.985 . S
H1228 N1222 0.984 . S
H1229 N1222 0.984 . S
H1230 N1218 0.984 . S
H1231 N1218 0.985 . S
C1232 C1233 1.363 . S
C1232 C1238 1.379 . S
C1232 N1240 1.356 . S
C1233 C1232 1.363 . S
C1233 C1239 1.363 1_545 S
C1234 C1235 1.363 . S
C1234 C1239 1.379 . S
C1234 N1241 1.356 . S
C1235 C1234 1.363 . S
C1235 C1238 1.363 1_565 S
N1236 C1238 1.356 . S
N1236 H1248 0.984 . S
N1236 H1249 0.985 . S
N1237 C1239 1.356 . S
N1237 H1242 0.984 . S
N1237 H1243 0.985 . S
C1238 C1232 1.379 . S
C1238 C1235 1.363 1_545 S
C1238 N1236 1.356 . S
C1239 C1233 1.363 1_565 S
C1239 C1234 1.379 . S
C1239 N1237 1.356 . S
N1240 C1232 1.356 . S
N1240 H1246 0.984 . S
N1240 H1247 0.984 . S
N1241 C1234 1.356 . S
N1241 H1244 0.984 . S
N1241 H1245 0.985 . S
H1242 N1237 0.984 . S
H1243 N1237 0.985 . S
H1244 N1241 0.984 . S
H1245 N1241 0.985 . S
H1246 N1240 0.984 . S
H1247 N1240 0.984 . S
H1248 N1236 0.984 . S
H1249 N1236 0.985 . S
C1250 C1251 1.363 . S
C1250 C1256 1.379 . S
C1250 N1258 1.356 . S
C1251 C1250 1.363 . S
C1251 C1257 1.363 . S
C1252 C1253 1.363 . S
C1252 C1257 1.379 . S
C1252 N1259 1.356 . S
C1253 C1252 1.363 . S
C1253 C1256 1.363 . S
N1254 C1256 1.356 . S
N1254 H1266 0.984 . S
N1254 H1267 0.985 . S
N1255 C1257 1.356 . S
N1255 H1260 0.984 . S
N1255 H1261 0.985 . S
C1256 C1250 1.379 . S
C1256 C1253 1.363 . S
C1256 N1254 1.356 . S
C1257 C1251 1.363 . S
C1257 C1252 1.379 . S
C1257 N1255 1.356 . S
N1258 C1250 1.356 . S
N1258 H1264 0.984 . S
N1258 H1265 0.984 . S
N1259 C1252 1.356 . S
N1259 H1262 0.984 . S
N1259 H1263 0.985 . S
H1260 N1255 0.984 . S
H1261 N1255 0.985 . S
H1262 N1259 0.984 . S
H1263 N1259 0.985 . S
H1264 N1258 0.984 . S
H1265 N1258 0.984 . S
H1266 N1254 0.984 . S
H1267 N1254 0.985 . S
C1268 C1269 1.363 . S
C1268 C1274 1.379 . S
C1268 N1276 1.356 . S
C1269 C1268 1.363 . S
C1269 C1275 1.363 1_545 S
C1270 C1271 1.367 . S
C1270 C1275 1.380 1_545 S
C1270 N1277 1.351 1_545 S
C1271 C1270 1.367 . S
C1271 C1274 1.363 . S
N1272 C1274 1.356 . S
N1272 H1284 0.984 . S
N1272 H1285 0.985 . S
N1273 C1275 1.356 . S
N1273 H1278 0.984 . S
N1273 H1279 0.985 . S
C1274 C1268 1.379 . S
C1274 C1271 1.363 . S
C1274 N1272 1.356 . S
C1275 C1269 1.363 1_565 S
C1275 C1270 1.380 1_565 S
C1275 N1273 1.356 . S
N1276 C1268 1.356 . S
N1276 H1282 0.984 . S
N1276 H1283 0.984 . S
N1277 C1270 1.351 1_565 S
N1277 H1280 0.984 . S
N1277 H1281 0.985 . S
H1278 N1273 0.984 . S
H1279 N1273 0.985 . S
H1280 N1277 0.984 . S
H1281 N1277 0.985 . S
H1282 N1276 0.984 . S
H1283 N1276 0.984 . S
H1284 N1272 0.984 . S
H1285 N1272 0.985 . S
C1286 C1287 1.363 . S
C1286 C1292 1.379 . S
C1286 N1294 1.356 . S
C1287 C1286 1.363 . S
C1287 C1293 1.363 . S
C1288 C1289 1.363 . S
C1288 C1293 1.379 . S
C1288 N1295 1.356 . S
C1289 C1288 1.363 . S
C1289 C1292 1.363 . S
N1290 C1292 1.356 . S
N1290 H1302 0.984 . S
N1290 H1303 0.985 . S
N1291 C1293 1.356 . S
N1291 H1296 0.984 . S
N1291 H1297 0.985 . S
C1292 C1286 1.379 . S
C1292 C1289 1.363 . S
C1292 N1290 1.356 . S
C1293 C1287 1.363 . S
C1293 C1288 1.379 . S
C1293 N1291 1.356 . S
N1294 C1286 1.356 . S
N1294 H1300 0.984 . S
N1294 H1301 0.984 . S
N1295 C1288 1.356 . S
N1295 H1298 0.984 . S
N1295 H1299 0.985 . S
H1296 N1291 0.984 . S
H1297 N1291 0.985 . S
H1298 N1295 0.984 . S
H1299 N1295 0.985 . S
H1300 N1294 0.984 . S
H1301 N1294 0.984 . S
H1302 N1290 0.984 . S
H1303 N1290 0.985 . S
C1304 C1305 1.363 . S
C1304 C1310 1.379 . S
C1304 N1312 1.356 . S
C1305 C1304 1.363 . S
C1305 C1311 1.363 1_565 S
C1306 C1307 1.363 . S
C1306 C1311 1.379 . S
C1306 N1313 1.356 . S
C1307 C1306 1.363 . S
C1307 C1310 1.363 1_545 S
N1308 C1310 1.356 . S
N1308 H1320 0.984 . S
N1308 H1321 0.962 1_565 S
N1309 C1311 1.356 . S
N1309 H1314 0.984 . S
N1309 H1315 0.985 . S
C1310 C1304 1.379 . S
C1310 C1307 1.363 1_565 S
C1310 N1308 1.356 . S
C1311 C1305 1.363 1_545 S
C1311 C1306 1.379 . S
C1311 N1309 1.356 . S
N1312 C1304 1.356 . S
N1312 H1318 0.984 . S
N1312 H1319 0.984 . S
N1313 C1306 1.356 . S
N1313 H1316 0.984 . S
N1313 H1317 0.985 . S
H1314 N1309 0.984 . S
H1315 N1309 0.985 . S
H1316 N1313 0.984 . S
H1317 N1313 0.985 . S
H1318 N1312 0.984 . S
H1319 N1312 0.984 . S
H1320 N1308 0.984 . S
H1321 N1308 0.962 1_545 S
C1322 C1323 1.363 . S
C1322 C1328 1.379 . S
C1322 N1330 1.356 . S
C1323 C1322 1.363 . S
C1323 C1329 1.363 . S
C1324 C1325 1.363 . S
C1324 C1329 1.379 . S
C1324 N1331 1.356 . S
C1325 C1324 1.363 . S
C1325 C1328 1.363 . S
N1326 C1328 1.356 . S
N1326 H1338 0.984 . S
N1326 H1339 0.985 . S
N1327 C1329 1.356 . S
N1327 H1332 0.984 . S
N1327 H1333 0.985 . S
C1328 C1322 1.379 . S
C1328 C1325 1.363 . S
C1328 N1326 1.356 . S
C1329 C1323 1.363 . S
C1329 C1324 1.379 . S
C1329 N1327 1.356 . S
N1330 C1322 1.356 . S
N1330 H1336 0.984 . S
N1330 H1337 0.984 . S
N1331 C1324 1.356 . S
N1331 H1334 0.984 . S
N1331 H1335 0.985 . S
H1332 N1327 0.984 . S
H1333 N1327 0.985 . S
H1334 N1331 0.984 . S
H1335 N1331 0.985 . S
H1336 N1330 0.984 . S
H1337 N1330 0.984 . S
H1338 N1326 0.984 . S
H1339 N1326 0.985 . S
C1340 C1341 1.363 . S
C1340 C1346 1.379 . S
C1340 N1348 1.356 . S
C1341 C1340 1.363 . S
C1341 C1347 1.363 1_545 S
C1342 C1343 1.363 . S
C1342 C1347 1.379 . S
C1342 N1349 1.356 . S
C1343 C1342 1.363 . S
C1343 C1346 1.363 1_565 S
N1344 C1346 1.356 . S
N1344 H1356 0.984 . S
N1344 H1357 0.985 . S
N1345 C1347 1.356 . S
N1345 H1350 0.984 . S
N1345 H1351 0.985 . S
C1346 C1340 1.379 . S
C1346 C1343 1.363 1_545 S
C1346 N1344 1.356 . S
C1347 C1341 1.363 1_565 S
C1347 C1342 1.379 . S
C1347 N1345 1.356 . S
N1348 C1340 1.356 . S
N1348 H1354 0.984 . S
N1348 H1355 0.984 . S
N1349 C1342 1.356 . S
N1349 H1352 0.984 . S
N1349 H1353 0.985 . S
H1350 N1345 0.984 . S
H1351 N1345 0.985 . S
H1352 N1349 0.984 . S
H1353 N1349 0.985 . S
H1354 N1348 0.984 . S
H1355 N1348 0.984 . S
H1356 N1344 0.984 . S
H1357 N1344 0.985 . S
C1358 C1359 1.363 . S
C1358 C1364 1.379 . S
C1358 N1366 1.356 . S
C1359 C1358 1.363 . S
C1359 C1365 1.363 . S
C1360 C1361 1.363 . S
C1360 C1365 1.379 . S
C1360 N1367 1.356 . S
C1361 C1360 1.363 . S
C1361 C1364 1.363 . S
N1362 C1364 1.356 . S
N1362 H1374 0.984 . S
N1362 H1375 0.985 . S
N1363 C1365 1.356 . S
N1363 H1368 0.984 . S
N1363 H1369 0.985 . S
C1364 C1358 1.379 . S
C1364 C1361 1.363 . S
C1364 N1362 1.356 . S
C1365 C1359 1.363 . S
C1365 C1360 1.379 . S
C1365 N1363 1.356 . S
N1366 C1358 1.356 . S
N1366 H1372 0.984 . S
N1366 H1373 0.984 . S
N1367 C1360 1.356 . S
N1367 H1370 0.984 . S
N1367 H1371 0.985 . S
H1368 N1363 0.984 . S
H1369 N1363 0.985 . S
H1370 N1367 0.984 . S
H1371 N1367 0.985 . S
H1372 N1366 0.984 . S
H1373 N1366 0.984 . S
H1374 N1362 0.984 . S
H1375 N1362 0.985 . S
C1376 C1377 1.369 . S
C1376 C1382 1.379 . S
C1376 N1384 1.356 . S
C1377 C1376 1.369 . S
C1377 C1383 1.360 1_556 S
C1378 C1379 1.358 1_554 S
C1378 C1383 1.382 . S
C1378 N1385 1.357 . S
C1379 C1378 1.358 1_556 S
C1379 C1382 1.363 . S
N1380 C1382 1.356 . S
N1380 H1392 0.975 1_545 S
N1380 H1393 0.985 . S
N1381 C1383 1.356 . S
N1381 H1386 0.984 . S
N1381 H1387 0.985 . S
C1382 C1376 1.379 . S
C1382 C1379 1.363 . S
C1382 N1380 1.356 . S
C1383 C1377 1.360 1_554 S
C1383 C1378 1.382 . S
C1383 N1381 1.356 . S
N1384 C1376 1.356 . S
N1384 H1390 0.984 . S
N1384 H1391 0.984 . S
N1385 C1378 1.357 . S
N1385 H1388 0.984 1_554 S
N1385 H1389 0.985 . S
H1386 N1381 0.984 . S
H1387 N1381 0.985 . S
H1388 N1385 0.984 1_556 S
H1389 N1385 0.985 . S
H1390 N1384 0.984 . S
H1391 N1384 0.984 . S
H1392 N1380 0.975 1_565 S
H1393 N1380 0.985 . S
C1394 C1395 1.363 1_556 S
C1394 C1400 1.379 . S
C1394 N1402 1.356 . S
C1395 C1394 1.363 1_554 S
C1395 C1401 1.363 . S
C1396 C1397 1.363 . S
C1396 C1401 1.379 . S
C1396 N1403 1.356 . S
C1397 C1396 1.363 . S
C1397 C1400 1.363 1_554 S
N1398 C1400 1.356 . S
N1398 H1410 0.984 . S
N1398 H1411 0.985 . S
N1399 C1401 1.356 . S
N1399 H1404 0.984 . S
N1399 H1405 0.985 . S
C1400 C1394 1.379 . S
C1400 C1397 1.363 1_556 S
C1400 N1398 1.356 . S
C1401 C1395 1.363 . S
C1401 C1396 1.379 . S
C1401 N1399 1.356 . S
N1402 C1394 1.356 . S
N1402 H1408 0.984 . S
N1402 H1409 0.984 . S
N1403 C1396 1.356 . S
N1403 H1406 0.984 . S
N1403 H1407 0.985 . S
H1404 N1399 0.984 . S
H1405 N1399 0.985 . S
H1406 N1403 0.984 . S
H1407 N1403 0.985 . S
H1408 N1402 0.984 . S
H1409 N1402 0.984 . S
H1410 N1398 0.984 . S
H1411 N1398 0.985 . S
C1412 C1413 1.363 . S
C1412 C1418 1.379 . S
C1412 N1420 1.356 . S
C1413 C1412 1.363 . S
C1413 C1419 1.363 . S
C1414 C1415 1.363 . S
C1414 C1419 1.379 . S
C1414 N1421 1.356 . S
C1415 C1414 1.363 . S
C1415 C1418 1.363 . S
N1416 C1418 1.356 . S
N1416 H1428 0.984 . S
N1416 H1429 0.985 . S
N1417 C1419 1.356 . S
N1417 H1422 0.984 . S
N1417 H1423 0.985 . S
C1418 C1412 1.379 . S
C1418 C1415 1.363 . S
C1418 N1416 1.356 . S
C1419 C1413 1.363 . S
C1419 C1414 1.379 . S
C1419 N1417 1.356 . S
N1420 C1412 1.356 . S
N1420 H1426 0.984 . S
N1420 H1427 0.984 . S
N1421 C1414 1.356 . S
N1421 H1424 0.984 . S
N1421 H1425 0.985 . S
H1422 N1417 0.984 . S
H1423 N1417 0.985 . S
H1424 N1421 0.984 . S
H1425 N1421 0.985 . S
H1426 N1420 0.984 . S
H1427 N1420 0.984 . S
H1428 N1416 0.984 . S
H1429 N1416 0.985 . S
C1430 C1431 1.363 . S
C1430 C1436 1.379 . S
C1430 N1438 1.356 . S
C1431 C1430 1.363 . S
C1431 C1437 1.363 . S
C1432 C1433 1.363 . S
C1432 C1437 1.379 . S
C1432 N1439 1.356 . S
C1433 C1432 1.363 . S
C1433 C1436 1.363 . S
N1434 C1436 1.356 . S
N1434 H1446 0.984 . S
N1434 H1447 0.985 . S
N1435 C1437 1.356 . S
N1435 H1440 0.984 . S
N1435 H1441 0.985 . S
C1436 C1430 1.379 . S
C1436 C1433 1.363 . S
C1436 N1434 1.356 . S
C1437 C1431 1.363 . S
C1437 C1432 1.379 . S
C1437 N1435 1.356 . S
N1438 C1430 1.356 . S
N1438 H1444 0.984 . S
N1438 H1445 0.984 . S
N1439 C1432 1.356 . S
N1439 H1442 0.984 . S
N1439 H1443 0.985 . S
H1440 N1435 0.984 . S
H1441 N1435 0.985 . S
H1442 N1439 0.984 . S
H1443 N1439 0.985 . S
H1444 N1438 0.984 . S
H1445 N1438 0.984 . S
H1446 N1434 0.984 . S
H1447 N1434 0.985 . S
C1448 C1449 1.363 . S
C1448 C1454 1.379 . S
C1448 N1456 1.356 . S
C1449 C1448 1.363 . S
C1449 C1455 1.363 . S
C1450 C1451 1.363 . S
C1450 C1455 1.379 . S
C1450 N1457 1.356 . S
C1451 C1450 1.363 . S
C1451 C1454 1.363 . S
N1452 C1454 1.356 . S
N1452 H1464 0.984 . S
N1452 H1465 0.985 . S
N1453 C1455 1.356 . S
N1453 H1458 0.984 . S
N1453 H1459 0.985 . S
C1454 C1448 1.379 . S
C1454 C1451 1.363 . S
C1454 N1452 1.356 . S
C1455 C1449 1.363 . S
C1455 C1450 1.379 . S
C1455 N1453 1.356 . S
N1456 C1448 1.356 . S
N1456 H1462 0.984 . S
N1456 H1463 0.984 . S
N1457 C1450 1.356 . S
N1457 H1460 0.984 . S
N1457 H1461 0.985 . S
H1458 N1453 0.984 . S
H1459 N1453 0.985 . S
H1460 N1457 0.984 . S
H1461 N1457 0.985 . S
H1462 N1456 0.984 . S
H1463 N1456 0.984 . S
H1464 N1452 0.984 . S
H1465 N1452 0.985 . S
C1466 C1467 1.363 . S
C1466 C1472 1.379 . S
C1466 N1474 1.356 . S
C1467 C1466 1.363 . S
C1467 C1473 1.363 . S
C1468 C1469 1.363 . S
C1468 C1473 1.379 . S
C1468 N1475 1.356 . S
C1469 C1468 1.363 . S
C1469 C1472 1.363 . S
N1470 C1472 1.356 . S
N1470 H1482 0.984 . S
N1470 H1483 0.985 . S
N1471 C1473 1.356 . S
N1471 H1476 0.984 . S
N1471 H1477 0.985 . S
C1472 C1466 1.379 . S
C1472 C1469 1.363 . S
C1472 N1470 1.356 . S
C1473 C1467 1.363 . S
C1473 C1468 1.379 . S
C1473 N1471 1.356 . S
N1474 C1466 1.356 . S
N1474 H1480 0.984 . S
N1474 H1481 0.984 . S
N1475 C1468 1.356 . S
N1475 H1478 0.984 . S
N1475 H1479 0.985 . S
H1476 N1471 0.984 . S
H1477 N1471 0.985 . S
H1478 N1475 0.984 . S
H1479 N1475 0.985 . S
H1480 N1474 0.984 . S
H1481 N1474 0.984 . S
H1482 N1470 0.984 . S
H1483 N1470 0.985 . S
C1484 C1485 1.363 . S
C1484 C1490 1.379 . S
C1484 N1492 1.356 . S
C1485 C1484 1.363 . S
C1485 C1491 1.363 . S
C1486 C1487 1.363 . S
C1486 C1491 1.379 . S
C1486 N1493 1.356 . S
C1487 C1486 1.363 . S
C1487 C1490 1.363 . S
N1488 C1490 1.356 . S
N1488 H1500 0.984 . S
N1488 H1501 0.985 . S
N1489 C1491 1.356 . S
N1489 H1494 0.984 . S
N1489 H1495 0.985 . S
C1490 C1484 1.379 . S
C1490 C1487 1.363 . S
C1490 N1488 1.356 . S
C1491 C1485 1.363 . S
C1491 C1486 1.379 . S
C1491 N1489 1.356 . S
N1492 C1484 1.356 . S
N1492 H1498 0.984 . S
N1492 H1499 0.984 . S
N1493 C1486 1.356 . S
N1493 H1496 0.984 . S
N1493 H1497 0.985 . S
H1494 N1489 0.984 . S
H1495 N1489 0.985 . S
H1496 N1493 0.984 . S
H1497 N1493 0.985 . S
H1498 N1492 0.984 . S
H1499 N1492 0.984 . S
H1500 N1488 0.984 . S
H1501 N1488 0.985 . S
C1502 C1503 1.363 . S
C1502 C1508 1.379 . S
C1502 N1510 1.356 . S
C1503 C1502 1.363 . S
C1503 C1509 1.363 . S
C1504 C1505 1.363 . S
C1504 C1509 1.379 . S
C1504 N1511 1.356 . S
C1505 C1504 1.363 . S
C1505 C1508 1.363 . S
N1506 C1508 1.356 . S
N1506 H1518 0.984 . S
N1506 H1519 0.985 . S
N1507 C1509 1.356 . S
N1507 H1512 0.984 . S
N1507 H1513 0.985 . S
C1508 C1502 1.379 . S
C1508 C1505 1.363 . S
C1508 N1506 1.356 . S
C1509 C1503 1.363 . S
C1509 C1504 1.379 . S
C1509 N1507 1.356 . S
N1510 C1502 1.356 . S
N1510 H1516 0.984 . S
N1510 H1517 0.984 . S
N1511 C1504 1.356 . S
N1511 H1514 0.984 . S
N1511 H1515 0.985 . S
H1512 N1507 0.984 . S
H1513 N1507 0.985 . S
H1514 N1511 0.984 . S
H1515 N1511 0.985 . S
H1516 N1510 0.984 . S
H1517 N1510 0.984 . S
H1518 N1506 0.984 . S
H1519 N1506 0.985 . S
C1520 C1521 1.363 . S
C1520 C1526 1.379 . S
C1520 N1528 1.356 . S
C1521 C1520 1.363 . S
C1521 C1527 1.363 . S
C1522 C1523 1.363 . S
C1522 C1527 1.379 . S
C1522 N1529 1.356 . S
C1523 C1522 1.363 . S
C1523 C1526 1.363 . S
N1524 C1526 1.356 . S
N1524 H1536 0.984 . S
N1524 H1537 0.985 . S
N1525 C1527 1.356 . S
N1525 H1530 0.984 . S
N1525 H1531 0.985 . S
C1526 C1520 1.379 . S
C1526 C1523 1.363 . S
C1526 N1524 1.356 . S
C1527 C1521 1.363 . S
C1527 C1522 1.379 . S
C1527 N1525 1.356 . S
N1528 C1520 1.356 . S
N1528 H1534 0.984 . S
N1528 H1535 0.984 . S
N1529 C1522 1.356 . S
N1529 H1532 0.984 . S
N1529 H1533 0.985 . S
H1530 N1525 0.984 . S
H1531 N1525 0.985 . S
H1532 N1529 0.984 . S
H1533 N1529 0.985 . S
H1534 N1528 0.984 . S
H1535 N1528 0.984 . S
H1536 N1524 0.984 . S
H1537 N1524 0.985 . S
C1538 C1539 1.363 . S
C1538 C1544 1.379 . S
C1538 N1546 1.356 . S
C1539 C1538 1.363 . S
C1539 C1545 1.363 . S
C1540 C1541 1.363 . S
C1540 C1545 1.379 . S
C1540 N1547 1.356 . S
C1541 C1540 1.363 . S
C1541 C1544 1.363 . S
N1542 C1544 1.356 . S
N1542 H1554 0.984 . S
N1542 H1555 0.985 . S
N1543 C1545 1.356 . S
N1543 H1548 0.984 . S
N1543 H1549 0.985 . S
C1544 C1538 1.379 . S
C1544 C1541 1.363 . S
C1544 N1542 1.356 . S
C1545 C1539 1.363 . S
C1545 C1540 1.379 . S
C1545 N1543 1.356 . S
N1546 C1538 1.356 . S
N1546 H1552 0.984 . S
N1546 H1553 0.984 . S
N1547 C1540 1.356 . S
N1547 H1550 0.984 . S
N1547 H1551 0.985 . S
H1548 N1543 0.984 . S
H1549 N1543 0.985 . S
H1550 N1547 0.984 . S
H1551 N1547 0.985 . S
H1552 N1546 0.984 . S
H1553 N1546 0.984 . S
H1554 N1542 0.984 . S
H1555 N1542 0.985 . S
C1556 C1557 1.363 1_655 S
C1556 C1562 1.379 . S
C1556 N1564 1.356 . S
C1557 C1556 1.363 1_455 S
C1557 C1563 1.363 . S
C1558 C1559 1.363 . S
C1558 C1563 1.379 . S
C1558 N1565 1.356 . S
C1559 C1558 1.363 . S
C1559 C1562 1.363 1_455 S
N1560 C1562 1.356 1_554 S
N1560 H1572 0.984 . S
N1560 H1573 0.985 . S
N1561 C1563 1.356 . S
N1561 H1566 0.984 . S
N1561 H1567 0.985 . S
C1562 C1556 1.379 . S
C1562 C1559 1.363 1_655 S
C1562 N1560 1.356 1_556 S
C1563 C1557 1.363 . S
C1563 C1558 1.379 . S
C1563 N1561 1.356 . S
N1564 C1556 1.356 . S
N1564 H1570 0.984 . S
N1564 H1571 0.984 . S
N1565 C1558 1.356 . S
N1565 H1568 0.984 . S
N1565 H1569 0.985 . S
H1566 N1561 0.984 . S
H1567 N1561 0.985 . S
H1568 N1565 0.984 . S
H1569 N1565 0.985 . S
H1570 N1564 0.984 . S
H1571 N1564 0.984 . S
H1572 N1560 0.984 . S
H1573 N1560 0.985 . S
C1574 C1575 1.363 . S
C1574 C1580 1.379 . S
C1574 N1582 1.356 . S
C1575 C1574 1.363 . S
C1575 C1581 1.363 . S
C1576 C1577 1.363 . S
C1576 C1581 1.379 . S
C1576 N1583 1.356 . S
C1577 C1576 1.363 . S
C1577 C1580 1.363 . S
N1578 C1580 1.356 . S
N1578 H1590 0.984 . S
N1578 H1591 0.985 . S
N1579 C1581 1.356 . S
N1579 H1584 0.984 . S
N1579 H1585 0.985 . S
C1580 C1574 1.379 . S
C1580 C1577 1.363 . S
C1580 N1578 1.356 . S
C1581 C1575 1.363 . S
C1581 C1576 1.379 . S
C1581 N1579 1.356 . S
N1582 C1574 1.356 . S
N1582 H1588 0.984 . S
N1582 H1589 0.984 . S
N1583 C1576 1.356 . S
N1583 H1586 0.984 . S
N1583 H1587 0.985 . S
H1584 N1579 0.984 . S
H1585 N1579 0.985 . S
H1586 N1583 0.984 . S
H1587 N1583 0.985 . S
H1588 N1582 0.984 . S
H1589 N1582 0.984 . S
H1590 N1578 0.984 . S
H1591 N1578 0.985 . S
C1592 C1593 1.363 . S
C1592 C1598 1.379 . S
C1592 N1600 1.356 . S
C1593 C1592 1.363 . S
C1593 C1599 1.363 . S
C1594 C1595 1.363 . S
C1594 C1599 1.379 . S
C1594 N1601 1.356 . S
C1595 C1594 1.363 . S
C1595 C1598 1.363 . S
N1596 C1598 1.356 . S
N1596 H1608 0.984 . S
N1596 H1609 0.985 . S
N1597 C1599 1.356 . S
N1597 H1602 0.984 . S
N1597 H1603 0.985 . S
C1598 C1592 1.379 . S
C1598 C1595 1.363 . S
C1598 N1596 1.356 . S
C1599 C1593 1.363 . S
C1599 C1594 1.379 . S
C1599 N1597 1.356 . S
N1600 C1592 1.356 . S
N1600 H1606 0.984 . S
N1600 H1607 0.984 . S
N1601 C1594 1.356 . S
N1601 H1604 0.984 . S
N1601 H1605 0.985 . S
H1602 N1597 0.984 . S
H1603 N1597 0.985 . S
H1604 N1601 0.984 . S
H1605 N1601 0.985 . S
H1606 N1600 0.984 . S
H1607 N1600 0.984 . S
H1608 N1596 0.984 . S
H1609 N1596 0.985 . S
C1610 C1611 1.363 . S
C1610 C1616 1.379 . S
C1610 N1618 1.356 . S
C1611 C1610 1.363 . S
C1611 C1617 1.363 . S
C1612 C1613 1.363 . S
C1612 C1617 1.379 . S
C1612 N1619 1.356 . S
C1613 C1612 1.363 . S
C1613 C1616 1.363 . S
N1614 C1616 1.356 . S
N1614 H1626 0.984 . S
N1614 H1627 0.985 . S
N1615 C1617 1.356 . S
N1615 H1620 0.984 . S
N1615 H1621 0.985 . S
C1616 C1610 1.379 . S
C1616 C1613 1.363 . S
C1616 N1614 1.356 . S
C1617 C1611 1.363 . S
C1617 C1612 1.379 . S
C1617 N1615 1.356 . S
N1618 C1610 1.356 . S
N1618 H1624 0.984 . S
N1618 H1625 0.984 . S
N1619 C1612 1.356 . S
N1619 H1622 0.984 . S
N1619 H1623 0.985 . S
H1620 N1615 0.984 . S
H1621 N1615 0.985 . S
H1622 N1619 0.984 . S
H1623 N1619 0.985 . S
H1624 N1618 0.984 . S
H1625 N1618 0.984 . S
H1626 N1614 0.984 . S
H1627 N1614 0.985 . S
C1628 C1629 1.364 . S
C1628 C1634 1.379 . S
C1628 N1636 1.356 . S
C1629 C1628 1.364 . S
C1629 C1635 1.361 1_655 S
C1630 C1631 1.363 . S
C1630 C1635 1.379 . S
C1630 N1637 1.356 . S
C1631 C1630 1.363 . S
C1631 C1634 1.363 1_455 S
N1632 C1634 1.356 . S
N1632 H1644 0.984 . S
N1632 H1645 0.985 . S
N1633 C1635 1.356 . S
N1633 H1638 0.984 . S
N1633 H1639 0.985 . S
C1634 C1628 1.379 . S
C1634 C1631 1.363 1_655 S
C1634 N1632 1.356 . S
C1635 C1629 1.361 1_455 S
C1635 C1630 1.379 . S
C1635 N1633 1.356 . S
N1636 C1628 1.356 . S
N1636 H1642 0.984 . S
N1636 H1643 0.984 . S
N1637 C1630 1.356 . S
N1637 H1640 0.984 . S
N1637 H1641 0.985 . S
H1638 N1633 0.984 . S
H1639 N1633 0.985 . S
H1640 N1637 0.984 . S
H1641 N1637 0.985 . S
H1642 N1636 0.984 . S
H1643 N1636 0.984 . S
H1644 N1632 0.984 . S
H1645 N1632 0.985 . S
C1646 C1647 1.363 . S
C1646 C1652 1.379 . S
C1646 N1654 1.356 . S
C1647 C1646 1.363 . S
C1647 C1653 1.363 . S
C1648 C1649 1.363 . S
C1648 C1653 1.379 . S
C1648 N1655 1.356 . S
C1649 C1648 1.363 . S
C1649 C1652 1.363 . S
N1650 C1652 1.356 . S
N1650 H1662 0.984 . S
N1650 H1663 0.985 . S
N1651 C1653 1.356 . S
N1651 H1656 0.984 . S
N1651 H1657 0.985 . S
C1652 C1646 1.379 . S
C1652 C1649 1.363 . S
C1652 N1650 1.356 . S
C1653 C1647 1.363 . S
C1653 C1648 1.379 . S
C1653 N1651 1.356 . S
N1654 C1646 1.356 . S
N1654 H1660 0.984 . S
N1654 H1661 0.984 . S
N1655 C1648 1.356 . S
N1655 H1658 0.984 . S
N1655 H1659 0.985 . S
H1656 N1651 0.984 . S
H1657 N1651 0.985 . S
H1658 N1655 0.984 . S
H1659 N1655 0.985 . S
H1660 N1654 0.984 . S
H1661 N1654 0.984 . S
H1662 N1650 0.984 . S
H1663 N1650 0.985 . S
C1664 C1665 1.363 . S
C1664 C1670 1.379 . S
C1664 N1672 1.356 . S
C1665 C1664 1.363 . S
C1665 C1671 1.363 . S
C1666 C1667 1.363 . S
C1666 C1671 1.379 . S
C1666 N1673 1.356 . S
C1667 C1666 1.363 . S
C1667 C1670 1.363 . S
N1668 C1670 1.356 . S
N1668 H1680 0.984 . S
N1668 H1681 0.985 . S
N1669 C1671 1.356 . S
N1669 H1674 0.984 . S
N1669 H1675 0.985 . S
C1670 C1664 1.379 . S
C1670 C1667 1.363 . S
C1670 N1668 1.356 . S
C1671 C1665 1.363 . S
C1671 C1666 1.379 . S
C1671 N1669 1.356 . S
N1672 C1664 1.356 . S
N1672 H1678 0.984 . S
N1672 H1679 0.984 . S
N1673 C1666 1.356 . S
N1673 H1676 0.984 . S
N1673 H1677 0.985 . S
H1674 N1669 0.984 . S
H1675 N1669 0.985 . S
H1676 N1673 0.984 . S
H1677 N1673 0.985 . S
H1678 N1672 0.984 . S
H1679 N1672 0.984 . S
H1680 N1668 0.984 . S
H1681 N1668 0.985 . S
C1682 C1683 1.363 . S
C1682 C1688 1.379 . S
C1682 N1690 1.356 . S
C1683 C1682 1.363 . S
C1683 C1689 1.363 . S
C1684 C1685 1.363 . S
C1684 C1689 1.379 . S
C1684 N1691 1.356 . S
C1685 C1684 1.363 . S
C1685 C1688 1.363 . S
N1686 C1688 1.356 . S
N1686 H1698 0.984 . S
N1686 H1699 0.985 . S
N1687 C1689 1.356 . S
N1687 H1692 0.984 . S
N1687 H1693 0.985 . S
C1688 C1682 1.379 . S
C1688 C1685 1.363 . S
C1688 N1686 1.356 . S
C1689 C1683 1.363 . S
C1689 C1684 1.379 . S
C1689 N1687 1.356 . S
N1690 C1682 1.356 . S
N1690 H1696 0.984 . S
N1690 H1697 0.984 . S
N1691 C1684 1.356 . S
N1691 H1694 0.984 . S
N1691 H1695 0.985 . S
H1692 N1687 0.984 . S
H1693 N1687 0.985 . S
H1694 N1691 0.984 . S
H1695 N1691 0.985 . S
H1696 N1690 0.984 . S
H1697 N1690 0.984 . S
H1698 N1686 0.984 . S
H1699 N1686 0.985 . S
C1700 C1701 1.363 . S
C1700 C1706 1.379 . S
C1700 N1708 1.356 . S
C1701 C1700 1.363 . S
C1701 C1707 1.363 . S
C1702 C1703 1.363 . S
C1702 C1707 1.379 . S
C1702 N1709 1.356 . S
C1703 C1702 1.363 . S
C1703 C1706 1.363 . S
N1704 C1706 1.356 . S
N1704 H1716 0.984 . S
N1704 H1717 0.985 . S
N1705 C1707 1.356 . S
N1705 H1710 0.984 . S
N1705 H1711 0.985 . S
C1706 C1700 1.379 . S
C1706 C1703 1.363 . S
C1706 N1704 1.356 . S
C1707 C1701 1.363 . S
C1707 C1702 1.379 . S
C1707 N1705 1.356 . S
N1708 C1700 1.356 . S
N1708 H1714 0.984 . S
N1708 H1715 0.984 . S
N1709 C1702 1.356 . S
N1709 H1712 0.984 . S
N1709 H1713 0.985 . S
H1710 N1705 0.984 . S
H1711 N1705 0.985 . S
H1712 N1709 0.984 . S
H1713 N1709 0.985 . S
H1714 N1708 0.984 . S
H1715 N1708 0.984 . S
H1716 N1704 0.984 . S
H1717 N1704 0.985 . S
C1718 C1719 1.363 . S
C1718 C1724 1.379 . S
C1718 N1726 1.356 . S
C1719 C1718 1.363 . S
C1719 C1725 1.363 . S
C1720 C1721 1.363 . S
C1720 C1725 1.379 . S
C1720 N1727 1.356 . S
C1721 C1720 1.363 . S
C1721 C1724 1.363 . S
N1722 C1724 1.356 . S
N1722 H1734 0.984 . S
N1722 H1735 0.985 . S
N1723 C1725 1.356 . S
N1723 H1728 0.984 . S
N1723 H1729 0.985 . S
C1724 C1718 1.379 . S
C1724 C1721 1.363 . S
C1724 N1722 1.356 . S
C1725 C1719 1.363 . S
C1725 C1720 1.379 . S
C1725 N1723 1.356 . S
N1726 C1718 1.356 . S
N1726 H1732 0.984 . S
N1726 H1733 0.984 . S
N1727 C1720 1.356 . S
N1727 H1730 0.984 . S
N1727 H1731 0.985 . S
H1728 N1723 0.984 . S
H1729 N1723 0.985 . S
H1730 N1727 0.984 . S
H1731 N1727 0.985 . S
H1732 N1726 0.984 . S
H1733 N1726 0.984 . S
H1734 N1722 0.984 . S
H1735 N1722 0.985 . S
C1736 C1737 1.363 . S
C1736 C1742 1.379 . S
C1736 N1744 1.356 . S
C1737 C1736 1.363 . S
C1737 C1743 1.363 . S
C1738 C1739 1.363 . S
C1738 C1743 1.379 . S
C1738 N1745 1.356 . S
C1739 C1738 1.363 . S
C1739 C1742 1.363 . S
N1740 C1742 1.356 . S
N1740 H1752 0.984 . S
N1740 H1753 0.985 . S
N1741 C1743 1.356 . S
N1741 H1746 0.984 . S
N1741 H1747 0.985 . S
C1742 C1736 1.379 . S
C1742 C1739 1.363 . S
C1742 N1740 1.356 . S
C1743 C1737 1.363 . S
C1743 C1738 1.379 . S
C1743 N1741 1.356 . S
N1744 C1736 1.356 . S
N1744 H1750 0.984 . S
N1744 H1751 0.984 . S
N1745 C1738 1.356 . S
N1745 H1748 0.984 . S
N1745 H1749 0.985 . S
H1746 N1741 0.984 . S
H1747 N1741 0.985 . S
H1748 N1745 0.984 . S
H1749 N1745 0.985 . S
H1750 N1744 0.984 . S
H1751 N1744 0.984 . S
H1752 N1740 0.984 . S
H1753 N1740 0.985 . S
C1754 C1755 1.363 . S
C1754 C1760 1.379 . S
C1754 N1762 1.356 . S
C1755 C1754 1.363 . S
C1755 C1761 1.363 . S
C1756 C1757 1.363 . S
C1756 C1761 1.379 . S
C1756 N1763 1.356 . S
C1757 C1756 1.363 . S
C1757 C1760 1.363 . S
N1758 C1760 1.356 . S
N1758 H1770 0.984 . S
N1758 H1771 0.985 . S
N1759 C1761 1.356 . S
N1759 H1764 0.984 . S
N1759 H1765 0.985 . S
C1760 C1754 1.379 . S
C1760 C1757 1.363 . S
C1760 N1758 1.356 . S
C1761 C1755 1.363 . S
C1761 C1756 1.379 . S
C1761 N1759 1.356 . S
N1762 C1754 1.356 . S
N1762 H1768 0.984 . S
N1762 H1769 0.984 . S
N1763 C1756 1.356 . S
N1763 H1766 0.984 . S
N1763 H1767 0.985 . S
H1764 N1759 0.984 . S
H1765 N1759 0.985 . S
H1766 N1763 0.984 . S
H1767 N1763 0.985 . S
H1768 N1762 0.984 . S
H1769 N1762 0.984 . S
H1770 N1758 0.984 . S
H1771 N1758 0.985 . S
C1772 C1773 1.363 . S
C1772 C1778 1.379 . S
C1772 N1780 1.356 . S
C1773 C1772 1.363 . S
C1773 C1779 1.363 . S
C1774 C1775 1.363 . S
C1774 C1779 1.379 . S
C1774 N1781 1.356 . S
C1775 C1774 1.363 . S
C1775 C1778 1.363 . S
N1776 C1778 1.356 . S
N1776 H1788 0.984 . S
N1776 H1789 0.985 . S
N1777 C1779 1.356 . S
N1777 H1782 0.984 . S
N1777 H1783 0.985 . S
C1778 C1772 1.379 . S
C1778 C1775 1.363 . S
C1778 N1776 1.356 . S
C1779 C1773 1.363 . S
C1779 C1774 1.379 . S
C1779 N1777 1.356 . S
N1780 C1772 1.356 . S
N1780 H1786 0.984 . S
N1780 H1787 0.984 . S
N1781 C1774 1.356 . S
N1781 H1784 0.984 . S
N1781 H1785 0.985 . S
H1782 N1777 0.984 . S
H1783 N1777 0.985 . S
H1784 N1781 0.984 . S
H1785 N1781 0.985 . S
H1786 N1780 0.984 . S
H1787 N1780 0.984 . S
H1788 N1776 0.984 . S
H1789 N1776 0.985 . S
C1790 C1791 1.363 . S
C1790 C1796 1.379 . S
C1790 N1798 1.356 . S
C1791 C1790 1.363 . S
C1791 C1797 1.363 . S
C1792 C1793 1.363 . S
C1792 C1797 1.379 . S
C1792 N1799 1.356 . S
C1793 C1792 1.363 . S
C1793 C1796 1.363 . S
N1794 C1796 1.356 . S
N1794 H1806 0.984 . S
N1794 H1807 0.985 . S
N1795 C1797 1.356 . S
N1795 H1800 0.984 . S
N1795 H1801 0.985 . S
C1796 C1790 1.379 . S
C1796 C1793 1.363 . S
C1796 N1794 1.356 . S
C1797 C1791 1.363 . S
C1797 C1792 1.379 . S
C1797 N1795 1.356 . S
N1798 C1790 1.356 . S
N1798 H1804 0.984 . S
N1798 H1805 0.984 . S
N1799 C1792 1.356 . S
N1799 H1802 0.984 . S
N1799 H1803 0.985 . S
H1800 N1795 0.984 . S
H1801 N1795 0.985 . S
H1802 N1799 0.984 . S
H1803 N1799 0.985 . S
H1804 N1798 0.984 . S
H1805 N1798 0.984 . S
H1806 N1794 0.984 . S
H1807 N1794 0.985 . S
C1808 C1809 1.363 . S
C1808 C1814 1.379 . S
C1808 N1816 1.356 . S
C1809 C1808 1.363 . S
C1809 C1815 1.363 . S
C1810 C1811 1.363 . S
C1810 C1815 1.379 . S
C1810 N1817 1.356 . S
C1811 C1810 1.363 . S
C1811 C1814 1.363 . S
N1812 C1814 1.356 . S
N1812 H1824 0.984 . S
N1812 H1825 0.985 . S
N1813 C1815 1.356 . S
N1813 H1818 0.984 . S
N1813 H1819 0.985 . S
C1814 C1808 1.379 . S
C1814 C1811 1.363 . S
C1814 N1812 1.356 . S
C1815 C1809 1.363 . S
C1815 C1810 1.379 . S
C1815 N1813 1.356 . S
N1816 C1808 1.356 . S
N1816 H1822 0.984 . S
N1816 H1823 0.984 . S
N1817 C1810 1.356 . S
N1817 H1820 0.984 . S
N1817 H1821 0.985 . S
H1818 N1813 0.984 . S
H1819 N1813 0.985 . S
H1820 N1817 0.984 . S
H1821 N1817 0.985 . S
H1822 N1816 0.984 . S
H1823 N1816 0.984 . S
H1824 N1812 0.984 . S
H1825 N1812 0.985 . S
C1826 C1827 1.363 . S
C1826 C1832 1.379 . S
C1826 N1834 1.356 . S
C1827 C1826 1.363 . S
C1827 C1833 1.363 . S
C1828 C1829 1.363 . S
C1828 C1833 1.379 . S
C1828 N1835 1.356 . S
C1829 C1828 1.363 . S
C1829 C1832 1.363 . S
N1830 C1832 1.356 . S
N1830 H1842 0.984 . S
N1830 H1843 0.985 . S
N1831 C1833 1.356 . S
N1831 H1836 0.984 . S
N1831 H1837 0.985 . S
C1832 C1826 1.379 . S
C1832 C1829 1.363 . S
C1832 N1830 1.356 . S
C1833 C1827 1.363 . S
C1833 C1828 1.379 . S
C1833 N1831 1.356 . S
N1834 C1826 1.356 . S
N1834 H1840 0.984 . S
N1834 H1841 0.984 . S
N1835 C1828 1.356 . S
N1835 H1838 0.984 . S
N1835 H1839 0.985 . S
H1836 N1831 0.984 . S
H1837 N1831 0.985 . S
H1838 N1835 0.984 . S
H1839 N1835 0.985 . S
H1840 N1834 0.984 . S
H1841 N1834 0.984 . S
H1842 N1830 0.984 . S
H1843 N1830 0.985 . S
C1844 C1845 1.363 . S
C1844 C1850 1.379 . S
C1844 N1852 1.356 . S
C1845 C1844 1.363 . S
C1845 C1851 1.363 . S
C1846 C1847 1.363 . S
C1846 C1851 1.379 . S
C1846 N1853 1.356 . S
C1847 C1846 1.363 . S
C1847 C1850 1.363 . S
N1848 C1850 1.356 . S
N1848 H1860 0.984 . S
N1848 H1861 0.985 . S
N1849 C1851 1.356 . S
N1849 H1854 0.984 . S
N1849 H1855 0.985 . S
C1850 C1844 1.379 . S
C1850 C1847 1.363 . S
C1850 N1848 1.356 . S
C1851 C1845 1.363 . S
C1851 C1846 1.379 . S
C1851 N1849 1.356 . S
N1852 C1844 1.356 . S
N1852 H1858 0.984 . S
N1852 H1859 0.984 . S
N1853 C1846 1.356 . S
N1853 H1856 0.984 . S
N1853 H1857 0.985 . S
H1854 N1849 0.984 . S
H1855 N1849 0.985 . S
H1856 N1853 0.984 . S
H1857 N1853 0.985 . S
H1858 N1852 0.984 . S
H1859 N1852 0.984 . S
H1860 N1848 0.984 . S
H1861 N1848 0.985 . S
C1862 C1863 1.363 1_556 S
C1862 C1868 1.379 . S
C1862 N1870 1.356 . S
C1863 C1862 1.363 1_554 S
C1863 C1869 1.363 . S
C1864 C1865 1.363 . S
C1864 C1869 1.379 . S
C1864 N1871 1.356 . S
C1865 C1864 1.363 . S
C1865 C1868 1.363 1_554 S
N1866 C1868 1.356 . S
N1866 H1878 0.984 . S
N1866 H1879 0.985 1_565 S
N1867 C1869 1.356 . S
N1867 H1872 0.984 . S
N1867 H1873 0.985 . S
C1868 C1862 1.379 . S
C1868 C1865 1.363 1_556 S
C1868 N1866 1.356 . S
C1869 C1863 1.363 . S
C1869 C1864 1.379 . S
C1869 N1867 1.356 . S
N1870 C1862 1.356 . S
N1870 H1876 0.984 . S
N1870 H1877 0.984 . S
N1871 C1864 1.356 . S
N1871 H1874 0.984 . S
N1871 H1875 0.985 . S
H1872 N1867 0.984 . S
H1873 N1867 0.985 . S
H1874 N1871 0.984 . S
H1875 N1871 0.985 . S
H1876 N1870 0.984 . S
H1877 N1870 0.984 . S
H1878 N1866 0.984 . S
H1879 N1866 0.985 1_545 S
C1880 C1881 1.363 . S
C1880 C1886 1.379 . S
C1880 N1888 1.356 . S
C1881 C1880 1.363 . S
C1881 C1887 1.363 . S
C1882 C1883 1.363 . S
C1882 C1887 1.379 . S
C1882 N1889 1.356 . S
C1883 C1882 1.363 . S
C1883 C1886 1.363 . S
N1884 C1886 1.356 . S
N1884 H1896 0.984 . S
N1884 H1897 0.985 . S
N1885 C1887 1.356 . S
N1885 H1890 0.984 . S
N1885 H1891 0.985 . S
C1886 C1880 1.379 . S
C1886 C1883 1.363 . S
C1886 N1884 1.356 . S
C1887 C1881 1.363 . S
C1887 C1882 1.379 . S
C1887 N1885 1.356 . S
N1888 C1880 1.356 . S
N1888 H1894 0.984 . S
N1888 H1895 0.984 . S
N1889 C1882 1.356 . S
N1889 H1892 0.984 . S
N1889 H1893 0.985 . S
H1890 N1885 0.984 . S
H1891 N1885 0.985 . S
H1892 N1889 0.984 . S
H1893 N1889 0.985 . S
H1894 N1888 0.984 . S
H1895 N1888 0.984 . S
H1896 N1884 0.984 . S
H1897 N1884 0.985 . S
C1898 C1899 1.363 . S
C1898 C1904 1.379 . S
C1898 N1906 1.356 . S
C1899 C1898 1.363 . S
C1899 C1905 1.363 1_554 S
C1900 C1901 1.363 . S
C1900 C1905 1.379 1_554 S
C1900 N1907 1.356 1_554 S
C1901 C1900 1.363 . S
C1901 C1904 1.363 . S
N1902 C1904 1.356 . S
N1902 H1914 0.984 . S
N1902 H1915 0.985 . S
N1903 C1905 1.356 . S
N1903 H1908 0.984 . S
N1903 H1909 0.985 . S
C1904 C1898 1.379 . S
C1904 C1901 1.363 . S
C1904 N1902 1.356 . S
C1905 C1899 1.363 1_556 S
C1905 C1900 1.379 1_556 S
C1905 N1903 1.356 . S
N1906 C1898 1.356 . S
N1906 H1912 0.984 . S
N1906 H1913 0.984 . S
N1907 C1900 1.356 1_556 S
N1907 H1910 0.988 . S
N1907 H1911 0.985 . S
H1908 N1903 0.984 . S
H1909 N1903 0.985 . S
H1910 N1907 0.988 . S
H1911 N1907 0.985 . S
H1912 N1906 0.984 . S
H1913 N1906 0.984 . S
H1914 N1902 0.984 . S
H1915 N1902 0.985 . S
C1916 C1917 1.363 . S
C1916 C1922 1.379 . S
C1916 N1924 1.356 . S
C1917 C1916 1.363 . S
C1917 C1923 1.363 . S
C1918 C1919 1.363 . S
C1918 C1923 1.379 . S
C1918 N1925 1.356 . S
C1919 C1918 1.363 . S
C1919 C1922 1.363 . S
N1920 C1922 1.356 . S
N1920 H1932 0.984 . S
N1920 H1933 0.985 . S
N1921 C1923 1.356 . S
N1921 H1926 0.984 . S
N1921 H1927 0.985 . S
C1922 C1916 1.379 . S
C1922 C1919 1.363 . S
C1922 N1920 1.356 . S
C1923 C1917 1.363 . S
C1923 C1918 1.379 . S
C1923 N1921 1.356 . S
N1924 C1916 1.356 . S
N1924 H1930 0.984 . S
N1924 H1931 0.984 . S
N1925 C1918 1.356 . S
N1925 H1928 0.984 . S
N1925 H1929 0.985 . S
H1926 N1921 0.984 . S
H1927 N1921 0.985 . S
H1928 N1925 0.984 . S
H1929 N1925 0.985 . S
H1930 N1924 0.984 . S
H1931 N1924 0.984 . S
H1932 N1920 0.984 . S
H1933 N1920 0.985 . S
C1934 C1935 1.363 . S
C1934 C1940 1.379 . S
C1934 N1942 1.356 . S
C1935 C1934 1.363 . S
C1935 C1941 1.363 . S
C1936 C1937 1.363 . S
C1936 C1941 1.379 . S
C1936 N1943 1.356 . S
C1937 C1936 1.363 . S
C1937 C1940 1.363 . S
N1938 C1940 1.356 . S
N1938 H1950 0.984 . S
N1938 H1951 0.985 . S
N1939 C1941 1.356 . S
N1939 H1944 0.984 . S
N1939 H1945 0.985 . S
C1940 C1934 1.379 . S
C1940 C1937 1.363 . S
C1940 N1938 1.356 . S
C1941 C1935 1.363 . S
C1941 C1936 1.379 . S
C1941 N1939 1.356 . S
N1942 C1934 1.356 . S
N1942 H1948 0.984 . S
N1942 H1949 0.984 . S
N1943 C1936 1.356 . S
N1943 H1946 0.984 . S
N1943 H1947 0.985 . S
H1944 N1939 0.984 . S
H1945 N1939 0.985 . S
H1946 N1943 0.984 . S
H1947 N1943 0.985 . S
H1948 N1942 0.984 . S
H1949 N1942 0.984 . S
H1950 N1938 0.984 . S
H1951 N1938 0.985 . S
C1952 C1953 1.363 . S
C1952 C1958 1.379 . S
C1952 N1960 1.356 . S
C1953 C1952 1.363 . S
C1953 C1959 1.363 . S
C1954 C1955 1.363 . S
C1954 C1959 1.379 . S
C1954 N1961 1.356 . S
C1955 C1954 1.363 . S
C1955 C1958 1.363 . S
N1956 C1958 1.356 . S
N1956 H1968 0.984 . S
N1956 H1969 0.985 . S
N1957 C1959 1.356 . S
N1957 H1962 0.984 . S
N1957 H1963 0.985 . S
C1958 C1952 1.379 . S
C1958 C1955 1.363 . S
C1958 N1956 1.356 . S
C1959 C1953 1.363 . S
C1959 C1954 1.379 . S
C1959 N1957 1.356 . S
N1960 C1952 1.356 . S
N1960 H1966 0.984 . S
N1960 H1967 0.984 . S
N1961 C1954 1.356 . S
N1961 H1964 0.984 . S
N1961 H1965 0.985 . S
H1962 N1957 0.984 . S
H1963 N1957 0.985 . S
H1964 N1961 0.984 . S
H1965 N1961 0.985 . S
H1966 N1960 0.984 . S
H1967 N1960 0.984 . S
H1968 N1956 0.984 . S
H1969 N1956 0.985 . S
C1970 C1971 1.363 . S
C1970 C1976 1.379 . S
C1970 N1978 1.356 . S
C1971 C1970 1.363 . S
C1971 C1977 1.363 . S
C1972 C1973 1.363 . S
C1972 C1977 1.379 . S
C1972 N1979 1.356 . S
C1973 C1972 1.363 . S
C1973 C1976 1.363 . S
N1974 C1976 1.356 . S
N1974 H1986 0.984 . S
N1974 H1987 0.985 . S
N1975 C1977 1.356 . S
N1975 H1980 0.984 . S
N1975 H1981 0.985 . S
C1976 C1970 1.379 . S
C1976 C1973 1.363 . S
C1976 N1974 1.356 . S
C1977 C1971 1.363 . S
C1977 C1972 1.379 . S
C1977 N1975 1.356 . S
N1978 C1970 1.356 . S
N1978 H1984 0.984 . S
N1978 H1985 0.984 . S
N1979 C1972 1.356 . S
N1979 H1982 0.984 . S
N1979 H1983 0.985 . S
H1980 N1975 0.984 . S
H1981 N1975 0.985 . S
H1982 N1979 0.984 . S
H1983 N1979 0.985 . S
H1984 N1978 0.984 . S
H1985 N1978 0.984 . S
H1986 N1974 0.984 . S
H1987 N1974 0.985 . S
C1988 C1989 1.363 . S
C1988 C1994 1.379 . S
C1988 N1996 1.356 . S
C1989 C1988 1.363 . S
C1989 C1995 1.363 . S
C1990 C1991 1.363 . S
C1990 C1995 1.379 . S
C1990 N1997 1.358 1_454 S
C1991 C1990 1.363 . S
C1991 C1994 1.363 . S
N1992 C1994 1.356 . S
N1992 H2004 0.984 . S
N1992 H2005 0.985 . S
N1993 C1995 1.356 1_655 S
N1993 H1998 0.984 . S
N1993 H1999 0.985 . S
C1994 C1988 1.379 . S
C1994 C1991 1.363 . S
C1994 N1992 1.356 . S
C1995 C1989 1.363 . S
C1995 C1990 1.379 . S
C1995 N1993 1.356 1_455 S
N1996 C1988 1.356 . S
N1996 H2002 0.984 . S
N1996 H2003 0.984 . S
N1997 C1990 1.358 1_656 S
N1997 H2000 0.984 . S
N1997 H2001 0.984 . S
H1998 N1993 0.984 . S
H1999 N1993 0.985 . S
H2000 N1997 0.984 . S
H2001 N1997 0.984 . S
H2002 N1996 0.984 . S
H2003 N1996 0.984 . S
H2004 N1992 0.984 . S
H2005 N1992 0.985 . S
C2006 C2007 1.363 . S
C2006 C2012 1.379 . S
C2006 N2014 1.356 . S
C2007 C2006 1.363 . S
C2007 C2013 1.363 . S
C2008 C2009 1.363 . S
C2008 C2013 1.379 . S
C2008 N2015 1.356 . S
C2009 C2008 1.363 . S
C2009 C2012 1.363 . S
N2010 C2012 1.356 . S
N2010 H2022 0.984 . S
N2010 H2023 0.985 . S
N2011 C2013 1.356 . S
N2011 H2016 0.984 . S
N2011 H2017 0.985 . S
C2012 C2006 1.379 . S
C2012 C2009 1.363 . S
C2012 N2010 1.356 . S
C2013 C2007 1.363 . S
C2013 C2008 1.379 . S
C2013 N2011 1.356 . S
N2014 C2006 1.356 . S
N2014 H2020 0.984 . S
N2014 H2021 0.984 . S
N2015 C2008 1.356 . S
N2015 H2018 0.984 . S
N2015 H2019 0.985 . S
H2016 N2011 0.984 . S
H2017 N2011 0.985 . S
H2018 N2015 0.984 . S
H2019 N2015 0.985 . S
H2020 N2014 0.984 . S
H2021 N2014 0.984 . S
H2022 N2010 0.984 . S
H2023 N2010 0.985 . S
C2024 C2025 1.363 . S
C2024 C2030 1.379 . S
C2024 N2032 1.356 . S
C2025 C2024 1.363 . S
C2025 C2031 1.363 . S
C2026 C2027 1.363 . S
C2026 C2031 1.379 . S
C2026 N2033 1.356 . S
C2027 C2026 1.363 . S
C2027 C2030 1.363 . S
N2028 C2030 1.356 1_554 S
N2028 H2040 0.984 . S
N2028 H2041 0.985 . S
N2029 C2031 1.356 . S
N2029 H2034 0.984 . S
N2029 H2035 0.985 . S
C2030 C2024 1.379 . S
C2030 C2027 1.363 . S
C2030 N2028 1.356 1_556 S
C2031 C2025 1.363 . S
C2031 C2026 1.379 . S
C2031 N2029 1.356 . S
N2032 C2024 1.356 . S
N2032 H2038 0.984 1_556 S
N2032 H2039 0.984 . S
N2033 C2026 1.356 . S
N2033 H2036 0.984 . S
N2033 H2037 0.985 . S
H2034 N2029 0.984 . S
H2035 N2029 0.985 . S
H2036 N2033 0.984 . S
H2037 N2033 0.985 . S
H2038 N2032 0.984 1_554 S
H2039 N2032 0.984 . S
H2040 N2028 0.984 . S
H2041 N2028 0.985 . S
C2042 C2043 1.363 . S
C2042 C2048 1.379 . S
C2042 N2050 1.356 . S
C2043 C2042 1.363 . S
C2043 C2049 1.363 . S
C2044 C2045 1.363 . S
C2044 C2049 1.379 . S
C2044 N2051 1.356 . S
C2045 C2044 1.363 . S
C2045 C2048 1.363 . S
N2046 C2048 1.356 . S
N2046 H2058 0.984 . S
N2046 H2059 0.985 . S
N2047 C2049 1.356 . S
N2047 H2052 0.984 . S
N2047 H2053 0.985 . S
C2048 C2042 1.379 . S
C2048 C2045 1.363 . S
C2048 N2046 1.356 . S
C2049 C2043 1.363 . S
C2049 C2044 1.379 . S
C2049 N2047 1.356 . S
N2050 C2042 1.356 . S
N2050 H2056 0.984 . S
N2050 H2057 0.984 . S
N2051 C2044 1.356 . S
N2051 H2054 0.984 . S
N2051 H2055 0.985 . S
H2052 N2047 0.984 . S
H2053 N2047 0.985 . S
H2054 N2051 0.984 . S
H2055 N2051 0.985 . S
H2056 N2050 0.984 . S
H2057 N2050 0.984 . S
H2058 N2046 0.984 . S
H2059 N2046 0.985 . S
C2060 C2061 1.363 . S
C2060 C2066 1.379 . S
C2060 N2068 1.356 . S
C2061 C2060 1.363 . S
C2061 C2067 1.363 . S
C2062 C2063 1.363 . S
C2062 C2067 1.379 . S
C2062 N2069 1.356 . S
C2063 C2062 1.363 . S
C2063 C2066 1.363 . S
N2064 C2066 1.356 . S
N2064 H2076 0.984 1_455 S
N2064 H2077 0.985 . S
N2065 C2067 1.356 . S
N2065 H2070 0.984 . S
N2065 H2071 0.985 . S
C2066 C2060 1.379 . S
C2066 C2063 1.363 . S
C2066 N2064 1.356 . S
C2067 C2061 1.363 . S
C2067 C2062 1.379 . S
C2067 N2065 1.356 . S
N2068 C2060 1.356 . S
N2068 H2074 0.983 1_455 S
N2068 H2075 0.984 . S
N2069 C2062 1.356 . S
N2069 H2072 0.984 . S
N2069 H2073 0.985 . S
H2070 N2065 0.984 . S
H2071 N2065 0.985 . S
H2072 N2069 0.984 . S
H2073 N2069 0.985 . S
H2074 N2068 0.983 1_655 S
H2075 N2068 0.984 . S
H2076 N2064 0.984 1_655 S
H2077 N2064 0.985 . S
C2078 C2079 1.363 . S
C2078 C2084 1.379 . S
C2078 N2086 1.356 . S
C2079 C2078 1.363 . S
C2079 C2085 1.363 . S
C2080 C2081 1.363 . S
C2080 C2085 1.379 . S
C2080 N2087 1.356 . S
C2081 C2080 1.363 . S
C2081 C2084 1.363 . S
N2082 C2084 1.356 . S
N2082 H2094 0.984 . S
N2082 H2095 0.985 . S
N2083 C2085 1.356 . S
N2083 H2088 0.984 . S
N2083 H2089 0.985 . S
C2084 C2078 1.379 . S
C2084 C2081 1.363 . S
C2084 N2082 1.356 . S
C2085 C2079 1.363 . S
C2085 C2080 1.379 . S
C2085 N2083 1.356 . S
N2086 C2078 1.356 . S
N2086 H2092 0.984 . S
N2086 H2093 0.984 . S
N2087 C2080 1.356 . S
N2087 H2090 0.984 . S
N2087 H2091 0.985 . S
H2088 N2083 0.984 . S
H2089 N2083 0.985 . S
H2090 N2087 0.984 . S
H2091 N2087 0.985 . S
H2092 N2086 0.984 . S
H2093 N2086 0.984 . S
H2094 N2082 0.984 . S
H2095 N2082 0.985 . S
C2096 C2097 1.363 . S
C2096 C2102 1.379 . S
C2096 N2104 1.356 . S
C2097 C2096 1.363 . S
C2097 C2103 1.363 . S
C2098 C2099 1.363 . S
C2098 C2103 1.379 . S
C2098 N2105 1.356 . S
C2099 C2098 1.363 . S
C2099 C2102 1.363 . S
N2100 C2102 1.356 . S
N2100 H2112 0.984 . S
N2100 H2113 0.985 . S
N2101 C2103 1.356 . S
N2101 H2106 0.984 . S
N2101 H2107 0.985 . S
C2102 C2096 1.379 . S
C2102 C2099 1.363 . S
C2102 N2100 1.356 . S
C2103 C2097 1.363 . S
C2103 C2098 1.379 . S
C2103 N2101 1.356 . S
N2104 C2096 1.356 . S
N2104 H2110 0.984 . S
N2104 H2111 0.984 . S
N2105 C2098 1.356 . S
N2105 H2108 0.984 . S
N2105 H2109 0.985 . S
H2106 N2101 0.984 . S
H2107 N2101 0.985 . S
H2108 N2105 0.984 . S
H2109 N2105 0.985 . S
H2110 N2104 0.984 . S
H2111 N2104 0.984 . S
H2112 N2100 0.984 . S
H2113 N2100 0.985 . S
C2114 C2115 1.363 . S
C2114 C2120 1.379 . S
C2114 N2122 1.356 . S
C2115 C2114 1.363 . S
C2115 C2121 1.363 . S
C2116 C2117 1.363 . S
C2116 C2121 1.379 . S
C2116 N2123 1.356 . S
C2117 C2116 1.363 . S
C2117 C2120 1.363 . S
N2118 C2120 1.356 . S
N2118 H2130 0.984 . S
N2118 H2131 0.985 . S
N2119 C2121 1.356 . S
N2119 H2124 0.984 . S
N2119 H2125 0.985 . S
C2120 C2114 1.379 . S
C2120 C2117 1.363 . S
C2120 N2118 1.356 . S
C2121 C2115 1.363 . S
C2121 C2116 1.379 . S
C2121 N2119 1.356 . S
N2122 C2114 1.356 . S
N2122 H2128 0.984 . S
N2122 H2129 0.984 . S
N2123 C2116 1.356 . S
N2123 H2126 0.984 . S
N2123 H2127 0.985 . S
H2124 N2119 0.984 . S
H2125 N2119 0.985 . S
H2126 N2123 0.984 . S
H2127 N2123 0.985 . S
H2128 N2122 0.984 . S
H2129 N2122 0.984 . S
H2130 N2118 0.984 . S
H2131 N2118 0.985 . S
C2132 C2133 1.363 . S
C2132 C2138 1.379 . S
C2132 N2140 1.356 . S
C2133 C2132 1.363 . S
C2133 C2139 1.363 . S
C2134 C2135 1.363 . S
C2134 C2139 1.379 . S
C2134 N2141 1.356 . S
C2135 C2134 1.363 . S
C2135 C2138 1.363 . S
N2136 C2138 1.356 1_455 S
N2136 H2148 0.984 . S
N2136 H2149 0.985 . S
N2137 C2139 1.356 . S
N2137 H2142 0.984 . S
N2137 H2143 0.985 . S
C2138 C2132 1.379 . S
C2138 C2135 1.363 . S
C2138 N2136 1.356 1_655 S
C2139 C2133 1.363 . S
C2139 C2134 1.379 . S
C2139 N2137 1.356 . S
N2140 C2132 1.356 . S
N2140 H2146 0.984 . S
N2140 H2147 0.984 . S
N2141 C2134 1.356 . S
N2141 H2144 0.984 . S
N2141 H2145 0.985 . S
H2142 N2137 0.984 . S
H2143 N2137 0.985 . S
H2144 N2141 0.984 . S
H2145 N2141 0.985 . S
H2146 N2140 0.984 . S
H2147 N2140 0.984 . S
H2148 N2136 0.984 . S
H2149 N2136 0.985 . S
C2150 C2151 1.363 . S
C2150 C2156 1.379 . S
C2150 N2158 1.356 . S
C2151 C2150 1.363 . S
C2151 C2157 1.363 . S
C2152 C2153 1.363 . S
C2152 C2157 1.379 . S
C2152 N2159 1.356 . S
C2153 C2152 1.363 . S
C2153 C2156 1.363 . S
N2154 C2156 1.356 . S
N2154 H2166 0.984 . S
N2154 H2167 0.985 . S
N2155 C2157 1.356 . S
N2155 H2160 0.984 . S
N2155 H2161 0.985 . S
C2156 C2150 1.379 . S
C2156 C2153 1.363 . S
C2156 N2154 1.356 . S
C2157 C2151 1.363 . S
C2157 C2152 1.379 . S
C2157 N2155 1.356 . S
N2158 C2150 1.356 . S
N2158 H2164 0.984 . S
N2158 H2165 0.984 . S
N2159 C2152 1.356 . S
N2159 H2162 0.984 . S
N2159 H2163 0.985 . S
H2160 N2155 0.984 . S
H2161 N2155 0.985 . S
H2162 N2159 0.984 . S
H2163 N2159 0.985 . S
H2164 N2158 0.984 . S
H2165 N2158 0.984 . S
H2166 N2154 0.984 . S
H2167 N2154 0.985 . S
C2168 C2169 1.363 . S
C2168 C2174 1.379 . S
C2168 N2176 1.356 . S
C2169 C2168 1.363 . S
C2169 C2175 1.363 . S
C2170 C2171 1.363 . S
C2170 C2175 1.379 . S
C2170 N2177 1.356 . S
C2171 C2170 1.363 . S
C2171 C2174 1.363 . S
N2172 C2174 1.356 . S
N2172 H2184 0.984 . S
N2172 H2185 0.985 . S
N2173 C2175 1.356 . S
N2173 H2178 0.984 . S
N2173 H2179 0.985 . S
C2174 C2168 1.379 . S
C2174 C2171 1.363 . S
C2174 N2172 1.356 . S
C2175 C2169 1.363 . S
C2175 C2170 1.379 . S
C2175 N2173 1.356 . S
N2176 C2168 1.356 . S
N2176 H2182 0.984 . S
N2176 H2183 0.984 . S
N2177 C2170 1.356 . S
N2177 H2180 0.984 . S
N2177 H2181 0.985 . S
H2178 N2173 0.984 . S
H2179 N2173 0.985 . S
H2180 N2177 0.984 . S
H2181 N2177 0.985 . S
H2182 N2176 0.984 . S
H2183 N2176 0.984 . S
H2184 N2172 0.984 . S
H2185 N2172 0.985 . S
C2186 C2187 1.363 . S
C2186 C2192 1.379 . S
C2186 N2194 1.356 . S
C2187 C2186 1.363 . S
C2187 C2193 1.363 . S
C2188 C2189 1.363 . S
C2188 C2193 1.379 . S
C2188 N2195 1.356 . S
C2189 C2188 1.363 . S
C2189 C2192 1.363 . S
N2190 C2192 1.356 . S
N2190 H2202 0.984 . S
N2190 H2203 0.985 . S
N2191 C2193 1.356 . S
N2191 H2196 0.984 . S
N2191 H2197 0.985 . S
C2192 C2186 1.379 . S
C2192 C2189 1.363 . S
C2192 N2190 1.356 . S
C2193 C2187 1.363 . S
C2193 C2188 1.379 . S
C2193 N2191 1.356 . S
N2194 C2186 1.356 . S
N2194 H2200 0.984 . S
N2194 H2201 0.984 . S
N2195 C2188 1.356 . S
N2195 H2198 0.984 . S
N2195 H2199 0.985 . S
H2196 N2191 0.984 . S
H2197 N2191 0.985 . S
H2198 N2195 0.984 . S
H2199 N2195 0.985 . S
H2200 N2194 0.984 . S
H2201 N2194 0.984 . S
H2202 N2190 0.984 . S
H2203 N2190 0.985 . S
C2204 C2205 1.363 . S
C2204 C2210 1.379 . S
C2204 N2212 1.356 . S
C2205 C2204 1.363 . S
C2205 C2211 1.363 . S
C2206 C2207 1.363 . S
C2206 C2211 1.379 . S
C2206 N2213 1.356 . S
C2207 C2206 1.363 . S
C2207 C2210 1.363 . S
N2208 C2210 1.356 . S
N2208 H2220 0.984 1_655 S
N2208 H2221 0.985 . S
N2209 C2211 1.356 . S
N2209 H2214 0.984 . S
N2209 H2215 0.985 . S
C2210 C2204 1.379 . S
C2210 C2207 1.363 . S
C2210 N2208 1.356 . S
C2211 C2205 1.363 . S
C2211 C2206 1.379 . S
C2211 N2209 1.356 . S
N2212 C2204 1.356 . S
N2212 H2218 0.984 . S
N2212 H2219 0.984 . S
N2213 C2206 1.356 . S
N2213 H2216 0.984 . S
N2213 H2217 0.985 . S
H2214 N2209 0.984 . S
H2215 N2209 0.985 . S
H2216 N2213 0.984 . S
H2217 N2213 0.985 . S
H2218 N2212 0.984 . S
H2219 N2212 0.984 . S
H2220 N2208 0.984 1_455 S
H2221 N2208 0.985 . S
C2222 C2223 1.363 . S
C2222 C2228 1.379 . S
C2222 N2230 1.356 . S
C2223 C2222 1.363 . S
C2223 C2229 1.363 . S
C2224 C2225 1.363 . S
C2224 C2229 1.379 . S
C2224 N2231 1.356 . S
C2225 C2224 1.363 . S
C2225 C2228 1.363 . S
N2226 C2228 1.356 . S
N2226 H2238 0.984 . S
N2226 H2239 0.985 . S
N2227 C2229 1.356 . S
N2227 H2232 0.984 . S
N2227 H2233 0.985 . S
C2228 C2222 1.379 . S
C2228 C2225 1.363 . S
C2228 N2226 1.356 . S
C2229 C2223 1.363 . S
C2229 C2224 1.379 . S
C2229 N2227 1.356 . S
N2230 C2222 1.356 . S
N2230 H2236 0.984 . S
N2230 H2237 0.984 . S
N2231 C2224 1.356 . S
N2231 H2234 0.984 . S
N2231 H2235 0.985 . S
H2232 N2227 0.984 . S
H2233 N2227 0.985 . S
H2234 N2231 0.984 . S
H2235 N2231 0.985 . S
H2236 N2230 0.984 . S
H2237 N2230 0.984 . S
H2238 N2226 0.984 . S
H2239 N2226 0.985 . S
C2240 C2241 1.363 . S
C2240 C2246 1.379 . S
C2240 N2248 1.356 . S
C2241 C2240 1.363 . S
C2241 C2247 1.363 . S
C2242 C2243 1.363 . S
C2242 C2247 1.379 . S
C2242 N2249 1.356 . S
C2243 C2242 1.363 . S
C2243 C2246 1.363 . S
N2244 C2246 1.356 . S
N2244 H2256 0.984 . S
N2244 H2257 0.985 . S
N2245 C2247 1.356 . S
N2245 H2250 0.984 . S
N2245 H2251 0.985 . S
C2246 C2240 1.379 . S
C2246 C2243 1.363 . S
C2246 N2244 1.356 . S
C2247 C2241 1.363 . S
C2247 C2242 1.379 . S
C2247 N2245 1.356 . S
N2248 C2240 1.356 . S
N2248 H2254 0.984 . S
N2248 H2255 0.984 . S
N2249 C2242 1.356 . S
N2249 H2252 0.984 . S
N2249 H2253 0.985 . S
H2250 N2245 0.984 . S
H2251 N2245 0.985 . S
H2252 N2249 0.984 . S
H2253 N2249 0.985 . S
H2254 N2248 0.984 . S
H2255 N2248 0.984 . S
H2256 N2244 0.984 . S
H2257 N2244 0.985 . S
C2258 C2259 1.363 . S
C2258 C2264 1.379 . S
C2258 N2266 1.356 . S
C2259 C2258 1.363 . S
C2259 C2265 1.363 . S
C2260 C2261 1.363 . S
C2260 C2265 1.379 . S
C2260 N2267 1.356 . S
C2261 C2260 1.363 . S
C2261 C2264 1.363 . S
N2262 C2264 1.356 1_545 S
N2262 H2274 0.984 . S
N2262 H2275 0.985 . S
N2263 C2265 1.356 . S
N2263 H2268 0.984 . S
N2263 H2269 0.985 . S
C2264 C2258 1.379 . S
C2264 C2261 1.363 . S
C2264 N2262 1.356 1_565 S
C2265 C2259 1.363 . S
C2265 C2260 1.379 . S
C2265 N2263 1.356 . S
N2266 C2258 1.356 . S
N2266 H2272 0.984 . S
N2266 H2273 0.984 . S
N2267 C2260 1.356 . S
N2267 H2270 0.984 . S
N2267 H2271 0.985 . S
H2268 N2263 0.984 . S
H2269 N2263 0.985 . S
H2270 N2267 0.984 . S
H2271 N2267 0.985 . S
H2272 N2266 0.984 . S
H2273 N2266 0.984 . S
H2274 N2262 0.984 . S
H2275 N2262 0.985 . S
C2276 C2277 1.363 . S
C2276 C2282 1.379 . S
C2276 N2284 1.356 . S
C2277 C2276 1.363 . S
C2277 C2283 1.363 . S
C2278 C2279 1.363 . S
C2278 C2283 1.379 . S
C2278 N2285 1.356 . S
C2279 C2278 1.363 . S
C2279 C2282 1.363 . S
N2280 C2282 1.356 . S
N2280 H2292 0.984 . S
N2280 H2293 0.985 . S
N2281 C2283 1.356 . S
N2281 H2286 0.984 . S
N2281 H2287 0.985 . S
C2282 C2276 1.379 . S
C2282 C2279 1.363 . S
C2282 N2280 1.356 . S
C2283 C2277 1.363 . S
C2283 C2278 1.379 . S
C2283 N2281 1.356 . S
N2284 C2276 1.356 . S
N2284 H2290 0.984 . S
N2284 H2291 0.984 . S
N2285 C2278 1.356 . S
N2285 H2288 0.984 . S
N2285 H2289 0.985 . S
H2286 N2281 0.984 . S
H2287 N2281 0.985 . S
H2288 N2285 0.984 . S
H2289 N2285 0.985 . S
H2290 N2284 0.984 . S
H2291 N2284 0.984 . S
H2292 N2280 0.984 . S
H2293 N2280 0.985 . S
C2294 C2295 1.363 1_556 S
C2294 C2300 1.379 . S
C2294 N2302 1.356 . S
C2295 C2294 1.363 1_554 S
C2295 C2301 1.363 . S
C2296 C2297 1.363 . S
C2296 C2301 1.379 . S
C2296 N2303 1.356 . S
C2297 C2296 1.363 . S
C2297 C2300 1.363 1_554 S
N2298 C2300 1.356 . S
N2298 H2310 0.984 . S
N2298 H2311 0.985 . S
N2299 C2301 1.356 . S
N2299 H2304 0.984 . S
N2299 H2305 0.985 . S
C2300 C2294 1.379 . S
C2300 C2297 1.363 1_556 S
C2300 N2298 1.356 . S
C2301 C2295 1.363 . S
C2301 C2296 1.379 . S
C2301 N2299 1.356 . S
N2302 C2294 1.356 . S
N2302 H2308 0.984 . S
N2302 H2309 0.984 . S
N2303 C2296 1.356 . S
N2303 H2306 0.984 . S
N2303 H2307 0.985 . S
H2304 N2299 0.984 . S
H2305 N2299 0.985 . S
H2306 N2303 0.984 . S
H2307 N2303 0.985 . S
H2308 N2302 0.984 . S
H2309 N2302 0.984 . S
H2310 N2298 0.984 . S
H2311 N2298 0.985 . S
C2312 C2313 1.363 . S
C2312 C2318 1.379 . S
C2312 N2320 1.356 . S
C2313 C2312 1.363 . S
C2313 C2319 1.363 . S
C2314 C2315 1.363 . S
C2314 C2319 1.379 . S
C2314 N2321 1.356 . S
C2315 C2314 1.363 . S
C2315 C2318 1.363 . S
N2316 C2318 1.356 . S
N2316 H2328 0.984 . S
N2316 H2329 0.985 . S
N2317 C2319 1.356 . S
N2317 H2322 0.984 . S
N2317 H2323 0.985 . S
C2318 C2312 1.379 . S
C2318 C2315 1.363 . S
C2318 N2316 1.356 . S
C2319 C2313 1.363 . S
C2319 C2314 1.379 . S
C2319 N2317 1.356 . S
N2320 C2312 1.356 . S
N2320 H2326 0.984 . S
N2320 H2327 0.984 . S
N2321 C2314 1.356 . S
N2321 H2324 0.984 . S
N2321 H2325 0.985 . S
H2322 N2317 0.984 . S
H2323 N2317 0.985 . S
H2324 N2321 0.984 . S
H2325 N2321 0.985 . S
H2326 N2320 0.984 . S
H2327 N2320 0.984 . S
H2328 N2316 0.984 . S
H2329 N2316 0.985 . S
C2330 C2331 1.363 . S
C2330 C2336 1.379 . S
C2330 N2338 1.356 . S
C2331 C2330 1.363 . S
C2331 C2337 1.363 1_554 S
C2332 C2333 1.363 . S
C2332 C2337 1.379 . S
C2332 N2339 1.356 . S
C2333 C2332 1.363 . S
C2333 C2336 1.363 1_556 S
N2334 C2336 1.356 . S
N2334 H2346 0.984 . S
N2334 H2347 0.985 . S
N2335 C2337 1.356 . S
N2335 H2340 0.984 . S
N2335 H2341 0.985 . S
C2336 C2330 1.379 . S
C2336 C2333 1.363 1_554 S
C2336 N2334 1.356 . S
C2337 C2331 1.363 1_556 S
C2337 C2332 1.379 . S
C2337 N2335 1.356 . S
N2338 C2330 1.356 . S
N2338 H2344 0.984 . S
N2338 H2345 0.984 . S
N2339 C2332 1.356 . S
N2339 H2342 0.984 . S
N2339 H2343 0.985 . S
H2340 N2335 0.984 . S
H2341 N2335 0.985 . S
H2342 N2339 0.984 . S
H2343 N2339 0.985 . S
H2344 N2338 0.984 . S
H2345 N2338 0.984 . S
H2346 N2334 0.984 . S
H2347 N2334 0.985 . S
C2348 C2349 1.363 . S
C2348 C2354 1.379 . S
C2348 N2356 1.356 . S
C2349 C2348 1.363 . S
C2349 C2355 1.363 . S
C2350 C2351 1.363 . S
C2350 C2355 1.379 . S
C2350 N2357 1.356 . S
C2351 C2350 1.363 . S
C2351 C2354 1.363 . S
N2352 C2354 1.356 . S
N2352 H2364 0.984 . S
N2352 H2365 0.985 . S
N2353 C2355 1.356 . S
N2353 H2358 0.984 . S
N2353 H2359 0.985 . S
C2354 C2348 1.379 . S
C2354 C2351 1.363 . S
C2354 N2352 1.356 . S
C2355 C2349 1.363 . S
C2355 C2350 1.379 . S
C2355 N2353 1.356 . S
N2356 C2348 1.356 . S
N2356 H2362 0.984 . S
N2356 H2363 0.984 . S
N2357 C2350 1.356 . S
N2357 H2360 0.984 . S
N2357 H2361 0.985 . S
H2358 N2353 0.984 . S
H2359 N2353 0.985 . S
H2360 N2357 0.984 . S
H2361 N2357 0.985 . S
H2362 N2356 0.984 . S
H2363 N2356 0.984 . S
H2364 N2352 0.984 . S
H2365 N2352 0.985 . S
C2366 C2367 1.363 . S
C2366 C2372 1.379 . S
C2366 N2374 1.356 . S
C2367 C2366 1.363 . S
C2367 C2373 1.363 . S
C2368 C2369 1.363 . S
C2368 C2373 1.379 . S
C2368 N2375 1.356 . S
C2369 C2368 1.363 . S
C2369 C2372 1.363 . S
N2370 C2372 1.356 . S
N2370 H2382 0.984 . S
N2370 H2383 0.985 . S
N2371 C2373 1.356 . S
N2371 H2376 0.984 . S
N2371 H2377 0.985 . S
C2372 C2366 1.379 . S
C2372 C2369 1.363 . S
C2372 N2370 1.356 . S
C2373 C2367 1.363 . S
C2373 C2368 1.379 . S
C2373 N2371 1.356 . S
N2374 C2366 1.356 . S
N2374 H2380 0.984 . S
N2374 H2381 0.984 . S
N2375 C2368 1.356 . S
N2375 H2378 0.984 . S
N2375 H2379 0.985 . S
H2376 N2371 0.984 . S
H2377 N2371 0.985 . S
H2378 N2375 0.984 . S
H2379 N2375 0.985 . S
H2380 N2374 0.984 . S
H2381 N2374 0.984 . S
H2382 N2370 0.984 . S
H2383 N2370 0.985 . S
C657 C109 1.592 . S
C659 C354 1.551 . S
C675 C61 1.364 . S
C677 C365 1.588 . S
C693 C74 1.156 . S
C695 C394 1.166 . S
C713 C397 1.446 . S
C711 C96 1.467 . S
C729 C25 1.574 . S
C731 C435 1.508 . S
C749 C438 1.130 . S
C747 C40 1.118 . S
C767 C465 1.575 . S
C765 C46 1.585 . S
C783 C5 1.334 . S
C785 C494 1.587 . S
C803 C345 1.479 1_655 S
C801 C229 1.215 . S
C819 C249 1.103 . S
C821 C357 1.048 . S
C839 C385 1.447 . S
C837 C271 1.237 . S
C857 C414 1.419 . S
C855 C172 1.350 . S
C873 C236 1.134 . S
C875 C418 1.152 . S
C893 C444 1.705 . S
C891 C242 1.706 . S
C911 C457 0.845 . S
C909 C278 0.853 . S
C929 C485 1.695 . S
C927 C179 1.703 . S
C947 C337 1.507 1_565 S
C945 C159 1.211 . S
C963 C285 1.389 1_554 S
C965 C504 1.619 1_554 S
C983 C535 1.480 . S
C981 C333 1.567 . S
C1001 C554 1.062 . S
C999 C320 1.063 . S
C1017 C123 1.425 . S
C1019 C477 1.365 . S
C1035 C138 1.565 . S
C1037 C377 1.538 . S
C1053 C326 1.678 . S
C1055 C565 1.662 . S
C1073 C594 1.022 . S
C1071 C298 1.015 . S
C1091 C355 1.530 . S
C1089 C67 1.526 . S
C1109 C584 1.566 . S
C1107 C110 1.566 . S
C1125 C88 1.183 . S
C1127 C395 1.162 . S
C1143 C75 1.210 . S
C1145 C558 1.381 . S
C1163 C434 1.478 . S
C1161 C11 1.519 . S
C1179 C47 1.046 . S
C1181 C517 1.134 . S
C1199 C464 1.493 . S
C1197 C32 1.436 . S
C1217 C615 1.622 . S
C1215 C26 1.706 . S
C1235 C344 1.605 . S
C1233 C152 1.601 . S
C1253 C578 1.051 . S
C1251 C319 1.047 . S
C1269 C124 1.446 . S
C1271 C384 1.435 . S
C1287 C284 1.412 . S
C1289 C575 1.419 . S
C1305 C145 1.060 . S
C1307 C417 1.150 . S
C1325 C525 1.632 . S
C1323 C312 1.616 . S
C1341 C117 0.761 . S
C1343 C458 0.765 . S
C1359 C291 1.640 . S
C1361 C604 1.637 . S
C1377 C194 1.597 1_556 S
C1379 C338 1.560 . S
C1395 C180 1.635 . S
C1397 C505 1.612 . S
C1413 C263 1.440 . S
C1415 C454 1.401 . S
C1431 C243 0.924 . S
C1433 C555 1.012 . S
C1451 C598 1.387 . S
C1449 C277 1.352 . S
C1467 C215 1.370 . S
C1469 C378 1.515 . S
C1487 C404 1.582 . S
C1485 C256 1.538 . S
C1505 C375 1.084 . S
C1503 C200 1.114 . S
C1521 C81 1.592 . S
C1523 C634 1.551 . S
C1541 C585 1.588 . S
C1539 C89 1.364 . S
C1557 C102 1.157 1_455 S
C1559 C654 1.166 . S
C1575 C68 1.467 . S
C1577 C557 1.446 . S
C1593 C53 1.574 . S
C1595 C515 1.508 . S
C1613 C518 1.130 . S
C1611 C12 1.118 . S
C1631 C545 1.575 . S
C1629 C18 1.586 . S
C1649 C614 1.587 . S
C1647 C33 1.334 . S
C1667 C625 1.479 . S
C1665 C257 1.215 . S
C1683 C193 1.103 . S
C1685 C577 1.048 . S
C1703 C645 1.447 . S
C1701 C201 1.237 . S
C1721 C574 1.419 . S
C1719 C214 1.350 . S
C1739 C498 1.152 . S
C1737 C264 1.134 . S
C1755 C186 1.706 . S
C1757 C524 1.704 . S
C1775 C537 0.845 . S
C1773 C208 0.853 . S
C1791 C221 1.703 . S
C1793 C605 1.695 . S
C1811 C617 1.507 . S
C1809 C313 1.211 . S
C1827 C131 1.389 . S
C1829 C424 1.619 . S
C1847 C455 1.480 . S
C1845 C151 1.570 . S
C1865 C474 1.062 . S
C1863 C166 1.063 . S
C1883 C597 1.365 . S
C1881 C305 1.425 . S
C1899 C292 1.565 . S
C1901 C637 1.538 . S
C1919 C405 1.662 . S
C1917 C144 1.674 . S
C1937 C374 1.022 . S
C1935 C116 1.015 . S
C1953 C95 1.525 . S
C1955 C635 1.530 . S
C1973 C364 1.566 . S
C1971 C82 1.566 . S
C1989 C60 1.183 . S
C1991 C655 1.162 . S
C2007 C103 1.210 . S
C2009 C398 1.382 . S
C2025 C39 1.519 . S
C2027 C514 1.471 . S
C2045 C437 1.134 . S
C2043 C19 1.046 . S
C2061 C4 1.436 . S
C2063 C544 1.493 . S
C2079 C54 1.706 . S
C2081 C495 1.622 . S
C2099 C624 1.605 . S
C2097 C334 1.601 . S
C2115 C165 1.047 . S
C2117 C358 1.051 . S
C2135 C644 1.435 1_655 S
C2133 C306 1.446 . S
C2151 C130 1.412 . S
C2153 C415 1.419 . S
C2169 C327 1.060 . S
C2171 C497 1.152 . S
C2189 C445 1.632 . S
C2187 C158 1.616 . S
C2205 C299 0.762 . S
C2207 C538 0.765 . S
C2225 C484 1.637 . S
C2223 C137 1.640 . S
C2243 C618 1.560 . S
C2241 C250 1.599 . S
C2261 C425 1.612 1_565 S
C2259 C222 1.635 . S
C2277 C235 1.440 . S
C2279 C534 1.402 . S
C2297 C475 1.012 . S
C2295 C187 0.924 1_554 S
C2313 C207 1.352 . S
C2315 C478 1.386 . S
C2331 C173 1.370 . S
C2333 C638 1.515 . S
C2351 C564 1.582 . S
C2349 C228 1.538 . S
C2369 C595 1.084 . S
C2367 C270 1.114 . S
