# Generated by pormake.
# Topology tsx, (6,3)-cn, num edge types: 1
# Building blocks:
#     Node 0, Type 0, BuildingBlock: FUNLAD_clean_sbu_0, # of connection points: 6
#     Node 1, Type 0, BuildingBlock: FUNLAD_clean_sbu_0, # of connection points: 6
#     Node 2, Type 1, BuildingBlock: WUSLED_clean_sbu_0, # of connection points: 3
#     Node 3, Type 1, BuildingBlock: WUSLED_clean_sbu_0, # of connection points: 3
#     Node 4, Type 1, BuildingBlock: WUSLED_clean_sbu_0, # of connection points: 3
#     Node 5, Type 1, BuildingBlock: WUSLED_clean_sbu_0, # of connection points: 3
#     Edge 6, Type (0, 1), BuildingBlock: EZIPEK_clean_linker_0, # of connection points: 2
#     Edge 7, Type (0, 1), BuildingBlock: EZIPEK_clean_linker_0, # of connection points: 2
#     Edge 8, Type (0, 1), BuildingBlock: EZIPEK_clean_linker_0, # of connection points: 2
#     Edge 9, Type (0, 1), BuildingBlock: EZIPEK_clean_linker_0, # of connection points: 2
#     Edge 10, Type (0, 1), BuildingBlock: EZIPEK_clean_linker_0, # of connection points: 2
#     Edge 11, Type (0, 1), BuildingBlock: EZIPEK_clean_linker_0, # of connection points: 2
#     Edge 12, Type (0, 1), BuildingBlock: EZIPEK_clean_linker_0, # of connection points: 2
#     Edge 13, Type (0, 1), BuildingBlock: EZIPEK_clean_linker_0, # of connection points: 2
#     Edge 14, Type (0, 1), BuildingBlock: EZIPEK_clean_linker_0, # of connection points: 2
#     Edge 15, Type (0, 1), BuildingBlock: EZIPEK_clean_linker_0, # of connection points: 2
#     Edge 16, Type (0, 1), BuildingBlock: EZIPEK_clean_linker_0, # of connection points: 2
#     Edge 17, Type (0, 1), BuildingBlock: EZIPEK_clean_linker_0, # of connection points: 2
# Relax obj value: 0.156
# Max RMSD: 0.151
# Mean RMSD: 0.079
data_MOF--net-tsx--node1-FUNLAD_clean_sbu_0--node2-WUSLED_clean_sbu_0--edge1-EZIPEK_clean_linker_0
_symmetry_space_group_name_H-M    P1
_symmetry_Int_Tables_number       1
_symmetry_cell_setting            triclinic
loop_
_symmetry_equiv_pos_as_xyz
'x, y, z'
_cell_length_a     19.369019
_cell_length_b     21.3687
_cell_length_c     42.676528
_cell_angle_alpha  91.427043
_cell_angle_beta   91.785096
_cell_angle_gamma 90.038768
loop_
_atom_site_label
_atom_site_type_symbol
_atom_site_fract_x
_atom_site_fract_y
_atom_site_fract_z
_atom_type_partial_charge
C0 C 0.92773 0.92389 0.01772 0.0
N1 N 0.02917 0.02838 0.08946 0.0
C2 C 0.96783 0.03375 0.10404 0.0
C3 C 0.96618 0.03794 0.13672 0.0
C4 C 0.02818 0.03637 0.1545 0.0
C5 C 0.09076 0.03064 0.13903 0.0
C6 C 0.09009 0.02683 0.10625 0.0
Zn7 Zn 0.02862 0.02109 0.0414 0.0
C8 C 0.12857 0.92518 0.01829 0.0
N9 N 0.02576 1.00412 0.94104 0.0
C10 C 0.96442 0.99879 0.92471 0.0
C11 C 0.08667 1.00614 0.92597 0.0
C12 C 0.08738 1.00301 0.89324 0.0
C13 C 0.02486 0.99745 0.87595 0.0
C14 C 0.96281 0.99525 0.89195 0.0
Zn15 Zn 0.02658 1.01123 0.98909 0.0
O16 O 0.95048 0.95252 0.04236 0.0
C17 C 0.92745 0.10803 0.01109 0.0
O18 O 0.95056 0.93819 0.99116 0.0
H19 H 0.13484 1.01041 0.93936 0.0
H20 H 0.92 0.03462 0.09029 0.0
H21 H 0.91661 0.99752 0.93712 0.0
O22 O 0.95246 0.09375 0.0379 0.0
O23 O 0.94823 0.07955 0.98668 0.0
H24 H 0.13824 0.02249 0.09422 0.0
O25 O 0.10269 0.08372 0.98845 0.0
O26 O 0.10738 0.08919 0.04002 0.0
O27 O 0.10546 0.94358 0.99193 0.0
O28 O 0.10486 0.94866 0.04346 0.0
C29 C 0.12828 0.10753 0.01386 0.0
H30 H 0.91709 0.04231 0.14806 0.0
H31 H 0.13944 0.02929 0.15218 0.0
H32 H 0.13609 1.00479 0.88149 0.0
H33 H 0.91375 0.99094 0.87918 0.0
C34 C 0.42704 0.4237 0.51757 0.0
N35 N 0.52892 0.52786 0.58919 0.0
C36 C 0.46757 0.53299 0.60377 0.0
C37 C 0.46595 0.53683 0.63645 0.0
C38 C 0.52799 0.53517 0.65418 0.0
C39 C 0.59057 0.52971 0.63871 0.0
C40 C 0.58987 0.52625 0.60594 0.0
Zn41 Zn 0.52827 0.52095 0.54124 0.0
C42 C 0.62808 0.42483 0.51795 0.0
N43 N 0.52504 0.50417 0.44108 0.0
C44 C 0.46364 0.49927 0.42478 0.0
C45 C 0.58595 0.50612 0.42602 0.0
C46 C 0.58661 0.5034 0.3933 0.0
C47 C 0.52404 0.49828 0.37605 0.0
C48 C 0.46198 0.49611 0.39202 0.0
Zn49 Zn 0.52595 0.51088 0.48903 0.0
O50 O 0.45028 0.4521 0.54217 0.0
C51 C 0.42708 0.60804 0.51111 0.0
O52 O 0.44942 0.43825 0.49096 0.0
H53 H 0.63416 0.51003 0.43941 0.0
H54 H 0.41973 0.5339 0.59004 0.0
H55 H 0.41585 0.49807 0.4372 0.0
O56 O 0.45186 0.5935 0.53792 0.0
O57 O 0.44805 0.57969 0.48669 0.0
H58 H 0.63801 0.52211 0.59389 0.0
O59 O 0.60293 0.58288 0.48848 0.0
O60 O 0.6067 0.5892 0.54002 0.0
O61 O 0.60413 0.44271 0.49164 0.0
O62 O 0.60507 0.44878 0.54316 0.0
C63 C 0.6284 0.60684 0.51389 0.0
H64 H 0.41686 0.54099 0.64781 0.0
H65 H 0.63926 0.52829 0.65186 0.0
H66 H 0.63531 0.50513 0.38154 0.0
H67 H 0.41289 0.49215 0.37926 0.0
C68 C 0.9419 0.14333 0.50136 0.0
C69 C 0.93407 0.19251 0.48029 0.0
C70 C 0.84436 0.23846 0.51202 0.0
C71 C 0.88588 0.23995 0.48569 0.0
C72 C 0.8533 0.19026 0.53351 0.0
C73 C 0.90199 0.14309 0.52825 0.0
U74 U 0.02555 0.03923 0.44064 0.0
O75 O 0.12792 0.99557 0.43835 0.0
O76 O 0.03482 0.93643 0.43711 0.0
C77 C 0.1027 0.93836 0.43806 0.0
C78 C 0.9863 0.08938 0.49392 0.0
C79 C 0.13902 0.89205 0.45775 0.0
C80 C 0.23136 0.86504 0.49504 0.0
C81 C 0.1882 0.90998 0.48126 0.0
C82 C 0.17375 0.78347 0.46361 0.0
C83 C 0.22585 0.80178 0.48548 0.0
C84 C 0.13075 0.82825 0.44986 0.0
C85 C 0.99246 0.07925 0.3544 0.0
C86 C 0.05047 0.02771 0.31113 0.0
C87 C 0.95874 0.10218 0.30062 0.0
C88 C 0.95067 0.11153 0.33283 0.0
C89 C 1.00882 0.06042 0.28955 0.0
C90 C 0.04222 0.03696 0.34341 0.0
C91 C 0.98381 0.09093 0.38816 0.0
O92 O 0.95387 0.04228 0.4796 0.0
O93 O 0.0458 0.10238 0.48149 0.0
O94 O 0.03972 0.10867 0.40423 0.0
O95 O 0.94743 0.04901 0.40248 0.0
H96 H 0.96369 0.19321 0.45918 0.0
H97 H 0.87918 0.2766 0.46878 0.0
H98 H 0.82133 0.18833 0.55384 0.0
H99 H 0.90687 0.10543 0.54467 0.0
H100 H 0.27143 0.87994 0.51186 0.0
H101 H 0.19562 0.95884 0.48788 0.0
H102 H 0.16891 0.73492 0.45591 0.0
H103 H 0.09341 0.81333 0.43175 0.0
H104 H 0.0894 0.99535 0.30295 0.0
H105 H 0.92623 0.12779 0.28429 0.0
H106 H 0.912 0.14427 0.34092 0.0
H107 H 0.07483 1.01152 0.35978 0.0
C108 C 0.94695 0.88689 0.52845 0.0
C109 C 0.93951 0.84041 0.55084 0.0
C110 C 0.84748 0.79169 0.51888 0.0
C111 C 0.89039 0.79293 0.54598 0.0
C112 C 0.85606 0.83706 0.49609 0.0
C113 C 0.90572 0.88429 0.50082 0.0
U114 U 0.03167 0.99578 0.58874 0.0
O115 O 0.0401 0.09877 0.59083 0.0
O116 O 0.13373 0.04063 0.59286 0.0
C117 C 0.10799 0.09751 0.59152 0.0
C118 C 0.99163 0.94158 0.53543 0.0
C119 C 0.14334 0.14259 0.57171 0.0
C120 C 0.23207 0.16719 0.5347 0.0
C121 C 0.18993 0.12322 0.54876 0.0
C122 C 0.17851 0.25056 0.56477 0.0
C123 C 0.22812 0.23091 0.54343 0.0
C124 C 0.13653 0.20675 0.5788 0.0
C125 C 0.99721 0.95861 0.67476 0.0
C126 C 0.0535 1.00968 0.72028 0.0
C127 C 0.96069 0.93553 0.72716 0.0
C128 C 0.95409 0.92644 0.69467 0.0
C129 C 1.01059 0.97694 0.74019 0.0
C130 C 0.04676 1.00065 0.68768 0.0
C131 C 0.9901 0.94655 0.64074 0.0
O132 O 0.95953 0.98965 0.548 0.0
O133 O 0.05158 0.93005 0.54945 0.0
O134 O 0.04658 0.92896 0.6267 0.0
O135 O 0.95375 0.98769 0.62492 0.0
H136 H 0.97005 0.84203 0.57255 0.0
H137 H 0.88403 0.75849 0.56387 0.0
H138 H 0.82307 0.83685 0.47512 0.0
H139 H 0.91026 0.91996 0.48341 0.0
H140 H 0.27022 0.15123 0.51829 0.0
H141 H 0.19612 0.07403 0.54275 0.0
H142 H 0.17489 0.29947 0.57185 0.0
H143 H 0.10114 0.22277 0.59645 0.0
H144 H 0.09234 0.04175 0.73 0.0
H145 H 0.92725 0.90989 0.74219 0.0
H146 H 0.9156 0.89386 0.68508 0.0
H147 H 0.0804 0.02596 0.67261 0.0
C148 C 0.43761 0.64043 0.99956 0.0
C149 C 0.4121 0.6767 0.97479 0.0
C150 C 0.34135 0.73624 0.0108 0.0
C151 C 0.36428 0.72427 0.98038 0.0
C152 C 0.36794 0.70094 0.03572 0.0
C153 C 0.41582 0.65317 0.0301 0.0
U154 U 0.5233 0.53675 0.93995 0.0
O155 O 0.6264 0.4944 0.93791 0.0
O156 O 0.53418 0.43412 0.93635 0.0
C157 C 0.60202 0.43688 0.93746 0.0
C158 C 0.48297 0.58688 0.99301 0.0
C159 C 0.63873 0.39083 0.95715 0.0
C160 C 0.73069 0.36443 0.99474 0.0
C161 C 0.6873 0.40908 0.98085 0.0
C162 C 0.67457 0.28255 0.96296 0.0
C163 C 0.72602 0.30119 0.98507 0.0
C164 C 0.63134 0.32702 0.94911 0.0
C165 C 0.49003 0.57636 0.85378 0.0
C166 C 0.54909 0.52539 0.81069 0.0
C167 C 0.45674 0.59916 0.79997 0.0
C168 C 0.44816 0.60836 0.83214 0.0
C169 C 0.5074 0.55785 0.78905 0.0
C170 C 0.54033 0.53448 0.84293 0.0
C171 C 0.48098 0.58796 0.88747 0.0
O172 O 0.45162 0.53901 0.97884 0.0
O173 O 0.54226 0.60065 0.98064 0.0
O174 O 0.53659 0.60636 0.90357 0.0
O175 O 0.44517 0.54556 0.90174 0.0
H176 H 0.42799 0.66718 0.95102 0.0
H177 H 0.34398 0.7509 0.96089 0.0
H178 H 0.35039 0.70943 0.0593 0.0
H179 H 0.43455 0.62533 0.04942 0.0
H180 H 0.77027 0.37958 0.01176 0.0
H181 H 0.69404 0.45796 0.98758 0.0
H182 H 0.67038 0.234 0.95517 0.0
H183 H 0.59448 0.31187 0.93084 0.0
H184 H 0.58845 0.49339 0.8026 0.0
H185 H 0.42421 0.62455 0.78356 0.0
H186 H 0.40909 0.64078 0.84014 0.0
H187 H 0.57299 0.50929 0.85938 0.0
C188 C 0.44254 0.39113 0.02966 0.0
C189 C 0.42542 0.35223 0.05431 0.0
C190 C 0.34439 0.29498 0.01982 0.0
C191 C 0.37682 0.3044 0.0494 0.0
C192 C 0.36249 0.33295 0.99494 0.0
C193 C 0.41147 0.38077 0.99985 0.0
U194 U 0.52939 0.49889 0.08923 0.0
O195 O 0.53995 0.60166 0.09189 0.0
O196 O 0.63241 0.54198 0.09318 0.0
C197 C 0.60777 0.59931 0.09223 0.0
C198 C 0.48789 0.44552 0.03596 0.0
C199 C 0.64339 0.64417 0.07242 0.0
C200 C 0.7315 0.66817 0.03501 0.0
C201 C 0.68921 0.6245 0.04919 0.0
C202 C 0.67965 0.75184 0.06553 0.0
C203 C 0.72847 0.73187 0.04388 0.0
C204 C 0.63752 0.70834 0.07968 0.0
C205 C 0.49484 0.46122 0.17505 0.0
C206 C 0.55177 0.51187 0.22049 0.0
C207 C 0.45875 0.43794 0.22745 0.0
C208 C 0.4518 0.42905 0.19498 0.0
C209 C 0.50893 0.47913 0.24042 0.0
C210 C 0.54466 0.50305 0.18791 0.0
C211 C 0.48728 0.44954 0.14107 0.0
O212 O 0.45678 0.49409 0.04863 0.0
O213 O 0.54787 0.43327 0.04975 0.0
O214 O 0.54339 0.43135 0.12691 0.0
O215 O 0.45154 0.49139 0.12544 0.0
H216 H 0.44829 0.35999 0.07758 0.0
H217 H 0.36304 0.27581 0.06887 0.0
H218 H 0.33752 0.32646 0.97203 0.0
H219 H 0.42367 0.4106 0.98064 0.0
H220 H 0.76905 0.65197 0.01837 0.0
H221 H 0.69465 0.5753 0.04305 0.0
H222 H 0.67675 0.80074 0.07271 0.0
H223 H 0.60272 0.72457 0.09754 0.0
H224 H 0.59082 0.54376 0.23018 0.0
H225 H 0.42538 0.41232 0.24252 0.0
H226 H 0.41308 0.39666 0.18541 0.0
H227 H 0.57822 0.52836 0.17279 0.0
C228 C 0.24926 0.14072 1.00265 0.0
C229 C 0.18238 0.15656 0.01317 0.0
C230 C 0.2205 0.26442 0.02525 0.0
C231 C 0.2879 0.24803 0.01582 0.0
N232 N 0.36588 0.17493 0.99182 0.0
N233 N 0.10446 0.23077 0.03676 0.0
C234 C 0.30207 0.18735 1.00336 0.0
C235 C 0.16797 0.21779 0.02498 0.0
N236 N 0.26317 0.0801 0.99382 0.0
N237 N 0.20636 0.32538 0.03334 0.0
H238 H 0.06344 0.19913 0.03556 0.0
H239 H 0.09274 0.2716 0.04924 0.0
H240 H 0.24364 0.36068 0.03404 0.0
H241 H 0.15705 0.34254 0.03722 0.0
H242 H 0.31213 0.06322 0.98902 0.0
H243 H 0.226 0.04473 0.99295 0.0
H244 H 0.37844 0.13415 0.97949 0.0
H245 H 0.40623 0.20733 0.993 0.0
C246 C 0.25014 0.8901 0.03045 0.0
C247 C 0.18196 0.87553 0.01929 0.0
C248 C 0.21671 0.76704 0.00801 0.0
C249 C 0.28617 0.78335 0.01591 0.0
N250 N 0.37136 0.86057 0.03223 0.0
N251 N 0.10081 0.80212 0.99475 0.0
C252 C 0.30351 0.84484 0.02677 0.0
C253 C 0.16535 0.8145 0.00735 0.0
N254 N 0.26402 0.94736 0.04428 0.0
N255 N 0.19967 0.70571 1.00186 0.0
H256 H 0.06048 0.83436 0.9951 0.0
H257 H 0.0881 0.76119 0.98213 0.0
H258 H 0.23602 0.6697 1.00193 0.0
H259 H 0.14905 0.68953 0.99935 0.0
H260 H 0.31048 0.95853 0.056 0.0
H261 H 0.22751 0.98303 0.04582 0.0
H262 H 0.38862 0.90616 0.03662 0.0
H263 H 0.41151 0.8283 0.03041 0.0
C264 C 0.81168 0.87248 1.00656 0.0
C265 C 0.87886 0.87097 0.02087 0.0
C266 C 0.84802 0.77693 0.04921 0.0
C267 C 0.78189 0.77673 0.03392 0.0
N268 N 0.7046 0.81659 0.99395 0.0
N269 N 0.96612 0.81403 0.05001 0.0
C270 C 0.76501 0.82211 0.01121 0.0
C271 C 0.89856 0.82075 0.04041 0.0
N272 N 0.79114 0.92355 0.99002 0.0
N273 N 0.86165 0.7372 0.07328 0.0
H274 H 1.00488 0.8452 0.04428 0.0
H275 H 0.98504 0.77449 0.06117 0.0
H276 H 0.82656 0.70383 0.08045 0.0
H277 H 0.90566 0.7406 0.08788 0.0
H278 H 0.74052 0.93068 0.982 0.0
H279 H 0.82354 0.96146 0.98629 0.0
H280 H 0.69217 0.84437 0.97489 0.0
H281 H 0.66931 0.78051 0.99706 0.0
C282 C 0.89601 0.21165 0.98874 0.0
C283 C 0.87802 0.16064 0.00758 0.0
C284 C 0.76515 0.20904 0.01676 0.0
C285 C 0.78008 0.25551 0.99478 0.0
N286 N 0.85613 0.29663 0.95647 0.0
N287 N 0.79296 0.10655 0.03696 0.0
C288 C 0.84473 0.25588 0.97999 0.0
C289 C 0.8121 0.15842 0.02122 0.0
N290 N 0.96273 0.21879 0.97984 0.0
N291 N 0.70638 0.21379 0.03357 0.0
H292 H 0.82559 0.0684 0.04048 0.0
H293 H 0.74305 0.09905 0.04444 0.0
H294 H 0.67089 0.25005 0.03059 0.0
H295 H 0.69567 0.18509 0.05217 0.0
H296 H 0.98066 0.2588 0.96924 0.0
H297 H 1.002 0.18742 0.98563 0.0
H298 H 0.89875 0.29384 0.94222 0.0
H299 H 0.82039 0.33029 0.94935 0.0
C300 C 0.67104 0.71553 0.5268 0.0
C301 C 0.6832 0.65527 0.51331 0.0
C302 C 0.80002 0.6876 0.49964 0.0
C303 C 0.79 0.74562 0.5157 0.0
N304 N 0.71913 0.81382 0.54705 0.0
N305 N 0.7617 0.58035 0.49065 0.0
C306 C 0.72628 0.75935 0.52992 0.0
C307 C 0.74818 0.64042 0.50047 0.0
N308 N 0.606 0.73161 0.53566 0.0
N309 N 0.85898 0.67785 0.48341 0.0
H310 H 0.72546 0.54431 0.49104 0.0
H311 H 0.81045 0.56478 0.48448 0.0
H312 H 0.89892 0.7106 0.48315 0.0
H313 H 0.86625 0.63954 0.46833 0.0
H314 H 0.59173 0.77694 0.54217 0.0
H315 H 0.56429 0.70072 0.53416 0.0
H316 H 0.67753 0.82314 0.5613 0.0
H317 H 0.75704 0.84854 0.54867 0.0
C318 C 0.66816 0.31657 0.50384 0.0
C319 C 0.68204 0.3756 0.51879 0.0
C320 C 0.79944 0.34096 0.53326 0.0
C321 C 0.78767 0.28466 0.51559 0.0
N322 N 0.71378 0.22022 0.4816 0.0
N323 N 0.76328 0.44775 0.54413 0.0
C324 C 0.72274 0.27278 0.50025 0.0
C325 C 0.74815 0.3887 0.53283 0.0
N326 N 0.60219 0.30153 0.49399 0.0
N327 N 0.85954 0.34854 0.55059 0.0
H328 H 0.72758 0.48424 0.54404 0.0
H329 H 0.81274 0.46223 0.55128 0.0
H330 H 0.89904 0.31536 0.55066 0.0
H331 H 0.86821 0.38528 0.56672 0.0
H332 H 0.58707 0.25684 0.48631 0.0
H333 H 0.56075 0.33233 0.49588 0.0
H334 H 0.67099 0.21275 0.4666 0.0
H335 H 0.75128 0.1855 0.47947 0.0
C336 C 0.31107 0.37201 0.50634 0.0
C337 C 0.37816 0.37075 0.52077 0.0
C338 C 0.34729 0.27677 0.54918 0.0
C339 C 0.28137 0.27619 0.53368 0.0
N340 N 0.20443 0.31564 0.49346 0.0
N341 N 0.4653 0.31407 0.55014 0.0
C342 C 0.26457 0.32145 0.5109 0.0
C343 C 0.39779 0.32066 0.54041 0.0
N344 N 0.29042 0.42301 0.48977 0.0
N345 N 0.36073 0.23733 0.57338 0.0
H346 H 0.50409 0.34519 0.5444 0.0
H347 H 0.48416 0.27461 0.56139 0.0
H348 H 0.32564 0.20397 0.58055 0.0
H349 H 0.40454 0.24103 0.58809 0.0
H350 H 0.23983 0.42991 0.48165 0.0
H351 H 0.32262 0.46112 0.48617 0.0
H352 H 0.19216 0.34331 0.47434 0.0
H353 H 0.16926 0.27942 0.49649 0.0
C354 C 0.31202 0.65887 0.52152 0.0
C355 C 0.37766 0.66071 0.5076 0.0
C356 C 0.34402 0.75565 0.47981 0.0
C357 C 0.27978 0.75577 0.49495 0.0
N358 N 0.20687 0.7148 0.53424 0.0
N359 N 0.46188 0.71832 0.47927 0.0
C360 C 0.26518 0.70963 0.51715 0.0
C361 C 0.39535 0.71141 0.48849 0.0
N362 N 0.29294 0.60721 0.53745 0.0
N363 N 0.35498 0.79598 0.45606 0.0
H364 H 0.50124 0.68702 0.48504 0.0
H365 H 0.47963 0.75814 0.46845 0.0
H366 H 0.31918 0.82962 0.44898 0.0
H367 H 0.39721 0.79278 0.44159 0.0
H368 H 0.24316 0.60002 0.54516 0.0
H369 H 0.32538 0.56889 0.54085 0.0
H370 H 0.19653 0.68639 0.55301 0.0
H371 H 0.17144 0.75114 0.53133 0.0
C372 C 0.04824 0.0974 0.20516 0.0
C373 C 0.02722 0.04103 0.18933 0.0
C374 C 0.993 0.99732 0.23919 0.0
C375 C 0.01808 0.05214 0.25522 0.0
N376 N 0.08203 0.1489 0.25455 0.0
N377 N 0.99221 0.93297 0.19154 0.0
C378 C 0.04951 0.10057 0.23849 0.0
C379 C 1.00334 0.98962 0.20645 0.0
N380 N 0.06435 0.14874 0.18833 0.0
N381 N 0.957 0.95372 0.255 0.0
H382 H 0.99937 0.9256 0.1676 0.0
H383 H 0.98181 0.89204 0.20327 0.0
H384 H 0.94874 0.95747 0.27901 0.0
H385 H 0.93069 0.91637 0.24397 0.0
H386 H 0.07244 0.1931 0.19844 0.0
H387 H 0.0641 0.14838 0.16388 0.0
H388 H 0.11218 0.18208 0.24385 0.0
H389 H 0.08411 0.15271 0.27898 0.0
C390 C 1.00095 0.04534 0.82347 0.0
C391 C 0.02428 0.99354 0.84109 0.0
C392 C 0.04921 0.93565 0.7924 0.0
C393 C 0.0185 0.98446 0.77487 0.0
N394 N 0.95714 0.08256 0.77345 0.0
N395 N 0.06171 0.88596 0.84269 0.0
C396 C 0.99237 0.03862 0.79032 0.0
C397 C 0.04626 0.93776 0.82565 0.0
N398 N 0.98878 0.10146 0.83837 0.0
N399 N 0.08265 0.88797 0.77725 0.0
H400 H 0.06007 0.88553 0.86708 0.0
H401 H 0.07053 0.84197 0.83257 0.0
H402 H 0.08596 0.88494 0.7529 0.0
H403 H 0.11236 0.85459 0.78883 0.0
H404 H 0.97878 0.1427 0.82657 0.0
H405 H 0.99457 0.10812 0.86261 0.0
H406 H 0.93008 0.1194 0.78371 0.0
H407 H 0.95038 0.07961 0.74911 0.0
C408 C 0.54767 0.5957 0.70495 0.0
C409 C 0.52702 0.53939 0.68897 0.0
C410 C 0.49266 0.495 0.73862 0.0
C411 C 0.51724 0.54982 0.75479 0.0
N412 N 0.58074 0.64687 0.7545 0.0
N413 N 0.49264 0.43111 0.69083 0.0
C414 C 0.54862 0.59855 0.73827 0.0
C415 C 0.50332 0.48766 0.70591 0.0
N416 N 0.56369 0.64727 0.68827 0.0
N417 N 0.4568 0.45105 0.75427 0.0
H418 H 0.50006 0.42402 0.6669 0.0
H419 H 0.48237 0.39 0.70244 0.0
H420 H 0.44834 0.45452 0.77826 0.0
H421 H 0.43082 0.41365 0.74311 0.0
H422 H 0.57149 0.69157 0.69849 0.0
H423 H 0.56369 0.64714 0.66383 0.0
H424 H 0.61083 0.6803 0.74395 0.0
H425 H 0.58256 0.65045 0.77894 0.0
C426 C 0.50016 0.54685 0.32379 0.0
C427 C 0.5234 0.49478 0.34122 0.0
C428 C 0.54797 0.43734 0.29239 0.0
C429 C 0.51723 0.48639 0.27505 0.0
N430 N 0.45615 0.58466 0.27393 0.0
N431 N 0.56052 0.38708 0.34251 0.0
C432 C 0.49136 0.54048 0.29064 0.0
C433 C 0.54516 0.43911 0.32563 0.0
N434 N 0.48828 0.60285 0.33885 0.0
N435 N 0.58124 0.38978 0.27708 0.0
H436 H 0.55895 0.38637 0.36691 0.0
H437 H 0.56919 0.34317 0.33226 0.0
H438 H 0.58443 0.38702 0.25272 0.0
H439 H 0.61094 0.35623 0.28853 0.0
H440 H 0.47834 0.64425 0.32717 0.0
H441 H 0.49427 0.60926 0.3631 0.0
H442 H 0.42926 0.62147 0.28432 0.0
H443 H 0.44924 0.58197 0.2496 0.0
loop_
_geom_bond_atom_site_label_1
_geom_bond_atom_site_label_2
_geom_bond_distance
_geom_bond_site_symmetry_2
_ccdc_geom_bond_type
C0 O16 1.251 . S
C0 O18 1.254 1_554 S
N1 C2 1.333 1_445 S
N1 C6 1.307 . S
N1 Zn7 2.020 . S
C2 N1 1.333 1_665 S
C2 C3 1.379 . S
C2 H20 0.952 . S
C3 C2 1.379 . S
C3 C4 1.390 1_665 S
C3 H30 0.949 . S
C4 C3 1.390 1_445 S
C4 C5 1.357 . S
C5 C4 1.357 . S
C5 C6 1.370 . S
C5 H31 0.950 . S
C6 N1 1.307 . S
C6 C5 1.370 . S
C6 H24 0.948 . S
Zn7 N1 2.020 . S
Zn7 O16 2.039 1_445 S
Zn7 O22 2.034 1_455 S
Zn7 O26 2.025 . S
Zn7 O28 2.024 1_545 S
C8 O27 1.246 1_554 S
C8 O28 1.249 . S
N9 C10 1.304 1_445 S
N9 C11 1.339 . S
N9 Zn15 2.020 . S
C10 N9 1.304 1_665 S
C10 C14 1.370 . S
C10 H21 0.948 . S
C11 N9 1.339 . S
C11 C12 1.379 . S
C11 H19 0.952 . S
C12 C11 1.379 . S
C12 C13 1.390 . S
C12 H32 0.949 . S
C13 C12 1.390 . S
C13 C14 1.357 1_445 S
C14 C10 1.370 . S
C14 C13 1.357 1_665 S
C14 H33 0.950 . S
Zn15 N9 2.020 . S
Zn15 O18 2.025 1_445 S
Zn15 O23 2.024 1_455 S
Zn15 O25 2.039 . S
Zn15 O27 2.034 1_545 S
O16 C0 1.251 . S
O16 Zn7 2.039 1_665 S
C17 O22 1.246 . S
C17 O23 1.249 1_554 S
O18 C0 1.254 1_556 S
O18 Zn15 2.025 1_665 S
H19 C11 0.952 . S
H20 C2 0.952 . S
H21 C10 0.948 . S
O22 Zn7 2.034 1_655 S
O22 C17 1.246 . S
O23 Zn15 2.024 1_655 S
O23 C17 1.249 1_556 S
H24 C6 0.948 . S
O25 Zn15 2.039 . S
O25 C29 1.251 1_556 S
O26 Zn7 2.025 . S
O26 C29 1.254 . S
O27 C8 1.246 1_556 S
O27 Zn15 2.034 1_565 S
O28 Zn7 2.024 1_565 S
O28 C8 1.249 . S
C29 O25 1.251 1_554 S
C29 O26 1.254 . S
H30 C3 0.949 . S
H31 C5 0.950 . S
H32 C12 0.949 . S
H33 C14 0.950 . S
C34 O50 1.251 . S
C34 O52 1.254 . S
N35 C36 1.333 . S
N35 C40 1.307 . S
N35 Zn41 2.020 . S
C36 N35 1.333 . S
C36 C37 1.379 . S
C36 H54 0.952 . S
C37 C36 1.379 . S
C37 C38 1.390 . S
C37 H64 0.949 . S
C38 C37 1.390 . S
C38 C39 1.357 . S
C39 C38 1.357 . S
C39 C40 1.370 . S
C39 H65 0.950 . S
C40 N35 1.307 . S
C40 C39 1.370 . S
C40 H58 0.948 . S
Zn41 N35 2.020 . S
Zn41 O50 2.039 . S
Zn41 O56 2.034 . S
Zn41 O60 2.025 . S
Zn41 O62 2.024 . S
C42 O61 1.246 . S
C42 O62 1.249 . S
N43 C44 1.307 . S
N43 C45 1.333 . S
N43 Zn49 2.020 . S
C44 N43 1.307 . S
C44 C48 1.370 . S
C44 H55 0.948 . S
C45 N43 1.333 . S
C45 C46 1.379 . S
C45 H53 0.952 . S
C46 C45 1.379 . S
C46 C47 1.390 . S
C46 H66 0.949 . S
C47 C46 1.390 . S
C47 C48 1.357 . S
C48 C44 1.370 . S
C48 C47 1.357 . S
C48 H67 0.950 . S
Zn49 N43 2.020 . S
Zn49 O52 2.025 . S
Zn49 O57 2.024 . S
Zn49 O59 2.039 . S
Zn49 O61 2.034 . S
O50 C34 1.251 . S
O50 Zn41 2.039 . S
C51 O56 1.246 . S
C51 O57 1.249 . S
O52 C34 1.254 . S
O52 Zn49 2.025 . S
H53 C45 0.952 . S
H54 C36 0.952 . S
H55 C44 0.948 . S
O56 Zn41 2.034 . S
O56 C51 1.246 . S
O57 Zn49 2.024 . S
O57 C51 1.249 . S
H58 C40 0.948 . S
O59 Zn49 2.039 . S
O59 C63 1.251 . S
O60 Zn41 2.025 . S
O60 C63 1.254 . S
O61 C42 1.246 . S
O61 Zn49 2.034 . S
O62 Zn41 2.024 . S
O62 C42 1.249 . S
C63 O59 1.251 . S
C63 O60 1.254 . S
H64 C37 0.949 . S
H65 C39 0.950 . S
H66 C46 0.949 . S
H67 C48 0.950 . S
C68 C69 1.264 . S
C68 C73 1.479 . S
C68 C78 1.465 . S
C69 C68 1.264 . S
C69 C71 1.339 . S
C69 H96 0.931 . S
C70 C71 1.395 . S
C70 C72 1.320 . S
C71 C69 1.339 . S
C71 C70 1.395 . S
C71 H97 0.929 . S
C72 C70 1.320 . S
C72 C73 1.405 . S
C72 H98 0.930 . S
C73 C68 1.479 . S
C73 C72 1.405 . S
C73 H99 0.931 . S
U74 O75 2.454 1_545 S
U74 O76 2.458 1_545 S
U74 C77 2.984 1_545 S
U74 C78 2.847 1_455 S
U74 C91 2.882 . S
U74 O92 2.441 1_455 S
U74 O93 2.420 1_455 S
U74 O94 2.455 1_545 S
U74 O95 2.449 . S
O75 U74 2.454 1_565 S
O75 C77 1.353 . S
O76 U74 2.458 1_565 S
O76 C77 1.286 . S
C77 U74 2.984 1_565 S
C77 O75 1.353 . S
C77 O76 1.286 . S
C77 C79 1.363 . S
C78 C68 1.465 . S
C78 U74 2.847 1_655 S
C78 O92 1.249 . S
C78 O93 1.202 . S
C79 C77 1.363 . S
C79 C81 1.408 . S
C79 C84 1.342 . S
C80 C81 1.310 . S
C80 C83 1.461 . S
C80 H100 0.932 . S
C81 C79 1.408 . S
C81 C80 1.310 . S
C81 H101 0.930 . S
C82 C83 1.474 . S
C82 C84 1.285 . S
C82 H102 0.929 . S
C83 C80 1.461 . S
C83 C82 1.474 . S
C84 C79 1.342 . S
C84 C82 1.285 . S
C84 H103 0.930 . S
C85 C88 1.424 1_455 S
C85 C90 1.245 1_545 S
C85 C91 1.428 . S
C86 C89 1.260 1_565 S
C86 C90 1.477 . S
C86 H104 0.932 . S
C87 C88 1.384 . S
C87 C89 1.479 1_655 S
C87 H105 0.929 . S
C88 C85 1.424 1_655 S
C88 C87 1.384 . S
C88 H106 0.928 . S
C89 C86 1.260 1_545 S
C89 C87 1.479 1_455 S
C90 C85 1.245 1_565 S
C90 C86 1.477 . S
C90 H107 0.932 . S
C91 U74 2.882 . S
C91 C85 1.428 . S
C91 O94 1.301 1_545 S
C91 O95 1.282 . S
O92 U74 2.441 1_655 S
O92 C78 1.249 . S
O93 U74 2.420 1_655 S
O93 C78 1.202 . S
O94 U74 2.455 1_565 S
O94 C91 1.301 1_565 S
O95 U74 2.449 . S
O95 C91 1.282 . S
H96 C69 0.931 . S
H97 C71 0.929 . S
H98 C72 0.930 . S
H99 C73 0.931 . S
H100 C80 0.932 . S
H101 C81 0.930 . S
H102 C82 0.929 . S
H103 C84 0.930 . S
H104 C86 0.932 . S
H105 C87 0.929 . S
H106 C88 0.928 . S
H107 C90 0.932 . S
C108 C109 1.264 . S
C108 C113 1.479 . S
C108 C118 1.465 . S
C109 C108 1.264 . S
C109 C111 1.339 . S
C109 H136 0.931 . S
C110 C111 1.395 . S
C110 C112 1.320 . S
C111 C109 1.339 . S
C111 C110 1.395 . S
C111 H137 0.929 . S
C112 C110 1.320 . S
C112 C113 1.405 . S
C112 H138 0.930 . S
C113 C108 1.479 . S
C113 C112 1.405 . S
C113 H139 0.931 . S
U114 O115 2.454 1_565 S
U114 O116 2.458 1_565 S
U114 C117 2.984 1_565 S
U114 C118 2.847 1_455 S
U114 C131 2.882 . S
U114 O132 2.441 1_455 S
U114 O133 2.420 1_455 S
U114 O134 2.455 1_565 S
U114 O135 2.449 . S
O115 U114 2.454 1_545 S
O115 C117 1.353 . S
O116 U114 2.458 1_545 S
O116 C117 1.286 . S
C117 U114 2.984 1_545 S
C117 O115 1.353 . S
C117 O116 1.286 . S
C117 C119 1.363 . S
C118 C108 1.465 . S
C118 U114 2.847 1_655 S
C118 O132 1.249 . S
C118 O133 1.202 . S
C119 C117 1.363 . S
C119 C121 1.408 . S
C119 C124 1.342 . S
C120 C121 1.310 . S
C120 C123 1.461 . S
C120 H140 0.932 . S
C121 C119 1.408 . S
C121 C120 1.310 . S
C121 H141 0.930 . S
C122 C123 1.474 . S
C122 C124 1.285 . S
C122 H142 0.929 . S
C123 C120 1.461 . S
C123 C122 1.474 . S
C124 C119 1.342 . S
C124 C122 1.285 . S
C124 H143 0.930 . S
C125 C128 1.424 1_455 S
C125 C130 1.245 1_565 S
C125 C131 1.428 . S
C126 C129 1.260 1_545 S
C126 C130 1.477 . S
C126 H144 0.932 . S
C127 C128 1.384 . S
C127 C129 1.479 1_655 S
C127 H145 0.929 . S
C128 C125 1.424 1_655 S
C128 C127 1.384 . S
C128 H146 0.928 . S
C129 C126 1.260 1_565 S
C129 C127 1.479 1_455 S
C130 C125 1.245 1_545 S
C130 C126 1.477 . S
C130 H147 0.932 . S
C131 U114 2.882 . S
C131 C125 1.428 . S
C131 O134 1.301 1_565 S
C131 O135 1.282 . S
O132 U114 2.441 1_655 S
O132 C118 1.249 . S
O133 U114 2.420 1_655 S
O133 C118 1.202 . S
O134 U114 2.455 1_545 S
O134 C131 1.301 1_545 S
O135 U114 2.449 . S
O135 C131 1.282 . S
H136 C109 0.931 . S
H137 C111 0.929 . S
H138 C112 0.930 . S
H139 C113 0.931 . S
H140 C120 0.932 . S
H141 C121 0.930 . S
H142 C122 0.929 . S
H143 C124 0.930 . S
H144 C126 0.932 . S
H145 C127 0.929 . S
H146 C128 0.928 . S
H147 C130 0.932 . S
C148 C149 1.264 . S
C148 C153 1.479 1_556 S
C148 C158 1.465 . S
C149 C148 1.264 . S
C149 C151 1.339 . S
C149 H176 0.931 . S
C150 C151 1.395 1_554 S
C150 C152 1.320 . S
C151 C149 1.339 . S
C151 C150 1.395 1_556 S
C151 H177 0.929 . S
C152 C150 1.320 . S
C152 C153 1.405 . S
C152 H178 0.930 . S
C153 C148 1.479 1_554 S
C153 C152 1.405 . S
C153 H179 0.931 . S
U154 O155 2.454 . S
U154 O156 2.458 . S
U154 C157 2.984 . S
U154 C158 2.847 . S
U154 C171 2.882 . S
U154 O172 2.441 . S
U154 O173 2.420 . S
U154 O174 2.455 . S
U154 O175 2.449 . S
O155 U154 2.454 . S
O155 C157 1.353 . S
O156 U154 2.458 . S
O156 C157 1.286 . S
C157 U154 2.984 . S
C157 O155 1.353 . S
C157 O156 1.286 . S
C157 C159 1.363 . S
C158 C148 1.465 . S
C158 U154 2.847 . S
C158 O172 1.249 . S
C158 O173 1.202 . S
C159 C157 1.363 . S
C159 C161 1.408 1_556 S
C159 C164 1.342 . S
C160 C161 1.310 . S
C160 C163 1.461 . S
C160 H180 0.932 . S
C161 C159 1.408 1_554 S
C161 C160 1.310 . S
C161 H181 0.930 . S
C162 C163 1.474 1_556 S
C162 C164 1.285 . S
C162 H182 0.929 . S
C163 C160 1.461 . S
C163 C162 1.474 1_554 S
C164 C159 1.342 . S
C164 C162 1.285 . S
C164 H183 0.930 . S
C165 C168 1.424 . S
C165 C170 1.245 . S
C165 C171 1.428 . S
C166 C169 1.260 . S
C166 C170 1.477 . S
C166 H184 0.932 . S
C167 C168 1.384 . S
C167 C169 1.479 . S
C167 H185 0.929 . S
C168 C165 1.424 . S
C168 C167 1.384 . S
C168 H186 0.928 . S
C169 C166 1.260 . S
C169 C167 1.479 . S
C170 C165 1.245 . S
C170 C166 1.477 . S
C170 H187 0.932 . S
C171 U154 2.882 . S
C171 C165 1.428 . S
C171 O174 1.301 . S
C171 O175 1.282 . S
O172 U154 2.441 . S
O172 C158 1.249 . S
O173 U154 2.420 . S
O173 C158 1.202 . S
O174 U154 2.455 . S
O174 C171 1.301 . S
O175 U154 2.449 . S
O175 C171 1.282 . S
H176 C149 0.931 . S
H177 C151 0.929 . S
H178 C152 0.930 . S
H179 C153 0.931 . S
H180 C160 0.932 . S
H181 C161 0.930 . S
H182 C162 0.929 . S
H183 C164 0.930 . S
H184 C166 0.932 . S
H185 C167 0.929 . S
H186 C168 0.928 . S
H187 C170 0.932 . S
C188 C189 1.264 . S
C188 C193 1.479 1_554 S
C188 C198 1.465 . S
C189 C188 1.264 . S
C189 C191 1.339 . S
C189 H216 0.931 . S
C190 C191 1.395 1_556 S
C190 C192 1.320 . S
C191 C189 1.339 . S
C191 C190 1.395 1_554 S
C191 H217 0.929 . S
C192 C190 1.320 . S
C192 C193 1.405 . S
C192 H218 0.930 . S
C193 C188 1.479 1_556 S
C193 C192 1.405 . S
C193 H219 0.931 . S
U194 O195 2.454 . S
U194 O196 2.458 . S
U194 C197 2.984 . S
U194 C198 2.847 . S
U194 C211 2.882 . S
U194 O212 2.441 . S
U194 O213 2.420 . S
U194 O214 2.455 . S
U194 O215 2.449 . S
O195 U194 2.454 . S
O195 C197 1.353 . S
O196 U194 2.458 . S
O196 C197 1.286 . S
C197 U194 2.984 . S
C197 O195 1.353 . S
C197 O196 1.286 . S
C197 C199 1.363 . S
C198 C188 1.465 . S
C198 U194 2.847 . S
C198 O212 1.249 . S
C198 O213 1.202 . S
C199 C197 1.363 . S
C199 C201 1.408 1_554 S
C199 C204 1.342 . S
C200 C201 1.310 . S
C200 C203 1.461 . S
C200 H220 0.932 . S
C201 C199 1.408 1_556 S
C201 C200 1.310 . S
C201 H221 0.930 . S
C202 C203 1.474 1_554 S
C202 C204 1.285 . S
C202 H222 0.929 . S
C203 C200 1.461 . S
C203 C202 1.474 1_556 S
C204 C199 1.342 . S
C204 C202 1.285 . S
C204 H223 0.930 . S
C205 C208 1.424 . S
C205 C210 1.245 . S
C205 C211 1.428 . S
C206 C209 1.260 . S
C206 C210 1.477 . S
C206 H224 0.932 . S
C207 C208 1.384 . S
C207 C209 1.479 . S
C207 H225 0.929 . S
C208 C205 1.424 . S
C208 C207 1.384 . S
C208 H226 0.928 . S
C209 C206 1.260 . S
C209 C207 1.479 . S
C210 C205 1.245 . S
C210 C206 1.477 . S
C210 H227 0.932 . S
C211 U194 2.882 . S
C211 C205 1.428 . S
C211 O214 1.301 . S
C211 O215 1.282 . S
O212 U194 2.441 . S
O212 C198 1.249 . S
O213 U194 2.420 . S
O213 C198 1.202 . S
O214 U194 2.455 . S
O214 C211 1.301 . S
O215 U194 2.449 . S
O215 C211 1.282 . S
H216 C189 0.931 . S
H217 C191 0.929 . S
H218 C192 0.930 . S
H219 C193 0.931 . S
H220 C200 0.932 . S
H221 C201 0.930 . S
H222 C202 0.929 . S
H223 C204 0.930 . S
H224 C206 0.932 . S
H225 C207 0.929 . S
H226 C208 0.928 . S
H227 C210 0.932 . S
C228 C229 1.363 1_556 S
C228 C234 1.379 . S
C228 N236 1.356 . S
C229 C228 1.363 1_554 S
C229 C235 1.363 . S
C230 C231 1.363 1_554 S
C230 C235 1.379 . S
C230 N237 1.356 . S
C231 C230 1.363 1_556 S
C231 C234 1.363 . S
N232 C234 1.356 . S
N232 H244 0.984 . S
N232 H245 0.985 . S
N233 C235 1.356 . S
N233 H238 0.984 . S
N233 H239 0.985 . S
C234 C228 1.379 . S
C234 C231 1.363 . S
C234 N232 1.356 . S
C235 C229 1.363 . S
C235 C230 1.379 . S
C235 N233 1.356 . S
N236 C228 1.356 . S
N236 H242 0.984 . S
N236 H243 0.984 . S
N237 C230 1.356 . S
N237 H240 0.987 . S
N237 H241 0.985 . S
H238 N233 0.984 . S
H239 N233 0.985 . S
H240 N237 0.987 . S
H241 N237 0.985 . S
H242 N236 0.984 . S
H243 N236 0.984 . S
H244 N232 0.984 . S
H245 N232 0.985 . S
C246 C247 1.363 . S
C246 C252 1.379 . S
C246 N254 1.356 . S
C247 C246 1.363 . S
C247 C253 1.363 . S
C248 C249 1.363 . S
C248 C253 1.379 . S
C248 N255 1.356 . S
C249 C248 1.363 . S
C249 C252 1.363 . S
N250 C252 1.356 . S
N250 H262 0.984 . S
N250 H263 0.985 . S
N251 C253 1.356 1_556 S
N251 H256 0.984 . S
N251 H257 0.985 . S
C252 C246 1.379 . S
C252 C249 1.363 . S
C252 N250 1.356 . S
C253 C247 1.363 . S
C253 C248 1.379 . S
C253 N251 1.356 1_554 S
N254 C246 1.356 . S
N254 H260 0.984 . S
N254 H261 0.984 . S
N255 C248 1.356 . S
N255 H258 0.984 . S
N255 H259 0.985 . S
H256 N251 0.984 . S
H257 N251 0.985 . S
H258 N255 0.984 . S
H259 N255 0.985 . S
H260 N254 0.984 . S
H261 N254 0.984 . S
H262 N250 0.984 . S
H263 N250 0.985 . S
C264 C265 1.363 1_556 S
C264 C270 1.379 . S
C264 N272 1.356 . S
C265 C264 1.363 1_554 S
C265 C271 1.363 . S
C266 C267 1.363 1_554 S
C266 C271 1.379 . S
C266 N273 1.356 . S
C267 C266 1.363 1_556 S
C267 C270 1.363 . S
N268 C270 1.356 . S
N268 H280 0.984 . S
N268 H281 0.985 . S
N269 C271 1.356 . S
N269 H274 0.984 . S
N269 H275 0.985 . S
C270 C264 1.379 . S
C270 C267 1.363 . S
C270 N268 1.356 . S
C271 C265 1.363 . S
C271 C266 1.379 . S
C271 N269 1.356 . S
N272 C264 1.356 . S
N272 H278 0.984 . S
N272 H279 0.984 . S
N273 C266 1.356 . S
N273 H276 0.984 . S
N273 H277 0.985 . S
H274 N269 0.984 . S
H275 N269 0.985 . S
H276 N273 0.984 . S
H277 N273 0.985 . S
H278 N272 0.984 . S
H279 N272 0.984 . S
H280 N268 0.984 . S
H281 N268 0.985 . S
C282 C283 1.363 . S
C282 C288 1.379 . S
C282 N290 1.356 1_554 S
C283 C282 1.363 . S
C283 C289 1.363 . S
C284 C285 1.363 . S
C284 C289 1.379 . S
C284 N291 1.356 . S
C285 C284 1.363 . S
C285 C288 1.363 . S
N286 C288 1.356 . S
N286 H298 0.984 1_554 S
N286 H299 0.985 . S
N287 C289 1.356 . S
N287 H292 0.984 . S
N287 H293 0.985 . S
C288 C282 1.379 . S
C288 C285 1.363 . S
C288 N286 1.356 . S
C289 C283 1.363 . S
C289 C284 1.379 . S
C289 N287 1.356 . S
N290 C282 1.356 1_556 S
N290 H296 0.984 . S
N290 H297 0.984 . S
N291 C284 1.356 . S
N291 H294 0.984 . S
N291 H295 0.985 . S
H292 N287 0.984 . S
H293 N287 0.985 . S
H294 N291 0.984 . S
H295 N291 0.985 . S
H296 N290 0.984 . S
H297 N290 0.984 . S
H298 N286 0.984 1_556 S
H299 N286 0.985 . S
C300 C301 1.363 . S
C300 C306 1.379 . S
C300 N308 1.356 . S
C301 C300 1.363 . S
C301 C307 1.363 . S
C302 C303 1.363 . S
C302 C307 1.379 . S
C302 N309 1.356 . S
C303 C302 1.363 . S
C303 C306 1.363 . S
N304 C306 1.356 . S
N304 H316 0.984 . S
N304 H317 0.985 . S
N305 C307 1.356 . S
N305 H310 0.984 . S
N305 H311 0.985 . S
C306 C300 1.379 . S
C306 C303 1.363 . S
C306 N304 1.356 . S
C307 C301 1.363 . S
C307 C302 1.379 . S
C307 N305 1.356 . S
N308 C300 1.356 . S
N308 H314 0.984 . S
N308 H315 0.984 . S
N309 C302 1.356 . S
N309 H312 0.984 . S
N309 H313 0.985 . S
H310 N305 0.984 . S
H311 N305 0.985 . S
H312 N309 0.984 . S
H313 N309 0.985 . S
H314 N308 0.984 . S
H315 N308 0.984 . S
H316 N304 0.984 . S
H317 N304 0.985 . S
C318 C319 1.363 . S
C318 C324 1.379 . S
C318 N326 1.356 . S
C319 C318 1.363 . S
C319 C325 1.363 . S
C320 C321 1.363 . S
C320 C325 1.379 . S
C320 N327 1.356 . S
C321 C320 1.363 . S
C321 C324 1.363 . S
N322 C324 1.356 . S
N322 H334 0.984 . S
N322 H335 0.985 . S
N323 C325 1.356 . S
N323 H328 0.984 . S
N323 H329 0.985 . S
C324 C318 1.379 . S
C324 C321 1.363 . S
C324 N322 1.356 . S
C325 C319 1.363 . S
C325 C320 1.379 . S
C325 N323 1.356 . S
N326 C318 1.356 . S
N326 H332 0.984 . S
N326 H333 0.984 . S
N327 C320 1.356 . S
N327 H330 0.984 . S
N327 H331 0.985 . S
H328 N323 0.984 . S
H329 N323 0.985 . S
H330 N327 0.984 . S
H331 N327 0.985 . S
H332 N326 0.984 . S
H333 N326 0.984 . S
H334 N322 0.984 . S
H335 N322 0.985 . S
C336 C337 1.363 . S
C336 C342 1.379 . S
C336 N344 1.356 . S
C337 C336 1.363 . S
C337 C343 1.363 . S
C338 C339 1.363 . S
C338 C343 1.379 . S
C338 N345 1.356 . S
C339 C338 1.363 . S
C339 C342 1.363 . S
N340 C342 1.356 . S
N340 H352 0.984 . S
N340 H353 0.985 . S
N341 C343 1.356 . S
N341 H346 0.984 . S
N341 H347 0.985 . S
C342 C336 1.379 . S
C342 C339 1.363 . S
C342 N340 1.356 . S
C343 C337 1.363 . S
C343 C338 1.379 . S
C343 N341 1.356 . S
N344 C336 1.356 . S
N344 H350 0.984 . S
N344 H351 0.984 . S
N345 C338 1.356 . S
N345 H348 0.984 . S
N345 H349 0.985 . S
H346 N341 0.984 . S
H347 N341 0.985 . S
H348 N345 0.984 . S
H349 N345 0.985 . S
H350 N344 0.984 . S
H351 N344 0.984 . S
H352 N340 0.984 . S
H353 N340 0.985 . S
C354 C355 1.363 . S
C354 C360 1.379 . S
C354 N362 1.356 . S
C355 C354 1.363 . S
C355 C361 1.363 . S
C356 C357 1.363 . S
C356 C361 1.379 . S
C356 N363 1.356 . S
C357 C356 1.363 . S
C357 C360 1.363 . S
N358 C360 1.356 . S
N358 H370 0.984 . S
N358 H371 0.985 . S
N359 C361 1.356 . S
N359 H364 0.984 . S
N359 H365 0.985 . S
C360 C354 1.379 . S
C360 C357 1.363 . S
C360 N358 1.356 . S
C361 C355 1.363 . S
C361 C356 1.379 . S
C361 N359 1.356 . S
N362 C354 1.356 . S
N362 H368 0.984 . S
N362 H369 0.984 . S
N363 C356 1.356 . S
N363 H366 0.984 . S
N363 H367 0.985 . S
H364 N359 0.984 . S
H365 N359 0.985 . S
H366 N363 0.984 . S
H367 N363 0.985 . S
H368 N362 0.984 . S
H369 N362 0.984 . S
H370 N358 0.984 . S
H371 N358 0.985 . S
C372 C373 1.363 . S
C372 C378 1.379 . S
C372 N380 1.356 . S
C373 C372 1.363 . S
C373 C379 1.363 1_445 S
C374 C375 1.363 1_565 S
C374 C379 1.379 . S
C374 N381 1.356 . S
C375 C374 1.363 1_545 S
C375 C378 1.363 1_655 S
N376 C378 1.356 . S
N376 H388 0.984 . S
N376 H389 0.985 . S
N377 C379 1.356 . S
N377 H382 0.984 . S
N377 H383 0.985 . S
C378 C372 1.379 . S
C378 C375 1.363 1_455 S
C378 N376 1.356 . S
C379 C373 1.363 1_665 S
C379 C374 1.379 . S
C379 N377 1.356 . S
N380 C372 1.356 . S
N380 H386 0.984 . S
N380 H387 0.984 . S
N381 C374 1.356 . S
N381 H384 0.984 . S
N381 H385 0.985 . S
H382 N377 0.984 . S
H383 N377 0.985 . S
H384 N381 0.984 . S
H385 N381 0.985 . S
H386 N380 0.984 . S
H387 N380 0.984 . S
H388 N376 0.984 . S
H389 N376 0.985 . S
C390 C391 1.363 1_655 S
C390 C396 1.379 . S
C390 N398 1.356 . S
C391 C390 1.363 1_455 S
C391 C397 1.363 1_545 S
C392 C393 1.363 1_565 S
C392 C397 1.379 . S
C392 N399 1.356 . S
C393 C392 1.363 1_545 S
C393 C396 1.363 1_455 S
N394 C396 1.356 . S
N394 H406 0.984 . S
N394 H407 0.985 . S
N395 C397 1.356 . S
N395 H400 0.984 . S
N395 H401 0.985 . S
C396 C390 1.379 . S
C396 C393 1.363 1_655 S
C396 N394 1.356 . S
C397 C391 1.363 1_565 S
C397 C392 1.379 . S
C397 N395 1.356 . S
N398 C390 1.356 . S
N398 H404 0.984 . S
N398 H405 0.984 . S
N399 C392 1.356 . S
N399 H402 0.984 . S
N399 H403 0.985 . S
H400 N395 0.984 . S
H401 N395 0.985 . S
H402 N399 0.984 . S
H403 N399 0.985 . S
H404 N398 0.984 . S
H405 N398 0.984 . S
H406 N394 0.984 . S
H407 N394 0.985 . S
C408 C409 1.363 . S
C408 C414 1.379 . S
C408 N416 1.356 . S
C409 C408 1.363 . S
C409 C415 1.363 . S
C410 C411 1.363 . S
C410 C415 1.379 . S
C410 N417 1.356 . S
C411 C410 1.363 . S
C411 C414 1.363 . S
N412 C414 1.356 . S
N412 H424 0.984 . S
N412 H425 0.985 . S
N413 C415 1.356 . S
N413 H418 0.984 . S
N413 H419 0.985 . S
C414 C408 1.379 . S
C414 C411 1.363 . S
C414 N412 1.356 . S
C415 C409 1.363 . S
C415 C410 1.379 . S
C415 N413 1.356 . S
N416 C408 1.356 . S
N416 H422 0.984 . S
N416 H423 0.984 . S
N417 C410 1.356 . S
N417 H420 0.984 . S
N417 H421 0.985 . S
H418 N413 0.984 . S
H419 N413 0.985 . S
H420 N417 0.984 . S
H421 N417 0.985 . S
H422 N416 0.984 . S
H423 N416 0.984 . S
H424 N412 0.984 . S
H425 N412 0.985 . S
C426 C427 1.363 . S
C426 C432 1.379 . S
C426 N434 1.356 . S
C427 C426 1.363 . S
C427 C433 1.363 . S
C428 C429 1.363 . S
C428 C433 1.379 . S
C428 N435 1.356 . S
C429 C428 1.363 . S
C429 C432 1.363 . S
N430 C432 1.356 . S
N430 H442 0.984 . S
N430 H443 0.985 . S
N431 C433 1.356 . S
N431 H436 0.984 . S
N431 H437 0.985 . S
C432 C426 1.379 . S
C432 C429 1.363 . S
C432 N430 1.356 . S
C433 C427 1.363 . S
C433 C428 1.379 . S
C433 N431 1.356 . S
N434 C426 1.356 . S
N434 H440 0.984 . S
N434 H441 0.984 . S
N435 C428 1.356 . S
N435 H438 0.984 . S
N435 H439 0.985 . S
H436 N431 0.984 . S
H437 N431 0.985 . S
H438 N435 0.984 . S
H439 N435 0.985 . S
H440 N434 0.984 . S
H441 N434 0.984 . S
H442 N430 0.984 . S
H443 N430 0.985 . S
C231 C190 1.637 . S
C229 C29 1.715 . S
C247 C8 1.671 . S
C249 C150 1.601 . S
C265 C0 1.665 . S
C267 C203 1.576 . S
C283 C17 1.708 . S
C285 C163 1.604 . S
C301 C63 1.715 . S
C303 C110 1.637 . S
C319 C42 1.671 . S
C321 C70 1.602 . S
C339 C123 1.576 . S
C337 C34 1.665 . S
C357 C83 1.604 . S
C355 C51 1.707 . S
C373 C4 1.491 . S
C375 C89 1.477 1_655 S
C391 C13 1.488 . S
C393 C129 1.479 1_545 S
C411 C169 1.477 . S
C409 C38 1.491 . S
C427 C47 1.488 . S
C429 C209 1.479 . S
