# Generated by pormake.
# Topology iac, (4,6)-cn, num edge types: 1
# Building blocks:
#     Node 0, Type 0, BuildingBlock: GALJAG_clean_sbu_0, # of connection points: 4
#     Node 1, Type 0, BuildingBlock: GALJAG_clean_sbu_0, # of connection points: 4
#     Node 2, Type 0, BuildingBlock: GALJAG_clean_sbu_0, # of connection points: 4
#     Node 3, Type 0, BuildingBlock: GALJAG_clean_sbu_0, # of connection points: 4
#     Node 4, Type 0, BuildingBlock: GALJAG_clean_sbu_0, # of connection points: 4
#     Node 5, Type 0, BuildingBlock: GALJAG_clean_sbu_0, # of connection points: 4
#     Node 6, Type 0, BuildingBlock: GALJAG_clean_sbu_0, # of connection points: 4
#     Node 7, Type 0, BuildingBlock: GALJAG_clean_sbu_0, # of connection points: 4
#     Node 8, Type 0, BuildingBlock: GALJAG_clean_sbu_0, # of connection points: 4
#     Node 9, Type 0, BuildingBlock: GALJAG_clean_sbu_0, # of connection points: 4
#     Node 10, Type 0, BuildingBlock: GALJAG_clean_sbu_0, # of connection points: 4
#     Node 11, Type 0, BuildingBlock: GALJAG_clean_sbu_0, # of connection points: 4
#     Node 12, Type 0, BuildingBlock: GALJAG_clean_sbu_0, # of connection points: 4
#     Node 13, Type 0, BuildingBlock: GALJAG_clean_sbu_0, # of connection points: 4
#     Node 14, Type 0, BuildingBlock: GALJAG_clean_sbu_0, # of connection points: 4
#     Node 15, Type 0, BuildingBlock: GALJAG_clean_sbu_0, # of connection points: 4
#     Node 16, Type 0, BuildingBlock: GALJAG_clean_sbu_0, # of connection points: 4
#     Node 17, Type 0, BuildingBlock: GALJAG_clean_sbu_0, # of connection points: 4
#     Node 18, Type 0, BuildingBlock: GALJAG_clean_sbu_0, # of connection points: 4
#     Node 19, Type 0, BuildingBlock: GALJAG_clean_sbu_0, # of connection points: 4
#     Node 20, Type 0, BuildingBlock: GALJAG_clean_sbu_0, # of connection points: 4
#     Node 21, Type 0, BuildingBlock: GALJAG_clean_sbu_0, # of connection points: 4
#     Node 22, Type 0, BuildingBlock: GALJAG_clean_sbu_0, # of connection points: 4
#     Node 23, Type 0, BuildingBlock: GALJAG_clean_sbu_0, # of connection points: 4
#     Node 24, Type 1, BuildingBlock: FUNLAD_clean_sbu_0, # of connection points: 6
#     Node 25, Type 1, BuildingBlock: FUNLAD_clean_sbu_0, # of connection points: 6
#     Node 26, Type 1, BuildingBlock: FUNLAD_clean_sbu_0, # of connection points: 6
#     Node 27, Type 1, BuildingBlock: FUNLAD_clean_sbu_0, # of connection points: 6
#     Node 28, Type 1, BuildingBlock: FUNLAD_clean_sbu_0, # of connection points: 6
#     Node 29, Type 1, BuildingBlock: FUNLAD_clean_sbu_0, # of connection points: 6
#     Node 30, Type 1, BuildingBlock: FUNLAD_clean_sbu_0, # of connection points: 6
#     Node 31, Type 1, BuildingBlock: FUNLAD_clean_sbu_0, # of connection points: 6
#     Node 32, Type 1, BuildingBlock: FUNLAD_clean_sbu_0, # of connection points: 6
#     Node 33, Type 1, BuildingBlock: FUNLAD_clean_sbu_0, # of connection points: 6
#     Node 34, Type 1, BuildingBlock: FUNLAD_clean_sbu_0, # of connection points: 6
#     Node 35, Type 1, BuildingBlock: FUNLAD_clean_sbu_0, # of connection points: 6
#     Node 36, Type 1, BuildingBlock: FUNLAD_clean_sbu_0, # of connection points: 6
#     Node 37, Type 1, BuildingBlock: FUNLAD_clean_sbu_0, # of connection points: 6
#     Node 38, Type 1, BuildingBlock: FUNLAD_clean_sbu_0, # of connection points: 6
#     Node 39, Type 1, BuildingBlock: FUNLAD_clean_sbu_0, # of connection points: 6
#     Edge 40, Type (0, 1), BuildingBlock: XIVTED_clean_linker_0, # of connection points: 2
#     Edge 41, Type (0, 1), BuildingBlock: XIVTED_clean_linker_0, # of connection points: 2
#     Edge 42, Type (0, 1), BuildingBlock: XIVTED_clean_linker_0, # of connection points: 2
#     Edge 43, Type (0, 1), BuildingBlock: XIVTED_clean_linker_0, # of connection points: 2
#     Edge 44, Type (0, 1), BuildingBlock: XIVTED_clean_linker_0, # of connection points: 2
#     Edge 45, Type (0, 1), BuildingBlock: XIVTED_clean_linker_0, # of connection points: 2
#     Edge 46, Type (0, 1), BuildingBlock: XIVTED_clean_linker_0, # of connection points: 2
#     Edge 47, Type (0, 1), BuildingBlock: XIVTED_clean_linker_0, # of connection points: 2
#     Edge 48, Type (0, 1), BuildingBlock: XIVTED_clean_linker_0, # of connection points: 2
#     Edge 49, Type (0, 1), BuildingBlock: XIVTED_clean_linker_0, # of connection points: 2
#     Edge 50, Type (0, 1), BuildingBlock: XIVTED_clean_linker_0, # of connection points: 2
#     Edge 51, Type (0, 1), BuildingBlock: XIVTED_clean_linker_0, # of connection points: 2
#     Edge 52, Type (0, 1), BuildingBlock: XIVTED_clean_linker_0, # of connection points: 2
#     Edge 53, Type (0, 1), BuildingBlock: XIVTED_clean_linker_0, # of connection points: 2
#     Edge 54, Type (0, 1), BuildingBlock: XIVTED_clean_linker_0, # of connection points: 2
#     Edge 55, Type (0, 1), BuildingBlock: XIVTED_clean_linker_0, # of connection points: 2
#     Edge 56, Type (0, 1), BuildingBlock: XIVTED_clean_linker_0, # of connection points: 2
#     Edge 57, Type (0, 1), BuildingBlock: XIVTED_clean_linker_0, # of connection points: 2
#     Edge 58, Type (0, 1), BuildingBlock: XIVTED_clean_linker_0, # of connection points: 2
#     Edge 59, Type (0, 1), BuildingBlock: XIVTED_clean_linker_0, # of connection points: 2
#     Edge 60, Type (0, 1), BuildingBlock: XIVTED_clean_linker_0, # of connection points: 2
#     Edge 61, Type (0, 1), BuildingBlock: XIVTED_clean_linker_0, # of connection points: 2
#     Edge 62, Type (0, 1), BuildingBlock: XIVTED_clean_linker_0, # of connection points: 2
#     Edge 63, Type (0, 1), BuildingBlock: XIVTED_clean_linker_0, # of connection points: 2
#     Edge 64, Type (0, 1), BuildingBlock: XIVTED_clean_linker_0, # of connection points: 2
#     Edge 65, Type (0, 1), BuildingBlock: XIVTED_clean_linker_0, # of connection points: 2
#     Edge 66, Type (0, 1), BuildingBlock: XIVTED_clean_linker_0, # of connection points: 2
#     Edge 67, Type (0, 1), BuildingBlock: XIVTED_clean_linker_0, # of connection points: 2
#     Edge 68, Type (0, 1), BuildingBlock: XIVTED_clean_linker_0, # of connection points: 2
#     Edge 69, Type (0, 1), BuildingBlock: XIVTED_clean_linker_0, # of connection points: 2
#     Edge 70, Type (0, 1), BuildingBlock: XIVTED_clean_linker_0, # of connection points: 2
#     Edge 71, Type (0, 1), BuildingBlock: XIVTED_clean_linker_0, # of connection points: 2
#     Edge 72, Type (0, 1), BuildingBlock: XIVTED_clean_linker_0, # of connection points: 2
#     Edge 73, Type (0, 1), BuildingBlock: XIVTED_clean_linker_0, # of connection points: 2
#     Edge 74, Type (0, 1), BuildingBlock: XIVTED_clean_linker_0, # of connection points: 2
#     Edge 75, Type (0, 1), BuildingBlock: XIVTED_clean_linker_0, # of connection points: 2
#     Edge 76, Type (0, 1), BuildingBlock: XIVTED_clean_linker_0, # of connection points: 2
#     Edge 77, Type (0, 1), BuildingBlock: XIVTED_clean_linker_0, # of connection points: 2
#     Edge 78, Type (0, 1), BuildingBlock: XIVTED_clean_linker_0, # of connection points: 2
#     Edge 79, Type (0, 1), BuildingBlock: XIVTED_clean_linker_0, # of connection points: 2
#     Edge 80, Type (0, 1), BuildingBlock: XIVTED_clean_linker_0, # of connection points: 2
#     Edge 81, Type (0, 1), BuildingBlock: XIVTED_clean_linker_0, # of connection points: 2
#     Edge 82, Type (0, 1), BuildingBlock: XIVTED_clean_linker_0, # of connection points: 2
#     Edge 83, Type (0, 1), BuildingBlock: XIVTED_clean_linker_0, # of connection points: 2
#     Edge 84, Type (0, 1), BuildingBlock: XIVTED_clean_linker_0, # of connection points: 2
#     Edge 85, Type (0, 1), BuildingBlock: XIVTED_clean_linker_0, # of connection points: 2
#     Edge 86, Type (0, 1), BuildingBlock: XIVTED_clean_linker_0, # of connection points: 2
#     Edge 87, Type (0, 1), BuildingBlock: XIVTED_clean_linker_0, # of connection points: 2
#     Edge 88, Type (0, 1), BuildingBlock: XIVTED_clean_linker_0, # of connection points: 2
#     Edge 89, Type (0, 1), BuildingBlock: XIVTED_clean_linker_0, # of connection points: 2
#     Edge 90, Type (0, 1), BuildingBlock: XIVTED_clean_linker_0, # of connection points: 2
#     Edge 91, Type (0, 1), BuildingBlock: XIVTED_clean_linker_0, # of connection points: 2
#     Edge 92, Type (0, 1), BuildingBlock: XIVTED_clean_linker_0, # of connection points: 2
#     Edge 93, Type (0, 1), BuildingBlock: XIVTED_clean_linker_0, # of connection points: 2
#     Edge 94, Type (0, 1), BuildingBlock: XIVTED_clean_linker_0, # of connection points: 2
#     Edge 95, Type (0, 1), BuildingBlock: XIVTED_clean_linker_0, # of connection points: 2
#     Edge 96, Type (0, 1), BuildingBlock: XIVTED_clean_linker_0, # of connection points: 2
#     Edge 97, Type (0, 1), BuildingBlock: XIVTED_clean_linker_0, # of connection points: 2
#     Edge 98, Type (0, 1), BuildingBlock: XIVTED_clean_linker_0, # of connection points: 2
#     Edge 99, Type (0, 1), BuildingBlock: XIVTED_clean_linker_0, # of connection points: 2
#     Edge 100, Type (0, 1), BuildingBlock: XIVTED_clean_linker_0, # of connection points: 2
#     Edge 101, Type (0, 1), BuildingBlock: XIVTED_clean_linker_0, # of connection points: 2
#     Edge 102, Type (0, 1), BuildingBlock: XIVTED_clean_linker_0, # of connection points: 2
#     Edge 103, Type (0, 1), BuildingBlock: XIVTED_clean_linker_0, # of connection points: 2
#     Edge 104, Type (0, 1), BuildingBlock: XIVTED_clean_linker_0, # of connection points: 2
#     Edge 105, Type (0, 1), BuildingBlock: XIVTED_clean_linker_0, # of connection points: 2
#     Edge 106, Type (0, 1), BuildingBlock: XIVTED_clean_linker_0, # of connection points: 2
#     Edge 107, Type (0, 1), BuildingBlock: XIVTED_clean_linker_0, # of connection points: 2
#     Edge 108, Type (0, 1), BuildingBlock: XIVTED_clean_linker_0, # of connection points: 2
#     Edge 109, Type (0, 1), BuildingBlock: XIVTED_clean_linker_0, # of connection points: 2
#     Edge 110, Type (0, 1), BuildingBlock: XIVTED_clean_linker_0, # of connection points: 2
#     Edge 111, Type (0, 1), BuildingBlock: XIVTED_clean_linker_0, # of connection points: 2
#     Edge 112, Type (0, 1), BuildingBlock: XIVTED_clean_linker_0, # of connection points: 2
#     Edge 113, Type (0, 1), BuildingBlock: XIVTED_clean_linker_0, # of connection points: 2
#     Edge 114, Type (0, 1), BuildingBlock: XIVTED_clean_linker_0, # of connection points: 2
#     Edge 115, Type (0, 1), BuildingBlock: XIVTED_clean_linker_0, # of connection points: 2
#     Edge 116, Type (0, 1), BuildingBlock: XIVTED_clean_linker_0, # of connection points: 2
#     Edge 117, Type (0, 1), BuildingBlock: XIVTED_clean_linker_0, # of connection points: 2
#     Edge 118, Type (0, 1), BuildingBlock: XIVTED_clean_linker_0, # of connection points: 2
#     Edge 119, Type (0, 1), BuildingBlock: XIVTED_clean_linker_0, # of connection points: 2
#     Edge 120, Type (0, 1), BuildingBlock: XIVTED_clean_linker_0, # of connection points: 2
#     Edge 121, Type (0, 1), BuildingBlock: XIVTED_clean_linker_0, # of connection points: 2
#     Edge 122, Type (0, 1), BuildingBlock: XIVTED_clean_linker_0, # of connection points: 2
#     Edge 123, Type (0, 1), BuildingBlock: XIVTED_clean_linker_0, # of connection points: 2
#     Edge 124, Type (0, 1), BuildingBlock: XIVTED_clean_linker_0, # of connection points: 2
#     Edge 125, Type (0, 1), BuildingBlock: XIVTED_clean_linker_0, # of connection points: 2
#     Edge 126, Type (0, 1), BuildingBlock: XIVTED_clean_linker_0, # of connection points: 2
#     Edge 127, Type (0, 1), BuildingBlock: XIVTED_clean_linker_0, # of connection points: 2
#     Edge 128, Type (0, 1), BuildingBlock: XIVTED_clean_linker_0, # of connection points: 2
#     Edge 129, Type (0, 1), BuildingBlock: XIVTED_clean_linker_0, # of connection points: 2
#     Edge 130, Type (0, 1), BuildingBlock: XIVTED_clean_linker_0, # of connection points: 2
#     Edge 131, Type (0, 1), BuildingBlock: XIVTED_clean_linker_0, # of connection points: 2
#     Edge 132, Type (0, 1), BuildingBlock: XIVTED_clean_linker_0, # of connection points: 2
#     Edge 133, Type (0, 1), BuildingBlock: XIVTED_clean_linker_0, # of connection points: 2
#     Edge 134, Type (0, 1), BuildingBlock: XIVTED_clean_linker_0, # of connection points: 2
#     Edge 135, Type (0, 1), BuildingBlock: XIVTED_clean_linker_0, # of connection points: 2
# Relax obj value: 0.351
# Max RMSD: 0.285
# Mean RMSD: 0.170
data_MOF--net-iac--node1-GALJAG_clean_sbu_0--node2-FUNLAD_clean_sbu_0--edge1-XIVTED_clean_linker_0
_symmetry_space_group_name_H-M    P1
_symmetry_Int_Tables_number       1
_symmetry_cell_setting            triclinic
loop_
_symmetry_equiv_pos_as_xyz
'x, y, z'
_cell_length_a     55.378629
_cell_length_b     53.272474
_cell_length_c     59.722116
_cell_angle_alpha  89.929291
_cell_angle_beta   92.061549
_cell_angle_gamma 90.172383
loop_
_atom_site_label
_atom_site_type_symbol
_atom_site_fract_x
_atom_site_fract_y
_atom_site_fract_z
_atom_type_partial_charge
In0 In 0.06368 0.2166 0.15668 0.0
O1 O 0.0716 0.20713 0.12099 0.0
O2 O 0.0835 0.18115 0.14613 0.0
C3 C 0.03393 0.25435 0.14423 0.0
C4 C 0.03785 0.18757 0.18395 0.0
C5 C 0.10279 0.24315 0.17018 0.0
O6 O 0.03516 0.23431 0.13316 0.0
O7 O 0.04657 0.25457 0.16217 0.0
O8 O 0.08783 0.23474 0.18378 0.0
O9 O 0.09849 0.23733 0.15 0.0
C10 C 0.08224 0.18679 0.12555 0.0
O11 O 0.05769 0.19746 0.1902 0.0
O12 O 0.03148 0.19176 0.16382 0.0
In13 In 0.03054 0.75855 0.3884 0.0
O14 O 0.05285 0.74931 0.35767 0.0
O15 O 0.07128 0.76543 0.38583 0.0
C16 C 0.987 0.76094 0.36595 0.0
C17 C 0.03333 0.71477 0.41163 0.0
C18 C 0.02701 0.80179 0.41205 0.0
O19 O 0.00637 0.76813 0.35744 0.0
O20 O 0.98964 0.7524 0.38558 0.0
O21 O 0.02372 0.78042 0.4205 0.0
O22 O 0.03229 0.80144 0.39168 0.0
C23 C 0.07267 0.75702 0.36619 0.0
O24 O 0.03996 0.73556 0.41989 0.0
O25 O 0.0257 0.71592 0.39149 0.0
In26 In 0.56842 0.72597 0.67024 0.0
O27 O 0.55159 0.74232 0.63808 0.0
O28 O 0.5842 0.75861 0.6513 0.0
C29 C 0.57545 0.68023 0.65249 0.0
C30 C 0.6016 0.7435 0.70001 0.0
C31 C 0.52517 0.72438 0.68871 0.0
O32 O 0.58444 0.69992 0.64464 0.0
O33 O 0.56415 0.68335 0.67016 0.0
O34 O 0.54344 0.7135 0.69742 0.0
O35 O 0.52898 0.73672 0.67112 0.0
C36 C 0.56806 0.75846 0.63588 0.0
O37 O 0.58008 0.75118 0.69944 0.0
O38 O 0.60607 0.72633 0.68625 0.0
In39 In 0.53211 0.25286 0.89 0.0
O40 O 0.55433 0.24405 0.85904 0.0
O41 O 0.57304 0.25858 0.88772 0.0
C42 C 0.48741 0.25377 0.86942 0.0
C43 C 0.53594 0.20939 0.91329 0.0
C44 C 0.52954 0.29618 0.9136 0.0
O45 O 0.50587 0.26265 0.86041 0.0
O46 O 0.49158 0.24426 0.88847 0.0
O47 O 0.52738 0.27478 0.92233 0.0
O48 O 0.5333 0.29587 0.89287 0.0
C49 C 0.57438 0.2505 0.86798 0.0
O50 O 0.53918 0.23063 0.92222 0.0
O51 O 0.53092 0.20999 0.8925 0.0
In52 In 0.14136 0.01636 0.24025 0.0
O53 O 0.16028 0.98405 0.22262 0.0
O54 O 0.16531 0.98738 0.25792 0.0
C55 C 0.16647 0.0577 0.22912 0.0
C56 C 0.10331 0.01277 0.21097 0.0
C57 C 0.12461 0.02301 0.28167 0.0
O58 O 0.17418 0.03592 0.22525 0.0
O59 O 0.14638 0.05836 0.23829 0.0
O60 O 0.11162 0.01428 0.26573 0.0
O61 O 0.14611 0.02777 0.27686 0.0
C62 C 0.1701 0.97546 0.24042 0.0
O63 O 0.11558 0.03255 0.21369 0.0
O64 O 0.11044 0.99438 0.22279 0.0
In65 In 0.2791 0.89259 0.54995 0.0
O66 O 0.25504 0.92718 0.55085 0.0
O67 O 0.23818 0.89176 0.54479 0.0
C68 C 0.32233 0.916 0.55408 0.0
C69 C 0.2742 0.86513 0.58746 0.0
C70 C 0.28418 0.87318 0.50871 0.0
O71 O 0.30282 0.92781 0.55094 0.0
O72 O 0.31987 0.89263 0.5563 0.0
O73 O 0.28486 0.85984 0.52616 0.0
O74 O 0.28018 0.89611 0.51199 0.0
C75 C 0.23567 0.91515 0.54707 0.0
O76 O 0.27735 0.8554 0.56857 0.0
O77 O 0.27384 0.88884 0.58759 0.0
In78 In 0.41335 0.00729 0.74239 0.0
O79 O 0.38559 0.03523 0.72779 0.0
O80 O 0.40044 0.04178 0.7606 0.0
C81 C 0.38614 0.96539 0.73989 0.0
C82 C 0.44261 0.0111 0.70739 0.0
C83 C 0.43705 -0.00157 0.78176 0.0
O84 O 0.37693 0.98702 0.73873 0.0
O85 O 0.4089 0.96507 0.74112 0.0
O86 O 0.44811 0.00507 0.76459 0.0
O87 O 0.41445 -0.00278 0.77906 0.0
C88 C 0.38586 0.04876 0.74515 0.0
O89 O 0.44119 0.02829 0.7218 0.0
O90 O 0.42898 0.99252 0.71041 0.0
In91 In 0.27243 0.09736 0.03192 0.0
O92 O 0.29026 0.06189 0.01993 0.0
O93 O 0.30716 0.0967 0.0126 0.0
C94 C 0.24755 0.06794 0.05995 0.0
C95 C 0.2966 0.13418 0.05429 0.0
C96 C 0.24181 0.11193 -0.0016 0.0
O97 O 0.26853 0.06298 0.05397 0.0
O98 O 0.2393 0.08854 0.05261 0.0
O99 O 0.24321 0.12299 0.01704 0.0
O100 O 0.25507 0.09282 -0.00296 0.0
C101 C 0.3079 0.07306 0.01158 0.0
O102 O 0.28393 0.13808 0.03675 0.0
O103 O 0.29659 0.11176 0.06106 0.0
In104 In 0.78259 0.38709 0.0486 0.0
O105 O 0.80267 0.35796 0.07011 0.0
O106 O 0.76556 0.36406 0.07618 0.0
C107 C 0.79158 0.36283 0.01011 0.0
C108 C 0.7393 0.4101 0.04738 0.0
C109 C 0.81775 0.42204 0.05413 0.0
O110 O 0.78013 0.35267 0.02558 0.0
O111 O 0.79794 0.38514 0.01389 0.0
O112 O 0.79992 0.42483 0.0407 0.0
O113 O 0.81709 0.40232 0.06579 0.0
C114 C 0.78459 0.35203 0.08126 0.0
O115 O 0.75383 0.4117 0.06412 0.0
O116 O 0.74648 0.39669 0.03156 0.0
In117 In 0.90603 0.51152 0.23511 0.0
O118 O 0.94266 0.51609 0.21958 0.0
O119 O 0.9113 0.5175 0.1979 0.0
C120 C 0.92127 0.5078 0.27823 0.0
C121 C 0.87996 0.55411 0.23493 0.0
C122 C 0.88938 0.46428 0.22933 0.0
O123 O 0.93568 0.5102 0.26249 0.0
O124 O 0.89922 0.5084 0.2723 0.0
O125 O 0.87587 0.48322 0.22719 0.0
O126 O 0.91134 0.46928 0.23331 0.0
C127 C 0.93405 0.5187 0.19989 0.0
O128 O 0.87029 0.53266 0.23361 0.0
O129 O 0.90276 0.55408 0.23647 0.0
In130 In 0.79363 0.67563 0.54089 0.0
O131 O 0.80753 0.63777 0.53018 0.0
O132 O 0.83146 0.66899 0.5285 0.0
C133 C 0.76191 0.65049 0.56564 0.0
C134 C 0.81262 0.7091 0.57019 0.0
C135 C 0.77248 0.6908 0.50196 0.0
O136 O 0.78334 0.64331 0.56346 0.0
O137 O 0.7571 0.67148 0.55678 0.0
O138 O 0.78746 0.70442 0.51276 0.0
O139 O 0.76857 0.66976 0.51064 0.0
C140 C 0.82837 0.64564 0.52605 0.0
O141 O 0.79269 0.71277 0.5598 0.0
O142 O 0.82268 0.68859 0.56589 0.0
In143 In 0.6586 0.49631 0.74874 0.0
O144 O 0.69368 0.47501 0.75636 0.0
O145 O 0.66162 0.45395 0.74916 0.0
C146 C 0.67783 0.54257 0.74618 0.0
C147 C 0.63704 0.48774 0.70842 0.0
C148 C 0.63616 0.50131 0.78771 0.0
O149 O 0.69034 0.523 0.74407 0.0
O150 O 0.65563 0.53873 0.7487 0.0
O151 O 0.62511 0.50341 0.76895 0.0
O152 O 0.65823 0.49581 0.78675 0.0
C153 C 0.68402 0.45367 0.75377 0.0
O154 O 0.62617 0.48492 0.72647 0.0
O155 O 0.65851 0.49556 0.71072 0.0
In156 In 0.00482 0.80416 0.89362 0.0
O157 O 0.03646 0.83057 0.88959 0.0
O158 O 0.01382 0.82343 0.8608 0.0
C159 C 0.96964 0.77287 0.87902 0.0
C160 C 0.0361 0.76874 0.90806 0.0
C161 C 0.98103 0.83325 0.92208 0.0
O162 O 0.98217 0.78533 0.86566 0.0
O163 O 0.97423 0.77708 0.89946 0.0
O164 O 0.9946 0.81544 0.92825 0.0
O165 O 0.97958 0.83695 0.90116 0.0
C166 C 0.03246 0.83423 0.86892 0.0
O167 O 0.03073 0.78738 0.91986 0.0
O168 O 0.02689 0.76895 0.88846 0.0
In169 In 0.02284 0.25844 0.65316 0.0
O170 O 0.01144 0.28164 0.6222 0.0
O171 O 0.02492 0.3015 0.65071 0.0
C172 C 0.02683 0.21536 0.62925 0.0
C173 C 0.06663 0.2567 0.67541 0.0
C174 C 0.98122 0.25729 0.6761 0.0
O175 O 0.03082 0.23675 0.6211 0.0
O176 O 0.02077 0.21565 0.64941 0.0
O177 O 0.00086 0.26567 0.6845 0.0
O178 O 0.98255 0.24961 0.65622 0.0
C179 C 0.01659 0.30267 0.63079 0.0
O180 O 0.04729 0.24984 0.68414 0.0
O181 O 0.06388 0.26478 0.65563 0.0
In182 In 0.51919 0.28403 0.3608 0.0
O183 O 0.53233 0.29825 0.32719 0.0
O184 O 0.55671 0.29847 0.35568 0.0
C185 C 0.4799 0.26005 0.34416 0.0
C186 C 0.53977 0.24921 0.38783 0.0
C187 C 0.50447 0.32475 0.38245 0.0
O188 O 0.50017 0.25808 0.33538 0.0
O189 O 0.47929 0.27516 0.36031 0.0
O190 O 0.50349 0.30296 0.39062 0.0
O191 O 0.51149 0.32588 0.36259 0.0
C192 C 0.55311 0.30365 0.33523 0.0
O193 O 0.53542 0.27116 0.39424 0.0
O194 O 0.535 0.24519 0.36736 0.0
In195 In 0.52175 0.75372 0.15213 0.0
O196 O 0.52458 0.7312 0.11987 0.0
O197 O 0.52278 0.71065 0.15022 0.0
C198 C 0.51596 0.79757 0.12993 0.0
C199 C 0.47994 0.75468 0.17489 0.0
C200 C 0.56749 0.75541 0.17033 0.0
O201 O 0.51385 0.77651 0.1204 0.0
O202 O 0.52094 0.79653 0.1507 0.0
O203 O 0.54994 0.74652 0.18075 0.0
O204 O 0.5619 0.76355 0.15104 0.0
C205 C 0.52459 0.70998 0.12921 0.0
O206 O 0.50015 0.76048 0.1839 0.0
O207 O 0.48096 0.74773 0.15478 0.0
In208 In 0.91018 0.9907 0.80363 0.0
O209 O 0.93579 0.00208 0.77639 0.0
O210 O 0.90938 0.97425 0.76834 0.0
C211 C 0.9485 -0.00066 0.83183 0.0
C212 C 0.87663 0.02727 0.80253 0.0
C213 C 0.88989 0.94833 0.81919 0.0
O214 O 0.94138 0.97763 0.82651 0.0
O215 O 0.93631 0.01689 0.82291 0.0
O216 O 0.88003 0.96948 0.82126 0.0
O217 O 0.90953 0.94873 0.80922 0.0
C218 C 0.92692 0.98717 0.7619 0.0
O219 O 0.8806 0.01362 0.7858 0.0
O220 O 0.88925 0.02213 0.81996 0.0
In221 In 0.7764 0.13025 0.48956 0.0
O222 O 0.80251 0.10249 0.47384 0.0
O223 O 0.81036 0.11557 0.50697 0.0
C224 C 0.73456 0.10488 0.48356 0.0
C225 C 0.76794 0.14862 0.53055 0.0
C226 C 0.78405 0.16424 0.45698 0.0
O227 O 0.75469 0.0938 0.48496 0.0
O228 O 0.73584 0.1285 0.48396 0.0
O229 O 0.79851 0.16158 0.47362 0.0
O230 O 0.7659 0.1499 0.45685 0.0
C231 C 0.81658 0.10192 0.49097 0.0
O232 O 0.77124 0.16292 0.51405 0.0
O233 O 0.76952 0.12557 0.52634 0.0
In234 In 0.64687 0.01136 0.2961 0.0
O235 O 0.67196 0.98209 0.31256 0.0
O236 O 0.66469 0.97982 0.27738 0.0
C237 C 0.68123 0.04723 0.29526 0.0
C238 C 0.61394 0.02053 0.2626 0.0
C239 C 0.61761 0.00837 0.33117 0.0
O240 O 0.67759 0.03177 0.27954 0.0
O241 O 0.66791 0.04426 0.31179 0.0
O242 O 0.62683 0.02875 0.32488 0.0
O243 O 0.62348 0.98939 0.32005 0.0
C244 C 0.67562 0.97077 0.29443 0.0
O245 O 0.61823 -0.00128 0.26989 0.0
O246 O 0.6262 0.03757 0.27217 0.0
In247 In 0.77919 0.92733 0.01852 0.0
O248 O 0.75645 0.95662 0.03589 0.0
O249 O 0.74367 0.91901 0.03461 0.0
C250 C 0.7977 0.96259 0.99151 0.0
C251 C 0.81327 0.91466 0.04992 0.0
C252 C 0.75974 0.88911 0.99451 0.0
O253 O 0.77857 0.96567 0.00188 0.0
O254 O 0.80726 0.94126 0.99414 0.0
O255 O 0.77116 0.88614 0.01293 0.0
O256 O 0.75866 0.91153 0.98761 0.0
C257 C 0.73989 0.94133 0.04043 0.0
O258 O 0.81195 0.90466 0.03082 0.0
O259 O 0.79815 0.93187 0.05277 0.0
In260 In 0.27671 0.61998 0.99386 0.0
O261 O 0.27364 0.65559 0.01504 0.0
O262 O 0.26796 0.62037 0.03066 0.0
C263 C 0.28099 0.65199 0.95926 0.0
C264 C 0.31761 0.59261 0.99632 0.0
C265 C 0.23541 0.59334 0.98923 0.0
O266 O 0.29622 0.65152 0.9755 0.0
O267 O 0.26423 0.63601 0.96027 0.0
O268 O 0.25558 0.58273 0.99255 0.0
O269 O 0.23642 0.61688 0.98753 0.0
C270 C 0.26839 0.64389 0.03259 0.0
O271 O 0.31006 0.60516 0.01248 0.0
O272 O 0.30454 0.59377 0.97859 0.0
In273 In 0.15189 0.50554 0.80123 0.0
O274 O 0.17005 0.47309 0.7842 0.0
O275 O 0.17843 0.47828 0.81891 0.0
C276 C 0.17375 0.55075 0.80515 0.0
C277 C 0.12903 0.51181 0.76109 0.0
C278 C 0.12089 0.49685 0.83401 0.0
O279 O 0.1856 0.53053 0.8054 0.0
O280 O 0.15118 0.54796 0.80398 0.0
O281 O 0.12365 0.4814 0.81831 0.0
O282 O 0.134 0.51621 0.83333 0.0
C283 C 0.1816 0.46551 0.80145 0.0
O284 O 0.11771 0.50733 0.77862 0.0
O285 O 0.15168 0.5122 0.76376 0.0
In286 In 0.24528 0.37356 0.49659 0.0
O287 O 0.23582 0.35374 0.52876 0.0
O288 O 0.26818 0.37551 0.52875 0.0
C289 C 0.22559 0.33513 0.47285 0.0
C290 C 0.21339 0.41091 0.49904 0.0
C291 C 0.2874 0.38904 0.48008 0.0
O292 O 0.21845 0.35742 0.47065 0.0
O293 O 0.24287 0.33219 0.48687 0.0
O294 O 0.26989 0.4036 0.48278 0.0
O295 O 0.28304 0.36634 0.48427 0.0
C296 C 0.25446 0.3614 0.53955 0.0
O297 O 0.22071 0.40301 0.48056 0.0
O298 O 0.22217 0.39996 0.51619 0.0
In299 In 0.40148 0.5127 0.29873 0.0
O300 O 0.43308 0.51601 0.27537 0.0
O301 O 0.39894 0.50476 0.26132 0.0
C302 C 0.4263 0.52002 0.33779 0.0
C303 C 0.37412 0.55437 0.29433 0.0
C304 C 0.38581 0.46522 0.30375 0.0
O305 O 0.4364 0.51957 0.31919 0.0
O306 O 0.40376 0.51634 0.33671 0.0
O307 O 0.37225 0.48392 0.30646 0.0
O308 O 0.40733 0.47059 0.29941 0.0
C309 C 0.42096 0.50901 0.25818 0.0
O310 O 0.36532 0.53264 0.29197 0.0
O311 O 0.39656 0.555 0.29856 0.0
C312 C 0.02646 0.01285 0.9778 0.0
N313 N 0.9752 0.04534 0.01802 0.0
C314 C 0.97355 0.06149 0.00032 0.0
C315 C 0.95093 0.06921 0.99186 0.0
C316 C 0.93008 0.06076 0.00221 0.0
C317 C 0.93257 0.04685 0.02214 0.0
C318 C 0.95542 0.03901 0.02964 0.0
Zn319 Zn 0.00549 0.02398 0.02286 0.0
C320 C 0.99294 0.96917 0.01794 0.0
N321 N 0.0677 0.97719 0.02892 0.0
C322 C 0.08742 0.98402 0.01742 0.0
C323 C 0.0698 0.96213 0.04735 0.0
C324 C 0.0926 0.9568 0.0569 0.0
C325 C 0.11317 0.9663 0.04679 0.0
C326 C 0.1105 0.97841 0.02597 0.0
Zn327 Zn 0.03716 -0.00177 0.0239 0.0
O328 O 0.01049 0.02471 0.98817 0.0
C329 C 0.04974 0.053 0.02858 0.0
O330 O 0.04131 -0.00107 0.98867 0.0
H331 H 0.05389 0.9566 0.05612 0.0
H332 H 0.98954 0.06653 0.99145 0.0
H333 H 0.08546 0.99628 0.00304 0.0
O334 O 0.02702 0.05588 0.02656 0.0
O335 O 0.05866 0.03109 0.02803 0.0
H336 H 0.95703 0.0259 0.04344 0.0
O337 O 0.03218 -0.00243 0.0585 0.0
O338 O 0.0013 0.02323 0.05824 0.0
O339 O 0.01566 0.96634 0.02027 0.0
O340 O 0.98391 0.99107 0.01845 0.0
C341 C 0.01624 0.00928 0.06898 0.0
H342 H 0.94964 0.07989 0.97642 0.0
H343 H 0.91689 0.03964 0.03041 0.0
H344 H 0.09406 0.94743 0.073 0.0
H345 H 0.12598 0.98631 0.01784 0.0
C346 C 0.3194 0.7717 0.24779 0.0
N347 N 0.25227 0.74751 0.22124 0.0
C348 C 0.2594 0.75995 0.20271 0.0
C349 C 0.25459 0.75 0.18146 0.0
C350 C 0.24215 0.72707 0.17922 0.0
C351 C 0.23352 0.71554 0.19858 0.0
C352 C 0.23892 0.72608 0.21956 0.0
Zn353 Zn 0.26567 0.75948 0.25147 0.0
C354 C 0.2878 0.71777 0.27804 0.0
N355 N 0.29701 0.78495 0.31322 0.0
C356 C 0.30908 0.80714 0.31538 0.0
C357 C 0.29096 0.77133 0.33146 0.0
C358 C 0.29584 0.78054 0.35294 0.0
C359 C 0.30703 0.80406 0.35574 0.0
C360 C 0.31431 0.81711 0.33664 0.0
Zn361 Zn 0.28369 0.7731 0.28286 0.0
O362 O 0.30043 0.76406 0.23722 0.0
C363 C 0.26153 0.81493 0.2564 0.0
O364 O 0.318 0.77799 0.26824 0.0
H365 H 0.28116 0.75386 0.32937 0.0
H366 H 0.27004 0.77694 0.20444 0.0
H367 H 0.3137 0.81763 0.30062 0.0
O368 O 0.25603 0.79701 0.24313 0.0
O369 O 0.27358 0.81027 0.27442 0.0
H370 H 0.23343 0.71655 0.23455 0.0
O371 O 0.24924 0.76787 0.29731 0.0
O372 O 0.23135 0.75472 0.26617 0.0
O373 O 0.29362 0.73594 0.29088 0.0
O374 O 0.27538 0.72203 0.26015 0.0
C375 C 0.23023 0.7602 0.28683 0.0
H376 H 0.2619 0.75944 0.16713 0.0
H377 H 0.22351 0.69806 0.19761 0.0
H378 H 0.28956 0.76999 0.36712 0.0
H379 H 0.32322 0.83519 0.33809 0.0
C380 C 0.52786 0.01487 0.56492 0.0
N381 N 0.5491 0.95358 0.52652 0.0
C382 C 0.56618 0.94885 0.54286 0.0
C383 C 0.57262 0.92421 0.54802 0.0
C384 C 0.56137 0.90433 0.53619 0.0
C385 C 0.54469 0.90986 0.51865 0.0
C386 C 0.53872 0.93477 0.51412 0.0
Zn387 Zn 0.53747 0.9891 0.52161 0.0
C388 C 0.48296 0.99054 0.52022 0.0
N389 N 0.51112 0.06262 0.51128 0.0
C390 C 0.52407 0.08144 0.52139 0.0
C391 C 0.49557 0.06712 0.49363 0.0
C392 C 0.49508 0.0907 0.48357 0.0
C393 C 0.5109 0.10949 0.49174 0.0
C394 C 0.52425 0.10527 0.51179 0.0
Zn395 Zn 0.52206 0.02695 0.51695 0.0
O396 O 0.53606 0.9947 0.55679 0.0
C397 C 0.57658 0.02553 0.51821 0.0
O398 O 0.52112 0.03245 0.55177 0.0
H399 H 0.48544 0.05183 0.48594 0.0
H400 H 0.57417 0.96415 0.55245 0.0
H401 H 0.53631 0.07734 0.53543 0.0
O402 O 0.57365 0.00216 0.52131 0.0
O403 O 0.55818 0.03962 0.51654 0.0
H404 H 0.52522 0.93905 0.50116 0.0
O405 O 0.52336 0.02135 0.4818 0.0
O406 O 0.53865 0.98384 0.48671 0.0
O407 O 0.48604 0.01395 0.51731 0.0
O408 O 0.50127 0.97624 0.52184 0.0
C409 C 0.53183 0.00138 0.4736 0.0
H410 H 0.58529 0.9208 0.56191 0.0
H411 H 0.5358 0.89508 0.50901 0.0
H412 H 0.48413 0.0935 0.46838 0.0
H413 H 0.53667 0.11927 0.51862 0.0
C414 C 0.28728 0.20237 0.76692 0.0
N415 N 0.25172 0.22974 0.8221 0.0
C416 C 0.23639 0.20987 0.81953 0.0
C417 C 0.22685 0.19824 0.83811 0.0
C418 C 0.23341 0.20682 0.85968 0.0
C419 C 0.24871 0.22787 0.86188 0.0
C420 C 0.25769 0.23915 0.84272 0.0
Zn421 Zn 0.26609 0.24376 0.79381 0.0
C422 C 0.31913 0.25607 0.79963 0.0
N423 N 0.29455 0.27025 0.73304 0.0
C424 C 0.28984 0.25543 0.71486 0.0
C425 C 0.30249 0.2943 0.73075 0.0
C426 C 0.30339 0.3051 0.70944 0.0
C427 C 0.29618 0.29078 0.69064 0.0
C428 C 0.2909 0.26528 0.69343 0.0
Zn429 Zn 0.28205 0.25734 0.76254 0.0
O430 O 0.2759 0.20647 0.78464 0.0
C431 C 0.22915 0.24554 0.75612 0.0
O432 O 0.29216 0.22061 0.75423 0.0
H433 H 0.30617 0.30576 0.74542 0.0
H434 H 0.23193 0.20259 0.803 0.0
H435 H 0.28309 0.23656 0.71683 0.0
O436 O 0.2314 0.24017 0.77681 0.0
O437 O 0.2477 0.2526 0.74592 0.0
H438 H 0.2699 0.25498 0.84434 0.0
O439 O 0.27186 0.29393 0.77148 0.0
O440 O 0.25676 0.28106 0.80296 0.0
O441 O 0.31622 0.26221 0.7791 0.0
O442 O 0.30109 0.24786 0.81016 0.0
C443 C 0.26137 0.29884 0.78952 0.0
H444 H 0.21485 0.18233 0.8356 0.0
H445 H 0.25449 0.23493 0.87821 0.0
H446 H 0.3076 0.32488 0.70787 0.0
H447 H 0.28562 0.25357 0.67924 0.0
C448 C 0.0729 0.99489 0.52955 0.0
N449 N 0.04077 0.03314 0.47523 0.0
C450 C 0.0614 0.0468 0.47348 0.0
C451 C 0.06992 0.0528 0.45238 0.0
C452 C 0.05711 0.04453 0.43299 0.0
C453 C 0.03519 0.03166 0.43544 0.0
C454 C 0.02732 0.0262 0.45677 0.0
Zn455 Zn 0.03115 0.01858 0.50514 0.0
C456 C 0.01894 0.96301 0.49861 0.0
N457 N 0.01054 0.98415 0.56584 0.0
C458 C 0.02607 0.98856 0.58357 0.0
C459 C 0.98819 0.97426 0.5688 0.0
C460 C 0.98006 0.97025 0.59042 0.0
C461 C 0.99519 0.97633 0.60904 0.0
C462 C 0.01885 0.98447 0.60534 0.0
Zn463 Zn 0.01997 -0.00155 0.53564 0.0
O464 O 0.06785 0.00901 0.51288 0.0
C465 C 0.03229 0.05403 0.54228 0.0
O466 O 0.05611 0.98767 0.54196 0.0
H467 H 0.9761 0.97092 0.55448 0.0
H468 H 0.0718 0.0521 0.48841 0.0
H469 H 0.04363 0.99674 0.58099 0.0
O470 O 0.03594 0.05385 0.52138 0.0
O471 O 0.02623 0.03372 0.55182 0.0
H472 H 0.01105 0.0152 0.45852 0.0
O473 O 0.98386 0.00923 0.5286 0.0
O474 O 0.99445 0.02786 0.4977 0.0
O475 O 0.01384 0.96349 0.51921 0.0
O476 O 0.02626 0.98301 0.48937 0.0
C477 C 0.97811 0.0216 0.51104 0.0
H478 H 0.08674 0.06308 0.45128 0.0
H479 H 0.02485 0.02453 0.42107 0.0
H480 H 0.96165 0.964 0.59247 0.0
H481 H 0.03133 0.98884 0.61917 0.0
C482 C 0.26103 0.7736 0.73182 0.0
N483 N 0.31778 0.73572 0.765 0.0
C484 C 0.31788 0.7203 0.74687 0.0
C485 C 0.33964 0.71084 0.73947 0.0
C486 C 0.36134 0.71728 0.75094 0.0
C487 C 0.36048 0.73185 0.77044 0.0
C488 C 0.33839 0.74101 0.77716 0.0
Zn489 Zn 0.28724 0.75413 0.77258 0.0
C490 C 0.29657 0.80865 0.77729 0.0
N491 N 0.22396 0.79416 0.78826 0.0
C492 C 0.20262 0.78882 0.77731 0.0
C493 C 0.22575 0.81281 0.80377 0.0
C494 C 0.20547 0.82677 0.80899 0.0
C495 C 0.18304 0.82131 0.79836 0.0
C496 C 0.18182 0.80216 0.78217 0.0
Zn497 Zn 0.25416 0.77479 0.78083 0.0
O498 O 0.27953 0.76098 0.738 0.0
C499 C 0.24555 0.71974 0.77594 0.0
O500 O 0.24658 0.781 0.74644 0.0
H501 H 0.24293 0.81681 0.81219 0.0
H502 H 0.30122 0.71628 0.73755 0.0
H503 H 0.20168 0.77401 0.76494 0.0
O504 O 0.26775 0.72047 0.77137 0.0
O505 O 0.23461 0.7401 0.78012 0.0
H506 H 0.33788 0.75343 0.79144 0.0
O507 O 0.262 0.76848 0.81537 0.0
O508 O 0.29462 0.74773 0.80707 0.0
O509 O 0.27421 0.80893 0.7813 0.0
O510 O 0.3068 0.78784 0.7738 0.0
C511 C 0.2804 0.75574 0.82165 0.0
H512 H 0.33961 0.69949 0.72443 0.0
H513 H 0.37684 0.73754 0.77957 0.0
H514 H 0.20735 0.84155 0.82137 0.0
H515 H 0.16485 0.79698 0.77383 0.0
C516 C 0.51449 0.95918 0.0441 0.0
N517 N 0.52206 0.03108 0.0706 0.0
C518 C 0.50464 0.02368 0.0847 0.0
C519 C 0.5071 0.02877 0.10756 0.0
C520 C 0.52783 0.04131 0.11599 0.0
C521 C 0.54439 0.05071 0.10074 0.0
C522 C 0.54112 0.04537 0.07797 0.0
Zn523 Zn 0.52249 0.01504 0.03969 0.0
C524 C 0.57127 0.99606 0.0298 0.0
N525 N 0.52333 0.9779 0.97671 0.0
C526 C 0.50638 0.9601 0.9716 0.0
C527 C 0.53754 0.98762 0.96071 0.0
C528 C 0.53297 0.98174 0.93819 0.0
C529 C 0.51389 0.96534 0.93222 0.0
C530 C 0.50166 0.95317 0.9494 0.0
Zn531 Zn 0.52315 0.9944 0.00744 0.0
O532 O 0.51659 0.97962 0.05491 0.0
C533 C 0.4742 0.01245 0.01729 0.0
O534 O 0.51597 0.95951 0.02293 0.0
H535 H 0.55118 0.00147 0.96516 0.0
H536 H 0.48967 0.01227 0.07852 0.0
H537 H 0.49525 0.95257 0.98453 0.0
O538 O 0.4849 0.0201 0.03517 0.0
O539 O 0.48602 0.00128 0.00251 0.0
H540 H 0.55474 0.05104 0.06645 0.0
O541 O 0.53029 0.02968 0.99257 0.0
O542 O 0.52853 0.05037 0.02418 0.0
O543 O 0.56001 0.98754 0.01253 0.0
O544 O 0.56015 0.00922 0.0438 0.0
C545 C 0.53127 0.05037 0.00312 0.0
H546 H 0.49367 0.02159 0.11867 0.0
H547 H 0.56073 0.06032 0.10646 0.0
H548 H 0.54295 0.99163 0.92564 0.0
H549 H 0.48732 0.93979 0.94566 0.0
C550 C 0.26755 0.21035 0.24304 0.0
N551 N 0.32145 0.25143 0.21271 0.0
C552 C 0.3317 0.22899 0.20801 0.0
C553 C 0.34202 0.22506 0.18748 0.0
C554 C 0.34158 0.24429 0.17136 0.0
C555 C 0.33241 0.26788 0.1772 0.0
C556 C 0.32239 0.27108 0.19818 0.0
Zn557 Zn 0.30177 0.2528 0.24074 0.0
C558 C 0.25629 0.28075 0.23421 0.0
N559 N 0.26122 0.25388 0.29957 0.0
C560 C 0.25827 0.23201 0.31098 0.0
C561 C 0.25039 0.27544 0.30595 0.0
C562 C 0.2363 0.27566 0.32479 0.0
C563 C 0.23339 0.2535 0.33721 0.0
C564 C 0.24438 0.2314 0.32998 0.0
Zn565 Zn 0.28137 0.25391 0.27192 0.0
O566 O 0.2838 0.21886 0.23062 0.0
C567 C 0.32668 0.22586 0.27853 0.0
O568 O 0.26328 0.22149 0.26119 0.0
H569 H 0.25295 0.29257 0.29658 0.0
H570 H 0.33053 0.21351 0.21963 0.0
H571 H 0.26688 0.21504 0.30545 0.0
O572 O 0.32848 0.23216 0.25819 0.0
O573 O 0.30814 0.23238 0.28895 0.0
H574 H 0.31421 0.2888 0.20234 0.0
O575 O 0.29929 0.28685 0.28231 0.0
O576 O 0.31936 0.28663 0.25121 0.0
O577 O 0.25504 0.27535 0.25484 0.0
O578 O 0.27442 0.27352 0.22352 0.0
C579 C 0.31473 0.29686 0.26983 0.0
H580 H 0.34834 0.20639 0.18366 0.0
H581 H 0.33178 0.28321 0.16528 0.0
H582 H 0.2286 0.29325 0.33008 0.0
H583 H 0.24255 0.21396 0.3391 0.0
C584 C 0.57633 0.48946 0.03133 0.0
N585 N 0.54349 0.52656 0.9768 0.0
C586 C 0.56461 0.53942 0.97521 0.0
C587 C 0.57422 0.54382 0.95426 0.0
C588 C 0.56197 0.53479 0.93486 0.0
C589 C 0.5393 0.52333 0.93697 0.0
C590 C 0.53037 0.51938 0.9582 0.0
Zn591 Zn 0.53369 0.51246 0.00683 0.0
C592 C 0.52208 0.45681 0.00106 0.0
N593 N 0.51414 0.47901 0.06848 0.0
C594 C 0.52973 0.48322 0.08622 0.0
C595 C 0.4912 0.47083 0.07159 0.0
C596 C 0.48247 0.46901 0.09321 0.0
C597 C 0.49765 0.47529 0.11178 0.0
C598 C 0.52195 0.48105 0.10805 0.0
Zn599 Zn 0.52379 0.49262 0.03797 0.0
O600 O 0.57019 0.50259 0.0143 0.0
C601 C 0.53534 0.54826 0.04379 0.0
O602 O 0.5603 0.4825 0.0447 0.0
H603 H 0.47906 0.46749 0.05732 0.0
H604 H 0.57473 0.54495 0.99024 0.0
H605 H 0.54778 0.49008 0.08357 0.0
O606 O 0.53872 0.54788 0.02284 0.0
O607 O 0.52966 0.52803 0.05361 0.0
H608 H 0.5137 0.50903 0.95985 0.0
O609 O 0.48737 0.50316 0.03049 0.0
O610 O 0.49729 0.5219 -0.00057 0.0
O611 O 0.51803 0.45725 0.02191 0.0
O612 O 0.52846 0.47692 0.99141 0.0
C613 C 0.48124 0.51548 0.01298 0.0
H614 H 0.59157 0.55311 0.95335 0.0
H615 H 0.52933 0.5158 0.92255 0.0
H616 H 0.46359 0.46451 0.09513 0.0
H617 H 0.53457 0.48529 0.1218 0.0
C618 C 0.79293 0.25122 0.21973 0.0
N619 N 0.84719 0.22035 0.26261 0.0
C620 C 0.85019 0.20389 0.24557 0.0
C621 C 0.87215 0.19149 0.24349 0.0
C622 C 0.89112 0.19554 0.25943 0.0
C623 C 0.88693 0.21164 0.27752 0.0
C624 C 0.86495 0.22421 0.27857 0.0
Zn625 Zn 0.81567 0.23981 0.26422 0.0
C626 C 0.82285 0.29454 0.26299 0.0
N627 N 0.74979 0.27942 0.26872 0.0
C628 C 0.72925 0.27006 0.25873 0.0
C629 C 0.74999 0.3021 0.27916 0.0
C630 C 0.72887 0.31611 0.28017 0.0
C631 C 0.70705 0.30632 0.2711 0.0
C632 C 0.70756 0.28308 0.25994 0.0
Zn633 Zn 0.78098 0.25967 0.26732 0.0
O634 O 0.8123 0.24214 0.22845 0.0
C635 C 0.77346 0.20504 0.26837 0.0
O636 O 0.77646 0.25856 0.23239 0.0
H637 H 0.76649 0.30929 0.28699 0.0
H638 H 0.83574 0.2008 0.23322 0.0
H639 H 0.72956 0.2522 0.25017 0.0
O640 O 0.7959 0.20524 0.26446 0.0
O641 O 0.76239 0.22569 0.27041 0.0
H642 H 0.8623 0.23738 0.292 0.0
O643 O 0.78518 0.2607 0.30242 0.0
O644 O 0.8181 0.23829 0.29996 0.0
O645 O 0.80009 0.29325 0.26418 0.0
O646 O 0.83517 0.27445 0.26382 0.0
C647 C 0.80255 0.24883 0.31194 0.0
H648 H 0.87438 0.1797 0.22898 0.0
H649 H 0.90061 0.21502 0.29056 0.0
H650 H 0.72964 0.33414 0.28849 0.0
H651 H 0.69128 0.27439 0.25299 0.0
C652 C 0.00522 0.46615 0.54642 0.0
N653 N 0.02959 0.53622 0.56945 0.0
C654 C 0.01702 0.52974 0.58773 0.0
C655 C 0.02658 0.53452 0.60918 0.0
C656 C 0.04924 0.54626 0.61184 0.0
C657 C 0.0608 0.55473 0.59264 0.0
C658 C 0.05065 0.54934 0.57146 0.0
Zn659 Zn 0.01875 0.52121 0.53955 0.0
C660 C 0.05884 0.49736 0.51682 0.0
N661 N 0.99526 0.48657 0.47872 0.0
C662 C 0.97361 0.47468 0.47573 0.0
C663 C 0.00935 0.49183 0.46113 0.0
C664 C 0.00124 0.4865 0.43937 0.0
C665 C 0.97831 0.4757 0.43558 0.0
C666 C 0.96472 0.46903 0.45412 0.0
Zn667 Zn 0.00583 0.50145 0.50879 0.0
O668 O 0.01273 0.48614 0.55601 0.0
C669 C 0.96603 0.5271 0.53077 0.0
O670 O 3e-05 0.46665 0.5255 0.0
H671 H 0.02635 0.50158 0.46382 0.0
H672 H 0.00029 0.51932 0.58572 0.0
H673 H 0.96272 0.47072 0.48999 0.0
O674 O 0.98323 0.53267 0.54452 0.0
O675 O 0.97008 0.51298 0.51422 0.0
H676 H 0.06029 0.55434 0.55666 0.0
O677 O 0.01193 0.53631 0.49233 0.0
O678 O 0.02497 0.55577 0.52273 0.0
O679 O 0.04166 0.49077 0.50346 0.0
O680 O 0.05435 0.5102 0.53403 0.0
C681 C 0.02002 0.55613 0.50178 0.0
H682 H 0.01708 0.5274 0.6234 0.0
H683 H 0.07807 0.56429 0.59392 0.0
H684 H 0.01218 0.4924 0.42564 0.0
H685 H 0.94703 0.46047 0.4519 0.0
C686 C 0.7947 0.71772 0.24715 0.0
N687 N 0.75783 0.74252 0.30318 0.0
C688 C 0.76944 0.72368 0.31449 0.0
C689 C 0.76115 0.71549 0.33497 0.0
C690 C 0.74101 0.72712 0.344 0.0
C691 C 0.72869 0.7457 0.33157 0.0
C692 C 0.73734 0.753 0.31091 0.0
Zn693 Zn 0.77312 0.75719 0.27577 0.0
C694 C 0.82499 0.76889 0.28439 0.0
N695 N 0.80494 0.7886 0.21846 0.0
C696 C 0.80017 0.78036 0.19722 0.0
C697 C 0.82006 0.80835 0.22266 0.0
C698 C 0.8306 0.82106 0.20514 0.0
C699 C 0.82525 0.81374 0.18296 0.0
C700 C 0.81015 0.79278 0.17909 0.0
Zn701 Zn 0.78912 0.77277 0.2453 0.0
O702 O 0.78309 0.72081 0.26492 0.0
C703 C 0.73687 0.76039 0.23748 0.0
O704 O 0.79961 0.73664 0.23514 0.0
H705 H 0.82357 0.8147 0.23965 0.0
H706 H 0.7858 0.71579 0.30813 0.0
H707 H 0.78812 0.76459 0.19431 0.0
O708 O 0.73993 0.7539 0.25785 0.0
O709 O 0.75479 0.76908 0.22707 0.0
H710 H 0.72829 0.7678 0.30151 0.0
O711 O 0.7786 0.8089 0.25557 0.0
O712 O 0.76337 0.79387 0.28613 0.0
O713 O 0.82282 0.77588 0.26406 0.0
O714 O 0.80657 0.76036 0.29394 0.0
C715 C 0.76772 0.8125 0.27362 0.0
H716 H 0.77133 0.70137 0.34432 0.0
H717 H 0.71311 0.75505 0.33813 0.0
H718 H 0.8424 0.83686 0.20894 0.0
H719 H 0.80526 0.78667 0.16224 0.0
C720 C 0.82499 0.24565 0.75709 0.0
N721 N 0.75758 0.22493 0.72941 0.0
C722 C 0.76432 0.23972 0.71213 0.0
C723 C 0.75862 0.23289 0.6901 0.0
C724 C 0.7458 0.21058 0.6857 0.0
C725 C 0.73797 0.19626 0.70389 0.0
C726 C 0.74414 0.20382 0.72577 0.0
Zn727 Zn 0.7712 0.23414 0.76041 0.0
C728 C 0.79128 0.19059 0.78545 0.0
N729 N 0.80309 0.25608 0.82297 0.0
C730 C 0.81805 0.27627 0.8252 0.0
C731 C 0.79483 0.24384 0.84117 0.0
C732 C 0.80011 0.25294 0.86265 0.0
C733 C 0.81427 0.27472 0.86547 0.0
C734 C 0.82407 0.28584 0.84643 0.0
Zn735 Zn 0.78932 0.24612 0.79228 0.0
O736 O 0.80584 0.23899 0.74629 0.0
C737 C 0.76908 0.28953 0.76748 0.0
O738 O 0.82395 0.25014 0.77794 0.0
H739 H 0.78301 0.22777 0.839 0.0
H740 H 0.77515 0.25633 0.71535 0.0
H741 H 0.82443 0.28567 0.81047 0.0
O742 O 0.76259 0.27204 0.75414 0.0
O743 O 0.78141 0.2842 0.78516 0.0
H744 H 0.73896 0.19237 0.73979 0.0
O745 O 0.75428 0.24237 0.80613 0.0
O746 O 0.73667 0.22959 0.77472 0.0
O747 O 0.79708 0.20795 0.79921 0.0
O748 O 0.77993 0.19612 0.76723 0.0
C749 C 0.73524 0.23539 0.79529 0.0
H750 H 0.76543 0.2443 0.67669 0.0
H751 H 0.72783 0.17905 0.70124 0.0
H752 H 0.79189 0.24384 0.8767 0.0
H753 H 0.83548 0.30234 0.8478 0.0
C754 C 0.75782 0.70273 0.7921 0.0
N755 N 0.80665 0.75158 0.76237 0.0
C756 C 0.81573 0.73174 0.7512 0.0
C757 C 0.82557 0.73526 0.73026 0.0
C758 C 0.8261 0.75946 0.72082 0.0
C759 C 0.81753 0.77971 0.7332 0.0
C760 C 0.80776 0.77532 0.75399 0.0
Zn761 Zn 0.79032 0.74645 0.79187 0.0
C762 C 0.74322 0.77336 0.79151 0.0
N763 N 0.75578 0.74032 0.85403 0.0
C764 C 0.7701 0.74267 0.87287 0.0
C765 C 0.73124 0.74065 0.85494 0.0
C766 C 0.72033 0.74651 0.875 0.0
C767 C 0.73491 0.75152 0.89419 0.0
C768 C 0.75997 0.74798 0.89329 0.0
Zn769 Zn 0.77201 0.74353 0.82411 0.0
O770 O 0.77201 0.71455 0.77956 0.0
C771 C 0.81948 0.71671 0.82372 0.0
O772 O 0.75466 0.71047 0.81193 0.0
H773 H 0.72017 0.73849 0.83978 0.0
H774 H 0.8147 0.71306 0.75824 0.0
H775 H 0.78954 0.74275 0.8718 0.0
O776 O 0.81868 0.72411 0.80352 0.0
O777 O 0.80217 0.72207 0.83629 0.0
H778 H 0.8005 0.79086 0.76321 0.0
O779 O 0.78937 0.77725 0.83587 0.0
O780 O 0.80879 0.77774 0.80455 0.0
O781 O 0.74256 0.76487 0.81133 0.0
O782 O 0.76155 0.76893 0.78003 0.0
C783 C 0.80496 0.78719 0.82353 0.0
H784 H 0.83158 0.71902 0.72113 0.0
H785 H 0.81776 0.79865 0.7266 0.0
H786 H 0.70094 0.74905 0.8751 0.0
H787 H 0.77191 0.75207 0.90759 0.0
C788 C 0.51907 0.52249 0.48275 0.0
N789 N 0.48833 0.48485 0.53545 0.0
C790 C 0.46961 0.50098 0.53191 0.0
C791 C 0.44611 0.49173 0.52921 0.0
C792 C 0.44208 0.46568 0.5299 0.0
C793 C 0.46147 0.44988 0.53608 0.0
C794 C 0.48456 0.45995 0.53892 0.0
Zn795 Zn 0.52201 0.49545 0.52738 0.0
C796 C 0.54103 0.45651 0.49498 0.0
N797 N 0.59118 0.51425 0.50486 0.0
C798 C 0.59373 0.53887 0.49942 0.0
C799 C 0.6103 0.50049 0.51282 0.0
C800 C 0.63186 0.51248 0.51931 0.0
C801 C 0.63361 0.53866 0.51708 0.0
C802 C 0.61503 0.55151 0.50531 0.0
Zn803 Zn 0.55733 0.50313 0.51258 0.0
O804 O 0.50703 0.5143 0.49893 0.0
C805 C 0.53853 0.54233 0.5448 0.0
O806 O 0.54196 0.52083 0.48379 0.0
H807 H 0.60792 0.48086 0.51684 0.0
H808 H 0.4731 0.52072 0.52921 0.0
H809 H 0.5783 0.54954 0.49326 0.0
O810 O 0.52032 0.5281 0.54681 0.0
O811 O 0.55481 0.53629 0.53143 0.0
H812 H 0.49976 0.44749 0.54165 0.0
O813 O 0.57207 0.48507 0.5417 0.0
O814 O 0.53688 0.47685 0.5556 0.0
O815 O 0.55967 0.47031 0.49388 0.0
O816 O 0.52418 0.46274 0.5077 0.0
C817 C 0.55975 0.47606 0.55734 0.0
H818 H 0.43156 0.50467 0.52513 0.0
H819 H 0.45937 0.42968 0.53673 0.0
H820 H 0.64587 0.50181 0.52808 0.0
H821 H 0.61602 0.57159 0.50262 0.0
C822 C 0.02111 0.51993 0.05899 0.0
N823 N 0.03886 0.45192 0.03031 0.0
C824 C 0.05238 0.44899 0.04955 0.0
C825 C 0.05196 0.42633 0.0611 0.0
C826 C 0.03791 0.40627 0.05251 0.0
C827 C 0.02598 0.40918 0.03149 0.0
C828 C 0.02649 0.4324 0.02072 0.0
Zn829 Zn 0.03186 0.48726 0.01968 0.0
C830 C 0.97678 0.49338 0.01549 0.0
N831 N 0.01203 0.56066 0.00016 0.0
C832 C 0.02464 0.57849 0.01198 0.0
C833 C 0.00076 0.56603 0.98013 0.0
C834 C 0.00368 0.58965 0.97041 0.0
C835 C 0.01829 0.6077 0.9815 0.0
C836 C 0.02798 0.60222 0.00295 0.0
Zn837 Zn 0.01798 0.5247 0.01005 0.0
O838 O 0.02953 0.49871 0.05372 0.0
C839 C 0.07309 0.51876 0.01484 0.0
O840 O 0.01503 0.53529 0.04361 0.0
H841 H 0.99094 0.55151 0.97097 0.0
H842 H 0.06208 0.4648 0.05684 0.0
H843 H 0.03396 0.57375 0.02761 0.0
O844 O 0.06905 0.49605 0.01993 0.0
O845 O 0.05535 0.53332 0.01084 0.0
H846 H 0.01577 0.43525 0.00544 0.0
O847 O 0.02067 0.51369 0.97649 0.0
O848 O 0.03408 0.47627 0.98563 0.0
O849 O 0.98084 0.51583 0.0094 0.0
O850 O 0.99449 0.47876 0.01966 0.0
C851 C 0.02834 0.49234 0.97064 0.0
H852 H 0.0613 0.42528 0.0773 0.0
H853 H 0.01548 0.39407 0.02386 0.0
H854 H 0.99556 0.59334 0.95397 0.0
H855 H 0.03959 0.61543 0.01199 0.0
H856 H 0.08546 0.1974 0.08118 0.0
H857 H 0.0419 0.10205 0.01823 0.0
H858 H 0.09641 0.13774 0.1294 0.0
H859 H 0.09169 0.05289 0.05391 0.0
H860 H 0.06068 0.13785 0.03713 0.0
H861 H 0.08851 0.16691 0.05093 0.0
C862 C 0.08886 0.17791 0.08539 0.0
C863 C 0.08982 0.16983 0.10776 0.0
C864 C 0.06827 0.11942 0.04022 0.0
C865 C 0.0926 0.13495 0.07338 0.0
C866 C 0.05735 0.09894 0.02953 0.0
C867 C 0.06504 0.07459 0.03484 0.0
C868 C 0.08663 0.11537 0.0567 0.0
C869 C 0.08516 0.07146 0.04951 0.0
C870 C 0.09047 0.16054 0.06812 0.0
C871 C 0.09497 0.14458 0.11232 0.0
N872 N 0.09481 0.09162 0.06053 0.0
N873 N 0.09565 0.12786 0.09522 0.0
H874 H 0.08014 0.74142 0.32317 0.0
H875 H 0.22234 0.7712 0.33068 0.0
H876 H 0.11764 0.77142 0.38181 0.0
H877 H 0.18531 0.74544 0.27011 0.0
H878 H 0.18425 0.76972 0.34985 0.0
H879 H 0.11839 0.74122 0.30368 0.0
C880 C 0.09642 0.74793 0.33196 0.0
C881 C 0.09567 0.75648 0.35416 0.0
C882 C 0.18439 0.76434 0.33238 0.0
C883 C 0.13954 0.75628 0.33197 0.0
C884 C 0.20621 0.76515 0.32138 0.0
C885 C 0.20711 0.75848 0.29867 0.0
C886 C 0.16314 0.75678 0.32069 0.0
C887 C 0.18551 0.75078 0.2876 0.0
C888 C 0.11825 0.74782 0.32082 0.0
C889 C 0.11733 0.76469 0.36471 0.0
N890 N 0.16443 0.75017 0.2987 0.0
N891 N 0.13831 0.76439 0.35354 0.0
H892 H 0.53312 0.7658 0.60306 0.0
H893 H 0.60348 0.88165 0.55086 0.0
H894 H 0.60437 0.79033 0.62527 0.0
H895 H 0.52713 0.86767 0.53978 0.0
H896 H 0.60701 0.84172 0.57087 0.0
H897 H 0.53359 0.79698 0.57292 0.0
C898 C 0.54891 0.77763 0.60147 0.0
C899 C 0.56855 0.77588 0.61684 0.0
C900 C 0.58957 0.84725 0.56373 0.0
C901 C 0.56931 0.81125 0.58249 0.0
C902 C 0.58754 0.87002 0.55235 0.0
C903 C 0.5649 0.87821 0.54402 0.0
C904 C 0.5688 0.83265 0.56681 0.0
C905 C 0.54495 0.86213 0.54593 0.0
C906 C 0.54919 0.79534 0.58428 0.0
C907 C 0.58868 0.7914 0.61396 0.0
N908 N 0.5473 0.84026 0.55743 0.0
N909 N 0.58847 0.80859 0.5972 0.0
H910 H 0.47345 0.27267 0.82816 0.0
H911 H 0.33279 0.24166 0.84241 0.0
H912 H 0.44518 0.23726 0.88673 0.0
H913 H 0.36135 0.27296 0.78211 0.0
H914 H 0.37359 0.24165 0.85951 0.0
H915 H 0.4324 0.27436 0.81145 0.0
C916 C 0.45862 0.26523 0.83749 0.0
C917 C 0.46277 0.25476 0.85885 0.0
C918 C 0.37094 0.24859 0.84256 0.0
C919 C 0.41569 0.25672 0.83989 0.0
C920 C 0.34759 0.24867 0.83279 0.0
C921 C 0.34356 0.25729 0.81074 0.0
C922 C 0.39049 0.25722 0.83024 0.0
C923 C 0.36354 0.26611 0.79913 0.0
C924 C 0.43517 0.26622 0.82796 0.0
C925 C 0.44284 0.24545 0.8702 0.0
N926 N 0.38608 0.2658 0.80898 0.0
N927 N 0.42022 0.24666 0.8606 0.0
H928 H 0.01579 0.80704 0.45609 0.0
H929 H 0.02617 0.95706 0.45395 0.0
H930 H 0.03282 0.85007 0.39745 0.0
H931 H 0.00934 0.91504 0.51328 0.0
H932 H 0.02707 0.91801 0.43285 0.0
H933 H 0.01211 0.84617 0.47715 0.0
C934 C 0.01875 0.82473 0.44764 0.0
C935 C 0.02468 0.8253 0.42498 0.0
C936 C 0.02308 0.91727 0.45046 0.0
C937 C 0.02045 0.87017 0.44898 0.0
C938 C 0.02253 0.93961 0.46256 0.0
C939 C 0.01775 0.93938 0.4855 0.0
C940 C 0.0189 0.89435 0.4613 0.0
C941 C 0.0131 0.91614 0.49565 0.0
C942 C 0.01662 0.84706 0.45967 0.0
C943 C 0.02827 0.84874 0.41489 0.0
N944 N 0.0139 0.89455 0.4835 0.0
N945 N 0.02613 0.8702 0.42696 0.0
H946 H 0.48258 0.73993 0.66937 0.0
H947 H 0.40318 0.70097 0.77219 0.0
H948 H 0.51263 0.70208 0.72789 0.0
H949 H 0.37317 0.72283 0.7074 0.0
H950 H 0.44342 0.70023 0.75651 0.0
H951 H 0.44223 0.73392 0.68353 0.0
C952 C 0.48066 0.73044 0.68527 0.0
C953 C 0.5009 0.72161 0.69758 0.0
C954 C 0.42796 0.7048 0.74567 0.0
C955 C 0.45483 0.71452 0.71381 0.0
C956 C 0.40504 0.70522 0.7546 0.0
C957 C 0.38489 0.71208 0.74108 0.0
C958 C 0.43067 0.71162 0.72318 0.0
C959 C 0.3882 0.71724 0.71837 0.0
C960 C 0.45762 0.72683 0.69326 0.0
C961 C 0.49743 0.70925 0.71796 0.0
N962 N 0.41071 0.71722 0.7102 0.0
N963 N 0.47478 0.70617 0.72553 0.0
H964 H 0.53235 0.16128 0.8976 0.0
H965 H 0.53466 0.09853 0.01959 0.0
H966 H 0.54225 0.20387 0.95866 0.0
H967 H 0.53481 0.05627 0.95793 0.0
H968 H 0.53746 0.1374 -0.00216 0.0
H969 H 0.53306 0.12257 0.91964 0.0
C970 C 0.53475 0.16246 0.91565 0.0
C971 C 0.53719 0.1858 0.92632 0.0
C972 C 0.53701 0.11959 0.98911 0.0
C973 C 0.53792 0.14159 0.95171 0.0
C974 C 0.53541 0.0974 0.00152 0.0
C975 C 0.53441 0.07409 0.99059 0.0
C976 C 0.53746 0.11846 0.96561 0.0
C977 C 0.53548 0.07379 0.96712 0.0
C978 C 0.53519 0.14036 0.92824 0.0
C979 C 0.54029 0.18625 0.94976 0.0
N980 N 0.53681 0.0956 0.95544 0.0
N981 N 0.54045 0.16448 0.96168 0.0
H982 H 0.13942 0.2595 0.14447 0.0
H983 H 0.2163 0.30125 0.25222 0.0
H984 H 0.11339 0.2624 0.21167 0.0
H985 H 0.24676 0.2822 0.18893 0.0
H986 H 0.17636 0.3029 0.23378 0.0
H987 H 0.17603 0.28176 0.15733 0.0
C988 C 0.14132 0.26506 0.16189 0.0
C989 C 0.12375 0.25855 0.17721 0.0
C990 C 0.19186 0.29898 0.22381 0.0
C991 C 0.16525 0.28418 0.19189 0.0
C992 C 0.21469 0.29814 0.2343 0.0
C993 C 0.23468 0.29061 0.22221 0.0
C994 C 0.18911 0.29202 0.20122 0.0
C995 C 0.23169 0.28743 0.19897 0.0
C996 C 0.16212 0.27788 0.16916 0.0
C997 C 0.12682 0.26657 0.19945 0.0
N998 N 0.20914 0.28746 0.18929 0.0
N999 N 0.14737 0.2787 0.2062 0.0
H1000 H 0.07945 0.97078 0.19557 0.0
H1001 H 0.00916 0.04742 0.09864 0.0
H1002 H 0.08067 0.05146 0.18911 0.0
H1003 H 0.02736 0.96894 0.09484 0.0
H1004 H 0.0233 0.0476 0.1381 0.0
H1005 H 0.049 0.96877 0.1648 0.0
C1006 C 0.07304 0.98807 0.18789 0.0
C1007 C 0.0829 0.01127 0.19451 0.0
C1008 C 0.02357 0.0302 0.12876 0.0
C1009 C 0.0481 0.00915 0.15959 0.0
C1010 C 0.0153 0.03005 0.10636 0.0
C1011 C 0.01745 0.00822 0.09356 0.0
C1012 C 0.0338 0.00831 0.13822 0.0
C1013 C 0.02573 0.98623 0.10419 0.0
C1014 C 0.05568 0.98693 0.17039 0.0
C1015 C 0.07383 0.03314 0.18419 0.0
N1016 N 0.03392 0.9869 0.12584 0.0
N1017 N 0.05711 0.03154 0.16707 0.0
H1018 H 0.29667 0.82524 0.49795 0.0
H1019 H 0.29821 0.85299 0.3666 0.0
H1020 H 0.28306 0.89823 0.4688 0.0
H1021 H 0.31859 0.78181 0.39621 0.0
H1022 H 0.29483 0.87053 0.40402 0.0
H1023 H 0.30579 0.8092 0.46088 0.0
C1024 C 0.29553 0.83786 0.48372 0.0
C1025 C 0.28897 0.86304 0.48638 0.0
C1026 C 0.30028 0.85114 0.40235 0.0
C1027 C 0.29953 0.84493 0.444 0.0
C1028 C 0.30246 0.84116 0.38096 0.0
C1029 C 0.30855 0.81581 0.37824 0.0
C1030 C 0.30406 0.83565 0.42118 0.0
C1031 C 0.31344 0.80132 0.39752 0.0
C1032 C 0.30086 0.82874 0.46259 0.0
C1033 C 0.28793 0.87865 0.46744 0.0
N1034 N 0.31087 0.81138 0.41817 0.0
N1035 N 0.29309 0.86931 0.44703 0.0
H1036 H 0.45729 0.9722 0.68194 0.0
H1037 H 0.51396 0.05605 0.58867 0.0
H1038 H 0.46561 0.05223 0.69035 0.0
H1039 H 0.52891 0.97687 0.59571 0.0
H1040 H 0.49714 0.05592 0.62601 0.0
H1041 H 0.48351 0.97394 0.65002 0.0
C1042 C 0.46471 0.99016 0.67706 0.0
C1043 C 0.45915 0.01215 0.68863 0.0
C1044 C 0.50452 0.0387 0.61953 0.0
C1045 C 0.4891 0.0143 0.65207 0.0
C1046 C 0.51415 0.03875 0.59824 0.0
C1047 C 0.52257 0.01636 0.58895 0.0
C1048 C 0.50296 0.01603 0.63138 0.0
C1049 C 0.52248 0.99454 0.60212 0.0
C1050 C 0.47982 0.99111 0.65895 0.0
C1051 C 0.46942 0.03487 0.68177 0.0
N1052 N 0.5124 0.99482 0.62251 0.0
N1053 N 0.48369 0.03544 0.6637 0.0
H1054 H 0.23435 0.09088 0.95713 0.0
H1055 H 0.21983 0.22493 0.90052 0.0
H1056 H 0.22228 0.1588 0.99434 0.0
H1057 H 0.23062 0.15589 0.86444 0.0
H1058 H 0.21289 0.20039 0.93438 0.0
H1059 H 0.22398 0.11328 0.92249 0.0
C1060 C 0.22897 0.11038 0.95803 0.0
C1061 C 0.22963 0.12316 0.97852 0.0
C1062 C 0.21637 0.19063 0.91893 0.0
C1063 C 0.21835 0.1491 0.93898 0.0
C1064 C 0.22051 0.20464 0.89966 0.0
C1065 C 0.2261 0.19249 0.87966 0.0
C1066 C 0.21803 0.16433 0.91822 0.0
C1067 C 0.22625 0.16613 0.87939 0.0
C1068 C 0.22315 0.12322 0.93824 0.0
C1069 C 0.22227 0.14834 0.97881 0.0
N1070 N 0.22259 0.15299 0.89842 0.0
N1071 N 0.21743 0.16067 0.95925 0.0
H1072 H 0.15039 0.03512 0.31996 0.0
H1073 H 0.03341 0.05373 0.39257 0.0
H1074 H 0.07758 0.02302 0.29392 0.0
H1075 H 0.10456 0.03995 0.42197 0.0
H1076 H 0.05009 0.0505 0.35537 0.0
H1077 H 0.13441 0.04427 0.35675 0.0
C1078 C 0.13104 0.0344 0.32201 0.0
C1079 C 0.11526 0.02814 0.30397 0.0
C1080 C 0.06204 0.0484 0.37 0.0
C1081 C 0.09691 0.03891 0.34579 0.0
C1082 C 0.05256 0.05021 0.39124 0.0
C1083 C 0.06752 0.0468 0.4105 0.0
C1084 C 0.08671 0.04335 0.36796 0.0
C1085 C 0.09232 0.04291 0.40769 0.0
C1086 C 0.12196 0.03963 0.34297 0.0
C1087 C 0.09036 0.02757 0.30747 0.0
N1088 N 0.1011 0.04113 0.38681 0.0
N1089 N 0.08193 0.03294 0.32799 0.0
H1090 H 0.28461 0.81549 0.59377 0.0
H1091 H 0.23054 0.8101 0.71572 0.0
H1092 H 0.25544 0.87997 0.62696 0.0
H1093 H 0.2862 0.75934 0.69517 0.0
H1094 H 0.23181 0.83102 0.67938 0.0
H1095 H 0.27844 0.79042 0.62759 0.0
C1096 C 0.27685 0.82433 0.60816 0.0
C1097 C 0.27066 0.84986 0.60769 0.0
C1098 C 0.24353 0.81512 0.68277 0.0
C1099 C 0.26318 0.82127 0.64606 0.0
C1100 C 0.24269 0.80301 0.70342 0.0
C1101 C 0.25845 0.78305 0.70857 0.0
C1102 C 0.26002 0.80705 0.66703 0.0
C1103 C 0.27385 0.77475 0.69195 0.0
C1104 C 0.27336 0.81004 0.62739 0.0
C1105 C 0.26064 0.8604 0.62673 0.0
N1106 N 0.27434 0.78688 0.67192 0.0
N1107 N 0.25712 0.84602 0.64513 0.0
H1108 H 0.41582 0.98203 0.8192 0.0
H1109 H 0.53851 0.96754 0.89266 0.0
H1110 H 0.48576 -0.00178 0.79285 0.0
H1111 H 0.46655 0.96232 0.91807 0.0
H1112 H 0.52062 0.97347 0.85486 0.0
H1113 H 0.43529 0.9696 0.85449 0.0
C1114 C 0.43534 0.98305 0.82088 0.0
C1115 C 0.4492 0.9914 0.80317 0.0
C1116 C 0.50887 0.97068 0.86876 0.0
C1117 C 0.47175 0.97707 0.84368 0.0
C1118 C 0.51903 0.96731 0.89034 0.0
C1119 C 0.50409 0.96446 0.90873 0.0
C1120 C 0.48363 0.97112 0.86562 0.0
C1121 C 0.47897 0.96396 0.90457 0.0
C1122 C 0.44649 0.97586 0.84106 0.0
C1123 C 0.47444 0.99208 0.80622 0.0
N1124 N 0.46961 0.96743 0.88356 0.0
N1125 N 0.48497 0.98508 0.82621 0.0
H1126 H 0.29193 0.1847 0.04808 0.0
H1127 H 0.37687 0.21386 0.15497 0.0
H1128 H 0.33227 0.12949 0.08673 0.0
H1129 H 0.31548 0.25888 0.13384 0.0
H1130 H 0.37269 0.19027 0.11995 0.0
H1131 H 0.3118 0.21798 0.07031 0.0
C1132 C 0.30521 0.17962 0.06105 0.0
C1133 C 0.31009 0.15436 0.06601 0.0
C1134 C 0.36064 0.20584 0.12274 0.0
C1135 C 0.33312 0.19217 0.091 0.0
C1136 C 0.36303 0.21935 0.14266 0.0
C1137 C 0.34588 0.23768 0.14773 0.0
C1138 C 0.34115 0.21095 0.1078 0.0
C1139 C 0.32884 0.2446 0.13088 0.0
C1140 C 0.31659 0.19859 0.0736 0.0
C1141 C 0.32764 0.14875 0.08274 0.0
N1142 N 0.3265 0.23077 0.11186 0.0
N1143 N 0.33838 0.16753 0.09481 0.0
H1144 H 0.25641 0.01787 0.06382 0.0
H1145 H 0.11866 0.9901 0.08661 0.0
H1146 H 0.2037 0.07431 0.07894 0.0
H1147 H 0.1591 0.95313 0.03594 0.0
H1148 H 0.1558 0.01067 0.10053 0.0
H1149 H 0.22634 0.98526 0.07063 0.0
C1150 C 0.23878 0.0234 0.06935 0.0
C1151 C 0.23226 0.04882 0.07033 0.0
C1152 C 0.15667 -0.00277 0.08698 0.0
C1153 C 0.19818 0.01167 0.07839 0.0
C1154 C 0.13559 0.98531 0.07915 0.0
C1155 C 0.13591 0.97011 0.05998 0.0
C1156 C 0.17813 0.99359 0.07571 0.0
C1157 C 0.15819 0.96486 0.05068 0.0
C1158 C 0.22169 0.00476 0.07318 0.0
C1159 C 0.20926 0.05491 0.07764 0.0
N1160 N 0.17844 0.97695 0.05841 0.0
N1161 N 0.19285 0.03642 0.08108 0.0
H1162 H 0.7141 0.43023 0.08167 0.0
H1163 H 0.61179 0.48968 0.00076 0.0
H1164 H 0.71148 0.42 0.00997 0.0
H1165 H 0.59814 0.46935 0.06917 0.0
H1166 H 0.65229 0.47185 0.00527 0.0
H1167 H 0.67492 0.45177 0.07861 0.0
C1168 C 0.70531 0.4326 0.06531 0.0
C1169 C 0.71591 0.42325 0.04605 0.0
C1170 C 0.64045 0.47143 0.01931 0.0
C1171 C 0.67159 0.44808 0.04242 0.0
C1172 C 0.6174 0.48172 0.01681 0.0
C1173 C 0.60153 0.48085 0.03459 0.0
C1174 C 0.64783 0.46052 0.03982 0.0
C1175 C 0.60977 0.47024 0.055 0.0
C1176 C 0.68301 0.4448 0.06359 0.0
C1177 C 0.70383 0.42678 0.02525 0.0
N1178 N 0.6324 0.46048 0.05708 0.0
N1179 N 0.68237 0.43903 0.02397 0.0
H1180 H 0.84231 0.44909 0.22592 0.0
H1181 H 0.87076 0.30544 0.25629 0.0
H1182 H 0.91489 0.42085 0.23574 0.0
H1183 H 0.80031 0.33967 0.25892 0.0
H1184 H 0.88756 0.34625 0.24556 0.0
H1185 H 0.82665 0.40716 0.23339 0.0
C1186 C 0.85495 0.43397 0.22934 0.0
C1187 C 0.8799 0.43844 0.23036 0.0
C1188 C 0.86844 0.34474 0.24857 0.0
C1189 C 0.86215 0.3905 0.23926 0.0
C1190 C 0.85889 0.32152 0.25481 0.0
C1191 C 0.83412 0.31913 0.25854 0.0
C1192 C 0.85304 0.36554 0.24593 0.0
C1193 C 0.81952 0.34056 0.25623 0.0
C1194 C 0.84602 0.41007 0.23377 0.0
C1195 C 0.89549 0.41818 0.23488 0.0
N1196 N 0.82918 0.36277 0.25 0.0
N1197 N 0.88636 0.39507 0.23932 0.0
H1198 H 0.87646 0.65549 0.53088 0.0
H1199 H 0.92398 0.51901 0.50595 0.0
H1200 H 0.82568 0.59617 0.51423 0.0
H1201 H 0.95629 0.56732 0.55686 0.0
H1202 H 0.88945 0.54783 0.50261 0.0
H1203 H 0.90904 0.62461 0.53226 0.0
C1204 C 0.87226 0.63605 0.52705 0.0
C1205 C 0.84841 0.62826 0.52258 0.0
C1206 C 0.90405 0.55181 0.51465 0.0
C1207 C 0.88537 0.59302 0.52433 0.0
C1208 C 0.92362 0.53538 0.51667 0.0
C1209 C 0.94306 0.54085 0.53164 0.0
C1210 C 0.90437 0.57398 0.52729 0.0
C1211 C 0.94174 0.56235 0.54509 0.0
C1212 C 0.89076 0.61845 0.5281 0.0
C1213 C 0.84389 0.60282 0.51786 0.0
N1214 N 0.92291 0.57834 0.54233 0.0
N1215 N 0.86227 0.58598 0.5189 0.0
H1216 H 0.15074 0.10559 0.23252 0.0
H1217 H 0.27902 0.17073 0.21574 0.0
H1218 H 0.21358 0.06234 0.21645 0.0
H1219 H 0.22199 0.20067 0.25513 0.0
H1220 H 0.25352 0.13361 0.20727 0.0
H1221 H 0.17483 0.14376 0.23108 0.0
C1222 C 0.1696 0.10416 0.22845 0.0
C1223 C 0.18033 0.08077 0.22499 0.0
C1224 C 0.24667 0.14848 0.21761 0.0
C1225 C 0.20807 0.12443 0.22352 0.0
C1226 C 0.26111 0.16957 0.2224 0.0
C1227 C 0.25264 0.18853 0.23636 0.0
C1228 C 0.22356 0.14687 0.2265 0.0
C1229 C 0.22935 0.18629 0.24457 0.0
C1230 C 0.18335 0.12596 0.22768 0.0
C1231 C 0.20474 0.08006 0.21945 0.0
N1232 N 0.21566 0.16587 0.23951 0.0
N1233 N 0.21797 0.10164 0.21914 0.0
H1234 H 0.36649 0.89377 0.55851 0.0
H1235 H 0.43972 0.01565 0.52083 0.0
H1236 H 0.33247 0.96515 0.54461 0.0
H1237 H 0.47095 0.94185 0.52879 0.0
H1238 H 0.40052 -0.00166 0.53081 0.0
H1239 H 0.4055 0.91226 0.55021 0.0
C1240 C 0.36729 0.91344 0.55398 0.0
C1241 C 0.34623 0.92794 0.55218 0.0
C1242 C 0.41596 0.98595 0.53028 0.0
C1243 C 0.39079 0.94918 0.54231 0.0
C1244 C 0.4383 0.99579 0.52447 0.0
C1245 C 0.45865 0.98018 0.52396 0.0
C1246 C 0.41401 0.96037 0.53569 0.0
C1247 C 0.45578 0.95461 0.52894 0.0
C1248 C 0.38955 0.92396 0.54909 0.0
C1249 C 0.3483 0.95332 0.5462 0.0
N1250 N 0.43392 0.94555 0.53467 0.0
N1251 N 0.3702 0.96312 0.54134 0.0
H1252 H 0.83203 0.55962 0.24313 0.0
H1253 H 0.83059 0.70683 0.21855 0.0
H1254 H 0.89561 0.60156 0.22617 0.0
H1255 H 0.78158 0.67197 0.26392 0.0
H1256 H 0.85014 0.66622 0.21353 0.0
H1257 H 0.80912 0.59899 0.24366 0.0
C1258 C 0.8411 0.5771 0.2394 0.0
C1259 C 0.86575 0.57745 0.23474 0.0
C1260 C 0.83497 0.66747 0.22442 0.0
C1261 C 0.83968 0.62221 0.23497 0.0
C1262 C 0.82369 0.69057 0.22719 0.0
C1263 C 0.80452 0.69279 0.24179 0.0
C1264 C 0.8268 0.64639 0.23608 0.0
C1265 C 0.79641 0.6711 0.25262 0.0
C1266 C 0.82806 0.59948 0.23975 0.0
C1267 C 0.87667 0.60054 0.23001 0.0
N1268 N 0.80762 0.64876 0.24957 0.0
N1269 N 0.86354 0.62202 0.23017 0.0
H1270 H 0.66955 0.40773 0.73889 0.0
H1271 H 0.78115 0.33249 0.79076 0.0
H1272 H 0.72981 0.44622 0.77147 0.0
H1273 H 0.73633 0.30506 0.73531 0.0
H1274 H 0.76194 0.37374 0.78642 0.0
H1275 H 0.69254 0.36877 0.74052 0.0
C1276 C 0.68763 0.40794 0.74645 0.0
C1277 C 0.69783 0.43014 0.7551 0.0
C1278 C 0.75659 0.35871 0.77508 0.0
C1279 C 0.7242 0.38566 0.75707 0.0
C1280 C 0.7675 0.33521 0.77753 0.0
C1281 C 0.76019 0.31527 0.76348 0.0
C1282 C 0.73803 0.36205 0.75873 0.0
C1283 C 0.74247 0.31984 0.74659 0.0
C1284 C 0.7008 0.38575 0.74724 0.0
C1285 C 0.72136 0.42942 0.7646 0.0
N1286 N 0.7318 0.34265 0.74488 0.0
N1287 N 0.73376 0.40742 0.76551 0.0
H1288 H 0.97776 0.82498 0.96672 0.0
H1289 H 0.95438 0.96919 0.98834 0.0
H1290 H 0.959 0.87881 0.91496 0.0
H1291 H -0.00148 0.92037 0.03029 0.0
H1292 H 0.93933 0.93246 0.96738 0.0
H1293 H 0.96812 0.85599 0.99501 0.0
C1294 C 0.97113 0.84319 0.9613 0.0
C1295 C 0.96991 0.84971 0.93853 0.0
C1296 C 0.95166 0.92977 0.98167 0.0
C1297 C 0.95896 0.88515 0.97077 0.0
C1298 C 0.96013 0.95064 0.99372 0.0
C1299 C 0.97806 0.94766 0.01069 0.0
C1300 C 0.96107 0.90597 0.98695 0.0
C1301 C 0.985 0.92336 0.01701 0.0
C1302 C 0.96555 0.86081 0.97746 0.0
C1303 C 0.96067 0.87329 0.9324 0.0
N1304 N 0.97677 0.90342 0.00488 0.0
N1305 N 0.95604 0.89046 0.9485 0.0
H1306 H 0.97397 0.27083 0.71973 0.0
H1307 H 0.83282 0.23604 0.71299 0.0
H1308 H 0.93666 0.2414 0.66075 0.0
H1309 H 0.86986 0.26032 0.77404 0.0
H1310 H 0.87063 0.23928 0.69355 0.0
H1311 H 0.93613 0.26848 0.7398 0.0
C1312 C 0.95782 0.26391 0.711 0.0
C1313 C 0.95849 0.25629 0.68852 0.0
C1314 C 0.87057 0.24391 0.7112 0.0
C1315 C 0.91511 0.25356 0.71137 0.0
C1316 C 0.84891 0.24208 0.72235 0.0
C1317 C 0.84808 0.24787 0.74526 0.0
C1318 C 0.89173 0.25166 0.72292 0.0
C1319 C 0.86961 0.25562 0.7564 0.0
C1320 C 0.93623 0.26255 0.72247 0.0
C1321 C 0.93701 0.24746 0.67806 0.0
N1322 N 0.89055 0.2573 0.74514 0.0
N1323 N 0.91627 0.24636 0.68954 0.0
H1324 H 0.5466 0.19967 0.37866 0.0
H1325 H 0.51868 0.1588 0.5038 0.0
H1326 H 0.54283 0.25216 0.43343 0.0
H1327 H 0.51856 0.10853 0.44714 0.0
H1328 H 0.53249 0.19275 0.47957 0.0
H1329 H 0.54326 0.16514 0.4052 0.0
C1330 C 0.54564 0.20389 0.39635 0.0
C1331 C 0.54455 0.22874 0.40386 0.0
C1332 C 0.52939 0.17427 0.47249 0.0
C1333 C 0.54006 0.18948 0.4342 0.0
C1334 C 0.52139 0.15498 0.48626 0.0
C1335 C 0.517 0.13099 0.47735 0.0
C1336 C 0.53316 0.16936 0.44976 0.0
C1337 C 0.52101 0.12692 0.45457 0.0
C1338 C 0.54352 0.1842 0.41149 0.0
C1339 C 0.54346 0.23321 0.42695 0.0
N1340 N 0.52882 0.14591 0.44159 0.0
N1341 N 0.5408 0.21373 0.44131 0.0
H1342 H 0.60782 0.7736 0.15057 0.0
H1343 H 0.69638 0.74067 0.25546 0.0
H1344 H 0.58456 0.73855 0.21131 0.0
H1345 H 0.72107 0.77583 0.19523 0.0
H1346 H 0.65562 0.73911 0.23895 0.0
H1347 H 0.64935 0.77419 0.16609 0.0
C1348 C 0.61144 0.76604 0.16719 0.0
C1349 C 0.59266 0.75603 0.17969 0.0
C1350 C 0.6699 0.74712 0.22926 0.0
C1351 C 0.64024 0.75661 0.19754 0.0
C1352 C 0.69329 0.74801 0.23868 0.0
C1353 C 0.7123 0.75845 0.22674 0.0
C1354 C 0.66523 0.75678 0.20767 0.0
C1355 C 0.70702 0.7676 0.20505 0.0
C1356 C 0.63518 0.76636 0.17603 0.0
C1357 C 0.59844 0.74647 0.2011 0.0
N1358 N 0.68397 0.76662 0.19623 0.0
N1359 N 0.62168 0.74701 0.20932 0.0
H1360 H 0.03855 0.20999 0.58529 0.0
H1361 H 0.02598 0.06001 0.58714 0.0
H1362 H 0.02003 0.16715 0.6436 0.0
H1363 H 0.04159 0.10201 0.52748 0.0
H1364 H 0.0258 0.09907 0.60831 0.0
H1365 H 0.04151 0.17081 0.5641 0.0
C1366 C 0.03514 0.19234 0.59364 0.0
C1367 C 0.02898 0.19184 0.61624 0.0
C1368 C 0.02935 0.0998 0.59061 0.0
C1369 C 0.03237 0.14692 0.5921 0.0
C1370 C 0.0295 0.07745 0.57847 0.0
C1371 C 0.03374 0.07767 0.55542 0.0
C1372 C 0.03343 0.12272 0.57971 0.0
C1373 C 0.03822 0.10091 0.5452 0.0
C1374 C 0.03684 0.16998 0.58153 0.0
C1375 C 0.02478 0.16844 0.62621 0.0
N1376 N 0.03787 0.1225 0.55739 0.0
N1377 N 0.02653 0.14697 0.61408 0.0
H1378 H 0.55779 0.30233 0.28966 0.0
H1379 H 0.69546 0.33397 0.30798 0.0
H1380 H 0.59173 0.33025 0.35085 0.0
H1381 H 0.66464 0.30655 0.24505 0.0
H1382 H 0.65558 0.34496 0.31937 0.0
H1383 H 0.5939 0.31446 0.2695 0.0
C1384 C 0.57265 0.31148 0.29871 0.0
C1385 C 0.57226 0.31466 0.32198 0.0
C1386 C 0.65748 0.33687 0.30291 0.0
C1387 C 0.61321 0.3286 0.29926 0.0
C1388 C 0.68048 0.33076 0.2962 0.0
C1389 C 0.68359 0.31843 0.27573 0.0
C1390 C 0.63729 0.32995 0.28943 0.0
C1391 C 0.6631 0.31489 0.26144 0.0
C1392 C 0.59319 0.31842 0.28724 0.0
C1393 C 0.59169 0.32684 0.33298 0.0
N1394 N 0.64072 0.31995 0.26883 0.0
N1395 N 0.61151 0.33305 0.32158 0.0
H1396 H 0.51797 0.84514 0.14697 0.0
H1397 H 0.50985 0.91167 0.02669 0.0
H1398 H 0.50837 0.80444 0.08485 0.0
H1399 H 0.51305 0.95207 0.08938 0.0
H1400 H 0.50818 0.8722 0.04757 0.0
H1401 H 0.5153 0.88457 0.12608 0.0
C1402 C 0.51522 0.84452 0.12893 0.0
C1403 C 0.51347 0.82151 0.11761 0.0
C1404 C 0.5091 0.88972 0.05674 0.0
C1405 C 0.51047 0.86654 0.09355 0.0
C1406 C 0.51004 0.91226 0.04483 0.0
C1407 C 0.51171 0.93522 0.05629 0.0
C1408 C 0.50996 0.89012 0.08029 0.0
C1409 C 0.51186 0.93483 0.07981 0.0
C1410 C 0.51367 0.86703 0.117 0.0
C1411 C 0.50985 0.82179 0.09423 0.0
N1412 N 0.51114 0.91266 0.09101 0.0
N1413 N 0.50859 0.84395 0.08295 0.0
H1414 H 0.95969 0.75598 0.8365 0.0
H1415 H 0.83237 0.71025 0.86808 0.0
H1416 H 0.93802 0.74771 0.90481 0.0
H1417 H 0.85979 0.70334 0.80162 0.0
H1418 H 0.8737 0.71313 0.88319 0.0
H1419 H 0.92653 0.72831 0.82434 0.0
C1420 C 0.94802 0.74818 0.84893 0.0
C1421 C 0.9511 0.75463 0.87157 0.0
C1422 C 0.87075 0.71025 0.86536 0.0
C1423 C 0.91322 0.723 0.8579 0.0
C1424 C 0.84709 0.70842 0.85672 0.0
C1425 C 0.84268 0.70772 0.83347 0.0
C1426 C 0.88986 0.71173 0.85053 0.0
C1427 C 0.86242 0.70484 0.81962 0.0
C1428 C 0.92924 0.73218 0.84205 0.0
C1429 C 0.93589 0.7436 0.8871 0.0
N1430 N 0.8852 0.70779 0.82829 0.0
N1431 N 0.9173 0.72868 0.87993 0.0
H1432 H 0.96396 0.04407 0.84963 0.0
H1433 H 0.03928 0.97621 0.94836 0.0
H1434 H 0.97763 0.9644 0.85241 0.0
H1435 H 0.01095 0.05142 0.95145 0.0
H1436 H 0.02786 0.97489 0.90828 0.0
H1437 H 0.99196 0.04992 0.88181 0.0
C1438 C 0.97316 0.02787 0.85679 0.0
C1439 C 0.96812 0.00367 0.84871 0.0
C1440 C 0.02467 0.99188 0.91766 0.0
C1441 C 2e-05 0.01017 0.88547 0.0
C1442 C 0.03133 0.99269 0.94045 0.0
C1443 C 0.02561 0.01378 0.95318 0.0
C1444 C 0.01242 0.01237 0.90773 0.0
C1445 C 0.01526 0.03463 0.94222 0.0
C1446 C 0.98912 0.0312 0.87515 0.0
C1447 C 0.98072 0.98334 0.85842 0.0
N1448 N 0.0087 0.03328 0.92018 0.0
N1449 N 0.99584 0.987 0.87653 0.0
H1450 H 0.76143 0.12046 0.56778 0.0
H1451 H 0.73606 0.23748 0.64707 0.0
H1452 H 0.76074 0.19713 0.54433 0.0
H1453 H 0.75029 0.16225 0.67102 0.0
H1454 H 0.73891 0.22242 0.60858 0.0
H1455 H 0.75166 0.13504 0.60498 0.0
C1456 C 0.75923 0.14041 0.57048 0.0
C1457 C 0.7621 0.15766 0.55301 0.0
C1458 C 0.74115 0.20921 0.62229 0.0
C1459 C 0.75076 0.17449 0.5956 0.0
C1460 C 0.73954 0.21776 0.64425 0.0
C1461 C 0.7432 0.20116 0.66236 0.0
C1462 C 0.74637 0.18386 0.6184 0.0
C1463 C 0.74716 0.17573 0.65767 0.0
C1464 C 0.7536 0.14872 0.59173 0.0
C1465 C 0.75886 0.18326 0.55741 0.0
N1466 N 0.74884 0.16792 0.63617 0.0
N1467 N 0.75341 0.19094 0.57835 0.0
H1468 H 0.59748 0.04717 0.35364 0.0
H1469 H 0.54741 0.96091 0.44994 0.0
H1470 H 0.60032 0.96628 0.35148 0.0
H1471 H 0.52992 0.03953 0.44291 0.0
H1472 H 0.56467 0.96179 0.41287 0.0
H1473 H 0.5714 0.04447 0.38569 0.0
C1474 C 0.59254 0.02883 0.35989 0.0
C1475 C 0.60122 0.00691 0.35005 0.0
C1476 C 0.5567 0.97874 0.41928 0.0
C1477 C 0.57141 0.00365 0.38671 0.0
C1478 C 0.54678 0.97824 0.44042 0.0
C1479 C 0.53746 0.00025 0.44964 0.0
C1480 C 0.55761 0.00149 0.40743 0.0
C1481 C 0.53703 0.02214 0.43652 0.0
C1482 C 0.57754 0.02729 0.3781 0.0
C1483 C 0.59411 0.98364 0.35868 0.0
N1484 N 0.54735 0.0223 0.41623 0.0
N1485 N 0.5798 0.98261 0.37668 0.0
H1486 H 0.82171 0.93439 0.09157 0.0
H1487 H 0.84065 0.79837 0.14182 0.0
H1488 H 0.83603 0.86925 0.05136 0.0
H1489 H 0.82813 0.86491 0.18091 0.0
H1490 H 0.848 0.82504 0.10936 0.0
H1491 H 0.8343 0.91093 0.12504 0.0
C1492 C 0.82811 0.91533 0.08975 0.0
C1493 C 0.82732 0.90353 0.06879 0.0
C1494 C 0.8441 0.83378 0.12518 0.0
C1495 C 0.84106 0.87632 0.107 0.0
C1496 C 0.83972 0.81856 0.14366 0.0
C1497 C 0.83339 0.82936 0.16405 0.0
C1498 C 0.84191 0.85997 0.12709 0.0
C1499 C 0.83301 0.85566 0.16561 0.0
C1500 C 0.83519 0.90187 0.10887 0.0
C1501 C 0.83606 0.87892 0.0673 0.0
N1502 N 0.83684 0.87 0.14731 0.0
N1503 N 0.84201 0.86587 0.08625 0.0
H1504 H 0.91307 0.95414 0.72875 0.0
H1505 H 0.00455 0.01125 0.64163 0.0
H1506 H 0.96287 0.01476 0.74386 0.0
H1507 H 0.96377 0.94324 0.62864 0.0
H1508 H 0.98833 0.01317 0.67877 0.0
H1509 H 0.92996 0.95044 0.69153 0.0
C1510 C 0.92753 0.96668 0.72421 0.0
C1511 C 0.93659 0.98482 0.73935 0.0
C1512 C 0.98301 -0.0023 0.6679 0.0
C1513 C 0.95593 0.98069 0.69696 0.0
C1514 C 0.99245 0.99645 0.64668 0.0
C1515 C 0.98579 0.97684 0.63201 0.0
C1516 C 0.96653 0.97937 0.67459 0.0
C1517 C 0.96935 0.95874 0.63935 0.0
C1518 C 0.93719 0.96451 0.70302 0.0
C1519 C 0.95535 0.00054 0.73269 0.0
N1520 N 0.96024 0.96045 0.66015 0.0
N1521 N 0.96436 -0.00186 0.71198 0.0
H1522 H 0.82705 0.18428 0.44424 0.0
H1523 H 0.76631 0.25841 0.34052 0.0
H1524 H 0.75054 0.18436 0.4279 0.0
H1525 H 0.83826 0.22761 0.33879 0.0
H1526 H 0.76305 0.24254 0.37867 0.0
H1527 H 0.83359 0.21068 0.41115 0.0
C1528 C 0.81164 0.19017 0.43388 0.0
C1529 C 0.78825 0.18201 0.43859 0.0
C1530 C 0.77968 0.23964 0.37003 0.0
C1531 C 0.79554 0.21231 0.40125 0.0
C1532 C 0.78165 0.24881 0.34831 0.0
C1533 C 0.80248 0.24401 0.33632 0.0
C1534 C 0.79877 0.22583 0.37995 0.0
C1535 C 0.82177 0.23147 0.34735 0.0
C1536 C 0.81539 0.20512 0.41505 0.0
C1537 C 0.76888 0.19007 0.42468 0.0
N1538 N 0.81938 0.2226 0.36853 0.0
N1539 N 0.77295 0.20478 0.40662 0.0
H1540 H 0.60493 0.06544 0.24192 0.0
H1541 H 0.52115 0.0031 0.14568 0.0
H1542 H 0.58412 0.98731 0.24032 0.0
H1543 H 0.54959 0.07849 0.14174 0.0
H1544 H 0.53753 -0.00012 0.18386 0.0
H1545 H 0.57897 0.07289 0.20859 0.0
C1546 C 0.59472 0.0499 0.23466 0.0
C1547 C 0.59685 0.02565 0.24369 0.0
C1548 C 0.53994 0.01726 0.17478 0.0
C1549 C 0.56716 0.03405 0.20567 0.0
C1550 C 0.53033 0.01925 0.153 0.0
C1551 C 0.53411 0.04108 0.14036 0.0
C1552 C 0.55359 0.03716 0.18404 0.0
C1553 C 0.54659 0.06116 0.15072 0.0
C1554 C 0.57992 0.05417 0.21565 0.0
C1555 C 0.58315 0.00624 0.23374 0.0
N1556 N 0.55612 0.05862 0.1719 0.0
N1557 N 0.569 0.01083 0.21516 0.0
H1558 H 0.73214 0.89017 0.95552 0.0
H1559 H 0.74327 0.74421 0.93926 0.0
H1560 H 0.76085 0.83978 0.00639 0.0
H1561 H 0.70671 0.79315 0.89159 0.0
H1562 H 0.74132 0.77716 0.96753 0.0
H1563 H 0.71566 0.85404 0.93478 0.0
C1564 C 0.73484 0.87151 0.96236 0.0
C1565 C 0.74831 0.86787 0.9824 0.0
C1566 C 0.73311 0.78049 0.95107 0.0
C1567 C 0.72948 0.82652 0.95894 0.0
C1568 C 0.73406 0.76159 0.93501 0.0
C1569 C 0.72561 0.76619 0.91299 0.0
C1570 C 0.72403 0.80421 0.94486 0.0
C1571 C 0.71363 0.78889 0.90835 0.0
C1572 C 0.72528 0.8509 0.95064 0.0
C1573 C 0.75094 0.84337 0.99077 0.0
N1574 N 0.71379 0.80735 0.92398 0.0
N1575 N 0.7419 0.8236 0.97884 0.0
H1576 H 0.78778 0.01246 0.99525 0.0
H1577 H 0.92065 0.04364 0.96007 0.0
H1578 H 0.83655 0.96091 0.96451 0.0
H1579 H 0.88592 0.07523 0.01698 0.0
H1580 H 0.88177 0.02662 0.94661 0.0
H1581 H 0.81567 0.04689 0.98771 0.0
C1582 C 0.80395 0.0085 0.98621 0.0
C1583 C 0.8103 0.98373 0.98106 0.0
C1584 C 0.8825 0.03819 0.96152 0.0
C1585 C 0.84192 0.02296 0.97226 0.0
C1586 C 0.90462 0.04811 0.96914 0.0
C1587 C 0.90647 0.0604 0.98991 0.0
C1588 C 0.86225 0.04077 0.97475 0.0
C1589 C 0.88521 0.06548 0.00107 0.0
C1590 C 0.8198 0.02817 0.98193 0.0
C1591 C 0.8313 0.97969 0.9692 0.0
N1592 N 0.86398 0.05514 0.9936 0.0
N1593 N 0.84663 -0.00092 0.96555 0.0
H1594 H 0.3419 0.57832 0.03453 0.0
H1595 H 0.46018 0.53522 0.97466 0.0
H1596 H 0.34486 0.57436 0.96253 0.0
H1597 H 0.44468 0.51407 0.04247 0.0
H1598 H 0.41893 0.55129 0.9697 0.0
H1599 H 0.38059 0.55658 0.03783 0.0
C1600 C 0.35069 0.57275 0.0194 0.0
C1601 C 0.34027 0.57819 -0.00178 0.0
C1602 C 0.42453 0.5429 0.98557 0.0
C1603 C 0.38464 0.55353 0.00187 0.0
C1604 C 0.44806 0.53381 0.98844 0.0
C1605 C 0.45591 0.52344 0.00906 0.0
C1606 C 0.40891 0.54196 0.00355 0.0
C1607 C 0.43942 0.52195 0.02631 0.0
C1608 C 0.37271 0.56026 0.0213 0.0
C1609 C 0.35233 0.57047 0.97917 0.0
N1610 N 0.41679 0.53138 0.02324 0.0
N1611 N 0.37408 0.55874 0.98143 0.0
H1612 H 0.22147 0.56199 0.79982 0.0
H1613 H 0.19899 0.71003 0.78799 0.0
H1614 H 0.15157 0.59633 0.80614 0.0
H1615 H 0.26533 0.67329 0.77111 0.0
H1616 H 0.18161 0.66897 0.79664 0.0
H1617 H 0.23869 0.6034 0.79239 0.0
C1618 C 0.20982 0.57829 0.79993 0.0
C1619 C 0.18507 0.57576 0.80355 0.0
C1620 C 0.19993 0.66994 0.79092 0.0
C1621 C 0.20451 0.62308 0.79478 0.0
C1622 C 0.20981 0.69335 0.78587 0.0
C1623 C 0.23364 0.69513 0.77881 0.0
C1624 C 0.21405 0.64821 0.78903 0.0
C1625 C 0.24687 0.67287 0.77649 0.0
C1626 C 0.2196 0.60189 0.79552 0.0
C1627 C 0.17075 0.59747 0.80339 0.0
N1628 N 0.23694 0.65039 0.7817 0.0
N1629 N 0.18066 0.62022 0.79899 0.0
H1630 H 0.19916 0.43509 0.53641 0.0
H1631 H 0.0758 0.47739 0.47844 0.0
H1632 H 0.1845 0.42964 0.46511 0.0
H1633 H 0.09845 0.50046 0.54527 0.0
H1634 H 0.11653 0.46212 0.47253 0.0
H1635 H 0.16374 0.46181 0.5395 0.0
C1636 C 0.18863 0.43982 0.52137 0.0
C1637 C 0.19443 0.42991 0.50053 0.0
C1638 C 0.11268 0.47079 0.48839 0.0
C1639 C 0.15387 0.4601 0.50394 0.0
C1640 C 0.0894 0.47935 0.49183 0.0
C1641 C 0.08371 0.4898 0.5125 0.0
C1642 C 0.13024 0.47239 0.50587 0.0
C1643 C 0.10206 0.49226 0.52915 0.0
C1644 C 0.16847 0.45511 0.52312 0.0
C1645 C 0.18044 0.43677 0.48151 0.0
N1646 N 0.12448 0.48328 0.52558 0.0
N1647 N 0.1605 0.45116 0.48372 0.0
H1648 H 0.91114 0.90257 0.8213 0.0
H1649 H 0.78957 0.82827 0.84684 0.0
H1650 H 0.84421 0.94022 0.83435 0.0
H1651 H 0.85163 0.79684 0.81561 0.0
H1652 H 0.81188 0.8681 0.85201 0.0
H1653 H 0.89208 0.8625 0.82933 0.0
C1654 C 0.89244 0.9024 0.82604 0.0
C1655 C 0.87906 0.92464 0.82673 0.0
C1656 C 0.82067 0.85229 0.84439 0.0
C1657 C 0.85704 0.87878 0.83578 0.0
C1658 C 0.80804 0.82963 0.84157 0.0
C1659 C 0.81878 0.80955 0.83055 0.0
C1660 C 0.84417 0.85445 0.83643 0.0
C1661 C 0.84265 0.81209 0.82391 0.0
C1662 C 0.88156 0.87952 0.83064 0.0
C1663 C 0.85503 0.92339 0.83336 0.0
N1664 N 0.85448 0.83417 0.82683 0.0
N1665 N 0.84461 0.90072 0.83734 0.0
H1666 H 0.68971 0.1251 0.47872 0.0
H1667 H 0.62009 0.00089 0.51619 0.0
H1668 H 0.72633 0.05497 0.49201 0.0
H1669 H 0.58787 0.07445 0.51035 0.0
H1670 H 0.6588 0.01901 0.50548 0.0
H1671 H 0.65147 0.10508 0.48689 0.0
C1672 C 0.68964 0.10535 0.48307 0.0
C1673 C 0.71121 0.09169 0.4848 0.0
C1674 C 0.64324 0.03113 0.50665 0.0
C1675 C 0.66746 0.06868 0.49461 0.0
C1676 C 0.6212 0.02085 0.51289 0.0
C1677 C 0.60071 0.03617 0.51419 0.0
C1678 C 0.64468 0.05685 0.5016 0.0
C1679 C 0.60314 0.06188 0.50958 0.0
C1680 C 0.6678 0.09395 0.4879 0.0
C1681 C 0.71006 0.06615 0.49047 0.0
N1682 N 0.62466 0.07134 0.50343 0.0
N1683 N 0.68852 0.05547 0.49537 0.0
H1684 H 0.20047 0.44363 0.76506 0.0
H1685 H 0.23942 0.31748 0.82668 0.0
H1686 H 0.19699 0.43582 0.83677 0.0
H1687 H 0.26467 0.33935 0.76188 0.0
H1688 H 0.22286 0.35981 0.83118 0.0
H1689 H 0.22294 0.40443 0.7637 0.0
C1690 C 0.2046 0.43369 0.78056 0.0
C1691 C 0.19684 0.44289 0.80105 0.0
C1692 C 0.23228 0.35534 0.81612 0.0
C1693 C 0.22231 0.39778 0.79962 0.0
C1694 C 0.24168 0.3312 0.81352 0.0
C1695 C 0.25326 0.32478 0.79379 0.0
C1696 C 0.23423 0.37296 0.79876 0.0
C1697 C 0.25576 0.34334 0.77732 0.0
C1698 C 0.21749 0.41135 0.77979 0.0
C1699 C 0.20274 0.42933 0.82065 0.0
N1700 N 0.2461 0.36645 0.78008 0.0
N1701 N 0.2149 0.40722 0.81944 0.0
H1702 H 0.32812 0.55995 0.27646 0.0
H1703 H 0.32066 0.70434 0.31097 0.0
H1704 H 0.38675 0.60099 0.30904 0.0
H1705 H 0.27708 0.67353 0.25615 0.0
H1706 H 0.33995 0.66359 0.31624 0.0
H1707 H 0.30456 0.59899 0.27407 0.0
C1708 C 0.33596 0.57714 0.28316 0.0
C1709 C 0.35942 0.57736 0.29285 0.0
C1710 C 0.32605 0.66572 0.30315 0.0
C1711 C 0.33261 0.62164 0.2905 0.0
C1712 C 0.31492 0.68893 0.30019 0.0
C1713 C 0.29737 0.69241 0.28294 0.0
C1714 C 0.31947 0.64572 0.28893 0.0
C1715 C 0.29066 0.67171 0.26954 0.0
C1716 C 0.32257 0.59933 0.28176 0.0
C1717 C 0.36879 0.60006 0.30129 0.0
N1718 N 0.3018 0.64919 0.27277 0.0
N1719 N 0.35532 0.62127 0.3 0.0
H1720 H 0.54803 0.63876 0.66064 0.0
H1721 H 0.57294 0.57851 0.54133 0.0
H1722 H 0.59858 0.66915 0.61431 0.0
H1723 H 0.51503 0.55433 0.58296 0.0
H1724 H 0.58446 0.61 0.56918 0.0
H1725 H 0.53893 0.60456 0.63438 0.0
C1726 C 0.5576 0.63792 0.64516 0.0
C1727 C 0.57393 0.65686 0.6395 0.0
C1728 C 0.56912 0.59795 0.57219 0.0
C1729 C 0.56329 0.61824 0.60932 0.0
C1730 C 0.56242 0.58006 0.55622 0.0
C1731 C 0.54293 0.56383 0.55983 0.0
C1732 C 0.55634 0.59959 0.59198 0.0
C1733 C 0.53005 0.56661 0.57945 0.0
C1734 C 0.5522 0.61857 0.63008 0.0
C1735 C 0.58576 0.65497 0.61923 0.0
N1736 N 0.53708 0.58411 0.5949 0.0
N1737 N 0.58004 0.63611 0.60476 0.0
H1738 H 0.58224 0.23383 0.8253 0.0
H1739 H 0.72646 0.24742 0.83878 0.0
H1740 H 0.61977 0.26126 0.88494 0.0
H1741 H 0.68994 0.2245 0.77705 0.0
H1742 H 0.68746 0.25072 0.85622 0.0
H1743 H 0.62122 0.22894 0.80753 0.0
C1744 C 0.59866 0.23888 0.83464 0.0
C1745 C 0.59771 0.24802 0.85664 0.0
C1746 C 0.68791 0.24489 0.83888 0.0
C1747 C 0.64243 0.24232 0.83645 0.0
C1748 C 0.71025 0.24292 0.82889 0.0
C1749 C 0.71158 0.23568 0.80635 0.0
C1750 C 0.66655 0.23961 0.82634 0.0
C1751 C 0.68984 0.23013 0.79446 0.0
C1752 C 0.62092 0.23605 0.82449 0.0
C1753 C 0.61959 0.2542 0.86794 0.0
N1754 N 0.66825 0.23226 0.80457 0.0
N1755 N 0.64098 0.25122 0.85775 0.0
H1756 H 0.00676 0.2599 0.10529 0.0
H1757 H 0.06998 0.38391 0.08249 0.0
H1758 H 0.04035 0.3018 0.15992 0.0
H1759 H 0.99721 0.37645 0.05437 0.0
H1760 H 0.062 0.34928 0.10779 0.0
H1761 H 0.00328 0.29893 0.08351 0.0
C1762 C 0.01266 0.27739 0.11296 0.0
C1763 C 0.0243 0.27763 0.13422 0.0
C1764 C 0.04781 0.35542 0.09609 0.0
C1765 C 0.02108 0.32161 0.10935 0.0
C1766 C 0.0523 0.37518 0.08162 0.0
C1767 C 0.03419 0.38345 0.06632 0.0
C1768 C 0.02533 0.3433 0.09488 0.0
C1769 C 0.0119 0.37059 0.06558 0.0
C1770 C 0.01075 0.29954 0.10051 0.0
C1771 C 0.03157 0.30075 0.14345 0.0
N1772 N 0.00814 0.35093 0.07956 0.0
N1773 N 0.03052 0.32176 0.13067 0.0
H1774 H 0.94312 0.74702 0.38147 0.0
H1775 H 0.86853 0.78505 0.26891 0.0
H1776 H 0.97633 0.77869 0.32357 0.0
H1777 H 0.83603 0.75387 0.32744 0.0
H1778 H 0.908 0.78378 0.28871 0.0
H1779 H 0.9037 0.75002 0.36197 0.0
C1780 C 0.94212 0.7546 0.36463 0.0
C1781 C 0.96307 0.76258 0.35412 0.0
C1782 C 0.89222 0.7773 0.29724 0.0
C1783 C 0.91787 0.76612 0.33163 0.0
C1784 C 0.86965 0.77805 0.28596 0.0
C1785 C 0.84888 0.76953 0.2965 0.0
C1786 C 0.8941 0.76792 0.31924 0.0
C1787 C 0.8515 0.76064 0.31861 0.0
C1788 C 0.91957 0.75634 0.35349 0.0
C1789 C 0.96065 0.77229 0.33229 0.0
N1790 N 0.87365 0.76002 0.32918 0.0
N1791 N 0.93847 0.77377 0.32176 0.0
H1792 H 0.52126 0.301 0.95827 0.0
H1793 H 0.52667 0.45121 0.95601 0.0
H1794 H 0.53302 0.34469 0.89875 0.0
H1795 H 0.51484 0.4085 0.01614 0.0
H1796 H 0.52751 0.4123 0.93474 0.0
H1797 H 0.51775 0.3399 0.97964 0.0
C1798 C 0.52311 0.31879 0.94969 0.0
C1799 C 0.5275 0.31961 0.92669 0.0
C1800 C 0.52464 0.41137 0.95256 0.0
C1801 C 0.52344 0.36423 0.95107 0.0
C1802 C 0.52411 0.43363 0.96477 0.0
C1803 C 0.52076 0.43317 0.98798 0.0
C1804 C 0.52186 0.38829 0.96355 0.0
C1805 C 0.51747 0.40977 -0.0017 0.0
C1806 C 0.52107 0.34099 0.96191 0.0
C1807 C 0.52969 0.34318 0.91645 0.0
N1808 N 0.51822 0.38825 0.98603 0.0
N1809 N 0.52766 0.36452 0.92871 0.0
H1810 H -0.00185 0.1586 0.17432 0.0
H1811 H 0.9352 0.21634 0.27181 0.0
H1812 H 0.03927 0.19173 0.22948 0.0
H1813 H 0.90375 0.15127 0.2386 0.0
H1814 H 0.97449 0.2038 0.25961 0.0
H1815 H 0.96488 0.15093 0.19926 0.0
C1816 C 0.00041 0.16359 0.19185 0.0
C1817 C 0.02118 0.17633 0.19979 0.0
C1818 C 0.95908 0.19192 0.25541 0.0
C1819 C 0.98315 0.16819 0.22817 0.0
C1820 C 0.93643 0.19903 0.26248 0.0
C1821 C 0.91569 0.18526 0.25581 0.0
C1822 C 0.96105 0.17135 0.24099 0.0
C1823 C 0.91893 0.16316 0.24339 0.0
C1824 C 0.98146 0.15916 0.20609 0.0
C1825 C 0.02338 0.18218 0.22265 0.0
N1826 N 0.94106 0.15727 0.23584 0.0
N1827 N 0.00426 0.17874 0.23594 0.0
H1828 H 0.04707 0.7082 0.45576 0.0
H1829 H 0.01121 0.56234 0.45679 0.0
H1830 H 0.01945 0.66779 0.39771 0.0
H1831 H 0.03623 0.60262 0.5159 0.0
H1832 H 0.01579 0.60046 0.43474 0.0
H1833 H 0.04503 0.6695 0.47778 0.0
C1834 C 0.0407 0.69115 0.44761 0.0
C1835 C 0.03338 0.69123 0.42486 0.0
C1836 C 0.02032 0.60101 0.45252 0.0
C1837 C 0.03092 0.64687 0.45 0.0
C1838 C 0.01771 0.5792 0.46517 0.0
C1839 C 0.02327 0.57924 0.48831 0.0
C1840 C 0.02858 0.62317 0.46299 0.0
C1841 C 0.03167 0.60171 0.49814 0.0
C1842 C 0.0395 0.66907 0.46021 0.0
C1843 C 0.02526 0.6686 0.41519 0.0
N1844 N 0.03403 0.62277 0.48545 0.0
N1845 N 0.02419 0.64738 0.42781 0.0
H1846 H 0.5972 0.76729 0.74029 0.0
H1847 H 0.73876 0.79334 0.74952 0.0
H1848 H 0.64895 0.74718 0.69113 0.0
H1849 H 0.6974 0.77542 0.80741 0.0
H1850 H 0.70134 0.79487 0.72679 0.0
H1851 H 0.63023 0.78597 0.76358 0.0
C1852 C 0.61546 0.76702 0.73438 0.0
C1853 C 0.62062 0.7553 0.7141 0.0
C1854 C 0.70046 0.79129 0.7446 0.0
C1855 C 0.65778 0.77729 0.73987 0.0
C1856 C 0.72176 0.79051 0.75762 0.0
C1857 C 0.7212 0.78331 0.78019 0.0
C1858 C 0.67859 0.78488 0.75428 0.0
C1859 C 0.69864 0.78043 0.78991 0.0
C1860 C 0.63414 0.77775 0.74753 0.0
C1861 C 0.64439 0.75559 0.70692 0.0
N1862 N 0.67814 0.78058 0.77673 0.0
N1863 N 0.66212 0.7664 0.71982 0.0
H1864 H 0.59077 0.47191 0.69893 0.0
H1865 H 0.6083 0.47326 0.56681 0.0
H1866 H 0.658 0.48916 0.66783 0.0
H1867 H 0.53911 0.46353 0.59687 0.0
H1868 H 0.62793 0.47129 0.60394 0.0
H1869 H 0.57257 0.46232 0.66196 0.0
C1870 C 0.6017 0.47363 0.68431 0.0
C1871 C 0.62583 0.48161 0.68636 0.0
C1872 C 0.60848 0.46924 0.60241 0.0
C1873 C 0.60525 0.47047 0.64416 0.0
C1874 C 0.59726 0.4702 0.58118 0.0
C1875 C 0.57198 0.46896 0.57877 0.0
C1876 C 0.59433 0.46715 0.62137 0.0
C1877 C 0.55863 0.46481 0.59797 0.0
C1878 C 0.59134 0.46806 0.66325 0.0
C1879 C 0.63925 0.48331 0.66695 0.0
N1880 N 0.56995 0.46444 0.61853 0.0
N1881 N 0.62874 0.47791 0.64665 0.0
H1882 H 0.81007 0.38321 0.97259 0.0
H1883 H 0.81804 0.25295 0.90737 0.0
H1884 H 0.7869 0.31278 0.00058 0.0
H1885 H 0.81457 0.32518 0.87438 0.0
H1886 H 0.81481 0.27413 0.94345 0.0
H1887 H 0.81974 0.36146 0.93807 0.0
C1888 C 0.80706 0.36314 0.97146 0.0
C1889 C 0.79748 0.34976 0.98933 0.0
C1890 C 0.815 0.28526 0.92826 0.0
C1891 C 0.80875 0.32479 0.95007 0.0
C1892 C 0.8168 0.27322 0.90766 0.0
C1893 C 0.81633 0.28722 0.88768 0.0
C1894 C 0.81299 0.31148 0.92892 0.0
C1895 C 0.81529 0.31352 0.88924 0.0
C1896 C 0.81259 0.35077 0.95179 0.0
C1897 C 0.79405 0.32378 0.98707 0.0
N1898 N 0.81352 0.32476 0.90947 0.0
N1899 N 0.7997 0.31209 0.96774 0.0
H1900 H 0.92104 0.5391 0.15948 0.0
H1901 H 0.03409 0.4934 0.0969 0.0
H1902 H 0.98184 0.50734 0.19665 0.0
H1903 H 0.99239 0.5574 0.07388 0.0
H1904 H 0.0156 0.49683 0.13344 0.0
H1905 H 0.94637 0.54408 0.12705 0.0
C1906 C 0.93976 0.53325 0.16079 0.0
C1907 C 0.9494 0.52268 0.18062 0.0
C1908 C 0.01093 0.5104 0.12049 0.0
C1909 C 0.97832 0.52811 0.14371 0.0
C1910 C 0.02146 0.50848 0.09967 0.0
C1911 C 0.01454 0.52495 0.08226 0.0
C1912 C 0.99305 0.52854 0.12362 0.0
C1913 C -0.00186 0.54418 0.08677 0.0
C1914 C 0.95423 0.53627 0.14239 0.0
C1915 C 0.97379 0.51556 0.18158 0.0
N1916 N 0.98756 0.54512 0.10688 0.0
N1917 N 0.98739 0.51805 0.16321 0.0
H1918 H 0.77396 0.7366 0.4813 0.0
H1919 H 0.73407 0.68189 0.36434 0.0
H1920 H 0.74504 0.66165 0.47362 0.0
H1921 H 0.73651 0.76154 0.37705 0.0
H1922 H 0.7348 0.67422 0.40475 0.0
H1923 H 0.75797 0.74685 0.44367 0.0
C1924 C 0.76405 0.72241 0.47176 0.0
C1925 C 0.76112 0.69816 0.48034 0.0
C1926 C 0.73458 0.6934 0.39872 0.0
C1927 C 0.74294 0.70962 0.43748 0.0
C1928 C 0.73415 0.69773 0.37571 0.0
C1929 C 0.73543 0.72232 0.36753 0.0
C1930 C 0.73692 0.71382 0.41351 0.0
C1931 C 0.73547 0.74229 0.3828 0.0
C1932 C 0.75479 0.72829 0.45038 0.0
C1933 C 0.74792 0.6805 0.46747 0.0
N1934 N 0.73677 0.7376 0.40514 0.0
N1935 N 0.73964 0.68646 0.4465 0.0
H1936 H 0.58966 0.51617 0.7942 0.0
H1937 H 0.60934 0.52473 0.92729 0.0
H1938 H 0.65691 0.49933 0.82975 0.0
H1939 H 0.5418 0.54266 0.89263 0.0
H1940 H 0.62763 0.51809 0.89136 0.0
H1941 H 0.57197 0.52731 0.82982 0.0
C1942 C 0.60065 0.51469 0.80952 0.0
C1943 C 0.62474 0.50672 0.80907 0.0
C1944 C 0.60886 0.52368 0.89156 0.0
C1945 C 0.60476 0.51965 0.84976 0.0
C1946 C 0.59844 0.52778 0.91212 0.0
C1947 C 0.57394 0.53424 0.91303 0.0
C1948 C 0.59468 0.5259 0.8717 0.0
C1949 C 0.56065 0.53736 0.89274 0.0
C1950 C 0.59059 0.52117 0.82981 0.0
C1951 C 0.63823 0.50529 0.82935 0.0
N1952 N 0.57115 0.533 0.8729 0.0
N1953 N 0.62805 0.51169 0.84886 0.0
H1954 H 0.82398 0.32535 0.09665 0.0
H1955 H 0.7518 0.26158 0.19515 0.0
H1956 H 0.74759 0.33441 0.10594 0.0
H1957 H 0.82909 0.2559 0.18974 0.0
H1958 H 0.74919 0.28175 0.15852 0.0
H1959 H 0.82555 0.29459 0.12717 0.0
C1960 C 0.80751 0.32076 0.10504 0.0
C1961 C 0.78566 0.33264 0.09895 0.0
C1962 C 0.7667 0.27578 0.16514 0.0
C1963 C 0.7873 0.29741 0.13373 0.0
C1964 C 0.7682 0.26411 0.18602 0.0
C1965 C 0.79074 0.25735 0.19563 0.0
C1966 C 0.78794 0.28099 0.15384 0.0
C1967 C 0.81135 0.2609 0.18298 0.0
C1968 C 0.80841 0.30316 0.12241 0.0
C1969 C 0.76486 0.32588 0.11024 0.0
N1970 N 0.80951 0.27289 0.16286 0.0
N1971 N 0.76622 0.30884 0.12717 0.0
H1972 H 0.96718 0.49792 0.29375 0.0
H1973 H 0.93207 0.48694 0.42133 0.0
H1974 H 0.89388 0.50456 0.31521 0.0
H1975 H 0.00072 0.46277 0.39701 0.0
H1976 H 0.9173 0.49277 0.38273 0.0
H1977 H 0.97999 0.48601 0.33186 0.0
C1978 C 0.95382 0.49704 0.30654 0.0
C1979 C 0.92948 0.50235 0.30142 0.0
C1980 C 0.9355 0.48588 0.38584 0.0
C1981 C 0.94391 0.48851 0.34491 0.0
C1982 C 0.94388 0.48229 0.40789 0.0
C1983 C 0.96778 0.47458 0.41244 0.0
C1984 C 0.95119 0.48199 0.36824 0.0
C1985 C 0.98233 0.46923 0.39429 0.0
C1986 C 0.96109 0.49002 0.32823 0.0
C1987 C 0.91286 0.5007 0.31853 0.0
N1988 N 0.97391 0.47334 0.37299 0.0
N1989 N 0.9204 0.49401 0.33958 0.0
H1990 H 0.85537 0.70517 0.59395 0.0
H1991 H 0.8037 0.78915 0.68906 0.0
H1992 H 0.79161 0.75126 0.58667 0.0
H1993 H 0.86293 0.73725 0.69855 0.0
H1994 H 0.80803 0.7866 0.64876 0.0
H1995 H 0.86667 0.72744 0.62844 0.0
C1996 C 0.84399 0.72032 0.59941 0.0
C1997 C 0.82214 0.72592 0.5879 0.0
C1998 C 0.82045 0.77619 0.65965 0.0
C1999 C 0.83482 0.75122 0.62735 0.0
C2000 C 0.81811 0.77776 0.68273 0.0
C2001 C 0.83256 0.76282 0.69718 0.0
C2002 C 0.83712 0.75931 0.65098 0.0
C2003 C 0.85088 0.74842 0.68795 0.0
C2004 C 0.85047 0.73305 0.61907 0.0
C2005 C 0.80833 0.74601 0.59537 0.0
N2006 N 0.8523 0.7466 0.66538 0.0
N2007 N 0.81464 0.75762 0.61494 0.0
H2008 H 0.71428 0.66058 0.57162 0.0
H2009 H 0.68191 0.52744 0.52338 0.0
H2010 H 0.76562 0.59984 0.57115 0.0
H2011 H 0.62799 0.5817 0.54089 0.0
H2012 H 0.71231 0.55187 0.54473 0.0
H2013 H 0.68153 0.63026 0.56618 0.0
C2014 C 0.71859 0.64077 0.57114 0.0
C2015 C 0.74266 0.63273 0.57124 0.0
C2016 C 0.69376 0.55829 0.54404 0.0
C2017 C 0.70549 0.59809 0.56419 0.0
C2018 C 0.67646 0.54443 0.53174 0.0
C2019 C 0.65255 0.55293 0.52977 0.0
C2020 C 0.68707 0.58083 0.55433 0.0
C2021 C 0.64642 0.57495 0.54117 0.0
C2022 C 0.69991 0.62345 0.56784 0.0
C2023 C 0.74728 0.60685 0.57076 0.0
N2024 N 0.66361 0.58827 0.55272 0.0
N2025 N 0.72887 0.59045 0.56657 0.0
H2026 H 0.19141 0.89337 0.55063 0.0
H2027 H 0.11521 0.01263 0.51273 0.0
H2028 H 0.22595 0.9648 0.53955 0.0
H2029 H 0.08677 0.95487 0.55527 0.0
H2030 H 0.15557 0.99401 0.51791 0.0
H2031 H 0.152 0.91401 0.54753 0.0
C2032 C 0.19067 0.9134 0.54752 0.0
C2033 C 0.21188 0.92745 0.54537 0.0
C2034 C 0.14045 0.98561 0.52621 0.0
C2035 C 0.16702 0.95105 0.54157 0.0
C2036 C 0.11748 0.99616 0.52324 0.0
C2037 C 0.09764 0.98527 0.53359 0.0
C2038 C 0.1434 0.96377 0.53919 0.0
C2039 C 0.10157 0.96394 0.54704 0.0
C2040 C 0.16823 0.92516 0.54586 0.0
C2041 C 0.20996 0.95336 0.5414 0.0
N2042 N 0.12394 0.95372 0.54925 0.0
N2043 N 0.18785 0.96434 0.53942 0.0
H2044 H 0.33729 0.96128 0.74499 0.0
H2045 H 0.34483 0.81408 0.77117 0.0
H2046 H 0.40246 0.91733 0.74219 0.0
H2047 H 0.27894 0.85673 0.77519 0.0
H2048 H 0.36608 0.85216 0.76084 0.0
H2049 H 0.31506 0.92329 0.75505 0.0
C2050 C 0.34683 0.94358 0.74618 0.0
C2051 C 0.37173 0.9424 0.74279 0.0
C2052 C 0.347 0.85328 0.76408 0.0
C2053 C 0.34661 0.89912 0.75461 0.0
C2054 C 0.33487 0.83153 0.77011 0.0
C2055 C 0.31005 0.83222 0.77402 0.0
C2056 C 0.33426 0.87595 0.76184 0.0
C2057 C 0.2981 0.85538 0.77239 0.0
C2058 C 0.33419 0.92197 0.75209 0.0
C2059 C 0.38327 0.91907 0.74469 0.0
N2060 N 0.3103 0.87635 0.76629 0.0
N2061 N 0.37064 0.8984 0.75057 0.0
H2062 H 0.34465 0.09014 0.98618 0.0
H2063 H 0.4392 0.01045 0.04788 0.0
H2064 H 0.32099 0.02579 0.02362 0.0
H2065 H 0.4509 0.02513 0.97804 0.0
H2066 H 0.39628 0.02043 0.04149 0.0
H2067 H 0.38462 0.07066 0.98359 0.0
C2068 C 0.34771 0.07168 0.99335 0.0
C2069 C 0.3297 0.05958 0.00528 0.0
C2070 C 0.40826 0.02113 0.02755 0.0
C2071 C 0.37506 0.03786 0.00296 0.0
C2072 C 0.43263 0.01567 0.03121 0.0
C2073 C 0.44836 0.01708 0.01344 0.0
C2074 C 0.39991 0.02882 0.00619 0.0
C2075 C 0.43914 0.02381 0.99209 0.0
C2076 C 0.3704 0.06063 0.99185 0.0
C2077 C 0.33447 0.03573 0.01432 0.0
N2078 N 0.41546 0.03 0.9891 0.0
N2079 N 0.35697 0.0259 0.01352 0.0
H2080 H 0.72377 0.55727 0.73672 0.0
H2081 H 0.71658 0.68177 0.80751 0.0
H2082 H 0.65659 0.58483 0.76156 0.0
H2083 H 0.77 0.67269 0.75727 0.0
H2084 H 0.69584 0.64413 0.79325 0.0
H2085 H 0.74265 0.5979 0.74579 0.0
C2086 C 0.71294 0.57198 0.74379 0.0
C2087 C 0.68865 0.56774 0.7485 0.0
C2088 C 0.71203 0.65049 0.78528 0.0
C2089 C 0.71014 0.61374 0.75928 0.0
C2090 C 0.72394 0.67182 0.7935 0.0
C2091 C 0.74505 0.68023 0.78359 0.0
C2092 C 0.72157 0.63725 0.76733 0.0
C2093 C 0.75374 0.66679 0.76536 0.0
C2094 C 0.7237 0.59509 0.74894 0.0
C2095 C 0.67539 0.58736 0.75767 0.0
N2096 N 0.74209 0.64575 0.75794 0.0
N2097 N 0.68641 0.60942 0.76308 0.0
H2098 H 0.86083 0.4154 0.07682 0.0
H2099 H 0.93325 0.5174 0.0072 0.0
H2100 H 0.82487 0.46355 0.02803 0.0
H2101 H 0.96442 0.45011 0.03632 0.0
H2102 H 0.89337 0.50359 0.01948 0.0
H2103 H 0.89923 0.43524 0.06841 0.0
C2104 C 0.86094 0.43052 0.06467 0.0
C2105 C 0.83971 0.43764 0.0529 0.0
C2106 C 0.90903 0.49194 0.02308 0.0
C2107 C 0.88361 0.46013 0.04295 0.0
C2108 C 0.9317 0.49971 0.01599 0.0
C2109 C 0.95218 0.48483 0.02061 0.0
C2110 C 0.90705 0.46943 0.03517 0.0
C2111 C 0.94918 0.46216 0.03222 0.0
C2112 C 0.88289 0.44167 0.05972 0.0
C2113 C 0.8409 0.45739 0.03736 0.0
N2114 N 0.92712 0.45527 0.03919 0.0
N2115 N 0.86258 0.46782 0.03263 0.0
H2116 H 0.37525 0.07227 0.78394 0.0
H2117 H 0.30313 0.18464 0.72715 0.0
H2118 H 0.3592 0.07392 0.71272 0.0
H2119 H 0.29461 0.16339 0.79619 0.0
H2120 H 0.32506 0.14553 0.72112 0.0
H2121 H 0.34787 0.10756 0.78866 0.0
C2122 C 0.366 0.08013 0.76928 0.0
C2123 C 0.36957 0.07029 0.74789 0.0
C2124 C 0.31808 0.14929 0.73749 0.0
C2125 C 0.33825 0.11067 0.75317 0.0
C2126 C 0.30559 0.17158 0.74096 0.0
C2127 C 0.29716 0.1773 0.76224 0.0
C2128 C 0.32258 0.13289 0.75555 0.0
C2129 C 0.30079 0.1597 0.77952 0.0
C2130 C 0.35023 0.10013 0.77201 0.0
C2131 C 0.35696 0.08103 0.72949 0.0
N2132 N 0.31356 0.13845 0.77588 0.0
N2133 N 0.342 0.10086 0.73252 0.0
H2134 H 0.17858 0.94241 0.20641 0.0
H2135 H 0.26613 0.85626 0.28335 0.0
H2136 H 0.19756 0.95785 0.27575 0.0
H2137 H 0.23498 0.83176 0.21971 0.0
H2138 H 0.24622 0.89672 0.27809 0.0
H2139 H 0.20381 0.90463 0.20857 0.0
C2140 C 0.18815 0.93792 0.22203 0.0
C2141 C 0.18587 0.95315 0.24097 0.0
C2142 C 0.24387 0.88256 0.2652 0.0
C2143 C 0.21479 0.91022 0.24352 0.0
C2144 C 0.25533 0.85947 0.26813 0.0
C2145 C 0.25205 0.84048 0.25203 0.0
C2146 C 0.22905 0.8868 0.246 0.0
C2147 C 0.23789 0.8458 0.23263 0.0
C2148 C 0.20251 0.91637 0.22326 0.0
C2149 C 0.19868 0.94652 0.26078 0.0
N2150 N 0.22677 0.86842 0.23021 0.0
N2151 N 0.21255 0.92555 0.26154 0.0
H2152 H 0.48429 0.32808 0.42317 0.0
H2153 H 0.56373 0.44757 0.45594 0.0
H2154 H 0.52336 0.37111 0.37497 0.0
H2155 H 0.50769 0.4191 0.49766 0.0
H2156 H 0.55115 0.41745 0.42691 0.0
H2157 H 0.49264 0.36074 0.45105 0.0
C2158 C 0.49409 0.34474 0.41832 0.0
C2159 C 0.50332 0.34691 0.39687 0.0
C2160 C 0.54168 0.41779 0.44246 0.0
C2161 C 0.5136 0.38377 0.42872 0.0
C2162 C 0.54909 0.43467 0.45915 0.0
C2163 C 0.53675 0.43573 0.4792 0.0
C2164 C 0.52199 0.40178 0.44603 0.0
C2165 C 0.51768 0.41886 0.4824 0.0
C2166 C 0.49902 0.36325 0.43426 0.0
C2167 C 0.51593 0.36878 0.39137 0.0
N2168 N 0.51086 0.40255 0.46595 0.0
N2169 N 0.52111 0.38622 0.40737 0.0
H2170 H 0.47246 0.77043 0.21794 0.0
H2171 H 0.32802 0.75949 0.20431 0.0
H2172 H 0.4344 0.74479 0.15793 0.0
H2173 H 0.36479 0.78249 0.26589 0.0
H2174 H 0.36698 0.75556 0.1869 0.0
H2175 H 0.43356 0.77586 0.23577 0.0
C2176 C 0.45594 0.76584 0.20855 0.0
C2177 C 0.45671 0.75708 0.18641 0.0
C2178 C 0.36659 0.76156 0.2042 0.0
C2179 C 0.4121 0.76345 0.20665 0.0
C2180 C 0.34428 0.76391 0.21417 0.0
C2181 C 0.34303 0.77133 0.23667 0.0
C2182 C 0.38801 0.76663 0.21673 0.0
C2183 C 0.36482 0.77675 0.24851 0.0
C2184 C 0.43373 0.76901 0.21872 0.0
C2185 C 0.43472 0.75153 0.17503 0.0
N2186 N 0.3864 0.77421 0.23844 0.0
N2187 N 0.41339 0.75483 0.18524 0.0
H2188 H 0.05068 0.76098 0.95163 0.0
H2189 H 0.03053 0.6137 0.93783 0.0
H2190 H 0.0432 0.7237 0.88761 0.0
H2191 H 0.02338 0.65476 -0.00046 0.0
H2192 H 0.04422 0.65217 0.91986 0.0
H2193 H 0.05252 0.72012 0.97006 0.0
C2194 C 0.0502 0.7442 0.9414 0.0
C2195 C 0.04608 0.74565 0.91814 0.0
C2196 C 0.03978 0.65268 0.93737 0.0
C2197 C 0.04756 0.69903 0.93909 0.0
C2198 C 0.03162 0.63085 0.94755 0.0
C2199 C 0.02545 0.63112 0.97014 0.0
C2200 C 0.04183 0.67491 0.94989 0.0
C2201 C 0.02796 0.65368 0.9821 0.0
C2202 C 0.05099 0.72088 0.95195 0.0
C2203 C 0.04589 0.72336 0.90566 0.0
N2204 N 0.03584 0.6747 0.97179 0.0
N2205 N 0.04601 0.70087 0.91634 0.0
H2206 H 0.11085 0.26877 0.65933 0.0
H2207 H 0.18507 0.23269 0.77274 0.0
H2208 H 0.07715 0.24022 0.71821 0.0
H2209 H 0.21829 0.25792 0.71238 0.0
H2210 H 0.14546 0.23488 0.75319 0.0
H2211 H 0.15033 0.26492 0.67868 0.0
C2212 C 0.11175 0.26173 0.67636 0.0
C2213 C 0.09064 0.25485 0.68717 0.0
C2214 C 0.16143 0.23984 0.74421 0.0
C2215 C 0.13591 0.2503 0.70949 0.0
C2216 C 0.18408 0.23854 0.75535 0.0
C2217 C 0.2051 0.24514 0.74423 0.0
C2218 C 0.15972 0.24788 0.72177 0.0
C2219 C 0.20263 0.25264 0.72168 0.0
C2220 C 0.13433 0.25948 0.6874 0.0
C2221 C 0.09294 0.24578 0.70924 0.0
N2222 N 0.18042 0.25387 0.71127 0.0
N2223 N 0.11514 0.24379 0.71967 0.0
H2224 H 0.5302 0.70446 0.08418 0.0
H2225 H 0.53189 0.55425 0.08899 0.0
H2226 H 0.52475 0.66172 0.14521 0.0
H2227 H 0.54072 0.59652 0.02809 0.0
H2228 H 0.53026 0.59346 0.10984 0.0
H2229 H 0.53462 0.66532 0.06339 0.0
C2230 C 0.52991 0.68682 0.09321 0.0
C2231 C 0.52703 0.68635 0.11647 0.0
C2232 C 0.53268 0.59422 0.09194 0.0
C2233 C 0.53216 0.64142 0.09275 0.0
C2234 C 0.53366 0.57179 0.07998 0.0
C2235 C 0.53639 0.57204 0.05668 0.0
C2236 C 0.53433 0.61721 0.08059 0.0
C2237 C 0.53861 0.5954 0.04601 0.0
C2238 C 0.53249 0.66448 0.08132 0.0
C2239 C 0.52687 0.66296 0.12729 0.0
N2240 N 0.5374 0.61704 0.05803 0.0
N2241 N 0.52935 0.64145 0.11534 0.0
H2242 H 0.03428 0.83358 0.82323 0.0
H2243 H 0.14352 0.83623 0.7723 0.0
H2244 H 0.07292 0.85989 0.8827 0.0
H2245 H 0.17155 0.83525 0.84072 0.0
H2246 H 0.10473 0.85071 0.78553 0.0
H2247 H 0.07037 0.84017 0.80194 0.0
C2248 C 0.05014 0.84166 0.83162 0.0
C2249 C 0.05087 0.84559 0.85485 0.0
C2250 C 0.11935 0.84736 0.79765 0.0
C2251 C 0.09237 0.85328 0.83064 0.0
C2252 C 0.14155 0.83913 0.79009 0.0
C2253 C 0.16069 0.8339 0.80546 0.0
C2254 C 0.11627 0.85013 0.82077 0.0
C2255 C 0.15739 0.8389 0.8282 0.0
C2256 C 0.07086 0.84549 0.81942 0.0
C2257 C 0.07179 0.85611 0.86489 0.0
N2258 N 0.13554 0.8464 0.83515 0.0
N2259 N 0.09189 0.85903 0.85283 0.0
H2260 H 0.00021 0.30952 0.58737 0.0
H2261 H 0.01521 0.45928 0.59122 0.0
H2262 H 0.02552 0.35049 0.64593 0.0
H2263 H 0.9934 0.41864 0.53133 0.0
H2264 H 0.01669 0.41979 0.61193 0.0
H2265 H 0.99556 0.34925 0.56703 0.0
C2266 C 0.00475 0.32688 0.59597 0.0
C2267 C 0.01333 0.32666 0.61839 0.0
C2268 C 0.01147 0.41947 0.59429 0.0
C2269 C 0.00801 0.37229 0.59517 0.0
C2270 C 0.01055 0.44207 0.58242 0.0
C2271 C 0.00422 0.44236 0.55942 0.0
C2272 C 0.00605 0.39681 0.58317 0.0
C2273 C -0.00162 0.41938 0.54901 0.0
C2274 C 0.00208 0.34958 0.58434 0.0
C2275 C 0.0189 0.34975 0.62867 0.0
N2276 N -0.00047 0.39755 0.56093 0.0
N2277 N 0.01617 0.37158 0.61699 0.0
H2278 H 0.47451 0.2301 0.30709 0.0
H2279 H 0.3339 0.22059 0.32387 0.0
H2280 H 0.43739 0.25574 0.36509 0.0
H2281 H 0.36805 0.20783 0.26103 0.0
H2282 H 0.37334 0.21782 0.3432 0.0
H2283 H 0.43757 0.20833 0.29411 0.0
C2284 C 0.45864 0.23095 0.31716 0.0
C2285 C 0.45866 0.24529 0.3368 0.0
C2286 C 0.37212 0.215 0.32523 0.0
C2287 C 0.41673 0.22029 0.32235 0.0
C2288 C 0.34958 0.21644 0.3142 0.0
C2289 C 0.34793 0.2155 0.29075 0.0
C2290 C 0.39295 0.21283 0.31262 0.0
C2291 C 0.36871 0.20955 0.27911 0.0
C2292 C 0.43767 0.21841 0.30985 0.0
C2293 C 0.43788 0.24541 0.34951 0.0
N2294 N 0.39054 0.20911 0.29012 0.0
N2295 N 0.41764 0.23337 0.34191 0.0
H2296 H 0.40811 0.52414 0.37948 0.0
H2297 H 0.538 0.53187 0.44171 0.0
H2298 H 0.47501 0.52679 0.34465 0.0
H2299 H 0.47058 0.52952 0.47581 0.0
H2300 H 0.51531 0.53564 0.40597 0.0
H2301 H 0.4307 0.53073 0.41484 0.0
C2302 C 0.42757 0.52617 0.37928 0.0
C2303 C 0.43975 0.52467 0.35916 0.0
C2304 C 0.5055 0.53466 0.42131 0.0
C2305 C 0.46576 0.53228 0.39956 0.0
C2306 C 0.51845 0.53267 0.44174 0.0
C2307 C 0.50616 0.53006 0.46176 0.0
C2308 C 0.48012 0.53397 0.42094 0.0
C2309 C 0.48082 0.53121 0.46078 0.0
C2310 C 0.44047 0.53002 0.39947 0.0
C2311 C 0.46495 0.52764 0.35983 0.0
N2312 N 0.46865 0.53277 0.4407 0.0
N2313 N 0.47716 0.53114 0.37974 0.0
H2314 H 0.26345 0.69428 0.04018 0.0
H2315 H 0.24684 0.67678 0.17111 0.0
H2316 H 0.25958 0.62205 0.0727 0.0
H2317 H 0.23524 0.74759 0.13711 0.0
H2318 H 0.25047 0.65638 0.13502 0.0
H2319 H 0.25323 0.71443 0.07544 0.0
C2320 C 0.26048 0.68269 0.05475 0.0
C2321 C 0.26251 0.65651 0.05362 0.0
C2322 C 0.24688 0.67634 0.13542 0.0
C2323 C 0.25075 0.67931 0.09383 0.0
C2324 C 0.24454 0.68801 0.15607 0.0
C2325 C 0.24084 0.71403 0.15724 0.0
C2326 C 0.24579 0.69078 0.11574 0.0
C2327 C 0.23856 0.72758 0.13707 0.0
C2328 C 0.25451 0.69417 0.07481 0.0
C2329 C 0.25831 0.64232 0.07289 0.0
N2330 N 0.24133 0.71584 0.11715 0.0
N2331 N 0.25275 0.65392 0.09223 0.0
H2332 H 0.1028 0.45263 0.85013 0.0
H2333 H 0.01887 0.52355 0.93526 0.0
H2334 H 0.09863 0.53305 0.85729 0.0
H2335 H 0.05166 0.45221 0.95216 0.0
H2336 H 0.03723 0.52194 0.89884 0.0
H2337 H 0.07448 0.44791 0.88082 0.0
C2338 C 0.09572 0.46922 0.85802 0.0
C2339 C 0.10316 0.49325 0.85146 0.0
C2340 C 0.04004 0.50644 0.9104 0.0
C2341 C 0.07062 0.48803 0.88572 0.0
C2342 C 0.02949 0.50725 0.93116 0.0
C2343 C 0.03419 0.48823 0.94699 0.0
C2344 C 0.05527 0.48643 0.90534 0.0
C2345 C 0.04784 0.46743 0.94056 0.0
C2346 C 0.07966 0.46652 0.87542 0.0
C2347 C 0.09355 0.5142 0.86208 0.0
N2348 N 0.05826 0.46723 0.92026 0.0
N2349 N 0.07772 0.5111 0.87865 0.0
H2350 H 0.2946 0.3733 0.56538 0.0
H2351 H 0.25512 0.28456 0.66545 0.0
H2352 H 0.22745 0.33201 0.56632 0.0
H2353 H 0.32276 0.32508 0.66709 0.0
H2354 H 0.24439 0.30368 0.62965 0.0
H2355 H 0.30482 0.35799 0.60322 0.0
C2356 C 0.28195 0.36115 0.57363 0.0
C2357 C 0.26021 0.35375 0.56274 0.0
C2358 C 0.26163 0.30844 0.6377 0.0
C2359 C 0.27177 0.33622 0.60576 0.0
C2360 C 0.26786 0.29734 0.65808 0.0
C2361 C 0.29011 0.30285 0.66895 0.0
C2362 C 0.27772 0.32525 0.62798 0.0
C2363 C 0.30553 0.32022 0.65907 0.0
C2364 C 0.28781 0.35243 0.59517 0.0
C2365 C 0.24444 0.33806 0.57409 0.0
N2366 N 0.29912 0.33073 0.63896 0.0
N2367 N 0.2506 0.32974 0.59495 0.0
H2368 H 0.4012 0.48395 0.22214 0.0
H2369 H 0.51087 0.51042 0.1435 0.0
H2370 H 0.46588 0.52288 0.24513 0.0
H2371 H 0.46108 0.4488 0.13163 0.0
H2372 H 0.49282 0.51794 0.17931 0.0
H2373 H 0.42056 0.47432 0.18697 0.0
C2374 C 0.41942 0.49062 0.21971 0.0
C2375 C 0.43198 0.50431 0.2365 0.0
C2376 C 0.48599 0.50264 0.16895 0.0
C2377 C 0.45414 0.49333 0.19643 0.0
C2378 C 0.49645 0.4981 0.14851 0.0
C2379 C 0.4877 0.47871 0.13441 0.0
C2380 C 0.4663 0.48805 0.17531 0.0
C2381 C 0.46831 0.46411 0.14172 0.0
C2382 C 0.43049 0.48495 0.19973 0.0
C2383 C 0.45559 0.51231 0.23258 0.0
N2384 N 0.45815 0.46919 0.1616 0.0
N2385 N 0.46589 0.50681 0.21288 0.0
H2386 H 0.24357 0.66757 0.93228 0.0
H2387 H 0.3204 0.73494 0.84264 0.0
H2388 H 0.32012 0.67835 0.94469 0.0
H2389 H 0.24645 0.75563 0.85364 0.0
H2390 H 0.32172 0.71292 0.87875 0.0
H2391 H 0.24471 0.69769 0.90149 0.0
C2392 C 0.26064 0.6763 0.92848 0.0
C2393 C 0.28182 0.67042 0.9409 0.0
C2394 C 0.3054 0.72272 0.8734 0.0
C2395 C 0.28327 0.70474 0.90565 0.0
C2396 C 0.30461 0.73527 0.85284 0.0
C2397 C 0.2832 0.74695 0.84505 0.0
C2398 C 0.28448 0.7214 0.88592 0.0
C2399 C 0.2633 0.74684 0.85894 0.0
C2400 C 0.26123 0.69363 0.91105 0.0
C2401 C 0.30342 0.68242 0.93544 0.0
N2402 N 0.26427 0.73381 0.87851 0.0
N2403 N 0.30369 0.69881 0.91794 0.0
H2404 H 0.08071 0.51874 0.75197 0.0
H2405 H 0.0973 0.53817 0.62121 0.0
H2406 H 0.14999 0.51906 0.72109 0.0
H2407 H 0.0303 0.55363 0.65337 0.0
H2408 H 0.11692 0.53185 0.65779 0.0
H2409 H 0.06153 0.53077 0.71595 0.0
C2410 C 0.09184 0.52122 0.73758 0.0
C2411 C 0.11692 0.51779 0.73942 0.0
C2412 C 0.09799 0.53689 0.65689 0.0
C2413 C 0.09524 0.5317 0.69838 0.0
C2414 C 0.08678 0.54081 0.63595 0.0
C2415 C 0.06201 0.54637 0.63412 0.0
C2416 C 0.08434 0.53824 0.67619 0.0
C2417 C 0.04931 0.54893 0.65393 0.0
C2418 C 0.08093 0.52826 0.7171 0.0
C2419 C 0.13056 0.52143 0.72035 0.0
N2420 N 0.06056 0.54458 0.67415 0.0
N2421 N 0.11953 0.52811 0.70061 0.0
H2422 H 0.24091 0.28645 0.47178 0.0
H2423 H 0.19157 0.27774 0.34739 0.0
H2424 H 0.18961 0.33757 0.44054 0.0
H2425 H 0.24843 0.23173 0.37669 0.0
H2426 H 0.17954 0.28914 0.38498 0.0
H2427 H 0.23253 0.25647 0.44157 0.0
C2428 C 0.22749 0.29112 0.45881 0.0
C2429 C 0.21656 0.31482 0.45814 0.0
C2430 C 0.19425 0.27602 0.3832 0.0
C2431 C 0.20711 0.28087 0.42353 0.0
C2432 C 0.20116 0.26959 0.36175 0.0
C2433 C 0.22153 0.25449 0.35898 0.0
C2434 C 0.20809 0.26758 0.40187 0.0
C2435 C 0.23284 0.24377 0.37807 0.0
C2436 C 0.22268 0.274 0.44158 0.0
C2437 C 0.19894 0.31975 0.44129 0.0
N2438 N 0.22635 0.25105 0.39875 0.0
N2439 N 0.19516 0.30313 0.42433 0.0
H2440 H 0.30172 0.43623 0.46846 0.0
H2441 H 0.41889 0.42325 0.5444 0.0
H2442 H 0.32916 0.36411 0.49018 0.0
H2443 H 0.41282 0.48258 0.49507 0.0
H2444 H 0.38366 0.40287 0.52666 0.0
H2445 H 0.34112 0.45498 0.47825 0.0
C2446 C 0.31626 0.42423 0.47464 0.0
C2447 C 0.31217 0.39869 0.4788 0.0
C2448 C 0.39016 0.42033 0.51973 0.0
C2449 C 0.35665 0.42004 0.49069 0.0
C2450 C 0.41019 0.43204 0.52989 0.0
C2451 C 0.41893 0.4547 0.52126 0.0
C2452 C 0.3785 0.43154 0.50105 0.0
C2453 C 0.40652 0.46542 0.50264 0.0
C2454 C 0.33863 0.43495 0.48035 0.0
C2455 C 0.33154 0.38393 0.48684 0.0
N2456 N 0.38684 0.45379 0.49321 0.0
N2457 N 0.35283 0.39495 0.49307 0.0
H2458 H 0.84254 0.0825 0.45674 0.0
H2459 H 0.94109 0.01947 0.53991 0.0
H2460 H 0.8411 0.08718 0.5288 0.0
H2461 H 0.95767 0.04226 0.47275 0.0
H2462 H 0.90031 0.036 0.53395 0.0
H2463 H 0.88114 0.05978 0.46045 0.0
C2464 C 0.85023 0.07852 0.47329 0.0
C2465 C 0.8388 0.08681 0.4925 0.0
C2466 C 0.91285 0.03724 0.52048 0.0
C2467 C 0.88241 0.06082 0.49682 0.0
C2468 C 0.9361 0.02774 0.52383 0.0
C2469 C 0.95288 0.02972 0.50687 0.0
C2470 C 0.9062 0.04858 0.49996 0.0
C2471 C 0.94535 0.04058 0.48634 0.0
C2472 C 0.87221 0.0657 0.47539 0.0
C2473 C 0.84946 0.08128 0.51357 0.0
N2474 N 0.92252 0.04968 0.48346 0.0
N2475 N 0.87064 0.0686 0.51517 0.0
H2476 H 0.71702 0.05327 0.2654 0.0
H2477 H 0.7307 0.19877 0.28872 0.0
H2478 H 0.68286 0.09012 0.32018 0.0
H2479 H 0.78712 0.15714 0.25743 0.0
H2480 H 0.7103 0.15938 0.29694 0.0
H2481 H 0.7411 0.09124 0.25942 0.0
C2482 C 0.7148 0.06926 0.27632 0.0
C2483 C 0.69791 0.06865 0.29327 0.0
C2484 C 0.72717 0.15886 0.28832 0.0
C2485 C 0.72492 0.11208 0.28623 0.0
C2486 C 0.73873 0.18133 0.28343 0.0
C2487 C 0.76061 0.18122 0.27229 0.0
C2488 C 0.73731 0.13607 0.28172 0.0
C2489 C 0.77027 0.15803 0.26603 0.0
C2490 C 0.72853 0.09086 0.2729 0.0
C2491 C 0.69572 0.08982 0.30695 0.0
N2492 N 0.75843 0.13632 0.27069 0.0
N2493 N 0.70884 0.11082 0.30294 0.0
H2494 H 0.72507 0.98903 0.05007 0.0
H2495 H 0.59326 0.95425 0.01508 0.0
H2496 H 0.70047 0.9121 0.04676 0.0
H2497 H 0.60588 0.0201 0.05597 0.0
H2498 H 0.63423 0.94028 0.02435 0.0
H2499 H 0.68294 0.0027 0.05216 0.0
C2500 C 0.71088 0.97501 0.05039 0.0
C2501 C 0.71612 0.94945 0.04776 0.0
C2502 C 0.62799 0.95771 0.03141 0.0
C2503 C 0.66836 0.96491 0.04965 0.0
C2504 C 0.60477 0.96586 0.02589 0.0
C2505 C 0.59636 0.98845 0.03463 0.0
C2506 C 0.64312 0.97251 0.04537 0.0
C2507 C 0.61185 0.0026 0.04885 0.0
C2508 C 0.68692 0.98282 0.05155 0.0
C2509 C 0.69716 0.93202 0.04839 0.0
N2510 N 0.63476 0.99456 0.05358 0.0
N2511 N 0.67403 0.94011 0.04875 0.0
H2512 H 0.3417 0.44772 0.31613 0.0
H2513 H 0.35554 0.31791 0.25328 0.0
H2514 H 0.40898 0.42377 0.2889 0.0
H2515 H 0.30116 0.3296 0.30219 0.0
H2516 H 0.37432 0.35784 0.26441 0.0
H2517 H 0.32537 0.40536 0.31001 0.0
C2518 C 0.35311 0.43346 0.30913 0.0
C2519 C 0.37667 0.43922 0.30294 0.0
C2520 C 0.35837 0.35155 0.27281 0.0
C2521 C 0.35805 0.39108 0.29553 0.0
C2522 C 0.34759 0.32885 0.26638 0.0
C2523 C 0.32674 0.32049 0.27678 0.0
C2524 C 0.34798 0.36616 0.28947 0.0
C2525 C 0.31725 0.33535 0.29376 0.0
C2526 C 0.3438 0.40934 0.30565 0.0
C2527 C 0.39071 0.4201 0.29391 0.0
N2528 N 0.32781 0.3576 0.29943 0.0
N2529 N 0.38108 0.39695 0.29021 0.0
H2530 H 0.19134 0.61208 0.97751 0.0
H2531 H 0.11628 0.49307 0.01869 0.0
H2532 H 0.2263 0.54481 0.00241 0.0
H2533 H 0.0862 0.5661 0.0034 0.0
H2534 H 0.15655 0.50949 0.01041 0.0
H2535 H 0.15225 0.59275 0.98313 0.0
C2536 C 0.19076 0.59308 0.98397 0.0
C2537 C 0.21205 0.58008 0.98966 0.0
C2538 C 0.14107 0.52183 0.00895 0.0
C2539 C 0.16722 0.55786 -0.00347 0.0
C2540 C 0.11814 0.51253 0.01376 0.0
C2541 C 0.09784 0.52823 0.01175 0.0
C2542 C 0.14354 0.54689 0.00198 0.0
C2543 C 0.10127 0.55325 0.00519 0.0
C2544 C 0.16841 0.58207 0.9873 0.0
C2545 C 0.21024 0.55545 -0.00216 0.0
N2546 N 0.12359 0.56171 0.0005 0.0
N2547 N 0.18813 0.54514 0.00123 0.0
H2548 H 0.69291 0.94062 0.32862 0.0
H2549 H 0.76865 0.85443 0.24736 0.0
H2550 H 0.6945 0.95088 0.25701 0.0
H2551 H 0.74477 0.82789 0.31127 0.0
H2552 H 0.74854 0.89431 0.25372 0.0
H2553 H 0.71835 0.90317 0.32521 0.0
C2554 C 0.69873 0.93507 0.31223 0.0
C2555 C 0.69151 0.94871 0.29303 0.0
C2556 C 0.74785 0.87982 0.26642 0.0
C2557 C 0.72069 0.90636 0.2891 0.0
C2558 C 0.75943 0.85707 0.26288 0.0
C2559 C 0.75821 0.83768 0.27873 0.0
C2560 C 0.73509 0.88335 0.28604 0.0
C2561 C 0.74604 0.84228 0.29854 0.0
C2562 C 0.71316 0.91373 0.3103 0.0
C2563 C 0.69951 0.94077 0.2722 0.0
N2564 N 0.73483 0.86465 0.30161 0.0
N2565 N 0.71371 0.92016 0.2708 0.0
H2566 H 0.84736 0.04181 0.76705 0.0
H2567 H 0.81316 0.17193 0.82371 0.0
H2568 H 0.86786 0.06167 0.83515 0.0
H2569 H 0.78805 0.15001 0.75728 0.0
H2570 H 0.83038 0.13019 0.8293 0.0
H2571 H 0.82273 0.07977 0.76416 0.0
C2572 C 0.84648 0.05405 0.78147 0.0
C2573 C 0.85981 0.04871 0.80131 0.0
C2574 C 0.82091 0.13441 0.81357 0.0
C2575 C 0.83182 0.09225 0.79809 0.0
C2576 C 0.81107 0.15826 0.81036 0.0
C2577 C 0.79934 0.16457 0.78991 0.0
C2578 C 0.81921 0.11674 0.79614 0.0
C2579 C 0.79704 0.14602 0.77328 0.0
C2580 C 0.83242 0.07572 0.77982 0.0
C2581 C 0.85796 0.06515 0.8195 0.0
N2582 N 0.80711 0.12303 0.77668 0.0
N2583 N 0.8444 0.08629 0.81738 0.0
loop_
_geom_bond_atom_site_label_1
_geom_bond_atom_site_label_2
_geom_bond_distance
_geom_bond_site_symmetry_2
_ccdc_geom_bond_type
In0 O1 2.294 . S
In0 O2 2.326 . S
In0 O6 2.266 . S
In0 O7 2.326 . S
In0 O8 2.266 . S
In0 O9 2.326 . S
In0 O11 2.294 . S
In0 O12 2.326 . S
O1 In0 2.294 . S
O1 C10 1.240 . S
O2 In0 2.326 . S
O2 C10 1.252 . S
C3 O6 1.252 . S
C3 O7 1.260 . S
C4 O11 1.240 . S
C4 O12 1.252 . S
C5 O8 1.252 . S
C5 O9 1.260 . S
O6 In0 2.266 . S
O6 C3 1.252 . S
O7 In0 2.326 . S
O7 C3 1.260 . S
O8 In0 2.266 . S
O8 C5 1.252 . S
O9 In0 2.326 . S
O9 C5 1.260 . S
C10 O1 1.240 . S
C10 O2 1.252 . S
O11 In0 2.294 . S
O11 C4 1.240 . S
O12 In0 2.326 . S
O12 C4 1.252 . S
In13 O14 2.294 . S
In13 O15 2.326 . S
In13 O19 2.266 . S
In13 O20 2.326 1_455 S
In13 O21 2.266 . S
In13 O22 2.326 . S
In13 O24 2.294 . S
In13 O25 2.326 . S
O14 In13 2.294 . S
O14 C23 1.240 . S
O15 In13 2.326 . S
O15 C23 1.252 . S
C16 O19 1.252 1_655 S
C16 O20 1.260 . S
C17 O24 1.240 . S
C17 O25 1.252 . S
C18 O21 1.252 . S
C18 O22 1.260 . S
O19 In13 2.266 . S
O19 C16 1.252 1_455 S
O20 In13 2.326 1_655 S
O20 C16 1.260 . S
O21 In13 2.266 . S
O21 C18 1.252 . S
O22 In13 2.326 . S
O22 C18 1.260 . S
C23 O14 1.240 . S
C23 O15 1.252 . S
O24 In13 2.294 . S
O24 C17 1.240 . S
O25 In13 2.326 . S
O25 C17 1.252 . S
In26 O27 2.294 . S
In26 O28 2.326 . S
In26 O32 2.266 . S
In26 O33 2.326 . S
In26 O34 2.266 . S
In26 O35 2.326 . S
In26 O37 2.294 . S
In26 O38 2.326 . S
O27 In26 2.294 . S
O27 C36 1.240 . S
O28 In26 2.326 . S
O28 C36 1.252 . S
C29 O32 1.252 . S
C29 O33 1.260 . S
C30 O37 1.240 . S
C30 O38 1.252 . S
C31 O34 1.252 . S
C31 O35 1.260 . S
O32 In26 2.266 . S
O32 C29 1.252 . S
O33 In26 2.326 . S
O33 C29 1.260 . S
O34 In26 2.266 . S
O34 C31 1.252 . S
O35 In26 2.326 . S
O35 C31 1.260 . S
C36 O27 1.240 . S
C36 O28 1.252 . S
O37 In26 2.294 . S
O37 C30 1.240 . S
O38 In26 2.326 . S
O38 C30 1.252 . S
In39 O40 2.294 . S
In39 O41 2.326 . S
In39 O45 2.266 . S
In39 O46 2.326 . S
In39 O47 2.266 . S
In39 O48 2.326 . S
In39 O50 2.294 . S
In39 O51 2.326 . S
O40 In39 2.294 . S
O40 C49 1.240 . S
O41 In39 2.326 . S
O41 C49 1.252 . S
C42 O45 1.252 . S
C42 O46 1.260 . S
C43 O50 1.240 . S
C43 O51 1.252 . S
C44 O47 1.252 . S
C44 O48 1.260 . S
O45 In39 2.266 . S
O45 C42 1.252 . S
O46 In39 2.326 . S
O46 C42 1.260 . S
O47 In39 2.266 . S
O47 C44 1.252 . S
O48 In39 2.326 . S
O48 C44 1.260 . S
C49 O40 1.240 . S
C49 O41 1.252 . S
O50 In39 2.294 . S
O50 C43 1.240 . S
O51 In39 2.326 . S
O51 C43 1.252 . S
In52 O53 2.294 1_545 S
In52 O54 2.326 1_545 S
In52 O58 2.266 . S
In52 O59 2.326 . S
In52 O60 2.266 . S
In52 O61 2.326 . S
In52 O63 2.294 . S
In52 O64 2.326 . S
O53 In52 2.294 1_565 S
O53 C62 1.240 . S
O54 In52 2.326 1_565 S
O54 C62 1.252 . S
C55 O58 1.252 . S
C55 O59 1.260 . S
C56 O63 1.240 . S
C56 O64 1.252 . S
C57 O60 1.252 . S
C57 O61 1.260 . S
O58 In52 2.266 . S
O58 C55 1.252 . S
O59 In52 2.326 . S
O59 C55 1.260 . S
O60 In52 2.266 . S
O60 C57 1.252 . S
O61 In52 2.326 . S
O61 C57 1.260 . S
C62 O53 1.240 . S
C62 O54 1.252 . S
O63 In52 2.294 . S
O63 C56 1.240 . S
O64 In52 2.326 . S
O64 C56 1.252 . S
In65 O66 2.294 . S
In65 O67 2.326 . S
In65 O71 2.266 . S
In65 O72 2.326 . S
In65 O73 2.266 . S
In65 O74 2.326 . S
In65 O76 2.294 . S
In65 O77 2.326 . S
O66 In65 2.294 . S
O66 C75 1.240 . S
O67 In65 2.326 . S
O67 C75 1.252 . S
C68 O71 1.252 . S
C68 O72 1.260 . S
C69 O76 1.240 . S
C69 O77 1.252 . S
C70 O73 1.252 . S
C70 O74 1.260 . S
O71 In65 2.266 . S
O71 C68 1.252 . S
O72 In65 2.326 . S
O72 C68 1.260 . S
O73 In65 2.266 . S
O73 C70 1.252 . S
O74 In65 2.326 . S
O74 C70 1.260 . S
C75 O66 1.240 . S
C75 O67 1.252 . S
O76 In65 2.294 . S
O76 C69 1.240 . S
O77 In65 2.326 . S
O77 C69 1.252 . S
In78 O79 2.294 . S
In78 O80 2.326 . S
In78 O84 2.266 1_545 S
In78 O85 2.326 1_545 S
In78 O86 2.266 . S
In78 O87 2.326 . S
In78 O89 2.294 . S
In78 O90 2.326 . S
O79 In78 2.294 . S
O79 C88 1.240 . S
O80 In78 2.326 . S
O80 C88 1.252 . S
C81 O84 1.252 . S
C81 O85 1.260 . S
C82 O89 1.240 . S
C82 O90 1.252 . S
C83 O86 1.252 . S
C83 O87 1.260 . S
O84 In78 2.266 1_565 S
O84 C81 1.252 . S
O85 In78 2.326 1_565 S
O85 C81 1.260 . S
O86 In78 2.266 . S
O86 C83 1.252 . S
O87 In78 2.326 . S
O87 C83 1.260 . S
C88 O79 1.240 . S
C88 O80 1.252 . S
O89 In78 2.294 . S
O89 C82 1.240 . S
O90 In78 2.326 . S
O90 C82 1.252 . S
In91 O92 2.294 . S
In91 O93 2.326 . S
In91 O97 2.266 . S
In91 O98 2.326 . S
In91 O99 2.266 . S
In91 O100 2.326 1_554 S
In91 O102 2.294 . S
In91 O103 2.326 . S
O92 In91 2.294 . S
O92 C101 1.240 . S
O93 In91 2.326 . S
O93 C101 1.252 . S
C94 O97 1.252 . S
C94 O98 1.260 . S
C95 O102 1.240 . S
C95 O103 1.252 . S
C96 O99 1.252 1_556 S
C96 O100 1.260 . S
O97 In91 2.266 . S
O97 C94 1.252 . S
O98 In91 2.326 . S
O98 C94 1.260 . S
O99 In91 2.266 . S
O99 C96 1.252 1_554 S
O100 In91 2.326 1_556 S
O100 C96 1.260 . S
C101 O92 1.240 . S
C101 O93 1.252 . S
O102 In91 2.294 . S
O102 C95 1.240 . S
O103 In91 2.326 . S
O103 C95 1.252 . S
In104 O105 2.294 . S
In104 O106 2.326 . S
In104 O110 2.266 . S
In104 O111 2.326 . S
In104 O112 2.266 . S
In104 O113 2.326 . S
In104 O115 2.294 . S
In104 O116 2.326 . S
O105 In104 2.294 . S
O105 C114 1.240 . S
O106 In104 2.326 . S
O106 C114 1.252 . S
C107 O110 1.252 . S
C107 O111 1.260 . S
C108 O115 1.240 . S
C108 O116 1.252 . S
C109 O112 1.252 . S
C109 O113 1.260 . S
O110 In104 2.266 . S
O110 C107 1.252 . S
O111 In104 2.326 . S
O111 C107 1.260 . S
O112 In104 2.266 . S
O112 C109 1.252 . S
O113 In104 2.326 . S
O113 C109 1.260 . S
C114 O105 1.240 . S
C114 O106 1.252 . S
O115 In104 2.294 . S
O115 C108 1.240 . S
O116 In104 2.326 . S
O116 C108 1.252 . S
In117 O118 2.294 . S
In117 O119 2.326 . S
In117 O123 2.266 . S
In117 O124 2.326 . S
In117 O125 2.266 . S
In117 O126 2.326 . S
In117 O128 2.294 . S
In117 O129 2.326 . S
O118 In117 2.294 . S
O118 C127 1.240 . S
O119 In117 2.326 . S
O119 C127 1.252 . S
C120 O123 1.252 . S
C120 O124 1.260 . S
C121 O128 1.240 . S
C121 O129 1.252 . S
C122 O125 1.252 . S
C122 O126 1.260 . S
O123 In117 2.266 . S
O123 C120 1.252 . S
O124 In117 2.326 . S
O124 C120 1.260 . S
O125 In117 2.266 . S
O125 C122 1.252 . S
O126 In117 2.326 . S
O126 C122 1.260 . S
C127 O118 1.240 . S
C127 O119 1.252 . S
O128 In117 2.294 . S
O128 C121 1.240 . S
O129 In117 2.326 . S
O129 C121 1.252 . S
In130 O131 2.294 . S
In130 O132 2.326 . S
In130 O136 2.266 . S
In130 O137 2.326 . S
In130 O138 2.266 . S
In130 O139 2.326 . S
In130 O141 2.294 . S
In130 O142 2.326 . S
O131 In130 2.294 . S
O131 C140 1.240 . S
O132 In130 2.326 . S
O132 C140 1.252 . S
C133 O136 1.252 . S
C133 O137 1.260 . S
C134 O141 1.240 . S
C134 O142 1.252 . S
C135 O138 1.252 . S
C135 O139 1.260 . S
O136 In130 2.266 . S
O136 C133 1.252 . S
O137 In130 2.326 . S
O137 C133 1.260 . S
O138 In130 2.266 . S
O138 C135 1.252 . S
O139 In130 2.326 . S
O139 C135 1.260 . S
C140 O131 1.240 . S
C140 O132 1.252 . S
O141 In130 2.294 . S
O141 C134 1.240 . S
O142 In130 2.326 . S
O142 C134 1.252 . S
In143 O144 2.294 . S
In143 O145 2.326 . S
In143 O149 2.266 . S
In143 O150 2.326 . S
In143 O151 2.266 . S
In143 O152 2.326 . S
In143 O154 2.294 . S
In143 O155 2.326 . S
O144 In143 2.294 . S
O144 C153 1.240 . S
O145 In143 2.326 . S
O145 C153 1.252 . S
C146 O149 1.252 . S
C146 O150 1.260 . S
C147 O154 1.240 . S
C147 O155 1.252 . S
C148 O151 1.252 . S
C148 O152 1.260 . S
O149 In143 2.266 . S
O149 C146 1.252 . S
O150 In143 2.326 . S
O150 C146 1.260 . S
O151 In143 2.266 . S
O151 C148 1.252 . S
O152 In143 2.326 . S
O152 C148 1.260 . S
C153 O144 1.240 . S
C153 O145 1.252 . S
O154 In143 2.294 . S
O154 C147 1.240 . S
O155 In143 2.326 . S
O155 C147 1.252 . S
In156 O157 2.296 . S
In156 O158 2.330 . S
In156 O162 2.264 1_455 S
In156 O163 2.322 1_455 S
In156 O164 2.266 1_455 S
In156 O165 2.325 1_455 S
In156 O167 2.294 . S
In156 O168 2.327 . S
O157 In156 2.296 . S
O157 C166 1.240 . S
O158 In156 2.330 . S
O158 C166 1.252 . S
C159 O162 1.252 . S
C159 O163 1.260 . S
C160 O167 1.240 . S
C160 O168 1.252 . S
C161 O164 1.252 . S
C161 O165 1.260 . S
O162 In156 2.264 1_655 S
O162 C159 1.252 . S
O163 In156 2.322 1_655 S
O163 C159 1.260 . S
O164 In156 2.266 1_655 S
O164 C161 1.252 . S
O165 In156 2.325 1_655 S
O165 C161 1.260 . S
C166 O157 1.240 . S
C166 O158 1.252 . S
O167 In156 2.294 . S
O167 C160 1.240 . S
O168 In156 2.327 . S
O168 C160 1.252 . S
In169 O170 2.294 . S
In169 O171 2.326 . S
In169 O175 2.266 . S
In169 O176 2.326 . S
In169 O177 2.266 . S
In169 O178 2.326 1_455 S
In169 O180 2.294 . S
In169 O181 2.326 . S
O170 In169 2.294 . S
O170 C179 1.240 . S
O171 In169 2.326 . S
O171 C179 1.252 . S
C172 O175 1.252 . S
C172 O176 1.260 . S
C173 O180 1.240 . S
C173 O181 1.252 . S
C174 O177 1.252 1_655 S
C174 O178 1.260 . S
O175 In169 2.266 . S
O175 C172 1.252 . S
O176 In169 2.326 . S
O176 C172 1.260 . S
O177 In169 2.266 . S
O177 C174 1.252 1_455 S
O178 In169 2.326 1_655 S
O178 C174 1.260 . S
C179 O170 1.240 . S
C179 O171 1.252 . S
O180 In169 2.294 . S
O180 C173 1.240 . S
O181 In169 2.326 . S
O181 C173 1.252 . S
In182 O183 2.294 . S
In182 O184 2.326 . S
In182 O188 2.266 . S
In182 O189 2.326 . S
In182 O190 2.266 . S
In182 O191 2.326 . S
In182 O193 2.294 . S
In182 O194 2.326 . S
O183 In182 2.294 . S
O183 C192 1.240 . S
O184 In182 2.326 . S
O184 C192 1.252 . S
C185 O188 1.252 . S
C185 O189 1.260 . S
C186 O193 1.240 . S
C186 O194 1.252 . S
C187 O190 1.252 . S
C187 O191 1.260 . S
O188 In182 2.266 . S
O188 C185 1.252 . S
O189 In182 2.326 . S
O189 C185 1.260 . S
O190 In182 2.266 . S
O190 C187 1.252 . S
O191 In182 2.326 . S
O191 C187 1.260 . S
C192 O183 1.240 . S
C192 O184 1.252 . S
O193 In182 2.294 . S
O193 C186 1.240 . S
O194 In182 2.326 . S
O194 C186 1.252 . S
In195 O196 2.294 . S
In195 O197 2.326 . S
In195 O201 2.266 . S
In195 O202 2.326 . S
In195 O203 2.266 . S
In195 O204 2.326 . S
In195 O206 2.294 . S
In195 O207 2.326 . S
O196 In195 2.294 . S
O196 C205 1.240 . S
O197 In195 2.326 . S
O197 C205 1.252 . S
C198 O201 1.252 . S
C198 O202 1.260 . S
C199 O206 1.240 . S
C199 O207 1.252 . S
C200 O203 1.252 . S
C200 O204 1.260 . S
O201 In195 2.266 . S
O201 C198 1.252 . S
O202 In195 2.326 . S
O202 C198 1.260 . S
O203 In195 2.266 . S
O203 C200 1.252 . S
O204 In195 2.326 . S
O204 C200 1.260 . S
C205 O196 1.240 . S
C205 O197 1.252 . S
O206 In195 2.294 . S
O206 C199 1.240 . S
O207 In195 2.326 . S
O207 C199 1.252 . S
In208 O209 2.294 . S
In208 O210 2.326 . S
In208 O214 2.266 1_545 S
In208 O215 2.326 . S
In208 O216 2.266 1_545 S
In208 O217 2.326 1_545 S
In208 O219 2.294 . S
In208 O220 2.326 . S
O209 In208 2.294 . S
O209 C218 1.240 . S
O210 In208 2.326 . S
O210 C218 1.252 . S
C211 O214 1.252 . S
C211 O215 1.260 1_565 S
C212 O219 1.240 . S
C212 O220 1.252 . S
C213 O216 1.252 . S
C213 O217 1.260 . S
O214 In208 2.266 1_565 S
O214 C211 1.252 . S
O215 In208 2.326 . S
O215 C211 1.260 1_545 S
O216 In208 2.266 1_565 S
O216 C213 1.252 . S
O217 In208 2.326 1_565 S
O217 C213 1.260 . S
C218 O209 1.240 . S
C218 O210 1.252 . S
O219 In208 2.294 . S
O219 C212 1.240 . S
O220 In208 2.326 . S
O220 C212 1.252 . S
In221 O222 2.294 . S
In221 O223 2.326 . S
In221 O227 2.266 . S
In221 O228 2.326 . S
In221 O229 2.266 . S
In221 O230 2.326 . S
In221 O232 2.294 . S
In221 O233 2.326 . S
O222 In221 2.294 . S
O222 C231 1.240 . S
O223 In221 2.326 . S
O223 C231 1.252 . S
C224 O227 1.252 . S
C224 O228 1.260 . S
C225 O232 1.240 . S
C225 O233 1.252 . S
C226 O229 1.252 . S
C226 O230 1.260 . S
O227 In221 2.266 . S
O227 C224 1.252 . S
O228 In221 2.326 . S
O228 C224 1.260 . S
O229 In221 2.266 . S
O229 C226 1.252 . S
O230 In221 2.326 . S
O230 C226 1.260 . S
C231 O222 1.240 . S
C231 O223 1.252 . S
O232 In221 2.294 . S
O232 C225 1.240 . S
O233 In221 2.326 . S
O233 C225 1.252 . S
In234 O235 2.294 1_545 S
In234 O236 2.326 1_545 S
In234 O240 2.266 . S
In234 O241 2.326 . S
In234 O242 2.266 . S
In234 O243 2.326 . S
In234 O245 2.294 . S
In234 O246 2.326 . S
O235 In234 2.294 1_565 S
O235 C244 1.240 . S
O236 In234 2.326 1_565 S
O236 C244 1.252 . S
C237 O240 1.252 . S
C237 O241 1.260 . S
C238 O245 1.240 . S
C238 O246 1.252 . S
C239 O242 1.252 . S
C239 O243 1.260 . S
O240 In234 2.266 . S
O240 C237 1.252 . S
O241 In234 2.326 . S
O241 C237 1.260 . S
O242 In234 2.266 . S
O242 C239 1.252 . S
O243 In234 2.326 . S
O243 C239 1.260 . S
C244 O235 1.240 . S
C244 O236 1.252 . S
O245 In234 2.294 . S
O245 C238 1.240 . S
O246 In234 2.326 . S
O246 C238 1.252 . S
In247 O248 2.294 . S
In247 O249 2.326 . S
In247 O253 2.266 . S
In247 O254 2.326 . S
In247 O255 2.266 . S
In247 O256 2.326 1_554 S
In247 O258 2.294 . S
In247 O259 2.326 . S
O248 In247 2.294 . S
O248 C257 1.240 . S
O249 In247 2.326 . S
O249 C257 1.252 . S
C250 O253 1.252 . S
C250 O254 1.260 . S
C251 O258 1.240 . S
C251 O259 1.252 . S
C252 O255 1.252 1_556 S
C252 O256 1.260 . S
O253 In247 2.266 . S
O253 C250 1.252 . S
O254 In247 2.326 . S
O254 C250 1.260 . S
O255 In247 2.266 . S
O255 C252 1.252 1_554 S
O256 In247 2.326 1_556 S
O256 C252 1.260 . S
C257 O248 1.240 . S
C257 O249 1.252 . S
O258 In247 2.294 . S
O258 C251 1.240 . S
O259 In247 2.326 . S
O259 C251 1.252 . S
In260 O261 2.296 . S
In260 O262 2.330 . S
In260 O266 2.264 1_554 S
In260 O267 2.322 1_554 S
In260 O268 2.266 1_554 S
In260 O269 2.325 1_554 S
In260 O271 2.294 . S
In260 O272 2.326 . S
O261 In260 2.296 . S
O261 C270 1.240 . S
O262 In260 2.330 . S
O262 C270 1.252 . S
C263 O266 1.252 . S
C263 O267 1.260 . S
C264 O271 1.240 . S
C264 O272 1.252 . S
C265 O268 1.252 . S
C265 O269 1.260 . S
O266 In260 2.264 1_556 S
O266 C263 1.252 . S
O267 In260 2.322 1_556 S
O267 C263 1.260 . S
O268 In260 2.266 1_556 S
O268 C265 1.252 . S
O269 In260 2.325 1_556 S
O269 C265 1.260 . S
C270 O261 1.240 . S
C270 O262 1.252 . S
O271 In260 2.294 . S
O271 C264 1.240 . S
O272 In260 2.326 . S
O272 C264 1.252 . S
In273 O274 2.294 . S
In273 O275 2.326 . S
In273 O279 2.266 . S
In273 O280 2.326 . S
In273 O281 2.266 . S
In273 O282 2.326 . S
In273 O284 2.294 . S
In273 O285 2.326 . S
O274 In273 2.294 . S
O274 C283 1.240 . S
O275 In273 2.326 . S
O275 C283 1.252 . S
C276 O279 1.252 . S
C276 O280 1.260 . S
C277 O284 1.240 . S
C277 O285 1.252 . S
C278 O281 1.252 . S
C278 O282 1.260 . S
O279 In273 2.266 . S
O279 C276 1.252 . S
O280 In273 2.326 . S
O280 C276 1.260 . S
O281 In273 2.266 . S
O281 C278 1.252 . S
O282 In273 2.326 . S
O282 C278 1.260 . S
C283 O274 1.240 . S
C283 O275 1.252 . S
O284 In273 2.294 . S
O284 C277 1.240 . S
O285 In273 2.326 . S
O285 C277 1.252 . S
In286 O287 2.294 . S
In286 O288 2.326 . S
In286 O292 2.266 . S
In286 O293 2.326 . S
In286 O294 2.266 . S
In286 O295 2.326 . S
In286 O297 2.294 . S
In286 O298 2.326 . S
O287 In286 2.294 . S
O287 C296 1.240 . S
O288 In286 2.326 . S
O288 C296 1.252 . S
C289 O292 1.252 . S
C289 O293 1.260 . S
C290 O297 1.240 . S
C290 O298 1.252 . S
C291 O294 1.252 . S
C291 O295 1.260 . S
O292 In286 2.266 . S
O292 C289 1.252 . S
O293 In286 2.326 . S
O293 C289 1.260 . S
O294 In286 2.266 . S
O294 C291 1.252 . S
O295 In286 2.326 . S
O295 C291 1.260 . S
C296 O287 1.240 . S
C296 O288 1.252 . S
O297 In286 2.294 . S
O297 C290 1.240 . S
O298 In286 2.326 . S
O298 C290 1.252 . S
In299 O300 2.294 . S
In299 O301 2.326 . S
In299 O305 2.266 . S
In299 O306 2.326 . S
In299 O307 2.266 . S
In299 O308 2.326 . S
In299 O310 2.294 . S
In299 O311 2.326 . S
O300 In299 2.294 . S
O300 C309 1.240 . S
O301 In299 2.326 . S
O301 C309 1.252 . S
C302 O305 1.252 . S
C302 O306 1.260 . S
C303 O310 1.240 . S
C303 O311 1.252 . S
C304 O307 1.252 . S
C304 O308 1.260 . S
O305 In299 2.266 . S
O305 C302 1.252 . S
O306 In299 2.326 . S
O306 C302 1.260 . S
O307 In299 2.266 . S
O307 C304 1.252 . S
O308 In299 2.326 . S
O308 C304 1.260 . S
C309 O300 1.240 . S
C309 O301 1.252 . S
O310 In299 2.294 . S
O310 C303 1.240 . S
O311 In299 2.326 . S
O311 C303 1.252 . S
C312 O328 1.251 1_455 S
C312 O330 1.254 . S
N313 C314 1.333 1_565 S
N313 C318 1.307 . S
N313 Zn319 2.020 1_655 S
C314 N313 1.333 1_545 S
C314 C315 1.379 1_545 S
C314 H332 0.952 . S
C315 C314 1.379 1_565 S
C315 C316 1.390 . S
C315 H342 0.949 1_565 S
C316 C315 1.390 . S
C316 C317 1.357 . S
C317 C316 1.357 . S
C317 C318 1.370 . S
C317 H343 0.950 . S
C318 N313 1.307 . S
C318 C317 1.370 . S
C318 H336 0.948 . S
Zn319 N313 2.020 1_455 S
Zn319 O328 2.039 1_464 S
Zn319 O334 2.034 1_565 S
Zn319 O338 2.025 . S
Zn319 O340 2.024 . S
C320 O339 1.246 . S
C320 O340 1.249 . S
N321 C322 1.307 1_554 S
N321 C323 1.333 . S
N321 Zn327 2.020 . S
C322 N321 1.307 1_556 S
C322 C326 1.370 . S
C322 H333 0.948 . S
C323 N321 1.333 . S
C323 C324 1.379 . S
C323 H331 0.952 . S
C324 C323 1.379 . S
C324 C325 1.390 1_554 S
C324 H344 0.949 . S
C325 C324 1.390 1_556 S
C325 C326 1.357 . S
C326 C322 1.370 . S
C326 C325 1.357 . S
C326 H345 0.950 . S
Zn327 N321 2.020 . S
Zn327 O330 2.025 1_554 S
Zn327 O335 2.024 . S
Zn327 O337 2.039 . S
Zn327 O339 2.034 1_545 S
O328 C312 1.251 1_655 S
O328 Zn319 2.039 1_646 S
C329 O334 1.246 . S
C329 O335 1.249 . S
O330 C312 1.254 . S
O330 Zn327 2.025 1_556 S
H331 C323 0.952 . S
H332 C314 0.952 . S
H333 C322 0.948 . S
O334 Zn319 2.034 1_545 S
O334 C329 1.246 . S
O335 Zn327 2.024 . S
O335 C329 1.249 . S
H336 C318 0.948 . S
O337 Zn327 2.039 . S
O337 C341 1.251 1_545 S
O338 Zn319 2.025 . S
O338 C341 1.254 . S
O339 C320 1.246 . S
O339 Zn327 2.034 1_565 S
O340 Zn319 2.024 . S
O340 C320 1.249 . S
C341 O337 1.251 1_565 S
C341 O338 1.254 . S
H342 C315 0.949 1_545 S
H343 C317 0.950 . S
H344 C324 0.949 . S
H345 C326 0.950 . S
C346 O362 1.251 . S
C346 O364 1.254 . S
N347 C348 1.333 . S
N347 C352 1.307 . S
N347 Zn353 2.020 . S
C348 N347 1.333 . S
C348 C349 1.379 . S
C348 H366 0.952 . S
C349 C348 1.379 . S
C349 C350 1.390 . S
C349 H376 0.949 . S
C350 C349 1.390 . S
C350 C351 1.357 . S
C351 C350 1.357 . S
C351 C352 1.370 . S
C351 H377 0.950 . S
C352 N347 1.307 . S
C352 C351 1.370 . S
C352 H370 0.948 . S
Zn353 N347 2.020 . S
Zn353 O362 2.039 . S
Zn353 O368 2.034 . S
Zn353 O372 2.025 . S
Zn353 O374 2.024 . S
C354 O373 1.246 . S
C354 O374 1.249 . S
N355 C356 1.307 . S
N355 C357 1.333 . S
N355 Zn361 2.020 . S
C356 N355 1.307 . S
C356 C360 1.370 . S
C356 H367 0.948 . S
C357 N355 1.333 . S
C357 C358 1.379 . S
C357 H365 0.952 . S
C358 C357 1.379 . S
C358 C359 1.390 . S
C358 H378 0.949 . S
C359 C358 1.390 . S
C359 C360 1.357 . S
C360 C356 1.370 . S
C360 C359 1.357 . S
C360 H379 0.950 . S
Zn361 N355 2.020 . S
Zn361 O364 2.025 . S
Zn361 O369 2.024 . S
Zn361 O371 2.039 . S
Zn361 O373 2.034 . S
O362 C346 1.251 . S
O362 Zn353 2.039 . S
C363 O368 1.246 . S
C363 O369 1.249 . S
O364 C346 1.254 . S
O364 Zn361 2.025 . S
H365 C357 0.952 . S
H366 C348 0.952 . S
H367 C356 0.948 . S
O368 Zn353 2.034 . S
O368 C363 1.246 . S
O369 Zn361 2.024 . S
O369 C363 1.249 . S
H370 C352 0.948 . S
O371 Zn361 2.039 . S
O371 C375 1.251 . S
O372 Zn353 2.025 . S
O372 C375 1.254 . S
O373 C354 1.246 . S
O373 Zn361 2.034 . S
O374 Zn353 2.024 . S
O374 C354 1.249 . S
C375 O371 1.251 . S
C375 O372 1.254 . S
H376 C349 0.949 . S
H377 C351 0.950 . S
H378 C358 0.949 . S
H379 C360 0.950 . S
C380 O396 1.251 . S
C380 O398 1.254 . S
N381 C382 1.333 . S
N381 C386 1.307 . S
N381 Zn387 2.020 . S
C382 N381 1.333 . S
C382 C383 1.379 . S
C382 H400 0.952 . S
C383 C382 1.379 . S
C383 C384 1.390 . S
C383 H410 0.949 . S
C384 C383 1.390 . S
C384 C385 1.357 . S
C385 C384 1.357 . S
C385 C386 1.370 . S
C385 H411 0.950 . S
C386 N381 1.307 . S
C386 C385 1.370 . S
C386 H404 0.948 . S
Zn387 N381 2.020 . S
Zn387 O396 2.039 1_565 S
Zn387 O402 2.034 1_565 S
Zn387 O406 2.025 . S
Zn387 O408 2.024 . S
C388 O407 1.246 1_565 S
C388 O408 1.249 . S
N389 C390 1.307 . S
N389 C391 1.333 . S
N389 Zn395 2.020 . S
C390 N389 1.307 . S
C390 C394 1.370 . S
C390 H401 0.948 . S
C391 N389 1.333 . S
C391 C392 1.379 . S
C391 H399 0.952 . S
C392 C391 1.379 . S
C392 C393 1.390 . S
C392 H412 0.949 . S
C393 C392 1.390 . S
C393 C394 1.357 . S
C394 C390 1.370 . S
C394 C393 1.357 . S
C394 H413 0.950 . S
Zn395 N389 2.020 . S
Zn395 O398 2.025 . S
Zn395 O403 2.024 . S
Zn395 O405 2.039 . S
Zn395 O407 2.034 . S
O396 C380 1.251 . S
O396 Zn387 2.039 1_545 S
C397 O402 1.246 . S
C397 O403 1.249 . S
O398 C380 1.254 . S
O398 Zn395 2.025 . S
H399 C391 0.952 . S
H400 C382 0.952 . S
H401 C390 0.948 . S
O402 Zn387 2.034 1_545 S
O402 C397 1.246 . S
O403 Zn395 2.024 . S
O403 C397 1.249 . S
H404 C386 0.948 . S
O405 Zn395 2.039 . S
O405 C409 1.251 . S
O406 Zn387 2.025 . S
O406 C409 1.254 1_565 S
O407 C388 1.246 1_545 S
O407 Zn395 2.034 . S
O408 Zn387 2.024 . S
O408 C388 1.249 . S
C409 O405 1.251 . S
C409 O406 1.254 1_545 S
H410 C383 0.949 . S
H411 C385 0.950 . S
H412 C392 0.949 . S
H413 C394 0.950 . S
C414 O430 1.251 . S
C414 O432 1.254 . S
N415 C416 1.333 . S
N415 C420 1.307 . S
N415 Zn421 2.020 . S
C416 N415 1.333 . S
C416 C417 1.379 . S
C416 H434 0.952 . S
C417 C416 1.379 . S
C417 C418 1.390 . S
C417 H444 0.949 . S
C418 C417 1.390 . S
C418 C419 1.357 . S
C419 C418 1.357 . S
C419 C420 1.370 . S
C419 H445 0.950 . S
C420 N415 1.307 . S
C420 C419 1.370 . S
C420 H438 0.948 . S
Zn421 N415 2.020 . S
Zn421 O430 2.039 . S
Zn421 O436 2.034 . S
Zn421 O440 2.025 . S
Zn421 O442 2.024 . S
C422 O441 1.246 . S
C422 O442 1.249 . S
N423 C424 1.307 . S
N423 C425 1.333 . S
N423 Zn429 2.020 . S
C424 N423 1.307 . S
C424 C428 1.370 . S
C424 H435 0.948 . S
C425 N423 1.333 . S
C425 C426 1.379 . S
C425 H433 0.952 . S
C426 C425 1.379 . S
C426 C427 1.390 . S
C426 H446 0.949 . S
C427 C426 1.390 . S
C427 C428 1.357 . S
C428 C424 1.370 . S
C428 C427 1.357 . S
C428 H447 0.950 . S
Zn429 N423 2.020 . S
Zn429 O432 2.025 . S
Zn429 O437 2.024 . S
Zn429 O439 2.039 . S
Zn429 O441 2.034 . S
O430 C414 1.251 . S
O430 Zn421 2.039 . S
C431 O436 1.246 . S
C431 O437 1.249 . S
O432 C414 1.254 . S
O432 Zn429 2.025 . S
H433 C425 0.952 . S
H434 C416 0.952 . S
H435 C424 0.948 . S
O436 Zn421 2.034 . S
O436 C431 1.246 . S
O437 Zn429 2.024 . S
O437 C431 1.249 . S
H438 C420 0.948 . S
O439 Zn429 2.039 . S
O439 C443 1.251 . S
O440 Zn421 2.025 . S
O440 C443 1.254 . S
O441 C422 1.246 . S
O441 Zn429 2.034 . S
O442 Zn421 2.024 . S
O442 C422 1.249 . S
C443 O439 1.251 . S
C443 O440 1.254 . S
H444 C417 0.949 . S
H445 C419 0.950 . S
H446 C426 0.949 . S
H447 C428 0.950 . S
C448 O464 1.250 . S
C448 O466 1.254 1_545 S
N449 C450 1.333 . S
N449 C454 1.307 . S
N449 Zn455 2.020 . S
C450 N449 1.333 . S
C450 C451 1.379 . S
C450 H468 0.952 . S
C451 C450 1.379 . S
C451 C452 1.390 . S
C451 H478 0.949 . S
C452 C451 1.390 . S
C452 C453 1.357 . S
C453 C452 1.357 . S
C453 C454 1.370 . S
C453 H479 0.950 . S
C454 N449 1.307 . S
C454 C453 1.370 . S
C454 H472 0.948 . S
Zn455 N449 2.020 . S
Zn455 O464 2.039 . S
Zn455 O470 2.034 . S
Zn455 O474 2.018 1_455 S
Zn455 O476 2.024 1_545 S
C456 O475 1.246 . S
C456 O476 1.249 . S
N457 C458 1.307 . S
N457 C459 1.333 1_455 S
N457 Zn463 2.020 1_565 S
C458 N457 1.307 . S
C458 C462 1.370 . S
C458 H469 0.948 1_565 S
C459 N457 1.333 1_655 S
C459 C460 1.379 . S
C459 H467 0.952 . S
C460 C459 1.379 . S
C460 C461 1.390 . S
C460 H480 0.949 . S
C461 C460 1.390 . S
C461 C462 1.357 1_655 S
C462 C458 1.370 . S
C462 C461 1.357 1_455 S
C462 H481 0.950 . S
Zn463 N457 2.020 1_545 S
Zn463 O466 2.025 1_545 S
Zn463 O471 2.024 . S
Zn463 O473 2.039 1_455 S
Zn463 O475 2.034 1_545 S
O464 C448 1.250 . S
O464 Zn455 2.039 . S
C465 O470 1.246 . S
C465 O471 1.249 . S
O466 C448 1.254 1_565 S
O466 Zn463 2.025 1_565 S
H467 C459 0.952 . S
H468 C450 0.952 . S
H469 C458 0.948 1_545 S
O470 Zn455 2.034 . S
O470 C465 1.246 . S
O471 Zn463 2.024 . S
O471 C465 1.249 . S
H472 C454 0.948 . S
O473 Zn463 2.039 1_655 S
O473 C477 1.251 . S
O474 Zn455 2.018 1_655 S
O474 C477 1.259 . S
O475 C456 1.246 . S
O475 Zn463 2.034 1_565 S
O476 Zn455 2.024 1_565 S
O476 C456 1.249 . S
C477 O473 1.251 . S
C477 O474 1.259 . S
H478 C451 0.949 . S
H479 C453 0.950 . S
H480 C460 0.949 . S
H481 C462 0.950 . S
C482 O498 1.251 . S
C482 O500 1.254 . S
N483 C484 1.333 . S
N483 C488 1.307 . S
N483 Zn489 2.020 . S
C484 N483 1.333 . S
C484 C485 1.379 . S
C484 H502 0.952 . S
C485 C484 1.379 . S
C485 C486 1.390 . S
C485 H512 0.949 . S
C486 C485 1.390 . S
C486 C487 1.357 . S
C487 C486 1.357 . S
C487 C488 1.370 . S
C487 H513 0.950 . S
C488 N483 1.307 . S
C488 C487 1.370 . S
C488 H506 0.948 . S
Zn489 N483 2.020 . S
Zn489 O498 2.039 . S
Zn489 O504 2.034 . S
Zn489 O508 2.025 . S
Zn489 O510 2.024 . S
C490 O509 1.246 . S
C490 O510 1.249 . S
N491 C492 1.307 . S
N491 C493 1.333 . S
N491 Zn497 2.020 . S
C492 N491 1.307 . S
C492 C496 1.370 . S
C492 H503 0.948 . S
C493 N491 1.333 . S
C493 C494 1.379 . S
C493 H501 0.952 . S
C494 C493 1.379 . S
C494 C495 1.390 . S
C494 H514 0.949 . S
C495 C494 1.390 . S
C495 C496 1.357 . S
C496 C492 1.370 . S
C496 C495 1.357 . S
C496 H515 0.950 . S
Zn497 N491 2.020 . S
Zn497 O500 2.025 . S
Zn497 O505 2.024 . S
Zn497 O507 2.039 . S
Zn497 O509 2.034 . S
O498 C482 1.251 . S
O498 Zn489 2.039 . S
C499 O504 1.246 . S
C499 O505 1.249 . S
O500 C482 1.254 . S
O500 Zn497 2.025 . S
H501 C493 0.952 . S
H502 C484 0.952 . S
H503 C492 0.948 . S
O504 Zn489 2.034 . S
O504 C499 1.246 . S
O505 Zn497 2.024 . S
O505 C499 1.249 . S
H506 C488 0.948 . S
O507 Zn497 2.039 . S
O507 C511 1.251 . S
O508 Zn489 2.025 . S
O508 C511 1.254 . S
O509 C490 1.246 . S
O509 Zn497 2.034 . S
O510 Zn489 2.024 . S
O510 C490 1.249 . S
C511 O507 1.251 . S
C511 O508 1.254 . S
H512 C485 0.949 . S
H513 C487 0.950 . S
H514 C494 0.949 . S
H515 C496 0.950 . S
C516 O532 1.251 . S
C516 O534 1.254 . S
N517 C518 1.333 . S
N517 C522 1.307 . S
N517 Zn523 2.020 . S
C518 N517 1.333 . S
C518 C519 1.379 . S
C518 H536 0.952 1_545 S
C519 C518 1.379 . S
C519 C520 1.390 . S
C519 H546 0.949 . S
C520 C519 1.390 . S
C520 C521 1.357 . S
C521 C520 1.357 . S
C521 C522 1.370 . S
C521 H547 0.950 . S
C522 N517 1.307 . S
C522 C521 1.370 . S
C522 H540 0.948 . S
Zn523 N517 2.020 . S
Zn523 O532 2.039 1_545 S
Zn523 O538 2.034 . S
Zn523 O542 2.025 . S
Zn523 O544 2.024 1_545 S
C524 O543 1.246 . S
C524 O544 1.249 . S
N525 C526 1.307 . S
N525 C527 1.333 . S
N525 Zn531 2.020 1_556 S
C526 N525 1.307 . S
C526 C530 1.370 . S
C526 H537 0.948 . S
C527 N525 1.333 . S
C527 C528 1.379 . S
C527 H535 0.952 1_565 S
C528 C527 1.379 . S
C528 C529 1.390 . S
C528 H548 0.949 1_565 S
C529 C528 1.390 . S
C529 C530 1.357 . S
C530 C526 1.370 . S
C530 C529 1.357 . S
C530 H549 0.950 . S
Zn531 N525 2.020 1_554 S
Zn531 O534 2.025 . S
Zn531 O539 2.024 1_565 S
Zn531 O541 2.040 1_565 S
Zn531 O543 2.034 . S
O532 C516 1.251 . S
O532 Zn523 2.039 1_565 S
C533 O538 1.246 . S
C533 O539 1.249 . S
O534 C516 1.254 . S
O534 Zn531 2.025 . S
H535 C527 0.952 1_545 S
H536 C518 0.952 1_565 S
H537 C526 0.948 . S
O538 Zn523 2.034 . S
O538 C533 1.246 . S
O539 Zn531 2.024 1_545 S
O539 C533 1.249 . S
H540 C522 0.948 . S
O541 Zn531 2.040 1_545 S
O541 C545 1.253 . S
O542 Zn523 2.025 . S
O542 C545 1.254 . S
O543 C524 1.246 . S
O543 Zn531 2.034 . S
O544 Zn523 2.024 1_565 S
O544 C524 1.249 . S
C545 O541 1.253 . S
C545 O542 1.254 . S
H546 C519 0.949 . S
H547 C521 0.950 . S
H548 C528 0.949 1_545 S
H549 C530 0.950 . S
C550 O566 1.251 . S
C550 O568 1.254 . S
N551 C552 1.333 . S
N551 C556 1.307 . S
N551 Zn557 2.020 . S
C552 N551 1.333 . S
C552 C553 1.379 . S
C552 H570 0.952 . S
C553 C552 1.379 . S
C553 C554 1.390 . S
C553 H580 0.949 . S
C554 C553 1.390 . S
C554 C555 1.357 . S
C555 C554 1.357 . S
C555 C556 1.370 . S
C555 H581 0.950 . S
C556 N551 1.307 . S
C556 C555 1.370 . S
C556 H574 0.948 . S
Zn557 N551 2.020 . S
Zn557 O566 2.039 . S
Zn557 O572 2.034 . S
Zn557 O576 2.025 . S
Zn557 O578 2.024 . S
C558 O577 1.246 . S
C558 O578 1.249 . S
N559 C560 1.307 . S
N559 C561 1.333 . S
N559 Zn565 2.020 . S
C560 N559 1.307 . S
C560 C564 1.370 . S
C560 H571 0.948 . S
C561 N559 1.333 . S
C561 C562 1.379 . S
C561 H569 0.952 . S
C562 C561 1.379 . S
C562 C563 1.390 . S
C562 H582 0.949 . S
C563 C562 1.390 . S
C563 C564 1.357 . S
C564 C560 1.370 . S
C564 C563 1.357 . S
C564 H583 0.950 . S
Zn565 N559 2.020 . S
Zn565 O568 2.025 . S
Zn565 O573 2.024 . S
Zn565 O575 2.039 . S
Zn565 O577 2.034 . S
O566 C550 1.251 . S
O566 Zn557 2.039 . S
C567 O572 1.246 . S
C567 O573 1.249 . S
O568 C550 1.254 . S
O568 Zn565 2.025 . S
H569 C561 0.952 . S
H570 C552 0.952 . S
H571 C560 0.948 . S
O572 Zn557 2.034 . S
O572 C567 1.246 . S
O573 Zn565 2.024 . S
O573 C567 1.249 . S
H574 C556 0.948 . S
O575 Zn565 2.039 . S
O575 C579 1.251 . S
O576 Zn557 2.025 . S
O576 C579 1.254 . S
O577 C558 1.246 . S
O577 Zn565 2.034 . S
O578 Zn557 2.024 . S
O578 C558 1.249 . S
C579 O575 1.251 . S
C579 O576 1.254 . S
H580 C553 0.949 . S
H581 C555 0.950 . S
H582 C562 0.949 . S
H583 C564 0.950 . S
C584 O600 1.251 . S
C584 O602 1.254 . S
N585 C586 1.333 . S
N585 C590 1.307 . S
N585 Zn591 2.020 1_556 S
C586 N585 1.333 . S
C586 C587 1.379 . S
C586 H604 0.952 . S
C587 C586 1.379 . S
C587 C588 1.390 . S
C587 H614 0.949 . S
C588 C587 1.390 . S
C588 C589 1.357 . S
C589 C588 1.357 . S
C589 C590 1.370 . S
C589 H615 0.950 . S
C590 N585 1.307 . S
C590 C589 1.370 . S
C590 H608 0.948 . S
Zn591 N585 2.020 1_554 S
Zn591 O600 2.039 . S
Zn591 O606 2.034 . S
Zn591 O610 2.025 . S
Zn591 O612 2.024 1_554 S
C592 O611 1.246 . S
C592 O612 1.249 1_554 S
N593 C594 1.307 . S
N593 C595 1.333 . S
N593 Zn599 2.020 . S
C594 N593 1.307 . S
C594 C598 1.370 . S
C594 H605 0.948 . S
C595 N593 1.333 . S
C595 C596 1.379 . S
C595 H603 0.952 . S
C596 C595 1.379 . S
C596 C597 1.390 . S
C596 H616 0.949 . S
C597 C596 1.390 . S
C597 C598 1.357 . S
C598 C594 1.370 . S
C598 C597 1.357 . S
C598 H617 0.950 . S
Zn599 N593 2.020 . S
Zn599 O602 2.025 . S
Zn599 O607 2.024 . S
Zn599 O609 2.039 . S
Zn599 O611 2.034 . S
O600 C584 1.251 . S
O600 Zn591 2.039 . S
C601 O606 1.246 . S
C601 O607 1.249 . S
O602 C584 1.254 . S
O602 Zn599 2.025 . S
H603 C595 0.952 . S
H604 C586 0.952 . S
H605 C594 0.948 . S
O606 Zn591 2.034 . S
O606 C601 1.246 . S
O607 Zn599 2.024 . S
O607 C601 1.249 . S
H608 C590 0.948 . S
O609 Zn599 2.039 . S
O609 C613 1.251 . S
O610 Zn591 2.025 . S
O610 C613 1.254 . S
O611 C592 1.246 . S
O611 Zn599 2.034 . S
O612 Zn591 2.024 1_556 S
O612 C592 1.249 1_556 S
C613 O609 1.251 . S
C613 O610 1.254 . S
H614 C587 0.949 . S
H615 C589 0.950 . S
H616 C596 0.949 . S
H617 C598 0.950 . S
C618 O634 1.251 . S
C618 O636 1.254 . S
N619 C620 1.333 . S
N619 C624 1.307 . S
N619 Zn625 2.020 . S
C620 N619 1.333 . S
C620 C621 1.379 . S
C620 H638 0.952 . S
C621 C620 1.379 . S
C621 C622 1.390 . S
C621 H648 0.949 . S
C622 C621 1.390 . S
C622 C623 1.357 . S
C623 C622 1.357 . S
C623 C624 1.370 . S
C623 H649 0.950 . S
C624 N619 1.307 . S
C624 C623 1.370 . S
C624 H642 0.948 . S
Zn625 N619 2.020 . S
Zn625 O634 2.039 . S
Zn625 O640 2.034 . S
Zn625 O644 2.025 . S
Zn625 O646 2.024 . S
C626 O645 1.246 . S
C626 O646 1.249 . S
N627 C628 1.307 . S
N627 C629 1.333 . S
N627 Zn633 2.020 . S
C628 N627 1.307 . S
C628 C632 1.370 . S
C628 H639 0.948 . S
C629 N627 1.333 . S
C629 C630 1.379 . S
C629 H637 0.952 . S
C630 C629 1.379 . S
C630 C631 1.390 . S
C630 H650 0.949 . S
C631 C630 1.390 . S
C631 C632 1.357 . S
C632 C628 1.370 . S
C632 C631 1.357 . S
C632 H651 0.950 . S
Zn633 N627 2.020 . S
Zn633 O636 2.025 . S
Zn633 O641 2.024 . S
Zn633 O643 2.039 . S
Zn633 O645 2.034 . S
O634 C618 1.251 . S
O634 Zn625 2.039 . S
C635 O640 1.246 . S
C635 O641 1.249 . S
O636 C618 1.254 . S
O636 Zn633 2.025 . S
H637 C629 0.952 . S
H638 C620 0.952 . S
H639 C628 0.948 . S
O640 Zn625 2.034 . S
O640 C635 1.246 . S
O641 Zn633 2.024 . S
O641 C635 1.249 . S
H642 C624 0.948 . S
O643 Zn633 2.039 . S
O643 C647 1.251 . S
O644 Zn625 2.025 . S
O644 C647 1.254 . S
O645 C626 1.246 . S
O645 Zn633 2.034 . S
O646 Zn625 2.024 . S
O646 C626 1.249 . S
C647 O643 1.251 . S
C647 O644 1.254 . S
H648 C621 0.949 . S
H649 C623 0.950 . S
H650 C630 0.949 . S
H651 C632 0.950 . S
C652 O668 1.251 . S
C652 O670 1.254 . S
N653 C654 1.333 . S
N653 C658 1.307 . S
N653 Zn659 2.020 . S
C654 N653 1.333 . S
C654 C655 1.379 . S
C654 H672 0.952 . S
C655 C654 1.379 . S
C655 C656 1.390 . S
C655 H682 0.949 . S
C656 C655 1.390 . S
C656 C657 1.357 . S
C657 C656 1.357 . S
C657 C658 1.370 . S
C657 H683 0.950 . S
C658 N653 1.307 . S
C658 C657 1.370 . S
C658 H676 0.948 . S
Zn659 N653 2.020 . S
Zn659 O668 2.039 . S
Zn659 O674 2.034 . S
Zn659 O678 2.025 . S
Zn659 O680 2.024 . S
C660 O679 1.246 . S
C660 O680 1.249 . S
N661 C662 1.307 1_455 S
N661 C663 1.333 . S
N661 Zn667 2.020 . S
C662 N661 1.307 1_655 S
C662 C666 1.370 . S
C662 H673 0.948 . S
C663 N661 1.333 . S
C663 C664 1.379 . S
C663 H671 0.952 . S
C664 C663 1.379 . S
C664 C665 1.390 1_455 S
C664 H684 0.949 . S
C665 C664 1.390 1_655 S
C665 C666 1.357 . S
C666 C662 1.370 . S
C666 C665 1.357 . S
C666 H685 0.950 . S
Zn667 N661 2.020 . S
Zn667 O670 2.025 . S
Zn667 O675 2.024 1_455 S
Zn667 O677 2.039 . S
Zn667 O679 2.034 . S
O668 C652 1.251 . S
O668 Zn659 2.039 . S
C669 O674 1.246 1_655 S
C669 O675 1.249 . S
O670 C652 1.254 . S
O670 Zn667 2.025 . S
H671 C663 0.952 . S
H672 C654 0.952 . S
H673 C662 0.948 . S
O674 Zn659 2.034 . S
O674 C669 1.246 1_455 S
O675 Zn667 2.024 1_655 S
O675 C669 1.249 . S
H676 C658 0.948 . S
O677 Zn667 2.039 . S
O677 C681 1.251 . S
O678 Zn659 2.025 . S
O678 C681 1.254 . S
O679 C660 1.246 . S
O679 Zn667 2.034 . S
O680 Zn659 2.024 . S
O680 C660 1.249 . S
C681 O677 1.251 . S
C681 O678 1.254 . S
H682 C655 0.949 . S
H683 C657 0.950 . S
H684 C664 0.949 . S
H685 C666 0.950 . S
C686 O702 1.251 . S
C686 O704 1.254 . S
N687 C688 1.333 . S
N687 C692 1.307 . S
N687 Zn693 2.020 . S
C688 N687 1.333 . S
C688 C689 1.379 . S
C688 H706 0.952 . S
C689 C688 1.379 . S
C689 C690 1.390 . S
C689 H716 0.949 . S
C690 C689 1.390 . S
C690 C691 1.357 . S
C691 C690 1.357 . S
C691 C692 1.370 . S
C691 H717 0.950 . S
C692 N687 1.307 . S
C692 C691 1.370 . S
C692 H710 0.948 . S
Zn693 N687 2.020 . S
Zn693 O702 2.039 . S
Zn693 O708 2.034 . S
Zn693 O712 2.025 . S
Zn693 O714 2.024 . S
C694 O713 1.246 . S
C694 O714 1.249 . S
N695 C696 1.307 . S
N695 C697 1.333 . S
N695 Zn701 2.020 . S
C696 N695 1.307 . S
C696 C700 1.370 . S
C696 H707 0.948 . S
C697 N695 1.333 . S
C697 C698 1.379 . S
C697 H705 0.952 . S
C698 C697 1.379 . S
C698 C699 1.390 . S
C698 H718 0.949 . S
C699 C698 1.390 . S
C699 C700 1.357 . S
C700 C696 1.370 . S
C700 C699 1.357 . S
C700 H719 0.950 . S
Zn701 N695 2.020 . S
Zn701 O704 2.025 . S
Zn701 O709 2.024 . S
Zn701 O711 2.039 . S
Zn701 O713 2.034 . S
O702 C686 1.251 . S
O702 Zn693 2.039 . S
C703 O708 1.246 . S
C703 O709 1.249 . S
O704 C686 1.254 . S
O704 Zn701 2.025 . S
H705 C697 0.952 . S
H706 C688 0.952 . S
H707 C696 0.948 . S
O708 Zn693 2.034 . S
O708 C703 1.246 . S
O709 Zn701 2.024 . S
O709 C703 1.249 . S
H710 C692 0.948 . S
O711 Zn701 2.039 . S
O711 C715 1.251 . S
O712 Zn693 2.025 . S
O712 C715 1.254 . S
O713 C694 1.246 . S
O713 Zn701 2.034 . S
O714 Zn693 2.024 . S
O714 C694 1.249 . S
C715 O711 1.251 . S
C715 O712 1.254 . S
H716 C689 0.949 . S
H717 C691 0.950 . S
H718 C698 0.949 . S
H719 C700 0.950 . S
C720 O736 1.251 . S
C720 O738 1.254 . S
N721 C722 1.333 . S
N721 C726 1.307 . S
N721 Zn727 2.020 . S
C722 N721 1.333 . S
C722 C723 1.379 . S
C722 H740 0.952 . S
C723 C722 1.379 . S
C723 C724 1.390 . S
C723 H750 0.949 . S
C724 C723 1.390 . S
C724 C725 1.357 . S
C725 C724 1.357 . S
C725 C726 1.370 . S
C725 H751 0.950 . S
C726 N721 1.307 . S
C726 C725 1.370 . S
C726 H744 0.948 . S
Zn727 N721 2.020 . S
Zn727 O736 2.039 . S
Zn727 O742 2.034 . S
Zn727 O746 2.025 . S
Zn727 O748 2.024 . S
C728 O747 1.246 . S
C728 O748 1.249 . S
N729 C730 1.307 . S
N729 C731 1.333 . S
N729 Zn735 2.020 . S
C730 N729 1.307 . S
C730 C734 1.370 . S
C730 H741 0.948 . S
C731 N729 1.333 . S
C731 C732 1.379 . S
C731 H739 0.952 . S
C732 C731 1.379 . S
C732 C733 1.390 . S
C732 H752 0.949 . S
C733 C732 1.390 . S
C733 C734 1.357 . S
C734 C730 1.370 . S
C734 C733 1.357 . S
C734 H753 0.950 . S
Zn735 N729 2.020 . S
Zn735 O738 2.025 . S
Zn735 O743 2.024 . S
Zn735 O745 2.039 . S
Zn735 O747 2.034 . S
O736 C720 1.251 . S
O736 Zn727 2.039 . S
C737 O742 1.246 . S
C737 O743 1.249 . S
O738 C720 1.254 . S
O738 Zn735 2.025 . S
H739 C731 0.952 . S
H740 C722 0.952 . S
H741 C730 0.948 . S
O742 Zn727 2.034 . S
O742 C737 1.246 . S
O743 Zn735 2.024 . S
O743 C737 1.249 . S
H744 C726 0.948 . S
O745 Zn735 2.039 . S
O745 C749 1.251 . S
O746 Zn727 2.025 . S
O746 C749 1.254 . S
O747 C728 1.246 . S
O747 Zn735 2.034 . S
O748 Zn727 2.024 . S
O748 C728 1.249 . S
C749 O745 1.251 . S
C749 O746 1.254 . S
H750 C723 0.949 . S
H751 C725 0.950 . S
H752 C732 0.949 . S
H753 C734 0.950 . S
C754 O770 1.251 . S
C754 O772 1.254 . S
N755 C756 1.333 . S
N755 C760 1.307 . S
N755 Zn761 2.020 . S
C756 N755 1.333 . S
C756 C757 1.379 . S
C756 H774 0.952 . S
C757 C756 1.379 . S
C757 C758 1.390 . S
C757 H784 0.949 . S
C758 C757 1.390 . S
C758 C759 1.357 . S
C759 C758 1.357 . S
C759 C760 1.370 . S
C759 H785 0.950 . S
C760 N755 1.307 . S
C760 C759 1.370 . S
C760 H778 0.948 . S
Zn761 N755 2.020 . S
Zn761 O770 2.039 . S
Zn761 O776 2.034 . S
Zn761 O780 2.025 . S
Zn761 O782 2.024 . S
C762 O781 1.246 . S
C762 O782 1.249 . S
N763 C764 1.307 . S
N763 C765 1.333 . S
N763 Zn769 2.020 . S
C764 N763 1.307 . S
C764 C768 1.370 . S
C764 H775 0.948 . S
C765 N763 1.333 . S
C765 C766 1.379 . S
C765 H773 0.952 . S
C766 C765 1.379 . S
C766 C767 1.390 . S
C766 H786 0.949 . S
C767 C766 1.390 . S
C767 C768 1.357 . S
C768 C764 1.370 . S
C768 C767 1.357 . S
C768 H787 0.950 . S
Zn769 N763 2.020 . S
Zn769 O772 2.025 . S
Zn769 O777 2.024 . S
Zn769 O779 2.039 . S
Zn769 O781 2.034 . S
O770 C754 1.251 . S
O770 Zn761 2.039 . S
C771 O776 1.246 . S
C771 O777 1.249 . S
O772 C754 1.254 . S
O772 Zn769 2.025 . S
H773 C765 0.952 . S
H774 C756 0.952 . S
H775 C764 0.948 . S
O776 Zn761 2.034 . S
O776 C771 1.246 . S
O777 Zn769 2.024 . S
O777 C771 1.249 . S
H778 C760 0.948 . S
O779 Zn769 2.039 . S
O779 C783 1.251 . S
O780 Zn761 2.025 . S
O780 C783 1.254 . S
O781 C762 1.246 . S
O781 Zn769 2.034 . S
O782 Zn761 2.024 . S
O782 C762 1.249 . S
C783 O779 1.251 . S
C783 O780 1.254 . S
H784 C757 0.949 . S
H785 C759 0.950 . S
H786 C766 0.949 . S
H787 C768 0.950 . S
C788 O804 1.251 . S
C788 O806 1.254 . S
N789 C790 1.333 . S
N789 C794 1.307 . S
N789 Zn795 2.020 . S
C790 N789 1.333 . S
C790 C791 1.379 . S
C790 H808 0.952 . S
C791 C790 1.379 . S
C791 C792 1.390 . S
C791 H818 0.949 . S
C792 C791 1.390 . S
C792 C793 1.357 . S
C793 C792 1.357 . S
C793 C794 1.370 . S
C793 H819 0.950 . S
C794 N789 1.307 . S
C794 C793 1.370 . S
C794 H812 0.948 . S
Zn795 N789 2.020 . S
Zn795 O804 2.039 . S
Zn795 O810 2.034 . S
Zn795 O814 2.025 . S
Zn795 O816 2.024 . S
C796 O815 1.246 . S
C796 O816 1.249 . S
N797 C798 1.307 . S
N797 C799 1.333 . S
N797 Zn803 2.020 . S
C798 N797 1.307 . S
C798 C802 1.370 . S
C798 H809 0.948 . S
C799 N797 1.333 . S
C799 C800 1.379 . S
C799 H807 0.952 . S
C800 C799 1.379 . S
C800 C801 1.390 . S
C800 H820 0.949 . S
C801 C800 1.390 . S
C801 C802 1.357 . S
C802 C798 1.370 . S
C802 C801 1.357 . S
C802 H821 0.950 . S
Zn803 N797 2.020 . S
Zn803 O806 2.025 . S
Zn803 O811 2.024 . S
Zn803 O813 2.039 . S
Zn803 O815 2.034 . S
O804 C788 1.251 . S
O804 Zn795 2.039 . S
C805 O810 1.246 . S
C805 O811 1.249 . S
O806 C788 1.254 . S
O806 Zn803 2.025 . S
H807 C799 0.952 . S
H808 C790 0.952 . S
H809 C798 0.948 . S
O810 Zn795 2.034 . S
O810 C805 1.246 . S
O811 Zn803 2.024 . S
O811 C805 1.249 . S
H812 C794 0.948 . S
O813 Zn803 2.039 . S
O813 C817 1.251 . S
O814 Zn795 2.025 . S
O814 C817 1.254 . S
O815 C796 1.246 . S
O815 Zn803 2.034 . S
O816 Zn795 2.024 . S
O816 C796 1.249 . S
C817 O813 1.251 . S
C817 O814 1.254 . S
H818 C791 0.949 . S
H819 C793 0.950 . S
H820 C800 0.949 . S
H821 C802 0.950 . S
C822 O838 1.251 . S
C822 O840 1.254 . S
N823 C824 1.333 . S
N823 C828 1.307 . S
N823 Zn829 2.020 . S
C824 N823 1.333 . S
C824 C825 1.379 . S
C824 H842 0.952 . S
C825 C824 1.379 . S
C825 C826 1.390 . S
C825 H852 0.949 . S
C826 C825 1.390 . S
C826 C827 1.357 . S
C827 C826 1.357 . S
C827 C828 1.370 . S
C827 H853 0.950 . S
C828 N823 1.307 . S
C828 C827 1.370 . S
C828 H846 0.948 . S
Zn829 N823 2.020 . S
Zn829 O838 2.039 . S
Zn829 O844 2.034 . S
Zn829 O848 2.025 1_554 S
Zn829 O850 2.024 . S
C830 O849 1.256 . S
C830 O850 1.249 1_655 S
N831 C832 1.307 . S
N831 C833 1.333 1_554 S
N831 Zn837 2.020 . S
C832 N831 1.307 . S
C832 C836 1.370 . S
C832 H843 0.948 . S
C833 N831 1.333 1_556 S
C833 C834 1.379 . S
C833 H841 0.952 . S
C834 C833 1.379 . S
C834 C835 1.390 . S
C834 H854 0.949 . S
C835 C834 1.390 . S
C835 C836 1.357 1_556 S
C836 C832 1.370 . S
C836 C835 1.357 1_554 S
C836 H855 0.950 . S
Zn837 N831 2.020 . S
Zn837 O840 2.025 . S
Zn837 O845 2.024 . S
Zn837 O847 2.039 1_554 S
Zn837 O849 1.999 1_455 S
O838 C822 1.251 . S
O838 Zn829 2.039 . S
C839 O844 1.246 . S
C839 O845 1.249 . S
O840 C822 1.254 . S
O840 Zn837 2.025 . S
H841 C833 0.952 . S
H842 C824 0.952 . S
H843 C832 0.948 . S
O844 Zn829 2.034 . S
O844 C839 1.246 . S
O845 Zn837 2.024 . S
O845 C839 1.249 . S
H846 C828 0.948 . S
O847 Zn837 2.039 1_556 S
O847 C851 1.251 . S
O848 Zn829 2.025 1_556 S
O848 C851 1.254 . S
O849 C830 1.256 . S
O849 Zn837 1.999 1_655 S
O850 Zn829 2.024 . S
O850 C830 1.249 1_455 S
C851 O847 1.251 . S
C851 O848 1.254 . S
H852 C825 0.949 . S
H853 C827 0.950 . S
H854 C834 0.949 . S
H855 C836 0.950 . S
H856 C862 0.930 . S
H857 C866 0.930 1_655 S
H858 C871 0.929 . S
H859 C869 0.929 . S
H860 C864 0.927 . S
H861 C870 0.929 . S
C862 H856 0.930 . S
C862 C863 1.367 . S
C862 C870 1.378 . S
C863 C862 1.367 . S
C863 C871 1.433 . S
C864 H860 0.927 . S
C864 C866 1.378 . S
C864 C868 1.350 . S
C865 C868 1.463 . S
C865 C870 1.350 . S
C865 N873 1.427 . S
C866 H857 0.930 1_455 S
C866 C864 1.378 . S
C866 C867 1.367 . S
C867 C866 1.367 . S
C867 C869 1.433 . S
C868 C864 1.350 . S
C868 C865 1.463 . S
C868 N872 1.427 . S
C869 H859 0.929 . S
C869 C867 1.433 . S
C869 N872 1.384 . S
C870 H861 0.929 . S
C870 C862 1.378 . S
C870 C865 1.350 . S
C871 H858 0.929 . S
C871 C863 1.433 . S
C871 N873 1.384 . S
N872 C868 1.427 . S
N872 C869 1.384 . S
N873 C865 1.427 . S
N873 C871 1.384 . S
H874 C880 0.930 . S
H875 C884 0.930 . S
H876 C889 0.929 . S
H877 C887 0.929 . S
H878 C882 0.929 . S
H879 C888 0.929 . S
C880 H874 0.930 . S
C880 C881 1.367 . S
C880 C888 1.378 . S
C881 C880 1.367 . S
C881 C889 1.433 . S
C882 H878 0.929 . S
C882 C884 1.378 . S
C882 C886 1.350 . S
C883 C886 1.463 . S
C883 C888 1.350 . S
C883 N891 1.427 . S
C884 H875 0.930 . S
C884 C882 1.378 . S
C884 C885 1.367 . S
C885 C884 1.367 . S
C885 C887 1.433 . S
C886 C882 1.350 . S
C886 C883 1.463 . S
C886 N890 1.427 . S
C887 H877 0.929 . S
C887 C885 1.433 . S
C887 N890 1.384 . S
C888 H879 0.929 . S
C888 C880 1.378 . S
C888 C883 1.350 . S
C889 H876 0.929 . S
C889 C881 1.433 . S
C889 N891 1.384 . S
N890 C886 1.427 . S
N890 C887 1.384 . S
N891 C883 1.427 . S
N891 C889 1.384 . S
H892 C898 0.930 . S
H893 C902 0.930 . S
H894 C907 0.929 . S
H895 C905 0.929 . S
H896 C900 0.929 . S
H897 C906 0.929 . S
C898 H892 0.930 . S
C898 C899 1.367 . S
C898 C906 1.378 . S
C899 C898 1.367 . S
C899 C907 1.433 . S
C900 H896 0.929 . S
C900 C902 1.378 . S
C900 C904 1.350 . S
C901 C904 1.463 . S
C901 C906 1.350 . S
C901 N909 1.427 . S
C902 H893 0.930 . S
C902 C900 1.378 . S
C902 C903 1.367 . S
C903 C902 1.367 . S
C903 C905 1.433 . S
C904 C900 1.350 . S
C904 C901 1.463 . S
C904 N908 1.427 . S
C905 H895 0.929 . S
C905 C903 1.433 . S
C905 N908 1.384 . S
C906 H897 0.929 . S
C906 C898 1.378 . S
C906 C901 1.350 . S
C907 H894 0.929 . S
C907 C899 1.433 . S
C907 N909 1.384 . S
N908 C904 1.427 . S
N908 C905 1.384 . S
N909 C901 1.427 . S
N909 C907 1.384 . S
H910 C916 0.930 . S
H911 C920 0.930 . S
H912 C925 0.929 . S
H913 C923 0.929 . S
H914 C918 0.929 . S
H915 C924 0.929 . S
C916 H910 0.930 . S
C916 C917 1.367 . S
C916 C924 1.378 . S
C917 C916 1.367 . S
C917 C925 1.433 . S
C918 H914 0.929 . S
C918 C920 1.378 . S
C918 C922 1.350 . S
C919 C922 1.463 . S
C919 C924 1.350 . S
C919 N927 1.427 . S
C920 H911 0.930 . S
C920 C918 1.378 . S
C920 C921 1.367 . S
C921 C920 1.367 . S
C921 C923 1.433 . S
C922 C918 1.350 . S
C922 C919 1.463 . S
C922 N926 1.427 . S
C923 H913 0.929 . S
C923 C921 1.433 . S
C923 N926 1.384 . S
C924 H915 0.929 . S
C924 C916 1.378 . S
C924 C919 1.350 . S
C925 H912 0.929 . S
C925 C917 1.433 . S
C925 N927 1.384 . S
N926 C922 1.427 . S
N926 C923 1.384 . S
N927 C919 1.427 . S
N927 C925 1.384 . S
H928 C934 0.930 . S
H929 C938 0.930 . S
H930 C943 0.929 . S
H931 C941 0.929 . S
H932 C936 0.929 . S
H933 C942 0.929 . S
C934 H928 0.930 . S
C934 C935 1.367 . S
C934 C942 1.378 . S
C935 C934 1.367 . S
C935 C943 1.433 . S
C936 H932 0.929 . S
C936 C938 1.378 . S
C936 C940 1.350 . S
C937 C940 1.463 . S
C937 C942 1.350 . S
C937 N945 1.427 . S
C938 H929 0.930 . S
C938 C936 1.378 . S
C938 C939 1.367 . S
C939 C938 1.367 . S
C939 C941 1.433 . S
C940 C936 1.350 . S
C940 C937 1.463 . S
C940 N944 1.427 . S
C941 H931 0.929 . S
C941 C939 1.433 . S
C941 N944 1.384 . S
C942 H933 0.929 . S
C942 C934 1.378 . S
C942 C937 1.350 . S
C943 H930 0.929 . S
C943 C935 1.433 . S
C943 N945 1.384 . S
N944 C940 1.427 . S
N944 C941 1.384 . S
N945 C937 1.427 . S
N945 C943 1.384 . S
H946 C952 0.930 . S
H947 C956 0.930 . S
H948 C961 0.929 . S
H949 C959 0.929 . S
H950 C954 0.929 . S
H951 C960 0.929 . S
C952 H946 0.930 . S
C952 C953 1.367 . S
C952 C960 1.378 . S
C953 C952 1.367 . S
C953 C961 1.433 . S
C954 H950 0.929 . S
C954 C956 1.378 . S
C954 C958 1.350 . S
C955 C958 1.463 . S
C955 C960 1.350 . S
C955 N963 1.427 . S
C956 H947 0.930 . S
C956 C954 1.378 . S
C956 C957 1.367 . S
C957 C956 1.367 . S
C957 C959 1.433 . S
C958 C954 1.350 . S
C958 C955 1.463 . S
C958 N962 1.427 . S
C959 H949 0.929 . S
C959 C957 1.433 . S
C959 N962 1.384 . S
C960 H951 0.929 . S
C960 C952 1.378 . S
C960 C955 1.350 . S
C961 H948 0.929 . S
C961 C953 1.433 . S
C961 N963 1.384 . S
N962 C958 1.427 . S
N962 C959 1.384 . S
N963 C955 1.427 . S
N963 C961 1.384 . S
H964 C970 0.930 . S
H965 C974 0.930 . S
H966 C979 0.929 . S
H967 C977 0.929 . S
H968 C972 0.934 . S
H969 C978 0.929 . S
C970 H964 0.930 . S
C970 C971 1.367 . S
C970 C978 1.378 . S
C971 C970 1.367 . S
C971 C979 1.433 . S
C972 H968 0.934 . S
C972 C974 1.378 1_556 S
C972 C976 1.350 . S
C973 C976 1.463 . S
C973 C978 1.350 . S
C973 N981 1.427 . S
C974 H965 0.930 . S
C974 C972 1.378 1_554 S
C974 C975 1.367 1_554 S
C975 C974 1.367 1_556 S
C975 C977 1.433 . S
C976 C972 1.350 . S
C976 C973 1.463 . S
C976 N980 1.427 . S
C977 H967 0.929 . S
C977 C975 1.433 . S
C977 N980 1.384 . S
C978 H969 0.929 . S
C978 C970 1.378 . S
C978 C973 1.350 . S
C979 H966 0.929 . S
C979 C971 1.433 . S
C979 N981 1.384 . S
N980 C976 1.427 . S
N980 C977 1.384 . S
N981 C973 1.427 . S
N981 C979 1.384 . S
H982 C988 0.930 . S
H983 C992 0.930 . S
H984 C997 0.929 . S
H985 C995 0.929 . S
H986 C990 0.929 . S
H987 C996 0.929 . S
C988 H982 0.930 . S
C988 C989 1.367 . S
C988 C996 1.378 . S
C989 C988 1.367 . S
C989 C997 1.433 . S
C990 H986 0.929 . S
C990 C992 1.378 . S
C990 C994 1.350 . S
C991 C994 1.463 . S
C991 C996 1.350 . S
C991 N999 1.427 . S
C992 H983 0.930 . S
C992 C990 1.378 . S
C992 C993 1.367 . S
C993 C992 1.367 . S
C993 C995 1.433 . S
C994 C990 1.350 . S
C994 C991 1.463 . S
C994 N998 1.427 . S
C995 H985 0.929 . S
C995 C993 1.433 . S
C995 N998 1.384 . S
C996 H987 0.929 . S
C996 C988 1.378 . S
C996 C991 1.350 . S
C997 H984 0.929 . S
C997 C989 1.433 . S
C997 N999 1.384 . S
N998 C994 1.427 . S
N998 C995 1.384 . S
N999 C991 1.427 . S
N999 C997 1.384 . S
H1000 C1006 0.930 . S
H1001 C1010 0.930 . S
H1002 C1015 0.929 . S
H1003 C1013 0.929 . S
H1004 C1008 0.929 . S
H1005 C1014 0.929 . S
C1006 H1000 0.930 . S
C1006 C1007 1.367 . S
C1006 C1014 1.378 . S
C1007 C1006 1.367 . S
C1007 C1015 1.433 1_545 S
C1008 H1004 0.929 . S
C1008 C1010 1.378 . S
C1008 C1012 1.350 . S
C1009 C1012 1.463 1_545 S
C1009 C1014 1.350 . S
C1009 N1017 1.427 1_545 S
C1010 H1001 0.930 . S
C1010 C1008 1.378 . S
C1010 C1011 1.367 . S
C1011 C1010 1.367 . S
C1011 C1013 1.433 1_565 S
C1012 C1008 1.350 . S
C1012 C1009 1.463 1_565 S
C1012 N1016 1.427 1_565 S
C1013 H1003 0.929 . S
C1013 C1011 1.433 1_545 S
C1013 N1016 1.384 . S
C1014 H1005 0.929 . S
C1014 C1006 1.378 . S
C1014 C1009 1.350 . S
C1015 H1002 0.929 . S
C1015 C1007 1.433 1_565 S
C1015 N1017 1.384 . S
N1016 C1012 1.427 1_545 S
N1016 C1013 1.384 . S
N1017 C1009 1.427 1_565 S
N1017 C1015 1.384 . S
H1018 C1024 0.930 . S
H1019 C1028 0.930 . S
H1020 C1033 0.929 . S
H1021 C1031 0.929 . S
H1022 C1026 0.929 . S
H1023 C1032 0.929 . S
C1024 H1018 0.930 . S
C1024 C1025 1.367 . S
C1024 C1032 1.378 . S
C1025 C1024 1.367 . S
C1025 C1033 1.433 . S
C1026 H1022 0.929 . S
C1026 C1028 1.378 . S
C1026 C1030 1.350 . S
C1027 C1030 1.463 . S
C1027 C1032 1.350 . S
C1027 N1035 1.427 . S
C1028 H1019 0.930 . S
C1028 C1026 1.378 . S
C1028 C1029 1.367 . S
C1029 C1028 1.367 . S
C1029 C1031 1.433 . S
C1030 C1026 1.350 . S
C1030 C1027 1.463 . S
C1030 N1034 1.427 . S
C1031 H1021 0.929 . S
C1031 C1029 1.433 . S
C1031 N1034 1.384 . S
C1032 H1023 0.929 . S
C1032 C1024 1.378 . S
C1032 C1027 1.350 . S
C1033 H1020 0.929 . S
C1033 C1025 1.433 . S
C1033 N1035 1.384 . S
N1034 C1030 1.427 . S
N1034 C1031 1.384 . S
N1035 C1027 1.427 . S
N1035 C1033 1.384 . S
H1036 C1042 0.930 . S
H1037 C1046 0.930 . S
H1038 C1051 0.929 . S
H1039 C1049 0.929 1_565 S
H1040 C1044 0.929 . S
H1041 C1050 0.929 . S
C1042 H1036 0.930 . S
C1042 C1043 1.367 1_565 S
C1042 C1050 1.378 . S
C1043 C1042 1.367 1_545 S
C1043 C1051 1.433 . S
C1044 H1040 0.929 . S
C1044 C1046 1.378 . S
C1044 C1048 1.350 . S
C1045 C1048 1.463 . S
C1045 C1050 1.350 1_545 S
C1045 N1053 1.427 . S
C1046 H1037 0.930 . S
C1046 C1044 1.378 . S
C1046 C1047 1.367 . S
C1047 C1046 1.367 . S
C1047 C1049 1.433 . S
C1048 C1044 1.350 . S
C1048 C1045 1.463 . S
C1048 N1052 1.427 . S
C1049 H1039 0.929 1_545 S
C1049 C1047 1.433 . S
C1049 N1052 1.384 . S
C1050 H1041 0.929 . S
C1050 C1042 1.378 . S
C1050 C1045 1.350 1_565 S
C1051 H1038 0.929 . S
C1051 C1043 1.433 . S
C1051 N1053 1.384 . S
N1052 C1048 1.427 . S
N1052 C1049 1.384 . S
N1053 C1045 1.427 . S
N1053 C1051 1.384 . S
H1054 C1060 0.930 . S
H1055 C1064 0.930 . S
H1056 C1069 0.929 . S
H1057 C1067 0.929 . S
H1058 C1062 0.929 . S
H1059 C1068 0.929 . S
C1060 H1054 0.930 . S
C1060 C1061 1.367 . S
C1060 C1068 1.378 . S
C1061 C1060 1.367 . S
C1061 C1069 1.433 . S
C1062 H1058 0.929 . S
C1062 C1064 1.378 . S
C1062 C1066 1.350 . S
C1063 C1066 1.463 . S
C1063 C1068 1.350 . S
C1063 N1071 1.427 . S
C1064 H1055 0.930 . S
C1064 C1062 1.378 . S
C1064 C1065 1.367 . S
C1065 C1064 1.367 . S
C1065 C1067 1.433 . S
C1066 C1062 1.350 . S
C1066 C1063 1.463 . S
C1066 N1070 1.427 . S
C1067 H1057 0.929 . S
C1067 C1065 1.433 . S
C1067 N1070 1.384 . S
C1068 H1059 0.929 . S
C1068 C1060 1.378 . S
C1068 C1063 1.350 . S
C1069 H1056 0.929 . S
C1069 C1061 1.433 . S
C1069 N1071 1.384 . S
N1070 C1066 1.427 . S
N1070 C1067 1.384 . S
N1071 C1063 1.427 . S
N1071 C1069 1.384 . S
H1072 C1078 0.930 1_565 S
H1073 C1082 0.930 . S
H1074 C1087 0.929 . S
H1075 C1085 0.929 . S
H1076 C1080 0.929 . S
H1077 C1086 0.913 1_565 S
C1078 H1072 0.930 1_545 S
C1078 C1079 1.367 . S
C1078 C1086 1.378 . S
C1079 C1078 1.367 . S
C1079 C1087 1.433 . S
C1080 H1076 0.929 . S
C1080 C1082 1.378 . S
C1080 C1084 1.350 . S
C1081 C1084 1.463 . S
C1081 C1086 1.350 . S
C1081 N1089 1.427 . S
C1082 H1073 0.930 . S
C1082 C1080 1.378 . S
C1082 C1083 1.367 . S
C1083 C1082 1.367 . S
C1083 C1085 1.433 . S
C1084 C1080 1.350 . S
C1084 C1081 1.463 . S
C1084 N1088 1.427 . S
C1085 H1075 0.929 . S
C1085 C1083 1.433 . S
C1085 N1088 1.384 . S
C1086 H1077 0.913 1_545 S
C1086 C1078 1.378 . S
C1086 C1081 1.350 . S
C1087 H1074 0.929 . S
C1087 C1079 1.433 . S
C1087 N1089 1.384 . S
N1088 C1084 1.427 . S
N1088 C1085 1.384 . S
N1089 C1081 1.427 . S
N1089 C1087 1.384 . S
H1090 C1096 0.930 . S
H1091 C1100 0.930 . S
H1092 C1105 0.929 . S
H1093 C1103 0.929 . S
H1094 C1098 0.929 . S
H1095 C1104 0.929 . S
C1096 H1090 0.930 . S
C1096 C1097 1.367 . S
C1096 C1104 1.378 . S
C1097 C1096 1.367 . S
C1097 C1105 1.433 . S
C1098 H1094 0.929 . S
C1098 C1100 1.378 . S
C1098 C1102 1.350 . S
C1099 C1102 1.463 . S
C1099 C1104 1.350 . S
C1099 N1107 1.427 . S
C1100 H1091 0.930 . S
C1100 C1098 1.378 . S
C1100 C1101 1.367 . S
C1101 C1100 1.367 . S
C1101 C1103 1.433 . S
C1102 C1098 1.350 . S
C1102 C1099 1.463 . S
C1102 N1106 1.427 . S
C1103 H1093 0.929 . S
C1103 C1101 1.433 . S
C1103 N1106 1.384 . S
C1104 H1095 0.929 . S
C1104 C1096 1.378 . S
C1104 C1099 1.350 . S
C1105 H1092 0.929 . S
C1105 C1097 1.433 . S
C1105 N1107 1.384 . S
N1106 C1102 1.427 . S
N1106 C1103 1.384 . S
N1107 C1099 1.427 . S
N1107 C1105 1.384 . S
H1108 C1114 0.930 . S
H1109 C1118 0.930 . S
H1110 C1123 0.929 . S
H1111 C1121 0.929 . S
H1112 C1116 0.929 . S
H1113 C1122 0.929 . S
C1114 H1108 0.930 . S
C1114 C1115 1.369 . S
C1114 C1122 1.378 1_545 S
C1115 C1114 1.369 . S
C1115 C1123 1.427 1_545 S
C1116 H1112 0.929 . S
C1116 C1118 1.378 . S
C1116 C1120 1.350 . S
C1117 C1120 1.463 . S
C1117 C1122 1.350 . S
C1117 N1125 1.427 . S
C1118 H1109 0.930 . S
C1118 C1116 1.378 . S
C1118 C1119 1.367 . S
C1119 C1118 1.367 . S
C1119 C1121 1.433 . S
C1120 C1116 1.350 . S
C1120 C1117 1.463 . S
C1120 N1124 1.427 . S
C1121 H1111 0.929 . S
C1121 C1119 1.433 . S
C1121 N1124 1.384 . S
C1122 H1113 0.929 . S
C1122 C1114 1.378 1_565 S
C1122 C1117 1.350 . S
C1123 H1110 0.929 . S
C1123 C1115 1.427 1_565 S
C1123 N1125 1.384 . S
N1124 C1120 1.427 . S
N1124 C1121 1.384 . S
N1125 C1117 1.427 . S
N1125 C1123 1.384 . S
H1126 C1132 0.930 . S
H1127 C1136 0.930 . S
H1128 C1141 0.929 . S
H1129 C1139 0.929 . S
H1130 C1134 0.929 . S
H1131 C1140 0.929 . S
C1132 H1126 0.930 . S
C1132 C1133 1.367 . S
C1132 C1140 1.378 . S
C1133 C1132 1.367 . S
C1133 C1141 1.433 . S
C1134 H1130 0.929 . S
C1134 C1136 1.378 . S
C1134 C1138 1.350 . S
C1135 C1138 1.463 . S
C1135 C1140 1.350 . S
C1135 N1143 1.427 . S
C1136 H1127 0.930 . S
C1136 C1134 1.378 . S
C1136 C1137 1.367 . S
C1137 C1136 1.367 . S
C1137 C1139 1.433 . S
C1138 C1134 1.350 . S
C1138 C1135 1.463 . S
C1138 N1142 1.427 . S
C1139 H1129 0.929 . S
C1139 C1137 1.433 . S
C1139 N1142 1.384 . S
C1140 H1131 0.929 . S
C1140 C1132 1.378 . S
C1140 C1135 1.350 . S
C1141 H1128 0.929 . S
C1141 C1133 1.433 . S
C1141 N1143 1.384 . S
N1142 C1138 1.427 . S
N1142 C1139 1.384 . S
N1143 C1135 1.427 . S
N1143 C1141 1.384 . S
H1144 C1150 0.930 . S
H1145 C1154 0.930 . S
H1146 C1159 0.929 . S
H1147 C1157 0.929 . S
H1148 C1152 0.929 . S
H1149 C1158 0.929 . S
C1150 H1144 0.930 . S
C1150 C1151 1.367 . S
C1150 C1158 1.378 . S
C1151 C1150 1.367 . S
C1151 C1159 1.433 . S
C1152 H1148 0.929 . S
C1152 C1154 1.378 . S
C1152 C1156 1.350 1_556 S
C1153 C1156 1.463 . S
C1153 C1158 1.350 . S
C1153 N1161 1.427 . S
C1154 H1145 0.930 . S
C1154 C1152 1.378 . S
C1154 C1155 1.367 . S
C1155 C1154 1.367 . S
C1155 C1157 1.433 . S
C1156 C1152 1.350 1_554 S
C1156 C1153 1.463 . S
C1156 N1160 1.427 . S
C1157 H1147 0.929 . S
C1157 C1155 1.433 . S
C1157 N1160 1.384 1_556 S
C1158 H1149 0.929 . S
C1158 C1150 1.378 . S
C1158 C1153 1.350 . S
C1159 H1146 0.929 . S
C1159 C1151 1.433 . S
C1159 N1161 1.384 . S
N1160 C1156 1.427 . S
N1160 C1157 1.384 1_554 S
N1161 C1153 1.427 . S
N1161 C1159 1.384 . S
H1162 C1168 0.930 . S
H1163 C1172 0.930 . S
H1164 C1177 0.929 . S
H1165 C1175 0.929 . S
H1166 C1170 0.929 . S
H1167 C1176 0.929 . S
C1168 H1162 0.930 . S
C1168 C1169 1.367 . S
C1168 C1176 1.378 . S
C1169 C1168 1.367 . S
C1169 C1177 1.433 . S
C1170 H1166 0.929 . S
C1170 C1172 1.378 . S
C1170 C1174 1.350 . S
C1171 C1174 1.463 . S
C1171 C1176 1.350 . S
C1171 N1179 1.427 . S
C1172 H1163 0.930 . S
C1172 C1170 1.378 . S
C1172 C1173 1.367 . S
C1173 C1172 1.367 . S
C1173 C1175 1.433 . S
C1174 C1170 1.350 . S
C1174 C1171 1.463 . S
C1174 N1178 1.427 . S
C1175 H1165 0.929 . S
C1175 C1173 1.433 . S
C1175 N1178 1.384 . S
C1176 H1167 0.929 . S
C1176 C1168 1.378 . S
C1176 C1171 1.350 . S
C1177 H1164 0.929 . S
C1177 C1169 1.433 . S
C1177 N1179 1.384 . S
N1178 C1174 1.427 . S
N1178 C1175 1.384 . S
N1179 C1171 1.427 . S
N1179 C1177 1.384 . S
H1180 C1186 0.930 . S
H1181 C1190 0.930 . S
H1182 C1195 0.929 . S
H1183 C1193 0.929 . S
H1184 C1188 0.929 . S
H1185 C1194 0.929 . S
C1186 H1180 0.930 . S
C1186 C1187 1.367 . S
C1186 C1194 1.378 . S
C1187 C1186 1.367 . S
C1187 C1195 1.433 . S
C1188 H1184 0.929 . S
C1188 C1190 1.378 . S
C1188 C1192 1.350 . S
C1189 C1192 1.463 . S
C1189 C1194 1.350 . S
C1189 N1197 1.427 . S
C1190 H1181 0.930 . S
C1190 C1188 1.378 . S
C1190 C1191 1.367 . S
C1191 C1190 1.367 . S
C1191 C1193 1.433 . S
C1192 C1188 1.350 . S
C1192 C1189 1.463 . S
C1192 N1196 1.427 . S
C1193 H1183 0.929 . S
C1193 C1191 1.433 . S
C1193 N1196 1.384 . S
C1194 H1185 0.929 . S
C1194 C1186 1.378 . S
C1194 C1189 1.350 . S
C1195 H1182 0.929 . S
C1195 C1187 1.433 . S
C1195 N1197 1.384 . S
N1196 C1192 1.427 . S
N1196 C1193 1.384 . S
N1197 C1189 1.427 . S
N1197 C1195 1.384 . S
H1198 C1204 0.930 . S
H1199 C1208 0.930 . S
H1200 C1213 0.929 . S
H1201 C1211 0.929 . S
H1202 C1206 0.929 . S
H1203 C1212 0.929 . S
C1204 H1198 0.930 . S
C1204 C1205 1.367 . S
C1204 C1212 1.378 . S
C1205 C1204 1.367 . S
C1205 C1213 1.433 . S
C1206 H1202 0.929 . S
C1206 C1208 1.378 . S
C1206 C1210 1.350 . S
C1207 C1210 1.463 . S
C1207 C1212 1.350 . S
C1207 N1215 1.427 . S
C1208 H1199 0.930 . S
C1208 C1206 1.378 . S
C1208 C1209 1.367 . S
C1209 C1208 1.367 . S
C1209 C1211 1.433 . S
C1210 C1206 1.350 . S
C1210 C1207 1.463 . S
C1210 N1214 1.427 . S
C1211 H1201 0.929 . S
C1211 C1209 1.433 . S
C1211 N1214 1.384 . S
C1212 H1203 0.929 . S
C1212 C1204 1.378 . S
C1212 C1207 1.350 . S
C1213 H1200 0.929 . S
C1213 C1205 1.433 . S
C1213 N1215 1.384 . S
N1214 C1210 1.427 . S
N1214 C1211 1.384 . S
N1215 C1207 1.427 . S
N1215 C1213 1.384 . S
H1216 C1222 0.930 . S
H1217 C1226 0.930 . S
H1218 C1231 0.929 . S
H1219 C1229 0.929 . S
H1220 C1224 0.929 . S
H1221 C1230 0.929 . S
C1222 H1216 0.930 . S
C1222 C1223 1.367 . S
C1222 C1230 1.378 . S
C1223 C1222 1.367 . S
C1223 C1231 1.433 . S
C1224 H1220 0.929 . S
C1224 C1226 1.378 . S
C1224 C1228 1.350 . S
C1225 C1228 1.463 . S
C1225 C1230 1.350 . S
C1225 N1233 1.427 . S
C1226 H1217 0.930 . S
C1226 C1224 1.378 . S
C1226 C1227 1.367 . S
C1227 C1226 1.367 . S
C1227 C1229 1.433 . S
C1228 C1224 1.350 . S
C1228 C1225 1.463 . S
C1228 N1232 1.427 . S
C1229 H1219 0.929 . S
C1229 C1227 1.433 . S
C1229 N1232 1.384 . S
C1230 H1221 0.929 . S
C1230 C1222 1.378 . S
C1230 C1225 1.350 . S
C1231 H1218 0.929 . S
C1231 C1223 1.433 . S
C1231 N1233 1.384 . S
N1232 C1228 1.427 . S
N1232 C1229 1.384 . S
N1233 C1225 1.427 . S
N1233 C1231 1.384 . S
H1234 C1240 0.930 . S
H1235 C1244 0.927 1_545 S
H1236 C1249 0.929 . S
H1237 C1247 0.929 . S
H1238 C1242 0.929 . S
H1239 C1248 0.929 . S
C1240 H1234 0.930 . S
C1240 C1241 1.367 . S
C1240 C1248 1.378 . S
C1241 C1240 1.367 . S
C1241 C1249 1.433 . S
C1242 H1238 0.929 . S
C1242 C1244 1.379 . S
C1242 C1246 1.350 . S
C1243 C1246 1.463 . S
C1243 C1248 1.350 . S
C1243 N1251 1.427 . S
C1244 H1235 0.927 1_565 S
C1244 C1242 1.379 . S
C1244 C1245 1.369 . S
C1245 C1244 1.369 . S
C1245 C1247 1.433 . S
C1246 C1242 1.350 . S
C1246 C1243 1.463 . S
C1246 N1250 1.427 . S
C1247 H1237 0.929 . S
C1247 C1245 1.433 . S
C1247 N1250 1.384 . S
C1248 H1239 0.929 . S
C1248 C1240 1.378 . S
C1248 C1243 1.350 . S
C1249 H1236 0.929 . S
C1249 C1241 1.433 . S
C1249 N1251 1.384 . S
N1250 C1246 1.427 . S
N1250 C1247 1.384 . S
N1251 C1243 1.427 . S
N1251 C1249 1.384 . S
H1252 C1258 0.930 . S
H1253 C1262 0.930 . S
H1254 C1267 0.929 . S
H1255 C1265 0.929 . S
H1256 C1260 0.929 . S
H1257 C1266 0.929 . S
C1258 H1252 0.930 . S
C1258 C1259 1.367 . S
C1258 C1266 1.378 . S
C1259 C1258 1.367 . S
C1259 C1267 1.433 . S
C1260 H1256 0.929 . S
C1260 C1262 1.378 . S
C1260 C1264 1.350 . S
C1261 C1264 1.463 . S
C1261 C1266 1.350 . S
C1261 N1269 1.427 . S
C1262 H1253 0.930 . S
C1262 C1260 1.378 . S
C1262 C1263 1.367 . S
C1263 C1262 1.367 . S
C1263 C1265 1.433 . S
C1264 C1260 1.350 . S
C1264 C1261 1.463 . S
C1264 N1268 1.427 . S
C1265 H1255 0.929 . S
C1265 C1263 1.433 . S
C1265 N1268 1.384 . S
C1266 H1257 0.929 . S
C1266 C1258 1.378 . S
C1266 C1261 1.350 . S
C1267 H1254 0.929 . S
C1267 C1259 1.433 . S
C1267 N1269 1.384 . S
N1268 C1264 1.427 . S
N1268 C1265 1.384 . S
N1269 C1261 1.427 . S
N1269 C1267 1.384 . S
H1270 C1276 0.930 . S
H1271 C1280 0.930 . S
H1272 C1285 0.929 . S
H1273 C1283 0.929 . S
H1274 C1278 0.929 . S
H1275 C1284 0.929 . S
C1276 H1270 0.930 . S
C1276 C1277 1.367 . S
C1276 C1284 1.378 . S
C1277 C1276 1.367 . S
C1277 C1285 1.433 . S
C1278 H1274 0.929 . S
C1278 C1280 1.378 . S
C1278 C1282 1.350 . S
C1279 C1282 1.463 . S
C1279 C1284 1.350 . S
C1279 N1287 1.427 . S
C1280 H1271 0.930 . S
C1280 C1278 1.378 . S
C1280 C1281 1.367 . S
C1281 C1280 1.367 . S
C1281 C1283 1.433 . S
C1282 C1278 1.350 . S
C1282 C1279 1.463 . S
C1282 N1286 1.427 . S
C1283 H1273 0.929 . S
C1283 C1281 1.433 . S
C1283 N1286 1.384 . S
C1284 H1275 0.929 . S
C1284 C1276 1.378 . S
C1284 C1279 1.350 . S
C1285 H1272 0.929 . S
C1285 C1277 1.433 . S
C1285 N1287 1.384 . S
N1286 C1282 1.427 . S
N1286 C1283 1.384 . S
N1287 C1279 1.427 . S
N1287 C1285 1.384 . S
H1288 C1294 0.930 . S
H1289 C1298 0.930 . S
H1290 C1303 0.929 . S
H1291 C1301 0.929 . S
H1292 C1296 0.929 1_655 S
H1293 C1302 0.929 . S
C1294 H1288 0.930 . S
C1294 C1295 1.367 1_455 S
C1294 C1302 1.378 . S
C1295 C1294 1.367 1_655 S
C1295 C1303 1.433 . S
C1296 H1292 0.929 1_455 S
C1296 C1298 1.378 . S
C1296 C1300 1.350 . S
C1297 C1300 1.463 . S
C1297 C1302 1.350 . S
C1297 N1305 1.427 1_455 S
C1298 H1289 0.930 . S
C1298 C1296 1.378 . S
C1298 C1299 1.367 . S
C1299 C1298 1.367 . S
C1299 C1301 1.433 . S
C1300 C1296 1.350 . S
C1300 C1297 1.463 . S
C1300 N1304 1.427 . S
C1301 H1291 0.929 . S
C1301 C1299 1.433 . S
C1301 N1304 1.384 . S
C1302 H1293 0.929 . S
C1302 C1294 1.378 . S
C1302 C1297 1.350 . S
C1303 H1290 0.929 . S
C1303 C1295 1.433 . S
C1303 N1305 1.384 . S
N1304 C1300 1.427 . S
N1304 C1301 1.384 . S
N1305 C1297 1.427 1_655 S
N1305 C1303 1.384 . S
H1306 C1312 0.930 . S
H1307 C1316 0.930 . S
H1308 C1321 0.929 . S
H1309 C1319 0.929 . S
H1310 C1314 0.929 . S
H1311 C1320 0.929 . S
C1312 H1306 0.930 . S
C1312 C1313 1.367 . S
C1312 C1320 1.378 . S
C1313 C1312 1.367 . S
C1313 C1321 1.433 . S
C1314 H1310 0.929 . S
C1314 C1316 1.378 . S
C1314 C1318 1.350 . S
C1315 C1318 1.463 . S
C1315 C1320 1.350 . S
C1315 N1323 1.427 . S
C1316 H1307 0.930 . S
C1316 C1314 1.378 . S
C1316 C1317 1.367 . S
C1317 C1316 1.367 . S
C1317 C1319 1.433 . S
C1318 C1314 1.350 . S
C1318 C1315 1.463 . S
C1318 N1322 1.427 . S
C1319 H1309 0.929 . S
C1319 C1317 1.433 . S
C1319 N1322 1.384 . S
C1320 H1311 0.929 . S
C1320 C1312 1.378 . S
C1320 C1315 1.350 . S
C1321 H1308 0.929 . S
C1321 C1313 1.433 . S
C1321 N1323 1.384 . S
N1322 C1318 1.427 . S
N1322 C1319 1.384 . S
N1323 C1315 1.427 . S
N1323 C1321 1.384 . S
H1324 C1330 0.930 . S
H1325 C1334 0.930 . S
H1326 C1339 0.929 . S
H1327 C1337 0.929 . S
H1328 C1332 0.929 . S
H1329 C1338 0.929 . S
C1330 H1324 0.930 . S
C1330 C1331 1.367 . S
C1330 C1338 1.378 . S
C1331 C1330 1.367 . S
C1331 C1339 1.433 . S
C1332 H1328 0.929 . S
C1332 C1334 1.378 . S
C1332 C1336 1.350 . S
C1333 C1336 1.463 . S
C1333 C1338 1.350 . S
C1333 N1341 1.427 . S
C1334 H1325 0.930 . S
C1334 C1332 1.378 . S
C1334 C1335 1.367 . S
C1335 C1334 1.367 . S
C1335 C1337 1.433 . S
C1336 C1332 1.350 . S
C1336 C1333 1.463 . S
C1336 N1340 1.427 . S
C1337 H1327 0.929 . S
C1337 C1335 1.433 . S
C1337 N1340 1.384 . S
C1338 H1329 0.929 . S
C1338 C1330 1.378 . S
C1338 C1333 1.350 . S
C1339 H1326 0.929 . S
C1339 C1331 1.433 . S
C1339 N1341 1.384 . S
N1340 C1336 1.427 . S
N1340 C1337 1.384 . S
N1341 C1333 1.427 . S
N1341 C1339 1.384 . S
H1342 C1348 0.930 . S
H1343 C1352 0.930 . S
H1344 C1357 0.929 . S
H1345 C1355 0.929 . S
H1346 C1350 0.929 . S
H1347 C1356 0.929 . S
C1348 H1342 0.930 . S
C1348 C1349 1.367 . S
C1348 C1356 1.378 . S
C1349 C1348 1.367 . S
C1349 C1357 1.433 . S
C1350 H1346 0.929 . S
C1350 C1352 1.378 . S
C1350 C1354 1.350 . S
C1351 C1354 1.463 . S
C1351 C1356 1.350 . S
C1351 N1359 1.427 . S
C1352 H1343 0.930 . S
C1352 C1350 1.378 . S
C1352 C1353 1.367 . S
C1353 C1352 1.367 . S
C1353 C1355 1.433 . S
C1354 C1350 1.350 . S
C1354 C1351 1.463 . S
C1354 N1358 1.427 . S
C1355 H1345 0.929 . S
C1355 C1353 1.433 . S
C1355 N1358 1.384 . S
C1356 H1347 0.929 . S
C1356 C1348 1.378 . S
C1356 C1351 1.350 . S
C1357 H1344 0.929 . S
C1357 C1349 1.433 . S
C1357 N1359 1.384 . S
N1358 C1354 1.427 . S
N1358 C1355 1.384 . S
N1359 C1351 1.427 . S
N1359 C1357 1.384 . S
H1360 C1366 0.930 . S
H1361 C1370 0.930 . S
H1362 C1375 0.929 . S
H1363 C1373 0.929 . S
H1364 C1368 0.929 . S
H1365 C1374 0.929 . S
C1366 H1360 0.930 . S
C1366 C1367 1.367 . S
C1366 C1374 1.378 . S
C1367 C1366 1.367 . S
C1367 C1375 1.433 . S
C1368 H1364 0.929 . S
C1368 C1370 1.378 . S
C1368 C1372 1.350 . S
C1369 C1372 1.463 . S
C1369 C1374 1.350 . S
C1369 N1377 1.427 . S
C1370 H1361 0.930 . S
C1370 C1368 1.378 . S
C1370 C1371 1.367 . S
C1371 C1370 1.367 . S
C1371 C1373 1.433 . S
C1372 C1368 1.350 . S
C1372 C1369 1.463 . S
C1372 N1376 1.427 . S
C1373 H1363 0.929 . S
C1373 C1371 1.433 . S
C1373 N1376 1.384 . S
C1374 H1365 0.929 . S
C1374 C1366 1.378 . S
C1374 C1369 1.350 . S
C1375 H1362 0.929 . S
C1375 C1367 1.433 . S
C1375 N1377 1.384 . S
N1376 C1372 1.427 . S
N1376 C1373 1.384 . S
N1377 C1369 1.427 . S
N1377 C1375 1.384 . S
H1378 C1384 0.930 . S
H1379 C1388 0.930 . S
H1380 C1393 0.929 . S
H1381 C1391 0.929 . S
H1382 C1386 0.929 . S
H1383 C1392 0.929 . S
C1384 H1378 0.930 . S
C1384 C1385 1.367 . S
C1384 C1392 1.378 . S
C1385 C1384 1.367 . S
C1385 C1393 1.433 . S
C1386 H1382 0.929 . S
C1386 C1388 1.378 . S
C1386 C1390 1.350 . S
C1387 C1390 1.463 . S
C1387 C1392 1.350 . S
C1387 N1395 1.427 . S
C1388 H1379 0.930 . S
C1388 C1386 1.378 . S
C1388 C1389 1.367 . S
C1389 C1388 1.367 . S
C1389 C1391 1.433 . S
C1390 C1386 1.350 . S
C1390 C1387 1.463 . S
C1390 N1394 1.427 . S
C1391 H1381 0.929 . S
C1391 C1389 1.433 . S
C1391 N1394 1.384 . S
C1392 H1383 0.929 . S
C1392 C1384 1.378 . S
C1392 C1387 1.350 . S
C1393 H1380 0.929 . S
C1393 C1385 1.433 . S
C1393 N1395 1.384 . S
N1394 C1390 1.427 . S
N1394 C1391 1.384 . S
N1395 C1387 1.427 . S
N1395 C1393 1.384 . S
H1396 C1402 0.930 . S
H1397 C1406 0.930 . S
H1398 C1411 0.929 . S
H1399 C1409 0.929 . S
H1400 C1404 0.929 . S
H1401 C1410 0.929 . S
C1402 H1396 0.930 . S
C1402 C1403 1.367 . S
C1402 C1410 1.378 . S
C1403 C1402 1.367 . S
C1403 C1411 1.433 . S
C1404 H1400 0.929 . S
C1404 C1406 1.378 . S
C1404 C1408 1.350 . S
C1405 C1408 1.463 . S
C1405 C1410 1.350 . S
C1405 N1413 1.427 . S
C1406 H1397 0.930 . S
C1406 C1404 1.378 . S
C1406 C1407 1.367 . S
C1407 C1406 1.367 . S
C1407 C1409 1.433 . S
C1408 C1404 1.350 . S
C1408 C1405 1.463 . S
C1408 N1412 1.427 . S
C1409 H1399 0.929 . S
C1409 C1407 1.433 . S
C1409 N1412 1.384 . S
C1410 H1401 0.929 . S
C1410 C1402 1.378 . S
C1410 C1405 1.350 . S
C1411 H1398 0.929 . S
C1411 C1403 1.433 . S
C1411 N1413 1.384 . S
N1412 C1408 1.427 . S
N1412 C1409 1.384 . S
N1413 C1405 1.427 . S
N1413 C1411 1.384 . S
H1414 C1420 0.930 . S
H1415 C1424 0.930 . S
H1416 C1429 0.929 . S
H1417 C1427 0.929 . S
H1418 C1422 0.929 . S
H1419 C1428 0.929 . S
C1420 H1414 0.930 . S
C1420 C1421 1.367 . S
C1420 C1428 1.378 . S
C1421 C1420 1.367 . S
C1421 C1429 1.433 . S
C1422 H1418 0.929 . S
C1422 C1424 1.378 . S
C1422 C1426 1.350 . S
C1423 C1426 1.463 . S
C1423 C1428 1.350 . S
C1423 N1431 1.427 . S
C1424 H1415 0.930 . S
C1424 C1422 1.378 . S
C1424 C1425 1.367 . S
C1425 C1424 1.367 . S
C1425 C1427 1.433 . S
C1426 C1422 1.350 . S
C1426 C1423 1.463 . S
C1426 N1430 1.427 . S
C1427 H1417 0.929 . S
C1427 C1425 1.433 . S
C1427 N1430 1.384 . S
C1428 H1419 0.929 . S
C1428 C1420 1.378 . S
C1428 C1423 1.350 . S
C1429 H1416 0.929 . S
C1429 C1421 1.433 . S
C1429 N1431 1.384 . S
N1430 C1426 1.427 . S
N1430 C1427 1.384 . S
N1431 C1423 1.427 . S
N1431 C1429 1.384 . S
H1432 C1438 0.930 . S
H1433 C1442 0.930 . S
H1434 C1447 0.929 . S
H1435 C1445 0.929 . S
H1436 C1440 0.935 1_455 S
H1437 C1446 0.929 . S
C1438 H1432 0.930 . S
C1438 C1439 1.365 1_545 S
C1438 C1446 1.378 . S
C1439 C1438 1.365 1_565 S
C1439 C1447 1.435 . S
C1440 H1436 0.935 1_655 S
C1440 C1442 1.378 1_655 S
C1440 C1444 1.350 . S
C1441 C1444 1.463 . S
C1441 C1446 1.350 . S
C1441 N1449 1.427 1_545 S
C1442 H1433 0.930 . S
C1442 C1440 1.378 1_455 S
C1442 C1443 1.375 . S
C1443 C1442 1.375 . S
C1443 C1445 1.418 1_455 S
C1444 C1440 1.350 . S
C1444 C1441 1.463 . S
C1444 N1448 1.427 . S
C1445 H1435 0.929 . S
C1445 C1443 1.418 1_655 S
C1445 N1448 1.384 . S
C1446 H1437 0.929 . S
C1446 C1438 1.378 . S
C1446 C1441 1.350 . S
C1447 H1434 0.929 . S
C1447 C1439 1.435 . S
C1447 N1449 1.384 . S
N1448 C1444 1.427 . S
N1448 C1445 1.384 . S
N1449 C1441 1.427 1_565 S
N1449 C1447 1.384 . S
H1450 C1456 0.930 . S
H1451 C1460 0.930 . S
H1452 C1465 0.929 . S
H1453 C1463 0.929 . S
H1454 C1458 0.929 . S
H1455 C1464 0.929 . S
C1456 H1450 0.930 . S
C1456 C1457 1.367 . S
C1456 C1464 1.378 . S
C1457 C1456 1.367 . S
C1457 C1465 1.433 . S
C1458 H1454 0.929 . S
C1458 C1460 1.378 . S
C1458 C1462 1.350 . S
C1459 C1462 1.463 . S
C1459 C1464 1.350 . S
C1459 N1467 1.427 . S
C1460 H1451 0.930 . S
C1460 C1458 1.378 . S
C1460 C1461 1.367 . S
C1461 C1460 1.367 . S
C1461 C1463 1.433 . S
C1462 C1458 1.350 . S
C1462 C1459 1.463 . S
C1462 N1466 1.427 . S
C1463 H1453 0.929 . S
C1463 C1461 1.433 . S
C1463 N1466 1.384 . S
C1464 H1455 0.929 . S
C1464 C1456 1.378 . S
C1464 C1459 1.350 . S
C1465 H1452 0.929 . S
C1465 C1457 1.433 . S
C1465 N1467 1.384 . S
N1466 C1462 1.427 . S
N1466 C1463 1.384 . S
N1467 C1459 1.427 . S
N1467 C1465 1.384 . S
H1468 C1474 0.930 . S
H1469 C1478 0.930 . S
H1470 C1483 0.929 1_565 S
H1471 C1481 0.929 . S
H1472 C1476 0.929 . S
H1473 C1482 0.929 . S
C1474 H1468 0.930 . S
C1474 C1475 1.367 . S
C1474 C1482 1.378 . S
C1475 C1474 1.367 . S
C1475 C1483 1.433 . S
C1476 H1472 0.929 . S
C1476 C1478 1.378 . S
C1476 C1480 1.350 1_565 S
C1477 C1480 1.463 . S
C1477 C1482 1.350 . S
C1477 N1485 1.427 1_545 S
C1478 H1469 0.930 . S
C1478 C1476 1.378 . S
C1478 C1479 1.367 1_565 S
C1479 C1478 1.367 1_545 S
C1479 C1481 1.433 . S
C1480 C1476 1.350 1_545 S
C1480 C1477 1.463 . S
C1480 N1484 1.427 . S
C1481 H1471 0.929 . S
C1481 C1479 1.433 . S
C1481 N1484 1.384 . S
C1482 H1473 0.929 . S
C1482 C1474 1.378 . S
C1482 C1477 1.350 . S
C1483 H1470 0.929 1_545 S
C1483 C1475 1.433 . S
C1483 N1485 1.384 1_545 S
N1484 C1480 1.427 . S
N1484 C1481 1.384 . S
N1485 C1477 1.427 1_565 S
N1485 C1483 1.384 1_565 S
H1486 C1492 0.930 . S
H1487 C1496 0.930 . S
H1488 C1501 0.929 . S
H1489 C1499 0.929 . S
H1490 C1494 0.929 . S
H1491 C1500 0.929 . S
C1492 H1486 0.930 . S
C1492 C1493 1.367 . S
C1492 C1500 1.378 . S
C1493 C1492 1.367 . S
C1493 C1501 1.433 . S
C1494 H1490 0.929 . S
C1494 C1496 1.378 . S
C1494 C1498 1.350 . S
C1495 C1498 1.463 . S
C1495 C1500 1.350 . S
C1495 N1503 1.427 . S
C1496 H1487 0.930 . S
C1496 C1494 1.378 . S
C1496 C1497 1.367 . S
C1497 C1496 1.367 . S
C1497 C1499 1.433 . S
C1498 C1494 1.350 . S
C1498 C1495 1.463 . S
C1498 N1502 1.427 . S
C1499 H1489 0.929 . S
C1499 C1497 1.433 . S
C1499 N1502 1.384 . S
C1500 H1491 0.929 . S
C1500 C1492 1.378 . S
C1500 C1495 1.350 . S
C1501 H1488 0.929 . S
C1501 C1493 1.433 . S
C1501 N1503 1.384 . S
N1502 C1498 1.427 . S
N1502 C1499 1.384 . S
N1503 C1495 1.427 . S
N1503 C1501 1.384 . S
H1504 C1510 0.930 . S
H1505 C1514 0.930 . S
H1506 C1519 0.929 . S
H1507 C1517 0.929 . S
H1508 C1512 0.929 . S
H1509 C1518 0.929 . S
C1510 H1504 0.930 . S
C1510 C1511 1.367 1_565 S
C1510 C1518 1.378 . S
C1511 C1510 1.367 1_545 S
C1511 C1519 1.433 . S
C1512 H1508 0.929 . S
C1512 C1514 1.378 . S
C1512 C1516 1.350 1_545 S
C1513 C1516 1.463 . S
C1513 C1518 1.350 . S
C1513 N1521 1.427 1_565 S
C1514 H1505 0.930 . S
C1514 C1512 1.378 . S
C1514 C1515 1.367 1_545 S
C1515 C1514 1.367 1_565 S
C1515 C1517 1.433 . S
C1516 C1512 1.350 1_565 S
C1516 C1513 1.463 . S
C1516 N1520 1.427 . S
C1517 H1507 0.929 . S
C1517 C1515 1.433 . S
C1517 N1520 1.384 . S
C1518 H1509 0.929 . S
C1518 C1510 1.378 . S
C1518 C1513 1.350 . S
C1519 H1506 0.929 . S
C1519 C1511 1.433 . S
C1519 N1521 1.384 . S
N1520 C1516 1.427 . S
N1520 C1517 1.384 . S
N1521 C1513 1.427 1_545 S
N1521 C1519 1.384 . S
H1522 C1528 0.930 . S
H1523 C1532 0.930 . S
H1524 C1537 0.929 . S
H1525 C1535 0.929 . S
H1526 C1530 0.929 . S
H1527 C1536 0.929 . S
C1528 H1522 0.930 . S
C1528 C1529 1.367 . S
C1528 C1536 1.378 . S
C1529 C1528 1.367 . S
C1529 C1537 1.433 . S
C1530 H1526 0.929 . S
C1530 C1532 1.378 . S
C1530 C1534 1.350 . S
C1531 C1534 1.463 . S
C1531 C1536 1.350 . S
C1531 N1539 1.427 . S
C1532 H1523 0.930 . S
C1532 C1530 1.378 . S
C1532 C1533 1.367 . S
C1533 C1532 1.367 . S
C1533 C1535 1.433 . S
C1534 C1530 1.350 . S
C1534 C1531 1.463 . S
C1534 N1538 1.427 . S
C1535 H1525 0.929 . S
C1535 C1533 1.433 . S
C1535 N1538 1.384 . S
C1536 H1527 0.929 . S
C1536 C1528 1.378 . S
C1536 C1531 1.350 . S
C1537 H1524 0.929 . S
C1537 C1529 1.433 . S
C1537 N1539 1.384 . S
N1538 C1534 1.427 . S
N1538 C1535 1.384 . S
N1539 C1531 1.427 . S
N1539 C1537 1.384 . S
H1540 C1546 0.930 . S
H1541 C1550 0.930 . S
H1542 C1555 0.929 . S
H1543 C1553 0.929 . S
H1544 C1548 0.929 1_565 S
H1545 C1554 0.929 . S
C1546 H1540 0.930 . S
C1546 C1547 1.367 . S
C1546 C1554 1.378 . S
C1547 C1546 1.367 . S
C1547 C1555 1.433 1_545 S
C1548 H1544 0.929 1_545 S
C1548 C1550 1.378 . S
C1548 C1552 1.350 . S
C1549 C1552 1.463 . S
C1549 C1554 1.350 . S
C1549 N1557 1.427 1_545 S
C1550 H1541 0.930 . S
C1550 C1548 1.378 . S
C1550 C1551 1.367 . S
C1551 C1550 1.367 . S
C1551 C1553 1.433 . S
C1552 C1548 1.350 . S
C1552 C1549 1.463 . S
C1552 N1556 1.427 . S
C1553 H1543 0.929 . S
C1553 C1551 1.433 . S
C1553 N1556 1.384 . S
C1554 H1545 0.929 . S
C1554 C1546 1.378 . S
C1554 C1549 1.350 . S
C1555 H1542 0.929 . S
C1555 C1547 1.433 1_565 S
C1555 N1557 1.384 . S
N1556 C1552 1.427 . S
N1556 C1553 1.384 . S
N1557 C1549 1.427 1_565 S
N1557 C1555 1.384 . S
H1558 C1564 0.930 . S
H1559 C1568 0.930 . S
H1560 C1573 0.929 . S
H1561 C1571 0.929 . S
H1562 C1566 0.929 . S
H1563 C1572 0.929 . S
C1564 H1558 0.930 . S
C1564 C1565 1.367 . S
C1564 C1572 1.378 . S
C1565 C1564 1.367 . S
C1565 C1573 1.433 . S
C1566 H1562 0.929 . S
C1566 C1568 1.378 . S
C1566 C1570 1.350 . S
C1567 C1570 1.463 . S
C1567 C1572 1.350 . S
C1567 N1575 1.427 . S
C1568 H1559 0.930 . S
C1568 C1566 1.378 . S
C1568 C1569 1.367 . S
C1569 C1568 1.367 . S
C1569 C1571 1.433 . S
C1570 C1566 1.350 . S
C1570 C1567 1.463 . S
C1570 N1574 1.427 . S
C1571 H1561 0.929 . S
C1571 C1569 1.433 . S
C1571 N1574 1.384 . S
C1572 H1563 0.929 . S
C1572 C1564 1.378 . S
C1572 C1567 1.350 . S
C1573 H1560 0.929 . S
C1573 C1565 1.433 . S
C1573 N1575 1.384 . S
N1574 C1570 1.427 . S
N1574 C1571 1.384 . S
N1575 C1567 1.427 . S
N1575 C1573 1.384 . S
H1576 C1582 0.930 . S
H1577 C1586 0.930 . S
H1578 C1591 0.929 . S
H1579 C1589 0.929 1_545 S
H1580 C1584 0.929 . S
H1581 C1590 0.929 . S
C1582 H1576 0.930 . S
C1582 C1583 1.367 . S
C1582 C1590 1.378 . S
C1583 C1582 1.367 . S
C1583 C1591 1.433 . S
C1584 H1580 0.929 . S
C1584 C1586 1.378 . S
C1584 C1588 1.350 . S
C1585 C1588 1.463 . S
C1585 C1590 1.350 . S
C1585 N1593 1.427 . S
C1586 H1577 0.930 . S
C1586 C1584 1.378 . S
C1586 C1587 1.367 . S
C1587 C1586 1.367 . S
C1587 C1589 1.433 . S
C1588 C1584 1.350 . S
C1588 C1585 1.463 . S
C1588 N1592 1.427 . S
C1589 H1579 0.929 1_565 S
C1589 C1587 1.433 . S
C1589 N1592 1.384 . S
C1590 H1581 0.929 . S
C1590 C1582 1.378 . S
C1590 C1585 1.350 . S
C1591 H1578 0.929 . S
C1591 C1583 1.433 . S
C1591 N1593 1.384 . S
N1592 C1588 1.427 . S
N1592 C1589 1.384 . S
N1593 C1585 1.427 . S
N1593 C1591 1.384 . S
H1594 C1600 0.930 . S
H1595 C1604 0.930 . S
H1596 C1609 0.929 . S
H1597 C1607 0.929 . S
H1598 C1602 0.929 . S
H1599 C1608 0.929 . S
C1600 H1594 0.930 . S
C1600 C1601 1.367 . S
C1600 C1608 1.378 . S
C1601 C1600 1.367 . S
C1601 C1609 1.433 1_554 S
C1602 H1598 0.929 . S
C1602 C1604 1.378 . S
C1602 C1606 1.350 1_556 S
C1603 C1606 1.463 . S
C1603 C1608 1.350 . S
C1603 N1611 1.427 1_554 S
C1604 H1595 0.930 . S
C1604 C1602 1.378 . S
C1604 C1605 1.367 1_556 S
C1605 C1604 1.367 1_554 S
C1605 C1607 1.433 . S
C1606 C1602 1.350 1_554 S
C1606 C1603 1.463 . S
C1606 N1610 1.427 . S
C1607 H1597 0.929 . S
C1607 C1605 1.433 . S
C1607 N1610 1.384 . S
C1608 H1599 0.929 . S
C1608 C1600 1.378 . S
C1608 C1603 1.350 . S
C1609 H1596 0.929 . S
C1609 C1601 1.433 1_556 S
C1609 N1611 1.384 . S
N1610 C1606 1.427 . S
N1610 C1607 1.384 . S
N1611 C1603 1.427 1_556 S
N1611 C1609 1.384 . S
H1612 C1618 0.930 . S
H1613 C1622 0.930 . S
H1614 C1627 0.929 . S
H1615 C1625 0.929 . S
H1616 C1620 0.929 . S
H1617 C1626 0.929 . S
C1618 H1612 0.930 . S
C1618 C1619 1.367 . S
C1618 C1626 1.378 . S
C1619 C1618 1.367 . S
C1619 C1627 1.433 . S
C1620 H1616 0.929 . S
C1620 C1622 1.378 . S
C1620 C1624 1.350 . S
C1621 C1624 1.463 . S
C1621 C1626 1.350 . S
C1621 N1629 1.427 . S
C1622 H1613 0.930 . S
C1622 C1620 1.378 . S
C1622 C1623 1.367 . S
C1623 C1622 1.367 . S
C1623 C1625 1.433 . S
C1624 C1620 1.350 . S
C1624 C1621 1.463 . S
C1624 N1628 1.427 . S
C1625 H1615 0.929 . S
C1625 C1623 1.433 . S
C1625 N1628 1.384 . S
C1626 H1617 0.929 . S
C1626 C1618 1.378 . S
C1626 C1621 1.350 . S
C1627 H1614 0.929 . S
C1627 C1619 1.433 . S
C1627 N1629 1.384 . S
N1628 C1624 1.427 . S
N1628 C1625 1.384 . S
N1629 C1621 1.427 . S
N1629 C1627 1.384 . S
H1630 C1636 0.930 . S
H1631 C1640 0.930 . S
H1632 C1645 0.929 . S
H1633 C1643 0.929 . S
H1634 C1638 0.929 . S
H1635 C1644 0.929 . S
C1636 H1630 0.930 . S
C1636 C1637 1.367 . S
C1636 C1644 1.378 . S
C1637 C1636 1.367 . S
C1637 C1645 1.433 . S
C1638 H1634 0.929 . S
C1638 C1640 1.378 . S
C1638 C1642 1.350 . S
C1639 C1642 1.463 . S
C1639 C1644 1.350 . S
C1639 N1647 1.427 . S
C1640 H1631 0.930 . S
C1640 C1638 1.378 . S
C1640 C1641 1.367 . S
C1641 C1640 1.367 . S
C1641 C1643 1.433 . S
C1642 C1638 1.350 . S
C1642 C1639 1.463 . S
C1642 N1646 1.427 . S
C1643 H1633 0.929 . S
C1643 C1641 1.433 . S
C1643 N1646 1.384 . S
C1644 H1635 0.929 . S
C1644 C1636 1.378 . S
C1644 C1639 1.350 . S
C1645 H1632 0.929 . S
C1645 C1637 1.433 . S
C1645 N1647 1.384 . S
N1646 C1642 1.427 . S
N1646 C1643 1.384 . S
N1647 C1639 1.427 . S
N1647 C1645 1.384 . S
H1648 C1654 0.930 . S
H1649 C1658 0.930 . S
H1650 C1663 0.929 . S
H1651 C1661 0.929 . S
H1652 C1656 0.929 . S
H1653 C1662 0.929 . S
C1654 H1648 0.930 . S
C1654 C1655 1.367 . S
C1654 C1662 1.378 . S
C1655 C1654 1.367 . S
C1655 C1663 1.433 . S
C1656 H1652 0.929 . S
C1656 C1658 1.378 . S
C1656 C1660 1.350 . S
C1657 C1660 1.463 . S
C1657 C1662 1.350 . S
C1657 N1665 1.427 . S
C1658 H1649 0.930 . S
C1658 C1656 1.378 . S
C1658 C1659 1.367 . S
C1659 C1658 1.367 . S
C1659 C1661 1.433 . S
C1660 C1656 1.350 . S
C1660 C1657 1.463 . S
C1660 N1664 1.427 . S
C1661 H1651 0.929 . S
C1661 C1659 1.433 . S
C1661 N1664 1.384 . S
C1662 H1653 0.929 . S
C1662 C1654 1.378 . S
C1662 C1657 1.350 . S
C1663 H1650 0.929 . S
C1663 C1655 1.433 . S
C1663 N1665 1.384 . S
N1664 C1660 1.427 . S
N1664 C1661 1.384 . S
N1665 C1657 1.427 . S
N1665 C1663 1.384 . S
H1666 C1672 0.930 . S
H1667 C1676 0.930 . S
H1668 C1681 0.929 . S
H1669 C1679 0.929 . S
H1670 C1674 0.929 . S
H1671 C1680 0.929 . S
C1672 H1666 0.930 . S
C1672 C1673 1.367 . S
C1672 C1680 1.378 . S
C1673 C1672 1.367 . S
C1673 C1681 1.433 . S
C1674 H1670 0.929 . S
C1674 C1676 1.378 . S
C1674 C1678 1.350 . S
C1675 C1678 1.463 . S
C1675 C1680 1.350 . S
C1675 N1683 1.427 . S
C1676 H1667 0.930 . S
C1676 C1674 1.378 . S
C1676 C1677 1.367 . S
C1677 C1676 1.367 . S
C1677 C1679 1.433 . S
C1678 C1674 1.350 . S
C1678 C1675 1.463 . S
C1678 N1682 1.427 . S
C1679 H1669 0.929 . S
C1679 C1677 1.433 . S
C1679 N1682 1.384 . S
C1680 H1671 0.929 . S
C1680 C1672 1.378 . S
C1680 C1675 1.350 . S
C1681 H1668 0.929 . S
C1681 C1673 1.433 . S
C1681 N1683 1.384 . S
N1682 C1678 1.427 . S
N1682 C1679 1.384 . S
N1683 C1675 1.427 . S
N1683 C1681 1.384 . S
H1684 C1690 0.930 . S
H1685 C1694 0.930 . S
H1686 C1699 0.929 . S
H1687 C1697 0.929 . S
H1688 C1692 0.929 . S
H1689 C1698 0.929 . S
C1690 H1684 0.930 . S
C1690 C1691 1.367 . S
C1690 C1698 1.378 . S
C1691 C1690 1.367 . S
C1691 C1699 1.433 . S
C1692 H1688 0.929 . S
C1692 C1694 1.378 . S
C1692 C1696 1.350 . S
C1693 C1696 1.463 . S
C1693 C1698 1.350 . S
C1693 N1701 1.427 . S
C1694 H1685 0.930 . S
C1694 C1692 1.378 . S
C1694 C1695 1.367 . S
C1695 C1694 1.367 . S
C1695 C1697 1.433 . S
C1696 C1692 1.350 . S
C1696 C1693 1.463 . S
C1696 N1700 1.427 . S
C1697 H1687 0.929 . S
C1697 C1695 1.433 . S
C1697 N1700 1.384 . S
C1698 H1689 0.929 . S
C1698 C1690 1.378 . S
C1698 C1693 1.350 . S
C1699 H1686 0.929 . S
C1699 C1691 1.433 . S
C1699 N1701 1.384 . S
N1700 C1696 1.427 . S
N1700 C1697 1.384 . S
N1701 C1693 1.427 . S
N1701 C1699 1.384 . S
H1702 C1708 0.930 . S
H1703 C1712 0.930 . S
H1704 C1717 0.929 . S
H1705 C1715 0.929 . S
H1706 C1710 0.929 . S
H1707 C1716 0.929 . S
C1708 H1702 0.930 . S
C1708 C1709 1.367 . S
C1708 C1716 1.378 . S
C1709 C1708 1.367 . S
C1709 C1717 1.433 . S
C1710 H1706 0.929 . S
C1710 C1712 1.378 . S
C1710 C1714 1.350 . S
C1711 C1714 1.463 . S
C1711 C1716 1.350 . S
C1711 N1719 1.427 . S
C1712 H1703 0.930 . S
C1712 C1710 1.378 . S
C1712 C1713 1.367 . S
C1713 C1712 1.367 . S
C1713 C1715 1.433 . S
C1714 C1710 1.350 . S
C1714 C1711 1.463 . S
C1714 N1718 1.427 . S
C1715 H1705 0.929 . S
C1715 C1713 1.433 . S
C1715 N1718 1.384 . S
C1716 H1707 0.929 . S
C1716 C1708 1.378 . S
C1716 C1711 1.350 . S
C1717 H1704 0.929 . S
C1717 C1709 1.433 . S
C1717 N1719 1.384 . S
N1718 C1714 1.427 . S
N1718 C1715 1.384 . S
N1719 C1711 1.427 . S
N1719 C1717 1.384 . S
H1720 C1726 0.930 . S
H1721 C1730 0.930 . S
H1722 C1735 0.929 . S
H1723 C1733 0.929 . S
H1724 C1728 0.929 . S
H1725 C1734 0.929 . S
C1726 H1720 0.930 . S
C1726 C1727 1.367 . S
C1726 C1734 1.378 . S
C1727 C1726 1.367 . S
C1727 C1735 1.433 . S
C1728 H1724 0.929 . S
C1728 C1730 1.378 . S
C1728 C1732 1.350 . S
C1729 C1732 1.463 . S
C1729 C1734 1.350 . S
C1729 N1737 1.427 . S
C1730 H1721 0.930 . S
C1730 C1728 1.378 . S
C1730 C1731 1.367 . S
C1731 C1730 1.367 . S
C1731 C1733 1.433 . S
C1732 C1728 1.350 . S
C1732 C1729 1.463 . S
C1732 N1736 1.427 . S
C1733 H1723 0.929 . S
C1733 C1731 1.433 . S
C1733 N1736 1.384 . S
C1734 H1725 0.929 . S
C1734 C1726 1.378 . S
C1734 C1729 1.350 . S
C1735 H1722 0.929 . S
C1735 C1727 1.433 . S
C1735 N1737 1.384 . S
N1736 C1732 1.427 . S
N1736 C1733 1.384 . S
N1737 C1729 1.427 . S
N1737 C1735 1.384 . S
H1738 C1744 0.930 . S
H1739 C1748 0.930 . S
H1740 C1753 0.929 . S
H1741 C1751 0.929 . S
H1742 C1746 0.929 . S
H1743 C1752 0.929 . S
C1744 H1738 0.930 . S
C1744 C1745 1.367 . S
C1744 C1752 1.378 . S
C1745 C1744 1.367 . S
C1745 C1753 1.433 . S
C1746 H1742 0.929 . S
C1746 C1748 1.378 . S
C1746 C1750 1.350 . S
C1747 C1750 1.463 . S
C1747 C1752 1.350 . S
C1747 N1755 1.427 . S
C1748 H1739 0.930 . S
C1748 C1746 1.378 . S
C1748 C1749 1.367 . S
C1749 C1748 1.367 . S
C1749 C1751 1.433 . S
C1750 C1746 1.350 . S
C1750 C1747 1.463 . S
C1750 N1754 1.427 . S
C1751 H1741 0.929 . S
C1751 C1749 1.433 . S
C1751 N1754 1.384 . S
C1752 H1743 0.929 . S
C1752 C1744 1.378 . S
C1752 C1747 1.350 . S
C1753 H1740 0.929 . S
C1753 C1745 1.433 . S
C1753 N1755 1.384 . S
N1754 C1750 1.427 . S
N1754 C1751 1.384 . S
N1755 C1747 1.427 . S
N1755 C1753 1.384 . S
H1756 C1762 0.930 . S
H1757 C1766 0.930 . S
H1758 C1771 0.929 . S
H1759 C1769 0.929 . S
H1760 C1764 0.929 . S
H1761 C1770 0.929 . S
C1762 H1756 0.930 . S
C1762 C1763 1.367 . S
C1762 C1770 1.378 . S
C1763 C1762 1.367 . S
C1763 C1771 1.433 . S
C1764 H1760 0.929 . S
C1764 C1766 1.378 . S
C1764 C1768 1.350 . S
C1765 C1768 1.463 . S
C1765 C1770 1.350 . S
C1765 N1773 1.427 . S
C1766 H1757 0.930 . S
C1766 C1764 1.378 . S
C1766 C1767 1.367 . S
C1767 C1766 1.367 . S
C1767 C1769 1.433 . S
C1768 C1764 1.350 . S
C1768 C1765 1.463 . S
C1768 N1772 1.427 . S
C1769 H1759 0.929 . S
C1769 C1767 1.433 . S
C1769 N1772 1.384 . S
C1770 H1761 0.929 . S
C1770 C1762 1.378 . S
C1770 C1765 1.350 . S
C1771 H1758 0.929 . S
C1771 C1763 1.433 . S
C1771 N1773 1.384 . S
N1772 C1768 1.427 . S
N1772 C1769 1.384 . S
N1773 C1765 1.427 . S
N1773 C1771 1.384 . S
H1774 C1780 0.930 . S
H1775 C1784 0.930 . S
H1776 C1789 0.929 . S
H1777 C1787 0.929 . S
H1778 C1782 0.929 . S
H1779 C1788 0.929 . S
C1780 H1774 0.930 . S
C1780 C1781 1.367 . S
C1780 C1788 1.378 . S
C1781 C1780 1.367 . S
C1781 C1789 1.433 . S
C1782 H1778 0.929 . S
C1782 C1784 1.378 . S
C1782 C1786 1.350 . S
C1783 C1786 1.463 . S
C1783 C1788 1.350 . S
C1783 N1791 1.427 . S
C1784 H1775 0.930 . S
C1784 C1782 1.378 . S
C1784 C1785 1.367 . S
C1785 C1784 1.367 . S
C1785 C1787 1.433 . S
C1786 C1782 1.350 . S
C1786 C1783 1.463 . S
C1786 N1790 1.427 . S
C1787 H1777 0.929 . S
C1787 C1785 1.433 . S
C1787 N1790 1.384 . S
C1788 H1779 0.929 . S
C1788 C1780 1.378 . S
C1788 C1783 1.350 . S
C1789 H1776 0.929 . S
C1789 C1781 1.433 . S
C1789 N1791 1.384 . S
N1790 C1786 1.427 . S
N1790 C1787 1.384 . S
N1791 C1783 1.427 . S
N1791 C1789 1.384 . S
H1792 C1798 0.930 . S
H1793 C1802 0.930 . S
H1794 C1807 0.929 . S
H1795 C1805 0.929 . S
H1796 C1800 0.929 . S
H1797 C1806 0.929 . S
C1798 H1792 0.930 . S
C1798 C1799 1.367 . S
C1798 C1806 1.378 . S
C1799 C1798 1.367 . S
C1799 C1807 1.433 . S
C1800 H1796 0.929 . S
C1800 C1802 1.378 . S
C1800 C1804 1.350 . S
C1801 C1804 1.463 . S
C1801 C1806 1.350 . S
C1801 N1809 1.427 . S
C1802 H1793 0.930 . S
C1802 C1800 1.378 . S
C1802 C1803 1.367 . S
C1803 C1802 1.367 . S
C1803 C1805 1.433 1_556 S
C1804 C1800 1.350 . S
C1804 C1801 1.463 . S
C1804 N1808 1.427 . S
C1805 H1795 0.929 . S
C1805 C1803 1.433 1_554 S
C1805 N1808 1.384 1_554 S
C1806 H1797 0.929 . S
C1806 C1798 1.378 . S
C1806 C1801 1.350 . S
C1807 H1794 0.929 . S
C1807 C1799 1.433 . S
C1807 N1809 1.384 . S
N1808 C1804 1.427 . S
N1808 C1805 1.384 1_556 S
N1809 C1801 1.427 . S
N1809 C1807 1.384 . S
H1810 C1816 0.930 . S
H1811 C1820 0.930 . S
H1812 C1825 0.927 . S
H1813 C1823 0.929 . S
H1814 C1818 0.929 . S
H1815 C1824 0.929 . S
C1816 H1810 0.930 . S
C1816 C1817 1.367 1_655 S
C1816 C1824 1.378 . S
C1817 C1816 1.367 1_455 S
C1817 C1825 1.433 . S
C1818 H1814 0.929 . S
C1818 C1820 1.378 . S
C1818 C1822 1.350 . S
C1819 C1822 1.463 . S
C1819 C1824 1.350 . S
C1819 N1827 1.427 . S
C1820 H1811 0.930 . S
C1820 C1818 1.378 . S
C1820 C1821 1.367 . S
C1821 C1820 1.367 . S
C1821 C1823 1.433 . S
C1822 C1818 1.350 . S
C1822 C1819 1.463 . S
C1822 N1826 1.427 . S
C1823 H1813 0.929 . S
C1823 C1821 1.433 . S
C1823 N1826 1.384 . S
C1824 H1815 0.929 . S
C1824 C1816 1.378 . S
C1824 C1819 1.350 . S
C1825 H1812 0.927 . S
C1825 C1817 1.433 . S
C1825 N1827 1.386 1_455 S
N1826 C1822 1.427 . S
N1826 C1823 1.384 . S
N1827 C1819 1.427 . S
N1827 C1825 1.386 1_655 S
H1828 C1834 0.930 . S
H1829 C1838 0.930 . S
H1830 C1843 0.929 . S
H1831 C1841 0.929 . S
H1832 C1836 0.929 . S
H1833 C1842 0.929 . S
C1834 H1828 0.930 . S
C1834 C1835 1.367 . S
C1834 C1842 1.378 . S
C1835 C1834 1.367 . S
C1835 C1843 1.433 . S
C1836 H1832 0.929 . S
C1836 C1838 1.378 . S
C1836 C1840 1.350 . S
C1837 C1840 1.463 . S
C1837 C1842 1.350 . S
C1837 N1845 1.427 . S
C1838 H1829 0.930 . S
C1838 C1836 1.378 . S
C1838 C1839 1.367 . S
C1839 C1838 1.367 . S
C1839 C1841 1.433 . S
C1840 C1836 1.350 . S
C1840 C1837 1.463 . S
C1840 N1844 1.427 . S
C1841 H1831 0.929 . S
C1841 C1839 1.433 . S
C1841 N1844 1.384 . S
C1842 H1833 0.929 . S
C1842 C1834 1.378 . S
C1842 C1837 1.350 . S
C1843 H1830 0.929 . S
C1843 C1835 1.433 . S
C1843 N1845 1.384 . S
N1844 C1840 1.427 . S
N1844 C1841 1.384 . S
N1845 C1837 1.427 . S
N1845 C1843 1.384 . S
H1846 C1852 0.930 . S
H1847 C1856 0.930 . S
H1848 C1861 0.929 . S
H1849 C1859 0.929 . S
H1850 C1854 0.929 . S
H1851 C1860 0.929 . S
C1852 H1846 0.930 . S
C1852 C1853 1.367 . S
C1852 C1860 1.378 . S
C1853 C1852 1.367 . S
C1853 C1861 1.433 . S
C1854 H1850 0.929 . S
C1854 C1856 1.378 . S
C1854 C1858 1.350 . S
C1855 C1858 1.463 . S
C1855 C1860 1.350 . S
C1855 N1863 1.427 . S
C1856 H1847 0.930 . S
C1856 C1854 1.378 . S
C1856 C1857 1.367 . S
C1857 C1856 1.367 . S
C1857 C1859 1.433 . S
C1858 C1854 1.350 . S
C1858 C1855 1.463 . S
C1858 N1862 1.427 . S
C1859 H1849 0.929 . S
C1859 C1857 1.433 . S
C1859 N1862 1.384 . S
C1860 H1851 0.929 . S
C1860 C1852 1.378 . S
C1860 C1855 1.350 . S
C1861 H1848 0.929 . S
C1861 C1853 1.433 . S
C1861 N1863 1.384 . S
N1862 C1858 1.427 . S
N1862 C1859 1.384 . S
N1863 C1855 1.427 . S
N1863 C1861 1.384 . S
H1864 C1870 0.930 . S
H1865 C1874 0.930 . S
H1866 C1879 0.929 . S
H1867 C1877 0.929 . S
H1868 C1872 0.929 . S
H1869 C1878 0.929 . S
C1870 H1864 0.930 . S
C1870 C1871 1.367 . S
C1870 C1878 1.378 . S
C1871 C1870 1.367 . S
C1871 C1879 1.433 . S
C1872 H1868 0.929 . S
C1872 C1874 1.378 . S
C1872 C1876 1.350 . S
C1873 C1876 1.463 . S
C1873 C1878 1.350 . S
C1873 N1881 1.427 . S
C1874 H1865 0.930 . S
C1874 C1872 1.378 . S
C1874 C1875 1.367 . S
C1875 C1874 1.367 . S
C1875 C1877 1.433 . S
C1876 C1872 1.350 . S
C1876 C1873 1.463 . S
C1876 N1880 1.427 . S
C1877 H1867 0.929 . S
C1877 C1875 1.433 . S
C1877 N1880 1.384 . S
C1878 H1869 0.929 . S
C1878 C1870 1.378 . S
C1878 C1873 1.350 . S
C1879 H1866 0.929 . S
C1879 C1871 1.433 . S
C1879 N1881 1.384 . S
N1880 C1876 1.427 . S
N1880 C1877 1.384 . S
N1881 C1873 1.427 . S
N1881 C1879 1.384 . S
H1882 C1888 0.930 . S
H1883 C1892 0.930 . S
H1884 C1897 0.969 . S
H1885 C1895 0.929 . S
H1886 C1890 0.929 . S
H1887 C1896 0.929 . S
C1888 H1882 0.930 . S
C1888 C1889 1.367 . S
C1888 C1896 1.378 . S
C1889 C1888 1.367 . S
C1889 C1897 1.433 . S
C1890 H1886 0.929 . S
C1890 C1892 1.378 . S
C1890 C1894 1.350 . S
C1891 C1894 1.463 . S
C1891 C1896 1.350 . S
C1891 N1899 1.427 . S
C1892 H1883 0.930 . S
C1892 C1890 1.378 . S
C1892 C1893 1.367 . S
C1893 C1892 1.367 . S
C1893 C1895 1.433 . S
C1894 C1890 1.350 . S
C1894 C1891 1.463 . S
C1894 N1898 1.427 . S
C1895 H1885 0.929 . S
C1895 C1893 1.433 . S
C1895 N1898 1.384 . S
C1896 H1887 0.929 . S
C1896 C1888 1.378 . S
C1896 C1891 1.350 . S
C1897 H1884 0.969 . S
C1897 C1889 1.433 . S
C1897 N1899 1.384 . S
N1898 C1894 1.427 . S
N1898 C1895 1.384 . S
N1899 C1891 1.427 . S
N1899 C1897 1.384 . S
H1900 C1906 0.930 . S
H1901 C1910 0.930 . S
H1902 C1915 0.929 . S
H1903 C1913 0.929 . S
H1904 C1908 0.929 . S
H1905 C1914 0.929 . S
C1906 H1900 0.930 . S
C1906 C1907 1.367 . S
C1906 C1914 1.378 . S
C1907 C1906 1.367 . S
C1907 C1915 1.433 . S
C1908 H1904 0.929 . S
C1908 C1910 1.378 1_655 S
C1908 C1912 1.350 . S
C1909 C1912 1.463 . S
C1909 C1914 1.350 . S
C1909 N1917 1.427 . S
C1910 H1901 0.930 . S
C1910 C1908 1.378 1_455 S
C1910 C1911 1.367 . S
C1911 C1910 1.367 . S
C1911 C1913 1.433 1_455 S
C1912 C1908 1.350 . S
C1912 C1909 1.463 . S
C1912 N1916 1.427 . S
C1913 H1903 0.929 . S
C1913 C1911 1.433 1_655 S
C1913 N1916 1.384 . S
C1914 H1905 0.929 . S
C1914 C1906 1.378 . S
C1914 C1909 1.350 . S
C1915 H1902 0.929 . S
C1915 C1907 1.433 . S
C1915 N1917 1.384 . S
N1916 C1912 1.427 . S
N1916 C1913 1.384 . S
N1917 C1909 1.427 . S
N1917 C1915 1.384 . S
H1918 C1924 0.930 . S
H1919 C1928 0.930 . S
H1920 C1933 0.929 . S
H1921 C1931 0.929 . S
H1922 C1926 0.929 . S
H1923 C1932 0.929 . S
C1924 H1918 0.930 . S
C1924 C1925 1.367 . S
C1924 C1932 1.378 . S
C1925 C1924 1.367 . S
C1925 C1933 1.433 . S
C1926 H1922 0.929 . S
C1926 C1928 1.378 . S
C1926 C1930 1.350 . S
C1927 C1930 1.463 . S
C1927 C1932 1.350 . S
C1927 N1935 1.427 . S
C1928 H1919 0.930 . S
C1928 C1926 1.378 . S
C1928 C1929 1.367 . S
C1929 C1928 1.367 . S
C1929 C1931 1.433 . S
C1930 C1926 1.350 . S
C1930 C1927 1.463 . S
C1930 N1934 1.427 . S
C1931 H1921 0.929 . S
C1931 C1929 1.433 . S
C1931 N1934 1.384 . S
C1932 H1923 0.929 . S
C1932 C1924 1.378 . S
C1932 C1927 1.350 . S
C1933 H1920 0.929 . S
C1933 C1925 1.433 . S
C1933 N1935 1.384 . S
N1934 C1930 1.427 . S
N1934 C1931 1.384 . S
N1935 C1927 1.427 . S
N1935 C1933 1.384 . S
H1936 C1942 0.930 . S
H1937 C1946 0.930 . S
H1938 C1951 0.929 . S
H1939 C1949 0.929 . S
H1940 C1944 0.929 . S
H1941 C1950 0.929 . S
C1942 H1936 0.930 . S
C1942 C1943 1.367 . S
C1942 C1950 1.378 . S
C1943 C1942 1.367 . S
C1943 C1951 1.433 . S
C1944 H1940 0.929 . S
C1944 C1946 1.378 . S
C1944 C1948 1.350 . S
C1945 C1948 1.463 . S
C1945 C1950 1.350 . S
C1945 N1953 1.427 . S
C1946 H1937 0.930 . S
C1946 C1944 1.378 . S
C1946 C1947 1.367 . S
C1947 C1946 1.367 . S
C1947 C1949 1.433 . S
C1948 C1944 1.350 . S
C1948 C1945 1.463 . S
C1948 N1952 1.427 . S
C1949 H1939 0.929 . S
C1949 C1947 1.433 . S
C1949 N1952 1.384 . S
C1950 H1941 0.929 . S
C1950 C1942 1.378 . S
C1950 C1945 1.350 . S
C1951 H1938 0.929 . S
C1951 C1943 1.433 . S
C1951 N1953 1.384 . S
N1952 C1948 1.427 . S
N1952 C1949 1.384 . S
N1953 C1945 1.427 . S
N1953 C1951 1.384 . S
H1954 C1960 0.930 . S
H1955 C1964 0.930 . S
H1956 C1969 0.929 . S
H1957 C1967 0.929 . S
H1958 C1962 0.929 . S
H1959 C1968 0.929 . S
C1960 H1954 0.930 . S
C1960 C1961 1.367 . S
C1960 C1968 1.378 . S
C1961 C1960 1.367 . S
C1961 C1969 1.433 . S
C1962 H1958 0.929 . S
C1962 C1964 1.378 . S
C1962 C1966 1.350 . S
C1963 C1966 1.463 . S
C1963 C1968 1.350 . S
C1963 N1971 1.427 . S
C1964 H1955 0.930 . S
C1964 C1962 1.378 . S
C1964 C1965 1.367 . S
C1965 C1964 1.367 . S
C1965 C1967 1.433 . S
C1966 C1962 1.350 . S
C1966 C1963 1.463 . S
C1966 N1970 1.427 . S
C1967 H1957 0.929 . S
C1967 C1965 1.433 . S
C1967 N1970 1.384 . S
C1968 H1959 0.929 . S
C1968 C1960 1.378 . S
C1968 C1963 1.350 . S
C1969 H1956 0.929 . S
C1969 C1961 1.433 . S
C1969 N1971 1.384 . S
N1970 C1966 1.427 . S
N1970 C1967 1.384 . S
N1971 C1963 1.427 . S
N1971 C1969 1.384 . S
H1972 C1978 0.930 . S
H1973 C1982 0.930 . S
H1974 C1987 0.929 . S
H1975 C1985 0.918 1_455 S
H1976 C1980 0.929 . S
H1977 C1986 0.929 . S
C1978 H1972 0.930 . S
C1978 C1979 1.367 . S
C1978 C1986 1.378 . S
C1979 C1978 1.367 . S
C1979 C1987 1.433 . S
C1980 H1976 0.929 . S
C1980 C1982 1.378 . S
C1980 C1984 1.350 . S
C1981 C1984 1.463 . S
C1981 C1986 1.350 . S
C1981 N1989 1.427 . S
C1982 H1973 0.930 . S
C1982 C1980 1.378 . S
C1982 C1983 1.367 . S
C1983 C1982 1.367 . S
C1983 C1985 1.439 . S
C1984 C1980 1.350 . S
C1984 C1981 1.463 . S
C1984 N1988 1.427 . S
C1985 H1975 0.918 1_655 S
C1985 C1983 1.439 . S
C1985 N1988 1.389 . S
C1986 H1977 0.929 . S
C1986 C1978 1.378 . S
C1986 C1981 1.350 . S
C1987 H1974 0.929 . S
C1987 C1979 1.433 . S
C1987 N1989 1.384 . S
N1988 C1984 1.427 . S
N1988 C1985 1.389 . S
N1989 C1981 1.427 . S
N1989 C1987 1.384 . S
H1990 C1996 0.930 . S
H1991 C2000 0.930 . S
H1992 C2005 0.929 . S
H1993 C2003 0.929 . S
H1994 C1998 0.929 . S
H1995 C2004 0.929 . S
C1996 H1990 0.930 . S
C1996 C1997 1.367 . S
C1996 C2004 1.378 . S
C1997 C1996 1.367 . S
C1997 C2005 1.433 . S
C1998 H1994 0.929 . S
C1998 C2000 1.378 . S
C1998 C2002 1.350 . S
C1999 C2002 1.463 . S
C1999 C2004 1.350 . S
C1999 N2007 1.427 . S
C2000 H1991 0.930 . S
C2000 C1998 1.378 . S
C2000 C2001 1.367 . S
C2001 C2000 1.367 . S
C2001 C2003 1.433 . S
C2002 C1998 1.350 . S
C2002 C1999 1.463 . S
C2002 N2006 1.427 . S
C2003 H1993 0.929 . S
C2003 C2001 1.433 . S
C2003 N2006 1.384 . S
C2004 H1995 0.929 . S
C2004 C1996 1.378 . S
C2004 C1999 1.350 . S
C2005 H1992 0.929 . S
C2005 C1997 1.433 . S
C2005 N2007 1.384 . S
N2006 C2002 1.427 . S
N2006 C2003 1.384 . S
N2007 C1999 1.427 . S
N2007 C2005 1.384 . S
H2008 C2014 0.930 . S
H2009 C2018 0.930 . S
H2010 C2023 0.929 . S
H2011 C2021 0.929 . S
H2012 C2016 0.929 . S
H2013 C2022 0.929 . S
C2014 H2008 0.930 . S
C2014 C2015 1.367 . S
C2014 C2022 1.378 . S
C2015 C2014 1.367 . S
C2015 C2023 1.433 . S
C2016 H2012 0.929 . S
C2016 C2018 1.378 . S
C2016 C2020 1.350 . S
C2017 C2020 1.463 . S
C2017 C2022 1.350 . S
C2017 N2025 1.427 . S
C2018 H2009 0.930 . S
C2018 C2016 1.378 . S
C2018 C2019 1.367 . S
C2019 C2018 1.367 . S
C2019 C2021 1.433 . S
C2020 C2016 1.350 . S
C2020 C2017 1.463 . S
C2020 N2024 1.427 . S
C2021 H2011 0.929 . S
C2021 C2019 1.433 . S
C2021 N2024 1.384 . S
C2022 H2013 0.929 . S
C2022 C2014 1.378 . S
C2022 C2017 1.350 . S
C2023 H2010 0.929 . S
C2023 C2015 1.433 . S
C2023 N2025 1.384 . S
N2024 C2020 1.427 . S
N2024 C2021 1.384 . S
N2025 C2017 1.427 . S
N2025 C2023 1.384 . S
H2026 C2032 0.930 . S
H2027 C2036 0.930 . S
H2028 C2041 0.929 . S
H2029 C2039 0.929 . S
H2030 C2034 0.931 . S
H2031 C2040 0.929 . S
C2032 H2026 0.930 . S
C2032 C2033 1.367 . S
C2032 C2040 1.378 . S
C2033 C2032 1.367 . S
C2033 C2041 1.433 . S
C2034 H2030 0.931 . S
C2034 C2036 1.378 1_565 S
C2034 C2038 1.350 . S
C2035 C2038 1.463 . S
C2035 C2040 1.350 . S
C2035 N2043 1.427 . S
C2036 H2027 0.930 . S
C2036 C2034 1.378 1_545 S
C2036 C2037 1.367 1_545 S
C2037 C2036 1.367 1_565 S
C2037 C2039 1.433 . S
C2038 C2034 1.350 . S
C2038 C2035 1.463 . S
C2038 N2042 1.427 . S
C2039 H2029 0.929 . S
C2039 C2037 1.433 . S
C2039 N2042 1.384 . S
C2040 H2031 0.929 . S
C2040 C2032 1.378 . S
C2040 C2035 1.350 . S
C2041 H2028 0.929 . S
C2041 C2033 1.433 . S
C2041 N2043 1.384 . S
N2042 C2038 1.427 . S
N2042 C2039 1.384 . S
N2043 C2035 1.427 . S
N2043 C2041 1.384 . S
H2044 C2050 0.930 . S
H2045 C2054 0.930 . S
H2046 C2059 0.929 . S
H2047 C2057 0.929 . S
H2048 C2052 0.929 . S
H2049 C2058 0.929 . S
C2050 H2044 0.930 . S
C2050 C2051 1.367 . S
C2050 C2058 1.378 . S
C2051 C2050 1.367 . S
C2051 C2059 1.433 . S
C2052 H2048 0.929 . S
C2052 C2054 1.378 . S
C2052 C2056 1.350 . S
C2053 C2056 1.463 . S
C2053 C2058 1.350 . S
C2053 N2061 1.427 . S
C2054 H2045 0.930 . S
C2054 C2052 1.378 . S
C2054 C2055 1.367 . S
C2055 C2054 1.367 . S
C2055 C2057 1.433 . S
C2056 C2052 1.350 . S
C2056 C2053 1.463 . S
C2056 N2060 1.427 . S
C2057 H2047 0.929 . S
C2057 C2055 1.433 . S
C2057 N2060 1.384 . S
C2058 H2049 0.929 . S
C2058 C2050 1.378 . S
C2058 C2053 1.350 . S
C2059 H2046 0.929 . S
C2059 C2051 1.433 . S
C2059 N2061 1.384 . S
N2060 C2056 1.427 . S
N2060 C2057 1.384 . S
N2061 C2053 1.427 . S
N2061 C2059 1.384 . S
H2062 C2068 0.963 . S
H2063 C2072 0.930 . S
H2064 C2077 0.929 . S
H2065 C2075 0.929 . S
H2066 C2070 0.929 . S
H2067 C2076 0.929 . S
C2068 H2062 0.963 . S
C2068 C2069 1.367 . S
C2068 C2076 1.378 . S
C2069 C2068 1.367 . S
C2069 C2077 1.433 . S
C2070 H2066 0.929 . S
C2070 C2072 1.378 . S
C2070 C2074 1.350 . S
C2071 C2074 1.463 . S
C2071 C2076 1.350 . S
C2071 N2079 1.427 . S
C2072 H2063 0.930 . S
C2072 C2070 1.378 . S
C2072 C2073 1.367 . S
C2073 C2072 1.367 . S
C2073 C2075 1.433 . S
C2074 C2070 1.350 . S
C2074 C2071 1.463 . S
C2074 N2078 1.427 . S
C2075 H2065 0.929 . S
C2075 C2073 1.433 . S
C2075 N2078 1.384 . S
C2076 H2067 0.929 . S
C2076 C2068 1.378 . S
C2076 C2071 1.350 . S
C2077 H2064 0.929 . S
C2077 C2069 1.433 . S
C2077 N2079 1.384 . S
N2078 C2074 1.427 . S
N2078 C2075 1.384 . S
N2079 C2071 1.427 . S
N2079 C2077 1.384 . S
H2080 C2086 0.930 . S
H2081 C2090 0.930 . S
H2082 C2095 0.929 . S
H2083 C2093 0.929 . S
H2084 C2088 0.929 . S
H2085 C2094 0.929 . S
C2086 H2080 0.930 . S
C2086 C2087 1.367 . S
C2086 C2094 1.378 . S
C2087 C2086 1.367 . S
C2087 C2095 1.433 . S
C2088 H2084 0.929 . S
C2088 C2090 1.378 . S
C2088 C2092 1.350 . S
C2089 C2092 1.463 . S
C2089 C2094 1.350 . S
C2089 N2097 1.427 . S
C2090 H2081 0.930 . S
C2090 C2088 1.378 . S
C2090 C2091 1.367 . S
C2091 C2090 1.367 . S
C2091 C2093 1.433 . S
C2092 C2088 1.350 . S
C2092 C2089 1.463 . S
C2092 N2096 1.427 . S
C2093 H2083 0.929 . S
C2093 C2091 1.433 . S
C2093 N2096 1.384 . S
C2094 H2085 0.929 . S
C2094 C2086 1.378 . S
C2094 C2089 1.350 . S
C2095 H2082 0.929 . S
C2095 C2087 1.433 . S
C2095 N2097 1.384 . S
N2096 C2092 1.427 . S
N2096 C2093 1.384 . S
N2097 C2089 1.427 . S
N2097 C2095 1.384 . S
H2098 C2104 0.930 . S
H2099 C2108 0.930 . S
H2100 C2113 0.929 . S
H2101 C2111 0.929 . S
H2102 C2106 0.929 1_556 S
H2103 C2112 0.929 . S
C2104 H2098 0.930 . S
C2104 C2105 1.367 . S
C2104 C2112 1.378 . S
C2105 C2104 1.367 . S
C2105 C2113 1.433 . S
C2106 H2102 0.929 1_554 S
C2106 C2108 1.378 1_554 S
C2106 C2110 1.350 . S
C2107 C2110 1.463 . S
C2107 C2112 1.350 . S
C2107 N2115 1.427 . S
C2108 H2099 0.930 . S
C2108 C2106 1.378 1_556 S
C2108 C2109 1.367 1_556 S
C2109 C2108 1.367 1_554 S
C2109 C2111 1.433 . S
C2110 C2106 1.350 . S
C2110 C2107 1.463 . S
C2110 N2114 1.427 . S
C2111 H2101 0.929 . S
C2111 C2109 1.433 . S
C2111 N2114 1.384 . S
C2112 H2103 0.929 . S
C2112 C2104 1.378 . S
C2112 C2107 1.350 . S
C2113 H2100 0.929 . S
C2113 C2105 1.433 . S
C2113 N2115 1.384 . S
N2114 C2110 1.427 . S
N2114 C2111 1.384 . S
N2115 C2107 1.427 . S
N2115 C2113 1.384 . S
H2116 C2122 0.930 . S
H2117 C2126 0.930 . S
H2118 C2131 0.929 . S
H2119 C2129 0.929 . S
H2120 C2124 0.929 . S
H2121 C2130 0.929 . S
C2122 H2116 0.930 . S
C2122 C2123 1.367 . S
C2122 C2130 1.378 . S
C2123 C2122 1.367 . S
C2123 C2131 1.433 . S
C2124 H2120 0.929 . S
C2124 C2126 1.378 . S
C2124 C2128 1.350 . S
C2125 C2128 1.463 . S
C2125 C2130 1.350 . S
C2125 N2133 1.427 . S
C2126 H2117 0.930 . S
C2126 C2124 1.378 . S
C2126 C2127 1.367 . S
C2127 C2126 1.367 . S
C2127 C2129 1.433 . S
C2128 C2124 1.350 . S
C2128 C2125 1.463 . S
C2128 N2132 1.427 . S
C2129 H2119 0.929 . S
C2129 C2127 1.433 . S
C2129 N2132 1.384 . S
C2130 H2121 0.929 . S
C2130 C2122 1.378 . S
C2130 C2125 1.350 . S
C2131 H2118 0.929 . S
C2131 C2123 1.433 . S
C2131 N2133 1.384 . S
N2132 C2128 1.427 . S
N2132 C2129 1.384 . S
N2133 C2125 1.427 . S
N2133 C2131 1.384 . S
H2134 C2140 0.930 . S
H2135 C2144 0.930 . S
H2136 C2149 0.929 . S
H2137 C2147 0.929 . S
H2138 C2142 0.929 . S
H2139 C2148 0.929 . S
C2140 H2134 0.930 . S
C2140 C2141 1.367 . S
C2140 C2148 1.378 . S
C2141 C2140 1.367 . S
C2141 C2149 1.433 . S
C2142 H2138 0.929 . S
C2142 C2144 1.378 . S
C2142 C2146 1.350 . S
C2143 C2146 1.463 . S
C2143 C2148 1.350 . S
C2143 N2151 1.427 . S
C2144 H2135 0.930 . S
C2144 C2142 1.378 . S
C2144 C2145 1.367 . S
C2145 C2144 1.367 . S
C2145 C2147 1.433 . S
C2146 C2142 1.350 . S
C2146 C2143 1.463 . S
C2146 N2150 1.427 . S
C2147 H2137 0.929 . S
C2147 C2145 1.433 . S
C2147 N2150 1.384 . S
C2148 H2139 0.929 . S
C2148 C2140 1.378 . S
C2148 C2143 1.350 . S
C2149 H2136 0.929 . S
C2149 C2141 1.433 . S
C2149 N2151 1.384 . S
N2150 C2146 1.427 . S
N2150 C2147 1.384 . S
N2151 C2143 1.427 . S
N2151 C2149 1.384 . S
H2152 C2158 0.930 . S
H2153 C2162 0.930 . S
H2154 C2167 0.929 . S
H2155 C2165 0.929 . S
H2156 C2160 0.929 . S
H2157 C2166 0.929 . S
C2158 H2152 0.930 . S
C2158 C2159 1.367 . S
C2158 C2166 1.378 . S
C2159 C2158 1.367 . S
C2159 C2167 1.433 . S
C2160 H2156 0.929 . S
C2160 C2162 1.378 . S
C2160 C2164 1.350 . S
C2161 C2164 1.463 . S
C2161 C2166 1.350 . S
C2161 N2169 1.427 . S
C2162 H2153 0.930 . S
C2162 C2160 1.378 . S
C2162 C2163 1.367 . S
C2163 C2162 1.367 . S
C2163 C2165 1.433 . S
C2164 C2160 1.350 . S
C2164 C2161 1.463 . S
C2164 N2168 1.427 . S
C2165 H2155 0.929 . S
C2165 C2163 1.433 . S
C2165 N2168 1.384 . S
C2166 H2157 0.929 . S
C2166 C2158 1.378 . S
C2166 C2161 1.350 . S
C2167 H2154 0.929 . S
C2167 C2159 1.433 . S
C2167 N2169 1.384 . S
N2168 C2164 1.427 . S
N2168 C2165 1.384 . S
N2169 C2161 1.427 . S
N2169 C2167 1.384 . S
H2170 C2176 0.930 . S
H2171 C2180 0.930 . S
H2172 C2185 0.929 . S
H2173 C2183 0.929 . S
H2174 C2178 0.929 . S
H2175 C2184 0.929 . S
C2176 H2170 0.930 . S
C2176 C2177 1.367 . S
C2176 C2184 1.378 . S
C2177 C2176 1.367 . S
C2177 C2185 1.433 . S
C2178 H2174 0.929 . S
C2178 C2180 1.378 . S
C2178 C2182 1.350 . S
C2179 C2182 1.463 . S
C2179 C2184 1.350 . S
C2179 N2187 1.427 . S
C2180 H2171 0.930 . S
C2180 C2178 1.378 . S
C2180 C2181 1.367 . S
C2181 C2180 1.367 . S
C2181 C2183 1.433 . S
C2182 C2178 1.350 . S
C2182 C2179 1.463 . S
C2182 N2186 1.427 . S
C2183 H2173 0.929 . S
C2183 C2181 1.433 . S
C2183 N2186 1.384 . S
C2184 H2175 0.929 . S
C2184 C2176 1.378 . S
C2184 C2179 1.350 . S
C2185 H2172 0.929 . S
C2185 C2177 1.433 . S
C2185 N2187 1.384 . S
N2186 C2182 1.427 . S
N2186 C2183 1.384 . S
N2187 C2179 1.427 . S
N2187 C2185 1.384 . S
H2188 C2194 0.930 . S
H2189 C2198 0.930 . S
H2190 C2203 0.929 . S
H2191 C2201 0.929 . S
H2192 C2196 0.929 . S
H2193 C2202 0.929 . S
C2194 H2188 0.930 . S
C2194 C2195 1.367 1_655 S
C2194 C2202 1.378 . S
C2195 C2194 1.367 1_455 S
C2195 C2203 1.433 . S
C2196 H2192 0.929 . S
C2196 C2198 1.378 . S
C2196 C2200 1.350 . S
C2197 C2200 1.463 . S
C2197 C2202 1.350 1_455 S
C2197 N2205 1.427 . S
C2198 H2189 0.930 . S
C2198 C2196 1.378 . S
C2198 C2199 1.367 . S
C2199 C2198 1.367 . S
C2199 C2201 1.433 1_455 S
C2200 C2196 1.350 . S
C2200 C2197 1.463 . S
C2200 N2204 1.427 1_455 S
C2201 H2191 0.929 . S
C2201 C2199 1.433 1_655 S
C2201 N2204 1.384 . S
C2202 H2193 0.929 . S
C2202 C2194 1.378 . S
C2202 C2197 1.350 1_655 S
C2203 H2190 0.929 . S
C2203 C2195 1.433 . S
C2203 N2205 1.384 . S
N2204 C2200 1.427 1_655 S
N2204 C2201 1.384 . S
N2205 C2197 1.427 . S
N2205 C2203 1.384 . S
H2206 C2212 0.930 . S
H2207 C2216 0.930 . S
H2208 C2221 0.929 . S
H2209 C2219 0.929 . S
H2210 C2214 0.929 . S
H2211 C2220 0.929 . S
C2212 H2206 0.930 . S
C2212 C2213 1.367 . S
C2212 C2220 1.378 . S
C2213 C2212 1.367 . S
C2213 C2221 1.433 . S
C2214 H2210 0.929 . S
C2214 C2216 1.378 . S
C2214 C2218 1.350 . S
C2215 C2218 1.463 . S
C2215 C2220 1.350 . S
C2215 N2223 1.427 . S
C2216 H2207 0.930 . S
C2216 C2214 1.378 . S
C2216 C2217 1.367 . S
C2217 C2216 1.367 . S
C2217 C2219 1.433 . S
C2218 C2214 1.350 . S
C2218 C2215 1.463 . S
C2218 N2222 1.427 . S
C2219 H2209 0.929 . S
C2219 C2217 1.433 . S
C2219 N2222 1.384 . S
C2220 H2211 0.929 . S
C2220 C2212 1.378 . S
C2220 C2215 1.350 . S
C2221 H2208 0.929 . S
C2221 C2213 1.433 . S
C2221 N2223 1.384 . S
N2222 C2218 1.427 . S
N2222 C2219 1.384 . S
N2223 C2215 1.427 . S
N2223 C2221 1.384 . S
H2224 C2230 0.930 . S
H2225 C2234 0.930 . S
H2226 C2239 0.929 . S
H2227 C2237 0.929 . S
H2228 C2232 0.929 . S
H2229 C2238 0.929 . S
C2230 H2224 0.930 . S
C2230 C2231 1.367 . S
C2230 C2238 1.378 . S
C2231 C2230 1.367 . S
C2231 C2239 1.433 . S
C2232 H2228 0.929 . S
C2232 C2234 1.378 . S
C2232 C2236 1.350 . S
C2233 C2236 1.463 . S
C2233 C2238 1.350 . S
C2233 N2241 1.427 . S
C2234 H2225 0.930 . S
C2234 C2232 1.378 . S
C2234 C2235 1.367 . S
C2235 C2234 1.367 . S
C2235 C2237 1.433 . S
C2236 C2232 1.350 . S
C2236 C2233 1.463 . S
C2236 N2240 1.427 . S
C2237 H2227 0.929 . S
C2237 C2235 1.433 . S
C2237 N2240 1.384 . S
C2238 H2229 0.929 . S
C2238 C2230 1.378 . S
C2238 C2233 1.350 . S
C2239 H2226 0.929 . S
C2239 C2231 1.433 . S
C2239 N2241 1.384 . S
N2240 C2236 1.427 . S
N2240 C2237 1.384 . S
N2241 C2233 1.427 . S
N2241 C2239 1.384 . S
H2242 C2248 0.930 . S
H2243 C2252 0.930 . S
H2244 C2257 0.929 . S
H2245 C2255 0.929 . S
H2246 C2250 0.929 . S
H2247 C2256 0.929 . S
C2248 H2242 0.930 . S
C2248 C2249 1.367 . S
C2248 C2256 1.378 . S
C2249 C2248 1.367 . S
C2249 C2257 1.433 . S
C2250 H2246 0.929 . S
C2250 C2252 1.378 . S
C2250 C2254 1.350 . S
C2251 C2254 1.463 . S
C2251 C2256 1.350 . S
C2251 N2259 1.427 . S
C2252 H2243 0.930 . S
C2252 C2250 1.378 . S
C2252 C2253 1.367 . S
C2253 C2252 1.367 . S
C2253 C2255 1.433 . S
C2254 C2250 1.350 . S
C2254 C2251 1.463 . S
C2254 N2258 1.427 . S
C2255 H2245 0.929 . S
C2255 C2253 1.433 . S
C2255 N2258 1.384 . S
C2256 H2247 0.929 . S
C2256 C2248 1.378 . S
C2256 C2251 1.350 . S
C2257 H2244 0.929 . S
C2257 C2249 1.433 . S
C2257 N2259 1.384 . S
N2258 C2254 1.427 . S
N2258 C2255 1.384 . S
N2259 C2251 1.427 . S
N2259 C2257 1.384 . S
H2260 C2266 0.930 . S
H2261 C2270 0.930 . S
H2262 C2275 0.929 . S
H2263 C2273 0.929 . S
H2264 C2268 0.929 . S
H2265 C2274 0.929 . S
C2266 H2260 0.930 . S
C2266 C2267 1.367 . S
C2266 C2274 1.378 . S
C2267 C2266 1.367 . S
C2267 C2275 1.433 . S
C2268 H2264 0.929 . S
C2268 C2270 1.378 . S
C2268 C2272 1.350 . S
C2269 C2272 1.463 . S
C2269 C2274 1.350 . S
C2269 N2277 1.427 . S
C2270 H2261 0.930 . S
C2270 C2268 1.378 . S
C2270 C2271 1.367 . S
C2271 C2270 1.367 . S
C2271 C2273 1.433 . S
C2272 C2268 1.350 . S
C2272 C2269 1.463 . S
C2272 N2276 1.427 . S
C2273 H2263 0.929 . S
C2273 C2271 1.433 . S
C2273 N2276 1.384 . S
C2274 H2265 0.929 . S
C2274 C2266 1.378 . S
C2274 C2269 1.350 . S
C2275 H2262 0.929 . S
C2275 C2267 1.433 . S
C2275 N2277 1.384 . S
N2276 C2272 1.427 . S
N2276 C2273 1.384 . S
N2277 C2269 1.427 . S
N2277 C2275 1.384 . S
H2278 C2284 0.930 . S
H2279 C2288 0.930 . S
H2280 C2293 0.929 . S
H2281 C2291 0.929 . S
H2282 C2286 0.929 . S
H2283 C2292 0.929 . S
C2284 H2278 0.930 . S
C2284 C2285 1.367 . S
C2284 C2292 1.378 . S
C2285 C2284 1.367 . S
C2285 C2293 1.433 . S
C2286 H2282 0.929 . S
C2286 C2288 1.378 . S
C2286 C2290 1.350 . S
C2287 C2290 1.463 . S
C2287 C2292 1.350 . S
C2287 N2295 1.427 . S
C2288 H2279 0.930 . S
C2288 C2286 1.378 . S
C2288 C2289 1.367 . S
C2289 C2288 1.367 . S
C2289 C2291 1.433 . S
C2290 C2286 1.350 . S
C2290 C2287 1.463 . S
C2290 N2294 1.427 . S
C2291 H2281 0.929 . S
C2291 C2289 1.433 . S
C2291 N2294 1.384 . S
C2292 H2283 0.929 . S
C2292 C2284 1.378 . S
C2292 C2287 1.350 . S
C2293 H2280 0.929 . S
C2293 C2285 1.433 . S
C2293 N2295 1.384 . S
N2294 C2290 1.427 . S
N2294 C2291 1.384 . S
N2295 C2287 1.427 . S
N2295 C2293 1.384 . S
H2296 C2302 0.930 . S
H2297 C2306 0.930 . S
H2298 C2311 0.929 . S
H2299 C2309 0.929 . S
H2300 C2304 0.929 . S
H2301 C2310 0.929 . S
C2302 H2296 0.930 . S
C2302 C2303 1.367 . S
C2302 C2310 1.378 . S
C2303 C2302 1.367 . S
C2303 C2311 1.433 . S
C2304 H2300 0.929 . S
C2304 C2306 1.378 . S
C2304 C2308 1.350 . S
C2305 C2308 1.463 . S
C2305 C2310 1.350 . S
C2305 N2313 1.427 . S
C2306 H2297 0.930 . S
C2306 C2304 1.378 . S
C2306 C2307 1.367 . S
C2307 C2306 1.367 . S
C2307 C2309 1.433 . S
C2308 C2304 1.350 . S
C2308 C2305 1.463 . S
C2308 N2312 1.427 . S
C2309 H2299 0.929 . S
C2309 C2307 1.433 . S
C2309 N2312 1.384 . S
C2310 H2301 0.929 . S
C2310 C2302 1.378 . S
C2310 C2305 1.350 . S
C2311 H2298 0.929 . S
C2311 C2303 1.433 . S
C2311 N2313 1.384 . S
N2312 C2308 1.427 . S
N2312 C2309 1.384 . S
N2313 C2305 1.427 . S
N2313 C2311 1.384 . S
H2314 C2320 0.930 . S
H2315 C2324 0.930 . S
H2316 C2329 0.929 . S
H2317 C2327 0.929 . S
H2318 C2322 0.929 . S
H2319 C2328 0.929 . S
C2320 H2314 0.930 . S
C2320 C2321 1.367 . S
C2320 C2328 1.378 . S
C2321 C2320 1.367 . S
C2321 C2329 1.433 . S
C2322 H2318 0.929 . S
C2322 C2324 1.378 . S
C2322 C2326 1.350 . S
C2323 C2326 1.463 . S
C2323 C2328 1.350 . S
C2323 N2331 1.427 . S
C2324 H2315 0.930 . S
C2324 C2322 1.378 . S
C2324 C2325 1.367 . S
C2325 C2324 1.367 . S
C2325 C2327 1.433 . S
C2326 C2322 1.350 . S
C2326 C2323 1.463 . S
C2326 N2330 1.427 . S
C2327 H2317 0.929 . S
C2327 C2325 1.433 . S
C2327 N2330 1.384 . S
C2328 H2319 0.929 . S
C2328 C2320 1.378 . S
C2328 C2323 1.350 . S
C2329 H2316 0.929 . S
C2329 C2321 1.433 . S
C2329 N2331 1.384 . S
N2330 C2326 1.427 . S
N2330 C2327 1.384 . S
N2331 C2323 1.427 . S
N2331 C2329 1.384 . S
H2332 C2338 0.930 . S
H2333 C2342 0.930 . S
H2334 C2347 0.929 . S
H2335 C2345 0.929 . S
H2336 C2340 0.929 . S
H2337 C2346 0.929 . S
C2338 H2332 0.930 . S
C2338 C2339 1.367 . S
C2338 C2346 1.378 . S
C2339 C2338 1.367 . S
C2339 C2347 1.433 . S
C2340 H2336 0.929 . S
C2340 C2342 1.378 . S
C2340 C2344 1.350 . S
C2341 C2344 1.463 . S
C2341 C2346 1.350 . S
C2341 N2349 1.427 . S
C2342 H2333 0.930 . S
C2342 C2340 1.378 . S
C2342 C2343 1.367 . S
C2343 C2342 1.367 . S
C2343 C2345 1.433 . S
C2344 C2340 1.350 . S
C2344 C2341 1.463 . S
C2344 N2348 1.427 . S
C2345 H2335 0.929 . S
C2345 C2343 1.433 . S
C2345 N2348 1.384 . S
C2346 H2337 0.929 . S
C2346 C2338 1.378 . S
C2346 C2341 1.350 . S
C2347 H2334 0.929 . S
C2347 C2339 1.433 . S
C2347 N2349 1.384 . S
N2348 C2344 1.427 . S
N2348 C2345 1.384 . S
N2349 C2341 1.427 . S
N2349 C2347 1.384 . S
H2350 C2356 0.930 . S
H2351 C2360 0.930 . S
H2352 C2365 0.929 . S
H2353 C2363 0.929 . S
H2354 C2358 0.929 . S
H2355 C2364 0.929 . S
C2356 H2350 0.930 . S
C2356 C2357 1.367 . S
C2356 C2364 1.378 . S
C2357 C2356 1.367 . S
C2357 C2365 1.433 . S
C2358 H2354 0.929 . S
C2358 C2360 1.378 . S
C2358 C2362 1.350 . S
C2359 C2362 1.463 . S
C2359 C2364 1.350 . S
C2359 N2367 1.427 . S
C2360 H2351 0.930 . S
C2360 C2358 1.378 . S
C2360 C2361 1.367 . S
C2361 C2360 1.367 . S
C2361 C2363 1.433 . S
C2362 C2358 1.350 . S
C2362 C2359 1.463 . S
C2362 N2366 1.427 . S
C2363 H2353 0.929 . S
C2363 C2361 1.433 . S
C2363 N2366 1.384 . S
C2364 H2355 0.929 . S
C2364 C2356 1.378 . S
C2364 C2359 1.350 . S
C2365 H2352 0.929 . S
C2365 C2357 1.433 . S
C2365 N2367 1.384 . S
N2366 C2362 1.427 . S
N2366 C2363 1.384 . S
N2367 C2359 1.427 . S
N2367 C2365 1.384 . S
H2368 C2374 0.930 . S
H2369 C2378 0.930 . S
H2370 C2383 0.929 . S
H2371 C2381 0.929 . S
H2372 C2376 0.929 . S
H2373 C2382 0.929 . S
C2374 H2368 0.930 . S
C2374 C2375 1.367 . S
C2374 C2382 1.378 . S
C2375 C2374 1.367 . S
C2375 C2383 1.433 . S
C2376 H2372 0.929 . S
C2376 C2378 1.378 . S
C2376 C2380 1.350 . S
C2377 C2380 1.463 . S
C2377 C2382 1.350 . S
C2377 N2385 1.427 . S
C2378 H2369 0.930 . S
C2378 C2376 1.378 . S
C2378 C2379 1.367 . S
C2379 C2378 1.367 . S
C2379 C2381 1.433 . S
C2380 C2376 1.350 . S
C2380 C2377 1.463 . S
C2380 N2384 1.427 . S
C2381 H2371 0.929 . S
C2381 C2379 1.433 . S
C2381 N2384 1.384 . S
C2382 H2373 0.929 . S
C2382 C2374 1.378 . S
C2382 C2377 1.350 . S
C2383 H2370 0.929 . S
C2383 C2375 1.433 . S
C2383 N2385 1.384 . S
N2384 C2380 1.427 . S
N2384 C2381 1.384 . S
N2385 C2377 1.427 . S
N2385 C2383 1.384 . S
H2386 C2392 0.930 . S
H2387 C2396 0.930 . S
H2388 C2401 0.929 . S
H2389 C2399 0.929 . S
H2390 C2394 0.929 . S
H2391 C2400 0.929 . S
C2392 H2386 0.930 . S
C2392 C2393 1.367 . S
C2392 C2400 1.378 . S
C2393 C2392 1.367 . S
C2393 C2401 1.433 . S
C2394 H2390 0.929 . S
C2394 C2396 1.378 . S
C2394 C2398 1.350 . S
C2395 C2398 1.463 . S
C2395 C2400 1.350 . S
C2395 N2403 1.427 . S
C2396 H2387 0.930 . S
C2396 C2394 1.378 . S
C2396 C2397 1.367 . S
C2397 C2396 1.367 . S
C2397 C2399 1.433 . S
C2398 C2394 1.350 . S
C2398 C2395 1.463 . S
C2398 N2402 1.427 . S
C2399 H2389 0.929 . S
C2399 C2397 1.433 . S
C2399 N2402 1.384 . S
C2400 H2391 0.929 . S
C2400 C2392 1.378 . S
C2400 C2395 1.350 . S
C2401 H2388 0.929 . S
C2401 C2393 1.433 . S
C2401 N2403 1.384 . S
N2402 C2398 1.427 . S
N2402 C2399 1.384 . S
N2403 C2395 1.427 . S
N2403 C2401 1.384 . S
H2404 C2410 0.930 . S
H2405 C2414 0.930 . S
H2406 C2419 0.929 . S
H2407 C2417 0.929 . S
H2408 C2412 0.929 . S
H2409 C2418 0.929 . S
C2410 H2404 0.930 . S
C2410 C2411 1.367 . S
C2410 C2418 1.378 . S
C2411 C2410 1.367 . S
C2411 C2419 1.433 . S
C2412 H2408 0.929 . S
C2412 C2414 1.378 . S
C2412 C2416 1.350 . S
C2413 C2416 1.463 . S
C2413 C2418 1.350 . S
C2413 N2421 1.427 . S
C2414 H2405 0.930 . S
C2414 C2412 1.378 . S
C2414 C2415 1.367 . S
C2415 C2414 1.367 . S
C2415 C2417 1.433 . S
C2416 C2412 1.350 . S
C2416 C2413 1.463 . S
C2416 N2420 1.427 . S
C2417 H2407 0.929 . S
C2417 C2415 1.433 . S
C2417 N2420 1.384 . S
C2418 H2409 0.929 . S
C2418 C2410 1.378 . S
C2418 C2413 1.350 . S
C2419 H2406 0.929 . S
C2419 C2411 1.433 . S
C2419 N2421 1.384 . S
N2420 C2416 1.427 . S
N2420 C2417 1.384 . S
N2421 C2413 1.427 . S
N2421 C2419 1.384 . S
H2422 C2428 0.930 . S
H2423 C2432 0.930 . S
H2424 C2437 0.929 . S
H2425 C2435 0.929 . S
H2426 C2430 0.929 . S
H2427 C2436 0.929 . S
C2428 H2422 0.930 . S
C2428 C2429 1.367 . S
C2428 C2436 1.378 . S
C2429 C2428 1.367 . S
C2429 C2437 1.433 . S
C2430 H2426 0.929 . S
C2430 C2432 1.378 . S
C2430 C2434 1.350 . S
C2431 C2434 1.463 . S
C2431 C2436 1.350 . S
C2431 N2439 1.427 . S
C2432 H2423 0.930 . S
C2432 C2430 1.378 . S
C2432 C2433 1.367 . S
C2433 C2432 1.367 . S
C2433 C2435 1.433 . S
C2434 C2430 1.350 . S
C2434 C2431 1.463 . S
C2434 N2438 1.427 . S
C2435 H2425 0.929 . S
C2435 C2433 1.433 . S
C2435 N2438 1.384 . S
C2436 H2427 0.929 . S
C2436 C2428 1.378 . S
C2436 C2431 1.350 . S
C2437 H2424 0.929 . S
C2437 C2429 1.433 . S
C2437 N2439 1.384 . S
N2438 C2434 1.427 . S
N2438 C2435 1.384 . S
N2439 C2431 1.427 . S
N2439 C2437 1.384 . S
H2440 C2446 0.930 . S
H2441 C2450 0.930 . S
H2442 C2455 0.929 . S
H2443 C2453 0.929 . S
H2444 C2448 0.929 . S
H2445 C2454 0.929 . S
C2446 H2440 0.930 . S
C2446 C2447 1.367 . S
C2446 C2454 1.378 . S
C2447 C2446 1.367 . S
C2447 C2455 1.433 . S
C2448 H2444 0.929 . S
C2448 C2450 1.378 . S
C2448 C2452 1.350 . S
C2449 C2452 1.463 . S
C2449 C2454 1.350 . S
C2449 N2457 1.427 . S
C2450 H2441 0.930 . S
C2450 C2448 1.378 . S
C2450 C2451 1.367 . S
C2451 C2450 1.367 . S
C2451 C2453 1.433 . S
C2452 C2448 1.350 . S
C2452 C2449 1.463 . S
C2452 N2456 1.427 . S
C2453 H2443 0.929 . S
C2453 C2451 1.433 . S
C2453 N2456 1.384 . S
C2454 H2445 0.929 . S
C2454 C2446 1.378 . S
C2454 C2449 1.350 . S
C2455 H2442 0.929 . S
C2455 C2447 1.433 . S
C2455 N2457 1.384 . S
N2456 C2452 1.427 . S
N2456 C2453 1.384 . S
N2457 C2449 1.427 . S
N2457 C2455 1.384 . S
H2458 C2464 0.930 . S
H2459 C2468 0.930 . S
H2460 C2473 0.929 . S
H2461 C2471 0.929 . S
H2462 C2466 0.929 . S
H2463 C2472 0.929 . S
C2464 H2458 0.930 . S
C2464 C2465 1.367 . S
C2464 C2472 1.378 . S
C2465 C2464 1.367 . S
C2465 C2473 1.433 . S
C2466 H2462 0.929 . S
C2466 C2468 1.378 . S
C2466 C2470 1.350 . S
C2467 C2470 1.463 . S
C2467 C2472 1.350 . S
C2467 N2475 1.427 . S
C2468 H2459 0.930 . S
C2468 C2466 1.378 . S
C2468 C2469 1.367 . S
C2469 C2468 1.367 . S
C2469 C2471 1.433 . S
C2470 C2466 1.350 . S
C2470 C2467 1.463 . S
C2470 N2474 1.427 . S
C2471 H2461 0.929 . S
C2471 C2469 1.433 . S
C2471 N2474 1.384 . S
C2472 H2463 0.929 . S
C2472 C2464 1.378 . S
C2472 C2467 1.350 . S
C2473 H2460 0.929 . S
C2473 C2465 1.433 . S
C2473 N2475 1.384 . S
N2474 C2470 1.427 . S
N2474 C2471 1.384 . S
N2475 C2467 1.427 . S
N2475 C2473 1.384 . S
H2476 C2482 0.930 . S
H2477 C2486 0.930 . S
H2478 C2491 0.929 . S
H2479 C2489 0.929 . S
H2480 C2484 0.929 . S
H2481 C2490 0.929 . S
C2482 H2476 0.930 . S
C2482 C2483 1.367 . S
C2482 C2490 1.378 . S
C2483 C2482 1.367 . S
C2483 C2491 1.433 . S
C2484 H2480 0.929 . S
C2484 C2486 1.378 . S
C2484 C2488 1.350 . S
C2485 C2488 1.463 . S
C2485 C2490 1.350 . S
C2485 N2493 1.427 . S
C2486 H2477 0.930 . S
C2486 C2484 1.378 . S
C2486 C2487 1.367 . S
C2487 C2486 1.367 . S
C2487 C2489 1.433 . S
C2488 C2484 1.350 . S
C2488 C2485 1.463 . S
C2488 N2492 1.427 . S
C2489 H2479 0.929 . S
C2489 C2487 1.433 . S
C2489 N2492 1.384 . S
C2490 H2481 0.929 . S
C2490 C2482 1.378 . S
C2490 C2485 1.350 . S
C2491 H2478 0.929 . S
C2491 C2483 1.433 . S
C2491 N2493 1.384 . S
N2492 C2488 1.427 . S
N2492 C2489 1.384 . S
N2493 C2485 1.427 . S
N2493 C2491 1.384 . S
H2494 C2500 0.930 . S
H2495 C2504 0.938 . S
H2496 C2509 0.907 1_556 S
H2497 C2507 0.929 . S
H2498 C2502 0.929 1_556 S
H2499 C2508 0.929 . S
C2500 H2494 0.930 . S
C2500 C2501 1.367 . S
C2500 C2508 1.378 . S
C2501 C2500 1.367 . S
C2501 C2509 1.433 . S
C2502 H2498 0.929 1_554 S
C2502 C2504 1.377 1_554 S
C2502 C2506 1.350 . S
C2503 C2506 1.463 . S
C2503 C2508 1.350 . S
C2503 N2511 1.427 . S
C2504 H2495 0.938 . S
C2504 C2502 1.377 1_556 S
C2504 C2505 1.360 1_556 S
C2505 C2504 1.360 1_554 S
C2505 C2507 1.433 . S
C2506 C2502 1.350 . S
C2506 C2503 1.463 . S
C2506 N2510 1.427 . S
C2507 H2497 0.929 . S
C2507 C2505 1.433 . S
C2507 N2510 1.384 . S
C2508 H2499 0.929 . S
C2508 C2500 1.378 . S
C2508 C2503 1.350 . S
C2509 H2496 0.907 1_554 S
C2509 C2501 1.433 . S
C2509 N2511 1.384 . S
N2510 C2506 1.427 . S
N2510 C2507 1.384 . S
N2511 C2503 1.427 . S
N2511 C2509 1.384 . S
H2512 C2518 0.930 . S
H2513 C2522 0.930 . S
H2514 C2527 0.929 . S
H2515 C2525 0.929 . S
H2516 C2520 0.929 . S
H2517 C2526 0.929 . S
C2518 H2512 0.930 . S
C2518 C2519 1.367 . S
C2518 C2526 1.378 . S
C2519 C2518 1.367 . S
C2519 C2527 1.433 . S
C2520 H2516 0.929 . S
C2520 C2522 1.378 . S
C2520 C2524 1.350 . S
C2521 C2524 1.463 . S
C2521 C2526 1.350 . S
C2521 N2529 1.427 . S
C2522 H2513 0.930 . S
C2522 C2520 1.378 . S
C2522 C2523 1.367 . S
C2523 C2522 1.367 . S
C2523 C2525 1.433 . S
C2524 C2520 1.350 . S
C2524 C2521 1.463 . S
C2524 N2528 1.427 . S
C2525 H2515 0.929 . S
C2525 C2523 1.433 . S
C2525 N2528 1.384 . S
C2526 H2517 0.929 . S
C2526 C2518 1.378 . S
C2526 C2521 1.350 . S
C2527 H2514 0.929 . S
C2527 C2519 1.433 . S
C2527 N2529 1.384 . S
N2528 C2524 1.427 . S
N2528 C2525 1.384 . S
N2529 C2521 1.427 . S
N2529 C2527 1.384 . S
H2530 C2536 0.930 . S
H2531 C2540 0.930 . S
H2532 C2545 0.929 . S
H2533 C2543 0.929 . S
H2534 C2538 0.929 . S
H2535 C2544 0.929 . S
C2536 H2530 0.930 . S
C2536 C2537 1.367 . S
C2536 C2544 1.378 . S
C2537 C2536 1.367 . S
C2537 C2545 1.433 1_556 S
C2538 H2534 0.929 . S
C2538 C2540 1.378 . S
C2538 C2542 1.350 . S
C2539 C2542 1.463 . S
C2539 C2544 1.350 1_554 S
C2539 N2547 1.427 . S
C2540 H2531 0.930 . S
C2540 C2538 1.378 . S
C2540 C2541 1.367 . S
C2541 C2540 1.367 . S
C2541 C2543 1.433 . S
C2542 C2538 1.350 . S
C2542 C2539 1.463 . S
C2542 N2546 1.427 . S
C2543 H2533 0.929 . S
C2543 C2541 1.433 . S
C2543 N2546 1.384 . S
C2544 H2535 0.929 . S
C2544 C2536 1.378 . S
C2544 C2539 1.350 1_556 S
C2545 H2532 0.929 . S
C2545 C2537 1.433 1_554 S
C2545 N2547 1.384 . S
N2546 C2542 1.427 . S
N2546 C2543 1.384 . S
N2547 C2539 1.427 . S
N2547 C2545 1.384 . S
H2548 C2554 0.930 . S
H2549 C2558 0.930 . S
H2550 C2563 0.929 . S
H2551 C2561 0.929 . S
H2552 C2556 0.929 . S
H2553 C2562 0.929 . S
C2554 H2548 0.930 . S
C2554 C2555 1.367 . S
C2554 C2562 1.378 . S
C2555 C2554 1.367 . S
C2555 C2563 1.433 . S
C2556 H2552 0.929 . S
C2556 C2558 1.378 . S
C2556 C2560 1.350 . S
C2557 C2560 1.463 . S
C2557 C2562 1.350 . S
C2557 N2565 1.427 . S
C2558 H2549 0.930 . S
C2558 C2556 1.378 . S
C2558 C2559 1.367 . S
C2559 C2558 1.367 . S
C2559 C2561 1.433 . S
C2560 C2556 1.350 . S
C2560 C2557 1.463 . S
C2560 N2564 1.427 . S
C2561 H2551 0.929 . S
C2561 C2559 1.433 . S
C2561 N2564 1.384 . S
C2562 H2553 0.929 . S
C2562 C2554 1.378 . S
C2562 C2557 1.350 . S
C2563 H2550 0.929 . S
C2563 C2555 1.433 . S
C2563 N2565 1.384 . S
N2564 C2560 1.427 . S
N2564 C2561 1.384 . S
N2565 C2557 1.427 . S
N2565 C2563 1.384 . S
H2566 C2572 0.930 . S
H2567 C2576 0.930 . S
H2568 C2581 0.929 . S
H2569 C2579 0.929 . S
H2570 C2574 0.929 . S
H2571 C2580 0.929 . S
C2572 H2566 0.930 . S
C2572 C2573 1.367 . S
C2572 C2580 1.378 . S
C2573 C2572 1.367 . S
C2573 C2581 1.433 . S
C2574 H2570 0.929 . S
C2574 C2576 1.378 . S
C2574 C2578 1.350 . S
C2575 C2578 1.463 . S
C2575 C2580 1.350 . S
C2575 N2583 1.427 . S
C2576 H2567 0.930 . S
C2576 C2574 1.378 . S
C2576 C2577 1.367 . S
C2577 C2576 1.367 . S
C2577 C2579 1.433 . S
C2578 C2574 1.350 . S
C2578 C2575 1.463 . S
C2578 N2582 1.427 . S
C2579 H2569 0.929 . S
C2579 C2577 1.433 . S
C2579 N2582 1.384 . S
C2580 H2571 0.929 . S
C2580 C2572 1.378 . S
C2580 C2575 1.350 . S
C2581 H2568 0.929 . S
C2581 C2573 1.433 . S
C2581 N2583 1.384 . S
N2582 C2578 1.427 . S
N2582 C2579 1.384 . S
N2583 C2575 1.427 . S
N2583 C2581 1.384 . S
C867 C329 1.245 . S
C863 C10 1.242 . S
C881 C23 2.085 . S
C885 C375 2.071 . S
C899 C36 1.031 . S
C903 C384 1.032 . S
C921 C422 1.870 . S
C917 C42 1.906 . S
C935 C18 1.831 . S
C939 C456 1.806 . S
C957 C486 0.983 . S
C953 C31 0.983 . S
C975 C545 1.811 1_556 S
C971 C43 1.822 . S
C989 C5 1.215 . S
C993 C558 1.199 . S
C1007 C56 1.627 . S
C1011 C341 1.605 . S
C1025 C70 1.326 . S
C1029 C359 1.305 . S
C1047 C380 1.883 . S
C1043 C82 1.899 . S
C1065 C418 0.932 . S
C1061 C96 0.942 . S
C1079 C57 1.437 . S
C1083 C452 1.412 . S
C1101 C482 1.810 . S
C1097 C69 1.828 . S
C1119 C529 1.374 . S
C1115 C83 1.400 . S
C1137 C554 0.820 . S
C1133 C95 0.816 . S
C1155 C325 0.781 . S
C1151 C94 0.788 . S
C1173 C584 1.754 . S
C1169 C108 1.757 . S
C1187 C122 1.592 . S
C1191 C626 1.569 . S
C1209 C669 0.726 . S
C1205 C140 0.733 . S
C1223 C55 1.574 . S
C1227 C550 1.545 . S
C1245 C388 1.645 . S
C1241 C68 1.666 . S
C1259 C121 1.552 . S
C1263 C686 1.554 . S
C1281 C737 1.757 . S
C1277 C153 1.761 . S
C1295 C161 0.913 . S
C1299 C320 0.915 1_556 S
C1317 C720 1.754 . S
C1313 C174 1.763 . S
C1331 C186 0.873 . S
C1335 C393 0.869 . S
C1349 C200 1.545 . S
C1353 C703 1.519 . S
C1371 C465 1.486 . S
C1367 C172 1.507 . S
C1389 C631 0.760 . S
C1385 C192 0.760 . S
C1407 C516 1.496 . S
C1403 C198 1.503 . S
C1425 C771 0.861 . S
C1421 C159 0.868 . S
C1443 C312 1.256 . S
C1439 C211 1.268 . S
C1457 C225 1.115 . S
C1461 C724 1.108 . S
C1479 C409 1.552 . S
C1475 C239 1.566 . S
C1493 C251 0.766 . S
C1497 C699 0.765 . S
C1511 C218 1.197 . S
C1515 C461 1.175 . S
C1529 C226 1.499 . S
C1533 C647 1.486 . S
C1551 C520 1.142 . S
C1547 C238 1.155 . S
C1565 C252 0.631 . S
C1569 C767 0.637 . S
C1583 C250 0.601 . S
C1587 C316 0.600 . S
C1601 C264 1.476 . S
C1605 C613 1.474 . S
C1619 C276 1.289 . S
C1623 C499 1.283 . S
C1637 C290 0.399 . S
C1641 C660 0.435 . S
C1659 C783 1.229 . S
C1655 C213 1.239 . S
C1677 C397 1.339 . S
C1673 C224 1.341 . S
C1695 C443 1.268 . S
C1691 C283 1.268 . S
C1713 C354 1.494 . S
C1709 C303 1.497 . S
C1727 C29 1.257 . S
C1731 C805 1.249 . S
C1749 C749 2.072 . S
C1745 C49 2.084 . S
C1767 C826 1.037 . S
C1763 C3 1.038 . S
C1781 C16 1.905 . S
C1785 C694 1.875 . S
C1799 C44 1.833 . S
C1803 C592 1.808 1_556 S
C1821 C622 0.968 . S
C1817 C4 0.979 . S
C1839 C681 1.811 . S
C1835 C17 1.820 . S
C1857 C762 1.187 . S
C1853 C30 1.201 . S
C1875 C817 1.601 . S
C1871 C147 1.624 . S
C1889 C107 1.332 1_556 S
C1893 C733 1.314 . S
C1907 C127 1.900 . S
C1911 C822 1.879 . S
C1929 C690 0.928 . S
C1925 C135 0.938 . S
C1947 C588 1.398 . S
C1943 C148 1.431 . S
C1961 C114 1.827 . S
C1965 C618 1.808 . S
C1983 C665 1.367 . S
C1979 C120 1.391 . S
C1997 C134 0.823 . S
C2001 C758 0.815 . S
C2019 C801 0.793 . S
C2015 C133 0.790 . S
C2037 C448 1.760 1_565 S
C2033 C75 1.759 . S
C2055 C490 1.570 . S
C2051 C81 1.593 . S
C2069 C101 0.736 . S
C2073 C533 0.742 . S
C2091 C754 1.540 . S
C2087 C146 1.570 . S
C2105 C109 1.669 . S
C2109 C830 1.648 . S
C2127 C414 1.554 . S
C2123 C88 1.548 . S
C2145 C363 1.754 . S
C2141 C62 1.757 . S
C2159 C187 0.937 . S
C2163 C796 0.938 . S
C2181 C346 1.742 . S
C2177 C199 1.753 . S
C2199 C835 0.857 . S
C2195 C160 0.862 . S
C2213 C173 1.538 . S
C2217 C431 1.511 . S
C2231 C205 1.498 . S
C2235 C601 1.477 . S
C2249 C166 0.762 . S
C2253 C495 0.763 . S
C2267 C179 1.488 . S
C2271 C652 1.478 . S
C2285 C185 0.848 . S
C2289 C567 0.846 . S
C2307 C788 1.245 . S
C2303 C302 1.265 . S
C2321 C270 1.110 . S
C2325 C350 1.096 . S
C2343 C851 1.549 . S
C2339 C278 1.565 . S
C2357 C296 0.743 . S
C2361 C427 0.740 . S
C2375 C309 1.200 . S
C2379 C597 1.178 . S
C2397 C511 1.499 . S
C2393 C263 1.513 . S
C2411 C277 1.163 . S
C2415 C656 1.149 . S
C2433 C563 0.640 . S
C2429 C289 0.632 . S
C2451 C792 0.619 . S
C2447 C291 0.611 . S
C2469 C477 1.470 . S
C2465 C231 1.476 . S
C2483 C237 1.297 . S
C2487 C635 1.292 . S
C2505 C524 0.434 . S
C2501 C257 0.398 . S
C2523 C579 1.235 . S
C2519 C304 1.245 . S
C2537 C265 1.343 . S
C2541 C839 1.340 . S
C2559 C715 1.263 . S
C2555 C244 1.268 . S
C2577 C728 1.492 . S
C2573 C212 1.496 . S
