# Generated by pormake.
# Topology ibd, (4,6)-cn, num edge types: 1
# Building blocks:
#     Node 0, Type 0, BuildingBlock: GALJAG_clean_sbu_0, # of connection points: 4
#     Node 1, Type 0, BuildingBlock: GALJAG_clean_sbu_0, # of connection points: 4
#     Node 2, Type 0, BuildingBlock: GALJAG_clean_sbu_0, # of connection points: 4
#     Node 3, Type 0, BuildingBlock: GALJAG_clean_sbu_0, # of connection points: 4
#     Node 4, Type 0, BuildingBlock: GALJAG_clean_sbu_0, # of connection points: 4
#     Node 5, Type 0, BuildingBlock: GALJAG_clean_sbu_0, # of connection points: 4
#     Node 6, Type 0, BuildingBlock: GALJAG_clean_sbu_0, # of connection points: 4
#     Node 7, Type 0, BuildingBlock: GALJAG_clean_sbu_0, # of connection points: 4
#     Node 8, Type 0, BuildingBlock: GALJAG_clean_sbu_0, # of connection points: 4
#     Node 9, Type 0, BuildingBlock: GALJAG_clean_sbu_0, # of connection points: 4
#     Node 10, Type 0, BuildingBlock: GALJAG_clean_sbu_0, # of connection points: 4
#     Node 11, Type 0, BuildingBlock: GALJAG_clean_sbu_0, # of connection points: 4
#     Node 12, Type 0, BuildingBlock: GALJAG_clean_sbu_0, # of connection points: 4
#     Node 13, Type 0, BuildingBlock: GALJAG_clean_sbu_0, # of connection points: 4
#     Node 14, Type 0, BuildingBlock: GALJAG_clean_sbu_0, # of connection points: 4
#     Node 15, Type 0, BuildingBlock: GALJAG_clean_sbu_0, # of connection points: 4
#     Node 16, Type 0, BuildingBlock: GALJAG_clean_sbu_0, # of connection points: 4
#     Node 17, Type 0, BuildingBlock: GALJAG_clean_sbu_0, # of connection points: 4
#     Node 18, Type 0, BuildingBlock: GALJAG_clean_sbu_0, # of connection points: 4
#     Node 19, Type 0, BuildingBlock: GALJAG_clean_sbu_0, # of connection points: 4
#     Node 20, Type 0, BuildingBlock: GALJAG_clean_sbu_0, # of connection points: 4
#     Node 21, Type 0, BuildingBlock: GALJAG_clean_sbu_0, # of connection points: 4
#     Node 22, Type 0, BuildingBlock: GALJAG_clean_sbu_0, # of connection points: 4
#     Node 23, Type 0, BuildingBlock: GALJAG_clean_sbu_0, # of connection points: 4
#     Node 24, Type 1, BuildingBlock: CIFDUS_clean_sbu_1, # of connection points: 6
#     Node 25, Type 1, BuildingBlock: CIFDUS_clean_sbu_1, # of connection points: 6
#     Node 26, Type 1, BuildingBlock: CIFDUS_clean_sbu_1, # of connection points: 6
#     Node 27, Type 1, BuildingBlock: CIFDUS_clean_sbu_1, # of connection points: 6
#     Node 28, Type 1, BuildingBlock: CIFDUS_clean_sbu_1, # of connection points: 6
#     Node 29, Type 1, BuildingBlock: CIFDUS_clean_sbu_1, # of connection points: 6
#     Node 30, Type 1, BuildingBlock: CIFDUS_clean_sbu_1, # of connection points: 6
#     Node 31, Type 1, BuildingBlock: CIFDUS_clean_sbu_1, # of connection points: 6
#     Node 32, Type 1, BuildingBlock: CIFDUS_clean_sbu_1, # of connection points: 6
#     Node 33, Type 1, BuildingBlock: CIFDUS_clean_sbu_1, # of connection points: 6
#     Node 34, Type 1, BuildingBlock: CIFDUS_clean_sbu_1, # of connection points: 6
#     Node 35, Type 1, BuildingBlock: CIFDUS_clean_sbu_1, # of connection points: 6
#     Node 36, Type 1, BuildingBlock: CIFDUS_clean_sbu_1, # of connection points: 6
#     Node 37, Type 1, BuildingBlock: CIFDUS_clean_sbu_1, # of connection points: 6
#     Node 38, Type 1, BuildingBlock: CIFDUS_clean_sbu_1, # of connection points: 6
#     Node 39, Type 1, BuildingBlock: CIFDUS_clean_sbu_1, # of connection points: 6
#     Edge 40, Type (0, 1), BuildingBlock: AJUNOK_clean_linker_0, # of connection points: 2
#     Edge 41, Type (0, 1), BuildingBlock: AJUNOK_clean_linker_0, # of connection points: 2
#     Edge 42, Type (0, 1), BuildingBlock: AJUNOK_clean_linker_0, # of connection points: 2
#     Edge 43, Type (0, 1), BuildingBlock: AJUNOK_clean_linker_0, # of connection points: 2
#     Edge 44, Type (0, 1), BuildingBlock: AJUNOK_clean_linker_0, # of connection points: 2
#     Edge 45, Type (0, 1), BuildingBlock: AJUNOK_clean_linker_0, # of connection points: 2
#     Edge 46, Type (0, 1), BuildingBlock: AJUNOK_clean_linker_0, # of connection points: 2
#     Edge 47, Type (0, 1), BuildingBlock: AJUNOK_clean_linker_0, # of connection points: 2
#     Edge 48, Type (0, 1), BuildingBlock: AJUNOK_clean_linker_0, # of connection points: 2
#     Edge 49, Type (0, 1), BuildingBlock: AJUNOK_clean_linker_0, # of connection points: 2
#     Edge 50, Type (0, 1), BuildingBlock: AJUNOK_clean_linker_0, # of connection points: 2
#     Edge 51, Type (0, 1), BuildingBlock: AJUNOK_clean_linker_0, # of connection points: 2
#     Edge 52, Type (0, 1), BuildingBlock: AJUNOK_clean_linker_0, # of connection points: 2
#     Edge 53, Type (0, 1), BuildingBlock: AJUNOK_clean_linker_0, # of connection points: 2
#     Edge 54, Type (0, 1), BuildingBlock: AJUNOK_clean_linker_0, # of connection points: 2
#     Edge 55, Type (0, 1), BuildingBlock: AJUNOK_clean_linker_0, # of connection points: 2
#     Edge 56, Type (0, 1), BuildingBlock: AJUNOK_clean_linker_0, # of connection points: 2
#     Edge 57, Type (0, 1), BuildingBlock: AJUNOK_clean_linker_0, # of connection points: 2
#     Edge 58, Type (0, 1), BuildingBlock: AJUNOK_clean_linker_0, # of connection points: 2
#     Edge 59, Type (0, 1), BuildingBlock: AJUNOK_clean_linker_0, # of connection points: 2
#     Edge 60, Type (0, 1), BuildingBlock: AJUNOK_clean_linker_0, # of connection points: 2
#     Edge 61, Type (0, 1), BuildingBlock: AJUNOK_clean_linker_0, # of connection points: 2
#     Edge 62, Type (0, 1), BuildingBlock: AJUNOK_clean_linker_0, # of connection points: 2
#     Edge 63, Type (0, 1), BuildingBlock: AJUNOK_clean_linker_0, # of connection points: 2
#     Edge 64, Type (0, 1), BuildingBlock: AJUNOK_clean_linker_0, # of connection points: 2
#     Edge 65, Type (0, 1), BuildingBlock: AJUNOK_clean_linker_0, # of connection points: 2
#     Edge 66, Type (0, 1), BuildingBlock: AJUNOK_clean_linker_0, # of connection points: 2
#     Edge 67, Type (0, 1), BuildingBlock: AJUNOK_clean_linker_0, # of connection points: 2
#     Edge 68, Type (0, 1), BuildingBlock: AJUNOK_clean_linker_0, # of connection points: 2
#     Edge 69, Type (0, 1), BuildingBlock: AJUNOK_clean_linker_0, # of connection points: 2
#     Edge 70, Type (0, 1), BuildingBlock: AJUNOK_clean_linker_0, # of connection points: 2
#     Edge 71, Type (0, 1), BuildingBlock: AJUNOK_clean_linker_0, # of connection points: 2
#     Edge 72, Type (0, 1), BuildingBlock: AJUNOK_clean_linker_0, # of connection points: 2
#     Edge 73, Type (0, 1), BuildingBlock: AJUNOK_clean_linker_0, # of connection points: 2
#     Edge 74, Type (0, 1), BuildingBlock: AJUNOK_clean_linker_0, # of connection points: 2
#     Edge 75, Type (0, 1), BuildingBlock: AJUNOK_clean_linker_0, # of connection points: 2
#     Edge 76, Type (0, 1), BuildingBlock: AJUNOK_clean_linker_0, # of connection points: 2
#     Edge 77, Type (0, 1), BuildingBlock: AJUNOK_clean_linker_0, # of connection points: 2
#     Edge 78, Type (0, 1), BuildingBlock: AJUNOK_clean_linker_0, # of connection points: 2
#     Edge 79, Type (0, 1), BuildingBlock: AJUNOK_clean_linker_0, # of connection points: 2
#     Edge 80, Type (0, 1), BuildingBlock: AJUNOK_clean_linker_0, # of connection points: 2
#     Edge 81, Type (0, 1), BuildingBlock: AJUNOK_clean_linker_0, # of connection points: 2
#     Edge 82, Type (0, 1), BuildingBlock: AJUNOK_clean_linker_0, # of connection points: 2
#     Edge 83, Type (0, 1), BuildingBlock: AJUNOK_clean_linker_0, # of connection points: 2
#     Edge 84, Type (0, 1), BuildingBlock: AJUNOK_clean_linker_0, # of connection points: 2
#     Edge 85, Type (0, 1), BuildingBlock: AJUNOK_clean_linker_0, # of connection points: 2
#     Edge 86, Type (0, 1), BuildingBlock: AJUNOK_clean_linker_0, # of connection points: 2
#     Edge 87, Type (0, 1), BuildingBlock: AJUNOK_clean_linker_0, # of connection points: 2
#     Edge 88, Type (0, 1), BuildingBlock: AJUNOK_clean_linker_0, # of connection points: 2
#     Edge 89, Type (0, 1), BuildingBlock: AJUNOK_clean_linker_0, # of connection points: 2
#     Edge 90, Type (0, 1), BuildingBlock: AJUNOK_clean_linker_0, # of connection points: 2
#     Edge 91, Type (0, 1), BuildingBlock: AJUNOK_clean_linker_0, # of connection points: 2
#     Edge 92, Type (0, 1), BuildingBlock: AJUNOK_clean_linker_0, # of connection points: 2
#     Edge 93, Type (0, 1), BuildingBlock: AJUNOK_clean_linker_0, # of connection points: 2
#     Edge 94, Type (0, 1), BuildingBlock: AJUNOK_clean_linker_0, # of connection points: 2
#     Edge 95, Type (0, 1), BuildingBlock: AJUNOK_clean_linker_0, # of connection points: 2
#     Edge 96, Type (0, 1), BuildingBlock: AJUNOK_clean_linker_0, # of connection points: 2
#     Edge 97, Type (0, 1), BuildingBlock: AJUNOK_clean_linker_0, # of connection points: 2
#     Edge 98, Type (0, 1), BuildingBlock: AJUNOK_clean_linker_0, # of connection points: 2
#     Edge 99, Type (0, 1), BuildingBlock: AJUNOK_clean_linker_0, # of connection points: 2
#     Edge 100, Type (0, 1), BuildingBlock: AJUNOK_clean_linker_0, # of connection points: 2
#     Edge 101, Type (0, 1), BuildingBlock: AJUNOK_clean_linker_0, # of connection points: 2
#     Edge 102, Type (0, 1), BuildingBlock: AJUNOK_clean_linker_0, # of connection points: 2
#     Edge 103, Type (0, 1), BuildingBlock: AJUNOK_clean_linker_0, # of connection points: 2
#     Edge 104, Type (0, 1), BuildingBlock: AJUNOK_clean_linker_0, # of connection points: 2
#     Edge 105, Type (0, 1), BuildingBlock: AJUNOK_clean_linker_0, # of connection points: 2
#     Edge 106, Type (0, 1), BuildingBlock: AJUNOK_clean_linker_0, # of connection points: 2
#     Edge 107, Type (0, 1), BuildingBlock: AJUNOK_clean_linker_0, # of connection points: 2
#     Edge 108, Type (0, 1), BuildingBlock: AJUNOK_clean_linker_0, # of connection points: 2
#     Edge 109, Type (0, 1), BuildingBlock: AJUNOK_clean_linker_0, # of connection points: 2
#     Edge 110, Type (0, 1), BuildingBlock: AJUNOK_clean_linker_0, # of connection points: 2
#     Edge 111, Type (0, 1), BuildingBlock: AJUNOK_clean_linker_0, # of connection points: 2
#     Edge 112, Type (0, 1), BuildingBlock: AJUNOK_clean_linker_0, # of connection points: 2
#     Edge 113, Type (0, 1), BuildingBlock: AJUNOK_clean_linker_0, # of connection points: 2
#     Edge 114, Type (0, 1), BuildingBlock: AJUNOK_clean_linker_0, # of connection points: 2
#     Edge 115, Type (0, 1), BuildingBlock: AJUNOK_clean_linker_0, # of connection points: 2
#     Edge 116, Type (0, 1), BuildingBlock: AJUNOK_clean_linker_0, # of connection points: 2
#     Edge 117, Type (0, 1), BuildingBlock: AJUNOK_clean_linker_0, # of connection points: 2
#     Edge 118, Type (0, 1), BuildingBlock: AJUNOK_clean_linker_0, # of connection points: 2
#     Edge 119, Type (0, 1), BuildingBlock: AJUNOK_clean_linker_0, # of connection points: 2
#     Edge 120, Type (0, 1), BuildingBlock: AJUNOK_clean_linker_0, # of connection points: 2
#     Edge 121, Type (0, 1), BuildingBlock: AJUNOK_clean_linker_0, # of connection points: 2
#     Edge 122, Type (0, 1), BuildingBlock: AJUNOK_clean_linker_0, # of connection points: 2
#     Edge 123, Type (0, 1), BuildingBlock: AJUNOK_clean_linker_0, # of connection points: 2
#     Edge 124, Type (0, 1), BuildingBlock: AJUNOK_clean_linker_0, # of connection points: 2
#     Edge 125, Type (0, 1), BuildingBlock: AJUNOK_clean_linker_0, # of connection points: 2
#     Edge 126, Type (0, 1), BuildingBlock: AJUNOK_clean_linker_0, # of connection points: 2
#     Edge 127, Type (0, 1), BuildingBlock: AJUNOK_clean_linker_0, # of connection points: 2
#     Edge 128, Type (0, 1), BuildingBlock: AJUNOK_clean_linker_0, # of connection points: 2
#     Edge 129, Type (0, 1), BuildingBlock: AJUNOK_clean_linker_0, # of connection points: 2
#     Edge 130, Type (0, 1), BuildingBlock: AJUNOK_clean_linker_0, # of connection points: 2
#     Edge 131, Type (0, 1), BuildingBlock: AJUNOK_clean_linker_0, # of connection points: 2
#     Edge 132, Type (0, 1), BuildingBlock: AJUNOK_clean_linker_0, # of connection points: 2
#     Edge 133, Type (0, 1), BuildingBlock: AJUNOK_clean_linker_0, # of connection points: 2
#     Edge 134, Type (0, 1), BuildingBlock: AJUNOK_clean_linker_0, # of connection points: 2
#     Edge 135, Type (0, 1), BuildingBlock: AJUNOK_clean_linker_0, # of connection points: 2
# Relax obj value: 0.251
# Max RMSD: 0.284
# Mean RMSD: 0.231
data_MOF--net-ibd--node1-GALJAG_clean_sbu_0--node2-CIFDUS_clean_sbu_1--edge1-AJUNOK_clean_linker_0
_symmetry_space_group_name_H-M    P1
_symmetry_Int_Tables_number       1
_symmetry_cell_setting            triclinic
loop_
_symmetry_equiv_pos_as_xyz
'x, y, z'
_cell_length_a     36.113364
_cell_length_b     36.571837
_cell_length_c     36.974411
_cell_angle_alpha  90.707496
_cell_angle_beta   89.270217
_cell_angle_gamma 93.453742
loop_
_atom_site_label
_atom_site_type_symbol
_atom_site_fract_x
_atom_site_fract_y
_atom_site_fract_z
_atom_type_partial_charge
In0 In -0.00356 0.30622 0.36898 0.0
O1 O 0.04377 0.29377 0.33093 0.0
O2 O -0.00489 0.25733 0.33031 0.0
C3 C 0.02811 0.34671 0.4217 0.0
C4 C 0.96434 0.34962 0.32163 0.0
C5 C 0.96544 0.26313 0.42177 0.0
O6 O 0.04406 0.32032 0.40727 0.0
O7 O -0.0008 0.35559 0.40608 0.0
O8 O 0.94615 0.28395 0.40353 0.0
O9 O -0.00155 0.26144 0.41048 0.0
C10 C 0.02652 0.26632 0.31658 0.0
O11 O 0.94617 0.32827 0.34311 0.0
O12 O -0.00088 0.35033 0.32504 0.0
In13 In -0.00996 0.77659 0.64619 0.0
O14 O 0.96533 0.82507 0.67345 0.0
O15 O 0.94673 0.77165 0.69114 0.0
C16 C 0.03066 0.8109 0.59455 0.0
C17 C 0.0314 0.75151 0.69839 0.0
C18 C 0.95123 0.74106 0.59432 0.0
O19 O 0.01077 0.82726 0.61712 0.0
O20 O 0.0347 0.77767 0.6015 0.0
O21 O 0.97213 0.72538 0.6156 0.0
O22 O 0.94509 0.77367 0.60296 0.0
C23 C 0.94681 0.80585 0.69623 0.0
O24 O 0.01196 0.73027 0.67803 0.0
O25 O 0.03373 0.78473 0.68931 0.0
In26 In 0.49759 0.80413 0.87045 0.0
O27 O 0.54832 0.78868 0.83945 0.0
O28 O 0.49699 0.75952 0.82654 0.0
C29 C 0.53225 0.84638 0.91964 0.0
C30 C 0.46895 0.84571 0.82036 0.0
C31 C 0.46142 0.76729 0.92485 0.0
O32 O 0.54618 0.81779 0.90732 0.0
O33 O 0.50366 0.85558 0.90373 0.0
O34 O 0.45074 0.79687 0.9126 0.0
O35 O 0.4876 0.75398 0.90695 0.0
C36 C 0.53085 0.76642 0.81839 0.0
O37 O 0.44904 0.82321 0.83914 0.0
O38 O 0.50294 0.84831 0.82783 0.0
In39 In 0.49298 0.27493 0.14531 0.0
O40 O 0.49759 0.22856 0.18484 0.0
O41 O 0.54505 0.26536 0.17639 0.0
C42 C 0.44714 0.24929 0.09381 0.0
C43 C 0.457 0.30814 0.19828 0.0
C44 C 0.53263 0.3073 0.09214 0.0
O45 O 0.46723 0.2284 0.11115 0.0
O46 O 0.44748 0.282 0.10516 0.0
O47 O 0.51604 0.32495 0.11656 0.0
O48 O 0.53323 0.27322 0.09734 0.0
C49 C 0.52966 0.23972 0.1948 0.0
O50 O 0.48827 0.32093 0.18698 0.0
O51 O 0.4427 0.28152 0.1802 0.0
In52 In -0.01005 0.77884 0.12693 0.0
O53 O 0.94479 0.79336 0.0889 0.0
O54 O -0.00722 0.8304 0.0936 0.0
C55 C 0.95436 0.74105 0.17944 0.0
C56 C 0.01586 0.7394 0.07265 0.0
C57 C 0.02652 0.81407 0.1802 0.0
O58 O 0.93922 0.76544 0.16171 0.0
O59 O 0.98555 0.73246 0.16719 0.0
O60 O 0.04158 0.79196 0.15869 0.0
O61 O -0.0059 0.82188 0.17186 0.0
C62 C 0.96309 0.82134 0.07721 0.0
O63 O 0.03629 0.76386 0.08839 0.0
O64 O 0.98497 0.73159 0.08798 0.0
In65 In 0.51562 0.78781 0.39187 0.0
O66 O 0.52722 0.73699 0.42476 0.0
O67 O 0.56389 0.78415 0.43135 0.0
C68 C 0.47768 0.75499 0.33555 0.0
C69 C 0.4785 0.82113 0.44482 0.0
C70 C 0.55092 0.82975 0.34211 0.0
O71 O 0.51058 0.74807 0.34294 0.0
O72 O 0.46241 0.77491 0.35891 0.0
O73 O 0.52106 0.83857 0.3571 0.0
O74 O 0.56535 0.8026 0.35597 0.0
C75 C 0.55439 0.75217 0.44165 0.0
O76 O 0.5066 0.8364 0.42927 0.0
O77 O 0.46719 0.79043 0.43174 0.0
In78 In 0.48649 0.28648 0.62519 0.0
O79 O 0.53326 0.27284 0.58654 0.0
O80 O 0.48496 0.23647 0.58895 0.0
C81 C 0.52305 0.32479 0.67721 0.0
C82 C 0.45354 0.32347 0.5735 0.0
C83 C 0.45221 0.24747 0.67827 0.0
O84 O 0.53687 0.29902 0.65958 0.0
O85 O 0.49289 0.335 0.66488 0.0
O86 O 0.4356 0.26927 0.65866 0.0
O87 O 0.4852 0.24243 0.66862 0.0
C88 C 0.5153 0.24538 0.57307 0.0
O89 O 0.43501 0.30225 0.59462 0.0
O90 O 0.48746 0.32898 0.58106 0.0
In91 In 0.01647 0.28918 0.89172 0.0
O92 O 0.02493 0.23959 0.92724 0.0
O93 O 0.06493 0.28456 0.93084 0.0
C94 C 0.97945 0.25379 0.83617 0.0
C95 C 0.97947 0.32447 0.94404 0.0
C96 C 0.05266 0.32852 0.84007 0.0
O97 O 0.01133 0.2456 0.84585 0.0
O98 O 0.96467 0.27666 0.85697 0.0
O99 O 0.02351 0.33896 0.8553 0.0
O100 O 0.06609 0.30123 0.85463 0.0
C101 C 0.0532 0.2539 0.94305 0.0
O102 O 0.00956 0.33754 0.93028 0.0
O103 O 0.9662 0.29522 0.92933 0.0
In104 In 0.36262 0.00799 0.24159 0.0
O105 O 0.32584 0.95928 0.25666 0.0
O106 O 0.31906 0.00883 0.28663 0.0
C107 C 0.41047 0.96539 0.2076 0.0
C108 C 0.31118 0.04252 0.20345 0.0
C109 C 0.41812 0.03817 0.28269 0.0
O110 O 0.39172 0.95486 0.23491 0.0
O111 O 0.40237 0.99603 0.19534 0.0
O112 O 0.41262 0.04935 0.2511 0.0
O113 O 0.39374 0.01477 0.29411 0.0
C114 C 0.30671 0.97651 0.27928 0.0
O115 O 0.33345 0.05937 0.22495 0.0
O116 O 0.31725 0.00922 0.1984 0.0
In117 In 0.24754 0.15289 0.50961 0.0
O118 O 0.20047 0.18595 0.52904 0.0
O119 O 0.25225 0.19373 0.55608 0.0
C120 C 0.21217 0.09771 0.47384 0.0
C121 C 0.27795 0.20774 0.46961 0.0
C122 C 0.27678 0.10421 0.55235 0.0
O123 O 0.19585 0.11979 0.49416 0.0
O124 O 0.24574 0.10708 0.46668 0.0
O125 O 0.29659 0.12514 0.53189 0.0
O126 O 0.24268 0.10981 0.55339 0.0
C127 C 0.22029 0.20491 0.55106 0.0
O128 O 0.29775 0.18538 0.48513 0.0
O129 O 0.24363 0.19891 0.46966 0.0
In130 In 0.11756 0.05222 0.7422 0.0
O131 O 0.07372 0.00678 0.75566 0.0
O132 O 0.08004 0.05221 0.79213 0.0
C133 C 0.16726 0.01371 0.70601 0.0
C134 C 0.06711 0.08576 0.70595 0.0
C135 C 0.17552 0.08325 0.77651 0.0
O136 O 0.14517 -0.00041 0.72953 0.0
O137 O 0.16112 0.04612 0.69751 0.0
O138 O 0.16088 0.09851 0.75017 0.0
O139 O 0.1576 0.05508 0.78852 0.0
C140 C 0.06139 0.02315 0.78322 0.0
O141 O 0.08512 0.10216 0.731 0.0
O142 O 0.07878 0.05533 0.6959 0.0
In143 In 0.23682 0.90843 0.01042 0.0
O144 O 0.18545 0.93237 0.0329 0.0
O145 O 0.2365 0.9447 0.06036 0.0
C146 C 0.21032 0.85658 0.96458 0.0
C147 C 0.27068 0.96812 0.97973 0.0
C148 C 0.26826 0.85685 0.04801 0.0
O149 O 0.18915 0.87314 0.9858 0.0
O150 O 0.24325 0.87014 0.96271 0.0
O151 O 0.28738 0.88102 0.03073 0.0
O152 O 0.23387 0.86113 0.04936 0.0
C153 C 0.20264 0.95071 0.05732 0.0
O154 O 0.28742 0.94247 0.99354 0.0
O155 O 0.23608 0.96152 0.97679 0.0
In156 In 0.24923 0.40958 0.00932 0.0
O157 O 0.26886 0.37712 0.96112 0.0
O158 O 0.29912 0.37352 0.00976 0.0
C159 C 0.20121 0.45062 0.97767 0.0
C160 C 0.21026 0.35417 0.04295 0.0
C161 C 0.28458 0.47231 0.0345 0.0
O162 O 0.22831 0.4381 0.96067 0.0
O163 O 0.19571 0.43845 0.00922 0.0
O164 O 0.26744 0.44975 0.0554 0.0
O165 O 0.28755 0.46133 0.00219 0.0
C166 C 0.29391 0.36182 0.97778 0.0
O167 O 0.22934 0.37873 0.06014 0.0
O168 O 0.2089 0.35893 0.00927 0.0
In169 In 0.73539 0.16301 0.00413 0.0
O170 O 0.72351 0.12459 0.05057 0.0
O171 O 0.68734 0.12046 0.00523 0.0
C172 C 0.77101 0.22048 0.036 0.0
C173 C 0.77625 0.1145 0.97057 0.0
C174 C 0.7016 0.21535 0.97252 0.0
O175 O 0.74647 0.20029 0.05223 0.0
O176 O 0.78195 0.20799 0.0059 0.0
O177 O 0.72311 0.19488 0.9556 0.0
O178 O 0.69111 0.20452 0.00354 0.0
C179 C 0.69801 0.10625 0.034 0.0
O180 O 0.7463 0.12421 0.95741 0.0
O181 O 0.78749 0.13229 -0.00168 0.0
In182 In 0.12252 0.55073 0.26906 0.0
O183 O 0.1603 0.53259 0.3135 0.0
O184 O 0.15617 0.50133 0.26449 0.0
C185 C 0.0711 0.59273 0.29749 0.0
C186 C 0.18 0.58923 0.23941 0.0
C187 C 0.06993 0.50746 0.23792 0.0
O188 O 0.08997 0.57259 0.31687 0.0
O189 O 0.08067 0.59427 0.26455 0.0
O190 O 0.09291 0.52814 0.22035 0.0
O191 O 0.07508 0.50651 0.27168 0.0
C192 C 0.17294 0.5075 0.29383 0.0
O193 O 0.1574 0.56969 0.22047 0.0
O194 O 0.17023 0.5935 0.27203 0.0
In195 In 0.74897 0.91219 0.50874 0.0
O196 O 0.76062 0.87676 0.46038 0.0
O197 O 0.79784 0.87515 0.50455 0.0
C198 C 0.7025 0.9568 0.48115 0.0
C199 C 0.71211 0.85721 0.54325 0.0
C200 C 0.78576 0.97328 0.53384 0.0
O201 O 0.72758 0.9431 0.46197 0.0
O202 O 0.69809 0.94389 0.51261 0.0
O203 O 0.76978 0.95008 0.55489 0.0
O204 O 0.78705 0.96355 0.50101 0.0
C205 C 0.78661 0.86094 0.47506 0.0
O206 O 0.73928 0.87568 0.55707 0.0
O207 O 0.70042 0.86951 0.51402 0.0
In208 In 0.86526 0.00731 0.26792 0.0
O209 O 0.89059 0.99063 0.31832 0.0
O210 O 0.90569 0.96277 0.26938 0.0
C211 C 0.81188 0.04906 0.2945 0.0
C212 C 0.92364 0.04465 0.2369 0.0
C213 C 0.81442 0.9656 0.23484 0.0
O214 O 0.82012 0.02021 0.31003 0.0
O215 O 0.83321 0.05863 0.2685 0.0
O216 O 0.83347 0.99041 0.21836 0.0
O217 O 0.82497 0.95862 0.26624 0.0
C218 C 0.91212 0.96946 0.30235 0.0
O219 O 0.89971 0.02505 0.21945 0.0
O220 O 0.91689 0.04778 0.27042 0.0
In221 In 0.23461 0.66198 0.50096 0.0
O222 O 0.2565 0.62572 0.45579 0.0
O223 O 0.28699 0.63296 0.50467 0.0
C224 C 0.18681 0.70824 0.47658 0.0
C225 C 0.19953 0.60212 0.52781 0.0
C226 C 0.27183 0.71745 0.53509 0.0
O227 O 0.21251 0.69641 0.45677 0.0
O228 O 0.18317 0.69403 0.50742 0.0
O229 O 0.25179 0.69291 0.55114 0.0
O230 O 0.27627 0.71193 0.50147 0.0
C231 C 0.28226 0.6152 0.47548 0.0
O232 O 0.21639 0.62609 0.54757 0.0
O233 O 0.19602 0.611 0.49518 0.0
In234 In 0.36714 0.50874 0.76801 0.0
O235 O 0.39636 0.49043 0.81745 0.0
O236 O 0.40253 0.45958 0.76861 0.0
C237 C 0.31546 0.55442 0.79082 0.0
C238 C 0.42638 0.54596 0.73802 0.0
C239 C 0.31143 0.46643 0.74079 0.0
O240 O 0.33232 0.53516 0.81284 0.0
O241 O 0.32792 0.55362 0.75876 0.0
O242 O 0.33253 0.48693 0.72104 0.0
O243 O 0.32125 0.4644 0.77334 0.0
C244 C 0.41235 0.46509 0.80095 0.0
O245 O 0.40645 0.52253 0.72039 0.0
O246 O 0.41467 0.55301 0.76952 0.0
In247 In 0.62495 0.0491 0.76898 0.0
O248 O 0.66232 0.0333 0.81485 0.0
O249 O 0.65706 -0.00145 0.76829 0.0
C250 C 0.574 0.09013 0.79936 0.0
C251 C 0.6826 0.08735 0.73959 0.0
C252 C 0.57142 0.00955 0.73365 0.0
O253 O 0.58713 0.06342 0.81521 0.0
O254 O 0.5896 0.09881 0.76967 0.0
O255 O 0.59579 0.03025 0.71789 0.0
O256 O 0.57582 0.00635 0.76729 0.0
C257 C 0.67388 0.00626 0.79736 0.0
O258 O 0.65983 0.06833 0.72034 0.0
O259 O 0.67402 0.09026 0.77264 0.0
In260 In 0.73332 0.6518 0.01259 0.0
O261 O 0.68597 0.68641 0.02756 0.0
O262 O 0.7333 0.68893 0.06201 0.0
C263 C 0.70085 0.59468 0.97802 0.0
C264 C 0.76372 0.70736 0.97405 0.0
C265 C 0.7707 0.6028 0.04728 0.0
O266 O 0.68566 0.61027 0.00458 0.0
O267 O 0.72938 0.61167 0.9651 0.0
O268 O 0.78366 0.62002 0.01999 0.0
O269 O 0.74049 0.61348 0.06001 0.0
C270 C 0.70289 0.70191 0.05386 0.0
O271 O 0.78207 0.68932 0.9958 0.0
O272 O 0.73097 0.69451 0.96856 0.0
In273 In 0.86391 0.50675 0.74679 0.0
O274 O 0.82645 0.45763 0.76179 0.0
O275 O 0.82042 0.50647 0.79261 0.0
C276 C 0.91133 0.46873 0.70632 0.0
C277 C 0.81447 0.54659 0.71133 0.0
C278 C 0.92077 0.53509 0.78858 0.0
O279 O 0.89024 0.45392 0.73001 0.0
O280 O 0.90567 0.50194 0.70039 0.0
O281 O 0.90311 0.55427 0.76734 0.0
O282 O 0.90796 0.50236 0.79101 0.0
C283 C 0.80849 0.474 0.78586 0.0
O284 O 0.83767 0.55986 0.73395 0.0
O285 O 0.81907 0.5136 0.70264 0.0
In286 In 0.73566 0.40771 0.51076 0.0
O287 O 0.68323 0.43356 0.52545 0.0
O288 O 0.72912 0.44215 0.56131 0.0
C289 C 0.70667 0.35427 0.46879 0.0
C290 C 0.76573 0.46733 0.47778 0.0
C291 C 0.76686 0.35587 0.54725 0.0
O292 O 0.68648 0.37228 0.48983 0.0
O293 O 0.74017 0.36615 0.4661 0.0
O294 O 0.78483 0.37424 0.52331 0.0
O295 O 0.73538 0.36701 0.55536 0.0
C296 C 0.69695 0.45034 0.55272 0.0
O297 O 0.77967 0.45436 0.50565 0.0
O298 O 0.7392 0.44802 0.46412 0.0
In299 In 0.61833 0.54633 0.24399 0.0
O300 O 0.58208 0.50059 0.26912 0.0
O301 O 0.57174 0.55544 0.28457 0.0
C302 C 0.66559 0.50537 0.20836 0.0
C303 C 0.56768 0.57377 0.20311 0.0
C304 C 0.67458 0.5838 0.27725 0.0
O305 O 0.64632 0.49403 0.23514 0.0
O306 O 0.65763 0.53612 0.19635 0.0
O307 O 0.65689 0.5962 0.25136 0.0
O308 O 0.66125 0.55354 0.28928 0.0
C309 C 0.56093 0.52199 0.28513 0.0
O310 O 0.58892 0.59389 0.22286 0.0
O311 O 0.57597 0.54078 0.19986 0.0
O312 O 0.15725 0.19172 0.10807 0.0
Mn313 Mn 0.12305 0.15234 0.13449 0.0
O314 O 0.18611 0.22277 0.15368 0.0
Mn315 Mn 0.17576 0.18919 0.19044 0.0
O316 O 0.08339 0.11596 0.16249 0.0
O317 O 0.08684 0.15944 0.09326 0.0
Mn318 Mn 0.06937 0.11527 0.0805 0.0
O319 O 0.14629 0.1092 0.107 0.0
O320 O 0.04428 0.09558 0.1189 0.0
O321 O 0.09882 0.19332 0.16643 0.0
O322 O 0.13391 0.19717 0.21629 0.0
O323 O 0.0464 0.14524 0.05053 0.0
O324 O 0.10743 0.08872 0.06361 0.0
C325 C 0.19353 0.1347 0.1876 0.0
C326 C 0.17588 0.21993 0.12078 0.0
C327 C 0.05221 0.09982 0.15199 0.0
C328 C 0.06757 0.1704 0.06617 0.0
C329 C 0.13711 0.08695 0.08126 0.0
C330 C 0.10353 0.20082 0.20037 0.0
O331 O 0.16513 0.14598 0.17029 0.0
O332 O 0.20998 0.15939 0.20811 0.0
O333 O 0.08053 0.86553 0.34347 0.0
Mn334 Mn 0.10823 0.89499 0.3865 0.0
O335 O 0.11322 0.81696 0.33165 0.0
Mn336 Mn 0.15613 0.83911 0.3492 0.0
O337 O 0.13855 0.93012 0.42548 0.0
O338 O 0.07032 0.93349 0.38041 0.0
Mn339 Mn 0.06813 0.94497 0.42756 0.0
O340 O 0.07598 0.86587 0.42594 0.0
O341 O 0.10476 0.97946 0.42892 0.0
O342 O 0.14327 0.92201 0.34797 0.0
O343 O 0.17701 0.87761 0.32385 0.0
O344 O 0.02125 0.94554 0.41426 0.0
O345 O 0.07242 0.91199 0.46385 0.0
C346 C 0.16417 0.83004 0.40362 0.0
C347 C 0.08617 0.83612 0.32507 0.0
C348 C 0.13525 0.96482 0.43288 0.0
C349 C 0.03462 0.93662 0.38293 0.0
C350 C 0.06921 0.87823 0.45763 0.0
C351 C 0.16877 0.91084 0.32645 0.0
O352 O 0.14458 0.85583 0.39197 0.0
O353 O 0.18325 0.81317 0.37938 0.0
O354 O 0.41334 0.95063 0.65816 0.0
Mn355 Mn 0.3713 0.91929 0.631 0.0
O356 O 0.44335 0.98653 0.61707 0.0
Mn357 Mn 0.41658 0.96953 0.57767 0.0
O358 O 0.33129 0.88285 0.6033 0.0
O359 O 0.37374 0.88538 0.67405 0.0
Mn360 Mn 0.3291 0.86662 0.68262 0.0
O361 O 0.32849 0.94703 0.65719 0.0
O362 O 0.31805 0.8385 0.64382 0.0
O363 O 0.41079 0.89012 0.60031 0.0
O364 O 0.43282 0.92867 0.55663 0.0
O365 O 0.35619 0.84771 0.71774 0.0
O366 O 0.29873 0.90444 0.69208 0.0
C367 C 0.36154 0.98521 0.57266 0.0
C368 C 0.43987 0.97379 0.64887 0.0
C369 C 0.31699 0.85057 0.61204 0.0
C370 C 0.38242 0.86884 0.70349 0.0
C371 C 0.30135 0.93628 0.67832 0.0
C372 C 0.42816 0.89697 0.56994 0.0
O373 O 0.37072 0.95778 0.59193 0.0
O374 O 0.38818 -0.00023 0.55275 0.0
O375 O 0.39881 0.19818 0.9274 0.0
Mn376 Mn 0.3714 0.16795 0.88572 0.0
O377 O 0.43945 0.16191 0.95146 0.0
Mn378 Mn 0.42556 0.12295 0.92243 0.0
O379 O 0.33953 0.13738 0.84651 0.0
O380 O 0.33193 0.2058 0.89255 0.0
Mn381 Mn 0.31828 0.21683 0.84881 0.0
O382 O 0.39765 0.19885 0.8433 0.0
O383 O 0.29806 0.17605 0.82681 0.0
O384 O 0.34373 0.1317 0.92504 0.0
O385 O 0.38759 0.09408 0.93917 0.0
O386 O 0.28944 0.24383 0.87709 0.0
O387 O 0.35798 0.23932 0.8251 0.0
C388 C 0.44434 0.11559 0.87108 0.0
C389 C 0.42263 0.19124 0.95152 0.0
C390 C 0.31109 0.14471 0.82755 0.0
C391 C 0.30943 0.23101 0.90237 0.0
C392 C 0.38822 0.22375 0.82142 0.0
C393 C 0.35435 0.10257 0.94078 0.0
O394 O 0.41593 0.13554 0.87802 0.0
O395 O 0.45974 0.09988 0.89786 0.0
O396 O 0.57301 0.37576 0.84333 0.0
Mn397 Mn 0.60645 0.39771 0.88643 0.0
O398 O 0.58939 0.32056 0.83435 0.0
Mn399 Mn 0.63576 0.33866 0.84569 0.0
O400 O 0.63966 0.42754 0.92479 0.0
O401 O 0.56911 0.4367 0.88576 0.0
Mn402 Mn 0.56224 0.45375 0.92954 0.0
O403 O 0.57568 0.37073 0.92826 0.0
O404 O 0.60663 0.47523 0.94234 0.0
O405 O 0.64242 0.42231 0.84741 0.0
O406 O 0.65976 0.37271 0.81602 0.0
O407 O 0.53011 0.47759 0.9022 0.0
O408 O 0.54574 0.41477 0.95736 0.0
C409 C 0.65542 0.32536 0.8958 0.0
C410 C 0.56843 0.34505 0.82679 0.0
C411 C 0.63663 0.45903 0.94038 0.0
C412 C 0.54225 0.45657 0.8768 0.0
C413 C 0.55587 0.38208 0.95493 0.0
C414 C 0.66397 0.40669 0.82442 0.0
O415 O 0.64431 0.35798 0.88958 0.0
O416 O 0.65722 0.30333 0.86816 0.0
O417 O 0.91176 0.44691 0.16252 0.0
Mn418 Mn 0.87002 0.41923 0.13151 0.0
O419 O 0.94339 0.48499 0.12441 0.0
Mn420 Mn 0.91628 0.47287 0.08404 0.0
O421 O 0.83048 0.38737 0.09924 0.0
O422 O 0.86933 0.38089 0.17112 0.0
Mn423 Mn 0.82404 0.36102 0.17481 0.0
O424 O 0.82771 0.44442 0.15911 0.0
O425 O 0.816 0.33723 0.13247 0.0
O426 O 0.90993 0.39223 0.09947 0.0
O427 O 0.93056 0.43353 0.05804 0.0
O428 O 0.84922 0.3401 0.21045 0.0
O429 O 0.79308 0.39856 0.18553 0.0
C430 C 0.86272 0.49017 0.07692 0.0
C431 C 0.93906 0.46994 0.15509 0.0
C432 C 0.81652 0.35401 0.10278 0.0
C433 C 0.87569 0.36365 0.20087 0.0
C434 C 0.79891 0.43206 0.17682 0.0
C435 C 0.9266 0.40094 0.06926 0.0
O436 O 0.86976 0.46243 0.09699 0.0
O437 O 0.8911 0.50677 0.06108 0.0
O438 O 0.90389 0.68836 0.42846 0.0
Mn439 Mn 0.87211 0.66405 0.38652 0.0
O440 O 0.93121 0.6424 0.45554 0.0
Mn441 Mn 0.9149 0.6052 0.42447 0.0
O442 O 0.83623 0.6395 0.34694 0.0
O443 O 0.83778 0.70728 0.39532 0.0
Mn444 Mn 0.83664 0.72246 0.3502 0.0
O445 O 0.90465 0.69059 0.34476 0.0
O446 O 0.8153 0.68809 0.3197 0.0
O447 O 0.83833 0.63174 0.42345 0.0
O448 O 0.87073 0.58273 0.43599 0.0
O449 O 0.80517 0.75147 0.37093 0.0
O450 O 0.88133 0.74403 0.33717 0.0
C451 C 0.93742 0.60548 0.37162 0.0
C452 C 0.92364 0.67589 0.45371 0.0
C453 C 0.81503 0.65383 0.32384 0.0
C454 C 0.81586 0.73469 0.39935 0.0
C455 C 0.90491 0.7215 0.32858 0.0
C456 C 0.84073 0.5988 0.43542 0.0
O457 O 0.90949 0.62442 0.38156 0.0
O458 O 0.94743 0.58241 0.39541 0.0
O459 O 0.83196 0.87472 0.92177 0.0
Mn460 Mn 0.86431 0.91385 0.89118 0.0
O461 O 0.81423 0.83581 0.87918 0.0
Mn462 Mn 0.81346 0.87275 0.84686 0.0
O463 O 0.90108 0.95293 0.8608 0.0
O464 O 0.90395 0.90485 0.93108 0.0
Mn465 Mn 0.91865 0.9523 0.92675 0.0
O466 O 0.83887 0.95386 0.92192 0.0
O467 O 0.95304 0.95397 0.89209 0.0
O468 O 0.88817 0.8745 0.85508 0.0
O469 O 0.84576 0.86566 0.81115 0.0
O470 O 0.93018 0.94565 0.97156 0.0
O471 O 0.88807 0.99095 0.92607 0.0
C472 C 0.78693 0.92185 0.85142 0.0
C473 C 0.81812 0.84332 0.91189 0.0
C474 C 0.93682 0.96026 0.86325 0.0
C475 C 0.91506 0.91335 0.96441 0.0
C476 C 0.8535 0.9856 0.92877 0.0
C477 C 0.8788 0.8651 0.82213 0.0
O478 O 0.82315 0.92153 0.85381 0.0
O479 O 0.76883 0.8904 0.84923 0.0
O480 O 0.9125 0.20063 0.672 0.0
Mn481 Mn 0.87743 0.17619 0.63012 0.0
O482 O 0.88638 0.24938 0.69274 0.0
Mn483 Mn 0.84139 0.23054 0.67778 0.0
O484 O 0.84448 0.14198 0.59378 0.0
O485 O 0.91636 0.13887 0.62738 0.0
Mn486 Mn 0.9268 0.13054 0.5814 0.0
O487 O 0.90334 0.20628 0.58608 0.0
O488 O 0.88502 0.11107 0.55995 0.0
O489 O 0.84566 0.1478 0.67084 0.0
O490 O 0.81852 0.19258 0.70268 0.0
O491 O 0.95647 0.10116 0.60543 0.0
O492 O 0.94686 0.17234 0.56137 0.0
C493 C 0.82635 0.24774 0.62774 0.0
C494 C 0.91207 0.22806 0.69416 0.0
C495 C 0.85235 0.11591 0.57118 0.0
C496 C 0.94199 0.11651 0.6336 0.0
C497 C 0.92948 0.20131 0.56255 0.0
C498 C 0.82147 0.15897 0.69415 0.0
O499 O 0.83793 0.21484 0.63223 0.0
O500 O 0.81865 0.26615 0.65683 0.0
O501 O 0.63841 0.19254 0.41173 0.0
Mn502 Mn 0.61355 0.14516 0.38645 0.0
O503 O 0.69247 0.20418 0.38678 0.0
Mn504 Mn 0.66618 0.18349 0.34937 0.0
O505 O 0.57774 0.10002 0.36334 0.0
O506 O 0.57323 0.15547 0.4246 0.0
Mn507 Mn 0.56421 0.10795 0.4349 0.0
O508 O 0.64278 0.11369 0.42193 0.0
O509 O 0.52961 0.09897 0.40221 0.0
O510 O 0.58593 0.17567 0.34855 0.0
O511 O 0.63241 0.21214 0.32933 0.0
O512 O 0.56491 0.12948 0.47817 0.0
O513 O 0.59787 0.07283 0.43343 0.0
C514 C 0.68683 0.13931 0.32586 0.0
C515 C 0.67004 0.20995 0.41186 0.0
C516 C 0.54271 0.09132 0.3714 0.0
C517 C 0.57083 0.15919 0.45988 0.0
C518 C 0.63154 0.08264 0.43412 0.0
C519 C 0.5988 0.20142 0.32811 0.0
O520 O 0.65929 0.13378 0.3502 0.0
O521 O 0.69537 0.17202 0.31435 0.0
O522 O 0.58 0.88267 0.08852 0.0
Mn523 Mn 0.61339 0.90474 0.12996 0.0
O524 O 0.55173 0.93116 0.06651 0.0
Mn525 Mn 0.56784 0.9666 0.09978 0.0
O526 O 0.64908 0.92791 0.16816 0.0
O527 O 0.64963 0.86288 0.12024 0.0
Mn528 Mn 0.65971 0.84298 0.16388 0.0
O529 O 0.58533 0.87599 0.17243 0.0
O530 O 0.67691 0.88095 0.19349 0.0
O531 O 0.64329 0.93819 0.09129 0.0
O532 O 0.61172 0.98949 0.08821 0.0
O533 O 0.65008 0.86216 0.11941 0.0
O534 O 0.61524 0.82562 0.18309 0.0
C535 C 0.54891 0.9596 0.15348 0.0
C536 C 0.56043 0.89788 0.06471 0.0
C537 C 0.6717 0.91485 0.19036 0.0
C538 C 0.65849 0.84769 0.08983 0.0
C539 C 0.59069 0.84757 0.19141 0.0
C540 C 0.64017 0.97181 0.08179 0.0
O541 O 0.57664 0.94338 0.13935 0.0
O542 O 0.53659 0.985 0.13355 0.0
O543 O 0.40783 0.70536 0.17268 0.0
Mn544 Mn 0.37638 0.67534 0.13145 0.0
O545 O 0.36946 0.74279 0.20088 0.0
Mn546 Mn 0.32822 0.72338 0.17777 0.0
O547 O 0.34501 0.63924 0.09548 0.0
O548 O 0.41675 0.63816 0.13161 0.0
Mn549 Mn 0.42745 0.63449 0.08475 0.0
O550 O 0.40166 0.70593 0.08708 0.0
O551 O 0.38772 0.61599 0.05888 0.0
O552 O 0.34653 0.64455 0.17167 0.0
O553 O 0.30705 0.68239 0.19795 0.0
O554 O 0.4564 0.60211 0.10358 0.0
O555 O 0.45047 0.67664 0.06844 0.0
C556 C 0.3139 0.73931 0.12654 0.0
C557 C 0.40064 0.72881 0.19813 0.0
C558 C 0.35484 0.61579 0.0711 0.0
C559 C 0.44256 0.61461 0.1335 0.0
C560 C 0.43037 0.70341 0.06615 0.0
C561 C 0.31883 0.65089 0.1928 0.0
O562 O 0.3375 0.71412 0.13157 0.0
O563 O 0.29833 0.75285 0.1551 0.0
O564 O 0.14769 0.689 0.91357 0.0
Mn565 Mn 0.11757 0.64676 0.88478 0.0
O566 O 0.18988 0.71476 0.87558 0.0
Mn567 Mn 0.17104 0.6879 0.83761 0.0
O568 O 0.08332 0.60806 0.85437 0.0
O569 O 0.07581 0.65469 0.92399 0.0
Mn570 Mn 0.06488 0.60724 0.93173 0.0
O571 O 0.1424 0.60489 0.91447 0.0
O572 O 0.04374 0.5817 0.89428 0.0
O573 O 0.09128 0.68487 0.85308 0.0
O574 O 0.13361 0.70744 0.81375 0.0
O575 O 0.03185 0.62646 0.95988 0.0
O576 O 0.10076 0.58593 0.95577 0.0
C577 C 0.19055 0.63884 0.82442 0.0
C578 C 0.1743 0.7129 0.90626 0.0
C579 C 0.05461 0.58668 0.86219 0.0
C580 C 0.0488 0.65653 0.94851 0.0
C581 C 0.13231 0.58424 0.94133 0.0
C582 C 0.10065 0.70391 0.82519 0.0
O583 O 0.16251 0.64049 0.84802 0.0
O584 O 0.20367 0.66848 0.80874 0.0
O585 O 0.07439 0.38429 0.58865 0.0
Mn586 Mn 0.11256 0.40319 0.62792 0.0
O587 O 0.04906 0.43581 0.56979 0.0
Mn588 Mn 0.06937 0.46918 0.60249 0.0
O589 O 0.15235 0.4258 0.66291 0.0
O590 O 0.1474 0.35853 0.61297 0.0
Mn591 Mn 0.13919 0.34716 0.66011 0.0
O592 O 0.08273 0.37886 0.67267 0.0
O593 O 0.16159 0.37723 0.695 0.0
O594 O 0.14193 0.43534 0.5878 0.0
O595 O 0.11384 0.48897 0.5886 0.0
O596 O 0.17088 0.31559 0.64992 0.0
O597 O 0.09541 0.32248 0.67108 0.0
C598 C 0.05112 0.45967 0.65555 0.0
C599 C 0.05451 0.40181 0.56655 0.0
C600 C 0.1684 0.4107 0.68874 0.0
C601 C 0.16896 0.33053 0.61852 0.0
C602 C 0.07777 0.34682 0.68578 0.0
C603 C 0.14051 0.46962 0.5797 0.0
O604 O 0.07862 0.44378 0.64031 0.0
O605 O 0.04044 0.48764 0.63815 0.0
O606 O 0.65673 0.69015 0.60174 0.0
Mn607 Mn 0.62425 0.65422 0.63417 0.0
O608 O 0.68443 0.72745 0.6418 0.0
Mn609 Mn 0.67752 0.69566 0.67985 0.0
O610 O 0.58622 0.61934 0.66505 0.0
O611 O 0.58675 0.65872 0.59362 0.0
Mn612 Mn 0.56486 0.61501 0.58568 0.0
O613 O 0.6457 0.61019 0.60785 0.0
O614 O 0.53936 0.60328 0.62706 0.0
O615 O 0.60102 0.69727 0.66489 0.0
O616 O 0.64102 0.7087 0.71035 0.0
O617 O 0.54507 0.64433 0.55247 0.0
O618 O 0.60128 0.58419 0.5721 0.0
C619 C 0.70179 0.64496 0.67714 0.0
C620 C 0.67536 0.71973 0.60975 0.0
C621 C 0.55295 0.60557 0.65854 0.0
C622 C 0.5682 0.66913 0.56591 0.0
C623 C 0.63368 0.58571 0.5853 0.0
C624 C 0.60914 0.71059 0.69667 0.0
O625 O 0.66581 0.64755 0.67238 0.0
O626 O 0.71975 0.67456 0.68844 0.0
O627 O 0.33894 0.3782 0.42202 0.0
Mn628 Mn 0.36628 0.41718 0.38838 0.0
O629 O 0.31297 0.34094 0.3817 0.0
Mn630 Mn 0.31413 0.37716 0.34846 0.0
O631 O 0.39907 0.45489 0.35637 0.0
O632 O 0.40801 0.41347 0.42451 0.0
Mn633 Mn 0.42634 0.45842 0.43396 0.0
O634 O 0.34437 0.45914 0.42017 0.0
O635 O 0.44579 0.47682 0.39196 0.0
O636 O 0.38901 0.37632 0.35271 0.0
O637 O 0.34438 0.36633 0.31219 0.0
O638 O 0.45273 0.42922 0.46208 0.0
O639 O 0.38943 0.48414 0.45524 0.0
C640 C 0.28666 0.42184 0.34292 0.0
C641 C 0.32439 0.34694 0.413 0.0
C642 C 0.43032 0.47328 0.36143 0.0
C643 C 0.42971 0.40353 0.45 0.0
C644 C 0.35598 0.48197 0.4449 0.0
C645 C 0.37748 0.36352 0.32156 0.0
O646 O 0.32123 0.42587 0.35473 0.0
O647 O 0.26954 0.38975 0.33979 0.0
C648 C 0.04727 0.21099 0.28443 0.0
C649 C 0.0406 0.2483 0.28399 0.0
C650 C 0.06424 0.19448 0.2547 0.0
C651 C 0.07419 0.21457 0.22343 0.0
H652 H 0.04136 0.19509 0.30858 0.0
H653 H 0.07195 0.16642 0.25708 0.0
S654 S 0.0594 0.31209 0.20801 0.0
N655 N 0.04274 0.30435 0.24924 0.0
N656 N 0.07426 0.27281 0.19303 0.0
C657 C 0.0655 0.25122 0.22187 0.0
C658 C 0.04883 0.26826 0.25236 0.0
C659 C 0.06528 0.8107 0.53481 0.0
C660 C 0.04006 0.82682 0.55872 0.0
C661 C 0.07284 0.82531 0.50021 0.0
C662 C 0.05465 0.85569 0.48815 0.0
H663 H 0.07999 0.78735 0.54324 0.0
H664 H 0.09433 0.81409 0.48382 0.0
S665 S 0.98197 0.90422 0.53803 0.0
N666 N -0.00549 0.87286 0.56628 0.0
N667 N 0.00732 0.89868 0.50118 0.0
C668 C 0.02749 0.87017 0.51088 0.0
C669 C 0.02063 0.85625 0.54618 0.0
C670 C 0.46786 0.85722 0.75422 0.0
C671 C 0.45404 0.86416 0.78928 0.0
C672 C 0.44706 0.86492 0.7236 0.0
C673 C 0.41273 0.88067 0.72761 0.0
H674 H 0.49264 0.84221 0.75061 0.0
H675 H 0.45567 0.85462 0.69741 0.0
S676 S 0.36869 0.9101 0.81337 0.0
N677 N 0.40687 0.89143 0.82603 0.0
N678 N 0.36915 0.9083 0.76872 0.0
C679 C 0.40174 0.89241 0.7623 0.0
C680 C 0.4219 0.88318 0.79326 0.0
C681 C 0.41656 0.20356 0.05215 0.0
C682 C 0.43289 0.23878 0.05785 0.0
C683 C 0.4108 0.18992 0.01708 0.0
C684 C 0.42228 0.21055 0.98655 0.0
H685 H 0.40964 0.18591 0.07489 0.0
H686 H 0.39913 0.16207 0.01379 0.0
S687 S 0.46485 0.30483 0.98709 0.0
N688 N 0.45783 0.29529 0.03027 0.0
N689 N 0.44975 0.26798 0.96417 0.0
C690 C 0.43724 0.24628 0.99175 0.0
C691 C 0.44189 0.2608 0.02756 0.0
C692 C 0.01998 0.83538 0.24486 0.0
C693 C 0.04249 0.82332 0.21611 0.0
C694 C 0.03334 0.8383 0.28051 0.0
C695 C 0.06987 0.8302 0.28846 0.0
H696 H -0.00864 0.84108 0.24013 0.0
H697 H 0.01455 0.84537 0.30206 0.0
S698 S 0.13948 0.79638 0.22262 0.0
N699 N 0.10248 0.80218 0.19824 0.0
N700 N 0.12802 0.80868 0.26407 0.0
C701 C 0.09244 0.818 0.25968 0.0
C702 C 0.07876 0.81462 0.22382 0.0
C703 C 0.48178 0.83433 0.51113 0.0
C704 C 0.46265 0.83612 0.47826 0.0
C705 C 0.4681 0.8501 0.54316 0.0
C706 C 0.43494 0.86818 0.54304 0.0
H707 H 0.50833 0.8222 0.51172 0.0
H708 H 0.48488 0.85056 0.56726 0.0
S709 S 0.37744 0.88443 0.46286 0.0
N710 N 0.41074 0.85943 0.44698 0.0
N711 N 0.38482 0.88908 0.50669 0.0
C712 C 0.41551 0.86964 0.51022 0.0
C713 C 0.42952 0.85381 0.47786 0.0
C714 C 0.45945 0.23197 0.74384 0.0
C715 C 0.43648 0.23506 0.71351 0.0
C716 C 0.44425 0.22807 0.77904 0.0
C717 C 0.40568 0.22674 0.78484 0.0
H718 H 0.48931 0.23443 0.74065 0.0
H719 H 0.46267 0.22768 0.80179 0.0
S720 S 0.33385 0.22702 0.71345 0.0
N721 N 0.37363 0.23246 0.69119 0.0
N722 N 0.34496 0.22378 0.75637 0.0
C723 C 0.38265 0.22726 0.75422 0.0
C724 C 0.39806 0.23168 0.71882 0.0
C725 C 0.04372 0.24712 0.00946 0.0
C726 C 0.06523 0.24038 0.97834 0.0
C727 C 0.04934 0.22891 0.04203 0.0
C728 C 0.07669 0.20332 0.04458 0.0
H729 H 0.02051 0.26439 0.00781 0.0
H730 H 0.02945 0.23172 0.06394 0.0
S731 S 0.14256 0.17872 0.97183 0.0
N732 N 0.11689 0.20899 0.95295 0.0
N733 N 0.12757 0.17479 0.01409 0.0
C734 C 0.10068 0.19925 0.01466 0.0
C735 C 0.09473 0.21751 0.98139 0.0
C736 C 0.27762 0.0855 0.1648 0.0
C737 C 0.27653 0.05854 0.19152 0.0
C738 C 0.24673 0.10631 0.15868 0.0
C739 C 0.21386 0.10151 0.17959 0.0
H740 H 0.30324 0.09213 0.1501 0.0
H741 H 0.25011 0.12911 0.14025 0.0
S742 S 0.19582 0.03193 0.25067 0.0
N743 N 0.23858 0.02549 0.23656 0.0
N744 N 0.18139 0.06563 0.22611 0.0
C745 C 0.21157 0.07266 0.20441 0.0
C746 C 0.24274 0.05104 0.21024 0.0
C747 C 0.2114 0.03714 0.44042 0.0
C748 C 0.19573 0.06031 0.46643 0.0
C749 C 0.1952 0.00185 0.43316 0.0
C750 C 0.16316 0.98868 0.45183 0.0
H751 H 0.23533 0.04687 0.42455 0.0
H752 H 0.20616 0.98598 0.41117 0.0
S753 S 0.11624 0.03512 0.5279 0.0
N754 N 0.14961 0.06497 0.51474 0.0
N755 N 0.1203 -0.00125 0.50163 0.0
C756 C 0.15019 0.00986 0.48085 0.0
C757 C 0.16583 0.04584 0.48766 0.0
C758 C 0.20175 0.9576 0.6988 0.0
C759 C 0.20106 0.99548 0.69443 0.0
C760 C 0.23434 0.93956 0.69353 0.0
C761 C 0.26824 0.95841 0.68377 0.0
H762 H 0.1769 0.94162 0.70704 0.0
H763 H 0.23262 0.91018 0.69725 0.0
S764 S 0.28175 0.0588 0.67088 0.0
N765 N 0.23714 0.05208 0.68066 0.0
N766 N 0.29896 0.0179 0.67069 0.0
C767 C 0.26803 -0.00347 0.67889 0.0
C768 C 0.23437 0.01509 0.68424 0.0
C769 C 0.27188 0.03414 0.95816 0.0
C770 C 0.29 0.00461 0.97287 0.0
C771 C 0.29135 0.06819 0.95086 0.0
C772 C 0.32925 0.07382 0.95875 0.0
H773 H 0.24279 0.03058 0.95147 0.0
H774 H 0.27721 0.08959 0.93783 0.0
S775 S 0.38594 0.00899 0.00832 0.0
N776 N 0.34611 0.98599 0.00117 0.0
N777 N 0.38099 0.04974 0.99125 0.0
C778 C 0.34573 0.04605 0.97841 0.0
C779 C 0.32672 0.01142 0.98417 0.0
C780 C 0.24976 0.97812 0.31891 0.0
C781 C 0.26877 0.96294 0.28938 0.0
C782 C 0.21351 0.96498 0.32812 0.0
C783 C 0.19545 0.93649 0.30809 0.0
H784 H 0.26341 -0.0008 0.33571 0.0
H785 H 0.20067 0.97509 0.35244 0.0
S786 S 0.22973 0.8938 0.22362 0.0
N787 N 0.2643 0.92216 0.23681 0.0
N788 N 0.19629 0.8985 0.25383 0.0
C789 C 0.21257 0.92439 0.27619 0.0
C790 C 0.24942 0.93698 0.26721 0.0
C791 C 0.27801 0.03652 0.55687 0.0
C792 C 0.29155 0.07168 0.56828 0.0
C793 C 0.29829 0.00561 0.56319 0.0
C794 C 0.33179 0.00915 0.5821 0.0
H795 H 0.25375 0.03344 0.53988 0.0
H796 H 0.28977 0.97983 0.55014 0.0
S797 S 0.37561 0.09443 0.62183 0.0
N798 N 0.33826 0.10774 0.60166 0.0
N799 N 0.375 0.04958 0.6158 0.0
C800 C 0.34306 0.04356 0.59698 0.0
C801 C 0.32341 0.075 0.58926 0.0
C802 C 0.23777 0.11428 0.76482 0.0
C803 C 0.21373 0.09362 0.78797 0.0
C804 C 0.27392 0.12508 0.77531 0.0
C805 C 0.28707 0.11636 0.80969 0.0
H806 H 0.22828 0.12319 0.73886 0.0
H807 H 0.29022 0.14389 0.75813 0.0
S808 S 0.23713 0.05725 0.87699 0.0
N809 N 0.20727 0.0601 0.84402 0.0
N810 N 0.27504 0.08157 0.86436 0.0
C811 C 0.26463 0.09264 0.83133 0.0
C812 C 0.22784 0.08132 0.82049 0.0
C813 C 0.20964 0.01684 0.07326 0.0
C814 C 0.1873 0.98384 0.07237 0.0
C815 C 0.19362 0.05072 0.07684 0.0
C816 C 0.15497 0.05217 0.07913 0.0
H817 H 0.23933 0.01667 0.06869 0.0
H818 H 0.21125 0.07576 0.07619 0.0
S819 S 0.08559 0.97335 0.0859 0.0
N820 N 0.12565 0.95459 0.07949 0.0
N821 N 0.0954 0.01801 0.08646 0.0
C822 C 0.13282 0.01926 0.08128 0.0
C823 C 0.14906 0.98507 0.07784 0.0
C824 C 0.20059 0.2855 0.04392 0.0
C825 C 0.19543 0.31994 0.06028 0.0
C826 C 0.19354 0.25269 0.06294 0.0
C827 C 0.18054 0.25344 0.09882 0.0
H828 H 0.21143 0.28367 0.01684 0.0
H829 H 0.19949 0.22692 0.05001 0.0
S830 S 0.15105 0.33527 0.1494 0.0
N831 N 0.1694 0.35191 0.11144 0.0
N832 N 0.15474 0.29052 0.14687 0.0
C833 C 0.17147 0.28734 0.11395 0.0
C834 C 0.17923 0.32056 0.09479 0.0
C835 C 0.71709 0.26491 0.92936 0.0
C836 C 0.6962 0.25249 0.95957 0.0
C837 C 0.71127 0.29862 0.91419 0.0
C838 C 0.68056 0.3179 0.92541 0.0
H839 H 0.73717 0.24806 0.91638 0.0
H840 H 0.72542 0.3053 0.88886 0.0
S841 S 0.64258 0.3133 0.01843 0.0
N842 N 0.66234 0.274 0.01248 0.0
N843 N 0.64691 0.33516 0.97952 0.0
C844 C 0.6664 0.31092 0.9602 0.0
C845 C 0.67468 0.27793 0.97784 0.0
C846 C 0.03856 0.48629 0.18233 0.0
C847 C 0.03696 0.49026 0.21998 0.0
C848 C 0.00661 0.47866 0.16247 0.0
C849 C 0.97137 0.47471 0.17923 0.0
H850 H 0.06465 0.49066 0.16775 0.0
H851 H 0.00968 0.47663 0.13333 0.0
S852 S 0.95268 0.47627 0.27799 0.0
N853 N -0.002 0.48521 0.27424 0.0
N854 N 0.93717 0.4707 0.23626 0.0
C855 C 0.96942 0.47565 0.2172 0.0
C856 C 0.00245 0.48345 0.23774 0.0
C857 C 0.83103 0.8117 0.46234 0.0
C858 C 0.79467 0.82326 0.4642 0.0
C859 C 0.83818 0.7774 0.44687 0.0
C860 C 0.80908 0.75368 0.43365 0.0
H861 H 0.85414 0.83031 0.47002 0.0
H862 H 0.86673 0.77158 0.44106 0.0
S863 S 0.70862 0.76795 0.44084 0.0
N864 N 0.72899 0.80582 0.45788 0.0
N865 N 0.74255 0.74155 0.42955 0.0
C866 C 0.77253 0.76307 0.44029 0.0
C867 C 0.76527 0.79803 0.45506 0.0
C868 C -0.00769 0.06532 0.23358 0.0
C869 C 0.95645 0.06264 0.21837 0.0
C870 C 0.02383 0.07836 0.21304 0.0
C871 C 0.02015 0.08927 0.17686 0.0
H872 H -0.00379 0.05588 0.26084 0.0
H873 H 0.05104 0.07874 0.22505 0.0
S874 S 0.93061 0.09231 0.12731 0.0
N875 N 0.91881 0.07468 0.16683 0.0
N876 N 0.97586 0.10063 0.12908 0.0
C877 C 0.98361 0.08872 0.16278 0.0
C878 C 0.95239 0.07495 0.18322 0.0
C879 C 0.30809 0.77913 0.53714 0.0
C880 C 0.28267 0.75299 0.55313 0.0
C881 C 0.3167 0.81353 0.55392 0.0
C882 C 0.29923 0.82324 0.58658 0.0
H883 H 0.32203 0.77263 0.51197 0.0
H884 H 0.33855 0.83155 0.54246 0.0
S885 S 0.2284 0.76571 0.63787 0.0
N886 N 0.23971 0.73993 0.6031 0.0
N887 N 0.25273 0.80488 0.63234 0.0
C888 C 0.27168 0.79818 0.60108 0.0
C889 C 0.26452 0.76291 0.58523 0.0
C890 C 0.03444 0.62471 0.34424 0.0
C891 C 0.03584 0.60652 0.31076 0.0
C892 C 0.00033 0.63092 0.36095 0.0
C893 C 0.96651 0.61756 0.34562 0.0
H894 H 0.05982 0.63233 0.35851 0.0
H895 H 0.00062 0.64224 0.38821 0.0
S896 S 0.95519 0.57275 0.25594 0.0
N897 N 0.00058 0.57966 0.26035 0.0
N898 N 0.93645 0.5891 0.29334 0.0
C899 C 0.96746 0.60192 0.31091 0.0
C900 C 0.00221 0.59666 0.29321 0.0
C901 C 0.47748 0.48465 0.80953 0.0
C902 C 0.4495 0.45645 0.81196 0.0
C903 C 0.51175 0.4815 0.82566 0.0
C904 C 0.51876 0.45032 0.84545 0.0
H905 H 0.47183 0.5105 0.79741 0.0
H906 H 0.53116 0.50529 0.82622 0.0
S907 S 0.45657 0.36645 0.85486 0.0
N908 N 0.43258 0.39421 0.83058 0.0
N909 N 0.49665 0.38895 0.86335 0.0
C910 C 0.4922 0.42051 0.84536 0.0
C911 C 0.45743 0.42345 0.82805 0.0
C912 C 0.93218 0.80343 0.76243 0.0
C913 C 0.9316 0.82214 0.72932 0.0
C914 C 0.91904 0.81932 0.79456 0.0
C915 C 0.90526 0.85437 0.79431 0.0
H916 H 0.94247 0.77623 0.76342 0.0
H917 H 0.91747 0.80329 0.81904 0.0
S918 S 0.89725 0.91404 0.71471 0.0
N919 N 0.91628 0.87726 0.69843 0.0
N920 N 0.89157 0.90705 0.7585 0.0
C921 C 0.90573 0.8736 0.76157 0.0
C922 C 0.91885 0.85748 0.7291 0.0
C923 C 0.98148 0.23969 0.48216 0.0
C924 C 0.95381 0.2482 0.45783 0.0
C925 C 0.97312 0.22969 0.51787 0.0
C926 C 0.93631 0.225 0.53054 0.0
H927 H 0.01009 0.23997 0.4733 0.0
H928 H -0.00429 0.22273 0.53504 0.0
S929 S 0.85268 0.23417 0.47474 0.0
N930 N 0.88755 0.24731 0.44757 0.0
N931 N 0.87142 0.22381 0.51358 0.0
C932 C 0.90793 0.23133 0.5059 0.0
C933 C 0.91671 0.24362 0.46978 0.0
C934 C 0.58288 0.2204 0.22974 0.0
C935 C 0.54555 0.22831 0.22891 0.0
C936 C 0.59932 0.21176 0.26224 0.0
C937 C 0.5792 0.2113 0.29526 0.0
H938 H 0.59945 0.22075 0.20509 0.0
H939 H 0.62816 0.20508 0.26139 0.0
S940 S 0.48238 0.23671 0.3082 0.0
N941 N 0.48981 0.23952 0.26407 0.0
N942 N 0.52113 0.22306 0.32555 0.0
C943 C 0.54212 0.2203 0.29502 0.0
C944 C 0.52522 0.22903 0.26171 0.0
C945 C 0.51321 0.87604 0.97686 0.0
C946 C 0.54127 0.86095 0.95579 0.0
C947 C 0.51873 0.88493 0.01327 0.0
C948 C 0.55257 0.87933 0.02996 0.0
H949 H 0.48637 0.88033 0.96541 0.0
H950 H 0.49664 0.89725 0.02832 0.0
S951 S 0.63673 0.84684 0.98425 0.0
N952 N 0.60491 0.84404 0.95267 0.0
N953 N 0.61608 0.86189 0.02122 0.0
C954 C 0.58126 0.86522 0.00883 0.0
C955 C 0.57545 0.85591 0.97168 0.0
C956 C 0.98505 0.23696 0.76947 0.0
C957 C 0.96271 0.2417 0.80079 0.0
C958 C 0.96929 0.23053 0.73479 0.0
C959 C 0.93057 0.22822 0.73033 0.0
H960 H 0.01497 0.24005 0.7715 0.0
H961 H 0.98743 0.22902 0.71135 0.0
S962 S 0.85993 0.23516 0.80411 0.0
N963 N 0.90001 0.24173 0.82486 0.0
N964 N 0.87047 0.22821 0.76112 0.0
C965 C 0.9082 0.23109 0.76191 0.0
C966 C 0.92415 0.2383 0.79667 0.0
C967 C 0.56088 0.23851 0.52197 0.0
C968 C 0.52695 0.22743 0.5391 0.0
C969 C 0.57381 0.2195 0.49151 0.0
C970 C 0.55246 0.18989 0.47669 0.0
H971 H 0.57859 0.26054 0.53338 0.0
H972 H 0.60177 0.22591 0.48159 0.0
S973 S 0.45918 0.15398 0.50733 0.0
N974 N 0.47084 0.18709 0.53646 0.0
N975 N 0.49362 0.15395 0.4776 0.0
C976 C 0.51643 0.18194 0.49064 0.0
C977 C 0.50417 0.19977 0.52254 0.0
C978 C 0.59758 0.83499 0.29243 0.0
C979 C 0.56222 0.84239 0.30556 0.0
C980 C 0.60621 0.83754 0.25562 0.0
C981 C 0.57978 0.84738 0.23017 0.0
H982 H 0.6183 0.82555 0.31049 0.0
H983 H 0.63386 0.83101 0.247 0.0
S984 S 0.48354 0.87065 0.25074 0.0
N985 N 0.50082 0.86133 0.29049 0.0
N986 N 0.51753 0.86627 0.22098 0.0
C987 C 0.54507 0.857 0.2431 0.0
C988 C 0.53613 0.85435 0.28085 0.0
C989 C 0.93639 0.87683 0.05542 0.0
C990 C 0.94991 0.84273 0.0475 0.0
C991 C 0.92247 0.89778 0.02813 0.0
C992 C 0.9225 0.88588 0.99169 0.0
H993 H 0.93655 0.88738 0.08294 0.0
H994 H 0.91278 0.92437 0.03553 0.0
S995 S 0.96369 0.80194 0.95634 0.0
N996 N 0.96718 0.79925 0.00079 0.0
N997 N 0.94267 0.84001 0.9487 0.0
C998 C 0.93763 0.85229 0.98314 0.0
C999 C 0.95115 0.83042 0.0113 0.0
C1000 C 0.73202 0.00311 0.83367 0.0
C1001 C 0.70738 0.98771 0.80747 0.0
C1002 C 0.76291 0.98445 0.84458 0.0
C1003 C 0.76928 0.94982 0.83009 0.0
H1004 H 0.7269 0.02916 0.84645 0.0
H1005 H 0.78064 0.99619 0.86544 0.0
S1006 S 0.72034 0.90345 0.75294 0.0
N1007 N 0.69651 0.93958 0.76212 0.0
N1008 N 0.7553 0.90611 0.78127 0.0
C1009 C 0.7486 0.93752 0.79975 0.0
C1010 C 0.71697 0.95571 0.78923 0.0
C1011 C 0.78495 0.04203 0.5327 0.0
C1012 C 0.79973 0.01006 0.54622 0.0
C1013 C 0.79925 0.07735 0.54333 0.0
C1014 C 0.82851 0.08154 0.56803 0.0
H1015 H 0.76275 0.03967 0.51321 0.0
H1016 H 0.78877 0.10121 0.53081 0.0
S1017 S 0.87849 0.00612 0.60843 0.0
N1018 N 0.84594 0.98485 0.58368 0.0
N1019 N 0.87247 0.05027 0.60437 0.0
C1020 C 0.84276 0.04941 0.58203 0.0
C1021 C 0.82852 0.01392 0.57094 0.0
C1022 C 0.77979 0.1065 0.2948 0.0
C1023 C 0.77896 0.06967 0.30414 0.0
C1024 C 0.74929 0.12724 0.30086 0.0
C1025 C 0.71575 0.1126 0.31689 0.0
H1026 H 0.8045 0.11978 0.28269 0.0
H1027 H 0.753 0.15572 0.29324 0.0
S1028 S 0.69699 0.0148 0.34007 0.0
N1029 N 0.74078 0.01728 0.3262 0.0
N1030 N 0.68261 0.05684 0.33782 0.0
C1031 C 0.71386 0.07505 0.32515 0.0
C1032 C 0.74558 0.05354 0.31881 0.0
C1033 C 0.69885 0.0544 0.07685 0.0
C1034 C 0.68767 0.06782 0.04352 0.0
C1035 C 0.69009 0.01809 0.08673 0.0
C1036 C 0.6696 0.99388 0.06378 0.0
H1037 H 0.71293 0.07255 0.09631 0.0
H1038 H 0.695 0.01053 0.11441 0.0
S1039 S 0.63845 0.01338 0.9713 0.0
N1040 N 0.65877 0.05253 0.98555 0.0
N1041 N 0.64262 0.98412 0.00447 0.0
C1042 C 0.66181 0.00574 0.02884 0.0
C1043 C 0.67012 0.04292 0.01886 0.0
C1044 C 0.71948 0.13384 0.7044 0.0
C1045 C 0.71832 0.10239 0.72542 0.0
C1046 C 0.75345 0.15037 0.69315 0.0
C1047 C 0.78751 0.13601 0.7024 0.0
H1048 H 0.69408 0.14639 0.6976 0.0
H1049 H 0.75309 0.17544 0.67783 0.0
S1050 S 0.79863 0.0518 0.75451 0.0
N1051 N 0.75327 0.05569 0.75343 0.0
N1052 N 0.81761 0.08702 0.73184 0.0
C1053 C 0.78665 0.10351 0.72205 0.0
C1054 C 0.75183 0.08672 0.73382 0.0
C1055 C 0.69999 0.01079 0.44094 0.0
C1056 C 0.68541 0.99052 0.47062 0.0
C1057 C 0.68561 0.04408 0.43158 0.0
C1058 C 0.65575 0.05739 0.45104 0.0
H1059 H 0.72252 0.00085 0.42469 0.0
H1060 H 0.69645 0.0584 0.40798 0.0
S1061 S 0.61221 0.01878 0.53468 0.0
N1062 N 0.64292 0.98922 0.52236 0.0
N1063 N 0.61567 0.05141 0.50417 0.0
C1064 C 0.64301 0.03907 0.48239 0.0
C1065 C 0.65767 0.0055 0.49214 0.0
C1066 C 0.74945 0.94508 0.24921 0.0
C1067 C 0.7771 0.95411 0.22306 0.0
C1068 C 0.71275 0.93702 0.23908 0.0
C1069 C 0.70276 0.9383 0.20267 0.0
H1070 H 0.75619 0.94389 0.27763 0.0
H1071 H 0.69262 0.9275 0.25939 0.0
S1072 S 0.76472 0.96 0.12419 0.0
N1073 N 0.79206 0.96408 0.15963 0.0
N1074 N 0.72283 0.94901 0.14053 0.0
C1075 C 0.72978 0.94883 0.17659 0.0
C1076 C 0.76715 0.95651 0.18679 0.0
C1077 C 0.83306 0.08122 0.96036 0.0
C1078 C 0.79454 0.08181 0.95767 0.0
C1079 C 0.8513 0.04979 0.95126 0.0
C1080 C 0.83173 0.01708 0.94012 0.0
H1081 H 0.84935 0.10537 0.96945 0.0
H1082 H 0.88124 0.05132 0.95326 0.0
S1083 S 0.72937 0.00302 0.93407 0.0
N1084 N 0.73659 0.04676 0.94515 0.0
N1085 N 0.7708 0.98624 0.93141 0.0
C1086 C 0.79277 0.01669 0.93925 0.0
C1087 C 0.77421 0.04944 0.94703 0.0
C1088 C 0.75316 0.76808 0.9464 0.0
C1089 C 0.77772 0.7436 0.96055 0.0
C1090 C 0.76605 0.80297 0.93468 0.0
C1091 C 0.80384 0.81475 0.9369 0.0
H1092 H 0.72393 0.76009 0.94379 0.0
H1093 H 0.7467 0.82007 0.92177 0.0
S1094 S 0.87876 0.76125 0.97232 0.0
N1095 N 0.84113 0.73391 0.97692 0.0
N1096 N 0.86522 0.79937 0.95453 0.0
C1097 C 0.82822 0.79107 0.9521 0.0
C1098 C 0.8152 0.75553 0.96393 0.0
C1099 C 0.26224 0.79043 0.06224 0.0
C1100 C 0.28404 0.82362 0.06173 0.0
C1101 C 0.27546 0.75901 0.07767 0.0
C1102 C 0.31068 0.75994 0.09338 0.0
H1103 H 0.23422 0.78908 0.05197 0.0
H1104 H 0.2565 0.73511 0.08083 0.0
S1105 S 0.37798 0.83979 0.09878 0.0
N1106 N 0.34278 0.85514 0.07676 0.0
N1107 N 0.36735 0.79608 0.10643 0.0
C1108 C 0.33367 0.79209 0.09045 0.0
C1109 C 0.32027 0.8241 0.07475 0.0
C1110 C 0.98536 0.5257 0.81064 0.0
C1111 C 0.95601 0.54894 0.80589 0.0
C1112 C 0.01964 0.53899 0.82507 0.0
C1113 C 0.02583 0.57599 0.83537 0.0
H1114 H 0.98171 0.49688 0.80377 0.0
H1115 H 0.04069 0.51982 0.82999 0.0
S1116 S 0.95545 0.6459 0.83572 0.0
N1117 N 0.93412 0.60947 0.81676 0.0
N1118 N -0.00218 0.63416 0.84452 0.0
C1119 C -0.00374 0.59908 0.83173 0.0
C1120 C 0.96159 0.58566 0.8169 0.0
C1121 C 0.23119 0.26016 0.5905 0.0
C1122 C 0.20992 0.24127 0.56405 0.0
C1123 C 0.22201 0.29485 0.60268 0.0
C1124 C 0.18999 0.31113 0.59035 0.0
H1125 H 0.25434 0.24766 0.60276 0.0
H1126 H 0.23732 0.30689 0.62535 0.0
S1127 S 0.14044 0.28232 0.50708 0.0
N1128 N 0.16579 0.24768 0.51597 0.0
N1129 N 0.14728 0.31244 0.54044 0.0
C1130 C 0.17248 0.29529 0.55994 0.0
C1131 C 0.18235 0.26013 0.54687 0.0
C1132 C 0.00215 0.98323 0.78603 0.0
C1133 C 0.02616 0.01075 0.80179 0.0
C1134 C 0.96959 0.96966 0.80395 0.0
C1135 C 0.95971 0.98346 0.83804 0.0
H1136 H 0.00923 0.9711 0.76018 0.0
H1137 H 0.95377 0.9464 0.79237 0.0
S1138 S 0.01122 0.05773 0.88983 0.0
N1139 N 0.03617 0.05294 0.85255 0.0
N1140 N 0.97516 0.02806 0.88584 0.0
C1141 C 0.98215 0.01284 0.85285 0.0
C1142 C 0.01534 0.02626 0.83491 0.0
C1143 C 0.71913 0.28899 0.4606 0.0
C1144 C 0.695 0.31731 0.4559 0.0
C1145 C 0.7096 0.25328 0.44865 0.0
C1146 C 0.67551 0.24469 0.43193 0.0
H1147 H 0.74577 0.29454 0.47336 0.0
H1148 H 0.72951 0.23251 0.45141 0.0
S1149 S 0.60276 0.3092 0.4132 0.0
N1150 N 0.63551 0.33458 0.43412 0.0
N1151 N 0.61755 0.26733 0.41101 0.0
C1152 C 0.6506 0.27255 0.42808 0.0
C1153 C 0.66034 0.30897 0.44033 0.0
C1154 C 0.97778 0.46667 0.72034 0.0
C1155 C 0.94785 0.4544 0.69856 0.0
C1156 C 0.0144 0.45988 0.71066 0.0
C1157 C 0.02223 0.44142 0.67825 0.0
H1158 H 0.97303 0.48429 0.74336 0.0
H1159 H 0.03671 0.47397 0.72562 0.0
S1160 S 0.95296 0.3969 0.61601 0.0
N1161 N 0.92769 0.41768 0.64668 0.0
N1162 N -0.00344 0.40441 0.6285 0.0
C1163 C -0.00791 0.42417 0.65941 0.0
C1164 C 0.95476 0.43151 0.66903 0.0
C1165 C 0.50239 0.55956 0.18469 0.0
C1166 C 0.53166 0.58576 0.19147 0.0
C1167 C 0.46822 0.57017 0.17251 0.0
C1168 C 0.46254 0.60718 0.1662 0.0
H1169 H 0.50631 0.53059 0.18742 0.0
H1170 H 0.44781 0.54905 0.16378 0.0
S1171 S 0.52854 0.68612 0.18438 0.0
N1172 N 0.55121 0.65024 0.1955 0.0
N1173 N 0.48689 0.67011 0.17184 0.0
C1174 C 0.48995 0.63371 0.17686 0.0
C1175 C 0.52482 0.62296 0.18921 0.0
C1176 C 0.53426 0.7217 0.76626 0.0
C1177 C 0.54752 0.7542 0.78387 0.0
C1178 C 0.55168 0.70923 0.73452 0.0
C1179 C 0.58227 0.72934 0.71926 0.0
H1180 H 0.51159 0.70493 0.77805 0.0
H1181 H 0.54302 0.68251 0.72354 0.0
S1182 S 0.62294 0.81938 0.75083 0.0
N1183 N 0.58981 0.80856 0.78065 0.0
N1184 N 0.62198 0.78522 0.72119 0.0
C1185 C 0.59349 0.76333 0.73482 0.0
C1186 C 0.57631 0.77571 0.76715 0.0
C1187 C 0.53776 0.36194 0.05373 0.0
C1188 C 0.54278 0.32451 0.05704 0.0
C1189 C 0.54077 0.37908 0.02044 0.0
C1190 C 0.54978 0.36004 0.98836 0.0
H1191 H 0.53041 0.37836 0.07704 0.0
H1192 H 0.5364 0.40811 0.02041 0.0
S1193 S 0.56533 0.26074 0.98189 0.0
N1194 N 0.55632 0.26793 0.02528 0.0
N1195 N 0.56378 0.30096 0.96218 0.0
C1196 C 0.55552 0.32242 0.99108 0.0
C1197 C 0.55161 0.30451 0.02545 0.0
C1198 C 0.90748 0.37159 0.2954 0.0
C1199 C 0.94568 0.36781 0.29186 0.0
C1200 C 0.88582 0.37649 0.26516 0.0
C1201 C 0.90122 0.3765 0.22994 0.0
H1202 H 0.89361 0.36768 0.32136 0.0
H1203 H 0.85601 0.37612 0.26919 0.0
S1204 S 0.00136 0.38306 0.2076 0.0
N1205 N -0.0003 0.37663 0.25185 0.0
N1206 N 0.95789 0.38295 0.19414 0.0
C1207 C 0.93992 0.37863 0.22639 0.0
C1208 C 0.96248 0.3749 0.25769 0.0
C1209 C 0.91417 0.73616 0.53692 0.0
C1210 C 0.94469 0.72656 0.55732 0.0
C1211 C 0.90877 0.72218 0.50156 0.0
C1212 C 0.93426 0.69904 0.4854 0.0
H1213 H 0.89375 0.7534 0.54875 0.0
H1214 H 0.88347 0.72764 0.48779 0.0
S1215 S 0.02255 0.6725 0.52471 0.0
N1216 N 0.00321 0.69684 0.55683 0.0
N1217 N -0.00646 0.6717 0.49056 0.0
C1218 C 0.96632 0.692 0.50454 0.0
C1219 C 0.97139 0.70543 0.54047 0.0
C1220 C 0.54206 0.30232 0.73653 0.0
C1221 C 0.53367 0.33212 0.7152 0.0
C1222 C 0.54939 0.30664 0.77338 0.0
C1223 C 0.55061 0.3414 0.79052 0.0
H1224 H 0.54258 0.27509 0.72472 0.0
H1225 H 0.55592 0.28249 0.78816 0.0
S1226 S 0.53164 0.42865 0.74558 0.0
N1227 N 0.52513 0.39722 0.71347 0.0
N1228 N 0.54377 0.40657 0.78189 0.0
C1229 C 0.54227 0.37159 0.76923 0.0
C1230 C 0.53277 0.36669 0.73183 0.0
C1231 C 0.98328 0.3404 0.00998 0.0
C1232 C 0.96338 0.33998 0.97738 0.0
C1233 C 0.96943 0.35672 0.04172 0.0
C1234 C 0.93534 0.37326 0.04164 0.0
H1235 H 0.01025 0.32903 0.01065 0.0
H1236 H 0.98649 0.35846 0.06564 0.0
S1237 S 0.87439 0.38209 0.96251 0.0
N1238 N 0.90876 0.35839 0.94677 0.0
N1239 N 0.88311 0.38982 0.00576 0.0
C1240 C 0.9152 0.3726 0.0092 0.0
C1241 C 0.92909 0.35576 0.9772 0.0
C1242 C 0.90761 0.74414 0.22891 0.0
C1243 C 0.94091 0.73065 0.21617 0.0
C1244 C 0.89714 0.7413 0.26523 0.0
C1245 C 0.91932 0.72466 0.29081 0.0
H1246 H 0.88984 0.75811 0.21092 0.0
H1247 H 0.87099 0.75228 0.27315 0.0
S1248 S 0.0095 0.68526 0.2714 0.0
N1249 N -0.00367 0.6999 0.23182 0.0
N1250 N 0.97607 0.69419 0.30054 0.0
C1251 C 0.95223 0.71007 0.27837 0.0
C1252 C 0.96315 0.71317 0.24103 0.0
C1253 C 0.54496 0.74512 0.50795 0.0
C1254 C 0.56632 0.7382 0.47682 0.0
C1255 C 0.55061 0.72715 0.54061 0.0
C1256 C 0.5776 0.70124 0.54321 0.0
H1257 H 0.5217 0.76224 0.50623 0.0
H1258 H 0.53089 0.73039 0.56259 0.0
S1259 S 0.64311 0.67587 0.47039 0.0
N1260 N 0.6177 0.70636 0.45146 0.0
N1261 N 0.62798 0.67193 0.51262 0.0
C1262 C 0.60127 0.69656 0.51314 0.0
C1263 C 0.59552 0.71494 0.47986 0.0
C1264 C 0.76353 0.56466 0.66854 0.0
C1265 C 0.78035 0.56602 0.70287 0.0
C1266 C 0.73411 0.58732 0.6606 0.0
C1267 C 0.71951 0.61068 0.68719 0.0
H1268 H 0.77472 0.54798 0.64711 0.0
H1269 H 0.72463 0.58845 0.63299 0.0
S1270 S 0.74949 0.61894 0.78286 0.0
N1271 N 0.77712 0.58943 0.76446 0.0
N1272 N 0.72147 0.62985 0.7503 0.0
C1273 C 0.73375 0.60898 0.72242 0.0
C1274 C 0.7642 0.58728 0.73004 0.0
C1275 C 0.6965 0.54189 0.934 0.0
C1276 C 0.69177 0.55579 0.96923 0.0
C1277 C 0.68512 0.50542 0.92548 0.0
C1278 C 0.66882 0.48201 0.95197 0.0
H1279 H 0.70669 0.55984 0.91251 0.0
H1280 H 0.68475 0.49698 0.89726 0.0
S1281 S 0.66026 0.5026 0.04989 0.0
N1282 N 0.67742 0.54129 0.03212 0.0
N1283 N 0.65544 0.47317 0.01577 0.0
C1284 C 0.66882 0.49433 0.98801 0.0
C1285 C 0.68004 0.5313 0.99667 0.0
C1286 C 0.71387 0.48548 0.16385 0.0
C1287 C 0.70101 0.48929 0.19964 0.0
C1288 C 0.74725 0.46871 0.15654 0.0
C1289 C 0.76888 0.45632 0.18484 0.0
H1290 H 0.6975 0.49422 0.14154 0.0
H1291 H 0.75546 0.46412 0.12863 0.0
S1292 S 0.75031 0.46616 0.28298 0.0
N1293 N 0.71461 0.48365 0.26352 0.0
N1294 N 0.77708 0.45233 0.24958 0.0
C1295 C 0.75731 0.46206 0.22056 0.0
C1296 C 0.72346 0.47868 0.228 0.0
C1297 C 0.77982 0.53414 0.48855 0.0
C1298 C 0.77726 0.50401 0.46441 0.0
C1299 C 0.79508 0.56852 0.47739 0.0
C1300 C 0.80826 0.57359 0.44179 0.0
H1301 H 0.77158 0.53062 0.51664 0.0
H1302 H 0.79993 0.59001 0.4975 0.0
S1303 S 0.80848 0.5028 0.36896 0.0
N1304 N 0.78795 0.48152 0.40359 0.0
N1305 N 0.81803 0.54531 0.38296 0.0
C1306 C 0.80365 0.54401 0.4171 0.0
C1307 C 0.78795 0.5093 0.42836 0.0
C1308 C 0.74247 0.47932 0.80633 0.0
C1309 C 0.77308 0.45775 0.80029 0.0
C1310 C 0.70685 0.46301 0.81375 0.0
C1311 C 0.70081 0.42467 0.81492 0.0
H1312 H 0.74576 0.50883 0.80394 0.0
H1313 H 0.68392 0.48041 0.81797 0.0
S1314 S 0.77395 0.35693 0.80703 0.0
N1315 N 0.79616 0.39696 0.79999 0.0
N1316 N 0.73027 0.36605 0.8141 0.0
C1317 C 0.73201 0.40315 0.81073 0.0
C1318 C 0.76786 0.41976 0.80336 0.0
C1319 C 0.79722 0.54455 0.03002 0.0
C1320 C 0.78578 0.56805 0.05772 0.0
C1321 C 0.81686 0.51397 0.03775 0.0
C1322 C 0.82682 0.5064 0.07335 0.0
H1323 H 0.7926 0.55087 0.00193 0.0
H1324 H 0.8281 0.49865 0.01528 0.0
S1325 S 0.79746 0.55596 0.15599 0.0
N1326 N 0.77951 0.57826 0.12245 0.0
N1327 N 0.81972 0.5223 0.13702 0.0
C1328 C 0.81233 0.52756 0.10163 0.0
C1329 C 0.79101 0.55818 0.09375 0.0
C1330 C 0.7348 0.58258 0.31091 0.0
C1331 C 0.7109 0.60106 0.28854 0.0
C1332 C 0.77013 0.59824 0.31998 0.0
C1333 C 0.78313 0.63258 0.30665 0.0
H1334 H 0.72606 0.55603 0.3218 0.0
H1335 H 0.78662 0.58412 0.33872 0.0
S1336 S 0.73199 0.69065 0.2444 0.0
N1337 N 0.70315 0.65496 0.25231 0.0
N1338 N 0.76975 0.683 0.26698 0.0
C1339 C 0.76003 0.65016 0.28245 0.0
C1340 C 0.72388 0.63486 0.2742 0.0
C1341 C 0.67835 0.51074 0.53543 0.0
C1342 C 0.68355 0.48569 0.56317 0.0
C1343 C 0.66433 0.54463 0.54303 0.0
C1344 C 0.6557 0.55443 0.57864 0.0
H1345 H 0.68462 0.50381 0.50751 0.0
H1346 H 0.65909 0.56274 0.52092 0.0
S1347 S 0.66624 0.49954 0.66102 0.0
N1348 N 0.68121 0.47355 0.62763 0.0
N1349 N 0.65408 0.53767 0.64212 0.0
C1350 C 0.66244 0.53048 0.60689 0.0
C1351 C 0.67677 0.49587 0.59911 0.0
C1352 C 0.66471 0.80617 0.55841 0.0
C1353 C 0.70191 0.81951 0.55501 0.0
C1354 C 0.65583 0.7711 0.57257 0.0
C1355 C 0.68392 0.74833 0.58283 0.0
H1356 H 0.64251 0.82358 0.55208 0.0
H1357 H 0.62699 0.76291 0.57805 0.0
S1358 S 0.7851 0.76752 0.57076 0.0
N1359 N 0.76662 0.80501 0.55689 0.0
N1360 N 0.74989 0.73949 0.58352 0.0
C1361 C 0.72095 0.76019 0.57619 0.0
C1362 C 0.72995 0.79572 0.56219 0.0
C1363 C 0.1397 0.74591 0.44898 0.0
C1364 C 0.1719 0.74369 0.46927 0.0
C1365 C 0.13174 0.77916 0.43324 0.0
C1366 C 0.15629 0.81044 0.43688 0.0
H1367 H 0.1226 0.72139 0.44255 0.0
H1368 H 0.10936 0.779 0.41395 0.0
S1369 S 0.24012 0.81974 0.49269 0.0
N1370 N 0.22489 0.77649 0.49704 0.0
N1371 N 0.21004 0.83861 0.4666 0.0
C1372 C 0.18542 0.80955 0.46109 0.0
C1373 C 0.19354 0.77595 0.47716 0.0
C1374 C 0.53938 0.99379 0.67648 0.0
C1375 C 0.53797 0.9948 0.71433 0.0
C1376 C 0.50738 0.98701 0.65626 0.0
C1377 C 0.4722 0.98102 0.67283 0.0
H1378 H 0.56544 -0.00076 0.66212 0.0
H1379 H 0.51047 0.98657 0.62708 0.0
S1380 S 0.45343 0.97809 0.77159 0.0
N1381 N 0.49882 0.98641 0.76814 0.0
N1382 N 0.43803 0.97464 0.7297 0.0
C1383 C 0.47034 0.98025 0.71081 0.0
C1384 C 0.50337 0.98686 0.73165 0.0
C1385 C 0.27471 0.29717 0.96639 0.0
C1386 C 0.30344 0.32467 0.96669 0.0
C1387 C 0.27979 0.26231 0.95198 0.0
C1388 C 0.3133 0.25434 0.93482 0.0
H1389 H 0.24716 0.30385 0.97445 0.0
H1390 H 0.25566 0.24334 0.94955 0.0
S1391 S 0.39577 0.31884 0.92425 0.0
N1392 N 0.36642 0.34224 0.94849 0.0
N1393 N 0.37537 0.27766 0.91775 0.0
C1394 C 0.34288 0.28134 0.93592 0.0
C1395 C 0.33795 0.31656 0.95217 0.0
C1396 C 0.49497 0.54778 0.72461 0.0
C1397 C 0.46061 0.56411 0.72273 0.0
C1398 C 0.52702 0.56347 0.70715 0.0
C1399 C 0.52551 0.59599 0.68745 0.0
H1400 H 0.49671 0.52188 0.73815 0.0
H1401 H 0.5522 0.54879 0.70689 0.0
S1402 S 0.44202 0.64859 0.67414 0.0
N1403 N 0.42713 0.61405 0.69989 0.0
N1404 N 0.48676 0.64377 0.66747 0.0
C1405 C 0.49148 0.61299 0.68674 0.0
C1406 C 0.45914 0.59695 0.70415 0.0
C1407 C 0.81316 0.27815 0.03606 0.0
C1408 C 0.7802 0.25893 0.04764 0.0
C1409 C 0.82284 0.31379 0.04917 0.0
C1410 C 0.79935 0.33168 0.07336 0.0
H1411 H 0.83267 0.26473 0.01867 0.0
H1412 H 0.85044 0.32569 0.04341 0.0
S1413 S 0.70651 0.29621 0.10577 0.0
N1414 N 0.7217 0.26268 0.08043 0.0
N1415 N 0.7393 0.32962 0.10375 0.0
C1416 C 0.76431 0.3144 0.08119 0.0
C1417 C 0.75504 0.27792 0.069 0.0
C1418 C 0.5078 0.07358 0.81017 0.0
C1419 C 0.53653 0.10109 0.80851 0.0
C1420 C 0.47261 0.08095 0.82342 0.0
C1421 C 0.46556 0.1158 0.83726 0.0
H1422 H 0.51335 0.04563 0.80338 0.0
H1423 H 0.45267 0.05801 0.82782 0.0
S1424 S 0.53063 0.19807 0.83569 0.0
N1425 N 0.55458 0.16546 0.81708 0.0
N1426 N 0.48913 0.17887 0.84535 0.0
C1427 C 0.49302 0.14435 0.83253 0.0
C1428 C 0.52864 0.13701 0.81779 0.0
C1429 C 0.96849 0.93336 0.30732 0.0
C1430 C 0.94819 0.96352 0.31765 0.0
C1431 C 0.00139 0.92675 0.32524 0.0
C1432 C 0.01442 0.95049 0.35274 0.0
H1433 H 0.95779 0.91376 0.28727 0.0
H1434 H 0.01494 0.90186 0.31998 0.0
S1435 S 0.97865 0.03976 0.37968 0.0
N1436 N 0.94837 0.02175 0.35055 0.0
N1437 N 0.01118 0.01015 0.38192 0.0
C1438 C -0.00193 0.98395 0.35808 0.0
C1439 C 0.96422 0.99003 0.34137 0.0
C1440 C 0.40058 0.31448 0.23512 0.0
C1441 C 0.43893 0.32109 0.23148 0.0
C1442 C 0.38195 0.32567 0.266 0.0
C1443 C 0.40066 0.34473 0.29458 0.0
H1444 H 0.38453 0.30113 0.2136 0.0
H1445 H 0.35209 0.32046 0.26657 0.0
S1446 S 0.50253 0.36002 0.30198 0.0
N1447 N 0.49634 0.34125 0.26144 0.0
N1448 N 0.46066 0.36352 0.31983 0.0
C1449 C 0.43949 0.34872 0.2927 0.0
C1450 C 0.45875 0.33689 0.26094 0.0
C1451 C 0.44376 0.71451 0.965 0.0
C1452 C 0.44856 0.75243 0.96037 0.0
C1453 C 0.43578 0.69967 -0.0008 0.0
C1454 C 0.43323 0.72199 0.03056 0.0
H1455 H 0.44674 0.69609 0.94211 0.0
H1456 H 0.43266 0.67011 0.00129 0.0
S1457 S 0.44619 0.82295 0.03328 0.0
N1458 N 0.45081 0.81223 0.98998 0.0
N1459 N 0.43743 0.78391 0.05465 0.0
C1460 C 0.4377 0.75998 0.02634 0.0
C1461 C 0.4451 0.77526 0.99118 0.0
C1462 C 0.05485 0.70265 0.73635 0.0
C1463 C 0.04559 0.73912 0.73297 0.0
C1464 C 0.06849 0.69016 0.76884 0.0
C1465 C 0.07309 0.71361 0.79906 0.0
H1466 H 0.05291 0.68403 0.71334 0.0
H1467 H 0.07811 0.66266 0.76952 0.0
S1468 S 0.04672 0.8096 0.80619 0.0
N1469 N 0.037 0.79723 0.76405 0.0
N1470 N 0.06394 0.77364 0.82502 0.0
C1471 C 0.06176 0.74941 0.79688 0.0
C1472 C 0.04769 0.76223 0.76377 0.0
C1473 C 0.02834 0.39585 0.46811 0.0
C1474 C 0.0364 0.36009 0.4585 0.0
C1475 C 0.03164 0.40818 0.50381 0.0
C1476 C 0.04298 0.38511 0.53152 0.0
H1477 H 0.0195 0.41453 0.44785 0.0
H1478 H 0.02631 0.43656 0.50924 0.0
S1479 S 0.05418 0.28591 0.52228 0.0
N1480 N 0.04883 0.2997 0.48036 0.0
N1481 N 0.05361 0.32288 0.5481 0.0
C1482 C 0.0479 0.34844 0.52278 0.0
C1483 C 0.0452 0.33598 0.48612 0.0
C1484 C 0.42269 0.73299 0.29857 0.0
C1485 C 0.46019 0.74522 0.30002 0.0
C1486 C 0.40491 0.72645 0.2653 0.0
C1487 C 0.42337 0.73276 0.23174 0.0
H1488 H 0.40685 0.72858 0.32339 0.0
H1489 H 0.37589 0.71697 0.26589 0.0
S1490 S 0.52015 0.77046 0.22087 0.0
N1491 N 0.51475 0.76584 0.26505 0.0
N1492 N 0.48035 0.75581 0.20261 0.0
C1493 C 0.46062 0.74596 0.23277 0.0
C1494 C 0.47917 0.75169 0.26683 0.0
C1495 C -0.00392 0.70509 0.01727 0.0
C1496 C 0.02434 0.72471 0.0363 0.0
C1497 C 0.00321 0.68885 0.98382 0.0
C1498 C 0.03937 0.68975 0.96891 0.0
H1499 H 0.9684 0.70105 0.02877 0.0
H1500 H 0.9811 0.67164 0.97168 0.0
S1501 S 0.12005 0.74671 0.003 0.0
N1502 N 0.08716 0.75234 0.03357 0.0
N1503 N 0.10162 0.71858 0.97186 0.0
C1504 C 0.06668 0.71309 0.98532 0.0
C1505 C 0.05897 0.731 0.01901 0.0
C1506 C 0.03758 0.35686 0.78102 0.0
C1507 C 0.06309 0.33935 0.80255 0.0
C1508 C 0.04233 0.35945 0.74326 0.0
C1509 C 0.07234 0.34397 0.72562 0.0
H1510 H 0.01278 0.3672 0.79315 0.0
H1511 H 0.0218 0.3726 0.7277 0.0
S1512 S 0.1506 0.30104 0.77042 0.0
N1513 N 0.12215 0.31096 0.80391 0.0
N1514 N 0.13074 0.31462 0.73337 0.0
C1515 C 0.09927 0.3283 0.7472 0.0
C1516 C 0.09475 0.32635 0.78553 0.0
C1517 C 0.41263 0.3635 0.5397 0.0
C1518 C 0.43857 0.33653 0.5394 0.0
C1519 C 0.40414 0.38126 0.50763 0.0
C1520 C 0.42147 0.3727 0.47442 0.0
H1521 H 0.40117 0.37294 0.56514 0.0
H1522 H 0.38734 0.40482 0.50963 0.0
S1523 S 0.48524 0.29857 0.45854 0.0
N1524 N 0.47671 0.29767 0.50257 0.0
N1525 N 0.46119 0.33173 0.44253 0.0
C1526 C 0.44428 0.34309 0.47334 0.0
C1527 C 0.45291 0.32495 0.50588 0.0
C1528 C 0.23008 0.50267 0.33072 0.0
C1529 C 0.20724 0.48948 0.30223 0.0
C1530 C 0.26093 0.48376 0.34083 0.0
C1531 C 0.26907 0.451 0.32351 0.0
H1532 H 0.22343 0.5269 0.34603 0.0
H1533 H 0.2769 0.49339 0.36338 0.0
S1534 S 0.22701 0.41288 0.23933 0.0
N1535 N 0.20142 0.4472 0.25078 0.0
N1536 N 0.2595 0.41246 0.27023 0.0
C1537 C 0.25048 0.44136 0.2914 0.0
C1538 C 0.21915 0.46017 0.28096 0.0
C1539 C 0.28108 0.54084 0.0427 0.0
C1540 C 0.30051 0.50868 0.04665 0.0
C1541 C 0.2974 0.57588 0.05215 0.0
C1542 C 0.33375 0.57967 0.06553 0.0
H1543 H 0.25341 0.53893 0.03158 0.0
H1544 H 0.28211 0.59998 0.04776 0.0
S1545 S 0.39567 0.50343 0.08081 0.0
N1546 N 0.35735 0.48292 0.06459 0.0
N1547 N 0.3879 0.54741 0.08305 0.0
C1548 C 0.35278 0.54723 0.07013 0.0
C1549 C 0.33628 0.51212 0.06042 0.0
C1550 C 0.27315 0.58351 0.83608 0.0
C1551 C 0.28068 0.57243 0.80037 0.0
C1552 C 0.24064 0.60136 0.84501 0.0
C1553 C 0.21365 0.60731 0.81903 0.0
H1554 H 0.29362 0.5804 0.85679 0.0
H1555 H 0.23831 0.61371 0.87162 0.0
S1556 S 0.22124 0.58615 0.72133 0.0
N1557 N 0.25901 0.57036 0.7384 0.0
N1558 N 0.19785 0.60278 0.75572 0.0
C1559 C 0.22062 0.59568 0.78341 0.0
C1560 C 0.25404 0.57853 0.774 0.0
C1561 C 0.18006 0.53599 0.51578 0.0
C1562 C 0.19045 0.56439 0.54045 0.0
C1563 C 0.17064 0.50025 0.52781 0.0
C1564 C 0.17187 0.49176 0.56475 0.0
H1565 H 0.17753 0.54171 0.48727 0.0
H1566 H 0.15844 0.48037 0.50878 0.0
S1567 S 0.199 0.55527 0.63939 0.0
N1568 N 0.20275 0.58086 0.60305 0.0
N1569 N 0.18703 0.51354 0.62497 0.0
C1570 C 0.1862 0.51891 0.58871 0.0
C1571 C 0.19423 0.55544 0.57689 0.0
C1572 C 0.24575 0.60989 0.25209 0.0
C1573 C 0.21802 0.60019 0.22666 0.0
C1574 C 0.28202 0.62056 0.24104 0.0
C1575 C 0.29198 0.62167 0.2042 0.0
H1576 H 0.23917 0.61043 0.28076 0.0
H1577 H 0.30145 0.63126 0.26122 0.0
S1578 S 0.23061 0.59693 0.12703 0.0
N1579 N 0.20372 0.59029 0.1631 0.0
N1580 N 0.27195 0.61046 0.14249 0.0
C1581 C 0.26531 0.60946 0.17874 0.0
C1582 C 0.22824 0.59896 0.1899 0.0
C1583 C 0.14856 0.49091 0.9793 0.0
C1584 C 0.18364 0.48352 0.9658 0.0
C1585 C 0.13333 0.52419 0.97231 0.0
C1586 C 0.15259 0.55177 0.95157 0.0
H1587 H 0.13279 0.47092 0.99562 0.0
H1588 H 0.10571 0.52778 0.983 0.0
S1589 S 0.24873 0.54777 0.91672 0.0
N1590 N 0.23941 0.50733 0.93483 0.0
N1591 N 0.21074 0.57045 0.92177 0.0
C1592 C 0.18844 0.54512 0.93922 0.0
C1593 C 0.2039 0.51087 0.94622 0.0
C1594 C 0.26125 0.46284 0.69514 0.0
C1595 C 0.27471 0.45156 0.72847 0.0
C1596 C 0.22556 0.45159 0.68371 0.0
C1597 C 0.20186 0.42871 0.70514 0.0
H1598 H 0.27843 0.48044 0.67756 0.0
H1599 H 0.21731 0.45928 0.65698 0.0
S1600 S 0.22291 0.39247 0.79533 0.0
N1601 N 0.26093 0.41701 0.78346 0.0
N1602 N 0.19378 0.3958 0.76164 0.0
C1603 C 0.21459 0.41778 0.73886 0.0
C1604 C 0.25099 0.42922 0.7506 0.0
C1605 C 0.28758 0.55602 0.44142 0.0
C1606 C 0.30005 0.58018 0.46918 0.0
C1607 C 0.30294 0.52195 0.4365 0.0
C1608 C 0.33221 0.51139 0.45774 0.0
H1609 H 0.26573 0.56328 0.42352 0.0
H1610 H 0.29272 0.50403 0.41548 0.0
S1611 S 0.36649 0.55914 0.54091 0.0
N1612 N 0.33726 0.58698 0.52365 0.0
N1613 N 0.36672 0.52366 0.51294 0.0
C1614 C 0.34207 0.53344 0.48787 0.0
C1615 C 0.32607 0.56778 0.49362 0.0
C1616 C 0.32684 0.24999 0.44123 0.0
C1617 C 0.29253 0.24483 0.45921 0.0
C1618 C 0.33993 0.28504 0.43006 0.0
C1619 C 0.31976 0.31609 0.43768 0.0
H1620 H 0.34262 0.22664 0.43406 0.0
H1621 H 0.36467 0.28755 0.41315 0.0
S1622 S 0.23173 0.31832 0.48867 0.0
N1623 N 0.24061 0.2745 0.48718 0.0
N1624 N 0.26632 0.34023 0.46703 0.0
C1625 C 0.28718 0.31172 0.45807 0.0
C1626 C 0.27322 0.27608 0.46856 0.0
C1627 C 0.81555 0.31051 0.55342 0.0
C1628 C 0.77981 0.32166 0.56203 0.0
C1629 C 0.82959 0.2802 0.57033 0.0
C1630 C 0.80792 0.2597 0.59544 0.0
H1631 H 0.83372 0.32671 0.5355 0.0
H1632 H 0.85878 0.27555 0.56696 0.0
S1633 S 0.71056 0.27357 0.62268 0.0
N1634 N 0.72161 0.30707 0.59431 0.0
N1635 N 0.74739 0.24903 0.62402 0.0
C1636 C 0.77049 0.26755 0.60026 0.0
C1637 C 0.75671 0.29917 0.58449 0.0
C1638 C 0.48493 0.06342 0.28831 0.0
C1639 C 0.45125 0.04974 0.30447 0.0
C1640 C 0.51625 0.07432 0.30941 0.0
C1641 C 0.51494 0.07144 0.34732 0.0
H1642 H 0.48692 0.06617 0.25921 0.0
H1643 H 0.54081 0.08655 0.29619 0.0
S1644 S 0.43382 0.03399 0.40223 0.0
N1645 N 0.41914 0.03259 0.36024 0.0
N1646 N 0.4774 0.04989 0.3995 0.0
C1647 C 0.48187 0.05523 0.36324 0.0
C1648 C 0.45019 0.04533 0.34199 0.0
C1649 C 0.69405 0.76659 0.04045 0.0
C1650 C 0.69402 0.73865 0.06598 0.0
C1651 C 0.68594 0.80216 0.05062 0.0
C1652 C 0.67514 0.81107 0.08609 0.0
H1653 H 0.7008 0.76099 0.01237 0.0
H1654 H 0.68767 0.82291 0.03012 0.0
S1655 S 0.67948 0.74729 0.16448 0.0
N1656 N 0.69032 0.72236 0.12894 0.0
N1657 N 0.67159 0.78789 0.14838 0.0
C1658 C 0.67779 0.78328 0.11257 0.0
C1659 C 0.68794 0.74731 0.10222 0.0
C1660 C 0.52039 0.47327 0.31364 0.0
C1661 C 0.5246 0.50887 0.30011 0.0
C1662 C 0.48678 0.4601 0.32897 0.0
C1663 C 0.45602 0.48191 0.33134 0.0
H1664 H 0.54375 0.45603 0.31399 0.0
H1665 H 0.48592 0.43381 0.34224 0.0
S1666 S 0.45036 0.57436 0.29294 0.0
N1667 N 0.49354 0.56382 0.28449 0.0
N1668 N 0.43036 0.53912 0.31483 0.0
C1669 C 0.45888 0.51658 0.31548 0.0
C1670 C 0.49324 0.53008 0.29952 0.0
C1671 C 0.1656 0.8101 0.93646 0.0
C1672 C 0.20047 0.8191 0.95147 0.0
C1673 C 0.1561 0.77423 0.92453 0.0
C1674 C 0.18047 0.74595 0.92872 0.0
H1675 H 0.14611 0.8311 0.93281 0.0
H1676 H 0.13004 0.76882 0.91066 0.0
S1677 S 0.27351 0.75471 0.96982 0.0
N1678 N 0.25858 0.79651 0.97206 0.0
N1679 N 0.24014 0.72901 0.9502 0.0
C1680 C 0.21476 0.75433 0.94498 0.0
C1681 C 0.22481 0.79092 0.95644 0.0
C1682 C 0.4772 0.96652 0.22103 0.0
C1683 C 0.44726 0.95165 0.20054 0.0
C1684 C 0.51393 0.96204 0.20994 0.0
C1685 C 0.52156 0.94236 0.17819 0.0
H1686 H 0.47223 0.9846 0.24381 0.0
H1687 H 0.53599 0.97818 0.22332 0.0
S1688 S 0.4534 0.89322 0.1188 0.0
N1689 N 0.42764 0.91315 0.14966 0.0
N1690 N 0.49689 0.90271 0.1303 0.0
C1691 C 0.49197 0.92274 0.16097 0.0
C1692 C 0.45456 0.92852 0.17128 0.0
C1693 C 0.02279 0.13274 0.68956 0.0
C1694 C 0.03005 0.09611 0.69588 0.0
C1695 C 0.98853 0.14141 0.67546 0.0
C1696 C 0.96101 0.11363 0.66772 0.0
H1697 H 0.04452 0.15424 0.69275 0.0
H1698 H 0.98554 0.16906 0.66618 0.0
S1699 S 0.96283 0.01549 0.68987 0.0
N1700 N 0.00429 0.03326 0.70106 0.0
N1701 N 0.94007 0.04997 0.67487 0.0
C1702 C 0.96607 0.07808 0.67933 0.0
C1703 C 0.00087 0.06906 0.69292 0.0
loop_
_geom_bond_atom_site_label_1
_geom_bond_atom_site_label_2
_geom_bond_distance
_geom_bond_site_symmetry_2
_ccdc_geom_bond_type
In0 O1 2.294 . S
In0 O2 2.326 . S
In0 O6 2.266 . S
In0 O7 2.326 . S
In0 O8 2.266 1_455 S
In0 O9 2.326 . S
In0 O11 2.294 1_455 S
In0 O12 2.326 . S
O1 In0 2.294 . S
O1 C10 1.240 . S
O2 In0 2.326 . S
O2 C10 1.252 . S
C3 O6 1.252 . S
C3 O7 1.260 . S
C4 O11 1.240 . S
C4 O12 1.252 1_655 S
C5 O8 1.252 . S
C5 O9 1.260 1_655 S
O6 In0 2.266 . S
O6 C3 1.252 . S
O7 In0 2.326 . S
O7 C3 1.260 . S
O8 In0 2.266 1_655 S
O8 C5 1.252 . S
O9 In0 2.326 . S
O9 C5 1.260 1_455 S
C10 O1 1.240 . S
C10 O2 1.252 . S
O11 In0 2.294 1_655 S
O11 C4 1.240 . S
O12 In0 2.326 . S
O12 C4 1.252 1_455 S
In13 O14 2.294 1_455 S
In13 O15 2.326 1_455 S
In13 O19 2.266 . S
In13 O20 2.326 . S
In13 O21 2.266 1_455 S
In13 O22 2.326 1_455 S
In13 O24 2.294 . S
In13 O25 2.326 . S
O14 In13 2.294 1_655 S
O14 C23 1.240 . S
O15 In13 2.326 1_655 S
O15 C23 1.252 . S
C16 O19 1.252 . S
C16 O20 1.260 . S
C17 O24 1.240 . S
C17 O25 1.252 . S
C18 O21 1.252 . S
C18 O22 1.260 . S
O19 In13 2.266 . S
O19 C16 1.252 . S
O20 In13 2.326 . S
O20 C16 1.260 . S
O21 In13 2.266 1_655 S
O21 C18 1.252 . S
O22 In13 2.326 1_655 S
O22 C18 1.260 . S
C23 O14 1.240 . S
C23 O15 1.252 . S
O24 In13 2.294 . S
O24 C17 1.240 . S
O25 In13 2.326 . S
O25 C17 1.252 . S
In26 O27 2.294 . S
In26 O28 2.326 . S
In26 O32 2.266 . S
In26 O33 2.326 . S
In26 O34 2.266 . S
In26 O35 2.326 . S
In26 O37 2.294 . S
In26 O38 2.326 . S
O27 In26 2.294 . S
O27 C36 1.240 . S
O28 In26 2.326 . S
O28 C36 1.252 . S
C29 O32 1.252 . S
C29 O33 1.260 . S
C30 O37 1.240 . S
C30 O38 1.252 . S
C31 O34 1.252 . S
C31 O35 1.260 . S
O32 In26 2.266 . S
O32 C29 1.252 . S
O33 In26 2.326 . S
O33 C29 1.260 . S
O34 In26 2.266 . S
O34 C31 1.252 . S
O35 In26 2.326 . S
O35 C31 1.260 . S
C36 O27 1.240 . S
C36 O28 1.252 . S
O37 In26 2.294 . S
O37 C30 1.240 . S
O38 In26 2.326 . S
O38 C30 1.252 . S
In39 O40 2.294 . S
In39 O41 2.326 . S
In39 O45 2.266 . S
In39 O46 2.326 . S
In39 O47 2.266 . S
In39 O48 2.326 . S
In39 O50 2.294 . S
In39 O51 2.326 . S
O40 In39 2.294 . S
O40 C49 1.240 . S
O41 In39 2.326 . S
O41 C49 1.252 . S
C42 O45 1.252 . S
C42 O46 1.260 . S
C43 O50 1.240 . S
C43 O51 1.252 . S
C44 O47 1.252 . S
C44 O48 1.260 . S
O45 In39 2.266 . S
O45 C42 1.252 . S
O46 In39 2.326 . S
O46 C42 1.260 . S
O47 In39 2.266 . S
O47 C44 1.252 . S
O48 In39 2.326 . S
O48 C44 1.260 . S
C49 O40 1.240 . S
C49 O41 1.252 . S
O50 In39 2.294 . S
O50 C43 1.240 . S
O51 In39 2.326 . S
O51 C43 1.252 . S
In52 O53 2.294 1_455 S
In52 O54 2.326 . S
In52 O58 2.266 1_455 S
In52 O59 2.326 . S
In52 O60 2.266 . S
In52 O61 2.326 1_455 S
In52 O63 2.294 . S
In52 O64 2.326 1_455 S
O53 In52 2.294 1_655 S
O53 C62 1.240 . S
O54 In52 2.326 . S
O54 C62 1.252 1_455 S
C55 O58 1.252 . S
C55 O59 1.260 1_655 S
C56 O63 1.240 . S
C56 O64 1.252 1_455 S
C57 O60 1.252 . S
C57 O61 1.260 1_455 S
O58 In52 2.266 1_655 S
O58 C55 1.252 . S
O59 In52 2.326 . S
O59 C55 1.260 1_455 S
O60 In52 2.266 . S
O60 C57 1.252 . S
O61 In52 2.326 1_655 S
O61 C57 1.260 1_655 S
C62 O53 1.240 . S
C62 O54 1.252 1_655 S
O63 In52 2.294 . S
O63 C56 1.240 . S
O64 In52 2.326 1_655 S
O64 C56 1.252 1_655 S
In65 O66 2.294 . S
In65 O67 2.326 . S
In65 O71 2.266 . S
In65 O72 2.326 . S
In65 O73 2.266 . S
In65 O74 2.326 . S
In65 O76 2.294 . S
In65 O77 2.326 . S
O66 In65 2.294 . S
O66 C75 1.240 . S
O67 In65 2.326 . S
O67 C75 1.252 . S
C68 O71 1.252 . S
C68 O72 1.260 . S
C69 O76 1.240 . S
C69 O77 1.252 . S
C70 O73 1.252 . S
C70 O74 1.260 . S
O71 In65 2.266 . S
O71 C68 1.252 . S
O72 In65 2.326 . S
O72 C68 1.260 . S
O73 In65 2.266 . S
O73 C70 1.252 . S
O74 In65 2.326 . S
O74 C70 1.260 . S
C75 O66 1.240 . S
C75 O67 1.252 . S
O76 In65 2.294 . S
O76 C69 1.240 . S
O77 In65 2.326 . S
O77 C69 1.252 . S
In78 O79 2.294 . S
In78 O80 2.326 . S
In78 O84 2.266 . S
In78 O85 2.326 . S
In78 O86 2.266 . S
In78 O87 2.326 . S
In78 O89 2.294 . S
In78 O90 2.326 . S
O79 In78 2.294 . S
O79 C88 1.240 . S
O80 In78 2.326 . S
O80 C88 1.252 . S
C81 O84 1.252 . S
C81 O85 1.260 . S
C82 O89 1.240 . S
C82 O90 1.252 . S
C83 O86 1.252 . S
C83 O87 1.260 . S
O84 In78 2.266 . S
O84 C81 1.252 . S
O85 In78 2.326 . S
O85 C81 1.260 . S
O86 In78 2.266 . S
O86 C83 1.252 . S
O87 In78 2.326 . S
O87 C83 1.260 . S
C88 O79 1.240 . S
C88 O80 1.252 . S
O89 In78 2.294 . S
O89 C82 1.240 . S
O90 In78 2.326 . S
O90 C82 1.252 . S
In91 O92 2.294 . S
In91 O93 2.326 . S
In91 O97 2.266 . S
In91 O98 2.326 1_455 S
In91 O99 2.266 . S
In91 O100 2.326 . S
In91 O102 2.294 . S
In91 O103 2.326 1_455 S
O92 In91 2.294 . S
O92 C101 1.240 . S
O93 In91 2.326 . S
O93 C101 1.252 . S
C94 O97 1.252 1_655 S
C94 O98 1.260 . S
C95 O102 1.240 1_655 S
C95 O103 1.252 . S
C96 O99 1.252 . S
C96 O100 1.260 . S
O97 In91 2.266 . S
O97 C94 1.252 1_455 S
O98 In91 2.326 1_655 S
O98 C94 1.260 . S
O99 In91 2.266 . S
O99 C96 1.252 . S
O100 In91 2.326 . S
O100 C96 1.260 . S
C101 O92 1.240 . S
C101 O93 1.252 . S
O102 In91 2.294 . S
O102 C95 1.240 1_455 S
O103 In91 2.326 1_655 S
O103 C95 1.252 . S
In104 O105 2.290 1_545 S
In104 O106 2.327 . S
In104 O110 2.262 1_545 S
In104 O111 2.326 . S
In104 O112 2.270 . S
In104 O113 2.325 1_545 S
In104 O115 2.298 . S
In104 O116 2.326 1_545 S
O105 In104 2.290 1_565 S
O105 C114 1.240 . S
O106 In104 2.327 . S
O106 C114 1.252 1_545 S
C107 O110 1.252 . S
C107 O111 1.260 1_565 S
C108 O115 1.240 . S
C108 O116 1.252 1_545 S
C109 O112 1.252 . S
C109 O113 1.260 1_545 S
O110 In104 2.262 1_565 S
O110 C107 1.252 . S
O111 In104 2.326 . S
O111 C107 1.260 1_545 S
O112 In104 2.270 . S
O112 C109 1.252 . S
O113 In104 2.325 1_565 S
O113 C109 1.260 1_565 S
C114 O105 1.240 . S
C114 O106 1.252 1_565 S
O115 In104 2.298 . S
O115 C108 1.240 . S
O116 In104 2.326 1_565 S
O116 C108 1.252 1_565 S
In117 O118 2.294 . S
In117 O119 2.326 . S
In117 O123 2.266 . S
In117 O124 2.326 . S
In117 O125 2.266 . S
In117 O126 2.326 . S
In117 O128 2.294 . S
In117 O129 2.326 . S
O118 In117 2.294 . S
O118 C127 1.240 . S
O119 In117 2.326 . S
O119 C127 1.252 . S
C120 O123 1.252 . S
C120 O124 1.260 . S
C121 O128 1.240 . S
C121 O129 1.252 . S
C122 O125 1.252 . S
C122 O126 1.260 . S
O123 In117 2.266 . S
O123 C120 1.252 . S
O124 In117 2.326 . S
O124 C120 1.260 . S
O125 In117 2.266 . S
O125 C122 1.252 . S
O126 In117 2.326 . S
O126 C122 1.260 . S
C127 O118 1.240 . S
C127 O119 1.252 . S
O128 In117 2.294 . S
O128 C121 1.240 . S
O129 In117 2.326 . S
O129 C121 1.252 . S
In130 O131 2.294 . S
In130 O132 2.326 . S
In130 O136 2.266 . S
In130 O137 2.326 . S
In130 O138 2.266 . S
In130 O139 2.326 . S
In130 O141 2.294 . S
In130 O142 2.326 . S
O131 In130 2.294 . S
O131 C140 1.240 . S
O132 In130 2.326 . S
O132 C140 1.252 . S
C133 O136 1.252 . S
C133 O137 1.260 . S
C134 O141 1.240 . S
C134 O142 1.252 . S
C135 O138 1.252 . S
C135 O139 1.260 . S
O136 In130 2.266 . S
O136 C133 1.252 . S
O137 In130 2.326 . S
O137 C133 1.260 . S
O138 In130 2.266 . S
O138 C135 1.252 . S
O139 In130 2.326 . S
O139 C135 1.260 . S
C140 O131 1.240 . S
C140 O132 1.252 . S
O141 In130 2.294 . S
O141 C134 1.240 . S
O142 In130 2.326 . S
O142 C134 1.252 . S
In143 O144 2.294 . S
In143 O145 2.326 . S
In143 O149 2.267 . S
In143 O150 2.326 1_554 S
In143 O151 2.266 . S
In143 O152 2.326 . S
In143 O154 2.294 1_554 S
In143 O155 2.326 1_554 S
O144 In143 2.294 . S
O144 C153 1.240 . S
O145 In143 2.326 . S
O145 C153 1.252 . S
C146 O149 1.250 1_556 S
C146 O150 1.260 . S
C147 O154 1.240 . S
C147 O155 1.252 . S
C148 O151 1.252 . S
C148 O152 1.260 . S
O149 In143 2.267 . S
O149 C146 1.250 1_554 S
O150 In143 2.326 1_556 S
O150 C146 1.260 . S
O151 In143 2.266 . S
O151 C148 1.252 . S
O152 In143 2.326 . S
O152 C148 1.260 . S
C153 O144 1.240 . S
C153 O145 1.252 . S
O154 In143 2.294 1_556 S
O154 C147 1.240 . S
O155 In143 2.326 1_556 S
O155 C147 1.252 . S
In156 O157 2.294 1_554 S
In156 O158 2.326 . S
In156 O162 2.266 1_554 S
In156 O163 2.326 . S
In156 O164 2.266 . S
In156 O165 2.326 1_554 S
In156 O167 2.294 . S
In156 O168 2.326 1_554 S
O157 In156 2.294 1_556 S
O157 C166 1.240 . S
O158 In156 2.326 . S
O158 C166 1.252 1_554 S
C159 O162 1.252 . S
C159 O163 1.260 1_556 S
C160 O167 1.240 . S
C160 O168 1.252 1_554 S
C161 O164 1.252 . S
C161 O165 1.260 1_554 S
O162 In156 2.266 1_556 S
O162 C159 1.252 . S
O163 In156 2.326 . S
O163 C159 1.260 1_554 S
O164 In156 2.266 . S
O164 C161 1.252 . S
O165 In156 2.326 1_556 S
O165 C161 1.260 1_556 S
C166 O157 1.240 . S
C166 O158 1.252 1_556 S
O167 In156 2.294 . S
O167 C160 1.240 . S
O168 In156 2.326 1_556 S
O168 C160 1.252 1_556 S
In169 O170 2.294 . S
In169 O171 2.326 1_554 S
In169 O175 2.266 . S
In169 O176 2.326 1_554 S
In169 O177 2.266 1_554 S
In169 O178 2.326 . S
In169 O180 2.294 1_554 S
In169 O181 2.326 . S
O170 In169 2.294 . S
O170 C179 1.240 . S
O171 In169 2.326 1_556 S
O171 C179 1.252 1_556 S
C172 O175 1.252 . S
C172 O176 1.260 1_554 S
C173 O180 1.240 . S
C173 O181 1.252 1_556 S
C174 O177 1.252 . S
C174 O178 1.260 1_556 S
O175 In169 2.266 . S
O175 C172 1.252 . S
O176 In169 2.326 1_556 S
O176 C172 1.260 1_556 S
O177 In169 2.266 1_556 S
O177 C174 1.252 . S
O178 In169 2.326 . S
O178 C174 1.260 1_554 S
C179 O170 1.240 . S
C179 O171 1.252 1_554 S
O180 In169 2.294 1_556 S
O180 C173 1.240 . S
O181 In169 2.326 . S
O181 C173 1.252 1_554 S
In182 O183 2.294 . S
In182 O184 2.326 . S
In182 O188 2.266 . S
In182 O189 2.326 . S
In182 O190 2.266 . S
In182 O191 2.326 . S
In182 O193 2.294 . S
In182 O194 2.326 . S
O183 In182 2.294 . S
O183 C192 1.240 . S
O184 In182 2.326 . S
O184 C192 1.252 . S
C185 O188 1.252 . S
C185 O189 1.260 . S
C186 O193 1.240 . S
C186 O194 1.252 . S
C187 O190 1.252 . S
C187 O191 1.260 . S
O188 In182 2.266 . S
O188 C185 1.252 . S
O189 In182 2.326 . S
O189 C185 1.260 . S
O190 In182 2.266 . S
O190 C187 1.252 . S
O191 In182 2.326 . S
O191 C187 1.260 . S
C192 O183 1.240 . S
C192 O184 1.252 . S
O193 In182 2.294 . S
O193 C186 1.240 . S
O194 In182 2.326 . S
O194 C186 1.252 . S
In195 O196 2.294 . S
In195 O197 2.326 . S
In195 O201 2.266 . S
In195 O202 2.326 . S
In195 O203 2.266 . S
In195 O204 2.326 . S
In195 O206 2.294 . S
In195 O207 2.326 . S
O196 In195 2.294 . S
O196 C205 1.240 . S
O197 In195 2.326 . S
O197 C205 1.252 . S
C198 O201 1.252 . S
C198 O202 1.260 . S
C199 O206 1.240 . S
C199 O207 1.252 . S
C200 O203 1.252 . S
C200 O204 1.260 . S
O201 In195 2.266 . S
O201 C198 1.252 . S
O202 In195 2.326 . S
O202 C198 1.260 . S
O203 In195 2.266 . S
O203 C200 1.252 . S
O204 In195 2.326 . S
O204 C200 1.260 . S
C205 O196 1.240 . S
C205 O197 1.252 . S
O206 In195 2.294 . S
O206 C199 1.240 . S
O207 In195 2.326 . S
O207 C199 1.252 . S
In208 O209 2.294 1_545 S
In208 O210 2.326 1_545 S
In208 O214 2.266 . S
In208 O215 2.326 . S
In208 O216 2.266 1_545 S
In208 O217 2.326 1_545 S
In208 O219 2.294 . S
In208 O220 2.326 . S
O209 In208 2.294 1_565 S
O209 C218 1.240 . S
O210 In208 2.326 1_565 S
O210 C218 1.252 . S
C211 O214 1.252 . S
C211 O215 1.260 . S
C212 O219 1.240 . S
C212 O220 1.252 . S
C213 O216 1.252 . S
C213 O217 1.260 . S
O214 In208 2.266 . S
O214 C211 1.252 . S
O215 In208 2.326 . S
O215 C211 1.260 . S
O216 In208 2.266 1_565 S
O216 C213 1.252 . S
O217 In208 2.326 1_565 S
O217 C213 1.260 . S
C218 O209 1.240 . S
C218 O210 1.252 . S
O219 In208 2.294 . S
O219 C212 1.240 . S
O220 In208 2.326 . S
O220 C212 1.252 . S
In221 O222 2.294 . S
In221 O223 2.326 . S
In221 O227 2.266 . S
In221 O228 2.326 . S
In221 O229 2.266 . S
In221 O230 2.326 . S
In221 O232 2.294 . S
In221 O233 2.326 . S
O222 In221 2.294 . S
O222 C231 1.240 . S
O223 In221 2.326 . S
O223 C231 1.252 . S
C224 O227 1.252 . S
C224 O228 1.260 . S
C225 O232 1.240 . S
C225 O233 1.252 . S
C226 O229 1.252 . S
C226 O230 1.260 . S
O227 In221 2.266 . S
O227 C224 1.252 . S
O228 In221 2.326 . S
O228 C224 1.260 . S
O229 In221 2.266 . S
O229 C226 1.252 . S
O230 In221 2.326 . S
O230 C226 1.260 . S
C231 O222 1.240 . S
C231 O223 1.252 . S
O232 In221 2.294 . S
O232 C225 1.240 . S
O233 In221 2.326 . S
O233 C225 1.252 . S
In234 O235 2.294 . S
In234 O236 2.326 . S
In234 O240 2.266 . S
In234 O241 2.326 . S
In234 O242 2.266 . S
In234 O243 2.326 . S
In234 O245 2.294 . S
In234 O246 2.326 . S
O235 In234 2.294 . S
O235 C244 1.240 . S
O236 In234 2.326 . S
O236 C244 1.252 . S
C237 O240 1.252 . S
C237 O241 1.260 . S
C238 O245 1.240 . S
C238 O246 1.252 . S
C239 O242 1.252 . S
C239 O243 1.260 . S
O240 In234 2.266 . S
O240 C237 1.252 . S
O241 In234 2.326 . S
O241 C237 1.260 . S
O242 In234 2.266 . S
O242 C239 1.252 . S
O243 In234 2.326 . S
O243 C239 1.260 . S
C244 O235 1.240 . S
C244 O236 1.252 . S
O245 In234 2.294 . S
O245 C238 1.240 . S
O246 In234 2.326 . S
O246 C238 1.252 . S
In247 O248 2.294 . S
In247 O249 2.326 . S
In247 O253 2.266 . S
In247 O254 2.326 . S
In247 O255 2.266 . S
In247 O256 2.326 . S
In247 O258 2.294 . S
In247 O259 2.326 . S
O248 In247 2.294 . S
O248 C257 1.240 . S
O249 In247 2.326 . S
O249 C257 1.252 . S
C250 O253 1.252 . S
C250 O254 1.260 . S
C251 O258 1.240 . S
C251 O259 1.252 . S
C252 O255 1.252 . S
C252 O256 1.260 . S
O253 In247 2.266 . S
O253 C250 1.252 . S
O254 In247 2.326 . S
O254 C250 1.260 . S
O255 In247 2.266 . S
O255 C252 1.252 . S
O256 In247 2.326 . S
O256 C252 1.260 . S
C257 O248 1.240 . S
C257 O249 1.252 . S
O258 In247 2.294 . S
O258 C251 1.240 . S
O259 In247 2.326 . S
O259 C251 1.252 . S
In260 O261 2.294 . S
In260 O262 2.326 . S
In260 O266 2.266 1_554 S
In260 O267 2.326 1_554 S
In260 O268 2.266 . S
In260 O269 2.326 . S
In260 O271 2.294 1_554 S
In260 O272 2.326 1_554 S
O261 In260 2.294 . S
O261 C270 1.240 . S
O262 In260 2.326 . S
O262 C270 1.252 . S
C263 O266 1.252 . S
C263 O267 1.260 . S
C264 O271 1.240 . S
C264 O272 1.252 . S
C265 O268 1.252 . S
C265 O269 1.260 . S
O266 In260 2.266 1_556 S
O266 C263 1.252 . S
O267 In260 2.326 1_556 S
O267 C263 1.260 . S
O268 In260 2.266 . S
O268 C265 1.252 . S
O269 In260 2.326 . S
O269 C265 1.260 . S
C270 O261 1.240 . S
C270 O262 1.252 . S
O271 In260 2.294 1_556 S
O271 C264 1.240 . S
O272 In260 2.326 1_556 S
O272 C264 1.252 . S
In273 O274 2.294 . S
In273 O275 2.326 . S
In273 O279 2.266 . S
In273 O280 2.326 . S
In273 O281 2.266 . S
In273 O282 2.326 . S
In273 O284 2.294 . S
In273 O285 2.326 . S
O274 In273 2.294 . S
O274 C283 1.240 . S
O275 In273 2.326 . S
O275 C283 1.252 . S
C276 O279 1.252 . S
C276 O280 1.260 . S
C277 O284 1.240 . S
C277 O285 1.252 . S
C278 O281 1.252 . S
C278 O282 1.260 . S
O279 In273 2.266 . S
O279 C276 1.252 . S
O280 In273 2.326 . S
O280 C276 1.260 . S
O281 In273 2.266 . S
O281 C278 1.252 . S
O282 In273 2.326 . S
O282 C278 1.260 . S
C283 O274 1.240 . S
C283 O275 1.252 . S
O284 In273 2.294 . S
O284 C277 1.240 . S
O285 In273 2.326 . S
O285 C277 1.252 . S
In286 O287 2.294 . S
In286 O288 2.326 . S
In286 O292 2.266 . S
In286 O293 2.326 . S
In286 O294 2.266 . S
In286 O295 2.326 . S
In286 O297 2.294 . S
In286 O298 2.326 . S
O287 In286 2.294 . S
O287 C296 1.240 . S
O288 In286 2.326 . S
O288 C296 1.252 . S
C289 O292 1.252 . S
C289 O293 1.260 . S
C290 O297 1.240 . S
C290 O298 1.252 . S
C291 O294 1.252 . S
C291 O295 1.260 . S
O292 In286 2.266 . S
O292 C289 1.252 . S
O293 In286 2.326 . S
O293 C289 1.260 . S
O294 In286 2.266 . S
O294 C291 1.252 . S
O295 In286 2.326 . S
O295 C291 1.260 . S
C296 O287 1.240 . S
C296 O288 1.252 . S
O297 In286 2.294 . S
O297 C290 1.240 . S
O298 In286 2.326 . S
O298 C290 1.252 . S
In299 O300 2.294 . S
In299 O301 2.326 . S
In299 O305 2.266 . S
In299 O306 2.326 . S
In299 O307 2.266 . S
In299 O308 2.326 . S
In299 O310 2.294 . S
In299 O311 2.326 . S
O300 In299 2.294 . S
O300 C309 1.240 . S
O301 In299 2.326 . S
O301 C309 1.252 . S
C302 O305 1.252 . S
C302 O306 1.260 . S
C303 O310 1.240 . S
C303 O311 1.252 . S
C304 O307 1.252 . S
C304 O308 1.260 . S
O305 In299 2.266 . S
O305 C302 1.252 . S
O306 In299 2.326 . S
O306 C302 1.260 . S
O307 In299 2.266 . S
O307 C304 1.252 . S
O308 In299 2.326 . S
O308 C304 1.260 . S
C309 O300 1.240 . S
C309 O301 1.252 . S
O310 In299 2.294 . S
O310 C303 1.240 . S
O311 In299 2.326 . S
O311 C303 1.252 . S
O312 Mn313 2.163 . S
O312 C326 1.244 . S
Mn313 O312 2.163 . S
Mn313 O316 2.160 . S
Mn313 O317 2.221 . S
Mn313 O319 2.163 . S
Mn313 O321 2.160 . S
Mn313 O331 2.221 . S
O314 Mn315 2.087 . S
O314 C326 1.256 . S
Mn315 O314 2.087 . S
Mn315 O322 2.089 . S
Mn315 O331 2.290 . S
Mn315 O332 2.251 . S
O316 Mn313 2.160 . S
O316 C327 1.239 . S
O317 Mn313 2.221 . S
O317 Mn318 2.290 . S
O317 C328 1.278 . S
Mn318 O317 2.290 . S
Mn318 O320 2.089 . S
Mn318 O323 2.251 . S
Mn318 O324 2.087 . S
O319 Mn313 2.163 . S
O319 C329 1.244 . S
O320 Mn318 2.089 . S
O320 C327 1.256 . S
O321 Mn313 2.160 . S
O321 C330 1.239 . S
O322 Mn315 2.089 . S
O322 C330 1.256 . S
O323 Mn318 2.251 . S
O323 C328 1.241 . S
O324 Mn318 2.087 . S
O324 C329 1.256 . S
C325 O331 1.278 . S
C325 O332 1.241 . S
C326 O312 1.244 . S
C326 O314 1.256 . S
C327 O316 1.239 . S
C327 O320 1.256 . S
C328 O317 1.278 . S
C328 O323 1.241 . S
C329 O319 1.244 . S
C329 O324 1.256 . S
C330 O321 1.239 . S
C330 O322 1.256 . S
O331 Mn313 2.221 . S
O331 Mn315 2.290 . S
O331 C325 1.278 . S
O332 Mn315 2.251 . S
O332 C325 1.241 . S
O333 Mn334 2.163 . S
O333 C347 1.244 . S
Mn334 O333 2.163 . S
Mn334 O337 2.160 . S
Mn334 O338 2.221 . S
Mn334 O340 2.163 . S
Mn334 O342 2.160 . S
Mn334 O352 2.221 . S
O335 Mn336 2.087 . S
O335 C347 1.256 . S
Mn336 O335 2.087 . S
Mn336 O343 2.089 . S
Mn336 O352 2.290 . S
Mn336 O353 2.251 . S
O337 Mn334 2.160 . S
O337 C348 1.239 . S
O338 Mn334 2.221 . S
O338 Mn339 2.290 . S
O338 C349 1.278 . S
Mn339 O338 2.290 . S
Mn339 O341 2.089 . S
Mn339 O344 2.251 . S
Mn339 O345 2.087 . S
O340 Mn334 2.163 . S
O340 C350 1.244 . S
O341 Mn339 2.089 . S
O341 C348 1.256 . S
O342 Mn334 2.160 . S
O342 C351 1.239 . S
O343 Mn336 2.089 . S
O343 C351 1.256 . S
O344 Mn339 2.251 . S
O344 C349 1.241 . S
O345 Mn339 2.087 . S
O345 C350 1.256 . S
C346 O352 1.278 . S
C346 O353 1.241 . S
C347 O333 1.244 . S
C347 O335 1.256 . S
C348 O337 1.239 . S
C348 O341 1.256 . S
C349 O338 1.278 . S
C349 O344 1.241 . S
C350 O340 1.244 . S
C350 O345 1.256 . S
C351 O342 1.239 . S
C351 O343 1.256 . S
O352 Mn334 2.221 . S
O352 Mn336 2.290 . S
O352 C346 1.278 . S
O353 Mn336 2.251 . S
O353 C346 1.241 . S
O354 Mn355 2.163 . S
O354 C368 1.244 . S
Mn355 O354 2.163 . S
Mn355 O358 2.160 . S
Mn355 O359 2.221 . S
Mn355 O361 2.163 . S
Mn355 O363 2.160 . S
Mn355 O373 2.221 . S
O356 Mn357 2.087 . S
O356 C368 1.256 . S
Mn357 O356 2.087 . S
Mn357 O364 2.089 . S
Mn357 O373 2.290 . S
Mn357 O374 2.251 1_565 S
O358 Mn355 2.160 . S
O358 C369 1.239 . S
O359 Mn355 2.221 . S
O359 Mn360 2.290 . S
O359 C370 1.278 . S
Mn360 O359 2.290 . S
Mn360 O362 2.089 . S
Mn360 O365 2.251 . S
Mn360 O366 2.087 . S
O361 Mn355 2.163 . S
O361 C371 1.244 . S
O362 Mn360 2.089 . S
O362 C369 1.256 . S
O363 Mn355 2.160 . S
O363 C372 1.239 . S
O364 Mn357 2.089 . S
O364 C372 1.256 . S
O365 Mn360 2.251 . S
O365 C370 1.241 . S
O366 Mn360 2.087 . S
O366 C371 1.256 . S
C367 O373 1.278 . S
C367 O374 1.241 1_565 S
C368 O354 1.244 . S
C368 O356 1.256 . S
C369 O358 1.239 . S
C369 O362 1.256 . S
C370 O359 1.278 . S
C370 O365 1.241 . S
C371 O361 1.244 . S
C371 O366 1.256 . S
C372 O363 1.239 . S
C372 O364 1.256 . S
O373 Mn355 2.221 . S
O373 Mn357 2.290 . S
O373 C367 1.278 . S
O374 Mn357 2.251 1_545 S
O374 C367 1.241 1_545 S
O375 Mn376 2.163 . S
O375 C389 1.244 . S
Mn376 O375 2.163 . S
Mn376 O379 2.160 . S
Mn376 O380 2.221 . S
Mn376 O382 2.163 . S
Mn376 O384 2.160 . S
Mn376 O394 2.221 . S
O377 Mn378 2.087 . S
O377 C389 1.256 . S
Mn378 O377 2.087 . S
Mn378 O385 2.089 . S
Mn378 O394 2.290 . S
Mn378 O395 2.251 . S
O379 Mn376 2.160 . S
O379 C390 1.239 . S
O380 Mn376 2.221 . S
O380 Mn381 2.290 . S
O380 C391 1.278 . S
Mn381 O380 2.290 . S
Mn381 O383 2.089 . S
Mn381 O386 2.251 . S
Mn381 O387 2.087 . S
O382 Mn376 2.163 . S
O382 C392 1.244 . S
O383 Mn381 2.089 . S
O383 C390 1.256 . S
O384 Mn376 2.160 . S
O384 C393 1.239 . S
O385 Mn378 2.089 . S
O385 C393 1.256 . S
O386 Mn381 2.251 . S
O386 C391 1.241 . S
O387 Mn381 2.087 . S
O387 C392 1.256 . S
C388 O394 1.278 . S
C388 O395 1.241 . S
C389 O375 1.244 . S
C389 O377 1.256 . S
C390 O379 1.239 . S
C390 O383 1.256 . S
C391 O380 1.278 . S
C391 O386 1.241 . S
C392 O382 1.244 . S
C392 O387 1.256 . S
C393 O384 1.239 . S
C393 O385 1.256 . S
O394 Mn376 2.221 . S
O394 Mn378 2.290 . S
O394 C388 1.278 . S
O395 Mn378 2.251 . S
O395 C388 1.241 . S
O396 Mn397 2.163 . S
O396 C410 1.244 . S
Mn397 O396 2.163 . S
Mn397 O400 2.160 . S
Mn397 O401 2.221 . S
Mn397 O403 2.163 . S
Mn397 O405 2.160 . S
Mn397 O415 2.221 . S
O398 Mn399 2.087 . S
O398 C410 1.256 . S
Mn399 O398 2.087 . S
Mn399 O406 2.089 . S
Mn399 O415 2.290 . S
Mn399 O416 2.251 . S
O400 Mn397 2.160 . S
O400 C411 1.239 . S
O401 Mn397 2.221 . S
O401 Mn402 2.290 . S
O401 C412 1.278 . S
Mn402 O401 2.290 . S
Mn402 O404 2.089 . S
Mn402 O407 2.251 . S
Mn402 O408 2.087 . S
O403 Mn397 2.163 . S
O403 C413 1.244 . S
O404 Mn402 2.089 . S
O404 C411 1.256 . S
O405 Mn397 2.160 . S
O405 C414 1.239 . S
O406 Mn399 2.089 . S
O406 C414 1.256 . S
O407 Mn402 2.251 . S
O407 C412 1.241 . S
O408 Mn402 2.087 . S
O408 C413 1.256 . S
C409 O415 1.278 . S
C409 O416 1.241 . S
C410 O396 1.244 . S
C410 O398 1.256 . S
C411 O400 1.239 . S
C411 O404 1.256 . S
C412 O401 1.278 . S
C412 O407 1.241 . S
C413 O403 1.244 . S
C413 O408 1.256 . S
C414 O405 1.239 . S
C414 O406 1.256 . S
O415 Mn397 2.221 . S
O415 Mn399 2.290 . S
O415 C409 1.278 . S
O416 Mn399 2.251 . S
O416 C409 1.241 . S
O417 Mn418 2.163 . S
O417 C431 1.244 . S
Mn418 O417 2.163 . S
Mn418 O421 2.160 . S
Mn418 O422 2.221 . S
Mn418 O424 2.163 . S
Mn418 O426 2.160 . S
Mn418 O436 2.221 . S
O419 Mn420 2.087 . S
O419 C431 1.256 . S
Mn420 O419 2.087 . S
Mn420 O427 2.089 . S
Mn420 O436 2.290 . S
Mn420 O437 2.251 . S
O421 Mn418 2.160 . S
O421 C432 1.239 . S
O422 Mn418 2.221 . S
O422 Mn423 2.290 . S
O422 C433 1.278 . S
Mn423 O422 2.290 . S
Mn423 O425 2.089 . S
Mn423 O428 2.251 . S
Mn423 O429 2.087 . S
O424 Mn418 2.163 . S
O424 C434 1.244 . S
O425 Mn423 2.089 . S
O425 C432 1.256 . S
O426 Mn418 2.160 . S
O426 C435 1.239 . S
O427 Mn420 2.089 . S
O427 C435 1.256 . S
O428 Mn423 2.251 . S
O428 C433 1.241 . S
O429 Mn423 2.087 . S
O429 C434 1.256 . S
C430 O436 1.278 . S
C430 O437 1.241 . S
C431 O417 1.244 . S
C431 O419 1.256 . S
C432 O421 1.239 . S
C432 O425 1.256 . S
C433 O422 1.278 . S
C433 O428 1.241 . S
C434 O424 1.244 . S
C434 O429 1.256 . S
C435 O426 1.239 . S
C435 O427 1.256 . S
O436 Mn418 2.221 . S
O436 Mn420 2.290 . S
O436 C430 1.278 . S
O437 Mn420 2.251 . S
O437 C430 1.241 . S
O438 Mn439 2.163 . S
O438 C452 1.244 . S
Mn439 O438 2.163 . S
Mn439 O442 2.160 . S
Mn439 O443 2.221 . S
Mn439 O445 2.163 . S
Mn439 O447 2.160 . S
Mn439 O457 2.221 . S
O440 Mn441 2.087 . S
O440 C452 1.256 . S
Mn441 O440 2.087 . S
Mn441 O448 2.089 . S
Mn441 O457 2.290 . S
Mn441 O458 2.251 . S
O442 Mn439 2.160 . S
O442 C453 1.239 . S
O443 Mn439 2.221 . S
O443 Mn444 2.290 . S
O443 C454 1.278 . S
Mn444 O443 2.290 . S
Mn444 O446 2.089 . S
Mn444 O449 2.251 . S
Mn444 O450 2.087 . S
O445 Mn439 2.163 . S
O445 C455 1.244 . S
O446 Mn444 2.089 . S
O446 C453 1.256 . S
O447 Mn439 2.160 . S
O447 C456 1.239 . S
O448 Mn441 2.089 . S
O448 C456 1.256 . S
O449 Mn444 2.251 . S
O449 C454 1.241 . S
O450 Mn444 2.087 . S
O450 C455 1.256 . S
C451 O457 1.278 . S
C451 O458 1.241 . S
C452 O438 1.244 . S
C452 O440 1.256 . S
C453 O442 1.239 . S
C453 O446 1.256 . S
C454 O443 1.278 . S
C454 O449 1.241 . S
C455 O445 1.244 . S
C455 O450 1.256 . S
C456 O447 1.239 . S
C456 O448 1.256 . S
O457 Mn439 2.221 . S
O457 Mn441 2.290 . S
O457 C451 1.278 . S
O458 Mn441 2.251 . S
O458 C451 1.241 . S
O459 Mn460 2.163 . S
O459 C473 1.244 . S
Mn460 O459 2.163 . S
Mn460 O463 2.160 . S
Mn460 O464 2.221 . S
Mn460 O466 2.163 . S
Mn460 O468 2.160 . S
Mn460 O478 2.221 . S
O461 Mn462 2.087 . S
O461 C473 1.256 . S
Mn462 O461 2.087 . S
Mn462 O469 2.089 . S
Mn462 O478 2.290 . S
Mn462 O479 2.251 . S
O463 Mn460 2.160 . S
O463 C474 1.239 . S
O464 Mn460 2.221 . S
O464 Mn465 2.290 . S
O464 C475 1.278 . S
Mn465 O464 2.290 . S
Mn465 O467 2.089 . S
Mn465 O470 2.251 . S
Mn465 O471 2.087 . S
O466 Mn460 2.163 . S
O466 C476 1.244 . S
O467 Mn465 2.089 . S
O467 C474 1.256 . S
O468 Mn460 2.160 . S
O468 C477 1.239 . S
O469 Mn462 2.089 . S
O469 C477 1.256 . S
O470 Mn465 2.251 . S
O470 C475 1.241 . S
O471 Mn465 2.087 . S
O471 C476 1.256 . S
C472 O478 1.278 . S
C472 O479 1.241 . S
C473 O459 1.244 . S
C473 O461 1.256 . S
C474 O463 1.239 . S
C474 O467 1.256 . S
C475 O464 1.278 . S
C475 O470 1.241 . S
C476 O466 1.244 . S
C476 O471 1.256 . S
C477 O468 1.239 . S
C477 O469 1.256 . S
O478 Mn460 2.221 . S
O478 Mn462 2.290 . S
O478 C472 1.278 . S
O479 Mn462 2.251 . S
O479 C472 1.241 . S
O480 Mn481 2.163 . S
O480 C494 1.244 . S
Mn481 O480 2.163 . S
Mn481 O484 2.160 . S
Mn481 O485 2.221 . S
Mn481 O487 2.163 . S
Mn481 O489 2.160 . S
Mn481 O499 2.221 . S
O482 Mn483 2.087 . S
O482 C494 1.256 . S
Mn483 O482 2.087 . S
Mn483 O490 2.089 . S
Mn483 O499 2.290 . S
Mn483 O500 2.251 . S
O484 Mn481 2.160 . S
O484 C495 1.239 . S
O485 Mn481 2.221 . S
O485 Mn486 2.290 . S
O485 C496 1.278 . S
Mn486 O485 2.290 . S
Mn486 O488 2.089 . S
Mn486 O491 2.251 . S
Mn486 O492 2.087 . S
O487 Mn481 2.163 . S
O487 C497 1.244 . S
O488 Mn486 2.089 . S
O488 C495 1.256 . S
O489 Mn481 2.160 . S
O489 C498 1.239 . S
O490 Mn483 2.089 . S
O490 C498 1.256 . S
O491 Mn486 2.251 . S
O491 C496 1.241 . S
O492 Mn486 2.087 . S
O492 C497 1.256 . S
C493 O499 1.278 . S
C493 O500 1.241 . S
C494 O480 1.244 . S
C494 O482 1.256 . S
C495 O484 1.239 . S
C495 O488 1.256 . S
C496 O485 1.278 . S
C496 O491 1.241 . S
C497 O487 1.244 . S
C497 O492 1.256 . S
C498 O489 1.239 . S
C498 O490 1.256 . S
O499 Mn481 2.221 . S
O499 Mn483 2.290 . S
O499 C493 1.278 . S
O500 Mn483 2.251 . S
O500 C493 1.241 . S
O501 Mn502 2.163 . S
O501 C515 1.244 . S
Mn502 O501 2.163 . S
Mn502 O505 2.160 . S
Mn502 O506 2.221 . S
Mn502 O508 2.163 . S
Mn502 O510 2.160 . S
Mn502 O520 2.221 . S
O503 Mn504 2.087 . S
O503 C515 1.256 . S
Mn504 O503 2.087 . S
Mn504 O511 2.089 . S
Mn504 O520 2.290 . S
Mn504 O521 2.251 . S
O505 Mn502 2.160 . S
O505 C516 1.239 . S
O506 Mn502 2.221 . S
O506 Mn507 2.290 . S
O506 C517 1.278 . S
Mn507 O506 2.290 . S
Mn507 O509 2.089 . S
Mn507 O512 2.251 . S
Mn507 O513 2.087 . S
O508 Mn502 2.163 . S
O508 C518 1.244 . S
O509 Mn507 2.089 . S
O509 C516 1.256 . S
O510 Mn502 2.160 . S
O510 C519 1.239 . S
O511 Mn504 2.089 . S
O511 C519 1.256 . S
O512 Mn507 2.251 . S
O512 C517 1.241 . S
O513 Mn507 2.087 . S
O513 C518 1.256 . S
C514 O520 1.278 . S
C514 O521 1.241 . S
C515 O501 1.244 . S
C515 O503 1.256 . S
C516 O505 1.239 . S
C516 O509 1.256 . S
C517 O506 1.278 . S
C517 O512 1.241 . S
C518 O508 1.244 . S
C518 O513 1.256 . S
C519 O510 1.239 . S
C519 O511 1.256 . S
O520 Mn502 2.221 . S
O520 Mn504 2.290 . S
O520 C514 1.278 . S
O521 Mn504 2.251 . S
O521 C514 1.241 . S
O522 Mn523 2.163 . S
O522 C536 1.244 . S
Mn523 O522 2.163 . S
Mn523 O526 2.160 . S
Mn523 O527 2.221 . S
Mn523 O529 2.163 . S
Mn523 O531 2.160 . S
Mn523 O541 2.221 . S
O524 Mn525 2.087 . S
O524 C536 1.256 . S
Mn525 O524 2.087 . S
Mn525 O532 2.089 . S
Mn525 O541 2.290 . S
Mn525 O542 2.251 . S
O526 Mn523 2.160 . S
O526 C537 1.239 . S
O527 Mn523 2.221 . S
O527 Mn528 2.290 . S
O527 C538 1.278 . S
Mn528 O527 2.290 . S
Mn528 O530 2.089 . S
Mn528 O533 2.251 . S
Mn528 O534 2.087 . S
O529 Mn523 2.163 . S
O529 C539 1.244 . S
O530 Mn528 2.089 . S
O530 C537 1.256 . S
O531 Mn523 2.160 . S
O531 C540 1.239 . S
O532 Mn525 2.089 . S
O532 C540 1.256 . S
O533 Mn528 2.251 . S
O533 C538 1.241 . S
O534 Mn528 2.087 . S
O534 C539 1.256 . S
C535 O541 1.278 . S
C535 O542 1.241 . S
C536 O522 1.244 . S
C536 O524 1.256 . S
C537 O526 1.239 . S
C537 O530 1.256 . S
C538 O527 1.278 . S
C538 O533 1.241 . S
C539 O529 1.244 . S
C539 O534 1.256 . S
C540 O531 1.239 . S
C540 O532 1.256 . S
O541 Mn523 2.221 . S
O541 Mn525 2.290 . S
O541 C535 1.278 . S
O542 Mn525 2.251 . S
O542 C535 1.241 . S
O543 Mn544 2.163 . S
O543 C557 1.244 . S
Mn544 O543 2.163 . S
Mn544 O547 2.160 . S
Mn544 O548 2.221 . S
Mn544 O550 2.163 . S
Mn544 O552 2.160 . S
Mn544 O562 2.221 . S
O545 Mn546 2.087 . S
O545 C557 1.256 . S
Mn546 O545 2.087 . S
Mn546 O553 2.089 . S
Mn546 O562 2.290 . S
Mn546 O563 2.251 . S
O547 Mn544 2.160 . S
O547 C558 1.239 . S
O548 Mn544 2.221 . S
O548 Mn549 2.290 . S
O548 C559 1.278 . S
Mn549 O548 2.290 . S
Mn549 O551 2.089 . S
Mn549 O554 2.251 . S
Mn549 O555 2.087 . S
O550 Mn544 2.163 . S
O550 C560 1.244 . S
O551 Mn549 2.089 . S
O551 C558 1.256 . S
O552 Mn544 2.160 . S
O552 C561 1.239 . S
O553 Mn546 2.089 . S
O553 C561 1.256 . S
O554 Mn549 2.251 . S
O554 C559 1.241 . S
O555 Mn549 2.087 . S
O555 C560 1.256 . S
C556 O562 1.278 . S
C556 O563 1.241 . S
C557 O543 1.244 . S
C557 O545 1.256 . S
C558 O547 1.239 . S
C558 O551 1.256 . S
C559 O548 1.278 . S
C559 O554 1.241 . S
C560 O550 1.244 . S
C560 O555 1.256 . S
C561 O552 1.239 . S
C561 O553 1.256 . S
O562 Mn544 2.221 . S
O562 Mn546 2.290 . S
O562 C556 1.278 . S
O563 Mn546 2.251 . S
O563 C556 1.241 . S
O564 Mn565 2.163 . S
O564 C578 1.244 . S
Mn565 O564 2.163 . S
Mn565 O568 2.160 . S
Mn565 O569 2.221 . S
Mn565 O571 2.163 . S
Mn565 O573 2.160 . S
Mn565 O583 2.221 . S
O566 Mn567 2.087 . S
O566 C578 1.256 . S
Mn567 O566 2.087 . S
Mn567 O574 2.089 . S
Mn567 O583 2.290 . S
Mn567 O584 2.251 . S
O568 Mn565 2.160 . S
O568 C579 1.239 . S
O569 Mn565 2.221 . S
O569 Mn570 2.290 . S
O569 C580 1.278 . S
Mn570 O569 2.290 . S
Mn570 O572 2.089 . S
Mn570 O575 2.251 . S
Mn570 O576 2.087 . S
O571 Mn565 2.163 . S
O571 C581 1.244 . S
O572 Mn570 2.089 . S
O572 C579 1.256 . S
O573 Mn565 2.160 . S
O573 C582 1.239 . S
O574 Mn567 2.089 . S
O574 C582 1.256 . S
O575 Mn570 2.251 . S
O575 C580 1.241 . S
O576 Mn570 2.087 . S
O576 C581 1.256 . S
C577 O583 1.278 . S
C577 O584 1.241 . S
C578 O564 1.244 . S
C578 O566 1.256 . S
C579 O568 1.239 . S
C579 O572 1.256 . S
C580 O569 1.278 . S
C580 O575 1.241 . S
C581 O571 1.244 . S
C581 O576 1.256 . S
C582 O573 1.239 . S
C582 O574 1.256 . S
O583 Mn565 2.221 . S
O583 Mn567 2.290 . S
O583 C577 1.278 . S
O584 Mn567 2.251 . S
O584 C577 1.241 . S
O585 Mn586 2.163 . S
O585 C599 1.244 . S
Mn586 O585 2.163 . S
Mn586 O589 2.160 . S
Mn586 O590 2.221 . S
Mn586 O592 2.163 . S
Mn586 O594 2.160 . S
Mn586 O604 2.221 . S
O587 Mn588 2.087 . S
O587 C599 1.256 . S
Mn588 O587 2.087 . S
Mn588 O595 2.089 . S
Mn588 O604 2.290 . S
Mn588 O605 2.251 . S
O589 Mn586 2.160 . S
O589 C600 1.239 . S
O590 Mn586 2.221 . S
O590 Mn591 2.290 . S
O590 C601 1.278 . S
Mn591 O590 2.290 . S
Mn591 O593 2.089 . S
Mn591 O596 2.251 . S
Mn591 O597 2.087 . S
O592 Mn586 2.163 . S
O592 C602 1.244 . S
O593 Mn591 2.089 . S
O593 C600 1.256 . S
O594 Mn586 2.160 . S
O594 C603 1.239 . S
O595 Mn588 2.089 . S
O595 C603 1.256 . S
O596 Mn591 2.251 . S
O596 C601 1.241 . S
O597 Mn591 2.087 . S
O597 C602 1.256 . S
C598 O604 1.278 . S
C598 O605 1.241 . S
C599 O585 1.244 . S
C599 O587 1.256 . S
C600 O589 1.239 . S
C600 O593 1.256 . S
C601 O590 1.278 . S
C601 O596 1.241 . S
C602 O592 1.244 . S
C602 O597 1.256 . S
C603 O594 1.239 . S
C603 O595 1.256 . S
O604 Mn586 2.221 . S
O604 Mn588 2.290 . S
O604 C598 1.278 . S
O605 Mn588 2.251 . S
O605 C598 1.241 . S
O606 Mn607 2.163 . S
O606 C620 1.244 . S
Mn607 O606 2.163 . S
Mn607 O610 2.160 . S
Mn607 O611 2.221 . S
Mn607 O613 2.163 . S
Mn607 O615 2.160 . S
Mn607 O625 2.221 . S
O608 Mn609 2.087 . S
O608 C620 1.256 . S
Mn609 O608 2.087 . S
Mn609 O616 2.089 . S
Mn609 O625 2.290 . S
Mn609 O626 2.251 . S
O610 Mn607 2.160 . S
O610 C621 1.239 . S
O611 Mn607 2.221 . S
O611 Mn612 2.290 . S
O611 C622 1.278 . S
Mn612 O611 2.290 . S
Mn612 O614 2.089 . S
Mn612 O617 2.251 . S
Mn612 O618 2.087 . S
O613 Mn607 2.163 . S
O613 C623 1.244 . S
O614 Mn612 2.089 . S
O614 C621 1.256 . S
O615 Mn607 2.160 . S
O615 C624 1.239 . S
O616 Mn609 2.089 . S
O616 C624 1.256 . S
O617 Mn612 2.251 . S
O617 C622 1.241 . S
O618 Mn612 2.087 . S
O618 C623 1.256 . S
C619 O625 1.278 . S
C619 O626 1.241 . S
C620 O606 1.244 . S
C620 O608 1.256 . S
C621 O610 1.239 . S
C621 O614 1.256 . S
C622 O611 1.278 . S
C622 O617 1.241 . S
C623 O613 1.244 . S
C623 O618 1.256 . S
C624 O615 1.239 . S
C624 O616 1.256 . S
O625 Mn607 2.221 . S
O625 Mn609 2.290 . S
O625 C619 1.278 . S
O626 Mn609 2.251 . S
O626 C619 1.241 . S
O627 Mn628 2.163 . S
O627 C641 1.244 . S
Mn628 O627 2.163 . S
Mn628 O631 2.160 . S
Mn628 O632 2.221 . S
Mn628 O634 2.163 . S
Mn628 O636 2.160 . S
Mn628 O646 2.221 . S
O629 Mn630 2.087 . S
O629 C641 1.256 . S
Mn630 O629 2.087 . S
Mn630 O637 2.089 . S
Mn630 O646 2.290 . S
Mn630 O647 2.251 . S
O631 Mn628 2.160 . S
O631 C642 1.239 . S
O632 Mn628 2.221 . S
O632 Mn633 2.290 . S
O632 C643 1.278 . S
Mn633 O632 2.290 . S
Mn633 O635 2.089 . S
Mn633 O638 2.251 . S
Mn633 O639 2.087 . S
O634 Mn628 2.163 . S
O634 C644 1.244 . S
O635 Mn633 2.089 . S
O635 C642 1.256 . S
O636 Mn628 2.160 . S
O636 C645 1.239 . S
O637 Mn630 2.089 . S
O637 C645 1.256 . S
O638 Mn633 2.251 . S
O638 C643 1.241 . S
O639 Mn633 2.087 . S
O639 C644 1.256 . S
C640 O646 1.278 . S
C640 O647 1.241 . S
C641 O627 1.244 . S
C641 O629 1.256 . S
C642 O631 1.239 . S
C642 O635 1.256 . S
C643 O632 1.278 . S
C643 O638 1.241 . S
C644 O634 1.244 . S
C644 O639 1.256 . S
C645 O636 1.239 . S
C645 O637 1.256 . S
O646 Mn628 2.221 . S
O646 Mn630 2.290 . S
O646 C640 1.278 . S
O647 Mn630 2.251 . S
O647 C640 1.241 . S
C648 C649 1.369 . S
C648 C650 1.419 . S
C648 H652 0.930 . S
C649 C648 1.369 . S
C649 C658 1.429 . S
C650 C648 1.419 . S
C650 C651 1.363 . S
C650 H653 0.929 . S
C651 C650 1.363 . S
C651 C657 1.428 . S
H652 C648 0.930 . S
H653 C650 0.929 . S
S654 N655 1.613 . S
S654 N656 1.610 . S
N655 S654 1.613 . S
N655 C658 1.350 . S
N656 S654 1.610 . S
N656 C657 1.351 . S
C657 C651 1.428 . S
C657 N656 1.351 . S
C657 C658 1.434 . S
C658 C649 1.429 . S
C658 N655 1.350 . S
C658 C657 1.434 . S
C659 C660 1.369 . S
C659 C661 1.419 . S
C659 H663 0.930 . S
C660 C659 1.369 . S
C660 C669 1.429 . S
C661 C659 1.419 . S
C661 C662 1.363 . S
C661 H664 0.929 . S
C662 C661 1.363 . S
C662 C668 1.428 . S
H663 C659 0.930 . S
H664 C661 0.929 . S
S665 N666 1.613 1_655 S
S665 N667 1.610 1_655 S
N666 S665 1.613 1_455 S
N666 C669 1.350 . S
N667 S665 1.610 1_455 S
N667 C668 1.351 . S
C668 C662 1.428 . S
C668 N667 1.351 . S
C668 C669 1.434 . S
C669 C660 1.429 . S
C669 N666 1.350 . S
C669 C668 1.434 . S
C670 C671 1.369 . S
C670 C672 1.419 . S
C670 H674 0.930 . S
C671 C670 1.369 . S
C671 C680 1.429 . S
C672 C670 1.419 . S
C672 C673 1.363 . S
C672 H675 0.929 . S
C673 C672 1.363 . S
C673 C679 1.428 . S
H674 C670 0.930 . S
H675 C672 0.929 . S
S676 N677 1.613 . S
S676 N678 1.610 . S
N677 S676 1.613 . S
N677 C680 1.350 . S
N678 S676 1.610 . S
N678 C679 1.351 . S
C679 C673 1.428 . S
C679 N678 1.351 . S
C679 C680 1.434 . S
C680 C671 1.429 . S
C680 N677 1.350 . S
C680 C679 1.434 . S
C681 C682 1.369 . S
C681 C683 1.419 . S
C681 H685 0.930 . S
C682 C681 1.369 . S
C682 C691 1.429 . S
C683 C681 1.419 . S
C683 C684 1.363 1_554 S
C683 H686 0.929 . S
C684 C683 1.363 1_556 S
C684 C690 1.428 . S
H685 C681 0.930 . S
H686 C683 0.929 . S
S687 N688 1.613 1_556 S
S687 N689 1.610 . S
N688 S687 1.613 1_554 S
N688 C691 1.350 . S
N689 S687 1.610 . S
N689 C690 1.351 . S
C690 C684 1.428 . S
C690 N689 1.351 . S
C690 C691 1.434 1_556 S
C691 C682 1.429 . S
C691 N688 1.350 . S
C691 C690 1.434 1_554 S
C692 C693 1.369 . S
C692 C694 1.419 . S
C692 H696 0.930 . S
C693 C692 1.369 . S
C693 C702 1.429 . S
C694 C692 1.419 . S
C694 C695 1.363 . S
C694 H697 0.929 . S
C695 C694 1.363 . S
C695 C701 1.428 . S
H696 C692 0.930 . S
H697 C694 0.929 . S
S698 N699 1.613 . S
S698 N700 1.610 . S
N699 S698 1.613 . S
N699 C702 1.350 . S
N700 S698 1.610 . S
N700 C701 1.351 . S
C701 C695 1.428 . S
C701 N700 1.351 . S
C701 C702 1.434 . S
C702 C693 1.429 . S
C702 N699 1.350 . S
C702 C701 1.434 . S
C703 C704 1.369 . S
C703 C705 1.419 . S
C703 H707 0.930 . S
C704 C703 1.369 . S
C704 C713 1.429 . S
C705 C703 1.419 . S
C705 C706 1.363 . S
C705 H708 0.929 . S
C706 C705 1.363 . S
C706 C712 1.428 . S
H707 C703 0.930 . S
H708 C705 0.929 . S
S709 N710 1.613 . S
S709 N711 1.610 . S
N710 S709 1.613 . S
N710 C713 1.350 . S
N711 S709 1.610 . S
N711 C712 1.351 . S
C712 C706 1.428 . S
C712 N711 1.351 . S
C712 C713 1.434 . S
C713 C704 1.429 . S
C713 N710 1.350 . S
C713 C712 1.434 . S
C714 C715 1.369 . S
C714 C716 1.419 . S
C714 H718 0.930 . S
C715 C714 1.369 . S
C715 C724 1.429 . S
C716 C714 1.419 . S
C716 C717 1.363 . S
C716 H719 0.929 . S
C717 C716 1.363 . S
C717 C723 1.428 . S
H718 C714 0.930 . S
H719 C716 0.929 . S
S720 N721 1.613 . S
S720 N722 1.610 . S
N721 S720 1.613 . S
N721 C724 1.350 . S
N722 S720 1.610 . S
N722 C723 1.351 . S
C723 C717 1.428 . S
C723 N722 1.351 . S
C723 C724 1.434 . S
C724 C715 1.429 . S
C724 N721 1.350 . S
C724 C723 1.434 . S
C725 C726 1.369 1_554 S
C725 C727 1.419 . S
C725 H729 0.930 . S
C726 C725 1.369 1_556 S
C726 C735 1.429 . S
C727 C725 1.419 . S
C727 C728 1.363 . S
C727 H730 0.929 . S
C728 C727 1.363 . S
C728 C734 1.428 . S
H729 C725 0.930 . S
H730 C727 0.929 . S
S731 N732 1.613 . S
S731 N733 1.610 1_556 S
N732 S731 1.613 . S
N732 C735 1.350 . S
N733 S731 1.610 1_554 S
N733 C734 1.351 . S
C734 C728 1.428 . S
C734 N733 1.351 . S
C734 C735 1.434 1_554 S
C735 C726 1.429 . S
C735 N732 1.350 . S
C735 C734 1.434 1_556 S
C736 C737 1.369 . S
C736 C738 1.419 . S
C736 H740 0.930 . S
C737 C736 1.369 . S
C737 C746 1.429 . S
C738 C736 1.419 . S
C738 C739 1.363 . S
C738 H741 0.929 . S
C739 C738 1.363 . S
C739 C745 1.428 . S
H740 C736 0.930 . S
H741 C738 0.929 . S
S742 N743 1.613 . S
S742 N744 1.610 . S
N743 S742 1.613 . S
N743 C746 1.350 . S
N744 S742 1.610 . S
N744 C745 1.351 . S
C745 C739 1.428 . S
C745 N744 1.351 . S
C745 C746 1.434 . S
C746 C737 1.429 . S
C746 N743 1.350 . S
C746 C745 1.434 . S
C747 C748 1.369 . S
C747 C749 1.419 1_545 S
C747 H751 0.930 . S
C748 C747 1.369 . S
C748 C757 1.429 . S
C749 C747 1.419 1_565 S
C749 C750 1.363 . S
C749 H752 0.929 . S
C750 C749 1.363 . S
C750 C756 1.428 1_565 S
H751 C747 0.930 . S
H752 C749 0.929 . S
S753 N754 1.613 . S
S753 N755 1.610 . S
N754 S753 1.613 . S
N754 C757 1.350 . S
N755 S753 1.610 . S
N755 C756 1.351 . S
C756 C750 1.428 1_545 S
C756 N755 1.351 . S
C756 C757 1.434 . S
C757 C748 1.429 . S
C757 N754 1.350 . S
C757 C756 1.434 . S
C758 C759 1.369 1_565 S
C758 C760 1.419 . S
C758 H762 0.930 . S
C759 C758 1.369 1_545 S
C759 C768 1.429 . S
C760 C758 1.419 . S
C760 C761 1.363 . S
C760 H763 0.929 . S
C761 C760 1.363 . S
C761 C767 1.428 1_565 S
H762 C758 0.930 . S
H763 C760 0.929 . S
S764 N765 1.613 . S
S764 N766 1.610 . S
N765 S764 1.613 . S
N765 C768 1.350 . S
N766 S764 1.610 . S
N766 C767 1.351 . S
C767 C761 1.428 1_545 S
C767 N766 1.351 . S
C767 C768 1.434 . S
C768 C759 1.429 . S
C768 N765 1.350 . S
C768 C767 1.434 . S
C769 C770 1.369 . S
C769 C771 1.419 . S
C769 H773 0.930 . S
C770 C769 1.369 . S
C770 C779 1.429 . S
C771 C769 1.419 . S
C771 C772 1.363 . S
C771 H774 0.929 . S
C772 C771 1.363 . S
C772 C778 1.428 . S
H773 C769 0.930 . S
H774 C771 0.929 . S
S775 N776 1.613 1_545 S
S775 N777 1.610 . S
N776 S775 1.613 1_565 S
N776 C779 1.350 1_565 S
N777 S775 1.610 . S
N777 C778 1.351 . S
C778 C772 1.428 . S
C778 N777 1.351 . S
C778 C779 1.434 . S
C779 C770 1.429 . S
C779 N776 1.350 1_545 S
C779 C778 1.434 . S
C780 C781 1.369 . S
C780 C782 1.419 . S
C780 H784 0.930 . S
C781 C780 1.369 . S
C781 C790 1.429 . S
C782 C780 1.419 . S
C782 C783 1.363 . S
C782 H785 0.929 . S
C783 C782 1.363 . S
C783 C789 1.428 . S
H784 C780 0.930 . S
H785 C782 0.929 . S
S786 N787 1.613 . S
S786 N788 1.610 . S
N787 S786 1.613 . S
N787 C790 1.350 . S
N788 S786 1.610 . S
N788 C789 1.351 . S
C789 C783 1.428 . S
C789 N788 1.351 . S
C789 C790 1.434 . S
C790 C781 1.429 . S
C790 N787 1.350 . S
C790 C789 1.434 . S
C791 C792 1.369 . S
C791 C793 1.419 . S
C791 H795 0.930 . S
C792 C791 1.369 . S
C792 C801 1.429 . S
C793 C791 1.419 . S
C793 C794 1.363 . S
C793 H796 0.929 1_545 S
C794 C793 1.363 . S
C794 C800 1.428 . S
H795 C791 0.930 . S
H796 C793 0.929 1_565 S
S797 N798 1.613 . S
S797 N799 1.610 . S
N798 S797 1.613 . S
N798 C801 1.350 . S
N799 S797 1.610 . S
N799 C800 1.351 . S
C800 C794 1.428 . S
C800 N799 1.351 . S
C800 C801 1.434 . S
C801 C792 1.429 . S
C801 N798 1.350 . S
C801 C800 1.434 . S
C802 C803 1.369 . S
C802 C804 1.419 . S
C802 H806 0.930 . S
C803 C802 1.369 . S
C803 C812 1.429 . S
C804 C802 1.419 . S
C804 C805 1.363 . S
C804 H807 0.929 . S
C805 C804 1.363 . S
C805 C811 1.428 . S
H806 C802 0.930 . S
H807 C804 0.929 . S
S808 N809 1.613 . S
S808 N810 1.610 . S
N809 S808 1.613 . S
N809 C812 1.350 . S
N810 S808 1.610 . S
N810 C811 1.351 . S
C811 C805 1.428 . S
C811 N810 1.351 . S
C811 C812 1.434 . S
C812 C803 1.429 . S
C812 N809 1.350 . S
C812 C811 1.434 . S
C813 C814 1.369 1_545 S
C813 C815 1.419 . S
C813 H817 0.930 . S
C814 C813 1.369 1_565 S
C814 C823 1.429 . S
C815 C813 1.419 . S
C815 C816 1.363 . S
C815 H818 0.929 . S
C816 C815 1.363 . S
C816 C822 1.428 . S
H817 C813 0.930 . S
H818 C815 0.929 . S
S819 N820 1.613 . S
S819 N821 1.610 1_565 S
N820 S819 1.613 . S
N820 C823 1.350 . S
N821 S819 1.610 1_545 S
N821 C822 1.351 . S
C822 C816 1.428 . S
C822 N821 1.351 . S
C822 C823 1.434 1_545 S
C823 C814 1.429 . S
C823 N820 1.350 . S
C823 C822 1.434 1_565 S
C824 C825 1.369 . S
C824 C826 1.419 . S
C824 H828 0.930 . S
C825 C824 1.369 . S
C825 C834 1.429 . S
C826 C824 1.419 . S
C826 C827 1.363 . S
C826 H829 0.929 . S
C827 C826 1.363 . S
C827 C833 1.428 . S
H828 C824 0.930 . S
H829 C826 0.929 . S
S830 N831 1.613 . S
S830 N832 1.610 . S
N831 S830 1.613 . S
N831 C834 1.350 . S
N832 S830 1.610 . S
N832 C833 1.351 . S
C833 C827 1.428 . S
C833 N832 1.351 . S
C833 C834 1.434 . S
C834 C825 1.429 . S
C834 N831 1.350 . S
C834 C833 1.434 . S
C835 C836 1.369 . S
C835 C837 1.419 . S
C835 H839 0.930 . S
C836 C835 1.369 . S
C836 C845 1.429 . S
C837 C835 1.419 . S
C837 C838 1.363 . S
C837 H840 0.929 . S
C838 C837 1.363 . S
C838 C844 1.428 . S
H839 C835 0.930 . S
H840 C837 0.929 . S
S841 N842 1.613 . S
S841 N843 1.610 1_554 S
N842 S841 1.613 . S
N842 C845 1.350 1_554 S
N843 S841 1.610 1_556 S
N843 C844 1.351 . S
C844 C838 1.428 . S
C844 N843 1.351 . S
C844 C845 1.434 . S
C845 C836 1.429 . S
C845 N842 1.350 1_556 S
C845 C844 1.434 . S
C846 C847 1.369 . S
C846 C848 1.419 . S
C846 H850 0.930 . S
C847 C846 1.369 . S
C847 C856 1.429 . S
C848 C846 1.419 . S
C848 C849 1.363 1_455 S
C848 H851 0.929 . S
C849 C848 1.363 1_655 S
C849 C855 1.428 . S
H850 C846 0.930 . S
H851 C848 0.929 . S
S852 N853 1.613 1_655 S
S852 N854 1.610 . S
N853 S852 1.613 1_455 S
N853 C856 1.350 . S
N854 S852 1.610 . S
N854 C855 1.351 . S
C855 C849 1.428 . S
C855 N854 1.351 . S
C855 C856 1.434 1_655 S
C856 C847 1.429 . S
C856 N853 1.350 . S
C856 C855 1.434 1_455 S
C857 C858 1.369 . S
C857 C859 1.419 . S
C857 H861 0.930 . S
C858 C857 1.369 . S
C858 C867 1.429 . S
C859 C857 1.419 . S
C859 C860 1.363 . S
C859 H862 0.929 . S
C860 C859 1.363 . S
C860 C866 1.428 . S
H861 C857 0.930 . S
H862 C859 0.929 . S
S863 N864 1.613 . S
S863 N865 1.610 . S
N864 S863 1.613 . S
N864 C867 1.350 . S
N865 S863 1.610 . S
N865 C866 1.351 . S
C866 C860 1.428 . S
C866 N865 1.351 . S
C866 C867 1.434 . S
C867 C858 1.429 . S
C867 N864 1.350 . S
C867 C866 1.434 . S
C868 C869 1.369 1_455 S
C868 C870 1.419 . S
C868 H872 0.930 . S
C869 C868 1.369 1_655 S
C869 C878 1.429 . S
C870 C868 1.419 . S
C870 C871 1.363 . S
C870 H873 0.929 . S
C871 C870 1.363 . S
C871 C877 1.428 . S
H872 C868 0.930 . S
H873 C870 0.929 . S
S874 N875 1.613 . S
S874 N876 1.624 . S
N875 S874 1.613 . S
N875 C878 1.350 . S
N876 S874 1.624 . S
N876 C877 1.349 1_655 S
C877 C871 1.428 . S
C877 N876 1.349 1_455 S
C877 C878 1.434 1_455 S
C878 C869 1.429 . S
C878 N875 1.350 . S
C878 C877 1.434 1_655 S
C879 C880 1.369 . S
C879 C881 1.419 . S
C879 H883 0.930 . S
C880 C879 1.369 . S
C880 C889 1.429 . S
C881 C879 1.419 . S
C881 C882 1.363 . S
C881 H884 0.929 . S
C882 C881 1.363 . S
C882 C888 1.428 . S
H883 C879 0.930 . S
H884 C881 0.929 . S
S885 N886 1.613 . S
S885 N887 1.610 . S
N886 S885 1.613 . S
N886 C889 1.350 . S
N887 S885 1.610 . S
N887 C888 1.351 . S
C888 C882 1.428 . S
C888 N887 1.351 . S
C888 C889 1.434 . S
C889 C880 1.429 . S
C889 N886 1.350 . S
C889 C888 1.434 . S
C890 C891 1.369 . S
C890 C892 1.419 . S
C890 H894 0.930 . S
C891 C890 1.369 . S
C891 C900 1.429 . S
C892 C890 1.419 . S
C892 C893 1.363 1_455 S
C892 H895 0.929 . S
C893 C892 1.363 1_655 S
C893 C899 1.428 . S
H894 C890 0.930 . S
H895 C892 0.929 . S
S896 N897 1.613 1_655 S
S896 N898 1.610 . S
N897 S896 1.613 1_455 S
N897 C900 1.350 . S
N898 S896 1.610 . S
N898 C899 1.351 . S
C899 C893 1.428 . S
C899 N898 1.351 . S
C899 C900 1.434 1_655 S
C900 C891 1.429 . S
C900 N897 1.350 . S
C900 C899 1.434 1_455 S
C901 C902 1.369 . S
C901 C903 1.419 . S
C901 H905 0.930 . S
C902 C901 1.369 . S
C902 C911 1.429 . S
C903 C901 1.419 . S
C903 C904 1.363 . S
C903 H906 0.929 . S
C904 C903 1.363 . S
C904 C910 1.428 . S
H905 C901 0.930 . S
H906 C903 0.929 . S
S907 N908 1.613 . S
S907 N909 1.610 . S
N908 S907 1.613 . S
N908 C911 1.350 . S
N909 S907 1.610 . S
N909 C910 1.351 . S
C910 C904 1.428 . S
C910 N909 1.351 . S
C910 C911 1.434 . S
C911 C902 1.429 . S
C911 N908 1.350 . S
C911 C910 1.434 . S
C912 C913 1.369 . S
C912 C914 1.419 . S
C912 H916 0.930 . S
C913 C912 1.369 . S
C913 C922 1.429 . S
C914 C912 1.419 . S
C914 C915 1.363 . S
C914 H917 0.929 . S
C915 C914 1.363 . S
C915 C921 1.428 . S
H916 C912 0.930 . S
H917 C914 0.929 . S
S918 N919 1.613 . S
S918 N920 1.610 . S
N919 S918 1.613 . S
N919 C922 1.350 . S
N920 S918 1.610 . S
N920 C921 1.351 . S
C921 C915 1.428 . S
C921 N920 1.351 . S
C921 C922 1.434 . S
C922 C913 1.429 . S
C922 N919 1.350 . S
C922 C921 1.434 . S
C923 C924 1.369 . S
C923 C925 1.419 . S
C923 H927 0.930 1_655 S
C924 C923 1.369 . S
C924 C933 1.429 . S
C925 C923 1.419 . S
C925 C926 1.363 . S
C925 H928 0.929 1_655 S
C926 C925 1.363 . S
C926 C932 1.428 . S
H927 C923 0.930 1_455 S
H928 C925 0.929 1_455 S
S929 N930 1.613 . S
S929 N931 1.610 . S
N930 S929 1.613 . S
N930 C933 1.350 . S
N931 S929 1.610 . S
N931 C932 1.351 . S
C932 C926 1.428 . S
C932 N931 1.351 . S
C932 C933 1.434 . S
C933 C924 1.429 . S
C933 N930 1.350 . S
C933 C932 1.434 . S
C934 C935 1.369 . S
C934 C936 1.419 . S
C934 H938 0.930 . S
C935 C934 1.369 . S
C935 C944 1.429 . S
C936 C934 1.419 . S
C936 C937 1.363 . S
C936 H939 0.929 . S
C937 C936 1.363 . S
C937 C943 1.428 . S
H938 C934 0.930 . S
H939 C936 0.929 . S
S940 N941 1.613 . S
S940 N942 1.610 . S
N941 S940 1.613 . S
N941 C944 1.350 . S
N942 S940 1.610 . S
N942 C943 1.351 . S
C943 C937 1.428 . S
C943 N942 1.351 . S
C943 C944 1.434 . S
C944 C935 1.429 . S
C944 N941 1.350 . S
C944 C943 1.434 . S
C945 C946 1.369 . S
C945 C947 1.419 1_556 S
C945 H949 0.930 . S
C946 C945 1.369 . S
C946 C955 1.429 . S
C947 C945 1.419 1_554 S
C947 C948 1.363 . S
C947 H950 0.929 . S
C948 C947 1.363 . S
C948 C954 1.428 . S
H949 C945 0.930 . S
H950 C947 0.929 . S
S951 N952 1.613 . S
S951 N953 1.610 1_556 S
N952 S951 1.613 . S
N952 C955 1.350 . S
N953 S951 1.610 1_554 S
N953 C954 1.351 . S
C954 C948 1.428 . S
C954 N953 1.351 . S
C954 C955 1.434 1_554 S
C955 C946 1.429 . S
C955 N952 1.350 . S
C955 C954 1.434 1_556 S
C956 C957 1.369 . S
C956 C958 1.419 . S
C956 H960 0.930 1_655 S
C957 C956 1.369 . S
C957 C966 1.429 . S
C958 C956 1.419 . S
C958 C959 1.363 . S
C958 H961 0.929 . S
C959 C958 1.363 . S
C959 C965 1.428 . S
H960 C956 0.930 1_455 S
H961 C958 0.929 . S
S962 N963 1.613 . S
S962 N964 1.610 . S
N963 S962 1.613 . S
N963 C966 1.350 . S
N964 S962 1.610 . S
N964 C965 1.351 . S
C965 C959 1.428 . S
C965 N964 1.351 . S
C965 C966 1.434 . S
C966 C957 1.429 . S
C966 N963 1.350 . S
C966 C965 1.434 . S
C967 C968 1.369 . S
C967 C969 1.419 . S
C967 H971 0.930 . S
C968 C967 1.369 . S
C968 C977 1.429 . S
C969 C967 1.419 . S
C969 C970 1.363 . S
C969 H972 0.929 . S
C970 C969 1.363 . S
C970 C976 1.428 . S
H971 C967 0.930 . S
H972 C969 0.929 . S
S973 N974 1.613 . S
S973 N975 1.610 . S
N974 S973 1.613 . S
N974 C977 1.350 . S
N975 S973 1.610 . S
N975 C976 1.351 . S
C976 C970 1.428 . S
C976 N975 1.351 . S
C976 C977 1.434 . S
C977 C968 1.429 . S
C977 N974 1.350 . S
C977 C976 1.434 . S
C978 C979 1.369 . S
C978 C980 1.419 . S
C978 H982 0.930 . S
C979 C978 1.369 . S
C979 C988 1.429 . S
C980 C978 1.419 . S
C980 C981 1.363 . S
C980 H983 0.929 . S
C981 C980 1.363 . S
C981 C987 1.428 . S
H982 C978 0.930 . S
H983 C980 0.929 . S
S984 N985 1.613 . S
S984 N986 1.610 . S
N985 S984 1.613 . S
N985 C988 1.350 . S
N986 S984 1.610 . S
N986 C987 1.351 . S
C987 C981 1.428 . S
C987 N986 1.351 . S
C987 C988 1.434 . S
C988 C979 1.429 . S
C988 N985 1.350 . S
C988 C987 1.434 . S
C989 C990 1.369 . S
C989 C991 1.419 . S
C989 H993 0.930 . S
C990 C989 1.369 . S
C990 C999 1.429 . S
C991 C989 1.419 . S
C991 C992 1.363 1_554 S
C991 H994 0.927 1_554 S
C992 C991 1.363 1_556 S
C992 C998 1.428 . S
H993 C989 0.930 . S
H994 C991 0.927 1_556 S
S995 N996 1.613 1_556 S
S995 N997 1.610 . S
N996 S995 1.613 1_554 S
N996 C999 1.350 . S
N997 S995 1.610 . S
N997 C998 1.351 . S
C998 C992 1.428 . S
C998 N997 1.351 . S
C998 C999 1.434 1_556 S
C999 C990 1.429 . S
C999 N996 1.350 . S
C999 C998 1.434 1_554 S
C1000 C1001 1.369 1_545 S
C1000 C1002 1.419 1_545 S
C1000 H1004 0.930 . S
C1001 C1000 1.369 1_565 S
C1001 C1010 1.429 . S
C1002 C1000 1.419 1_565 S
C1002 C1003 1.363 . S
C1002 H1005 0.929 1_565 S
C1003 C1002 1.363 . S
C1003 C1009 1.428 . S
H1004 C1000 0.930 . S
H1005 C1002 0.929 1_545 S
S1006 N1007 1.613 . S
S1006 N1008 1.610 . S
N1007 S1006 1.613 . S
N1007 C1010 1.350 . S
N1008 S1006 1.610 . S
N1008 C1009 1.351 . S
C1009 C1003 1.428 . S
C1009 N1008 1.351 . S
C1009 C1010 1.434 . S
C1010 C1001 1.429 . S
C1010 N1007 1.350 . S
C1010 C1009 1.434 . S
C1011 C1012 1.369 . S
C1011 C1013 1.419 . S
C1011 H1015 0.930 . S
C1012 C1011 1.369 . S
C1012 C1021 1.429 . S
C1013 C1011 1.419 . S
C1013 C1014 1.363 . S
C1013 H1016 0.929 . S
C1014 C1013 1.363 . S
C1014 C1020 1.428 . S
H1015 C1011 0.930 . S
H1016 C1013 0.929 . S
S1017 N1018 1.613 1_545 S
S1017 N1019 1.610 . S
N1018 S1017 1.613 1_565 S
N1018 C1021 1.350 1_565 S
N1019 S1017 1.610 . S
N1019 C1020 1.351 . S
C1020 C1014 1.428 . S
C1020 N1019 1.351 . S
C1020 C1021 1.434 . S
C1021 C1012 1.429 . S
C1021 N1018 1.350 1_545 S
C1021 C1020 1.434 . S
C1022 C1023 1.369 . S
C1022 C1024 1.419 . S
C1022 H1026 0.930 . S
C1023 C1022 1.369 . S
C1023 C1032 1.429 . S
C1024 C1022 1.419 . S
C1024 C1025 1.363 . S
C1024 H1027 0.929 . S
C1025 C1024 1.363 . S
C1025 C1031 1.428 . S
H1026 C1022 0.930 . S
H1027 C1024 0.929 . S
S1028 N1029 1.613 1_565 S
S1028 N1030 1.610 1_565 S
N1029 S1028 1.613 1_545 S
N1029 C1032 1.350 . S
N1030 S1028 1.610 1_545 S
N1030 C1031 1.351 . S
C1031 C1025 1.428 . S
C1031 N1030 1.351 . S
C1031 C1032 1.434 . S
C1032 C1023 1.429 . S
C1032 N1029 1.350 . S
C1032 C1031 1.434 . S
C1033 C1034 1.369 . S
C1033 C1035 1.419 . S
C1033 H1037 0.930 . S
C1034 C1033 1.369 . S
C1034 C1043 1.429 . S
C1035 C1033 1.419 . S
C1035 C1036 1.363 1_545 S
C1035 H1038 0.929 . S
C1036 C1035 1.363 1_565 S
C1036 C1042 1.428 1_565 S
H1037 C1033 0.930 . S
H1038 C1035 0.929 . S
S1039 N1040 1.613 . S
S1039 N1041 1.610 1_545 S
N1040 S1039 1.613 . S
N1040 C1043 1.350 1_556 S
N1041 S1039 1.610 1_565 S
N1041 C1042 1.351 1_566 S
C1042 C1036 1.428 1_545 S
C1042 N1041 1.351 1_544 S
C1042 C1043 1.434 . S
C1043 C1034 1.429 . S
C1043 N1040 1.350 1_554 S
C1043 C1042 1.434 . S
C1044 C1045 1.369 . S
C1044 C1046 1.419 . S
C1044 H1048 0.930 . S
C1045 C1044 1.369 . S
C1045 C1054 1.429 . S
C1046 C1044 1.419 . S
C1046 C1047 1.363 . S
C1046 H1049 0.929 . S
C1047 C1046 1.363 . S
C1047 C1053 1.428 . S
H1048 C1044 0.930 . S
H1049 C1046 0.929 . S
S1050 N1051 1.613 . S
S1050 N1052 1.610 . S
N1051 S1050 1.613 . S
N1051 C1054 1.350 . S
N1052 S1050 1.610 . S
N1052 C1053 1.351 . S
C1053 C1047 1.428 . S
C1053 N1052 1.351 . S
C1053 C1054 1.434 . S
C1054 C1045 1.429 . S
C1054 N1051 1.350 . S
C1054 C1053 1.434 . S
C1055 C1056 1.369 1_545 S
C1055 C1057 1.419 . S
C1055 H1059 0.929 . S
C1056 C1055 1.369 1_565 S
C1056 C1065 1.429 1_565 S
C1057 C1055 1.419 . S
C1057 C1058 1.363 . S
C1057 H1060 0.929 . S
C1058 C1057 1.363 . S
C1058 C1064 1.428 . S
H1059 C1055 0.929 . S
H1060 C1057 0.929 . S
S1061 N1062 1.613 1_545 S
S1061 N1063 1.610 . S
N1062 S1061 1.613 1_565 S
N1062 C1065 1.350 1_565 S
N1063 S1061 1.610 . S
N1063 C1064 1.351 . S
C1064 C1058 1.428 . S
C1064 N1063 1.351 . S
C1064 C1065 1.434 . S
C1065 C1056 1.429 1_545 S
C1065 N1062 1.350 1_545 S
C1065 C1064 1.434 . S
C1066 C1067 1.369 . S
C1066 C1068 1.419 . S
C1066 H1070 0.930 . S
C1067 C1066 1.369 . S
C1067 C1076 1.429 . S
C1068 C1066 1.419 . S
C1068 C1069 1.363 . S
C1068 H1071 0.929 . S
C1069 C1068 1.363 . S
C1069 C1075 1.428 . S
H1070 C1066 0.930 . S
H1071 C1068 0.929 . S
S1072 N1073 1.613 . S
S1072 N1074 1.610 . S
N1073 S1072 1.613 . S
N1073 C1076 1.350 . S
N1074 S1072 1.610 . S
N1074 C1075 1.351 . S
C1075 C1069 1.428 . S
C1075 N1074 1.351 . S
C1075 C1076 1.434 . S
C1076 C1067 1.429 . S
C1076 N1073 1.350 . S
C1076 C1075 1.434 . S
C1077 C1078 1.369 . S
C1077 C1079 1.419 . S
C1077 H1081 0.930 . S
C1078 C1077 1.369 . S
C1078 C1087 1.429 . S
C1079 C1077 1.419 . S
C1079 C1080 1.363 . S
C1079 H1082 0.929 . S
C1080 C1079 1.363 . S
C1080 C1086 1.428 . S
H1081 C1077 0.930 . S
H1082 C1079 0.929 . S
S1083 N1084 1.613 . S
S1083 N1085 1.610 1_545 S
N1084 S1083 1.613 . S
N1084 C1087 1.350 . S
N1085 S1083 1.610 1_565 S
N1085 C1086 1.351 1_565 S
C1086 C1080 1.428 . S
C1086 N1085 1.351 1_545 S
C1086 C1087 1.434 . S
C1087 C1078 1.429 . S
C1087 N1084 1.350 . S
C1087 C1086 1.434 . S
C1088 C1089 1.369 . S
C1088 C1090 1.419 . S
C1088 H1092 0.930 . S
C1089 C1088 1.369 . S
C1089 C1098 1.429 . S
C1090 C1088 1.419 . S
C1090 C1091 1.363 . S
C1090 H1093 0.929 . S
C1091 C1090 1.363 . S
C1091 C1097 1.428 . S
H1092 C1088 0.930 . S
H1093 C1090 0.929 . S
S1094 N1095 1.613 . S
S1094 N1096 1.610 . S
N1095 S1094 1.613 . S
N1095 C1098 1.350 . S
N1096 S1094 1.610 . S
N1096 C1097 1.351 . S
C1097 C1091 1.428 . S
C1097 N1096 1.351 . S
C1097 C1098 1.434 . S
C1098 C1089 1.429 . S
C1098 N1095 1.350 . S
C1098 C1097 1.434 . S
C1099 C1100 1.369 . S
C1099 C1101 1.419 . S
C1099 H1103 0.930 . S
C1100 C1099 1.369 . S
C1100 C1109 1.429 . S
C1101 C1099 1.419 . S
C1101 C1102 1.363 . S
C1101 H1104 0.929 . S
C1102 C1101 1.363 . S
C1102 C1108 1.428 . S
H1103 C1099 0.930 . S
H1104 C1101 0.929 . S
S1105 N1106 1.613 . S
S1105 N1107 1.610 . S
N1106 S1105 1.613 . S
N1106 C1109 1.350 . S
N1107 S1105 1.610 . S
N1107 C1108 1.351 . S
C1108 C1102 1.428 . S
C1108 N1107 1.351 . S
C1108 C1109 1.434 . S
C1109 C1100 1.429 . S
C1109 N1106 1.350 . S
C1109 C1108 1.434 . S
C1110 C1111 1.369 . S
C1110 C1112 1.419 1_655 S
C1110 H1114 0.930 . S
C1111 C1110 1.369 . S
C1111 C1120 1.429 . S
C1112 C1110 1.419 1_455 S
C1112 C1113 1.363 . S
C1112 H1115 0.929 . S
C1113 C1112 1.363 . S
C1113 C1119 1.428 . S
H1114 C1110 0.930 . S
H1115 C1112 0.929 . S
S1116 N1117 1.613 . S
S1116 N1118 1.610 1_655 S
N1117 S1116 1.613 . S
N1117 C1120 1.350 . S
N1118 S1116 1.610 1_455 S
N1118 C1119 1.351 . S
C1119 C1113 1.428 . S
C1119 N1118 1.351 . S
C1119 C1120 1.434 1_455 S
C1120 C1111 1.429 . S
C1120 N1117 1.350 . S
C1120 C1119 1.434 1_655 S
C1121 C1122 1.369 . S
C1121 C1123 1.419 . S
C1121 H1125 0.930 . S
C1122 C1121 1.369 . S
C1122 C1131 1.429 . S
C1123 C1121 1.419 . S
C1123 C1124 1.363 . S
C1123 H1126 0.929 . S
C1124 C1123 1.363 . S
C1124 C1130 1.428 . S
H1125 C1121 0.930 . S
H1126 C1123 0.929 . S
S1127 N1128 1.613 . S
S1127 N1129 1.610 . S
N1128 S1127 1.613 . S
N1128 C1131 1.350 . S
N1129 S1127 1.610 . S
N1129 C1130 1.351 . S
C1130 C1124 1.428 . S
C1130 N1129 1.351 . S
C1130 C1131 1.434 . S
C1131 C1122 1.429 . S
C1131 N1128 1.350 . S
C1131 C1130 1.434 . S
C1132 C1133 1.357 1_565 S
C1132 C1134 1.423 1_455 S
C1132 H1136 0.939 . S
C1133 C1132 1.357 1_545 S
C1133 C1142 1.429 . S
C1134 C1132 1.423 1_655 S
C1134 C1135 1.363 1_565 S
C1134 H1137 0.929 . S
C1135 C1134 1.363 1_545 S
C1135 C1141 1.428 . S
H1136 C1132 0.939 . S
H1137 C1134 0.929 . S
S1138 N1139 1.613 . S
S1138 N1140 1.610 1_455 S
N1139 S1138 1.613 . S
N1139 C1142 1.350 . S
N1140 S1138 1.610 1_655 S
N1140 C1141 1.351 . S
C1141 C1135 1.428 . S
C1141 N1140 1.351 . S
C1141 C1142 1.434 1_655 S
C1142 C1133 1.429 . S
C1142 N1139 1.350 . S
C1142 C1141 1.434 1_455 S
C1143 C1144 1.369 . S
C1143 C1145 1.419 . S
C1143 H1147 0.930 . S
C1144 C1143 1.369 . S
C1144 C1153 1.429 . S
C1145 C1143 1.419 . S
C1145 C1146 1.363 . S
C1145 H1148 0.929 . S
C1146 C1145 1.363 . S
C1146 C1152 1.428 . S
H1147 C1143 0.930 . S
H1148 C1145 0.929 . S
S1149 N1150 1.613 . S
S1149 N1151 1.610 . S
N1150 S1149 1.613 . S
N1150 C1153 1.350 . S
N1151 S1149 1.610 . S
N1151 C1152 1.351 . S
C1152 C1146 1.428 . S
C1152 N1151 1.351 . S
C1152 C1153 1.434 . S
C1153 C1144 1.429 . S
C1153 N1150 1.350 . S
C1153 C1152 1.434 . S
C1154 C1155 1.369 . S
C1154 C1156 1.419 1_655 S
C1154 H1158 0.930 . S
C1155 C1154 1.369 . S
C1155 C1164 1.429 . S
C1156 C1154 1.419 1_455 S
C1156 C1157 1.363 . S
C1156 H1159 0.929 . S
C1157 C1156 1.363 . S
C1157 C1163 1.428 . S
H1158 C1154 0.930 . S
H1159 C1156 0.929 . S
S1160 N1161 1.613 . S
S1160 N1162 1.610 1_655 S
N1161 S1160 1.613 . S
N1161 C1164 1.350 . S
N1162 S1160 1.610 1_455 S
N1162 C1163 1.351 . S
C1163 C1157 1.428 . S
C1163 N1162 1.351 . S
C1163 C1164 1.434 1_455 S
C1164 C1155 1.429 . S
C1164 N1161 1.350 . S
C1164 C1163 1.434 1_655 S
C1165 C1166 1.369 . S
C1165 C1167 1.419 . S
C1165 H1169 0.930 . S
C1166 C1165 1.369 . S
C1166 C1175 1.429 . S
C1167 C1165 1.419 . S
C1167 C1168 1.363 . S
C1167 H1170 0.929 . S
C1168 C1167 1.363 . S
C1168 C1174 1.428 . S
H1169 C1165 0.930 . S
H1170 C1167 0.929 . S
S1171 N1172 1.613 . S
S1171 N1173 1.610 . S
N1172 S1171 1.613 . S
N1172 C1175 1.350 . S
N1173 S1171 1.610 . S
N1173 C1174 1.351 . S
C1174 C1168 1.428 . S
C1174 N1173 1.351 . S
C1174 C1175 1.434 . S
C1175 C1166 1.429 . S
C1175 N1172 1.350 . S
C1175 C1174 1.434 . S
C1176 C1177 1.369 . S
C1176 C1178 1.419 . S
C1176 H1180 0.930 . S
C1177 C1176 1.369 . S
C1177 C1186 1.429 . S
C1178 C1176 1.419 . S
C1178 C1179 1.363 . S
C1178 H1181 0.929 . S
C1179 C1178 1.363 . S
C1179 C1185 1.428 . S
H1180 C1176 0.930 . S
H1181 C1178 0.929 . S
S1182 N1183 1.613 . S
S1182 N1184 1.610 . S
N1183 S1182 1.613 . S
N1183 C1186 1.350 . S
N1184 S1182 1.610 . S
N1184 C1185 1.351 . S
C1185 C1179 1.428 . S
C1185 N1184 1.351 . S
C1185 C1186 1.434 . S
C1186 C1177 1.429 . S
C1186 N1183 1.350 . S
C1186 C1185 1.434 . S
C1187 C1188 1.369 . S
C1187 C1189 1.419 . S
C1187 H1191 0.930 . S
C1188 C1187 1.369 . S
C1188 C1197 1.429 . S
C1189 C1187 1.419 . S
C1189 C1190 1.363 1_554 S
C1189 H1192 0.929 . S
C1190 C1189 1.363 1_556 S
C1190 C1196 1.428 . S
H1191 C1187 0.930 . S
H1192 C1189 0.929 . S
S1193 N1194 1.613 . S
S1193 N1195 1.610 1_554 S
N1194 S1193 1.613 . S
N1194 C1197 1.350 . S
N1195 S1193 1.610 1_556 S
N1195 C1196 1.350 . S
C1196 C1190 1.428 . S
C1196 N1195 1.350 . S
C1196 C1197 1.435 1_556 S
C1197 C1188 1.429 . S
C1197 N1194 1.350 . S
C1197 C1196 1.435 1_554 S
C1198 C1199 1.369 . S
C1198 C1200 1.419 . S
C1198 H1202 0.930 . S
C1199 C1198 1.369 . S
C1199 C1208 1.429 . S
C1200 C1198 1.419 . S
C1200 C1201 1.363 . S
C1200 H1203 0.929 . S
C1201 C1200 1.363 . S
C1201 C1207 1.428 . S
H1202 C1198 0.930 . S
H1203 C1200 0.929 . S
S1204 N1205 1.613 . S
S1204 N1206 1.610 1_455 S
N1205 S1204 1.613 . S
N1205 C1208 1.350 1_455 S
N1206 S1204 1.610 1_655 S
N1206 C1207 1.351 . S
C1207 C1201 1.428 . S
C1207 N1206 1.351 . S
C1207 C1208 1.434 . S
C1208 C1199 1.429 . S
C1208 N1205 1.350 1_655 S
C1208 C1207 1.434 . S
C1209 C1210 1.369 . S
C1209 C1211 1.419 . S
C1209 H1213 0.930 . S
C1210 C1209 1.369 . S
C1210 C1219 1.429 . S
C1211 C1209 1.419 . S
C1211 C1212 1.363 . S
C1211 H1214 0.929 . S
C1212 C1211 1.363 . S
C1212 C1218 1.428 . S
H1213 C1209 0.930 . S
H1214 C1211 0.929 . S
S1215 N1216 1.613 1_455 S
S1215 N1217 1.610 1_455 S
N1216 S1215 1.613 1_655 S
N1216 C1219 1.350 . S
N1217 S1215 1.610 1_655 S
N1217 C1218 1.351 . S
C1218 C1212 1.428 . S
C1218 N1217 1.351 . S
C1218 C1219 1.434 . S
C1219 C1210 1.429 . S
C1219 N1216 1.350 . S
C1219 C1218 1.434 . S
C1220 C1221 1.369 . S
C1220 C1222 1.419 . S
C1220 H1224 0.930 . S
C1221 C1220 1.369 . S
C1221 C1230 1.429 . S
C1222 C1220 1.419 . S
C1222 C1223 1.363 . S
C1222 H1225 0.929 . S
C1223 C1222 1.363 . S
C1223 C1229 1.428 . S
H1224 C1220 0.930 . S
H1225 C1222 0.929 . S
S1226 N1227 1.613 . S
S1226 N1228 1.610 . S
N1227 S1226 1.613 . S
N1227 C1230 1.350 . S
N1228 S1226 1.610 . S
N1228 C1229 1.351 . S
C1229 C1223 1.428 . S
C1229 N1228 1.351 . S
C1229 C1230 1.434 . S
C1230 C1221 1.429 . S
C1230 N1227 1.350 . S
C1230 C1229 1.434 . S
C1231 C1232 1.369 1_554 S
C1231 C1233 1.419 . S
C1231 H1235 0.930 1_655 S
C1232 C1231 1.369 1_556 S
C1232 C1241 1.429 . S
C1233 C1231 1.419 . S
C1233 C1234 1.363 . S
C1233 H1236 0.929 1_655 S
C1234 C1233 1.363 . S
C1234 C1240 1.428 . S
H1235 C1231 0.930 1_455 S
H1236 C1233 0.929 1_455 S
S1237 N1238 1.613 . S
S1237 N1239 1.610 1_556 S
N1238 S1237 1.613 . S
N1238 C1241 1.350 . S
N1239 S1237 1.610 1_554 S
N1239 C1240 1.351 . S
C1240 C1234 1.428 . S
C1240 N1239 1.351 . S
C1240 C1241 1.434 1_554 S
C1241 C1232 1.429 . S
C1241 N1238 1.350 . S
C1241 C1240 1.434 1_556 S
C1242 C1243 1.369 . S
C1242 C1244 1.419 . S
C1242 H1246 0.930 . S
C1243 C1242 1.369 . S
C1243 C1252 1.429 . S
C1244 C1242 1.419 . S
C1244 C1245 1.363 . S
C1244 H1247 0.929 . S
C1245 C1244 1.363 . S
C1245 C1251 1.428 . S
H1246 C1242 0.930 . S
H1247 C1244 0.929 . S
S1248 N1249 1.617 . S
S1248 N1250 1.626 . S
N1249 S1248 1.617 . S
N1249 C1252 1.350 . S
N1250 S1248 1.626 . S
N1250 C1251 1.351 . S
C1251 C1245 1.428 . S
C1251 N1250 1.351 . S
C1251 C1252 1.434 . S
C1252 C1243 1.429 . S
C1252 N1249 1.350 . S
C1252 C1251 1.434 . S
C1253 C1254 1.369 . S
C1253 C1255 1.419 . S
C1253 H1257 0.930 . S
C1254 C1253 1.369 . S
C1254 C1263 1.429 . S
C1255 C1253 1.419 . S
C1255 C1256 1.363 . S
C1255 H1258 0.929 . S
C1256 C1255 1.363 . S
C1256 C1262 1.428 . S
H1257 C1253 0.930 . S
H1258 C1255 0.929 . S
S1259 N1260 1.613 . S
S1259 N1261 1.610 . S
N1260 S1259 1.613 . S
N1260 C1263 1.350 . S
N1261 S1259 1.610 . S
N1261 C1262 1.351 . S
C1262 C1256 1.428 . S
C1262 N1261 1.351 . S
C1262 C1263 1.434 . S
C1263 C1254 1.429 . S
C1263 N1260 1.350 . S
C1263 C1262 1.434 . S
C1264 C1265 1.369 . S
C1264 C1266 1.419 . S
C1264 H1268 0.930 . S
C1265 C1264 1.369 . S
C1265 C1274 1.429 . S
C1266 C1264 1.419 . S
C1266 C1267 1.363 . S
C1266 H1269 0.929 . S
C1267 C1266 1.363 . S
C1267 C1273 1.428 . S
H1268 C1264 0.930 . S
H1269 C1266 0.929 . S
S1270 N1271 1.613 . S
S1270 N1272 1.610 . S
N1271 S1270 1.613 . S
N1271 C1274 1.350 . S
N1272 S1270 1.610 . S
N1272 C1273 1.351 . S
C1273 C1267 1.428 . S
C1273 N1272 1.351 . S
C1273 C1274 1.434 . S
C1274 C1265 1.429 . S
C1274 N1271 1.350 . S
C1274 C1273 1.434 . S
C1275 C1276 1.369 . S
C1275 C1277 1.419 . S
C1275 H1279 0.930 . S
C1276 C1275 1.369 . S
C1276 C1285 1.429 . S
C1277 C1275 1.419 . S
C1277 C1278 1.363 . S
C1277 H1280 0.929 . S
C1278 C1277 1.363 . S
C1278 C1284 1.428 . S
H1279 C1275 0.930 . S
H1280 C1277 0.929 . S
S1281 N1282 1.613 . S
S1281 N1283 1.610 . S
N1282 S1281 1.613 . S
N1282 C1285 1.350 1_554 S
N1283 S1281 1.610 . S
N1283 C1284 1.351 1_554 S
C1284 C1278 1.428 . S
C1284 N1283 1.351 1_556 S
C1284 C1285 1.434 . S
C1285 C1276 1.429 . S
C1285 N1282 1.350 1_556 S
C1285 C1284 1.434 . S
C1286 C1287 1.369 . S
C1286 C1288 1.419 . S
C1286 H1290 0.930 . S
C1287 C1286 1.369 . S
C1287 C1296 1.429 . S
C1288 C1286 1.419 . S
C1288 C1289 1.363 . S
C1288 H1291 0.929 . S
C1289 C1288 1.363 . S
C1289 C1295 1.428 . S
H1290 C1286 0.930 . S
H1291 C1288 0.929 . S
S1292 N1293 1.613 . S
S1292 N1294 1.610 . S
N1293 S1292 1.613 . S
N1293 C1296 1.350 . S
N1294 S1292 1.610 . S
N1294 C1295 1.351 . S
C1295 C1289 1.428 . S
C1295 N1294 1.351 . S
C1295 C1296 1.434 . S
C1296 C1287 1.429 . S
C1296 N1293 1.350 . S
C1296 C1295 1.434 . S
C1297 C1298 1.369 . S
C1297 C1299 1.419 . S
C1297 H1301 0.930 . S
C1298 C1297 1.369 . S
C1298 C1307 1.429 . S
C1299 C1297 1.419 . S
C1299 C1300 1.363 . S
C1299 H1302 0.929 . S
C1300 C1299 1.363 . S
C1300 C1306 1.428 . S
H1301 C1297 0.930 . S
H1302 C1299 0.929 . S
S1303 N1304 1.613 . S
S1303 N1305 1.610 . S
N1304 S1303 1.613 . S
N1304 C1307 1.350 . S
N1305 S1303 1.610 . S
N1305 C1306 1.351 . S
C1306 C1300 1.428 . S
C1306 N1305 1.351 . S
C1306 C1307 1.434 . S
C1307 C1298 1.429 . S
C1307 N1304 1.350 . S
C1307 C1306 1.434 . S
C1308 C1309 1.369 . S
C1308 C1310 1.419 . S
C1308 H1312 0.930 . S
C1309 C1308 1.369 . S
C1309 C1318 1.429 . S
C1310 C1308 1.419 . S
C1310 C1311 1.363 . S
C1310 H1313 0.929 . S
C1311 C1310 1.363 . S
C1311 C1317 1.428 . S
H1312 C1308 0.930 . S
H1313 C1310 0.929 . S
S1314 N1315 1.613 . S
S1314 N1316 1.610 . S
N1315 S1314 1.613 . S
N1315 C1318 1.350 . S
N1316 S1314 1.610 . S
N1316 C1317 1.351 . S
C1317 C1311 1.428 . S
C1317 N1316 1.351 . S
C1317 C1318 1.434 . S
C1318 C1309 1.429 . S
C1318 N1315 1.350 . S
C1318 C1317 1.434 . S
C1319 C1320 1.369 . S
C1319 C1321 1.419 . S
C1319 H1323 0.930 . S
C1320 C1319 1.369 . S
C1320 C1329 1.429 . S
C1321 C1319 1.419 . S
C1321 C1322 1.363 . S
C1321 H1324 0.929 . S
C1322 C1321 1.363 . S
C1322 C1328 1.428 . S
H1323 C1319 0.930 . S
H1324 C1321 0.929 . S
S1325 N1326 1.613 . S
S1325 N1327 1.610 . S
N1326 S1325 1.613 . S
N1326 C1329 1.350 . S
N1327 S1325 1.610 . S
N1327 C1328 1.351 . S
C1328 C1322 1.428 . S
C1328 N1327 1.351 . S
C1328 C1329 1.434 . S
C1329 C1320 1.429 . S
C1329 N1326 1.350 . S
C1329 C1328 1.434 . S
C1330 C1331 1.369 . S
C1330 C1332 1.419 . S
C1330 H1334 0.930 . S
C1331 C1330 1.369 . S
C1331 C1340 1.429 . S
C1332 C1330 1.419 . S
C1332 C1333 1.363 . S
C1332 H1335 0.929 . S
C1333 C1332 1.363 . S
C1333 C1339 1.428 . S
H1334 C1330 0.930 . S
H1335 C1332 0.929 . S
S1336 N1337 1.613 . S
S1336 N1338 1.610 . S
N1337 S1336 1.613 . S
N1337 C1340 1.350 . S
N1338 S1336 1.610 . S
N1338 C1339 1.351 . S
C1339 C1333 1.428 . S
C1339 N1338 1.351 . S
C1339 C1340 1.434 . S
C1340 C1331 1.429 . S
C1340 N1337 1.350 . S
C1340 C1339 1.434 . S
C1341 C1342 1.369 . S
C1341 C1343 1.419 . S
C1341 H1345 0.930 . S
C1342 C1341 1.369 . S
C1342 C1351 1.429 . S
C1343 C1341 1.419 . S
C1343 C1344 1.363 . S
C1343 H1346 0.929 . S
C1344 C1343 1.363 . S
C1344 C1350 1.428 . S
H1345 C1341 0.930 . S
H1346 C1343 0.929 . S
S1347 N1348 1.613 . S
S1347 N1349 1.610 . S
N1348 S1347 1.613 . S
N1348 C1351 1.350 . S
N1349 S1347 1.610 . S
N1349 C1350 1.351 . S
C1350 C1344 1.428 . S
C1350 N1349 1.351 . S
C1350 C1351 1.434 . S
C1351 C1342 1.429 . S
C1351 N1348 1.350 . S
C1351 C1350 1.434 . S
C1352 C1353 1.369 . S
C1352 C1354 1.419 . S
C1352 H1356 0.930 . S
C1353 C1352 1.369 . S
C1353 C1362 1.429 . S
C1354 C1352 1.419 . S
C1354 C1355 1.363 . S
C1354 H1357 0.929 . S
C1355 C1354 1.363 . S
C1355 C1361 1.428 . S
H1356 C1352 0.930 . S
H1357 C1354 0.929 . S
S1358 N1359 1.613 . S
S1358 N1360 1.610 . S
N1359 S1358 1.613 . S
N1359 C1362 1.350 . S
N1360 S1358 1.610 . S
N1360 C1361 1.351 . S
C1361 C1355 1.428 . S
C1361 N1360 1.351 . S
C1361 C1362 1.434 . S
C1362 C1353 1.429 . S
C1362 N1359 1.350 . S
C1362 C1361 1.434 . S
C1363 C1364 1.369 . S
C1363 C1365 1.419 . S
C1363 H1367 0.930 . S
C1364 C1363 1.369 . S
C1364 C1373 1.429 . S
C1365 C1363 1.419 . S
C1365 C1366 1.363 . S
C1365 H1368 0.929 . S
C1366 C1365 1.363 . S
C1366 C1372 1.428 . S
H1367 C1363 0.930 . S
H1368 C1365 0.929 . S
S1369 N1370 1.613 . S
S1369 N1371 1.610 . S
N1370 S1369 1.613 . S
N1370 C1373 1.350 . S
N1371 S1369 1.610 . S
N1371 C1372 1.351 . S
C1372 C1366 1.428 . S
C1372 N1371 1.351 . S
C1372 C1373 1.434 . S
C1373 C1364 1.429 . S
C1373 N1370 1.350 . S
C1373 C1372 1.434 . S
C1374 C1375 1.369 . S
C1374 C1376 1.419 . S
C1374 H1378 0.930 . S
C1375 C1374 1.369 . S
C1375 C1384 1.429 . S
C1376 C1374 1.419 . S
C1376 C1377 1.363 . S
C1376 H1379 0.929 . S
C1377 C1376 1.363 . S
C1377 C1383 1.428 . S
H1378 C1374 0.930 . S
H1379 C1376 0.929 . S
S1380 N1381 1.613 . S
S1380 N1382 1.610 . S
N1381 S1380 1.613 . S
N1381 C1384 1.353 . S
N1382 S1380 1.610 . S
N1382 C1383 1.351 . S
C1383 C1377 1.428 . S
C1383 N1382 1.351 . S
C1383 C1384 1.434 . S
C1384 C1375 1.429 . S
C1384 N1381 1.353 . S
C1384 C1383 1.434 . S
C1385 C1386 1.369 . S
C1385 C1387 1.419 . S
C1385 H1389 0.930 . S
C1386 C1385 1.369 . S
C1386 C1395 1.429 . S
C1387 C1385 1.419 . S
C1387 C1388 1.363 . S
C1387 H1390 0.929 . S
C1388 C1387 1.363 . S
C1388 C1394 1.428 . S
H1389 C1385 0.930 . S
H1390 C1387 0.929 . S
S1391 N1392 1.613 . S
S1391 N1393 1.610 . S
N1392 S1391 1.613 . S
N1392 C1395 1.350 . S
N1393 S1391 1.610 . S
N1393 C1394 1.351 . S
C1394 C1388 1.428 . S
C1394 N1393 1.351 . S
C1394 C1395 1.434 . S
C1395 C1386 1.429 . S
C1395 N1392 1.350 . S
C1395 C1394 1.434 . S
C1396 C1397 1.369 . S
C1396 C1398 1.419 . S
C1396 H1400 0.930 . S
C1397 C1396 1.369 . S
C1397 C1406 1.429 . S
C1398 C1396 1.419 . S
C1398 C1399 1.363 . S
C1398 H1401 0.929 . S
C1399 C1398 1.363 . S
C1399 C1405 1.428 . S
H1400 C1396 0.930 . S
H1401 C1398 0.929 . S
S1402 N1403 1.613 . S
S1402 N1404 1.610 . S
N1403 S1402 1.613 . S
N1403 C1406 1.350 . S
N1404 S1402 1.610 . S
N1404 C1405 1.351 . S
C1405 C1399 1.428 . S
C1405 N1404 1.351 . S
C1405 C1406 1.434 . S
C1406 C1397 1.429 . S
C1406 N1403 1.350 . S
C1406 C1405 1.434 . S
C1407 C1408 1.369 . S
C1407 C1409 1.419 . S
C1407 H1411 0.930 . S
C1408 C1407 1.369 . S
C1408 C1417 1.429 . S
C1409 C1407 1.419 . S
C1409 C1410 1.363 . S
C1409 H1412 0.929 . S
C1410 C1409 1.363 . S
C1410 C1416 1.428 . S
H1411 C1407 0.930 . S
H1412 C1409 0.929 . S
S1413 N1414 1.613 . S
S1413 N1415 1.610 . S
N1414 S1413 1.613 . S
N1414 C1417 1.350 . S
N1415 S1413 1.610 . S
N1415 C1416 1.351 . S
C1416 C1410 1.428 . S
C1416 N1415 1.351 . S
C1416 C1417 1.434 . S
C1417 C1408 1.429 . S
C1417 N1414 1.350 . S
C1417 C1416 1.434 . S
C1418 C1419 1.369 . S
C1418 C1420 1.419 . S
C1418 H1422 0.930 . S
C1419 C1418 1.369 . S
C1419 C1428 1.429 . S
C1420 C1418 1.419 . S
C1420 C1421 1.363 . S
C1420 H1423 0.929 . S
C1421 C1420 1.363 . S
C1421 C1427 1.428 . S
H1422 C1418 0.930 . S
H1423 C1420 0.929 . S
S1424 N1425 1.613 . S
S1424 N1426 1.610 . S
N1425 S1424 1.613 . S
N1425 C1428 1.350 . S
N1426 S1424 1.610 . S
N1426 C1427 1.351 . S
C1427 C1421 1.428 . S
C1427 N1426 1.351 . S
C1427 C1428 1.434 . S
C1428 C1419 1.429 . S
C1428 N1425 1.350 . S
C1428 C1427 1.434 . S
C1429 C1430 1.369 . S
C1429 C1431 1.419 1_655 S
C1429 H1433 0.930 . S
C1430 C1429 1.369 . S
C1430 C1439 1.429 . S
C1431 C1429 1.419 1_455 S
C1431 C1432 1.363 . S
C1431 H1434 0.929 . S
C1432 C1431 1.363 . S
C1432 C1438 1.428 . S
H1433 C1429 0.930 . S
H1434 C1431 0.929 . S
S1435 N1436 1.613 1_545 S
S1435 N1437 1.610 1_645 S
N1436 S1435 1.613 1_565 S
N1436 C1439 1.350 . S
N1437 S1435 1.610 1_465 S
N1437 C1438 1.351 . S
C1438 C1432 1.428 . S
C1438 N1437 1.351 . S
C1438 C1439 1.434 1_455 S
C1439 C1430 1.429 . S
C1439 N1436 1.350 . S
C1439 C1438 1.434 1_655 S
C1440 C1441 1.369 . S
C1440 C1442 1.419 . S
C1440 H1444 0.930 . S
C1441 C1440 1.369 . S
C1441 C1450 1.429 . S
C1442 C1440 1.419 . S
C1442 C1443 1.363 . S
C1442 H1445 0.929 . S
C1443 C1442 1.363 . S
C1443 C1449 1.428 . S
H1444 C1440 0.930 . S
H1445 C1442 0.929 . S
S1446 N1447 1.613 . S
S1446 N1448 1.610 . S
N1447 S1446 1.613 . S
N1447 C1450 1.350 . S
N1448 S1446 1.610 . S
N1448 C1449 1.351 . S
C1449 C1443 1.428 . S
C1449 N1448 1.351 . S
C1449 C1450 1.434 . S
C1450 C1441 1.429 . S
C1450 N1447 1.350 . S
C1450 C1449 1.434 . S
C1451 C1452 1.369 . S
C1451 C1453 1.419 1_556 S
C1451 H1455 0.930 . S
C1452 C1451 1.369 . S
C1452 C1461 1.429 . S
C1453 C1451 1.419 1_554 S
C1453 C1454 1.363 . S
C1453 H1456 0.929 . S
C1454 C1453 1.363 . S
C1454 C1460 1.428 . S
H1455 C1451 0.930 . S
H1456 C1453 0.929 . S
S1457 N1458 1.613 1_554 S
S1457 N1459 1.610 . S
N1458 S1457 1.613 1_556 S
N1458 C1461 1.350 . S
N1459 S1457 1.610 . S
N1459 C1460 1.351 . S
C1460 C1454 1.428 . S
C1460 N1459 1.351 . S
C1460 C1461 1.434 1_554 S
C1461 C1452 1.429 . S
C1461 N1458 1.350 . S
C1461 C1460 1.434 1_556 S
C1462 C1463 1.369 . S
C1462 C1464 1.419 . S
C1462 H1466 0.930 . S
C1463 C1462 1.369 . S
C1463 C1472 1.429 . S
C1464 C1462 1.419 . S
C1464 C1465 1.363 . S
C1464 H1467 0.929 . S
C1465 C1464 1.363 . S
C1465 C1471 1.428 . S
H1466 C1462 0.930 . S
H1467 C1464 0.929 . S
S1468 N1469 1.613 . S
S1468 N1470 1.610 . S
N1469 S1468 1.613 . S
N1469 C1472 1.350 . S
N1470 S1468 1.610 . S
N1470 C1471 1.351 . S
C1471 C1465 1.428 . S
C1471 N1470 1.351 . S
C1471 C1472 1.434 . S
C1472 C1463 1.429 . S
C1472 N1469 1.350 . S
C1472 C1471 1.434 . S
C1473 C1474 1.369 . S
C1473 C1475 1.419 . S
C1473 H1477 0.930 . S
C1474 C1473 1.369 . S
C1474 C1483 1.429 . S
C1475 C1473 1.419 . S
C1475 C1476 1.363 . S
C1475 H1478 0.929 . S
C1476 C1475 1.363 . S
C1476 C1482 1.428 . S
H1477 C1473 0.930 . S
H1478 C1475 0.929 . S
S1479 N1480 1.613 . S
S1479 N1481 1.610 . S
N1480 S1479 1.613 . S
N1480 C1483 1.350 . S
N1481 S1479 1.610 . S
N1481 C1482 1.351 . S
C1482 C1476 1.428 . S
C1482 N1481 1.351 . S
C1482 C1483 1.434 . S
C1483 C1474 1.429 . S
C1483 N1480 1.350 . S
C1483 C1482 1.434 . S
C1484 C1485 1.369 . S
C1484 C1486 1.419 . S
C1484 H1488 0.930 . S
C1485 C1484 1.369 . S
C1485 C1494 1.429 . S
C1486 C1484 1.419 . S
C1486 C1487 1.363 . S
C1486 H1489 0.929 . S
C1487 C1486 1.363 . S
C1487 C1493 1.428 . S
H1488 C1484 0.930 . S
H1489 C1486 0.929 . S
S1490 N1491 1.613 . S
S1490 N1492 1.610 . S
N1491 S1490 1.613 . S
N1491 C1494 1.350 . S
N1492 S1490 1.610 . S
N1492 C1493 1.351 . S
C1493 C1487 1.428 . S
C1493 N1492 1.351 . S
C1493 C1494 1.434 . S
C1494 C1485 1.429 . S
C1494 N1491 1.350 . S
C1494 C1493 1.434 . S
C1495 C1496 1.369 . S
C1495 C1497 1.419 1_554 S
C1495 H1499 0.930 . S
C1496 C1495 1.369 . S
C1496 C1505 1.429 . S
C1497 C1495 1.419 1_556 S
C1497 C1498 1.363 . S
C1497 H1500 0.929 . S
C1498 C1497 1.363 . S
C1498 C1504 1.428 . S
H1499 C1495 0.930 . S
H1500 C1497 0.929 . S
S1501 N1502 1.632 . S
S1501 N1503 1.595 1_554 S
N1502 S1501 1.632 . S
N1502 C1505 1.350 . S
N1503 S1501 1.595 1_556 S
N1503 C1504 1.351 . S
C1504 C1498 1.428 . S
C1504 N1503 1.351 . S
C1504 C1505 1.434 1_556 S
C1505 C1496 1.429 . S
C1505 N1502 1.350 . S
C1505 C1504 1.434 1_554 S
C1506 C1507 1.369 . S
C1506 C1508 1.419 . S
C1506 H1510 0.930 . S
C1507 C1506 1.369 . S
C1507 C1516 1.429 . S
C1508 C1506 1.419 . S
C1508 C1509 1.363 . S
C1508 H1511 0.929 . S
C1509 C1508 1.363 . S
C1509 C1515 1.428 . S
H1510 C1506 0.930 . S
H1511 C1508 0.929 . S
S1512 N1513 1.613 . S
S1512 N1514 1.610 . S
N1513 S1512 1.613 . S
N1513 C1516 1.350 . S
N1514 S1512 1.610 . S
N1514 C1515 1.351 . S
C1515 C1509 1.428 . S
C1515 N1514 1.351 . S
C1515 C1516 1.434 . S
C1516 C1507 1.429 . S
C1516 N1513 1.350 . S
C1516 C1515 1.434 . S
C1517 C1518 1.369 . S
C1517 C1519 1.419 . S
C1517 H1521 0.930 . S
C1518 C1517 1.369 . S
C1518 C1527 1.429 . S
C1519 C1517 1.419 . S
C1519 C1520 1.363 . S
C1519 H1522 0.929 . S
C1520 C1519 1.363 . S
C1520 C1526 1.428 . S
H1521 C1517 0.930 . S
H1522 C1519 0.929 . S
S1523 N1524 1.613 . S
S1523 N1525 1.610 . S
N1524 S1523 1.613 . S
N1524 C1527 1.350 . S
N1525 S1523 1.610 . S
N1525 C1526 1.351 . S
C1526 C1520 1.428 . S
C1526 N1525 1.351 . S
C1526 C1527 1.434 . S
C1527 C1518 1.429 . S
C1527 N1524 1.350 . S
C1527 C1526 1.434 . S
C1528 C1529 1.369 . S
C1528 C1530 1.419 . S
C1528 H1532 0.930 . S
C1529 C1528 1.369 . S
C1529 C1538 1.429 . S
C1530 C1528 1.419 . S
C1530 C1531 1.363 . S
C1530 H1533 0.929 . S
C1531 C1530 1.363 . S
C1531 C1537 1.428 . S
H1532 C1528 0.930 . S
H1533 C1530 0.929 . S
S1534 N1535 1.613 . S
S1534 N1536 1.610 . S
N1535 S1534 1.613 . S
N1535 C1538 1.350 . S
N1536 S1534 1.610 . S
N1536 C1537 1.351 . S
C1537 C1531 1.428 . S
C1537 N1536 1.351 . S
C1537 C1538 1.434 . S
C1538 C1529 1.429 . S
C1538 N1535 1.350 . S
C1538 C1537 1.434 . S
C1539 C1540 1.369 . S
C1539 C1541 1.419 . S
C1539 H1543 0.930 . S
C1540 C1539 1.369 . S
C1540 C1549 1.429 . S
C1541 C1539 1.419 . S
C1541 C1542 1.363 . S
C1541 H1544 0.929 . S
C1542 C1541 1.363 . S
C1542 C1548 1.428 . S
H1543 C1539 0.930 . S
H1544 C1541 0.929 . S
S1545 N1546 1.613 . S
S1545 N1547 1.610 . S
N1546 S1545 1.613 . S
N1546 C1549 1.350 . S
N1547 S1545 1.610 . S
N1547 C1548 1.351 . S
C1548 C1542 1.428 . S
C1548 N1547 1.351 . S
C1548 C1549 1.434 . S
C1549 C1540 1.429 . S
C1549 N1546 1.350 . S
C1549 C1548 1.434 . S
C1550 C1551 1.369 . S
C1550 C1552 1.419 . S
C1550 H1554 0.930 . S
C1551 C1550 1.369 . S
C1551 C1560 1.429 . S
C1552 C1550 1.419 . S
C1552 C1553 1.363 . S
C1552 H1555 0.929 . S
C1553 C1552 1.363 . S
C1553 C1559 1.428 . S
H1554 C1550 0.930 . S
H1555 C1552 0.929 . S
S1556 N1557 1.613 . S
S1556 N1558 1.610 . S
N1557 S1556 1.613 . S
N1557 C1560 1.350 . S
N1558 S1556 1.610 . S
N1558 C1559 1.351 . S
C1559 C1553 1.428 . S
C1559 N1558 1.351 . S
C1559 C1560 1.434 . S
C1560 C1551 1.429 . S
C1560 N1557 1.350 . S
C1560 C1559 1.434 . S
C1561 C1562 1.369 . S
C1561 C1563 1.419 . S
C1561 H1565 0.930 . S
C1562 C1561 1.369 . S
C1562 C1571 1.429 . S
C1563 C1561 1.419 . S
C1563 C1564 1.363 . S
C1563 H1566 0.929 . S
C1564 C1563 1.363 . S
C1564 C1570 1.428 . S
H1565 C1561 0.930 . S
H1566 C1563 0.929 . S
S1567 N1568 1.613 . S
S1567 N1569 1.610 . S
N1568 S1567 1.613 . S
N1568 C1571 1.350 . S
N1569 S1567 1.610 . S
N1569 C1570 1.351 . S
C1570 C1564 1.428 . S
C1570 N1569 1.351 . S
C1570 C1571 1.434 . S
C1571 C1562 1.429 . S
C1571 N1568 1.350 . S
C1571 C1570 1.434 . S
C1572 C1573 1.369 . S
C1572 C1574 1.419 . S
C1572 H1576 0.930 . S
C1573 C1572 1.369 . S
C1573 C1582 1.429 . S
C1574 C1572 1.419 . S
C1574 C1575 1.363 . S
C1574 H1577 0.929 . S
C1575 C1574 1.363 . S
C1575 C1581 1.428 . S
H1576 C1572 0.930 . S
H1577 C1574 0.929 . S
S1578 N1579 1.613 . S
S1578 N1580 1.610 . S
N1579 S1578 1.613 . S
N1579 C1582 1.350 . S
N1580 S1578 1.610 . S
N1580 C1581 1.351 . S
C1581 C1575 1.428 . S
C1581 N1580 1.351 . S
C1581 C1582 1.434 . S
C1582 C1573 1.429 . S
C1582 N1579 1.350 . S
C1582 C1581 1.434 . S
C1583 C1584 1.369 . S
C1583 C1585 1.419 . S
C1583 H1587 0.930 . S
C1584 C1583 1.369 . S
C1584 C1593 1.429 . S
C1585 C1583 1.419 . S
C1585 C1586 1.363 . S
C1585 H1588 0.929 . S
C1586 C1585 1.363 . S
C1586 C1592 1.428 . S
H1587 C1583 0.930 . S
H1588 C1585 0.929 . S
S1589 N1590 1.613 . S
S1589 N1591 1.610 . S
N1590 S1589 1.613 . S
N1590 C1593 1.350 . S
N1591 S1589 1.610 . S
N1591 C1592 1.351 . S
C1592 C1586 1.428 . S
C1592 N1591 1.351 . S
C1592 C1593 1.434 . S
C1593 C1584 1.429 . S
C1593 N1590 1.350 . S
C1593 C1592 1.434 . S
C1594 C1595 1.369 . S
C1594 C1596 1.419 . S
C1594 H1598 0.930 . S
C1595 C1594 1.369 . S
C1595 C1604 1.429 . S
C1596 C1594 1.419 . S
C1596 C1597 1.363 . S
C1596 H1599 0.929 . S
C1597 C1596 1.363 . S
C1597 C1603 1.428 . S
H1598 C1594 0.930 . S
H1599 C1596 0.929 . S
S1600 N1601 1.613 . S
S1600 N1602 1.610 . S
N1601 S1600 1.613 . S
N1601 C1604 1.350 . S
N1602 S1600 1.610 . S
N1602 C1603 1.351 . S
C1603 C1597 1.428 . S
C1603 N1602 1.351 . S
C1603 C1604 1.434 . S
C1604 C1595 1.429 . S
C1604 N1601 1.350 . S
C1604 C1603 1.434 . S
C1605 C1606 1.369 . S
C1605 C1607 1.419 . S
C1605 H1609 0.930 . S
C1606 C1605 1.369 . S
C1606 C1615 1.429 . S
C1607 C1605 1.419 . S
C1607 C1608 1.363 . S
C1607 H1610 0.929 . S
C1608 C1607 1.363 . S
C1608 C1614 1.428 . S
H1609 C1605 0.930 . S
H1610 C1607 0.929 . S
S1611 N1612 1.613 . S
S1611 N1613 1.610 . S
N1612 S1611 1.613 . S
N1612 C1615 1.350 . S
N1613 S1611 1.610 . S
N1613 C1614 1.351 . S
C1614 C1608 1.428 . S
C1614 N1613 1.351 . S
C1614 C1615 1.434 . S
C1615 C1606 1.429 . S
C1615 N1612 1.350 . S
C1615 C1614 1.434 . S
C1616 C1617 1.369 . S
C1616 C1618 1.419 . S
C1616 H1620 0.930 . S
C1617 C1616 1.369 . S
C1617 C1626 1.429 . S
C1618 C1616 1.419 . S
C1618 C1619 1.363 . S
C1618 H1621 0.929 . S
C1619 C1618 1.363 . S
C1619 C1625 1.428 . S
H1620 C1616 0.930 . S
H1621 C1618 0.929 . S
S1622 N1623 1.613 . S
S1622 N1624 1.610 . S
N1623 S1622 1.613 . S
N1623 C1626 1.350 . S
N1624 S1622 1.610 . S
N1624 C1625 1.351 . S
C1625 C1619 1.428 . S
C1625 N1624 1.351 . S
C1625 C1626 1.434 . S
C1626 C1617 1.429 . S
C1626 N1623 1.350 . S
C1626 C1625 1.434 . S
C1627 C1628 1.369 . S
C1627 C1629 1.419 . S
C1627 H1631 0.930 . S
C1628 C1627 1.369 . S
C1628 C1637 1.429 . S
C1629 C1627 1.419 . S
C1629 C1630 1.363 . S
C1629 H1632 0.929 . S
C1630 C1629 1.363 . S
C1630 C1636 1.428 . S
H1631 C1627 0.930 . S
H1632 C1629 0.929 . S
S1633 N1634 1.613 . S
S1633 N1635 1.610 . S
N1634 S1633 1.613 . S
N1634 C1637 1.350 . S
N1635 S1633 1.610 . S
N1635 C1636 1.351 . S
C1636 C1630 1.428 . S
C1636 N1635 1.351 . S
C1636 C1637 1.434 . S
C1637 C1628 1.429 . S
C1637 N1634 1.350 . S
C1637 C1636 1.434 . S
C1638 C1639 1.369 . S
C1638 C1640 1.419 . S
C1638 H1642 0.930 . S
C1639 C1638 1.369 . S
C1639 C1648 1.429 . S
C1640 C1638 1.419 . S
C1640 C1641 1.363 . S
C1640 H1643 0.929 . S
C1641 C1640 1.363 . S
C1641 C1647 1.428 . S
H1642 C1638 0.930 . S
H1643 C1640 0.929 . S
S1644 N1645 1.613 . S
S1644 N1646 1.610 . S
N1645 S1644 1.613 . S
N1645 C1648 1.350 . S
N1646 S1644 1.610 . S
N1646 C1647 1.351 . S
C1647 C1641 1.428 . S
C1647 N1646 1.351 . S
C1647 C1648 1.434 . S
C1648 C1639 1.429 . S
C1648 N1645 1.350 . S
C1648 C1647 1.434 . S
C1649 C1650 1.369 . S
C1649 C1651 1.419 . S
C1649 H1653 0.930 . S
C1650 C1649 1.369 . S
C1650 C1659 1.429 . S
C1651 C1649 1.419 . S
C1651 C1652 1.363 . S
C1651 H1654 0.929 . S
C1652 C1651 1.363 . S
C1652 C1658 1.428 . S
H1653 C1649 0.930 . S
H1654 C1651 0.929 . S
S1655 N1656 1.613 . S
S1655 N1657 1.610 . S
N1656 S1655 1.613 . S
N1656 C1659 1.350 . S
N1657 S1655 1.610 . S
N1657 C1658 1.351 . S
C1658 C1652 1.428 . S
C1658 N1657 1.351 . S
C1658 C1659 1.434 . S
C1659 C1650 1.429 . S
C1659 N1656 1.350 . S
C1659 C1658 1.434 . S
C1660 C1661 1.369 . S
C1660 C1662 1.419 . S
C1660 H1664 0.930 . S
C1661 C1660 1.369 . S
C1661 C1670 1.429 . S
C1662 C1660 1.419 . S
C1662 C1663 1.363 . S
C1662 H1665 0.929 . S
C1663 C1662 1.363 . S
C1663 C1669 1.428 . S
H1664 C1660 0.930 . S
H1665 C1662 0.929 . S
S1666 N1667 1.613 . S
S1666 N1668 1.610 . S
N1667 S1666 1.613 . S
N1667 C1670 1.350 . S
N1668 S1666 1.610 . S
N1668 C1669 1.351 . S
C1669 C1663 1.428 . S
C1669 N1668 1.351 . S
C1669 C1670 1.434 . S
C1670 C1661 1.429 . S
C1670 N1667 1.350 . S
C1670 C1669 1.434 . S
C1671 C1672 1.369 . S
C1671 C1673 1.419 . S
C1671 H1675 0.930 . S
C1672 C1671 1.369 . S
C1672 C1681 1.429 . S
C1673 C1671 1.419 . S
C1673 C1674 1.363 . S
C1673 H1676 0.929 . S
C1674 C1673 1.363 . S
C1674 C1680 1.428 . S
H1675 C1671 0.930 . S
H1676 C1673 0.929 . S
S1677 N1678 1.613 . S
S1677 N1679 1.610 . S
N1678 S1677 1.613 . S
N1678 C1681 1.350 . S
N1679 S1677 1.610 . S
N1679 C1680 1.351 . S
C1680 C1674 1.428 . S
C1680 N1679 1.351 . S
C1680 C1681 1.434 . S
C1681 C1672 1.429 . S
C1681 N1678 1.350 . S
C1681 C1680 1.434 . S
C1682 C1683 1.369 . S
C1682 C1684 1.419 . S
C1682 H1686 0.930 . S
C1683 C1682 1.369 . S
C1683 C1692 1.429 . S
C1684 C1682 1.419 . S
C1684 C1685 1.363 . S
C1684 H1687 0.929 . S
C1685 C1684 1.363 . S
C1685 C1691 1.428 . S
H1686 C1682 0.930 . S
H1687 C1684 0.929 . S
S1688 N1689 1.613 . S
S1688 N1690 1.610 . S
N1689 S1688 1.613 . S
N1689 C1692 1.350 . S
N1690 S1688 1.610 . S
N1690 C1691 1.351 . S
C1691 C1685 1.428 . S
C1691 N1690 1.351 . S
C1691 C1692 1.434 . S
C1692 C1683 1.429 . S
C1692 N1689 1.350 . S
C1692 C1691 1.434 . S
C1693 C1694 1.369 . S
C1693 C1695 1.419 . S
C1693 H1697 0.930 . S
C1694 C1693 1.369 . S
C1694 C1703 1.429 . S
C1695 C1693 1.419 . S
C1695 C1696 1.363 1_455 S
C1695 H1698 0.929 1_455 S
C1696 C1695 1.363 1_655 S
C1696 C1702 1.428 . S
H1697 C1693 0.930 . S
H1698 C1695 0.929 1_655 S
S1699 N1700 1.613 1_655 S
S1699 N1701 1.610 . S
N1700 S1699 1.613 1_455 S
N1700 C1703 1.350 . S
N1701 S1699 1.610 . S
N1701 C1702 1.351 . S
C1702 C1696 1.428 . S
C1702 N1701 1.351 . S
C1702 C1703 1.434 1_655 S
C1703 C1694 1.429 . S
C1703 N1700 1.350 . S
C1703 C1702 1.434 1_455 S
C651 C330 1.325 . S
C649 C10 1.375 . S
C660 C16 1.580 . S
C662 C350 1.637 . S
C673 C370 1.284 . S
C671 C30 1.374 . S
C684 C389 1.613 . S
C682 C42 1.565 . S
C695 C347 1.580 . S
C693 C57 1.536 . S
C704 C69 1.444 . S
C706 C372 1.361 . S
C717 C392 1.540 . S
C715 C83 1.509 . S
C726 C101 1.455 . S
C728 C328 1.361 . S
C737 C108 1.614 . S
C739 C325 1.550 . S
C750 C348 1.440 . S
C748 C120 1.529 . S
C761 C371 1.591 . S
C759 C133 1.526 . S
C772 C393 1.531 . S
C770 C147 1.599 1_545 S
C783 C351 1.223 . S
C781 C114 1.318 . S
C794 C367 1.232 1_545 S
C792 C122 1.354 . S
C803 C135 1.419 . S
C805 C390 1.306 . S
C816 C329 1.288 . S
C814 C153 1.240 . S
C825 C160 1.544 . S
C827 C326 1.604 . S
C836 C174 1.190 . S
C838 C409 1.059 . S
C849 C431 1.552 . S
C847 C187 1.510 . S
C860 C454 1.220 . S
C858 C205 1.390 . S
C869 C212 1.575 . S
C871 C327 1.526 . S
C880 C226 1.637 . S
C882 C369 1.562 . S
C893 C451 1.298 . S
C891 C185 1.465 . S
C904 C412 1.124 . S
C902 C244 1.247 . S
C915 C477 1.208 . S
C913 C23 1.307 . S
C926 C497 1.601 . S
C924 C5 1.608 . S
C935 C49 1.339 . S
C937 C519 1.266 . S
C946 C29 1.379 . S
C948 C536 1.382 . S
C957 C94 1.679 . S
C959 C494 1.668 . S
C968 C88 1.370 . S
C970 C517 1.166 . S
C981 C539 1.449 . S
C979 C70 1.441 . S
C990 C62 1.401 . S
C992 C475 1.222 . S
C1001 C257 1.264 1_565 S
C1003 C472 1.099 . S
C1014 C495 1.500 . S
C1012 C200 1.641 1_545 S
C1025 C514 1.322 . S
C1023 C211 1.487 . S
C1036 C540 1.391 . S
C1034 C179 1.508 . S
C1047 C498 1.236 . S
C1045 C251 1.330 . S
C1058 C518 1.215 . S
C1056 C198 1.220 . S
C1069 C537 1.131 . S
C1067 C213 1.243 . S
C1078 C173 1.436 . S
C1080 C476 1.450 1_545 S
C1091 C473 1.481 . S
C1089 C264 1.480 . S
C1100 C148 1.359 . S
C1102 C556 1.130 . S
C1113 C579 1.441 . S
C1111 C278 1.544 . S
C1122 C127 1.420 . S
C1124 C601 1.172 . S
C1135 C474 1.439 1_545 S
C1133 C140 1.533 . S
C1146 C515 1.490 . S
C1144 C289 1.493 . S
C1157 C598 1.038 . S
C1155 C276 1.272 . S
C1166 C303 1.143 . S
C1168 C559 0.980 . S
C1177 C36 1.374 . S
C1179 C624 1.322 . S
C1188 C44 1.588 . S
C1190 C413 1.637 . S
C1201 C433 1.295 . S
C1199 C4 1.378 . S
C1210 C18 1.562 . S
C1212 C452 1.611 . S
C1221 C81 1.546 . S
C1223 C410 1.580 . S
C1232 C95 1.444 . S
C1234 C435 1.360 . S
C1245 C455 1.542 . S
C1243 C55 1.516 . S
C1256 C622 1.361 . S
C1254 C75 1.455 . S
C1267 C619 1.544 . S
C1265 C277 1.610 . S
C1278 C411 1.443 . S
C1276 C263 1.529 . S
C1289 C434 1.593 . S
C1287 C302 1.517 . S
C1298 C290 1.606 . S
C1300 C456 1.526 . S
C1311 C414 1.216 . S
C1309 C283 1.323 . S
C1320 C265 1.358 . S
C1322 C430 1.241 . S
C1333 C453 1.309 . S
C1331 C304 1.412 . S
C1342 C296 1.246 . S
C1344 C623 1.287 . S
C1355 C620 1.608 . S
C1353 C199 1.539 . S
C1364 C224 1.180 . S
C1366 C346 1.061 . S
C1377 C368 1.553 . S
C1375 C252 1.510 1_565 S
C1386 C166 1.400 . S
C1388 C391 1.216 . S
C1399 C621 1.524 . S
C1397 C238 1.579 . S
C1410 C432 1.565 . S
C1408 C172 1.635 . S
C1421 C388 1.290 . S
C1419 C250 1.470 . S
C1432 C349 1.124 . S
C1430 C218 1.235 . S
C1441 C43 1.299 . S
C1443 C645 1.220 . S
C1452 C31 1.604 . S
C1454 C560 1.602 . S
C1463 C17 1.341 . S
C1465 C582 1.264 . S
C1476 C599 1.384 . S
C1474 C3 1.376 . S
C1487 C557 1.672 . S
C1485 C68 1.673 . S
C1496 C56 1.364 . S
C1498 C580 1.180 . S
C1509 C602 1.440 . S
C1507 C96 1.452 . S
C1518 C82 1.402 . S
C1520 C643 1.220 . S
C1531 C640 1.099 . S
C1529 C192 1.264 . S
C1540 C161 1.642 . S
C1542 C558 1.500 . S
C1551 C237 1.489 . S
C1553 C577 1.312 . S
C1564 C603 1.386 . S
C1562 C225 1.509 . S
C1575 C561 1.228 . S
C1573 C186 1.335 . S
C1584 C159 1.216 . S
C1586 C581 1.221 . S
C1597 C600 1.132 . S
C1595 C239 1.245 . S
C1608 C644 1.447 . S
C1606 C231 1.440 . S
C1619 C641 1.480 . S
C1617 C121 1.479 . S
C1630 C493 1.123 . S
C1628 C291 1.362 . S
C1639 C109 1.546 . S
C1641 C516 1.440 . S
C1650 C270 1.429 . S
C1652 C538 1.155 . S
C1663 C642 1.446 . S
C1661 C309 1.529 . S
C1674 C578 1.491 . S
C1672 C146 1.488 . S
C1685 C535 1.039 . S
C1683 C107 1.272 . S
C1696 C496 0.973 . S
C1694 C134 1.144 . S
