# Generated by pormake.
# Topology pth, (4,4)-cn, num edge types: 1
# Building blocks:
#     Node 0, Type 0, BuildingBlock: QUQFOY_clean_sbu_1, # of connection points: 4
#     Node 1, Type 0, BuildingBlock: QUQFOY_clean_sbu_1, # of connection points: 4
#     Node 2, Type 0, BuildingBlock: QUQFOY_clean_sbu_1, # of connection points: 4
#     Node 3, Type 1, BuildingBlock: NAWXER_clean_sbu_0, # of connection points: 4
#     Node 4, Type 1, BuildingBlock: NAWXER_clean_sbu_0, # of connection points: 4
#     Node 5, Type 1, BuildingBlock: NAWXER_clean_sbu_0, # of connection points: 4
#     Edge 6, Type (0, 1), BuildingBlock: CIFDUS_clean_linker_0, # of connection points: 2
#     Edge 7, Type (0, 1), BuildingBlock: CIFDUS_clean_linker_0, # of connection points: 2
#     Edge 8, Type (0, 1), BuildingBlock: CIFDUS_clean_linker_0, # of connection points: 2
#     Edge 9, Type (0, 1), BuildingBlock: CIFDUS_clean_linker_0, # of connection points: 2
#     Edge 10, Type (0, 1), BuildingBlock: CIFDUS_clean_linker_0, # of connection points: 2
#     Edge 11, Type (0, 1), BuildingBlock: CIFDUS_clean_linker_0, # of connection points: 2
#     Edge 12, Type (0, 1), BuildingBlock: CIFDUS_clean_linker_0, # of connection points: 2
#     Edge 13, Type (0, 1), BuildingBlock: CIFDUS_clean_linker_0, # of connection points: 2
#     Edge 14, Type (0, 1), BuildingBlock: CIFDUS_clean_linker_0, # of connection points: 2
#     Edge 15, Type (0, 1), BuildingBlock: CIFDUS_clean_linker_0, # of connection points: 2
#     Edge 16, Type (0, 1), BuildingBlock: CIFDUS_clean_linker_0, # of connection points: 2
#     Edge 17, Type (0, 1), BuildingBlock: CIFDUS_clean_linker_0, # of connection points: 2
# Relax obj value: 0.025
# Max RMSD: 0.122
# Mean RMSD: 0.064
data_MOF--net-pth--node1-QUQFOY_clean_sbu_1--node2-NAWXER_clean_sbu_0--edge1-CIFDUS_clean_linker_0
_symmetry_space_group_name_H-M    P1
_symmetry_Int_Tables_number       1
_symmetry_cell_setting            triclinic
loop_
_symmetry_equiv_pos_as_xyz
'x, y, z'
_cell_length_a     19.172913
_cell_length_b     20.360182
_cell_length_c     52.0955
_cell_angle_alpha  89.652654
_cell_angle_beta   90.087285
_cell_angle_gamma 119.73461
loop_
_atom_site_label
_atom_site_type_symbol
_atom_site_fract_x
_atom_site_fract_y
_atom_site_fract_z
_atom_type_partial_charge
O0 O 0.05903 0.12686 0.0386 0.0
Cd1 Cd 0.97536 0.05596 0.06475 0.0
Cd2 Cd 0.0607 0.99145 0.06494 0.0
O3 O 0.14868 0.09689 0.05184 0.0
O4 O 0.92483 0.11308 0.07873 0.0
O5 O 1.00753 0.08825 0.10121 0.0
C6 C 0.96583 0.12215 0.0994 0.0
C7 C 0.07022 0.92447 0.0997 0.0
C8 C 0.13101 0.14001 0.03897 0.0
C9 C 0.90542 0.90816 0.03901 0.0
O10 O 0.97736 0.92117 0.03881 0.0
O11 O 0.88753 0.951 0.05173 0.0
O12 O 0.11129 0.9341 0.07901 0.0
O13 O 0.02835 0.95816 0.10145 0.0
O14 O 0.95184 0.05973 0.42417 0.0
Cd15 Cd 0.04957 0.10006 0.40054 0.0
Cd16 Cd 1.00523 0.95202 0.40088 0.0
O17 O 0.90134 0.93732 0.41869 0.0
O18 O 0.05689 0.19403 0.38617 0.0
O19 O 0.03196 0.09452 0.36244 0.0
C20 C 0.03868 0.16074 0.3642 0.0
C21 C 1.00317 0.86766 0.37038 0.0
C22 C 0.8964 0.99225 0.42819 0.0
C23 C 0.16326 0.06478 0.42603 0.0
O24 O 0.10827 0.99688 0.42241 0.0
O25 O 0.15602 0.11968 0.41741 0.0
O26 O 0.98354 0.84756 0.39394 0.0
O27 O 1.01973 0.93498 0.36356 0.0
O28 O 0.90181 0.97469 0.70869 0.0
Cd29 Cd 0.97066 0.94542 0.73077 0.0
Cd30 Cd 0.064 0.09544 0.73236 0.0
O31 O 0.96693 0.09756 0.71545 0.0
O32 O 0.89188 0.84663 0.74638 0.0
O33 O 0.96361 0.95138 0.76897 0.0
C34 C 0.90802 0.88122 0.76811 0.0
C35 C 0.13846 0.17619 0.76555 0.0
C36 C 0.90785 0.03926 0.70579 0.0
C37 C 0.12597 1.00364 0.70469 0.0
O38 O 0.13234 0.06751 0.70952 0.0
O39 O 0.06556 0.94291 0.71269 0.0
O40 O 0.13941 0.20156 0.74276 0.0
O41 O 0.0915 0.10503 0.77002 0.0
C42 C 0.08574 0.63088 0.26623 0.0
C43 C 0.06648 0.45333 0.19906 0.0
O44 O 0.14622 0.63168 0.25576 0.0
Zn45 Zn 0.08452 0.54684 0.23206 0.0
O46 O 1.01486 0.58316 0.25888 0.0
Zn47 Zn 0.95343 0.49543 0.23251 0.0
O48 O 0.89188 0.41078 0.25617 0.0
O49 O 0.02288 0.45341 0.25734 0.0
O50 O 0.99966 0.44682 0.20647 0.0
O51 O 0.13212 0.505 0.20858 0.0
O52 O 0.03774 0.59676 0.20676 0.0
O53 O 0.90576 0.54032 0.20998 0.0
C54 C 0.95166 0.40652 0.26492 0.0
C55 C 0.97103 0.59161 0.20002 0.0
C56 C 0.64793 0.11122 0.602 0.0
C57 C 0.47633 0.12257 0.5348 0.0
O58 O 0.59784 0.04639 0.59275 0.0
Zn59 Zn 0.50549 0.99883 0.56431 0.0
O60 O 0.64997 0.17051 0.59314 0.0
Zn61 Zn 0.56293 0.11979 0.5687 0.0
O62 O 0.46247 0.05494 0.59319 0.0
O63 O 0.41043 0.93342 0.58465 0.0
O64 O 0.52754 0.17786 0.54804 0.0
O65 O 0.46393 0.05568 0.53938 0.0
O66 O 0.5482 0.95566 0.53991 0.0
O67 O 0.61442 0.08055 0.54056 0.0
C68 C 0.40979 0.98578 0.59767 0.0
C69 C 0.60422 1.01825 0.53122 0.0
C70 C 0.40026 0.46829 0.93998 0.0
C71 C 0.58027 0.63982 0.87345 0.0
O72 O 0.39356 0.52128 0.92924 0.0
Zn73 Zn 0.48573 0.55559 0.90622 0.0
O74 O 0.45624 0.45538 0.93293 0.0
Zn75 Zn 0.55322 0.4956 0.90663 0.0
O76 O 0.64416 0.52889 0.92996 0.0
O77 O 0.58287 0.59633 0.93259 0.0
O78 O 0.59731 0.58942 0.88095 0.0
O79 O 0.51921 0.64071 0.88262 0.0
O80 O 0.44443 0.4645 0.88046 0.0
O81 O 0.51725 0.40832 0.88372 0.0
C82 C 0.63811 0.5827 0.94009 0.0
C83 C 0.45934 0.41266 0.87344 0.0
H84 H 0.09332 0.21199 0.12972 0.0
H85 H 0.84983 0.15521 0.1122 0.0
H86 H 0.86096 0.25393 0.14111 0.0
H87 H 0.94017 0.35786 0.17014 0.0
H88 H 0.18594 0.42072 0.18688 0.0
H89 H 0.17435 0.31902 0.15899 0.0
C90 C 0.04242 0.2206 0.13262 0.0
C91 C 0.9704 0.17582 0.11915 0.0
C92 C 0.0502 0.27929 0.14867 0.0
C93 C 0.90553 0.18862 0.12251 0.0
C94 C 0.91205 0.24528 0.13891 0.0
C95 C 0.99152 0.34966 0.16773 0.0
C96 C 0.06388 0.3969 0.18063 0.0
C97 C 0.98428 0.2914 0.15182 0.0
C98 C 0.12976 0.38557 0.17705 0.0
C99 C 0.1229 0.32705 0.16126 0.0
H100 H 0.86256 0.09798 0.44499 0.0
H101 H 0.77902 0.85866 0.44984 0.0
H102 H 0.67766 0.84396 0.4816 0.0
H103 H 0.61889 0.90195 0.51005 0.0
H104 H 0.70943 0.14287 0.50465 0.0
H105 H 0.80213 0.15375 0.47118 0.0
C106 C 0.8221 0.04229 0.45284 0.0
C107 C 0.82896 0.97967 0.44521 0.0
C108 C 0.76553 0.03465 0.47123 0.0
C109 C 0.77513 0.90791 0.45541 0.0
C110 C 0.71746 0.89958 0.47366 0.0
C111 C 0.6587 0.95663 0.50144 0.0
C112 C 0.65757 1.02154 0.51013 0.0
C113 C 0.71306 0.96294 0.48207 0.0
C114 C 0.70936 0.09199 0.49866 0.0
C115 C 0.76246 0.09843 0.47939 0.0
H116 H 0.74967 0.82772 0.77382 0.0
H117 H 0.95846 0.85121 0.81321 0.0
H118 H 0.87498 0.78121 0.85026 0.0
H119 H 0.74131 0.70751 0.87014 0.0
H120 H 0.53382 0.69228 0.83225 0.0
H121 H 0.61806 0.76633 0.79592 0.0
C122 C 0.77653 0.81754 0.79063 0.0
C123 C 0.85934 0.84294 0.79088 0.0
C124 C 0.72857 0.77939 0.812 0.0
C125 C 0.89454 0.8313 0.81274 0.0
C126 C 0.84691 0.79146 0.83382 0.0
C127 C 0.7149 0.72139 0.85404 0.0
C128 C 0.63166 0.69432 0.85365 0.0
C129 C 0.76376 0.76449 0.83351 0.0
C130 C 0.59789 0.71305 0.83294 0.0
C131 C 0.64589 0.75474 0.81213 0.0
H132 H 0.94343 0.83473 0.13063 0.0
H133 H 0.18616 0.8908 0.11221 0.0
H134 H 0.17546 0.79174 0.14131 0.0
H135 H 0.09679 0.68759 0.17068 0.0
H136 H 0.85177 0.62539 0.18841 0.0
H137 H 0.86301 0.72764 0.1604 0.0
C138 C 0.99427 0.82589 0.13337 0.0
C139 C 0.06593 0.87055 0.11957 0.0
C140 C 0.98674 0.76702 0.14956 0.0
C141 C 0.13072 0.85747 0.12276 0.0
C142 C 0.12445 0.80062 0.13927 0.0
C143 C 0.04552 0.69606 0.16848 0.0
C144 C 0.97347 0.64882 0.18169 0.0
C145 C 0.05255 0.7546 0.15249 0.0
C146 C 0.90772 0.66056 0.17836 0.0
C147 C 0.91438 0.71936 0.16249 0.0
H148 H 0.25427 0.18058 0.45909 0.0
H149 H 0.22948 0.97524 0.42685 0.0
H150 H 0.32992 0.9796 0.4564 0.0
H151 H 0.41326 0.03294 0.49398 0.0
H152 H 0.43878 0.23599 0.52818 0.0
H153 H 0.35029 0.24199 0.49517 0.0
C154 C 0.27235 0.13791 0.45827 0.0
C155 C 0.23407 0.07726 0.44102 0.0
C156 C 0.32927 0.13974 0.47585 0.0
C157 C 0.2575 1.02198 0.44016 0.0
C158 C 0.31481 1.0243 0.45707 0.0
C159 C 0.39988 0.07886 0.49419 0.0
C160 C 0.43114 0.13313 0.51372 0.0
C161 C 0.34901 0.08141 0.47547 0.0
C162 C 0.41486 0.19324 0.51339 0.0
C163 C 0.36413 0.19648 0.49458 0.0
H164 H 0.21989 0.14459 0.80191 0.0
H165 H 0.18221 0.32303 0.77248 0.0
H166 H 0.28027 0.41197 0.80284 0.0
H167 H 0.3767 0.4393 0.83724 0.0
H168 H 0.42271 0.26514 0.86576 0.0
H169 H 0.32266 0.17422 0.8358 0.0
C170 C 0.23269 0.20278 0.80245 0.0
C171 C 0.1932 0.22725 0.78534 0.0
C172 C 0.29135 0.25433 0.81941 0.0
C173 C 0.21151 0.30303 0.78565 0.0
C174 C 0.26774 0.35387 0.80289 0.0
C175 C 0.36513 0.38145 0.83688 0.0
C176 C 0.40663 0.35875 0.85376 0.0
C177 C 0.3082 0.33022 0.81972 0.0
C178 C 0.39181 0.28399 0.85283 0.0
C179 C 0.33418 0.23198 0.83588 0.0
H180 H 0.9193 0.1652 0.68222 0.0
H181 H 0.7595 0.92572 0.69363 0.0
H182 H 0.66397 0.92868 0.66364 0.0
H183 H 0.62959 0.99588 0.63207 0.0
H184 H 0.78678 0.23471 0.61922 0.0
H185 H 0.87925 0.23552 0.65202 0.0
C186 C 0.86306 0.11402 0.67838 0.0
C187 C 0.84703 0.0452 0.68998 0.0
C188 C 0.80827 0.11576 0.66071 0.0
C189 C 0.77389 0.97929 0.68478 0.0
C190 C 0.71909 0.98081 0.66761 0.0
C191 C 0.68399 0.04834 0.63642 0.0
C192 C 0.70187 0.1149 0.62297 0.0
C193 C 0.73648 0.04821 0.65507 0.0
C194 C 0.77186 0.18258 0.62923 0.0
C195 C 0.82476 0.18299 0.64794 0.0
H196 H 0.92179 0.80123 0.01266 0.0
H197 H 0.7501 0.87306 0.03082 0.0
H198 H 0.65117 0.77492 1.0031 0.0
H199 H 0.61616 0.67455 0.97199 0.0
H200 H 0.78626 0.60178 0.95304 0.0
H201 H 0.88312 0.69423 0.9832 0.0
C202 C 0.86259 0.79522 0.01067 0.0
C203 C 0.84373 0.84507 0.02363 0.0
C204 C 0.80592 0.73872 0.99459 0.0
C205 C 0.76645 0.83586 0.02101 0.0
C206 C 0.70983 0.77979 0.00513 0.0
C207 C 0.67431 0.67851 0.97447 0.0
C208 C 0.69441 0.63197 0.96006 0.0
C209 C 0.7294 0.73184 0.99156 0.0
C210 C 0.76944 0.63705 0.96387 0.0
C211 C 0.82486 0.69011 0.98101 0.0
H212 H 0.11482 0.90137 0.3327 0.0
H213 H 0.90748 0.71619 0.36871 0.0
H214 H 0.9201 0.62627 0.34107 0.0
H215 H 0.98718 0.60038 0.30619 0.0
H216 H 0.19756 0.78216 0.27045 0.0
H217 H 0.18865 0.87354 0.29904 0.0
C218 C 0.07217 0.84135 0.33422 0.0
C219 C 1.00935 0.81526 0.35233 0.0
C220 C 0.08137 0.78958 0.31875 0.0
C221 C 0.95568 0.7374 0.35472 0.0
C222 C 0.96314 0.68602 0.33904 0.0
C223 C 0.03185 0.65998 0.3049 0.0
C224 C 0.09288 0.68475 0.2863 0.0
C225 C 0.02559 0.71148 0.32104 0.0
C226 C 0.15066 0.76182 0.28487 0.0
C227 C 0.14481 0.814 0.30096 0.0
H228 H 0.11459 0.89282 0.67224 0.0
H229 H 0.28108 0.11318 0.7024 0.0
H230 H 0.38471 0.12357 0.67318 0.0
H231 H 0.42484 0.07641 0.63688 0.0
H232 H 0.26163 0.85834 0.6048 0.0
H233 H 0.16012 0.84022 0.63708 0.0
C234 C 0.174 0.94236 0.67263 0.0
C235 C 0.1899 1.00251 0.68926 0.0
C236 C 0.23352 0.94878 0.65529 0.0
C237 C 0.26702 0.06656 0.68956 0.0
C238 C 0.3264 0.07264 0.67286 0.0
C239 C 0.36715 1.02465 0.63693 0.0
C240 C 0.35021 0.96936 0.61824 0.0
C241 C 0.30963 1.01515 0.65523 0.0
C242 C 0.27587 0.90196 0.61894 0.0
C243 C 0.21785 0.89175 0.63734 0.0
H244 H 0.11473 0.24707 0.01216 0.0
H245 H 0.28703 0.17645 0.03142 0.0
H246 H 0.38669 0.27583 1.00386 0.0
H247 H 0.42218 0.37683 0.97254 0.0
H248 H 0.25132 0.44811 0.95239 0.0
H249 H 0.15378 0.35468 0.98249 0.0
C250 C 0.17421 0.25361 0.01045 0.0
C251 C 0.19305 0.20373 0.02367 0.0
C252 C 0.23128 0.31079 0.99445 0.0
C253 C 0.27069 0.21363 0.0214 0.0
C254 C 0.32774 0.27043 0.00562 0.0
C255 C 0.36372 0.37236 0.97476 0.0
C256 C 0.34362 0.41875 0.96001 0.0
C257 C 0.3082 0.31839 0.99178 0.0
C258 C 0.26817 0.41298 0.96348 0.0
C259 C 0.21235 0.35934 0.98058 0.0
H260 H 0.95255 0.23277 0.36448 0.0
H261 H 0.08489 0.16571 0.31452 0.0
H262 H 0.06234 0.23054 0.27833 0.0
H263 H 1.01381 0.31445 0.262 0.0
H264 H 0.874 0.3749 0.31103 0.0
H265 H 0.88863 0.3028 0.34656 0.0
C266 C 0.97615 0.23233 0.3456 0.0
C267 C 1.02177 0.19619 0.34211 0.0
C268 C 0.96081 0.26769 0.32484 0.0
C269 C 0.05036 0.19397 0.31757 0.0
C270 C 0.03737 0.23086 0.29695 0.0
C271 C 0.98494 0.31012 0.28033 0.0
C272 C 0.94278 0.34945 0.28406 0.0
C273 C 0.99371 0.26878 0.30048 0.0
C274 C 0.9057 0.34404 0.30775 0.0
C275 C 0.91499 0.30369 0.32808 0.0
loop_
_geom_bond_atom_site_label_1
_geom_bond_atom_site_label_2
_geom_bond_distance
_geom_bond_site_symmetry_2
_ccdc_geom_bond_type
O0 Cd1 2.223 1_455 S
O0 C8 1.315 . S
Cd1 O0 2.223 1_655 S
Cd1 O4 2.297 . S
Cd1 O5 2.439 . S
Cd1 O11 2.240 1_545 S
Cd2 O3 2.240 1_565 S
Cd2 O10 2.223 1_455 S
Cd2 O12 2.297 . S
Cd2 O13 2.439 . S
O3 Cd2 2.240 1_545 S
O3 C8 1.279 . S
O4 Cd1 2.297 . S
O4 C6 1.247 . S
O5 Cd1 2.439 . S
O5 C6 1.208 . S
C6 O4 1.247 . S
C6 O5 1.208 . S
C7 O12 1.247 . S
C7 O13 1.208 . S
C8 O0 1.315 . S
C8 O3 1.279 . S
C9 O10 1.315 . S
C9 O11 1.279 . S
O10 Cd2 2.223 1_655 S
O10 C9 1.315 . S
O11 Cd1 2.240 1_565 S
O11 C9 1.279 . S
O12 Cd2 2.297 . S
O12 C7 1.247 . S
O13 Cd2 2.439 . S
O13 C7 1.208 . S
O14 Cd15 2.223 1_655 S
O14 C22 1.315 . S
Cd15 O14 2.223 1_455 S
Cd15 O18 2.297 . S
Cd15 O19 2.439 . S
Cd15 O25 2.240 . S
Cd16 O17 2.240 . S
Cd16 O24 2.223 1_655 S
Cd16 O26 2.297 . S
Cd16 O27 2.439 . S
O17 Cd16 2.240 . S
O17 C22 1.279 1_565 S
O18 Cd15 2.297 . S
O18 C20 1.247 . S
O19 Cd15 2.439 . S
O19 C20 1.208 . S
C20 O18 1.247 . S
C20 O19 1.208 . S
C21 O26 1.247 . S
C21 O27 1.208 . S
C22 O14 1.315 . S
C22 O17 1.279 1_545 S
C23 O24 1.315 . S
C23 O25 1.279 1_565 S
O24 Cd16 2.223 1_455 S
O24 C23 1.315 . S
O25 Cd15 2.240 . S
O25 C23 1.279 1_545 S
O26 Cd16 2.297 . S
O26 C21 1.247 . S
O27 Cd16 2.439 . S
O27 C21 1.208 . S
O28 Cd29 2.223 . S
O28 C36 1.315 . S
Cd29 O28 2.223 . S
Cd29 O32 2.297 . S
Cd29 O33 2.439 . S
Cd29 O39 2.240 1_655 S
Cd30 O31 2.240 1_455 S
Cd30 O38 2.223 . S
Cd30 O40 2.297 . S
Cd30 O41 2.439 . S
O31 Cd30 2.240 1_655 S
O31 C36 1.279 1_545 S
O32 Cd29 2.297 . S
O32 C34 1.247 . S
O33 Cd29 2.439 . S
O33 C34 1.208 . S
C34 O32 1.247 . S
C34 O33 1.208 . S
C35 O40 1.247 . S
C35 O41 1.208 . S
C36 O28 1.315 . S
C36 O31 1.279 1_565 S
C37 O38 1.315 . S
C37 O39 1.279 1_545 S
O38 Cd30 2.223 . S
O38 C37 1.315 . S
O39 Cd29 2.240 1_455 S
O39 C37 1.279 1_565 S
O40 Cd30 2.297 . S
O40 C35 1.247 . S
O41 Cd30 2.439 . S
O41 C35 1.208 . S
C42 O44 1.252 . S
C42 O46 1.255 1_455 S
C43 O50 1.248 . S
C43 O51 1.257 1_655 S
O44 C42 1.252 . S
O44 Zn45 2.028 . S
Zn45 O44 2.028 . S
Zn45 O49 2.035 . S
Zn45 O51 2.035 . S
Zn45 O52 2.028 . S
O46 C42 1.255 1_655 S
O46 Zn47 2.035 . S
Zn47 O46 2.035 . S
Zn47 O48 2.028 . S
Zn47 O50 2.028 . S
Zn47 O53 2.035 . S
O48 Zn47 2.028 . S
O48 C54 1.248 . S
O49 Zn45 2.035 . S
O49 C54 1.257 1_455 S
O50 C43 1.248 . S
O50 Zn47 2.028 . S
O51 C43 1.257 1_455 S
O51 Zn45 2.035 . S
O52 Zn45 2.028 . S
O52 C55 1.252 . S
O53 Zn47 2.035 . S
O53 C55 1.255 1_655 S
C54 O48 1.248 . S
C54 O49 1.257 1_655 S
C55 O52 1.252 . S
C55 O53 1.255 1_455 S
C56 O58 1.247 . S
C56 O60 1.257 1_565 S
C57 O64 1.250 . S
C57 O65 1.253 1_545 S
O58 C56 1.247 . S
O58 Zn59 2.028 . S
Zn59 O58 2.028 . S
Zn59 O63 2.035 . S
Zn59 O65 2.035 . S
Zn59 O66 2.028 . S
O60 C56 1.257 1_545 S
O60 Zn61 2.035 . S
Zn61 O60 2.035 . S
Zn61 O62 2.028 . S
Zn61 O64 2.028 . S
Zn61 O67 2.035 . S
O62 Zn61 2.028 . S
O62 C68 1.250 . S
O63 Zn59 2.035 . S
O63 C68 1.253 1_565 S
O64 C57 1.250 . S
O64 Zn61 2.028 . S
O65 C57 1.253 1_565 S
O65 Zn59 2.035 . S
O66 Zn59 2.028 . S
O66 C69 1.247 . S
O67 Zn61 2.035 . S
O67 C69 1.257 1_545 S
C68 O62 1.250 . S
C68 O63 1.253 1_545 S
C69 O66 1.247 . S
C69 O67 1.257 1_565 S
C70 O72 1.247 . S
C70 O74 1.258 . S
C71 O78 1.247 . S
C71 O79 1.258 . S
O72 C70 1.247 . S
O72 Zn73 2.028 . S
Zn73 O72 2.028 . S
Zn73 O77 2.035 . S
Zn73 O79 2.035 . S
Zn73 O80 2.028 . S
O74 C70 1.258 . S
O74 Zn75 2.035 . S
Zn75 O74 2.035 . S
Zn75 O76 2.028 . S
Zn75 O78 2.028 . S
Zn75 O81 2.035 . S
O76 Zn75 2.028 . S
O76 C82 1.247 . S
O77 Zn73 2.035 . S
O77 C82 1.258 . S
O78 C71 1.247 . S
O78 Zn75 2.028 . S
O79 C71 1.258 . S
O79 Zn73 2.035 . S
O80 Zn73 2.028 . S
O80 C83 1.247 . S
O81 Zn75 2.035 . S
O81 C83 1.258 . S
C82 O76 1.247 . S
C82 O77 1.258 . S
C83 O80 1.247 . S
C83 O81 1.258 . S
H84 C90 0.930 . S
H85 C93 0.930 . S
H86 C94 0.930 . S
H87 C95 0.930 . S
H88 C98 0.930 . S
H89 C99 0.930 . S
C90 H84 0.930 . S
C90 C91 1.355 1_455 S
C90 C92 1.415 . S
C91 C90 1.355 1_655 S
C91 C93 1.419 . S
C92 C90 1.415 . S
C92 C97 1.425 1_455 S
C92 C99 1.409 . S
C93 H85 0.930 . S
C93 C91 1.419 . S
C93 C94 1.362 . S
C94 H86 0.930 . S
C94 C93 1.362 . S
C94 C97 1.409 . S
C95 H87 0.930 . S
C95 C96 1.355 1_655 S
C95 C97 1.415 . S
C96 C95 1.355 1_455 S
C96 C98 1.419 . S
C97 C92 1.425 1_655 S
C97 C94 1.409 . S
C97 C95 1.415 . S
C98 H88 0.930 . S
C98 C96 1.419 . S
C98 C99 1.362 . S
C99 H89 0.930 . S
C99 C92 1.409 . S
C99 C98 1.362 . S
H100 C106 0.930 . S
H101 C109 0.930 . S
H102 C110 0.930 . S
H103 C111 0.930 . S
H104 C114 0.930 . S
H105 C115 0.930 . S
C106 H100 0.930 . S
C106 C107 1.355 . S
C106 C108 1.415 . S
C107 C106 1.355 . S
C107 C109 1.419 1_545 S
C108 C106 1.415 . S
C108 C113 1.425 1_545 S
C108 C115 1.409 . S
C109 H101 0.930 . S
C109 C107 1.419 1_565 S
C109 C110 1.362 . S
C110 H102 0.930 . S
C110 C109 1.362 . S
C110 C113 1.409 . S
C111 H103 0.930 . S
C111 C112 1.355 1_565 S
C111 C113 1.415 . S
C112 C111 1.355 1_545 S
C112 C114 1.419 . S
C113 C108 1.425 1_565 S
C113 C110 1.409 . S
C113 C111 1.415 . S
C114 H104 0.930 . S
C114 C112 1.419 . S
C114 C115 1.362 . S
C115 H105 0.930 . S
C115 C108 1.409 . S
C115 C114 1.362 . S
H116 C122 0.930 . S
H117 C125 0.930 . S
H118 C126 0.930 . S
H119 C127 0.930 . S
H120 C130 0.930 . S
H121 C131 0.930 . S
C122 H116 0.930 . S
C122 C123 1.355 . S
C122 C124 1.415 . S
C123 C122 1.355 . S
C123 C125 1.419 . S
C124 C122 1.415 . S
C124 C129 1.425 . S
C124 C131 1.409 . S
C125 H117 0.930 . S
C125 C123 1.419 . S
C125 C126 1.362 . S
C126 H118 0.930 . S
C126 C125 1.362 . S
C126 C129 1.409 . S
C127 H119 0.930 . S
C127 C128 1.355 . S
C127 C129 1.415 . S
C128 C127 1.355 . S
C128 C130 1.419 . S
C129 C124 1.425 . S
C129 C126 1.409 . S
C129 C127 1.415 . S
C130 H120 0.930 . S
C130 C128 1.419 . S
C130 C131 1.362 . S
C131 H121 0.930 . S
C131 C124 1.409 . S
C131 C130 1.362 . S
H132 C138 0.930 . S
H133 C141 0.930 . S
H134 C142 0.930 . S
H135 C143 0.930 . S
H136 C146 0.930 . S
H137 C147 0.930 . S
C138 H132 0.930 . S
C138 C139 1.355 1_655 S
C138 C140 1.415 . S
C139 C138 1.355 1_455 S
C139 C141 1.419 . S
C140 C138 1.415 . S
C140 C145 1.425 1_655 S
C140 C147 1.409 . S
C141 H133 0.930 . S
C141 C139 1.419 . S
C141 C142 1.362 . S
C142 H134 0.930 . S
C142 C141 1.362 . S
C142 C145 1.409 . S
C143 H135 0.930 . S
C143 C144 1.355 1_455 S
C143 C145 1.415 . S
C144 C143 1.355 1_655 S
C144 C146 1.419 . S
C145 C140 1.425 1_455 S
C145 C142 1.409 . S
C145 C143 1.415 . S
C146 H136 0.930 . S
C146 C144 1.419 . S
C146 C147 1.362 . S
C147 H137 0.930 . S
C147 C140 1.409 . S
C147 C146 1.362 . S
H148 C154 0.930 . S
H149 C157 0.930 . S
H150 C158 0.930 . S
H151 C159 0.930 . S
H152 C162 0.930 . S
H153 C163 0.930 . S
C154 H148 0.930 . S
C154 C155 1.355 . S
C154 C156 1.414 . S
C155 C154 1.355 . S
C155 C157 1.419 . S
C156 C154 1.414 . S
C156 C161 1.425 . S
C156 C163 1.410 1_565 S
C157 H149 0.930 . S
C157 C155 1.419 . S
C157 C158 1.362 . S
C158 H150 0.930 . S
C158 C157 1.362 . S
C158 C161 1.409 . S
C159 H151 0.930 . S
C159 C160 1.355 1_565 S
C159 C161 1.415 . S
C160 C159 1.355 1_545 S
C160 C162 1.419 . S
C161 C156 1.425 . S
C161 C158 1.409 . S
C161 C159 1.415 . S
C162 H152 0.930 . S
C162 C160 1.419 . S
C162 C163 1.362 . S
C163 H153 0.930 . S
C163 C156 1.410 1_545 S
C163 C162 1.362 . S
H164 C170 0.930 . S
H165 C173 0.930 . S
H166 C174 0.930 . S
H167 C175 0.930 . S
H168 C178 0.930 . S
H169 C179 0.930 . S
C170 H164 0.930 . S
C170 C171 1.355 . S
C170 C172 1.415 . S
C171 C170 1.355 . S
C171 C173 1.419 . S
C172 C170 1.415 . S
C172 C177 1.425 . S
C172 C179 1.409 . S
C173 H165 0.930 . S
C173 C171 1.419 . S
C173 C174 1.362 . S
C174 H166 0.930 . S
C174 C173 1.362 . S
C174 C177 1.409 . S
C175 H167 0.930 . S
C175 C176 1.355 . S
C175 C177 1.415 . S
C176 C175 1.355 . S
C176 C178 1.419 . S
C177 C172 1.425 . S
C177 C174 1.409 . S
C177 C175 1.415 . S
C178 H168 0.930 . S
C178 C176 1.419 . S
C178 C179 1.362 . S
C179 H169 0.930 . S
C179 C172 1.409 . S
C179 C178 1.362 . S
H180 C186 0.930 . S
H181 C189 0.930 . S
H182 C190 0.930 . S
H183 C191 0.930 . S
H184 C194 0.930 . S
H185 C195 0.930 . S
C186 H180 0.930 . S
C186 C187 1.355 1_545 S
C186 C188 1.415 . S
C187 C186 1.355 1_565 S
C187 C189 1.419 . S
C188 C186 1.415 . S
C188 C193 1.425 1_545 S
C188 C195 1.409 . S
C189 H181 0.930 . S
C189 C187 1.419 . S
C189 C190 1.362 . S
C190 H182 0.930 . S
C190 C189 1.362 . S
C190 C193 1.409 . S
C191 H183 0.930 . S
C191 C192 1.355 . S
C191 C193 1.415 . S
C192 C191 1.355 . S
C192 C194 1.419 1_565 S
C193 C188 1.425 1_565 S
C193 C190 1.409 . S
C193 C191 1.415 . S
C194 H184 0.930 . S
C194 C192 1.419 1_545 S
C194 C195 1.362 . S
C195 H185 0.930 . S
C195 C188 1.409 . S
C195 C194 1.362 . S
H196 C202 0.930 . S
H197 C205 0.930 . S
H198 C206 0.930 . S
H199 C207 0.930 . S
H200 C210 0.930 . S
H201 C211 0.930 . S
C202 H196 0.930 . S
C202 C203 1.355 1_556 S
C202 C204 1.415 . S
C203 C202 1.355 1_554 S
C203 C205 1.419 . S
C204 C202 1.415 . S
C204 C209 1.425 . S
C204 C211 1.409 . S
C205 H197 0.930 . S
C205 C203 1.419 . S
C205 C206 1.362 1_554 S
C206 H198 0.930 . S
C206 C205 1.362 1_556 S
C206 C209 1.409 . S
C207 H199 0.930 . S
C207 C208 1.355 . S
C207 C209 1.415 . S
C208 C207 1.355 . S
C208 C210 1.419 . S
C209 C204 1.425 . S
C209 C206 1.409 . S
C209 C207 1.415 . S
C210 H200 0.930 . S
C210 C208 1.419 . S
C210 C211 1.362 . S
C211 H201 0.930 . S
C211 C204 1.409 . S
C211 C210 1.362 . S
H212 C218 0.930 . S
H213 C221 0.930 . S
H214 C222 0.930 . S
H215 C223 0.930 . S
H216 C226 0.930 . S
H217 C227 0.930 . S
C218 H212 0.930 . S
C218 C219 1.343 1_455 S
C218 C220 1.415 . S
C219 C218 1.343 1_655 S
C219 C221 1.428 . S
C220 C218 1.415 . S
C220 C225 1.425 1_455 S
C220 C227 1.409 . S
C221 H213 0.930 . S
C221 C219 1.428 . S
C221 C222 1.362 . S
C222 H214 0.930 . S
C222 C221 1.362 . S
C222 C225 1.409 . S
C223 H215 0.930 . S
C223 C224 1.355 1_655 S
C223 C225 1.415 . S
C224 C223 1.355 1_455 S
C224 C226 1.419 . S
C225 C220 1.425 1_655 S
C225 C222 1.409 . S
C225 C223 1.415 . S
C226 H216 0.930 . S
C226 C224 1.419 . S
C226 C227 1.362 . S
C227 H217 0.930 . S
C227 C220 1.409 . S
C227 C226 1.362 . S
H228 C234 0.930 . S
H229 C237 0.930 . S
H230 C238 0.930 . S
H231 C239 0.930 . S
H232 C242 0.930 . S
H233 C243 0.930 . S
C234 H228 0.930 . S
C234 C235 1.355 1_565 S
C234 C236 1.415 . S
C235 C234 1.355 1_545 S
C235 C237 1.419 . S
C236 C234 1.415 . S
C236 C241 1.425 1_565 S
C236 C243 1.409 . S
C237 H229 0.930 . S
C237 C235 1.419 . S
C237 C238 1.362 . S
C238 H230 0.930 . S
C238 C237 1.362 . S
C238 C241 1.409 . S
C239 H231 0.930 . S
C239 C240 1.355 1_545 S
C239 C241 1.415 . S
C240 C239 1.355 1_565 S
C240 C242 1.419 . S
C241 C236 1.425 1_545 S
C241 C238 1.409 . S
C241 C239 1.415 . S
C242 H232 0.930 . S
C242 C240 1.419 . S
C242 C243 1.362 . S
C243 H233 0.930 . S
C243 C236 1.409 . S
C243 C242 1.362 . S
H244 C250 0.930 . S
H245 C253 0.930 . S
H246 C254 0.930 . S
H247 C255 0.930 . S
H248 C258 0.930 . S
H249 C259 0.930 . S
C250 H244 0.930 . S
C250 C251 1.355 1_556 S
C250 C252 1.415 . S
C251 C250 1.355 1_554 S
C251 C253 1.419 . S
C252 C250 1.415 . S
C252 C257 1.425 . S
C252 C259 1.409 . S
C253 H245 0.930 . S
C253 C251 1.419 . S
C253 C254 1.362 . S
C254 H246 0.930 . S
C254 C253 1.362 . S
C254 C257 1.409 1_554 S
C255 H247 0.930 . S
C255 C256 1.355 . S
C255 C257 1.415 . S
C256 C255 1.355 . S
C256 C258 1.419 . S
C257 C252 1.425 . S
C257 C254 1.409 1_556 S
C257 C255 1.415 . S
C258 H248 0.930 . S
C258 C256 1.419 . S
C258 C259 1.362 . S
C259 H249 0.930 . S
C259 C252 1.409 . S
C259 C258 1.362 . S
H260 C266 0.930 . S
H261 C269 0.930 . S
H262 C270 0.930 . S
H263 C271 0.930 . S
H264 C274 0.930 . S
H265 C275 0.930 . S
C266 H260 0.930 . S
C266 C267 1.355 1_455 S
C266 C268 1.415 . S
C267 C266 1.355 1_655 S
C267 C269 1.419 . S
C268 C266 1.415 . S
C268 C273 1.425 1_455 S
C268 C275 1.409 . S
C269 H261 0.930 . S
C269 C267 1.419 . S
C269 C270 1.362 . S
C270 H262 0.930 . S
C270 C269 1.362 . S
C270 C273 1.409 . S
C271 H263 0.930 . S
C271 C272 1.355 1_655 S
C271 C273 1.415 . S
C272 C271 1.355 1_455 S
C272 C274 1.419 . S
C273 C268 1.425 1_655 S
C273 C270 1.409 . S
C273 C271 1.415 . S
C274 H264 0.930 . S
C274 C272 1.419 . S
C274 C275 1.362 . S
C275 H265 0.930 . S
C275 C268 1.409 . S
C275 C274 1.362 . S
C96 C43 1.463 1_455 S
C91 C6 1.453 . S
C107 C22 1.528 . S
C112 C69 1.552 1_545 S
C123 C34 1.277 . S
C128 C71 1.292 . S
C139 C7 1.435 . S
C144 C55 1.471 1_655 S
C160 C57 1.544 . S
C155 C23 1.522 . S
C171 C35 1.285 . S
C176 C83 1.313 . S
C192 C56 1.551 . S
C187 C36 1.524 . S
C203 C9 1.723 . S
C208 C82 1.739 . S
C224 C42 1.460 . S
C219 C21 1.440 . S
C240 C68 1.552 1_565 S
C235 C37 1.512 . S
C256 C70 1.738 . S
C251 C8 1.694 . S
C267 C20 1.470 1_655 S
C272 C54 1.460 1_455 S
