# Generated by pormake.
# Topology iac, (4,6)-cn, num edge types: 1
# Building blocks:
#     Node 0, Type 0, BuildingBlock: AZAVOO_clean_sbu_0, # of connection points: 4
#     Node 1, Type 0, BuildingBlock: AZAVOO_clean_sbu_0, # of connection points: 4
#     Node 2, Type 0, BuildingBlock: AZAVOO_clean_sbu_0, # of connection points: 4
#     Node 3, Type 0, BuildingBlock: AZAVOO_clean_sbu_0, # of connection points: 4
#     Node 4, Type 0, BuildingBlock: AZAVOO_clean_sbu_0, # of connection points: 4
#     Node 5, Type 0, BuildingBlock: AZAVOO_clean_sbu_0, # of connection points: 4
#     Node 6, Type 0, BuildingBlock: AZAVOO_clean_sbu_0, # of connection points: 4
#     Node 7, Type 0, BuildingBlock: AZAVOO_clean_sbu_0, # of connection points: 4
#     Node 8, Type 0, BuildingBlock: AZAVOO_clean_sbu_0, # of connection points: 4
#     Node 9, Type 0, BuildingBlock: AZAVOO_clean_sbu_0, # of connection points: 4
#     Node 10, Type 0, BuildingBlock: AZAVOO_clean_sbu_0, # of connection points: 4
#     Node 11, Type 0, BuildingBlock: AZAVOO_clean_sbu_0, # of connection points: 4
#     Node 12, Type 0, BuildingBlock: AZAVOO_clean_sbu_0, # of connection points: 4
#     Node 13, Type 0, BuildingBlock: AZAVOO_clean_sbu_0, # of connection points: 4
#     Node 14, Type 0, BuildingBlock: AZAVOO_clean_sbu_0, # of connection points: 4
#     Node 15, Type 0, BuildingBlock: AZAVOO_clean_sbu_0, # of connection points: 4
#     Node 16, Type 0, BuildingBlock: AZAVOO_clean_sbu_0, # of connection points: 4
#     Node 17, Type 0, BuildingBlock: AZAVOO_clean_sbu_0, # of connection points: 4
#     Node 18, Type 0, BuildingBlock: AZAVOO_clean_sbu_0, # of connection points: 4
#     Node 19, Type 0, BuildingBlock: AZAVOO_clean_sbu_0, # of connection points: 4
#     Node 20, Type 0, BuildingBlock: AZAVOO_clean_sbu_0, # of connection points: 4
#     Node 21, Type 0, BuildingBlock: AZAVOO_clean_sbu_0, # of connection points: 4
#     Node 22, Type 0, BuildingBlock: AZAVOO_clean_sbu_0, # of connection points: 4
#     Node 23, Type 0, BuildingBlock: AZAVOO_clean_sbu_0, # of connection points: 4
#     Node 24, Type 1, BuildingBlock: VOLQOD_clean_sbu_1, # of connection points: 6
#     Node 25, Type 1, BuildingBlock: VOLQOD_clean_sbu_1, # of connection points: 6
#     Node 26, Type 1, BuildingBlock: VOLQOD_clean_sbu_1, # of connection points: 6
#     Node 27, Type 1, BuildingBlock: VOLQOD_clean_sbu_1, # of connection points: 6
#     Node 28, Type 1, BuildingBlock: VOLQOD_clean_sbu_1, # of connection points: 6
#     Node 29, Type 1, BuildingBlock: VOLQOD_clean_sbu_1, # of connection points: 6
#     Node 30, Type 1, BuildingBlock: VOLQOD_clean_sbu_1, # of connection points: 6
#     Node 31, Type 1, BuildingBlock: VOLQOD_clean_sbu_1, # of connection points: 6
#     Node 32, Type 1, BuildingBlock: VOLQOD_clean_sbu_1, # of connection points: 6
#     Node 33, Type 1, BuildingBlock: VOLQOD_clean_sbu_1, # of connection points: 6
#     Node 34, Type 1, BuildingBlock: VOLQOD_clean_sbu_1, # of connection points: 6
#     Node 35, Type 1, BuildingBlock: VOLQOD_clean_sbu_1, # of connection points: 6
#     Node 36, Type 1, BuildingBlock: VOLQOD_clean_sbu_1, # of connection points: 6
#     Node 37, Type 1, BuildingBlock: VOLQOD_clean_sbu_1, # of connection points: 6
#     Node 38, Type 1, BuildingBlock: VOLQOD_clean_sbu_1, # of connection points: 6
#     Node 39, Type 1, BuildingBlock: VOLQOD_clean_sbu_1, # of connection points: 6
#     Edge 40, Type (0, 1), BuildingBlock: KIFKEQ_clean_linker_1, # of connection points: 2
#     Edge 41, Type (0, 1), BuildingBlock: KIFKEQ_clean_linker_1, # of connection points: 2
#     Edge 42, Type (0, 1), BuildingBlock: KIFKEQ_clean_linker_1, # of connection points: 2
#     Edge 43, Type (0, 1), BuildingBlock: KIFKEQ_clean_linker_1, # of connection points: 2
#     Edge 44, Type (0, 1), BuildingBlock: KIFKEQ_clean_linker_1, # of connection points: 2
#     Edge 45, Type (0, 1), BuildingBlock: KIFKEQ_clean_linker_1, # of connection points: 2
#     Edge 46, Type (0, 1), BuildingBlock: KIFKEQ_clean_linker_1, # of connection points: 2
#     Edge 47, Type (0, 1), BuildingBlock: KIFKEQ_clean_linker_1, # of connection points: 2
#     Edge 48, Type (0, 1), BuildingBlock: KIFKEQ_clean_linker_1, # of connection points: 2
#     Edge 49, Type (0, 1), BuildingBlock: KIFKEQ_clean_linker_1, # of connection points: 2
#     Edge 50, Type (0, 1), BuildingBlock: KIFKEQ_clean_linker_1, # of connection points: 2
#     Edge 51, Type (0, 1), BuildingBlock: KIFKEQ_clean_linker_1, # of connection points: 2
#     Edge 52, Type (0, 1), BuildingBlock: KIFKEQ_clean_linker_1, # of connection points: 2
#     Edge 53, Type (0, 1), BuildingBlock: KIFKEQ_clean_linker_1, # of connection points: 2
#     Edge 54, Type (0, 1), BuildingBlock: KIFKEQ_clean_linker_1, # of connection points: 2
#     Edge 55, Type (0, 1), BuildingBlock: KIFKEQ_clean_linker_1, # of connection points: 2
#     Edge 56, Type (0, 1), BuildingBlock: KIFKEQ_clean_linker_1, # of connection points: 2
#     Edge 57, Type (0, 1), BuildingBlock: KIFKEQ_clean_linker_1, # of connection points: 2
#     Edge 58, Type (0, 1), BuildingBlock: KIFKEQ_clean_linker_1, # of connection points: 2
#     Edge 59, Type (0, 1), BuildingBlock: KIFKEQ_clean_linker_1, # of connection points: 2
#     Edge 60, Type (0, 1), BuildingBlock: KIFKEQ_clean_linker_1, # of connection points: 2
#     Edge 61, Type (0, 1), BuildingBlock: KIFKEQ_clean_linker_1, # of connection points: 2
#     Edge 62, Type (0, 1), BuildingBlock: KIFKEQ_clean_linker_1, # of connection points: 2
#     Edge 63, Type (0, 1), BuildingBlock: KIFKEQ_clean_linker_1, # of connection points: 2
#     Edge 64, Type (0, 1), BuildingBlock: KIFKEQ_clean_linker_1, # of connection points: 2
#     Edge 65, Type (0, 1), BuildingBlock: KIFKEQ_clean_linker_1, # of connection points: 2
#     Edge 66, Type (0, 1), BuildingBlock: KIFKEQ_clean_linker_1, # of connection points: 2
#     Edge 67, Type (0, 1), BuildingBlock: KIFKEQ_clean_linker_1, # of connection points: 2
#     Edge 68, Type (0, 1), BuildingBlock: KIFKEQ_clean_linker_1, # of connection points: 2
#     Edge 69, Type (0, 1), BuildingBlock: KIFKEQ_clean_linker_1, # of connection points: 2
#     Edge 70, Type (0, 1), BuildingBlock: KIFKEQ_clean_linker_1, # of connection points: 2
#     Edge 71, Type (0, 1), BuildingBlock: KIFKEQ_clean_linker_1, # of connection points: 2
#     Edge 72, Type (0, 1), BuildingBlock: KIFKEQ_clean_linker_1, # of connection points: 2
#     Edge 73, Type (0, 1), BuildingBlock: KIFKEQ_clean_linker_1, # of connection points: 2
#     Edge 74, Type (0, 1), BuildingBlock: KIFKEQ_clean_linker_1, # of connection points: 2
#     Edge 75, Type (0, 1), BuildingBlock: KIFKEQ_clean_linker_1, # of connection points: 2
#     Edge 76, Type (0, 1), BuildingBlock: KIFKEQ_clean_linker_1, # of connection points: 2
#     Edge 77, Type (0, 1), BuildingBlock: KIFKEQ_clean_linker_1, # of connection points: 2
#     Edge 78, Type (0, 1), BuildingBlock: KIFKEQ_clean_linker_1, # of connection points: 2
#     Edge 79, Type (0, 1), BuildingBlock: KIFKEQ_clean_linker_1, # of connection points: 2
#     Edge 80, Type (0, 1), BuildingBlock: KIFKEQ_clean_linker_1, # of connection points: 2
#     Edge 81, Type (0, 1), BuildingBlock: KIFKEQ_clean_linker_1, # of connection points: 2
#     Edge 82, Type (0, 1), BuildingBlock: KIFKEQ_clean_linker_1, # of connection points: 2
#     Edge 83, Type (0, 1), BuildingBlock: KIFKEQ_clean_linker_1, # of connection points: 2
#     Edge 84, Type (0, 1), BuildingBlock: KIFKEQ_clean_linker_1, # of connection points: 2
#     Edge 85, Type (0, 1), BuildingBlock: KIFKEQ_clean_linker_1, # of connection points: 2
#     Edge 86, Type (0, 1), BuildingBlock: KIFKEQ_clean_linker_1, # of connection points: 2
#     Edge 87, Type (0, 1), BuildingBlock: KIFKEQ_clean_linker_1, # of connection points: 2
#     Edge 88, Type (0, 1), BuildingBlock: KIFKEQ_clean_linker_1, # of connection points: 2
#     Edge 89, Type (0, 1), BuildingBlock: KIFKEQ_clean_linker_1, # of connection points: 2
#     Edge 90, Type (0, 1), BuildingBlock: KIFKEQ_clean_linker_1, # of connection points: 2
#     Edge 91, Type (0, 1), BuildingBlock: KIFKEQ_clean_linker_1, # of connection points: 2
#     Edge 92, Type (0, 1), BuildingBlock: KIFKEQ_clean_linker_1, # of connection points: 2
#     Edge 93, Type (0, 1), BuildingBlock: KIFKEQ_clean_linker_1, # of connection points: 2
#     Edge 94, Type (0, 1), BuildingBlock: KIFKEQ_clean_linker_1, # of connection points: 2
#     Edge 95, Type (0, 1), BuildingBlock: KIFKEQ_clean_linker_1, # of connection points: 2
#     Edge 96, Type (0, 1), BuildingBlock: KIFKEQ_clean_linker_1, # of connection points: 2
#     Edge 97, Type (0, 1), BuildingBlock: KIFKEQ_clean_linker_1, # of connection points: 2
#     Edge 98, Type (0, 1), BuildingBlock: KIFKEQ_clean_linker_1, # of connection points: 2
#     Edge 99, Type (0, 1), BuildingBlock: KIFKEQ_clean_linker_1, # of connection points: 2
#     Edge 100, Type (0, 1), BuildingBlock: KIFKEQ_clean_linker_1, # of connection points: 2
#     Edge 101, Type (0, 1), BuildingBlock: KIFKEQ_clean_linker_1, # of connection points: 2
#     Edge 102, Type (0, 1), BuildingBlock: KIFKEQ_clean_linker_1, # of connection points: 2
#     Edge 103, Type (0, 1), BuildingBlock: KIFKEQ_clean_linker_1, # of connection points: 2
#     Edge 104, Type (0, 1), BuildingBlock: KIFKEQ_clean_linker_1, # of connection points: 2
#     Edge 105, Type (0, 1), BuildingBlock: KIFKEQ_clean_linker_1, # of connection points: 2
#     Edge 106, Type (0, 1), BuildingBlock: KIFKEQ_clean_linker_1, # of connection points: 2
#     Edge 107, Type (0, 1), BuildingBlock: KIFKEQ_clean_linker_1, # of connection points: 2
#     Edge 108, Type (0, 1), BuildingBlock: KIFKEQ_clean_linker_1, # of connection points: 2
#     Edge 109, Type (0, 1), BuildingBlock: KIFKEQ_clean_linker_1, # of connection points: 2
#     Edge 110, Type (0, 1), BuildingBlock: KIFKEQ_clean_linker_1, # of connection points: 2
#     Edge 111, Type (0, 1), BuildingBlock: KIFKEQ_clean_linker_1, # of connection points: 2
#     Edge 112, Type (0, 1), BuildingBlock: KIFKEQ_clean_linker_1, # of connection points: 2
#     Edge 113, Type (0, 1), BuildingBlock: KIFKEQ_clean_linker_1, # of connection points: 2
#     Edge 114, Type (0, 1), BuildingBlock: KIFKEQ_clean_linker_1, # of connection points: 2
#     Edge 115, Type (0, 1), BuildingBlock: KIFKEQ_clean_linker_1, # of connection points: 2
#     Edge 116, Type (0, 1), BuildingBlock: KIFKEQ_clean_linker_1, # of connection points: 2
#     Edge 117, Type (0, 1), BuildingBlock: KIFKEQ_clean_linker_1, # of connection points: 2
#     Edge 118, Type (0, 1), BuildingBlock: KIFKEQ_clean_linker_1, # of connection points: 2
#     Edge 119, Type (0, 1), BuildingBlock: KIFKEQ_clean_linker_1, # of connection points: 2
#     Edge 120, Type (0, 1), BuildingBlock: KIFKEQ_clean_linker_1, # of connection points: 2
#     Edge 121, Type (0, 1), BuildingBlock: KIFKEQ_clean_linker_1, # of connection points: 2
#     Edge 122, Type (0, 1), BuildingBlock: KIFKEQ_clean_linker_1, # of connection points: 2
#     Edge 123, Type (0, 1), BuildingBlock: KIFKEQ_clean_linker_1, # of connection points: 2
#     Edge 124, Type (0, 1), BuildingBlock: KIFKEQ_clean_linker_1, # of connection points: 2
#     Edge 125, Type (0, 1), BuildingBlock: KIFKEQ_clean_linker_1, # of connection points: 2
#     Edge 126, Type (0, 1), BuildingBlock: KIFKEQ_clean_linker_1, # of connection points: 2
#     Edge 127, Type (0, 1), BuildingBlock: KIFKEQ_clean_linker_1, # of connection points: 2
#     Edge 128, Type (0, 1), BuildingBlock: KIFKEQ_clean_linker_1, # of connection points: 2
#     Edge 129, Type (0, 1), BuildingBlock: KIFKEQ_clean_linker_1, # of connection points: 2
#     Edge 130, Type (0, 1), BuildingBlock: KIFKEQ_clean_linker_1, # of connection points: 2
#     Edge 131, Type (0, 1), BuildingBlock: KIFKEQ_clean_linker_1, # of connection points: 2
#     Edge 132, Type (0, 1), BuildingBlock: KIFKEQ_clean_linker_1, # of connection points: 2
#     Edge 133, Type (0, 1), BuildingBlock: KIFKEQ_clean_linker_1, # of connection points: 2
#     Edge 134, Type (0, 1), BuildingBlock: KIFKEQ_clean_linker_1, # of connection points: 2
#     Edge 135, Type (0, 1), BuildingBlock: KIFKEQ_clean_linker_1, # of connection points: 2
# Relax obj value: 0.335
# Max RMSD: 0.297
# Mean RMSD: 0.201
data_MOF--net-iac--node1-AZAVOO_clean_sbu_0--node2-VOLQOD_clean_sbu_1--edge1-KIFKEQ_clean_linker_1
_symmetry_space_group_name_H-M    P1
_symmetry_Int_Tables_number       1
_symmetry_cell_setting            triclinic
loop_
_symmetry_equiv_pos_as_xyz
'x, y, z'
_cell_length_a     56.532527
_cell_length_b     53.927138
_cell_length_c     55.026165
_cell_angle_alpha  92.585135
_cell_angle_beta   90.013927
_cell_angle_gamma 91.705645
loop_
_atom_site_label
_atom_site_type_symbol
_atom_site_fract_x
_atom_site_fract_y
_atom_site_fract_z
_atom_type_partial_charge
Mg0 Mg 0.9729 0.31274 0.12318 0.0
O1 O 0.97821 0.27939 0.09655 0.0
O2 O 0.94541 0.27534 0.07366 0.0
Mg3 Mg 0.91866 0.30358 0.08757 0.0
C4 C 0.96617 0.26869 0.07919 0.0
C5 C 0.02109 0.29699 0.14068 0.0
O6 O 0.00833 0.27624 0.141 0.0
O7 O 0.97741 0.33811 0.09211 0.0
O8 O 0.94272 0.33517 0.07261 0.0
O9 O 0.95945 0.28848 0.15126 0.0
O10 O 0.93679 0.30387 0.1231 0.0
C11 C 0.9636 0.34467 0.07545 0.0
C12 C 0.93895 0.28933 0.14098 0.0
O13 O 0.01195 0.31606 0.13229 0.0
Mg14 Mg 0.97176 0.65823 0.36577 0.0
O15 O 0.96058 0.69563 0.38288 0.0
O16 O 0.92104 0.69512 0.38343 0.0
Mg17 Mg 0.90756 0.65797 0.36582 0.0
C18 C 0.94104 0.70594 0.38809 0.0
C19 C 0.02184 0.64893 0.36574 0.0
O20 O 0.01076 0.62866 0.35704 0.0
O21 O 0.96167 0.63974 0.39995 0.0
O22 O 0.92219 0.63662 0.39831 0.0
O23 O 0.97295 0.67337 0.32972 0.0
O24 O 0.94101 0.6551 0.34512 0.0
C25 C 0.94191 0.63235 0.40856 0.0
C26 C 0.95084 0.6668 0.32755 0.0
O27 O 0.00968 0.66513 0.37709 0.0
Mg28 Mg 0.5157 0.78047 0.6747 0.0
O29 O 0.51105 0.74809 0.64626 0.0
O30 O 0.47458 0.75021 0.63061 0.0
Mg31 Mg 0.45587 0.78245 0.64974 0.0
C32 C 0.49468 0.74008 0.6316 0.0
C33 C 0.56656 0.78397 0.69384 0.0
O34 O 0.55436 0.78864 0.71377 0.0
O35 O 0.51866 0.80713 0.64449 0.0
O36 O 0.48172 0.80895 0.63045 0.0
O37 O 0.50215 0.75641 0.70392 0.0
O38 O 0.4799 0.77891 0.68068 0.0
C39 C 0.50361 0.81562 0.63006 0.0
C40 C 0.48135 0.76272 0.69703 0.0
O41 O 0.55557 0.77797 0.67425 0.0
Mg42 Mg 0.48202 0.22349 0.83809 0.0
O43 O 0.47936 0.25652 0.86615 0.0
O44 O 0.44393 0.2526 0.88404 0.0
Mg45 Mg 0.42628 0.2163 0.8705 0.0
C46 C 0.46349 0.26445 0.88089 0.0
C47 C 0.52497 0.23259 0.80874 0.0
O48 O 0.50848 0.22485 0.79311 0.0
O49 O 0.49107 0.19812 0.86802 0.0
O50 O 0.45653 0.19479 0.88742 0.0
O51 O 0.46504 0.24581 0.81129 0.0
O52 O 0.44522 0.22144 0.83605 0.0
C53 C 0.47839 0.18973 0.8851 0.0
C54 C 0.44505 0.23868 0.82043 0.0
O55 O 0.52021 0.23313 0.8313 0.0
Mg56 Mg 0.09447 0.01106 0.26582 0.0
O57 O 0.11865 0.04562 0.2741 0.0
O58 O 0.13611 0.03991 0.30983 0.0
Mg59 Mg 0.12338 0.00269 0.32416 0.0
C60 C 0.13268 0.05291 0.29139 0.0
C61 C 0.07081 0.01133 0.21683 0.0
O62 O 0.05611 -0.00126 0.23047 0.0
O63 O 0.12605 0.98782 0.25615 0.0
O64 O 0.14146 0.98088 0.29253 0.0
O65 O 0.06401 0.02792 0.28566 0.0
O66 O 0.09081 0.00527 0.30263 0.0
C67 C 0.14104 0.97743 0.26938 0.0
C68 C 0.07201 0.01806 0.30494 0.0
O69 O 0.08978 0.02052 0.22636 0.0
Mg70 Mg 0.24751 0.89967 0.52248 0.0
O71 O 0.24654 0.87299 0.48884 0.0
O72 O 0.27918 0.85055 0.48898 0.0
Mg73 Mg 0.30156 0.86389 0.52175 0.0
C74 C 0.2595 0.85606 0.47954 0.0
C75 C 0.19657 0.91671 0.53438 0.0
O76 O 0.20758 0.92551 0.55411 0.0
O77 O 0.23927 0.8678 0.54689 0.0
O78 O 0.27299 0.84709 0.54651 0.0
O79 O 0.26617 0.92874 0.50156 0.0
O80 O 0.28413 0.89996 0.52164 0.0
C81 C 0.2517 0.85001 0.55364 0.0
C82 C 0.28556 0.91819 0.50733 0.0
O83 O 0.20833 0.90566 0.51773 0.0
Mg84 Mg 0.40432 0.02005 0.77603 0.0
O85 O 0.37312 0.99134 0.77181 0.0
O86 O 0.35523 0.9909 0.80817 0.0
Mg87 Mg 0.37366 0.0184 0.83483 0.0
C88 C 0.35684 0.98331 0.78592 0.0
C89 C 0.42619 0.00739 0.72548 0.0
O90 O 0.43685 0.9917 0.73905 0.0
O91 O 0.37787 0.0509 0.77464 0.0
O92 O 0.36004 0.04853 0.81081 0.0
O93 O 0.42841 0.99095 0.78851 0.0
O94 O 0.40542 0.01328 0.81281 0.0
C95 C 0.36253 0.0582 0.79016 0.0
C96 C 0.41984 0.99536 0.80998 0.0
O97 O 0.41047 0.02109 0.73504 0.0
Mg98 Mg 0.30831 0.12836 0.02184 0.0
O99 O 0.29979 0.15713 0.05242 0.0
O100 O 0.33028 0.18446 0.05525 0.0
Mg101 Mg 0.35753 0.17288 0.0266 0.0
C102 C 0.31 0.17654 0.06223 0.0
C103 C 0.25291 0.1294 0.01782 0.0
O104 O 0.25692 0.15353 0.01998 0.0
O105 O 0.30131 0.15587 0.99355 0.0
O106 O 0.33119 0.18377 0.99632 0.0
O107 O 0.32415 0.10522 0.04865 0.0
O108 O 0.34446 0.13352 0.02853 0.0
C109 C 0.31173 0.17555 0.98669 0.0
C110 C 0.34401 0.11708 0.04501 0.0
O111 O 0.27008 0.11488 0.01925 0.0
Mg112 Mg 0.7523 0.4115 0.05226 0.0
O113 O 0.75647 0.39248 0.01431 0.0
O114 O 0.79311 0.37811 0.01194 0.0
Mg115 Mg 0.8119 0.38803 0.04786 0.0
C116 C 0.77268 0.38091 0.00273 0.0
C117 C 0.69897 0.40983 0.06514 0.0
O118 O 0.70772 0.40466 0.08639 0.0
O119 O 0.74943 0.37388 0.06778 0.0
O120 O 0.78612 0.35957 0.06546 0.0
O121 O 0.76451 0.44753 0.03937 0.0
O122 O 0.78833 0.41982 0.05394 0.0
C123 C 0.76425 0.35706 0.07112 0.0
C124 C 0.78578 0.44102 0.0443 0.0
O125 O 0.71286 0.41242 0.04725 0.0
Mg126 Mg 0.90565 0.48795 0.29475 0.0
O127 O 0.8785 0.45774 0.28087 0.0
O128 O 0.85254 0.45383 0.31143 0.0
Mg129 Mg 0.86237 0.48039 0.34311 0.0
C130 C 0.85981 0.44792 0.29002 0.0
C131 C 0.93357 0.51372 0.25791 0.0
O132 O 0.93521 0.52731 0.27831 0.0
O133 O 0.87829 0.51636 0.28814 0.0
O134 O 0.85161 0.51095 0.31748 0.0
O135 O 0.92761 0.45922 0.30952 0.0
O136 O 0.89894 0.47815 0.32983 0.0
C137 C 0.85882 0.52166 0.29849 0.0
C138 C 0.91431 0.46088 0.32865 0.0
O139 O 0.92108 0.49373 0.25759 0.0
Mg140 Mg 0.81929 0.60303 0.47716 0.0
O141 O 0.82322 0.63855 0.50182 0.0
O142 O 0.8617 0.64943 0.50254 0.0
Mg143 Mg 0.88139 0.62192 0.47773 0.0
C144 C 0.84037 0.65296 0.5092 0.0
C145 C 0.76591 0.61278 0.49173 0.0
O146 O 0.77513 0.62025 0.51282 0.0
O147 O 0.82423 0.62552 0.44434 0.0
O148 O 0.86232 0.63745 0.44398 0.0
O149 O 0.82374 0.58042 0.5086 0.0
O150 O 0.85369 0.59313 0.48586 0.0
C151 C 0.84154 0.637 0.43469 0.0
C152 C 0.84634 0.58176 0.50484 0.0
O153 O 0.77947 0.6062 0.47437 0.0
Mg154 Mg 0.64266 0.52701 0.78549 0.0
O155 O 0.66233 0.56468 0.78331 0.0
O156 O 0.68252 0.57118 0.81806 0.0
Mg157 Mg 0.6758 0.53811 0.84194 0.0
C158 C 0.67634 0.57795 0.7971 0.0
C159 C 0.61778 0.53818 0.73696 0.0
O160 O 0.60672 0.55363 0.75184 0.0
O161 O 0.67701 0.50766 0.77863 0.0
O162 O 0.69623 0.51326 0.81403 0.0
O163 O 0.61167 0.54458 0.80288 0.0
O164 O 0.64166 0.53036 0.8233 0.0
C165 C 0.69486 0.50428 0.79212 0.0
C166 C 0.62165 0.54125 0.82361 0.0
O167 O 0.63445 0.52563 0.74511 0.0
Mg168 Mg -0.00119 0.75204 0.89652 0.0
O169 O 0.00068 0.79378 0.8936 0.0
O170 O 0.96395 0.80765 0.89594 0.0
Mg171 Mg 0.93834 0.77379 0.89369 0.0
C172 C 0.98631 0.81149 0.89502 0.0
C173 C 0.04733 0.73603 0.88972 0.0
O174 O 0.03313 0.71747 0.88228 0.0
O175 O 0.98808 0.75775 0.93651 0.0
O176 O 0.94955 0.76592 0.93256 0.0
O177 O -0.00245 0.74569 0.85643 0.0
O178 O 0.96592 0.74898 0.87981 0.0
C179 C 0.96757 0.76162 0.94561 0.0
C180 C 0.97477 0.74582 0.85837 0.0
O181 O 0.03849 0.75383 0.90222 0.0
Mg182 Mg 0.9776 0.18261 0.69272 0.0
O183 O 0.96478 0.14768 0.67104 0.0
O184 O 0.92792 0.154 0.6585 0.0
Mg185 Mg 0.91632 0.19159 0.67429 0.0
C186 C 0.9461 0.14057 0.65934 0.0
C187 C 0.02298 0.15578 0.70612 0.0
O188 O 0.00759 0.14467 0.72017 0.0
O189 O 0.98086 0.20396 0.658 0.0
O190 O 0.943 0.21129 0.6496 0.0
O191 O 0.96418 0.16891 0.72818 0.0
O192 O 0.94356 0.19001 0.70245 0.0
C193 C 0.96513 0.21397 0.64528 0.0
C194 C 0.94456 0.17903 0.72264 0.0
O195 O 0.01564 0.1709 0.69095 0.0
Mg196 Mg 0.48265 0.27075 0.36347 0.0
O197 O 0.49667 0.30195 0.38913 0.0
O198 O 0.46886 0.30996 0.41694 0.0
Mg199 Mg 0.43548 0.28686 0.4063 0.0
C200 C 0.48965 0.31344 0.40842 0.0
C201 C 0.53098 0.28257 0.34067 0.0
O202 O 0.52089 0.30415 0.33981 0.0
O203 O 0.48617 0.24413 0.39377 0.0
O204 O 0.45448 0.25204 0.41701 0.0
O205 O 0.46773 0.2966 0.33745 0.0
O206 O 0.44855 0.28164 0.36887 0.0
C207 C 0.47267 0.23937 0.41169 0.0
C208 C 0.44859 0.29532 0.35033 0.0
O209 O 0.51976 0.26456 0.34995 0.0
Mg210 Mg 0.48968 0.74797 0.19048 0.0
O211 O 0.48188 0.71492 0.16359 0.0
O212 O 0.44961 0.72272 0.14222 0.0
Mg213 Mg 0.43672 0.76079 0.15537 0.0
C214 C 0.46659 0.7087 0.14718 0.0
C215 C 0.5344 0.73247 0.21877 0.0
O216 O 0.52154 0.73993 0.23744 0.0
O217 O 0.50373 0.77146 0.15986 0.0
O218 O 0.47024 0.77896 0.13994 0.0
O219 O 0.46488 0.73205 0.21827 0.0
O220 O 0.45505 0.75799 0.19026 0.0
C221 C 0.49262 0.78137 0.14273 0.0
C222 C 0.44889 0.74498 0.20825 0.0
O223 O 0.52588 0.73305 0.19745 0.0
Mg224 Mg 0.90272 0.07235 0.72497 0.0
O225 O 0.89428 0.032 0.73083 0.0
O226 O 0.88696 0.02365 0.76925 0.0
Mg227 Mg 0.89084 0.06204 0.7893 0.0
C228 C 0.88867 0.01674 0.74688 0.0
C229 C 0.92051 0.05296 0.67581 0.0
O230 O 0.94002 0.06262 0.68568 0.0
O231 O 0.86306 0.07997 0.72868 0.0
O232 O 0.85844 0.07434 0.76855 0.0
O233 O 0.94092 0.0683 0.73489 0.0
O234 O 0.91323 0.07917 0.76115 0.0
C235 C 0.85022 0.07985 0.74789 0.0
C236 C 0.93505 0.07463 0.75695 0.0
O237 O 0.90076 0.05869 0.68527 0.0
Mg238 Mg 0.77517 0.13782 0.50453 0.0
O239 O 0.78281 0.15851 0.54063 0.0
O240 O 0.82154 0.16693 0.54374 0.0
Mg241 Mg 0.83896 0.14721 0.51056 0.0
C242 C 0.8005 0.16877 0.55184 0.0
C243 C 0.72228 0.13982 0.49189 0.0
O244 O 0.73157 0.13739 0.47006 0.0
O245 O 0.78286 0.17348 0.48528 0.0
O246 O 0.82257 0.17502 0.48517 0.0
O247 O 0.77863 0.10068 0.51925 0.0
O248 O 0.80819 0.12176 0.50285 0.0
C249 C 0.80261 0.18308 0.47852 0.0
C250 C 0.80044 0.10153 0.51209 0.0
O251 O 0.73597 0.14388 0.51 0.0
Mg252 Mg 0.64103 0.94168 0.24647 0.0
O253 O 0.65179 0.98006 0.2607 0.0
O254 O 0.66218 0.98095 0.29974 0.0
Mg255 Mg 0.65574 0.94089 0.31122 0.0
C256 C 0.65943 0.99173 0.27981 0.0
C257 C 0.65429 0.9504 0.18988 0.0
O258 O 0.66452 0.92882 0.18877 0.0
O259 O 0.67966 0.93188 0.247 0.0
O260 O 0.68696 0.92934 0.28679 0.0
O261 O 0.60384 0.94817 0.25716 0.0
O262 O 0.6303 0.93214 0.28111 0.0
C263 C 0.69352 0.92761 0.26455 0.0
C264 C 0.60933 0.94033 0.27828 0.0
O265 O 0.64411 0.95787 0.2093 0.0
Mg266 Mg 0.78369 0.88982 0.00943 0.0
O267 O 0.79381 0.87622 0.97099 0.0
O268 O 0.83138 0.86443 0.97138 0.0
Mg269 Mg 0.84555 0.87127 0.01003 0.0
C270 C 0.81193 0.86742 0.96022 0.0
C271 C 0.7396 0.90144 0.9799 0.0
O272 O 0.75677 0.91205 0.96764 0.0
O273 O 0.78168 0.84955 0.0207 0.0
O274 O 0.81998 0.84071 0.02286 0.0
O275 O 0.79573 0.9283 0.00189 0.0
O276 O 0.8191 0.90012 0.01604 0.0
C277 C 0.79812 0.8347 0.02536 0.0
C278 C 0.81678 0.92192 0.00775 0.0
O279 O 0.74481 0.88936 -0.00159 0.0
Mg280 Mg 0.26666 0.65409 0.97463 0.0
O281 O 0.26636 0.6562 0.01563 0.0
O282 O 0.30266 0.66522 0.02962 0.0
Mg283 Mg 0.32748 0.66232 -0.00345 0.0
C284 C 0.28052 0.66169 0.03311 0.0
C285 C 0.21483 0.63806 0.96971 0.0
O286 O 0.2255 0.62052 0.95695 0.0
O287 O 0.27402 0.69585 0.97527 0.0
O288 O 0.31286 0.69885 0.9838 0.0
O289 O 0.27171 0.61339 0.97325 0.0
O290 O 0.30094 0.64158 0.97336 0.0
C291 C 0.29342 0.70855 0.97788 0.0
C292 C 0.2942 0.61855 0.97275 0.0
O293 O 0.22688 0.65708 0.97739 0.0
Mg294 Mg 0.08351 0.52475 0.78592 0.0
O295 O 0.1166 0.54996 0.78825 0.0
O296 O 0.12752 0.55454 0.8273 0.0
Mg297 Mg 0.10088 0.53262 0.8499 0.0
C298 C 0.13064 0.55877 0.80485 0.0
C299 C 0.10482 0.51143 0.73326 0.0
O300 O 0.12292 0.50285 0.74489 0.0
O301 O 0.10625 0.49187 0.79259 0.0
O302 O 0.11495 0.49639 0.83221 0.0
O303 O 0.05979 0.55679 0.79084 0.0
O304 O 0.07462 0.53596 0.82084 0.0
C305 C 0.11603 0.48434 0.81171 0.0
C306 C 0.0624 0.55417 0.81394 0.0
O307 O 0.0876 0.52053 0.7451 0.0
Mg308 Mg 0.27101 0.4114 0.5333 0.0
O309 O 0.26279 0.38801 0.49891 0.0
O310 O 0.29038 0.35999 0.49206 0.0
Mg311 Mg 0.31892 0.36857 0.52147 0.0
C312 C 0.2708 0.36958 0.48663 0.0
C313 C 0.22413 0.43089 0.51337 0.0
O314 O 0.23847 0.43598 0.49536 0.0
O315 O 0.26159 0.3781 0.55556 0.0
O316 O 0.2931 0.35426 0.55046 0.0
O317 O 0.29166 0.44006 0.51335 0.0
O318 O 0.30726 0.40715 0.52877 0.0
C319 C 0.27314 0.35892 0.56033 0.0
C320 C 0.3102 0.42716 0.5171 0.0
O321 O 0.23257 0.42224 0.53255 0.0
Mg322 Mg 0.39173 0.53264 0.26403 0.0
O323 O 0.37612 0.49636 0.27637 0.0
O324 O 0.3665 0.49761 0.31549 0.0
Mg325 Mg 0.37965 0.53645 0.3296 0.0
C326 C 0.36703 0.48624 0.29468 0.0
C327 C 0.39673 0.49496 0.22232 0.0
O328 O 0.40762 0.48538 0.24062 0.0
O329 O 0.35434 0.54747 0.26625 0.0
O330 O 0.35019 0.55191 0.30677 0.0
O331 O 0.42881 0.52375 0.27378 0.0
O332 O 0.40377 0.54251 0.29875 0.0
C333 C 0.34259 0.55434 0.28514 0.0
C334 C 0.42452 0.53407 0.29495 0.0
O335 O 0.38759 0.51617 0.22548 0.0
O336 O 0.02635 0.10524 0.97971 0.0
Zn337 Zn 0.03948 0.07527 0.9614 0.0
O338 O 0.02697 0.04425 0.97475 0.0
Zn339 Zn 0.05229 0.0234 0.9861 0.0
Zn340 Zn 0.00557 0.05172 0.00173 0.0
Zn341 Zn 0.00961 0.02585 0.94936 0.0
O342 O 0.05166 0.98885 0.9693 0.0
O343 O 0.02333 0.99314 0.94201 0.0
O344 O 0.07488 0.07708 0.96583 0.0
O345 O 0.08357 0.0408 0.98087 0.0
O346 O 0.05039 0.01952 0.02237 0.0
O347 O 0.01787 0.03928 0.03295 0.0
O348 O 0.97302 0.03638 0.99598 0.0
O349 O 0.03171 0.07778 0.92539 0.0
O350 O 0.97597 0.01899 0.95885 0.0
O351 O 0.01062 0.04282 0.91832 0.0
C352 C 0.01228 0.10733 -0.00227 0.0
C353 C 0.03927 0.98043 0.95125 0.0
C354 C 0.03582 0.02704 0.03853 0.0
C355 C 0.0899 0.06208 0.97355 0.0
C356 C 0.96397 0.0239 0.97792 0.0
C357 C 0.02005 0.06278 0.91102 0.0
O358 O 0.0031 0.08837 0.00744 0.0
O359 O 0.19897 0.71738 0.20241 0.0
Zn360 Zn 0.19694 0.71673 0.23888 0.0
O361 O 0.21225 0.74555 0.25509 0.0
Zn362 Zn 0.23431 0.73372 0.27857 0.0
Zn363 Zn 0.22845 0.76536 0.23152 0.0
Zn364 Zn 0.18925 0.76556 0.27212 0.0
O365 O 0.23161 0.75199 0.31073 0.0
O366 O 0.20082 0.7759 0.30598 0.0
O367 O 0.21367 0.68601 0.24688 0.0
O368 O 0.23073 0.69691 0.28225 0.0
O369 O 0.26752 0.73969 0.26721 0.0
O370 O 0.2635 0.76513 0.23694 0.0
O371 O 0.21662 0.80044 0.23231 0.0
O372 O 0.1641 0.71179 0.25203 0.0
O373 O 0.18405 0.79701 0.25485 0.0
O374 O 0.1592 0.74554 0.27608 0.0
C375 C 0.21199 0.73083 0.18906 0.0
C376 C 0.21777 0.76858 0.31885 0.0
C377 C 0.27645 0.75306 0.2509 0.0
C378 C 0.22443 0.68045 0.26606 0.0
C379 C 0.19766 0.80941 0.24111 0.0
C380 C 0.15189 0.72442 0.26731 0.0
O381 O 0.22393 0.74944 0.19806 0.0
O382 O 0.51829 0.95179 0.50284 0.0
Zn383 Zn 0.50369 0.97605 0.48155 0.0
O384 O 0.5108 0.00962 0.4946 0.0
Zn385 Zn 0.48146 0.02608 0.50298 0.0
Zn386 Zn 0.5312 0.00965 0.52342 0.0
Zn387 Zn 0.52677 0.02754 0.4697 0.0
O388 O 0.4807 0.0602 0.48966 0.0
O389 O 0.51009 0.05827 0.46296 0.0
O390 O 0.46845 0.96904 0.48091 0.0
O391 O 0.45327 0.00582 0.49037 0.0
O392 O 0.4776 0.02912 0.53927 0.0
O393 O 0.51306 0.02057 0.55345 0.0
O394 O 0.56094 0.03161 0.51984 0.0
O395 O 0.51615 0.97006 0.44734 0.0
O396 O 0.55901 0.03903 0.48051 0.0
O397 O 0.52991 0.00756 0.4387 0.0
C398 C 0.53249 0.95344 0.52084 0.0
C399 C 0.49297 0.06965 0.47283 0.0
C400 C 0.4917 0.02673 0.557 0.0
C401 C 0.45076 0.98299 0.48362 0.0
C402 C 0.56982 0.04081 0.5008 0.0
C403 C 0.52555 0.9849 0.43252 0.0
O404 O 0.53988 0.97445 0.52989 0.0
O405 O 0.24249 0.27353 0.8369 0.0
Zn406 Zn 0.24041 0.28884 0.80428 0.0
O407 O 0.23002 0.26369 0.77961 0.0
Zn408 Zn 0.25521 0.25607 0.75653 0.0
Zn409 Zn 0.21982 0.23358 0.79556 0.0
Zn410 Zn 0.2042 0.27622 0.76138 0.0
O411 O 0.2474 0.26452 0.72242 0.0
O412 O 0.21368 0.28414 0.72722 0.0
O413 O 0.27368 0.30068 0.79782 0.0
O414 O 0.28399 0.27626 0.76623 0.0
O415 O 0.26468 0.22044 0.75709 0.0
O416 O 0.2416 0.20621 0.78625 0.0
O417 O 0.1872 0.22163 0.7844 0.0
O418 O 0.21849 0.31795 0.80627 0.0
O419 O 0.17809 0.25066 0.75884 0.0
O420 O 0.19216 0.30722 0.77742 0.0
C421 C 0.23456 0.2534 0.84552 0.0
C422 C 0.23081 0.277 0.71391 0.0
C423 C 0.25809 0.20316 0.77079 0.0
C424 C 0.28899 0.2932 0.78242 0.0
C425 C 0.17331 0.23028 0.76883 0.0
C426 C 0.19971 0.32213 0.79446 0.0
O427 O 0.22319 0.23715 0.8322 0.0
O428 O 0.96643 0.9513 0.44647 0.0
Zn429 Zn 0.94491 0.93263 0.46928 0.0
O430 O 0.95736 0.93714 0.50183 0.0
Zn431 Zn 0.97095 0.90786 0.51492 0.0
Zn432 Zn 0.9801 0.96406 0.50458 0.0
Zn433 Zn 0.93104 0.94244 0.52316 0.0
O434 O 0.96098 0.90726 0.55076 0.0
O435 O 0.9245 0.91144 0.54017 0.0
O436 O 0.94343 0.89526 0.46118 0.0
O437 O 0.95978 0.87847 0.49344 0.0
O438 O 0.0066 0.91077 0.51472 0.0
O439 O 0.01191 0.95167 0.51355 0.0
O440 O 0.97026 0.98923 0.53031 0.0
O441 O 0.91254 0.94876 0.46687 0.0
O442 O 0.93823 0.97151 0.54647 0.0
O443 O 0.90258 0.95115 0.50582 0.0
C444 C 0.97995 0.97048 0.45044 0.0
C445 C 0.93947 0.90967 0.55701 0.0
C446 C 0.02011 0.93013 0.51564 0.0
C447 C 0.94975 0.87629 0.47256 0.0
C448 C 0.95379 0.9891 0.54613 0.0
C449 C 0.8978 0.95423 0.48369 0.0
O450 O 0.98482 0.97877 0.472 0.0
O451 O 0.3139 0.75731 0.76799 0.0
Zn452 Zn 0.28552 0.77552 0.77978 0.0
O453 O 0.25714 0.75863 0.76825 0.0
Zn454 Zn 0.23341 0.78256 0.75999 0.0
Zn455 Zn 0.26396 0.73562 0.74156 0.0
Zn456 Zn 0.2467 0.739 0.79395 0.0
O457 O 0.20295 0.77758 0.78033 0.0
O458 O 0.21262 0.74312 0.79814 0.0
O459 O 0.28626 0.80892 0.76641 0.0
O460 O 0.24817 0.81783 0.76307 0.0
O461 O 0.22604 0.77775 0.72392 0.0
O462 O 0.25076 0.74855 0.71107 0.0
O463 O 0.24919 0.70171 0.74744 0.0
O464 O 0.28656 0.78047 0.81642 0.0
O465 O 0.25134 0.70275 0.78771 0.0
O466 O 0.26001 0.75137 0.82558 0.0
C467 C 0.31675 0.74138 0.75052 0.0
C468 C 0.19759 0.7593 0.79353 0.0
C469 C 0.2354 0.76463 0.70679 0.0
C470 C 0.27014 0.82423 0.76247 0.0
C471 C 0.24789 0.6908 0.7675 0.0
C472 C 0.27475 0.76864 0.83205 0.0
O473 O 0.29937 0.73236 0.73788 0.0
O474 O 0.57524 0.01661 0.03381 0.0
Zn475 Zn 0.55434 0.00803 0.00439 0.0
O476 O 0.52616 0.98846 0.01417 0.0
Zn477 Zn 0.52697 0.95496 -0.00061 0.0
Zn478 Zn 0.5238 0.98839 0.04946 0.0
Zn479 Zn 0.49768 0.00259 0.00321 0.0
O480 O 0.50346 0.94906 0.9716 0.0
O481 O 0.48081 0.98148 0.97807 0.0
O482 O 0.57565 0.98673 0.9832 0.0
O483 O 0.55943 0.94893 0.98614 0.0
O484 O 0.52071 0.93015 0.02492 0.0
O485 O 0.5206 0.95297 0.05977 0.0
O486 O 0.49689 0.00918 0.0631 0.0
O487 O 0.54506 0.03957 0.98756 0.0
O488 O 0.47529 0.01159 0.02969 0.0
O489 O 0.50599 0.03406 0.98802 0.0
C490 C 0.57242 0.01263 0.0563 0.0
C491 C 0.48538 0.96135 0.96641 0.0
C492 C 0.51943 0.93202 0.04804 0.0
C493 C 0.57639 0.96322 0.97962 0.0
C494 C 0.4781 0.01531 0.05245 0.0
C495 C 0.52434 0.04687 0.98276 0.0
O496 O 0.55367 0.00219 0.06416 0.0
O497 O 0.16763 0.29222 0.26226 0.0
Zn498 Zn 0.19244 0.27973 0.28482 0.0
O499 O 0.22293 0.28896 0.2713 0.0
Zn500 Zn 0.24366 0.26093 0.26876 0.0
Zn501 Zn 0.22215 0.30471 0.24029 0.0
Zn502 Zn 0.23549 0.31519 0.29224 0.0
O503 O 0.27511 0.27019 0.28534 0.0
O504 O 0.26918 0.30935 0.29787 0.0
O505 O 0.18985 0.24246 0.28551 0.0
O506 O 0.22686 0.22995 0.28067 0.0
O507 O 0.25068 0.2523 0.23362 0.0
O508 O 0.23481 0.28229 0.21329 0.0
O509 O 0.24293 0.33647 0.24156 0.0
O510 O 0.18829 0.29255 0.32042 0.0
O511 O 0.23342 0.34857 0.27888 0.0
O512 O 0.22048 0.3169 0.32414 0.0
C513 C 0.1684 0.3041 0.24265 0.0
C514 C 0.28256 0.29093 0.29509 0.0
C515 C 0.24593 0.26212 0.21366 0.0
C516 C 0.20497 0.22535 0.28484 0.0
C517 C 0.24324 0.35304 0.25881 0.0
C518 C 0.20187 0.3074 0.33303 0.0
O519 O 0.18799 0.31066 0.23288 0.0
O520 O 0.49807 0.50374 0.95794 0.0
Zn521 Zn 0.47338 0.48461 0.97634 0.0
O522 O 0.48014 0.48741 0.01137 0.0
Zn523 Zn 0.48584 0.45465 0.02404 0.0
Zn524 Zn 0.50741 0.51005 0.01788 0.0
Zn525 Zn 0.45295 0.50072 0.02784 0.0
O526 O 0.46343 0.44584 0.05139 0.0
O527 O 0.43979 0.47793 0.05174 0.0
O528 O 0.4741 0.44874 0.96434 0.0
O529 O 0.48305 0.42822 -0.00287 0.0
O530 O 0.51873 0.45361 0.03718 0.0
O531 O 0.53337 0.49199 0.03386 0.0
O532 O 0.49895 0.54004 0.03944 0.0
O533 O 0.44119 0.49769 0.96799 0.0
O534 O 0.4606 0.53322 0.04562 0.0
O535 O 0.42705 0.50597 0.00498 0.0
C536 C 0.5158 0.51772 0.96421 0.0
C537 C 0.44544 0.45715 0.05956 0.0
C538 C 0.53551 0.46971 0.0401 0.0
C539 C 0.47837 0.42857 0.9745 0.0
C540 C 0.47937 0.54656 0.04888 0.0
C541 C 0.42451 0.50454 0.98206 0.0
O542 O 0.52121 0.52198 0.98652 0.0
O543 O 0.80628 0.21949 0.23986 0.0
Zn544 Zn 0.78162 0.23686 0.25985 0.0
O545 O 0.74972 0.22749 0.24837 0.0
Zn546 Zn 0.73297 0.25627 0.23739 0.0
Zn547 Zn 0.75135 0.20155 0.22224 0.0
Zn548 Zn 0.73273 0.21488 0.27543 0.0
O549 O 0.70228 0.26223 0.2555 0.0
O550 O 0.70256 0.23173 0.28114 0.0
O551 O 0.78765 0.27264 0.25401 0.0
O552 O 0.75406 0.2872 0.24025 0.0
O553 O 0.72545 0.25098 0.20207 0.0
O554 O 0.73609 0.2126 0.19157 0.0
O555 O 0.7372 0.16839 0.23279 0.0
O556 O 0.78662 0.23295 0.29604 0.0
O557 O 0.72543 0.17911 0.2702 0.0
O558 O 0.75073 0.21958 0.30614 0.0
C559 C 0.80496 0.20609 0.22023 0.0
C560 C 0.69272 0.2503 0.27256 0.0
C561 C 0.72737 0.23318 0.18629 0.0
C562 C 0.7757 0.29037 0.24647 0.0
C563 C 0.72772 0.16288 0.253 0.0
C564 C 0.77168 0.22649 0.31206 0.0
O565 O 0.78515 0.19821 0.21148 0.0
O566 O 0.02762 0.47006 0.56002 0.0
Zn567 Zn 0.01106 0.4595 0.5285 0.0
O568 O 0.99038 0.43102 0.53267 0.0
Zn569 Zn 0.00182 0.40197 0.51618 0.0
Zn570 Zn 0.9872 0.42683 0.56681 0.0
Zn571 Zn 0.95867 0.43627 0.52194 0.0
O572 O 0.98337 0.39476 0.48498 0.0
O573 O 0.9497 0.41336 0.49393 0.0
O574 O 0.03819 0.44965 0.50672 0.0
O575 O 0.03626 0.40841 0.50832 0.0
O576 O -0.00292 0.37316 0.53808 0.0
O577 O 0.98319 0.3903 0.57274 0.0
O578 O 0.96039 0.44899 0.57738 0.0
O579 O 0.99262 0.48794 0.5161 0.0
O580 O 0.93611 0.43286 0.54956 0.0
O581 O 0.95641 0.47109 0.51082 0.0
C582 C 0.02965 0.45854 0.57959 0.0
C583 C 0.96197 0.3994 0.47995 0.0
C584 C 0.98901 0.37128 0.55963 0.0
C585 C 0.04751 0.42848 0.50345 0.0
C586 C 0.94003 0.44809 0.56746 0.0
C587 C 0.97098 0.4895 0.50988 0.0
O588 O 0.01635 0.43981 0.58392 0.0
O589 O 0.80394 0.73096 0.26991 0.0
Zn590 Zn 0.80084 0.74003 0.23487 0.0
O591 O 0.77567 0.71989 0.21868 0.0
Zn592 Zn 0.78912 0.6964 0.1945 0.0
Zn593 Zn 0.75731 0.70272 0.24314 0.0
Zn594 Zn 0.75506 0.74121 0.20233 0.0
O595 O 0.78108 0.70446 0.15957 0.0
O596 O 0.7572 0.73587 0.16661 0.0
O597 O 0.83222 0.73215 0.22057 0.0
O598 O 0.82446 0.69774 0.198 0.0
O599 O 0.78044 0.66103 0.20243 0.0
O600 O 0.76145 0.66637 0.23751 0.0
O601 O 0.72229 0.70949 0.24188 0.0
O602 O 0.79577 0.77681 0.23347 0.0
O603 O 0.72144 0.73544 0.21177 0.0
O604 O 0.76395 0.7767 0.20984 0.0
C605 C 0.7903 0.71944 0.28426 0.0
C606 C 0.76783 0.7212 0.1519 0.0
C607 C 0.77064 0.65223 0.2212 0.0
C608 C 0.83916 0.71332 0.20808 0.0
C609 C 0.71085 0.72281 0.22767 0.0
C610 C 0.78019 0.78831 0.22209 0.0
O611 O 0.77065 0.70961 0.2769 0.0
O612 O 0.74479 0.25982 0.71628 0.0
Zn613 Zn 0.7339 0.25876 0.75055 0.0
O614 O 0.75298 0.28029 0.77221 0.0
Zn615 Zn 0.76347 0.26099 0.79929 0.0
Zn616 Zn 0.77954 0.2945 0.75366 0.0
Zn617 Zn 0.73348 0.30619 0.78566 0.0
O618 O 0.75511 0.27612 0.83237 0.0
O619 O 0.73576 0.30913 0.82194 0.0
O620 O 0.73764 0.22336 0.75836 0.0
O621 O 0.7537 0.22464 0.79513 0.0
O622 O 0.79846 0.26006 0.79833 0.0
O623 O 0.81015 0.28313 0.76786 0.0
O624 O 0.77883 0.3325 0.75466 0.0
O625 O 0.6997 0.26632 0.75281 0.0
O626 O 0.74518 0.33878 0.77484 0.0
O627 O 0.69927 0.30026 0.77711 0.0
C628 C 0.76364 0.26771 0.70624 0.0
C629 C 0.74454 0.29607 0.83814 0.0
C630 C 0.81477 0.26915 0.78525 0.0
C631 C 0.7452 0.21236 0.77663 0.0
C632 C 0.76329 0.34692 0.76368 0.0
C633 C 0.68851 0.28342 0.76406 0.0
O634 O 0.77908 0.28087 0.71832 0.0
O635 O 0.74579 0.80255 0.72698 0.0
Zn636 Zn 0.77239 0.78537 0.74211 0.0
O637 O 0.7991 0.78426 0.71999 0.0
Zn638 Zn 0.80639 0.74976 0.71222 0.0
Zn639 Zn 0.79263 0.80262 0.69066 0.0
Zn640 Zn 0.82614 0.79936 0.73637 0.0
O641 O 0.83734 0.74012 0.72723 0.0
O642 O 0.85345 0.77738 0.73623 0.0
O643 O 0.75966 0.75093 0.74796 0.0
O644 O 0.78078 0.72617 0.72372 0.0
O645 O 0.81028 0.74541 0.6763 0.0
O646 O 0.80193 0.78152 0.66052 0.0
O647 O 0.81098 0.83657 0.69178 0.0
O648 O 0.78049 0.80181 0.7747 0.0
O649 O 0.83619 0.83026 0.72161 0.0
O650 O 0.81911 0.80889 0.77113 0.0
C651 C 0.74149 0.80882 0.70544 0.0
C652 C 0.85497 0.75397 0.73398 0.0
C653 C 0.80838 0.75902 0.65811 0.0
C654 C 0.76395 0.72943 0.73881 0.0
C655 C 0.82869 0.84366 0.70509 0.0
C656 C 0.80024 0.80956 0.78369 0.0
O657 O 0.75726 0.80823 0.68884 0.0
O658 O 0.53 0.58317 0.51099 0.0
Zn659 Zn 0.5444 0.55576 0.49014 0.0
O660 O 0.53825 0.52319 0.5041 0.0
Zn661 Zn 0.56784 0.50801 0.51316 0.0
Zn662 Zn 0.51746 0.52648 0.53235 0.0
Zn663 Zn 0.52284 0.50142 0.48009 0.0
O664 O 0.57096 0.47264 0.49922 0.0
O665 O 0.54017 0.47063 0.47411 0.0
O666 O 0.57956 0.56318 0.48944 0.0
O667 O 0.59557 0.52887 0.50223 0.0
O668 O 0.56996 0.50733 0.54942 0.0
O669 O 0.53367 0.51531 0.56249 0.0
O670 O 0.4855 0.50869 0.52685 0.0
O671 O 0.5323 0.55665 0.45529 0.0
O672 O 0.48984 0.49164 0.48973 0.0
O673 O 0.52115 0.51712 0.44861 0.0
C674 C 0.51787 0.58279 0.5305 0.0
C675 C 0.55843 0.46122 0.48283 0.0
C676 C 0.55504 0.50983 0.56661 0.0
C677 C 0.5976 0.55059 0.49409 0.0
C678 C 0.47734 0.49569 0.50862 0.0
C679 C 0.52472 0.53881 0.44111 0.0
O680 O 0.5119 0.56246 0.54001 0.0
O681 O 0.98979 0.52205 0.00635 0.0
Zn682 Zn 0.97677 0.55633 0.0056 0.0
O683 O 0.98925 0.57795 0.03211 0.0
Zn684 Zn 0.96351 0.58867 0.05375 0.0
Zn685 Zn 0.0139 0.56077 0.04929 0.0
Zn686 Zn 0.00331 0.60705 0.01875 0.0
O687 O 0.95914 0.6262 0.05521 0.0
O688 O 0.99106 0.63745 0.03454 0.0
O689 O 0.94232 0.5499 0.01015 0.0
O690 O 0.93279 0.5701 0.04465 0.0
O691 O 0.97171 0.57959 0.08745 0.0
O692 O 0.00675 0.56178 0.08522 0.0
O693 O 0.04703 0.57517 0.04294 0.0
O694 O 0.98232 0.5707 0.97294 0.0
O695 O 0.03787 0.60863 0.02338 0.0
O696 O -0.00166 0.60784 0.98282 0.0
C697 C 0.00302 0.51188 0.0215 0.0
C698 C 0.97344 0.64294 0.04779 0.0
C699 C 0.98904 0.56942 0.09745 0.0
C700 C 0.92732 0.5554 0.02658 0.0
C701 C 0.05313 0.59505 0.03258 0.0
C702 C 0.99054 0.5918 0.96692 0.0
O703 O 0.01299 0.52456 0.03892 0.0
H704 H 0.00084 0.23845 0.09386 0.0
H705 H 0.9537 0.2502 0.03386 0.0
H706 H 0.01424 0.20042 0.07297 0.0
H707 H 0.96742 0.21236 0.01293 0.0
H708 H 0.01575 0.15227 0.97631 0.0
H709 H 0.00708 0.1932 0.995 0.0
H710 H 0.98957 0.15912 0.06241 0.0
H711 H -0.00225 0.11842 0.04387 0.0
C712 C -0.00637 0.23314 0.07608 0.0
C713 C 0.97606 0.24716 0.06559 0.0
C714 C 0.00124 0.21138 0.06419 0.0
C715 C 0.99177 0.20354 0.04143 0.0
C716 C 0.97506 0.21814 0.03041 0.0
C717 C 0.96712 0.23966 0.04247 0.0
C718 C 0.01008 0.15358 0.99512 0.0
C719 C 0.00728 0.13216 0.00859 0.0
C720 C 0.00512 0.17693 0.00575 0.0
C721 C -0.00216 0.1792 0.03013 0.0
C722 C -0.00459 0.15785 0.04365 0.0
C723 C -0.00011 0.13456 0.03294 0.0
H724 H 0.04994 0.68987 0.37789 0.0
H725 H 0.0443 0.62604 0.32761 0.0
H726 H 0.08179 0.70724 0.35344 0.0
H727 H 0.07485 0.64393 0.30252 0.0
H728 H 0.11531 0.74672 0.2912 0.0
H729 H 0.08549 0.72681 0.31634 0.0
H730 H 0.11405 0.65513 0.2966 0.0
H731 H 0.14276 0.67493 0.27048 0.0
C732 C 0.05573 0.6794 0.36182 0.0
C733 C 0.04445 0.65671 0.35459 0.0
C734 C 0.0737 0.68952 0.34756 0.0
C735 C 0.08051 0.67733 0.32561 0.0
C736 C 0.07023 0.65387 0.3193 0.0
C737 C 0.05261 0.64357 0.33376 0.0
C738 C 0.11479 0.72667 0.29185 0.0
C739 C 0.13125 0.71239 0.27877 0.0
C740 C 0.09799 0.71525 0.30658 0.0
C741 C 0.0976 0.68935 0.30894 0.0
C742 C 0.11359 0.67506 0.29512 0.0
C743 C 0.13005 0.68642 0.28002 0.0
H744 H 0.547 0.83938 0.62783 0.0
H745 H 0.47891 0.83257 0.59188 0.0
H746 H 0.56006 0.87002 0.59895 0.0
H747 H 0.49195 0.86319 0.56329 0.0
H748 H 0.55141 0.9498 0.56632 0.0
H749 H 0.54856 0.91361 0.59124 0.0
H750 H 0.52082 0.86937 0.52974 0.0
H751 H 0.52342 0.9055 0.50481 0.0
C752 C 0.53487 0.84428 0.61371 0.0
C753 C 0.51184 0.83364 0.61224 0.0
C754 C 0.54238 0.86182 0.59722 0.0
C755 C 0.5271 0.86882 0.57881 0.0
C756 C 0.50427 0.85781 0.57705 0.0
C757 C 0.4967 0.84047 0.5936 0.0
C758 C 0.54539 0.93219 0.55788 0.0
C759 C 0.53712 0.93065 0.53375 0.0
C760 C 0.54378 0.91145 0.57218 0.0
C761 C 0.53395 0.88888 0.56252 0.0
C762 C 0.52796 0.88673 0.53775 0.0
C763 C 0.52956 0.90741 0.52348 0.0
H764 H 0.40087 0.23298 0.84029 0.0
H765 H 0.44077 0.27556 0.7887 0.0
H766 H 0.36602 0.25668 0.83208 0.0
H767 H 0.40565 0.29894 0.78024 0.0
H768 H 0.30976 0.30859 0.82535 0.0
H769 H 0.35089 0.30178 0.83578 0.0
H770 H 0.36619 0.28404 0.76023 0.0
H771 H 0.32508 0.29066 0.74973 0.0
C772 C 0.40231 0.24751 0.82743 0.0
C773 C 0.4236 0.25239 0.81523 0.0
C774 C 0.38242 0.26125 0.82289 0.0
C775 C 0.38337 0.27989 0.80584 0.0
C776 C 0.4046 0.28482 0.79363 0.0
C777 C 0.42459 0.2713 0.7984 0.0
C778 C 0.32212 0.30439 0.81079 0.0
C779 C 0.31416 0.2995 0.7868 0.0
C780 C 0.34559 0.30029 0.81683 0.0
C781 C 0.36139 0.29176 0.79888 0.0
C782 C 0.35426 0.29047 0.77441 0.0
C783 C 0.33074 0.29425 0.76841 0.0
H784 H 0.90408 0.73717 0.3958 0.0
H785 H 0.97931 0.73177 0.40785 0.0
H786 H 0.90511 0.7783 0.41638 0.0
H787 H 0.98021 0.7728 0.42834 0.0
H788 H 0.96729 0.83285 0.4876 0.0
H789 H 0.96439 0.79192 0.46713 0.0
H790 H 0.92253 0.82142 0.41015 0.0
H791 H 0.92534 0.8626 0.43064 0.0
C792 C 0.92083 0.74472 0.40279 0.0
C793 C 0.94161 0.73111 0.4002 0.0
C794 C 0.92141 0.76834 0.41447 0.0
C795 C 0.94271 0.77871 0.42405 0.0
C796 C 0.96348 0.76515 0.42139 0.0
C797 C 0.96296 0.74169 0.40951 0.0
C798 C 0.95731 0.83068 0.4708 0.0
C799 C 0.94661 0.85111 0.46074 0.0
C800 C 0.9558 0.80721 0.45899 0.0
C801 C 0.94339 0.80351 0.43696 0.0
C802 C 0.93213 0.82371 0.42718 0.0
C803 C 0.93382 0.84731 0.43888 0.0
H804 H 0.45062 0.73039 0.67374 0.0
H805 H 0.46362 0.77073 0.74201 0.0
H806 H 0.41169 0.71672 0.68806 0.0
H807 H 0.42421 0.75905 0.7559 0.0
H808 H 0.35413 0.73513 0.78046 0.0
H809 H 0.39556 0.73207 0.76889 0.0
H810 H 0.37538 0.73367 0.69304 0.0
H811 H 0.33405 0.73465 0.70481 0.0
C812 C 0.44508 0.73604 0.69196 0.0
C813 C 0.45983 0.75144 0.70691 0.0
C814 C 0.42272 0.7285 0.70012 0.0
C815 C 0.41442 0.73702 0.72306 0.0
C816 C 0.42989 0.75163 0.73833 0.0
C817 C 0.45247 0.75855 0.73038 0.0
C818 C 0.35867 0.73416 0.76132 0.0
C819 C 0.34106 0.73532 0.7435 0.0
C820 C 0.38242 0.73267 0.75463 0.0
C821 C 0.38911 0.73321 0.73 0.0
C822 C 0.37116 0.73289 0.71218 0.0
C823 C 0.34737 0.73361 0.71888 0.0
H824 H 0.46331 0.17988 0.93074 0.0
H825 H 0.51751 0.16153 0.87816 0.0
H826 H 0.47803 0.14892 0.9573 0.0
H827 H 0.53165 0.12969 0.90433 0.0
H828 H 0.55753 0.07938 0.96353 0.0
H829 H 0.54956 0.11756 0.94255 0.0
H830 H 0.47458 0.10497 0.95379 0.0
H831 H 0.48234 0.06804 0.97489 0.0
C832 C 0.47842 0.16926 0.92489 0.0
C833 C 0.48897 0.17281 0.90219 0.0
C834 C 0.48685 0.15148 0.94008 0.0
C835 C 0.50573 0.13647 0.93271 0.0
C836 C 0.51717 0.141 0.91061 0.0
C837 C 0.50894 0.15912 0.89554 0.0
C838 C 0.53942 0.08502 0.96168 0.0
C839 C 0.52063 0.07056 0.97084 0.0
C840 C 0.53484 0.10679 0.94961 0.0
C841 C 0.51144 0.11446 0.94669 0.0
C842 C 0.49285 0.10006 0.95616 0.0
C843 C 0.49736 0.07857 0.9681 0.0
H844 H 0.04318 0.26083 0.16425 0.0
H845 H 0.05071 0.33799 0.14657 0.0
H846 H 0.07844 0.26533 0.18958 0.0
H847 H 0.08604 0.34246 0.1722 0.0
H848 H 0.16274 0.32789 0.20017 0.0
H849 H 0.12742 0.32738 0.17469 0.0
H850 H 0.08849 0.2877 0.22899 0.0
H851 H 0.12374 0.2879 0.25441 0.0
C852 C 0.05245 0.27871 0.1656 0.0
C853 C 0.04405 0.29909 0.15352 0.0
C854 C 0.07252 0.28133 0.18031 0.0
C855 C 0.0847 0.30436 0.18319 0.0
C856 C 0.07694 0.32451 0.17033 0.0
C857 C 0.05674 0.32193 0.15566 0.0
C858 C 0.14656 0.31938 0.20688 0.0
C859 C 0.14617 0.30766 0.22922 0.0
C860 C 0.12634 0.31914 0.19227 0.0
C861 C 0.10538 0.30711 0.19969 0.0
C862 C 0.1046 0.29664 0.2226 0.0
C863 C 0.12475 0.29696 0.23725 0.0
H864 H 0.0996 0.03083 0.18197 0.0
H865 H 0.03037 -0.00317 0.19254 0.0
H866 H 0.09104 0.03353 0.13863 0.0
H867 H 0.02199 -0.00064 0.14933 0.0
H868 H 0.00651 0.03587 0.07721 0.0
H869 H 0.01518 0.032 0.12019 0.0
H870 H 0.08443 0.00516 0.10182 0.0
H871 H 0.0759 0.00922 0.0587 0.0
C872 C 0.08257 0.02398 0.17507 0.0
C873 C 0.06565 0.01367 0.1907 0.0
C874 C 0.07775 0.02535 0.15024 0.0
C875 C 0.05586 0.01661 0.14061 0.0
C876 C 0.03892 0.00645 0.15627 0.0
C877 C 0.04378 0.00493 0.18102 0.0
C878 C 0.02354 0.02899 0.08227 0.0
C879 C 0.04051 0.02287 0.06448 0.0
C880 C 0.02847 0.0267 0.10691 0.0
C881 C 0.05051 0.01837 0.11436 0.0
C882 C 0.06739 0.01192 0.09661 0.0
C883 C 0.06241 0.01404 0.07191 0.0
H884 H 0.22887 0.87116 0.4451 0.0
H885 H 0.27209 0.80991 0.46327 0.0
H886 H 0.21769 0.84938 0.40685 0.0
H887 H 0.26003 0.78756 0.42577 0.0
H888 H 0.18769 0.79601 0.3476 0.0
H889 H 0.19609 0.81592 0.38753 0.0
H890 H 0.26724 0.78862 0.38415 0.0
H891 H 0.25847 0.76789 0.3451 0.0
C892 C 0.23571 0.85289 0.44105 0.0
C893 C 0.25156 0.84235 0.45702 0.0
C894 C 0.22918 0.8403 0.41919 0.0
C895 C 0.23808 0.81674 0.41304 0.0
C896 C 0.25329 0.80592 0.42953 0.0
C897 C 0.26013 0.81868 0.45113 0.0
C898 C 0.20505 0.79416 0.35554 0.0
C899 C 0.22237 0.78029 0.34326 0.0
C900 C 0.20993 0.8057 0.37835 0.0
C901 C 0.23235 0.80387 0.38918 0.0
C902 C 0.24961 0.78999 0.37675 0.0
C903 C 0.24462 0.7782 0.3542 0.0
H904 H 0.45896 0.98072 0.70017 0.0
H905 H 0.41218 0.04206 0.69384 0.0
H906 H 0.47472 0.98798 0.65994 0.0
H907 H 0.42835 0.04962 0.65358 0.0
H908 H 0.51595 0.02172 0.59949 0.0
H909 H 0.49956 0.01858 0.64018 0.0
H910 H 0.42974 0.03117 0.61223 0.0
H911 H 0.44613 0.03485 0.57158 0.0
C912 C 0.452 0.99575 0.69018 0.0
C913 C 0.43434 0.01084 0.70026 0.0
C914 C 0.46121 6e-05 0.66719 0.0
C915 C 0.45304 0.0196 0.65368 0.0
C916 C 0.43497 0.03437 0.66349 0.0
C917 C 0.42572 0.03004 0.68656 0.0
C918 C 0.49715 0.02419 0.60203 0.0
C919 C 0.48235 0.02834 0.58218 0.0
C920 C 0.48773 0.02217 0.62534 0.0
C921 C 0.46328 0.02422 0.62937 0.0
C922 C 0.44865 0.02958 0.60977 0.0
C923 C 0.45807 0.03163 0.58643 0.0
H924 H 0.28222 0.15605 0.9515 0.0
H925 H 0.3152 0.22533 0.97784 0.0
H926 H 0.26207 0.17731 0.9201 0.0
H927 H 0.29385 0.2472 0.94705 0.0
H928 H 0.27327 0.27173 0.87065 0.0
H929 H 0.29136 0.25455 0.90591 0.0
H930 H 0.23167 0.20306 0.9116 0.0
H931 H 0.21438 0.21931 0.87525 0.0
C932 C 0.28499 0.17596 0.95069 0.0
C933 C 0.30037 0.189 0.96712 0.0
C934 C 0.27314 0.18829 0.93281 0.0
C935 C 0.2759 0.21417 0.93108 0.0
C936 C 0.29139 0.22725 0.94755 0.0
C937 C 0.30365 0.21476 0.96525 0.0
C938 C 0.26376 0.25706 0.87971 0.0
C939 C 0.24246 0.24672 0.86999 0.0
C940 C 0.27417 0.24717 0.90006 0.0
C941 C 0.26333 0.22698 0.9115 0.0
C942 C 0.24105 0.21801 0.90285 0.0
C943 C 0.2309 0.22753 0.88217 0.0
H944 H 0.02558 0.02892 0.31153 0.0
H945 H 0.08786 0.00785 0.35018 0.0
H946 H 0.00159 0.02186 0.34771 0.0
H947 H 0.06398 0.00102 0.38621 0.0
H948 H 0.01643 0.00492 0.45212 0.0
H949 H 0.03783 0.02211 0.41798 0.0
H950 H 0.99112 0.9809 0.36779 0.0
H951 H 0.96964 0.96353 0.4019 0.0
C952 C 0.03425 0.02341 0.32791 0.0
C953 C 0.05859 0.01875 0.32796 0.0
C954 C 0.02049 0.0192 0.34851 0.0
C955 C 0.03091 0.0107 0.36964 0.0
C956 C 0.05549 0.00769 0.3702 0.0
C957 C 0.06917 0.01152 0.34952 0.0
C958 C 0.01048 -0.00027 0.43383 0.0
C959 C 0.99143 0.98265 0.42973 0.0
C960 C 0.0228 0.00957 0.41431 0.0
C961 C 0.01615 0.00281 0.39029 0.0
C962 C -0.00353 0.98661 0.38615 0.0
C963 C 0.9843 0.97652 0.40568 0.0
H964 H 0.22415 0.86261 0.59236 0.0
H965 H 0.25781 0.80036 0.55635 0.0
H966 H 0.21481 0.83759 0.62684 0.0
H967 H 0.24676 0.77439 0.58987 0.0
H968 H 0.26256 0.75277 0.66751 0.0
H969 H 0.26106 0.76985 0.62789 0.0
H970 H 0.19636 0.80667 0.64771 0.0
H971 H 0.19897 0.79072 0.68838 0.0
C972 C 0.22882 0.84325 0.59153 0.0
C973 C 0.24205 0.83348 0.572 0.0
C974 C 0.2233 0.82873 0.61126 0.0
C975 C 0.23039 0.80391 0.61156 0.0
C976 C 0.24174 0.79362 0.59082 0.0
C977 C 0.24792 0.80839 0.57147 0.0
C978 C 0.24773 0.76413 0.66333 0.0
C979 C 0.2311 0.77072 0.68126 0.0
C980 C 0.24673 0.77387 0.64035 0.0
C981 C 0.22873 0.79005 0.63442 0.0
C982 C 0.2109 0.7949 0.65175 0.0
C983 C 0.21224 0.78558 0.67502 0.0
H984 H 0.39115 0.97882 0.84594 0.0
H985 H 0.46308 0.97793 0.81995 0.0
H986 H 0.40319 0.9596 0.88303 0.0
H987 H 0.47561 0.96007 0.85754 0.0
H988 H 0.44145 0.97684 0.95637 0.0
H989 H 0.42282 0.97657 0.91699 0.0
H990 H 0.47757 0.92989 0.88704 0.0
H991 H 0.49699 0.93122 0.92681 0.0
C992 C 0.40955 0.97447 0.84823 0.0
C993 C 0.42634 0.98043 0.83052 0.0
C994 C 0.4165 0.96342 0.86944 0.0
C995 C 0.4405 0.95881 0.87367 0.0
C996 C 0.45695 0.96312 0.85499 0.0
C997 C 0.44985 0.97361 0.8335 0.0
C998 C 0.44928 0.96602 0.94154 0.0
C999 C 0.47102 0.95461 0.94454 0.0
C1000 C 0.43841 0.96564 0.91884 0.0
C1001 C 0.44889 0.95361 0.89854 0.0
C1002 C 0.46933 0.93988 0.90214 0.0
C1003 C 0.48034 0.94039 0.92498 0.0
H1004 H 0.32037 0.22342 0.08091 0.0
H1005 H 0.27352 0.15977 0.09042 0.0
H1006 H 0.30304 0.24439 0.11657 0.0
H1007 H 0.25634 0.18082 0.12621 0.0
H1008 H 0.25943 0.21422 0.20614 0.0
H1009 H 0.27294 0.19399 0.16832 0.0
H1010 H 0.26337 0.26169 0.13099 0.0
H1011 H 0.24966 0.28203 0.16885 0.0
C1012 C 0.30629 0.21395 0.09051 0.0
C1013 C 0.29842 0.18986 0.0829 0.0
C1014 C 0.29629 0.22604 0.11083 0.0
C1015 C 0.27843 0.21418 0.12416 0.0
C1016 C 0.27023 0.19029 0.11634 0.0
C1017 C 0.28 0.17831 0.0958 0.0
C1018 C 0.26013 0.2248 0.18987 0.0
C1019 C 0.25355 0.24977 0.19052 0.0
C1020 C 0.2677 0.21315 0.16819 0.0
C1021 C 0.26916 0.22628 0.14676 0.0
C1022 C 0.2625 0.2512 0.14732 0.0
C1023 C 0.25458 0.26278 0.16894 0.0
H1024 H 0.21143 0.15414 0.01611 0.0
H1025 H 0.24084 0.08154 0.00401 0.0
H1026 H 0.17261 0.13723 0.00351 0.0
H1027 H 0.20239 0.06491 0.99063 0.0
H1028 H 0.12513 0.03846 0.99626 0.0
H1029 H 0.16447 0.05474 0.00656 0.0
H1030 H 0.15093 0.12112 0.96826 0.0
H1031 H 0.11107 0.10516 0.9586 0.0
C1032 C 0.20961 0.1346 0.01073 0.0
C1033 C 0.22915 0.11916 0.0112 0.0
C1034 C 0.18743 0.12496 0.00327 0.0
C1035 C 0.18441 0.09973 0.99596 0.0
C1036 C 0.204 0.08434 -0.00354 0.0
C1037 C 0.22608 0.09391 0.0041 0.0
C1038 C 0.13058 0.0564 0.98974 0.0
C1039 C 0.11487 0.07056 0.9767 0.0
C1040 C 0.15322 0.06572 0.99562 0.0
C1041 C 0.16081 0.08933 0.98841 0.0
C1042 C 0.14545 0.10308 0.97452 0.0
C1043 C 0.12269 0.09382 0.96877 0.0
H1044 H 0.66345 0.40495 0.09866 0.0
H1045 H 0.67794 0.42939 0.0262 0.0
H1046 H 0.623 0.41976 0.09572 0.0
H1047 H 0.6379 0.44421 0.02353 0.0
H1048 H 0.57771 0.49551 0.03923 0.0
H1049 H 0.61679 0.47989 0.04732 0.0
H1050 H 0.58517 0.41016 0.06806 0.0
H1051 H 0.54586 0.42563 0.0599 0.0
C1052 C 0.65798 0.41326 0.08209 0.0
C1053 C 0.67391 0.41616 0.06274 0.0
C1054 C 0.6349 0.42171 0.08045 0.0
C1055 C 0.62763 0.43345 0.05958 0.0
C1056 C 0.6433 0.43562 0.03999 0.0
C1057 C 0.66616 0.42695 0.04149 0.0
C1058 C 0.57899 0.477 0.0459 0.0
C1059 C 0.55871 0.46169 0.04863 0.0
C1060 C 0.60136 0.46805 0.05039 0.0
C1061 C 0.60386 0.44376 0.05796 0.0
C1062 C 0.5836 0.42896 0.06221 0.0
C1063 C 0.56118 0.43781 0.05746 0.0
H1064 H 0.87476 0.41756 0.25205 0.0
H1065 H 0.8137 0.4345 0.29634 0.0
H1066 H 0.85323 0.3813 0.23374 0.0
H1067 H 0.79253 0.39843 0.27846 0.0
H1068 H 0.75531 0.33516 0.2399 0.0
H1069 H 0.77489 0.37625 0.24256 0.0
H1070 H 0.84215 0.34223 0.25309 0.0
H1071 H 0.82285 0.30146 0.2501 0.0
C1072 C 0.85664 0.41384 0.25749 0.0
C1073 C 0.84607 0.42851 0.27596 0.0
C1074 C 0.84435 0.3931 0.24709 0.0
C1075 C 0.82128 0.38693 0.25483 0.0
C1076 C 0.81018 0.40277 0.27194 0.0
C1077 C 0.82246 0.42328 0.28242 0.0
C1078 C 0.77432 0.33648 0.24238 0.0
C1079 C 0.78745 0.31511 0.24531 0.0
C1080 C 0.78552 0.35997 0.24387 0.0
C1081 C 0.81002 0.36244 0.24816 0.0
C1082 C 0.8233 0.34097 0.24951 0.0
C1083 C 0.81214 0.31758 0.24814 0.0
H1084 H 0.83434 0.55853 0.546 0.0
H1085 H 0.89421 0.57433 0.49981 0.0
H1086 H 0.8575 0.52943 0.56771 0.0
H1087 H 0.91756 0.545 0.52191 0.0
H1088 H 0.95629 0.49615 0.57291 0.0
H1089 H 0.93498 0.53299 0.56244 0.0
H1090 H 0.87111 0.48788 0.55175 0.0
H1091 H 0.8925 0.45105 0.56177 0.0
C1092 C 0.85261 0.55614 0.54071 0.0
C1093 C 0.86228 0.56835 0.52075 0.0
C1094 C 0.86584 0.5394 0.55318 0.0
C1095 C 0.88916 0.53457 0.54619 0.0
C1096 C 0.89956 0.5483 0.52759 0.0
C1097 C 0.8862 0.56502 0.5149 0.0
C1098 C 0.93748 0.49427 0.56926 0.0
C1099 C 0.92593 0.47073 0.56844 0.0
C1100 C 0.92539 0.51532 0.56293 0.0
C1101 C 0.90143 0.51331 0.55621 0.0
C1102 C 0.88952 0.49008 0.5571 0.0
C1103 C 0.9017 0.46898 0.56293 0.0
H1104 H 0.14402 0.07922 0.25132 0.0
H1105 H 0.14869 0.08239 0.3298 0.0
H1106 H 0.16354 0.12044 0.25058 0.0
H1107 H 0.16758 0.1237 0.32894 0.0
H1108 H 0.16691 0.20933 0.31078 0.0
H1109 H 0.15082 0.16683 0.31271 0.0
H1110 H 0.20686 0.14049 0.26598 0.0
H1111 H 0.22344 0.18298 0.26452 0.0
C1112 C 0.14919 0.08869 0.26836 0.0
C1113 C 0.14482 0.07757 0.29061 0.0
C1114 C 0.16045 0.11216 0.26792 0.0
C1115 C 0.16702 0.12511 0.28971 0.0
C1116 C 0.16265 0.11404 0.31192 0.0
C1117 C 0.1519 0.0904 0.31236 0.0
C1118 C 0.17595 0.19443 0.30115 0.0
C1119 C 0.19646 0.19943 0.28757 0.0
C1120 C 0.16677 0.17017 0.30228 0.0
C1121 C 0.17759 0.15053 0.2894 0.0
C1122 C 0.19819 0.15541 0.27597 0.0
C1123 C 0.20773 0.17963 0.2753 0.0
H1124 H 0.32195 0.89026 0.4906 0.0
H1125 H 0.30086 0.96586 0.50355 0.0
H1126 H 0.36135 0.90488 0.47905 0.0
H1127 H 0.3406 0.98074 0.49394 0.0
H1128 H 0.41123 0.00508 0.4677 0.0
H1129 H 0.37072 0.98837 0.46763 0.0
H1130 H 0.39554 0.92033 0.49637 0.0
H1131 H 0.43595 0.93646 0.49444 0.0
C1132 C 0.32589 0.91004 0.49108 0.0
C1133 C 0.30859 0.92697 0.49816 0.0
C1134 C 0.34852 0.9185 0.48462 0.0
C1135 C 0.35456 0.94408 0.48588 0.0
C1136 C 0.33678 0.96096 0.49227 0.0
C1137 C 0.31396 0.95248 0.498 0.0
C1138 C 0.40791 0.98637 0.47353 0.0
C1139 C 0.42663 0.97206 0.48112 0.0
C1140 C 0.38466 0.97682 0.47376 0.0
C1141 C 0.37953 0.95303 0.48235 0.0
C1142 C 0.39855 0.9385 0.4892 0.0
C1143 C 0.42183 0.9478 0.48827 0.0
H1144 H 0.87107 0.5554 0.26494 0.0
H1145 H 0.81106 0.52622 0.30432 0.0
H1146 H 0.84513 0.58174 0.24308 0.0
H1147 H 0.78484 0.55193 0.2817 0.0
H1148 H 0.75582 0.62843 0.26149 0.0
H1149 H 0.775 0.59387 0.27892 0.0
H1150 H 0.8152 0.58223 0.21278 0.0
H1151 H 0.79675 0.61776 0.19567 0.0
C1152 C 0.85229 0.55456 0.26887 0.0
C1153 C 0.84316 0.5389 0.28652 0.0
C1154 C 0.83732 0.56939 0.25605 0.0
C1155 C 0.81278 0.56872 0.26032 0.0
C1156 C 0.80365 0.55305 0.27804 0.0
C1157 C 0.8187 0.5384 0.29109 0.0
C1158 C 0.76826 0.61812 0.25032 0.0
C1159 C 0.77528 0.62639 0.22744 0.0
C1160 C 0.77928 0.59816 0.26036 0.0
C1161 C 0.79727 0.58578 0.24758 0.0
C1162 C 0.80203 0.59199 0.22346 0.0
C1163 C 0.79118 0.61216 0.21349 0.0
H1164 H 0.73849 0.49666 0.81187 0.0
H1165 H 0.69323 0.4738 0.75112 0.0
H1166 H 0.76547 0.46371 0.80037 0.0
H1167 H 0.71941 0.44037 0.74035 0.0
H1168 H 0.76303 0.37701 0.72494 0.0
H1169 H 0.75493 0.42151 0.72756 0.0
H1170 H 0.76047 0.42101 0.80598 0.0
H1171 H 0.7691 0.37732 0.80301 0.0
C1172 C 0.73445 0.48483 0.79589 0.0
C1173 C 0.71339 0.48747 0.7828 0.0
C1174 C 0.7499 0.46591 0.78929 0.0
C1175 C 0.74443 0.44896 0.76973 0.0
C1176 C 0.72442 0.45306 0.75542 0.0
C1177 C 0.70917 0.47216 0.7618 0.0
C1178 C 0.76362 0.38689 0.74252 0.0
C1179 C 0.76663 0.37398 0.76378 0.0
C1180 C 0.75869 0.41225 0.74412 0.0
C1181 C 0.75656 0.42484 0.76702 0.0
C1182 C 0.76212 0.41222 0.788 0.0
C1183 C 0.76701 0.38706 0.78637 0.0
H1184 H 0.02994 0.82978 0.88208 0.0
H1185 H 0.96557 0.85015 0.91935 0.0
H1186 H 0.04844 0.86992 0.89527 0.0
H1187 H 0.98438 0.88977 0.93294 0.0
H1188 H 0.03909 0.93913 0.97774 0.0
H1189 H 0.0286 0.89684 0.96218 0.0
H1190 H 0.0311 0.92141 0.8887 0.0
H1191 H 0.04081 0.96379 0.90421 0.0
C1192 C 0.01969 0.84291 0.89282 0.0
C1193 C -0.00374 0.8369 0.89959 0.0
C1194 C 0.03033 0.86569 0.90045 0.0
C1195 C 0.01787 0.88246 0.91542 0.0
C1196 C -0.00567 0.87682 0.92166 0.0
C1197 C 0.98352 0.85433 0.91362 0.0
C1198 C 0.03833 0.93524 0.95826 0.0
C1199 C 0.0408 0.95454 0.94212 0.0
C1200 C 0.03214 0.9112 0.94941 0.0
C1201 C 0.02897 0.90618 0.92433 0.0
C1202 C 0.03357 0.92497 0.90808 0.0
C1203 C 0.03919 0.94908 0.91694 0.0
H1204 H 0.89751 0.17675 0.71388 0.0
H1205 H 0.94937 0.19139 0.77073 0.0
H1206 H 0.86831 0.19929 0.73812 0.0
H1207 H 0.92001 0.21431 0.79494 0.0
H1208 H 0.85418 0.28121 0.75901 0.0
H1209 H 0.88756 0.25434 0.75147 0.0
H1210 H 0.86227 0.20571 0.80647 0.0
H1211 H 0.8289 0.23257 0.8145 0.0
C1212 C 0.90231 0.18387 0.73199 0.0
C1213 C 0.92561 0.18268 0.7404 0.0
C1214 C 0.88571 0.19679 0.74576 0.0
C1215 C 0.8923 0.20872 0.768 0.0
C1216 C 0.91475 0.20516 0.77777 0.0
C1217 C 0.93137 0.19191 0.76403 0.0
C1218 C 0.85616 0.2654 0.77023 0.0
C1219 C 0.83853 0.25868 0.78685 0.0
C1220 C 0.87525 0.25007 0.7659 0.0
C1221 C 0.877 0.22798 0.77822 0.0
C1222 C 0.86109 0.22272 0.79684 0.0
C1223 C 0.84202 0.23814 0.80132 0.0
H1224 H 0.44165 0.21493 0.44086 0.0
H1225 H 0.51318 0.21324 0.41313 0.0
H1226 H 0.44639 0.17441 0.45764 0.0
H1227 H 0.5182 0.17313 0.43071 0.0
H1228 H 0.50678 0.08998 0.4308 0.0
H1229 H 0.50263 0.13246 0.41926 0.0
H1230 H 0.4659 0.14944 0.48662 0.0
H1231 H 0.46946 0.10635 0.49792 0.0
C1232 C 0.45858 0.20617 0.43884 0.0
C1233 C 0.47693 0.21704 0.42531 0.0
C1234 C 0.46131 0.18298 0.44855 0.0
C1235 C 0.4825 0.17039 0.44509 0.0
C1236 C 0.50141 0.1821 0.43306 0.0
C1237 C 0.4986 0.20513 0.42312 0.0
C1238 C 0.49772 0.10272 0.44314 0.0
C1239 C 0.48851 0.09491 0.4653 0.0
C1240 C 0.49556 0.12715 0.43664 0.0
C1241 C 0.48436 0.14442 0.45226 0.0
C1242 C 0.4746 0.13651 0.47421 0.0
C1243 C 0.47659 0.11188 0.48064 0.0
H1244 H 0.56506 0.71608 0.18388 0.0
H1245 H 0.56049 0.73497 0.26092 0.0
H1246 H 0.60751 0.7114 0.18781 0.0
H1247 H 0.60327 0.73038 0.26472 0.0
H1248 H 0.68081 0.70029 0.25999 0.0
H1249 H 0.63737 0.6994 0.25936 0.0
H1250 H 0.63877 0.74481 0.19671 0.0
H1251 H 0.68162 0.74577 0.19718 0.0
C1252 C 0.57305 0.71897 0.20172 0.0
C1253 C 0.55946 0.7263 0.22203 0.0
C1254 C 0.59738 0.71634 0.20394 0.0
C1255 C 0.60866 0.72093 0.22649 0.0
C1256 C 0.59495 0.72673 0.24713 0.0
C1257 C 0.57051 0.72944 0.24491 0.0
C1258 C 0.67179 0.71013 0.24616 0.0
C1259 C 0.6847 0.72299 0.22856 0.0
C1260 C 0.64699 0.70964 0.24584 0.0
C1261 C 0.6348 0.72173 0.22777 0.0
C1262 C 0.64773 0.73491 0.21055 0.0
C1263 C 0.67233 0.73558 0.21096 0.0
H1264 H 0.9106 0.11985 0.6305 0.0
H1265 H 0.98154 0.10717 0.65562 0.0
H1266 H 0.91211 0.08273 0.60383 0.0
H1267 H 0.98279 0.06978 0.62935 0.0
H1268 H 0.98839 0.02362 0.55851 0.0
H1269 H 0.98566 0.05938 0.58678 0.0
H1270 H 0.91305 0.03827 0.60234 0.0
H1271 H 0.91572 0.00257 0.57381 0.0
C1272 C 0.92642 0.10901 0.63056 0.0
C1273 C 0.94606 0.11668 0.64501 0.0
C1274 C 0.92723 0.08764 0.61532 0.0
C1275 C 0.94768 0.07346 0.61421 0.0
C1276 C 0.96698 0.08064 0.62932 0.0
C1277 C 0.96618 0.10198 0.64455 0.0
C1278 C 0.97185 0.02657 0.56801 0.0
C1279 C 0.9523 0.01024 0.56399 0.0
C1280 C 0.97033 0.04699 0.58435 0.0
C1281 C 0.94917 0.05163 0.59693 0.0
C1282 C 0.92954 0.03538 0.59275 0.0
C1283 C 0.93114 0.01477 0.5766 0.0
H1284 H 0.55512 0.23964 0.33678 0.0
H1285 H 0.56068 0.31752 0.32136 0.0
H1286 H 0.59429 0.23355 0.31985 0.0
H1287 H 0.60032 0.31145 0.30483 0.0
H1288 H 0.66034 0.28146 0.25389 0.0
H1289 H 0.62105 0.29049 0.27026 0.0
H1290 H 0.63462 0.24515 0.33122 0.0
H1291 H 0.67323 0.23575 0.31482 0.0
C1292 C 0.56476 0.25551 0.3299 0.0
C1293 C 0.55486 0.27908 0.33052 0.0
C1294 C 0.58726 0.25204 0.32029 0.0
C1295 C 0.60045 0.27208 0.3112 0.0
C1296 C 0.59048 0.29564 0.31156 0.0
C1297 C 0.56787 0.29912 0.32115 0.0
C1298 C 0.65491 0.27359 0.27085 0.0
C1299 C 0.66973 0.25763 0.28288 0.0
C1300 C 0.6325 0.27881 0.28025 0.0
C1301 C 0.62466 0.26821 0.30183 0.0
C1302 C 0.63991 0.25308 0.31425 0.0
C1303 C 0.66211 0.24779 0.30486 0.0
H1304 H 0.51511 0.8235 0.15913 0.0
H1305 H 0.49576 0.78111 0.09353 0.0
H1306 H 0.524 0.85962 0.13567 0.0
H1307 H 0.50682 0.81641 0.06936 0.0
H1308 H 0.49248 0.89046 0.0375 0.0
H1309 H 0.49059 0.85246 0.0596 0.0
H1310 H 0.54422 0.88329 0.1095 0.0
H1311 H 0.54421 0.92203 0.08846 0.0
C1312 C 0.51392 0.82167 0.13946 0.0
C1313 C 0.50485 0.7997 0.12802 0.0
C1314 C 0.51901 0.84241 0.12588 0.0
C1315 C 0.51569 0.84135 0.10045 0.0
C1316 C 0.50874 0.8184 0.08892 0.0
C1317 C 0.50286 0.79795 0.10264 0.0
C1318 C 0.50366 0.88903 0.05335 0.0
C1319 C 0.51819 0.90915 0.06157 0.0
C1320 C 0.50293 0.86708 0.06587 0.0
C1321 C 0.51739 0.86443 0.08644 0.0
C1322 C 0.5324 0.8846 0.09418 0.0
C1323 C 0.53249 0.90684 0.08211 0.0
H1324 H 0.98802 0.74356 0.81059 0.0
H1325 H 0.92698 0.73843 0.85761 0.0
H1326 H 0.96229 0.73697 0.775 0.0
H1327 H 0.90144 0.73202 0.82221 0.0
H1328 H 0.85858 0.71175 0.75896 0.0
H1329 H 0.89117 0.70313 0.7863 0.0
H1330 H 0.93202 0.76446 0.75823 0.0
H1331 H 0.89964 0.77295 0.73104 0.0
C1332 C 0.96915 0.74094 0.81332 0.0
C1333 C 0.95943 0.74189 0.83684 0.0
C1334 C 0.9545 0.73701 0.79298 0.0
C1335 C 0.92994 0.73371 0.79587 0.0
C1336 C 0.92037 0.73398 0.81943 0.0
C1337 C 0.93495 0.73809 0.83971 0.0
C1338 C 0.87495 0.72261 0.7579 0.0
C1339 C 0.87655 0.74326 0.74332 0.0
C1340 C 0.89348 0.71784 0.77366 0.0
C1341 C 0.91384 0.73349 0.77471 0.0
C1342 C 0.91655 0.7521 0.75783 0.0
C1343 C 0.89798 0.75702 0.74232 0.0
H1344 H 0.97982 0.05633 0.75758 0.0
H1345 H 0.92953 0.09719 0.80148 0.0
H1346 H 0.00734 0.05772 0.79214 0.0
H1347 H 0.95683 0.09864 0.83565 0.0
H1348 H 0.01242 0.10791 0.89196 0.0
H1349 H -0.00305 0.11462 0.85116 0.0
H1350 H 0.00343 0.03654 0.8321 0.0
H1351 H 0.01862 0.02991 0.87257 0.0
C1352 C 0.97477 0.06579 0.77448 0.0
C1353 C 0.9524 0.07627 0.777 0.0
C1354 C 0.99051 0.06668 0.79417 0.0
C1355 C 0.98426 0.07843 0.8165 0.0
C1356 C 0.96231 0.08982 0.81857 0.0
C1357 C 0.94652 0.08864 0.79909 0.0
C1358 C 0.01121 0.09242 0.87873 0.0
C1359 C 0.01633 0.06836 0.8854 0.0
C1360 C 0.00229 0.0962 0.85549 0.0
C1361 C -0.00121 0.07603 0.83859 0.0
C1362 C 0.00605 0.05244 0.84465 0.0
C1363 C 0.01458 0.04862 0.86788 0.0
H1364 H 0.83103 0.18376 0.58903 0.0
H1365 H 0.7596 0.19163 0.56325 0.0
H1366 H 0.82244 0.21072 0.62473 0.0
H1367 H 0.75143 0.21939 0.59782 0.0
H1368 H 0.73433 0.23947 0.67632 0.0
H1369 H 0.74414 0.21713 0.63895 0.0
H1370 H 0.81428 0.25141 0.64094 0.0
H1371 H 0.80469 0.27311 0.67956 0.0
C1372 C 0.81357 0.19137 0.59091 0.0
C1373 C 0.79587 0.18515 0.57357 0.0
C1374 C 0.8087 0.20705 0.61123 0.0
C1375 C 0.78613 0.21715 0.61439 0.0
C1376 C 0.76879 0.2115 0.59649 0.0
C1377 C 0.7735 0.19554 0.57656 0.0
C1378 C 0.7518 0.24261 0.66876 0.0
C1379 C 0.76874 0.25807 0.68113 0.0
C1380 C 0.75742 0.22981 0.64708 0.0
C1381 C 0.78008 0.23232 0.63678 0.0
C1382 C 0.79678 0.24868 0.64853 0.0
C1383 C 0.79118 0.2614 0.6705 0.0
H1384 H 0.61379 0.92128 0.32307 0.0
H1385 H 0.56817 0.9656 0.28065 0.0
H1386 H 0.58924 0.92933 0.35878 0.0
H1387 H 0.54342 0.97338 0.3164 0.0
H1388 H 0.5352 0.01249 0.39341 0.0
H1389 H 0.55171 -0.00139 0.35456 0.0
H1390 H 0.54892 0.92286 0.37703 0.0
H1391 H 0.53237 0.93681 0.41627 0.0
C1392 C 0.59839 0.93253 0.32131 0.0
C1393 C 0.59312 0.94316 0.29917 0.0
C1394 C 0.58418 0.9369 0.3417 0.0
C1395 C 0.56449 0.95206 0.34037 0.0
C1396 C 0.55864 0.96181 0.31796 0.0
C1397 C 0.57278 0.95731 0.29752 0.0
C1398 C 0.53781 0.99282 0.39 0.0
C1399 C 0.53272 0.97576 0.40799 0.0
C1400 C 0.54709 0.98485 0.36764 0.0
C1401 C 0.55165 0.95967 0.36281 0.0
C1402 C 0.54571 0.94241 0.38039 0.0
C1403 C 0.53615 0.95038 0.40276 0.0
H1404 H 0.7545 0.81102 0.02766 0.0
H1405 H 0.82799 0.80348 0.04682 0.0
H1406 H 0.74411 0.77436 0.05025 0.0
H1407 H 0.81762 0.768 0.07026 0.0
H1408 H 0.79911 0.70758 0.11574 0.0
H1409 H 0.80402 0.72754 0.077 0.0
H1410 H 0.74074 0.76882 0.09165 0.0
H1411 H 0.7353 0.74807 0.12922 0.0
C1412 C 0.76846 0.80142 0.03649 0.0
C1413 C 0.79199 0.81051 0.03586 0.0
C1414 C 0.76252 0.78042 0.04951 0.0
C1415 C 0.77992 0.76835 0.06255 0.0
C1416 C 0.80367 0.77646 0.06034 0.0
C1417 C 0.80963 0.79714 0.04705 0.0
C1418 C 0.78578 0.72018 0.11014 0.0
C1419 C 0.7672 0.72678 0.12583 0.0
C1420 C 0.78872 0.73187 0.08806 0.0
C1421 C 0.77323 0.75047 0.08146 0.0
C1422 C 0.75312 0.75471 0.09591 0.0
C1423 C 0.75009 0.74291 0.11773 0.0
H1424 H 0.88465 0.02049 0.6609 0.0
H1425 H 0.95999 0.03407 0.6544 0.0
H1426 H 0.88813 0.981 0.63852 0.0
H1427 H 0.9633 0.99589 0.63001 0.0
H1428 H 0.96983 0.92172 0.59528 0.0
H1429 H 0.96405 0.95374 0.62715 0.0
H1430 H 0.89254 0.96259 0.60149 0.0
H1431 H 0.89768 0.92941 0.57149 0.0
C1432 C 0.9019 0.01532 0.65419 0.0
C1433 C 0.92198 0.03067 0.65919 0.0
C1434 C 0.90395 0.99257 0.64123 0.0
C1435 C 0.92605 0.98487 0.63226 0.0
C1436 C 0.94606 0.00051 0.6371 0.0
C1437 C 0.94408 0.02288 0.65064 0.0
C1438 C 0.95262 0.92993 0.59707 0.0
C1439 C 0.93443 0.92331 0.58042 0.0
C1440 C 0.9494 0.94871 0.61509 0.0
C1441 C 0.92807 0.96164 0.61655 0.0
C1442 C 0.90924 0.9533 0.60128 0.0
C1443 C 0.91225 0.93415 0.58379 0.0
H1444 H 0.83681 0.19135 0.44473 0.0
H1445 H 0.76742 0.21438 0.46756 0.0
H1446 H 0.83108 0.20946 0.40566 0.0
H1447 H 0.76217 0.23381 0.42887 0.0
H1448 H 0.74364 0.21294 0.34946 0.0
H1449 H 0.75357 0.21161 0.39185 0.0
H1450 H 0.82394 0.24083 0.37721 0.0
H1451 H 0.81404 0.2415 0.33387 0.0
C1452 C 0.82072 0.20124 0.4418 0.0
C1453 C 0.80225 0.20084 0.4589 0.0
C1454 C 0.81747 0.21175 0.41935 0.0
C1455 C 0.79584 0.22237 0.41382 0.0
C1456 C 0.77872 0.22495 0.43227 0.0
C1457 C 0.78176 0.21399 0.4545 0.0
C1458 C 0.76123 0.21929 0.35512 0.0
C1459 C 0.77813 0.22707 0.33814 0.0
C1460 C 0.76684 0.21889 0.37967 0.0
C1461 C 0.7895 0.22639 0.38811 0.0
C1462 C 0.80633 0.23484 0.37128 0.0
C1463 C 0.80069 0.23519 0.34648 0.0
H1464 H 0.6486 0.00013 0.18931 0.0
H1465 H 0.65578 0.93482 0.14183 0.0
H1466 H 0.6372 0.02384 0.15478 0.0
H1467 H 0.64368 0.95838 0.10728 0.0
H1468 H 0.57069 0.02839 0.10354 0.0
H1469 H 0.59914 0.01921 0.13461 0.0
H1470 H 0.64745 0.99277 0.07903 0.0
H1471 H 0.6186 0.00209 0.04774 0.0
C1472 C 0.64814 0.99096 0.17137 0.0
C1473 C 0.65247 0.96548 0.16828 0.0
C1474 C 0.64166 0.00457 0.15161 0.0
C1475 C 0.63909 0.9929 0.12839 0.0
C1476 C 0.64562 0.96799 0.12491 0.0
C1477 C 0.65238 0.9544 0.14472 0.0
C1478 C 0.58781 0.02167 0.09793 0.0
C1479 C 0.59243 0.01579 0.07335 0.0
C1480 C 0.6042 0.0164 0.11573 0.0
C1481 C 0.62545 0.00487 0.1093 0.0
C1482 C 0.6311 0.00137 0.08451 0.0
C1483 C 0.61473 0.00698 0.06661 0.0
H1484 H 0.8449 0.84391 0.93191 0.0
H1485 H 0.77496 0.87409 0.92925 0.0
H1486 H 0.84161 0.83062 0.88922 0.0
H1487 H 0.77197 0.86132 0.8863 0.0
H1488 H 0.76516 0.8091 0.81801 0.0
H1489 H 0.76793 0.82378 0.8605 0.0
H1490 H 0.84072 0.84731 0.84937 0.0
H1491 H 0.83819 0.8321 0.80717 0.0
C1492 C 0.8289 0.8479 0.92219 0.0
C1493 C 0.81019 0.86004 0.93404 0.0
C1494 C 0.82706 0.84039 0.89765 0.0
C1495 C 0.80654 0.84494 0.88435 0.0
C1496 C 0.78789 0.85724 0.89613 0.0
C1497 C 0.78968 0.86468 0.92072 0.0
C1498 C 0.78174 0.81747 0.82462 0.0
C1499 C 0.80149 0.81929 0.80923 0.0
C1500 C 0.78328 0.826 0.84894 0.0
C1501 C 0.80458 0.83663 0.85834 0.0
C1502 C 0.82418 0.83882 0.84281 0.0
C1503 C 0.82268 0.83021 0.81857 0.0
H1504 H 0.81765 0.97233 0.00575 0.0
H1505 H 0.86245 0.90892 -0.00113 0.0
H1506 H 0.85176 -0.00025 -0.00281 0.0
H1507 H 0.89613 0.93608 0.99017 0.0
H1508 H 0.94304 0.98821 0.94778 0.0
H1509 H 0.90606 0.96521 0.95435 0.0
H1510 H 0.89337 0.01064 0.01933 0.0
H1511 H 0.93066 0.03372 0.01304 0.0
C1512 C 0.83473 0.96425 0.00243 0.0
C1513 C 0.83741 0.93845 0.00315 0.0
C1514 C 0.85417 0.97992 -0.00238 0.0
C1515 C 0.87642 0.96993 0.9929 0.0
C1516 C 0.87906 0.94418 0.99355 0.0
C1517 C 0.85979 0.92862 -0.00121 0.0
C1518 C 0.93226 0.99363 0.96328 0.0
C1519 C 0.93993 0.01264 0.98004 0.0
C1520 C 0.91115 0.98037 0.96706 0.0
C1521 C 0.89711 0.98606 0.98745 0.0
C1522 C 0.90395 0.00599 0.00345 0.0
C1523 C 0.92529 0.01909 -0.00013 0.0
H1524 H 0.2857 0.56837 0.97233 0.0
H1525 H 0.34178 0.62408 0.96663 0.0
H1526 H 0.31459 0.53575 0.96693 0.0
H1527 H 0.3705 0.59161 0.96157 0.0
H1528 H 0.38097 0.498 0.00108 0.0
H1529 H 0.34672 0.52268 0.99348 0.0
H1530 H 0.38369 0.55656 0.93416 0.0
H1531 H 0.41828 0.53174 0.942 0.0
C1532 C 0.30417 0.57364 0.96996 0.0
C1533 C 0.31155 0.59876 0.97027 0.0
C1534 C 0.32063 0.55499 0.96671 0.0
C1535 C 0.34473 0.56116 0.96357 0.0
C1536 C 0.35199 0.58628 0.96342 0.0
C1537 C 0.33558 0.60489 0.96676 0.0
C1538 C 0.38145 0.5101 0.98587 0.0
C1539 C 0.40227 0.51335 0.97233 0.0
C1540 C 0.3618 0.52416 0.98145 0.0
C1541 C 0.36274 0.54185 0.96353 0.0
C1542 C 0.38272 0.54327 0.94833 0.0
C1543 C 0.40238 0.52895 0.95263 0.0
H1544 H 0.14989 0.56268 0.75953 0.0
H1545 H 0.15806 0.58993 0.83422 0.0
H1546 H 0.18324 0.58923 0.7478 0.0
H1547 H 0.19062 0.6171 0.82244 0.0
H1548 H 0.25489 0.65704 0.80188 0.0
H1549 H 0.23009 0.62037 0.80897 0.0
H1550 H 0.19141 0.63196 0.74282 0.0
H1551 H 0.21699 0.66781 0.73523 0.0
C1552 C 0.15878 0.57439 0.77343 0.0
C1553 C 0.15124 0.57434 0.79779 0.0
C1554 C 0.17788 0.58962 0.7667 0.0
C1555 C 0.18971 0.60532 0.78414 0.0
C1556 C 0.18235 0.60488 0.80856 0.0
C1557 C 0.16347 0.58946 0.81532 0.0
C1558 C 0.24157 0.65121 0.78848 0.0
C1559 C 0.23765 0.6654 0.76817 0.0
C1560 C 0.22718 0.63038 0.79266 0.0
C1561 C 0.20828 0.62362 0.77686 0.0
C1562 C 0.20579 0.63653 0.75538 0.0
C1563 C 0.22048 0.65714 0.75099 0.0
H1564 H 0.2 0.45112 0.47629 0.0
H1565 H 0.18969 0.41226 0.54268 0.0
H1566 H 0.15717 0.44961 0.4694 0.0
H1567 H 0.14715 0.41072 0.53568 0.0
H1568 H 0.07609 0.38855 0.50471 0.0
H1569 H 0.11919 0.38931 0.50458 0.0
H1570 H 0.12032 0.46738 0.49028 0.0
H1571 H 0.07713 0.46677 0.49037 0.0
C1572 C 0.18862 0.44241 0.48946 0.0
C1573 C 0.19823 0.43184 0.51005 0.0
C1574 C 0.16416 0.44152 0.48548 0.0
C1575 C 0.14894 0.42975 0.50183 0.0
C1576 C 0.15853 0.41951 0.52255 0.0
C1577 C 0.18288 0.42064 0.52668 0.0
C1578 C 0.08544 0.40577 0.50097 0.0
C1579 C 0.07312 0.42769 0.4979 0.0
C1580 C 0.11014 0.40623 0.5011 0.0
C1581 C 0.12302 0.42851 0.49788 0.0
C1582 C 0.11079 0.44997 0.49286 0.0
C1583 C 0.08606 0.44959 0.49295 0.0
H1584 H 0.88434 0.9752 0.77386 0.0
H1585 H 0.87669 0.00025 0.70084 0.0
H1586 H 0.87107 0.93339 0.75961 0.0
H1587 H 0.86321 0.95865 0.68683 0.0
H1588 H 0.80985 0.88645 0.68838 0.0
H1589 H 0.82578 0.92899 0.69646 0.0
H1590 H 0.88809 0.89987 0.72876 0.0
H1591 H 0.87273 0.85783 0.72036 0.0
C1592 C 0.87995 0.97179 0.75482 0.0
C1593 C 0.88176 0.99102 0.7385 0.0
C1594 C 0.87238 0.94791 0.74665 0.0
C1595 C 0.86609 0.94289 0.72212 0.0
C1596 C 0.86781 0.96207 0.70582 0.0
C1597 C 0.87575 0.98581 0.71388 0.0
C1598 C 0.82725 0.88917 0.69649 0.0
C1599 C 0.83986 0.8688 0.70402 0.0
C1600 C 0.83628 0.91346 0.70126 0.0
C1601 C 0.8579 0.91759 0.71375 0.0
C1602 C 0.87117 0.89719 0.7196 0.0
C1603 C 0.86236 0.87312 0.71464 0.0
H1604 H 0.6861 0.1368 0.45903 0.0
H1605 H 0.70296 0.12224 0.5335 0.0
H1606 H 0.6482 0.11472 0.46302 0.0
H1607 H 0.66571 0.09899 0.53716 0.0
H1608 H 0.60138 0.04611 0.4643 0.0
H1609 H 0.63658 0.07285 0.4639 0.0
H1610 H 0.62399 0.09634 0.53886 0.0
H1611 H 0.58908 0.06838 0.53946 0.0
C1612 C 0.68157 0.12913 0.47634 0.0
C1613 C 0.69759 0.13108 0.49584 0.0
C1614 C 0.65997 0.11617 0.47858 0.0
C1615 C 0.65411 0.10439 0.50021 0.0
C1616 C 0.66951 0.10779 0.52024 0.0
C1617 C 0.69094 0.12115 0.51813 0.0
C1618 C 0.60624 0.05683 0.48078 0.0
C1619 C 0.59248 0.05519 0.5019 0.0
C1620 C 0.62629 0.07246 0.48047 0.0
C1621 C 0.63293 0.0873 0.50117 0.0
C1622 C 0.61949 0.08516 0.52259 0.0
C1623 C 0.59952 0.06912 0.52299 0.0
H1624 H 0.13768 0.46092 0.84854 0.0
H1625 H 0.12349 0.45437 0.77123 0.0
H1626 H 0.15765 0.42141 0.8459 0.0
H1627 H 0.14379 0.41526 0.76862 0.0
H1628 H 0.1569 0.33413 0.77638 0.0
H1629 H 0.13692 0.37319 0.78173 0.0
H1630 H 0.19337 0.40208 0.82882 0.0
H1631 H 0.21335 0.36259 0.82383 0.0
C1632 C 0.1389 0.45116 0.83097 0.0
C1633 C 0.12883 0.46077 0.81012 0.0
C1634 C 0.15046 0.42858 0.82947 0.0
C1635 C 0.15214 0.41515 0.8071 0.0
C1636 C 0.1424 0.42495 0.78622 0.0
C1637 C 0.13087 0.44747 0.7877 0.0
C1638 C 0.16506 0.34871 0.78801 0.0
C1639 C 0.18685 0.34528 0.79953 0.0
C1640 C 0.15364 0.37117 0.79094 0.0
C1641 C 0.16373 0.39083 0.80541 0.0
C1642 C 0.18512 0.38721 0.81763 0.0
C1643 C 0.19658 0.36463 0.81472 0.0
H1644 H 0.32229 0.5856 0.31816 0.0
H1645 H 0.31218 0.55185 0.24606 0.0
H1646 H 0.28799 0.61015 0.31314 0.0
H1647 H 0.27636 0.57551 0.24141 0.0
H1648 H 0.24301 0.65188 0.22973 0.0
H1649 H 0.26687 0.61574 0.23415 0.0
H1650 H 0.24827 0.61521 0.31048 0.0
H1651 H 0.22617 0.65291 0.30621 0.0
C1652 C 0.3123 0.58295 0.30139 0.0
C1653 C 0.32009 0.56703 0.28238 0.0
C1654 C 0.29229 0.59688 0.29859 0.0
C1655 C 0.27915 0.59492 0.27685 0.0
C1656 C 0.28625 0.57791 0.25825 0.0
C1657 C 0.30671 0.56429 0.26088 0.0
C1658 C 0.24366 0.64364 0.24731 0.0
C1659 C 0.23327 0.65531 0.26776 0.0
C1660 C 0.25724 0.62276 0.24987 0.0
C1661 C 0.26014 0.61282 0.27286 0.0
C1662 C 0.24729 0.62293 0.2927 0.0
C1663 C 0.23442 0.64435 0.29029 0.0
H1664 H 0.52598 0.70335 0.63812 0.0
H1665 H 0.47261 0.727 0.58863 0.0
H1666 H 0.53099 0.66562 0.61247 0.0
H1667 H 0.478 0.68945 0.56285 0.0
H1668 H 0.5188 0.62985 0.51339 0.0
H1669 H 0.51342 0.66892 0.53706 0.0
H1670 H 0.50085 0.62796 0.60161 0.0
H1671 H 0.50573 0.58906 0.57818 0.0
C1672 C 0.51552 0.70062 0.62166 0.0
C1673 C 0.49882 0.71804 0.61544 0.0
C1674 C 0.51832 0.67903 0.60708 0.0
C1675 C 0.50481 0.67473 0.58581 0.0
C1676 C 0.48865 0.69246 0.57915 0.0
C1677 C 0.48552 0.71382 0.59396 0.0
C1678 C 0.51464 0.62921 0.53257 0.0
C1679 C 0.51266 0.60638 0.54389 0.0
C1680 C 0.51157 0.65151 0.54605 0.0
C1681 C 0.50698 0.65131 0.57113 0.0
C1682 C 0.50464 0.62854 0.58234 0.0
C1683 C 0.50725 0.6063 0.56884 0.0
H1684 H 0.53948 0.23571 0.76171 0.0
H1685 H 0.56198 0.25183 0.83602 0.0
H1686 H 0.57702 0.25279 0.74718 0.0
H1687 H 0.5996 0.26846 0.82147 0.0
H1688 H 0.65846 0.31258 0.79082 0.0
H1689 H 0.61688 0.3033 0.79911 0.0
H1690 H 0.61831 0.24003 0.74814 0.0
H1691 H 0.65963 0.24947 0.73944 0.0
C1692 C 0.55245 0.24284 0.77494 0.0
C1693 C 0.54787 0.24231 0.80001 0.0
C1694 C 0.57389 0.25264 0.76659 0.0
C1695 C 0.5911 0.26211 0.78318 0.0
C1696 C 0.58644 0.26174 0.80825 0.0
C1697 C 0.56503 0.25193 0.81659 0.0
C1698 C 0.64976 0.29706 0.78091 0.0
C1699 C 0.66246 0.28145 0.76484 0.0
C1700 C 0.62601 0.29167 0.7858 0.0
C1701 C 0.61458 0.27066 0.77465 0.0
C1702 C 0.62668 0.25635 0.75701 0.0
C1703 C 0.65041 0.26172 0.75211 0.0
H1704 H 0.00912 0.36003 0.06713 0.0
H1705 H 0.93678 0.37538 0.04913 0.0
H1706 H 0.02265 0.39719 0.04712 0.0
H1707 H 0.95022 0.41306 0.02983 0.0
H1708 H 0.02778 0.48351 0.05192 0.0
H1709 H 0.02055 0.43996 0.05908 0.0
H1710 H 0.97166 0.43397 -0.00145 0.0
H1711 H 0.97841 0.47798 0.99176 0.0
C1712 C -0.00389 0.37124 0.05869 0.0
C1713 C 0.97183 0.36501 0.06007 0.0
C1714 C 0.00388 0.39258 0.04727 0.0
C1715 C 0.98753 0.40837 0.03721 0.0
C1716 C 0.96335 0.40125 0.03719 0.0
C1717 C 0.9556 0.37971 0.0484 0.0
C1718 C 0.01591 0.47284 0.03972 0.0
C1719 C 0.00336 0.48441 0.02155 0.0
C1720 C 0.01183 0.44772 0.04375 0.0
C1721 C -0.0048 0.43349 0.02962 0.0
C1722 C 0.9842 0.44453 0.01009 0.0
C1723 C 0.98825 0.46973 0.00607 0.0
H1724 H 0.90636 0.65058 0.31363 0.0
H1725 H 0.96645 0.69533 0.29101 0.0
H1726 H 0.88568 0.65958 0.2762 0.0
H1727 H 0.94578 0.70418 0.25366 0.0
H1728 H 0.85596 0.66643 0.20483 0.0
H1729 H 0.88816 0.65273 0.22984 0.0
H1730 H 0.90944 0.72912 0.24675 0.0
H1731 H 0.87725 0.7429 0.22185 0.0
C1732 C 0.91515 0.66224 0.30066 0.0
C1733 C 0.93789 0.67241 0.30533 0.0
C1734 C 0.9035 0.66708 0.27909 0.0
C1735 C 0.91435 0.68229 0.26193 0.0
C1736 C 0.93714 0.6923 0.26654 0.0
C1737 C 0.94885 0.68731 0.28798 0.0
C1738 C 0.8682 0.68033 0.21285 0.0
C1739 C 0.86364 0.70578 0.21208 0.0
C1740 C 0.88646 0.67243 0.22741 0.0
C1741 C 0.90064 0.6899 0.24083 0.0
C1742 C 0.89855 0.71526 0.23678 0.0
C1743 C 0.88015 0.72317 0.22244 0.0
H1744 H 0.5054 0.28862 0.89358 0.0
H1745 H 0.42948 0.29531 0.89753 0.0
H1746 H 0.51049 0.32908 0.91563 0.0
H1747 H 0.43466 0.33562 0.91898 0.0
H1748 H 0.45602 0.41857 0.93104 0.0
H1749 H 0.45388 0.37905 0.90743 0.0
H1750 H 0.4977 0.34597 0.96063 0.0
H1751 H 0.49958 0.38534 0.98458 0.0
C1752 C 0.48987 0.29875 0.89905 0.0
C1753 C 0.46706 0.28878 0.89397 0.0
C1754 C 0.49279 0.32177 0.91168 0.0
C1755 C 0.47294 0.33536 0.91884 0.0
C1756 C 0.45021 0.32554 0.91347 0.0
C1757 C 0.44729 0.3024 0.90135 0.0
C1758 C 0.46531 0.40292 0.93764 0.0
C1759 C 0.47783 0.40499 0.95973 0.0
C1760 C 0.46404 0.38035 0.92416 0.0
C1761 C 0.47565 0.3596 0.93228 0.0
C1762 C 0.48874 0.3618 0.95397 0.0
C1763 C 0.48965 0.38425 0.96771 0.0
H1764 H 0.92989 0.2797 0.18744 0.0
H1765 H 0.90461 0.26309 0.11441 0.0
H1766 H 0.89923 0.25295 0.2034 0.0
H1767 H 0.87449 0.23439 0.13011 0.0
H1768 H 0.80565 0.2151 0.1724 0.0
H1769 H 0.83922 0.23172 0.15047 0.0
H1770 H 0.88537 0.21389 0.20961 0.0
H1771 H 0.85109 0.19954 0.23246 0.0
C1772 C 0.91779 0.26997 0.17477 0.0
C1773 C 0.91939 0.27358 0.14978 0.0
C1774 C 0.90038 0.25418 0.18387 0.0
C1775 C 0.88443 0.24087 0.16813 0.0
C1776 C 0.88621 0.2444 0.14291 0.0
C1777 C 0.90339 0.26086 0.13384 0.0
C1778 C 0.82311 0.21397 0.18034 0.0
C1779 C 0.8258 0.20634 0.20424 0.0
C1780 C 0.84249 0.2236 0.16773 0.0
C1781 C 0.86508 0.22514 0.17855 0.0
C1782 C 0.86811 0.21421 0.20113 0.0
C1783 C 0.84858 0.20546 0.2141 0.0
H1784 H 0.97992 0.62335 0.43677 0.0
H1785 H 0.90542 0.60465 0.428 0.0
H1786 H 0.98351 0.59134 0.46558 0.0
H1787 H 0.90882 0.57281 0.45784 0.0
H1788 H 0.93526 0.4953 0.47761 0.0
H1789 H 0.92483 0.53311 0.45821 0.0
H1790 H 0.97635 0.57477 0.50304 0.0
H1791 H 0.98772 0.53651 0.52127 0.0
C1792 C 0.96411 0.61277 0.44143 0.0
C1793 C 0.94247 0.61627 0.42966 0.0
C1794 C 0.96612 0.59446 0.45828 0.0
C1795 C 0.9465 0.57922 0.46406 0.0
C1796 C 0.92441 0.5839 0.45359 0.0
C1797 C 0.92241 0.60228 0.43657 0.0
C1798 C 0.9442 0.5126 0.48342 0.0
C1799 C 0.96271 0.51293 0.50048 0.0
C1800 C 0.93807 0.53438 0.47247 0.0
C1801 C 0.94999 0.55706 0.47872 0.0
C1802 C 0.96727 0.55756 0.4972 0.0
C1803 C 0.97378 0.53568 0.50772 0.0
H1804 H 0.59492 0.79194 0.65458 0.0
H1805 H 0.59642 0.78713 0.7327 0.0
H1806 H 0.63701 0.80322 0.65476 0.0
H1807 H 0.6386 0.79715 0.73286 0.0
H1808 H 0.709 0.83293 0.73309 0.0
H1809 H 0.6662 0.82978 0.72821 0.0
H1810 H 0.67498 0.78756 0.66025 0.0
H1811 H 0.71782 0.7921 0.66462 0.0
C1812 C 0.60435 0.79294 0.67175 0.0
C1813 C 0.59241 0.78866 0.69365 0.0
C1814 C 0.62848 0.79941 0.67186 0.0
C1815 C 0.64124 0.80143 0.69384 0.0
C1816 C 0.62928 0.79655 0.71564 0.0
C1817 C 0.60513 0.79046 0.71556 0.0
C1818 C 0.7017 0.82371 0.71674 0.0
C1819 C 0.7166 0.8127 0.69927 0.0
C1820 C 0.67719 0.82154 0.71409 0.0
C1821 C 0.66706 0.80773 0.69421 0.0
C1822 C 0.68207 0.79837 0.67578 0.0
C1823 C 0.70666 0.80102 0.67821 0.0
H1824 H 0.58335 0.5623 0.71341 0.0
H1825 H 0.6326 0.50287 0.70365 0.0
H1826 H 0.56773 0.55282 0.67268 0.0
H1827 H 0.61653 0.49295 0.66321 0.0
H1828 H 0.6002 0.50338 0.5823 0.0
H1829 H 0.61535 0.50946 0.62349 0.0
H1830 H 0.54443 0.52139 0.64994 0.0
H1831 H 0.52926 0.51601 0.60852 0.0
C1832 C 0.59084 0.54721 0.70259 0.0
C1833 C 0.60924 0.53338 0.71175 0.0
C1834 C 0.58172 0.5416 0.67933 0.0
C1835 C 0.59073 0.52197 0.66477 0.0
C1836 C 0.60932 0.50832 0.67387 0.0
C1837 C 0.61851 0.514 0.69707 0.0
C1838 C 0.58773 0.50695 0.5969 0.0
C1839 C 0.56351 0.50942 0.59204 0.0
C1840 C 0.59645 0.51038 0.62058 0.0
C1841 C 0.58114 0.51622 0.63997 0.0
C1842 C 0.55676 0.51745 0.63531 0.0
C1843 C 0.54803 0.51411 0.61159 0.0
H1844 H 0.73015 0.37814 0.97851 0.0
H1845 H 0.80278 0.35566 0.97239 0.0
H1846 H 0.72084 0.35556 0.94011 0.0
H1847 H 0.79353 0.33357 0.93395 0.0
H1848 H 0.76641 0.2771 0.87745 0.0
H1849 H 0.77151 0.2969 0.91792 0.0
H1850 H 0.7291 0.35774 0.89687 0.0
H1851 H 0.72355 0.3378 0.8567 0.0
C1852 C 0.74418 0.3686 0.96891 0.0
C1853 C 0.76723 0.36875 0.97858 0.0
C1854 C 0.73883 0.35564 0.9469 0.0
C1855 C 0.75639 0.34255 0.93409 0.0
C1856 C 0.77947 0.343 0.94361 0.0
C1857 C 0.78482 0.35592 0.96556 0.0
C1858 C 0.75782 0.29447 0.88158 0.0
C1859 C 0.74475 0.30594 0.86373 0.0
C1860 C 0.76093 0.30593 0.90471 0.0
C1861 C 0.751 0.32908 0.9105 0.0
C1862 C 0.7369 0.33988 0.89307 0.0
C1863 C 0.7338 0.32845 0.86996 0.0
H1864 H 0.95462 0.55893 0.25122 0.0
H1865 H 0.93994 0.48735 0.21491 0.0
H1866 H 0.973 0.57365 0.21423 0.0
H1867 H 0.95848 0.50216 0.17793 0.0
H1868 H 0.00881 0.5316 0.1209 0.0
H1869 H -0.00097 0.51824 0.16174 0.0
H1870 H 0.95445 0.58139 0.17286 0.0
H1871 H 0.96397 0.59461 0.13213 0.0
C1872 C 0.95551 0.54626 0.23542 0.0
C1873 C 0.94567 0.52204 0.23586 0.0
C1874 C 0.96603 0.55471 0.21431 0.0
C1875 C 0.96717 0.539 0.19335 0.0
C1876 C 0.95805 0.51453 0.19399 0.0
C1877 C 0.94726 0.50614 0.21504 0.0
C1878 C -0.00261 0.54293 0.13232 0.0
C1879 C 0.98701 0.56404 0.12336 0.0
C1880 C 0.99168 0.53518 0.15554 0.0
C1881 C 0.97588 0.54872 0.17026 0.0
C1882 C 0.96677 0.57071 0.16189 0.0
C1883 C 0.97215 0.57821 0.13858 0.0
H1884 H 0.80462 0.62851 0.4038 0.0
H1885 H 0.86709 0.67577 0.41499 0.0
H1886 H 0.79361 0.65182 0.36932 0.0
H1887 H 0.85554 0.69998 0.38039 0.0
H1888 H 0.76403 0.70783 0.32394 0.0
H1889 H 0.77805 0.69076 0.36133 0.0
H1890 H 0.85029 0.69926 0.33661 0.0
H1891 H 0.83621 0.71745 0.29965 0.0
C1892 C 0.816 0.64404 0.39897 0.0
C1893 C 0.83661 0.65044 0.41239 0.0
C1894 C 0.80952 0.65763 0.37925 0.0
C1895 C 0.82327 0.67829 0.37241 0.0
C1896 C 0.84444 0.68425 0.38523 0.0
C1897 C 0.85109 0.67039 0.40503 0.0
C1898 C 0.78292 0.70658 0.32674 0.0
C1899 C 0.79896 0.7138 0.30876 0.0
C1900 C 0.791 0.69654 0.34806 0.0
C1901 C 0.8153 0.69296 0.35173 0.0
C1902 C 0.83147 0.70173 0.33446 0.0
C1903 C 0.82338 0.71218 0.31324 0.0
H1904 H 0.6342 0.52937 0.86959 0.0
H1905 H 0.57992 0.56483 0.82948 0.0
H1906 H 0.60874 0.5296 0.90536 0.0
H1907 H 0.55464 0.56538 0.86534 0.0
H1908 H 0.5597 0.5404 0.96958 0.0
H1909 H 0.58664 0.55301 0.93735 0.0
H1910 H 0.53384 0.53017 0.88349 0.0
H1911 H 0.50694 0.51785 0.91547 0.0
C1912 C 0.61713 0.53787 0.86861 0.0
C1913 C 0.60891 0.54669 0.8466 0.0
C1914 C 0.60255 0.53807 0.88915 0.0
C1915 C 0.57952 0.54711 0.88802 0.0
C1916 C 0.57213 0.55783 0.8666 0.0
C1917 C 0.58667 0.55763 0.8461 0.0
C1918 C 0.55371 0.53845 0.95087 0.0
C1919 C 0.53122 0.52792 0.94509 0.0
C1920 C 0.56919 0.54558 0.93244 0.0
C1921 C 0.56239 0.54258 0.90789 0.0
C1922 C 0.53953 0.53306 0.90223 0.0
C1923 C 0.52415 0.52578 0.92058 0.0
H1924 H 0.77938 0.30957 0.06331 0.0
H1925 H 0.72928 0.35338 0.1043 0.0
H1926 H 0.7647 0.27231 0.08276 0.0
H1927 H 0.71589 0.31716 0.12508 0.0
H1928 H 0.69145 0.25565 0.16364 0.0
H1929 H 0.6963 0.28038 0.1279 0.0
H1930 H 0.76719 0.25317 0.11845 0.0
H1931 H 0.76106 0.22677 0.15234 0.0
C1932 C 0.76535 0.31119 0.07664 0.0
C1933 C 0.7556 0.33431 0.08251 0.0
C1934 C 0.7569 0.28986 0.08785 0.0
C1935 C 0.73901 0.2914 0.10568 0.0
C1936 C 0.72912 0.3147 0.11105 0.0
C1937 C 0.73708 0.33574 0.09938 0.0
C1938 C 0.70748 0.25404 0.15296 0.0
C1939 C 0.72593 0.23954 0.16072 0.0
C1940 C 0.71057 0.26861 0.13279 0.0
C1941 C 0.73265 0.26994 0.1209 0.0
C1942 C 0.74996 0.25299 0.12699 0.0
C1943 C 0.74645 0.23767 0.14652 0.0
H1944 H 0.93986 0.41873 0.32763 0.0
H1945 H 0.89398 0.4631 0.37357 0.0
H1946 H 0.94757 0.39234 0.36141 0.0
H1947 H 0.90209 0.43727 0.40738 0.0
H1948 H 0.91573 0.39247 0.46694 0.0
H1949 H 0.8998 0.39819 0.4265 0.0
H1950 H 0.97087 0.40014 0.39753 0.0
H1951 H 0.98661 0.39351 0.43769 0.0
C1952 C 0.9312 0.42268 0.34487 0.0
C1953 C 0.9166 0.44321 0.34811 0.0
C1954 C 0.9356 0.40753 0.36419 0.0
C1955 C 0.92558 0.41273 0.38714 0.0
C1956 C 0.90983 0.43241 0.38988 0.0
C1957 C 0.90534 0.44744 0.37054 0.0
C1958 C 0.92783 0.39305 0.45169 0.0
C1959 C 0.95241 0.39319 0.45547 0.0
C1960 C 0.91873 0.39653 0.42858 0.0
C1961 C 0.9341 0.40053 0.40899 0.0
C1962 C 0.9585 0.39723 0.41221 0.0
C1963 C 0.96758 0.39342 0.4353 0.0
H1964 H 0.79743 0.6694 0.52569 0.0
H1965 H 0.87287 0.68289 0.53398 0.0
H1966 H 0.7904 0.69951 0.55932 0.0
H1967 H 0.86569 0.71277 0.56746 0.0
H1968 H 0.84071 0.72413 0.64816 0.0
H1969 H 0.84873 0.7027 0.60935 0.0
H1970 H 0.79714 0.74667 0.57444 0.0
H1971 H 0.78927 0.76868 0.61366 0.0
C1972 C 0.81248 0.679 0.5344 0.0
C1973 C 0.83573 0.67342 0.52735 0.0
C1974 C 0.80842 0.69637 0.55351 0.0
C1975 C 0.82752 0.70829 0.56603 0.0
C1976 C 0.85067 0.70367 0.55819 0.0
C1977 C 0.85473 0.68654 0.539 0.0
C1978 C 0.83124 0.72947 0.63218 0.0
C1979 C 0.81431 0.74801 0.63391 0.0
C1980 C 0.83594 0.7173 0.60994 0.0
C1981 C 0.82359 0.72308 0.58892 0.0
C1982 C 0.80687 0.7419 0.59044 0.0
C1983 C 0.80248 0.75453 0.61277 0.0
H1984 H 0.74267 0.58702 0.45476 0.0
H1985 H 0.73083 0.62761 0.52304 0.0
H1986 H 0.70103 0.57403 0.45324 0.0
H1987 H 0.6889 0.61478 0.52116 0.0
H1988 H 0.61048 0.59988 0.49491 0.0
H1989 H 0.65063 0.61805 0.49237 0.0
H1990 H 0.67859 0.5446 0.48346 0.0
H1991 H 0.6387 0.52639 0.48645 0.0
C1992 C 0.73113 0.59357 0.46923 0.0
C1993 C 0.74011 0.60815 0.48919 0.0
C1994 C 0.70732 0.58604 0.46835 0.0
C1995 C 0.69193 0.59328 0.48716 0.0
C1996 C 0.70049 0.60905 0.5064 0.0
C1997 C 0.72445 0.61629 0.50751 0.0
C1998 C 0.6252 0.58765 0.4922 0.0
C1999 C 0.6215 0.56171 0.4909 0.0
C2000 C 0.6481 0.59805 0.49087 0.0
C2001 C 0.66756 0.58269 0.48767 0.0
C2002 C 0.6638 0.55682 0.48574 0.0
C2003 C 0.64102 0.54642 0.48757 0.0
H2004 H 0.16786 0.89452 0.49936 0.0
H2005 H 0.16672 0.94332 0.56386 0.0
H2006 H 0.12506 0.89737 0.49551 0.0
H2007 H 0.12385 0.94606 0.55996 0.0
H2008 H 0.0529 0.96732 0.52582 0.0
H2009 H 0.09546 0.96382 0.53074 0.0
H2010 H 0.08842 0.88432 0.51827 0.0
H2011 H 0.0457 0.88772 0.51323 0.0
C2012 C 0.15849 0.90587 0.51271 0.0
C2013 C 0.17068 0.91875 0.5319 0.0
C2014 C 0.13397 0.90734 0.51058 0.0
C2015 C 0.12116 0.92189 0.52746 0.0
C2016 C 0.13333 0.93486 0.54659 0.0
C2017 C 0.15785 0.93321 0.54885 0.0
C2018 C 0.06037 0.94906 0.52414 0.0
C2019 C 0.04589 0.92779 0.51908 0.0
C2020 C 0.08474 0.94707 0.52712 0.0
C2021 C 0.09521 0.92381 0.52489 0.0
C2022 C 0.0808 0.90251 0.51988 0.0
C2023 C 0.05635 0.90446 0.51712 0.0
H2024 H 0.35592 0.95786 0.74145 0.0
H2025 H 0.31816 0.96512 0.80962 0.0
H2026 H 0.32984 0.92265 0.72893 0.0
H2027 H 0.29277 0.92982 0.79745 0.0
H2028 H 0.24606 0.86727 0.77163 0.0
H2029 H 0.26277 0.90975 0.77109 0.0
H2030 H 0.32857 0.88112 0.7433 0.0
H2031 H 0.31188 0.83931 0.7434 0.0
C2032 C 0.34193 0.95218 0.75363 0.0
C2033 C 0.33949 0.96398 0.77675 0.0
C2034 C 0.32699 0.93202 0.74647 0.0
C2035 C 0.30936 0.92327 0.76229 0.0
C2036 C 0.30596 0.93617 0.78468 0.0
C2037 C 0.32082 0.95627 0.79181 0.0
C2038 C 0.26385 0.87025 0.76482 0.0
C2039 C 0.27784 0.85002 0.75805 0.0
C2040 C 0.27346 0.89449 0.7646 0.0
C2041 C 0.29711 0.8988 0.75742 0.0
C2042 C 0.31028 0.87861 0.74876 0.0
C2043 C 0.30078 0.85454 0.74911 0.0
H2044 H 0.34679 0.08686 0.08308 0.0
H2045 H 0.39027 0.12852 0.0338 0.0
H2046 H 0.38122 0.06435 0.09529 0.0
H2047 H 0.42481 0.10591 0.04616 0.0
H2048 H 0.43183 0.00353 0.05842 0.0
H2049 H 0.40056 0.03303 0.06613 0.0
H2050 H 0.45314 0.09179 0.07956 0.0
H2051 H 0.48453 0.06183 0.07241 0.0
C2052 C 0.36383 0.09175 0.07536 0.0
C2053 C 0.36573 0.10907 0.05703 0.0
C2054 C 0.38353 0.07883 0.08241 0.0
C2055 C 0.40557 0.0831 0.07142 0.0
C2056 C 0.40803 0.10231 0.05502 0.0
C2057 C 0.38823 0.11521 0.04786 0.0
C2058 C 0.43664 0.02247 0.06427 0.0
C2059 C 0.46044 0.03042 0.0652 0.0
C2060 C 0.41879 0.03942 0.0686 0.0
C2061 C 0.42445 0.06476 0.07331 0.0
C2062 C 0.44833 0.07238 0.07597 0.0
C2063 C 0.46624 0.05523 0.07216 0.0
H2064 H 0.67726 0.59339 0.75032 0.0
H2065 H 0.69921 0.61542 0.82362 0.0
H2066 H 0.69698 0.63068 0.7354 0.0
H2067 H 0.71881 0.65255 0.80864 0.0
H2068 H 0.73182 0.72803 0.77586 0.0
H2069 H 0.70874 0.69226 0.78922 0.0
H2070 H 0.73973 0.64616 0.73224 0.0
H2071 H 0.7629 0.68194 0.71876 0.0
C2072 C 0.68608 0.60626 0.76328 0.0
C2073 C 0.68672 0.60138 0.78816 0.0
C2074 C 0.69748 0.62751 0.75469 0.0
C2075 C 0.70947 0.64445 0.77086 0.0
C2076 C 0.70955 0.63992 0.79579 0.0
C2077 C 0.69842 0.61857 0.80433 0.0
C2078 C 0.73366 0.71032 0.76606 0.0
C2079 C 0.74932 0.70784 0.74629 0.0
C2080 C 0.72049 0.68983 0.7738 0.0
C2081 C 0.72248 0.66645 0.7618 0.0
C2082 C 0.7377 0.66403 0.7417 0.0
C2083 C 0.75108 0.68448 0.7341 0.0
H2084 H 0.83297 0.43056 0.04251 0.0
H2085 H 0.78424 0.49022 0.03626 0.0
H2086 H 0.86617 0.45985 0.03645 0.0
H2087 H 0.81741 0.51938 0.03068 0.0
H2088 H 0.91465 0.51525 -0.00289 0.0
H2089 H 0.87995 0.48791 0.00052 0.0
H2090 H 0.8534 0.53557 0.05875 0.0
H2091 H 0.88851 0.56303 0.05578 0.0
C2092 C 0.82935 0.44983 0.03978 0.0
C2093 C 0.80604 0.45806 0.03975 0.0
C2094 C 0.84829 0.46655 0.03627 0.0
C2095 C 0.84422 0.4918 0.03316 0.0
C2096 C 0.82095 0.50002 0.03317 0.0
C2097 C 0.80203 0.48327 0.03621 0.0
C2098 C 0.90132 0.52023 0.01045 0.0
C2099 C 0.90442 0.54134 0.02628 0.0
C2100 C 0.88156 0.5044 0.01248 0.0
C2101 C 0.86426 0.50954 0.03005 0.0
C2102 C 0.86661 0.53126 0.04506 0.0
C2103 C 0.88664 0.54696 0.04333 0.0
H2104 H 0.37184 0.09897 0.76354 0.0
H2105 H 0.31642 0.06102 0.80252 0.0
H2106 H 0.34526 0.13287 0.75649 0.0
H2107 H 0.28939 0.09374 0.79419 0.0
H2108 H 0.25866 0.16958 0.80604 0.0
H2109 H 0.28324 0.1339 0.80835 0.0
H2110 H 0.31172 0.1477 0.73707 0.0
H2111 H 0.2878 0.18459 0.73543 0.0
C2112 C 0.35383 0.09775 0.77021 0.0
C2113 C 0.34625 0.07772 0.78394 0.0
C2114 C 0.33852 0.11702 0.76603 0.0
C2115 C 0.31519 0.11628 0.77506 0.0
C2116 C 0.3074 0.09542 0.78763 0.0
C2117 C 0.32284 0.07657 0.79232 0.0
C2118 C 0.26994 0.16489 0.7907 0.0
C2119 C 0.27128 0.17992 0.77054 0.0
C2120 C 0.28401 0.14424 0.79194 0.0
C2121 C 0.29947 0.13771 0.77284 0.0
C2122 C 0.3003 0.15235 0.75229 0.0
C2123 C 0.28646 0.17337 0.75124 0.0
H2124 H 0.18024 0.95668 0.28827 0.0
H2125 H 0.13412 0.95271 0.22543 0.0
H2126 H 0.19752 0.91751 0.27449 0.0
H2127 H 0.15117 0.91338 0.21206 0.0
H2128 H 0.22881 0.84857 0.23657 0.0
H2129 H 0.21941 0.89275 0.2375 0.0
H2130 H 0.14488 0.87299 0.23803 0.0
H2131 H 0.15419 0.82907 0.23782 0.0
C2132 C 0.17426 0.94784 0.2712 0.0
C2133 C 0.15557 0.95762 0.25816 0.0
C2134 C 0.18424 0.9255 0.26327 0.0
C2135 C 0.17545 0.91242 0.24237 0.0
C2136 C 0.15813 0.92314 0.22829 0.0
C2137 C 0.14845 0.94569 0.23596 0.0
C2138 C 0.21044 0.85371 0.23632 0.0
C2139 C 0.19218 0.83549 0.23725 0.0
C2140 C 0.20511 0.87891 0.23692 0.0
C2141 C 0.18147 0.88615 0.23776 0.0
C2142 C 0.16325 0.86785 0.23711 0.0
C2143 C 0.16856 0.84276 0.23713 0.0
H2144 H 0.53447 0.32763 0.39475 0.0
H2145 H 0.48297 0.33844 0.45209 0.0
H2146 H 0.56111 0.35814 0.41542 0.0
H2147 H 0.50944 0.36902 0.47244 0.0
H2148 H 0.55785 0.42037 0.50984 0.0
H2149 H 0.54779 0.37839 0.49346 0.0
H2150 H 0.55717 0.40345 0.4205 0.0
H2151 H 0.56714 0.44502 0.43693 0.0
C2152 C 0.52889 0.33632 0.41185 0.0
C2153 C 0.50638 0.33091 0.42155 0.0
C2154 C 0.54423 0.35369 0.42372 0.0
C2155 C 0.53744 0.36589 0.44559 0.0
C2156 C 0.51541 0.35961 0.45585 0.0
C2157 C 0.50004 0.34235 0.44396 0.0
C2158 C 0.55906 0.41642 0.49041 0.0
C2159 C 0.56319 0.4357 0.47455 0.0
C2160 C 0.553 0.39254 0.48101 0.0
C2161 C 0.55119 0.3878 0.4557 0.0
C2162 C 0.55846 0.40643 0.44006 0.0
C2163 C 0.56425 0.43026 0.44944 0.0
H2164 H 0.42357 0.71042 0.234 0.0
H2165 H 0.41907 0.78208 0.20252 0.0
H2166 H 0.38174 0.71245 0.24586 0.0
H2167 H 0.37827 0.78467 0.21514 0.0
H2168 H 0.30018 0.769 0.21132 0.0
H2169 H 0.34194 0.76587 0.20247 0.0
H2170 H 0.35316 0.73366 0.27194 0.0
H2171 H 0.31082 0.73589 0.28045 0.0
C2172 C 0.41371 0.72663 0.22986 0.0
C2173 C 0.42433 0.74585 0.21696 0.0
C2174 C 0.38988 0.7279 0.23674 0.0
C2175 C 0.37657 0.74857 0.23106 0.0
C2176 C 0.38772 0.76815 0.21912 0.0
C2177 C 0.41118 0.7667 0.21196 0.0
C2178 C 0.31152 0.76146 0.22485 0.0
C2179 C 0.30221 0.75288 0.24666 0.0
C2180 C 0.33553 0.75969 0.2198 0.0
C2181 C 0.35095 0.7497 0.2366 0.0
C2182 C 0.34171 0.74122 0.25853 0.0
C2183 C 0.31752 0.74272 0.26348 0.0
H2184 H -0.00277 0.77266 0.98431 0.0
H2185 H 0.92839 0.74106 0.96537 0.0
H2186 H -0.00668 0.75697 0.02492 0.0
H2187 H 0.92531 0.72299 0.00423 0.0
H2188 H 0.93066 0.66598 0.05191 0.0
H2189 H 0.9246 0.70854 0.0408 0.0
H2190 H 0.00069 0.72131 0.03949 0.0
H2191 H 0.00608 0.68024 0.0525 0.0
C2192 C 0.98123 0.7624 0.98896 0.0
C2193 C 0.96353 0.75722 0.97151 0.0
C2194 C 0.97898 0.75307 0.01219 0.0
C2195 C 0.95975 0.73694 0.01779 0.0
C2196 C 0.94074 0.7347 0.00112 0.0
C2197 C 0.94255 0.74494 0.97839 0.0
C2198 C 0.9459 0.67845 0.05032 0.0
C2199 C 0.96887 0.66956 0.05163 0.0
C2200 C 0.94255 0.7028 0.04341 0.0
C2201 C 0.96213 0.71799 0.03676 0.0
C2202 C 0.98488 0.71038 0.04312 0.0
C2203 C 0.98814 0.68644 0.05056 0.0
H2204 H 0.0599 0.17111 0.67823 0.0
H2205 H 0.04316 0.14321 0.74879 0.0
H2206 H 0.09907 0.18448 0.69297 0.0
H2207 H 0.08212 0.15726 0.7637 0.0
H2208 H 0.15979 0.18259 0.77974 0.0
H2209 H 0.12636 0.15776 0.76237 0.0
H2210 H 0.10595 0.22029 0.72153 0.0
H2211 H 0.139 0.24479 0.73845 0.0
C2212 C 0.06482 0.16725 0.69669 0.0
C2213 C 0.04831 0.15669 0.71253 0.0
C2214 C 0.08717 0.17504 0.70517 0.0
C2215 C 0.0933 0.17262 0.72969 0.0
C2216 C 0.07781 0.15949 0.74476 0.0
C2217 C 0.05548 0.15146 0.73619 0.0
C2218 C 0.14805 0.19101 0.76715 0.0
C2219 C 0.15211 0.21564 0.76042 0.0
C2220 C 0.12903 0.17676 0.75715 0.0
C2221 C 0.11391 0.18691 0.74017 0.0
C2222 C 0.11772 0.21167 0.73397 0.0
C2223 C 0.13655 0.22584 0.74394 0.0
H2224 H 0.50156 0.67472 0.15028 0.0
H2225 H 0.43667 0.68831 0.11212 0.0
H2226 H 0.5051 0.63544 0.12691 0.0
H2227 H 0.44046 0.64934 0.08863 0.0
H2228 H 0.44039 0.56624 0.07075 0.0
H2229 H 0.43781 0.6049 0.09488 0.0
H2230 H 0.51267 0.6193 0.08497 0.0
H2231 H 0.51541 0.58023 0.06098 0.0
C2232 C 0.48806 0.66938 0.13693 0.0
C2233 C 0.46878 0.6847 0.13317 0.0
C2234 C 0.49019 0.64694 0.12342 0.0
C2235 C 0.47305 0.63924 0.10594 0.0
C2236 C 0.45381 0.65456 0.10219 0.0
C2237 C 0.45171 0.67699 0.11561 0.0
C2238 C 0.45636 0.57757 0.07368 0.0
C2239 C 0.47812 0.57011 0.06381 0.0
C2240 C 0.45483 0.59984 0.08744 0.0
C2241 C 0.475 0.61527 0.09175 0.0
C2242 C 0.49684 0.60773 0.08215 0.0
C2243 C 0.49838 0.5854 0.06829 0.0
H2244 H 0.0783 0.77648 0.89275 0.0
H2245 H 0.06851 0.70308 0.85871 0.0
H2246 H 0.11385 0.78313 0.86816 0.0
H2247 H 0.10301 0.71006 0.83369 0.0
H2248 H 0.17925 0.7178 0.81284 0.0
H2249 H 0.14429 0.71316 0.83731 0.0
H2250 H 0.12699 0.78932 0.82602 0.0
H2251 H 0.16333 0.79443 0.80193 0.0
C2252 C 0.08385 0.76169 0.88026 0.0
C2253 C 0.07066 0.73916 0.87785 0.0
C2254 C 0.10398 0.76566 0.86589 0.0
C2255 C 0.11124 0.7472 0.84885 0.0
C2256 C 0.09819 0.72459 0.84684 0.0
C2257 C 0.07833 0.72057 0.86125 0.0
C2258 C 0.16805 0.73368 0.81537 0.0
C2259 C 0.17421 0.75658 0.80544 0.0
C2260 C 0.1478 0.73091 0.82936 0.0
C2261 C 0.13273 0.75082 0.83365 0.0
C2262 C 0.13842 0.77368 0.82328 0.0
C2263 C 0.15901 0.77654 0.80921 0.0
H2264 H 0.00626 0.24168 0.64487 0.0
H2265 H 0.94029 0.22844 0.60607 0.0
H2266 H 0.0142 0.27857 0.6216 0.0
H2267 H 0.94858 0.26509 0.58251 0.0
H2268 H 0.98401 0.32622 0.53504 0.0
H2269 H 0.98117 0.28513 0.5524 0.0
H2270 H 0.98782 0.31936 0.62457 0.0
H2271 H 0.99011 0.36036 0.60744 0.0
C2272 C -0.00616 0.24616 0.63085 0.0
C2273 C 0.97255 0.23231 0.62743 0.0
C2274 C -0.00168 0.26735 0.61769 0.0
C2275 C 0.98186 0.27469 0.60053 0.0
C2276 C 0.96153 0.25974 0.59565 0.0
C2277 C 0.9568 0.23883 0.60915 0.0
C2278 C 0.98488 0.32493 0.55461 0.0
C2279 C 0.98715 0.34648 0.56992 0.0
C2280 C 0.98327 0.30148 0.56447 0.0
C2281 C 0.98453 0.2992 0.58973 0.0
C2282 C 0.98712 0.32068 0.605 0.0
C2283 C 0.98819 0.34411 0.59521 0.0
H2284 H 0.43583 0.30137 0.30348 0.0
H2285 H 0.41057 0.30906 0.37743 0.0
H2286 H 0.39524 0.3037 0.28856 0.0
H2287 H 0.37016 0.31149 0.36256 0.0
H2288 H 0.301 0.32802 0.32506 0.0
H2289 H 0.3422 0.33559 0.33668 0.0
H2290 H 0.36175 0.27027 0.29395 0.0
H2291 H 0.32035 0.26254 0.28215 0.0
C2292 C 0.42173 0.3045 0.31649 0.0
C2293 C 0.42619 0.30471 0.3416 0.0
C2294 C 0.39855 0.30551 0.30797 0.0
C2295 C 0.37968 0.30726 0.32447 0.0
C2296 C 0.38444 0.31005 0.34949 0.0
C2297 C 0.40754 0.30865 0.358 0.0
C2298 C 0.31405 0.31523 0.31808 0.0
C2299 C 0.30744 0.29456 0.30277 0.0
C2300 C 0.3376 0.31966 0.32471 0.0
C2301 C 0.35505 0.30367 0.31599 0.0
C2302 C 0.34857 0.28309 0.30057 0.0
C2303 C 0.32491 0.27848 0.2941 0.0
H2304 H 0.47009 0.51813 0.29331 0.0
H2305 H 0.42059 0.55778 0.33933 0.0
H2306 H 0.50039 0.52433 0.32493 0.0
H2307 H 0.45042 0.56338 0.37087 0.0
H2308 H 0.5083 0.58116 0.42205 0.0
H2309 H 0.48819 0.58358 0.38281 0.0
H2310 H 0.50538 0.5074 0.36464 0.0
H2311 H 0.52569 0.50525 0.40324 0.0
C2312 C 0.46566 0.52806 0.31017 0.0
C2313 C 0.44285 0.53706 0.31401 0.0
C2314 C 0.48301 0.53173 0.32819 0.0
C2315 C 0.47784 0.5445 0.35032 0.0
C2316 C 0.45515 0.55392 0.35386 0.0
C2317 C 0.43788 0.55027 0.33591 0.0
C2318 C 0.50842 0.5653 0.40925 0.0
C2319 C 0.51807 0.54288 0.41578 0.0
C2320 C 0.49677 0.56657 0.38692 0.0
C2321 C 0.49481 0.54551 0.37087 0.0
C2322 C 0.50658 0.52397 0.37651 0.0
C2323 C 0.51807 0.52267 0.39875 0.0
H2324 H 0.23478 0.65374 0.04761 0.0
H2325 H 0.30236 0.68445 0.07301 0.0
H2326 H 0.21585 0.67092 0.08407 0.0
H2327 H 0.28337 0.70124 0.10972 0.0
H2328 H 0.23966 0.75378 0.15555 0.0
H2329 H 0.25567 0.73508 0.11825 0.0
H2330 H 0.21335 0.66839 0.12848 0.0
H2331 H 0.19702 0.68714 0.16572 0.0
C2332 C 0.24571 0.66375 0.06117 0.0
C2333 C 0.27011 0.66788 0.05726 0.0
C2334 C 0.23481 0.67359 0.08208 0.0
C2335 C 0.24803 0.68783 0.09952 0.0
C2336 C 0.27262 0.69084 0.09628 0.0
C2337 C 0.28356 0.68092 0.07539 0.0
C2338 C 0.23336 0.73531 0.14964 0.0
C2339 C 0.2172 0.72189 0.16382 0.0
C2340 C 0.24279 0.72448 0.12841 0.0
C2341 C 0.23623 0.70003 0.12079 0.0
C2342 C 0.21883 0.68723 0.13396 0.0
C2343 C 0.2094 0.69805 0.15527 0.0
H2344 H 0.01781 0.57124 0.81195 0.0
H2345 H 0.08069 0.57324 0.85655 0.0
H2346 H -0.00452 0.58976 0.84608 0.0
H2347 H 0.05869 0.59205 0.89033 0.0
H2348 H 0.97227 0.56513 0.92747 0.0
H2349 H 0.98712 0.56578 0.88594 0.0
H2350 H 0.03299 0.62878 0.90604 0.0
H2351 H 0.01805 0.62843 0.94757 0.0
C2352 C 0.02699 0.57647 0.82878 0.0
C2353 C 0.05077 0.57051 0.83195 0.0
C2354 C 0.01426 0.58699 0.84822 0.0
C2355 C 0.02539 0.59223 0.87076 0.0
C2356 C 0.04974 0.58839 0.87307 0.0
C2357 C 0.06228 0.57738 0.85387 0.0
C2358 C 0.98493 0.57965 0.92287 0.0
C2359 C -0.00557 0.5963 0.94093 0.0
C2360 C -0.00672 0.58015 0.89903 0.0
C2361 C 0.01139 0.59715 0.89298 0.0
C2362 C 0.01911 0.61542 0.91038 0.0
C2363 C 0.01055 0.61514 0.93415 0.0
H2364 H 0.29778 0.32581 0.58554 0.0
H2365 H 0.22804 0.35533 0.57826 0.0
H2366 H 0.28453 0.30312 0.62026 0.0
H2367 H 0.2143 0.33154 0.61243 0.0
H2368 H 0.21067 0.31694 0.69447 0.0
H2369 H 0.21843 0.33353 0.65482 0.0
H2370 H 0.26197 0.27087 0.63613 0.0
H2371 H 0.25518 0.2551 0.67639 0.0
C2372 C 0.27942 0.32699 0.591 0.0
C2373 C 0.26403 0.34259 0.5793 0.0
C2374 C 0.27173 0.31379 0.61089 0.0
C2375 C 0.24832 0.31553 0.61935 0.0
C2376 C 0.23258 0.33015 0.60679 0.0
C2377 C 0.2404 0.34368 0.5871 0.0
C2378 C 0.22163 0.30655 0.68175 0.0
C2379 C 0.23259 0.28492 0.68863 0.0
C2380 C 0.22599 0.31598 0.65889 0.0
C2381 C 0.24109 0.30373 0.64225 0.0
C2382 C 0.25078 0.28118 0.64867 0.0
C2383 C 0.24678 0.27203 0.67168 0.0
H2384 H 0.4115 0.44813 0.21124 0.0
H2385 H 0.38245 0.51219 0.17893 0.0
H2386 H 0.41725 0.42875 0.17089 0.0
H2387 H 0.38864 0.49313 0.1387 0.0
H2388 H 0.39844 0.45979 0.06816 0.0
H2389 H 0.38003 0.46071 0.10822 0.0
H2390 H 0.44574 0.43839 0.13965 0.0
H2391 H 0.46375 0.43662 0.09944 0.0
C2392 C 0.40607 0.45795 0.19553 0.0
C2393 C 0.39695 0.48191 0.19819 0.0
C2394 C 0.40935 0.4468 0.17244 0.0
C2395 C 0.40359 0.45941 0.15158 0.0
C2396 C 0.393 0.48269 0.15437 0.0
C2397 C 0.38965 0.49379 0.17745 0.0
C2398 C 0.40856 0.45402 0.08354 0.0
C2399 C 0.43258 0.44858 0.08094 0.0
C2400 C 0.3981 0.45474 0.10648 0.0
C2401 C 0.41165 0.45045 0.12718 0.0
C2402 C 0.4348 0.44187 0.12408 0.0
C2403 C 0.44517 0.4408 0.10103 0.0
H2404 H 0.2585 0.7427 0.97856 0.0
H2405 H 0.33056 0.7312 0.95585 0.0
H2406 H 0.25532 0.77523 0.94949 0.0
H2407 H 0.32686 0.76173 0.92554 0.0
H2408 H 0.2423 0.76049 0.86683 0.0
H2409 H 0.24827 0.76185 0.90995 0.0
H2410 H 0.31867 0.79392 0.90057 0.0
H2411 H 0.31265 0.79155 0.85642 0.0
C2412 C 0.27388 0.74768 0.96787 0.0
C2413 C 0.29439 0.73374 0.9686 0.0
C2414 C 0.27207 0.7662 0.9511 0.0
C2415 C 0.29022 0.76987 0.93395 0.0
C2416 C 0.3122 0.75913 0.9379 0.0
C2417 C 0.31431 0.74132 0.9553 0.0
C2418 C 0.25897 0.76818 0.87393 0.0
C2419 C 0.2774 0.77488 0.85826 0.0
C2420 C 0.26231 0.76948 0.89893 0.0
C2421 C 0.28426 0.77747 0.90903 0.0
C2422 C 0.30176 0.78703 0.89343 0.0
C2423 C 0.29836 0.78569 0.86816 0.0
H2424 H 0.07896 0.53834 0.70311 0.0
H2425 H 0.12502 0.47588 0.70368 0.0
H2426 H 0.06761 0.52692 0.66139 0.0
H2427 H 0.11357 0.46436 0.66165 0.0
H2428 H 0.04703 0.43234 0.61632 0.0
H2429 H 0.07297 0.44747 0.64928 0.0
H2430 H 0.07882 0.51913 0.61741 0.0
H2431 H 0.05268 0.50395 0.58416 0.0
C2432 C 0.08712 0.52253 0.69405 0.0
C2433 C 0.1025 0.5077 0.7067 0.0
C2434 C 0.08079 0.51612 0.67007 0.0
C2435 C 0.08953 0.49461 0.65841 0.0
C2436 C 0.10645 0.48093 0.67037 0.0
C2437 C 0.11304 0.48755 0.69434 0.0
C2438 C 0.05408 0.45123 0.61613 0.0
C2439 C 0.04747 0.46711 0.59792 0.0
C2440 C 0.06922 0.45978 0.63484 0.0
C2441 C 0.0779 0.48447 0.63588 0.0
C2442 C 0.0723 0.50002 0.61702 0.0
C2443 C 0.05733 0.49135 0.59807 0.0
H2444 H 0.28079 0.33002 0.45545 0.0
H2445 H 0.22696 0.38344 0.47231 0.0
H2446 H 0.25639 0.3122 0.42214 0.0
H2447 H 0.20249 0.3653 0.43939 0.0
H2448 H 0.19216 0.35161 0.35464 0.0
H2449 H 0.20497 0.36499 0.39546 0.0
H2450 H 0.21964 0.28905 0.4107 0.0
H2451 H 0.20685 0.27584 0.36947 0.0
C2452 C 0.26372 0.33787 0.45219 0.0
C2453 C 0.25606 0.35839 0.4664 0.0
C2454 C 0.24956 0.32743 0.43329 0.0
C2455 C 0.22739 0.33724 0.42817 0.0
C2456 C 0.21951 0.3574 0.44273 0.0
C2457 C 0.23365 0.36784 0.46158 0.0
C2458 C 0.19682 0.33764 0.36722 0.0
C2459 C 0.19825 0.3127 0.35911 0.0
C2460 C 0.2044 0.3453 0.39058 0.0
C2461 C 0.21382 0.32814 0.40618 0.0
C2462 C 0.21286 0.30276 0.39893 0.0
C2463 C 0.20507 0.29509 0.37554 0.0
H2464 H 0.35091 0.4011 0.51396 0.0
H2465 H 0.32404 0.47471 0.50781 0.0
H2466 H 0.39131 0.41786 0.5106 0.0
H2467 H 0.36459 0.49149 0.50484 0.0
H2468 H 0.44034 0.51103 0.53719 0.0
H2469 H 0.39949 0.49454 0.53628 0.0
H2470 H 0.41806 0.44047 0.47982 0.0
H2471 H 0.45874 0.45703 0.48043 0.0
C2472 C 0.35359 0.42078 0.51151 0.0
C2473 C 0.33426 0.43657 0.51114 0.0
C2474 C 0.37673 0.43036 0.50961 0.0
C2475 C 0.38104 0.45599 0.50773 0.0
C2476 C 0.36173 0.47169 0.50654 0.0
C2477 C 0.33854 0.46204 0.508 0.0
C2478 C 0.43571 0.4956 0.52464 0.0
C2479 C 0.45278 0.48533 0.50891 0.0
C2480 C 0.41231 0.48632 0.52397 0.0
C2481 C 0.40564 0.46633 0.50789 0.0
C2482 C 0.42275 0.45586 0.49241 0.0
C2483 C 0.44601 0.4654 0.49276 0.0
H2484 H 0.78342 0.05413 0.5159 0.0
H2485 H 0.84685 0.0966 0.49911 0.0
H2486 H 0.80246 0.01611 0.50275 0.0
H2487 H 0.86646 0.05832 0.48708 0.0
H2488 H 0.8939 0.99066 0.4511 0.0
H2489 H 0.86787 0.02589 0.45629 0.0
H2490 H 0.83116 0.98891 0.51403 0.0
H2491 H 0.8563 0.95364 0.50798 0.0
C2492 C 0.80167 0.0553 0.50998 0.0
C2493 C 0.81368 0.07841 0.50869 0.0
C2494 C 0.81258 0.03344 0.50229 0.0
C2495 C 0.83593 0.03406 0.49349 0.0
C2496 C 0.84823 0.05714 0.49305 0.0
C2497 C 0.83717 0.07908 0.50042 0.0
C2498 C 0.87945 0.9896 0.46397 0.0
C2499 C 0.87722 0.96955 0.47929 0.0
C2500 C 0.86489 0.01003 0.4674 0.0
C2501 C 0.84792 0.01066 0.48617 0.0
C2502 C 0.844 0.98927 0.49945 0.0
C2503 C 0.85839 0.9689 0.49592 0.0
H2504 H 0.68603 0.02096 0.3122 0.0
H2505 H 0.65195 0.02127 0.24183 0.0
H2506 H 0.7037 0.06193 0.30554 0.0
H2507 H 0.66926 0.0622 0.23544 0.0
H2508 H 0.7251 0.12255 0.22048 0.0
H2509 H 0.70841 0.08116 0.2278 0.0
H2510 H 0.69261 0.10478 0.30194 0.0
H2511 H 0.70956 0.14557 0.29496 0.0
C2512 C 0.68199 0.0299 0.29553 0.0
C2513 C 0.66764 0.0178 0.27756 0.0
C2514 C 0.69215 0.05334 0.29167 0.0
C2515 C 0.6881 0.06513 0.26981 0.0
C2516 C 0.67315 0.05335 0.25222 0.0
C2517 C 0.66303 0.02998 0.25604 0.0
C2518 C 0.7182 0.11881 0.23835 0.0
C2519 C 0.71861 0.1374 0.25705 0.0
C2520 C 0.70851 0.0952 0.24251 0.0
C2521 C 0.69914 0.08978 0.26545 0.0
C2522 C 0.69992 0.10827 0.28418 0.0
C2523 C 0.70953 0.13175 0.28005 0.0
H2524 H 0.69969 0.8844 0.0027 0.0
H2525 H 0.72308 0.92964 0.94392 0.0
H2526 H 0.65921 0.89709 -0.00348 0.0
H2527 H 0.68251 0.9421 0.93761 0.0
H2528 H 0.61766 0.98722 0.96698 0.0
H2529 H 0.65638 0.96915 0.96204 0.0
H2530 H 0.62487 0.89584 0.96876 0.0
H2531 H 0.58609 0.91386 0.97398 0.0
C2532 C 0.69614 0.89668 0.98818 0.0
C2533 C 0.71466 0.90624 0.97402 0.0
C2534 C 0.6729 0.90384 0.98452 0.0
C2535 C 0.66769 0.92073 0.96666 0.0
C2536 C 0.68603 0.9293 0.9517 0.0
C2537 C 0.70926 0.92208 0.9553 0.0
C2538 C 0.61885 0.9672 0.96685 0.0
C2539 C 0.59878 0.95206 0.97126 0.0
C2540 C 0.64108 0.95682 0.96392 0.0
C2541 C 0.64371 0.93108 0.96535 0.0
C2542 C 0.62343 0.91578 0.96799 0.0
C2543 C 0.60118 0.92613 0.97083 0.0
H2544 H 0.36353 0.45819 0.25217 0.0
H2545 H 0.3374 0.46208 0.32605 0.0
H2546 H 0.33331 0.42694 0.24116 0.0
H2547 H 0.30768 0.42979 0.3152 0.0
H2548 H 0.28554 0.35611 0.2351 0.0
H2549 H 0.31783 0.38602 0.24442 0.0
H2550 H 0.2717 0.42774 0.29256 0.0
H2551 H 0.23982 0.39728 0.28391 0.0
C2552 C 0.35173 0.45194 0.26629 0.0
C2553 C 0.35272 0.46301 0.28998 0.0
C2554 C 0.33434 0.4339 0.25991 0.0
C2555 C 0.31765 0.42623 0.27711 0.0
C2556 C 0.31979 0.43586 0.30128 0.0
C2557 C 0.33709 0.4541 0.30763 0.0
C2558 C 0.28214 0.37208 0.24711 0.0
C2559 C 0.26016 0.3744 0.25876 0.0
C2560 C 0.30072 0.38914 0.25264 0.0
C2561 C 0.29758 0.409 0.26973 0.0
C2562 C 0.27502 0.41223 0.27996 0.0
C2563 C 0.25659 0.39505 0.27466 0.0
H2564 H 0.18537 0.59813 0.95883 0.0
H2565 H 0.19018 0.66668 0.00267 0.0
H2566 H 0.14763 0.58779 0.97775 0.0
H2567 H 0.15256 0.6561 0.02184 0.0
H2568 H 0.07139 0.64099 0.02472 0.0
H2569 H 0.11089 0.65184 0.01071 0.0
H2570 H 0.13145 0.57594 0.01758 0.0
H2571 H 0.09143 0.56488 0.03132 0.0
C2572 C 0.17832 0.61107 0.97239 0.0
C2573 C 0.19074 0.63328 0.97916 0.0
C2574 C 0.15685 0.60497 0.98347 0.0
C2575 C 0.1473 0.62096 0.00152 0.0
C2576 C 0.15946 0.64343 0.00794 0.0
C2577 C 0.18095 0.64953 -0.00313 0.0
C2578 C 0.08442 0.62666 0.02364 0.0
C2579 C 0.07827 0.60202 0.0289 0.0
C2580 C 0.10711 0.63293 0.0157 0.0
C2581 C 0.12418 0.6147 0.01277 0.0
C2582 C 0.11847 0.5903 0.01932 0.0
C2583 C 0.0957 0.58401 0.02744 0.0
H2584 H 0.72204 0.90274 0.29443 0.0
H2585 H 0.71806 0.92963 0.22178 0.0
H2586 H 0.754 0.87629 0.28196 0.0
H2587 H 0.7511 0.90393 0.20947 0.0
H2588 H 0.75743 0.81859 0.19249 0.0
H2589 H 0.74672 0.86085 0.20182 0.0
H2590 H 0.79076 0.8629 0.26624 0.0
H2591 H 0.80091 0.81972 0.25713 0.0
C2592 C 0.7286 0.90372 0.276 0.0
C2593 C 0.71693 0.91748 0.25882 0.0
C2594 C 0.74723 0.88868 0.26885 0.0
C2595 C 0.75469 0.88736 0.24445 0.0
C2596 C 0.74523 0.9039 0.22821 0.0
C2597 C 0.7263 0.91862 0.23524 0.0
C2598 C 0.76529 0.82819 0.20837 0.0
C2599 C 0.77931 0.8156 0.22455 0.0
C2600 C 0.75941 0.8527 0.21359 0.0
C2601 C 0.76745 0.86522 0.23514 0.0
C2602 C 0.78384 0.85357 0.24979 0.0
C2603 C 0.78972 0.82888 0.24454 0.0
H2604 H 0.831 0.11004 0.71482 0.0
H2605 H 0.81511 0.07267 0.78096 0.0
H2606 H 0.79663 0.13567 0.72152 0.0
H2607 H 0.78067 0.09817 0.78754 0.0
H2608 H 0.73543 0.18132 0.73692 0.0
H2609 H 0.7535 0.1416 0.7275 0.0
H2610 H 0.78276 0.14271 0.80005 0.0
H2611 H 0.76476 0.18229 0.80955 0.0
C2612 C 0.81968 0.10662 0.73027 0.0
C2613 C 0.8261 0.08976 0.74765 0.0
C2614 C 0.79991 0.12128 0.73412 0.0
C2615 C 0.78621 0.11925 0.75535 0.0
C2616 C 0.79116 0.10047 0.77127 0.0
C2617 C 0.81088 0.08586 0.76745 0.0
C2618 C 0.74504 0.17273 0.75117 0.0
C2619 C 0.74914 0.18533 0.77385 0.0
C2620 C 0.75549 0.15 0.74567 0.0
C2621 C 0.76993 0.13928 0.76282 0.0
C2622 C 0.7717 0.15044 0.7864 0.0
C2623 C 0.7614 0.17325 0.79186 0.0
loop_
_geom_bond_atom_site_label_1
_geom_bond_atom_site_label_2
_geom_bond_distance
_geom_bond_site_symmetry_2
_ccdc_geom_bond_type
Mg0 O1 2.028 . S
Mg0 O7 1.986 . S
Mg0 O9 2.114 1_455 S
Mg0 O10 2.251 1_455 S
Mg0 O13 2.010 . S
O1 Mg0 2.028 . S
O1 C4 1.250 . S
O2 Mg3 2.028 . S
O2 C4 1.248 1_655 S
Mg3 O2 2.028 . S
Mg3 O8 2.032 . S
Mg3 O10 2.079 . S
C4 O1 1.250 . S
C4 O2 1.248 1_455 S
C5 O6 1.264 . S
C5 O13 1.249 . S
O6 C5 1.264 . S
O7 Mg0 1.986 . S
O7 C11 1.246 . S
O8 Mg3 2.032 . S
O8 C11 1.259 1_655 S
O9 Mg0 2.114 1_655 S
O9 C12 1.252 . S
O10 Mg0 2.251 1_655 S
O10 Mg3 2.079 . S
O10 C12 1.273 . S
C11 O7 1.246 . S
C11 O8 1.259 1_455 S
C12 O9 1.252 . S
C12 O10 1.273 . S
O13 Mg0 2.010 . S
O13 C5 1.249 . S
Mg14 O15 2.028 . S
Mg14 O21 1.986 . S
Mg14 O23 2.114 1_455 S
Mg14 O24 2.251 1_455 S
Mg14 O27 2.010 . S
O15 Mg14 2.028 . S
O15 C18 1.250 . S
O16 Mg17 2.028 . S
O16 C18 1.248 1_655 S
Mg17 O16 2.028 . S
Mg17 O22 2.032 . S
Mg17 O24 2.079 . S
C18 O15 1.250 . S
C18 O16 1.248 1_455 S
C19 O20 1.264 . S
C19 O27 1.249 . S
O20 C19 1.264 . S
O21 Mg14 1.986 . S
O21 C25 1.246 . S
O22 Mg17 2.032 . S
O22 C25 1.259 1_655 S
O23 Mg14 2.114 1_655 S
O23 C26 1.252 . S
O24 Mg14 2.251 1_655 S
O24 Mg17 2.079 . S
O24 C26 1.273 . S
C25 O21 1.246 . S
C25 O22 1.259 1_455 S
C26 O23 1.252 . S
C26 O24 1.273 . S
O27 Mg14 2.010 . S
O27 C19 1.249 . S
Mg28 O29 2.028 . S
Mg28 O35 1.986 . S
Mg28 O37 2.114 . S
Mg28 O38 2.251 . S
Mg28 O41 2.010 . S
O29 Mg28 2.028 . S
O29 C32 1.250 . S
O30 Mg31 2.028 . S
O30 C32 1.248 . S
Mg31 O30 2.028 . S
Mg31 O36 2.032 . S
Mg31 O38 2.079 . S
C32 O29 1.250 . S
C32 O30 1.248 . S
C33 O34 1.264 . S
C33 O41 1.249 . S
O34 C33 1.264 . S
O35 Mg28 1.986 . S
O35 C39 1.246 . S
O36 Mg31 2.032 . S
O36 C39 1.259 . S
O37 Mg28 2.114 . S
O37 C40 1.252 . S
O38 Mg28 2.251 . S
O38 Mg31 2.079 . S
O38 C40 1.273 . S
C39 O35 1.246 . S
C39 O36 1.259 . S
C40 O37 1.252 . S
C40 O38 1.273 . S
O41 Mg28 2.010 . S
O41 C33 1.249 . S
Mg42 O43 2.028 . S
Mg42 O49 1.986 . S
Mg42 O51 2.114 . S
Mg42 O52 2.251 . S
Mg42 O55 2.010 . S
O43 Mg42 2.028 . S
O43 C46 1.250 . S
O44 Mg45 2.028 . S
O44 C46 1.248 . S
Mg45 O44 2.028 . S
Mg45 O50 2.032 . S
Mg45 O52 2.079 . S
C46 O43 1.250 . S
C46 O44 1.248 . S
C47 O48 1.264 . S
C47 O55 1.249 . S
O48 C47 1.264 . S
O49 Mg42 1.986 . S
O49 C53 1.246 . S
O50 Mg45 2.032 . S
O50 C53 1.259 . S
O51 Mg42 2.114 . S
O51 C54 1.252 . S
O52 Mg42 2.251 . S
O52 Mg45 2.079 . S
O52 C54 1.273 . S
C53 O49 1.246 . S
C53 O50 1.259 . S
C54 O51 1.252 . S
C54 O52 1.273 . S
O55 Mg42 2.010 . S
O55 C47 1.249 . S
Mg56 O57 2.028 . S
Mg56 O63 1.986 1_545 S
Mg56 O65 2.114 . S
Mg56 O66 2.251 . S
Mg56 O69 2.010 . S
O57 Mg56 2.028 . S
O57 C60 1.250 . S
O58 Mg59 2.028 . S
O58 C60 1.248 . S
Mg59 O58 2.028 . S
Mg59 O64 2.032 1_545 S
Mg59 O66 2.079 . S
C60 O57 1.250 . S
C60 O58 1.248 . S
C61 O62 1.264 1_545 S
C61 O69 1.249 . S
O62 C61 1.264 1_565 S
O63 Mg56 1.986 1_565 S
O63 C67 1.246 . S
O64 Mg59 2.032 1_565 S
O64 C67 1.259 . S
O65 Mg56 2.114 . S
O65 C68 1.252 . S
O66 Mg56 2.251 . S
O66 Mg59 2.079 . S
O66 C68 1.273 . S
C67 O63 1.246 . S
C67 O64 1.259 . S
C68 O65 1.252 . S
C68 O66 1.273 . S
O69 Mg56 2.010 . S
O69 C61 1.249 . S
Mg70 O71 2.028 . S
Mg70 O77 1.986 . S
Mg70 O79 2.114 . S
Mg70 O80 2.251 . S
Mg70 O83 2.010 . S
O71 Mg70 2.028 . S
O71 C74 1.250 . S
O72 Mg73 2.028 . S
O72 C74 1.248 . S
Mg73 O72 2.028 . S
Mg73 O78 2.032 . S
Mg73 O80 2.079 . S
C74 O71 1.250 . S
C74 O72 1.248 . S
C75 O76 1.264 . S
C75 O83 1.249 . S
O76 C75 1.264 . S
O77 Mg70 1.986 . S
O77 C81 1.246 . S
O78 Mg73 2.032 . S
O78 C81 1.259 . S
O79 Mg70 2.114 . S
O79 C82 1.252 . S
O80 Mg70 2.251 . S
O80 Mg73 2.079 . S
O80 C82 1.273 . S
C81 O77 1.246 . S
C81 O78 1.259 . S
C82 O79 1.252 . S
C82 O80 1.273 . S
O83 Mg70 2.010 . S
O83 C75 1.249 . S
Mg84 O85 2.028 1_545 S
Mg84 O91 1.986 . S
Mg84 O93 2.114 1_545 S
Mg84 O94 2.251 . S
Mg84 O97 2.010 . S
O85 Mg84 2.028 1_565 S
O85 C88 1.250 . S
O86 Mg87 2.028 1_565 S
O86 C88 1.248 . S
Mg87 O86 2.028 1_545 S
Mg87 O92 2.032 . S
Mg87 O94 2.079 . S
C88 O85 1.250 . S
C88 O86 1.248 . S
C89 O90 1.264 . S
C89 O97 1.249 . S
O90 C89 1.264 . S
O91 Mg84 1.986 . S
O91 C95 1.246 . S
O92 Mg87 2.032 . S
O92 C95 1.259 . S
O93 Mg84 2.114 1_565 S
O93 C96 1.252 . S
O94 Mg84 2.251 . S
O94 Mg87 2.079 . S
O94 C96 1.273 1_545 S
C95 O91 1.246 . S
C95 O92 1.259 . S
C96 O93 1.252 . S
C96 O94 1.273 1_565 S
O97 Mg84 2.010 . S
O97 C89 1.249 . S
Mg98 O99 2.031 . S
Mg98 O105 1.984 1_554 S
Mg98 O107 2.115 . S
Mg98 O108 2.252 . S
Mg98 O111 2.010 1_554 S
O99 Mg98 2.031 . S
O99 C102 1.250 . S
O100 Mg101 2.028 . S
O100 C102 1.248 . S
Mg101 O100 2.028 . S
Mg101 O106 2.032 1_554 S
Mg101 O108 2.079 . S
C102 O99 1.250 . S
C102 O100 1.248 . S
C103 O104 1.264 1_554 S
C103 O111 1.249 1_554 S
O104 C103 1.264 1_556 S
O105 Mg98 1.984 1_556 S
O105 C109 1.246 . S
O106 Mg101 2.032 1_556 S
O106 C109 1.259 . S
O107 Mg98 2.115 . S
O107 C110 1.252 . S
O108 Mg98 2.252 . S
O108 Mg101 2.079 . S
O108 C110 1.273 . S
C109 O105 1.246 . S
C109 O106 1.259 . S
C110 O107 1.252 . S
C110 O108 1.273 . S
O111 Mg98 2.010 1_556 S
O111 C103 1.249 1_556 S
Mg112 O113 2.028 1_554 S
Mg112 O119 1.986 . S
Mg112 O121 2.114 . S
Mg112 O122 2.251 . S
Mg112 O125 2.010 . S
O113 Mg112 2.028 1_556 S
O113 C116 1.250 . S
O114 Mg115 2.028 1_556 S
O114 C116 1.248 . S
Mg115 O114 2.028 1_554 S
Mg115 O120 2.032 . S
Mg115 O122 2.079 . S
C116 O113 1.250 . S
C116 O114 1.248 . S
C117 O118 1.264 . S
C117 O125 1.249 . S
O118 C117 1.264 . S
O119 Mg112 1.986 . S
O119 C123 1.246 . S
O120 Mg115 2.032 . S
O120 C123 1.259 . S
O121 Mg112 2.114 . S
O121 C124 1.252 . S
O122 Mg112 2.251 . S
O122 Mg115 2.079 . S
O122 C124 1.273 . S
C123 O119 1.246 . S
C123 O120 1.259 . S
C124 O121 1.252 . S
C124 O122 1.273 . S
O125 Mg112 2.010 . S
O125 C117 1.249 . S
Mg126 O127 2.028 . S
Mg126 O133 1.986 . S
Mg126 O135 2.114 . S
Mg126 O136 2.251 . S
Mg126 O139 2.010 . S
O127 Mg126 2.028 . S
O127 C130 1.250 . S
O128 Mg129 2.028 . S
O128 C130 1.248 . S
Mg129 O128 2.028 . S
Mg129 O134 2.032 . S
Mg129 O136 2.079 . S
C130 O127 1.250 . S
C130 O128 1.248 . S
C131 O132 1.264 . S
C131 O139 1.249 . S
O132 C131 1.264 . S
O133 Mg126 1.986 . S
O133 C137 1.246 . S
O134 Mg129 2.032 . S
O134 C137 1.259 . S
O135 Mg126 2.114 . S
O135 C138 1.252 . S
O136 Mg126 2.251 . S
O136 Mg129 2.079 . S
O136 C138 1.273 . S
C137 O133 1.246 . S
C137 O134 1.259 . S
C138 O135 1.252 . S
C138 O136 1.273 . S
O139 Mg126 2.010 . S
O139 C131 1.249 . S
Mg140 O141 2.028 . S
Mg140 O147 1.986 . S
Mg140 O149 2.114 . S
Mg140 O150 2.251 . S
Mg140 O153 2.010 . S
O141 Mg140 2.028 . S
O141 C144 1.250 . S
O142 Mg143 2.028 . S
O142 C144 1.248 . S
Mg143 O142 2.028 . S
Mg143 O148 2.032 . S
Mg143 O150 2.079 . S
C144 O141 1.250 . S
C144 O142 1.248 . S
C145 O146 1.264 . S
C145 O153 1.249 . S
O146 C145 1.264 . S
O147 Mg140 1.986 . S
O147 C151 1.246 . S
O148 Mg143 2.032 . S
O148 C151 1.259 . S
O149 Mg140 2.114 . S
O149 C152 1.252 . S
O150 Mg140 2.251 . S
O150 Mg143 2.079 . S
O150 C152 1.273 . S
C151 O147 1.246 . S
C151 O148 1.259 . S
C152 O149 1.252 . S
C152 O150 1.273 . S
O153 Mg140 2.010 . S
O153 C145 1.249 . S
Mg154 O155 2.028 . S
Mg154 O161 1.986 . S
Mg154 O163 2.114 . S
Mg154 O164 2.251 . S
Mg154 O167 2.010 . S
O155 Mg154 2.028 . S
O155 C158 1.250 . S
O156 Mg157 2.028 . S
O156 C158 1.248 . S
Mg157 O156 2.028 . S
Mg157 O162 2.032 . S
Mg157 O164 2.079 . S
C158 O155 1.250 . S
C158 O156 1.248 . S
C159 O160 1.264 . S
C159 O167 1.249 . S
O160 C159 1.264 . S
O161 Mg154 1.986 . S
O161 C165 1.246 . S
O162 Mg157 2.032 . S
O162 C165 1.259 . S
O163 Mg154 2.114 . S
O163 C166 1.252 . S
O164 Mg154 2.251 . S
O164 Mg157 2.079 . S
O164 C166 1.273 . S
C165 O161 1.246 . S
C165 O162 1.259 . S
C166 O163 1.252 . S
C166 O164 1.273 . S
O167 Mg154 2.010 . S
O167 C159 1.249 . S
Mg168 O169 2.028 . S
Mg168 O175 1.986 . S
Mg168 O177 2.114 1_455 S
Mg168 O178 2.251 1_455 S
Mg168 O181 2.010 . S
O169 Mg168 2.028 . S
O169 C172 1.250 . S
O170 Mg171 2.028 . S
O170 C172 1.248 1_655 S
Mg171 O170 2.028 . S
Mg171 O176 2.032 . S
Mg171 O178 2.079 . S
C172 O169 1.250 . S
C172 O170 1.248 1_455 S
C173 O174 1.264 . S
C173 O181 1.249 . S
O174 C173 1.264 . S
O175 Mg168 1.986 . S
O175 C179 1.246 . S
O176 Mg171 2.032 . S
O176 C179 1.259 1_655 S
O177 Mg168 2.114 1_655 S
O177 C180 1.252 . S
O178 Mg168 2.251 1_655 S
O178 Mg171 2.079 . S
O178 C180 1.273 . S
C179 O175 1.246 . S
C179 O176 1.259 1_455 S
C180 O177 1.252 . S
C180 O178 1.273 . S
O181 Mg168 2.010 . S
O181 C173 1.249 . S
Mg182 O183 2.028 . S
Mg182 O189 1.986 . S
Mg182 O191 2.114 1_455 S
Mg182 O192 2.251 1_455 S
Mg182 O195 2.010 . S
O183 Mg182 2.028 . S
O183 C186 1.250 . S
O184 Mg185 2.028 . S
O184 C186 1.248 1_655 S
Mg185 O184 2.028 . S
Mg185 O190 2.032 . S
Mg185 O192 2.079 . S
C186 O183 1.250 . S
C186 O184 1.248 1_455 S
C187 O188 1.264 . S
C187 O195 1.249 . S
O188 C187 1.264 . S
O189 Mg182 1.986 . S
O189 C193 1.246 . S
O190 Mg185 2.032 . S
O190 C193 1.259 1_655 S
O191 Mg182 2.114 1_655 S
O191 C194 1.252 . S
O192 Mg182 2.251 1_655 S
O192 Mg185 2.079 . S
O192 C194 1.273 . S
C193 O189 1.246 . S
C193 O190 1.259 1_455 S
C194 O191 1.252 . S
C194 O192 1.273 . S
O195 Mg182 2.010 . S
O195 C187 1.249 . S
Mg196 O197 2.028 . S
Mg196 O203 1.986 . S
Mg196 O205 2.114 . S
Mg196 O206 2.251 . S
Mg196 O209 2.010 . S
O197 Mg196 2.028 . S
O197 C200 1.250 . S
O198 Mg199 2.028 . S
O198 C200 1.248 . S
Mg199 O198 2.028 . S
Mg199 O204 2.032 . S
Mg199 O206 2.079 . S
C200 O197 1.250 . S
C200 O198 1.248 . S
C201 O202 1.264 . S
C201 O209 1.249 . S
O202 C201 1.264 . S
O203 Mg196 1.986 . S
O203 C207 1.246 . S
O204 Mg199 2.032 . S
O204 C207 1.259 . S
O205 Mg196 2.114 . S
O205 C208 1.252 . S
O206 Mg196 2.251 . S
O206 Mg199 2.079 . S
O206 C208 1.273 . S
C207 O203 1.246 . S
C207 O204 1.259 . S
C208 O205 1.252 . S
C208 O206 1.273 . S
O209 Mg196 2.010 . S
O209 C201 1.249 . S
Mg210 O211 2.028 . S
Mg210 O217 1.986 . S
Mg210 O219 2.114 . S
Mg210 O220 2.251 . S
Mg210 O223 2.010 . S
O211 Mg210 2.028 . S
O211 C214 1.250 . S
O212 Mg213 2.028 . S
O212 C214 1.248 . S
Mg213 O212 2.028 . S
Mg213 O218 2.032 . S
Mg213 O220 2.079 . S
C214 O211 1.250 . S
C214 O212 1.248 . S
C215 O216 1.264 . S
C215 O223 1.249 . S
O216 C215 1.264 . S
O217 Mg210 1.986 . S
O217 C221 1.246 . S
O218 Mg213 2.032 . S
O218 C221 1.259 . S
O219 Mg210 2.114 . S
O219 C222 1.252 . S
O220 Mg210 2.251 . S
O220 Mg213 2.079 . S
O220 C222 1.273 . S
C221 O217 1.246 . S
C221 O218 1.259 . S
C222 O219 1.252 . S
C222 O220 1.273 . S
O223 Mg210 2.010 . S
O223 C215 1.249 . S
Mg224 O225 2.028 1_545 S
Mg224 O231 1.986 . S
Mg224 O233 2.114 . S
Mg224 O234 2.251 . S
Mg224 O237 2.010 . S
O225 Mg224 2.028 1_565 S
O225 C228 1.250 . S
O226 Mg227 2.028 1_565 S
O226 C228 1.248 . S
Mg227 O226 2.028 1_545 S
Mg227 O232 2.032 . S
Mg227 O234 2.079 . S
C228 O225 1.250 . S
C228 O226 1.248 . S
C229 O230 1.264 . S
C229 O237 1.249 . S
O230 C229 1.264 . S
O231 Mg224 1.986 . S
O231 C235 1.246 . S
O232 Mg227 2.032 . S
O232 C235 1.259 . S
O233 Mg224 2.114 . S
O233 C236 1.252 . S
O234 Mg224 2.251 . S
O234 Mg227 2.079 . S
O234 C236 1.273 . S
C235 O231 1.246 . S
C235 O232 1.259 . S
C236 O233 1.252 . S
C236 O234 1.273 . S
O237 Mg224 2.010 . S
O237 C229 1.249 . S
Mg238 O239 2.028 . S
Mg238 O245 1.986 . S
Mg238 O247 2.114 . S
Mg238 O248 2.251 . S
Mg238 O251 2.010 . S
O239 Mg238 2.028 . S
O239 C242 1.250 . S
O240 Mg241 2.028 . S
O240 C242 1.248 . S
Mg241 O240 2.028 . S
Mg241 O246 2.032 . S
Mg241 O248 2.079 . S
C242 O239 1.250 . S
C242 O240 1.248 . S
C243 O244 1.264 . S
C243 O251 1.249 . S
O244 C243 1.264 . S
O245 Mg238 1.986 . S
O245 C249 1.246 . S
O246 Mg241 2.032 . S
O246 C249 1.259 . S
O247 Mg238 2.114 . S
O247 C250 1.252 . S
O248 Mg238 2.251 . S
O248 Mg241 2.079 . S
O248 C250 1.273 . S
C249 O245 1.246 . S
C249 O246 1.259 . S
C250 O247 1.252 . S
C250 O248 1.273 . S
O251 Mg238 2.010 . S
O251 C243 1.249 . S
Mg252 O253 2.028 1_565 S
Mg252 O259 1.986 . S
Mg252 O261 2.114 1_565 S
Mg252 O262 2.251 . S
Mg252 O265 2.010 . S
O253 Mg252 2.028 1_545 S
O253 C256 1.250 . S
O254 Mg255 2.051 . S
O254 C256 1.248 . S
Mg255 O254 2.051 . S
Mg255 O260 2.012 1_545 S
Mg255 O262 2.077 1_545 S
C256 O253 1.250 . S
C256 O254 1.248 . S
C257 O258 1.264 . S
C257 O265 1.249 . S
O258 C257 1.264 . S
O259 Mg252 1.986 . S
O259 C263 1.246 . S
O260 Mg255 2.012 1_565 S
O260 C263 1.259 . S
O261 Mg252 2.114 1_545 S
O261 C264 1.252 . S
O262 Mg252 2.251 . S
O262 Mg255 2.077 1_565 S
O262 C264 1.273 1_565 S
C263 O259 1.246 . S
C263 O260 1.259 . S
C264 O261 1.252 . S
C264 O262 1.273 1_545 S
O265 Mg252 2.010 . S
O265 C257 1.249 . S
Mg266 O267 2.028 1_554 S
Mg266 O273 1.986 . S
Mg266 O275 2.114 1_554 S
Mg266 O276 2.251 . S
Mg266 O279 2.010 . S
O267 Mg266 2.028 1_556 S
O267 C270 1.250 . S
O268 Mg269 2.028 1_556 S
O268 C270 1.248 . S
Mg269 O268 2.028 1_554 S
Mg269 O274 2.032 . S
Mg269 O276 2.079 . S
C270 O267 1.250 . S
C270 O268 1.248 . S
C271 O272 1.264 . S
C271 O279 1.249 . S
O272 C271 1.264 . S
O273 Mg266 1.986 . S
O273 C277 1.246 . S
O274 Mg269 2.032 . S
O274 C277 1.259 . S
O275 Mg266 2.114 1_556 S
O275 C278 1.252 1_556 S
O276 Mg266 2.251 . S
O276 Mg269 2.079 . S
O276 C278 1.273 . S
C277 O273 1.246 . S
C277 O274 1.259 . S
C278 O275 1.252 1_554 S
C278 O276 1.273 . S
O279 Mg266 2.010 . S
O279 C271 1.249 . S
Mg280 O281 2.028 1_556 S
Mg280 O287 1.986 . S
Mg280 O289 2.114 1_556 S
Mg280 O290 2.251 . S
Mg280 O293 2.010 . S
O281 Mg280 2.028 1_554 S
O281 C284 1.250 . S
O282 Mg283 2.007 1_554 S
O282 C284 1.248 . S
Mg283 O282 2.007 1_556 S
Mg283 O288 2.053 . S
Mg283 O290 2.081 . S
C284 O281 1.250 . S
C284 O282 1.248 . S
C285 O286 1.264 . S
C285 O293 1.249 . S
O286 C285 1.264 . S
O287 Mg280 1.986 . S
O287 C291 1.246 . S
O288 Mg283 2.053 . S
O288 C291 1.259 . S
O289 Mg280 2.114 1_554 S
O289 C292 1.252 . S
O290 Mg280 2.251 . S
O290 Mg283 2.081 . S
O290 C292 1.273 1_556 S
C291 O287 1.246 . S
C291 O288 1.259 . S
C292 O289 1.252 . S
C292 O290 1.273 1_554 S
O293 Mg280 2.010 . S
O293 C285 1.249 . S
Mg294 O295 2.028 . S
Mg294 O301 1.986 . S
Mg294 O303 2.114 . S
Mg294 O304 2.251 . S
Mg294 O307 2.010 . S
O295 Mg294 2.028 . S
O295 C298 1.250 . S
O296 Mg297 2.028 . S
O296 C298 1.248 . S
Mg297 O296 2.028 . S
Mg297 O302 2.032 . S
Mg297 O304 2.079 . S
C298 O295 1.250 . S
C298 O296 1.248 . S
C299 O300 1.264 . S
C299 O307 1.249 . S
O300 C299 1.264 . S
O301 Mg294 1.986 . S
O301 C305 1.246 . S
O302 Mg297 2.032 . S
O302 C305 1.259 . S
O303 Mg294 2.114 . S
O303 C306 1.252 . S
O304 Mg294 2.251 . S
O304 Mg297 2.079 . S
O304 C306 1.273 . S
C305 O301 1.246 . S
C305 O302 1.259 . S
C306 O303 1.252 . S
C306 O304 1.273 . S
O307 Mg294 2.010 . S
O307 C299 1.249 . S
Mg308 O309 2.028 . S
Mg308 O315 1.986 . S
Mg308 O317 2.114 . S
Mg308 O318 2.251 . S
Mg308 O321 2.010 . S
O309 Mg308 2.028 . S
O309 C312 1.250 . S
O310 Mg311 2.028 . S
O310 C312 1.248 . S
Mg311 O310 2.028 . S
Mg311 O316 2.032 . S
Mg311 O318 2.079 . S
C312 O309 1.250 . S
C312 O310 1.248 . S
C313 O314 1.264 . S
C313 O321 1.249 . S
O314 C313 1.264 . S
O315 Mg308 1.986 . S
O315 C319 1.246 . S
O316 Mg311 2.032 . S
O316 C319 1.259 . S
O317 Mg308 2.114 . S
O317 C320 1.252 . S
O318 Mg308 2.251 . S
O318 Mg311 2.079 . S
O318 C320 1.273 . S
C319 O315 1.246 . S
C319 O316 1.259 . S
C320 O317 1.252 . S
C320 O318 1.273 . S
O321 Mg308 2.010 . S
O321 C313 1.249 . S
Mg322 O323 2.028 . S
Mg322 O329 1.986 . S
Mg322 O331 2.114 . S
Mg322 O332 2.251 . S
Mg322 O335 2.010 . S
O323 Mg322 2.028 . S
O323 C326 1.250 . S
O324 Mg325 2.028 . S
O324 C326 1.248 . S
Mg325 O324 2.028 . S
Mg325 O330 2.032 . S
Mg325 O332 2.079 . S
C326 O323 1.250 . S
C326 O324 1.248 . S
C327 O328 1.264 . S
C327 O335 1.249 . S
O328 C327 1.264 . S
O329 Mg322 1.986 . S
O329 C333 1.246 . S
O330 Mg325 2.032 . S
O330 C333 1.259 . S
O331 Mg322 2.114 . S
O331 C334 1.252 . S
O332 Mg322 2.251 . S
O332 Mg325 2.079 . S
O332 C334 1.273 . S
C333 O329 1.246 . S
C333 O330 1.259 . S
C334 O331 1.252 . S
C334 O332 1.273 . S
O335 Mg322 2.010 . S
O335 C327 1.249 . S
O336 Zn337 1.953 . S
O336 C352 1.225 1_455 S
Zn337 O336 1.953 . S
Zn337 O338 1.949 . S
Zn337 O344 1.921 . S
Zn337 O349 1.924 1_454 S
O338 Zn337 1.949 . S
O338 Zn339 1.923 1_545 S
O338 Zn340 1.950 1_455 S
O338 Zn341 1.945 1_444 S
Zn339 O338 1.923 1_565 S
Zn339 O342 1.933 . S
Zn339 O345 1.941 1_565 S
Zn339 O346 1.965 . S
Zn340 O338 1.950 1_655 S
Zn340 O347 1.938 . S
Zn340 O348 1.906 1_545 S
Zn340 O358 1.953 . S
Zn341 O338 1.945 1_666 S
Zn341 O343 1.932 . S
Zn341 O350 1.977 1_556 S
Zn341 O351 1.910 1_565 S
O342 Zn339 1.933 . S
O342 C353 1.226 1_554 S
O343 Zn341 1.932 . S
O343 C353 1.307 1_655 S
O344 Zn337 1.921 . S
O344 C355 1.257 . S
O345 Zn339 1.941 1_545 S
O345 C355 1.283 . S
O346 Zn339 1.965 . S
O346 C354 1.303 1_565 S
O347 Zn340 1.938 . S
O347 C354 1.247 1_655 S
O348 Zn340 1.906 1_565 S
O348 C356 1.304 . S
O349 Zn337 1.924 1_656 S
O349 C357 1.311 . S
O350 Zn341 1.977 1_554 S
O350 C356 1.272 . S
O351 Zn341 1.910 1_545 S
O351 C357 1.231 . S
C352 O336 1.225 1_655 S
C352 O358 1.298 . S
C353 O342 1.226 1_556 S
C353 O343 1.307 1_455 S
C354 O346 1.303 1_545 S
C354 O347 1.247 1_455 S
C355 O344 1.257 . S
C355 O345 1.283 . S
C356 O348 1.304 . S
C356 O350 1.272 . S
C357 O349 1.311 . S
C357 O351 1.231 . S
O358 Zn340 1.953 . S
O358 C352 1.298 . S
O359 Zn360 1.953 . S
O359 C375 1.225 . S
Zn360 O359 1.953 . S
Zn360 O361 1.949 . S
Zn360 O367 1.919 . S
Zn360 O372 1.924 . S
O361 Zn360 1.949 . S
O361 Zn362 1.923 . S
O361 Zn363 1.950 . S
O361 Zn364 1.945 . S
Zn362 O361 1.923 . S
Zn362 O365 1.933 . S
Zn362 O368 1.941 . S
Zn362 O369 1.965 . S
Zn363 O361 1.950 . S
Zn363 O370 1.938 . S
Zn363 O371 1.906 . S
Zn363 O381 1.953 . S
Zn364 O361 1.945 . S
Zn364 O366 1.932 . S
Zn364 O373 1.977 . S
Zn364 O374 1.910 . S
O365 Zn362 1.933 . S
O365 C376 1.226 . S
O366 Zn364 1.932 . S
O366 C376 1.307 . S
O367 Zn360 1.919 . S
O367 C378 1.253 . S
O368 Zn362 1.941 . S
O368 C378 1.283 . S
O369 Zn362 1.965 . S
O369 C377 1.303 . S
O370 Zn363 1.938 . S
O370 C377 1.247 . S
O371 Zn363 1.906 . S
O371 C379 1.304 . S
O372 Zn360 1.924 . S
O372 C380 1.311 . S
O373 Zn364 1.977 . S
O373 C379 1.272 . S
O374 Zn364 1.910 . S
O374 C380 1.231 . S
C375 O359 1.225 . S
C375 O381 1.298 . S
C376 O365 1.226 . S
C376 O366 1.307 . S
C377 O369 1.303 . S
C377 O370 1.247 . S
C378 O367 1.253 . S
C378 O368 1.283 . S
C379 O371 1.304 . S
C379 O373 1.272 . S
C380 O372 1.311 . S
C380 O374 1.231 . S
O381 Zn363 1.953 . S
O381 C375 1.298 . S
O382 Zn383 1.953 . S
O382 C398 1.225 . S
Zn383 O382 1.953 . S
Zn383 O384 1.949 1_565 S
Zn383 O390 1.919 . S
Zn383 O395 1.924 . S
O384 Zn383 1.949 1_545 S
O384 Zn385 1.923 . S
O384 Zn386 1.950 . S
O384 Zn387 1.945 . S
Zn385 O384 1.923 . S
Zn385 O388 1.933 . S
Zn385 O391 1.941 . S
Zn385 O392 1.965 . S
Zn386 O384 1.950 . S
Zn386 O393 1.938 . S
Zn386 O394 1.906 . S
Zn386 O404 1.953 1_545 S
Zn387 O384 1.945 . S
Zn387 O389 1.932 . S
Zn387 O396 1.977 . S
Zn387 O397 1.910 . S
O388 Zn385 1.933 . S
O388 C399 1.226 . S
O389 Zn387 1.932 . S
O389 C399 1.307 . S
O390 Zn383 1.919 . S
O390 C401 1.253 . S
O391 Zn385 1.941 . S
O391 C401 1.283 1_545 S
O392 Zn385 1.965 . S
O392 C400 1.303 . S
O393 Zn386 1.938 . S
O393 C400 1.247 . S
O394 Zn386 1.906 . S
O394 C402 1.304 . S
O395 Zn383 1.924 . S
O395 C403 1.311 . S
O396 Zn387 1.977 . S
O396 C402 1.272 . S
O397 Zn387 1.910 . S
O397 C403 1.231 1_545 S
C398 O382 1.225 . S
C398 O404 1.298 . S
C399 O388 1.226 . S
C399 O389 1.307 . S
C400 O392 1.303 . S
C400 O393 1.247 . S
C401 O390 1.253 . S
C401 O391 1.283 1_565 S
C402 O394 1.304 . S
C402 O396 1.272 . S
C403 O395 1.311 . S
C403 O397 1.231 1_565 S
O404 Zn386 1.953 1_565 S
O404 C398 1.298 . S
O405 Zn406 1.953 . S
O405 C421 1.225 . S
Zn406 O405 1.953 . S
Zn406 O407 1.949 . S
Zn406 O413 1.919 . S
Zn406 O418 1.924 . S
O407 Zn406 1.949 . S
O407 Zn408 1.923 . S
O407 Zn409 1.950 . S
O407 Zn410 1.945 . S
Zn408 O407 1.923 . S
Zn408 O411 1.933 . S
Zn408 O414 1.941 . S
Zn408 O415 1.965 . S
Zn409 O407 1.950 . S
Zn409 O416 1.938 . S
Zn409 O417 1.906 . S
Zn409 O427 1.953 . S
Zn410 O407 1.945 . S
Zn410 O412 1.932 . S
Zn410 O419 1.977 . S
Zn410 O420 1.910 . S
O411 Zn408 1.933 . S
O411 C422 1.226 . S
O412 Zn410 1.932 . S
O412 C422 1.307 . S
O413 Zn406 1.919 . S
O413 C424 1.253 . S
O414 Zn408 1.941 . S
O414 C424 1.283 . S
O415 Zn408 1.965 . S
O415 C423 1.303 . S
O416 Zn409 1.938 . S
O416 C423 1.247 . S
O417 Zn409 1.906 . S
O417 C425 1.304 . S
O418 Zn406 1.924 . S
O418 C426 1.311 . S
O419 Zn410 1.977 . S
O419 C425 1.272 . S
O420 Zn410 1.910 . S
O420 C426 1.231 . S
C421 O405 1.225 . S
C421 O427 1.298 . S
C422 O411 1.226 . S
C422 O412 1.307 . S
C423 O415 1.303 . S
C423 O416 1.247 . S
C424 O413 1.253 . S
C424 O414 1.283 . S
C425 O417 1.304 . S
C425 O419 1.272 . S
C426 O418 1.311 . S
C426 O420 1.231 . S
O427 Zn409 1.953 . S
O427 C421 1.298 . S
O428 Zn429 1.953 . S
O428 C444 1.225 . S
Zn429 O428 1.953 . S
Zn429 O430 1.949 . S
Zn429 O436 1.919 1_445 S
Zn429 O441 1.924 1_455 S
O430 Zn429 1.949 . S
O430 Zn431 1.923 1_545 S
O430 Zn432 1.950 . S
O430 Zn433 1.945 1_455 S
Zn431 O430 1.923 1_565 S
Zn431 O434 1.933 . S
Zn431 O437 1.941 . S
Zn431 O438 1.965 . S
Zn432 O430 1.950 . S
Zn432 O439 1.938 . S
Zn432 O440 1.906 . S
Zn432 O450 1.953 . S
Zn433 O430 1.945 1_655 S
Zn433 O435 1.932 . S
Zn433 O442 1.977 1_655 S
Zn433 O443 1.910 . S
O434 Zn431 1.933 . S
O434 C445 1.226 1_455 S
O435 Zn433 1.932 . S
O435 C445 1.307 1_545 S
O436 Zn429 1.919 1_665 S
O436 C447 1.253 1_655 S
O437 Zn431 1.941 . S
O437 C447 1.283 . S
O438 Zn431 1.965 . S
O438 C446 1.303 . S
O439 Zn432 1.938 . S
O439 C446 1.247 1_545 S
O440 Zn432 1.906 . S
O440 C448 1.304 . S
O441 Zn429 1.924 1_655 S
O441 C449 1.311 . S
O442 Zn433 1.977 1_455 S
O442 C448 1.272 . S
O443 Zn433 1.910 . S
O443 C449 1.231 . S
C444 O428 1.225 . S
C444 O450 1.298 . S
C445 O434 1.226 1_655 S
C445 O435 1.307 1_565 S
C446 O438 1.303 . S
C446 O439 1.247 1_565 S
C447 O436 1.253 1_455 S
C447 O437 1.283 . S
C448 O440 1.304 . S
C448 O442 1.272 . S
C449 O441 1.311 . S
C449 O443 1.231 . S
O450 Zn432 1.953 . S
O450 C444 1.298 . S
O451 Zn452 1.953 . S
O451 C467 1.225 . S
Zn452 O451 1.953 . S
Zn452 O453 1.949 . S
Zn452 O459 1.919 . S
Zn452 O464 1.924 . S
O453 Zn452 1.949 . S
O453 Zn454 1.923 . S
O453 Zn455 1.950 . S
O453 Zn456 1.945 . S
Zn454 O453 1.923 . S
Zn454 O457 1.933 . S
Zn454 O460 1.941 . S
Zn454 O461 1.965 . S
Zn455 O453 1.950 . S
Zn455 O462 1.938 . S
Zn455 O463 1.906 . S
Zn455 O473 1.953 . S
Zn456 O453 1.945 . S
Zn456 O458 1.932 . S
Zn456 O465 1.977 . S
Zn456 O466 1.910 . S
O457 Zn454 1.933 . S
O457 C468 1.226 . S
O458 Zn456 1.932 . S
O458 C468 1.307 . S
O459 Zn452 1.919 . S
O459 C470 1.253 . S
O460 Zn454 1.941 . S
O460 C470 1.283 . S
O461 Zn454 1.965 . S
O461 C469 1.303 . S
O462 Zn455 1.938 . S
O462 C469 1.247 . S
O463 Zn455 1.906 . S
O463 C471 1.304 . S
O464 Zn452 1.924 . S
O464 C472 1.311 . S
O465 Zn456 1.977 . S
O465 C471 1.272 . S
O466 Zn456 1.910 . S
O466 C472 1.231 . S
C467 O451 1.225 . S
C467 O473 1.298 . S
C468 O457 1.226 . S
C468 O458 1.307 . S
C469 O461 1.303 . S
C469 O462 1.247 . S
C470 O459 1.253 . S
C470 O460 1.283 . S
C471 O463 1.304 . S
C471 O465 1.272 . S
C472 O464 1.311 . S
C472 O466 1.231 . S
O473 Zn455 1.953 . S
O473 C467 1.298 . S
O474 Zn475 1.953 . S
O474 C490 1.225 . S
Zn475 O474 1.953 . S
Zn475 O476 1.949 . S
Zn475 O482 1.911 1_545 S
Zn475 O487 1.924 . S
O476 Zn475 1.949 . S
O476 Zn477 1.928 1_545 S
O476 Zn478 1.950 . S
O476 Zn479 1.945 1_554 S
Zn477 O476 1.928 1_565 S
Zn477 O480 1.921 1_554 S
Zn477 O483 1.940 1_554 S
Zn477 O484 1.974 . S
Zn478 O476 1.950 . S
Zn478 O485 1.938 1_545 S
Zn478 O486 1.906 . S
Zn478 O496 1.953 . S
Zn479 O476 1.945 1_556 S
Zn479 O481 1.932 . S
Zn479 O488 1.977 1_556 S
Zn479 O489 1.910 . S
O480 Zn477 1.921 1_556 S
O480 C491 1.226 . S
O481 Zn479 1.932 . S
O481 C491 1.307 1_545 S
O482 Zn475 1.911 1_565 S
O482 C493 1.265 1_554 S
O483 Zn477 1.940 1_556 S
O483 C493 1.283 . S
O484 Zn477 1.974 . S
O484 C492 1.303 . S
O485 Zn478 1.938 1_565 S
O485 C492 1.247 . S
O486 Zn478 1.906 . S
O486 C494 1.304 . S
O487 Zn475 1.924 . S
O487 C495 1.311 . S
O488 Zn479 1.977 1_554 S
O488 C494 1.272 . S
O489 Zn479 1.910 . S
O489 C495 1.231 1_556 S
C490 O474 1.225 . S
C490 O496 1.298 . S
C491 O480 1.226 . S
C491 O481 1.307 1_565 S
C492 O484 1.303 . S
C492 O485 1.247 . S
C493 O482 1.265 1_556 S
C493 O483 1.283 . S
C494 O486 1.304 . S
C494 O488 1.272 . S
C495 O487 1.311 . S
C495 O489 1.231 1_554 S
O496 Zn478 1.953 . S
O496 C490 1.298 . S
O497 Zn498 1.953 . S
O497 C513 1.225 . S
Zn498 O497 1.953 . S
Zn498 O499 1.949 . S
Zn498 O505 1.919 . S
Zn498 O510 1.924 . S
O499 Zn498 1.949 . S
O499 Zn500 1.923 . S
O499 Zn501 1.950 . S
O499 Zn502 1.945 . S
Zn500 O499 1.923 . S
Zn500 O503 1.933 . S
Zn500 O506 1.941 . S
Zn500 O507 1.965 . S
Zn501 O499 1.950 . S
Zn501 O508 1.938 . S
Zn501 O509 1.906 . S
Zn501 O519 1.953 . S
Zn502 O499 1.945 . S
Zn502 O504 1.932 . S
Zn502 O511 1.977 . S
Zn502 O512 1.910 . S
O503 Zn500 1.933 . S
O503 C514 1.226 . S
O504 Zn502 1.932 . S
O504 C514 1.307 . S
O505 Zn498 1.919 . S
O505 C516 1.253 . S
O506 Zn500 1.941 . S
O506 C516 1.283 . S
O507 Zn500 1.965 . S
O507 C515 1.303 . S
O508 Zn501 1.938 . S
O508 C515 1.247 . S
O509 Zn501 1.906 . S
O509 C517 1.304 . S
O510 Zn498 1.924 . S
O510 C518 1.311 . S
O511 Zn502 1.977 . S
O511 C517 1.272 . S
O512 Zn502 1.910 . S
O512 C518 1.231 . S
C513 O497 1.225 . S
C513 O519 1.298 . S
C514 O503 1.226 . S
C514 O504 1.307 . S
C515 O507 1.303 . S
C515 O508 1.247 . S
C516 O505 1.253 . S
C516 O506 1.283 . S
C517 O509 1.304 . S
C517 O511 1.272 . S
C518 O510 1.311 . S
C518 O512 1.231 . S
O519 Zn501 1.953 . S
O519 C513 1.298 . S
O520 Zn521 1.953 . S
O520 C536 1.225 . S
Zn521 O520 1.953 . S
Zn521 O522 1.949 1_556 S
Zn521 O528 1.919 . S
Zn521 O533 1.924 . S
O522 Zn521 1.949 1_554 S
O522 Zn523 1.923 . S
O522 Zn524 1.950 . S
O522 Zn525 1.945 . S
Zn523 O522 1.923 . S
Zn523 O526 1.933 . S
Zn523 O529 1.941 . S
Zn523 O530 1.965 . S
Zn524 O522 1.950 . S
Zn524 O531 1.938 . S
Zn524 O532 1.906 . S
Zn524 O542 1.953 1_554 S
Zn525 O522 1.945 . S
Zn525 O527 1.932 . S
Zn525 O534 1.977 . S
Zn525 O535 1.910 . S
O526 Zn523 1.933 . S
O526 C537 1.226 . S
O527 Zn525 1.932 . S
O527 C537 1.307 . S
O528 Zn521 1.919 . S
O528 C539 1.253 . S
O529 Zn523 1.941 . S
O529 C539 1.283 1_554 S
O530 Zn523 1.965 . S
O530 C538 1.303 . S
O531 Zn524 1.938 . S
O531 C538 1.247 . S
O532 Zn524 1.906 . S
O532 C540 1.304 . S
O533 Zn521 1.924 . S
O533 C541 1.311 . S
O534 Zn525 1.977 . S
O534 C540 1.272 . S
O535 Zn525 1.910 . S
O535 C541 1.231 1_554 S
C536 O520 1.225 . S
C536 O542 1.298 . S
C537 O526 1.226 . S
C537 O527 1.307 . S
C538 O530 1.303 . S
C538 O531 1.247 . S
C539 O528 1.253 . S
C539 O529 1.283 1_556 S
C540 O532 1.304 . S
C540 O534 1.272 . S
C541 O533 1.311 . S
C541 O535 1.231 1_556 S
O542 Zn524 1.953 1_556 S
O542 C536 1.298 . S
O543 Zn544 1.953 . S
O543 C559 1.225 . S
Zn544 O543 1.953 . S
Zn544 O545 1.949 . S
Zn544 O551 1.919 . S
Zn544 O556 1.924 . S
O545 Zn544 1.949 . S
O545 Zn546 1.923 . S
O545 Zn547 1.950 . S
O545 Zn548 1.945 . S
Zn546 O545 1.923 . S
Zn546 O549 1.933 . S
Zn546 O552 1.941 . S
Zn546 O553 1.965 . S
Zn547 O545 1.950 . S
Zn547 O554 1.938 . S
Zn547 O555 1.906 . S
Zn547 O565 1.953 . S
Zn548 O545 1.945 . S
Zn548 O550 1.932 . S
Zn548 O557 1.977 . S
Zn548 O558 1.910 . S
O549 Zn546 1.933 . S
O549 C560 1.226 . S
O550 Zn548 1.932 . S
O550 C560 1.307 . S
O551 Zn544 1.919 . S
O551 C562 1.253 . S
O552 Zn546 1.941 . S
O552 C562 1.283 . S
O553 Zn546 1.965 . S
O553 C561 1.303 . S
O554 Zn547 1.938 . S
O554 C561 1.247 . S
O555 Zn547 1.906 . S
O555 C563 1.304 . S
O556 Zn544 1.924 . S
O556 C564 1.311 . S
O557 Zn548 1.977 . S
O557 C563 1.272 . S
O558 Zn548 1.910 . S
O558 C564 1.231 . S
C559 O543 1.225 . S
C559 O565 1.298 . S
C560 O549 1.226 . S
C560 O550 1.307 . S
C561 O553 1.303 . S
C561 O554 1.247 . S
C562 O551 1.253 . S
C562 O552 1.283 . S
C563 O555 1.304 . S
C563 O557 1.272 . S
C564 O556 1.311 . S
C564 O558 1.231 . S
O565 Zn547 1.953 . S
O565 C559 1.298 . S
O566 Zn567 1.953 . S
O566 C582 1.225 . S
Zn567 O566 1.953 . S
Zn567 O568 1.934 1_455 S
Zn567 O574 1.919 . S
Zn567 O579 1.924 . S
O568 Zn567 1.934 1_655 S
O568 Zn569 1.921 1_655 S
O568 Zn570 1.958 . S
O568 Zn571 1.951 . S
Zn569 O568 1.921 1_455 S
Zn569 O572 1.924 1_455 S
Zn569 O575 1.965 . S
Zn569 O576 1.958 1_455 S
Zn570 O568 1.958 . S
Zn570 O577 1.938 . S
Zn570 O578 1.906 . S
Zn570 O588 1.950 1_655 S
Zn571 O568 1.951 . S
Zn571 O573 1.932 . S
Zn571 O580 1.977 . S
Zn571 O581 1.901 1_655 S
O572 Zn569 1.924 1_655 S
O572 C583 1.226 . S
O573 Zn571 1.932 . S
O573 C583 1.307 . S
O574 Zn567 1.919 . S
O574 C585 1.253 . S
O575 Zn569 1.965 . S
O575 C585 1.283 . S
O576 Zn569 1.958 1_655 S
O576 C584 1.303 . S
O577 Zn570 1.938 . S
O577 C584 1.247 . S
O578 Zn570 1.906 . S
O578 C586 1.304 . S
O579 Zn567 1.924 . S
O579 C587 1.311 . S
O580 Zn571 1.977 . S
O580 C586 1.272 . S
O581 Zn571 1.901 1_455 S
O581 C587 1.248 . S
C582 O566 1.225 . S
C582 O588 1.304 . S
C583 O572 1.226 . S
C583 O573 1.307 . S
C584 O576 1.303 . S
C584 O577 1.247 . S
C585 O574 1.253 . S
C585 O575 1.283 . S
C586 O578 1.304 . S
C586 O580 1.272 . S
C587 O579 1.311 . S
C587 O581 1.248 . S
O588 Zn570 1.950 1_455 S
O588 C582 1.304 . S
O589 Zn590 1.953 . S
O589 C605 1.225 . S
Zn590 O589 1.953 . S
Zn590 O591 1.949 . S
Zn590 O597 1.919 . S
Zn590 O602 1.924 . S
O591 Zn590 1.949 . S
O591 Zn592 1.923 . S
O591 Zn593 1.950 . S
O591 Zn594 1.945 . S
Zn592 O591 1.923 . S
Zn592 O595 1.933 . S
Zn592 O598 1.941 . S
Zn592 O599 1.965 . S
Zn593 O591 1.950 . S
Zn593 O600 1.938 . S
Zn593 O601 1.906 . S
Zn593 O611 1.953 . S
Zn594 O591 1.945 . S
Zn594 O596 1.932 . S
Zn594 O603 1.977 . S
Zn594 O604 1.910 . S
O595 Zn592 1.933 . S
O595 C606 1.226 . S
O596 Zn594 1.932 . S
O596 C606 1.307 . S
O597 Zn590 1.919 . S
O597 C608 1.253 . S
O598 Zn592 1.941 . S
O598 C608 1.283 . S
O599 Zn592 1.965 . S
O599 C607 1.303 . S
O600 Zn593 1.938 . S
O600 C607 1.247 . S
O601 Zn593 1.906 . S
O601 C609 1.304 . S
O602 Zn590 1.924 . S
O602 C610 1.311 . S
O603 Zn594 1.977 . S
O603 C609 1.272 . S
O604 Zn594 1.910 . S
O604 C610 1.231 . S
C605 O589 1.225 . S
C605 O611 1.298 . S
C606 O595 1.226 . S
C606 O596 1.307 . S
C607 O599 1.303 . S
C607 O600 1.247 . S
C608 O597 1.253 . S
C608 O598 1.283 . S
C609 O601 1.304 . S
C609 O603 1.272 . S
C610 O602 1.311 . S
C610 O604 1.231 . S
O611 Zn593 1.953 . S
O611 C605 1.298 . S
O612 Zn613 1.953 . S
O612 C628 1.225 . S
Zn613 O612 1.953 . S
Zn613 O614 1.949 . S
Zn613 O620 1.919 . S
Zn613 O625 1.924 . S
O614 Zn613 1.949 . S
O614 Zn615 1.923 . S
O614 Zn616 1.950 . S
O614 Zn617 1.945 . S
Zn615 O614 1.923 . S
Zn615 O618 1.933 . S
Zn615 O621 1.941 . S
Zn615 O622 1.965 . S
Zn616 O614 1.950 . S
Zn616 O623 1.938 . S
Zn616 O624 1.906 . S
Zn616 O634 1.953 . S
Zn617 O614 1.945 . S
Zn617 O619 1.932 . S
Zn617 O626 1.977 . S
Zn617 O627 1.910 . S
O618 Zn615 1.933 . S
O618 C629 1.226 . S
O619 Zn617 1.932 . S
O619 C629 1.307 . S
O620 Zn613 1.919 . S
O620 C631 1.253 . S
O621 Zn615 1.941 . S
O621 C631 1.283 . S
O622 Zn615 1.965 . S
O622 C630 1.303 . S
O623 Zn616 1.938 . S
O623 C630 1.247 . S
O624 Zn616 1.906 . S
O624 C632 1.304 . S
O625 Zn613 1.924 . S
O625 C633 1.311 . S
O626 Zn617 1.977 . S
O626 C632 1.272 . S
O627 Zn617 1.910 . S
O627 C633 1.231 . S
C628 O612 1.225 . S
C628 O634 1.298 . S
C629 O618 1.226 . S
C629 O619 1.307 . S
C630 O622 1.303 . S
C630 O623 1.247 . S
C631 O620 1.253 . S
C631 O621 1.283 . S
C632 O624 1.304 . S
C632 O626 1.272 . S
C633 O625 1.311 . S
C633 O627 1.231 . S
O634 Zn616 1.953 . S
O634 C628 1.298 . S
O635 Zn636 1.953 . S
O635 C651 1.225 . S
Zn636 O635 1.953 . S
Zn636 O637 1.949 . S
Zn636 O643 1.919 . S
Zn636 O648 1.924 . S
O637 Zn636 1.949 . S
O637 Zn638 1.923 . S
O637 Zn639 1.950 . S
O637 Zn640 1.945 . S
Zn638 O637 1.923 . S
Zn638 O641 1.933 . S
Zn638 O644 1.941 . S
Zn638 O645 1.965 . S
Zn639 O637 1.950 . S
Zn639 O646 1.938 . S
Zn639 O647 1.906 . S
Zn639 O657 1.953 . S
Zn640 O637 1.945 . S
Zn640 O642 1.932 . S
Zn640 O649 1.977 . S
Zn640 O650 1.910 . S
O641 Zn638 1.933 . S
O641 C652 1.226 . S
O642 Zn640 1.932 . S
O642 C652 1.307 . S
O643 Zn636 1.919 . S
O643 C654 1.253 . S
O644 Zn638 1.941 . S
O644 C654 1.283 . S
O645 Zn638 1.965 . S
O645 C653 1.303 . S
O646 Zn639 1.938 . S
O646 C653 1.247 . S
O647 Zn639 1.906 . S
O647 C655 1.304 . S
O648 Zn636 1.924 . S
O648 C656 1.311 . S
O649 Zn640 1.977 . S
O649 C655 1.272 . S
O650 Zn640 1.910 . S
O650 C656 1.231 . S
C651 O635 1.225 . S
C651 O657 1.298 . S
C652 O641 1.226 . S
C652 O642 1.307 . S
C653 O645 1.303 . S
C653 O646 1.247 . S
C654 O643 1.253 . S
C654 O644 1.283 . S
C655 O647 1.304 . S
C655 O649 1.272 . S
C656 O648 1.311 . S
C656 O650 1.231 . S
O657 Zn639 1.953 . S
O657 C651 1.298 . S
O658 Zn659 1.953 . S
O658 C674 1.225 . S
Zn659 O658 1.953 . S
Zn659 O660 1.949 . S
Zn659 O666 1.919 . S
Zn659 O671 1.924 . S
O660 Zn659 1.949 . S
O660 Zn661 1.923 . S
O660 Zn662 1.950 . S
O660 Zn663 1.945 . S
Zn661 O660 1.923 . S
Zn661 O664 1.933 . S
Zn661 O667 1.941 . S
Zn661 O668 1.965 . S
Zn662 O660 1.950 . S
Zn662 O669 1.938 . S
Zn662 O670 1.906 . S
Zn662 O680 1.953 . S
Zn663 O660 1.945 . S
Zn663 O665 1.932 . S
Zn663 O672 1.977 . S
Zn663 O673 1.910 . S
O664 Zn661 1.933 . S
O664 C675 1.226 . S
O665 Zn663 1.932 . S
O665 C675 1.307 . S
O666 Zn659 1.919 . S
O666 C677 1.253 . S
O667 Zn661 1.941 . S
O667 C677 1.283 . S
O668 Zn661 1.965 . S
O668 C676 1.303 . S
O669 Zn662 1.938 . S
O669 C676 1.247 . S
O670 Zn662 1.906 . S
O670 C678 1.304 . S
O671 Zn659 1.924 . S
O671 C679 1.311 . S
O672 Zn663 1.977 . S
O672 C678 1.272 . S
O673 Zn663 1.910 . S
O673 C679 1.231 . S
C674 O658 1.225 . S
C674 O680 1.298 . S
C675 O664 1.226 . S
C675 O665 1.307 . S
C676 O668 1.303 . S
C676 O669 1.247 . S
C677 O666 1.253 . S
C677 O667 1.283 . S
C678 O670 1.304 . S
C678 O672 1.272 . S
C679 O671 1.311 . S
C679 O673 1.231 . S
O680 Zn662 1.953 . S
O680 C674 1.298 . S
O681 Zn682 1.953 . S
O681 C697 1.225 . S
Zn682 O681 1.953 . S
Zn682 O683 1.949 . S
Zn682 O689 1.919 1_454 S
Zn682 O694 1.924 1_554 S
O683 Zn682 1.949 . S
O683 Zn684 1.923 1_455 S
O683 Zn685 1.950 . S
O683 Zn686 1.945 1_554 S
Zn684 O683 1.923 1_655 S
Zn684 O687 1.933 . S
Zn684 O690 1.941 . S
Zn684 O691 1.965 . S
Zn685 O683 1.950 . S
Zn685 O692 1.938 . S
Zn685 O693 1.906 . S
Zn685 O703 1.953 . S
Zn686 O683 1.945 1_556 S
Zn686 O688 1.932 . S
Zn686 O695 1.977 1_556 S
Zn686 O696 1.910 . S
O687 Zn684 1.933 . S
O687 C698 1.226 1_554 S
O688 Zn686 1.932 . S
O688 C698 1.307 1_455 S
O689 Zn682 1.919 1_656 S
O689 C700 1.253 1_556 S
O690 Zn684 1.941 . S
O690 C700 1.283 . S
O691 Zn684 1.965 . S
O691 C699 1.303 . S
O692 Zn685 1.938 . S
O692 C699 1.247 1_455 S
O693 Zn685 1.906 . S
O693 C701 1.304 . S
O694 Zn682 1.924 1_556 S
O694 C702 1.311 . S
O695 Zn686 1.977 1_554 S
O695 C701 1.272 . S
O696 Zn686 1.910 . S
O696 C702 1.231 . S
C697 O681 1.225 . S
C697 O703 1.298 . S
C698 O687 1.226 1_556 S
C698 O688 1.307 1_655 S
C699 O691 1.303 . S
C699 O692 1.247 1_655 S
C700 O689 1.253 1_554 S
C700 O690 1.283 . S
C701 O693 1.304 . S
C701 O695 1.272 . S
C702 O694 1.311 . S
C702 O696 1.231 . S
O703 Zn685 1.953 . S
O703 C697 1.298 . S
H704 C712 0.950 . S
H705 C717 0.950 . S
H706 C714 0.950 . S
H707 C716 0.950 . S
H708 C718 0.950 . S
H709 C720 0.950 . S
H710 C722 0.950 . S
H711 C723 0.950 . S
C712 H704 0.950 . S
C712 C713 1.386 1_655 S
C712 C714 1.391 . S
C713 C712 1.386 1_455 S
C713 C717 1.393 . S
C714 H706 0.950 . S
C714 C712 1.391 . S
C714 C715 1.371 1_655 S
C715 C714 1.371 1_455 S
C715 C716 1.435 . S
C715 C721 1.485 1_455 S
C716 H707 0.950 . S
C716 C715 1.435 . S
C716 C717 1.391 . S
C717 H705 0.950 . S
C717 C713 1.393 . S
C717 C716 1.391 . S
C718 H708 0.950 . S
C718 C719 1.386 1_455 S
C718 C720 1.391 . S
C719 C718 1.386 1_655 S
C719 C723 1.393 . S
C720 H709 0.950 . S
C720 C718 1.391 . S
C720 C721 1.400 1_455 S
C721 C715 1.485 1_655 S
C721 C720 1.400 1_655 S
C721 C722 1.398 . S
C722 H710 0.950 . S
C722 C721 1.398 . S
C722 C723 1.391 . S
C723 H711 0.950 . S
C723 C719 1.393 . S
C723 C722 1.391 . S
H724 C732 0.950 . S
H725 C737 0.950 . S
H726 C734 0.950 . S
H727 C736 0.950 . S
H728 C738 0.950 . S
H729 C740 0.950 . S
H730 C742 0.950 . S
H731 C743 0.950 . S
C732 H724 0.950 . S
C732 C733 1.386 . S
C732 C734 1.391 . S
C733 C732 1.386 . S
C733 C737 1.393 . S
C734 H726 0.950 . S
C734 C732 1.391 . S
C734 C735 1.400 . S
C735 C734 1.400 . S
C735 C736 1.398 . S
C735 C741 1.491 . S
C736 H727 0.950 . S
C736 C735 1.398 . S
C736 C737 1.391 . S
C737 H725 0.950 . S
C737 C733 1.393 . S
C737 C736 1.391 . S
C738 H728 0.950 . S
C738 C739 1.386 . S
C738 C740 1.391 . S
C739 C738 1.386 . S
C739 C743 1.393 . S
C740 H729 0.950 . S
C740 C738 1.391 . S
C740 C741 1.400 . S
C741 C735 1.491 . S
C741 C740 1.400 . S
C741 C742 1.398 . S
C742 H730 0.950 . S
C742 C741 1.398 . S
C742 C743 1.391 . S
C743 H731 0.950 . S
C743 C739 1.393 . S
C743 C742 1.391 . S
H744 C752 0.950 . S
H745 C757 0.950 . S
H746 C754 0.950 . S
H747 C756 0.950 . S
H748 C758 0.950 . S
H749 C760 0.950 . S
H750 C762 0.950 . S
H751 C763 0.950 . S
C752 H744 0.950 . S
C752 C753 1.386 . S
C752 C754 1.391 . S
C753 C752 1.386 . S
C753 C757 1.393 . S
C754 H746 0.950 . S
C754 C752 1.391 . S
C754 C755 1.400 . S
C755 C754 1.400 . S
C755 C756 1.398 . S
C755 C761 1.491 . S
C756 H747 0.950 . S
C756 C755 1.398 . S
C756 C757 1.391 . S
C757 H745 0.950 . S
C757 C753 1.393 . S
C757 C756 1.391 . S
C758 H748 0.950 . S
C758 C759 1.386 . S
C758 C760 1.391 . S
C759 C758 1.386 . S
C759 C763 1.393 . S
C760 H749 0.950 . S
C760 C758 1.391 . S
C760 C761 1.400 . S
C761 C755 1.491 . S
C761 C760 1.400 . S
C761 C762 1.398 . S
C762 H750 0.950 . S
C762 C761 1.398 . S
C762 C763 1.391 . S
C763 H751 0.950 . S
C763 C759 1.393 . S
C763 C762 1.391 . S
H764 C772 0.950 . S
H765 C777 0.950 . S
H766 C774 0.950 . S
H767 C776 0.950 . S
H768 C778 0.950 . S
H769 C780 0.950 . S
H770 C782 0.950 . S
H771 C783 0.950 . S
C772 H764 0.950 . S
C772 C773 1.386 . S
C772 C774 1.391 . S
C773 C772 1.386 . S
C773 C777 1.393 . S
C774 H766 0.950 . S
C774 C772 1.391 . S
C774 C775 1.400 . S
C775 C774 1.400 . S
C775 C776 1.398 . S
C775 C781 1.491 . S
C776 H767 0.950 . S
C776 C775 1.398 . S
C776 C777 1.391 . S
C777 H765 0.950 . S
C777 C773 1.393 . S
C777 C776 1.391 . S
C778 H768 0.950 . S
C778 C779 1.386 . S
C778 C780 1.391 . S
C779 C778 1.386 . S
C779 C783 1.393 . S
C780 H769 0.950 . S
C780 C778 1.391 . S
C780 C781 1.400 . S
C781 C775 1.491 . S
C781 C780 1.400 . S
C781 C782 1.398 . S
C782 H770 0.950 . S
C782 C781 1.398 . S
C782 C783 1.391 . S
C783 H771 0.950 . S
C783 C779 1.393 . S
C783 C782 1.391 . S
H784 C792 0.950 . S
H785 C797 0.950 . S
H786 C794 0.950 . S
H787 C796 0.950 . S
H788 C798 0.950 . S
H789 C800 0.950 . S
H790 C802 0.950 . S
H791 C803 0.950 . S
C792 H784 0.950 . S
C792 C793 1.386 1_655 S
C792 C794 1.391 . S
C793 C792 1.386 1_455 S
C793 C797 1.393 . S
C794 H786 0.950 . S
C794 C792 1.391 . S
C794 C795 1.400 1_655 S
C795 C794 1.400 1_455 S
C795 C796 1.398 . S
C795 C801 1.491 . S
C796 H787 0.950 . S
C796 C795 1.398 . S
C796 C797 1.391 . S
C797 H785 0.950 . S
C797 C793 1.393 . S
C797 C796 1.391 . S
C798 H788 0.950 . S
C798 C799 1.386 1_455 S
C798 C800 1.391 . S
C799 C798 1.386 1_655 S
C799 C803 1.393 . S
C800 H789 0.950 . S
C800 C798 1.391 . S
C800 C801 1.400 . S
C801 C795 1.491 . S
C801 C800 1.400 . S
C801 C802 1.398 1_455 S
C802 H790 0.950 . S
C802 C801 1.398 1_655 S
C802 C803 1.391 . S
C803 H791 0.950 . S
C803 C799 1.393 . S
C803 C802 1.391 . S
H804 C812 0.950 . S
H805 C817 0.950 . S
H806 C814 0.950 . S
H807 C816 0.950 . S
H808 C818 0.950 . S
H809 C820 0.950 . S
H810 C822 0.950 . S
H811 C823 0.950 . S
C812 H804 0.950 . S
C812 C813 1.386 . S
C812 C814 1.391 . S
C813 C812 1.386 . S
C813 C817 1.393 . S
C814 H806 0.950 . S
C814 C812 1.391 . S
C814 C815 1.400 . S
C815 C814 1.400 . S
C815 C816 1.398 . S
C815 C821 1.491 . S
C816 H807 0.950 . S
C816 C815 1.398 . S
C816 C817 1.391 . S
C817 H805 0.950 . S
C817 C813 1.393 . S
C817 C816 1.391 . S
C818 H808 0.950 . S
C818 C819 1.386 . S
C818 C820 1.391 . S
C819 C818 1.386 . S
C819 C823 1.393 . S
C820 H809 0.950 . S
C820 C818 1.391 . S
C820 C821 1.400 . S
C821 C815 1.491 . S
C821 C820 1.400 . S
C821 C822 1.398 . S
C822 H810 0.950 . S
C822 C821 1.398 . S
C822 C823 1.391 . S
C823 H811 0.950 . S
C823 C819 1.393 . S
C823 C822 1.391 . S
H824 C832 0.950 . S
H825 C837 0.950 . S
H826 C834 0.950 . S
H827 C836 0.950 . S
H828 C838 0.950 . S
H829 C840 0.950 . S
H830 C842 0.950 1_554 S
H831 C843 0.950 . S
C832 H824 0.950 . S
C832 C833 1.386 . S
C832 C834 1.391 . S
C833 C832 1.386 . S
C833 C837 1.393 . S
C834 H826 0.950 . S
C834 C832 1.391 . S
C834 C835 1.400 . S
C835 C834 1.400 . S
C835 C836 1.398 . S
C835 C841 1.491 . S
C836 H827 0.950 . S
C836 C835 1.398 . S
C836 C837 1.391 . S
C837 H825 0.950 . S
C837 C833 1.393 . S
C837 C836 1.391 . S
C838 H828 0.950 . S
C838 C839 1.386 . S
C838 C840 1.391 . S
C839 C838 1.386 . S
C839 C843 1.393 1_556 S
C840 H829 0.950 . S
C840 C838 1.391 . S
C840 C841 1.400 . S
C841 C835 1.491 . S
C841 C840 1.400 . S
C841 C842 1.398 . S
C842 H830 0.950 1_556 S
C842 C841 1.398 . S
C842 C843 1.391 1_556 S
C843 H831 0.950 . S
C843 C839 1.393 1_554 S
C843 C842 1.391 1_554 S
H844 C852 0.950 . S
H845 C857 0.950 . S
H846 C854 0.950 . S
H847 C856 0.950 . S
H848 C858 0.950 . S
H849 C860 0.950 . S
H850 C862 0.950 . S
H851 C863 0.950 . S
C852 H844 0.950 . S
C852 C853 1.386 . S
C852 C854 1.391 . S
C853 C852 1.386 . S
C853 C857 1.393 . S
C854 H846 0.950 . S
C854 C852 1.391 . S
C854 C855 1.400 . S
C855 C854 1.400 . S
C855 C856 1.398 . S
C855 C861 1.491 . S
C856 H847 0.950 . S
C856 C855 1.398 . S
C856 C857 1.391 . S
C857 H845 0.950 . S
C857 C853 1.393 . S
C857 C856 1.391 . S
C858 H848 0.950 . S
C858 C859 1.386 . S
C858 C860 1.391 . S
C859 C858 1.386 . S
C859 C863 1.393 . S
C860 H849 0.950 . S
C860 C858 1.391 . S
C860 C861 1.400 . S
C861 C855 1.491 . S
C861 C860 1.400 . S
C861 C862 1.398 . S
C862 H850 0.950 . S
C862 C861 1.398 . S
C862 C863 1.391 . S
C863 H851 0.950 . S
C863 C859 1.393 . S
C863 C862 1.391 . S
H864 C872 0.950 . S
H865 C877 0.950 . S
H866 C874 0.950 . S
H867 C876 0.950 . S
H868 C878 0.950 . S
H869 C880 0.950 . S
H870 C882 0.950 . S
H871 C883 0.950 . S
C872 H864 0.950 . S
C872 C873 1.386 1_565 S
C872 C874 1.391 . S
C873 C872 1.386 1_545 S
C873 C877 1.393 . S
C874 H866 0.950 . S
C874 C872 1.391 . S
C874 C875 1.400 1_565 S
C875 C874 1.400 1_545 S
C875 C876 1.398 . S
C875 C881 1.491 . S
C876 H867 0.950 . S
C876 C875 1.398 . S
C876 C877 1.391 . S
C877 H865 0.950 . S
C877 C873 1.393 . S
C877 C876 1.391 . S
C878 H868 0.950 . S
C878 C879 1.386 . S
C878 C880 1.391 . S
C879 C878 1.386 . S
C879 C883 1.393 1_545 S
C880 H869 0.950 . S
C880 C878 1.391 . S
C880 C881 1.400 . S
C881 C875 1.491 . S
C881 C880 1.400 . S
C881 C882 1.398 1_545 S
C882 H870 0.950 . S
C882 C881 1.398 1_565 S
C882 C883 1.391 . S
C883 H871 0.950 . S
C883 C879 1.393 1_565 S
C883 C882 1.391 . S
H884 C892 0.950 . S
H885 C897 0.950 . S
H886 C894 0.950 . S
H887 C896 0.950 . S
H888 C898 0.950 . S
H889 C900 0.950 . S
H890 C902 0.950 . S
H891 C903 0.950 . S
C892 H884 0.950 . S
C892 C893 1.386 . S
C892 C894 1.391 . S
C893 C892 1.386 . S
C893 C897 1.393 . S
C894 H886 0.950 . S
C894 C892 1.391 . S
C894 C895 1.400 . S
C895 C894 1.400 . S
C895 C896 1.398 . S
C895 C901 1.491 . S
C896 H887 0.950 . S
C896 C895 1.398 . S
C896 C897 1.391 . S
C897 H885 0.950 . S
C897 C893 1.393 . S
C897 C896 1.391 . S
C898 H888 0.950 . S
C898 C899 1.386 . S
C898 C900 1.391 . S
C899 C898 1.386 . S
C899 C903 1.393 . S
C900 H889 0.950 . S
C900 C898 1.391 . S
C900 C901 1.400 . S
C901 C895 1.491 . S
C901 C900 1.400 . S
C901 C902 1.398 . S
C902 H890 0.950 . S
C902 C901 1.398 . S
C902 C903 1.391 . S
C903 H891 0.950 . S
C903 C899 1.393 . S
C903 C902 1.391 . S
H904 C912 0.950 . S
H905 C917 0.950 . S
H906 C914 0.950 . S
H907 C916 0.950 . S
H908 C918 0.950 . S
H909 C920 0.950 . S
H910 C922 0.950 . S
H911 C923 0.950 . S
C912 H904 0.950 . S
C912 C913 1.386 . S
C912 C914 1.391 . S
C913 C912 1.386 . S
C913 C917 1.393 1_565 S
C914 H906 0.950 . S
C914 C912 1.391 . S
C914 C915 1.400 1_565 S
C915 C914 1.400 1_545 S
C915 C916 1.398 . S
C915 C921 1.491 . S
C916 H907 0.950 . S
C916 C915 1.398 . S
C916 C917 1.391 . S
C917 H905 0.950 . S
C917 C913 1.393 1_545 S
C917 C916 1.391 . S
C918 H908 0.950 . S
C918 C919 1.386 . S
C918 C920 1.391 . S
C919 C918 1.386 . S
C919 C923 1.393 1_545 S
C920 H909 0.950 . S
C920 C918 1.391 . S
C920 C921 1.400 . S
C921 C915 1.491 . S
C921 C920 1.400 . S
C921 C922 1.398 1_545 S
C922 H910 0.950 . S
C922 C921 1.398 1_565 S
C922 C923 1.391 . S
C923 H911 0.950 . S
C923 C919 1.393 1_565 S
C923 C922 1.391 . S
H924 C932 0.950 . S
H925 C937 0.950 . S
H926 C934 0.950 . S
H927 C936 0.950 . S
H928 C938 0.950 . S
H929 C940 0.950 . S
H930 C942 0.950 . S
H931 C943 0.950 . S
C932 H924 0.950 . S
C932 C933 1.386 . S
C932 C934 1.391 . S
C933 C932 1.386 . S
C933 C937 1.393 . S
C934 H926 0.950 . S
C934 C932 1.391 . S
C934 C935 1.400 . S
C935 C934 1.400 . S
C935 C936 1.398 . S
C935 C941 1.491 . S
C936 H927 0.950 . S
C936 C935 1.398 . S
C936 C937 1.391 . S
C937 H925 0.950 . S
C937 C933 1.393 . S
C937 C936 1.391 . S
C938 H928 0.950 . S
C938 C939 1.386 . S
C938 C940 1.391 . S
C939 C938 1.386 . S
C939 C943 1.393 . S
C940 H929 0.950 . S
C940 C938 1.391 . S
C940 C941 1.400 . S
C941 C935 1.491 . S
C941 C940 1.400 . S
C941 C942 1.398 . S
C942 H930 0.950 . S
C942 C941 1.398 . S
C942 C943 1.391 . S
C943 H931 0.950 . S
C943 C939 1.393 . S
C943 C942 1.391 . S
H944 C952 0.950 . S
H945 C957 0.950 1_565 S
H946 C954 0.950 . S
H947 C956 0.950 1_565 S
H948 C958 0.950 1_565 S
H949 C960 0.950 1_565 S
H950 C962 0.950 . S
H951 C963 0.950 . S
C952 H944 0.950 . S
C952 C953 1.386 . S
C952 C954 1.391 . S
C953 C952 1.386 . S
C953 C957 1.393 . S
C954 H946 0.950 . S
C954 C952 1.391 . S
C954 C955 1.400 . S
C955 C954 1.400 . S
C955 C956 1.398 . S
C955 C961 1.491 . S
C956 H947 0.950 1_545 S
C956 C955 1.398 . S
C956 C957 1.391 . S
C957 H945 0.950 1_545 S
C957 C953 1.393 . S
C957 C956 1.391 . S
C958 H948 0.950 1_545 S
C958 C959 1.386 . S
C958 C960 1.391 . S
C959 C958 1.386 . S
C959 C963 1.393 . S
C960 H949 0.950 1_545 S
C960 C958 1.391 . S
C960 C961 1.400 . S
C961 C955 1.491 . S
C961 C960 1.400 . S
C961 C962 1.398 . S
C962 H950 0.950 . S
C962 C961 1.398 . S
C962 C963 1.391 . S
C963 H951 0.950 . S
C963 C959 1.393 . S
C963 C962 1.391 . S
H964 C972 0.950 . S
H965 C977 0.950 . S
H966 C974 0.950 . S
H967 C976 0.950 . S
H968 C978 0.950 . S
H969 C980 0.950 . S
H970 C982 0.950 . S
H971 C983 0.950 . S
C972 H964 0.950 . S
C972 C973 1.386 . S
C972 C974 1.391 . S
C973 C972 1.386 . S
C973 C977 1.393 . S
C974 H966 0.950 . S
C974 C972 1.391 . S
C974 C975 1.400 . S
C975 C974 1.400 . S
C975 C976 1.398 . S
C975 C981 1.491 . S
C976 H967 0.950 . S
C976 C975 1.398 . S
C976 C977 1.391 . S
C977 H965 0.950 . S
C977 C973 1.393 . S
C977 C976 1.391 . S
C978 H968 0.950 . S
C978 C979 1.386 . S
C978 C980 1.391 . S
C979 C978 1.386 . S
C979 C983 1.393 . S
C980 H969 0.950 . S
C980 C978 1.391 . S
C980 C981 1.400 . S
C981 C975 1.491 . S
C981 C980 1.400 . S
C981 C982 1.398 . S
C982 H970 0.950 . S
C982 C981 1.398 . S
C982 C983 1.391 . S
C983 H971 0.950 . S
C983 C979 1.393 . S
C983 C982 1.391 . S
H984 C992 0.950 . S
H985 C997 0.950 . S
H986 C994 0.950 . S
H987 C996 0.950 . S
H988 C998 0.950 . S
H989 C1000 0.950 . S
H990 C1002 0.950 . S
H991 C1003 0.950 . S
C992 H984 0.950 . S
C992 C993 1.386 . S
C992 C994 1.391 . S
C993 C992 1.386 . S
C993 C997 1.393 . S
C994 H986 0.950 . S
C994 C992 1.391 . S
C994 C995 1.400 . S
C995 C994 1.400 . S
C995 C996 1.398 . S
C995 C1001 1.491 . S
C996 H987 0.950 . S
C996 C995 1.398 . S
C996 C997 1.391 . S
C997 H985 0.950 . S
C997 C993 1.393 . S
C997 C996 1.391 . S
C998 H988 0.950 . S
C998 C999 1.386 . S
C998 C1000 1.391 . S
C999 C998 1.386 . S
C999 C1003 1.393 . S
C1000 H989 0.950 . S
C1000 C998 1.391 . S
C1000 C1001 1.400 . S
C1001 C995 1.491 . S
C1001 C1000 1.400 . S
C1001 C1002 1.398 . S
C1002 H990 0.950 . S
C1002 C1001 1.398 . S
C1002 C1003 1.391 . S
C1003 H991 0.950 . S
C1003 C999 1.393 . S
C1003 C1002 1.391 . S
H1004 C1012 0.950 . S
H1005 C1017 0.950 . S
H1006 C1014 0.950 . S
H1007 C1016 0.950 . S
H1008 C1018 0.950 . S
H1009 C1020 0.950 . S
H1010 C1022 0.950 . S
H1011 C1023 0.950 . S
C1012 H1004 0.950 . S
C1012 C1013 1.386 . S
C1012 C1014 1.391 . S
C1013 C1012 1.386 . S
C1013 C1017 1.393 . S
C1014 H1006 0.950 . S
C1014 C1012 1.391 . S
C1014 C1015 1.400 . S
C1015 C1014 1.400 . S
C1015 C1016 1.398 . S
C1015 C1021 1.491 . S
C1016 H1007 0.950 . S
C1016 C1015 1.398 . S
C1016 C1017 1.391 . S
C1017 H1005 0.950 . S
C1017 C1013 1.393 . S
C1017 C1016 1.391 . S
C1018 H1008 0.950 . S
C1018 C1019 1.386 . S
C1018 C1020 1.391 . S
C1019 C1018 1.386 . S
C1019 C1023 1.393 . S
C1020 H1009 0.950 . S
C1020 C1018 1.391 . S
C1020 C1021 1.400 . S
C1021 C1015 1.491 . S
C1021 C1020 1.400 . S
C1021 C1022 1.398 . S
C1022 H1010 0.950 . S
C1022 C1021 1.398 . S
C1022 C1023 1.391 . S
C1023 H1011 0.950 . S
C1023 C1019 1.393 . S
C1023 C1022 1.391 . S
H1024 C1032 0.950 . S
H1025 C1037 0.950 . S
H1026 C1034 0.950 . S
H1027 C1036 0.950 . S
H1028 C1038 0.950 . S
H1029 C1040 0.950 . S
H1030 C1042 0.950 . S
H1031 C1043 0.950 . S
C1032 H1024 0.950 . S
C1032 C1033 1.386 . S
C1032 C1034 1.391 . S
C1033 C1032 1.386 . S
C1033 C1037 1.393 1_554 S
C1034 H1026 0.950 . S
C1034 C1032 1.391 . S
C1034 C1035 1.400 . S
C1035 C1034 1.400 . S
C1035 C1036 1.398 1_554 S
C1035 C1041 1.491 . S
C1036 H1027 0.950 . S
C1036 C1035 1.398 1_556 S
C1036 C1037 1.391 . S
C1037 H1025 0.950 . S
C1037 C1033 1.393 1_556 S
C1037 C1036 1.391 . S
C1038 H1028 0.950 . S
C1038 C1039 1.409 . S
C1038 C1040 1.391 . S
C1039 C1038 1.409 . S
C1039 C1043 1.367 1_556 S
C1040 H1029 0.950 . S
C1040 C1038 1.391 . S
C1040 C1041 1.400 1_556 S
C1041 C1035 1.491 . S
C1041 C1040 1.400 1_554 S
C1041 C1042 1.398 . S
C1042 H1030 0.950 . S
C1042 C1041 1.398 . S
C1042 C1043 1.391 . S
C1043 H1031 0.950 . S
C1043 C1039 1.367 1_554 S
C1043 C1042 1.391 . S
H1044 C1052 0.950 . S
H1045 C1057 0.950 . S
H1046 C1054 0.950 . S
H1047 C1056 0.950 . S
H1048 C1058 0.950 . S
H1049 C1060 0.950 . S
H1050 C1062 0.950 . S
H1051 C1063 0.950 . S
C1052 H1044 0.950 . S
C1052 C1053 1.386 . S
C1052 C1054 1.391 . S
C1053 C1052 1.386 . S
C1053 C1057 1.393 1_554 S
C1054 H1046 0.950 . S
C1054 C1052 1.391 . S
C1054 C1055 1.400 . S
C1055 C1054 1.400 . S
C1055 C1056 1.398 1_554 S
C1055 C1061 1.491 . S
C1056 H1047 0.950 . S
C1056 C1055 1.398 1_556 S
C1056 C1057 1.391 . S
C1057 H1045 0.950 . S
C1057 C1053 1.393 1_556 S
C1057 C1056 1.391 . S
C1058 H1048 0.950 . S
C1058 C1059 1.386 1_556 S
C1058 C1060 1.391 . S
C1059 C1058 1.386 1_554 S
C1059 C1063 1.393 . S
C1060 H1049 0.950 . S
C1060 C1058 1.391 . S
C1060 C1061 1.400 1_556 S
C1061 C1055 1.491 . S
C1061 C1060 1.400 1_554 S
C1061 C1062 1.398 . S
C1062 H1050 0.950 . S
C1062 C1061 1.398 . S
C1062 C1063 1.391 . S
C1063 H1051 0.950 . S
C1063 C1059 1.393 . S
C1063 C1062 1.391 . S
H1064 C1072 0.950 . S
H1065 C1077 0.950 . S
H1066 C1074 0.950 . S
H1067 C1076 0.950 . S
H1068 C1078 0.950 . S
H1069 C1080 0.950 . S
H1070 C1082 0.950 . S
H1071 C1083 0.950 . S
C1072 H1064 0.950 . S
C1072 C1073 1.386 . S
C1072 C1074 1.391 . S
C1073 C1072 1.386 . S
C1073 C1077 1.393 . S
C1074 H1066 0.950 . S
C1074 C1072 1.391 . S
C1074 C1075 1.400 . S
C1075 C1074 1.400 . S
C1075 C1076 1.398 . S
C1075 C1081 1.491 . S
C1076 H1067 0.950 . S
C1076 C1075 1.398 . S
C1076 C1077 1.391 . S
C1077 H1065 0.950 . S
C1077 C1073 1.393 . S
C1077 C1076 1.391 . S
C1078 H1068 0.950 . S
C1078 C1079 1.386 . S
C1078 C1080 1.391 . S
C1079 C1078 1.386 . S
C1079 C1083 1.393 . S
C1080 H1069 0.950 . S
C1080 C1078 1.391 . S
C1080 C1081 1.400 . S
C1081 C1075 1.491 . S
C1081 C1080 1.400 . S
C1081 C1082 1.398 . S
C1082 H1070 0.950 . S
C1082 C1081 1.398 . S
C1082 C1083 1.391 . S
C1083 H1071 0.950 . S
C1083 C1079 1.393 . S
C1083 C1082 1.391 . S
H1084 C1092 0.950 . S
H1085 C1097 0.950 . S
H1086 C1094 0.950 . S
H1087 C1096 0.950 . S
H1088 C1098 0.950 . S
H1089 C1100 0.950 . S
H1090 C1102 0.950 . S
H1091 C1103 0.950 . S
C1092 H1084 0.950 . S
C1092 C1093 1.386 . S
C1092 C1094 1.391 . S
C1093 C1092 1.386 . S
C1093 C1097 1.393 . S
C1094 H1086 0.950 . S
C1094 C1092 1.391 . S
C1094 C1095 1.400 . S
C1095 C1094 1.400 . S
C1095 C1096 1.398 . S
C1095 C1101 1.491 . S
C1096 H1087 0.950 . S
C1096 C1095 1.398 . S
C1096 C1097 1.391 . S
C1097 H1085 0.950 . S
C1097 C1093 1.393 . S
C1097 C1096 1.391 . S
C1098 H1088 0.950 . S
C1098 C1099 1.386 . S
C1098 C1100 1.391 . S
C1099 C1098 1.386 . S
C1099 C1103 1.393 . S
C1100 H1089 0.950 . S
C1100 C1098 1.391 . S
C1100 C1101 1.400 . S
C1101 C1095 1.491 . S
C1101 C1100 1.400 . S
C1101 C1102 1.398 . S
C1102 H1090 0.950 . S
C1102 C1101 1.398 . S
C1102 C1103 1.391 . S
C1103 H1091 0.950 . S
C1103 C1099 1.393 . S
C1103 C1102 1.391 . S
H1104 C1112 0.950 . S
H1105 C1117 0.950 . S
H1106 C1114 0.950 . S
H1107 C1116 0.950 . S
H1108 C1118 0.950 . S
H1109 C1120 0.950 . S
H1110 C1122 0.950 . S
H1111 C1123 0.950 . S
C1112 H1104 0.950 . S
C1112 C1113 1.386 . S
C1112 C1114 1.391 . S
C1113 C1112 1.386 . S
C1113 C1117 1.393 . S
C1114 H1106 0.950 . S
C1114 C1112 1.391 . S
C1114 C1115 1.400 . S
C1115 C1114 1.400 . S
C1115 C1116 1.398 . S
C1115 C1121 1.491 . S
C1116 H1107 0.950 . S
C1116 C1115 1.398 . S
C1116 C1117 1.391 . S
C1117 H1105 0.950 . S
C1117 C1113 1.393 . S
C1117 C1116 1.391 . S
C1118 H1108 0.950 . S
C1118 C1119 1.386 . S
C1118 C1120 1.391 . S
C1119 C1118 1.386 . S
C1119 C1123 1.393 . S
C1120 H1109 0.950 . S
C1120 C1118 1.391 . S
C1120 C1121 1.400 . S
C1121 C1115 1.491 . S
C1121 C1120 1.400 . S
C1121 C1122 1.398 . S
C1122 H1110 0.950 . S
C1122 C1121 1.398 . S
C1122 C1123 1.391 . S
C1123 H1111 0.950 . S
C1123 C1119 1.393 . S
C1123 C1122 1.391 . S
H1124 C1132 0.950 . S
H1125 C1137 0.950 . S
H1126 C1134 0.950 . S
H1127 C1136 0.950 . S
H1128 C1138 0.950 . S
H1129 C1140 0.950 1_545 S
H1130 C1142 0.950 . S
H1131 C1143 0.950 . S
C1132 H1124 0.950 . S
C1132 C1133 1.386 . S
C1132 C1134 1.391 . S
C1133 C1132 1.386 . S
C1133 C1137 1.393 . S
C1134 H1126 0.950 . S
C1134 C1132 1.391 . S
C1134 C1135 1.400 . S
C1135 C1134 1.400 . S
C1135 C1136 1.398 . S
C1135 C1141 1.491 . S
C1136 H1127 0.950 . S
C1136 C1135 1.398 . S
C1136 C1137 1.391 . S
C1137 H1125 0.950 . S
C1137 C1133 1.393 . S
C1137 C1136 1.391 . S
C1138 H1128 0.950 . S
C1138 C1139 1.386 1_545 S
C1138 C1140 1.391 1_545 S
C1139 C1138 1.386 1_565 S
C1139 C1143 1.393 . S
C1140 H1129 0.950 1_565 S
C1140 C1138 1.391 1_565 S
C1140 C1141 1.400 . S
C1141 C1135 1.491 . S
C1141 C1140 1.400 . S
C1141 C1142 1.398 . S
C1142 H1130 0.950 . S
C1142 C1141 1.398 . S
C1142 C1143 1.391 . S
C1143 H1131 0.950 . S
C1143 C1139 1.393 . S
C1143 C1142 1.391 . S
H1144 C1152 0.950 . S
H1145 C1157 0.950 . S
H1146 C1154 0.950 . S
H1147 C1156 0.950 . S
H1148 C1158 0.950 . S
H1149 C1160 0.950 . S
H1150 C1162 0.950 . S
H1151 C1163 0.950 . S
C1152 H1144 0.950 . S
C1152 C1153 1.386 . S
C1152 C1154 1.391 . S
C1153 C1152 1.386 . S
C1153 C1157 1.393 . S
C1154 H1146 0.950 . S
C1154 C1152 1.391 . S
C1154 C1155 1.400 . S
C1155 C1154 1.400 . S
C1155 C1156 1.398 . S
C1155 C1161 1.491 . S
C1156 H1147 0.950 . S
C1156 C1155 1.398 . S
C1156 C1157 1.391 . S
C1157 H1145 0.950 . S
C1157 C1153 1.393 . S
C1157 C1156 1.391 . S
C1158 H1148 0.950 . S
C1158 C1159 1.386 . S
C1158 C1160 1.391 . S
C1159 C1158 1.386 . S
C1159 C1163 1.393 . S
C1160 H1149 0.950 . S
C1160 C1158 1.391 . S
C1160 C1161 1.400 . S
C1161 C1155 1.491 . S
C1161 C1160 1.400 . S
C1161 C1162 1.398 . S
C1162 H1150 0.950 . S
C1162 C1161 1.398 . S
C1162 C1163 1.391 . S
C1163 H1151 0.950 . S
C1163 C1159 1.393 . S
C1163 C1162 1.391 . S
H1164 C1172 0.950 . S
H1165 C1177 0.950 . S
H1166 C1174 0.950 . S
H1167 C1176 0.950 . S
H1168 C1178 0.950 . S
H1169 C1180 0.950 . S
H1170 C1182 0.950 . S
H1171 C1183 0.950 . S
C1172 H1164 0.950 . S
C1172 C1173 1.386 . S
C1172 C1174 1.391 . S
C1173 C1172 1.386 . S
C1173 C1177 1.393 . S
C1174 H1166 0.950 . S
C1174 C1172 1.391 . S
C1174 C1175 1.400 . S
C1175 C1174 1.400 . S
C1175 C1176 1.398 . S
C1175 C1181 1.491 . S
C1176 H1167 0.950 . S
C1176 C1175 1.398 . S
C1176 C1177 1.391 . S
C1177 H1165 0.950 . S
C1177 C1173 1.393 . S
C1177 C1176 1.391 . S
C1178 H1168 0.950 . S
C1178 C1179 1.386 . S
C1178 C1180 1.391 . S
C1179 C1178 1.386 . S
C1179 C1183 1.393 . S
C1180 H1169 0.950 . S
C1180 C1178 1.391 . S
C1180 C1181 1.400 . S
C1181 C1175 1.491 . S
C1181 C1180 1.400 . S
C1181 C1182 1.398 . S
C1182 H1170 0.950 . S
C1182 C1181 1.398 . S
C1182 C1183 1.391 . S
C1183 H1171 0.950 . S
C1183 C1179 1.393 . S
C1183 C1182 1.391 . S
H1184 C1192 0.950 . S
H1185 C1197 0.950 1_655 S
H1186 C1194 0.950 . S
H1187 C1196 0.950 1_655 S
H1188 C1198 0.950 1_554 S
H1189 C1200 0.950 . S
H1190 C1202 0.950 . S
H1191 C1203 0.950 . S
C1192 H1184 0.950 . S
C1192 C1193 1.386 . S
C1192 C1194 1.391 . S
C1193 C1192 1.386 . S
C1193 C1197 1.393 . S
C1194 H1186 0.950 . S
C1194 C1192 1.391 . S
C1194 C1195 1.400 . S
C1195 C1194 1.400 . S
C1195 C1196 1.398 . S
C1195 C1201 1.491 . S
C1196 H1187 0.950 1_455 S
C1196 C1195 1.398 . S
C1196 C1197 1.391 . S
C1197 H1185 0.950 1_455 S
C1197 C1193 1.393 . S
C1197 C1196 1.391 . S
C1198 H1188 0.950 1_556 S
C1198 C1199 1.386 . S
C1198 C1200 1.391 . S
C1199 C1198 1.386 . S
C1199 C1203 1.393 . S
C1200 H1189 0.950 . S
C1200 C1198 1.391 . S
C1200 C1201 1.400 . S
C1201 C1195 1.491 . S
C1201 C1200 1.400 . S
C1201 C1202 1.398 . S
C1202 H1190 0.950 . S
C1202 C1201 1.398 . S
C1202 C1203 1.391 . S
C1203 H1191 0.950 . S
C1203 C1199 1.393 . S
C1203 C1202 1.391 . S
H1204 C1212 0.950 . S
H1205 C1217 0.950 . S
H1206 C1214 0.950 . S
H1207 C1216 0.950 . S
H1208 C1218 0.950 . S
H1209 C1220 0.950 . S
H1210 C1222 0.950 . S
H1211 C1223 0.950 . S
C1212 H1204 0.950 . S
C1212 C1213 1.386 . S
C1212 C1214 1.391 . S
C1213 C1212 1.386 . S
C1213 C1217 1.393 . S
C1214 H1206 0.950 . S
C1214 C1212 1.391 . S
C1214 C1215 1.400 . S
C1215 C1214 1.400 . S
C1215 C1216 1.398 . S
C1215 C1221 1.491 . S
C1216 H1207 0.950 . S
C1216 C1215 1.398 . S
C1216 C1217 1.391 . S
C1217 H1205 0.950 . S
C1217 C1213 1.393 . S
C1217 C1216 1.391 . S
C1218 H1208 0.950 . S
C1218 C1219 1.386 . S
C1218 C1220 1.391 . S
C1219 C1218 1.386 . S
C1219 C1223 1.393 . S
C1220 H1209 0.950 . S
C1220 C1218 1.391 . S
C1220 C1221 1.400 . S
C1221 C1215 1.491 . S
C1221 C1220 1.400 . S
C1221 C1222 1.398 . S
C1222 H1210 0.950 . S
C1222 C1221 1.398 . S
C1222 C1223 1.391 . S
C1223 H1211 0.950 . S
C1223 C1219 1.393 . S
C1223 C1222 1.391 . S
H1224 C1232 0.950 . S
H1225 C1237 0.950 . S
H1226 C1234 0.950 . S
H1227 C1236 0.950 . S
H1228 C1238 0.950 . S
H1229 C1240 0.950 . S
H1230 C1242 0.950 . S
H1231 C1243 0.950 . S
C1232 H1224 0.950 . S
C1232 C1233 1.386 . S
C1232 C1234 1.391 . S
C1233 C1232 1.386 . S
C1233 C1237 1.393 . S
C1234 H1226 0.950 . S
C1234 C1232 1.391 . S
C1234 C1235 1.400 . S
C1235 C1234 1.400 . S
C1235 C1236 1.398 . S
C1235 C1241 1.491 . S
C1236 H1227 0.950 . S
C1236 C1235 1.398 . S
C1236 C1237 1.391 . S
C1237 H1225 0.950 . S
C1237 C1233 1.393 . S
C1237 C1236 1.391 . S
C1238 H1228 0.950 . S
C1238 C1239 1.386 . S
C1238 C1240 1.391 . S
C1239 C1238 1.386 . S
C1239 C1243 1.393 . S
C1240 H1229 0.950 . S
C1240 C1238 1.391 . S
C1240 C1241 1.400 . S
C1241 C1235 1.491 . S
C1241 C1240 1.400 . S
C1241 C1242 1.398 . S
C1242 H1230 0.950 . S
C1242 C1241 1.398 . S
C1242 C1243 1.391 . S
C1243 H1231 0.950 . S
C1243 C1239 1.393 . S
C1243 C1242 1.391 . S
H1244 C1252 0.950 . S
H1245 C1257 0.950 . S
H1246 C1254 0.950 . S
H1247 C1256 0.950 . S
H1248 C1258 0.950 . S
H1249 C1260 0.950 . S
H1250 C1262 0.950 . S
H1251 C1263 0.950 . S
C1252 H1244 0.950 . S
C1252 C1253 1.386 . S
C1252 C1254 1.391 . S
C1253 C1252 1.386 . S
C1253 C1257 1.393 . S
C1254 H1246 0.950 . S
C1254 C1252 1.391 . S
C1254 C1255 1.400 . S
C1255 C1254 1.400 . S
C1255 C1256 1.398 . S
C1255 C1261 1.491 . S
C1256 H1247 0.950 . S
C1256 C1255 1.398 . S
C1256 C1257 1.391 . S
C1257 H1245 0.950 . S
C1257 C1253 1.393 . S
C1257 C1256 1.391 . S
C1258 H1248 0.950 . S
C1258 C1259 1.386 . S
C1258 C1260 1.391 . S
C1259 C1258 1.386 . S
C1259 C1263 1.393 . S
C1260 H1249 0.950 . S
C1260 C1258 1.391 . S
C1260 C1261 1.400 . S
C1261 C1255 1.491 . S
C1261 C1260 1.400 . S
C1261 C1262 1.398 . S
C1262 H1250 0.950 . S
C1262 C1261 1.398 . S
C1262 C1263 1.391 . S
C1263 H1251 0.950 . S
C1263 C1259 1.393 . S
C1263 C1262 1.391 . S
H1264 C1272 0.950 . S
H1265 C1277 0.950 . S
H1266 C1274 0.950 . S
H1267 C1276 0.950 . S
H1268 C1278 0.950 . S
H1269 C1280 0.950 . S
H1270 C1282 0.950 1_655 S
H1271 C1283 0.950 1_655 S
C1272 H1264 0.950 . S
C1272 C1273 1.386 1_655 S
C1272 C1274 1.391 . S
C1273 C1272 1.386 1_455 S
C1273 C1277 1.393 . S
C1274 H1266 0.950 . S
C1274 C1272 1.391 . S
C1274 C1275 1.400 1_655 S
C1275 C1274 1.400 1_455 S
C1275 C1276 1.398 . S
C1275 C1281 1.491 . S
C1276 H1267 0.950 . S
C1276 C1275 1.398 . S
C1276 C1277 1.391 . S
C1277 H1265 0.950 . S
C1277 C1273 1.393 . S
C1277 C1276 1.391 . S
C1278 H1268 0.950 . S
C1278 C1279 1.386 . S
C1278 C1280 1.391 . S
C1279 C1278 1.386 . S
C1279 C1283 1.393 . S
C1280 H1269 0.950 . S
C1280 C1278 1.391 . S
C1280 C1281 1.400 . S
C1281 C1275 1.491 . S
C1281 C1280 1.400 . S
C1281 C1282 1.398 . S
C1282 H1270 0.950 1_455 S
C1282 C1281 1.398 . S
C1282 C1283 1.391 . S
C1283 H1271 0.950 1_455 S
C1283 C1279 1.393 . S
C1283 C1282 1.391 . S
H1284 C1292 0.950 . S
H1285 C1297 0.950 . S
H1286 C1294 0.950 . S
H1287 C1296 0.950 . S
H1288 C1298 0.950 . S
H1289 C1300 0.950 . S
H1290 C1302 0.950 . S
H1291 C1303 0.950 . S
C1292 H1284 0.950 . S
C1292 C1293 1.386 . S
C1292 C1294 1.391 . S
C1293 C1292 1.386 . S
C1293 C1297 1.393 . S
C1294 H1286 0.950 . S
C1294 C1292 1.391 . S
C1294 C1295 1.400 . S
C1295 C1294 1.400 . S
C1295 C1296 1.398 . S
C1295 C1301 1.491 . S
C1296 H1287 0.950 . S
C1296 C1295 1.398 . S
C1296 C1297 1.391 . S
C1297 H1285 0.950 . S
C1297 C1293 1.393 . S
C1297 C1296 1.391 . S
C1298 H1288 0.950 . S
C1298 C1299 1.386 . S
C1298 C1300 1.391 . S
C1299 C1298 1.386 . S
C1299 C1303 1.393 . S
C1300 H1289 0.950 . S
C1300 C1298 1.391 . S
C1300 C1301 1.400 . S
C1301 C1295 1.491 . S
C1301 C1300 1.400 . S
C1301 C1302 1.398 . S
C1302 H1290 0.950 . S
C1302 C1301 1.398 . S
C1302 C1303 1.391 . S
C1303 H1291 0.950 . S
C1303 C1299 1.393 . S
C1303 C1302 1.391 . S
H1304 C1312 0.950 . S
H1305 C1317 0.950 . S
H1306 C1314 0.950 . S
H1307 C1316 0.950 . S
H1308 C1318 0.950 . S
H1309 C1320 0.950 . S
H1310 C1322 0.950 . S
H1311 C1323 0.950 . S
C1312 H1304 0.950 . S
C1312 C1313 1.386 . S
C1312 C1314 1.391 . S
C1313 C1312 1.386 . S
C1313 C1317 1.393 . S
C1314 H1306 0.950 . S
C1314 C1312 1.391 . S
C1314 C1315 1.400 . S
C1315 C1314 1.400 . S
C1315 C1316 1.398 . S
C1315 C1321 1.491 . S
C1316 H1307 0.950 . S
C1316 C1315 1.398 . S
C1316 C1317 1.391 . S
C1317 H1305 0.950 . S
C1317 C1313 1.393 . S
C1317 C1316 1.391 . S
C1318 H1308 0.950 . S
C1318 C1319 1.386 . S
C1318 C1320 1.391 . S
C1319 C1318 1.386 . S
C1319 C1323 1.393 . S
C1320 H1309 0.950 . S
C1320 C1318 1.391 . S
C1320 C1321 1.400 . S
C1321 C1315 1.491 . S
C1321 C1320 1.400 . S
C1321 C1322 1.398 . S
C1322 H1310 0.950 . S
C1322 C1321 1.398 . S
C1322 C1323 1.391 . S
C1323 H1311 0.950 . S
C1323 C1319 1.393 . S
C1323 C1322 1.391 . S
H1324 C1332 0.950 . S
H1325 C1337 0.950 . S
H1326 C1334 0.950 . S
H1327 C1336 0.950 . S
H1328 C1338 0.950 . S
H1329 C1340 0.950 . S
H1330 C1342 0.950 . S
H1331 C1343 0.950 . S
C1332 H1324 0.950 . S
C1332 C1333 1.386 . S
C1332 C1334 1.391 . S
C1333 C1332 1.386 . S
C1333 C1337 1.393 . S
C1334 H1326 0.950 . S
C1334 C1332 1.391 . S
C1334 C1335 1.400 . S
C1335 C1334 1.400 . S
C1335 C1336 1.398 . S
C1335 C1341 1.491 . S
C1336 H1327 0.950 . S
C1336 C1335 1.398 . S
C1336 C1337 1.391 . S
C1337 H1325 0.950 . S
C1337 C1333 1.393 . S
C1337 C1336 1.391 . S
C1338 H1328 0.950 . S
C1338 C1339 1.386 . S
C1338 C1340 1.391 . S
C1339 C1338 1.386 . S
C1339 C1343 1.393 . S
C1340 H1329 0.950 . S
C1340 C1338 1.391 . S
C1340 C1341 1.400 . S
C1341 C1335 1.491 . S
C1341 C1340 1.400 . S
C1341 C1342 1.398 . S
C1342 H1330 0.950 . S
C1342 C1341 1.398 . S
C1342 C1343 1.391 . S
C1343 H1331 0.950 . S
C1343 C1339 1.393 . S
C1343 C1342 1.391 . S
H1344 C1352 0.950 . S
H1345 C1357 0.951 . S
H1346 C1354 0.950 . S
H1347 C1356 0.950 . S
H1348 C1358 0.950 . S
H1349 C1360 0.950 . S
H1350 C1362 0.950 . S
H1351 C1363 0.922 1_455 S
C1352 H1344 0.950 . S
C1352 C1353 1.386 . S
C1352 C1354 1.391 . S
C1353 C1352 1.386 . S
C1353 C1357 1.393 . S
C1354 H1346 0.950 . S
C1354 C1352 1.391 . S
C1354 C1355 1.400 . S
C1355 C1354 1.400 . S
C1355 C1356 1.398 . S
C1355 C1361 1.491 . S
C1356 H1347 0.950 . S
C1356 C1355 1.398 . S
C1356 C1357 1.391 . S
C1357 H1345 0.951 . S
C1357 C1353 1.393 . S
C1357 C1356 1.391 . S
C1358 H1348 0.950 . S
C1358 C1359 1.386 . S
C1358 C1360 1.391 . S
C1359 C1358 1.386 . S
C1359 C1363 1.393 . S
C1360 H1349 0.950 . S
C1360 C1358 1.391 . S
C1360 C1361 1.400 . S
C1361 C1355 1.491 . S
C1361 C1360 1.400 . S
C1361 C1362 1.398 . S
C1362 H1350 0.950 . S
C1362 C1361 1.398 . S
C1362 C1363 1.391 . S
C1363 H1351 0.922 1_655 S
C1363 C1359 1.393 . S
C1363 C1362 1.391 . S
H1364 C1372 0.950 . S
H1365 C1377 0.950 . S
H1366 C1374 0.950 . S
H1367 C1376 0.950 . S
H1368 C1378 0.950 . S
H1369 C1380 0.950 . S
H1370 C1382 0.950 . S
H1371 C1383 0.950 . S
C1372 H1364 0.950 . S
C1372 C1373 1.386 . S
C1372 C1374 1.391 . S
C1373 C1372 1.386 . S
C1373 C1377 1.393 . S
C1374 H1366 0.950 . S
C1374 C1372 1.391 . S
C1374 C1375 1.400 . S
C1375 C1374 1.400 . S
C1375 C1376 1.398 . S
C1375 C1381 1.491 . S
C1376 H1367 0.950 . S
C1376 C1375 1.398 . S
C1376 C1377 1.391 . S
C1377 H1365 0.950 . S
C1377 C1373 1.393 . S
C1377 C1376 1.391 . S
C1378 H1368 0.950 . S
C1378 C1379 1.386 . S
C1378 C1380 1.391 . S
C1379 C1378 1.386 . S
C1379 C1383 1.393 . S
C1380 H1369 0.950 . S
C1380 C1378 1.391 . S
C1380 C1381 1.400 . S
C1381 C1375 1.491 . S
C1381 C1380 1.400 . S
C1381 C1382 1.398 . S
C1382 H1370 0.950 . S
C1382 C1381 1.398 . S
C1382 C1383 1.391 . S
C1383 H1371 0.950 . S
C1383 C1379 1.393 . S
C1383 C1382 1.391 . S
H1384 C1392 0.950 . S
H1385 C1397 0.950 . S
H1386 C1394 0.950 . S
H1387 C1396 0.950 . S
H1388 C1398 0.944 1_545 S
H1389 C1400 0.950 1_545 S
H1390 C1402 0.950 . S
H1391 C1403 0.950 . S
C1392 H1384 0.950 . S
C1392 C1393 1.386 1_565 S
C1392 C1394 1.391 . S
C1393 C1392 1.386 1_545 S
C1393 C1397 1.393 . S
C1394 H1386 0.950 . S
C1394 C1392 1.391 . S
C1394 C1395 1.400 . S
C1395 C1394 1.400 . S
C1395 C1396 1.398 1_565 S
C1395 C1401 1.491 . S
C1396 H1387 0.950 . S
C1396 C1395 1.398 1_545 S
C1396 C1397 1.391 . S
C1397 H1385 0.950 . S
C1397 C1393 1.393 . S
C1397 C1396 1.391 . S
C1398 H1388 0.944 1_565 S
C1398 C1399 1.386 . S
C1398 C1400 1.391 . S
C1399 C1398 1.386 . S
C1399 C1403 1.393 . S
C1400 H1389 0.950 1_565 S
C1400 C1398 1.391 . S
C1400 C1401 1.400 . S
C1401 C1395 1.491 . S
C1401 C1400 1.400 . S
C1401 C1402 1.398 . S
C1402 H1390 0.950 . S
C1402 C1401 1.398 . S
C1402 C1403 1.391 . S
C1403 H1391 0.950 . S
C1403 C1399 1.393 . S
C1403 C1402 1.391 . S
H1404 C1412 0.950 . S
H1405 C1417 0.950 . S
H1406 C1414 0.950 . S
H1407 C1416 0.950 . S
H1408 C1418 0.950 . S
H1409 C1420 0.950 . S
H1410 C1422 0.950 . S
H1411 C1423 0.950 . S
C1412 H1404 0.950 . S
C1412 C1413 1.386 . S
C1412 C1414 1.391 . S
C1413 C1412 1.386 . S
C1413 C1417 1.393 . S
C1414 H1406 0.950 . S
C1414 C1412 1.391 . S
C1414 C1415 1.400 . S
C1415 C1414 1.400 . S
C1415 C1416 1.398 . S
C1415 C1421 1.491 . S
C1416 H1407 0.950 . S
C1416 C1415 1.398 . S
C1416 C1417 1.391 . S
C1417 H1405 0.950 . S
C1417 C1413 1.393 . S
C1417 C1416 1.391 . S
C1418 H1408 0.950 . S
C1418 C1419 1.386 . S
C1418 C1420 1.391 . S
C1419 C1418 1.386 . S
C1419 C1423 1.393 . S
C1420 H1409 0.950 . S
C1420 C1418 1.391 . S
C1420 C1421 1.400 . S
C1421 C1415 1.491 . S
C1421 C1420 1.400 . S
C1421 C1422 1.398 . S
C1422 H1410 0.950 . S
C1422 C1421 1.398 . S
C1422 C1423 1.391 . S
C1423 H1411 0.950 . S
C1423 C1419 1.393 . S
C1423 C1422 1.391 . S
H1424 C1432 0.950 . S
H1425 C1437 0.950 . S
H1426 C1434 0.950 . S
H1427 C1436 0.950 . S
H1428 C1438 0.950 1_455 S
H1429 C1440 0.950 . S
H1430 C1442 0.950 . S
H1431 C1443 0.950 . S
C1432 H1424 0.950 . S
C1432 C1433 1.386 1_565 S
C1432 C1434 1.391 . S
C1433 C1432 1.386 1_545 S
C1433 C1437 1.393 . S
C1434 H1426 0.950 . S
C1434 C1432 1.391 . S
C1434 C1435 1.400 1_565 S
C1435 C1434 1.400 1_545 S
C1435 C1436 1.398 . S
C1435 C1441 1.491 . S
C1436 H1427 0.950 . S
C1436 C1435 1.398 . S
C1436 C1437 1.391 . S
C1437 H1425 0.950 . S
C1437 C1433 1.393 . S
C1437 C1436 1.391 . S
C1438 H1428 0.950 1_655 S
C1438 C1439 1.386 1_545 S
C1438 C1440 1.391 . S
C1439 C1438 1.386 1_565 S
C1439 C1443 1.393 . S
C1440 H1429 0.950 . S
C1440 C1438 1.391 . S
C1440 C1441 1.400 . S
C1441 C1435 1.491 . S
C1441 C1440 1.400 . S
C1441 C1442 1.398 1_545 S
C1442 H1430 0.950 . S
C1442 C1441 1.398 1_565 S
C1442 C1443 1.391 . S
C1443 H1431 0.950 . S
C1443 C1439 1.393 . S
C1443 C1442 1.391 . S
H1444 C1452 0.950 . S
H1445 C1457 0.950 . S
H1446 C1454 0.950 . S
H1447 C1456 0.950 . S
H1448 C1458 0.950 . S
H1449 C1460 0.950 . S
H1450 C1462 0.950 . S
H1451 C1463 0.950 . S
C1452 H1444 0.950 . S
C1452 C1453 1.386 . S
C1452 C1454 1.391 . S
C1453 C1452 1.386 . S
C1453 C1457 1.393 . S
C1454 H1446 0.950 . S
C1454 C1452 1.391 . S
C1454 C1455 1.400 . S
C1455 C1454 1.400 . S
C1455 C1456 1.398 . S
C1455 C1461 1.491 . S
C1456 H1447 0.950 . S
C1456 C1455 1.398 . S
C1456 C1457 1.391 . S
C1457 H1445 0.950 . S
C1457 C1453 1.393 . S
C1457 C1456 1.391 . S
C1458 H1448 0.950 . S
C1458 C1459 1.386 . S
C1458 C1460 1.391 . S
C1459 C1458 1.386 . S
C1459 C1463 1.393 . S
C1460 H1449 0.950 . S
C1460 C1458 1.391 . S
C1460 C1461 1.400 . S
C1461 C1455 1.491 . S
C1461 C1460 1.400 . S
C1461 C1462 1.398 . S
C1462 H1450 0.950 . S
C1462 C1461 1.398 . S
C1462 C1463 1.391 . S
C1463 H1451 0.950 . S
C1463 C1459 1.393 . S
C1463 C1462 1.391 . S
H1464 C1472 0.950 . S
H1465 C1477 0.950 . S
H1466 C1474 0.950 . S
H1467 C1476 0.950 . S
H1468 C1478 0.950 . S
H1469 C1480 0.950 . S
H1470 C1482 0.950 1_565 S
H1471 C1483 0.950 . S
C1472 H1464 0.950 . S
C1472 C1473 1.386 1_565 S
C1472 C1474 1.391 . S
C1473 C1472 1.386 1_545 S
C1473 C1477 1.393 . S
C1474 H1466 0.950 . S
C1474 C1472 1.391 . S
C1474 C1475 1.400 1_565 S
C1475 C1474 1.400 1_545 S
C1475 C1476 1.398 . S
C1475 C1481 1.491 . S
C1476 H1467 0.950 . S
C1476 C1475 1.398 . S
C1476 C1477 1.391 . S
C1477 H1465 0.950 . S
C1477 C1473 1.393 . S
C1477 C1476 1.391 . S
C1478 H1468 0.950 . S
C1478 C1479 1.386 . S
C1478 C1480 1.391 . S
C1479 C1478 1.386 . S
C1479 C1483 1.393 . S
C1480 H1469 0.950 . S
C1480 C1478 1.391 . S
C1480 C1481 1.400 . S
C1481 C1475 1.491 . S
C1481 C1480 1.400 . S
C1481 C1482 1.398 . S
C1482 H1470 0.950 1_545 S
C1482 C1481 1.398 . S
C1482 C1483 1.391 . S
C1483 H1471 0.950 . S
C1483 C1479 1.393 . S
C1483 C1482 1.391 . S
H1484 C1492 0.950 . S
H1485 C1497 0.950 . S
H1486 C1494 0.950 . S
H1487 C1496 0.950 . S
H1488 C1498 0.950 . S
H1489 C1500 0.950 . S
H1490 C1502 0.950 . S
H1491 C1503 0.950 . S
C1492 H1484 0.950 . S
C1492 C1493 1.386 . S
C1492 C1494 1.391 . S
C1493 C1492 1.386 . S
C1493 C1497 1.393 . S
C1494 H1486 0.950 . S
C1494 C1492 1.391 . S
C1494 C1495 1.400 . S
C1495 C1494 1.400 . S
C1495 C1496 1.398 . S
C1495 C1501 1.491 . S
C1496 H1487 0.950 . S
C1496 C1495 1.398 . S
C1496 C1497 1.391 . S
C1497 H1485 0.950 . S
C1497 C1493 1.393 . S
C1497 C1496 1.391 . S
C1498 H1488 0.950 . S
C1498 C1499 1.386 . S
C1498 C1500 1.391 . S
C1499 C1498 1.386 . S
C1499 C1503 1.393 . S
C1500 H1489 0.950 . S
C1500 C1498 1.391 . S
C1500 C1501 1.400 . S
C1501 C1495 1.491 . S
C1501 C1500 1.400 . S
C1501 C1502 1.398 . S
C1502 H1490 0.950 . S
C1502 C1501 1.398 . S
C1502 C1503 1.391 . S
C1503 H1491 0.950 . S
C1503 C1499 1.393 . S
C1503 C1502 1.391 . S
H1504 C1512 0.950 . S
H1505 C1517 0.950 . S
H1506 C1514 0.950 . S
H1507 C1516 0.947 1_556 S
H1508 C1518 0.950 . S
H1509 C1520 0.950 . S
H1510 C1522 0.950 . S
H1511 C1523 0.950 . S
C1512 H1504 0.950 . S
C1512 C1513 1.386 . S
C1512 C1514 1.391 . S
C1513 C1512 1.386 . S
C1513 C1517 1.393 1_554 S
C1514 H1506 0.950 . S
C1514 C1512 1.391 . S
C1514 C1515 1.400 . S
C1515 C1514 1.400 . S
C1515 C1516 1.398 . S
C1515 C1521 1.491 . S
C1516 H1507 0.947 1_554 S
C1516 C1515 1.398 . S
C1516 C1517 1.391 1_554 S
C1517 H1505 0.950 . S
C1517 C1513 1.393 1_556 S
C1517 C1516 1.391 1_556 S
C1518 H1508 0.950 . S
C1518 C1519 1.386 . S
C1518 C1520 1.391 . S
C1519 C1518 1.386 . S
C1519 C1523 1.393 . S
C1520 H1509 0.950 . S
C1520 C1518 1.391 . S
C1520 C1521 1.400 . S
C1521 C1515 1.491 . S
C1521 C1520 1.400 . S
C1521 C1522 1.398 . S
C1522 H1510 0.950 . S
C1522 C1521 1.398 . S
C1522 C1523 1.391 . S
C1523 H1511 0.950 . S
C1523 C1519 1.393 . S
C1523 C1522 1.391 . S
H1524 C1532 0.950 . S
H1525 C1537 0.950 . S
H1526 C1534 0.950 . S
H1527 C1536 0.950 . S
H1528 C1538 0.950 . S
H1529 C1540 0.950 . S
H1530 C1542 0.950 . S
H1531 C1543 0.950 . S
C1532 H1524 0.950 . S
C1532 C1533 1.386 1_556 S
C1532 C1534 1.391 . S
C1533 C1532 1.386 1_554 S
C1533 C1537 1.393 . S
C1534 H1526 0.950 . S
C1534 C1532 1.391 . S
C1534 C1535 1.400 . S
C1535 C1534 1.400 . S
C1535 C1536 1.398 1_556 S
C1535 C1541 1.491 . S
C1536 H1527 0.950 . S
C1536 C1535 1.398 1_554 S
C1536 C1537 1.391 . S
C1537 H1525 0.950 . S
C1537 C1533 1.393 . S
C1537 C1536 1.391 . S
C1538 H1528 0.950 . S
C1538 C1539 1.386 1_554 S
C1538 C1540 1.391 . S
C1539 C1538 1.386 1_556 S
C1539 C1543 1.393 . S
C1540 H1529 0.950 . S
C1540 C1538 1.391 . S
C1540 C1541 1.400 1_554 S
C1541 C1535 1.491 . S
C1541 C1540 1.400 1_556 S
C1541 C1542 1.398 . S
C1542 H1530 0.950 . S
C1542 C1541 1.398 . S
C1542 C1543 1.391 . S
C1543 H1531 0.950 . S
C1543 C1539 1.393 . S
C1543 C1542 1.391 . S
H1544 C1552 0.950 . S
H1545 C1557 0.950 . S
H1546 C1554 0.950 . S
H1547 C1556 0.950 . S
H1548 C1558 0.950 . S
H1549 C1560 0.950 . S
H1550 C1562 0.950 . S
H1551 C1563 0.950 . S
C1552 H1544 0.950 . S
C1552 C1553 1.386 . S
C1552 C1554 1.391 . S
C1553 C1552 1.386 . S
C1553 C1557 1.393 . S
C1554 H1546 0.950 . S
C1554 C1552 1.391 . S
C1554 C1555 1.400 . S
C1555 C1554 1.400 . S
C1555 C1556 1.398 . S
C1555 C1561 1.491 . S
C1556 H1547 0.950 . S
C1556 C1555 1.398 . S
C1556 C1557 1.391 . S
C1557 H1545 0.950 . S
C1557 C1553 1.393 . S
C1557 C1556 1.391 . S
C1558 H1548 0.950 . S
C1558 C1559 1.386 . S
C1558 C1560 1.391 . S
C1559 C1558 1.386 . S
C1559 C1563 1.393 . S
C1560 H1549 0.950 . S
C1560 C1558 1.391 . S
C1560 C1561 1.400 . S
C1561 C1555 1.491 . S
C1561 C1560 1.400 . S
C1561 C1562 1.398 . S
C1562 H1550 0.950 . S
C1562 C1561 1.398 . S
C1562 C1563 1.391 . S
C1563 H1551 0.950 . S
C1563 C1559 1.393 . S
C1563 C1562 1.391 . S
H1564 C1572 0.950 . S
H1565 C1577 0.950 . S
H1566 C1574 0.950 . S
H1567 C1576 0.950 . S
H1568 C1578 0.950 . S
H1569 C1580 0.950 . S
H1570 C1582 0.950 . S
H1571 C1583 0.950 . S
C1572 H1564 0.950 . S
C1572 C1573 1.386 . S
C1572 C1574 1.391 . S
C1573 C1572 1.386 . S
C1573 C1577 1.393 . S
C1574 H1566 0.950 . S
C1574 C1572 1.391 . S
C1574 C1575 1.400 . S
C1575 C1574 1.400 . S
C1575 C1576 1.398 . S
C1575 C1581 1.491 . S
C1576 H1567 0.950 . S
C1576 C1575 1.398 . S
C1576 C1577 1.391 . S
C1577 H1565 0.950 . S
C1577 C1573 1.393 . S
C1577 C1576 1.391 . S
C1578 H1568 0.950 . S
C1578 C1579 1.386 . S
C1578 C1580 1.391 . S
C1579 C1578 1.386 . S
C1579 C1583 1.393 . S
C1580 H1569 0.950 . S
C1580 C1578 1.391 . S
C1580 C1581 1.400 . S
C1581 C1575 1.491 . S
C1581 C1580 1.400 . S
C1581 C1582 1.398 . S
C1582 H1570 0.950 . S
C1582 C1581 1.398 . S
C1582 C1583 1.391 . S
C1583 H1571 0.950 . S
C1583 C1579 1.393 . S
C1583 C1582 1.391 . S
H1584 C1592 0.950 . S
H1585 C1597 0.950 . S
H1586 C1594 0.950 . S
H1587 C1596 0.950 . S
H1588 C1598 0.950 . S
H1589 C1600 0.950 . S
H1590 C1602 0.950 . S
H1591 C1603 0.950 . S
C1592 H1584 0.950 . S
C1592 C1593 1.386 . S
C1592 C1594 1.391 . S
C1593 C1592 1.386 . S
C1593 C1597 1.393 . S
C1594 H1586 0.950 . S
C1594 C1592 1.391 . S
C1594 C1595 1.400 . S
C1595 C1594 1.400 . S
C1595 C1596 1.398 . S
C1595 C1601 1.491 . S
C1596 H1587 0.950 . S
C1596 C1595 1.398 . S
C1596 C1597 1.391 . S
C1597 H1585 0.950 . S
C1597 C1593 1.393 . S
C1597 C1596 1.391 . S
C1598 H1588 0.950 . S
C1598 C1599 1.386 . S
C1598 C1600 1.391 . S
C1599 C1598 1.386 . S
C1599 C1603 1.393 . S
C1600 H1589 0.950 . S
C1600 C1598 1.391 . S
C1600 C1601 1.400 . S
C1601 C1595 1.491 . S
C1601 C1600 1.400 . S
C1601 C1602 1.398 . S
C1602 H1590 0.950 . S
C1602 C1601 1.398 . S
C1602 C1603 1.391 . S
C1603 H1591 0.950 . S
C1603 C1599 1.393 . S
C1603 C1602 1.391 . S
H1604 C1612 0.950 . S
H1605 C1617 0.950 . S
H1606 C1614 0.950 . S
H1607 C1616 0.950 . S
H1608 C1618 0.950 . S
H1609 C1620 0.950 . S
H1610 C1622 0.950 . S
H1611 C1623 0.950 . S
C1612 H1604 0.950 . S
C1612 C1613 1.386 . S
C1612 C1614 1.391 . S
C1613 C1612 1.386 . S
C1613 C1617 1.393 . S
C1614 H1606 0.950 . S
C1614 C1612 1.391 . S
C1614 C1615 1.400 . S
C1615 C1614 1.400 . S
C1615 C1616 1.398 . S
C1615 C1621 1.491 . S
C1616 H1607 0.950 . S
C1616 C1615 1.398 . S
C1616 C1617 1.391 . S
C1617 H1605 0.950 . S
C1617 C1613 1.393 . S
C1617 C1616 1.391 . S
C1618 H1608 0.950 . S
C1618 C1619 1.386 . S
C1618 C1620 1.391 . S
C1619 C1618 1.386 . S
C1619 C1623 1.393 . S
C1620 H1609 0.950 . S
C1620 C1618 1.391 . S
C1620 C1621 1.400 . S
C1621 C1615 1.491 . S
C1621 C1620 1.400 . S
C1621 C1622 1.398 . S
C1622 H1610 0.950 . S
C1622 C1621 1.398 . S
C1622 C1623 1.391 . S
C1623 H1611 0.950 . S
C1623 C1619 1.393 . S
C1623 C1622 1.391 . S
H1624 C1632 0.950 . S
H1625 C1637 0.950 . S
H1626 C1634 0.950 . S
H1627 C1636 0.950 . S
H1628 C1638 0.950 . S
H1629 C1640 0.950 . S
H1630 C1642 0.950 . S
H1631 C1643 0.950 . S
C1632 H1624 0.950 . S
C1632 C1633 1.386 . S
C1632 C1634 1.391 . S
C1633 C1632 1.386 . S
C1633 C1637 1.393 . S
C1634 H1626 0.950 . S
C1634 C1632 1.391 . S
C1634 C1635 1.400 . S
C1635 C1634 1.400 . S
C1635 C1636 1.398 . S
C1635 C1641 1.491 . S
C1636 H1627 0.950 . S
C1636 C1635 1.398 . S
C1636 C1637 1.391 . S
C1637 H1625 0.950 . S
C1637 C1633 1.393 . S
C1637 C1636 1.391 . S
C1638 H1628 0.950 . S
C1638 C1639 1.386 . S
C1638 C1640 1.391 . S
C1639 C1638 1.386 . S
C1639 C1643 1.393 . S
C1640 H1629 0.950 . S
C1640 C1638 1.391 . S
C1640 C1641 1.400 . S
C1641 C1635 1.491 . S
C1641 C1640 1.400 . S
C1641 C1642 1.398 . S
C1642 H1630 0.950 . S
C1642 C1641 1.398 . S
C1642 C1643 1.391 . S
C1643 H1631 0.950 . S
C1643 C1639 1.393 . S
C1643 C1642 1.391 . S
H1644 C1652 0.950 . S
H1645 C1657 0.950 . S
H1646 C1654 0.950 . S
H1647 C1656 0.950 . S
H1648 C1658 0.950 . S
H1649 C1660 0.950 . S
H1650 C1662 0.950 . S
H1651 C1663 0.950 . S
C1652 H1644 0.950 . S
C1652 C1653 1.386 . S
C1652 C1654 1.391 . S
C1653 C1652 1.386 . S
C1653 C1657 1.393 . S
C1654 H1646 0.950 . S
C1654 C1652 1.391 . S
C1654 C1655 1.400 . S
C1655 C1654 1.400 . S
C1655 C1656 1.398 . S
C1655 C1661 1.491 . S
C1656 H1647 0.950 . S
C1656 C1655 1.398 . S
C1656 C1657 1.391 . S
C1657 H1645 0.950 . S
C1657 C1653 1.393 . S
C1657 C1656 1.391 . S
C1658 H1648 0.950 . S
C1658 C1659 1.386 . S
C1658 C1660 1.391 . S
C1659 C1658 1.386 . S
C1659 C1663 1.393 . S
C1660 H1649 0.950 . S
C1660 C1658 1.391 . S
C1660 C1661 1.400 . S
C1661 C1655 1.491 . S
C1661 C1660 1.400 . S
C1661 C1662 1.398 . S
C1662 H1650 0.950 . S
C1662 C1661 1.398 . S
C1662 C1663 1.391 . S
C1663 H1651 0.950 . S
C1663 C1659 1.393 . S
C1663 C1662 1.391 . S
H1664 C1672 0.950 . S
H1665 C1677 0.950 . S
H1666 C1674 0.950 . S
H1667 C1676 0.950 . S
H1668 C1678 0.950 . S
H1669 C1680 0.950 . S
H1670 C1682 0.950 . S
H1671 C1683 0.950 . S
C1672 H1664 0.950 . S
C1672 C1673 1.386 . S
C1672 C1674 1.391 . S
C1673 C1672 1.386 . S
C1673 C1677 1.393 . S
C1674 H1666 0.950 . S
C1674 C1672 1.391 . S
C1674 C1675 1.400 . S
C1675 C1674 1.400 . S
C1675 C1676 1.398 . S
C1675 C1681 1.491 . S
C1676 H1667 0.950 . S
C1676 C1675 1.398 . S
C1676 C1677 1.391 . S
C1677 H1665 0.950 . S
C1677 C1673 1.393 . S
C1677 C1676 1.391 . S
C1678 H1668 0.950 . S
C1678 C1679 1.386 . S
C1678 C1680 1.391 . S
C1679 C1678 1.386 . S
C1679 C1683 1.393 . S
C1680 H1669 0.950 . S
C1680 C1678 1.391 . S
C1680 C1681 1.400 . S
C1681 C1675 1.491 . S
C1681 C1680 1.400 . S
C1681 C1682 1.398 . S
C1682 H1670 0.950 . S
C1682 C1681 1.398 . S
C1682 C1683 1.391 . S
C1683 H1671 0.950 . S
C1683 C1679 1.393 . S
C1683 C1682 1.391 . S
H1684 C1692 0.950 . S
H1685 C1697 0.950 . S
H1686 C1694 0.950 . S
H1687 C1696 0.950 . S
H1688 C1698 0.950 . S
H1689 C1700 0.950 . S
H1690 C1702 0.950 . S
H1691 C1703 0.950 . S
C1692 H1684 0.950 . S
C1692 C1693 1.386 . S
C1692 C1694 1.391 . S
C1693 C1692 1.386 . S
C1693 C1697 1.393 . S
C1694 H1686 0.950 . S
C1694 C1692 1.391 . S
C1694 C1695 1.400 . S
C1695 C1694 1.400 . S
C1695 C1696 1.398 . S
C1695 C1701 1.491 . S
C1696 H1687 0.950 . S
C1696 C1695 1.398 . S
C1696 C1697 1.391 . S
C1697 H1685 0.950 . S
C1697 C1693 1.393 . S
C1697 C1696 1.391 . S
C1698 H1688 0.950 . S
C1698 C1699 1.386 . S
C1698 C1700 1.391 . S
C1699 C1698 1.386 . S
C1699 C1703 1.393 . S
C1700 H1689 0.950 . S
C1700 C1698 1.391 . S
C1700 C1701 1.400 . S
C1701 C1695 1.491 . S
C1701 C1700 1.400 . S
C1701 C1702 1.398 . S
C1702 H1690 0.950 . S
C1702 C1701 1.398 . S
C1702 C1703 1.391 . S
C1703 H1691 0.950 . S
C1703 C1699 1.393 . S
C1703 C1702 1.391 . S
H1704 C1712 0.950 . S
H1705 C1717 0.950 . S
H1706 C1714 0.950 . S
H1707 C1716 0.950 . S
H1708 C1718 0.950 1_655 S
H1709 C1720 0.950 1_655 S
H1710 C1722 0.950 . S
H1711 C1723 0.950 . S
C1712 H1704 0.950 . S
C1712 C1713 1.386 . S
C1712 C1714 1.391 . S
C1713 C1712 1.386 . S
C1713 C1717 1.393 1_455 S
C1714 H1706 0.950 . S
C1714 C1712 1.391 . S
C1714 C1715 1.400 . S
C1715 C1714 1.400 . S
C1715 C1716 1.398 1_455 S
C1715 C1721 1.491 . S
C1716 H1707 0.950 . S
C1716 C1715 1.398 1_655 S
C1716 C1717 1.391 . S
C1717 H1705 0.950 . S
C1717 C1713 1.393 1_655 S
C1717 C1716 1.391 . S
C1718 H1708 0.950 1_455 S
C1718 C1719 1.386 . S
C1718 C1720 1.391 . S
C1719 C1718 1.386 . S
C1719 C1723 1.393 . S
C1720 H1709 0.950 1_455 S
C1720 C1718 1.391 . S
C1720 C1721 1.400 . S
C1721 C1715 1.491 . S
C1721 C1720 1.400 . S
C1721 C1722 1.398 . S
C1722 H1710 0.950 . S
C1722 C1721 1.398 . S
C1722 C1723 1.391 . S
C1723 H1711 0.950 . S
C1723 C1719 1.393 . S
C1723 C1722 1.391 . S
H1724 C1732 0.950 . S
H1725 C1737 0.950 . S
H1726 C1734 0.950 . S
H1727 C1736 0.950 . S
H1728 C1738 0.950 . S
H1729 C1740 0.950 . S
H1730 C1742 0.950 . S
H1731 C1743 0.950 . S
C1732 H1724 0.950 . S
C1732 C1733 1.386 . S
C1732 C1734 1.391 . S
C1733 C1732 1.386 . S
C1733 C1737 1.393 . S
C1734 H1726 0.950 . S
C1734 C1732 1.391 . S
C1734 C1735 1.400 . S
C1735 C1734 1.400 . S
C1735 C1736 1.398 . S
C1735 C1741 1.491 . S
C1736 H1727 0.950 . S
C1736 C1735 1.398 . S
C1736 C1737 1.391 . S
C1737 H1725 0.950 . S
C1737 C1733 1.393 . S
C1737 C1736 1.391 . S
C1738 H1728 0.950 . S
C1738 C1739 1.386 . S
C1738 C1740 1.391 . S
C1739 C1738 1.386 . S
C1739 C1743 1.393 . S
C1740 H1729 0.950 . S
C1740 C1738 1.391 . S
C1740 C1741 1.400 . S
C1741 C1735 1.491 . S
C1741 C1740 1.400 . S
C1741 C1742 1.398 . S
C1742 H1730 0.950 . S
C1742 C1741 1.398 . S
C1742 C1743 1.391 . S
C1743 H1731 0.950 . S
C1743 C1739 1.393 . S
C1743 C1742 1.391 . S
H1744 C1752 0.950 . S
H1745 C1757 0.950 . S
H1746 C1754 0.950 . S
H1747 C1756 0.950 . S
H1748 C1758 0.963 . S
H1749 C1760 0.950 . S
H1750 C1762 0.950 . S
H1751 C1763 0.950 . S
C1752 H1744 0.950 . S
C1752 C1753 1.386 . S
C1752 C1754 1.391 . S
C1753 C1752 1.386 . S
C1753 C1757 1.393 . S
C1754 H1746 0.950 . S
C1754 C1752 1.391 . S
C1754 C1755 1.400 . S
C1755 C1754 1.400 . S
C1755 C1756 1.398 . S
C1755 C1761 1.491 . S
C1756 H1747 0.950 . S
C1756 C1755 1.398 . S
C1756 C1757 1.391 . S
C1757 H1745 0.950 . S
C1757 C1753 1.393 . S
C1757 C1756 1.391 . S
C1758 H1748 0.963 . S
C1758 C1759 1.381 1_554 S
C1758 C1760 1.383 1_554 S
C1759 C1758 1.381 1_556 S
C1759 C1763 1.393 . S
C1760 H1749 0.950 . S
C1760 C1758 1.383 1_556 S
C1760 C1761 1.400 . S
C1761 C1755 1.491 . S
C1761 C1760 1.400 . S
C1761 C1762 1.398 . S
C1762 H1750 0.950 . S
C1762 C1761 1.398 . S
C1762 C1763 1.391 . S
C1763 H1751 0.950 . S
C1763 C1759 1.393 . S
C1763 C1762 1.391 . S
H1764 C1772 0.950 . S
H1765 C1777 0.950 . S
H1766 C1774 0.950 . S
H1767 C1776 0.950 . S
H1768 C1778 0.950 . S
H1769 C1780 0.950 . S
H1770 C1782 0.950 . S
H1771 C1783 0.950 . S
C1772 H1764 0.950 . S
C1772 C1773 1.386 . S
C1772 C1774 1.391 . S
C1773 C1772 1.386 . S
C1773 C1777 1.393 . S
C1774 H1766 0.950 . S
C1774 C1772 1.391 . S
C1774 C1775 1.400 . S
C1775 C1774 1.400 . S
C1775 C1776 1.398 . S
C1775 C1781 1.491 . S
C1776 H1767 0.950 . S
C1776 C1775 1.398 . S
C1776 C1777 1.391 . S
C1777 H1765 0.950 . S
C1777 C1773 1.393 . S
C1777 C1776 1.391 . S
C1778 H1768 0.950 . S
C1778 C1779 1.386 . S
C1778 C1780 1.391 . S
C1779 C1778 1.386 . S
C1779 C1783 1.393 . S
C1780 H1769 0.950 . S
C1780 C1778 1.391 . S
C1780 C1781 1.400 . S
C1781 C1775 1.491 . S
C1781 C1780 1.400 . S
C1781 C1782 1.398 . S
C1782 H1770 0.950 . S
C1782 C1781 1.398 . S
C1782 C1783 1.391 . S
C1783 H1771 0.950 . S
C1783 C1779 1.393 . S
C1783 C1782 1.391 . S
H1784 C1792 0.950 . S
H1785 C1797 0.950 . S
H1786 C1794 0.950 . S
H1787 C1796 0.950 . S
H1788 C1798 0.950 1_655 S
H1789 C1800 0.950 1_655 S
H1790 C1802 0.950 . S
H1791 C1803 0.950 . S
C1792 H1784 0.950 . S
C1792 C1793 1.386 . S
C1792 C1794 1.391 . S
C1793 C1792 1.386 . S
C1793 C1797 1.393 1_455 S
C1794 H1786 0.950 . S
C1794 C1792 1.391 . S
C1794 C1795 1.400 . S
C1795 C1794 1.400 . S
C1795 C1796 1.398 1_455 S
C1795 C1801 1.491 . S
C1796 H1787 0.950 . S
C1796 C1795 1.398 1_655 S
C1796 C1797 1.391 . S
C1797 H1785 0.950 . S
C1797 C1793 1.393 1_655 S
C1797 C1796 1.391 . S
C1798 H1788 0.950 1_455 S
C1798 C1799 1.386 . S
C1798 C1800 1.391 . S
C1799 C1798 1.386 . S
C1799 C1803 1.393 . S
C1800 H1789 0.950 1_455 S
C1800 C1798 1.391 . S
C1800 C1801 1.400 . S
C1801 C1795 1.491 . S
C1801 C1800 1.400 . S
C1801 C1802 1.398 . S
C1802 H1790 0.950 . S
C1802 C1801 1.398 . S
C1802 C1803 1.391 . S
C1803 H1791 0.950 . S
C1803 C1799 1.393 . S
C1803 C1802 1.391 . S
H1804 C1812 0.950 . S
H1805 C1817 0.950 . S
H1806 C1814 0.950 . S
H1807 C1816 0.950 . S
H1808 C1818 0.950 . S
H1809 C1820 0.950 . S
H1810 C1822 0.950 . S
H1811 C1823 0.950 . S
C1812 H1804 0.950 . S
C1812 C1813 1.386 . S
C1812 C1814 1.391 . S
C1813 C1812 1.386 . S
C1813 C1817 1.393 . S
C1814 H1806 0.950 . S
C1814 C1812 1.391 . S
C1814 C1815 1.400 . S
C1815 C1814 1.400 . S
C1815 C1816 1.398 . S
C1815 C1821 1.491 . S
C1816 H1807 0.950 . S
C1816 C1815 1.398 . S
C1816 C1817 1.391 . S
C1817 H1805 0.950 . S
C1817 C1813 1.393 . S
C1817 C1816 1.391 . S
C1818 H1808 0.950 . S
C1818 C1819 1.386 . S
C1818 C1820 1.391 . S
C1819 C1818 1.386 . S
C1819 C1823 1.393 . S
C1820 H1809 0.950 . S
C1820 C1818 1.391 . S
C1820 C1821 1.400 . S
C1821 C1815 1.491 . S
C1821 C1820 1.400 . S
C1821 C1822 1.398 . S
C1822 H1810 0.950 . S
C1822 C1821 1.398 . S
C1822 C1823 1.391 . S
C1823 H1811 0.950 . S
C1823 C1819 1.393 . S
C1823 C1822 1.391 . S
H1824 C1832 0.950 . S
H1825 C1837 0.950 . S
H1826 C1834 0.950 . S
H1827 C1836 0.950 . S
H1828 C1838 0.950 . S
H1829 C1840 0.950 . S
H1830 C1842 0.950 . S
H1831 C1843 0.950 . S
C1832 H1824 0.950 . S
C1832 C1833 1.386 . S
C1832 C1834 1.391 . S
C1833 C1832 1.386 . S
C1833 C1837 1.393 . S
C1834 H1826 0.950 . S
C1834 C1832 1.391 . S
C1834 C1835 1.400 . S
C1835 C1834 1.400 . S
C1835 C1836 1.398 . S
C1835 C1841 1.491 . S
C1836 H1827 0.950 . S
C1836 C1835 1.398 . S
C1836 C1837 1.391 . S
C1837 H1825 0.950 . S
C1837 C1833 1.393 . S
C1837 C1836 1.391 . S
C1838 H1828 0.950 . S
C1838 C1839 1.386 . S
C1838 C1840 1.391 . S
C1839 C1838 1.386 . S
C1839 C1843 1.393 . S
C1840 H1829 0.950 . S
C1840 C1838 1.391 . S
C1840 C1841 1.400 . S
C1841 C1835 1.491 . S
C1841 C1840 1.400 . S
C1841 C1842 1.398 . S
C1842 H1830 0.950 . S
C1842 C1841 1.398 . S
C1842 C1843 1.391 . S
C1843 H1831 0.950 . S
C1843 C1839 1.393 . S
C1843 C1842 1.391 . S
H1844 C1852 0.950 . S
H1845 C1857 0.950 . S
H1846 C1854 0.950 . S
H1847 C1856 0.950 . S
H1848 C1858 0.950 . S
H1849 C1860 0.950 . S
H1850 C1862 0.950 . S
H1851 C1863 0.950 . S
C1852 H1844 0.950 . S
C1852 C1853 1.386 . S
C1852 C1854 1.391 . S
C1853 C1852 1.386 . S
C1853 C1857 1.393 . S
C1854 H1846 0.950 . S
C1854 C1852 1.391 . S
C1854 C1855 1.400 . S
C1855 C1854 1.400 . S
C1855 C1856 1.398 . S
C1855 C1861 1.491 . S
C1856 H1847 0.950 . S
C1856 C1855 1.398 . S
C1856 C1857 1.391 . S
C1857 H1845 0.950 . S
C1857 C1853 1.393 . S
C1857 C1856 1.391 . S
C1858 H1848 0.950 . S
C1858 C1859 1.386 . S
C1858 C1860 1.391 . S
C1859 C1858 1.386 . S
C1859 C1863 1.393 . S
C1860 H1849 0.950 . S
C1860 C1858 1.391 . S
C1860 C1861 1.400 . S
C1861 C1855 1.491 . S
C1861 C1860 1.400 . S
C1861 C1862 1.398 . S
C1862 H1850 0.950 . S
C1862 C1861 1.398 . S
C1862 C1863 1.391 . S
C1863 H1851 0.950 . S
C1863 C1859 1.393 . S
C1863 C1862 1.391 . S
H1864 C1872 0.950 . S
H1865 C1877 0.950 . S
H1866 C1874 0.950 . S
H1867 C1876 0.950 . S
H1868 C1878 0.950 . S
H1869 C1880 0.950 . S
H1870 C1882 0.950 . S
H1871 C1883 0.950 1_455 S
C1872 H1864 0.950 . S
C1872 C1873 1.386 . S
C1872 C1874 1.391 . S
C1873 C1872 1.386 . S
C1873 C1877 1.393 . S
C1874 H1866 0.950 . S
C1874 C1872 1.391 . S
C1874 C1875 1.400 . S
C1875 C1874 1.400 . S
C1875 C1876 1.398 . S
C1875 C1881 1.491 . S
C1876 H1867 0.950 . S
C1876 C1875 1.398 . S
C1876 C1877 1.391 . S
C1877 H1865 0.950 . S
C1877 C1873 1.393 . S
C1877 C1876 1.391 . S
C1878 H1868 0.950 . S
C1878 C1879 1.386 . S
C1878 C1880 1.391 . S
C1879 C1878 1.386 . S
C1879 C1883 1.393 . S
C1880 H1869 0.950 . S
C1880 C1878 1.391 . S
C1880 C1881 1.400 . S
C1881 C1875 1.491 . S
C1881 C1880 1.400 . S
C1881 C1882 1.398 . S
C1882 H1870 0.950 . S
C1882 C1881 1.398 . S
C1882 C1883 1.391 . S
C1883 H1871 0.950 1_655 S
C1883 C1879 1.393 . S
C1883 C1882 1.391 . S
H1884 C1892 0.950 . S
H1885 C1897 0.950 . S
H1886 C1894 0.950 . S
H1887 C1896 0.950 . S
H1888 C1898 0.950 . S
H1889 C1900 0.950 . S
H1890 C1902 0.950 . S
H1891 C1903 0.950 . S
C1892 H1884 0.950 . S
C1892 C1893 1.386 . S
C1892 C1894 1.391 . S
C1893 C1892 1.386 . S
C1893 C1897 1.393 . S
C1894 H1886 0.950 . S
C1894 C1892 1.391 . S
C1894 C1895 1.400 . S
C1895 C1894 1.400 . S
C1895 C1896 1.398 . S
C1895 C1901 1.491 . S
C1896 H1887 0.950 . S
C1896 C1895 1.398 . S
C1896 C1897 1.391 . S
C1897 H1885 0.950 . S
C1897 C1893 1.393 . S
C1897 C1896 1.391 . S
C1898 H1888 0.950 . S
C1898 C1899 1.386 . S
C1898 C1900 1.391 . S
C1899 C1898 1.386 . S
C1899 C1903 1.393 . S
C1900 H1889 0.950 . S
C1900 C1898 1.391 . S
C1900 C1901 1.400 . S
C1901 C1895 1.491 . S
C1901 C1900 1.400 . S
C1901 C1902 1.398 . S
C1902 H1890 0.950 . S
C1902 C1901 1.398 . S
C1902 C1903 1.391 . S
C1903 H1891 0.950 . S
C1903 C1899 1.393 . S
C1903 C1902 1.391 . S
H1904 C1912 0.950 . S
H1905 C1917 0.950 . S
H1906 C1914 0.950 . S
H1907 C1916 0.950 . S
H1908 C1918 0.950 . S
H1909 C1920 0.950 . S
H1910 C1922 0.950 . S
H1911 C1923 0.950 . S
C1912 H1904 0.950 . S
C1912 C1913 1.386 . S
C1912 C1914 1.391 . S
C1913 C1912 1.386 . S
C1913 C1917 1.393 . S
C1914 H1906 0.950 . S
C1914 C1912 1.391 . S
C1914 C1915 1.400 . S
C1915 C1914 1.400 . S
C1915 C1916 1.398 . S
C1915 C1921 1.491 . S
C1916 H1907 0.950 . S
C1916 C1915 1.398 . S
C1916 C1917 1.391 . S
C1917 H1905 0.950 . S
C1917 C1913 1.393 . S
C1917 C1916 1.391 . S
C1918 H1908 0.950 . S
C1918 C1919 1.386 . S
C1918 C1920 1.391 . S
C1919 C1918 1.386 . S
C1919 C1923 1.393 . S
C1920 H1909 0.950 . S
C1920 C1918 1.391 . S
C1920 C1921 1.400 . S
C1921 C1915 1.491 . S
C1921 C1920 1.400 . S
C1921 C1922 1.398 . S
C1922 H1910 0.950 . S
C1922 C1921 1.398 . S
C1922 C1923 1.391 . S
C1923 H1911 0.950 . S
C1923 C1919 1.393 . S
C1923 C1922 1.391 . S
H1924 C1932 0.950 . S
H1925 C1937 0.950 . S
H1926 C1934 0.950 . S
H1927 C1936 0.950 . S
H1928 C1938 0.950 . S
H1929 C1940 0.950 . S
H1930 C1942 0.950 . S
H1931 C1943 0.950 . S
C1932 H1924 0.950 . S
C1932 C1933 1.386 . S
C1932 C1934 1.391 . S
C1933 C1932 1.386 . S
C1933 C1937 1.393 . S
C1934 H1926 0.950 . S
C1934 C1932 1.391 . S
C1934 C1935 1.400 . S
C1935 C1934 1.400 . S
C1935 C1936 1.398 . S
C1935 C1941 1.491 . S
C1936 H1927 0.950 . S
C1936 C1935 1.398 . S
C1936 C1937 1.391 . S
C1937 H1925 0.950 . S
C1937 C1933 1.393 . S
C1937 C1936 1.391 . S
C1938 H1928 0.950 . S
C1938 C1939 1.386 . S
C1938 C1940 1.391 . S
C1939 C1938 1.386 . S
C1939 C1943 1.393 . S
C1940 H1929 0.950 . S
C1940 C1938 1.391 . S
C1940 C1941 1.400 . S
C1941 C1935 1.491 . S
C1941 C1940 1.400 . S
C1941 C1942 1.398 . S
C1942 H1930 0.950 . S
C1942 C1941 1.398 . S
C1942 C1943 1.391 . S
C1943 H1931 0.950 . S
C1943 C1939 1.393 . S
C1943 C1942 1.391 . S
H1944 C1952 0.950 . S
H1945 C1957 0.950 . S
H1946 C1954 0.950 . S
H1947 C1956 0.950 . S
H1948 C1958 0.950 . S
H1949 C1960 0.950 . S
H1950 C1962 0.950 . S
H1951 C1963 0.950 . S
C1952 H1944 0.950 . S
C1952 C1953 1.386 . S
C1952 C1954 1.391 . S
C1953 C1952 1.386 . S
C1953 C1957 1.393 . S
C1954 H1946 0.950 . S
C1954 C1952 1.391 . S
C1954 C1955 1.400 . S
C1955 C1954 1.400 . S
C1955 C1956 1.398 . S
C1955 C1961 1.491 . S
C1956 H1947 0.950 . S
C1956 C1955 1.398 . S
C1956 C1957 1.391 . S
C1957 H1945 0.950 . S
C1957 C1953 1.393 . S
C1957 C1956 1.391 . S
C1958 H1948 0.950 . S
C1958 C1959 1.386 . S
C1958 C1960 1.391 . S
C1959 C1958 1.386 . S
C1959 C1963 1.393 . S
C1960 H1949 0.950 . S
C1960 C1958 1.391 . S
C1960 C1961 1.400 . S
C1961 C1955 1.491 . S
C1961 C1960 1.400 . S
C1961 C1962 1.398 . S
C1962 H1950 0.950 . S
C1962 C1961 1.398 . S
C1962 C1963 1.391 . S
C1963 H1951 0.950 . S
C1963 C1959 1.393 . S
C1963 C1962 1.391 . S
H1964 C1972 0.950 . S
H1965 C1977 0.950 . S
H1966 C1974 0.950 . S
H1967 C1976 0.950 . S
H1968 C1978 0.950 . S
H1969 C1980 0.950 . S
H1970 C1982 0.950 . S
H1971 C1983 0.950 . S
C1972 H1964 0.950 . S
C1972 C1973 1.386 . S
C1972 C1974 1.391 . S
C1973 C1972 1.386 . S
C1973 C1977 1.393 . S
C1974 H1966 0.950 . S
C1974 C1972 1.391 . S
C1974 C1975 1.400 . S
C1975 C1974 1.400 . S
C1975 C1976 1.398 . S
C1975 C1981 1.491 . S
C1976 H1967 0.950 . S
C1976 C1975 1.398 . S
C1976 C1977 1.391 . S
C1977 H1965 0.950 . S
C1977 C1973 1.393 . S
C1977 C1976 1.391 . S
C1978 H1968 0.950 . S
C1978 C1979 1.386 . S
C1978 C1980 1.391 . S
C1979 C1978 1.386 . S
C1979 C1983 1.393 . S
C1980 H1969 0.950 . S
C1980 C1978 1.391 . S
C1980 C1981 1.400 . S
C1981 C1975 1.491 . S
C1981 C1980 1.400 . S
C1981 C1982 1.398 . S
C1982 H1970 0.950 . S
C1982 C1981 1.398 . S
C1982 C1983 1.391 . S
C1983 H1971 0.950 . S
C1983 C1979 1.393 . S
C1983 C1982 1.391 . S
H1984 C1992 0.950 . S
H1985 C1997 0.950 . S
H1986 C1994 0.950 . S
H1987 C1996 0.950 . S
H1988 C1998 0.950 . S
H1989 C2000 0.950 . S
H1990 C2002 0.950 . S
H1991 C2003 0.950 . S
C1992 H1984 0.950 . S
C1992 C1993 1.386 . S
C1992 C1994 1.391 . S
C1993 C1992 1.386 . S
C1993 C1997 1.393 . S
C1994 H1986 0.950 . S
C1994 C1992 1.391 . S
C1994 C1995 1.400 . S
C1995 C1994 1.400 . S
C1995 C1996 1.398 . S
C1995 C2001 1.491 . S
C1996 H1987 0.950 . S
C1996 C1995 1.398 . S
C1996 C1997 1.391 . S
C1997 H1985 0.950 . S
C1997 C1993 1.393 . S
C1997 C1996 1.391 . S
C1998 H1988 0.950 . S
C1998 C1999 1.386 . S
C1998 C2000 1.391 . S
C1999 C1998 1.386 . S
C1999 C2003 1.393 . S
C2000 H1989 0.950 . S
C2000 C1998 1.391 . S
C2000 C2001 1.400 . S
C2001 C1995 1.491 . S
C2001 C2000 1.400 . S
C2001 C2002 1.398 . S
C2002 H1990 0.950 . S
C2002 C2001 1.398 . S
C2002 C2003 1.391 . S
C2003 H1991 0.950 . S
C2003 C1999 1.393 . S
C2003 C2002 1.391 . S
H2004 C2012 0.950 . S
H2005 C2017 0.950 . S
H2006 C2014 0.950 . S
H2007 C2016 0.950 . S
H2008 C2018 0.940 1_545 S
H2009 C2020 0.950 . S
H2010 C2022 0.950 . S
H2011 C2023 0.950 . S
C2012 H2004 0.950 . S
C2012 C2013 1.386 . S
C2012 C2014 1.391 . S
C2013 C2012 1.386 . S
C2013 C2017 1.393 . S
C2014 H2006 0.950 . S
C2014 C2012 1.391 . S
C2014 C2015 1.400 . S
C2015 C2014 1.400 . S
C2015 C2016 1.398 . S
C2015 C2021 1.491 . S
C2016 H2007 0.950 . S
C2016 C2015 1.398 . S
C2016 C2017 1.391 . S
C2017 H2005 0.950 . S
C2017 C2013 1.393 . S
C2017 C2016 1.391 . S
C2018 H2008 0.940 1_565 S
C2018 C2019 1.391 . S
C2018 C2020 1.396 . S
C2019 C2018 1.391 . S
C2019 C2023 1.393 . S
C2020 H2009 0.950 . S
C2020 C2018 1.396 . S
C2020 C2021 1.400 . S
C2021 C2015 1.491 . S
C2021 C2020 1.400 . S
C2021 C2022 1.398 . S
C2022 H2010 0.950 . S
C2022 C2021 1.398 . S
C2022 C2023 1.391 . S
C2023 H2011 0.950 . S
C2023 C2019 1.393 . S
C2023 C2022 1.391 . S
H2024 C2032 0.950 . S
H2025 C2037 0.950 . S
H2026 C2034 0.950 . S
H2027 C2036 0.950 . S
H2028 C2038 0.950 . S
H2029 C2040 0.950 . S
H2030 C2042 0.950 . S
H2031 C2043 0.950 . S
C2032 H2024 0.950 . S
C2032 C2033 1.386 . S
C2032 C2034 1.391 . S
C2033 C2032 1.386 . S
C2033 C2037 1.393 . S
C2034 H2026 0.950 . S
C2034 C2032 1.391 . S
C2034 C2035 1.400 . S
C2035 C2034 1.400 . S
C2035 C2036 1.398 . S
C2035 C2041 1.491 . S
C2036 H2027 0.950 . S
C2036 C2035 1.398 . S
C2036 C2037 1.391 . S
C2037 H2025 0.950 . S
C2037 C2033 1.393 . S
C2037 C2036 1.391 . S
C2038 H2028 0.950 . S
C2038 C2039 1.386 . S
C2038 C2040 1.391 . S
C2039 C2038 1.386 . S
C2039 C2043 1.393 . S
C2040 H2029 0.950 . S
C2040 C2038 1.391 . S
C2040 C2041 1.400 . S
C2041 C2035 1.491 . S
C2041 C2040 1.400 . S
C2041 C2042 1.398 . S
C2042 H2030 0.950 . S
C2042 C2041 1.398 . S
C2042 C2043 1.391 . S
C2043 H2031 0.950 . S
C2043 C2039 1.393 . S
C2043 C2042 1.391 . S
H2044 C2052 0.950 . S
H2045 C2057 0.950 . S
H2046 C2054 0.950 . S
H2047 C2056 0.950 . S
H2048 C2058 0.950 1_565 S
H2049 C2060 0.950 . S
H2050 C2062 0.950 . S
H2051 C2063 0.950 . S
C2052 H2044 0.950 . S
C2052 C2053 1.386 . S
C2052 C2054 1.391 . S
C2053 C2052 1.386 . S
C2053 C2057 1.393 . S
C2054 H2046 0.950 . S
C2054 C2052 1.391 . S
C2054 C2055 1.400 . S
C2055 C2054 1.400 . S
C2055 C2056 1.398 . S
C2055 C2061 1.491 . S
C2056 H2047 0.950 . S
C2056 C2055 1.398 . S
C2056 C2057 1.391 . S
C2057 H2045 0.950 . S
C2057 C2053 1.393 . S
C2057 C2056 1.391 . S
C2058 H2048 0.950 1_545 S
C2058 C2059 1.386 . S
C2058 C2060 1.391 . S
C2059 C2058 1.386 . S
C2059 C2063 1.393 . S
C2060 H2049 0.950 . S
C2060 C2058 1.391 . S
C2060 C2061 1.400 . S
C2061 C2055 1.491 . S
C2061 C2060 1.400 . S
C2061 C2062 1.398 . S
C2062 H2050 0.950 . S
C2062 C2061 1.398 . S
C2062 C2063 1.391 . S
C2063 H2051 0.950 . S
C2063 C2059 1.393 . S
C2063 C2062 1.391 . S
H2064 C2072 0.950 . S
H2065 C2077 0.950 . S
H2066 C2074 0.950 . S
H2067 C2076 0.950 . S
H2068 C2078 0.950 . S
H2069 C2080 0.950 . S
H2070 C2082 0.950 . S
H2071 C2083 0.950 . S
C2072 H2064 0.950 . S
C2072 C2073 1.386 . S
C2072 C2074 1.391 . S
C2073 C2072 1.386 . S
C2073 C2077 1.393 . S
C2074 H2066 0.950 . S
C2074 C2072 1.391 . S
C2074 C2075 1.400 . S
C2075 C2074 1.400 . S
C2075 C2076 1.398 . S
C2075 C2081 1.491 . S
C2076 H2067 0.950 . S
C2076 C2075 1.398 . S
C2076 C2077 1.391 . S
C2077 H2065 0.950 . S
C2077 C2073 1.393 . S
C2077 C2076 1.391 . S
C2078 H2068 0.950 . S
C2078 C2079 1.386 . S
C2078 C2080 1.391 . S
C2079 C2078 1.386 . S
C2079 C2083 1.393 . S
C2080 H2069 0.950 . S
C2080 C2078 1.391 . S
C2080 C2081 1.400 . S
C2081 C2075 1.491 . S
C2081 C2080 1.400 . S
C2081 C2082 1.398 . S
C2082 H2070 0.950 . S
C2082 C2081 1.398 . S
C2082 C2083 1.391 . S
C2083 H2071 0.950 . S
C2083 C2079 1.393 . S
C2083 C2082 1.391 . S
H2084 C2092 0.950 . S
H2085 C2097 0.950 . S
H2086 C2094 0.950 . S
H2087 C2096 0.950 . S
H2088 C2098 0.950 . S
H2089 C2100 0.950 . S
H2090 C2102 0.950 . S
H2091 C2103 0.950 . S
C2092 H2084 0.950 . S
C2092 C2093 1.386 . S
C2092 C2094 1.391 . S
C2093 C2092 1.386 . S
C2093 C2097 1.393 1_554 S
C2094 H2086 0.950 . S
C2094 C2092 1.391 . S
C2094 C2095 1.400 . S
C2095 C2094 1.400 . S
C2095 C2096 1.398 1_554 S
C2095 C2101 1.495 . S
C2096 H2087 0.950 . S
C2096 C2095 1.398 1_556 S
C2096 C2097 1.391 . S
C2097 H2085 0.950 . S
C2097 C2093 1.393 1_556 S
C2097 C2096 1.391 . S
C2098 H2088 0.950 . S
C2098 C2099 1.386 . S
C2098 C2100 1.391 . S
C2099 C2098 1.386 . S
C2099 C2103 1.393 1_556 S
C2100 H2089 0.950 . S
C2100 C2098 1.391 . S
C2100 C2101 1.373 1_556 S
C2101 C2095 1.495 . S
C2101 C2100 1.373 1_554 S
C2101 C2102 1.421 . S
C2102 H2090 0.950 . S
C2102 C2101 1.421 . S
C2102 C2103 1.391 . S
C2103 H2091 0.950 . S
C2103 C2099 1.393 1_554 S
C2103 C2102 1.391 . S
H2104 C2112 0.950 . S
H2105 C2117 0.950 . S
H2106 C2114 0.950 . S
H2107 C2116 0.950 . S
H2108 C2118 0.950 . S
H2109 C2120 0.950 . S
H2110 C2122 0.950 . S
H2111 C2123 0.950 . S
C2112 H2104 0.950 . S
C2112 C2113 1.386 . S
C2112 C2114 1.391 . S
C2113 C2112 1.386 . S
C2113 C2117 1.393 . S
C2114 H2106 0.950 . S
C2114 C2112 1.391 . S
C2114 C2115 1.400 . S
C2115 C2114 1.400 . S
C2115 C2116 1.398 . S
C2115 C2121 1.491 . S
C2116 H2107 0.950 . S
C2116 C2115 1.398 . S
C2116 C2117 1.391 . S
C2117 H2105 0.950 . S
C2117 C2113 1.393 . S
C2117 C2116 1.391 . S
C2118 H2108 0.950 . S
C2118 C2119 1.386 . S
C2118 C2120 1.391 . S
C2119 C2118 1.386 . S
C2119 C2123 1.393 . S
C2120 H2109 0.950 . S
C2120 C2118 1.391 . S
C2120 C2121 1.400 . S
C2121 C2115 1.491 . S
C2121 C2120 1.400 . S
C2121 C2122 1.398 . S
C2122 H2110 0.950 . S
C2122 C2121 1.398 . S
C2122 C2123 1.391 . S
C2123 H2111 0.950 . S
C2123 C2119 1.393 . S
C2123 C2122 1.391 . S
H2124 C2132 0.950 . S
H2125 C2137 0.950 . S
H2126 C2134 0.950 . S
H2127 C2136 0.950 . S
H2128 C2138 0.950 . S
H2129 C2140 0.950 . S
H2130 C2142 0.950 . S
H2131 C2143 0.950 . S
C2132 H2124 0.950 . S
C2132 C2133 1.386 . S
C2132 C2134 1.391 . S
C2133 C2132 1.386 . S
C2133 C2137 1.393 . S
C2134 H2126 0.950 . S
C2134 C2132 1.391 . S
C2134 C2135 1.400 . S
C2135 C2134 1.400 . S
C2135 C2136 1.398 . S
C2135 C2141 1.491 . S
C2136 H2127 0.950 . S
C2136 C2135 1.398 . S
C2136 C2137 1.391 . S
C2137 H2125 0.950 . S
C2137 C2133 1.393 . S
C2137 C2136 1.391 . S
C2138 H2128 0.950 . S
C2138 C2139 1.386 . S
C2138 C2140 1.391 . S
C2139 C2138 1.386 . S
C2139 C2143 1.393 . S
C2140 H2129 0.950 . S
C2140 C2138 1.391 . S
C2140 C2141 1.400 . S
C2141 C2135 1.491 . S
C2141 C2140 1.400 . S
C2141 C2142 1.398 . S
C2142 H2130 0.950 . S
C2142 C2141 1.398 . S
C2142 C2143 1.391 . S
C2143 H2131 0.950 . S
C2143 C2139 1.393 . S
C2143 C2142 1.391 . S
H2144 C2152 0.950 . S
H2145 C2157 0.950 . S
H2146 C2154 0.950 . S
H2147 C2156 0.950 . S
H2148 C2158 0.950 . S
H2149 C2160 0.950 . S
H2150 C2162 0.950 . S
H2151 C2163 0.950 . S
C2152 H2144 0.950 . S
C2152 C2153 1.386 . S
C2152 C2154 1.391 . S
C2153 C2152 1.386 . S
C2153 C2157 1.393 . S
C2154 H2146 0.950 . S
C2154 C2152 1.391 . S
C2154 C2155 1.400 . S
C2155 C2154 1.400 . S
C2155 C2156 1.398 . S
C2155 C2161 1.491 . S
C2156 H2147 0.950 . S
C2156 C2155 1.398 . S
C2156 C2157 1.391 . S
C2157 H2145 0.950 . S
C2157 C2153 1.393 . S
C2157 C2156 1.391 . S
C2158 H2148 0.950 . S
C2158 C2159 1.386 . S
C2158 C2160 1.391 . S
C2159 C2158 1.386 . S
C2159 C2163 1.393 . S
C2160 H2149 0.950 . S
C2160 C2158 1.391 . S
C2160 C2161 1.400 . S
C2161 C2155 1.491 . S
C2161 C2160 1.400 . S
C2161 C2162 1.398 . S
C2162 H2150 0.950 . S
C2162 C2161 1.398 . S
C2162 C2163 1.391 . S
C2163 H2151 0.950 . S
C2163 C2159 1.393 . S
C2163 C2162 1.391 . S
H2164 C2172 0.950 . S
H2165 C2177 0.950 . S
H2166 C2174 0.950 . S
H2167 C2176 0.950 . S
H2168 C2178 0.950 . S
H2169 C2180 0.950 . S
H2170 C2182 0.950 . S
H2171 C2183 0.950 . S
C2172 H2164 0.950 . S
C2172 C2173 1.386 . S
C2172 C2174 1.391 . S
C2173 C2172 1.386 . S
C2173 C2177 1.393 . S
C2174 H2166 0.950 . S
C2174 C2172 1.391 . S
C2174 C2175 1.400 . S
C2175 C2174 1.400 . S
C2175 C2176 1.398 . S
C2175 C2181 1.491 . S
C2176 H2167 0.950 . S
C2176 C2175 1.398 . S
C2176 C2177 1.391 . S
C2177 H2165 0.950 . S
C2177 C2173 1.393 . S
C2177 C2176 1.391 . S
C2178 H2168 0.950 . S
C2178 C2179 1.386 . S
C2178 C2180 1.391 . S
C2179 C2178 1.386 . S
C2179 C2183 1.393 . S
C2180 H2169 0.950 . S
C2180 C2178 1.391 . S
C2180 C2181 1.400 . S
C2181 C2175 1.491 . S
C2181 C2180 1.400 . S
C2181 C2182 1.398 . S
C2182 H2170 0.950 . S
C2182 C2181 1.398 . S
C2182 C2183 1.391 . S
C2183 H2171 0.950 . S
C2183 C2179 1.393 . S
C2183 C2182 1.391 . S
H2184 C2192 0.950 . S
H2185 C2197 0.950 . S
H2186 C2194 0.950 . S
H2187 C2196 0.950 . S
H2188 C2198 0.950 . S
H2189 C2200 0.950 . S
H2190 C2202 0.950 . S
H2191 C2203 0.950 1_554 S
C2192 H2184 0.950 . S
C2192 C2193 1.386 . S
C2192 C2194 1.391 . S
C2193 C2192 1.386 . S
C2193 C2197 1.393 1_455 S
C2194 H2186 0.950 . S
C2194 C2192 1.391 . S
C2194 C2195 1.400 . S
C2195 C2194 1.400 . S
C2195 C2196 1.398 1_455 S
C2195 C2201 1.491 . S
C2196 H2187 0.950 . S
C2196 C2195 1.398 1_655 S
C2196 C2197 1.391 . S
C2197 H2185 0.950 . S
C2197 C2193 1.393 1_655 S
C2197 C2196 1.391 . S
C2198 H2188 0.950 . S
C2198 C2199 1.386 . S
C2198 C2200 1.391 . S
C2199 C2198 1.386 . S
C2199 C2203 1.393 1_655 S
C2200 H2189 0.950 . S
C2200 C2198 1.391 . S
C2200 C2201 1.400 1_655 S
C2201 C2195 1.491 . S
C2201 C2200 1.400 1_455 S
C2201 C2202 1.398 . S
C2202 H2190 0.950 . S
C2202 C2201 1.398 . S
C2202 C2203 1.391 . S
C2203 H2191 0.950 1_556 S
C2203 C2199 1.393 1_455 S
C2203 C2202 1.391 . S
H2204 C2212 0.950 . S
H2205 C2217 0.950 . S
H2206 C2214 0.950 . S
H2207 C2216 0.950 . S
H2208 C2218 0.950 . S
H2209 C2220 0.950 . S
H2210 C2222 0.950 . S
H2211 C2223 0.950 . S
C2212 H2204 0.950 . S
C2212 C2213 1.386 . S
C2212 C2214 1.391 . S
C2213 C2212 1.386 . S
C2213 C2217 1.393 . S
C2214 H2206 0.950 . S
C2214 C2212 1.391 . S
C2214 C2215 1.400 . S
C2215 C2214 1.400 . S
C2215 C2216 1.398 . S
C2215 C2221 1.491 . S
C2216 H2207 0.950 . S
C2216 C2215 1.398 . S
C2216 C2217 1.391 . S
C2217 H2205 0.950 . S
C2217 C2213 1.393 . S
C2217 C2216 1.391 . S
C2218 H2208 0.950 . S
C2218 C2219 1.386 . S
C2218 C2220 1.391 . S
C2219 C2218 1.386 . S
C2219 C2223 1.393 . S
C2220 H2209 0.950 . S
C2220 C2218 1.391 . S
C2220 C2221 1.400 . S
C2221 C2215 1.491 . S
C2221 C2220 1.400 . S
C2221 C2222 1.398 . S
C2222 H2210 0.950 . S
C2222 C2221 1.398 . S
C2222 C2223 1.391 . S
C2223 H2211 0.950 . S
C2223 C2219 1.393 . S
C2223 C2222 1.391 . S
H2224 C2232 0.950 . S
H2225 C2237 0.950 . S
H2226 C2234 0.950 . S
H2227 C2236 0.950 . S
H2228 C2238 0.950 . S
H2229 C2240 0.950 . S
H2230 C2242 0.950 . S
H2231 C2243 0.950 . S
C2232 H2224 0.950 . S
C2232 C2233 1.386 . S
C2232 C2234 1.391 . S
C2233 C2232 1.386 . S
C2233 C2237 1.393 . S
C2234 H2226 0.950 . S
C2234 C2232 1.391 . S
C2234 C2235 1.400 . S
C2235 C2234 1.400 . S
C2235 C2236 1.398 . S
C2235 C2241 1.491 . S
C2236 H2227 0.950 . S
C2236 C2235 1.398 . S
C2236 C2237 1.391 . S
C2237 H2225 0.950 . S
C2237 C2233 1.393 . S
C2237 C2236 1.391 . S
C2238 H2228 0.950 . S
C2238 C2239 1.386 . S
C2238 C2240 1.391 . S
C2239 C2238 1.386 . S
C2239 C2243 1.393 . S
C2240 H2229 0.950 . S
C2240 C2238 1.391 . S
C2240 C2241 1.400 . S
C2241 C2235 1.491 . S
C2241 C2240 1.400 . S
C2241 C2242 1.398 . S
C2242 H2230 0.950 . S
C2242 C2241 1.398 . S
C2242 C2243 1.391 . S
C2243 H2231 0.950 . S
C2243 C2239 1.393 . S
C2243 C2242 1.391 . S
H2244 C2252 0.950 . S
H2245 C2257 0.950 . S
H2246 C2254 0.950 . S
H2247 C2256 0.950 . S
H2248 C2258 0.950 . S
H2249 C2260 0.950 . S
H2250 C2262 0.950 . S
H2251 C2263 0.950 . S
C2252 H2244 0.950 . S
C2252 C2253 1.386 . S
C2252 C2254 1.391 . S
C2253 C2252 1.386 . S
C2253 C2257 1.393 . S
C2254 H2246 0.950 . S
C2254 C2252 1.391 . S
C2254 C2255 1.400 . S
C2255 C2254 1.400 . S
C2255 C2256 1.398 . S
C2255 C2261 1.491 . S
C2256 H2247 0.950 . S
C2256 C2255 1.398 . S
C2256 C2257 1.391 . S
C2257 H2245 0.950 . S
C2257 C2253 1.393 . S
C2257 C2256 1.391 . S
C2258 H2248 0.950 . S
C2258 C2259 1.386 . S
C2258 C2260 1.391 . S
C2259 C2258 1.386 . S
C2259 C2263 1.393 . S
C2260 H2249 0.950 . S
C2260 C2258 1.391 . S
C2260 C2261 1.400 . S
C2261 C2255 1.491 . S
C2261 C2260 1.400 . S
C2261 C2262 1.398 . S
C2262 H2250 0.950 . S
C2262 C2261 1.398 . S
C2262 C2263 1.391 . S
C2263 H2251 0.950 . S
C2263 C2259 1.393 . S
C2263 C2262 1.391 . S
H2264 C2272 0.950 . S
H2265 C2277 0.950 . S
H2266 C2274 0.950 . S
H2267 C2276 0.950 . S
H2268 C2278 0.950 . S
H2269 C2280 0.950 . S
H2270 C2282 0.950 . S
H2271 C2283 0.950 . S
C2272 H2264 0.950 . S
C2272 C2273 1.386 1_655 S
C2272 C2274 1.391 . S
C2273 C2272 1.386 1_455 S
C2273 C2277 1.393 . S
C2274 H2266 0.950 . S
C2274 C2272 1.391 . S
C2274 C2275 1.400 1_655 S
C2275 C2274 1.400 1_455 S
C2275 C2276 1.398 . S
C2275 C2281 1.491 1_455 S
C2276 H2267 0.950 . S
C2276 C2275 1.398 . S
C2276 C2277 1.391 . S
C2277 H2265 0.950 . S
C2277 C2273 1.393 . S
C2277 C2276 1.391 . S
C2278 H2268 0.950 . S
C2278 C2279 1.386 1_455 S
C2278 C2280 1.391 . S
C2279 C2278 1.386 1_655 S
C2279 C2283 1.393 . S
C2280 H2269 0.950 . S
C2280 C2278 1.391 . S
C2280 C2281 1.400 1_455 S
C2281 C2275 1.491 1_655 S
C2281 C2280 1.400 1_655 S
C2281 C2282 1.398 . S
C2282 H2270 0.950 . S
C2282 C2281 1.398 . S
C2282 C2283 1.391 . S
C2283 H2271 0.950 . S
C2283 C2279 1.393 . S
C2283 C2282 1.391 . S
H2284 C2292 0.950 . S
H2285 C2297 0.950 . S
H2286 C2294 0.950 . S
H2287 C2296 0.950 . S
H2288 C2298 0.950 . S
H2289 C2300 0.950 . S
H2290 C2302 0.950 . S
H2291 C2303 0.950 . S
C2292 H2284 0.950 . S
C2292 C2293 1.386 . S
C2292 C2294 1.391 . S
C2293 C2292 1.386 . S
C2293 C2297 1.393 . S
C2294 H2286 0.950 . S
C2294 C2292 1.391 . S
C2294 C2295 1.400 . S
C2295 C2294 1.400 . S
C2295 C2296 1.398 . S
C2295 C2301 1.491 . S
C2296 H2287 0.950 . S
C2296 C2295 1.398 . S
C2296 C2297 1.391 . S
C2297 H2285 0.950 . S
C2297 C2293 1.393 . S
C2297 C2296 1.391 . S
C2298 H2288 0.950 . S
C2298 C2299 1.386 . S
C2298 C2300 1.391 . S
C2299 C2298 1.386 . S
C2299 C2303 1.393 . S
C2300 H2289 0.950 . S
C2300 C2298 1.391 . S
C2300 C2301 1.400 . S
C2301 C2295 1.491 . S
C2301 C2300 1.400 . S
C2301 C2302 1.398 . S
C2302 H2290 0.950 . S
C2302 C2301 1.398 . S
C2302 C2303 1.391 . S
C2303 H2291 0.950 . S
C2303 C2299 1.393 . S
C2303 C2302 1.391 . S
H2304 C2312 0.950 . S
H2305 C2317 0.950 . S
H2306 C2314 0.950 . S
H2307 C2316 0.950 . S
H2308 C2318 0.950 . S
H2309 C2320 0.950 . S
H2310 C2322 0.950 . S
H2311 C2323 0.950 . S
C2312 H2304 0.950 . S
C2312 C2313 1.386 . S
C2312 C2314 1.391 . S
C2313 C2312 1.386 . S
C2313 C2317 1.393 . S
C2314 H2306 0.950 . S
C2314 C2312 1.391 . S
C2314 C2315 1.400 . S
C2315 C2314 1.400 . S
C2315 C2316 1.398 . S
C2315 C2321 1.491 . S
C2316 H2307 0.950 . S
C2316 C2315 1.398 . S
C2316 C2317 1.391 . S
C2317 H2305 0.950 . S
C2317 C2313 1.393 . S
C2317 C2316 1.391 . S
C2318 H2308 0.950 . S
C2318 C2319 1.386 . S
C2318 C2320 1.391 . S
C2319 C2318 1.386 . S
C2319 C2323 1.393 . S
C2320 H2309 0.950 . S
C2320 C2318 1.391 . S
C2320 C2321 1.400 . S
C2321 C2315 1.491 . S
C2321 C2320 1.400 . S
C2321 C2322 1.398 . S
C2322 H2310 0.950 . S
C2322 C2321 1.398 . S
C2322 C2323 1.391 . S
C2323 H2311 0.950 . S
C2323 C2319 1.393 . S
C2323 C2322 1.391 . S
H2324 C2332 0.950 . S
H2325 C2337 0.950 . S
H2326 C2334 0.950 . S
H2327 C2336 0.950 . S
H2328 C2338 0.950 . S
H2329 C2340 0.950 . S
H2330 C2342 0.950 . S
H2331 C2343 0.950 . S
C2332 H2324 0.950 . S
C2332 C2333 1.386 . S
C2332 C2334 1.391 . S
C2333 C2332 1.386 . S
C2333 C2337 1.393 . S
C2334 H2326 0.950 . S
C2334 C2332 1.391 . S
C2334 C2335 1.400 . S
C2335 C2334 1.400 . S
C2335 C2336 1.398 . S
C2335 C2341 1.491 . S
C2336 H2327 0.950 . S
C2336 C2335 1.398 . S
C2336 C2337 1.391 . S
C2337 H2325 0.950 . S
C2337 C2333 1.393 . S
C2337 C2336 1.391 . S
C2338 H2328 0.950 . S
C2338 C2339 1.386 . S
C2338 C2340 1.391 . S
C2339 C2338 1.386 . S
C2339 C2343 1.393 . S
C2340 H2329 0.950 . S
C2340 C2338 1.391 . S
C2340 C2341 1.400 . S
C2341 C2335 1.491 . S
C2341 C2340 1.400 . S
C2341 C2342 1.398 . S
C2342 H2330 0.950 . S
C2342 C2341 1.398 . S
C2342 C2343 1.391 . S
C2343 H2331 0.950 . S
C2343 C2339 1.393 . S
C2343 C2342 1.391 . S
H2344 C2352 0.950 . S
H2345 C2357 0.950 . S
H2346 C2354 0.950 . S
H2347 C2356 0.950 . S
H2348 C2358 0.950 . S
H2349 C2360 0.950 . S
H2350 C2362 0.950 . S
H2351 C2363 0.950 . S
C2352 H2344 0.950 . S
C2352 C2353 1.386 . S
C2352 C2354 1.391 . S
C2353 C2352 1.386 . S
C2353 C2357 1.393 . S
C2354 H2346 0.950 . S
C2354 C2352 1.391 . S
C2354 C2355 1.400 . S
C2355 C2354 1.400 . S
C2355 C2356 1.398 . S
C2355 C2361 1.491 . S
C2356 H2347 0.950 . S
C2356 C2355 1.398 . S
C2356 C2357 1.391 . S
C2357 H2345 0.950 . S
C2357 C2353 1.393 . S
C2357 C2356 1.391 . S
C2358 H2348 0.950 . S
C2358 C2359 1.386 . S
C2358 C2360 1.391 . S
C2359 C2358 1.386 . S
C2359 C2363 1.393 . S
C2360 H2349 0.950 . S
C2360 C2358 1.391 . S
C2360 C2361 1.400 . S
C2361 C2355 1.491 . S
C2361 C2360 1.400 . S
C2361 C2362 1.398 . S
C2362 H2350 0.950 . S
C2362 C2361 1.398 . S
C2362 C2363 1.391 . S
C2363 H2351 0.950 . S
C2363 C2359 1.393 . S
C2363 C2362 1.391 . S
H2364 C2372 0.950 . S
H2365 C2377 0.950 . S
H2366 C2374 0.950 . S
H2367 C2376 0.950 . S
H2368 C2378 0.950 . S
H2369 C2380 0.950 . S
H2370 C2382 0.950 . S
H2371 C2383 0.950 . S
C2372 H2364 0.950 . S
C2372 C2373 1.386 . S
C2372 C2374 1.391 . S
C2373 C2372 1.386 . S
C2373 C2377 1.393 . S
C2374 H2366 0.950 . S
C2374 C2372 1.391 . S
C2374 C2375 1.400 . S
C2375 C2374 1.400 . S
C2375 C2376 1.398 . S
C2375 C2381 1.491 . S
C2376 H2367 0.950 . S
C2376 C2375 1.398 . S
C2376 C2377 1.391 . S
C2377 H2365 0.950 . S
C2377 C2373 1.393 . S
C2377 C2376 1.391 . S
C2378 H2368 0.950 . S
C2378 C2379 1.386 . S
C2378 C2380 1.391 . S
C2379 C2378 1.386 . S
C2379 C2383 1.393 . S
C2380 H2369 0.950 . S
C2380 C2378 1.391 . S
C2380 C2381 1.400 . S
C2381 C2375 1.491 . S
C2381 C2380 1.400 . S
C2381 C2382 1.398 . S
C2382 H2370 0.950 . S
C2382 C2381 1.398 . S
C2382 C2383 1.391 . S
C2383 H2371 0.950 . S
C2383 C2379 1.393 . S
C2383 C2382 1.391 . S
H2384 C2392 0.950 . S
H2385 C2397 0.950 . S
H2386 C2394 0.950 . S
H2387 C2396 0.950 . S
H2388 C2398 0.950 . S
H2389 C2400 0.950 . S
H2390 C2402 0.950 . S
H2391 C2403 0.950 . S
C2392 H2384 0.950 . S
C2392 C2393 1.386 . S
C2392 C2394 1.391 . S
C2393 C2392 1.386 . S
C2393 C2397 1.393 . S
C2394 H2386 0.950 . S
C2394 C2392 1.391 . S
C2394 C2395 1.400 . S
C2395 C2394 1.400 . S
C2395 C2396 1.398 . S
C2395 C2401 1.491 . S
C2396 H2387 0.950 . S
C2396 C2395 1.398 . S
C2396 C2397 1.391 . S
C2397 H2385 0.950 . S
C2397 C2393 1.393 . S
C2397 C2396 1.391 . S
C2398 H2388 0.950 . S
C2398 C2399 1.386 . S
C2398 C2400 1.391 . S
C2399 C2398 1.386 . S
C2399 C2403 1.393 . S
C2400 H2389 0.950 . S
C2400 C2398 1.391 . S
C2400 C2401 1.400 . S
C2401 C2395 1.491 . S
C2401 C2400 1.400 . S
C2401 C2402 1.398 . S
C2402 H2390 0.950 . S
C2402 C2401 1.398 . S
C2402 C2403 1.391 . S
C2403 H2391 0.950 . S
C2403 C2399 1.393 . S
C2403 C2402 1.391 . S
H2404 C2412 0.950 . S
H2405 C2417 0.950 . S
H2406 C2414 0.950 . S
H2407 C2416 0.950 . S
H2408 C2418 0.950 . S
H2409 C2420 0.950 . S
H2410 C2422 0.950 . S
H2411 C2423 0.950 . S
C2412 H2404 0.950 . S
C2412 C2413 1.386 . S
C2412 C2414 1.391 . S
C2413 C2412 1.386 . S
C2413 C2417 1.393 . S
C2414 H2406 0.950 . S
C2414 C2412 1.391 . S
C2414 C2415 1.400 . S
C2415 C2414 1.400 . S
C2415 C2416 1.398 . S
C2415 C2421 1.491 . S
C2416 H2407 0.950 . S
C2416 C2415 1.398 . S
C2416 C2417 1.391 . S
C2417 H2405 0.950 . S
C2417 C2413 1.393 . S
C2417 C2416 1.391 . S
C2418 H2408 0.950 . S
C2418 C2419 1.386 . S
C2418 C2420 1.391 . S
C2419 C2418 1.386 . S
C2419 C2423 1.393 . S
C2420 H2409 0.950 . S
C2420 C2418 1.391 . S
C2420 C2421 1.400 . S
C2421 C2415 1.491 . S
C2421 C2420 1.400 . S
C2421 C2422 1.398 . S
C2422 H2410 0.950 . S
C2422 C2421 1.398 . S
C2422 C2423 1.391 . S
C2423 H2411 0.950 . S
C2423 C2419 1.393 . S
C2423 C2422 1.391 . S
H2424 C2432 0.950 . S
H2425 C2437 0.950 . S
H2426 C2434 0.950 . S
H2427 C2436 0.950 . S
H2428 C2438 0.950 . S
H2429 C2440 0.950 . S
H2430 C2442 0.950 . S
H2431 C2443 0.950 . S
C2432 H2424 0.950 . S
C2432 C2433 1.386 . S
C2432 C2434 1.391 . S
C2433 C2432 1.386 . S
C2433 C2437 1.393 . S
C2434 H2426 0.950 . S
C2434 C2432 1.391 . S
C2434 C2435 1.400 . S
C2435 C2434 1.400 . S
C2435 C2436 1.398 . S
C2435 C2441 1.491 . S
C2436 H2427 0.950 . S
C2436 C2435 1.398 . S
C2436 C2437 1.391 . S
C2437 H2425 0.950 . S
C2437 C2433 1.393 . S
C2437 C2436 1.391 . S
C2438 H2428 0.950 . S
C2438 C2439 1.386 . S
C2438 C2440 1.391 . S
C2439 C2438 1.386 . S
C2439 C2443 1.393 . S
C2440 H2429 0.950 . S
C2440 C2438 1.391 . S
C2440 C2441 1.400 . S
C2441 C2435 1.491 . S
C2441 C2440 1.400 . S
C2441 C2442 1.398 . S
C2442 H2430 0.950 . S
C2442 C2441 1.398 . S
C2442 C2443 1.391 . S
C2443 H2431 0.950 . S
C2443 C2439 1.393 . S
C2443 C2442 1.391 . S
H2444 C2452 0.950 . S
H2445 C2457 0.950 . S
H2446 C2454 0.950 . S
H2447 C2456 0.950 . S
H2448 C2458 0.950 . S
H2449 C2460 0.950 . S
H2450 C2462 0.950 . S
H2451 C2463 0.950 . S
C2452 H2444 0.950 . S
C2452 C2453 1.386 . S
C2452 C2454 1.391 . S
C2453 C2452 1.386 . S
C2453 C2457 1.393 . S
C2454 H2446 0.950 . S
C2454 C2452 1.391 . S
C2454 C2455 1.400 . S
C2455 C2454 1.400 . S
C2455 C2456 1.398 . S
C2455 C2461 1.491 . S
C2456 H2447 0.950 . S
C2456 C2455 1.398 . S
C2456 C2457 1.391 . S
C2457 H2445 0.950 . S
C2457 C2453 1.393 . S
C2457 C2456 1.391 . S
C2458 H2448 0.950 . S
C2458 C2459 1.386 . S
C2458 C2460 1.391 . S
C2459 C2458 1.386 . S
C2459 C2463 1.393 . S
C2460 H2449 0.950 . S
C2460 C2458 1.391 . S
C2460 C2461 1.400 . S
C2461 C2455 1.491 . S
C2461 C2460 1.400 . S
C2461 C2462 1.398 . S
C2462 H2450 0.950 . S
C2462 C2461 1.398 . S
C2462 C2463 1.391 . S
C2463 H2451 0.950 . S
C2463 C2459 1.393 . S
C2463 C2462 1.391 . S
H2464 C2472 0.950 . S
H2465 C2477 0.950 . S
H2466 C2474 0.950 . S
H2467 C2476 0.950 . S
H2468 C2478 0.950 . S
H2469 C2480 0.950 . S
H2470 C2482 0.950 . S
H2471 C2483 0.950 . S
C2472 H2464 0.950 . S
C2472 C2473 1.386 . S
C2472 C2474 1.391 . S
C2473 C2472 1.386 . S
C2473 C2477 1.393 . S
C2474 H2466 0.950 . S
C2474 C2472 1.391 . S
C2474 C2475 1.400 . S
C2475 C2474 1.400 . S
C2475 C2476 1.398 . S
C2475 C2481 1.491 . S
C2476 H2467 0.950 . S
C2476 C2475 1.398 . S
C2476 C2477 1.391 . S
C2477 H2465 0.950 . S
C2477 C2473 1.393 . S
C2477 C2476 1.391 . S
C2478 H2468 0.950 . S
C2478 C2479 1.386 . S
C2478 C2480 1.391 . S
C2479 C2478 1.386 . S
C2479 C2483 1.393 . S
C2480 H2469 0.950 . S
C2480 C2478 1.391 . S
C2480 C2481 1.400 . S
C2481 C2475 1.491 . S
C2481 C2480 1.400 . S
C2481 C2482 1.398 . S
C2482 H2470 0.950 . S
C2482 C2481 1.398 . S
C2482 C2483 1.391 . S
C2483 H2471 0.950 . S
C2483 C2479 1.393 . S
C2483 C2482 1.391 . S
H2484 C2492 0.950 . S
H2485 C2497 0.950 . S
H2486 C2494 0.950 . S
H2487 C2496 0.950 . S
H2488 C2498 0.950 . S
H2489 C2500 0.950 . S
H2490 C2502 0.950 . S
H2491 C2503 0.950 . S
C2492 H2484 0.950 . S
C2492 C2493 1.386 . S
C2492 C2494 1.391 . S
C2493 C2492 1.386 . S
C2493 C2497 1.393 . S
C2494 H2486 0.950 . S
C2494 C2492 1.391 . S
C2494 C2495 1.400 . S
C2495 C2494 1.400 . S
C2495 C2496 1.398 . S
C2495 C2501 1.491 . S
C2496 H2487 0.950 . S
C2496 C2495 1.398 . S
C2496 C2497 1.391 . S
C2497 H2485 0.950 . S
C2497 C2493 1.393 . S
C2497 C2496 1.391 . S
C2498 H2488 0.950 . S
C2498 C2499 1.386 . S
C2498 C2500 1.391 . S
C2499 C2498 1.386 . S
C2499 C2503 1.393 . S
C2500 H2489 0.950 . S
C2500 C2498 1.391 . S
C2500 C2501 1.400 . S
C2501 C2495 1.491 . S
C2501 C2500 1.400 . S
C2501 C2502 1.398 . S
C2502 H2490 0.950 . S
C2502 C2501 1.398 . S
C2502 C2503 1.391 . S
C2503 H2491 0.950 . S
C2503 C2499 1.393 . S
C2503 C2502 1.391 . S
H2504 C2512 0.950 . S
H2505 C2517 0.950 . S
H2506 C2514 0.950 . S
H2507 C2516 0.950 . S
H2508 C2518 0.950 . S
H2509 C2520 0.950 . S
H2510 C2522 0.950 . S
H2511 C2523 0.950 . S
C2512 H2504 0.950 . S
C2512 C2513 1.386 . S
C2512 C2514 1.391 . S
C2513 C2512 1.386 . S
C2513 C2517 1.393 . S
C2514 H2506 0.950 . S
C2514 C2512 1.391 . S
C2514 C2515 1.400 . S
C2515 C2514 1.400 . S
C2515 C2516 1.398 . S
C2515 C2521 1.491 . S
C2516 H2507 0.950 . S
C2516 C2515 1.398 . S
C2516 C2517 1.391 . S
C2517 H2505 0.950 . S
C2517 C2513 1.393 . S
C2517 C2516 1.391 . S
C2518 H2508 0.950 . S
C2518 C2519 1.386 . S
C2518 C2520 1.391 . S
C2519 C2518 1.386 . S
C2519 C2523 1.393 . S
C2520 H2509 0.950 . S
C2520 C2518 1.391 . S
C2520 C2521 1.400 . S
C2521 C2515 1.491 . S
C2521 C2520 1.400 . S
C2521 C2522 1.398 . S
C2522 H2510 0.950 . S
C2522 C2521 1.398 . S
C2522 C2523 1.391 . S
C2523 H2511 0.950 . S
C2523 C2519 1.393 . S
C2523 C2522 1.391 . S
H2524 C2532 0.950 . S
H2525 C2537 0.950 . S
H2526 C2534 0.950 . S
H2527 C2536 0.950 . S
H2528 C2538 0.950 . S
H2529 C2540 0.950 . S
H2530 C2542 0.950 . S
H2531 C2543 0.950 . S
C2532 H2524 0.950 . S
C2532 C2533 1.394 . S
C2532 C2534 1.391 . S
C2533 C2532 1.394 . S
C2533 C2537 1.383 1_554 S
C2534 H2526 0.950 . S
C2534 C2532 1.391 . S
C2534 C2535 1.400 1_554 S
C2535 C2534 1.400 1_556 S
C2535 C2536 1.398 . S
C2535 C2541 1.491 . S
C2536 H2527 0.950 . S
C2536 C2535 1.398 . S
C2536 C2537 1.391 . S
C2537 H2525 0.950 . S
C2537 C2533 1.383 1_556 S
C2537 C2536 1.391 . S
C2538 H2528 0.950 . S
C2538 C2539 1.386 . S
C2538 C2540 1.391 . S
C2539 C2538 1.386 . S
C2539 C2543 1.393 1_556 S
C2540 H2529 0.950 . S
C2540 C2538 1.391 . S
C2540 C2541 1.400 . S
C2541 C2535 1.491 . S
C2541 C2540 1.400 . S
C2541 C2542 1.398 1_556 S
C2542 H2530 0.950 . S
C2542 C2541 1.398 1_554 S
C2542 C2543 1.391 . S
C2543 H2531 0.950 . S
C2543 C2539 1.393 1_554 S
C2543 C2542 1.391 . S
H2544 C2552 0.950 . S
H2545 C2557 0.950 . S
H2546 C2554 0.950 . S
H2547 C2556 0.950 . S
H2548 C2558 0.950 . S
H2549 C2560 0.950 . S
H2550 C2562 0.950 . S
H2551 C2563 0.950 . S
C2552 H2544 0.950 . S
C2552 C2553 1.386 . S
C2552 C2554 1.391 . S
C2553 C2552 1.386 . S
C2553 C2557 1.393 . S
C2554 H2546 0.950 . S
C2554 C2552 1.391 . S
C2554 C2555 1.400 . S
C2555 C2554 1.400 . S
C2555 C2556 1.398 . S
C2555 C2561 1.491 . S
C2556 H2547 0.950 . S
C2556 C2555 1.398 . S
C2556 C2557 1.391 . S
C2557 H2545 0.950 . S
C2557 C2553 1.393 . S
C2557 C2556 1.391 . S
C2558 H2548 0.950 . S
C2558 C2559 1.386 . S
C2558 C2560 1.391 . S
C2559 C2558 1.386 . S
C2559 C2563 1.393 . S
C2560 H2549 0.950 . S
C2560 C2558 1.391 . S
C2560 C2561 1.400 . S
C2561 C2555 1.491 . S
C2561 C2560 1.400 . S
C2561 C2562 1.398 . S
C2562 H2550 0.950 . S
C2562 C2561 1.398 . S
C2562 C2563 1.391 . S
C2563 H2551 0.950 . S
C2563 C2559 1.393 . S
C2563 C2562 1.391 . S
H2564 C2572 0.950 . S
H2565 C2577 0.950 . S
H2566 C2574 0.950 . S
H2567 C2576 0.950 . S
H2568 C2578 0.950 . S
H2569 C2580 0.950 . S
H2570 C2582 0.950 1_556 S
H2571 C2583 0.950 1_556 S
C2572 H2564 0.950 . S
C2572 C2573 1.386 1_556 S
C2572 C2574 1.391 . S
C2573 C2572 1.386 1_554 S
C2573 C2577 1.393 . S
C2574 H2566 0.950 . S
C2574 C2572 1.391 . S
C2574 C2575 1.400 1_556 S
C2575 C2574 1.400 1_554 S
C2575 C2576 1.398 . S
C2575 C2581 1.491 . S
C2576 H2567 0.950 . S
C2576 C2575 1.398 . S
C2576 C2577 1.391 . S
C2577 H2565 0.950 . S
C2577 C2573 1.393 . S
C2577 C2576 1.391 . S
C2578 H2568 0.950 . S
C2578 C2579 1.386 . S
C2578 C2580 1.391 . S
C2579 C2578 1.386 . S
C2579 C2583 1.393 . S
C2580 H2569 0.950 . S
C2580 C2578 1.391 . S
C2580 C2581 1.400 . S
C2581 C2575 1.491 . S
C2581 C2580 1.400 . S
C2581 C2582 1.398 . S
C2582 H2570 0.950 1_554 S
C2582 C2581 1.398 . S
C2582 C2583 1.391 . S
C2583 H2571 0.950 1_554 S
C2583 C2579 1.393 . S
C2583 C2582 1.391 . S
H2584 C2592 0.950 . S
H2585 C2597 0.950 . S
H2586 C2594 0.950 . S
H2587 C2596 0.950 . S
H2588 C2598 0.950 . S
H2589 C2600 0.950 . S
H2590 C2602 0.950 . S
H2591 C2603 0.950 . S
C2592 H2584 0.950 . S
C2592 C2593 1.386 . S
C2592 C2594 1.391 . S
C2593 C2592 1.386 . S
C2593 C2597 1.393 . S
C2594 H2586 0.950 . S
C2594 C2592 1.391 . S
C2594 C2595 1.400 . S
C2595 C2594 1.400 . S
C2595 C2596 1.398 . S
C2595 C2601 1.491 . S
C2596 H2587 0.950 . S
C2596 C2595 1.398 . S
C2596 C2597 1.391 . S
C2597 H2585 0.950 . S
C2597 C2593 1.393 . S
C2597 C2596 1.391 . S
C2598 H2588 0.950 . S
C2598 C2599 1.386 . S
C2598 C2600 1.391 . S
C2599 C2598 1.386 . S
C2599 C2603 1.393 . S
C2600 H2589 0.950 . S
C2600 C2598 1.391 . S
C2600 C2601 1.400 . S
C2601 C2595 1.491 . S
C2601 C2600 1.400 . S
C2601 C2602 1.398 . S
C2602 H2590 0.950 . S
C2602 C2601 1.398 . S
C2602 C2603 1.391 . S
C2603 H2591 0.950 . S
C2603 C2599 1.393 . S
C2603 C2602 1.391 . S
H2604 C2612 0.950 . S
H2605 C2617 0.950 . S
H2606 C2614 0.950 . S
H2607 C2616 0.950 . S
H2608 C2618 0.950 . S
H2609 C2620 0.950 . S
H2610 C2622 0.950 . S
H2611 C2623 0.950 . S
C2612 H2604 0.950 . S
C2612 C2613 1.386 . S
C2612 C2614 1.391 . S
C2613 C2612 1.386 . S
C2613 C2617 1.393 . S
C2614 H2606 0.950 . S
C2614 C2612 1.391 . S
C2614 C2615 1.400 . S
C2615 C2614 1.400 . S
C2615 C2616 1.398 . S
C2615 C2621 1.491 . S
C2616 H2607 0.950 . S
C2616 C2615 1.398 . S
C2616 C2617 1.391 . S
C2617 H2605 0.950 . S
C2617 C2613 1.393 . S
C2617 C2616 1.391 . S
C2618 H2608 0.950 . S
C2618 C2619 1.386 . S
C2618 C2620 1.391 . S
C2619 C2618 1.386 . S
C2619 C2623 1.393 . S
C2620 H2609 0.950 . S
C2620 C2618 1.391 . S
C2620 C2621 1.400 . S
C2621 C2615 1.491 . S
C2621 C2620 1.400 . S
C2621 C2622 1.398 . S
C2622 H2610 0.950 . S
C2622 C2621 1.398 . S
C2622 C2623 1.391 . S
C2623 H2611 0.950 . S
C2623 C2619 1.393 . S
C2623 C2622 1.391 . S
C719 C352 1.054 . S
C713 C4 1.040 . S
C733 C19 1.000 . S
C739 C380 1.174 . S
C753 C39 0.991 . S
C759 C398 0.997 . S
C779 C424 1.220 . S
C773 C54 1.331 . S
C793 C18 1.320 . S
C799 C447 1.240 1_655 S
C819 C467 1.040 . S
C813 C40 1.068 . S
C839 C495 1.194 1_556 S
C833 C53 1.254 . S
C853 C5 0.916 . S
C859 C513 1.029 . S
C873 C61 0.972 . S
C879 C354 1.197 . S
C893 C74 1.019 . S
C899 C376 1.040 . S
C919 C400 1.179 . S
C913 C89 0.957 1_565 S
C939 C421 1.019 . S
C933 C109 1.042 . S
C953 C68 1.012 . S
C959 C444 0.997 . S
C979 C469 1.307 . S
C973 C81 1.303 . S
C999 C491 0.920 . S
C993 C96 0.943 . S
C1019 C515 1.378 . S
C1013 C102 1.338 . S
C1039 C355 0.848 1_556 S
C1033 C103 0.818 . S
C1059 C538 1.091 . S
C1053 C117 0.941 . S
C1073 C130 0.938 . S
C1079 C562 0.891 . S
C1099 C586 1.078 . S
C1093 C152 1.102 . S
C1113 C60 0.957 . S
C1119 C516 0.922 . S
C1139 C401 0.851 . S
C1133 C82 0.919 . S
C1153 C137 1.035 . S
C1159 C607 1.036 . S
C1179 C632 1.015 . S
C1173 C165 1.013 . S
C1193 C172 1.103 . S
C1199 C353 1.126 . S
C1219 C630 1.039 . S
C1213 C194 1.029 . S
C1233 C207 1.020 . S
C1239 C399 1.022 . S
C1253 C215 0.878 . S
C1259 C609 0.983 . S
C1279 C448 1.011 . S
C1273 C186 1.020 . S
C1299 C560 1.084 . S
C1293 C201 0.929 . S
C1319 C492 0.978 . S
C1313 C221 0.960 . S
C1339 C652 1.049 . S
C1333 C180 1.065 . S
C1359 C357 0.841 . S
C1353 C236 0.897 . S
C1373 C242 1.443 . S
C1379 C628 1.410 . S
C1399 C403 0.897 . S
C1393 C264 0.969 . S
C1413 C277 1.319 . S
C1419 C606 1.322 . S
C1433 C229 1.029 . S
C1439 C445 1.150 . S
C1453 C249 0.930 . S
C1459 C564 0.887 . S
C1479 C490 1.224 . S
C1473 C257 1.085 1_545 S
C1493 C270 1.030 . S
C1499 C656 1.010 . S
C1513 C278 1.242 . S
C1519 C356 1.192 . S
C1533 C292 1.234 . S
C1539 C541 1.157 . S
C1553 C298 1.436 . S
C1559 C471 1.377 . S
C1573 C313 1.120 . S
C1579 C585 1.124 . S
C1599 C655 1.332 . S
C1593 C228 1.367 . S
C1619 C402 1.236 . S
C1613 C243 1.121 . S
C1639 C426 1.059 . S
C1633 C305 1.119 . S
C1659 C378 1.025 . S
C1653 C333 1.077 . S
C1673 C32 1.029 . S
C1679 C674 1.045 . S
C1699 C633 1.186 . S
C1693 C47 1.035 . S
C1719 C697 0.988 . S
C1713 C11 0.994 . S
C1733 C26 1.331 . S
C1739 C608 1.190 . S
C1753 C46 1.305 . S
C1759 C539 1.234 . S
C1779 C559 1.067 . S
C1773 C12 1.071 . S
C1799 C587 1.160 . S
C1793 C25 1.259 . S
C1819 C651 0.999 . S
C1813 C33 0.841 . S
C1839 C676 1.196 . S
C1833 C159 1.007 . S
C1853 C116 1.049 . S
C1859 C629 1.062 . S
C1873 C131 0.981 . S
C1879 C699 1.175 . S
C1899 C605 1.025 . S
C1893 C151 1.045 . S
C1919 C536 0.998 . S
C1913 C166 1.015 . S
C1933 C123 1.301 . S
C1939 C561 1.305 . S
C1959 C583 0.933 . S
C1953 C138 0.948 . S
C1973 C144 1.327 . S
C1979 C653 1.382 . S
C1999 C677 0.828 . S
C1993 C145 0.790 . S
C2019 C446 1.096 . S
C2013 C75 0.897 . S
C2039 C470 0.938 . S
C2033 C88 0.965 . S
C2053 C110 1.096 . S
C2059 C494 1.074 . S
C2079 C654 0.928 . S
C2073 C158 0.960 . S
C2093 C124 0.920 . S
C2099 C700 0.906 1_556 S
C2119 C423 1.035 . S
C2113 C95 1.028 . S
C2139 C379 1.019 . S
C2133 C67 1.016 . S
C2153 C200 1.115 . S
C2159 C675 1.120 . S
C2179 C377 1.027 . S
C2173 C222 1.021 . S
C2199 C698 1.003 . S
C2193 C179 1.003 . S
C2213 C187 0.884 . S
C2219 C425 0.982 . S
C2233 C214 1.025 . S
C2239 C540 0.981 . S
C2253 C173 0.935 . S
C2259 C468 1.083 . S
C2273 C193 0.970 . S
C2279 C584 0.965 . S
C2293 C208 1.066 . S
C2299 C514 1.054 . S
C2319 C679 0.900 . S
C2313 C334 0.917 . S
C2333 C284 1.435 . S
C2339 C375 1.425 . S
C2359 C702 0.898 . S
C2353 C306 0.969 . S
C2373 C319 1.302 . S
C2379 C422 1.305 . S
C2393 C327 1.062 . S
C2399 C537 1.130 . S
C2419 C472 0.899 . S
C2413 C291 0.935 . S
C2433 C299 1.102 . S
C2439 C582 1.229 . S
C2459 C518 0.976 . S
C2453 C312 1.037 . S
C2479 C678 1.225 . S
C2473 C320 1.259 . S
C2499 C449 1.140 . S
C2493 C250 1.230 . S
C2513 C256 1.431 . S
C2519 C563 1.395 . S
C2539 C493 1.166 . S
C2533 C271 1.081 . S
C2559 C517 1.318 . S
C2553 C326 1.372 . S
C2573 C285 1.140 1_554 S
C2579 C701 1.226 . S
C2599 C610 1.051 . S
C2593 C263 1.111 . S
C2619 C631 1.030 . S
C2613 C235 1.082 . S
