# Generated by pormake.
# Topology ftw, (4,12)-cn, num edge types: 1
# Building blocks:
#     Node 0, Type 0, BuildingBlock: ESEHIV_clean_sbu_0, # of connection points: 4
#     Node 1, Type 0, BuildingBlock: ESEHIV_clean_sbu_0, # of connection points: 4
#     Node 2, Type 0, BuildingBlock: ESEHIV_clean_sbu_0, # of connection points: 4
#     Node 3, Type 1, BuildingBlock: EZIPEK_clean_sbu_0, # of connection points: 12
#     Edge 4, Type (0, 1), BuildingBlock: EZIPEK_clean_linker_0, # of connection points: 2
#     Edge 5, Type (0, 1), BuildingBlock: EZIPEK_clean_linker_0, # of connection points: 2
#     Edge 6, Type (0, 1), BuildingBlock: EZIPEK_clean_linker_0, # of connection points: 2
#     Edge 7, Type (0, 1), BuildingBlock: EZIPEK_clean_linker_0, # of connection points: 2
#     Edge 8, Type (0, 1), BuildingBlock: EZIPEK_clean_linker_0, # of connection points: 2
#     Edge 9, Type (0, 1), BuildingBlock: EZIPEK_clean_linker_0, # of connection points: 2
#     Edge 10, Type (0, 1), BuildingBlock: EZIPEK_clean_linker_0, # of connection points: 2
#     Edge 11, Type (0, 1), BuildingBlock: EZIPEK_clean_linker_0, # of connection points: 2
#     Edge 12, Type (0, 1), BuildingBlock: EZIPEK_clean_linker_0, # of connection points: 2
#     Edge 13, Type (0, 1), BuildingBlock: EZIPEK_clean_linker_0, # of connection points: 2
#     Edge 14, Type (0, 1), BuildingBlock: EZIPEK_clean_linker_0, # of connection points: 2
#     Edge 15, Type (0, 1), BuildingBlock: EZIPEK_clean_linker_0, # of connection points: 2
# Relax obj value: 0.026
# Max RMSD: 0.144
# Mean RMSD: 0.116
data_MOF--net-ftw--node1-ESEHIV_clean_sbu_0--node2-EZIPEK_clean_sbu_0--edge1-EZIPEK_clean_linker_0
_symmetry_space_group_name_H-M    P1
_symmetry_Int_Tables_number       1
_symmetry_cell_setting            triclinic
loop_
_symmetry_equiv_pos_as_xyz
'x, y, z'
_cell_length_a     19.095428
_cell_length_b     19.059778
_cell_length_c     18.918729
_cell_angle_alpha  85.980841
_cell_angle_beta   85.944811
_cell_angle_gamma 94.254692
loop_
_atom_site_label
_atom_site_type_symbol
_atom_site_fract_x
_atom_site_fract_y
_atom_site_fract_z
_atom_type_partial_charge
Cu0 Cu 0.06682 0.52137 0.50161 0.0
N1 N 0.05679 0.4494 0.44058 0.0
N2 N 0.03748 0.36776 0.36422 0.0
C3 C 1.00841 0.41764 0.40194 0.0
C4 C 0.10535 0.36911 0.37875 0.0
C5 C 0.11705 0.41967 0.42464 0.0
O6 O 0.11746 0.47476 0.57578 0.0
C7 C 0.05932 0.61955 0.39698 0.0
O8 O 0.99693 0.58482 0.40437 0.0
H9 H 0.9548 0.43197 0.39952 0.0
H10 H 0.167 0.43485 0.44507 0.0
N11 N 0.99285 0.55907 0.55214 0.0
N12 N 0.95989 0.63408 0.6313 0.0
C13 C 1.00973 0.61909 0.58237 0.0
C14 C 0.92885 0.53491 0.5826 0.0
C15 C 0.90833 0.58152 0.63203 0.0
C16 C 0.0789 0.42037 0.60316 0.0
O17 O 1.01592 0.40794 0.58088 0.0
H18 H 0.06115 0.64765 0.5737 0.0
H19 H 0.90195 0.48455 0.57426 0.0
O20 O 0.10663 0.60102 0.43755 0.0
H21 H 0.14431 0.33747 0.35515 0.0
H22 H 0.86218 0.57449 0.66924 0.0
Cu23 Cu 0.54151 0.03835 0.48674 0.0
N24 N 0.59941 0.09103 0.5423 0.0
N25 N 0.6772 0.10563 0.62359 0.0
C26 C 0.65164 0.06309 0.57605 0.0
C27 C 0.64016 0.16319 0.61929 0.0
C28 C 0.59216 0.15416 0.5686 0.0
O29 O 0.60159 0.9867 0.42427 0.0
C30 C 0.43011 0.02689 0.58417 0.0
O31 O 0.43473 0.09383 0.56126 0.0
H32 H 0.66753 1.01047 0.56919 0.0
H33 H 0.55212 0.18901 0.5552 0.0
N34 N 0.49102 0.0912 0.42455 0.0
N35 N 0.4129 0.10749 0.34418 0.0
C36 C 0.4357 0.06238 0.39367 0.0
C37 C 0.50386 0.15715 0.39358 0.0
C38 C 0.45535 0.16739 0.34351 0.0
C39 C 0.65476 0.02486 0.39437 0.0
O40 O 0.66662 0.0894 0.41334 0.0
H41 H 0.41464 1.00809 0.40486 0.0
H42 H 0.5472 0.19376 0.40422 0.0
O43 O 0.47254 0.98628 0.55588 0.0
H44 H 0.64536 0.20691 0.65261 0.0
H45 H 0.45313 0.21376 0.30753 0.0
Cu46 Cu 0.53321 0.50955 0.01148 0.0
N47 N 0.47872 0.56596 0.06684 0.0
N48 N 0.40641 0.65197 0.07975 0.0
C49 C 0.42471 0.59858 0.04101 0.0
C50 C 0.44981 0.65224 0.13307 0.0
C51 C 0.49411 0.59869 0.12529 0.0
O52 O 0.46953 0.44874 0.96149 0.0
C53 C 0.64758 0.60303 0.99813 0.0
O54 O 0.64514 0.57883 0.06496 0.0
H55 H 0.40319 0.58725 0.99122 0.0
H56 H 0.53792 0.58838 0.15663 0.0
N57 N 0.58557 0.44595 0.06024 0.0
N58 N 0.66429 0.36585 0.07019 0.0
C59 C 0.63325 0.40967 0.02564 0.0
C60 C 0.58594 0.42409 0.12944 0.0
C61 C 0.63475 0.37415 0.13574 0.0
C62 C 0.41853 0.41839 0.00251 0.0
O63 O 0.41075 0.43665 0.06811 0.0
H64 H 0.64401 0.41434 0.96847 0.0
H65 H 0.5525 0.44223 0.17184 0.0
O66 O 0.60238 0.5775 0.95817 0.0
H67 H 0.45175 0.69074 0.17247 0.0
H68 H 0.64643 0.34498 0.1841 0.0
C69 C 0.06509 0.19184 0.8173 0.0
C70 C 1.02082 0.16906 0.15828 0.0
C71 C 1.02721 0.84819 0.82108 0.0
C72 C 0.03819 0.82878 0.16511 0.0
C73 C 0.2042 0.84949 0.0079 0.0
C74 C 0.21172 0.18837 0.97453 0.0
C75 C 0.8638 0.82955 0.98489 0.0
C76 C 0.86582 0.1653 0.99857 0.0
C77 C 0.85947 0.98596 0.16522 0.0
C78 C 0.20016 0.0316 0.15598 0.0
C79 C 0.8799 0.03149 0.82122 0.0
C80 C 0.21783 1.0069 0.81567 0.0
Eu81 Eu 0.03853 0.14209 0.98718 0.0
O82 O 0.09719 0.07177 0.04988 0.0
O83 O 0.98059 0.07121 0.92541 0.0
Eu84 Eu 0.17025 1.01649 0.98683 0.0
Eu85 Eu 0.90607 1.00054 0.99119 0.0
O86 O 0.10472 0.07891 0.92467 0.0
O87 O 0.97412 0.06232 0.05234 0.0
Eu88 Eu 0.04732 0.01718 0.85434 0.0
Eu89 Eu 1.03174 1.00103 0.12478 0.0
O90 O 0.1024 0.95231 0.92661 0.0
O91 O 0.09533 0.9463 0.05241 0.0
O92 O 0.97019 0.93807 0.05669 0.0
O93 O 0.98007 0.94691 0.92882 0.0
Eu94 Eu 1.03462 0.87451 0.9931 0.0
O95 O 0.03883 0.20606 0.88144 0.0
O96 O 1.02473 0.19362 0.09025 0.0
O97 O 1.03096 0.82304 0.8885 0.0
O98 O 1.02349 0.81046 0.10053 0.0
O99 O 0.2262 0.91755 0.00643 0.0
O100 O 0.23175 0.12307 0.97148 0.0
O101 O 0.84545 0.89577 0.98102 0.0
O102 O 0.84697 0.09884 0.9873 0.0
O103 O 0.92466 0.98559 0.18653 0.0
O104 O 0.1328 0.01833 0.18093 0.0
O105 O 0.94792 0.03477 0.79757 0.0
O106 O 0.15317 1.01049 0.79363 0.0
O107 O 0.92888 0.81011 0.99289 0.0
O108 O 0.13864 0.82312 0.99931 0.0
O109 O 0.93275 0.19082 0.002 0.0
O110 O 0.14527 0.20606 0.98387 0.0
O111 O 1.0242 0.10168 0.18183 0.0
O112 O 0.04725 0.89539 0.18275 0.0
O113 O 0.07864 0.12709 0.79964 0.0
O114 O 1.03311 0.91638 0.79741 0.0
O115 O 0.23468 1.0078 0.88292 0.0
O116 O 0.22405 0.03307 0.08785 0.0
O117 O 0.85412 1.0166 0.88836 0.0
O118 O 0.84211 0.99157 0.09794 0.0
C119 C 0.04319 0.34431 0.24035 0.0
C120 C 1.01066 0.32796 0.30913 0.0
C121 C 0.97071 0.21104 0.27502 0.0
C122 C 1.01615 0.22295 0.21135 0.0
N123 N 0.11117 0.29729 0.14566 0.0
N124 N 0.94626 0.24495 0.39519 0.0
C125 C 0.05606 0.28905 0.19656 0.0
C126 C 0.97417 0.26131 0.32714 0.0
N127 N 0.06652 0.41243 0.21963 0.0
N128 N 0.92366 0.15313 0.28557 0.0
H129 H 0.94666 0.28196 0.43333 0.0
H130 H 0.92639 0.19426 0.41435 0.0
H131 H 0.91862 0.11526 0.24896 0.0
H132 H 0.88515 0.14604 0.32784 0.0
H133 H 0.08718 0.42867 0.16809 0.0
H134 H 0.05783 0.45306 0.25265 0.0
H135 H 0.14481 0.3432 0.13723 0.0
H136 H 0.1295 0.25553 0.11885 0.0
C137 C 0.73199 0.94211 0.32999 0.0
C138 C 0.69642 1.00501 0.33043 0.0
C139 C 0.76951 0.05447 0.22509 0.0
C140 C 0.80175 0.99028 0.22092 0.0
N141 N 0.80305 0.86743 0.26 0.0
N142 N 0.66469 0.10874 0.26305 0.0
C143 C 0.77959 0.9321 0.27044 0.0
C144 C 0.70982 0.05712 0.27286 0.0
N145 N 0.72341 0.89387 0.38736 0.0
N146 N 0.79804 0.11436 0.18658 0.0
H147 H 0.61764 0.10961 0.29449 0.0
H148 H 0.66996 0.14528 0.21896 0.0
H149 H 0.84264 0.11546 0.15123 0.0
H150 H 0.78084 0.16406 0.19464 0.0
H151 H 0.75388 0.85099 0.39297 0.0
H152 H 0.68922 0.89941 0.43168 0.0
H153 H 0.78404 0.82167 0.29087 0.0
H154 H 0.83694 0.85875 0.2163 0.0
C155 C 0.08839 0.65979 0.26948 0.0
C156 C 0.07104 0.67704 0.33976 0.0
C157 C 1.02119 0.78414 0.2943 0.0
C158 C 0.04497 0.77197 0.22334 0.0
N159 N 0.10745 0.69739 0.1447 0.0
N160 N 1.03458 0.76159 0.42007 0.0
C161 C 0.08003 0.70935 0.21106 0.0
C162 C 0.04253 0.74158 0.35223 0.0
N163 N 0.1114 0.59483 0.25868 0.0
N164 N 0.97322 0.83257 0.30644 0.0
H165 H 0.05003 0.73111 0.46339 0.0
H166 H 1.01988 0.81123 0.43212 0.0
H167 H 0.95015 0.85975 0.26565 0.0
H168 H 0.9493 0.83893 0.35656 0.0
H169 H 0.11549 0.57394 0.20932 0.0
H170 H 0.12327 0.5599 0.30034 0.0
H171 H 0.13972 0.65707 0.13446 0.0
H172 H 0.10463 0.73081 0.09971 0.0
C173 C 0.29385 0.1186 0.30378 0.0
C174 C 0.36011 0.09055 0.29611 0.0
C175 C 0.3179 1.01632 0.20498 0.0
C176 C 0.25354 0.04954 0.20718 0.0
N177 N 0.18781 0.14478 0.24826 0.0
N178 N 0.44065 0.02342 0.23103 0.0
C179 C 0.24315 0.10381 0.25419 0.0
C180 C 0.37368 0.04248 0.24416 0.0
N181 N 0.27908 0.15851 0.3593 0.0
N182 N 0.32496 0.95805 0.16773 0.0
H183 H 0.48275 0.04283 0.25821 0.0
H184 H 0.45563 0.99406 0.18887 0.0
H185 H 0.28488 0.93607 0.13974 0.0
H186 H 0.36784 0.92746 0.17025 0.0
H187 H 0.22903 0.17441 0.37232 0.0
H188 H 0.31573 0.17072 0.39584 0.0
H189 H 0.18168 0.18926 0.27639 0.0
H190 H 0.15259 0.1396 0.20917 0.0
C191 C 0.93876 0.7497 0.67679 0.0
C192 C 0.97075 0.68537 0.68275 0.0
C193 C 0.04754 0.73273 0.76941 0.0
C194 C 1.01077 0.7948 0.7693 0.0
N195 N 0.90931 0.8542 0.7339 0.0
N196 N 0.04392 0.60939 0.74547 0.0
C197 C 0.95321 0.80147 0.72564 0.0
C198 C 1.02154 0.67506 0.7326 0.0
N199 N 0.8955 0.76169 0.62357 0.0
N200 N 0.10903 0.72989 0.80199 0.0
H201 H 1.02389 0.56601 0.72041 0.0
H202 H 0.07613 0.5968 0.78596 0.0
H203 H 0.1318 0.77242 0.82641 0.0
H204 H 0.14123 0.68832 0.79811 0.0
H205 H 0.87664 0.81066 0.61132 0.0
H206 H 0.88286 0.72372 0.58838 0.0
H207 H 0.86301 0.85718 0.70822 0.0
H208 H 0.91462 0.89063 0.77199 0.0
C209 C 0.32431 0.95789 0.65028 0.0
C210 C 0.38471 1.00579 0.65017 0.0
C211 C 0.33648 0.05307 0.75846 0.0
C212 C 0.2767 1.00384 0.76054 0.0
N213 N 0.22309 0.89688 0.71938 0.0
N214 N 0.45851 0.08074 0.71625 0.0
C215 C 0.27345 0.95217 0.70979 0.0
C216 C 0.39416 0.04696 0.7087 0.0
N217 N 0.31388 0.92043 0.5925 0.0
N218 N 0.33648 0.10893 0.80007 0.0
H219 H 0.50212 0.07579 0.68105 0.0
H220 H 0.47019 0.10665 0.7612 0.0
H221 H 0.29348 0.11882 0.8339 0.0
H222 H 0.37619 0.14993 0.79511 0.0
H223 H 0.26692 0.89096 0.58601 0.0
H224 H 0.35099 0.92218 0.54909 0.0
H225 H 0.22197 0.85442 0.68756 0.0
H226 H 0.18654 0.88997 0.76342 0.0
C227 C 0.09584 0.29593 0.63572 0.0
C228 C 0.10233 0.36626 0.65462 0.0
C229 C 0.10278 0.32201 0.77928 0.0
C230 C 0.08007 0.25232 0.76125 0.0
N231 N 0.03952 0.18048 0.66819 0.0
N232 N 0.11169 0.44783 0.74494 0.0
C233 C 0.07317 0.24092 0.68824 0.0
C234 C 0.10639 0.37978 0.7266 0.0
N235 N 0.10958 0.28204 0.56664 0.0
N236 N 0.12354 0.33347 0.84537 0.0
H237 H 0.12034 0.49059 0.70704 0.0
H238 H 0.10461 0.46162 0.79715 0.0
H239 H 0.12687 0.29351 0.88471 0.0
H240 H 0.14639 0.38171 0.85848 0.0
H241 H 0.11071 0.23101 0.55022 0.0
H242 H 0.12866 0.32185 0.52815 0.0
H243 H 1.02815 0.17386 0.61587 0.0
H244 H 1.01409 0.14104 0.70358 0.0
C245 C 0.71367 0.02661 0.72147 0.0
C246 C 0.72717 0.08823 0.67448 0.0
C247 C 0.83584 0.11719 0.73088 0.0
C248 C 0.82805 0.05015 0.76965 0.0
N249 N 0.76284 0.93647 0.79496 0.0
N250 N 0.80751 0.18575 0.62573 0.0
C251 C 0.76785 1.00341 0.76298 0.0
C252 C 0.79017 0.13177 0.67666 0.0
N253 N 0.64795 0.99225 0.72903 0.0
N254 N 0.88365 0.16862 0.74871 0.0
H255 H 0.77603 0.19662 0.58409 0.0
H256 H 0.85622 0.21494 0.62111 0.0
H257 H 0.91509 0.16155 0.79113 0.0
H258 H 0.88676 0.22037 0.72622 0.0
H259 H 0.63316 0.95091 0.7674 0.0
H260 H 0.60599 1.01013 0.70237 0.0
H261 H 0.72358 0.89806 0.78554 0.0
H262 H 0.8013 0.91721 0.82587 0.0
C263 C 0.36688 0.29652 0.03699 0.0
C264 C 0.37613 0.35419 0.98473 0.0
C265 C 0.28961 0.29265 0.91611 0.0
C266 C 0.26935 0.24477 0.97618 0.0
N267 N 0.28446 0.2069 0.09813 0.0
N268 N 0.34261 0.4091 0.87448 0.0
C269 C 0.3071 0.24804 0.03774 0.0
C270 C 0.33712 0.35264 0.92358 0.0
N271 N 0.41618 0.28721 0.08507 0.0
N272 N 0.26559 0.27962 0.85172 0.0
H273 H 0.3767 0.45379 0.87811 0.0
H274 H 0.30963 0.41331 0.83303 0.0
H275 H 0.23209 0.23525 0.84465 0.0
H276 H 0.28364 0.30942 0.80481 0.0
H277 H 0.41474 0.24265 0.12056 0.0
H278 H 0.46279 0.31977 0.08344 0.0
H279 H 0.30656 0.21252 0.14643 0.0
H280 H 0.23914 0.17255 0.10156 0.0
C281 C 0.36159 0.73884 0.99301 0.0
C282 C 0.35715 0.70342 0.06212 0.0
C283 C 0.26036 0.77372 0.09772 0.0
C284 C 0.25672 0.79912 0.02592 0.0
N285 N 0.30035 0.8015 0.90308 0.0
N286 N 0.29295 0.67836 0.17658 0.0
C287 C 0.30617 0.78013 0.97274 0.0
C288 C 0.30409 0.71867 0.11369 0.0
N289 N 0.42073 0.7368 0.94848 0.0
N290 N 0.22346 0.8032 0.15096 0.0
H291 H 0.32104 0.63472 0.18837 0.0
H292 H 0.25093 0.68373 0.21354 0.0
H293 H 0.1901 0.84316 0.14135 0.0
H294 H 0.23028 0.79159 0.20459 0.0
H295 H 0.42935 0.76647 0.89985 0.0
H296 H 0.46479 0.7122 0.96381 0.0
H297 H 0.33085 0.7833 0.86136 0.0
H298 H 0.26126 0.83315 0.88675 0.0
C299 C 0.68931 0.2429 0.05308 0.0
C300 C 0.71264 0.31506 0.04957 0.0
C301 C 0.82469 0.28844 0.99064 0.0
C302 C 0.80836 0.21493 0.00908 0.0
N303 N 0.71941 0.12285 0.0628 0.0
N304 N 0.80449 0.40747 0.01964 0.0
C305 C 0.73881 0.19192 0.04082 0.0
C306 C 0.78102 0.33808 0.01974 0.0
N307 N 0.61904 0.22321 0.06634 0.0
N308 N 0.87886 0.31088 0.94126 0.0
H309 H 0.77346 0.44497 0.04066 0.0
H310 H 0.85646 0.42616 0.00452 0.0
H311 H 0.90644 0.2761 0.91187 0.0
H312 H 0.88954 0.36353 0.9223 0.0
H313 H 0.59692 0.17246 0.06076 0.0
H314 H 0.58168 0.25941 0.07549 0.0
H315 H 0.67256 0.10675 0.09306 0.0
H316 H 0.75093 0.08126 0.05925 0.0
C317 C 0.68415 0.72711 0.01503 0.0
C318 C 0.69491 0.66708 0.97695 0.0
C319 C 0.81167 0.72015 0.93239 0.0
C320 C 0.80578 0.77333 0.98134 0.0
N321 N 0.73892 0.81851 0.07937 0.0
N322 N 0.77044 0.60321 0.90208 0.0
C323 C 0.74236 0.77492 0.02502 0.0
C324 C 0.75895 0.66283 0.93577 0.0
N325 N 0.61798 0.73787 0.04216 0.0
N326 N 0.86595 0.7257 0.88103 0.0
H327 H 0.7317 0.56168 0.90151 0.0
H328 H 0.8193 0.59356 0.87821 0.0
H329 H 0.90315 0.76868 0.87524 0.0
H330 H 0.86965 0.69202 0.8401 0.0
H331 H 0.60573 0.78368 0.06573 0.0
H332 H 0.57429 0.70434 0.03332 0.0
H333 H 0.69584 0.81669 0.11666 0.0
H334 H 0.78191 0.85071 0.09238 0.0
loop_
_geom_bond_atom_site_label_1
_geom_bond_atom_site_label_2
_geom_bond_distance
_geom_bond_site_symmetry_2
_ccdc_geom_bond_type
Cu0 N1 1.999 . S
Cu0 O6 1.974 . S
Cu0 N11 1.985 . S
Cu0 O20 1.959 . S
N1 Cu0 1.999 . S
N1 C3 1.263 . S
N1 C5 1.389 . S
N2 C3 1.358 . S
N2 C4 1.400 . S
C3 N1 1.263 . S
C3 N2 1.358 . S
C3 H9 0.930 1_455 S
C4 N2 1.400 . S
C4 C5 1.351 . S
C4 H21 0.930 . S
C5 N1 1.389 . S
C5 C4 1.351 . S
C5 H10 0.930 . S
O6 Cu0 1.974 . S
O6 C16 1.282 1_455 S
C7 O8 1.261 . S
C7 O20 1.251 1_655 S
O8 C7 1.261 . S
H9 C3 0.930 1_655 S
H10 C5 0.930 . S
N11 Cu0 1.985 . S
N11 C13 1.335 . S
N11 C14 1.390 1_455 S
N12 C13 1.345 . S
N12 C15 1.336 1_455 S
C13 N11 1.335 . S
C13 N12 1.345 . S
C13 H18 0.930 . S
C14 N11 1.390 1_655 S
C14 C15 1.346 . S
C14 H19 0.930 . S
C15 N12 1.336 1_655 S
C15 C14 1.346 . S
C15 H22 0.929 . S
C16 O6 1.282 1_655 S
C16 O17 1.216 . S
O17 C16 1.216 . S
H18 C13 0.930 . S
H19 C14 0.930 . S
O20 Cu0 1.959 . S
O20 C7 1.251 1_455 S
H21 C4 0.930 . S
H22 C15 0.929 . S
Cu23 N24 1.999 . S
Cu23 O29 1.974 . S
Cu23 N34 1.985 . S
Cu23 O43 1.959 . S
N24 Cu23 1.999 . S
N24 C26 1.263 . S
N24 C28 1.389 . S
N25 C26 1.358 . S
N25 C27 1.400 . S
C26 N24 1.263 . S
C26 N25 1.358 . S
C26 H32 0.930 1_565 S
C27 N25 1.400 . S
C27 C28 1.351 . S
C27 H44 0.930 . S
C28 N24 1.389 . S
C28 C27 1.351 . S
C28 H33 0.930 . S
O29 Cu23 1.974 . S
O29 C39 1.282 1_565 S
C30 O31 1.261 . S
C30 O43 1.251 1_545 S
O31 C30 1.261 . S
H32 C26 0.930 1_545 S
H33 C28 0.930 . S
N34 Cu23 1.985 . S
N34 C36 1.335 . S
N34 C37 1.390 1_565 S
N35 C36 1.345 . S
N35 C38 1.336 1_565 S
C36 N34 1.335 . S
C36 N35 1.345 . S
C36 H41 0.930 . S
C37 N34 1.390 1_545 S
C37 C38 1.346 . S
C37 H42 0.930 . S
C38 N35 1.336 1_545 S
C38 C37 1.346 . S
C38 H45 0.929 . S
C39 O29 1.282 1_545 S
C39 O40 1.216 . S
O40 C39 1.216 . S
H41 C36 0.930 . S
H42 C37 0.930 . S
O43 Cu23 1.959 . S
O43 C30 1.251 1_565 S
H44 C27 0.930 . S
H45 C38 0.929 . S
Cu46 N47 1.999 . S
Cu46 O52 1.974 . S
Cu46 N57 1.985 . S
Cu46 O66 1.959 . S
N47 Cu46 1.999 . S
N47 C49 1.263 . S
N47 C51 1.389 . S
N48 C49 1.358 . S
N48 C50 1.400 . S
C49 N47 1.263 . S
C49 N48 1.358 . S
C49 H55 0.930 1_556 S
C50 N48 1.400 . S
C50 C51 1.351 . S
C50 H67 0.930 . S
C51 N47 1.389 . S
C51 C50 1.351 . S
C51 H56 0.930 . S
O52 Cu46 1.974 . S
O52 C62 1.282 1_556 S
C53 O54 1.261 . S
C53 O66 1.251 1_554 S
O54 C53 1.261 . S
H55 C49 0.930 1_554 S
H56 C51 0.930 . S
N57 Cu46 1.985 . S
N57 C59 1.335 . S
N57 C60 1.390 1_556 S
N58 C59 1.345 . S
N58 C61 1.336 1_556 S
C59 N57 1.335 . S
C59 N58 1.345 . S
C59 H64 0.930 . S
C60 N57 1.390 1_554 S
C60 C61 1.346 . S
C60 H65 0.930 . S
C61 N58 1.336 1_554 S
C61 C60 1.346 . S
C61 H68 0.929 . S
C62 O52 1.282 1_554 S
C62 O63 1.216 . S
O63 C62 1.216 . S
H64 C59 0.930 . S
H65 C60 0.930 . S
O66 Cu46 1.959 . S
O66 C53 1.251 1_556 S
H67 C50 0.930 . S
H68 C61 0.929 . S
C69 O95 1.283 . S
C69 O113 1.283 . S
C70 O96 1.283 . S
C70 O111 1.283 1_455 S
C71 O97 1.284 1_455 S
C71 O114 1.282 . S
C72 O98 1.283 . S
C72 O112 1.283 . S
C73 O99 1.283 1_554 S
C73 O108 1.283 . S
C74 O100 1.283 . S
C74 O110 1.283 . S
C75 O101 1.283 . S
C75 O107 1.283 . S
C76 O102 1.283 . S
C76 O109 1.283 1_554 S
C77 O103 1.283 . S
C77 O118 1.283 . S
C78 O104 1.283 . S
C78 O116 1.283 . S
C79 O105 1.283 . S
C79 O117 1.283 . S
C80 O106 1.283 . S
C80 O115 1.283 . S
Eu81 O82 2.370 1_556 S
Eu81 O83 2.370 1_455 S
Eu81 O86 2.370 . S
Eu81 O87 2.370 1_456 S
Eu81 O95 2.363 . S
Eu81 O96 2.363 1_556 S
Eu81 O109 2.363 1_455 S
Eu81 O110 2.363 . S
O82 Eu81 2.370 1_554 S
O82 Eu84 2.370 1_554 S
O82 Eu89 2.366 1_445 S
O83 Eu81 2.370 1_655 S
O83 Eu85 2.370 1_556 S
O83 Eu88 2.370 1_655 S
Eu84 O82 2.370 1_556 S
Eu84 O86 2.370 . S
Eu84 O90 2.370 1_545 S
Eu84 O91 2.370 1_546 S
Eu84 O99 2.363 1_545 S
Eu84 O100 2.363 . S
Eu84 O115 2.363 . S
Eu84 O116 2.363 1_556 S
Eu85 O83 2.370 1_554 S
Eu85 O87 2.370 . S
Eu85 O92 2.371 1_545 S
Eu85 O93 2.371 1_544 S
Eu85 O101 2.364 1_545 S
Eu85 O102 2.362 . S
Eu85 O117 2.363 1_554 S
Eu85 O118 2.363 1_545 S
O86 Eu81 2.370 . S
O86 Eu84 2.370 . S
O86 Eu88 2.370 . S
O87 Eu81 2.370 1_654 S
O87 Eu85 2.370 . S
O87 Eu89 2.365 1_545 S
Eu88 O83 2.370 1_455 S
Eu88 O86 2.370 . S
Eu88 O90 2.370 1_545 S
Eu88 O93 2.370 1_445 S
Eu88 O105 2.363 1_455 S
Eu88 O106 2.363 . S
Eu88 O113 2.363 . S
Eu88 O114 2.363 1_545 S
Eu89 O82 2.366 1_665 S
Eu89 O87 2.365 1_565 S
Eu89 O91 2.375 1_655 S
Eu89 O92 2.375 . S
Eu89 O103 2.363 . S
Eu89 O104 2.363 1_665 S
Eu89 O111 2.355 1_565 S
Eu89 O112 2.371 . S
O90 Eu84 2.370 1_565 S
O90 Eu88 2.370 1_565 S
O90 Eu94 2.370 1_456 S
O91 Eu84 2.370 1_564 S
O91 Eu89 2.375 1_455 S
O91 Eu94 2.370 1_455 S
O92 Eu85 2.371 1_565 S
O92 Eu89 2.375 . S
O92 Eu94 2.370 . S
O93 Eu85 2.371 1_566 S
O93 Eu88 2.370 1_665 S
O93 Eu94 2.370 1_556 S
Eu94 O90 2.370 1_654 S
Eu94 O91 2.370 1_655 S
Eu94 O92 2.370 . S
Eu94 O93 2.370 1_554 S
Eu94 O97 2.363 1_554 S
Eu94 O98 2.363 . S
Eu94 O107 2.363 . S
Eu94 O108 2.363 1_655 S
O95 C69 1.283 . S
O95 Eu81 2.363 . S
O96 C70 1.283 . S
O96 Eu81 2.363 1_554 S
O97 C71 1.284 1_655 S
O97 Eu94 2.363 1_556 S
O98 C72 1.283 . S
O98 Eu94 2.363 . S
O99 C73 1.283 1_556 S
O99 Eu84 2.363 1_565 S
O100 C74 1.283 . S
O100 Eu84 2.363 . S
O101 C75 1.283 . S
O101 Eu85 2.364 1_565 S
O102 C76 1.283 . S
O102 Eu85 2.362 . S
O103 C77 1.283 . S
O103 Eu89 2.363 . S
O104 C78 1.283 . S
O104 Eu89 2.363 1_445 S
O105 C79 1.283 . S
O105 Eu88 2.363 1_655 S
O106 C80 1.283 . S
O106 Eu88 2.363 . S
O107 C75 1.283 . S
O107 Eu94 2.363 . S
O108 C73 1.283 . S
O108 Eu94 2.363 1_455 S
O109 C76 1.283 1_556 S
O109 Eu81 2.363 1_655 S
O110 C74 1.283 . S
O110 Eu81 2.363 . S
O111 C70 1.283 1_655 S
O111 Eu89 2.355 1_545 S
O112 C72 1.283 . S
O112 Eu89 2.371 . S
O113 C69 1.283 . S
O113 Eu88 2.363 . S
O114 C71 1.282 . S
O114 Eu88 2.363 1_565 S
O115 C80 1.283 . S
O115 Eu84 2.363 . S
O116 C78 1.283 . S
O116 Eu84 2.363 1_554 S
O117 C79 1.283 . S
O117 Eu85 2.363 1_556 S
O118 C77 1.283 . S
O118 Eu85 2.363 1_565 S
C119 C120 1.363 . S
C119 C125 1.379 . S
C119 N127 1.356 . S
C120 C119 1.363 . S
C120 C126 1.363 1_455 S
C121 C122 1.363 1_655 S
C121 C126 1.379 . S
C121 N128 1.356 . S
C122 C121 1.363 1_455 S
C122 C125 1.363 . S
N123 C125 1.356 . S
N123 H135 0.984 . S
N123 H136 0.985 . S
N124 C126 1.356 . S
N124 H129 0.984 . S
N124 H130 0.985 . S
C125 C119 1.379 . S
C125 C122 1.363 . S
C125 N123 1.356 . S
C126 C120 1.363 1_655 S
C126 C121 1.379 . S
C126 N124 1.356 . S
N127 C119 1.356 . S
N127 H133 0.984 . S
N127 H134 0.984 . S
N128 C121 1.356 . S
N128 H131 0.984 . S
N128 H132 0.985 . S
H129 N124 0.984 . S
H130 N124 0.985 . S
H131 N128 0.984 . S
H132 N128 0.985 . S
H133 N127 0.984 . S
H134 N127 0.984 . S
H135 N123 0.984 . S
H136 N123 0.985 . S
C137 C138 1.363 1_565 S
C137 C143 1.379 . S
C137 N145 1.356 . S
C138 C137 1.363 1_545 S
C138 C144 1.363 . S
C139 C140 1.363 1_545 S
C139 C144 1.379 . S
C139 N146 1.356 . S
C140 C139 1.363 1_565 S
C140 C143 1.363 . S
N141 C143 1.356 . S
N141 H153 0.984 . S
N141 H154 0.985 . S
N142 C144 1.356 . S
N142 H147 0.984 . S
N142 H148 0.985 . S
C143 C137 1.379 . S
C143 C140 1.363 . S
C143 N141 1.356 . S
C144 C138 1.363 . S
C144 C139 1.379 . S
C144 N142 1.356 . S
N145 C137 1.356 . S
N145 H151 0.984 . S
N145 H152 0.984 . S
N146 C139 1.356 . S
N146 H149 0.984 . S
N146 H150 0.985 . S
H147 N142 0.984 . S
H148 N142 0.985 . S
H149 N146 0.984 . S
H150 N146 0.985 . S
H151 N145 0.984 . S
H152 N145 0.984 . S
H153 N141 0.984 . S
H154 N141 0.985 . S
C155 C156 1.363 1_455 S
C155 C161 1.379 . S
C155 N163 1.356 . S
C156 C155 1.363 1_655 S
C156 C162 1.363 . S
C157 C158 1.363 . S
C157 C162 1.379 . S
C157 N164 1.356 . S
C158 C157 1.363 . S
C158 C161 1.363 1_655 S
N159 C161 1.356 . S
N159 H171 0.984 . S
N159 H172 0.985 . S
N160 C162 1.356 . S
N160 H165 0.984 . S
N160 H166 0.985 . S
C161 C155 1.379 . S
C161 C158 1.363 1_455 S
C161 N159 1.356 . S
C162 C156 1.363 . S
C162 C157 1.379 . S
C162 N160 1.356 . S
N163 C155 1.356 . S
N163 H169 0.984 . S
N163 H170 0.984 . S
N164 C157 1.356 . S
N164 H167 0.984 . S
N164 H168 0.985 . S
H165 N160 0.984 . S
H166 N160 0.985 . S
H167 N164 0.984 . S
H168 N164 0.985 . S
H169 N163 0.984 . S
H170 N163 0.984 . S
H171 N159 0.984 . S
H172 N159 0.985 . S
C173 C174 1.363 1_545 S
C173 C179 1.379 . S
C173 N181 1.356 . S
C174 C173 1.363 1_565 S
C174 C180 1.363 . S
C175 C176 1.363 1_565 S
C175 C180 1.379 . S
C175 N182 1.356 . S
C176 C175 1.363 1_545 S
C176 C179 1.363 . S
N177 C179 1.356 . S
N177 H189 0.984 . S
N177 H190 0.985 . S
N178 C180 1.356 . S
N178 H183 0.984 . S
N178 H184 0.985 . S
C179 C173 1.379 . S
C179 C176 1.363 . S
C179 N177 1.356 . S
C180 C174 1.363 . S
C180 C175 1.379 . S
C180 N178 1.356 . S
N181 C173 1.356 . S
N181 H187 0.984 . S
N181 H188 0.984 . S
N182 C175 1.356 . S
N182 H185 0.984 . S
N182 H186 0.985 . S
H183 N178 0.984 . S
H184 N178 0.985 . S
H185 N182 0.984 . S
H186 N182 0.985 . S
H187 N181 0.984 . S
H188 N181 0.984 . S
H189 N177 0.984 . S
H190 N177 0.985 . S
C191 C192 1.363 1_655 S
C191 C197 1.379 . S
C191 N199 1.356 . S
C192 C191 1.363 1_455 S
C192 C198 1.363 . S
C193 C194 1.363 . S
C193 C198 1.379 . S
C193 N200 1.356 . S
C194 C193 1.363 . S
C194 C197 1.363 1_455 S
N195 C197 1.356 . S
N195 H207 0.984 . S
N195 H208 0.985 . S
N196 C198 1.356 . S
N196 H201 0.984 . S
N196 H202 0.985 . S
C197 C191 1.379 . S
C197 C194 1.363 1_655 S
C197 N195 1.356 . S
C198 C192 1.363 . S
C198 C193 1.379 . S
C198 N196 1.356 . S
N199 C191 1.356 . S
N199 H205 0.984 . S
N199 H206 0.984 . S
N200 C193 1.356 . S
N200 H203 0.984 . S
N200 H204 0.985 . S
H201 N196 0.984 . S
H202 N196 0.985 . S
H203 N200 0.984 . S
H204 N200 0.985 . S
H205 N199 0.984 . S
H206 N199 0.984 . S
H207 N195 0.984 . S
H208 N195 0.985 . S
C209 C210 1.363 1_565 S
C209 C215 1.379 . S
C209 N217 1.356 . S
C210 C209 1.363 1_545 S
C210 C216 1.363 . S
C211 C212 1.363 . S
C211 C216 1.379 . S
C211 N218 1.356 . S
C212 C211 1.363 . S
C212 C215 1.363 1_545 S
N213 C215 1.356 . S
N213 H225 0.984 . S
N213 H226 0.985 . S
N214 C216 1.356 . S
N214 H219 0.984 . S
N214 H220 0.985 . S
C215 C209 1.379 . S
C215 C212 1.363 1_565 S
C215 N213 1.356 . S
C216 C210 1.363 . S
C216 C211 1.379 . S
C216 N214 1.356 . S
N217 C209 1.356 . S
N217 H223 0.984 . S
N217 H224 0.984 . S
N218 C211 1.356 . S
N218 H221 0.984 . S
N218 H222 0.985 . S
H219 N214 0.984 . S
H220 N214 0.985 . S
H221 N218 0.984 . S
H222 N218 0.985 . S
H223 N217 0.984 . S
H224 N217 0.984 . S
H225 N213 0.984 . S
H226 N213 0.985 . S
C227 C228 1.363 . S
C227 C233 1.379 . S
C227 N235 1.356 . S
C228 C227 1.363 . S
C228 C234 1.363 1_655 S
C229 C230 1.363 . S
C229 C234 1.379 . S
C229 N236 1.356 . S
C230 C229 1.363 . S
C230 C233 1.363 1_455 S
N231 C233 1.356 . S
N231 H243 0.984 . S
N231 H244 0.985 . S
N232 C234 1.356 . S
N232 H237 0.984 . S
N232 H238 0.985 . S
C233 C227 1.379 . S
C233 C230 1.363 1_655 S
C233 N231 1.356 . S
C234 C228 1.363 1_455 S
C234 C229 1.379 . S
C234 N232 1.356 . S
N235 C227 1.356 . S
N235 H241 0.984 . S
N235 H242 0.984 . S
N236 C229 1.356 . S
N236 H239 0.984 . S
N236 H240 0.985 . S
H237 N232 0.984 . S
H238 N232 0.985 . S
H239 N236 0.984 . S
H240 N236 0.985 . S
H241 N235 0.984 . S
H242 N235 0.984 . S
H243 N231 0.984 . S
H244 N231 0.985 . S
C245 C246 1.363 . S
C245 C251 1.379 . S
C245 N253 1.356 . S
C246 C245 1.363 . S
C246 C252 1.363 1_565 S
C247 C248 1.363 . S
C247 C252 1.379 . S
C247 N254 1.356 . S
C248 C247 1.363 . S
C248 C251 1.363 1_545 S
N249 C251 1.356 . S
N249 H261 0.984 . S
N249 H262 0.985 . S
N250 C252 1.356 . S
N250 H255 0.984 . S
N250 H256 0.985 . S
C251 C245 1.379 . S
C251 C248 1.363 1_565 S
C251 N249 1.356 . S
C252 C246 1.363 1_545 S
C252 C247 1.379 . S
C252 N250 1.356 . S
N253 C245 1.356 . S
N253 H259 0.984 . S
N253 H260 0.984 . S
N254 C247 1.356 . S
N254 H257 0.984 . S
N254 H258 0.985 . S
H255 N250 0.984 . S
H256 N250 0.985 . S
H257 N254 0.984 . S
H258 N254 0.985 . S
H259 N253 0.984 . S
H260 N253 0.984 . S
H261 N249 0.984 . S
H262 N249 0.985 . S
C263 C264 1.363 . S
C263 C269 1.379 . S
C263 N271 1.356 . S
C264 C263 1.363 . S
C264 C270 1.363 1_554 S
C265 C266 1.363 . S
C265 C270 1.379 . S
C265 N272 1.356 . S
C266 C265 1.363 . S
C266 C269 1.363 1_556 S
N267 C269 1.356 . S
N267 H279 0.984 . S
N267 H280 0.985 . S
N268 C270 1.356 . S
N268 H273 0.984 . S
N268 H274 0.985 . S
C269 C263 1.379 . S
C269 C266 1.363 1_554 S
C269 N267 1.356 . S
C270 C264 1.363 1_556 S
C270 C265 1.379 . S
C270 N268 1.356 . S
N271 C263 1.356 . S
N271 H277 0.984 . S
N271 H278 0.984 . S
N272 C265 1.356 . S
N272 H275 0.984 . S
N272 H276 0.985 . S
H273 N268 0.984 . S
H274 N268 0.985 . S
H275 N272 0.984 . S
H276 N272 0.985 . S
H277 N271 0.984 . S
H278 N271 0.984 . S
H279 N267 0.984 . S
H280 N267 0.985 . S
C281 C282 1.363 . S
C281 C287 1.379 . S
C281 N289 1.356 . S
C282 C281 1.363 . S
C282 C288 1.363 1_556 S
C283 C284 1.363 1_554 S
C283 C288 1.379 . S
C283 N290 1.356 . S
C284 C283 1.363 1_556 S
C284 C287 1.363 . S
N285 C287 1.356 . S
N285 H297 0.984 . S
N285 H298 0.985 . S
N286 C288 1.356 . S
N286 H291 0.984 . S
N286 H292 0.985 . S
C287 C281 1.379 . S
C287 C284 1.363 . S
C287 N285 1.356 . S
C288 C282 1.363 1_554 S
C288 C283 1.379 . S
C288 N286 1.356 . S
N289 C281 1.356 . S
N289 H295 0.984 . S
N289 H296 0.984 . S
N290 C283 1.356 . S
N290 H293 0.984 . S
N290 H294 0.985 . S
H291 N286 0.984 . S
H292 N286 0.985 . S
H293 N290 0.984 . S
H294 N290 0.985 . S
H295 N289 0.984 . S
H296 N289 0.984 . S
H297 N285 0.984 . S
H298 N285 0.985 . S
C299 C300 1.363 1_554 S
C299 C305 1.379 . S
C299 N307 1.356 . S
C300 C299 1.363 1_556 S
C300 C306 1.363 . S
C301 C302 1.363 . S
C301 C306 1.379 . S
C301 N308 1.356 . S
C302 C301 1.363 . S
C302 C305 1.363 1_556 S
N303 C305 1.356 . S
N303 H315 0.984 . S
N303 H316 0.985 . S
N304 C306 1.356 . S
N304 H309 0.984 . S
N304 H310 0.985 . S
C305 C299 1.379 . S
C305 C302 1.363 1_554 S
C305 N303 1.356 . S
C306 C300 1.363 . S
C306 C301 1.379 . S
C306 N304 1.356 . S
N307 C299 1.356 . S
N307 H313 0.984 . S
N307 H314 0.986 . S
N308 C301 1.356 . S
N308 H311 0.984 . S
N308 H312 0.985 . S
H309 N304 0.984 . S
H310 N304 0.985 . S
H311 N308 0.984 . S
H312 N308 0.985 . S
H313 N307 0.984 . S
H314 N307 0.986 . S
H315 N303 0.984 . S
H316 N303 0.985 . S
C317 C318 1.363 . S
C317 C323 1.379 . S
C317 N325 1.356 . S
C318 C317 1.363 . S
C318 C324 1.363 1_554 S
C319 C320 1.363 1_556 S
C319 C324 1.379 . S
C319 N326 1.356 . S
C320 C319 1.363 1_554 S
C320 C323 1.363 . S
N321 C323 1.356 . S
N321 H333 0.984 . S
N321 H334 0.985 . S
N322 C324 1.356 . S
N322 H327 0.984 . S
N322 H328 0.985 . S
C323 C317 1.379 . S
C323 C320 1.363 . S
C323 N321 1.356 . S
C324 C318 1.363 1_556 S
C324 C319 1.379 . S
C324 N322 1.356 . S
N325 C317 1.356 . S
N325 H331 0.984 . S
N325 H332 0.984 . S
N326 C319 1.356 . S
N326 H329 0.984 . S
N326 H330 0.985 . S
H327 N322 0.984 . S
H328 N322 0.985 . S
H329 N326 0.984 . S
H330 N326 0.985 . S
H331 N325 0.984 . S
H332 N325 0.984 . S
H333 N321 0.984 . S
H334 N321 0.985 . S
C122 C70 1.294 . S
C120 N2 1.249 . S
C140 C77 1.635 . S
C138 C39 1.632 . S
C158 C72 1.516 . S
C156 C7 1.506 . S
C176 C78 1.394 . S
C174 N35 1.331 . S
C192 N12 1.207 . S
C194 C71 1.276 . S
C212 C80 1.653 . S
C210 C30 1.647 . S
C228 C16 1.495 . S
C230 C69 1.502 . S
C246 N25 1.376 . S
C248 C79 1.418 . S
C264 C62 1.767 . S
C266 C74 1.777 . S
C282 N48 1.497 . S
C284 C73 1.554 1_556 S
C302 C76 1.534 1_556 S
C300 N58 1.452 . S
C320 C75 1.795 . S
C318 C53 1.783 . S
