# Generated by pormake.
# Topology ssb, (4,4)-cn, num edge types: 1
# Building blocks:
#     Node 0, Type 0, BuildingBlock: NAWXER_clean_sbu_0, # of connection points: 4
#     Node 1, Type 0, BuildingBlock: NAWXER_clean_sbu_0, # of connection points: 4
#     Node 2, Type 0, BuildingBlock: NAWXER_clean_sbu_0, # of connection points: 4
#     Node 3, Type 0, BuildingBlock: NAWXER_clean_sbu_0, # of connection points: 4
#     Node 4, Type 0, BuildingBlock: NAWXER_clean_sbu_0, # of connection points: 4
#     Node 5, Type 0, BuildingBlock: NAWXER_clean_sbu_0, # of connection points: 4
#     Node 6, Type 0, BuildingBlock: NAWXER_clean_sbu_0, # of connection points: 4
#     Node 7, Type 0, BuildingBlock: NAWXER_clean_sbu_0, # of connection points: 4
#     Node 8, Type 1, BuildingBlock: KOZSID_clean_sbu_0, # of connection points: 4
#     Node 9, Type 1, BuildingBlock: KOZSID_clean_sbu_0, # of connection points: 4
#     Node 10, Type 1, BuildingBlock: KOZSID_clean_sbu_0, # of connection points: 4
#     Node 11, Type 1, BuildingBlock: KOZSID_clean_sbu_0, # of connection points: 4
#     Node 12, Type 1, BuildingBlock: KOZSID_clean_sbu_0, # of connection points: 4
#     Node 13, Type 1, BuildingBlock: KOZSID_clean_sbu_0, # of connection points: 4
#     Node 14, Type 1, BuildingBlock: KOZSID_clean_sbu_0, # of connection points: 4
#     Node 15, Type 1, BuildingBlock: KOZSID_clean_sbu_0, # of connection points: 4
#     Edge 16, Type (0, 1), BuildingBlock: CIFDUS_clean_linker_0, # of connection points: 2
#     Edge 17, Type (0, 1), BuildingBlock: CIFDUS_clean_linker_0, # of connection points: 2
#     Edge 18, Type (0, 1), BuildingBlock: CIFDUS_clean_linker_0, # of connection points: 2
#     Edge 19, Type (0, 1), BuildingBlock: CIFDUS_clean_linker_0, # of connection points: 2
#     Edge 20, Type (0, 1), BuildingBlock: CIFDUS_clean_linker_0, # of connection points: 2
#     Edge 21, Type (0, 1), BuildingBlock: CIFDUS_clean_linker_0, # of connection points: 2
#     Edge 22, Type (0, 1), BuildingBlock: CIFDUS_clean_linker_0, # of connection points: 2
#     Edge 23, Type (0, 1), BuildingBlock: CIFDUS_clean_linker_0, # of connection points: 2
#     Edge 24, Type (0, 1), BuildingBlock: CIFDUS_clean_linker_0, # of connection points: 2
#     Edge 25, Type (0, 1), BuildingBlock: CIFDUS_clean_linker_0, # of connection points: 2
#     Edge 26, Type (0, 1), BuildingBlock: CIFDUS_clean_linker_0, # of connection points: 2
#     Edge 27, Type (0, 1), BuildingBlock: CIFDUS_clean_linker_0, # of connection points: 2
#     Edge 28, Type (0, 1), BuildingBlock: CIFDUS_clean_linker_0, # of connection points: 2
#     Edge 29, Type (0, 1), BuildingBlock: CIFDUS_clean_linker_0, # of connection points: 2
#     Edge 30, Type (0, 1), BuildingBlock: CIFDUS_clean_linker_0, # of connection points: 2
#     Edge 31, Type (0, 1), BuildingBlock: CIFDUS_clean_linker_0, # of connection points: 2
#     Edge 32, Type (0, 1), BuildingBlock: CIFDUS_clean_linker_0, # of connection points: 2
#     Edge 33, Type (0, 1), BuildingBlock: CIFDUS_clean_linker_0, # of connection points: 2
#     Edge 34, Type (0, 1), BuildingBlock: CIFDUS_clean_linker_0, # of connection points: 2
#     Edge 35, Type (0, 1), BuildingBlock: CIFDUS_clean_linker_0, # of connection points: 2
#     Edge 36, Type (0, 1), BuildingBlock: CIFDUS_clean_linker_0, # of connection points: 2
#     Edge 37, Type (0, 1), BuildingBlock: CIFDUS_clean_linker_0, # of connection points: 2
#     Edge 38, Type (0, 1), BuildingBlock: CIFDUS_clean_linker_0, # of connection points: 2
#     Edge 39, Type (0, 1), BuildingBlock: CIFDUS_clean_linker_0, # of connection points: 2
#     Edge 40, Type (0, 1), BuildingBlock: CIFDUS_clean_linker_0, # of connection points: 2
#     Edge 41, Type (0, 1), BuildingBlock: CIFDUS_clean_linker_0, # of connection points: 2
#     Edge 42, Type (0, 1), BuildingBlock: CIFDUS_clean_linker_0, # of connection points: 2
#     Edge 43, Type (0, 1), BuildingBlock: CIFDUS_clean_linker_0, # of connection points: 2
#     Edge 44, Type (0, 1), BuildingBlock: CIFDUS_clean_linker_0, # of connection points: 2
#     Edge 45, Type (0, 1), BuildingBlock: CIFDUS_clean_linker_0, # of connection points: 2
#     Edge 46, Type (0, 1), BuildingBlock: CIFDUS_clean_linker_0, # of connection points: 2
#     Edge 47, Type (0, 1), BuildingBlock: CIFDUS_clean_linker_0, # of connection points: 2
# Relax obj value: 0.006
# Max RMSD: 0.032
# Mean RMSD: 0.019
data_MOF--net-ssb--node1-NAWXER_clean_sbu_0--node2-KOZSID_clean_sbu_0--edge1-CIFDUS_clean_linker_0
_symmetry_space_group_name_H-M    P1
_symmetry_Int_Tables_number       1
_symmetry_cell_setting            triclinic
loop_
_symmetry_equiv_pos_as_xyz
'x, y, z'
_cell_length_a     46.920481
_cell_length_b     46.758474
_cell_length_c     34.249316
_cell_angle_alpha  92.850873
_cell_angle_beta   95.477868
_cell_angle_gamma 90.05717
loop_
_atom_site_label
_atom_site_type_symbol
_atom_site_fract_x
_atom_site_fract_y
_atom_site_fract_z
_atom_type_partial_charge
C0 C 0.19736 0.25252 0.29931 0.0
C1 C 0.28473 0.23317 0.23125 0.0
O2 O 0.1984 0.23937 0.26599 0.0
Zn3 Zn 0.23978 0.24322 0.26167 0.0
O4 O 0.22045 0.26345 0.31699 0.0
Zn5 Zn 0.26516 0.26604 0.30942 0.0
O6 O 0.27143 0.30789 0.30136 0.0
O7 O 0.24558 0.28757 0.25069 0.0
O8 O 0.28887 0.2479 0.26388 0.0
O9 O 0.25931 0.22536 0.2186 0.0
O10 O 0.25624 0.21717 0.30813 0.0
O11 O 0.28092 0.24289 0.35513 0.0
C12 C 0.2582 0.30996 0.26722 0.0
C13 C 0.27105 0.2185 0.34158 0.0
C14 C 0.71075 0.24493 0.22747 0.0
C15 C 0.80677 0.25414 0.30281 0.0
O16 O 0.71148 0.25868 0.26086 0.0
Zn17 Zn 0.74123 0.27352 0.30874 0.0
O18 O 0.73411 0.23595 0.21519 0.0
Zn19 Zn 0.75979 0.24977 0.26178 0.0
O20 O 0.74492 0.22511 0.30664 0.0
O21 O 0.7268 0.25377 0.35116 0.0
O22 O 0.80138 0.24241 0.26849 0.0
O23 O 0.78633 0.2662 0.31965 0.0
O24 O 0.73787 0.31486 0.30661 0.0
O25 O 0.75785 0.2947 0.25641 0.0
C26 C 0.7329 0.22864 0.3386 0.0
C27 C 0.74906 0.31714 0.27452 0.0
C28 C 0.74878 0.71043 0.25598 0.0
C29 C 0.74187 0.80708 0.32784 0.0
O30 O 0.73926 0.7149 0.28946 0.0
Zn31 Zn 0.74432 0.75753 0.29472 0.0
O32 O 0.75783 0.73192 0.2388 0.0
Zn33 Zn 0.76252 0.77754 0.24742 0.0
O34 O 0.80402 0.78207 0.2496 0.0
O35 O 0.78997 0.76113 0.30082 0.0
O36 O 0.75217 0.80699 0.29442 0.0
O37 O 0.73411 0.78322 0.3401 0.0
O38 O 0.71418 0.76984 0.24764 0.0
O39 O 0.73734 0.78951 0.20255 0.0
C40 C 0.8102 0.77066 0.28231 0.0
C41 C 0.71389 0.78126 0.21433 0.0
C42 C 0.24616 0.73231 0.18746 0.0
C43 C 0.26866 0.8244 0.25696 0.0
O44 O 0.23863 0.75658 0.17484 0.0
Zn45 Zn 0.25851 0.77933 0.21853 0.0
O46 O 0.26274 0.73071 0.21913 0.0
Zn47 Zn 0.28438 0.75785 0.26374 0.0
O48 O 0.26692 0.74464 0.30939 0.0
O49 O 0.23674 0.76596 0.2668 0.0
O50 O 0.28098 0.80295 0.27311 0.0
O51 O 0.25357 0.82066 0.22419 0.0
O52 O 0.30227 0.7743 0.20776 0.0
O53 O 0.32476 0.7516 0.25636 0.0
C54 C 0.24166 0.75326 0.29906 0.0
C55 C 0.32528 0.76336 0.22372 0.0
C56 C 0.31949 0.75294 0.75995 0.0
C57 C 0.22215 0.74465 0.69282 0.0
O58 O 0.30061 0.76828 0.77555 0.0
Zn59 Zn 0.25661 0.77858 0.76705 0.0
O60 O 0.31259 0.73872 0.72773 0.0
Zn61 Zn 0.27182 0.74902 0.72271 0.0
O62 O 0.2726 0.79289 0.70752 0.0
O63 O 0.25683 0.82052 0.75433 0.0
O64 O 0.24439 0.73294 0.68065 0.0
O65 O 0.22459 0.76135 0.72382 0.0
O66 O 0.24451 0.7615 0.8157 0.0
O67 O 0.25763 0.72868 0.77263 0.0
C68 C 0.26647 0.81806 0.7207 0.0
C69 C 0.24836 0.73513 0.80594 0.0
C70 C 0.28486 0.26061 0.69603 0.0
C71 C 0.26626 0.34486 0.78018 0.0
O72 O 0.27477 0.25552 0.72835 0.0
Zn73 Zn 0.26006 0.27651 0.77818 0.0
O74 O 0.28806 0.28632 0.68644 0.0
Zn75 Zn 0.27439 0.30371 0.73462 0.0
O76 O 0.30739 0.29045 0.77847 0.0
O77 O 0.28812 0.26142 0.81786 0.0
O78 O 0.27404 0.34511 0.74559 0.0
O79 O 0.2605 0.32093 0.79439 0.0
O80 O 0.21933 0.26535 0.77261 0.0
O81 O 0.22996 0.29207 0.72487 0.0
C82 C 0.31006 0.27419 0.80768 0.0
C83 C 0.21157 0.27727 0.74071 0.0
C84 C 0.73633 0.22434 0.73011 0.0
C85 C 0.75027 0.31523 0.81564 0.0
O86 O 0.72659 0.24903 0.72194 0.0
Zn87 Zn 0.74255 0.2709 0.77047 0.0
O88 O 0.75088 0.22162 0.76337 0.0
Zn89 Zn 0.76661 0.24773 0.81482 0.0
O90 O 0.74593 0.2307 0.85567 0.0
O91 O 0.71777 0.25457 0.81378 0.0
O92 O 0.76191 0.29295 0.8307 0.0
O93 O 0.7376 0.3126 0.78098 0.0
O94 O 0.7872 0.26759 0.76341 0.0
O95 O 0.80832 0.24349 0.81149 0.0
C96 C 0.72106 0.23997 0.84456 0.0
C97 C 0.80994 0.25656 0.77997 0.0
C98 C 0.81086 0.73192 0.69886 0.0
C99 C 0.72911 0.75016 0.7764 0.0
O100 O 0.785 0.72418 0.68958 0.0
Zn101 Zn 0.769 0.73918 0.73702 0.0
O102 O 0.81763 0.74489 0.73231 0.0
Zn103 Zn 0.79766 0.75988 0.78271 0.0
O104 O 0.81469 0.73737 0.82478 0.0
O105 O 0.78556 0.71225 0.78171 0.0
O106 O 0.75327 0.75933 0.79299 0.0
O107 O 0.72805 0.7366 0.74308 0.0
O108 O 0.77408 0.78438 0.73431 0.0
O109 O 0.80472 0.80082 0.78338 0.0
C110 C 0.80225 0.71379 0.81359 0.0
C111 C 0.78767 0.80536 0.75316 0.0
C112 C 0.04761 0.29217 0.59293 0.0
C113 C 0.0547 0.3185 0.61189 0.0
C114 C 0.03343 0.33706 0.59991 0.0
C115 C 0.01457 0.32106 0.57454 0.0
N116 N 0.02261 0.2936 0.56972 0.0
Co117 Co 1.0012 0.26323 0.53614 0.0
N118 N 0.97776 0.29191 0.5063 0.0
C119 C 0.97567 0.31992 0.51695 0.0
C120 C 0.95814 0.33478 0.49088 0.0
C121 C 0.94803 0.31484 0.46233 0.0
C122 C 0.95976 0.28872 0.47282 0.0
N123 N 0.97956 0.23273 0.50271 0.0
C124 C 0.9608 0.23446 0.47004 0.0
C125 C 0.94981 0.20763 0.45745 0.0
C126 C 0.96166 0.18859 0.48333 0.0
C127 C 0.97917 0.20472 0.51028 0.0
N128 N 0.02482 0.23478 0.56611 0.0
C129 C 0.01914 0.20662 0.56676 0.0
C130 C 0.03967 0.19214 0.58915 0.0
C131 C 0.05951 0.21247 0.60361 0.0
C132 C 0.04985 0.23834 0.58937 0.0
N133 N 0.9723 0.26224 0.57451 0.0
C134 C 0.93029 0.26426 0.62848 0.0
C135 C 0.95958 0.26386 0.64154 0.0
C136 C 0.98018 0.26292 0.61415 0.0
C137 C 0.9227 0.26256 0.58781 0.0
C138 C 0.9438 0.26158 0.56162 0.0
N139 N 0.03005 0.26431 0.49795 0.0
C140 C 0.06206 0.24004 0.45605 0.0
C141 C 0.07328 0.26626 0.44619 0.0
C142 C 0.06181 0.29144 0.46219 0.0
C143 C 0.04023 0.29002 0.48763 0.0
C144 C 0.04067 0.23953 0.48209 0.0
H145 H 0.03208 0.30983 0.49935 0.0
H146 H 0.0331 0.21901 0.48983 0.0
H147 H 1.00251 0.26325 0.62515 0.0
H148 H 0.93681 0.2607 0.53083 0.0
C149 C 0.99237 0.33198 0.54963 0.0
C150 C 0.06422 0.26602 0.59948 0.0
C151 C 0.94971 0.26119 0.45352 0.0
C152 C 0.99734 0.19405 0.54088 0.0
H153 H 0.07327 0.3237 0.63224 0.0
H154 H 0.03249 0.35977 0.60752 0.0
H155 H 0.95338 0.35743 0.49232 0.0
H156 H 0.93283 0.31884 0.43742 0.0
H157 H 0.93414 0.20245 0.43284 0.0
H158 H 0.958 0.1657 0.48251 0.0
H159 H 0.04079 0.16932 0.59303 0.0
H160 H 0.07892 0.20858 0.62222 0.0
H161 H 0.96658 0.26517 0.67263 0.0
H162 H 0.90043 0.26218 0.57607 0.0
H163 H 0.07038 0.22001 0.44477 0.0
H164 H 0.06954 0.31223 0.45518 0.0
C165 C 0.70834 0.05993 0.58763 0.0
C166 C 0.68238 0.06949 0.59949 0.0
C167 C 0.66179 0.05117 0.58196 0.0
C168 C 0.67623 0.03136 0.56068 0.0
N169 N 0.70487 0.03578 0.56358 0.0
Co170 Co 0.73359 0.01141 0.53712 0.0
N171 N 0.70309 0.98502 0.51019 0.0
C172 C 0.67454 0.98786 0.51181 0.0
C173 C 0.65866 0.96683 0.49049 0.0
C174 C 0.67818 0.94935 0.47441 0.0
C175 C 0.70505 0.96059 0.48706 0.0
N176 N 0.76236 0.98658 0.51141 0.0
C177 C 0.75899 0.96172 0.48879 0.0
C178 C 0.78517 0.95092 0.47942 0.0
C179 C 0.80572 0.96945 0.49643 0.0
C180 C 0.79111 0.99038 0.51546 0.0
N181 N 0.76407 0.03811 0.56333 0.0
C182 C 0.79242 0.03652 0.55926 0.0
C183 C 0.80816 0.05842 0.57877 0.0
C184 C 0.78873 0.07518 0.59623 0.0
C185 C 0.76209 0.06241 0.58664 0.0
N186 N 0.73744 0.98682 0.58267 0.0
C187 C 0.74289 0.94457 0.63839 0.0
C188 C 0.76708 0.95781 0.62645 0.0
C189 C 0.76387 0.97901 0.59913 0.0
C190 C 0.71597 0.95475 0.62462 0.0
C191 C 0.71376 0.97564 0.5969 0.0
N192 N 0.72982 0.0362 0.49159 0.0
C193 C 0.75221 0.06427 0.4456 0.0
C194 C 0.72661 0.07851 0.43608 0.0
C195 C 0.70218 0.07001 0.45266 0.0
C196 C 0.70415 0.04853 0.47963 0.0
C197 C 0.75334 0.04335 0.47325 0.0
H198 H 0.68475 0.04283 0.49106 0.0
H199 H 0.7737 0.03397 0.48007 0.0
H200 H 0.78307 0.98796 0.5907 0.0
H201 H 0.69265 0.98168 0.58644 0.0
C202 C 0.66345 0.0093 0.53588 0.0
C203 C 0.73562 0.0746 0.60004 0.0
C204 C 0.73167 0.94708 0.47631 0.0
C205 C 0.80368 0.01397 0.53729 0.0
H206 H 0.67862 0.08796 0.61858 0.0
H207 H 0.63895 0.05241 0.58403 0.0
H208 H 0.63562 0.96419 0.48763 0.0
H209 H 0.6732 0.93028 0.45577 0.0
H210 H 0.78913 0.93144 0.46245 0.0
H211 H 0.82864 0.96771 0.49539 0.0
H212 H 0.83105 0.06189 0.57997 0.0
H213 H 0.79364 0.09476 0.61379 0.0
H214 H 0.78845 0.95089 0.63638 0.0
H215 H 0.69657 0.94587 0.63403 0.0
H216 H 0.77163 0.07014 0.43311 0.0
H217 H 0.68175 0.08013 0.44522 0.0
C218 C 0.06494 0.7628 0.5444 0.0
C219 C 0.07712 0.78784 0.56216 0.0
C220 C 0.06122 0.80993 0.54741 0.0
C221 C 0.04047 0.79722 0.5214 0.0
N222 N 0.04164 0.76828 0.51931 0.0
Co223 Co 0.01781 0.74156 0.4817 0.0
N224 N 0.99629 0.77425 0.45701 0.0
C225 C 0.9993 0.80237 0.46799 0.0
C226 C 0.98027 0.81967 0.44765 0.0
C227 C 0.96368 0.80151 0.42265 0.0
C228 C 0.97373 0.77405 0.42904 0.0
N229 N 0.99504 0.71495 0.44289 0.0
C230 C 0.97341 0.72049 0.41517 0.0
C231 C 0.96361 0.69572 0.39413 0.0
C232 C 0.97916 0.67365 0.40971 0.0
C233 C 0.99764 0.68618 0.43907 0.0
N234 N 0.03842 0.70887 0.50741 0.0
C235 C 0.03323 0.68064 0.49941 0.0
C236 C 0.05126 0.66324 0.52133 0.0
C237 C 0.06934 0.68146 0.54421 0.0
C238 C 0.06134 0.70899 0.53469 0.0
N239 N 0.98785 0.73924 0.519 0.0
C240 C 0.94514 0.73661 0.57161 0.0
C241 C 0.95112 0.71281 0.54754 0.0
C242 C 0.97253 0.71451 0.52184 0.0
C243 C 0.96066 0.76177 0.56855 0.0
C244 C 0.98158 0.76264 0.54227 0.0
N245 N 0.04787 0.74386 0.44482 0.0
C246 C 0.08563 0.72147 0.41078 0.0
C247 C 0.095 0.74807 0.40011 0.0
C248 C 0.0799 0.77239 0.41119 0.0
C249 C 0.05667 0.76985 0.43338 0.0
C250 C 0.06193 0.71982 0.43251 0.0
H251 H 0.04651 0.7893 0.44151 0.0
H252 H 0.0556 0.69889 0.43943 0.0
H253 H 0.97631 0.69549 0.50468 0.0
H254 H 0.9923 0.78259 0.54134 0.0
C255 C 0.02027 0.81185 0.49744 0.0
C256 C 0.07721 0.73448 0.55045 0.0
C257 C 0.96016 0.74839 0.40948 0.0
C258 C 0.01486 0.67133 0.46673 0.0
H259 H 0.09604 0.79007 0.58276 0.0
H260 H 0.06493 0.83259 0.5539 0.0
H261 H 0.97836 0.84271 0.45108 0.0
H262 H 0.94584 0.8078 0.40259 0.0
H263 H 0.94632 0.69376 0.37083 0.0
H264 H 0.97643 0.65105 0.40176 0.0
H265 H 0.05225 0.6401 0.51923 0.0
H266 H 0.08712 0.67523 0.56445 0.0
H267 H 0.93976 0.69278 0.54907 0.0
H268 H 0.95652 0.78092 0.5862 0.0
H269 H 0.09636 0.702 0.40208 0.0
H270 H 0.08637 0.79348 0.40349 0.0
C271 C 0.30179 0.97205 0.58741 0.0
C272 C 0.32745 0.96044 0.60266 0.0
C273 C 0.34887 0.97511 0.58792 0.0
C274 C 0.33527 0.99488 0.56456 0.0
N275 N 0.3064 0.99392 0.56367 0.0
Co276 Co 0.27885 0.01877 0.53193 0.0
N277 N 0.31048 0.04196 0.5129 0.0
C278 C 0.33881 0.03881 0.5231 0.0
C279 C 0.35548 0.05927 0.5089 0.0
C280 C 0.33665 0.07701 0.48919 0.0
C281 C 0.30944 0.06632 0.49244 0.0
N282 N 0.25131 0.04247 0.49852 0.0
C283 C 0.25575 0.06572 0.47735 0.0
C284 C 0.2302 0.07575 0.45933 0.0
C285 C 0.20895 0.05854 0.46976 0.0
C286 C 0.22259 0.03901 0.49347 0.0
N287 N 0.24717 0.99694 0.55308 0.0
C288 C 0.21884 1.00125 0.54454 0.0
C289 C 0.20185 0.98367 0.56339 0.0
C290 C 0.22041 0.96719 0.58558 0.0
C291 C 0.24786 0.9757 0.57913 0.0
N292 N 0.27841 0.04753 0.57613 0.0
C293 C 0.28528 0.09996 0.61898 0.0
C294 C 0.25887 0.09232 0.59882 0.0
C295 C 0.25568 0.06569 0.57849 0.0
C296 C 0.30693 0.07954 0.62138 0.0
C297 C 0.30295 0.05345 0.60016 0.0
N298 N 0.27978 0.99042 0.48683 0.0
C299 C 0.2562 0.95664 0.43822 0.0
C300 C 0.28235 0.94933 0.42415 0.0
C301 C 0.30696 0.96349 0.44119 0.0
C302 C 0.30522 0.9837 0.47209 0.0
C303 C 0.2554 0.97707 0.46944 0.0
H304 H 0.3249 0.99336 0.48369 0.0
H305 H 0.2349 0.98141 0.47925 0.0
H306 H 0.23516 0.06082 0.56321 0.0
H307 H 0.32069 0.03921 0.60193 0.0
C308 C 0.34893 0.01647 0.54629 0.0
C309 C 0.27374 0.96213 0.59743 0.0
C310 C 0.28332 0.08027 0.47581 0.0
C311 C 0.20889 0.02037 0.51634 0.0
H312 H 0.33046 0.94344 0.62294 0.0
H313 H 0.37169 0.97222 0.59433 0.0
H314 H 0.37856 0.06133 0.51297 0.0
H315 H 0.34225 0.09589 0.47449 0.0
H316 H 0.22705 0.09429 0.44177 0.0
H317 H 0.18613 0.06101 0.4627 0.0
H318 H 0.1787 0.9825 0.56061 0.0
H319 H 0.21434 0.95043 0.60387 0.0
H320 H 0.24103 0.10704 0.59798 0.0
H321 H 0.32746 0.08423 0.63773 0.0
H322 H 0.23656 0.94604 0.42606 0.0
H323 H 0.32768 0.95885 0.4309 0.0
C324 C 0.56508 0.79731 0.03711 0.0
C325 C 0.57476 0.8249 0.04792 0.0
C326 C 0.55732 0.84298 0.02676 0.0
C327 C 0.53801 0.82549 1.00446 0.0
N328 N 0.54183 0.7973 0.01034 0.0
Co329 Co 0.51864 0.7645 0.98373 0.0
N330 N 0.49517 0.79095 0.94934 0.0
C331 C 0.49809 0.81972 0.94871 0.0
C332 C 0.47945 0.83203 0.92129 0.0
C333 C 0.46354 0.80985 0.90337 0.0
C334 C 0.47334 0.78519 0.92116 0.0
N335 N 0.49509 0.73179 0.95751 0.0
C336 C 0.47264 0.73175 0.92935 0.0
C337 C 0.46181 0.70434 0.92031 0.0
C338 C 0.47793 0.68641 0.94358 0.0
C339 C 0.49754 0.7038 0.96552 0.0
N340 N 0.54271 0.73806 0.01748 0.0
C341 C 0.54014 0.70924 0.0177 0.0
C342 C 0.56051 0.69675 0.04262 0.0
C343 C 0.57738 0.71884 0.05896 0.0
C344 C 0.56621 0.74365 0.04307 0.0
N345 N 0.49081 0.76868 0.02426 0.0
C346 C 0.44813 0.77371 0.07731 0.0
C347 C 0.46145 0.74755 0.06996 0.0
C348 C 0.48251 0.74554 0.04363 0.0
C349 C 0.45735 0.79753 0.05868 0.0
C350 C 0.47855 0.79459 0.03268 0.0
N351 N 0.54622 0.76018 0.94329 0.0
C352 C 0.57487 0.73007 0.90295 0.0
C353 C 0.58684 0.754 0.88776 0.0
C354 C 0.57765 0.78108 0.90029 0.0
C355 C 0.55749 0.78365 0.92776 0.0
C356 C 0.55482 0.73361 0.93045 0.0
H357 H 0.55152 0.80487 0.93626 0.0
H358 H 0.54687 0.71452 0.9413 0.0
H359 H 0.49132 0.72486 0.03896 0.0
H360 H 0.48435 0.81355 0.01935 0.0
C361 C 0.51784 0.83469 0.97521 0.0
C362 C 0.57926 0.77186 0.05221 0.0
C363 C 0.46034 0.75709 0.91122 0.0
C364 C 0.51881 0.69449 0.99334 0.0
H365 H 0.59294 0.83125 0.06839 0.0
H366 H 0.55909 0.86606 0.02669 0.0
H367 H 0.47744 0.8545 0.91538 0.0
H368 H 0.44637 0.81163 0.88016 0.0
H369 H 0.44399 0.69801 0.89922 0.0
H370 H 0.47559 0.66342 0.94446 0.0
H371 H 0.56311 0.6742 0.04774 0.0
H372 H 0.59607 0.71687 0.07973 0.0
H373 H 0.45501 0.72839 0.08342 0.0
H374 H 0.44812 0.81843 0.06391 0.0
H375 H 0.58152 0.70863 0.89455 0.0
H376 H 0.58602 0.8003 0.88901 0.0
C377 C 0.21471 0.56028 0.07407 0.0
C378 C 0.18707 0.56817 0.08091 0.0
C379 C 0.16917 0.54897 0.05948 0.0
C380 C 0.18685 0.53067 0.04072 0.0
N381 N 0.21496 0.53649 0.04994 0.0
Co382 Co 0.24817 0.51808 0.02616 0.0
N383 N 0.22202 0.4961 0.98567 0.0
C384 C 0.19305 0.4962 0.98214 0.0
C385 C 0.18093 0.47922 0.95119 0.0
C386 C 0.2035 0.46746 0.93396 0.0
C387 C 0.22818 0.47794 0.95559 0.0
N388 N 0.28143 0.49975 1.00233 0.0
C389 C 0.28197 0.48084 0.97106 0.0
C390 C 0.30974 0.47304 0.96473 0.0
C391 C 0.32739 0.48737 0.99317 0.0
C392 C 0.30947 0.50306 0.01518 0.0
N393 N 0.27416 0.54057 0.06603 0.0
C394 C 0.30297 0.53887 0.07231 0.0
C395 C 0.31484 0.5592 0.09933 0.0
C396 C 0.29231 0.57541 0.10986 0.0
C397 C 0.26804 0.56392 0.08849 0.0
N398 N 0.24729 0.48535 0.06304 0.0
C399 C 0.24596 0.43868 0.1146 0.0
C400 C 0.27124 0.45386 0.11089 0.0
C401 C 0.27147 0.4766 0.08521 0.0
C402 C 0.22131 0.44776 0.09215 0.0
C403 C 0.22241 0.47073 0.06714 0.0
N404 N 0.24912 0.55077 0.99031 0.0
C405 C 0.27523 0.58997 0.96565 0.0
C406 C 0.25005 0.60182 0.94791 0.0
C407 C 0.22448 0.58675 0.95062 0.0
C408 C 0.22447 0.56162 0.97185 0.0
C409 C 0.27434 0.56464 0.98606 0.0
H410 H 0.20416 0.55161 0.97383 0.0
H411 H 0.29432 0.5569 0.99901 0.0
H412 H 0.2917 0.48648 0.08367 0.0
H413 H 0.2027 0.47609 0.05128 0.0
C414 C 0.17783 0.51221 0.00865 0.0
C415 C 0.24006 0.57738 0.08723 0.0
C416 C 0.25684 0.46893 0.94738 0.0
C417 C 0.31835 0.5213 0.04769 0.0
H418 H 0.18037 0.58674 0.09769 0.0
H419 H 0.14603 0.54979 0.05542 0.0
H420 H 0.15838 0.47566 0.94239 0.0
H421 H 0.20199 0.45255 0.90863 0.0
H422 H 0.31649 0.45831 0.94205 0.0
H423 H 0.35052 0.48642 0.99737 0.0
H424 H 0.33734 0.5631 0.10813 0.0
H425 H 0.29368 0.59444 0.1293 0.0
H426 H 0.29113 0.44777 0.12695 0.0
H427 H 0.20093 0.43726 0.0939 0.0
H428 H 0.29573 0.60024 0.96388 0.0
H429 H 0.20434 0.59479 0.93752 0.0
C430 C 0.45379 0.26151 0.97618 0.0
C431 C 0.43548 0.28482 0.97972 0.0
C432 C 0.44709 0.30254 0.00996 0.0
C433 C 0.47086 0.2886 0.02509 0.0
N434 N 0.4751 0.26315 1.00617 0.0
Co435 Co 0.49893 0.23237 0.03052 0.0
N436 N 0.52216 0.26027 0.06557 0.0
C437 C 0.51431 0.28695 0.07586 0.0
C438 C 0.53514 0.30157 0.09983 0.0
C439 C 0.55747 0.28273 0.10496 0.0
C440 C 0.54885 0.25755 0.0839 0.0
N441 N 0.52265 0.20219 0.05581 0.0
C442 C 0.54926 0.20401 0.07504 0.0
C443 C 0.55815 0.1775 0.0879 0.0
C444 C 0.53616 0.15858 0.07624 0.0
C445 C 0.51519 0.17459 0.057 0.0
N446 N 0.47569 0.20395 0.99582 0.0
C447 C 0.47205 0.17664 1.00552 0.0
C448 C 0.44864 0.1636 0.98549 0.0
C449 C 0.43667 0.18388 0.96179 0.0
C450 C 0.45441 0.20803 0.96658 0.0
N451 N 0.52661 0.2351 0.99137 0.0
C452 C 0.57314 0.23903 0.9458 0.0
C453 C 0.56208 0.21232 0.95388 0.0
C454 C 0.5386 0.21083 0.97618 0.0
C455 C 0.55954 0.26371 0.95976 0.0
C456 C 0.53645 0.26129 0.98251 0.0
N457 N 0.47102 0.22953 0.0701 0.0
C458 C 0.42164 0.2282 0.0844 0.0
C459 C 0.42961 0.22646 0.12453 0.0
C460 C 0.45912 0.22633 0.137 0.0
C461 C 0.47945 0.22783 0.10932 0.0
C462 C 0.44232 0.22952 0.05811 0.0
H463 H 0.50195 0.22773 0.1196 0.0
H464 H 0.43453 0.23088 0.02795 0.0
H465 H 0.53072 0.18999 0.9823 0.0
H466 H 0.52719 0.28064 0.99418 0.0
C467 C 0.48943 0.29852 0.05741 0.0
C468 C 0.4475 0.23603 0.94878 0.0
C469 C 0.56539 0.23086 0.08396 0.0
C470 C 0.49066 0.16419 0.03436 0.0
H471 H 0.41456 0.288 0.96456 0.0
H472 H 0.43831 0.32242 0.02099 0.0
H473 H 0.53465 0.32362 0.11099 0.0
H474 H 0.57765 0.28701 0.12232 0.0
H475 H 0.57829 0.17245 0.10417 0.0
H476 H 0.53599 0.13574 0.08005 0.0
H477 H 0.44018 0.14251 0.98951 0.0
H478 H 0.41564 0.18159 0.94619 0.0
H479 H 0.57151 0.1927 0.94305 0.0
H480 H 0.56728 0.28482 0.95422 0.0
H481 H 0.39936 0.22928 0.07301 0.0
H482 H 0.4665 0.22498 0.16778 0.0
C483 C 0.73193 0.55683 0.09253 0.0
C484 C 0.70544 0.56825 0.09935 0.0
C485 C 0.68584 0.55589 0.07143 0.0
C486 C 0.7013 0.53768 0.04909 0.0
N487 N 0.72945 0.53734 0.06136 0.0
Co488 Co 0.759 0.51433 0.03541 0.0
N489 N 0.72952 0.49048 1.00235 0.0
C490 C 0.70139 0.49645 0.99697 0.0
C491 C 0.68592 0.47633 0.97327 0.0
C492 C 0.70548 0.45645 0.96263 0.0
C493 C 0.732 0.46569 0.98021 0.0
N494 N 0.78846 0.49129 0.00942 0.0
C495 C 0.78606 0.46645 0.9867 0.0
C496 C 0.81224 0.45873 0.97369 0.0
C497 C 0.83159 0.47935 0.98858 0.0
C498 C 0.81626 0.49856 0.00969 0.0
N499 N 0.78852 0.53826 0.06815 0.0
C500 C 0.81646 0.53963 0.06219 0.0
C501 C 0.832 0.55799 0.08857 0.0
C502 C 0.81261 0.56942 0.11229 0.0
C503 C 0.78612 0.55756 0.09884 0.0
N504 N 0.75977 0.4869 0.07658 0.0
C505 C 0.76216 0.44469 0.13171 0.0
C506 C 0.78724 0.45674 0.1206 0.0
C507 C 0.78559 0.47775 0.09316 0.0
C508 C 0.73574 0.45503 0.1159 0.0
C509 C 0.73502 0.47614 0.08826 0.0
N510 N 0.75879 0.54185 0.99418 0.0
C511 C 0.76399 0.59046 0.97605 0.0
C512 C 0.76746 0.58108 0.93737 0.0
C513 C 0.76489 0.55174 0.9272 0.0
C514 C 0.7604 0.53254 0.95596 0.0
C515 C 0.75961 0.57058 1.00386 0.0
H516 H 0.75925 0.51008 0.9474 0.0
H517 H 0.75778 0.57859 0.03343 0.0
H518 H 0.80533 0.48608 0.08478 0.0
H519 H 0.71448 0.48323 0.07573 0.0
C520 C 0.68984 0.51884 0.01873 0.0
C521 C 0.75904 0.56802 0.11298 0.0
C522 C 0.7591 0.45119 0.97342 0.0
C523 C 0.82776 0.52142 0.03401 0.0
H524 H 0.70082 0.58446 0.12148 0.0
H525 H 0.663 0.55964 0.06799 0.0
H526 H 0.66299 0.47568 0.96566 0.0
H527 H 0.70067 0.43737 0.944 0.0
H528 H 0.81677 0.44041 0.95476 0.0
H529 H 0.85426 0.47994 0.98505 0.0
H530 H 0.85476 0.56236 0.09057 0.0
H531 H 0.81729 0.58535 0.13606 0.0
H532 H 0.8081 0.4496 0.13253 0.0
H533 H 0.71584 0.44612 0.12364 0.0
H534 H 0.76492 0.61302 0.98497 0.0
H535 H 0.76728 0.54353 0.89758 0.0
H536 H 0.18727 0.28479 0.36489 0.0
H537 H 0.14716 0.22216 0.28036 0.0
H538 H 0.10533 0.22068 0.318 0.0
H539 H 0.0807 0.23608 0.37669 0.0
H540 H 0.12132 0.29932 0.45993 0.0
H541 H 0.16217 0.30158 0.42116 0.0
C542 C 0.16933 0.27092 0.35442 0.0
C543 C 0.17055 0.25355 0.31973 0.0
C544 C 0.14536 0.27016 0.37623 0.0
C545 C 0.1469 0.23587 0.30676 0.0
C546 C 0.12298 0.2349 0.32845 0.0
C547 C 0.09852 0.25032 0.38631 0.0
C548 C 0.0978 0.26753 0.42131 0.0
C549 C 0.12208 0.25171 0.36354 0.0
C550 C 0.12103 0.28607 0.43303 0.0
C551 C 0.14452 0.2873 0.41091 0.0
H552 H 0.74499 0.17379 0.31856 0.0
H553 H 0.70744 0.22612 0.40746 0.0
H554 H 0.6999 0.18344 0.44398 0.0
H555 H 0.70665 0.13162 0.4522 0.0
H556 H 0.74616 0.08049 0.36417 0.0
H557 H 0.75012 0.12255 0.32536 0.0
C558 C 0.73501 0.17599 0.34584 0.0
C559 C 0.72693 0.20315 0.36039 0.0
C560 C 0.7311 0.15159 0.36672 0.0
C561 C 0.71396 0.20547 0.39572 0.0
C562 C 0.70965 0.1811 0.41657 0.0
C563 C 0.71566 0.12972 0.42417 0.0
C564 C 0.72605 0.10315 0.41082 0.0
C565 C 0.71844 0.1541 0.40253 0.0
C566 C 0.73812 0.10084 0.37489 0.0
C567 C 0.74041 0.12482 0.35281 0.0
H568 H 0.82868 0.74712 0.35089 0.0
H569 H 0.85954 0.78885 0.25334 0.0
H570 H 0.90881 0.78524 0.28359 0.0
H571 H 0.9432 0.77057 0.33867 0.0
H572 H 0.91144 0.72946 0.43577 0.0
H573 H 0.86239 0.73229 0.40471 0.0
C574 C 0.84611 0.75544 0.33606 0.0
C575 C 0.8403 0.7683 0.29983 0.0
C576 C 0.87425 0.75335 0.35362 0.0
C577 C 0.86331 0.77888 0.28122 0.0
C578 C 0.89151 0.77682 0.29852 0.0
C579 C 0.92542 0.76229 0.35281 0.0
C580 C 0.93067 0.74993 0.38942 0.0
C581 C 0.89724 0.76417 0.33481 0.0
C582 C 0.9077 0.73906 0.40759 0.0
C583 C 0.87974 0.74073 0.38989 0.0
H584 H 0.30679 0.84031 0.31785 0.0
H585 H 0.23304 0.87081 0.24726 0.0
H586 H 0.23105 0.91302 0.29243 0.0
H587 H 0.24838 0.93922 0.35513 0.0
H588 H 0.3214 0.90666 0.42535 0.0
H589 H 0.32542 0.86719 0.37724 0.0
C590 C 0.29041 0.85631 0.312 0.0
C591 C 0.26997 0.85231 0.27941 0.0
C592 C 0.28908 0.88 0.33834 0.0
C593 C 0.24911 0.87344 0.27208 0.0
C594 C 0.24781 0.89742 0.29811 0.0
C595 C 0.26512 0.92344 0.35978 0.0
C596 C 0.28457 0.92589 0.39378 0.0
C597 C 0.2673 0.90056 0.33189 0.0
C598 C 0.30637 0.90548 0.39926 0.0
C599 C 0.30864 0.88282 0.37183 0.0
H600 H 0.20775 0.72731 0.61559 0.0
H601 H 0.17138 0.75182 0.72337 0.0
H602 H 0.12341 0.7491 0.68948 0.0
H603 H 0.09159 0.74278 0.6285 0.0
H604 H 0.12698 0.71999 0.51993 0.0
H605 H 0.17529 0.71872 0.55454 0.0
C606 C 0.18928 0.73168 0.63166 0.0
C607 C 0.19323 0.73994 0.67191 0.0
C608 C 0.16152 0.73056 0.61175 0.0
C609 C 0.16904 0.7457 0.6923 0.0
C610 C 0.14152 0.74414 0.67297 0.0
C611 C 0.10996 0.73736 0.61266 0.0
C612 C 0.10606 0.73171 0.57194 0.0
C613 C 0.13752 0.73711 0.63263 0.0
C614 C 0.12975 0.72451 0.55141 0.0
C615 C 0.15728 0.72386 0.57116 0.0
H616 H 0.3113 0.21384 0.72082 0.0
H617 H 0.2716 0.25084 0.6166 0.0
H618 H 0.2694 0.20334 0.58211 0.0
H619 H 0.273 0.15055 0.5854 0.0
H620 H 0.3102 0.11455 0.6921 0.0
H621 H 0.31885 0.1625 0.72227 0.0
C622 C 0.30285 0.21157 0.69017 0.0
C623 C 0.29156 0.23553 0.67113 0.0
C624 C 0.3005 0.18433 0.67154 0.0
C625 C 0.28072 0.23261 0.63155 0.0
C626 C 0.27901 0.20543 0.61217 0.0
C627 C 0.28291 0.15332 0.61528 0.0
C628 C 0.29058 0.12913 0.63681 0.0
C629 C 0.28774 0.18101 0.6325 0.0
C630 C 0.30405 0.13286 0.6751 0.0
C631 C 0.30904 0.16023 0.69231 0.0
H632 H 0.81988 0.28738 0.71755 0.0
H633 H 0.86056 0.22728 0.79631 0.0
H634 H 0.90215 0.22524 0.75785 0.0
H635 H 0.92564 0.23837 0.6987 0.0
H636 H 0.8835 0.29851 0.62106 0.0
H637 H 0.84398 0.30246 0.66202 0.0
C638 C 0.83789 0.27395 0.72668 0.0
C639 C 0.83686 0.25741 0.75986 0.0
C640 C 0.8615 0.27264 0.70422 0.0
C641 C 0.86065 0.24032 0.77106 0.0
C642 C 0.88442 0.23904 0.74888 0.0
C643 C 0.90796 0.25257 0.69102 0.0
C644 C 0.9075 0.26774 0.65624 0.0
C645 C 0.88493 0.25478 0.71495 0.0
C646 C 0.88428 0.28602 0.64695 0.0
C647 C 0.86164 0.28846 0.67054 0.0
H648 H 0.74387 0.82145 0.70304 0.0
H649 H 0.8192 0.85467 0.7728 0.0
H650 H 0.81072 0.90188 0.74564 0.0
H651 H 0.78309 0.93262 0.69899 0.0
H652 H 0.70912 0.89705 0.62805 0.0
H653 H 0.71561 0.85195 0.65962 0.0
C654 C 0.75853 0.83896 0.71243 0.0
C655 C 0.78238 0.83448 0.73943 0.0
C656 C 0.75362 0.86567 0.69668 0.0
C657 C 0.80077 0.85757 0.75183 0.0
C658 C 0.79594 0.8845 0.73627 0.0
C659 C 0.76838 0.91501 0.69053 0.0
C660 C 0.74559 0.91837 0.66119 0.0
C661 C 0.77264 0.88865 0.70818 0.0
C662 C 0.7265 0.89541 0.651 0.0
C663 C 0.73036 0.86941 0.66872 0.0
H664 H 0.86657 0.74807 0.71084 0.0
H665 H 0.8053 0.70678 0.62398 0.0
H666 H 0.84181 0.70325 0.57735 0.0
H667 H 0.89081 0.71412 0.56037 0.0
H668 H 0.95088 0.7564 0.64788 0.0
H669 H 0.9151 0.75737 0.69504 0.0
C670 C 0.86111 0.7381 0.68181 0.0
C671 C 0.83312 0.72777 0.67099 0.0
C672 C 0.88202 0.73649 0.65512 0.0
C673 C 0.82662 0.71494 0.63317 0.0
C674 C 0.8475 0.71296 0.60645 0.0
C675 C 0.89609 0.72325 0.5899 0.0
C676 C 0.92344 0.73538 0.60048 0.0
C677 C 0.87522 0.72396 0.61696 0.0
C678 C 0.9299 0.74733 0.63878 0.0
C679 C 0.90948 0.74779 0.66584 0.0
H680 H 0.25288 0.87614 0.73263 0.0
H681 H 0.28889 0.81681 0.65027 0.0
H682 H 0.29449 0.85502 0.60618 0.0
H683 H 0.28863 0.90546 0.589 0.0
H684 H 0.25328 0.9657 0.67007 0.0
H685 H 0.248 0.92758 0.71576 0.0
C686 C 0.26207 0.87156 0.70516 0.0
C687 C 0.27035 0.84315 0.69531 0.0
C688 C 0.26533 0.89404 0.67919 0.0
C689 C 0.28217 0.8381 0.6592 0.0
C690 C 0.28543 0.86009 0.63363 0.0
C691 C 0.27993 0.91027 0.61679 0.0
C692 C 0.27139 0.93855 0.62594 0.0
C693 C 0.27701 0.88814 0.64306 0.0
C694 C 0.26001 0.94421 0.66212 0.0
C695 C 0.25699 0.92233 0.68833 0.0
H696 H 0.1927 0.29117 0.6664 0.0
H697 H 0.16416 0.2535 0.76846 0.0
H698 H 0.11636 0.24601 0.73381 0.0
H699 H 0.08225 0.25077 0.67428 0.0
H700 H 0.11167 0.28755 0.5724 0.0
H701 H 0.15943 0.29484 0.6071 0.0
C702 C 0.17605 0.28141 0.68127 0.0
C703 C 0.18214 0.2731 0.72025 0.0
C704 C 0.14873 0.27687 0.66099 0.0
C705 C 0.1602 0.2602 0.73862 0.0
C706 C 0.13282 0.25588 0.71875 0.0
C707 C 0.09932 0.25993 0.6596 0.0
C708 C 0.09366 0.26815 0.62055 0.0
C709 C 0.12681 0.26408 0.67988 0.0
C710 C 0.11569 0.28073 0.60219 0.0
C711 C 0.14293 0.28499 0.6221 0.0
H712 H 0.75459 0.16932 0.74025 0.0
H713 H 0.70928 0.2216 0.65473 0.0
H714 H 0.70471 0.18038 0.6074 0.0
H715 H 0.71453 0.12912 0.58947 0.0
H716 H 0.75968 0.0775 0.67564 0.0
H717 H 0.7634 0.11855 0.72317 0.0
C718 C 0.74357 0.17182 0.71133 0.0
C719 C 0.7323 0.19885 0.70139 0.0
C720 C 0.74109 0.14795 0.68412 0.0
C721 C 0.71816 0.20127 0.66354 0.0
C722 C 0.71558 0.17762 0.63632 0.0
C723 C 0.72506 0.12692 0.61874 0.0
C724 C 0.7369 0.10019 0.62894 0.0
C725 C 0.72708 0.15082 0.64614 0.0
C726 C 0.7505 0.09775 0.66698 0.0
C727 C 0.75261 0.12126 0.69419 0.0
H728 H 0.8212 0.26841 0.37992 0.0
H729 H 0.85811 0.2379 0.27511 0.0
H730 H 0.90561 0.23716 0.31202 0.0
H731 H 0.93696 0.24571 0.37489 0.0
H732 H 0.8984 0.27486 0.47889 0.0
H733 H 0.85142 0.27556 0.44165 0.0
C734 C 0.83958 0.26165 0.36491 0.0
C735 C 0.83594 0.25341 0.32456 0.0
C736 C 0.86667 0.26102 0.38637 0.0
C737 C 0.86015 0.24443 0.30604 0.0
C738 C 0.88736 0.24401 0.32719 0.0
C739 C 0.91819 0.25215 0.38919 0.0
C740 C 0.92118 0.26051 0.42954 0.0
C741 C 0.89094 0.25231 0.36744 0.0
C742 C 0.89668 0.26858 0.44788 0.0
C743 C 0.8698 0.26897 0.42658 0.0
H744 H 0.72509 0.81805 0.40331 0.0
H745 H 0.75476 0.86021 0.30527 0.0
H746 H 0.75395 0.90619 0.34136 0.0
H747 H 0.74562 0.9354 0.4012 0.0
H748 H 0.71621 0.89452 0.49986 0.0
H749 H 0.71597 0.84782 0.46356 0.0
C750 C 0.73127 0.83728 0.38976 0.0
C751 C 0.74001 0.83517 0.35125 0.0
C752 C 0.73085 0.86425 0.411 0.0
C753 C 0.74796 0.86067 0.33463 0.0
C754 C 0.74753 0.88724 0.35535 0.0
C755 C 0.73915 0.91624 0.4147 0.0
C756 C 0.73101 0.91853 0.45332 0.0
C757 C 0.73916 0.88939 0.39359 0.0
C758 C 0.72256 0.89343 0.47024 0.0
C759 C 0.72247 0.86667 0.44943 0.0
H760 H 0.18856 0.7752 0.28713 0.0
H761 H 0.24007 0.72182 0.36501 0.0
H762 H 0.19888 0.71467 0.40268 0.0
H763 H 0.14796 0.72402 0.41333 0.0
H764 H 0.09792 0.77823 0.335 0.0
H765 H 0.13892 0.78453 0.29749 0.0
C766 C 0.19095 0.76192 0.31231 0.0
C767 C 0.21744 0.749 0.32313 0.0
C768 C 0.16737 0.75803 0.33369 0.0
C769 C 0.21998 0.73206 0.35604 0.0
C770 C 0.1964 0.72792 0.37751 0.0
C771 C 0.14607 0.737 0.38785 0.0
C772 C 0.11995 0.75068 0.37693 0.0
C773 C 0.16994 0.74079 0.36654 0.0
C774 C 0.11784 0.76771 0.34416 0.0
C775 C 0.14124 0.77127 0.32266 0.0
H776 H 0.28539 0.20944 0.42153 0.0
H777 H 0.26735 0.16481 0.30841 0.0
H778 H 0.27035 0.1191 0.33898 0.0
H779 H 0.27591 0.0908 0.39782 0.0
H780 H 0.29349 0.13361 0.51163 0.0
H781 H 0.29301 0.18027 0.48134 0.0
C782 C 0.28245 0.18972 0.40358 0.0
C783 C 0.27598 0.19101 0.36244 0.0
C784 C 0.28395 0.16283 0.42161 0.0
C785 C 0.2721 0.16492 0.34 0.0
C786 C 0.27382 0.13851 0.35749 0.0
C787 C 0.27981 0.11037 0.41591 0.0
C788 C 0.28466 0.1087 0.45693 0.0
C789 C 0.27934 0.13711 0.39824 0.0
C790 C 0.28972 0.13428 0.47998 0.0
C791 C 0.28938 0.16101 0.4626 0.0
H792 H 0.67754 0.72147 0.76694 0.0
H793 H 0.72261 0.7916 0.83271 0.0
H794 H 0.68229 0.79967 0.87139 0.0
H795 H 0.63554 0.78542 0.88943 0.0
H796 H 0.58988 0.71498 0.82558 0.0
H797 H 0.62907 0.70829 0.78369 0.0
C798 C 0.67833 0.73868 0.78944 0.0
C799 C 0.70314 0.75578 0.79699 0.0
C800 C 0.65507 0.74302 0.81226 0.0
C801 C 0.70392 0.77791 0.82646 0.0
C802 C 0.68084 0.78261 0.84866 0.0
C803 C 0.63389 0.7689 0.86594 0.0
C804 C 0.60977 0.75079 0.86068 0.0
C805 C 0.6565 0.76508 0.84221 0.0
C806 C 0.60834 0.72908 0.83055 0.0
C807 C 0.6307 0.72531 0.80647 0.0
H808 H 0.2708 0.72514 0.88161 0.0
H809 H 0.21322 0.68987 0.78584 0.0
H810 H 0.20733 0.64645 0.82134 0.0
H811 H 0.22086 0.61671 0.87792 0.0
H812 H 0.28065 0.65062 0.97231 0.0
H813 H 0.28347 0.69561 0.93938 0.0
C814 C 0.25647 0.7082 0.86899 0.0
C815 C 0.24197 0.71114 0.83131 0.0
C816 C 0.25396 0.68257 0.88918 0.0
C817 C 0.22426 0.68846 0.81494 0.0
C818 C 0.22103 0.66346 0.83518 0.0
C819 C 0.2343 0.63401 0.89154 0.0
C820 C 0.25066 0.62985 0.92768 0.0
C821 C 0.23612 0.65998 0.87207 0.0
C822 C 0.26813 0.65272 0.94436 0.0
C823 C 0.26964 0.67868 0.92558 0.0
H824 H 0.33912 0.22513 0.82556 0.0
H825 H 0.34583 0.31715 0.83644 0.0
H826 H 0.39283 0.31373 0.87369 0.0
H827 H 0.43087 0.28443 0.90544 0.0
H828 H 0.42702 0.19344 0.8895 0.0
H829 H 0.38185 0.19631 0.84881 0.0
C830 C 0.35081 0.24437 0.83645 0.0
C831 C 0.33862 0.27138 0.82961 0.0
C832 C 0.37821 0.2423 0.85707 0.0
C833 C 0.35457 0.29616 0.84214 0.0
C834 C 0.3815 0.29421 0.8632 0.0
C835 C 0.41897 0.26509 0.89611 0.0
C836 C 0.42812 0.23833 0.9102 0.0
C837 C 0.39319 0.26736 0.87173 0.0
C838 C 0.41683 0.21405 0.88771 0.0
C839 C 0.3914 0.21577 0.86285 0.0
H840 H 0.77061 0.32621 0.89301 0.0
H841 H 0.73057 0.36781 0.79247 0.0
H842 H 0.72989 0.41303 0.83156 0.0
H843 H 0.74037 0.44121 0.89495 0.0
H844 H 0.77955 0.3993 0.99546 0.0
H845 H 0.78106 0.35419 0.956 0.0
C846 C 0.76181 0.34514 0.87946 0.0
C847 C 0.7507 0.34328 0.83945 0.0
C848 C 0.76127 0.37123 0.90235 0.0
C849 C 0.73931 0.3683 0.82292 0.0
C850 C 0.73889 0.39429 0.84539 0.0
C851 C 0.74902 0.42211 0.90823 0.0
C852 C 0.75948 0.42361 0.94842 0.0
C853 C 0.74968 0.39606 0.88521 0.0
C854 C 0.77114 0.39874 0.96485 0.0
C855 C 0.77201 0.37292 0.9422 0.0
H856 H 0.69735 0.23462 0.14736 0.0
H857 H 0.65969 0.24333 0.25752 0.0
H858 H 0.61203 0.23845 0.22332 0.0
H859 H 0.58032 0.23397 0.1622 0.0
H860 H 0.61623 0.22676 0.05123 0.0
H861 H 0.66492 0.22857 0.0852 0.0
C862 C 0.67871 0.23515 0.16379 0.0
C863 C 0.68227 0.23952 0.20504 0.0
C864 C 0.6509 0.23275 0.14371 0.0
C865 C 0.65775 0.2403 0.2258 0.0
C866 C 0.63036 0.23747 0.20628 0.0
C867 C 0.5989 0.23268 0.1456 0.0
C868 C 0.5949 0.23044 0.10444 0.0
C869 C 0.62661 0.23409 0.1653 0.0
C870 C 0.61896 0.22861 0.08303 0.0
C871 C 0.64673 0.22968 0.10247 0.0
H872 H 0.7649 0.69656 0.18297 0.0
H873 H 0.73338 0.65797 0.28237 0.0
H874 H 0.73392 0.61072 0.24773 0.0
H875 H 0.74326 0.57999 0.18815 0.0
H876 H 0.77387 0.62002 0.08937 0.0
H877 H 0.77379 0.66675 0.12463 0.0
C878 C 0.75817 0.6779 0.19734 0.0
C879 C 0.74917 0.68114 0.23558 0.0
C880 C 0.75842 0.65081 0.17714 0.0
C881 C 0.74046 0.6564 0.25316 0.0
C882 C 0.74076 0.62927 0.23325 0.0
C883 C 0.74999 0.59899 0.17455 0.0
C884 C 0.75893 0.59638 0.13622 0.0
C885 C 0.74969 0.62614 0.19513 0.0
C886 C 0.76727 0.6213 0.11887 0.0
C887 C 0.76714 0.64808 0.13903 0.0
H888 H 0.33347 0.79135 0.15818 0.0
H889 H 0.37651 0.73623 0.2421 0.0
H890 H 0.41861 0.73502 0.20486 0.0
H891 H 0.44263 0.74862 0.14708 0.0
H892 H 0.39853 0.8034 0.06353 0.0
H893 H 0.35761 0.80591 0.10226 0.0
C894 C 0.35206 0.77911 0.16854 0.0
C895 C 0.35169 0.76379 0.20289 0.0
C896 C 0.37608 0.77847 0.14699 0.0
C897 C 0.37614 0.74824 0.21582 0.0
C898 C 0.40021 0.74748 0.19445 0.0
C899 C 0.42404 0.76105 0.13733 0.0
C900 C 0.4238 0.77586 0.10237 0.0
C901 C 0.40032 0.76231 0.15974 0.0
C902 C 0.3996 0.79214 0.09051 0.0
C903 C 0.37604 0.79344 0.11252 0.0
H904 H 0.22915 0.32063 0.19612 0.0
H905 H 0.28762 0.36085 0.28732 0.0
H906 H 0.28937 0.40365 0.24889 0.0
H907 H 0.27467 0.42983 0.18826 0.0
H908 H 0.21595 0.38856 0.09804 0.0
H909 H 0.21398 0.34661 0.13705 0.0
C910 C 0.24224 0.33874 0.2079 0.0
C911 C 0.25823 0.33714 0.24499 0.0
C912 C 0.24315 0.3634 0.18555 0.0
C913 C 0.27497 0.36116 0.2592 0.0
C914 C 0.27605 0.38574 0.23703 0.0
C915 C 0.2615 0.41165 0.177 0.0
C916 C 0.24531 0.4129 0.13987 0.0
C917 C 0.26034 0.38713 0.19995 0.0
C918 C 0.22828 0.38888 0.12644 0.0
C919 C 0.22725 0.3646 0.14877 0.0
H920 H 0.34005 0.25079 0.24896 0.0
H921 H 0.28586 0.20048 0.16242 0.0
H922 H 0.32668 0.1916 0.1241 0.0
H923 H 0.37706 0.19997 0.11366 0.0
H924 H 0.43034 0.2529 0.19819 0.0
H925 H 0.39078 0.25796 0.23947 0.0
C926 C 0.33708 0.23772 0.22182 0.0
C927 C 0.3097 0.22645 0.20857 0.0
C928 C 0.36059 0.23299 0.1997 0.0
C929 C 0.30651 0.20955 0.17332 0.0
C930 C 0.3299 0.20444 0.15139 0.0
C931 C 0.38011 0.21276 0.14103 0.0
C932 C 0.40679 0.22632 0.15237 0.0
C933 C 0.35693 0.21638 0.16404 0.0
C934 C 0.41032 0.24201 0.18863 0.0
C935 C 0.38754 0.24518 0.21212 0.0
H936 H 0.78175 0.32965 0.21729 0.0
H937 H 0.71955 0.36669 0.28958 0.0
H938 H 0.7183 0.4101 0.25203 0.0
H939 H 0.73314 0.43622 0.19582 0.0
H940 H 0.79507 0.39766 0.12425 0.0
H941 H 0.79806 0.35603 0.16433 0.0
C942 C 0.76801 0.34727 0.22509 0.0
C943 C 0.75059 0.34488 0.25593 0.0
C944 C 0.76721 0.37179 0.20328 0.0
C945 C 0.73321 0.36805 0.26597 0.0
C946 C 0.73235 0.39276 0.24434 0.0
C947 C 0.74724 0.41865 0.18914 0.0
C948 C 0.76389 0.41999 0.1572 0.0
C949 C 0.7489 0.39464 0.21244 0.0
C950 C 0.78229 0.39726 0.14895 0.0
C951 C 0.78395 0.3734 0.17174 0.0
H952 H 0.70544 0.78647 0.13469 0.0
H953 H 0.66029 0.77791 0.23758 0.0
H954 H 0.61485 0.77433 0.19676 0.0
H955 H 0.58773 0.77161 0.13145 0.0
H956 H 0.63221 0.77949 0.0283 0.0
H957 H 0.67799 0.7852 0.06922 0.0
C958 C 0.68561 0.78423 0.14817 0.0
C959 C 0.68635 0.78247 0.18919 0.0
C960 C 0.65941 0.78168 0.12436 0.0
C961 C 0.66043 0.77925 0.20611 0.0
C962 C 0.63437 0.77711 0.18278 0.0
C963 C 0.60755 0.77453 0.11816 0.0
C964 C 0.60692 0.77488 0.07717 0.0
C965 C 0.63362 0.77786 0.14187 0.0
C966 C 0.63247 0.77895 0.05992 0.0
C967 C 0.65853 0.78229 0.08329 0.0
H968 H 0.25425 0.7111 0.1141 0.0
H969 H 0.2157 0.69275 0.21937 0.0
H970 H 0.20799 0.64291 0.19597 0.0
H971 H 0.21829 0.60332 0.14995 0.0
H972 H 0.25834 0.62048 0.04556 0.0
H973 H 0.25982 0.67187 0.06406 0.0
C974 C 0.24329 0.6963 0.13107 0.0
C975 C 0.23522 0.70535 0.16805 0.0
C976 C 0.23989 0.66738 0.118 0.0
C977 C 0.22174 0.68605 0.19056 0.0
C978 C 0.2176 0.65756 0.1774 0.0
C979 C 0.22666 0.6185 0.13092 0.0
C980 C 0.238 0.60851 0.09649 0.0
C981 C 0.22751 0.64778 0.14187 0.0
C982 C 0.24945 0.62802 0.07224 0.0
C983 C 0.25026 0.6573 0.08278 0.0
H984 H 0.33358 0.7681 0.83624 0.0
H985 H 0.36973 0.73203 0.73367 0.0
H986 H 0.41664 0.72897 0.77184 0.0
H987 H 0.4476 0.73796 0.83473 0.0
H988 H 0.40985 0.7733 0.93623 0.0
H989 H 0.36312 0.77513 0.89815 0.0
C990 C 0.35168 0.75967 0.82196 0.0
C991 C 0.3482 0.75065 0.78192 0.0
C992 C 0.37824 0.75772 0.84407 0.0
C993 C 0.37186 0.73928 0.76434 0.0
C994 C 0.39865 0.73751 0.78619 0.0
C995 C 0.42896 0.74573 0.84833 0.0
C996 C 0.43187 0.75544 0.88809 0.0
C997 C 0.40212 0.74679 0.82609 0.0
C998 C 0.40785 0.76566 0.90568 0.0
C999 C 0.38126 0.7668 0.88391 0.0
H1000 H 0.26068 0.34857 0.858 0.0
H1001 H 0.26996 0.40092 0.75965 0.0
H1002 H 0.26863 0.44423 0.80294 0.0
H1003 H 0.26417 0.46713 0.86929 0.0
H1004 H 0.25557 0.41383 0.96654 0.0
H1005 H 0.25744 0.37078 0.92317 0.0
C1006 C 0.2623 0.36941 0.84581 0.0
C1007 C 0.26518 0.37147 0.80549 0.0
C1008 C 0.26179 0.394 0.87081 0.0
C1009 C 0.26762 0.39872 0.79051 0.0
C1010 C 0.26689 0.42347 0.81527 0.0
C1011 C 0.26294 0.446 0.88073 0.0
C1012 C 0.25986 0.44332 0.92081 0.0
C1013 C 0.26396 0.42137 0.8555 0.0
C1014 C 0.25809 0.41609 0.93571 0.0
C1015 C 0.25906 0.3916 0.91095 0.0
H1016 H 0.66922 0.26571 0.83486 0.0
H1017 H 0.71601 0.20427 0.90546 0.0
H1018 H 0.67423 0.19781 0.94221 0.0
H1019 H 0.62426 0.21034 0.95485 0.0
H1020 H 0.57902 0.27313 0.88487 0.0
H1021 H 0.6203 0.27832 0.84746 0.0
C1022 C 0.67038 0.25075 0.85816 0.0
C1023 C 0.69585 0.23538 0.86713 0.0
C1024 C 0.64646 0.24745 0.87941 0.0
C1025 C 0.6968 0.21637 0.89779 0.0
C1026 C 0.67286 0.21267 0.91882 0.0
C1027 C 0.62341 0.22498 0.93119 0.0
C1028 C 0.59846 0.24132 0.9227 0.0
C1029 C 0.64754 0.22815 0.90994 0.0
C1030 C 0.59792 0.26048 0.89229 0.0
C1031 C 0.62152 0.2634 0.87077 0.0
H1032 H 0.77529 0.66279 0.79833 0.0
H1033 H 0.83155 0.70948 0.88644 0.0
H1034 H 0.82703 0.67131 0.93189 0.0
H1035 H 0.80396 0.62668 0.94806 0.0
H1036 H 0.74549 0.58203 0.86066 0.0
H1037 H 0.75426 0.61746 0.81322 0.0
C1038 C 0.7869 0.66457 0.8273 0.0
C1039 C 0.80357 0.6891 0.83906 0.0
C1040 C 0.78359 0.64304 0.85348 0.0
C1041 C 0.81854 0.69087 0.87665 0.0
C1042 C 0.81582 0.66914 0.90271 0.0
C1043 C 0.79304 0.62478 0.91868 0.0
C1044 C 0.77387 0.60188 0.90804 0.0
C1045 C 0.7978 0.64551 0.89174 0.0
C1046 C 0.76044 0.59932 0.86956 0.0
C1047 C 0.76534 0.61965 0.84248 0.0
loop_
_geom_bond_atom_site_label_1
_geom_bond_atom_site_label_2
_geom_bond_distance
_geom_bond_site_symmetry_2
_ccdc_geom_bond_type
C0 O2 1.247 . S
C0 O4 1.258 . S
C1 O8 1.247 . S
C1 O9 1.258 . S
O2 C0 1.247 . S
O2 Zn3 2.028 . S
Zn3 O2 2.028 . S
Zn3 O7 2.035 . S
Zn3 O9 2.035 . S
Zn3 O10 2.028 . S
O4 C0 1.258 . S
O4 Zn5 2.035 . S
Zn5 O4 2.035 . S
Zn5 O6 2.028 . S
Zn5 O8 2.028 . S
Zn5 O11 2.035 . S
O6 Zn5 2.028 . S
O6 C12 1.247 . S
O7 Zn3 2.035 . S
O7 C12 1.258 . S
O8 C1 1.247 . S
O8 Zn5 2.028 . S
O9 C1 1.258 . S
O9 Zn3 2.035 . S
O10 Zn3 2.028 . S
O10 C13 1.247 . S
O11 Zn5 2.035 . S
O11 C13 1.258 . S
C12 O6 1.247 . S
C12 O7 1.258 . S
C13 O10 1.247 . S
C13 O11 1.258 . S
C14 O16 1.247 . S
C14 O18 1.258 . S
C15 O22 1.247 . S
C15 O23 1.258 . S
O16 C14 1.247 . S
O16 Zn17 2.028 . S
Zn17 O16 2.028 . S
Zn17 O21 2.035 . S
Zn17 O23 2.035 . S
Zn17 O24 2.028 . S
O18 C14 1.258 . S
O18 Zn19 2.035 . S
Zn19 O18 2.035 . S
Zn19 O20 2.028 . S
Zn19 O22 2.028 . S
Zn19 O25 2.035 . S
O20 Zn19 2.028 . S
O20 C26 1.247 . S
O21 Zn17 2.035 . S
O21 C26 1.258 . S
O22 C15 1.247 . S
O22 Zn19 2.028 . S
O23 C15 1.258 . S
O23 Zn17 2.035 . S
O24 Zn17 2.028 . S
O24 C27 1.247 . S
O25 Zn19 2.035 . S
O25 C27 1.258 . S
C26 O20 1.247 . S
C26 O21 1.258 . S
C27 O24 1.247 . S
C27 O25 1.258 . S
C28 O30 1.247 . S
C28 O32 1.258 . S
C29 O36 1.247 . S
C29 O37 1.258 . S
O30 C28 1.247 . S
O30 Zn31 2.028 . S
Zn31 O30 2.028 . S
Zn31 O35 2.035 . S
Zn31 O37 2.035 . S
Zn31 O38 2.028 . S
O32 C28 1.258 . S
O32 Zn33 2.035 . S
Zn33 O32 2.035 . S
Zn33 O34 2.028 . S
Zn33 O36 2.028 . S
Zn33 O39 2.035 . S
O34 Zn33 2.028 . S
O34 C40 1.247 . S
O35 Zn31 2.035 . S
O35 C40 1.258 . S
O36 C29 1.247 . S
O36 Zn33 2.028 . S
O37 C29 1.258 . S
O37 Zn31 2.035 . S
O38 Zn31 2.028 . S
O38 C41 1.247 . S
O39 Zn33 2.035 . S
O39 C41 1.258 . S
C40 O34 1.247 . S
C40 O35 1.258 . S
C41 O38 1.247 . S
C41 O39 1.258 . S
C42 O44 1.247 . S
C42 O46 1.258 . S
C43 O50 1.247 . S
C43 O51 1.258 . S
O44 C42 1.247 . S
O44 Zn45 2.028 . S
Zn45 O44 2.028 . S
Zn45 O49 2.035 . S
Zn45 O51 2.035 . S
Zn45 O52 2.028 . S
O46 C42 1.258 . S
O46 Zn47 2.035 . S
Zn47 O46 2.035 . S
Zn47 O48 2.028 . S
Zn47 O50 2.028 . S
Zn47 O53 2.035 . S
O48 Zn47 2.028 . S
O48 C54 1.247 . S
O49 Zn45 2.035 . S
O49 C54 1.258 . S
O50 C43 1.247 . S
O50 Zn47 2.028 . S
O51 C43 1.258 . S
O51 Zn45 2.035 . S
O52 Zn45 2.028 . S
O52 C55 1.247 . S
O53 Zn47 2.035 . S
O53 C55 1.258 . S
C54 O48 1.247 . S
C54 O49 1.258 . S
C55 O52 1.247 . S
C55 O53 1.258 . S
C56 O58 1.247 . S
C56 O60 1.258 . S
C57 O64 1.247 . S
C57 O65 1.258 . S
O58 C56 1.247 . S
O58 Zn59 2.028 . S
Zn59 O58 2.028 . S
Zn59 O63 2.035 . S
Zn59 O65 2.035 . S
Zn59 O66 2.028 . S
O60 C56 1.258 . S
O60 Zn61 2.035 . S
Zn61 O60 2.035 . S
Zn61 O62 2.028 . S
Zn61 O64 2.028 . S
Zn61 O67 2.035 . S
O62 Zn61 2.028 . S
O62 C68 1.247 . S
O63 Zn59 2.035 . S
O63 C68 1.258 . S
O64 C57 1.247 . S
O64 Zn61 2.028 . S
O65 C57 1.258 . S
O65 Zn59 2.035 . S
O66 Zn59 2.028 . S
O66 C69 1.247 . S
O67 Zn61 2.035 . S
O67 C69 1.258 . S
C68 O62 1.247 . S
C68 O63 1.258 . S
C69 O66 1.247 . S
C69 O67 1.258 . S
C70 O72 1.247 . S
C70 O74 1.258 . S
C71 O78 1.247 . S
C71 O79 1.258 . S
O72 C70 1.247 . S
O72 Zn73 2.028 . S
Zn73 O72 2.028 . S
Zn73 O77 2.035 . S
Zn73 O79 2.035 . S
Zn73 O80 2.028 . S
O74 C70 1.258 . S
O74 Zn75 2.035 . S
Zn75 O74 2.035 . S
Zn75 O76 2.028 . S
Zn75 O78 2.028 . S
Zn75 O81 2.035 . S
O76 Zn75 2.028 . S
O76 C82 1.247 . S
O77 Zn73 2.035 . S
O77 C82 1.258 . S
O78 C71 1.247 . S
O78 Zn75 2.028 . S
O79 C71 1.258 . S
O79 Zn73 2.035 . S
O80 Zn73 2.028 . S
O80 C83 1.247 . S
O81 Zn75 2.035 . S
O81 C83 1.258 . S
C82 O76 1.247 . S
C82 O77 1.258 . S
C83 O80 1.247 . S
C83 O81 1.258 . S
C84 O86 1.247 . S
C84 O88 1.258 . S
C85 O92 1.247 . S
C85 O93 1.258 . S
O86 C84 1.247 . S
O86 Zn87 2.028 . S
Zn87 O86 2.028 . S
Zn87 O91 2.035 . S
Zn87 O93 2.035 . S
Zn87 O94 2.028 . S
O88 C84 1.258 . S
O88 Zn89 2.035 . S
Zn89 O88 2.035 . S
Zn89 O90 2.028 . S
Zn89 O92 2.028 . S
Zn89 O95 2.035 . S
O90 Zn89 2.028 . S
O90 C96 1.247 . S
O91 Zn87 2.035 . S
O91 C96 1.258 . S
O92 C85 1.247 . S
O92 Zn89 2.028 . S
O93 C85 1.258 . S
O93 Zn87 2.035 . S
O94 Zn87 2.028 . S
O94 C97 1.247 . S
O95 Zn89 2.035 . S
O95 C97 1.258 . S
C96 O90 1.247 . S
C96 O91 1.258 . S
C97 O94 1.247 . S
C97 O95 1.258 . S
C98 O100 1.247 . S
C98 O102 1.258 . S
C99 O106 1.247 . S
C99 O107 1.258 . S
O100 C98 1.247 . S
O100 Zn101 2.028 . S
Zn101 O100 2.028 . S
Zn101 O105 2.035 . S
Zn101 O107 2.035 . S
Zn101 O108 2.028 . S
O102 C98 1.258 . S
O102 Zn103 2.035 . S
Zn103 O102 2.035 . S
Zn103 O104 2.028 . S
Zn103 O106 2.028 . S
Zn103 O109 2.035 . S
O104 Zn103 2.028 . S
O104 C110 1.247 . S
O105 Zn101 2.035 . S
O105 C110 1.258 . S
O106 C99 1.247 . S
O106 Zn103 2.028 . S
O107 C99 1.258 . S
O107 Zn101 2.035 . S
O108 Zn101 2.028 . S
O108 C111 1.247 . S
O109 Zn103 2.035 . S
O109 C111 1.258 . S
C110 O104 1.247 . S
C110 O105 1.258 . S
C111 O108 1.247 . S
C111 O109 1.258 . S
C112 C113 1.443 . S
C112 N116 1.376 . S
C112 C150 1.389 . S
C113 C112 1.443 . S
C113 C114 1.340 . S
C113 H153 0.951 . S
C114 C113 1.340 . S
C114 C115 1.439 . S
C114 H154 0.950 . S
C115 C114 1.439 . S
C115 N116 1.374 . S
C115 C149 1.395 . S
N116 C112 1.376 . S
N116 C115 1.374 . S
N116 Co117 2.008 . S
Co117 N116 2.008 . S
Co117 N118 1.995 1_455 S
Co117 N123 2.008 1_455 S
Co117 N128 1.995 . S
Co117 N133 2.282 1_455 S
Co117 N139 2.282 . S
N118 Co117 1.995 1_655 S
N118 C119 1.376 . S
N118 C122 1.383 . S
C119 N118 1.376 . S
C119 C120 1.446 . S
C119 C149 1.391 1_655 S
C120 C119 1.446 . S
C120 C121 1.339 . S
C120 H155 0.949 . S
C121 C120 1.339 . S
C121 C122 1.439 . S
C121 H156 0.950 . S
C122 N118 1.383 . S
C122 C121 1.439 . S
C122 C151 1.392 . S
N123 Co117 2.008 1_655 S
N123 C124 1.376 . S
N123 C127 1.374 . S
C124 N123 1.376 . S
C124 C125 1.443 . S
C124 C151 1.389 . S
C125 C124 1.443 . S
C125 C126 1.340 . S
C125 H157 0.951 . S
C126 C125 1.340 . S
C126 C127 1.439 . S
C126 H158 0.950 . S
C127 N123 1.374 . S
C127 C126 1.439 . S
C127 C152 1.400 . S
N128 Co117 1.995 . S
N128 C129 1.376 . S
N128 C132 1.383 . S
C129 N128 1.376 . S
C129 C130 1.446 . S
C129 C152 1.386 1_455 S
C130 C129 1.446 . S
C130 C131 1.339 . S
C130 H159 0.949 . S
C131 C130 1.339 . S
C131 C132 1.439 . S
C131 H160 0.950 . S
C132 N128 1.383 . S
C132 C131 1.439 . S
C132 C150 1.392 . S
N133 Co117 2.282 1_655 S
N133 C136 1.332 . S
N133 C138 1.332 . S
C134 C135 1.386 . S
C134 C137 1.388 . S
C135 C134 1.386 . S
C135 C136 1.382 . S
C135 H161 0.950 . S
C136 N133 1.332 . S
C136 C135 1.382 . S
C136 H147 0.952 . S
C137 C134 1.388 . S
C137 C138 1.382 . S
C137 H162 0.950 . S
C138 N133 1.332 . S
C138 C137 1.382 . S
C138 H148 0.948 . S
N139 Co117 2.282 . S
N139 C143 1.332 . S
N139 C144 1.332 . S
C140 C141 1.388 . S
C140 C144 1.382 . S
C140 H163 0.950 . S
C141 C140 1.388 . S
C141 C142 1.386 . S
C142 C141 1.386 . S
C142 C143 1.382 . S
C142 H164 0.950 . S
C143 N139 1.332 . S
C143 C142 1.382 . S
C143 H145 0.952 . S
C144 N139 1.332 . S
C144 C140 1.382 . S
C144 H146 0.948 . S
H145 C143 0.952 . S
H146 C144 0.948 . S
H147 C136 0.952 . S
H148 C138 0.948 . S
C149 C115 1.395 . S
C149 C119 1.391 1_455 S
C150 C112 1.389 . S
C150 C132 1.392 . S
C151 C122 1.392 . S
C151 C124 1.389 . S
C152 C127 1.400 . S
C152 C129 1.386 1_655 S
H153 C113 0.951 . S
H154 C114 0.950 . S
H155 C120 0.949 . S
H156 C121 0.950 . S
H157 C125 0.951 . S
H158 C126 0.950 . S
H159 C130 0.949 . S
H160 C131 0.950 . S
H161 C135 0.950 . S
H162 C137 0.950 . S
H163 C140 0.950 . S
H164 C142 0.950 . S
C165 C166 1.443 . S
C165 N169 1.376 . S
C165 C203 1.389 . S
C166 C165 1.443 . S
C166 C167 1.340 . S
C166 H206 0.951 . S
C167 C166 1.340 . S
C167 C168 1.439 . S
C167 H207 0.950 . S
C168 C167 1.439 . S
C168 N169 1.374 . S
C168 C202 1.395 . S
N169 C165 1.376 . S
N169 C168 1.374 . S
N169 Co170 2.008 . S
Co170 N169 2.008 . S
Co170 N171 1.995 1_545 S
Co170 N176 2.008 1_545 S
Co170 N181 1.995 . S
Co170 N186 2.282 1_545 S
Co170 N192 2.282 . S
N171 Co170 1.995 1_565 S
N171 C172 1.376 . S
N171 C175 1.383 . S
C172 N171 1.376 . S
C172 C173 1.446 . S
C172 C202 1.391 1_565 S
C173 C172 1.446 . S
C173 C174 1.339 . S
C173 H208 0.949 . S
C174 C173 1.339 . S
C174 C175 1.439 . S
C174 H209 0.950 . S
C175 N171 1.383 . S
C175 C174 1.439 . S
C175 C204 1.392 . S
N176 Co170 2.008 1_565 S
N176 C177 1.376 . S
N176 C180 1.374 . S
C177 N176 1.376 . S
C177 C178 1.443 . S
C177 C204 1.389 . S
C178 C177 1.443 . S
C178 C179 1.340 . S
C178 H210 0.951 . S
C179 C178 1.340 . S
C179 C180 1.439 . S
C179 H211 0.950 . S
C180 N176 1.374 . S
C180 C179 1.439 . S
C180 C205 1.395 . S
N181 Co170 1.995 . S
N181 C182 1.376 . S
N181 C185 1.383 . S
C182 N181 1.376 . S
C182 C183 1.446 . S
C182 C205 1.391 1_545 S
C183 C182 1.446 . S
C183 C184 1.339 . S
C183 H212 0.949 . S
C184 C183 1.339 . S
C184 C185 1.439 . S
C184 H213 0.950 . S
C185 N181 1.383 . S
C185 C184 1.439 . S
C185 C203 1.392 . S
N186 Co170 2.282 1_565 S
N186 C189 1.332 . S
N186 C191 1.332 . S
C187 C188 1.386 . S
C187 C190 1.388 . S
C188 C187 1.386 . S
C188 C189 1.382 . S
C188 H214 0.950 . S
C189 N186 1.332 . S
C189 C188 1.382 . S
C189 H200 0.952 . S
C190 C187 1.388 . S
C190 C191 1.382 . S
C190 H215 0.950 . S
C191 N186 1.332 . S
C191 C190 1.382 . S
C191 H201 0.948 . S
N192 Co170 2.282 . S
N192 C196 1.332 . S
N192 C197 1.332 . S
C193 C194 1.388 . S
C193 C197 1.382 . S
C193 H216 0.950 . S
C194 C193 1.388 . S
C194 C195 1.386 . S
C195 C194 1.386 . S
C195 C196 1.382 . S
C195 H217 0.950 . S
C196 N192 1.332 . S
C196 C195 1.382 . S
C196 H198 0.952 . S
C197 N192 1.332 . S
C197 C193 1.382 . S
C197 H199 0.948 . S
H198 C196 0.952 . S
H199 C197 0.948 . S
H200 C189 0.952 . S
H201 C191 0.948 . S
C202 C168 1.395 . S
C202 C172 1.391 1_545 S
C203 C165 1.389 . S
C203 C185 1.392 . S
C204 C175 1.392 . S
C204 C177 1.389 . S
C205 C180 1.395 . S
C205 C182 1.391 1_565 S
H206 C166 0.951 . S
H207 C167 0.950 . S
H208 C173 0.949 . S
H209 C174 0.950 . S
H210 C178 0.951 . S
H211 C179 0.950 . S
H212 C183 0.949 . S
H213 C184 0.950 . S
H214 C188 0.950 . S
H215 C190 0.950 . S
H216 C193 0.950 . S
H217 C195 0.950 . S
C218 C219 1.443 . S
C218 N222 1.376 . S
C218 C256 1.389 . S
C219 C218 1.443 . S
C219 C220 1.340 . S
C219 H259 0.951 . S
C220 C219 1.340 . S
C220 C221 1.439 . S
C220 H260 0.950 . S
C221 C220 1.439 . S
C221 N222 1.374 . S
C221 C255 1.395 . S
N222 C218 1.376 . S
N222 C221 1.374 . S
N222 Co223 2.008 . S
Co223 N222 2.008 . S
Co223 N224 1.995 1_455 S
Co223 N229 2.008 1_455 S
Co223 N234 1.995 . S
Co223 N239 2.282 1_455 S
Co223 N245 2.282 . S
N224 Co223 1.995 1_655 S
N224 C225 1.376 . S
N224 C228 1.383 . S
C225 N224 1.376 . S
C225 C226 1.446 . S
C225 C255 1.391 1_655 S
C226 C225 1.446 . S
C226 C227 1.339 . S
C226 H261 0.949 . S
C227 C226 1.339 . S
C227 C228 1.439 . S
C227 H262 0.950 . S
C228 N224 1.383 . S
C228 C227 1.439 . S
C228 C257 1.392 . S
N229 Co223 2.008 1_655 S
N229 C230 1.376 . S
N229 C233 1.374 . S
C230 N229 1.376 . S
C230 C231 1.443 . S
C230 C257 1.389 . S
C231 C230 1.443 . S
C231 C232 1.340 . S
C231 H263 0.951 . S
C232 C231 1.340 . S
C232 C233 1.439 . S
C232 H264 0.950 . S
C233 N229 1.374 . S
C233 C232 1.439 . S
C233 C258 1.395 . S
N234 Co223 1.995 . S
N234 C235 1.376 . S
N234 C238 1.383 . S
C235 N234 1.376 . S
C235 C236 1.446 . S
C235 C258 1.391 1_455 S
C236 C235 1.446 . S
C236 C237 1.339 . S
C236 H265 0.949 . S
C237 C236 1.339 . S
C237 C238 1.439 . S
C237 H266 0.950 . S
C238 N234 1.383 . S
C238 C237 1.439 . S
C238 C256 1.392 . S
N239 Co223 2.282 1_655 S
N239 C242 1.332 . S
N239 C244 1.332 . S
C240 C241 1.386 . S
C240 C243 1.388 . S
C241 C240 1.386 . S
C241 C242 1.382 . S
C241 H267 0.950 . S
C242 N239 1.332 . S
C242 C241 1.382 . S
C242 H253 0.952 . S
C243 C240 1.388 . S
C243 C244 1.382 . S
C243 H268 0.950 . S
C244 N239 1.332 . S
C244 C243 1.382 . S
C244 H254 0.948 . S
N245 Co223 2.282 . S
N245 C249 1.332 . S
N245 C250 1.332 . S
C246 C247 1.388 . S
C246 C250 1.382 . S
C246 H269 0.950 . S
C247 C246 1.388 . S
C247 C248 1.386 . S
C248 C247 1.386 . S
C248 C249 1.382 . S
C248 H270 0.950 . S
C249 N245 1.332 . S
C249 C248 1.382 . S
C249 H251 0.952 . S
C250 N245 1.332 . S
C250 C246 1.382 . S
C250 H252 0.948 . S
H251 C249 0.952 . S
H252 C250 0.948 . S
H253 C242 0.952 . S
H254 C244 0.948 . S
C255 C221 1.395 . S
C255 C225 1.391 1_455 S
C256 C218 1.389 . S
C256 C238 1.392 . S
C257 C228 1.392 . S
C257 C230 1.389 . S
C258 C233 1.395 . S
C258 C235 1.391 1_655 S
H259 C219 0.951 . S
H260 C220 0.950 . S
H261 C226 0.949 . S
H262 C227 0.950 . S
H263 C231 0.951 . S
H264 C232 0.950 . S
H265 C236 0.949 . S
H266 C237 0.950 . S
H267 C241 0.950 . S
H268 C243 0.950 . S
H269 C246 0.950 . S
H270 C248 0.950 . S
C271 C272 1.443 . S
C271 N275 1.376 . S
C271 C309 1.389 . S
C272 C271 1.443 . S
C272 C273 1.340 . S
C272 H312 0.951 . S
C273 C272 1.340 . S
C273 C274 1.439 . S
C273 H313 0.950 . S
C274 C273 1.439 . S
C274 N275 1.374 . S
C274 C308 1.395 . S
N275 C271 1.376 . S
N275 C274 1.374 . S
N275 Co276 2.008 1_565 S
Co276 N275 2.008 1_545 S
Co276 N277 1.995 . S
Co276 N282 2.008 . S
Co276 N287 1.995 1_545 S
Co276 N292 2.282 . S
Co276 N298 2.282 1_545 S
N277 Co276 1.995 . S
N277 C278 1.376 . S
N277 C281 1.383 . S
C278 N277 1.376 . S
C278 C279 1.446 . S
C278 C308 1.391 1_545 S
C279 C278 1.446 . S
C279 C280 1.339 . S
C279 H314 0.949 . S
C280 C279 1.339 . S
C280 C281 1.439 . S
C280 H315 0.950 . S
C281 N277 1.383 . S
C281 C280 1.439 . S
C281 C310 1.392 . S
N282 Co276 2.008 . S
N282 C283 1.376 . S
N282 C286 1.374 . S
C283 N282 1.376 . S
C283 C284 1.443 . S
C283 C310 1.389 . S
C284 C283 1.443 . S
C284 C285 1.340 . S
C284 H316 0.951 . S
C285 C284 1.340 . S
C285 C286 1.439 . S
C285 H317 0.950 . S
C286 N282 1.374 . S
C286 C285 1.439 . S
C286 C311 1.395 . S
N287 Co276 1.995 1_565 S
N287 C288 1.376 . S
N287 C291 1.383 . S
C288 N287 1.376 . S
C288 C289 1.446 . S
C288 C311 1.391 1_565 S
C289 C288 1.446 . S
C289 C290 1.339 . S
C289 H318 0.949 . S
C290 C289 1.339 . S
C290 C291 1.439 . S
C290 H319 0.950 . S
C291 N287 1.383 . S
C291 C290 1.439 . S
C291 C309 1.392 . S
N292 Co276 2.282 . S
N292 C295 1.332 . S
N292 C297 1.332 . S
C293 C294 1.386 . S
C293 C296 1.388 . S
C294 C293 1.386 . S
C294 C295 1.382 . S
C294 H320 0.950 . S
C295 N292 1.332 . S
C295 C294 1.382 . S
C295 H306 0.952 . S
C296 C293 1.388 . S
C296 C297 1.382 . S
C296 H321 0.950 . S
C297 N292 1.332 . S
C297 C296 1.382 . S
C297 H307 0.948 . S
N298 Co276 2.282 1_565 S
N298 C302 1.332 . S
N298 C303 1.332 . S
C299 C300 1.388 . S
C299 C303 1.382 . S
C299 H322 0.950 . S
C300 C299 1.388 . S
C300 C301 1.386 . S
C301 C300 1.386 . S
C301 C302 1.382 . S
C301 H323 0.950 . S
C302 N298 1.332 . S
C302 C301 1.382 . S
C302 H304 0.952 . S
C303 N298 1.332 . S
C303 C299 1.382 . S
C303 H305 0.948 . S
H304 C302 0.952 . S
H305 C303 0.948 . S
H306 C295 0.952 . S
H307 C297 0.948 . S
C308 C274 1.395 . S
C308 C278 1.391 1_565 S
C309 C271 1.389 . S
C309 C291 1.392 . S
C310 C281 1.392 . S
C310 C283 1.389 . S
C311 C286 1.395 . S
C311 C288 1.391 1_545 S
H312 C272 0.951 . S
H313 C273 0.950 . S
H314 C279 0.949 . S
H315 C280 0.950 . S
H316 C284 0.951 . S
H317 C285 0.950 . S
H318 C289 0.949 . S
H319 C290 0.950 . S
H320 C294 0.950 . S
H321 C296 0.950 . S
H322 C299 0.950 . S
H323 C301 0.950 . S
C324 C325 1.443 . S
C324 N328 1.376 . S
C324 C362 1.389 . S
C325 C324 1.443 . S
C325 C326 1.340 . S
C325 H365 0.951 . S
C326 C325 1.340 . S
C326 C327 1.439 . S
C326 H366 0.950 . S
C327 C326 1.439 . S
C327 N328 1.374 . S
C327 C361 1.395 . S
N328 C324 1.376 . S
N328 C327 1.374 . S
N328 Co329 2.009 . S
Co329 N328 2.009 . S
Co329 N330 1.994 1_554 S
Co329 N335 2.007 1_554 S
Co329 N340 1.996 . S
Co329 N345 2.284 . S
Co329 N351 2.281 1_554 S
N330 Co329 1.994 1_556 S
N330 C331 1.376 . S
N330 C334 1.383 . S
C331 N330 1.376 . S
C331 C332 1.446 . S
C331 C361 1.391 1_556 S
C332 C331 1.446 . S
C332 C333 1.339 . S
C332 H367 0.949 . S
C333 C332 1.339 . S
C333 C334 1.439 . S
C333 H368 0.950 . S
C334 N330 1.383 . S
C334 C333 1.439 . S
C334 C363 1.392 . S
N335 Co329 2.007 1_556 S
N335 C336 1.376 . S
N335 C339 1.374 . S
C336 N335 1.376 . S
C336 C337 1.443 . S
C336 C363 1.389 . S
C337 C336 1.443 . S
C337 C338 1.340 . S
C337 H369 0.951 . S
C338 C337 1.340 . S
C338 C339 1.439 . S
C338 H370 0.950 . S
C339 N335 1.374 . S
C339 C338 1.439 . S
C339 C364 1.392 1_556 S
N340 Co329 1.996 . S
N340 C341 1.376 . S
N340 C344 1.383 . S
C341 N340 1.376 . S
C341 C342 1.446 . S
C341 C364 1.393 . S
C342 C341 1.446 . S
C342 C343 1.339 . S
C342 H371 0.949 . S
C343 C342 1.339 . S
C343 C344 1.439 . S
C343 H372 0.950 . S
C344 N340 1.383 . S
C344 C343 1.439 . S
C344 C362 1.392 . S
N345 Co329 2.284 . S
N345 C348 1.332 . S
N345 C350 1.332 . S
C346 C347 1.386 . S
C346 C349 1.388 . S
C347 C346 1.386 . S
C347 C348 1.382 . S
C347 H373 0.950 . S
C348 N345 1.332 . S
C348 C347 1.382 . S
C348 H359 0.952 . S
C349 C346 1.388 . S
C349 C350 1.382 . S
C349 H374 0.950 . S
C350 N345 1.332 . S
C350 C349 1.382 . S
C350 H360 0.948 . S
N351 Co329 2.281 1_556 S
N351 C355 1.332 . S
N351 C356 1.332 . S
C352 C353 1.388 . S
C352 C356 1.382 . S
C352 H375 0.950 . S
C353 C352 1.388 . S
C353 C354 1.386 . S
C354 C353 1.386 . S
C354 C355 1.382 . S
C354 H376 0.950 . S
C355 N351 1.332 . S
C355 C354 1.382 . S
C355 H357 0.952 . S
C356 N351 1.332 . S
C356 C352 1.382 . S
C356 H358 0.948 . S
H357 C355 0.952 . S
H358 C356 0.948 . S
H359 C348 0.952 . S
H360 C350 0.948 . S
C361 C327 1.395 . S
C361 C331 1.391 1_554 S
C362 C324 1.389 . S
C362 C344 1.392 . S
C363 C334 1.392 . S
C363 C336 1.389 . S
C364 C339 1.392 1_554 S
C364 C341 1.393 . S
H365 C325 0.951 . S
H366 C326 0.950 . S
H367 C332 0.949 . S
H368 C333 0.950 . S
H369 C337 0.951 . S
H370 C338 0.950 . S
H371 C342 0.949 . S
H372 C343 0.950 . S
H373 C347 0.950 . S
H374 C349 0.950 . S
H375 C352 0.950 . S
H376 C354 0.950 . S
C377 C378 1.443 . S
C377 N381 1.376 . S
C377 C415 1.389 . S
C378 C377 1.443 . S
C378 C379 1.340 . S
C378 H418 0.951 . S
C379 C378 1.340 . S
C379 C380 1.439 . S
C379 H419 0.950 . S
C380 C379 1.439 . S
C380 N381 1.374 . S
C380 C414 1.395 1_554 S
N381 C377 1.376 . S
N381 C380 1.374 . S
N381 Co382 2.008 . S
Co382 N381 2.008 . S
Co382 N383 1.995 1_554 S
Co382 N388 2.008 1_554 S
Co382 N393 1.995 . S
Co382 N398 2.282 . S
Co382 N404 2.282 1_554 S
N383 Co382 1.995 1_556 S
N383 C384 1.376 . S
N383 C387 1.383 . S
C384 N383 1.376 . S
C384 C385 1.446 . S
C384 C414 1.391 . S
C385 C384 1.446 . S
C385 C386 1.339 . S
C385 H420 0.949 . S
C386 C385 1.339 . S
C386 C387 1.439 . S
C386 H421 0.950 . S
C387 N383 1.383 . S
C387 C386 1.439 . S
C387 C416 1.392 . S
N388 Co382 2.008 1_556 S
N388 C389 1.376 . S
N388 C392 1.374 1_556 S
C389 N388 1.376 . S
C389 C390 1.443 . S
C389 C416 1.389 . S
C390 C389 1.443 . S
C390 C391 1.340 . S
C390 H422 0.951 . S
C391 C390 1.340 . S
C391 C392 1.439 1_556 S
C391 H423 0.950 . S
C392 N388 1.374 1_554 S
C392 C391 1.439 1_554 S
C392 C417 1.395 . S
N393 Co382 1.995 . S
N393 C394 1.376 . S
N393 C397 1.383 . S
C394 N393 1.376 . S
C394 C395 1.446 . S
C394 C417 1.391 . S
C395 C394 1.446 . S
C395 C396 1.339 . S
C395 H424 0.949 . S
C396 C395 1.339 . S
C396 C397 1.439 . S
C396 H425 0.950 . S
C397 N393 1.383 . S
C397 C396 1.439 . S
C397 C415 1.392 . S
N398 Co382 2.282 . S
N398 C401 1.332 . S
N398 C403 1.332 . S
C399 C400 1.386 . S
C399 C402 1.388 . S
C400 C399 1.386 . S
C400 C401 1.382 . S
C400 H426 0.950 . S
C401 N398 1.332 . S
C401 C400 1.382 . S
C401 H412 0.952 . S
C402 C399 1.388 . S
C402 C403 1.382 . S
C402 H427 0.950 . S
C403 N398 1.332 . S
C403 C402 1.382 . S
C403 H413 0.948 . S
N404 Co382 2.282 1_556 S
N404 C408 1.332 . S
N404 C409 1.332 . S
C405 C406 1.388 . S
C405 C409 1.382 . S
C405 H428 0.950 . S
C406 C405 1.388 . S
C406 C407 1.386 . S
C407 C406 1.386 . S
C407 C408 1.382 . S
C407 H429 0.950 . S
C408 N404 1.332 . S
C408 C407 1.382 . S
C408 H410 0.952 . S
C409 N404 1.332 . S
C409 C405 1.382 . S
C409 H411 0.948 . S
H410 C408 0.952 . S
H411 C409 0.948 . S
H412 C401 0.952 . S
H413 C403 0.948 . S
C414 C380 1.395 1_556 S
C414 C384 1.391 . S
C415 C377 1.389 . S
C415 C397 1.392 . S
C416 C387 1.392 . S
C416 C389 1.389 . S
C417 C392 1.395 . S
C417 C394 1.391 . S
H418 C378 0.951 . S
H419 C379 0.950 . S
H420 C385 0.949 . S
H421 C386 0.950 . S
H422 C390 0.951 . S
H423 C391 0.950 . S
H424 C395 0.949 . S
H425 C396 0.950 . S
H426 C400 0.950 . S
H427 C402 0.950 . S
H428 C405 0.950 . S
H429 C407 0.950 . S
C430 C431 1.443 . S
C430 N434 1.376 1_556 S
C430 C468 1.389 . S
C431 C430 1.443 . S
C431 C432 1.340 . S
C431 H471 0.951 . S
C432 C431 1.340 . S
C432 C433 1.439 1_556 S
C432 H472 0.950 . S
C433 C432 1.439 1_554 S
C433 N434 1.374 . S
C433 C467 1.395 . S
N434 C430 1.376 1_554 S
N434 C433 1.374 . S
N434 Co435 2.008 . S
Co435 N434 2.008 . S
Co435 N436 1.995 . S
Co435 N441 2.008 . S
Co435 N446 1.995 1_554 S
Co435 N451 2.282 1_554 S
Co435 N457 2.282 . S
N436 Co435 1.995 . S
N436 C437 1.376 . S
N436 C440 1.383 . S
C437 N436 1.376 . S
C437 C438 1.446 . S
C437 C467 1.391 . S
C438 C437 1.446 . S
C438 C439 1.339 . S
C438 H473 0.949 . S
C439 C438 1.339 . S
C439 C440 1.439 . S
C439 H474 0.950 . S
C440 N436 1.383 . S
C440 C439 1.439 . S
C440 C469 1.392 . S
N441 Co435 2.008 . S
N441 C442 1.376 . S
N441 C445 1.374 . S
C442 N441 1.376 . S
C442 C443 1.443 . S
C442 C469 1.389 . S
C443 C442 1.443 . S
C443 C444 1.340 . S
C443 H475 0.951 . S
C444 C443 1.340 . S
C444 C445 1.439 . S
C444 H476 0.950 . S
C445 N441 1.374 . S
C445 C444 1.439 . S
C445 C470 1.395 . S
N446 Co435 1.995 1_556 S
N446 C447 1.376 . S
N446 C450 1.383 . S
C447 N446 1.376 . S
C447 C448 1.446 . S
C447 C470 1.391 1_556 S
C448 C447 1.446 . S
C448 C449 1.339 . S
C448 H477 0.949 . S
C449 C448 1.339 . S
C449 C450 1.439 . S
C449 H478 0.950 . S
C450 N446 1.383 . S
C450 C449 1.439 . S
C450 C468 1.392 . S
N451 Co435 2.282 1_556 S
N451 C454 1.332 . S
N451 C456 1.332 . S
C452 C453 1.386 . S
C452 C455 1.388 . S
C453 C452 1.386 . S
C453 C454 1.382 . S
C453 H479 0.950 . S
C454 N451 1.332 . S
C454 C453 1.382 . S
C454 H465 0.952 . S
C455 C452 1.388 . S
C455 C456 1.382 . S
C455 H480 0.950 . S
C456 N451 1.332 . S
C456 C455 1.382 . S
C456 H466 0.948 . S
N457 Co435 2.282 . S
N457 C461 1.332 . S
N457 C462 1.332 . S
C458 C459 1.388 . S
C458 C462 1.382 . S
C458 H481 0.950 . S
C459 C458 1.388 . S
C459 C460 1.386 . S
C460 C459 1.386 . S
C460 C461 1.382 . S
C460 H482 0.950 . S
C461 N457 1.332 . S
C461 C460 1.382 . S
C461 H463 0.952 . S
C462 N457 1.332 . S
C462 C458 1.382 . S
C462 H464 0.948 . S
H463 C461 0.952 . S
H464 C462 0.948 . S
H465 C454 0.952 . S
H466 C456 0.948 . S
C467 C433 1.395 . S
C467 C437 1.391 . S
C468 C430 1.389 . S
C468 C450 1.392 . S
C469 C440 1.392 . S
C469 C442 1.389 . S
C470 C445 1.395 . S
C470 C447 1.391 1_554 S
H471 C431 0.951 . S
H472 C432 0.950 . S
H473 C438 0.949 . S
H474 C439 0.950 . S
H475 C443 0.951 . S
H476 C444 0.950 . S
H477 C448 0.949 . S
H478 C449 0.950 . S
H479 C453 0.950 . S
H480 C455 0.950 . S
H481 C458 0.950 . S
H482 C460 0.950 . S
C483 C484 1.443 . S
C483 N487 1.376 . S
C483 C521 1.389 . S
C484 C483 1.443 . S
C484 C485 1.340 . S
C484 H524 0.951 . S
C485 C484 1.340 . S
C485 C486 1.439 . S
C485 H525 0.950 . S
C486 C485 1.439 . S
C486 N487 1.374 . S
C486 C520 1.395 1_554 S
N487 C483 1.376 . S
N487 C486 1.374 . S
N487 Co488 2.008 . S
Co488 N487 2.008 . S
Co488 N489 1.995 1_554 S
Co488 N494 2.008 1_554 S
Co488 N499 1.995 . S
Co488 N504 2.282 . S
Co488 N510 2.282 1_554 S
N489 Co488 1.995 1_556 S
N489 C490 1.376 . S
N489 C493 1.383 . S
C490 N489 1.376 . S
C490 C491 1.446 . S
C490 C520 1.391 . S
C491 C490 1.446 . S
C491 C492 1.339 . S
C491 H526 0.949 . S
C492 C491 1.339 . S
C492 C493 1.439 . S
C492 H527 0.950 . S
C493 N489 1.383 . S
C493 C492 1.439 . S
C493 C522 1.392 . S
N494 Co488 2.008 1_556 S
N494 C495 1.376 . S
N494 C498 1.374 1_556 S
C495 N494 1.376 . S
C495 C496 1.443 . S
C495 C522 1.389 . S
C496 C495 1.443 . S
C496 C497 1.340 . S
C496 H528 0.951 . S
C497 C496 1.340 . S
C497 C498 1.439 1_556 S
C497 H529 0.950 . S
C498 N494 1.374 1_554 S
C498 C497 1.439 1_554 S
C498 C523 1.395 . S
N499 Co488 1.995 . S
N499 C500 1.376 . S
N499 C503 1.383 . S
C500 N499 1.376 . S
C500 C501 1.446 . S
C500 C523 1.391 . S
C501 C500 1.446 . S
C501 C502 1.339 . S
C501 H530 0.949 . S
C502 C501 1.339 . S
C502 C503 1.439 . S
C502 H531 0.950 . S
C503 N499 1.383 . S
C503 C502 1.439 . S
C503 C521 1.392 . S
N504 Co488 2.282 . S
N504 C507 1.332 . S
N504 C509 1.332 . S
C505 C506 1.386 . S
C505 C508 1.388 . S
C506 C505 1.386 . S
C506 C507 1.382 . S
C506 H532 0.950 . S
C507 N504 1.332 . S
C507 C506 1.382 . S
C507 H518 0.952 . S
C508 C505 1.388 . S
C508 C509 1.382 . S
C508 H533 0.950 . S
C509 N504 1.332 . S
C509 C508 1.382 . S
C509 H519 0.948 . S
N510 Co488 2.282 1_556 S
N510 C514 1.332 . S
N510 C515 1.332 . S
C511 C512 1.388 . S
C511 C515 1.382 . S
C511 H534 0.950 . S
C512 C511 1.388 . S
C512 C513 1.386 . S
C513 C512 1.386 . S
C513 C514 1.382 . S
C513 H535 0.950 . S
C514 N510 1.332 . S
C514 C513 1.382 . S
C514 H516 0.952 . S
C515 N510 1.332 . S
C515 C511 1.382 . S
C515 H517 0.948 . S
H516 C514 0.952 . S
H517 C515 0.948 . S
H518 C507 0.952 . S
H519 C509 0.948 . S
C520 C486 1.395 1_556 S
C520 C490 1.391 . S
C521 C483 1.389 . S
C521 C503 1.392 . S
C522 C493 1.392 . S
C522 C495 1.389 . S
C523 C498 1.395 . S
C523 C500 1.391 . S
H524 C484 0.951 . S
H525 C485 0.950 . S
H526 C491 0.949 . S
H527 C492 0.950 . S
H528 C496 0.951 . S
H529 C497 0.950 . S
H530 C501 0.949 . S
H531 C502 0.950 . S
H532 C506 0.950 . S
H533 C508 0.950 . S
H534 C511 0.950 . S
H535 C513 0.950 . S
H536 C542 0.930 . S
H537 C545 0.930 . S
H538 C546 0.930 . S
H539 C547 0.930 . S
H540 C550 0.930 . S
H541 C551 0.930 . S
C542 H536 0.930 . S
C542 C543 1.355 . S
C542 C544 1.415 . S
C543 C542 1.355 . S
C543 C545 1.419 . S
C544 C542 1.415 . S
C544 C549 1.425 . S
C544 C551 1.409 . S
C545 H537 0.930 . S
C545 C543 1.419 . S
C545 C546 1.362 . S
C546 H538 0.930 . S
C546 C545 1.362 . S
C546 C549 1.409 . S
C547 H539 0.930 . S
C547 C548 1.355 . S
C547 C549 1.415 . S
C548 C547 1.355 . S
C548 C550 1.419 . S
C549 C544 1.425 . S
C549 C546 1.409 . S
C549 C547 1.415 . S
C550 H540 0.930 . S
C550 C548 1.419 . S
C550 C551 1.362 . S
C551 H541 0.930 . S
C551 C544 1.409 . S
C551 C550 1.362 . S
H552 C558 0.930 . S
H553 C561 0.930 . S
H554 C562 0.930 . S
H555 C563 0.930 . S
H556 C566 0.930 . S
H557 C567 0.930 . S
C558 H552 0.930 . S
C558 C559 1.355 . S
C558 C560 1.415 . S
C559 C558 1.355 . S
C559 C561 1.419 . S
C560 C558 1.415 . S
C560 C565 1.425 . S
C560 C567 1.409 . S
C561 H553 0.930 . S
C561 C559 1.419 . S
C561 C562 1.362 . S
C562 H554 0.930 . S
C562 C561 1.362 . S
C562 C565 1.409 . S
C563 H555 0.930 . S
C563 C564 1.355 . S
C563 C565 1.415 . S
C564 C563 1.355 . S
C564 C566 1.419 . S
C565 C560 1.425 . S
C565 C562 1.409 . S
C565 C563 1.415 . S
C566 H556 0.930 . S
C566 C564 1.419 . S
C566 C567 1.362 . S
C567 H557 0.930 . S
C567 C560 1.409 . S
C567 C566 1.362 . S
H568 C574 0.930 . S
H569 C577 0.930 . S
H570 C578 0.930 . S
H571 C579 0.930 . S
H572 C582 0.930 . S
H573 C583 0.930 . S
C574 H568 0.930 . S
C574 C575 1.355 . S
C574 C576 1.415 . S
C575 C574 1.355 . S
C575 C577 1.419 . S
C576 C574 1.415 . S
C576 C581 1.425 . S
C576 C583 1.409 . S
C577 H569 0.930 . S
C577 C575 1.419 . S
C577 C578 1.362 . S
C578 H570 0.930 . S
C578 C577 1.362 . S
C578 C581 1.409 . S
C579 H571 0.930 . S
C579 C580 1.355 . S
C579 C581 1.415 . S
C580 C579 1.355 . S
C580 C582 1.419 . S
C581 C576 1.425 . S
C581 C578 1.409 . S
C581 C579 1.415 . S
C582 H572 0.930 . S
C582 C580 1.419 . S
C582 C583 1.362 . S
C583 H573 0.930 . S
C583 C576 1.409 . S
C583 C582 1.362 . S
H584 C590 0.930 . S
H585 C593 0.930 . S
H586 C594 0.930 . S
H587 C595 0.930 . S
H588 C598 0.930 . S
H589 C599 0.930 . S
C590 H584 0.930 . S
C590 C591 1.355 . S
C590 C592 1.415 . S
C591 C590 1.355 . S
C591 C593 1.419 . S
C592 C590 1.415 . S
C592 C597 1.425 . S
C592 C599 1.409 . S
C593 H585 0.930 . S
C593 C591 1.419 . S
C593 C594 1.362 . S
C594 H586 0.930 . S
C594 C593 1.362 . S
C594 C597 1.409 . S
C595 H587 0.930 . S
C595 C596 1.355 . S
C595 C597 1.415 . S
C596 C595 1.355 . S
C596 C598 1.419 . S
C597 C592 1.425 . S
C597 C594 1.409 . S
C597 C595 1.415 . S
C598 H588 0.930 . S
C598 C596 1.419 . S
C598 C599 1.362 . S
C599 H589 0.930 . S
C599 C592 1.409 . S
C599 C598 1.362 . S
H600 C606 0.930 . S
H601 C609 0.930 . S
H602 C610 0.930 . S
H603 C611 0.930 . S
H604 C614 0.930 . S
H605 C615 0.930 . S
C606 H600 0.930 . S
C606 C607 1.355 . S
C606 C608 1.415 . S
C607 C606 1.355 . S
C607 C609 1.419 . S
C608 C606 1.415 . S
C608 C613 1.425 . S
C608 C615 1.409 . S
C609 H601 0.930 . S
C609 C607 1.419 . S
C609 C610 1.362 . S
C610 H602 0.930 . S
C610 C609 1.362 . S
C610 C613 1.409 . S
C611 H603 0.930 . S
C611 C612 1.355 . S
C611 C613 1.415 . S
C612 C611 1.355 . S
C612 C614 1.419 . S
C613 C608 1.425 . S
C613 C610 1.409 . S
C613 C611 1.415 . S
C614 H604 0.930 . S
C614 C612 1.419 . S
C614 C615 1.362 . S
C615 H605 0.930 . S
C615 C608 1.409 . S
C615 C614 1.362 . S
H616 C622 0.930 . S
H617 C625 0.930 . S
H618 C626 0.930 . S
H619 C627 0.930 . S
H620 C630 0.930 . S
H621 C631 0.930 . S
C622 H616 0.930 . S
C622 C623 1.355 . S
C622 C624 1.415 . S
C623 C622 1.355 . S
C623 C625 1.419 . S
C624 C622 1.415 . S
C624 C629 1.425 . S
C624 C631 1.409 . S
C625 H617 0.930 . S
C625 C623 1.419 . S
C625 C626 1.362 . S
C626 H618 0.930 . S
C626 C625 1.362 . S
C626 C629 1.409 . S
C627 H619 0.930 . S
C627 C628 1.355 . S
C627 C629 1.415 . S
C628 C627 1.355 . S
C628 C630 1.419 . S
C629 C624 1.425 . S
C629 C626 1.409 . S
C629 C627 1.415 . S
C630 H620 0.930 . S
C630 C628 1.419 . S
C630 C631 1.362 . S
C631 H621 0.930 . S
C631 C624 1.409 . S
C631 C630 1.362 . S
H632 C638 0.930 . S
H633 C641 0.930 . S
H634 C642 0.930 . S
H635 C643 0.930 . S
H636 C646 0.930 . S
H637 C647 0.930 . S
C638 H632 0.930 . S
C638 C639 1.355 . S
C638 C640 1.415 . S
C639 C638 1.355 . S
C639 C641 1.419 . S
C640 C638 1.415 . S
C640 C645 1.425 . S
C640 C647 1.409 . S
C641 H633 0.930 . S
C641 C639 1.419 . S
C641 C642 1.362 . S
C642 H634 0.930 . S
C642 C641 1.362 . S
C642 C645 1.409 . S
C643 H635 0.930 . S
C643 C644 1.355 . S
C643 C645 1.415 . S
C644 C643 1.355 . S
C644 C646 1.419 . S
C645 C640 1.425 . S
C645 C642 1.409 . S
C645 C643 1.415 . S
C646 H636 0.930 . S
C646 C644 1.419 . S
C646 C647 1.362 . S
C647 H637 0.930 . S
C647 C640 1.409 . S
C647 C646 1.362 . S
H648 C654 0.930 . S
H649 C657 0.930 . S
H650 C658 0.930 . S
H651 C659 0.930 . S
H652 C662 0.930 . S
H653 C663 0.930 . S
C654 H648 0.930 . S
C654 C655 1.355 . S
C654 C656 1.415 . S
C655 C654 1.355 . S
C655 C657 1.419 . S
C656 C654 1.415 . S
C656 C661 1.425 . S
C656 C663 1.409 . S
C657 H649 0.930 . S
C657 C655 1.419 . S
C657 C658 1.362 . S
C658 H650 0.930 . S
C658 C657 1.362 . S
C658 C661 1.409 . S
C659 H651 0.930 . S
C659 C660 1.355 . S
C659 C661 1.415 . S
C660 C659 1.355 . S
C660 C662 1.419 . S
C661 C656 1.425 . S
C661 C658 1.409 . S
C661 C659 1.415 . S
C662 H652 0.930 . S
C662 C660 1.419 . S
C662 C663 1.362 . S
C663 H653 0.930 . S
C663 C656 1.409 . S
C663 C662 1.362 . S
H664 C670 0.930 . S
H665 C673 0.930 . S
H666 C674 0.930 . S
H667 C675 0.930 . S
H668 C678 0.930 . S
H669 C679 0.930 . S
C670 H664 0.930 . S
C670 C671 1.355 . S
C670 C672 1.415 . S
C671 C670 1.355 . S
C671 C673 1.419 . S
C672 C670 1.415 . S
C672 C677 1.425 . S
C672 C679 1.409 . S
C673 H665 0.930 . S
C673 C671 1.419 . S
C673 C674 1.362 . S
C674 H666 0.930 . S
C674 C673 1.362 . S
C674 C677 1.409 . S
C675 H667 0.930 . S
C675 C676 1.355 . S
C675 C677 1.415 . S
C676 C675 1.355 . S
C676 C678 1.419 . S
C677 C672 1.425 . S
C677 C674 1.409 . S
C677 C675 1.415 . S
C678 H668 0.930 . S
C678 C676 1.419 . S
C678 C679 1.362 . S
C679 H669 0.930 . S
C679 C672 1.409 . S
C679 C678 1.362 . S
H680 C686 0.930 . S
H681 C689 0.930 . S
H682 C690 0.930 . S
H683 C691 0.930 . S
H684 C694 0.930 . S
H685 C695 0.930 . S
C686 H680 0.930 . S
C686 C687 1.355 . S
C686 C688 1.415 . S
C687 C686 1.355 . S
C687 C689 1.419 . S
C688 C686 1.415 . S
C688 C693 1.425 . S
C688 C695 1.409 . S
C689 H681 0.930 . S
C689 C687 1.419 . S
C689 C690 1.362 . S
C690 H682 0.930 . S
C690 C689 1.362 . S
C690 C693 1.409 . S
C691 H683 0.930 . S
C691 C692 1.355 . S
C691 C693 1.415 . S
C692 C691 1.355 . S
C692 C694 1.419 . S
C693 C688 1.425 . S
C693 C690 1.409 . S
C693 C691 1.415 . S
C694 H684 0.930 . S
C694 C692 1.419 . S
C694 C695 1.362 . S
C695 H685 0.930 . S
C695 C688 1.409 . S
C695 C694 1.362 . S
H696 C702 0.930 . S
H697 C705 0.930 . S
H698 C706 0.930 . S
H699 C707 0.930 . S
H700 C710 0.930 . S
H701 C711 0.930 . S
C702 H696 0.930 . S
C702 C703 1.355 . S
C702 C704 1.415 . S
C703 C702 1.355 . S
C703 C705 1.419 . S
C704 C702 1.415 . S
C704 C709 1.425 . S
C704 C711 1.409 . S
C705 H697 0.930 . S
C705 C703 1.419 . S
C705 C706 1.362 . S
C706 H698 0.930 . S
C706 C705 1.362 . S
C706 C709 1.409 . S
C707 H699 0.930 . S
C707 C708 1.355 . S
C707 C709 1.415 . S
C708 C707 1.355 . S
C708 C710 1.419 . S
C709 C704 1.425 . S
C709 C706 1.409 . S
C709 C707 1.415 . S
C710 H700 0.930 . S
C710 C708 1.419 . S
C710 C711 1.362 . S
C711 H701 0.930 . S
C711 C704 1.409 . S
C711 C710 1.362 . S
H712 C718 0.930 . S
H713 C721 0.930 . S
H714 C722 0.930 . S
H715 C723 0.930 . S
H716 C726 0.930 . S
H717 C727 0.930 . S
C718 H712 0.930 . S
C718 C719 1.355 . S
C718 C720 1.415 . S
C719 C718 1.355 . S
C719 C721 1.419 . S
C720 C718 1.415 . S
C720 C725 1.425 . S
C720 C727 1.409 . S
C721 H713 0.930 . S
C721 C719 1.419 . S
C721 C722 1.362 . S
C722 H714 0.930 . S
C722 C721 1.362 . S
C722 C725 1.409 . S
C723 H715 0.930 . S
C723 C724 1.355 . S
C723 C725 1.415 . S
C724 C723 1.355 . S
C724 C726 1.419 . S
C725 C720 1.425 . S
C725 C722 1.409 . S
C725 C723 1.415 . S
C726 H716 0.930 . S
C726 C724 1.419 . S
C726 C727 1.362 . S
C727 H717 0.930 . S
C727 C720 1.409 . S
C727 C726 1.362 . S
H728 C734 0.930 . S
H729 C737 0.930 . S
H730 C738 0.930 . S
H731 C739 0.930 . S
H732 C742 0.930 . S
H733 C743 0.930 . S
C734 H728 0.930 . S
C734 C735 1.355 . S
C734 C736 1.415 . S
C735 C734 1.355 . S
C735 C737 1.419 . S
C736 C734 1.415 . S
C736 C741 1.425 . S
C736 C743 1.409 . S
C737 H729 0.930 . S
C737 C735 1.419 . S
C737 C738 1.362 . S
C738 H730 0.930 . S
C738 C737 1.362 . S
C738 C741 1.409 . S
C739 H731 0.930 . S
C739 C740 1.355 . S
C739 C741 1.415 . S
C740 C739 1.355 . S
C740 C742 1.419 . S
C741 C736 1.425 . S
C741 C738 1.409 . S
C741 C739 1.415 . S
C742 H732 0.930 . S
C742 C740 1.419 . S
C742 C743 1.362 . S
C743 H733 0.930 . S
C743 C736 1.409 . S
C743 C742 1.362 . S
H744 C750 0.930 . S
H745 C753 0.930 . S
H746 C754 0.930 . S
H747 C755 0.930 . S
H748 C758 0.930 . S
H749 C759 0.930 . S
C750 H744 0.930 . S
C750 C751 1.355 . S
C750 C752 1.415 . S
C751 C750 1.355 . S
C751 C753 1.419 . S
C752 C750 1.415 . S
C752 C757 1.425 . S
C752 C759 1.409 . S
C753 H745 0.930 . S
C753 C751 1.419 . S
C753 C754 1.362 . S
C754 H746 0.930 . S
C754 C753 1.362 . S
C754 C757 1.409 . S
C755 H747 0.930 . S
C755 C756 1.355 . S
C755 C757 1.415 . S
C756 C755 1.355 . S
C756 C758 1.419 . S
C757 C752 1.425 . S
C757 C754 1.409 . S
C757 C755 1.415 . S
C758 H748 0.930 . S
C758 C756 1.419 . S
C758 C759 1.362 . S
C759 H749 0.930 . S
C759 C752 1.409 . S
C759 C758 1.362 . S
H760 C766 0.930 . S
H761 C769 0.930 . S
H762 C770 0.930 . S
H763 C771 0.930 . S
H764 C774 0.930 . S
H765 C775 0.930 . S
C766 H760 0.930 . S
C766 C767 1.355 . S
C766 C768 1.415 . S
C767 C766 1.355 . S
C767 C769 1.419 . S
C768 C766 1.415 . S
C768 C773 1.425 . S
C768 C775 1.409 . S
C769 H761 0.930 . S
C769 C767 1.419 . S
C769 C770 1.362 . S
C770 H762 0.930 . S
C770 C769 1.362 . S
C770 C773 1.409 . S
C771 H763 0.930 . S
C771 C772 1.355 . S
C771 C773 1.415 . S
C772 C771 1.355 . S
C772 C774 1.419 . S
C773 C768 1.425 . S
C773 C770 1.409 . S
C773 C771 1.415 . S
C774 H764 0.930 . S
C774 C772 1.419 . S
C774 C775 1.362 . S
C775 H765 0.930 . S
C775 C768 1.409 . S
C775 C774 1.362 . S
H776 C782 0.930 . S
H777 C785 0.930 . S
H778 C786 0.930 . S
H779 C787 0.930 . S
H780 C790 0.930 . S
H781 C791 0.930 . S
C782 H776 0.930 . S
C782 C783 1.355 . S
C782 C784 1.415 . S
C783 C782 1.355 . S
C783 C785 1.419 . S
C784 C782 1.415 . S
C784 C789 1.425 . S
C784 C791 1.409 . S
C785 H777 0.930 . S
C785 C783 1.419 . S
C785 C786 1.362 . S
C786 H778 0.930 . S
C786 C785 1.362 . S
C786 C789 1.409 . S
C787 H779 0.930 . S
C787 C788 1.355 . S
C787 C789 1.415 . S
C788 C787 1.355 . S
C788 C790 1.419 . S
C789 C784 1.425 . S
C789 C786 1.409 . S
C789 C787 1.415 . S
C790 H780 0.930 . S
C790 C788 1.419 . S
C790 C791 1.362 . S
C791 H781 0.930 . S
C791 C784 1.409 . S
C791 C790 1.362 . S
H792 C798 0.930 . S
H793 C801 0.930 . S
H794 C802 0.930 . S
H795 C803 0.930 . S
H796 C806 0.930 . S
H797 C807 0.930 . S
C798 H792 0.930 . S
C798 C799 1.355 . S
C798 C800 1.415 . S
C799 C798 1.355 . S
C799 C801 1.419 . S
C800 C798 1.415 . S
C800 C805 1.425 . S
C800 C807 1.409 . S
C801 H793 0.930 . S
C801 C799 1.419 . S
C801 C802 1.362 . S
C802 H794 0.930 . S
C802 C801 1.362 . S
C802 C805 1.409 . S
C803 H795 0.930 . S
C803 C804 1.355 . S
C803 C805 1.415 . S
C804 C803 1.355 . S
C804 C806 1.419 . S
C805 C800 1.425 . S
C805 C802 1.409 . S
C805 C803 1.415 . S
C806 H796 0.930 . S
C806 C804 1.419 . S
C806 C807 1.362 . S
C807 H797 0.930 . S
C807 C800 1.409 . S
C807 C806 1.362 . S
H808 C814 0.930 . S
H809 C817 0.930 . S
H810 C818 0.930 . S
H811 C819 0.930 . S
H812 C822 0.930 . S
H813 C823 0.930 . S
C814 H808 0.930 . S
C814 C815 1.355 . S
C814 C816 1.415 . S
C815 C814 1.355 . S
C815 C817 1.419 . S
C816 C814 1.415 . S
C816 C821 1.425 . S
C816 C823 1.409 . S
C817 H809 0.930 . S
C817 C815 1.419 . S
C817 C818 1.362 . S
C818 H810 0.930 . S
C818 C817 1.362 . S
C818 C821 1.409 . S
C819 H811 0.930 . S
C819 C820 1.355 . S
C819 C821 1.415 . S
C820 C819 1.355 . S
C820 C822 1.419 . S
C821 C816 1.425 . S
C821 C818 1.409 . S
C821 C819 1.415 . S
C822 H812 0.930 . S
C822 C820 1.419 . S
C822 C823 1.362 . S
C823 H813 0.930 . S
C823 C816 1.409 . S
C823 C822 1.362 . S
H824 C830 0.930 . S
H825 C833 0.930 . S
H826 C834 0.930 . S
H827 C835 0.930 . S
H828 C838 0.930 . S
H829 C839 0.930 . S
C830 H824 0.930 . S
C830 C831 1.355 . S
C830 C832 1.415 . S
C831 C830 1.355 . S
C831 C833 1.419 . S
C832 C830 1.415 . S
C832 C837 1.425 . S
C832 C839 1.409 . S
C833 H825 0.930 . S
C833 C831 1.419 . S
C833 C834 1.362 . S
C834 H826 0.930 . S
C834 C833 1.362 . S
C834 C837 1.409 . S
C835 H827 0.930 . S
C835 C836 1.355 . S
C835 C837 1.415 . S
C836 C835 1.355 . S
C836 C838 1.419 . S
C837 C832 1.425 . S
C837 C834 1.409 . S
C837 C835 1.415 . S
C838 H828 0.930 . S
C838 C836 1.419 . S
C838 C839 1.362 . S
C839 H829 0.930 . S
C839 C832 1.409 . S
C839 C838 1.362 . S
H840 C846 0.930 . S
H841 C849 0.930 . S
H842 C850 0.930 . S
H843 C851 0.930 . S
H844 C854 0.930 . S
H845 C855 0.930 . S
C846 H840 0.930 . S
C846 C847 1.355 . S
C846 C848 1.415 . S
C847 C846 1.355 . S
C847 C849 1.419 . S
C848 C846 1.415 . S
C848 C853 1.425 . S
C848 C855 1.409 . S
C849 H841 0.930 . S
C849 C847 1.419 . S
C849 C850 1.362 . S
C850 H842 0.930 . S
C850 C849 1.362 . S
C850 C853 1.409 . S
C851 H843 0.930 . S
C851 C852 1.355 . S
C851 C853 1.415 . S
C852 C851 1.355 . S
C852 C854 1.419 . S
C853 C848 1.425 . S
C853 C850 1.409 . S
C853 C851 1.415 . S
C854 H844 0.930 . S
C854 C852 1.419 . S
C854 C855 1.362 . S
C855 H845 0.930 . S
C855 C848 1.409 . S
C855 C854 1.362 . S
H856 C862 0.930 . S
H857 C865 0.930 . S
H858 C866 0.930 . S
H859 C867 0.930 . S
H860 C870 0.930 . S
H861 C871 0.930 . S
C862 H856 0.930 . S
C862 C863 1.355 . S
C862 C864 1.415 . S
C863 C862 1.355 . S
C863 C865 1.419 . S
C864 C862 1.415 . S
C864 C869 1.425 . S
C864 C871 1.409 . S
C865 H857 0.930 . S
C865 C863 1.419 . S
C865 C866 1.362 . S
C866 H858 0.930 . S
C866 C865 1.362 . S
C866 C869 1.409 . S
C867 H859 0.930 . S
C867 C868 1.355 . S
C867 C869 1.415 . S
C868 C867 1.355 . S
C868 C870 1.419 . S
C869 C864 1.425 . S
C869 C866 1.409 . S
C869 C867 1.415 . S
C870 H860 0.930 . S
C870 C868 1.419 . S
C870 C871 1.362 . S
C871 H861 0.930 . S
C871 C864 1.409 . S
C871 C870 1.362 . S
H872 C878 0.930 . S
H873 C881 0.930 . S
H874 C882 0.930 . S
H875 C883 0.930 . S
H876 C886 0.930 . S
H877 C887 0.930 . S
C878 H872 0.930 . S
C878 C879 1.355 . S
C878 C880 1.415 . S
C879 C878 1.355 . S
C879 C881 1.419 . S
C880 C878 1.415 . S
C880 C885 1.425 . S
C880 C887 1.409 . S
C881 H873 0.930 . S
C881 C879 1.419 . S
C881 C882 1.362 . S
C882 H874 0.930 . S
C882 C881 1.362 . S
C882 C885 1.409 . S
C883 H875 0.930 . S
C883 C884 1.355 . S
C883 C885 1.415 . S
C884 C883 1.355 . S
C884 C886 1.419 . S
C885 C880 1.425 . S
C885 C882 1.409 . S
C885 C883 1.415 . S
C886 H876 0.930 . S
C886 C884 1.419 . S
C886 C887 1.362 . S
C887 H877 0.930 . S
C887 C880 1.409 . S
C887 C886 1.362 . S
H888 C894 0.930 . S
H889 C897 0.930 . S
H890 C898 0.930 . S
H891 C899 0.930 . S
H892 C902 0.930 . S
H893 C903 0.930 . S
C894 H888 0.930 . S
C894 C895 1.355 . S
C894 C896 1.415 . S
C895 C894 1.355 . S
C895 C897 1.419 . S
C896 C894 1.415 . S
C896 C901 1.425 . S
C896 C903 1.409 . S
C897 H889 0.930 . S
C897 C895 1.419 . S
C897 C898 1.362 . S
C898 H890 0.930 . S
C898 C897 1.362 . S
C898 C901 1.409 . S
C899 H891 0.930 . S
C899 C900 1.355 . S
C899 C901 1.415 . S
C900 C899 1.355 . S
C900 C902 1.419 . S
C901 C896 1.425 . S
C901 C898 1.409 . S
C901 C899 1.415 . S
C902 H892 0.930 . S
C902 C900 1.419 . S
C902 C903 1.362 . S
C903 H893 0.930 . S
C903 C896 1.409 . S
C903 C902 1.362 . S
H904 C910 0.930 . S
H905 C913 0.930 . S
H906 C914 0.930 . S
H907 C915 0.930 . S
H908 C918 0.930 . S
H909 C919 0.930 . S
C910 H904 0.930 . S
C910 C911 1.355 . S
C910 C912 1.415 . S
C911 C910 1.355 . S
C911 C913 1.419 . S
C912 C910 1.415 . S
C912 C917 1.425 . S
C912 C919 1.409 . S
C913 H905 0.930 . S
C913 C911 1.419 . S
C913 C914 1.362 . S
C914 H906 0.930 . S
C914 C913 1.362 . S
C914 C917 1.409 . S
C915 H907 0.930 . S
C915 C916 1.355 . S
C915 C917 1.415 . S
C916 C915 1.355 . S
C916 C918 1.419 . S
C917 C912 1.425 . S
C917 C914 1.409 . S
C917 C915 1.415 . S
C918 H908 0.930 . S
C918 C916 1.419 . S
C918 C919 1.362 . S
C919 H909 0.930 . S
C919 C912 1.409 . S
C919 C918 1.362 . S
H920 C926 0.930 . S
H921 C929 0.930 . S
H922 C930 0.930 . S
H923 C931 0.930 . S
H924 C934 0.930 . S
H925 C935 0.930 . S
C926 H920 0.930 . S
C926 C927 1.355 . S
C926 C928 1.415 . S
C927 C926 1.355 . S
C927 C929 1.419 . S
C928 C926 1.415 . S
C928 C933 1.425 . S
C928 C935 1.409 . S
C929 H921 0.930 . S
C929 C927 1.419 . S
C929 C930 1.362 . S
C930 H922 0.930 . S
C930 C929 1.362 . S
C930 C933 1.409 . S
C931 H923 0.930 . S
C931 C932 1.355 . S
C931 C933 1.415 . S
C932 C931 1.355 . S
C932 C934 1.419 . S
C933 C928 1.425 . S
C933 C930 1.409 . S
C933 C931 1.415 . S
C934 H924 0.930 . S
C934 C932 1.419 . S
C934 C935 1.362 . S
C935 H925 0.930 . S
C935 C928 1.409 . S
C935 C934 1.362 . S
H936 C942 0.930 . S
H937 C945 0.930 . S
H938 C946 0.930 . S
H939 C947 0.930 . S
H940 C950 0.930 . S
H941 C951 0.930 . S
C942 H936 0.930 . S
C942 C943 1.355 . S
C942 C944 1.415 . S
C943 C942 1.355 . S
C943 C945 1.419 . S
C944 C942 1.415 . S
C944 C949 1.425 . S
C944 C951 1.409 . S
C945 H937 0.930 . S
C945 C943 1.419 . S
C945 C946 1.362 . S
C946 H938 0.930 . S
C946 C945 1.362 . S
C946 C949 1.409 . S
C947 H939 0.930 . S
C947 C948 1.355 . S
C947 C949 1.415 . S
C948 C947 1.355 . S
C948 C950 1.419 . S
C949 C944 1.425 . S
C949 C946 1.409 . S
C949 C947 1.415 . S
C950 H940 0.930 . S
C950 C948 1.419 . S
C950 C951 1.362 . S
C951 H941 0.930 . S
C951 C944 1.409 . S
C951 C950 1.362 . S
H952 C958 0.930 . S
H953 C961 0.930 . S
H954 C962 0.930 . S
H955 C963 0.930 . S
H956 C966 0.930 . S
H957 C967 0.930 . S
C958 H952 0.930 . S
C958 C959 1.355 . S
C958 C960 1.415 . S
C959 C958 1.355 . S
C959 C961 1.419 . S
C960 C958 1.415 . S
C960 C965 1.425 . S
C960 C967 1.409 . S
C961 H953 0.930 . S
C961 C959 1.419 . S
C961 C962 1.362 . S
C962 H954 0.930 . S
C962 C961 1.362 . S
C962 C965 1.409 . S
C963 H955 0.930 . S
C963 C964 1.355 . S
C963 C965 1.415 . S
C964 C963 1.355 . S
C964 C966 1.419 . S
C965 C960 1.425 . S
C965 C962 1.409 . S
C965 C963 1.415 . S
C966 H956 0.930 . S
C966 C964 1.419 . S
C966 C967 1.362 . S
C967 H957 0.930 . S
C967 C960 1.409 . S
C967 C966 1.362 . S
H968 C974 0.930 . S
H969 C977 0.930 . S
H970 C978 0.930 . S
H971 C979 0.930 . S
H972 C982 0.930 . S
H973 C983 0.930 . S
C974 H968 0.930 . S
C974 C975 1.355 . S
C974 C976 1.415 . S
C975 C974 1.355 . S
C975 C977 1.419 . S
C976 C974 1.415 . S
C976 C981 1.425 . S
C976 C983 1.409 . S
C977 H969 0.930 . S
C977 C975 1.419 . S
C977 C978 1.362 . S
C978 H970 0.930 . S
C978 C977 1.362 . S
C978 C981 1.409 . S
C979 H971 0.930 . S
C979 C980 1.355 . S
C979 C981 1.415 . S
C980 C979 1.355 . S
C980 C982 1.419 . S
C981 C976 1.425 . S
C981 C978 1.409 . S
C981 C979 1.415 . S
C982 H972 0.930 . S
C982 C980 1.419 . S
C982 C983 1.362 . S
C983 H973 0.930 . S
C983 C976 1.409 . S
C983 C982 1.362 . S
H984 C990 0.930 . S
H985 C993 0.930 . S
H986 C994 0.930 . S
H987 C995 0.930 . S
H988 C998 0.930 . S
H989 C999 0.930 . S
C990 H984 0.930 . S
C990 C991 1.355 . S
C990 C992 1.415 . S
C991 C990 1.355 . S
C991 C993 1.419 . S
C992 C990 1.415 . S
C992 C997 1.425 . S
C992 C999 1.409 . S
C993 H985 0.930 . S
C993 C991 1.419 . S
C993 C994 1.362 . S
C994 H986 0.930 . S
C994 C993 1.362 . S
C994 C997 1.409 . S
C995 H987 0.930 . S
C995 C996 1.355 . S
C995 C997 1.415 . S
C996 C995 1.355 . S
C996 C998 1.419 . S
C997 C992 1.425 . S
C997 C994 1.409 . S
C997 C995 1.415 . S
C998 H988 0.930 . S
C998 C996 1.419 . S
C998 C999 1.362 . S
C999 H989 0.930 . S
C999 C992 1.409 . S
C999 C998 1.362 . S
H1000 C1006 0.930 . S
H1001 C1009 0.930 . S
H1002 C1010 0.930 . S
H1003 C1011 0.930 . S
H1004 C1014 0.930 . S
H1005 C1015 0.930 . S
C1006 H1000 0.930 . S
C1006 C1007 1.355 . S
C1006 C1008 1.415 . S
C1007 C1006 1.355 . S
C1007 C1009 1.419 . S
C1008 C1006 1.415 . S
C1008 C1013 1.425 . S
C1008 C1015 1.409 . S
C1009 H1001 0.930 . S
C1009 C1007 1.419 . S
C1009 C1010 1.362 . S
C1010 H1002 0.930 . S
C1010 C1009 1.362 . S
C1010 C1013 1.409 . S
C1011 H1003 0.930 . S
C1011 C1012 1.355 . S
C1011 C1013 1.415 . S
C1012 C1011 1.355 . S
C1012 C1014 1.419 . S
C1013 C1008 1.425 . S
C1013 C1010 1.409 . S
C1013 C1011 1.415 . S
C1014 H1004 0.930 . S
C1014 C1012 1.419 . S
C1014 C1015 1.362 . S
C1015 H1005 0.930 . S
C1015 C1008 1.409 . S
C1015 C1014 1.362 . S
H1016 C1022 0.930 . S
H1017 C1025 0.930 . S
H1018 C1026 0.930 . S
H1019 C1027 0.930 . S
H1020 C1030 0.930 . S
H1021 C1031 0.930 . S
C1022 H1016 0.930 . S
C1022 C1023 1.355 . S
C1022 C1024 1.415 . S
C1023 C1022 1.355 . S
C1023 C1025 1.419 . S
C1024 C1022 1.415 . S
C1024 C1029 1.425 . S
C1024 C1031 1.409 . S
C1025 H1017 0.930 . S
C1025 C1023 1.419 . S
C1025 C1026 1.362 . S
C1026 H1018 0.930 . S
C1026 C1025 1.362 . S
C1026 C1029 1.409 . S
C1027 H1019 0.930 . S
C1027 C1028 1.355 . S
C1027 C1029 1.415 . S
C1028 C1027 1.355 . S
C1028 C1030 1.419 . S
C1029 C1024 1.425 . S
C1029 C1026 1.409 . S
C1029 C1027 1.415 . S
C1030 H1020 0.930 . S
C1030 C1028 1.419 . S
C1030 C1031 1.362 . S
C1031 H1021 0.930 . S
C1031 C1024 1.409 . S
C1031 C1030 1.362 . S
H1032 C1038 0.930 . S
H1033 C1041 0.930 . S
H1034 C1042 0.930 . S
H1035 C1043 0.930 . S
H1036 C1046 0.930 . S
H1037 C1047 0.930 . S
C1038 H1032 0.930 . S
C1038 C1039 1.355 . S
C1038 C1040 1.415 . S
C1039 C1038 1.355 . S
C1039 C1041 1.419 . S
C1040 C1038 1.415 . S
C1040 C1045 1.425 . S
C1040 C1047 1.409 . S
C1041 H1033 0.930 . S
C1041 C1039 1.419 . S
C1041 C1042 1.362 . S
C1042 H1034 0.930 . S
C1042 C1041 1.362 . S
C1042 C1045 1.409 . S
C1043 H1035 0.930 . S
C1043 C1044 1.355 . S
C1043 C1045 1.415 . S
C1044 C1043 1.355 . S
C1044 C1046 1.419 . S
C1045 C1040 1.425 . S
C1045 C1042 1.409 . S
C1045 C1043 1.415 . S
C1046 H1036 0.930 . S
C1046 C1044 1.419 . S
C1046 C1047 1.362 . S
C1047 H1037 0.930 . S
C1047 C1040 1.409 . S
C1047 C1046 1.362 . S
C548 C141 1.503 . S
C543 C0 1.517 . S
C564 C194 1.326 . S
C559 C26 1.330 . S
C580 C257 1.613 . S
C575 C40 1.608 . S
C596 C300 1.285 . S
C591 C43 1.286 . S
C607 C57 1.614 . S
C612 C256 1.611 . S
C628 C293 1.373 . S
C623 C70 1.382 . S
C644 C134 1.518 . S
C639 C97 1.527 . S
C660 C187 1.249 . S
C655 C111 1.247 . S
C676 C240 1.478 . S
C671 C98 1.484 . S
C692 C309 1.836 . S
C687 C68 1.842 . S
C708 C150 1.583 . S
C703 C83 1.577 . S
C724 C203 1.736 . S
C719 C84 1.744 . S
C740 C151 1.565 . S
C735 C15 1.561 . S
C756 C204 1.824 . S
C751 C29 1.830 . S
C772 C247 1.494 . S
C767 C54 1.499 . S
C788 C310 1.719 . S
C783 C13 1.733 . S
C804 C353 1.460 . S
C799 C99 1.475 . S
C815 C69 1.699 . S
C820 C406 1.697 . S
C831 C82 1.661 . S
C836 C468 1.656 . S
C847 C85 1.704 . S
C852 C522 1.709 . S
C863 C14 1.544 . S
C868 C469 1.540 . S
C879 C28 1.785 . S
C884 C521 1.789 . S
C895 C55 1.572 . S
C900 C346 1.573 . S
C916 C399 1.622 . S
C911 C12 1.622 . S
C932 C459 1.438 . S
C927 C1 1.446 . S
C943 C27 1.404 . S
C948 C505 1.405 . S
C959 C41 1.609 . S
C964 C362 1.616 . S
C975 C42 1.333 . S
C980 C415 1.324 . S
C996 C363 1.535 . S
C991 C56 1.531 . S
C1012 C416 1.424 . S
C1007 C71 1.429 . S
C1023 C96 1.524 . S
C1028 C452 1.515 . S
C1044 C512 1.285 . S
C1039 C110 1.293 . S
