# Generated by pormake.
# Topology ocu, (6,8)-cn, num edge types: 1
# Building blocks:
#     Node 0, Type 0, BuildingBlock: VOLQOD_clean_sbu_1, # of connection points: 6
#     Node 1, Type 0, BuildingBlock: VOLQOD_clean_sbu_1, # of connection points: 6
#     Node 2, Type 0, BuildingBlock: VOLQOD_clean_sbu_1, # of connection points: 6
#     Node 3, Type 0, BuildingBlock: VOLQOD_clean_sbu_1, # of connection points: 6
#     Node 4, Type 0, BuildingBlock: VOLQOD_clean_sbu_1, # of connection points: 6
#     Node 5, Type 0, BuildingBlock: VOLQOD_clean_sbu_1, # of connection points: 6
#     Node 6, Type 0, BuildingBlock: VOLQOD_clean_sbu_1, # of connection points: 6
#     Node 7, Type 0, BuildingBlock: VOLQOD_clean_sbu_1, # of connection points: 6
#     Node 8, Type 1, BuildingBlock: VETTIZ_charged_sbu_0, # of connection points: 8
#     Node 9, Type 1, BuildingBlock: VETTIZ_charged_sbu_0, # of connection points: 8
#     Node 10, Type 1, BuildingBlock: VETTIZ_charged_sbu_0, # of connection points: 8
#     Node 11, Type 1, BuildingBlock: VETTIZ_charged_sbu_0, # of connection points: 8
#     Node 12, Type 1, BuildingBlock: VETTIZ_charged_sbu_0, # of connection points: 8
#     Node 13, Type 1, BuildingBlock: VETTIZ_charged_sbu_0, # of connection points: 8
#     Edge 14, Type (0, 1), BuildingBlock: KIFKEQ_clean_linker_1, # of connection points: 2
#     Edge 15, Type (0, 1), BuildingBlock: KIFKEQ_clean_linker_1, # of connection points: 2
#     Edge 16, Type (0, 1), BuildingBlock: KIFKEQ_clean_linker_1, # of connection points: 2
#     Edge 17, Type (0, 1), BuildingBlock: KIFKEQ_clean_linker_1, # of connection points: 2
#     Edge 18, Type (0, 1), BuildingBlock: KIFKEQ_clean_linker_1, # of connection points: 2
#     Edge 19, Type (0, 1), BuildingBlock: KIFKEQ_clean_linker_1, # of connection points: 2
#     Edge 20, Type (0, 1), BuildingBlock: KIFKEQ_clean_linker_1, # of connection points: 2
#     Edge 21, Type (0, 1), BuildingBlock: KIFKEQ_clean_linker_1, # of connection points: 2
#     Edge 22, Type (0, 1), BuildingBlock: KIFKEQ_clean_linker_1, # of connection points: 2
#     Edge 23, Type (0, 1), BuildingBlock: KIFKEQ_clean_linker_1, # of connection points: 2
#     Edge 24, Type (0, 1), BuildingBlock: KIFKEQ_clean_linker_1, # of connection points: 2
#     Edge 25, Type (0, 1), BuildingBlock: KIFKEQ_clean_linker_1, # of connection points: 2
#     Edge 26, Type (0, 1), BuildingBlock: KIFKEQ_clean_linker_1, # of connection points: 2
#     Edge 27, Type (0, 1), BuildingBlock: KIFKEQ_clean_linker_1, # of connection points: 2
#     Edge 28, Type (0, 1), BuildingBlock: KIFKEQ_clean_linker_1, # of connection points: 2
#     Edge 29, Type (0, 1), BuildingBlock: KIFKEQ_clean_linker_1, # of connection points: 2
#     Edge 30, Type (0, 1), BuildingBlock: KIFKEQ_clean_linker_1, # of connection points: 2
#     Edge 31, Type (0, 1), BuildingBlock: KIFKEQ_clean_linker_1, # of connection points: 2
#     Edge 32, Type (0, 1), BuildingBlock: KIFKEQ_clean_linker_1, # of connection points: 2
#     Edge 33, Type (0, 1), BuildingBlock: KIFKEQ_clean_linker_1, # of connection points: 2
#     Edge 34, Type (0, 1), BuildingBlock: KIFKEQ_clean_linker_1, # of connection points: 2
#     Edge 35, Type (0, 1), BuildingBlock: KIFKEQ_clean_linker_1, # of connection points: 2
#     Edge 36, Type (0, 1), BuildingBlock: KIFKEQ_clean_linker_1, # of connection points: 2
#     Edge 37, Type (0, 1), BuildingBlock: KIFKEQ_clean_linker_1, # of connection points: 2
#     Edge 38, Type (0, 1), BuildingBlock: KIFKEQ_clean_linker_1, # of connection points: 2
#     Edge 39, Type (0, 1), BuildingBlock: KIFKEQ_clean_linker_1, # of connection points: 2
#     Edge 40, Type (0, 1), BuildingBlock: KIFKEQ_clean_linker_1, # of connection points: 2
#     Edge 41, Type (0, 1), BuildingBlock: KIFKEQ_clean_linker_1, # of connection points: 2
#     Edge 42, Type (0, 1), BuildingBlock: KIFKEQ_clean_linker_1, # of connection points: 2
#     Edge 43, Type (0, 1), BuildingBlock: KIFKEQ_clean_linker_1, # of connection points: 2
#     Edge 44, Type (0, 1), BuildingBlock: KIFKEQ_clean_linker_1, # of connection points: 2
#     Edge 45, Type (0, 1), BuildingBlock: KIFKEQ_clean_linker_1, # of connection points: 2
#     Edge 46, Type (0, 1), BuildingBlock: KIFKEQ_clean_linker_1, # of connection points: 2
#     Edge 47, Type (0, 1), BuildingBlock: KIFKEQ_clean_linker_1, # of connection points: 2
#     Edge 48, Type (0, 1), BuildingBlock: KIFKEQ_clean_linker_1, # of connection points: 2
#     Edge 49, Type (0, 1), BuildingBlock: KIFKEQ_clean_linker_1, # of connection points: 2
#     Edge 50, Type (0, 1), BuildingBlock: KIFKEQ_clean_linker_1, # of connection points: 2
#     Edge 51, Type (0, 1), BuildingBlock: KIFKEQ_clean_linker_1, # of connection points: 2
#     Edge 52, Type (0, 1), BuildingBlock: KIFKEQ_clean_linker_1, # of connection points: 2
#     Edge 53, Type (0, 1), BuildingBlock: KIFKEQ_clean_linker_1, # of connection points: 2
#     Edge 54, Type (0, 1), BuildingBlock: KIFKEQ_clean_linker_1, # of connection points: 2
#     Edge 55, Type (0, 1), BuildingBlock: KIFKEQ_clean_linker_1, # of connection points: 2
#     Edge 56, Type (0, 1), BuildingBlock: KIFKEQ_clean_linker_1, # of connection points: 2
#     Edge 57, Type (0, 1), BuildingBlock: KIFKEQ_clean_linker_1, # of connection points: 2
#     Edge 58, Type (0, 1), BuildingBlock: KIFKEQ_clean_linker_1, # of connection points: 2
#     Edge 59, Type (0, 1), BuildingBlock: KIFKEQ_clean_linker_1, # of connection points: 2
#     Edge 60, Type (0, 1), BuildingBlock: KIFKEQ_clean_linker_1, # of connection points: 2
#     Edge 61, Type (0, 1), BuildingBlock: KIFKEQ_clean_linker_1, # of connection points: 2
# Relax obj value: 0.154
# Max RMSD: 0.303
# Mean RMSD: 0.175
data_MOF--net-ocu--node1-VOLQOD_clean_sbu_1--node2-VETTIZ_charged_sbu_0--edge1-KIFKEQ_clean_linker_1
_symmetry_space_group_name_H-M    P1
_symmetry_Int_Tables_number       1
_symmetry_cell_setting            triclinic
loop_
_symmetry_equiv_pos_as_xyz
'x, y, z'
_cell_length_a     38.970496
_cell_length_b     39.3762
_cell_length_c     38.992975
_cell_angle_alpha  90.138436
_cell_angle_beta   89.54646
_cell_angle_gamma 89.744256
loop_
_atom_site_label
_atom_site_type_symbol
_atom_site_fract_x
_atom_site_fract_y
_atom_site_fract_z
_atom_type_partial_charge
O0 O 0.32387 0.30471 0.25136 0.0
Zn1 Zn 0.29325 0.27711 0.2843 0.0
O2 O 0.25866 0.25101 0.2577 0.0
Zn3 Zn 0.21259 0.26668 0.26897 0.0
Zn4 Zn 0.26458 0.25646 0.20868 0.0
Zn5 Zn 0.26242 0.20253 0.26669 0.0
O6 O 0.18361 0.22864 0.28604 0.0
O7 O 0.21706 0.18299 0.28219 0.0
O8 O 0.269 0.31053 0.31758 0.0
O9 O 0.21396 0.29978 0.30758 0.0
O10 O 0.18916 0.28938 0.22906 0.0
O11 O 0.22295 0.27576 0.18512 0.0
O12 O 0.28255 0.21445 0.18505 0.0
O13 O 0.32221 0.24411 0.31351 0.0
O14 O 0.28406 0.17641 0.22676 0.0
O15 O 0.2944 0.19551 0.30552 0.0
C16 C 0.32243 0.30718 0.21871 0.0
C17 C 0.18844 0.19694 0.29003 0.0
C18 C 0.19585 0.28978 0.19704 0.0
C19 C 0.23714 0.3153 0.32406 0.0
C20 C 0.29039 0.18496 0.19584 0.0
C21 C 0.31738 0.21275 0.32053 0.0
O22 O 0.30076 0.29038 0.20152 0.0
O23 O 0.74717 0.18671 0.21281 0.0
Zn24 Zn 0.78508 0.21176 0.2382 0.0
O25 O 0.76402 0.24569 0.26995 0.0
Zn26 Zn 0.77587 0.29243 0.25849 0.0
Zn27 Zn 0.71438 0.2432 0.27039 0.0
Zn28 Zn 0.77991 0.23596 0.31549 0.0
O29 O 0.80411 0.31457 0.29576 0.0
O30 O 0.80324 0.27477 0.3358 0.0
O31 O 0.81411 0.2365 0.20252 0.0
O32 O 0.80438 0.29076 0.21625 0.0
O33 O 0.73462 0.32195 0.24696 0.0
O34 O 0.69169 0.28621 0.25505 0.0
O35 O 0.69553 0.2304 0.31646 0.0
O36 O 0.81664 0.17763 0.26304 0.0
O37 O 0.74252 0.22304 0.34721 0.0
O38 O 0.81456 0.19916 0.31568 0.0
C39 C 0.71451 0.1888 0.21519 0.0
C40 C 0.81219 0.30389 0.32547 0.0
C41 C 0.70267 0.3153 0.24629 0.0
C42 C 0.81798 0.26818 0.19705 0.0
C43 C 0.71012 0.22274 0.34448 0.0
C44 C 0.82644 0.17783 0.2942 0.0
O45 O 0.69995 0.20875 0.23651 0.0
O46 O 0.72257 0.70219 0.23913 0.0
Zn47 Zn 0.74543 0.73085 0.27625 0.0
O48 O 0.7695 0.76863 0.25435 0.0
Zn49 Zn 0.81805 0.76859 0.26326 0.0
Zn50 Zn 0.76376 0.76852 0.20571 0.0
Zn51 Zn 0.75263 0.81035 0.27285 0.0
O52 O 0.83462 0.8105 0.28696 0.0
O53 O 0.78448 0.82604 0.30921 0.0
O54 O 0.77848 0.70397 0.30637 0.0
O55 O 0.82648 0.73303 0.29748 0.0
O56 O 0.84664 0.75653 0.2221 0.0
O57 O 0.80666 0.7521 0.18228 0.0
O58 O 0.75339 0.81547 0.18879 0.0
O59 O 0.70724 0.74879 0.30752 0.0
O60 O 0.7486 0.84582 0.23668 0.0
O61 O 0.70713 0.80394 0.29522 0.0
C62 C 0.71493 0.70938 0.20811 0.0
C63 C 0.81709 0.82631 0.30958 0.0
C64 C 0.83776 0.74935 0.19163 0.0
C65 C 0.81008 0.7096 0.31265 0.0
C66 C 0.74895 0.84378 0.20412 0.0
C67 C 0.69386 0.77831 0.30986 0.0
O68 O 0.72666 0.73579 0.1933 0.0
O69 O 0.29226 0.78518 0.31063 0.0
Zn70 Zn 0.26934 0.74837 0.28199 0.0
O71 O 0.2367 0.76967 0.24913 0.0
Zn72 Zn 0.19001 0.75375 0.25658 0.0
Zn73 Zn 0.23618 0.81906 0.25366 0.0
Zn74 Zn 0.24998 0.758 0.20254 0.0
O75 O 0.17055 0.7293 0.21547 0.0
O76 O 0.21437 0.72993 0.17886 0.0
O77 O 0.24411 0.71536 0.3137 0.0
O78 O 0.19113 0.71918 0.29318 0.0
O79 O 0.15784 0.79096 0.27267 0.0
O80 O 0.18929 0.83749 0.26686 0.0
O81 O 0.2541 0.84205 0.21109 0.0
O82 O 0.30744 0.72153 0.25666 0.0
O83 O 0.26228 0.79912 0.17503 0.0
O84 O 0.29253 0.73005 0.20259 0.0
C85 C 0.28928 0.8175 0.31072 0.0
C86 C 0.18413 0.72064 0.18694 0.0
C87 C 0.16109 0.82307 0.27469 0.0
C88 C 0.21272 0.70628 0.3137 0.0
C89 C 0.26379 0.83067 0.18198 0.0
C90 C 0.31274 0.71733 0.22457 0.0
O91 O 0.26871 0.83262 0.2906 0.0
O92 O 0.23704 0.71116 0.71024 0.0
Zn93 Zn 0.27354 0.73031 0.74155 0.0
O94 O 0.25341 0.76508 0.77243 0.0
Zn95 Zn 0.27271 0.80854 0.76138 0.0
Zn96 Zn 0.20433 0.76885 0.76618 0.0
Zn97 Zn 0.2611 0.75548 0.82025 0.0
O98 O 0.29052 0.83301 0.80269 0.0
O99 O 0.28719 0.79342 0.84307 0.0
O100 O 0.30958 0.75035 0.71 0.0
O101 O 0.31281 0.80292 0.73028 0.0
O102 O 0.23862 0.83494 0.73385 0.0
O103 O 0.1888 0.81512 0.75253 0.0
O104 O 0.17769 0.75294 0.80656 0.0
O105 O 0.29749 0.69372 0.76953 0.0
O106 O 0.2173 0.7448 0.84613 0.0
O107 O 0.28967 0.71375 0.82256 0.0
C108 C 0.20529 0.7185 0.70726 0.0
C109 C 0.29662 0.82274 0.83301 0.0
C110 C 0.20597 0.83552 0.73406 0.0
C111 C 0.32349 0.77949 0.71041 0.0
C112 C 0.1861 0.74419 0.83667 0.0
C113 C 0.30185 0.69164 0.80187 0.0
O114 O 0.19058 0.73974 0.72712 0.0
O115 O 0.20993 0.19327 0.75706 0.0
Zn116 Zn 0.23847 0.22282 0.78865 0.0
O117 O 0.2681 0.2545 0.76293 0.0
Zn118 Zn 0.31616 0.24982 0.77476 0.0
Zn119 Zn 0.26336 0.24424 0.71498 0.0
Zn120 Zn 0.25475 0.30121 0.77157 0.0
O121 O 0.33262 0.28908 0.80403 0.0
O122 O 0.28977 0.32624 0.80091 0.0
O123 O 0.26752 0.19051 0.81617 0.0
O124 O 0.32009 0.20793 0.8023 0.0
O125 O 0.34723 0.24226 0.73317 0.0
O126 O 0.30793 0.23383 0.69331 0.0
O127 O 0.24486 0.28347 0.69009 0.0
O128 O 0.20415 0.24812 0.81812 0.0
O129 O 0.24501 0.32609 0.7274 0.0
O130 O 0.21031 0.30051 0.79743 0.0
C131 C 0.21148 0.18853 0.72479 0.0
C132 C 0.31926 0.31766 0.81211 0.0
C133 C 0.33908 0.23492 0.70244 0.0
C134 C 0.30004 0.18718 0.81726 0.0
C135 C 0.2401 0.31458 0.69725 0.0
C136 C 0.19424 0.27885 0.81557 0.0
O137 O 0.23196 0.20546 0.70605 0.0
O138 O 0.79789 0.28685 0.79717 0.0
Zn139 Zn 0.7751 0.25207 0.76563 0.0
O140 O 0.74387 0.2754 0.73283 0.0
Zn141 Zn 0.69727 0.26045 0.74032 0.0
Zn142 Zn 0.74545 0.32445 0.73925 0.0
Zn143 Zn 0.75569 0.26539 0.68503 0.0
O144 O 0.67752 0.23715 0.69937 0.0
O145 O 0.7199 0.23579 0.66112 0.0
O146 O 0.74924 0.21703 0.79525 0.0
O147 O 0.69621 0.22556 0.77687 0.0
O148 O 0.66659 0.29816 0.75622 0.0
O149 O 0.69927 0.344 0.75264 0.0
O150 O 0.76559 0.34786 0.69788 0.0
O151 O 0.81341 0.22811 0.73908 0.0
O152 O 0.76839 0.30758 0.65809 0.0
O153 O 0.7994 0.23974 0.68504 0.0
C154 C 0.79573 0.31921 0.7986 0.0
C155 C 0.68963 0.22753 0.67054 0.0
C156 C 0.67067 0.33 0.75973 0.0
C157 C 0.71723 0.21017 0.79621 0.0
C158 C 0.7733 0.33818 0.66757 0.0
C159 C 0.81953 0.22678 0.70692 0.0
O160 O 0.77667 0.33566 0.77808 0.0
O161 O 0.82363 0.80186 0.75827 0.0
Zn162 Zn 0.78831 0.77253 0.78414 0.0
O163 O 0.76053 0.74626 0.75089 0.0
Zn164 Zn 0.71206 0.75579 0.75792 0.0
Zn165 Zn 0.77311 0.75751 0.70381 0.0
Zn166 Zn 0.76671 0.69768 0.75689 0.0
O167 O 0.68693 0.71713 0.78114 0.0
O168 O 0.72547 0.67565 0.77911 0.0
O169 O 0.75744 0.80426 0.81317 0.0
O170 O 0.70658 0.79508 0.78958 0.0
O171 O 0.68931 0.77032 0.71437 0.0
O172 O 0.73348 0.78017 0.67946 0.0
O173 O 0.78811 0.71601 0.67674 0.0
O174 O 0.81479 0.73962 0.81521 0.0
O175 O 0.78021 0.67354 0.71314 0.0
O176 O 0.8046 0.69006 0.78969 0.0
C177 C 0.83042 0.80499 0.7263 0.0
C178 C 0.69598 0.68679 0.788 0.0
C179 C 0.70144 0.7817 0.68623 0.0
C180 C 0.72547 0.81107 0.8105 0.0
C181 C 0.78911 0.68442 0.68366 0.0
C182 C 0.82 0.70767 0.81215 0.0
O183 O 0.81312 0.78932 0.70369 0.0
Fe184 Fe 0.01195 0.04589 0.51817 0.0
O185 O 0.98061 0.00817 0.53183 0.0
Fe186 Fe 0.08983 8e-05 0.50703 0.0
Fe187 Fe 0.93096 0.00851 0.53387 0.0
O188 O 0.04047 0.00465 0.5088 0.0
O189 O 0.04217 -0.00031 0.52181 0.0
O190 O 0.97832 0.00279 0.51947 0.0
Fe191 Fe 0.00838 0.96161 0.52098 0.0
C192 C 0.95551 0.08017 0.55758 0.0
O193 O 0.98358 0.04611 0.47222 0.0
O194 O 0.92801 0.03638 0.48889 0.0
O195 O 0.02162 0.95844 0.46799 0.0
O196 O 0.07885 0.97171 0.46429 0.0
O197 O 0.08808 0.04402 0.47881 0.0
O198 O 0.04576 0.07974 0.49639 0.0
O199 O 0.92403 0.96406 0.50688 0.0
O200 O 0.96918 0.92794 0.51294 0.0
C201 C 0.07272 0.07282 0.47864 0.0
O202 O 0.04434 0.92407 0.52992 0.0
O203 O 0.09239 0.95606 0.53469 0.0
O204 O 0.98016 0.08391 0.536 0.0
O205 O 0.93829 0.05274 0.56145 0.0
C206 C 0.95081 0.0458 0.46661 0.0
C207 C 0.93848 0.93486 0.5034 0.0
C208 C 0.96526 0.96403 0.58956 0.0
O209 O 0.93895 0.97964 0.5771 0.0
O210 O 0.99458 0.96039 0.57377 0.0
C211 C 0.0508 0.95983 0.45166 0.0
O212 O 0.09475 0.02896 0.55081 0.0
O213 O 0.04072 0.04891 0.564 0.0
C214 C 0.0757 0.92838 0.53883 0.0
C215 C 0.07296 0.04416 0.57087 0.0
Fe216 Fe 0.52684 0.93134 0.03607 0.0
O217 O 0.52418 0.98073 0.03185 0.0
Fe218 Fe 0.48135 0.00273 0.00961 0.0
Fe219 Fe 0.55965 0.00845 0.00765 0.0
O220 O 0.52109 0.98093 0.03279 0.0
O221 O 0.51671 0.03049 0.98553 0.0
O222 O 0.51985 0.03019 0.98446 0.0
Fe223 Fe 0.51391 0.07986 0.98164 0.0
C224 C 0.59311 0.96255 0.0623 0.0
O225 O 0.56537 0.92617 -0.00038 0.0
O226 O 0.56474 0.97352 0.96856 0.0
O227 O 0.47432 0.06718 0.94905 0.0
O228 O 0.44401 0.02831 0.9817 0.0
O229 O 0.48412 0.96832 0.97036 0.0
O230 O 0.4902 0.92022 -0.00058 0.0
O231 O 0.59214 0.04076 0.97904 0.0
O232 O 0.55473 0.0742 0.94788 0.0
C233 C 0.47895 0.93671 0.97371 0.0
O234 O 0.4759 0.0851 0.01883 0.0
O235 O 0.47628 0.03721 0.04899 0.0
O236 O 0.56605 0.9443 0.069 0.0
O237 O 0.59666 0.98292 0.03627 0.0
C238 C 0.57394 0.94279 0.97292 0.0
C239 C 0.58489 0.06142 0.95399 0.0
C240 C 0.56139 0.07428 0.04396 0.0
O241 O 0.55662 0.04263 0.04677 0.0
O242 O 0.55087 0.09097 0.01807 0.0
C243 C 0.44736 0.04898 0.95602 0.0
O244 O 0.44903 0.97084 0.03765 0.0
O245 O 0.48512 0.93651 0.06912 0.0
C246 C 0.46727 0.06805 0.04527 0.0
C247 C 0.4551 0.94931 0.06213 0.0
Fe248 Fe 0.00345 0.53564 0.00955 0.0
O249 O 0.97694 0.49815 0.03126 0.0
Fe250 Fe 0.07619 0.49591 0.97719 0.0
Fe251 Fe 0.92671 0.4992 0.0357 0.0
O252 O 0.02639 0.49879 0.98277 0.0
O253 O 0.02602 0.49572 0.98223 0.0
O254 O 0.97668 0.49508 0.03084 0.0
Fe255 Fe -5e-05 0.45799 0.00434 0.0
C256 C 0.95417 0.5648 0.06551 0.0
O257 O 0.96817 0.54049 0.97126 0.0
O258 O 0.91988 0.53926 0.00186 0.0
O259 O 0.02775 0.42395 0.97332 0.0
O260 O 0.06507 0.45797 0.94252 0.0
O261 O 0.06777 0.53808 0.94664 0.0
O262 O 0.03376 0.57055 0.98293 0.0
O263 O 0.91612 0.46523 0.9967 0.0
O264 O 0.96424 0.46 0.96589 0.0
C265 C 0.05438 0.5668 0.95676 0.0
O266 O 0.03564 0.45332 0.04254 0.0
O267 O 0.08403 0.45705 0.01195 0.0
O268 O 0.97601 0.56971 0.04059 0.0
O269 O 0.93792 0.53653 0.07117 0.0
C270 C 0.93701 0.54898 0.97572 0.0
C271 C 0.93204 0.45611 0.96951 0.0
C272 C 0.94846 0.42775 0.05714 0.0
O273 O 0.93421 0.45658 0.06567 0.0
O274 O 0.96958 0.42321 0.03144 0.0
C275 C 0.0488 0.42966 0.94787 0.0
O276 O 0.08622 0.53116 0.01501 0.0
O277 O 0.03937 0.53297 0.04778 0.0
C278 C 0.06744 0.44701 0.03834 0.0
C279 C 0.07074 0.54011 0.04249 0.0
Fe280 Fe 0.5083 0.51007 0.98051 0.0
O281 O 0.53617 0.48748 0.01674 0.0
Fe282 Fe 0.43616 0.53784 0.02542 0.0
Fe283 Fe 0.58622 0.48305 0.0141 0.0
O284 O 0.4861 0.53419 0.01994 0.0
O285 O 0.48641 0.5343 0.02326 0.0
O286 O 0.53635 0.48742 0.02013 0.0
Fe287 Fe 0.51473 0.51226 0.05957 0.0
C288 C 0.55687 0.45661 0.94699 0.0
O289 O 0.54316 0.54885 0.97511 0.0
O290 O 0.59175 0.51882 0.97573 0.0
O291 O 0.48778 0.54205 0.09622 0.0
O292 O 0.44786 0.57173 0.06415 0.0
O293 O 0.44202 0.56963 0.98386 0.0
O294 O 0.47592 0.5372 0.94748 0.0
O295 O 0.59751 0.51985 0.05025 0.0
O296 O 0.54987 0.55082 0.05588 0.0
C297 C 0.45465 0.5621 0.9538 0.0
O298 O 0.48022 0.47365 0.06563 0.0
O299 O 0.43089 0.50246 0.06404 0.0
O300 O 0.53505 0.4815 0.94387 0.0
O301 O 0.57405 0.44974 0.97467 0.0
C302 C 0.57456 0.5449 0.96671 0.0
C303 C 0.58196 0.54678 0.06005 0.0
C304 C 0.56808 0.45929 0.08598 0.0
O305 O 0.58014 0.45118 0.0558 0.0
O306 O 0.54756 0.48489 0.09242 0.0
C307 C 0.46542 0.56646 0.09188 0.0
O308 O 0.42515 0.50048 0.98931 0.0
O309 O 0.47356 0.47105 0.98292 0.0
C310 C 0.44866 0.47692 0.07338 0.0
C311 C 0.44142 0.4743 0.9786 0.0
Fe312 Fe 0.02651 0.46666 0.50732 0.0
O313 O 0.03833 0.50702 0.53583 0.0
Fe314 Fe 0.01407 0.50288 0.42685 0.0
Fe315 Fe 0.02962 0.50915 0.5855 0.0
O316 O 0.00559 0.50117 0.4764 0.0
O317 O 0.00472 0.50455 0.47652 0.0
O318 O 0.03758 0.51037 0.53589 0.0
Fe319 Fe 0.01642 0.54495 0.50527 0.0
C320 C 0.97417 0.45921 0.56412 0.0
O321 O 0.05151 0.43607 0.54348 0.0
O322 O 0.06872 0.4745 0.58466 0.0
O323 O 0.06293 0.55034 0.4806 0.0
O324 O 0.04569 0.54436 0.42676 0.0
O325 O 0.05691 0.47208 0.42794 0.0
O326 O 0.07346 0.46899 0.48245 0.0
O327 O 0.05934 0.55175 0.58253 0.0
O328 O 0.03378 0.58278 0.53926 0.0
C329 C 0.07935 0.46531 0.45048 0.0
O330 O 0.99068 0.57521 0.46898 0.0
O331 O 0.97406 0.53671 0.42754 0.0
O332 O 0.97985 0.462 0.53208 0.0
O333 O 0.99612 0.46855 0.58624 0.0
C334 C 0.07173 0.44619 0.56787 0.0
C335 C 0.05539 0.57908 0.56441 0.0
C336 C 0.96459 0.5463 0.56242 0.0
O337 O 0.98795 0.54135 0.5845 0.0
O338 O 0.96983 0.54185 0.53047 0.0
C339 C 0.06797 0.55324 0.44858 0.0
O340 O 0.98637 0.45897 0.42834 0.0
O341 O 0.00999 0.42885 0.47342 0.0
C342 C 0.97089 0.56529 0.44399 0.0
C343 C 0.99155 0.43148 0.44584 0.0
Fe344 Fe 0.50271 0.95639 0.50483 0.0
O345 O 0.48301 0.99443 0.5329 0.0
Fe346 Fe 0.52942 -0.00295 0.42977 0.0
Fe347 Fe 0.48298 0.99477 0.5833 0.0
O348 O 0.5274 0.99303 0.47973 0.0
O349 O 0.5274 -0.00404 0.47978 0.0
O350 O 0.48296 -0.00235 0.53294 0.0
Fe351 Fe 0.50858 0.03388 0.50816 0.0
C352 C 0.45126 0.92841 0.55906 0.0
O353 O 0.54398 0.95121 0.53673 0.0
O354 O 0.51788 0.95543 0.58753 0.0
O355 O 0.53841 0.06689 0.47952 0.0
O356 O 0.56665 0.03309 0.43972 0.0
O357 O 0.55904 0.95348 0.43478 0.0
O358 O 0.52657 0.921 0.47214 0.0
O359 O 0.52219 0.02971 0.59005 0.0
O360 O 0.54972 0.02925 0.54026 0.0
C361 C 0.55074 0.92491 0.44929 0.0
O362 O 0.46801 0.04113 0.47539 0.0
O363 O 0.49637 0.03813 0.42565 0.0
O364 O 0.47417 0.9228 0.53518 0.0
O365 O 0.44714 0.95695 0.57559 0.0
C366 C 0.54252 0.94487 0.56863 0.0
C367 C 0.54811 0.03758 0.57165 0.0
C368 C 0.46149 0.06591 0.56433 0.0
O369 O 0.45216 0.03732 0.57819 0.0
O370 O 0.48557 0.0693 0.54128 0.0
C371 C 0.56294 0.06092 0.45756 0.0
O372 O 0.48852 0.96457 0.42178 0.0
O373 O 0.46168 0.95921 0.47237 0.0
C374 C 0.47147 0.04926 0.44395 0.0
C375 C 0.46257 0.95589 0.4399 0.0
H376 H 0.13035 0.22117 0.32183 0.0
H377 H 0.18927 0.12916 0.30514 0.0
H378 H 0.09849 0.19347 0.36783 0.0
H379 H 0.15679 0.10142 0.35057 0.0
H380 H 0.03663 0.11705 0.4382 0.0
H381 H 0.05916 0.14662 0.38741 0.0
H382 H 0.16154 0.11293 0.41266 0.0
H383 H 0.13914 0.08327 0.46248 0.0
C384 C 0.13584 0.19474 0.3272 0.0
C385 C 0.16298 0.1776 0.31034 0.0
C386 C 0.11751 0.17892 0.3536 0.0
C387 C 0.12592 0.1457 0.36343 0.0
C388 C 0.15053 0.12747 0.34417 0.0
C389 C 0.16893 0.14326 0.31793 0.0
C390 C 0.06401 0.1168 0.43321 0.0
C391 C 0.08617 0.09769 0.45395 0.0
C392 C 0.07684 0.1334 0.40407 0.0
C393 C 0.11192 0.13105 0.39552 0.0
C394 C 0.13422 0.11413 0.4179 0.0
C395 C 0.12148 0.09757 0.44669 0.0
H396 H 0.82695 0.10819 0.29048 0.0
H397 H 0.88363 0.19402 0.32844 0.0
H398 H 0.86267 0.06999 0.32517 0.0
H399 H 0.91917 0.15643 0.36269 0.0
H400 H 0.98533 0.08295 0.41774 0.0
H401 H 0.96129 0.10968 0.36669 0.0
H402 H 0.86327 0.06348 0.38858 0.0
H403 H 0.88715 0.03668 0.43919 0.0
C404 C 0.84785 0.11868 0.30521 0.0
C405 C 0.85266 0.15393 0.30685 0.0
C406 C 0.86807 0.09695 0.3253 0.0
C407 C 0.89365 0.11019 0.3469 0.0
C408 C 0.90005 0.14526 0.34617 0.0
C409 C 0.87961 0.16686 0.32661 0.0
C410 C 0.95884 0.078 0.41133 0.0
C411 C 0.93805 0.05816 0.43301 0.0
C412 C 0.94504 0.09335 0.38208 0.0
C413 C 0.91028 0.08889 0.37365 0.0
C414 C 0.89019 0.06723 0.39407 0.0
C415 C 0.90385 0.05216 0.4234 0.0
H416 H 0.78984 0.83571 0.37301 0.0
H417 H 0.88401 0.84619 0.31479 0.0
H418 H 0.81922 0.85301 0.42469 0.0
H419 H 0.91321 0.86554 0.36638 0.0
H420 H 0.96467 0.88137 0.46625 0.0
H421 H 0.93478 0.85002 0.42145 0.0
H422 H 0.84067 0.90293 0.44795 0.0
H423 H 0.86987 0.93256 0.49332 0.0
C424 C 0.81672 0.84243 0.37114 0.0
C425 C 0.83455 0.84017 0.33978 0.0
C426 C 0.83361 0.85221 0.40083 0.0
C427 C 0.86856 0.86073 0.39973 0.0
C428 C 0.88643 0.85852 0.36828 0.0
C429 C 0.86963 0.84801 0.33862 0.0
C430 C 0.93734 0.88529 0.46322 0.0
C431 C 0.91968 0.90974 0.48291 0.0
C432 C 0.92034 0.86776 0.43723 0.0
C433 C 0.88551 0.87449 0.43063 0.0
C434 C 0.86741 0.89689 0.45232 0.0
C435 C 0.88425 0.91411 0.47829 0.0
H436 H 0.14618 0.89003 0.2638 0.0
H437 H 0.11343 0.8026 0.32174 0.0
H438 H 0.10751 0.92599 0.29744 0.0
H439 H 0.07662 0.83861 0.35701 0.0
H440 H 0.01473 0.90701 0.42275 0.0
H441 H 0.03113 0.87538 0.3709 0.0
H442 H 0.11227 0.94773 0.35172 0.0
H443 H 0.09489 0.97954 0.40175 0.0
C444 C 0.13041 0.87847 0.28353 0.0
C445 C 0.13323 0.84363 0.29049 0.0
C446 C 0.10837 0.89909 0.30305 0.0
C447 C 0.08948 0.88555 0.33078 0.0
C448 C 0.09043 0.85016 0.3359 0.0
C449 C 0.11181 0.82941 0.31576 0.0
C450 C 0.03524 0.91665 0.40663 0.0
C451 C 0.05394 0.94538 0.41666 0.0
C452 C 0.04498 0.89832 0.37713 0.0
C453 C 0.07357 0.90843 0.35722 0.0
C454 C 0.09002 0.93897 0.36586 0.0
C455 C 0.08024 0.9572 0.39499 0.0
H456 H 0.14148 0.8632 0.73259 0.0
H457 H 0.22955 0.83896 0.6692 0.0
H458 H 0.10901 0.87818 0.68142 0.0
H459 H 0.19678 0.85055 0.61829 0.0
H460 H 0.14352 0.91545 0.53868 0.0
H461 H 0.1753 0.89225 0.58574 0.0
H462 H 0.0805 0.85856 0.6331 0.0
H463 H 0.04836 0.88467 0.58635 0.0
C464 C 0.15393 0.86155 0.7077 0.0
C465 C 0.18824 0.85095 0.70486 0.0
C466 C 0.13516 0.86925 0.67828 0.0
C467 C 0.15005 0.86537 0.64543 0.0
C468 C 0.18449 0.85475 0.64293 0.0
C469 C 0.20349 0.84827 0.67225 0.0
C470 C 0.12947 0.90228 0.5587 0.0
C471 C 0.09347 0.90255 0.55935 0.0
C472 C 0.14778 0.88876 0.58587 0.0
C473 C 0.13056 0.87422 0.61399 0.0
C474 C 0.09458 0.87073 0.61252 0.0
C475 C 0.07612 0.88495 0.58539 0.0
H476 H 0.14838 0.16542 0.74631 0.0
H477 H 0.22403 0.15492 0.66533 0.0
H478 H 0.11039 0.12613 0.71553 0.0
H479 H 0.18669 0.11575 0.6353 0.0
H480 H 0.13082 0.02434 0.60388 0.0
H481 H 0.16185 0.05583 0.64734 0.0
H482 H 0.07924 0.12894 0.65368 0.0
H483 H 0.04778 0.09736 0.60971 0.0
C484 C 0.15703 0.15441 0.72225 0.0
C485 C 0.18914 0.16322 0.70817 0.0
C486 C 0.13528 0.13216 0.70465 0.0
C487 C 0.14577 0.11781 0.67323 0.0
C488 C 0.17814 0.12613 0.65969 0.0
C489 C 0.19944 0.14871 0.6768 0.0
C490 C 0.11883 0.04676 0.61494 0.0
C491 C 0.08718 0.05882 0.60274 0.0
C492 C 0.13664 0.06471 0.63988 0.0
C493 C 0.12319 0.09507 0.65333 0.0
C494 C 0.09012 0.10556 0.64364 0.0
C495 C 0.07218 0.08751 0.61847 0.0
H496 H 0.86433 0.25294 0.66139 0.0
H497 H 0.84358 0.16341 0.72139 0.0
H498 H 0.90818 0.22221 0.62886 0.0
H499 H 0.88597 0.13173 0.68766 0.0
H500 H 0.9644 0.0789 0.62579 0.0
H501 H 0.94169 0.11935 0.66786 0.0
H502 H 0.90355 0.18175 0.58508 0.0
H503 H 0.92806 0.142 0.54343 0.0
C504 C 0.86976 0.22674 0.66795 0.0
C505 C 0.85066 0.21028 0.69357 0.0
C506 C 0.89459 0.20904 0.64914 0.0
C507 C 0.90012 0.17427 0.65499 0.0
C508 C 0.88269 0.15855 0.68253 0.0
C509 C 0.8583 0.17656 0.70188 0.0
C510 C 0.95197 0.10189 0.61686 0.0
C511 C 0.94774 0.10764 0.58168 0.0
C512 C 0.93872 0.12486 0.64085 0.0
C513 C 0.92029 0.15359 0.63 0.0
C514 C 0.91796 0.1602 0.59452 0.0
C515 C 0.93181 0.13745 0.57054 0.0
H516 H 0.8674 0.79875 0.66737 0.0
H517 H 0.85733 0.86163 0.75778 0.0
H518 H 0.90922 0.83785 0.64354 0.0
H519 H 0.89948 0.90137 0.73355 0.0
H520 H 0.99246 0.90279 0.60823 0.0
H521 H 0.96737 0.86325 0.64949 0.0
H522 H 0.89613 0.94102 0.68293 0.0
H523 H 0.92137 0.98051 0.64195 0.0
C524 C 0.87448 0.82077 0.6824 0.0
C525 C 0.85876 0.82724 0.71434 0.0
C526 C 0.89881 0.84305 0.66886 0.0
C527 C 0.90784 0.87273 0.68665 0.0
C528 C 0.89304 0.87871 0.71921 0.0
C529 C 0.86899 0.85596 0.73311 0.0
C530 C 0.97254 0.91191 0.62544 0.0
C531 C 0.95873 0.94469 0.62156 0.0
C532 C 0.95783 0.88912 0.64883 0.0
C533 C 0.92929 0.89878 0.66903 0.0
C534 C 0.91807 0.93272 0.66783 0.0
C535 C 0.93253 0.95537 0.64424 0.0
H536 H 0.32871 0.12913 0.214 0.0
H537 H 0.30112 0.19059 0.12676 0.0
H538 H 0.37161 0.09945 0.17896 0.0
H539 H 0.34319 0.16043 0.09164 0.0
H540 H 0.42918 0.03643 0.09556 0.0
H541 H 0.38391 0.06137 0.13145 0.0
H542 H 0.40432 0.15974 0.0871 0.0
H543 H 0.44876 0.13482 0.05085 0.0
C544 C 0.33118 0.13577 0.18716 0.0
C545 C 0.31161 0.1625 0.17332 0.0
C546 C 0.35586 0.11875 0.16704 0.0
C547 C 0.36145 0.12796 0.13259 0.0
C548 C 0.34036 0.15328 0.11831 0.0
C549 C 0.31591 0.17037 0.1384 0.0
C550 C 0.42425 0.06346 0.09375 0.0
C551 C 0.44261 0.08357 0.07015 0.0
C552 C 0.39823 0.07777 0.11434 0.0
C553 C 0.38998 0.11252 0.11186 0.0
C554 C 0.40923 0.13273 0.08911 0.0
C555 C 0.43504 0.11847 0.0685 0.0
H556 H 0.88346 0.24959 0.17871 0.0
H557 H 0.7991 0.31537 0.15154 0.0
H558 H 0.92192 0.28276 0.14116 0.0
H559 H 0.83704 0.34784 0.11415 0.0
H560 H 0.92282 0.42678 0.12203 0.0
H561 H 0.89478 0.37958 0.15082 0.0
H562 H 0.92055 0.31336 0.06613 0.0
H563 H 0.94897 0.36087 0.03676 0.0
C564 C 0.87294 0.27013 0.16359 0.0
C565 C 0.83858 0.28027 0.16798 0.0
C566 C 0.89484 0.28903 0.1423 0.0
C567 C 0.88221 0.31781 0.12527 0.0
C568 C 0.84718 0.32574 0.12722 0.0
C569 C 0.82556 0.30722 0.14851 0.0
C570 C 0.92312 0.4021 0.10969 0.0
C571 C 0.93752 0.39768 0.07686 0.0
C572 C 0.90723 0.37512 0.12625 0.0
C573 C 0.90543 0.34321 0.11038 0.0
C574 C 0.92188 0.33786 0.07873 0.0
C575 C 0.93801 0.36501 0.06205 0.0
H576 H 0.72518 0.90496 0.22783 0.0
H577 H 0.75184 0.85096 0.13455 0.0
H578 H 0.69543 0.94788 0.19421 0.0
H579 H 0.72202 0.89377 0.10121 0.0
H580 H 0.66102 0.97023 0.0465 0.0
H581 H 0.70977 0.95462 0.08249 0.0
H582 H 0.63988 0.93095 0.16553 0.0
H583 H 0.59149 0.94625 0.12979 0.0
C584 C 0.72567 0.90278 0.20013 0.0
C585 C 0.73977 0.87398 0.18385 0.0
C586 C 0.70873 0.92743 0.18095 0.0
C587 C 0.70593 0.9237 0.14529 0.0
C588 C 0.72382 0.89727 0.1287 0.0
C589 C 0.74057 0.87251 0.14786 0.0
C590 C 0.65624 0.96246 0.07274 0.0
C591 C 0.62256 0.95861 0.08523 0.0
C592 C 0.68409 0.95368 0.09326 0.0
C593 C 0.67853 0.94158 0.12667 0.0
C594 C 0.64496 0.94059 0.14 0.0
C595 C 0.61721 0.94883 0.11938 0.0
H596 H 0.21251 0.68064 0.1373 0.0
H597 H 0.11569 0.70407 0.1868 0.0
H598 H 0.18543 0.63608 0.10459 0.0
H599 H 0.08778 0.66041 0.15236 0.0
H600 H 0.05475 0.5573 0.10923 0.0
H601 H 0.08149 0.60141 0.14419 0.0
H602 H 0.14933 0.62573 0.05949 0.0
H603 H 0.12422 0.58087 0.02583 0.0
C604 C 0.18518 0.6768 0.14063 0.0
C605 C 0.16623 0.69611 0.16453 0.0
C606 C 0.16951 0.65117 0.12172 0.0
C607 C 0.13423 0.64453 0.12555 0.0
C608 C 0.11509 0.66432 0.14906 0.0
C609 C 0.13098 0.68965 0.16853 0.0
C610 C 0.07576 0.57181 0.09844 0.0
C611 C 0.08776 0.56512 0.06502 0.0
C612 C 0.09084 0.59739 0.11828 0.0
C613 C 0.11782 0.6172 0.10485 0.0
C614 C 0.12938 0.61055 0.07124 0.0
C615 C 0.11484 0.58471 0.05179 0.0
H616 H 0.31245 0.8122 0.90051 0.0
H617 H 0.33371 0.8787 0.81496 0.0
H618 H 0.35674 0.84048 0.93369 0.0
H619 H 0.37871 0.90597 0.84752 0.0
H620 H 0.43774 0.96731 0.92647 0.0
H621 H 0.39153 0.94188 0.89414 0.0
H622 H 0.41785 0.84333 0.93521 0.0
H623 H 0.4634 0.86909 0.96876 0.0
C624 C 0.32633 0.83304 0.88888 0.0
C625 C 0.31953 0.84311 0.85504 0.0
C626 C 0.35204 0.84898 0.90775 0.0
C627 C 0.37173 0.87517 0.89312 0.0
C628 C 0.36395 0.88611 0.85977 0.0
C629 C 0.33806 0.8704 0.84104 0.0
C630 C 0.43403 0.94012 0.92835 0.0
C631 C 0.45433 0.92023 0.9503 0.0
C632 C 0.40743 0.92551 0.90973 0.0
C633 C 0.40066 0.89057 0.91227 0.0
C634 C 0.42178 0.87046 0.93326 0.0
C635 C 0.44821 0.88515 0.95217 0.0
H636 H 0.17657 0.27179 0.88295 0.0
H637 H 0.14115 0.31106 0.78628 0.0
H638 H 0.12996 0.30191 0.91266 0.0
H639 H 0.0934 0.33944 0.81533 0.0
H640 H 0.07253 0.43419 0.88261 0.0
H641 H 0.09824 0.38952 0.84847 0.0
H642 H 0.07034 0.31576 0.92573 0.0
H643 H 0.04511 0.3613 0.96073 0.0
C644 C 0.15799 0.28589 0.86806 0.0
C645 C 0.16258 0.28997 0.83266 0.0
C646 C 0.13116 0.30291 0.88493 0.0
C647 C 0.1084 0.32367 0.86637 0.0
C648 C 0.11105 0.32443 0.83042 0.0
C649 C 0.13826 0.30819 0.81379 0.0
C650 C 0.07128 0.40838 0.8921 0.0
C651 C 0.05745 0.40133 0.9246 0.0
C652 C 0.08569 0.38258 0.8723 0.0
C653 C 0.08657 0.349 0.88447 0.0
C654 C 0.0704 0.34146 0.91589 0.0
C655 C 0.05578 0.36746 0.93578 0.0
H656 H 0.65198 0.18664 0.79773 0.0
H657 H 0.74998 0.1735 0.84732 0.0
H658 H 0.62672 0.14521 0.83529 0.0
H659 H 0.72419 0.13058 0.88528 0.0
H660 H 0.64347 0.09465 0.97177 0.0
H661 H 0.68122 0.12646 0.93282 0.0
H662 H 0.62637 0.0857 0.84617 0.0
H663 H 0.58796 0.05561 0.88513 0.0
C664 C 0.66838 0.1747 0.81653 0.0
C665 C 0.70316 0.18361 0.8194 0.0
C666 C 0.65383 0.15046 0.83797 0.0
C667 C 0.67347 0.13402 0.86303 0.0
C668 C 0.70835 0.14274 0.86617 0.0
C669 C 0.72314 0.16723 0.84439 0.0
C670 C 0.64029 0.09187 0.94433 0.0
C671 C 0.6128 0.07302 0.93127 0.0
C672 C 0.66187 0.11003 0.92202 0.0
C673 C 0.65634 0.10927 0.88638 0.0
C674 C 0.63077 0.08765 0.87349 0.0
C675 C 0.60893 0.07016 0.89571 0.0
H676 H 0.83319 0.72168 0.87985 0.0
H677 H 0.85749 0.65134 0.79797 0.0
H678 H 0.86382 0.68496 0.92039 0.0
H679 H 0.88784 0.61504 0.83805 0.0
H680 H 0.96323 0.5709 0.91442 0.0
H681 H 0.93904 0.61318 0.87587 0.0
H682 H 0.8519 0.6257 0.94385 0.0
H683 H 0.87606 0.58345 0.98265 0.0
C684 C 0.84568 0.69883 0.87042 0.0
C685 C 0.84289 0.68928 0.83584 0.0
C686 C 0.86287 0.67767 0.89361 0.0
C687 C 0.87802 0.64703 0.88238 0.0
C688 C 0.87665 0.63854 0.84745 0.0
C689 C 0.85914 0.6593 0.82452 0.0
C690 C 0.93885 0.58254 0.92117 0.0
C691 C 0.92144 0.57349 0.95152 0.0
C692 C 0.92506 0.60683 0.89909 0.0
C693 C 0.89368 0.62286 0.90694 0.0
C694 C 0.87637 0.61409 0.93737 0.0
C695 C 0.89001 0.58956 0.95936 0.0
H696 H 0.14072 0.33014 0.21399 0.0
H697 H 0.20084 0.29498 0.12719 0.0
H698 H 0.10885 0.36811 0.1765 0.0
H699 H 0.16843 0.33233 0.08967 0.0
H700 H 0.03923 0.41142 0.09202 0.0
H701 H 0.06805 0.37144 0.12998 0.0
H702 H 0.16463 0.39252 0.07938 0.0
H703 H 0.13586 0.43181 0.04105 0.0
C704 C 0.14679 0.33007 0.18684 0.0
C705 C 0.17356 0.30963 0.17369 0.0
C706 C 0.12842 0.35183 0.16531 0.0
C707 C 0.13634 0.35362 0.13012 0.0
C708 C 0.16216 0.33216 0.11678 0.0
C709 C 0.18058 0.3105 0.13828 0.0
C710 C 0.06666 0.40772 0.08914 0.0
C711 C 0.08518 0.42481 0.06336 0.0
C712 C 0.08319 0.3848 0.11096 0.0
C713 C 0.11861 0.37847 0.10753 0.0
C714 C 0.1372 0.39618 0.08227 0.0
C715 C 0.12071 0.41898 0.06045 0.0
H716 H 0.12061 0.7274 0.81952 0.0
H717 H 0.19259 0.72314 0.90334 0.0
H718 H 0.08265 0.68888 0.85023 0.0
H719 H 0.15398 0.68492 0.93419 0.0
H720 H 0.07316 0.57443 0.88979 0.0
H721 H 0.09897 0.62454 0.86333 0.0
H722 H 0.09001 0.67882 0.95932 0.0
H723 H 0.06355 0.62895 0.98573 0.0
C724 C 0.12796 0.71906 0.84488 0.0
C725 C 0.15996 0.72789 0.85875 0.0
C726 C 0.1062 0.69693 0.86234 0.0
C727 C 0.11571 0.68376 0.89424 0.0
C728 C 0.14616 0.69488 0.90957 0.0
C729 C 0.16825 0.71666 0.89188 0.0
C730 C 0.07618 0.59725 0.90503 0.0
C731 C 0.06637 0.5979 0.9397 0.0
C732 C 0.09072 0.62591 0.8899 0.0
C733 C 0.09631 0.6554 0.9094 0.0
C734 C 0.08583 0.65634 0.94386 0.0
C735 C 0.07059 0.62792 0.95881 0.0
H736 H 0.26953 0.14212 0.86192 0.0
H737 H 0.36573 0.16567 0.81141 0.0
H738 H 0.29784 0.09545 0.89247 0.0
H739 H 0.39356 0.12042 0.84181 0.0
H740 H 0.38464 0.07113 0.97598 0.0
H741 H 0.34081 0.09474 0.93836 0.0
H742 H 0.39911 0.06042 0.8499 0.0
H743 H 0.44379 0.03885 0.88774 0.0
C744 C 0.29651 0.13718 0.85713 0.0
C745 C 0.31555 0.15788 0.83475 0.0
C746 C 0.31263 0.11049 0.87448 0.0
C747 C 0.34781 0.10405 0.8693 0.0
C748 C 0.36625 0.12405 0.84586 0.0
C749 C 0.35036 0.15054 0.82882 0.0
C750 C 0.38736 0.06787 0.94848 0.0
C751 C 0.41758 0.05422 0.93435 0.0
C752 C 0.36221 0.08105 0.92695 0.0
C753 C 0.36704 0.08019 0.89119 0.0
C754 C 0.39525 0.06225 0.87739 0.0
C755 C 0.42075 0.04994 0.89887 0.0
H756 H 0.85029 0.2975 0.83749 0.0
H757 H 0.787 0.38547 0.81709 0.0
H758 H 0.8841 0.3312 0.87786 0.0
H759 H 0.82063 0.41877 0.85708 0.0
H760 H 0.86261 0.45424 0.96101 0.0
H761 H 0.83029 0.42049 0.9201 0.0
H762 H 0.92495 0.38163 0.8768 0.0
H763 H 0.95753 0.41545 0.9179 0.0
C764 C 0.8435 0.32389 0.84168 0.0
C765 C 0.81589 0.33871 0.82406 0.0
C766 C 0.86302 0.34325 0.86457 0.0
C767 C 0.85501 0.37765 0.87062 0.0
C768 C 0.82727 0.39228 0.85321 0.0
C769 C 0.80807 0.37315 0.83015 0.0
C770 C 0.87661 0.4387 0.94265 0.0
C771 C 0.91268 0.43767 0.9427 0.0
C772 C 0.85806 0.41941 0.91915 0.0
C773 C 0.87506 0.39831 0.8953 0.0
C774 C 0.91114 0.3974 0.89511 0.0
C775 C 0.92977 0.41705 0.91841 0.0
H776 H 0.66879 0.8484 0.79593 0.0
H777 H 0.74333 0.83134 0.87549 0.0
H778 H 0.63504 0.88396 0.83475 0.0
H779 H 0.70922 0.86714 0.91467 0.0
H780 H 0.6103 0.88406 0.98136 0.0
H781 H 0.65105 0.85761 0.94196 0.0
H782 H 0.63423 0.93819 0.86905 0.0
H783 H 0.59322 0.96506 0.90872 0.0
C784 C 0.67826 0.85271 0.82163 0.0
C785 C 0.7086 0.83683 0.83277 0.0
C786 C 0.65898 0.87328 0.84379 0.0
C787 C 0.66931 0.87816 0.87783 0.0
C788 C 0.70048 0.86355 0.88862 0.0
C789 C 0.72013 0.84329 0.86617 0.0
C790 C 0.61514 0.89625 0.95694 0.0
C791 C 0.59814 0.92659 0.94812 0.0
C792 C 0.63889 0.88124 0.93453 0.0
C793 C 0.64607 0.89591 0.90251 0.0
C794 C 0.62917 0.92626 0.89357 0.0
C795 C 0.60564 0.94159 0.91624 0.0
H796 H 0.90487 0.73262 0.20455 0.0
H797 H 0.8266 0.7263 0.12667 0.0
H798 H 0.93965 0.6911 0.17275 0.0
H799 H 0.86134 0.68474 0.09557 0.0
H800 H 0.89823 0.57082 0.10744 0.0
H801 H 0.87638 0.62212 0.13477 0.0
H802 H 0.96427 0.67805 0.09847 0.0
H803 H 0.98653 0.62653 0.07031 0.0
C804 C 0.89554 0.72327 0.18022 0.0
C805 C 0.8626 0.73218 0.16852 0.0
C806 C 0.91551 0.69962 0.16209 0.0
C807 C 0.90274 0.68474 0.13217 0.0
C808 C 0.87144 0.69598 0.11877 0.0
C809 C 0.85162 0.71971 0.13665 0.0
C810 C 0.91335 0.59376 0.10558 0.0
C811 C 0.94399 0.59461 0.08637 0.0
C812 C 0.90067 0.62312 0.12107 0.0
C813 C 0.91855 0.65377 0.11812 0.0
C814 C 0.95011 0.65454 0.10073 0.0
C815 C 0.9627 0.62512 0.08472 0.0
H816 H 0.29581 0.81312 0.12195 0.0
H817 H 0.27728 0.89872 0.18948 0.0
H818 H 0.34012 0.84517 0.09218 0.0
H819 H 0.32163 0.93083 0.15908 0.0
H820 H 0.39211 0.97936 0.07121 0.0
H821 H 0.34069 0.95396 0.09696 0.0
H822 H 0.39865 0.86336 0.12013 0.0
H823 H 0.44994 0.88856 0.09496 0.0
C824 C 0.30046 0.83906 0.12991 0.0
C825 C 0.28336 0.8531 0.15855 0.0
C826 C 0.32602 0.85729 0.11295 0.0
C827 C 0.33467 0.89009 0.12391 0.0
C828 C 0.31547 0.90546 0.15034 0.0
C829 C 0.29007 0.88705 0.16765 0.0
C830 C 0.39391 0.95415 0.08212 0.0
C831 C 0.42507 0.93591 0.081 0.0
C832 C 0.36453 0.93971 0.09679 0.0
C833 C 0.36572 0.90659 0.10992 0.0
C834 C 0.39702 0.88877 0.10963 0.0
C835 C 0.42644 0.90335 0.09556 0.0
H836 H 0.73245 0.13724 0.17062 0.0
H837 H 0.64631 0.19863 0.20474 0.0
H838 H 0.69521 0.10922 0.12885 0.0
H839 H 0.60976 0.17096 0.16317 0.0
H840 H 0.56893 0.14244 0.0559 0.0
H841 H 0.60702 0.16938 0.09742 0.0
H842 H 0.64144 0.07069 0.13119 0.0
H843 H 0.60347 0.0437 0.09014 0.0
C844 C 0.70569 0.14464 0.16935 0.0
C845 C 0.6924 0.1701 0.19105 0.0
C846 C 0.68443 0.12863 0.14553 0.0
C847 C 0.64976 0.13823 0.14273 0.0
C848 C 0.63649 0.16343 0.16455 0.0
C849 C 0.65748 0.17904 0.18855 0.0
C850 C 0.58451 0.12654 0.0723 0.0
C851 C 0.58299 0.09101 0.06989 0.0
C852 C 0.60624 0.14191 0.096 0.0
C853 C 0.62718 0.12202 0.11731 0.0
C854 C 0.62579 0.08655 0.11481 0.0
C855 C 0.60376 0.07118 0.09152 0.0
H856 H 0.70386 0.61945 0.80326 0.0
H857 H 0.63837 0.70598 0.82428 0.0
H858 H 0.6728 0.58664 0.84608 0.0
H859 H 0.60783 0.67334 0.8679 0.0
H860 H 0.54331 0.59245 0.92568 0.0
H861 H 0.56995 0.62633 0.88035 0.0
H862 H 0.66925 0.58558 0.90727 0.0
H863 H 0.64269 0.55131 0.95176 0.0
C864 C 0.68265 0.63143 0.81681 0.0
C865 C 0.67382 0.66547 0.81039 0.0
C866 C 0.66501 0.61269 0.84167 0.0
C867 C 0.63819 0.62751 0.86102 0.0
C868 C 0.62826 0.66105 0.85349 0.0
C869 C 0.64582 0.67979 0.82843 0.0
C870 C 0.57089 0.59107 0.92218 0.0
C871 C 0.59082 0.56898 0.94228 0.0
C872 C 0.58617 0.61047 0.89613 0.0
C873 C 0.62172 0.60829 0.88968 0.0
C874 C 0.6417 0.58723 0.91078 0.0
C875 C 0.62647 0.56779 0.9366 0.0
H876 H 0.35964 0.66155 0.77434 0.0
H877 H 0.29289 0.66185 0.86332 0.0
H878 H 0.40216 0.62793 0.80633 0.0
H879 H 0.3348 0.62857 0.89472 0.0
H880 H 0.43108 0.62687 0.95457 0.0
H881 H 0.39549 0.65403 0.91158 0.0
H882 H 0.40925 0.56779 0.84429 0.0
H883 H 0.44536 0.54023 0.88762 0.0
C884 C 0.35363 0.6535 0.80024 0.0
C885 C 0.32332 0.66464 0.81664 0.0
C886 C 0.37793 0.63449 0.81848 0.0
C887 C 0.37192 0.62657 0.85311 0.0
C888 C 0.34026 0.63509 0.86825 0.0
C889 C 0.31626 0.65398 0.85025 0.0
C890 C 0.42717 0.61394 0.93037 0.0
C891 C 0.44045 0.58122 0.92467 0.0
C892 C 0.40677 0.62944 0.90582 0.0
C893 C 0.39912 0.61255 0.87512 0.0
C894 C 0.41477 0.58114 0.86792 0.0
C895 C 0.43542 0.56551 0.89264 0.0
H896 H 0.37662 0.30341 0.84978 0.0
H897 H 0.30348 0.38355 0.82986 0.0
H898 H 0.40512 0.33936 0.89148 0.0
H899 H 0.33279 0.42009 0.87068 0.0
H900 H 0.37207 0.46757 0.96888 0.0
H901 H 0.3428 0.4294 0.92959 0.0
H902 H 0.44057 0.38695 0.89807 0.0
H903 H 0.46961 0.42418 0.9382 0.0
C904 C 0.36681 0.32887 0.85397 0.0
C905 C 0.33768 0.34049 0.83631 0.0
C906 C 0.38332 0.34964 0.87789 0.0
C907 C 0.3714 0.38281 0.88472 0.0
C908 C 0.34245 0.39454 0.86674 0.0
C909 C 0.32575 0.37364 0.843 0.0
C910 C 0.3873 0.44982 0.95385 0.0
C911 C 0.42325 0.44898 0.9569 0.0
C912 C 0.37051 0.42809 0.93097 0.0
C913 C 0.38919 0.40508 0.91023 0.0
C914 C 0.42512 0.40387 0.91382 0.0
C915 C 0.44187 0.42537 0.93689 0.0
H916 H 0.66728 0.39895 0.76906 0.0
H917 H 0.61404 0.30573 0.79311 0.0
H918 H 0.63153 0.42917 0.8109 0.0
H919 H 0.57879 0.33603 0.83511 0.0
H920 H 0.58303 0.39222 0.94338 0.0
H921 H 0.60211 0.36177 0.89201 0.0
H922 H 0.56869 0.44543 0.82902 0.0
H923 H 0.54914 0.47587 0.88031 0.0
C924 C 0.64739 0.38509 0.78254 0.0
C925 C 0.64391 0.34984 0.77811 0.0
C926 C 0.62688 0.40242 0.80642 0.0
C927 C 0.60282 0.38473 0.82648 0.0
C928 C 0.59745 0.35009 0.82017 0.0
C929 C 0.61759 0.33285 0.79598 0.0
C930 C 0.57926 0.40389 0.91855 0.0
C931 C 0.56479 0.43648 0.91591 0.0
C932 C 0.58993 0.38638 0.88916 0.0
C933 C 0.58681 0.40134 0.85665 0.0
C934 C 0.57136 0.43343 0.85384 0.0
C935 C 0.56011 0.45072 0.88319 0.0
H936 H 0.7144 0.38155 0.22739 0.0
H937 H 0.63556 0.30465 0.22991 0.0
H938 H 0.67657 0.41822 0.19377 0.0
H939 H 0.59832 0.34111 0.19609 0.0
H940 H 0.58026 0.39144 0.08741 0.0
H941 H 0.60865 0.35897 0.13237 0.0
H942 H 0.61551 0.44949 0.19455 0.0
H943 H 0.58623 0.48203 0.1496 0.0
C944 C 0.68886 0.37271 0.22139 0.0
C945 C 0.67822 0.33998 0.23109 0.0
C946 C 0.66718 0.39377 0.20227 0.0
C947 C 0.63468 0.38232 0.19214 0.0
C948 C 0.62336 0.35042 0.20336 0.0
C949 C 0.64475 0.3296 0.22283 0.0
C950 C 0.58725 0.40426 0.11094 0.0
C951 C 0.581 0.43917 0.1151 0.0
C952 C 0.60338 0.38569 0.13669 0.0
C953 C 0.61428 0.40177 0.16688 0.0
C954 C 0.60737 0.43656 0.17147 0.0
C955 C 0.59044 0.45504 0.14594 0.0
H956 H 0.68043 0.72383 0.1493 0.0
H957 H 0.6996 0.64271 0.22124 0.0
H958 H 0.64718 0.68521 0.11381 0.0
H959 H 0.66631 0.604 0.18542 0.0
H960 H 0.64536 0.53935 0.08841 0.0
H961 H 0.67534 0.57894 0.1256 0.0
H962 H 0.59192 0.65073 0.11628 0.0
H963 H 0.56154 0.611 0.07905 0.0
C964 C 0.6774 0.69779 0.15766 0.0
C965 C 0.69282 0.68629 0.18805 0.0
C966 C 0.65819 0.67576 0.13739 0.0
C967 C 0.65431 0.64161 0.14678 0.0
C968 C 0.66918 0.63017 0.17744 0.0
C969 C 0.68804 0.65236 0.19802 0.0
C970 C 0.63342 0.56366 0.09401 0.0
C971 C 0.60106 0.57204 0.0806 0.0
C972 C 0.65049 0.58617 0.11563 0.0
C973 C 0.63584 0.61776 0.12403 0.0
C974 C 0.60382 0.62653 0.11014 0.0
C975 C 0.58647 0.60379 0.08883 0.0
H976 H 0.35344 0.67043 0.25845 0.0
H977 H 0.33972 0.7194 0.16044 0.0
H978 H 0.39956 0.6352 0.23332 0.0
H979 H 0.38447 0.6845 0.13567 0.0
H980 H 0.47386 0.6344 0.09501 0.0
H981 H 0.44461 0.67348 0.13425 0.0
H982 H 0.40431 0.58821 0.19109 0.0
H983 H 0.43514 0.54925 0.15246 0.0
C984 C 0.36049 0.67397 0.23178 0.0
C985 C 0.3427 0.69758 0.21144 0.0
C986 C 0.38676 0.65372 0.21735 0.0
C987 C 0.39599 0.65713 0.18249 0.0
C988 C 0.37875 0.68152 0.16272 0.0
C989 C 0.35262 0.70137 0.17693 0.0
C990 C 0.45988 0.62417 0.11677 0.0
C991 C 0.45674 0.58898 0.12089 0.0
C992 C 0.44279 0.64646 0.13904 0.0
C993 C 0.42132 0.634 0.16534 0.0
C994 C 0.42066 0.59873 0.17123 0.0
C995 C 0.43833 0.57638 0.14918 0.0
H996 H 0.32284 0.31732 0.14995 0.0
H997 H 0.37305 0.35021 0.24286 0.0
H998 H 0.3555 0.35796 0.11708 0.0
H999 H 0.40649 0.39134 0.2089 0.0
H1000 H 0.47995 0.43099 0.11587 0.0
H1001 H 0.45203 0.38987 0.15406 0.0
H1002 H 0.35287 0.42458 0.11987 0.0
H1003 H 0.38035 0.4656 0.08207 0.0
C1004 C 0.34101 0.33306 0.1635 0.0
C1005 C 0.34497 0.33067 0.1993 0.0
C1006 C 0.35969 0.35642 0.14449 0.0
C1007 C 0.38312 0.37792 0.16054 0.0
C1008 C 0.38843 0.37491 0.19605 0.0
C1009 C 0.36929 0.35152 0.21541 0.0
C1010 C 0.45218 0.42974 0.11648 0.0
C1011 C 0.43231 0.45132 0.09573 0.0
C1012 C 0.43631 0.40653 0.13859 0.0
C1013 C 0.40041 0.40422 0.13983 0.0
C1014 C 0.38064 0.42587 0.11926 0.0
C1015 C 0.39638 0.44929 0.0976 0.0
H1016 H 0.82314 0.69938 0.62382 0.0
H1017 H 0.79159 0.61499 0.68715 0.0
H1018 H 0.85899 0.66127 0.58962 0.0
H1019 H 0.82676 0.57675 0.65233 0.0
H1020 H 0.93744 0.54077 0.6264 0.0
H1021 H 0.88804 0.57041 0.65014 0.0
H1022 H 0.8665 0.6131 0.55055 0.0
H1023 H 0.91687 0.58359 0.52672 0.0
C1024 C 0.82308 0.67255 0.62991 0.0
C1025 C 0.80497 0.66039 0.65869 0.0
C1026 C 0.84355 0.65062 0.61011 0.0
C1027 C 0.84623 0.616 0.61855 0.0
C1028 C 0.82588 0.60341 0.64559 0.0
C1029 C 0.80558 0.62534 0.66549 0.0
C1030 C 0.92196 0.55613 0.60939 0.0
C1031 C 0.93136 0.56022 0.5748 0.0
C1032 C 0.89333 0.57289 0.62295 0.0
C1033 C 0.87328 0.59431 0.60232 0.0
C1034 C 0.88162 0.59707 0.56722 0.0
C1035 C 0.9103 0.58 0.55352 0.0
H1036 H 0.37785 0.82041 0.72015 0.0
H1037 H 0.32682 0.76067 0.64294 0.0
H1038 H 0.41041 0.84954 0.6755 0.0
H1039 H 0.35945 0.79047 0.59797 0.0
H1040 H 0.46777 0.86075 0.55559 0.0
H1041 H 0.44019 0.81478 0.58794 0.0
H1042 H 0.36205 0.88472 0.6232 0.0
H1043 H 0.38924 0.93058 0.5913 0.0
C1044 C 0.37455 0.81269 0.69369 0.0
C1045 C 0.34972 0.7886 0.68484 0.0
C1046 C 0.39312 0.82931 0.66825 0.0
C1047 C 0.38701 0.82223 0.63361 0.0
C1048 C 0.36456 0.79599 0.62467 0.0
C1049 C 0.34608 0.77898 0.65031 0.0
C1050 C 0.44409 0.86604 0.56935 0.0
C1051 C 0.43089 0.89936 0.5714 0.0
C1052 C 0.42844 0.83976 0.58777 0.0
C1053 C 0.39934 0.8466 0.60797 0.0
C1054 C 0.38459 0.87912 0.6077 0.0
C1055 C 0.40022 0.9053 0.58958 0.0
H1056 H 0.22026 0.38101 0.70329 0.0
H1057 H 0.22415 0.29697 0.63158 0.0
H1058 H 0.18461 0.41264 0.66353 0.0
H1059 H 0.1885 0.32881 0.5919 0.0
H1060 H 0.13436 0.47014 0.58216 0.0
H1061 H 0.18262 0.43906 0.60589 0.0
H1062 H 0.12592 0.34545 0.59665 0.0
H1063 H 0.07742 0.37682 0.57213 0.0
C1064 C 0.21421 0.36961 0.67877 0.0
C1065 C 0.22456 0.33633 0.67086 0.0
C1066 C 0.19388 0.38774 0.65593 0.0
C1067 C 0.18358 0.3729 0.62484 0.0
C1068 C 0.19575 0.34054 0.61593 0.0
C1069 C 0.21626 0.32247 0.63865 0.0
C1070 C 0.1324 0.44281 0.58477 0.0
C1071 C 0.10199 0.4258 0.57632 0.0
C1072 C 0.16001 0.42512 0.59824 0.0
C1073 C 0.15766 0.39009 0.60369 0.0
C1074 C 0.12832 0.37254 0.5926 0.0
C1075 C 0.10058 0.39036 0.57877 0.0
H1076 H 0.62129 0.21439 0.67647 0.0
H1077 H 0.71192 0.184 0.61951 0.0
H1078 H 0.58953 0.16785 0.65116 0.0
H1079 H 0.68002 0.13668 0.59447 0.0
H1080 H 0.59813 0.07224 0.53615 0.0
H1081 H 0.63279 0.11947 0.55679 0.0
H1082 H 0.58937 0.10698 0.65822 0.0
H1083 H 0.55431 0.06039 0.63757 0.0
C1084 C 0.63441 0.19795 0.65825 0.0
C1085 C 0.66929 0.20284 0.65026 0.0
C1086 C 0.61623 0.17099 0.64397 0.0
C1087 C 0.6324 0.14796 0.6214 0.0
C1088 C 0.66678 0.15389 0.61183 0.0
C1089 C 0.68504 0.18108 0.6261 0.0
C1090 C 0.59635 0.0792 0.563 0.0
C1091 C 0.57321 0.06252 0.58517 0.0
C1092 C 0.61625 0.10636 0.57481 0.0
C1093 C 0.61347 0.11747 0.60903 0.0
C1094 C 0.59154 0.09971 0.63148 0.0
C1095 C 0.57165 0.07269 0.61971 0.0
H1096 H 0.83241 0.28829 0.39023 0.0
H1097 H 0.84694 0.36208 0.3094 0.0
H1098 H 0.87975 0.31275 0.42169 0.0
H1099 H 0.89363 0.38737 0.34171 0.0
H1100 H 0.99635 0.40385 0.38305 0.0
H1101 H 0.95188 0.37026 0.35564 0.0
H1102 H 0.89802 0.3628 0.45273 0.0
H1103 H 0.94359 0.39525 0.48023 0.0
C1104 C 0.84531 0.31014 0.37941 0.0
C1105 C 0.83624 0.32301 0.34703 0.0
C1106 C 0.87243 0.32412 0.39754 0.0
C1107 C 0.89086 0.35138 0.38378 0.0
C1108 C 0.88048 0.36561 0.35242 0.0
C1109 C 0.85343 0.3515 0.33414 0.0
C1110 C 0.97571 0.39366 0.39867 0.0
C1111 C 0.97301 0.40194 0.43353 0.0
C1112 C 0.94999 0.37508 0.38296 0.0
C1113 C 0.92095 0.36505 0.40183 0.0
C1114 C 0.92003 0.37042 0.43751 0.0
C1115 C 0.94614 0.3887 0.45335 0.0
H1116 H 0.63284 0.80728 0.2947 0.0
H1117 H 0.69208 0.76671 0.37823 0.0
H1118 H 0.59321 0.83395 0.33581 0.0
H1119 H 0.6532 0.79471 0.41945 0.0
H1120 H 0.52272 0.86517 0.4288 0.0
H1121 H 0.55244 0.81835 0.39882 0.0
H1122 H 0.64905 0.86948 0.41252 0.0
H1123 H 0.61934 0.91676 0.44107 0.0
C1124 C 0.63646 0.80296 0.32187 0.0
C1125 C 0.66511 0.78479 0.33348 0.0
C1126 C 0.61389 0.81817 0.34531 0.0
C1127 C 0.62031 0.8162 0.3806 0.0
C1128 C 0.64766 0.79614 0.39231 0.0
C1129 C 0.6697 0.78008 0.36881 0.0
C1130 C 0.5504 0.86587 0.42606 0.0
C1131 C 0.5689 0.89441 0.43701 0.0
C1132 C 0.56727 0.83922 0.40902 0.0
C1133 C 0.60291 0.84039 0.40384 0.0
C1134 C 0.62159 0.86793 0.41674 0.0
C1135 C 0.60465 0.89496 0.43282 0.0
H1136 H 0.23374 0.68937 0.37908 0.0
H1137 H 0.16326 0.66157 0.29891 0.0
H1138 H 0.20712 0.64669 0.41706 0.0
H1139 H 0.13712 0.61999 0.33602 0.0
H1140 H 0.10421 0.53434 0.3927 0.0
H1141 H 0.14959 0.56583 0.36402 0.0
H1142 H 0.14721 0.6406 0.44529 0.0
H1143 H 0.10266 0.60769 0.47508 0.0
C1144 C 0.21305 0.67383 0.36948 0.0
C1145 C 0.20036 0.67885 0.33622 0.0
C1146 C 0.19778 0.64964 0.39115 0.0
C1147 C 0.17027 0.62981 0.37939 0.0
C1148 C 0.15867 0.63431 0.34572 0.0
C1149 C 0.17344 0.65846 0.3245 0.0
C1150 C 0.11411 0.55694 0.40492 0.0
C1151 C 0.0996 0.56905 0.43562 0.0
C1152 C 0.14005 0.57499 0.38855 0.0
C1153 C 0.1513 0.60609 0.402 0.0
C1154 C 0.13903 0.61668 0.43436 0.0
C1155 C 0.11342 0.59805 0.45125 0.0
H1156 H 0.38523 0.224 0.33573 0.0
H1157 H 0.29931 0.15947 0.36053 0.0
H1158 H 0.42294 0.18691 0.36936 0.0
H1159 H 0.33665 0.12278 0.39396 0.0
H1160 H 0.41111 0.07512 0.47062 0.0
H1161 H 0.37433 0.11911 0.44579 0.0
H1162 H 0.44313 0.12668 0.35888 0.0
H1163 H 0.47969 0.08294 0.38334 0.0
C1164 C 0.37429 0.20241 0.34897 0.0
C1165 C 0.33941 0.19451 0.34529 0.0
C1166 C 0.39586 0.18103 0.36797 0.0
C1167 C 0.38278 0.15176 0.38409 0.0
C1168 C 0.3475 0.14517 0.38206 0.0
C1169 C 0.32615 0.16614 0.36273 0.0
C1170 C 0.41834 0.08612 0.44619 0.0
C1171 C 0.44822 0.07517 0.42887 0.0
C1172 C 0.39732 0.11137 0.43202 0.0
C1173 C 0.40599 0.12656 0.4005 0.0
C1174 C 0.43603 0.11589 0.38345 0.0
C1175 C 0.45675 0.09045 0.39734 0.0
H1176 H 0.63154 0.78519 0.68934 0.0
H1177 H 0.71882 0.82195 0.63147 0.0
H1178 H 0.59419 0.82373 0.65826 0.0
H1179 H 0.68127 0.86104 0.6007 0.0
H1180 H 0.59399 0.90929 0.53565 0.0
H1181 H 0.63244 0.86687 0.56044 0.0
H1182 H 0.58758 0.88551 0.6604 0.0
H1183 H 0.54906 0.92734 0.63588 0.0
C1184 C 0.64274 0.8012 0.66972 0.0
C1185 C 0.67827 0.80076 0.66323 0.0
C1186 C 0.62134 0.82348 0.65207 0.0
C1187 C 0.63491 0.84594 0.62757 0.0
C1188 C 0.67007 0.84406 0.61947 0.0
C1189 C 0.69157 0.82165 0.63712 0.0
C1190 C 0.59255 0.90455 0.56298 0.0
C1191 C 0.56827 0.92163 0.58374 0.0
C1192 C 0.61457 0.88023 0.57713 0.0
C1193 C 0.61265 0.87247 0.61226 0.0
C1194 C 0.58912 0.89031 0.63309 0.0
C1195 C 0.56722 0.91455 0.61904 0.0
H1196 H 0.73332 0.18958 0.40106 0.0
H1197 H 0.64049 0.22487 0.35215 0.0
H1198 H 0.69912 0.155 0.44002 0.0
H1199 H 0.60651 0.19046 0.39145 0.0
H1200 H 0.55334 0.12819 0.47121 0.0
H1201 H 0.59116 0.17489 0.45537 0.0
H1202 H 0.66522 0.10298 0.41509 0.0
H1203 H 0.62747 0.0562 0.43056 0.0
C1204 C 0.70561 0.19082 0.3993 0.0
C1205 C 0.68952 0.20915 0.37297 0.0
C1206 C 0.68616 0.17108 0.42164 0.0
C1207 C 0.65044 0.16992 0.41827 0.0
C1208 C 0.63411 0.19112 0.39451 0.0
C1209 C 0.65355 0.21055 0.37186 0.0
C1210 C 0.57796 0.12229 0.45951 0.0
C1211 C 0.58728 0.08862 0.45146 0.0
C1212 C 0.59953 0.149 0.45064 0.0
C1213 C 0.63091 0.14233 0.43421 0.0
C1214 C 0.64122 0.10861 0.42818 0.0
C1215 C 0.61946 0.08193 0.43656 0.0
H1216 H 0.7891 0.65238 0.34755 0.0
H1217 H 0.8733 0.72303 0.33779 0.0
H1218 H 0.82277 0.61922 0.38853 0.0
H1219 H 0.90664 0.68991 0.37749 0.0
H1220 H 0.95955 0.63292 0.45894 0.0
H1221 H 0.91451 0.66941 0.43542 0.0
H1222 H 0.87296 0.5835 0.38075 0.0
H1223 H 0.91672 0.54728 0.4046 0.0
C1224 C 0.81457 0.66092 0.35424 0.0
C1225 C 0.82871 0.68992 0.33887 0.0
C1226 C 0.83382 0.64203 0.37769 0.0
C1227 C 0.8674 0.65195 0.3862 0.0
C1228 C 0.88073 0.6818 0.37198 0.0
C1229 C 0.86167 0.70052 0.34867 0.0
C1230 C 0.94049 0.62184 0.44229 0.0
C1231 C 0.94234 0.58744 0.43292 0.0
C1232 C 0.91471 0.64267 0.42884 0.0
C1233 C 0.89035 0.62935 0.40598 0.0
C1234 C 0.89104 0.59455 0.39848 0.0
C1235 C 0.91664 0.57387 0.41179 0.0
H1236 H 0.33201 0.79658 0.36253 0.0
H1237 H 0.29735 0.88623 0.30885 0.0
H1238 H 0.37155 0.83166 0.39575 0.0
H1239 H 0.33678 0.92083 0.34181 0.0
H1240 H 0.44592 0.95729 0.37203 0.0
H1241 H 0.40185 0.92431 0.34307 0.0
H1242 H 0.37082 0.88076 0.4399 0.0
H1243 H 0.41482 0.91391 0.46908 0.0
C1244 C 0.33259 0.8237 0.35799 0.0
C1245 C 0.31158 0.8385 0.3329 0.0
C1246 C 0.3551 0.84378 0.3771 0.0
C1247 C 0.35733 0.87892 0.37116 0.0
C1248 C 0.33584 0.89377 0.34666 0.0
C1249 C 0.31312 0.87387 0.3279 0.0
C1250 C 0.4295 0.94095 0.38721 0.0
C1251 C 0.43385 0.93828 0.42284 0.0
C1252 C 0.40421 0.92214 0.37065 0.0
C1253 C 0.38302 0.89991 0.38926 0.0
C1254 C 0.387 0.89752 0.42493 0.0
C1255 C 0.41198 0.91674 0.44162 0.0
H1256 H 0.19348 0.30152 0.37607 0.0
H1257 H 0.25309 0.38258 0.33184 0.0
H1258 H 0.16369 0.34214 0.41325 0.0
H1259 H 0.2225 0.42377 0.36868 0.0
H1260 H 0.11042 0.47263 0.38818 0.0
H1261 H 0.15796 0.43956 0.3645 0.0
H1262 H 0.16884 0.38753 0.46111 0.0
H1263 H 0.12149 0.42143 0.48532 0.0
C1264 C 0.20087 0.32801 0.3751 0.0
C1265 C 0.22562 0.33898 0.35127 0.0
C1266 C 0.1839 0.35126 0.39646 0.0
C1267 C 0.1907 0.38616 0.39386 0.0
C1268 C 0.21679 0.39699 0.37124 0.0
C1269 C 0.23441 0.37349 0.35034 0.0
C1270 C 0.12355 0.45488 0.40475 0.0
C1271 C 0.11204 0.44958 0.43859 0.0
C1272 C 0.15095 0.43603 0.39119 0.0
C1273 C 0.1671 0.41089 0.4109 0.0
C1274 C 0.15683 0.40674 0.44533 0.0
C1275 C 0.12981 0.4262 0.45919 0.0
H1276 H 0.40395 0.21064 0.71513 0.0
H1277 H 0.33236 0.23076 0.63337 0.0
H1278 H 0.43838 0.17548 0.67576 0.0
H1279 H 0.36633 0.19521 0.59476 0.0
H1280 H 0.3953 0.07599 0.58403 0.0
H1281 H 0.3713 0.12597 0.61304 0.0
H1282 H 0.46995 0.17514 0.60789 0.0
H1283 H 0.4939 0.1254 0.57781 0.0
C1284 C 0.39625 0.20863 0.68857 0.0
C1285 C 0.36508 0.22278 0.67753 0.0
C1286 C 0.41591 0.18853 0.66612 0.0
C1287 C 0.40448 0.18247 0.6326 0.0
C1288 C 0.37535 0.19944 0.62064 0.0
C1289 C 0.35595 0.21967 0.64282 0.0
C1290 C 0.41165 0.0977 0.58857 0.0
C1291 C 0.44625 0.09709 0.57858 0.0
C1292 C 0.39799 0.12621 0.60502 0.0
C1293 C 0.41892 0.15418 0.61242 0.0
C1294 C 0.45346 0.15382 0.60219 0.0
C1295 C 0.46695 0.12557 0.58491 0.0
H1296 H 0.80482 0.3234 0.60601 0.0
H1297 H 0.79077 0.40437 0.67992 0.0
H1298 H 0.85035 0.3557 0.57812 0.0
H1299 H 0.83598 0.43669 0.65173 0.0
H1300 H 0.92191 0.43246 0.52561 0.0
H1301 H 0.86841 0.40712 0.54617 0.0
H1302 H 0.89823 0.42748 0.65062 0.0
H1303 H 0.9514 0.45266 0.63027 0.0
C1304 C 0.81069 0.34847 0.61576 0.0
C1305 C 0.79436 0.361 0.64558 0.0
C1306 C 0.83687 0.36701 0.59972 0.0
C1307 C 0.84731 0.39847 0.61313 0.0
C1308 C 0.8291 0.41217 0.64124 0.0
C1309 C 0.80293 0.39371 0.65723 0.0
C1310 C 0.9171 0.43143 0.55296 0.0
C1311 C 0.94128 0.44422 0.57626 0.0
C1312 C 0.88639 0.41695 0.56472 0.0
C1313 C 0.87894 0.41537 0.60003 0.0
C1314 C 0.90285 0.42872 0.62322 0.0
C1315 C 0.93358 0.44289 0.61152 0.0
H1316 H 0.22844 0.6869 0.64881 0.0
H1317 H 0.13571 0.71665 0.70271 0.0
H1318 H 0.19393 0.66162 0.60353 0.0
H1319 H 0.1014 0.69032 0.6585 0.0
H1320 H 0.12288 0.57211 0.57365 0.0
H1321 H 0.16105 0.6118 0.60105 0.0
H1322 H 0.08077 0.68808 0.60086 0.0
H1323 H 0.04183 0.6471 0.57399 0.0
C1324 C 0.20073 0.68788 0.65106 0.0
C1325 C 0.18481 0.70319 0.6796 0.0
C1326 C 0.18093 0.67357 0.62507 0.0
C1327 C 0.14484 0.6738 0.6274 0.0
C1328 C 0.12905 0.69017 0.65544 0.0
C1329 C 0.14879 0.70483 0.68113 0.0
C1330 C 0.11364 0.59765 0.57876 0.0
C1331 C 0.07936 0.60651 0.57246 0.0
C1332 C 0.13566 0.6206 0.59419 0.0
C1333 C 0.12388 0.65304 0.60369 0.0
C1334 C 0.09037 0.663 0.59443 0.0
C1335 C 0.06819 0.6398 0.57881 0.0
loop_
_geom_bond_atom_site_label_1
_geom_bond_atom_site_label_2
_geom_bond_distance
_geom_bond_site_symmetry_2
_ccdc_geom_bond_type
O0 Zn1 1.953 . S
O0 C16 1.225 . S
Zn1 O0 1.953 . S
Zn1 O2 1.949 . S
Zn1 O8 1.919 . S
Zn1 O13 1.924 . S
O2 Zn1 1.949 . S
O2 Zn3 1.923 . S
O2 Zn4 1.950 . S
O2 Zn5 1.945 . S
Zn3 O2 1.923 . S
Zn3 O6 1.933 . S
Zn3 O9 1.941 . S
Zn3 O10 1.965 . S
Zn4 O2 1.950 . S
Zn4 O11 1.938 . S
Zn4 O12 1.906 . S
Zn4 O22 1.953 . S
Zn5 O2 1.945 . S
Zn5 O7 1.932 . S
Zn5 O14 1.977 . S
Zn5 O15 1.910 . S
O6 Zn3 1.933 . S
O6 C17 1.226 . S
O7 Zn5 1.932 . S
O7 C17 1.307 . S
O8 Zn1 1.919 . S
O8 C19 1.253 . S
O9 Zn3 1.941 . S
O9 C19 1.283 . S
O10 Zn3 1.965 . S
O10 C18 1.303 . S
O11 Zn4 1.938 . S
O11 C18 1.247 . S
O12 Zn4 1.906 . S
O12 C20 1.304 . S
O13 Zn1 1.924 . S
O13 C21 1.311 . S
O14 Zn5 1.977 . S
O14 C20 1.272 . S
O15 Zn5 1.910 . S
O15 C21 1.231 . S
C16 O0 1.225 . S
C16 O22 1.298 . S
C17 O6 1.226 . S
C17 O7 1.307 . S
C18 O10 1.303 . S
C18 O11 1.247 . S
C19 O8 1.253 . S
C19 O9 1.283 . S
C20 O12 1.304 . S
C20 O14 1.272 . S
C21 O13 1.311 . S
C21 O15 1.231 . S
O22 Zn4 1.953 . S
O22 C16 1.298 . S
O23 Zn24 1.953 . S
O23 C39 1.225 . S
Zn24 O23 1.953 . S
Zn24 O25 1.949 . S
Zn24 O31 1.919 . S
Zn24 O36 1.924 . S
O25 Zn24 1.949 . S
O25 Zn26 1.923 . S
O25 Zn27 1.950 . S
O25 Zn28 1.945 . S
Zn26 O25 1.923 . S
Zn26 O29 1.933 . S
Zn26 O32 1.941 . S
Zn26 O33 1.965 . S
Zn27 O25 1.950 . S
Zn27 O34 1.938 . S
Zn27 O35 1.906 . S
Zn27 O45 1.953 . S
Zn28 O25 1.945 . S
Zn28 O30 1.932 . S
Zn28 O37 1.977 . S
Zn28 O38 1.910 . S
O29 Zn26 1.933 . S
O29 C40 1.226 . S
O30 Zn28 1.932 . S
O30 C40 1.307 . S
O31 Zn24 1.919 . S
O31 C42 1.253 . S
O32 Zn26 1.941 . S
O32 C42 1.283 . S
O33 Zn26 1.965 . S
O33 C41 1.303 . S
O34 Zn27 1.938 . S
O34 C41 1.247 . S
O35 Zn27 1.906 . S
O35 C43 1.304 . S
O36 Zn24 1.924 . S
O36 C44 1.311 . S
O37 Zn28 1.977 . S
O37 C43 1.272 . S
O38 Zn28 1.910 . S
O38 C44 1.231 . S
C39 O23 1.225 . S
C39 O45 1.298 . S
C40 O29 1.226 . S
C40 O30 1.307 . S
C41 O33 1.303 . S
C41 O34 1.247 . S
C42 O31 1.253 . S
C42 O32 1.283 . S
C43 O35 1.304 . S
C43 O37 1.272 . S
C44 O36 1.311 . S
C44 O38 1.231 . S
O45 Zn27 1.953 . S
O45 C39 1.298 . S
O46 Zn47 1.953 . S
O46 C62 1.225 . S
Zn47 O46 1.953 . S
Zn47 O48 1.949 . S
Zn47 O54 1.919 . S
Zn47 O59 1.924 . S
O48 Zn47 1.949 . S
O48 Zn49 1.923 . S
O48 Zn50 1.950 . S
O48 Zn51 1.945 . S
Zn49 O48 1.923 . S
Zn49 O52 1.933 . S
Zn49 O55 1.941 . S
Zn49 O56 1.965 . S
Zn50 O48 1.950 . S
Zn50 O57 1.938 . S
Zn50 O58 1.906 . S
Zn50 O68 1.953 . S
Zn51 O48 1.945 . S
Zn51 O53 1.932 . S
Zn51 O60 1.977 . S
Zn51 O61 1.910 . S
O52 Zn49 1.933 . S
O52 C63 1.226 . S
O53 Zn51 1.932 . S
O53 C63 1.307 . S
O54 Zn47 1.919 . S
O54 C65 1.253 . S
O55 Zn49 1.941 . S
O55 C65 1.283 . S
O56 Zn49 1.965 . S
O56 C64 1.303 . S
O57 Zn50 1.938 . S
O57 C64 1.247 . S
O58 Zn50 1.906 . S
O58 C66 1.304 . S
O59 Zn47 1.924 . S
O59 C67 1.311 . S
O60 Zn51 1.977 . S
O60 C66 1.272 . S
O61 Zn51 1.910 . S
O61 C67 1.231 . S
C62 O46 1.225 . S
C62 O68 1.298 . S
C63 O52 1.226 . S
C63 O53 1.307 . S
C64 O56 1.303 . S
C64 O57 1.247 . S
C65 O54 1.253 . S
C65 O55 1.283 . S
C66 O58 1.304 . S
C66 O60 1.272 . S
C67 O59 1.311 . S
C67 O61 1.231 . S
O68 Zn50 1.953 . S
O68 C62 1.298 . S
O69 Zn70 1.953 . S
O69 C85 1.225 . S
Zn70 O69 1.953 . S
Zn70 O71 1.949 . S
Zn70 O77 1.919 . S
Zn70 O82 1.924 . S
O71 Zn70 1.949 . S
O71 Zn72 1.923 . S
O71 Zn73 1.950 . S
O71 Zn74 1.945 . S
Zn72 O71 1.923 . S
Zn72 O75 1.933 . S
Zn72 O78 1.941 . S
Zn72 O79 1.965 . S
Zn73 O71 1.950 . S
Zn73 O80 1.938 . S
Zn73 O81 1.906 . S
Zn73 O91 1.953 . S
Zn74 O71 1.945 . S
Zn74 O76 1.932 . S
Zn74 O83 1.977 . S
Zn74 O84 1.910 . S
O75 Zn72 1.933 . S
O75 C86 1.226 . S
O76 Zn74 1.932 . S
O76 C86 1.307 . S
O77 Zn70 1.919 . S
O77 C88 1.253 . S
O78 Zn72 1.941 . S
O78 C88 1.283 . S
O79 Zn72 1.965 . S
O79 C87 1.303 . S
O80 Zn73 1.938 . S
O80 C87 1.247 . S
O81 Zn73 1.906 . S
O81 C89 1.304 . S
O82 Zn70 1.924 . S
O82 C90 1.311 . S
O83 Zn74 1.977 . S
O83 C89 1.272 . S
O84 Zn74 1.910 . S
O84 C90 1.231 . S
C85 O69 1.225 . S
C85 O91 1.298 . S
C86 O75 1.226 . S
C86 O76 1.307 . S
C87 O79 1.303 . S
C87 O80 1.247 . S
C88 O77 1.253 . S
C88 O78 1.283 . S
C89 O81 1.304 . S
C89 O83 1.272 . S
C90 O82 1.311 . S
C90 O84 1.231 . S
O91 Zn73 1.953 . S
O91 C85 1.298 . S
O92 Zn93 1.953 . S
O92 C108 1.225 . S
Zn93 O92 1.953 . S
Zn93 O94 1.949 . S
Zn93 O100 1.919 . S
Zn93 O105 1.924 . S
O94 Zn93 1.949 . S
O94 Zn95 1.923 . S
O94 Zn96 1.950 . S
O94 Zn97 1.945 . S
Zn95 O94 1.923 . S
Zn95 O98 1.933 . S
Zn95 O101 1.941 . S
Zn95 O102 1.965 . S
Zn96 O94 1.950 . S
Zn96 O103 1.938 . S
Zn96 O104 1.906 . S
Zn96 O114 1.953 . S
Zn97 O94 1.945 . S
Zn97 O99 1.932 . S
Zn97 O106 1.977 . S
Zn97 O107 1.910 . S
O98 Zn95 1.933 . S
O98 C109 1.226 . S
O99 Zn97 1.932 . S
O99 C109 1.307 . S
O100 Zn93 1.919 . S
O100 C111 1.253 . S
O101 Zn95 1.941 . S
O101 C111 1.283 . S
O102 Zn95 1.965 . S
O102 C110 1.303 . S
O103 Zn96 1.938 . S
O103 C110 1.247 . S
O104 Zn96 1.906 . S
O104 C112 1.304 . S
O105 Zn93 1.924 . S
O105 C113 1.311 . S
O106 Zn97 1.977 . S
O106 C112 1.272 . S
O107 Zn97 1.910 . S
O107 C113 1.231 . S
C108 O92 1.225 . S
C108 O114 1.298 . S
C109 O98 1.226 . S
C109 O99 1.307 . S
C110 O102 1.303 . S
C110 O103 1.247 . S
C111 O100 1.253 . S
C111 O101 1.283 . S
C112 O104 1.304 . S
C112 O106 1.272 . S
C113 O105 1.311 . S
C113 O107 1.231 . S
O114 Zn96 1.953 . S
O114 C108 1.298 . S
O115 Zn116 1.953 . S
O115 C131 1.225 . S
Zn116 O115 1.953 . S
Zn116 O117 1.949 . S
Zn116 O123 1.919 . S
Zn116 O128 1.924 . S
O117 Zn116 1.949 . S
O117 Zn118 1.923 . S
O117 Zn119 1.950 . S
O117 Zn120 1.945 . S
Zn118 O117 1.923 . S
Zn118 O121 1.933 . S
Zn118 O124 1.941 . S
Zn118 O125 1.965 . S
Zn119 O117 1.950 . S
Zn119 O126 1.938 . S
Zn119 O127 1.906 . S
Zn119 O137 1.953 . S
Zn120 O117 1.945 . S
Zn120 O122 1.932 . S
Zn120 O129 1.977 . S
Zn120 O130 1.910 . S
O121 Zn118 1.933 . S
O121 C132 1.226 . S
O122 Zn120 1.932 . S
O122 C132 1.307 . S
O123 Zn116 1.919 . S
O123 C134 1.253 . S
O124 Zn118 1.941 . S
O124 C134 1.283 . S
O125 Zn118 1.965 . S
O125 C133 1.303 . S
O126 Zn119 1.938 . S
O126 C133 1.247 . S
O127 Zn119 1.906 . S
O127 C135 1.304 . S
O128 Zn116 1.924 . S
O128 C136 1.311 . S
O129 Zn120 1.977 . S
O129 C135 1.272 . S
O130 Zn120 1.910 . S
O130 C136 1.231 . S
C131 O115 1.225 . S
C131 O137 1.298 . S
C132 O121 1.226 . S
C132 O122 1.307 . S
C133 O125 1.303 . S
C133 O126 1.247 . S
C134 O123 1.253 . S
C134 O124 1.283 . S
C135 O127 1.304 . S
C135 O129 1.272 . S
C136 O128 1.311 . S
C136 O130 1.231 . S
O137 Zn119 1.953 . S
O137 C131 1.298 . S
O138 Zn139 1.953 . S
O138 C154 1.225 . S
Zn139 O138 1.953 . S
Zn139 O140 1.949 . S
Zn139 O146 1.919 . S
Zn139 O151 1.924 . S
O140 Zn139 1.949 . S
O140 Zn141 1.923 . S
O140 Zn142 1.950 . S
O140 Zn143 1.945 . S
Zn141 O140 1.923 . S
Zn141 O144 1.933 . S
Zn141 O147 1.941 . S
Zn141 O148 1.965 . S
Zn142 O140 1.950 . S
Zn142 O149 1.938 . S
Zn142 O150 1.906 . S
Zn142 O160 1.953 . S
Zn143 O140 1.945 . S
Zn143 O145 1.932 . S
Zn143 O152 1.977 . S
Zn143 O153 1.910 . S
O144 Zn141 1.933 . S
O144 C155 1.226 . S
O145 Zn143 1.932 . S
O145 C155 1.307 . S
O146 Zn139 1.919 . S
O146 C157 1.253 . S
O147 Zn141 1.941 . S
O147 C157 1.283 . S
O148 Zn141 1.965 . S
O148 C156 1.303 . S
O149 Zn142 1.938 . S
O149 C156 1.247 . S
O150 Zn142 1.906 . S
O150 C158 1.304 . S
O151 Zn139 1.924 . S
O151 C159 1.311 . S
O152 Zn143 1.977 . S
O152 C158 1.272 . S
O153 Zn143 1.910 . S
O153 C159 1.231 . S
C154 O138 1.225 . S
C154 O160 1.298 . S
C155 O144 1.226 . S
C155 O145 1.307 . S
C156 O148 1.303 . S
C156 O149 1.247 . S
C157 O146 1.253 . S
C157 O147 1.283 . S
C158 O150 1.304 . S
C158 O152 1.272 . S
C159 O151 1.311 . S
C159 O153 1.231 . S
O160 Zn142 1.953 . S
O160 C154 1.298 . S
O161 Zn162 1.953 . S
O161 C177 1.225 . S
Zn162 O161 1.953 . S
Zn162 O163 1.949 . S
Zn162 O169 1.919 . S
Zn162 O174 1.924 . S
O163 Zn162 1.949 . S
O163 Zn164 1.923 . S
O163 Zn165 1.950 . S
O163 Zn166 1.945 . S
Zn164 O163 1.923 . S
Zn164 O167 1.933 . S
Zn164 O170 1.941 . S
Zn164 O171 1.965 . S
Zn165 O163 1.950 . S
Zn165 O172 1.938 . S
Zn165 O173 1.906 . S
Zn165 O183 1.953 . S
Zn166 O163 1.945 . S
Zn166 O168 1.932 . S
Zn166 O175 1.977 . S
Zn166 O176 1.910 . S
O167 Zn164 1.933 . S
O167 C178 1.226 . S
O168 Zn166 1.932 . S
O168 C178 1.307 . S
O169 Zn162 1.919 . S
O169 C180 1.253 . S
O170 Zn164 1.941 . S
O170 C180 1.283 . S
O171 Zn164 1.965 . S
O171 C179 1.303 . S
O172 Zn165 1.938 . S
O172 C179 1.247 . S
O173 Zn165 1.906 . S
O173 C181 1.304 . S
O174 Zn162 1.924 . S
O174 C182 1.311 . S
O175 Zn166 1.977 . S
O175 C181 1.272 . S
O176 Zn166 1.910 . S
O176 C182 1.231 . S
C177 O161 1.225 . S
C177 O183 1.298 . S
C178 O167 1.226 . S
C178 O168 1.307 . S
C179 O171 1.303 . S
C179 O172 1.247 . S
C180 O169 1.253 . S
C180 O170 1.283 . S
C181 O173 1.304 . S
C181 O175 1.272 . S
C182 O174 1.311 . S
C182 O176 1.231 . S
O183 Zn165 1.953 . S
O183 C177 1.298 . S
Fe184 O185 1.886 1_455 S
Fe184 O188 1.715 . S
Fe184 O193 2.077 1_455 S
Fe184 O198 1.935 . S
Fe184 O204 2.077 1_455 S
Fe184 O213 1.935 . S
O185 Fe184 1.886 1_655 S
O185 Fe187 1.715 . S
Fe186 O188 1.886 . S
Fe186 O189 1.715 1_545 S
Fe186 O196 1.935 1_545 S
Fe186 O197 2.077 . S
Fe186 O203 1.935 1_545 S
Fe186 O212 2.077 . S
Fe187 O185 1.715 . S
Fe187 O190 1.886 1_545 S
Fe187 O194 1.935 . S
Fe187 O199 2.077 1_545 S
Fe187 O205 1.935 . S
Fe187 O209 2.077 1_545 S
O188 Fe184 1.715 . S
O188 Fe186 1.886 . S
O189 Fe186 1.715 1_565 S
O189 Fe191 1.886 . S
O190 Fe187 1.886 1_565 S
O190 Fe191 1.715 1_655 S
Fe191 O189 1.886 . S
Fe191 O190 1.715 1_455 S
Fe191 O195 2.077 . S
Fe191 O200 1.935 1_455 S
Fe191 O202 2.077 . S
Fe191 O210 1.935 1_455 S
C192 O204 1.381 . S
C192 O205 1.421 . S
O193 Fe184 2.077 1_655 S
O193 C206 1.381 . S
O194 Fe187 1.935 . S
O194 C206 1.421 . S
O195 Fe191 2.077 . S
O195 C211 1.381 . S
O196 Fe186 1.935 1_565 S
O196 C211 1.421 . S
O197 Fe186 2.077 . S
O197 C201 1.381 . S
O198 Fe184 1.935 . S
O198 C201 1.421 . S
O199 Fe187 2.077 1_565 S
O199 C207 1.381 . S
O200 Fe191 1.935 1_655 S
O200 C207 1.421 . S
C201 O197 1.381 . S
C201 O198 1.421 . S
O202 Fe191 2.077 . S
O202 C214 1.381 . S
O203 Fe186 1.935 1_565 S
O203 C214 1.421 . S
O204 Fe184 2.077 1_655 S
O204 C192 1.381 . S
O205 Fe187 1.935 . S
O205 C192 1.421 . S
C206 O193 1.381 . S
C206 O194 1.421 . S
C207 O199 1.381 . S
C207 O200 1.421 . S
C208 O209 1.381 . S
C208 O210 1.421 . S
O209 Fe187 2.077 1_565 S
O209 C208 1.381 . S
O210 Fe191 1.935 1_655 S
O210 C208 1.421 . S
C211 O195 1.381 . S
C211 O196 1.421 . S
O212 Fe186 2.077 . S
O212 C215 1.381 . S
O213 Fe184 1.935 . S
O213 C215 1.421 . S
C214 O202 1.381 . S
C214 O203 1.421 . S
C215 O212 1.381 . S
C215 O213 1.421 . S
Fe216 O217 1.886 . S
Fe216 O220 1.715 . S
Fe216 O225 2.077 1_554 S
Fe216 O230 1.935 1_554 S
Fe216 O236 2.077 . S
Fe216 O245 1.935 . S
O217 Fe216 1.886 . S
O217 Fe219 1.715 1_565 S
Fe218 O220 1.886 1_545 S
Fe218 O221 1.715 . S
Fe218 O228 1.935 1_554 S
Fe218 O229 2.077 1_544 S
Fe218 O235 1.935 . S
Fe218 O244 2.077 1_545 S
Fe219 O217 1.715 1_545 S
Fe219 O222 1.886 . S
Fe219 O226 1.935 1_544 S
Fe219 O231 2.077 1_554 S
Fe219 O237 1.935 1_545 S
Fe219 O241 2.077 . S
O220 Fe216 1.715 . S
O220 Fe218 1.886 1_565 S
O221 Fe218 1.715 . S
O221 Fe223 1.886 . S
O222 Fe219 1.886 . S
O222 Fe223 1.715 . S
Fe223 O221 1.886 . S
Fe223 O222 1.715 . S
Fe223 O227 2.077 1_554 S
Fe223 O232 1.935 1_554 S
Fe223 O234 2.077 . S
Fe223 O242 1.935 . S
C224 O236 1.381 . S
C224 O237 1.421 . S
O225 Fe216 2.077 1_556 S
O225 C238 1.381 . S
O226 Fe219 1.935 1_566 S
O226 C238 1.421 . S
O227 Fe223 2.077 1_556 S
O227 C243 1.381 . S
O228 Fe218 1.935 1_556 S
O228 C243 1.421 . S
O229 Fe218 2.077 1_566 S
O229 C233 1.381 . S
O230 Fe216 1.935 1_556 S
O230 C233 1.421 . S
O231 Fe219 2.077 1_556 S
O231 C239 1.381 . S
O232 Fe223 1.935 1_556 S
O232 C239 1.421 . S
C233 O229 1.381 . S
C233 O230 1.421 . S
O234 Fe223 2.077 . S
O234 C246 1.381 . S
O235 Fe218 1.935 . S
O235 C246 1.421 . S
O236 Fe216 2.077 . S
O236 C224 1.381 . S
O237 Fe219 1.935 1_565 S
O237 C224 1.421 . S
C238 O225 1.381 . S
C238 O226 1.421 . S
C239 O231 1.381 . S
C239 O232 1.421 . S
C240 O241 1.381 . S
C240 O242 1.421 . S
O241 Fe219 2.077 . S
O241 C240 1.381 . S
O242 Fe223 1.935 . S
O242 C240 1.421 . S
C243 O227 1.381 . S
C243 O228 1.421 . S
O244 Fe218 2.077 1_565 S
O244 C247 1.381 . S
O245 Fe216 1.935 . S
O245 C247 1.421 . S
C246 O234 1.381 . S
C246 O235 1.421 . S
C247 O244 1.381 . S
C247 O245 1.421 . S
Fe248 O249 1.886 1_455 S
Fe248 O252 1.715 . S
Fe248 O257 2.077 1_454 S
Fe248 O262 1.935 1_554 S
Fe248 O268 2.077 1_455 S
Fe248 O277 1.935 . S
O249 Fe248 1.886 1_655 S
O249 Fe251 1.715 . S
Fe250 O252 1.886 . S
Fe250 O253 1.715 . S
Fe250 O260 1.935 1_554 S
Fe250 O261 2.077 1_554 S
Fe250 O267 1.935 . S
Fe250 O276 2.077 . S
Fe251 O249 1.715 . S
Fe251 O254 1.886 . S
Fe251 O258 1.935 1_554 S
Fe251 O263 2.077 1_554 S
Fe251 O269 1.935 . S
Fe251 O273 2.077 . S
O252 Fe248 1.715 . S
O252 Fe250 1.886 . S
O253 Fe250 1.715 . S
O253 Fe255 1.886 . S
O254 Fe251 1.886 . S
O254 Fe255 1.715 1_655 S
Fe255 O253 1.886 . S
Fe255 O254 1.715 1_455 S
Fe255 O259 2.077 1_554 S
Fe255 O264 1.935 1_454 S
Fe255 O266 2.077 . S
Fe255 O274 1.935 1_455 S
C256 O268 1.381 . S
C256 O269 1.421 . S
O257 Fe248 2.077 1_656 S
O257 C270 1.381 . S
O258 Fe251 1.935 1_556 S
O258 C270 1.421 . S
O259 Fe255 2.077 1_556 S
O259 C275 1.381 . S
O260 Fe250 1.935 1_556 S
O260 C275 1.421 . S
O261 Fe250 2.077 1_556 S
O261 C265 1.381 . S
O262 Fe248 1.935 1_556 S
O262 C265 1.421 . S
O263 Fe251 2.077 1_556 S
O263 C271 1.381 . S
O264 Fe255 1.935 1_656 S
O264 C271 1.421 . S
C265 O261 1.381 . S
C265 O262 1.421 . S
O266 Fe255 2.077 . S
O266 C278 1.381 . S
O267 Fe250 1.935 . S
O267 C278 1.421 . S
O268 Fe248 2.077 1_655 S
O268 C256 1.381 . S
O269 Fe251 1.935 . S
O269 C256 1.421 . S
C270 O257 1.381 . S
C270 O258 1.421 . S
C271 O263 1.381 . S
C271 O264 1.421 . S
C272 O273 1.381 . S
C272 O274 1.421 . S
O273 Fe251 2.077 . S
O273 C272 1.381 . S
O274 Fe255 1.935 1_655 S
O274 C272 1.421 . S
C275 O259 1.381 . S
C275 O260 1.421 . S
O276 Fe250 2.077 . S
O276 C279 1.381 . S
O277 Fe248 1.935 . S
O277 C279 1.421 . S
C278 O266 1.381 . S
C278 O267 1.421 . S
C279 O276 1.381 . S
C279 O277 1.421 . S
Fe280 O281 1.886 . S
Fe280 O284 1.715 . S
Fe280 O289 2.077 . S
Fe280 O294 1.935 . S
Fe280 O300 2.077 . S
Fe280 O309 1.935 . S
O281 Fe280 1.886 . S
O281 Fe283 1.715 1_556 S
Fe282 O284 1.886 1_554 S
Fe282 O285 1.715 . S
Fe282 O292 1.935 . S
Fe282 O293 2.077 1_554 S
Fe282 O299 1.935 . S
Fe282 O308 2.077 1_554 S
Fe283 O281 1.715 1_554 S
Fe283 O286 1.886 . S
Fe283 O290 1.935 1_554 S
Fe283 O295 2.077 . S
Fe283 O301 1.935 1_554 S
Fe283 O305 2.077 . S
O284 Fe280 1.715 . S
O284 Fe282 1.886 1_556 S
O285 Fe282 1.715 . S
O285 Fe287 1.886 . S
O286 Fe283 1.886 . S
O286 Fe287 1.715 . S
Fe287 O285 1.886 . S
Fe287 O286 1.715 . S
Fe287 O291 2.077 . S
Fe287 O296 1.935 . S
Fe287 O298 2.077 . S
Fe287 O306 1.935 . S
C288 O300 1.381 . S
C288 O301 1.421 . S
O289 Fe280 2.077 . S
O289 C302 1.381 . S
O290 Fe283 1.935 1_556 S
O290 C302 1.421 . S
O291 Fe287 2.077 . S
O291 C307 1.381 . S
O292 Fe282 1.935 . S
O292 C307 1.421 . S
O293 Fe282 2.077 1_556 S
O293 C297 1.381 . S
O294 Fe280 1.935 . S
O294 C297 1.421 . S
O295 Fe283 2.077 . S
O295 C303 1.381 . S
O296 Fe287 1.935 . S
O296 C303 1.421 . S
C297 O293 1.381 . S
C297 O294 1.421 . S
O298 Fe287 2.077 . S
O298 C310 1.381 . S
O299 Fe282 1.935 . S
O299 C310 1.421 . S
O300 Fe280 2.077 . S
O300 C288 1.381 . S
O301 Fe283 1.935 1_556 S
O301 C288 1.421 . S
C302 O289 1.381 . S
C302 O290 1.421 . S
C303 O295 1.381 . S
C303 O296 1.421 . S
C304 O305 1.381 . S
C304 O306 1.421 . S
O305 Fe283 2.077 . S
O305 C304 1.381 . S
O306 Fe287 1.935 . S
O306 C304 1.421 . S
C307 O291 1.381 . S
C307 O292 1.421 . S
O308 Fe282 2.077 1_556 S
O308 C311 1.381 . S
O309 Fe280 1.935 . S
O309 C311 1.421 . S
C310 O298 1.381 . S
C310 O299 1.421 . S
C311 O308 1.381 . S
C311 O309 1.421 . S
Fe312 O313 1.886 . S
Fe312 O316 1.715 . S
Fe312 O321 2.077 . S
Fe312 O326 1.935 . S
Fe312 O332 2.077 1_455 S
Fe312 O341 1.935 1_455 S
O313 Fe312 1.886 . S
O313 Fe315 1.715 . S
Fe314 O316 1.886 . S
Fe314 O317 1.715 . S
Fe314 O324 1.935 . S
Fe314 O325 2.077 . S
Fe314 O331 1.935 1_455 S
Fe314 O340 2.077 1_455 S
Fe315 O313 1.715 . S
Fe315 O318 1.886 . S
Fe315 O322 1.935 . S
Fe315 O327 2.077 . S
Fe315 O333 1.935 1_455 S
Fe315 O337 2.077 1_455 S
O316 Fe312 1.715 . S
O316 Fe314 1.886 . S
O317 Fe314 1.715 . S
O317 Fe319 1.886 . S
O318 Fe315 1.886 . S
O318 Fe319 1.715 . S
Fe319 O317 1.886 . S
Fe319 O318 1.715 . S
Fe319 O323 2.077 . S
Fe319 O328 1.935 . S
Fe319 O330 2.077 1_455 S
Fe319 O338 1.935 1_455 S
C320 O332 1.381 . S
C320 O333 1.421 . S
O321 Fe312 2.077 . S
O321 C334 1.381 . S
O322 Fe315 1.935 . S
O322 C334 1.421 . S
O323 Fe319 2.077 . S
O323 C339 1.381 . S
O324 Fe314 1.935 . S
O324 C339 1.421 . S
O325 Fe314 2.077 . S
O325 C329 1.381 . S
O326 Fe312 1.935 . S
O326 C329 1.421 . S
O327 Fe315 2.077 . S
O327 C335 1.381 . S
O328 Fe319 1.935 . S
O328 C335 1.421 . S
C329 O325 1.381 . S
C329 O326 1.421 . S
O330 Fe319 2.077 1_655 S
O330 C342 1.381 . S
O331 Fe314 1.935 1_655 S
O331 C342 1.421 . S
O332 Fe312 2.077 1_655 S
O332 C320 1.381 . S
O333 Fe315 1.935 1_655 S
O333 C320 1.421 . S
C334 O321 1.381 . S
C334 O322 1.421 . S
C335 O327 1.381 . S
C335 O328 1.421 . S
C336 O337 1.381 . S
C336 O338 1.421 . S
O337 Fe315 2.077 1_655 S
O337 C336 1.381 . S
O338 Fe319 1.935 1_655 S
O338 C336 1.421 . S
C339 O323 1.381 . S
C339 O324 1.421 . S
O340 Fe314 2.077 1_655 S
O340 C343 1.381 . S
O341 Fe312 1.935 1_655 S
O341 C343 1.421 . S
C342 O330 1.381 . S
C342 O331 1.421 . S
C343 O340 1.381 . S
C343 O341 1.421 . S
Fe344 O345 1.886 . S
Fe344 O348 1.715 . S
Fe344 O353 2.077 . S
Fe344 O358 1.935 . S
Fe344 O364 2.077 . S
Fe344 O373 1.935 . S
O345 Fe344 1.886 . S
O345 Fe347 1.715 1_565 S
Fe346 O348 1.886 1_545 S
Fe346 O349 1.715 . S
Fe346 O356 1.935 . S
Fe346 O357 2.077 1_545 S
Fe346 O363 1.935 . S
Fe346 O372 2.077 1_545 S
Fe347 O345 1.715 1_545 S
Fe347 O350 1.886 . S
Fe347 O354 1.935 1_545 S
Fe347 O359 2.077 . S
Fe347 O365 1.935 1_545 S
Fe347 O369 2.077 . S
O348 Fe344 1.715 . S
O348 Fe346 1.886 1_565 S
O349 Fe346 1.715 . S
O349 Fe351 1.886 . S
O350 Fe347 1.886 . S
O350 Fe351 1.715 . S
Fe351 O349 1.886 . S
Fe351 O350 1.715 . S
Fe351 O355 2.077 . S
Fe351 O360 1.935 . S
Fe351 O362 2.077 . S
Fe351 O370 1.935 . S
C352 O364 1.381 . S
C352 O365 1.421 . S
O353 Fe344 2.077 . S
O353 C366 1.381 . S
O354 Fe347 1.935 1_565 S
O354 C366 1.421 . S
O355 Fe351 2.077 . S
O355 C371 1.381 . S
O356 Fe346 1.935 . S
O356 C371 1.421 . S
O357 Fe346 2.077 1_565 S
O357 C361 1.381 . S
O358 Fe344 1.935 . S
O358 C361 1.421 . S
O359 Fe347 2.077 . S
O359 C367 1.381 . S
O360 Fe351 1.935 . S
O360 C367 1.421 . S
C361 O357 1.381 . S
C361 O358 1.421 . S
O362 Fe351 2.077 . S
O362 C374 1.381 . S
O363 Fe346 1.935 . S
O363 C374 1.421 . S
O364 Fe344 2.077 . S
O364 C352 1.381 . S
O365 Fe347 1.935 1_565 S
O365 C352 1.421 . S
C366 O353 1.381 . S
C366 O354 1.421 . S
C367 O359 1.381 . S
C367 O360 1.421 . S
C368 O369 1.381 . S
C368 O370 1.421 . S
O369 Fe347 2.077 . S
O369 C368 1.381 . S
O370 Fe351 1.935 . S
O370 C368 1.421 . S
C371 O355 1.381 . S
C371 O356 1.421 . S
O372 Fe346 2.077 1_565 S
O372 C375 1.381 . S
O373 Fe344 1.935 . S
O373 C375 1.421 . S
C374 O362 1.381 . S
C374 O363 1.421 . S
C375 O372 1.381 . S
C375 O373 1.421 . S
H376 C384 0.950 . S
H377 C389 0.950 . S
H378 C386 0.950 . S
H379 C388 0.950 . S
H380 C390 0.950 . S
H381 C392 0.950 . S
H382 C394 0.950 . S
H383 C395 0.950 . S
C384 H376 0.950 . S
C384 C385 1.386 . S
C384 C386 1.391 . S
C385 C384 1.386 . S
C385 C389 1.393 . S
C386 H378 0.950 . S
C386 C384 1.391 . S
C386 C387 1.400 . S
C387 C386 1.400 . S
C387 C388 1.398 . S
C387 C393 1.491 . S
C388 H379 0.950 . S
C388 C387 1.398 . S
C388 C389 1.391 . S
C389 H377 0.950 . S
C389 C385 1.393 . S
C389 C388 1.391 . S
C390 H380 0.950 . S
C390 C391 1.386 . S
C390 C392 1.391 . S
C391 C390 1.386 . S
C391 C395 1.393 . S
C392 H381 0.950 . S
C392 C390 1.391 . S
C392 C393 1.400 . S
C393 C387 1.491 . S
C393 C392 1.400 . S
C393 C394 1.398 . S
C394 H382 0.950 . S
C394 C393 1.398 . S
C394 C395 1.391 . S
C395 H383 0.950 . S
C395 C391 1.393 . S
C395 C394 1.391 . S
H396 C404 0.950 . S
H397 C409 0.950 . S
H398 C406 0.950 . S
H399 C408 0.950 . S
H400 C410 0.950 . S
H401 C412 0.950 . S
H402 C414 0.950 . S
H403 C415 0.950 . S
C404 H396 0.950 . S
C404 C405 1.386 . S
C404 C406 1.391 . S
C405 C404 1.386 . S
C405 C409 1.393 . S
C406 H398 0.950 . S
C406 C404 1.391 . S
C406 C407 1.400 . S
C407 C406 1.400 . S
C407 C408 1.398 . S
C407 C413 1.491 . S
C408 H399 0.950 . S
C408 C407 1.398 . S
C408 C409 1.391 . S
C409 H397 0.950 . S
C409 C405 1.393 . S
C409 C408 1.391 . S
C410 H400 0.950 . S
C410 C411 1.386 . S
C410 C412 1.391 . S
C411 C410 1.386 . S
C411 C415 1.393 . S
C412 H401 0.950 . S
C412 C410 1.391 . S
C412 C413 1.400 . S
C413 C407 1.491 . S
C413 C412 1.400 . S
C413 C414 1.398 . S
C414 H402 0.950 . S
C414 C413 1.398 . S
C414 C415 1.391 . S
C415 H403 0.950 . S
C415 C411 1.393 . S
C415 C414 1.391 . S
H416 C424 0.950 . S
H417 C429 0.950 . S
H418 C426 0.950 . S
H419 C428 0.950 . S
H420 C430 0.950 . S
H421 C432 0.950 . S
H422 C434 0.950 . S
H423 C435 0.950 . S
C424 H416 0.950 . S
C424 C425 1.386 . S
C424 C426 1.391 . S
C425 C424 1.386 . S
C425 C429 1.393 . S
C426 H418 0.950 . S
C426 C424 1.391 . S
C426 C427 1.400 . S
C427 C426 1.400 . S
C427 C428 1.398 . S
C427 C433 1.491 . S
C428 H419 0.950 . S
C428 C427 1.398 . S
C428 C429 1.391 . S
C429 H417 0.950 . S
C429 C425 1.393 . S
C429 C428 1.391 . S
C430 H420 0.950 . S
C430 C431 1.386 . S
C430 C432 1.391 . S
C431 C430 1.386 . S
C431 C435 1.393 . S
C432 H421 0.950 . S
C432 C430 1.391 . S
C432 C433 1.400 . S
C433 C427 1.491 . S
C433 C432 1.400 . S
C433 C434 1.398 . S
C434 H422 0.950 . S
C434 C433 1.398 . S
C434 C435 1.391 . S
C435 H423 0.950 . S
C435 C431 1.393 . S
C435 C434 1.391 . S
H436 C444 0.950 . S
H437 C449 0.950 . S
H438 C446 0.950 . S
H439 C448 0.950 . S
H440 C450 0.950 . S
H441 C452 0.950 . S
H442 C454 0.950 . S
H443 C455 0.950 . S
C444 H436 0.950 . S
C444 C445 1.386 . S
C444 C446 1.391 . S
C445 C444 1.386 . S
C445 C449 1.393 . S
C446 H438 0.950 . S
C446 C444 1.391 . S
C446 C447 1.400 . S
C447 C446 1.400 . S
C447 C448 1.398 . S
C447 C453 1.491 . S
C448 H439 0.950 . S
C448 C447 1.398 . S
C448 C449 1.391 . S
C449 H437 0.950 . S
C449 C445 1.393 . S
C449 C448 1.391 . S
C450 H440 0.950 . S
C450 C451 1.386 . S
C450 C452 1.391 . S
C451 C450 1.386 . S
C451 C455 1.393 . S
C452 H441 0.950 . S
C452 C450 1.391 . S
C452 C453 1.400 . S
C453 C447 1.491 . S
C453 C452 1.400 . S
C453 C454 1.398 . S
C454 H442 0.950 . S
C454 C453 1.398 . S
C454 C455 1.391 . S
C455 H443 0.950 . S
C455 C451 1.393 . S
C455 C454 1.391 . S
H456 C464 0.950 . S
H457 C469 0.950 . S
H458 C466 0.950 . S
H459 C468 0.950 . S
H460 C470 0.950 . S
H461 C472 0.950 . S
H462 C474 0.950 . S
H463 C475 0.950 . S
C464 H456 0.950 . S
C464 C465 1.386 . S
C464 C466 1.391 . S
C465 C464 1.386 . S
C465 C469 1.393 . S
C466 H458 0.950 . S
C466 C464 1.391 . S
C466 C467 1.400 . S
C467 C466 1.400 . S
C467 C468 1.398 . S
C467 C473 1.491 . S
C468 H459 0.950 . S
C468 C467 1.398 . S
C468 C469 1.391 . S
C469 H457 0.950 . S
C469 C465 1.393 . S
C469 C468 1.391 . S
C470 H460 0.950 . S
C470 C471 1.386 . S
C470 C472 1.391 . S
C471 C470 1.386 . S
C471 C475 1.393 . S
C472 H461 0.950 . S
C472 C470 1.391 . S
C472 C473 1.400 . S
C473 C467 1.491 . S
C473 C472 1.400 . S
C473 C474 1.398 . S
C474 H462 0.950 . S
C474 C473 1.398 . S
C474 C475 1.391 . S
C475 H463 0.950 . S
C475 C471 1.393 . S
C475 C474 1.391 . S
H476 C484 0.950 . S
H477 C489 0.950 . S
H478 C486 0.950 . S
H479 C488 0.950 . S
H480 C490 0.950 . S
H481 C492 0.950 . S
H482 C494 0.950 . S
H483 C495 0.950 . S
C484 H476 0.950 . S
C484 C485 1.386 . S
C484 C486 1.391 . S
C485 C484 1.386 . S
C485 C489 1.393 . S
C486 H478 0.950 . S
C486 C484 1.391 . S
C486 C487 1.400 . S
C487 C486 1.400 . S
C487 C488 1.398 . S
C487 C493 1.491 . S
C488 H479 0.950 . S
C488 C487 1.398 . S
C488 C489 1.391 . S
C489 H477 0.950 . S
C489 C485 1.393 . S
C489 C488 1.391 . S
C490 H480 0.950 . S
C490 C491 1.386 . S
C490 C492 1.391 . S
C491 C490 1.386 . S
C491 C495 1.393 . S
C492 H481 0.950 . S
C492 C490 1.391 . S
C492 C493 1.400 . S
C493 C487 1.491 . S
C493 C492 1.400 . S
C493 C494 1.398 . S
C494 H482 0.950 . S
C494 C493 1.398 . S
C494 C495 1.391 . S
C495 H483 0.950 . S
C495 C491 1.393 . S
C495 C494 1.391 . S
H496 C504 0.950 . S
H497 C509 0.950 . S
H498 C506 0.950 . S
H499 C508 0.950 . S
H500 C510 0.950 . S
H501 C512 0.950 . S
H502 C514 0.950 . S
H503 C515 0.950 . S
C504 H496 0.950 . S
C504 C505 1.386 . S
C504 C506 1.391 . S
C505 C504 1.386 . S
C505 C509 1.393 . S
C506 H498 0.950 . S
C506 C504 1.391 . S
C506 C507 1.400 . S
C507 C506 1.400 . S
C507 C508 1.398 . S
C507 C513 1.491 . S
C508 H499 0.950 . S
C508 C507 1.398 . S
C508 C509 1.391 . S
C509 H497 0.950 . S
C509 C505 1.393 . S
C509 C508 1.391 . S
C510 H500 0.950 . S
C510 C511 1.386 . S
C510 C512 1.391 . S
C511 C510 1.386 . S
C511 C515 1.393 . S
C512 H501 0.950 . S
C512 C510 1.391 . S
C512 C513 1.400 . S
C513 C507 1.491 . S
C513 C512 1.400 . S
C513 C514 1.398 . S
C514 H502 0.950 . S
C514 C513 1.398 . S
C514 C515 1.391 . S
C515 H503 0.950 . S
C515 C511 1.393 . S
C515 C514 1.391 . S
H516 C524 0.950 . S
H517 C529 0.950 . S
H518 C526 0.950 . S
H519 C528 0.950 . S
H520 C530 0.950 . S
H521 C532 0.950 . S
H522 C534 0.950 . S
H523 C535 0.950 . S
C524 H516 0.950 . S
C524 C525 1.386 . S
C524 C526 1.391 . S
C525 C524 1.386 . S
C525 C529 1.393 . S
C526 H518 0.950 . S
C526 C524 1.391 . S
C526 C527 1.400 . S
C527 C526 1.400 . S
C527 C528 1.398 . S
C527 C533 1.491 . S
C528 H519 0.950 . S
C528 C527 1.398 . S
C528 C529 1.391 . S
C529 H517 0.950 . S
C529 C525 1.393 . S
C529 C528 1.391 . S
C530 H520 0.950 . S
C530 C531 1.386 . S
C530 C532 1.391 . S
C531 C530 1.386 . S
C531 C535 1.393 . S
C532 H521 0.950 . S
C532 C530 1.391 . S
C532 C533 1.400 . S
C533 C527 1.491 . S
C533 C532 1.400 . S
C533 C534 1.398 . S
C534 H522 0.950 . S
C534 C533 1.398 . S
C534 C535 1.391 . S
C535 H523 0.950 . S
C535 C531 1.393 . S
C535 C534 1.391 . S
H536 C544 0.950 . S
H537 C549 0.950 . S
H538 C546 0.950 . S
H539 C548 0.950 . S
H540 C550 0.950 . S
H541 C552 0.950 . S
H542 C554 0.950 . S
H543 C555 0.950 . S
C544 H536 0.950 . S
C544 C545 1.386 . S
C544 C546 1.391 . S
C545 C544 1.386 . S
C545 C549 1.393 . S
C546 H538 0.950 . S
C546 C544 1.391 . S
C546 C547 1.400 . S
C547 C546 1.400 . S
C547 C548 1.398 . S
C547 C553 1.491 . S
C548 H539 0.950 . S
C548 C547 1.398 . S
C548 C549 1.391 . S
C549 H537 0.950 . S
C549 C545 1.393 . S
C549 C548 1.391 . S
C550 H540 0.950 . S
C550 C551 1.386 . S
C550 C552 1.391 . S
C551 C550 1.386 . S
C551 C555 1.393 . S
C552 H541 0.950 . S
C552 C550 1.391 . S
C552 C553 1.400 . S
C553 C547 1.491 . S
C553 C552 1.400 . S
C553 C554 1.398 . S
C554 H542 0.950 . S
C554 C553 1.398 . S
C554 C555 1.391 . S
C555 H543 0.950 . S
C555 C551 1.393 . S
C555 C554 1.391 . S
H556 C564 0.950 . S
H557 C569 0.950 . S
H558 C566 0.950 . S
H559 C568 0.950 . S
H560 C570 0.950 . S
H561 C572 0.950 . S
H562 C574 0.950 . S
H563 C575 0.950 . S
C564 H556 0.950 . S
C564 C565 1.386 . S
C564 C566 1.391 . S
C565 C564 1.386 . S
C565 C569 1.393 . S
C566 H558 0.950 . S
C566 C564 1.391 . S
C566 C567 1.400 . S
C567 C566 1.400 . S
C567 C568 1.398 . S
C567 C573 1.491 . S
C568 H559 0.950 . S
C568 C567 1.398 . S
C568 C569 1.391 . S
C569 H557 0.950 . S
C569 C565 1.393 . S
C569 C568 1.391 . S
C570 H560 0.950 . S
C570 C571 1.386 . S
C570 C572 1.391 . S
C571 C570 1.386 . S
C571 C575 1.393 . S
C572 H561 0.950 . S
C572 C570 1.391 . S
C572 C573 1.400 . S
C573 C567 1.491 . S
C573 C572 1.400 . S
C573 C574 1.398 . S
C574 H562 0.950 . S
C574 C573 1.398 . S
C574 C575 1.391 . S
C575 H563 0.950 . S
C575 C571 1.393 . S
C575 C574 1.391 . S
H576 C584 0.950 . S
H577 C589 0.950 . S
H578 C586 0.950 . S
H579 C588 0.950 . S
H580 C590 0.950 . S
H581 C592 0.950 . S
H582 C594 0.950 . S
H583 C595 0.950 . S
C584 H576 0.950 . S
C584 C585 1.386 . S
C584 C586 1.391 . S
C585 C584 1.386 . S
C585 C589 1.393 . S
C586 H578 0.950 . S
C586 C584 1.391 . S
C586 C587 1.400 . S
C587 C586 1.400 . S
C587 C588 1.398 . S
C587 C593 1.491 . S
C588 H579 0.950 . S
C588 C587 1.398 . S
C588 C589 1.391 . S
C589 H577 0.950 . S
C589 C585 1.393 . S
C589 C588 1.391 . S
C590 H580 0.950 . S
C590 C591 1.386 . S
C590 C592 1.391 . S
C591 C590 1.386 . S
C591 C595 1.393 . S
C592 H581 0.950 . S
C592 C590 1.391 . S
C592 C593 1.400 . S
C593 C587 1.491 . S
C593 C592 1.400 . S
C593 C594 1.398 . S
C594 H582 0.950 . S
C594 C593 1.398 . S
C594 C595 1.391 . S
C595 H583 0.950 . S
C595 C591 1.393 . S
C595 C594 1.391 . S
H596 C604 0.950 . S
H597 C609 0.950 . S
H598 C606 0.950 . S
H599 C608 0.950 . S
H600 C610 0.950 . S
H601 C612 0.950 . S
H602 C614 0.950 . S
H603 C615 0.950 . S
C604 H596 0.950 . S
C604 C605 1.386 . S
C604 C606 1.391 . S
C605 C604 1.386 . S
C605 C609 1.393 . S
C606 H598 0.950 . S
C606 C604 1.391 . S
C606 C607 1.400 . S
C607 C606 1.400 . S
C607 C608 1.398 . S
C607 C613 1.491 . S
C608 H599 0.950 . S
C608 C607 1.398 . S
C608 C609 1.391 . S
C609 H597 0.950 . S
C609 C605 1.393 . S
C609 C608 1.391 . S
C610 H600 0.950 . S
C610 C611 1.386 . S
C610 C612 1.391 . S
C611 C610 1.386 . S
C611 C615 1.393 . S
C612 H601 0.950 . S
C612 C610 1.391 . S
C612 C613 1.400 . S
C613 C607 1.491 . S
C613 C612 1.400 . S
C613 C614 1.398 . S
C614 H602 0.950 . S
C614 C613 1.398 . S
C614 C615 1.391 . S
C615 H603 0.950 . S
C615 C611 1.393 . S
C615 C614 1.391 . S
H616 C624 0.950 . S
H617 C629 0.950 . S
H618 C626 0.950 . S
H619 C628 0.950 . S
H620 C630 0.950 . S
H621 C632 0.950 . S
H622 C634 0.950 . S
H623 C635 0.950 . S
C624 H616 0.950 . S
C624 C625 1.386 . S
C624 C626 1.391 . S
C625 C624 1.386 . S
C625 C629 1.393 . S
C626 H618 0.950 . S
C626 C624 1.391 . S
C626 C627 1.400 . S
C627 C626 1.400 . S
C627 C628 1.398 . S
C627 C633 1.491 . S
C628 H619 0.950 . S
C628 C627 1.398 . S
C628 C629 1.391 . S
C629 H617 0.950 . S
C629 C625 1.393 . S
C629 C628 1.391 . S
C630 H620 0.950 . S
C630 C631 1.386 . S
C630 C632 1.391 . S
C631 C630 1.386 . S
C631 C635 1.393 . S
C632 H621 0.950 . S
C632 C630 1.391 . S
C632 C633 1.400 . S
C633 C627 1.491 . S
C633 C632 1.400 . S
C633 C634 1.398 . S
C634 H622 0.950 . S
C634 C633 1.398 . S
C634 C635 1.391 . S
C635 H623 0.950 . S
C635 C631 1.393 . S
C635 C634 1.391 . S
H636 C644 0.950 . S
H637 C649 0.950 . S
H638 C646 0.950 . S
H639 C648 0.950 . S
H640 C650 0.950 . S
H641 C652 0.950 . S
H642 C654 0.950 . S
H643 C655 0.950 . S
C644 H636 0.950 . S
C644 C645 1.386 . S
C644 C646 1.391 . S
C645 C644 1.386 . S
C645 C649 1.393 . S
C646 H638 0.950 . S
C646 C644 1.391 . S
C646 C647 1.400 . S
C647 C646 1.400 . S
C647 C648 1.398 . S
C647 C653 1.491 . S
C648 H639 0.950 . S
C648 C647 1.398 . S
C648 C649 1.391 . S
C649 H637 0.950 . S
C649 C645 1.393 . S
C649 C648 1.391 . S
C650 H640 0.950 . S
C650 C651 1.386 . S
C650 C652 1.391 . S
C651 C650 1.386 . S
C651 C655 1.393 . S
C652 H641 0.950 . S
C652 C650 1.391 . S
C652 C653 1.400 . S
C653 C647 1.491 . S
C653 C652 1.400 . S
C653 C654 1.398 . S
C654 H642 0.950 . S
C654 C653 1.398 . S
C654 C655 1.391 . S
C655 H643 0.950 . S
C655 C651 1.393 . S
C655 C654 1.391 . S
H656 C664 0.950 . S
H657 C669 0.950 . S
H658 C666 0.950 . S
H659 C668 0.950 . S
H660 C670 0.950 . S
H661 C672 0.950 . S
H662 C674 0.950 . S
H663 C675 0.950 . S
C664 H656 0.950 . S
C664 C665 1.386 . S
C664 C666 1.391 . S
C665 C664 1.386 . S
C665 C669 1.393 . S
C666 H658 0.950 . S
C666 C664 1.391 . S
C666 C667 1.400 . S
C667 C666 1.400 . S
C667 C668 1.398 . S
C667 C673 1.491 . S
C668 H659 0.950 . S
C668 C667 1.398 . S
C668 C669 1.391 . S
C669 H657 0.950 . S
C669 C665 1.393 . S
C669 C668 1.391 . S
C670 H660 0.950 . S
C670 C671 1.386 . S
C670 C672 1.391 . S
C671 C670 1.386 . S
C671 C675 1.393 . S
C672 H661 0.950 . S
C672 C670 1.391 . S
C672 C673 1.400 . S
C673 C667 1.491 . S
C673 C672 1.400 . S
C673 C674 1.398 . S
C674 H662 0.950 . S
C674 C673 1.398 . S
C674 C675 1.391 . S
C675 H663 0.950 . S
C675 C671 1.393 . S
C675 C674 1.391 . S
H676 C684 0.950 . S
H677 C689 0.950 . S
H678 C686 0.950 . S
H679 C688 0.950 . S
H680 C690 0.950 . S
H681 C692 0.950 . S
H682 C694 0.950 . S
H683 C695 0.950 . S
C684 H676 0.950 . S
C684 C685 1.386 . S
C684 C686 1.391 . S
C685 C684 1.386 . S
C685 C689 1.393 . S
C686 H678 0.950 . S
C686 C684 1.391 . S
C686 C687 1.400 . S
C687 C686 1.400 . S
C687 C688 1.398 . S
C687 C693 1.491 . S
C688 H679 0.950 . S
C688 C687 1.398 . S
C688 C689 1.391 . S
C689 H677 0.950 . S
C689 C685 1.393 . S
C689 C688 1.391 . S
C690 H680 0.950 . S
C690 C691 1.386 . S
C690 C692 1.391 . S
C691 C690 1.386 . S
C691 C695 1.393 . S
C692 H681 0.950 . S
C692 C690 1.391 . S
C692 C693 1.400 . S
C693 C687 1.491 . S
C693 C692 1.400 . S
C693 C694 1.398 . S
C694 H682 0.950 . S
C694 C693 1.398 . S
C694 C695 1.391 . S
C695 H683 0.950 . S
C695 C691 1.393 . S
C695 C694 1.391 . S
H696 C704 0.950 . S
H697 C709 0.950 . S
H698 C706 0.950 . S
H699 C708 0.950 . S
H700 C710 0.950 . S
H701 C712 0.950 . S
H702 C714 0.950 . S
H703 C715 0.950 . S
C704 H696 0.950 . S
C704 C705 1.386 . S
C704 C706 1.391 . S
C705 C704 1.386 . S
C705 C709 1.393 . S
C706 H698 0.950 . S
C706 C704 1.391 . S
C706 C707 1.400 . S
C707 C706 1.400 . S
C707 C708 1.398 . S
C707 C713 1.491 . S
C708 H699 0.950 . S
C708 C707 1.398 . S
C708 C709 1.391 . S
C709 H697 0.950 . S
C709 C705 1.393 . S
C709 C708 1.391 . S
C710 H700 0.950 . S
C710 C711 1.386 . S
C710 C712 1.391 . S
C711 C710 1.386 . S
C711 C715 1.393 . S
C712 H701 0.950 . S
C712 C710 1.391 . S
C712 C713 1.400 . S
C713 C707 1.491 . S
C713 C712 1.400 . S
C713 C714 1.398 . S
C714 H702 0.950 . S
C714 C713 1.398 . S
C714 C715 1.391 . S
C715 H703 0.950 . S
C715 C711 1.393 . S
C715 C714 1.391 . S
H716 C724 0.950 . S
H717 C729 0.950 . S
H718 C726 0.950 . S
H719 C728 0.950 . S
H720 C730 0.950 . S
H721 C732 0.950 . S
H722 C734 0.950 . S
H723 C735 0.950 . S
C724 H716 0.950 . S
C724 C725 1.386 . S
C724 C726 1.391 . S
C725 C724 1.386 . S
C725 C729 1.393 . S
C726 H718 0.950 . S
C726 C724 1.391 . S
C726 C727 1.400 . S
C727 C726 1.400 . S
C727 C728 1.398 . S
C727 C733 1.491 . S
C728 H719 0.950 . S
C728 C727 1.398 . S
C728 C729 1.391 . S
C729 H717 0.950 . S
C729 C725 1.393 . S
C729 C728 1.391 . S
C730 H720 0.950 . S
C730 C731 1.386 . S
C730 C732 1.391 . S
C731 C730 1.386 . S
C731 C735 1.393 . S
C732 H721 0.950 . S
C732 C730 1.391 . S
C732 C733 1.400 . S
C733 C727 1.491 . S
C733 C732 1.400 . S
C733 C734 1.398 . S
C734 H722 0.950 . S
C734 C733 1.398 . S
C734 C735 1.391 . S
C735 H723 0.950 . S
C735 C731 1.393 . S
C735 C734 1.391 . S
H736 C744 0.950 . S
H737 C749 0.950 . S
H738 C746 0.950 . S
H739 C748 0.950 . S
H740 C750 0.950 . S
H741 C752 0.950 . S
H742 C754 0.950 . S
H743 C755 0.950 . S
C744 H736 0.950 . S
C744 C745 1.386 . S
C744 C746 1.391 . S
C745 C744 1.386 . S
C745 C749 1.393 . S
C746 H738 0.950 . S
C746 C744 1.391 . S
C746 C747 1.400 . S
C747 C746 1.400 . S
C747 C748 1.398 . S
C747 C753 1.491 . S
C748 H739 0.950 . S
C748 C747 1.398 . S
C748 C749 1.391 . S
C749 H737 0.950 . S
C749 C745 1.393 . S
C749 C748 1.391 . S
C750 H740 0.950 . S
C750 C751 1.386 . S
C750 C752 1.391 . S
C751 C750 1.386 . S
C751 C755 1.393 . S
C752 H741 0.950 . S
C752 C750 1.391 . S
C752 C753 1.400 . S
C753 C747 1.491 . S
C753 C752 1.400 . S
C753 C754 1.398 . S
C754 H742 0.950 . S
C754 C753 1.398 . S
C754 C755 1.391 . S
C755 H743 0.950 . S
C755 C751 1.393 . S
C755 C754 1.391 . S
H756 C764 0.950 . S
H757 C769 0.950 . S
H758 C766 0.950 . S
H759 C768 0.950 . S
H760 C770 0.950 . S
H761 C772 0.950 . S
H762 C774 0.950 . S
H763 C775 0.950 . S
C764 H756 0.950 . S
C764 C765 1.386 . S
C764 C766 1.391 . S
C765 C764 1.386 . S
C765 C769 1.393 . S
C766 H758 0.950 . S
C766 C764 1.391 . S
C766 C767 1.400 . S
C767 C766 1.400 . S
C767 C768 1.398 . S
C767 C773 1.491 . S
C768 H759 0.950 . S
C768 C767 1.398 . S
C768 C769 1.391 . S
C769 H757 0.950 . S
C769 C765 1.393 . S
C769 C768 1.391 . S
C770 H760 0.950 . S
C770 C771 1.386 . S
C770 C772 1.391 . S
C771 C770 1.386 . S
C771 C775 1.393 . S
C772 H761 0.950 . S
C772 C770 1.391 . S
C772 C773 1.400 . S
C773 C767 1.491 . S
C773 C772 1.400 . S
C773 C774 1.398 . S
C774 H762 0.950 . S
C774 C773 1.398 . S
C774 C775 1.391 . S
C775 H763 0.950 . S
C775 C771 1.393 . S
C775 C774 1.391 . S
H776 C784 0.950 . S
H777 C789 0.950 . S
H778 C786 0.950 . S
H779 C788 0.950 . S
H780 C790 0.950 . S
H781 C792 0.950 . S
H782 C794 0.950 . S
H783 C795 0.950 . S
C784 H776 0.950 . S
C784 C785 1.386 . S
C784 C786 1.391 . S
C785 C784 1.386 . S
C785 C789 1.393 . S
C786 H778 0.950 . S
C786 C784 1.391 . S
C786 C787 1.400 . S
C787 C786 1.400 . S
C787 C788 1.398 . S
C787 C793 1.491 . S
C788 H779 0.950 . S
C788 C787 1.398 . S
C788 C789 1.391 . S
C789 H777 0.950 . S
C789 C785 1.393 . S
C789 C788 1.391 . S
C790 H780 0.950 . S
C790 C791 1.386 . S
C790 C792 1.391 . S
C791 C790 1.386 . S
C791 C795 1.393 . S
C792 H781 0.950 . S
C792 C790 1.391 . S
C792 C793 1.400 . S
C793 C787 1.491 . S
C793 C792 1.400 . S
C793 C794 1.398 . S
C794 H782 0.950 . S
C794 C793 1.398 . S
C794 C795 1.391 . S
C795 H783 0.950 . S
C795 C791 1.393 . S
C795 C794 1.391 . S
H796 C804 0.950 . S
H797 C809 0.950 . S
H798 C806 0.950 . S
H799 C808 0.950 . S
H800 C810 0.950 . S
H801 C812 0.950 . S
H802 C814 0.950 . S
H803 C815 0.950 . S
C804 H796 0.950 . S
C804 C805 1.386 . S
C804 C806 1.391 . S
C805 C804 1.386 . S
C805 C809 1.393 . S
C806 H798 0.950 . S
C806 C804 1.391 . S
C806 C807 1.400 . S
C807 C806 1.400 . S
C807 C808 1.398 . S
C807 C813 1.491 . S
C808 H799 0.950 . S
C808 C807 1.398 . S
C808 C809 1.391 . S
C809 H797 0.950 . S
C809 C805 1.393 . S
C809 C808 1.391 . S
C810 H800 0.950 . S
C810 C811 1.386 . S
C810 C812 1.391 . S
C811 C810 1.386 . S
C811 C815 1.393 . S
C812 H801 0.950 . S
C812 C810 1.391 . S
C812 C813 1.400 . S
C813 C807 1.491 . S
C813 C812 1.400 . S
C813 C814 1.398 . S
C814 H802 0.950 . S
C814 C813 1.398 . S
C814 C815 1.391 . S
C815 H803 0.950 . S
C815 C811 1.393 . S
C815 C814 1.391 . S
H816 C824 0.950 . S
H817 C829 0.950 . S
H818 C826 0.950 . S
H819 C828 0.950 . S
H820 C830 0.950 . S
H821 C832 0.950 . S
H822 C834 0.950 . S
H823 C835 0.950 . S
C824 H816 0.950 . S
C824 C825 1.386 . S
C824 C826 1.391 . S
C825 C824 1.386 . S
C825 C829 1.393 . S
C826 H818 0.950 . S
C826 C824 1.391 . S
C826 C827 1.400 . S
C827 C826 1.400 . S
C827 C828 1.398 . S
C827 C833 1.491 . S
C828 H819 0.950 . S
C828 C827 1.398 . S
C828 C829 1.391 . S
C829 H817 0.950 . S
C829 C825 1.393 . S
C829 C828 1.391 . S
C830 H820 0.950 . S
C830 C831 1.386 . S
C830 C832 1.391 . S
C831 C830 1.386 . S
C831 C835 1.393 . S
C832 H821 0.950 . S
C832 C830 1.391 . S
C832 C833 1.400 . S
C833 C827 1.491 . S
C833 C832 1.400 . S
C833 C834 1.398 . S
C834 H822 0.950 . S
C834 C833 1.398 . S
C834 C835 1.391 . S
C835 H823 0.950 . S
C835 C831 1.393 . S
C835 C834 1.391 . S
H836 C844 0.950 . S
H837 C849 0.950 . S
H838 C846 0.950 . S
H839 C848 0.950 . S
H840 C850 0.950 . S
H841 C852 0.950 . S
H842 C854 0.950 . S
H843 C855 0.950 . S
C844 H836 0.950 . S
C844 C845 1.386 . S
C844 C846 1.391 . S
C845 C844 1.386 . S
C845 C849 1.393 . S
C846 H838 0.950 . S
C846 C844 1.391 . S
C846 C847 1.400 . S
C847 C846 1.400 . S
C847 C848 1.398 . S
C847 C853 1.491 . S
C848 H839 0.950 . S
C848 C847 1.398 . S
C848 C849 1.391 . S
C849 H837 0.950 . S
C849 C845 1.393 . S
C849 C848 1.391 . S
C850 H840 0.950 . S
C850 C851 1.386 . S
C850 C852 1.391 . S
C851 C850 1.386 . S
C851 C855 1.393 . S
C852 H841 0.950 . S
C852 C850 1.391 . S
C852 C853 1.400 . S
C853 C847 1.491 . S
C853 C852 1.400 . S
C853 C854 1.398 . S
C854 H842 0.950 . S
C854 C853 1.398 . S
C854 C855 1.391 . S
C855 H843 0.950 . S
C855 C851 1.393 . S
C855 C854 1.391 . S
H856 C864 0.950 . S
H857 C869 0.950 . S
H858 C866 0.950 . S
H859 C868 0.950 . S
H860 C870 0.950 . S
H861 C872 0.950 . S
H862 C874 0.950 . S
H863 C875 0.950 . S
C864 H856 0.950 . S
C864 C865 1.386 . S
C864 C866 1.391 . S
C865 C864 1.386 . S
C865 C869 1.393 . S
C866 H858 0.950 . S
C866 C864 1.391 . S
C866 C867 1.400 . S
C867 C866 1.400 . S
C867 C868 1.398 . S
C867 C873 1.491 . S
C868 H859 0.950 . S
C868 C867 1.398 . S
C868 C869 1.391 . S
C869 H857 0.950 . S
C869 C865 1.393 . S
C869 C868 1.391 . S
C870 H860 0.950 . S
C870 C871 1.386 . S
C870 C872 1.391 . S
C871 C870 1.386 . S
C871 C875 1.393 . S
C872 H861 0.950 . S
C872 C870 1.391 . S
C872 C873 1.400 . S
C873 C867 1.491 . S
C873 C872 1.400 . S
C873 C874 1.398 . S
C874 H862 0.950 . S
C874 C873 1.398 . S
C874 C875 1.391 . S
C875 H863 0.950 . S
C875 C871 1.393 . S
C875 C874 1.391 . S
H876 C884 0.950 . S
H877 C889 0.950 . S
H878 C886 0.950 . S
H879 C888 0.950 . S
H880 C890 0.950 . S
H881 C892 0.950 . S
H882 C894 0.950 . S
H883 C895 0.950 . S
C884 H876 0.950 . S
C884 C885 1.386 . S
C884 C886 1.391 . S
C885 C884 1.386 . S
C885 C889 1.393 . S
C886 H878 0.950 . S
C886 C884 1.391 . S
C886 C887 1.400 . S
C887 C886 1.400 . S
C887 C888 1.398 . S
C887 C893 1.491 . S
C888 H879 0.950 . S
C888 C887 1.398 . S
C888 C889 1.391 . S
C889 H877 0.950 . S
C889 C885 1.393 . S
C889 C888 1.391 . S
C890 H880 0.950 . S
C890 C891 1.386 . S
C890 C892 1.391 . S
C891 C890 1.386 . S
C891 C895 1.393 . S
C892 H881 0.950 . S
C892 C890 1.391 . S
C892 C893 1.400 . S
C893 C887 1.491 . S
C893 C892 1.400 . S
C893 C894 1.398 . S
C894 H882 0.950 . S
C894 C893 1.398 . S
C894 C895 1.391 . S
C895 H883 0.950 . S
C895 C891 1.393 . S
C895 C894 1.391 . S
H896 C904 0.950 . S
H897 C909 0.950 . S
H898 C906 0.950 . S
H899 C908 0.950 . S
H900 C910 0.950 . S
H901 C912 0.950 . S
H902 C914 0.950 . S
H903 C915 0.950 . S
C904 H896 0.950 . S
C904 C905 1.386 . S
C904 C906 1.391 . S
C905 C904 1.386 . S
C905 C909 1.393 . S
C906 H898 0.950 . S
C906 C904 1.391 . S
C906 C907 1.400 . S
C907 C906 1.400 . S
C907 C908 1.398 . S
C907 C913 1.491 . S
C908 H899 0.950 . S
C908 C907 1.398 . S
C908 C909 1.391 . S
C909 H897 0.950 . S
C909 C905 1.393 . S
C909 C908 1.391 . S
C910 H900 0.950 . S
C910 C911 1.386 . S
C910 C912 1.391 . S
C911 C910 1.386 . S
C911 C915 1.393 . S
C912 H901 0.950 . S
C912 C910 1.391 . S
C912 C913 1.400 . S
C913 C907 1.491 . S
C913 C912 1.400 . S
C913 C914 1.398 . S
C914 H902 0.950 . S
C914 C913 1.398 . S
C914 C915 1.391 . S
C915 H903 0.950 . S
C915 C911 1.393 . S
C915 C914 1.391 . S
H916 C924 0.950 . S
H917 C929 0.950 . S
H918 C926 0.950 . S
H919 C928 0.950 . S
H920 C930 0.950 . S
H921 C932 0.950 . S
H922 C934 0.950 . S
H923 C935 0.950 . S
C924 H916 0.950 . S
C924 C925 1.386 . S
C924 C926 1.391 . S
C925 C924 1.386 . S
C925 C929 1.393 . S
C926 H918 0.950 . S
C926 C924 1.391 . S
C926 C927 1.400 . S
C927 C926 1.400 . S
C927 C928 1.398 . S
C927 C933 1.491 . S
C928 H919 0.950 . S
C928 C927 1.398 . S
C928 C929 1.391 . S
C929 H917 0.950 . S
C929 C925 1.393 . S
C929 C928 1.391 . S
C930 H920 0.950 . S
C930 C931 1.386 . S
C930 C932 1.391 . S
C931 C930 1.386 . S
C931 C935 1.393 . S
C932 H921 0.950 . S
C932 C930 1.391 . S
C932 C933 1.400 . S
C933 C927 1.491 . S
C933 C932 1.400 . S
C933 C934 1.398 . S
C934 H922 0.950 . S
C934 C933 1.398 . S
C934 C935 1.391 . S
C935 H923 0.950 . S
C935 C931 1.393 . S
C935 C934 1.391 . S
H936 C944 0.950 . S
H937 C949 0.950 . S
H938 C946 0.950 . S
H939 C948 0.950 . S
H940 C950 0.950 . S
H941 C952 0.950 . S
H942 C954 0.950 . S
H943 C955 0.950 . S
C944 H936 0.950 . S
C944 C945 1.386 . S
C944 C946 1.391 . S
C945 C944 1.386 . S
C945 C949 1.393 . S
C946 H938 0.950 . S
C946 C944 1.391 . S
C946 C947 1.400 . S
C947 C946 1.400 . S
C947 C948 1.398 . S
C947 C953 1.491 . S
C948 H939 0.950 . S
C948 C947 1.398 . S
C948 C949 1.391 . S
C949 H937 0.950 . S
C949 C945 1.393 . S
C949 C948 1.391 . S
C950 H940 0.950 . S
C950 C951 1.386 . S
C950 C952 1.391 . S
C951 C950 1.386 . S
C951 C955 1.393 . S
C952 H941 0.950 . S
C952 C950 1.391 . S
C952 C953 1.400 . S
C953 C947 1.491 . S
C953 C952 1.400 . S
C953 C954 1.398 . S
C954 H942 0.950 . S
C954 C953 1.398 . S
C954 C955 1.391 . S
C955 H943 0.950 . S
C955 C951 1.393 . S
C955 C954 1.391 . S
H956 C964 0.950 . S
H957 C969 0.950 . S
H958 C966 0.950 . S
H959 C968 0.950 . S
H960 C970 0.950 . S
H961 C972 0.950 . S
H962 C974 0.950 . S
H963 C975 0.950 . S
C964 H956 0.950 . S
C964 C965 1.386 . S
C964 C966 1.391 . S
C965 C964 1.386 . S
C965 C969 1.393 . S
C966 H958 0.950 . S
C966 C964 1.391 . S
C966 C967 1.400 . S
C967 C966 1.400 . S
C967 C968 1.398 . S
C967 C973 1.491 . S
C968 H959 0.950 . S
C968 C967 1.398 . S
C968 C969 1.391 . S
C969 H957 0.950 . S
C969 C965 1.393 . S
C969 C968 1.391 . S
C970 H960 0.950 . S
C970 C971 1.386 . S
C970 C972 1.391 . S
C971 C970 1.386 . S
C971 C975 1.393 . S
C972 H961 0.950 . S
C972 C970 1.391 . S
C972 C973 1.400 . S
C973 C967 1.491 . S
C973 C972 1.400 . S
C973 C974 1.398 . S
C974 H962 0.950 . S
C974 C973 1.398 . S
C974 C975 1.391 . S
C975 H963 0.950 . S
C975 C971 1.393 . S
C975 C974 1.391 . S
H976 C984 0.950 . S
H977 C989 0.950 . S
H978 C986 0.950 . S
H979 C988 0.950 . S
H980 C990 0.950 . S
H981 C992 0.950 . S
H982 C994 0.950 . S
H983 C995 0.950 . S
C984 H976 0.950 . S
C984 C985 1.386 . S
C984 C986 1.391 . S
C985 C984 1.386 . S
C985 C989 1.393 . S
C986 H978 0.950 . S
C986 C984 1.391 . S
C986 C987 1.400 . S
C987 C986 1.400 . S
C987 C988 1.398 . S
C987 C993 1.491 . S
C988 H979 0.950 . S
C988 C987 1.398 . S
C988 C989 1.391 . S
C989 H977 0.950 . S
C989 C985 1.393 . S
C989 C988 1.391 . S
C990 H980 0.950 . S
C990 C991 1.386 . S
C990 C992 1.391 . S
C991 C990 1.386 . S
C991 C995 1.393 . S
C992 H981 0.950 . S
C992 C990 1.391 . S
C992 C993 1.400 . S
C993 C987 1.491 . S
C993 C992 1.400 . S
C993 C994 1.398 . S
C994 H982 0.950 . S
C994 C993 1.398 . S
C994 C995 1.391 . S
C995 H983 0.950 . S
C995 C991 1.393 . S
C995 C994 1.391 . S
H996 C1004 0.950 . S
H997 C1009 0.950 . S
H998 C1006 0.950 . S
H999 C1008 0.950 . S
H1000 C1010 0.950 . S
H1001 C1012 0.950 . S
H1002 C1014 0.950 . S
H1003 C1015 0.950 . S
C1004 H996 0.950 . S
C1004 C1005 1.386 . S
C1004 C1006 1.391 . S
C1005 C1004 1.386 . S
C1005 C1009 1.393 . S
C1006 H998 0.950 . S
C1006 C1004 1.391 . S
C1006 C1007 1.400 . S
C1007 C1006 1.400 . S
C1007 C1008 1.398 . S
C1007 C1013 1.491 . S
C1008 H999 0.950 . S
C1008 C1007 1.398 . S
C1008 C1009 1.391 . S
C1009 H997 0.950 . S
C1009 C1005 1.393 . S
C1009 C1008 1.391 . S
C1010 H1000 0.950 . S
C1010 C1011 1.386 . S
C1010 C1012 1.391 . S
C1011 C1010 1.386 . S
C1011 C1015 1.393 . S
C1012 H1001 0.950 . S
C1012 C1010 1.391 . S
C1012 C1013 1.400 . S
C1013 C1007 1.491 . S
C1013 C1012 1.400 . S
C1013 C1014 1.398 . S
C1014 H1002 0.950 . S
C1014 C1013 1.398 . S
C1014 C1015 1.391 . S
C1015 H1003 0.950 . S
C1015 C1011 1.393 . S
C1015 C1014 1.391 . S
H1016 C1024 0.950 . S
H1017 C1029 0.950 . S
H1018 C1026 0.950 . S
H1019 C1028 0.950 . S
H1020 C1030 0.950 . S
H1021 C1032 0.950 . S
H1022 C1034 0.950 . S
H1023 C1035 0.950 . S
C1024 H1016 0.950 . S
C1024 C1025 1.386 . S
C1024 C1026 1.391 . S
C1025 C1024 1.386 . S
C1025 C1029 1.393 . S
C1026 H1018 0.950 . S
C1026 C1024 1.391 . S
C1026 C1027 1.400 . S
C1027 C1026 1.400 . S
C1027 C1028 1.398 . S
C1027 C1033 1.491 . S
C1028 H1019 0.950 . S
C1028 C1027 1.398 . S
C1028 C1029 1.391 . S
C1029 H1017 0.950 . S
C1029 C1025 1.393 . S
C1029 C1028 1.391 . S
C1030 H1020 0.950 . S
C1030 C1031 1.386 . S
C1030 C1032 1.391 . S
C1031 C1030 1.386 . S
C1031 C1035 1.393 . S
C1032 H1021 0.950 . S
C1032 C1030 1.391 . S
C1032 C1033 1.400 . S
C1033 C1027 1.491 . S
C1033 C1032 1.400 . S
C1033 C1034 1.398 . S
C1034 H1022 0.950 . S
C1034 C1033 1.398 . S
C1034 C1035 1.391 . S
C1035 H1023 0.950 . S
C1035 C1031 1.393 . S
C1035 C1034 1.391 . S
H1036 C1044 0.950 . S
H1037 C1049 0.950 . S
H1038 C1046 0.950 . S
H1039 C1048 0.950 . S
H1040 C1050 0.950 . S
H1041 C1052 0.950 . S
H1042 C1054 0.950 . S
H1043 C1055 0.950 . S
C1044 H1036 0.950 . S
C1044 C1045 1.386 . S
C1044 C1046 1.391 . S
C1045 C1044 1.386 . S
C1045 C1049 1.393 . S
C1046 H1038 0.950 . S
C1046 C1044 1.391 . S
C1046 C1047 1.400 . S
C1047 C1046 1.400 . S
C1047 C1048 1.398 . S
C1047 C1053 1.491 . S
C1048 H1039 0.950 . S
C1048 C1047 1.398 . S
C1048 C1049 1.391 . S
C1049 H1037 0.950 . S
C1049 C1045 1.393 . S
C1049 C1048 1.391 . S
C1050 H1040 0.950 . S
C1050 C1051 1.386 . S
C1050 C1052 1.391 . S
C1051 C1050 1.386 . S
C1051 C1055 1.393 . S
C1052 H1041 0.950 . S
C1052 C1050 1.391 . S
C1052 C1053 1.400 . S
C1053 C1047 1.491 . S
C1053 C1052 1.400 . S
C1053 C1054 1.398 . S
C1054 H1042 0.950 . S
C1054 C1053 1.398 . S
C1054 C1055 1.391 . S
C1055 H1043 0.950 . S
C1055 C1051 1.393 . S
C1055 C1054 1.391 . S
H1056 C1064 0.950 . S
H1057 C1069 0.950 . S
H1058 C1066 0.950 . S
H1059 C1068 0.950 . S
H1060 C1070 0.950 . S
H1061 C1072 0.950 . S
H1062 C1074 0.950 . S
H1063 C1075 0.950 . S
C1064 H1056 0.950 . S
C1064 C1065 1.386 . S
C1064 C1066 1.391 . S
C1065 C1064 1.386 . S
C1065 C1069 1.393 . S
C1066 H1058 0.950 . S
C1066 C1064 1.391 . S
C1066 C1067 1.400 . S
C1067 C1066 1.400 . S
C1067 C1068 1.398 . S
C1067 C1073 1.491 . S
C1068 H1059 0.950 . S
C1068 C1067 1.398 . S
C1068 C1069 1.391 . S
C1069 H1057 0.950 . S
C1069 C1065 1.393 . S
C1069 C1068 1.391 . S
C1070 H1060 0.950 . S
C1070 C1071 1.386 . S
C1070 C1072 1.391 . S
C1071 C1070 1.386 . S
C1071 C1075 1.393 . S
C1072 H1061 0.950 . S
C1072 C1070 1.391 . S
C1072 C1073 1.400 . S
C1073 C1067 1.491 . S
C1073 C1072 1.400 . S
C1073 C1074 1.398 . S
C1074 H1062 0.950 . S
C1074 C1073 1.398 . S
C1074 C1075 1.391 . S
C1075 H1063 0.950 . S
C1075 C1071 1.393 . S
C1075 C1074 1.391 . S
H1076 C1084 0.950 . S
H1077 C1089 0.950 . S
H1078 C1086 0.950 . S
H1079 C1088 0.950 . S
H1080 C1090 0.950 . S
H1081 C1092 0.950 . S
H1082 C1094 0.950 . S
H1083 C1095 0.950 . S
C1084 H1076 0.950 . S
C1084 C1085 1.386 . S
C1084 C1086 1.391 . S
C1085 C1084 1.386 . S
C1085 C1089 1.393 . S
C1086 H1078 0.950 . S
C1086 C1084 1.391 . S
C1086 C1087 1.400 . S
C1087 C1086 1.400 . S
C1087 C1088 1.398 . S
C1087 C1093 1.491 . S
C1088 H1079 0.950 . S
C1088 C1087 1.398 . S
C1088 C1089 1.391 . S
C1089 H1077 0.950 . S
C1089 C1085 1.393 . S
C1089 C1088 1.391 . S
C1090 H1080 0.950 . S
C1090 C1091 1.386 . S
C1090 C1092 1.391 . S
C1091 C1090 1.386 . S
C1091 C1095 1.393 . S
C1092 H1081 0.950 . S
C1092 C1090 1.391 . S
C1092 C1093 1.400 . S
C1093 C1087 1.491 . S
C1093 C1092 1.400 . S
C1093 C1094 1.398 . S
C1094 H1082 0.950 . S
C1094 C1093 1.398 . S
C1094 C1095 1.391 . S
C1095 H1083 0.950 . S
C1095 C1091 1.393 . S
C1095 C1094 1.391 . S
H1096 C1104 0.950 . S
H1097 C1109 0.950 . S
H1098 C1106 0.950 . S
H1099 C1108 0.950 . S
H1100 C1110 0.950 . S
H1101 C1112 0.950 . S
H1102 C1114 0.950 . S
H1103 C1115 0.950 . S
C1104 H1096 0.950 . S
C1104 C1105 1.386 . S
C1104 C1106 1.391 . S
C1105 C1104 1.386 . S
C1105 C1109 1.393 . S
C1106 H1098 0.950 . S
C1106 C1104 1.391 . S
C1106 C1107 1.400 . S
C1107 C1106 1.400 . S
C1107 C1108 1.398 . S
C1107 C1113 1.491 . S
C1108 H1099 0.950 . S
C1108 C1107 1.398 . S
C1108 C1109 1.391 . S
C1109 H1097 0.950 . S
C1109 C1105 1.393 . S
C1109 C1108 1.391 . S
C1110 H1100 0.950 . S
C1110 C1111 1.386 . S
C1110 C1112 1.391 . S
C1111 C1110 1.386 . S
C1111 C1115 1.393 . S
C1112 H1101 0.950 . S
C1112 C1110 1.391 . S
C1112 C1113 1.400 . S
C1113 C1107 1.491 . S
C1113 C1112 1.400 . S
C1113 C1114 1.398 . S
C1114 H1102 0.950 . S
C1114 C1113 1.398 . S
C1114 C1115 1.391 . S
C1115 H1103 0.950 . S
C1115 C1111 1.393 . S
C1115 C1114 1.391 . S
H1116 C1124 0.950 . S
H1117 C1129 0.950 . S
H1118 C1126 0.950 . S
H1119 C1128 0.950 . S
H1120 C1130 0.950 . S
H1121 C1132 0.950 . S
H1122 C1134 0.950 . S
H1123 C1135 0.950 . S
C1124 H1116 0.950 . S
C1124 C1125 1.386 . S
C1124 C1126 1.391 . S
C1125 C1124 1.386 . S
C1125 C1129 1.393 . S
C1126 H1118 0.950 . S
C1126 C1124 1.391 . S
C1126 C1127 1.400 . S
C1127 C1126 1.400 . S
C1127 C1128 1.398 . S
C1127 C1133 1.491 . S
C1128 H1119 0.950 . S
C1128 C1127 1.398 . S
C1128 C1129 1.391 . S
C1129 H1117 0.950 . S
C1129 C1125 1.393 . S
C1129 C1128 1.391 . S
C1130 H1120 0.950 . S
C1130 C1131 1.386 . S
C1130 C1132 1.391 . S
C1131 C1130 1.386 . S
C1131 C1135 1.393 . S
C1132 H1121 0.950 . S
C1132 C1130 1.391 . S
C1132 C1133 1.400 . S
C1133 C1127 1.491 . S
C1133 C1132 1.400 . S
C1133 C1134 1.398 . S
C1134 H1122 0.950 . S
C1134 C1133 1.398 . S
C1134 C1135 1.391 . S
C1135 H1123 0.950 . S
C1135 C1131 1.393 . S
C1135 C1134 1.391 . S
H1136 C1144 0.950 . S
H1137 C1149 0.950 . S
H1138 C1146 0.950 . S
H1139 C1148 0.950 . S
H1140 C1150 0.950 . S
H1141 C1152 0.950 . S
H1142 C1154 0.950 . S
H1143 C1155 0.950 . S
C1144 H1136 0.950 . S
C1144 C1145 1.386 . S
C1144 C1146 1.391 . S
C1145 C1144 1.386 . S
C1145 C1149 1.393 . S
C1146 H1138 0.950 . S
C1146 C1144 1.391 . S
C1146 C1147 1.400 . S
C1147 C1146 1.400 . S
C1147 C1148 1.398 . S
C1147 C1153 1.491 . S
C1148 H1139 0.950 . S
C1148 C1147 1.398 . S
C1148 C1149 1.391 . S
C1149 H1137 0.950 . S
C1149 C1145 1.393 . S
C1149 C1148 1.391 . S
C1150 H1140 0.950 . S
C1150 C1151 1.386 . S
C1150 C1152 1.391 . S
C1151 C1150 1.386 . S
C1151 C1155 1.393 . S
C1152 H1141 0.950 . S
C1152 C1150 1.391 . S
C1152 C1153 1.400 . S
C1153 C1147 1.491 . S
C1153 C1152 1.400 . S
C1153 C1154 1.398 . S
C1154 H1142 0.950 . S
C1154 C1153 1.398 . S
C1154 C1155 1.391 . S
C1155 H1143 0.950 . S
C1155 C1151 1.393 . S
C1155 C1154 1.391 . S
H1156 C1164 0.950 . S
H1157 C1169 0.950 . S
H1158 C1166 0.950 . S
H1159 C1168 0.950 . S
H1160 C1170 0.950 . S
H1161 C1172 0.950 . S
H1162 C1174 0.950 . S
H1163 C1175 0.950 . S
C1164 H1156 0.950 . S
C1164 C1165 1.386 . S
C1164 C1166 1.391 . S
C1165 C1164 1.386 . S
C1165 C1169 1.393 . S
C1166 H1158 0.950 . S
C1166 C1164 1.391 . S
C1166 C1167 1.400 . S
C1167 C1166 1.400 . S
C1167 C1168 1.398 . S
C1167 C1173 1.491 . S
C1168 H1159 0.950 . S
C1168 C1167 1.398 . S
C1168 C1169 1.391 . S
C1169 H1157 0.950 . S
C1169 C1165 1.393 . S
C1169 C1168 1.391 . S
C1170 H1160 0.950 . S
C1170 C1171 1.386 . S
C1170 C1172 1.391 . S
C1171 C1170 1.386 . S
C1171 C1175 1.393 . S
C1172 H1161 0.950 . S
C1172 C1170 1.391 . S
C1172 C1173 1.400 . S
C1173 C1167 1.491 . S
C1173 C1172 1.400 . S
C1173 C1174 1.398 . S
C1174 H1162 0.950 . S
C1174 C1173 1.398 . S
C1174 C1175 1.391 . S
C1175 H1163 0.950 . S
C1175 C1171 1.393 . S
C1175 C1174 1.391 . S
H1176 C1184 0.950 . S
H1177 C1189 0.950 . S
H1178 C1186 0.950 . S
H1179 C1188 0.950 . S
H1180 C1190 0.950 . S
H1181 C1192 0.950 . S
H1182 C1194 0.950 . S
H1183 C1195 0.950 . S
C1184 H1176 0.950 . S
C1184 C1185 1.386 . S
C1184 C1186 1.391 . S
C1185 C1184 1.386 . S
C1185 C1189 1.393 . S
C1186 H1178 0.950 . S
C1186 C1184 1.391 . S
C1186 C1187 1.400 . S
C1187 C1186 1.400 . S
C1187 C1188 1.398 . S
C1187 C1193 1.491 . S
C1188 H1179 0.950 . S
C1188 C1187 1.398 . S
C1188 C1189 1.391 . S
C1189 H1177 0.950 . S
C1189 C1185 1.393 . S
C1189 C1188 1.391 . S
C1190 H1180 0.950 . S
C1190 C1191 1.386 . S
C1190 C1192 1.391 . S
C1191 C1190 1.386 . S
C1191 C1195 1.393 . S
C1192 H1181 0.950 . S
C1192 C1190 1.391 . S
C1192 C1193 1.400 . S
C1193 C1187 1.491 . S
C1193 C1192 1.400 . S
C1193 C1194 1.398 . S
C1194 H1182 0.950 . S
C1194 C1193 1.398 . S
C1194 C1195 1.391 . S
C1195 H1183 0.950 . S
C1195 C1191 1.393 . S
C1195 C1194 1.391 . S
H1196 C1204 0.950 . S
H1197 C1209 0.950 . S
H1198 C1206 0.950 . S
H1199 C1208 0.950 . S
H1200 C1210 0.950 . S
H1201 C1212 0.950 . S
H1202 C1214 0.950 . S
H1203 C1215 0.950 . S
C1204 H1196 0.950 . S
C1204 C1205 1.386 . S
C1204 C1206 1.391 . S
C1205 C1204 1.386 . S
C1205 C1209 1.393 . S
C1206 H1198 0.950 . S
C1206 C1204 1.391 . S
C1206 C1207 1.400 . S
C1207 C1206 1.400 . S
C1207 C1208 1.398 . S
C1207 C1213 1.491 . S
C1208 H1199 0.950 . S
C1208 C1207 1.398 . S
C1208 C1209 1.391 . S
C1209 H1197 0.950 . S
C1209 C1205 1.393 . S
C1209 C1208 1.391 . S
C1210 H1200 0.950 . S
C1210 C1211 1.386 . S
C1210 C1212 1.391 . S
C1211 C1210 1.386 . S
C1211 C1215 1.393 . S
C1212 H1201 0.950 . S
C1212 C1210 1.391 . S
C1212 C1213 1.400 . S
C1213 C1207 1.491 . S
C1213 C1212 1.400 . S
C1213 C1214 1.398 . S
C1214 H1202 0.950 . S
C1214 C1213 1.398 . S
C1214 C1215 1.391 . S
C1215 H1203 0.950 . S
C1215 C1211 1.393 . S
C1215 C1214 1.391 . S
H1216 C1224 0.950 . S
H1217 C1229 0.950 . S
H1218 C1226 0.950 . S
H1219 C1228 0.950 . S
H1220 C1230 0.950 . S
H1221 C1232 0.950 . S
H1222 C1234 0.950 . S
H1223 C1235 0.950 . S
C1224 H1216 0.950 . S
C1224 C1225 1.386 . S
C1224 C1226 1.391 . S
C1225 C1224 1.386 . S
C1225 C1229 1.393 . S
C1226 H1218 0.950 . S
C1226 C1224 1.391 . S
C1226 C1227 1.400 . S
C1227 C1226 1.400 . S
C1227 C1228 1.398 . S
C1227 C1233 1.491 . S
C1228 H1219 0.950 . S
C1228 C1227 1.398 . S
C1228 C1229 1.391 . S
C1229 H1217 0.950 . S
C1229 C1225 1.393 . S
C1229 C1228 1.391 . S
C1230 H1220 0.950 . S
C1230 C1231 1.386 . S
C1230 C1232 1.391 . S
C1231 C1230 1.386 . S
C1231 C1235 1.393 . S
C1232 H1221 0.950 . S
C1232 C1230 1.391 . S
C1232 C1233 1.400 . S
C1233 C1227 1.491 . S
C1233 C1232 1.400 . S
C1233 C1234 1.398 . S
C1234 H1222 0.950 . S
C1234 C1233 1.398 . S
C1234 C1235 1.391 . S
C1235 H1223 0.950 . S
C1235 C1231 1.393 . S
C1235 C1234 1.391 . S
H1236 C1244 0.950 . S
H1237 C1249 0.950 . S
H1238 C1246 0.950 . S
H1239 C1248 0.950 . S
H1240 C1250 0.950 . S
H1241 C1252 0.950 . S
H1242 C1254 0.950 . S
H1243 C1255 0.950 . S
C1244 H1236 0.950 . S
C1244 C1245 1.386 . S
C1244 C1246 1.391 . S
C1245 C1244 1.386 . S
C1245 C1249 1.393 . S
C1246 H1238 0.950 . S
C1246 C1244 1.391 . S
C1246 C1247 1.400 . S
C1247 C1246 1.400 . S
C1247 C1248 1.398 . S
C1247 C1253 1.491 . S
C1248 H1239 0.950 . S
C1248 C1247 1.398 . S
C1248 C1249 1.391 . S
C1249 H1237 0.950 . S
C1249 C1245 1.393 . S
C1249 C1248 1.391 . S
C1250 H1240 0.950 . S
C1250 C1251 1.386 . S
C1250 C1252 1.391 . S
C1251 C1250 1.386 . S
C1251 C1255 1.393 . S
C1252 H1241 0.950 . S
C1252 C1250 1.391 . S
C1252 C1253 1.400 . S
C1253 C1247 1.491 . S
C1253 C1252 1.400 . S
C1253 C1254 1.398 . S
C1254 H1242 0.950 . S
C1254 C1253 1.398 . S
C1254 C1255 1.391 . S
C1255 H1243 0.950 . S
C1255 C1251 1.393 . S
C1255 C1254 1.391 . S
H1256 C1264 0.950 . S
H1257 C1269 0.950 . S
H1258 C1266 0.950 . S
H1259 C1268 0.950 . S
H1260 C1270 0.950 . S
H1261 C1272 0.950 . S
H1262 C1274 0.950 . S
H1263 C1275 0.950 . S
C1264 H1256 0.950 . S
C1264 C1265 1.386 . S
C1264 C1266 1.391 . S
C1265 C1264 1.386 . S
C1265 C1269 1.393 . S
C1266 H1258 0.950 . S
C1266 C1264 1.391 . S
C1266 C1267 1.400 . S
C1267 C1266 1.400 . S
C1267 C1268 1.398 . S
C1267 C1273 1.491 . S
C1268 H1259 0.950 . S
C1268 C1267 1.398 . S
C1268 C1269 1.391 . S
C1269 H1257 0.950 . S
C1269 C1265 1.393 . S
C1269 C1268 1.391 . S
C1270 H1260 0.950 . S
C1270 C1271 1.386 . S
C1270 C1272 1.391 . S
C1271 C1270 1.386 . S
C1271 C1275 1.393 . S
C1272 H1261 0.950 . S
C1272 C1270 1.391 . S
C1272 C1273 1.400 . S
C1273 C1267 1.491 . S
C1273 C1272 1.400 . S
C1273 C1274 1.398 . S
C1274 H1262 0.950 . S
C1274 C1273 1.398 . S
C1274 C1275 1.391 . S
C1275 H1263 0.950 . S
C1275 C1271 1.393 . S
C1275 C1274 1.391 . S
H1276 C1284 0.950 . S
H1277 C1289 0.950 . S
H1278 C1286 0.950 . S
H1279 C1288 0.950 . S
H1280 C1290 0.950 . S
H1281 C1292 0.950 . S
H1282 C1294 0.950 . S
H1283 C1295 0.950 . S
C1284 H1276 0.950 . S
C1284 C1285 1.386 . S
C1284 C1286 1.391 . S
C1285 C1284 1.386 . S
C1285 C1289 1.393 . S
C1286 H1278 0.950 . S
C1286 C1284 1.391 . S
C1286 C1287 1.400 . S
C1287 C1286 1.400 . S
C1287 C1288 1.398 . S
C1287 C1293 1.491 . S
C1288 H1279 0.950 . S
C1288 C1287 1.398 . S
C1288 C1289 1.391 . S
C1289 H1277 0.950 . S
C1289 C1285 1.393 . S
C1289 C1288 1.391 . S
C1290 H1280 0.950 . S
C1290 C1291 1.386 . S
C1290 C1292 1.391 . S
C1291 C1290 1.386 . S
C1291 C1295 1.393 . S
C1292 H1281 0.950 . S
C1292 C1290 1.391 . S
C1292 C1293 1.400 . S
C1293 C1287 1.491 . S
C1293 C1292 1.400 . S
C1293 C1294 1.398 . S
C1294 H1282 0.950 . S
C1294 C1293 1.398 . S
C1294 C1295 1.391 . S
C1295 H1283 0.950 . S
C1295 C1291 1.393 . S
C1295 C1294 1.391 . S
H1296 C1304 0.950 . S
H1297 C1309 0.950 . S
H1298 C1306 0.950 . S
H1299 C1308 0.950 . S
H1300 C1310 0.950 . S
H1301 C1312 0.950 . S
H1302 C1314 0.950 . S
H1303 C1315 0.950 . S
C1304 H1296 0.950 . S
C1304 C1305 1.386 . S
C1304 C1306 1.391 . S
C1305 C1304 1.386 . S
C1305 C1309 1.393 . S
C1306 H1298 0.950 . S
C1306 C1304 1.391 . S
C1306 C1307 1.400 . S
C1307 C1306 1.400 . S
C1307 C1308 1.398 . S
C1307 C1313 1.491 . S
C1308 H1299 0.950 . S
C1308 C1307 1.398 . S
C1308 C1309 1.391 . S
C1309 H1297 0.950 . S
C1309 C1305 1.393 . S
C1309 C1308 1.391 . S
C1310 H1300 0.950 . S
C1310 C1311 1.386 . S
C1310 C1312 1.391 . S
C1311 C1310 1.386 . S
C1311 C1315 1.393 . S
C1312 H1301 0.950 . S
C1312 C1310 1.391 . S
C1312 C1313 1.400 . S
C1313 C1307 1.491 . S
C1313 C1312 1.400 . S
C1313 C1314 1.398 . S
C1314 H1302 0.950 . S
C1314 C1313 1.398 . S
C1314 C1315 1.391 . S
C1315 H1303 0.950 . S
C1315 C1311 1.393 . S
C1315 C1314 1.391 . S
H1316 C1324 0.950 . S
H1317 C1329 0.950 . S
H1318 C1326 0.950 . S
H1319 C1328 0.950 . S
H1320 C1330 0.950 . S
H1321 C1332 0.950 . S
H1322 C1334 0.950 . S
H1323 C1335 0.950 . S
C1324 H1316 0.950 . S
C1324 C1325 1.386 . S
C1324 C1326 1.391 . S
C1325 C1324 1.386 . S
C1325 C1329 1.393 . S
C1326 H1318 0.950 . S
C1326 C1324 1.391 . S
C1326 C1327 1.400 . S
C1327 C1326 1.400 . S
C1327 C1328 1.398 . S
C1327 C1333 1.491 . S
C1328 H1319 0.950 . S
C1328 C1327 1.398 . S
C1328 C1329 1.391 . S
C1329 H1317 0.950 . S
C1329 C1325 1.393 . S
C1329 C1328 1.391 . S
C1330 H1320 0.950 . S
C1330 C1331 1.386 . S
C1330 C1332 1.391 . S
C1331 C1330 1.386 . S
C1331 C1335 1.393 . S
C1332 H1321 0.950 . S
C1332 C1330 1.391 . S
C1332 C1333 1.400 . S
C1333 C1327 1.491 . S
C1333 C1332 1.400 . S
C1333 C1334 1.398 . S
C1334 H1322 0.950 . S
C1334 C1333 1.398 . S
C1334 C1335 1.391 . S
C1335 H1323 0.950 . S
C1335 C1331 1.393 . S
C1335 C1334 1.391 . S
C391 C201 1.270 . S
C385 C17 1.276 . S
C411 C206 1.488 . S
C405 C44 1.407 . S
C431 C207 1.309 . S
C425 C63 1.295 . S
C445 C87 1.283 . S
C451 C211 1.250 . S
C465 C110 1.257 . S
C471 C214 1.230 . S
C491 C215 1.325 . S
C485 C131 1.314 . S
C505 C159 1.384 . S
C511 C192 1.461 . S
C525 C177 1.299 . S
C531 C208 1.284 . S
C551 C246 1.325 . S
C545 C20 1.274 . S
C565 C42 1.330 . S
C571 C272 1.345 . S
C591 C224 1.374 . S
C585 C66 1.316 . S
C611 C279 1.203 . S
C605 C86 1.230 . S
C625 C109 1.224 . S
C631 C233 1.195 . S
C651 C275 1.396 . S
C645 C136 1.306 . S
C665 C157 1.336 . S
C671 C239 1.346 . S
C685 C182 1.278 . S
C691 C270 1.344 . S
C705 C18 1.302 . S
C711 C278 1.265 . S
C725 C112 1.217 . S
C731 C265 1.260 . S
C751 C243 1.235 . S
C745 C134 1.259 . S
C771 C271 1.302 . S
C765 C154 1.354 . S
C785 C180 1.259 . S
C791 C238 1.235 . S
C805 C64 1.288 . S
C811 C256 1.228 . S
C831 C247 1.318 . S
C825 C89 1.254 . S
C845 C39 1.366 . S
C851 C240 1.318 . S
C865 C178 1.237 . S
C871 C302 1.206 . S
C885 C113 1.342 . S
C891 C297 1.377 . S
C911 C311 1.253 . S
C905 C132 1.281 . S
C931 C288 1.224 . S
C925 C156 1.254 . S
C945 C41 1.236 . S
C951 C304 1.207 . S
C971 C303 1.241 . S
C965 C62 1.283 . S
C985 C90 1.327 . S
C991 C307 1.390 . S
C1005 C16 1.256 . S
C1011 C310 1.240 . S
C1025 C181 1.273 . S
C1031 C336 1.395 . S
C1051 C352 1.358 . S
C1045 C111 1.373 . S
C1065 C135 1.303 . S
C1071 C334 1.445 . S
C1085 C155 1.260 . S
C1091 C367 1.231 . S
C1111 C343 1.234 . S
C1105 C40 1.233 . S
C1125 C67 1.357 . S
C1131 C361 1.390 . S
C1151 C339 1.354 . S
C1145 C88 1.333 . S
C1171 C374 1.372 . S
C1165 C21 1.338 . S
C1191 C366 1.274 . S
C1185 C179 1.328 . S
C1205 C43 1.269 . S
C1211 C371 1.331 . S
C1225 C65 1.248 . S
C1231 C342 1.271 . S
C1251 C375 1.335 . S
C1245 C85 1.366 . S
C1265 C19 1.282 . S
C1271 C329 1.268 . S
C1285 C133 1.317 . S
C1291 C368 1.267 . S
C1311 C320 1.364 . S
C1305 C158 1.252 . S
C1331 C335 1.371 . S
C1325 C108 1.384 . S
