# Generated by pormake.
# Topology iac, (4,6)-cn, num edge types: 1
# Building blocks:
#     Node 0, Type 0, BuildingBlock: QUQFOY_clean_sbu_1, # of connection points: 4
#     Node 1, Type 0, BuildingBlock: QUQFOY_clean_sbu_1, # of connection points: 4
#     Node 2, Type 0, BuildingBlock: QUQFOY_clean_sbu_1, # of connection points: 4
#     Node 3, Type 0, BuildingBlock: QUQFOY_clean_sbu_1, # of connection points: 4
#     Node 4, Type 0, BuildingBlock: QUQFOY_clean_sbu_1, # of connection points: 4
#     Node 5, Type 0, BuildingBlock: QUQFOY_clean_sbu_1, # of connection points: 4
#     Node 6, Type 0, BuildingBlock: QUQFOY_clean_sbu_1, # of connection points: 4
#     Node 7, Type 0, BuildingBlock: QUQFOY_clean_sbu_1, # of connection points: 4
#     Node 8, Type 0, BuildingBlock: QUQFOY_clean_sbu_1, # of connection points: 4
#     Node 9, Type 0, BuildingBlock: QUQFOY_clean_sbu_1, # of connection points: 4
#     Node 10, Type 0, BuildingBlock: QUQFOY_clean_sbu_1, # of connection points: 4
#     Node 11, Type 0, BuildingBlock: QUQFOY_clean_sbu_1, # of connection points: 4
#     Node 12, Type 0, BuildingBlock: QUQFOY_clean_sbu_1, # of connection points: 4
#     Node 13, Type 0, BuildingBlock: QUQFOY_clean_sbu_1, # of connection points: 4
#     Node 14, Type 0, BuildingBlock: QUQFOY_clean_sbu_1, # of connection points: 4
#     Node 15, Type 0, BuildingBlock: QUQFOY_clean_sbu_1, # of connection points: 4
#     Node 16, Type 0, BuildingBlock: QUQFOY_clean_sbu_1, # of connection points: 4
#     Node 17, Type 0, BuildingBlock: QUQFOY_clean_sbu_1, # of connection points: 4
#     Node 18, Type 0, BuildingBlock: QUQFOY_clean_sbu_1, # of connection points: 4
#     Node 19, Type 0, BuildingBlock: QUQFOY_clean_sbu_1, # of connection points: 4
#     Node 20, Type 0, BuildingBlock: QUQFOY_clean_sbu_1, # of connection points: 4
#     Node 21, Type 0, BuildingBlock: QUQFOY_clean_sbu_1, # of connection points: 4
#     Node 22, Type 0, BuildingBlock: QUQFOY_clean_sbu_1, # of connection points: 4
#     Node 23, Type 0, BuildingBlock: QUQFOY_clean_sbu_1, # of connection points: 4
#     Node 24, Type 1, BuildingBlock: FUNLAD_clean_sbu_0, # of connection points: 6
#     Node 25, Type 1, BuildingBlock: FUNLAD_clean_sbu_0, # of connection points: 6
#     Node 26, Type 1, BuildingBlock: FUNLAD_clean_sbu_0, # of connection points: 6
#     Node 27, Type 1, BuildingBlock: FUNLAD_clean_sbu_0, # of connection points: 6
#     Node 28, Type 1, BuildingBlock: FUNLAD_clean_sbu_0, # of connection points: 6
#     Node 29, Type 1, BuildingBlock: FUNLAD_clean_sbu_0, # of connection points: 6
#     Node 30, Type 1, BuildingBlock: FUNLAD_clean_sbu_0, # of connection points: 6
#     Node 31, Type 1, BuildingBlock: FUNLAD_clean_sbu_0, # of connection points: 6
#     Node 32, Type 1, BuildingBlock: FUNLAD_clean_sbu_0, # of connection points: 6
#     Node 33, Type 1, BuildingBlock: FUNLAD_clean_sbu_0, # of connection points: 6
#     Node 34, Type 1, BuildingBlock: FUNLAD_clean_sbu_0, # of connection points: 6
#     Node 35, Type 1, BuildingBlock: FUNLAD_clean_sbu_0, # of connection points: 6
#     Node 36, Type 1, BuildingBlock: FUNLAD_clean_sbu_0, # of connection points: 6
#     Node 37, Type 1, BuildingBlock: FUNLAD_clean_sbu_0, # of connection points: 6
#     Node 38, Type 1, BuildingBlock: FUNLAD_clean_sbu_0, # of connection points: 6
#     Node 39, Type 1, BuildingBlock: FUNLAD_clean_sbu_0, # of connection points: 6
#     Edge 40, Type (0, 1), BuildingBlock: KIFKEQ_clean_linker_1, # of connection points: 2
#     Edge 41, Type (0, 1), BuildingBlock: KIFKEQ_clean_linker_1, # of connection points: 2
#     Edge 42, Type (0, 1), BuildingBlock: KIFKEQ_clean_linker_1, # of connection points: 2
#     Edge 43, Type (0, 1), BuildingBlock: KIFKEQ_clean_linker_1, # of connection points: 2
#     Edge 44, Type (0, 1), BuildingBlock: KIFKEQ_clean_linker_1, # of connection points: 2
#     Edge 45, Type (0, 1), BuildingBlock: KIFKEQ_clean_linker_1, # of connection points: 2
#     Edge 46, Type (0, 1), BuildingBlock: KIFKEQ_clean_linker_1, # of connection points: 2
#     Edge 47, Type (0, 1), BuildingBlock: KIFKEQ_clean_linker_1, # of connection points: 2
#     Edge 48, Type (0, 1), BuildingBlock: KIFKEQ_clean_linker_1, # of connection points: 2
#     Edge 49, Type (0, 1), BuildingBlock: KIFKEQ_clean_linker_1, # of connection points: 2
#     Edge 50, Type (0, 1), BuildingBlock: KIFKEQ_clean_linker_1, # of connection points: 2
#     Edge 51, Type (0, 1), BuildingBlock: KIFKEQ_clean_linker_1, # of connection points: 2
#     Edge 52, Type (0, 1), BuildingBlock: KIFKEQ_clean_linker_1, # of connection points: 2
#     Edge 53, Type (0, 1), BuildingBlock: KIFKEQ_clean_linker_1, # of connection points: 2
#     Edge 54, Type (0, 1), BuildingBlock: KIFKEQ_clean_linker_1, # of connection points: 2
#     Edge 55, Type (0, 1), BuildingBlock: KIFKEQ_clean_linker_1, # of connection points: 2
#     Edge 56, Type (0, 1), BuildingBlock: KIFKEQ_clean_linker_1, # of connection points: 2
#     Edge 57, Type (0, 1), BuildingBlock: KIFKEQ_clean_linker_1, # of connection points: 2
#     Edge 58, Type (0, 1), BuildingBlock: KIFKEQ_clean_linker_1, # of connection points: 2
#     Edge 59, Type (0, 1), BuildingBlock: KIFKEQ_clean_linker_1, # of connection points: 2
#     Edge 60, Type (0, 1), BuildingBlock: KIFKEQ_clean_linker_1, # of connection points: 2
#     Edge 61, Type (0, 1), BuildingBlock: KIFKEQ_clean_linker_1, # of connection points: 2
#     Edge 62, Type (0, 1), BuildingBlock: KIFKEQ_clean_linker_1, # of connection points: 2
#     Edge 63, Type (0, 1), BuildingBlock: KIFKEQ_clean_linker_1, # of connection points: 2
#     Edge 64, Type (0, 1), BuildingBlock: KIFKEQ_clean_linker_1, # of connection points: 2
#     Edge 65, Type (0, 1), BuildingBlock: KIFKEQ_clean_linker_1, # of connection points: 2
#     Edge 66, Type (0, 1), BuildingBlock: KIFKEQ_clean_linker_1, # of connection points: 2
#     Edge 67, Type (0, 1), BuildingBlock: KIFKEQ_clean_linker_1, # of connection points: 2
#     Edge 68, Type (0, 1), BuildingBlock: KIFKEQ_clean_linker_1, # of connection points: 2
#     Edge 69, Type (0, 1), BuildingBlock: KIFKEQ_clean_linker_1, # of connection points: 2
#     Edge 70, Type (0, 1), BuildingBlock: KIFKEQ_clean_linker_1, # of connection points: 2
#     Edge 71, Type (0, 1), BuildingBlock: KIFKEQ_clean_linker_1, # of connection points: 2
#     Edge 72, Type (0, 1), BuildingBlock: KIFKEQ_clean_linker_1, # of connection points: 2
#     Edge 73, Type (0, 1), BuildingBlock: KIFKEQ_clean_linker_1, # of connection points: 2
#     Edge 74, Type (0, 1), BuildingBlock: KIFKEQ_clean_linker_1, # of connection points: 2
#     Edge 75, Type (0, 1), BuildingBlock: KIFKEQ_clean_linker_1, # of connection points: 2
#     Edge 76, Type (0, 1), BuildingBlock: KIFKEQ_clean_linker_1, # of connection points: 2
#     Edge 77, Type (0, 1), BuildingBlock: KIFKEQ_clean_linker_1, # of connection points: 2
#     Edge 78, Type (0, 1), BuildingBlock: KIFKEQ_clean_linker_1, # of connection points: 2
#     Edge 79, Type (0, 1), BuildingBlock: KIFKEQ_clean_linker_1, # of connection points: 2
#     Edge 80, Type (0, 1), BuildingBlock: KIFKEQ_clean_linker_1, # of connection points: 2
#     Edge 81, Type (0, 1), BuildingBlock: KIFKEQ_clean_linker_1, # of connection points: 2
#     Edge 82, Type (0, 1), BuildingBlock: KIFKEQ_clean_linker_1, # of connection points: 2
#     Edge 83, Type (0, 1), BuildingBlock: KIFKEQ_clean_linker_1, # of connection points: 2
#     Edge 84, Type (0, 1), BuildingBlock: KIFKEQ_clean_linker_1, # of connection points: 2
#     Edge 85, Type (0, 1), BuildingBlock: KIFKEQ_clean_linker_1, # of connection points: 2
#     Edge 86, Type (0, 1), BuildingBlock: KIFKEQ_clean_linker_1, # of connection points: 2
#     Edge 87, Type (0, 1), BuildingBlock: KIFKEQ_clean_linker_1, # of connection points: 2
#     Edge 88, Type (0, 1), BuildingBlock: KIFKEQ_clean_linker_1, # of connection points: 2
#     Edge 89, Type (0, 1), BuildingBlock: KIFKEQ_clean_linker_1, # of connection points: 2
#     Edge 90, Type (0, 1), BuildingBlock: KIFKEQ_clean_linker_1, # of connection points: 2
#     Edge 91, Type (0, 1), BuildingBlock: KIFKEQ_clean_linker_1, # of connection points: 2
#     Edge 92, Type (0, 1), BuildingBlock: KIFKEQ_clean_linker_1, # of connection points: 2
#     Edge 93, Type (0, 1), BuildingBlock: KIFKEQ_clean_linker_1, # of connection points: 2
#     Edge 94, Type (0, 1), BuildingBlock: KIFKEQ_clean_linker_1, # of connection points: 2
#     Edge 95, Type (0, 1), BuildingBlock: KIFKEQ_clean_linker_1, # of connection points: 2
#     Edge 96, Type (0, 1), BuildingBlock: KIFKEQ_clean_linker_1, # of connection points: 2
#     Edge 97, Type (0, 1), BuildingBlock: KIFKEQ_clean_linker_1, # of connection points: 2
#     Edge 98, Type (0, 1), BuildingBlock: KIFKEQ_clean_linker_1, # of connection points: 2
#     Edge 99, Type (0, 1), BuildingBlock: KIFKEQ_clean_linker_1, # of connection points: 2
#     Edge 100, Type (0, 1), BuildingBlock: KIFKEQ_clean_linker_1, # of connection points: 2
#     Edge 101, Type (0, 1), BuildingBlock: KIFKEQ_clean_linker_1, # of connection points: 2
#     Edge 102, Type (0, 1), BuildingBlock: KIFKEQ_clean_linker_1, # of connection points: 2
#     Edge 103, Type (0, 1), BuildingBlock: KIFKEQ_clean_linker_1, # of connection points: 2
#     Edge 104, Type (0, 1), BuildingBlock: KIFKEQ_clean_linker_1, # of connection points: 2
#     Edge 105, Type (0, 1), BuildingBlock: KIFKEQ_clean_linker_1, # of connection points: 2
#     Edge 106, Type (0, 1), BuildingBlock: KIFKEQ_clean_linker_1, # of connection points: 2
#     Edge 107, Type (0, 1), BuildingBlock: KIFKEQ_clean_linker_1, # of connection points: 2
#     Edge 108, Type (0, 1), BuildingBlock: KIFKEQ_clean_linker_1, # of connection points: 2
#     Edge 109, Type (0, 1), BuildingBlock: KIFKEQ_clean_linker_1, # of connection points: 2
#     Edge 110, Type (0, 1), BuildingBlock: KIFKEQ_clean_linker_1, # of connection points: 2
#     Edge 111, Type (0, 1), BuildingBlock: KIFKEQ_clean_linker_1, # of connection points: 2
#     Edge 112, Type (0, 1), BuildingBlock: KIFKEQ_clean_linker_1, # of connection points: 2
#     Edge 113, Type (0, 1), BuildingBlock: KIFKEQ_clean_linker_1, # of connection points: 2
#     Edge 114, Type (0, 1), BuildingBlock: KIFKEQ_clean_linker_1, # of connection points: 2
#     Edge 115, Type (0, 1), BuildingBlock: KIFKEQ_clean_linker_1, # of connection points: 2
#     Edge 116, Type (0, 1), BuildingBlock: KIFKEQ_clean_linker_1, # of connection points: 2
#     Edge 117, Type (0, 1), BuildingBlock: KIFKEQ_clean_linker_1, # of connection points: 2
#     Edge 118, Type (0, 1), BuildingBlock: KIFKEQ_clean_linker_1, # of connection points: 2
#     Edge 119, Type (0, 1), BuildingBlock: KIFKEQ_clean_linker_1, # of connection points: 2
#     Edge 120, Type (0, 1), BuildingBlock: KIFKEQ_clean_linker_1, # of connection points: 2
#     Edge 121, Type (0, 1), BuildingBlock: KIFKEQ_clean_linker_1, # of connection points: 2
#     Edge 122, Type (0, 1), BuildingBlock: KIFKEQ_clean_linker_1, # of connection points: 2
#     Edge 123, Type (0, 1), BuildingBlock: KIFKEQ_clean_linker_1, # of connection points: 2
#     Edge 124, Type (0, 1), BuildingBlock: KIFKEQ_clean_linker_1, # of connection points: 2
#     Edge 125, Type (0, 1), BuildingBlock: KIFKEQ_clean_linker_1, # of connection points: 2
#     Edge 126, Type (0, 1), BuildingBlock: KIFKEQ_clean_linker_1, # of connection points: 2
#     Edge 127, Type (0, 1), BuildingBlock: KIFKEQ_clean_linker_1, # of connection points: 2
#     Edge 128, Type (0, 1), BuildingBlock: KIFKEQ_clean_linker_1, # of connection points: 2
#     Edge 129, Type (0, 1), BuildingBlock: KIFKEQ_clean_linker_1, # of connection points: 2
#     Edge 130, Type (0, 1), BuildingBlock: KIFKEQ_clean_linker_1, # of connection points: 2
#     Edge 131, Type (0, 1), BuildingBlock: KIFKEQ_clean_linker_1, # of connection points: 2
#     Edge 132, Type (0, 1), BuildingBlock: KIFKEQ_clean_linker_1, # of connection points: 2
#     Edge 133, Type (0, 1), BuildingBlock: KIFKEQ_clean_linker_1, # of connection points: 2
#     Edge 134, Type (0, 1), BuildingBlock: KIFKEQ_clean_linker_1, # of connection points: 2
#     Edge 135, Type (0, 1), BuildingBlock: KIFKEQ_clean_linker_1, # of connection points: 2
# Relax obj value: 0.351
# Max RMSD: 0.270
# Mean RMSD: 0.186
data_MOF--net-iac--node1-QUQFOY_clean_sbu_1--node2-FUNLAD_clean_sbu_0--edge1-KIFKEQ_clean_linker_1
_symmetry_space_group_name_H-M    P1
_symmetry_Int_Tables_number       1
_symmetry_cell_setting            triclinic
loop_
_symmetry_equiv_pos_as_xyz
'x, y, z'
_cell_length_a     56.836056
_cell_length_b     54.933534
_cell_length_c     61.354118
_cell_angle_alpha  90.9993
_cell_angle_beta   92.367603
_cell_angle_gamma 93.44671
loop_
_atom_site_label
_atom_site_type_symbol
_atom_site_fract_x
_atom_site_fract_y
_atom_site_fract_z
_atom_type_partial_charge
O0 O 0.04994 0.16707 0.15974 0.0
Cd1 Cd 0.05639 0.19462 0.18229 0.0
Cd2 Cd 0.06432 0.22468 0.14691 0.0
O3 O 0.05036 0.19255 0.13237 0.0
O4 O 0.03617 0.18847 0.20721 0.0
O5 O 0.03194 0.2187 0.18396 0.0
C6 C 0.02487 0.20697 0.20083 0.0
C7 C 0.05721 0.25956 0.12742 0.0
C8 C 0.04637 0.17127 0.13966 0.0
C9 C 0.1029 0.22078 0.18285 0.0
O10 O 0.09604 0.22894 0.1646 0.0
O11 O 0.08965 0.20594 0.19306 0.0
O12 O 0.07217 0.24444 0.12128 0.0
O13 O 0.04554 0.25452 0.14456 0.0
O14 O 0.08863 0.76213 0.38671 0.0
Cd15 Cd 0.06113 0.76262 0.40804 0.0
Cd16 Cd 0.04021 0.78637 0.37113 0.0
O17 O 0.07166 0.77714 0.35719 0.0
O18 O 0.06989 0.74107 0.43275 0.0
O19 O 0.03962 0.73203 0.40967 0.0
C20 C 0.05244 0.72622 0.42645 0.0
C21 C 0.00319 0.78082 0.3523 0.0
C22 C 0.08938 0.76805 0.36674 0.0
C23 C 0.04622 0.81425 0.41464 0.0
O24 O 0.04117 0.81445 0.39425 0.0
O25 O 0.05371 0.79519 0.42338 0.0
O26 O 0.01852 0.79785 0.3473 0.0
O27 O 0.00937 0.7659 0.36726 0.0
O28 O 0.53957 0.67286 0.67719 0.0
Cd29 Cd 0.5563 0.6992 0.69699 0.0
Cd30 Cd 0.54879 0.73252 0.66114 0.0
O31 O 0.52913 0.70056 0.65368 0.0
O32 O 0.54524 0.69751 0.72716 0.0
O33 O 0.53654 0.72651 0.70381 0.0
C34 C 0.53407 0.71676 0.72268 0.0
C35 C 0.54002 0.76253 0.63626 0.0
C36 C 0.52775 0.6788 0.66034 0.0
C37 C 0.59857 0.72536 0.68247 0.0
O38 O 0.58427 0.73617 0.67012 0.0
O39 O 0.59135 0.70818 0.69453 0.0
O40 O 0.55152 0.74406 0.63098 0.0
O41 O 0.53294 0.76396 0.65594 0.0
O42 O 0.58705 0.25759 0.88662 0.0
Cd43 Cd 0.56029 0.25734 0.90898 0.0
Cd44 Cd 0.53692 0.27948 0.87152 0.0
O45 O 0.56868 0.2715 0.85733 0.0
O46 O 0.5713 0.23615 0.93334 0.0
O47 O 0.53968 0.22624 0.91229 0.0
C48 C 0.55384 0.22076 0.92824 0.0
C49 C 0.49996 0.27119 0.85298 0.0
C50 C 0.58705 0.26332 0.86657 0.0
C51 C 0.5425 0.30836 0.9148 0.0
O52 O 0.5368 0.30779 0.89448 0.0
O53 O 0.55151 0.29007 0.92369 0.0
O54 O 0.51452 0.28849 0.84705 0.0
O55 O 0.50675 0.25774 0.86884 0.0
O56 O 0.15454 0.98226 0.20577 0.0
Cd57 Cd 0.17736 0.99199 0.23186 0.0
Cd58 Cd 0.13679 0.01217 0.24528 0.0
O59 O 0.1211 0.99409 0.21821 0.0
O60 O 0.20567 0.97414 0.22543 0.0
O61 O 0.18486 0.9673 0.2546 0.0
C62 C 0.20246 0.96217 0.24302 0.0
C63 C 0.12016 0.0119 0.27935 0.0
C64 C 0.13236 0.98388 0.20347 0.0
C65 C 0.17888 0.04615 0.23775 0.0
O66 O 0.15686 0.04378 0.2405 0.0
O67 O 0.19069 0.02751 0.23519 0.0
O68 O 0.11128 0.02372 0.26333 0.0
O69 O 0.13769 -0.00129 0.27559 0.0
O70 O 0.28216 0.89924 0.59892 0.0
Cd71 Cd 0.28266 0.9252 0.57465 0.0
Cd72 Cd 0.29727 0.88494 0.54955 0.0
O73 O 0.29158 0.86791 0.57869 0.0
O74 O 0.26016 0.95031 0.58212 0.0
O75 O 0.25488 0.92548 0.55328 0.0
C76 C 0.24745 0.94297 0.56506 0.0
C77 C 0.29367 0.86058 0.51786 0.0
C78 C 0.28601 0.87672 0.59692 0.0
C79 C 0.32879 0.93252 0.55398 0.0
O80 O 0.3245 0.9108 0.5469 0.0
O81 O 0.31443 0.94249 0.56617 0.0
O82 O 0.31023 0.85822 0.53244 0.0
O83 O 0.27809 0.87607 0.52176 0.0
O84 O 0.41744 0.02321 0.69523 0.0
Cd85 Cd 0.39129 0.02073 0.71796 0.0
Cd86 Cd 0.42599 0.00043 0.742 0.0
O87 O 0.44626 0.01121 0.71683 0.0
O88 O 0.36691 0.0433 0.70875 0.0
O89 O 0.3886 0.04815 0.73954 0.0
C90 C 0.37204 0.05552 0.72664 0.0
C91 C 0.44142 0.006 0.77737 0.0
C92 C 0.43909 0.01917 0.69862 0.0
C93 C 0.38211 0.9692 0.73197 0.0
O94 O 0.40369 0.96988 0.7382 0.0
O95 O 0.37318 0.98798 0.72414 0.0
O96 O 0.44973 0.99062 0.76408 0.0
O97 O 0.42469 0.01911 0.77032 0.0
O98 O 0.35018 0.17333 0.08996 0.0
Cd99 Cd 0.33063 0.14882 0.06991 0.0
Cd100 Cd 0.31655 0.18995 0.05211 0.0
O101 O 0.34229 0.2068 0.07261 0.0
O102 O 0.34296 0.11701 0.07747 0.0
O103 O 0.34632 0.13346 0.04496 0.0
C104 C 0.35041 0.1158 0.05796 0.0
C105 C 0.31565 0.19605 0.01505 0.0
C106 C 0.35349 0.19618 0.08764 0.0
C107 C 0.2789 0.15773 0.06985 0.0
O108 O 0.28397 0.17909 0.06322 0.0
O109 O 0.295 0.14297 0.07282 0.0
O110 O 0.32321 0.1761 0.02283 0.0
O111 O 0.31 0.21282 0.0285 0.0
O112 O 0.76758 0.39472 0.09362 0.0
Cd113 Cd 0.76868 0.41717 0.06677 0.0
Cd114 Cd 0.77954 0.3754 0.04692 0.0
O115 O 0.76937 0.35989 0.07557 0.0
O116 O 0.74857 0.4448 0.07297 0.0
O117 O 0.73983 0.41713 0.04673 0.0
C118 C 0.73424 0.4363 0.05741 0.0
C119 C 0.77026 0.35662 0.01322 0.0
C120 C 0.7669 0.37152 0.09332 0.0
C121 C 0.8165 0.41691 0.0489 0.0
O122 O 0.81179 0.39413 0.04637 0.0
O123 O 0.80103 0.43051 0.05595 0.0
O124 O 0.784 0.34701 0.02742 0.0
O125 O 0.76019 0.37612 0.01877 0.0
O126 O 0.90792 0.53599 0.1863 0.0
Cd127 Cd 0.88622 0.53473 0.21268 0.0
Cd128 Cd 0.92676 0.52083 0.23439 0.0
O129 O 0.94099 0.5304 0.20522 0.0
O130 O 0.85988 0.55652 0.20765 0.0
O131 O 0.88839 0.56361 0.23318 0.0
C132 C 0.86919 0.57011 0.22349 0.0
C133 C 0.94932 0.52627 0.26683 0.0
C134 C 0.93025 0.53483 0.18727 0.0
C135 C 0.8834 0.48574 0.23248 0.0
O136 O 0.90536 0.48966 0.23655 0.0
O137 O 0.87163 0.50184 0.22319 0.0
O138 O 0.95441 0.51078 0.25204 0.0
O139 O 0.93238 0.5403 0.26246 0.0
O140 O 0.82771 0.62906 0.58819 0.0
Cd141 Cd 0.81245 0.6064 0.56389 0.0
Cd142 Cd 0.80313 0.64944 0.54578 0.0
O143 O 0.82745 0.66286 0.56941 0.0
O144 O 0.82668 0.57477 0.56794 0.0
O145 O 0.83236 0.59807 0.5392 0.0
C146 C 0.83686 0.57862 0.5498 0.0
C147 C 0.80221 0.66646 0.5114 0.0
C148 C 0.83395 0.65148 0.58624 0.0
C149 C 0.7622 0.61601 0.55794 0.0
O150 O 0.76963 0.63762 0.55389 0.0
O151 O 0.77667 0.59964 0.5612 0.0
O152 O 0.7956 0.67807 0.52827 0.0
O153 O 0.81099 0.64553 0.51424 0.0
O154 O 0.64154 0.49179 0.7014 0.0
Cd155 Cd 0.66595 0.49721 0.72724 0.0
Cd156 Cd 0.62739 0.51438 0.7467 0.0
O157 O 0.60972 0.49866 0.7194 0.0
O158 O 0.69326 0.4783 0.71936 0.0
O159 O 0.672 0.47012 0.74803 0.0
C160 C 0.6894 0.46508 0.73615 0.0
C161 C 0.61209 0.50936 0.78106 0.0
C162 C 0.61923 0.4921 0.70204 0.0
C163 C 0.66848 0.55005 0.74022 0.0
O164 O 0.6467 0.54714 0.74404 0.0
O165 O 0.67988 0.53199 0.73446 0.0
O166 O 0.602 0.52231 0.76652 0.0
O167 O 0.63046 0.49819 0.77578 0.0
O168 O 0.02354 0.78806 0.82866 0.0
Cd169 Cd 0.01326 0.7867 0.86048 0.0
Cd170 Cd 0.98985 0.82703 0.84454 0.0
O171 O 0.00579 0.82007 0.81591 0.0
O172 O 0.02778 0.75766 0.8734 0.0
O173 O 0.9893 0.76079 0.8696 0.0
C174 C 0.00673 0.74862 0.8763 0.0
C175 C 0.95241 0.81194 0.85257 0.0
C176 C 0.01926 0.80269 0.81332 0.0
C177 C 0.0237 0.83723 0.88151 0.0
O178 O 0.01045 0.84677 0.86729 0.0
O179 O 0.0258 0.81435 0.88195 0.0
O180 O 0.95524 0.83294 0.84346 0.0
O181 O 0.97079 0.79994 0.85661 0.0
O182 O 0.02518 0.2223 0.64406 0.0
Cd183 Cd 0.02602 0.2499 0.66825 0.0
Cd184 Cd 0.05086 0.27598 0.63401 0.0
O185 O 0.04394 0.24248 0.61837 0.0
O186 O 0.00258 0.23949 0.69086 0.0
O187 O 0.99852 0.27194 0.67084 0.0
C188 C 0.99046 0.25785 0.68582 0.0
C189 C 0.0474 0.31112 0.6122 0.0
C190 C 0.03384 0.2229 0.62518 0.0
C191 C 0.07767 0.26707 0.67744 0.0
O192 O 0.07742 0.27611 0.65843 0.0
O193 O 0.05893 0.25683 0.68479 0.0
O194 O 0.065 0.29752 0.61099 0.0
O195 O 0.03165 0.30506 0.62602 0.0
O196 O 0.54467 0.24148 0.38804 0.0
Cd197 Cd 0.52458 0.25515 0.36306 0.0
Cd198 Cd 0.50927 0.28582 0.39322 0.0
O199 O 0.53148 0.26664 0.41243 0.0
O200 O 0.54149 0.25963 0.33555 0.0
O201 O 0.53123 0.29 0.35683 0.0
C202 C 0.54161 0.28281 0.33978 0.0
C203 C 0.50725 0.32602 0.40503 0.0
C204 C 0.54431 0.24938 0.40761 0.0
C205 C 0.47385 0.25009 0.36948 0.0
O206 O 0.47801 0.26828 0.3824 0.0
O207 O 0.49042 0.24113 0.35932 0.0
O208 O 0.49695 0.30822 0.41495 0.0
O209 O 0.5186 0.32124 0.38789 0.0
O210 O 0.52598 0.71604 0.14687 0.0
Cd211 Cd 0.52811 0.74349 0.17117 0.0
Cd212 Cd 0.55084 0.76914 0.13659 0.0
O213 O 0.54324 0.736 0.12031 0.0
O214 O 0.50534 0.73165 0.19366 0.0
O215 O 0.50114 0.76567 0.17578 0.0
C216 C 0.49331 0.75043 0.18998 0.0
C217 C 0.54335 0.80531 0.11763 0.0
C218 C 0.5334 0.71651 0.12753 0.0
C219 C 0.57965 0.7614 0.17895 0.0
O220 O 0.57872 0.76978 0.15969 0.0
O221 O 0.56132 0.75101 0.18692 0.0
O222 O 0.5608 0.7924 0.11317 0.0
O223 O 0.53004 0.79782 0.13304 0.0
O224 O 0.90517 0.01432 0.75027 0.0
Cd225 Cd 0.88541 0.01816 0.77751 0.0
Cd226 Cd 0.92422 0.00228 0.79867 0.0
O227 O 0.93798 0.00588 0.76828 0.0
O228 O 0.85901 0.03851 0.76873 0.0
O229 O 0.88644 0.05021 0.79404 0.0
C230 C 0.86749 0.05472 0.78284 0.0
C231 C 0.94789 0.01627 0.8288 0.0
C232 C 0.92685 0.00977 0.75043 0.0
C233 C 0.87951 0.97008 0.7992 0.0
O234 O 0.90157 0.97226 0.80376 0.0
O235 O 0.86931 0.98701 0.7895 0.0
O236 O 0.95243 0.99705 0.81781 0.0
O237 O 0.92985 0.02797 0.8225 0.0
O238 O 0.79564 0.13444 0.53509 0.0
Cd239 Cd 0.79661 0.10997 0.50933 0.0
Cd240 Cd 0.77137 0.14498 0.48778 0.0
O241 O 0.77345 0.16074 0.51854 0.0
O242 O 0.81865 0.0854 0.51978 0.0
O243 O 0.82565 0.10857 0.49143 0.0
C244 C 0.83226 0.09171 0.50433 0.0
C245 C 0.7775 0.17181 0.45895 0.0
C246 C 0.78431 0.15369 0.53558 0.0
C247 C 0.74739 0.095 0.49185 0.0
O248 O 0.74676 0.11595 0.48342 0.0
O249 O 0.76568 0.0891 0.50263 0.0
O250 O 0.75816 0.17076 0.46918 0.0
O251 O 0.79348 0.15721 0.46483 0.0
O252 O 0.66693 0.01656 0.26319 0.0
Cd253 Cd 0.68647 0.01774 0.29237 0.0
Cd254 Cd 0.64575 0.03302 0.30754 0.0
O255 O 0.63255 0.02353 0.27673 0.0
O256 O 0.7145 -0.00114 0.28679 0.0
O257 O 0.68784 0.98741 0.31041 0.0
C258 C 0.70698 0.98323 0.30071 0.0
C259 C 0.62259 0.02271 0.33693 0.0
C260 C 0.64487 0.01879 0.26056 0.0
C261 C 0.68781 0.06938 0.30748 0.0
O262 O 0.66583 0.06557 0.31 0.0
O263 O 0.70022 0.0519 0.3022 0.0
O264 O 0.61763 0.04026 0.32423 0.0
O265 O 0.64078 0.01063 0.33287 0.0
O266 O 0.77769 0.91318 0.03852 0.0
Cd267 Cd 0.7706 0.92264 0.0068 0.0
Cd268 Cd 0.75666 0.87545 0.00159 0.0
O269 O 0.75626 0.87832 0.03504 0.0
O270 O 0.75778 0.95556 0.00474 0.0
O271 O 0.73736 0.92057 0.99667 0.0
C272 C 0.73806 0.94404 -0.00149 0.0
C273 C 0.72623 0.85223 0.98288 0.0
C274 C 0.76799 0.89434 0.04688 0.0
C275 C 0.80147 0.89429 0.98097 0.0
O276 O 0.78935 0.87591 0.98768 0.0
O277 O 0.79537 0.91574 0.98487 0.0
O278 O 0.74241 0.84211 0.99421 0.0
O279 O 0.72697 0.8757 0.98256 0.0
O280 O 0.28183 0.62587 0.03738 0.0
Cd281 Cd 0.28211 0.60416 0.00957 0.0
Cd282 Cd 0.26471 0.64632 0.99111 0.0
O283 O 0.27304 0.66039 0.0219 0.0
O284 O 0.30206 0.5767 0.01772 0.0
O285 O 0.3119 0.60351 0.99272 0.0
C286 C 0.31703 0.58467 0.0039 0.0
C287 C 0.27065 0.67262 0.9619 0.0
C288 C 0.27836 0.64848 0.03879 0.0
C289 C 0.23241 0.5999 0.99197 0.0
O290 O 0.2352 0.62255 0.98821 0.0
O291 O 0.24966 0.5882 -0.00088 0.0
O292 O 0.2535 0.67482 0.9747 0.0
O293 O 0.28478 0.6555 0.96573 0.0
O294 O 0.16078 0.50184 0.75484 0.0
Cd295 Cd 0.18343 0.50229 0.78203 0.0
Cd296 Cd 0.1464 0.52144 0.80162 0.0
O297 O 0.13089 0.51737 0.77086 0.0
O298 O 0.20979 0.48251 0.77343 0.0
O299 O 0.18645 0.47227 0.80018 0.0
C300 C 0.20411 0.46755 0.78854 0.0
C301 C 0.12279 0.51027 0.83066 0.0
C302 C 0.14005 0.50935 0.75384 0.0
C303 C 0.19108 0.55345 0.79942 0.0
O304 O 0.17003 0.55128 0.80569 0.0
O305 O 0.20021 0.53561 0.79029 0.0
O306 O 0.11985 0.52987 0.81993 0.0
O307 O 0.1395 0.49684 0.82505 0.0
O308 O 0.23065 0.39312 0.54953 0.0
Cd309 Cd 0.23492 0.39672 0.51662 0.0
Cd310 Cd 0.22393 0.32598 0.52534 0.0
O311 O 0.21358 0.3589 0.53728 0.0
O312 O 0.20647 0.40843 0.50222 0.0
O313 O 0.24114 0.42977 0.50434 0.0
C314 C 0.21903 0.42813 0.49825 0.0
C315 C 0.19784 0.29861 0.50615 0.0
C316 C 0.22399 0.3711 0.55307 0.0
C317 C 0.26041 0.35267 0.50782 0.0
O318 O 0.25787 0.3311 0.51492 0.0
O319 O 0.24175 0.36343 0.50301 0.0
O320 O 0.20327 0.32001 0.49895 0.0
O321 O 0.20694 0.29262 0.52479 0.0
O322 O 0.39654 0.50209 0.25382 0.0
Cd323 Cd 0.3768 0.50746 0.2808 0.0
Cd324 Cd 0.41646 0.49757 0.30241 0.0
O325 O 0.43072 0.50056 0.27197 0.0
O326 O 0.34991 0.52738 0.2722 0.0
O327 O 0.37889 0.5402 0.29566 0.0
C328 C 0.35938 0.54428 0.2852 0.0
C329 C 0.43232 0.51858 0.33336 0.0
C330 C 0.41879 0.50065 0.25395 0.0
C331 C 0.37502 0.46203 0.30642 0.0
O332 O 0.39721 0.46584 0.30928 0.0
O333 O 0.36301 0.47734 0.29629 0.0
O334 O 0.44278 0.50068 0.32494 0.0
O335 O 0.4135 0.52549 0.3234 0.0
C336 C 0.03087 0.01623 0.97375 0.0
N337 N 0.00108 0.96536 0.0155 0.0
C338 C 0.98097 0.97526 0.00812 0.0
C339 C 0.96152 0.96024 0.001 0.0
C340 C 0.9627 0.93487 0.0018 0.0
C341 C 0.98283 0.92508 0.01122 0.0
C342 C 0.00211 0.94083 0.01789 0.0
Zn343 Zn 0.03115 0.98728 0.01613 0.0
C344 C 0.06772 0.96181 0.99074 0.0
N345 N 0.09387 0.03135 0.00965 0.0
C346 C 0.09256 0.0556 0.00597 0.0
C347 C 0.11431 0.02206 0.01693 0.0
C348 C 0.13408 0.03753 0.02223 0.0
C349 C 0.13288 0.06284 0.01985 0.0
C350 C 0.11201 0.07176 0.01094 0.0
Zn351 Zn 0.06391 0.00933 0.00943 0.0
O352 O 0.01933 0.00192 0.98599 0.0
C353 C 0.02759 0.03509 0.03468 0.0
O354 O 0.05198 0.02322 0.97933 0.0
H355 H 0.11488 0.00275 0.01988 0.0
H356 H 0.98055 0.99478 0.00632 0.0
H357 H 0.07607 0.06258 0.00026 0.0
O358 O 0.01529 0.01502 0.03346 0.0
O359 O 0.04754 0.03681 0.02611 0.0
H360 H 0.01838 0.93338 0.02363 0.0
O361 O 0.07553 0.99502 0.04002 0.0
O362 O 0.04284 0.97327 0.04587 0.0
O363 O 0.07986 0.98192 0.99233 0.0
O364 O 0.04763 0.95971 -0.00095 0.0
C365 C 0.06366 0.98068 0.05206 0.0
H366 H 0.94599 0.96833 0.99418 0.0
H367 H 0.98412 0.90554 0.01221 0.0
H368 H 0.14967 0.02981 0.02929 0.0
H369 H 0.11045 0.09108 0.00849 0.0
C370 C 0.33634 0.76484 0.26106 0.0
N371 N 0.27111 0.74579 0.22936 0.0
C372 C 0.27873 0.76047 0.21313 0.0
C373 C 0.27619 0.75253 0.19143 0.0
C374 C 0.26631 0.72896 0.18632 0.0
C375 C 0.25721 0.71482 0.2033 0.0
C376 C 0.25966 0.72372 0.22478 0.0
Zn377 Zn 0.28241 0.75501 0.2606 0.0
C378 C 0.29804 0.71172 0.28426 0.0
N379 N 0.31019 0.77404 0.32439 0.0
C380 C 0.32207 0.79574 0.32957 0.0
C381 C 0.30143 0.75936 0.34015 0.0
C382 C 0.30308 0.76698 0.36194 0.0
C383 C 0.3138 0.79001 0.36765 0.0
C384 C 0.3241 0.80414 0.35125 0.0
Zn385 Zn 0.2992 0.76522 0.29303 0.0
O386 O 0.31779 0.75844 0.24953 0.0
C387 C 0.28331 0.80837 0.26928 0.0
O388 O 0.3344 0.77016 0.28119 0.0
H389 H 0.29166 0.74239 0.3357 0.0
H390 H 0.28803 0.77783 0.21704 0.0
H391 H 0.32878 0.80718 0.31677 0.0
O392 O 0.27765 0.7921 0.25475 0.0
O393 O 0.29298 0.8023 0.28724 0.0
H394 H 0.2537 0.71232 0.2379 0.0
O395 O 0.26394 0.76038 0.30422 0.0
O396 O 0.24711 0.75146 0.27209 0.0
O397 O 0.30516 0.72788 0.29848 0.0
O398 O 0.28734 0.71812 0.26694 0.0
C399 C 0.24527 0.75526 0.29247 0.0
H400 H 0.28287 0.7644 0.1789 0.0
H401 H 0.24957 0.69648 0.20029 0.0
H402 H 0.29462 0.75561 0.37394 0.0
H403 H 0.33281 0.82187 0.35502 0.0
C404 C 0.5351 0.02039 0.56667 0.0
N405 N 0.54754 0.95788 0.53099 0.0
C406 C 0.56278 0.95163 0.54732 0.0
C407 C 0.56254 0.92765 0.55432 0.0
C408 C 0.54621 0.91016 0.54459 0.0
C409 C 0.53154 0.91678 0.52704 0.0
C410 C 0.53266 0.94091 0.52032 0.0
Zn411 Zn 0.54368 0.99363 0.52551 0.0
C412 C 0.49077 0.0018 0.5206 0.0
N413 N 0.53124 0.06738 0.515 0.0
C414 C 0.54585 0.08264 0.52787 0.0
C415 C 0.51824 0.0758 0.49797 0.0
C416 C 0.52096 0.10032 0.49244 0.0
C417 C 0.53741 0.11586 0.50445 0.0
C418 C 0.54937 0.10707 0.52274 0.0
Zn419 Zn 0.53414 0.03132 0.51952 0.0
O420 O 0.54091 -0.0002 0.55966 0.0
C421 C 0.58701 0.02331 0.52409 0.0
O422 O 0.53211 0.03728 0.55321 0.0
H423 H 0.5069 0.06326 0.48791 0.0
H424 H 0.57424 0.96551 0.55572 0.0
H425 H 0.55608 0.07555 0.54131 0.0
O426 O 0.58079 0.0012 0.52757 0.0
O427 O 0.57123 0.03841 0.52102 0.0
H428 H 0.52077 0.94632 0.50732 0.0
O429 O 0.53599 0.02496 0.48543 0.0
O430 O 0.54645 0.98778 0.49161 0.0
O431 O 0.49714 0.02408 0.51795 0.0
O432 O 0.50643 0.9864 0.52322 0.0
C433 C 0.54251 0.00467 0.47829 0.0
H434 H 0.57395 0.92316 0.56806 0.0
H435 H 0.51885 0.90364 0.51913 0.0
H436 H 0.51162 0.10665 0.47808 0.0
H437 H 0.56215 0.11868 0.5323 0.0
C438 C 0.29456 0.21065 0.761 0.0
N439 N 0.26965 0.24201 0.81727 0.0
C440 C 0.2601 0.21927 0.82129 0.0
C441 C 0.25922 0.21108 0.8427 0.0
C442 C 0.26766 0.22674 0.85993 0.0
C443 C 0.27595 0.25055 0.8554 0.0
C444 C 0.2771 0.25774 0.83386 0.0
Zn445 Zn 0.27839 0.25185 0.78666 0.0
C446 C 0.3321 0.2647 0.78737 0.0
N447 N 0.30108 0.27413 0.72478 0.0
C448 C 0.29274 0.25828 0.70857 0.0
C449 C 0.3099 0.29699 0.72026 0.0
C450 C 0.30808 0.30552 0.69897 0.0
C451 C 0.29723 0.29021 0.68244 0.0
C452 C 0.29097 0.26589 0.68716 0.0
Zn453 Zn 0.29266 0.26472 0.75555 0.0
O454 O 0.28493 0.21505 0.77883 0.0
C455 C 0.23889 0.25278 0.75445 0.0
O456 O 0.29922 0.22808 0.7483 0.0
H457 H 0.31644 0.3093 0.73338 0.0
H458 H 0.25435 0.20702 0.80788 0.0
H459 H 0.28533 0.24038 0.71236 0.0
O460 O 0.24217 0.24671 0.77425 0.0
O461 O 0.2567 0.25967 0.74374 0.0
H462 H 0.2853 0.27543 0.83043 0.0
O463 O 0.28622 0.30104 0.76318 0.0
O464 O 0.27191 0.28907 0.79407 0.0
O465 O 0.3282 0.27043 0.7676 0.0
O466 O 0.31483 0.25704 0.79852 0.0
C467 C 0.27672 0.3061 0.78092 0.0
H468 H 0.25279 0.19253 0.84573 0.0
H469 H 0.28299 0.26295 0.86832 0.0
H470 H 0.31308 0.32445 0.6959 0.0
H471 H 0.28281 0.25348 0.67475 0.0
C472 C 0.0874 0.00756 0.53188 0.0
N473 N 0.05513 0.03735 0.47602 0.0
C474 C 0.07653 0.0485 0.4721 0.0
C475 C 0.08397 0.0505 0.45066 0.0
C476 C 0.06922 0.0409 0.43319 0.0
C477 C 0.0468 0.03066 0.43779 0.0
C478 C 0.04013 0.02906 0.4593 0.0
Zn479 Zn 0.04608 0.02613 0.50646 0.0
C480 C 0.0348 0.97083 0.5026 0.0
N481 N 0.02581 0.99615 0.56702 0.0
C482 C 0.03979 0.00325 0.5848 0.0
C483 C 0.00399 0.98511 0.56923 0.0
C484 C 0.99471 0.98271 0.58987 0.0
C485 C 0.00816 0.99142 0.60846 0.0
C486 C 0.03141 0.00076 0.60573 0.0
Zn487 Zn 0.03564 0.00809 0.53713 0.0
O488 O 0.08205 0.01871 0.51451 0.0
C489 C 0.04664 0.06353 0.54093 0.0
O490 O 0.07123 0.00125 0.5447 0.0
H491 H 0.99313 0.97957 0.55491 0.0
H492 H 0.08833 0.05472 0.4856 0.0
H493 H 0.057 0.01221 0.58275 0.0
O494 O 0.05099 0.06206 0.52074 0.0
O495 O 0.04078 0.04413 0.55093 0.0
H496 H 0.02347 0.01963 0.46264 0.0
O497 O 0.00016 0.01533 0.52916 0.0
O498 O 0.01009 0.03328 0.49905 0.0
O499 O 0.03056 0.9721 0.5228 0.0
O500 O 0.04086 0.99029 0.49287 0.0
C501 C 0.99429 0.02667 0.51213 0.0
H502 H 0.10133 0.05878 0.44786 0.0
H503 H 0.03497 0.02254 0.42503 0.0
H504 H 0.97666 0.9755 0.591 0.0
H505 H 0.04273 0.0071 0.61955 0.0
C506 C 0.27786 0.77662 0.73247 0.0
N507 N 0.33117 0.75579 0.77584 0.0
C508 C 0.33896 0.74003 0.76082 0.0
C509 C 0.36283 0.73548 0.76068 0.0
C510 C 0.37875 0.74738 0.77608 0.0
C511 C 0.37014 0.7632 0.79161 0.0
C512 C 0.34614 0.7671 0.79124 0.0
Zn513 Zn 0.2968 0.76378 0.77534 0.0
C514 C 0.29386 0.81855 0.78061 0.0
N515 N 0.22637 0.7841 0.77767 0.0
C516 C 0.2123 0.77039 0.76306 0.0
C517 C 0.21761 0.80201 0.78998 0.0
C518 C 0.1936 0.80637 0.78804 0.0
C519 C 0.17879 0.79193 0.77348 0.0
C520 C 0.18832 0.77386 0.76087 0.0
Zn521 Zn 0.26101 0.77656 0.77884 0.0
O522 O 0.29667 0.76903 0.74114 0.0
C523 C 0.264 0.7216 0.77448 0.0
O524 O 0.26041 0.77949 0.74434 0.0
H525 H 0.22917 0.81278 0.80136 0.0
H526 H 0.3267 0.73133 0.74872 0.0
H527 H 0.21964 0.75659 0.75308 0.0
O528 O 0.28571 0.72627 0.7712 0.0
O529 O 0.25076 0.73905 0.77739 0.0
H530 H 0.33952 0.77947 0.8031 0.0
O531 O 0.26212 0.77372 0.8136 0.0
O532 O 0.29661 0.75879 0.80924 0.0
O533 O 0.27173 0.81386 0.78067 0.0
O534 O 0.30756 0.80116 0.77966 0.0
C535 C 0.28021 0.76395 0.82166 0.0
H536 H 0.36887 0.72338 0.74825 0.0
H537 H 0.38186 0.77256 0.80382 0.0
H538 H 0.18657 0.82033 0.79815 0.0
H539 H 0.17726 0.76242 0.74953 0.0
C540 C 0.52775 0.96474 0.03883 0.0
N541 N 0.54986 0.03152 0.06835 0.0
C542 C 0.53601 0.02446 0.08495 0.0
C543 C 0.54477 0.02629 0.10646 0.0
C544 C 0.56827 0.03482 0.11102 0.0
C545 C 0.58166 0.0436 0.09372 0.0
C546 C 0.57199 0.0419 0.07239 0.0
Zn547 Zn 0.53878 0.01997 0.03758 0.0
C548 C 0.5784 0.00353 0.01212 0.0
N549 N 0.5154 0.99107 0.97512 0.0
C550 C 0.4934 0.98018 0.97139 0.0
C551 C 0.52905 0.99805 0.95833 0.0
C552 C 0.5203 0.99523 0.93687 0.0
C553 C 0.49715 0.98569 0.93273 0.0
C554 C 0.48372 0.9776 0.95011 0.0
Zn555 Zn 0.52655 0.00284 0.00572 0.0
O556 O 0.53439 0.98389 0.04991 0.0
C557 C 0.48692 0.01997 0.03068 0.0
O558 O 0.5227 0.96663 0.01852 0.0
H559 H 0.54621 0.00724 0.96156 0.0
H560 H 0.51861 0.01591 0.08151 0.0
H561 H 0.48282 0.97478 0.98494 0.0
O562 O 0.50364 0.02642 0.0443 0.0
O563 O 0.4915 0.00935 0.01298 0.0
H564 H 0.58275 0.04741 0.05899 0.0
O565 O 0.53077 0.03915 0.99345 0.0
O566 O 0.54311 0.05594 0.02488 0.0
O567 O 0.5616 0.99681 -0.00129 0.0
O568 O 0.57385 0.01354 0.03014 0.0
C569 C 0.53789 0.0581 0.00464 0.0
H570 H 0.53353 0.01995 0.11929 0.0
H571 H 0.59988 0.05027 0.09637 0.0
H572 H 0.53094 0.00191 0.92372 0.0
H573 H 0.46571 0.97024 0.94731 0.0
C574 C 0.26224 0.20707 0.27899 0.0
N575 N 0.31534 0.25478 0.25608 0.0
C576 C 0.32769 0.23536 0.25043 0.0
C577 C 0.34406 0.23753 0.23415 0.0
C578 C 0.34775 0.2599 0.22365 0.0
C579 C 0.33528 0.2798 0.23032 0.0
C580 C 0.31902 0.2768 0.24657 0.0
Zn581 Zn 0.29186 0.25194 0.28006 0.0
C582 C 0.24716 0.27248 0.26824 0.0
N583 N 0.24569 0.24942 0.33289 0.0
C584 C 0.24594 0.2308 0.34722 0.0
C585 C 0.22971 0.26678 0.33424 0.0
C586 C 0.2134 0.26603 0.35056 0.0
C587 C 0.21411 0.24789 0.36643 0.0
C588 C 0.23048 0.22985 0.36434 0.0
Zn589 Zn 0.26915 0.25157 0.30854 0.0
O590 O 0.2774 0.21829 0.26758 0.0
C591 C 0.31362 0.22933 0.31911 0.0
O592 O 0.25644 0.2166 0.29688 0.0
H593 H 0.22971 0.28153 0.32283 0.0
H594 H 0.32458 0.21809 0.25833 0.0
H595 H 0.25848 0.2169 0.34568 0.0
O596 O 0.31597 0.23394 0.29912 0.0
O597 O 0.29541 0.23574 0.32851 0.0
H598 H 0.30916 0.29207 0.25146 0.0
O599 O 0.28199 0.28688 0.31987 0.0
O600 O 0.3062 0.28533 0.29304 0.0
O601 O 0.24363 0.2668 0.28785 0.0
O602 O 0.26713 0.2694 0.2605 0.0
C603 C 0.29905 0.29639 0.30959 0.0
H604 H 0.35293 0.22155 0.2292 0.0
H605 H 0.33766 0.29736 0.22269 0.0
H606 H 0.20075 0.27997 0.35093 0.0
H607 H 0.23206 0.21564 0.37621 0.0
C608 C 0.573 0.50025 0.03112 0.0
N609 N 0.54058 0.53081 0.97588 0.0
C610 C 0.56325 0.53844 0.97208 0.0
C611 C 0.57119 0.53869 0.95079 0.0
C612 C 0.55552 0.53146 0.93317 0.0
C613 C 0.53171 0.52608 0.93752 0.0
C614 C 0.5247 0.52543 0.959 0.0
Zn615 Zn 0.53133 0.51927 0.0063 0.0
C616 C 0.52032 0.46394 0.00205 0.0
N617 N 0.51212 0.489 0.06729 0.0
C618 C 0.52661 0.49599 0.08478 0.0
C619 C 0.49033 0.47809 0.07003 0.0
C620 C 0.48175 0.47547 0.09096 0.0
C621 C 0.49581 0.48392 0.10929 0.0
C622 C 0.5189 0.49335 0.10595 0.0
Zn623 Zn 0.52155 0.50106 0.03718 0.0
O624 O 0.56706 0.51126 0.01388 0.0
C625 C 0.53311 0.55648 0.04122 0.0
O626 O 0.55731 0.49407 0.04445 0.0
H627 H 0.47901 0.47274 0.05595 0.0
H628 H 0.5757 0.54269 0.9856 0.0
H629 H 0.54374 0.50493 0.08236 0.0
O630 O 0.53702 0.55501 0.02093 0.0
O631 O 0.52701 0.53712 0.0512 0.0
H632 H 0.50688 0.5189 0.9621 0.0
O633 O 0.48575 0.50843 0.02949 0.0
O634 O 0.4954 0.52689 -0.00049 0.0
O635 O 0.51658 0.46501 0.02239 0.0
O636 O 0.52563 0.4836 0.99226 0.0
C637 C 0.47971 0.52008 0.01265 0.0
H638 H 0.58973 0.54299 0.94841 0.0
H639 H 0.51871 0.5212 0.92455 0.0
H640 H 0.46378 0.46823 0.09258 0.0
H641 H 0.53066 0.49955 0.11951 0.0
C642 C 0.77146 0.29184 0.23935 0.0
N643 N 0.82726 0.26162 0.27303 0.0
C644 C 0.82893 0.24551 0.25618 0.0
C645 C 0.85088 0.23765 0.25085 0.0
C646 C 0.87116 0.24661 0.26296 0.0
C647 C 0.86878 0.2625 0.28075 0.0
C648 C 0.84653 0.26979 0.28554 0.0
Zn649 Zn 0.79617 0.27593 0.27891 0.0
C650 C 0.80332 0.33031 0.28465 0.0
N651 N 0.73299 0.30871 0.29301 0.0
C652 C 0.71424 0.30016 0.28004 0.0
C653 C 0.73119 0.32743 0.30754 0.0
C654 C 0.70967 0.33817 0.30954 0.0
C655 C 0.68999 0.32954 0.29637 0.0
C656 C 0.69256 0.3103 0.28147 0.0
Zn657 Zn 0.76405 0.29367 0.28789 0.0
O658 O 0.78989 0.28124 0.24511 0.0
C659 C 0.75728 0.23903 0.28202 0.0
O660 O 0.75757 0.29806 0.25384 0.0
H661 H 0.74645 0.33407 0.31752 0.0
H662 H 0.81332 0.23934 0.24647 0.0
H663 H 0.71609 0.28537 0.2685 0.0
O664 O 0.77865 0.24114 0.27673 0.0
O665 O 0.74678 0.25806 0.28692 0.0
H666 H 0.84474 0.28256 0.2989 0.0
O667 O 0.77075 0.289 0.32191 0.0
O668 O 0.80205 0.2704 0.31271 0.0
O669 O 0.78162 0.32882 0.28892 0.0
O670 O 0.81362 0.31091 0.28093 0.0
C671 C 0.78848 0.27701 0.32736 0.0
H672 H 0.85208 0.22552 0.23689 0.0
H673 H 0.88401 0.26954 0.29061 0.0
H674 H 0.7084 0.35292 0.32129 0.0
H675 H 0.67776 0.30254 0.27143 0.0
C676 C 0.03898 0.46615 0.52578 0.0
N677 N 0.05133 0.53159 0.56075 0.0
C678 C 0.03927 0.51876 0.57592 0.0
C679 C 0.04669 0.52034 0.59782 0.0
C680 C 0.06669 0.53536 0.6043 0.0
C681 C 0.07791 0.54964 0.58849 0.0
C682 C 0.06993 0.5474 0.56665 0.0
Zn683 Zn 0.04341 0.52224 0.52891 0.0
C684 C 0.08505 0.51493 0.50388 0.0
N685 N 0.02488 0.4981 0.46385 0.0
C686 C 0.00505 0.48463 0.45677 0.0
C687 C 0.03837 0.51089 0.44962 0.0
C688 C 0.03136 0.51182 0.42772 0.0
C689 C 0.01016 0.49964 0.42024 0.0
C690 C 0.99735 0.48505 0.43478 0.0
Zn691 Zn 0.03257 0.50658 0.4961 0.0
O692 O 0.04409 0.485 0.53773 0.0
C693 C 0.9908 0.51463 0.52038 0.0
O694 O 0.0327 0.46878 0.50579 0.0
H695 H 0.05376 0.52197 0.45544 0.0
H696 H 0.02467 0.5061 0.57089 0.0
H697 H 0.9944 0.47485 0.46835 0.0
O698 O 0.00663 0.52208 0.53462 0.0
O699 O 0.99681 0.50669 0.50204 0.0
H700 H 0.07927 0.55739 0.5543 0.0
O701 O 0.03213 0.54425 0.48738 0.0
O702 O 0.04335 0.55934 0.51973 0.0
O703 O 0.06885 0.50686 0.49036 0.0
O704 O 0.07966 0.52249 0.52258 0.0
C705 C 0.03741 0.56265 0.49986 0.0
H706 H 0.03765 0.50871 0.60929 0.0
H707 H 0.09319 0.56175 0.59282 0.0
H708 H 0.04188 0.52297 0.41693 0.0
H709 H 0.98085 0.47541 0.42953 0.0
C710 C 0.79887 0.72822 0.2619 0.0
N711 N 0.77284 0.75353 0.32044 0.0
C712 C 0.76146 0.73131 0.32293 0.0
C713 C 0.76023 0.72118 0.34366 0.0
C714 C 0.77092 0.73405 0.36186 0.0
C715 C 0.78166 0.75735 0.35876 0.0
C716 C 0.78234 0.76677 0.33792 0.0
Zn717 Zn 0.78087 0.76671 0.29069 0.0
C718 C 0.83405 0.78152 0.29164 0.0
N719 N 0.80288 0.79552 0.23063 0.0
C720 C 0.79671 0.78205 0.21227 0.0
C721 C 0.81141 0.81912 0.22952 0.0
C722 C 0.81169 0.83077 0.20952 0.0
C723 C 0.80375 0.81779 0.1904 0.0
C724 C 0.79749 0.79273 0.19189 0.0
Zn725 Zn 0.79426 0.78169 0.25998 0.0
O726 O 0.78901 0.73112 0.27992 0.0
C727 C 0.7413 0.76686 0.2582 0.0
O728 O 0.80285 0.74651 0.24994 0.0
H729 H 0.81656 0.82945 0.24428 0.0
H730 H 0.75418 0.72104 0.30877 0.0
H731 H 0.7899 0.76334 0.21345 0.0
O732 O 0.74498 0.76051 0.27788 0.0
O733 O 0.75864 0.77538 0.24762 0.0
H734 H 0.79162 0.78423 0.33558 0.0
O735 O 0.78579 0.81664 0.27057 0.0
O736 O 0.77258 0.80262 0.30116 0.0
O737 O 0.82951 0.788 0.27222 0.0
O738 O 0.81721 0.77282 0.30278 0.0
C739 C 0.77652 0.82046 0.28866 0.0
H740 H 0.75151 0.70328 0.34533 0.0
H741 H 0.79057 0.7678 0.37212 0.0
H742 H 0.81665 0.85009 0.20939 0.0
H743 H 0.79209 0.78165 0.17759 0.0
C744 C 0.83268 0.27393 0.75627 0.0
N745 N 0.76797 0.24969 0.7254 0.0
C746 C 0.77654 0.26308 0.70872 0.0
C747 C 0.77386 0.25416 0.68732 0.0
C748 C 0.76215 0.23125 0.68296 0.0
C749 C 0.75211 0.21855 0.70035 0.0
C750 C 0.75532 0.22813 0.72159 0.0
Zn751 Zn 0.7791 0.26053 0.75622 0.0
C752 C 0.79819 0.21894 0.78065 0.0
N753 N 0.80594 0.28299 0.81973 0.0
C754 C 0.81303 0.30671 0.82436 0.0
C755 C 0.8004 0.26726 0.83591 0.0
C756 C 0.80035 0.27552 0.8575 0.0
C757 C 0.80548 0.30031 0.8624 0.0
C758 C 0.81262 0.31589 0.84573 0.0
Zn759 Zn 0.79548 0.27218 0.7885 0.0
O760 O 0.81441 0.26665 0.74468 0.0
C761 C 0.77594 0.3135 0.76342 0.0
O762 O 0.8304 0.27887 0.77644 0.0
H763 H 0.79411 0.24869 0.83199 0.0
H764 H 0.78672 0.28008 0.71211 0.0
H765 H 0.81735 0.31898 0.81134 0.0
O766 O 0.77135 0.29658 0.74928 0.0
O767 O 0.78633 0.30859 0.78142 0.0
H768 H 0.74872 0.21778 0.73512 0.0
O769 O 0.76072 0.26522 0.80022 0.0
O770 O 0.74395 0.25458 0.76844 0.0
O771 O 0.80412 0.23564 0.79475 0.0
O772 O 0.78693 0.22434 0.76327 0.0
C773 C 0.74216 0.25864 0.78881 0.0
H774 H 0.78219 0.26449 0.67457 0.0
H775 H 0.74261 0.20099 0.69769 0.0
H776 H 0.79452 0.26307 0.86996 0.0
H777 H 0.81675 0.33515 0.84904 0.0
C778 C 0.75389 0.71268 0.77739 0.0
N779 N 0.8144 0.7486 0.75452 0.0
C780 C 0.82306 0.72609 0.75343 0.0
C781 C 0.83831 0.72042 0.7371 0.0
C782 C 0.84496 0.73823 0.72195 0.0
C783 C 0.83753 0.76195 0.72487 0.0
C784 C 0.82189 0.76665 0.74109 0.0
Zn785 Zn 0.78767 0.75489 0.77454 0.0
C786 C 0.747 0.7741 0.75046 0.0
N787 N 0.73194 0.77017 0.81659 0.0
C788 C 0.7212 0.75142 0.82735 0.0
C789 C 0.72543 0.79336 0.8195 0.0
C790 C 0.70933 0.7987 0.83517 0.0
C791 C 0.69888 0.77989 0.84763 0.0
C792 C 0.70414 0.75578 0.8424 0.0
Zn793 Zn 0.75916 0.76373 0.79662 0.0
O794 O 0.77272 0.71942 0.76824 0.0
C795 C 0.80029 0.74506 0.82063 0.0
O796 O 0.74481 0.72737 0.79037 0.0
H797 H 0.73346 0.80806 0.81037 0.0
H798 H 0.81708 0.71208 0.76444 0.0
H799 H 0.72631 0.73299 0.82491 0.0
O800 O 0.80731 0.743 0.80133 0.0
O801 O 0.78 0.75276 0.82368 0.0
H802 H 0.81483 0.78445 0.74219 0.0
O803 O 0.77421 0.79983 0.80215 0.0
O804 O 0.80254 0.79045 0.78099 0.0
O805 O 0.73918 0.77513 0.76954 0.0
O806 O 0.76745 0.76674 0.74777 0.0
C807 C 0.79346 0.80579 0.79329 0.0
H808 H 0.84335 0.70181 0.73546 0.0
H809 H 0.84257 0.7764 0.71389 0.0
H810 H 0.70645 0.81771 0.83807 0.0
H811 H 0.69609 0.74023 0.85039 0.0
C812 C 0.48178 0.53164 0.48897 0.0
N813 N 0.45212 0.48551 0.5363 0.0
C814 C 0.43161 0.49548 0.53019 0.0
C815 C 0.41027 0.48154 0.53038 0.0
C816 C 0.41008 0.4572 0.53711 0.0
C817 C 0.4314 0.44792 0.54453 0.0
C818 C 0.45232 0.46237 0.54379 0.0
Zn819 Zn 0.48352 0.50366 0.53124 0.0
C820 C 0.51159 0.47286 0.5023 0.0
N821 N 0.54966 0.53792 0.51741 0.0
C822 C 0.55245 0.56258 0.51568 0.0
C823 C 0.56852 0.52387 0.51881 0.0
C824 C 0.59131 0.53459 0.51961 0.0
C825 C 0.59478 0.56007 0.51906 0.0
C826 C 0.57505 0.57413 0.51654 0.0
Zn827 Zn 0.51758 0.52114 0.52204 0.0
O828 O 0.46953 0.51771 0.50112 0.0
C829 C 0.48903 0.55165 0.55099 0.0
O830 O 0.50315 0.53742 0.49459 0.0
H831 H 0.56592 0.50434 0.52049 0.0
H832 H 0.43189 0.51392 0.52428 0.0
H833 H 0.53716 0.57337 0.5146 0.0
O834 O 0.47364 0.53401 0.54871 0.0
O835 O 0.50865 0.55065 0.54189 0.0
H836 H 0.46885 0.45472 0.54842 0.0
O837 O 0.53243 0.5044 0.54977 0.0
O838 O 0.4982 0.49033 0.56095 0.0
O839 O 0.5256 0.49166 0.50202 0.0
O840 O 0.49359 0.47294 0.51386 0.0
C841 C 0.52045 0.49317 0.56385 0.0
H842 H 0.39433 0.48942 0.5243 0.0
H843 H 0.43205 0.42943 0.55028 0.0
H844 H 0.60599 0.52308 0.52193 0.0
H845 H 0.57705 0.59383 0.51589 0.0
C846 C 0.01262 0.52397 0.04663 0.0
N847 N 0.03874 0.45901 0.02463 0.0
C848 C 0.0525 0.4595 0.04333 0.0
C849 C 0.05634 0.43792 0.05423 0.0
C850 C 0.04569 0.41581 0.04585 0.0
C851 C 0.03252 0.41573 0.02601 0.0
C852 C 0.02932 0.43766 0.01557 0.0
Zn853 Zn 0.02826 0.49055 0.0118 0.0
C854 C 0.97521 0.48655 0.00408 0.0
N855 N 0.00222 0.5549 0.98548 0.0
C856 C 0.01283 0.5765 0.9928 0.0
C857 C 0.98587 0.55383 0.96861 0.0
C858 C 0.98029 0.57502 0.95784 0.0
C859 C 0.99196 0.59745 0.96425 0.0
C860 C 0.00808 0.59804 0.98229 0.0
Zn861 Zn 0.01328 0.52364 -0.00154 0.0
O862 O 0.02149 0.50358 0.04348 0.0
C863 C 0.06648 0.52739 0.00644 0.0
O864 O 0.00821 0.53724 0.03038 0.0
H865 H 0.97769 0.53642 0.96306 0.0
H866 H 0.05966 0.47675 0.05028 0.0
H867 H 0.02572 0.57692 0.00628 0.0
O868 O 0.06306 0.50629 0.01427 0.0
O869 O 0.04891 0.53851 -0.00087 0.0
H870 H 0.01844 0.43773 0.0007 0.0
O871 O 0.01831 0.50985 0.96668 0.0
O872 O 0.03524 0.4781 0.97986 0.0
O873 O 0.97819 0.50841 0.99791 0.0
O874 O 0.99313 0.47495 0.00951 0.0
C875 C 0.02913 0.49059 0.96356 0.0
H876 H 0.06654 0.43867 0.06956 0.0
H877 H 0.02434 0.39895 0.01891 0.0
H878 H 0.96743 0.5737 0.94429 0.0
H879 H 0.01785 0.61473 0.98769 0.0
H880 H 0.02675 0.17611 0.09891 0.0
H881 H 0.04393 0.12209 0.14648 0.0
H882 H 0.01323 0.14384 0.07291 0.0
H883 H 0.03104 0.08974 0.12015 0.0
H884 H 0.00151 0.03447 0.07117 0.0
H885 H 0.99901 0.0686 0.09713 0.0
H886 H 0.03649 0.11622 0.05319 0.0
H887 H 0.03866 0.08253 0.02752 0.0
C888 C 0.02761 0.15733 0.10383 0.0
C889 C 0.0369 0.15158 0.12456 0.0
C890 C 0.01974 0.13887 0.08897 0.0
C891 C 0.02125 0.11429 0.09443 0.0
C892 C 0.02938 0.10853 0.11556 0.0
C893 C 0.03706 0.12704 0.13054 0.0
C894 C 0.00841 0.05247 0.06685 0.0
C895 C 0.02048 0.05595 0.04755 0.0
C896 C 0.0072 0.07189 0.08174 0.0
C897 C 0.01779 0.09498 0.07729 0.0
C898 C 0.02797 0.09875 0.05706 0.0
C899 C 0.02935 0.07942 0.04238 0.0
H900 H 0.10003 0.78201 0.32508 0.0
H901 H 0.12883 0.74595 0.38127 0.0
H902 H 0.13693 0.77768 0.30661 0.0
H903 H 0.16525 0.7411 0.36272 0.0
H904 H 0.23653 0.76271 0.33541 0.0
H905 H 0.19882 0.76504 0.35223 0.0
H906 H 0.16264 0.74979 0.28974 0.0
H907 H 0.20075 0.74802 0.27267 0.0
C908 C 0.11412 0.77299 0.33345 0.0
C909 C 0.11139 0.76453 0.3548 0.0
C910 C 0.13528 0.77036 0.32278 0.0
C911 C 0.15431 0.75919 0.33315 0.0
C912 C 0.15129 0.75026 0.3543 0.0
C913 C 0.13024 0.75294 0.36495 0.0
C914 C 0.22059 0.75969 0.32518 0.0
C915 C 0.22181 0.75511 0.30262 0.0
C916 C 0.19883 0.7609 0.33491 0.0
C917 C 0.17748 0.75751 0.32246 0.0
C918 C 0.17865 0.75276 0.29987 0.0
C919 C 0.20053 0.75154 0.29008 0.0
H920 H 0.51719 0.80467 0.64167 0.0
H921 H 0.55536 0.76428 0.59497 0.0
H922 H 0.51609 0.83872 0.61648 0.0
H923 H 0.55429 0.7982 0.57009 0.0
H924 H 0.58002 0.87865 0.55445 0.0
H925 H 0.57529 0.84085 0.57468 0.0
H926 H 0.50051 0.84991 0.57754 0.0
H927 H 0.50525 0.88774 0.55718 0.0
C928 C 0.525 0.80292 0.62596 0.0
C929 C 0.53659 0.78197 0.62041 0.0
C930 C 0.52428 0.82231 0.61154 0.0
C931 C 0.5353 0.82103 0.5915 0.0
C932 C 0.54591 0.79967 0.58557 0.0
C933 C 0.54646 0.78028 0.59983 0.0
C934 C 0.56256 0.87231 0.55913 0.0
C935 C 0.54299 0.88592 0.55427 0.0
C936 C 0.55982 0.85072 0.57059 0.0
C937 C 0.53753 0.84261 0.57763 0.0
C938 C 0.51786 0.85591 0.57232 0.0
C939 C 0.52054 0.87734 0.56056 0.0
H940 H 0.45965 0.25351 0.87147 0.0
H941 H 0.48547 0.28252 0.81156 0.0
H942 H 0.41944 0.25261 0.85622 0.0
H943 H 0.44557 0.27985 0.79541 0.0
H944 H 0.37003 0.29476 0.7769 0.0
H945 H 0.41008 0.296 0.79273 0.0
H946 H 0.38989 0.23602 0.83426 0.0
H947 H 0.34958 0.2364 0.81956 0.0
C948 C 0.45673 0.25915 0.85479 0.0
C949 C 0.47575 0.26808 0.84274 0.0
C950 C 0.43355 0.25854 0.84588 0.0
C951 C 0.42872 0.26624 0.82439 0.0
C952 C 0.44808 0.2744 0.81216 0.0
C953 C 0.47116 0.27565 0.82132 0.0
C954 C 0.37421 0.282 0.78954 0.0
C955 C 0.35658 0.26562 0.79706 0.0
C956 C 0.39735 0.28246 0.79854 0.0
C957 C 0.40376 0.26602 0.81491 0.0
C958 C 0.38595 0.24945 0.82217 0.0
C959 C 0.36269 0.2495 0.8136 0.0
H960 H 0.02566 0.85587 0.40231 0.0
H961 H 0.05922 0.82291 0.45794 0.0
H962 H 0.02062 0.89238 0.42411 0.0
H963 H 0.05478 0.85992 0.4797 0.0
H964 H 0.0261 0.92416 0.51771 0.0
H965 H 0.02733 0.88564 0.49708 0.0
H966 H 0.04429 0.92588 0.43933 0.0
H967 H 0.04243 0.96388 0.45953 0.0
C968 C 0.0321 0.85643 0.41918 0.0
C969 C 0.04304 0.83644 0.42826 0.0
C970 C 0.02928 0.87748 0.43172 0.0
C971 C 0.03747 0.8793 0.45369 0.0
C972 C 0.04804 0.85914 0.46292 0.0
C973 C 0.05076 0.83795 0.45038 0.0
C974 C 0.02983 0.92471 0.50056 0.0
C975 C 0.03409 0.94717 0.49032 0.0
C976 C 0.03074 0.90263 0.48875 0.0
C977 C 0.03586 0.90255 0.46646 0.0
C978 C 0.03987 0.92509 0.45631 0.0
C979 C 0.03894 0.947 0.46801 0.0
H980 H 0.50978 0.75786 0.71894 0.0
H981 H 0.51866 0.69548 0.75981 0.0
H982 H 0.4748 0.76723 0.7382 0.0
H983 H 0.48365 0.70505 0.77923 0.0
H984 H 0.40064 0.70498 0.77088 0.0
H985 H 0.44215 0.70049 0.76425 0.0
H986 H 0.45617 0.77834 0.77265 0.0
H987 H 0.41446 0.78288 0.77886 0.0
C988 C 0.50464 0.74655 0.73244 0.0
C989 C 0.51667 0.72567 0.73759 0.0
C990 C 0.48467 0.75201 0.74358 0.0
C991 C 0.47634 0.73664 0.76 0.0
C992 C 0.48954 0.71698 0.76641 0.0
C993 C 0.50962 0.71158 0.75535 0.0
C994 C 0.41266 0.72107 0.77156 0.0
C995 C 0.40433 0.74428 0.77511 0.0
C996 C 0.43647 0.71849 0.76806 0.0
C997 C 0.45236 0.7391 0.76791 0.0
C998 C 0.44426 0.76219 0.77259 0.0
C999 C 0.42044 0.76475 0.77623 0.0
H1000 H 0.58152 0.20429 0.96175 0.0
H1001 H 0.51896 0.1842 0.9216 0.0
H1002 H 0.57736 0.16557 0.98038 0.0
H1003 H 0.51445 0.1456 0.94059 0.0
H1004 H 0.52894 0.06807 0.96167 0.0
H1005 H 0.53225 0.10728 0.94385 0.0
H1006 H 0.55412 0.14248 0.00551 0.0
H1007 H 0.55128 0.10301 0.0233 0.0
C1008 C 0.56674 0.19169 0.95699 0.0
C1009 C 0.55061 0.19741 0.9401 0.0
C1010 C 0.56427 0.16947 0.9678 0.0
C1011 C 0.54557 0.15229 0.96206 0.0
C1012 C 0.52928 0.15815 0.9453 0.0
C1013 C 0.53177 0.1804 0.93447 0.0
C1014 C 0.53445 0.08415 0.97149 0.0
C1015 C 0.53987 0.08229 0.99397 0.0
C1016 C 0.53619 0.10674 0.96125 0.0
C1017 C 0.54339 0.12821 0.97317 0.0
C1018 C 0.54879 0.12636 0.9957 0.0
C1019 C 0.54705 0.10371 0.00596 0.0
H1020 H 0.13545 0.25331 0.16605 0.0
H1021 H 0.12054 0.21185 0.22371 0.0
H1022 H 0.1699 0.27369 0.18525 0.0
H1023 H 0.15489 0.23204 0.24264 0.0
H1024 H 0.20291 0.2826 0.27956 0.0
H1025 H 0.16716 0.2742 0.25677 0.0
H1026 H 0.20925 0.2621 0.20104 0.0
H1027 H 0.24506 0.27085 0.22368 0.0
C1028 C 0.13962 0.24838 0.18272 0.0
C1029 C 0.12523 0.23097 0.19339 0.0
C1030 C 0.15924 0.26015 0.19369 0.0
C1031 C 0.16468 0.25484 0.21554 0.0
C1032 C 0.15068 0.23699 0.22597 0.0
C1033 C 0.1312 0.22516 0.21502 0.0
C1034 C 0.20454 0.27905 0.26228 0.0
C1035 C 0.22675 0.2767 0.25352 0.0
C1036 C 0.18409 0.27405 0.24929 0.0
C1037 C 0.18556 0.26669 0.22739 0.0
C1038 C 0.20766 0.26752 0.21795 0.0
C1039 C 0.22817 0.2726 0.23094 0.0
H1040 H 0.08661 0.99022 0.18983 0.0
H1041 H 0.15083 0.95994 0.1694 0.0
H1042 H 0.06928 0.98374 0.15299 0.0
H1043 H 0.13336 0.95323 0.13274 0.0
H1044 H 0.10907 0.98842 0.06767 0.0
H1045 H 0.12432 0.98337 0.10481 0.0
H1046 H 0.0558 0.95417 0.12304 0.0
H1047 H 0.04036 0.95939 0.0857 0.0
C1048 C 0.09684 0.98168 0.17765 0.0
C1049 C 0.12025 0.976 0.18247 0.0
C1050 C 0.08686 0.97786 0.15656 0.0
C1051 C 0.1001 0.96828 0.13992 0.0
C1052 C 0.1229 0.96105 0.14515 0.0
C1053 C 0.13286 0.96484 0.16619 0.0
C1054 C 0.09731 0.98057 0.07949 0.0
C1055 C 0.07347 0.97446 0.07379 0.0
C1056 C 0.1061 0.97752 0.10075 0.0
C1057 C 0.09123 0.96841 0.11686 0.0
C1058 C 0.0676 0.9614 0.11099 0.0
C1059 C 0.05882 0.96427 0.08961 0.0
H1060 H 0.324 0.82662 0.50634 0.0
H1061 H 0.265 0.86537 0.48132 0.0
H1062 H 0.32894 0.80927 0.47029 0.0
H1063 H 0.26958 0.84737 0.44513 0.0
H1064 H 0.30399 0.83625 0.37988 0.0
H1065 H 0.29781 0.85177 0.41649 0.0
H1066 H 0.31163 0.7813 0.44274 0.0
H1067 H 0.31889 0.76611 0.40623 0.0
C1068 C 0.31179 0.83111 0.4932 0.0
C1069 C 0.29417 0.84748 0.49666 0.0
C1070 C 0.31459 0.82106 0.47252 0.0
C1071 C 0.29979 0.82708 0.45478 0.0
C1072 C 0.28154 0.84272 0.4584 0.0
C1073 C 0.27875 0.85282 0.47916 0.0
C1074 C 0.30619 0.82421 0.39351 0.0
C1075 C 0.31206 0.79997 0.39014 0.0
C1076 C 0.30221 0.83298 0.41445 0.0
C1077 C 0.30397 0.8177 0.43251 0.0
C1078 C 0.31024 0.79359 0.4292 0.0
C1079 C 0.31427 0.78483 0.40826 0.0
H1080 H 0.43178 0.03931 0.65853 0.0
H1081 H 0.4849 0.00673 0.69912 0.0
H1082 H 0.45924 0.04234 0.629 0.0
H1083 H 0.51224 0.00987 0.66961 0.0
H1084 H 0.51853 0.06105 0.58532 0.0
H1085 H 0.49785 0.06336 0.61921 0.0
H1086 H 0.51339 0.98905 0.63291 0.0
H1087 H 0.53414 0.98662 0.59898 0.0
C1088 C 0.44934 0.03302 0.66123 0.0
C1089 C 0.45607 0.02265 0.68113 0.0
C1090 C 0.46513 0.03491 0.64439 0.0
C1091 C 0.48788 0.02633 0.64705 0.0
C1092 C 0.49477 0.01647 0.66708 0.0
C1093 C 0.47909 0.01476 0.68398 0.0
C1094 C 0.51803 0.04535 0.59577 0.0
C1095 C 0.52773 0.02352 0.58932 0.0
C1096 C 0.50603 0.04666 0.6151 0.0
C1097 C 0.50368 0.02627 0.62846 0.0
C1098 C 0.51496 0.00507 0.62291 0.0
C1099 C 0.52685 0.00369 0.60347 0.0
H1100 H 0.3089 0.16021 0.98362 0.0
H1101 H 0.31164 0.23838 0.99352 0.0
H1102 H 0.29479 0.16497 0.94586 0.0
H1103 H 0.29856 0.24328 0.95574 0.0
H1104 H 0.25125 0.24619 0.89691 0.0
H1105 H 0.26297 0.23675 0.93435 0.0
H1106 H 0.30462 0.17932 0.91056 0.0
H1107 H 0.29194 0.18823 0.87317 0.0
C1108 C 0.30701 0.17842 0.97755 0.0
C1109 C 0.31119 0.19893 0.99147 0.0
C1110 C 0.29888 0.18116 0.95596 0.0
C1111 C 0.29504 0.20447 0.94791 0.0
C1112 C 0.30054 0.225 0.9616 0.0
C1113 C 0.30834 0.22224 0.98318 0.0
C1114 C 0.26243 0.23117 0.89983 0.0
C1115 C 0.27072 0.2179 0.88232 0.0
C1116 C 0.26941 0.22595 0.92119 0.0
C1117 C 0.28522 0.20767 0.92542 0.0
C1118 C 0.29239 0.19346 0.9079 0.0
C1119 C 0.2851 0.19848 0.88651 0.0
H1120 H 0.08953 0.04469 0.29282 0.0
H1121 H 0.13219 0.9874 0.3164 0.0
H1122 H 0.07842 0.05347 0.32975 0.0
H1123 H 0.1202 0.99546 0.35348 0.0
H1124 H 0.11325 0.03092 0.41999 0.0
H1125 H 0.1255 0.02431 0.38288 0.0
H1126 H 0.05555 0.03888 0.35806 0.0
H1127 H 0.04387 0.04708 0.39492 0.0
C1128 C 0.09622 0.03364 0.30587 0.0
C1129 C 0.1117 0.01528 0.30164 0.0
C1130 C 0.08978 0.03865 0.32712 0.0
C1131 C 0.0984 0.02523 0.34472 0.0
C1132 C 0.11354 0.0065 0.34042 0.0
C1133 C 0.12021 0.00166 0.31912 0.0
C1134 C 0.10067 0.03332 0.40658 0.0
C1135 C 0.07753 0.03949 0.41051 0.0
C1136 C 0.10757 0.02907 0.38528 0.0
C1137 C 0.09147 0.03074 0.36739 0.0
C1138 C 0.06855 0.03758 0.37133 0.0
C1139 C 0.06174 0.04205 0.39256 0.0
H1140 H 0.26789 0.88641 0.63667 0.0
H1141 H 0.29994 0.83005 0.60019 0.0
H1142 H 0.26491 0.85941 0.66777 0.0
H1143 H 0.2969 0.80313 0.63131 0.0
H1144 H 0.24148 0.79757 0.71104 0.0
H1145 H 0.2429 0.8204 0.67743 0.0
H1146 H 0.31461 0.80111 0.66953 0.0
H1147 H 0.3133 0.77818 0.70331 0.0
C1148 C 0.27427 0.86829 0.63526 0.0
C1149 C 0.28413 0.86043 0.61591 0.0
C1150 C 0.27242 0.85275 0.65302 0.0
C1151 C 0.28058 0.82909 0.65193 0.0
C1152 C 0.29057 0.82129 0.63267 0.0
C1153 C 0.2922 0.83671 0.61482 0.0
C1154 C 0.25745 0.79776 0.70198 0.0
C1155 C 0.27735 0.78612 0.70998 0.0
C1156 C 0.2583 0.81106 0.6828 0.0
C1157 C 0.27898 0.81288 0.67103 0.0
C1158 C 0.29841 0.80002 0.67826 0.0
C1159 C 0.29764 0.78684 0.69759 0.0
H1160 H 0.48517 0.9975 0.7934 0.0
H1161 H 0.41611 0.01533 0.81297 0.0
H1162 H 0.49776 0.99301 0.83138 0.0
H1163 H 0.42805 0.00931 0.85105 0.0
H1164 H 0.464 0.01585 0.91926 0.0
H1165 H 0.45066 0.02317 0.88176 0.0
H1166 H 0.49296 0.9655 0.85929 0.0
H1167 H 0.50731 0.95958 0.89676 0.0
C1168 C 0.47273 0.00054 0.80594 0.0
C1169 C 0.44972 0.00676 0.80037 0.0
C1170 C 0.47979 0.99763 0.8277 0.0
C1171 C 0.46379 0.00023 0.84436 0.0
C1172 C 0.44094 0.00733 0.83874 0.0
C1173 C 0.43406 0.0108 0.81694 0.0
C1174 C 0.47009 0.00461 0.9062 0.0
C1175 C 0.48648 0.9871 0.91064 0.0
C1176 C 0.46248 0.00874 0.88473 0.0
C1177 C 0.4709 0.99513 0.86736 0.0
C1178 C 0.48659 0.97683 0.87212 0.0
C1179 C 0.49456 0.9731 0.89354 0.0
H1180 H 0.37592 0.17969 0.12408 0.0
H1181 H 0.36391 0.24563 0.08896 0.0
H1182 H 0.38788 0.20358 0.15638 0.0
H1183 H 0.37703 0.26989 0.12132 0.0
H1184 H 0.39041 0.24066 0.21676 0.0
H1185 H 0.40642 0.23251 0.18121 0.0
H1186 H 0.35195 0.27359 0.15057 0.0
H1187 H 0.33656 0.28193 0.18564 0.0
C1188 C 0.37667 0.19938 0.12301 0.0
C1189 C 0.36785 0.21075 0.10433 0.0
C1190 C 0.3839 0.21323 0.14158 0.0
C1191 C 0.38257 0.23873 0.14175 0.0
C1192 C 0.37744 0.25023 0.12194 0.0
C1193 C 0.3699 0.23632 0.10339 0.0
C1194 C 0.38242 0.24854 0.20241 0.0
C1195 C 0.3618 0.26125 0.20388 0.0
C1196 C 0.39161 0.24396 0.18207 0.0
C1197 C 0.38003 0.25166 0.16291 0.0
C1198 C 0.36144 0.26726 0.16483 0.0
C1199 C 0.35242 0.27199 0.18511 0.0
H1200 H 0.26208 0.1144 0.08566 0.0
H1201 H 0.23964 0.17901 0.05346 0.0
H1202 H 0.22427 0.09326 0.07549 0.0
H1203 H 0.20164 0.15765 0.04344 0.0
H1204 H 0.18008 0.05693 0.0173 0.0
H1205 H 0.21256 0.08217 0.03444 0.0
H1206 H 0.16354 0.13261 0.05784 0.0
H1207 H 0.13066 0.10682 0.0414 0.0
C1208 C 0.24885 0.12435 0.077 0.0
C1209 C 0.25406 0.14819 0.06991 0.0
C1210 C 0.22727 0.11218 0.07111 0.0
C1211 C 0.21044 0.12371 0.05824 0.0
C1212 C 0.21448 0.1484 0.05327 0.0
C1213 C 0.23621 0.1606 0.05906 0.0
C1214 C 0.17612 0.07326 0.02623 0.0
C1215 C 0.15274 0.07969 0.02814 0.0
C1216 C 0.19471 0.08768 0.03605 0.0
C1217 C 0.19039 0.10902 0.04776 0.0
C1218 C 0.16721 0.11613 0.04897 0.0
C1219 C 0.14848 0.10148 0.03937 0.0
H1220 H 0.70327 0.42754 0.02233 0.0
H1221 H 0.71401 0.4707 0.08185 0.0
H1222 H 0.66503 0.44491 0.01571 0.0
H1223 H 0.67579 0.48786 0.07527 0.0
H1224 H 0.59349 0.48455 0.069 0.0
H1225 H 0.63326 0.47068 0.07476 0.0
H1226 H 0.64786 0.48599 0.00771 0.0
H1227 H 0.6081 0.50007 0.00192 0.0
C1228 C 0.69755 0.44082 0.03392 0.0
C1229 C 0.71166 0.44769 0.05263 0.0
C1230 C 0.67572 0.45084 0.03008 0.0
C1231 C 0.66741 0.46768 0.04502 0.0
C1232 C 0.68165 0.47477 0.06357 0.0
C1233 C 0.70359 0.46501 0.06726 0.0
C1234 C 0.60523 0.48516 0.05553 0.0
C1235 C 0.59763 0.49341 0.03501 0.0
C1236 C 0.62803 0.47729 0.05885 0.0
C1237 C 0.64363 0.47719 0.04166 0.0
C1238 C 0.63614 0.48569 0.0212 0.0
C1239 C 0.61344 0.49389 0.01795 0.0
H1240 H 0.83716 0.46869 0.22537 0.0
H1241 H 0.90279 0.45173 0.25817 0.0
H1242 H 0.81789 0.4319 0.24011 0.0
H1243 H 0.88349 0.41579 0.27338 0.0
H1244 H 0.8491 0.33881 0.27425 0.0
H1245 H 0.8679 0.37652 0.26186 0.0
H1246 H 0.80472 0.41386 0.27375 0.0
H1247 H 0.78547 0.37563 0.28556 0.0
C1248 C 0.84746 0.45715 0.23569 0.0
C1249 C 0.87156 0.46304 0.24039 0.0
C1250 C 0.83637 0.43622 0.24433 0.0
C1251 C 0.84915 0.42089 0.25795 0.0
C1252 C 0.87319 0.42693 0.26268 0.0
C1253 C 0.88427 0.44763 0.25394 0.0
C1254 C 0.83926 0.3551 0.27455 0.0
C1255 C 0.81575 0.35418 0.28085 0.0
C1256 C 0.8501 0.3768 0.26747 0.0
C1257 C 0.83778 0.39822 0.26667 0.0
C1258 C 0.81455 0.39757 0.27381 0.0
C1259 C 0.80363 0.37575 0.28084 0.0
H1260 H 0.85339 0.53964 0.57118 0.0
H1261 H 0.86157 0.58139 0.51258 0.0
H1262 H 0.88829 0.518 0.56305 0.0
H1263 H 0.89649 0.5597 0.50453 0.0
H1264 H 0.9536 0.50917 0.4908 0.0
H1265 H 0.91286 0.51875 0.49628 0.0
H1266 H 0.93055 0.53541 0.56426 0.0
H1267 H 0.97125 0.52587 0.55887 0.0
C1268 C 0.86232 0.54384 0.55632 0.0
C1269 C 0.85498 0.56248 0.54267 0.0
C1270 C 0.88232 0.53149 0.55174 0.0
C1271 C 0.89516 0.53739 0.53333 0.0
C1272 C 0.8868 0.55471 0.51879 0.0
C1273 C 0.8669 0.56721 0.52346 0.0
C1274 C 0.9487 0.51445 0.50701 0.0
C1275 C 0.96566 0.51706 0.52438 0.0
C1276 C 0.92542 0.51998 0.51009 0.0
C1277 C 0.91864 0.52789 0.53063 0.0
C1278 C 0.93527 0.52912 0.54828 0.0
C1279 C 0.9586 0.52384 0.54517 0.0
H1280 H 0.1592 0.08957 0.24461 0.0
H1281 H 0.22609 0.0582 0.23491 0.0
H1282 H 0.17967 0.12915 0.25228 0.0
H1283 H 0.24652 0.09792 0.24283 0.0
H1284 H 0.27223 0.17964 0.24319 0.0
H1285 H 0.25178 0.14137 0.23005 0.0
H1286 H 0.20571 0.14352 0.28422 0.0
H1287 H 0.22585 0.18158 0.29726 0.0
C1288 C 0.17824 0.09115 0.24386 0.0
C1289 C 0.19105 0.07066 0.23944 0.0
C1290 C 0.18994 0.1138 0.24835 0.0
C1291 C 0.21466 0.11646 0.24845 0.0
C1292 C 0.22743 0.09635 0.24281 0.0
C1293 C 0.21573 0.07361 0.23837 0.0
C1294 C 0.25774 0.17189 0.25228 0.0
C1295 C 0.25064 0.1836 0.27126 0.0
C1296 C 0.24611 0.15002 0.24477 0.0
C1297 C 0.22706 0.13967 0.25601 0.0
C1298 C 0.22008 0.15134 0.27502 0.0
C1299 C 0.23176 0.17303 0.28259 0.0
H1300 H 0.35553 0.92068 0.52029 0.0
H1301 H 0.35153 0.97447 0.57205 0.0
H1302 H 0.3929 0.9397 0.51011 0.0
H1303 H 0.38974 0.99341 0.56199 0.0
H1304 H 0.45282 0.02991 0.52586 0.0
H1305 H 0.41212 0.01549 0.53273 0.0
H1306 H 0.43198 0.94099 0.52762 0.0
H1307 H 0.47206 0.95518 0.52051 0.0
C1308 C 0.36265 0.93661 0.52956 0.0
C1309 C 0.35072 0.9458 0.54727 0.0
C1310 C 0.38414 0.94751 0.52369 0.0
C1311 C 0.3945 0.96781 0.53545 0.0
C1312 C 0.38215 0.9778 0.55258 0.0
C1313 C 0.36037 0.9669 0.55842 0.0
C1314 C 0.44832 0.01046 0.52588 0.0
C1315 C 0.46564 0.99368 0.52254 0.0
C1316 C 0.42511 0.00224 0.53003 0.0
C1317 C 0.41881 0.97711 0.53067 0.0
C1318 C 0.43611 0.96046 0.52692 0.0
C1319 C 0.45917 0.96862 0.52291 0.0
H1320 H 0.89033 0.61035 0.24454 0.0
H1321 H 0.82317 0.58062 0.21729 0.0
H1322 H 0.87227 0.64839 0.25385 0.0
H1323 H 0.80507 0.61842 0.22721 0.0
H1324 H 0.78409 0.683 0.27604 0.0
H1325 H 0.80052 0.64385 0.26716 0.0
H1326 H 0.85038 0.68073 0.22596 0.0
H1327 H 0.83367 0.71962 0.2342 0.0
C1328 C 0.8717 0.61185 0.24076 0.0
C1329 C 0.85817 0.59261 0.23012 0.0
C1330 C 0.86142 0.63358 0.24602 0.0
C1331 C 0.83734 0.63617 0.24121 0.0
C1332 C 0.82365 0.61673 0.23113 0.0
C1333 C 0.83404 0.59522 0.22539 0.0
C1334 C 0.79839 0.68267 0.26493 0.0
C1335 C 0.80753 0.70433 0.25574 0.0
C1336 C 0.80775 0.66034 0.25988 0.0
C1337 C 0.82676 0.65947 0.24603 0.0
C1338 C 0.83581 0.68105 0.23679 0.0
C1339 C 0.82613 0.70323 0.2414 0.0
H1340 H 0.68764 0.43491 0.77128 0.0
H1341 H 0.72509 0.44893 0.71247 0.0
H1342 H 0.71139 0.40001 0.77844 0.0
H1343 H 0.74882 0.41428 0.71973 0.0
H1344 H 0.75957 0.33152 0.72498 0.0
H1345 H 0.74054 0.36956 0.7193 0.0
H1346 H 0.75288 0.3888 0.78754 0.0
H1347 H 0.77194 0.35051 0.79332 0.0
C1348 C 0.70103 0.43067 0.75998 0.0
C1349 C 0.70435 0.44459 0.74123 0.0
C1350 C 0.71474 0.41079 0.76416 0.0
C1351 C 0.73192 0.40437 0.74961 0.0
C1352 C 0.73554 0.41861 0.73112 0.0
C1353 C 0.72197 0.43852 0.72701 0.0
C1354 C 0.75852 0.34398 0.73874 0.0
C1355 C 0.76721 0.33797 0.75961 0.0
C1356 C 0.74769 0.36583 0.73546 0.0
C1357 C 0.74512 0.38212 0.753 0.0
C1358 C 0.7544 0.37647 0.77377 0.0
C1359 C 0.76548 0.35466 0.77702 0.0
H1360 H 0.05723 0.87278 0.87412 0.0
H1361 H 0.01995 0.83625 0.92511 0.0
H1362 H 0.07844 0.8999 0.90115 0.0
H1363 H 0.0391 0.86449 0.95206 0.0
H1364 H 0.07192 0.91418 -4e-05 0.0
H1365 H 0.06982 0.8807 0.97321 0.0
H1366 H 0.07155 0.93327 0.92134 0.0
H1367 H 0.07608 0.96612 0.94824 0.0
C1368 C 0.05357 0.87079 0.89121 0.0
C1369 C 0.03692 0.85287 0.89775 0.0
C1370 C 0.06558 0.88632 0.90672 0.0
C1371 C 0.06044 0.88477 0.92894 0.0
C1372 C 0.04412 0.86613 0.93531 0.0
C1373 C 0.03277 0.8501 0.91987 0.0
C1374 C 0.07302 0.91828 0.98281 0.0
C1375 C 0.07415 0.94247 0.97597 0.0
C1376 C 0.07136 0.8992 0.96742 0.0
C1377 C 0.06954 0.90411 0.94497 0.0
C1378 C 0.07298 0.92847 0.93835 0.0
C1379 C 0.07557 0.94747 0.95378 0.0
H1380 H 0.97349 0.23653 0.72258 0.0
H1381 H 0.95623 0.28904 0.67385 0.0
H1382 H 0.93628 0.24261 0.73992 0.0
H1383 H 0.91885 0.29499 0.69114 0.0
H1384 H 0.84247 0.27333 0.71291 0.0
H1385 H 0.88073 0.27117 0.6965 0.0
H1386 H 0.91509 0.2737 0.76061 0.0
H1387 H 0.87671 0.27603 0.77709 0.0
C1388 C 0.96181 0.24945 0.71557 0.0
C1389 C 0.96796 0.26225 0.69674 0.0
C1390 C 0.94048 0.25305 0.72563 0.0
C1391 C 0.92444 0.26931 0.717 0.0
C1392 C 0.93063 0.28219 0.69819 0.0
C1393 C 0.95215 0.27886 0.68831 0.0
C1394 C 0.85818 0.2737 0.72356 0.0
C1395 C 0.85638 0.27489 0.74639 0.0
C1396 C 0.88019 0.27255 0.71411 0.0
C1397 C 0.90111 0.27217 0.72717 0.0
C1398 C 0.89937 0.27372 0.75001 0.0
C1399 C 0.87735 0.27526 0.75948 0.0
H1400 H 0.54424 0.26005 0.45116 0.0
H1401 H 0.5685 0.20786 0.40479 0.0
H1402 H 0.54927 0.23106 0.48025 0.0
H1403 H 0.5739 0.17914 0.43417 0.0
H1404 H 0.58115 0.13234 0.49379 0.0
H1405 H 0.59184 0.1698 0.47442 0.0
H1406 H 0.51996 0.1907 0.4771 0.0
H1407 H 0.50919 0.15304 0.49595 0.0
C1408 C 0.55149 0.24278 0.44727 0.0
C1409 C 0.55518 0.23585 0.42554 0.0
C1410 C 0.55441 0.22628 0.46399 0.0
C1411 C 0.5615 0.20287 0.45925 0.0
C1412 C 0.56837 0.19716 0.43813 0.0
C1413 C 0.56517 0.21357 0.42131 0.0
C1414 C 0.56785 0.14533 0.49069 0.0
C1415 C 0.54436 0.14003 0.4962 0.0
C1416 C 0.57397 0.16662 0.47967 0.0
C1417 C 0.55676 0.18305 0.47452 0.0
C1418 C 0.5336 0.17842 0.48126 0.0
C1419 C 0.52738 0.1569 0.49184 0.0
H1420 H 0.58849 0.75548 0.22312 0.0
H1421 H 0.62351 0.76929 0.1631 0.0
H1422 H 0.62678 0.757 0.243 0.0
H1423 H 0.66149 0.76943 0.18244 0.0
H1424 H 0.72657 0.79185 0.22285 0.0
H1425 H 0.68767 0.79142 0.20527 0.0
H1426 H 0.66198 0.73832 0.25122 0.0
H1427 H 0.7011 0.73998 0.2697 0.0
C1428 C 0.60435 0.75875 0.21414 0.0
C1429 C 0.60281 0.76256 0.19151 0.0
C1430 C 0.62641 0.75941 0.22553 0.0
C1431 C 0.64758 0.76354 0.21453 0.0
C1432 C 0.64584 0.76692 0.19181 0.0
C1433 C 0.62389 0.76669 0.18057 0.0
C1434 C 0.71267 0.78002 0.22925 0.0
C1435 C 0.71711 0.76579 0.24763 0.0
C1436 C 0.69021 0.77961 0.219 0.0
C1437 C 0.67138 0.76453 0.22643 0.0
C1438 C 0.67578 0.75038 0.24501 0.0
C1439 C 0.69831 0.75115 0.25557 0.0
H1440 H 0.012 0.17781 0.6323 0.0
H1441 H 0.05663 0.21615 0.58725 0.0
H1442 H 0.01505 0.14008 0.61137 0.0
H1443 H 0.06044 0.17838 0.56685 0.0
H1444 H 0.04678 0.10949 0.52372 0.0
H1445 H 0.04224 0.14805 0.5431 0.0
H1446 H 0.04181 0.1102 0.60427 0.0
H1447 H 0.04546 0.07178 0.58484 0.0
C1448 C 0.02242 0.17824 0.61792 0.0
C1449 C 0.03405 0.20013 0.61155 0.0
C1450 C 0.02439 0.15649 0.60597 0.0
C1451 C 0.03823 0.15592 0.58742 0.0
C1452 C 0.04941 0.17797 0.58082 0.0
C1453 C 0.04728 0.19973 0.59265 0.0
C1454 C 0.04593 0.10947 0.54132 0.0
C1455 C 0.04647 0.08749 0.55267 0.0
C1456 C 0.04333 0.13163 0.5525 0.0
C1457 C 0.0414 0.13241 0.57535 0.0
C1458 C 0.04262 0.11042 0.58667 0.0
C1459 C 0.045 0.08832 0.57551 0.0
H1460 H 0.56168 0.27491 0.3009 0.0
H1461 H 0.55437 0.33028 0.35067 0.0
H1462 H 0.59416 0.29938 0.2863 0.0
H1463 H 0.58709 0.35476 0.33606 0.0
H1464 H 0.6557 0.33823 0.26523 0.0
H1465 H 0.61347 0.3379 0.2712 0.0
H1466 H 0.62832 0.34011 0.34083 0.0
H1467 H 0.67019 0.33979 0.33495 0.0
C1468 C 0.56647 0.29269 0.30824 0.0
C1469 C 0.55598 0.30037 0.32726 0.0
C1470 C 0.58495 0.30688 0.29975 0.0
C1471 C 0.59336 0.32882 0.31029 0.0
C1472 C 0.58105 0.33781 0.32777 0.0
C1473 C 0.56236 0.32374 0.33613 0.0
C1474 C 0.64993 0.33938 0.2818 0.0
C1475 C 0.66616 0.33815 0.29964 0.0
C1476 C 0.6258 0.33938 0.28518 0.0
C1477 C 0.61765 0.33846 0.30644 0.0
C1478 C 0.63408 0.34087 0.32423 0.0
C1479 C 0.65817 0.34064 0.32086 0.0
H1480 H 0.56379 0.82111 0.08042 0.0
H1481 H 0.51305 0.84084 0.12708 0.0
H1482 H 0.55774 0.85866 0.06082 0.0
H1483 H 0.50704 0.87855 0.10744 0.0
H1484 H 0.52868 0.95618 0.08254 0.0
H1485 H 0.53056 0.91729 0.10084 0.0
H1486 H 0.52749 0.87963 0.03836 0.0
H1487 H 0.52554 0.91875 0.01991 0.0
C1488 C 0.55126 0.83341 0.08647 0.0
C1489 C 0.53898 0.82794 0.10542 0.0
C1490 C 0.54767 0.85489 0.07511 0.0
C1491 C 0.53189 0.87167 0.08251 0.0
C1492 C 0.51946 0.86613 0.10137 0.0
C1493 C 0.52284 0.84446 0.11259 0.0
C1494 C 0.52819 0.93962 0.07264 0.0
C1495 C 0.527 0.94066 0.0497 0.0
C1496 C 0.52914 0.91726 0.08318 0.0
C1497 C 0.52922 0.89528 0.07111 0.0
C1498 C 0.52766 0.89623 0.04816 0.0
C1499 C 0.52639 0.91864 0.03758 0.0
H1500 H 0.94199 0.76773 0.87049 0.0
H1501 H 0.90962 0.83159 0.84593 0.0
H1502 H 0.90316 0.74726 0.87393 0.0
H1503 H 0.87077 0.81103 0.84942 0.0
H1504 H 0.83873 0.71812 0.82425 0.0
H1505 H 0.87591 0.73322 0.84198 0.0
H1506 H 0.84047 0.79039 0.87397 0.0
H1507 H 0.80311 0.77501 0.85642 0.0
C1508 C 0.9266 0.77759 0.86619 0.0
C1509 C 0.92886 0.80113 0.8575 0.0
C1510 C 0.90438 0.76587 0.86832 0.0
C1511 C 0.884 0.77753 0.86198 0.0
C1512 C 0.88619 0.80171 0.85476 0.0
C1513 C 0.90844 0.8134 0.8525 0.0
C1514 C 0.83865 0.733 0.83607 0.0
C1515 C 0.81823 0.74572 0.83861 0.0
C1516 C 0.85997 0.74173 0.84621 0.0
C1517 C 0.8611 0.76341 0.85882 0.0
C1518 C 0.84005 0.77387 0.86401 0.0
C1519 C 0.81862 0.76487 0.85414 0.0
H1520 H 0.99183 0.00257 0.8401 0.0
H1521 H 0.93635 0.04592 0.86257 0.0
H1522 H 0.01327 0.00908 0.87509 0.0
H1523 H 0.95791 0.05238 0.89781 0.0
H1524 H 0.05256 0.03363 0.93758 0.0
H1525 H 0.03392 0.04014 0.90158 0.0
H1526 H 0.96557 0.02139 0.92695 0.0
H1527 H 0.98404 0.01481 0.96267 0.0
C1528 C 0.98442 0.01386 0.8524 0.0
C1529 C 0.96229 0.02351 0.84871 0.0
C1530 C 0.99681 0.01776 0.87238 0.0
C1531 C 0.98721 0.03115 0.88919 0.0
C1532 C 0.96564 0.04187 0.88514 0.0
C1533 C 0.95335 0.03824 0.86498 0.0
C1534 C 0.03353 0.03137 0.93552 0.0
C1535 C 0.01978 0.02347 0.95285 0.0
C1536 C 0.02289 0.03502 0.91494 0.0
C1537 C 0.99831 0.03123 0.91148 0.0
C1538 C 0.98451 0.02471 0.92917 0.0
C1539 C 0.99513 0.02074 0.94958 0.0
H1540 H 0.80835 0.14716 0.57438 0.0
H1541 H 0.75465 0.18961 0.54437 0.0
H1542 H 0.80199 0.16628 0.60958 0.0
H1543 H 0.74771 0.20807 0.57966 0.0
H1544 H 0.75778 0.25322 0.64326 0.0
H1545 H 0.76412 0.23556 0.60747 0.0
H1546 H 0.77306 0.16551 0.63671 0.0
H1547 H 0.7682 0.18348 0.67258 0.0
C1548 C 0.79523 0.16061 0.57528 0.0
C1549 C 0.782 0.16683 0.55657 0.0
C1550 C 0.7914 0.1714 0.5955 0.0
C1551 C 0.77412 0.18851 0.59752 0.0
C1552 C 0.7613 0.19515 0.57869 0.0
C1553 C 0.76526 0.1845 0.55844 0.0
C1554 C 0.76115 0.23406 0.64206 0.0
C1555 C 0.76261 0.21983 0.66085 0.0
C1556 C 0.76457 0.22387 0.62149 0.0
C1557 C 0.76937 0.19916 0.61922 0.0
C1558 C 0.7699 0.18472 0.63791 0.0
C1559 C 0.76666 0.19495 0.65847 0.0
H1560 H 0.61676 0.97963 0.35843 0.0
H1561 H 0.59586 0.05385 0.3582 0.0
H1562 H 0.59303 0.97146 0.39006 0.0
H1563 H 0.57366 0.0465 0.39051 0.0
H1564 H 0.52539 0.02843 0.44281 0.0
H1565 H 0.54129 0.02939 0.40654 0.0
H1566 H 0.59258 0.9783 0.42694 0.0
H1567 H 0.57541 0.97607 0.4624 0.0
C1568 C 0.6072 0.99422 0.36528 0.0
C1569 C 0.60815 0.01736 0.35592 0.0
C1570 C 0.59367 0.98963 0.38349 0.0
C1571 C 0.58129 0.00829 0.39308 0.0
C1572 C 0.58229 0.0314 0.38346 0.0
C1573 C 0.5953 0.03576 0.36499 0.0
C1574 C 0.53966 0.01697 0.43925 0.0
C1575 C 0.54919 0.00224 0.4554 0.0
C1576 C 0.54905 0.01772 0.41854 0.0
C1577 C 0.56869 0.00436 0.41375 0.0
C1578 C 0.57735 0.98868 0.42971 0.0
C1579 C 0.56753 0.98743 0.45018 0.0
H1580 H 0.80996 0.89909 0.06951 0.0
H1581 H 0.7364 0.87734 0.07563 0.0
H1582 H 0.8192 0.88216 0.10505 0.0
H1583 H 0.74502 0.86226 0.11199 0.0
H1584 H 0.76903 0.80709 0.15885 0.0
H1585 H 0.76101 0.82829 0.12572 0.0
H1586 H 0.81844 0.88143 0.14264 0.0
H1587 H 0.82832 0.85836 0.17481 0.0
C1588 C 0.79568 0.89145 0.07892 0.0
C1589 C 0.77255 0.88924 0.06996 0.0
C1590 C 0.80091 0.88178 0.09932 0.0
C1591 C 0.78295 0.87028 0.11131 0.0
C1592 C 0.75948 0.87007 0.10293 0.0
C1593 C 0.75441 0.87901 0.08226 0.0
C1594 C 0.78051 0.82283 0.15534 0.0
C1595 C 0.79956 0.83072 0.1696 0.0
C1596 C 0.77543 0.83552 0.13647 0.0
C1597 C 0.78873 0.85697 0.13156 0.0
C1598 C 0.80783 0.86493 0.14575 0.0
C1599 C 0.81333 0.85182 0.16443 0.0
H1600 H 0.90692 0.00225 0.70936 0.0
H1601 H 0.97428 0.0123 0.74471 0.0
H1602 H 0.92723 0.99662 0.6754 0.0
H1603 H 0.99446 0.00699 0.7107 0.0
H1604 H 0.01631 0.02713 0.64013 0.0
H1605 H 0.99722 0.03103 0.67462 0.0
H1606 H 0.95509 0.96432 0.66019 0.0
H1607 H 0.97497 0.95954 0.62595 0.0
C1608 C 0.92603 0.00345 0.70985 0.0
C1609 C 0.93901 0.00776 0.72969 0.0
C1610 C 0.93761 2e-05 0.69047 0.0
C1611 C 0.96237 0.00127 0.69051 0.0
C1612 C 0.97535 0.006 0.71025 0.0
C1613 C 0.96379 0.00901 0.72968 0.0
C1614 C 0.00346 0.01286 0.64443 0.0
C1615 C 0.99736 0.99289 0.63016 0.0
C1616 C 0.99239 0.01527 0.66416 0.0
C1617 C 0.97466 0.99805 0.66996 0.0
C1618 C 0.96856 0.978 0.65592 0.0
C1619 C 0.97992 0.97533 0.6363 0.0
H1620 H 0.81895 0.18722 0.4408 0.0
H1621 H 0.744 0.19644 0.43719 0.0
H1622 H 0.82444 0.21684 0.41197 0.0
H1623 H 0.74917 0.22497 0.40777 0.0
H1624 H 0.76297 0.2864 0.36333 0.0
H1625 H 0.76258 0.26383 0.39722 0.0
H1626 H 0.81834 0.22086 0.37451 0.0
H1627 H 0.81954 0.24418 0.34144 0.0
C1628 C 0.80363 0.19544 0.43372 0.0
C1629 C 0.78105 0.18943 0.44121 0.0
C1630 C 0.80674 0.21241 0.41713 0.0
C1631 C 0.78726 0.22347 0.40743 0.0
C1632 C 0.7647 0.21739 0.41508 0.0
C1633 C 0.76167 0.20075 0.43184 0.0
C1634 C 0.77554 0.27256 0.36586 0.0
C1635 C 0.79113 0.26701 0.34957 0.0
C1636 C 0.77514 0.25936 0.38519 0.0
C1637 C 0.7901 0.24007 0.38854 0.0
C1638 C 0.80665 0.23562 0.37276 0.0
C1639 C 0.80727 0.24901 0.35363 0.0
H1640 H 0.59797 0.01284 0.24898 0.0
H1641 H 0.66675 0.02437 0.22204 0.0
H1642 H 0.57947 0.01649 0.21263 0.0
H1643 H 0.64813 0.02827 0.18574 0.0
H1644 H 0.60173 0.06574 0.13267 0.0
H1645 H 0.62085 0.06011 0.1685 0.0
H1646 H 0.57858 0.99305 0.17562 0.0
H1647 H 0.56016 0.99791 0.13963 0.0
C1648 C 0.60913 0.01592 0.23528 0.0
C1649 C 0.6338 0.0183 0.23835 0.0
C1650 C 0.59854 0.018 0.21451 0.0
C1651 C 0.61242 0.02286 0.19651 0.0
C1652 C 0.63708 0.02478 0.19946 0.0
C1653 C 0.6477 0.02231 0.22017 0.0
C1654 C 0.59663 0.04969 0.14176 0.0
C1655 C 0.57922 0.03241 0.13326 0.0
C1656 C 0.60757 0.04651 0.16226 0.0
C1657 C 0.60111 0.02617 0.17473 0.0
C1658 C 0.58364 0.00903 0.16639 0.0
C1659 C 0.57297 0.01199 0.14583 0.0
H1660 H 0.68688 0.8668 0.96055 0.0
H1661 H 0.72746 0.80413 0.97272 0.0
H1662 H 0.66518 0.8447 0.93056 0.0
H1663 H 0.70749 0.78279 0.94224 0.0
H1664 H 0.68881 0.75031 0.88316 0.0
H1665 H 0.68067 0.76389 0.9191 0.0
H1666 H 0.6734 0.83691 0.89565 0.0
H1667 H 0.67748 0.82255 0.85899 0.0
C1668 C 0.69089 0.84815 0.95701 0.0
C1669 C 0.70933 0.83741 0.96852 0.0
C1670 C 0.67858 0.83549 0.93968 0.0
C1671 C 0.68498 0.81214 0.93317 0.0
C1672 C 0.70171 0.80061 0.94642 0.0
C1673 C 0.71354 0.81303 0.96396 0.0
C1674 C 0.68457 0.76909 0.88508 0.0
C1675 C 0.68605 0.78575 0.86785 0.0
C1676 C 0.68022 0.77702 0.90616 0.0
C1677 C 0.67846 0.80196 0.91083 0.0
C1678 C 0.67568 0.81767 0.89315 0.0
C1679 C 0.67882 0.80947 0.87187 0.0
H1680 H 0.82796 0.92706 0.95827 0.0
H1681 H 0.82856 0.85503 0.98536 0.0
H1682 H 0.87043 0.92843 0.95627 0.0
H1683 H 0.87137 0.85619 0.98304 0.0
H1684 H 0.936 0.89959 0.02151 0.0
H1685 H 0.89816 0.88098 0.00765 0.0
H1686 H 0.90801 0.91577 0.94571 0.0
H1687 H 0.94546 0.935 0.96004 0.0
C1688 C 0.83711 0.9111 0.96299 0.0
C1689 C 0.82507 0.89128 0.97259 0.0
C1690 C 0.86154 0.91177 0.9617 0.0
C1691 C 0.87436 0.89262 0.97004 0.0
C1692 C 0.86197 0.87142 0.97693 0.0
C1693 C 0.83744 0.87071 0.97812 0.0
C1694 C 0.93031 0.90259 0.00475 0.0
C1695 C 0.94313 0.91908 0.99197 0.0
C1696 C 0.90875 0.89179 0.99668 0.0
C1697 C 0.89988 0.89726 0.97565 0.0
C1698 C 0.91415 0.91161 0.9621 0.0
C1699 C 0.93551 0.92263 0.97027 0.0
H1700 H 0.32884 0.54048 0.01906 0.0
H1701 H 0.35688 0.6029 0.98462 0.0
H1702 H 0.36708 0.52286 0.01887 0.0
H1703 H 0.39554 0.58578 0.98518 0.0
H1704 H 0.45968 0.54155 0.97693 0.0
H1705 H 0.41969 0.55518 0.97247 0.0
H1706 H 0.40436 0.52901 0.0367 0.0
H1707 H 0.44384 0.51466 0.04075 0.0
C1708 C 0.3432 0.55044 0.0114 0.0
C1709 C 0.33983 0.57316 0.00196 0.0
C1710 C 0.36523 0.54042 0.01144 0.0
C1711 C 0.38463 0.55298 0.00228 0.0
C1712 C 0.38104 0.5754 0.9922 0.0
C1713 C 0.35887 0.58531 0.99195 0.0
C1714 C 0.44766 0.53849 0.98999 0.0
C1715 C 0.45499 0.52699 0.0092 0.0
C1716 C 0.42475 0.54648 0.98751 0.0
C1717 C 0.40866 0.54331 0.00423 0.0
C1718 C 0.41599 0.53144 0.02327 0.0
C1719 C 0.43877 0.52329 0.02567 0.0
H1720 H 0.17195 0.59729 0.80373 0.0
H1721 H 0.23823 0.56475 0.79449 0.0
H1722 H 0.19045 0.63718 0.79768 0.0
H1723 H 0.25739 0.6052 0.78975 0.0
H1724 H 0.27726 0.6782 0.75703 0.0
H1725 H 0.26083 0.63715 0.76492 0.0
H1726 H 0.21533 0.66832 0.81144 0.0
H1727 H 0.23038 0.70875 0.80234 0.0
C1728 C 0.19071 0.59874 0.80107 0.0
C1729 C 0.20362 0.57783 0.79963 0.0
C1730 C 0.20143 0.62175 0.79763 0.0
C1731 C 0.22554 0.62461 0.79319 0.0
C1732 C 0.23872 0.60373 0.79268 0.0
C1733 C 0.22782 0.58056 0.79569 0.0
C1734 C 0.26355 0.67607 0.76872 0.0
C1735 C 0.25466 0.69659 0.77865 0.0
C1736 C 0.2543 0.65259 0.77348 0.0
C1737 C 0.23646 0.64928 0.78868 0.0
C1738 C 0.22839 0.66999 0.79911 0.0
C1739 C 0.2371 0.69327 0.79393 0.0
H1740 H 0.22902 0.47624 0.50832 0.0
H1741 H 0.18198 0.42689 0.46921 0.0
H1742 H 0.2012 0.50831 0.50385 0.0
H1743 H 0.15442 0.45854 0.46465 0.0
H1744 H 0.10191 0.50962 0.46333 0.0
H1745 H 0.14132 0.49847 0.45455 0.0
H1746 H 0.16336 0.50616 0.52271 0.0
H1747 H 0.12418 0.51789 0.53139 0.0
C1748 C 0.21326 0.47264 0.49795 0.0
C1749 C 0.20726 0.44908 0.48946 0.0
C1750 C 0.19732 0.49092 0.49549 0.0
C1751 C 0.17545 0.48581 0.48427 0.0
C1752 C 0.17111 0.46317 0.47335 0.0
C1753 C 0.18681 0.4449 0.47607 0.0
C1754 C 0.11538 0.50956 0.47635 0.0
C1755 C 0.10986 0.51379 0.49815 0.0
C1756 C 0.13796 0.50334 0.47128 0.0
C1757 C 0.15526 0.50095 0.48797 0.0
C1758 C 0.15045 0.50793 0.50944 0.0
C1759 C 0.1279 0.51438 0.51448 0.0
H1760 H 0.83208 0.95954 0.7925 0.0
H1761 H 0.89629 0.92812 0.81548 0.0
H1762 H 0.81086 0.91982 0.79458 0.0
H1763 H 0.87491 0.88848 0.81776 0.0
H1764 H 0.83799 0.82036 0.78268 0.0
H1765 H 0.85816 0.86033 0.7883 0.0
H1766 H 0.7971 0.88621 0.81903 0.0
H1767 H 0.77665 0.84591 0.81331 0.0
C1768 C 0.84159 0.94428 0.79835 0.0
C1769 C 0.86597 0.94693 0.80352 0.0
C1770 C 0.82937 0.92155 0.79967 0.0
C1771 C 0.84129 0.90103 0.8061 0.0
C1772 C 0.86536 0.90395 0.81243 0.0
C1773 C 0.87757 0.92668 0.8112 0.0
C1774 C 0.82883 0.8345 0.79071 0.0
C1775 C 0.80565 0.83003 0.79741 0.0
C1776 C 0.84051 0.85735 0.79413 0.0
C1777 C 0.82925 0.87636 0.8042 0.0
C1778 C 0.80615 0.87189 0.81115 0.0
C1779 C 0.79449 0.84885 0.8079 0.0
H1780 H 0.70527 0.10111 0.47011 0.0
H1781 H 0.73934 0.05343 0.51522 0.0
H1782 H 0.66716 0.08105 0.47748 0.0
H1783 H 0.70104 0.03366 0.52284 0.0
H1784 H 0.62506 0.99514 0.51966 0.0
H1785 H 0.66474 0.00906 0.50911 0.0
H1786 H 0.64445 0.08357 0.51058 0.0
H1787 H 0.60517 0.06986 0.52084 0.0
C1788 C 0.70472 0.08606 0.48128 0.0
C1789 C 0.72535 0.07918 0.49233 0.0
C1790 C 0.68284 0.07469 0.48565 0.0
C1791 C 0.68106 0.05621 0.50118 0.0
C1792 C 0.70183 0.0479 0.51086 0.0
C1793 C 0.72379 0.05926 0.50647 0.0
C1794 C 0.62925 0.0145 0.51802 0.0
C1795 C 0.61193 0.03138 0.52098 0.0
C1796 C 0.6519 0.02244 0.51189 0.0
C1797 C 0.65753 0.04735 0.50852 0.0
C1798 C 0.64047 0.06419 0.51241 0.0
C1799 C 0.618 0.05633 0.51854 0.0
H1800 H 0.24817 0.45978 0.77562 0.0
H1801 H 0.18961 0.4253 0.8084 0.0
H1802 H 0.26857 0.42218 0.77721 0.0
H1803 H 0.20957 0.38712 0.80916 0.0
H1804 H 0.25679 0.32401 0.81743 0.0
H1805 H 0.24161 0.36431 0.82258 0.0
H1806 H 0.26414 0.38432 0.75852 0.0
H1807 H 0.27993 0.3447 0.75376 0.0
C1808 C 0.23967 0.44411 0.78321 0.0
C1809 C 0.21718 0.44536 0.79166 0.0
C1810 C 0.25131 0.42249 0.78402 0.0
C1811 C 0.24057 0.40143 0.79296 0.0
C1812 C 0.21847 0.403 0.8023 0.0
C1813 C 0.20695 0.42483 0.80177 0.0
C1814 C 0.25879 0.3372 0.80462 0.0
C1815 C 0.26954 0.33113 0.78518 0.0
C1816 C 0.24993 0.36023 0.80749 0.0
C1817 C 0.25157 0.37761 0.79096 0.0
C1818 C 0.26291 0.37164 0.7718 0.0
C1819 C 0.27187 0.34878 0.76899 0.0
H1820 H 0.31543 0.55557 0.27078 0.0
H1821 H 0.37849 0.58604 0.30532 0.0
H1822 H 0.29794 0.59486 0.27328 0.0
H1823 H 0.3614 0.6256 0.30711 0.0
H1824 H 0.31922 0.69091 0.31967 0.0
H1825 H 0.33182 0.6493 0.32228 0.0
H1826 H 0.30327 0.63342 0.25682 0.0
H1827 H 0.29004 0.67447 0.25453 0.0
C1828 C 0.32556 0.57069 0.27889 0.0
C1829 C 0.3484 0.56779 0.28769 0.0
C1830 C 0.31558 0.59324 0.28026 0.0
C1831 C 0.32832 0.61347 0.29024 0.0
C1832 C 0.35095 0.61036 0.29956 0.0
C1833 C 0.36084 0.58772 0.29838 0.0
C1834 C 0.31537 0.67839 0.30598 0.0
C1835 C 0.30372 0.68601 0.28687 0.0
C1836 C 0.32273 0.6546 0.30741 0.0
C1837 C 0.31869 0.63803 0.28971 0.0
C1838 C 0.30638 0.64553 0.27089 0.0
C1839 C 0.29891 0.66918 0.26953 0.0
H1840 H 0.49833 0.68682 0.62546 0.0
H1841 H 0.52457 0.62915 0.66516 0.0
H1842 H 0.48061 0.65662 0.59935 0.0
H1843 H 0.50653 0.59893 0.63885 0.0
H1844 H 0.46507 0.55015 0.58844 0.0
H1845 H 0.46688 0.58182 0.61725 0.0
H1846 H 0.50744 0.63001 0.57618 0.0
H1847 H 0.50614 0.59836 0.54776 0.0
C1848 C 0.49993 0.66769 0.62887 0.0
C1849 C 0.51341 0.66034 0.64708 0.0
C1850 C 0.48963 0.65048 0.61396 0.0
C1851 C 0.49244 0.62562 0.61708 0.0
C1852 C 0.50404 0.61807 0.63624 0.0
C1853 C 0.51451 0.63535 0.65117 0.0
C1854 C 0.47375 0.56779 0.58541 0.0
C1855 C 0.48558 0.57195 0.56604 0.0
C1856 C 0.47486 0.58575 0.60187 0.0
C1857 C 0.48727 0.60819 0.59882 0.0
C1858 C 0.49755 0.6129 0.57878 0.0
C1859 C 0.49691 0.59482 0.56259 0.0
H1860 H 0.59586 0.27696 0.82436 0.0
H1861 H 0.62825 0.24387 0.88047 0.0
H1862 H 0.63249 0.27444 0.80508 0.0
H1863 H 0.66446 0.24082 0.86112 0.0
H1864 H 0.73393 0.26575 0.83192 0.0
H1865 H 0.69653 0.26602 0.84953 0.0
H1866 H 0.65955 0.24841 0.78783 0.0
H1867 H 0.69738 0.2487 0.76995 0.0
C1868 C 0.61068 0.26896 0.83256 0.0
C1869 C 0.60899 0.2608 0.85412 0.0
C1870 C 0.63173 0.26737 0.82141 0.0
C1871 C 0.65172 0.25759 0.83149 0.0
C1872 C 0.64975 0.24894 0.85287 0.0
C1873 C 0.62881 0.25057 0.86399 0.0
C1874 C 0.7179 0.26177 0.82201 0.0
C1875 C 0.71885 0.25713 0.79942 0.0
C1876 C 0.69629 0.26179 0.83221 0.0
C1877 C 0.67477 0.25712 0.82025 0.0
C1878 C 0.67566 0.25232 0.79763 0.0
C1879 C 0.69741 0.25228 0.78736 0.0
H1880 H 0.08398 0.27704 0.09486 0.0
H1881 H 0.0246 0.29368 0.13316 0.0
H1882 H 0.08094 0.31524 0.07582 0.0
H1883 H 0.0216 0.33214 0.1139 0.0
H1884 H 0.00972 0.38303 0.05468 0.0
H1885 H 0.01195 0.34532 0.075 0.0
H1886 H 0.08707 0.36012 0.0858 0.0
H1887 H 0.08488 0.39776 0.06527 0.0
C1888 C 0.07021 0.28882 0.09918 0.0
C1889 C 0.0545 0.28237 0.11551 0.0
C1890 C 0.06861 0.31077 0.08836 0.0
C1891 C 0.05116 0.32665 0.09351 0.0
C1892 C 0.03518 0.32011 0.10961 0.0
C1893 C 0.03692 0.29818 0.12063 0.0
C1894 C 0.02672 0.37812 0.0613 0.0
C1895 C 0.04718 0.39313 0.05828 0.0
C1896 C 0.02793 0.35673 0.07311 0.0
C1897 C 0.04967 0.34987 0.08191 0.0
C1898 C 0.07011 0.36496 0.07901 0.0
C1899 C 0.06886 0.38649 0.0674 0.0
H1900 H 0.96622 0.74764 0.35937 0.0
H1901 H 0.98474 0.81188 0.32272 0.0
H1902 H 0.92565 0.74781 0.34459 0.0
H1903 H 0.94422 0.81251 0.30849 0.0
H1904 H 0.87449 0.79416 0.27066 0.0
H1905 H 0.91516 0.79279 0.28446 0.0
H1906 H 0.89066 0.76964 0.34698 0.0
H1907 H 0.84993 0.77033 0.33292 0.0
C1908 C 0.96168 0.76175 0.3481 0.0
C1909 C 0.97883 0.77969 0.34222 0.0
C1910 C 0.93832 0.762 0.33977 0.0
C1911 C 0.93145 0.78026 0.32537 0.0
C1912 C 0.94877 0.79796 0.31927 0.0
C1913 C 0.97209 0.79765 0.32753 0.0
C1914 C 0.87774 0.78891 0.2874 0.0
C1915 C 0.85885 0.78241 0.30066 0.0
C1916 C 0.90115 0.78819 0.29537 0.0
C1917 C 0.90639 0.78104 0.31689 0.0
C1918 C 0.88744 0.77483 0.33023 0.0
C1919 C 0.86401 0.77546 0.32222 0.0
H1920 H 0.5555 0.31871 0.95796 0.0
H1921 H 0.51894 0.34814 0.90219 0.0
H1922 H 0.54839 0.35528 0.9794 0.0
H1923 H 0.51123 0.38414 0.92367 0.0
H1924 H 0.51555 0.41689 0.01745 0.0
H1925 H 0.5196 0.37871 0.99699 0.0
H1926 H 0.53124 0.41971 0.93856 0.0
H1927 H 0.52655 0.45731 0.95861 0.0
C1928 C 0.54584 0.33288 0.95028 0.0
C1929 C 0.53803 0.33046 0.92821 0.0
C1930 C 0.54158 0.35383 0.96266 0.0
C1931 C 0.52931 0.3729 0.95334 0.0
C1932 C 0.52115 0.37018 0.93139 0.0
C1933 C 0.52551 0.34938 0.91902 0.0
C1934 C 0.51863 0.41766 0.00017 0.0
C1935 C 0.52061 0.44026 0.98974 0.0
C1936 C 0.5212 0.39577 0.98845 0.0
C1937 C 0.52577 0.39595 0.96601 0.0
C1938 C 0.52734 0.4186 0.95565 0.0
C1939 C 0.52475 0.44032 0.96727 0.0
H1940 H 0.99891 0.24635 0.19318 0.0
H1941 H 0.00321 0.18303 0.23374 0.0
H1942 H 0.96248 0.2561 0.21012 0.0
H1943 H 0.96685 0.19294 0.25073 0.0
H1944 H 0.88588 0.20208 0.25102 0.0
H1945 H 0.92437 0.19309 0.23756 0.0
H1946 H 0.94813 0.26895 0.24638 0.0
H1947 H 0.90958 0.27802 0.25939 0.0
C1948 C 0.9922 0.23466 0.20583 0.0
C1949 C 0.00383 0.21388 0.21207 0.0
C1950 C 0.97143 0.2403 0.21559 0.0
C1951 C 0.96188 0.2252 0.23165 0.0
C1952 C 0.97375 0.20472 0.23821 0.0
C1953 C 0.9946 0.19915 0.22856 0.0
C1954 C 0.89938 0.21677 0.25011 0.0
C1955 C 0.89481 0.24071 0.25622 0.0
C1956 C 0.92141 0.21162 0.24261 0.0
C1957 C 0.93914 0.23037 0.24094 0.0
C1958 C 0.93468 0.25422 0.24738 0.0
C1959 C 0.91273 0.25934 0.25501 0.0
H1960 H 0.03371 0.68273 0.40933 0.0
H1961 H 0.06104 0.7174 0.46947 0.0
H1962 H 0.02943 0.64384 0.42756 0.0
H1963 H 0.05502 0.67915 0.48836 0.0
H1964 H 0.06603 0.60266 0.51216 0.0
H1965 H 0.06878 0.64211 0.49475 0.0
H1966 H 0.01033 0.6184 0.45036 0.0
H1967 H 0.00916 0.57841 0.46678 0.0
C1968 C 0.03832 0.68208 0.42661 0.0
C1969 C 0.04781 0.70304 0.43795 0.0
C1970 C 0.03571 0.65975 0.43722 0.0
C1971 C 0.0419 0.65793 0.45965 0.0
C1972 C 0.05063 0.67932 0.47104 0.0
C1973 C 0.05388 0.70145 0.46026 0.0
C1974 C 0.05373 0.60604 0.49875 0.0
C1975 C 0.03745 0.58747 0.49079 0.0
C1976 C 0.05515 0.62879 0.48875 0.0
C1977 C 0.03984 0.63383 0.47089 0.0
C1978 C 0.02294 0.61532 0.46357 0.0
C1979 C 0.02203 0.59237 0.47316 0.0
H1980 H 0.6366 0.70105 0.69658 0.0
H1981 H 0.61654 0.77056 0.67224 0.0
H1982 H 0.67669 0.71844 0.70433 0.0
H1983 H 0.65654 0.78801 0.68057 0.0
H1984 H 0.74842 0.75116 0.71101 0.0
H1985 H 0.71436 0.74199 0.68604 0.0
H1986 H 0.6741 0.79156 0.72252 0.0
H1987 H 0.70786 0.80026 0.74789 0.0
C1988 C 0.64089 0.71987 0.69251 0.0
C1989 C 0.62345 0.73453 0.68409 0.0
C1990 C 0.66383 0.72973 0.6967 0.0
C1991 C 0.66955 0.75449 0.6929 0.0
C1992 C 0.65249 0.76884 0.68342 0.0
C1993 C 0.62965 0.75883 0.67877 0.0
C1994 C 0.73266 0.76095 0.71313 0.0
C1995 C 0.73052 0.77606 0.73159 0.0
C1996 C 0.7132 0.75561 0.69888 0.0
C1997 C 0.6917 0.76586 0.70263 0.0
C1998 C 0.69059 0.78351 0.71931 0.0
C1999 C 0.70985 0.78843 0.73385 0.0
H2000 H 0.57246 0.47676 0.69879 0.0
H2001 H 0.63235 0.49544 0.66004 0.0
H2002 H 0.54745 0.47081 0.66563 0.0
H2003 H 0.60737 0.49124 0.62711 0.0
H2004 H 0.5631 0.47382 0.56804 0.0
H2005 H 0.58602 0.46759 0.60164 0.0
H2006 H 0.52865 0.4923 0.63894 0.0
H2007 H 0.50524 0.49653 0.60521 0.0
C2008 C 0.58026 0.47958 0.68315 0.0
C2009 C 0.60435 0.48659 0.682 0.0
C2010 C 0.56589 0.47637 0.66409 0.0
C2011 C 0.57518 0.48064 0.64347 0.0
C2012 C 0.59948 0.48717 0.64248 0.0
C2013 C 0.61389 0.4898 0.66145 0.0
C2014 C 0.55527 0.47729 0.58352 0.0
C2015 C 0.53249 0.48567 0.58413 0.0
C2016 C 0.56849 0.47405 0.60282 0.0
C2017 C 0.55957 0.47999 0.6232 0.0
C2018 C 0.5362 0.48725 0.62372 0.0
C2019 C 0.52271 0.48978 0.60438 0.0
H2020 H 0.77472 0.31007 -0.00096 0.0
H2021 H 0.76483 0.38278 0.97633 0.0
H2022 H 0.7815 0.29651 0.96197 0.0
H2023 H 0.77312 0.36983 0.93944 0.0
H2024 H 0.77568 0.3354 0.87167 0.0
H2025 H 0.76308 0.34792 0.90746 0.0
H2026 H 0.81173 0.29977 0.93784 0.0
H2027 H 0.82305 0.28632 0.90188 0.0
C2028 C 0.7737 0.32306 0.986 0.0
C2029 C 0.76924 0.34743 0.99049 0.0
C2030 C 0.77797 0.31543 0.96478 0.0
C2031 C 0.77852 0.33217 0.94767 0.0
C2032 C 0.77273 0.3563 0.95206 0.0
C2033 C 0.76791 0.36378 0.97323 0.0
C2034 C 0.7838 0.32778 0.8861 0.0
C2035 C 0.80042 0.31006 0.88416 0.0
C2036 C 0.7766 0.33491 0.90663 0.0
C2037 C 0.78617 0.32474 0.92569 0.0
C2038 C 0.80341 0.30753 0.9236 0.0
C2039 C 0.81022 0.30005 0.90305 0.0
H2040 H 0.97792 0.5332 0.18385 0.0
H2041 H 0.91372 0.54279 0.14549 0.0
H2042 H 0.00027 0.53476 0.15086 0.0
H2043 H 0.93616 0.544 0.11242 0.0
H2044 H 0.9851 0.56112 0.05776 0.0
H2045 H 0.96674 0.56739 0.09256 0.0
H2046 H 0.003 0.50715 0.11949 0.0
H2047 H 0.02151 0.50104 0.08493 0.0
C2048 C 0.96856 0.53578 0.1684 0.0
C2049 C 0.94395 0.53765 0.16732 0.0
C2050 C 0.9814 0.5366 0.14949 0.0
C2051 C 0.96999 0.53936 0.12901 0.0
C2052 C 0.94552 0.5421 0.12797 0.0
C2053 C 0.93263 0.54124 0.14692 0.0
C2054 C 0.98952 0.54954 0.07125 0.0
C2055 C 0.00467 0.53049 0.06854 0.0
C2056 C 0.97884 0.55301 0.09111 0.0
C2057 C 0.98323 0.53763 0.10871 0.0
C2058 C 0.99936 0.51944 0.10632 0.0
C2059 C 0.00993 0.51588 0.08646 0.0
H2060 H 0.77189 0.70069 0.50015 0.0
H2061 H 0.82182 0.65352 0.47306 0.0
H2062 H 0.76201 0.71518 0.4641 0.0
H2063 H 0.81297 0.66917 0.43675 0.0
H2064 H 0.77798 0.68638 0.37169 0.0
H2065 H 0.7845 0.66929 0.40765 0.0
H2066 H 0.77641 0.74016 0.43727 0.0
H2067 H 0.76794 0.75658 0.40168 0.0
C2068 C 0.78111 0.69375 0.48647 0.0
C2069 C 0.79779 0.67613 0.48944 0.0
C2070 C 0.77549 0.70214 0.46573 0.0
C2071 C 0.78678 0.69354 0.44741 0.0
C2072 C 0.80363 0.67596 0.45041 0.0
C2073 C 0.80893 0.66717 0.47122 0.0
C2074 C 0.77695 0.69814 0.38593 0.0
C2075 C 0.77252 0.72291 0.38374 0.0
C2076 C 0.78115 0.68844 0.40656 0.0
C2077 C 0.78125 0.70335 0.42545 0.0
C2078 C 0.77623 0.72796 0.42321 0.0
C2079 C 0.77167 0.73752 0.40269 0.0
H2080 H 0.63784 0.50356 0.81897 0.0
H2081 H 0.56752 0.51548 0.79365 0.0
H2082 H 0.62466 0.50859 0.85631 0.0
H2083 H 0.5543 0.51978 0.83089 0.0
H2084 H 0.53926 0.49665 0.90264 0.0
H2085 H 0.55293 0.48998 0.86613 0.0
H2086 H 0.60629 0.54862 0.87658 0.0
H2087 H 0.5918 0.55661 0.91284 0.0
C2088 C 0.61951 0.50676 0.82141 0.0
C2089 C 0.60366 0.50908 0.80348 0.0
C2090 C 0.61206 0.50985 0.8427 0.0
C2091 C 0.58855 0.51469 0.84633 0.0
C2092 C 0.57252 0.51605 0.82844 0.0
C2093 C 0.58008 0.51356 0.8072 0.0
C2094 C 0.55354 0.50863 0.89714 0.0
C2095 C 0.56411 0.52751 0.91077 0.0
C2096 C 0.56152 0.50451 0.87627 0.0
C2097 C 0.58065 0.51873 0.86868 0.0
C2098 C 0.59162 0.53728 0.88225 0.0
C2099 C 0.58331 0.54178 0.90302 0.0
H2100 H 0.75751 0.38967 0.13367 0.0
H2101 H 0.77093 0.32271 0.09957 0.0
H2102 H 0.75617 0.36783 0.16789 0.0
H2103 H 0.76943 0.3009 0.13384 0.0
H2104 H 0.79818 0.28299 0.20422 0.0
H2105 H 0.79463 0.30062 0.16807 0.0
H2106 H 0.7324 0.33583 0.18677 0.0
H2107 H 0.73595 0.31838 0.22291 0.0
C2108 C 0.75995 0.37026 0.13342 0.0
C2109 C 0.76441 0.35798 0.11387 0.0
C2110 C 0.75904 0.35772 0.15302 0.0
C2111 C 0.76271 0.33264 0.15355 0.0
C2112 C 0.76674 0.32025 0.13397 0.0
C2113 C 0.76747 0.33276 0.11433 0.0
C2114 C 0.78352 0.29416 0.20051 0.0
C2115 C 0.76746 0.29941 0.21651 0.0
C2116 C 0.78146 0.30422 0.17978 0.0
C2117 C 0.76337 0.31982 0.17466 0.0
C2118 C 0.74673 0.32418 0.19035 0.0
C2119 C 0.7487 0.31403 0.21101 0.0
H2120 H 0.94091 0.55403 0.30295 0.0
H2121 H 0.98286 0.4961 0.28075 0.0
H2122 H 0.95537 0.5479 0.34045 0.0
H2123 H 0.99716 0.49006 0.31807 0.0
H2124 H 0.99229 0.4661 0.38938 0.0
H2125 H 0.97833 0.47411 0.35199 0.0
H2126 H 0.993 0.5514 0.3637 0.0
H2127 H 0.00667 0.54343 0.40095 0.0
C2128 C 0.95349 0.5403 0.306 0.0
C2129 C 0.96067 0.52552 0.28889 0.0
C2130 C 0.96171 0.53675 0.32745 0.0
C2131 C 0.97709 0.51824 0.33216 0.0
C2132 C 0.98495 0.50413 0.31495 0.0
C2133 C 0.97692 0.5078 0.29355 0.0
C2134 C 0.99236 0.48475 0.38394 0.0
C2135 C 0.00076 0.5041 0.39792 0.0
C2136 C 0.98457 0.48935 0.36256 0.0
C2137 C 0.98476 0.51338 0.35494 0.0
C2138 C 0.9926 0.53273 0.36915 0.0
C2139 C 0.00059 0.52813 0.39038 0.0
H2140 H 0.85322 0.69835 0.5867 0.0
H2141 H 0.84458 0.63486 0.62691 0.0
H2142 H 0.86788 0.72257 0.61862 0.0
H2143 H 0.85846 0.65914 0.65877 0.0
H2144 H 0.8784 0.70466 0.71566 0.0
H2145 H 0.88657 0.68514 0.68091 0.0
H2146 H 0.84344 0.73579 0.64703 0.0
H2147 H 0.83507 0.75479 0.68117 0.0
C2148 C 0.85483 0.68946 0.60226 0.0
C2149 C 0.84708 0.66488 0.60443 0.0
C2150 C 0.86328 0.70332 0.62052 0.0
C2151 C 0.8639 0.69291 0.64129 0.0
C2152 C 0.85836 0.66775 0.64303 0.0
C2153 C 0.85009 0.65385 0.62475 0.0
C2154 C 0.87114 0.71194 0.70071 0.0
C2155 C 0.85566 0.73097 0.70131 0.0
C2156 C 0.87589 0.70082 0.68083 0.0
C2157 C 0.86534 0.70864 0.66125 0.0
C2158 C 0.85208 0.72938 0.66172 0.0
C2159 C 0.84724 0.74037 0.6815 0.0
H2160 H 0.72629 0.64644 0.55156 0.0
H2161 H 0.74038 0.57048 0.55928 0.0
H2162 H 0.68504 0.63465 0.5419 0.0
H2163 H 0.69917 0.55887 0.54974 0.0
H2164 H 0.63585 0.5464 0.50241 0.0
H2165 H 0.67583 0.56106 0.51394 0.0
H2166 H 0.64795 0.61428 0.55694 0.0
H2167 H 0.60784 0.59939 0.54565 0.0
C2168 C 0.72052 0.62728 0.55157 0.0
C2169 C 0.73666 0.60936 0.55595 0.0
C2170 C 0.69692 0.62058 0.54605 0.0
C2171 C 0.68912 0.59587 0.54469 0.0
C2172 C 0.70492 0.57805 0.55024 0.0
C2173 C 0.72845 0.58472 0.55589 0.0
C2174 C 0.63826 0.56131 0.51423 0.0
C2175 C 0.61875 0.57161 0.52326 0.0
C2176 C 0.6611 0.56961 0.52089 0.0
C2177 C 0.66488 0.58846 0.53662 0.0
C2178 C 0.64545 0.5997 0.5448 0.0
C2179 C 0.62254 0.59129 0.53821 0.0
H2180 H 0.21893 0.93562 0.52807 0.0
H2181 H 0.22483 0.97555 0.58954 0.0
H2182 H 0.18109 0.95314 0.51972 0.0
H2183 H 0.18713 0.99298 0.58117 0.0
H2184 H 0.10587 0.99122 0.57028 0.0
H2185 H 0.14513 0.97697 0.5777 0.0
H2186 H 0.16368 0.99353 0.51182 0.0
H2187 H 0.12424 0.00788 0.50432 0.0
C2188 C 0.21223 0.9482 0.53975 0.0
C2189 C 0.22487 0.9541 0.55951 0.0
C2190 C 0.19063 0.95835 0.5349 0.0
C2191 C 0.18109 0.97441 0.54981 0.0
C2192 C 0.19388 0.98049 0.56945 0.0
C2193 C 0.21555 0.97055 0.57419 0.0
C2194 C 0.11835 0.99203 0.5574 0.0
C2195 C 0.1119 0.00069 0.5367 0.0
C2196 C 0.1409 0.98394 0.56169 0.0
C2197 C 0.1575 0.98408 0.54534 0.0
C2198 C 0.15119 0.99301 0.5247 0.0
C2199 C 0.12867 0.00139 0.52046 0.0
H2200 H 0.33496 0.9666 0.73921 0.0
H2201 H 0.39534 0.92277 0.73596 0.0
H2202 H 0.31187 0.93201 0.75354 0.0
H2203 H 0.37213 0.88795 0.74923 0.0
H2204 H 0.33718 0.83744 0.79438 0.0
H2205 H 0.35699 0.87513 0.78254 0.0
H2206 H 0.29336 0.89256 0.7465 0.0
H2207 H 0.27327 0.85538 0.7594 0.0
C2208 C 0.34309 0.94937 0.74103 0.0
C2209 C 0.36697 0.94736 0.73662 0.0
C2210 C 0.32989 0.92957 0.7493 0.0
C2211 C 0.34028 0.90733 0.75304 0.0
C2212 C 0.36378 0.90503 0.74732 0.0
C2213 C 0.37702 0.92487 0.73941 0.0
C2214 C 0.32729 0.84971 0.78443 0.0
C2215 C 0.30377 0.84356 0.77777 0.0
C2216 C 0.3387 0.87111 0.77735 0.0
C2217 C 0.32699 0.88654 0.76301 0.0
C2218 C 0.30293 0.88114 0.75753 0.0
C2219 C 0.29137 0.85989 0.76499 0.0
H2220 H 0.37345 0.11044 0.02007 0.0
H2221 H 0.35989 0.07564 0.08135 0.0
H2222 H 0.40267 0.08096 0.0126 0.0
H2223 H 0.38888 0.04609 0.07372 0.0
H2224 H 0.47001 0.03638 0.06871 0.0
H2225 H 0.43236 0.05404 0.0737 0.0
H2226 H 0.4116 0.03719 0.00633 0.0
H2227 H 0.44949 0.01951 0.00124 0.0
C2228 C 0.3763 0.09617 0.03168 0.0
C2229 C 0.36476 0.09563 0.05148 0.0
C2230 C 0.39291 0.07919 0.02734 0.0
C2231 C 0.3982 0.06145 0.04273 0.0
C2232 C 0.38536 0.05982 0.06175 0.0
C2233 C 0.36877 0.07674 0.06608 0.0
C2234 C 0.45726 0.03602 0.05507 0.0
C2235 C 0.46278 0.02686 0.03453 0.0
C2236 C 0.43561 0.04596 0.05796 0.0
C2237 C 0.41913 0.04707 0.04035 0.0
C2238 C 0.42411 0.03671 0.02011 0.0
C2239 C 0.44572 0.02653 0.01725 0.0
H2240 H 0.64932 0.59342 0.74923 0.0
H2241 H 0.71591 0.5615 0.73973 0.0
H2242 H 0.67012 0.63274 0.75762 0.0
H2243 H 0.73672 0.60059 0.74878 0.0
H2244 H 0.71539 0.69113 0.79622 0.0
H2245 H 0.69488 0.65202 0.78638 0.0
H2246 H 0.74432 0.64108 0.73596 0.0
H2247 H 0.76526 0.6798 0.74625 0.0
C2248 C 0.66839 0.59479 0.7489 0.0
C2249 C 0.68095 0.5743 0.74384 0.0
C2250 C 0.68033 0.61729 0.75389 0.0
C2251 C 0.70511 0.61979 0.75406 0.0
C2252 C 0.71762 0.5994 0.74857 0.0
C2253 C 0.70568 0.57694 0.74345 0.0
C2254 C 0.72196 0.6803 0.78312 0.0
C2255 C 0.74199 0.68853 0.77206 0.0
C2256 C 0.71008 0.65798 0.77734 0.0
C2257 C 0.71787 0.64345 0.76029 0.0
C2258 C 0.73801 0.65165 0.74935 0.0
C2259 C 0.74998 0.67389 0.75521 0.0
H2260 H 0.83481 0.46439 0.05314 0.0
H2261 H 0.85047 0.3931 0.02878 0.0
H2262 H 0.87271 0.48113 0.04071 0.0
H2263 H 0.88763 0.40984 0.01587 0.0
H2264 H 0.93276 0.50726 0.99773 0.0
H2265 H 0.894 0.49067 0.00799 0.0
H2266 H 0.92526 0.42516 0.03005 0.0
H2267 H 0.9636 0.44131 0.01928 0.0
C2268 C 0.84629 0.45231 0.04515 0.0
C2269 C 0.83966 0.42738 0.04214 0.0
C2270 C 0.86789 0.46193 0.03783 0.0
C2271 C 0.88324 0.44682 0.0273 0.0
C2272 C 0.87647 0.42195 0.02423 0.0
C2273 C 0.85506 0.41235 0.03162 0.0
C2274 C 0.93124 0.48915 0.00444 0.0
C2275 C 0.95127 0.47559 0.00763 0.0
C2276 C 0.90908 0.47976 0.01055 0.0
C2277 C 0.90651 0.45664 0.01997 0.0
C2278 C 0.92648 0.44289 0.0226 0.0
C2279 C 0.94854 0.4522 0.01644 0.0
H2280 H 0.33796 0.07601 0.70175 0.0
H2281 H 0.37649 0.08386 0.76395 0.0
H2282 H 0.31657 0.1118 0.71038 0.0
H2283 H 0.35516 0.11995 0.77247 0.0
H2284 H 0.29759 0.17168 0.78806 0.0
H2285 H 0.31477 0.13286 0.78012 0.0
H2286 H 0.32676 0.15586 0.71432 0.0
H2287 H 0.30951 0.19435 0.72211 0.0
C2288 C 0.34188 0.08537 0.71728 0.0
C2289 C 0.35904 0.07719 0.73212 0.0
C2290 C 0.32964 0.10591 0.72219 0.0
C2291 C 0.33421 0.1187 0.74208 0.0
C2292 C 0.35108 0.1103 0.7571 0.0
C2293 C 0.36343 0.08977 0.75215 0.0
C2294 C 0.30357 0.16825 0.77181 0.0
C2295 C 0.30225 0.18608 0.75572 0.0
C2296 C 0.31358 0.14614 0.76734 0.0
C2297 C 0.32222 0.14138 0.74664 0.0
C2298 C 0.32009 0.15888 0.73037 0.0
C2299 C 0.31028 0.18099 0.73487 0.0
H2300 H 0.24002 0.94764 0.22112 0.0
H2301 H 0.20005 0.9322 0.27824 0.0
H2302 H 0.26348 0.91289 0.22862 0.0
H2303 H 0.22356 0.89718 0.28562 0.0
H2304 H 0.26942 0.8288 0.23114 0.0
H2305 H 0.25293 0.86831 0.22634 0.0
H2306 H 0.26469 0.88443 0.29522 0.0
H2307 H 0.28123 0.84468 0.30011 0.0
C2308 C 0.23636 0.93697 0.2354 0.0
C2309 C 0.21799 0.9425 0.24897 0.0
C2310 C 0.24979 0.91703 0.23965 0.0
C2311 C 0.24522 0.90225 0.25759 0.0
C2312 C 0.22757 0.90839 0.27175 0.0
C2313 C 0.21403 0.92834 0.26745 0.0
C2314 C 0.26884 0.8409 0.24522 0.0
C2315 C 0.27652 0.8336 0.26601 0.0
C2316 C 0.25949 0.86358 0.24245 0.0
C2317 C 0.25745 0.87939 0.26044 0.0
C2318 C 0.26589 0.87249 0.28113 0.0
C2319 C 0.2755 0.84984 0.28387 0.0
H2320 H 0.47187 0.34561 0.42582 0.0
H2321 H 0.54298 0.36141 0.40575 0.0
H2322 H 0.47427 0.38291 0.44791 0.0
H2323 H 0.54598 0.39837 0.42885 0.0
H2324 H 0.5341 0.4723 0.46386 0.0
H2325 H 0.53283 0.43864 0.43711 0.0
H2326 H 0.49477 0.39256 0.48188 0.0
H2327 H 0.49519 0.4263 0.50799 0.0
C2328 C 0.48793 0.35732 0.42599 0.0
C2329 C 0.50733 0.35069 0.41438 0.0
C2330 C 0.48943 0.3785 0.4388 0.0
C2331 C 0.5106 0.39313 0.44068 0.0
C2332 C 0.52948 0.3874 0.42779 0.0
C2333 C 0.52778 0.36633 0.41456 0.0
C2334 C 0.52579 0.45482 0.468 0.0
C2335 C 0.51454 0.45185 0.48783 0.0
C2336 C 0.52501 0.43561 0.4527 0.0
C2337 C 0.51318 0.41317 0.45717 0.0
C2338 C 0.50329 0.4099 0.47762 0.0
C2339 C 0.50376 0.4291 0.4927 0.0
H2340 H 0.4707 0.79278 0.19655 0.0
H2341 H 0.46516 0.7156 0.20901 0.0
H2342 H 0.43346 0.79758 0.2148 0.0
H2343 H 0.42774 0.72035 0.22649 0.0
H2344 H 0.34734 0.73915 0.22492 0.0
H2345 H 0.38568 0.73662 0.20875 0.0
H2346 H 0.41708 0.78718 0.25767 0.0
H2347 H 0.3786 0.78919 0.27451 0.0
C2348 C 0.46157 0.77687 0.20315 0.0
C2349 C 0.47095 0.7538 0.2013 0.0
C2350 C 0.44033 0.77965 0.21369 0.0
C2351 C 0.42772 0.75933 0.22207 0.0
C2352 C 0.43707 0.73632 0.22018 0.0
C2353 C 0.45853 0.73364 0.21019 0.0
C2354 C 0.36235 0.74983 0.23228 0.0
C2355 C 0.35983 0.76439 0.25106 0.0
C2356 C 0.38433 0.74828 0.22301 0.0
C2357 C 0.40436 0.7617 0.23192 0.0
C2358 C 0.40189 0.77671 0.25042 0.0
C2359 C 0.37991 0.77779 0.26008 0.0
H2360 H 0.96672 0.71845 0.87546 0.0
H2361 H 0.03756 0.72761 0.90407 0.0
H2362 H 0.9597 0.68144 0.89673 0.0
H2363 H 0.03019 0.69118 0.92566 0.0
H2364 H 0.98522 0.60045 0.91984 0.0
H2365 H 0.98574 0.63723 0.89815 0.0
H2366 H 0.99442 0.68163 0.95688 0.0
H2367 H 0.99245 0.64504 0.9789 0.0
C2368 C 0.98074 0.71253 0.88624 0.0
C2369 C 0.00271 0.72576 0.88809 0.0
C2370 C 0.9767 0.69149 0.89835 0.0
C2371 C 0.99437 0.68384 0.91283 0.0
C2372 C 0.0163 0.69699 0.91466 0.0
C2373 C 0.02053 0.71766 0.90222 0.0
C2374 C 0.98641 0.61798 0.92827 0.0
C2375 C 0.98903 0.61969 0.9512 0.0
C2376 C 0.98686 0.63899 0.91578 0.0
C2377 C 0.99033 0.662 0.92597 0.0
C2378 C 0.99192 0.66392 0.94879 0.0
C2379 C 0.99099 0.64297 0.96131 0.0
H2380 H 0.08617 0.25861 0.72136 0.0
H2381 H 0.12172 0.27263 0.66167 0.0
H2382 H 0.12435 0.25539 0.74074 0.0
H2383 H 0.15936 0.2679 0.68032 0.0
H2384 H 0.22658 0.28007 0.71986 0.0
H2385 H 0.18799 0.2849 0.70318 0.0
H2386 H 0.15738 0.23331 0.74805 0.0
H2387 H 0.19644 0.22985 0.76585 0.0
C2388 C 0.10211 0.26102 0.71236 0.0
C2389 C 0.10076 0.26625 0.68997 0.0
C2390 C 0.1241 0.2589 0.72343 0.0
C2391 C 0.14538 0.26151 0.71234 0.0
C2392 C 0.14377 0.26648 0.68986 0.0
C2393 C 0.12195 0.26909 0.67899 0.0
C2394 C 0.21167 0.26962 0.72619 0.0
C2395 C 0.21477 0.25434 0.74411 0.0
C2396 C 0.18933 0.27226 0.71644 0.0
C2397 C 0.16916 0.25922 0.72381 0.0
C2398 C 0.17224 0.24392 0.74188 0.0
C2399 C 0.19472 0.2417 0.75203 0.0
H2400 H 0.55454 0.70846 0.08885 0.0
H2401 H 0.50946 0.67269 0.13503 0.0
H2402 H 0.55509 0.67047 0.0679 0.0
H2403 H 0.50921 0.6349 0.11364 0.0
H2404 H 0.53318 0.56442 0.08527 0.0
H2405 H 0.53295 0.60297 0.10523 0.0
H2406 H 0.53433 0.64153 0.04444 0.0
H2407 H 0.53548 0.60275 0.0245 0.0
C2408 C 0.54443 0.69258 0.0944 0.0
C2409 C 0.53202 0.69373 0.11375 0.0
C2410 C 0.54467 0.6707 0.08227 0.0
C2411 C 0.53235 0.64932 0.08902 0.0
C2412 C 0.5194 0.65071 0.10809 0.0
C2413 C 0.51934 0.67252 0.12032 0.0
C2414 C 0.53358 0.58112 0.07612 0.0
C2415 C 0.53436 0.5804 0.05322 0.0
C2416 C 0.5332 0.60334 0.0876 0.0
C2417 C 0.53333 0.62561 0.07657 0.0
C2418 C 0.53446 0.6249 0.05363 0.0
C2419 C 0.53506 0.6026 0.04213 0.0
H2420 H 0.0443 0.84149 0.7981 0.0
H2421 H 0.03053 0.76393 0.78849 0.0
H2422 H 0.08192 0.83922 0.78131 0.0
H2423 H 0.0673 0.76173 0.76968 0.0
H2424 H 0.14618 0.75839 0.78621 0.0
H2425 H 0.10389 0.76141 0.78666 0.0
H2426 H 0.11118 0.83259 0.75745 0.0
H2427 H 0.1541 0.82982 0.75853 0.0
C2428 C 0.04872 0.82418 0.79111 0.0
C2429 C 0.03489 0.80279 0.79491 0.0
C2430 C 0.07042 0.82281 0.78145 0.0
C2431 C 0.07825 0.80005 0.77497 0.0
C2432 C 0.06238 0.77937 0.77547 0.0
C2433 C 0.0411 0.78062 0.78585 0.0
C2434 C 0.13861 0.7746 0.77984 0.0
C2435 C 0.15314 0.794 0.77263 0.0
C2436 C 0.11428 0.77625 0.77969 0.0
C2437 C 0.10382 0.79721 0.77188 0.0
C2438 C 0.11852 0.81631 0.76385 0.0
C2439 C 0.14304 0.81481 0.76445 0.0
H2440 H 0.08258 0.33478 0.59038 0.0
H2441 H 0.0083 0.33667 0.60201 0.0
H2442 H 0.08035 0.37077 0.56772 0.0
H2443 H 0.00603 0.37256 0.57881 0.0
H2444 H 0.01185 0.4234 0.51671 0.0
H2445 H 0.01303 0.38487 0.53669 0.0
H2446 H 0.07127 0.41585 0.57748 0.0
H2447 H 0.06972 0.45415 0.55813 0.0
C2448 C 0.06571 0.34277 0.588 0.0
C2449 C 0.04565 0.33288 0.59815 0.0
C2450 C 0.06446 0.3634 0.57499 0.0
C2451 C 0.043 0.37446 0.5714 0.0
C2452 C 0.02277 0.36431 0.58112 0.0
C2453 C 0.02412 0.34389 0.59454 0.0
C2454 C 0.02503 0.42181 0.52978 0.0
C2455 C 0.04072 0.4418 0.53579 0.0
C2456 C 0.02558 0.39987 0.54132 0.0
C2457 C 0.04225 0.39735 0.55867 0.0
C2458 C 0.05831 0.41714 0.56415 0.0
C2459 C 0.05739 0.4391 0.55305 0.0
H2460 H 0.45863 0.20633 0.35004 0.0
H2461 H 0.43414 0.26932 0.38349 0.0
H2462 H 0.41786 0.19008 0.34414 0.0
H2463 H 0.39381 0.25379 0.37692 0.0
H2464 H 0.32271 0.23022 0.36336 0.0
H2465 H 0.36127 0.22547 0.38134 0.0
H2466 H 0.38798 0.20239 0.31977 0.0
H2467 H 0.34958 0.20602 0.30232 0.0
C2468 C 0.44456 0.21665 0.35616 0.0
C2469 C 0.44951 0.23935 0.36677 0.0
C2470 C 0.42125 0.20729 0.35292 0.0
C2471 C 0.40251 0.22065 0.35995 0.0
C2472 C 0.40769 0.2427 0.37161 0.0
C2473 C 0.4309 0.25187 0.37505 0.0
C2474 C 0.33662 0.22318 0.35396 0.0
C2475 C 0.33353 0.21939 0.33134 0.0
C2476 C 0.35873 0.2206 0.36419 0.0
C2477 C 0.37793 0.21446 0.35182 0.0
C2478 C 0.37374 0.20733 0.32985 0.0
C2479 C 0.3517 0.20971 0.31972 0.0
H2480 H 0.47549 0.51592 0.35377 0.0
H2481 H 0.40684 0.54367 0.36206 0.0
H2482 H 0.48637 0.52608 0.39182 0.0
H2483 H 0.41771 0.55363 0.40036 0.0
H2484 H 0.50519 0.55711 0.45788 0.0
H2485 H 0.49294 0.56081 0.41963 0.0
H2486 H 0.42539 0.52472 0.43204 0.0
H2487 H 0.43758 0.52087 0.4704 0.0
C2488 C 0.46291 0.52467 0.36361 0.0
C2489 C 0.44029 0.52888 0.35499 0.0
C2490 C 0.46917 0.5306 0.38538 0.0
C2491 C 0.45282 0.54054 0.39905 0.0
C2492 C 0.43058 0.54586 0.39018 0.0
C2493 C 0.42444 0.5403 0.36825 0.0
C2494 C 0.48752 0.55042 0.45262 0.0
C2495 C 0.47248 0.53834 0.46714 0.0
C2496 C 0.48056 0.55251 0.43068 0.0
C2497 C 0.45835 0.54281 0.42284 0.0
C2498 C 0.44259 0.53247 0.43767 0.0
C2499 C 0.44961 0.53018 0.45962 0.0
H2500 H 0.28345 0.69734 0.0482 0.0
H2501 H 0.27299 0.6271 0.0782 0.0
H2502 H 0.28027 0.71751 0.08374 0.0
H2503 H 0.26944 0.64739 0.11358 0.0
H2504 H 0.23431 0.69665 0.16438 0.0
H2505 H 0.23834 0.67703 0.1288 0.0
H2506 H 0.3045 0.71819 0.12152 0.0
H2507 H 0.30134 0.7369 0.1574 0.0
C2508 C 0.28062 0.68623 0.06238 0.0
C2509 C 0.27851 0.66065 0.06044 0.0
C2510 C 0.27881 0.69777 0.08266 0.0
C2511 C 0.27441 0.68395 0.10124 0.0
C2512 C 0.27259 0.6584 0.09939 0.0
C2513 C 0.27484 0.64684 0.0792 0.0
C2514 C 0.24983 0.70142 0.15533 0.0
C2515 C 0.26746 0.71845 0.16387 0.0
C2516 C 0.25206 0.69023 0.13495 0.0
C2517 C 0.27174 0.69614 0.12255 0.0
C2518 C 0.28905 0.71353 0.13073 0.0
C2519 C 0.28707 0.72439 0.15124 0.0
H2520 H 0.09124 0.5386 0.8492 0.0
H2521 H 0.11923 0.46735 0.85305 0.0
H2522 H 0.06617 0.52905 0.8792 0.0
H2523 H 0.09323 0.45726 0.88284 0.0
H2524 H 0.06742 0.46533 0.95401 0.0
H2525 H 0.08847 0.46685 0.92027 0.0
H2526 H 0.03259 0.50625 0.89003 0.0
H2527 H 0.01219 0.50575 0.92417 0.0
C2528 C 0.09183 0.52072 0.8563 0.0
C2529 C 0.1073 0.50376 0.84876 0.0
C2530 C 0.0772 0.5151 0.87342 0.0
C2531 C 0.07737 0.49223 0.88338 0.0
C2532 C 0.09272 0.47511 0.87569 0.0
C2533 C 0.10759 0.48086 0.8586 0.0
C2534 C 0.05933 0.47374 0.93997 0.0
C2535 C 0.0383 0.4857 0.94181 0.0
C2536 C 0.07143 0.47462 0.92056 0.0
C2537 C 0.06256 0.4872 0.90251 0.0
C2538 C 0.04036 0.4971 0.9038 0.0
C2539 C 0.02849 0.49658 0.92329 0.0
H2540 H 0.21671 0.32353 0.56456 0.0
H2541 H 0.25673 0.3906 0.58333 0.0
H2542 H 0.23692 0.30254 0.59369 0.0
H2543 H 0.27596 0.36991 0.61322 0.0
H2544 H 0.32063 0.32118 0.65481 0.0
H2545 H 0.30397 0.33987 0.62209 0.0
H2546 H 0.23658 0.30187 0.63232 0.0
H2547 H 0.25323 0.28305 0.66429 0.0
C2548 C 0.22985 0.33378 0.57485 0.0
C2549 C 0.23529 0.35864 0.57146 0.0
C2550 C 0.24129 0.32181 0.59168 0.0
C2551 C 0.2581 0.33455 0.60574 0.0
C2552 C 0.26344 0.35946 0.60243 0.0
C2553 C 0.25217 0.37138 0.58545 0.0
C2554 C 0.30237 0.31671 0.64979 0.0
C2555 C 0.28833 0.30042 0.66182 0.0
C2556 C 0.29279 0.32744 0.63119 0.0
C2557 C 0.26897 0.32223 0.62456 0.0
C2558 C 0.25511 0.30582 0.63661 0.0
C2559 C 0.26468 0.29501 0.65497 0.0
H2560 H 0.46615 0.50541 0.24701 0.0
H2561 H 0.39834 0.48971 0.21361 0.0
H2562 H 0.48561 0.50011 0.21258 0.0
H2563 H 0.41785 0.4843 0.17932 0.0
H2564 H 0.46394 0.45122 0.12754 0.0
H2565 H 0.44566 0.45491 0.1627 0.0
H2566 H 0.48708 0.52223 0.17651 0.0
H2567 H 0.5047 0.51922 0.14123 0.0
C2568 C 0.4554 0.50085 0.23235 0.0
C2569 C 0.43069 0.49807 0.23305 0.0
C2570 C 0.46654 0.49786 0.21265 0.0
C2571 C 0.45324 0.49168 0.19331 0.0
C2572 C 0.42856 0.48878 0.19402 0.0
C2573 C 0.4174 0.49209 0.21364 0.0
C2574 C 0.46909 0.46689 0.13798 0.0
C2575 C 0.48589 0.48487 0.13142 0.0
C2576 C 0.45865 0.46894 0.15815 0.0
C2577 C 0.46497 0.48886 0.17232 0.0
C2578 C 0.4821 0.50652 0.16605 0.0
C2579 C 0.49231 0.50466 0.14581 0.0
H2580 H 0.31115 0.68625 0.94167 0.0
H2581 H 0.23634 0.69588 0.94005 0.0
H2582 H 0.31537 0.71281 0.91051 0.0
H2583 H 0.23999 0.72085 0.90796 0.0
H2584 H 0.25202 0.77516 0.85551 0.0
H2585 H 0.25152 0.7566 0.89142 0.0
H2586 H 0.30882 0.71271 0.87376 0.0
H2587 H 0.31031 0.73235 0.83904 0.0
C2588 C 0.29558 0.6939 0.93447 0.0
C2589 C 0.27343 0.68891 0.94317 0.0
C2590 C 0.2979 0.70905 0.91649 0.0
C2591 C 0.27799 0.71896 0.90634 0.0
C2592 C 0.25586 0.7141 0.91538 0.0
C2593 C 0.25368 0.69951 0.93371 0.0
C2594 C 0.26479 0.76192 0.8596 0.0
C2595 C 0.28117 0.75528 0.8444 0.0
C2596 C 0.26437 0.75101 0.8801 0.0
C2597 C 0.27999 0.73284 0.88565 0.0
C2598 C 0.29678 0.72688 0.87054 0.0
C2599 C 0.29752 0.73811 0.85038 0.0
H2600 H 0.10029 0.53338 0.74461 0.0
H2601 H 0.15163 0.49015 0.71454 0.0
H2602 H 0.08251 0.54107 0.70889 0.0
H2603 H 0.13325 0.49707 0.67879 0.0
H2604 H 0.11334 0.53579 0.61728 0.0
H2605 H 0.13008 0.52941 0.65365 0.0
H2606 H 0.05998 0.52342 0.6786 0.0
H2607 H 0.04331 0.53141 0.64245 0.0
C2608 C 0.10752 0.52511 0.7304 0.0
C2609 C 0.12746 0.51123 0.73242 0.0
C2610 C 0.09727 0.5295 0.70989 0.0
C2611 C 0.10659 0.51991 0.69092 0.0
C2612 C 0.12597 0.50523 0.69302 0.0
C2613 C 0.13637 0.50103 0.71353 0.0
C2614 C 0.1015 0.53375 0.6306 0.0
C2615 C 0.07695 0.5341 0.62689 0.0
C2616 C 0.11109 0.5296 0.65141 0.0
C2617 C 0.09637 0.52549 0.66901 0.0
C2618 C 0.07187 0.52659 0.66546 0.0
C2619 C 0.06228 0.53096 0.64467 0.0
H2620 H 0.15885 0.3057 0.48077 0.0
H2621 H 0.20867 0.25213 0.49747 0.0
H2622 H 0.14995 0.28508 0.44565 0.0
H2623 H 0.20067 0.23212 0.46198 0.0
H2624 H 0.20036 0.28911 0.38669 0.0
H2625 H 0.18298 0.29283 0.42133 0.0
H2626 H 0.17927 0.21454 0.42769 0.0
H2627 H 0.19577 0.21044 0.39168 0.0
C2628 C 0.16697 0.28877 0.47734 0.0
C2629 C 0.18485 0.28076 0.49142 0.0
C2630 C 0.16195 0.277 0.45723 0.0
C2631 C 0.17536 0.25765 0.45076 0.0
C2632 C 0.1902 0.24713 0.46642 0.0
C2633 C 0.19484 0.25863 0.48679 0.0
C2634 C 0.19491 0.27244 0.3947 0.0
C2635 C 0.19978 0.24944 0.38618 0.0
C2636 C 0.18482 0.27463 0.41481 0.0
C2637 C 0.17964 0.25395 0.4273 0.0
C2638 C 0.18312 0.23078 0.4184 0.0
C2639 C 0.19286 0.22852 0.3979 0.0
H2640 H 0.27244 0.39803 0.49342 0.0
H2641 H 0.2995 0.33951 0.53135 0.0
H2642 H 0.30844 0.42323 0.50245 0.0
H2643 H 0.33581 0.36457 0.53988 0.0
H2644 H 0.36467 0.46872 0.54434 0.0
H2645 H 0.32857 0.44284 0.53745 0.0
H2646 H 0.36985 0.38328 0.51817 0.0
H2647 H 0.40585 0.40917 0.52424 0.0
C2648 C 0.286 0.39064 0.50381 0.0
C2649 C 0.28297 0.367 0.512 0.0
C2650 C 0.30657 0.40504 0.50894 0.0
C2651 C 0.3247 0.39589 0.52205 0.0
C2652 C 0.32203 0.372 0.52974 0.0
C2653 C 0.3013 0.35768 0.52482 0.0
C2654 C 0.36606 0.45015 0.53855 0.0
C2655 C 0.38819 0.44106 0.53483 0.0
C2656 C 0.34542 0.43536 0.53468 0.0
C2657 C 0.34653 0.41115 0.52726 0.0
C2658 C 0.36858 0.40182 0.52412 0.0
C2659 C 0.38919 0.41666 0.52773 0.0
H2660 H 0.87141 0.10926 0.48358 0.0
H2661 H 0.84427 0.0481 0.52016 0.0
H2662 H 0.91003 0.09194 0.48363 0.0
H2663 H 0.88227 0.03017 0.51933 0.0
H2664 H 0.95881 0.02232 0.54054 0.0
H2665 H 0.91951 0.03687 0.53653 0.0
H2666 H 0.93413 0.06096 0.47148 0.0
H2667 H 0.97412 0.04721 0.47594 0.0
C2668 C 0.8736 0.0919 0.49127 0.0
C2669 C 0.85493 0.0802 0.50211 0.0
C2670 C 0.89571 0.08186 0.49121 0.0
C2671 C 0.89947 0.05975 0.50175 0.0
C2672 C 0.88032 0.04754 0.51159 0.0
C2673 C 0.85844 0.05775 0.51195 0.0
C2674 C 0.95363 0.03051 0.52528 0.0
C2675 C 0.96964 0.03361 0.50857 0.0
C2676 C 0.93094 0.03876 0.5229 0.0
C2677 C 0.92345 0.05008 0.50362 0.0
C2678 C 0.93933 0.05267 0.48667 0.0
C2679 C 0.9622 0.04461 0.48915 0.0
H2680 H 0.73455 0.08487 0.3076 0.0
H2681 H 0.66443 0.11127 0.30667 0.0
H2682 H 0.75098 0.12623 0.30221 0.0
H2683 H 0.68061 0.15224 0.30023 0.0
H2684 H 0.71843 0.2274 0.3052 0.0
H2685 H 0.70237 0.18691 0.31403 0.0
H2686 H 0.75379 0.1548 0.27412 0.0
H2687 H 0.77055 0.19538 0.26622 0.0
C2688 C 0.72267 0.09953 0.30642 0.0
C2689 C 0.69819 0.09475 0.30753 0.0
C2690 C 0.73204 0.12322 0.30305 0.0
C2691 C 0.71712 0.14262 0.3004 0.0
C2692 C 0.69272 0.13791 0.30239 0.0
C2693 C 0.6834 0.11432 0.30606 0.0
C2694 C 0.72613 0.21168 0.29812 0.0
C2695 C 0.74572 0.21457 0.28497 0.0
C2696 C 0.71692 0.18842 0.30319 0.0
C2697 C 0.72685 0.16746 0.29495 0.0
C2698 C 0.74603 0.17045 0.28123 0.0
C2699 C 0.75546 0.19372 0.27644 0.0
H2700 H 0.69613 0.92535 0.98081 0.0
H2701 H 0.7307 0.99154 0.00889 0.0
H2702 H 0.65848 0.9439 0.98088 0.0
H2703 H 0.69278 0.01037 0.00861 0.0
H2704 H 0.61808 0.0125 0.03832 0.0
H2705 H 0.65807 0.00223 0.03083 0.0
H2706 H 0.63427 0.9756 0.96648 0.0
H2707 H 0.59414 0.98539 0.97409 0.0
C2708 C 0.69575 0.94407 0.98658 0.0
C2709 C 0.71628 0.9569 0.99513 0.0
C2710 C 0.67417 0.95478 0.98646 0.0
C2711 C 0.67267 0.97853 0.99491 0.0
C2712 C 0.69343 0.99191 0.00226 0.0
C2713 C 0.71511 0.9812 0.0023 0.0
C2714 C 0.62142 0.00468 0.02249 0.0
C2715 C 0.60292 -0.00064 0.00693 0.0
C2716 C 0.64437 -0.00096 0.01812 0.0
C2717 C 0.64924 0.98802 -0.00191 0.0
C2718 C 0.63094 0.98379 0.98215 0.0
C2719 C 0.60798 0.98938 0.98653 0.0
H2720 H 0.39536 0.4244 0.32708 0.0
H2721 H 0.32807 0.44777 0.30266 0.0
H2722 H 0.37684 0.38447 0.33477 0.0
H2723 H 0.30973 0.40774 0.31011 0.0
H2724 H 0.28069 0.3342 0.33181 0.0
H2725 H 0.2991 0.37557 0.33754 0.0
H2726 H 0.36188 0.353 0.30744 0.0
H2727 H 0.3437 0.31221 0.30179 0.0
C2728 C 0.37658 0.42116 0.32364 0.0
C2729 C 0.36328 0.43909 0.31384 0.0
C2730 C 0.36599 0.39831 0.32808 0.0
C2731 C 0.34191 0.39296 0.32284 0.0
C2732 C 0.32828 0.41141 0.31448 0.0
C2733 C 0.33887 0.43427 0.31 0.0
C2734 C 0.29859 0.33808 0.32688 0.0
C2735 C 0.3107 0.32018 0.31614 0.0
C2736 C 0.30906 0.36169 0.33007 0.0
C2737 C 0.3319 0.36747 0.32291 0.0
C2738 C 0.3444 0.34907 0.31338 0.0
C2739 C 0.33388 0.32574 0.30995 0.0
H2740 H 0.21889 0.5513 0.99574 0.0
H2741 H 0.19106 0.62198 0.98601 0.0
H2742 H 0.1788 0.53318 -0.00199 0.0
H2743 H 0.1514 0.6043 0.98936 0.0
H2744 H 0.08051 0.56407 0.97976 0.0
H2745 H 0.12045 0.57985 0.97359 0.0
H2746 H 0.14735 0.53102 0.0219 0.0
H2747 H 0.10729 0.51433 0.02715 0.0
C2748 C 0.20424 0.56294 0.99394 0.0
C2749 C 0.20823 0.58808 0.99068 0.0
C2750 C 0.18124 0.55261 0.99549 0.0
C2751 C 0.16173 0.56726 0.99408 0.0
C2752 C 0.16581 0.59228 0.9902 0.0
C2753 C 0.18869 0.6025 0.98835 0.0
C2754 C 0.09494 0.55679 0.98916 0.0
C2755 C 0.09073 0.53807 0.00406 0.0
C2756 C 0.11792 0.56589 0.98566 0.0
C2757 C 0.13729 0.55681 0.99726 0.0
C2758 C 0.133 0.53818 0.01234 0.0
C2759 C 0.10999 0.52879 0.01557 0.0
H2760 H 0.7523 0.97526 0.29164 0.0
H2761 H 0.68972 0.9401 0.31746 0.0
H2762 H 0.77147 0.93688 0.29265 0.0
H2763 H 0.70857 0.90125 0.31766 0.0
H2764 H 0.75368 0.83561 0.32476 0.0
H2765 H 0.73894 0.87591 0.33163 0.0
H2766 H 0.76702 0.90084 0.27096 0.0
H2767 H 0.78219 0.86127 0.26451 0.0
C2768 C 0.74268 0.95931 0.29766 0.0
C2769 C 0.71941 0.96062 0.30422 0.0
C2770 C 0.75362 0.93724 0.29813 0.0
C2771 C 0.74143 0.91579 0.30482 0.0
C2772 C 0.71856 0.91739 0.31252 0.0
C2773 C 0.70769 0.93964 0.31232 0.0
C2774 C 0.75696 0.84986 0.31309 0.0
C2775 C 0.76911 0.84519 0.29409 0.0
C2776 C 0.74837 0.8729 0.31694 0.0
C2777 C 0.7518 0.89171 0.30189 0.0
C2778 C 0.7644 0.88704 0.28317 0.0
C2779 C 0.77299 0.86418 0.27937 0.0
H2780 H 0.8231 0.06451 0.76892 0.0
H2781 H 0.88549 0.09714 0.803 0.0
H2782 H 0.80442 0.10307 0.77111 0.0
H2783 H 0.86714 0.13621 0.80445 0.0
H2784 H 0.82165 0.20021 0.81599 0.0
H2785 H 0.83686 0.15967 0.81899 0.0
H2786 H 0.80824 0.14113 0.75403 0.0
H2787 H 0.79246 0.18101 0.75138 0.0
C2788 C 0.83285 0.07998 0.77687 0.0
C2789 C 0.85585 0.07787 0.78559 0.0
C2790 C 0.82218 0.10215 0.77803 0.0
C2791 C 0.83436 0.12291 0.78768 0.0
C2792 C 0.85713 0.12058 0.79706 0.0
C2793 C 0.86773 0.09824 0.79612 0.0
C2794 C 0.81837 0.18732 0.80249 0.0
C2795 C 0.80583 0.19385 0.78345 0.0
C2796 C 0.82725 0.16415 0.80414 0.0
C2797 C 0.82384 0.14708 0.78675 0.0
C2798 C 0.81088 0.15356 0.76792 0.0
C2799 C 0.80191 0.17657 0.76634 0.0
loop_
_geom_bond_atom_site_label_1
_geom_bond_atom_site_label_2
_geom_bond_distance
_geom_bond_site_symmetry_2
_ccdc_geom_bond_type
O0 Cd1 2.223 . S
O0 C8 1.315 . S
Cd1 O0 2.223 . S
Cd1 O4 2.297 . S
Cd1 O5 2.439 . S
Cd1 O11 2.240 . S
Cd2 O3 2.240 . S
Cd2 O10 2.223 . S
Cd2 O12 2.297 . S
Cd2 O13 2.439 . S
O3 Cd2 2.240 . S
O3 C8 1.279 . S
O4 Cd1 2.297 . S
O4 C6 1.247 . S
O5 Cd1 2.439 . S
O5 C6 1.208 . S
C6 O4 1.247 . S
C6 O5 1.208 . S
C7 O12 1.247 . S
C7 O13 1.208 . S
C8 O0 1.315 . S
C8 O3 1.279 . S
C9 O10 1.315 . S
C9 O11 1.279 . S
O10 Cd2 2.223 . S
O10 C9 1.315 . S
O11 Cd1 2.240 . S
O11 C9 1.279 . S
O12 Cd2 2.297 . S
O12 C7 1.247 . S
O13 Cd2 2.439 . S
O13 C7 1.208 . S
O14 Cd15 2.223 . S
O14 C22 1.315 . S
Cd15 O14 2.223 . S
Cd15 O18 2.297 . S
Cd15 O19 2.439 . S
Cd15 O25 2.240 . S
Cd16 O17 2.240 . S
Cd16 O24 2.223 . S
Cd16 O26 2.297 1_455 S
Cd16 O27 2.439 1_455 S
O17 Cd16 2.240 . S
O17 C22 1.279 . S
O18 Cd15 2.297 . S
O18 C20 1.247 . S
O19 Cd15 2.439 . S
O19 C20 1.208 . S
C20 O18 1.247 . S
C20 O19 1.208 . S
C21 O26 1.247 . S
C21 O27 1.208 . S
C22 O14 1.315 . S
C22 O17 1.279 . S
C23 O24 1.315 . S
C23 O25 1.279 . S
O24 Cd16 2.223 . S
O24 C23 1.315 . S
O25 Cd15 2.240 . S
O25 C23 1.279 . S
O26 Cd16 2.297 1_655 S
O26 C21 1.247 . S
O27 Cd16 2.439 1_655 S
O27 C21 1.208 . S
O28 Cd29 2.223 . S
O28 C36 1.315 . S
Cd29 O28 2.223 . S
Cd29 O32 2.297 . S
Cd29 O33 2.439 . S
Cd29 O39 2.240 . S
Cd30 O31 2.240 . S
Cd30 O38 2.223 . S
Cd30 O40 2.297 . S
Cd30 O41 2.439 . S
O31 Cd30 2.240 . S
O31 C36 1.279 . S
O32 Cd29 2.297 . S
O32 C34 1.247 . S
O33 Cd29 2.439 . S
O33 C34 1.208 . S
C34 O32 1.247 . S
C34 O33 1.208 . S
C35 O40 1.247 . S
C35 O41 1.208 . S
C36 O28 1.315 . S
C36 O31 1.279 . S
C37 O38 1.315 . S
C37 O39 1.279 . S
O38 Cd30 2.223 . S
O38 C37 1.315 . S
O39 Cd29 2.240 . S
O39 C37 1.279 . S
O40 Cd30 2.297 . S
O40 C35 1.247 . S
O41 Cd30 2.439 . S
O41 C35 1.208 . S
O42 Cd43 2.223 . S
O42 C50 1.315 . S
Cd43 O42 2.223 . S
Cd43 O46 2.297 . S
Cd43 O47 2.439 . S
Cd43 O53 2.240 . S
Cd44 O45 2.240 . S
Cd44 O52 2.223 . S
Cd44 O54 2.297 . S
Cd44 O55 2.439 . S
O45 Cd44 2.240 . S
O45 C50 1.279 . S
O46 Cd43 2.297 . S
O46 C48 1.247 . S
O47 Cd43 2.439 . S
O47 C48 1.208 . S
C48 O46 1.247 . S
C48 O47 1.208 . S
C49 O54 1.247 . S
C49 O55 1.208 . S
C50 O42 1.315 . S
C50 O45 1.279 . S
C51 O52 1.315 . S
C51 O53 1.279 . S
O52 Cd44 2.223 . S
O52 C51 1.315 . S
O53 Cd43 2.240 . S
O53 C51 1.279 . S
O54 Cd44 2.297 . S
O54 C49 1.247 . S
O55 Cd44 2.439 . S
O55 C49 1.208 . S
O56 Cd57 2.223 . S
O56 C64 1.315 . S
Cd57 O56 2.223 . S
Cd57 O60 2.297 1_545 S
Cd57 O61 2.439 1_545 S
Cd57 O67 2.240 . S
Cd58 O59 2.240 . S
Cd58 O66 2.223 . S
Cd58 O68 2.297 . S
Cd58 O69 2.439 . S
O59 Cd58 2.240 . S
O59 C64 1.279 . S
O60 Cd57 2.297 1_565 S
O60 C62 1.247 . S
O61 Cd57 2.439 1_565 S
O61 C62 1.208 . S
C62 O60 1.247 . S
C62 O61 1.208 . S
C63 O68 1.247 . S
C63 O69 1.208 . S
C64 O56 1.315 . S
C64 O59 1.279 . S
C65 O66 1.315 . S
C65 O67 1.279 . S
O66 Cd58 2.223 . S
O66 C65 1.315 . S
O67 Cd57 2.240 . S
O67 C65 1.279 . S
O68 Cd58 2.297 . S
O68 C63 1.247 . S
O69 Cd58 2.439 . S
O69 C63 1.208 . S
O70 Cd71 2.223 . S
O70 C78 1.315 . S
Cd71 O70 2.223 . S
Cd71 O74 2.297 . S
Cd71 O75 2.439 . S
Cd71 O81 2.240 . S
Cd72 O73 2.240 . S
Cd72 O80 2.223 . S
Cd72 O82 2.297 . S
Cd72 O83 2.439 . S
O73 Cd72 2.240 . S
O73 C78 1.279 . S
O74 Cd71 2.297 . S
O74 C76 1.247 . S
O75 Cd71 2.439 . S
O75 C76 1.208 . S
C76 O74 1.247 . S
C76 O75 1.208 . S
C77 O82 1.247 . S
C77 O83 1.208 . S
C78 O70 1.315 . S
C78 O73 1.279 . S
C79 O80 1.315 . S
C79 O81 1.279 . S
O80 Cd72 2.223 . S
O80 C79 1.315 . S
O81 Cd71 2.240 . S
O81 C79 1.279 . S
O82 Cd72 2.297 . S
O82 C77 1.247 . S
O83 Cd72 2.439 . S
O83 C77 1.208 . S
O84 Cd85 2.223 . S
O84 C92 1.315 . S
Cd85 O84 2.223 . S
Cd85 O88 2.297 . S
Cd85 O89 2.439 . S
Cd85 O95 2.240 1_545 S
Cd86 O87 2.240 . S
Cd86 O94 2.223 1_545 S
Cd86 O96 2.297 1_545 S
Cd86 O97 2.439 . S
O87 Cd86 2.240 . S
O87 C92 1.279 . S
O88 Cd85 2.297 . S
O88 C90 1.247 . S
O89 Cd85 2.439 . S
O89 C90 1.208 . S
C90 O88 1.247 . S
C90 O89 1.208 . S
C91 O96 1.247 1_545 S
C91 O97 1.208 . S
C92 O84 1.315 . S
C92 O87 1.279 . S
C93 O94 1.315 . S
C93 O95 1.279 . S
O94 Cd86 2.223 1_565 S
O94 C93 1.315 . S
O95 Cd85 2.240 1_565 S
O95 C93 1.279 . S
O96 Cd86 2.297 1_565 S
O96 C91 1.247 1_565 S
O97 Cd86 2.439 . S
O97 C91 1.208 . S
O98 Cd99 2.223 . S
O98 C106 1.315 . S
Cd99 O98 2.223 . S
Cd99 O102 2.297 . S
Cd99 O103 2.439 . S
Cd99 O109 2.240 . S
Cd100 O101 2.240 . S
Cd100 O108 2.223 . S
Cd100 O110 2.297 1_554 S
Cd100 O111 2.439 1_554 S
O101 Cd100 2.240 . S
O101 C106 1.279 . S
O102 Cd99 2.297 . S
O102 C104 1.247 . S
O103 Cd99 2.439 . S
O103 C104 1.208 . S
C104 O102 1.247 . S
C104 O103 1.208 . S
C105 O110 1.247 . S
C105 O111 1.208 . S
C106 O98 1.315 . S
C106 O101 1.279 . S
C107 O108 1.315 . S
C107 O109 1.279 . S
O108 Cd100 2.223 . S
O108 C107 1.315 . S
O109 Cd99 2.240 . S
O109 C107 1.279 . S
O110 Cd100 2.297 1_556 S
O110 C105 1.247 . S
O111 Cd100 2.439 1_556 S
O111 C105 1.208 . S
O112 Cd113 2.223 . S
O112 C120 1.315 . S
Cd113 O112 2.223 . S
Cd113 O116 2.297 . S
Cd113 O117 2.439 . S
Cd113 O123 2.240 . S
Cd114 O115 2.240 . S
Cd114 O122 2.223 . S
Cd114 O124 2.297 . S
Cd114 O125 2.439 . S
O115 Cd114 2.240 . S
O115 C120 1.279 . S
O116 Cd113 2.297 . S
O116 C118 1.247 . S
O117 Cd113 2.439 . S
O117 C118 1.208 . S
C118 O116 1.247 . S
C118 O117 1.208 . S
C119 O124 1.255 . S
C119 O125 1.218 . S
C120 O112 1.315 . S
C120 O115 1.279 . S
C121 O122 1.315 . S
C121 O123 1.279 . S
O122 Cd114 2.223 . S
O122 C121 1.315 . S
O123 Cd113 2.240 . S
O123 C121 1.279 . S
O124 Cd114 2.297 . S
O124 C119 1.255 . S
O125 Cd114 2.439 . S
O125 C119 1.218 . S
O126 Cd127 2.223 . S
O126 C134 1.315 . S
Cd127 O126 2.223 . S
Cd127 O130 2.297 . S
Cd127 O131 2.439 . S
Cd127 O137 2.240 . S
Cd128 O129 2.240 . S
Cd128 O136 2.223 . S
Cd128 O138 2.297 . S
Cd128 O139 2.439 . S
O129 Cd128 2.240 . S
O129 C134 1.279 . S
O130 Cd127 2.297 . S
O130 C132 1.247 . S
O131 Cd127 2.439 . S
O131 C132 1.208 . S
C132 O130 1.247 . S
C132 O131 1.208 . S
C133 O138 1.247 . S
C133 O139 1.208 . S
C134 O126 1.315 . S
C134 O129 1.279 . S
C135 O136 1.315 . S
C135 O137 1.279 . S
O136 Cd128 2.223 . S
O136 C135 1.315 . S
O137 Cd127 2.240 . S
O137 C135 1.279 . S
O138 Cd128 2.297 . S
O138 C133 1.247 . S
O139 Cd128 2.439 . S
O139 C133 1.208 . S
O140 Cd141 2.223 . S
O140 C148 1.315 . S
Cd141 O140 2.223 . S
Cd141 O144 2.297 . S
Cd141 O145 2.439 . S
Cd141 O151 2.240 . S
Cd142 O143 2.240 . S
Cd142 O150 2.223 . S
Cd142 O152 2.297 . S
Cd142 O153 2.439 . S
O143 Cd142 2.240 . S
O143 C148 1.279 . S
O144 Cd141 2.297 . S
O144 C146 1.247 . S
O145 Cd141 2.439 . S
O145 C146 1.208 . S
C146 O144 1.247 . S
C146 O145 1.208 . S
C147 O152 1.247 . S
C147 O153 1.208 . S
C148 O140 1.315 . S
C148 O143 1.279 . S
C149 O150 1.315 . S
C149 O151 1.279 . S
O150 Cd142 2.223 . S
O150 C149 1.315 . S
O151 Cd141 2.240 . S
O151 C149 1.279 . S
O152 Cd142 2.297 . S
O152 C147 1.247 . S
O153 Cd142 2.439 . S
O153 C147 1.208 . S
O154 Cd155 2.223 . S
O154 C162 1.315 . S
Cd155 O154 2.223 . S
Cd155 O158 2.297 . S
Cd155 O159 2.439 . S
Cd155 O165 2.240 . S
Cd156 O157 2.240 . S
Cd156 O164 2.223 . S
Cd156 O166 2.297 . S
Cd156 O167 2.439 . S
O157 Cd156 2.240 . S
O157 C162 1.279 . S
O158 Cd155 2.297 . S
O158 C160 1.247 . S
O159 Cd155 2.439 . S
O159 C160 1.208 . S
C160 O158 1.247 . S
C160 O159 1.208 . S
C161 O166 1.247 . S
C161 O167 1.208 . S
C162 O154 1.315 . S
C162 O157 1.279 . S
C163 O164 1.315 . S
C163 O165 1.279 . S
O164 Cd156 2.223 . S
O164 C163 1.315 . S
O165 Cd155 2.240 . S
O165 C163 1.279 . S
O166 Cd156 2.297 . S
O166 C161 1.247 . S
O167 Cd156 2.439 . S
O167 C161 1.208 . S
O168 Cd169 2.223 . S
O168 C176 1.315 . S
Cd169 O168 2.223 . S
Cd169 O172 2.297 . S
Cd169 O173 2.439 1_455 S
Cd169 O179 2.240 1_455 S
Cd170 O171 2.240 1_655 S
Cd170 O178 2.223 1_655 S
Cd170 O180 2.297 . S
Cd170 O181 2.439 . S
O171 Cd170 2.240 1_455 S
O171 C176 1.279 . S
O172 Cd169 2.297 . S
O172 C174 1.247 . S
O173 Cd169 2.439 1_655 S
O173 C174 1.208 1_655 S
C174 O172 1.247 . S
C174 O173 1.208 1_455 S
C175 O180 1.247 . S
C175 O181 1.208 . S
C176 O168 1.315 . S
C176 O171 1.279 . S
C177 O178 1.315 . S
C177 O179 1.279 1_455 S
O178 Cd170 2.223 1_455 S
O178 C177 1.315 . S
O179 Cd169 2.240 1_655 S
O179 C177 1.279 1_655 S
O180 Cd170 2.297 . S
O180 C175 1.247 . S
O181 Cd170 2.439 . S
O181 C175 1.208 . S
O182 Cd183 2.223 . S
O182 C190 1.315 . S
Cd183 O182 2.223 . S
Cd183 O186 2.297 1_455 S
Cd183 O187 2.439 1_455 S
Cd183 O193 2.240 . S
Cd184 O185 2.240 . S
Cd184 O192 2.223 . S
Cd184 O194 2.297 . S
Cd184 O195 2.439 . S
O185 Cd184 2.240 . S
O185 C190 1.279 . S
O186 Cd183 2.297 1_655 S
O186 C188 1.247 . S
O187 Cd183 2.439 1_655 S
O187 C188 1.208 . S
C188 O186 1.247 . S
C188 O187 1.208 . S
C189 O194 1.247 . S
C189 O195 1.208 . S
C190 O182 1.315 . S
C190 O185 1.279 . S
C191 O192 1.315 . S
C191 O193 1.279 . S
O192 Cd184 2.223 . S
O192 C191 1.315 . S
O193 Cd183 2.240 . S
O193 C191 1.279 . S
O194 Cd184 2.297 . S
O194 C189 1.247 . S
O195 Cd184 2.439 . S
O195 C189 1.208 . S
O196 Cd197 2.223 . S
O196 C204 1.315 . S
Cd197 O196 2.223 . S
Cd197 O200 2.297 . S
Cd197 O201 2.439 . S
Cd197 O207 2.240 . S
Cd198 O199 2.240 . S
Cd198 O206 2.223 . S
Cd198 O208 2.297 . S
Cd198 O209 2.439 . S
O199 Cd198 2.240 . S
O199 C204 1.279 . S
O200 Cd197 2.297 . S
O200 C202 1.247 . S
O201 Cd197 2.439 . S
O201 C202 1.208 . S
C202 O200 1.247 . S
C202 O201 1.208 . S
C203 O208 1.247 . S
C203 O209 1.208 . S
C204 O196 1.315 . S
C204 O199 1.279 . S
C205 O206 1.315 . S
C205 O207 1.279 . S
O206 Cd198 2.223 . S
O206 C205 1.315 . S
O207 Cd197 2.240 . S
O207 C205 1.279 . S
O208 Cd198 2.297 . S
O208 C203 1.247 . S
O209 Cd198 2.439 . S
O209 C203 1.208 . S
O210 Cd211 2.223 . S
O210 C218 1.315 . S
Cd211 O210 2.223 . S
Cd211 O214 2.297 . S
Cd211 O215 2.439 . S
Cd211 O221 2.240 . S
Cd212 O213 2.240 . S
Cd212 O220 2.223 . S
Cd212 O222 2.297 . S
Cd212 O223 2.439 . S
O213 Cd212 2.240 . S
O213 C218 1.279 . S
O214 Cd211 2.297 . S
O214 C216 1.247 . S
O215 Cd211 2.439 . S
O215 C216 1.208 . S
C216 O214 1.247 . S
C216 O215 1.208 . S
C217 O222 1.247 . S
C217 O223 1.208 . S
C218 O210 1.315 . S
C218 O213 1.279 . S
C219 O220 1.315 . S
C219 O221 1.279 . S
O220 Cd212 2.223 . S
O220 C219 1.315 . S
O221 Cd211 2.240 . S
O221 C219 1.279 . S
O222 Cd212 2.297 . S
O222 C217 1.247 . S
O223 Cd212 2.439 . S
O223 C217 1.208 . S
O224 Cd225 2.223 . S
O224 C232 1.315 . S
Cd225 O224 2.223 . S
Cd225 O228 2.297 . S
Cd225 O229 2.439 . S
Cd225 O235 2.240 1_545 S
Cd226 O227 2.240 1_565 S
Cd226 O234 2.223 . S
Cd226 O236 2.297 . S
Cd226 O237 2.439 1_565 S
O227 Cd226 2.240 1_545 S
O227 C232 1.279 . S
O228 Cd225 2.297 . S
O228 C230 1.247 . S
O229 Cd225 2.439 . S
O229 C230 1.208 . S
C230 O228 1.247 . S
C230 O229 1.208 . S
C231 O236 1.247 . S
C231 O237 1.208 1_565 S
C232 O224 1.315 . S
C232 O227 1.279 . S
C233 O234 1.315 . S
C233 O235 1.279 . S
O234 Cd226 2.223 . S
O234 C233 1.315 . S
O235 Cd225 2.240 1_565 S
O235 C233 1.279 . S
O236 Cd226 2.297 . S
O236 C231 1.247 . S
O237 Cd226 2.439 1_545 S
O237 C231 1.208 1_545 S
O238 Cd239 2.223 . S
O238 C246 1.315 . S
Cd239 O238 2.223 . S
Cd239 O242 2.297 . S
Cd239 O243 2.439 . S
Cd239 O249 2.240 . S
Cd240 O241 2.240 . S
Cd240 O248 2.223 . S
Cd240 O250 2.297 . S
Cd240 O251 2.439 . S
O241 Cd240 2.240 . S
O241 C246 1.279 . S
O242 Cd239 2.297 . S
O242 C244 1.247 . S
O243 Cd239 2.439 . S
O243 C244 1.208 . S
C244 O242 1.247 . S
C244 O243 1.208 . S
C245 O250 1.247 . S
C245 O251 1.208 . S
C246 O238 1.315 . S
C246 O241 1.279 . S
C247 O248 1.315 . S
C247 O249 1.279 . S
O248 Cd240 2.223 . S
O248 C247 1.315 . S
O249 Cd239 2.240 . S
O249 C247 1.279 . S
O250 Cd240 2.297 . S
O250 C245 1.247 . S
O251 Cd240 2.439 . S
O251 C245 1.208 . S
O252 Cd253 2.223 . S
O252 C260 1.315 . S
Cd253 O252 2.223 . S
Cd253 O256 2.297 1_545 S
Cd253 O257 2.439 1_545 S
Cd253 O263 2.240 . S
Cd254 O255 2.240 . S
Cd254 O262 2.223 . S
Cd254 O264 2.297 . S
Cd254 O265 2.439 . S
O255 Cd254 2.240 . S
O255 C260 1.279 . S
O256 Cd253 2.297 1_565 S
O256 C258 1.247 . S
O257 Cd253 2.439 1_565 S
O257 C258 1.208 . S
C258 O256 1.247 . S
C258 O257 1.208 . S
C259 O264 1.247 . S
C259 O265 1.208 . S
C260 O252 1.315 . S
C260 O255 1.279 . S
C261 O262 1.315 . S
C261 O263 1.279 . S
O262 Cd254 2.223 . S
O262 C261 1.315 . S
O263 Cd253 2.240 . S
O263 C261 1.279 . S
O264 Cd254 2.297 . S
O264 C259 1.247 . S
O265 Cd254 2.439 . S
O265 C259 1.208 . S
O266 Cd267 2.223 . S
O266 C274 1.315 . S
Cd267 O266 2.223 . S
Cd267 O270 2.297 . S
Cd267 O271 2.439 . S
Cd267 O277 2.240 . S
Cd268 O269 2.240 . S
Cd268 O276 2.223 . S
Cd268 O278 2.297 1_554 S
Cd268 O279 2.439 1_554 S
O269 Cd268 2.240 . S
O269 C274 1.279 . S
O270 Cd267 2.297 . S
O270 C272 1.247 . S
O271 Cd267 2.439 . S
O271 C272 1.208 . S
C272 O270 1.247 . S
C272 O271 1.208 . S
C273 O278 1.247 . S
C273 O279 1.208 . S
C274 O266 1.315 . S
C274 O269 1.279 . S
C275 O276 1.315 . S
C275 O277 1.279 . S
O276 Cd268 2.223 . S
O276 C275 1.315 . S
O277 Cd267 2.240 . S
O277 C275 1.279 . S
O278 Cd268 2.297 1_556 S
O278 C273 1.247 . S
O279 Cd268 2.439 1_556 S
O279 C273 1.208 . S
O280 Cd281 2.223 . S
O280 C288 1.315 . S
Cd281 O280 2.223 . S
Cd281 O284 2.297 . S
Cd281 O285 2.439 1_554 S
Cd281 O291 2.240 1_554 S
Cd282 O283 2.240 1_556 S
Cd282 O290 2.223 1_556 S
Cd282 O292 2.297 . S
Cd282 O293 2.439 . S
O283 Cd282 2.240 1_554 S
O283 C288 1.279 . S
O284 Cd281 2.297 . S
O284 C286 1.247 . S
O285 Cd281 2.439 1_556 S
O285 C286 1.208 1_556 S
C286 O284 1.247 . S
C286 O285 1.208 1_554 S
C287 O292 1.247 . S
C287 O293 1.208 . S
C288 O280 1.315 . S
C288 O283 1.279 . S
C289 O290 1.320 . S
C289 O291 1.264 1_554 S
O290 Cd282 2.223 1_554 S
O290 C289 1.320 . S
O291 Cd281 2.240 1_556 S
O291 C289 1.264 1_556 S
O292 Cd282 2.297 . S
O292 C287 1.247 . S
O293 Cd282 2.439 . S
O293 C287 1.208 . S
O294 Cd295 2.223 . S
O294 C302 1.315 . S
Cd295 O294 2.223 . S
Cd295 O298 2.297 . S
Cd295 O299 2.439 . S
Cd295 O305 2.240 . S
Cd296 O297 2.240 . S
Cd296 O304 2.223 . S
Cd296 O306 2.297 . S
Cd296 O307 2.439 . S
O297 Cd296 2.240 . S
O297 C302 1.279 . S
O298 Cd295 2.297 . S
O298 C300 1.247 . S
O299 Cd295 2.439 . S
O299 C300 1.208 . S
C300 O298 1.247 . S
C300 O299 1.208 . S
C301 O306 1.247 . S
C301 O307 1.208 . S
C302 O294 1.315 . S
C302 O297 1.279 . S
C303 O304 1.315 . S
C303 O305 1.279 . S
O304 Cd296 2.223 . S
O304 C303 1.315 . S
O305 Cd295 2.240 . S
O305 C303 1.279 . S
O306 Cd296 2.297 . S
O306 C301 1.247 . S
O307 Cd296 2.439 . S
O307 C301 1.208 . S
O308 Cd309 2.223 . S
O308 C316 1.315 . S
Cd309 O308 2.223 . S
Cd309 O312 2.297 . S
Cd309 O313 2.439 . S
Cd309 O319 2.240 . S
Cd310 O311 2.240 . S
Cd310 O318 2.223 . S
Cd310 O320 2.297 . S
Cd310 O321 2.439 . S
O311 Cd310 2.240 . S
O311 C316 1.279 . S
O312 Cd309 2.297 . S
O312 C314 1.247 . S
O313 Cd309 2.439 . S
O313 C314 1.208 . S
C314 O312 1.247 . S
C314 O313 1.208 . S
C315 O320 1.247 . S
C315 O321 1.208 . S
C316 O308 1.315 . S
C316 O311 1.279 . S
C317 O318 1.315 . S
C317 O319 1.279 . S
O318 Cd310 2.223 . S
O318 C317 1.315 . S
O319 Cd309 2.240 . S
O319 C317 1.279 . S
O320 Cd310 2.297 . S
O320 C315 1.247 . S
O321 Cd310 2.439 . S
O321 C315 1.208 . S
O322 Cd323 2.223 . S
O322 C330 1.315 . S
Cd323 O322 2.223 . S
Cd323 O326 2.297 . S
Cd323 O327 2.439 . S
Cd323 O333 2.240 . S
Cd324 O325 2.240 . S
Cd324 O332 2.223 . S
Cd324 O334 2.297 . S
Cd324 O335 2.439 . S
O325 Cd324 2.240 . S
O325 C330 1.279 . S
O326 Cd323 2.297 . S
O326 C328 1.247 . S
O327 Cd323 2.439 . S
O327 C328 1.208 . S
C328 O326 1.247 . S
C328 O327 1.208 . S
C329 O334 1.247 . S
C329 O335 1.208 . S
C330 O322 1.315 . S
C330 O325 1.279 . S
C331 O332 1.315 . S
C331 O333 1.279 . S
O332 Cd324 2.223 . S
O332 C331 1.315 . S
O333 Cd323 2.240 . S
O333 C331 1.279 . S
O334 Cd324 2.297 . S
O334 C329 1.247 . S
O335 Cd324 2.439 . S
O335 C329 1.208 . S
C336 O352 1.251 1_556 S
C336 O354 1.254 . S
N337 C338 1.333 . S
N337 C342 1.307 . S
N337 Zn343 2.020 1_655 S
C338 N337 1.333 . S
C338 C339 1.379 . S
C338 H356 0.952 1_565 S
C339 C338 1.379 . S
C339 C340 1.390 . S
C339 H366 0.949 . S
C340 C339 1.390 . S
C340 C341 1.357 . S
C341 C340 1.357 . S
C341 C342 1.370 . S
C341 H367 0.950 . S
C342 N337 1.307 . S
C342 C341 1.370 . S
C342 H360 0.948 . S
Zn343 N337 2.020 1_455 S
Zn343 O352 2.039 1_565 S
Zn343 O358 2.034 1_565 S
Zn343 O362 2.025 . S
Zn343 O364 2.024 . S
C344 O363 1.246 . S
C344 O364 1.249 . S
N345 C346 1.307 . S
N345 C347 1.333 . S
N345 Zn351 2.020 . S
C346 N345 1.307 . S
C346 C350 1.363 1_554 S
C346 H357 0.948 1_554 S
C347 N345 1.333 . S
C347 C348 1.379 . S
C347 H355 0.952 1_545 S
C348 C347 1.379 . S
C348 C349 1.390 . S
C348 H368 0.949 . S
C349 C348 1.390 . S
C349 C350 1.346 1_554 S
C350 C346 1.363 1_556 S
C350 C349 1.346 1_556 S
C350 H369 0.969 . S
Zn351 N345 2.020 . S
Zn351 O354 2.025 1_554 S
Zn351 O359 2.024 . S
Zn351 O361 2.027 1_545 S
Zn351 O363 2.034 1_545 S
O352 C336 1.251 1_554 S
O352 Zn343 2.039 1_545 S
C353 O358 1.246 . S
C353 O359 1.249 . S
O354 C336 1.254 . S
O354 Zn351 2.025 1_556 S
H355 C347 0.952 1_565 S
H356 C338 0.952 1_545 S
H357 C346 0.948 1_556 S
O358 Zn343 2.034 1_545 S
O358 C353 1.246 . S
O359 Zn351 2.024 . S
O359 C353 1.249 . S
H360 C342 0.948 . S
O361 Zn351 2.027 1_565 S
O361 C365 1.264 . S
O362 Zn343 2.025 . S
O362 C365 1.254 . S
O363 C344 1.246 . S
O363 Zn351 2.034 1_565 S
O364 Zn343 2.024 . S
O364 C344 1.249 . S
C365 O361 1.264 . S
C365 O362 1.254 . S
H366 C339 0.949 . S
H367 C341 0.950 . S
H368 C348 0.949 . S
H369 C350 0.969 . S
C370 O386 1.251 . S
C370 O388 1.254 . S
N371 C372 1.333 . S
N371 C376 1.307 . S
N371 Zn377 2.020 . S
C372 N371 1.333 . S
C372 C373 1.379 . S
C372 H390 0.952 . S
C373 C372 1.379 . S
C373 C374 1.390 . S
C373 H400 0.949 . S
C374 C373 1.390 . S
C374 C375 1.357 . S
C375 C374 1.357 . S
C375 C376 1.370 . S
C375 H401 0.950 . S
C376 N371 1.307 . S
C376 C375 1.370 . S
C376 H394 0.948 . S
Zn377 N371 2.020 . S
Zn377 O386 2.039 . S
Zn377 O392 2.034 . S
Zn377 O396 2.025 . S
Zn377 O398 2.024 . S
C378 O397 1.246 . S
C378 O398 1.249 . S
N379 C380 1.307 . S
N379 C381 1.333 . S
N379 Zn385 2.020 . S
C380 N379 1.307 . S
C380 C384 1.370 . S
C380 H391 0.948 . S
C381 N379 1.333 . S
C381 C382 1.379 . S
C381 H389 0.952 . S
C382 C381 1.379 . S
C382 C383 1.390 . S
C382 H402 0.949 . S
C383 C382 1.390 . S
C383 C384 1.357 . S
C384 C380 1.370 . S
C384 C383 1.357 . S
C384 H403 0.950 . S
Zn385 N379 2.020 . S
Zn385 O388 2.025 . S
Zn385 O393 2.024 . S
Zn385 O395 2.039 . S
Zn385 O397 2.034 . S
O386 C370 1.251 . S
O386 Zn377 2.039 . S
C387 O392 1.246 . S
C387 O393 1.249 . S
O388 C370 1.254 . S
O388 Zn385 2.025 . S
H389 C381 0.952 . S
H390 C372 0.952 . S
H391 C380 0.948 . S
O392 Zn377 2.034 . S
O392 C387 1.246 . S
O393 Zn385 2.024 . S
O393 C387 1.249 . S
H394 C376 0.948 . S
O395 Zn385 2.039 . S
O395 C399 1.251 . S
O396 Zn377 2.025 . S
O396 C399 1.254 . S
O397 C378 1.246 . S
O397 Zn385 2.034 . S
O398 Zn377 2.024 . S
O398 C378 1.249 . S
C399 O395 1.251 . S
C399 O396 1.254 . S
H400 C373 0.949 . S
H401 C375 0.950 . S
H402 C382 0.949 . S
H403 C384 0.950 . S
C404 O420 1.251 . S
C404 O422 1.254 . S
N405 C406 1.333 . S
N405 C410 1.307 . S
N405 Zn411 2.033 . S
C406 N405 1.333 . S
C406 C407 1.379 . S
C406 H424 0.952 . S
C407 C406 1.379 . S
C407 C408 1.390 . S
C407 H434 0.949 . S
C408 C407 1.390 . S
C408 C409 1.357 . S
C409 C408 1.357 . S
C409 C410 1.370 . S
C409 H435 0.950 . S
C410 N405 1.307 . S
C410 C409 1.370 . S
C410 H428 0.948 . S
Zn411 N405 2.033 . S
Zn411 O420 2.033 1_565 S
Zn411 O426 2.026 1_565 S
Zn411 O430 2.026 . S
Zn411 O432 2.027 . S
C412 O431 1.246 . S
C412 O432 1.249 1_545 S
N413 C414 1.307 . S
N413 C415 1.333 . S
N413 Zn419 2.020 . S
C414 N413 1.307 . S
C414 C418 1.370 . S
C414 H425 0.948 . S
C415 N413 1.333 . S
C415 C416 1.379 . S
C415 H423 0.952 . S
C416 C415 1.379 . S
C416 C417 1.390 . S
C416 H436 0.949 . S
C417 C416 1.390 . S
C417 C418 1.357 . S
C418 C414 1.370 . S
C418 C417 1.357 . S
C418 H437 0.950 . S
Zn419 N413 2.020 . S
Zn419 O422 2.025 . S
Zn419 O427 2.024 . S
Zn419 O429 2.039 . S
Zn419 O431 2.034 . S
O420 C404 1.251 . S
O420 Zn411 2.033 1_545 S
C421 O426 1.246 . S
C421 O427 1.249 . S
O422 C404 1.254 . S
O422 Zn419 2.025 . S
H423 C415 0.952 . S
H424 C406 0.952 . S
H425 C414 0.948 . S
O426 Zn411 2.026 1_545 S
O426 C421 1.246 . S
O427 Zn419 2.024 . S
O427 C421 1.249 . S
H428 C410 0.948 . S
O429 Zn419 2.039 . S
O429 C433 1.251 . S
O430 Zn411 2.026 . S
O430 C433 1.254 1_565 S
O431 C412 1.246 . S
O431 Zn419 2.034 . S
O432 Zn411 2.027 . S
O432 C412 1.249 1_565 S
C433 O429 1.251 . S
C433 O430 1.254 1_545 S
H434 C407 0.949 . S
H435 C409 0.950 . S
H436 C416 0.949 . S
H437 C418 0.950 . S
C438 O454 1.251 . S
C438 O456 1.254 . S
N439 C440 1.333 . S
N439 C444 1.307 . S
N439 Zn445 2.020 . S
C440 N439 1.333 . S
C440 C441 1.379 . S
C440 H458 0.952 . S
C441 C440 1.379 . S
C441 C442 1.390 . S
C441 H468 0.949 . S
C442 C441 1.390 . S
C442 C443 1.357 . S
C443 C442 1.357 . S
C443 C444 1.370 . S
C443 H469 0.950 . S
C444 N439 1.307 . S
C444 C443 1.370 . S
C444 H462 0.948 . S
Zn445 N439 2.020 . S
Zn445 O454 2.039 . S
Zn445 O460 2.034 . S
Zn445 O464 2.025 . S
Zn445 O466 2.024 . S
C446 O465 1.246 . S
C446 O466 1.249 . S
N447 C448 1.307 . S
N447 C449 1.333 . S
N447 Zn453 2.020 . S
C448 N447 1.307 . S
C448 C452 1.370 . S
C448 H459 0.948 . S
C449 N447 1.333 . S
C449 C450 1.379 . S
C449 H457 0.952 . S
C450 C449 1.379 . S
C450 C451 1.390 . S
C450 H470 0.949 . S
C451 C450 1.390 . S
C451 C452 1.357 . S
C452 C448 1.370 . S
C452 C451 1.357 . S
C452 H471 0.950 . S
Zn453 N447 2.020 . S
Zn453 O456 2.025 . S
Zn453 O461 2.024 . S
Zn453 O463 2.039 . S
Zn453 O465 2.034 . S
O454 C438 1.251 . S
O454 Zn445 2.039 . S
C455 O460 1.246 . S
C455 O461 1.249 . S
O456 C438 1.254 . S
O456 Zn453 2.025 . S
H457 C449 0.952 . S
H458 C440 0.952 . S
H459 C448 0.948 . S
O460 Zn445 2.034 . S
O460 C455 1.246 . S
O461 Zn453 2.024 . S
O461 C455 1.249 . S
H462 C444 0.948 . S
O463 Zn453 2.039 . S
O463 C467 1.251 . S
O464 Zn445 2.025 . S
O464 C467 1.254 . S
O465 C446 1.246 . S
O465 Zn453 2.034 . S
O466 Zn445 2.024 . S
O466 C446 1.249 . S
C467 O463 1.251 . S
C467 O464 1.254 . S
H468 C441 0.949 . S
H469 C443 0.950 . S
H470 C450 0.949 . S
H471 C452 0.950 . S
C472 O488 1.268 . S
C472 O490 1.254 1_545 S
N473 C474 1.333 . S
N473 C478 1.307 . S
N473 Zn479 2.020 . S
C474 N473 1.333 . S
C474 C475 1.379 . S
C474 H492 0.952 . S
C475 C474 1.379 . S
C475 C476 1.390 . S
C475 H502 0.949 . S
C476 C475 1.390 . S
C476 C477 1.357 . S
C477 C476 1.357 . S
C477 C478 1.370 . S
C477 H503 0.950 . S
C478 N473 1.307 . S
C478 C477 1.370 . S
C478 H496 0.948 . S
Zn479 N473 2.020 . S
Zn479 O488 2.039 . S
Zn479 O494 2.034 . S
Zn479 O498 2.025 . S
Zn479 O500 2.024 1_545 S
C480 O499 1.246 . S
C480 O500 1.249 . S
N481 C482 1.307 . S
N481 C483 1.333 1_455 S
N481 Zn487 2.020 1_565 S
C482 N481 1.307 . S
C482 C486 1.370 . S
C482 H493 0.948 1_565 S
C483 N481 1.333 1_655 S
C483 C484 1.379 . S
C483 H491 0.952 . S
C484 C483 1.379 . S
C484 C485 1.390 . S
C484 H504 0.949 . S
C485 C484 1.390 . S
C485 C486 1.357 1_655 S
C486 C482 1.370 . S
C486 C485 1.357 1_455 S
C486 H505 0.950 . S
Zn487 N481 2.020 1_545 S
Zn487 O490 2.023 1_545 S
Zn487 O495 2.024 . S
Zn487 O497 2.039 1_455 S
Zn487 O499 2.034 1_545 S
O488 C472 1.268 . S
O488 Zn479 2.039 . S
C489 O494 1.246 . S
C489 O495 1.249 . S
O490 C472 1.254 1_565 S
O490 Zn487 2.023 1_565 S
H491 C483 0.952 . S
H492 C474 0.952 . S
H493 C482 0.948 1_545 S
O494 Zn479 2.034 . S
O494 C489 1.246 . S
O495 Zn487 2.024 . S
O495 C489 1.249 . S
H496 C478 0.948 . S
O497 Zn487 2.039 1_655 S
O497 C501 1.251 . S
O498 Zn479 2.025 . S
O498 C501 1.254 1_455 S
O499 C480 1.246 . S
O499 Zn487 2.034 1_565 S
O500 Zn479 2.024 1_565 S
O500 C480 1.249 . S
C501 O497 1.251 . S
C501 O498 1.254 1_655 S
H502 C475 0.949 . S
H503 C477 0.950 . S
H504 C484 0.949 . S
H505 C486 0.950 . S
C506 O522 1.251 . S
C506 O524 1.254 . S
N507 C508 1.333 . S
N507 C512 1.307 . S
N507 Zn513 2.020 . S
C508 N507 1.333 . S
C508 C509 1.379 . S
C508 H526 0.952 . S
C509 C508 1.379 . S
C509 C510 1.390 . S
C509 H536 0.949 . S
C510 C509 1.390 . S
C510 C511 1.357 . S
C511 C510 1.357 . S
C511 C512 1.370 . S
C511 H537 0.950 . S
C512 N507 1.307 . S
C512 C511 1.370 . S
C512 H530 0.948 . S
Zn513 N507 2.020 . S
Zn513 O522 2.039 . S
Zn513 O528 2.034 . S
Zn513 O532 2.025 . S
Zn513 O534 2.024 . S
C514 O533 1.246 . S
C514 O534 1.249 . S
N515 C516 1.307 . S
N515 C517 1.333 . S
N515 Zn521 2.020 . S
C516 N515 1.307 . S
C516 C520 1.370 . S
C516 H527 0.948 . S
C517 N515 1.333 . S
C517 C518 1.379 . S
C517 H525 0.952 . S
C518 C517 1.379 . S
C518 C519 1.390 . S
C518 H538 0.949 . S
C519 C518 1.390 . S
C519 C520 1.357 . S
C520 C516 1.370 . S
C520 C519 1.357 . S
C520 H539 0.950 . S
Zn521 N515 2.020 . S
Zn521 O524 2.025 . S
Zn521 O529 2.024 . S
Zn521 O531 2.039 . S
Zn521 O533 2.034 . S
O522 C506 1.251 . S
O522 Zn513 2.039 . S
C523 O528 1.246 . S
C523 O529 1.249 . S
O524 C506 1.254 . S
O524 Zn521 2.025 . S
H525 C517 0.952 . S
H526 C508 0.952 . S
H527 C516 0.948 . S
O528 Zn513 2.034 . S
O528 C523 1.246 . S
O529 Zn521 2.024 . S
O529 C523 1.249 . S
H530 C512 0.948 . S
O531 Zn521 2.039 . S
O531 C535 1.251 . S
O532 Zn513 2.025 . S
O532 C535 1.254 . S
O533 C514 1.246 . S
O533 Zn521 2.034 . S
O534 Zn513 2.024 . S
O534 C514 1.249 . S
C535 O531 1.251 . S
C535 O532 1.254 . S
H536 C509 0.949 . S
H537 C511 0.950 . S
H538 C518 0.949 . S
H539 C520 0.950 . S
C540 O556 1.251 . S
C540 O558 1.254 . S
N541 C542 1.333 . S
N541 C546 1.307 . S
N541 Zn547 2.020 . S
C542 N541 1.333 . S
C542 C543 1.379 . S
C542 H560 0.952 . S
C543 C542 1.379 . S
C543 C544 1.390 . S
C543 H570 0.949 . S
C544 C543 1.390 . S
C544 C545 1.357 . S
C545 C544 1.357 . S
C545 C546 1.370 . S
C545 H571 0.950 . S
C546 N541 1.307 . S
C546 C545 1.370 . S
C546 H564 0.948 . S
Zn547 N541 2.020 . S
Zn547 O556 2.039 1_545 S
Zn547 O562 2.034 . S
Zn547 O566 2.025 . S
Zn547 O568 2.024 . S
C548 O567 1.246 . S
C548 O568 1.249 . S
N549 C550 1.307 1_545 S
N549 C551 1.333 . S
N549 Zn555 2.020 1_556 S
C550 N549 1.307 1_565 S
C550 C554 1.370 . S
C550 H561 0.948 . S
C551 N549 1.333 . S
C551 C552 1.379 . S
C551 H559 0.952 . S
C552 C551 1.379 . S
C552 C553 1.390 1_545 S
C552 H572 0.949 . S
C553 C552 1.390 1_565 S
C553 C554 1.357 . S
C554 C550 1.370 . S
C554 C553 1.357 . S
C554 H573 0.950 . S
Zn555 N549 2.020 1_554 S
Zn555 O558 2.025 1_545 S
Zn555 O563 2.024 . S
Zn555 O565 2.039 . S
Zn555 O567 2.034 . S
O556 C540 1.251 . S
O556 Zn547 2.039 1_565 S
C557 O562 1.246 . S
C557 O563 1.249 . S
O558 C540 1.254 . S
O558 Zn555 2.025 1_565 S
H559 C551 0.952 . S
H560 C542 0.952 . S
H561 C550 0.948 . S
O562 Zn547 2.034 . S
O562 C557 1.246 . S
O563 Zn555 2.024 . S
O563 C557 1.249 . S
H564 C546 0.948 . S
O565 Zn555 2.039 . S
O565 C569 1.251 . S
O566 Zn547 2.025 . S
O566 C569 1.254 . S
O567 C548 1.246 . S
O567 Zn555 2.034 . S
O568 Zn547 2.024 . S
O568 C548 1.249 . S
C569 O565 1.251 . S
C569 O566 1.254 . S
H570 C543 0.949 . S
H571 C545 0.950 . S
H572 C552 0.949 . S
H573 C554 0.950 . S
C574 O590 1.251 . S
C574 O592 1.254 . S
N575 C576 1.333 . S
N575 C580 1.307 . S
N575 Zn581 2.020 . S
C576 N575 1.333 . S
C576 C577 1.379 . S
C576 H594 0.952 . S
C577 C576 1.379 . S
C577 C578 1.390 . S
C577 H604 0.949 . S
C578 C577 1.390 . S
C578 C579 1.357 . S
C579 C578 1.357 . S
C579 C580 1.370 . S
C579 H605 0.950 . S
C580 N575 1.307 . S
C580 C579 1.370 . S
C580 H598 0.948 . S
Zn581 N575 2.020 . S
Zn581 O590 2.039 . S
Zn581 O596 2.034 . S
Zn581 O600 2.025 . S
Zn581 O602 2.024 . S
C582 O601 1.246 . S
C582 O602 1.249 . S
N583 C584 1.307 . S
N583 C585 1.333 . S
N583 Zn589 2.020 . S
C584 N583 1.307 . S
C584 C588 1.370 . S
C584 H595 0.948 . S
C585 N583 1.333 . S
C585 C586 1.379 . S
C585 H593 0.952 . S
C586 C585 1.379 . S
C586 C587 1.390 . S
C586 H606 0.949 . S
C587 C586 1.390 . S
C587 C588 1.357 . S
C588 C584 1.370 . S
C588 C587 1.357 . S
C588 H607 0.950 . S
Zn589 N583 2.020 . S
Zn589 O592 2.025 . S
Zn589 O597 2.024 . S
Zn589 O599 2.039 . S
Zn589 O601 2.034 . S
O590 C574 1.251 . S
O590 Zn581 2.039 . S
C591 O596 1.246 . S
C591 O597 1.249 . S
O592 C574 1.254 . S
O592 Zn589 2.025 . S
H593 C585 0.952 . S
H594 C576 0.952 . S
H595 C584 0.948 . S
O596 Zn581 2.034 . S
O596 C591 1.246 . S
O597 Zn589 2.024 . S
O597 C591 1.249 . S
H598 C580 0.948 . S
O599 Zn589 2.039 . S
O599 C603 1.251 . S
O600 Zn581 2.025 . S
O600 C603 1.254 . S
O601 C582 1.246 . S
O601 Zn589 2.034 . S
O602 Zn581 2.024 . S
O602 C582 1.249 . S
C603 O599 1.251 . S
C603 O600 1.254 . S
H604 C577 0.949 . S
H605 C579 0.950 . S
H606 C586 0.949 . S
H607 C588 0.950 . S
C608 O624 1.251 . S
C608 O626 1.254 . S
N609 C610 1.333 . S
N609 C614 1.307 . S
N609 Zn615 2.020 1_556 S
C610 N609 1.333 . S
C610 C611 1.379 . S
C610 H628 0.952 . S
C611 C610 1.379 . S
C611 C612 1.390 . S
C611 H638 0.949 . S
C612 C611 1.390 . S
C612 C613 1.357 . S
C613 C612 1.357 . S
C613 C614 1.370 . S
C613 H639 0.950 . S
C614 N609 1.307 . S
C614 C613 1.370 . S
C614 H632 0.948 . S
Zn615 N609 2.020 1_554 S
Zn615 O624 2.039 . S
Zn615 O630 2.034 . S
Zn615 O634 2.025 . S
Zn615 O636 2.024 . S
C616 O635 1.246 . S
C616 O636 1.249 . S
N617 C618 1.307 . S
N617 C619 1.333 . S
N617 Zn623 2.020 . S
C618 N617 1.307 . S
C618 C622 1.370 . S
C618 H629 0.948 . S
C619 N617 1.333 . S
C619 C620 1.379 . S
C619 H627 0.952 . S
C620 C619 1.379 . S
C620 C621 1.390 . S
C620 H640 0.949 . S
C621 C620 1.390 . S
C621 C622 1.357 . S
C622 C618 1.370 . S
C622 C621 1.357 . S
C622 H641 0.950 . S
Zn623 N617 2.020 . S
Zn623 O626 2.025 . S
Zn623 O631 2.024 . S
Zn623 O633 2.039 . S
Zn623 O635 2.034 . S
O624 C608 1.251 . S
O624 Zn615 2.039 . S
C625 O630 1.246 . S
C625 O631 1.249 . S
O626 C608 1.254 . S
O626 Zn623 2.025 . S
H627 C619 0.952 . S
H628 C610 0.952 . S
H629 C618 0.948 . S
O630 Zn615 2.034 . S
O630 C625 1.246 . S
O631 Zn623 2.024 . S
O631 C625 1.249 . S
H632 C614 0.948 . S
O633 Zn623 2.039 . S
O633 C637 1.251 . S
O634 Zn615 2.025 . S
O634 C637 1.254 . S
O635 C616 1.246 . S
O635 Zn623 2.034 . S
O636 Zn615 2.024 . S
O636 C616 1.249 . S
C637 O633 1.251 . S
C637 O634 1.254 . S
H638 C611 0.949 . S
H639 C613 0.950 . S
H640 C620 0.949 . S
H641 C622 0.950 . S
C642 O658 1.251 . S
C642 O660 1.254 . S
N643 C644 1.333 . S
N643 C648 1.307 . S
N643 Zn649 2.020 . S
C644 N643 1.333 . S
C644 C645 1.379 . S
C644 H662 0.952 . S
C645 C644 1.379 . S
C645 C646 1.390 . S
C645 H672 0.949 . S
C646 C645 1.390 . S
C646 C647 1.357 . S
C647 C646 1.357 . S
C647 C648 1.370 . S
C647 H673 0.950 . S
C648 N643 1.307 . S
C648 C647 1.370 . S
C648 H666 0.948 . S
Zn649 N643 2.020 . S
Zn649 O658 2.039 . S
Zn649 O664 2.034 . S
Zn649 O668 2.025 . S
Zn649 O670 2.024 . S
C650 O669 1.246 . S
C650 O670 1.249 . S
N651 C652 1.307 . S
N651 C653 1.333 . S
N651 Zn657 2.020 . S
C652 N651 1.307 . S
C652 C656 1.370 . S
C652 H663 0.948 . S
C653 N651 1.333 . S
C653 C654 1.379 . S
C653 H661 0.952 . S
C654 C653 1.379 . S
C654 C655 1.390 . S
C654 H674 0.949 . S
C655 C654 1.390 . S
C655 C656 1.357 . S
C656 C652 1.370 . S
C656 C655 1.357 . S
C656 H675 0.950 . S
Zn657 N651 2.020 . S
Zn657 O660 2.025 . S
Zn657 O665 2.024 . S
Zn657 O667 2.039 . S
Zn657 O669 2.034 . S
O658 C642 1.251 . S
O658 Zn649 2.039 . S
C659 O664 1.246 . S
C659 O665 1.249 . S
O660 C642 1.254 . S
O660 Zn657 2.025 . S
H661 C653 0.952 . S
H662 C644 0.952 . S
H663 C652 0.948 . S
O664 Zn649 2.034 . S
O664 C659 1.246 . S
O665 Zn657 2.024 . S
O665 C659 1.249 . S
H666 C648 0.948 . S
O667 Zn657 2.039 . S
O667 C671 1.251 . S
O668 Zn649 2.025 . S
O668 C671 1.254 . S
O669 C650 1.246 . S
O669 Zn657 2.034 . S
O670 Zn649 2.024 . S
O670 C650 1.249 . S
C671 O667 1.251 . S
C671 O668 1.254 . S
H672 C645 0.949 . S
H673 C647 0.950 . S
H674 C654 0.949 . S
H675 C656 0.950 . S
C676 O692 1.251 . S
C676 O694 1.254 . S
N677 C678 1.333 . S
N677 C682 1.307 . S
N677 Zn683 2.020 . S
C678 N677 1.333 . S
C678 C679 1.379 . S
C678 H696 0.952 . S
C679 C678 1.379 . S
C679 C680 1.390 . S
C679 H706 0.949 . S
C680 C679 1.390 . S
C680 C681 1.357 . S
C681 C680 1.357 . S
C681 C682 1.370 . S
C681 H707 0.950 . S
C682 N677 1.307 . S
C682 C681 1.370 . S
C682 H700 0.948 . S
Zn683 N677 2.020 . S
Zn683 O692 2.039 . S
Zn683 O698 2.034 . S
Zn683 O702 2.025 . S
Zn683 O704 2.024 . S
C684 O703 1.246 . S
C684 O704 1.249 . S
N685 C686 1.313 . S
N685 C687 1.333 . S
N685 Zn691 2.020 . S
C686 N685 1.313 . S
C686 C690 1.368 1_455 S
C686 H697 0.944 1_455 S
C687 N685 1.333 . S
C687 C688 1.379 . S
C687 H695 0.952 . S
C688 C687 1.379 . S
C688 C689 1.390 . S
C688 H708 0.949 . S
C689 C688 1.390 . S
C689 C690 1.357 1_455 S
C690 C686 1.368 1_655 S
C690 C689 1.357 1_655 S
C690 H709 0.950 . S
Zn691 N685 2.020 . S
Zn691 O694 2.025 . S
Zn691 O699 2.008 1_455 S
Zn691 O701 2.039 . S
Zn691 O703 2.034 . S
O692 C676 1.251 . S
O692 Zn683 2.039 . S
C693 O698 1.213 1_655 S
C693 O699 1.247 . S
O694 C676 1.254 . S
O694 Zn691 2.025 . S
H695 C687 0.952 . S
H696 C678 0.952 . S
H697 C686 0.944 1_655 S
O698 Zn683 2.034 . S
O698 C693 1.213 1_455 S
O699 Zn691 2.008 1_655 S
O699 C693 1.247 . S
H700 C682 0.948 . S
O701 Zn691 2.039 . S
O701 C705 1.251 . S
O702 Zn683 2.025 . S
O702 C705 1.254 . S
O703 C684 1.246 . S
O703 Zn691 2.034 . S
O704 Zn683 2.024 . S
O704 C684 1.249 . S
C705 O701 1.251 . S
C705 O702 1.254 . S
H706 C679 0.949 . S
H707 C681 0.950 . S
H708 C688 0.949 . S
H709 C690 0.950 . S
C710 O726 1.251 . S
C710 O728 1.254 . S
N711 C712 1.333 . S
N711 C716 1.307 . S
N711 Zn717 2.020 . S
C712 N711 1.333 . S
C712 C713 1.379 . S
C712 H730 0.952 . S
C713 C712 1.379 . S
C713 C714 1.390 . S
C713 H740 0.949 . S
C714 C713 1.390 . S
C714 C715 1.357 . S
C715 C714 1.357 . S
C715 C716 1.370 . S
C715 H741 0.950 . S
C716 N711 1.307 . S
C716 C715 1.370 . S
C716 H734 0.948 . S
Zn717 N711 2.020 . S
Zn717 O726 2.039 . S
Zn717 O732 2.034 . S
Zn717 O736 2.025 . S
Zn717 O738 2.024 . S
C718 O737 1.246 . S
C718 O738 1.249 . S
N719 C720 1.307 . S
N719 C721 1.333 . S
N719 Zn725 2.020 . S
C720 N719 1.307 . S
C720 C724 1.370 . S
C720 H731 0.948 . S
C721 N719 1.333 . S
C721 C722 1.379 . S
C721 H729 0.952 . S
C722 C721 1.379 . S
C722 C723 1.390 . S
C722 H742 0.949 . S
C723 C722 1.390 . S
C723 C724 1.357 . S
C724 C720 1.370 . S
C724 C723 1.357 . S
C724 H743 0.950 . S
Zn725 N719 2.020 . S
Zn725 O728 2.025 . S
Zn725 O733 2.024 . S
Zn725 O735 2.039 . S
Zn725 O737 2.034 . S
O726 C710 1.251 . S
O726 Zn717 2.039 . S
C727 O732 1.246 . S
C727 O733 1.249 . S
O728 C710 1.254 . S
O728 Zn725 2.025 . S
H729 C721 0.952 . S
H730 C712 0.952 . S
H731 C720 0.948 . S
O732 Zn717 2.034 . S
O732 C727 1.246 . S
O733 Zn725 2.024 . S
O733 C727 1.249 . S
H734 C716 0.948 . S
O735 Zn725 2.039 . S
O735 C739 1.251 . S
O736 Zn717 2.025 . S
O736 C739 1.254 . S
O737 C718 1.246 . S
O737 Zn725 2.034 . S
O738 Zn717 2.024 . S
O738 C718 1.249 . S
C739 O735 1.251 . S
C739 O736 1.254 . S
H740 C713 0.949 . S
H741 C715 0.950 . S
H742 C722 0.949 . S
H743 C724 0.950 . S
C744 O760 1.251 . S
C744 O762 1.254 . S
N745 C746 1.333 . S
N745 C750 1.307 . S
N745 Zn751 2.020 . S
C746 N745 1.333 . S
C746 C747 1.379 . S
C746 H764 0.952 . S
C747 C746 1.379 . S
C747 C748 1.390 . S
C747 H774 0.949 . S
C748 C747 1.390 . S
C748 C749 1.357 . S
C749 C748 1.357 . S
C749 C750 1.370 . S
C749 H775 0.950 . S
C750 N745 1.307 . S
C750 C749 1.370 . S
C750 H768 0.948 . S
Zn751 N745 2.020 . S
Zn751 O760 2.039 . S
Zn751 O766 2.034 . S
Zn751 O770 2.025 . S
Zn751 O772 2.024 . S
C752 O771 1.246 . S
C752 O772 1.249 . S
N753 C754 1.307 . S
N753 C755 1.333 . S
N753 Zn759 2.020 . S
C754 N753 1.307 . S
C754 C758 1.370 . S
C754 H765 0.948 . S
C755 N753 1.333 . S
C755 C756 1.379 . S
C755 H763 0.952 . S
C756 C755 1.379 . S
C756 C757 1.390 . S
C756 H776 0.949 . S
C757 C756 1.390 . S
C757 C758 1.357 . S
C758 C754 1.370 . S
C758 C757 1.357 . S
C758 H777 0.950 . S
Zn759 N753 2.020 . S
Zn759 O762 2.025 . S
Zn759 O767 2.024 . S
Zn759 O769 2.039 . S
Zn759 O771 2.034 . S
O760 C744 1.251 . S
O760 Zn751 2.039 . S
C761 O766 1.246 . S
C761 O767 1.249 . S
O762 C744 1.254 . S
O762 Zn759 2.025 . S
H763 C755 0.952 . S
H764 C746 0.952 . S
H765 C754 0.948 . S
O766 Zn751 2.034 . S
O766 C761 1.246 . S
O767 Zn759 2.024 . S
O767 C761 1.249 . S
H768 C750 0.948 . S
O769 Zn759 2.039 . S
O769 C773 1.251 . S
O770 Zn751 2.025 . S
O770 C773 1.254 . S
O771 C752 1.246 . S
O771 Zn759 2.034 . S
O772 Zn751 2.024 . S
O772 C752 1.249 . S
C773 O769 1.251 . S
C773 O770 1.254 . S
H774 C747 0.949 . S
H775 C749 0.950 . S
H776 C756 0.949 . S
H777 C758 0.950 . S
C778 O794 1.251 . S
C778 O796 1.254 . S
N779 C780 1.333 . S
N779 C784 1.307 . S
N779 Zn785 2.020 . S
C780 N779 1.333 . S
C780 C781 1.379 . S
C780 H798 0.952 . S
C781 C780 1.379 . S
C781 C782 1.390 . S
C781 H808 0.949 . S
C782 C781 1.390 . S
C782 C783 1.357 . S
C783 C782 1.357 . S
C783 C784 1.370 . S
C783 H809 0.950 . S
C784 N779 1.307 . S
C784 C783 1.370 . S
C784 H802 0.948 . S
Zn785 N779 2.020 . S
Zn785 O794 2.039 . S
Zn785 O800 2.034 . S
Zn785 O804 2.025 . S
Zn785 O806 2.024 . S
C786 O805 1.246 . S
C786 O806 1.249 . S
N787 C788 1.307 . S
N787 C789 1.333 . S
N787 Zn793 2.020 . S
C788 N787 1.307 . S
C788 C792 1.370 . S
C788 H799 0.948 . S
C789 N787 1.333 . S
C789 C790 1.379 . S
C789 H797 0.952 . S
C790 C789 1.379 . S
C790 C791 1.390 . S
C790 H810 0.949 . S
C791 C790 1.390 . S
C791 C792 1.357 . S
C792 C788 1.370 . S
C792 C791 1.357 . S
C792 H811 0.950 . S
Zn793 N787 2.020 . S
Zn793 O796 2.025 . S
Zn793 O801 2.024 . S
Zn793 O803 2.039 . S
Zn793 O805 2.034 . S
O794 C778 1.251 . S
O794 Zn785 2.039 . S
C795 O800 1.246 . S
C795 O801 1.249 . S
O796 C778 1.254 . S
O796 Zn793 2.025 . S
H797 C789 0.952 . S
H798 C780 0.952 . S
H799 C788 0.948 . S
O800 Zn785 2.034 . S
O800 C795 1.246 . S
O801 Zn793 2.024 . S
O801 C795 1.249 . S
H802 C784 0.948 . S
O803 Zn793 2.039 . S
O803 C807 1.251 . S
O804 Zn785 2.025 . S
O804 C807 1.254 . S
O805 C786 1.246 . S
O805 Zn793 2.034 . S
O806 Zn785 2.024 . S
O806 C786 1.249 . S
C807 O803 1.251 . S
C807 O804 1.254 . S
H808 C781 0.949 . S
H809 C783 0.950 . S
H810 C790 0.949 . S
H811 C792 0.950 . S
C812 O828 1.251 . S
C812 O830 1.254 . S
N813 C814 1.333 . S
N813 C818 1.307 . S
N813 Zn819 2.020 . S
C814 N813 1.333 . S
C814 C815 1.379 . S
C814 H832 0.952 . S
C815 C814 1.379 . S
C815 C816 1.390 . S
C815 H842 0.949 . S
C816 C815 1.390 . S
C816 C817 1.357 . S
C817 C816 1.357 . S
C817 C818 1.370 . S
C817 H843 0.950 . S
C818 N813 1.307 . S
C818 C817 1.370 . S
C818 H836 0.948 . S
Zn819 N813 2.020 . S
Zn819 O828 2.039 . S
Zn819 O834 2.034 . S
Zn819 O838 2.025 . S
Zn819 O840 2.024 . S
C820 O839 1.246 . S
C820 O840 1.249 . S
N821 C822 1.307 . S
N821 C823 1.333 . S
N821 Zn827 2.020 . S
C822 N821 1.307 . S
C822 C826 1.370 . S
C822 H833 0.948 . S
C823 N821 1.333 . S
C823 C824 1.379 . S
C823 H831 0.952 . S
C824 C823 1.379 . S
C824 C825 1.390 . S
C824 H844 0.949 . S
C825 C824 1.390 . S
C825 C826 1.357 . S
C826 C822 1.370 . S
C826 C825 1.357 . S
C826 H845 0.950 . S
Zn827 N821 2.020 . S
Zn827 O830 2.025 . S
Zn827 O835 2.024 . S
Zn827 O837 2.039 . S
Zn827 O839 2.034 . S
O828 C812 1.251 . S
O828 Zn819 2.039 . S
C829 O834 1.246 . S
C829 O835 1.249 . S
O830 C812 1.254 . S
O830 Zn827 2.025 . S
H831 C823 0.952 . S
H832 C814 0.952 . S
H833 C822 0.948 . S
O834 Zn819 2.034 . S
O834 C829 1.246 . S
O835 Zn827 2.024 . S
O835 C829 1.249 . S
H836 C818 0.948 . S
O837 Zn827 2.039 . S
O837 C841 1.251 . S
O838 Zn819 2.025 . S
O838 C841 1.254 . S
O839 C820 1.246 . S
O839 Zn827 2.034 . S
O840 Zn819 2.024 . S
O840 C820 1.249 . S
C841 O837 1.251 . S
C841 O838 1.254 . S
H842 C815 0.949 . S
H843 C817 0.950 . S
H844 C824 0.949 . S
H845 C826 0.950 . S
C846 O862 1.251 . S
C846 O864 1.254 . S
N847 C848 1.333 . S
N847 C852 1.307 . S
N847 Zn853 2.020 . S
C848 N847 1.333 . S
C848 C849 1.379 . S
C848 H866 0.952 . S
C849 C848 1.379 . S
C849 C850 1.390 . S
C849 H876 0.949 . S
C850 C849 1.390 . S
C850 C851 1.357 . S
C851 C850 1.357 . S
C851 C852 1.370 . S
C851 H877 0.950 . S
C852 N847 1.307 . S
C852 C851 1.370 . S
C852 H870 0.948 . S
Zn853 N847 2.020 . S
Zn853 O862 2.039 . S
Zn853 O868 2.034 . S
Zn853 O872 2.025 . S
Zn853 O874 2.024 . S
C854 O873 1.246 1_655 S
C854 O874 1.249 1_655 S
N855 C856 1.307 . S
N855 C857 1.333 1_554 S
N855 Zn861 2.020 . S
C856 N855 1.307 . S
C856 C860 1.370 . S
C856 H867 0.948 . S
C857 N855 1.333 1_556 S
C857 C858 1.379 . S
C857 H865 0.952 . S
C858 C857 1.379 . S
C858 C859 1.390 . S
C858 H878 0.949 . S
C859 C858 1.390 . S
C859 C860 1.357 1_556 S
C860 C856 1.370 . S
C860 C859 1.357 1_554 S
C860 H879 0.950 . S
Zn861 N855 2.020 . S
Zn861 O864 2.025 . S
Zn861 O869 2.024 . S
Zn861 O871 2.001 1_554 S
Zn861 O873 2.034 . S
O862 C846 1.251 . S
O862 Zn853 2.039 . S
C863 O868 1.246 . S
C863 O869 1.249 . S
O864 C846 1.254 . S
O864 Zn861 2.025 . S
H865 C857 0.952 . S
H866 C848 0.952 . S
H867 C856 0.948 . S
O868 Zn853 2.034 . S
O868 C863 1.246 . S
O869 Zn861 2.024 . S
O869 C863 1.249 . S
H870 C852 0.948 . S
O871 Zn861 2.001 1_556 S
O871 C875 1.258 . S
O872 Zn853 2.025 . S
O872 C875 1.254 1_554 S
O873 C854 1.246 1_455 S
O873 Zn861 2.034 . S
O874 Zn853 2.024 . S
O874 C854 1.249 1_455 S
C875 O871 1.258 . S
C875 O872 1.254 1_556 S
H876 C849 0.949 . S
H877 C851 0.950 . S
H878 C858 0.949 . S
H879 C860 0.950 . S
H880 C888 0.950 . S
H881 C893 0.950 . S
H882 C890 0.950 . S
H883 C892 0.950 . S
H884 C894 0.950 . S
H885 C896 0.950 . S
H886 C898 0.950 . S
H887 C899 0.950 . S
C888 H880 0.950 . S
C888 C889 1.386 . S
C888 C890 1.391 . S
C889 C888 1.386 . S
C889 C893 1.393 . S
C890 H882 0.950 . S
C890 C888 1.391 . S
C890 C891 1.400 . S
C891 C890 1.400 . S
C891 C892 1.398 . S
C891 C897 1.491 . S
C892 H883 0.950 . S
C892 C891 1.398 . S
C892 C893 1.391 . S
C893 H881 0.950 . S
C893 C889 1.393 . S
C893 C892 1.391 . S
C894 H884 0.950 . S
C894 C895 1.386 . S
C894 C896 1.391 . S
C895 C894 1.386 . S
C895 C899 1.393 . S
C896 H885 0.950 . S
C896 C894 1.391 . S
C896 C897 1.400 . S
C897 C891 1.491 . S
C897 C896 1.400 . S
C897 C898 1.398 . S
C898 H886 0.950 . S
C898 C897 1.398 . S
C898 C899 1.391 . S
C899 H887 0.950 . S
C899 C895 1.393 . S
C899 C898 1.391 . S
H900 C908 0.950 . S
H901 C913 0.950 . S
H902 C910 0.950 . S
H903 C912 0.950 . S
H904 C914 0.950 . S
H905 C916 0.950 . S
H906 C918 0.950 . S
H907 C919 0.950 . S
C908 H900 0.950 . S
C908 C909 1.386 . S
C908 C910 1.391 . S
C909 C908 1.386 . S
C909 C913 1.393 . S
C910 H902 0.950 . S
C910 C908 1.391 . S
C910 C911 1.400 . S
C911 C910 1.400 . S
C911 C912 1.398 . S
C911 C917 1.491 . S
C912 H903 0.950 . S
C912 C911 1.398 . S
C912 C913 1.391 . S
C913 H901 0.950 . S
C913 C909 1.393 . S
C913 C912 1.391 . S
C914 H904 0.950 . S
C914 C915 1.386 . S
C914 C916 1.391 . S
C915 C914 1.386 . S
C915 C919 1.393 . S
C916 H905 0.950 . S
C916 C914 1.391 . S
C916 C917 1.400 . S
C917 C911 1.491 . S
C917 C916 1.400 . S
C917 C918 1.398 . S
C918 H906 0.950 . S
C918 C917 1.398 . S
C918 C919 1.391 . S
C919 H907 0.950 . S
C919 C915 1.393 . S
C919 C918 1.391 . S
H920 C928 0.950 . S
H921 C933 0.950 . S
H922 C930 0.950 . S
H923 C932 0.950 . S
H924 C934 0.950 . S
H925 C936 0.950 . S
H926 C938 0.950 . S
H927 C939 0.950 . S
C928 H920 0.950 . S
C928 C929 1.386 . S
C928 C930 1.391 . S
C929 C928 1.386 . S
C929 C933 1.393 . S
C930 H922 0.950 . S
C930 C928 1.391 . S
C930 C931 1.400 . S
C931 C930 1.400 . S
C931 C932 1.398 . S
C931 C937 1.491 . S
C932 H923 0.950 . S
C932 C931 1.398 . S
C932 C933 1.391 . S
C933 H921 0.950 . S
C933 C929 1.393 . S
C933 C932 1.391 . S
C934 H924 0.950 . S
C934 C935 1.386 . S
C934 C936 1.391 . S
C935 C934 1.386 . S
C935 C939 1.393 . S
C936 H925 0.950 . S
C936 C934 1.391 . S
C936 C937 1.400 . S
C937 C931 1.491 . S
C937 C936 1.400 . S
C937 C938 1.398 . S
C938 H926 0.950 . S
C938 C937 1.398 . S
C938 C939 1.391 . S
C939 H927 0.950 . S
C939 C935 1.393 . S
C939 C938 1.391 . S
H940 C948 0.950 . S
H941 C953 0.950 . S
H942 C950 0.950 . S
H943 C952 0.950 . S
H944 C954 0.950 . S
H945 C956 0.950 . S
H946 C958 0.950 . S
H947 C959 0.950 . S
C948 H940 0.950 . S
C948 C949 1.386 . S
C948 C950 1.391 . S
C949 C948 1.386 . S
C949 C953 1.393 . S
C950 H942 0.950 . S
C950 C948 1.391 . S
C950 C951 1.400 . S
C951 C950 1.400 . S
C951 C952 1.398 . S
C951 C957 1.491 . S
C952 H943 0.950 . S
C952 C951 1.398 . S
C952 C953 1.391 . S
C953 H941 0.950 . S
C953 C949 1.393 . S
C953 C952 1.391 . S
C954 H944 0.950 . S
C954 C955 1.386 . S
C954 C956 1.391 . S
C955 C954 1.386 . S
C955 C959 1.393 . S
C956 H945 0.950 . S
C956 C954 1.391 . S
C956 C957 1.400 . S
C957 C951 1.491 . S
C957 C956 1.400 . S
C957 C958 1.398 . S
C958 H946 0.950 . S
C958 C957 1.398 . S
C958 C959 1.391 . S
C959 H947 0.950 . S
C959 C955 1.393 . S
C959 C958 1.391 . S
H960 C968 0.950 . S
H961 C973 0.950 . S
H962 C970 0.950 . S
H963 C972 0.950 . S
H964 C974 0.950 . S
H965 C976 0.950 . S
H966 C978 0.950 . S
H967 C979 0.950 1_655 S
C968 H960 0.950 . S
C968 C969 1.386 . S
C968 C970 1.391 . S
C969 C968 1.386 . S
C969 C973 1.393 . S
C970 H962 0.950 . S
C970 C968 1.391 . S
C970 C971 1.400 . S
C971 C970 1.400 . S
C971 C972 1.398 . S
C971 C977 1.491 . S
C972 H963 0.950 . S
C972 C971 1.398 . S
C972 C973 1.391 . S
C973 H961 0.950 . S
C973 C969 1.393 . S
C973 C972 1.391 . S
C974 H964 0.950 . S
C974 C975 1.386 . S
C974 C976 1.391 . S
C975 C974 1.386 . S
C975 C979 1.393 . S
C976 H965 0.950 . S
C976 C974 1.391 . S
C976 C977 1.400 . S
C977 C971 1.491 . S
C977 C976 1.400 . S
C977 C978 1.398 . S
C978 H966 0.950 . S
C978 C977 1.398 . S
C978 C979 1.391 . S
C979 H967 0.950 1_455 S
C979 C975 1.393 . S
C979 C978 1.391 . S
H980 C988 0.950 . S
H981 C993 0.950 . S
H982 C990 0.950 . S
H983 C992 0.950 . S
H984 C994 0.950 . S
H985 C996 0.950 . S
H986 C998 0.950 . S
H987 C999 0.950 . S
C988 H980 0.950 . S
C988 C989 1.386 . S
C988 C990 1.391 . S
C989 C988 1.386 . S
C989 C993 1.393 . S
C990 H982 0.950 . S
C990 C988 1.391 . S
C990 C991 1.400 . S
C991 C990 1.400 . S
C991 C992 1.398 . S
C991 C997 1.491 . S
C992 H983 0.950 . S
C992 C991 1.398 . S
C992 C993 1.391 . S
C993 H981 0.950 . S
C993 C989 1.393 . S
C993 C992 1.391 . S
C994 H984 0.950 . S
C994 C995 1.386 . S
C994 C996 1.391 . S
C995 C994 1.386 . S
C995 C999 1.393 . S
C996 H985 0.950 . S
C996 C994 1.391 . S
C996 C997 1.400 . S
C997 C991 1.491 . S
C997 C996 1.400 . S
C997 C998 1.398 . S
C998 H986 0.950 . S
C998 C997 1.398 . S
C998 C999 1.391 . S
C999 H987 0.950 . S
C999 C995 1.393 . S
C999 C998 1.391 . S
H1000 C1008 0.950 . S
H1001 C1013 0.950 . S
H1002 C1010 0.950 . S
H1003 C1012 0.950 . S
H1004 C1014 0.950 1_554 S
H1005 C1016 0.950 . S
H1006 C1018 0.950 . S
H1007 C1019 0.950 . S
C1008 H1000 0.950 . S
C1008 C1009 1.386 . S
C1008 C1010 1.391 . S
C1009 C1008 1.386 . S
C1009 C1013 1.393 . S
C1010 H1002 0.950 . S
C1010 C1008 1.391 . S
C1010 C1011 1.400 . S
C1011 C1010 1.400 . S
C1011 C1012 1.398 . S
C1011 C1017 1.491 . S
C1012 H1003 0.950 . S
C1012 C1011 1.398 . S
C1012 C1013 1.391 . S
C1013 H1001 0.950 . S
C1013 C1009 1.393 . S
C1013 C1012 1.391 . S
C1014 H1004 0.950 1_556 S
C1014 C1015 1.386 1_556 S
C1014 C1016 1.391 . S
C1015 C1014 1.386 1_554 S
C1015 C1019 1.393 1_554 S
C1016 H1005 0.950 . S
C1016 C1014 1.391 . S
C1016 C1017 1.400 . S
C1017 C1011 1.491 . S
C1017 C1016 1.400 . S
C1017 C1018 1.398 . S
C1018 H1006 0.950 . S
C1018 C1017 1.398 . S
C1018 C1019 1.391 . S
C1019 H1007 0.950 . S
C1019 C1015 1.393 1_556 S
C1019 C1018 1.391 . S
H1020 C1028 0.950 . S
H1021 C1033 0.950 . S
H1022 C1030 0.950 . S
H1023 C1032 0.950 . S
H1024 C1034 0.950 . S
H1025 C1036 0.950 . S
H1026 C1038 0.950 . S
H1027 C1039 0.950 . S
C1028 H1020 0.950 . S
C1028 C1029 1.386 . S
C1028 C1030 1.391 . S
C1029 C1028 1.386 . S
C1029 C1033 1.393 . S
C1030 H1022 0.950 . S
C1030 C1028 1.391 . S
C1030 C1031 1.400 . S
C1031 C1030 1.400 . S
C1031 C1032 1.398 . S
C1031 C1037 1.491 . S
C1032 H1023 0.950 . S
C1032 C1031 1.398 . S
C1032 C1033 1.391 . S
C1033 H1021 0.950 . S
C1033 C1029 1.393 . S
C1033 C1032 1.391 . S
C1034 H1024 0.950 . S
C1034 C1035 1.386 . S
C1034 C1036 1.391 . S
C1035 C1034 1.386 . S
C1035 C1039 1.393 . S
C1036 H1025 0.950 . S
C1036 C1034 1.391 . S
C1036 C1037 1.400 . S
C1037 C1031 1.491 . S
C1037 C1036 1.400 . S
C1037 C1038 1.398 . S
C1038 H1026 0.950 . S
C1038 C1037 1.398 . S
C1038 C1039 1.391 . S
C1039 H1027 0.950 . S
C1039 C1035 1.393 . S
C1039 C1038 1.391 . S
H1040 C1048 0.950 . S
H1041 C1053 0.950 . S
H1042 C1050 0.950 . S
H1043 C1052 0.950 . S
H1044 C1054 0.950 . S
H1045 C1056 0.950 . S
H1046 C1058 0.950 . S
H1047 C1059 0.950 . S
C1048 H1040 0.950 . S
C1048 C1049 1.386 1_565 S
C1048 C1050 1.391 . S
C1049 C1048 1.386 1_545 S
C1049 C1053 1.393 . S
C1050 H1042 0.950 . S
C1050 C1048 1.391 . S
C1050 C1051 1.400 1_565 S
C1051 C1050 1.400 1_545 S
C1051 C1052 1.398 . S
C1051 C1057 1.491 1_545 S
C1052 H1043 0.950 . S
C1052 C1051 1.398 . S
C1052 C1053 1.391 . S
C1053 H1041 0.950 . S
C1053 C1049 1.393 . S
C1053 C1052 1.391 . S
C1054 H1044 0.950 . S
C1054 C1055 1.386 1_545 S
C1054 C1056 1.391 . S
C1055 C1054 1.386 1_565 S
C1055 C1059 1.393 . S
C1056 H1045 0.950 . S
C1056 C1054 1.391 . S
C1056 C1057 1.400 1_545 S
C1057 C1051 1.491 1_565 S
C1057 C1056 1.400 1_565 S
C1057 C1058 1.398 . S
C1058 H1046 0.950 . S
C1058 C1057 1.398 . S
C1058 C1059 1.391 . S
C1059 H1047 0.950 . S
C1059 C1055 1.393 . S
C1059 C1058 1.391 . S
H1060 C1068 0.950 . S
H1061 C1073 0.950 . S
H1062 C1070 0.950 . S
H1063 C1072 0.950 . S
H1064 C1074 0.950 . S
H1065 C1076 0.950 . S
H1066 C1078 0.950 . S
H1067 C1079 0.950 . S
C1068 H1060 0.950 . S
C1068 C1069 1.386 . S
C1068 C1070 1.391 . S
C1069 C1068 1.386 . S
C1069 C1073 1.393 . S
C1070 H1062 0.950 . S
C1070 C1068 1.391 . S
C1070 C1071 1.400 . S
C1071 C1070 1.400 . S
C1071 C1072 1.398 . S
C1071 C1077 1.491 . S
C1072 H1063 0.950 . S
C1072 C1071 1.398 . S
C1072 C1073 1.391 . S
C1073 H1061 0.950 . S
C1073 C1069 1.393 . S
C1073 C1072 1.391 . S
C1074 H1064 0.950 . S
C1074 C1075 1.386 . S
C1074 C1076 1.391 . S
C1075 C1074 1.386 . S
C1075 C1079 1.393 . S
C1076 H1065 0.950 . S
C1076 C1074 1.391 . S
C1076 C1077 1.400 . S
C1077 C1071 1.491 . S
C1077 C1076 1.400 . S
C1077 C1078 1.398 . S
C1078 H1066 0.950 . S
C1078 C1077 1.398 . S
C1078 C1079 1.391 . S
C1079 H1067 0.950 . S
C1079 C1075 1.393 . S
C1079 C1078 1.391 . S
H1080 C1088 0.950 1_565 S
H1081 C1093 0.950 . S
H1082 C1090 0.950 1_565 S
H1083 C1092 0.950 . S
H1084 C1094 0.950 . S
H1085 C1096 0.950 . S
H1086 C1098 0.950 1_565 S
H1087 C1099 0.950 . S
C1088 H1080 0.950 1_545 S
C1088 C1089 1.386 . S
C1088 C1090 1.391 . S
C1089 C1088 1.386 . S
C1089 C1093 1.393 . S
C1090 H1082 0.950 1_545 S
C1090 C1088 1.391 . S
C1090 C1091 1.400 . S
C1091 C1090 1.400 . S
C1091 C1092 1.398 . S
C1091 C1097 1.491 . S
C1092 H1083 0.950 . S
C1092 C1091 1.398 . S
C1092 C1093 1.391 . S
C1093 H1081 0.950 . S
C1093 C1089 1.393 . S
C1093 C1092 1.391 . S
C1094 H1084 0.950 . S
C1094 C1095 1.386 . S
C1094 C1096 1.391 . S
C1095 C1094 1.386 . S
C1095 C1099 1.393 . S
C1096 H1085 0.950 . S
C1096 C1094 1.391 . S
C1096 C1097 1.400 . S
C1097 C1091 1.491 . S
C1097 C1096 1.400 . S
C1097 C1098 1.398 . S
C1098 H1086 0.950 1_545 S
C1098 C1097 1.398 . S
C1098 C1099 1.391 . S
C1099 H1087 0.950 . S
C1099 C1095 1.393 . S
C1099 C1098 1.391 . S
H1100 C1108 0.950 . S
H1101 C1113 0.950 . S
H1102 C1110 0.950 . S
H1103 C1112 0.950 . S
H1104 C1114 0.950 . S
H1105 C1116 0.950 . S
H1106 C1118 0.950 . S
H1107 C1119 0.950 . S
C1108 H1100 0.950 . S
C1108 C1109 1.386 . S
C1108 C1110 1.391 . S
C1109 C1108 1.386 . S
C1109 C1113 1.393 . S
C1110 H1102 0.950 . S
C1110 C1108 1.391 . S
C1110 C1111 1.400 . S
C1111 C1110 1.400 . S
C1111 C1112 1.398 . S
C1111 C1117 1.491 . S
C1112 H1103 0.950 . S
C1112 C1111 1.398 . S
C1112 C1113 1.391 . S
C1113 H1101 0.950 . S
C1113 C1109 1.393 . S
C1113 C1112 1.391 . S
C1114 H1104 0.950 . S
C1114 C1115 1.386 . S
C1114 C1116 1.391 . S
C1115 C1114 1.386 . S
C1115 C1119 1.393 . S
C1116 H1105 0.950 . S
C1116 C1114 1.391 . S
C1116 C1117 1.400 . S
C1117 C1111 1.491 . S
C1117 C1116 1.400 . S
C1117 C1118 1.398 . S
C1118 H1106 0.950 . S
C1118 C1117 1.398 . S
C1118 C1119 1.391 . S
C1119 H1107 0.950 . S
C1119 C1115 1.393 . S
C1119 C1118 1.391 . S
H1120 C1128 0.950 . S
H1121 C1133 0.950 1_565 S
H1122 C1130 0.950 . S
H1123 C1132 0.950 1_565 S
H1124 C1134 0.950 . S
H1125 C1136 0.950 . S
H1126 C1138 0.950 . S
H1127 C1139 0.950 . S
C1128 H1120 0.950 . S
C1128 C1129 1.386 . S
C1128 C1130 1.391 . S
C1129 C1128 1.386 . S
C1129 C1133 1.393 . S
C1130 H1122 0.950 . S
C1130 C1128 1.391 . S
C1130 C1131 1.400 . S
C1131 C1130 1.400 . S
C1131 C1132 1.398 . S
C1131 C1137 1.491 . S
C1132 H1123 0.950 1_545 S
C1132 C1131 1.398 . S
C1132 C1133 1.391 . S
C1133 H1121 0.950 1_545 S
C1133 C1129 1.393 . S
C1133 C1132 1.391 . S
C1134 H1124 0.950 . S
C1134 C1135 1.386 . S
C1134 C1136 1.391 . S
C1135 C1134 1.386 . S
C1135 C1139 1.393 . S
C1136 H1125 0.950 . S
C1136 C1134 1.391 . S
C1136 C1137 1.400 . S
C1137 C1131 1.491 . S
C1137 C1136 1.400 . S
C1137 C1138 1.398 . S
C1138 H1126 0.950 . S
C1138 C1137 1.398 . S
C1138 C1139 1.391 . S
C1139 H1127 0.950 . S
C1139 C1135 1.393 . S
C1139 C1138 1.391 . S
H1140 C1148 0.950 . S
H1141 C1153 0.950 . S
H1142 C1150 0.950 . S
H1143 C1152 0.950 . S
H1144 C1154 0.950 . S
H1145 C1156 0.950 . S
H1146 C1158 0.950 . S
H1147 C1159 0.950 . S
C1148 H1140 0.950 . S
C1148 C1149 1.386 . S
C1148 C1150 1.391 . S
C1149 C1148 1.386 . S
C1149 C1153 1.393 . S
C1150 H1142 0.950 . S
C1150 C1148 1.391 . S
C1150 C1151 1.400 . S
C1151 C1150 1.400 . S
C1151 C1152 1.398 . S
C1151 C1157 1.491 . S
C1152 H1143 0.950 . S
C1152 C1151 1.398 . S
C1152 C1153 1.391 . S
C1153 H1141 0.950 . S
C1153 C1149 1.393 . S
C1153 C1152 1.391 . S
C1154 H1144 0.950 . S
C1154 C1155 1.386 . S
C1154 C1156 1.391 . S
C1155 C1154 1.386 . S
C1155 C1159 1.393 . S
C1156 H1145 0.950 . S
C1156 C1154 1.391 . S
C1156 C1157 1.400 . S
C1157 C1151 1.491 . S
C1157 C1156 1.400 . S
C1157 C1158 1.398 . S
C1158 H1146 0.950 . S
C1158 C1157 1.398 . S
C1158 C1159 1.391 . S
C1159 H1147 0.950 . S
C1159 C1155 1.393 . S
C1159 C1158 1.391 . S
H1160 C1168 0.950 . S
H1161 C1173 0.950 . S
H1162 C1170 0.950 . S
H1163 C1172 0.950 . S
H1164 C1174 0.950 . S
H1165 C1176 0.950 . S
H1166 C1178 0.950 . S
H1167 C1179 0.950 . S
C1168 H1160 0.950 . S
C1168 C1169 1.386 . S
C1168 C1170 1.391 . S
C1169 C1168 1.386 . S
C1169 C1173 1.393 . S
C1170 H1162 0.950 . S
C1170 C1168 1.391 . S
C1170 C1171 1.400 . S
C1171 C1170 1.400 . S
C1171 C1172 1.398 . S
C1171 C1177 1.491 1_545 S
C1172 H1163 0.950 . S
C1172 C1171 1.398 . S
C1172 C1173 1.391 . S
C1173 H1161 0.950 . S
C1173 C1169 1.393 . S
C1173 C1172 1.391 . S
C1174 H1164 0.950 . S
C1174 C1175 1.386 . S
C1174 C1176 1.391 . S
C1175 C1174 1.386 . S
C1175 C1179 1.393 . S
C1176 H1165 0.950 . S
C1176 C1174 1.391 . S
C1176 C1177 1.400 . S
C1177 C1171 1.491 1_565 S
C1177 C1176 1.400 . S
C1177 C1178 1.398 . S
C1178 H1166 0.950 . S
C1178 C1177 1.398 . S
C1178 C1179 1.391 . S
C1179 H1167 0.950 . S
C1179 C1175 1.393 . S
C1179 C1178 1.391 . S
H1180 C1188 0.950 . S
H1181 C1193 0.950 . S
H1182 C1190 0.950 . S
H1183 C1192 0.950 . S
H1184 C1194 0.950 . S
H1185 C1196 0.950 . S
H1186 C1198 0.950 . S
H1187 C1199 0.950 . S
C1188 H1180 0.950 . S
C1188 C1189 1.386 . S
C1188 C1190 1.391 . S
C1189 C1188 1.386 . S
C1189 C1193 1.393 . S
C1190 H1182 0.950 . S
C1190 C1188 1.391 . S
C1190 C1191 1.400 . S
C1191 C1190 1.400 . S
C1191 C1192 1.398 . S
C1191 C1197 1.491 . S
C1192 H1183 0.950 . S
C1192 C1191 1.398 . S
C1192 C1193 1.391 . S
C1193 H1181 0.950 . S
C1193 C1189 1.393 . S
C1193 C1192 1.391 . S
C1194 H1184 0.950 . S
C1194 C1195 1.386 . S
C1194 C1196 1.391 . S
C1195 C1194 1.386 . S
C1195 C1199 1.393 . S
C1196 H1185 0.950 . S
C1196 C1194 1.391 . S
C1196 C1197 1.400 . S
C1197 C1191 1.491 . S
C1197 C1196 1.400 . S
C1197 C1198 1.398 . S
C1198 H1186 0.950 . S
C1198 C1197 1.398 . S
C1198 C1199 1.391 . S
C1199 H1187 0.950 . S
C1199 C1195 1.393 . S
C1199 C1198 1.391 . S
H1200 C1208 0.950 . S
H1201 C1213 0.950 1_556 S
H1202 C1210 0.950 . S
H1203 C1212 0.950 1_556 S
H1204 C1214 0.950 . S
H1205 C1216 0.950 . S
H1206 C1218 0.950 . S
H1207 C1219 0.950 . S
C1208 H1200 0.950 . S
C1208 C1209 1.386 . S
C1208 C1210 1.391 . S
C1209 C1208 1.386 . S
C1209 C1213 1.393 . S
C1210 H1202 0.950 . S
C1210 C1208 1.391 . S
C1210 C1211 1.400 . S
C1211 C1210 1.400 . S
C1211 C1212 1.398 . S
C1211 C1217 1.491 . S
C1212 H1203 0.950 1_554 S
C1212 C1211 1.398 . S
C1212 C1213 1.391 . S
C1213 H1201 0.950 1_554 S
C1213 C1209 1.393 . S
C1213 C1212 1.391 . S
C1214 H1204 0.950 . S
C1214 C1215 1.386 1_556 S
C1214 C1216 1.391 . S
C1215 C1214 1.386 1_554 S
C1215 C1219 1.393 . S
C1216 H1205 0.950 . S
C1216 C1214 1.391 . S
C1216 C1217 1.400 1_556 S
C1217 C1211 1.491 . S
C1217 C1216 1.400 1_554 S
C1217 C1218 1.398 . S
C1218 H1206 0.950 . S
C1218 C1217 1.398 . S
C1218 C1219 1.391 . S
C1219 H1207 0.950 . S
C1219 C1215 1.393 . S
C1219 C1218 1.391 . S
H1220 C1228 0.950 . S
H1221 C1233 0.950 . S
H1222 C1230 0.950 . S
H1223 C1232 0.950 . S
H1224 C1234 0.950 . S
H1225 C1236 0.950 . S
H1226 C1238 0.950 . S
H1227 C1239 0.950 . S
C1228 H1220 0.950 . S
C1228 C1229 1.386 . S
C1228 C1230 1.391 . S
C1229 C1228 1.386 . S
C1229 C1233 1.393 . S
C1230 H1222 0.950 . S
C1230 C1228 1.391 . S
C1230 C1231 1.400 . S
C1231 C1230 1.400 . S
C1231 C1232 1.398 . S
C1231 C1237 1.491 . S
C1232 H1223 0.950 . S
C1232 C1231 1.398 . S
C1232 C1233 1.391 . S
C1233 H1221 0.950 . S
C1233 C1229 1.393 . S
C1233 C1232 1.391 . S
C1234 H1224 0.950 . S
C1234 C1235 1.386 . S
C1234 C1236 1.391 . S
C1235 C1234 1.386 . S
C1235 C1239 1.393 . S
C1236 H1225 0.950 . S
C1236 C1234 1.391 . S
C1236 C1237 1.400 . S
C1237 C1231 1.491 . S
C1237 C1236 1.400 . S
C1237 C1238 1.398 . S
C1238 H1226 0.950 . S
C1238 C1237 1.398 . S
C1238 C1239 1.391 . S
C1239 H1227 0.950 . S
C1239 C1235 1.393 . S
C1239 C1238 1.391 . S
H1240 C1248 0.950 . S
H1241 C1253 0.950 . S
H1242 C1250 0.950 . S
H1243 C1252 0.950 . S
H1244 C1254 0.950 . S
H1245 C1256 0.950 . S
H1246 C1258 0.950 . S
H1247 C1259 0.950 . S
C1248 H1240 0.950 . S
C1248 C1249 1.386 . S
C1248 C1250 1.391 . S
C1249 C1248 1.386 . S
C1249 C1253 1.393 . S
C1250 H1242 0.950 . S
C1250 C1248 1.391 . S
C1250 C1251 1.400 . S
C1251 C1250 1.400 . S
C1251 C1252 1.398 . S
C1251 C1257 1.491 . S
C1252 H1243 0.950 . S
C1252 C1251 1.398 . S
C1252 C1253 1.391 . S
C1253 H1241 0.950 . S
C1253 C1249 1.393 . S
C1253 C1252 1.391 . S
C1254 H1244 0.950 . S
C1254 C1255 1.386 . S
C1254 C1256 1.391 . S
C1255 C1254 1.386 . S
C1255 C1259 1.393 . S
C1256 H1245 0.950 . S
C1256 C1254 1.391 . S
C1256 C1257 1.400 . S
C1257 C1251 1.491 . S
C1257 C1256 1.400 . S
C1257 C1258 1.398 . S
C1258 H1246 0.950 . S
C1258 C1257 1.398 . S
C1258 C1259 1.391 . S
C1259 H1247 0.950 . S
C1259 C1255 1.393 . S
C1259 C1258 1.391 . S
H1260 C1268 0.950 . S
H1261 C1273 0.950 . S
H1262 C1270 0.950 . S
H1263 C1272 0.950 . S
H1264 C1274 0.950 1_455 S
H1265 C1276 0.950 . S
H1266 C1278 0.950 . S
H1267 C1279 0.950 . S
C1268 H1260 0.950 . S
C1268 C1269 1.386 . S
C1268 C1270 1.391 . S
C1269 C1268 1.386 . S
C1269 C1273 1.393 . S
C1270 H1262 0.950 . S
C1270 C1268 1.391 . S
C1270 C1271 1.400 . S
C1271 C1270 1.400 . S
C1271 C1272 1.398 . S
C1271 C1277 1.491 . S
C1272 H1263 0.950 . S
C1272 C1271 1.398 . S
C1272 C1273 1.391 . S
C1273 H1261 0.950 . S
C1273 C1269 1.393 . S
C1273 C1272 1.391 . S
C1274 H1264 0.950 1_655 S
C1274 C1275 1.386 . S
C1274 C1276 1.391 . S
C1275 C1274 1.386 . S
C1275 C1279 1.393 . S
C1276 H1265 0.950 . S
C1276 C1274 1.391 . S
C1276 C1277 1.400 . S
C1277 C1271 1.491 . S
C1277 C1276 1.400 . S
C1277 C1278 1.398 . S
C1278 H1266 0.950 . S
C1278 C1277 1.398 . S
C1278 C1279 1.391 . S
C1279 H1267 0.950 . S
C1279 C1275 1.393 . S
C1279 C1278 1.391 . S
H1280 C1288 0.950 . S
H1281 C1293 0.950 . S
H1282 C1290 0.950 . S
H1283 C1292 0.950 . S
H1284 C1294 0.950 . S
H1285 C1296 0.950 . S
H1286 C1298 0.950 . S
H1287 C1299 0.950 . S
C1288 H1280 0.950 . S
C1288 C1289 1.386 . S
C1288 C1290 1.391 . S
C1289 C1288 1.386 . S
C1289 C1293 1.393 . S
C1290 H1282 0.950 . S
C1290 C1288 1.391 . S
C1290 C1291 1.400 . S
C1291 C1290 1.400 . S
C1291 C1292 1.398 . S
C1291 C1297 1.491 . S
C1292 H1283 0.950 . S
C1292 C1291 1.398 . S
C1292 C1293 1.391 . S
C1293 H1281 0.950 . S
C1293 C1289 1.393 . S
C1293 C1292 1.391 . S
C1294 H1284 0.950 . S
C1294 C1295 1.386 . S
C1294 C1296 1.391 . S
C1295 C1294 1.386 . S
C1295 C1299 1.393 . S
C1296 H1285 0.950 . S
C1296 C1294 1.391 . S
C1296 C1297 1.400 . S
C1297 C1291 1.491 . S
C1297 C1296 1.400 . S
C1297 C1298 1.398 . S
C1298 H1286 0.950 . S
C1298 C1297 1.398 . S
C1298 C1299 1.391 . S
C1299 H1287 0.950 . S
C1299 C1295 1.393 . S
C1299 C1298 1.391 . S
H1300 C1308 0.950 . S
H1301 C1313 0.950 . S
H1302 C1310 0.950 . S
H1303 C1312 0.950 . S
H1304 C1314 0.950 . S
H1305 C1316 0.944 1_545 S
H1306 C1318 0.950 . S
H1307 C1319 0.950 . S
C1308 H1300 0.950 . S
C1308 C1309 1.386 . S
C1308 C1310 1.391 . S
C1309 C1308 1.386 . S
C1309 C1313 1.393 . S
C1310 H1302 0.950 . S
C1310 C1308 1.391 . S
C1310 C1311 1.400 . S
C1311 C1310 1.400 . S
C1311 C1312 1.398 . S
C1311 C1317 1.491 . S
C1312 H1303 0.950 . S
C1312 C1311 1.398 . S
C1312 C1313 1.391 . S
C1313 H1301 0.950 . S
C1313 C1309 1.393 . S
C1313 C1312 1.391 . S
C1314 H1304 0.950 . S
C1314 C1315 1.386 1_545 S
C1314 C1316 1.391 1_545 S
C1315 C1314 1.386 1_565 S
C1315 C1319 1.393 . S
C1316 H1305 0.944 1_565 S
C1316 C1314 1.391 1_565 S
C1316 C1317 1.400 . S
C1317 C1311 1.491 . S
C1317 C1316 1.400 . S
C1317 C1318 1.398 . S
C1318 H1306 0.950 . S
C1318 C1317 1.398 . S
C1318 C1319 1.391 . S
C1319 H1307 0.950 . S
C1319 C1315 1.393 . S
C1319 C1318 1.391 . S
H1320 C1328 0.950 . S
H1321 C1333 0.950 . S
H1322 C1330 0.950 . S
H1323 C1332 0.950 . S
H1324 C1334 0.950 . S
H1325 C1336 0.950 . S
H1326 C1338 0.950 . S
H1327 C1339 0.950 . S
C1328 H1320 0.950 . S
C1328 C1329 1.386 . S
C1328 C1330 1.391 . S
C1329 C1328 1.386 . S
C1329 C1333 1.393 . S
C1330 H1322 0.950 . S
C1330 C1328 1.391 . S
C1330 C1331 1.400 . S
C1331 C1330 1.400 . S
C1331 C1332 1.398 . S
C1331 C1337 1.491 . S
C1332 H1323 0.950 . S
C1332 C1331 1.398 . S
C1332 C1333 1.391 . S
C1333 H1321 0.950 . S
C1333 C1329 1.393 . S
C1333 C1332 1.391 . S
C1334 H1324 0.950 . S
C1334 C1335 1.386 . S
C1334 C1336 1.391 . S
C1335 C1334 1.386 . S
C1335 C1339 1.393 . S
C1336 H1325 0.950 . S
C1336 C1334 1.391 . S
C1336 C1337 1.400 . S
C1337 C1331 1.491 . S
C1337 C1336 1.400 . S
C1337 C1338 1.398 . S
C1338 H1326 0.950 . S
C1338 C1337 1.398 . S
C1338 C1339 1.391 . S
C1339 H1327 0.950 . S
C1339 C1335 1.393 . S
C1339 C1338 1.391 . S
H1340 C1348 0.950 . S
H1341 C1353 0.950 . S
H1342 C1350 0.950 . S
H1343 C1352 0.950 . S
H1344 C1354 0.950 . S
H1345 C1356 0.950 . S
H1346 C1358 0.950 . S
H1347 C1359 0.950 . S
C1348 H1340 0.950 . S
C1348 C1349 1.386 . S
C1348 C1350 1.391 . S
C1349 C1348 1.386 . S
C1349 C1353 1.393 . S
C1350 H1342 0.950 . S
C1350 C1348 1.391 . S
C1350 C1351 1.400 . S
C1351 C1350 1.400 . S
C1351 C1352 1.398 . S
C1351 C1357 1.491 . S
C1352 H1343 0.950 . S
C1352 C1351 1.398 . S
C1352 C1353 1.391 . S
C1353 H1341 0.950 . S
C1353 C1349 1.393 . S
C1353 C1352 1.391 . S
C1354 H1344 0.950 . S
C1354 C1355 1.386 . S
C1354 C1356 1.391 . S
C1355 C1354 1.386 . S
C1355 C1359 1.393 . S
C1356 H1345 0.950 . S
C1356 C1354 1.391 . S
C1356 C1357 1.400 . S
C1357 C1351 1.491 . S
C1357 C1356 1.400 . S
C1357 C1358 1.398 . S
C1358 H1346 0.950 . S
C1358 C1357 1.398 . S
C1358 C1359 1.391 . S
C1359 H1347 0.950 . S
C1359 C1355 1.393 . S
C1359 C1358 1.391 . S
H1360 C1368 0.950 . S
H1361 C1373 0.950 . S
H1362 C1370 0.950 . S
H1363 C1372 0.950 1_655 S
H1364 C1374 0.950 . S
H1365 C1376 0.950 . S
H1366 C1378 0.950 . S
H1367 C1379 0.950 . S
C1368 H1360 0.950 . S
C1368 C1369 1.386 . S
C1368 C1370 1.391 . S
C1369 C1368 1.386 . S
C1369 C1373 1.393 1_455 S
C1370 H1362 0.950 . S
C1370 C1368 1.391 . S
C1370 C1371 1.400 . S
C1371 C1370 1.400 . S
C1371 C1372 1.398 . S
C1371 C1377 1.491 . S
C1372 H1363 0.950 1_455 S
C1372 C1371 1.398 . S
C1372 C1373 1.391 1_455 S
C1373 H1361 0.950 . S
C1373 C1369 1.393 1_655 S
C1373 C1372 1.391 1_655 S
C1374 H1364 0.950 . S
C1374 C1375 1.386 . S
C1374 C1376 1.391 1_554 S
C1375 C1374 1.386 . S
C1375 C1379 1.393 1_554 S
C1376 H1365 0.950 . S
C1376 C1374 1.391 1_556 S
C1376 C1377 1.400 . S
C1377 C1371 1.491 . S
C1377 C1376 1.400 . S
C1377 C1378 1.398 . S
C1378 H1366 0.950 . S
C1378 C1377 1.398 . S
C1378 C1379 1.391 . S
C1379 H1367 0.950 . S
C1379 C1375 1.393 1_556 S
C1379 C1378 1.391 . S
H1380 C1388 0.950 . S
H1381 C1393 0.950 . S
H1382 C1390 0.950 . S
H1383 C1392 0.950 . S
H1384 C1394 0.950 . S
H1385 C1396 0.950 . S
H1386 C1398 0.950 . S
H1387 C1399 0.950 . S
C1388 H1380 0.950 . S
C1388 C1389 1.386 . S
C1388 C1390 1.391 . S
C1389 C1388 1.386 . S
C1389 C1393 1.393 . S
C1390 H1382 0.950 . S
C1390 C1388 1.391 . S
C1390 C1391 1.400 . S
C1391 C1390 1.400 . S
C1391 C1392 1.398 . S
C1391 C1397 1.491 . S
C1392 H1383 0.950 . S
C1392 C1391 1.398 . S
C1392 C1393 1.391 . S
C1393 H1381 0.950 . S
C1393 C1389 1.393 . S
C1393 C1392 1.391 . S
C1394 H1384 0.950 . S
C1394 C1395 1.386 . S
C1394 C1396 1.391 . S
C1395 C1394 1.386 . S
C1395 C1399 1.393 . S
C1396 H1385 0.950 . S
C1396 C1394 1.391 . S
C1396 C1397 1.400 . S
C1397 C1391 1.491 . S
C1397 C1396 1.400 . S
C1397 C1398 1.398 . S
C1398 H1386 0.950 . S
C1398 C1397 1.398 . S
C1398 C1399 1.391 . S
C1399 H1387 0.950 . S
C1399 C1395 1.393 . S
C1399 C1398 1.391 . S
H1400 C1408 0.950 . S
H1401 C1413 0.950 . S
H1402 C1410 0.950 . S
H1403 C1412 0.950 . S
H1404 C1414 0.950 . S
H1405 C1416 0.950 . S
H1406 C1418 0.950 . S
H1407 C1419 0.950 . S
C1408 H1400 0.950 . S
C1408 C1409 1.386 . S
C1408 C1410 1.391 . S
C1409 C1408 1.386 . S
C1409 C1413 1.393 . S
C1410 H1402 0.950 . S
C1410 C1408 1.391 . S
C1410 C1411 1.400 . S
C1411 C1410 1.400 . S
C1411 C1412 1.398 . S
C1411 C1417 1.491 . S
C1412 H1403 0.950 . S
C1412 C1411 1.398 . S
C1412 C1413 1.391 . S
C1413 H1401 0.950 . S
C1413 C1409 1.393 . S
C1413 C1412 1.391 . S
C1414 H1404 0.950 . S
C1414 C1415 1.386 . S
C1414 C1416 1.391 . S
C1415 C1414 1.386 . S
C1415 C1419 1.393 . S
C1416 H1405 0.950 . S
C1416 C1414 1.391 . S
C1416 C1417 1.400 . S
C1417 C1411 1.491 . S
C1417 C1416 1.400 . S
C1417 C1418 1.398 . S
C1418 H1406 0.950 . S
C1418 C1417 1.398 . S
C1418 C1419 1.391 . S
C1419 H1407 0.950 . S
C1419 C1415 1.393 . S
C1419 C1418 1.391 . S
H1420 C1428 0.950 . S
H1421 C1433 0.950 . S
H1422 C1430 0.950 . S
H1423 C1432 0.950 . S
H1424 C1434 0.950 . S
H1425 C1436 0.950 . S
H1426 C1438 0.950 . S
H1427 C1439 0.950 . S
C1428 H1420 0.950 . S
C1428 C1429 1.386 . S
C1428 C1430 1.391 . S
C1429 C1428 1.386 . S
C1429 C1433 1.393 . S
C1430 H1422 0.950 . S
C1430 C1428 1.391 . S
C1430 C1431 1.400 . S
C1431 C1430 1.400 . S
C1431 C1432 1.398 . S
C1431 C1437 1.491 . S
C1432 H1423 0.950 . S
C1432 C1431 1.398 . S
C1432 C1433 1.391 . S
C1433 H1421 0.950 . S
C1433 C1429 1.393 . S
C1433 C1432 1.391 . S
C1434 H1424 0.950 . S
C1434 C1435 1.386 . S
C1434 C1436 1.391 . S
C1435 C1434 1.386 . S
C1435 C1439 1.393 . S
C1436 H1425 0.950 . S
C1436 C1434 1.391 . S
C1436 C1437 1.400 . S
C1437 C1431 1.491 . S
C1437 C1436 1.400 . S
C1437 C1438 1.398 . S
C1438 H1426 0.950 . S
C1438 C1437 1.398 . S
C1438 C1439 1.391 . S
C1439 H1427 0.950 . S
C1439 C1435 1.393 . S
C1439 C1438 1.391 . S
H1440 C1448 0.950 . S
H1441 C1453 0.950 . S
H1442 C1450 0.950 . S
H1443 C1452 0.950 . S
H1444 C1454 0.950 . S
H1445 C1456 0.950 . S
H1446 C1458 0.950 . S
H1447 C1459 0.950 . S
C1448 H1440 0.950 . S
C1448 C1449 1.386 . S
C1448 C1450 1.391 . S
C1449 C1448 1.386 . S
C1449 C1453 1.393 . S
C1450 H1442 0.950 . S
C1450 C1448 1.391 . S
C1450 C1451 1.400 . S
C1451 C1450 1.400 . S
C1451 C1452 1.398 . S
C1451 C1457 1.491 . S
C1452 H1443 0.950 . S
C1452 C1451 1.398 . S
C1452 C1453 1.391 . S
C1453 H1441 0.950 . S
C1453 C1449 1.393 . S
C1453 C1452 1.391 . S
C1454 H1444 0.950 . S
C1454 C1455 1.386 . S
C1454 C1456 1.391 . S
C1455 C1454 1.386 . S
C1455 C1459 1.393 . S
C1456 H1445 0.950 . S
C1456 C1454 1.391 . S
C1456 C1457 1.400 . S
C1457 C1451 1.491 . S
C1457 C1456 1.400 . S
C1457 C1458 1.398 . S
C1458 H1446 0.950 . S
C1458 C1457 1.398 . S
C1458 C1459 1.391 . S
C1459 H1447 0.950 . S
C1459 C1455 1.393 . S
C1459 C1458 1.391 . S
H1460 C1468 0.950 . S
H1461 C1473 0.950 . S
H1462 C1470 0.950 . S
H1463 C1472 0.950 . S
H1464 C1474 0.950 . S
H1465 C1476 0.950 . S
H1466 C1478 0.950 . S
H1467 C1479 0.950 . S
C1468 H1460 0.950 . S
C1468 C1469 1.386 . S
C1468 C1470 1.391 . S
C1469 C1468 1.386 . S
C1469 C1473 1.393 . S
C1470 H1462 0.950 . S
C1470 C1468 1.391 . S
C1470 C1471 1.400 . S
C1471 C1470 1.400 . S
C1471 C1472 1.398 . S
C1471 C1477 1.491 . S
C1472 H1463 0.950 . S
C1472 C1471 1.398 . S
C1472 C1473 1.391 . S
C1473 H1461 0.950 . S
C1473 C1469 1.393 . S
C1473 C1472 1.391 . S
C1474 H1464 0.950 . S
C1474 C1475 1.386 . S
C1474 C1476 1.391 . S
C1475 C1474 1.386 . S
C1475 C1479 1.393 . S
C1476 H1465 0.950 . S
C1476 C1474 1.391 . S
C1476 C1477 1.400 . S
C1477 C1471 1.491 . S
C1477 C1476 1.400 . S
C1477 C1478 1.398 . S
C1478 H1466 0.950 . S
C1478 C1477 1.398 . S
C1478 C1479 1.391 . S
C1479 H1467 0.950 . S
C1479 C1475 1.393 . S
C1479 C1478 1.391 . S
H1480 C1488 0.950 . S
H1481 C1493 0.950 . S
H1482 C1490 0.950 . S
H1483 C1492 0.950 . S
H1484 C1494 0.950 . S
H1485 C1496 0.950 . S
H1486 C1498 0.950 . S
H1487 C1499 0.950 . S
C1488 H1480 0.950 . S
C1488 C1489 1.386 . S
C1488 C1490 1.391 . S
C1489 C1488 1.386 . S
C1489 C1493 1.393 . S
C1490 H1482 0.950 . S
C1490 C1488 1.391 . S
C1490 C1491 1.400 . S
C1491 C1490 1.400 . S
C1491 C1492 1.398 . S
C1491 C1497 1.491 . S
C1492 H1483 0.950 . S
C1492 C1491 1.398 . S
C1492 C1493 1.391 . S
C1493 H1481 0.950 . S
C1493 C1489 1.393 . S
C1493 C1492 1.391 . S
C1494 H1484 0.950 . S
C1494 C1495 1.386 . S
C1494 C1496 1.391 . S
C1495 C1494 1.386 . S
C1495 C1499 1.393 . S
C1496 H1485 0.950 . S
C1496 C1494 1.391 . S
C1496 C1497 1.400 . S
C1497 C1491 1.491 . S
C1497 C1496 1.400 . S
C1497 C1498 1.398 . S
C1498 H1486 0.950 . S
C1498 C1497 1.398 . S
C1498 C1499 1.391 . S
C1499 H1487 0.950 . S
C1499 C1495 1.393 . S
C1499 C1498 1.391 . S
H1500 C1508 0.950 . S
H1501 C1513 0.950 . S
H1502 C1510 0.950 . S
H1503 C1512 0.950 . S
H1504 C1514 0.950 . S
H1505 C1516 0.950 . S
H1506 C1518 0.950 . S
H1507 C1519 0.950 . S
C1508 H1500 0.950 . S
C1508 C1509 1.386 . S
C1508 C1510 1.391 . S
C1509 C1508 1.386 . S
C1509 C1513 1.393 . S
C1510 H1502 0.950 . S
C1510 C1508 1.391 . S
C1510 C1511 1.400 . S
C1511 C1510 1.400 . S
C1511 C1512 1.398 . S
C1511 C1517 1.491 . S
C1512 H1503 0.950 . S
C1512 C1511 1.398 . S
C1512 C1513 1.391 . S
C1513 H1501 0.950 . S
C1513 C1509 1.393 . S
C1513 C1512 1.391 . S
C1514 H1504 0.950 . S
C1514 C1515 1.386 . S
C1514 C1516 1.391 . S
C1515 C1514 1.386 . S
C1515 C1519 1.393 . S
C1516 H1505 0.950 . S
C1516 C1514 1.391 . S
C1516 C1517 1.400 . S
C1517 C1511 1.491 . S
C1517 C1516 1.400 . S
C1517 C1518 1.398 . S
C1518 H1506 0.950 . S
C1518 C1517 1.398 . S
C1518 C1519 1.391 . S
C1519 H1507 0.950 . S
C1519 C1515 1.393 . S
C1519 C1518 1.391 . S
H1520 C1528 0.950 . S
H1521 C1533 0.950 . S
H1522 C1530 0.950 . S
H1523 C1532 0.950 . S
H1524 C1534 0.950 . S
H1525 C1536 0.950 . S
H1526 C1538 0.950 . S
H1527 C1539 0.950 . S
C1528 H1520 0.950 . S
C1528 C1529 1.352 1_565 S
C1528 C1530 1.391 . S
C1529 C1528 1.352 1_545 S
C1529 C1533 1.429 . S
C1530 H1522 0.950 . S
C1530 C1528 1.391 . S
C1530 C1531 1.400 1_565 S
C1531 C1530 1.400 1_545 S
C1531 C1532 1.398 . S
C1531 C1537 1.491 . S
C1532 H1523 0.950 . S
C1532 C1531 1.398 . S
C1532 C1533 1.391 . S
C1533 H1521 0.950 . S
C1533 C1529 1.429 . S
C1533 C1532 1.391 . S
C1534 H1524 0.950 . S
C1534 C1535 1.386 . S
C1534 C1536 1.391 1_455 S
C1535 C1534 1.386 . S
C1535 C1539 1.393 1_545 S
C1536 H1525 0.950 . S
C1536 C1534 1.391 1_655 S
C1536 C1537 1.400 . S
C1537 C1531 1.491 . S
C1537 C1536 1.400 . S
C1537 C1538 1.398 1_545 S
C1538 H1526 0.950 . S
C1538 C1537 1.398 1_565 S
C1538 C1539 1.391 1_655 S
C1539 H1527 0.950 . S
C1539 C1535 1.393 1_565 S
C1539 C1538 1.391 1_455 S
H1540 C1548 0.950 . S
H1541 C1553 0.950 . S
H1542 C1550 0.950 . S
H1543 C1552 0.950 . S
H1544 C1554 0.950 . S
H1545 C1556 0.950 . S
H1546 C1558 0.950 . S
H1547 C1559 0.950 . S
C1548 H1540 0.950 . S
C1548 C1549 1.386 . S
C1548 C1550 1.391 . S
C1549 C1548 1.386 . S
C1549 C1553 1.393 . S
C1550 H1542 0.950 . S
C1550 C1548 1.391 . S
C1550 C1551 1.400 . S
C1551 C1550 1.400 . S
C1551 C1552 1.398 . S
C1551 C1557 1.491 . S
C1552 H1543 0.950 . S
C1552 C1551 1.398 . S
C1552 C1553 1.391 . S
C1553 H1541 0.950 . S
C1553 C1549 1.393 . S
C1553 C1552 1.391 . S
C1554 H1544 0.950 . S
C1554 C1555 1.386 . S
C1554 C1556 1.391 . S
C1555 C1554 1.386 . S
C1555 C1559 1.393 . S
C1556 H1545 0.950 . S
C1556 C1554 1.391 . S
C1556 C1557 1.400 . S
C1557 C1551 1.491 . S
C1557 C1556 1.400 . S
C1557 C1558 1.398 . S
C1558 H1546 0.950 . S
C1558 C1557 1.398 . S
C1558 C1559 1.391 . S
C1559 H1547 0.950 . S
C1559 C1555 1.393 . S
C1559 C1558 1.391 . S
H1560 C1568 0.950 1_565 S
H1561 C1573 0.950 . S
H1562 C1570 0.950 1_565 S
H1563 C1572 0.950 . S
H1564 C1574 0.950 . S
H1565 C1576 0.950 . S
H1566 C1578 0.950 . S
H1567 C1579 0.950 . S
C1568 H1560 0.950 1_545 S
C1568 C1569 1.386 . S
C1568 C1570 1.391 . S
C1569 C1568 1.386 . S
C1569 C1573 1.393 . S
C1570 H1562 0.950 1_545 S
C1570 C1568 1.391 . S
C1570 C1571 1.400 . S
C1571 C1570 1.400 . S
C1571 C1572 1.398 . S
C1571 C1577 1.491 . S
C1572 H1563 0.950 . S
C1572 C1571 1.398 . S
C1572 C1573 1.391 . S
C1573 H1561 0.950 . S
C1573 C1569 1.393 . S
C1573 C1572 1.391 . S
C1574 H1564 0.950 . S
C1574 C1575 1.386 . S
C1574 C1576 1.391 . S
C1575 C1574 1.386 . S
C1575 C1579 1.393 1_545 S
C1576 H1565 0.950 . S
C1576 C1574 1.391 . S
C1576 C1577 1.400 . S
C1577 C1571 1.491 . S
C1577 C1576 1.400 . S
C1577 C1578 1.398 1_545 S
C1578 H1566 0.950 . S
C1578 C1577 1.398 1_565 S
C1578 C1579 1.391 . S
C1579 H1567 0.950 . S
C1579 C1575 1.393 1_565 S
C1579 C1578 1.391 . S
H1580 C1588 0.950 . S
H1581 C1593 0.950 . S
H1582 C1590 0.950 . S
H1583 C1592 0.950 . S
H1584 C1594 0.950 . S
H1585 C1596 0.950 . S
H1586 C1598 0.950 . S
H1587 C1599 0.950 . S
C1588 H1580 0.950 . S
C1588 C1589 1.386 . S
C1588 C1590 1.391 . S
C1589 C1588 1.386 . S
C1589 C1593 1.393 . S
C1590 H1582 0.950 . S
C1590 C1588 1.391 . S
C1590 C1591 1.400 . S
C1591 C1590 1.400 . S
C1591 C1592 1.398 . S
C1591 C1597 1.491 . S
C1592 H1583 0.950 . S
C1592 C1591 1.398 . S
C1592 C1593 1.391 . S
C1593 H1581 0.950 . S
C1593 C1589 1.393 . S
C1593 C1592 1.391 . S
C1594 H1584 0.950 . S
C1594 C1595 1.386 . S
C1594 C1596 1.391 . S
C1595 C1594 1.386 . S
C1595 C1599 1.393 . S
C1596 H1585 0.950 . S
C1596 C1594 1.391 . S
C1596 C1597 1.400 . S
C1597 C1591 1.491 . S
C1597 C1596 1.400 . S
C1597 C1598 1.398 . S
C1598 H1586 0.950 . S
C1598 C1597 1.398 . S
C1598 C1599 1.391 . S
C1599 H1587 0.950 . S
C1599 C1595 1.393 . S
C1599 C1598 1.391 . S
H1600 C1608 0.950 . S
H1601 C1613 0.950 . S
H1602 C1610 0.950 . S
H1603 C1612 0.950 . S
H1604 C1614 0.950 1_455 S
H1605 C1616 0.952 . S
H1606 C1618 0.950 . S
H1607 C1619 0.950 . S
C1608 H1600 0.950 . S
C1608 C1609 1.386 1_565 S
C1608 C1610 1.391 . S
C1609 C1608 1.386 1_545 S
C1609 C1613 1.393 . S
C1610 H1602 0.950 . S
C1610 C1608 1.391 . S
C1610 C1611 1.400 . S
C1611 C1610 1.400 . S
C1611 C1612 1.398 1_565 S
C1611 C1617 1.491 . S
C1612 H1603 0.950 . S
C1612 C1611 1.398 1_545 S
C1612 C1613 1.391 . S
C1613 H1601 0.950 . S
C1613 C1609 1.393 . S
C1613 C1612 1.391 . S
C1614 H1604 0.950 1_655 S
C1614 C1615 1.386 . S
C1614 C1616 1.391 . S
C1615 C1614 1.386 . S
C1615 C1619 1.393 . S
C1616 H1605 0.952 . S
C1616 C1614 1.391 . S
C1616 C1617 1.400 . S
C1617 C1611 1.491 . S
C1617 C1616 1.400 . S
C1617 C1618 1.398 . S
C1618 H1606 0.950 . S
C1618 C1617 1.398 . S
C1618 C1619 1.391 . S
C1619 H1607 0.950 . S
C1619 C1615 1.393 . S
C1619 C1618 1.391 . S
H1620 C1628 0.950 . S
H1621 C1633 0.950 . S
H1622 C1630 0.950 . S
H1623 C1632 0.950 . S
H1624 C1634 0.950 . S
H1625 C1636 0.950 . S
H1626 C1638 0.950 . S
H1627 C1639 0.950 . S
C1628 H1620 0.950 . S
C1628 C1629 1.386 . S
C1628 C1630 1.391 . S
C1629 C1628 1.386 . S
C1629 C1633 1.393 . S
C1630 H1622 0.950 . S
C1630 C1628 1.391 . S
C1630 C1631 1.400 . S
C1631 C1630 1.400 . S
C1631 C1632 1.398 . S
C1631 C1637 1.491 . S
C1632 H1623 0.950 . S
C1632 C1631 1.398 . S
C1632 C1633 1.391 . S
C1633 H1621 0.950 . S
C1633 C1629 1.393 . S
C1633 C1632 1.391 . S
C1634 H1624 0.950 . S
C1634 C1635 1.386 . S
C1634 C1636 1.391 . S
C1635 C1634 1.386 . S
C1635 C1639 1.393 . S
C1636 H1625 0.950 . S
C1636 C1634 1.391 . S
C1636 C1637 1.400 . S
C1637 C1631 1.491 . S
C1637 C1636 1.400 . S
C1637 C1638 1.398 . S
C1638 H1626 0.950 . S
C1638 C1637 1.398 . S
C1638 C1639 1.391 . S
C1639 H1627 0.950 . S
C1639 C1635 1.393 . S
C1639 C1638 1.391 . S
H1640 C1648 0.950 1_565 S
H1641 C1653 0.950 . S
H1642 C1650 0.920 1_565 S
H1643 C1652 0.950 . S
H1644 C1654 0.950 . S
H1645 C1656 0.950 . S
H1646 C1658 0.950 . S
H1647 C1659 0.950 . S
C1648 H1640 0.950 1_545 S
C1648 C1649 1.386 . S
C1648 C1650 1.391 . S
C1649 C1648 1.386 . S
C1649 C1653 1.393 . S
C1650 H1642 0.920 1_545 S
C1650 C1648 1.391 . S
C1650 C1651 1.400 . S
C1651 C1650 1.400 . S
C1651 C1652 1.398 . S
C1651 C1657 1.491 . S
C1652 H1643 0.950 . S
C1652 C1651 1.398 . S
C1652 C1653 1.391 . S
C1653 H1641 0.950 . S
C1653 C1649 1.393 . S
C1653 C1652 1.391 . S
C1654 H1644 0.950 . S
C1654 C1655 1.386 . S
C1654 C1656 1.391 . S
C1655 C1654 1.386 . S
C1655 C1659 1.393 . S
C1656 H1645 0.950 . S
C1656 C1654 1.391 . S
C1656 C1657 1.400 . S
C1657 C1651 1.491 . S
C1657 C1656 1.400 . S
C1657 C1658 1.398 . S
C1658 H1646 0.950 . S
C1658 C1657 1.398 . S
C1658 C1659 1.391 . S
C1659 H1647 0.950 . S
C1659 C1655 1.393 . S
C1659 C1658 1.391 . S
H1660 C1668 0.950 . S
H1661 C1673 0.950 . S
H1662 C1670 0.950 . S
H1663 C1672 0.950 . S
H1664 C1674 0.950 . S
H1665 C1676 0.950 . S
H1666 C1678 0.950 . S
H1667 C1679 0.950 . S
C1668 H1660 0.950 . S
C1668 C1669 1.386 . S
C1668 C1670 1.391 . S
C1669 C1668 1.386 . S
C1669 C1673 1.393 . S
C1670 H1662 0.950 . S
C1670 C1668 1.391 . S
C1670 C1671 1.400 . S
C1671 C1670 1.400 . S
C1671 C1672 1.398 . S
C1671 C1677 1.491 . S
C1672 H1663 0.950 . S
C1672 C1671 1.398 . S
C1672 C1673 1.391 . S
C1673 H1661 0.950 . S
C1673 C1669 1.393 . S
C1673 C1672 1.391 . S
C1674 H1664 0.950 . S
C1674 C1675 1.386 . S
C1674 C1676 1.391 . S
C1675 C1674 1.386 . S
C1675 C1679 1.393 . S
C1676 H1665 0.950 . S
C1676 C1674 1.391 . S
C1676 C1677 1.400 . S
C1677 C1671 1.491 . S
C1677 C1676 1.400 . S
C1677 C1678 1.398 . S
C1678 H1666 0.950 . S
C1678 C1677 1.398 . S
C1678 C1679 1.391 . S
C1679 H1667 0.950 . S
C1679 C1675 1.393 . S
C1679 C1678 1.391 . S
H1680 C1688 0.950 . S
H1681 C1693 0.950 . S
H1682 C1690 0.950 . S
H1683 C1692 0.950 . S
H1684 C1694 0.950 1_545 S
H1685 C1696 0.950 . S
H1686 C1698 0.950 . S
H1687 C1699 0.950 . S
C1688 H1680 0.950 . S
C1688 C1689 1.386 . S
C1688 C1690 1.391 . S
C1689 C1688 1.386 . S
C1689 C1693 1.393 . S
C1690 H1682 0.950 . S
C1690 C1688 1.391 . S
C1690 C1691 1.400 . S
C1691 C1690 1.400 . S
C1691 C1692 1.398 . S
C1691 C1697 1.491 . S
C1692 H1683 0.950 . S
C1692 C1691 1.398 . S
C1692 C1693 1.391 . S
C1693 H1681 0.950 . S
C1693 C1689 1.393 . S
C1693 C1692 1.391 . S
C1694 H1684 0.950 1_565 S
C1694 C1695 1.386 . S
C1694 C1696 1.391 . S
C1695 C1694 1.386 . S
C1695 C1699 1.393 . S
C1696 H1685 0.950 . S
C1696 C1694 1.391 . S
C1696 C1697 1.400 . S
C1697 C1691 1.491 . S
C1697 C1696 1.400 . S
C1697 C1698 1.398 . S
C1698 H1686 0.950 . S
C1698 C1697 1.398 . S
C1698 C1699 1.391 . S
C1699 H1687 0.950 . S
C1699 C1695 1.393 . S
C1699 C1698 1.391 . S
H1700 C1708 0.950 . S
H1701 C1713 0.950 . S
H1702 C1710 0.950 . S
H1703 C1712 0.950 . S
H1704 C1714 0.950 . S
H1705 C1716 0.950 . S
H1706 C1718 0.950 . S
H1707 C1719 0.950 . S
C1708 H1700 0.950 . S
C1708 C1709 1.386 . S
C1708 C1710 1.391 . S
C1709 C1708 1.386 . S
C1709 C1713 1.393 . S
C1710 H1702 0.950 . S
C1710 C1708 1.391 . S
C1710 C1711 1.400 . S
C1711 C1710 1.400 . S
C1711 C1712 1.398 . S
C1711 C1717 1.491 . S
C1712 H1703 0.950 . S
C1712 C1711 1.398 . S
C1712 C1713 1.391 . S
C1713 H1701 0.950 . S
C1713 C1709 1.393 . S
C1713 C1712 1.391 . S
C1714 H1704 0.950 . S
C1714 C1715 1.386 . S
C1714 C1716 1.391 . S
C1715 C1714 1.386 . S
C1715 C1719 1.393 . S
C1716 H1705 0.950 . S
C1716 C1714 1.391 . S
C1716 C1717 1.400 . S
C1717 C1711 1.491 . S
C1717 C1716 1.400 . S
C1717 C1718 1.398 . S
C1718 H1706 0.950 . S
C1718 C1717 1.398 . S
C1718 C1719 1.391 . S
C1719 H1707 0.950 . S
C1719 C1715 1.393 . S
C1719 C1718 1.391 . S
H1720 C1728 0.950 . S
H1721 C1733 0.950 . S
H1722 C1730 0.950 . S
H1723 C1732 0.950 . S
H1724 C1734 0.950 . S
H1725 C1736 0.950 . S
H1726 C1738 0.950 . S
H1727 C1739 0.950 . S
C1728 H1720 0.950 . S
C1728 C1729 1.386 . S
C1728 C1730 1.391 . S
C1729 C1728 1.386 . S
C1729 C1733 1.393 . S
C1730 H1722 0.950 . S
C1730 C1728 1.391 . S
C1730 C1731 1.400 . S
C1731 C1730 1.400 . S
C1731 C1732 1.398 . S
C1731 C1737 1.491 . S
C1732 H1723 0.950 . S
C1732 C1731 1.398 . S
C1732 C1733 1.391 . S
C1733 H1721 0.950 . S
C1733 C1729 1.393 . S
C1733 C1732 1.391 . S
C1734 H1724 0.950 . S
C1734 C1735 1.386 . S
C1734 C1736 1.391 . S
C1735 C1734 1.386 . S
C1735 C1739 1.393 . S
C1736 H1725 0.950 . S
C1736 C1734 1.391 . S
C1736 C1737 1.400 . S
C1737 C1731 1.491 . S
C1737 C1736 1.400 . S
C1737 C1738 1.398 . S
C1738 H1726 0.950 . S
C1738 C1737 1.398 . S
C1738 C1739 1.391 . S
C1739 H1727 0.950 . S
C1739 C1735 1.393 . S
C1739 C1738 1.391 . S
H1740 C1748 0.950 . S
H1741 C1753 0.950 . S
H1742 C1750 0.950 . S
H1743 C1752 0.950 . S
H1744 C1754 0.950 . S
H1745 C1756 0.950 . S
H1746 C1758 0.950 . S
H1747 C1759 0.950 . S
C1748 H1740 0.950 . S
C1748 C1749 1.386 . S
C1748 C1750 1.391 . S
C1749 C1748 1.386 . S
C1749 C1753 1.393 . S
C1750 H1742 0.950 . S
C1750 C1748 1.391 . S
C1750 C1751 1.400 . S
C1751 C1750 1.400 . S
C1751 C1752 1.398 . S
C1751 C1757 1.491 . S
C1752 H1743 0.950 . S
C1752 C1751 1.398 . S
C1752 C1753 1.391 . S
C1753 H1741 0.950 . S
C1753 C1749 1.393 . S
C1753 C1752 1.391 . S
C1754 H1744 0.950 . S
C1754 C1755 1.386 . S
C1754 C1756 1.391 . S
C1755 C1754 1.386 . S
C1755 C1759 1.393 . S
C1756 H1745 0.950 . S
C1756 C1754 1.391 . S
C1756 C1757 1.400 . S
C1757 C1751 1.491 . S
C1757 C1756 1.400 . S
C1757 C1758 1.398 . S
C1758 H1746 0.950 . S
C1758 C1757 1.398 . S
C1758 C1759 1.391 . S
C1759 H1747 0.950 . S
C1759 C1755 1.393 . S
C1759 C1758 1.391 . S
H1760 C1768 0.950 . S
H1761 C1773 0.950 . S
H1762 C1770 0.950 . S
H1763 C1772 0.950 . S
H1764 C1774 0.950 . S
H1765 C1776 0.950 . S
H1766 C1778 0.950 . S
H1767 C1779 0.950 . S
C1768 H1760 0.950 . S
C1768 C1769 1.386 . S
C1768 C1770 1.391 . S
C1769 C1768 1.386 . S
C1769 C1773 1.393 . S
C1770 H1762 0.950 . S
C1770 C1768 1.391 . S
C1770 C1771 1.400 . S
C1771 C1770 1.400 . S
C1771 C1772 1.398 . S
C1771 C1777 1.491 . S
C1772 H1763 0.950 . S
C1772 C1771 1.398 . S
C1772 C1773 1.391 . S
C1773 H1761 0.950 . S
C1773 C1769 1.393 . S
C1773 C1772 1.391 . S
C1774 H1764 0.950 . S
C1774 C1775 1.386 . S
C1774 C1776 1.391 . S
C1775 C1774 1.386 . S
C1775 C1779 1.393 . S
C1776 H1765 0.950 . S
C1776 C1774 1.391 . S
C1776 C1777 1.400 . S
C1777 C1771 1.491 . S
C1777 C1776 1.400 . S
C1777 C1778 1.398 . S
C1778 H1766 0.950 . S
C1778 C1777 1.398 . S
C1778 C1779 1.391 . S
C1779 H1767 0.950 . S
C1779 C1775 1.393 . S
C1779 C1778 1.391 . S
H1780 C1788 0.950 . S
H1781 C1793 0.950 . S
H1782 C1790 0.950 . S
H1783 C1792 0.950 . S
H1784 C1794 0.950 . S
H1785 C1796 0.950 . S
H1786 C1798 0.950 . S
H1787 C1799 0.950 . S
C1788 H1780 0.950 . S
C1788 C1789 1.386 . S
C1788 C1790 1.391 . S
C1789 C1788 1.386 . S
C1789 C1793 1.393 . S
C1790 H1782 0.950 . S
C1790 C1788 1.391 . S
C1790 C1791 1.400 . S
C1791 C1790 1.400 . S
C1791 C1792 1.398 . S
C1791 C1797 1.491 . S
C1792 H1783 0.950 . S
C1792 C1791 1.398 . S
C1792 C1793 1.391 . S
C1793 H1781 0.950 . S
C1793 C1789 1.393 . S
C1793 C1792 1.391 . S
C1794 H1784 0.950 . S
C1794 C1795 1.386 . S
C1794 C1796 1.391 . S
C1795 C1794 1.386 . S
C1795 C1799 1.393 . S
C1796 H1785 0.950 . S
C1796 C1794 1.391 . S
C1796 C1797 1.400 . S
C1797 C1791 1.491 . S
C1797 C1796 1.400 . S
C1797 C1798 1.398 . S
C1798 H1786 0.950 . S
C1798 C1797 1.398 . S
C1798 C1799 1.391 . S
C1799 H1787 0.950 . S
C1799 C1795 1.393 . S
C1799 C1798 1.391 . S
H1800 C1808 0.950 . S
H1801 C1813 0.950 . S
H1802 C1810 0.950 . S
H1803 C1812 0.950 . S
H1804 C1814 0.950 . S
H1805 C1816 0.950 . S
H1806 C1818 0.950 . S
H1807 C1819 0.950 . S
C1808 H1800 0.950 . S
C1808 C1809 1.386 . S
C1808 C1810 1.391 . S
C1809 C1808 1.386 . S
C1809 C1813 1.393 . S
C1810 H1802 0.950 . S
C1810 C1808 1.391 . S
C1810 C1811 1.400 . S
C1811 C1810 1.400 . S
C1811 C1812 1.398 . S
C1811 C1817 1.491 . S
C1812 H1803 0.950 . S
C1812 C1811 1.398 . S
C1812 C1813 1.391 . S
C1813 H1801 0.950 . S
C1813 C1809 1.393 . S
C1813 C1812 1.391 . S
C1814 H1804 0.950 . S
C1814 C1815 1.386 . S
C1814 C1816 1.391 . S
C1815 C1814 1.386 . S
C1815 C1819 1.393 . S
C1816 H1805 0.950 . S
C1816 C1814 1.391 . S
C1816 C1817 1.400 . S
C1817 C1811 1.491 . S
C1817 C1816 1.400 . S
C1817 C1818 1.398 . S
C1818 H1806 0.950 . S
C1818 C1817 1.398 . S
C1818 C1819 1.391 . S
C1819 H1807 0.950 . S
C1819 C1815 1.393 . S
C1819 C1818 1.391 . S
H1820 C1828 0.950 . S
H1821 C1833 0.950 . S
H1822 C1830 0.950 . S
H1823 C1832 0.950 . S
H1824 C1834 0.950 . S
H1825 C1836 0.950 . S
H1826 C1838 0.950 . S
H1827 C1839 0.950 . S
C1828 H1820 0.950 . S
C1828 C1829 1.386 . S
C1828 C1830 1.391 . S
C1829 C1828 1.386 . S
C1829 C1833 1.393 . S
C1830 H1822 0.950 . S
C1830 C1828 1.391 . S
C1830 C1831 1.400 . S
C1831 C1830 1.400 . S
C1831 C1832 1.398 . S
C1831 C1837 1.491 . S
C1832 H1823 0.950 . S
C1832 C1831 1.398 . S
C1832 C1833 1.391 . S
C1833 H1821 0.950 . S
C1833 C1829 1.393 . S
C1833 C1832 1.391 . S
C1834 H1824 0.950 . S
C1834 C1835 1.386 . S
C1834 C1836 1.391 . S
C1835 C1834 1.386 . S
C1835 C1839 1.393 . S
C1836 H1825 0.950 . S
C1836 C1834 1.391 . S
C1836 C1837 1.400 . S
C1837 C1831 1.491 . S
C1837 C1836 1.400 . S
C1837 C1838 1.398 . S
C1838 H1826 0.950 . S
C1838 C1837 1.398 . S
C1838 C1839 1.391 . S
C1839 H1827 0.950 . S
C1839 C1835 1.393 . S
C1839 C1838 1.391 . S
H1840 C1848 0.950 . S
H1841 C1853 0.950 . S
H1842 C1850 0.950 . S
H1843 C1852 0.950 . S
H1844 C1854 0.950 . S
H1845 C1856 0.950 . S
H1846 C1858 0.950 . S
H1847 C1859 0.950 . S
C1848 H1840 0.950 . S
C1848 C1849 1.386 . S
C1848 C1850 1.391 . S
C1849 C1848 1.386 . S
C1849 C1853 1.393 . S
C1850 H1842 0.950 . S
C1850 C1848 1.391 . S
C1850 C1851 1.400 . S
C1851 C1850 1.400 . S
C1851 C1852 1.398 . S
C1851 C1857 1.491 . S
C1852 H1843 0.950 . S
C1852 C1851 1.398 . S
C1852 C1853 1.391 . S
C1853 H1841 0.950 . S
C1853 C1849 1.393 . S
C1853 C1852 1.391 . S
C1854 H1844 0.950 . S
C1854 C1855 1.386 . S
C1854 C1856 1.391 . S
C1855 C1854 1.386 . S
C1855 C1859 1.393 . S
C1856 H1845 0.950 . S
C1856 C1854 1.391 . S
C1856 C1857 1.400 . S
C1857 C1851 1.491 . S
C1857 C1856 1.400 . S
C1857 C1858 1.398 . S
C1858 H1846 0.950 . S
C1858 C1857 1.398 . S
C1858 C1859 1.391 . S
C1859 H1847 0.950 . S
C1859 C1855 1.393 . S
C1859 C1858 1.391 . S
H1860 C1868 0.950 . S
H1861 C1873 0.950 . S
H1862 C1870 0.950 . S
H1863 C1872 0.950 . S
H1864 C1874 0.950 . S
H1865 C1876 0.950 . S
H1866 C1878 0.950 . S
H1867 C1879 0.950 . S
C1868 H1860 0.950 . S
C1868 C1869 1.386 . S
C1868 C1870 1.391 . S
C1869 C1868 1.386 . S
C1869 C1873 1.393 . S
C1870 H1862 0.950 . S
C1870 C1868 1.391 . S
C1870 C1871 1.400 . S
C1871 C1870 1.400 . S
C1871 C1872 1.398 . S
C1871 C1877 1.491 . S
C1872 H1863 0.950 . S
C1872 C1871 1.398 . S
C1872 C1873 1.391 . S
C1873 H1861 0.950 . S
C1873 C1869 1.393 . S
C1873 C1872 1.391 . S
C1874 H1864 0.950 . S
C1874 C1875 1.386 . S
C1874 C1876 1.391 . S
C1875 C1874 1.386 . S
C1875 C1879 1.393 . S
C1876 H1865 0.950 . S
C1876 C1874 1.391 . S
C1876 C1877 1.400 . S
C1877 C1871 1.491 . S
C1877 C1876 1.400 . S
C1877 C1878 1.398 . S
C1878 H1866 0.950 . S
C1878 C1877 1.398 . S
C1878 C1879 1.391 . S
C1879 H1867 0.950 . S
C1879 C1875 1.393 . S
C1879 C1878 1.391 . S
H1880 C1888 0.950 . S
H1881 C1893 0.950 . S
H1882 C1890 0.950 . S
H1883 C1892 0.950 . S
H1884 C1894 0.950 . S
H1885 C1896 0.950 . S
H1886 C1898 0.950 . S
H1887 C1899 0.950 . S
C1888 H1880 0.950 . S
C1888 C1889 1.386 . S
C1888 C1890 1.391 . S
C1889 C1888 1.386 . S
C1889 C1893 1.393 . S
C1890 H1882 0.950 . S
C1890 C1888 1.391 . S
C1890 C1891 1.400 . S
C1891 C1890 1.400 . S
C1891 C1892 1.398 . S
C1891 C1897 1.491 . S
C1892 H1883 0.950 . S
C1892 C1891 1.398 . S
C1892 C1893 1.391 . S
C1893 H1881 0.950 . S
C1893 C1889 1.393 . S
C1893 C1892 1.391 . S
C1894 H1884 0.950 . S
C1894 C1895 1.386 . S
C1894 C1896 1.391 . S
C1895 C1894 1.386 . S
C1895 C1899 1.393 . S
C1896 H1885 0.950 . S
C1896 C1894 1.391 . S
C1896 C1897 1.400 . S
C1897 C1891 1.491 . S
C1897 C1896 1.400 . S
C1897 C1898 1.398 . S
C1898 H1886 0.950 . S
C1898 C1897 1.398 . S
C1898 C1899 1.391 . S
C1899 H1887 0.950 . S
C1899 C1895 1.393 . S
C1899 C1898 1.391 . S
H1900 C1908 0.950 . S
H1901 C1913 0.950 . S
H1902 C1910 0.950 . S
H1903 C1912 0.950 . S
H1904 C1914 0.950 . S
H1905 C1916 0.950 . S
H1906 C1918 0.950 . S
H1907 C1919 0.950 . S
C1908 H1900 0.950 . S
C1908 C1909 1.386 . S
C1908 C1910 1.391 . S
C1909 C1908 1.386 . S
C1909 C1913 1.393 . S
C1910 H1902 0.950 . S
C1910 C1908 1.391 . S
C1910 C1911 1.400 . S
C1911 C1910 1.400 . S
C1911 C1912 1.398 . S
C1911 C1917 1.491 . S
C1912 H1903 0.950 . S
C1912 C1911 1.398 . S
C1912 C1913 1.391 . S
C1913 H1901 0.950 . S
C1913 C1909 1.393 . S
C1913 C1912 1.391 . S
C1914 H1904 0.950 . S
C1914 C1915 1.386 . S
C1914 C1916 1.391 . S
C1915 C1914 1.386 . S
C1915 C1919 1.393 . S
C1916 H1905 0.950 . S
C1916 C1914 1.391 . S
C1916 C1917 1.400 . S
C1917 C1911 1.491 . S
C1917 C1916 1.400 . S
C1917 C1918 1.398 . S
C1918 H1906 0.950 . S
C1918 C1917 1.398 . S
C1918 C1919 1.391 . S
C1919 H1907 0.950 . S
C1919 C1915 1.393 . S
C1919 C1918 1.391 . S
H1920 C1928 0.950 . S
H1921 C1933 0.950 . S
H1922 C1930 0.950 . S
H1923 C1932 0.950 . S
H1924 C1934 0.950 . S
H1925 C1936 0.950 . S
H1926 C1938 0.950 . S
H1927 C1939 0.950 . S
C1928 H1920 0.950 . S
C1928 C1929 1.386 . S
C1928 C1930 1.391 . S
C1929 C1928 1.386 . S
C1929 C1933 1.393 . S
C1930 H1922 0.950 . S
C1930 C1928 1.391 . S
C1930 C1931 1.400 . S
C1931 C1930 1.400 . S
C1931 C1932 1.398 . S
C1931 C1937 1.491 . S
C1932 H1923 0.950 . S
C1932 C1931 1.398 . S
C1932 C1933 1.391 . S
C1933 H1921 0.950 . S
C1933 C1929 1.393 . S
C1933 C1932 1.391 . S
C1934 H1924 0.950 . S
C1934 C1935 1.386 1_556 S
C1934 C1936 1.391 . S
C1935 C1934 1.386 1_554 S
C1935 C1939 1.393 . S
C1936 H1925 0.950 . S
C1936 C1934 1.391 . S
C1936 C1937 1.400 . S
C1937 C1931 1.491 . S
C1937 C1936 1.400 . S
C1937 C1938 1.398 . S
C1938 H1926 0.950 . S
C1938 C1937 1.398 . S
C1938 C1939 1.391 1_556 S
C1939 H1927 0.950 . S
C1939 C1935 1.393 . S
C1939 C1938 1.391 1_554 S
H1940 C1948 0.950 1_455 S
H1941 C1953 0.950 . S
H1942 C1950 0.950 . S
H1943 C1952 0.950 . S
H1944 C1954 0.950 . S
H1945 C1956 0.950 . S
H1946 C1958 0.950 . S
H1947 C1959 0.950 . S
C1948 H1940 0.950 1_655 S
C1948 C1949 1.399 . S
C1948 C1950 1.391 . S
C1949 C1948 1.399 . S
C1949 C1953 1.425 . S
C1950 H1942 0.950 . S
C1950 C1948 1.391 . S
C1950 C1951 1.400 . S
C1951 C1950 1.400 . S
C1951 C1952 1.398 . S
C1951 C1957 1.491 . S
C1952 H1943 0.950 . S
C1952 C1951 1.398 . S
C1952 C1953 1.391 . S
C1953 H1941 0.950 . S
C1953 C1949 1.425 . S
C1953 C1952 1.391 . S
C1954 H1944 0.950 . S
C1954 C1955 1.386 . S
C1954 C1956 1.391 . S
C1955 C1954 1.386 . S
C1955 C1959 1.393 . S
C1956 H1945 0.950 . S
C1956 C1954 1.391 . S
C1956 C1957 1.400 . S
C1957 C1951 1.491 . S
C1957 C1956 1.400 . S
C1957 C1958 1.398 . S
C1958 H1946 0.950 . S
C1958 C1957 1.398 . S
C1958 C1959 1.391 . S
C1959 H1947 0.950 . S
C1959 C1955 1.393 . S
C1959 C1958 1.391 . S
H1960 C1968 0.950 . S
H1961 C1973 0.950 . S
H1962 C1970 0.950 . S
H1963 C1972 0.950 . S
H1964 C1974 0.950 . S
H1965 C1976 0.950 . S
H1966 C1978 0.950 . S
H1967 C1979 0.950 . S
C1968 H1960 0.950 . S
C1968 C1969 1.386 . S
C1968 C1970 1.391 . S
C1969 C1968 1.386 . S
C1969 C1973 1.393 . S
C1970 H1962 0.950 . S
C1970 C1968 1.391 . S
C1970 C1971 1.400 . S
C1971 C1970 1.400 . S
C1971 C1972 1.398 . S
C1971 C1977 1.491 . S
C1972 H1963 0.950 . S
C1972 C1971 1.398 . S
C1972 C1973 1.391 . S
C1973 H1961 0.950 . S
C1973 C1969 1.393 . S
C1973 C1972 1.391 . S
C1974 H1964 0.950 . S
C1974 C1975 1.386 . S
C1974 C1976 1.391 . S
C1975 C1974 1.386 . S
C1975 C1979 1.393 . S
C1976 H1965 0.950 . S
C1976 C1974 1.391 . S
C1976 C1977 1.400 . S
C1977 C1971 1.491 . S
C1977 C1976 1.400 . S
C1977 C1978 1.398 . S
C1978 H1966 0.950 . S
C1978 C1977 1.398 . S
C1978 C1979 1.391 . S
C1979 H1967 0.950 . S
C1979 C1975 1.393 . S
C1979 C1978 1.391 . S
H1980 C1988 0.950 . S
H1981 C1993 0.950 . S
H1982 C1990 0.950 . S
H1983 C1992 0.950 . S
H1984 C1994 0.950 . S
H1985 C1996 0.950 . S
H1986 C1998 0.950 . S
H1987 C1999 0.950 . S
C1988 H1980 0.950 . S
C1988 C1989 1.386 . S
C1988 C1990 1.391 . S
C1989 C1988 1.386 . S
C1989 C1993 1.393 . S
C1990 H1982 0.950 . S
C1990 C1988 1.391 . S
C1990 C1991 1.400 . S
C1991 C1990 1.400 . S
C1991 C1992 1.398 . S
C1991 C1997 1.491 . S
C1992 H1983 0.950 . S
C1992 C1991 1.398 . S
C1992 C1993 1.391 . S
C1993 H1981 0.950 . S
C1993 C1989 1.393 . S
C1993 C1992 1.391 . S
C1994 H1984 0.950 . S
C1994 C1995 1.386 . S
C1994 C1996 1.391 . S
C1995 C1994 1.386 . S
C1995 C1999 1.393 . S
C1996 H1985 0.950 . S
C1996 C1994 1.391 . S
C1996 C1997 1.400 . S
C1997 C1991 1.491 . S
C1997 C1996 1.400 . S
C1997 C1998 1.398 . S
C1998 H1986 0.950 . S
C1998 C1997 1.398 . S
C1998 C1999 1.391 . S
C1999 H1987 0.950 . S
C1999 C1995 1.393 . S
C1999 C1998 1.391 . S
H2000 C2008 0.950 . S
H2001 C2013 0.950 . S
H2002 C2010 0.950 . S
H2003 C2012 0.950 . S
H2004 C2014 0.950 . S
H2005 C2016 0.950 . S
H2006 C2018 0.950 . S
H2007 C2019 0.950 . S
C2008 H2000 0.950 . S
C2008 C2009 1.386 . S
C2008 C2010 1.391 . S
C2009 C2008 1.386 . S
C2009 C2013 1.393 . S
C2010 H2002 0.950 . S
C2010 C2008 1.391 . S
C2010 C2011 1.400 . S
C2011 C2010 1.400 . S
C2011 C2012 1.398 . S
C2011 C2017 1.491 . S
C2012 H2003 0.950 . S
C2012 C2011 1.398 . S
C2012 C2013 1.391 . S
C2013 H2001 0.950 . S
C2013 C2009 1.393 . S
C2013 C2012 1.391 . S
C2014 H2004 0.950 . S
C2014 C2015 1.386 . S
C2014 C2016 1.391 . S
C2015 C2014 1.386 . S
C2015 C2019 1.393 . S
C2016 H2005 0.950 . S
C2016 C2014 1.391 . S
C2016 C2017 1.400 . S
C2017 C2011 1.491 . S
C2017 C2016 1.400 . S
C2017 C2018 1.398 . S
C2018 H2006 0.950 . S
C2018 C2017 1.398 . S
C2018 C2019 1.391 . S
C2019 H2007 0.950 . S
C2019 C2015 1.393 . S
C2019 C2018 1.391 . S
H2020 C2028 0.950 . S
H2021 C2033 0.950 . S
H2022 C2030 0.950 . S
H2023 C2032 0.950 . S
H2024 C2034 0.950 . S
H2025 C2036 0.950 . S
H2026 C2038 0.950 . S
H2027 C2039 0.950 . S
C2028 H2020 0.950 . S
C2028 C2029 1.386 . S
C2028 C2030 1.391 . S
C2029 C2028 1.386 . S
C2029 C2033 1.393 . S
C2030 H2022 0.950 . S
C2030 C2028 1.391 . S
C2030 C2031 1.400 . S
C2031 C2030 1.400 . S
C2031 C2032 1.398 . S
C2031 C2037 1.491 . S
C2032 H2023 0.950 . S
C2032 C2031 1.398 . S
C2032 C2033 1.391 . S
C2033 H2021 0.950 . S
C2033 C2029 1.393 . S
C2033 C2032 1.391 . S
C2034 H2024 0.950 . S
C2034 C2035 1.386 . S
C2034 C2036 1.391 . S
C2035 C2034 1.386 . S
C2035 C2039 1.393 . S
C2036 H2025 0.950 . S
C2036 C2034 1.391 . S
C2036 C2037 1.400 . S
C2037 C2031 1.491 . S
C2037 C2036 1.400 . S
C2037 C2038 1.398 . S
C2038 H2026 0.950 . S
C2038 C2037 1.398 . S
C2038 C2039 1.391 . S
C2039 H2027 0.950 . S
C2039 C2035 1.393 . S
C2039 C2038 1.391 . S
H2040 C2048 0.950 . S
H2041 C2053 0.950 . S
H2042 C2050 0.950 . S
H2043 C2052 0.950 . S
H2044 C2054 0.950 . S
H2045 C2056 0.950 . S
H2046 C2058 0.941 1_455 S
H2047 C2059 0.950 . S
C2048 H2040 0.950 . S
C2048 C2049 1.386 . S
C2048 C2050 1.391 . S
C2049 C2048 1.386 . S
C2049 C2053 1.393 . S
C2050 H2042 0.950 . S
C2050 C2048 1.391 . S
C2050 C2051 1.400 . S
C2051 C2050 1.400 . S
C2051 C2052 1.398 . S
C2051 C2057 1.491 . S
C2052 H2043 0.950 . S
C2052 C2051 1.398 . S
C2052 C2053 1.391 . S
C2053 H2041 0.950 . S
C2053 C2049 1.393 . S
C2053 C2052 1.391 . S
C2054 H2044 0.950 . S
C2054 C2055 1.386 1_655 S
C2054 C2056 1.391 . S
C2055 C2054 1.386 1_455 S
C2055 C2059 1.393 . S
C2056 H2045 0.950 . S
C2056 C2054 1.391 . S
C2056 C2057 1.400 . S
C2057 C2051 1.491 . S
C2057 C2056 1.400 . S
C2057 C2058 1.434 . S
C2058 H2046 0.941 1_655 S
C2058 C2057 1.434 . S
C2058 C2059 1.365 1_655 S
C2059 H2047 0.950 . S
C2059 C2055 1.393 . S
C2059 C2058 1.365 1_455 S
H2060 C2068 0.950 . S
H2061 C2073 0.950 . S
H2062 C2070 0.950 . S
H2063 C2072 0.950 . S
H2064 C2074 0.950 . S
H2065 C2076 0.950 . S
H2066 C2078 0.950 . S
H2067 C2079 0.950 . S
C2068 H2060 0.950 . S
C2068 C2069 1.386 . S
C2068 C2070 1.391 . S
C2069 C2068 1.386 . S
C2069 C2073 1.393 . S
C2070 H2062 0.950 . S
C2070 C2068 1.391 . S
C2070 C2071 1.400 . S
C2071 C2070 1.400 . S
C2071 C2072 1.398 . S
C2071 C2077 1.491 . S
C2072 H2063 0.950 . S
C2072 C2071 1.398 . S
C2072 C2073 1.391 . S
C2073 H2061 0.950 . S
C2073 C2069 1.393 . S
C2073 C2072 1.391 . S
C2074 H2064 0.950 . S
C2074 C2075 1.386 . S
C2074 C2076 1.391 . S
C2075 C2074 1.386 . S
C2075 C2079 1.393 . S
C2076 H2065 0.950 . S
C2076 C2074 1.391 . S
C2076 C2077 1.400 . S
C2077 C2071 1.491 . S
C2077 C2076 1.400 . S
C2077 C2078 1.398 . S
C2078 H2066 0.950 . S
C2078 C2077 1.398 . S
C2078 C2079 1.391 . S
C2079 H2067 0.950 . S
C2079 C2075 1.393 . S
C2079 C2078 1.391 . S
H2080 C2088 0.950 . S
H2081 C2093 0.950 . S
H2082 C2090 0.950 . S
H2083 C2092 0.950 . S
H2084 C2094 0.950 . S
H2085 C2096 0.950 . S
H2086 C2098 0.950 . S
H2087 C2099 0.950 . S
C2088 H2080 0.950 . S
C2088 C2089 1.386 . S
C2088 C2090 1.391 . S
C2089 C2088 1.386 . S
C2089 C2093 1.393 . S
C2090 H2082 0.950 . S
C2090 C2088 1.391 . S
C2090 C2091 1.400 . S
C2091 C2090 1.400 . S
C2091 C2092 1.398 . S
C2091 C2097 1.491 . S
C2092 H2083 0.950 . S
C2092 C2091 1.398 . S
C2092 C2093 1.391 . S
C2093 H2081 0.950 . S
C2093 C2089 1.393 . S
C2093 C2092 1.391 . S
C2094 H2084 0.950 . S
C2094 C2095 1.386 . S
C2094 C2096 1.391 . S
C2095 C2094 1.386 . S
C2095 C2099 1.393 . S
C2096 H2085 0.950 . S
C2096 C2094 1.391 . S
C2096 C2097 1.400 . S
C2097 C2091 1.491 . S
C2097 C2096 1.400 . S
C2097 C2098 1.398 . S
C2098 H2086 0.950 . S
C2098 C2097 1.398 . S
C2098 C2099 1.391 . S
C2099 H2087 0.950 . S
C2099 C2095 1.393 . S
C2099 C2098 1.391 . S
H2100 C2108 0.950 . S
H2101 C2113 0.950 . S
H2102 C2110 0.950 . S
H2103 C2112 0.950 . S
H2104 C2114 0.950 . S
H2105 C2116 0.950 . S
H2106 C2118 0.950 . S
H2107 C2119 0.950 . S
C2108 H2100 0.950 . S
C2108 C2109 1.386 . S
C2108 C2110 1.391 . S
C2109 C2108 1.386 . S
C2109 C2113 1.393 . S
C2110 H2102 0.950 . S
C2110 C2108 1.391 . S
C2110 C2111 1.400 . S
C2111 C2110 1.400 . S
C2111 C2112 1.398 . S
C2111 C2117 1.491 . S
C2112 H2103 0.950 . S
C2112 C2111 1.398 . S
C2112 C2113 1.391 . S
C2113 H2101 0.950 . S
C2113 C2109 1.393 . S
C2113 C2112 1.391 . S
C2114 H2104 0.950 . S
C2114 C2115 1.386 . S
C2114 C2116 1.391 . S
C2115 C2114 1.386 . S
C2115 C2119 1.393 . S
C2116 H2105 0.950 . S
C2116 C2114 1.391 . S
C2116 C2117 1.400 . S
C2117 C2111 1.491 . S
C2117 C2116 1.400 . S
C2117 C2118 1.398 . S
C2118 H2106 0.950 . S
C2118 C2117 1.398 . S
C2118 C2119 1.391 . S
C2119 H2107 0.950 . S
C2119 C2115 1.393 . S
C2119 C2118 1.391 . S
H2120 C2128 0.950 . S
H2121 C2133 0.950 . S
H2122 C2130 0.950 . S
H2123 C2132 0.950 . S
H2124 C2134 0.950 . S
H2125 C2136 0.950 . S
H2126 C2138 0.950 . S
H2127 C2139 0.950 1_455 S
C2128 H2120 0.950 . S
C2128 C2129 1.386 . S
C2128 C2130 1.391 . S
C2129 C2128 1.386 . S
C2129 C2133 1.393 . S
C2130 H2122 0.950 . S
C2130 C2128 1.391 . S
C2130 C2131 1.400 . S
C2131 C2130 1.400 . S
C2131 C2132 1.398 . S
C2131 C2137 1.491 . S
C2132 H2123 0.950 . S
C2132 C2131 1.398 . S
C2132 C2133 1.391 . S
C2133 H2121 0.950 . S
C2133 C2129 1.393 . S
C2133 C2132 1.391 . S
C2134 H2124 0.950 . S
C2134 C2135 1.386 . S
C2134 C2136 1.391 . S
C2135 C2134 1.386 . S
C2135 C2139 1.393 . S
C2136 H2125 0.950 . S
C2136 C2134 1.391 . S
C2136 C2137 1.400 . S
C2137 C2131 1.491 . S
C2137 C2136 1.400 . S
C2137 C2138 1.398 . S
C2138 H2126 0.950 . S
C2138 C2137 1.398 . S
C2138 C2139 1.391 . S
C2139 H2127 0.950 1_655 S
C2139 C2135 1.393 . S
C2139 C2138 1.391 . S
H2140 C2148 0.950 . S
H2141 C2153 0.950 . S
H2142 C2150 0.950 . S
H2143 C2152 0.950 . S
H2144 C2154 0.950 . S
H2145 C2156 0.950 . S
H2146 C2158 0.950 . S
H2147 C2159 0.950 . S
C2148 H2140 0.950 . S
C2148 C2149 1.386 . S
C2148 C2150 1.391 . S
C2149 C2148 1.386 . S
C2149 C2153 1.393 . S
C2150 H2142 0.950 . S
C2150 C2148 1.391 . S
C2150 C2151 1.400 . S
C2151 C2150 1.400 . S
C2151 C2152 1.398 . S
C2151 C2157 1.491 . S
C2152 H2143 0.950 . S
C2152 C2151 1.398 . S
C2152 C2153 1.391 . S
C2153 H2141 0.950 . S
C2153 C2149 1.393 . S
C2153 C2152 1.391 . S
C2154 H2144 0.950 . S
C2154 C2155 1.386 . S
C2154 C2156 1.391 . S
C2155 C2154 1.386 . S
C2155 C2159 1.393 . S
C2156 H2145 0.950 . S
C2156 C2154 1.391 . S
C2156 C2157 1.400 . S
C2157 C2151 1.491 . S
C2157 C2156 1.400 . S
C2157 C2158 1.398 . S
C2158 H2146 0.950 . S
C2158 C2157 1.398 . S
C2158 C2159 1.391 . S
C2159 H2147 0.950 . S
C2159 C2155 1.393 . S
C2159 C2158 1.391 . S
H2160 C2168 0.950 . S
H2161 C2173 0.950 . S
H2162 C2170 0.950 . S
H2163 C2172 0.950 . S
H2164 C2174 0.950 . S
H2165 C2176 0.950 . S
H2166 C2178 0.950 . S
H2167 C2179 0.950 . S
C2168 H2160 0.950 . S
C2168 C2169 1.386 . S
C2168 C2170 1.391 . S
C2169 C2168 1.386 . S
C2169 C2173 1.393 . S
C2170 H2162 0.950 . S
C2170 C2168 1.391 . S
C2170 C2171 1.400 . S
C2171 C2170 1.400 . S
C2171 C2172 1.398 . S
C2171 C2177 1.491 . S
C2172 H2163 0.950 . S
C2172 C2171 1.398 . S
C2172 C2173 1.391 . S
C2173 H2161 0.950 . S
C2173 C2169 1.393 . S
C2173 C2172 1.391 . S
C2174 H2164 0.950 . S
C2174 C2175 1.386 . S
C2174 C2176 1.391 . S
C2175 C2174 1.386 . S
C2175 C2179 1.393 . S
C2176 H2165 0.950 . S
C2176 C2174 1.391 . S
C2176 C2177 1.400 . S
C2177 C2171 1.491 . S
C2177 C2176 1.400 . S
C2177 C2178 1.398 . S
C2178 H2166 0.950 . S
C2178 C2177 1.398 . S
C2178 C2179 1.391 . S
C2179 H2167 0.950 . S
C2179 C2175 1.393 . S
C2179 C2178 1.391 . S
H2180 C2188 0.950 . S
H2181 C2193 0.950 . S
H2182 C2190 0.950 . S
H2183 C2192 0.950 . S
H2184 C2194 0.950 . S
H2185 C2196 0.950 . S
H2186 C2198 0.950 . S
H2187 C2199 0.950 1_545 S
C2188 H2180 0.950 . S
C2188 C2189 1.386 . S
C2188 C2190 1.391 . S
C2189 C2188 1.386 . S
C2189 C2193 1.393 . S
C2190 H2182 0.950 . S
C2190 C2188 1.391 . S
C2190 C2191 1.400 . S
C2191 C2190 1.400 . S
C2191 C2192 1.398 . S
C2191 C2197 1.491 . S
C2192 H2183 0.950 . S
C2192 C2191 1.398 . S
C2192 C2193 1.391 . S
C2193 H2181 0.950 . S
C2193 C2189 1.393 . S
C2193 C2192 1.391 . S
C2194 H2184 0.950 . S
C2194 C2195 1.386 . S
C2194 C2196 1.391 . S
C2195 C2194 1.386 . S
C2195 C2199 1.393 . S
C2196 H2185 0.950 . S
C2196 C2194 1.391 . S
C2196 C2197 1.400 . S
C2197 C2191 1.491 . S
C2197 C2196 1.400 . S
C2197 C2198 1.398 . S
C2198 H2186 0.950 . S
C2198 C2197 1.398 . S
C2198 C2199 1.390 . S
C2199 H2187 0.950 1_565 S
C2199 C2195 1.393 . S
C2199 C2198 1.390 . S
H2200 C2208 0.950 . S
H2201 C2213 0.950 . S
H2202 C2210 0.950 . S
H2203 C2212 0.950 . S
H2204 C2214 0.950 . S
H2205 C2216 0.950 . S
H2206 C2218 0.950 . S
H2207 C2219 0.950 . S
C2208 H2200 0.950 . S
C2208 C2209 1.386 . S
C2208 C2210 1.391 . S
C2209 C2208 1.386 . S
C2209 C2213 1.393 . S
C2210 H2202 0.950 . S
C2210 C2208 1.391 . S
C2210 C2211 1.400 . S
C2211 C2210 1.400 . S
C2211 C2212 1.398 . S
C2211 C2217 1.491 . S
C2212 H2203 0.950 . S
C2212 C2211 1.398 . S
C2212 C2213 1.391 . S
C2213 H2201 0.950 . S
C2213 C2209 1.393 . S
C2213 C2212 1.391 . S
C2214 H2204 0.950 . S
C2214 C2215 1.386 . S
C2214 C2216 1.391 . S
C2215 C2214 1.386 . S
C2215 C2219 1.393 . S
C2216 H2205 0.950 . S
C2216 C2214 1.391 . S
C2216 C2217 1.400 . S
C2217 C2211 1.491 . S
C2217 C2216 1.400 . S
C2217 C2218 1.398 . S
C2218 H2206 0.950 . S
C2218 C2217 1.398 . S
C2218 C2219 1.391 . S
C2219 H2207 0.950 . S
C2219 C2215 1.393 . S
C2219 C2218 1.391 . S
H2220 C2228 0.950 . S
H2221 C2233 0.950 . S
H2222 C2230 0.950 . S
H2223 C2232 0.950 . S
H2224 C2234 0.950 . S
H2225 C2236 0.950 . S
H2226 C2238 0.950 . S
H2227 C2239 0.950 . S
C2228 H2220 0.950 . S
C2228 C2229 1.386 . S
C2228 C2230 1.391 . S
C2229 C2228 1.386 . S
C2229 C2233 1.393 . S
C2230 H2222 0.950 . S
C2230 C2228 1.391 . S
C2230 C2231 1.400 . S
C2231 C2230 1.400 . S
C2231 C2232 1.398 . S
C2231 C2237 1.491 . S
C2232 H2223 0.950 . S
C2232 C2231 1.398 . S
C2232 C2233 1.391 . S
C2233 H2221 0.950 . S
C2233 C2229 1.393 . S
C2233 C2232 1.391 . S
C2234 H2224 0.950 . S
C2234 C2235 1.386 . S
C2234 C2236 1.391 . S
C2235 C2234 1.386 . S
C2235 C2239 1.393 . S
C2236 H2225 0.950 . S
C2236 C2234 1.391 . S
C2236 C2237 1.400 . S
C2237 C2231 1.491 . S
C2237 C2236 1.400 . S
C2237 C2238 1.398 . S
C2238 H2226 0.950 . S
C2238 C2237 1.398 . S
C2238 C2239 1.391 . S
C2239 H2227 0.950 . S
C2239 C2235 1.393 . S
C2239 C2238 1.391 . S
H2240 C2248 0.950 . S
H2241 C2253 0.950 . S
H2242 C2250 0.950 . S
H2243 C2252 0.950 . S
H2244 C2254 0.950 . S
H2245 C2256 0.950 . S
H2246 C2258 0.950 . S
H2247 C2259 0.950 . S
C2248 H2240 0.950 . S
C2248 C2249 1.386 . S
C2248 C2250 1.391 . S
C2249 C2248 1.386 . S
C2249 C2253 1.393 . S
C2250 H2242 0.950 . S
C2250 C2248 1.391 . S
C2250 C2251 1.400 . S
C2251 C2250 1.400 . S
C2251 C2252 1.398 . S
C2251 C2257 1.491 . S
C2252 H2243 0.950 . S
C2252 C2251 1.398 . S
C2252 C2253 1.391 . S
C2253 H2241 0.950 . S
C2253 C2249 1.393 . S
C2253 C2252 1.391 . S
C2254 H2244 0.950 . S
C2254 C2255 1.386 . S
C2254 C2256 1.391 . S
C2255 C2254 1.386 . S
C2255 C2259 1.393 . S
C2256 H2245 0.950 . S
C2256 C2254 1.391 . S
C2256 C2257 1.400 . S
C2257 C2251 1.491 . S
C2257 C2256 1.400 . S
C2257 C2258 1.398 . S
C2258 H2246 0.950 . S
C2258 C2257 1.398 . S
C2258 C2259 1.391 . S
C2259 H2247 0.950 . S
C2259 C2255 1.393 . S
C2259 C2258 1.391 . S
H2260 C2268 0.950 . S
H2261 C2273 0.950 . S
H2262 C2270 0.950 . S
H2263 C2272 0.950 . S
H2264 C2274 0.950 1_556 S
H2265 C2276 0.950 . S
H2266 C2278 0.950 . S
H2267 C2279 0.950 . S
C2268 H2260 0.950 . S
C2268 C2269 1.386 . S
C2268 C2270 1.391 . S
C2269 C2268 1.386 . S
C2269 C2273 1.393 . S
C2270 H2262 0.950 . S
C2270 C2268 1.391 . S
C2270 C2271 1.400 . S
C2271 C2270 1.400 . S
C2271 C2272 1.398 . S
C2271 C2277 1.491 . S
C2272 H2263 0.950 . S
C2272 C2271 1.398 . S
C2272 C2273 1.391 . S
C2273 H2261 0.950 . S
C2273 C2269 1.393 . S
C2273 C2272 1.391 . S
C2274 H2264 0.950 1_554 S
C2274 C2275 1.386 . S
C2274 C2276 1.391 . S
C2275 C2274 1.386 . S
C2275 C2279 1.393 . S
C2276 H2265 0.950 . S
C2276 C2274 1.391 . S
C2276 C2277 1.400 . S
C2277 C2271 1.491 . S
C2277 C2276 1.400 . S
C2277 C2278 1.398 . S
C2278 H2266 0.950 . S
C2278 C2277 1.398 . S
C2278 C2279 1.391 . S
C2279 H2267 0.950 . S
C2279 C2275 1.393 . S
C2279 C2278 1.391 . S
H2280 C2288 0.950 . S
H2281 C2293 0.950 . S
H2282 C2290 0.950 . S
H2283 C2292 0.950 . S
H2284 C2294 0.950 . S
H2285 C2296 0.950 . S
H2286 C2298 0.950 . S
H2287 C2299 0.950 . S
C2288 H2280 0.950 . S
C2288 C2289 1.386 . S
C2288 C2290 1.391 . S
C2289 C2288 1.386 . S
C2289 C2293 1.393 . S
C2290 H2282 0.950 . S
C2290 C2288 1.391 . S
C2290 C2291 1.400 . S
C2291 C2290 1.400 . S
C2291 C2292 1.398 . S
C2291 C2297 1.491 . S
C2292 H2283 0.950 . S
C2292 C2291 1.398 . S
C2292 C2293 1.391 . S
C2293 H2281 0.950 . S
C2293 C2289 1.393 . S
C2293 C2292 1.391 . S
C2294 H2284 0.950 . S
C2294 C2295 1.386 . S
C2294 C2296 1.391 . S
C2295 C2294 1.386 . S
C2295 C2299 1.393 . S
C2296 H2285 0.950 . S
C2296 C2294 1.391 . S
C2296 C2297 1.400 . S
C2297 C2291 1.491 . S
C2297 C2296 1.400 . S
C2297 C2298 1.398 . S
C2298 H2286 0.950 . S
C2298 C2297 1.398 . S
C2298 C2299 1.391 . S
C2299 H2287 0.950 . S
C2299 C2295 1.393 . S
C2299 C2298 1.391 . S
H2300 C2308 0.950 . S
H2301 C2313 0.950 . S
H2302 C2310 0.950 . S
H2303 C2312 0.950 . S
H2304 C2314 0.950 . S
H2305 C2316 0.950 . S
H2306 C2318 0.950 . S
H2307 C2319 0.950 . S
C2308 H2300 0.950 . S
C2308 C2309 1.386 . S
C2308 C2310 1.391 . S
C2309 C2308 1.386 . S
C2309 C2313 1.393 . S
C2310 H2302 0.950 . S
C2310 C2308 1.391 . S
C2310 C2311 1.400 . S
C2311 C2310 1.400 . S
C2311 C2312 1.398 . S
C2311 C2317 1.491 . S
C2312 H2303 0.950 . S
C2312 C2311 1.398 . S
C2312 C2313 1.391 . S
C2313 H2301 0.950 . S
C2313 C2309 1.393 . S
C2313 C2312 1.391 . S
C2314 H2304 0.950 . S
C2314 C2315 1.386 . S
C2314 C2316 1.391 . S
C2315 C2314 1.386 . S
C2315 C2319 1.393 . S
C2316 H2305 0.950 . S
C2316 C2314 1.391 . S
C2316 C2317 1.400 . S
C2317 C2311 1.491 . S
C2317 C2316 1.400 . S
C2317 C2318 1.398 . S
C2318 H2306 0.950 . S
C2318 C2317 1.398 . S
C2318 C2319 1.391 . S
C2319 H2307 0.950 . S
C2319 C2315 1.393 . S
C2319 C2318 1.391 . S
H2320 C2328 0.950 . S
H2321 C2333 0.950 . S
H2322 C2330 0.950 . S
H2323 C2332 0.950 . S
H2324 C2334 0.950 . S
H2325 C2336 0.950 . S
H2326 C2338 0.950 . S
H2327 C2339 0.950 . S
C2328 H2320 0.950 . S
C2328 C2329 1.386 . S
C2328 C2330 1.391 . S
C2329 C2328 1.386 . S
C2329 C2333 1.393 . S
C2330 H2322 0.950 . S
C2330 C2328 1.391 . S
C2330 C2331 1.400 . S
C2331 C2330 1.400 . S
C2331 C2332 1.398 . S
C2331 C2337 1.491 . S
C2332 H2323 0.950 . S
C2332 C2331 1.398 . S
C2332 C2333 1.391 . S
C2333 H2321 0.950 . S
C2333 C2329 1.393 . S
C2333 C2332 1.391 . S
C2334 H2324 0.950 . S
C2334 C2335 1.386 . S
C2334 C2336 1.391 . S
C2335 C2334 1.386 . S
C2335 C2339 1.393 . S
C2336 H2325 0.950 . S
C2336 C2334 1.391 . S
C2336 C2337 1.400 . S
C2337 C2331 1.491 . S
C2337 C2336 1.400 . S
C2337 C2338 1.398 . S
C2338 H2326 0.950 . S
C2338 C2337 1.398 . S
C2338 C2339 1.391 . S
C2339 H2327 0.950 . S
C2339 C2335 1.393 . S
C2339 C2338 1.391 . S
H2340 C2348 0.950 . S
H2341 C2353 0.950 . S
H2342 C2350 0.950 . S
H2343 C2352 0.950 . S
H2344 C2354 0.950 . S
H2345 C2356 0.950 . S
H2346 C2358 0.950 . S
H2347 C2359 0.950 . S
C2348 H2340 0.950 . S
C2348 C2349 1.386 . S
C2348 C2350 1.391 . S
C2349 C2348 1.386 . S
C2349 C2353 1.393 . S
C2350 H2342 0.950 . S
C2350 C2348 1.391 . S
C2350 C2351 1.400 . S
C2351 C2350 1.400 . S
C2351 C2352 1.398 . S
C2351 C2357 1.491 . S
C2352 H2343 0.950 . S
C2352 C2351 1.398 . S
C2352 C2353 1.391 . S
C2353 H2341 0.950 . S
C2353 C2349 1.393 . S
C2353 C2352 1.391 . S
C2354 H2344 0.950 . S
C2354 C2355 1.386 . S
C2354 C2356 1.391 . S
C2355 C2354 1.386 . S
C2355 C2359 1.393 . S
C2356 H2345 0.950 . S
C2356 C2354 1.391 . S
C2356 C2357 1.400 . S
C2357 C2351 1.491 . S
C2357 C2356 1.400 . S
C2357 C2358 1.398 . S
C2358 H2346 0.950 . S
C2358 C2357 1.398 . S
C2358 C2359 1.391 . S
C2359 H2347 0.950 . S
C2359 C2355 1.393 . S
C2359 C2358 1.391 . S
H2360 C2368 0.950 . S
H2361 C2373 0.950 . S
H2362 C2370 0.950 . S
H2363 C2372 0.950 . S
H2364 C2374 0.950 . S
H2365 C2376 0.950 . S
H2366 C2378 0.950 . S
H2367 C2379 0.950 1_554 S
C2368 H2360 0.950 . S
C2368 C2369 1.386 1_655 S
C2368 C2370 1.391 . S
C2369 C2368 1.386 1_455 S
C2369 C2373 1.393 . S
C2370 H2362 0.950 . S
C2370 C2368 1.391 . S
C2370 C2371 1.400 1_655 S
C2371 C2370 1.400 1_455 S
C2371 C2372 1.398 . S
C2371 C2377 1.491 . S
C2372 H2363 0.950 . S
C2372 C2371 1.398 . S
C2372 C2373 1.391 . S
C2373 H2361 0.950 . S
C2373 C2369 1.393 . S
C2373 C2372 1.391 . S
C2374 H2364 0.950 . S
C2374 C2375 1.386 . S
C2374 C2376 1.391 . S
C2375 C2374 1.386 . S
C2375 C2379 1.393 1_455 S
C2376 H2365 0.950 . S
C2376 C2374 1.391 . S
C2376 C2377 1.400 . S
C2377 C2371 1.491 . S
C2377 C2376 1.400 . S
C2377 C2378 1.398 1_455 S
C2378 H2366 0.950 . S
C2378 C2377 1.398 1_655 S
C2378 C2379 1.391 . S
C2379 H2367 0.950 1_556 S
C2379 C2375 1.393 1_655 S
C2379 C2378 1.391 . S
H2380 C2388 0.950 . S
H2381 C2393 0.950 . S
H2382 C2390 0.950 . S
H2383 C2392 0.950 . S
H2384 C2394 0.950 . S
H2385 C2396 0.950 . S
H2386 C2398 0.950 . S
H2387 C2399 0.950 . S
C2388 H2380 0.950 . S
C2388 C2389 1.386 . S
C2388 C2390 1.391 . S
C2389 C2388 1.386 . S
C2389 C2393 1.393 . S
C2390 H2382 0.950 . S
C2390 C2388 1.391 . S
C2390 C2391 1.400 . S
C2391 C2390 1.400 . S
C2391 C2392 1.398 . S
C2391 C2397 1.491 . S
C2392 H2383 0.950 . S
C2392 C2391 1.398 . S
C2392 C2393 1.391 . S
C2393 H2381 0.950 . S
C2393 C2389 1.393 . S
C2393 C2392 1.391 . S
C2394 H2384 0.950 . S
C2394 C2395 1.386 . S
C2394 C2396 1.391 . S
C2395 C2394 1.386 . S
C2395 C2399 1.393 . S
C2396 H2385 0.950 . S
C2396 C2394 1.391 . S
C2396 C2397 1.400 . S
C2397 C2391 1.491 . S
C2397 C2396 1.400 . S
C2397 C2398 1.398 . S
C2398 H2386 0.950 . S
C2398 C2397 1.398 . S
C2398 C2399 1.391 . S
C2399 H2387 0.950 . S
C2399 C2395 1.393 . S
C2399 C2398 1.391 . S
H2400 C2408 0.950 . S
H2401 C2413 0.950 . S
H2402 C2410 0.950 . S
H2403 C2412 0.950 . S
H2404 C2414 0.950 . S
H2405 C2416 0.950 . S
H2406 C2418 0.950 . S
H2407 C2419 0.950 . S
C2408 H2400 0.950 . S
C2408 C2409 1.386 . S
C2408 C2410 1.391 . S
C2409 C2408 1.386 . S
C2409 C2413 1.393 . S
C2410 H2402 0.950 . S
C2410 C2408 1.391 . S
C2410 C2411 1.400 . S
C2411 C2410 1.400 . S
C2411 C2412 1.398 . S
C2411 C2417 1.491 . S
C2412 H2403 0.950 . S
C2412 C2411 1.398 . S
C2412 C2413 1.391 . S
C2413 H2401 0.950 . S
C2413 C2409 1.393 . S
C2413 C2412 1.391 . S
C2414 H2404 0.950 . S
C2414 C2415 1.386 . S
C2414 C2416 1.391 . S
C2415 C2414 1.386 . S
C2415 C2419 1.393 . S
C2416 H2405 0.950 . S
C2416 C2414 1.391 . S
C2416 C2417 1.400 . S
C2417 C2411 1.491 . S
C2417 C2416 1.400 . S
C2417 C2418 1.398 . S
C2418 H2406 0.950 . S
C2418 C2417 1.398 . S
C2418 C2419 1.391 . S
C2419 H2407 0.950 . S
C2419 C2415 1.393 . S
C2419 C2418 1.391 . S
H2420 C2428 0.950 . S
H2421 C2433 0.950 . S
H2422 C2430 0.950 . S
H2423 C2432 0.950 . S
H2424 C2434 0.950 . S
H2425 C2436 0.950 . S
H2426 C2438 0.950 . S
H2427 C2439 0.950 . S
C2428 H2420 0.950 . S
C2428 C2429 1.386 . S
C2428 C2430 1.391 . S
C2429 C2428 1.386 . S
C2429 C2433 1.393 . S
C2430 H2422 0.950 . S
C2430 C2428 1.391 . S
C2430 C2431 1.400 . S
C2431 C2430 1.400 . S
C2431 C2432 1.398 . S
C2431 C2437 1.491 . S
C2432 H2423 0.950 . S
C2432 C2431 1.398 . S
C2432 C2433 1.391 . S
C2433 H2421 0.950 . S
C2433 C2429 1.393 . S
C2433 C2432 1.391 . S
C2434 H2424 0.950 . S
C2434 C2435 1.386 . S
C2434 C2436 1.391 . S
C2435 C2434 1.386 . S
C2435 C2439 1.393 . S
C2436 H2425 0.950 . S
C2436 C2434 1.391 . S
C2436 C2437 1.400 . S
C2437 C2431 1.491 . S
C2437 C2436 1.400 . S
C2437 C2438 1.398 . S
C2438 H2426 0.950 . S
C2438 C2437 1.398 . S
C2438 C2439 1.391 . S
C2439 H2427 0.950 . S
C2439 C2435 1.393 . S
C2439 C2438 1.391 . S
H2440 C2448 0.950 . S
H2441 C2453 0.950 . S
H2442 C2450 0.950 . S
H2443 C2452 0.951 1_655 S
H2444 C2454 0.950 1_655 S
H2445 C2456 0.950 1_655 S
H2446 C2458 0.950 . S
H2447 C2459 0.950 . S
C2448 H2440 0.950 . S
C2448 C2449 1.386 . S
C2448 C2450 1.391 . S
C2449 C2448 1.386 . S
C2449 C2453 1.393 . S
C2450 H2442 0.950 . S
C2450 C2448 1.391 . S
C2450 C2451 1.400 . S
C2451 C2450 1.400 . S
C2451 C2452 1.398 . S
C2451 C2457 1.491 . S
C2452 H2443 0.951 1_455 S
C2452 C2451 1.398 . S
C2452 C2453 1.391 . S
C2453 H2441 0.950 . S
C2453 C2449 1.393 . S
C2453 C2452 1.391 . S
C2454 H2444 0.950 1_455 S
C2454 C2455 1.386 . S
C2454 C2456 1.391 . S
C2455 C2454 1.386 . S
C2455 C2459 1.393 . S
C2456 H2445 0.950 1_455 S
C2456 C2454 1.391 . S
C2456 C2457 1.400 . S
C2457 C2451 1.491 . S
C2457 C2456 1.400 . S
C2457 C2458 1.398 . S
C2458 H2446 0.950 . S
C2458 C2457 1.398 . S
C2458 C2459 1.391 . S
C2459 H2447 0.950 . S
C2459 C2455 1.393 . S
C2459 C2458 1.391 . S
H2460 C2468 0.950 . S
H2461 C2473 0.950 . S
H2462 C2470 0.950 . S
H2463 C2472 0.950 . S
H2464 C2474 0.950 . S
H2465 C2476 0.950 . S
H2466 C2478 0.950 . S
H2467 C2479 0.950 . S
C2468 H2460 0.950 . S
C2468 C2469 1.386 . S
C2468 C2470 1.391 . S
C2469 C2468 1.386 . S
C2469 C2473 1.393 . S
C2470 H2462 0.950 . S
C2470 C2468 1.391 . S
C2470 C2471 1.400 . S
C2471 C2470 1.400 . S
C2471 C2472 1.398 . S
C2471 C2477 1.491 . S
C2472 H2463 0.950 . S
C2472 C2471 1.398 . S
C2472 C2473 1.391 . S
C2473 H2461 0.950 . S
C2473 C2469 1.393 . S
C2473 C2472 1.391 . S
C2474 H2464 0.950 . S
C2474 C2475 1.386 . S
C2474 C2476 1.391 . S
C2475 C2474 1.386 . S
C2475 C2479 1.393 . S
C2476 H2465 0.950 . S
C2476 C2474 1.391 . S
C2476 C2477 1.400 . S
C2477 C2471 1.491 . S
C2477 C2476 1.400 . S
C2477 C2478 1.398 . S
C2478 H2466 0.950 . S
C2478 C2477 1.398 . S
C2478 C2479 1.391 . S
C2479 H2467 0.950 . S
C2479 C2475 1.393 . S
C2479 C2478 1.391 . S
H2480 C2488 0.950 . S
H2481 C2493 0.950 . S
H2482 C2490 0.950 . S
H2483 C2492 0.950 . S
H2484 C2494 0.950 . S
H2485 C2496 0.950 . S
H2486 C2498 0.950 . S
H2487 C2499 0.950 . S
C2488 H2480 0.950 . S
C2488 C2489 1.386 . S
C2488 C2490 1.391 . S
C2489 C2488 1.386 . S
C2489 C2493 1.393 . S
C2490 H2482 0.950 . S
C2490 C2488 1.391 . S
C2490 C2491 1.400 . S
C2491 C2490 1.400 . S
C2491 C2492 1.398 . S
C2491 C2497 1.491 . S
C2492 H2483 0.950 . S
C2492 C2491 1.398 . S
C2492 C2493 1.391 . S
C2493 H2481 0.950 . S
C2493 C2489 1.393 . S
C2493 C2492 1.391 . S
C2494 H2484 0.950 . S
C2494 C2495 1.386 . S
C2494 C2496 1.391 . S
C2495 C2494 1.386 . S
C2495 C2499 1.393 . S
C2496 H2485 0.950 . S
C2496 C2494 1.391 . S
C2496 C2497 1.400 . S
C2497 C2491 1.491 . S
C2497 C2496 1.400 . S
C2497 C2498 1.398 . S
C2498 H2486 0.950 . S
C2498 C2497 1.398 . S
C2498 C2499 1.391 . S
C2499 H2487 0.950 . S
C2499 C2495 1.393 . S
C2499 C2498 1.391 . S
H2500 C2508 0.950 . S
H2501 C2513 0.950 . S
H2502 C2510 0.950 . S
H2503 C2512 0.950 . S
H2504 C2514 0.950 . S
H2505 C2516 0.950 . S
H2506 C2518 0.950 . S
H2507 C2519 0.950 . S
C2508 H2500 0.950 . S
C2508 C2509 1.386 . S
C2508 C2510 1.391 . S
C2509 C2508 1.386 . S
C2509 C2513 1.393 . S
C2510 H2502 0.950 . S
C2510 C2508 1.391 . S
C2510 C2511 1.400 . S
C2511 C2510 1.400 . S
C2511 C2512 1.398 . S
C2511 C2517 1.491 . S
C2512 H2503 0.950 . S
C2512 C2511 1.398 . S
C2512 C2513 1.391 . S
C2513 H2501 0.950 . S
C2513 C2509 1.393 . S
C2513 C2512 1.391 . S
C2514 H2504 0.950 . S
C2514 C2515 1.386 . S
C2514 C2516 1.391 . S
C2515 C2514 1.386 . S
C2515 C2519 1.393 . S
C2516 H2505 0.950 . S
C2516 C2514 1.391 . S
C2516 C2517 1.400 . S
C2517 C2511 1.491 . S
C2517 C2516 1.400 . S
C2517 C2518 1.398 . S
C2518 H2506 0.950 . S
C2518 C2517 1.398 . S
C2518 C2519 1.391 . S
C2519 H2507 0.950 . S
C2519 C2515 1.393 . S
C2519 C2518 1.391 . S
H2520 C2528 0.950 . S
H2521 C2533 0.950 . S
H2522 C2530 0.950 . S
H2523 C2532 0.950 . S
H2524 C2534 0.950 . S
H2525 C2536 0.950 . S
H2526 C2538 0.950 . S
H2527 C2539 0.950 . S
C2528 H2520 0.950 . S
C2528 C2529 1.386 . S
C2528 C2530 1.391 . S
C2529 C2528 1.386 . S
C2529 C2533 1.393 . S
C2530 H2522 0.950 . S
C2530 C2528 1.391 . S
C2530 C2531 1.400 . S
C2531 C2530 1.400 . S
C2531 C2532 1.398 . S
C2531 C2537 1.491 . S
C2532 H2523 0.950 . S
C2532 C2531 1.398 . S
C2532 C2533 1.391 . S
C2533 H2521 0.950 . S
C2533 C2529 1.393 . S
C2533 C2532 1.391 . S
C2534 H2524 0.950 . S
C2534 C2535 1.386 . S
C2534 C2536 1.391 . S
C2535 C2534 1.386 . S
C2535 C2539 1.393 . S
C2536 H2525 0.950 . S
C2536 C2534 1.391 . S
C2536 C2537 1.400 . S
C2537 C2531 1.491 . S
C2537 C2536 1.400 . S
C2537 C2538 1.398 . S
C2538 H2526 0.950 . S
C2538 C2537 1.398 . S
C2538 C2539 1.391 . S
C2539 H2527 0.950 . S
C2539 C2535 1.393 . S
C2539 C2538 1.391 . S
H2540 C2548 0.950 . S
H2541 C2553 0.950 . S
H2542 C2550 0.950 . S
H2543 C2552 0.950 . S
H2544 C2554 0.950 . S
H2545 C2556 0.950 . S
H2546 C2558 0.950 . S
H2547 C2559 0.950 . S
C2548 H2540 0.950 . S
C2548 C2549 1.386 . S
C2548 C2550 1.391 . S
C2549 C2548 1.386 . S
C2549 C2553 1.393 . S
C2550 H2542 0.950 . S
C2550 C2548 1.391 . S
C2550 C2551 1.400 . S
C2551 C2550 1.400 . S
C2551 C2552 1.398 . S
C2551 C2557 1.491 . S
C2552 H2543 0.950 . S
C2552 C2551 1.398 . S
C2552 C2553 1.391 . S
C2553 H2541 0.950 . S
C2553 C2549 1.393 . S
C2553 C2552 1.391 . S
C2554 H2544 0.950 . S
C2554 C2555 1.386 . S
C2554 C2556 1.391 . S
C2555 C2554 1.386 . S
C2555 C2559 1.393 . S
C2556 H2545 0.950 . S
C2556 C2554 1.391 . S
C2556 C2557 1.400 . S
C2557 C2551 1.491 . S
C2557 C2556 1.400 . S
C2557 C2558 1.398 . S
C2558 H2546 0.950 . S
C2558 C2557 1.398 . S
C2558 C2559 1.391 . S
C2559 H2547 0.950 . S
C2559 C2555 1.393 . S
C2559 C2558 1.391 . S
H2560 C2568 0.950 . S
H2561 C2573 0.950 . S
H2562 C2570 0.950 . S
H2563 C2572 0.950 . S
H2564 C2574 0.950 . S
H2565 C2576 0.950 . S
H2566 C2578 0.950 . S
H2567 C2579 0.950 . S
C2568 H2560 0.950 . S
C2568 C2569 1.386 . S
C2568 C2570 1.391 . S
C2569 C2568 1.386 . S
C2569 C2573 1.393 . S
C2570 H2562 0.950 . S
C2570 C2568 1.391 . S
C2570 C2571 1.400 . S
C2571 C2570 1.400 . S
C2571 C2572 1.398 . S
C2571 C2577 1.491 . S
C2572 H2563 0.950 . S
C2572 C2571 1.398 . S
C2572 C2573 1.391 . S
C2573 H2561 0.950 . S
C2573 C2569 1.393 . S
C2573 C2572 1.391 . S
C2574 H2564 0.950 . S
C2574 C2575 1.386 . S
C2574 C2576 1.391 . S
C2575 C2574 1.386 . S
C2575 C2579 1.393 . S
C2576 H2565 0.950 . S
C2576 C2574 1.391 . S
C2576 C2577 1.400 . S
C2577 C2571 1.491 . S
C2577 C2576 1.400 . S
C2577 C2578 1.398 . S
C2578 H2566 0.950 . S
C2578 C2577 1.398 . S
C2578 C2579 1.391 . S
C2579 H2567 0.950 . S
C2579 C2575 1.393 . S
C2579 C2578 1.391 . S
H2580 C2588 0.950 . S
H2581 C2593 0.950 . S
H2582 C2590 0.950 . S
H2583 C2592 0.950 . S
H2584 C2594 0.950 . S
H2585 C2596 0.950 . S
H2586 C2598 0.950 . S
H2587 C2599 0.950 . S
C2588 H2580 0.950 . S
C2588 C2589 1.386 . S
C2588 C2590 1.391 . S
C2589 C2588 1.386 . S
C2589 C2593 1.393 . S
C2590 H2582 0.950 . S
C2590 C2588 1.391 . S
C2590 C2591 1.400 . S
C2591 C2590 1.400 . S
C2591 C2592 1.398 . S
C2591 C2597 1.491 . S
C2592 H2583 0.950 . S
C2592 C2591 1.398 . S
C2592 C2593 1.391 . S
C2593 H2581 0.950 . S
C2593 C2589 1.393 . S
C2593 C2592 1.391 . S
C2594 H2584 0.950 . S
C2594 C2595 1.386 . S
C2594 C2596 1.391 . S
C2595 C2594 1.386 . S
C2595 C2599 1.393 . S
C2596 H2585 0.950 . S
C2596 C2594 1.391 . S
C2596 C2597 1.400 . S
C2597 C2591 1.491 . S
C2597 C2596 1.400 . S
C2597 C2598 1.398 . S
C2598 H2586 0.950 . S
C2598 C2597 1.398 . S
C2598 C2599 1.391 . S
C2599 H2587 0.950 . S
C2599 C2595 1.393 . S
C2599 C2598 1.391 . S
H2600 C2608 0.950 . S
H2601 C2613 0.950 . S
H2602 C2610 0.950 . S
H2603 C2612 0.950 . S
H2604 C2614 0.950 . S
H2605 C2616 0.950 . S
H2606 C2618 0.950 . S
H2607 C2619 0.950 . S
C2608 H2600 0.950 . S
C2608 C2609 1.386 . S
C2608 C2610 1.391 . S
C2609 C2608 1.386 . S
C2609 C2613 1.393 . S
C2610 H2602 0.950 . S
C2610 C2608 1.391 . S
C2610 C2611 1.400 . S
C2611 C2610 1.400 . S
C2611 C2612 1.398 . S
C2611 C2617 1.491 . S
C2612 H2603 0.950 . S
C2612 C2611 1.398 . S
C2612 C2613 1.391 . S
C2613 H2601 0.950 . S
C2613 C2609 1.393 . S
C2613 C2612 1.391 . S
C2614 H2604 0.950 . S
C2614 C2615 1.386 . S
C2614 C2616 1.391 . S
C2615 C2614 1.386 . S
C2615 C2619 1.393 . S
C2616 H2605 0.950 . S
C2616 C2614 1.391 . S
C2616 C2617 1.400 . S
C2617 C2611 1.491 . S
C2617 C2616 1.400 . S
C2617 C2618 1.398 . S
C2618 H2606 0.950 . S
C2618 C2617 1.398 . S
C2618 C2619 1.391 . S
C2619 H2607 0.950 . S
C2619 C2615 1.393 . S
C2619 C2618 1.391 . S
H2620 C2628 0.950 . S
H2621 C2633 0.950 . S
H2622 C2630 0.950 . S
H2623 C2632 0.950 . S
H2624 C2634 0.950 . S
H2625 C2636 0.950 . S
H2626 C2638 0.950 . S
H2627 C2639 0.950 . S
C2628 H2620 0.950 . S
C2628 C2629 1.386 . S
C2628 C2630 1.391 . S
C2629 C2628 1.386 . S
C2629 C2633 1.393 . S
C2630 H2622 0.950 . S
C2630 C2628 1.391 . S
C2630 C2631 1.400 . S
C2631 C2630 1.400 . S
C2631 C2632 1.398 . S
C2631 C2637 1.491 . S
C2632 H2623 0.950 . S
C2632 C2631 1.398 . S
C2632 C2633 1.391 . S
C2633 H2621 0.950 . S
C2633 C2629 1.393 . S
C2633 C2632 1.391 . S
C2634 H2624 0.950 . S
C2634 C2635 1.386 . S
C2634 C2636 1.391 . S
C2635 C2634 1.386 . S
C2635 C2639 1.393 . S
C2636 H2625 0.950 . S
C2636 C2634 1.391 . S
C2636 C2637 1.400 . S
C2637 C2631 1.491 . S
C2637 C2636 1.400 . S
C2637 C2638 1.398 . S
C2638 H2626 0.950 . S
C2638 C2637 1.398 . S
C2638 C2639 1.391 . S
C2639 H2627 0.950 . S
C2639 C2635 1.393 . S
C2639 C2638 1.391 . S
H2640 C2648 0.950 . S
H2641 C2653 0.950 . S
H2642 C2650 0.950 . S
H2643 C2652 0.950 . S
H2644 C2654 0.950 . S
H2645 C2656 0.950 . S
H2646 C2658 0.950 . S
H2647 C2659 0.950 . S
C2648 H2640 0.950 . S
C2648 C2649 1.386 . S
C2648 C2650 1.391 . S
C2649 C2648 1.386 . S
C2649 C2653 1.393 . S
C2650 H2642 0.950 . S
C2650 C2648 1.391 . S
C2650 C2651 1.400 . S
C2651 C2650 1.400 . S
C2651 C2652 1.398 . S
C2651 C2657 1.491 . S
C2652 H2643 0.950 . S
C2652 C2651 1.398 . S
C2652 C2653 1.391 . S
C2653 H2641 0.950 . S
C2653 C2649 1.393 . S
C2653 C2652 1.391 . S
C2654 H2644 0.950 . S
C2654 C2655 1.386 . S
C2654 C2656 1.391 . S
C2655 C2654 1.386 . S
C2655 C2659 1.393 . S
C2656 H2645 0.950 . S
C2656 C2654 1.391 . S
C2656 C2657 1.400 . S
C2657 C2651 1.491 . S
C2657 C2656 1.400 . S
C2657 C2658 1.398 . S
C2658 H2646 0.950 . S
C2658 C2657 1.398 . S
C2658 C2659 1.391 . S
C2659 H2647 0.950 . S
C2659 C2655 1.393 . S
C2659 C2658 1.391 . S
H2660 C2668 0.950 . S
H2661 C2673 0.950 . S
H2662 C2670 0.950 . S
H2663 C2672 0.950 . S
H2664 C2674 0.950 . S
H2665 C2676 0.950 . S
H2666 C2678 0.950 . S
H2667 C2679 0.950 . S
C2668 H2660 0.950 . S
C2668 C2669 1.386 . S
C2668 C2670 1.391 . S
C2669 C2668 1.386 . S
C2669 C2673 1.393 . S
C2670 H2662 0.950 . S
C2670 C2668 1.391 . S
C2670 C2671 1.400 . S
C2671 C2670 1.400 . S
C2671 C2672 1.398 . S
C2671 C2677 1.491 . S
C2672 H2663 0.950 . S
C2672 C2671 1.398 . S
C2672 C2673 1.391 . S
C2673 H2661 0.950 . S
C2673 C2669 1.393 . S
C2673 C2672 1.391 . S
C2674 H2664 0.950 . S
C2674 C2675 1.386 . S
C2674 C2676 1.391 . S
C2675 C2674 1.386 . S
C2675 C2679 1.393 . S
C2676 H2665 0.950 . S
C2676 C2674 1.391 . S
C2676 C2677 1.400 . S
C2677 C2671 1.491 . S
C2677 C2676 1.400 . S
C2677 C2678 1.398 . S
C2678 H2666 0.950 . S
C2678 C2677 1.398 . S
C2678 C2679 1.391 . S
C2679 H2667 0.950 . S
C2679 C2675 1.393 . S
C2679 C2678 1.391 . S
H2680 C2688 0.950 . S
H2681 C2693 0.950 . S
H2682 C2690 0.950 . S
H2683 C2692 0.950 . S
H2684 C2694 0.950 . S
H2685 C2696 0.950 . S
H2686 C2698 0.950 . S
H2687 C2699 0.950 . S
C2688 H2680 0.950 . S
C2688 C2689 1.386 . S
C2688 C2690 1.391 . S
C2689 C2688 1.386 . S
C2689 C2693 1.393 . S
C2690 H2682 0.950 . S
C2690 C2688 1.391 . S
C2690 C2691 1.400 . S
C2691 C2690 1.400 . S
C2691 C2692 1.398 . S
C2691 C2697 1.491 . S
C2692 H2683 0.950 . S
C2692 C2691 1.398 . S
C2692 C2693 1.391 . S
C2693 H2681 0.950 . S
C2693 C2689 1.393 . S
C2693 C2692 1.391 . S
C2694 H2684 0.950 . S
C2694 C2695 1.386 . S
C2694 C2696 1.391 . S
C2695 C2694 1.386 . S
C2695 C2699 1.393 . S
C2696 H2685 0.950 . S
C2696 C2694 1.391 . S
C2696 C2697 1.400 . S
C2697 C2691 1.491 . S
C2697 C2696 1.400 . S
C2697 C2698 1.398 . S
C2698 H2686 0.950 . S
C2698 C2697 1.398 . S
C2698 C2699 1.391 . S
C2699 H2687 0.950 . S
C2699 C2695 1.393 . S
C2699 C2698 1.391 . S
H2700 C2708 0.950 . S
H2701 C2713 0.950 . S
H2702 C2710 0.950 . S
H2703 C2712 0.950 . S
H2704 C2714 0.950 . S
H2705 C2716 0.940 1_545 S
H2706 C2718 0.950 . S
H2707 C2719 0.950 . S
C2708 H2700 0.950 . S
C2708 C2709 1.386 . S
C2708 C2710 1.391 . S
C2709 C2708 1.386 . S
C2709 C2713 1.393 . S
C2710 H2702 0.950 . S
C2710 C2708 1.391 . S
C2710 C2711 1.400 . S
C2711 C2710 1.400 . S
C2711 C2712 1.398 . S
C2711 C2717 1.491 . S
C2712 H2703 0.950 . S
C2712 C2711 1.398 . S
C2712 C2713 1.391 . S
C2713 H2701 0.950 . S
C2713 C2709 1.393 . S
C2713 C2712 1.391 . S
C2714 H2704 0.950 . S
C2714 C2715 1.386 . S
C2714 C2716 1.375 1_545 S
C2715 C2714 1.386 . S
C2715 C2719 1.393 1_545 S
C2716 H2705 0.940 1_565 S
C2716 C2714 1.375 1_565 S
C2716 C2717 1.426 . S
C2717 C2711 1.491 . S
C2717 C2716 1.426 . S
C2717 C2718 1.398 . S
C2718 H2706 0.950 . S
C2718 C2717 1.398 . S
C2718 C2719 1.391 . S
C2719 H2707 0.950 . S
C2719 C2715 1.393 1_565 S
C2719 C2718 1.391 . S
H2720 C2728 0.950 . S
H2721 C2733 0.950 . S
H2722 C2730 0.950 . S
H2723 C2732 0.950 . S
H2724 C2734 0.950 . S
H2725 C2736 0.950 . S
H2726 C2738 0.950 . S
H2727 C2739 0.950 . S
C2728 H2720 0.950 . S
C2728 C2729 1.386 . S
C2728 C2730 1.391 . S
C2729 C2728 1.386 . S
C2729 C2733 1.393 . S
C2730 H2722 0.950 . S
C2730 C2728 1.391 . S
C2730 C2731 1.400 . S
C2731 C2730 1.400 . S
C2731 C2732 1.398 . S
C2731 C2737 1.491 . S
C2732 H2723 0.950 . S
C2732 C2731 1.398 . S
C2732 C2733 1.391 . S
C2733 H2721 0.950 . S
C2733 C2729 1.393 . S
C2733 C2732 1.391 . S
C2734 H2724 0.950 . S
C2734 C2735 1.386 . S
C2734 C2736 1.391 . S
C2735 C2734 1.386 . S
C2735 C2739 1.393 . S
C2736 H2725 0.950 . S
C2736 C2734 1.391 . S
C2736 C2737 1.400 . S
C2737 C2731 1.491 . S
C2737 C2736 1.400 . S
C2737 C2738 1.398 . S
C2738 H2726 0.950 . S
C2738 C2737 1.398 . S
C2738 C2739 1.391 . S
C2739 H2727 0.950 . S
C2739 C2735 1.393 . S
C2739 C2738 1.391 . S
H2740 C2748 0.950 . S
H2741 C2753 0.950 . S
H2742 C2750 0.950 . S
H2743 C2752 0.947 1_556 S
H2744 C2754 0.950 . S
H2745 C2756 0.954 1_556 S
H2746 C2758 0.950 . S
H2747 C2759 0.950 . S
C2748 H2740 0.950 . S
C2748 C2749 1.386 . S
C2748 C2750 1.391 . S
C2749 C2748 1.386 . S
C2749 C2753 1.393 1_554 S
C2750 H2742 0.950 . S
C2750 C2748 1.391 . S
C2750 C2751 1.400 . S
C2751 C2750 1.400 . S
C2751 C2752 1.404 . S
C2751 C2757 1.491 . S
C2752 H2743 0.947 1_554 S
C2752 C2751 1.404 . S
C2752 C2753 1.388 1_554 S
C2753 H2741 0.950 . S
C2753 C2749 1.393 1_556 S
C2753 C2752 1.388 1_556 S
C2754 H2744 0.950 . S
C2754 C2755 1.386 . S
C2754 C2756 1.391 . S
C2755 C2754 1.386 . S
C2755 C2759 1.393 . S
C2756 H2745 0.954 1_554 S
C2756 C2754 1.391 . S
C2756 C2757 1.400 . S
C2757 C2751 1.491 . S
C2757 C2756 1.400 . S
C2757 C2758 1.398 . S
C2758 H2746 0.950 . S
C2758 C2757 1.398 . S
C2758 C2759 1.391 . S
C2759 H2747 0.950 . S
C2759 C2755 1.393 . S
C2759 C2758 1.391 . S
H2760 C2768 0.950 . S
H2761 C2773 0.950 . S
H2762 C2770 0.950 . S
H2763 C2772 0.950 . S
H2764 C2774 0.950 . S
H2765 C2776 0.950 . S
H2766 C2778 0.950 . S
H2767 C2779 0.950 . S
C2768 H2760 0.950 . S
C2768 C2769 1.386 . S
C2768 C2770 1.391 . S
C2769 C2768 1.386 . S
C2769 C2773 1.393 . S
C2770 H2762 0.950 . S
C2770 C2768 1.391 . S
C2770 C2771 1.400 . S
C2771 C2770 1.400 . S
C2771 C2772 1.398 . S
C2771 C2777 1.491 . S
C2772 H2763 0.950 . S
C2772 C2771 1.398 . S
C2772 C2773 1.391 . S
C2773 H2761 0.950 . S
C2773 C2769 1.393 . S
C2773 C2772 1.391 . S
C2774 H2764 0.950 . S
C2774 C2775 1.386 . S
C2774 C2776 1.391 . S
C2775 C2774 1.386 . S
C2775 C2779 1.393 . S
C2776 H2765 0.950 . S
C2776 C2774 1.391 . S
C2776 C2777 1.400 . S
C2777 C2771 1.491 . S
C2777 C2776 1.400 . S
C2777 C2778 1.398 . S
C2778 H2766 0.950 . S
C2778 C2777 1.398 . S
C2778 C2779 1.391 . S
C2779 H2767 0.950 . S
C2779 C2775 1.393 . S
C2779 C2778 1.391 . S
H2780 C2788 0.950 . S
H2781 C2793 0.950 . S
H2782 C2790 0.950 . S
H2783 C2792 0.950 . S
H2784 C2794 0.950 . S
H2785 C2796 0.950 . S
H2786 C2798 0.950 . S
H2787 C2799 0.950 . S
C2788 H2780 0.950 . S
C2788 C2789 1.386 . S
C2788 C2790 1.391 . S
C2789 C2788 1.386 . S
C2789 C2793 1.393 . S
C2790 H2782 0.950 . S
C2790 C2788 1.391 . S
C2790 C2791 1.400 . S
C2791 C2790 1.400 . S
C2791 C2792 1.398 . S
C2791 C2797 1.491 . S
C2792 H2783 0.950 . S
C2792 C2791 1.398 . S
C2792 C2793 1.391 . S
C2793 H2781 0.950 . S
C2793 C2789 1.393 . S
C2793 C2792 1.391 . S
C2794 H2784 0.950 . S
C2794 C2795 1.386 . S
C2794 C2796 1.391 . S
C2795 C2794 1.386 . S
C2795 C2799 1.393 . S
C2796 H2785 0.950 . S
C2796 C2794 1.391 . S
C2796 C2797 1.400 . S
C2797 C2791 1.491 . S
C2797 C2796 1.400 . S
C2797 C2798 1.398 . S
C2798 H2786 0.950 . S
C2798 C2797 1.398 . S
C2798 C2799 1.391 . S
C2799 H2787 0.950 . S
C2799 C2795 1.393 . S
C2799 C2798 1.391 . S
C895 C353 1.193 . S
C889 C8 1.188 . S
C909 C22 2.206 . S
C915 C399 2.196 . S
C929 C35 0.741 . S
C935 C408 0.732 . S
C955 C446 1.657 . S
C949 C49 1.639 . S
C969 C23 2.015 . S
C975 C480 1.983 . S
C995 C510 0.676 . S
C989 C34 0.697 . S
C1015 C569 1.522 . S
C1009 C48 1.474 . S
C1029 C9 1.135 . S
C1035 C582 1.144 . S
C1049 C64 1.479 . S
C1055 C365 1.467 . S
C1069 C77 1.085 . S
C1075 C383 1.107 . S
C1095 C404 1.939 . S
C1089 C92 1.951 . S
C1115 C442 0.850 . S
C1109 C105 0.846 . S
C1129 C63 1.237 . S
C1135 C476 1.251 . S
C1155 C506 1.873 . S
C1149 C78 1.877 . S
C1175 C553 1.266 . S
C1169 C91 1.245 . S
C1195 C578 0.759 . S
C1189 C106 0.755 . S
C1215 C349 0.830 . S
C1209 C107 0.814 . S
C1235 C608 1.535 . S
C1229 C118 1.522 . S
C1249 C135 1.672 . S
C1255 C650 1.697 . S
C1275 C693 0.669 . S
C1269 C146 0.620 . S
C1289 C65 1.449 . S
C1295 C574 1.446 . S
C1315 C412 1.683 1_565 S
C1309 C79 1.669 . S
C1329 C132 1.375 . S
C1335 C710 1.396 . S
C1355 C761 1.511 . S
C1349 C160 1.490 . S
C1369 C177 1.216 . S
C1375 C344 1.197 . S
C1395 C744 1.694 . S
C1389 C188 1.682 . S
C1409 C204 1.096 . S
C1415 C417 1.104 . S
C1429 C219 1.692 . S
C1435 C727 1.678 . S
C1455 C489 1.701 . S
C1449 C190 1.729 . S
C1475 C655 0.751 . S
C1469 C202 0.728 . S
C1495 C540 1.505 . S
C1489 C217 1.483 . S
C1515 C795 0.964 . S
C1509 C175 0.957 . S
C1535 C336 1.370 . S
C1529 C231 1.341 1_545 S
C1549 C246 1.321 . S
C1555 C748 1.310 . S
C1575 C433 1.571 . S
C1569 C259 1.551 . S
C1589 C274 0.874 . S
C1595 C723 0.869 . S
C1609 C232 1.366 . S
C1615 C485 1.359 . S
C1629 C245 1.496 . S
C1635 C671 1.518 . S
C1655 C544 1.219 . S
C1649 C260 1.253 . S
C1669 C273 0.613 . S
C1675 C791 0.595 . S
C1689 C275 0.808 . S
C1695 C340 0.821 . S
C1709 C286 1.525 . S
C1715 C637 1.545 . S
C1729 C303 1.455 . S
C1735 C523 1.446 . S
C1749 C314 0.477 . S
C1755 C684 0.385 . S
C1775 C807 1.415 . S
C1769 C233 1.465 . S
C1795 C421 1.517 . S
C1789 C247 1.539 . S
C1815 C467 1.273 . S
C1809 C300 1.252 . S
C1835 C378 1.501 . S
C1829 C328 1.482 . S
C1849 C36 1.124 . S
C1855 C829 1.126 . S
C1875 C773 2.207 . S
C1869 C50 2.211 . S
C1895 C850 0.764 . S
C1889 C7 0.743 . S
C1909 C21 1.629 . S
C1915 C718 1.649 . S
C1929 C51 2.021 . S
C1935 C616 1.999 . S
C1955 C646 0.713 . S
C1949 C6 0.682 1_655 S
C1975 C705 1.526 . S
C1969 C20 1.483 . S
C1995 C786 1.091 . S
C1989 C37 1.075 . S
C2015 C841 1.400 . S
C2009 C162 1.411 . S
C2029 C119 1.055 1_556 S
C2035 C757 1.090 . S
C2049 C134 1.889 . S
C2055 C846 1.868 . S
C2075 C714 0.868 . S
C2069 C147 0.841 . S
C2095 C612 1.227 . S
C2089 C161 1.223 . S
C2109 C120 1.812 . S
C2115 C642 1.785 . S
C2135 C689 1.238 1_655 S
C2129 C133 1.224 . S
C2149 C148 0.709 . S
C2155 C782 0.724 . S
C2175 C825 0.805 . S
C2169 C149 0.786 . S
C2195 C472 1.450 1_565 S
C2189 C76 1.449 . S
C2215 C514 1.654 . S
C2209 C93 1.638 . S
C2229 C104 0.573 . S
C2235 C557 0.574 . S
C2255 C778 1.530 . S
C2249 C163 1.515 . S
C2269 C121 1.708 . S
C2275 C854 1.743 . S
C2295 C438 1.339 . S
C2289 C90 1.306 . S
C2315 C387 1.455 . S
C2309 C62 1.423 . S
C2329 C203 0.938 . S
C2335 C820 0.985 . S
C2355 C370 1.755 . S
C2349 C216 1.739 . S
C2375 C859 0.853 . S
C2369 C174 0.862 . S
C2389 C191 1.744 . S
C2395 C455 1.722 . S
C2409 C218 1.673 . S
C2415 C625 1.643 . S
C2429 C176 0.975 . S
C2435 C519 0.987 . S
C2449 C189 1.406 . S
C2455 C676 1.433 . S
C2469 C205 1.143 . S
C2475 C591 1.104 . S
C2495 C812 1.344 . S
C2489 C329 1.328 . S
C2509 C288 1.263 . S
C2515 C374 1.236 . S
C2535 C875 1.519 . S
C2529 C301 1.496 . S
C2549 C316 0.813 . S
C2555 C451 0.793 . S
C2569 C330 1.441 . S
C2575 C621 1.415 . S
C2595 C535 1.549 . S
C2589 C287 1.531 . S
C2609 C302 1.305 . S
C2615 C680 1.280 . S
C2635 C587 0.622 . S
C2629 C315 0.667 . S
C2655 C816 0.790 . S
C2649 C317 0.797 . S
C2675 C501 1.536 . S
C2669 C244 1.522 . S
C2689 C261 1.383 . S
C2695 C659 1.345 . S
C2715 C548 0.404 . S
C2709 C272 0.407 . S
C2735 C603 1.518 . S
C2729 C331 1.540 . S
C2749 C289 1.452 . S
C2755 C863 1.425 . S
C2775 C739 1.314 . S
C2769 C258 1.285 . S
C2795 C752 1.521 . S
C2789 C230 1.467 . S
