# Generated by pormake.
# Topology gar, (4,6)-cn, num edge types: 1
# Building blocks:
#     Node 0, Type 0, BuildingBlock: CEKHIL_clean_sbu_0, # of connection points: 4
#     Node 1, Type 0, BuildingBlock: CEKHIL_clean_sbu_0, # of connection points: 4
#     Node 2, Type 0, BuildingBlock: CEKHIL_clean_sbu_0, # of connection points: 4
#     Node 3, Type 0, BuildingBlock: CEKHIL_clean_sbu_0, # of connection points: 4
#     Node 4, Type 0, BuildingBlock: CEKHIL_clean_sbu_0, # of connection points: 4
#     Node 5, Type 0, BuildingBlock: CEKHIL_clean_sbu_0, # of connection points: 4
#     Node 6, Type 0, BuildingBlock: CEKHIL_clean_sbu_0, # of connection points: 4
#     Node 7, Type 0, BuildingBlock: CEKHIL_clean_sbu_0, # of connection points: 4
#     Node 8, Type 0, BuildingBlock: CEKHIL_clean_sbu_0, # of connection points: 4
#     Node 9, Type 0, BuildingBlock: CEKHIL_clean_sbu_0, # of connection points: 4
#     Node 10, Type 0, BuildingBlock: CEKHIL_clean_sbu_0, # of connection points: 4
#     Node 11, Type 0, BuildingBlock: CEKHIL_clean_sbu_0, # of connection points: 4
#     Node 12, Type 0, BuildingBlock: CEKHIL_clean_sbu_0, # of connection points: 4
#     Node 13, Type 0, BuildingBlock: CEKHIL_clean_sbu_0, # of connection points: 4
#     Node 14, Type 0, BuildingBlock: CEKHIL_clean_sbu_0, # of connection points: 4
#     Node 15, Type 0, BuildingBlock: CEKHIL_clean_sbu_0, # of connection points: 4
#     Node 16, Type 0, BuildingBlock: CEKHIL_clean_sbu_0, # of connection points: 4
#     Node 17, Type 0, BuildingBlock: CEKHIL_clean_sbu_0, # of connection points: 4
#     Node 18, Type 0, BuildingBlock: CEKHIL_clean_sbu_0, # of connection points: 4
#     Node 19, Type 0, BuildingBlock: CEKHIL_clean_sbu_0, # of connection points: 4
#     Node 20, Type 0, BuildingBlock: CEKHIL_clean_sbu_0, # of connection points: 4
#     Node 21, Type 0, BuildingBlock: CEKHIL_clean_sbu_0, # of connection points: 4
#     Node 22, Type 0, BuildingBlock: CEKHIL_clean_sbu_0, # of connection points: 4
#     Node 23, Type 0, BuildingBlock: CEKHIL_clean_sbu_0, # of connection points: 4
#     Node 24, Type 1, BuildingBlock: KUMBOL_clean_sbu_1, # of connection points: 6
#     Node 25, Type 1, BuildingBlock: KUMBOL_clean_sbu_1, # of connection points: 6
#     Node 26, Type 1, BuildingBlock: KUMBOL_clean_sbu_1, # of connection points: 6
#     Node 27, Type 1, BuildingBlock: KUMBOL_clean_sbu_1, # of connection points: 6
#     Node 28, Type 1, BuildingBlock: KUMBOL_clean_sbu_1, # of connection points: 6
#     Node 29, Type 1, BuildingBlock: KUMBOL_clean_sbu_1, # of connection points: 6
#     Node 30, Type 1, BuildingBlock: KUMBOL_clean_sbu_1, # of connection points: 6
#     Node 31, Type 1, BuildingBlock: KUMBOL_clean_sbu_1, # of connection points: 6
#     Node 32, Type 1, BuildingBlock: KUMBOL_clean_sbu_1, # of connection points: 6
#     Node 33, Type 1, BuildingBlock: KUMBOL_clean_sbu_1, # of connection points: 6
#     Node 34, Type 1, BuildingBlock: KUMBOL_clean_sbu_1, # of connection points: 6
#     Node 35, Type 1, BuildingBlock: KUMBOL_clean_sbu_1, # of connection points: 6
#     Node 36, Type 1, BuildingBlock: KUMBOL_clean_sbu_1, # of connection points: 6
#     Node 37, Type 1, BuildingBlock: KUMBOL_clean_sbu_1, # of connection points: 6
#     Node 38, Type 1, BuildingBlock: KUMBOL_clean_sbu_1, # of connection points: 6
#     Node 39, Type 1, BuildingBlock: KUMBOL_clean_sbu_1, # of connection points: 6
#     Edge 40, Type (0, 1), BuildingBlock: TEMPAE_clean_linker_10, # of connection points: 2
#     Edge 41, Type (0, 1), BuildingBlock: TEMPAE_clean_linker_10, # of connection points: 2
#     Edge 42, Type (0, 1), BuildingBlock: TEMPAE_clean_linker_10, # of connection points: 2
#     Edge 43, Type (0, 1), BuildingBlock: TEMPAE_clean_linker_10, # of connection points: 2
#     Edge 44, Type (0, 1), BuildingBlock: TEMPAE_clean_linker_10, # of connection points: 2
#     Edge 45, Type (0, 1), BuildingBlock: TEMPAE_clean_linker_10, # of connection points: 2
#     Edge 46, Type (0, 1), BuildingBlock: TEMPAE_clean_linker_10, # of connection points: 2
#     Edge 47, Type (0, 1), BuildingBlock: TEMPAE_clean_linker_10, # of connection points: 2
#     Edge 48, Type (0, 1), BuildingBlock: TEMPAE_clean_linker_10, # of connection points: 2
#     Edge 49, Type (0, 1), BuildingBlock: TEMPAE_clean_linker_10, # of connection points: 2
#     Edge 50, Type (0, 1), BuildingBlock: TEMPAE_clean_linker_10, # of connection points: 2
#     Edge 51, Type (0, 1), BuildingBlock: TEMPAE_clean_linker_10, # of connection points: 2
#     Edge 52, Type (0, 1), BuildingBlock: TEMPAE_clean_linker_10, # of connection points: 2
#     Edge 53, Type (0, 1), BuildingBlock: TEMPAE_clean_linker_10, # of connection points: 2
#     Edge 54, Type (0, 1), BuildingBlock: TEMPAE_clean_linker_10, # of connection points: 2
#     Edge 55, Type (0, 1), BuildingBlock: TEMPAE_clean_linker_10, # of connection points: 2
#     Edge 56, Type (0, 1), BuildingBlock: TEMPAE_clean_linker_10, # of connection points: 2
#     Edge 57, Type (0, 1), BuildingBlock: TEMPAE_clean_linker_10, # of connection points: 2
#     Edge 58, Type (0, 1), BuildingBlock: TEMPAE_clean_linker_10, # of connection points: 2
#     Edge 59, Type (0, 1), BuildingBlock: TEMPAE_clean_linker_10, # of connection points: 2
#     Edge 60, Type (0, 1), BuildingBlock: TEMPAE_clean_linker_10, # of connection points: 2
#     Edge 61, Type (0, 1), BuildingBlock: TEMPAE_clean_linker_10, # of connection points: 2
#     Edge 62, Type (0, 1), BuildingBlock: TEMPAE_clean_linker_10, # of connection points: 2
#     Edge 63, Type (0, 1), BuildingBlock: TEMPAE_clean_linker_10, # of connection points: 2
#     Edge 64, Type (0, 1), BuildingBlock: TEMPAE_clean_linker_10, # of connection points: 2
#     Edge 65, Type (0, 1), BuildingBlock: TEMPAE_clean_linker_10, # of connection points: 2
#     Edge 66, Type (0, 1), BuildingBlock: TEMPAE_clean_linker_10, # of connection points: 2
#     Edge 67, Type (0, 1), BuildingBlock: TEMPAE_clean_linker_10, # of connection points: 2
#     Edge 68, Type (0, 1), BuildingBlock: TEMPAE_clean_linker_10, # of connection points: 2
#     Edge 69, Type (0, 1), BuildingBlock: TEMPAE_clean_linker_10, # of connection points: 2
#     Edge 70, Type (0, 1), BuildingBlock: TEMPAE_clean_linker_10, # of connection points: 2
#     Edge 71, Type (0, 1), BuildingBlock: TEMPAE_clean_linker_10, # of connection points: 2
#     Edge 72, Type (0, 1), BuildingBlock: TEMPAE_clean_linker_10, # of connection points: 2
#     Edge 73, Type (0, 1), BuildingBlock: TEMPAE_clean_linker_10, # of connection points: 2
#     Edge 74, Type (0, 1), BuildingBlock: TEMPAE_clean_linker_10, # of connection points: 2
#     Edge 75, Type (0, 1), BuildingBlock: TEMPAE_clean_linker_10, # of connection points: 2
#     Edge 76, Type (0, 1), BuildingBlock: TEMPAE_clean_linker_10, # of connection points: 2
#     Edge 77, Type (0, 1), BuildingBlock: TEMPAE_clean_linker_10, # of connection points: 2
#     Edge 78, Type (0, 1), BuildingBlock: TEMPAE_clean_linker_10, # of connection points: 2
#     Edge 79, Type (0, 1), BuildingBlock: TEMPAE_clean_linker_10, # of connection points: 2
#     Edge 80, Type (0, 1), BuildingBlock: TEMPAE_clean_linker_10, # of connection points: 2
#     Edge 81, Type (0, 1), BuildingBlock: TEMPAE_clean_linker_10, # of connection points: 2
#     Edge 82, Type (0, 1), BuildingBlock: TEMPAE_clean_linker_10, # of connection points: 2
#     Edge 83, Type (0, 1), BuildingBlock: TEMPAE_clean_linker_10, # of connection points: 2
#     Edge 84, Type (0, 1), BuildingBlock: TEMPAE_clean_linker_10, # of connection points: 2
#     Edge 85, Type (0, 1), BuildingBlock: TEMPAE_clean_linker_10, # of connection points: 2
#     Edge 86, Type (0, 1), BuildingBlock: TEMPAE_clean_linker_10, # of connection points: 2
#     Edge 87, Type (0, 1), BuildingBlock: TEMPAE_clean_linker_10, # of connection points: 2
#     Edge 88, Type (0, 1), BuildingBlock: TEMPAE_clean_linker_10, # of connection points: 2
#     Edge 89, Type (0, 1), BuildingBlock: TEMPAE_clean_linker_10, # of connection points: 2
#     Edge 90, Type (0, 1), BuildingBlock: TEMPAE_clean_linker_10, # of connection points: 2
#     Edge 91, Type (0, 1), BuildingBlock: TEMPAE_clean_linker_10, # of connection points: 2
#     Edge 92, Type (0, 1), BuildingBlock: TEMPAE_clean_linker_10, # of connection points: 2
#     Edge 93, Type (0, 1), BuildingBlock: TEMPAE_clean_linker_10, # of connection points: 2
#     Edge 94, Type (0, 1), BuildingBlock: TEMPAE_clean_linker_10, # of connection points: 2
#     Edge 95, Type (0, 1), BuildingBlock: TEMPAE_clean_linker_10, # of connection points: 2
#     Edge 96, Type (0, 1), BuildingBlock: TEMPAE_clean_linker_10, # of connection points: 2
#     Edge 97, Type (0, 1), BuildingBlock: TEMPAE_clean_linker_10, # of connection points: 2
#     Edge 98, Type (0, 1), BuildingBlock: TEMPAE_clean_linker_10, # of connection points: 2
#     Edge 99, Type (0, 1), BuildingBlock: TEMPAE_clean_linker_10, # of connection points: 2
#     Edge 100, Type (0, 1), BuildingBlock: TEMPAE_clean_linker_10, # of connection points: 2
#     Edge 101, Type (0, 1), BuildingBlock: TEMPAE_clean_linker_10, # of connection points: 2
#     Edge 102, Type (0, 1), BuildingBlock: TEMPAE_clean_linker_10, # of connection points: 2
#     Edge 103, Type (0, 1), BuildingBlock: TEMPAE_clean_linker_10, # of connection points: 2
#     Edge 104, Type (0, 1), BuildingBlock: TEMPAE_clean_linker_10, # of connection points: 2
#     Edge 105, Type (0, 1), BuildingBlock: TEMPAE_clean_linker_10, # of connection points: 2
#     Edge 106, Type (0, 1), BuildingBlock: TEMPAE_clean_linker_10, # of connection points: 2
#     Edge 107, Type (0, 1), BuildingBlock: TEMPAE_clean_linker_10, # of connection points: 2
#     Edge 108, Type (0, 1), BuildingBlock: TEMPAE_clean_linker_10, # of connection points: 2
#     Edge 109, Type (0, 1), BuildingBlock: TEMPAE_clean_linker_10, # of connection points: 2
#     Edge 110, Type (0, 1), BuildingBlock: TEMPAE_clean_linker_10, # of connection points: 2
#     Edge 111, Type (0, 1), BuildingBlock: TEMPAE_clean_linker_10, # of connection points: 2
#     Edge 112, Type (0, 1), BuildingBlock: TEMPAE_clean_linker_10, # of connection points: 2
#     Edge 113, Type (0, 1), BuildingBlock: TEMPAE_clean_linker_10, # of connection points: 2
#     Edge 114, Type (0, 1), BuildingBlock: TEMPAE_clean_linker_10, # of connection points: 2
#     Edge 115, Type (0, 1), BuildingBlock: TEMPAE_clean_linker_10, # of connection points: 2
#     Edge 116, Type (0, 1), BuildingBlock: TEMPAE_clean_linker_10, # of connection points: 2
#     Edge 117, Type (0, 1), BuildingBlock: TEMPAE_clean_linker_10, # of connection points: 2
#     Edge 118, Type (0, 1), BuildingBlock: TEMPAE_clean_linker_10, # of connection points: 2
#     Edge 119, Type (0, 1), BuildingBlock: TEMPAE_clean_linker_10, # of connection points: 2
#     Edge 120, Type (0, 1), BuildingBlock: TEMPAE_clean_linker_10, # of connection points: 2
#     Edge 121, Type (0, 1), BuildingBlock: TEMPAE_clean_linker_10, # of connection points: 2
#     Edge 122, Type (0, 1), BuildingBlock: TEMPAE_clean_linker_10, # of connection points: 2
#     Edge 123, Type (0, 1), BuildingBlock: TEMPAE_clean_linker_10, # of connection points: 2
#     Edge 124, Type (0, 1), BuildingBlock: TEMPAE_clean_linker_10, # of connection points: 2
#     Edge 125, Type (0, 1), BuildingBlock: TEMPAE_clean_linker_10, # of connection points: 2
#     Edge 126, Type (0, 1), BuildingBlock: TEMPAE_clean_linker_10, # of connection points: 2
#     Edge 127, Type (0, 1), BuildingBlock: TEMPAE_clean_linker_10, # of connection points: 2
#     Edge 128, Type (0, 1), BuildingBlock: TEMPAE_clean_linker_10, # of connection points: 2
#     Edge 129, Type (0, 1), BuildingBlock: TEMPAE_clean_linker_10, # of connection points: 2
#     Edge 130, Type (0, 1), BuildingBlock: TEMPAE_clean_linker_10, # of connection points: 2
#     Edge 131, Type (0, 1), BuildingBlock: TEMPAE_clean_linker_10, # of connection points: 2
#     Edge 132, Type (0, 1), BuildingBlock: TEMPAE_clean_linker_10, # of connection points: 2
#     Edge 133, Type (0, 1), BuildingBlock: TEMPAE_clean_linker_10, # of connection points: 2
#     Edge 134, Type (0, 1), BuildingBlock: TEMPAE_clean_linker_10, # of connection points: 2
#     Edge 135, Type (0, 1), BuildingBlock: TEMPAE_clean_linker_10, # of connection points: 2
# Relax obj value: 0.067
# Max RMSD: 0.180
# Mean RMSD: 0.110
data_MOF--net-gar--node1-CEKHIL_clean_sbu_0--node2-KUMBOL_clean_sbu_1--edge1-TEMPAE_clean_linker_10
_symmetry_space_group_name_H-M    P1
_symmetry_Int_Tables_number       1
_symmetry_cell_setting            triclinic
loop_
_symmetry_equiv_pos_as_xyz
'x, y, z'
_cell_length_a     61.373678
_cell_length_b     60.727017
_cell_length_c     56.005688
_cell_angle_alpha  96.327048
_cell_angle_beta   96.303544
_cell_angle_gamma 101.26473
loop_
_atom_site_label
_atom_site_type_symbol
_atom_site_fract_x
_atom_site_fract_y
_atom_site_fract_z
_atom_type_partial_charge
Co0 Co 0.05848 0.32265 0.36457 0.0
O1 O 0.0916 0.32415 0.37075 0.0
O2 O 0.07291 0.31409 0.33498 0.0
C3 C 0.05836 0.35744 0.38758 0.0
O4 O 0.02328 0.31915 0.35112 0.0
Co5 Co 0.0303 0.32181 0.40794 0.0
O6 O 1.00517 0.32407 0.38367 0.0
C7 C 0.04797 0.28163 0.39202 0.0
C8 C 0.09242 0.31727 0.3482 0.0
C9 C 1.00486 0.32101 0.36073 0.0
O10 O 0.05328 0.28992 0.37256 0.0
O11 O 0.04051 0.29258 0.40903 0.0
O12 O 0.06336 0.35654 0.36554 0.0
O13 O 0.05568 0.33805 0.39526 0.0
Co14 Co 0.02123 0.75993 0.69928 0.0
O15 O 0.9879 0.75781 0.69167 0.0
O16 O 1.00272 0.75222 0.7264 0.0
C17 C 0.02891 0.79462 0.68518 0.0
O18 O 0.05594 0.76219 0.71476 0.0
Co19 Co 0.05473 0.7672 0.66154 0.0
O20 O 0.07948 0.7748 0.68854 0.0
C21 C 0.02681 0.7206 0.66176 0.0
C22 C 0.98449 0.75458 0.71349 0.0
C23 C 0.07643 0.7691 0.70927 0.0
O24 O 0.01902 0.72671 0.68189 0.0
O25 O 0.03938 0.73491 0.65134 0.0
O26 O 0.02434 0.79325 0.70707 0.0
O27 O 0.02866 0.77555 0.6727 0.0
Co28 Co 0.55926 0.82261 0.8645 0.0
O29 O 0.59266 0.8259 0.87007 0.0
O30 O 0.57325 0.81164 0.83547 0.0
C31 C 0.55878 0.85857 0.88448 0.0
O32 O 0.52384 0.81693 0.85129 0.0
Co33 Co 0.5314 0.82536 0.90785 0.0
O34 O 0.50534 0.82372 0.88311 0.0
C35 C 0.54852 0.78387 0.89522 0.0
C36 C 0.59316 0.81694 0.84809 0.0
C37 C 0.50515 0.8184 0.86042 0.0
O38 O 0.55517 0.79111 0.87575 0.0
O39 O 0.54026 0.79569 0.91082 0.0
O40 O 0.56284 0.85592 0.86211 0.0
O41 O 0.55682 0.84023 0.89417 0.0
Co42 Co 0.52057 0.25862 0.19862 0.0
O43 O 0.48768 0.25826 0.19113 0.0
O44 O 0.50167 0.25126 0.22561 0.0
C45 C 0.52995 0.29289 0.18424 0.0
O46 O 0.55498 0.2597 0.21377 0.0
Co47 Co 0.55275 0.26214 0.15922 0.0
O48 O 0.57804 0.26828 0.18573 0.0
C49 C 0.524 0.21727 0.16205 0.0
C50 C 0.48387 0.25468 0.21274 0.0
C51 C 0.57528 0.26454 0.20721 0.0
O52 O 0.51715 0.22506 0.18211 0.0
O53 O 0.53631 0.22998 0.14985 0.0
O54 O 0.52514 0.29202 0.20613 0.0
O55 O 0.52854 0.27349 0.17179 0.0
Co56 Co 0.06528 0.80346 0.11777 0.0
O57 O 0.03245 0.79996 0.11215 0.0
O58 O 0.05157 0.79606 0.14626 0.0
C59 C 0.071 0.83912 0.10163 0.0
O60 O 0.09792 0.80638 0.13531 0.0
Co61 Co 0.09485 0.80167 0.08494 0.0
O62 O 0.12215 0.80546 0.10906 0.0
C63 C 0.07071 0.75694 0.09012 0.0
C64 C 0.03227 0.79632 0.13457 0.0
C65 C 0.11815 0.80655 0.13078 0.0
O66 O 0.06211 0.76849 0.10621 0.0
O67 O 0.08464 0.76746 0.07784 0.0
O68 O 0.06815 0.83676 0.12381 0.0
O69 O 0.07115 0.8198 0.08858 0.0
Co70 Co 0.51425 0.77922 0.44593 0.0
O71 O 0.54717 0.78578 0.452 0.0
O72 O 0.52713 0.77044 0.4171 0.0
C73 C 0.51079 0.81573 0.46282 0.0
O74 O 0.48109 0.77203 0.42867 0.0
Co75 Co 0.48437 0.77406 0.48022 0.0
O76 O 0.45892 0.77732 0.45641 0.0
C77 C 0.50591 0.73571 0.47359 0.0
C78 C 0.54684 0.77817 0.42931 0.0
C79 C 0.4617 0.77447 0.43426 0.0
O80 O 0.51412 0.74672 0.45676 0.0
O81 O 0.49293 0.74424 0.48651 0.0
O82 O 0.51484 0.81076 0.44093 0.0
O83 O 0.50973 0.79866 0.47547 0.0
Co84 Co 0.56595 0.30448 0.6185 0.0
O85 O 0.53332 0.3024 0.61348 0.0
O86 O 0.55204 0.29647 0.64692 0.0
C87 C 0.57242 0.34067 0.60299 0.0
O88 O 0.59856 0.30585 0.63554 0.0
Co89 Co 0.59545 0.30341 0.58569 0.0
O90 O 0.62304 0.30817 0.60946 0.0
C91 C 0.572 0.25815 0.59109 0.0
C92 C 0.53294 0.29777 0.63553 0.0
C93 C 0.61897 0.30718 0.63103 0.0
O94 O 0.56172 0.26946 0.60573 0.0
O95 O 0.58708 0.26903 0.58032 0.0
O96 O 0.57028 0.3382 0.62534 0.0
O97 O 0.57166 0.32129 0.58966 0.0
Co98 Co 0.01406 0.27685 0.94389 0.0
O99 O 0.04691 0.28252 0.94931 0.0
O100 O 0.02615 0.26714 0.91479 0.0
C101 C 0.01188 0.31395 0.96056 0.0
O102 O 0.98064 0.26991 0.92773 0.0
Co103 Co 0.98489 0.27437 0.97979 0.0
O104 O 0.96076 0.28052 0.95588 0.0
C105 C 1.00574 0.23494 0.97343 0.0
C106 C 0.04606 0.27444 0.92668 0.0
C107 C 0.96242 0.2754 0.93364 0.0
O108 O 0.013 0.24449 0.95524 0.0
O109 O 0.99426 0.24505 0.98706 0.0
O110 O 0.01523 0.30858 0.93847 0.0
O111 O 0.01085 0.29701 0.97329 0.0
Co112 Co 0.39327 0.0278 0.32075 0.0
O113 O 0.39616 0.05972 0.32282 0.0
O114 O 0.36439 0.0338 0.31134 0.0
C115 C 0.41312 0.02786 0.35622 0.0
O116 O 0.38398 0.99398 0.31673 0.0
Co117 Co 0.4348 1.00494 0.32152 0.0
O118 O 0.41285 0.97665 0.32292 0.0
C119 C 0.41571 0.01992 0.27645 0.0
C120 C 0.37476 0.05492 0.31542 0.0
C121 C 0.39196 0.97616 0.31842 0.0
O122 O 0.39977 0.02633 0.28643 0.0
O123 O 0.43142 0.01229 0.28756 0.0
O124 O 0.39214 0.02904 0.35533 0.0
O125 O 0.42171 0.02862 0.33627 0.0
Co126 Co 0.27572 0.18048 0.514 0.0
O127 O 0.30825 0.18793 0.51716 0.0
O128 O 0.28797 0.15551 0.52409 0.0
C129 C 0.27151 0.194 0.47736 0.0
O130 O 0.24269 0.16445 0.51172 0.0
Co131 Co 0.24488 0.21357 0.51119 0.0
O132 O 0.21906 0.18723 0.50373 0.0
C133 C 0.27015 0.21145 0.55865 0.0
C134 C 0.30759 0.16766 0.52286 0.0
C135 C 0.22271 0.1678 0.50691 0.0
O136 O 0.27609 0.19351 0.54928 0.0
O137 O 0.25933 0.22311 0.54594 0.0
O138 O 0.27492 0.17371 0.47884 0.0
O139 O 0.27092 0.20577 0.49796 0.0
Co140 Co 0.14219 0.04982 0.79889 0.0
O141 O 0.13444 0.01694 0.79549 0.0
O142 O 0.16639 0.03728 0.78789 0.0
C143 C 0.13081 0.05432 0.8365 0.0
O144 O 0.15832 0.08303 0.80088 0.0
Co145 Co 0.11084 0.08189 0.80411 0.0
O146 O 0.13745 0.10709 0.81353 0.0
C147 C 0.11177 0.05813 0.75509 0.0
C148 C 0.15435 0.01755 0.78939 0.0
C149 C 0.15598 0.1032 0.80796 0.0
O150 O 0.12805 0.0496 0.76406 0.0
O151 O 0.10191 0.07053 0.76841 0.0
O152 O 0.15048 0.05043 0.83368 0.0
O153 O 0.11812 0.05507 0.8166 0.0
Co154 Co 0.29946 0.93725 0.99024 0.0
O155 O 0.2678 0.93389 0.9847 0.0
O156 O 0.29223 0.96425 0.00479 0.0
C157 C 0.30265 0.92397 0.95283 0.0
O158 O 0.33289 0.94654 0.99857 0.0
Co159 Co 0.32099 0.89503 0.98404 0.0
O160 O 0.34899 0.9181 0.98516 0.0
C161 C 0.30021 0.90549 0.02785 0.0
C162 C 0.27162 0.95407 0.99672 0.0
C163 C 0.35005 0.93852 0.99421 0.0
O164 O 0.2974 0.92439 0.02137 0.0
O165 O 0.30793 0.8908 0.01499 0.0
O166 O 0.30157 0.94508 0.95779 0.0
O167 O 0.29994 0.91137 0.9698 0.0
Co168 Co 0.30391 0.39104 0.03964 0.0
O169 O 0.27137 0.38354 0.03605 0.0
O170 O 0.29228 0.41702 0.05158 0.0
C171 C 0.30644 0.37496 1.00138 0.0
O172 O 0.33733 0.40707 0.04436 0.0
Co173 Co 0.3335 0.35635 0.03778 0.0
O174 O 0.35898 0.38202 0.03712 0.0
C175 C 0.30925 0.36154 0.07989 0.0
C176 C 0.2724 0.40443 0.04501 0.0
C177 C 0.3566 0.40238 0.04148 0.0
O178 O 0.30549 0.38037 0.07328 0.0
O179 O 0.31845 0.34832 0.0668 0.0
O180 O 0.30226 0.39511 0.00532 0.0
O181 O 0.30763 0.36449 0.02028 0.0
Co182 Co 0.77941 0.1359 0.05645 0.0
O183 O 0.81067 0.13825 0.06595 0.0
O184 O 0.78416 0.10709 0.06428 0.0
C185 C 0.78367 0.15305 0.0236 0.0
O186 O 0.74574 0.12706 0.04711 0.0
Co187 Co 0.75914 0.17883 0.05333 0.0
O188 O 0.73088 0.15724 0.04017 0.0
C189 C 0.77001 0.16314 0.10065 0.0
C190 C 0.80529 0.11693 0.0683 0.0
C191 C 0.72916 0.13609 0.04063 0.0
O192 O 0.77582 0.14563 0.09061 0.0
O193 O 0.76415 0.17864 0.08924 0.0
O194 O 0.78335 0.13154 0.02251 0.0
O195 O 0.78276 0.16379 0.04455 0.0
Co196 Co 0.1887 0.54727 0.25955 0.0
O197 O 0.18459 0.51549 0.24944 0.0
O198 O 0.21458 0.54141 0.2456 0.0
C199 C 0.17807 0.54356 0.29592 0.0
O200 O 0.19895 0.58127 0.26862 0.0
Co201 Co 0.14856 0.56876 0.2725 0.0
O202 O 0.17182 0.59668 0.28327 0.0
C203 C 0.15256 0.55203 0.2219 0.0
C204 C 0.20459 0.52016 0.24335 0.0
C205 C 0.19184 0.59819 0.27848 0.0
O206 O 0.17313 0.55105 0.22753 0.0
O207 O 0.13959 0.55628 0.23743 0.0
O208 O 0.19862 0.54314 0.29278 0.0
O209 O 0.16459 0.54484 0.27707 0.0
Co210 Co 0.80471 0.8923 0.54014 0.0
O211 O 0.77211 0.88691 0.53678 0.0
O212 O 0.79505 0.91968 0.551 0.0
C213 C 0.80656 0.87485 0.50221 0.0
O214 O 0.83841 0.90657 0.54529 0.0
Co215 Co 0.83294 0.85673 0.53887 0.0
O216 O 0.85719 0.88096 0.5315 0.0
C217 C 0.81224 0.86597 0.58312 0.0
C218 C 0.77463 0.90826 0.54502 0.0
C219 C 0.85626 0.90142 0.53819 0.0
O220 O 0.80529 0.88243 0.57402 0.0
O221 O 0.823 0.85315 0.57165 0.0
O222 O 0.8041 0.89568 0.50568 0.0
O223 O 0.80686 0.86469 0.5214 0.0
Co224 Co 0.93342 0.02044 0.2719 0.0
O225 O 0.93814 0.05324 0.27485 0.0
O226 O 0.90612 0.02939 0.26033 0.0
C227 C 0.9502 0.01948 0.31024 0.0
O228 O 0.92025 0.98631 0.26709 0.0
Co229 Co 0.97024 0.99351 0.27476 0.0
O230 O 0.94635 0.96761 0.27968 0.0
C231 C 0.96203 0.01566 0.23119 0.0
C232 C 0.91703 0.05017 0.2664 0.0
C233 C 0.92597 0.96818 0.27308 0.0
O234 O 0.94365 0.01949 0.23834 0.0
O235 O 0.97594 1.00711 0.24408 0.0
O236 O 0.92949 0.02149 0.30619 0.0
O237 O 0.9606 0.01917 0.2913 0.0
Co238 Co 0.27992 0.63621 0.5572 0.0
O239 O 0.31147 0.63817 0.5648 0.0
O240 O 0.2849 0.60795 0.56663 0.0
C241 C 0.28247 0.65135 0.52281 0.0
O242 O 0.24601 0.62751 0.55046 0.0
Co243 Co 0.25891 0.67838 0.55149 0.0
O244 O 0.23038 0.65633 0.54066 0.0
C245 C 0.27346 0.6669 0.60015 0.0
C246 C 0.3061 0.61731 0.56892 0.0
C247 C 0.22886 0.63566 0.54375 0.0
O248 O 0.27852 0.64847 0.59133 0.0
O249 O 0.26675 0.68118 0.58746 0.0
O250 O 0.28179 0.62983 0.52273 0.0
O251 O 0.2825 0.66308 0.54341 0.0
Co252 Co 0.43455 0.52083 0.7743 0.0
O253 O 0.44035 0.55361 0.77854 0.0
O254 O 0.4081 0.53118 0.7621 0.0
C255 C 0.45044 0.51893 0.81284 0.0
O256 O 0.42031 0.48676 0.76844 0.0
Co257 Co 0.46994 0.49263 0.77689 0.0
O258 O 0.44557 0.46693 0.78044 0.0
C259 C 0.46171 0.5132 0.73222 0.0
C260 C 0.41958 0.55162 0.7693 0.0
C261 C 0.4254 0.46809 0.77368 0.0
O262 O 0.44534 0.52038 0.74094 0.0
O263 O 0.47421 0.50251 0.74423 0.0
O264 O 0.42987 0.52128 0.80835 0.0
O265 O 0.46123 0.51855 0.79418 0.0
Co266 Co 0.69106 0.04776 0.75831 0.0
O267 O 0.68537 0.01581 0.74789 0.0
O268 O 0.71611 0.0406 0.74378 0.0
C269 C 0.68001 0.0442 0.79452 0.0
O270 O 0.7035 0.08148 0.76737 0.0
Co271 Co 0.65411 0.07324 0.77334 0.0
O272 O 0.67922 0.09934 0.78472 0.0
C273 C 0.65497 0.05427 0.72227 0.0
C274 C 0.70528 0.01965 0.74135 0.0
C275 C 0.69852 0.09905 0.7786 0.0
O276 O 0.6754 0.05226 0.7267 0.0
O277 O 0.64352 0.06028 0.73869 0.0
O278 O 0.7004 0.04276 0.79151 0.0
O279 O 0.66716 0.04695 0.77588 0.0
Co280 Co 0.77521 0.67933 0.01349 0.0
O281 O 0.8078 0.68509 0.01663 0.0
O282 O 0.78587 0.65292 0.02161 0.0
C283 C 0.77127 0.69407 0.97749 0.0
O284 O 0.74196 0.66469 0.01118 0.0
Co285 Co 0.74606 0.71403 0.01258 0.0
O286 O 0.71921 0.68872 0.00587 0.0
C287 C 0.77118 0.70974 0.05932 0.0
C288 C 0.80593 0.66415 0.02066 0.0
C289 C 0.72217 0.66882 0.00791 0.0
O290 O 0.77626 0.69154 0.04927 0.0
O291 O 0.76097 0.72229 0.04724 0.0
O292 O 0.77389 0.67344 0.97822 0.0
O293 O 0.77149 0.70559 0.99849 0.0
Co294 Co 0.89338 0.52894 0.82094 0.0
O295 O 0.89621 0.56078 0.82055 0.0
O296 O 0.86514 0.53425 0.80802 0.0
C297 C 0.91145 0.53276 0.85823 0.0
O298 O 0.88325 0.4954 0.81952 0.0
Co299 Co 0.93298 0.50434 0.83049 0.0
O300 O 0.90961 0.47784 0.83433 0.0
C301 C 0.92105 0.5188 0.78215 0.0
C302 C 0.87493 0.55553 0.81235 0.0
C303 C 0.88946 0.47782 0.82601 0.0
O304 O 0.90307 0.52472 0.78791 0.0
O305 O 0.93525 0.51268 0.79721 0.0
O306 O 0.89022 0.53317 0.85541 0.0
O307 O 0.92074 0.53062 0.8389 0.0
Co308 Co 0.79894 0.43589 0.48977 0.0
O309 O 0.76721 0.43243 0.48389 0.0
O310 O 0.79154 0.46344 0.50268 0.0
C311 C 0.80323 0.42096 0.45322 0.0
O312 O 0.83234 0.44554 0.49823 0.0
Co313 Co 0.82039 0.39329 0.48692 0.0
O314 O 0.84917 0.41595 0.49322 0.0
C315 C 0.79639 0.40432 0.52754 0.0
C316 C 0.77099 0.45306 0.49479 0.0
C317 C 0.8499 0.43706 0.49864 0.0
O318 O 0.79671 0.42421 0.52172 0.0
O319 O 0.80245 0.3886 0.51441 0.0
O320 O 0.80133 0.44198 0.45657 0.0
O321 O 0.80014 0.40945 0.47098 0.0
Co322 Co 0.64318 0.55103 0.30051 0.0
O323 O 0.63642 0.51821 0.2984 0.0
O324 O 0.66868 0.53898 0.29221 0.0
C325 C 0.62903 0.5562 0.33669 0.0
O326 O 0.65833 0.58453 0.30194 0.0
Co327 Co 0.60926 0.58045 0.29998 0.0
O328 O 0.63428 0.60752 0.30513 0.0
C329 C 0.61344 0.55434 0.25395 0.0
C330 C 0.65675 0.51914 0.29355 0.0
C331 C 0.65411 0.60455 0.30395 0.0
O332 O 0.63111 0.54911 0.2646 0.0
O333 O 0.60105 0.56518 0.26543 0.0
O334 O 0.6494 0.55347 0.33588 0.0
O335 O 0.61741 0.55542 0.31567 0.0
C336 C 0.99288 0.97195 0.98868 0.0
C337 C 0.97694 0.95029 0.01882 0.0
C338 C 0.98784 0.97094 0.01211 0.0
C339 C 0.97179 0.9306 0.00182 0.0
C340 C 0.98697 0.95237 0.9713 0.0
C341 C 0.97676 0.93164 0.97811 0.0
N342 N 1.0025 0.9923 0.98256 0.0
C343 C 1.00505 0.9945 0.95898 0.0
C344 C 0.99088 0.95434 0.94739 0.0
C345 C 0.99965 0.97559 0.94114 0.0
Gd346 Gd 0.06902 0.05051 0.05154 0.0
Gd347 Gd 0.01151 0.02317 0.01389 0.0
N348 N 0.99308 0.99031 0.02817 0.0
C349 C 0.97105 0.95016 0.04224 0.0
C350 C 0.98559 0.99054 0.05022 0.0
C351 C 0.97504 0.97048 0.05786 0.0
H352 H 0.9868 1.00617 0.06162 0.0
H353 H 0.96954 0.97082 0.07559 0.0
H354 H 0.08225 0.07653 0.00303 0.0
H355 H 1.00997 0.01112 0.95377 0.0
H356 H 0.10447 0.11275 0.99549 0.0
H357 H 0.96266 0.93466 0.0481 0.0
H358 H 0.96353 0.91458 0.0067 0.0
H359 H 0.05874 0.05801 0.10993 0.0
H360 H 0.98645 0.93973 0.93349 0.0
H361 H 1.00178 0.97751 0.9225 0.0
H362 H 0.1213 0.15768 0.07376 0.0
H363 H 0.97221 0.91642 0.96504 0.0
H364 H 0.09062 0.12571 0.14032 0.0
H365 H 0.06826 0.08818 0.14465 0.0
N366 N 0.0736 0.07868 0.0852 0.0
C367 C 0.08588 0.09927 0.08245 0.0
C368 C 0.06725 0.07463 0.10723 0.0
C369 C 0.08584 0.11272 0.12471 0.0
C370 C 0.07312 0.09159 0.12719 0.0
C371 C 0.09243 0.11678 0.10219 0.0
H372 H 0.11081 0.15126 0.11394 0.0
N373 N 0.08484 0.08593 0.04093 0.0
C374 C 0.09199 0.10286 0.05979 0.0
C375 C 0.10942 0.12747 0.03298 0.0
C376 C 0.10456 0.12408 0.05632 0.0
C377 C 0.08894 0.08942 0.01805 0.0
C378 C 0.10129 0.11014 0.01371 0.0
O379 O 0.031 0.9956 0.02551 0.0
O380 O 0.05764 0.01315 0.05777 0.0
O381 O 0.10071 0.04243 0.0442 0.0
O382 O 0.09506 0.05239 0.08162 0.0
O383 O 0.01246 0.04132 0.05229 0.0
O384 O 0.04331 0.0331 0.07229 0.0
O385 O 0.0476 0.0766 0.04043 0.0
O386 O 0.02634 0.05868 0.00484 0.0
O387 O 0.98219 0.03587 0.02283 0.0
O388 O 0.98494 0.02355 0.98519 0.0
O389 O 0.0721 0.03641 0.01292 0.0
O390 O 0.03792 0.03282 0.98925 0.0
C391 C 0.046 0.99436 0.04414 0.0
C392 C 0.02333 0.03727 0.07233 0.0
C393 C 0.13087 0.04323 0.07637 0.0
C394 C 0.16276 0.02682 0.06971 0.0
C395 C 0.16016 0.0447 0.10977 0.0
C396 C 0.13972 0.04968 0.10096 0.0
C397 C 0.17169 0.03317 0.09417 0.0
C398 C 0.14259 0.03198 0.06082 0.0
C399 C 0.10845 0.04584 0.06729 0.0
C400 C 0.11149 0.14135 0.07605 0.0
C401 C 0.10545 0.13771 0.09892 0.0
H402 H 0.11895 0.14354 0.02957 0.0
C403 C 0.03487 0.07756 0.01988 0.0
C404 C 0.05977 0.03401 0.99162 0.0
C405 C 0.95186 0.03796 0.99181 0.0
C406 C 0.92123 0.05594 1.00074 0.0
C407 C 0.92442 0.04262 0.95909 0.0
C408 C 0.94369 0.03503 0.96696 0.0
C409 C 0.91328 0.05323 0.97589 0.0
C410 C 0.94039 0.04816 0.00861 0.0
C411 C 0.97347 0.03267 1.00007 0.0
H412 H 0.16691 0.04952 0.12872 0.0
H413 H 0.1307 0.05816 0.11339 0.0
H414 H 0.18742 0.02912 0.10111 0.0
H415 H 0.13579 0.0266 0.04189 0.0
H416 H 0.91824 0.04048 0.93994 0.0
H417 H 0.95242 0.02735 0.95361 0.0
H418 H 0.89835 0.05905 0.96956 0.0
H419 H 0.94669 0.05073 0.0278 0.0
C420 C 0.32881 0.74882 0.22205 0.0
C421 C 0.29991 0.72728 0.19033 0.0
C422 C 0.30715 0.74497 0.20986 0.0
C423 C 0.31487 0.71402 0.18281 0.0
C424 C 0.34379 0.73531 0.21466 0.0
C425 C 0.33675 0.71804 0.19492 0.0
N426 N 0.33499 0.7652 0.24158 0.0
C427 C 0.35613 0.76938 0.25401 0.0
C428 C 0.36535 0.73935 0.22755 0.0
C429 C 0.37156 0.7565 0.24725 0.0
Gd430 Gd 0.26941 0.7846 0.31217 0.0
Gd431 Gd 0.30803 0.78622 0.25124 0.0
N432 N 0.29271 0.75746 0.21824 0.0
C433 C 0.27763 0.72298 0.17935 0.0
C434 C 0.27087 0.75305 0.20764 0.0
C435 C 0.26305 0.73588 0.18812 0.0
H436 H 0.25905 0.76208 0.21444 0.0
H437 H 0.24568 0.73243 0.18004 0.0
H438 H 0.31308 0.79285 0.35959 0.0
H439 H 0.36138 0.78293 0.26894 0.0
H440 H 0.33196 0.82324 0.39153 0.0
H441 H 0.27142 0.70949 0.1644 0.0
H442 H 0.30957 0.70037 0.16787 0.0
H443 H 0.21723 0.79153 0.30152 0.0
H444 H 0.37732 0.72933 0.22244 0.0
H445 H 0.38826 0.75986 0.2572 0.0
H446 H 0.28266 0.87543 0.39404 0.0
H447 H 0.34803 0.70748 0.18905 0.0
H448 H 0.21194 0.8535 0.3428 0.0
H449 H 0.19501 0.82018 0.31219 0.0
N450 N 0.24636 0.80882 0.32505 0.0
C451 C 0.25552 0.82627 0.3427 0.0
C452 C 0.22474 0.80616 0.31457 0.0
C453 C 0.2217 0.84101 0.33806 0.0
C454 C 0.2121 0.82224 0.32077 0.0
C455 C 0.2436 0.84307 0.3495 0.0
H456 H 0.24501 0.87433 0.37296 0.0
N457 N 0.28693 0.80962 0.34796 0.0
C458 C 0.27659 0.82679 0.35447 0.0
C459 C 0.30707 0.84339 0.38635 0.0
C460 C 0.28646 0.84427 0.37356 0.0
C461 C 0.30596 0.80763 0.36209 0.0
C462 C 0.31657 0.82469 0.38095 0.0
O463 O 0.29385 0.74993 0.25439 0.0
O464 O 0.28358 0.77087 0.28209 0.0
O465 O 0.26839 0.7578 0.33429 0.0
O466 O 0.23814 0.76018 0.31197 0.0
O467 O 0.27208 0.79333 0.24484 0.0
O468 O 0.24851 0.78371 0.27474 0.0
O469 O 0.2761 0.81829 0.29927 0.0
O470 O 0.30658 0.80985 0.28501 0.0
O471 O 0.30549 0.80875 0.22424 0.0
O472 O 0.33798 0.80841 0.24374 0.0
O473 O 0.30583 0.77897 0.31941 0.0
O474 O 0.32868 0.78671 0.28856 0.0
C475 C 0.28276 0.75042 0.27235 0.0
C476 C 0.25209 0.79001 0.25299 0.0
C477 C 0.23495 0.74708 0.35029 0.0
C478 C 0.23491 0.73421 0.39 0.0
C479 C 0.20397 0.74988 0.37306 0.0
C480 C 0.21423 0.75316 0.35228 0.0
C481 C 0.2142 0.74045 0.39185 0.0
C482 C 0.2451 0.73771 0.36918 0.0
C483 C 0.24682 0.75052 0.32918 0.0
C484 C 0.27519 0.86171 0.37968 0.0
C485 C 0.25376 0.86108 0.36769 0.0
H486 H 0.31526 0.85651 0.40105 0.0
C487 C 0.29285 0.8238 0.28709 0.0
C488 C 0.32554 0.78177 0.31077 0.0
C489 C 0.33717 0.81949 0.20437 0.0
C490 C 0.33629 0.83593 0.16679 0.0
C491 C 0.36777 0.81948 0.18043 0.0
C492 C 0.35792 0.81404 0.20093 0.0
C493 C 0.35708 0.83045 0.16343 0.0
C494 C 0.32647 0.83028 0.18723 0.0
C495 C 0.32711 0.8163 0.22656 0.0
H496 H 0.18799 0.75455 0.37458 0.0
H497 H 0.20605 0.7605 0.33795 0.0
H498 H 0.20571 0.73768 0.40755 0.0
H499 H 0.26128 0.73339 0.36772 0.0
H500 H 0.38386 0.81548 0.17786 0.0
H501 H 0.36665 0.80594 0.21414 0.0
H502 H 0.36522 0.83494 0.14792 0.0
H503 H 0.31045 0.83447 0.18997 0.0
C504 C 0.58883 0.08081 0.49436 0.0
C505 C 0.6162 0.10637 0.52503 0.0
C506 C 0.60101 0.08547 0.51757 0.0
C507 C 0.61855 0.12284 0.50925 0.0
C508 C 0.59198 0.09707 0.47818 0.0
C509 C 0.60648 0.11821 0.48592 0.0
N510 N 0.57469 0.06022 0.48729 0.0
C511 C 0.56529 0.0541 0.46358 0.0
C512 C 0.58086 0.09146 0.45447 0.0
C513 C 0.56783 0.06975 0.44704 0.0
Gd514 Gd 0.50755 0.03269 0.54942 0.0
Gd515 Gd 0.57046 0.03708 0.51842 0.0
N516 N 0.59797 0.06958 0.53291 0.0
C517 C 0.62878 0.11001 0.54807 0.0
C518 C 0.61119 0.0724 0.55466 0.0
C519 C 0.62655 0.09277 0.56277 0.0
H520 H 0.61013 0.0588 0.56556 0.0
H521 H 0.63674 0.0951 0.58027 0.0
H522 H 0.46723 0.01231 0.50254 0.0
H523 H 0.55594 0.03714 0.45701 0.0
H524 H 0.43965 0.97683 0.48749 0.0
H525 H 0.64065 0.12582 0.55443 0.0
H526 H 0.62995 0.13908 0.51477 0.0
H527 H 0.52402 0.02985 0.61003 0.0
H528 H 0.58284 0.10349 0.44155 0.0
H529 H 0.55989 0.06498 0.42845 0.0
H530 H 0.44604 0.93101 0.55128 0.0
H531 H 0.60885 0.13095 0.47379 0.0
H532 H 0.49525 0.96365 0.62393 0.0
H533 H 0.51963 1.00136 0.63754 0.0
N534 N 0.50456 0.00787 0.57922 0.0
C535 C 0.48966 0.98772 0.57193 0.0
C536 C 0.51436 0.01316 0.6029 0.0
C537 C 0.49761 0.97591 0.61128 0.0
C538 C 0.51147 0.99714 0.619 0.0
C539 C 0.4861 0.97114 0.58773 0.0
H540 H 0.46791 0.93767 0.59178 0.0
N541 N 0.48006 1.00026 0.53415 0.0
C542 C 0.47689 0.98396 0.54905 0.0
C543 C 0.4478 0.96083 0.51881 0.0
C544 C 0.46089 0.96359 0.54148 0.0
C545 C 0.4662 0.99837 0.51292 0.0
C546 C 0.45023 0.97846 0.50465 0.0
O547 O 0.5632 0.07156 0.53686 0.0
O548 O 0.52932 0.06914 0.55405 0.0
O549 O 0.47901 0.04782 0.53625 0.0
O550 O 0.48794 0.04524 0.57477 0.0
O551 O 0.55407 0.02562 0.5493 0.0
O552 O 0.53808 0.04298 0.5768 0.0
O553 O 0.51298 0.9988 0.52817 0.0
O554 O 0.5497 1.00088 0.51835 0.0
O555 O 0.59973 0.02434 0.53293 0.0
O556 O 0.58723 0.01837 0.4943 0.0
O557 O 0.52306 0.04471 0.51786 0.0
O558 O 0.54016 0.02693 0.49109 0.0
C559 C 0.54846 0.08101 0.54848 0.0
C560 C 0.55622 0.03796 0.57003 0.0
C561 C 0.45557 0.06115 0.56606 0.0
C562 C 0.42738 0.08418 0.56058 0.0
C563 C 0.43259 0.06777 0.59782 0.0
C564 C 0.44936 0.05798 0.58912 0.0
C565 C 0.42173 0.08088 0.58372 0.0
C566 C 0.44426 0.07415 0.55156 0.0
C567 C 0.4745 0.05149 0.55845 0.0
C568 C 0.45815 0.94681 0.55686 0.0
C569 C 0.47066 0.95059 0.57991 0.0
H570 H 0.43538 0.94542 0.51237 0.0
C571 C 0.52931 0.98919 0.52041 0.0
C572 C 0.52185 0.03207 0.4973 0.0
C573 C 0.6242 0.01303 0.50487 0.0
C574 C 0.65488 0.9926 0.50686 0.0
C575 C 0.65037 0.0164 0.47525 0.0
C576 C 0.63171 0.02213 0.48449 0.0
C577 C 0.66174 1.00156 0.48617 0.0
C578 C 0.63617 0.99858 0.51633 0.0
C579 C 0.60192 0.01495 0.51143 0.0
H580 H 0.42809 0.06529 0.61563 0.0
H581 H 0.45759 0.04799 0.60064 0.0
H582 H 0.4088 0.08847 0.59087 0.0
H583 H 0.44882 0.07684 0.5338 0.0
H584 H 0.65577 0.02312 0.45925 0.0
H585 H 0.62266 0.03301 0.47514 0.0
H586 H 0.67601 0.99711 0.47848 0.0
H587 H 0.63027 0.99108 0.53176 0.0
C588 C 0.23695 0.31461 0.73627 0.0
C589 C 0.2116 0.28205 0.71226 0.0
C590 C 0.22796 0.29153 0.73237 0.0
C591 C 0.20455 0.29614 0.69606 0.0
C592 C 0.23012 0.32879 0.71989 0.0
C593 C 0.21387 0.31943 0.6998 0.0
N594 N 0.25263 0.32315 0.75584 0.0
C595 C 0.26199 0.34576 0.7603 0.0
C596 C 0.23993 0.35193 0.72412 0.0
C597 C 0.25592 0.36045 0.74443 0.0
Gd598 Gd 0.31946 0.27346 0.78617 0.0
Gd599 Gd 0.2616 0.29715 0.78135 0.0
N600 N 0.23593 0.27821 0.74769 0.0
C601 C 0.20321 0.2586 0.70871 0.0
C602 C 0.22825 0.25531 0.74394 0.0
C603 C 0.21168 0.24516 0.72458 0.0
H604 H 0.23537 0.24479 0.75535 0.0
H605 H 0.20572 0.22696 0.72168 0.0
H606 H 0.34731 0.3276 0.80342 0.0
H607 H 0.27393 0.35261 0.77629 0.0
H608 H 0.37018 0.35087 0.83958 0.0
H609 H 0.19064 0.25067 0.69349 0.0
H610 H 0.19211 0.28915 0.68042 0.0
H611 H 0.31486 0.21955 0.79592 0.0
H612 H 0.23522 0.36337 0.71189 0.0
H613 H 0.26346 0.37835 0.74796 0.0
H614 H 0.37985 0.29719 0.89458 0.0
H615 H 0.20843 0.33006 0.68701 0.0
H616 H 0.34774 0.21874 0.86723 0.0
H617 H 0.32532 0.1982 0.829 0.0
N618 N 0.32994 0.25169 0.8158 0.0
C619 C 0.34292 0.26325 0.83628 0.0
C620 C 0.32397 0.22862 0.81287 0.0
C621 C 0.34291 0.22816 0.8529 0.0
C622 C 0.3302 0.21651 0.83139 0.0
C623 C 0.3496 0.2518 0.8555 0.0
H624 H 0.36799 0.25575 0.89156 0.0
N625 N 0.34282 0.29715 0.81909 0.0
C626 C 0.34965 0.28664 0.83795 0.0
C627 C 0.37018 0.32259 0.85968 0.0
C628 C 0.3632 0.29914 0.85892 0.0
C629 C 0.35081 0.31972 0.81914 0.0
C630 C 0.36426 0.33286 0.83952 0.0
O631 O 0.27245 0.28443 0.74516 0.0
O632 O 0.29331 0.25791 0.75434 0.0
O633 O 0.34917 0.28447 0.76755 0.0
O634 O 0.33837 0.24928 0.77329 0.0
O635 O 0.26118 0.26406 0.79673 0.0
O636 O 0.28794 0.2453 0.78262 0.0
O637 O 0.30505 0.2823 0.82132 0.0
O638 O 0.28975 0.31186 0.81155 0.0
O639 O 0.23469 0.2854 0.80272 0.0
O640 O 0.2441 0.32083 0.79857 0.0
O641 O 0.3177 0.30458 0.76691 0.0
O642 O 0.29423 0.32295 0.78692 0.0
C643 C 0.28322 0.26833 0.73854 0.0
C644 C 0.26872 0.24545 0.79144 0.0
C645 C 0.37194 0.25686 0.75379 0.0
C646 C 0.40291 0.26192 0.72896 0.0
C647 C 0.39383 0.22776 0.74794 0.0
C648 C 0.37658 0.2357 0.75791 0.0
C649 C 0.40681 0.24066 0.73357 0.0
C650 C 0.38545 0.27023 0.73935 0.0
C651 C 0.35293 0.26399 0.76495 0.0
C652 C 0.36954 0.28785 0.87829 0.0
C653 C 0.36279 0.26425 0.87656 0.0
H654 H 0.38057 0.33282 0.87546 0.0
C655 C 0.29671 0.30006 0.82784 0.0
C656 C 0.31063 0.32318 0.77361 0.0
C657 C 0.20722 0.30837 0.80828 0.0
C658 C 0.17382 0.30574 0.82934 0.0
C659 C 0.17762 0.32772 0.79567 0.0
C660 C 0.19822 0.32204 0.79281 0.0
C661 C 0.16563 0.31984 0.81388 0.0
C662 C 0.19468 0.29989 0.82637 0.0
C663 C 0.23073 0.30561 0.80779 0.0
H664 H 0.39713 0.21143 0.75133 0.0
H665 H 0.36686 0.22512 0.76899 0.0
H666 H 0.42008 0.234 0.72597 0.0
H667 H 0.3822 0.28657 0.73589 0.0
H668 H 0.17107 0.3386 0.78394 0.0
H669 H 0.20741 0.32891 0.77892 0.0
H670 H 0.14978 0.32472 0.81587 0.0
H671 H 0.20151 0.28958 0.83865 0.0
C672 C 0.01709 0.0858 0.58322 0.0
C673 C 0.05138 0.10812 0.60688 0.0
C674 C 0.04013 0.094 0.58564 0.0
C675 C 0.03917 0.11398 0.62552 0.0
C676 C 1.00479 0.09165 0.60193 0.0
C677 C 0.01595 0.1058 0.62304 0.0
N678 N 1.00675 0.07192 0.56271 0.0
C679 C 0.98412 0.06368 0.55955 0.0
C680 C 0.98163 0.08306 0.5989 0.0
C681 C 0.97126 0.06905 0.5776 0.0
Gd682 Gd 0.0511 1.00488 0.52685 0.0
Gd683 Gd 0.02983 0.06448 0.53339 0.0
N684 N 0.05162 0.0876 0.56753 0.0
C685 C 0.07461 0.1159 0.60879 0.0
C686 C 0.07415 0.09555 0.56909 0.0
C687 C 0.086 0.10969 0.58973 0.0
H688 H 0.08306 0.09096 0.5546 0.0
H689 H 0.10394 0.11573 0.59096 0.0
H690 H 0.99853 0.97408 0.51215 0.0
H691 H 0.97584 0.0534 0.54287 0.0
H692 H 0.9764 0.94593 0.47914 0.0
H693 H 0.08386 0.12674 0.62482 0.0
H694 H 0.04754 0.12481 0.64196 0.0
H695 H 0.10432 0.01106 0.5162 0.0
H696 H 0.9716 0.0872 0.61284 0.0
H697 H 0.95333 0.06251 0.57499 0.0
H698 H 0.0294 0.93396 0.42466 0.0
H699 H 1.00677 0.11047 0.63759 0.0
H700 H 0.10566 0.97381 0.4472 0.0
H701 H 0.12555 0.99991 0.4835 0.0
N702 N 0.07274 0.99406 0.49734 0.0
C703 C 0.06165 0.97887 0.47816 0.0
C704 C 0.09546 1.00107 0.49972 0.0
C705 C 0.09625 0.97934 0.46115 0.0
C706 C 0.10752 0.99416 0.48154 0.0
C707 C 0.0731 0.97114 0.45948 0.0
H708 H 0.06973 0.94915 0.42547 0.0
N709 N 0.02828 0.97851 0.49574 0.0
C710 C 0.03887 0.97046 0.4776 0.0
C711 C 1.00423 0.94525 0.45893 0.0
C712 C 0.02705 0.95384 0.45851 0.0
C713 C 1.00635 0.96935 0.49679 0.0
C714 C 0.99389 0.95291 0.47828 0.0
O715 O 0.03984 0.04954 0.56787 0.0
O716 O 0.06796 0.03186 0.55781 0.0
O717 O 0.04088 0.97795 0.54985 0.0
O718 O 0.07396 0.98414 0.53805 0.0
O719 O 0.06108 0.06339 0.51529 0.0
O720 O 0.07919 0.03655 0.53014 0.0
O721 O 0.03859 0.01648 0.49099 0.0
O722 O 0.01422 0.03996 0.50003 0.0
O723 O 0.04043 0.09432 0.51435 0.0
O724 O 1.0064 0.08495 0.52322 0.0
O725 O 0.01964 1.00743 0.5444 0.0
O726 O 1.00253 0.03269 0.52552 0.0
C727 C 0.05718 0.04058 0.57409 0.0
C728 C 0.07945 0.05579 0.52087 0.0
C729 C 0.06715 0.95329 0.56212 0.0
C730 C 0.06142 0.92231 0.58725 0.0
C731 C 0.09599 0.93148 0.56971 0.0
C732 C 0.08837 0.9487 0.55907 0.0
C733 C 0.08269 0.91843 0.58366 0.0
C734 C 0.05349 0.93983 0.57634 0.0
C735 C 0.06016 0.97195 0.54983 0.0
C736 C 0.03828 0.94648 0.43962 0.0
C737 C 0.06123 0.95517 0.44005 0.0
H738 H 0.99454 0.93252 0.4446 0.0
C739 C 0.02364 0.02846 0.48436 0.0
C740 C 1.00148 0.01449 0.5365 0.0
C741 C 0.01303 0.11773 0.50188 0.0
C742 C 0.0186 0.15057 0.47928 0.0
C743 C 0.98246 0.13692 0.49234 0.0
C744 C 0.99074 0.12003 0.50288 0.0
C745 C 0.9962 0.15204 0.4807 0.0
C746 C 0.02705 0.1331 0.48975 0.0
C747 C 0.02038 0.09871 0.51309 0.0
H748 H 0.11237 0.92825 0.56713 0.0
H749 H 0.09928 0.95844 0.54831 0.0
H750 H 0.08907 0.90516 0.5918 0.0
H751 H 0.03709 0.94298 0.57899 0.0
H752 H 0.96524 0.13832 0.4932 0.0
H753 H 0.97945 0.10861 0.51178 0.0
H754 H 0.98921 0.16499 0.47261 0.0
H755 H 0.04424 0.13166 0.48867 0.0
C756 C 0.24744 0.73009 0.82317 0.0
C757 C 0.21613 0.71067 0.79253 0.0
C758 C 0.23792 0.72427 0.7987 0.0
C759 C 0.20376 0.7035 0.81091 0.0
C760 C 0.23518 0.72196 0.84146 0.0
C761 C 0.21323 0.7091 0.83523 0.0
N762 N 0.26889 0.74245 0.82903 0.0
C763 C 0.27955 0.74533 0.85229 0.0
C764 C 0.24554 0.72634 0.86554 0.0
C765 C 0.2679 0.73776 0.87091 0.0
Gd766 Gd 0.29517 0.82057 0.76795 0.0
Gd767 Gd 0.28533 0.75368 0.79527 0.0
N768 N 0.25014 0.73105 0.78092 0.0
C769 C 0.2075 0.70421 0.76798 0.0
C770 C 0.24212 0.7242 0.75695 0.0
C771 C 0.22062 0.71087 0.75014 0.0
H772 H 0.25193 0.72985 0.7431 0.0
H773 H 0.21413 0.70582 0.73115 0.0
H774 H 0.33011 0.85375 0.81513 0.0
H775 H 0.29706 0.75362 0.85653 0.0
H776 H 0.36682 0.87994 0.82181 0.0
H777 H 0.19083 0.69381 0.7626 0.0
H778 H 0.18696 0.69317 0.80646 0.0
H779 H 0.27796 0.81633 0.70712 0.0
H780 H 0.23664 0.72035 0.88003 0.0
H781 H 0.27625 0.74053 0.88937 0.0
H782 H 0.38913 0.88102 0.74266 0.0
H783 H 0.20359 0.70291 0.84912 0.0
H784 H 0.33471 0.84617 0.67474 0.0
H785 H 0.29511 0.82604 0.67065 0.0
N786 N 0.30798 0.82995 0.73142 0.0
C787 C 0.32933 0.84252 0.73425 0.0
C788 C 0.29531 0.82517 0.70903 0.0
C789 C 0.32733 0.84189 0.69078 0.0
C790 C 0.30495 0.83058 0.68839 0.0
C791 C 0.33963 0.84852 0.71388 0.0
H792 H 0.36976 0.86616 0.70167 0.0
N793 N 0.3298 0.84629 0.77707 0.0
C794 C 0.34045 0.85094 0.75759 0.0
C795 C 0.37154 0.87562 0.78419 0.0
C796 C 0.36185 0.86548 0.76077 0.0
C797 C 0.3387 0.85712 0.7998 0.0
C798 C 0.35968 0.87183 0.8037 0.0
O799 O 0.25431 0.76748 0.77884 0.0
O800 O 0.25983 0.79753 0.75484 0.0
O801 O 0.29462 0.8565 0.77394 0.0
O802 O 0.26433 0.83216 0.77408 0.0
O803 O 0.29027 0.7731 0.76464 0.0
O804 O 0.29718 0.79433 0.73687 0.0
O805 O 0.32642 0.81153 0.78981 0.0
O806 O 0.32218 0.774 0.79985 0.0
O807 O 0.28322 0.71713 0.78771 0.0
O808 O 0.31528 0.73972 0.79273 0.0
O809 O 0.29099 0.80029 0.79858 0.0
O810 O 0.28933 0.77992 0.82804 0.0
C811 C 0.24656 0.78141 0.76442 0.0
C812 C 0.29535 0.77411 0.7429 0.0
C813 C 0.2612 0.86654 0.75905 0.0
C814 C 0.24017 0.89639 0.75465 0.0
C815 C 0.25276 0.87809 0.7195 0.0
C816 C 0.26237 0.86439 0.73407 0.0
C817 C 0.24185 0.89413 0.72973 0.0
C818 C 0.24977 0.88241 0.76931 0.0
C819 C 0.27322 0.85345 0.77453 0.0
C820 C 0.37257 0.87019 0.7405 0.0
C821 C 0.36152 0.86171 0.71714 0.0
H822 H 0.38789 0.88693 0.78731 0.0
C823 C 0.33469 0.79422 0.79759 0.0
C824 C 0.2907 0.80007 0.82176 0.0
C825 C 0.31422 0.7034 0.80439 0.0
C826 C 0.33344 0.67196 0.80745 0.0
C827 C 0.32161 0.69022 0.84323 0.0
C828 C 0.31291 0.70498 0.82931 0.0
C829 C 0.33173 0.67375 0.8324 0.0
C830 C 0.32471 0.687 0.79351 0.0
C831 C 0.30472 0.71873 0.78959 0.0
H832 H 0.25395 0.87641 0.70027 0.0
H833 H 0.27104 0.85239 0.72591 0.0
H834 H 0.23455 0.9047 0.71813 0.0
H835 H 0.24891 0.88432 0.78864 0.0
H836 H 0.32053 0.69157 0.86248 0.0
H837 H 0.30521 0.71761 0.83801 0.0
H838 H 0.33853 0.66259 0.84361 0.0
H839 H 0.32582 0.68575 0.77424 0.0
C840 C 0.57597 0.99939 0.09388 0.0
C841 C 0.59026 0.02891 0.12795 0.0
C842 C 0.57541 0.02028 0.10642 0.0
C843 C 0.60576 0.01641 0.13648 0.0
C844 C 0.59121 0.98658 0.10269 0.0
C845 C 0.6062 0.99528 0.12392 0.0
N846 N 0.56169 0.99163 0.07302 0.0
C847 C 0.56086 0.97069 0.06093 0.0
C848 C 0.59091 0.96536 0.08989 0.0
C849 C 0.57548 0.95728 0.06906 0.0
Gd850 Gd 0.54146 0.05564 1.00012 0.0
Gd851 Gd 0.53846 0.01564 0.05996 0.0
N852 N 0.56061 0.03231 0.09729 0.0
C853 C 0.5891 0.04985 0.14032 0.0
C854 C 0.55861 0.05213 0.11017 0.0
C855 C 0.57299 0.06133 0.13156 0.0
H856 H 0.54582 0.06094 0.10457 0.0
H857 H 0.57151 0.07724 0.14138 0.0
H858 H 0.52176 1.00612 0.96054 0.0
H859 H 0.54851 0.96409 0.0454 0.0
H860 H 0.49194 0.99124 0.92722 0.0
H861 H 0.60025 0.05707 0.15688 0.0
H862 H 0.6174 0.02287 0.15288 0.0
H863 H 0.53267 0.10636 0.02089 0.0
H864 H 0.6023 0.95498 0.09611 0.0
H865 H 0.57476 0.94068 0.05932 0.0
H866 H 0.45253 0.05126 0.9197 0.0
H867 H 0.61815 0.98576 0.13083 0.0
H868 H 0.47641 0.11902 0.97638 0.0
H869 H 0.50666 0.13129 0.01103 0.0
N870 N 0.5171 0.08006 0.99237 0.0
C871 C 0.50079 0.07308 0.97307 0.0
C872 C 0.51936 0.10067 0.00593 0.0
C873 C 0.48778 0.10798 0.98064 0.0
C874 C 0.50477 0.11493 1.00027 0.0
C875 C 0.48554 0.08681 0.96683 0.0
H876 H 0.45647 0.08919 0.94229 0.0
N877 N 0.51315 0.03845 0.96735 0.0
C878 C 0.4987 0.05167 0.96022 0.0
C879 C 0.47876 0.02158 0.92895 0.0
C880 C 0.48109 0.04351 0.94093 0.0
C881 C 0.51078 0.01698 0.95554 0.0
C882 C 0.49365 0.00829 0.93632 0.0
O883 O 0.57478 0.03128 0.06054 0.0
O884 O 0.55742 0.04393 0.03179 0.0
O885 O 0.56707 0.05632 0.97659 0.0
O886 O 0.55961 0.08787 0.99205 0.0
O887 O 0.52935 0.05129 0.06444 0.0
O888 O 0.54712 0.07535 0.03877 0.0
O889 O 0.50681 0.04517 0.00904 0.0
O890 O 0.52005 0.01767 0.0241 0.0
O891 O 0.50941 0.01544 0.07853 0.0
O892 O 0.51894 0.9838 0.06721 0.0
O893 O 0.55023 0.02019 0.99199 0.0
O894 O 0.54249 0.99646 0.02253 0.0
C895 C 0.57687 0.04351 0.04333 0.0
C896 C 0.53635 0.07183 0.05798 0.0
C897 C 0.56992 0.0857 0.95239 0.0
C898 C 0.58272 0.08227 0.9129 0.0
C899 C 0.56041 0.11003 0.92303 0.0
C900 C 0.55941 0.10321 0.94601 0.0
C901 C 0.57204 0.09966 0.90649 0.0
C902 C 0.58126 0.07527 0.93571 0.0
C903 C 0.57004 0.07812 0.97636 0.0
C904 C 0.4661 0.05728 0.93447 0.0
C905 C 0.46833 0.07887 0.94734 0.0
H906 H 0.46542 0.0147 0.91414 0.0
C907 C 0.50359 0.02816 0.02121 0.0
C908 C 0.54828 1.00012 1.0005 0.0
C909 C 0.50385 0.98751 0.10422 0.0
C910 C 0.48873 0.9939 0.14203 0.0
C911 C 0.51314 0.96708 0.13748 0.0
C912 C 0.51514 0.97177 0.11388 0.0
C913 C 0.5001 0.97815 0.15158 0.0
C914 C 0.49047 0.99824 0.11827 0.0
C915 C 0.50634 0.99382 0.08001 0.0
H916 H 0.55242 0.1236 0.91815 0.0
H917 H 0.55054 0.11162 0.95867 0.0
H918 H 0.57318 0.1056 0.88903 0.0
H919 H 0.58922 0.06166 0.94065 0.0
H920 H 0.52181 0.95494 0.1449 0.0
H921 H 0.52562 0.96326 0.10338 0.0
H922 H 0.4987 0.97425 0.16984 0.0
H923 H 0.48186 0.0105 0.1109 0.0
C924 C 0.35143 0.33122 0.32215 0.0
C925 C 0.37182 0.34914 0.29218 0.0
C926 C 0.35175 0.33745 0.29904 0.0
C927 C 0.39168 0.35378 0.30856 0.0
C928 C 0.3712 0.33665 0.33895 0.0
C929 C 0.39136 0.34761 0.33191 0.0
N930 N 0.33159 0.32086 0.32855 0.0
C931 C 0.3302 0.3168 0.35191 0.0
C932 C 0.37001 0.33152 0.36258 0.0
C933 C 0.34937 0.32179 0.36915 0.0
Gd934 Gd 0.27295 0.25481 0.26074 0.0
Gd935 Gd 0.30033 0.31377 0.29818 0.0
N936 N 0.33221 0.33296 0.28363 0.0
C937 C 0.37115 0.35656 0.26937 0.0
C938 C 0.33113 0.34212 0.26252 0.0
C939 C 0.35061 0.35342 0.25467 0.0
H940 H 0.31522 0.34163 0.25218 0.0
H941 H 0.34967 0.3602 0.23759 0.0
H942 H 0.25097 0.2211 0.29809 0.0
H943 H 0.3142 0.31047 0.35763 0.0
H944 H 0.21387 0.20042 0.30503 0.0
H945 H 0.38619 0.36562 0.26343 0.0
H946 H 0.40726 0.36269 0.30358 0.0
H947 H 0.2669 0.26703 0.20264 0.0
H948 H 0.38478 0.33558 0.37606 0.0
H949 H 0.34813 0.31846 0.3876 0.0
H950 H 0.16449 0.21034 0.23637 0.0
H951 H 0.40671 0.35184 0.34456 0.0
H952 H 0.19739 0.24892 0.17487 0.0
H953 H 0.23644 0.26573 0.17005 0.0
N954 N 0.24532 0.25432 0.22762 0.0
C955 C 0.22406 0.24383 0.23006 0.0
C956 C 0.24992 0.26125 0.20596 0.0
C957 C 0.21065 0.25034 0.18977 0.0
C958 C 0.23266 0.2599 0.18701 0.0
C959 C 0.20618 0.24163 0.21123 0.0
H960 H 0.1707 0.22824 0.19971 0.0
N961 N 0.23813 0.23529 0.26814 0.0
C962 C 0.22045 0.23374 0.25076 0.0
C963 C 0.19654 0.20983 0.2734 0.0
C964 C 0.19905 0.22118 0.25309 0.0
C965 C 0.23621 0.22257 0.28664 0.0
C966 C 0.21533 0.21018 0.29002 0.0
O967 O 0.32728 0.29337 0.28666 0.0
O968 O 0.31011 0.26591 0.25461 0.0
O969 O 0.28232 0.22353 0.26818 0.0
O970 O 0.26807 0.22689 0.23178 0.0
O971 O 0.28212 0.31166 0.25978 0.0
O972 O 0.2908 0.28068 0.23983 0.0
O973 O 0.2468 0.27506 0.27421 0.0
O974 O 0.26479 0.30061 0.30735 0.0
O975 O 0.28857 0.34396 0.29006 0.0
O976 O 0.30187 0.34102 0.32733 0.0
O977 O 0.28374 0.25282 0.30078 0.0
O978 O 0.28951 0.28835 0.32333 0.0
C979 C 0.32863 0.27814 0.26809 0.0
C980 C 0.28727 0.30118 0.24008 0.0
C981 C 0.29259 0.20153 0.23576 0.0
C982 C 0.31222 0.17102 0.23967 0.0
C983 C 0.31383 0.19033 0.20409 0.0
C984 C 0.30028 0.20436 0.21332 0.0
C985 C 0.31966 0.1735 0.21712 0.0
C986 C 0.2988 0.18501 0.24884 0.0
C987 C 0.27694 0.21423 0.24562 0.0
C988 C 0.18108 0.21978 0.23482 0.0
C989 C 0.18462 0.23001 0.21396 0.0
H990 H 0.1804 0.19997 0.27583 0.0
C991 C 0.24602 0.28948 0.29367 0.0
C992 C 0.28661 0.2662 0.32164 0.0
C993 C 0.28858 0.37527 0.32113 0.0
C994 C 0.27073 0.40655 0.31319 0.0
C995 C 0.28806 0.40483 0.35386 0.0
C996 C 0.29421 0.38466 0.34563 0.0
C997 C 0.27624 0.4157 0.33778 0.0
C998 C 0.27703 0.38641 0.30498 0.0
C999 C 0.29283 0.35295 0.31277 0.0
H1000 H 0.31965 0.19238 0.18675 0.0
H1001 H 0.29565 0.2171 0.20285 0.0
H1002 H 0.33005 0.16262 0.20981 0.0
H1003 H 0.29272 0.18262 0.26607 0.0
H1004 H 0.29233 0.41197 0.37277 0.0
H1005 H 0.30299 0.37625 0.35849 0.0
H1006 H 0.27168 0.43138 0.34444 0.0
H1007 H 0.27233 0.37912 0.28611 0.0
C1008 C 0.5145 0.58453 0.08205 0.0
C1009 C 0.5462 0.61201 0.10469 0.0
C1010 C 0.53655 0.59637 0.08391 0.0
C1011 C 0.53361 0.61509 0.1238 0.0
C1012 C 0.50164 0.58806 0.10098 0.0
C1013 C 0.51142 0.60311 0.12198 0.0
N1014 N 0.5055 0.56994 0.06157 0.0
C1015 C 0.48321 0.56001 0.058 0.0
C1016 C 0.47919 0.57667 0.09805 0.0
C1017 C 0.46986 0.56285 0.07632 0.0
Gd1018 Gd 0.55034 0.50398 0.0278 0.0
Gd1019 Gd 0.52994 0.5655 0.03264 0.0
N1020 N 0.54849 0.59274 0.06533 0.0
C1021 C 0.56815 0.62426 0.10554 0.0
C1022 C 0.56932 0.60572 0.06541 0.0
C1023 C 0.57962 0.62136 0.08562 0.0
H1024 H 0.57778 0.60463 0.04962 0.0
H1025 H 0.59627 0.6314 0.08569 0.0
H1026 H 0.50224 0.46664 0.01606 0.0
H1027 H 0.47544 0.55007 0.04097 0.0
H1028 H 0.48104 0.43782 0.98239 0.0
H1029 H 0.57615 0.63641 0.12117 0.0
H1030 H 0.54083 0.62686 0.13999 0.0
H1031 H 0.60462 0.5151 0.01559 0.0
H1032 H 0.46877 0.5789 0.11217 0.0
H1033 H 0.45231 0.55455 0.07356 0.0
H1034 H 0.53143 0.43802 0.92248 0.0
H1035 H 0.50184 0.60587 0.13677 0.0
H1036 H 0.60534 0.48395 0.94368 0.0
H1037 H 0.62497 0.50824 0.98118 0.0
N1038 N 0.57266 0.4974 0.99691 0.0
C1039 C 0.562 0.48259 0.97715 0.0
C1040 C 0.59532 0.50557 0.99894 0.0
C1041 C 0.59604 0.48749 0.95851 0.0
C1042 C 0.60716 0.50125 0.97961 0.0
C1043 C 0.57334 0.47743 0.95733 0.0
H1044 H 0.57035 0.4578 0.92192 0.0
N1045 N 0.5298 0.47619 0.99702 0.0
C1046 C 0.5401 0.47131 0.97744 0.0
C1047 C 0.50726 0.44298 0.95964 0.0
C1048 C 0.52896 0.45476 0.958 0.0
C1049 C 0.50935 0.46375 0.9995 0.0
C1050 C 0.49753 0.44728 0.98064 0.0
O1051 O 0.53956 0.55131 0.06797 0.0
O1052 O 0.56648 0.53172 0.0581 0.0
O1053 O 0.54249 0.48002 0.0547 0.0
O1054 O 0.57175 0.48102 0.03578 0.0
O1055 O 0.56544 0.56865 0.02409 0.0
O1056 O 0.57848 0.53529 0.02881 0.0
O1057 O 0.52674 0.51011 0.99598 0.0
O1058 O 0.53891 0.5482 0.9982 0.0
O1059 O 0.53621 0.59905 0.02065 0.0
O1060 O 0.50299 0.57686 0.01179 0.0
O1061 O 0.51875 0.50782 0.04448 0.0
O1062 O 0.50304 0.53304 0.02361 0.0
C1063 C 0.55606 0.54108 0.07437 0.0
C1064 C 0.58131 0.55679 0.02495 0.0
C1065 C 0.56786 0.45364 0.06401 0.0
C1066 C 0.56308 0.42269 0.08914 0.0
C1067 C 0.59801 0.4337 0.07274 0.0
C1068 C 0.58967 0.45035 0.06176 0.0
C1069 C 0.58488 0.42001 0.08629 0.0
C1070 C 0.5544 0.43958 0.07784 0.0
C1071 C 0.56007 0.47163 0.0513 0.0
C1072 C 0.53983 0.45043 0.93775 0.0
C1073 C 0.56196 0.46176 0.9374 0.0
H1074 H 0.49809 0.43021 0.94506 0.0
C1075 C 0.5275 0.52891 0.98615 0.0
C1076 C 0.50117 0.51476 0.03464 0.0
C1077 C 0.50766 0.61385 0.997 0.0
C1078 C 0.51384 0.64751 0.97582 0.0
C1079 C 0.47635 0.63045 0.98323 0.0
C1080 C 0.48467 0.6139 0.99456 0.0
C1081 C 0.49078 0.64714 0.97402 0.0
C1082 C 0.52235 0.63076 0.98742 0.0
C1083 C 0.51581 0.59628 0.00995 0.0
H1084 H 0.61481 0.43142 0.07075 0.0
H1085 H 0.60049 0.46072 0.05143 0.0
H1086 H 0.59182 0.40718 0.0947 0.0
H1087 H 0.53758 0.44177 0.07987 0.0
H1088 H 0.4586 0.63038 0.98163 0.0
H1089 H 0.47307 0.60127 0.00173 0.0
H1090 H 0.48387 0.65979 0.96527 0.0
H1091 H 0.54014 0.63095 0.98903 0.0
C1092 C 0.74883 0.23073 0.32392 0.0
C1093 C 0.71767 0.20983 0.29394 0.0
C1094 C 0.7393 0.22377 0.29961 0.0
C1095 C 0.70547 0.20337 0.31272 0.0
C1096 C 0.73685 0.22329 0.34267 0.0
C1097 C 0.71503 0.21002 0.33695 0.0
N1098 N 0.77004 0.24369 0.32924 0.0
C1099 C 0.78093 0.24776 0.35242 0.0
C1100 C 0.74738 0.22885 0.36666 0.0
C1101 C 0.76962 0.24079 0.37151 0.0
Gd1102 Gd 0.79279 0.31921 0.26335 0.0
Gd1103 Gd 0.78586 0.25412 0.29501 0.0
N1104 N 0.75132 0.23006 0.28153 0.0
C1105 C 0.70899 0.20249 0.26952 0.0
C1106 C 0.74338 0.22232 0.25772 0.0
C1107 C 0.72198 0.20859 0.25136 0.0
H1108 H 0.75327 0.22746 0.24373 0.0
H1109 H 0.71548 0.20283 0.23247 0.0
H1110 H 0.82173 0.36458 0.30322 0.0
H1111 H 0.79831 0.25657 0.35616 0.0
H1112 H 0.85852 0.39066 0.30858 0.0
H1113 H 0.6924 0.19185 0.2645 0.0
H1114 H 0.68875 0.19283 0.30867 0.0
H1115 H 0.77437 0.31243 0.20274 0.0
H1116 H 0.73871 0.2234 0.38152 0.0
H1117 H 0.77809 0.24449 0.38993 0.0
H1118 H 0.88563 0.37737 0.23236 0.0
H1119 H 0.70555 0.20439 0.35117 0.0
H1120 H 0.83143 0.33519 0.16706 0.0
H1121 H 0.79134 0.31702 0.1649 0.0
N1122 N 0.80486 0.32705 0.2258 0.0
C1123 C 0.82624 0.33891 0.22721 0.0
C1124 C 0.7918 0.32072 0.20373 0.0
C1125 C 0.82407 0.33325 0.18362 0.0
C1126 C 0.80139 0.32311 0.18234 0.0
C1127 C 0.83659 0.34206 0.20623 0.0
H1128 H 0.86704 0.3571 0.19261 0.0
N1129 N 0.82508 0.34864 0.2686 0.0
C1130 C 0.83674 0.35016 0.24948 0.0
C1131 C 0.86615 0.37903 0.2734 0.0
C1132 C 0.85782 0.36504 0.25145 0.0
C1133 C 0.83217 0.36375 0.28919 0.0
C1134 C 0.85289 0.37892 0.29208 0.0
O1135 O 0.75345 0.26606 0.27952 0.0
O1136 O 0.75855 0.29383 0.25298 0.0
O1137 O 0.78402 0.3484 0.28383 0.0
O1138 O 0.76287 0.33078 0.25143 0.0
O1139 O 0.79118 0.27148 0.26294 0.0
O1140 O 0.79575 0.29174 0.23389 0.0
O1141 O 0.8258 0.31253 0.28394 0.0
O1142 O 0.82185 0.27682 0.29878 0.0
O1143 O 0.78551 0.21797 0.28595 0.0
O1144 O 0.81653 0.2414 0.29932 0.0
O1145 O 0.78888 0.29977 0.29458 0.0
O1146 O 0.78804 0.28152 0.32593 0.0
C1147 C 0.74547 0.27897 0.26407 0.0
C1148 C 0.7947 0.27186 0.24062 0.0
C1149 C 0.76484 0.36969 0.25867 0.0
C1150 C 0.74754 0.40266 0.25797 0.0
C1151 C 0.77112 0.39406 0.22746 0.0
C1152 C 0.77493 0.37529 0.23821 0.0
C1153 C 0.75753 0.40764 0.2372 0.0
C1154 C 0.75107 0.38337 0.26851 0.0
C1155 C 0.76681 0.34832 0.268 0.0
C1156 C 0.86918 0.36647 0.23107 0.0
C1157 C 0.85858 0.35494 0.20845 0.0
H1158 H 0.88216 0.39085 0.27562 0.0
C1159 C 0.83427 0.29644 0.29436 0.0
C1160 C 0.78898 0.30092 0.31796 0.0
C1161 C 0.81481 0.20359 0.30609 0.0
C1162 C 0.83654 0.17407 0.30868 0.0
C1163 C 0.82096 0.18834 0.3439 0.0
C1164 C 0.81171 0.20312 0.33046 0.0
C1165 C 0.83343 0.174 0.33317 0.0
C1166 C 0.82704 0.18887 0.29517 0.0
C1167 C 0.80692 0.22037 0.29223 0.0
H1168 H 0.77859 0.398 0.2114 0.0
H1169 H 0.7853 0.36482 0.23016 0.0
H1170 H 0.75465 0.42199 0.22833 0.0
H1171 H 0.74316 0.37902 0.28422 0.0
H1172 H 0.81862 0.18812 0.36275 0.0
H1173 H 0.80244 0.21434 0.33915 0.0
H1174 H 0.8405 0.16269 0.34393 0.0
H1175 H 0.82975 0.18939 0.27641 0.0
C1176 C 0.07902 0.50102 0.5908 0.0
C1177 C 0.09458 0.53159 0.62343 0.0
C1178 C 0.07816 0.52174 0.60349 0.0
C1179 C 0.11225 0.52081 0.62973 0.0
C1180 C 0.09642 0.48986 0.59741 0.0
C1181 C 0.11314 0.49998 0.6168 0.0
N1182 N 0.06331 0.49225 0.57127 0.0
C1183 C 0.0633 0.47182 0.55839 0.0
C1184 C 0.09667 0.46903 0.58408 0.0
C1185 C 0.0799 0.45987 0.56464 0.0
Gd1186 Gd 0.04179 0.55705 0.50166 0.0
Gd1187 Gd 0.03798 0.51478 0.55975 0.0
N1188 N 0.06118 0.53211 0.59644 0.0
C1189 C 0.09259 0.55182 0.6367 0.0
C1190 C 0.058 0.55055 0.61095 0.0
C1191 C 0.0739 0.561 0.63081 0.0
H1192 H 0.0431 0.55725 0.60795 0.0
H1193 H 0.07157 0.576 0.64173 0.0
H1194 H 0.03762 0.51865 0.45058 0.0
H1195 H 0.05054 0.46474 0.54316 0.0
H1196 H 1.00926 0.50112 0.41598 0.0
H1197 H 0.10489 0.55997 0.65209 0.0
H1198 H 0.12516 0.52831 0.6448 0.0
H1199 H 0.02893 0.60598 0.52151 0.0
H1200 H 0.10972 0.45989 0.58865 0.0
H1201 H 0.0799 0.44373 0.55428 0.0
H1202 H 0.95365 0.5465 0.41839 0.0
H1203 H 0.12679 0.49179 0.62198 0.0
H1204 H 0.96897 0.61232 0.47834 0.0
H1205 H 0.99936 0.62737 0.51245 0.0
N1206 N 0.0155 0.57928 0.49271 0.0
C1207 C 0.99945 0.57114 0.47343 0.0
C1208 C 0.01583 0.59935 0.5065 0.0
C1209 C 0.98199 0.60296 0.48213 0.0
C1210 C 0.99911 0.6115 0.50141 0.0
C1211 C 0.98202 0.58254 0.46783 0.0
H1212 H 0.95162 0.58165 0.44371 0.0
N1213 N 0.01825 0.54145 0.46476 0.0
C1214 C 1.00062 0.55136 0.45928 0.0
C1215 C 0.98706 0.52356 0.42382 0.0
C1216 C 0.98437 0.5425 0.4389 0.0
C1217 C 0.0222 0.52464 0.44849 0.0
C1218 C 1.00637 0.51498 0.42829 0.0
O1219 O 0.07386 0.52415 0.55347 0.0
O1220 O 0.05673 0.54397 0.53253 0.0
O1221 O 0.06959 0.55947 0.48133 0.0
O1222 O 0.06173 0.59015 0.49812 0.0
O1223 O 0.03121 0.55126 0.56705 0.0
O1224 O 0.04578 0.57633 0.54035 0.0
O1225 O 1.00779 0.54952 0.513 0.0
O1226 O 0.01727 0.51915 0.52582 0.0
O1227 O 1.00986 0.51275 0.57958 0.0
O1228 O 0.01944 0.48189 0.56593 0.0
O1229 O 0.04578 0.51967 0.49203 0.0
O1230 O 0.03866 0.49542 0.52209 0.0
C1231 C 0.07578 0.53843 0.53829 0.0
C1232 C 0.03657 0.57192 0.56034 0.0
C1233 C 0.07476 0.59018 0.45965 0.0
C1234 C 0.08838 0.58714 0.42048 0.0
C1235 C 0.06447 0.61363 0.42969 0.0
C1236 C 0.06333 0.60685 0.45267 0.0
C1237 C 0.07692 0.60385 0.41361 0.0
C1238 C 0.0871 0.58046 0.44347 0.0
C1239 C 0.07331 0.58141 0.48294 0.0
C1240 C 0.96642 0.55324 0.43378 0.0
C1241 C 0.9653 0.57328 0.44816 0.0
H1242 H 0.9749 0.51614 0.40807 0.0
C1243 C 1.00292 0.5324 0.52482 0.0
C1244 C 0.04345 0.49938 0.50004 0.0
C1245 C 1.00349 0.48327 0.60267 0.0
C1246 C 0.98516 0.48631 0.63859 0.0
C1247 C 0.01391 0.46411 0.6366 0.0
C1248 C 0.01669 0.46954 0.61334 0.0
C1249 C 0.99822 0.47255 0.64929 0.0
C1250 C 0.98765 0.49139 0.61532 0.0
C1251 C 1.00659 0.49094 0.57922 0.0
H1252 H 0.0557 0.6265 0.42432 0.0
H1253 H 0.0534 0.61444 0.46475 0.0
H1254 H 0.07783 0.60956 0.39603 0.0
H1255 H 0.0954 0.56717 0.4487 0.0
H1256 H 0.02412 0.45364 0.64492 0.0
H1257 H 0.02927 0.46333 0.60395 0.0
H1258 H 0.99648 0.46862 0.66749 0.0
H1259 H 0.97763 0.50225 0.60732 0.0
C1260 C 0.73667 0.80994 0.23518 0.0
C1261 C 0.71159 0.77589 0.21372 0.0
C1262 C 0.72745 0.787 0.23364 0.0
C1263 C 0.70551 0.78812 0.19508 0.0
C1264 C 0.73043 0.82235 0.21668 0.0
C1265 C 0.71495 0.81128 0.19653 0.0
N1266 N 0.75182 0.82007 0.25474 0.0
C1267 C 0.76071 0.84276 0.25742 0.0
C1268 C 0.73997 0.84552 0.21897 0.0
C1269 C 0.75504 0.85579 0.23952 0.0
Gd1270 Gd 0.81971 0.77321 0.28386 0.0
Gd1271 Gd 0.76146 0.79632 0.28271 0.0
N1272 N 0.73441 0.77543 0.25143 0.0
C1273 C 0.70242 0.7528 0.21312 0.0
C1274 C 0.72459 0.75337 0.25171 0.0
C1275 C 0.70872 0.74157 0.2324 0.0
H1276 H 0.72864 0.74508 0.26706 0.0
H1277 H 0.70122 0.72391 0.23252 0.0
H1278 H 0.84928 0.8262 0.30197 0.0
H1279 H 0.77203 0.85094 0.27343 0.0
H1280 H 0.87719 0.84698 0.33595 0.0
H1281 H 0.6902 0.74362 0.19812 0.0
H1282 H 0.69353 0.77984 0.17949 0.0
H1283 H 0.80961 0.71867 0.293 0.0
H1284 H 0.73566 0.85565 0.20512 0.0
H1285 H 0.76228 0.87375 0.24161 0.0
H1286 H 0.8901 0.78973 0.38525 0.0
H1287 H 0.71008 0.8205 0.18204 0.0
H1288 H 0.84911 0.71361 0.3593 0.0
H1289 H 0.82119 0.69563 0.32381 0.0
N1290 N 0.83024 0.74951 0.31128 0.0
C1291 C 0.84589 0.75967 0.33041 0.0
C1292 C 0.82155 0.72678 0.3086 0.0
C1293 C 0.84402 0.72384 0.3459 0.0
C1294 C 0.82821 0.71364 0.32592 0.0
C1295 C 0.85315 0.74711 0.3483 0.0
H1296 H 0.87482 0.74877 0.38202 0.0
N1297 N 0.84629 0.79464 0.31538 0.0
C1298 C 0.85443 0.78283 0.33232 0.0
C1299 C 0.87863 0.81732 0.35343 0.0
C1300 C 0.87058 0.79393 0.35203 0.0
C1301 C 0.85469 0.81723 0.31616 0.0
C1302 C 0.87077 0.82897 0.33529 0.0
O1303 O 0.77168 0.78462 0.24561 0.0
O1304 O 0.7912 0.75751 0.25459 0.0
O1305 O 0.84577 0.78455 0.2615 0.0
O1306 O 0.83767 0.74947 0.26738 0.0
O1307 O 0.76359 0.76395 0.29952 0.0
O1308 O 0.78771 0.74605 0.27945 0.0
O1309 O 0.80956 0.78454 0.32105 0.0
O1310 O 0.79001 0.81161 0.31209 0.0
O1311 O 0.73529 0.7858 0.3053 0.0
O1312 O 0.74405 0.82068 0.29897 0.0
O1313 O 0.81665 0.80475 0.26625 0.0
O1314 O 0.79355 0.82331 0.28686 0.0
C1315 C 0.78197 0.76829 0.23863 0.0
C1316 C 0.77049 0.74552 0.29175 0.0
C1317 C 0.87439 0.76305 0.25791 0.0
C1318 C 0.90807 0.76514 0.23741 0.0
C1319 C 0.90632 0.74927 0.27541 0.0
C1320 C 0.88479 0.75326 0.2764 0.0
C1321 C 0.91778 0.75496 0.25603 0.0
C1322 C 0.88629 0.76935 0.23855 0.0
C1323 C 0.8505 0.76457 0.25742 0.0
C1324 C 0.87785 0.78146 0.36987 0.0
C1325 C 0.86913 0.75813 0.36805 0.0
H1326 H 0.89097 0.82648 0.36832 0.0
C1327 C 0.79914 0.80075 0.32803 0.0
C1328 C 0.81067 0.82354 0.27444 0.0
C1329 C 0.70726 0.80815 0.3089 0.0
C1330 C 0.67365 0.8065 0.32948 0.0
C1331 C 0.67611 0.82363 0.29231 0.0
C1332 C 0.69732 0.8189 0.29095 0.0
C1333 C 0.66445 0.81768 0.31148 0.0
C1334 C 0.69514 0.80163 0.32805 0.0
C1335 C 0.73099 0.80598 0.30916 0.0
H1336 H 0.91406 0.74144 0.2896 0.0
H1337 H 0.87609 0.74823 0.29139 0.0
H1338 H 0.93442 0.7515 0.25564 0.0
H1339 H 0.87837 0.77672 0.22405 0.0
H1340 H 0.66876 0.83221 0.27857 0.0
H1341 H 0.70617 0.82413 0.27613 0.0
H1342 H 0.64808 0.82172 0.3122 0.0
H1343 H 0.70267 0.79351 0.34215 0.0
C1344 C 0.82583 0.24875 0.72076 0.0
C1345 C 0.79801 0.23403 0.68546 0.0
C1346 C 0.80598 0.24965 0.70666 0.0
C1347 C 0.80997 0.2173 0.67895 0.0
C1348 C 0.83807 0.23221 0.71403 0.0
C1349 C 0.82996 0.21642 0.69317 0.0
N1350 N 0.83278 0.26364 0.74145 0.0
C1351 C 0.8525 0.26377 0.75541 0.0
C1352 C 0.85803 0.23192 0.72861 0.0
C1353 C 0.86537 0.24791 0.74924 0.0
Gd1354 Gd 0.76956 0.28369 0.81083 0.0
Gd1355 Gd 0.80924 0.28859 0.75115 0.0
N1356 N 0.79436 0.2656 0.71387 0.0
C1357 C 0.77828 0.23572 0.67138 0.0
C1358 C 0.77605 0.26833 0.69916 0.0
C1359 C 0.76748 0.25319 0.67805 0.0
H1360 H 0.76805 0.2823 0.70317 0.0
H1361 H 0.75264 0.25514 0.66682 0.0
H1362 H 0.814 0.29296 0.85706 0.0
H1363 H 0.85856 0.27622 0.77119 0.0
H1364 H 0.83299 0.32357 0.88875 0.0
H1365 H 0.77155 0.22399 0.65504 0.0
H1366 H 0.80397 0.20503 0.66287 0.0
H1367 H 0.71877 0.29338 0.79621 0.0
H1368 H 0.86794 0.21951 0.72402 0.0
H1369 H 0.88094 0.24802 0.76044 0.0
H1370 H 0.78322 0.37528 0.89162 0.0
H1371 H 0.83904 0.20346 0.68785 0.0
H1372 H 0.7131 0.35428 0.83929 0.0
H1373 H 0.69681 0.32215 0.80707 0.0
N1374 N 0.74681 0.30867 0.82256 0.0
C1375 C 0.75578 0.32578 0.8407 0.0
C1376 C 0.72585 0.3071 0.81062 0.0
C1377 C 0.72265 0.34152 0.83485 0.0
C1378 C 0.7134 0.32341 0.81665 0.0
C1379 C 0.74412 0.34291 0.84711 0.0
H1380 H 0.74572 0.37436 0.87033 0.0
N1381 N 0.78725 0.30908 0.84614 0.0
C1382 C 0.77684 0.32622 0.85261 0.0
C1383 C 0.80765 0.34328 0.88398 0.0
C1384 C 0.78686 0.34391 0.87144 0.0
C1385 C 0.80665 0.30751 0.85981 0.0
C1386 C 0.81735 0.32474 0.87846 0.0
O1387 O 0.79666 0.2517 0.75381 0.0
O1388 O 0.78292 0.27142 0.77949 0.0
O1389 O 0.76813 0.25587 0.83178 0.0
O1390 O 0.73766 0.26093 0.81199 0.0
O1391 O 0.77255 0.29436 0.74458 0.0
O1392 O 0.74896 0.28111 0.77322 0.0
O1393 O 0.77641 0.31798 0.7992 0.0
O1394 O 0.80722 0.30983 0.78609 0.0
O1395 O 0.81025 0.31631 0.72979 0.0
O1396 O 0.84114 0.30757 0.7443 0.0
O1397 O 0.8052 0.27575 0.81761 0.0
O1398 O 0.82878 0.28953 0.78937 0.0
C1399 C 0.78422 0.25135 0.77062 0.0
C1400 C 0.75245 0.28887 0.75221 0.0
C1401 C 0.73509 0.24605 0.84937 0.0
C1402 C 0.73582 0.23294 0.88902 0.0
C1403 C 0.70263 0.24434 0.87077 0.0
C1404 C 0.71312 0.24914 0.85048 0.0
C1405 C 0.71381 0.23615 0.88988 0.0
C1406 C 0.74633 0.23821 0.86878 0.0
C1407 C 0.74637 0.24994 0.82789 0.0
C1408 C 0.77566 0.36143 0.87742 0.0
C1409 C 0.75428 0.36088 0.86534 0.0
H1410 H 0.81596 0.35658 0.89846 0.0
C1411 C 0.79393 0.32409 0.7884 0.0
C1412 C 0.82537 0.28117 0.81016 0.0
C1413 C 0.84083 0.32269 0.70708 0.0
C1414 C 0.83742 0.33587 0.66761 0.0
C1415 C 0.87132 0.32393 0.68275 0.0
C1416 C 0.86239 0.31927 0.70394 0.0
C1417 C 0.859 0.33229 0.6647 0.0
C1418 C 0.82842 0.33084 0.68878 0.0
C1419 C 0.83194 0.31972 0.73011 0.0
H1420 H 0.68566 0.24664 0.87153 0.0
H1421 H 0.704 0.25509 0.83569 0.0
H1422 H 0.705 0.23188 0.90501 0.0
H1423 H 0.76339 0.23614 0.86804 0.0
H1424 H 0.88801 0.32146 0.68049 0.0
H1425 H 0.87249 0.31334 0.71796 0.0
H1426 H 0.86659 0.33645 0.64876 0.0
H1427 H 0.8118 0.33353 0.69113 0.0
C1428 C 0.85035 0.83154 0.82547 0.0
C1429 C 0.87284 0.84961 0.79708 0.0
C1430 C 0.85225 0.83754 0.80245 0.0
C1431 C 0.89151 0.85548 0.81513 0.0
C1432 C 0.869 0.83798 0.84381 0.0
C1433 C 0.88957 0.84977 0.83845 0.0
N1434 N 0.83008 0.82049 0.83028 0.0
C1435 C 0.82722 0.81652 0.85343 0.0
C1436 C 0.86628 0.833 0.86723 0.0
C1437 C 0.84526 0.82239 0.87208 0.0
Gd1438 Gd 0.77233 0.75345 0.76112 0.0
Gd1439 Gd 0.8004 0.81356 0.79787 0.0
N1440 N 0.83381 0.83199 0.7854 0.0
C1441 C 0.87392 0.85595 0.77389 0.0
C1442 C 0.83448 0.8395 0.76338 0.0
C1443 C 0.85457 0.85104 0.75703 0.0
H1444 H 0.8195 0.83714 0.75091 0.0
H1445 H 0.85498 0.85657 0.73932 0.0
H1446 H 0.75322 0.7201 0.8013 0.0
H1447 H 0.81085 0.80971 0.85799 0.0
H1448 H 0.71739 0.69845 0.80985 0.0
H1449 H 0.88942 0.86519 0.76906 0.0
H1450 H 0.90741 0.86483 0.81136 0.0
H1451 H 0.76152 0.7683 0.705 0.0
H1452 H 0.88014 0.83783 0.88182 0.0
H1453 H 0.84282 0.81915 0.89032 0.0
H1454 H 0.66419 0.7071 0.74435 0.0
H1455 H 0.90401 0.85485 0.85233 0.0
H1456 H 0.69144 0.74764 0.6816 0.0
H1457 H 0.72922 0.76646 0.6746 0.0
N1458 N 0.7424 0.75406 0.73106 0.0
C1459 C 0.72185 0.74271 0.73482 0.0
C1460 C 0.74515 0.76189 0.70941 0.0
C1461 C 0.70555 0.7494 0.69563 0.0
C1462 C 0.72681 0.76014 0.69166 0.0
C1463 C 0.7029 0.74013 0.71716 0.0
H1464 H 0.66746 0.72541 0.70758 0.0
N1465 N 0.73861 0.73415 0.77199 0.0
C1466 C 0.71993 0.73244 0.75578 0.0
C1467 C 0.69814 0.70762 0.77945 0.0
C1468 C 0.69913 0.71927 0.75926 0.0
C1469 C 0.73796 0.72135 0.79055 0.0
C1470 C 0.71773 0.7084 0.79495 0.0
O1471 O 0.82721 0.7959 0.78174 0.0
O1472 O 0.81095 0.76025 0.76078 0.0
O1473 O 0.77481 0.71902 0.76422 0.0
O1474 O 0.76922 0.72919 0.7286 0.0
O1475 O 0.78256 0.81098 0.75944 0.0
O1476 O 0.79014 0.77916 0.73968 0.0
O1477 O 0.74731 0.77589 0.77262 0.0
O1478 O 0.765 0.79945 0.80723 0.0
O1479 O 0.78772 0.84314 0.78851 0.0
O1480 O 0.80248 0.84184 0.82568 0.0
O1481 O 0.78417 0.75177 0.80092 0.0
O1482 O 0.78942 0.78768 0.82258 0.0
C1483 C 0.82891 0.77663 0.76893 0.0
C1484 C 0.78755 0.8001 0.73985 0.0
C1485 C 0.78616 0.69742 0.73197 0.0
C1486 C 0.80771 0.66879 0.7399 0.0
C1487 C 0.79688 0.67479 0.69849 0.0
C1488 C 0.78602 0.69167 0.70696 0.0
C1489 C 0.8076 0.66328 0.71483 0.0
C1490 C 0.79727 0.68605 0.7483 0.0
C1491 C 0.77228 0.71284 0.74091 0.0
C1492 C 0.68023 0.71722 0.74198 0.0
C1493 C 0.6821 0.72763 0.72103 0.0
H1494 H 0.68254 0.69718 0.78261 0.0
C1495 C 0.74635 0.78912 0.79286 0.0
C1496 C 0.78663 0.76556 0.82144 0.0
C1497 C 0.78895 0.87562 0.81892 0.0
C1498 C 0.77224 0.90755 0.81065 0.0
C1499 C 0.79068 0.90648 0.85104 0.0
C1500 C 0.79567 0.88566 0.84312 0.0
C1501 C 0.77899 0.91741 0.83493 0.0
C1502 C 0.77728 0.88665 0.8028 0.0
C1503 C 0.79291 0.85312 0.81084 0.0
H1504 H 0.79651 0.67024 0.67919 0.0
H1505 H 0.77707 0.69982 0.69398 0.0
H1506 H 0.81525 0.6497 0.70788 0.0
H1507 H 0.79734 0.69017 0.76765 0.0
H1508 H 0.79586 0.91414 0.8697 0.0
H1509 H 0.80459 0.87736 0.85599 0.0
H1510 H 0.77551 0.93368 0.84136 0.0
H1511 H 0.77169 0.87875 0.78423 0.0
C1512 C 0.49706 0.47566 0.4836 0.0
C1513 C 0.48032 0.45007 0.51017 0.0
C1514 C 0.49194 0.47164 0.5065 0.0
C1515 C 0.47355 0.43277 0.49044 0.0
C1516 C 0.49051 0.45819 0.46381 0.0
C1517 C 0.47862 0.43682 0.46734 0.0
N1518 N 0.5081 0.49669 0.48059 0.0
C1519 C 0.51318 0.50127 0.45823 0.0
C1520 C 0.49586 0.46277 0.44097 0.0
C1521 C 0.50731 0.48437 0.4382 0.0
Gd1522 Gd 0.5706 0.55278 0.55162 0.0
Gd1523 Gd 0.51369 0.52447 0.51478 0.0
N1524 N 0.49854 0.48875 0.52525 0.0
C1525 C 0.47575 0.44654 0.53355 0.0
C1526 C 0.49404 0.48536 0.54804 0.0
C1527 C 0.48276 0.46425 0.55259 0.0
H1528 H 0.49951 0.49871 0.56284 0.0
H1529 H 0.47945 0.46169 0.57078 0.0
H1530 H 0.59221 0.57224 0.50365 0.0
H1531 H 0.52086 0.51816 0.45541 0.0
H1532 H 0.60611 0.60861 0.48949 0.0
H1533 H 0.46689 0.43022 0.5371 0.0
H1534 H 0.46441 0.41618 0.49287 0.0
H1535 H 0.57297 0.56391 0.61182 0.0
H1536 H 0.49104 0.44982 0.42532 0.0
H1537 H 0.51122 0.48815 0.42052 0.0
H1538 H 0.6093 0.66329 0.55902 0.0
H1539 H 0.47326 0.42329 0.45229 0.0
H1540 H 0.59076 0.63558 0.63258 0.0
H1541 H 0.5791 0.59705 0.64349 0.0
N1542 N 0.57688 0.58341 0.58302 0.0
C1543 C 0.5845 0.60432 0.57685 0.0
C1544 C 0.57557 0.58068 0.60671 0.0
C1545 C 0.58683 0.62111 0.61852 0.0
C1546 C 0.58009 0.59942 0.62473 0.0
C1547 C 0.58959 0.62375 0.59444 0.0
H1548 H 0.60213 0.6601 0.60097 0.0
N1549 N 0.58464 0.5869 0.53692 0.0
C1550 C 0.58866 0.60611 0.55317 0.0
C1551 C 0.60332 0.62832 0.523 0.0
C1552 C 0.59787 0.62738 0.54654 0.0
C1553 C 0.59198 0.58758 0.51488 0.0
C1554 C 0.60073 0.60825 0.50724 0.0
O1555 O 0.53496 0.49828 0.52676 0.0
O1556 O 0.55904 0.51632 0.56091 0.0
O1557 O 0.60194 0.54502 0.5423 0.0
O1558 O 0.5993 0.55789 0.57915 0.0
O1559 O 0.51203 0.53968 0.55352 0.0
O1560 O 0.54558 0.53965 0.57643 0.0
O1561 O 0.54728 0.57778 0.54198 0.0
O1562 O 0.52697 0.56061 0.50585 0.0
O1563 O 0.48359 0.53529 0.52461 0.0
O1564 O 0.48551 0.52184 0.48704 0.0
O1565 O 0.5707 0.5345 0.51324 0.0
O1566 O 0.53905 0.54092 0.49281 0.0
C1567 C 0.54861 0.49733 0.54673 0.0
C1568 C 0.524 0.53981 0.57459 0.0
C1569 C 0.62397 0.53323 0.57377 0.0
C1570 C 0.65115 0.51006 0.5674 0.0
C1571 C 0.636 0.51216 0.60547 0.0
C1572 C 0.62293 0.52692 0.59716 0.0
C1573 C 0.65013 0.50368 0.59061 0.0
C1574 C 0.63816 0.52474 0.55908 0.0
C1575 C 0.61162 0.54963 0.56472 0.0
C1576 C 0.6022 0.64684 0.5638 0.0
C1577 C 0.59811 0.64502 0.58769 0.0
H1578 H 0.61049 0.6443 0.51722 0.0
C1579 C 0.5353 0.5793 0.52123 0.0
C1580 C 0.55914 0.53693 0.49281 0.0
C1581 C 0.45126 0.53375 0.49434 0.0
C1582 C 0.41913 0.54959 0.503 0.0
C1583 C 0.42162 0.53385 0.46186 0.0
C1584 C 0.44208 0.52854 0.46976 0.0
C1585 C 0.41022 0.54448 0.47835 0.0
C1586 C 0.43956 0.54402 0.51094 0.0
C1587 C 0.4739 0.53052 0.50217 0.0
H1588 H 0.63537 0.50751 0.62353 0.0
H1589 H 0.61228 0.53352 0.60908 0.0
H1590 H 0.66051 0.49255 0.59728 0.0
H1591 H 0.63943 0.52983 0.54121 0.0
H1592 H 0.41469 0.52996 0.44289 0.0
H1593 H 0.4509 0.52077 0.45655 0.0
H1594 H 0.39438 0.54854 0.47189 0.0
H1595 H 0.44666 0.54842 0.52987 0.0
C1596 C 0.08914 0.58256 0.99549 0.0
C1597 C 0.11667 0.60684 0.02705 0.0
C1598 C 0.10087 0.5864 0.01895 0.0
C1599 C 0.12031 0.62351 0.01163 0.0
C1600 C 0.09338 0.59919 0.97984 0.0
C1601 C 0.10869 0.61971 0.98814 0.0
N1602 N 0.07445 0.5624 0.98764 0.0
C1603 C 0.06542 0.55722 0.96369 0.0
C1604 C 0.08261 0.59454 0.95597 0.0
C1605 C 0.06889 0.57334 0.94779 0.0
Gd1606 Gd 1.00681 0.53011 0.04755 0.0
Gd1607 Gd 0.07033 0.53754 0.0173 0.0
N1608 N 0.09695 0.5702 0.03386 0.0
C1609 C 0.12859 0.60986 0.05037 0.0
C1610 C 0.10965 0.57242 0.05586 0.0
C1611 C 0.12529 0.59243 0.0647 0.0
H1612 H 0.10828 0.55858 0.06629 0.0
H1613 H 0.13505 0.59422 0.08238 0.0
H1614 H 0.96795 0.50755 1.00069 0.0
H1615 H 0.05594 0.54056 0.95619 0.0
H1616 H 0.93999 0.47193 0.98722 0.0
H1617 H 0.14082 0.62533 0.0572 0.0
H1618 H 0.13227 0.63933 0.01762 0.0
H1619 H 0.02072 0.53168 0.10941 0.0
H1620 H 0.08545 0.60688 0.94346 0.0
H1621 H 0.0613 0.56922 0.92903 0.0
H1622 H 0.94542 0.4298 0.0544 0.0
H1623 H 0.11198 0.63264 0.97636 0.0
H1624 H 0.99263 0.46654 0.12698 0.0
H1625 H 0.01583 0.50505 0.13906 0.0
N1626 N 1.00301 0.50764 0.07931 0.0
C1627 C 0.98885 0.48697 0.07263 0.0
C1628 C 0.01167 0.51455 0.10316 0.0
C1629 C 0.99533 0.47791 0.11347 0.0
C1630 C 1.00849 0.49962 0.12035 0.0
C1631 C 0.98478 0.47157 0.08959 0.0
H1632 H 0.9665 0.43867 0.09536 0.0
N1633 N 0.98059 0.49681 0.03315 0.0
C1634 C 0.97699 0.48167 0.04923 0.0
C1635 C 0.94774 0.45758 0.01986 0.0
C1636 C 0.96074 0.46133 0.0427 0.0
C1637 C 0.96683 0.49409 0.01175 0.0
C1638 C 0.95057 0.47422 0.00447 0.0
O1639 O 0.06133 0.57116 0.03605 0.0
O1640 O 0.02797 0.56713 0.05472 0.0
O1641 O 0.982 0.54686 0.03014 0.0
O1642 O 0.9804 0.53874 0.06666 0.0
O1643 O 0.05467 0.52447 0.04842 0.0
O1644 O 0.03685 0.54091 0.07546 0.0
O1645 O 0.01389 0.49652 0.02706 0.0
O1646 O 0.05009 0.50064 0.01493 0.0
O1647 O 0.0999 0.5242 0.03089 0.0
O1648 O 0.08964 0.5241 0.99204 0.0
O1649 O 0.02551 0.54085 0.01816 0.0
O1650 O 0.04091 0.52685 0.98845 0.0
C1651 C 0.0465 0.57982 0.04845 0.0
C1652 C 0.05554 0.53646 0.06931 0.0
C1653 C 0.96672 0.57075 0.05764 0.0
C1654 C 0.94005 0.59584 0.05794 0.0
C1655 C 0.9736 0.60434 0.08757 0.0
C1656 C 0.98008 0.58496 0.07758 0.0
C1657 C 0.95367 0.60969 0.07795 0.0
C1658 C 0.9468 0.57644 0.04759 0.0
C1659 C 0.97204 0.54869 0.04947 0.0
C1660 C 0.95757 0.44565 0.05926 0.0
C1661 C 0.96962 0.45071 0.08258 0.0
H1662 H 0.93504 0.44222 0.01425 0.0
C1663 C 0.03036 0.48793 0.01789 0.0
C1664 C 0.02281 0.53058 0.99628 0.0
C1665 C 0.12241 0.50869 1.00138 0.0
C1666 C 0.15206 0.48754 0.00881 0.0
C1667 C 0.14339 0.49828 0.96896 0.0
C1668 C 0.12684 0.50868 0.97723 0.0
C1669 C 0.1559 0.48777 0.98459 0.0
C1670 C 0.13522 0.49804 0.01733 0.0
C1671 C 0.10365 0.51892 0.00865 0.0
H1672 H 0.98378 0.61497 0.10318 0.0
H1673 H 0.99514 0.58062 0.08598 0.0
H1674 H 0.94879 0.62466 0.08622 0.0
H1675 H 0.93613 0.56532 0.03254 0.0
H1676 H 0.1465 0.49833 0.95031 0.0
H1677 H 0.11737 0.51663 0.9645 0.0
H1678 H 0.1687 0.47974 0.97777 0.0
H1679 H 0.13204 0.49773 0.03595 0.0
C1680 C 1.00371 0.20259 1.00029 0.0
C1681 C 1.01051 0.21166 0.97935 0.0
C1682 C 1.00771 0.18133 0.00661 0.0
C1683 C 0.01902 0.16775 0.99195 0.0
C1684 C 0.02605 0.17677 0.9708 0.0
C1685 C 0.02181 0.19819 0.96485 0.0
C1686 C 0.9997 0.17337 0.02933 0.0
C1687 C 0.03827 0.16371 0.95428 0.0
C1688 C 0.0456 0.1216 0.02215 0.0
C1689 C 0.03088 0.1007 0.01277 0.0
C1690 C 0.04251 0.1429 0.015 0.0
C1691 C 0.02335 0.14445 0.99878 0.0
C1692 C 1.00801 0.12349 0.98985 0.0
C1693 C 0.01213 0.10227 0.99639 0.0
C1694 C 0.06008 0.16392 0.02483 0.0
C1695 C 0.98673 0.12345 0.9736 0.0
H1696 H 0.99511 0.21226 0.0121 0.0
H1697 H 0.02741 0.20438 0.94867 0.0
H1698 H 0.98906 0.15605 0.02507 0.0
H1699 H 0.01429 0.17248 0.04248 0.0
H1700 H 0.98996 0.18479 0.03816 0.0
H1701 H 0.04349 0.17294 0.93911 0.0
H1702 H 0.05337 0.16025 0.96477 0.0
H1703 H 0.02732 0.14709 0.94661 0.0
H1704 H 0.05993 0.1214 0.03504 0.0
H1705 H 1.00015 0.08677 0.989 0.0
H1706 H 0.05277 0.17575 0.03648 0.0
H1707 H 0.06589 0.17283 0.00968 0.0
H1708 H 0.07482 0.16005 0.03564 0.0
H1709 H 0.97667 0.13403 0.98315 0.0
H1710 H 0.97632 0.10612 0.96806 0.0
H1711 H 0.99078 0.13107 0.9571 0.0
C1712 C 0.13973 0.78392 0.15645 0.0
C1713 C 0.13656 0.80514 0.15063 0.0
C1714 C 0.15798 0.78176 0.1734 0.0
C1715 C 0.17377 0.80129 0.18536 0.0
C1716 C 0.17032 0.82283 0.17986 0.0
C1717 C 0.15207 0.82447 0.16254 0.0
C1718 C 0.16059 0.75838 0.17813 0.0
C1719 C 0.18611 0.84429 0.19217 0.0
C1720 C 0.21109 0.79418 0.24367 0.0
C1721 C 0.23203 0.79334 0.23585 0.0
C1722 C 0.19248 0.79748 0.22793 0.0
C1723 C 0.19403 0.79907 0.20298 0.0
C1724 C 0.21503 0.79808 0.19486 0.0
C1725 C 0.23365 0.79587 0.21128 0.0
C1726 C 0.17109 0.79937 0.23816 0.0
C1727 C 0.21776 0.79889 0.16851 0.0
H1728 H 0.12808 0.76882 0.14729 0.0
H1729 H 0.15003 0.84095 0.15815 0.0
H1730 H 0.17738 0.75578 0.17444 0.0
H1731 H 0.15948 0.75662 0.19748 0.0
H1732 H 0.14759 0.74482 0.16681 0.0
H1733 H 0.18012 0.85971 0.18792 0.0
H1734 H 0.18818 0.84437 0.21212 0.0
H1735 H 0.20289 0.84508 0.1863 0.0
H1736 H 0.20914 0.79251 0.2623 0.0
H1737 H 0.2495 0.79575 0.20455 0.0
H1738 H 0.15771 0.78441 0.23045 0.0
H1739 H 0.1653 0.81462 0.233 0.0
H1740 H 0.17317 0.80041 0.25824 0.0
H1741 H 0.2057 0.78457 0.15715 0.0
H1742 H 0.23498 0.79788 0.16482 0.0
H1743 H 0.21389 0.81476 0.16279 0.0
C1744 C 0.52025 0.85816 0.45935 0.0
C1745 C 0.51257 0.84075 0.47316 0.0
C1746 C 0.52229 0.88161 0.46769 0.0
C1747 C 0.51629 0.88881 0.49066 0.0
C1748 C 0.5084 0.87138 0.50477 0.0
C1749 C 0.50675 0.84788 0.49604 0.0
C1750 C 0.53108 0.89884 0.45173 0.0
C1751 C 0.5016 0.8776 0.52925 0.0
C1752 C 0.54248 0.95153 0.51878 0.0
C1753 C 0.52514 0.96331 0.51387 0.0
C1754 C 0.53955 0.92762 0.51235 0.0
C1755 C 0.51886 0.9144 0.4998 0.0
C1756 C 0.50123 0.92622 0.49484 0.0
C1757 C 0.50445 0.95013 0.5021 0.0
C1758 C 0.55891 0.91648 0.51886 0.0
C1759 C 0.47899 0.91368 0.48112 0.0
H1760 H 0.52499 0.85346 0.44172 0.0
H1761 H 0.50071 0.83507 0.50713 0.0
H1762 H 0.51881 0.90968 0.44813 0.0
H1763 H 0.54683 0.91011 0.46114 0.0
H1764 H 0.53452 0.89082 0.43412 0.0
H1765 H 0.49632 0.86252 0.53844 0.0
H1766 H 0.51576 0.88942 0.54102 0.0
H1767 H 0.48752 0.88656 0.5272 0.0
H1768 H 0.55857 0.9611 0.52795 0.0
H1769 H 0.4909 0.95867 0.49773 0.0
H1770 H 0.56482 0.90971 0.5021 0.0
H1771 H 0.5534 0.90195 0.52874 0.0
H1772 H 0.57323 0.92843 0.5303 0.0
H1773 H 0.48133 0.90724 0.46245 0.0
H1774 H 0.46645 0.92461 0.47997 0.0
H1775 H 0.47222 0.89878 0.48992 0.0
C1776 C 0.5094 0.28011 0.66517 0.0
C1777 C 0.51223 0.2949 0.64766 0.0
C1778 C 0.4904 0.27753 0.67749 0.0
C1779 C 0.47399 0.29066 0.67294 0.0
C1780 C 0.47704 0.30606 0.65567 0.0
C1781 C 0.49588 0.3077 0.64295 0.0
C1782 C 0.48777 0.2605 0.69523 0.0
C1783 C 0.46063 0.32112 0.65097 0.0
C1784 C 0.41648 0.26438 0.68876 0.0
C1785 C 0.41748 0.27419 0.71286 0.0
C1786 C 0.43406 0.27069 0.67505 0.0
C1787 C 0.45332 0.28729 0.68558 0.0
C1788 C 0.45359 0.29855 0.70929 0.0
C1789 C 0.43577 0.29176 0.7227 0.0
C1790 C 0.43279 0.25815 0.64995 0.0
C1791 C 0.47343 0.31666 0.72123 0.0
H1792 H 0.52197 0.27021 0.669 0.0
H1793 H 0.49815 0.31952 0.62982 0.0
H1794 H 0.48718 0.26918 0.71356 0.0
H1795 H 0.4717 0.248 0.6898 0.0
H1796 H 0.50168 0.25122 0.69633 0.0
H1797 H 0.46517 0.33207 0.63687 0.0
H1798 H 0.4435 0.31073 0.64515 0.0
H1799 H 0.46005 0.33211 0.66799 0.0
H1800 H 0.40257 0.25056 0.6812 0.0
H1801 H 0.4369 0.29911 0.74145 0.0
H1802 H 0.44525 0.24714 0.65011 0.0
H1803 H 0.437 0.27023 0.63685 0.0
H1804 H 0.4159 0.2474 0.64343 0.0
H1805 H 0.48733 0.30859 0.72762 0.0
H1806 H 0.46923 0.32693 0.73709 0.0
H1807 H 0.47958 0.32812 0.70817 0.0
C1808 C 0.04937 0.82049 0.65944 0.0
C1809 C 0.03221 0.81589 0.67389 0.0
C1810 C 0.05137 0.83904 0.64618 0.0
C1811 C 0.03529 0.85296 0.64651 0.0
C1812 C 0.0177 0.84817 0.66087 0.0
C1813 C 0.0166 0.82995 0.67471 0.0
C1814 C 0.07066 0.84359 0.63159 0.0
C1815 C 0.99958 0.86175 0.66087 0.0
C1816 C 0.05565 0.9114 0.62805 0.0
C1817 C 0.04875 0.90766 0.60296 0.0
C1818 C 0.05012 0.89423 0.6427 0.0
C1819 C 0.03735 0.87264 0.63208 0.0
C1820 C 0.02888 0.86937 0.60701 0.0
C1821 C 0.03486 0.88682 0.59273 0.0
C1822 C 0.05964 0.89862 0.6692 0.0
C1823 C 0.01492 0.84688 0.59478 0.0
H1824 H 0.06127 0.80949 0.65849 0.0
H1825 H 1.0029 0.82604 0.68527 0.0
H1826 H 0.06416 0.84157 0.61202 0.0
H1827 H 0.08018 0.86131 0.63676 0.0
H1828 H 0.08238 0.83198 0.63424 0.0
H1829 H 0.98721 0.85616 0.6732 0.0
H1830 H 1.00707 0.88 0.66642 0.0
H1831 H 0.9906 0.86001 0.64223 0.0
H1832 H 0.06685 0.92727 0.63592 0.0
H1833 H 0.02996 0.8836 0.57326 0.0
H1834 H 0.07263 0.88849 0.67247 0.0
H1835 H 0.04637 0.89323 0.68055 0.0
H1836 H 0.06736 0.91679 0.67523 0.0
H1837 H 0.02607 0.83489 0.59119 0.0
H1838 H 1.00549 0.84854 0.57719 0.0
H1839 H 1.00286 0.83938 0.60655 0.0
C1840 C 0.47515 0.8176 0.82271 0.0
C1841 C 0.48129 0.81222 0.84609 0.0
C1842 C 0.452 0.81444 0.81235 0.0
C1843 C 0.4341 0.80579 0.82544 0.0
C1844 C 0.4404 0.79966 0.84854 0.0
C1845 C 0.46334 0.80281 0.85826 0.0
C1846 C 0.44671 0.82098 0.78753 0.0
C1847 C 0.42272 0.79017 0.86355 0.0
C1848 C 0.37377 0.81827 0.81574 0.0
C1849 C 0.36026 0.79756 0.80409 0.0
C1850 C 0.39754 0.82145 0.82169 0.0
C1851 C 0.4089 0.80356 0.81598 0.0
C1852 C 0.39537 0.78271 0.80371 0.0
C1853 C 0.37159 0.77996 0.79817 0.0
C1854 C 0.41049 0.84399 0.83481 0.0
C1855 C 0.40605 0.76312 0.79632 0.0
H1856 H 0.4883 0.82503 0.81282 0.0
H1857 H 0.46725 0.7982 0.87614 0.0
H1858 H 0.4338 0.80741 0.77615 0.0
H1859 H 0.43972 0.83652 0.7892 0.0
H1860 H 0.46182 0.82431 0.77815 0.0
H1861 H 0.43005 0.78601 0.88109 0.0
H1862 H 0.41207 0.80262 0.86733 0.0
H1863 H 0.41161 0.77458 0.85335 0.0
H1864 H 0.36565 0.83191 0.82111 0.0
H1865 H 0.36181 0.7639 0.78886 0.0
H1866 H 0.42444 0.85078 0.82486 0.0
H1867 H 0.41803 0.84175 0.85308 0.0
H1868 H 0.39976 0.85667 0.83687 0.0
H1869 H 0.4184 0.76824 0.78384 0.0
H1870 H 0.39353 0.74797 0.78714 0.0
H1871 H 0.41534 0.7584 0.81245 0.0
C1872 C 0.50816 0.18628 0.12749 0.0
C1873 C 0.51905 0.19254 0.15148 0.0
C1874 C 0.50982 0.16607 0.11309 0.0
C1875 C 0.52305 0.1514 0.12244 0.0
C1876 C 0.53341 0.15714 0.14699 0.0
C1877 C 0.53138 0.17751 0.16106 0.0
C1878 C 0.4983 0.16107 0.08728 0.0
C1879 C 0.5479 0.14248 0.15799 0.0
C1880 C 0.51573 0.09032 0.08917 0.0
C1881 C 0.533 0.09226 0.07439 0.0
C1882 C 0.51234 0.10915 0.1047 0.0
C1883 C 0.52677 0.1308 0.1062 0.0
C1884 C 0.5444 0.13279 0.09151 0.0
C1885 C 0.54712 0.11377 0.07575 0.0
C1886 C 0.49308 0.1059 0.1194 0.0
C1887 C 0.56054 0.15515 0.09242 0.0
H1888 H 0.49933 0.19802 0.11939 0.0
H1889 H 0.54078 0.18245 0.17903 0.0
H1890 H 0.51103 0.16206 0.07461 0.0
H1891 H 0.48796 0.14359 0.0838 0.0
H1892 H 0.48738 0.17312 0.08312 0.0
H1893 H 0.55295 0.14773 0.17778 0.0
H1894 H 0.53896 0.12447 0.1549 0.0
H1895 H 0.56327 0.14357 0.14905 0.0
H1896 H 0.50454 0.07399 0.08838 0.0
H1897 H 0.56063 0.11571 0.06471 0.0
H1898 H 0.48168 0.11735 0.11469 0.0
H1899 H 0.49946 0.1105 0.13899 0.0
H1900 H 0.48326 0.08818 0.11631 0.0
H1901 H 0.55142 0.16778 0.08567 0.0
H1902 H 0.57427 0.15373 0.08132 0.0
H1903 H 0.56805 0.16174 0.11142 0.0
C1904 C 0.12864 0.30125 0.35223 0.0
C1905 C 0.11426 0.31248 0.3389 0.0
C1906 C 0.14905 0.29673 0.3444 0.0
C1907 C 0.15677 0.30448 0.32301 0.0
C1908 C 0.14246 0.31616 0.30964 0.0
C1909 C 0.12152 0.31947 0.31728 0.0
C1910 C 0.16235 0.28329 0.35912 0.0
C1911 C 0.14944 0.32562 0.28722 0.0
C1912 C 0.2215 0.31173 0.31802 0.0
C1913 C 0.22305 0.29326 0.30093 0.0
C1914 C 0.20052 0.31572 0.3248 0.0
C1915 C 0.17969 0.30071 0.31506 0.0
C1916 C 0.18116 0.28195 0.29791 0.0
C1917 C 0.20233 0.27874 0.29098 0.0
C1918 C 0.20072 0.33642 0.3424 0.0
C1919 C 0.16027 0.26471 0.28713 0.0
H1920 H 0.12366 0.29546 0.36884 0.0
H1921 H 0.11112 0.32829 0.30658 0.0
H1922 H 0.16587 0.2689 0.3472 0.0
H1923 H 0.17872 0.29415 0.36734 0.0
H1924 H 0.15343 0.27653 0.37384 0.0
H1925 H 0.13826 0.33653 0.28034 0.0
H1926 H 0.16689 0.33569 0.29106 0.0
H1927 H 0.1491 0.31152 0.27271 0.0
H1928 H 0.23685 0.32351 0.32603 0.0
H1929 H 0.20256 0.26447 0.27781 0.0
H1930 H 0.19452 0.33125 0.35923 0.0
H1931 H 0.18923 0.34654 0.33446 0.0
H1932 H 0.21775 0.34737 0.34727 0.0
H1933 H 0.15297 0.25601 0.30173 0.0
H1934 H 0.16364 0.25176 0.2732 0.0
H1935 H 0.14748 0.27316 0.27876 0.0
C1936 C 0.98672 0.03857 0.20618 0.0
C1937 C 0.96792 0.02154 0.20724 0.0
C1938 C 0.99428 0.04283 0.1839 0.0
C1939 C 0.98325 0.02923 0.16205 0.0
C1940 C 0.96395 0.01224 0.16303 0.0
C1941 C 0.95638 0.00878 0.18555 0.0
C1942 C 0.01455 0.06145 0.18385 0.0
C1943 C 0.952 0.9969 0.14044 0.0
C1944 C 0.99577 0.04721 0.10031 0.0
C1945 C 0.01269 0.03558 0.09507 0.0
C1946 C 0.98613 0.04552 0.12206 0.0
C1947 C 0.99312 0.0314 0.1387 0.0
C1948 C 1.00993 0.01936 0.13317 0.0
C1949 C 0.01959 0.02177 0.1117 0.0
C1950 C 0.96866 0.05905 0.12736 0.0
C1951 C 0.01775 1.00379 0.14995 0.0
H1952 H 0.99574 0.0484 0.22293 0.0
H1953 H 0.94205 0.99537 0.18634 0.0
H1954 H 0.02874 0.054 0.1786 0.0
H1955 H 0.01091 0.07269 0.17025 0.0
H1956 H 0.01992 0.07189 0.20188 0.0
H1957 H 0.9364 0.98563 0.14383 0.0
H1958 H 0.94771 1.00705 0.126 0.0
H1959 H 0.96328 0.98621 0.13347 0.0
H1960 H 0.99034 0.05793 0.08762 0.0
H1961 H 0.03244 0.01247 0.10774 0.0
H1962 H 0.97422 0.07029 0.14487 0.0
H1963 H 0.95272 0.0475 0.12922 0.0
H1964 H 0.96535 0.06961 0.11293 0.0
H1965 H 0.02561 0.01367 0.16768 0.0
H1966 H 0.0301 0.99473 0.14246 0.0
H1967 H 1.00322 0.99105 0.15338 0.0
C1968 C 0.25911 0.65534 0.48564 0.0
C1969 C 0.27959 0.6615 0.50067 0.0
C1970 C 0.2542 0.66816 0.46726 0.0
C1971 C 0.27051 0.68706 0.46362 0.0
C1972 C 0.29177 0.69249 0.47798 0.0
C1973 C 0.29589 0.67984 0.49679 0.0
C1974 C 0.23119 0.66218 0.45258 0.0
C1975 C 0.30976 0.71214 0.4742 0.0
C1976 C 0.25694 0.706 0.40303 0.0
C1977 C 0.24585 0.72355 0.40927 0.0
C1978 C 0.26673 0.69518 0.42081 0.0
C1979 C 0.26468 0.70149 0.44535 0.0
C1980 C 0.25445 0.71982 0.45196 0.0
C1981 C 0.24524 0.73074 0.4338 0.0
C1982 C 0.27828 0.67625 0.41322 0.0
C1983 C 0.25204 0.72709 0.47805 0.0
H1984 H 0.24645 0.64139 0.48924 0.0
H1985 H 0.31163 0.68457 0.50885 0.0
H1986 H 0.22259 0.67655 0.4554 0.0
H1987 H 0.23263 0.65921 0.43297 0.0
H1988 H 0.22054 0.64683 0.45759 0.0
H1989 H 0.32627 0.71195 0.48445 0.0
H1990 H 0.31156 0.71185 0.45468 0.0
H1991 H 0.30497 0.72832 0.48035 0.0
H1992 H 0.25739 0.70014 0.38413 0.0
H1993 H 0.23726 0.74468 0.4388 0.0
H1994 H 0.26751 0.65973 0.41502 0.0
H1995 H 0.29436 0.67791 0.42514 0.0
H1996 H 0.2817 0.67598 0.39412 0.0
H1997 H 0.2387 0.71446 0.48384 0.0
H1998 H 0.24747 0.74394 0.48055 0.0
H1999 H 0.26778 0.72781 0.49018 0.0
C2000 C 0.65527 0.04608 0.67753 0.0
C2001 C 0.64343 0.04855 0.69736 0.0
C2002 C 0.64394 0.04176 0.65383 0.0
C2003 C 0.62046 0.03987 0.6503 0.0
C2004 C 0.60835 0.04093 0.67029 0.0
C2005 C 0.62002 0.04538 0.69356 0.0
C2006 C 0.65707 0.0403 0.63266 0.0
C2007 C 0.58313 0.03847 0.66716 0.0
C2008 C 0.58615 0.05941 0.60133 0.0
C2009 C 0.57519 0.03878 0.58797 0.0
C2010 C 0.60367 0.06012 0.61963 0.0
C2011 C 0.60838 0.03949 0.62615 0.0
C2012 C 0.59734 0.01855 0.61247 0.0
C2013 C 0.58123 0.01855 0.59285 0.0
C2014 C 0.61594 0.0828 0.63319 0.0
C2015 C 0.60107 0.9962 0.61974 0.0
H2016 H 0.67335 0.04815 0.68047 0.0
H2017 H 0.61068 0.04667 0.70881 0.0
H2018 H 0.64955 0.0248 0.61975 0.0
H2019 H 0.65635 0.05501 0.62269 0.0
H2020 H 0.67492 0.04012 0.6385 0.0
H2021 H 0.57617 0.03723 0.68458 0.0
H2022 H 0.57864 0.05338 0.6596 0.0
H2023 H 0.57489 0.02317 0.65424 0.0
H2024 H 0.58126 0.07494 0.59713 0.0
H2025 H 0.5722 1.00262 0.58244 0.0
H2026 H 0.63421 0.08337 0.63653 0.0
H2027 H 0.60993 0.0854 0.65106 0.0
H2028 H 0.61318 0.09699 0.62309 0.0
H2029 H 0.61881 0.99506 0.61915 0.0
H2030 H 0.59018 0.98146 0.60773 0.0
H2031 H 0.59762 0.99496 0.63864 0.0
C2032 C 0.32058 0.34921 0.97098 0.0
C2033 C 0.3057 0.36332 0.97634 0.0
C2034 C 0.31998 0.33839 0.94716 0.0
C2035 C 0.30344 0.34088 0.9284 0.0
C2036 C 0.28793 0.35457 0.93401 0.0
C2037 C 0.28957 0.36598 0.95769 0.0
C2038 C 0.33737 0.32471 0.94193 0.0
C2039 C 0.26934 0.35694 0.91506 0.0
C2040 C 0.31113 0.33218 0.86133 0.0
C2041 C 0.29965 0.30973 0.85383 0.0
C2042 C 0.31328 0.34211 0.88565 0.0
C2043 C 0.30267 0.32976 0.9028 0.0
C2044 C 0.29077 0.30709 0.89514 0.0
C2045 C 0.28989 0.29719 0.87091 0.0
C2046 C 0.3268 0.36596 0.89293 0.0
C2047 C 0.27842 0.29348 0.91234 0.0
H2048 H 0.33309 0.34712 0.98532 0.0
H2049 H 0.27778 0.37657 0.9618 0.0
H2050 H 0.32912 0.3069 0.93489 0.0
H2051 H 0.34683 0.33159 0.92765 0.0
H2052 H 0.34942 0.32481 0.95828 0.0
H2053 H 0.2579 0.36716 0.9226 0.0
H2054 H 0.27651 0.36509 0.90009 0.0
H2055 H 0.25936 0.33992 0.9071 0.0
H2056 H 0.31861 0.34195 0.84812 0.0
H2057 H 0.28075 0.27992 0.86506 0.0
H2058 H 0.33933 0.36658 0.90901 0.0
H2059 H 0.31562 0.37747 0.89808 0.0
H2060 H 0.33572 0.37245 0.87808 0.0
H2061 H 0.2906 0.28981 0.92672 0.0
H2062 H 0.26794 0.27715 0.90298 0.0
H2063 H 0.26746 0.30333 0.92139 0.0
C2064 C 0.98511 0.02335 0.34013 0.0
C2065 C 0.96165 0.01982 0.33532 0.0
C2066 C 0.99612 0.02508 0.36399 0.0
C2067 C 0.98342 0.02283 0.38362 0.0
C2068 C 0.9597 0.01889 0.37877 0.0
C2069 C 0.94917 0.01762 0.35482 0.0
C2070 C 0.0214 0.02959 0.36823 0.0
C2071 C 0.94539 0.01607 0.39894 0.0
C2072 C 1.00995 1.00662 0.44259 0.0
C2073 C 0.01472 0.02712 0.45818 0.0
C2074 C 0.99988 1.00496 0.4184 0.0
C2075 C 0.99484 0.02449 0.40918 0.0
C2076 C 1.00016 0.04546 0.4247 0.0
C2077 C 1.0097 0.04644 0.44901 0.0
C2078 C 0.994 0.9821 0.40293 0.0
C2079 C 0.99574 0.0669 0.41566 0.0
H2080 H 0.99495 0.02523 0.32527 0.0
H2081 H 0.93105 0.01489 0.35136 0.0
H2082 H 0.02799 0.04512 0.38144 0.0
H2083 H 0.02699 0.01536 0.37617 0.0
H2084 H 0.02891 0.03176 0.35125 0.0
H2085 H 0.92718 0.01226 0.39214 0.0
H2086 H 0.9492 1.00216 0.4089 0.0
H2087 H 0.9493 0.03179 0.41214 0.0
H2088 H 0.01322 0.99165 0.44956 0.0
H2089 H 0.01336 0.06243 0.4609 0.0
H2090 H 1.00185 0.98293 0.38604 0.0
H2091 H 0.97558 0.97719 0.39753 0.0
H2092 H 0.99951 0.96866 0.41251 0.0
H2093 H 1.00494 0.07026 0.40002 0.0
H2094 H 1.00094 0.08186 0.4299 0.0
H2095 H 0.97763 0.06488 0.40917 0.0
C2096 C 0.29841 0.67455 0.63902 0.0
C2097 C 0.27719 0.67326 0.62626 0.0
C2098 C 0.30457 0.68748 0.66189 0.0
C2099 C 0.28892 0.69881 0.67182 0.0
C2100 C 0.26656 0.69497 0.66026 0.0
C2101 C 0.26102 0.68235 0.63732 0.0
C2102 C 0.3284 0.69103 0.67407 0.0
C2103 C 0.24921 0.70634 0.67069 0.0
C2104 C 0.29437 0.73321 0.73246 0.0
C2105 C 0.29834 0.75501 0.72617 0.0
C2106 C 0.29361 0.71437 0.7155 0.0
C2107 C 0.29651 0.71777 0.69148 0.0
C2108 C 0.30247 0.73999 0.68539 0.0
C2109 C 0.30344 0.75846 0.70297 0.0
C2110 C 0.28732 0.69097 0.72272 0.0
C2111 C 0.30564 0.74428 0.6598 0.0
H2112 H 0.3108 0.66739 0.6302 0.0
H2113 H 0.24455 0.68098 0.62727 0.0
H2114 H 0.33786 0.70784 0.67118 0.0
H2115 H 0.32891 0.69089 0.69392 0.0
H2116 H 0.33703 0.67787 0.6666 0.0
H2117 H 0.23201 0.69887 0.66133 0.0
H2118 H 0.24947 0.70499 0.6903 0.0
H2119 H 0.25308 0.72463 0.6687 0.0
H2120 H 0.29004 0.73082 0.75004 0.0
H2121 H 0.30686 0.77547 0.69809 0.0
H2122 H 0.29577 0.67888 0.71293 0.0
H2123 H 0.26896 0.68462 0.71806 0.0
H2124 H 0.29166 0.69114 0.74251 0.0
H2125 H 0.31652 0.73353 0.6521 0.0
H2126 H 0.31314 0.76232 0.65888 0.0
H2127 H 0.28913 0.7398 0.64819 0.0
C2128 C 0.67122 0.06779 0.82854 0.0
C2129 C 0.6721 0.04616 0.81797 0.0
C2130 C 0.65553 0.0708 0.84415 0.0
C2131 C 0.64147 0.05153 0.85044 0.0
C2132 C 0.64376 0.02949 0.84153 0.0
C2133 C 0.65882 0.02706 0.82483 0.0
C2134 C 0.65301 0.09459 0.85259 0.0
C2135 C 0.62942 0.00862 0.84843 0.0
C2136 C 0.61748 0.06849 0.90653 0.0
C2137 C 0.59662 0.07212 0.89676 0.0
C2138 C 0.63141 0.05966 0.89173 0.0
C2139 C 0.62459 0.05494 0.86649 0.0
C2140 C 0.60308 0.05741 0.85657 0.0
C2141 C 0.5893 0.06606 0.87192 0.0
C2142 C 0.65408 0.05684 0.90293 0.0
C2143 C 0.59515 0.05245 0.82967 0.0
H2144 H 0.68157 0.08243 0.82309 0.0
H2145 H 0.65921 0.01035 0.81599 0.0
H2146 H 0.63569 0.09644 0.84656 0.0
H2147 H 0.65578 0.09794 0.87268 0.0
H2148 H 0.66492 0.10768 0.84543 0.0
H2149 H 0.63499 0.99292 0.84197 0.0
H2150 H 0.62984 0.01003 0.8684 0.0
H2151 H 0.61174 1.00704 0.84044 0.0
H2152 H 0.62333 0.07334 0.92572 0.0
H2153 H 0.57299 0.06843 0.86444 0.0
H2154 H 0.66732 0.07052 0.89864 0.0
H2155 H 0.65758 0.04044 0.8953 0.0
H2156 H 0.6553 0.05765 0.92296 0.0
H2157 H 0.60247 0.06716 0.82087 0.0
H2158 H 0.57659 0.04957 0.82576 0.0
H2159 H 0.60065 0.0374 0.82131 0.0
C2160 C 0.30346 0.36994 0.12408 0.0
C2161 C 0.30289 0.35429 0.10345 0.0
C2162 C 0.2996 0.36264 0.14674 0.0
C2163 C 0.29441 0.33911 0.1488 0.0
C2164 C 0.29254 0.32334 0.12766 0.0
C2165 C 0.29712 0.33106 0.10553 0.0
C2166 C 0.30199 0.38011 0.16871 0.0
C2167 C 0.28601 0.29815 0.12846 0.0
C2168 C 0.3091 0.3148 0.20736 0.0
C2169 C 0.28902 0.31212 0.21753 0.0
C2170 C 0.31135 0.32483 0.18598 0.0
C2171 C 0.29255 0.33076 0.17313 0.0
C2172 C 0.27191 0.32728 0.18293 0.0
C2173 C 0.27062 0.31875 0.2054 0.0
C2174 C 0.33396 0.32898 0.17709 0.0
C2175 C 0.251 0.33203 0.16951 0.0
H2176 H 0.30785 0.38789 0.12276 0.0
H2177 H 0.29622 0.31875 0.0897 0.0
H2178 H 0.28649 0.37744 0.17743 0.0
H2179 H 0.3159 0.3782 0.18224 0.0
H2180 H 0.30542 0.39769 0.16413 0.0
H2181 H 0.28293 0.28821 0.11009 0.0
H2182 H 0.29954 0.29251 0.13943 0.0
H2183 H 0.27064 0.2942 0.13729 0.0
H2184 H 0.32331 0.30951 0.21655 0.0
H2185 H 0.25492 0.31628 0.21292 0.0
H2186 H 0.33856 0.34675 0.17333 0.0
H2187 H 0.33325 0.31777 0.15988 0.0
H2188 H 0.34738 0.32578 0.19045 0.0
H2189 H 0.25209 0.35058 0.17113 0.0
H2190 H 0.23566 0.32423 0.17686 0.0
H2191 H 0.24925 0.32553 0.14993 0.0
C2192 C 0.23456 0.96285 0.98574 0.0
C2193 C 0.25308 0.96388 0.00306 0.0
C2194 C 0.21625 0.97155 0.9922 0.0
C2195 C 0.2166 0.98068 0.0166 0.0
C2196 C 0.23503 0.98084 0.03426 0.0
C2197 C 0.25333 0.97278 0.02709 0.0
C2198 C 0.19702 0.97157 0.97293 0.0
C2199 C 0.23556 0.98968 0.06069 0.0
C2200 C 0.18997 0.02682 0.0407 0.0
C2201 C 0.17427 0.01463 0.05312 0.0
C2202 C 0.20226 0.0155 0.02592 0.0
C2203 C 0.1987 0.99162 0.02403 0.0
C2204 C 0.18123 0.97917 0.03466 0.0
C2205 C 0.16913 0.99097 0.04932 0.0
C2206 C 0.22055 0.02919 0.0144 0.0
C2207 C 0.17678 0.95363 0.03251 0.0
H2208 H 0.23464 0.95565 0.96715 0.0
H2209 H 0.26761 0.97287 0.0404 0.0
H2210 H 0.18067 0.96599 0.97945 0.0
H2211 H 0.19782 0.98907 0.96858 0.0
H2212 H 0.19761 0.96045 0.95597 0.0
H2213 H 0.25067 0.98731 0.07216 0.0
H2214 H 0.23537 0.00802 0.06268 0.0
H2215 H 0.22048 0.98085 0.0677 0.0
H2216 H 0.19321 0.0452 0.04334 0.0
H2217 H 0.15633 0.9818 0.05855 0.0
H2218 H 0.22099 0.02119 0.99573 0.0
H2219 H 0.23704 0.02983 0.02513 0.0
H2220 H 0.21834 0.04685 0.01375 0.0
H2221 H 0.17773 0.94608 0.01379 0.0
H2222 H 0.16008 0.94649 0.03755 0.0
H2223 H 0.18979 0.94849 0.04479 0.0
C2224 C 0.70526 0.63056 0.01875 0.0
C2225 C 0.70243 0.6501 0.00846 0.0
C2226 C 0.68675 0.61352 0.02123 0.0
C2227 C 0.66474 0.61582 0.01299 0.0
C2228 C 0.66181 0.63517 0.00194 0.0
C2229 C 0.68061 0.65209 0.99996 0.0
C2230 C 0.69074 0.59336 0.03329 0.0
C2231 C 0.6387 0.63836 0.99289 0.0
C2232 C 0.61415 0.56601 0.00211 0.0
C2233 C 0.60424 0.56936 0.02321 0.0
C2234 C 0.63448 0.58026 0.99902 0.0
C2235 C 0.64468 0.59877 0.01711 0.0
C2236 C 0.63501 0.60162 0.03882 0.0
C2237 C 0.61527 0.58654 0.04179 0.0
C2238 C 0.64462 0.57595 0.97607 0.0
C2239 C 0.64517 0.62092 0.05875 0.0
H2240 H 0.72198 0.62884 0.02558 0.0
H2241 H 0.67817 0.66701 0.99193 0.0
H2242 H 0.68397 0.59383 0.05086 0.0
H2243 H 0.68177 0.57736 0.02189 0.0
H2244 H 0.70883 0.59301 0.03674 0.0
H2245 H 0.63924 0.65368 0.98362 0.0
H2246 H 0.62951 0.62334 0.98007 0.0
H2247 H 0.629 0.63992 0.00837 0.0
H2248 H 0.60566 0.55271 0.9877 0.0
H2249 H 0.60814 0.58852 0.05854 0.0
H2250 H 0.66263 0.57566 0.98047 0.0
H2251 H 0.6436 0.58991 0.96505 0.0
H2252 H 0.63597 0.55966 0.96495 0.0
H2253 H 0.6613 0.61806 0.06751 0.0
H2254 H 0.63401 0.62255 0.07288 0.0
H2255 H 0.64878 0.6372 0.05122 0.0
C2256 C 0.67744 0.49209 0.31121 0.0
C2257 C 0.66644 0.49882 0.29087 0.0
C2258 C 0.68913 0.4744 0.30868 0.0
C2259 C 0.68987 0.46335 0.28522 0.0
C2260 C 0.67782 0.4695 0.26477 0.0
C2261 C 0.66633 0.48727 0.26785 0.0
C2262 C 0.70167 0.46842 0.33094 0.0
C2263 C 0.67802 0.45807 0.23948 0.0
C2264 C 0.74125 0.44137 0.2706 0.0
C2265 C 0.73353 0.41783 0.26814 0.0
C2266 C 0.72751 0.45629 0.27723 0.0
C2267 C 0.70537 0.44752 0.28153 0.0
C2268 C 0.69782 0.42377 0.28038 0.0
C2269 C 0.71204 0.40916 0.27373 0.0
C2270 C 0.73642 0.48147 0.27854 0.0
C2271 C 0.67449 0.41381 0.2853 0.0
H2272 H 0.67751 0.5012 0.32901 0.0
H2273 H 0.65781 0.49261 0.25219 0.0
H2274 H 0.69853 0.44978 0.33077 0.0
H2275 H 0.71996 0.47445 0.33105 0.0
H2276 H 0.69689 0.47624 0.34794 0.0
H2277 H 0.66642 0.46352 0.22577 0.0
H2278 H 0.69523 0.46213 0.2345 0.0
H2279 H 0.67324 0.43939 0.23873 0.0
H2280 H 0.758 0.44815 0.26676 0.0
H2281 H 0.70599 0.39096 0.27188 0.0
H2282 H 0.73419 0.4904 0.29619 0.0
H2283 H 0.72682 0.4882 0.26409 0.0
H2284 H 0.75447 0.48557 0.27631 0.0
H2285 H 0.67168 0.42135 0.30336 0.0
H2286 H 0.67149 0.3951 0.28469 0.0
H2287 H 0.66192 0.41798 0.27168 0.0
C2288 C 0.87302 0.47619 0.50887 0.0
C2289 C 0.87175 0.45269 0.506 0.0
C2290 C 0.89365 0.49138 0.51494 0.0
C2291 C 0.91336 0.48278 0.51824 0.0
C2292 C 0.91218 0.45915 0.51656 0.0
C2293 C 0.89133 0.44432 0.5103 0.0
C2294 C 0.89441 0.51653 0.51648 0.0
C2295 C 0.93304 0.44955 0.52034 0.0
C2296 C 0.96719 0.5136 0.50087 0.0
C2297 C 0.97934 0.52231 0.52359 0.0
C2298 C 0.94509 0.50177 0.49888 0.0
C2299 C 0.93537 0.49816 0.52026 0.0
C2300 C 0.94729 0.50793 0.54327 0.0
C2301 C 0.96924 0.52035 0.54461 0.0
C2302 C 0.93257 0.49227 0.47397 0.0
C2303 C 0.93732 0.50442 0.56638 0.0
H2304 H 0.85794 0.48283 0.50576 0.0
H2305 H 0.89043 0.4262 0.50849 0.0
H2306 H 0.90544 0.52582 0.53299 0.0
H2307 H 0.90157 0.52301 0.50062 0.0
H2308 H 0.8775 0.52049 0.51666 0.0
H2309 H 0.92906 0.43097 0.52078 0.0
H2310 H 0.94319 0.45299 0.50541 0.0
H2311 H 0.94356 0.4579 0.53756 0.0
H2312 H 0.97523 0.51551 0.48469 0.0
H2313 H 0.97853 0.52821 0.56199 0.0
H2314 H 0.91585 0.49676 0.47193 0.0
H2315 H 0.92984 0.47351 0.47158 0.0
H2316 H 0.94183 0.49863 0.45929 0.0
H2317 H 0.92014 0.50781 0.56496 0.0
H2318 H 0.94767 0.51548 0.58239 0.0
H2319 H 0.93599 0.48649 0.56947 0.0
C2320 C 0.37303 0.08665 0.29279 0.0
C2321 C 0.36349 0.07253 0.30854 0.0
C2322 C 0.3619 0.1025 0.28384 0.0
C2323 C 0.34117 0.10469 0.29167 0.0
C2324 C 0.33189 0.09102 0.30847 0.0
C2325 C 0.34302 0.07453 0.31632 0.0
C2326 C 0.37207 0.11643 0.26549 0.0
C2327 C 0.3102 0.09351 0.31775 0.0
C2328 C 0.32995 0.16032 0.27721 0.0
C2329 C 0.31798 0.15374 0.25395 0.0
C2330 C 0.33579 0.1441 0.2911 0.0
C2331 C 0.32935 0.12097 0.2813 0.0
C2332 C 0.31561 0.11421 0.25866 0.0
C2333 C 0.31029 0.13082 0.24502 0.0
C2334 C 0.35025 0.15179 0.31533 0.0
C2335 C 0.308 0.08958 0.24804 0.0
H2336 H 0.38879 0.08462 0.2867 0.0
H2337 H 0.33589 0.06338 0.3286 0.0
H2338 H 0.36024 0.1135 0.24843 0.0
H2339 H 0.37519 0.13474 0.27248 0.0
H2340 H 0.38814 0.11225 0.26113 0.0
H2341 H 0.30752 0.08455 0.33379 0.0
H2342 H 0.30995 0.11164 0.32275 0.0
H2343 H 0.29595 0.08633 0.30328 0.0
H2344 H 0.33536 0.17819 0.28416 0.0
H2345 H 0.30034 0.12596 0.22731 0.0
H2346 H 0.36778 0.15052 0.31339 0.0
H2347 H 0.3445 0.14077 0.32892 0.0
H2348 H 0.3502 0.16963 0.32229 0.0
H2349 H 0.32238 0.08331 0.24144 0.0
H2350 H 0.29434 0.08704 0.23262 0.0
H2351 H 0.30204 0.07913 0.262 0.0
C2352 C 0.34354 0.1605 0.50981 0.0
C2353 C 0.32788 0.15809 0.52628 0.0
C2354 C 0.36163 0.14935 0.5114 0.0
C2355 C 0.36448 0.13618 0.53043 0.0
C2356 C 0.34903 0.13437 0.54755 0.0
C2357 C 0.33068 0.14497 0.54496 0.0
C2358 C 0.37721 0.15103 0.49232 0.0
C2359 C 0.35177 0.12108 0.56855 0.0
C2360 C 0.3959 0.0882 0.53058 0.0
C2361 C 0.41517 0.09841 0.54675 0.0
C2362 C 0.37999 0.10082 0.52335 0.0
C2363 C 0.38343 0.12408 0.53274 0.0
C2364 C 0.40386 0.1348 0.5474 0.0
C2365 C 0.41945 0.12178 0.55432 0.0
C2366 C 0.35861 0.08876 0.50741 0.0
C2367 C 0.40834 0.15955 0.55767 0.0
H2368 H 0.34109 0.17033 0.49507 0.0
H2369 H 0.31853 0.14311 0.55765 0.0
H2370 H 0.39488 0.15682 0.50091 0.0
H2371 H 0.37576 0.13403 0.48197 0.0
H2372 H 0.37339 0.16283 0.4794 0.0
H2373 H 0.33888 0.12217 0.58084 0.0
H2374 H 0.35059 0.10298 0.56166 0.0
H2375 H 0.3686 0.12747 0.57924 0.0
H2376 H 0.39246 0.07004 0.52509 0.0
H2377 H 0.43425 0.12954 0.56712 0.0
H2378 H 0.35403 0.09913 0.4933 0.0
H2379 H 0.34471 0.08613 0.51859 0.0
H2380 H 0.36007 0.07195 0.49844 0.0
H2381 H 0.40472 0.16997 0.54326 0.0
H2382 H 0.42597 0.1659 0.56631 0.0
H2383 H 0.39708 0.16199 0.5715 0.0
C2384 C 0.69461 0.62195 0.30104 0.0
C2385 C 0.67266 0.62465 0.30348 0.0
C2386 C 0.71192 0.64062 0.29941 0.0
C2387 C 0.70731 0.66266 0.30008 0.0
C2388 C 0.68525 0.66551 0.30263 0.0
C2389 C 0.66832 0.6466 0.30438 0.0
C2390 C 0.73518 0.63674 0.29698 0.0
C2391 C 0.6794 0.68857 0.30307 0.0
C2392 C 0.75235 0.71721 0.31685 0.0
C2393 C 0.75641 0.72318 0.29405 0.0
C2394 C 0.73752 0.69685 0.31906 0.0
C2395 C 0.72537 0.68279 0.29797 0.0
C2396 C 0.72965 0.68877 0.27487 0.0
C2397 C 0.74572 0.7084 0.27324 0.0
C2398 C 0.73456 0.69058 0.34401 0.0
C2399 C 0.71653 0.67502 0.25186 0.0
H2400 H 0.69829 0.60517 0.30023 0.0
H2401 H 0.65152 0.64904 0.30615 0.0
H2402 H 0.74049 0.64221 0.27988 0.0
H2403 H 0.74732 0.64715 0.3121 0.0
H2404 H 0.73616 0.61868 0.29704 0.0
H2405 H 0.66145 0.68798 0.30482 0.0
H2406 H 0.68978 0.70042 0.31846 0.0
H2407 H 0.68319 0.69564 0.28618 0.0
H2408 H 0.76086 0.72846 0.33297 0.0
H2409 H 0.74886 0.71302 0.25557 0.0
H2410 H 0.73642 0.67285 0.34484 0.0
H2411 H 0.71743 0.69155 0.34794 0.0
H2412 H 0.7469 0.70192 0.35836 0.0
H2413 H 0.71954 0.65754 0.25027 0.0
H2414 H 0.72106 0.68256 0.23541 0.0
H2415 H 0.6983 0.67375 0.25237 0.0
C2416 C 0.87378 0.43902 0.83503 0.0
C2417 C 0.87263 0.45661 0.82113 0.0
C2418 C 0.85783 0.41865 0.82957 0.0
C2419 C 0.84098 0.41586 0.8094 0.0
C2420 C 0.83949 0.43374 0.79567 0.0
C2421 C 0.85526 0.45402 0.80186 0.0
C2422 C 0.85947 0.39984 0.84478 0.0
C2423 C 0.82209 0.43102 0.77365 0.0
C2424 C 0.82387 0.35523 0.78128 0.0
C2425 C 0.80346 0.34834 0.78988 0.0
C2426 C 0.8354 0.37769 0.78597 0.0
C2427 C 0.82682 0.39333 0.80087 0.0
C2428 C 0.80573 0.38685 0.80886 0.0
C2429 C 0.79399 0.36439 0.8028 0.0
C2430 C 0.85747 0.38423 0.77627 0.0
C2431 C 0.79635 0.40304 0.82525 0.0
H2432 H 0.88709 0.44118 0.85005 0.0
H2433 H 0.85447 0.4676 0.79095 0.0
H2434 H 0.84284 0.39281 0.85 0.0
H2435 H 0.86481 0.38584 0.83405 0.0
H2436 H 0.87171 0.40568 0.8615 0.0
H2437 H 0.82226 0.44716 0.76599 0.0
H2438 H 0.82527 0.41826 0.7594 0.0
H2439 H 0.80508 0.42468 0.77829 0.0
H2440 H 0.83155 0.34287 0.77204 0.0
H2441 H 0.77818 0.35916 0.80958 0.0
H2442 H 0.87147 0.38701 0.79133 0.0
H2443 H 0.8584 0.40027 0.76832 0.0
H2444 H 0.85999 0.3709 0.7622 0.0
H2445 H 0.8059 0.40559 0.84371 0.0
H2446 H 0.77837 0.39649 0.8266 0.0
H2447 H 0.79819 0.41985 0.8188 0.0
C2448 C 0.07852 0.8706 0.07307 0.0
C2449 C 0.06677 0.86091 0.09106 0.0
C2450 C 0.07537 0.89163 0.06485 0.0
C2451 C 0.05942 0.90368 0.07387 0.0
C2452 C 0.04707 0.89352 0.09146 0.0
C2453 C 0.05112 0.87301 0.09996 0.0
C2454 C 0.08965 0.9013 0.04673 0.0
C2455 C 0.02925 0.90436 0.10139 0.0
C2456 C 0.06445 0.96937 0.07176 0.0
C2457 C 0.04931 0.97094 0.0513 0.0
C2458 C 0.06795 0.94816 0.0789 0.0
C2459 C 0.05607 0.92694 0.0657 0.0
C2460 C 0.04067 0.92837 0.04505 0.0
C2461 C 0.03768 0.94987 0.03814 0.0
C2462 C 0.08465 0.94855 0.10087 0.0
C2463 C 0.02713 0.90698 0.03001 0.0
H2464 H 0.09083 0.8621 0.06587 0.0
H2465 H 0.04159 0.86619 0.11365 0.0
H2466 H 0.07883 0.90376 0.03045 0.0
H2467 H 0.09984 0.9182 0.05474 0.0
H2468 H 0.10109 0.89023 0.04102 0.0
H2469 H 0.02027 0.89422 0.11404 0.0
H2470 H 0.03691 0.92152 0.1111 0.0
H2471 H 0.01684 0.90643 0.08626 0.0
H2472 H 0.07383 0.98496 0.08247 0.0
H2473 H 0.02609 0.95008 0.02219 0.0
H2474 H 0.09757 0.93906 0.09583 0.0
H2475 H 0.07608 0.93996 0.1148 0.0
H2476 H 0.09312 0.96606 0.10901 0.0
H2477 H 0.03848 0.89788 0.02068 0.0
H2478 H 0.01434 0.91047 0.01612 0.0
H2479 H 0.01859 0.89552 0.04181 0.0
C2480 C 0.92771 0.28997 0.91916 0.0
C2481 C 0.94283 0.27576 0.91454 0.0
C2482 C 0.90936 0.29097 0.90177 0.0
C2483 C 0.90511 0.27688 0.87903 0.0
C2484 C 0.92024 0.26237 0.87426 0.0
C2485 C 0.93896 0.26227 0.89173 0.0
C2486 C 0.89451 0.30732 0.90777 0.0
C2487 C 0.91657 0.24673 0.85067 0.0
C2488 C 0.84437 0.26492 0.84523 0.0
C2489 C 0.84593 0.27939 0.82719 0.0
C2490 C 0.86334 0.2636 0.86164 0.0
C2491 C 0.8848 0.27725 0.86057 0.0
C2492 C 0.88651 0.29177 0.84227 0.0
C2493 C 0.86732 0.29255 0.8259 0.0
C2494 C 0.86034 0.24753 0.88029 0.0
C2495 C 0.9086 0.30707 0.84034 0.0
H2496 H 0.93045 0.30077 0.93643 0.0
H2497 H 0.95032 0.25119 0.88769 0.0
H2498 H 0.89351 0.31844 0.89341 0.0
H2499 H 0.87724 0.29784 0.90838 0.0
H2500 H 0.90068 0.31814 0.92547 0.0
H2501 H 0.92866 0.23531 0.85023 0.0
H2502 H 0.89928 0.23625 0.84765 0.0
H2503 H 0.91832 0.25683 0.83539 0.0
H2504 H 0.82818 0.25448 0.84653 0.0
H2505 H 0.86903 0.30398 0.81235 0.0
H2506 H 0.86417 0.25722 0.89876 0.0
H2507 H 0.87228 0.23601 0.87894 0.0
H2508 H 0.84303 0.23715 0.8781 0.0
H2509 H 0.9138 0.3196 0.85697 0.0
H2510 H 0.90768 0.31637 0.82438 0.0
H2511 H 0.92186 0.2971 0.83903 0.0
C2512 C 0.58577 0.22068 0.58747 0.0
C2513 C 0.56762 0.23192 0.58686 0.0
C2514 C 0.58288 0.19659 0.58222 0.0
C2515 C 0.56121 0.18244 0.57471 0.0
C2516 C 0.54273 0.1937 0.57378 0.0
C2517 C 0.54606 0.21785 0.58027 0.0
C2518 C 0.6033 0.18625 0.58488 0.0
C2519 C 0.51924 0.18028 0.5654 0.0
C2520 C 0.5591 0.12222 0.53881 0.0
C2521 C 0.55304 0.10698 0.55546 0.0
C2522 C 0.56114 0.14624 0.54447 0.0
C2523 C 0.55811 0.15623 0.56791 0.0
C2524 C 0.55263 0.14087 0.58498 0.0
C2525 C 0.54967 0.11686 0.57846 0.0
C2526 C 0.56593 0.16095 0.52489 0.0
C2527 C 0.55029 0.14983 0.61055 0.0
H2528 H 0.60259 0.23088 0.59241 0.0
H2529 H 0.53171 0.22581 0.57926 0.0
H2530 H 0.60042 0.17201 0.59578 0.0
H2531 H 0.60655 0.17926 0.5668 0.0
H2532 H 0.61852 0.1988 0.59369 0.0
H2533 H 0.50727 0.1914 0.56149 0.0
H2534 H 0.51886 0.16826 0.54884 0.0
H2535 H 0.51339 0.17017 0.57966 0.0
H2536 H 0.56145 0.11525 0.52084 0.0
H2537 H 0.54501 0.1057 0.59172 0.0
H2538 H 0.58242 0.17275 0.53009 0.0
H2539 H 0.55306 0.1714 0.52271 0.0
H2540 H 0.5661 0.15083 0.50715 0.0
H2541 H 0.566 0.16184 0.61895 0.0
H2542 H 0.54667 0.1361 0.62201 0.0
H2543 H 0.53661 0.15935 0.61046 0.0
C2544 C 0.56613 0.78283 0.3925 0.0
C2545 C 0.56748 0.78003 0.41712 0.0
C2546 C 0.58532 0.78606 0.38058 0.0
C2547 C 0.60655 0.78575 0.39326 0.0
C2548 C 0.60794 0.78209 0.41795 0.0
C2549 C 0.58849 0.77973 0.42972 0.0
C2550 C 0.58291 0.79037 0.35447 0.0
C2551 C 0.62999 0.78089 0.43202 0.0
C2552 C 0.65006 0.77804 0.35064 0.0
C2553 C 0.66038 0.80058 0.34955 0.0
C2554 C 0.63352 0.77275 0.366 0.0
C2555 C 0.62715 0.79041 0.38069 0.0
C2556 C 0.63878 0.81306 0.38085 0.0
C2557 C 0.65503 0.81786 0.36516 0.0
C2558 C 0.62186 0.74836 0.36528 0.0
C2559 C 0.63295 0.83248 0.39632 0.0
H2560 H 0.55003 0.78327 0.38264 0.0
H2561 H 0.58969 0.77743 0.4487 0.0
H2562 H 0.59362 0.80696 0.35278 0.0
H2563 H 0.5887 0.77717 0.343 0.0
H2564 H 0.56533 0.79045 0.34726 0.0
H2565 H 0.62786 0.77511 0.44993 0.0
H2566 H 0.63837 0.76916 0.42156 0.0
H2567 H 0.64132 0.79786 0.43502 0.0
H2568 H 0.65395 0.76465 0.33843 0.0
H2569 H 0.66291 0.83531 0.3643 0.0
H2570 H 0.60484 0.74552 0.35495 0.0
H2571 H 0.61986 0.7443 0.38386 0.0
H2572 H 0.63114 0.73647 0.35643 0.0
H2573 H 0.61618 0.83494 0.38896 0.0
H2574 H 0.64533 0.84858 0.39682 0.0
H2575 H 0.63206 0.82867 0.41515 0.0
C2576 C 0.02959 0.24168 0.39337 0.0
C2577 C 0.04947 0.25812 0.39567 0.0
C2578 C 0.02861 0.22203 0.4048 0.0
C2579 C 0.04795 0.21877 0.41919 0.0
C2580 C 0.06855 0.23439 0.4198 0.0
C2581 C 0.06903 0.25397 0.40819 0.0
C2582 C 1.00627 0.20592 0.40337 0.0
C2583 C 0.08969 0.23145 0.4344 0.0
C2584 C 0.03306 0.19094 0.47456 0.0
C2585 C 0.03213 0.16796 0.46684 0.0
C2586 C 0.0395 0.20771 0.45981 0.0
C2587 C 0.04547 0.20153 0.43663 0.0
C2588 C 0.04647 0.17857 0.42959 0.0
C2589 C 0.03963 0.16201 0.44471 0.0
C2590 C 0.03814 0.23183 0.46833 0.0
C2591 C 0.05322 0.17119 0.40539 0.0
H2592 H 0.01433 0.24506 0.38419 0.0
H2593 H 0.08433 0.26687 0.4105 0.0
H2594 H 1.00811 0.18812 0.39943 0.0
H2595 H 0.99991 0.20777 0.42113 0.0
H2596 H 0.99359 0.20919 0.38922 0.0
H2597 H 0.10482 0.24288 0.43015 0.0
H2598 H 0.08858 0.23525 0.45401 0.0
H2599 H 0.09172 0.21366 0.43098 0.0
H2600 H 0.02721 0.19563 0.49161 0.0
H2601 H 0.03873 0.14427 0.43847 0.0
H2602 H 0.02436 0.23659 0.4568 0.0
H2603 H 0.05392 0.24367 0.46656 0.0
H2604 H 0.03495 0.2342 0.4875 0.0
H2605 H 0.03884 0.16955 0.39101 0.0
H2606 H 0.05822 0.15454 0.40498 0.0
H2607 H 0.06731 0.18391 0.40102 0.0
C2608 C 0.60995 0.28304 0.23858 0.0
C2609 C 0.59724 0.26385 0.223 0.0
C2610 C 0.6333 0.28515 0.24722 0.0
C2611 C 0.64515 0.26804 0.23981 0.0
C2612 C 0.6322 0.24842 0.22466 0.0
C2613 C 0.60892 0.24667 0.21655 0.0
C2614 C 0.64555 0.30635 0.26355 0.0
C2615 C 0.64327 0.22953 0.21583 0.0
C2616 C 0.71001 0.28435 0.23764 0.0
C2617 C 0.71975 0.27577 0.25775 0.0
C2618 C 0.68628 0.28199 0.23181 0.0
C2619 C 0.67101 0.27107 0.24646 0.0
C2620 C 0.68074 0.26253 0.26693 0.0
C2621 C 0.70455 0.26485 0.27216 0.0
C2622 C 0.67752 0.29117 0.20958 0.0
C2623 C 0.66599 0.25129 0.28384 0.0
H2624 H 0.60193 0.29706 0.2431 0.0
H2625 H 0.6 0.2321 0.20384 0.0
H2626 H 0.6562 0.30204 0.27895 0.0
H2627 H 0.65678 0.31712 0.25324 0.0
H2628 H 0.63384 0.31637 0.27083 0.0
H2629 H 0.63109 0.21498 0.20497 0.0
H2630 H 0.65622 0.236 0.2045 0.0
H2631 H 0.65191 0.2234 0.23144 0.0
H2632 H 0.72101 0.2929 0.22613 0.0
H2633 H 0.71129 0.25838 0.288 0.0
H2634 H 0.66825 0.30449 0.21489 0.0
H2635 H 0.66553 0.27746 0.19728 0.0
H2636 H 0.69114 0.2985 0.19945 0.0
H2637 H 0.65805 0.26403 0.29332 0.0
H2638 H 0.67554 0.24373 0.29763 0.0
H2639 H 0.6523 0.23783 0.27351 0.0
C2640 C 0.53706 0.88755 0.90027 0.0
C2641 C 0.5576 0.88081 0.89884 0.0
C2642 C 0.53542 0.907 0.91611 0.0
C2643 C 0.5547 0.9202 0.93138 0.0
C2644 C 0.57545 0.91333 0.92994 0.0
C2645 C 0.57662 0.8939 0.91386 0.0
C2646 C 0.51285 0.91321 0.91678 0.0
C2647 C 0.59642 0.92611 0.94606 0.0
C2648 C 0.55649 0.98204 0.95962 0.0
C2649 C 0.55062 0.97969 0.98304 0.0
C2650 C 0.55738 0.96305 0.94269 0.0
C2651 C 0.55317 0.94076 0.94918 0.0
C2652 C 0.54769 0.93828 0.9729 0.0
C2653 C 0.54594 0.95744 0.98903 0.0
C2654 C 0.56255 0.96687 0.91758 0.0
C2655 C 0.54334 0.91526 0.98134 0.0
H2656 H 0.52212 0.87731 0.88928 0.0
H2657 H 0.59246 0.88859 0.91346 0.0
H2658 H 0.50758 0.91169 0.93495 0.0
H2659 H 0.51397 0.93112 0.9137 0.0
H2660 H 0.49971 0.90219 0.90297 0.0
H2661 H 0.61135 0.91907 0.94259 0.0
H2662 H 0.59977 0.94421 0.9433 0.0
H2663 H 0.59401 0.92546 0.96535 0.0
H2664 H 0.56003 0.99882 0.9542 0.0
H2665 H 0.54051 0.95473 0.00632 0.0
H2666 H 0.54888 0.95658 0.90385 0.0
H2667 H 0.57821 0.9612 0.91428 0.0
H2668 H 0.56453 0.98495 0.9148 0.0
H2669 H 0.5267 0.90543 0.97253 0.0
H2670 H 0.54348 0.91651 1.0013 0.0
H2671 H 0.55609 0.90559 0.97617 0.0
C2672 C 0.94108 0.74274 0.71299 0.0
C2673 C 0.96201 0.75669 0.72337 0.0
C2674 C 0.92007 0.74558 0.72088 0.0
C2675 C 0.91885 0.76362 0.73911 0.0
C2676 C 0.93994 0.77804 0.74931 0.0
C2677 C 0.96081 0.77423 0.74179 0.0
C2678 C 0.89892 0.72904 0.70946 0.0
C2679 C 0.94051 0.79799 0.7681 0.0
C2680 C 0.8613 0.78378 0.74242 0.0
C2681 C 0.85217 0.77377 0.76179 0.0
C2682 C 0.88243 0.78074 0.73506 0.0
C2683 C 0.89585 0.76743 0.74721 0.0
C2684 C 0.88682 0.75764 0.76709 0.0
C2685 C 0.86548 0.76069 0.77384 0.0
C2686 C 0.8904 0.79189 0.71395 0.0
C2687 C 0.89967 0.7435 0.78129 0.0
H2688 H 0.94109 0.72925 0.69863 0.0
H2689 H 0.97633 0.78569 0.74991 0.0
H2690 H 0.88971 0.72183 0.72375 0.0
H2691 H 0.88776 0.73798 0.69907 0.0
H2692 H 0.90237 0.71492 0.69706 0.0
H2693 H 0.95762 0.8087 0.77316 0.0
H2694 H 0.92906 0.80862 0.76121 0.0
H2695 H 0.93446 0.79191 0.78465 0.0
H2696 H 0.85167 0.79394 0.73265 0.0
H2697 H 0.85919 0.75275 0.78883 0.0
H2698 H 0.89195 0.77876 0.69917 0.0
H2699 H 0.90729 0.80289 0.71954 0.0
H2700 H 0.87883 0.80226 0.70669 0.0
H2701 H 0.90044 0.72784 0.76946 0.0
H2702 H 0.89186 0.73867 0.79745 0.0
H2703 H 0.91717 0.75286 0.78734 0.0
C2704 C 0.12597 0.03466 0.87329 0.0
C2705 C 0.12163 0.05195 0.85993 0.0
C2706 C 0.11645 0.03103 0.89472 0.0
C2707 C 0.10298 0.04568 0.90381 0.0
C2708 C 0.0991 0.06361 0.89069 0.0
C2709 C 0.108 0.06619 0.86867 0.0
C2710 C 0.12024 0.01104 0.9072 0.0
C2711 C 0.08569 0.08024 0.90008 0.0
C2712 C 0.05999 0.02653 0.94607 0.0
C2713 C 0.07154 0.03524 0.96929 0.0
C2714 C 0.07013 0.02921 0.92486 0.0
C2715 C 0.09239 0.04178 0.92651 0.0
C2716 C 0.10443 0.05033 0.94988 0.0
C2717 C 0.0942 0.04621 0.97085 0.0
C2718 C 0.05692 0.01848 0.90063 0.0
C2719 C 0.12803 0.06424 0.95284 0.0
H2720 H 0.13622 0.02337 0.86647 0.0
H2721 H 0.10465 0.07962 0.85848 0.0
H2722 H 0.12877 0.01691 0.92595 0.0
H2723 H 0.10387 0.99992 0.9085 0.0
H2724 H 0.13052 1.00082 0.89747 0.0
H2725 H 0.08509 0.0939 0.88851 0.0
H2726 H 0.06827 0.07132 0.90097 0.0
H2727 H 0.09312 0.08807 0.91879 0.0
H2728 H 0.04305 0.01721 0.94428 0.0
H2729 H 0.10385 0.05241 0.98851 0.0
H2730 H 0.06659 0.00775 0.89067 0.0
H2731 H 0.05398 0.03182 0.88939 0.0
H2732 H 0.04042 0.00787 0.9025 0.0
H2733 H 0.1398 0.053 0.94896 0.0
H2734 H 0.13338 0.07334 0.97153 0.0
H2735 H 0.12948 0.07685 0.93987 0.0
C2736 C 0.77672 0.38417 0.55757 0.0
C2737 C 0.7942 0.4007 0.55247 0.0
C2738 C 0.77844 0.37526 0.57958 0.0
C2739 C 0.7986 0.38233 0.59584 0.0
C2740 C 0.8153 0.40062 0.59164 0.0
C2741 C 0.81269 0.40986 0.57001 0.0
C2742 C 0.75976 0.35675 0.58426 0.0
C2743 C 0.83719 0.40846 0.60836 0.0
C2744 C 0.8129 0.36254 0.656 0.0
C2745 C 0.82469 0.34576 0.64909 0.0
C2746 C 0.80251 0.37344 0.63862 0.0
C2747 C 0.80455 0.3678 0.61394 0.0
C2748 C 0.8153 0.34998 0.60677 0.0
C2749 C 0.82507 0.33905 0.62446 0.0
C2750 C 0.79057 0.39183 0.64687 0.0
C2751 C 0.81781 0.34341 0.58054 0.0
H2752 H 0.76245 0.37721 0.54379 0.0
H2753 H 0.82624 0.42252 0.56568 0.0
H2754 H 0.76422 0.34004 0.58 0.0
H2755 H 0.75723 0.35875 0.60363 0.0
H2756 H 0.74374 0.3567 0.57286 0.0
H2757 H 0.8473 0.42435 0.60385 0.0
H2758 H 0.83413 0.4113 0.62748 0.0
H2759 H 0.84721 0.39512 0.60688 0.0
H2760 H 0.81255 0.36788 0.67504 0.0
H2761 H 0.8336 0.32565 0.61904 0.0
H2762 H 0.77574 0.39193 0.63365 0.0
H2763 H 0.80214 0.40858 0.64845 0.0
H2764 H 0.78505 0.3898 0.66489 0.0
H2765 H 0.80126 0.33963 0.56911 0.0
H2766 H 0.82552 0.32836 0.57796 0.0
H2767 H 0.82852 0.35777 0.57389 0.0
C2768 C 0.41568 0.01566 0.39719 0.0
C2769 C 0.42614 0.02354 0.37788 0.0
C2770 C 0.42855 0.01221 0.41812 0.0
C2771 C 0.45216 0.01737 0.41959 0.0
C2772 C 0.46268 0.0244 0.39967 0.0
C2773 C 0.44945 0.02722 0.37893 0.0
C2774 C 0.41706 1.00401 0.43895 0.0
C2775 C 0.48793 0.03036 0.40076 0.0
C2776 C 0.4895 0.04354 0.4768 0.0
C2777 C 0.50167 0.02674 0.4801 0.0
C2778 C 0.47185 0.03997 0.45801 0.0
C2779 C 0.4662 0.01889 0.44283 0.0
C2780 C 0.47732 1.00119 0.44748 0.0
C2781 C 0.49549 1.00556 0.46586 0.0
C2782 C 0.46084 0.05949 0.45301 0.0
C2783 C 0.47098 0.97829 0.43211 0.0
H2784 H 0.39756 0.01237 0.39603 0.0
H2785 H 0.45747 0.03316 0.36384 0.0
H2786 H 0.42433 0.9902 0.44584 0.0
H2787 H 0.41978 0.01804 0.45413 0.0
H2788 H 0.39872 0.99776 0.43364 0.0
H2789 H 0.49326 0.03457 0.38319 0.0
H2790 H 0.49499 0.04516 0.41481 0.0
H2791 H 0.4954 0.01606 0.40591 0.0
H2792 H 0.49465 0.05992 0.48796 0.0
H2793 H 0.50502 0.99262 0.46892 0.0
H2794 H 0.44234 0.05396 0.45038 0.0
H2795 H 0.46579 0.06563 0.43603 0.0
H2796 H 0.46577 0.07391 0.46791 0.0
H2797 H 0.45256 0.97195 0.42985 0.0
H2798 H 0.47931 0.96562 0.44015 0.0
H2799 H 0.47588 0.97976 0.41377 0.0
C2800 C 0.76567 0.70283 0.10194 0.0
C2801 C 0.77621 0.71643 0.08609 0.0
C2802 C 0.76713 0.71085 0.12688 0.0
C2803 C 0.77991 0.7328 0.1364 0.0
C2804 C 0.79158 0.74603 0.12058 0.0
C2805 C 0.7892 0.7379 0.09563 0.0
C2806 C 0.75416 0.69621 0.14282 0.0
C2807 C 0.80632 0.76897 0.12995 0.0
C2808 C 0.76624 0.76483 0.19413 0.0
C2809 C 0.78148 0.75988 0.2123 0.0
C2810 C 0.76531 0.75585 0.16955 0.0
C2811 C 0.78055 0.74223 0.16263 0.0
C2812 C 0.7965 0.73786 0.18083 0.0
C2813 C 0.79652 0.74637 0.2053 0.0
C2814 C 0.74777 0.76075 0.15098 0.0
C2815 C 0.81359 0.72411 0.17454 0.0
H2816 H 0.75532 0.68638 0.0946 0.0
H2817 H 0.79733 0.7485 0.08344 0.0
H2818 H 0.76555 0.69363 0.15858 0.0
H2819 H 0.74146 0.70488 0.15006 0.0
H2820 H 0.7455 0.67937 0.13291 0.0
H2821 H 0.81552 0.77645 0.11576 0.0
H2822 H 0.79599 0.78076 0.13675 0.0
H2823 H 0.8187 0.76756 0.14542 0.0
H2824 H 0.75478 0.77543 0.1991 0.0
H2825 H 0.80862 0.74259 0.21901 0.0
H2826 H 0.73723 0.74459 0.14132 0.0
H2827 H 0.75597 0.76998 0.13723 0.0
H2828 H 0.73673 0.77102 0.15926 0.0
H2829 H 0.80513 0.70611 0.16898 0.0
H2830 H 0.82678 0.72499 0.1901 0.0
H2831 H 0.82177 0.7301 0.15905 0.0
C2832 C 0.11159 0.0382 0.71259 0.0
C2833 C 0.10416 0.0541 0.72821 0.0
C2834 C 0.10434 0.03462 0.68731 0.0
C2835 C 0.08954 0.04748 0.67717 0.0
C2836 C 0.08205 0.06355 0.69283 0.0
C2837 C 0.08928 0.06653 0.71796 0.0
C2838 C 0.11252 0.01707 0.67145 0.0
C2839 C 0.06647 0.07782 0.68299 0.0
C2840 C 0.08656 0.05561 0.61002 0.0
C2841 C 0.06572 0.04186 0.60019 0.0
C2842 C 0.09456 0.05751 0.63492 0.0
C2843 C 0.08193 0.04452 0.65025 0.0
C2844 C 0.06125 0.02986 0.64004 0.0
C2845 C 0.05321 0.02905 0.61527 0.0
C2846 C 0.11629 0.07388 0.64494 0.0
C2847 C 0.0476 0.015 0.65528 0.0
H2848 H 0.12299 0.0284 0.72012 0.0
H2849 H 0.08337 0.07893 0.7296 0.0
H2850 H 0.09807 1.00499 0.66042 0.0
H2851 H 0.12289 0.02542 0.65865 0.0
H2852 H 0.1227 1.0074 0.68217 0.0
H2853 H 0.06263 0.09003 0.69739 0.0
H2854 H 0.07406 0.08743 0.66913 0.0
H2855 H 0.05048 0.06675 0.67392 0.0
H2856 H 0.09637 0.06532 0.5983 0.0
H2857 H 0.03726 0.01811 0.60758 0.0
H2858 H 0.12838 0.06475 0.65352 0.0
H2859 H 0.11325 0.08669 0.65921 0.0
H2860 H 0.12406 0.08283 0.63072 0.0
H2861 H 0.0579 1.004 0.6636 0.0
H2862 H 0.03223 1.00408 0.64454 0.0
H2863 H 0.04261 0.02561 0.6703 0.0
C2864 C 0.79511 0.41226 0.40867 0.0
C2865 C 0.80739 0.40985 0.43039 0.0
C2866 C 0.79377 0.39654 0.38804 0.0
C2867 C 0.80494 0.37836 0.38969 0.0
C2868 C 0.819 0.37722 0.41105 0.0
C2869 C 0.82018 0.39322 0.43117 0.0
C2870 C 0.77908 0.39831 0.36518 0.0
C2871 C 0.83126 0.35808 0.41335 0.0
C2872 C 0.77736 0.32288 0.35176 0.0
C2873 C 0.7921 0.32159 0.33465 0.0
C2874 C 0.78139 0.34142 0.36992 0.0
C2875 C 0.80019 0.35922 0.37017 0.0
C2876 C 0.81533 0.35769 0.35314 0.0
C2877 C 0.81139 0.33834 0.336 0.0
C2878 C 0.76623 0.34141 0.38945 0.0
C2879 C 0.83564 0.3763 0.35298 0.0
H2880 H 0.78516 0.42518 0.40834 0.0
H2881 H 0.82993 0.39179 0.44805 0.0
H2882 H 0.7879 0.39573 0.34915 0.0
H2883 H 0.76363 0.38482 0.36267 0.0
H2884 H 0.77408 0.41496 0.36579 0.0
H2885 H 0.8418 0.36008 0.43122 0.0
H2886 H 0.81898 0.3417 0.41101 0.0
H2887 H 0.84221 0.35712 0.39895 0.0
H2888 H 0.76307 0.30905 0.35133 0.0
H2889 H 0.82377 0.33588 0.32425 0.0
H2890 H 0.75823 0.35627 0.38955 0.0
H2891 H 0.77627 0.3428 0.4075 0.0
H2892 H 0.75287 0.32578 0.38698 0.0
H2893 H 0.83037 0.38966 0.3431 0.0
H2894 H 0.84872 0.36983 0.34378 0.0
H2895 H 0.84329 0.38448 0.37146 0.0
C2896 C 0.41664 0.99946 0.23673 0.0
C2897 C 0.41567 0.01977 0.25045 0.0
C2898 C 0.42387 0.99943 0.21402 0.0
C2899 C 0.43044 0.02037 0.20519 0.0
C2900 C 0.42634 0.04051 0.21749 0.0
C2901 C 0.419 0.04 0.24033 0.0
C2902 C 0.42744 0.9774 0.20126 0.0
C2903 C 0.43208 0.06289 0.20794 0.0
C2904 C 0.48334 0.01494 0.18075 0.0
C2905 C 0.47495 1.00569 0.15678 0.0
C2906 C 0.46941 0.02292 0.19622 0.0
C2907 C 0.44653 0.02137 0.18738 0.0
C2908 C 0.43875 0.01475 0.16244 0.0
C2909 C 0.4531 1.00678 0.14735 0.0
C2910 C 0.47859 0.0304 0.22265 0.0
C2911 C 0.41477 0.01375 0.15214 0.0
H2912 H 0.41361 0.98382 0.2447 0.0
H2913 H 0.4179 0.05563 0.25108 0.0
H2914 H 0.42112 0.97537 0.18166 0.0
H2915 H 0.44566 0.97748 0.20304 0.0
H2916 H 0.41891 0.96247 0.20899 0.0
H2917 H 0.42252 0.07512 0.2156 0.0
H2918 H 0.45021 0.07028 0.21319 0.0
H2919 H 0.42859 0.06068 0.18786 0.0
H2920 H 0.50052 0.01487 0.18772 0.0
H2921 H 0.4467 1.00003 0.12861 0.0
H2922 H 0.47216 0.01688 0.23347 0.0
H2923 H 0.47305 0.04593 0.22957 0.0
H2924 H 0.49721 0.03384 0.22571 0.0
H2925 H 0.40453 0.99677 0.15324 0.0
H2926 H 0.4135 0.01634 0.13275 0.0
H2927 H 0.4075 0.02662 0.16235 0.0
C2928 C 0.78118 0.69487 0.93502 0.0
C2929 C 0.77255 0.70492 0.95472 0.0
C2930 C 0.78384 0.70536 0.91393 0.0
C2931 C 0.77741 0.72638 0.91205 0.0
C2932 C 0.76842 0.73649 0.93178 0.0
C2933 C 0.76628 0.72578 0.95287 0.0
C2934 C 0.79364 0.69392 0.89361 0.0
C2935 C 0.7611 0.75872 0.93067 0.0
C2936 C 0.80229 0.76042 0.86374 0.0
C2937 C 0.78445 0.75572 0.84471 0.0
C2938 C 0.79997 0.75191 0.88609 0.0
C2939 C 0.77964 0.73735 0.88921 0.0
C2940 C 0.76153 0.73281 0.8701 0.0
C2941 C 0.7639 0.74282 0.84871 0.0
C2942 C 0.8193 0.75851 0.90635 0.0
C2943 C 0.7397 0.717 0.872 0.0
H2944 H 0.78634 0.67891 0.93625 0.0
H2945 H 0.75961 0.73373 0.96792 0.0
H2946 H 0.78162 0.69068 0.87666 0.0
H2947 H 0.80915 0.70523 0.89012 0.0
H2948 H 0.79776 0.67761 0.89772 0.0
H2949 H 0.75492 0.76467 0.94764 0.0
H2950 H 0.77529 0.77189 0.9273 0.0
H2951 H 0.74752 0.75694 0.91534 0.0
H2952 H 0.81813 0.77076 0.86118 0.0
H2953 H 0.74939 0.74093 0.83537 0.0
H2954 H 0.82622 0.74343 0.90982 0.0
H2955 H 0.81345 0.76487 0.92334 0.0
H2956 H 0.83297 0.77181 0.90209 0.0
H2957 H 0.74273 0.69971 0.87329 0.0
H2958 H 0.72686 0.7161 0.85612 0.0
H2959 H 0.73289 0.72244 0.88869 0.0
C2960 C 0.82085 0.08643 0.04976 0.0
C2961 C 0.82271 0.1038 0.06883 0.0
C2962 C 0.83986 0.07905 0.04354 0.0
C2963 C 0.86088 0.08849 0.0577 0.0
C2964 C 0.86232 0.10418 0.07872 0.0
C2965 C 0.84317 0.11218 0.08371 0.0
C2966 C 0.83776 0.06296 0.02038 0.0
C2967 C 0.88431 0.11389 0.09469 0.0
C2968 C 0.90194 0.05479 0.03737 0.0
C2969 C 0.90934 0.06651 0.01862 0.0
C2970 C 0.88786 0.06314 0.05244 0.0
C2971 C 0.88124 0.0836 0.04847 0.0
C2972 C 0.89071 0.09668 0.03128 0.0
C2973 C 0.90455 0.08779 0.01629 0.0
C2974 C 0.87835 0.04903 0.0709 0.0
C2975 C 0.88449 0.11889 0.02687 0.0
H2976 H 0.80502 0.08044 0.03801 0.0
H2977 H 0.84443 0.12584 0.09834 0.0
H2978 H 0.84698 0.0718 0.007 0.0
H2979 H 0.84533 0.04828 0.02386 0.0
H2980 H 0.82004 0.05653 0.01208 0.0
H2981 H 0.8817 0.12173 0.11276 0.0
H2982 H 0.89413 0.1006 0.09723 0.0
H2983 H 0.89445 0.12714 0.08599 0.0
H2984 H 0.90601 0.03842 0.03926 0.0
H2985 H 0.9109 0.09704 0.00213 0.0
H2986 H 0.86095 0.04001 0.06369 0.0
H2987 H 0.87765 0.05993 0.08794 0.0
H2988 H 0.88835 0.03621 0.0751 0.0
H2989 H 0.86791 0.11543 0.01546 0.0
H2990 H 0.89694 0.12913 0.01731 0.0
H2991 H 0.88314 0.12909 0.04411 0.0
C2992 C 0.39843 0.41706 0.04842 0.0
C2993 C 0.37681 0.42111 0.04264 0.0
C2994 C 0.41781 0.43377 0.04792 0.0
C2995 C 0.4158 0.45517 0.0411 0.0
C2996 C 0.39403 0.45957 0.0357 0.0
C2997 C 0.37485 0.4426 0.03669 0.0
C2998 C 0.44055 0.42832 0.05425 0.0
C2999 C 0.39097 0.48205 0.02833 0.0
C3000 C 0.46952 0.5012 0.05784 0.0
C3001 C 0.47842 0.50126 0.03584 0.0
C3002 C 0.44845 0.48748 0.05943 0.0
C3003 C 0.43655 0.47242 0.03888 0.0
C3004 C 0.44547 0.47274 0.01653 0.0
C3005 C 0.46589 0.48766 0.01515 0.0
C3006 C 0.43918 0.48878 0.08328 0.0
C3007 C 0.434 0.45657 0.99432 0.0
H3008 H 0.40023 0.40065 0.05326 0.0
H3009 H 0.3583 0.44593 0.03203 0.0
H3010 H 0.45012 0.42979 0.0386 0.0
H3011 H 0.45029 0.44068 0.06961 0.0
H3012 H 0.43934 0.41099 0.05933 0.0
H3013 H 0.37316 0.48363 0.02675 0.0
H3014 H 0.40114 0.49618 0.04168 0.0
H3015 H 0.39699 0.48402 0.01056 0.0
H3016 H 0.47903 0.51196 0.07381 0.0
H3017 H 0.47264 0.48789 0.99806 0.0
H3018 H 0.43997 0.47309 0.09147 0.0
H3019 H 0.42132 0.49005 0.08044 0.0
H3020 H 0.44868 0.50353 0.09633 0.0
H3021 H 0.43385 0.43889 0.99778 0.0
H3022 H 0.44251 0.45958 0.9781 0.0
H3023 H 0.4163 0.45809 0.99028 0.0
C3024 C 0.39091 0.57206 0.75233 0.0
C3025 C 0.40869 0.57131 0.77001 0.0
C3026 C 0.37878 0.58944 0.75463 0.0
C3027 C 0.38401 0.60585 0.7756 0.0
C3028 C 0.40235 0.60543 0.79315 0.0
C3029 C 0.4147 0.58841 0.78992 0.0
C3030 C 0.35996 0.58986 0.73504 0.0
C3031 C 0.40813 0.62216 0.81611 0.0
C3032 C 0.36193 0.66036 0.78248 0.0
C3033 C 0.34457 0.65448 0.79641 0.0
C3034 C 0.37434 0.64442 0.77452 0.0
C3035 C 0.36915 0.6221 0.78056 0.0
C3036 C 0.35082 0.61582 0.7935 0.0
C3037 C 0.33884 0.63209 0.80133 0.0
C3038 C 0.39361 0.65176 0.76062 0.0
C3039 C 0.34449 0.59216 0.80008 0.0
H3040 H 0.38634 0.5589 0.73685 0.0
H3041 H 0.42828 0.5877 0.80375 0.0
H3042 H 0.34371 0.58683 0.74235 0.0
H3043 H 0.36226 0.60681 0.72887 0.0
H3044 H 0.35901 0.57687 0.71915 0.0
H3045 H 0.42348 0.62019 0.82744 0.0
H3046 H 0.41067 0.63976 0.81169 0.0
H3047 H 0.39399 0.61975 0.827 0.0
H3048 H 0.36644 0.67768 0.77872 0.0
H3049 H 0.32521 0.62743 0.81179 0.0
H3050 H 0.39276 0.63929 0.74433 0.0
H3051 H 0.40969 0.65247 0.77217 0.0
H3052 H 0.39379 0.66873 0.75487 0.0
H3053 H 0.34171 0.57947 0.78362 0.0
H3054 H 0.32908 0.58968 0.80903 0.0
H3055 H 0.35842 0.5887 0.81252 0.0
C3056 C 0.20418 0.59758 0.54309 0.0
C3057 C 0.20638 0.62081 0.54154 0.0
C3058 C 0.18308 0.58358 0.54279 0.0
C3059 C 0.16376 0.59301 0.54059 0.0
C3060 C 0.16583 0.61643 0.53935 0.0
C3061 C 0.18712 0.63006 0.5397 0.0
C3062 C 0.18148 0.55885 0.54542 0.0
C3063 C 0.14558 0.62716 0.53837 0.0
C3064 C 0.10789 0.55362 0.51663 0.0
C3065 C 0.09774 0.55271 0.53771 0.0
C3066 C 0.12934 0.56716 0.51725 0.0
C3067 C 0.14129 0.57847 0.53979 0.0
C3068 C 0.13152 0.57622 0.56136 0.0
C3069 C 0.10977 0.56353 0.55995 0.0
C3070 C 0.13914 0.56958 0.49387 0.0
C3071 C 0.14384 0.58649 0.58616 0.0
H3072 H 0.21897 0.59033 0.54485 0.0
H3073 H 0.18867 0.64807 0.53908 0.0
H3074 H 0.17316 0.55485 0.56151 0.0
H3075 H 0.17102 0.54809 0.52934 0.0
H3076 H 0.19818 0.55427 0.54749 0.0
H3077 H 0.14995 0.64555 0.53691 0.0
H3078 H 0.13301 0.61858 0.52268 0.0
H3079 H 0.13755 0.62497 0.55503 0.0
H3080 H 0.09936 0.54351 0.4999 0.0
H3081 H 0.10219 0.56178 0.57646 0.0
H3082 H 0.15529 0.56389 0.4948 0.0
H3083 H 0.14272 0.58771 0.49115 0.0
H3084 H 0.12769 0.5597 0.47789 0.0
H3085 H 0.15107 0.57332 0.59456 0.0
H3086 H 0.13209 0.59199 0.59818 0.0
H3087 H 0.15765 0.60114 0.58564 0.0
C3088 C 0.70487 0.97899 0.72955 0.0
C3089 C 0.717 1.00098 0.73808 0.0
C3090 C 0.71372 0.96018 0.73472 0.0
C3091 C 0.73456 0.96378 0.74966 0.0
C3092 C 0.7478 0.98596 0.75607 0.0
C3093 C 0.73902 1.00434 0.74958 0.0
C3094 C 0.69971 0.93671 0.72641 0.0
C3095 C 0.76987 0.9906 0.77256 0.0
C3096 C 0.74301 0.92949 0.80046 0.0
C3097 C 0.76021 0.9192 0.7934 0.0
C3098 C 0.73316 0.9427 0.78537 0.0
C3099 C 0.74068 0.94551 0.76263 0.0
C3100 C 0.75667 0.9336 0.75455 0.0
C3101 C 0.76644 0.92069 0.77017 0.0
C3102 C 0.71585 0.95492 0.79453 0.0
C3103 C 0.76444 0.93559 0.73008 0.0
H3104 H 0.68786 0.97648 0.72043 0.0
H3105 H 0.74834 0.0214 0.75626 0.0
H3106 H 0.71039 0.92424 0.72287 0.0
H3107 H 0.68955 0.93129 0.74075 0.0
H3108 H 0.68801 0.93639 0.7097 0.0
H3109 H 0.77887 0.00855 0.77416 0.0
H3110 H 0.76674 0.98672 0.79096 0.0
H3111 H 0.78094 0.97957 0.76589 0.0
H3112 H 0.73773 0.92773 0.81813 0.0
H3113 H 0.77968 0.91261 0.76459 0.0
H3114 H 0.70065 0.95165 0.78093 0.0
H3115 H 0.72272 0.97347 0.79746 0.0
H3116 H 0.71081 0.94967 0.81185 0.0
H3117 H 0.75001 0.9348 0.71598 0.0
H3118 H 0.77342 0.92202 0.72464 0.0
H3119 H 0.77601 0.9522 0.7307 0.0
C3120 C 0.73533 0.91021 0.55267 0.0
C3121 C 0.75551 0.91983 0.54477 0.0
C3122 C 0.71694 0.92101 0.55118 0.0
C3123 C 0.71845 0.9412 0.54032 0.0
C3124 C 0.739 0.95105 0.53269 0.0
C3125 C 0.75736 0.94049 0.53549 0.0
C3126 C 0.6958 0.91046 0.56063 0.0
C3127 C 0.74133 0.97223 0.5205 0.0
C3128 C 0.66971 0.95708 0.50355 0.0
C3129 C 0.66731 0.9767 0.51781 0.0
C3130 C 0.68489 0.9441 0.51171 0.0
C3131 C 0.69831 0.95111 0.53455 0.0
C3132 C 0.69461 0.96989 0.54984 0.0
C3133 C 0.67906 0.98245 0.54129 0.0
C3134 C 0.68783 0.92391 0.49503 0.0
C3135 C 0.70808 0.97756 0.57457 0.0
H3136 H 0.73398 0.89433 0.56013 0.0
H3137 H 0.77293 0.94789 0.52928 0.0
H3138 H 0.68809 0.92365 0.56965 0.0
H3139 H 0.68345 0.9008 0.54529 0.0
H3140 H 0.69908 0.89861 0.5737 0.0
H3141 H 0.75853 0.97792 0.51595 0.0
H3142 H 0.72936 0.96904 0.50352 0.0
H3143 H 0.73714 0.9862 0.53242 0.0
H3144 H 0.66038 0.95248 0.48549 0.0
H3145 H 0.67712 0.99758 0.55236 0.0
H3146 H 0.6874 0.90899 0.50488 0.0
H3147 H 0.70444 0.92775 0.48856 0.0
H3148 H 0.67464 0.91933 0.47902 0.0
H3149 H 0.70806 0.96294 0.58484 0.0
H3150 H 0.70147 0.99071 0.58527 0.0
H3151 H 0.72576 0.9847 0.5726 0.0
C3152 C 0.3853 0.44655 0.76126 0.0
C3153 C 0.40736 0.44717 0.77172 0.0
C3154 C 0.36825 0.42691 0.75971 0.0
C3155 C 0.3732 0.40745 0.76916 0.0
C3156 C 0.3954 0.40798 0.7797 0.0
C3157 C 0.41214 0.42767 0.7807 0.0
C3158 C 0.3449 0.42705 0.74811 0.0
C3159 C 0.40144 0.38778 0.79028 0.0
C3160 C 0.3271 0.36407 0.78884 0.0
C3161 C 0.32467 0.34545 0.77078 0.0
C3162 C 0.34247 0.38444 0.78829 0.0
C3163 C 0.35523 0.38666 0.76874 0.0
C3164 C 0.35193 0.36831 0.74977 0.0
C3165 C 0.33701 0.34781 0.75124 0.0
C3166 C 0.34583 0.40317 0.80928 0.0
C3167 C 0.36451 0.3702 0.72816 0.0
H3168 H 0.38132 0.46142 0.75421 0.0
H3169 H 0.42902 0.42784 0.78891 0.0
H3170 H 0.33879 0.41219 0.73391 0.0
H3171 H 0.33323 0.42568 0.76192 0.0
H3172 H 0.34415 0.44273 0.73983 0.0
H3173 H 0.41935 0.39099 0.79823 0.0
H3174 H 0.39088 0.38326 0.8046 0.0
H3175 H 0.39804 0.37288 0.77602 0.0
H3176 H 0.31784 0.36231 0.80417 0.0
H3177 H 0.33508 0.33355 0.73716 0.0
H3178 H 0.34328 0.41914 0.80264 0.0
H3179 H 0.36332 0.40634 0.81852 0.0
H3180 H 0.33423 0.39902 0.82281 0.0
H3181 H 0.3616 0.38511 0.71944 0.0
H3182 H 0.35937 0.35483 0.71445 0.0
H3183 H 0.38279 0.37289 0.7341 0.0
C3184 C 0.20115 0.63896 0.29658 0.0
C3185 C 0.20725 0.62061 0.28337 0.0
C3186 C 0.21446 0.66083 0.29898 0.0
C3187 C 0.23415 0.66433 0.28777 0.0
C3188 C 0.24113 0.64573 0.2757 0.0
C3189 C 0.22761 0.62403 0.27372 0.0
C3190 C 0.20676 0.68037 0.3122 0.0
C3191 C 0.26211 0.64893 0.26353 0.0
C3192 C 0.25039 0.71906 0.26211 0.0
C3193 C 0.26902 0.73018 0.27854 0.0
C3194 C 0.23856 0.69776 0.26531 0.0
C3195 C 0.24564 0.6876 0.28555 0.0
C3196 C 0.26421 0.69915 0.3026 0.0
C3197 C 0.27603 0.72032 0.2986 0.0
C3198 C 0.2191 0.68579 0.24647 0.0
C3199 C 0.27197 0.6889 0.32453 0.0
H3200 H 0.18564 0.6364 0.30444 0.0
H3201 H 0.23256 0.60993 0.26367 0.0
H3202 H 0.22078 0.69121 0.32507 0.0
H3203 H 0.20121 0.69113 0.29895 0.0
H3204 H 0.19262 0.67452 0.32234 0.0
H3205 H 0.26612 0.63254 0.25658 0.0
H3206 H 0.25992 0.65864 0.24808 0.0
H3207 H 0.27663 0.65888 0.27638 0.0
H3208 H 0.24553 0.72677 0.24632 0.0
H3209 H 0.29097 0.72893 0.31079 0.0
H3210 H 0.20385 0.68074 0.25521 0.0
H3211 H 0.22298 0.67009 0.23742 0.0
H3212 H 0.21529 0.69652 0.23238 0.0
H3213 H 0.25776 0.6837 0.33477 0.0
H3214 H 0.28562 0.70086 0.33691 0.0
H3215 H 0.27811 0.67343 0.31865 0.0
C3216 C 0.53325 0.70981 0.4862 0.0
C3217 C 0.51127 0.71253 0.47859 0.0
C3218 C 0.53788 0.68898 0.49345 0.0
C3219 C 0.52039 0.6694 0.4927 0.0
C3220 C 0.49825 0.672 0.48454 0.0
C3221 C 0.49402 0.6932 0.4782 0.0
C3222 C 0.56173 0.68805 0.50235 0.0
C3223 C 0.47873 0.65223 0.48272 0.0
C3224 C 0.53203 0.60755 0.49012 0.0
C3225 C 0.53219 0.60265 0.51425 0.0
C3226 C 0.52911 0.62899 0.48321 0.0
C3227 C 0.52503 0.64647 0.50035 0.0
C3228 C 0.52495 0.6415 0.52474 0.0
C3229 C 0.52899 0.62028 0.53137 0.0
C3230 C 0.53046 0.63292 0.45727 0.0
C3231 C 0.5203 0.65864 0.54405 0.0
H3232 H 0.54692 0.72434 0.48729 0.0
H3233 H 0.47691 0.69462 0.47273 0.0
H3234 H 0.56284 0.68338 0.52099 0.0
H3235 H 0.56714 0.67473 0.49064 0.0
H3236 H 0.57352 0.70448 0.50252 0.0
H3237 H 0.4627 0.65623 0.47507 0.0
H3238 H 0.48181 0.63743 0.4711 0.0
H3239 H 0.47697 0.64715 0.50096 0.0
H3240 H 0.53457 0.5946 0.47644 0.0
H3241 H 0.52896 0.61724 0.55008 0.0
H3242 H 0.54321 0.64849 0.45662 0.0
H3243 H 0.51412 0.63562 0.44889 0.0
H3244 H 0.53492 0.61849 0.44627 0.0
H3245 H 0.53398 0.67397 0.54694 0.0
H3246 H 0.51889 0.6519 0.56159 0.0
H3247 H 0.50449 0.66398 0.53812 0.0
C3248 C 0.63371 0.29597 0.67177 0.0
C3249 C 0.63788 0.30585 0.65063 0.0
C3250 C 0.65143 0.29283 0.68894 0.0
C3251 C 0.67427 0.30017 0.68557 0.0
C3252 C 0.67853 0.31065 0.66457 0.0
C3253 C 0.66053 0.31307 0.64745 0.0
C3254 C 0.64564 0.28121 0.71055 0.0
C3255 C 0.70228 0.31921 0.66 0.0
C3256 C 0.72228 0.31035 0.73963 0.0
C3257 C 0.73205 0.29137 0.73569 0.0
C3258 C 0.70349 0.31325 0.7239 0.0
C3259 C 0.69371 0.2967 0.70355 0.0
C3260 C 0.70326 0.2772 0.69994 0.0
C3261 C 0.72214 0.27482 0.71588 0.0
C3262 C 0.69432 0.33434 0.72887 0.0
C3263 C 0.69351 0.25871 0.67913 0.0
H3264 H 0.61647 0.29001 0.67457 0.0
H3265 H 0.66429 0.32071 0.63138 0.0
H3266 H 0.65354 0.2663 0.71115 0.0
H3267 H 0.6524 0.29292 0.72751 0.0
H3268 H 0.62725 0.27549 0.71018 0.0
H3269 H 0.70302 0.32793 0.64359 0.0
H3270 H 0.7117 0.33118 0.67585 0.0
H3271 H 0.71094 0.30485 0.6577 0.0
H3272 H 0.72958 0.32318 0.75495 0.0
H3273 H 0.72918 0.25988 0.71282 0.0
H3274 H 0.67628 0.32971 0.73087 0.0
H3275 H 0.69566 0.34411 0.71328 0.0
H3276 H 0.70333 0.34544 0.74554 0.0
H3277 H 0.67564 0.25182 0.68055 0.0
H3278 H 0.70263 0.24459 0.67869 0.0
H3279 H 0.69406 0.26572 0.66168 0.0
C3280 C 0.01727 0.34735 0.99567 0.0
C3281 C 0.01341 0.33897 0.97068 0.0
C3282 C 0.01996 0.371 0.00436 0.0
C3283 C 0.01848 0.38729 0.98797 0.0
C3284 C 0.01424 0.37878 0.96281 0.0
C3285 C 0.01196 0.35523 0.95465 0.0
C3286 C 0.02463 0.37863 0.03129 0.0
C3287 C 0.01226 0.39472 0.94422 0.0
C3288 C 1.00602 0.44707 0.00827 0.0
C3289 C 0.02708 0.46205 0.01061 0.0
C3290 C 1.00308 0.42311 1.00159 0.0
C3291 C 0.02158 0.41305 0.99675 0.0
C3292 C 0.04293 0.42806 0.99919 0.0
C3293 C 0.04536 0.45192 0.00594 0.0
C3294 C 0.97991 0.40848 0.99941 0.0
C3295 C 0.06345 0.4189 0.99465 0.0
H3296 H 0.01863 0.33545 0.00854 0.0
H3297 H 1.009 0.3495 0.93533 0.0
H3298 H 0.04017 0.392 0.03565 0.0
H3299 H 0.01073 0.38615 0.03729 0.0
H3300 H 0.02652 0.36446 0.04178 0.0
H3301 H 1.00819 0.3857 0.92541 0.0
H3302 H 0.99902 0.40426 0.94783 0.0
H3303 H 0.02825 0.40731 0.94559 0.0
H3304 H 0.99158 0.4541 0.01124 0.0
H3305 H 0.0619 0.46271 0.00763 0.0
H3306 H 0.97995 0.39509 0.01137 0.0
H3307 H 0.97474 0.39987 0.98053 0.0
H3308 H 0.96726 0.41839 0.00431 0.0
H3309 H 0.06601 0.40655 0.00734 0.0
H3310 H 0.07885 0.43247 0.99696 0.0
H3311 H 0.06105 0.40971 0.97599 0.0
C3312 C 0.01375 0.79345 0.17216 0.0
C3313 C 0.01167 0.7936 0.14695 0.0
C3314 C 0.99491 0.79071 0.18462 0.0
C3315 C 0.97313 0.78771 0.17167 0.0
C3316 C 0.97088 0.78849 0.14628 0.0
C3317 C 0.99016 0.79152 0.13424 0.0
C3318 C 0.99833 0.79053 0.21171 0.0
C3319 C 0.94808 0.78578 0.13181 0.0
C3320 C 0.92924 0.75372 0.20394 0.0
C3321 C 0.92104 0.77071 0.21698 0.0
C3322 C 0.94489 0.75894 0.18775 0.0
C3323 C 0.95299 0.78183 0.18468 0.0
C3324 C 0.94371 0.79897 0.19669 0.0
C3325 C 0.92778 0.79318 0.21262 0.0
C3326 C 0.95383 0.74001 0.17507 0.0
C3327 C 0.95168 0.82361 0.19418 0.0
H3328 H 0.03025 0.79542 0.18232 0.0
H3329 H 0.98834 0.79191 0.11483 0.0
H3330 H 0.98992 0.80303 0.22086 0.0
H3331 H 0.99061 0.77358 0.21602 0.0
H3332 H 0.01635 0.79454 0.21937 0.0
H3333 H 0.9491 0.78741 0.11238 0.0
H3334 H 0.93768 0.76893 0.1331 0.0
H3335 H 0.93931 0.79873 0.13942 0.0
H3336 H 0.92399 0.7363 0.20715 0.0
H3337 H 0.92164 0.80642 0.22276 0.0
H3338 H 0.97162 0.74139 0.18259 0.0
H3339 H 0.95331 0.74139 0.15543 0.0
H3340 H 0.94419 0.72303 0.17725 0.0
H3341 H 0.96765 0.8304 0.20639 0.0
H3342 H 0.93932 0.83383 0.19927 0.0
H3343 H 0.95493 0.8258 0.1754 0.0
C3344 C 0.54943 0.3178 0.15695 0.0
C3345 C 0.53318 0.31394 0.1726 0.0
C3346 C 0.55148 0.33652 0.14393 0.0
C3347 C 0.5363 0.35133 0.14576 0.0
C3348 C 0.51949 0.34716 0.16116 0.0
C3349 C 0.5184 0.32878 0.17473 0.0
C3350 C 0.56994 0.34042 0.12818 0.0
C3351 C 0.50223 0.36169 0.16271 0.0
C3352 C 0.5584 0.41013 0.12939 0.0
C3353 C 0.55062 0.40757 0.10454 0.0
C3354 C 0.5527 0.39247 0.14333 0.0
C3355 C 0.53879 0.37159 0.13224 0.0
C3356 C 0.52943 0.36956 0.10754 0.0
C3357 C 0.53563 0.3875 0.09392 0.0
C3358 C 0.56318 0.39553 0.16947 0.0
C3359 C 0.51417 0.3479 0.09492 0.0
H3360 H 0.56067 0.30618 0.15499 0.0
H3361 H 0.50536 0.32544 0.18624 0.0
H3362 H 0.56259 0.3392 0.10897 0.0
H3363 H 0.58041 0.35774 0.13348 0.0
H3364 H 0.58095 0.32798 0.12952 0.0
H3365 H 0.49024 0.3563 0.17548 0.0
H3366 H 0.51058 0.37968 0.16861 0.0
H3367 H 0.49268 0.36079 0.14449 0.0
H3368 H 0.57034 0.42544 0.13752 0.0
H3369 H 0.52998 0.38522 0.07461 0.0
H3370 H 0.57545 0.38441 0.17144 0.0
H3371 H 0.55025 0.39046 0.1813 0.0
H3372 H 0.57199 0.41332 0.17599 0.0
H3373 H 0.52441 0.3354 0.08982 0.0
H3374 H 0.50426 0.35072 0.07812 0.0
H3375 H 0.50248 0.34038 0.10703 0.0
C3376 C 0.96444 0.32618 0.35922 0.0
C3377 C 0.98122 0.3191 0.3465 0.0
C3378 C 0.94154 0.32266 0.34919 0.0
C3379 C 0.93403 0.31195 0.32508 0.0
C3380 C 0.9508 0.30537 0.31154 0.0
C3381 C 0.97391 0.30889 0.32227 0.0
C3382 C 0.9251 0.33001 0.36495 0.0
C3383 C 0.94427 0.29444 0.2856 0.0
C3384 C 0.87005 0.28391 0.31175 0.0
C3385 C 0.85995 0.30043 0.30163 0.0
C3386 C 0.89374 0.287 0.31833 0.0
C3387 C 0.90867 0.30725 0.31499 0.0
C3388 C 0.89867 0.32383 0.30433 0.0
C3389 C 0.87486 0.3203 0.29792 0.0
C3390 C 0.90281 0.26853 0.32942 0.0
C3391 C 0.91315 0.34571 0.30001 0.0
H3392 H 0.96909 0.33434 0.37777 0.0
H3393 H 0.98606 0.30314 0.31181 0.0
H3394 H 0.91637 0.34201 0.35622 0.0
H3395 H 0.91212 0.31509 0.36705 0.0
H3396 H 0.93331 0.3383 0.38327 0.0
H3397 H 0.95859 0.28924 0.27764 0.0
H3398 H 0.9305 0.27933 0.28439 0.0
H3399 H 0.93787 0.3065 0.27458 0.0
H3400 H 0.85937 0.2683 0.31474 0.0
H3401 H 0.86793 0.33333 0.29001 0.0
H3402 H 0.91058 0.2749 0.34838 0.0
H3403 H 0.91609 0.26366 0.31932 0.0
H3404 H 0.88956 0.25319 0.32945 0.0
H3405 H 0.91975 0.35645 0.31763 0.0
H3406 H 0.90374 0.35537 0.28842 0.0
H3407 H 0.92777 0.34234 0.29128 0.0
C3408 C 0.01685 0.6764 0.659 0.0
C3409 C 0.02276 0.69641 0.64849 0.0
C3410 C 0.01682 0.6546 0.64612 0.0
C3411 C 0.02346 0.65255 0.6224 0.0
C3412 C 0.02874 0.67262 0.61167 0.0
C3413 C 0.02783 0.69372 0.62437 0.0
C3414 C 1.01016 0.63378 0.65815 0.0
C3415 C 0.03622 0.67202 0.58681 0.0
C3416 C 0.04984 0.60412 0.59513 0.0
C3417 C 0.03276 0.59171 0.57714 0.0
C3418 C 0.0466 0.62293 0.61082 0.0
C3419 C 0.02575 0.63003 0.60862 0.0
C3420 C 1.00829 0.61719 0.59068 0.0
C3421 C 0.01195 0.5983 0.57537 0.0
C3422 C 0.06591 0.63579 0.62927 0.0
C3423 C 0.98576 0.62369 0.58734 0.0
H3424 H 0.01284 0.67773 0.67739 0.0
H3425 H 0.03197 0.70854 0.61528 0.0
H3426 H 0.9982 0.62042 0.64539 0.0
H3427 H 0.02521 0.62687 0.66327 0.0
H3428 H 1.00237 0.63748 0.67472 0.0
H3429 H 0.0404 0.68914 0.58114 0.0
H3430 H 0.05125 0.66441 0.58664 0.0
H3431 H 0.02285 0.66127 0.57312 0.0
H3432 H 0.06594 0.59922 0.5968 0.0
H3433 H 0.99855 0.58884 0.56166 0.0
H3434 H 0.06048 0.63763 0.6475 0.0
H3435 H 0.07152 0.65309 0.62457 0.0
H3436 H 0.08039 0.62728 0.63017 0.0
H3437 H 0.9786 0.62393 0.60469 0.0
H3438 H 0.9737 0.61187 0.57312 0.0
H3439 H 0.98769 0.64104 0.58224 0.0
C3440 C 0.61568 0.79872 0.81696 0.0
C3441 C 0.61525 0.81284 0.83873 0.0
C3442 C 0.63619 0.79443 0.80898 0.0
C3443 C 0.65764 0.80458 0.82255 0.0
C3444 C 0.65725 0.8191 0.84432 0.0
C3445 C 0.63654 0.82279 0.85207 0.0
C3446 C 0.63483 0.77863 0.7859 0.0
C3447 C 0.67898 0.83099 0.85963 0.0
C3448 C 0.71139 0.7789 0.81493 0.0
C3449 C 0.72336 0.79261 0.79984 0.0
C3450 C 0.69036 0.78236 0.82207 0.0
C3451 C 0.68023 0.80013 0.81425 0.0
C3452 C 0.69228 0.81393 0.79886 0.0
C3453 C 0.71326 0.81005 0.79197 0.0
C3454 C 0.67895 0.76686 0.83827 0.0
C3455 C 0.68299 0.83305 0.78958 0.0
H3456 H 0.59981 0.79062 0.80618 0.0
H3457 H 0.63711 0.83379 0.86882 0.0
H3458 H 0.64476 0.78744 0.77302 0.0
H3459 H 0.64225 0.76396 0.78988 0.0
H3460 H 0.61731 0.77224 0.77697 0.0
H3461 H 0.67631 0.84182 0.87591 0.0
H3462 H 0.68849 0.81834 0.86559 0.0
H3463 H 0.68955 0.84175 0.8487 0.0
H3464 H 0.71857 0.76533 0.82134 0.0
H3465 H 0.72193 0.82094 0.78038 0.0
H3466 H 0.6618 0.75853 0.82943 0.0
H3467 H 0.67721 0.77688 0.85549 0.0
H3468 H 0.68835 0.75358 0.84254 0.0
H3469 H 0.66675 0.82612 0.7779 0.0
H3470 H 0.69455 0.84309 0.77893 0.0
H3471 H 0.67969 0.84455 0.80496 0.0
C3472 C 0.47749 0.50267 0.694 0.0
C3473 C 0.4668 0.5174 0.70731 0.0
C3474 C 0.48411 0.50691 0.67135 0.0
C3475 C 0.48063 0.52679 0.66176 0.0
C3476 C 0.46942 0.54156 0.67483 0.0
C3477 C 0.46235 0.53652 0.69722 0.0
C3478 C 0.4955 0.49035 0.65802 0.0
C3479 C 0.46575 0.56318 0.66568 0.0
C3480 C 0.52411 0.54521 0.62025 0.0
C3481 C 0.51217 0.53869 0.59687 0.0
C3482 C 0.51363 0.54324 0.64128 0.0
C3483 C 0.49065 0.53285 0.6393 0.0
C3484 C 0.47818 0.52649 0.61582 0.0
C3485 C 0.48888 0.53023 0.59503 0.0
C3486 C 0.5275 0.55172 0.66573 0.0
C3487 C 0.4539 0.51442 0.6125 0.0
H3488 H 0.48085 0.48773 0.70141 0.0
H3489 H 0.45419 0.54807 0.70733 0.0
H3490 H 0.48789 0.48615 0.63873 0.0
H3491 H 0.51347 0.49813 0.65835 0.0
H3492 H 0.49439 0.47439 0.66621 0.0
H3493 H 0.45709 0.57305 0.67804 0.0
H3494 H 0.48211 0.57393 0.66366 0.0
H3495 H 0.45561 0.55929 0.64751 0.0
H3496 H 0.54176 0.5518 0.62244 0.0
H3497 H 0.47911 0.52535 0.57724 0.0
H3498 H 0.53053 0.53713 0.67493 0.0
H3499 H 0.5184 0.56167 0.67744 0.0
H3500 H 0.54398 0.56254 0.66417 0.0
H3501 H 0.45288 0.49694 0.61703 0.0
H3502 H 0.44573 0.51336 0.59358 0.0
H3503 H 0.44436 0.52299 0.62494 0.0
C3504 C 0.79646 0.18409 1.00017 0.0
C3505 C 0.78158 0.16391 0.00186 0.0
C3506 C 0.79309 0.19605 0.98058 0.0
C3507 C 0.77375 0.18809 0.96329 0.0
C3508 C 0.7591 0.16724 0.96465 0.0
C3509 C 0.76348 0.15514 0.98381 0.0
C3510 C 0.8097 0.21757 0.97903 0.0
C3511 C 0.73808 0.15841 0.94675 0.0
C3512 C 0.74454 0.22871 0.93283 0.0
C3513 C 0.74764 0.22333 0.90862 0.0
C3514 C 0.75398 0.21815 0.95114 0.0
C3515 C 0.76735 0.20236 0.94514 0.0
C3516 C 0.77206 0.19821 0.92115 0.0
C3517 C 0.76172 0.20832 0.90305 0.0
C3518 C 0.7486 0.22294 0.97664 0.0
C3519 C 0.78714 0.18229 0.91437 0.0
H3520 H 0.81054 0.1906 0.01429 0.0
H3521 H 0.752 0.13953 0.9855 0.0
H3522 H 0.8124 0.21915 0.95997 0.0
H3523 H 0.80311 0.23241 0.98606 0.0
H3524 H 0.82613 0.21826 0.98996 0.0
H3525 H 0.72862 0.14182 0.95034 0.0
H3526 H 0.72695 0.17077 0.94762 0.0
H3527 H 0.74237 0.15643 0.92802 0.0
H3528 H 0.73431 0.2408 0.93743 0.0
H3529 H 0.76413 0.20377 0.88442 0.0
H3530 H 0.76424 0.22813 0.98964 0.0
H3531 H 0.73876 0.20727 0.98189 0.0
H3532 H 0.73881 0.23646 0.9785 0.0
H3533 H 0.80215 0.18498 0.92819 0.0
H3534 H 0.79273 0.18452 0.89641 0.0
H3535 H 0.77799 0.16451 0.91356 0.0
C3536 C 0.12043 0.53729 0.19021 0.0
C3537 C 0.14299 0.54798 0.19638 0.0
C3538 C 0.1099 0.53531 0.16655 0.0
C3539 C 0.12227 0.54457 0.14882 0.0
C3540 C 0.14538 0.55437 0.15458 0.0
C3541 C 0.15562 0.55584 0.1785 0.0
C3542 C 0.08524 0.52431 0.16091 0.0
C3543 C 0.15889 0.56442 0.13597 0.0
C3544 C 0.08842 0.52411 0.08819 0.0
C3545 C 0.07528 0.54047 0.0872 0.0
C3546 C 0.10592 0.52646 0.10704 0.0
C3547 C 0.11001 0.54554 0.12505 0.0
C3548 C 0.09807 0.56308 0.12275 0.0
C3549 C 0.08042 0.56011 0.10396 0.0
C3550 C 0.11838 0.50748 0.10894 0.0
C3551 C 0.10246 0.58395 0.14136 0.0
H3552 H 0.11087 0.53087 0.20407 0.0
H3553 H 0.17312 0.56409 0.18345 0.0
H3554 H 0.07543 0.53719 0.1564 0.0
H3555 H 0.08227 0.51105 0.14494 0.0
H3556 H 0.07866 0.51644 0.17638 0.0
H3557 H 0.1772 0.56751 0.14204 0.0
H3558 H 0.15495 0.55319 0.11837 0.0
H3559 H 0.15448 0.58083 0.13278 0.0
H3560 H 0.08431 0.50896 0.07497 0.0
H3561 H 0.07033 0.57286 0.10268 0.0
H3562 H 0.11147 0.49678 0.12231 0.0
H3563 H 0.13645 0.51422 0.11539 0.0
H3564 H 0.11665 0.49655 0.09127 0.0
H3565 H 0.09514 0.57952 0.1579 0.0
H3566 H 0.09488 0.59764 0.13455 0.0
H3567 H 0.12073 0.59052 0.14664 0.0
C3568 C 0.81624 0.87487 0.45963 0.0
C3569 C 0.80691 0.86297 0.47746 0.0
C3570 C 0.81594 0.86404 0.4359 0.0
C3571 C 0.80521 0.84088 0.42936 0.0
C3572 C 0.79557 0.82886 0.44731 0.0
C3573 C 0.79696 0.83989 0.47118 0.0
C3574 C 0.827 0.87747 0.41774 0.0
C3575 C 0.7832 0.80449 0.44114 0.0
C3576 C 0.78459 0.8221 0.3617 0.0
C3577 C 0.80034 0.80967 0.35433 0.0
C3578 C 0.7856 0.83166 0.38602 0.0
C3579 C 0.80329 0.82956 0.40359 0.0
C3580 C 0.81918 0.81689 0.39633 0.0
C3581 C 0.81721 0.80672 0.37199 0.0
C3582 C 0.76766 0.84408 0.39284 0.0
C3583 C 0.83875 0.81471 0.41406 0.0
H3584 H 0.82401 0.89269 0.46433 0.0
H3585 H 0.78946 0.83063 0.48474 0.0
H3586 H 0.83864 0.86823 0.40911 0.0
H3587 H 0.81411 0.87955 0.40315 0.0
H3588 H 0.83648 0.89455 0.42618 0.0
H3589 H 0.77564 0.79784 0.45673 0.0
H3590 H 0.76968 0.80288 0.42577 0.0
H3591 H 0.79481 0.79372 0.43528 0.0
H3592 H 0.77124 0.82428 0.34839 0.0
H3593 H 0.82925 0.79697 0.36674 0.0
H3594 H 0.77512 0.86232 0.39846 0.0
H3595 H 0.76028 0.83741 0.40849 0.0
H3596 H 0.75398 0.8425 0.3776 0.0
H3597 H 0.84969 0.8317 0.42007 0.0
H3598 H 0.84894 0.80332 0.40603 0.0
H3599 H 0.83281 0.80816 0.43043 0.0
C3600 C 0.48515 0.5244 0.84344 0.0
C3601 C 0.46168 0.52018 0.83824 0.0
C3602 C 0.49596 0.52687 0.86748 0.0
C3603 C 0.48308 0.52476 0.88698 0.0
C3604 C 0.45935 0.52042 0.8818 0.0
C3605 C 0.449 0.51832 0.85762 0.0
C3606 C 0.52124 0.53163 0.87202 0.0
C3607 C 0.44486 0.51798 0.90184 0.0
C3608 C 0.50844 0.50734 0.94575 0.0
C3609 C 0.51597 0.52808 0.96089 0.0
C3610 C 0.49821 0.50613 0.92172 0.0
C3611 C 0.49434 0.52608 0.91259 0.0
C3612 C 0.50121 0.54709 0.92803 0.0
C3613 C 0.51225 0.54789 0.95175 0.0
C3614 C 0.49164 0.48338 0.90604 0.0
C3615 C 0.49693 0.56878 0.9195 0.0
H3616 H 0.49516 0.52612 0.8287 0.0
H3617 H 0.43087 0.51515 0.85389 0.0
H3618 H 0.52764 0.54717 0.88524 0.0
H3619 H 0.52685 0.51744 0.88005 0.0
H3620 H 0.52891 0.53388 0.85515 0.0
H3621 H 0.4267 0.51491 0.89494 0.0
H3622 H 0.44795 0.50369 0.91155 0.0
H3623 H 0.4493 0.53354 0.91528 0.0
H3624 H 0.5107 0.49193 0.95257 0.0
H3625 H 0.51768 0.56404 0.96326 0.0
H3626 H 0.5 0.484 0.88946 0.0
H3627 H 0.47329 0.47922 0.90012 0.0
H3628 H 0.49624 0.46952 0.9156 0.0
H3629 H 0.50686 0.57285 0.90458 0.0
H3630 H 0.50144 0.58333 0.93428 0.0
H3631 H 0.47898 0.5667 0.91219 0.0
C3632 C 0.75622 0.17353 0.139 0.0
C3633 C 0.77335 0.16755 0.1269 0.0
C3634 C 0.76126 0.18547 0.16235 0.0
C3635 C 0.78399 0.19236 0.17275 0.0
C3636 C 0.8008 0.18359 0.16193 0.0
C3637 C 0.79513 0.17086 0.13899 0.0
C3638 C 0.74277 0.19342 0.17431 0.0
C3639 C 0.82516 0.19046 0.17273 0.0
C3640 C 0.79462 0.2537 0.19885 0.0
C3641 C 0.79552 0.25207 0.2236 0.0
C3642 C 0.79234 0.23431 0.18212 0.0
C3643 C 0.79047 0.21291 0.19054 0.0
C3644 C 0.79284 0.21145 0.21557 0.0
C3645 C 0.79586 0.23132 0.23172 0.0
C3646 C 0.7906 0.23665 0.15542 0.0
C3647 C 0.79041 0.18905 0.22537 0.0
H3648 H 0.7393 0.17052 0.12951 0.0
H3649 H 0.80824 0.16597 0.12937 0.0
H3650 H 0.74561 0.19337 0.19422 0.0
H3651 H 0.74253 0.21106 0.17095 0.0
H3652 H 0.72608 0.18261 0.16695 0.0
H3653 H 0.83524 0.17885 0.16489 0.0
H3654 H 0.83206 0.20783 0.1689 0.0
H3655 H 0.8271 0.19079 0.1927 0.0
H3656 H 0.79485 0.26994 0.19244 0.0
H3657 H 0.79746 0.23066 0.25066 0.0
H3658 H 0.77309 0.22974 0.14673 0.0
H3659 H 0.80155 0.22684 0.14632 0.0
H3660 H 0.79534 0.25459 0.15224 0.0
H3661 H 0.77237 0.18224 0.22607 0.0
H3662 H 0.79936 0.19107 0.24406 0.0
H3663 H 0.79671 0.17634 0.21376 0.0
C3664 C 0.15816 0.52819 0.32814 0.0
C3665 C 0.17104 0.5466 0.31973 0.0
C3666 C 0.14555 0.53171 0.34704 0.0
C3667 C 0.14526 0.55419 0.35665 0.0
C3668 C 0.1593 0.57273 0.34898 0.0
C3669 C 0.17245 0.56861 0.33086 0.0
C3670 C 0.1314 0.5115 0.35538 0.0
C3671 C 0.15909 0.59698 0.35843 0.0
C3672 C 0.09443 0.57083 0.37933 0.0
C3673 C 0.10205 0.57675 0.40415 0.0
C3674 C 0.10782 0.56191 0.3637 0.0
C3675 C 0.12916 0.55878 0.37328 0.0
C3676 C 0.13629 0.56331 0.39847 0.0
C3677 C 0.12279 0.57256 0.41359 0.0
C3678 C 0.09965 0.55708 0.33683 0.0
C3679 C 0.15869 0.55954 0.4093 0.0
H3680 H 0.15703 0.51118 0.3191 0.0
H3681 H 0.18255 0.5827 0.32417 0.0
H3682 H 0.13147 0.5141 0.37531 0.0
H3683 H 0.11381 0.50915 0.34674 0.0
H3684 H 0.13737 0.49571 0.35032 0.0
H3685 H 0.17154 0.60937 0.35104 0.0
H3686 H 0.14218 0.60039 0.35338 0.0
H3687 H 0.16267 0.59985 0.3785 0.0
H3688 H 0.07816 0.57346 0.37208 0.0
H3689 H 0.12887 0.57718 0.43275 0.0
H3690 H 0.10185 0.5401 0.32932 0.0
H3691 H 0.10975 0.56973 0.32736 0.0
H3692 H 0.0817 0.55783 0.3327 0.0
H3693 H 0.16149 0.5429 0.40141 0.0
H3694 H 0.16002 0.56019 0.42933 0.0
H3695 H 0.1723 0.57283 0.405 0.0
C3696 C 0.78519 0.85128 0.61121 0.0
C3697 C 0.80715 0.86072 0.60759 0.0
C3698 C 0.78066 0.84247 0.63293 0.0
C3699 C 0.79843 0.8437 0.65191 0.0
C3700 C 0.82047 0.85436 0.64872 0.0
C3701 C 0.82461 0.86226 0.6265 0.0
C3702 C 0.75703 0.83077 0.63503 0.0
C3703 C 0.83989 0.85678 0.66853 0.0
C3704 C 0.78494 0.83289 0.71571 0.0
C3705 C 0.78932 0.81111 0.71705 0.0
C3706 C 0.7879 0.84377 0.69485 0.0
C3707 C 0.79444 0.83232 0.67419 0.0
C3708 C 0.79807 0.81004 0.67514 0.0
C3709 C 0.79606 0.80004 0.69659 0.0
C3710 C 0.78466 0.8678 0.69522 0.0
C3711 C 0.80418 0.79667 0.65343 0.0
H3712 H 0.77169 0.8497 0.5965 0.0
H3713 H 0.84163 0.86936 0.62374 0.0
H3714 H 0.75661 0.81284 0.63765 0.0
H3715 H 0.75119 0.83894 0.65112 0.0
H3716 H 0.7451 0.83112 0.61873 0.0
H3717 H 0.85527 0.86808 0.66463 0.0
H3718 H 0.83551 0.86365 0.68616 0.0
H3719 H 0.84369 0.83991 0.67053 0.0
H3720 H 0.77984 0.84178 0.73131 0.0
H3721 H 0.7997 0.78334 0.69723 0.0
H3722 H 0.77135 0.8687 0.68051 0.0
H3723 H 0.80035 0.87892 0.69185 0.0
H3724 H 0.78005 0.87458 0.71278 0.0
H3725 H 0.79188 0.7963 0.63722 0.0
H3726 H 0.80463 0.77896 0.65633 0.0
H3727 H 0.82087 0.80496 0.64939 0.0
C3728 C 0.73902 0.47104 0.48465 0.0
C3729 C 0.75252 0.46268 0.50164 0.0
C3730 C 0.72064 0.47949 0.49146 0.0
C3731 C 0.71588 0.47898 0.51558 0.0
C3732 C 0.72941 0.47003 0.53254 0.0
C3733 C 0.7478 0.46216 0.52534 0.0
C3734 C 0.70673 0.48929 0.47312 0.0
C3735 C 0.72455 0.46883 0.55831 0.0
C3736 C 0.68657 0.51774 0.55013 0.0
C3737 C 0.66672 0.50266 0.55207 0.0
C3738 C 0.70209 0.51086 0.53611 0.0
C3739 C 0.69736 0.48844 0.52395 0.0
C3740 C 0.67645 0.47381 0.52432 0.0
C3741 C 0.66131 0.4811 0.53869 0.0
C3742 C 0.7242 0.5269 0.53589 0.0
C3743 C 0.67076 0.44999 0.51099 0.0
H3744 H 0.74297 0.47112 0.46625 0.0
H3745 H 0.75835 0.45524 0.53811 0.0
H3746 H 0.68857 0.48345 0.47393 0.0
H3747 H 0.7107 0.50803 0.47733 0.0
H3748 H 0.71016 0.48469 0.45435 0.0
H3749 H 0.73634 0.46058 0.56882 0.0
H3750 H 0.72575 0.48616 0.56776 0.0
H3751 H 0.70723 0.45919 0.55835 0.0
H3752 H 0.69022 0.53464 0.56021 0.0
H3753 H 0.64549 0.46987 0.53986 0.0
H3754 H 0.72874 0.52655 0.51724 0.0
H3755 H 0.73763 0.52146 0.54728 0.0
H3756 H 0.72383 0.54461 0.54306 0.0
H3757 H 0.67546 0.4498 0.49241 0.0
H3758 H 0.65262 0.44231 0.50974 0.0
H3759 H 0.68046 0.43927 0.52068 0.0
C3760 C 0.1897 0.13751 0.48698 0.0
C3761 C 0.20333 0.14917 0.50806 0.0
C3762 C 0.17064 0.12058 0.48826 0.0
C3763 C 0.16459 0.11575 0.51119 0.0
C3764 C 0.17863 0.12734 0.53251 0.0
C3765 C 0.19795 0.14364 0.53065 0.0
C3766 C 0.15677 0.1081 0.46504 0.0
C3767 C 0.17279 0.12319 0.55735 0.0
C3768 C 0.10227 0.0932 0.5135 0.0
C3769 C 0.1014 0.07059 0.51758 0.0
C3770 C 0.12266 0.10806 0.51206 0.0
C3771 C 0.14282 0.09993 0.51296 0.0
C3772 C 0.14206 0.07695 0.51611 0.0
C3773 C 0.12161 0.0629 0.51924 0.0
C3774 C 0.12268 0.13269 0.51024 0.0
C3775 C 0.16277 0.06705 0.51574 0.0
H3776 H 0.19393 0.14168 0.46949 0.0
H3777 H 0.20851 0.15267 0.54696 0.0
H3778 H 0.15314 0.08957 0.46581 0.0
H3779 H 0.14047 0.11342 0.46269 0.0
H3780 H 0.1653 0.11146 0.44892 0.0
H3781 H 0.18535 0.13364 0.57212 0.0
H3782 H 0.15613 0.12711 0.55947 0.0
H3783 H 0.17162 0.10509 0.55953 0.0
H3784 H 0.08702 0.09972 0.51239 0.0
H3785 H 0.12165 0.04591 0.52294 0.0
H3786 H 0.12804 0.13711 0.4928 0.0
H3787 H 0.13487 0.14363 0.52499 0.0
H3788 H 0.10591 0.13672 0.51148 0.0
H3789 H 0.16873 0.06799 0.4978 0.0
H3790 H 0.15959 0.04907 0.51907 0.0
H3791 H 0.17651 0.07697 0.52954 0.0
C3792 C 0.17929 0.99416 0.80668 0.0
C3793 C 0.16424 0.99737 0.78736 0.0
C3794 C 0.19114 0.97662 0.80439 0.0
C3795 C 0.18809 0.96226 0.78205 0.0
C3796 C 0.17227 0.96505 0.76274 0.0
C3797 C 0.16046 0.98261 0.76566 0.0
C3798 C 0.20772 0.97424 0.82546 0.0
C3799 C 0.16858 0.95014 0.73863 0.0
C3800 C 0.2355 0.93631 0.76158 0.0
C3801 C 0.22849 0.91363 0.76491 0.0
C3802 C 0.22303 0.95251 0.76821 0.0
C3803 C 0.20281 0.94574 0.77796 0.0
C3804 C 0.19615 0.92299 0.78229 0.0
C3805 C 0.2092 0.90718 0.77585 0.0
C3806 C 0.23108 0.9767 0.76389 0.0
C3807 C 0.17482 0.91517 0.79284 0.0
H3808 H 0.18221 1.00577 0.82342 0.0
H3809 H 0.14892 0.98534 0.75071 0.0
H3810 H 0.20611 0.95622 0.82822 0.0
H3811 H 0.22502 0.98041 0.82152 0.0
H3812 H 0.20546 0.98415 0.84257 0.0
H3813 H 0.15464 0.95346 0.72606 0.0
H3814 H 0.18411 0.95311 0.72995 0.0
H3815 H 0.16482 0.93202 0.74129 0.0
H3816 H 0.25053 0.94126 0.75325 0.0
H3817 H 0.20379 0.88958 0.77831 0.0
H3818 H 0.23196 0.98845 0.78077 0.0
H3819 H 0.21899 0.98118 0.74997 0.0
H3820 H 0.24786 0.97948 0.75768 0.0
H3821 H 0.17517 0.92557 0.81051 0.0
H3822 H 0.17226 0.89705 0.79558 0.0
H3823 H 0.16023 0.91757 0.7806 0.0
C3824 C 0.37725 0.96481 0.02521 0.0
C3825 C 0.37191 0.9534 1.00153 0.0
C3826 C 0.39827 0.97899 0.03279 0.0
C3827 C 0.4137 0.98223 0.01592 0.0
C3828 C 0.40799 0.97128 0.99171 0.0
C3829 C 0.38718 0.95655 0.98491 0.0
C3830 C 0.40422 0.98991 0.05888 0.0
C3831 C 0.42398 0.97486 0.9731 0.0
C3832 C 0.46383 0.03005 0.02242 0.0
C3833 C 0.48102 0.01809 0.02559 0.0
C3834 C 0.44144 0.01897 0.02106 0.0
C3835 C 0.4365 0.99569 0.02365 0.0
C3836 C 0.45394 0.98426 0.02943 0.0
C3837 C 0.47603 0.99544 0.02954 0.0
C3838 C 0.42321 0.03155 0.01438 0.0
C3839 C 0.44926 0.9596 0.03313 0.0
H3840 H 0.36518 0.96213 0.03792 0.0
H3841 H 0.38266 0.94779 0.96655 0.0
H3842 H 0.4188 0.98403 0.06754 0.0
H3843 H 0.40922 0.00858 0.05979 0.0
H3844 H 0.39007 0.98589 0.06957 0.0
H3845 H 0.41607 0.96679 0.9546 0.0
H3846 H 0.43009 0.99324 0.97264 0.0
H3847 H 0.43881 0.9676 0.97813 0.0
H3848 H 0.46776 0.04762 0.01931 0.0
H3849 H 0.4892 0.98596 0.0311 0.0
H3850 H 0.4091 0.02737 0.025 0.0
H3851 H 0.41648 0.02632 0.99493 0.0
H3852 H 0.42959 0.0502 0.01728 0.0
H3853 H 0.43543 0.95589 0.04425 0.0
H3854 H 0.46433 0.95472 0.04214 0.0
H3855 H 0.44401 0.94886 0.01529 0.0
C3856 C 0.84366 0.56854 0.79068 0.0
C3857 C 0.86223 0.57304 0.80861 0.0
C3858 C 0.83291 0.58585 0.78492 0.0
C3859 C 0.84077 0.60788 0.79785 0.0
C3860 C 0.85785 0.61179 0.81785 0.0
C3861 C 0.86875 0.5943 0.82275 0.0
C3862 C 0.81459 0.58101 0.76352 0.0
C3863 C 0.86549 0.63473 0.833 0.0
C3864 C 0.83849 0.6505 0.75469 0.0
C3865 C 0.81765 0.65578 0.75729 0.0
C3866 C 0.8471 0.63623 0.76937 0.0
C3867 C 0.83448 0.62714 0.78705 0.0
C3868 C 0.81431 0.63386 0.79115 0.0
C3869 C 0.80597 0.64801 0.77598 0.0
C3870 C 0.86895 0.62965 0.76478 0.0
C3871 C 0.80082 0.62504 0.81037 0.0
H3872 H 0.83844 0.55186 0.78015 0.0
H3873 H 0.88263 0.59735 0.8373 0.0
H3874 H 0.79982 0.5876 0.76838 0.0
H3875 H 0.82077 0.58976 0.74842 0.0
H3876 H 0.80912 0.5626 0.75692 0.0
H3877 H 0.87722 0.63423 0.84943 0.0
H3878 H 0.87405 0.64709 0.82209 0.0
H3879 H 0.85082 0.64106 0.8387 0.0
H3880 H 0.84776 0.65703 0.74067 0.0
H3881 H 0.78982 0.65214 0.77809 0.0
H3882 H 0.86575 0.61136 0.75765 0.0
H3883 H 0.88061 0.6324 0.78193 0.0
H3884 H 0.87736 0.63947 0.75153 0.0
H3885 H 0.79045 0.60801 0.80327 0.0
H3886 H 0.78937 0.63629 0.8156 0.0
H3887 H 0.81188 0.62335 0.82681 0.0
C3888 C 0.82199 0.62935 0.01682 0.0
C3889 C 0.82535 0.65296 0.02268 0.0
C3890 C 0.83998 0.61818 0.019 0.0
C3891 C 0.86181 0.63084 0.02799 0.0
C3892 C 0.86539 0.65477 0.03329 0.0
C3893 C 0.84715 0.66557 0.03028 0.0
C3894 C 0.83543 0.59275 0.01247 0.0
C3895 C 0.88837 0.66888 0.04305 0.0
C3896 C 0.90303 0.6045 0.06493 0.0
C3897 C 0.91852 0.6016 0.04886 0.0
C3898 C 0.88397 0.61297 0.0579 0.0
C3899 C 0.88045 0.61906 0.0343 0.0
C3900 C 0.89551 0.61515 0.01759 0.0
C3901 C 0.91434 0.6063 0.02505 0.0
C3902 C 0.86806 0.61628 0.0761 0.0
C3903 C 0.89214 0.62101 0.99215 0.0
H3904 H 0.80521 0.61953 0.01045 0.0
H3905 H 0.84985 0.68382 0.03466 0.0
H3906 H 0.84839 0.58764 0.00203 0.0
H3907 H 0.83606 0.58469 0.0293 0.0
H3908 H 0.81869 0.58604 0.00165 0.0
H3909 H 0.88865 0.68734 0.04494 0.0
H3910 H 0.8939 0.66441 0.0611 0.0
H3911 H 0.90073 0.66519 0.03094 0.0
H3912 H 0.90617 0.60061 0.08328 0.0
H3913 H 0.92635 0.60403 0.01264 0.0
H3914 H 0.85069 0.6076 0.06838 0.0
H3915 H 0.86816 0.63459 0.08032 0.0
H3916 H 0.87258 0.60965 0.09327 0.0
H3917 H 0.87543 0.61186 0.9828 0.0
H3918 H 0.90517 0.61665 0.98129 0.0
H3919 H 0.89253 0.63941 0.99272 0.0
C3920 C 0.1847 0.12447 0.78584 0.0
C3921 C 0.17463 0.12265 0.80704 0.0
C3922 C 0.20091 0.14379 0.78361 0.0
C3923 C 0.20813 0.16126 0.80353 0.0
C3924 C 0.1988 0.15886 0.82544 0.0
C3925 C 0.18173 0.13991 0.8267 0.0
C3926 C 0.20964 0.14583 0.7596 0.0
C3927 C 0.20666 0.17642 0.84754 0.0
C3928 C 0.262 0.20443 0.79975 0.0
C3929 C 0.2537 0.22368 0.79496 0.0
C3930 C 0.24759 0.18432 0.8036 0.0
C3931 C 0.22405 0.18276 0.80086 0.0
C3932 C 0.21554 0.20197 0.79549 0.0
C3933 C 0.23044 0.22233 0.79387 0.0
C3934 C 0.25767 0.16489 0.81089 0.0
C3935 C 0.19062 0.2009 0.79075 0.0
H3936 H 0.17911 0.1112 0.77055 0.0
H3937 H 0.17408 0.13847 0.84316 0.0
H3938 H 0.20814 0.16238 0.75364 0.0
H3939 H 0.22765 0.14516 0.76155 0.0
H3940 H 0.20051 0.13206 0.74518 0.0
H3941 H 0.20072 0.17024 0.86412 0.0
H3942 H 0.22525 0.18128 0.85055 0.0
H3943 H 0.20024 0.19192 0.84476 0.0
H3944 H 0.27977 0.20517 0.80127 0.0
H3945 H 0.22359 0.2371 0.79098 0.0
H3946 H 0.25507 0.15138 0.79523 0.0
H3947 H 0.24941 0.15745 0.82568 0.0
H3948 H 0.27598 0.17029 0.81706 0.0
H3949 H 0.18268 0.18659 0.7764 0.0
H3950 H 0.18673 0.21677 0.78492 0.0
H3951 H 0.1828 0.19776 0.80731 0.0
C3952 C 0.3542 0.9536 0.30158 0.0
C3953 C 0.37604 0.95429 0.31265 0.0
C3954 C 0.33883 0.9331 0.29495 0.0
C3955 C 0.34546 0.91292 0.29975 0.0
C3956 C 0.3675 0.91333 0.31062 0.0
C3957 C 0.38264 0.93412 0.31693 0.0
C3958 C 0.31544 0.9331 0.28322 0.0
C3959 C 0.37495 0.89183 0.31576 0.0
C3960 C 0.30312 0.86238 0.30968 0.0
C3961 C 0.30219 0.84794 0.28818 0.0
C3962 C 0.3164 0.88418 0.31323 0.0
C3963 C 0.32895 0.89142 0.29478 0.0
C3964 C 0.32667 0.87754 0.2723 0.0
C3965 C 0.31291 0.85596 0.26922 0.0
C3966 C 0.31816 0.8988 0.3373 0.0
C3967 C 0.33947 0.885 0.25202 0.0
H3968 H 0.34906 0.9691 0.29783 0.0
H3969 H 0.39954 0.9346 0.3253 0.0
H3970 H 0.31139 0.9216 0.2658 0.0
H3971 H 0.30303 0.92664 0.29512 0.0
H3972 H 0.31338 0.95027 0.27969 0.0
H3973 H 0.39289 0.89505 0.32363 0.0
H3974 H 0.36464 0.88345 0.3286 0.0
H3975 H 0.37237 0.87979 0.29879 0.0
H3976 H 0.29459 0.85625 0.32429 0.0
H3977 H 0.31093 0.84519 0.25226 0.0
H3978 H 0.31584 0.91603 0.33449 0.0
H3979 H 0.33515 0.9006 0.34741 0.0
H3980 H 0.30559 0.89148 0.34867 0.0
H3981 H 0.33427 0.90016 0.24584 0.0
H3982 H 0.33668 0.87152 0.23621 0.0
H3983 H 0.35771 0.88987 0.25858 0.0
C3984 C 0.58098 0.38472 0.60534 0.0
C3985 C 0.56967 0.36321 0.59294 0.0
C3986 C 0.57805 0.40584 0.59728 0.0
C3987 C 0.56241 0.40656 0.57659 0.0
C3988 C 0.55059 0.38485 0.56422 0.0
C3989 C 0.55463 0.36392 0.57205 0.0
C3990 C 0.59202 0.42764 0.61108 0.0
C3991 C 0.53313 0.38363 0.54272 0.0
C3992 C 0.54064 0.46368 0.57206 0.0
C3993 C 0.55178 0.4739 0.55395 0.0
C3994 C 0.54336 0.44206 0.57889 0.0
C3995 C 0.55838 0.4297 0.56832 0.0
C3996 C 0.56983 0.44011 0.55014 0.0
C3997 C 0.56627 0.46146 0.54315 0.0
C3998 C 0.5298 0.43229 0.59754 0.0
C3999 C 0.58655 0.42897 0.53835 0.0
H4000 H 0.59259 0.38512 0.6215 0.0
H4001 H 0.54525 0.34795 0.56214 0.0
H4002 H 0.60045 0.43819 0.59841 0.0
H4003 H 0.58106 0.4375 0.62006 0.0
H4004 H 0.60497 0.42465 0.62512 0.0
H4005 H 0.52339 0.36608 0.5367 0.0
H4006 H 0.52135 0.39472 0.54721 0.0
H4007 H 0.54135 0.38987 0.52737 0.0
H4008 H 0.52948 0.47261 0.58097 0.0
H4009 H 0.57532 0.46868 0.52933 0.0
H4010 H 0.54112 0.43154 0.61415 0.0
H4011 H 0.52078 0.41468 0.59052 0.0
H4012 H 0.51739 0.44247 0.60255 0.0
H4013 H 0.60103 0.42905 0.55213 0.0
H4014 H 0.59283 0.43775 0.5233 0.0
H4015 H 0.57899 0.41102 0.53121 0.0
C4016 C 0.42008 0.77214 0.42083 0.0
C4017 C 0.44209 0.77427 0.41487 0.0
C4018 C 0.40159 0.77309 0.4036 0.0
C4019 C 0.40471 0.77662 0.37942 0.0
C4020 C 0.42687 0.77878 0.37322 0.0
C4021 C 0.44508 0.77744 0.39079 0.0
C4022 C 0.37856 0.77039 0.4114 0.0
C4023 C 0.43148 0.78298 0.34803 0.0
C4024 C 0.35263 0.75982 0.32987 0.0
C4025 C 0.34603 0.7805 0.32782 0.0
C4026 C 0.37172 0.75839 0.34606 0.0
C4027 C 0.38483 0.77811 0.36092 0.0
C4028 C 0.37826 0.7991 0.35862 0.0
C4029 C 0.35914 0.80002 0.34223 0.0
C4030 C 0.37772 0.73561 0.34746 0.0
C4031 C 0.39132 0.82069 0.37375 0.0
H4032 H 0.4172 0.7697 0.43919 0.0
H4033 H 0.46183 0.77942 0.38573 0.0
H4034 H 0.37184 0.78581 0.40906 0.0
H4035 H 0.3669 0.75596 0.39977 0.0
H4036 H 0.37865 0.7674 0.43062 0.0
H4037 H 0.44924 0.78332 0.34554 0.0
H4038 H 0.42052 0.76966 0.33436 0.0
H4039 H 0.42747 0.79944 0.34439 0.0
H4040 H 0.34276 0.74463 0.3188 0.0
H4041 H 0.35428 0.81611 0.34083 0.0
H4042 H 0.37685 0.73111 0.36606 0.0
H4043 H 0.39521 0.73634 0.34371 0.0
H4044 H 0.36639 0.72197 0.33441 0.0
H4045 H 0.38994 0.81961 0.3932 0.0
H4046 H 0.38519 0.83584 0.36877 0.0
H4047 H 0.40936 0.823 0.37164 0.0
C4048 C 0.04767 0.71807 0.06883 0.0
C4049 C 0.06549 0.73081 0.08603 0.0
C4050 C 0.04431 0.69394 0.06291 0.0
C4051 C 0.05906 0.68144 0.07418 0.0
C4052 C 0.07696 0.69429 0.09171 0.0
C4053 C 0.07999 0.7184 0.09719 0.0
C4054 C 0.02494 0.68178 0.04417 0.0
C4055 C 0.09329 0.68251 0.10461 0.0
C4056 C 0.04009 0.61567 0.07414 0.0
C4057 C 0.05043 0.60587 0.0555 0.0
C4058 C 0.04267 0.63968 0.08028 0.0
C4059 C 0.05598 0.65526 0.06763 0.0
C4060 C 0.06646 0.64551 0.04877 0.0
C4061 C 0.0636 0.62141 0.04304 0.0
C4062 C 0.03081 0.64836 0.10035 0.0
C4063 C 0.08076 0.66066 0.03436 0.0
H4064 H 0.03647 0.72709 0.05955 0.0
H4065 H 0.0941 0.72768 0.11014 0.0
H4066 H 0.03118 0.67224 0.02923 0.0
H4067 H 0.01346 0.66925 0.05246 0.0
H4068 H 0.01528 0.69359 0.0364 0.0
H4069 H 0.10571 0.69435 0.11848 0.0
H4070 H 0.08411 0.66882 0.11357 0.0
H4071 H 0.10242 0.67447 0.09125 0.0
H4072 H 0.02995 0.60449 0.08428 0.0
H4073 H 0.0713 0.61476 0.02819 0.0
H4074 H 0.01704 0.65592 0.09251 0.0
H4075 H 0.04249 0.66187 0.11319 0.0
H4076 H 0.02359 0.63471 0.11062 0.0
H4077 H 0.07119 0.67256 0.02668 0.0
H4078 H 0.08662 0.65091 0.0193 0.0
H4079 H 0.0956 0.671 0.04648 0.0
C4080 C 0.08694 0.27284 0.92621 0.0
C4081 C 0.06648 0.27552 0.91426 0.0
C4082 C 0.10634 0.27473 0.91442 0.0
C4083 C 0.10557 0.28055 0.8905 0.0
C4084 C 0.08483 0.28309 0.8784 0.0
C4085 C 0.06557 0.28012 0.89021 0.0
C4086 C 0.12771 0.27093 0.92779 0.0
C4087 C 0.08312 0.28977 0.85318 0.0
C4088 C 0.15571 0.31411 0.8663 0.0
C4089 C 0.16026 0.29802 0.8486 0.0
C4090 C 0.13916 0.30822 0.88135 0.0
C4091 C 0.12645 0.2857 0.87847 0.0
C4092 C 0.13205 0.26904 0.86172 0.0
C4093 C 0.1489 0.2754 0.847 0.0
C4094 C 0.13422 0.3265 0.89921 0.0
C4095 C 0.11941 0.24475 0.85841 0.0
H4096 H 0.08775 0.26909 0.94473 0.0
H4097 H 0.04986 0.28235 0.88089 0.0
H4098 H 0.13668 0.26137 0.91553 0.0
H4099 H 0.13899 0.28753 0.9348 0.0
H4100 H 0.12443 0.26153 0.9434 0.0
H4101 H 0.06584 0.29118 0.84628 0.0
H4102 H 0.0946 0.30634 0.85314 0.0
H4103 H 0.08839 0.27712 0.84045 0.0
H4104 H 0.16446 0.33162 0.86758 0.0
H4105 H 0.15225 0.26294 0.83325 0.0
H4106 H 0.13405 0.32098 0.91742 0.0
H4107 H 0.11734 0.32964 0.89343 0.0
H4108 H 0.14672 0.34268 0.90071 0.0
H4109 H 0.11886 0.23845 0.87624 0.0
H4110 H 0.12708 0.23347 0.84644 0.0
H4111 H 0.10183 0.24364 0.85031 0.0
C4112 C 0.56805 0.75453 0.9107 0.0
C4113 C 0.54854 0.76033 0.90005 0.0
C4114 C 0.56692 0.73476 0.92215 0.0
C4115 C 0.54576 0.7206 0.92312 0.0
C4116 C 0.52623 0.72579 0.91102 0.0
C4117 C 0.52787 0.74556 0.89981 0.0
C4118 C 0.5882 0.72986 0.93455 0.0
C4119 C 0.50328 0.71135 0.91142 0.0
C4120 C 0.53445 0.66125 0.94214 0.0
C4121 C 0.52814 0.66573 0.96522 0.0
C4122 C 0.54207 0.67905 0.92885 0.0
C4123 C 0.54332 0.70187 0.93881 0.0
C4124 C 0.53871 0.70641 0.96295 0.0
C4125 C 0.53103 0.68833 0.97572 0.0
C4126 C 0.54701 0.6733 0.90339 0.0
C4127 C 0.54007 0.73035 0.97461 0.0
H4128 H 0.58401 0.76618 0.91147 0.0
H4129 H 0.51271 0.75026 0.89207 0.0
H4130 H 0.58828 0.73242 0.95448 0.0
H4131 H 0.58907 0.71194 0.92928 0.0
H4132 H 0.6034 0.74103 0.93008 0.0
H4133 H 0.49005 0.71646 0.8994 0.0
H4134 H 0.50319 0.69325 0.90569 0.0
H4135 H 0.49899 0.71284 0.93019 0.0
H4136 H 0.53192 0.64381 0.9338 0.0
H4137 H 0.52595 0.69185 0.99345 0.0
H4138 H 0.56229 0.68497 0.89991 0.0
H4139 H 0.53284 0.67533 0.89029 0.0
H4140 H 0.54929 0.65558 0.89989 0.0
H4141 H 0.55602 0.7415 0.97206 0.0
H4142 H 0.53885 0.73126 0.99433 0.0
H4143 H 0.52615 0.73714 0.96581 0.0
C4144 C 0.11384 0.79046 0.73332 0.0
C4145 C 0.09846 0.76961 0.72561 0.0
C4146 C 0.13712 0.79192 0.74138 0.0
C4147 C 0.14639 0.77211 0.74121 0.0
C4148 C 0.13087 0.75094 0.73408 0.0
C4149 C 0.10752 0.74997 0.72647 0.0
C4150 C 0.15206 0.81501 0.7492 0.0
C4151 C 0.13917 0.72912 0.73321 0.0
C4152 C 0.21058 0.77997 0.73486 0.0
C4153 C 0.22089 0.77823 0.75819 0.0
C4154 C 0.18677 0.77725 0.72907 0.0
C4155 C 0.17216 0.77369 0.74711 0.0
C4156 C 0.18258 0.77217 0.7708 0.0
C4157 C 0.20633 0.77394 0.77582 0.0
C4158 C 0.17719 0.77803 0.7033 0.0
C4159 C 0.16872 0.76953 0.79132 0.0
H4160 H 0.1078 0.80596 0.73198 0.0
H4161 H 0.09656 0.73371 0.71965 0.0
H4162 H 0.16269 0.81521 0.76662 0.0
H4163 H 0.16345 0.81902 0.73549 0.0
H4164 H 0.1423 0.82853 0.75138 0.0
H4165 H 0.12536 0.714 0.72766 0.0
H4166 H 0.1516 0.7291 0.72023 0.0
H4167 H 0.14785 0.72771 0.75125 0.0
H4168 H 0.22116 0.78307 0.72081 0.0
H4169 H 0.21366 0.77271 0.79401 0.0
H4170 H 0.16949 0.79304 0.70246 0.0
H4171 H 0.16376 0.76278 0.69676 0.0
H4172 H 0.19014 0.7789 0.69085 0.0
H4173 H 0.16221 0.78516 0.79539 0.0
H4174 H 0.17858 0.76656 0.80808 0.0
H4175 H 0.15402 0.75529 0.78612 0.0
C4176 C 0.04319 0.37697 0.42278 0.0
C4177 C 0.05555 0.37866 0.40303 0.0
C4178 C 0.04081 0.39637 0.43812 0.0
C4179 C 0.05151 0.41846 0.43439 0.0
C4180 C 0.06416 0.42028 0.41456 0.0
C4181 C 0.06577 0.40057 0.39907 0.0
C4182 C 0.02667 0.39313 0.45837 0.0
C4183 C 0.07642 0.44314 0.40998 0.0
C4184 C 0.03063 0.471 0.46155 0.0
C4185 C 0.04572 0.47907 0.48291 0.0
C4186 C 0.0323 0.45155 0.44577 0.0
C4187 C 0.04954 0.43949 0.45119 0.0
C4188 C 0.06464 0.44748 0.47297 0.0
C4189 C 0.06243 0.46685 0.48851 0.0
C4190 C 0.01533 0.4437 0.42336 0.0
C4191 C 0.08322 0.43548 0.48001 0.0
H4192 H 0.03511 0.36032 0.42621 0.0
H4193 H 0.07557 0.40231 0.38416 0.0
H4194 H 0.03701 0.40003 0.47609 0.0
H4195 H 0.01303 0.40266 0.45633 0.0
H4196 H 0.01907 0.37502 0.45873 0.0
H4197 H 0.0856 0.44195 0.39401 0.0
H4198 H 0.06441 0.45436 0.40699 0.0
H4199 H 0.0886 0.45129 0.42615 0.0
H4200 H 0.01703 0.47953 0.45747 0.0
H4201 H 0.074 0.47261 0.50508 0.0
H4202 H 1.0064 0.42601 0.4237 0.0
H4203 H 0.02397 0.44376 0.40697 0.0
H4204 H 1.00278 0.45457 0.42171 0.0
H4205 H 0.07595 0.41814 0.48357 0.0
H4206 H 0.09453 0.44456 0.49648 0.0
H4207 H 0.09329 0.43375 0.46489 0.0
C4208 C 0.45452 0.2788 0.22208 0.0
C4209 C 0.46169 0.25801 0.22253 0.0
C4210 C 0.4339 0.28255 0.23014 0.0
C4211 C 0.41868 0.26499 0.23849 0.0
C4212 C 0.42571 0.24382 0.23873 0.0
C4213 C 0.44683 0.24074 0.23123 0.0
C4214 C 0.42839 0.30564 0.22966 0.0
C4215 C 0.41058 0.22405 0.24659 0.0
C4216 C 0.37195 0.28038 0.2774 0.0
C4217 C 0.35191 0.27527 0.2608 0.0
C4218 C 0.39318 0.27686 0.27069 0.0
C4219 C 0.39555 0.2686 0.24633 0.0
C4220 C 0.37546 0.26404 0.22941 0.0
C4221 C 0.35435 0.26701 0.23676 0.0
C4222 C 0.41326 0.28187 0.29 0.0
C4223 C 0.37625 0.25615 0.20311 0.0
H4224 H 0.46535 0.29252 0.21553 0.0
H4225 H 0.45141 0.22442 0.2316 0.0
H4226 H 0.41215 0.30419 0.21811 0.0
H4227 H 0.42649 0.31285 0.24821 0.0
H4228 H 0.44153 0.31763 0.22272 0.0
H4229 H 0.41823 0.20892 0.24664 0.0
H4230 H 0.40654 0.22883 0.26504 0.0
H4231 H 0.39451 0.21946 0.23418 0.0
H4232 H 0.371 0.28676 0.29602 0.0
H4233 H 0.33958 0.26312 0.22328 0.0
H4234 H 0.42641 0.29541 0.28532 0.0
H4235 H 0.42052 0.26656 0.29089 0.0
H4236 H 0.40899 0.28735 0.30818 0.0
H4237 H 0.38811 0.26899 0.19563 0.0
H4238 H 0.35956 0.25322 0.19197 0.0
H4239 H 0.38255 0.2402 0.2014 0.0
C4240 C 0.63177 0.55976 0.38236 0.0
C4241 C 0.61848 0.55458 0.35957 0.0
C4242 C 0.62234 0.55691 0.40404 0.0
C4243 C 0.59906 0.54791 0.40312 0.0
C4244 C 0.58558 0.5425 0.38011 0.0
C4245 C 0.59534 0.54622 0.35877 0.0
C4246 C 0.63736 0.56364 0.428 0.0
C4247 C 0.56083 0.53238 0.37797 0.0
C4248 C 0.57996 0.52263 0.45955 0.0
C4249 C 0.56986 0.53938 0.47018 0.0
C4250 C 0.58886 0.5248 0.4374 0.0
C4251 C 0.58877 0.54473 0.4262 0.0
C4252 C 0.5789 0.5618 0.43725 0.0
C4253 C 0.56899 0.55857 0.4585 0.0
C4254 C 0.59801 0.50557 0.42574 0.0
C4255 C 0.57926 0.58383 0.42701 0.0
H4256 H 0.64965 0.56618 0.38326 0.0
H4257 H 0.58491 0.54187 0.34132 0.0
H4258 H 0.63052 0.57562 0.44004 0.0
H4259 H 0.63791 0.5485 0.43726 0.0
H4260 H 0.65476 0.57173 0.42583 0.0
H4261 H 0.55301 0.52736 0.3588 0.0
H4262 H 0.55809 0.51725 0.38761 0.0
H4263 H 0.55209 0.5448 0.38669 0.0
H4264 H 0.58024 0.50752 0.46814 0.0
H4265 H 0.56118 0.57156 0.46656 0.0
H4266 H 0.61626 0.51115 0.42533 0.0
H4267 H 0.58993 0.50048 0.40668 0.0
H4268 H 0.59523 0.49052 0.43553 0.0
H4269 H 0.59688 0.59256 0.42675 0.0
H4270 H 0.57089 0.59541 0.43773 0.0
H4271 H 0.57086 0.58055 0.40803 0.0
C4272 C 0.31695 0.91095 0.07025 0.0
C4273 C 0.29826 0.90222 0.05288 0.0
C4274 C 0.31819 0.9034 0.09291 0.0
C4275 C 0.30024 0.88681 0.0979 0.0
C4276 C 0.27997 0.88078 0.08176 0.0
C4277 C 0.27936 0.88821 0.05893 0.0
C4278 C 0.33983 0.91087 0.11007 0.0
C4279 C 0.25989 0.86463 0.08755 0.0
C4280 C 0.32398 0.84104 0.12439 0.0
C4281 C 0.3248 0.8477 0.1492 0.0
C4282 C 0.31443 0.85279 0.10742 0.0
C4283 C 0.30532 0.87158 0.11555 0.0
C4284 C 0.30457 0.87736 0.14052 0.0
C4285 C 0.3146 0.86549 0.15715 0.0
C4286 C 0.31531 0.84584 0.08083 0.0
C4287 C 0.29433 0.89669 0.14998 0.0
H4288 H 0.33135 0.92216 0.06537 0.0
H4289 H 0.26473 0.88203 0.04542 0.0
H4290 H 0.33635 0.91519 0.12883 0.0
H4291 H 0.34894 0.89677 0.11007 0.0
H4292 H 0.35095 0.9258 0.10485 0.0
H4293 H 0.24423 0.86612 0.07643 0.0
H4294 H 0.26219 0.84698 0.08369 0.0
H4295 H 0.25801 0.86785 0.10704 0.0
H4296 H 0.3312 0.82685 0.11825 0.0
H4297 H 0.31509 0.87067 0.17639 0.0
H4298 H 0.32608 0.8597 0.07349 0.0
H4299 H 0.29831 0.84273 0.07043 0.0
H4300 H 0.32209 0.83025 0.07761 0.0
H4301 H 0.30774 0.91212 0.15554 0.0
H4302 H 0.28627 0.8928 0.16628 0.0
H4303 H 0.28168 0.9005 0.13619 0.0
C4304 C 0.94774 0.53514 0.88223 0.0
C4305 C 0.92442 0.53178 0.88135 0.0
C4306 C 0.96115 0.53281 0.90298 0.0
C4307 C 0.95092 0.52705 0.92345 0.0
C4308 C 0.92739 0.52374 0.92291 0.0
C4309 C 0.91425 0.52627 0.90167 0.0
C4310 C 0.9863 0.53672 0.90294 0.0
C4311 C 0.91627 0.51756 0.94468 0.0
C4312 C 0.99328 0.50792 0.96484 0.0
C4313 C 1.00224 0.52813 0.98015 0.0
C4314 C 0.97427 0.5064 0.94805 0.0
C4315 C 0.96549 0.52606 0.94565 0.0
C4316 C 0.97443 0.54638 0.96148 0.0
C4317 C 0.99262 0.54703 0.97888 0.0
C4318 C 0.96456 0.48432 0.93187 0.0
C4319 C 0.96648 0.56807 0.95839 0.0
H4320 H 0.95566 0.53957 0.86653 0.0
H4321 H 0.89618 0.52354 0.9008 0.0
H4322 H 0.99495 0.55039 0.91766 0.0
H4323 H 0.99233 0.52114 0.90635 0.0
H4324 H 0.99141 0.54151 0.88547 0.0
H4325 H 0.89769 0.51372 0.94063 0.0
H4326 H 0.92176 0.50263 0.95116 0.0
H4327 H 0.92146 0.53177 0.95974 0.0
H4328 H 1.00101 0.49341 0.96614 0.0
H4329 H 1.00024 0.56277 0.99051 0.0
H4330 H 0.96995 0.48532 0.91368 0.0
H4331 H 0.94597 0.48095 0.9295 0.0
H4332 H 0.97021 0.46983 0.93928 0.0
H4333 H 0.97225 0.57457 0.94189 0.0
H4334 H 0.97313 0.58143 0.97412 0.0
H4335 H 0.94792 0.56502 0.95589 0.0
C4336 C 0.28175 0.24206 0.59426 0.0
C4337 C 0.27523 0.21889 0.58535 0.0
C4338 C 0.28478 0.2498 0.61931 0.0
C4339 C 0.2803 0.23411 0.63604 0.0
C4340 C 0.27403 0.21061 0.62715 0.0
C4341 C 0.27195 0.20327 0.60199 0.0
C4342 C 0.29246 0.27487 0.62784 0.0
C4343 C 0.2684 0.19326 0.64407 0.0
C4344 C 0.30083 0.25231 0.70392 0.0
C4345 C 0.28245 0.25992 0.71225 0.0
C4346 C 0.30056 0.24419 0.67925 0.0
C4347 C 0.281 0.24251 0.66252 0.0
C4348 C 0.26224 0.24974 0.671 0.0
C4349 C 0.26349 0.25897 0.69547 0.0
C4350 C 0.3214 0.23783 0.67103 0.0
C4351 C 0.24069 0.24756 0.65424 0.0
H4352 H 0.28447 0.25423 0.58154 0.0
H4353 H 0.26667 0.18537 0.59523 0.0
H4354 H 0.27883 0.28153 0.63567 0.0
H4355 H 0.30699 0.27796 0.64234 0.0
H4356 H 0.29735 0.28459 0.61289 0.0
H4357 H 0.26533 0.17562 0.63467 0.0
H4358 H 0.28213 0.19545 0.6593 0.0
H4359 H 0.25313 0.19575 0.65203 0.0
H4360 H 0.31573 0.25324 0.71666 0.0
H4361 H 0.24938 0.26497 0.70152 0.0
H4362 H 0.32675 0.24771 0.65638 0.0
H4363 H 0.31782 0.21966 0.66342 0.0
H4364 H 0.33553 0.24099 0.68604 0.0
H4365 H 0.24343 0.25899 0.64023 0.0
H4366 H 0.22698 0.25185 0.66406 0.0
H4367 H 0.23519 0.22999 0.6447 0.0
C4368 C 0.62032 0.56049 0.21154 0.0
C4369 C 0.60738 0.54881 0.22715 0.0
C4370 C 0.61275 0.55835 0.18645 0.0
C4371 C 0.59192 0.54379 0.17655 0.0
C4372 C 0.57945 0.53102 0.19215 0.0
C4373 C 0.58709 0.53403 0.21725 0.0
C4374 C 0.62655 0.57253 0.17076 0.0
C4375 C 0.5577 0.51456 0.18242 0.0
C4376 C 0.55868 0.55592 0.11903 0.0
C4377 C 0.56467 0.54151 0.10065 0.0
C4378 C 0.56771 0.55708 0.14357 0.0
C4379 C 0.58253 0.54287 0.15029 0.0
C4380 C 0.58804 0.52769 0.13192 0.0
C4381 C 0.57936 0.52745 0.10744 0.0
C4382 C 0.56157 0.57379 0.16233 0.0
C4383 C 0.60316 0.51169 0.13802 0.0
H4384 H 0.63586 0.57219 0.21916 0.0
H4385 H 0.57699 0.52503 0.22926 0.0
H4386 H 0.62982 0.56166 0.15487 0.0
H4387 H 0.61705 0.58477 0.16371 0.0
H4388 H 0.64286 0.58211 0.18083 0.0
H4389 H 0.55095 0.50455 0.19642 0.0
H4390 H 0.54499 0.52391 0.17562 0.0
H4391 H 0.56018 0.5027 0.16689 0.0
H4392 H 0.54712 0.56653 0.11429 0.0
H4393 H 0.58398 0.51596 0.09359 0.0
H4394 H 0.57696 0.58582 0.17152 0.0
H4395 H 0.55369 0.56479 0.17641 0.0
H4396 H 0.54982 0.5836 0.15432 0.0
H4397 H 0.62052 0.52145 0.14398 0.0
H4398 H 0.60341 0.49894 0.12227 0.0
H4399 H 0.5977 0.50265 0.15322 0.0
C4400 C 0.28045 0.90244 0.91632 0.0
C4401 C 0.30157 0.91327 0.92836 0.0
C4402 C 0.2784 0.88529 0.89703 0.0
C4403 C 0.29806 0.87936 0.88982 0.0
C4404 C 0.31951 0.8918 0.90053 0.0
C4405 C 0.32103 0.90859 0.92015 0.0
C4406 C 0.2553 0.8722 0.886 0.0
C4407 C 0.34071 0.88625 0.89241 0.0
C4408 C 0.29438 0.81853 0.86424 0.0
C4409 C 0.29266 0.82015 0.83942 0.0
C4410 C 0.2961 0.83783 0.88102 0.0
C4411 C 0.29619 0.85896 0.87251 0.0
C4412 C 0.29435 0.86054 0.84753 0.0
C4413 C 0.29235 0.84092 0.8314 0.0
C4414 C 0.29781 0.83565 0.90774 0.0
C4415 C 0.29438 0.8828 0.8378 0.0
H4416 H 0.26554 0.90603 0.92336 0.0
H4417 H 0.33727 0.91693 0.93004 0.0
H4418 H 0.25364 0.87049 0.86593 0.0
H4419 H 0.25269 0.85485 0.89118 0.0
H4420 H 0.24185 0.8804 0.89217 0.0
H4421 H 0.35587 0.89901 0.90096 0.0
H4422 H 0.34255 0.86941 0.89724 0.0
H4423 H 0.33981 0.88529 0.87241 0.0
H4424 H 0.29441 0.80228 0.87054 0.0
H4425 H 0.29129 0.84183 0.81248 0.0
H4426 H 0.28425 0.8423 0.91577 0.0
H4427 H 0.31401 0.84595 0.91725 0.0
H4428 H 0.29664 0.81782 0.9112 0.0
H4429 H 0.27788 0.88743 0.83897 0.0
H4430 H 0.29741 0.88188 0.81858 0.0
H4431 H 0.30739 0.89664 0.84862 0.0
C4432 C 0.94163 0.50513 0.75015 0.0
C4433 C 0.92569 0.51748 0.75681 0.0
C4434 C 0.94715 0.50333 0.72674 0.0
C4435 C 0.93638 0.51413 0.70919 0.0
C4436 C 0.91994 0.52638 0.71544 0.0
C4437 C 0.91469 0.52788 0.73934 0.0
C4438 C 0.96475 0.48989 0.72102 0.0
C4439 C 0.90815 0.53797 0.69704 0.0
C4440 C 0.97671 0.51815 0.66489 0.0
C4441 C 0.96962 0.49638 0.65204 0.0
C4442 C 0.96355 0.52643 0.6812 0.0
C4443 C 0.94321 0.51229 0.6847 0.0
C4444 C 0.93456 0.49183 0.66888 0.0
C4445 C 0.94813 0.48391 0.65284 0.0
C4446 C 0.97313 0.5486 0.69728 0.0
C4447 C 0.91266 0.47656 0.67147 0.0
H4448 H 0.94995 0.49663 0.76331 0.0
H4449 H 0.90226 0.53734 0.7444 0.0
H4450 H 0.95765 0.47585 0.70615 0.0
H4451 H 0.97915 0.50095 0.71499 0.0
H4452 H 0.97125 0.48245 0.73689 0.0
H4453 H 0.89514 0.54601 0.70455 0.0
H4454 H 0.9205 0.55121 0.69071 0.0
H4455 H 0.90014 0.52562 0.68091 0.0
H4456 H 0.99319 0.52797 0.6635 0.0
H4457 H 0.94255 0.46735 0.64211 0.0
H4458 H 0.98186 0.54518 0.71449 0.0
H4459 H 0.95972 0.55755 0.70185 0.0
H4460 H 0.98548 0.5599 0.68857 0.0
H4461 H 0.91574 0.46531 0.68524 0.0
H4462 H 0.90522 0.4657 0.65408 0.0
H4463 H 0.9004 0.48644 0.67754 0.0
C4464 C 0.2661 0.22491 0.45186 0.0
C4465 C 0.27342 0.20469 0.45456 0.0
C4466 C 0.26877 0.23563 0.43087 0.0
C4467 C 0.27936 0.2262 0.4121 0.0
C4468 C 0.28712 0.20599 0.41497 0.0
C4469 C 0.2839 0.19543 0.43594 0.0
C4470 C 0.26021 0.2571 0.42879 0.0
C4471 C 0.29886 0.19545 0.39581 0.0
C4472 C 0.26546 0.24089 0.34807 0.0
C4473 C 0.2851 0.25576 0.34467 0.0
C4474 C 0.26369 0.23071 0.36943 0.0
C4475 C 0.28139 0.23677 0.38901 0.0
C4476 C 0.30091 0.25273 0.38624 0.0
C4477 C 0.30272 0.26155 0.36399 0.0
C4478 C 0.24278 0.2134 0.37101 0.0
C4479 C 0.31977 0.26075 0.40689 0.0
H4480 H 0.25814 0.23232 0.46615 0.0
H4481 H 0.29002 0.18007 0.43795 0.0
H4482 H 0.27393 0.27082 0.4255 0.0
H4483 H 0.24686 0.25432 0.41306 0.0
H4484 H 0.25328 0.26287 0.44532 0.0
H4485 H 0.3041 0.17986 0.40076 0.0
H4486 H 0.28761 0.19116 0.3783 0.0
H4487 H 0.31396 0.20775 0.39295 0.0
H4488 H 0.25106 0.23767 0.33437 0.0
H4489 H 0.31802 0.27294 0.36173 0.0
H4490 H 0.23387 0.21965 0.38568 0.0
H4491 H 0.24735 0.19742 0.37561 0.0
H4492 H 0.2311 0.20955 0.35376 0.0
H4493 H 0.31341 0.26892 0.42264 0.0
H4494 H 0.33386 0.2731 0.40189 0.0
H4495 H 0.32625 0.24614 0.41284 0.0
C4496 C 0.34474 0.61367 0.58313 0.0
C4497 C 0.32333 0.60384 0.5709 0.0
C4498 C 0.36309 0.60394 0.57883 0.0
C4499 C 0.35984 0.58476 0.56103 0.0
C4500 C 0.33787 0.57367 0.55038 0.0
C4501 C 0.31974 0.58316 0.55591 0.0
C4502 C 0.38609 0.61557 0.5915 0.0
C4503 C 0.33371 0.5535 0.53084 0.0
C4504 C 0.39936 0.58018 0.51499 0.0
C4505 C 0.40708 0.56086 0.52034 0.0
C4506 C 0.38543 0.58944 0.52955 0.0
C4507 C 0.37902 0.57891 0.5498 0.0
C4508 C 0.38834 0.56059 0.55646 0.0
C4509 C 0.40233 0.5517 0.54155 0.0
C4510 C 0.37628 0.60942 0.52219 0.0
C4511 C 0.38239 0.54947 0.57834 0.0
H4512 H 0.34735 0.62965 0.5949 0.0
H4513 H 0.30313 0.57575 0.54634 0.0
H4514 H 0.39705 0.60327 0.59417 0.0
H4515 H 0.39408 0.62801 0.58032 0.0
H4516 H 0.38506 0.62491 0.60941 0.0
H4517 H 0.31561 0.54558 0.52618 0.0
H4518 H 0.34011 0.55901 0.5142 0.0
H4519 H 0.34281 0.54049 0.53658 0.0
H4520 H 0.40363 0.58758 0.49891 0.0
H4521 H 0.40858 0.53688 0.54579 0.0
H4522 H 0.37868 0.62291 0.53785 0.0
H4523 H 0.35799 0.604 0.51605 0.0
H4524 H 0.38446 0.61675 0.50728 0.0
H4525 H 0.38256 0.56242 0.59401 0.0
H4526 H 0.39408 0.53844 0.58358 0.0
H4527 H 0.36517 0.53888 0.57426 0.0
C4528 C 0.89228 0.91672 0.52254 0.0
C4529 C 0.87653 0.91968 0.53835 0.0
C4530 C 0.91158 0.93362 0.52241 0.0
C4531 C 0.91569 0.95388 0.53893 0.0
C4532 C 0.89976 0.95708 0.55483 0.0
C4533 C 0.88027 0.94011 0.55413 0.0
C4534 C 0.92774 0.92968 0.5047 0.0
C4535 C 0.90349 0.9783 0.57285 0.0
C4536 C 0.97732 0.98364 0.55419 0.0
C4537 C 0.97904 1.00072 0.53909 0.0
C4538 C 0.95671 0.96888 0.55492 0.0
C4539 C 0.93715 0.9711 0.54019 0.0
C4540 C 0.93859 0.98886 0.52559 0.0
C4541 C 0.95946 1.00341 0.5252 0.0
C4542 C 0.95602 0.9504 0.57095 0.0
C4543 C 0.91827 0.99194 0.50956 0.0
H4544 H 0.88941 0.90119 0.51001 0.0
H4545 H 0.8682 0.94261 0.56638 0.0
H4546 H 0.93064 0.94396 0.49386 0.0
H4547 H 0.94418 0.92903 0.51471 0.0
H4548 H 0.92155 0.91367 0.4921 0.0
H4549 H 0.88975 0.9781 0.58424 0.0
H4550 H 0.91956 0.98025 0.58488 0.0
H4551 H 0.9048 0.99339 0.56317 0.0
H4552 H 0.99226 0.98143 0.5651 0.0
H4553 H 0.96053 0.01641 0.51333 0.0
H4554 H 0.95167 0.93359 0.55958 0.0
H4555 H 0.9428 0.95102 0.58288 0.0
H4556 H 0.9723 0.95178 0.58244 0.0
H4557 H 0.91315 0.9775 0.49474 0.0
H4558 H 0.92157 0.00791 0.50136 0.0
H4559 H 0.90394 0.99202 0.52001 0.0
C4560 C 0.91072 0.08778 0.25584 0.0
C4561 C 0.905 0.06893 0.26796 0.0
C4562 C 0.89957 0.10595 0.2585 0.0
C4563 C 0.88317 0.10558 0.27454 0.0
C4564 C 0.87738 0.0864 0.28665 0.0
C4565 C 0.88808 0.06817 0.28284 0.0
C4566 C 0.90566 0.12567 0.2446 0.0
C4567 C 0.86045 0.08546 0.30437 0.0
C4568 C 0.87129 0.15844 0.3087 0.0
C4569 C 0.84978 0.15868 0.29753 0.0
C4570 C 0.8831 0.14225 0.30016 0.0
C4571 C 0.87297 0.12562 0.28021 0.0
C4572 C 0.85175 0.1266 0.26802 0.0
C4573 C 0.84044 0.14324 0.27675 0.0
C4574 C 0.90585 0.14214 0.31342 0.0
C4575 C 0.84046 0.10934 0.24658 0.0
H4576 H 0.92378 0.08824 0.24423 0.0
H4577 H 0.88385 0.0536 0.29234 0.0
H4578 H 0.89035 0.13069 0.23647 0.0
H4579 H 0.91566 0.14049 0.25714 0.0
H4580 H 0.91566 0.12166 0.22994 0.0
H4581 H 0.85762 0.06919 0.31204 0.0
H4582 H 0.86635 0.0995 0.31955 0.0
H4583 H 0.84419 0.08776 0.29535 0.0
H4584 H 0.87866 0.17063 0.32454 0.0
H4585 H 0.82382 0.14348 0.26807 0.0
H4586 H 0.91811 0.14104 0.30042 0.0
H4587 H 0.90473 0.12701 0.32304 0.0
H4588 H 0.91236 0.15753 0.32689 0.0
H4589 H 0.85221 0.10774 0.23309 0.0
H4590 H 0.82517 0.1138 0.23757 0.0
H4591 H 0.83562 0.09249 0.25265 0.0
C4592 C 0.69236 0.12667 0.05447 0.0
C4593 C 0.70672 0.12193 0.0378 0.0
C4594 C 0.67146 0.1124 0.05392 0.0
C4595 C 0.66453 0.09354 0.03555 0.0
C4596 C 0.6789 0.0889 0.01838 0.0
C4597 C 0.70018 0.103 0.02004 0.0
C4598 C 0.65703 0.11728 0.07325 0.0
C4599 C 0.67167 0.06931 0.99818 0.0
C4600 C 0.61799 0.04747 0.04813 0.0
C4601 C 0.59902 0.05489 0.03858 0.0
C4602 C 0.63958 0.05959 0.0468 0.0
C4603 C 0.64212 0.0789 0.03455 0.0
C4604 C 0.62302 0.08583 0.02395 0.0
C4605 C 0.6017 0.07425 0.02712 0.0
C4606 C 0.65949 0.05263 0.05989 0.0
C4607 C 0.62519 0.10604 0.01022 0.0
H4608 H 0.69786 0.14116 0.06848 0.0
H4609 H 0.7116 0.09945 0.00736 0.0
H4610 H 0.64132 0.12137 0.06493 0.0
H4611 H 0.65223 0.10206 0.08238 0.0
H4612 H 0.66569 0.13167 0.08721 0.0
H4613 H 0.6852 0.06751 0.98692 0.0
H4614 H 0.66645 0.05322 0.00565 0.0
H4615 H 0.6569 0.07188 0.98634 0.0
H4616 H 0.61597 0.03273 0.05763 0.0
H4617 H 0.58729 0.08104 0.02201 0.0
H4618 H 0.66779 0.06616 0.07492 0.0
H4619 H 0.67204 0.05054 0.0475 0.0
H4620 H 0.65462 0.03657 0.06761 0.0
H4621 H 0.63338 0.12172 0.02256 0.0
H4622 H 0.60871 0.10836 0.00178 0.0
H4623 H 0.63597 0.10399 0.9958 0.0
C4624 C 0.2372 0.50542 0.25756 0.0
C4625 C 0.21726 0.50218 0.24174 0.0
C4626 C 0.24517 0.48686 0.26485 0.0
C4627 C 0.23352 0.46468 0.25492 0.0
C4628 C 0.21496 0.46146 0.2366 0.0
C4629 C 0.20666 0.48036 0.23061 0.0
C4630 C 0.26452 0.491 0.28512 0.0
C4631 C 0.20269 0.43809 0.22497 0.0
C4632 C 0.26713 0.4227 0.27432 0.0
C4633 C 0.25875 0.41821 0.29597 0.0
C4634 C 0.25759 0.43619 0.25924 0.0
C4635 C 0.23938 0.44533 0.26614 0.0
C4636 C 0.22958 0.43908 0.28683 0.0
C4637 C 0.23954 0.42567 0.30164 0.0
C4638 C 0.2681 0.44214 0.23704 0.0
C4639 C 0.20985 0.44813 0.29462 0.0
H4640 H 0.24506 0.52231 0.26652 0.0
H4641 H 0.19108 0.47798 0.21851 0.0
H4642 H 0.25843 0.48457 0.30151 0.0
H4643 H 0.27753 0.48172 0.27998 0.0
H4644 H 0.27241 0.50927 0.28995 0.0
H4645 H 0.19208 0.4387 0.20775 0.0
H4646 H 0.21464 0.427 0.22125 0.0
H4647 H 0.19165 0.43023 0.2375 0.0
H4648 H 0.28191 0.41671 0.26986 0.0
H4649 H 0.23276 0.42162 0.31808 0.0
H4650 H 0.27829 0.45968 0.24081 0.0
H4651 H 0.25501 0.44157 0.22153 0.0
H4652 H 0.2792 0.43054 0.23174 0.0
H4653 H 0.21576 0.46596 0.30329 0.0
H4654 H 0.20159 0.43816 0.30786 0.0
H4655 H 0.1972 0.44798 0.27885 0.0
C4656 C 0.24228 0.41789 0.02132 0.0
C4657 C 0.2523 0.41445 0.04388 0.0
C4658 C 0.22461 0.42951 0.01952 0.0
C4659 C 0.21628 0.43733 0.04081 0.0
C4660 C 0.22581 0.43304 0.06363 0.0
C4661 C 0.24404 0.422 0.06495 0.0
C4662 C 0.21542 0.43412 0.99484 0.0
C4663 C 0.21692 0.44036 0.08662 0.0
C4664 C 0.18868 0.48717 0.03214 0.0
C4665 C 0.16636 0.47625 0.0243 0.0
C4666 C 0.20486 0.47491 0.03948 0.0
C4667 C 0.19854 0.45109 0.0389 0.0
C4668 C 0.17558 0.44032 0.03298 0.0
C4669 C 0.15976 0.45302 0.02553 0.0
C4670 C 0.22906 0.48719 0.04552 0.0
C4671 C 0.16798 0.41508 0.03247 0.0
H4672 H 0.24889 0.41223 0.00508 0.0
H4673 H 0.25185 0.4193 0.0824 0.0
H4674 H 0.19715 0.42692 0.99101 0.0
H4675 H 0.21782 0.45268 0.99452 0.0
H4676 H 0.22369 0.42685 0.98009 0.0
H4677 H 0.22553 0.43499 0.1028 0.0
H4678 H 0.21904 0.45906 0.08949 0.0
H4679 H 0.19868 0.43307 0.085 0.0
H4680 H 0.19382 0.50505 0.0307 0.0
H4681 H 0.14257 0.44449 0.01899 0.0
H4682 H 0.23841 0.48265 0.03048 0.0
H4683 H 0.23703 0.48203 0.06215 0.0
H4684 H 0.23082 0.50589 0.04823 0.0
H4685 H 0.17233 0.40618 0.01584 0.0
H4686 H 0.14956 0.4101 0.03241 0.0
H4687 H 0.17658 0.40921 0.04829 0.0
C4688 C 0.88814 0.94367 0.25621 0.0
C4689 C 0.90821 0.94731 0.27218 0.0
C4690 C 0.87123 0.92405 0.25526 0.0
C4691 C 0.87411 0.90789 0.27114 0.0
C4692 C 0.89417 0.9117 0.2876 0.0
C4693 C 0.91105 0.93114 0.28769 0.0
C4694 C 0.85036 0.92053 0.23713 0.0
C4695 C 0.8978 0.89522 0.30522 0.0
C4696 C 0.82363 0.8659 0.28549 0.0
C4697 C 0.82524 0.84568 0.27165 0.0
C4698 C 0.83899 0.88638 0.28501 0.0
C4699 C 0.85644 0.88675 0.27032 0.0
C4700 C 0.85767 0.86656 0.2557 0.0
C4701 C 0.84212 0.84636 0.25654 0.0
C4702 C 0.83701 0.90744 0.30091 0.0
C4703 C 0.87578 0.86615 0.23956 0.0
H4704 H 0.88579 0.95603 0.24411 0.0
H4705 H 0.92635 0.93392 0.3003 0.0
H4706 H 0.84809 0.90412 0.22531 0.0
H4707 H 0.83541 0.91975 0.24673 0.0
H4708 H 0.85095 0.93428 0.22551 0.0
H4709 H 0.91384 0.90108 0.31758 0.0
H4710 H 0.88382 0.89275 0.31632 0.0
H4711 H 0.89786 0.87846 0.29514 0.0
H4712 H 0.81084 0.86564 0.29739 0.0
H4713 H 0.84354 0.83092 0.24567 0.0
H4714 H 0.83614 0.92142 0.2899 0.0
H4715 H 0.85213 0.91307 0.31464 0.0
H4716 H 0.82196 0.90463 0.31045 0.0
H4717 H 0.87513 0.87885 0.22684 0.0
H4718 H 0.87417 0.84924 0.22888 0.0
H4719 H 0.89252 0.87083 0.25069 0.0
C4720 C 0.71729 0.13538 0.80407 0.0
C4721 C 0.71531 0.1203 0.78277 0.0
C4722 C 0.73145 0.15685 0.80686 0.0
C4723 C 0.74301 0.16344 0.78746 0.0
C4724 C 0.74193 0.1478 0.76643 0.0
C4725 C 0.72831 0.1262 0.76453 0.0
C4726 C 0.73304 0.17292 0.82989 0.0
C4727 C 0.75368 0.15443 0.74514 0.0
C4728 C 0.75043 0.22348 0.77384 0.0
C4729 C 0.77362 0.23067 0.77893 0.0
C4730 C 0.74006 0.20189 0.77785 0.0
C4731 C 0.7534 0.18746 0.78735 0.0
C4732 C 0.77679 0.19531 0.79391 0.0
C4733 C 0.78675 0.21689 0.78921 0.0
C4734 C 0.7151 0.19397 0.77024 0.0
C4735 C 0.79138 0.18057 0.80463 0.0
H4736 H 0.70744 0.13054 0.81831 0.0
H4737 H 0.72669 0.11444 0.74807 0.0
H4738 H 0.75072 0.18158 0.83624 0.0
H4739 H 0.72349 0.18623 0.82634 0.0
H4740 H 0.72617 0.16405 0.84462 0.0
H4741 H 0.75239 0.13978 0.73092 0.0
H4742 H 0.74612 0.16748 0.7369 0.0
H4743 H 0.77166 0.16199 0.75117 0.0
H4744 H 0.74056 0.23429 0.7655 0.0
H4745 H 0.80481 0.22278 0.79297 0.0
H4746 H 0.7069 0.18685 0.78519 0.0
H4747 H 0.71197 0.1803 0.75462 0.0
H4748 H 0.70705 0.20788 0.76485 0.0
H4749 H 0.78361 0.17222 0.81919 0.0
H4750 H 0.80844 0.19041 0.81218 0.0
H4751 H 0.79305 0.167 0.79041 0.0
loop_
_geom_bond_atom_site_label_1
_geom_bond_atom_site_label_2
_geom_bond_distance
_geom_bond_site_symmetry_2
_ccdc_geom_bond_type
Co0 O1 2.216 . S
Co0 O2 2.091 . S
Co0 O4 2.004 . S
Co0 O10 2.021 . S
Co0 O12 2.137 . S
Co0 O13 2.244 . S
O1 Co0 2.216 . S
O1 C8 1.247 . S
O2 Co0 2.091 . S
O2 C8 1.261 . S
C3 O12 1.247 . S
C3 O13 1.272 . S
O4 Co0 2.004 . S
O4 C9 1.259 1_455 S
Co5 O6 2.061 1_455 S
Co5 O11 2.052 . S
Co5 O13 2.135 . S
O6 Co5 2.061 1_655 S
O6 C9 1.235 . S
C7 O10 1.238 . S
C7 O11 1.241 . S
C8 O1 1.247 . S
C8 O2 1.261 . S
C9 O4 1.259 1_655 S
C9 O6 1.235 . S
O10 Co0 2.021 . S
O10 C7 1.238 . S
O11 Co5 2.052 . S
O11 C7 1.241 . S
O12 Co0 2.137 . S
O12 C3 1.247 . S
O13 Co0 2.244 . S
O13 C3 1.272 . S
O13 Co5 2.135 . S
Co14 O15 2.216 1_455 S
Co14 O16 2.091 1_455 S
Co14 O18 2.004 . S
Co14 O24 2.021 . S
Co14 O26 2.137 . S
Co14 O27 2.244 . S
O15 Co14 2.216 1_655 S
O15 C22 1.247 . S
O16 Co14 2.091 1_655 S
O16 C22 1.261 . S
C17 O26 1.247 . S
C17 O27 1.272 . S
O18 Co14 2.004 . S
O18 C23 1.259 . S
Co19 O20 2.061 . S
Co19 O25 2.052 . S
Co19 O27 2.135 . S
O20 Co19 2.061 . S
O20 C23 1.235 . S
C21 O24 1.238 . S
C21 O25 1.241 . S
C22 O15 1.247 . S
C22 O16 1.261 . S
C23 O18 1.259 . S
C23 O20 1.235 . S
O24 Co14 2.021 . S
O24 C21 1.238 . S
O25 Co19 2.052 . S
O25 C21 1.241 . S
O26 Co14 2.137 . S
O26 C17 1.247 . S
O27 Co14 2.244 . S
O27 C17 1.272 . S
O27 Co19 2.135 . S
Co28 O29 2.216 . S
Co28 O30 2.091 . S
Co28 O32 2.004 . S
Co28 O38 2.021 . S
Co28 O40 2.137 . S
Co28 O41 2.244 . S
O29 Co28 2.216 . S
O29 C36 1.247 . S
O30 Co28 2.091 . S
O30 C36 1.261 . S
C31 O40 1.247 . S
C31 O41 1.272 . S
O32 Co28 2.004 . S
O32 C37 1.259 . S
Co33 O34 2.061 . S
Co33 O39 2.052 . S
Co33 O41 2.135 . S
O34 Co33 2.061 . S
O34 C37 1.235 . S
C35 O38 1.238 . S
C35 O39 1.241 . S
C36 O29 1.247 . S
C36 O30 1.261 . S
C37 O32 1.259 . S
C37 O34 1.235 . S
O38 Co28 2.021 . S
O38 C35 1.238 . S
O39 Co33 2.052 . S
O39 C35 1.241 . S
O40 Co28 2.137 . S
O40 C31 1.247 . S
O41 Co28 2.244 . S
O41 C31 1.272 . S
O41 Co33 2.135 . S
Co42 O43 2.216 . S
Co42 O44 2.091 . S
Co42 O46 2.004 . S
Co42 O52 2.021 . S
Co42 O54 2.137 . S
Co42 O55 2.244 . S
O43 Co42 2.216 . S
O43 C50 1.247 . S
O44 Co42 2.091 . S
O44 C50 1.261 . S
C45 O54 1.247 . S
C45 O55 1.272 . S
O46 Co42 2.004 . S
O46 C51 1.259 . S
Co47 O48 2.061 . S
Co47 O53 2.052 . S
Co47 O55 2.135 . S
O48 Co47 2.061 . S
O48 C51 1.235 . S
C49 O52 1.238 . S
C49 O53 1.241 . S
C50 O43 1.247 . S
C50 O44 1.261 . S
C51 O46 1.259 . S
C51 O48 1.235 . S
O52 Co42 2.021 . S
O52 C49 1.238 . S
O53 Co47 2.052 . S
O53 C49 1.241 . S
O54 Co42 2.137 . S
O54 C45 1.247 . S
O55 Co42 2.244 . S
O55 C45 1.272 . S
O55 Co47 2.135 . S
Co56 O57 2.216 . S
Co56 O58 2.091 . S
Co56 O60 2.004 . S
Co56 O66 2.021 . S
Co56 O68 2.137 . S
Co56 O69 2.244 . S
O57 Co56 2.216 . S
O57 C64 1.247 . S
O58 Co56 2.091 . S
O58 C64 1.261 . S
C59 O68 1.247 . S
C59 O69 1.272 . S
O60 Co56 2.004 . S
O60 C65 1.259 . S
Co61 O62 2.061 . S
Co61 O67 2.052 . S
Co61 O69 2.135 . S
O62 Co61 2.061 . S
O62 C65 1.235 . S
C63 O66 1.238 . S
C63 O67 1.241 . S
C64 O57 1.247 . S
C64 O58 1.261 . S
C65 O60 1.259 . S
C65 O62 1.235 . S
O66 Co56 2.021 . S
O66 C63 1.238 . S
O67 Co61 2.052 . S
O67 C63 1.241 . S
O68 Co56 2.137 . S
O68 C59 1.247 . S
O69 Co56 2.244 . S
O69 C59 1.272 . S
O69 Co61 2.135 . S
Co70 O71 2.216 . S
Co70 O72 2.091 . S
Co70 O74 2.004 . S
Co70 O80 2.021 . S
Co70 O82 2.137 . S
Co70 O83 2.244 . S
O71 Co70 2.216 . S
O71 C78 1.247 . S
O72 Co70 2.091 . S
O72 C78 1.261 . S
C73 O82 1.247 . S
C73 O83 1.272 . S
O74 Co70 2.004 . S
O74 C79 1.259 . S
Co75 O76 2.061 . S
Co75 O81 2.052 . S
Co75 O83 2.135 . S
O76 Co75 2.061 . S
O76 C79 1.235 . S
C77 O80 1.238 . S
C77 O81 1.241 . S
C78 O71 1.247 . S
C78 O72 1.261 . S
C79 O74 1.259 . S
C79 O76 1.235 . S
O80 Co70 2.021 . S
O80 C77 1.238 . S
O81 Co75 2.052 . S
O81 C77 1.241 . S
O82 Co70 2.137 . S
O82 C73 1.247 . S
O83 Co70 2.244 . S
O83 C73 1.272 . S
O83 Co75 2.135 . S
Co84 O85 2.216 . S
Co84 O86 2.091 . S
Co84 O88 2.004 . S
Co84 O94 2.021 . S
Co84 O96 2.137 . S
Co84 O97 2.244 . S
O85 Co84 2.216 . S
O85 C92 1.247 . S
O86 Co84 2.091 . S
O86 C92 1.261 . S
C87 O96 1.247 . S
C87 O97 1.272 . S
O88 Co84 2.004 . S
O88 C93 1.259 . S
Co89 O90 2.061 . S
Co89 O95 2.052 . S
Co89 O97 2.135 . S
O90 Co89 2.061 . S
O90 C93 1.235 . S
C91 O94 1.238 . S
C91 O95 1.241 . S
C92 O85 1.247 . S
C92 O86 1.261 . S
C93 O88 1.259 . S
C93 O90 1.235 . S
O94 Co84 2.021 . S
O94 C91 1.238 . S
O95 Co89 2.052 . S
O95 C91 1.241 . S
O96 Co84 2.137 . S
O96 C87 1.247 . S
O97 Co84 2.244 . S
O97 C87 1.272 . S
O97 Co89 2.135 . S
Co98 O99 2.216 . S
Co98 O100 2.091 . S
Co98 O102 2.004 1_455 S
Co98 O108 2.021 1_455 S
Co98 O110 2.137 . S
Co98 O111 2.244 1_455 S
O99 Co98 2.216 . S
O99 C106 1.247 . S
O100 Co98 2.091 . S
O100 C106 1.261 . S
C101 O110 1.247 . S
C101 O111 1.272 1_455 S
O102 Co98 2.004 1_655 S
O102 C107 1.259 . S
Co103 O104 2.061 . S
Co103 O109 2.052 . S
Co103 O111 2.135 . S
O104 Co103 2.061 . S
O104 C107 1.235 . S
C105 O108 1.239 . S
C105 O109 1.241 . S
C106 O99 1.247 . S
C106 O100 1.261 . S
C107 O102 1.259 . S
C107 O104 1.235 . S
O108 Co98 2.021 1_655 S
O108 C105 1.239 . S
O109 Co103 2.052 . S
O109 C105 1.241 . S
O110 Co98 2.137 . S
O110 C101 1.247 . S
O111 Co98 2.244 1_655 S
O111 C101 1.272 1_655 S
O111 Co103 2.135 . S
Co112 O113 2.216 . S
Co112 O114 2.091 . S
Co112 O116 2.004 1_545 S
Co112 O122 2.021 . S
Co112 O124 2.137 . S
Co112 O125 2.244 . S
O113 Co112 2.216 . S
O113 C120 1.247 . S
O114 Co112 2.091 . S
O114 C120 1.261 . S
C115 O124 1.247 . S
C115 O125 1.272 . S
O116 Co112 2.004 1_565 S
O116 C121 1.259 . S
Co117 O118 2.061 . S
Co117 O123 2.052 . S
Co117 O125 2.135 1_565 S
O118 Co117 2.061 . S
O118 C121 1.235 . S
C119 O122 1.238 . S
C119 O123 1.241 1_545 S
C120 O113 1.247 . S
C120 O114 1.261 . S
C121 O116 1.259 . S
C121 O118 1.235 . S
O122 Co112 2.021 . S
O122 C119 1.238 . S
O123 Co117 2.052 . S
O123 C119 1.241 1_565 S
O124 Co112 2.137 . S
O124 C115 1.247 . S
O125 Co112 2.244 . S
O125 C115 1.272 . S
O125 Co117 2.135 1_545 S
Co126 O127 2.216 . S
Co126 O128 2.091 . S
Co126 O130 2.004 . S
Co126 O136 2.021 . S
Co126 O138 2.137 . S
Co126 O139 2.244 . S
O127 Co126 2.216 . S
O127 C134 1.247 . S
O128 Co126 2.091 . S
O128 C134 1.261 . S
C129 O138 1.247 . S
C129 O139 1.272 . S
O130 Co126 2.004 . S
O130 C135 1.259 . S
Co131 O132 2.061 . S
Co131 O137 2.052 . S
Co131 O139 2.135 . S
O132 Co131 2.061 . S
O132 C135 1.235 . S
C133 O136 1.238 . S
C133 O137 1.241 . S
C134 O127 1.247 . S
C134 O128 1.261 . S
C135 O130 1.259 . S
C135 O132 1.235 . S
O136 Co126 2.021 . S
O136 C133 1.238 . S
O137 Co131 2.052 . S
O137 C133 1.241 . S
O138 Co126 2.137 . S
O138 C129 1.247 . S
O139 Co126 2.244 . S
O139 C129 1.272 . S
O139 Co131 2.135 . S
Co140 O141 2.216 . S
Co140 O142 2.091 . S
Co140 O144 2.004 . S
Co140 O150 2.021 . S
Co140 O152 2.137 . S
Co140 O153 2.244 . S
O141 Co140 2.216 . S
O141 C148 1.247 . S
O142 Co140 2.091 . S
O142 C148 1.261 . S
C143 O152 1.247 . S
C143 O153 1.272 . S
O144 Co140 2.004 . S
O144 C149 1.259 . S
Co145 O146 2.061 . S
Co145 O151 2.052 . S
Co145 O153 2.135 . S
O146 Co145 2.061 . S
O146 C149 1.235 . S
C147 O150 1.238 . S
C147 O151 1.241 . S
C148 O141 1.247 . S
C148 O142 1.261 . S
C149 O144 1.259 . S
C149 O146 1.235 . S
O150 Co140 2.021 . S
O150 C147 1.238 . S
O151 Co145 2.052 . S
O151 C147 1.241 . S
O152 Co140 2.137 . S
O152 C143 1.247 . S
O153 Co140 2.244 . S
O153 C143 1.272 . S
O153 Co145 2.135 . S
Co154 O155 2.216 . S
Co154 O156 2.091 1_556 S
Co154 O158 2.002 . S
Co154 O164 2.021 1_556 S
Co154 O166 2.137 . S
Co154 O167 2.244 . S
O155 Co154 2.216 . S
O155 C162 1.247 . S
O156 Co154 2.091 1_554 S
O156 C162 1.261 1_554 S
C157 O166 1.247 . S
C157 O167 1.272 . S
O158 Co154 2.002 . S
O158 C163 1.256 1_556 S
Co159 O160 2.061 1_556 S
Co159 O165 2.052 1_556 S
Co159 O167 2.135 . S
O160 Co159 2.061 1_554 S
O160 C163 1.235 . S
C161 O164 1.238 . S
C161 O165 1.241 . S
C162 O155 1.247 . S
C162 O156 1.261 1_556 S
C163 O158 1.256 1_554 S
C163 O160 1.235 . S
O164 Co154 2.021 1_554 S
O164 C161 1.238 . S
O165 Co159 2.052 1_554 S
O165 C161 1.241 . S
O166 Co154 2.137 . S
O166 C157 1.247 . S
O167 Co154 2.244 . S
O167 C157 1.272 . S
O167 Co159 2.135 . S
Co168 O169 2.216 . S
Co168 O170 2.091 . S
Co168 O172 2.004 . S
Co168 O178 2.021 . S
Co168 O180 2.137 . S
Co168 O181 2.244 . S
O169 Co168 2.216 . S
O169 C176 1.247 . S
O170 Co168 2.091 . S
O170 C176 1.261 . S
C171 O180 1.247 . S
C171 O181 1.272 . S
O172 Co168 2.004 . S
O172 C177 1.259 . S
Co173 O174 2.061 . S
Co173 O179 2.052 . S
Co173 O181 2.135 . S
O174 Co173 2.061 . S
O174 C177 1.235 . S
C175 O178 1.238 . S
C175 O179 1.241 . S
C176 O169 1.247 . S
C176 O170 1.261 . S
C177 O172 1.259 . S
C177 O174 1.235 . S
O178 Co168 2.021 . S
O178 C175 1.238 . S
O179 Co173 2.052 . S
O179 C175 1.241 . S
O180 Co168 2.137 . S
O180 C171 1.247 . S
O181 Co168 2.244 . S
O181 C171 1.272 . S
O181 Co173 2.135 . S
Co182 O183 2.216 . S
Co182 O184 2.091 . S
Co182 O186 2.004 . S
Co182 O192 2.021 . S
Co182 O194 2.137 . S
Co182 O195 2.244 . S
O183 Co182 2.216 . S
O183 C190 1.247 . S
O184 Co182 2.091 . S
O184 C190 1.261 . S
C185 O194 1.247 . S
C185 O195 1.272 . S
O186 Co182 2.004 . S
O186 C191 1.259 . S
Co187 O188 2.061 . S
Co187 O193 2.052 . S
Co187 O195 2.135 . S
O188 Co187 2.061 . S
O188 C191 1.235 . S
C189 O192 1.238 . S
C189 O193 1.241 . S
C190 O183 1.247 . S
C190 O184 1.261 . S
C191 O186 1.259 . S
C191 O188 1.235 . S
O192 Co182 2.021 . S
O192 C189 1.238 . S
O193 Co187 2.052 . S
O193 C189 1.241 . S
O194 Co182 2.137 . S
O194 C185 1.247 . S
O195 Co182 2.244 . S
O195 C185 1.272 . S
O195 Co187 2.135 . S
Co196 O197 2.216 . S
Co196 O198 2.091 . S
Co196 O200 2.004 . S
Co196 O206 2.021 . S
Co196 O208 2.137 . S
Co196 O209 2.244 . S
O197 Co196 2.216 . S
O197 C204 1.247 . S
O198 Co196 2.091 . S
O198 C204 1.261 . S
C199 O208 1.247 . S
C199 O209 1.272 . S
O200 Co196 2.004 . S
O200 C205 1.259 . S
Co201 O202 2.061 . S
Co201 O207 2.052 . S
Co201 O209 2.135 . S
O202 Co201 2.061 . S
O202 C205 1.235 . S
C203 O206 1.238 . S
C203 O207 1.241 . S
C204 O197 1.247 . S
C204 O198 1.261 . S
C205 O200 1.259 . S
C205 O202 1.235 . S
O206 Co196 2.021 . S
O206 C203 1.238 . S
O207 Co201 2.052 . S
O207 C203 1.241 . S
O208 Co196 2.137 . S
O208 C199 1.247 . S
O209 Co196 2.244 . S
O209 C199 1.272 . S
O209 Co201 2.135 . S
Co210 O211 2.216 . S
Co210 O212 2.091 . S
Co210 O214 2.004 . S
Co210 O220 2.021 . S
Co210 O222 2.137 . S
Co210 O223 2.244 . S
O211 Co210 2.216 . S
O211 C218 1.247 . S
O212 Co210 2.091 . S
O212 C218 1.261 . S
C213 O222 1.247 . S
C213 O223 1.272 . S
O214 Co210 2.004 . S
O214 C219 1.259 . S
Co215 O216 2.061 . S
Co215 O221 2.052 . S
Co215 O223 2.135 . S
O216 Co215 2.061 . S
O216 C219 1.235 . S
C217 O220 1.238 . S
C217 O221 1.241 . S
C218 O211 1.247 . S
C218 O212 1.261 . S
C219 O214 1.259 . S
C219 O216 1.235 . S
O220 Co210 2.021 . S
O220 C217 1.238 . S
O221 Co215 2.052 . S
O221 C217 1.241 . S
O222 Co210 2.137 . S
O222 C213 1.247 . S
O223 Co210 2.244 . S
O223 C213 1.272 . S
O223 Co215 2.135 . S
Co224 O225 2.216 . S
Co224 O226 2.091 . S
Co224 O228 2.004 1_545 S
Co224 O234 2.021 . S
Co224 O236 2.137 . S
Co224 O237 2.244 . S
O225 Co224 2.216 . S
O225 C232 1.247 . S
O226 Co224 2.091 . S
O226 C232 1.261 . S
C227 O236 1.247 . S
C227 O237 1.272 . S
O228 Co224 2.004 1_565 S
O228 C233 1.259 . S
Co229 O230 2.061 . S
Co229 O235 2.052 1_565 S
Co229 O237 2.135 1_565 S
O230 Co229 2.061 . S
O230 C233 1.235 . S
C231 O234 1.238 . S
C231 O235 1.241 . S
C232 O225 1.247 . S
C232 O226 1.261 . S
C233 O228 1.259 . S
C233 O230 1.235 . S
O234 Co224 2.021 . S
O234 C231 1.238 . S
O235 Co229 2.052 1_545 S
O235 C231 1.241 . S
O236 Co224 2.137 . S
O236 C227 1.247 . S
O237 Co224 2.244 . S
O237 C227 1.272 . S
O237 Co229 2.135 1_545 S
Co238 O239 2.216 . S
Co238 O240 2.091 . S
Co238 O242 2.004 . S
Co238 O248 2.021 . S
Co238 O250 2.137 . S
Co238 O251 2.244 . S
O239 Co238 2.216 . S
O239 C246 1.247 . S
O240 Co238 2.091 . S
O240 C246 1.261 . S
C241 O250 1.247 . S
C241 O251 1.272 . S
O242 Co238 2.004 . S
O242 C247 1.259 . S
Co243 O244 2.061 . S
Co243 O249 2.052 . S
Co243 O251 2.135 . S
O244 Co243 2.061 . S
O244 C247 1.235 . S
C245 O248 1.238 . S
C245 O249 1.241 . S
C246 O239 1.247 . S
C246 O240 1.261 . S
C247 O242 1.259 . S
C247 O244 1.235 . S
O248 Co238 2.021 . S
O248 C245 1.238 . S
O249 Co243 2.052 . S
O249 C245 1.241 . S
O250 Co238 2.137 . S
O250 C241 1.247 . S
O251 Co238 2.244 . S
O251 C241 1.272 . S
O251 Co243 2.135 . S
Co252 O253 2.216 . S
Co252 O254 2.091 . S
Co252 O256 2.004 . S
Co252 O262 2.021 . S
Co252 O264 2.137 . S
Co252 O265 2.244 . S
O253 Co252 2.216 . S
O253 C260 1.247 . S
O254 Co252 2.091 . S
O254 C260 1.261 . S
C255 O264 1.247 . S
C255 O265 1.272 . S
O256 Co252 2.004 . S
O256 C261 1.259 . S
Co257 O258 2.061 . S
Co257 O263 2.052 . S
Co257 O265 2.135 . S
O258 Co257 2.061 . S
O258 C261 1.235 . S
C259 O262 1.238 . S
C259 O263 1.241 . S
C260 O253 1.247 . S
C260 O254 1.261 . S
C261 O256 1.259 . S
C261 O258 1.235 . S
O262 Co252 2.021 . S
O262 C259 1.238 . S
O263 Co257 2.052 . S
O263 C259 1.241 . S
O264 Co252 2.137 . S
O264 C255 1.247 . S
O265 Co252 2.244 . S
O265 C255 1.272 . S
O265 Co257 2.135 . S
Co266 O267 2.216 . S
Co266 O268 2.091 . S
Co266 O270 2.004 . S
Co266 O276 2.021 . S
Co266 O278 2.137 . S
Co266 O279 2.244 . S
O267 Co266 2.216 . S
O267 C274 1.247 . S
O268 Co266 2.091 . S
O268 C274 1.261 . S
C269 O278 1.247 . S
C269 O279 1.272 . S
O270 Co266 2.004 . S
O270 C275 1.259 . S
Co271 O272 2.061 . S
Co271 O277 2.052 . S
Co271 O279 2.135 . S
O272 Co271 2.061 . S
O272 C275 1.235 . S
C273 O276 1.238 . S
C273 O277 1.241 . S
C274 O267 1.247 . S
C274 O268 1.261 . S
C275 O270 1.259 . S
C275 O272 1.235 . S
O276 Co266 2.021 . S
O276 C273 1.238 . S
O277 Co271 2.052 . S
O277 C273 1.241 . S
O278 Co266 2.137 . S
O278 C269 1.247 . S
O279 Co266 2.244 . S
O279 C269 1.272 . S
O279 Co271 2.135 . S
Co280 O281 2.216 . S
Co280 O282 2.091 . S
Co280 O284 2.004 . S
Co280 O290 2.021 . S
Co280 O292 2.137 1_554 S
Co280 O293 2.244 1_554 S
O281 Co280 2.216 . S
O281 C288 1.247 . S
O282 Co280 2.091 . S
O282 C288 1.261 . S
C283 O292 1.247 . S
C283 O293 1.272 . S
O284 Co280 2.004 . S
O284 C289 1.259 . S
Co285 O286 2.061 . S
Co285 O291 2.052 . S
Co285 O293 2.135 1_554 S
O286 Co285 2.061 . S
O286 C289 1.235 . S
C287 O290 1.238 . S
C287 O291 1.241 . S
C288 O281 1.247 . S
C288 O282 1.261 . S
C289 O284 1.259 . S
C289 O286 1.235 . S
O290 Co280 2.021 . S
O290 C287 1.238 . S
O291 Co285 2.052 . S
O291 C287 1.241 . S
O292 Co280 2.137 1_556 S
O292 C283 1.247 . S
O293 Co280 2.244 1_556 S
O293 C283 1.272 . S
O293 Co285 2.135 1_556 S
Co294 O295 2.216 . S
Co294 O296 2.091 . S
Co294 O298 2.004 . S
Co294 O304 2.021 . S
Co294 O306 2.137 . S
Co294 O307 2.244 . S
O295 Co294 2.216 . S
O295 C302 1.247 . S
O296 Co294 2.091 . S
O296 C302 1.261 . S
C297 O306 1.247 . S
C297 O307 1.272 . S
O298 Co294 2.004 . S
O298 C303 1.259 . S
Co299 O300 2.061 . S
Co299 O305 2.052 . S
Co299 O307 2.135 . S
O300 Co299 2.061 . S
O300 C303 1.235 . S
C301 O304 1.238 . S
C301 O305 1.241 . S
C302 O295 1.247 . S
C302 O296 1.261 . S
C303 O298 1.259 . S
C303 O300 1.235 . S
O304 Co294 2.021 . S
O304 C301 1.238 . S
O305 Co299 2.052 . S
O305 C301 1.241 . S
O306 Co294 2.137 . S
O306 C297 1.247 . S
O307 Co294 2.244 . S
O307 C297 1.272 . S
O307 Co299 2.135 . S
Co308 O309 2.216 . S
Co308 O310 2.091 . S
Co308 O312 2.004 . S
Co308 O318 2.021 . S
Co308 O320 2.137 . S
Co308 O321 2.244 . S
O309 Co308 2.216 . S
O309 C316 1.247 . S
O310 Co308 2.091 . S
O310 C316 1.261 . S
C311 O320 1.247 . S
C311 O321 1.272 . S
O312 Co308 2.004 . S
O312 C317 1.259 . S
Co313 O314 2.061 . S
Co313 O319 2.052 . S
Co313 O321 2.135 . S
O314 Co313 2.061 . S
O314 C317 1.235 . S
C315 O318 1.238 . S
C315 O319 1.241 . S
C316 O309 1.247 . S
C316 O310 1.261 . S
C317 O312 1.259 . S
C317 O314 1.235 . S
O318 Co308 2.021 . S
O318 C315 1.238 . S
O319 Co313 2.052 . S
O319 C315 1.241 . S
O320 Co308 2.137 . S
O320 C311 1.247 . S
O321 Co308 2.244 . S
O321 C311 1.272 . S
O321 Co313 2.135 . S
Co322 O323 2.216 . S
Co322 O324 2.091 . S
Co322 O326 2.004 . S
Co322 O332 2.021 . S
Co322 O334 2.137 . S
Co322 O335 2.244 . S
O323 Co322 2.216 . S
O323 C330 1.247 . S
O324 Co322 2.091 . S
O324 C330 1.261 . S
C325 O334 1.247 . S
C325 O335 1.272 . S
O326 Co322 2.004 . S
O326 C331 1.259 . S
Co327 O328 2.061 . S
Co327 O333 2.052 . S
Co327 O335 2.135 . S
O328 Co327 2.061 . S
O328 C331 1.235 . S
C329 O332 1.238 . S
C329 O333 1.241 . S
C330 O323 1.247 . S
C330 O324 1.261 . S
C331 O326 1.259 . S
C331 O328 1.235 . S
O332 Co322 2.021 . S
O332 C329 1.238 . S
O333 Co327 2.052 . S
O333 C329 1.241 . S
O334 Co322 2.137 . S
O334 C325 1.247 . S
O335 Co322 2.244 . S
O335 C325 1.272 . S
O335 Co327 2.135 . S
C336 C338 1.422 1_556 S
C336 C340 1.415 . S
C336 N342 1.369 . S
C337 C338 1.421 . S
C337 C339 1.417 1_554 S
C337 C349 1.422 . S
C338 C336 1.422 1_554 S
C338 C337 1.421 . S
C338 N348 1.359 . S
C339 C337 1.417 1_556 S
C339 C341 1.329 . S
C339 H358 0.926 1_556 S
C340 C336 1.415 . S
C340 C341 1.437 . S
C340 C344 1.413 . S
C341 C339 1.329 . S
C341 C340 1.437 . S
C341 H363 0.929 . S
N342 C336 1.369 . S
N342 C343 1.338 . S
N342 Gd347 2.622 1_566 S
C343 N342 1.338 . S
C343 C345 1.378 . S
C343 H355 0.941 . S
C344 C340 1.413 . S
C344 C345 1.348 . S
C344 H360 0.931 . S
C345 C343 1.378 . S
C345 C344 1.348 . S
C345 H361 0.930 . S
Gd346 N366 2.622 . S
Gd346 N373 2.570 . S
Gd346 O380 2.353 . S
Gd346 O381 2.468 . S
Gd346 O382 2.427 . S
Gd346 O384 2.388 . S
Gd346 O385 2.386 . S
Gd346 O389 2.307 . S
Gd346 C399 2.805 . S
Gd347 N342 2.622 1_544 S
Gd347 N348 2.570 1_545 S
Gd347 O379 2.386 1_645 S
Gd347 O383 2.307 1_655 S
Gd347 O386 2.353 1_655 S
Gd347 O387 2.468 . S
Gd347 O388 2.427 1_554 S
Gd347 O390 2.388 1_654 S
Gd347 C411 2.805 . S
N348 C338 1.359 . S
N348 Gd347 2.570 1_565 S
N348 C350 1.343 . S
C349 C337 1.422 . S
C349 C351 1.321 . S
C349 H357 0.931 . S
C350 N348 1.343 . S
C350 C351 1.390 . S
C350 H352 0.931 . S
C351 C349 1.321 . S
C351 C350 1.390 . S
C351 H353 0.930 . S
H352 C350 0.931 . S
H353 C351 0.930 . S
H354 C377 0.931 . S
H355 C343 0.941 . S
H356 C378 0.930 1_556 S
H357 C349 0.931 . S
H358 C339 0.926 1_554 S
H359 C368 0.929 . S
H360 C344 0.931 . S
H361 C345 0.930 . S
H362 C400 0.930 . S
H363 C341 0.929 . S
H364 C369 0.931 . S
H365 C370 0.930 . S
N366 Gd346 2.622 . S
N366 C367 1.369 . S
N366 C368 1.338 . S
C367 N366 1.369 . S
C367 C371 1.415 . S
C367 C374 1.422 . S
C368 H359 0.929 . S
C368 N366 1.338 . S
C368 C370 1.378 . S
C369 H364 0.931 . S
C369 C370 1.348 . S
C369 C371 1.413 . S
C370 H365 0.930 . S
C370 C368 1.378 . S
C370 C369 1.348 . S
C371 C367 1.415 . S
C371 C369 1.413 . S
C371 C401 1.437 . S
H372 C401 0.929 . S
N373 Gd346 2.570 . S
N373 C374 1.359 . S
N373 C377 1.343 . S
C374 C367 1.422 . S
C374 N373 1.359 . S
C374 C376 1.421 . S
C375 C376 1.422 . S
C375 C378 1.321 . S
C375 H402 0.931 . S
C376 C374 1.421 . S
C376 C375 1.422 . S
C376 C400 1.417 . S
C377 H354 0.931 . S
C377 N373 1.343 . S
C377 C378 1.390 . S
C378 H356 0.930 1_554 S
C378 C375 1.321 . S
C378 C377 1.390 . S
O379 Gd347 2.386 1_465 S
O379 C391 1.265 . S
O380 Gd346 2.353 . S
O380 C391 1.242 1_545 S
O381 Gd346 2.468 . S
O381 C399 1.263 . S
O382 Gd346 2.427 . S
O382 C399 1.252 . S
O383 Gd347 2.307 1_455 S
O383 C392 1.261 . S
O384 Gd346 2.388 . S
O384 C392 1.252 . S
O385 Gd346 2.386 . S
O385 C403 1.265 . S
O386 Gd347 2.353 1_455 S
O386 C403 1.242 . S
O387 Gd347 2.468 . S
O387 C411 1.263 . S
O388 Gd347 2.427 1_556 S
O388 C411 1.252 1_556 S
O389 Gd346 2.307 . S
O389 C404 1.261 1_554 S
O390 Gd347 2.388 1_456 S
O390 C404 1.252 . S
C391 O379 1.265 . S
C391 O380 1.242 1_565 S
C392 O383 1.261 . S
C392 O384 1.252 . S
C393 C396 1.394 . S
C393 C398 1.370 . S
C393 C399 1.500 . S
C394 C397 1.383 . S
C394 C398 1.395 . S
C395 C396 1.396 . S
C395 C397 1.365 . S
C395 H412 0.929 . S
C396 C393 1.394 . S
C396 C395 1.396 . S
C396 H413 0.930 . S
C397 C394 1.383 . S
C397 C395 1.365 . S
C397 H414 0.931 . S
C398 C393 1.370 . S
C398 C394 1.395 . S
C398 H415 0.930 . S
C399 Gd346 2.805 . S
C399 O381 1.263 . S
C399 O382 1.252 . S
C399 C393 1.500 . S
C400 H362 0.930 . S
C400 C376 1.417 . S
C400 C401 1.329 . S
C401 C371 1.437 . S
C401 H372 0.929 . S
C401 C400 1.329 . S
H402 C375 0.931 . S
C403 O385 1.265 . S
C403 O386 1.242 . S
C404 O389 1.261 1_556 S
C404 O390 1.252 . S
C405 C408 1.394 1_554 S
C405 C410 1.370 . S
C405 C411 1.500 . S
C406 C409 1.383 1_554 S
C406 C410 1.395 . S
C407 C408 1.396 . S
C407 C409 1.365 . S
C407 H416 0.929 . S
C408 C405 1.394 1_556 S
C408 C407 1.396 . S
C408 H417 0.930 . S
C409 C406 1.383 1_556 S
C409 C407 1.365 . S
C409 H418 0.931 . S
C410 C405 1.370 . S
C410 C406 1.395 . S
C410 H419 0.930 . S
C411 Gd347 2.805 . S
C411 O387 1.263 . S
C411 O388 1.252 1_554 S
C411 C405 1.500 . S
H412 C395 0.929 . S
H413 C396 0.930 . S
H414 C397 0.931 . S
H415 C398 0.930 . S
H416 C407 0.929 . S
H417 C408 0.930 . S
H418 C409 0.931 . S
H419 C410 0.930 . S
C420 C422 1.422 . S
C420 C424 1.415 . S
C420 N426 1.369 . S
C421 C422 1.421 . S
C421 C423 1.417 . S
C421 C433 1.422 . S
C422 C420 1.422 . S
C422 C421 1.421 . S
C422 N432 1.359 . S
C423 C421 1.417 . S
C423 C425 1.329 . S
C423 H442 0.930 . S
C424 C420 1.415 . S
C424 C425 1.437 . S
C424 C428 1.413 . S
C425 C423 1.329 . S
C425 C424 1.437 . S
C425 H447 0.929 . S
N426 C420 1.369 . S
N426 C427 1.338 . S
N426 Gd431 2.622 . S
C427 N426 1.338 . S
C427 C429 1.378 . S
C427 H439 0.929 . S
C428 C424 1.413 . S
C428 C429 1.348 . S
C428 H444 0.931 . S
C429 C427 1.378 . S
C429 C428 1.348 . S
C429 H445 0.930 . S
Gd430 N450 2.622 . S
Gd430 N457 2.570 . S
Gd430 O464 2.353 . S
Gd430 O465 2.468 . S
Gd430 O466 2.427 . S
Gd430 O468 2.388 . S
Gd430 O469 2.386 . S
Gd430 O473 2.307 . S
Gd430 C483 2.805 . S
Gd431 N426 2.622 . S
Gd431 N432 2.570 . S
Gd431 O463 2.386 . S
Gd431 O467 2.307 . S
Gd431 O470 2.353 . S
Gd431 O471 2.468 . S
Gd431 O472 2.427 . S
Gd431 O474 2.388 . S
Gd431 C495 2.805 . S
N432 C422 1.359 . S
N432 Gd431 2.570 . S
N432 C434 1.343 . S
C433 C421 1.422 . S
C433 C435 1.321 . S
C433 H441 0.931 . S
C434 N432 1.343 . S
C434 C435 1.390 . S
C434 H436 0.931 . S
C435 C433 1.321 . S
C435 C434 1.390 . S
C435 H437 0.930 . S
H436 C434 0.931 . S
H437 C435 0.930 . S
H438 C461 0.931 . S
H439 C427 0.929 . S
H440 C462 0.930 . S
H441 C433 0.931 . S
H442 C423 0.930 . S
H443 C452 0.929 . S
H444 C428 0.931 . S
H445 C429 0.930 . S
H446 C484 0.930 . S
H447 C425 0.929 . S
H448 C453 0.931 . S
H449 C454 0.930 . S
N450 Gd430 2.622 . S
N450 C451 1.369 . S
N450 C452 1.338 . S
C451 N450 1.369 . S
C451 C455 1.415 . S
C451 C458 1.422 . S
C452 H443 0.929 . S
C452 N450 1.338 . S
C452 C454 1.378 . S
C453 H448 0.931 . S
C453 C454 1.348 . S
C453 C455 1.413 . S
C454 H449 0.930 . S
C454 C452 1.378 . S
C454 C453 1.348 . S
C455 C451 1.415 . S
C455 C453 1.413 . S
C455 C485 1.437 . S
H456 C485 0.929 . S
N457 Gd430 2.570 . S
N457 C458 1.359 . S
N457 C461 1.343 . S
C458 C451 1.422 . S
C458 N457 1.359 . S
C458 C460 1.421 . S
C459 C460 1.422 . S
C459 C462 1.321 . S
C459 H486 0.931 . S
C460 C458 1.421 . S
C460 C459 1.422 . S
C460 C484 1.417 . S
C461 H438 0.931 . S
C461 N457 1.343 . S
C461 C462 1.390 . S
C462 H440 0.930 . S
C462 C459 1.321 . S
C462 C461 1.390 . S
O463 Gd431 2.386 . S
O463 C475 1.265 . S
O464 Gd430 2.353 . S
O464 C475 1.242 . S
O465 Gd430 2.468 . S
O465 C483 1.263 . S
O466 Gd430 2.427 . S
O466 C483 1.252 . S
O467 Gd431 2.307 . S
O467 C476 1.261 . S
O468 Gd430 2.388 . S
O468 C476 1.252 . S
O469 Gd430 2.386 . S
O469 C487 1.265 . S
O470 Gd431 2.353 . S
O470 C487 1.242 . S
O471 Gd431 2.468 . S
O471 C495 1.263 . S
O472 Gd431 2.427 . S
O472 C495 1.252 . S
O473 Gd430 2.307 . S
O473 C488 1.261 . S
O474 Gd431 2.388 . S
O474 C488 1.252 . S
C475 O463 1.265 . S
C475 O464 1.242 . S
C476 O467 1.261 . S
C476 O468 1.252 . S
C477 C480 1.394 . S
C477 C482 1.370 . S
C477 C483 1.500 . S
C478 C481 1.383 . S
C478 C482 1.395 . S
C479 C480 1.396 . S
C479 C481 1.365 . S
C479 H496 0.929 . S
C480 C477 1.394 . S
C480 C479 1.396 . S
C480 H497 0.930 . S
C481 C478 1.383 . S
C481 C479 1.365 . S
C481 H498 0.931 . S
C482 C477 1.370 . S
C482 C478 1.395 . S
C482 H499 0.930 . S
C483 Gd430 2.805 . S
C483 O465 1.263 . S
C483 O466 1.252 . S
C483 C477 1.500 . S
C484 H446 0.930 . S
C484 C460 1.417 . S
C484 C485 1.329 . S
C485 C455 1.437 . S
C485 H456 0.929 . S
C485 C484 1.329 . S
H486 C459 0.931 . S
C487 O469 1.265 . S
C487 O470 1.242 . S
C488 O473 1.261 . S
C488 O474 1.252 . S
C489 C492 1.394 . S
C489 C494 1.370 . S
C489 C495 1.500 . S
C490 C493 1.383 . S
C490 C494 1.395 . S
C491 C492 1.396 . S
C491 C493 1.365 . S
C491 H500 0.929 . S
C492 C489 1.394 . S
C492 C491 1.396 . S
C492 H501 0.930 . S
C493 C490 1.383 . S
C493 C491 1.365 . S
C493 H502 0.931 . S
C494 C489 1.370 . S
C494 C490 1.395 . S
C494 H503 0.930 . S
C495 Gd431 2.805 . S
C495 O471 1.263 . S
C495 O472 1.252 . S
C495 C489 1.500 . S
H496 C479 0.929 . S
H497 C480 0.930 . S
H498 C481 0.931 . S
H499 C482 0.930 . S
H500 C491 0.929 . S
H501 C492 0.930 . S
H502 C493 0.931 . S
H503 C494 0.930 . S
C504 C506 1.422 . S
C504 C508 1.415 . S
C504 N510 1.369 . S
C505 C506 1.421 . S
C505 C507 1.417 . S
C505 C517 1.422 . S
C506 C504 1.422 . S
C506 C505 1.421 . S
C506 N516 1.359 . S
C507 C505 1.417 . S
C507 C509 1.329 . S
C507 H526 0.930 . S
C508 C504 1.415 . S
C508 C509 1.437 . S
C508 C512 1.413 . S
C509 C507 1.329 . S
C509 C508 1.437 . S
C509 H531 0.929 . S
N510 C504 1.369 . S
N510 C511 1.338 . S
N510 Gd515 2.622 . S
C511 N510 1.338 . S
C511 C513 1.378 . S
C511 H523 0.929 . S
C512 C508 1.413 . S
C512 C513 1.348 . S
C512 H528 0.931 . S
C513 C511 1.378 . S
C513 C512 1.348 . S
C513 H529 0.930 . S
Gd514 N534 2.595 1_545 S
Gd514 N541 2.570 1_545 S
Gd514 O548 2.353 . S
Gd514 O549 2.468 . S
Gd514 O550 2.427 . S
Gd514 O552 2.388 . S
Gd514 O553 2.386 1_545 S
Gd514 O557 2.307 . S
Gd514 C567 2.805 . S
Gd515 N510 2.622 . S
Gd515 N516 2.570 . S
Gd515 O547 2.386 . S
Gd515 O551 2.307 . S
Gd515 O554 2.353 1_545 S
Gd515 O555 2.468 . S
Gd515 O556 2.427 . S
Gd515 O558 2.388 . S
Gd515 C579 2.805 . S
N516 C506 1.359 . S
N516 Gd515 2.570 . S
N516 C518 1.343 . S
C517 C505 1.422 . S
C517 C519 1.321 . S
C517 H525 0.931 . S
C518 N516 1.343 . S
C518 C519 1.390 . S
C518 H520 0.931 . S
C519 C517 1.321 . S
C519 C518 1.390 . S
C519 H521 0.930 . S
H520 C518 0.931 . S
H521 C519 0.930 . S
H522 C545 0.931 . S
H523 C511 0.929 . S
H524 C546 0.930 . S
H525 C517 0.931 . S
H526 C507 0.930 . S
H527 C536 0.929 . S
H528 C512 0.931 . S
H529 C513 0.930 . S
H530 C568 0.930 . S
H531 C509 0.929 . S
H532 C537 0.931 . S
H533 C538 0.930 . S
N534 Gd514 2.595 1_565 S
N534 C535 1.399 . S
N534 C536 1.340 1_565 S
C535 N534 1.399 . S
C535 C539 1.415 . S
C535 C542 1.422 . S
C536 H527 0.929 . S
C536 N534 1.340 1_545 S
C536 C538 1.378 1_545 S
C537 H532 0.931 . S
C537 C538 1.348 . S
C537 C539 1.413 . S
C538 H533 0.930 . S
C538 C536 1.378 1_565 S
C538 C537 1.348 . S
C539 C535 1.415 . S
C539 C537 1.413 . S
C539 C569 1.437 . S
H540 C569 0.929 . S
N541 Gd514 2.570 1_565 S
N541 C542 1.359 . S
N541 C545 1.343 . S
C542 C535 1.422 . S
C542 N541 1.359 . S
C542 C544 1.421 . S
C543 C544 1.422 . S
C543 C546 1.321 . S
C543 H570 0.931 . S
C544 C542 1.421 . S
C544 C543 1.422 . S
C544 C568 1.417 . S
C545 H522 0.931 . S
C545 N541 1.343 . S
C545 C546 1.390 . S
C546 H524 0.930 . S
C546 C543 1.321 . S
C546 C545 1.390 . S
O547 Gd515 2.386 . S
O547 C559 1.265 . S
O548 Gd514 2.353 . S
O548 C559 1.242 . S
O549 Gd514 2.468 . S
O549 C567 1.263 . S
O550 Gd514 2.427 . S
O550 C567 1.252 . S
O551 Gd515 2.307 . S
O551 C560 1.261 . S
O552 Gd514 2.388 . S
O552 C560 1.252 . S
O553 Gd514 2.386 1_565 S
O553 C571 1.265 . S
O554 Gd515 2.353 1_565 S
O554 C571 1.242 . S
O555 Gd515 2.468 . S
O555 C579 1.263 . S
O556 Gd515 2.427 . S
O556 C579 1.252 . S
O557 Gd514 2.307 . S
O557 C572 1.261 . S
O558 Gd515 2.388 . S
O558 C572 1.252 . S
C559 O547 1.265 . S
C559 O548 1.242 . S
C560 O551 1.261 . S
C560 O552 1.252 . S
C561 C564 1.394 . S
C561 C566 1.370 . S
C561 C567 1.500 . S
C562 C565 1.383 . S
C562 C566 1.395 . S
C563 C564 1.396 . S
C563 C565 1.365 . S
C563 H580 0.929 . S
C564 C561 1.394 . S
C564 C563 1.396 . S
C564 H581 0.930 . S
C565 C562 1.383 . S
C565 C563 1.365 . S
C565 H582 0.931 . S
C566 C561 1.370 . S
C566 C562 1.395 . S
C566 H583 0.930 . S
C567 Gd514 2.805 . S
C567 O549 1.263 . S
C567 O550 1.252 . S
C567 C561 1.500 . S
C568 H530 0.930 . S
C568 C544 1.417 . S
C568 C569 1.329 . S
C569 C539 1.437 . S
C569 H540 0.929 . S
C569 C568 1.329 . S
H570 C543 0.931 . S
C571 O553 1.265 . S
C571 O554 1.242 . S
C572 O557 1.261 . S
C572 O558 1.252 . S
C573 C576 1.394 . S
C573 C578 1.370 . S
C573 C579 1.500 1_565 S
C574 C577 1.383 . S
C574 C578 1.395 . S
C575 C576 1.396 . S
C575 C577 1.365 . S
C575 H584 0.929 . S
C576 C573 1.394 . S
C576 C575 1.396 . S
C576 H585 0.930 . S
C577 C574 1.383 . S
C577 C575 1.365 . S
C577 H586 0.931 . S
C578 C573 1.370 . S
C578 C574 1.395 . S
C578 H587 0.930 . S
C579 Gd515 2.805 . S
C579 O555 1.263 . S
C579 O556 1.252 . S
C579 C573 1.500 1_545 S
H580 C563 0.929 . S
H581 C564 0.930 . S
H582 C565 0.931 . S
H583 C566 0.930 . S
H584 C575 0.929 . S
H585 C576 0.930 . S
H586 C577 0.931 . S
H587 C578 0.930 . S
C588 C590 1.422 . S
C588 C592 1.415 . S
C588 N594 1.369 . S
C589 C590 1.421 . S
C589 C591 1.417 . S
C589 C601 1.422 . S
C590 C588 1.422 . S
C590 C589 1.421 . S
C590 N600 1.359 . S
C591 C589 1.417 . S
C591 C593 1.329 . S
C591 H610 0.930 . S
C592 C588 1.415 . S
C592 C593 1.437 . S
C592 C596 1.413 . S
C593 C591 1.329 . S
C593 C592 1.437 . S
C593 H615 0.929 . S
N594 C588 1.369 . S
N594 C595 1.338 . S
N594 Gd599 2.622 . S
C595 N594 1.338 . S
C595 C597 1.378 . S
C595 H607 0.929 . S
C596 C592 1.413 . S
C596 C597 1.348 . S
C596 H612 0.931 . S
C597 C595 1.378 . S
C597 C596 1.348 . S
C597 H613 0.930 . S
Gd598 N618 2.622 . S
Gd598 N625 2.570 . S
Gd598 O632 2.353 . S
Gd598 O633 2.468 . S
Gd598 O634 2.427 . S
Gd598 O636 2.388 . S
Gd598 O637 2.386 . S
Gd598 O641 2.307 . S
Gd598 C651 2.805 . S
Gd599 N594 2.622 . S
Gd599 N600 2.570 . S
Gd599 O631 2.386 . S
Gd599 O635 2.307 . S
Gd599 O638 2.353 . S
Gd599 O639 2.468 . S
Gd599 O640 2.427 . S
Gd599 O642 2.388 . S
Gd599 C663 2.805 . S
N600 C590 1.359 . S
N600 Gd599 2.570 . S
N600 C602 1.343 . S
C601 C589 1.422 . S
C601 C603 1.321 . S
C601 H609 0.931 . S
C602 N600 1.343 . S
C602 C603 1.390 . S
C602 H604 0.931 . S
C603 C601 1.321 . S
C603 C602 1.390 . S
C603 H605 0.930 . S
H604 C602 0.931 . S
H605 C603 0.930 . S
H606 C629 0.931 . S
H607 C595 0.929 . S
H608 C630 0.930 . S
H609 C601 0.931 . S
H610 C591 0.930 . S
H611 C620 0.929 . S
H612 C596 0.931 . S
H613 C597 0.930 . S
H614 C652 0.930 . S
H615 C593 0.929 . S
H616 C621 0.931 . S
H617 C622 0.930 . S
N618 Gd598 2.622 . S
N618 C619 1.369 . S
N618 C620 1.338 . S
C619 N618 1.369 . S
C619 C623 1.415 . S
C619 C626 1.422 . S
C620 H611 0.929 . S
C620 N618 1.338 . S
C620 C622 1.378 . S
C621 H616 0.931 . S
C621 C622 1.348 . S
C621 C623 1.413 . S
C622 H617 0.930 . S
C622 C620 1.378 . S
C622 C621 1.348 . S
C623 C619 1.415 . S
C623 C621 1.413 . S
C623 C653 1.437 . S
H624 C653 0.929 . S
N625 Gd598 2.570 . S
N625 C626 1.359 . S
N625 C629 1.343 . S
C626 C619 1.422 . S
C626 N625 1.359 . S
C626 C628 1.421 . S
C627 C628 1.422 . S
C627 C630 1.321 . S
C627 H654 0.931 . S
C628 C626 1.421 . S
C628 C627 1.422 . S
C628 C652 1.417 . S
C629 H606 0.931 . S
C629 N625 1.343 . S
C629 C630 1.390 . S
C630 H608 0.930 . S
C630 C627 1.321 . S
C630 C629 1.390 . S
O631 Gd599 2.386 . S
O631 C643 1.265 . S
O632 Gd598 2.353 . S
O632 C643 1.242 . S
O633 Gd598 2.468 . S
O633 C651 1.263 . S
O634 Gd598 2.427 . S
O634 C651 1.252 . S
O635 Gd599 2.307 . S
O635 C644 1.261 . S
O636 Gd598 2.388 . S
O636 C644 1.252 . S
O637 Gd598 2.386 . S
O637 C655 1.265 . S
O638 Gd599 2.353 . S
O638 C655 1.242 . S
O639 Gd599 2.468 . S
O639 C663 1.263 . S
O640 Gd599 2.427 . S
O640 C663 1.252 . S
O641 Gd598 2.307 . S
O641 C656 1.261 . S
O642 Gd599 2.388 . S
O642 C656 1.252 . S
C643 O631 1.265 . S
C643 O632 1.242 . S
C644 O635 1.261 . S
C644 O636 1.252 . S
C645 C648 1.394 . S
C645 C650 1.370 . S
C645 C651 1.500 . S
C646 C649 1.383 . S
C646 C650 1.395 . S
C647 C648 1.396 . S
C647 C649 1.365 . S
C647 H664 0.929 . S
C648 C645 1.394 . S
C648 C647 1.396 . S
C648 H665 0.930 . S
C649 C646 1.383 . S
C649 C647 1.365 . S
C649 H666 0.931 . S
C650 C645 1.370 . S
C650 C646 1.395 . S
C650 H667 0.930 . S
C651 Gd598 2.805 . S
C651 O633 1.263 . S
C651 O634 1.252 . S
C651 C645 1.500 . S
C652 H614 0.930 . S
C652 C628 1.417 . S
C652 C653 1.329 . S
C653 C623 1.437 . S
C653 H624 0.929 . S
C653 C652 1.329 . S
H654 C627 0.931 . S
C655 O637 1.265 . S
C655 O638 1.242 . S
C656 O641 1.261 . S
C656 O642 1.252 . S
C657 C660 1.394 . S
C657 C662 1.370 . S
C657 C663 1.500 . S
C658 C661 1.383 . S
C658 C662 1.395 . S
C659 C660 1.396 . S
C659 C661 1.365 . S
C659 H668 0.929 . S
C660 C657 1.394 . S
C660 C659 1.396 . S
C660 H669 0.930 . S
C661 C658 1.383 . S
C661 C659 1.365 . S
C661 H670 0.931 . S
C662 C657 1.370 . S
C662 C658 1.395 . S
C662 H671 0.930 . S
C663 Gd599 2.805 . S
C663 O639 1.263 . S
C663 O640 1.252 . S
C663 C657 1.500 . S
H664 C647 0.929 . S
H665 C648 0.930 . S
H666 C649 0.931 . S
H667 C650 0.930 . S
H668 C659 0.929 . S
H669 C660 0.930 . S
H670 C661 0.931 . S
H671 C662 0.930 . S
C672 C674 1.422 . S
C672 C676 1.415 1_455 S
C672 N678 1.369 1_455 S
C673 C674 1.421 . S
C673 C675 1.417 . S
C673 C685 1.422 . S
C674 C672 1.422 . S
C674 C673 1.421 . S
C674 N684 1.359 . S
C675 C673 1.417 . S
C675 C677 1.329 . S
C675 H694 0.930 . S
C676 C672 1.415 1_655 S
C676 C677 1.437 1_655 S
C676 C680 1.413 . S
C677 C675 1.329 . S
C677 C676 1.437 1_455 S
C677 H699 0.904 1_455 S
N678 C672 1.369 1_655 S
N678 C679 1.338 . S
N678 Gd683 2.622 1_655 S
C679 N678 1.338 . S
C679 C681 1.378 . S
C679 H691 0.929 . S
C680 C676 1.413 . S
C680 C681 1.348 . S
C680 H696 0.931 . S
C681 C679 1.378 . S
C681 C680 1.348 . S
C681 H697 0.930 . S
Gd682 N702 2.622 . S
Gd682 N709 2.570 . S
Gd682 O716 2.353 1_565 S
Gd682 O717 2.468 . S
Gd682 O718 2.427 . S
Gd682 O720 2.388 1_565 S
Gd682 O721 2.386 1_565 S
Gd682 O725 2.307 1_565 S
Gd682 C735 2.805 . S
Gd683 N678 2.622 1_455 S
Gd683 N684 2.570 . S
Gd683 O715 2.386 . S
Gd683 O719 2.307 . S
Gd683 O722 2.353 . S
Gd683 O723 2.468 . S
Gd683 O724 2.427 1_455 S
Gd683 O726 2.388 1_455 S
Gd683 C747 2.805 . S
N684 C674 1.359 . S
N684 Gd683 2.570 . S
N684 C686 1.343 . S
C685 C673 1.422 . S
C685 C687 1.321 . S
C685 H693 0.931 . S
C686 N684 1.343 . S
C686 C687 1.390 . S
C686 H688 0.931 . S
C687 C685 1.321 . S
C687 C686 1.390 . S
C687 H689 0.930 . S
H688 C686 0.931 . S
H689 C687 0.930 . S
H690 C713 0.929 1_655 S
H691 C679 0.929 . S
H692 C714 0.930 . S
H693 C685 0.931 . S
H694 C675 0.930 . S
H695 C704 0.929 1_545 S
H696 C680 0.931 . S
H697 C681 0.930 . S
H698 C736 0.930 . S
H699 C677 0.904 1_655 S
H700 C705 0.931 . S
H701 C706 0.930 . S
N702 Gd682 2.622 . S
N702 C703 1.369 . S
N702 C704 1.338 . S
C703 N702 1.369 . S
C703 C707 1.415 . S
C703 C710 1.422 . S
C704 H695 0.929 1_565 S
C704 N702 1.338 . S
C704 C706 1.378 . S
C705 H700 0.931 . S
C705 C706 1.348 . S
C705 C707 1.413 . S
C706 H701 0.930 . S
C706 C704 1.378 . S
C706 C705 1.348 . S
C707 C703 1.415 . S
C707 C705 1.413 . S
C707 C737 1.437 . S
H708 C737 0.929 . S
N709 Gd682 2.570 . S
N709 C710 1.359 . S
N709 C713 1.346 . S
C710 C703 1.422 . S
C710 N709 1.359 . S
C710 C712 1.421 . S
C711 C712 1.422 1_655 S
C711 C714 1.321 . S
C711 H738 0.931 . S
C712 C710 1.421 . S
C712 C711 1.422 1_455 S
C712 C736 1.417 . S
C713 H690 0.929 1_455 S
C713 N709 1.346 . S
C713 C714 1.389 1_455 S
C714 H692 0.930 . S
C714 C711 1.321 . S
C714 C713 1.389 1_655 S
O715 Gd683 2.386 . S
O715 C727 1.265 . S
O716 Gd682 2.353 1_545 S
O716 C727 1.242 . S
O717 Gd682 2.468 . S
O717 C735 1.263 . S
O718 Gd682 2.427 . S
O718 C735 1.252 . S
O719 Gd683 2.307 . S
O719 C728 1.261 . S
O720 Gd682 2.388 1_545 S
O720 C728 1.252 . S
O721 Gd682 2.386 1_545 S
O721 C739 1.265 . S
O722 Gd683 2.353 . S
O722 C739 1.242 . S
O723 Gd683 2.468 . S
O723 C747 1.263 . S
O724 Gd683 2.427 1_655 S
O724 C747 1.252 1_655 S
O725 Gd682 2.307 1_545 S
O725 C740 1.261 1_455 S
O726 Gd683 2.388 1_655 S
O726 C740 1.252 . S
C727 O715 1.265 . S
C727 O716 1.242 . S
C728 O719 1.261 . S
C728 O720 1.252 . S
C729 C732 1.394 . S
C729 C734 1.370 . S
C729 C735 1.500 . S
C730 C733 1.383 . S
C730 C734 1.395 . S
C731 C732 1.396 . S
C731 C733 1.365 . S
C731 H748 0.929 . S
C732 C729 1.394 . S
C732 C731 1.396 . S
C732 H749 0.930 . S
C733 C730 1.383 . S
C733 C731 1.365 . S
C733 H750 0.931 . S
C734 C729 1.370 . S
C734 C730 1.395 . S
C734 H751 0.930 . S
C735 Gd682 2.805 . S
C735 O717 1.263 . S
C735 O718 1.252 . S
C735 C729 1.500 . S
C736 H698 0.930 . S
C736 C712 1.417 . S
C736 C737 1.329 . S
C737 C707 1.437 . S
C737 H708 0.929 . S
C737 C736 1.329 . S
H738 C711 0.931 . S
C739 O721 1.265 . S
C739 O722 1.242 . S
C740 O725 1.261 1_655 S
C740 O726 1.252 . S
C741 C744 1.394 1_455 S
C741 C746 1.370 . S
C741 C747 1.500 . S
C742 C745 1.339 1_455 S
C742 C746 1.395 . S
C743 C744 1.396 . S
C743 C745 1.397 . S
C743 H752 0.929 . S
C744 C741 1.394 1_655 S
C744 C743 1.396 . S
C744 H753 0.930 . S
C745 C742 1.339 1_655 S
C745 C743 1.397 . S
C745 H754 0.945 . S
C746 C741 1.370 . S
C746 C742 1.395 . S
C746 H755 0.930 . S
C747 Gd683 2.805 . S
C747 O723 1.263 . S
C747 O724 1.252 1_455 S
C747 C741 1.500 . S
H748 C731 0.929 . S
H749 C732 0.930 . S
H750 C733 0.931 . S
H751 C734 0.930 . S
H752 C743 0.929 . S
H753 C744 0.930 . S
H754 C745 0.945 . S
H755 C746 0.930 . S
C756 C758 1.422 . S
C756 C760 1.415 . S
C756 N762 1.369 . S
C757 C758 1.421 . S
C757 C759 1.417 . S
C757 C769 1.422 . S
C758 C756 1.422 . S
C758 C757 1.421 . S
C758 N768 1.359 . S
C759 C757 1.417 . S
C759 C761 1.329 . S
C759 H778 0.930 . S
C760 C756 1.415 . S
C760 C761 1.437 . S
C760 C764 1.413 . S
C761 C759 1.329 . S
C761 C760 1.437 . S
C761 H783 0.929 . S
N762 C756 1.369 . S
N762 C763 1.338 . S
N762 Gd767 2.622 . S
C763 N762 1.338 . S
C763 C765 1.378 . S
C763 H775 0.929 . S
C764 C760 1.413 . S
C764 C765 1.348 . S
C764 H780 0.931 . S
C765 C763 1.378 . S
C765 C764 1.348 . S
C765 H781 0.930 . S
Gd766 N786 2.622 . S
Gd766 N793 2.570 . S
Gd766 O800 2.353 . S
Gd766 O801 2.468 . S
Gd766 O802 2.427 . S
Gd766 O804 2.388 . S
Gd766 O805 2.386 . S
Gd766 O809 2.307 . S
Gd766 C819 2.805 . S
Gd767 N762 2.622 . S
Gd767 N768 2.570 . S
Gd767 O799 2.386 . S
Gd767 O803 2.307 . S
Gd767 O806 2.353 . S
Gd767 O807 2.468 . S
Gd767 O808 2.427 . S
Gd767 O810 2.388 . S
Gd767 C831 2.805 . S
N768 C758 1.359 . S
N768 Gd767 2.570 . S
N768 C770 1.343 . S
C769 C757 1.422 . S
C769 C771 1.321 . S
C769 H777 0.931 . S
C770 N768 1.343 . S
C770 C771 1.390 . S
C770 H772 0.931 . S
C771 C769 1.321 . S
C771 C770 1.390 . S
C771 H773 0.930 . S
H772 C770 0.931 . S
H773 C771 0.930 . S
H774 C797 0.931 . S
H775 C763 0.929 . S
H776 C798 0.930 . S
H777 C769 0.931 . S
H778 C759 0.930 . S
H779 C788 0.929 . S
H780 C764 0.931 . S
H781 C765 0.930 . S
H782 C820 0.930 . S
H783 C761 0.929 . S
H784 C789 0.931 . S
H785 C790 0.930 . S
N786 Gd766 2.622 . S
N786 C787 1.369 . S
N786 C788 1.338 . S
C787 N786 1.369 . S
C787 C791 1.415 . S
C787 C794 1.422 . S
C788 H779 0.929 . S
C788 N786 1.338 . S
C788 C790 1.378 . S
C789 H784 0.931 . S
C789 C790 1.348 . S
C789 C791 1.413 . S
C790 H785 0.930 . S
C790 C788 1.378 . S
C790 C789 1.348 . S
C791 C787 1.415 . S
C791 C789 1.413 . S
C791 C821 1.437 . S
H792 C821 0.929 . S
N793 Gd766 2.570 . S
N793 C794 1.359 . S
N793 C797 1.343 . S
C794 C787 1.422 . S
C794 N793 1.359 . S
C794 C796 1.421 . S
C795 C796 1.422 . S
C795 C798 1.321 . S
C795 H822 0.931 . S
C796 C794 1.421 . S
C796 C795 1.422 . S
C796 C820 1.417 . S
C797 H774 0.931 . S
C797 N793 1.343 . S
C797 C798 1.390 . S
C798 H776 0.930 . S
C798 C795 1.321 . S
C798 C797 1.390 . S
O799 Gd767 2.386 . S
O799 C811 1.265 . S
O800 Gd766 2.353 . S
O800 C811 1.242 . S
O801 Gd766 2.468 . S
O801 C819 1.263 . S
O802 Gd766 2.427 . S
O802 C819 1.252 . S
O803 Gd767 2.307 . S
O803 C812 1.261 . S
O804 Gd766 2.388 . S
O804 C812 1.252 . S
O805 Gd766 2.386 . S
O805 C823 1.265 . S
O806 Gd767 2.353 . S
O806 C823 1.242 . S
O807 Gd767 2.468 . S
O807 C831 1.263 . S
O808 Gd767 2.427 . S
O808 C831 1.252 . S
O809 Gd766 2.307 . S
O809 C824 1.261 . S
O810 Gd767 2.388 . S
O810 C824 1.252 . S
C811 O799 1.265 . S
C811 O800 1.242 . S
C812 O803 1.261 . S
C812 O804 1.252 . S
C813 C816 1.394 . S
C813 C818 1.370 . S
C813 C819 1.500 . S
C814 C817 1.383 . S
C814 C818 1.395 . S
C815 C816 1.396 . S
C815 C817 1.365 . S
C815 H832 0.929 . S
C816 C813 1.394 . S
C816 C815 1.396 . S
C816 H833 0.930 . S
C817 C814 1.383 . S
C817 C815 1.365 . S
C817 H834 0.931 . S
C818 C813 1.370 . S
C818 C814 1.395 . S
C818 H835 0.930 . S
C819 Gd766 2.805 . S
C819 O801 1.263 . S
C819 O802 1.252 . S
C819 C813 1.500 . S
C820 H782 0.930 . S
C820 C796 1.417 . S
C820 C821 1.329 . S
C821 C791 1.437 . S
C821 H792 0.929 . S
C821 C820 1.329 . S
H822 C795 0.931 . S
C823 O805 1.265 . S
C823 O806 1.242 . S
C824 O809 1.261 . S
C824 O810 1.252 . S
C825 C828 1.394 . S
C825 C830 1.370 . S
C825 C831 1.500 . S
C826 C829 1.383 . S
C826 C830 1.395 . S
C827 C828 1.396 . S
C827 C829 1.365 . S
C827 H836 0.929 . S
C828 C825 1.394 . S
C828 C827 1.396 . S
C828 H837 0.930 . S
C829 C826 1.383 . S
C829 C827 1.365 . S
C829 H838 0.931 . S
C830 C825 1.370 . S
C830 C826 1.395 . S
C830 H839 0.930 . S
C831 Gd767 2.805 . S
C831 O807 1.263 . S
C831 O808 1.252 . S
C831 C825 1.500 . S
H832 C815 0.929 . S
H833 C816 0.930 . S
H834 C817 0.931 . S
H835 C818 0.930 . S
H836 C827 0.929 . S
H837 C828 0.930 . S
H838 C829 0.931 . S
H839 C830 0.930 . S
C840 C842 1.375 1_565 S
C840 C844 1.452 . S
C840 N846 1.380 . S
C841 C842 1.421 . S
C841 C843 1.417 . S
C841 C853 1.422 . S
C842 C840 1.375 1_545 S
C842 C841 1.421 . S
C842 N852 1.359 . S
C843 C841 1.417 . S
C843 C845 1.329 1_545 S
C843 H862 0.930 . S
C844 C840 1.452 . S
C844 C845 1.437 . S
C844 C848 1.413 . S
C845 C843 1.329 1_565 S
C845 C844 1.437 . S
C845 H867 0.929 . S
N846 C840 1.380 . S
N846 C847 1.338 . S
N846 Gd851 2.622 1_565 S
C847 N846 1.338 . S
C847 C849 1.378 . S
C847 H859 0.929 . S
C848 C844 1.413 . S
C848 C849 1.348 . S
C848 H864 0.931 . S
C849 C847 1.378 . S
C849 C848 1.348 . S
C849 H865 0.930 . S
Gd850 N870 2.622 . S
Gd850 N877 2.570 . S
Gd850 O884 2.353 1_556 S
Gd850 O885 2.468 . S
Gd850 O886 2.427 . S
Gd850 O888 2.388 1_556 S
Gd850 O889 2.386 1_556 S
Gd850 O893 2.306 1_556 S
Gd850 C903 2.805 . S
Gd851 N846 2.622 1_545 S
Gd851 N852 2.570 . S
Gd851 O883 2.386 . S
Gd851 O887 2.307 . S
Gd851 O890 2.353 . S
Gd851 O891 2.468 . S
Gd851 O892 2.427 1_545 S
Gd851 O894 2.388 1_545 S
Gd851 C915 2.805 . S
N852 C842 1.359 . S
N852 Gd851 2.570 . S
N852 C854 1.343 . S
C853 C841 1.422 . S
C853 C855 1.321 . S
C853 H861 0.931 . S
C854 N852 1.343 . S
C854 C855 1.390 . S
C854 H856 0.931 . S
C855 C853 1.321 . S
C855 C854 1.390 . S
C855 H857 0.930 . S
H856 C854 0.931 . S
H857 C855 0.930 . S
H858 C881 0.950 . S
H859 C847 0.929 . S
H860 C882 0.930 . S
H861 C853 0.931 . S
H862 C843 0.930 . S
H863 C872 0.929 1_554 S
H864 C848 0.931 . S
H865 C849 0.930 . S
H866 C904 0.930 . S
H867 C845 0.929 . S
H868 C873 0.931 . S
H869 C874 0.930 . S
N870 Gd850 2.622 . S
N870 C871 1.369 . S
N870 C872 1.338 . S
C871 N870 1.369 . S
C871 C875 1.415 . S
C871 C878 1.422 . S
C872 H863 0.929 1_556 S
C872 N870 1.338 . S
C872 C874 1.378 . S
C873 H868 0.931 . S
C873 C874 1.348 . S
C873 C875 1.413 . S
C874 H869 0.930 . S
C874 C872 1.378 . S
C874 C873 1.348 . S
C875 C871 1.415 . S
C875 C873 1.413 . S
C875 C905 1.437 . S
H876 C905 0.929 . S
N877 Gd850 2.570 . S
N877 C878 1.359 . S
N877 C881 1.343 . S
C878 C871 1.422 . S
C878 N877 1.359 . S
C878 C880 1.421 . S
C879 C880 1.422 . S
C879 C882 1.321 1_545 S
C879 H906 0.931 1_545 S
C880 C878 1.421 . S
C880 C879 1.422 . S
C880 C904 1.417 . S
C881 H858 0.950 . S
C881 N877 1.343 . S
C881 C882 1.390 1_545 S
C882 H860 0.930 . S
C882 C879 1.321 1_565 S
C882 C881 1.390 1_565 S
O883 Gd851 2.386 . S
O883 C895 1.265 . S
O884 Gd850 2.353 1_554 S
O884 C895 1.242 . S
O885 Gd850 2.468 . S
O885 C903 1.263 . S
O886 Gd850 2.427 . S
O886 C903 1.252 . S
O887 Gd851 2.307 . S
O887 C896 1.261 . S
O888 Gd850 2.388 1_554 S
O888 C896 1.252 . S
O889 Gd850 2.386 1_554 S
O889 C907 1.265 . S
O890 Gd851 2.353 . S
O890 C907 1.242 . S
O891 Gd851 2.468 . S
O891 C915 1.263 . S
O892 Gd851 2.427 1_565 S
O892 C915 1.252 1_565 S
O893 Gd850 2.306 1_554 S
O893 C908 1.264 1_545 S
O894 Gd851 2.388 1_565 S
O894 C908 1.252 . S
C895 O883 1.265 . S
C895 O884 1.242 . S
C896 O887 1.261 . S
C896 O888 1.252 . S
C897 C900 1.394 . S
C897 C902 1.370 . S
C897 C903 1.500 . S
C898 C901 1.383 . S
C898 C902 1.395 . S
C899 C900 1.396 . S
C899 C901 1.365 . S
C899 H916 0.929 . S
C900 C897 1.394 . S
C900 C899 1.396 . S
C900 H917 0.930 . S
C901 C898 1.383 . S
C901 C899 1.365 . S
C901 H918 0.931 . S
C902 C897 1.370 . S
C902 C898 1.395 . S
C902 H919 0.930 . S
C903 Gd850 2.805 . S
C903 O885 1.263 . S
C903 O886 1.252 . S
C903 C897 1.500 . S
C904 H866 0.930 . S
C904 C880 1.417 . S
C904 C905 1.329 . S
C905 C875 1.437 . S
C905 H876 0.929 . S
C905 C904 1.329 . S
H906 C879 0.931 1_565 S
C907 O889 1.265 . S
C907 O890 1.242 . S
C908 O893 1.264 1_565 S
C908 O894 1.252 . S
C909 C912 1.394 . S
C909 C914 1.370 1_565 S
C909 C915 1.500 1_565 S
C910 C913 1.383 1_545 S
C910 C914 1.395 . S
C911 C912 1.396 . S
C911 C913 1.365 . S
C911 H920 0.929 . S
C912 C909 1.394 . S
C912 C911 1.396 . S
C912 H921 0.930 . S
C913 C910 1.383 1_565 S
C913 C911 1.365 . S
C913 H922 0.931 . S
C914 C909 1.370 1_545 S
C914 C910 1.395 . S
C914 H923 0.930 . S
C915 Gd851 2.805 . S
C915 O891 1.263 . S
C915 O892 1.252 1_545 S
C915 C909 1.500 1_545 S
H916 C899 0.929 . S
H917 C900 0.930 . S
H918 C901 0.931 . S
H919 C902 0.930 . S
H920 C911 0.929 . S
H921 C912 0.930 . S
H922 C913 0.931 . S
H923 C914 0.930 . S
C924 C926 1.422 . S
C924 C928 1.415 . S
C924 N930 1.369 . S
C925 C926 1.421 . S
C925 C927 1.417 . S
C925 C937 1.422 . S
C926 C924 1.422 . S
C926 C925 1.421 . S
C926 N936 1.359 . S
C927 C925 1.417 . S
C927 C929 1.329 . S
C927 H946 0.930 . S
C928 C924 1.415 . S
C928 C929 1.437 . S
C928 C932 1.413 . S
C929 C927 1.329 . S
C929 C928 1.437 . S
C929 H951 0.929 . S
N930 C924 1.369 . S
N930 C931 1.338 . S
N930 Gd935 2.622 . S
C931 N930 1.338 . S
C931 C933 1.378 . S
C931 H943 0.929 . S
C932 C928 1.413 . S
C932 C933 1.348 . S
C932 H948 0.931 . S
C933 C931 1.378 . S
C933 C932 1.348 . S
C933 H949 0.930 . S
Gd934 N954 2.622 . S
Gd934 N961 2.570 . S
Gd934 O968 2.353 . S
Gd934 O969 2.468 . S
Gd934 O970 2.427 . S
Gd934 O972 2.388 . S
Gd934 O973 2.386 . S
Gd934 O977 2.307 . S
Gd934 C987 2.805 . S
Gd935 N930 2.622 . S
Gd935 N936 2.570 . S
Gd935 O967 2.386 . S
Gd935 O971 2.307 . S
Gd935 O974 2.353 . S
Gd935 O975 2.468 . S
Gd935 O976 2.427 . S
Gd935 O978 2.388 . S
Gd935 C999 2.805 . S
N936 C926 1.359 . S
N936 Gd935 2.570 . S
N936 C938 1.343 . S
C937 C925 1.422 . S
C937 C939 1.321 . S
C937 H945 0.931 . S
C938 N936 1.343 . S
C938 C939 1.390 . S
C938 H940 0.931 . S
C939 C937 1.321 . S
C939 C938 1.390 . S
C939 H941 0.930 . S
H940 C938 0.931 . S
H941 C939 0.930 . S
H942 C965 0.931 . S
H943 C931 0.929 . S
H944 C966 0.930 . S
H945 C937 0.931 . S
H946 C927 0.930 . S
H947 C956 0.929 . S
H948 C932 0.931 . S
H949 C933 0.930 . S
H950 C988 0.930 . S
H951 C929 0.929 . S
H952 C957 0.931 . S
H953 C958 0.930 . S
N954 Gd934 2.622 . S
N954 C955 1.369 . S
N954 C956 1.338 . S
C955 N954 1.369 . S
C955 C959 1.415 . S
C955 C962 1.422 . S
C956 H947 0.929 . S
C956 N954 1.338 . S
C956 C958 1.378 . S
C957 H952 0.931 . S
C957 C958 1.348 . S
C957 C959 1.413 . S
C958 H953 0.930 . S
C958 C956 1.378 . S
C958 C957 1.348 . S
C959 C955 1.415 . S
C959 C957 1.413 . S
C959 C989 1.437 . S
H960 C989 0.929 . S
N961 Gd934 2.570 . S
N961 C962 1.359 . S
N961 C965 1.343 . S
C962 C955 1.422 . S
C962 N961 1.359 . S
C962 C964 1.421 . S
C963 C964 1.422 . S
C963 C966 1.321 . S
C963 H990 0.931 . S
C964 C962 1.421 . S
C964 C963 1.422 . S
C964 C988 1.417 . S
C965 H942 0.931 . S
C965 N961 1.343 . S
C965 C966 1.390 . S
C966 H944 0.930 . S
C966 C963 1.321 . S
C966 C965 1.390 . S
O967 Gd935 2.386 . S
O967 C979 1.265 . S
O968 Gd934 2.353 . S
O968 C979 1.242 . S
O969 Gd934 2.468 . S
O969 C987 1.263 . S
O970 Gd934 2.427 . S
O970 C987 1.252 . S
O971 Gd935 2.307 . S
O971 C980 1.261 . S
O972 Gd934 2.388 . S
O972 C980 1.252 . S
O973 Gd934 2.386 . S
O973 C991 1.265 . S
O974 Gd935 2.353 . S
O974 C991 1.242 . S
O975 Gd935 2.468 . S
O975 C999 1.263 . S
O976 Gd935 2.427 . S
O976 C999 1.252 . S
O977 Gd934 2.307 . S
O977 C992 1.261 . S
O978 Gd935 2.388 . S
O978 C992 1.252 . S
C979 O967 1.265 . S
C979 O968 1.242 . S
C980 O971 1.261 . S
C980 O972 1.252 . S
C981 C984 1.394 . S
C981 C986 1.370 . S
C981 C987 1.500 . S
C982 C985 1.383 . S
C982 C986 1.395 . S
C983 C984 1.396 . S
C983 C985 1.365 . S
C983 H1000 0.929 . S
C984 C981 1.394 . S
C984 C983 1.396 . S
C984 H1001 0.930 . S
C985 C982 1.383 . S
C985 C983 1.365 . S
C985 H1002 0.931 . S
C986 C981 1.370 . S
C986 C982 1.395 . S
C986 H1003 0.930 . S
C987 Gd934 2.805 . S
C987 O969 1.263 . S
C987 O970 1.252 . S
C987 C981 1.500 . S
C988 H950 0.930 . S
C988 C964 1.417 . S
C988 C989 1.329 . S
C989 C959 1.437 . S
C989 H960 0.929 . S
C989 C988 1.329 . S
H990 C963 0.931 . S
C991 O973 1.265 . S
C991 O974 1.242 . S
C992 O977 1.261 . S
C992 O978 1.252 . S
C993 C996 1.394 . S
C993 C998 1.370 . S
C993 C999 1.500 . S
C994 C997 1.383 . S
C994 C998 1.395 . S
C995 C996 1.396 . S
C995 C997 1.365 . S
C995 H1004 0.929 . S
C996 C993 1.394 . S
C996 C995 1.396 . S
C996 H1005 0.930 . S
C997 C994 1.383 . S
C997 C995 1.365 . S
C997 H1006 0.931 . S
C998 C993 1.370 . S
C998 C994 1.395 . S
C998 H1007 0.930 . S
C999 Gd935 2.805 . S
C999 O975 1.263 . S
C999 O976 1.252 . S
C999 C993 1.500 . S
H1000 C983 0.929 . S
H1001 C984 0.930 . S
H1002 C985 0.931 . S
H1003 C986 0.930 . S
H1004 C995 0.929 . S
H1005 C996 0.930 . S
H1006 C997 0.931 . S
H1007 C998 0.930 . S
C1008 C1010 1.422 . S
C1008 C1012 1.415 . S
C1008 N1014 1.369 . S
C1009 C1010 1.421 . S
C1009 C1011 1.417 . S
C1009 C1021 1.422 . S
C1010 C1008 1.422 . S
C1010 C1009 1.421 . S
C1010 N1020 1.359 . S
C1011 C1009 1.417 . S
C1011 C1013 1.329 . S
C1011 H1030 0.930 . S
C1012 C1008 1.415 . S
C1012 C1013 1.437 . S
C1012 C1016 1.413 . S
C1013 C1011 1.329 . S
C1013 C1012 1.437 . S
C1013 H1035 0.929 . S
N1014 C1008 1.369 . S
N1014 C1015 1.338 . S
N1014 Gd1019 2.622 . S
C1015 N1014 1.338 . S
C1015 C1017 1.378 . S
C1015 H1027 0.929 . S
C1016 C1012 1.413 . S
C1016 C1017 1.348 . S
C1016 H1032 0.931 . S
C1017 C1015 1.378 . S
C1017 C1016 1.348 . S
C1017 H1033 0.930 . S
Gd1018 N1038 2.622 1_554 S
Gd1018 N1045 2.570 1_554 S
Gd1018 O1052 2.353 . S
Gd1018 O1053 2.468 . S
Gd1018 O1054 2.427 . S
Gd1018 O1056 2.388 . S
Gd1018 O1057 2.386 1_554 S
Gd1018 O1061 2.307 . S
Gd1018 C1071 2.805 . S
Gd1019 N1014 2.622 . S
Gd1019 N1020 2.570 . S
Gd1019 O1051 2.386 . S
Gd1019 O1055 2.307 . S
Gd1019 O1058 2.353 1_554 S
Gd1019 O1059 2.468 . S
Gd1019 O1060 2.427 . S
Gd1019 O1062 2.388 . S
Gd1019 C1083 2.805 . S
N1020 C1010 1.359 . S
N1020 Gd1019 2.570 . S
N1020 C1022 1.343 . S
C1021 C1009 1.422 . S
C1021 C1023 1.321 . S
C1021 H1029 0.931 . S
C1022 N1020 1.343 . S
C1022 C1023 1.390 . S
C1022 H1024 0.931 . S
C1023 C1021 1.321 . S
C1023 C1022 1.390 . S
C1023 H1025 0.930 . S
H1024 C1022 0.931 . S
H1025 C1023 0.930 . S
H1026 C1049 0.931 1_554 S
H1027 C1015 0.929 . S
H1028 C1050 0.930 . S
H1029 C1021 0.931 . S
H1030 C1011 0.930 . S
H1031 C1040 0.929 1_554 S
H1032 C1016 0.931 . S
H1033 C1017 0.930 . S
H1034 C1072 0.930 . S
H1035 C1013 0.929 . S
H1036 C1041 0.931 . S
H1037 C1042 0.930 . S
N1038 Gd1018 2.622 1_556 S
N1038 C1039 1.369 . S
N1038 C1040 1.338 . S
C1039 N1038 1.369 . S
C1039 C1043 1.415 . S
C1039 C1046 1.422 . S
C1040 H1031 0.929 1_556 S
C1040 N1038 1.338 . S
C1040 C1042 1.378 . S
C1041 H1036 0.931 . S
C1041 C1042 1.348 . S
C1041 C1043 1.413 . S
C1042 H1037 0.930 . S
C1042 C1040 1.378 . S
C1042 C1041 1.348 . S
C1043 C1039 1.415 . S
C1043 C1041 1.413 . S
C1043 C1073 1.437 . S
H1044 C1073 0.929 . S
N1045 Gd1018 2.570 1_556 S
N1045 C1046 1.359 . S
N1045 C1049 1.343 . S
C1046 C1039 1.422 . S
C1046 N1045 1.359 . S
C1046 C1048 1.421 . S
C1047 C1048 1.422 . S
C1047 C1050 1.321 . S
C1047 H1074 0.931 . S
C1048 C1046 1.421 . S
C1048 C1047 1.422 . S
C1048 C1072 1.417 . S
C1049 H1026 0.931 1_556 S
C1049 N1045 1.343 . S
C1049 C1050 1.390 . S
C1050 H1028 0.930 . S
C1050 C1047 1.321 . S
C1050 C1049 1.390 . S
O1051 Gd1019 2.386 . S
O1051 C1063 1.265 . S
O1052 Gd1018 2.353 . S
O1052 C1063 1.242 . S
O1053 Gd1018 2.468 . S
O1053 C1071 1.263 . S
O1054 Gd1018 2.427 . S
O1054 C1071 1.252 . S
O1055 Gd1019 2.307 . S
O1055 C1064 1.261 . S
O1056 Gd1018 2.388 . S
O1056 C1064 1.252 . S
O1057 Gd1018 2.386 1_556 S
O1057 C1075 1.265 . S
O1058 Gd1019 2.353 1_556 S
O1058 C1075 1.242 . S
O1059 Gd1019 2.468 . S
O1059 C1083 1.263 . S
O1060 Gd1019 2.427 . S
O1060 C1083 1.252 . S
O1061 Gd1018 2.307 . S
O1061 C1076 1.261 . S
O1062 Gd1019 2.388 . S
O1062 C1076 1.252 . S
C1063 O1051 1.265 . S
C1063 O1052 1.242 . S
C1064 O1055 1.261 . S
C1064 O1056 1.252 . S
C1065 C1068 1.394 . S
C1065 C1070 1.370 . S
C1065 C1071 1.500 . S
C1066 C1069 1.383 . S
C1066 C1070 1.395 . S
C1067 C1068 1.396 . S
C1067 C1069 1.365 . S
C1067 H1084 0.929 . S
C1068 C1065 1.394 . S
C1068 C1067 1.396 . S
C1068 H1085 0.930 . S
C1069 C1066 1.383 . S
C1069 C1067 1.365 . S
C1069 H1086 0.931 . S
C1070 C1065 1.370 . S
C1070 C1066 1.395 . S
C1070 H1087 0.930 . S
C1071 Gd1018 2.805 . S
C1071 O1053 1.263 . S
C1071 O1054 1.252 . S
C1071 C1065 1.500 . S
C1072 H1034 0.930 . S
C1072 C1048 1.417 . S
C1072 C1073 1.329 . S
C1073 C1043 1.437 . S
C1073 H1044 0.929 . S
C1073 C1072 1.329 . S
H1074 C1047 0.931 . S
C1075 O1057 1.265 . S
C1075 O1058 1.242 . S
C1076 O1061 1.261 . S
C1076 O1062 1.252 . S
C1077 C1080 1.394 . S
C1077 C1082 1.370 . S
C1077 C1083 1.500 1_556 S
C1078 C1081 1.383 . S
C1078 C1082 1.395 . S
C1079 C1080 1.396 . S
C1079 C1081 1.365 . S
C1079 H1088 0.929 . S
C1080 C1077 1.394 . S
C1080 C1079 1.396 . S
C1080 H1089 0.933 . S
C1081 C1078 1.383 . S
C1081 C1079 1.365 . S
C1081 H1090 0.931 . S
C1082 C1077 1.370 . S
C1082 C1078 1.395 . S
C1082 H1091 0.930 . S
C1083 Gd1019 2.805 . S
C1083 O1059 1.263 . S
C1083 O1060 1.252 . S
C1083 C1077 1.500 1_554 S
H1084 C1067 0.929 . S
H1085 C1068 0.930 . S
H1086 C1069 0.931 . S
H1087 C1070 0.930 . S
H1088 C1079 0.929 . S
H1089 C1080 0.933 . S
H1090 C1081 0.931 . S
H1091 C1082 0.930 . S
C1092 C1094 1.422 . S
C1092 C1096 1.415 . S
C1092 N1098 1.369 . S
C1093 C1094 1.421 . S
C1093 C1095 1.417 . S
C1093 C1105 1.422 . S
C1094 C1092 1.422 . S
C1094 C1093 1.421 . S
C1094 N1104 1.359 . S
C1095 C1093 1.417 . S
C1095 C1097 1.329 . S
C1095 H1114 0.930 . S
C1096 C1092 1.415 . S
C1096 C1097 1.437 . S
C1096 C1100 1.413 . S
C1097 C1095 1.329 . S
C1097 C1096 1.437 . S
C1097 H1119 0.929 . S
N1098 C1092 1.369 . S
N1098 C1099 1.338 . S
N1098 Gd1103 2.622 . S
C1099 N1098 1.338 . S
C1099 C1101 1.378 . S
C1099 H1111 0.929 . S
C1100 C1096 1.413 . S
C1100 C1101 1.348 . S
C1100 H1116 0.931 . S
C1101 C1099 1.378 . S
C1101 C1100 1.348 . S
C1101 H1117 0.930 . S
Gd1102 N1122 2.622 . S
Gd1102 N1129 2.570 . S
Gd1102 O1136 2.353 . S
Gd1102 O1137 2.468 . S
Gd1102 O1138 2.427 . S
Gd1102 O1140 2.388 . S
Gd1102 O1141 2.386 . S
Gd1102 O1145 2.307 . S
Gd1102 C1155 2.805 . S
Gd1103 N1098 2.622 . S
Gd1103 N1104 2.570 . S
Gd1103 O1135 2.386 . S
Gd1103 O1139 2.307 . S
Gd1103 O1142 2.353 . S
Gd1103 O1143 2.468 . S
Gd1103 O1144 2.427 . S
Gd1103 O1146 2.388 . S
Gd1103 C1167 2.805 . S
N1104 C1094 1.359 . S
N1104 Gd1103 2.570 . S
N1104 C1106 1.343 . S
C1105 C1093 1.422 . S
C1105 C1107 1.321 . S
C1105 H1113 0.931 . S
C1106 N1104 1.343 . S
C1106 C1107 1.390 . S
C1106 H1108 0.931 . S
C1107 C1105 1.321 . S
C1107 C1106 1.390 . S
C1107 H1109 0.930 . S
H1108 C1106 0.931 . S
H1109 C1107 0.930 . S
H1110 C1133 0.931 . S
H1111 C1099 0.929 . S
H1112 C1134 0.930 . S
H1113 C1105 0.931 . S
H1114 C1095 0.930 . S
H1115 C1124 0.929 . S
H1116 C1100 0.931 . S
H1117 C1101 0.930 . S
H1118 C1156 0.930 . S
H1119 C1097 0.929 . S
H1120 C1125 0.931 . S
H1121 C1126 0.930 . S
N1122 Gd1102 2.622 . S
N1122 C1123 1.369 . S
N1122 C1124 1.338 . S
C1123 N1122 1.369 . S
C1123 C1127 1.415 . S
C1123 C1130 1.422 . S
C1124 H1115 0.929 . S
C1124 N1122 1.338 . S
C1124 C1126 1.378 . S
C1125 H1120 0.931 . S
C1125 C1126 1.348 . S
C1125 C1127 1.413 . S
C1126 H1121 0.930 . S
C1126 C1124 1.378 . S
C1126 C1125 1.348 . S
C1127 C1123 1.415 . S
C1127 C1125 1.413 . S
C1127 C1157 1.437 . S
H1128 C1157 0.929 . S
N1129 Gd1102 2.570 . S
N1129 C1130 1.359 . S
N1129 C1133 1.343 . S
C1130 C1123 1.422 . S
C1130 N1129 1.359 . S
C1130 C1132 1.421 . S
C1131 C1132 1.422 . S
C1131 C1134 1.321 . S
C1131 H1158 0.931 . S
C1132 C1130 1.421 . S
C1132 C1131 1.422 . S
C1132 C1156 1.417 . S
C1133 H1110 0.931 . S
C1133 N1129 1.343 . S
C1133 C1134 1.390 . S
C1134 H1112 0.930 . S
C1134 C1131 1.321 . S
C1134 C1133 1.390 . S
O1135 Gd1103 2.386 . S
O1135 C1147 1.265 . S
O1136 Gd1102 2.353 . S
O1136 C1147 1.242 . S
O1137 Gd1102 2.468 . S
O1137 C1155 1.263 . S
O1138 Gd1102 2.427 . S
O1138 C1155 1.252 . S
O1139 Gd1103 2.307 . S
O1139 C1148 1.261 . S
O1140 Gd1102 2.388 . S
O1140 C1148 1.252 . S
O1141 Gd1102 2.386 . S
O1141 C1159 1.265 . S
O1142 Gd1103 2.353 . S
O1142 C1159 1.242 . S
O1143 Gd1103 2.468 . S
O1143 C1167 1.263 . S
O1144 Gd1103 2.427 . S
O1144 C1167 1.252 . S
O1145 Gd1102 2.307 . S
O1145 C1160 1.261 . S
O1146 Gd1103 2.388 . S
O1146 C1160 1.252 . S
C1147 O1135 1.265 . S
C1147 O1136 1.242 . S
C1148 O1139 1.261 . S
C1148 O1140 1.252 . S
C1149 C1152 1.394 . S
C1149 C1154 1.370 . S
C1149 C1155 1.500 . S
C1150 C1153 1.383 . S
C1150 C1154 1.395 . S
C1151 C1152 1.396 . S
C1151 C1153 1.365 . S
C1151 H1168 0.929 . S
C1152 C1149 1.394 . S
C1152 C1151 1.396 . S
C1152 H1169 0.930 . S
C1153 C1150 1.383 . S
C1153 C1151 1.365 . S
C1153 H1170 0.931 . S
C1154 C1149 1.370 . S
C1154 C1150 1.395 . S
C1154 H1171 0.930 . S
C1155 Gd1102 2.805 . S
C1155 O1137 1.263 . S
C1155 O1138 1.252 . S
C1155 C1149 1.500 . S
C1156 H1118 0.930 . S
C1156 C1132 1.417 . S
C1156 C1157 1.329 . S
C1157 C1127 1.437 . S
C1157 H1128 0.929 . S
C1157 C1156 1.329 . S
H1158 C1131 0.931 . S
C1159 O1141 1.265 . S
C1159 O1142 1.242 . S
C1160 O1145 1.261 . S
C1160 O1146 1.252 . S
C1161 C1164 1.394 . S
C1161 C1166 1.370 . S
C1161 C1167 1.500 . S
C1162 C1165 1.383 . S
C1162 C1166 1.395 . S
C1163 C1164 1.396 . S
C1163 C1165 1.365 . S
C1163 H1172 0.929 . S
C1164 C1161 1.394 . S
C1164 C1163 1.396 . S
C1164 H1173 0.930 . S
C1165 C1162 1.383 . S
C1165 C1163 1.365 . S
C1165 H1174 0.931 . S
C1166 C1161 1.370 . S
C1166 C1162 1.395 . S
C1166 H1175 0.930 . S
C1167 Gd1103 2.805 . S
C1167 O1143 1.263 . S
C1167 O1144 1.252 . S
C1167 C1161 1.500 . S
H1168 C1151 0.929 . S
H1169 C1152 0.930 . S
H1170 C1153 0.931 . S
H1171 C1154 0.930 . S
H1172 C1163 0.929 . S
H1173 C1164 0.930 . S
H1174 C1165 0.931 . S
H1175 C1166 0.930 . S
C1176 C1178 1.422 . S
C1176 C1180 1.415 . S
C1176 N1182 1.369 . S
C1177 C1178 1.421 . S
C1177 C1179 1.417 . S
C1177 C1189 1.422 . S
C1178 C1176 1.422 . S
C1178 C1177 1.421 . S
C1178 N1188 1.359 . S
C1179 C1177 1.417 . S
C1179 C1181 1.329 . S
C1179 H1198 0.930 . S
C1180 C1176 1.415 . S
C1180 C1181 1.437 . S
C1180 C1184 1.413 . S
C1181 C1179 1.329 . S
C1181 C1180 1.437 . S
C1181 H1203 0.929 . S
N1182 C1176 1.369 . S
N1182 C1183 1.338 . S
N1182 Gd1187 2.622 . S
C1183 N1182 1.338 . S
C1183 C1185 1.378 . S
C1183 H1195 0.929 . S
C1184 C1180 1.413 . S
C1184 C1185 1.348 . S
C1184 H1200 0.931 . S
C1185 C1183 1.378 . S
C1185 C1184 1.348 . S
C1185 H1201 0.930 . S
Gd1186 N1206 2.622 1_455 S
Gd1186 N1213 2.570 1_455 S
Gd1186 O1220 2.353 . S
Gd1186 O1221 2.468 . S
Gd1186 O1222 2.427 . S
Gd1186 O1224 2.388 . S
Gd1186 O1225 2.386 1_455 S
Gd1186 O1229 2.307 . S
Gd1186 C1239 2.805 . S
Gd1187 N1182 2.622 . S
Gd1187 N1188 2.570 . S
Gd1187 O1219 2.386 . S
Gd1187 O1223 2.307 . S
Gd1187 O1226 2.353 1_455 S
Gd1187 O1227 2.468 . S
Gd1187 O1228 2.427 . S
Gd1187 O1230 2.388 . S
Gd1187 C1251 2.805 . S
N1188 C1178 1.359 . S
N1188 Gd1187 2.570 . S
N1188 C1190 1.343 . S
C1189 C1177 1.422 . S
C1189 C1191 1.321 . S
C1189 H1197 0.931 . S
C1190 N1188 1.343 . S
C1190 C1191 1.390 . S
C1190 H1192 0.931 . S
C1191 C1189 1.321 . S
C1191 C1190 1.390 . S
C1191 H1193 0.930 . S
H1192 C1190 0.931 . S
H1193 C1191 0.930 . S
H1194 C1217 0.931 1_455 S
H1195 C1183 0.929 . S
H1196 C1218 0.930 . S
H1197 C1189 0.931 . S
H1198 C1179 0.930 . S
H1199 C1208 0.929 1_455 S
H1200 C1184 0.931 . S
H1201 C1185 0.930 . S
H1202 C1240 0.930 . S
H1203 C1181 0.929 . S
H1204 C1209 0.931 . S
H1205 C1210 0.930 . S
N1206 Gd1186 2.622 1_655 S
N1206 C1207 1.369 . S
N1206 C1208 1.338 . S
C1207 N1206 1.369 . S
C1207 C1211 1.415 . S
C1207 C1214 1.422 . S
C1208 H1199 0.929 1_655 S
C1208 N1206 1.338 . S
C1208 C1210 1.378 . S
C1209 H1204 0.931 . S
C1209 C1210 1.348 . S
C1209 C1211 1.413 . S
C1210 H1205 0.930 . S
C1210 C1208 1.378 . S
C1210 C1209 1.348 . S
C1211 C1207 1.415 . S
C1211 C1209 1.413 . S
C1211 C1241 1.437 . S
H1212 C1241 0.929 . S
N1213 Gd1186 2.570 1_655 S
N1213 C1214 1.359 . S
N1213 C1217 1.343 . S
C1214 C1207 1.422 . S
C1214 N1213 1.359 . S
C1214 C1216 1.421 . S
C1215 C1216 1.422 . S
C1215 C1218 1.321 . S
C1215 H1242 0.931 . S
C1216 C1214 1.421 . S
C1216 C1215 1.422 . S
C1216 C1240 1.417 . S
C1217 H1194 0.931 1_655 S
C1217 N1213 1.343 . S
C1217 C1218 1.390 . S
C1218 H1196 0.930 . S
C1218 C1215 1.321 . S
C1218 C1217 1.390 . S
O1219 Gd1187 2.386 . S
O1219 C1231 1.265 . S
O1220 Gd1186 2.353 . S
O1220 C1231 1.242 . S
O1221 Gd1186 2.468 . S
O1221 C1239 1.263 . S
O1222 Gd1186 2.427 . S
O1222 C1239 1.252 . S
O1223 Gd1187 2.307 . S
O1223 C1232 1.261 . S
O1224 Gd1186 2.388 . S
O1224 C1232 1.252 . S
O1225 Gd1186 2.386 1_655 S
O1225 C1243 1.265 . S
O1226 Gd1187 2.353 1_655 S
O1226 C1243 1.242 . S
O1227 Gd1187 2.468 . S
O1227 C1251 1.263 . S
O1228 Gd1187 2.427 . S
O1228 C1251 1.252 . S
O1229 Gd1186 2.307 . S
O1229 C1244 1.261 . S
O1230 Gd1187 2.388 . S
O1230 C1244 1.252 . S
C1231 O1219 1.265 . S
C1231 O1220 1.242 . S
C1232 O1223 1.261 . S
C1232 O1224 1.252 . S
C1233 C1236 1.394 . S
C1233 C1238 1.370 . S
C1233 C1239 1.500 . S
C1234 C1237 1.383 . S
C1234 C1238 1.395 . S
C1235 C1236 1.396 . S
C1235 C1237 1.365 . S
C1235 H1252 0.929 . S
C1236 C1233 1.394 . S
C1236 C1235 1.396 . S
C1236 H1253 0.930 . S
C1237 C1234 1.383 . S
C1237 C1235 1.365 . S
C1237 H1254 0.931 . S
C1238 C1233 1.370 . S
C1238 C1234 1.395 . S
C1238 H1255 0.930 . S
C1239 Gd1186 2.805 . S
C1239 O1221 1.263 . S
C1239 O1222 1.252 . S
C1239 C1233 1.500 . S
C1240 H1202 0.930 . S
C1240 C1216 1.417 . S
C1240 C1241 1.329 . S
C1241 C1211 1.437 . S
C1241 H1212 0.929 . S
C1241 C1240 1.329 . S
H1242 C1215 0.931 . S
C1243 O1225 1.265 . S
C1243 O1226 1.242 . S
C1244 O1229 1.261 . S
C1244 O1230 1.252 . S
C1245 C1248 1.394 . S
C1245 C1250 1.370 . S
C1245 C1251 1.500 1_655 S
C1246 C1249 1.383 . S
C1246 C1250 1.395 . S
C1247 C1248 1.396 . S
C1247 C1249 1.365 . S
C1247 H1256 0.929 . S
C1248 C1245 1.394 . S
C1248 C1247 1.396 . S
C1248 H1257 0.930 . S
C1249 C1246 1.383 . S
C1249 C1247 1.365 . S
C1249 H1258 0.931 . S
C1250 C1245 1.370 . S
C1250 C1246 1.395 . S
C1250 H1259 0.930 . S
C1251 Gd1187 2.805 . S
C1251 O1227 1.263 . S
C1251 O1228 1.252 . S
C1251 C1245 1.500 1_455 S
H1252 C1235 0.929 . S
H1253 C1236 0.930 . S
H1254 C1237 0.931 . S
H1255 C1238 0.930 . S
H1256 C1247 0.929 . S
H1257 C1248 0.930 . S
H1258 C1249 0.931 . S
H1259 C1250 0.930 . S
C1260 C1262 1.422 . S
C1260 C1264 1.415 . S
C1260 N1266 1.369 . S
C1261 C1262 1.421 . S
C1261 C1263 1.417 . S
C1261 C1273 1.422 . S
C1262 C1260 1.422 . S
C1262 C1261 1.421 . S
C1262 N1272 1.359 . S
C1263 C1261 1.417 . S
C1263 C1265 1.329 . S
C1263 H1282 0.930 . S
C1264 C1260 1.415 . S
C1264 C1265 1.437 . S
C1264 C1268 1.413 . S
C1265 C1263 1.329 . S
C1265 C1264 1.437 . S
C1265 H1287 0.929 . S
N1266 C1260 1.369 . S
N1266 C1267 1.338 . S
N1266 Gd1271 2.622 . S
C1267 N1266 1.338 . S
C1267 C1269 1.378 . S
C1267 H1279 0.929 . S
C1268 C1264 1.413 . S
C1268 C1269 1.348 . S
C1268 H1284 0.931 . S
C1269 C1267 1.378 . S
C1269 C1268 1.348 . S
C1269 H1285 0.930 . S
Gd1270 N1290 2.622 . S
Gd1270 N1297 2.570 . S
Gd1270 O1304 2.353 . S
Gd1270 O1305 2.468 . S
Gd1270 O1306 2.427 . S
Gd1270 O1308 2.388 . S
Gd1270 O1309 2.386 . S
Gd1270 O1313 2.307 . S
Gd1270 C1323 2.805 . S
Gd1271 N1266 2.622 . S
Gd1271 N1272 2.570 . S
Gd1271 O1303 2.386 . S
Gd1271 O1307 2.307 . S
Gd1271 O1310 2.353 . S
Gd1271 O1311 2.468 . S
Gd1271 O1312 2.427 . S
Gd1271 O1314 2.388 . S
Gd1271 C1335 2.805 . S
N1272 C1262 1.359 . S
N1272 Gd1271 2.570 . S
N1272 C1274 1.343 . S
C1273 C1261 1.422 . S
C1273 C1275 1.321 . S
C1273 H1281 0.931 . S
C1274 N1272 1.343 . S
C1274 C1275 1.390 . S
C1274 H1276 0.931 . S
C1275 C1273 1.321 . S
C1275 C1274 1.390 . S
C1275 H1277 0.930 . S
H1276 C1274 0.931 . S
H1277 C1275 0.930 . S
H1278 C1301 0.931 . S
H1279 C1267 0.929 . S
H1280 C1302 0.930 . S
H1281 C1273 0.931 . S
H1282 C1263 0.930 . S
H1283 C1292 0.929 . S
H1284 C1268 0.931 . S
H1285 C1269 0.930 . S
H1286 C1324 0.930 . S
H1287 C1265 0.929 . S
H1288 C1293 0.931 . S
H1289 C1294 0.930 . S
N1290 Gd1270 2.622 . S
N1290 C1291 1.369 . S
N1290 C1292 1.338 . S
C1291 N1290 1.369 . S
C1291 C1295 1.415 . S
C1291 C1298 1.422 . S
C1292 H1283 0.929 . S
C1292 N1290 1.338 . S
C1292 C1294 1.378 . S
C1293 H1288 0.931 . S
C1293 C1294 1.348 . S
C1293 C1295 1.413 . S
C1294 H1289 0.930 . S
C1294 C1292 1.378 . S
C1294 C1293 1.348 . S
C1295 C1291 1.415 . S
C1295 C1293 1.413 . S
C1295 C1325 1.437 . S
H1296 C1325 0.929 . S
N1297 Gd1270 2.570 . S
N1297 C1298 1.359 . S
N1297 C1301 1.343 . S
C1298 C1291 1.422 . S
C1298 N1297 1.359 . S
C1298 C1300 1.421 . S
C1299 C1300 1.422 . S
C1299 C1302 1.321 . S
C1299 H1326 0.931 . S
C1300 C1298 1.421 . S
C1300 C1299 1.422 . S
C1300 C1324 1.417 . S
C1301 H1278 0.931 . S
C1301 N1297 1.343 . S
C1301 C1302 1.390 . S
C1302 H1280 0.930 . S
C1302 C1299 1.321 . S
C1302 C1301 1.390 . S
O1303 Gd1271 2.386 . S
O1303 C1315 1.265 . S
O1304 Gd1270 2.353 . S
O1304 C1315 1.242 . S
O1305 Gd1270 2.468 . S
O1305 C1323 1.263 . S
O1306 Gd1270 2.427 . S
O1306 C1323 1.252 . S
O1307 Gd1271 2.307 . S
O1307 C1316 1.261 . S
O1308 Gd1270 2.388 . S
O1308 C1316 1.252 . S
O1309 Gd1270 2.386 . S
O1309 C1327 1.265 . S
O1310 Gd1271 2.353 . S
O1310 C1327 1.242 . S
O1311 Gd1271 2.468 . S
O1311 C1335 1.263 . S
O1312 Gd1271 2.427 . S
O1312 C1335 1.252 . S
O1313 Gd1270 2.307 . S
O1313 C1328 1.261 . S
O1314 Gd1271 2.388 . S
O1314 C1328 1.252 . S
C1315 O1303 1.265 . S
C1315 O1304 1.242 . S
C1316 O1307 1.261 . S
C1316 O1308 1.252 . S
C1317 C1320 1.394 . S
C1317 C1322 1.370 . S
C1317 C1323 1.500 . S
C1318 C1321 1.383 . S
C1318 C1322 1.395 . S
C1319 C1320 1.396 . S
C1319 C1321 1.365 . S
C1319 H1336 0.929 . S
C1320 C1317 1.394 . S
C1320 C1319 1.396 . S
C1320 H1337 0.930 . S
C1321 C1318 1.383 . S
C1321 C1319 1.365 . S
C1321 H1338 0.931 . S
C1322 C1317 1.370 . S
C1322 C1318 1.395 . S
C1322 H1339 0.930 . S
C1323 Gd1270 2.805 . S
C1323 O1305 1.263 . S
C1323 O1306 1.252 . S
C1323 C1317 1.500 . S
C1324 H1286 0.930 . S
C1324 C1300 1.417 . S
C1324 C1325 1.329 . S
C1325 C1295 1.437 . S
C1325 H1296 0.929 . S
C1325 C1324 1.329 . S
H1326 C1299 0.931 . S
C1327 O1309 1.265 . S
C1327 O1310 1.242 . S
C1328 O1313 1.261 . S
C1328 O1314 1.252 . S
C1329 C1332 1.394 . S
C1329 C1334 1.370 . S
C1329 C1335 1.500 . S
C1330 C1333 1.383 . S
C1330 C1334 1.395 . S
C1331 C1332 1.396 . S
C1331 C1333 1.365 . S
C1331 H1340 0.929 . S
C1332 C1329 1.394 . S
C1332 C1331 1.396 . S
C1332 H1341 0.930 . S
C1333 C1330 1.383 . S
C1333 C1331 1.365 . S
C1333 H1342 0.931 . S
C1334 C1329 1.370 . S
C1334 C1330 1.395 . S
C1334 H1343 0.930 . S
C1335 Gd1271 2.805 . S
C1335 O1311 1.263 . S
C1335 O1312 1.252 . S
C1335 C1329 1.500 . S
H1336 C1319 0.929 . S
H1337 C1320 0.930 . S
H1338 C1321 0.931 . S
H1339 C1322 0.930 . S
H1340 C1331 0.929 . S
H1341 C1332 0.930 . S
H1342 C1333 0.931 . S
H1343 C1334 0.930 . S
C1344 C1346 1.422 . S
C1344 C1348 1.415 . S
C1344 N1350 1.369 . S
C1345 C1346 1.421 . S
C1345 C1347 1.417 . S
C1345 C1357 1.422 . S
C1346 C1344 1.422 . S
C1346 C1345 1.421 . S
C1346 N1356 1.359 . S
C1347 C1345 1.417 . S
C1347 C1349 1.329 . S
C1347 H1366 0.930 . S
C1348 C1344 1.415 . S
C1348 C1349 1.437 . S
C1348 C1352 1.413 . S
C1349 C1347 1.329 . S
C1349 C1348 1.437 . S
C1349 H1371 0.929 . S
N1350 C1344 1.369 . S
N1350 C1351 1.338 . S
N1350 Gd1355 2.622 . S
C1351 N1350 1.338 . S
C1351 C1353 1.378 . S
C1351 H1363 0.929 . S
C1352 C1348 1.413 . S
C1352 C1353 1.348 . S
C1352 H1368 0.931 . S
C1353 C1351 1.378 . S
C1353 C1352 1.348 . S
C1353 H1369 0.930 . S
Gd1354 N1374 2.622 . S
Gd1354 N1381 2.570 . S
Gd1354 O1388 2.353 . S
Gd1354 O1389 2.468 . S
Gd1354 O1390 2.427 . S
Gd1354 O1392 2.388 . S
Gd1354 O1393 2.386 . S
Gd1354 O1397 2.307 . S
Gd1354 C1407 2.805 . S
Gd1355 N1350 2.622 . S
Gd1355 N1356 2.570 . S
Gd1355 O1387 2.386 . S
Gd1355 O1391 2.307 . S
Gd1355 O1394 2.353 . S
Gd1355 O1395 2.468 . S
Gd1355 O1396 2.427 . S
Gd1355 O1398 2.388 . S
Gd1355 C1419 2.805 . S
N1356 C1346 1.359 . S
N1356 Gd1355 2.570 . S
N1356 C1358 1.343 . S
C1357 C1345 1.422 . S
C1357 C1359 1.321 . S
C1357 H1365 0.931 . S
C1358 N1356 1.343 . S
C1358 C1359 1.390 . S
C1358 H1360 0.931 . S
C1359 C1357 1.321 . S
C1359 C1358 1.390 . S
C1359 H1361 0.930 . S
H1360 C1358 0.931 . S
H1361 C1359 0.930 . S
H1362 C1385 0.931 . S
H1363 C1351 0.929 . S
H1364 C1386 0.930 . S
H1365 C1357 0.931 . S
H1366 C1347 0.930 . S
H1367 C1376 0.929 . S
H1368 C1352 0.931 . S
H1369 C1353 0.930 . S
H1370 C1408 0.930 . S
H1371 C1349 0.929 . S
H1372 C1377 0.931 . S
H1373 C1378 0.930 . S
N1374 Gd1354 2.622 . S
N1374 C1375 1.369 . S
N1374 C1376 1.338 . S
C1375 N1374 1.369 . S
C1375 C1379 1.415 . S
C1375 C1382 1.422 . S
C1376 H1367 0.929 . S
C1376 N1374 1.338 . S
C1376 C1378 1.378 . S
C1377 H1372 0.931 . S
C1377 C1378 1.348 . S
C1377 C1379 1.413 . S
C1378 H1373 0.930 . S
C1378 C1376 1.378 . S
C1378 C1377 1.348 . S
C1379 C1375 1.415 . S
C1379 C1377 1.413 . S
C1379 C1409 1.437 . S
H1380 C1409 0.929 . S
N1381 Gd1354 2.570 . S
N1381 C1382 1.359 . S
N1381 C1385 1.343 . S
C1382 C1375 1.422 . S
C1382 N1381 1.359 . S
C1382 C1384 1.421 . S
C1383 C1384 1.422 . S
C1383 C1386 1.321 . S
C1383 H1410 0.931 . S
C1384 C1382 1.421 . S
C1384 C1383 1.422 . S
C1384 C1408 1.417 . S
C1385 H1362 0.931 . S
C1385 N1381 1.343 . S
C1385 C1386 1.390 . S
C1386 H1364 0.930 . S
C1386 C1383 1.321 . S
C1386 C1385 1.390 . S
O1387 Gd1355 2.386 . S
O1387 C1399 1.265 . S
O1388 Gd1354 2.353 . S
O1388 C1399 1.242 . S
O1389 Gd1354 2.468 . S
O1389 C1407 1.263 . S
O1390 Gd1354 2.427 . S
O1390 C1407 1.252 . S
O1391 Gd1355 2.307 . S
O1391 C1400 1.261 . S
O1392 Gd1354 2.388 . S
O1392 C1400 1.252 . S
O1393 Gd1354 2.386 . S
O1393 C1411 1.265 . S
O1394 Gd1355 2.353 . S
O1394 C1411 1.242 . S
O1395 Gd1355 2.468 . S
O1395 C1419 1.263 . S
O1396 Gd1355 2.427 . S
O1396 C1419 1.252 . S
O1397 Gd1354 2.307 . S
O1397 C1412 1.261 . S
O1398 Gd1355 2.388 . S
O1398 C1412 1.252 . S
C1399 O1387 1.265 . S
C1399 O1388 1.242 . S
C1400 O1391 1.261 . S
C1400 O1392 1.252 . S
C1401 C1404 1.394 . S
C1401 C1406 1.370 . S
C1401 C1407 1.500 . S
C1402 C1405 1.383 . S
C1402 C1406 1.395 . S
C1403 C1404 1.396 . S
C1403 C1405 1.365 . S
C1403 H1420 0.929 . S
C1404 C1401 1.394 . S
C1404 C1403 1.396 . S
C1404 H1421 0.930 . S
C1405 C1402 1.383 . S
C1405 C1403 1.365 . S
C1405 H1422 0.931 . S
C1406 C1401 1.370 . S
C1406 C1402 1.395 . S
C1406 H1423 0.930 . S
C1407 Gd1354 2.805 . S
C1407 O1389 1.263 . S
C1407 O1390 1.252 . S
C1407 C1401 1.500 . S
C1408 H1370 0.930 . S
C1408 C1384 1.417 . S
C1408 C1409 1.329 . S
C1409 C1379 1.437 . S
C1409 H1380 0.929 . S
C1409 C1408 1.329 . S
H1410 C1383 0.931 . S
C1411 O1393 1.265 . S
C1411 O1394 1.242 . S
C1412 O1397 1.261 . S
C1412 O1398 1.252 . S
C1413 C1416 1.394 . S
C1413 C1418 1.370 . S
C1413 C1419 1.500 . S
C1414 C1417 1.383 . S
C1414 C1418 1.395 . S
C1415 C1416 1.396 . S
C1415 C1417 1.365 . S
C1415 H1424 0.929 . S
C1416 C1413 1.394 . S
C1416 C1415 1.396 . S
C1416 H1425 0.930 . S
C1417 C1414 1.383 . S
C1417 C1415 1.365 . S
C1417 H1426 0.931 . S
C1418 C1413 1.370 . S
C1418 C1414 1.395 . S
C1418 H1427 0.930 . S
C1419 Gd1355 2.805 . S
C1419 O1395 1.263 . S
C1419 O1396 1.252 . S
C1419 C1413 1.500 . S
H1420 C1403 0.929 . S
H1421 C1404 0.930 . S
H1422 C1405 0.931 . S
H1423 C1406 0.930 . S
H1424 C1415 0.929 . S
H1425 C1416 0.930 . S
H1426 C1417 0.931 . S
H1427 C1418 0.930 . S
C1428 C1430 1.422 . S
C1428 C1432 1.415 . S
C1428 N1434 1.369 . S
C1429 C1430 1.421 . S
C1429 C1431 1.417 . S
C1429 C1441 1.422 . S
C1430 C1428 1.422 . S
C1430 C1429 1.421 . S
C1430 N1440 1.359 . S
C1431 C1429 1.417 . S
C1431 C1433 1.329 . S
C1431 H1450 0.930 . S
C1432 C1428 1.415 . S
C1432 C1433 1.437 . S
C1432 C1436 1.413 . S
C1433 C1431 1.329 . S
C1433 C1432 1.437 . S
C1433 H1455 0.929 . S
N1434 C1428 1.369 . S
N1434 C1435 1.338 . S
N1434 Gd1439 2.622 . S
C1435 N1434 1.338 . S
C1435 C1437 1.378 . S
C1435 H1447 0.929 . S
C1436 C1432 1.413 . S
C1436 C1437 1.348 . S
C1436 H1452 0.931 . S
C1437 C1435 1.378 . S
C1437 C1436 1.348 . S
C1437 H1453 0.930 . S
Gd1438 N1458 2.622 . S
Gd1438 N1465 2.570 . S
Gd1438 O1472 2.353 . S
Gd1438 O1473 2.468 . S
Gd1438 O1474 2.427 . S
Gd1438 O1476 2.388 . S
Gd1438 O1477 2.386 . S
Gd1438 O1481 2.307 . S
Gd1438 C1491 2.805 . S
Gd1439 N1434 2.622 . S
Gd1439 N1440 2.570 . S
Gd1439 O1471 2.386 . S
Gd1439 O1475 2.307 . S
Gd1439 O1478 2.353 . S
Gd1439 O1479 2.468 . S
Gd1439 O1480 2.427 . S
Gd1439 O1482 2.388 . S
Gd1439 C1503 2.805 . S
N1440 C1430 1.359 . S
N1440 Gd1439 2.570 . S
N1440 C1442 1.343 . S
C1441 C1429 1.422 . S
C1441 C1443 1.321 . S
C1441 H1449 0.931 . S
C1442 N1440 1.343 . S
C1442 C1443 1.390 . S
C1442 H1444 0.931 . S
C1443 C1441 1.321 . S
C1443 C1442 1.390 . S
C1443 H1445 0.930 . S
H1444 C1442 0.931 . S
H1445 C1443 0.930 . S
H1446 C1469 0.931 . S
H1447 C1435 0.929 . S
H1448 C1470 0.930 . S
H1449 C1441 0.931 . S
H1450 C1431 0.930 . S
H1451 C1460 0.929 . S
H1452 C1436 0.931 . S
H1453 C1437 0.930 . S
H1454 C1492 0.930 . S
H1455 C1433 0.929 . S
H1456 C1461 0.931 . S
H1457 C1462 0.930 . S
N1458 Gd1438 2.622 . S
N1458 C1459 1.369 . S
N1458 C1460 1.338 . S
C1459 N1458 1.369 . S
C1459 C1463 1.415 . S
C1459 C1466 1.422 . S
C1460 H1451 0.929 . S
C1460 N1458 1.338 . S
C1460 C1462 1.378 . S
C1461 H1456 0.931 . S
C1461 C1462 1.348 . S
C1461 C1463 1.413 . S
C1462 H1457 0.930 . S
C1462 C1460 1.378 . S
C1462 C1461 1.348 . S
C1463 C1459 1.415 . S
C1463 C1461 1.413 . S
C1463 C1493 1.437 . S
H1464 C1493 0.929 . S
N1465 Gd1438 2.570 . S
N1465 C1466 1.359 . S
N1465 C1469 1.343 . S
C1466 C1459 1.422 . S
C1466 N1465 1.359 . S
C1466 C1468 1.421 . S
C1467 C1468 1.422 . S
C1467 C1470 1.321 . S
C1467 H1494 0.931 . S
C1468 C1466 1.421 . S
C1468 C1467 1.422 . S
C1468 C1492 1.417 . S
C1469 H1446 0.931 . S
C1469 N1465 1.343 . S
C1469 C1470 1.390 . S
C1470 H1448 0.930 . S
C1470 C1467 1.321 . S
C1470 C1469 1.390 . S
O1471 Gd1439 2.386 . S
O1471 C1483 1.265 . S
O1472 Gd1438 2.353 . S
O1472 C1483 1.242 . S
O1473 Gd1438 2.468 . S
O1473 C1491 1.263 . S
O1474 Gd1438 2.427 . S
O1474 C1491 1.252 . S
O1475 Gd1439 2.307 . S
O1475 C1484 1.261 . S
O1476 Gd1438 2.388 . S
O1476 C1484 1.252 . S
O1477 Gd1438 2.386 . S
O1477 C1495 1.265 . S
O1478 Gd1439 2.353 . S
O1478 C1495 1.242 . S
O1479 Gd1439 2.468 . S
O1479 C1503 1.263 . S
O1480 Gd1439 2.427 . S
O1480 C1503 1.252 . S
O1481 Gd1438 2.307 . S
O1481 C1496 1.261 . S
O1482 Gd1439 2.388 . S
O1482 C1496 1.252 . S
C1483 O1471 1.265 . S
C1483 O1472 1.242 . S
C1484 O1475 1.261 . S
C1484 O1476 1.252 . S
C1485 C1488 1.394 . S
C1485 C1490 1.370 . S
C1485 C1491 1.500 . S
C1486 C1489 1.383 . S
C1486 C1490 1.395 . S
C1487 C1488 1.396 . S
C1487 C1489 1.365 . S
C1487 H1504 0.929 . S
C1488 C1485 1.394 . S
C1488 C1487 1.396 . S
C1488 H1505 0.930 . S
C1489 C1486 1.383 . S
C1489 C1487 1.365 . S
C1489 H1506 0.931 . S
C1490 C1485 1.370 . S
C1490 C1486 1.395 . S
C1490 H1507 0.930 . S
C1491 Gd1438 2.805 . S
C1491 O1473 1.263 . S
C1491 O1474 1.252 . S
C1491 C1485 1.500 . S
C1492 H1454 0.930 . S
C1492 C1468 1.417 . S
C1492 C1493 1.329 . S
C1493 C1463 1.437 . S
C1493 H1464 0.929 . S
C1493 C1492 1.329 . S
H1494 C1467 0.931 . S
C1495 O1477 1.265 . S
C1495 O1478 1.242 . S
C1496 O1481 1.261 . S
C1496 O1482 1.252 . S
C1497 C1500 1.394 . S
C1497 C1502 1.370 . S
C1497 C1503 1.500 . S
C1498 C1501 1.383 . S
C1498 C1502 1.395 . S
C1499 C1500 1.396 . S
C1499 C1501 1.365 . S
C1499 H1508 0.929 . S
C1500 C1497 1.394 . S
C1500 C1499 1.396 . S
C1500 H1509 0.930 . S
C1501 C1498 1.383 . S
C1501 C1499 1.365 . S
C1501 H1510 0.931 . S
C1502 C1497 1.370 . S
C1502 C1498 1.395 . S
C1502 H1511 0.930 . S
C1503 Gd1439 2.805 . S
C1503 O1479 1.263 . S
C1503 O1480 1.252 . S
C1503 C1497 1.500 . S
H1504 C1487 0.929 . S
H1505 C1488 0.930 . S
H1506 C1489 0.931 . S
H1507 C1490 0.930 . S
H1508 C1499 0.929 . S
H1509 C1500 0.930 . S
H1510 C1501 0.931 . S
H1511 C1502 0.930 . S
C1512 C1514 1.422 . S
C1512 C1516 1.415 . S
C1512 N1518 1.369 . S
C1513 C1514 1.421 . S
C1513 C1515 1.417 . S
C1513 C1525 1.422 . S
C1514 C1512 1.422 . S
C1514 C1513 1.421 . S
C1514 N1524 1.359 . S
C1515 C1513 1.417 . S
C1515 C1517 1.329 . S
C1515 H1534 0.930 . S
C1516 C1512 1.415 . S
C1516 C1517 1.437 . S
C1516 C1520 1.413 . S
C1517 C1515 1.329 . S
C1517 C1516 1.437 . S
C1517 H1539 0.929 . S
N1518 C1512 1.369 . S
N1518 C1519 1.338 . S
N1518 Gd1523 2.622 . S
C1519 N1518 1.338 . S
C1519 C1521 1.378 . S
C1519 H1531 0.929 . S
C1520 C1516 1.413 . S
C1520 C1521 1.348 . S
C1520 H1536 0.931 . S
C1521 C1519 1.378 . S
C1521 C1520 1.348 . S
C1521 H1537 0.930 . S
Gd1522 N1542 2.622 . S
Gd1522 N1549 2.570 . S
Gd1522 O1556 2.353 . S
Gd1522 O1557 2.468 . S
Gd1522 O1558 2.427 . S
Gd1522 O1560 2.388 . S
Gd1522 O1561 2.386 . S
Gd1522 O1565 2.307 . S
Gd1522 C1575 2.805 . S
Gd1523 N1518 2.622 . S
Gd1523 N1524 2.570 . S
Gd1523 O1555 2.386 . S
Gd1523 O1559 2.307 . S
Gd1523 O1562 2.353 . S
Gd1523 O1563 2.468 . S
Gd1523 O1564 2.427 . S
Gd1523 O1566 2.388 . S
Gd1523 C1587 2.805 . S
N1524 C1514 1.359 . S
N1524 Gd1523 2.570 . S
N1524 C1526 1.343 . S
C1525 C1513 1.422 . S
C1525 C1527 1.321 . S
C1525 H1533 0.931 . S
C1526 N1524 1.343 . S
C1526 C1527 1.390 . S
C1526 H1528 0.931 . S
C1527 C1525 1.321 . S
C1527 C1526 1.390 . S
C1527 H1529 0.930 . S
H1528 C1526 0.931 . S
H1529 C1527 0.930 . S
H1530 C1553 0.931 . S
H1531 C1519 0.929 . S
H1532 C1554 0.930 . S
H1533 C1525 0.931 . S
H1534 C1515 0.930 . S
H1535 C1544 0.929 . S
H1536 C1520 0.931 . S
H1537 C1521 0.930 . S
H1538 C1576 0.930 . S
H1539 C1517 0.929 . S
H1540 C1545 0.931 . S
H1541 C1546 0.930 . S
N1542 Gd1522 2.622 . S
N1542 C1543 1.369 . S
N1542 C1544 1.338 . S
C1543 N1542 1.369 . S
C1543 C1547 1.415 . S
C1543 C1550 1.422 . S
C1544 H1535 0.929 . S
C1544 N1542 1.338 . S
C1544 C1546 1.378 . S
C1545 H1540 0.931 . S
C1545 C1546 1.348 . S
C1545 C1547 1.413 . S
C1546 H1541 0.930 . S
C1546 C1544 1.378 . S
C1546 C1545 1.348 . S
C1547 C1543 1.415 . S
C1547 C1545 1.413 . S
C1547 C1577 1.437 . S
H1548 C1577 0.929 . S
N1549 Gd1522 2.570 . S
N1549 C1550 1.359 . S
N1549 C1553 1.343 . S
C1550 C1543 1.422 . S
C1550 N1549 1.359 . S
C1550 C1552 1.421 . S
C1551 C1552 1.422 . S
C1551 C1554 1.321 . S
C1551 H1578 0.931 . S
C1552 C1550 1.421 . S
C1552 C1551 1.422 . S
C1552 C1576 1.417 . S
C1553 H1530 0.931 . S
C1553 N1549 1.343 . S
C1553 C1554 1.390 . S
C1554 H1532 0.930 . S
C1554 C1551 1.321 . S
C1554 C1553 1.390 . S
O1555 Gd1523 2.386 . S
O1555 C1567 1.265 . S
O1556 Gd1522 2.353 . S
O1556 C1567 1.242 . S
O1557 Gd1522 2.468 . S
O1557 C1575 1.263 . S
O1558 Gd1522 2.427 . S
O1558 C1575 1.252 . S
O1559 Gd1523 2.307 . S
O1559 C1568 1.261 . S
O1560 Gd1522 2.388 . S
O1560 C1568 1.252 . S
O1561 Gd1522 2.386 . S
O1561 C1579 1.265 . S
O1562 Gd1523 2.353 . S
O1562 C1579 1.242 . S
O1563 Gd1523 2.468 . S
O1563 C1587 1.263 . S
O1564 Gd1523 2.427 . S
O1564 C1587 1.252 . S
O1565 Gd1522 2.307 . S
O1565 C1580 1.261 . S
O1566 Gd1523 2.388 . S
O1566 C1580 1.252 . S
C1567 O1555 1.265 . S
C1567 O1556 1.242 . S
C1568 O1559 1.261 . S
C1568 O1560 1.252 . S
C1569 C1572 1.394 . S
C1569 C1574 1.370 . S
C1569 C1575 1.500 . S
C1570 C1573 1.383 . S
C1570 C1574 1.395 . S
C1571 C1572 1.396 . S
C1571 C1573 1.365 . S
C1571 H1588 0.929 . S
C1572 C1569 1.394 . S
C1572 C1571 1.396 . S
C1572 H1589 0.930 . S
C1573 C1570 1.383 . S
C1573 C1571 1.365 . S
C1573 H1590 0.931 . S
C1574 C1569 1.370 . S
C1574 C1570 1.395 . S
C1574 H1591 0.930 . S
C1575 Gd1522 2.805 . S
C1575 O1557 1.263 . S
C1575 O1558 1.252 . S
C1575 C1569 1.500 . S
C1576 H1538 0.930 . S
C1576 C1552 1.417 . S
C1576 C1577 1.329 . S
C1577 C1547 1.437 . S
C1577 H1548 0.929 . S
C1577 C1576 1.329 . S
H1578 C1551 0.931 . S
C1579 O1561 1.265 . S
C1579 O1562 1.242 . S
C1580 O1565 1.261 . S
C1580 O1566 1.252 . S
C1581 C1584 1.394 . S
C1581 C1586 1.370 . S
C1581 C1587 1.500 . S
C1582 C1585 1.383 . S
C1582 C1586 1.395 . S
C1583 C1584 1.396 . S
C1583 C1585 1.365 . S
C1583 H1592 0.929 . S
C1584 C1581 1.394 . S
C1584 C1583 1.396 . S
C1584 H1593 0.930 . S
C1585 C1582 1.383 . S
C1585 C1583 1.365 . S
C1585 H1594 0.931 . S
C1586 C1581 1.370 . S
C1586 C1582 1.395 . S
C1586 H1595 0.930 . S
C1587 Gd1523 2.805 . S
C1587 O1563 1.263 . S
C1587 O1564 1.252 . S
C1587 C1581 1.500 . S
H1588 C1571 0.929 . S
H1589 C1572 0.930 . S
H1590 C1573 0.931 . S
H1591 C1574 0.930 . S
H1592 C1583 0.929 . S
H1593 C1584 0.930 . S
H1594 C1585 0.931 . S
H1595 C1586 0.930 . S
C1596 C1598 1.422 1_556 S
C1596 C1600 1.415 . S
C1596 N1602 1.369 . S
C1597 C1598 1.421 . S
C1597 C1599 1.417 . S
C1597 C1609 1.422 . S
C1598 C1596 1.422 1_554 S
C1598 C1597 1.421 . S
C1598 N1608 1.359 . S
C1599 C1597 1.417 . S
C1599 C1601 1.329 1_554 S
C1599 H1618 0.930 . S
C1600 C1596 1.415 . S
C1600 C1601 1.437 . S
C1600 C1604 1.413 . S
C1601 C1599 1.329 1_556 S
C1601 C1600 1.437 . S
C1601 H1623 0.929 . S
N1602 C1596 1.369 . S
N1602 C1603 1.338 . S
N1602 Gd1607 2.622 1_556 S
C1603 N1602 1.338 . S
C1603 C1605 1.378 . S
C1603 H1615 0.929 . S
C1604 C1600 1.413 . S
C1604 C1605 1.348 . S
C1604 H1620 0.931 . S
C1605 C1603 1.378 . S
C1605 C1604 1.348 . S
C1605 H1621 0.930 . S
Gd1606 N1626 2.634 . S
Gd1606 N1633 2.601 . S
Gd1606 O1640 2.340 1_655 S
Gd1606 O1641 2.509 . S
Gd1606 O1642 2.461 . S
Gd1606 O1644 2.354 1_655 S
Gd1606 O1645 2.360 1_655 S
Gd1606 O1649 2.299 1_655 S
Gd1606 C1659 2.847 . S
Gd1607 N1602 2.622 1_554 S
Gd1607 N1608 2.570 . S
Gd1607 O1639 2.386 . S
Gd1607 O1643 2.307 . S
Gd1607 O1646 2.353 . S
Gd1607 O1647 2.468 . S
Gd1607 O1648 2.427 1_554 S
Gd1607 O1650 2.388 1_554 S
Gd1607 C1671 2.805 . S
N1608 C1598 1.359 . S
N1608 Gd1607 2.570 . S
N1608 C1610 1.343 . S
C1609 C1597 1.422 . S
C1609 C1611 1.321 . S
C1609 H1617 0.931 . S
C1610 N1608 1.343 . S
C1610 C1611 1.390 . S
C1610 H1612 0.931 . S
C1611 C1609 1.321 . S
C1611 C1610 1.390 . S
C1611 H1613 0.930 . S
H1612 C1610 0.931 . S
H1613 C1611 0.930 . S
H1614 C1637 0.931 . S
H1615 C1603 0.929 . S
H1616 C1638 0.930 1_556 S
H1617 C1609 0.931 . S
H1618 C1599 0.930 . S
H1619 C1628 0.929 1_455 S
H1620 C1604 0.931 . S
H1621 C1605 0.930 . S
H1622 C1660 0.930 . S
H1623 C1601 0.929 . S
H1624 C1629 0.931 . S
H1625 C1630 0.925 1_455 S
N1626 Gd1606 2.634 . S
N1626 C1627 1.369 . S
N1626 C1628 1.338 . S
C1627 N1626 1.369 . S
C1627 C1631 1.415 . S
C1627 C1634 1.422 . S
C1628 H1619 0.929 1_655 S
C1628 N1626 1.338 . S
C1628 C1630 1.378 . S
C1629 H1624 0.931 . S
C1629 C1630 1.348 . S
C1629 C1631 1.413 . S
C1630 H1625 0.925 1_655 S
C1630 C1628 1.378 . S
C1630 C1629 1.348 . S
C1631 C1627 1.415 . S
C1631 C1629 1.413 . S
C1631 C1661 1.437 . S
H1632 C1661 0.929 . S
N1633 Gd1606 2.601 . S
N1633 C1634 1.359 . S
N1633 C1637 1.343 . S
C1634 C1627 1.422 . S
C1634 N1633 1.359 . S
C1634 C1636 1.421 . S
C1635 C1636 1.422 . S
C1635 C1638 1.321 . S
C1635 H1662 0.931 . S
C1636 C1634 1.421 . S
C1636 C1635 1.422 . S
C1636 C1660 1.417 . S
C1637 H1614 0.931 . S
C1637 N1633 1.343 . S
C1637 C1638 1.390 . S
C1638 H1616 0.930 1_554 S
C1638 C1635 1.321 . S
C1638 C1637 1.390 . S
O1639 Gd1607 2.386 . S
O1639 C1651 1.265 . S
O1640 Gd1606 2.340 1_455 S
O1640 C1651 1.242 . S
O1641 Gd1606 2.509 . S
O1641 C1659 1.263 . S
O1642 Gd1606 2.461 . S
O1642 C1659 1.252 . S
O1643 Gd1607 2.307 . S
O1643 C1652 1.261 . S
O1644 Gd1606 2.354 1_455 S
O1644 C1652 1.252 . S
O1645 Gd1606 2.360 1_455 S
O1645 C1663 1.265 . S
O1646 Gd1607 2.353 . S
O1646 C1663 1.242 . S
O1647 Gd1607 2.468 . S
O1647 C1671 1.263 . S
O1648 Gd1607 2.427 1_556 S
O1648 C1671 1.252 1_556 S
O1649 Gd1606 2.299 1_455 S
O1649 C1664 1.261 1_554 S
O1650 Gd1607 2.388 1_556 S
O1650 C1664 1.252 . S
C1651 O1639 1.265 . S
C1651 O1640 1.242 . S
C1652 O1643 1.261 . S
C1652 O1644 1.252 . S
C1653 C1656 1.394 . S
C1653 C1658 1.370 . S
C1653 C1659 1.500 . S
C1654 C1657 1.383 . S
C1654 C1658 1.395 . S
C1655 C1656 1.396 . S
C1655 C1657 1.365 . S
C1655 H1672 0.929 . S
C1656 C1653 1.394 . S
C1656 C1655 1.396 . S
C1656 H1673 0.930 . S
C1657 C1654 1.383 . S
C1657 C1655 1.365 . S
C1657 H1674 0.931 . S
C1658 C1653 1.370 . S
C1658 C1654 1.395 . S
C1658 H1675 0.930 . S
C1659 Gd1606 2.847 . S
C1659 O1641 1.263 . S
C1659 O1642 1.252 . S
C1659 C1653 1.500 . S
C1660 H1622 0.930 . S
C1660 C1636 1.417 . S
C1660 C1661 1.329 . S
C1661 C1631 1.437 . S
C1661 H1632 0.929 . S
C1661 C1660 1.329 . S
H1662 C1635 0.931 . S
C1663 O1645 1.265 . S
C1663 O1646 1.242 . S
C1664 O1649 1.261 1_556 S
C1664 O1650 1.252 . S
C1665 C1668 1.360 1_554 S
C1665 C1670 1.395 . S
C1665 C1671 1.508 . S
C1666 C1669 1.383 1_554 S
C1666 C1670 1.395 . S
C1667 C1668 1.396 . S
C1667 C1669 1.365 . S
C1667 H1676 0.929 . S
C1668 C1665 1.360 1_556 S
C1668 C1667 1.396 . S
C1668 H1677 0.930 . S
C1669 C1666 1.383 1_556 S
C1669 C1667 1.365 . S
C1669 H1678 0.931 . S
C1670 C1665 1.395 . S
C1670 C1666 1.395 . S
C1670 H1679 0.930 . S
C1671 Gd1607 2.805 . S
C1671 O1647 1.263 . S
C1671 O1648 1.252 1_554 S
C1671 C1665 1.508 . S
H1672 C1655 0.929 . S
H1673 C1656 0.930 . S
H1674 C1657 0.931 . S
H1675 C1658 0.930 . S
H1676 C1667 0.929 . S
H1677 C1668 0.930 . S
H1678 C1669 0.931 . S
H1679 C1670 0.930 . S
C1680 C1681 1.394 . S
C1680 C1682 1.392 1_556 S
C1680 H1696 0.929 1_556 S
C1681 C1680 1.394 . S
C1681 C1685 1.375 1_655 S
C1682 C1680 1.392 1_554 S
C1682 C1683 1.369 1_654 S
C1682 C1686 1.531 . S
C1683 C1682 1.369 1_456 S
C1683 C1684 1.410 . S
C1683 C1691 1.503 1_556 S
C1684 C1683 1.410 . S
C1684 C1685 1.392 . S
C1684 C1687 1.511 . S
C1685 C1681 1.375 1_455 S
C1685 C1684 1.392 . S
C1685 H1697 0.929 . S
C1686 C1682 1.531 . S
C1686 H1698 0.960 . S
C1686 H1699 0.962 1_655 S
C1686 H1700 0.960 . S
C1687 C1684 1.511 . S
C1687 H1701 0.961 . S
C1687 H1702 0.961 . S
C1687 H1703 0.961 . S
C1688 C1689 1.370 . S
C1688 C1690 1.363 . S
C1688 H1704 0.931 . S
C1689 C1688 1.370 . S
C1689 C1693 1.423 . S
C1690 C1688 1.363 . S
C1690 C1691 1.370 . S
C1690 C1694 1.524 . S
C1691 C1683 1.503 1_554 S
C1691 C1690 1.370 . S
C1691 C1692 1.403 1_454 S
C1692 C1691 1.403 1_656 S
C1692 C1693 1.398 1_656 S
C1692 C1695 1.539 . S
C1693 C1689 1.423 . S
C1693 C1692 1.398 1_454 S
C1693 H1705 0.922 1_455 S
C1694 C1690 1.524 . S
C1694 H1706 0.956 . S
C1694 H1707 0.961 . S
C1694 H1708 0.961 . S
C1695 C1692 1.539 . S
C1695 H1709 0.958 . S
C1695 H1710 0.961 . S
C1695 H1711 0.960 . S
H1696 C1680 0.929 1_554 S
H1697 C1685 0.929 . S
H1698 C1686 0.960 . S
H1699 C1686 0.962 1_455 S
H1700 C1686 0.960 . S
H1701 C1687 0.961 . S
H1702 C1687 0.961 . S
H1703 C1687 0.961 . S
H1704 C1688 0.931 . S
H1705 C1693 0.922 1_655 S
H1706 C1694 0.956 . S
H1707 C1694 0.961 . S
H1708 C1694 0.961 . S
H1709 C1695 0.958 . S
H1710 C1695 0.961 . S
H1711 C1695 0.960 . S
C1712 C1713 1.391 . S
C1712 C1714 1.394 . S
C1712 H1728 0.931 . S
C1713 C1712 1.391 . S
C1713 C1717 1.376 . S
C1714 C1712 1.394 . S
C1714 C1715 1.369 . S
C1714 C1718 1.531 . S
C1715 C1714 1.369 . S
C1715 C1716 1.410 . S
C1715 C1723 1.503 . S
C1716 C1715 1.410 . S
C1716 C1717 1.392 . S
C1716 C1719 1.511 . S
C1717 C1713 1.376 . S
C1717 C1716 1.392 . S
C1717 H1729 0.929 . S
C1718 C1714 1.531 . S
C1718 H1730 0.960 . S
C1718 H1731 0.962 . S
C1718 H1732 0.960 . S
C1719 C1716 1.511 . S
C1719 H1733 0.961 . S
C1719 H1734 0.961 . S
C1719 H1735 0.961 . S
C1720 C1721 1.370 . S
C1720 C1722 1.363 . S
C1720 H1736 0.931 . S
C1721 C1720 1.370 . S
C1721 C1725 1.408 . S
C1722 C1720 1.363 . S
C1722 C1723 1.370 . S
C1722 C1726 1.524 . S
C1723 C1715 1.503 . S
C1723 C1722 1.370 . S
C1723 C1724 1.403 . S
C1724 C1723 1.403 . S
C1724 C1725 1.404 . S
C1724 C1727 1.539 . S
C1725 C1721 1.408 . S
C1725 C1724 1.404 . S
C1725 H1737 0.930 . S
C1726 C1722 1.524 . S
C1726 H1738 0.956 . S
C1726 H1739 0.961 . S
C1726 H1740 0.961 . S
C1727 C1724 1.539 . S
C1727 H1741 0.958 . S
C1727 H1742 0.961 . S
C1727 H1743 0.960 . S
H1728 C1712 0.931 . S
H1729 C1717 0.929 . S
H1730 C1718 0.960 . S
H1731 C1718 0.962 . S
H1732 C1718 0.960 . S
H1733 C1719 0.961 . S
H1734 C1719 0.961 . S
H1735 C1719 0.961 . S
H1736 C1720 0.931 . S
H1737 C1725 0.930 . S
H1738 C1726 0.956 . S
H1739 C1726 0.961 . S
H1740 C1726 0.961 . S
H1741 C1727 0.958 . S
H1742 C1727 0.961 . S
H1743 C1727 0.960 . S
C1744 C1745 1.391 . S
C1744 C1746 1.394 . S
C1744 H1760 0.931 . S
C1745 C1744 1.391 . S
C1745 C1749 1.376 . S
C1746 C1744 1.394 . S
C1746 C1747 1.369 . S
C1746 C1750 1.531 . S
C1747 C1746 1.369 . S
C1747 C1748 1.410 . S
C1747 C1755 1.503 . S
C1748 C1747 1.410 . S
C1748 C1749 1.392 . S
C1748 C1751 1.511 . S
C1749 C1745 1.376 . S
C1749 C1748 1.392 . S
C1749 H1761 0.929 . S
C1750 C1746 1.531 . S
C1750 H1762 0.960 . S
C1750 H1763 0.962 . S
C1750 H1764 0.960 . S
C1751 C1748 1.511 . S
C1751 H1765 0.961 . S
C1751 H1766 0.961 . S
C1751 H1767 0.961 . S
C1752 C1753 1.370 . S
C1752 C1754 1.363 . S
C1752 H1768 0.931 . S
C1753 C1752 1.370 . S
C1753 C1757 1.408 . S
C1754 C1752 1.363 . S
C1754 C1755 1.370 . S
C1754 C1758 1.524 . S
C1755 C1747 1.503 . S
C1755 C1754 1.370 . S
C1755 C1756 1.403 . S
C1756 C1755 1.403 . S
C1756 C1757 1.404 . S
C1756 C1759 1.539 . S
C1757 C1753 1.408 . S
C1757 C1756 1.404 . S
C1757 H1769 0.930 . S
C1758 C1754 1.524 . S
C1758 H1770 0.956 . S
C1758 H1771 0.961 . S
C1758 H1772 0.961 . S
C1759 C1756 1.539 . S
C1759 H1773 0.958 . S
C1759 H1774 0.961 . S
C1759 H1775 0.960 . S
H1760 C1744 0.931 . S
H1761 C1749 0.929 . S
H1762 C1750 0.960 . S
H1763 C1750 0.962 . S
H1764 C1750 0.960 . S
H1765 C1751 0.961 . S
H1766 C1751 0.961 . S
H1767 C1751 0.961 . S
H1768 C1752 0.931 . S
H1769 C1757 0.930 . S
H1770 C1758 0.956 . S
H1771 C1758 0.961 . S
H1772 C1758 0.961 . S
H1773 C1759 0.958 . S
H1774 C1759 0.961 . S
H1775 C1759 0.960 . S
C1776 C1777 1.391 . S
C1776 C1778 1.394 . S
C1776 H1792 0.931 . S
C1777 C1776 1.391 . S
C1777 C1781 1.376 . S
C1778 C1776 1.394 . S
C1778 C1779 1.369 . S
C1778 C1782 1.531 . S
C1779 C1778 1.369 . S
C1779 C1780 1.410 . S
C1779 C1787 1.503 . S
C1780 C1779 1.410 . S
C1780 C1781 1.392 . S
C1780 C1783 1.511 . S
C1781 C1777 1.376 . S
C1781 C1780 1.392 . S
C1781 H1793 0.929 . S
C1782 C1778 1.531 . S
C1782 H1794 0.960 . S
C1782 H1795 0.962 . S
C1782 H1796 0.960 . S
C1783 C1780 1.511 . S
C1783 H1797 0.961 . S
C1783 H1798 0.961 . S
C1783 H1799 0.961 . S
C1784 C1785 1.370 . S
C1784 C1786 1.363 . S
C1784 H1800 0.931 . S
C1785 C1784 1.370 . S
C1785 C1789 1.408 . S
C1786 C1784 1.363 . S
C1786 C1787 1.370 . S
C1786 C1790 1.524 . S
C1787 C1779 1.503 . S
C1787 C1786 1.370 . S
C1787 C1788 1.403 . S
C1788 C1787 1.403 . S
C1788 C1789 1.404 . S
C1788 C1791 1.539 . S
C1789 C1785 1.408 . S
C1789 C1788 1.404 . S
C1789 H1801 0.930 . S
C1790 C1786 1.524 . S
C1790 H1802 0.956 . S
C1790 H1803 0.961 . S
C1790 H1804 0.961 . S
C1791 C1788 1.539 . S
C1791 H1805 0.958 . S
C1791 H1806 0.961 . S
C1791 H1807 0.960 . S
H1792 C1776 0.931 . S
H1793 C1781 0.929 . S
H1794 C1782 0.960 . S
H1795 C1782 0.962 . S
H1796 C1782 0.960 . S
H1797 C1783 0.961 . S
H1798 C1783 0.961 . S
H1799 C1783 0.961 . S
H1800 C1784 0.931 . S
H1801 C1789 0.930 . S
H1802 C1790 0.956 . S
H1803 C1790 0.961 . S
H1804 C1790 0.961 . S
H1805 C1791 0.958 . S
H1806 C1791 0.961 . S
H1807 C1791 0.960 . S
C1808 C1809 1.391 . S
C1808 C1810 1.394 . S
C1808 H1824 0.931 . S
C1809 C1808 1.391 . S
C1809 C1813 1.376 . S
C1810 C1808 1.394 . S
C1810 C1811 1.369 . S
C1810 C1814 1.531 . S
C1811 C1810 1.369 . S
C1811 C1812 1.410 . S
C1811 C1819 1.503 . S
C1812 C1811 1.410 . S
C1812 C1813 1.392 . S
C1812 C1815 1.511 1_455 S
C1813 C1809 1.376 . S
C1813 C1812 1.392 . S
C1813 H1825 0.929 1_455 S
C1814 C1810 1.531 . S
C1814 H1826 0.960 . S
C1814 H1827 0.962 . S
C1814 H1828 0.960 . S
C1815 C1812 1.511 1_655 S
C1815 H1829 0.961 . S
C1815 H1830 0.961 . S
C1815 H1831 0.961 . S
C1816 C1817 1.370 . S
C1816 C1818 1.363 . S
C1816 H1832 0.931 . S
C1817 C1816 1.370 . S
C1817 C1821 1.408 . S
C1818 C1816 1.363 . S
C1818 C1819 1.370 . S
C1818 C1822 1.524 . S
C1819 C1811 1.503 . S
C1819 C1818 1.370 . S
C1819 C1820 1.403 . S
C1820 C1819 1.403 . S
C1820 C1821 1.404 . S
C1820 C1823 1.539 . S
C1821 C1817 1.408 . S
C1821 C1820 1.404 . S
C1821 H1833 0.930 . S
C1822 C1818 1.524 . S
C1822 H1834 0.956 . S
C1822 H1835 0.961 . S
C1822 H1836 0.961 . S
C1823 C1820 1.539 . S
C1823 H1837 0.958 . S
C1823 H1838 0.961 1_455 S
C1823 H1839 0.960 1_455 S
H1824 C1808 0.931 . S
H1825 C1813 0.929 1_655 S
H1826 C1814 0.960 . S
H1827 C1814 0.962 . S
H1828 C1814 0.960 . S
H1829 C1815 0.961 . S
H1830 C1815 0.961 . S
H1831 C1815 0.961 . S
H1832 C1816 0.931 . S
H1833 C1821 0.930 . S
H1834 C1822 0.956 . S
H1835 C1822 0.961 . S
H1836 C1822 0.961 . S
H1837 C1823 0.958 . S
H1838 C1823 0.961 1_655 S
H1839 C1823 0.960 1_655 S
C1840 C1841 1.391 . S
C1840 C1842 1.394 . S
C1840 H1856 0.931 . S
C1841 C1840 1.391 . S
C1841 C1845 1.376 . S
C1842 C1840 1.394 . S
C1842 C1843 1.369 . S
C1842 C1846 1.531 . S
C1843 C1842 1.369 . S
C1843 C1844 1.410 . S
C1843 C1851 1.503 . S
C1844 C1843 1.410 . S
C1844 C1845 1.392 . S
C1844 C1847 1.511 . S
C1845 C1841 1.376 . S
C1845 C1844 1.392 . S
C1845 H1857 0.929 . S
C1846 C1842 1.531 . S
C1846 H1858 0.960 . S
C1846 H1859 0.962 . S
C1846 H1860 0.960 . S
C1847 C1844 1.511 . S
C1847 H1861 0.961 . S
C1847 H1862 0.961 . S
C1847 H1863 0.961 . S
C1848 C1849 1.370 . S
C1848 C1850 1.363 . S
C1848 H1864 0.931 . S
C1849 C1848 1.370 . S
C1849 C1853 1.408 . S
C1850 C1848 1.363 . S
C1850 C1851 1.370 . S
C1850 C1854 1.524 . S
C1851 C1843 1.503 . S
C1851 C1850 1.370 . S
C1851 C1852 1.403 . S
C1852 C1851 1.403 . S
C1852 C1853 1.404 . S
C1852 C1855 1.539 . S
C1853 C1849 1.408 . S
C1853 C1852 1.404 . S
C1853 H1865 0.930 . S
C1854 C1850 1.524 . S
C1854 H1866 0.956 . S
C1854 H1867 0.961 . S
C1854 H1868 0.961 . S
C1855 C1852 1.539 . S
C1855 H1869 0.958 . S
C1855 H1870 0.961 . S
C1855 H1871 0.960 . S
H1856 C1840 0.931 . S
H1857 C1845 0.929 . S
H1858 C1846 0.960 . S
H1859 C1846 0.962 . S
H1860 C1846 0.960 . S
H1861 C1847 0.961 . S
H1862 C1847 0.961 . S
H1863 C1847 0.961 . S
H1864 C1848 0.931 . S
H1865 C1853 0.930 . S
H1866 C1854 0.956 . S
H1867 C1854 0.961 . S
H1868 C1854 0.961 . S
H1869 C1855 0.958 . S
H1870 C1855 0.961 . S
H1871 C1855 0.960 . S
C1872 C1873 1.391 . S
C1872 C1874 1.394 . S
C1872 H1888 0.931 . S
C1873 C1872 1.391 . S
C1873 C1877 1.376 . S
C1874 C1872 1.394 . S
C1874 C1875 1.369 . S
C1874 C1878 1.531 . S
C1875 C1874 1.369 . S
C1875 C1876 1.410 . S
C1875 C1883 1.503 . S
C1876 C1875 1.410 . S
C1876 C1877 1.392 . S
C1876 C1879 1.511 . S
C1877 C1873 1.376 . S
C1877 C1876 1.392 . S
C1877 H1889 0.929 . S
C1878 C1874 1.531 . S
C1878 H1890 0.960 . S
C1878 H1891 0.962 . S
C1878 H1892 0.960 . S
C1879 C1876 1.511 . S
C1879 H1893 0.961 . S
C1879 H1894 0.961 . S
C1879 H1895 0.961 . S
C1880 C1881 1.370 . S
C1880 C1882 1.363 . S
C1880 H1896 0.931 . S
C1881 C1880 1.370 . S
C1881 C1885 1.408 . S
C1882 C1880 1.363 . S
C1882 C1883 1.370 . S
C1882 C1886 1.524 . S
C1883 C1875 1.503 . S
C1883 C1882 1.370 . S
C1883 C1884 1.403 . S
C1884 C1883 1.403 . S
C1884 C1885 1.404 . S
C1884 C1887 1.539 . S
C1885 C1881 1.408 . S
C1885 C1884 1.404 . S
C1885 H1897 0.930 . S
C1886 C1882 1.524 . S
C1886 H1898 0.956 . S
C1886 H1899 0.961 . S
C1886 H1900 0.961 . S
C1887 C1884 1.539 . S
C1887 H1901 0.958 . S
C1887 H1902 0.961 . S
C1887 H1903 0.960 . S
H1888 C1872 0.931 . S
H1889 C1877 0.929 . S
H1890 C1878 0.960 . S
H1891 C1878 0.962 . S
H1892 C1878 0.960 . S
H1893 C1879 0.961 . S
H1894 C1879 0.961 . S
H1895 C1879 0.961 . S
H1896 C1880 0.931 . S
H1897 C1885 0.930 . S
H1898 C1886 0.956 . S
H1899 C1886 0.961 . S
H1900 C1886 0.961 . S
H1901 C1887 0.958 . S
H1902 C1887 0.961 . S
H1903 C1887 0.960 . S
C1904 C1905 1.391 . S
C1904 C1906 1.394 . S
C1904 H1920 0.931 . S
C1905 C1904 1.391 . S
C1905 C1909 1.376 . S
C1906 C1904 1.394 . S
C1906 C1907 1.369 . S
C1906 C1910 1.531 . S
C1907 C1906 1.369 . S
C1907 C1908 1.410 . S
C1907 C1915 1.503 . S
C1908 C1907 1.410 . S
C1908 C1909 1.392 . S
C1908 C1911 1.511 . S
C1909 C1905 1.376 . S
C1909 C1908 1.392 . S
C1909 H1921 0.929 . S
C1910 C1906 1.531 . S
C1910 H1922 0.960 . S
C1910 H1923 0.962 . S
C1910 H1924 0.960 . S
C1911 C1908 1.511 . S
C1911 H1925 0.961 . S
C1911 H1926 0.961 . S
C1911 H1927 0.961 . S
C1912 C1913 1.370 . S
C1912 C1914 1.363 . S
C1912 H1928 0.931 . S
C1913 C1912 1.370 . S
C1913 C1917 1.408 . S
C1914 C1912 1.363 . S
C1914 C1915 1.370 . S
C1914 C1918 1.524 . S
C1915 C1907 1.503 . S
C1915 C1914 1.370 . S
C1915 C1916 1.403 . S
C1916 C1915 1.403 . S
C1916 C1917 1.404 . S
C1916 C1919 1.539 . S
C1917 C1913 1.408 . S
C1917 C1916 1.404 . S
C1917 H1929 0.930 . S
C1918 C1914 1.524 . S
C1918 H1930 0.956 . S
C1918 H1931 0.961 . S
C1918 H1932 0.961 . S
C1919 C1916 1.539 . S
C1919 H1933 0.958 . S
C1919 H1934 0.961 . S
C1919 H1935 0.960 . S
H1920 C1904 0.931 . S
H1921 C1909 0.929 . S
H1922 C1910 0.960 . S
H1923 C1910 0.962 . S
H1924 C1910 0.960 . S
H1925 C1911 0.961 . S
H1926 C1911 0.961 . S
H1927 C1911 0.961 . S
H1928 C1912 0.931 . S
H1929 C1917 0.930 . S
H1930 C1918 0.956 . S
H1931 C1918 0.961 . S
H1932 C1918 0.961 . S
H1933 C1919 0.958 . S
H1934 C1919 0.961 . S
H1935 C1919 0.960 . S
C1936 C1937 1.391 . S
C1936 C1938 1.394 . S
C1936 H1952 0.931 . S
C1937 C1936 1.391 . S
C1937 C1941 1.381 . S
C1938 C1936 1.394 . S
C1938 C1939 1.369 . S
C1938 C1942 1.531 1_655 S
C1939 C1938 1.369 . S
C1939 C1940 1.410 . S
C1939 C1947 1.503 . S
C1940 C1939 1.410 . S
C1940 C1941 1.393 . S
C1940 C1943 1.511 1_545 S
C1941 C1937 1.381 . S
C1941 C1940 1.393 . S
C1941 H1953 0.922 1_545 S
C1942 C1938 1.531 1_455 S
C1942 H1954 0.960 . S
C1942 H1955 0.962 . S
C1942 H1956 0.960 . S
C1943 C1940 1.511 1_565 S
C1943 H1957 0.961 . S
C1943 H1958 0.961 . S
C1943 H1959 0.961 . S
C1944 C1945 1.370 1_655 S
C1944 C1946 1.363 . S
C1944 H1960 0.931 . S
C1945 C1944 1.370 1_455 S
C1945 C1949 1.408 . S
C1946 C1944 1.363 . S
C1946 C1947 1.370 . S
C1946 C1950 1.524 . S
C1947 C1939 1.503 . S
C1947 C1946 1.370 . S
C1947 C1948 1.403 1_655 S
C1948 C1947 1.403 1_455 S
C1948 C1949 1.404 . S
C1948 C1951 1.539 1_545 S
C1949 C1945 1.408 . S
C1949 C1948 1.404 . S
C1949 H1961 0.930 . S
C1950 C1946 1.524 . S
C1950 H1962 0.956 . S
C1950 H1963 0.961 . S
C1950 H1964 0.961 . S
C1951 C1948 1.539 1_565 S
C1951 H1965 0.958 1_565 S
C1951 H1966 0.961 . S
C1951 H1967 0.960 1_455 S
H1952 C1936 0.931 . S
H1953 C1941 0.922 1_565 S
H1954 C1942 0.960 . S
H1955 C1942 0.962 . S
H1956 C1942 0.960 . S
H1957 C1943 0.961 . S
H1958 C1943 0.961 . S
H1959 C1943 0.961 . S
H1960 C1944 0.931 . S
H1961 C1949 0.930 . S
H1962 C1950 0.956 . S
H1963 C1950 0.961 . S
H1964 C1950 0.961 . S
H1965 C1951 0.958 1_545 S
H1966 C1951 0.961 . S
H1967 C1951 0.960 1_655 S
C1968 C1969 1.391 . S
C1968 C1970 1.394 . S
C1968 H1984 0.931 . S
C1969 C1968 1.391 . S
C1969 C1973 1.376 . S
C1970 C1968 1.394 . S
C1970 C1971 1.369 . S
C1970 C1974 1.531 . S
C1971 C1970 1.369 . S
C1971 C1972 1.410 . S
C1971 C1979 1.503 . S
C1972 C1971 1.410 . S
C1972 C1973 1.392 . S
C1972 C1975 1.511 . S
C1973 C1969 1.376 . S
C1973 C1972 1.392 . S
C1973 H1985 0.929 . S
C1974 C1970 1.531 . S
C1974 H1986 0.960 . S
C1974 H1987 0.962 . S
C1974 H1988 0.960 . S
C1975 C1972 1.511 . S
C1975 H1989 0.961 . S
C1975 H1990 0.961 . S
C1975 H1991 0.961 . S
C1976 C1977 1.370 . S
C1976 C1978 1.363 . S
C1976 H1992 0.931 . S
C1977 C1976 1.370 . S
C1977 C1981 1.408 . S
C1978 C1976 1.363 . S
C1978 C1979 1.370 . S
C1978 C1982 1.524 . S
C1979 C1971 1.503 . S
C1979 C1978 1.370 . S
C1979 C1980 1.403 . S
C1980 C1979 1.403 . S
C1980 C1981 1.404 . S
C1980 C1983 1.539 . S
C1981 C1977 1.408 . S
C1981 C1980 1.404 . S
C1981 H1993 0.930 . S
C1982 C1978 1.524 . S
C1982 H1994 0.956 . S
C1982 H1995 0.961 . S
C1982 H1996 0.961 . S
C1983 C1980 1.539 . S
C1983 H1997 0.958 . S
C1983 H1998 0.961 . S
C1983 H1999 0.960 . S
H1984 C1968 0.931 . S
H1985 C1973 0.929 . S
H1986 C1974 0.960 . S
H1987 C1974 0.962 . S
H1988 C1974 0.960 . S
H1989 C1975 0.961 . S
H1990 C1975 0.961 . S
H1991 C1975 0.961 . S
H1992 C1976 0.931 . S
H1993 C1981 0.930 . S
H1994 C1982 0.956 . S
H1995 C1982 0.961 . S
H1996 C1982 0.961 . S
H1997 C1983 0.958 . S
H1998 C1983 0.961 . S
H1999 C1983 0.960 . S
C2000 C2001 1.391 . S
C2000 C2002 1.394 . S
C2000 H2016 0.931 . S
C2001 C2000 1.391 . S
C2001 C2005 1.376 . S
C2002 C2000 1.394 . S
C2002 C2003 1.369 . S
C2002 C2006 1.531 . S
C2003 C2002 1.369 . S
C2003 C2004 1.410 . S
C2003 C2011 1.503 . S
C2004 C2003 1.410 . S
C2004 C2005 1.392 . S
C2004 C2007 1.511 . S
C2005 C2001 1.376 . S
C2005 C2004 1.392 . S
C2005 H2017 0.929 . S
C2006 C2002 1.531 . S
C2006 H2018 0.960 . S
C2006 H2019 0.962 . S
C2006 H2020 0.960 . S
C2007 C2004 1.511 . S
C2007 H2021 0.961 . S
C2007 H2022 0.961 . S
C2007 H2023 0.961 . S
C2008 C2009 1.370 . S
C2008 C2010 1.363 . S
C2008 H2024 0.931 . S
C2009 C2008 1.370 . S
C2009 C2013 1.408 . S
C2010 C2008 1.363 . S
C2010 C2011 1.370 . S
C2010 C2014 1.524 . S
C2011 C2003 1.503 . S
C2011 C2010 1.370 . S
C2011 C2012 1.403 . S
C2012 C2011 1.403 . S
C2012 C2013 1.404 . S
C2012 C2015 1.539 1_545 S
C2013 C2009 1.408 . S
C2013 C2012 1.404 . S
C2013 H2025 0.930 1_545 S
C2014 C2010 1.524 . S
C2014 H2026 0.956 . S
C2014 H2027 0.961 . S
C2014 H2028 0.961 . S
C2015 C2012 1.539 1_565 S
C2015 H2029 0.958 . S
C2015 H2030 0.961 . S
C2015 H2031 0.960 . S
H2016 C2000 0.931 . S
H2017 C2005 0.929 . S
H2018 C2006 0.960 . S
H2019 C2006 0.962 . S
H2020 C2006 0.960 . S
H2021 C2007 0.961 . S
H2022 C2007 0.961 . S
H2023 C2007 0.961 . S
H2024 C2008 0.931 . S
H2025 C2013 0.930 1_565 S
H2026 C2014 0.956 . S
H2027 C2014 0.961 . S
H2028 C2014 0.961 . S
H2029 C2015 0.958 . S
H2030 C2015 0.961 . S
H2031 C2015 0.960 . S
C2032 C2033 1.391 . S
C2032 C2034 1.394 . S
C2032 H2048 0.931 . S
C2033 C2032 1.391 . S
C2033 C2037 1.376 . S
C2034 C2032 1.394 . S
C2034 C2035 1.369 . S
C2034 C2038 1.531 . S
C2035 C2034 1.369 . S
C2035 C2036 1.410 . S
C2035 C2043 1.503 . S
C2036 C2035 1.410 . S
C2036 C2037 1.392 . S
C2036 C2039 1.511 . S
C2037 C2033 1.376 . S
C2037 C2036 1.392 . S
C2037 H2049 0.929 . S
C2038 C2034 1.531 . S
C2038 H2050 0.960 . S
C2038 H2051 0.962 . S
C2038 H2052 0.960 . S
C2039 C2036 1.511 . S
C2039 H2053 0.961 . S
C2039 H2054 0.961 . S
C2039 H2055 0.961 . S
C2040 C2041 1.370 . S
C2040 C2042 1.363 . S
C2040 H2056 0.931 . S
C2041 C2040 1.370 . S
C2041 C2045 1.408 . S
C2042 C2040 1.363 . S
C2042 C2043 1.370 . S
C2042 C2046 1.524 . S
C2043 C2035 1.503 . S
C2043 C2042 1.370 . S
C2043 C2044 1.403 . S
C2044 C2043 1.403 . S
C2044 C2045 1.404 . S
C2044 C2047 1.539 . S
C2045 C2041 1.408 . S
C2045 C2044 1.404 . S
C2045 H2057 0.930 . S
C2046 C2042 1.524 . S
C2046 H2058 0.956 . S
C2046 H2059 0.961 . S
C2046 H2060 0.961 . S
C2047 C2044 1.539 . S
C2047 H2061 0.958 . S
C2047 H2062 0.961 . S
C2047 H2063 0.960 . S
H2048 C2032 0.931 . S
H2049 C2037 0.929 . S
H2050 C2038 0.960 . S
H2051 C2038 0.962 . S
H2052 C2038 0.960 . S
H2053 C2039 0.961 . S
H2054 C2039 0.961 . S
H2055 C2039 0.961 . S
H2056 C2040 0.931 . S
H2057 C2045 0.930 . S
H2058 C2046 0.956 . S
H2059 C2046 0.961 . S
H2060 C2046 0.961 . S
H2061 C2047 0.958 . S
H2062 C2047 0.961 . S
H2063 C2047 0.960 . S
C2064 C2065 1.391 . S
C2064 C2066 1.394 . S
C2064 H2080 0.931 . S
C2065 C2064 1.391 . S
C2065 C2069 1.376 . S
C2066 C2064 1.394 . S
C2066 C2067 1.369 . S
C2066 C2070 1.531 1_655 S
C2067 C2066 1.369 . S
C2067 C2068 1.410 . S
C2067 C2075 1.503 . S
C2068 C2067 1.410 . S
C2068 C2069 1.392 . S
C2068 C2071 1.511 . S
C2069 C2065 1.376 . S
C2069 C2068 1.392 . S
C2069 H2081 0.929 . S
C2070 C2066 1.531 1_455 S
C2070 H2082 0.960 . S
C2070 H2083 0.962 . S
C2070 H2084 0.960 . S
C2071 C2068 1.511 . S
C2071 H2085 0.961 . S
C2071 H2086 0.961 . S
C2071 H2087 0.961 . S
C2072 C2073 1.370 1_655 S
C2072 C2074 1.365 . S
C2072 H2088 0.929 1_645 S
C2073 C2072 1.370 1_455 S
C2073 C2077 1.408 . S
C2074 C2072 1.365 . S
C2074 C2075 1.370 . S
C2074 C2078 1.524 1_545 S
C2075 C2067 1.503 . S
C2075 C2074 1.370 . S
C2075 C2076 1.403 . S
C2076 C2075 1.403 . S
C2076 C2077 1.404 1_655 S
C2076 C2079 1.539 . S
C2077 C2073 1.408 . S
C2077 C2076 1.404 1_455 S
C2077 H2089 0.930 . S
C2078 C2074 1.524 1_565 S
C2078 H2090 0.956 . S
C2078 H2091 0.961 . S
C2078 H2092 0.961 . S
C2079 C2076 1.539 . S
C2079 H2093 0.958 1_655 S
C2079 H2094 0.961 . S
C2079 H2095 0.960 . S
H2080 C2064 0.931 . S
H2081 C2069 0.929 . S
H2082 C2070 0.960 . S
H2083 C2070 0.962 . S
H2084 C2070 0.960 . S
H2085 C2071 0.961 . S
H2086 C2071 0.961 . S
H2087 C2071 0.961 . S
H2088 C2072 0.929 1_465 S
H2089 C2077 0.930 . S
H2090 C2078 0.956 . S
H2091 C2078 0.961 . S
H2092 C2078 0.961 . S
H2093 C2079 0.958 1_455 S
H2094 C2079 0.961 . S
H2095 C2079 0.960 . S
C2096 C2097 1.391 . S
C2096 C2098 1.394 . S
C2096 H2112 0.931 . S
C2097 C2096 1.391 . S
C2097 C2101 1.376 . S
C2098 C2096 1.394 . S
C2098 C2099 1.369 . S
C2098 C2102 1.531 . S
C2099 C2098 1.369 . S
C2099 C2100 1.410 . S
C2099 C2107 1.503 . S
C2100 C2099 1.410 . S
C2100 C2101 1.392 . S
C2100 C2103 1.511 . S
C2101 C2097 1.376 . S
C2101 C2100 1.392 . S
C2101 H2113 0.929 . S
C2102 C2098 1.531 . S
C2102 H2114 0.960 . S
C2102 H2115 0.962 . S
C2102 H2116 0.960 . S
C2103 C2100 1.511 . S
C2103 H2117 0.961 . S
C2103 H2118 0.961 . S
C2103 H2119 0.961 . S
C2104 C2105 1.370 . S
C2104 C2106 1.363 . S
C2104 H2120 0.931 . S
C2105 C2104 1.370 . S
C2105 C2109 1.408 . S
C2106 C2104 1.363 . S
C2106 C2107 1.370 . S
C2106 C2110 1.524 . S
C2107 C2099 1.503 . S
C2107 C2106 1.370 . S
C2107 C2108 1.403 . S
C2108 C2107 1.403 . S
C2108 C2109 1.404 . S
C2108 C2111 1.539 . S
C2109 C2105 1.408 . S
C2109 C2108 1.404 . S
C2109 H2121 0.930 . S
C2110 C2106 1.524 . S
C2110 H2122 0.956 . S
C2110 H2123 0.961 . S
C2110 H2124 0.961 . S
C2111 C2108 1.539 . S
C2111 H2125 0.958 . S
C2111 H2126 0.961 . S
C2111 H2127 0.960 . S
H2112 C2096 0.931 . S
H2113 C2101 0.929 . S
H2114 C2102 0.960 . S
H2115 C2102 0.962 . S
H2116 C2102 0.960 . S
H2117 C2103 0.961 . S
H2118 C2103 0.961 . S
H2119 C2103 0.961 . S
H2120 C2104 0.931 . S
H2121 C2109 0.930 . S
H2122 C2110 0.956 . S
H2123 C2110 0.961 . S
H2124 C2110 0.961 . S
H2125 C2111 0.958 . S
H2126 C2111 0.961 . S
H2127 C2111 0.960 . S
C2128 C2129 1.391 . S
C2128 C2130 1.394 . S
C2128 H2144 0.931 . S
C2129 C2128 1.391 . S
C2129 C2133 1.376 . S
C2130 C2128 1.394 . S
C2130 C2131 1.369 . S
C2130 C2134 1.531 . S
C2131 C2130 1.369 . S
C2131 C2132 1.410 . S
C2131 C2139 1.503 . S
C2132 C2131 1.410 . S
C2132 C2133 1.392 . S
C2132 C2135 1.511 . S
C2133 C2129 1.376 . S
C2133 C2132 1.392 . S
C2133 H2145 0.929 . S
C2134 C2130 1.531 . S
C2134 H2146 0.960 . S
C2134 H2147 0.962 . S
C2134 H2148 0.960 . S
C2135 C2132 1.511 . S
C2135 H2149 0.922 1_545 S
C2135 H2150 0.961 . S
C2135 H2151 0.961 . S
C2136 C2137 1.370 . S
C2136 C2138 1.363 . S
C2136 H2152 0.931 . S
C2137 C2136 1.370 . S
C2137 C2141 1.408 . S
C2138 C2136 1.363 . S
C2138 C2139 1.370 . S
C2138 C2142 1.524 . S
C2139 C2131 1.503 . S
C2139 C2138 1.370 . S
C2139 C2140 1.403 . S
C2140 C2139 1.403 . S
C2140 C2141 1.404 . S
C2140 C2143 1.539 . S
C2141 C2137 1.408 . S
C2141 C2140 1.404 . S
C2141 H2153 0.930 . S
C2142 C2138 1.524 . S
C2142 H2154 0.956 . S
C2142 H2155 0.961 . S
C2142 H2156 0.961 . S
C2143 C2140 1.539 . S
C2143 H2157 0.958 . S
C2143 H2158 0.961 . S
C2143 H2159 0.960 . S
H2144 C2128 0.931 . S
H2145 C2133 0.929 . S
H2146 C2134 0.960 . S
H2147 C2134 0.962 . S
H2148 C2134 0.960 . S
H2149 C2135 0.922 1_565 S
H2150 C2135 0.961 . S
H2151 C2135 0.961 . S
H2152 C2136 0.931 . S
H2153 C2141 0.930 . S
H2154 C2142 0.956 . S
H2155 C2142 0.961 . S
H2156 C2142 0.961 . S
H2157 C2143 0.958 . S
H2158 C2143 0.961 . S
H2159 C2143 0.960 . S
C2160 C2161 1.391 . S
C2160 C2162 1.394 . S
C2160 H2176 0.931 . S
C2161 C2160 1.391 . S
C2161 C2165 1.376 . S
C2162 C2160 1.394 . S
C2162 C2163 1.369 . S
C2162 C2166 1.531 . S
C2163 C2162 1.369 . S
C2163 C2164 1.410 . S
C2163 C2171 1.503 . S
C2164 C2163 1.410 . S
C2164 C2165 1.392 . S
C2164 C2167 1.511 . S
C2165 C2161 1.376 . S
C2165 C2164 1.392 . S
C2165 H2177 0.929 . S
C2166 C2162 1.531 . S
C2166 H2178 0.960 . S
C2166 H2179 0.962 . S
C2166 H2180 0.960 . S
C2167 C2164 1.511 . S
C2167 H2181 0.961 . S
C2167 H2182 0.961 . S
C2167 H2183 0.961 . S
C2168 C2169 1.370 . S
C2168 C2170 1.363 . S
C2168 H2184 0.931 . S
C2169 C2168 1.370 . S
C2169 C2173 1.408 . S
C2170 C2168 1.363 . S
C2170 C2171 1.370 . S
C2170 C2174 1.524 . S
C2171 C2163 1.503 . S
C2171 C2170 1.370 . S
C2171 C2172 1.403 . S
C2172 C2171 1.403 . S
C2172 C2173 1.404 . S
C2172 C2175 1.539 . S
C2173 C2169 1.408 . S
C2173 C2172 1.404 . S
C2173 H2185 0.930 . S
C2174 C2170 1.524 . S
C2174 H2186 0.956 . S
C2174 H2187 0.961 . S
C2174 H2188 0.961 . S
C2175 C2172 1.539 . S
C2175 H2189 0.958 . S
C2175 H2190 0.961 . S
C2175 H2191 0.960 . S
H2176 C2160 0.931 . S
H2177 C2165 0.929 . S
H2178 C2166 0.960 . S
H2179 C2166 0.962 . S
H2180 C2166 0.960 . S
H2181 C2167 0.961 . S
H2182 C2167 0.961 . S
H2183 C2167 0.961 . S
H2184 C2168 0.931 . S
H2185 C2173 0.930 . S
H2186 C2174 0.956 . S
H2187 C2174 0.961 . S
H2188 C2174 0.961 . S
H2189 C2175 0.958 . S
H2190 C2175 0.961 . S
H2191 C2175 0.960 . S
C2192 C2193 1.391 1_556 S
C2192 C2194 1.394 . S
C2192 H2208 0.931 . S
C2193 C2192 1.391 1_554 S
C2193 C2197 1.376 . S
C2194 C2192 1.394 . S
C2194 C2195 1.369 1_556 S
C2194 C2198 1.531 . S
C2195 C2194 1.369 1_554 S
C2195 C2196 1.410 . S
C2195 C2203 1.503 . S
C2196 C2195 1.410 . S
C2196 C2197 1.392 . S
C2196 C2199 1.511 . S
C2197 C2193 1.376 . S
C2197 C2196 1.392 . S
C2197 H2209 0.929 . S
C2198 C2194 1.531 . S
C2198 H2210 0.960 . S
C2198 H2211 0.962 . S
C2198 H2212 0.960 . S
C2199 C2196 1.511 . S
C2199 H2213 0.961 . S
C2199 H2214 0.961 . S
C2199 H2215 0.961 . S
C2200 C2201 1.370 1_545 S
C2200 C2202 1.357 1_545 S
C2200 H2216 0.931 . S
C2201 C2200 1.370 1_565 S
C2201 C2205 1.408 . S
C2202 C2200 1.357 1_565 S
C2202 C2203 1.380 . S
C2202 C2206 1.520 1_565 S
C2203 C2195 1.503 . S
C2203 C2202 1.380 . S
C2203 C2204 1.403 . S
C2204 C2203 1.403 . S
C2204 C2205 1.404 . S
C2204 C2207 1.539 . S
C2205 C2201 1.408 . S
C2205 C2204 1.404 . S
C2205 H2217 0.930 . S
C2206 C2202 1.520 1_545 S
C2206 H2218 0.956 . S
C2206 H2219 0.961 . S
C2206 H2220 0.961 . S
C2207 C2204 1.539 . S
C2207 H2221 0.958 . S
C2207 H2222 0.961 . S
C2207 H2223 0.960 . S
H2208 C2192 0.931 . S
H2209 C2197 0.929 . S
H2210 C2198 0.960 . S
H2211 C2198 0.962 . S
H2212 C2198 0.960 . S
H2213 C2199 0.961 . S
H2214 C2199 0.961 . S
H2215 C2199 0.961 . S
H2216 C2200 0.931 . S
H2217 C2205 0.930 . S
H2218 C2206 0.956 . S
H2219 C2206 0.961 . S
H2220 C2206 0.961 . S
H2221 C2207 0.958 . S
H2222 C2207 0.961 . S
H2223 C2207 0.960 . S
C2224 C2225 1.391 . S
C2224 C2226 1.394 . S
C2224 H2240 0.931 . S
C2225 C2224 1.391 . S
C2225 C2229 1.388 . S
C2226 C2224 1.394 . S
C2226 C2227 1.369 . S
C2226 C2230 1.531 . S
C2227 C2226 1.369 . S
C2227 C2228 1.410 . S
C2227 C2235 1.503 . S
C2228 C2227 1.410 . S
C2228 C2229 1.402 . S
C2228 C2231 1.511 1_554 S
C2229 C2225 1.388 . S
C2229 C2228 1.402 . S
C2229 H2241 0.907 1_554 S
C2230 C2226 1.531 . S
C2230 H2242 0.960 . S
C2230 H2243 0.962 . S
C2230 H2244 0.960 . S
C2231 C2228 1.511 1_556 S
C2231 H2245 0.961 . S
C2231 H2246 0.961 . S
C2231 H2247 0.961 1_556 S
C2232 C2233 1.370 . S
C2232 C2234 1.363 . S
C2232 H2248 0.931 1_554 S
C2233 C2232 1.370 . S
C2233 C2237 1.408 . S
C2234 C2232 1.363 . S
C2234 C2235 1.370 . S
C2234 C2238 1.524 1_554 S
C2235 C2227 1.503 . S
C2235 C2234 1.370 . S
C2235 C2236 1.403 . S
C2236 C2235 1.403 . S
C2236 C2237 1.404 . S
C2236 C2239 1.539 . S
C2237 C2233 1.408 . S
C2237 C2236 1.404 . S
C2237 H2249 0.930 . S
C2238 C2234 1.524 1_556 S
C2238 H2250 0.956 . S
C2238 H2251 0.961 . S
C2238 H2252 0.961 . S
C2239 C2236 1.539 . S
C2239 H2253 0.958 . S
C2239 H2254 0.961 . S
C2239 H2255 0.960 . S
H2240 C2224 0.931 . S
H2241 C2229 0.907 1_556 S
H2242 C2230 0.960 . S
H2243 C2230 0.962 . S
H2244 C2230 0.960 . S
H2245 C2231 0.961 . S
H2246 C2231 0.961 . S
H2247 C2231 0.961 1_554 S
H2248 C2232 0.931 1_556 S
H2249 C2237 0.930 . S
H2250 C2238 0.956 . S
H2251 C2238 0.961 . S
H2252 C2238 0.961 . S
H2253 C2239 0.958 . S
H2254 C2239 0.961 . S
H2255 C2239 0.960 . S
C2256 C2257 1.391 . S
C2256 C2258 1.394 . S
C2256 H2272 0.931 . S
C2257 C2256 1.391 . S
C2257 C2261 1.376 . S
C2258 C2256 1.394 . S
C2258 C2259 1.369 . S
C2258 C2262 1.531 . S
C2259 C2258 1.369 . S
C2259 C2260 1.410 . S
C2259 C2267 1.503 . S
C2260 C2259 1.410 . S
C2260 C2261 1.392 . S
C2260 C2263 1.511 . S
C2261 C2257 1.376 . S
C2261 C2260 1.392 . S
C2261 H2273 0.929 . S
C2262 C2258 1.531 . S
C2262 H2274 0.960 . S
C2262 H2275 0.962 . S
C2262 H2276 0.960 . S
C2263 C2260 1.511 . S
C2263 H2277 0.961 . S
C2263 H2278 0.961 . S
C2263 H2279 0.961 . S
C2264 C2265 1.370 . S
C2264 C2266 1.363 . S
C2264 H2280 0.931 . S
C2265 C2264 1.370 . S
C2265 C2269 1.408 . S
C2266 C2264 1.363 . S
C2266 C2267 1.370 . S
C2266 C2270 1.524 . S
C2267 C2259 1.503 . S
C2267 C2266 1.370 . S
C2267 C2268 1.403 . S
C2268 C2267 1.403 . S
C2268 C2269 1.404 . S
C2268 C2271 1.539 . S
C2269 C2265 1.408 . S
C2269 C2268 1.404 . S
C2269 H2281 0.930 . S
C2270 C2266 1.524 . S
C2270 H2282 0.956 . S
C2270 H2283 0.961 . S
C2270 H2284 0.961 . S
C2271 C2268 1.539 . S
C2271 H2285 0.958 . S
C2271 H2286 0.961 . S
C2271 H2287 0.960 . S
H2272 C2256 0.931 . S
H2273 C2261 0.929 . S
H2274 C2262 0.960 . S
H2275 C2262 0.962 . S
H2276 C2262 0.960 . S
H2277 C2263 0.961 . S
H2278 C2263 0.961 . S
H2279 C2263 0.961 . S
H2280 C2264 0.931 . S
H2281 C2269 0.930 . S
H2282 C2270 0.956 . S
H2283 C2270 0.961 . S
H2284 C2270 0.961 . S
H2285 C2271 0.958 . S
H2286 C2271 0.961 . S
H2287 C2271 0.960 . S
C2288 C2289 1.391 . S
C2288 C2290 1.394 . S
C2288 H2304 0.931 . S
C2289 C2288 1.391 . S
C2289 C2293 1.376 . S
C2290 C2288 1.394 . S
C2290 C2291 1.369 . S
C2290 C2294 1.531 . S
C2291 C2290 1.369 . S
C2291 C2292 1.410 . S
C2291 C2299 1.503 . S
C2292 C2291 1.410 . S
C2292 C2293 1.392 . S
C2292 C2295 1.511 . S
C2293 C2289 1.376 . S
C2293 C2292 1.392 . S
C2293 H2305 0.929 . S
C2294 C2290 1.531 . S
C2294 H2306 0.960 . S
C2294 H2307 0.962 . S
C2294 H2308 0.960 . S
C2295 C2292 1.511 . S
C2295 H2309 0.961 . S
C2295 H2310 0.961 . S
C2295 H2311 0.961 . S
C2296 C2297 1.370 . S
C2296 C2298 1.363 . S
C2296 H2312 0.931 . S
C2297 C2296 1.370 . S
C2297 C2301 1.408 . S
C2298 C2296 1.363 . S
C2298 C2299 1.370 . S
C2298 C2302 1.524 . S
C2299 C2291 1.503 . S
C2299 C2298 1.370 . S
C2299 C2300 1.403 . S
C2300 C2299 1.403 . S
C2300 C2301 1.404 . S
C2300 C2303 1.539 . S
C2301 C2297 1.408 . S
C2301 C2300 1.404 . S
C2301 H2313 0.930 . S
C2302 C2298 1.524 . S
C2302 H2314 0.956 . S
C2302 H2315 0.961 . S
C2302 H2316 0.961 . S
C2303 C2300 1.539 . S
C2303 H2317 0.958 . S
C2303 H2318 0.961 . S
C2303 H2319 0.960 . S
H2304 C2288 0.931 . S
H2305 C2293 0.929 . S
H2306 C2294 0.960 . S
H2307 C2294 0.962 . S
H2308 C2294 0.960 . S
H2309 C2295 0.961 . S
H2310 C2295 0.961 . S
H2311 C2295 0.961 . S
H2312 C2296 0.931 . S
H2313 C2301 0.930 . S
H2314 C2302 0.956 . S
H2315 C2302 0.961 . S
H2316 C2302 0.961 . S
H2317 C2303 0.958 . S
H2318 C2303 0.961 . S
H2319 C2303 0.960 . S
C2320 C2321 1.391 . S
C2320 C2322 1.394 . S
C2320 H2336 0.931 . S
C2321 C2320 1.391 . S
C2321 C2325 1.376 . S
C2322 C2320 1.394 . S
C2322 C2323 1.369 . S
C2322 C2326 1.531 . S
C2323 C2322 1.369 . S
C2323 C2324 1.410 . S
C2323 C2331 1.503 . S
C2324 C2323 1.410 . S
C2324 C2325 1.392 . S
C2324 C2327 1.511 . S
C2325 C2321 1.376 . S
C2325 C2324 1.392 . S
C2325 H2337 0.929 . S
C2326 C2322 1.531 . S
C2326 H2338 0.960 . S
C2326 H2339 0.962 . S
C2326 H2340 0.960 . S
C2327 C2324 1.511 . S
C2327 H2341 0.961 . S
C2327 H2342 0.961 . S
C2327 H2343 0.961 . S
C2328 C2329 1.370 . S
C2328 C2330 1.363 . S
C2328 H2344 0.931 . S
C2329 C2328 1.370 . S
C2329 C2333 1.408 . S
C2330 C2328 1.363 . S
C2330 C2331 1.370 . S
C2330 C2334 1.524 . S
C2331 C2323 1.503 . S
C2331 C2330 1.370 . S
C2331 C2332 1.403 . S
C2332 C2331 1.403 . S
C2332 C2333 1.404 . S
C2332 C2335 1.539 . S
C2333 C2329 1.408 . S
C2333 C2332 1.404 . S
C2333 H2345 0.930 . S
C2334 C2330 1.524 . S
C2334 H2346 0.956 . S
C2334 H2347 0.961 . S
C2334 H2348 0.961 . S
C2335 C2332 1.539 . S
C2335 H2349 0.958 . S
C2335 H2350 0.961 . S
C2335 H2351 0.960 . S
H2336 C2320 0.931 . S
H2337 C2325 0.929 . S
H2338 C2326 0.960 . S
H2339 C2326 0.962 . S
H2340 C2326 0.960 . S
H2341 C2327 0.961 . S
H2342 C2327 0.961 . S
H2343 C2327 0.961 . S
H2344 C2328 0.931 . S
H2345 C2333 0.930 . S
H2346 C2334 0.956 . S
H2347 C2334 0.961 . S
H2348 C2334 0.961 . S
H2349 C2335 0.958 . S
H2350 C2335 0.961 . S
H2351 C2335 0.960 . S
C2352 C2353 1.391 . S
C2352 C2354 1.394 . S
C2352 H2368 0.931 . S
C2353 C2352 1.391 . S
C2353 C2357 1.376 . S
C2354 C2352 1.394 . S
C2354 C2355 1.369 . S
C2354 C2358 1.531 . S
C2355 C2354 1.369 . S
C2355 C2356 1.410 . S
C2355 C2363 1.503 . S
C2356 C2355 1.410 . S
C2356 C2357 1.392 . S
C2356 C2359 1.511 . S
C2357 C2353 1.376 . S
C2357 C2356 1.392 . S
C2357 H2369 0.929 . S
C2358 C2354 1.531 . S
C2358 H2370 0.960 . S
C2358 H2371 0.962 . S
C2358 H2372 0.960 . S
C2359 C2356 1.511 . S
C2359 H2373 0.961 . S
C2359 H2374 0.961 . S
C2359 H2375 0.961 . S
C2360 C2361 1.370 . S
C2360 C2362 1.363 . S
C2360 H2376 0.931 . S
C2361 C2360 1.370 . S
C2361 C2365 1.408 . S
C2362 C2360 1.363 . S
C2362 C2363 1.370 . S
C2362 C2366 1.524 . S
C2363 C2355 1.503 . S
C2363 C2362 1.370 . S
C2363 C2364 1.403 . S
C2364 C2363 1.403 . S
C2364 C2365 1.404 . S
C2364 C2367 1.539 . S
C2365 C2361 1.408 . S
C2365 C2364 1.404 . S
C2365 H2377 0.930 . S
C2366 C2362 1.524 . S
C2366 H2378 0.956 . S
C2366 H2379 0.961 . S
C2366 H2380 0.961 . S
C2367 C2364 1.539 . S
C2367 H2381 0.958 . S
C2367 H2382 0.961 . S
C2367 H2383 0.960 . S
H2368 C2352 0.931 . S
H2369 C2357 0.929 . S
H2370 C2358 0.960 . S
H2371 C2358 0.962 . S
H2372 C2358 0.960 . S
H2373 C2359 0.961 . S
H2374 C2359 0.961 . S
H2375 C2359 0.961 . S
H2376 C2360 0.931 . S
H2377 C2365 0.930 . S
H2378 C2366 0.956 . S
H2379 C2366 0.961 . S
H2380 C2366 0.961 . S
H2381 C2367 0.958 . S
H2382 C2367 0.961 . S
H2383 C2367 0.960 . S
C2384 C2385 1.391 . S
C2384 C2386 1.394 . S
C2384 H2400 0.931 . S
C2385 C2384 1.391 . S
C2385 C2389 1.376 . S
C2386 C2384 1.394 . S
C2386 C2387 1.369 . S
C2386 C2390 1.531 . S
C2387 C2386 1.369 . S
C2387 C2388 1.410 . S
C2387 C2395 1.503 . S
C2388 C2387 1.410 . S
C2388 C2389 1.392 . S
C2388 C2391 1.511 . S
C2389 C2385 1.376 . S
C2389 C2388 1.392 . S
C2389 H2401 0.929 . S
C2390 C2386 1.531 . S
C2390 H2402 0.960 . S
C2390 H2403 0.962 . S
C2390 H2404 0.960 . S
C2391 C2388 1.511 . S
C2391 H2405 0.961 . S
C2391 H2406 0.961 . S
C2391 H2407 0.961 . S
C2392 C2393 1.370 . S
C2392 C2394 1.363 . S
C2392 H2408 0.931 . S
C2393 C2392 1.370 . S
C2393 C2397 1.408 . S
C2394 C2392 1.363 . S
C2394 C2395 1.370 . S
C2394 C2398 1.524 . S
C2395 C2387 1.503 . S
C2395 C2394 1.370 . S
C2395 C2396 1.403 . S
C2396 C2395 1.403 . S
C2396 C2397 1.404 . S
C2396 C2399 1.539 . S
C2397 C2393 1.408 . S
C2397 C2396 1.404 . S
C2397 H2409 0.930 . S
C2398 C2394 1.524 . S
C2398 H2410 0.956 . S
C2398 H2411 0.961 . S
C2398 H2412 0.961 . S
C2399 C2396 1.539 . S
C2399 H2413 0.958 . S
C2399 H2414 0.961 . S
C2399 H2415 0.960 . S
H2400 C2384 0.931 . S
H2401 C2389 0.929 . S
H2402 C2390 0.960 . S
H2403 C2390 0.962 . S
H2404 C2390 0.960 . S
H2405 C2391 0.961 . S
H2406 C2391 0.961 . S
H2407 C2391 0.961 . S
H2408 C2392 0.931 . S
H2409 C2397 0.930 . S
H2410 C2398 0.956 . S
H2411 C2398 0.961 . S
H2412 C2398 0.961 . S
H2413 C2399 0.958 . S
H2414 C2399 0.961 . S
H2415 C2399 0.960 . S
C2416 C2417 1.391 . S
C2416 C2418 1.394 . S
C2416 H2432 0.931 . S
C2417 C2416 1.391 . S
C2417 C2421 1.376 . S
C2418 C2416 1.394 . S
C2418 C2419 1.369 . S
C2418 C2422 1.531 . S
C2419 C2418 1.369 . S
C2419 C2420 1.410 . S
C2419 C2427 1.503 . S
C2420 C2419 1.410 . S
C2420 C2421 1.392 . S
C2420 C2423 1.511 . S
C2421 C2417 1.376 . S
C2421 C2420 1.392 . S
C2421 H2433 0.929 . S
C2422 C2418 1.531 . S
C2422 H2434 0.960 . S
C2422 H2435 0.962 . S
C2422 H2436 0.960 . S
C2423 C2420 1.511 . S
C2423 H2437 0.961 . S
C2423 H2438 0.961 . S
C2423 H2439 0.961 . S
C2424 C2425 1.370 . S
C2424 C2426 1.363 . S
C2424 H2440 0.931 . S
C2425 C2424 1.370 . S
C2425 C2429 1.408 . S
C2426 C2424 1.363 . S
C2426 C2427 1.370 . S
C2426 C2430 1.524 . S
C2427 C2419 1.503 . S
C2427 C2426 1.370 . S
C2427 C2428 1.403 . S
C2428 C2427 1.403 . S
C2428 C2429 1.404 . S
C2428 C2431 1.539 . S
C2429 C2425 1.408 . S
C2429 C2428 1.404 . S
C2429 H2441 0.930 . S
C2430 C2426 1.524 . S
C2430 H2442 0.956 . S
C2430 H2443 0.961 . S
C2430 H2444 0.961 . S
C2431 C2428 1.539 . S
C2431 H2445 0.958 . S
C2431 H2446 0.961 . S
C2431 H2447 0.960 . S
H2432 C2416 0.931 . S
H2433 C2421 0.929 . S
H2434 C2422 0.960 . S
H2435 C2422 0.962 . S
H2436 C2422 0.960 . S
H2437 C2423 0.961 . S
H2438 C2423 0.961 . S
H2439 C2423 0.961 . S
H2440 C2424 0.931 . S
H2441 C2429 0.930 . S
H2442 C2430 0.956 . S
H2443 C2430 0.961 . S
H2444 C2430 0.961 . S
H2445 C2431 0.958 . S
H2446 C2431 0.961 . S
H2447 C2431 0.960 . S
C2448 C2449 1.391 . S
C2448 C2450 1.394 . S
C2448 H2464 0.931 . S
C2449 C2448 1.391 . S
C2449 C2453 1.376 . S
C2450 C2448 1.394 . S
C2450 C2451 1.369 . S
C2450 C2454 1.531 . S
C2451 C2450 1.369 . S
C2451 C2452 1.410 . S
C2451 C2459 1.503 . S
C2452 C2451 1.410 . S
C2452 C2453 1.392 . S
C2452 C2455 1.511 . S
C2453 C2449 1.376 . S
C2453 C2452 1.392 . S
C2453 H2465 0.929 . S
C2454 C2450 1.531 . S
C2454 H2466 0.960 . S
C2454 H2467 0.962 . S
C2454 H2468 0.960 . S
C2455 C2452 1.511 . S
C2455 H2469 0.961 . S
C2455 H2470 0.961 . S
C2455 H2471 0.961 . S
C2456 C2457 1.370 . S
C2456 C2458 1.363 . S
C2456 H2472 0.931 . S
C2457 C2456 1.370 . S
C2457 C2461 1.408 . S
C2458 C2456 1.363 . S
C2458 C2459 1.370 . S
C2458 C2462 1.524 . S
C2459 C2451 1.503 . S
C2459 C2458 1.370 . S
C2459 C2460 1.403 . S
C2460 C2459 1.403 . S
C2460 C2461 1.404 . S
C2460 C2463 1.539 . S
C2461 C2457 1.408 . S
C2461 C2460 1.404 . S
C2461 H2473 0.930 . S
C2462 C2458 1.524 . S
C2462 H2474 0.956 . S
C2462 H2475 0.961 . S
C2462 H2476 0.961 . S
C2463 C2460 1.539 . S
C2463 H2477 0.958 . S
C2463 H2478 0.961 . S
C2463 H2479 0.960 . S
H2464 C2448 0.931 . S
H2465 C2453 0.929 . S
H2466 C2454 0.960 . S
H2467 C2454 0.962 . S
H2468 C2454 0.960 . S
H2469 C2455 0.961 . S
H2470 C2455 0.961 . S
H2471 C2455 0.961 . S
H2472 C2456 0.931 . S
H2473 C2461 0.930 . S
H2474 C2462 0.956 . S
H2475 C2462 0.961 . S
H2476 C2462 0.961 . S
H2477 C2463 0.958 . S
H2478 C2463 0.961 . S
H2479 C2463 0.960 . S
C2480 C2481 1.391 . S
C2480 C2482 1.394 . S
C2480 H2496 0.931 . S
C2481 C2480 1.391 . S
C2481 C2485 1.376 . S
C2482 C2480 1.394 . S
C2482 C2483 1.369 . S
C2482 C2486 1.531 . S
C2483 C2482 1.369 . S
C2483 C2484 1.410 . S
C2483 C2491 1.503 . S
C2484 C2483 1.410 . S
C2484 C2485 1.392 . S
C2484 C2487 1.511 . S
C2485 C2481 1.376 . S
C2485 C2484 1.392 . S
C2485 H2497 0.929 . S
C2486 C2482 1.531 . S
C2486 H2498 0.960 . S
C2486 H2499 0.962 . S
C2486 H2500 0.960 . S
C2487 C2484 1.511 . S
C2487 H2501 0.961 . S
C2487 H2502 0.961 . S
C2487 H2503 0.961 . S
C2488 C2489 1.370 . S
C2488 C2490 1.363 . S
C2488 H2504 0.931 . S
C2489 C2488 1.370 . S
C2489 C2493 1.408 . S
C2490 C2488 1.363 . S
C2490 C2491 1.370 . S
C2490 C2494 1.524 . S
C2491 C2483 1.503 . S
C2491 C2490 1.370 . S
C2491 C2492 1.403 . S
C2492 C2491 1.403 . S
C2492 C2493 1.404 . S
C2492 C2495 1.539 . S
C2493 C2489 1.408 . S
C2493 C2492 1.404 . S
C2493 H2505 0.930 . S
C2494 C2490 1.524 . S
C2494 H2506 0.956 . S
C2494 H2507 0.961 . S
C2494 H2508 0.961 . S
C2495 C2492 1.539 . S
C2495 H2509 0.958 . S
C2495 H2510 0.961 . S
C2495 H2511 0.960 . S
H2496 C2480 0.931 . S
H2497 C2485 0.929 . S
H2498 C2486 0.960 . S
H2499 C2486 0.962 . S
H2500 C2486 0.960 . S
H2501 C2487 0.961 . S
H2502 C2487 0.961 . S
H2503 C2487 0.961 . S
H2504 C2488 0.931 . S
H2505 C2493 0.930 . S
H2506 C2494 0.956 . S
H2507 C2494 0.961 . S
H2508 C2494 0.961 . S
H2509 C2495 0.958 . S
H2510 C2495 0.961 . S
H2511 C2495 0.960 . S
C2512 C2513 1.391 . S
C2512 C2514 1.394 . S
C2512 H2528 0.931 . S
C2513 C2512 1.391 . S
C2513 C2517 1.376 . S
C2514 C2512 1.394 . S
C2514 C2515 1.369 . S
C2514 C2518 1.531 . S
C2515 C2514 1.369 . S
C2515 C2516 1.410 . S
C2515 C2523 1.503 . S
C2516 C2515 1.410 . S
C2516 C2517 1.392 . S
C2516 C2519 1.511 . S
C2517 C2513 1.376 . S
C2517 C2516 1.392 . S
C2517 H2529 0.929 . S
C2518 C2514 1.531 . S
C2518 H2530 0.960 . S
C2518 H2531 0.962 . S
C2518 H2532 0.960 . S
C2519 C2516 1.511 . S
C2519 H2533 0.961 . S
C2519 H2534 0.961 . S
C2519 H2535 0.961 . S
C2520 C2521 1.370 . S
C2520 C2522 1.363 . S
C2520 H2536 0.931 . S
C2521 C2520 1.370 . S
C2521 C2525 1.408 . S
C2522 C2520 1.363 . S
C2522 C2523 1.370 . S
C2522 C2526 1.524 . S
C2523 C2515 1.503 . S
C2523 C2522 1.370 . S
C2523 C2524 1.403 . S
C2524 C2523 1.403 . S
C2524 C2525 1.404 . S
C2524 C2527 1.539 . S
C2525 C2521 1.408 . S
C2525 C2524 1.404 . S
C2525 H2537 0.930 . S
C2526 C2522 1.524 . S
C2526 H2538 0.956 . S
C2526 H2539 0.961 . S
C2526 H2540 0.961 . S
C2527 C2524 1.539 . S
C2527 H2541 0.958 . S
C2527 H2542 0.961 . S
C2527 H2543 0.960 . S
H2528 C2512 0.931 . S
H2529 C2517 0.929 . S
H2530 C2518 0.960 . S
H2531 C2518 0.962 . S
H2532 C2518 0.960 . S
H2533 C2519 0.961 . S
H2534 C2519 0.961 . S
H2535 C2519 0.961 . S
H2536 C2520 0.931 . S
H2537 C2525 0.930 . S
H2538 C2526 0.956 . S
H2539 C2526 0.961 . S
H2540 C2526 0.961 . S
H2541 C2527 0.958 . S
H2542 C2527 0.961 . S
H2543 C2527 0.960 . S
C2544 C2545 1.391 . S
C2544 C2546 1.394 . S
C2544 H2560 0.931 . S
C2545 C2544 1.391 . S
C2545 C2549 1.376 . S
C2546 C2544 1.394 . S
C2546 C2547 1.369 . S
C2546 C2550 1.531 . S
C2547 C2546 1.369 . S
C2547 C2548 1.410 . S
C2547 C2555 1.503 . S
C2548 C2547 1.410 . S
C2548 C2549 1.392 . S
C2548 C2551 1.511 . S
C2549 C2545 1.376 . S
C2549 C2548 1.392 . S
C2549 H2561 0.929 . S
C2550 C2546 1.531 . S
C2550 H2562 0.960 . S
C2550 H2563 0.962 . S
C2550 H2564 0.960 . S
C2551 C2548 1.511 . S
C2551 H2565 0.961 . S
C2551 H2566 0.961 . S
C2551 H2567 0.961 . S
C2552 C2553 1.370 . S
C2552 C2554 1.363 . S
C2552 H2568 0.931 . S
C2553 C2552 1.370 . S
C2553 C2557 1.408 . S
C2554 C2552 1.363 . S
C2554 C2555 1.370 . S
C2554 C2558 1.524 . S
C2555 C2547 1.503 . S
C2555 C2554 1.370 . S
C2555 C2556 1.403 . S
C2556 C2555 1.403 . S
C2556 C2557 1.404 . S
C2556 C2559 1.539 . S
C2557 C2553 1.408 . S
C2557 C2556 1.404 . S
C2557 H2569 0.930 . S
C2558 C2554 1.524 . S
C2558 H2570 0.956 . S
C2558 H2571 0.961 . S
C2558 H2572 0.961 . S
C2559 C2556 1.539 . S
C2559 H2573 0.958 . S
C2559 H2574 0.961 . S
C2559 H2575 0.960 . S
H2560 C2544 0.931 . S
H2561 C2549 0.929 . S
H2562 C2550 0.960 . S
H2563 C2550 0.962 . S
H2564 C2550 0.960 . S
H2565 C2551 0.961 . S
H2566 C2551 0.961 . S
H2567 C2551 0.961 . S
H2568 C2552 0.931 . S
H2569 C2557 0.930 . S
H2570 C2558 0.956 . S
H2571 C2558 0.961 . S
H2572 C2558 0.961 . S
H2573 C2559 0.958 . S
H2574 C2559 0.961 . S
H2575 C2559 0.960 . S
C2576 C2577 1.391 . S
C2576 C2578 1.394 . S
C2576 H2592 0.931 . S
C2577 C2576 1.391 . S
C2577 C2581 1.376 . S
C2578 C2576 1.394 . S
C2578 C2579 1.369 . S
C2578 C2582 1.531 1_455 S
C2579 C2578 1.369 . S
C2579 C2580 1.410 . S
C2579 C2587 1.503 . S
C2580 C2579 1.410 . S
C2580 C2581 1.392 . S
C2580 C2583 1.511 . S
C2581 C2577 1.376 . S
C2581 C2580 1.392 . S
C2581 H2593 0.929 . S
C2582 C2578 1.531 1_655 S
C2582 H2594 0.960 . S
C2582 H2595 0.962 . S
C2582 H2596 0.960 . S
C2583 C2580 1.511 . S
C2583 H2597 0.961 . S
C2583 H2598 0.961 . S
C2583 H2599 0.961 . S
C2584 C2585 1.370 . S
C2584 C2586 1.363 . S
C2584 H2600 0.931 . S
C2585 C2584 1.370 . S
C2585 C2589 1.408 . S
C2586 C2584 1.363 . S
C2586 C2587 1.370 . S
C2586 C2590 1.524 . S
C2587 C2579 1.503 . S
C2587 C2586 1.370 . S
C2587 C2588 1.403 . S
C2588 C2587 1.403 . S
C2588 C2589 1.404 . S
C2588 C2591 1.539 . S
C2589 C2585 1.408 . S
C2589 C2588 1.404 . S
C2589 H2601 0.930 . S
C2590 C2586 1.524 . S
C2590 H2602 0.956 . S
C2590 H2603 0.961 . S
C2590 H2604 0.961 . S
C2591 C2588 1.539 . S
C2591 H2605 0.958 . S
C2591 H2606 0.961 . S
C2591 H2607 0.960 . S
H2592 C2576 0.931 . S
H2593 C2581 0.929 . S
H2594 C2582 0.960 . S
H2595 C2582 0.962 . S
H2596 C2582 0.960 . S
H2597 C2583 0.961 . S
H2598 C2583 0.961 . S
H2599 C2583 0.961 . S
H2600 C2584 0.931 . S
H2601 C2589 0.930 . S
H2602 C2590 0.956 . S
H2603 C2590 0.961 . S
H2604 C2590 0.961 . S
H2605 C2591 0.958 . S
H2606 C2591 0.961 . S
H2607 C2591 0.960 . S
C2608 C2609 1.391 . S
C2608 C2610 1.394 . S
C2608 H2624 0.931 . S
C2609 C2608 1.391 . S
C2609 C2613 1.376 . S
C2610 C2608 1.394 . S
C2610 C2611 1.369 . S
C2610 C2614 1.531 . S
C2611 C2610 1.369 . S
C2611 C2612 1.410 . S
C2611 C2619 1.503 . S
C2612 C2611 1.410 . S
C2612 C2613 1.392 . S
C2612 C2615 1.511 . S
C2613 C2609 1.376 . S
C2613 C2612 1.392 . S
C2613 H2625 0.929 . S
C2614 C2610 1.531 . S
C2614 H2626 0.960 . S
C2614 H2627 0.962 . S
C2614 H2628 0.960 . S
C2615 C2612 1.511 . S
C2615 H2629 0.961 . S
C2615 H2630 0.961 . S
C2615 H2631 0.961 . S
C2616 C2617 1.370 . S
C2616 C2618 1.363 . S
C2616 H2632 0.931 . S
C2617 C2616 1.370 . S
C2617 C2621 1.408 . S
C2618 C2616 1.363 . S
C2618 C2619 1.370 . S
C2618 C2622 1.524 . S
C2619 C2611 1.503 . S
C2619 C2618 1.370 . S
C2619 C2620 1.403 . S
C2620 C2619 1.403 . S
C2620 C2621 1.404 . S
C2620 C2623 1.539 . S
C2621 C2617 1.408 . S
C2621 C2620 1.404 . S
C2621 H2633 0.930 . S
C2622 C2618 1.524 . S
C2622 H2634 0.956 . S
C2622 H2635 0.961 . S
C2622 H2636 0.961 . S
C2623 C2620 1.539 . S
C2623 H2637 0.958 . S
C2623 H2638 0.961 . S
C2623 H2639 0.960 . S
H2624 C2608 0.931 . S
H2625 C2613 0.929 . S
H2626 C2614 0.960 . S
H2627 C2614 0.962 . S
H2628 C2614 0.960 . S
H2629 C2615 0.961 . S
H2630 C2615 0.961 . S
H2631 C2615 0.961 . S
H2632 C2616 0.931 . S
H2633 C2621 0.930 . S
H2634 C2622 0.956 . S
H2635 C2622 0.961 . S
H2636 C2622 0.961 . S
H2637 C2623 0.958 . S
H2638 C2623 0.961 . S
H2639 C2623 0.960 . S
C2640 C2641 1.391 . S
C2640 C2642 1.394 . S
C2640 H2656 0.931 . S
C2641 C2640 1.391 . S
C2641 C2645 1.376 . S
C2642 C2640 1.394 . S
C2642 C2643 1.369 . S
C2642 C2646 1.531 . S
C2643 C2642 1.369 . S
C2643 C2644 1.410 . S
C2643 C2651 1.503 . S
C2644 C2643 1.410 . S
C2644 C2645 1.392 . S
C2644 C2647 1.511 . S
C2645 C2641 1.376 . S
C2645 C2644 1.392 . S
C2645 H2657 0.929 . S
C2646 C2642 1.531 . S
C2646 H2658 0.960 . S
C2646 H2659 0.962 . S
C2646 H2660 0.960 . S
C2647 C2644 1.511 . S
C2647 H2661 0.961 . S
C2647 H2662 0.961 . S
C2647 H2663 0.961 . S
C2648 C2649 1.370 . S
C2648 C2650 1.363 . S
C2648 H2664 0.931 . S
C2649 C2648 1.370 . S
C2649 C2653 1.408 . S
C2650 C2648 1.363 . S
C2650 C2651 1.370 . S
C2650 C2654 1.524 . S
C2651 C2643 1.503 . S
C2651 C2650 1.370 . S
C2651 C2652 1.403 . S
C2652 C2651 1.403 . S
C2652 C2653 1.404 . S
C2652 C2655 1.539 . S
C2653 C2649 1.408 . S
C2653 C2652 1.404 . S
C2653 H2665 0.930 1_556 S
C2654 C2650 1.524 . S
C2654 H2666 0.956 . S
C2654 H2667 0.961 . S
C2654 H2668 0.961 . S
C2655 C2652 1.539 . S
C2655 H2669 0.958 . S
C2655 H2670 0.961 1_556 S
C2655 H2671 0.960 . S
H2656 C2640 0.931 . S
H2657 C2645 0.929 . S
H2658 C2646 0.960 . S
H2659 C2646 0.962 . S
H2660 C2646 0.960 . S
H2661 C2647 0.961 . S
H2662 C2647 0.961 . S
H2663 C2647 0.961 . S
H2664 C2648 0.931 . S
H2665 C2653 0.930 1_554 S
H2666 C2654 0.956 . S
H2667 C2654 0.961 . S
H2668 C2654 0.961 . S
H2669 C2655 0.958 . S
H2670 C2655 0.961 1_554 S
H2671 C2655 0.960 . S
C2672 C2673 1.391 . S
C2672 C2674 1.394 . S
C2672 H2688 0.931 . S
C2673 C2672 1.391 . S
C2673 C2677 1.376 . S
C2674 C2672 1.394 . S
C2674 C2675 1.369 . S
C2674 C2678 1.531 . S
C2675 C2674 1.369 . S
C2675 C2676 1.410 . S
C2675 C2683 1.503 . S
C2676 C2675 1.410 . S
C2676 C2677 1.392 . S
C2676 C2679 1.511 . S
C2677 C2673 1.376 . S
C2677 C2676 1.392 . S
C2677 H2689 0.929 . S
C2678 C2674 1.531 . S
C2678 H2690 0.960 . S
C2678 H2691 0.962 . S
C2678 H2692 0.960 . S
C2679 C2676 1.511 . S
C2679 H2693 0.961 . S
C2679 H2694 0.961 . S
C2679 H2695 0.961 . S
C2680 C2681 1.370 . S
C2680 C2682 1.363 . S
C2680 H2696 0.931 . S
C2681 C2680 1.370 . S
C2681 C2685 1.408 . S
C2682 C2680 1.363 . S
C2682 C2683 1.370 . S
C2682 C2686 1.524 . S
C2683 C2675 1.503 . S
C2683 C2682 1.370 . S
C2683 C2684 1.403 . S
C2684 C2683 1.403 . S
C2684 C2685 1.404 . S
C2684 C2687 1.539 . S
C2685 C2681 1.408 . S
C2685 C2684 1.404 . S
C2685 H2697 0.930 . S
C2686 C2682 1.524 . S
C2686 H2698 0.956 . S
C2686 H2699 0.961 . S
C2686 H2700 0.961 . S
C2687 C2684 1.539 . S
C2687 H2701 0.958 . S
C2687 H2702 0.961 . S
C2687 H2703 0.960 . S
H2688 C2672 0.931 . S
H2689 C2677 0.929 . S
H2690 C2678 0.960 . S
H2691 C2678 0.962 . S
H2692 C2678 0.960 . S
H2693 C2679 0.961 . S
H2694 C2679 0.961 . S
H2695 C2679 0.961 . S
H2696 C2680 0.931 . S
H2697 C2685 0.930 . S
H2698 C2686 0.956 . S
H2699 C2686 0.961 . S
H2700 C2686 0.961 . S
H2701 C2687 0.958 . S
H2702 C2687 0.961 . S
H2703 C2687 0.960 . S
C2704 C2705 1.391 . S
C2704 C2706 1.394 . S
C2704 H2720 0.931 . S
C2705 C2704 1.391 . S
C2705 C2709 1.376 . S
C2706 C2704 1.394 . S
C2706 C2707 1.369 . S
C2706 C2710 1.531 . S
C2707 C2706 1.369 . S
C2707 C2708 1.410 . S
C2707 C2715 1.503 . S
C2708 C2707 1.410 . S
C2708 C2709 1.392 . S
C2708 C2711 1.511 . S
C2709 C2705 1.376 . S
C2709 C2708 1.392 . S
C2709 H2721 0.929 . S
C2710 C2706 1.531 . S
C2710 H2722 0.960 . S
C2710 H2723 0.962 1_545 S
C2710 H2724 0.960 . S
C2711 C2708 1.511 . S
C2711 H2725 0.961 . S
C2711 H2726 0.961 . S
C2711 H2727 0.961 . S
C2712 C2713 1.370 . S
C2712 C2714 1.363 . S
C2712 H2728 0.931 . S
C2713 C2712 1.370 . S
C2713 C2717 1.408 . S
C2714 C2712 1.363 . S
C2714 C2715 1.370 . S
C2714 C2718 1.524 . S
C2715 C2707 1.503 . S
C2715 C2714 1.370 . S
C2715 C2716 1.403 . S
C2716 C2715 1.403 . S
C2716 C2717 1.404 . S
C2716 C2719 1.539 . S
C2717 C2713 1.408 . S
C2717 C2716 1.404 . S
C2717 H2729 0.930 . S
C2718 C2714 1.524 . S
C2718 H2730 0.956 1_545 S
C2718 H2731 0.961 . S
C2718 H2732 0.961 . S
C2719 C2716 1.539 . S
C2719 H2733 0.958 . S
C2719 H2734 0.961 . S
C2719 H2735 0.960 . S
H2720 C2704 0.931 . S
H2721 C2709 0.929 . S
H2722 C2710 0.960 . S
H2723 C2710 0.962 1_565 S
H2724 C2710 0.960 . S
H2725 C2711 0.961 . S
H2726 C2711 0.961 . S
H2727 C2711 0.961 . S
H2728 C2712 0.931 . S
H2729 C2717 0.930 . S
H2730 C2718 0.956 1_565 S
H2731 C2718 0.961 . S
H2732 C2718 0.961 . S
H2733 C2719 0.958 . S
H2734 C2719 0.961 . S
H2735 C2719 0.960 . S
C2736 C2737 1.391 . S
C2736 C2738 1.394 . S
C2736 H2752 0.931 . S
C2737 C2736 1.391 . S
C2737 C2741 1.376 . S
C2738 C2736 1.394 . S
C2738 C2739 1.369 . S
C2738 C2742 1.531 . S
C2739 C2738 1.369 . S
C2739 C2740 1.410 . S
C2739 C2747 1.503 . S
C2740 C2739 1.410 . S
C2740 C2741 1.392 . S
C2740 C2743 1.511 . S
C2741 C2737 1.376 . S
C2741 C2740 1.392 . S
C2741 H2753 0.929 . S
C2742 C2738 1.531 . S
C2742 H2754 0.960 . S
C2742 H2755 0.962 . S
C2742 H2756 0.960 . S
C2743 C2740 1.511 . S
C2743 H2757 0.961 . S
C2743 H2758 0.961 . S
C2743 H2759 0.961 . S
C2744 C2745 1.370 . S
C2744 C2746 1.363 . S
C2744 H2760 0.931 . S
C2745 C2744 1.370 . S
C2745 C2749 1.408 . S
C2746 C2744 1.363 . S
C2746 C2747 1.370 . S
C2746 C2750 1.524 . S
C2747 C2739 1.503 . S
C2747 C2746 1.370 . S
C2747 C2748 1.403 . S
C2748 C2747 1.403 . S
C2748 C2749 1.404 . S
C2748 C2751 1.539 . S
C2749 C2745 1.408 . S
C2749 C2748 1.404 . S
C2749 H2761 0.930 . S
C2750 C2746 1.524 . S
C2750 H2762 0.956 . S
C2750 H2763 0.961 . S
C2750 H2764 0.961 . S
C2751 C2748 1.539 . S
C2751 H2765 0.958 . S
C2751 H2766 0.961 . S
C2751 H2767 0.960 . S
H2752 C2736 0.931 . S
H2753 C2741 0.929 . S
H2754 C2742 0.960 . S
H2755 C2742 0.962 . S
H2756 C2742 0.960 . S
H2757 C2743 0.961 . S
H2758 C2743 0.961 . S
H2759 C2743 0.961 . S
H2760 C2744 0.931 . S
H2761 C2749 0.930 . S
H2762 C2750 0.956 . S
H2763 C2750 0.961 . S
H2764 C2750 0.961 . S
H2765 C2751 0.958 . S
H2766 C2751 0.961 . S
H2767 C2751 0.960 . S
C2768 C2769 1.391 . S
C2768 C2770 1.394 . S
C2768 H2784 0.928 1_545 S
C2769 C2768 1.391 . S
C2769 C2773 1.376 . S
C2770 C2768 1.394 . S
C2770 C2771 1.369 . S
C2770 C2774 1.535 . S
C2771 C2770 1.369 . S
C2771 C2772 1.410 . S
C2771 C2779 1.503 . S
C2772 C2771 1.410 . S
C2772 C2773 1.392 . S
C2772 C2775 1.511 . S
C2773 C2769 1.376 . S
C2773 C2772 1.392 . S
C2773 H2785 0.929 . S
C2774 C2770 1.535 . S
C2774 H2786 0.952 1_545 S
C2774 H2787 0.974 . S
C2774 H2788 0.953 1_545 S
C2775 C2772 1.511 . S
C2775 H2789 0.961 . S
C2775 H2790 0.961 . S
C2775 H2791 0.961 . S
C2776 C2777 1.370 . S
C2776 C2778 1.363 . S
C2776 H2792 0.931 . S
C2777 C2776 1.370 . S
C2777 C2781 1.408 . S
C2778 C2776 1.363 . S
C2778 C2779 1.370 . S
C2778 C2782 1.524 . S
C2779 C2771 1.503 . S
C2779 C2778 1.370 . S
C2779 C2780 1.402 . S
C2780 C2779 1.402 . S
C2780 C2781 1.404 . S
C2780 C2783 1.540 1_545 S
C2781 C2777 1.408 . S
C2781 C2780 1.404 . S
C2781 H2793 0.930 1_545 S
C2782 C2778 1.524 . S
C2782 H2794 0.956 . S
C2782 H2795 0.961 . S
C2782 H2796 0.961 . S
C2783 C2780 1.540 1_565 S
C2783 H2797 0.958 . S
C2783 H2798 0.961 . S
C2783 H2799 0.960 . S
H2784 C2768 0.928 1_565 S
H2785 C2773 0.929 . S
H2786 C2774 0.952 1_565 S
H2787 C2774 0.974 . S
H2788 C2774 0.953 1_565 S
H2789 C2775 0.961 . S
H2790 C2775 0.961 . S
H2791 C2775 0.961 . S
H2792 C2776 0.931 . S
H2793 C2781 0.930 1_565 S
H2794 C2782 0.956 . S
H2795 C2782 0.961 . S
H2796 C2782 0.961 . S
H2797 C2783 0.958 . S
H2798 C2783 0.961 . S
H2799 C2783 0.960 . S
C2800 C2801 1.391 . S
C2800 C2802 1.394 . S
C2800 H2816 0.931 . S
C2801 C2800 1.391 . S
C2801 C2805 1.376 . S
C2802 C2800 1.394 . S
C2802 C2803 1.369 . S
C2802 C2806 1.531 . S
C2803 C2802 1.369 . S
C2803 C2804 1.410 . S
C2803 C2811 1.503 . S
C2804 C2803 1.410 . S
C2804 C2805 1.392 . S
C2804 C2807 1.511 . S
C2805 C2801 1.376 . S
C2805 C2804 1.392 . S
C2805 H2817 0.929 . S
C2806 C2802 1.531 . S
C2806 H2818 0.960 . S
C2806 H2819 0.962 . S
C2806 H2820 0.960 . S
C2807 C2804 1.511 . S
C2807 H2821 0.961 . S
C2807 H2822 0.961 . S
C2807 H2823 0.961 . S
C2808 C2809 1.370 . S
C2808 C2810 1.363 . S
C2808 H2824 0.931 . S
C2809 C2808 1.370 . S
C2809 C2813 1.408 . S
C2810 C2808 1.363 . S
C2810 C2811 1.370 . S
C2810 C2814 1.524 . S
C2811 C2803 1.503 . S
C2811 C2810 1.370 . S
C2811 C2812 1.403 . S
C2812 C2811 1.403 . S
C2812 C2813 1.404 . S
C2812 C2815 1.539 . S
C2813 C2809 1.408 . S
C2813 C2812 1.404 . S
C2813 H2825 0.930 . S
C2814 C2810 1.524 . S
C2814 H2826 0.956 . S
C2814 H2827 0.961 . S
C2814 H2828 0.961 . S
C2815 C2812 1.539 . S
C2815 H2829 0.958 . S
C2815 H2830 0.961 . S
C2815 H2831 0.960 . S
H2816 C2800 0.931 . S
H2817 C2805 0.929 . S
H2818 C2806 0.960 . S
H2819 C2806 0.962 . S
H2820 C2806 0.960 . S
H2821 C2807 0.961 . S
H2822 C2807 0.961 . S
H2823 C2807 0.961 . S
H2824 C2808 0.931 . S
H2825 C2813 0.930 . S
H2826 C2814 0.956 . S
H2827 C2814 0.961 . S
H2828 C2814 0.961 . S
H2829 C2815 0.958 . S
H2830 C2815 0.961 . S
H2831 C2815 0.960 . S
C2832 C2833 1.391 . S
C2832 C2834 1.394 . S
C2832 H2848 0.931 . S
C2833 C2832 1.391 . S
C2833 C2837 1.376 . S
C2834 C2832 1.394 . S
C2834 C2835 1.369 . S
C2834 C2838 1.531 . S
C2835 C2834 1.369 . S
C2835 C2836 1.410 . S
C2835 C2843 1.503 . S
C2836 C2835 1.410 . S
C2836 C2837 1.392 . S
C2836 C2839 1.511 . S
C2837 C2833 1.376 . S
C2837 C2836 1.392 . S
C2837 H2849 0.929 . S
C2838 C2834 1.531 . S
C2838 H2850 0.960 1_545 S
C2838 H2851 0.962 . S
C2838 H2852 0.960 1_545 S
C2839 C2836 1.511 . S
C2839 H2853 0.961 . S
C2839 H2854 0.961 . S
C2839 H2855 0.961 . S
C2840 C2841 1.370 . S
C2840 C2842 1.363 . S
C2840 H2856 0.931 . S
C2841 C2840 1.370 . S
C2841 C2845 1.408 . S
C2842 C2840 1.363 . S
C2842 C2843 1.370 . S
C2842 C2846 1.524 . S
C2843 C2835 1.503 . S
C2843 C2842 1.370 . S
C2843 C2844 1.403 . S
C2844 C2843 1.403 . S
C2844 C2845 1.404 . S
C2844 C2847 1.539 . S
C2845 C2841 1.408 . S
C2845 C2844 1.404 . S
C2845 H2857 0.930 . S
C2846 C2842 1.524 . S
C2846 H2858 0.956 . S
C2846 H2859 0.961 . S
C2846 H2860 0.961 . S
C2847 C2844 1.539 . S
C2847 H2861 0.958 1_545 S
C2847 H2862 0.963 1_545 S
C2847 H2863 0.960 . S
H2848 C2832 0.931 . S
H2849 C2837 0.929 . S
H2850 C2838 0.960 1_565 S
H2851 C2838 0.962 . S
H2852 C2838 0.960 1_565 S
H2853 C2839 0.961 . S
H2854 C2839 0.961 . S
H2855 C2839 0.961 . S
H2856 C2840 0.931 . S
H2857 C2845 0.930 . S
H2858 C2846 0.956 . S
H2859 C2846 0.961 . S
H2860 C2846 0.961 . S
H2861 C2847 0.958 1_565 S
H2862 C2847 0.963 1_565 S
H2863 C2847 0.960 . S
C2864 C2865 1.391 . S
C2864 C2866 1.394 . S
C2864 H2880 0.931 . S
C2865 C2864 1.391 . S
C2865 C2869 1.376 . S
C2866 C2864 1.394 . S
C2866 C2867 1.369 . S
C2866 C2870 1.531 . S
C2867 C2866 1.369 . S
C2867 C2868 1.410 . S
C2867 C2875 1.503 . S
C2868 C2867 1.410 . S
C2868 C2869 1.392 . S
C2868 C2871 1.511 . S
C2869 C2865 1.376 . S
C2869 C2868 1.392 . S
C2869 H2881 0.929 . S
C2870 C2866 1.531 . S
C2870 H2882 0.960 . S
C2870 H2883 0.962 . S
C2870 H2884 0.960 . S
C2871 C2868 1.511 . S
C2871 H2885 0.961 . S
C2871 H2886 0.961 . S
C2871 H2887 0.961 . S
C2872 C2873 1.370 . S
C2872 C2874 1.363 . S
C2872 H2888 0.931 . S
C2873 C2872 1.370 . S
C2873 C2877 1.408 . S
C2874 C2872 1.363 . S
C2874 C2875 1.370 . S
C2874 C2878 1.524 . S
C2875 C2867 1.503 . S
C2875 C2874 1.370 . S
C2875 C2876 1.403 . S
C2876 C2875 1.403 . S
C2876 C2877 1.404 . S
C2876 C2879 1.539 . S
C2877 C2873 1.408 . S
C2877 C2876 1.404 . S
C2877 H2889 0.930 . S
C2878 C2874 1.524 . S
C2878 H2890 0.956 . S
C2878 H2891 0.961 . S
C2878 H2892 0.961 . S
C2879 C2876 1.539 . S
C2879 H2893 0.958 . S
C2879 H2894 0.961 . S
C2879 H2895 0.960 . S
H2880 C2864 0.931 . S
H2881 C2869 0.929 . S
H2882 C2870 0.960 . S
H2883 C2870 0.962 . S
H2884 C2870 0.960 . S
H2885 C2871 0.961 . S
H2886 C2871 0.961 . S
H2887 C2871 0.961 . S
H2888 C2872 0.931 . S
H2889 C2877 0.930 . S
H2890 C2878 0.956 . S
H2891 C2878 0.961 . S
H2892 C2878 0.961 . S
H2893 C2879 0.958 . S
H2894 C2879 0.961 . S
H2895 C2879 0.960 . S
C2896 C2897 1.391 1_565 S
C2896 C2898 1.394 . S
C2896 H2912 0.931 . S
C2897 C2896 1.391 1_545 S
C2897 C2901 1.376 . S
C2898 C2896 1.394 . S
C2898 C2899 1.369 1_565 S
C2898 C2902 1.531 . S
C2899 C2898 1.369 1_545 S
C2899 C2900 1.410 . S
C2899 C2907 1.503 . S
C2900 C2899 1.410 . S
C2900 C2901 1.392 . S
C2900 C2903 1.511 . S
C2901 C2897 1.376 . S
C2901 C2900 1.392 . S
C2901 H2913 0.929 . S
C2902 C2898 1.531 . S
C2902 H2914 0.960 . S
C2902 H2915 0.962 . S
C2902 H2916 0.960 . S
C2903 C2900 1.511 . S
C2903 H2917 0.961 . S
C2903 H2918 0.961 . S
C2903 H2919 0.961 . S
C2904 C2905 1.370 . S
C2904 C2906 1.363 . S
C2904 H2920 0.931 . S
C2905 C2904 1.370 . S
C2905 C2909 1.408 . S
C2906 C2904 1.363 . S
C2906 C2907 1.370 . S
C2906 C2910 1.524 . S
C2907 C2899 1.503 . S
C2907 C2906 1.370 . S
C2907 C2908 1.403 . S
C2908 C2907 1.403 . S
C2908 C2909 1.404 . S
C2908 C2911 1.539 1_545 S
C2909 C2905 1.408 . S
C2909 C2908 1.404 . S
C2909 H2921 0.930 . S
C2910 C2906 1.524 . S
C2910 H2922 0.956 . S
C2910 H2923 0.961 . S
C2910 H2924 0.961 . S
C2911 C2908 1.539 1_565 S
C2911 H2925 0.958 . S
C2911 H2926 0.961 1_565 S
C2911 H2927 0.960 1_565 S
H2912 C2896 0.931 . S
H2913 C2901 0.929 . S
H2914 C2902 0.960 . S
H2915 C2902 0.962 . S
H2916 C2902 0.960 . S
H2917 C2903 0.961 . S
H2918 C2903 0.961 . S
H2919 C2903 0.961 . S
H2920 C2904 0.931 . S
H2921 C2909 0.930 . S
H2922 C2910 0.956 . S
H2923 C2910 0.961 . S
H2924 C2910 0.961 . S
H2925 C2911 0.958 . S
H2926 C2911 0.961 1_545 S
H2927 C2911 0.960 1_545 S
C2928 C2929 1.391 . S
C2928 C2930 1.394 . S
C2928 H2944 0.931 . S
C2929 C2928 1.391 . S
C2929 C2933 1.376 . S
C2930 C2928 1.394 . S
C2930 C2931 1.369 . S
C2930 C2934 1.531 . S
C2931 C2930 1.369 . S
C2931 C2932 1.410 . S
C2931 C2939 1.503 . S
C2932 C2931 1.410 . S
C2932 C2933 1.392 . S
C2932 C2935 1.511 . S
C2933 C2929 1.376 . S
C2933 C2932 1.392 . S
C2933 H2945 0.929 . S
C2934 C2930 1.531 . S
C2934 H2946 0.960 . S
C2934 H2947 0.962 . S
C2934 H2948 0.960 . S
C2935 C2932 1.511 . S
C2935 H2949 0.961 . S
C2935 H2950 0.961 . S
C2935 H2951 0.961 . S
C2936 C2937 1.370 . S
C2936 C2938 1.363 . S
C2936 H2952 0.931 . S
C2937 C2936 1.370 . S
C2937 C2941 1.408 . S
C2938 C2936 1.363 . S
C2938 C2939 1.370 . S
C2938 C2942 1.524 . S
C2939 C2931 1.503 . S
C2939 C2938 1.370 . S
C2939 C2940 1.403 . S
C2940 C2939 1.403 . S
C2940 C2941 1.404 . S
C2940 C2943 1.539 . S
C2941 C2937 1.408 . S
C2941 C2940 1.404 . S
C2941 H2953 0.930 . S
C2942 C2938 1.524 . S
C2942 H2954 0.956 . S
C2942 H2955 0.961 . S
C2942 H2956 0.961 . S
C2943 C2940 1.539 . S
C2943 H2957 0.958 . S
C2943 H2958 0.961 . S
C2943 H2959 0.960 . S
H2944 C2928 0.931 . S
H2945 C2933 0.929 . S
H2946 C2934 0.960 . S
H2947 C2934 0.962 . S
H2948 C2934 0.960 . S
H2949 C2935 0.961 . S
H2950 C2935 0.961 . S
H2951 C2935 0.961 . S
H2952 C2936 0.931 . S
H2953 C2941 0.930 . S
H2954 C2942 0.956 . S
H2955 C2942 0.961 . S
H2956 C2942 0.961 . S
H2957 C2943 0.958 . S
H2958 C2943 0.961 . S
H2959 C2943 0.960 . S
C2960 C2961 1.391 . S
C2960 C2962 1.394 . S
C2960 H2976 0.931 . S
C2961 C2960 1.391 . S
C2961 C2965 1.376 . S
C2962 C2960 1.394 . S
C2962 C2963 1.369 . S
C2962 C2966 1.531 . S
C2963 C2962 1.369 . S
C2963 C2964 1.410 . S
C2963 C2971 1.503 . S
C2964 C2963 1.410 . S
C2964 C2965 1.392 . S
C2964 C2967 1.511 . S
C2965 C2961 1.376 . S
C2965 C2964 1.392 . S
C2965 H2977 0.929 . S
C2966 C2962 1.531 . S
C2966 H2978 0.966 . S
C2966 H2979 0.962 . S
C2966 H2980 0.960 1_554 S
C2967 C2964 1.511 . S
C2967 H2981 0.961 . S
C2967 H2982 0.961 . S
C2967 H2983 0.961 . S
C2968 C2969 1.370 . S
C2968 C2970 1.363 . S
C2968 H2984 0.931 . S
C2969 C2968 1.370 . S
C2969 C2973 1.408 . S
C2970 C2968 1.363 . S
C2970 C2971 1.370 . S
C2970 C2974 1.524 . S
C2971 C2963 1.503 . S
C2971 C2970 1.370 . S
C2971 C2972 1.403 . S
C2972 C2971 1.403 . S
C2972 C2973 1.404 . S
C2972 C2975 1.539 . S
C2973 C2969 1.408 . S
C2973 C2972 1.404 . S
C2973 H2985 0.930 . S
C2974 C2970 1.524 . S
C2974 H2986 0.956 . S
C2974 H2987 0.961 . S
C2974 H2988 0.961 . S
C2975 C2972 1.539 . S
C2975 H2989 0.958 . S
C2975 H2990 0.961 . S
C2975 H2991 0.960 . S
H2976 C2960 0.931 . S
H2977 C2965 0.929 . S
H2978 C2966 0.966 . S
H2979 C2966 0.962 . S
H2980 C2966 0.960 1_556 S
H2981 C2967 0.961 . S
H2982 C2967 0.961 . S
H2983 C2967 0.961 . S
H2984 C2968 0.931 . S
H2985 C2973 0.930 . S
H2986 C2974 0.956 . S
H2987 C2974 0.961 . S
H2988 C2974 0.961 . S
H2989 C2975 0.958 . S
H2990 C2975 0.961 . S
H2991 C2975 0.960 . S
C2992 C2993 1.391 . S
C2992 C2994 1.394 . S
C2992 H3008 0.931 . S
C2993 C2992 1.391 . S
C2993 C2997 1.376 . S
C2994 C2992 1.394 . S
C2994 C2995 1.369 . S
C2994 C2998 1.531 . S
C2995 C2994 1.369 . S
C2995 C2996 1.410 . S
C2995 C3003 1.503 . S
C2996 C2995 1.410 . S
C2996 C2997 1.392 . S
C2996 C2999 1.511 . S
C2997 C2993 1.376 . S
C2997 C2996 1.392 . S
C2997 H3009 0.929 . S
C2998 C2994 1.531 . S
C2998 H3010 0.960 . S
C2998 H3011 0.962 . S
C2998 H3012 0.960 . S
C2999 C2996 1.511 . S
C2999 H3013 0.961 . S
C2999 H3014 0.961 . S
C2999 H3015 0.961 1_554 S
C3000 C3001 1.370 . S
C3000 C3002 1.363 . S
C3000 H3016 0.931 . S
C3001 C3000 1.370 . S
C3001 C3005 1.408 . S
C3002 C3000 1.363 . S
C3002 C3003 1.370 . S
C3002 C3006 1.524 . S
C3003 C2995 1.503 . S
C3003 C3002 1.370 . S
C3003 C3004 1.403 . S
C3004 C3003 1.403 . S
C3004 C3005 1.404 . S
C3004 C3007 1.539 . S
C3005 C3001 1.408 . S
C3005 C3004 1.404 . S
C3005 H3017 0.930 . S
C3006 C3002 1.524 . S
C3006 H3018 0.956 . S
C3006 H3019 0.961 . S
C3006 H3020 0.961 . S
C3007 C3004 1.539 . S
C3007 H3021 0.958 . S
C3007 H3022 0.962 1_554 S
C3007 H3023 0.959 1_554 S
H3008 C2992 0.931 . S
H3009 C2997 0.929 . S
H3010 C2998 0.960 . S
H3011 C2998 0.962 . S
H3012 C2998 0.960 . S
H3013 C2999 0.961 . S
H3014 C2999 0.961 . S
H3015 C2999 0.961 1_556 S
H3016 C3000 0.931 . S
H3017 C3005 0.930 . S
H3018 C3006 0.956 . S
H3019 C3006 0.961 . S
H3020 C3006 0.961 . S
H3021 C3007 0.958 . S
H3022 C3007 0.962 1_556 S
H3023 C3007 0.959 1_556 S
C3024 C3025 1.391 . S
C3024 C3026 1.394 . S
C3024 H3040 0.931 . S
C3025 C3024 1.391 . S
C3025 C3029 1.376 . S
C3026 C3024 1.394 . S
C3026 C3027 1.369 . S
C3026 C3030 1.531 . S
C3027 C3026 1.369 . S
C3027 C3028 1.410 . S
C3027 C3035 1.503 . S
C3028 C3027 1.410 . S
C3028 C3029 1.392 . S
C3028 C3031 1.511 . S
C3029 C3025 1.376 . S
C3029 C3028 1.392 . S
C3029 H3041 0.929 . S
C3030 C3026 1.531 . S
C3030 H3042 0.960 . S
C3030 H3043 0.962 . S
C3030 H3044 0.960 . S
C3031 C3028 1.511 . S
C3031 H3045 0.961 . S
C3031 H3046 0.961 . S
C3031 H3047 0.961 . S
C3032 C3033 1.370 . S
C3032 C3034 1.363 . S
C3032 H3048 0.931 . S
C3033 C3032 1.370 . S
C3033 C3037 1.408 . S
C3034 C3032 1.363 . S
C3034 C3035 1.370 . S
C3034 C3038 1.524 . S
C3035 C3027 1.503 . S
C3035 C3034 1.370 . S
C3035 C3036 1.403 . S
C3036 C3035 1.403 . S
C3036 C3037 1.404 . S
C3036 C3039 1.539 . S
C3037 C3033 1.408 . S
C3037 C3036 1.404 . S
C3037 H3049 0.930 . S
C3038 C3034 1.524 . S
C3038 H3050 0.956 . S
C3038 H3051 0.961 . S
C3038 H3052 0.961 . S
C3039 C3036 1.539 . S
C3039 H3053 0.958 . S
C3039 H3054 0.961 . S
C3039 H3055 0.960 . S
H3040 C3024 0.931 . S
H3041 C3029 0.929 . S
H3042 C3030 0.960 . S
H3043 C3030 0.962 . S
H3044 C3030 0.960 . S
H3045 C3031 0.961 . S
H3046 C3031 0.961 . S
H3047 C3031 0.961 . S
H3048 C3032 0.931 . S
H3049 C3037 0.930 . S
H3050 C3038 0.956 . S
H3051 C3038 0.961 . S
H3052 C3038 0.961 . S
H3053 C3039 0.958 . S
H3054 C3039 0.961 . S
H3055 C3039 0.960 . S
C3056 C3057 1.391 . S
C3056 C3058 1.394 . S
C3056 H3072 0.931 . S
C3057 C3056 1.391 . S
C3057 C3061 1.376 . S
C3058 C3056 1.394 . S
C3058 C3059 1.369 . S
C3058 C3062 1.531 . S
C3059 C3058 1.369 . S
C3059 C3060 1.410 . S
C3059 C3067 1.503 . S
C3060 C3059 1.410 . S
C3060 C3061 1.392 . S
C3060 C3063 1.511 . S
C3061 C3057 1.376 . S
C3061 C3060 1.392 . S
C3061 H3073 0.929 . S
C3062 C3058 1.531 . S
C3062 H3074 0.960 . S
C3062 H3075 0.962 . S
C3062 H3076 0.960 . S
C3063 C3060 1.511 . S
C3063 H3077 0.961 . S
C3063 H3078 0.961 . S
C3063 H3079 0.961 . S
C3064 C3065 1.370 . S
C3064 C3066 1.363 . S
C3064 H3080 0.931 . S
C3065 C3064 1.370 . S
C3065 C3069 1.408 . S
C3066 C3064 1.363 . S
C3066 C3067 1.370 . S
C3066 C3070 1.524 . S
C3067 C3059 1.503 . S
C3067 C3066 1.370 . S
C3067 C3068 1.403 . S
C3068 C3067 1.403 . S
C3068 C3069 1.404 . S
C3068 C3071 1.539 . S
C3069 C3065 1.408 . S
C3069 C3068 1.404 . S
C3069 H3081 0.930 . S
C3070 C3066 1.524 . S
C3070 H3082 0.956 . S
C3070 H3083 0.961 . S
C3070 H3084 0.961 . S
C3071 C3068 1.539 . S
C3071 H3085 0.958 . S
C3071 H3086 0.961 . S
C3071 H3087 0.960 . S
H3072 C3056 0.931 . S
H3073 C3061 0.929 . S
H3074 C3062 0.960 . S
H3075 C3062 0.962 . S
H3076 C3062 0.960 . S
H3077 C3063 0.961 . S
H3078 C3063 0.961 . S
H3079 C3063 0.961 . S
H3080 C3064 0.931 . S
H3081 C3069 0.930 . S
H3082 C3070 0.956 . S
H3083 C3070 0.961 . S
H3084 C3070 0.961 . S
H3085 C3071 0.958 . S
H3086 C3071 0.961 . S
H3087 C3071 0.960 . S
C3088 C3089 1.391 . S
C3088 C3090 1.394 . S
C3088 H3104 0.931 . S
C3089 C3088 1.391 . S
C3089 C3093 1.376 1_565 S
C3090 C3088 1.394 . S
C3090 C3091 1.369 . S
C3090 C3094 1.531 . S
C3091 C3090 1.369 . S
C3091 C3092 1.410 . S
C3091 C3099 1.503 . S
C3092 C3091 1.410 . S
C3092 C3093 1.392 1_565 S
C3092 C3095 1.511 . S
C3093 C3089 1.376 1_545 S
C3093 C3092 1.392 1_545 S
C3093 H3105 0.929 . S
C3094 C3090 1.531 . S
C3094 H3106 0.960 . S
C3094 H3107 0.962 . S
C3094 H3108 0.960 . S
C3095 C3092 1.511 . S
C3095 H3109 0.961 1_565 S
C3095 H3110 0.961 . S
C3095 H3111 0.961 . S
C3096 C3097 1.370 . S
C3096 C3098 1.363 . S
C3096 H3112 0.931 . S
C3097 C3096 1.370 . S
C3097 C3101 1.408 . S
C3098 C3096 1.363 . S
C3098 C3099 1.370 . S
C3098 C3102 1.524 . S
C3099 C3091 1.503 . S
C3099 C3098 1.370 . S
C3099 C3100 1.403 . S
C3100 C3099 1.403 . S
C3100 C3101 1.404 . S
C3100 C3103 1.539 . S
C3101 C3097 1.408 . S
C3101 C3100 1.404 . S
C3101 H3113 0.930 . S
C3102 C3098 1.524 . S
C3102 H3114 0.956 . S
C3102 H3115 0.961 . S
C3102 H3116 0.961 . S
C3103 C3100 1.539 . S
C3103 H3117 0.958 . S
C3103 H3118 0.961 . S
C3103 H3119 0.960 . S
H3104 C3088 0.931 . S
H3105 C3093 0.929 . S
H3106 C3094 0.960 . S
H3107 C3094 0.962 . S
H3108 C3094 0.960 . S
H3109 C3095 0.961 1_545 S
H3110 C3095 0.961 . S
H3111 C3095 0.961 . S
H3112 C3096 0.931 . S
H3113 C3101 0.930 . S
H3114 C3102 0.956 . S
H3115 C3102 0.961 . S
H3116 C3102 0.961 . S
H3117 C3103 0.958 . S
H3118 C3103 0.961 . S
H3119 C3103 0.960 . S
C3120 C3121 1.391 . S
C3120 C3122 1.394 . S
C3120 H3136 0.931 . S
C3121 C3120 1.391 . S
C3121 C3125 1.376 . S
C3122 C3120 1.394 . S
C3122 C3123 1.369 . S
C3122 C3126 1.531 . S
C3123 C3122 1.369 . S
C3123 C3124 1.410 . S
C3123 C3131 1.503 . S
C3124 C3123 1.410 . S
C3124 C3125 1.392 . S
C3124 C3127 1.511 . S
C3125 C3121 1.376 . S
C3125 C3124 1.392 . S
C3125 H3137 0.929 . S
C3126 C3122 1.531 . S
C3126 H3138 0.960 . S
C3126 H3139 0.962 . S
C3126 H3140 0.960 . S
C3127 C3124 1.511 . S
C3127 H3141 0.961 . S
C3127 H3142 0.961 . S
C3127 H3143 0.961 . S
C3128 C3129 1.370 . S
C3128 C3130 1.363 . S
C3128 H3144 0.931 . S
C3129 C3128 1.370 . S
C3129 C3133 1.408 . S
C3130 C3128 1.363 . S
C3130 C3131 1.370 . S
C3130 C3134 1.524 . S
C3131 C3123 1.503 . S
C3131 C3130 1.370 . S
C3131 C3132 1.403 . S
C3132 C3131 1.403 . S
C3132 C3133 1.404 . S
C3132 C3135 1.539 . S
C3133 C3129 1.408 . S
C3133 C3132 1.404 . S
C3133 H3145 0.930 . S
C3134 C3130 1.524 . S
C3134 H3146 0.956 . S
C3134 H3147 0.961 . S
C3134 H3148 0.961 . S
C3135 C3132 1.539 . S
C3135 H3149 0.958 . S
C3135 H3150 0.961 . S
C3135 H3151 0.960 . S
H3136 C3120 0.931 . S
H3137 C3125 0.929 . S
H3138 C3126 0.960 . S
H3139 C3126 0.962 . S
H3140 C3126 0.960 . S
H3141 C3127 0.961 . S
H3142 C3127 0.961 . S
H3143 C3127 0.961 . S
H3144 C3128 0.931 . S
H3145 C3133 0.930 . S
H3146 C3134 0.956 . S
H3147 C3134 0.961 . S
H3148 C3134 0.961 . S
H3149 C3135 0.958 . S
H3150 C3135 0.961 . S
H3151 C3135 0.960 . S
C3152 C3153 1.391 . S
C3152 C3154 1.394 . S
C3152 H3168 0.931 . S
C3153 C3152 1.391 . S
C3153 C3157 1.376 . S
C3154 C3152 1.394 . S
C3154 C3155 1.369 . S
C3154 C3158 1.531 . S
C3155 C3154 1.369 . S
C3155 C3156 1.410 . S
C3155 C3163 1.503 . S
C3156 C3155 1.410 . S
C3156 C3157 1.392 . S
C3156 C3159 1.511 . S
C3157 C3153 1.376 . S
C3157 C3156 1.392 . S
C3157 H3169 0.929 . S
C3158 C3154 1.531 . S
C3158 H3170 0.960 . S
C3158 H3171 0.962 . S
C3158 H3172 0.960 . S
C3159 C3156 1.511 . S
C3159 H3173 0.961 . S
C3159 H3174 0.961 . S
C3159 H3175 0.961 . S
C3160 C3161 1.370 . S
C3160 C3162 1.363 . S
C3160 H3176 0.931 . S
C3161 C3160 1.370 . S
C3161 C3165 1.408 . S
C3162 C3160 1.363 . S
C3162 C3163 1.370 . S
C3162 C3166 1.524 . S
C3163 C3155 1.503 . S
C3163 C3162 1.370 . S
C3163 C3164 1.403 . S
C3164 C3163 1.403 . S
C3164 C3165 1.404 . S
C3164 C3167 1.539 . S
C3165 C3161 1.408 . S
C3165 C3164 1.404 . S
C3165 H3177 0.930 . S
C3166 C3162 1.524 . S
C3166 H3178 0.956 . S
C3166 H3179 0.961 . S
C3166 H3180 0.961 . S
C3167 C3164 1.539 . S
C3167 H3181 0.958 . S
C3167 H3182 0.961 . S
C3167 H3183 0.960 . S
H3168 C3152 0.931 . S
H3169 C3157 0.929 . S
H3170 C3158 0.960 . S
H3171 C3158 0.962 . S
H3172 C3158 0.960 . S
H3173 C3159 0.961 . S
H3174 C3159 0.961 . S
H3175 C3159 0.961 . S
H3176 C3160 0.931 . S
H3177 C3165 0.930 . S
H3178 C3166 0.956 . S
H3179 C3166 0.961 . S
H3180 C3166 0.961 . S
H3181 C3167 0.958 . S
H3182 C3167 0.961 . S
H3183 C3167 0.960 . S
C3184 C3185 1.391 . S
C3184 C3186 1.394 . S
C3184 H3200 0.931 . S
C3185 C3184 1.391 . S
C3185 C3189 1.376 . S
C3186 C3184 1.394 . S
C3186 C3187 1.369 . S
C3186 C3190 1.531 . S
C3187 C3186 1.369 . S
C3187 C3188 1.410 . S
C3187 C3195 1.503 . S
C3188 C3187 1.410 . S
C3188 C3189 1.392 . S
C3188 C3191 1.511 . S
C3189 C3185 1.376 . S
C3189 C3188 1.392 . S
C3189 H3201 0.929 . S
C3190 C3186 1.531 . S
C3190 H3202 0.960 . S
C3190 H3203 0.962 . S
C3190 H3204 0.960 . S
C3191 C3188 1.511 . S
C3191 H3205 0.961 . S
C3191 H3206 0.961 . S
C3191 H3207 0.961 . S
C3192 C3193 1.370 . S
C3192 C3194 1.363 . S
C3192 H3208 0.931 . S
C3193 C3192 1.370 . S
C3193 C3197 1.408 . S
C3194 C3192 1.363 . S
C3194 C3195 1.370 . S
C3194 C3198 1.524 . S
C3195 C3187 1.503 . S
C3195 C3194 1.370 . S
C3195 C3196 1.403 . S
C3196 C3195 1.403 . S
C3196 C3197 1.404 . S
C3196 C3199 1.539 . S
C3197 C3193 1.408 . S
C3197 C3196 1.404 . S
C3197 H3209 0.930 . S
C3198 C3194 1.524 . S
C3198 H3210 0.956 . S
C3198 H3211 0.961 . S
C3198 H3212 0.961 . S
C3199 C3196 1.539 . S
C3199 H3213 0.958 . S
C3199 H3214 0.961 . S
C3199 H3215 0.960 . S
H3200 C3184 0.931 . S
H3201 C3189 0.929 . S
H3202 C3190 0.960 . S
H3203 C3190 0.962 . S
H3204 C3190 0.960 . S
H3205 C3191 0.961 . S
H3206 C3191 0.961 . S
H3207 C3191 0.961 . S
H3208 C3192 0.931 . S
H3209 C3197 0.930 . S
H3210 C3198 0.956 . S
H3211 C3198 0.961 . S
H3212 C3198 0.961 . S
H3213 C3199 0.958 . S
H3214 C3199 0.961 . S
H3215 C3199 0.960 . S
C3216 C3217 1.391 . S
C3216 C3218 1.394 . S
C3216 H3232 0.931 . S
C3217 C3216 1.391 . S
C3217 C3221 1.376 . S
C3218 C3216 1.394 . S
C3218 C3219 1.369 . S
C3218 C3222 1.531 . S
C3219 C3218 1.369 . S
C3219 C3220 1.410 . S
C3219 C3227 1.503 . S
C3220 C3219 1.410 . S
C3220 C3221 1.392 . S
C3220 C3223 1.511 . S
C3221 C3217 1.376 . S
C3221 C3220 1.392 . S
C3221 H3233 0.929 . S
C3222 C3218 1.531 . S
C3222 H3234 0.960 . S
C3222 H3235 0.962 . S
C3222 H3236 0.960 . S
C3223 C3220 1.511 . S
C3223 H3237 0.961 . S
C3223 H3238 0.961 . S
C3223 H3239 0.961 . S
C3224 C3225 1.370 . S
C3224 C3226 1.363 . S
C3224 H3240 0.931 . S
C3225 C3224 1.370 . S
C3225 C3229 1.408 . S
C3226 C3224 1.363 . S
C3226 C3227 1.370 . S
C3226 C3230 1.524 . S
C3227 C3219 1.503 . S
C3227 C3226 1.370 . S
C3227 C3228 1.403 . S
C3228 C3227 1.403 . S
C3228 C3229 1.404 . S
C3228 C3231 1.539 . S
C3229 C3225 1.408 . S
C3229 C3228 1.404 . S
C3229 H3241 0.930 . S
C3230 C3226 1.524 . S
C3230 H3242 0.956 . S
C3230 H3243 0.961 . S
C3230 H3244 0.961 . S
C3231 C3228 1.539 . S
C3231 H3245 0.958 . S
C3231 H3246 0.961 . S
C3231 H3247 0.960 . S
H3232 C3216 0.931 . S
H3233 C3221 0.929 . S
H3234 C3222 0.960 . S
H3235 C3222 0.962 . S
H3236 C3222 0.960 . S
H3237 C3223 0.961 . S
H3238 C3223 0.961 . S
H3239 C3223 0.961 . S
H3240 C3224 0.931 . S
H3241 C3229 0.930 . S
H3242 C3230 0.956 . S
H3243 C3230 0.961 . S
H3244 C3230 0.961 . S
H3245 C3231 0.958 . S
H3246 C3231 0.961 . S
H3247 C3231 0.960 . S
C3248 C3249 1.391 . S
C3248 C3250 1.394 . S
C3248 H3264 0.931 . S
C3249 C3248 1.391 . S
C3249 C3253 1.376 . S
C3250 C3248 1.394 . S
C3250 C3251 1.369 . S
C3250 C3254 1.531 . S
C3251 C3250 1.369 . S
C3251 C3252 1.410 . S
C3251 C3259 1.503 . S
C3252 C3251 1.410 . S
C3252 C3253 1.392 . S
C3252 C3255 1.511 . S
C3253 C3249 1.376 . S
C3253 C3252 1.392 . S
C3253 H3265 0.929 . S
C3254 C3250 1.531 . S
C3254 H3266 0.960 . S
C3254 H3267 0.962 . S
C3254 H3268 0.960 . S
C3255 C3252 1.511 . S
C3255 H3269 0.961 . S
C3255 H3270 0.961 . S
C3255 H3271 0.961 . S
C3256 C3257 1.370 . S
C3256 C3258 1.363 . S
C3256 H3272 0.931 . S
C3257 C3256 1.370 . S
C3257 C3261 1.408 . S
C3258 C3256 1.363 . S
C3258 C3259 1.370 . S
C3258 C3262 1.524 . S
C3259 C3251 1.503 . S
C3259 C3258 1.370 . S
C3259 C3260 1.403 . S
C3260 C3259 1.403 . S
C3260 C3261 1.404 . S
C3260 C3263 1.539 . S
C3261 C3257 1.408 . S
C3261 C3260 1.404 . S
C3261 H3273 0.930 . S
C3262 C3258 1.524 . S
C3262 H3274 0.956 . S
C3262 H3275 0.961 . S
C3262 H3276 0.961 . S
C3263 C3260 1.539 . S
C3263 H3277 0.958 . S
C3263 H3278 0.961 . S
C3263 H3279 0.960 . S
H3264 C3248 0.931 . S
H3265 C3253 0.929 . S
H3266 C3254 0.960 . S
H3267 C3254 0.962 . S
H3268 C3254 0.960 . S
H3269 C3255 0.961 . S
H3270 C3255 0.961 . S
H3271 C3255 0.961 . S
H3272 C3256 0.931 . S
H3273 C3261 0.930 . S
H3274 C3262 0.956 . S
H3275 C3262 0.961 . S
H3276 C3262 0.961 . S
H3277 C3263 0.958 . S
H3278 C3263 0.961 . S
H3279 C3263 0.960 . S
C3280 C3281 1.391 1_554 S
C3280 C3282 1.394 . S
C3280 H3296 0.931 . S
C3281 C3280 1.391 1_556 S
C3281 C3285 1.376 . S
C3282 C3280 1.394 . S
C3282 C3283 1.369 1_554 S
C3282 C3286 1.531 . S
C3283 C3282 1.369 1_556 S
C3283 C3284 1.410 . S
C3283 C3291 1.503 1_556 S
C3284 C3283 1.410 . S
C3284 C3285 1.392 . S
C3284 C3287 1.511 . S
C3285 C3281 1.376 . S
C3285 C3284 1.392 . S
C3285 H3297 0.929 . S
C3286 C3282 1.531 . S
C3286 H3298 0.960 . S
C3286 H3299 0.962 . S
C3286 H3300 0.960 . S
C3287 C3284 1.511 . S
C3287 H3301 0.980 . S
C3287 H3302 0.961 . S
C3287 H3303 0.961 . S
C3288 C3289 1.396 . S
C3288 C3290 1.372 1_455 S
C3288 H3304 0.898 1_455 S
C3289 C3288 1.396 . S
C3289 C3293 1.408 . S
C3290 C3288 1.372 1_655 S
C3290 C3291 1.363 1_655 S
C3290 C3294 1.530 . S
C3291 C3283 1.503 1_554 S
C3291 C3290 1.363 1_455 S
C3291 C3292 1.403 . S
C3292 C3291 1.403 . S
C3292 C3293 1.404 . S
C3292 C3295 1.539 1_554 S
C3293 C3289 1.408 . S
C3293 C3292 1.404 . S
C3293 H3305 0.930 . S
C3294 C3290 1.530 . S
C3294 H3306 0.956 . S
C3294 H3307 0.961 1_554 S
C3294 H3308 0.961 . S
C3295 C3292 1.539 1_556 S
C3295 H3309 0.958 1_556 S
C3295 H3310 0.961 . S
C3295 H3311 0.960 . S
H3296 C3280 0.931 . S
H3297 C3285 0.929 . S
H3298 C3286 0.960 . S
H3299 C3286 0.962 . S
H3300 C3286 0.960 . S
H3301 C3287 0.980 . S
H3302 C3287 0.961 . S
H3303 C3287 0.961 . S
H3304 C3288 0.898 1_655 S
H3305 C3293 0.930 . S
H3306 C3294 0.956 . S
H3307 C3294 0.961 1_556 S
H3308 C3294 0.961 . S
H3309 C3295 0.958 1_554 S
H3310 C3295 0.961 . S
H3311 C3295 0.960 . S
C3312 C3313 1.391 1_455 S
C3312 C3314 1.394 1_455 S
C3312 H3328 0.931 . S
C3313 C3312 1.391 1_655 S
C3313 C3317 1.376 . S
C3314 C3312 1.394 1_655 S
C3314 C3315 1.369 . S
C3314 C3318 1.531 . S
C3315 C3314 1.369 . S
C3315 C3316 1.410 . S
C3315 C3323 1.503 . S
C3316 C3315 1.410 . S
C3316 C3317 1.392 . S
C3316 C3319 1.511 . S
C3317 C3313 1.376 . S
C3317 C3316 1.392 . S
C3317 H3329 0.929 . S
C3318 C3314 1.531 . S
C3318 H3330 0.960 . S
C3318 H3331 0.962 . S
C3318 H3332 0.960 1_655 S
C3319 C3316 1.511 . S
C3319 H3333 0.961 . S
C3319 H3334 0.961 . S
C3319 H3335 0.961 . S
C3320 C3321 1.370 . S
C3320 C3322 1.363 . S
C3320 H3336 0.931 . S
C3321 C3320 1.370 . S
C3321 C3325 1.408 . S
C3322 C3320 1.363 . S
C3322 C3323 1.370 . S
C3322 C3326 1.524 . S
C3323 C3315 1.503 . S
C3323 C3322 1.370 . S
C3323 C3324 1.403 . S
C3324 C3323 1.403 . S
C3324 C3325 1.404 . S
C3324 C3327 1.539 . S
C3325 C3321 1.408 . S
C3325 C3324 1.404 . S
C3325 H3337 0.930 . S
C3326 C3322 1.524 . S
C3326 H3338 0.956 . S
C3326 H3339 0.961 . S
C3326 H3340 0.961 . S
C3327 C3324 1.539 . S
C3327 H3341 0.958 . S
C3327 H3342 0.961 . S
C3327 H3343 0.960 . S
H3328 C3312 0.931 . S
H3329 C3317 0.929 . S
H3330 C3318 0.960 . S
H3331 C3318 0.962 . S
H3332 C3318 0.960 1_455 S
H3333 C3319 0.961 . S
H3334 C3319 0.961 . S
H3335 C3319 0.961 . S
H3336 C3320 0.931 . S
H3337 C3325 0.930 . S
H3338 C3326 0.956 . S
H3339 C3326 0.961 . S
H3340 C3326 0.961 . S
H3341 C3327 0.958 . S
H3342 C3327 0.961 . S
H3343 C3327 0.960 . S
C3344 C3345 1.391 . S
C3344 C3346 1.394 . S
C3344 H3360 0.931 . S
C3345 C3344 1.391 . S
C3345 C3349 1.376 . S
C3346 C3344 1.394 . S
C3346 C3347 1.369 . S
C3346 C3350 1.531 . S
C3347 C3346 1.369 . S
C3347 C3348 1.410 . S
C3347 C3355 1.503 . S
C3348 C3347 1.410 . S
C3348 C3349 1.392 . S
C3348 C3351 1.511 . S
C3349 C3345 1.376 . S
C3349 C3348 1.392 . S
C3349 H3361 0.929 . S
C3350 C3346 1.531 . S
C3350 H3362 0.960 . S
C3350 H3363 0.962 . S
C3350 H3364 0.960 . S
C3351 C3348 1.511 . S
C3351 H3365 0.961 . S
C3351 H3366 0.961 . S
C3351 H3367 0.961 . S
C3352 C3353 1.370 . S
C3352 C3354 1.363 . S
C3352 H3368 0.931 . S
C3353 C3352 1.370 . S
C3353 C3357 1.408 . S
C3354 C3352 1.363 . S
C3354 C3355 1.370 . S
C3354 C3358 1.524 . S
C3355 C3347 1.503 . S
C3355 C3354 1.370 . S
C3355 C3356 1.403 . S
C3356 C3355 1.403 . S
C3356 C3357 1.404 . S
C3356 C3359 1.539 . S
C3357 C3353 1.408 . S
C3357 C3356 1.404 . S
C3357 H3369 0.930 . S
C3358 C3354 1.524 . S
C3358 H3370 0.956 . S
C3358 H3371 0.961 . S
C3358 H3372 0.961 . S
C3359 C3356 1.539 . S
C3359 H3373 0.958 . S
C3359 H3374 0.961 . S
C3359 H3375 0.960 . S
H3360 C3344 0.931 . S
H3361 C3349 0.929 . S
H3362 C3350 0.960 . S
H3363 C3350 0.962 . S
H3364 C3350 0.960 . S
H3365 C3351 0.961 . S
H3366 C3351 0.961 . S
H3367 C3351 0.961 . S
H3368 C3352 0.931 . S
H3369 C3357 0.930 . S
H3370 C3358 0.956 . S
H3371 C3358 0.961 . S
H3372 C3358 0.961 . S
H3373 C3359 0.958 . S
H3374 C3359 0.961 . S
H3375 C3359 0.960 . S
C3376 C3377 1.391 . S
C3376 C3378 1.394 . S
C3376 H3392 0.931 . S
C3377 C3376 1.391 . S
C3377 C3381 1.376 . S
C3378 C3376 1.394 . S
C3378 C3379 1.369 . S
C3378 C3382 1.531 . S
C3379 C3378 1.369 . S
C3379 C3380 1.410 . S
C3379 C3387 1.503 . S
C3380 C3379 1.410 . S
C3380 C3381 1.392 . S
C3380 C3383 1.511 . S
C3381 C3377 1.376 . S
C3381 C3380 1.392 . S
C3381 H3393 0.929 . S
C3382 C3378 1.531 . S
C3382 H3394 0.960 . S
C3382 H3395 0.962 . S
C3382 H3396 0.960 . S
C3383 C3380 1.511 . S
C3383 H3397 0.961 . S
C3383 H3398 0.961 . S
C3383 H3399 0.961 . S
C3384 C3385 1.370 . S
C3384 C3386 1.363 . S
C3384 H3400 0.931 . S
C3385 C3384 1.370 . S
C3385 C3389 1.408 . S
C3386 C3384 1.363 . S
C3386 C3387 1.370 . S
C3386 C3390 1.524 . S
C3387 C3379 1.503 . S
C3387 C3386 1.370 . S
C3387 C3388 1.403 . S
C3388 C3387 1.403 . S
C3388 C3389 1.404 . S
C3388 C3391 1.539 . S
C3389 C3385 1.408 . S
C3389 C3388 1.404 . S
C3389 H3401 0.930 . S
C3390 C3386 1.524 . S
C3390 H3402 0.956 . S
C3390 H3403 0.961 . S
C3390 H3404 0.961 . S
C3391 C3388 1.539 . S
C3391 H3405 0.958 . S
C3391 H3406 0.961 . S
C3391 H3407 0.960 . S
H3392 C3376 0.931 . S
H3393 C3381 0.929 . S
H3394 C3382 0.960 . S
H3395 C3382 0.962 . S
H3396 C3382 0.960 . S
H3397 C3383 0.961 . S
H3398 C3383 0.961 . S
H3399 C3383 0.961 . S
H3400 C3384 0.931 . S
H3401 C3389 0.930 . S
H3402 C3390 0.956 . S
H3403 C3390 0.961 . S
H3404 C3390 0.961 . S
H3405 C3391 0.958 . S
H3406 C3391 0.961 . S
H3407 C3391 0.960 . S
C3408 C3409 1.391 . S
C3408 C3410 1.394 . S
C3408 H3424 0.931 1_455 S
C3409 C3408 1.391 . S
C3409 C3413 1.376 . S
C3410 C3408 1.394 . S
C3410 C3411 1.369 . S
C3410 C3414 1.531 1_455 S
C3411 C3410 1.369 . S
C3411 C3412 1.410 . S
C3411 C3419 1.503 . S
C3412 C3411 1.410 . S
C3412 C3413 1.392 . S
C3412 C3415 1.511 . S
C3413 C3409 1.376 . S
C3413 C3412 1.392 . S
C3413 H3425 0.929 . S
C3414 C3410 1.531 1_655 S
C3414 H3426 0.960 . S
C3414 H3427 0.962 1_655 S
C3414 H3428 0.960 . S
C3415 C3412 1.511 . S
C3415 H3429 0.961 . S
C3415 H3430 0.961 . S
C3415 H3431 0.961 . S
C3416 C3417 1.370 . S
C3416 C3418 1.363 . S
C3416 H3432 0.931 . S
C3417 C3416 1.370 . S
C3417 C3421 1.379 1_455 S
C3418 C3416 1.363 . S
C3418 C3419 1.370 . S
C3418 C3422 1.524 . S
C3419 C3411 1.503 . S
C3419 C3418 1.370 . S
C3419 C3420 1.403 1_455 S
C3420 C3419 1.403 1_655 S
C3420 C3421 1.415 . S
C3420 C3423 1.539 . S
C3421 C3417 1.379 1_655 S
C3421 C3420 1.415 . S
C3421 H3433 0.948 . S
C3422 C3418 1.524 . S
C3422 H3434 0.956 . S
C3422 H3435 0.961 . S
C3422 H3436 0.961 . S
C3423 C3420 1.539 . S
C3423 H3437 0.958 . S
C3423 H3438 0.961 . S
C3423 H3439 0.960 . S
H3424 C3408 0.931 1_655 S
H3425 C3413 0.929 . S
H3426 C3414 0.960 . S
H3427 C3414 0.962 1_455 S
H3428 C3414 0.960 . S
H3429 C3415 0.961 . S
H3430 C3415 0.961 . S
H3431 C3415 0.961 . S
H3432 C3416 0.931 . S
H3433 C3421 0.948 . S
H3434 C3422 0.956 . S
H3435 C3422 0.961 . S
H3436 C3422 0.961 . S
H3437 C3423 0.958 . S
H3438 C3423 0.961 . S
H3439 C3423 0.960 . S
C3440 C3441 1.391 . S
C3440 C3442 1.394 . S
C3440 H3456 0.931 . S
C3441 C3440 1.391 . S
C3441 C3445 1.376 . S
C3442 C3440 1.394 . S
C3442 C3443 1.369 . S
C3442 C3446 1.531 . S
C3443 C3442 1.369 . S
C3443 C3444 1.410 . S
C3443 C3451 1.503 . S
C3444 C3443 1.410 . S
C3444 C3445 1.392 . S
C3444 C3447 1.511 . S
C3445 C3441 1.376 . S
C3445 C3444 1.392 . S
C3445 H3457 0.929 . S
C3446 C3442 1.531 . S
C3446 H3458 0.960 . S
C3446 H3459 0.962 . S
C3446 H3460 0.960 . S
C3447 C3444 1.511 . S
C3447 H3461 0.961 . S
C3447 H3462 0.961 . S
C3447 H3463 0.961 . S
C3448 C3449 1.370 . S
C3448 C3450 1.363 . S
C3448 H3464 0.931 . S
C3449 C3448 1.370 . S
C3449 C3453 1.408 . S
C3450 C3448 1.363 . S
C3450 C3451 1.370 . S
C3450 C3454 1.524 . S
C3451 C3443 1.503 . S
C3451 C3450 1.370 . S
C3451 C3452 1.403 . S
C3452 C3451 1.403 . S
C3452 C3453 1.404 . S
C3452 C3455 1.539 . S
C3453 C3449 1.408 . S
C3453 C3452 1.404 . S
C3453 H3465 0.930 . S
C3454 C3450 1.524 . S
C3454 H3466 0.956 . S
C3454 H3467 0.961 . S
C3454 H3468 0.961 . S
C3455 C3452 1.539 . S
C3455 H3469 0.958 . S
C3455 H3470 0.961 . S
C3455 H3471 0.960 . S
H3456 C3440 0.931 . S
H3457 C3445 0.929 . S
H3458 C3446 0.960 . S
H3459 C3446 0.962 . S
H3460 C3446 0.960 . S
H3461 C3447 0.961 . S
H3462 C3447 0.961 . S
H3463 C3447 0.961 . S
H3464 C3448 0.931 . S
H3465 C3453 0.930 . S
H3466 C3454 0.956 . S
H3467 C3454 0.961 . S
H3468 C3454 0.961 . S
H3469 C3455 0.958 . S
H3470 C3455 0.961 . S
H3471 C3455 0.960 . S
C3472 C3473 1.391 . S
C3472 C3474 1.394 . S
C3472 H3488 0.931 . S
C3473 C3472 1.391 . S
C3473 C3477 1.376 . S
C3474 C3472 1.394 . S
C3474 C3475 1.369 . S
C3474 C3478 1.531 . S
C3475 C3474 1.369 . S
C3475 C3476 1.410 . S
C3475 C3483 1.503 . S
C3476 C3475 1.410 . S
C3476 C3477 1.392 . S
C3476 C3479 1.511 . S
C3477 C3473 1.376 . S
C3477 C3476 1.392 . S
C3477 H3489 0.929 . S
C3478 C3474 1.531 . S
C3478 H3490 0.960 . S
C3478 H3491 0.962 . S
C3478 H3492 0.960 . S
C3479 C3476 1.511 . S
C3479 H3493 0.961 . S
C3479 H3494 0.961 . S
C3479 H3495 0.961 . S
C3480 C3481 1.370 . S
C3480 C3482 1.363 . S
C3480 H3496 0.931 . S
C3481 C3480 1.370 . S
C3481 C3485 1.408 . S
C3482 C3480 1.363 . S
C3482 C3483 1.370 . S
C3482 C3486 1.524 . S
C3483 C3475 1.503 . S
C3483 C3482 1.370 . S
C3483 C3484 1.403 . S
C3484 C3483 1.403 . S
C3484 C3485 1.404 . S
C3484 C3487 1.539 . S
C3485 C3481 1.408 . S
C3485 C3484 1.404 . S
C3485 H3497 0.930 . S
C3486 C3482 1.524 . S
C3486 H3498 0.956 . S
C3486 H3499 0.961 . S
C3486 H3500 0.961 . S
C3487 C3484 1.539 . S
C3487 H3501 0.958 . S
C3487 H3502 0.961 . S
C3487 H3503 0.960 . S
H3488 C3472 0.931 . S
H3489 C3477 0.929 . S
H3490 C3478 0.960 . S
H3491 C3478 0.962 . S
H3492 C3478 0.960 . S
H3493 C3479 0.961 . S
H3494 C3479 0.961 . S
H3495 C3479 0.961 . S
H3496 C3480 0.931 . S
H3497 C3485 0.930 . S
H3498 C3486 0.956 . S
H3499 C3486 0.961 . S
H3500 C3486 0.961 . S
H3501 C3487 0.958 . S
H3502 C3487 0.961 . S
H3503 C3487 0.960 . S
C3504 C3505 1.391 . S
C3504 C3506 1.394 1_554 S
C3504 H3520 0.931 . S
C3505 C3504 1.391 . S
C3505 C3509 1.376 1_554 S
C3506 C3504 1.394 1_556 S
C3506 C3507 1.369 . S
C3506 C3510 1.531 . S
C3507 C3506 1.369 . S
C3507 C3508 1.410 . S
C3507 C3515 1.503 . S
C3508 C3507 1.410 . S
C3508 C3509 1.392 . S
C3508 C3511 1.511 . S
C3509 C3505 1.376 1_556 S
C3509 C3508 1.392 . S
C3509 H3521 0.929 . S
C3510 C3506 1.531 . S
C3510 H3522 0.960 . S
C3510 H3523 0.962 . S
C3510 H3524 0.963 1_556 S
C3511 C3508 1.511 . S
C3511 H3525 0.961 . S
C3511 H3526 0.961 . S
C3511 H3527 0.961 . S
C3512 C3513 1.370 . S
C3512 C3514 1.363 . S
C3512 H3528 0.931 . S
C3513 C3512 1.370 . S
C3513 C3517 1.408 . S
C3514 C3512 1.363 . S
C3514 C3515 1.370 . S
C3514 C3518 1.524 . S
C3515 C3507 1.503 . S
C3515 C3514 1.370 . S
C3515 C3516 1.403 . S
C3516 C3515 1.403 . S
C3516 C3517 1.404 . S
C3516 C3519 1.539 . S
C3517 C3513 1.408 . S
C3517 C3516 1.404 . S
C3517 H3529 0.930 . S
C3518 C3514 1.524 . S
C3518 H3530 0.956 . S
C3518 H3531 0.961 . S
C3518 H3532 0.961 . S
C3519 C3516 1.539 . S
C3519 H3533 0.958 . S
C3519 H3534 0.961 . S
C3519 H3535 0.960 . S
H3520 C3504 0.931 . S
H3521 C3509 0.929 . S
H3522 C3510 0.960 . S
H3523 C3510 0.962 . S
H3524 C3510 0.963 1_554 S
H3525 C3511 0.961 . S
H3526 C3511 0.961 . S
H3527 C3511 0.961 . S
H3528 C3512 0.931 . S
H3529 C3517 0.930 . S
H3530 C3518 0.956 . S
H3531 C3518 0.961 . S
H3532 C3518 0.961 . S
H3533 C3519 0.958 . S
H3534 C3519 0.961 . S
H3535 C3519 0.960 . S
C3536 C3537 1.391 . S
C3536 C3538 1.394 . S
C3536 H3552 0.931 . S
C3537 C3536 1.391 . S
C3537 C3541 1.376 . S
C3538 C3536 1.394 . S
C3538 C3539 1.369 . S
C3538 C3542 1.531 . S
C3539 C3538 1.369 . S
C3539 C3540 1.410 . S
C3539 C3547 1.503 . S
C3540 C3539 1.410 . S
C3540 C3541 1.392 . S
C3540 C3543 1.511 . S
C3541 C3537 1.376 . S
C3541 C3540 1.392 . S
C3541 H3553 0.929 . S
C3542 C3538 1.531 . S
C3542 H3554 0.960 . S
C3542 H3555 0.962 . S
C3542 H3556 0.960 . S
C3543 C3540 1.511 . S
C3543 H3557 0.961 . S
C3543 H3558 0.961 . S
C3543 H3559 0.961 . S
C3544 C3545 1.370 . S
C3544 C3546 1.363 . S
C3544 H3560 0.931 . S
C3545 C3544 1.370 . S
C3545 C3549 1.408 . S
C3546 C3544 1.363 . S
C3546 C3547 1.370 . S
C3546 C3550 1.524 . S
C3547 C3539 1.503 . S
C3547 C3546 1.370 . S
C3547 C3548 1.403 . S
C3548 C3547 1.403 . S
C3548 C3549 1.404 . S
C3548 C3551 1.539 . S
C3549 C3545 1.408 . S
C3549 C3548 1.404 . S
C3549 H3561 0.930 . S
C3550 C3546 1.524 . S
C3550 H3562 0.956 . S
C3550 H3563 0.961 . S
C3550 H3564 0.961 . S
C3551 C3548 1.539 . S
C3551 H3565 0.958 . S
C3551 H3566 0.961 . S
C3551 H3567 0.960 . S
H3552 C3536 0.931 . S
H3553 C3541 0.929 . S
H3554 C3542 0.960 . S
H3555 C3542 0.962 . S
H3556 C3542 0.960 . S
H3557 C3543 0.961 . S
H3558 C3543 0.961 . S
H3559 C3543 0.961 . S
H3560 C3544 0.931 . S
H3561 C3549 0.930 . S
H3562 C3550 0.956 . S
H3563 C3550 0.961 . S
H3564 C3550 0.961 . S
H3565 C3551 0.958 . S
H3566 C3551 0.961 . S
H3567 C3551 0.960 . S
C3568 C3569 1.391 . S
C3568 C3570 1.394 . S
C3568 H3584 0.931 . S
C3569 C3568 1.391 . S
C3569 C3573 1.376 . S
C3570 C3568 1.394 . S
C3570 C3571 1.369 . S
C3570 C3574 1.531 . S
C3571 C3570 1.369 . S
C3571 C3572 1.410 . S
C3571 C3579 1.503 . S
C3572 C3571 1.410 . S
C3572 C3573 1.392 . S
C3572 C3575 1.511 . S
C3573 C3569 1.376 . S
C3573 C3572 1.392 . S
C3573 H3585 0.929 . S
C3574 C3570 1.531 . S
C3574 H3586 0.960 . S
C3574 H3587 0.962 . S
C3574 H3588 0.960 . S
C3575 C3572 1.511 . S
C3575 H3589 0.961 . S
C3575 H3590 0.961 . S
C3575 H3591 0.961 . S
C3576 C3577 1.370 . S
C3576 C3578 1.363 . S
C3576 H3592 0.931 . S
C3577 C3576 1.370 . S
C3577 C3581 1.408 . S
C3578 C3576 1.363 . S
C3578 C3579 1.370 . S
C3578 C3582 1.524 . S
C3579 C3571 1.503 . S
C3579 C3578 1.370 . S
C3579 C3580 1.403 . S
C3580 C3579 1.403 . S
C3580 C3581 1.404 . S
C3580 C3583 1.539 . S
C3581 C3577 1.408 . S
C3581 C3580 1.404 . S
C3581 H3593 0.930 . S
C3582 C3578 1.524 . S
C3582 H3594 0.956 . S
C3582 H3595 0.961 . S
C3582 H3596 0.961 . S
C3583 C3580 1.539 . S
C3583 H3597 0.958 . S
C3583 H3598 0.961 . S
C3583 H3599 0.960 . S
H3584 C3568 0.931 . S
H3585 C3573 0.929 . S
H3586 C3574 0.960 . S
H3587 C3574 0.962 . S
H3588 C3574 0.960 . S
H3589 C3575 0.961 . S
H3590 C3575 0.961 . S
H3591 C3575 0.961 . S
H3592 C3576 0.931 . S
H3593 C3581 0.930 . S
H3594 C3582 0.956 . S
H3595 C3582 0.961 . S
H3596 C3582 0.961 . S
H3597 C3583 0.958 . S
H3598 C3583 0.961 . S
H3599 C3583 0.960 . S
C3600 C3601 1.391 . S
C3600 C3602 1.394 . S
C3600 H3616 0.931 . S
C3601 C3600 1.391 . S
C3601 C3605 1.376 . S
C3602 C3600 1.394 . S
C3602 C3603 1.369 . S
C3602 C3606 1.531 . S
C3603 C3602 1.369 . S
C3603 C3604 1.410 . S
C3603 C3611 1.503 . S
C3604 C3603 1.410 . S
C3604 C3605 1.392 . S
C3604 C3607 1.511 . S
C3605 C3601 1.376 . S
C3605 C3604 1.392 . S
C3605 H3617 0.929 . S
C3606 C3602 1.531 . S
C3606 H3618 0.960 . S
C3606 H3619 0.962 . S
C3606 H3620 0.960 . S
C3607 C3604 1.511 . S
C3607 H3621 0.961 . S
C3607 H3622 0.961 . S
C3607 H3623 0.961 . S
C3608 C3609 1.370 . S
C3608 C3610 1.363 . S
C3608 H3624 0.931 . S
C3609 C3608 1.370 . S
C3609 C3613 1.408 . S
C3610 C3608 1.363 . S
C3610 C3611 1.370 . S
C3610 C3614 1.524 . S
C3611 C3603 1.503 . S
C3611 C3610 1.370 . S
C3611 C3612 1.403 . S
C3612 C3611 1.403 . S
C3612 C3613 1.404 . S
C3612 C3615 1.539 . S
C3613 C3609 1.408 . S
C3613 C3612 1.404 . S
C3613 H3625 0.930 . S
C3614 C3610 1.524 . S
C3614 H3626 0.956 . S
C3614 H3627 0.961 . S
C3614 H3628 0.961 . S
C3615 C3612 1.539 . S
C3615 H3629 0.958 . S
C3615 H3630 0.961 . S
C3615 H3631 0.960 . S
H3616 C3600 0.931 . S
H3617 C3605 0.929 . S
H3618 C3606 0.960 . S
H3619 C3606 0.962 . S
H3620 C3606 0.960 . S
H3621 C3607 0.961 . S
H3622 C3607 0.961 . S
H3623 C3607 0.961 . S
H3624 C3608 0.931 . S
H3625 C3613 0.930 . S
H3626 C3614 0.956 . S
H3627 C3614 0.961 . S
H3628 C3614 0.961 . S
H3629 C3615 0.958 . S
H3630 C3615 0.961 . S
H3631 C3615 0.960 . S
C3632 C3633 1.391 . S
C3632 C3634 1.394 . S
C3632 H3648 0.931 . S
C3633 C3632 1.391 . S
C3633 C3637 1.376 . S
C3634 C3632 1.394 . S
C3634 C3635 1.369 . S
C3634 C3638 1.531 . S
C3635 C3634 1.369 . S
C3635 C3636 1.410 . S
C3635 C3643 1.503 . S
C3636 C3635 1.410 . S
C3636 C3637 1.392 . S
C3636 C3639 1.511 . S
C3637 C3633 1.376 . S
C3637 C3636 1.392 . S
C3637 H3649 0.929 . S
C3638 C3634 1.531 . S
C3638 H3650 0.960 . S
C3638 H3651 0.962 . S
C3638 H3652 0.960 . S
C3639 C3636 1.511 . S
C3639 H3653 0.961 . S
C3639 H3654 0.961 . S
C3639 H3655 0.961 . S
C3640 C3641 1.370 . S
C3640 C3642 1.363 . S
C3640 H3656 0.931 . S
C3641 C3640 1.370 . S
C3641 C3645 1.408 . S
C3642 C3640 1.363 . S
C3642 C3643 1.370 . S
C3642 C3646 1.524 . S
C3643 C3635 1.503 . S
C3643 C3642 1.370 . S
C3643 C3644 1.403 . S
C3644 C3643 1.403 . S
C3644 C3645 1.404 . S
C3644 C3647 1.539 . S
C3645 C3641 1.408 . S
C3645 C3644 1.404 . S
C3645 H3657 0.930 . S
C3646 C3642 1.524 . S
C3646 H3658 0.956 . S
C3646 H3659 0.961 . S
C3646 H3660 0.961 . S
C3647 C3644 1.539 . S
C3647 H3661 0.958 . S
C3647 H3662 0.961 . S
C3647 H3663 0.960 . S
H3648 C3632 0.931 . S
H3649 C3637 0.929 . S
H3650 C3638 0.960 . S
H3651 C3638 0.962 . S
H3652 C3638 0.960 . S
H3653 C3639 0.961 . S
H3654 C3639 0.961 . S
H3655 C3639 0.961 . S
H3656 C3640 0.931 . S
H3657 C3645 0.930 . S
H3658 C3646 0.956 . S
H3659 C3646 0.961 . S
H3660 C3646 0.961 . S
H3661 C3647 0.958 . S
H3662 C3647 0.961 . S
H3663 C3647 0.960 . S
C3664 C3665 1.391 . S
C3664 C3666 1.394 . S
C3664 H3680 0.931 . S
C3665 C3664 1.391 . S
C3665 C3669 1.376 . S
C3666 C3664 1.394 . S
C3666 C3667 1.369 . S
C3666 C3670 1.531 . S
C3667 C3666 1.369 . S
C3667 C3668 1.410 . S
C3667 C3675 1.503 . S
C3668 C3667 1.410 . S
C3668 C3669 1.392 . S
C3668 C3671 1.511 . S
C3669 C3665 1.376 . S
C3669 C3668 1.392 . S
C3669 H3681 0.929 . S
C3670 C3666 1.531 . S
C3670 H3682 0.960 . S
C3670 H3683 0.962 . S
C3670 H3684 0.960 . S
C3671 C3668 1.511 . S
C3671 H3685 0.961 . S
C3671 H3686 0.961 . S
C3671 H3687 0.961 . S
C3672 C3673 1.370 . S
C3672 C3674 1.363 . S
C3672 H3688 0.931 . S
C3673 C3672 1.370 . S
C3673 C3677 1.408 . S
C3674 C3672 1.363 . S
C3674 C3675 1.370 . S
C3674 C3678 1.524 . S
C3675 C3667 1.503 . S
C3675 C3674 1.370 . S
C3675 C3676 1.403 . S
C3676 C3675 1.403 . S
C3676 C3677 1.404 . S
C3676 C3679 1.539 . S
C3677 C3673 1.408 . S
C3677 C3676 1.404 . S
C3677 H3689 0.930 . S
C3678 C3674 1.524 . S
C3678 H3690 0.956 . S
C3678 H3691 0.961 . S
C3678 H3692 0.961 . S
C3679 C3676 1.539 . S
C3679 H3693 0.958 . S
C3679 H3694 0.961 . S
C3679 H3695 0.960 . S
H3680 C3664 0.931 . S
H3681 C3669 0.929 . S
H3682 C3670 0.960 . S
H3683 C3670 0.962 . S
H3684 C3670 0.960 . S
H3685 C3671 0.961 . S
H3686 C3671 0.961 . S
H3687 C3671 0.961 . S
H3688 C3672 0.931 . S
H3689 C3677 0.930 . S
H3690 C3678 0.956 . S
H3691 C3678 0.961 . S
H3692 C3678 0.961 . S
H3693 C3679 0.958 . S
H3694 C3679 0.961 . S
H3695 C3679 0.960 . S
C3696 C3697 1.391 . S
C3696 C3698 1.394 . S
C3696 H3712 0.931 . S
C3697 C3696 1.391 . S
C3697 C3701 1.376 . S
C3698 C3696 1.394 . S
C3698 C3699 1.369 . S
C3698 C3702 1.531 . S
C3699 C3698 1.369 . S
C3699 C3700 1.410 . S
C3699 C3707 1.503 . S
C3700 C3699 1.410 . S
C3700 C3701 1.392 . S
C3700 C3703 1.511 . S
C3701 C3697 1.376 . S
C3701 C3700 1.392 . S
C3701 H3713 0.929 . S
C3702 C3698 1.531 . S
C3702 H3714 0.960 . S
C3702 H3715 0.962 . S
C3702 H3716 0.960 . S
C3703 C3700 1.511 . S
C3703 H3717 0.961 . S
C3703 H3718 0.961 . S
C3703 H3719 0.961 . S
C3704 C3705 1.370 . S
C3704 C3706 1.363 . S
C3704 H3720 0.931 . S
C3705 C3704 1.370 . S
C3705 C3709 1.408 . S
C3706 C3704 1.363 . S
C3706 C3707 1.370 . S
C3706 C3710 1.524 . S
C3707 C3699 1.503 . S
C3707 C3706 1.370 . S
C3707 C3708 1.403 . S
C3708 C3707 1.403 . S
C3708 C3709 1.404 . S
C3708 C3711 1.539 . S
C3709 C3705 1.408 . S
C3709 C3708 1.404 . S
C3709 H3721 0.930 . S
C3710 C3706 1.524 . S
C3710 H3722 0.956 . S
C3710 H3723 0.961 . S
C3710 H3724 0.961 . S
C3711 C3708 1.539 . S
C3711 H3725 0.958 . S
C3711 H3726 0.961 . S
C3711 H3727 0.960 . S
H3712 C3696 0.931 . S
H3713 C3701 0.929 . S
H3714 C3702 0.960 . S
H3715 C3702 0.962 . S
H3716 C3702 0.960 . S
H3717 C3703 0.961 . S
H3718 C3703 0.961 . S
H3719 C3703 0.961 . S
H3720 C3704 0.931 . S
H3721 C3709 0.930 . S
H3722 C3710 0.956 . S
H3723 C3710 0.961 . S
H3724 C3710 0.961 . S
H3725 C3711 0.958 . S
H3726 C3711 0.961 . S
H3727 C3711 0.960 . S
C3728 C3729 1.391 . S
C3728 C3730 1.394 . S
C3728 H3744 0.931 . S
C3729 C3728 1.391 . S
C3729 C3733 1.376 . S
C3730 C3728 1.394 . S
C3730 C3731 1.369 . S
C3730 C3734 1.531 . S
C3731 C3730 1.369 . S
C3731 C3732 1.410 . S
C3731 C3739 1.503 . S
C3732 C3731 1.410 . S
C3732 C3733 1.392 . S
C3732 C3735 1.511 . S
C3733 C3729 1.376 . S
C3733 C3732 1.392 . S
C3733 H3745 0.929 . S
C3734 C3730 1.531 . S
C3734 H3746 0.960 . S
C3734 H3747 0.962 . S
C3734 H3748 0.960 . S
C3735 C3732 1.511 . S
C3735 H3749 0.961 . S
C3735 H3750 0.961 . S
C3735 H3751 0.961 . S
C3736 C3737 1.370 . S
C3736 C3738 1.363 . S
C3736 H3752 0.931 . S
C3737 C3736 1.370 . S
C3737 C3741 1.408 . S
C3738 C3736 1.363 . S
C3738 C3739 1.370 . S
C3738 C3742 1.524 . S
C3739 C3731 1.503 . S
C3739 C3738 1.370 . S
C3739 C3740 1.403 . S
C3740 C3739 1.403 . S
C3740 C3741 1.404 . S
C3740 C3743 1.539 . S
C3741 C3737 1.408 . S
C3741 C3740 1.404 . S
C3741 H3753 0.930 . S
C3742 C3738 1.524 . S
C3742 H3754 0.956 . S
C3742 H3755 0.961 . S
C3742 H3756 0.961 . S
C3743 C3740 1.539 . S
C3743 H3757 0.958 . S
C3743 H3758 0.961 . S
C3743 H3759 0.960 . S
H3744 C3728 0.931 . S
H3745 C3733 0.929 . S
H3746 C3734 0.960 . S
H3747 C3734 0.962 . S
H3748 C3734 0.960 . S
H3749 C3735 0.961 . S
H3750 C3735 0.961 . S
H3751 C3735 0.961 . S
H3752 C3736 0.931 . S
H3753 C3741 0.930 . S
H3754 C3742 0.956 . S
H3755 C3742 0.961 . S
H3756 C3742 0.961 . S
H3757 C3743 0.958 . S
H3758 C3743 0.961 . S
H3759 C3743 0.960 . S
C3760 C3761 1.391 . S
C3760 C3762 1.394 . S
C3760 H3776 0.931 . S
C3761 C3760 1.391 . S
C3761 C3765 1.376 . S
C3762 C3760 1.394 . S
C3762 C3763 1.369 . S
C3762 C3766 1.531 . S
C3763 C3762 1.369 . S
C3763 C3764 1.410 . S
C3763 C3771 1.503 . S
C3764 C3763 1.410 . S
C3764 C3765 1.392 . S
C3764 C3767 1.511 . S
C3765 C3761 1.376 . S
C3765 C3764 1.392 . S
C3765 H3777 0.929 . S
C3766 C3762 1.531 . S
C3766 H3778 0.960 . S
C3766 H3779 0.962 . S
C3766 H3780 0.960 . S
C3767 C3764 1.511 . S
C3767 H3781 0.961 . S
C3767 H3782 0.961 . S
C3767 H3783 0.961 . S
C3768 C3769 1.370 . S
C3768 C3770 1.363 . S
C3768 H3784 0.931 . S
C3769 C3768 1.370 . S
C3769 C3773 1.408 . S
C3770 C3768 1.363 . S
C3770 C3771 1.370 . S
C3770 C3774 1.524 . S
C3771 C3763 1.503 . S
C3771 C3770 1.370 . S
C3771 C3772 1.403 . S
C3772 C3771 1.403 . S
C3772 C3773 1.404 . S
C3772 C3775 1.539 . S
C3773 C3769 1.408 . S
C3773 C3772 1.404 . S
C3773 H3785 0.930 . S
C3774 C3770 1.524 . S
C3774 H3786 0.956 . S
C3774 H3787 0.961 . S
C3774 H3788 0.961 . S
C3775 C3772 1.539 . S
C3775 H3789 0.958 . S
C3775 H3790 0.961 . S
C3775 H3791 0.960 . S
H3776 C3760 0.931 . S
H3777 C3765 0.929 . S
H3778 C3766 0.960 . S
H3779 C3766 0.962 . S
H3780 C3766 0.960 . S
H3781 C3767 0.961 . S
H3782 C3767 0.961 . S
H3783 C3767 0.961 . S
H3784 C3768 0.931 . S
H3785 C3773 0.930 . S
H3786 C3774 0.956 . S
H3787 C3774 0.961 . S
H3788 C3774 0.961 . S
H3789 C3775 0.958 . S
H3790 C3775 0.961 . S
H3791 C3775 0.960 . S
C3792 C3793 1.391 . S
C3792 C3794 1.394 . S
C3792 H3808 0.931 . S
C3793 C3792 1.391 . S
C3793 C3797 1.376 . S
C3794 C3792 1.394 . S
C3794 C3795 1.369 . S
C3794 C3798 1.531 . S
C3795 C3794 1.369 . S
C3795 C3796 1.410 . S
C3795 C3803 1.503 . S
C3796 C3795 1.410 . S
C3796 C3797 1.392 . S
C3796 C3799 1.511 . S
C3797 C3793 1.376 . S
C3797 C3796 1.392 . S
C3797 H3809 0.929 . S
C3798 C3794 1.531 . S
C3798 H3810 0.960 . S
C3798 H3811 0.962 . S
C3798 H3812 0.960 . S
C3799 C3796 1.511 . S
C3799 H3813 0.961 . S
C3799 H3814 0.961 . S
C3799 H3815 0.961 . S
C3800 C3801 1.370 . S
C3800 C3802 1.363 . S
C3800 H3816 0.931 . S
C3801 C3800 1.370 . S
C3801 C3805 1.408 . S
C3802 C3800 1.363 . S
C3802 C3803 1.370 . S
C3802 C3806 1.524 . S
C3803 C3795 1.503 . S
C3803 C3802 1.370 . S
C3803 C3804 1.403 . S
C3804 C3803 1.403 . S
C3804 C3805 1.404 . S
C3804 C3807 1.539 . S
C3805 C3801 1.408 . S
C3805 C3804 1.404 . S
C3805 H3817 0.930 . S
C3806 C3802 1.524 . S
C3806 H3818 0.956 . S
C3806 H3819 0.961 . S
C3806 H3820 0.961 . S
C3807 C3804 1.539 . S
C3807 H3821 0.958 . S
C3807 H3822 0.961 . S
C3807 H3823 0.960 . S
H3808 C3792 0.931 . S
H3809 C3797 0.929 . S
H3810 C3798 0.960 . S
H3811 C3798 0.962 . S
H3812 C3798 0.960 . S
H3813 C3799 0.961 . S
H3814 C3799 0.961 . S
H3815 C3799 0.961 . S
H3816 C3800 0.931 . S
H3817 C3805 0.930 . S
H3818 C3806 0.956 . S
H3819 C3806 0.961 . S
H3820 C3806 0.961 . S
H3821 C3807 0.958 . S
H3822 C3807 0.961 . S
H3823 C3807 0.960 . S
C3824 C3825 1.391 . S
C3824 C3826 1.394 . S
C3824 H3840 0.931 . S
C3825 C3824 1.391 . S
C3825 C3829 1.376 1_554 S
C3826 C3824 1.394 . S
C3826 C3827 1.369 . S
C3826 C3830 1.531 . S
C3827 C3826 1.369 . S
C3827 C3828 1.410 1_554 S
C3827 C3835 1.503 . S
C3828 C3827 1.410 1_556 S
C3828 C3829 1.392 . S
C3828 C3831 1.511 . S
C3829 C3825 1.376 1_556 S
C3829 C3828 1.392 . S
C3829 H3841 0.929 . S
C3830 C3826 1.531 . S
C3830 H3842 0.960 . S
C3830 H3843 0.923 1_565 S
C3830 H3844 0.960 . S
C3831 C3828 1.511 . S
C3831 H3845 0.961 . S
C3831 H3846 0.961 . S
C3831 H3847 0.961 . S
C3832 C3833 1.370 . S
C3832 C3834 1.363 . S
C3832 H3848 0.931 . S
C3833 C3832 1.370 . S
C3833 C3837 1.408 1_545 S
C3834 C3832 1.363 . S
C3834 C3835 1.370 1_545 S
C3834 C3838 1.524 . S
C3835 C3827 1.503 . S
C3835 C3834 1.370 1_565 S
C3835 C3836 1.403 . S
C3836 C3835 1.403 . S
C3836 C3837 1.404 . S
C3836 C3839 1.539 . S
C3837 C3833 1.408 1_565 S
C3837 C3836 1.404 . S
C3837 H3849 0.930 . S
C3838 C3834 1.524 . S
C3838 H3850 0.956 . S
C3838 H3851 0.961 1_554 S
C3838 H3852 0.974 . S
C3839 C3836 1.539 . S
C3839 H3853 0.958 . S
C3839 H3854 0.961 . S
C3839 H3855 0.960 . S
H3840 C3824 0.931 . S
H3841 C3829 0.929 . S
H3842 C3830 0.960 . S
H3843 C3830 0.923 1_545 S
H3844 C3830 0.960 . S
H3845 C3831 0.961 . S
H3846 C3831 0.961 . S
H3847 C3831 0.961 . S
H3848 C3832 0.931 . S
H3849 C3837 0.930 . S
H3850 C3838 0.956 . S
H3851 C3838 0.961 1_556 S
H3852 C3838 0.974 . S
H3853 C3839 0.958 . S
H3854 C3839 0.961 . S
H3855 C3839 0.960 . S
C3856 C3857 1.391 . S
C3856 C3858 1.394 . S
C3856 H3872 0.931 . S
C3857 C3856 1.391 . S
C3857 C3861 1.376 . S
C3858 C3856 1.394 . S
C3858 C3859 1.369 . S
C3858 C3862 1.531 . S
C3859 C3858 1.369 . S
C3859 C3860 1.410 . S
C3859 C3867 1.503 . S
C3860 C3859 1.410 . S
C3860 C3861 1.392 . S
C3860 C3863 1.511 . S
C3861 C3857 1.376 . S
C3861 C3860 1.392 . S
C3861 H3873 0.929 . S
C3862 C3858 1.531 . S
C3862 H3874 0.960 . S
C3862 H3875 0.962 . S
C3862 H3876 0.960 . S
C3863 C3860 1.511 . S
C3863 H3877 0.961 . S
C3863 H3878 0.961 . S
C3863 H3879 0.961 . S
C3864 C3865 1.370 . S
C3864 C3866 1.363 . S
C3864 H3880 0.931 . S
C3865 C3864 1.370 . S
C3865 C3869 1.408 . S
C3866 C3864 1.363 . S
C3866 C3867 1.370 . S
C3866 C3870 1.524 . S
C3867 C3859 1.503 . S
C3867 C3866 1.370 . S
C3867 C3868 1.403 . S
C3868 C3867 1.403 . S
C3868 C3869 1.404 . S
C3868 C3871 1.539 . S
C3869 C3865 1.408 . S
C3869 C3868 1.404 . S
C3869 H3881 0.930 . S
C3870 C3866 1.524 . S
C3870 H3882 0.956 . S
C3870 H3883 0.961 . S
C3870 H3884 0.961 . S
C3871 C3868 1.539 . S
C3871 H3885 0.958 . S
C3871 H3886 0.961 . S
C3871 H3887 0.960 . S
H3872 C3856 0.931 . S
H3873 C3861 0.929 . S
H3874 C3862 0.960 . S
H3875 C3862 0.962 . S
H3876 C3862 0.960 . S
H3877 C3863 0.961 . S
H3878 C3863 0.961 . S
H3879 C3863 0.961 . S
H3880 C3864 0.931 . S
H3881 C3869 0.930 . S
H3882 C3870 0.956 . S
H3883 C3870 0.961 . S
H3884 C3870 0.961 . S
H3885 C3871 0.958 . S
H3886 C3871 0.961 . S
H3887 C3871 0.960 . S
C3888 C3889 1.391 . S
C3888 C3890 1.394 . S
C3888 H3904 0.931 . S
C3889 C3888 1.391 . S
C3889 C3893 1.376 . S
C3890 C3888 1.394 . S
C3890 C3891 1.369 . S
C3890 C3894 1.531 . S
C3891 C3890 1.369 . S
C3891 C3892 1.410 . S
C3891 C3899 1.503 . S
C3892 C3891 1.410 . S
C3892 C3893 1.392 . S
C3892 C3895 1.511 . S
C3893 C3889 1.376 . S
C3893 C3892 1.392 . S
C3893 H3905 0.929 . S
C3894 C3890 1.531 . S
C3894 H3906 0.973 . S
C3894 H3907 0.962 . S
C3894 H3908 0.960 1_554 S
C3895 C3892 1.511 . S
C3895 H3909 0.961 . S
C3895 H3910 0.961 . S
C3895 H3911 0.961 . S
C3896 C3897 1.370 . S
C3896 C3898 1.363 . S
C3896 H3912 0.931 . S
C3897 C3896 1.370 . S
C3897 C3901 1.408 . S
C3898 C3896 1.363 . S
C3898 C3899 1.370 . S
C3898 C3902 1.524 . S
C3899 C3891 1.503 . S
C3899 C3898 1.370 . S
C3899 C3900 1.403 . S
C3900 C3899 1.403 . S
C3900 C3901 1.404 . S
C3900 C3903 1.539 1_554 S
C3901 C3897 1.408 . S
C3901 C3900 1.404 . S
C3901 H3913 0.930 . S
C3902 C3898 1.524 . S
C3902 H3914 0.956 . S
C3902 H3915 0.961 . S
C3902 H3916 0.961 . S
C3903 C3900 1.539 1_556 S
C3903 H3917 0.958 . S
C3903 H3918 0.961 . S
C3903 H3919 0.960 . S
H3904 C3888 0.931 . S
H3905 C3893 0.929 . S
H3906 C3894 0.973 . S
H3907 C3894 0.962 . S
H3908 C3894 0.960 1_556 S
H3909 C3895 0.961 . S
H3910 C3895 0.961 . S
H3911 C3895 0.961 . S
H3912 C3896 0.931 . S
H3913 C3901 0.930 . S
H3914 C3902 0.956 . S
H3915 C3902 0.961 . S
H3916 C3902 0.961 . S
H3917 C3903 0.958 . S
H3918 C3903 0.961 . S
H3919 C3903 0.960 . S
C3920 C3921 1.391 . S
C3920 C3922 1.394 . S
C3920 H3936 0.931 . S
C3921 C3920 1.391 . S
C3921 C3925 1.376 . S
C3922 C3920 1.394 . S
C3922 C3923 1.369 . S
C3922 C3926 1.531 . S
C3923 C3922 1.369 . S
C3923 C3924 1.410 . S
C3923 C3931 1.503 . S
C3924 C3923 1.410 . S
C3924 C3925 1.392 . S
C3924 C3927 1.511 . S
C3925 C3921 1.376 . S
C3925 C3924 1.392 . S
C3925 H3937 0.929 . S
C3926 C3922 1.531 . S
C3926 H3938 0.960 . S
C3926 H3939 0.962 . S
C3926 H3940 0.960 . S
C3927 C3924 1.511 . S
C3927 H3941 0.961 . S
C3927 H3942 0.961 . S
C3927 H3943 0.961 . S
C3928 C3929 1.370 . S
C3928 C3930 1.363 . S
C3928 H3944 0.931 . S
C3929 C3928 1.370 . S
C3929 C3933 1.408 . S
C3930 C3928 1.363 . S
C3930 C3931 1.370 . S
C3930 C3934 1.524 . S
C3931 C3923 1.503 . S
C3931 C3930 1.370 . S
C3931 C3932 1.403 . S
C3932 C3931 1.403 . S
C3932 C3933 1.404 . S
C3932 C3935 1.539 . S
C3933 C3929 1.408 . S
C3933 C3932 1.404 . S
C3933 H3945 0.930 . S
C3934 C3930 1.524 . S
C3934 H3946 0.956 . S
C3934 H3947 0.961 . S
C3934 H3948 0.961 . S
C3935 C3932 1.539 . S
C3935 H3949 0.958 . S
C3935 H3950 0.961 . S
C3935 H3951 0.960 . S
H3936 C3920 0.931 . S
H3937 C3925 0.929 . S
H3938 C3926 0.960 . S
H3939 C3926 0.962 . S
H3940 C3926 0.960 . S
H3941 C3927 0.961 . S
H3942 C3927 0.961 . S
H3943 C3927 0.961 . S
H3944 C3928 0.931 . S
H3945 C3933 0.930 . S
H3946 C3934 0.956 . S
H3947 C3934 0.961 . S
H3948 C3934 0.961 . S
H3949 C3935 0.958 . S
H3950 C3935 0.961 . S
H3951 C3935 0.960 . S
C3952 C3953 1.391 . S
C3952 C3954 1.394 . S
C3952 H3968 0.931 . S
C3953 C3952 1.391 . S
C3953 C3957 1.376 . S
C3954 C3952 1.394 . S
C3954 C3955 1.369 . S
C3954 C3958 1.531 . S
C3955 C3954 1.369 . S
C3955 C3956 1.410 . S
C3955 C3963 1.503 . S
C3956 C3955 1.410 . S
C3956 C3957 1.392 . S
C3956 C3959 1.511 . S
C3957 C3953 1.376 . S
C3957 C3956 1.392 . S
C3957 H3969 0.929 . S
C3958 C3954 1.531 . S
C3958 H3970 0.960 . S
C3958 H3971 0.962 . S
C3958 H3972 0.960 . S
C3959 C3956 1.511 . S
C3959 H3973 0.961 . S
C3959 H3974 0.961 . S
C3959 H3975 0.961 . S
C3960 C3961 1.370 . S
C3960 C3962 1.363 . S
C3960 H3976 0.931 . S
C3961 C3960 1.370 . S
C3961 C3965 1.408 . S
C3962 C3960 1.363 . S
C3962 C3963 1.370 . S
C3962 C3966 1.524 . S
C3963 C3955 1.503 . S
C3963 C3962 1.370 . S
C3963 C3964 1.403 . S
C3964 C3963 1.403 . S
C3964 C3965 1.404 . S
C3964 C3967 1.539 . S
C3965 C3961 1.408 . S
C3965 C3964 1.404 . S
C3965 H3977 0.930 . S
C3966 C3962 1.524 . S
C3966 H3978 0.956 . S
C3966 H3979 0.961 . S
C3966 H3980 0.961 . S
C3967 C3964 1.539 . S
C3967 H3981 0.958 . S
C3967 H3982 0.961 . S
C3967 H3983 0.960 . S
H3968 C3952 0.931 . S
H3969 C3957 0.929 . S
H3970 C3958 0.960 . S
H3971 C3958 0.962 . S
H3972 C3958 0.960 . S
H3973 C3959 0.961 . S
H3974 C3959 0.961 . S
H3975 C3959 0.961 . S
H3976 C3960 0.931 . S
H3977 C3965 0.930 . S
H3978 C3966 0.956 . S
H3979 C3966 0.961 . S
H3980 C3966 0.961 . S
H3981 C3967 0.958 . S
H3982 C3967 0.961 . S
H3983 C3967 0.960 . S
C3984 C3985 1.391 . S
C3984 C3986 1.394 . S
C3984 H4000 0.931 . S
C3985 C3984 1.391 . S
C3985 C3989 1.376 . S
C3986 C3984 1.394 . S
C3986 C3987 1.369 . S
C3986 C3990 1.531 . S
C3987 C3986 1.369 . S
C3987 C3988 1.410 . S
C3987 C3995 1.503 . S
C3988 C3987 1.410 . S
C3988 C3989 1.392 . S
C3988 C3991 1.511 . S
C3989 C3985 1.376 . S
C3989 C3988 1.392 . S
C3989 H4001 0.929 . S
C3990 C3986 1.531 . S
C3990 H4002 0.960 . S
C3990 H4003 0.962 . S
C3990 H4004 0.960 . S
C3991 C3988 1.511 . S
C3991 H4005 0.961 . S
C3991 H4006 0.961 . S
C3991 H4007 0.961 . S
C3992 C3993 1.370 . S
C3992 C3994 1.363 . S
C3992 H4008 0.931 . S
C3993 C3992 1.370 . S
C3993 C3997 1.408 . S
C3994 C3992 1.363 . S
C3994 C3995 1.370 . S
C3994 C3998 1.524 . S
C3995 C3987 1.503 . S
C3995 C3994 1.370 . S
C3995 C3996 1.403 . S
C3996 C3995 1.403 . S
C3996 C3997 1.404 . S
C3996 C3999 1.539 . S
C3997 C3993 1.408 . S
C3997 C3996 1.404 . S
C3997 H4009 0.930 . S
C3998 C3994 1.524 . S
C3998 H4010 0.956 . S
C3998 H4011 0.961 . S
C3998 H4012 0.961 . S
C3999 C3996 1.539 . S
C3999 H4013 0.958 . S
C3999 H4014 0.961 . S
C3999 H4015 0.960 . S
H4000 C3984 0.931 . S
H4001 C3989 0.929 . S
H4002 C3990 0.960 . S
H4003 C3990 0.962 . S
H4004 C3990 0.960 . S
H4005 C3991 0.961 . S
H4006 C3991 0.961 . S
H4007 C3991 0.961 . S
H4008 C3992 0.931 . S
H4009 C3997 0.930 . S
H4010 C3998 0.956 . S
H4011 C3998 0.961 . S
H4012 C3998 0.961 . S
H4013 C3999 0.958 . S
H4014 C3999 0.961 . S
H4015 C3999 0.960 . S
C4016 C4017 1.391 . S
C4016 C4018 1.394 . S
C4016 H4032 0.931 . S
C4017 C4016 1.391 . S
C4017 C4021 1.376 . S
C4018 C4016 1.394 . S
C4018 C4019 1.369 . S
C4018 C4022 1.531 . S
C4019 C4018 1.369 . S
C4019 C4020 1.410 . S
C4019 C4027 1.503 . S
C4020 C4019 1.410 . S
C4020 C4021 1.392 . S
C4020 C4023 1.511 . S
C4021 C4017 1.376 . S
C4021 C4020 1.392 . S
C4021 H4033 0.929 . S
C4022 C4018 1.531 . S
C4022 H4034 0.960 . S
C4022 H4035 0.962 . S
C4022 H4036 0.960 . S
C4023 C4020 1.511 . S
C4023 H4037 0.961 . S
C4023 H4038 0.961 . S
C4023 H4039 0.961 . S
C4024 C4025 1.370 . S
C4024 C4026 1.363 . S
C4024 H4040 0.931 . S
C4025 C4024 1.370 . S
C4025 C4029 1.408 . S
C4026 C4024 1.363 . S
C4026 C4027 1.370 . S
C4026 C4030 1.524 . S
C4027 C4019 1.503 . S
C4027 C4026 1.370 . S
C4027 C4028 1.403 . S
C4028 C4027 1.403 . S
C4028 C4029 1.404 . S
C4028 C4031 1.539 . S
C4029 C4025 1.408 . S
C4029 C4028 1.404 . S
C4029 H4041 0.930 . S
C4030 C4026 1.524 . S
C4030 H4042 0.956 . S
C4030 H4043 0.961 . S
C4030 H4044 0.961 . S
C4031 C4028 1.539 . S
C4031 H4045 0.958 . S
C4031 H4046 0.961 . S
C4031 H4047 0.960 . S
H4032 C4016 0.931 . S
H4033 C4021 0.929 . S
H4034 C4022 0.960 . S
H4035 C4022 0.962 . S
H4036 C4022 0.960 . S
H4037 C4023 0.961 . S
H4038 C4023 0.961 . S
H4039 C4023 0.961 . S
H4040 C4024 0.931 . S
H4041 C4029 0.930 . S
H4042 C4030 0.956 . S
H4043 C4030 0.961 . S
H4044 C4030 0.961 . S
H4045 C4031 0.958 . S
H4046 C4031 0.961 . S
H4047 C4031 0.960 . S
C4048 C4049 1.391 . S
C4048 C4050 1.394 . S
C4048 H4064 0.931 . S
C4049 C4048 1.391 . S
C4049 C4053 1.376 . S
C4050 C4048 1.394 . S
C4050 C4051 1.369 . S
C4050 C4054 1.531 . S
C4051 C4050 1.369 . S
C4051 C4052 1.410 . S
C4051 C4059 1.503 . S
C4052 C4051 1.410 . S
C4052 C4053 1.392 . S
C4052 C4055 1.511 . S
C4053 C4049 1.376 . S
C4053 C4052 1.392 . S
C4053 H4065 0.929 . S
C4054 C4050 1.531 . S
C4054 H4066 0.960 . S
C4054 H4067 0.961 1_455 S
C4054 H4068 0.960 . S
C4055 C4052 1.511 . S
C4055 H4069 0.961 . S
C4055 H4070 0.961 . S
C4055 H4071 0.961 . S
C4056 C4057 1.370 . S
C4056 C4058 1.363 . S
C4056 H4072 0.931 . S
C4057 C4056 1.370 . S
C4057 C4061 1.408 . S
C4058 C4056 1.363 . S
C4058 C4059 1.370 . S
C4058 C4062 1.524 . S
C4059 C4051 1.503 . S
C4059 C4058 1.370 . S
C4059 C4060 1.403 . S
C4060 C4059 1.403 . S
C4060 C4061 1.404 . S
C4060 C4063 1.539 . S
C4061 C4057 1.408 . S
C4061 C4060 1.404 . S
C4061 H4073 0.930 . S
C4062 C4058 1.524 . S
C4062 H4074 0.956 . S
C4062 H4075 0.961 . S
C4062 H4076 0.961 . S
C4063 C4060 1.539 . S
C4063 H4077 0.958 . S
C4063 H4078 0.961 . S
C4063 H4079 0.960 . S
H4064 C4048 0.931 . S
H4065 C4053 0.929 . S
H4066 C4054 0.960 . S
H4067 C4054 0.961 1_655 S
H4068 C4054 0.960 . S
H4069 C4055 0.961 . S
H4070 C4055 0.961 . S
H4071 C4055 0.961 . S
H4072 C4056 0.931 . S
H4073 C4061 0.930 . S
H4074 C4062 0.956 . S
H4075 C4062 0.961 . S
H4076 C4062 0.961 . S
H4077 C4063 0.958 . S
H4078 C4063 0.961 . S
H4079 C4063 0.960 . S
C4080 C4081 1.391 . S
C4080 C4082 1.394 . S
C4080 H4096 0.931 . S
C4081 C4080 1.391 . S
C4081 C4085 1.376 . S
C4082 C4080 1.394 . S
C4082 C4083 1.369 . S
C4082 C4086 1.531 . S
C4083 C4082 1.369 . S
C4083 C4084 1.410 . S
C4083 C4091 1.503 . S
C4084 C4083 1.410 . S
C4084 C4085 1.392 . S
C4084 C4087 1.511 . S
C4085 C4081 1.376 . S
C4085 C4084 1.392 . S
C4085 H4097 0.929 . S
C4086 C4082 1.531 . S
C4086 H4098 0.960 . S
C4086 H4099 0.962 . S
C4086 H4100 0.960 . S
C4087 C4084 1.511 . S
C4087 H4101 0.961 . S
C4087 H4102 0.961 . S
C4087 H4103 0.961 . S
C4088 C4089 1.370 . S
C4088 C4090 1.363 . S
C4088 H4104 0.931 . S
C4089 C4088 1.370 . S
C4089 C4093 1.408 . S
C4090 C4088 1.363 . S
C4090 C4091 1.370 . S
C4090 C4094 1.524 . S
C4091 C4083 1.503 . S
C4091 C4090 1.370 . S
C4091 C4092 1.403 . S
C4092 C4091 1.403 . S
C4092 C4093 1.404 . S
C4092 C4095 1.539 . S
C4093 C4089 1.408 . S
C4093 C4092 1.404 . S
C4093 H4105 0.930 . S
C4094 C4090 1.524 . S
C4094 H4106 0.956 . S
C4094 H4107 0.961 . S
C4094 H4108 0.961 . S
C4095 C4092 1.539 . S
C4095 H4109 0.958 . S
C4095 H4110 0.961 . S
C4095 H4111 0.960 . S
H4096 C4080 0.931 . S
H4097 C4085 0.929 . S
H4098 C4086 0.960 . S
H4099 C4086 0.962 . S
H4100 C4086 0.960 . S
H4101 C4087 0.961 . S
H4102 C4087 0.961 . S
H4103 C4087 0.961 . S
H4104 C4088 0.931 . S
H4105 C4093 0.930 . S
H4106 C4094 0.956 . S
H4107 C4094 0.961 . S
H4108 C4094 0.961 . S
H4109 C4095 0.958 . S
H4110 C4095 0.961 . S
H4111 C4095 0.960 . S
C4112 C4113 1.391 . S
C4112 C4114 1.394 . S
C4112 H4128 0.931 . S
C4113 C4112 1.391 . S
C4113 C4117 1.376 . S
C4114 C4112 1.394 . S
C4114 C4115 1.369 . S
C4114 C4118 1.531 . S
C4115 C4114 1.369 . S
C4115 C4116 1.410 . S
C4115 C4123 1.503 . S
C4116 C4115 1.410 . S
C4116 C4117 1.392 . S
C4116 C4119 1.511 . S
C4117 C4113 1.376 . S
C4117 C4116 1.392 . S
C4117 H4129 0.929 . S
C4118 C4114 1.531 . S
C4118 H4130 0.960 . S
C4118 H4131 0.962 . S
C4118 H4132 0.960 . S
C4119 C4116 1.511 . S
C4119 H4133 0.961 . S
C4119 H4134 0.961 . S
C4119 H4135 0.961 . S
C4120 C4121 1.370 . S
C4120 C4122 1.363 . S
C4120 H4136 0.931 . S
C4121 C4120 1.370 . S
C4121 C4125 1.408 . S
C4122 C4120 1.363 . S
C4122 C4123 1.370 . S
C4122 C4126 1.524 . S
C4123 C4115 1.503 . S
C4123 C4122 1.370 . S
C4123 C4124 1.403 . S
C4124 C4123 1.403 . S
C4124 C4125 1.404 . S
C4124 C4127 1.539 . S
C4125 C4121 1.408 . S
C4125 C4124 1.404 . S
C4125 H4137 0.930 . S
C4126 C4122 1.524 . S
C4126 H4138 0.956 . S
C4126 H4139 0.961 . S
C4126 H4140 0.961 . S
C4127 C4124 1.539 . S
C4127 H4141 0.958 . S
C4127 H4142 0.961 . S
C4127 H4143 0.960 . S
H4128 C4112 0.931 . S
H4129 C4117 0.929 . S
H4130 C4118 0.960 . S
H4131 C4118 0.962 . S
H4132 C4118 0.960 . S
H4133 C4119 0.961 . S
H4134 C4119 0.961 . S
H4135 C4119 0.961 . S
H4136 C4120 0.931 . S
H4137 C4125 0.930 . S
H4138 C4126 0.956 . S
H4139 C4126 0.961 . S
H4140 C4126 0.961 . S
H4141 C4127 0.958 . S
H4142 C4127 0.961 . S
H4143 C4127 0.960 . S
C4144 C4145 1.391 . S
C4144 C4146 1.394 . S
C4144 H4160 0.931 . S
C4145 C4144 1.391 . S
C4145 C4149 1.376 . S
C4146 C4144 1.394 . S
C4146 C4147 1.369 . S
C4146 C4150 1.531 . S
C4147 C4146 1.369 . S
C4147 C4148 1.410 . S
C4147 C4155 1.503 . S
C4148 C4147 1.410 . S
C4148 C4149 1.392 . S
C4148 C4151 1.511 . S
C4149 C4145 1.376 . S
C4149 C4148 1.392 . S
C4149 H4161 0.929 . S
C4150 C4146 1.531 . S
C4150 H4162 0.960 . S
C4150 H4163 0.962 . S
C4150 H4164 0.960 . S
C4151 C4148 1.511 . S
C4151 H4165 0.961 . S
C4151 H4166 0.961 . S
C4151 H4167 0.961 . S
C4152 C4153 1.370 . S
C4152 C4154 1.363 . S
C4152 H4168 0.931 . S
C4153 C4152 1.370 . S
C4153 C4157 1.408 . S
C4154 C4152 1.363 . S
C4154 C4155 1.370 . S
C4154 C4158 1.524 . S
C4155 C4147 1.503 . S
C4155 C4154 1.370 . S
C4155 C4156 1.403 . S
C4156 C4155 1.403 . S
C4156 C4157 1.404 . S
C4156 C4159 1.539 . S
C4157 C4153 1.408 . S
C4157 C4156 1.404 . S
C4157 H4169 0.930 . S
C4158 C4154 1.524 . S
C4158 H4170 0.956 . S
C4158 H4171 0.961 . S
C4158 H4172 0.961 . S
C4159 C4156 1.539 . S
C4159 H4173 0.958 . S
C4159 H4174 0.961 . S
C4159 H4175 0.960 . S
H4160 C4144 0.931 . S
H4161 C4149 0.929 . S
H4162 C4150 0.960 . S
H4163 C4150 0.962 . S
H4164 C4150 0.960 . S
H4165 C4151 0.961 . S
H4166 C4151 0.961 . S
H4167 C4151 0.961 . S
H4168 C4152 0.931 . S
H4169 C4157 0.930 . S
H4170 C4158 0.956 . S
H4171 C4158 0.961 . S
H4172 C4158 0.961 . S
H4173 C4159 0.958 . S
H4174 C4159 0.961 . S
H4175 C4159 0.960 . S
C4176 C4177 1.391 . S
C4176 C4178 1.394 . S
C4176 H4192 0.931 . S
C4177 C4176 1.391 . S
C4177 C4181 1.376 . S
C4178 C4176 1.394 . S
C4178 C4179 1.369 . S
C4178 C4182 1.531 . S
C4179 C4178 1.369 . S
C4179 C4180 1.410 . S
C4179 C4187 1.503 . S
C4180 C4179 1.410 . S
C4180 C4181 1.392 . S
C4180 C4183 1.511 . S
C4181 C4177 1.376 . S
C4181 C4180 1.392 . S
C4181 H4193 0.929 . S
C4182 C4178 1.531 . S
C4182 H4194 0.960 . S
C4182 H4195 0.962 . S
C4182 H4196 0.960 . S
C4183 C4180 1.511 . S
C4183 H4197 0.961 . S
C4183 H4198 0.961 . S
C4183 H4199 0.961 . S
C4184 C4185 1.370 . S
C4184 C4186 1.363 . S
C4184 H4200 0.931 . S
C4185 C4184 1.370 . S
C4185 C4189 1.408 . S
C4186 C4184 1.363 . S
C4186 C4187 1.370 . S
C4186 C4190 1.524 . S
C4187 C4179 1.503 . S
C4187 C4186 1.370 . S
C4187 C4188 1.403 . S
C4188 C4187 1.403 . S
C4188 C4189 1.404 . S
C4188 C4191 1.539 . S
C4189 C4185 1.408 . S
C4189 C4188 1.404 . S
C4189 H4201 0.930 . S
C4190 C4186 1.524 . S
C4190 H4202 0.956 . S
C4190 H4203 0.961 . S
C4190 H4204 0.961 . S
C4191 C4188 1.539 . S
C4191 H4205 0.958 . S
C4191 H4206 0.961 . S
C4191 H4207 0.960 . S
H4192 C4176 0.931 . S
H4193 C4181 0.929 . S
H4194 C4182 0.960 . S
H4195 C4182 0.962 . S
H4196 C4182 0.960 . S
H4197 C4183 0.961 . S
H4198 C4183 0.961 . S
H4199 C4183 0.961 . S
H4200 C4184 0.931 . S
H4201 C4189 0.930 . S
H4202 C4190 0.956 . S
H4203 C4190 0.961 . S
H4204 C4190 0.961 . S
H4205 C4191 0.958 . S
H4206 C4191 0.961 . S
H4207 C4191 0.960 . S
C4208 C4209 1.391 . S
C4208 C4210 1.394 . S
C4208 H4224 0.931 . S
C4209 C4208 1.391 . S
C4209 C4213 1.376 . S
C4210 C4208 1.394 . S
C4210 C4211 1.369 . S
C4210 C4214 1.531 . S
C4211 C4210 1.369 . S
C4211 C4212 1.410 . S
C4211 C4219 1.503 . S
C4212 C4211 1.410 . S
C4212 C4213 1.392 . S
C4212 C4215 1.511 . S
C4213 C4209 1.376 . S
C4213 C4212 1.392 . S
C4213 H4225 0.929 . S
C4214 C4210 1.531 . S
C4214 H4226 0.960 . S
C4214 H4227 0.962 . S
C4214 H4228 0.960 . S
C4215 C4212 1.511 . S
C4215 H4229 0.961 . S
C4215 H4230 0.961 . S
C4215 H4231 0.961 . S
C4216 C4217 1.370 . S
C4216 C4218 1.363 . S
C4216 H4232 0.931 . S
C4217 C4216 1.370 . S
C4217 C4221 1.408 . S
C4218 C4216 1.363 . S
C4218 C4219 1.370 . S
C4218 C4222 1.524 . S
C4219 C4211 1.503 . S
C4219 C4218 1.370 . S
C4219 C4220 1.403 . S
C4220 C4219 1.403 . S
C4220 C4221 1.404 . S
C4220 C4223 1.539 . S
C4221 C4217 1.408 . S
C4221 C4220 1.404 . S
C4221 H4233 0.930 . S
C4222 C4218 1.524 . S
C4222 H4234 0.956 . S
C4222 H4235 0.961 . S
C4222 H4236 0.961 . S
C4223 C4220 1.539 . S
C4223 H4237 0.958 . S
C4223 H4238 0.961 . S
C4223 H4239 0.960 . S
H4224 C4208 0.931 . S
H4225 C4213 0.929 . S
H4226 C4214 0.960 . S
H4227 C4214 0.962 . S
H4228 C4214 0.960 . S
H4229 C4215 0.961 . S
H4230 C4215 0.961 . S
H4231 C4215 0.961 . S
H4232 C4216 0.931 . S
H4233 C4221 0.930 . S
H4234 C4222 0.956 . S
H4235 C4222 0.961 . S
H4236 C4222 0.961 . S
H4237 C4223 0.958 . S
H4238 C4223 0.961 . S
H4239 C4223 0.960 . S
C4240 C4241 1.391 . S
C4240 C4242 1.394 . S
C4240 H4256 0.931 . S
C4241 C4240 1.391 . S
C4241 C4245 1.376 . S
C4242 C4240 1.394 . S
C4242 C4243 1.369 . S
C4242 C4246 1.531 . S
C4243 C4242 1.369 . S
C4243 C4244 1.410 . S
C4243 C4251 1.503 . S
C4244 C4243 1.410 . S
C4244 C4245 1.392 . S
C4244 C4247 1.511 . S
C4245 C4241 1.376 . S
C4245 C4244 1.392 . S
C4245 H4257 0.929 . S
C4246 C4242 1.531 . S
C4246 H4258 0.960 . S
C4246 H4259 0.962 . S
C4246 H4260 0.960 . S
C4247 C4244 1.511 . S
C4247 H4261 0.961 . S
C4247 H4262 0.961 . S
C4247 H4263 0.961 . S
C4248 C4249 1.370 . S
C4248 C4250 1.363 . S
C4248 H4264 0.931 . S
C4249 C4248 1.370 . S
C4249 C4253 1.408 . S
C4250 C4248 1.363 . S
C4250 C4251 1.370 . S
C4250 C4254 1.524 . S
C4251 C4243 1.503 . S
C4251 C4250 1.370 . S
C4251 C4252 1.403 . S
C4252 C4251 1.403 . S
C4252 C4253 1.404 . S
C4252 C4255 1.539 . S
C4253 C4249 1.408 . S
C4253 C4252 1.404 . S
C4253 H4265 0.930 . S
C4254 C4250 1.524 . S
C4254 H4266 0.956 . S
C4254 H4267 0.961 . S
C4254 H4268 0.961 . S
C4255 C4252 1.539 . S
C4255 H4269 0.958 . S
C4255 H4270 0.961 . S
C4255 H4271 0.960 . S
H4256 C4240 0.931 . S
H4257 C4245 0.929 . S
H4258 C4246 0.960 . S
H4259 C4246 0.962 . S
H4260 C4246 0.960 . S
H4261 C4247 0.961 . S
H4262 C4247 0.961 . S
H4263 C4247 0.961 . S
H4264 C4248 0.931 . S
H4265 C4253 0.930 . S
H4266 C4254 0.956 . S
H4267 C4254 0.961 . S
H4268 C4254 0.961 . S
H4269 C4255 0.958 . S
H4270 C4255 0.961 . S
H4271 C4255 0.960 . S
C4272 C4273 1.391 . S
C4272 C4274 1.394 . S
C4272 H4288 0.931 . S
C4273 C4272 1.391 . S
C4273 C4277 1.376 . S
C4274 C4272 1.394 . S
C4274 C4275 1.369 . S
C4274 C4278 1.531 . S
C4275 C4274 1.369 . S
C4275 C4276 1.410 . S
C4275 C4283 1.503 . S
C4276 C4275 1.410 . S
C4276 C4277 1.392 . S
C4276 C4279 1.511 . S
C4277 C4273 1.376 . S
C4277 C4276 1.392 . S
C4277 H4289 0.929 . S
C4278 C4274 1.531 . S
C4278 H4290 0.960 . S
C4278 H4291 0.962 . S
C4278 H4292 0.960 . S
C4279 C4276 1.511 . S
C4279 H4293 0.961 . S
C4279 H4294 0.961 . S
C4279 H4295 0.961 . S
C4280 C4281 1.370 . S
C4280 C4282 1.363 . S
C4280 H4296 0.931 . S
C4281 C4280 1.370 . S
C4281 C4285 1.408 . S
C4282 C4280 1.363 . S
C4282 C4283 1.370 . S
C4282 C4286 1.524 . S
C4283 C4275 1.503 . S
C4283 C4282 1.370 . S
C4283 C4284 1.403 . S
C4284 C4283 1.403 . S
C4284 C4285 1.404 . S
C4284 C4287 1.539 . S
C4285 C4281 1.408 . S
C4285 C4284 1.404 . S
C4285 H4297 0.930 . S
C4286 C4282 1.524 . S
C4286 H4298 0.956 . S
C4286 H4299 0.961 . S
C4286 H4300 0.961 . S
C4287 C4284 1.539 . S
C4287 H4301 0.958 . S
C4287 H4302 0.961 . S
C4287 H4303 0.960 . S
H4288 C4272 0.931 . S
H4289 C4277 0.929 . S
H4290 C4278 0.960 . S
H4291 C4278 0.962 . S
H4292 C4278 0.960 . S
H4293 C4279 0.961 . S
H4294 C4279 0.961 . S
H4295 C4279 0.961 . S
H4296 C4280 0.931 . S
H4297 C4285 0.930 . S
H4298 C4286 0.956 . S
H4299 C4286 0.961 . S
H4300 C4286 0.961 . S
H4301 C4287 0.958 . S
H4302 C4287 0.961 . S
H4303 C4287 0.960 . S
C4304 C4305 1.391 . S
C4304 C4306 1.394 . S
C4304 H4320 0.931 . S
C4305 C4304 1.391 . S
C4305 C4309 1.376 . S
C4306 C4304 1.394 . S
C4306 C4307 1.369 . S
C4306 C4310 1.531 . S
C4307 C4306 1.369 . S
C4307 C4308 1.410 . S
C4307 C4315 1.503 . S
C4308 C4307 1.410 . S
C4308 C4309 1.392 . S
C4308 C4311 1.511 . S
C4309 C4305 1.376 . S
C4309 C4308 1.392 . S
C4309 H4321 0.929 . S
C4310 C4306 1.531 . S
C4310 H4322 0.960 . S
C4310 H4323 0.962 . S
C4310 H4324 0.960 . S
C4311 C4308 1.511 . S
C4311 H4325 0.961 . S
C4311 H4326 0.961 . S
C4311 H4327 0.961 . S
C4312 C4313 1.370 . S
C4312 C4314 1.363 . S
C4312 H4328 0.931 . S
C4313 C4312 1.370 . S
C4313 C4317 1.408 . S
C4314 C4312 1.363 . S
C4314 C4315 1.370 . S
C4314 C4318 1.524 . S
C4315 C4307 1.503 . S
C4315 C4314 1.370 . S
C4315 C4316 1.403 . S
C4316 C4315 1.403 . S
C4316 C4317 1.404 . S
C4316 C4319 1.539 . S
C4317 C4313 1.408 . S
C4317 C4316 1.404 . S
C4317 H4329 0.930 . S
C4318 C4314 1.524 . S
C4318 H4330 0.956 . S
C4318 H4331 0.961 . S
C4318 H4332 0.961 . S
C4319 C4316 1.539 . S
C4319 H4333 0.958 . S
C4319 H4334 0.961 . S
C4319 H4335 0.960 . S
H4320 C4304 0.931 . S
H4321 C4309 0.929 . S
H4322 C4310 0.960 . S
H4323 C4310 0.962 . S
H4324 C4310 0.960 . S
H4325 C4311 0.961 . S
H4326 C4311 0.961 . S
H4327 C4311 0.961 . S
H4328 C4312 0.931 . S
H4329 C4317 0.930 . S
H4330 C4318 0.956 . S
H4331 C4318 0.961 . S
H4332 C4318 0.961 . S
H4333 C4319 0.958 . S
H4334 C4319 0.961 . S
H4335 C4319 0.960 . S
C4336 C4337 1.391 . S
C4336 C4338 1.394 . S
C4336 H4352 0.931 . S
C4337 C4336 1.391 . S
C4337 C4341 1.376 . S
C4338 C4336 1.394 . S
C4338 C4339 1.369 . S
C4338 C4342 1.531 . S
C4339 C4338 1.369 . S
C4339 C4340 1.410 . S
C4339 C4347 1.503 . S
C4340 C4339 1.410 . S
C4340 C4341 1.392 . S
C4340 C4343 1.511 . S
C4341 C4337 1.376 . S
C4341 C4340 1.392 . S
C4341 H4353 0.929 . S
C4342 C4338 1.531 . S
C4342 H4354 0.960 . S
C4342 H4355 0.962 . S
C4342 H4356 0.960 . S
C4343 C4340 1.511 . S
C4343 H4357 0.961 . S
C4343 H4358 0.961 . S
C4343 H4359 0.961 . S
C4344 C4345 1.370 . S
C4344 C4346 1.363 . S
C4344 H4360 0.931 . S
C4345 C4344 1.370 . S
C4345 C4349 1.408 . S
C4346 C4344 1.363 . S
C4346 C4347 1.370 . S
C4346 C4350 1.524 . S
C4347 C4339 1.503 . S
C4347 C4346 1.370 . S
C4347 C4348 1.403 . S
C4348 C4347 1.403 . S
C4348 C4349 1.404 . S
C4348 C4351 1.539 . S
C4349 C4345 1.408 . S
C4349 C4348 1.404 . S
C4349 H4361 0.930 . S
C4350 C4346 1.524 . S
C4350 H4362 0.956 . S
C4350 H4363 0.961 . S
C4350 H4364 0.961 . S
C4351 C4348 1.539 . S
C4351 H4365 0.958 . S
C4351 H4366 0.961 . S
C4351 H4367 0.960 . S
H4352 C4336 0.931 . S
H4353 C4341 0.929 . S
H4354 C4342 0.960 . S
H4355 C4342 0.962 . S
H4356 C4342 0.960 . S
H4357 C4343 0.961 . S
H4358 C4343 0.961 . S
H4359 C4343 0.961 . S
H4360 C4344 0.931 . S
H4361 C4349 0.930 . S
H4362 C4350 0.956 . S
H4363 C4350 0.961 . S
H4364 C4350 0.961 . S
H4365 C4351 0.958 . S
H4366 C4351 0.961 . S
H4367 C4351 0.960 . S
C4368 C4369 1.391 . S
C4368 C4370 1.394 . S
C4368 H4384 0.931 . S
C4369 C4368 1.391 . S
C4369 C4373 1.376 . S
C4370 C4368 1.394 . S
C4370 C4371 1.369 . S
C4370 C4374 1.531 . S
C4371 C4370 1.369 . S
C4371 C4372 1.410 . S
C4371 C4379 1.503 . S
C4372 C4371 1.410 . S
C4372 C4373 1.392 . S
C4372 C4375 1.511 . S
C4373 C4369 1.376 . S
C4373 C4372 1.392 . S
C4373 H4385 0.929 . S
C4374 C4370 1.531 . S
C4374 H4386 0.960 . S
C4374 H4387 0.962 . S
C4374 H4388 0.960 . S
C4375 C4372 1.511 . S
C4375 H4389 0.961 . S
C4375 H4390 0.961 . S
C4375 H4391 0.961 . S
C4376 C4377 1.370 . S
C4376 C4378 1.363 . S
C4376 H4392 0.931 . S
C4377 C4376 1.370 . S
C4377 C4381 1.408 . S
C4378 C4376 1.363 . S
C4378 C4379 1.370 . S
C4378 C4382 1.524 . S
C4379 C4371 1.503 . S
C4379 C4378 1.370 . S
C4379 C4380 1.403 . S
C4380 C4379 1.403 . S
C4380 C4381 1.404 . S
C4380 C4383 1.539 . S
C4381 C4377 1.408 . S
C4381 C4380 1.404 . S
C4381 H4393 0.930 . S
C4382 C4378 1.524 . S
C4382 H4394 0.956 . S
C4382 H4395 0.961 . S
C4382 H4396 0.961 . S
C4383 C4380 1.539 . S
C4383 H4397 0.958 . S
C4383 H4398 0.961 . S
C4383 H4399 0.960 . S
H4384 C4368 0.931 . S
H4385 C4373 0.929 . S
H4386 C4374 0.960 . S
H4387 C4374 0.962 . S
H4388 C4374 0.960 . S
H4389 C4375 0.961 . S
H4390 C4375 0.961 . S
H4391 C4375 0.961 . S
H4392 C4376 0.931 . S
H4393 C4381 0.930 . S
H4394 C4382 0.956 . S
H4395 C4382 0.961 . S
H4396 C4382 0.961 . S
H4397 C4383 0.958 . S
H4398 C4383 0.961 . S
H4399 C4383 0.960 . S
C4400 C4401 1.391 . S
C4400 C4402 1.394 . S
C4400 H4416 0.931 . S
C4401 C4400 1.391 . S
C4401 C4405 1.376 . S
C4402 C4400 1.394 . S
C4402 C4403 1.369 . S
C4402 C4406 1.531 . S
C4403 C4402 1.369 . S
C4403 C4404 1.410 . S
C4403 C4411 1.503 . S
C4404 C4403 1.410 . S
C4404 C4405 1.392 . S
C4404 C4407 1.511 . S
C4405 C4401 1.376 . S
C4405 C4404 1.392 . S
C4405 H4417 0.929 . S
C4406 C4402 1.531 . S
C4406 H4418 0.960 . S
C4406 H4419 0.962 . S
C4406 H4420 0.960 . S
C4407 C4404 1.511 . S
C4407 H4421 0.961 . S
C4407 H4422 0.961 . S
C4407 H4423 0.961 . S
C4408 C4409 1.370 . S
C4408 C4410 1.363 . S
C4408 H4424 0.931 . S
C4409 C4408 1.370 . S
C4409 C4413 1.408 . S
C4410 C4408 1.363 . S
C4410 C4411 1.370 . S
C4410 C4414 1.524 . S
C4411 C4403 1.503 . S
C4411 C4410 1.370 . S
C4411 C4412 1.403 . S
C4412 C4411 1.403 . S
C4412 C4413 1.404 . S
C4412 C4415 1.539 . S
C4413 C4409 1.408 . S
C4413 C4412 1.404 . S
C4413 H4425 0.930 . S
C4414 C4410 1.524 . S
C4414 H4426 0.956 . S
C4414 H4427 0.961 . S
C4414 H4428 0.961 . S
C4415 C4412 1.539 . S
C4415 H4429 0.958 . S
C4415 H4430 0.961 . S
C4415 H4431 0.960 . S
H4416 C4400 0.931 . S
H4417 C4405 0.929 . S
H4418 C4406 0.960 . S
H4419 C4406 0.962 . S
H4420 C4406 0.960 . S
H4421 C4407 0.961 . S
H4422 C4407 0.961 . S
H4423 C4407 0.961 . S
H4424 C4408 0.931 . S
H4425 C4413 0.930 . S
H4426 C4414 0.956 . S
H4427 C4414 0.961 . S
H4428 C4414 0.961 . S
H4429 C4415 0.958 . S
H4430 C4415 0.961 . S
H4431 C4415 0.960 . S
C4432 C4433 1.391 . S
C4432 C4434 1.394 . S
C4432 H4448 0.931 . S
C4433 C4432 1.391 . S
C4433 C4437 1.376 . S
C4434 C4432 1.394 . S
C4434 C4435 1.369 . S
C4434 C4438 1.531 . S
C4435 C4434 1.369 . S
C4435 C4436 1.410 . S
C4435 C4443 1.503 . S
C4436 C4435 1.410 . S
C4436 C4437 1.392 . S
C4436 C4439 1.511 . S
C4437 C4433 1.376 . S
C4437 C4436 1.392 . S
C4437 H4449 0.929 . S
C4438 C4434 1.531 . S
C4438 H4450 0.960 . S
C4438 H4451 0.962 . S
C4438 H4452 0.960 . S
C4439 C4436 1.511 . S
C4439 H4453 0.961 . S
C4439 H4454 0.961 . S
C4439 H4455 0.961 . S
C4440 C4441 1.370 . S
C4440 C4442 1.363 . S
C4440 H4456 0.931 . S
C4441 C4440 1.370 . S
C4441 C4445 1.408 . S
C4442 C4440 1.363 . S
C4442 C4443 1.370 . S
C4442 C4446 1.524 . S
C4443 C4435 1.503 . S
C4443 C4442 1.370 . S
C4443 C4444 1.403 . S
C4444 C4443 1.403 . S
C4444 C4445 1.404 . S
C4444 C4447 1.539 . S
C4445 C4441 1.408 . S
C4445 C4444 1.404 . S
C4445 H4457 0.930 . S
C4446 C4442 1.524 . S
C4446 H4458 0.956 . S
C4446 H4459 0.961 . S
C4446 H4460 0.961 . S
C4447 C4444 1.539 . S
C4447 H4461 0.958 . S
C4447 H4462 0.961 . S
C4447 H4463 0.960 . S
H4448 C4432 0.931 . S
H4449 C4437 0.929 . S
H4450 C4438 0.960 . S
H4451 C4438 0.962 . S
H4452 C4438 0.960 . S
H4453 C4439 0.961 . S
H4454 C4439 0.961 . S
H4455 C4439 0.961 . S
H4456 C4440 0.931 . S
H4457 C4445 0.930 . S
H4458 C4446 0.956 . S
H4459 C4446 0.961 . S
H4460 C4446 0.961 . S
H4461 C4447 0.958 . S
H4462 C4447 0.961 . S
H4463 C4447 0.960 . S
C4464 C4465 1.391 . S
C4464 C4466 1.394 . S
C4464 H4480 0.931 . S
C4465 C4464 1.391 . S
C4465 C4469 1.376 . S
C4466 C4464 1.394 . S
C4466 C4467 1.369 . S
C4466 C4470 1.531 . S
C4467 C4466 1.369 . S
C4467 C4468 1.410 . S
C4467 C4475 1.503 . S
C4468 C4467 1.410 . S
C4468 C4469 1.392 . S
C4468 C4471 1.511 . S
C4469 C4465 1.376 . S
C4469 C4468 1.392 . S
C4469 H4481 0.929 . S
C4470 C4466 1.531 . S
C4470 H4482 0.960 . S
C4470 H4483 0.962 . S
C4470 H4484 0.960 . S
C4471 C4468 1.511 . S
C4471 H4485 0.961 . S
C4471 H4486 0.961 . S
C4471 H4487 0.961 . S
C4472 C4473 1.370 . S
C4472 C4474 1.363 . S
C4472 H4488 0.931 . S
C4473 C4472 1.370 . S
C4473 C4477 1.408 . S
C4474 C4472 1.363 . S
C4474 C4475 1.370 . S
C4474 C4478 1.524 . S
C4475 C4467 1.503 . S
C4475 C4474 1.370 . S
C4475 C4476 1.403 . S
C4476 C4475 1.403 . S
C4476 C4477 1.404 . S
C4476 C4479 1.539 . S
C4477 C4473 1.408 . S
C4477 C4476 1.404 . S
C4477 H4489 0.930 . S
C4478 C4474 1.524 . S
C4478 H4490 0.956 . S
C4478 H4491 0.961 . S
C4478 H4492 0.961 . S
C4479 C4476 1.539 . S
C4479 H4493 0.958 . S
C4479 H4494 0.961 . S
C4479 H4495 0.960 . S
H4480 C4464 0.931 . S
H4481 C4469 0.929 . S
H4482 C4470 0.960 . S
H4483 C4470 0.962 . S
H4484 C4470 0.960 . S
H4485 C4471 0.961 . S
H4486 C4471 0.961 . S
H4487 C4471 0.961 . S
H4488 C4472 0.931 . S
H4489 C4477 0.930 . S
H4490 C4478 0.956 . S
H4491 C4478 0.961 . S
H4492 C4478 0.961 . S
H4493 C4479 0.958 . S
H4494 C4479 0.961 . S
H4495 C4479 0.960 . S
C4496 C4497 1.391 . S
C4496 C4498 1.394 . S
C4496 H4512 0.931 . S
C4497 C4496 1.391 . S
C4497 C4501 1.376 . S
C4498 C4496 1.394 . S
C4498 C4499 1.369 . S
C4498 C4502 1.531 . S
C4499 C4498 1.369 . S
C4499 C4500 1.410 . S
C4499 C4507 1.503 . S
C4500 C4499 1.410 . S
C4500 C4501 1.392 . S
C4500 C4503 1.511 . S
C4501 C4497 1.376 . S
C4501 C4500 1.392 . S
C4501 H4513 0.929 . S
C4502 C4498 1.531 . S
C4502 H4514 0.960 . S
C4502 H4515 0.962 . S
C4502 H4516 0.960 . S
C4503 C4500 1.511 . S
C4503 H4517 0.961 . S
C4503 H4518 0.961 . S
C4503 H4519 0.961 . S
C4504 C4505 1.370 . S
C4504 C4506 1.363 . S
C4504 H4520 0.931 . S
C4505 C4504 1.370 . S
C4505 C4509 1.408 . S
C4506 C4504 1.363 . S
C4506 C4507 1.370 . S
C4506 C4510 1.524 . S
C4507 C4499 1.503 . S
C4507 C4506 1.370 . S
C4507 C4508 1.403 . S
C4508 C4507 1.403 . S
C4508 C4509 1.404 . S
C4508 C4511 1.539 . S
C4509 C4505 1.408 . S
C4509 C4508 1.404 . S
C4509 H4521 0.930 . S
C4510 C4506 1.524 . S
C4510 H4522 0.956 . S
C4510 H4523 0.961 . S
C4510 H4524 0.961 . S
C4511 C4508 1.539 . S
C4511 H4525 0.958 . S
C4511 H4526 0.961 . S
C4511 H4527 0.960 . S
H4512 C4496 0.931 . S
H4513 C4501 0.929 . S
H4514 C4502 0.960 . S
H4515 C4502 0.962 . S
H4516 C4502 0.960 . S
H4517 C4503 0.961 . S
H4518 C4503 0.961 . S
H4519 C4503 0.961 . S
H4520 C4504 0.931 . S
H4521 C4509 0.930 . S
H4522 C4510 0.956 . S
H4523 C4510 0.961 . S
H4524 C4510 0.961 . S
H4525 C4511 0.958 . S
H4526 C4511 0.961 . S
H4527 C4511 0.960 . S
C4528 C4529 1.391 . S
C4528 C4530 1.394 . S
C4528 H4544 0.931 . S
C4529 C4528 1.391 . S
C4529 C4533 1.376 . S
C4530 C4528 1.394 . S
C4530 C4531 1.369 . S
C4530 C4534 1.531 . S
C4531 C4530 1.369 . S
C4531 C4532 1.410 . S
C4531 C4539 1.503 . S
C4532 C4531 1.410 . S
C4532 C4533 1.392 . S
C4532 C4535 1.511 . S
C4533 C4529 1.376 . S
C4533 C4532 1.392 . S
C4533 H4545 0.929 . S
C4534 C4530 1.531 . S
C4534 H4546 0.960 . S
C4534 H4547 0.962 . S
C4534 H4548 0.960 . S
C4535 C4532 1.511 . S
C4535 H4549 0.961 . S
C4535 H4550 0.961 . S
C4535 H4551 0.961 . S
C4536 C4537 1.370 . S
C4536 C4538 1.363 . S
C4536 H4552 0.931 . S
C4537 C4536 1.370 . S
C4537 C4541 1.408 . S
C4538 C4536 1.363 . S
C4538 C4539 1.370 . S
C4538 C4542 1.524 . S
C4539 C4531 1.503 . S
C4539 C4538 1.370 . S
C4539 C4540 1.403 . S
C4540 C4539 1.403 . S
C4540 C4541 1.404 . S
C4540 C4543 1.539 . S
C4541 C4537 1.408 . S
C4541 C4540 1.404 . S
C4541 H4553 0.930 1_565 S
C4542 C4538 1.524 . S
C4542 H4554 0.956 . S
C4542 H4555 0.961 . S
C4542 H4556 0.961 . S
C4543 C4540 1.539 . S
C4543 H4557 0.958 . S
C4543 H4558 0.961 1_565 S
C4543 H4559 0.960 . S
H4544 C4528 0.931 . S
H4545 C4533 0.929 . S
H4546 C4534 0.960 . S
H4547 C4534 0.962 . S
H4548 C4534 0.960 . S
H4549 C4535 0.961 . S
H4550 C4535 0.961 . S
H4551 C4535 0.961 . S
H4552 C4536 0.931 . S
H4553 C4541 0.930 1_545 S
H4554 C4542 0.956 . S
H4555 C4542 0.961 . S
H4556 C4542 0.961 . S
H4557 C4543 0.958 . S
H4558 C4543 0.961 1_545 S
H4559 C4543 0.960 . S
C4560 C4561 1.391 . S
C4560 C4562 1.394 . S
C4560 H4576 0.931 . S
C4561 C4560 1.391 . S
C4561 C4565 1.376 . S
C4562 C4560 1.394 . S
C4562 C4563 1.369 . S
C4562 C4566 1.531 . S
C4563 C4562 1.369 . S
C4563 C4564 1.410 . S
C4563 C4571 1.503 . S
C4564 C4563 1.410 . S
C4564 C4565 1.392 . S
C4564 C4567 1.511 . S
C4565 C4561 1.376 . S
C4565 C4564 1.392 . S
C4565 H4577 0.929 . S
C4566 C4562 1.531 . S
C4566 H4578 0.960 . S
C4566 H4579 0.962 . S
C4566 H4580 0.960 . S
C4567 C4564 1.511 . S
C4567 H4581 0.961 . S
C4567 H4582 0.961 . S
C4567 H4583 0.961 . S
C4568 C4569 1.370 . S
C4568 C4570 1.363 . S
C4568 H4584 0.931 . S
C4569 C4568 1.370 . S
C4569 C4573 1.408 . S
C4570 C4568 1.363 . S
C4570 C4571 1.370 . S
C4570 C4574 1.524 . S
C4571 C4563 1.503 . S
C4571 C4570 1.370 . S
C4571 C4572 1.403 . S
C4572 C4571 1.403 . S
C4572 C4573 1.404 . S
C4572 C4575 1.539 . S
C4573 C4569 1.408 . S
C4573 C4572 1.404 . S
C4573 H4585 0.930 . S
C4574 C4570 1.524 . S
C4574 H4586 0.956 . S
C4574 H4587 0.961 . S
C4574 H4588 0.961 . S
C4575 C4572 1.539 . S
C4575 H4589 0.958 . S
C4575 H4590 0.961 . S
C4575 H4591 0.960 . S
H4576 C4560 0.931 . S
H4577 C4565 0.929 . S
H4578 C4566 0.960 . S
H4579 C4566 0.962 . S
H4580 C4566 0.960 . S
H4581 C4567 0.961 . S
H4582 C4567 0.961 . S
H4583 C4567 0.961 . S
H4584 C4568 0.931 . S
H4585 C4573 0.930 . S
H4586 C4574 0.956 . S
H4587 C4574 0.961 . S
H4588 C4574 0.961 . S
H4589 C4575 0.958 . S
H4590 C4575 0.961 . S
H4591 C4575 0.960 . S
C4592 C4593 1.391 . S
C4592 C4594 1.394 . S
C4592 H4608 0.931 . S
C4593 C4592 1.391 . S
C4593 C4597 1.376 . S
C4594 C4592 1.394 . S
C4594 C4595 1.369 . S
C4594 C4598 1.531 . S
C4595 C4594 1.369 . S
C4595 C4596 1.410 . S
C4595 C4603 1.503 . S
C4596 C4595 1.410 . S
C4596 C4597 1.392 . S
C4596 C4599 1.511 . S
C4597 C4593 1.376 . S
C4597 C4596 1.392 . S
C4597 H4609 0.929 . S
C4598 C4594 1.531 . S
C4598 H4610 0.960 . S
C4598 H4611 0.962 . S
C4598 H4612 0.960 . S
C4599 C4596 1.511 . S
C4599 H4613 0.961 . S
C4599 H4614 0.961 . S
C4599 H4615 0.961 1_554 S
C4600 C4601 1.370 . S
C4600 C4602 1.363 . S
C4600 H4616 0.931 . S
C4601 C4600 1.370 . S
C4601 C4605 1.408 . S
C4602 C4600 1.363 . S
C4602 C4603 1.370 . S
C4602 C4606 1.524 . S
C4603 C4595 1.503 . S
C4603 C4602 1.370 . S
C4603 C4604 1.403 . S
C4604 C4603 1.403 . S
C4604 C4605 1.404 . S
C4604 C4607 1.539 . S
C4605 C4601 1.408 . S
C4605 C4604 1.404 . S
C4605 H4617 0.930 . S
C4606 C4602 1.524 . S
C4606 H4618 0.956 . S
C4606 H4619 0.961 . S
C4606 H4620 0.961 . S
C4607 C4604 1.539 . S
C4607 H4621 0.958 . S
C4607 H4622 0.961 1_554 S
C4607 H4623 0.960 . S
H4608 C4592 0.931 . S
H4609 C4597 0.929 . S
H4610 C4598 0.960 . S
H4611 C4598 0.962 . S
H4612 C4598 0.960 . S
H4613 C4599 0.961 . S
H4614 C4599 0.961 . S
H4615 C4599 0.961 1_556 S
H4616 C4600 0.931 . S
H4617 C4605 0.930 . S
H4618 C4606 0.956 . S
H4619 C4606 0.961 . S
H4620 C4606 0.961 . S
H4621 C4607 0.958 . S
H4622 C4607 0.961 1_556 S
H4623 C4607 0.960 . S
C4624 C4625 1.391 . S
C4624 C4626 1.394 . S
C4624 H4640 0.931 . S
C4625 C4624 1.391 . S
C4625 C4629 1.376 . S
C4626 C4624 1.394 . S
C4626 C4627 1.369 . S
C4626 C4630 1.531 . S
C4627 C4626 1.369 . S
C4627 C4628 1.410 . S
C4627 C4635 1.503 . S
C4628 C4627 1.410 . S
C4628 C4629 1.392 . S
C4628 C4631 1.511 . S
C4629 C4625 1.376 . S
C4629 C4628 1.392 . S
C4629 H4641 0.929 . S
C4630 C4626 1.531 . S
C4630 H4642 0.960 . S
C4630 H4643 0.962 . S
C4630 H4644 0.960 . S
C4631 C4628 1.511 . S
C4631 H4645 0.961 . S
C4631 H4646 0.961 . S
C4631 H4647 0.961 . S
C4632 C4633 1.370 . S
C4632 C4634 1.363 . S
C4632 H4648 0.931 . S
C4633 C4632 1.370 . S
C4633 C4637 1.408 . S
C4634 C4632 1.363 . S
C4634 C4635 1.370 . S
C4634 C4638 1.524 . S
C4635 C4627 1.503 . S
C4635 C4634 1.370 . S
C4635 C4636 1.403 . S
C4636 C4635 1.403 . S
C4636 C4637 1.404 . S
C4636 C4639 1.539 . S
C4637 C4633 1.408 . S
C4637 C4636 1.404 . S
C4637 H4649 0.930 . S
C4638 C4634 1.524 . S
C4638 H4650 0.956 . S
C4638 H4651 0.961 . S
C4638 H4652 0.961 . S
C4639 C4636 1.539 . S
C4639 H4653 0.958 . S
C4639 H4654 0.961 . S
C4639 H4655 0.960 . S
H4640 C4624 0.931 . S
H4641 C4629 0.929 . S
H4642 C4630 0.960 . S
H4643 C4630 0.962 . S
H4644 C4630 0.960 . S
H4645 C4631 0.961 . S
H4646 C4631 0.961 . S
H4647 C4631 0.961 . S
H4648 C4632 0.931 . S
H4649 C4637 0.930 . S
H4650 C4638 0.956 . S
H4651 C4638 0.961 . S
H4652 C4638 0.961 . S
H4653 C4639 0.958 . S
H4654 C4639 0.961 . S
H4655 C4639 0.960 . S
C4656 C4657 1.391 . S
C4656 C4658 1.394 . S
C4656 H4672 0.931 . S
C4657 C4656 1.391 . S
C4657 C4661 1.376 . S
C4658 C4656 1.394 . S
C4658 C4659 1.369 . S
C4658 C4662 1.531 1_554 S
C4659 C4658 1.369 . S
C4659 C4660 1.410 . S
C4659 C4667 1.503 . S
C4660 C4659 1.410 . S
C4660 C4661 1.392 . S
C4660 C4663 1.511 . S
C4661 C4657 1.376 . S
C4661 C4660 1.392 . S
C4661 H4673 0.929 . S
C4662 C4658 1.531 1_556 S
C4662 H4674 0.960 . S
C4662 H4675 0.962 . S
C4662 H4676 0.960 . S
C4663 C4660 1.511 . S
C4663 H4677 0.961 . S
C4663 H4678 0.961 . S
C4663 H4679 0.961 . S
C4664 C4665 1.370 . S
C4664 C4666 1.363 . S
C4664 H4680 0.931 . S
C4665 C4664 1.370 . S
C4665 C4669 1.408 . S
C4666 C4664 1.363 . S
C4666 C4667 1.370 . S
C4666 C4670 1.524 . S
C4667 C4659 1.503 . S
C4667 C4666 1.370 . S
C4667 C4668 1.403 . S
C4668 C4667 1.403 . S
C4668 C4669 1.404 . S
C4668 C4671 1.539 . S
C4669 C4665 1.408 . S
C4669 C4668 1.404 . S
C4669 H4681 0.930 . S
C4670 C4666 1.524 . S
C4670 H4682 0.956 . S
C4670 H4683 0.961 . S
C4670 H4684 0.961 . S
C4671 C4668 1.539 . S
C4671 H4685 0.958 . S
C4671 H4686 0.961 . S
C4671 H4687 0.960 . S
H4672 C4656 0.931 . S
H4673 C4661 0.929 . S
H4674 C4662 0.960 . S
H4675 C4662 0.962 . S
H4676 C4662 0.960 . S
H4677 C4663 0.961 . S
H4678 C4663 0.961 . S
H4679 C4663 0.961 . S
H4680 C4664 0.931 . S
H4681 C4669 0.930 . S
H4682 C4670 0.956 . S
H4683 C4670 0.961 . S
H4684 C4670 0.961 . S
H4685 C4671 0.958 . S
H4686 C4671 0.961 . S
H4687 C4671 0.960 . S
C4688 C4689 1.391 . S
C4688 C4690 1.394 . S
C4688 H4704 0.931 . S
C4689 C4688 1.391 . S
C4689 C4693 1.376 . S
C4690 C4688 1.394 . S
C4690 C4691 1.369 . S
C4690 C4694 1.531 . S
C4691 C4690 1.369 . S
C4691 C4692 1.410 . S
C4691 C4699 1.503 . S
C4692 C4691 1.410 . S
C4692 C4693 1.392 . S
C4692 C4695 1.511 . S
C4693 C4689 1.376 . S
C4693 C4692 1.392 . S
C4693 H4705 0.929 . S
C4694 C4690 1.531 . S
C4694 H4706 0.960 . S
C4694 H4707 0.962 . S
C4694 H4708 0.960 . S
C4695 C4692 1.511 . S
C4695 H4709 0.961 . S
C4695 H4710 0.961 . S
C4695 H4711 0.961 . S
C4696 C4697 1.370 . S
C4696 C4698 1.363 . S
C4696 H4712 0.931 . S
C4697 C4696 1.370 . S
C4697 C4701 1.408 . S
C4698 C4696 1.363 . S
C4698 C4699 1.370 . S
C4698 C4702 1.524 . S
C4699 C4691 1.503 . S
C4699 C4698 1.370 . S
C4699 C4700 1.403 . S
C4700 C4699 1.403 . S
C4700 C4701 1.404 . S
C4700 C4703 1.539 . S
C4701 C4697 1.408 . S
C4701 C4700 1.404 . S
C4701 H4713 0.930 . S
C4702 C4698 1.524 . S
C4702 H4714 0.956 . S
C4702 H4715 0.961 . S
C4702 H4716 0.961 . S
C4703 C4700 1.539 . S
C4703 H4717 0.958 . S
C4703 H4718 0.961 . S
C4703 H4719 0.960 . S
H4704 C4688 0.931 . S
H4705 C4693 0.929 . S
H4706 C4694 0.960 . S
H4707 C4694 0.962 . S
H4708 C4694 0.960 . S
H4709 C4695 0.961 . S
H4710 C4695 0.961 . S
H4711 C4695 0.961 . S
H4712 C4696 0.931 . S
H4713 C4701 0.930 . S
H4714 C4702 0.956 . S
H4715 C4702 0.961 . S
H4716 C4702 0.961 . S
H4717 C4703 0.958 . S
H4718 C4703 0.961 . S
H4719 C4703 0.960 . S
C4720 C4721 1.391 . S
C4720 C4722 1.394 . S
C4720 H4736 0.931 . S
C4721 C4720 1.391 . S
C4721 C4725 1.376 . S
C4722 C4720 1.394 . S
C4722 C4723 1.369 . S
C4722 C4726 1.531 . S
C4723 C4722 1.369 . S
C4723 C4724 1.410 . S
C4723 C4731 1.503 . S
C4724 C4723 1.410 . S
C4724 C4725 1.392 . S
C4724 C4727 1.511 . S
C4725 C4721 1.376 . S
C4725 C4724 1.392 . S
C4725 H4737 0.929 . S
C4726 C4722 1.531 . S
C4726 H4738 0.960 . S
C4726 H4739 0.962 . S
C4726 H4740 0.960 . S
C4727 C4724 1.511 . S
C4727 H4741 0.961 . S
C4727 H4742 0.961 . S
C4727 H4743 0.961 . S
C4728 C4729 1.370 . S
C4728 C4730 1.363 . S
C4728 H4744 0.931 . S
C4729 C4728 1.370 . S
C4729 C4733 1.408 . S
C4730 C4728 1.363 . S
C4730 C4731 1.370 . S
C4730 C4734 1.524 . S
C4731 C4723 1.503 . S
C4731 C4730 1.370 . S
C4731 C4732 1.403 . S
C4732 C4731 1.403 . S
C4732 C4733 1.404 . S
C4732 C4735 1.539 . S
C4733 C4729 1.408 . S
C4733 C4732 1.404 . S
C4733 H4745 0.930 . S
C4734 C4730 1.524 . S
C4734 H4746 0.956 . S
C4734 H4747 0.961 . S
C4734 H4748 0.961 . S
C4735 C4732 1.539 . S
C4735 H4749 0.958 . S
C4735 H4750 0.961 . S
C4735 H4751 0.960 . S
H4736 C4720 0.931 . S
H4737 C4725 0.929 . S
H4738 C4726 0.960 . S
H4739 C4726 0.962 . S
H4740 C4726 0.960 . S
H4741 C4727 0.961 . S
H4742 C4727 0.961 . S
H4743 C4727 0.961 . S
H4744 C4728 0.931 . S
H4745 C4733 0.930 . S
H4746 C4734 0.956 . S
H4747 C4734 0.961 . S
H4748 C4734 0.961 . S
H4749 C4735 0.958 . S
H4750 C4735 0.961 . S
H4751 C4735 0.960 . S
C1681 C105 2.160 . S
C1689 C403 2.158 . S
C1713 C65 1.899 . S
C1721 C476 1.893 . S
C1745 C73 1.856 . S
C1753 C571 1.889 . S
C1785 C646 1.416 . S
C1777 C92 1.477 . S
C1809 C17 1.547 . S
C1817 C730 1.449 . S
C1849 C823 1.850 . S
C1841 C37 1.822 . S
C1881 C896 1.898 . S
C1873 C49 1.779 . S
C1905 C8 2.085 . S
C1913 C991 2.096 . S
C1945 C392 1.676 . S
C1937 C231 1.687 . S
C1969 C241 0.942 . S
C1977 C478 0.897 . S
C2009 C560 1.170 . S
C2001 C273 1.129 . S
C2041 C655 1.629 . S
C2033 C171 1.633 1_556 S
C2065 C227 1.613 . S
C2073 C739 1.614 . S
C2105 C812 1.171 . S
C2097 C245 1.101 . S
C2137 C898 0.909 . S
C2129 C269 0.936 . S
C2169 C980 1.685 . S
C2161 C175 1.701 . S
C2201 C394 0.998 1_565 S
C2193 C162 1.040 1_554 S
C2225 C289 1.691 . S
C2233 C1064 1.685 . S
C2265 C1150 1.328 . S
C2257 C330 1.409 . S
C2297 C1243 0.829 . S
C2289 C317 0.829 . S
C2321 C120 0.973 . S
C2329 C982 0.964 . S
C2353 C134 1.415 . S
C2361 C562 1.329 . S
C2385 C331 1.654 . S
C2393 C1316 1.645 . S
C2425 C1411 0.773 . S
C2417 C303 0.790 . S
C2457 C391 2.189 . S
C2449 C59 2.157 . S
C2489 C1412 1.931 . S
C2481 C107 1.927 . S
C2513 C91 1.914 . S
C2521 C559 1.937 . S
C2545 C78 1.517 . S
C2553 C1330 1.410 . S
C2585 C742 1.479 . S
C2577 C7 1.563 . S
C2609 C51 1.868 . S
C2617 C1147 1.897 . S
C2649 C908 1.943 1_556 S
C2641 C31 1.946 . S
C2681 C1483 2.122 . S
C2673 C22 2.109 . S
C2713 C404 1.719 . S
C2705 C143 1.758 . S
C2745 C1414 0.912 . S
C2737 C315 0.916 . S
C2769 C115 1.201 . S
C2777 C572 1.180 . S
C2801 C287 1.659 . S
C2809 C1315 1.672 . S
C2833 C147 1.633 . S
C2841 C727 1.663 . S
C2873 C1160 1.194 . S
C2865 C311 1.223 . S
C2897 C119 0.989 . S
C2905 C910 0.929 . S
C2929 C283 1.750 . S
C2937 C1496 1.706 . S
C2961 C190 1.022 . S
C2969 C406 1.000 . S
C2993 C177 1.716 . S
C3001 C1076 1.717 . S
C3025 C260 1.369 . S
C3033 C826 1.329 . S
C3057 C247 0.880 . S
C3065 C1231 0.881 . S
C3097 C1498 0.994 . S
C3089 C274 1.016 1_565 S
C3121 C218 1.408 . S
C3129 C574 1.362 . S
C3161 C656 1.692 . S
C3153 C261 1.700 . S
C3193 C475 0.810 . S
C3185 C205 0.815 . S
C3217 C77 2.153 . S
C3225 C1579 2.161 . S
C3257 C1400 1.888 . S
C3249 C93 1.893 . S
C3281 C101 1.861 . S
C3289 C1663 1.885 . S
C3313 C64 1.490 1_655 S
C3321 C1318 1.421 . S
C3345 C45 1.547 . S
C3353 C1066 1.450 . S
C3385 C1159 1.855 . S
C3377 C9 1.813 . S
C3417 C1232 1.907 . S
C3409 C21 1.820 . S
C3449 C1495 2.091 . S
C3441 C36 2.096 . S
C3481 C1568 1.685 . S
C3473 C259 1.712 . S
C3505 C185 0.949 . S
C3513 C1402 0.920 . S
C3545 C1652 1.150 . S
C3537 C203 1.090 . S
C3577 C1327 1.633 . S
C3569 C213 1.628 . S
C3609 C1075 1.614 . S
C3601 C255 1.612 . S
C3633 C189 1.165 . S
C3641 C1148 1.169 . S
C3673 C1234 0.900 . S
C3665 C199 0.952 . S
C3697 C217 1.677 . S
C3705 C1484 1.670 . S
C3737 C1570 1.006 . S
C3729 C316 1.048 . S
C3761 C135 1.704 . S
C3769 C728 1.683 . S
C3801 C814 1.331 . S
C3793 C148 1.408 1_565 S
C3833 C907 0.831 . S
C3825 C163 0.802 . S
C3865 C1486 0.992 . S
C3857 C302 0.998 . S
C3889 C288 1.410 . S
C3897 C1654 1.355 . S
C3929 C644 1.651 . S
C3921 C149 1.656 . S
C3961 C487 0.766 . S
C3953 C121 0.760 . S
C3985 C87 2.169 . S
C3993 C1567 2.186 . S
C4025 C488 1.930 . S
C4017 C79 1.924 . S
C4049 C63 1.901 . S
C4057 C1651 1.939 . S
C4081 C106 1.519 . S
C4089 C658 1.442 . S
C4113 C35 1.512 . S
C4121 C1078 1.461 . S
C4153 C811 1.896 . S
C4145 C23 1.870 . S
C4177 C3 1.953 . S
C4185 C1244 1.948 . S
C4209 C50 2.100 . S
C4217 C979 2.121 . S
C4249 C1580 1.713 . S
C4241 C325 1.766 . S
C4273 C161 1.003 . S
C4281 C490 0.946 . S
C4313 C1664 1.202 1_655 S
C4305 C297 1.198 . S
C4337 C133 1.615 . S
C4345 C643 1.677 . S
C4369 C329 1.649 . S
C4377 C1063 1.662 . S
C4409 C824 1.200 . S
C4401 C157 1.229 . S
C4433 C301 0.954 . S
C4441 C1246 0.906 . S
C4473 C992 1.716 . S
C4465 C129 1.741 . S
C4505 C1582 1.022 . S
C4497 C246 1.045 . S
C4537 C740 1.715 1_565 S
C4529 C219 1.725 . S
C4561 C232 1.385 . S
C4569 C1162 1.347 . S
C4601 C895 0.875 . S
C4593 C191 0.844 . S
C4625 C204 0.982 . S
C4633 C994 0.962 . S
C4657 C176 1.421 . S
C4665 C1666 1.345 . S
C4697 C1328 1.691 . S
C4689 C233 1.695 . S
C4729 C1399 0.812 . S
C4721 C275 0.834 . S
