# Generated by pormake.
# Topology anh, (6,3)-cn, num edge types: 1
# Building blocks:
#     Node 0, Type 0, BuildingBlock: BETFAJ_clean_sbu_0, # of connection points: 6
#     Node 1, Type 0, BuildingBlock: BETFAJ_clean_sbu_0, # of connection points: 6
#     Node 2, Type 0, BuildingBlock: BETFAJ_clean_sbu_0, # of connection points: 6
#     Node 3, Type 1, BuildingBlock: WUSLED_clean_sbu_0, # of connection points: 3
#     Node 4, Type 1, BuildingBlock: WUSLED_clean_sbu_0, # of connection points: 3
#     Node 5, Type 1, BuildingBlock: WUSLED_clean_sbu_0, # of connection points: 3
#     Node 6, Type 1, BuildingBlock: WUSLED_clean_sbu_0, # of connection points: 3
#     Node 7, Type 1, BuildingBlock: WUSLED_clean_sbu_0, # of connection points: 3
#     Node 8, Type 1, BuildingBlock: WUSLED_clean_sbu_0, # of connection points: 3
#     Edge 9, Type (0, 1), BuildingBlock: TEMPAE_clean_linker_10, # of connection points: 2
#     Edge 10, Type (0, 1), BuildingBlock: TEMPAE_clean_linker_10, # of connection points: 2
#     Edge 11, Type (0, 1), BuildingBlock: TEMPAE_clean_linker_10, # of connection points: 2
#     Edge 12, Type (0, 1), BuildingBlock: TEMPAE_clean_linker_10, # of connection points: 2
#     Edge 13, Type (0, 1), BuildingBlock: TEMPAE_clean_linker_10, # of connection points: 2
#     Edge 14, Type (0, 1), BuildingBlock: TEMPAE_clean_linker_10, # of connection points: 2
#     Edge 15, Type (0, 1), BuildingBlock: TEMPAE_clean_linker_10, # of connection points: 2
#     Edge 16, Type (0, 1), BuildingBlock: TEMPAE_clean_linker_10, # of connection points: 2
#     Edge 17, Type (0, 1), BuildingBlock: TEMPAE_clean_linker_10, # of connection points: 2
#     Edge 18, Type (0, 1), BuildingBlock: TEMPAE_clean_linker_10, # of connection points: 2
#     Edge 19, Type (0, 1), BuildingBlock: TEMPAE_clean_linker_10, # of connection points: 2
#     Edge 20, Type (0, 1), BuildingBlock: TEMPAE_clean_linker_10, # of connection points: 2
#     Edge 21, Type (0, 1), BuildingBlock: TEMPAE_clean_linker_10, # of connection points: 2
#     Edge 22, Type (0, 1), BuildingBlock: TEMPAE_clean_linker_10, # of connection points: 2
#     Edge 23, Type (0, 1), BuildingBlock: TEMPAE_clean_linker_10, # of connection points: 2
#     Edge 24, Type (0, 1), BuildingBlock: TEMPAE_clean_linker_10, # of connection points: 2
#     Edge 25, Type (0, 1), BuildingBlock: TEMPAE_clean_linker_10, # of connection points: 2
#     Edge 26, Type (0, 1), BuildingBlock: TEMPAE_clean_linker_10, # of connection points: 2
# Relax obj value: 0.169
# Max RMSD: 0.201
# Mean RMSD: 0.148
data_MOF--net-anh--node1-BETFAJ_clean_sbu_0--node2-WUSLED_clean_sbu_0--edge1-TEMPAE_clean_linker_10
_symmetry_space_group_name_H-M    P1
_symmetry_Int_Tables_number       1
_symmetry_cell_setting            triclinic
loop_
_symmetry_equiv_pos_as_xyz
'x, y, z'
_cell_length_a     41.046914
_cell_length_b     46.611639
_cell_length_c     70.02199
_cell_angle_alpha  92.122172
_cell_angle_beta   89.554587
_cell_angle_gamma 127.66454
loop_
_atom_site_label
_atom_site_type_symbol
_atom_site_fract_x
_atom_site_fract_y
_atom_site_fract_z
_atom_type_partial_charge
Sm0 Sm 0.08015 0.49779 0.17169 0.0
Sm1 Sm 1.04385 0.52885 0.17133 0.0
C2 C 0.13207 0.48357 0.1689 0.0
C3 C 0.17554 0.50928 0.1746 0.0
C4 C 0.20375 0.53807 0.16292 0.0
C5 C 0.2454 0.56063 0.16779 0.0
C6 C 0.25899 0.55302 0.18374 0.0
C7 C 0.23047 0.52967 0.19731 0.0
C8 C 0.18879 0.50699 0.1925 0.0
C9 C 0.06087 0.50555 0.20854 0.0
C10 C 0.13972 0.58739 0.17208 0.0
C11 C 0.99762 0.54797 0.18035 0.0
C12 C 0.95344 0.52389 0.18307 0.0
C13 C 0.93631 0.5009 0.19866 0.0
C14 C 0.89407 0.47376 0.19926 0.0
C15 C 0.86892 0.4693 0.18423 0.0
C16 C 0.88625 0.49223 0.16871 0.0
C17 C 0.92804 0.51954 0.16826 0.0
C18 C 0.06203 0.52245 0.13385 0.0
C19 C 0.98415 0.43943 0.16971 0.0
O20 O 0.12076 0.49188 0.15402 0.0
O21 O 0.10618 0.47179 0.18289 0.0
O22 O 0.07894 0.53009 0.19647 0.0
O23 O 0.05071 0.47527 0.20105 0.0
O24 O 0.13837 0.55851 0.16963 0.0
O25 O 0.10576 0.58341 0.17458 0.0
O26 O 1.01943 0.54634 0.19307 0.0
O27 O 1.00893 0.54821 0.16282 0.0
O28 O 0.04666 0.49761 0.14588 0.0
O29 O 0.06861 0.55127 0.14164 0.0
O30 O 0.98615 0.46827 0.17408 0.0
O31 O 1.01781 0.44343 0.16557 0.0
H32 H 0.19421 0.54183 0.14946 0.0
H33 H 0.26717 0.57917 0.15733 0.0
H34 H 0.24056 0.52418 0.20997 0.0
H35 H 0.16737 0.48628 0.20225 0.0
H36 H 0.95539 0.5036 0.21028 0.0
H37 H 0.88091 0.45707 0.21161 0.0
H38 H 0.86723 0.49035 0.15731 0.0
H39 H 0.94063 0.53684 0.15612 0.0
Sm40 Sm 0.57896 1.00265 0.49183 0.0
Sm41 Sm 0.53046 0.02944 0.49342 0.0
C42 C 0.60746 0.96521 0.49549 0.0
C43 C 0.59044 0.92665 0.4963 0.0
C44 C 0.57363 0.90779 0.51323 0.0
C45 C 0.56209 0.87287 0.51451 0.0
C46 C 0.56692 0.85605 0.4989 0.0
C47 C 0.58115 0.8738 0.48159 0.0
C48 C 0.59309 0.90893 0.48034 0.0
C49 C 0.56504 0.01769 0.45649 0.0
C50 C 0.47719 0.94373 0.49201 0.0
C51 C 0.50322 0.0673 0.48786 0.0
C52 C 0.52074 0.10604 0.48975 0.0
C53 C 0.53083 0.12608 0.47326 0.0
C54 C 0.54468 0.16192 0.47467 0.0
C55 C 0.54888 0.17847 0.49259 0.0
C56 C 0.54075 0.15914 0.50915 0.0
C57 C 0.52662 0.12318 0.50776 0.0
C58 C 0.54421 0.01474 0.52888 0.0
C59 C 0.63258 0.08905 0.49378 0.0
O60 O 0.60114 0.97956 0.51006 0.0
O61 O 0.60441 0.97593 0.4791 0.0
O62 O 0.53827 1.00106 0.46922 0.0
O63 O 0.59995 0.02591 0.46205 0.0
O64 O 0.51244 0.9507 0.49701 0.0
O65 O 0.47613 0.97006 0.48691 0.0
O66 O 0.51785 0.05848 0.47418 0.0
O67 O 0.49677 0.05028 0.50356 0.0
O68 O 0.5711 0.03102 0.51613 0.0
O69 O 0.50962 1.00737 0.52342 0.0
O70 O 0.59675 0.08238 0.49099 0.0
O71 O 0.63496 0.06251 0.49642 0.0
H72 H 0.57071 0.92041 0.52573 0.0
H73 H 0.55084 0.85948 0.52796 0.0
H74 H 0.58529 0.86139 0.4694 0.0
H75 H 0.6058 0.92272 0.46709 0.0
H76 H 0.52698 0.11373 0.45921 0.0
H77 H 0.551 0.17642 0.46172 0.0
H78 H 0.54336 0.17124 0.52313 0.0
H79 H 0.51934 0.10861 0.52076 0.0
Sm80 Sm 0.61522 0.57431 0.84022 0.0
Sm81 Sm 0.56112 0.49473 0.84134 0.0
C82 C 0.64685 0.64184 0.83258 0.0
C83 C 0.63195 0.66395 0.83416 0.0
C84 C 0.60929 0.6636 0.8191 0.0
C85 C 0.59566 0.68469 0.82043 0.0
C86 C 0.60439 0.70682 0.83685 0.0
C87 C 0.62654 0.70678 0.85207 0.0
C88 C 0.64025 0.68566 0.85072 0.0
C89 C 0.60032 0.54998 0.87621 0.0
C90 C 0.51097 0.5295 0.84424 0.0
C91 C 0.52869 0.42662 0.84813 0.0
C92 C 0.54085 0.40262 0.84517 0.0
C93 C 0.548 0.38937 0.86102 0.0
C94 C 0.55749 0.36527 0.85851 0.0
C95 C 0.55981 0.35366 0.84006 0.0
C96 C 0.55419 0.36806 0.82421 0.0
C97 C 0.54478 0.39218 0.82672 0.0
C98 C 0.57393 0.52002 0.80524 0.0
C99 C 0.66533 0.53937 0.84266 0.0
O100 O 0.62914 0.61533 0.81954 0.0
O101 O 0.65421 0.633 0.84858 0.0
O102 O 0.57377 0.53679 0.86299 0.0
O103 O 0.63618 0.57791 0.87096 0.0
O104 O 0.54764 0.55952 0.83928 0.0
O105 O 0.50856 0.50041 0.848 0.0
O106 O 0.54985 0.45317 0.861 0.0
O107 O 0.51946 0.43608 0.83294 0.0
O108 O 0.60189 0.53238 0.81782 0.0
O109 O 0.53825 0.49325 0.81131 0.0
O110 O 0.62739 0.50865 0.8446 0.0
O111 O 0.66961 0.5695 0.83924 0.0
H112 H 0.60243 0.64734 0.80611 0.0
H113 H 0.57934 0.68446 0.80828 0.0
H114 H 0.63346 0.72319 0.865 0.0
H115 H 0.65757 0.68655 0.86263 0.0
H116 H 0.54544 0.39713 0.8754 0.0
H117 H 0.56147 0.35469 0.87104 0.0
H118 H 0.55661 0.36036 0.80979 0.0
H119 H 0.54006 0.40221 0.81417 0.0
C120 C 0.64574 0.11382 0.19055 0.0
C121 C 0.66761 0.13675 0.20664 0.0
C122 C 0.71912 0.18516 0.18597 0.0
C123 C 0.70399 0.17215 0.20436 0.0
C124 C 0.69649 0.16196 0.17001 0.0
C125 C 0.66041 0.12681 0.1723 0.0
U126 U 0.55568 0.0251 0.21541 0.0
O127 O 0.52961 0.96963 0.20495 0.0
O128 O 0.49153 0.98831 0.20417 0.0
C129 C 0.49455 0.9624 0.19963 0.0
C130 C 0.6079 0.07613 0.19194 0.0
C131 C 0.4572 0.92426 0.19807 0.0
C132 C 0.40231 0.87476 0.17748 0.0
C133 C 0.43594 0.91128 0.18044 0.0
C134 C 0.40997 0.86341 0.20997 0.0
C135 C 0.389 0.85014 0.19211 0.0
C136 C 0.44392 0.90015 0.2129 0.0
C137 C 0.56093 0.03384 0.27297 0.0
C138 C 0.52429 0.99649 0.30028 0.0
C139 C 0.58458 0.05894 0.30539 0.0
C140 C 0.58859 0.06288 0.28567 0.0
C141 C 0.55274 0.02565 0.31305 0.0
C142 C 0.52844 1.00052 0.28034 0.0
C143 C 0.56841 0.04027 0.25235 0.0
O144 O 0.61205 0.05243 0.19842 0.0
O145 O 0.57471 0.07147 0.19809 0.0
O146 O 0.54485 0.04445 0.2422 0.0
O147 O 0.58309 0.02591 0.24261 0.0
H148 H 0.65678 0.12723 0.22088 0.0
H149 H 0.72063 0.18906 0.21701 0.0
H150 H 0.70643 0.17103 0.15563 0.0
H151 H 0.64388 0.10961 0.15969 0.0
H152 H 0.38667 0.86586 0.16367 0.0
H153 H 0.44585 0.92941 0.16875 0.0
H154 H 0.40081 0.84522 0.22153 0.0
H155 H 0.4601 0.90956 0.22657 0.0
H156 H 0.49947 0.97042 0.30568 0.0
H157 H 0.60653 0.0822 0.31467 0.0
H158 H 0.61376 0.08888 0.2803 0.0
H159 H 0.50669 0.97772 0.27076 0.0
C160 C 0.54954 0.57711 0.53416 0.0
C161 C 0.54763 0.59762 0.54867 0.0
C162 C 0.55021 0.63591 0.52491 0.0
C163 C 0.54787 0.62674 0.54408 0.0
C164 C 0.55196 0.61511 0.51047 0.0
C165 C 0.5516 0.58598 0.51507 0.0
U166 U 0.55333 0.51991 0.57031 0.0
O167 O 0.52341 0.46146 0.5699 0.0
O168 O 0.59097 0.50092 0.57058 0.0
C169 C 0.55866 0.46657 0.56956 0.0
C170 C 0.55064 0.54715 0.53873 0.0
C171 C 0.56127 0.44264 0.55647 0.0
C172 C 0.54814 0.41009 0.52594 0.0
C173 C 0.54795 0.43558 0.53723 0.0
C174 C 0.57592 0.39966 0.55289 0.0
C175 C 0.56127 0.39136 0.5339 0.0
C176 C 0.57598 0.42506 0.56402 0.0
C177 C 0.55646 0.54376 0.62393 0.0
C178 C 0.56161 0.51342 0.64996 0.0
C179 C 0.567 0.56757 0.65659 0.0
C180 C 0.56152 0.56951 0.63716 0.0
C181 C 0.56759 0.53979 0.66325 0.0
C182 C 0.55625 0.51548 0.63041 0.0
C183 C 0.55322 0.54815 0.60348 0.0
O184 O 0.58509 0.55707 0.54678 0.0
O185 O 0.51761 0.51941 0.5468 0.0
O186 O 0.51939 0.52138 0.59438 0.0
O187 O 0.58666 0.56123 0.59363 0.0
H188 H 0.54631 0.59128 0.56352 0.0
H189 H 0.54698 0.64248 0.55555 0.0
H190 H 0.5533 0.62118 0.49558 0.0
H191 H 0.55314 0.57045 0.5037 0.0
H192 H 0.53666 0.40402 0.51132 0.0
H193 H 0.53659 0.44904 0.53115 0.0
H194 H 0.58651 0.38578 0.55926 0.0
H195 H 0.58656 0.43028 0.57877 0.0
H196 H 0.56198 0.49172 0.65462 0.0
H197 H 0.57064 0.58785 0.66645 0.0
H198 H 0.56165 0.59145 0.63243 0.0
H199 H 0.55249 0.49537 0.62035 0.0
C200 C 0.99026 0.53229 0.86774 0.0
C201 C 0.96184 0.52347 0.88239 0.0
C202 C 0.91945 0.534 0.86221 0.0
C203 C 0.92769 0.52437 0.87974 0.0
C204 C 0.94841 0.54271 0.84769 0.0
C205 C 0.98231 0.54184 0.85038 0.0
U206 U 0.08191 0.52659 0.8876 0.0
O207 O 0.10306 0.49737 0.87239 0.0
O208 O 0.14556 0.55597 0.8761 0.0
C209 C 0.14061 0.52678 0.86936 0.0
C210 C 1.02714 0.53085 0.86922 0.0
C211 C 0.1778 0.52567 0.86809 0.0
C212 C 0.22054 0.51496 0.84807 0.0
C213 C 0.18561 0.51451 0.85068 0.0
C214 C 0.24231 0.53749 0.88036 0.0
C215 C 0.25043 0.52643 0.86278 0.0
C216 C 0.20733 0.53733 0.88289 0.0
C217 C 0.07554 0.51949 0.94647 0.0
C218 C 0.10882 0.53118 0.97777 0.0
C219 C 1.03585 0.50132 0.97594 0.0
C220 C 1.03794 0.50325 0.95585 0.0
C221 C 0.07126 0.51523 0.98734 0.0
C222 C 0.11093 0.53344 0.9577 0.0
C223 C 0.07787 0.52207 0.92514 0.0
O224 O 0.06358 0.5591 0.87566 0.0
O225 O 1.02109 0.50039 0.8727 0.0
O226 O 0.05646 0.4934 0.9134 0.0
O227 O 0.1015 0.55317 0.91669 0.0
H228 H 0.96584 0.51569 0.89604 0.0
H229 H 0.9077 0.51712 0.89173 0.0
H230 H 0.94559 0.55049 0.83385 0.0
H231 H 1.00262 0.54865 0.8385 0.0
H232 H 0.22408 0.50672 0.83408 0.0
H233 H 0.16466 0.50578 0.83865 0.0
H234 H 0.2629 0.54629 0.8925 0.0
H235 H 0.20355 0.54651 0.89656 0.0
H236 H 0.13674 0.54167 0.98578 0.0
H237 H 1.00643 0.48941 0.98255 0.0
H238 H 1.01015 0.49252 0.94764 0.0
H239 H 0.14032 0.54583 0.95093 0.0
C240 C 0.94748 0.42642 0.47557 0.0
C241 C 0.93182 0.40163 0.45985 0.0
C242 C 0.87832 0.35293 0.47977 0.0
C243 C 0.89753 0.36522 0.46193 0.0
C244 C 0.8938 0.37834 0.49528 0.0
C245 C 0.92796 0.41451 0.4932 0.0
U246 U 1.03891 0.51632 0.45194 0.0
O247 O 0.10264 0.5506 0.4635 0.0
O248 O 0.067 0.5717 0.46372 0.0
C249 C 0.10108 0.57702 0.46895 0.0
C250 C 0.9854 0.4642 0.47465 0.0
C251 C 0.1397 0.61434 0.47142 0.0
C252 C 0.19175 0.66288 0.49342 0.0
C253 C 0.15497 0.62797 0.49009 0.0
C254 C 0.19863 0.67146 0.45934 0.0
C255 C 0.21426 0.68524 0.47812 0.0
C256 C 0.16171 0.6363 0.45602 0.0
C257 C 1.03315 0.50872 0.39392 0.0
C258 C 0.06933 0.54401 0.36589 0.0
C259 C 1.00909 0.48137 0.3618 0.0
C260 C 1.00512 0.47894 0.38164 0.0
C261 C 1.04144 0.51375 0.35352 0.0
C262 C 0.06529 0.54149 0.38594 0.0
C263 C 1.02702 0.50355 0.41477 0.0
O264 O 1.01852 0.46883 0.46844 0.0
O265 O 0.98184 0.48853 0.46861 0.0
O266 O 1.01347 0.51862 0.4248 0.0
O267 O 0.04927 0.49759 0.42473 0.0
H268 H 0.94652 0.41023 0.44612 0.0
H269 H 0.88683 0.34654 0.44966 0.0
H270 H 0.87954 0.37035 0.50912 0.0
H271 H 0.93958 0.4332 0.50553 0.0
H272 H 0.20283 0.67205 0.50803 0.0
H273 H 0.13846 0.61139 0.5022 0.0
H274 H 0.2147 0.68797 0.44718 0.0
H275 H 0.15041 0.62631 0.44151 0.0
H276 H 0.09474 0.56938 0.3601 0.0
H277 H 0.98644 0.45772 0.35291 0.0
H278 H 0.97989 0.45346 0.38745 0.0
H279 H 0.08728 0.5649 0.39513 0.0
C280 C 0.54893 0.94396 0.80126 0.0
C281 C 0.54425 0.91934 0.78721 0.0
C282 C 0.55495 0.88897 0.81131 0.0
C283 C 0.54717 0.89206 0.79219 0.0
C284 C 0.55932 0.91369 0.82527 0.0
C285 C 0.55629 0.94078 0.82028 0.0
U286 U 0.54655 1.00425 0.76578 0.0
O287 O 0.58236 0.0636 0.7669 0.0
O288 O 0.51484 0.02908 0.76795 0.0
C289 C 0.54955 0.06229 0.76826 0.0
C290 C 0.54773 0.97391 0.79648 0.0
C291 C 0.55292 0.08993 0.78105 0.0
C292 C 0.5609 0.11899 0.81225 0.0
C293 C 0.55501 0.09024 0.80112 0.0
C294 C 0.56209 0.14655 0.78334 0.0
C295 C 0.56536 0.14785 0.80336 0.0
C296 C 0.55596 0.11802 0.77238 0.0
C297 C 0.54736 0.9856 0.71119 0.0
C298 C 0.53833 0.01284 0.68468 0.0
C299 C 0.56351 0.97805 0.67874 0.0
C300 C 0.56086 0.9714 0.69822 0.0
C301 C 0.55227 0.99878 0.67173 0.0
C302 C 0.5362 1.00654 0.70432 0.0
C303 C 0.54566 0.978 0.73165 0.0
O304 O 0.58106 1.00172 0.78867 0.0
O305 O 0.51359 0.96476 0.7884 0.0
O306 O 0.51206 0.96722 0.74082 0.0
O307 O 0.57947 1.0012 0.74179 0.0
H308 H 0.53862 0.92137 0.77241 0.0
H309 H 0.54316 0.87331 0.78107 0.0
H310 H 0.56603 0.91267 0.84004 0.0
H311 H 0.56026 0.95965 0.83132 0.0
H312 H 0.56301 0.11917 0.82767 0.0
H313 H 0.55269 0.06871 0.80809 0.0
H314 H 0.5644 0.16783 0.77607 0.0
H315 H 0.55422 0.11823 0.75695 0.0
H316 H 0.52962 0.02903 0.67963 0.0
H317 H 0.57389 0.96656 0.66908 0.0
H318 H 0.56945 0.95506 0.70318 0.0
H319 H 0.5259 0.01796 0.71409 0.0
C320 C 0.58468 0.47264 0.14064 0.0
C321 C 0.61128 0.47293 0.12781 0.0
C322 C 0.65394 0.48223 0.15442 0.0
C323 C 0.64598 0.47777 0.13471 0.0
C324 C 0.62861 0.48403 0.16711 0.0
C325 C 0.59392 0.47927 0.16019 0.0
U326 U 0.52207 0.45873 0.09854 0.0
O327 O 0.48656 0.47834 0.09243 0.0
O328 O 0.45531 0.41969 0.09294 0.0
C329 C 0.45153 0.44576 0.09413 0.0
C330 C 0.54686 0.46447 0.1335 0.0
C331 C 0.42828 0.44405 0.11046 0.0
C332 C 0.43247 0.45999 0.14421 0.0
C333 C 0.44601 0.45058 0.12876 0.0
C334 C 0.37948 0.45148 0.12375 0.0
C335 C 0.40039 0.46204 0.14151 0.0
C336 C 0.39371 0.44281 0.10813 0.0
C337 C 0.56654 0.47405 0.05024 0.0
C338 C 0.5281 0.47367 0.02409 0.0
C339 C 0.59711 0.49216 0.01924 0.0
C340 C 0.59978 0.48642 0.03832 0.0
C341 C 0.56116 0.48559 0.012 0.0
C342 C 0.53077 0.46786 0.04316 0.0
C343 C 0.57044 0.47091 0.07045 0.0
O344 O 0.55186 0.4915 0.12499 0.0
O345 O 0.52303 0.43314 0.12391 0.0
O346 O 0.54337 0.43833 0.07702 0.0
O347 O 0.57483 0.49697 0.08102 0.0
H348 H 0.60423 0.46792 0.11261 0.0
H349 H 0.66494 0.47558 0.12486 0.0
H350 H 0.63452 0.48712 0.18239 0.0
H351 H 0.57357 0.47937 0.17009 0.0
H352 H 0.44929 0.46872 0.15772 0.0
H353 H 0.47266 0.45154 0.13076 0.0
H354 H 0.35465 0.45325 0.12159 0.0
H355 H 0.3798 0.43786 0.09412 0.0
H356 H 0.50019 0.46853 0.01876 0.0
H357 H 0.62327 0.50209 0.01017 0.0
H358 H 0.62786 0.49207 0.04382 0.0
H359 H 0.50521 0.45896 0.05246 0.0
C360 C 0.32559 0.5661 0.19295 0.0
C361 C 0.29183 0.54999 0.18046 0.0
C362 C 0.35185 0.55639 0.19144 0.0
C363 C 0.34282 0.52949 0.17755 0.0
C364 C 0.30819 0.5129 0.16513 0.0
C365 C 0.28352 0.52376 0.16663 0.0
C366 C 0.3888 0.5745 0.20468 0.0
C367 C 0.2966 0.48329 0.15038 0.0
C368 C 0.41142 0.51863 0.14993 0.0
C369 C 0.39579 0.48375 0.15504 0.0
C370 C 0.39892 0.53709 0.15937 0.0
C371 C 0.37063 0.52004 0.17436 0.0
C372 C 0.35971 0.48713 0.18138 0.0
C373 C 0.37223 0.46889 0.17138 0.0
C374 C 0.40992 0.57132 0.15094 0.0
C375 C 0.33002 0.46868 0.19755 0.0
H376 H 0.33082 0.58552 0.20398 0.0
H377 H 0.25617 0.51025 0.15755 0.0
H378 H 0.38856 0.55376 0.2121 0.0
H379 H 0.41738 0.59033 0.19628 0.0
H380 H 0.38983 0.59305 0.21553 0.0
H381 H 0.26851 0.47353 0.14195 0.0
H382 H 0.32211 0.49325 0.1403 0.0
H383 H 0.2908 0.45974 0.15751 0.0
H384 H 0.43028 0.52995 0.13735 0.0
H385 H 0.36099 0.44203 0.17535 0.0
H386 H 0.41391 0.59063 0.16221 0.0
H387 H 0.38452 0.56422 0.1412 0.0
H388 H 0.43849 0.58502 0.14251 0.0
H389 H 0.33616 0.48879 0.20888 0.0
H390 H 0.33179 0.44818 0.20392 0.0
H391 H 0.29812 0.45464 0.19207 0.0
C392 C 0.70791 0.13636 0.48748 0.0
C393 C 0.67024 0.12739 0.49364 0.0
C394 C 0.74243 0.17286 0.48553 0.0
C395 C 0.73953 0.20106 0.49036 0.0
C396 C 0.70194 0.19205 0.49734 0.0
C397 C 0.66772 0.15542 0.49864 0.0
C398 C 0.78172 0.18122 0.47783 0.0
C399 C 0.69755 0.22106 0.50312 0.0
C400 C 0.83876 0.29705 0.49948 0.0
C401 C 0.84279 0.31384 0.48238 0.0
C402 C 0.80532 0.2606 0.50232 0.0
C403 C 0.77531 0.23991 0.4876 0.0
C404 C 0.77921 0.2565 0.47028 0.0
C405 C 0.81268 0.29317 0.46792 0.0
C406 C 0.80199 0.2443 0.52116 0.0
C407 C 0.74808 0.2354 0.45415 0.0
H408 H 0.70998 0.11483 0.48349 0.0
H409 H 0.63876 0.1487 0.50356 0.0
H410 H 0.79115 0.19776 0.46501 0.0
H411 H 0.80688 0.19746 0.48867 0.0
H412 H 0.77849 0.15627 0.47391 0.0
H413 H 0.66741 0.20967 0.50976 0.0
H414 H 0.72249 0.24111 0.51339 0.0
H415 H 0.70049 0.23591 0.49038 0.0
H416 H 0.86203 0.31233 0.51068 0.0
H417 H 0.81493 0.30576 0.45477 0.0
H418 H 0.80325 0.22134 0.5188 0.0
H419 H 0.77191 0.23328 0.52771 0.0
H420 H 0.82696 0.26436 0.53145 0.0
H421 H 0.74815 0.2126 0.44908 0.0
H422 H 0.75455 0.25252 0.44188 0.0
H423 H 0.71667 0.22347 0.45925 0.0
C424 C 0.55519 0.72011 0.82916 0.0
C425 C 0.59269 0.7315 0.83733 0.0
C426 C 0.54655 0.74466 0.82676 0.0
C427 C 0.57594 0.78148 0.83283 0.0
C428 C 0.61245 0.79252 0.84241 0.0
C429 C 0.62047 0.76747 0.84447 0.0
C430 C 0.50697 0.73157 0.81676 0.0
C431 C 0.64397 0.83125 0.84966 0.0
C432 C 0.58035 0.85218 0.80481 0.0
C433 C 0.55949 0.86078 0.81671 0.0
C434 C 0.58585 0.8265 0.80995 0.0
C435 C 0.57036 0.80899 0.8275 0.0
C436 C 0.54948 0.8176 0.83965 0.0
C437 C 0.544 0.8431 0.83404 0.0
C438 C 0.6085 0.81824 0.79662 0.0
C439 C 0.53249 0.79965 0.85848 0.0
H440 H 0.533 0.69213 0.8241 0.0
H441 H 0.64951 0.77661 0.85083 0.0
H442 H 0.49103 0.74021 0.8251 0.0
H443 H 0.51399 0.74391 0.80261 0.0
H444 H 0.48567 0.70158 0.81457 0.0
H445 H 0.66929 0.8349 0.85798 0.0
H446 H 0.65745 0.84942 0.83743 0.0
H447 H 0.62908 0.83997 0.85886 0.0
H448 H 0.5931 0.86602 0.79156 0.0
H449 H 0.52725 0.849 0.84324 0.0
H450 H 0.58852 0.78888 0.79249 0.0
H451 H 0.63618 0.82462 0.80401 0.0
H452 H 0.61835 0.8339 0.78343 0.0
H453 H 0.50503 0.77108 0.85579 0.0
H454 H 0.5233 0.81354 0.86762 0.0
H455 H 0.55544 0.79927 0.86649 0.0
C456 C 0.79969 0.42983 0.17031 0.0
C457 C 0.82472 0.4485 0.18653 0.0
C458 C 0.76883 0.43274 0.16583 0.0
C459 C 0.76159 0.45224 0.17875 0.0
C460 C 0.78168 0.46492 0.1968 0.0
C461 C 0.81273 0.46203 0.20072 0.0
C462 C 0.7482 0.41943 0.14632 0.0
C463 C 0.77429 0.48572 0.21086 0.0
C464 C 0.72457 0.50095 0.15765 0.0
C465 C 0.68282 0.47705 0.16183 0.0
C466 C 0.75118 0.49357 0.16339 0.0
C467 C 0.73475 0.46117 0.17299 0.0
C468 C 0.69258 0.43709 0.17713 0.0
C469 C 0.667 0.4455 0.17158 0.0
C470 C 0.79645 0.51999 0.15902 0.0
C471 C 0.67445 0.4021 0.18699 0.0
H472 H 0.80916 0.419 0.15957 0.0
H473 H 0.83197 0.47594 0.21342 0.0
H474 H 0.71453 0.40464 0.14741 0.0
H475 H 0.76035 0.44304 0.13732 0.0
H476 H 0.75392 0.40141 0.13893 0.0
H477 H 0.79011 0.49116 0.22484 0.0
H478 H 0.78588 0.5121 0.20491 0.0
H479 H 0.74087 0.47057 0.21326 0.0
H480 H 0.73609 0.52505 0.14984 0.0
H481 H 0.63427 0.42682 0.17426 0.0
H482 H 0.80571 0.50647 0.14966 0.0
H483 H 0.81512 0.52913 0.17242 0.0
H484 H 0.80409 0.54425 0.15184 0.0
H485 H 0.67875 0.38453 0.17804 0.0
H486 H 0.64109 0.38692 0.18968 0.0
H487 H 0.69073 0.40774 0.20082 0.0
C488 C 0.403 0.89624 0.48244 0.0
C489 C 0.4386 0.90571 0.49184 0.0
C490 C 0.36688 0.86014 0.48136 0.0
C491 C 0.36591 0.83272 0.49015 0.0
C492 C 0.40135 0.84228 0.50019 0.0
C493 C 0.43734 0.87853 0.50075 0.0
C494 C 0.32992 0.85121 0.47047 0.0
C495 C 0.40156 0.81414 0.51006 0.0
C496 C 0.25868 0.7444 0.49763 0.0
C497 C 0.25386 0.72257 0.48176 0.0
C498 C 0.29549 0.77971 0.50098 0.0
C499 C 0.32828 0.79397 0.48804 0.0
C500 C 0.32407 0.77182 0.47233 0.0
C501 C 0.28711 0.73652 0.46941 0.0
C502 C 0.29898 0.80203 0.51818 0.0
C503 C 0.35818 0.78578 0.45817 0.0
H504 H 0.40358 0.91696 0.47552 0.0
H505 H 0.46455 0.88556 0.50819 0.0
H506 H 0.3212 0.83094 0.45872 0.0
H507 H 0.30323 0.83893 0.48007 0.0
H508 H 0.33572 0.87551 0.46426 0.0
H509 H 0.42991 0.82649 0.5189 0.0
H510 H 0.37442 0.79801 0.51935 0.0
H511 H 0.39943 0.79505 0.49923 0.0
H512 H 0.23331 0.73423 0.50726 0.0
H513 H 0.28431 0.71979 0.45739 0.0
H514 H 0.30103 0.82551 0.51343 0.0
H515 H 0.32755 0.81302 0.5265 0.0
H516 H 0.27227 0.78604 0.52776 0.0
H517 H 0.36125 0.80697 0.44973 0.0
H518 H 0.35224 0.76395 0.44815 0.0
H519 H 0.38805 0.79849 0.46569 0.0
C520 C 0.54202 0.29721 0.82321 0.0
C521 C 0.56535 0.32494 0.8373 0.0
C522 C 0.54572 0.26935 0.8205 0.0
C523 C 0.57322 0.26875 0.83226 0.0
C524 C 0.59674 0.29647 0.84663 0.0
C525 C 0.59265 0.32431 0.84894 0.0
C526 C 0.52011 0.24049 0.80494 0.0
C527 C 0.62654 0.29698 0.85942 0.0
C528 C 0.54825 0.17552 0.82932 0.0
C529 C 0.57354 0.17978 0.81431 0.0
C530 C 0.55031 0.20523 0.83663 0.0
C531 C 0.57808 0.23974 0.82865 0.0
C532 C 0.60623 0.24468 0.8148 0.0
C533 C 0.60372 0.21474 0.8079 0.0
C534 C 0.52069 0.19911 0.85186 0.0
C535 C 0.63649 0.28082 0.80588 0.0
H536 H 0.52023 0.29693 0.81441 0.0
H537 H 0.61113 0.34579 0.85974 0.0
H538 H 0.54043 0.2397 0.79476 0.0
H539 H 0.49974 0.21346 0.81126 0.0
H540 H 0.5007 0.24518 0.79682 0.0
H541 H 0.63905 0.31794 0.87122 0.0
H542 H 0.6113 0.2701 0.86566 0.0
H543 H 0.65264 0.30264 0.85089 0.0
H544 H 0.52507 0.14866 0.83446 0.0
H545 H 0.62399 0.21832 0.7966 0.0
H546 H 0.4963 0.1994 0.8454 0.0
H547 H 0.53677 0.22123 0.86308 0.0
H548 H 0.50581 0.17273 0.85868 0.0
H549 H 0.61978 0.28557 0.79571 0.0
H550 H 0.66068 0.28179 0.79794 0.0
H551 H 0.65157 0.30329 0.81687 0.0
C552 C 0.53708 0.79157 0.48959 0.0
C553 C 0.56261 0.82256 0.50159 0.0
C554 C 0.53376 0.76011 0.49233 0.0
C555 C 0.55717 0.76014 0.50714 0.0
C556 C 0.58371 0.79179 0.51891 0.0
C557 C 0.58578 0.82244 0.5161 0.0
C558 C 0.50494 0.72677 0.47959 0.0
C559 C 0.61021 0.79344 0.53443 0.0
C560 C 0.52468 0.67287 0.52884 0.0
C561 C 0.55117 0.6672 0.51995 0.0
C562 C 0.52547 0.70241 0.52434 0.0
C563 C 0.55364 0.72706 0.51074 0.0
C564 C 0.58033 0.72141 0.50163 0.0
C565 C 0.57863 0.69148 0.50629 0.0
C566 C 0.49652 0.70754 0.53434 0.0
C567 C 0.61097 0.74717 0.48712 0.0
H568 H 0.51933 0.79183 0.4783 0.0
H569 H 0.60618 0.84673 0.52509 0.0
H570 H 0.52194 0.71792 0.47257 0.0
H571 H 0.48073 0.70415 0.48833 0.0
H572 H 0.48986 0.73148 0.46838 0.0
H573 H 0.62953 0.82031 0.54218 0.0
H574 H 0.59056 0.77234 0.54491 0.0
H575 H 0.63073 0.78777 0.52813 0.0
H576 H 0.50304 0.654 0.53923 0.0
H577 H 0.59948 0.68749 0.4995 0.0
H578 H 0.47769 0.70881 0.52363 0.0
H579 H 0.51443 0.73367 0.54277 0.0
H580 H 0.47556 0.68534 0.54411 0.0
H581 H 0.59431 0.74551 0.47422 0.0
H582 H 0.63215 0.74091 0.48272 0.0
H583 H 0.62959 0.77557 0.49295 0.0
C584 C 0.69953 0.5071 0.84234 0.0
C585 C 0.70327 0.53937 0.84464 0.0
C586 C 0.73374 0.50618 0.84445 0.0
C587 C 0.77405 0.53804 0.84975 0.0
C588 C 0.77801 0.57071 0.85214 0.0
C589 C 0.74349 0.57107 0.84935 0.0
C590 C 0.72657 0.47063 0.84082 0.0
C591 C 0.81919 0.6058 0.85774 0.0
C592 C 0.85398 0.52825 0.87368 0.0
C593 C 0.88186 0.535 0.85901 0.0
C594 C 0.81985 0.52918 0.87091 0.0
C595 C 0.8114 0.53711 0.85291 0.0
C596 C 0.83908 0.544 0.83803 0.0
C597 C 0.87286 0.54276 0.84114 0.0
C598 C 0.79256 0.52172 0.88757 0.0
C599 C 0.83263 0.55209 0.81837 0.0
H600 H 0.66946 0.48211 0.8386 0.0
H601 H 0.74801 0.59646 0.8513 0.0
H602 H 0.74855 0.47388 0.83009 0.0
H603 H 0.73227 0.46215 0.85418 0.0
H604 H 0.69472 0.4487 0.83558 0.0
H605 H 0.81707 0.62807 0.86115 0.0
H606 H 0.83238 0.60213 0.87034 0.0
H607 H 0.84092 0.61405 0.84583 0.0
H608 H 0.85849 0.52221 0.88771 0.0
H609 H 0.89203 0.54785 0.82909 0.0
H610 H 0.76053 0.49757 0.88409 0.0
H611 H 0.79196 0.545 0.89032 0.0
H612 H 0.80292 0.51687 0.90083 0.0
H613 H 0.80499 0.52696 0.81153 0.0
H614 H 0.85938 0.56221 0.80904 0.0
H615 H 0.82698 0.57252 0.81924 0.0
C616 C 0.17788 0.65336 0.16784 0.0
C617 C 0.17883 0.62484 0.17252 0.0
C618 C 0.21272 0.68969 0.17027 0.0
C619 C 0.24969 0.69797 0.17768 0.0
C620 C 0.2513 0.66926 0.18186 0.0
C621 C 0.21586 0.63293 0.17908 0.0
C622 C 0.20964 0.71918 0.16516 0.0
C623 C 0.29002 0.67699 0.18993 0.0
C624 C 0.34905 0.79311 0.17096 0.0
C625 C 0.3537 0.81086 0.18858 0.0
C626 C 0.31559 0.75642 0.16726 0.0
C627 C 0.2861 0.73668 0.18156 0.0
C628 C 0.29058 0.75435 0.19938 0.0
C629 C 0.3242 0.79113 0.20265 0.0
C630 C 0.31153 0.73887 0.14795 0.0
C631 C 0.25931 0.73458 0.21486 0.0
H632 H 0.14945 0.64724 0.16249 0.0
H633 H 0.21668 0.611 0.18281 0.0
H634 H 0.21923 0.73852 0.17752 0.0
H635 H 0.23076 0.73476 0.15332 0.0
H636 H 0.17794 0.70817 0.16064 0.0
H637 H 0.28686 0.65182 0.19176 0.0
H638 H 0.31624 0.69489 0.18042 0.0
H639 H 0.29772 0.69163 0.20403 0.0
H640 H 0.37179 0.80785 0.16002 0.0
H641 H 0.32693 0.80465 0.21615 0.0
H642 H 0.28216 0.72914 0.14085 0.0
H643 H 0.31062 0.71483 0.14969 0.0
H644 H 0.33726 0.75777 0.1384 0.0
H645 H 0.22922 0.72699 0.20998 0.0
H646 H 0.26868 0.75131 0.22836 0.0
H647 H 0.25466 0.7091 0.21786 0.0
C648 C 0.53001 0.21801 0.48417 0.0
C649 C 0.55646 0.21386 0.49393 0.0
C650 C 0.53187 0.24883 0.48753 0.0
C651 C 0.56149 0.27646 0.50069 0.0
C652 C 0.59032 0.27358 0.50951 0.0
C653 C 0.58707 0.24199 0.50625 0.0
C654 C 0.50017 0.25049 0.47807 0.0
C655 C 0.62292 0.30282 0.52334 0.0
C656 C 0.57901 0.36668 0.50669 0.0
C657 C 0.55718 0.36113 0.52341 0.0
C658 C 0.57993 0.339 0.49866 0.0
C659 C 0.55823 0.30522 0.50756 0.0
C660 C 0.53439 0.29909 0.52383 0.0
C661 C 0.53428 0.32713 0.53156 0.0
C662 C 0.60564 0.34645 0.48129 0.0
C663 C 0.51019 0.26331 0.5336 0.0
H664 H 0.50614 0.19607 0.47475 0.0
H665 H 0.60771 0.23882 0.51369 0.0
H666 H 0.47951 0.24887 0.48905 0.0
H667 H 0.51537 0.27668 0.47106 0.0
H668 H 0.48107 0.22802 0.46722 0.0
H669 H 0.64651 0.29911 0.52673 0.0
H670 H 0.63847 0.32999 0.5174 0.0
H671 H 0.60831 0.30233 0.53685 0.0
H672 H 0.59682 0.39308 0.50044 0.0
H673 H 0.51712 0.32285 0.54441 0.0
H674 H 0.58741 0.32445 0.47017 0.0
H675 H 0.63215 0.34704 0.48529 0.0
H676 H 0.61757 0.37273 0.47506 0.0
H677 H 0.48949 0.24065 0.52312 0.0
H678 H 0.49133 0.26229 0.54541 0.0
H679 H 0.53159 0.25876 0.53956 0.0
C680 C 0.47103 0.55594 0.83882 0.0
C681 C 0.4726 0.52894 0.84631 0.0
C682 C 0.43577 0.55558 0.84068 0.0
C683 C 0.40008 0.52815 0.85086 0.0
C684 C 0.40159 0.5009 0.85847 0.0
C685 C 0.43679 0.50139 0.85598 0.0
C686 C 0.43691 0.58497 0.83157 0.0
C687 C 0.36562 0.47081 0.86947 0.0
C688 C 0.32427 0.54666 0.87209 0.0
C689 C 0.28905 0.52694 0.8597 0.0
C690 C 0.35955 0.54726 0.86941 0.0
C691 C 0.36183 0.52802 0.85374 0.0
C692 C 0.32678 0.50828 0.84108 0.0
C693 C 0.29172 0.50786 0.84417 0.0
C694 C 0.39486 0.56876 0.88363 0.0
C695 C 0.32643 0.48783 0.82379 0.0
H696 H 0.49753 0.57754 0.83119 0.0
H697 H 0.43638 0.48009 0.86199 0.0
H698 H 0.40807 0.57302 0.82325 0.0
H699 H 0.4392 0.60347 0.84287 0.0
H700 H 0.46347 0.60122 0.82194 0.0
H701 H 0.37172 0.45281 0.87556 0.0
H702 H 0.35819 0.4824 0.88127 0.0
H703 H 0.33804 0.45416 0.85992 0.0
H704 H 0.32488 0.56233 0.88405 0.0
H705 H 0.26604 0.49188 0.8342 0.0
H706 H 0.42323 0.59035 0.87629 0.0
H707 H 0.40086 0.55082 0.8899 0.0
H708 H 0.38884 0.58154 0.89538 0.0
H709 H 0.34953 0.50749 0.81352 0.0
H710 H 0.29585 0.47041 0.81643 0.0
H711 H 0.33523 0.47059 0.82784 0.0
C712 C 0.90872 0.39173 0.16219 0.0
C713 C 0.94504 0.40229 0.17126 0.0
C714 C 0.87197 0.356 0.16336 0.0
C715 C 0.87107 0.33086 0.17468 0.0
C716 C 0.90776 0.34174 0.18401 0.0
C717 C 0.94437 0.37701 0.18186 0.0
C718 C 0.83417 0.34518 0.15247 0.0
C719 C 0.90824 0.31629 0.19652 0.0
C720 C 0.76829 0.25224 0.19485 0.0
C721 C 0.75825 0.22255 0.18323 0.0
C722 C 0.80461 0.28753 0.1921 0.0
C723 C 0.83169 0.29357 0.17729 0.0
C724 C 0.82172 0.26376 0.16548 0.0
C725 C 0.78542 0.22875 0.16865 0.0
C726 C 0.81425 0.31838 0.2052 0.0
C727 C 0.84921 0.26883 0.14934 0.0
H728 H 0.9093 0.41115 0.15383 0.0
H729 H 0.97245 0.3852 0.18893 0.0
H730 H 0.8201 0.31914 0.14429 0.0
H731 H 0.8109 0.34099 0.16265 0.0
H732 H 0.84125 0.36608 0.14239 0.0
H733 H 0.93879 0.32941 0.20348 0.0
H734 H 0.88486 0.30641 0.2078 0.0
H735 H 0.90003 0.2922 0.18788 0.0
H736 H 0.74745 0.24804 0.20599 0.0
H737 H 0.7785 0.20608 0.15974 0.0
H738 H 0.81722 0.3395 0.19674 0.0
H739 H 0.84421 0.33125 0.21268 0.0
H740 H 0.79019 0.30932 0.21606 0.0
H741 H 0.85163 0.28743 0.13895 0.0
H742 H 0.83752 0.24281 0.14167 0.0
H743 H 0.88074 0.28154 0.15486 0.0
C744 C 0.07433 0.49894 0.10348 0.0
C745 C 0.0598 0.51643 0.11252 0.0
C746 C 0.07579 0.49667 0.08325 0.0
C747 C 0.06133 0.51135 0.07163 0.0
C748 C 0.04499 0.5276 0.08081 0.0
C749 C 0.04509 0.53046 0.10098 0.0
C750 C 0.09435 0.47982 0.07435 0.0
C751 C 1.02773 0.54243 0.0693 0.0
C752 C 0.10139 0.5421 0.02075 0.0
C753 C 0.06915 0.51354 0.00898 0.0
C754 C 0.09956 0.54131 0.04095 0.0
C755 C 0.06465 0.51124 0.05 0.0
C756 C 1.03222 0.48209 0.03826 0.0
C757 C 1.03482 0.48359 0.01807 0.0
C758 C 0.13494 0.57313 0.05266 0.0
C759 C 0.99451 0.44925 0.04704 0.0
H760 H 0.08609 0.48829 0.11224 0.0
H761 H 1.03344 0.54374 0.10778 0.0
H762 H 0.07421 0.4601 0.06261 0.0
H763 H 0.12432 0.50131 0.06803 0.0
H764 H 0.09959 0.46581 0.08496 0.0
H765 H 1.01493 0.55318 0.07849 0.0
H766 H 0.05215 0.56451 0.0604 0.0
H767 H 1.00299 0.52081 0.05945 0.0
H768 H 0.12792 0.56568 0.01418 0.0
H769 H 1.0099 0.46095 0.00938 0.0
H770 H 0.14704 0.56367 0.0627 0.0
H771 H 0.12406 0.58603 0.06138 0.0
H772 H 0.16051 0.59396 0.04363 0.0
H773 H 1.00351 0.43576 0.05587 0.0
H774 H 0.97144 0.42923 0.03609 0.0
H775 H 0.97983 0.45762 0.05667 0.0
C776 C 0.54894 0.98755 0.42422 0.0
C777 C 0.55502 0.01535 0.43606 0.0
C778 C 0.54462 0.98726 0.4043 0.0
C779 C 0.54698 0.01576 0.39601 0.0
C780 C 0.55196 0.0434 0.40808 0.0
C781 C 0.55589 0.04282 0.42801 0.0
C782 C 0.53946 0.95732 0.39207 0.0
C783 C 0.55477 0.07433 0.3999 0.0
C784 C 0.58666 0.038 0.34522 0.0
C785 C 0.55042 0.02188 0.33426 0.0
C786 C 0.5859 0.03656 0.36523 0.0
C787 C 0.54787 0.01824 0.37473 0.0
C788 C 0.51105 1.00164 0.36382 0.0
C789 C 0.51272 1.00356 0.34373 0.0
C790 C 0.62595 0.05467 0.37622 0.0
C791 C 0.46989 0.98177 0.37338 0.0
H792 H 0.54871 0.96653 0.43053 0.0
H793 H 0.56107 0.06451 0.43724 0.0
H794 H 0.51355 0.94563 0.38168 0.0
H795 H 0.56774 0.96858 0.38373 0.0
H796 H 0.5337 0.9352 0.40074 0.0
H797 H 0.55739 0.09303 0.41122 0.0
H798 H 0.582 0.09006 0.39062 0.0
H799 H 0.52719 0.06362 0.39084 0.0
H800 H 0.6159 0.05169 0.33809 0.0
H801 H 0.48459 0.99129 0.33546 0.0
H802 H 0.62539 0.03418 0.38411 0.0
H803 H 0.62996 0.07478 0.38695 0.0
H804 H 0.65303 0.06875 0.36676 0.0
H805 H 0.46315 0.95782 0.38047 0.0
H806 H 0.44443 0.97245 0.36309 0.0
H807 H 0.47063 0.99953 0.38466 0.0
C808 C 0.55553 0.53605 0.77605 0.0
C809 C 0.58096 0.53 0.78512 0.0
C810 C 0.55798 0.54122 0.75632 0.0
C811 C 0.5852 0.53855 0.7453 0.0
C812 C 0.61189 0.53353 0.75457 0.0
C813 C 0.60993 0.52993 0.77449 0.0
C814 C 0.53026 0.54811 0.74719 0.0
C815 C 0.64107 0.53026 0.74333 0.0
C816 C 0.55023 0.50618 0.69359 0.0
C817 C 0.57449 0.53878 0.684 0.0
C818 C 0.55435 0.50565 0.71347 0.0
C819 C 0.58346 0.53847 0.72403 0.0
C820 C 0.60904 0.57123 0.71433 0.0
C821 C 0.60425 0.57097 0.69447 0.0
C822 C 0.52665 0.47009 0.72328 0.0
C823 C 0.64017 0.6069 0.72497 0.0
H824 H 0.53333 0.53631 0.78439 0.0
H825 H 0.62937 0.525 0.7816 0.0
H826 H 0.54788 0.57081 0.73733 0.0
H827 H 0.50568 0.52362 0.73864 0.0
H828 H 0.51554 0.5547 0.758 0.0
H829 H 0.66049 0.5273 0.75271 0.0
H830 H 0.6233 0.50632 0.73324 0.0
H831 H 0.66145 0.55448 0.73468 0.0
H832 H 0.52702 0.48124 0.68565 0.0
H833 H 0.62359 0.5962 0.68712 0.0
H834 H 0.50572 0.47096 0.73296 0.0
H835 H 0.54529 0.4656 0.73219 0.0
H836 H 0.50768 0.44666 0.71294 0.0
H837 H 0.62382 0.61552 0.73295 0.0
H838 H 0.66205 0.62862 0.71516 0.0
H839 H 0.65796 0.60414 0.73557 0.0
C840 C 0.54852 0.98664 0.55737 0.0
C841 C 0.55396 0.01628 0.5493 0.0
C842 C 0.5517 0.98544 0.5773 0.0
C843 C 0.56008 0.01445 0.5894 0.0
C844 C 0.56726 0.04511 0.5811 0.0
C845 C 0.56393 0.04557 0.56115 0.0
C846 C 0.54409 0.95232 0.58542 0.0
C847 C 0.57706 0.0769 0.59337 0.0
C848 C 0.51983 0.9939 0.64031 0.0
C849 C 0.55488 1.00506 0.6509 0.0
C850 C 0.52112 0.99664 0.62031 0.0
C851 C 0.55863 0.01173 0.61069 0.0
C852 C 0.5944 0.02401 0.62144 0.0
C853 C 0.59195 0.02009 0.64135 0.0
C854 C 0.48211 0.98264 0.60941 0.0
C855 C 0.6351 0.04062 0.61189 0.0
H856 H 0.54044 0.96387 0.54814 0.0
H857 H 0.56783 0.06836 0.55482 0.0
H858 H 0.56802 0.96025 0.59632 0.0
H859 H 0.51395 0.93629 0.59261 0.0
H860 H 0.54372 0.93467 0.57417 0.0
H861 H 0.58406 0.09949 0.5847 0.0
H862 H 0.55054 0.06807 0.60258 0.0
H863 H 0.60383 0.08721 0.60296 0.0
H864 H 0.49104 0.9819 0.64763 0.0
H865 H 0.61911 0.02875 0.64952 0.0
H866 H 0.47454 0.9608 0.59894 0.0
H867 H 0.4866 1.00468 0.6012 0.0
H868 H 0.45549 0.97173 0.61895 0.0
H869 H 0.63344 0.01944 0.60312 0.0
H870 H 0.6609 0.05282 0.62243 0.0
H871 H 0.64205 0.06187 0.60214 0.0
C872 C 0.61913 0.56026 0.91054 0.0
C873 C 0.58984 0.53939 0.89596 0.0
C874 C 0.60949 0.5505 0.92952 0.0
C875 C 0.56981 0.51895 0.93377 0.0
C876 C 0.53986 0.4981 0.91912 0.0
C877 C 0.55028 0.50869 0.90027 0.0
C878 C 0.64212 0.57329 0.94492 0.0
C879 C 0.49728 0.46435 0.92331 0.0
C880 C 0.57017 0.47636 0.97803 0.0
C881 C 0.55831 0.49074 0.99174 0.0
C882 C 0.57195 0.48388 0.95882 0.0
C883 C 0.56138 0.50616 0.95335 0.0
C884 C 0.54695 0.51901 0.96695 0.0
C885 C 0.54567 0.51116 0.98616 0.0
C886 C 0.58729 0.46961 0.9446 0.0
C887 C 0.53515 0.54261 0.9614 0.0
H888 H 0.64963 0.58414 0.90713 0.0
H889 H 0.52763 0.4927 0.88888 0.0
H890 H 0.63014 0.58135 0.95644 0.0
H891 H 0.65041 0.55716 0.95146 0.0
H892 H 0.6705 0.59821 0.9393 0.0
H893 H 0.4778 0.451 0.91017 0.0
H894 H 0.49935 0.44461 0.9304 0.0
H895 H 0.4818 0.47134 0.93332 0.0
H896 H 0.57906 0.45992 0.98243 0.0
H897 H 0.53646 0.52221 0.99688 0.0
H898 H 0.61744 0.49259 0.93908 0.0
H899 H 0.56562 0.45563 0.93221 0.0
H900 H 0.59117 0.4504 0.95102 0.0
H901 H 0.56328 0.56986 0.95795 0.0
H902 H 0.51903 0.54589 0.97306 0.0
H903 H 0.51502 0.53103 0.94842 0.0
C904 C 0.09452 0.52708 0.24113 0.0
C905 C 0.05949 0.51164 0.22944 0.0
C906 C 0.09243 0.52924 0.26123 0.0
C907 C 0.05451 0.51615 0.26992 0.0
C908 C 1.01931 0.50145 0.25802 0.0
C909 C 1.02213 0.49893 0.238 0.0
C910 C 0.1305 0.54432 0.27324 0.0
C911 C 0.97844 0.48781 0.26647 0.0
C912 C 1.03785 0.48531 0.3214 0.0
C913 C 0.04581 0.51517 0.33213 0.0
C914 C 1.04033 0.48527 0.30131 0.0
C915 C 0.05118 0.5159 0.2914 0.0
C916 C 0.05929 0.54619 0.3021 0.0
C917 C 0.05674 0.54556 0.32226 0.0
C918 C 1.03141 0.4523 0.2907 0.0
C919 C 0.07062 0.57934 0.29224 0.0
H920 H 0.12331 0.53637 0.23457 0.0
H921 H 0.99492 0.48664 0.22899 0.0
H922 H 0.13679 0.56632 0.28319 0.0
H923 H 0.12544 0.52268 0.28208 0.0
H924 H 0.15807 0.55511 0.26439 0.0
H925 H 0.95432 0.47814 0.25531 0.0
H926 H 0.96785 0.46519 0.27597 0.0
H927 H 0.98188 0.50975 0.27536 0.0
H928 H 1.03002 0.46184 0.32876 0.0
H929 H 0.06255 0.56866 0.33027 0.0
H930 H 0.05879 0.46005 0.28252 0.0
H931 H 1.00576 0.44119 0.28024 0.0
H932 H 1.02302 0.43053 0.30044 0.0
H933 H 0.10094 0.59279 0.2854 0.0
H934 H 0.07239 0.59925 0.30231 0.0
H935 H 0.04775 0.57144 0.28075 0.0
loop_
_geom_bond_atom_site_label_1
_geom_bond_atom_site_label_2
_geom_bond_distance
_geom_bond_site_symmetry_2
_ccdc_geom_bond_type
Sm0 C2 2.846 . S
Sm0 O20 2.543 . S
Sm0 O21 2.450 . S
Sm0 O22 2.681 . S
Sm0 O23 2.464 . S
Sm0 O24 2.396 . S
Sm0 O28 2.386 . S
Sm0 O31 2.408 1_455 S
Sm1 C11 2.846 . S
Sm1 O22 2.386 1_655 S
Sm1 O25 2.408 1_655 S
Sm1 O26 2.543 . S
Sm1 O27 2.450 . S
Sm1 O28 2.681 1_655 S
Sm1 O29 2.464 . S
Sm1 O30 2.396 . S
C2 Sm0 2.846 . S
C2 C3 1.506 . S
C2 O20 1.261 . S
C2 O21 1.242 . S
C3 C2 1.506 . S
C3 C4 1.358 . S
C3 C8 1.382 . S
C4 C3 1.358 . S
C4 C5 1.385 . S
C4 H32 0.930 . S
C5 C4 1.385 . S
C5 C6 1.395 . S
C5 H33 0.929 . S
C6 C5 1.395 . S
C6 C7 1.335 . S
C7 C6 1.335 . S
C7 C8 1.398 . S
C7 H34 0.930 . S
C8 C3 1.382 . S
C8 C7 1.398 . S
C8 H35 0.929 . S
C9 O22 1.271 . S
C9 O23 1.251 . S
C10 O24 1.252 . S
C10 O25 1.272 . S
C11 Sm1 2.846 . S
C11 C12 1.506 . S
C11 O26 1.261 . S
C11 O27 1.242 . S
C12 C11 1.506 . S
C12 C13 1.358 . S
C12 C17 1.382 . S
C13 C12 1.358 . S
C13 C14 1.385 . S
C13 H36 0.930 . S
C14 C13 1.385 . S
C14 C15 1.395 . S
C14 H37 0.929 . S
C15 C14 1.395 . S
C15 C16 1.335 . S
C16 C15 1.335 . S
C16 C17 1.398 . S
C16 H38 0.930 . S
C17 C12 1.382 . S
C17 C16 1.398 . S
C17 H39 0.929 . S
C18 O28 1.271 . S
C18 O29 1.251 1_455 S
C19 O30 1.252 . S
C19 O31 1.272 . S
O20 Sm0 2.543 . S
O20 C2 1.261 . S
O21 Sm0 2.450 . S
O21 C2 1.242 . S
O22 Sm0 2.681 . S
O22 Sm1 2.386 1_455 S
O22 C9 1.271 . S
O23 Sm0 2.464 . S
O23 C9 1.251 . S
O24 Sm0 2.396 . S
O24 C10 1.252 . S
O25 Sm1 2.408 1_455 S
O25 C10 1.272 . S
O26 Sm1 2.543 . S
O26 C11 1.261 . S
O27 Sm1 2.450 . S
O27 C11 1.242 . S
O28 Sm0 2.386 . S
O28 Sm1 2.681 1_455 S
O28 C18 1.271 . S
O29 Sm1 2.464 . S
O29 C18 1.251 1_655 S
O30 Sm1 2.396 . S
O30 C19 1.252 . S
O31 Sm0 2.408 1_655 S
O31 C19 1.272 . S
H32 C4 0.930 . S
H33 C5 0.929 . S
H34 C7 0.930 . S
H35 C8 0.929 . S
H36 C13 0.930 . S
H37 C14 0.929 . S
H38 C16 0.930 . S
H39 C17 0.929 . S
Sm40 C42 2.846 . S
Sm40 O60 2.543 . S
Sm40 O61 2.450 . S
Sm40 O62 2.681 1_565 S
Sm40 O63 2.464 . S
Sm40 O64 2.396 . S
Sm40 O68 2.398 . S
Sm40 O71 2.408 1_565 S
Sm41 C51 2.846 . S
Sm41 O62 2.386 . S
Sm41 O65 2.408 1_545 S
Sm41 O66 2.543 . S
Sm41 O67 2.450 . S
Sm41 O68 2.663 1_545 S
Sm41 O69 2.464 . S
Sm41 O70 2.396 . S
C42 Sm40 2.846 . S
C42 C43 1.506 . S
C42 O60 1.261 . S
C42 O61 1.242 . S
C43 C42 1.506 . S
C43 C44 1.358 . S
C43 C48 1.382 . S
C44 C43 1.358 . S
C44 C45 1.385 . S
C44 H72 0.930 . S
C45 C44 1.385 . S
C45 C46 1.395 . S
C45 H73 0.929 . S
C46 C45 1.395 . S
C46 C47 1.335 . S
C47 C46 1.335 . S
C47 C48 1.398 . S
C47 H74 0.930 . S
C48 C43 1.382 . S
C48 C47 1.398 . S
C48 H75 0.929 . S
C49 O62 1.271 . S
C49 O63 1.251 1_545 S
C50 O64 1.252 . S
C50 O65 1.272 . S
C51 Sm41 2.846 . S
C51 C52 1.506 . S
C51 O66 1.261 . S
C51 O67 1.242 . S
C52 C51 1.506 . S
C52 C53 1.358 . S
C52 C57 1.382 . S
C53 C52 1.358 . S
C53 C54 1.385 . S
C53 H76 0.930 . S
C54 C53 1.385 . S
C54 C55 1.395 . S
C54 H77 0.929 . S
C55 C54 1.395 . S
C55 C56 1.335 . S
C56 C55 1.335 . S
C56 C57 1.398 . S
C56 H78 0.930 . S
C57 C52 1.382 . S
C57 C56 1.398 . S
C57 H79 0.929 . S
C58 O68 1.261 1_545 S
C58 O69 1.251 . S
C59 O70 1.252 . S
C59 O71 1.272 . S
O60 Sm40 2.543 . S
O60 C42 1.261 . S
O61 Sm40 2.450 . S
O61 C42 1.242 . S
O62 Sm40 2.681 1_545 S
O62 Sm41 2.386 . S
O62 C49 1.271 . S
O63 Sm40 2.464 . S
O63 C49 1.251 1_565 S
O64 Sm40 2.396 . S
O64 C50 1.252 . S
O65 Sm41 2.408 1_565 S
O65 C50 1.272 . S
O66 Sm41 2.543 . S
O66 C51 1.261 . S
O67 Sm41 2.450 . S
O67 C51 1.242 . S
O68 Sm40 2.398 . S
O68 Sm41 2.663 1_565 S
O68 C58 1.261 1_565 S
O69 Sm41 2.464 . S
O69 C58 1.251 . S
O70 Sm41 2.396 . S
O70 C59 1.252 . S
O71 Sm40 2.408 1_545 S
O71 C59 1.272 . S
H72 C44 0.930 . S
H73 C45 0.929 . S
H74 C47 0.930 . S
H75 C48 0.929 . S
H76 C53 0.930 . S
H77 C54 0.929 . S
H78 C56 0.930 . S
H79 C57 0.929 . S
Sm80 C82 2.846 . S
Sm80 O100 2.543 . S
Sm80 O101 2.450 . S
Sm80 O102 2.681 . S
Sm80 O103 2.464 . S
Sm80 O104 2.396 . S
Sm80 O108 2.386 . S
Sm80 O111 2.408 . S
Sm81 C91 2.846 . S
Sm81 O102 2.386 . S
Sm81 O105 2.408 . S
Sm81 O106 2.543 . S
Sm81 O107 2.450 . S
Sm81 O108 2.681 . S
Sm81 O109 2.464 . S
Sm81 O110 2.396 . S
C82 Sm80 2.846 . S
C82 C83 1.506 . S
C82 O100 1.261 . S
C82 O101 1.242 . S
C83 C82 1.506 . S
C83 C84 1.358 . S
C83 C88 1.382 . S
C84 C83 1.358 . S
C84 C85 1.385 . S
C84 H112 0.930 . S
C85 C84 1.385 . S
C85 C86 1.395 . S
C85 H113 0.929 . S
C86 C85 1.395 . S
C86 C87 1.335 . S
C87 C86 1.335 . S
C87 C88 1.398 . S
C87 H114 0.930 . S
C88 C83 1.382 . S
C88 C87 1.398 . S
C88 H115 0.929 . S
C89 O102 1.271 . S
C89 O103 1.251 . S
C90 O104 1.252 . S
C90 O105 1.272 . S
C91 Sm81 2.846 . S
C91 C92 1.506 . S
C91 O106 1.261 . S
C91 O107 1.242 . S
C92 C91 1.506 . S
C92 C93 1.358 . S
C92 C97 1.382 . S
C93 C92 1.358 . S
C93 C94 1.385 . S
C93 H116 0.930 . S
C94 C93 1.385 . S
C94 C95 1.395 . S
C94 H117 0.929 . S
C95 C94 1.395 . S
C95 C96 1.335 . S
C96 C95 1.335 . S
C96 C97 1.398 . S
C96 H118 0.930 . S
C97 C92 1.382 . S
C97 C96 1.398 . S
C97 H119 0.929 . S
C98 O108 1.271 . S
C98 O109 1.251 . S
C99 O110 1.252 . S
C99 O111 1.272 . S
O100 Sm80 2.543 . S
O100 C82 1.261 . S
O101 Sm80 2.450 . S
O101 C82 1.242 . S
O102 Sm80 2.681 . S
O102 Sm81 2.386 . S
O102 C89 1.271 . S
O103 Sm80 2.464 . S
O103 C89 1.251 . S
O104 Sm80 2.396 . S
O104 C90 1.252 . S
O105 Sm81 2.408 . S
O105 C90 1.272 . S
O106 Sm81 2.543 . S
O106 C91 1.261 . S
O107 Sm81 2.450 . S
O107 C91 1.242 . S
O108 Sm80 2.386 . S
O108 Sm81 2.681 . S
O108 C98 1.271 . S
O109 Sm81 2.464 . S
O109 C98 1.251 . S
O110 Sm81 2.396 . S
O110 C99 1.252 . S
O111 Sm80 2.408 . S
O111 C99 1.272 . S
H112 C84 0.930 . S
H113 C85 0.929 . S
H114 C87 0.930 . S
H115 C88 0.929 . S
H116 C93 0.930 . S
H117 C94 0.929 . S
H118 C96 0.930 . S
H119 C97 0.929 . S
C120 C121 1.264 . S
C120 C125 1.479 . S
C120 C130 1.465 . S
C121 C120 1.264 . S
C121 C123 1.339 . S
C121 H148 0.931 . S
C122 C123 1.395 . S
C122 C124 1.320 . S
C123 C121 1.339 . S
C123 C122 1.395 . S
C123 H149 0.929 . S
C124 C122 1.320 . S
C124 C125 1.405 . S
C124 H150 0.930 . S
C125 C120 1.479 . S
C125 C124 1.405 . S
C125 H151 0.931 . S
U126 O127 2.454 1_545 S
U126 O128 2.458 1_545 S
U126 C129 2.984 1_545 S
U126 C130 2.847 . S
U126 C143 2.882 . S
U126 O144 2.441 . S
U126 O145 2.420 . S
U126 O146 2.455 1_545 S
U126 O147 2.449 . S
O127 U126 2.454 1_565 S
O127 C129 1.353 . S
O128 U126 2.458 1_565 S
O128 C129 1.286 . S
C129 U126 2.984 1_565 S
C129 O127 1.353 . S
C129 O128 1.286 . S
C129 C131 1.363 . S
C130 C120 1.465 . S
C130 U126 2.847 . S
C130 O144 1.249 . S
C130 O145 1.202 . S
C131 C129 1.363 . S
C131 C133 1.408 . S
C131 C136 1.342 . S
C132 C133 1.310 . S
C132 C135 1.461 . S
C132 H152 0.932 . S
C133 C131 1.408 . S
C133 C132 1.310 . S
C133 H153 0.930 . S
C134 C135 1.474 . S
C134 C136 1.285 . S
C134 H154 0.929 . S
C135 C132 1.461 . S
C135 C134 1.474 . S
C136 C131 1.342 . S
C136 C134 1.285 . S
C136 H155 0.930 . S
C137 C140 1.424 . S
C137 C142 1.245 1_545 S
C137 C143 1.428 . S
C138 C141 1.260 1_565 S
C138 C142 1.477 . S
C138 H156 0.932 . S
C139 C140 1.384 . S
C139 C141 1.479 . S
C139 H157 0.929 . S
C140 C137 1.424 . S
C140 C139 1.384 . S
C140 H158 0.928 . S
C141 C138 1.260 1_545 S
C141 C139 1.479 . S
C142 C137 1.245 1_565 S
C142 C138 1.477 . S
C142 H159 0.932 . S
C143 U126 2.882 . S
C143 C137 1.428 . S
C143 O146 1.301 1_545 S
C143 O147 1.282 . S
O144 U126 2.441 . S
O144 C130 1.249 . S
O145 U126 2.420 . S
O145 C130 1.202 . S
O146 U126 2.455 1_565 S
O146 C143 1.301 1_565 S
O147 U126 2.449 . S
O147 C143 1.282 . S
H148 C121 0.931 . S
H149 C123 0.929 . S
H150 C124 0.930 . S
H151 C125 0.931 . S
H152 C132 0.932 . S
H153 C133 0.930 . S
H154 C134 0.929 . S
H155 C136 0.930 . S
H156 C138 0.932 . S
H157 C139 0.929 . S
H158 C140 0.928 . S
H159 C142 0.932 . S
C160 C161 1.264 . S
C160 C165 1.479 . S
C160 C170 1.465 . S
C161 C160 1.264 . S
C161 C163 1.339 . S
C161 H188 0.931 . S
C162 C163 1.395 . S
C162 C164 1.320 . S
C163 C161 1.339 . S
C163 C162 1.395 . S
C163 H189 0.929 . S
C164 C162 1.320 . S
C164 C165 1.405 . S
C164 H190 0.930 . S
C165 C160 1.479 . S
C165 C164 1.405 . S
C165 H191 0.931 . S
U166 O167 2.454 . S
U166 O168 2.458 . S
U166 C169 2.984 . S
U166 C170 2.847 . S
U166 C183 2.882 . S
U166 O184 2.441 . S
U166 O185 2.420 . S
U166 O186 2.455 . S
U166 O187 2.449 . S
O167 U166 2.454 . S
O167 C169 1.353 . S
O168 U166 2.458 . S
O168 C169 1.286 . S
C169 U166 2.984 . S
C169 O167 1.353 . S
C169 O168 1.286 . S
C169 C171 1.363 . S
C170 C160 1.465 . S
C170 U166 2.847 . S
C170 O184 1.249 . S
C170 O185 1.202 . S
C171 C169 1.363 . S
C171 C173 1.408 . S
C171 C176 1.342 . S
C172 C173 1.310 . S
C172 C175 1.461 . S
C172 H192 0.932 . S
C173 C171 1.408 . S
C173 C172 1.310 . S
C173 H193 0.930 . S
C174 C175 1.474 . S
C174 C176 1.285 . S
C174 H194 0.929 . S
C175 C172 1.461 . S
C175 C174 1.474 . S
C176 C171 1.342 . S
C176 C174 1.285 . S
C176 H195 0.930 . S
C177 C180 1.424 . S
C177 C182 1.245 . S
C177 C183 1.428 . S
C178 C181 1.260 . S
C178 C182 1.477 . S
C178 H196 0.932 . S
C179 C180 1.384 . S
C179 C181 1.479 . S
C179 H197 0.929 . S
C180 C177 1.424 . S
C180 C179 1.384 . S
C180 H198 0.928 . S
C181 C178 1.260 . S
C181 C179 1.479 . S
C182 C177 1.245 . S
C182 C178 1.477 . S
C182 H199 0.932 . S
C183 U166 2.882 . S
C183 C177 1.428 . S
C183 O186 1.301 . S
C183 O187 1.282 . S
O184 U166 2.441 . S
O184 C170 1.249 . S
O185 U166 2.420 . S
O185 C170 1.202 . S
O186 U166 2.455 . S
O186 C183 1.301 . S
O187 U166 2.449 . S
O187 C183 1.282 . S
H188 C161 0.931 . S
H189 C163 0.929 . S
H190 C164 0.930 . S
H191 C165 0.931 . S
H192 C172 0.932 . S
H193 C173 0.930 . S
H194 C174 0.929 . S
H195 C176 0.930 . S
H196 C178 0.932 . S
H197 C179 0.929 . S
H198 C180 0.928 . S
H199 C182 0.932 . S
C200 C201 1.264 . S
C200 C205 1.479 . S
C200 C210 1.465 . S
C201 C200 1.264 . S
C201 C203 1.339 . S
C201 H228 0.931 . S
C202 C203 1.395 . S
C202 C204 1.320 . S
C203 C201 1.339 . S
C203 C202 1.395 . S
C203 H229 0.929 . S
C204 C202 1.320 . S
C204 C205 1.405 . S
C204 H230 0.930 . S
C205 C200 1.479 . S
C205 C204 1.405 . S
C205 H231 0.931 . S
U206 O207 2.454 . S
U206 O208 2.458 . S
U206 C209 2.984 . S
U206 C210 2.847 1_455 S
U206 C223 2.882 . S
U206 O224 2.457 . S
U206 O225 2.420 1_455 S
U206 O226 2.455 . S
U206 O227 2.449 1_455 S
O207 U206 2.454 . S
O207 C209 1.353 . S
O208 U206 2.458 . S
O208 C209 1.286 . S
C209 U206 2.984 . S
C209 O207 1.353 . S
C209 O208 1.286 . S
C209 C211 1.363 . S
C210 C200 1.465 . S
C210 U206 2.847 1_655 S
C210 O224 1.223 1_655 S
C210 O225 1.202 . S
C211 C209 1.363 . S
C211 C213 1.408 . S
C211 C216 1.342 . S
C212 C213 1.310 . S
C212 C215 1.461 . S
C212 H232 0.932 . S
C213 C211 1.408 . S
C213 C212 1.310 . S
C213 H233 0.930 . S
C214 C215 1.474 . S
C214 C216 1.285 . S
C214 H234 0.929 . S
C215 C212 1.461 . S
C215 C214 1.474 . S
C216 C211 1.342 . S
C216 C214 1.285 . S
C216 H235 0.930 . S
C217 C220 1.424 . S
C217 C222 1.245 . S
C217 C223 1.428 . S
C218 C221 1.260 . S
C218 C222 1.477 . S
C218 H236 0.932 . S
C219 C220 1.383 1_655 S
C219 C221 1.466 1_655 S
C219 H237 0.942 . S
C220 C217 1.424 . S
C220 C219 1.383 1_455 S
C220 H238 0.928 1_455 S
C221 C218 1.260 . S
C221 C219 1.466 1_455 S
C222 C217 1.245 . S
C222 C218 1.477 . S
C222 H239 0.932 . S
C223 U206 2.882 . S
C223 C217 1.428 . S
C223 O226 1.301 . S
C223 O227 1.282 1_455 S
O224 U206 2.457 . S
O224 C210 1.223 1_455 S
O225 U206 2.420 1_655 S
O225 C210 1.202 . S
O226 U206 2.455 . S
O226 C223 1.301 . S
O227 U206 2.449 1_655 S
O227 C223 1.282 1_655 S
H228 C201 0.931 . S
H229 C203 0.929 . S
H230 C204 0.930 . S
H231 C205 0.931 . S
H232 C212 0.932 . S
H233 C213 0.930 . S
H234 C214 0.929 . S
H235 C216 0.930 . S
H236 C218 0.932 . S
H237 C219 0.942 . S
H238 C220 0.928 1_655 S
H239 C222 0.932 . S
C240 C241 1.264 . S
C240 C245 1.479 . S
C240 C250 1.465 . S
C241 C240 1.264 . S
C241 C243 1.339 . S
C241 H268 0.931 . S
C242 C243 1.395 . S
C242 C244 1.320 . S
C243 C241 1.339 . S
C243 C242 1.395 . S
C243 H269 0.929 . S
C244 C242 1.320 . S
C244 C245 1.405 . S
C244 H270 0.930 . S
C245 C240 1.479 . S
C245 C244 1.405 . S
C245 H271 0.931 . S
U246 O247 2.454 1_655 S
U246 O248 2.458 1_655 S
U246 C249 2.984 1_655 S
U246 C250 2.847 . S
U246 C263 2.882 . S
U246 O264 2.441 . S
U246 O265 2.420 . S
U246 O266 2.455 1_655 S
U246 O267 2.449 . S
O247 U246 2.454 1_455 S
O247 C249 1.353 . S
O248 U246 2.458 1_455 S
O248 C249 1.286 . S
C249 U246 2.984 1_455 S
C249 O247 1.353 . S
C249 O248 1.286 . S
C249 C251 1.363 . S
C250 C240 1.465 . S
C250 U246 2.847 . S
C250 O264 1.249 . S
C250 O265 1.202 . S
C251 C249 1.363 . S
C251 C253 1.408 . S
C251 C256 1.342 . S
C252 C253 1.310 . S
C252 C255 1.461 . S
C252 H272 0.932 . S
C253 C251 1.408 . S
C253 C252 1.310 . S
C253 H273 0.930 . S
C254 C255 1.474 . S
C254 C256 1.285 . S
C254 H274 0.929 . S
C255 C252 1.461 . S
C255 C254 1.474 . S
C256 C251 1.342 . S
C256 C254 1.285 . S
C256 H275 0.930 . S
C257 C260 1.424 . S
C257 C262 1.245 1_655 S
C257 C263 1.428 . S
C258 C261 1.260 1_455 S
C258 C262 1.477 . S
C258 H276 0.932 . S
C259 C260 1.384 . S
C259 C261 1.479 . S
C259 H277 0.929 . S
C260 C257 1.424 . S
C260 C259 1.384 . S
C260 H278 0.928 . S
C261 C258 1.260 1_655 S
C261 C259 1.479 . S
C262 C257 1.245 1_455 S
C262 C258 1.477 . S
C262 H279 0.932 . S
C263 U246 2.882 . S
C263 C257 1.428 . S
C263 O266 1.301 1_655 S
C263 O267 1.282 . S
O264 U246 2.441 . S
O264 C250 1.249 . S
O265 U246 2.420 . S
O265 C250 1.202 . S
O266 U246 2.455 1_455 S
O266 C263 1.301 1_455 S
O267 U246 2.449 . S
O267 C263 1.282 . S
H268 C241 0.931 . S
H269 C243 0.929 . S
H270 C244 0.930 . S
H271 C245 0.931 . S
H272 C252 0.932 . S
H273 C253 0.930 . S
H274 C254 0.929 . S
H275 C256 0.930 . S
H276 C258 0.932 . S
H277 C259 0.929 . S
H278 C260 0.928 . S
H279 C262 0.932 . S
C280 C281 1.264 . S
C280 C285 1.479 . S
C280 C290 1.465 . S
C281 C280 1.264 . S
C281 C283 1.339 . S
C281 H308 0.931 . S
C282 C283 1.395 . S
C282 C284 1.320 . S
C283 C281 1.339 . S
C283 C282 1.395 . S
C283 H309 0.929 . S
C284 C282 1.320 . S
C284 C285 1.405 . S
C284 H310 0.930 . S
C285 C280 1.479 . S
C285 C284 1.405 . S
C285 H311 0.931 . S
U286 O287 2.454 1_565 S
U286 O288 2.458 1_565 S
U286 C289 2.984 1_565 S
U286 C290 2.847 . S
U286 C303 2.882 . S
U286 O304 2.441 . S
U286 O305 2.420 . S
U286 O306 2.455 1_565 S
U286 O307 2.449 . S
O287 U286 2.454 1_545 S
O287 C289 1.353 . S
O288 U286 2.458 1_545 S
O288 C289 1.286 . S
C289 U286 2.984 1_545 S
C289 O287 1.353 . S
C289 O288 1.286 . S
C289 C291 1.363 . S
C290 C280 1.465 . S
C290 U286 2.847 . S
C290 O304 1.249 . S
C290 O305 1.202 . S
C291 C289 1.363 . S
C291 C293 1.408 . S
C291 C296 1.342 . S
C292 C293 1.310 . S
C292 C295 1.461 . S
C292 H312 0.932 . S
C293 C291 1.408 . S
C293 C292 1.310 . S
C293 H313 0.930 . S
C294 C295 1.474 . S
C294 C296 1.285 . S
C294 H314 0.929 . S
C295 C292 1.461 . S
C295 C294 1.474 . S
C296 C291 1.342 . S
C296 C294 1.285 . S
C296 H315 0.930 . S
C297 C300 1.424 . S
C297 C302 1.245 1_565 S
C297 C303 1.428 . S
C298 C301 1.260 1_545 S
C298 C302 1.477 . S
C298 H316 0.932 . S
C299 C300 1.384 . S
C299 C301 1.479 . S
C299 H317 0.929 . S
C300 C297 1.424 . S
C300 C299 1.384 . S
C300 H318 0.928 . S
C301 C298 1.260 1_565 S
C301 C299 1.479 . S
C302 C297 1.245 1_545 S
C302 C298 1.477 . S
C302 H319 0.932 . S
C303 U286 2.882 . S
C303 C297 1.428 . S
C303 O306 1.301 1_565 S
C303 O307 1.282 . S
O304 U286 2.441 . S
O304 C290 1.249 . S
O305 U286 2.420 . S
O305 C290 1.202 . S
O306 U286 2.455 1_545 S
O306 C303 1.301 1_545 S
O307 U286 2.449 . S
O307 C303 1.282 . S
H308 C281 0.931 . S
H309 C283 0.929 . S
H310 C284 0.930 . S
H311 C285 0.931 . S
H312 C292 0.932 . S
H313 C293 0.930 . S
H314 C294 0.929 . S
H315 C296 0.930 . S
H316 C298 0.932 . S
H317 C299 0.929 . S
H318 C300 0.928 . S
H319 C302 0.932 . S
C320 C321 1.264 . S
C320 C325 1.479 . S
C320 C330 1.465 . S
C321 C320 1.264 . S
C321 C323 1.339 . S
C321 H348 0.931 . S
C322 C323 1.395 . S
C322 C324 1.320 . S
C323 C321 1.339 . S
C323 C322 1.395 . S
C323 H349 0.929 . S
C324 C322 1.320 . S
C324 C325 1.405 . S
C324 H350 0.930 . S
C325 C320 1.479 . S
C325 C324 1.405 . S
C325 H351 0.931 . S
U326 O327 2.454 . S
U326 O328 2.458 . S
U326 C329 2.984 . S
U326 C330 2.847 . S
U326 C343 2.882 . S
U326 O344 2.441 . S
U326 O345 2.420 . S
U326 O346 2.455 . S
U326 O347 2.449 . S
O327 U326 2.454 . S
O327 C329 1.353 . S
O328 U326 2.458 . S
O328 C329 1.286 . S
C329 U326 2.984 . S
C329 O327 1.353 . S
C329 O328 1.286 . S
C329 C331 1.363 . S
C330 C320 1.465 . S
C330 U326 2.847 . S
C330 O344 1.249 . S
C330 O345 1.202 . S
C331 C329 1.363 . S
C331 C333 1.408 . S
C331 C336 1.342 . S
C332 C333 1.310 . S
C332 C335 1.461 . S
C332 H352 0.932 . S
C333 C331 1.408 . S
C333 C332 1.310 . S
C333 H353 0.930 . S
C334 C335 1.474 . S
C334 C336 1.285 . S
C334 H354 0.929 . S
C335 C332 1.461 . S
C335 C334 1.474 . S
C336 C331 1.342 . S
C336 C334 1.285 . S
C336 H355 0.930 . S
C337 C340 1.424 . S
C337 C342 1.245 . S
C337 C343 1.428 . S
C338 C341 1.260 1_554 S
C338 C342 1.477 . S
C338 H356 0.941 . S
C339 C340 1.384 . S
C339 C341 1.479 1_554 S
C339 H357 0.929 . S
C340 C337 1.424 . S
C340 C339 1.384 . S
C340 H358 0.928 . S
C341 C338 1.260 1_556 S
C341 C339 1.479 1_556 S
C342 C337 1.245 . S
C342 C338 1.477 . S
C342 H359 0.932 . S
C343 U326 2.882 . S
C343 C337 1.428 . S
C343 O346 1.301 . S
C343 O347 1.282 . S
O344 U326 2.441 . S
O344 C330 1.249 . S
O345 U326 2.420 . S
O345 C330 1.202 . S
O346 U326 2.455 . S
O346 C343 1.301 . S
O347 U326 2.449 . S
O347 C343 1.282 . S
H348 C321 0.931 . S
H349 C323 0.929 . S
H350 C324 0.930 . S
H351 C325 0.931 . S
H352 C332 0.932 . S
H353 C333 0.930 . S
H354 C334 0.929 . S
H355 C336 0.930 . S
H356 C338 0.941 . S
H357 C339 0.929 . S
H358 C340 0.928 . S
H359 C342 0.932 . S
C360 C361 1.391 . S
C360 C362 1.394 . S
C360 H376 0.931 . S
C361 C360 1.391 . S
C361 C365 1.376 . S
C362 C360 1.394 . S
C362 C363 1.369 . S
C362 C366 1.531 . S
C363 C362 1.369 . S
C363 C364 1.410 . S
C363 C371 1.503 . S
C364 C363 1.410 . S
C364 C365 1.392 . S
C364 C367 1.511 . S
C365 C361 1.376 . S
C365 C364 1.392 . S
C365 H377 0.929 . S
C366 C362 1.531 . S
C366 H378 0.960 . S
C366 H379 0.962 . S
C366 H380 0.960 . S
C367 C364 1.511 . S
C367 H381 0.961 . S
C367 H382 0.961 . S
C367 H383 0.961 . S
C368 C369 1.370 . S
C368 C370 1.363 . S
C368 H384 0.931 . S
C369 C368 1.370 . S
C369 C373 1.408 . S
C370 C368 1.363 . S
C370 C371 1.370 . S
C370 C374 1.524 . S
C371 C363 1.503 . S
C371 C370 1.370 . S
C371 C372 1.403 . S
C372 C371 1.403 . S
C372 C373 1.404 . S
C372 C375 1.539 . S
C373 C369 1.408 . S
C373 C372 1.404 . S
C373 H385 0.930 . S
C374 C370 1.524 . S
C374 H386 0.956 . S
C374 H387 0.961 . S
C374 H388 0.961 . S
C375 C372 1.539 . S
C375 H389 0.958 . S
C375 H390 0.961 . S
C375 H391 0.960 . S
H376 C360 0.931 . S
H377 C365 0.929 . S
H378 C366 0.960 . S
H379 C366 0.962 . S
H380 C366 0.960 . S
H381 C367 0.961 . S
H382 C367 0.961 . S
H383 C367 0.961 . S
H384 C368 0.931 . S
H385 C373 0.930 . S
H386 C374 0.956 . S
H387 C374 0.961 . S
H388 C374 0.961 . S
H389 C375 0.958 . S
H390 C375 0.961 . S
H391 C375 0.960 . S
C392 C393 1.391 . S
C392 C394 1.394 . S
C392 H408 0.931 . S
C393 C392 1.391 . S
C393 C397 1.376 . S
C394 C392 1.394 . S
C394 C395 1.369 . S
C394 C398 1.531 . S
C395 C394 1.369 . S
C395 C396 1.410 . S
C395 C403 1.503 . S
C396 C395 1.410 . S
C396 C397 1.392 . S
C396 C399 1.511 . S
C397 C393 1.376 . S
C397 C396 1.392 . S
C397 H409 0.929 . S
C398 C394 1.531 . S
C398 H410 0.960 . S
C398 H411 0.962 . S
C398 H412 0.960 . S
C399 C396 1.511 . S
C399 H413 0.961 . S
C399 H414 0.961 . S
C399 H415 0.961 . S
C400 C401 1.370 . S
C400 C402 1.363 . S
C400 H416 0.931 . S
C401 C400 1.370 . S
C401 C405 1.408 . S
C402 C400 1.363 . S
C402 C403 1.370 . S
C402 C406 1.524 . S
C403 C395 1.503 . S
C403 C402 1.370 . S
C403 C404 1.403 . S
C404 C403 1.403 . S
C404 C405 1.404 . S
C404 C407 1.539 . S
C405 C401 1.408 . S
C405 C404 1.404 . S
C405 H417 0.930 . S
C406 C402 1.524 . S
C406 H418 0.956 . S
C406 H419 0.961 . S
C406 H420 0.961 . S
C407 C404 1.539 . S
C407 H421 0.958 . S
C407 H422 0.961 . S
C407 H423 0.960 . S
H408 C392 0.931 . S
H409 C397 0.929 . S
H410 C398 0.960 . S
H411 C398 0.962 . S
H412 C398 0.960 . S
H413 C399 0.961 . S
H414 C399 0.961 . S
H415 C399 0.961 . S
H416 C400 0.931 . S
H417 C405 0.930 . S
H418 C406 0.956 . S
H419 C406 0.961 . S
H420 C406 0.961 . S
H421 C407 0.958 . S
H422 C407 0.961 . S
H423 C407 0.960 . S
C424 C425 1.391 . S
C424 C426 1.394 . S
C424 H440 0.931 . S
C425 C424 1.391 . S
C425 C429 1.376 . S
C426 C424 1.394 . S
C426 C427 1.369 . S
C426 C430 1.531 . S
C427 C426 1.369 . S
C427 C428 1.410 . S
C427 C435 1.503 . S
C428 C427 1.410 . S
C428 C429 1.392 . S
C428 C431 1.511 . S
C429 C425 1.376 . S
C429 C428 1.392 . S
C429 H441 0.929 . S
C430 C426 1.531 . S
C430 H442 0.960 . S
C430 H443 0.962 . S
C430 H444 0.960 . S
C431 C428 1.511 . S
C431 H445 0.961 . S
C431 H446 0.961 . S
C431 H447 0.961 . S
C432 C433 1.370 . S
C432 C434 1.363 . S
C432 H448 0.931 . S
C433 C432 1.370 . S
C433 C437 1.408 . S
C434 C432 1.363 . S
C434 C435 1.370 . S
C434 C438 1.524 . S
C435 C427 1.503 . S
C435 C434 1.370 . S
C435 C436 1.403 . S
C436 C435 1.403 . S
C436 C437 1.404 . S
C436 C439 1.539 . S
C437 C433 1.408 . S
C437 C436 1.404 . S
C437 H449 0.930 . S
C438 C434 1.524 . S
C438 H450 0.956 . S
C438 H451 0.961 . S
C438 H452 0.961 . S
C439 C436 1.539 . S
C439 H453 0.958 . S
C439 H454 0.961 . S
C439 H455 0.960 . S
H440 C424 0.931 . S
H441 C429 0.929 . S
H442 C430 0.960 . S
H443 C430 0.962 . S
H444 C430 0.960 . S
H445 C431 0.961 . S
H446 C431 0.961 . S
H447 C431 0.961 . S
H448 C432 0.931 . S
H449 C437 0.930 . S
H450 C438 0.956 . S
H451 C438 0.961 . S
H452 C438 0.961 . S
H453 C439 0.958 . S
H454 C439 0.961 . S
H455 C439 0.960 . S
C456 C457 1.391 . S
C456 C458 1.394 . S
C456 H472 0.931 . S
C457 C456 1.391 . S
C457 C461 1.376 . S
C458 C456 1.394 . S
C458 C459 1.369 . S
C458 C462 1.531 . S
C459 C458 1.369 . S
C459 C460 1.410 . S
C459 C467 1.503 . S
C460 C459 1.410 . S
C460 C461 1.392 . S
C460 C463 1.511 . S
C461 C457 1.376 . S
C461 C460 1.392 . S
C461 H473 0.929 . S
C462 C458 1.531 . S
C462 H474 0.960 . S
C462 H475 0.962 . S
C462 H476 0.960 . S
C463 C460 1.511 . S
C463 H477 0.961 . S
C463 H478 0.961 . S
C463 H479 0.961 . S
C464 C465 1.370 . S
C464 C466 1.363 . S
C464 H480 0.931 . S
C465 C464 1.370 . S
C465 C469 1.408 . S
C466 C464 1.363 . S
C466 C467 1.370 . S
C466 C470 1.524 . S
C467 C459 1.503 . S
C467 C466 1.370 . S
C467 C468 1.403 . S
C468 C467 1.403 . S
C468 C469 1.404 . S
C468 C471 1.539 . S
C469 C465 1.408 . S
C469 C468 1.404 . S
C469 H481 0.930 . S
C470 C466 1.524 . S
C470 H482 0.956 . S
C470 H483 0.961 . S
C470 H484 0.961 . S
C471 C468 1.539 . S
C471 H485 0.958 . S
C471 H486 0.961 . S
C471 H487 0.960 . S
H472 C456 0.931 . S
H473 C461 0.929 . S
H474 C462 0.960 . S
H475 C462 0.962 . S
H476 C462 0.960 . S
H477 C463 0.961 . S
H478 C463 0.961 . S
H479 C463 0.961 . S
H480 C464 0.931 . S
H481 C469 0.930 . S
H482 C470 0.956 . S
H483 C470 0.961 . S
H484 C470 0.961 . S
H485 C471 0.958 . S
H486 C471 0.961 . S
H487 C471 0.960 . S
C488 C489 1.391 . S
C488 C490 1.394 . S
C488 H504 0.931 . S
C489 C488 1.391 . S
C489 C493 1.376 . S
C490 C488 1.394 . S
C490 C491 1.369 . S
C490 C494 1.531 . S
C491 C490 1.369 . S
C491 C492 1.410 . S
C491 C499 1.503 . S
C492 C491 1.410 . S
C492 C493 1.392 . S
C492 C495 1.511 . S
C493 C489 1.376 . S
C493 C492 1.392 . S
C493 H505 0.929 . S
C494 C490 1.531 . S
C494 H506 0.960 . S
C494 H507 0.962 . S
C494 H508 0.960 . S
C495 C492 1.511 . S
C495 H509 0.961 . S
C495 H510 0.961 . S
C495 H511 0.961 . S
C496 C497 1.370 . S
C496 C498 1.363 . S
C496 H512 0.931 . S
C497 C496 1.370 . S
C497 C501 1.408 . S
C498 C496 1.363 . S
C498 C499 1.370 . S
C498 C502 1.524 . S
C499 C491 1.503 . S
C499 C498 1.370 . S
C499 C500 1.403 . S
C500 C499 1.403 . S
C500 C501 1.404 . S
C500 C503 1.539 . S
C501 C497 1.408 . S
C501 C500 1.404 . S
C501 H513 0.930 . S
C502 C498 1.524 . S
C502 H514 0.956 . S
C502 H515 0.961 . S
C502 H516 0.961 . S
C503 C500 1.539 . S
C503 H517 0.958 . S
C503 H518 0.961 . S
C503 H519 0.960 . S
H504 C488 0.931 . S
H505 C493 0.929 . S
H506 C494 0.960 . S
H507 C494 0.962 . S
H508 C494 0.960 . S
H509 C495 0.961 . S
H510 C495 0.961 . S
H511 C495 0.961 . S
H512 C496 0.931 . S
H513 C501 0.930 . S
H514 C502 0.956 . S
H515 C502 0.961 . S
H516 C502 0.961 . S
H517 C503 0.958 . S
H518 C503 0.961 . S
H519 C503 0.960 . S
C520 C521 1.391 . S
C520 C522 1.394 . S
C520 H536 0.931 . S
C521 C520 1.391 . S
C521 C525 1.376 . S
C522 C520 1.394 . S
C522 C523 1.369 . S
C522 C526 1.531 . S
C523 C522 1.369 . S
C523 C524 1.410 . S
C523 C531 1.503 . S
C524 C523 1.410 . S
C524 C525 1.392 . S
C524 C527 1.511 . S
C525 C521 1.376 . S
C525 C524 1.392 . S
C525 H537 0.929 . S
C526 C522 1.531 . S
C526 H538 0.960 . S
C526 H539 0.962 . S
C526 H540 0.960 . S
C527 C524 1.511 . S
C527 H541 0.961 . S
C527 H542 0.961 . S
C527 H543 0.961 . S
C528 C529 1.370 . S
C528 C530 1.363 . S
C528 H544 0.931 . S
C529 C528 1.370 . S
C529 C533 1.408 . S
C530 C528 1.363 . S
C530 C531 1.370 . S
C530 C534 1.524 . S
C531 C523 1.503 . S
C531 C530 1.370 . S
C531 C532 1.403 . S
C532 C531 1.403 . S
C532 C533 1.404 . S
C532 C535 1.539 . S
C533 C529 1.408 . S
C533 C532 1.404 . S
C533 H545 0.930 . S
C534 C530 1.524 . S
C534 H546 0.956 . S
C534 H547 0.961 . S
C534 H548 0.961 . S
C535 C532 1.539 . S
C535 H549 0.958 . S
C535 H550 0.961 . S
C535 H551 0.960 . S
H536 C520 0.931 . S
H537 C525 0.929 . S
H538 C526 0.960 . S
H539 C526 0.962 . S
H540 C526 0.960 . S
H541 C527 0.961 . S
H542 C527 0.961 . S
H543 C527 0.961 . S
H544 C528 0.931 . S
H545 C533 0.930 . S
H546 C534 0.956 . S
H547 C534 0.961 . S
H548 C534 0.961 . S
H549 C535 0.958 . S
H550 C535 0.961 . S
H551 C535 0.960 . S
C552 C553 1.391 . S
C552 C554 1.394 . S
C552 H568 0.931 . S
C553 C552 1.391 . S
C553 C557 1.376 . S
C554 C552 1.394 . S
C554 C555 1.369 . S
C554 C558 1.531 . S
C555 C554 1.369 . S
C555 C556 1.410 . S
C555 C563 1.503 . S
C556 C555 1.410 . S
C556 C557 1.392 . S
C556 C559 1.511 . S
C557 C553 1.376 . S
C557 C556 1.392 . S
C557 H569 0.929 . S
C558 C554 1.531 . S
C558 H570 0.960 . S
C558 H571 0.962 . S
C558 H572 0.960 . S
C559 C556 1.511 . S
C559 H573 0.961 . S
C559 H574 0.961 . S
C559 H575 0.961 . S
C560 C561 1.370 . S
C560 C562 1.363 . S
C560 H576 0.931 . S
C561 C560 1.370 . S
C561 C565 1.408 . S
C562 C560 1.363 . S
C562 C563 1.370 . S
C562 C566 1.524 . S
C563 C555 1.503 . S
C563 C562 1.370 . S
C563 C564 1.403 . S
C564 C563 1.403 . S
C564 C565 1.404 . S
C564 C567 1.539 . S
C565 C561 1.408 . S
C565 C564 1.404 . S
C565 H577 0.930 . S
C566 C562 1.524 . S
C566 H578 0.956 . S
C566 H579 0.961 . S
C566 H580 0.961 . S
C567 C564 1.539 . S
C567 H581 0.958 . S
C567 H582 0.961 . S
C567 H583 0.960 . S
H568 C552 0.931 . S
H569 C557 0.929 . S
H570 C558 0.960 . S
H571 C558 0.962 . S
H572 C558 0.960 . S
H573 C559 0.961 . S
H574 C559 0.961 . S
H575 C559 0.961 . S
H576 C560 0.931 . S
H577 C565 0.930 . S
H578 C566 0.956 . S
H579 C566 0.961 . S
H580 C566 0.961 . S
H581 C567 0.958 . S
H582 C567 0.961 . S
H583 C567 0.960 . S
C584 C585 1.391 . S
C584 C586 1.394 . S
C584 H600 0.931 . S
C585 C584 1.391 . S
C585 C589 1.376 . S
C586 C584 1.394 . S
C586 C587 1.369 . S
C586 C590 1.531 . S
C587 C586 1.369 . S
C587 C588 1.410 . S
C587 C595 1.503 . S
C588 C587 1.410 . S
C588 C589 1.392 . S
C588 C591 1.511 . S
C589 C585 1.376 . S
C589 C588 1.392 . S
C589 H601 0.929 . S
C590 C586 1.531 . S
C590 H602 0.960 . S
C590 H603 0.962 . S
C590 H604 0.960 . S
C591 C588 1.511 . S
C591 H605 0.961 . S
C591 H606 0.961 . S
C591 H607 0.961 . S
C592 C593 1.370 . S
C592 C594 1.363 . S
C592 H608 0.931 . S
C593 C592 1.370 . S
C593 C597 1.408 . S
C594 C592 1.363 . S
C594 C595 1.370 . S
C594 C598 1.524 . S
C595 C587 1.503 . S
C595 C594 1.370 . S
C595 C596 1.403 . S
C596 C595 1.403 . S
C596 C597 1.404 . S
C596 C599 1.539 . S
C597 C593 1.408 . S
C597 C596 1.404 . S
C597 H609 0.930 . S
C598 C594 1.524 . S
C598 H610 0.956 . S
C598 H611 0.961 . S
C598 H612 0.961 . S
C599 C596 1.539 . S
C599 H613 0.958 . S
C599 H614 0.961 . S
C599 H615 0.960 . S
H600 C584 0.931 . S
H601 C589 0.929 . S
H602 C590 0.960 . S
H603 C590 0.962 . S
H604 C590 0.960 . S
H605 C591 0.961 . S
H606 C591 0.961 . S
H607 C591 0.961 . S
H608 C592 0.931 . S
H609 C597 0.930 . S
H610 C598 0.956 . S
H611 C598 0.961 . S
H612 C598 0.961 . S
H613 C599 0.958 . S
H614 C599 0.961 . S
H615 C599 0.960 . S
C616 C617 1.391 . S
C616 C618 1.394 . S
C616 H632 0.931 . S
C617 C616 1.391 . S
C617 C621 1.376 . S
C618 C616 1.394 . S
C618 C619 1.369 . S
C618 C622 1.531 . S
C619 C618 1.369 . S
C619 C620 1.410 . S
C619 C627 1.503 . S
C620 C619 1.410 . S
C620 C621 1.392 . S
C620 C623 1.511 . S
C621 C617 1.376 . S
C621 C620 1.392 . S
C621 H633 0.929 . S
C622 C618 1.531 . S
C622 H634 0.960 . S
C622 H635 0.962 . S
C622 H636 0.960 . S
C623 C620 1.511 . S
C623 H637 0.961 . S
C623 H638 0.961 . S
C623 H639 0.961 . S
C624 C625 1.370 . S
C624 C626 1.363 . S
C624 H640 0.931 . S
C625 C624 1.370 . S
C625 C629 1.408 . S
C626 C624 1.363 . S
C626 C627 1.370 . S
C626 C630 1.524 . S
C627 C619 1.503 . S
C627 C626 1.370 . S
C627 C628 1.403 . S
C628 C627 1.403 . S
C628 C629 1.404 . S
C628 C631 1.539 . S
C629 C625 1.408 . S
C629 C628 1.404 . S
C629 H641 0.930 . S
C630 C626 1.524 . S
C630 H642 0.956 . S
C630 H643 0.961 . S
C630 H644 0.961 . S
C631 C628 1.539 . S
C631 H645 0.958 . S
C631 H646 0.961 . S
C631 H647 0.960 . S
H632 C616 0.931 . S
H633 C621 0.929 . S
H634 C622 0.960 . S
H635 C622 0.962 . S
H636 C622 0.960 . S
H637 C623 0.961 . S
H638 C623 0.961 . S
H639 C623 0.961 . S
H640 C624 0.931 . S
H641 C629 0.930 . S
H642 C630 0.956 . S
H643 C630 0.961 . S
H644 C630 0.961 . S
H645 C631 0.958 . S
H646 C631 0.961 . S
H647 C631 0.960 . S
C648 C649 1.391 . S
C648 C650 1.394 . S
C648 H664 0.931 . S
C649 C648 1.391 . S
C649 C653 1.376 . S
C650 C648 1.394 . S
C650 C651 1.369 . S
C650 C654 1.531 . S
C651 C650 1.369 . S
C651 C652 1.410 . S
C651 C659 1.503 . S
C652 C651 1.410 . S
C652 C653 1.392 . S
C652 C655 1.511 . S
C653 C649 1.376 . S
C653 C652 1.392 . S
C653 H665 0.929 . S
C654 C650 1.531 . S
C654 H666 0.960 . S
C654 H667 0.962 . S
C654 H668 0.960 . S
C655 C652 1.511 . S
C655 H669 0.961 . S
C655 H670 0.961 . S
C655 H671 0.961 . S
C656 C657 1.370 . S
C656 C658 1.363 . S
C656 H672 0.931 . S
C657 C656 1.370 . S
C657 C661 1.408 . S
C658 C656 1.363 . S
C658 C659 1.370 . S
C658 C662 1.524 . S
C659 C651 1.503 . S
C659 C658 1.370 . S
C659 C660 1.403 . S
C660 C659 1.403 . S
C660 C661 1.404 . S
C660 C663 1.539 . S
C661 C657 1.408 . S
C661 C660 1.404 . S
C661 H673 0.930 . S
C662 C658 1.524 . S
C662 H674 0.956 . S
C662 H675 0.961 . S
C662 H676 0.961 . S
C663 C660 1.539 . S
C663 H677 0.958 . S
C663 H678 0.961 . S
C663 H679 0.960 . S
H664 C648 0.931 . S
H665 C653 0.929 . S
H666 C654 0.960 . S
H667 C654 0.962 . S
H668 C654 0.960 . S
H669 C655 0.961 . S
H670 C655 0.961 . S
H671 C655 0.961 . S
H672 C656 0.931 . S
H673 C661 0.930 . S
H674 C662 0.956 . S
H675 C662 0.961 . S
H676 C662 0.961 . S
H677 C663 0.958 . S
H678 C663 0.961 . S
H679 C663 0.960 . S
C680 C681 1.391 . S
C680 C682 1.394 . S
C680 H696 0.931 . S
C681 C680 1.391 . S
C681 C685 1.376 . S
C682 C680 1.394 . S
C682 C683 1.369 . S
C682 C686 1.531 . S
C683 C682 1.369 . S
C683 C684 1.410 . S
C683 C691 1.503 . S
C684 C683 1.410 . S
C684 C685 1.392 . S
C684 C687 1.511 . S
C685 C681 1.376 . S
C685 C684 1.392 . S
C685 H697 0.929 . S
C686 C682 1.531 . S
C686 H698 0.960 . S
C686 H699 0.962 . S
C686 H700 0.960 . S
C687 C684 1.511 . S
C687 H701 0.961 . S
C687 H702 0.961 . S
C687 H703 0.961 . S
C688 C689 1.370 . S
C688 C690 1.363 . S
C688 H704 0.931 . S
C689 C688 1.370 . S
C689 C693 1.408 . S
C690 C688 1.363 . S
C690 C691 1.370 . S
C690 C694 1.524 . S
C691 C683 1.503 . S
C691 C690 1.370 . S
C691 C692 1.403 . S
C692 C691 1.403 . S
C692 C693 1.404 . S
C692 C695 1.539 . S
C693 C689 1.408 . S
C693 C692 1.404 . S
C693 H705 0.930 . S
C694 C690 1.524 . S
C694 H706 0.956 . S
C694 H707 0.961 . S
C694 H708 0.961 . S
C695 C692 1.539 . S
C695 H709 0.958 . S
C695 H710 0.961 . S
C695 H711 0.960 . S
H696 C680 0.931 . S
H697 C685 0.929 . S
H698 C686 0.960 . S
H699 C686 0.962 . S
H700 C686 0.960 . S
H701 C687 0.961 . S
H702 C687 0.961 . S
H703 C687 0.961 . S
H704 C688 0.931 . S
H705 C693 0.930 . S
H706 C694 0.956 . S
H707 C694 0.961 . S
H708 C694 0.961 . S
H709 C695 0.958 . S
H710 C695 0.961 . S
H711 C695 0.960 . S
C712 C713 1.391 . S
C712 C714 1.394 . S
C712 H728 0.931 . S
C713 C712 1.391 . S
C713 C717 1.376 . S
C714 C712 1.394 . S
C714 C715 1.369 . S
C714 C718 1.531 . S
C715 C714 1.369 . S
C715 C716 1.410 . S
C715 C723 1.503 . S
C716 C715 1.410 . S
C716 C717 1.392 . S
C716 C719 1.511 . S
C717 C713 1.376 . S
C717 C716 1.392 . S
C717 H729 0.929 . S
C718 C714 1.531 . S
C718 H730 0.960 . S
C718 H731 0.962 . S
C718 H732 0.960 . S
C719 C716 1.511 . S
C719 H733 0.961 . S
C719 H734 0.961 . S
C719 H735 0.961 . S
C720 C721 1.370 . S
C720 C722 1.363 . S
C720 H736 0.931 . S
C721 C720 1.370 . S
C721 C725 1.408 . S
C722 C720 1.363 . S
C722 C723 1.370 . S
C722 C726 1.524 . S
C723 C715 1.503 . S
C723 C722 1.370 . S
C723 C724 1.403 . S
C724 C723 1.403 . S
C724 C725 1.404 . S
C724 C727 1.539 . S
C725 C721 1.408 . S
C725 C724 1.404 . S
C725 H737 0.930 . S
C726 C722 1.524 . S
C726 H738 0.956 . S
C726 H739 0.961 . S
C726 H740 0.961 . S
C727 C724 1.539 . S
C727 H741 0.958 . S
C727 H742 0.961 . S
C727 H743 0.960 . S
H728 C712 0.931 . S
H729 C717 0.929 . S
H730 C718 0.960 . S
H731 C718 0.962 . S
H732 C718 0.960 . S
H733 C719 0.961 . S
H734 C719 0.961 . S
H735 C719 0.961 . S
H736 C720 0.931 . S
H737 C725 0.930 . S
H738 C726 0.956 . S
H739 C726 0.961 . S
H740 C726 0.961 . S
H741 C727 0.958 . S
H742 C727 0.961 . S
H743 C727 0.960 . S
C744 C745 1.391 . S
C744 C746 1.394 . S
C744 H760 0.931 . S
C745 C744 1.391 . S
C745 C749 1.373 . S
C746 C744 1.394 . S
C746 C747 1.369 . S
C746 C750 1.531 . S
C747 C746 1.369 . S
C747 C748 1.382 1_455 S
C747 C755 1.503 . S
C748 C747 1.382 1_655 S
C748 C749 1.392 1_655 S
C748 C751 1.540 . S
C749 C745 1.373 . S
C749 C748 1.392 1_455 S
C749 H761 0.932 1_455 S
C750 C746 1.531 . S
C750 H762 0.960 . S
C750 H763 0.962 . S
C750 H764 0.960 . S
C751 C748 1.540 . S
C751 H765 0.961 . S
C751 H766 0.961 . S
C751 H767 0.961 . S
C752 C753 1.370 . S
C752 C754 1.363 . S
C752 H768 0.931 . S
C753 C752 1.370 . S
C753 C757 1.408 1_455 S
C754 C752 1.363 . S
C754 C755 1.370 . S
C754 C758 1.524 . S
C755 C747 1.503 . S
C755 C754 1.370 . S
C755 C756 1.403 1_455 S
C756 C755 1.403 1_655 S
C756 C757 1.404 . S
C756 C759 1.539 . S
C757 C753 1.408 1_655 S
C757 C756 1.404 . S
C757 H769 0.930 . S
C758 C754 1.524 . S
C758 H770 0.956 . S
C758 H771 0.961 . S
C758 H772 0.961 . S
C759 C756 1.539 . S
C759 H773 0.958 . S
C759 H774 0.961 . S
C759 H775 0.960 . S
H760 C744 0.931 . S
H761 C749 0.932 1_655 S
H762 C750 0.960 . S
H763 C750 0.962 . S
H764 C750 0.960 . S
H765 C751 0.961 . S
H766 C751 0.961 . S
H767 C751 0.961 . S
H768 C752 0.931 . S
H769 C757 0.930 . S
H770 C758 0.956 . S
H771 C758 0.961 . S
H772 C758 0.961 . S
H773 C759 0.958 . S
H774 C759 0.961 . S
H775 C759 0.960 . S
C776 C777 1.391 1_565 S
C776 C778 1.394 . S
C776 H792 0.931 . S
C777 C776 1.391 1_545 S
C777 C781 1.376 . S
C778 C776 1.394 . S
C778 C779 1.369 1_565 S
C778 C782 1.531 . S
C779 C778 1.369 1_545 S
C779 C780 1.410 . S
C779 C787 1.503 . S
C780 C779 1.410 . S
C780 C781 1.392 . S
C780 C783 1.511 . S
C781 C777 1.376 . S
C781 C780 1.392 . S
C781 H793 0.929 . S
C782 C778 1.531 . S
C782 H794 0.960 . S
C782 H795 0.962 . S
C782 H796 0.960 . S
C783 C780 1.511 . S
C783 H797 0.961 . S
C783 H798 0.961 . S
C783 H799 0.961 . S
C784 C785 1.370 . S
C784 C786 1.363 . S
C784 H800 0.931 . S
C785 C784 1.370 . S
C785 C789 1.409 . S
C786 C784 1.363 . S
C786 C787 1.370 . S
C786 C790 1.524 . S
C787 C779 1.503 . S
C787 C786 1.370 . S
C787 C788 1.403 1_545 S
C788 C787 1.403 1_565 S
C788 C789 1.404 1_565 S
C788 C791 1.539 . S
C789 C785 1.409 . S
C789 C788 1.404 1_545 S
C789 H801 0.929 1_545 S
C790 C786 1.524 . S
C790 H802 0.956 . S
C790 H803 0.961 . S
C790 H804 0.961 . S
C791 C788 1.539 . S
C791 H805 0.958 . S
C791 H806 0.961 . S
C791 H807 0.960 . S
H792 C776 0.931 . S
H793 C781 0.929 . S
H794 C782 0.960 . S
H795 C782 0.962 . S
H796 C782 0.960 . S
H797 C783 0.961 . S
H798 C783 0.961 . S
H799 C783 0.961 . S
H800 C784 0.931 . S
H801 C789 0.929 1_565 S
H802 C790 0.956 . S
H803 C790 0.961 . S
H804 C790 0.961 . S
H805 C791 0.958 . S
H806 C791 0.961 . S
H807 C791 0.960 . S
C808 C809 1.391 . S
C808 C810 1.394 . S
C808 H824 0.931 . S
C809 C808 1.391 . S
C809 C813 1.376 . S
C810 C808 1.394 . S
C810 C811 1.369 . S
C810 C814 1.531 . S
C811 C810 1.369 . S
C811 C812 1.410 . S
C811 C819 1.503 . S
C812 C811 1.410 . S
C812 C813 1.392 . S
C812 C815 1.511 . S
C813 C809 1.376 . S
C813 C812 1.392 . S
C813 H825 0.929 . S
C814 C810 1.531 . S
C814 H826 0.960 . S
C814 H827 0.962 . S
C814 H828 0.960 . S
C815 C812 1.511 . S
C815 H829 0.961 . S
C815 H830 0.961 . S
C815 H831 0.961 . S
C816 C817 1.370 . S
C816 C818 1.363 . S
C816 H832 0.931 . S
C817 C816 1.370 . S
C817 C821 1.408 . S
C818 C816 1.363 . S
C818 C819 1.370 . S
C818 C822 1.524 . S
C819 C811 1.503 . S
C819 C818 1.370 . S
C819 C820 1.403 . S
C820 C819 1.403 . S
C820 C821 1.404 . S
C820 C823 1.539 . S
C821 C817 1.408 . S
C821 C820 1.404 . S
C821 H833 0.930 . S
C822 C818 1.524 . S
C822 H834 0.956 . S
C822 H835 0.961 . S
C822 H836 0.961 . S
C823 C820 1.539 . S
C823 H837 0.958 . S
C823 H838 0.961 . S
C823 H839 0.960 . S
H824 C808 0.931 . S
H825 C813 0.929 . S
H826 C814 0.960 . S
H827 C814 0.962 . S
H828 C814 0.960 . S
H829 C815 0.961 . S
H830 C815 0.961 . S
H831 C815 0.961 . S
H832 C816 0.931 . S
H833 C821 0.930 . S
H834 C822 0.956 . S
H835 C822 0.961 . S
H836 C822 0.961 . S
H837 C823 0.958 . S
H838 C823 0.961 . S
H839 C823 0.960 . S
C840 C841 1.391 1_565 S
C840 C842 1.394 . S
C840 H856 0.931 . S
C841 C840 1.391 1_545 S
C841 C845 1.376 . S
C842 C840 1.394 . S
C842 C843 1.369 1_565 S
C842 C846 1.531 . S
C843 C842 1.369 1_545 S
C843 C844 1.410 . S
C843 C851 1.503 . S
C844 C843 1.410 . S
C844 C845 1.392 . S
C844 C847 1.511 . S
C845 C841 1.376 . S
C845 C844 1.392 . S
C845 H857 0.929 . S
C846 C842 1.531 . S
C846 H858 0.960 . S
C846 H859 0.962 . S
C846 H860 0.960 . S
C847 C844 1.511 . S
C847 H861 0.961 . S
C847 H862 0.961 . S
C847 H863 0.961 . S
C848 C849 1.370 . S
C848 C850 1.363 . S
C848 H864 0.931 . S
C849 C848 1.370 . S
C849 C853 1.408 1_565 S
C850 C848 1.363 . S
C850 C851 1.370 1_565 S
C850 C854 1.524 . S
C851 C843 1.503 . S
C851 C850 1.370 1_545 S
C851 C852 1.403 . S
C852 C851 1.403 . S
C852 C853 1.404 . S
C852 C855 1.539 . S
C853 C849 1.408 1_545 S
C853 C852 1.404 . S
C853 H865 0.930 . S
C854 C850 1.524 . S
C854 H866 0.956 . S
C854 H867 0.961 . S
C854 H868 0.961 . S
C855 C852 1.539 . S
C855 H869 0.958 . S
C855 H870 0.961 . S
C855 H871 0.960 . S
H856 C840 0.931 . S
H857 C845 0.929 . S
H858 C846 0.960 . S
H859 C846 0.962 . S
H860 C846 0.960 . S
H861 C847 0.961 . S
H862 C847 0.961 . S
H863 C847 0.961 . S
H864 C848 0.931 . S
H865 C853 0.930 . S
H866 C854 0.956 . S
H867 C854 0.961 . S
H868 C854 0.961 . S
H869 C855 0.958 . S
H870 C855 0.961 . S
H871 C855 0.960 . S
C872 C873 1.391 . S
C872 C874 1.394 . S
C872 H888 0.931 . S
C873 C872 1.391 . S
C873 C877 1.376 . S
C874 C872 1.394 . S
C874 C875 1.369 . S
C874 C878 1.531 . S
C875 C874 1.369 . S
C875 C876 1.410 . S
C875 C883 1.503 . S
C876 C875 1.410 . S
C876 C877 1.392 . S
C876 C879 1.511 . S
C877 C873 1.376 . S
C877 C876 1.392 . S
C877 H889 0.929 . S
C878 C874 1.531 . S
C878 H890 0.960 . S
C878 H891 0.962 . S
C878 H892 0.960 . S
C879 C876 1.511 . S
C879 H893 0.961 . S
C879 H894 0.961 . S
C879 H895 0.961 . S
C880 C881 1.370 . S
C880 C882 1.363 . S
C880 H896 0.931 . S
C881 C880 1.370 . S
C881 C885 1.408 . S
C882 C880 1.363 . S
C882 C883 1.370 . S
C882 C886 1.524 . S
C883 C875 1.503 . S
C883 C882 1.370 . S
C883 C884 1.403 . S
C884 C883 1.403 . S
C884 C885 1.404 . S
C884 C887 1.539 . S
C885 C881 1.408 . S
C885 C884 1.404 . S
C885 H897 0.930 . S
C886 C882 1.524 . S
C886 H898 0.956 . S
C886 H899 0.961 . S
C886 H900 0.961 . S
C887 C884 1.539 . S
C887 H901 0.958 . S
C887 H902 0.961 . S
C887 H903 0.960 . S
H888 C872 0.931 . S
H889 C877 0.929 . S
H890 C878 0.960 . S
H891 C878 0.962 . S
H892 C878 0.960 . S
H893 C879 0.961 . S
H894 C879 0.961 . S
H895 C879 0.961 . S
H896 C880 0.931 . S
H897 C885 0.930 . S
H898 C886 0.956 . S
H899 C886 0.961 . S
H900 C886 0.961 . S
H901 C887 0.958 . S
H902 C887 0.961 . S
H903 C887 0.960 . S
C904 C905 1.391 . S
C904 C906 1.394 . S
C904 H920 0.931 . S
C905 C904 1.391 . S
C905 C909 1.376 1_455 S
C906 C904 1.394 . S
C906 C907 1.369 . S
C906 C910 1.531 . S
C907 C906 1.369 . S
C907 C908 1.410 1_455 S
C907 C915 1.503 . S
C908 C907 1.410 1_655 S
C908 C909 1.392 . S
C908 C911 1.511 . S
C909 C905 1.376 1_655 S
C909 C908 1.392 . S
C909 H921 0.929 . S
C910 C906 1.531 . S
C910 H922 0.960 . S
C910 H923 0.962 . S
C910 H924 0.960 . S
C911 C908 1.511 . S
C911 H925 0.961 . S
C911 H926 0.961 . S
C911 H927 0.961 . S
C912 C913 1.370 . S
C912 C914 1.363 . S
C912 H928 0.931 . S
C913 C912 1.370 . S
C913 C917 1.408 1_655 S
C914 C912 1.363 . S
C914 C915 1.370 1_655 S
C914 C918 1.524 . S
C915 C907 1.503 . S
C915 C914 1.370 1_455 S
C915 C916 1.403 . S
C916 C915 1.403 . S
C916 C917 1.404 . S
C916 C919 1.539 . S
C917 C913 1.408 1_455 S
C917 C916 1.404 . S
C917 H929 0.930 . S
C918 C914 1.524 . S
C918 H930 0.956 1_655 S
C918 H931 0.961 . S
C918 H932 0.961 . S
C919 C916 1.539 . S
C919 H933 0.958 . S
C919 H934 0.961 . S
C919 H935 0.960 . S
H920 C904 0.931 . S
H921 C909 0.929 . S
H922 C910 0.960 . S
H923 C910 0.962 . S
H924 C910 0.960 . S
H925 C911 0.961 . S
H926 C911 0.961 . S
H927 C911 0.961 . S
H928 C912 0.931 . S
H929 C917 0.930 . S
H930 C918 0.956 1_455 S
H931 C918 0.961 . S
H932 C918 0.961 . S
H933 C919 0.958 . S
H934 C919 0.961 . S
H935 C919 0.960 . S
C361 C6 0.549 . S
C369 C335 0.600 . S
C393 C59 1.980 . S
C401 C242 1.940 . S
C425 C86 1.219 . S
C433 C282 1.218 . S
C457 C15 0.471 . S
C465 C322 0.302 . S
C497 C255 2.058 . S
C489 C50 2.124 . S
C529 C295 1.319 . S
C521 C95 1.318 . S
C553 C46 1.197 . S
C561 C162 1.204 . S
C585 C99 3.146 . S
C593 C202 3.127 . S
C617 C10 2.140 . S
C625 C135 2.091 . S
C657 C175 1.306 . S
C649 C55 1.285 . S
C689 C215 3.031 . S
C681 C90 3.076 . S
C713 C19 1.948 . S
C721 C122 1.954 . S
C753 C221 1.745 1_554 S
C745 C18 1.698 . S
C777 C49 1.362 . S
C785 C141 1.377 . S
C809 C98 1.487 . S
C817 C181 1.510 . S
C849 C301 1.494 . S
C841 C58 1.467 . S
C881 C341 1.119 . S
C873 C89 1.077 . S
C905 C9 1.358 . S
C913 C261 1.366 . S
