# Generated by pormake.
# Topology gar, (4,6)-cn, num edge types: 1
# Building blocks:
#     Node 0, Type 0, BuildingBlock: GALJAG_clean_sbu_0, # of connection points: 4
#     Node 1, Type 0, BuildingBlock: GALJAG_clean_sbu_0, # of connection points: 4
#     Node 2, Type 0, BuildingBlock: GALJAG_clean_sbu_0, # of connection points: 4
#     Node 3, Type 0, BuildingBlock: GALJAG_clean_sbu_0, # of connection points: 4
#     Node 4, Type 0, BuildingBlock: GALJAG_clean_sbu_0, # of connection points: 4
#     Node 5, Type 0, BuildingBlock: GALJAG_clean_sbu_0, # of connection points: 4
#     Node 6, Type 0, BuildingBlock: GALJAG_clean_sbu_0, # of connection points: 4
#     Node 7, Type 0, BuildingBlock: GALJAG_clean_sbu_0, # of connection points: 4
#     Node 8, Type 0, BuildingBlock: GALJAG_clean_sbu_0, # of connection points: 4
#     Node 9, Type 0, BuildingBlock: GALJAG_clean_sbu_0, # of connection points: 4
#     Node 10, Type 0, BuildingBlock: GALJAG_clean_sbu_0, # of connection points: 4
#     Node 11, Type 0, BuildingBlock: GALJAG_clean_sbu_0, # of connection points: 4
#     Node 12, Type 0, BuildingBlock: GALJAG_clean_sbu_0, # of connection points: 4
#     Node 13, Type 0, BuildingBlock: GALJAG_clean_sbu_0, # of connection points: 4
#     Node 14, Type 0, BuildingBlock: GALJAG_clean_sbu_0, # of connection points: 4
#     Node 15, Type 0, BuildingBlock: GALJAG_clean_sbu_0, # of connection points: 4
#     Node 16, Type 0, BuildingBlock: GALJAG_clean_sbu_0, # of connection points: 4
#     Node 17, Type 0, BuildingBlock: GALJAG_clean_sbu_0, # of connection points: 4
#     Node 18, Type 0, BuildingBlock: GALJAG_clean_sbu_0, # of connection points: 4
#     Node 19, Type 0, BuildingBlock: GALJAG_clean_sbu_0, # of connection points: 4
#     Node 20, Type 0, BuildingBlock: GALJAG_clean_sbu_0, # of connection points: 4
#     Node 21, Type 0, BuildingBlock: GALJAG_clean_sbu_0, # of connection points: 4
#     Node 22, Type 0, BuildingBlock: GALJAG_clean_sbu_0, # of connection points: 4
#     Node 23, Type 0, BuildingBlock: GALJAG_clean_sbu_0, # of connection points: 4
#     Node 24, Type 1, BuildingBlock: MIFKUJ_clean_sbu_0, # of connection points: 6
#     Node 25, Type 1, BuildingBlock: MIFKUJ_clean_sbu_0, # of connection points: 6
#     Node 26, Type 1, BuildingBlock: MIFKUJ_clean_sbu_0, # of connection points: 6
#     Node 27, Type 1, BuildingBlock: MIFKUJ_clean_sbu_0, # of connection points: 6
#     Node 28, Type 1, BuildingBlock: MIFKUJ_clean_sbu_0, # of connection points: 6
#     Node 29, Type 1, BuildingBlock: MIFKUJ_clean_sbu_0, # of connection points: 6
#     Node 30, Type 1, BuildingBlock: MIFKUJ_clean_sbu_0, # of connection points: 6
#     Node 31, Type 1, BuildingBlock: MIFKUJ_clean_sbu_0, # of connection points: 6
#     Node 32, Type 1, BuildingBlock: MIFKUJ_clean_sbu_0, # of connection points: 6
#     Node 33, Type 1, BuildingBlock: MIFKUJ_clean_sbu_0, # of connection points: 6
#     Node 34, Type 1, BuildingBlock: MIFKUJ_clean_sbu_0, # of connection points: 6
#     Node 35, Type 1, BuildingBlock: MIFKUJ_clean_sbu_0, # of connection points: 6
#     Node 36, Type 1, BuildingBlock: MIFKUJ_clean_sbu_0, # of connection points: 6
#     Node 37, Type 1, BuildingBlock: MIFKUJ_clean_sbu_0, # of connection points: 6
#     Node 38, Type 1, BuildingBlock: MIFKUJ_clean_sbu_0, # of connection points: 6
#     Node 39, Type 1, BuildingBlock: MIFKUJ_clean_sbu_0, # of connection points: 6
#     Edge 40, Type (0, 1), BuildingBlock: ZUJKAS_clean_linker_0, # of connection points: 2
#     Edge 41, Type (0, 1), BuildingBlock: ZUJKAS_clean_linker_0, # of connection points: 2
#     Edge 42, Type (0, 1), BuildingBlock: ZUJKAS_clean_linker_0, # of connection points: 2
#     Edge 43, Type (0, 1), BuildingBlock: ZUJKAS_clean_linker_0, # of connection points: 2
#     Edge 44, Type (0, 1), BuildingBlock: ZUJKAS_clean_linker_0, # of connection points: 2
#     Edge 45, Type (0, 1), BuildingBlock: ZUJKAS_clean_linker_0, # of connection points: 2
#     Edge 46, Type (0, 1), BuildingBlock: ZUJKAS_clean_linker_0, # of connection points: 2
#     Edge 47, Type (0, 1), BuildingBlock: ZUJKAS_clean_linker_0, # of connection points: 2
#     Edge 48, Type (0, 1), BuildingBlock: ZUJKAS_clean_linker_0, # of connection points: 2
#     Edge 49, Type (0, 1), BuildingBlock: ZUJKAS_clean_linker_0, # of connection points: 2
#     Edge 50, Type (0, 1), BuildingBlock: ZUJKAS_clean_linker_0, # of connection points: 2
#     Edge 51, Type (0, 1), BuildingBlock: ZUJKAS_clean_linker_0, # of connection points: 2
#     Edge 52, Type (0, 1), BuildingBlock: ZUJKAS_clean_linker_0, # of connection points: 2
#     Edge 53, Type (0, 1), BuildingBlock: ZUJKAS_clean_linker_0, # of connection points: 2
#     Edge 54, Type (0, 1), BuildingBlock: ZUJKAS_clean_linker_0, # of connection points: 2
#     Edge 55, Type (0, 1), BuildingBlock: ZUJKAS_clean_linker_0, # of connection points: 2
#     Edge 56, Type (0, 1), BuildingBlock: ZUJKAS_clean_linker_0, # of connection points: 2
#     Edge 57, Type (0, 1), BuildingBlock: ZUJKAS_clean_linker_0, # of connection points: 2
#     Edge 58, Type (0, 1), BuildingBlock: ZUJKAS_clean_linker_0, # of connection points: 2
#     Edge 59, Type (0, 1), BuildingBlock: ZUJKAS_clean_linker_0, # of connection points: 2
#     Edge 60, Type (0, 1), BuildingBlock: ZUJKAS_clean_linker_0, # of connection points: 2
#     Edge 61, Type (0, 1), BuildingBlock: ZUJKAS_clean_linker_0, # of connection points: 2
#     Edge 62, Type (0, 1), BuildingBlock: ZUJKAS_clean_linker_0, # of connection points: 2
#     Edge 63, Type (0, 1), BuildingBlock: ZUJKAS_clean_linker_0, # of connection points: 2
#     Edge 64, Type (0, 1), BuildingBlock: ZUJKAS_clean_linker_0, # of connection points: 2
#     Edge 65, Type (0, 1), BuildingBlock: ZUJKAS_clean_linker_0, # of connection points: 2
#     Edge 66, Type (0, 1), BuildingBlock: ZUJKAS_clean_linker_0, # of connection points: 2
#     Edge 67, Type (0, 1), BuildingBlock: ZUJKAS_clean_linker_0, # of connection points: 2
#     Edge 68, Type (0, 1), BuildingBlock: ZUJKAS_clean_linker_0, # of connection points: 2
#     Edge 69, Type (0, 1), BuildingBlock: ZUJKAS_clean_linker_0, # of connection points: 2
#     Edge 70, Type (0, 1), BuildingBlock: ZUJKAS_clean_linker_0, # of connection points: 2
#     Edge 71, Type (0, 1), BuildingBlock: ZUJKAS_clean_linker_0, # of connection points: 2
#     Edge 72, Type (0, 1), BuildingBlock: ZUJKAS_clean_linker_0, # of connection points: 2
#     Edge 73, Type (0, 1), BuildingBlock: ZUJKAS_clean_linker_0, # of connection points: 2
#     Edge 74, Type (0, 1), BuildingBlock: ZUJKAS_clean_linker_0, # of connection points: 2
#     Edge 75, Type (0, 1), BuildingBlock: ZUJKAS_clean_linker_0, # of connection points: 2
#     Edge 76, Type (0, 1), BuildingBlock: ZUJKAS_clean_linker_0, # of connection points: 2
#     Edge 77, Type (0, 1), BuildingBlock: ZUJKAS_clean_linker_0, # of connection points: 2
#     Edge 78, Type (0, 1), BuildingBlock: ZUJKAS_clean_linker_0, # of connection points: 2
#     Edge 79, Type (0, 1), BuildingBlock: ZUJKAS_clean_linker_0, # of connection points: 2
#     Edge 80, Type (0, 1), BuildingBlock: ZUJKAS_clean_linker_0, # of connection points: 2
#     Edge 81, Type (0, 1), BuildingBlock: ZUJKAS_clean_linker_0, # of connection points: 2
#     Edge 82, Type (0, 1), BuildingBlock: ZUJKAS_clean_linker_0, # of connection points: 2
#     Edge 83, Type (0, 1), BuildingBlock: ZUJKAS_clean_linker_0, # of connection points: 2
#     Edge 84, Type (0, 1), BuildingBlock: ZUJKAS_clean_linker_0, # of connection points: 2
#     Edge 85, Type (0, 1), BuildingBlock: ZUJKAS_clean_linker_0, # of connection points: 2
#     Edge 86, Type (0, 1), BuildingBlock: ZUJKAS_clean_linker_0, # of connection points: 2
#     Edge 87, Type (0, 1), BuildingBlock: ZUJKAS_clean_linker_0, # of connection points: 2
#     Edge 88, Type (0, 1), BuildingBlock: ZUJKAS_clean_linker_0, # of connection points: 2
#     Edge 89, Type (0, 1), BuildingBlock: ZUJKAS_clean_linker_0, # of connection points: 2
#     Edge 90, Type (0, 1), BuildingBlock: ZUJKAS_clean_linker_0, # of connection points: 2
#     Edge 91, Type (0, 1), BuildingBlock: ZUJKAS_clean_linker_0, # of connection points: 2
#     Edge 92, Type (0, 1), BuildingBlock: ZUJKAS_clean_linker_0, # of connection points: 2
#     Edge 93, Type (0, 1), BuildingBlock: ZUJKAS_clean_linker_0, # of connection points: 2
#     Edge 94, Type (0, 1), BuildingBlock: ZUJKAS_clean_linker_0, # of connection points: 2
#     Edge 95, Type (0, 1), BuildingBlock: ZUJKAS_clean_linker_0, # of connection points: 2
#     Edge 96, Type (0, 1), BuildingBlock: ZUJKAS_clean_linker_0, # of connection points: 2
#     Edge 97, Type (0, 1), BuildingBlock: ZUJKAS_clean_linker_0, # of connection points: 2
#     Edge 98, Type (0, 1), BuildingBlock: ZUJKAS_clean_linker_0, # of connection points: 2
#     Edge 99, Type (0, 1), BuildingBlock: ZUJKAS_clean_linker_0, # of connection points: 2
#     Edge 100, Type (0, 1), BuildingBlock: ZUJKAS_clean_linker_0, # of connection points: 2
#     Edge 101, Type (0, 1), BuildingBlock: ZUJKAS_clean_linker_0, # of connection points: 2
#     Edge 102, Type (0, 1), BuildingBlock: ZUJKAS_clean_linker_0, # of connection points: 2
#     Edge 103, Type (0, 1), BuildingBlock: ZUJKAS_clean_linker_0, # of connection points: 2
#     Edge 104, Type (0, 1), BuildingBlock: ZUJKAS_clean_linker_0, # of connection points: 2
#     Edge 105, Type (0, 1), BuildingBlock: ZUJKAS_clean_linker_0, # of connection points: 2
#     Edge 106, Type (0, 1), BuildingBlock: ZUJKAS_clean_linker_0, # of connection points: 2
#     Edge 107, Type (0, 1), BuildingBlock: ZUJKAS_clean_linker_0, # of connection points: 2
#     Edge 108, Type (0, 1), BuildingBlock: ZUJKAS_clean_linker_0, # of connection points: 2
#     Edge 109, Type (0, 1), BuildingBlock: ZUJKAS_clean_linker_0, # of connection points: 2
#     Edge 110, Type (0, 1), BuildingBlock: ZUJKAS_clean_linker_0, # of connection points: 2
#     Edge 111, Type (0, 1), BuildingBlock: ZUJKAS_clean_linker_0, # of connection points: 2
#     Edge 112, Type (0, 1), BuildingBlock: ZUJKAS_clean_linker_0, # of connection points: 2
#     Edge 113, Type (0, 1), BuildingBlock: ZUJKAS_clean_linker_0, # of connection points: 2
#     Edge 114, Type (0, 1), BuildingBlock: ZUJKAS_clean_linker_0, # of connection points: 2
#     Edge 115, Type (0, 1), BuildingBlock: ZUJKAS_clean_linker_0, # of connection points: 2
#     Edge 116, Type (0, 1), BuildingBlock: ZUJKAS_clean_linker_0, # of connection points: 2
#     Edge 117, Type (0, 1), BuildingBlock: ZUJKAS_clean_linker_0, # of connection points: 2
#     Edge 118, Type (0, 1), BuildingBlock: ZUJKAS_clean_linker_0, # of connection points: 2
#     Edge 119, Type (0, 1), BuildingBlock: ZUJKAS_clean_linker_0, # of connection points: 2
#     Edge 120, Type (0, 1), BuildingBlock: ZUJKAS_clean_linker_0, # of connection points: 2
#     Edge 121, Type (0, 1), BuildingBlock: ZUJKAS_clean_linker_0, # of connection points: 2
#     Edge 122, Type (0, 1), BuildingBlock: ZUJKAS_clean_linker_0, # of connection points: 2
#     Edge 123, Type (0, 1), BuildingBlock: ZUJKAS_clean_linker_0, # of connection points: 2
#     Edge 124, Type (0, 1), BuildingBlock: ZUJKAS_clean_linker_0, # of connection points: 2
#     Edge 125, Type (0, 1), BuildingBlock: ZUJKAS_clean_linker_0, # of connection points: 2
#     Edge 126, Type (0, 1), BuildingBlock: ZUJKAS_clean_linker_0, # of connection points: 2
#     Edge 127, Type (0, 1), BuildingBlock: ZUJKAS_clean_linker_0, # of connection points: 2
#     Edge 128, Type (0, 1), BuildingBlock: ZUJKAS_clean_linker_0, # of connection points: 2
#     Edge 129, Type (0, 1), BuildingBlock: ZUJKAS_clean_linker_0, # of connection points: 2
#     Edge 130, Type (0, 1), BuildingBlock: ZUJKAS_clean_linker_0, # of connection points: 2
#     Edge 131, Type (0, 1), BuildingBlock: ZUJKAS_clean_linker_0, # of connection points: 2
#     Edge 132, Type (0, 1), BuildingBlock: ZUJKAS_clean_linker_0, # of connection points: 2
#     Edge 133, Type (0, 1), BuildingBlock: ZUJKAS_clean_linker_0, # of connection points: 2
#     Edge 134, Type (0, 1), BuildingBlock: ZUJKAS_clean_linker_0, # of connection points: 2
#     Edge 135, Type (0, 1), BuildingBlock: ZUJKAS_clean_linker_0, # of connection points: 2
# Relax obj value: 0.115
# Max RMSD: 0.261
# Mean RMSD: 0.151
data_MOF--net-gar--node1-GALJAG_clean_sbu_0--node2-MIFKUJ_clean_sbu_0--edge1-ZUJKAS_clean_linker_0
_symmetry_space_group_name_H-M    P1
_symmetry_Int_Tables_number       1
_symmetry_cell_setting            triclinic
loop_
_symmetry_equiv_pos_as_xyz
'x, y, z'
_cell_length_a     72.210471
_cell_length_b     72.22084
_cell_length_c     69.794988
_cell_angle_alpha  94.178507
_cell_angle_beta   94.198998
_cell_angle_gamma 98.200933
loop_
_atom_site_label
_atom_site_type_symbol
_atom_site_fract_x
_atom_site_fract_y
_atom_site_fract_z
_atom_type_partial_charge
In0 In 0.02813 0.26827 0.39108 0.0
O1 O 0.03939 0.2644 0.36151 0.0
O2 O 0.05841 0.26458 0.3862 0.0
C3 C 0.99509 0.27063 0.37124 0.0
C4 C 0.02607 0.23787 0.41169 0.0
C5 C 0.03393 0.30102 0.41367 0.0
O6 O 0.01013 0.28102 0.36865 0.0
O7 O 0.99678 0.25897 0.38361 0.0
O8 O 0.02002 0.2885 0.41449 0.0
O9 O 0.04509 0.29706 0.40144 0.0
C10 C 0.05588 0.2632 0.36805 0.0
O11 O 0.03164 0.25433 0.41917 0.0
O12 O 0.02169 0.23669 0.39376 0.0
In13 In 0.00951 0.75438 0.6438 0.0
O14 O 0.02052 0.7702 0.61871 0.0
O15 O 0.00011 0.78145 0.63458 0.0
C16 C 0.0062 0.72171 0.62137 0.0
C17 C 0.04209 0.75829 0.66647 0.0
C18 C 0.98033 0.7545 0.66604 0.0
O19 O 0.99679 0.73458 0.61743 0.0
O20 O 0.01713 0.72534 0.63651 0.0
O21 O 0.99526 0.76605 0.66932 0.0
O22 O 0.98015 0.74286 0.65164 0.0
C23 C 0.01063 0.78313 0.62096 0.0
O24 O 0.0393 0.76885 0.65328 0.0
O25 O 0.02834 0.74591 0.66846 0.0
In26 In 0.52879 0.77033 0.89638 0.0
O27 O 0.55596 0.75913 0.88974 0.0
O28 O 0.54671 0.77901 0.87185 0.0
C29 C 0.49505 0.76942 0.87638 0.0
C30 C 0.52521 0.73988 0.91677 0.0
C31 C 0.53536 0.80311 0.91892 0.0
O32 O 0.50818 0.76194 0.86961 0.0
O33 O 0.49884 0.77712 0.89327 0.0
O34 O 0.52938 0.78764 0.92517 0.0
O35 O 0.53825 0.80208 0.9013 0.0
C36 C 0.55885 0.76857 0.87549 0.0
O37 O 0.53579 0.75497 0.92268 0.0
O38 O 0.51653 0.74002 0.90041 0.0
In39 In 0.50682 0.25337 0.14253 0.0
O40 O 0.49452 0.23527 0.11512 0.0
O41 O 0.50572 0.22157 0.13823 0.0
C42 C 0.51354 0.28437 0.12316 0.0
C43 C 0.47598 0.25375 0.16236 0.0
C44 C 0.54103 0.25513 0.16169 0.0
O45 O 0.51267 0.26797 0.11527 0.0
O46 O 0.51111 0.2852 0.1409 0.0
O47 O 0.52752 0.26124 0.16928 0.0
O48 O 0.53731 0.24828 0.14448 0.0
C49 C 0.49816 0.22007 0.1212 0.0
O50 O 0.4901 0.24677 0.16845 0.0
O51 O 0.47736 0.26041 0.14625 0.0
In52 In 0.03025 0.77875 0.14284 0.0
O53 O 0.01838 0.74829 0.13303 0.0
O54 O 0.04112 0.7611 0.11869 0.0
C55 C 0.03072 0.80978 0.12322 0.0
C56 C 0.99872 0.77455 0.16161 0.0
C57 C 0.0616 0.78277 0.16741 0.0
O58 O 0.02272 0.79382 0.11621 0.0
O59 O 0.03841 0.81009 0.14007 0.0
O60 O 0.04673 0.78859 0.17196 0.0
O61 O 0.06068 0.77507 0.15051 0.0
C62 C 0.02961 0.74653 0.12026 0.0
O63 O 0.01304 0.76734 0.1667 0.0
O64 O 0.00031 0.78389 0.14707 0.0
In65 In 0.51292 0.75681 0.39211 0.0
O66 O 0.5304 0.74944 0.36741 0.0
O67 O 0.54125 0.77326 0.38658 0.0
C68 C 0.48041 0.75092 0.36921 0.0
C69 C 0.51624 0.72706 0.41291 0.0
C70 C 0.51164 0.78834 0.41497 0.0
O71 O 0.49449 0.7623 0.36587 0.0
O72 O 0.4827 0.74229 0.38409 0.0
O73 O 0.52314 0.77717 0.41862 0.0
O74 O 0.5008 0.78356 0.39987 0.0
C75 C 0.5435 0.7629 0.37188 0.0
O76 O 0.50922 0.74107 0.41922 0.0
O77 O 0.52134 0.72794 0.39607 0.0
In78 In 0.52548 0.2746 0.64669 0.0
O79 O 0.53157 0.25569 0.62084 0.0
O80 O 0.51658 0.24291 0.64265 0.0
C81 C 0.52358 0.30422 0.62535 0.0
C82 C 0.49578 0.27242 0.66831 0.0
C83 C 0.55911 0.28038 0.66755 0.0
O84 O 0.51424 0.28824 0.62051 0.0
O85 O 0.53394 0.30523 0.64085 0.0
O86 O 0.54517 0.28754 0.67287 0.0
O87 O 0.55614 0.27056 0.65163 0.0
C88 C 0.52361 0.24074 0.62678 0.0
O89 O 0.51145 0.26827 0.67428 0.0
O90 O 0.49509 0.27767 0.65146 0.0
In91 In 0.01335 0.25865 0.89506 0.0
O92 O 0.02883 0.23664 0.9084 0.0
O93 O 0.00205 0.23983 0.91779 0.0
C94 C 0.01364 0.29153 0.91628 0.0
C95 C 0.04312 0.26088 0.87363 0.0
C96 C 0.98088 0.25272 0.8719 0.0
O97 O 0.01068 0.27592 0.92339 0.0
O98 O 0.01673 0.29048 0.89873 0.0
O99 O 0.98939 0.26879 0.87774 0.0
O100 O 0.98876 0.2394 0.87763 0.0
C101 C 0.01611 0.2313 0.91911 0.0
O102 O 0.02754 0.25104 0.86793 0.0
O103 O 0.04372 0.26933 0.89018 0.0
In104 In 0.3993 0.02745 0.27225 0.0
O105 O 0.42116 0.04173 0.25403 0.0
O106 O 0.40584 0.0153 0.24295 0.0
C107 C 0.42333 0.03403 0.30441 0.0
C108 C 0.37536 0.05184 0.26391 0.0
C109 C 0.38096 0.99338 0.2783 0.0
O110 O 0.428 0.02808 0.28833 0.0
O111 O 0.40647 0.03679 0.30436 0.0
O112 O 0.37536 0.00845 0.28398 0.0
O113 O 0.39584 0.99555 0.26982 0.0
C114 C 0.41844 0.02874 0.24057 0.0
O115 O 0.3728 0.03503 0.25683 0.0
O116 O 0.39002 0.0564 0.27521 0.0
In117 In 0.27051 0.13568 0.50354 0.0
O118 O 0.27251 0.16349 0.52221 0.0
O119 O 0.2693 0.13817 0.53612 0.0
C120 C 0.27388 0.15712 0.47317 0.0
C121 C 0.2995 0.1156 0.5052 0.0
C122 C 0.23676 0.11332 0.50053 0.0
O123 O 0.25876 0.14724 0.4763 0.0
O124 O 0.28745 0.1562 0.48531 0.0
O125 O 0.25171 0.10716 0.49678 0.0
O126 O 0.23888 0.13063 0.50571 0.0
C127 C 0.27101 0.15586 0.53784 0.0
O128 O 0.28685 0.11306 0.49139 0.0
O129 O 0.29759 0.12831 0.51795 0.0
In130 In 0.14827 0.01411 0.7849 0.0
O131 O 0.12226 0.00688 0.76357 0.0
O132 O 0.14842 0.01527 0.75232 0.0
C133 C 0.12724 0.01158 0.81556 0.0
C134 C 0.16816 0.9851 0.78201 0.0
C135 C 0.16668 0.04979 0.79065 0.0
O136 O 0.12134 0.01658 0.7996 0.0
O137 O 0.14379 0.00787 0.81616 0.0
O138 O 0.17283 0.0362 0.798 0.0
O139 O 0.15116 0.04545 0.78076 0.0
C140 C 0.13095 0.01027 0.74888 0.0
O141 O 0.17569 0.00205 0.78329 0.0
O142 O 0.15052 0.98269 0.78223 0.0
In143 In 0.2586 0.89123 0.0168 0.0
O144 O 0.24432 0.86946 0.03503 0.0
O145 O 0.27149 0.88358 0.04538 0.0
C146 C 0.25136 0.86807 0.98409 0.0
C147 C 0.23366 0.9147 0.02477 0.0
C148 C 0.29302 0.90926 0.01148 0.0
O149 O 0.2539 0.86226 0.00051 0.0
O150 O 0.25225 0.88564 0.9841 0.0
O151 O 0.27835 0.9167 0.00898 0.0
O152 O 0.29029 0.89277 0.01657 0.0
C153 C 0.25776 0.87137 0.04797 0.0
O154 O 0.24946 0.91592 0.03411 0.0
O155 O 0.23041 0.90162 0.01142 0.0
In156 In 0.26736 0.38813 0.03575 0.0
O157 O 0.25947 0.3595 0.04754 0.0
O158 O 0.26963 0.38273 0.06771 0.0
C159 C 0.26685 0.36798 0.00141 0.0
C160 C 0.2392 0.4092 0.03192 0.0
C161 C 0.30144 0.40957 0.04297 0.0
O162 O 0.25355 0.36561 0.01218 0.0
O163 O 0.28033 0.38041 0.00799 0.0
O164 O 0.28632 0.41646 0.04231 0.0
O165 O 0.29933 0.39189 0.04039 0.0
C166 C 0.26357 0.36541 0.06499 0.0
O167 O 0.25067 0.4076 0.01938 0.0
O168 O 0.24187 0.40019 0.04642 0.0
In169 In 0.78479 0.13846 0.02351 0.0
O170 O 0.80066 0.12032 0.00431 0.0
O171 O 0.80607 0.12036 0.0346 0.0
C172 C 0.74997 0.11874 0.02246 0.0
C173 C 0.79391 0.15965 0.05733 0.0
C174 C 0.78361 0.16295 0.99613 0.0
O175 O 0.7634 0.11203 0.01533 0.0
O176 O 0.75416 0.13529 0.03021 0.0
O177 O 0.79877 0.16026 0.00491 0.0
O178 O 0.76914 0.15302 0.00087 0.0
C179 C 0.8096 0.11422 0.01809 0.0
O180 O 0.79947 0.16477 0.04159 0.0
O181 O 0.78408 0.14363 0.05612 0.0
In182 In 0.14698 0.50574 0.2687 0.0
O183 O 0.17439 0.49459 0.27652 0.0
O184 O 0.15047 0.47467 0.2669 0.0
C185 C 0.16776 0.54012 0.27106 0.0
C186 C 0.12659 0.50564 0.23482 0.0
C187 C 0.12228 0.50209 0.29587 0.0
O188 O 0.16711 0.52851 0.25653 0.0
O189 O 0.15808 0.53433 0.28432 0.0
O190 O 0.1176 0.49797 0.27818 0.0
O191 O 0.13959 0.50752 0.30001 0.0
C192 C 0.16762 0.47754 0.27284 0.0
O193 O 0.12411 0.51552 0.24981 0.0
O194 O 0.1398 0.49597 0.23671 0.0
In195 In 0.76656 0.89081 0.53551 0.0
O196 O 0.75398 0.86441 0.54903 0.0
O197 O 0.77224 0.8852 0.5671 0.0
C198 C 0.76476 0.86962 0.50155 0.0
C199 C 0.73861 0.9121 0.53345 0.0
C200 C 0.80098 0.91214 0.53974 0.0
O201 O 0.77515 0.86713 0.51616 0.0
O202 O 0.75498 0.88258 0.50412 0.0
O203 O 0.78683 0.91764 0.54661 0.0
O204 O 0.79776 0.896 0.531 0.0
C205 C 0.76201 0.86938 0.56564 0.0
O206 O 0.75291 0.91502 0.5241 0.0
O207 O 0.73838 0.89845 0.54377 0.0
In208 In 0.89427 0.02114 0.25172 0.0
O209 O 0.91984 0.03603 0.23841 0.0
O210 O 0.90127 0.01527 0.22067 0.0
C211 C 0.91239 0.01819 0.28638 0.0
C212 C 0.8756 0.05112 0.25259 0.0
C213 C 0.87281 0.98695 0.24789 0.0
O214 O 0.92044 0.01781 0.27094 0.0
O215 O 0.89532 0.02023 0.28434 0.0
O216 O 0.86591 0.00201 0.2496 0.0
O217 O 0.89044 0.98915 0.24783 0.0
C218 C 0.91605 0.02707 0.22207 0.0
O219 O 0.87162 0.03748 0.23992 0.0
O220 O 0.88909 0.04974 0.26466 0.0
In221 In 0.27994 0.64106 0.5229 0.0
O222 O 0.29779 0.61849 0.53052 0.0
O223 O 0.30317 0.6325 0.50535 0.0
C224 C 0.24758 0.61693 0.5222 0.0
C225 C 0.28596 0.66212 0.55678 0.0
C226 C 0.27731 0.66762 0.49795 0.0
O227 O 0.25757 0.61776 0.50813 0.0
O228 O 0.25405 0.62801 0.53668 0.0
O229 O 0.28907 0.66987 0.51246 0.0
O230 O 0.26705 0.65185 0.49576 0.0
C231 C 0.30729 0.62015 0.5161 0.0
O232 O 0.2706 0.65994 0.54644 0.0
O233 O 0.29839 0.65335 0.5502 0.0
In234 In 0.39129 0.5193 0.75334 0.0
O235 O 0.36346 0.53103 0.7534 0.0
O236 O 0.38849 0.55057 0.75512 0.0
C237 C 0.36849 0.48583 0.74912 0.0
C238 C 0.41386 0.52413 0.72415 0.0
C239 C 0.41184 0.51803 0.78709 0.0
O240 O 0.37049 0.49659 0.76441 0.0
O241 O 0.37794 0.49195 0.73579 0.0
O242 O 0.41072 0.50548 0.77333 0.0
O243 O 0.4028 0.53132 0.78375 0.0
C244 C 0.37082 0.54802 0.75468 0.0
O245 O 0.42014 0.52352 0.74139 0.0
O246 O 0.3962 0.52228 0.72159 0.0
In247 In 0.6465 0.9964 0.76148 0.0
O248 O 0.67554 0.98884 0.77009 0.0
O249 O 0.65323 0.96648 0.76303 0.0
C250 C 0.66494 0.03178 0.76315 0.0
C251 C 0.62651 0.98599 0.7272 0.0
C252 C 0.62152 -0.0001 0.78785 0.0
O253 O 0.661 0.02162 0.74748 0.0
O254 O 0.65972 0.02404 0.77786 0.0
O255 O 0.62099 0.00773 0.77229 0.0
O256 O 0.63469 0.99027 0.79014 0.0
C257 C 0.67036 0.97138 0.76843 0.0
O258 O 0.64298 0.99491 0.72857 0.0
O259 O 0.62038 0.98193 0.74305 0.0
In260 In 0.77027 0.63387 0.00274 0.0
O261 O 0.78494 0.61008 0.01368 0.0
O262 O 0.79961 0.62865 0.9958 0.0
C263 C 0.73624 0.61193 0.99949 0.0
C264 C 0.77178 0.656 0.03607 0.0
C265 C 0.77313 0.65353 0.97118 0.0
O266 O 0.75046 0.60645 0.99276 0.0
O267 O 0.73923 0.62831 0.00773 0.0
O268 O 0.78137 0.65966 0.98744 0.0
O269 O 0.76361 0.63742 0.97078 0.0
C270 C 0.79973 0.61454 0.00544 0.0
O271 O 0.76217 0.65863 0.02096 0.0
O272 O 0.78083 0.64237 0.03434 0.0
In273 In 0.89779 0.52374 0.76894 0.0
O274 O 0.87392 0.53337 0.75071 0.0
O275 O 0.88709 0.55168 0.77454 0.0
C276 C 0.87925 0.48936 0.77371 0.0
C277 C 0.91847 0.52344 0.73835 0.0
C278 C 0.92048 0.53167 0.80197 0.0
O279 O 0.87139 0.50389 0.77453 0.0
O280 O 0.89638 0.49225 0.7707 0.0
O281 O 0.92657 0.52991 0.7856 0.0
O282 O 0.90283 0.52964 0.80178 0.0
C283 C 0.87469 0.54887 0.76052 0.0
O284 O 0.91894 0.53785 0.74984 0.0
O285 O 0.90719 0.50938 0.74199 0.0
In286 In 0.75964 0.38119 0.51787 0.0
O287 O 0.77596 0.36332 0.53653 0.0
O288 O 0.74761 0.36456 0.54188 0.0
C289 C 0.7521 0.35983 0.48414 0.0
C290 C 0.73259 0.40285 0.52364 0.0
C291 C 0.79274 0.40367 0.51707 0.0
O292 O 0.7553 0.35312 0.50003 0.0
O293 O 0.75253 0.37743 0.48522 0.0
O294 O 0.78319 0.40363 0.53147 0.0
O295 O 0.78559 0.3924 0.50293 0.0
C296 C 0.76249 0.35805 0.54631 0.0
O297 O 0.74955 0.40798 0.52961 0.0
O298 O 0.72922 0.38684 0.51455 0.0
In299 In 0.64666 0.51674 0.28689 0.0
O300 O 0.67332 0.50426 0.28155 0.0
O301 O 0.64968 0.4857 0.2884 0.0
C302 C 0.66613 0.55192 0.29155 0.0
C303 C 0.62787 0.51542 0.25167 0.0
C304 C 0.62703 0.51264 0.31838 0.0
O305 O 0.6728 0.53789 0.29731 0.0
O306 O 0.64958 0.54826 0.28372 0.0
O307 O 0.62037 0.50606 0.30168 0.0
O308 O 0.64364 0.5211 0.31926 0.0
C309 C 0.66652 0.48768 0.28421 0.0
O310 O 0.62108 0.5206 0.26696 0.0
O311 O 0.64403 0.51084 0.25417 0.0
Zn312 Zn 0.04698 0.02227 0.031 0.0
Zn313 Zn 0.00652 0.0211 0.01416 0.0
C314 C 0.04438 0.98937 0.0492 0.0
O315 O 0.05278 0.0023 0.06247 0.0
C316 C 0.0102 0.05383 0.99561 0.0
O317 O 0.00266 0.04079 0.98204 0.0
O318 O 0.07489 0.02548 0.03875 0.0
O319 O 0.04449 0.02884 0.00337 0.0
O320 O 0.01985 0.00779 0.994 0.0
C321 C 0.08431 0.0187 0.02597 0.0
O322 O 0.07567 0.01212 0.00913 0.0
O323 O 0.03934 0.99439 0.03274 0.0
C324 C 0.96981 0.02559 0.01957 0.0
O325 O 0.97937 0.03409 0.03528 0.0
O326 O 0.97854 0.01757 0.00696 0.0
O327 O 0.00923 0.01422 0.04159 0.0
O328 O 0.03348 0.03566 0.05104 0.0
O329 O 0.01403 0.049 0.01245 0.0
C330 C 0.03518 0.01733 0.99029 0.0
C331 C 0.01814 0.02604 0.05461 0.0
Zn332 Zn 0.26601 0.77041 0.297 0.0
Zn333 Zn 0.26852 0.76933 0.25553 0.0
C334 C 0.24463 0.73433 0.29671 0.0
O335 O 0.23465 0.74435 0.30719 0.0
C336 C 0.29045 0.80479 0.25717 0.0
O337 O 0.29971 0.79452 0.2461 0.0
O338 O 0.26698 0.77307 0.32591 0.0
O339 O 0.29255 0.77828 0.29053 0.0
O340 O 0.28971 0.75655 0.2664 0.0
C341 C 0.2791 0.76417 0.33367 0.0
O342 O 0.28963 0.75551 0.32251 0.0
O343 O 0.25936 0.74249 0.29023 0.0
C344 C 0.25403 0.77542 0.21892 0.0
O345 O 0.24182 0.78134 0.23006 0.0
O346 O 0.26758 0.76824 0.22655 0.0
O347 O 0.24219 0.76052 0.26203 0.0
O348 O 0.24468 0.78271 0.28561 0.0
O349 O 0.27543 0.79706 0.2635 0.0
C350 C 0.29978 0.76643 0.28022 0.0
C351 C 0.23467 0.77228 0.27214 0.0
Zn352 Zn 0.49915 0.01705 0.52393 0.0
Zn353 Zn 0.53999 0.01183 0.51696 0.0
C354 C 0.50519 0.05076 0.54684 0.0
O355 O 0.49498 0.03934 0.5571 0.0
C356 C 0.53242 0.9777 0.49442 0.0
O357 O 0.54237 0.98857 0.48345 0.0
O358 O 0.47112 0.01764 0.52418 0.0
O359 O 0.50319 0.0094 0.4964 0.0
O360 O 0.53077 0.02662 0.49569 0.0
C361 C 0.46502 0.02723 0.51114 0.0
O362 O 0.47676 0.03435 0.49915 0.0
O363 O 0.51006 0.04425 0.53086 0.0
C364 C 0.57351 0.99971 0.5286 0.0
O365 O 0.56138 0.99141 0.53956 0.0
O366 O 0.56787 0.01074 0.51676 0.0
O367 O 0.5359 0.02017 0.54416 0.0
O368 O 0.50895 0.00193 0.54477 0.0
O369 O 0.52847 0.98471 0.51059 0.0
C370 C 0.5149 0.01941 0.48727 0.0
C371 C 0.52492 0.0091 0.55302 0.0
Zn372 Zn 0.28836 0.26321 0.76541 0.0
Zn373 Zn 0.24829 0.27107 0.76972 0.0
C374 C 0.28308 0.23994 0.73115 0.0
O375 O 0.29052 0.2296 0.74348 0.0
C376 C 0.25502 0.29357 0.80461 0.0
O377 O 0.24756 0.30457 0.79302 0.0
O378 O 0.31606 0.26159 0.76633 0.0
O379 O 0.28673 0.29049 0.77244 0.0
O380 O 0.26079 0.29116 0.7542 0.0
C381 C 0.32521 0.27379 0.75699 0.0
O382 O 0.31629 0.28625 0.74896 0.0
O383 O 0.27982 0.25611 0.73722 0.0
C384 C 0.21212 0.26007 0.7797 0.0
O385 O 0.22158 0.24756 0.78685 0.0
O386 O 0.22061 0.27261 0.77025 0.0
O387 O 0.24985 0.24397 0.76186 0.0
O388 O 0.27529 0.24335 0.78085 0.0
O389 O 0.25778 0.27748 0.79775 0.0
C390 C 0.27674 0.2993 0.76164 0.0
C391 C 0.25951 0.23518 0.77302 0.0
Zn392 Zn 0.02374 0.99115 0.52142 0.0
Zn393 Zn 0.01424 0.03066 0.51338 0.0
C394 C 0.0487 0.99928 0.55435 0.0
O395 O 0.05883 0.99189 0.54178 0.0
C396 C 0.99015 0.02057 0.47982 0.0
O397 O 0.97945 0.02859 0.49132 0.0
O398 O 0.0254 0.96354 0.52247 0.0
O399 O 0.99614 0.99209 0.51527 0.0
O400 O 0.99513 0.01951 0.53069 0.0
C401 C 0.01455 0.95608 0.53427 0.0
O402 O 0.00377 0.96651 0.54314 0.0
O403 O 0.03201 0.00149 0.54891 0.0
C404 C 0.02297 0.06503 0.49863 0.0
O405 O 0.03346 0.05426 0.48977 0.0
O406 O 0.01245 0.05805 0.51095 0.0
O407 O 0.04163 0.03015 0.52045 0.0
O408 O 0.04288 0.00308 0.50445 0.0
O409 O 0.0067 0.01884 0.48626 0.0
C410 C 0.98732 0.00288 0.52515 0.0
C411 C 0.05062 0.01962 0.51048 0.0
Zn412 Zn 0.26721 0.78768 0.76485 0.0
Zn413 Zn 0.27188 0.74714 0.77279 0.0
C414 C 0.23285 0.77917 0.74231 0.0
O415 O 0.24357 0.78833 0.73062 0.0
C416 C 0.30578 0.75309 0.7953 0.0
O417 O 0.29435 0.74309 0.80574 0.0
O418 O 0.26604 0.81531 0.76224 0.0
O419 O 0.2749 0.78461 0.79261 0.0
O420 O 0.25738 0.75724 0.79386 0.0
C421 C 0.26875 0.82752 0.77664 0.0
O422 O 0.27489 0.82269 0.79345 0.0
O423 O 0.24005 0.77621 0.75878 0.0
C424 C 0.28265 0.71316 0.76102 0.0
O425 O 0.29049 0.72497 0.74948 0.0
O426 O 0.27232 0.71917 0.77338 0.0
O427 O 0.26372 0.75071 0.74539 0.0
O428 O 0.28234 0.77733 0.74438 0.0
O429 O 0.29921 0.75792 0.77932 0.0
C430 C 0.26489 0.77314 0.80201 0.0
C431 C 0.27473 0.76147 0.73627 0.0
Zn432 Zn 0.51961 0.019 0.98954 0.0
Zn433 Zn 0.51947 0.01539 0.03145 0.0
C434 C 0.55547 0.04077 0.99019 0.0
O435 O 0.54526 0.05074 0.97991 0.0
C436 C 0.48393 0.99355 0.02858 0.0
O437 O 0.49401 0.98382 0.03932 0.0
O438 O 0.51687 0.01967 0.96067 0.0
O439 O 0.51198 0.99219 0.99542 0.0
O440 O 0.53222 0.99415 0.02083 0.0
C441 C 0.51898 0.00514 0.95011 0.0
O442 O 0.52127 0.98971 0.95827 0.0
O443 O 0.5475 0.02582 0.99644 0.0
C444 C 0.51151 0.02933 0.0674 0.0
O445 O 0.50499 0.04075 0.05569 0.0
O446 O 0.51974 0.01624 0.06043 0.0
O447 O 0.52883 0.04175 0.02542 0.0
O448 O 0.50689 0.03961 0.00169 0.0
O449 O 0.49186 0.00873 0.02277 0.0
C450 C 0.52302 0.98453 0.0063 0.0
C451 C 0.51696 0.04935 0.01558 0.0
Zn452 Zn 0.26474 0.23665 0.25751 0.0
Zn453 Zn 0.26091 0.27665 0.27459 0.0
C454 C 0.29698 0.24118 0.23845 0.0
O455 O 0.2839 0.23254 0.22546 0.0
C456 C 0.21937 0.26639 0.26537 0.0
O457 O 0.2211 0.27521 0.24966 0.0
O458 O 0.26273 0.20879 0.25021 0.0
O459 O 0.25833 0.23871 0.28533 0.0
O460 O 0.27591 0.26558 0.29524 0.0
C461 C 0.27131 0.20039 0.26271 0.0
O462 O 0.27916 0.21004 0.27864 0.0
O463 O 0.29234 0.24554 0.25526 0.0
C464 C 0.25508 0.31367 0.2683 0.0
O465 O 0.25136 0.30525 0.25086 0.0
O466 O 0.26052 0.30433 0.28187 0.0
O467 O 0.26926 0.27498 0.24762 0.0
O468 O 0.25054 0.24906 0.23705 0.0
O469 O 0.23395 0.26488 0.27617 0.0
C470 C 0.26849 0.24923 0.29865 0.0
C471 C 0.25917 0.26502 0.23391 0.0
Zn472 Zn 0.52315 0.49171 0.02322 0.0
Zn473 Zn 0.51338 0.53076 0.01488 0.0
C474 C 0.54745 0.5003 0.05662 0.0
O475 O 0.5576 0.49204 0.04469 0.0
C476 C 0.48929 0.52109 0.98129 0.0
O477 O 0.47868 0.52909 0.99291 0.0
O478 O 0.52551 0.46437 0.02484 0.0
O479 O 0.4955 0.49195 0.01691 0.0
O480 O 0.49425 0.51941 0.03211 0.0
C481 C 0.5149 0.45655 0.03663 0.0
O482 O 0.50373 0.46649 0.04554 0.0
O483 O 0.53106 0.50288 0.05051 0.0
C484 C 0.52125 0.56492 -0.00035 0.0
O485 O 0.53122 0.554 0.99025 0.0
O486 O 0.51144 0.55815 0.01262 0.0
O487 O 0.54091 0.53052 0.02176 0.0
O488 O 0.54206 0.50337 0.00594 0.0
O489 O 0.50576 0.51908 0.98771 0.0
C490 C 0.48659 0.5027 0.0267 0.0
C491 C 0.54987 0.51989 0.01188 0.0
Zn492 Zn 0.7667 0.28924 0.2605 0.0
Zn493 Zn 0.77347 0.24926 0.26821 0.0
C494 C 0.73265 0.28181 0.23787 0.0
O495 O 0.7435 0.2922 0.22723 0.0
C496 C 0.80724 0.25752 0.29079 0.0
O497 O 0.79647 0.24662 0.30105 0.0
O498 O 0.76525 0.31699 0.25969 0.0
O499 O 0.77459 0.28591 0.2882 0.0
O500 O 0.75832 0.25791 0.28936 0.0
C501 C 0.75533 0.32295 0.27248 0.0
O502 O 0.74839 0.31127 0.28462 0.0
O503 O 0.73967 0.27748 0.25389 0.0
C504 C 0.78633 0.21637 0.25604 0.0
O505 O 0.79354 0.22862 0.24459 0.0
O506 O 0.77573 0.22164 0.26853 0.0
O507 O 0.76442 0.25265 0.24106 0.0
O508 O 0.78201 0.27977 0.23961 0.0
O509 O 0.80031 0.26183 0.27472 0.0
C510 C 0.76505 0.27402 0.29755 0.0
C511 C 0.77497 0.26363 0.23171 0.0
Zn512 Zn 0.01866 0.51384 0.49785 0.0
Zn513 Zn 0.02112 0.5075 0.53906 0.0
C514 C 0.05386 0.53685 0.50027 0.0
O515 O 0.04303 0.54781 0.49227 0.0
C516 C 0.98602 0.48422 0.53721 0.0
O517 O 0.99698 0.47334 0.54512 0.0
O518 O 0.01599 0.51458 0.469 0.0
O519 O 0.01102 0.48671 0.50236 0.0
O520 O 0.03407 0.48825 0.52486 0.0
C521 C 0.02466 0.50252 0.46074 0.0
O522 O 0.03332 0.49162 0.47142 0.0
O523 O 0.04653 0.5208 0.50457 0.0
C524 C 0.03071 0.51802 0.58006 0.0
O525 O 0.03854 0.53403 0.57441 0.0
O526 O 0.02409 0.50465 0.56749 0.0
O527 O 0.02744 0.535 0.53538 0.0
O528 O 0.00603 0.5339 0.51112 0.0
O529 O 0.99323 0.50028 0.5328 0.0
C530 C 0.02368 0.47901 0.51088 0.0
C531 C 0.01559 0.5429 0.52579 0.0
Zn532 Zn 0.79016 0.76213 0.26158 0.0
Zn533 Zn 0.75179 0.77352 0.27217 0.0
C534 C 0.77824 0.73862 0.22789 0.0
O535 O 0.78514 0.72713 0.23929 0.0
C536 C 0.76305 0.79612 0.30664 0.0
O537 O 0.75659 0.80809 0.29552 0.0
O538 O 0.81707 0.75871 0.25847 0.0
O539 O 0.79147 0.78974 0.26915 0.0
O540 O 0.76375 0.79311 0.25583 0.0
C541 C 0.82413 0.76892 0.24594 0.0
O542 O 0.81378 0.78013 0.23764 0.0
O543 O 0.77784 0.75545 0.23447 0.0
C544 C 0.71693 0.76546 0.28611 0.0
O545 O 0.72657 0.75321 0.29357 0.0
O546 O 0.72479 0.77671 0.27492 0.0
O547 O 0.75101 0.74607 0.264 0.0
O548 O 0.77824 0.74331 0.2788 0.0
O549 O 0.76349 0.77948 0.29954 0.0
C550 C 0.7808 0.79981 0.26086 0.0
C551 C 0.76131 0.73642 0.27343 0.0
Zn552 Zn 0.76141 0.26247 0.79731 0.0
Zn553 Zn 0.77042 0.26305 0.75672 0.0
C554 C 0.73774 0.22731 0.79264 0.0
O555 O 0.72701 0.23745 0.80196 0.0
C556 C 0.79482 0.29718 0.76128 0.0
O557 O 0.80511 0.28585 0.75295 0.0
O558 O 0.75796 0.26384 0.82563 0.0
O559 O 0.78926 0.26853 0.79529 0.0
O560 O 0.78882 0.24859 0.76993 0.0
C561 C 0.76999 0.27326 0.83815 0.0
O562 O 0.78412 0.28443 0.8324 0.0
O563 O 0.75374 0.23507 0.78862 0.0
C564 C 0.76205 0.27092 0.71924 0.0
O565 O 0.75042 0.27948 0.72904 0.0
O566 O 0.77311 0.26165 0.72819 0.0
O567 O 0.74281 0.25603 0.75913 0.0
O568 O 0.74314 0.27691 0.78359 0.0
O569 O 0.77838 0.29054 0.76515 0.0
C570 C 0.7973 0.25702 0.78542 0.0
C571 C 0.73471 0.26794 0.76833 0.0
Zn572 Zn 0.7687 0.7381 0.75604 0.0
Zn573 Zn 0.7669 0.77764 0.77536 0.0
C574 C 0.80189 0.74624 0.73844 0.0
O575 O 0.78969 0.73886 0.72405 0.0
C576 C 0.73509 0.77236 0.79511 0.0
O577 O 0.74862 0.77956 0.80832 0.0
O578 O 0.76763 0.71065 0.74718 0.0
O579 O 0.76142 0.73862 0.78344 0.0
O580 O 0.78107 0.76385 0.79445 0.0
C581 C 0.77571 0.70167 0.75952 0.0
O582 O 0.78267 0.71054 0.77615 0.0
O583 O 0.79626 0.74812 0.75523 0.0
C584 C 0.76022 0.8136 0.77162 0.0
O585 O 0.75069 0.80354 0.75671 0.0
O586 O 0.76983 0.80543 0.78348 0.0
O587 O 0.77323 0.77676 0.74764 0.0
O588 O 0.75417 0.7512 0.73655 0.0
O589 O 0.73922 0.76928 0.77785 0.0
C590 C 0.77227 0.74781 0.79712 0.0
C591 C 0.76234 0.76752 0.73403 0.0
Zn592 Zn 0.54232 0.51305 0.53431 0.0
Zn593 Zn 0.50567 0.52271 0.51412 0.0
C594 C 0.52779 0.48149 0.55188 0.0
O595 O 0.53611 0.49304 0.56639 0.0
C596 C 0.51824 0.55409 0.49509 0.0
O597 O 0.51084 0.54167 0.48091 0.0
O598 O 0.5686 0.50881 0.54282 0.0
O599 O 0.5444 0.5203 0.50717 0.0
O600 O 0.51681 0.5057 0.49514 0.0
C601 C 0.57306 0.4953 0.53224 0.0
O602 O 0.56104 0.48728 0.51797 0.0
O603 O 0.52743 0.48714 0.53503 0.0
C604 C 0.47283 0.53689 0.51638 0.0
O605 O 0.48419 0.54565 0.53082 0.0
O606 O 0.47881 0.52461 0.50539 0.0
O607 O 0.50426 0.51676 0.54184 0.0
O608 O 0.53231 0.53035 0.55379 0.0
O609 O 0.51864 0.54922 0.51225 0.0
C610 C 0.53397 0.51141 0.49304 0.0
C611 C 0.51498 0.52555 0.55584 0.0
Zn612 Zn 0.00446 0.5231 0.02227 0.0
Zn613 Zn 0.04364 0.51463 0.01247 0.0
C614 C 0.01471 0.55768 0.04354 0.0
O615 O 0.00583 0.54739 0.05576 0.0
C616 C 0.03217 0.47991 0.99196 0.0
O617 O 0.04166 0.48953 0.97965 0.0
O618 O 0.97698 0.52505 0.0247 0.0
O619 O 0.00589 0.51372 0.99462 0.0
O620 O 0.03385 0.52913 0.99126 0.0
C621 C 0.97076 0.53566 0.01274 0.0
O622 O 0.98207 0.54292 0.00043 0.0
O623 O 0.01682 0.55012 0.02697 0.0
C624 C 0.07683 0.50138 0.02284 0.0
O625 O 0.06543 0.49512 0.03553 0.0
O626 O 0.07085 0.51144 0.01018 0.0
O627 O 0.04258 0.52488 0.0397 0.0
O628 O 0.01501 0.50904 0.04364 0.0
O629 O 0.03016 0.48801 0.0083 0.0
C630 C 0.01727 0.52257 0.98422 0.0
C631 C 0.03161 0.51592 0.05038 0.0
H632 H 0.99233 0.21974 0.94597 0.0
H633 H 0.99299 0.19256 0.96489 0.0
H634 H 0.04253 0.18012 0.93856 0.0
H635 H 0.04227 0.20756 0.92011 0.0
H636 H 0.98858 0.1573 0.95106 0.0
H637 H 0.0573 0.17287 0.99369 0.0
H638 H 0.04703 0.19054 0.98132 0.0
H639 H 0.05989 0.17469 0.96852 0.0
C640 C 0.00353 0.21137 0.94447 0.0
C641 C 0.01724 0.21575 0.93156 0.0
C642 C 0.00392 0.19587 0.9553 0.0
C643 C 0.01798 0.18444 0.9534 0.0
C644 C 0.03186 0.189 0.94073 0.0
H645 H 0.0093 0.06696 0.96017 0.0
H646 H 0.01147 0.09946 0.9523 0.0
C647 C 0.03158 0.2046 0.93003 0.0
C648 C 0.01703 0.16671 0.96304 0.0
H649 H 0.04335 0.14014 0.98925 0.0
C650 C 0.00048 0.15372 0.95967 0.0
C651 C 0.03241 0.16206 0.97454 0.0
C652 C 0.05007 0.17588 0.97991 0.0
C653 C 0.99922 0.13591 0.96663 0.0
C654 C 0.01509 0.13075 0.97684 0.0
C655 C 0.03131 0.14403 0.98114 0.0
C656 C 0.01535 0.11124 0.98197 0.0
C657 C 0.98094 0.12267 0.96275 0.0
C658 C 0.0177 0.10714 0.00128 0.0
C659 C 0.01663 0.08845 0.00587 0.0
C660 C 0.01319 0.07369 0.99117 0.0
C661 C 0.01167 0.07798 0.97186 0.0
C662 C 0.01284 0.09656 0.96731 0.0
H663 H 0.96887 0.13043 0.9603 0.0
H664 H 0.98155 0.11331 0.94955 0.0
H665 H 0.97835 0.11381 0.97491 0.0
H666 H 0.01983 0.11833 0.01279 0.0
H667 H 0.01792 0.08556 0.02088 0.0
H668 H 0.09537 0.77257 0.15992 0.0
H669 H 0.1233 0.77425 0.18237 0.0
H670 H 0.09441 0.79842 0.22767 0.0
H671 H 0.06628 0.79672 0.20525 0.0
H672 H 0.14426 0.80683 0.20488 0.0
H673 H 0.11325 0.75144 0.24962 0.0
H674 H 0.10314 0.75427 0.22577 0.0
H675 H 0.10028 0.77052 0.24564 0.0
C676 C 0.09496 0.77829 0.17464 0.0
C677 C 0.07863 0.78444 0.18087 0.0
C678 C 0.11093 0.77927 0.18743 0.0
C679 C 0.11083 0.78631 0.20668 0.0
C680 C 0.09466 0.79275 0.2129 0.0
H681 H 0.21694 0.80247 0.28157 0.0
H682 H 0.18571 0.80774 0.26864 0.0
C683 C 0.07866 0.79183 0.20008 0.0
C684 C 0.12768 0.78653 0.22014 0.0
H685 H 0.14498 0.76412 0.25741 0.0
C686 C 0.14439 0.79774 0.21658 0.0
C687 C 0.12774 0.77453 0.23527 0.0
C688 C 0.11022 0.76188 0.23934 0.0
C689 C 0.16135 0.79683 0.22739 0.0
C690 C 0.1615 0.78449 0.2422 0.0
C691 C 0.14469 0.77371 0.24616 0.0
C692 C 0.17933 0.78085 0.25193 0.0
C693 C 0.17919 0.8083 0.22228 0.0
C694 C 0.18573 0.76381 0.24722 0.0
C695 C 0.20345 0.76081 0.25446 0.0
C696 C 0.21508 0.77475 0.26669 0.0
C697 C 0.20828 0.79148 0.2722 0.0
C698 C 0.19051 0.79454 0.26478 0.0
H699 H 0.17694 0.81572 0.2091 0.0
H700 H 0.1847 0.81892 0.2344 0.0
H701 H 0.19008 0.79914 0.21996 0.0
H702 H 0.17726 0.75309 0.23733 0.0
H703 H 0.20825 0.74772 0.25006 0.0
H704 H 0.53215 0.80074 0.4491 0.0
H705 H 0.53315 0.83105 0.46765 0.0
H706 H 0.4922 0.84637 0.42586 0.0
H707 H 0.49078 0.81599 0.40759 0.0
H708 H 0.54452 0.86451 0.45564 0.0
H709 H 0.47159 0.86278 0.4753 0.0
H710 H 0.48056 0.84196 0.46647 0.0
H711 H 0.4723 0.85756 0.44988 0.0
C712 C 0.52315 0.81047 0.44406 0.0
C713 C 0.51139 0.80602 0.42691 0.0
C714 C 0.52372 0.82776 0.45467 0.0
C715 C 0.51253 0.84087 0.44833 0.0
C716 C 0.50057 0.8363 0.43135 0.0
H717 H 0.53589 0.95981 0.45952 0.0
H718 H 0.5305 0.92613 0.45043 0.0
C719 C 0.4999 0.81899 0.42081 0.0
C720 C 0.5147 0.86 0.45829 0.0
H721 H 0.49003 0.89357 0.47587 0.0
C722 C 0.53264 0.87074 0.46034 0.0
C723 C 0.49926 0.86809 0.4647 0.0
C724 C 0.47989 0.85691 0.46417 0.0
C725 C 0.5354 0.88959 0.4677 0.0
C726 C 0.51974 0.89806 0.47273 0.0
C727 C 0.50196 0.88711 0.47169 0.0
C728 C 0.52154 0.91848 0.47806 0.0
C729 C 0.55506 0.90035 0.46978 0.0
C730 C 0.51746 0.92538 0.49636 0.0
C731 C 0.5204 0.94473 0.5016 0.0
C732 C 0.52742 0.95741 0.48856 0.0
C733 C 0.5307 0.95042 0.46999 0.0
C734 C 0.5277 0.93117 0.46478 0.0
H735 H 0.56578 0.89079 0.47091 0.0
H736 H 0.55738 0.90819 0.45686 0.0
H737 H 0.55722 0.91059 0.48269 0.0
H738 H 0.51253 0.91578 0.50675 0.0
H739 H 0.5177 0.94971 0.516 0.0
H740 H 0.4606 0.2796 0.65782 0.0
H741 H 0.43363 0.27769 0.67723 0.0
H742 H 0.46705 0.26032 0.72453 0.0
H743 H 0.4942 0.2623 0.70521 0.0
H744 H 0.41634 0.24562 0.6948 0.0
H745 H 0.44465 0.30596 0.74815 0.0
H746 H 0.45429 0.3024 0.72525 0.0
H747 H 0.45934 0.28812 0.74439 0.0
C748 C 0.46223 0.2754 0.67236 0.0
C749 C 0.47951 0.27117 0.68004 0.0
C750 C 0.44681 0.27428 0.68341 0.0
C751 C 0.44843 0.26903 0.70234 0.0
C752 C 0.46562 0.26464 0.71003 0.0
H753 H 0.34584 0.24528 0.76311 0.0
H754 H 0.37722 0.24277 0.75273 0.0
C755 C 0.48106 0.26572 0.69896 0.0
C756 C 0.43198 0.26813 0.71387 0.0
H757 H 0.41434 0.29038 0.75176 0.0
C758 C 0.41593 0.25523 0.70741 0.0
C759 C 0.43156 0.28077 0.73023 0.0
C760 C 0.4483 0.29521 0.73743 0.0
C761 C 0.39925 0.25498 0.71655 0.0
C762 C 0.39871 0.26785 0.73271 0.0
C763 C 0.41491 0.28042 0.73949 0.0
C764 C 0.38088 0.26995 0.74122 0.0
C765 C 0.38205 0.2416 0.70831 0.0
C766 C 0.37295 0.28633 0.73881 0.0
C767 C 0.35515 0.28781 0.7447 0.0
C768 C 0.34496 0.27296 0.75322 0.0
C769 C 0.35334 0.25694 0.75656 0.0
C770 C 0.37119 0.25543 0.75055 0.0
H771 H 0.38409 0.2346 0.69407 0.0
H772 H 0.37879 0.23058 0.71835 0.0
H773 H 0.36972 0.24912 0.70665 0.0
H774 H 0.38024 0.2977 0.73168 0.0
H775 H 0.34916 0.30041 0.74206 0.0
H776 H 0.99084 0.81245 0.62373 0.0
H777 H 0.99377 0.84016 0.60544 0.0
H778 H 0.03611 0.81854 0.57354 0.0
H779 H 0.03315 0.79059 0.59172 0.0
H780 H 0.0275 0.8656 0.60442 0.0
H781 H 0.99909 0.83372 0.53121 0.0
H782 H 0.99471 0.82193 0.55274 0.0
H783 H 0.01723 0.82306 0.54326 0.0
C784 C 0.00065 0.81348 0.6127 0.0
C785 C 0.01176 0.79935 0.60915 0.0
C786 C 0.00231 0.82932 0.60228 0.0
C787 C 0.01503 0.8313 0.58804 0.0
C788 C 0.026 0.81712 0.58426 0.0
H789 H 0.03857 0.93159 0.52333 0.0
H790 H 0.04044 0.90047 0.53489 0.0
C791 C 0.02435 0.80123 0.59471 0.0
C792 C 0.01737 0.84875 0.57801 0.0
H793 H 0.00917 0.86643 0.53459 0.0
C794 C 0.02365 0.86576 0.58912 0.0
C795 C 0.01248 0.84887 0.55802 0.0
C796 C 0.00538 0.83097 0.54554 0.0
C797 C 0.02466 0.88296 0.5809 0.0
C798 C 0.01903 0.88316 0.56111 0.0
C799 C 0.01348 0.86615 0.54977 0.0
C800 C 0.01713 0.90101 0.5526 0.0
C801 C 0.03138 0.90087 0.59353 0.0
C802 C 0.00312 0.91123 0.55836 0.0
C803 C 0.002 0.92884 0.55184 0.0
C804 C 0.01488 0.9366 0.53937 0.0
C805 C 0.02848 0.92599 0.53296 0.0
C806 C 0.02957 0.90826 0.53953 0.0
H807 H 0.0394 0.89823 0.60701 0.0
H808 H 0.04039 0.91104 0.58572 0.0
H809 H 0.01906 0.90742 0.59756 0.0
H810 H 0.99327 0.90573 0.56828 0.0
H811 H 0.99124 0.93653 0.55693 0.0
H812 H 0.48397 0.75448 0.83952 0.0
H813 H 0.45339 0.75404 0.82163 0.0
H814 H 0.43414 0.78319 0.87077 0.0
H815 H 0.4647 0.78394 0.88858 0.0
H816 H 0.41928 0.73744 0.83088 0.0
H817 H 0.41874 0.81364 0.82713 0.0
H818 H 0.43988 0.80398 0.83346 0.0
H819 H 0.42371 0.8077 0.8513 0.0
C820 C 0.47325 0.76092 0.84644 0.0
C821 C 0.47672 0.76927 0.86543 0.0
C822 C 0.45582 0.76068 0.8362 0.0
C823 C 0.44161 0.76889 0.84474 0.0
C824 C 0.44506 0.77721 0.86371 0.0
H825 H 0.32318 0.74422 0.82853 0.0
H826 H 0.35672 0.7486 0.83817 0.0
C827 C 0.46247 0.77748 0.87394 0.0
C828 C 0.42275 0.76766 0.83438 0.0
H829 H 0.38873 0.79385 0.82148 0.0
C830 C 0.41271 0.74979 0.82857 0.0
C831 C 0.41428 0.78378 0.83109 0.0
C832 C 0.42479 0.80336 0.83589 0.0
C833 C 0.39408 0.74758 0.82051 0.0
C834 C 0.38521 0.76365 0.81848 0.0
C835 C 0.39553 0.78156 0.8233 0.0
C836 C 0.36488 0.76195 0.8127 0.0
C837 C 0.38393 0.72804 0.81454 0.0
C838 C 0.35832 0.76861 0.79546 0.0
C839 C 0.33903 0.76616 0.78987 0.0
C840 C 0.32607 0.75714 0.80155 0.0
C841 C 0.33275 0.7511 0.81911 0.0
C842 C 0.35194 0.7535 0.82463 0.0
H843 H 0.39391 0.71794 0.81194 0.0
H844 H 0.37531 0.72315 0.82623 0.0
H845 H 0.37441 0.72786 0.80126 0.0
H846 H 0.36813 0.77532 0.78615 0.0
H847 H 0.33431 0.77101 0.77628 0.0
H848 H 0.50604 0.18596 0.1309 0.0
H849 H 0.50509 0.1575 0.10935 0.0
H850 H 0.48327 0.18543 0.06198 0.0
H851 H 0.48434 0.21405 0.08342 0.0
H852 H 0.47541 0.13504 0.08485 0.0
H853 H 0.53254 0.16929 0.04421 0.0
H854 H 0.52714 0.17924 0.06725 0.0
H855 H 0.5123 0.18102 0.04588 0.0
C856 C 0.50083 0.18598 0.11595 0.0
C857 C 0.49542 0.20227 0.1088 0.0
C858 C 0.50027 0.16972 0.10367 0.0
C859 C 0.49437 0.16949 0.08404 0.0
C860 C 0.48813 0.18544 0.07703 0.0
H861 H 0.48606 0.0661 0.00634 0.0
H862 H 0.47892 0.09606 0.02076 0.0
C863 C 0.48867 0.20173 0.08931 0.0
C864 C 0.4958 0.15285 0.07085 0.0
H865 H 0.52097 0.13757 0.03487 0.0
C866 C 0.48516 0.1356 0.07374 0.0
C867 C 0.50871 0.15367 0.05652 0.0
C868 C 0.52096 0.17174 0.05328 0.0
C869 C 0.48739 0.11903 0.0629 0.0
C870 C 0.50047 0.11983 0.04877 0.0
C871 C 0.5108 0.13713 0.04559 0.0
C872 C 0.5051 0.10259 0.0387 0.0
C873 C 0.47641 0.10062 0.06719 0.0
C874 C 0.52237 0.09674 0.04366 0.0
C875 C 0.52646 0.07974 0.03554 0.0
C876 C 0.5134 0.06833 0.02217 0.0
C877 C 0.49641 0.07462 0.01656 0.0
C878 C 0.49226 0.09163 0.02485 0.0
H879 H 0.46834 0.10215 0.08002 0.0
H880 H 0.4664 0.09499 0.0546 0.0
H881 H 0.48603 0.09016 0.06967 0.0
H882 H 0.53246 0.10507 0.0543 0.0
H883 H 0.5397 0.07532 0.04009 0.0
H884 H 0.0546 0.26358 0.32887 0.0
H885 H 0.08015 0.26035 0.30817 0.0
H886 H 0.11692 0.25392 0.35799 0.0
H887 H 0.0915 0.2572 0.37879 0.0
H888 H 0.11639 0.28441 0.31256 0.0
H889 H 0.12253 0.2092 0.31831 0.0
H890 H 0.10167 0.21902 0.32376 0.0
H891 H 0.12196 0.22278 0.34084 0.0
C892 C 0.06809 0.26134 0.33539 0.0
C893 C 0.07107 0.26064 0.35545 0.0
C894 C 0.08264 0.25949 0.32355 0.0
C895 C 0.10031 0.25665 0.33154 0.0
C896 C 0.10327 0.25578 0.35152 0.0
H897 H 0.21142 0.25284 0.29984 0.0
H898 H 0.1812 0.24905 0.31361 0.0
C899 C 0.08878 0.25777 0.36339 0.0
C900 C 0.11603 0.25575 0.31918 0.0
H901 H 0.14731 0.22757 0.30444 0.0
C902 C 0.12304 0.27193 0.31054 0.0
C903 C 0.12464 0.23945 0.31669 0.0
C904 C 0.11726 0.22154 0.32524 0.0
C905 C 0.13901 0.27255 0.30015 0.0
C906 C 0.14786 0.25633 0.29788 0.0
C907 C 0.14049 0.23996 0.30611 0.0
C908 C 0.16563 0.25656 0.28838 0.0
C909 C 0.14678 0.29088 0.29256 0.0
C910 C 0.16682 0.26133 0.26931 0.0
C911 C 0.18419 0.26372 0.26141 0.0
C912 C 0.20061 0.26112 0.27238 0.0
C913 C 0.1991 0.25509 0.29101 0.0
C914 C 0.1818 0.25289 0.29892 0.0
H915 H 0.14106 0.30296 0.29948 0.0
H916 H 0.16233 0.2936 0.29498 0.0
H917 H 0.14288 0.29018 0.27682 0.0
H918 H 0.15442 0.26372 0.26071 0.0
H919 H 0.18483 0.26817 0.24695 0.0
H920 H 0.91024 0.0094 0.18584 0.0
H921 H 0.93038 0.01339 0.15933 0.0
H922 H 0.96907 0.05509 0.19511 0.0
H923 H 0.94903 0.05104 0.22187 0.0
H924 H 0.94188 0.04655 0.14137 0.0
H925 H 0.00275 0.0176 0.17496 0.0
H926 H 0.9798 0.01397 0.18394 0.0
H927 H 0.99452 0.03629 0.18881 0.0
C928 C 0.92304 0.01941 0.1881 0.0
C929 C 0.92809 0.02986 0.20596 0.0
C930 C 0.93452 0.02169 0.17293 0.0
C931 C 0.95132 0.03437 0.17533 0.0
C932 C 0.95632 0.045 0.19306 0.0
H933 H 0.03207 0.05054 0.08625 0.0
H934 H 0.01722 0.05517 0.11653 0.0
C935 C 0.94481 0.04274 0.20828 0.0
C936 C 0.96335 0.03642 0.15905 0.0
H937 H 0.00515 0.02709 0.14356 0.0
C938 C 0.95579 0.04248 0.14191 0.0
C939 C 0.98155 0.03124 0.15985 0.0
C940 C 0.99018 0.02428 0.1778 0.0
C941 C 0.9657 0.04293 0.12536 0.0
C942 C 0.98351 0.03692 0.12589 0.0
C943 C 0.99148 0.03169 0.14325 0.0
C944 C 0.99303 0.03407 0.10806 0.0
C945 C 0.95685 0.04948 0.10729 0.0
C946 C 0.98456 0.02041 0.09358 0.0
C947 C 0.99296 0.01768 0.07647 0.0
C948 C 0.01009 0.02857 0.0734 0.0
C949 C 0.01885 0.04199 0.08813 0.0
C950 C 0.0104 0.04466 0.1054 0.0
H951 H 0.94607 0.05851 0.11062 0.0
H952 H 0.96761 0.05742 0.09922 0.0
H953 H 0.94986 0.03708 0.09779 0.0
H954 H 0.97133 0.01185 0.0955 0.0
H955 H 0.98584 0.00713 0.06554 0.0
H956 H 0.29072 0.70493 0.50445 0.0
H957 H 0.28876 0.72921 0.48197 0.0
H958 H 0.25944 0.68738 0.43869 0.0
H959 H 0.26054 0.66335 0.4614 0.0
H960 H 0.30392 0.73311 0.4504 0.0
H961 H 0.22784 0.72731 0.43228 0.0
H962 H 0.23743 0.71618 0.45229 0.0
H963 H 0.23459 0.70454 0.42825 0.0
C964 C 0.28364 0.70102 0.4902 0.0
C965 C 0.27574 0.68231 0.48462 0.0
C966 C 0.28248 0.71489 0.4774 0.0
C967 C 0.27358 0.71024 0.45876 0.0
C968 C 0.26575 0.6915 0.45321 0.0
H969 H 0.30157 0.74348 0.35307 0.0
H970 H 0.30058 0.73556 0.38616 0.0
C971 C 0.26658 0.6777 0.46611 0.0
C972 C 0.27406 0.72446 0.44443 0.0
H973 H 0.24766 0.73813 0.407 0.0
C974 C 0.29151 0.73455 0.44122 0.0
C975 C 0.25785 0.72695 0.4328 0.0
C976 C 0.23837 0.71831 0.43678 0.0
C977 C 0.29343 0.74565 0.42563 0.0
C978 C 0.27763 0.74609 0.41253 0.0
C979 C 0.25989 0.73747 0.41677 0.0
C980 C 0.27957 0.753 0.3932 0.0
C981 C 0.3125 0.75633 0.4231 0.0
C982 C 0.26782 0.76523 0.3859 0.0
C983 C 0.26808 0.76952 0.36668 0.0
C984 C 0.28006 0.7616 0.35449 0.0
C985 C 0.29222 0.7499 0.36206 0.0
C986 C 0.29183 0.74551 0.38112 0.0
H987 H 0.32032 0.7611 0.43732 0.0
H988 H 0.32084 0.74691 0.4153 0.0
H989 H 0.31144 0.76876 0.41483 0.0
H990 H 0.25812 0.77103 0.39493 0.0
H991 H 0.25853 0.77858 0.36124 0.0
H992 H 0.59059 0.96758 0.7211 0.0
H993 H 0.56985 0.96444 0.69131 0.0
H994 H 0.61472 0.99335 0.66227 0.0
H995 H 0.63557 0.99622 0.69183 0.0
H996 H 0.55911 0.99347 0.67307 0.0
H997 H 0.59433 0.95022 0.62281 0.0
H998 H 0.5999 0.95193 0.64859 0.0
H999 H 0.61038 0.96977 0.63431 0.0
C1000 C 0.59613 0.97292 0.70825 0.0
C1001 C 0.6147 0.98213 0.70877 0.0
C1002 C 0.58426 0.97113 0.69126 0.0
C1003 C 0.5908 0.97842 0.6745 0.0
C1004 C 0.6095 0.98719 0.67488 0.0
H1005 H 0.55814 0.02264 0.5735 0.0
H1006 H 0.57108 0.01216 0.60329 0.0
C1007 C 0.62138 0.98893 0.69183 0.0
C1008 C 0.57773 0.97863 0.65715 0.0
H1009 H 0.57396 0.97021 0.60817 0.0
C1010 C 0.56206 0.98796 0.65892 0.0
C1011 C 0.58152 0.97133 0.63873 0.0
C1012 C 0.59734 0.96008 0.63602 0.0
C1013 C 0.55091 0.99137 0.64259 0.0
C1014 C 0.55558 0.98524 0.62414 0.0
C1015 C 0.57051 0.97494 0.62241 0.0
C1016 C 0.54688 0.99162 0.60648 0.0
C1017 C 0.53497 0.00251 0.64499 0.0
C1018 C 0.52884 0.98361 0.59858 0.0
C1019 C 0.52131 0.98957 0.58139 0.0
C1020 C 0.53177 0.0036 0.57198 0.0
C1021 C 0.54967 0.01179 0.58031 0.0
C1022 C 0.55715 0.0058 0.59732 0.0
H1023 H 0.53331 0.00649 0.66037 0.0
H1024 H 0.53744 0.01548 0.63733 0.0
H1025 H 0.52165 0.99414 0.63838 0.0
H1026 H 0.52076 0.9726 0.60552 0.0
H1027 H 0.50752 0.98297 0.57531 0.0
H1028 H 0.24095 0.33855 0.98539 0.0
H1029 H 0.24002 0.32197 0.95335 0.0
H1030 H 0.29066 0.35761 0.94226 0.0
H1031 H 0.29195 0.37382 0.97438 0.0
H1032 H 0.23619 0.3358 0.91937 0.0
H1033 H 0.30314 0.30701 0.92456 0.0
H1034 H 0.2932 0.31648 0.94546 0.0
H1035 H 0.3067 0.33187 0.93074 0.0
C1036 C 0.252 0.34268 0.97619 0.0
C1037 C 0.26655 0.35744 0.9824 0.0
C1038 C 0.25147 0.3332 0.9579 0.0
C1039 C 0.26546 0.3383 0.94551 0.0
C1040 C 0.28001 0.35303 0.95174 0.0
H1041 H 0.25508 0.32842 0.82225 0.0
H1042 H 0.25783 0.33774 0.85674 0.0
C1043 C 0.28064 0.36241 0.97005 0.0
C1044 C 0.2641 0.32927 0.92554 0.0
H1045 H 0.28915 0.30876 0.89244 0.0
C1046 C 0.24769 0.32968 0.91358 0.0
C1047 C 0.27897 0.32099 0.91801 0.0
C1048 C 0.2964 0.31886 0.93044 0.0
C1049 C 0.24605 0.32278 0.89413 0.0
C1050 C 0.26142 0.3157 0.88628 0.0
C1051 C 0.27751 0.31449 0.8984 0.0
C1052 C 0.2612 0.31015 0.86537 0.0
C1053 C 0.22785 0.32316 0.88217 0.0
C1054 C 0.26313 0.29175 0.85874 0.0
C1055 C 0.26178 0.2864 0.83893 0.0
C1056 C 0.25849 0.2994 0.82548 0.0
C1057 C 0.25737 0.318 0.83222 0.0
C1058 C 0.25883 0.32333 0.85195 0.0
H1059 H 0.21592 0.32342 0.89133 0.0
H1060 H 0.22908 0.33605 0.87433 0.0
H1061 H 0.22455 0.3108 0.87141 0.0
H1062 H 0.26515 0.28141 0.86889 0.0
H1063 H 0.26274 0.27198 0.83417 0.0
H1064 H 0.89784 0.0192 0.3213 0.0
H1065 H 0.91375 0.01597 0.35276 0.0
H1066 H 0.96449 0.00897 0.32587 0.0
H1067 H 0.94871 0.01246 0.2943 0.0
H1068 H 0.93088 0.98581 0.36521 0.0
H1069 H 0.9821 0.05154 0.36828 0.0
H1070 H 0.96168 0.04684 0.35116 0.0
H1071 H 0.98178 0.03542 0.34735 0.0
C1072 C 0.9124 0.01703 0.32208 0.0
C1073 C 0.92207 0.0162 0.30536 0.0
C1074 C 0.92145 0.01514 0.34005 0.0
C1075 C 0.94035 0.01244 0.34167 0.0
C1076 C 0.95 0.01137 0.32497 0.0
H1077 H 0.01071 0.01156 0.44985 0.0
H1078 H 0.9998 0.00655 0.41546 0.0
C1079 C 0.94095 0.0133 0.30696 0.0
C1080 C 0.94978 0.01077 0.36091 0.0
H1081 H 0.98369 0.03324 0.39471 0.0
C1082 C 0.94253 0.99609 0.37162 0.0
C1083 C 0.96505 0.02413 0.36916 0.0
C1084 C 0.97308 0.04047 0.35851 0.0
C1085 C 0.94985 0.99467 0.39055 0.0
C1086 C 0.96462 0.00845 0.39906 0.0
C1087 C 0.97238 0.02269 0.38811 0.0
C1088 C 0.97096 0.00946 0.41983 0.0
C1089 C 0.94157 0.97856 0.40136 0.0
C1090 C 0.95835 0.01265 0.43363 0.0
C1091 C 0.96452 0.01557 0.45317 0.0
C1092 C 0.98346 0.01541 0.45933 0.0
C1093 C 0.99601 0.01167 0.44555 0.0
C1094 C 0.98982 0.00885 0.42592 0.0
H1095 H 0.93482 0.96643 0.39133 0.0
H1096 H 0.95246 0.97386 0.41116 0.0
H1097 H 0.93064 0.9832 0.41019 0.0
H1098 H 0.94382 0.01355 0.42922 0.0
H1099 H 0.9545 0.01843 0.46341 0.0
H1100 H 0.31851 0.67181 0.58035 0.0
H1101 H 0.32322 0.69254 0.61034 0.0
H1102 H 0.26511 0.70065 0.60393 0.0
H1103 H 0.26042 0.68038 0.57396 0.0
H1104 H 0.28979 0.73393 0.61434 0.0
H1105 H 0.30334 0.67729 0.66129 0.0
H1106 H 0.31834 0.68112 0.64206 0.0
H1107 H 0.29386 0.67228 0.63652 0.0
C1108 C 0.30677 0.67802 0.58539 0.0
C1109 C 0.28906 0.67439 0.57492 0.0
C1110 C 0.30947 0.68983 0.6025 0.0
C1111 C 0.29447 0.69799 0.60941 0.0
C1112 C 0.27689 0.69453 0.59881 0.0
H1113 H 0.25717 0.73056 0.71428 0.0
H1114 H 0.26551 0.71761 0.68352 0.0
C1115 C 0.2742 0.68286 0.58174 0.0
C1116 C 0.29656 0.70966 0.62797 0.0
H1117 H 0.30089 0.70666 0.6766 0.0
C1118 C 0.29254 0.72813 0.62799 0.0
C1119 C 0.30013 0.70197 0.64569 0.0
C1120 C 0.30405 0.68205 0.64654 0.0
C1121 C 0.29098 0.73878 0.64528 0.0
C1122 C 0.29374 0.73077 0.66294 0.0
C1123 C 0.29883 0.71272 0.66296 0.0
C1124 C 0.28877 0.73958 0.68127 0.0
C1125 C 0.28521 0.758 0.64453 0.0
C1126 C 0.29898 0.75642 0.69009 0.0
C1127 C 0.29416 0.76401 0.70779 0.0
C1128 C 0.27916 0.75473 0.71687 0.0
C1129 C 0.26884 0.73805 0.70774 0.0
C1130 C 0.27361 0.73057 0.69016 0.0
H1131 H 0.28148 0.76125 0.62954 0.0
H1132 H 0.27299 0.75911 0.6531 0.0
H1133 H 0.29697 0.76877 0.65095 0.0
H1134 H 0.31084 0.76348 0.6835 0.0
H1135 H 0.30243 0.77682 0.71455 0.0
H1136 H 0.59062 0.01763 0.78479 0.0
H1137 H 0.56858 0.02188 0.80931 0.0
H1138 H 0.59984 0.99149 0.84801 0.0
H1139 H 0.62188 0.98714 0.82364 0.0
H1140 H 0.5465 0.99252 0.82911 0.0
H1141 H 0.59655 0.04331 0.87813 0.0
H1142 H 0.59983 0.03849 0.85293 0.0
H1143 H 0.60569 0.02245 0.87013 0.0
C1144 C 0.59277 0.01185 0.79853 0.0
C1145 C 0.608 0.00212 0.80237 0.0
C1146 C 0.58018 0.01427 0.81246 0.0
C1147 C 0.58277 0.00718 0.83046 0.0
C1148 C 0.5978 0.99726 0.83424 0.0
H1149 H 0.52237 0.97649 0.92362 0.0
H1150 H 0.53406 0.9791 0.89193 0.0
C1151 C 0.61031 0.99473 0.8203 0.0
C1152 C 0.56983 0.01003 0.84545 0.0
H1153 H 0.56915 0.02892 0.89151 0.0
C1154 C 0.5513 0.0007 0.84266 0.0
C1155 C 0.57607 0.02101 0.86291 0.0
C1156 C 0.59557 0.03205 0.86621 0.0
C1157 C 0.53916 0.00115 0.85745 0.0
C1158 C 0.54587 0.01102 0.87543 0.0
C1159 C 0.56403 0.02129 0.87774 0.0
C1160 C 0.53529 0.00927 0.89272 0.0
C1161 C 0.51942 0.99074 0.85385 0.0
C1162 C 0.53185 0.02536 0.90362 0.0
C1163 C 0.52526 0.02393 0.92187 0.0
C1164 C 0.52224 0.00639 0.92957 0.0
C1165 C 0.52461 0.9902 0.91813 0.0
C1166 C 0.53114 0.99165 0.8999 0.0
H1167 H 0.51452 0.98955 0.83828 0.0
H1168 H 0.51915 0.9763 0.8584 0.0
H1169 H 0.50948 0.99779 0.86214 0.0
H1170 H 0.53509 0.0391 0.89836 0.0
H1171 H 0.52357 0.03666 0.93034 0.0
H1172 H 0.24991 0.32789 0.06266 0.0
H1173 H 0.24573 0.30775 0.08931 0.0
H1174 H 0.26819 0.35488 0.12993 0.0
H1175 H 0.27213 0.37509 0.10347 0.0
H1176 H 0.272 0.29898 0.11676 0.0
H1177 H 0.21926 0.33518 0.15192 0.0
H1178 H 0.22531 0.33905 0.12773 0.0
H1179 H 0.23995 0.351 0.1482 0.0
C1180 C 0.25388 0.33396 0.07729 0.0
C1181 C 0.26124 0.3531 0.08098 0.0
C1182 C 0.25149 0.32244 0.09248 0.0
C1183 C 0.25631 0.32988 0.11163 0.0
C1184 C 0.26394 0.34892 0.11531 0.0
H1185 H 0.27744 0.29782 0.22335 0.0
H1186 H 0.27472 0.31099 0.19233 0.0
C1187 C 0.2663 0.36044 0.10015 0.0
C1188 C 0.2539 0.31774 0.12783 0.0
H1189 H 0.2351 0.31501 0.17123 0.0
C1190 C 0.26365 0.30226 0.1285 0.0
C1191 C 0.24286 0.32192 0.14307 0.0
C1192 C 0.23109 0.33757 0.14263 0.0
C1193 C 0.2635 0.29155 0.14454 0.0
C1194 C 0.25332 0.29643 0.16019 0.0
C1195 C 0.24292 0.31135 0.15917 0.0
C1196 C 0.255 0.28765 0.17862 0.0
C1197 C 0.27492 0.27565 0.14519 0.0
C1198 C 0.2448 0.27006 0.18112 0.0
C1199 C 0.2462 0.26243 0.19902 0.0
C1200 C 0.25785 0.27233 0.2146 0.0
C1201 C 0.26822 0.28982 0.21177 0.0
C1202 C 0.26673 0.2974 0.19403 0.0
H1203 H 0.28221 0.27367 0.13187 0.0
H1204 H 0.28557 0.27841 0.15777 0.0
H1205 H 0.26563 0.2624 0.14711 0.0
H1206 H 0.23562 0.26236 0.16933 0.0
H1207 H 0.23805 0.24894 0.20071 0.0
H1208 H 0.19864 0.91407 0.00711 0.0
H1209 H 0.17649 0.93596 0.01353 0.0
H1210 H 0.2158 0.96641 0.05835 0.0
H1211 H 0.23815 0.94459 0.05194 0.0
H1212 H 0.16097 0.94482 0.04935 0.0
H1213 H 0.20277 0.00677 0.02189 0.0
H1214 H 0.20721 0.9831 0.01619 0.0
H1215 H 0.21438 0.99464 0.03974 0.0
C1216 C 0.20258 0.92541 0.01834 0.0
C1217 C 0.22015 0.92768 0.02897 0.0
C1218 C 0.18991 0.93787 0.02201 0.0
C1219 C 0.19461 0.95287 0.03629 0.0
C1220 C 0.21203 0.95505 0.04712 0.0
H1221 H 0.10225 0.01648 0.06163 0.0
H1222 H 0.13158 0.00362 0.06816 0.0
C1223 C 0.22473 0.94255 0.04347 0.0
C1224 C 0.18114 0.96616 0.03955 0.0
H1225 H 0.17288 0.01043 0.03143 0.0
C1226 C 0.16363 0.95927 0.04577 0.0
C1227 C 0.18475 0.98497 0.03479 0.0
C1228 C 0.20323 0.99289 0.02767 0.0
C1229 C 0.14928 0.97044 0.04655 0.0
C1230 C 0.15267 0.98906 0.04117 0.0
C1231 C 0.17045 0.99622 0.03574 0.0
C1232 C 0.13711 0.00011 0.03816 0.0
C1233 C 0.13026 0.96186 0.05196 0.0
C1234 C 0.13113 0.00327 0.01928 0.0
C1235 C 0.11453 0.01059 0.01553 0.0
C1236 C 0.10364 0.015 0.03062 0.0
C1237 C 0.11038 0.01322 0.04972 0.0
C1238 C 0.12703 0.00577 0.05346 0.0
H1239 H 0.12931 0.94651 0.05321 0.0
H1240 H 0.1275 0.96861 0.06605 0.0
H1241 H 0.11905 0.96429 0.04106 0.0
H1242 H 0.13875 0.99905 0.00728 0.0
H1243 H 0.10976 0.01195 0.00069 0.0
H1244 H 0.72639 0.57535 0.98452 0.0
H1245 H 0.6951 0.55635 0.98236 0.0
H1246 H 0.67281 0.60324 0.009 0.0
H1247 H 0.7038 0.62222 0.01116 0.0
H1248 H 0.67204 0.54769 0.01345 0.0
H1249 H 0.63729 0.58705 0.95966 0.0
H1250 H 0.66252 0.58874 0.9635 0.0
H1251 H 0.64986 0.60188 0.97957 0.0
C1252 C 0.71477 0.5816 0.98982 0.0
C1253 C 0.71751 0.6003 0.99793 0.0
C1254 C 0.69695 0.57074 0.98859 0.0
C1255 C 0.68161 0.5785 0.99525 0.0
C1256 C 0.68439 0.5971 0.00344 0.0
H1257 H 0.56895 0.55519 0.02037 0.0
H1258 H 0.60113 0.56696 0.01434 0.0
C1259 C 0.70214 0.6079 0.00476 0.0
C1260 C 0.66272 0.56717 0.99431 0.0
H1261 H 0.61702 0.56755 0.97817 0.0
C1262 C 0.66002 0.55176 0.00546 0.0
C1263 C 0.64712 0.5725 0.98379 0.0
C1264 C 0.64932 0.58834 0.9708 0.0
C1265 C 0.64193 0.54226 0.00735 0.0
C1266 C 0.62624 0.54824 0.9976 0.0
C1267 C 0.62907 0.56306 0.9857 0.0
C1268 C 0.60671 0.54058 0.00097 0.0
C1269 C 0.63961 0.52662 0.02057 0.0
C1270 C 0.5991 0.52182 0.99531 0.0
C1271 C 0.58058 0.51497 0.99876 0.0
C1272 C 0.56943 0.52682 0.00792 0.0
C1273 C 0.57713 0.54563 0.01339 0.0
C1274 C 0.59553 0.55242 0.00991 0.0
H1275 H 0.65286 0.52567 0.02933 0.0
H1276 H 0.62856 0.52869 0.03045 0.0
H1277 H 0.63513 0.51305 0.01183 0.0
H1278 H 0.60742 0.51252 0.98815 0.0
H1279 H 0.57504 0.50044 0.99432 0.0
H1280 H 0.65475 0.45072 0.28881 0.0
H1281 H 0.67274 0.42455 0.28527 0.0
H1282 H 0.7205 0.46256 0.27112 0.0
H1283 H 0.70268 0.48883 0.27482 0.0
H1284 H 0.68991 0.41178 0.25255 0.0
H1285 H 0.74201 0.43507 0.3154 0.0
H1286 H 0.72032 0.44459 0.312 0.0
H1287 H 0.73964 0.45211 0.29821 0.0
C1288 C 0.66911 0.45351 0.28501 0.0
C1289 C 0.67735 0.47184 0.2822 0.0
C1290 C 0.67934 0.43855 0.28295 0.0
C1291 C 0.69801 0.44166 0.27814 0.0
C1292 C 0.70622 0.45991 0.27515 0.0
H1293 H 0.75865 0.3481 0.24469 0.0
H1294 H 0.74658 0.37827 0.24482 0.0
C1295 C 0.69599 0.47488 0.27721 0.0
C1296 C 0.70879 0.42572 0.27619 0.0
H1297 H 0.74613 0.40776 0.29649 0.0
C1298 C 0.70228 0.41093 0.26205 0.0
C1299 C 0.72487 0.42466 0.28869 0.0
C1300 C 0.7321 0.43986 0.30455 0.0
C1301 C 0.71127 0.39496 0.26025 0.0
C1302 C 0.7273 0.39387 0.2728 0.0
C1303 C 0.73397 0.40878 0.28675 0.0
C1304 C 0.7361 0.37656 0.273 0.0
C1305 C 0.70315 0.37904 0.24546 0.0
C1306 C 0.73473 0.36599 0.28903 0.0
C1307 C 0.74157 0.34889 0.289 0.0
C1308 C 0.75008 0.34204 0.27299 0.0
C1309 C 0.75217 0.35302 0.25723 0.0
C1310 C 0.74519 0.37016 0.25723 0.0
H1311 H 0.68905 0.38084 0.23902 0.0
H1312 H 0.71262 0.37837 0.23369 0.0
H1313 H 0.70199 0.36543 0.25205 0.0
H1314 H 0.72783 0.37072 0.30136 0.0
H1315 H 0.73984 0.34085 0.30143 0.0
H1316 H 0.80783 0.43303 0.54279 0.0
H1317 H 0.83943 0.45086 0.54452 0.0
H1318 H 0.85128 0.4178 0.49408 0.0
H1319 H 0.81945 0.40043 0.49186 0.0
H1320 H 0.87083 0.43752 0.55102 0.0
H1321 H 0.87277 0.46915 0.48129 0.0
H1322 H 0.85113 0.45869 0.49006 0.0
H1323 H 0.86579 0.44422 0.47792 0.0
C1324 C 0.81709 0.42979 0.53188 0.0
C1325 C 0.81124 0.41536 0.51719 0.0
C1326 C 0.83512 0.43999 0.53288 0.0
C1327 C 0.84766 0.43585 0.51929 0.0
C1328 C 0.84171 0.42162 0.50441 0.0
H1329 H 0.96743 0.44901 0.53947 0.0
H1330 H 0.93365 0.43856 0.5349 0.0
C1331 C 0.82357 0.41159 0.50325 0.0
C1332 C 0.86747 0.44513 0.5218 0.0
H1333 H 0.90276 0.46747 0.49814 0.0
C1334 C 0.87772 0.44428 0.53952 0.0
C1335 C 0.87643 0.4542 0.50692 0.0
C1336 C 0.86589 0.45681 0.48807 0.0
C1337 C 0.89682 0.45165 0.54254 0.0
C1338 C 0.90607 0.45957 0.52722 0.0
C1339 C 0.8957 0.4611 0.50975 0.0
C1340 C 0.92659 0.46584 0.52898 0.0
C1341 C 0.90686 0.45093 0.56216 0.0
C1342 C 0.93388 0.48447 0.52635 0.0
C1343 C 0.95326 0.49045 0.5287 0.0
C1344 C 0.96561 0.47786 0.53375 0.0
C1345 C 0.95827 0.45911 0.53585 0.0
C1346 C 0.93896 0.45313 0.53333 0.0
H1347 H 0.8969 0.4501 0.57358 0.0
H1348 H 0.91384 0.4382 0.56214 0.0
H1349 H 0.91772 0.46343 0.56591 0.0
H1350 H 0.92456 0.49446 0.52283 0.0
H1351 H 0.95852 0.50498 0.52691 0.0
H1352 H 0.34174 0.04439 0.24211 0.0
H1353 H 0.31948 0.06626 0.23547 0.0
H1354 H 0.35667 0.11074 0.26925 0.0
H1355 H 0.37898 0.08905 0.27588 0.0
H1356 H 0.30177 0.08677 0.26288 0.0
H1357 H 0.34442 0.13395 0.21846 0.0
H1358 H 0.34953 0.11077 0.22282 0.0
H1359 H 0.35698 0.13019 0.24065 0.0
C1360 C 0.34522 0.05888 0.24799 0.0
C1361 C 0.36211 0.06505 0.25948 0.0
C1362 C 0.3325 0.07132 0.24419 0.0
C1363 C 0.33658 0.09015 0.25162 0.0
C1364 C 0.35345 0.09634 0.26305 0.0
H1365 H 0.28068 0.17669 0.28887 0.0
H1366 H 0.29243 0.14704 0.28267 0.0
C1367 C 0.36612 0.08391 0.26693 0.0
C1368 C 0.32288 0.10324 0.2484 0.0
H1369 H 0.31925 0.1465 0.23323 0.0
C1370 C 0.30541 0.09968 0.25606 0.0
C1371 C 0.32749 0.11986 0.23916 0.0
C1372 C 0.34555 0.12386 0.22962 0.0
C1373 C 0.29302 0.11299 0.256 0.0
C1374 C 0.29837 0.13031 0.24825 0.0
C1375 C 0.31521 0.13326 0.2393 0.0
C1376 C 0.28817 0.14648 0.2516 0.0
C1377 C 0.27458 0.10863 0.26477 0.0
C1378 C 0.2817 0.15597 0.23617 0.0
C1379 C 0.27491 0.17302 0.2397 0.0
C1380 C 0.27487 0.18093 0.2587 0.0
C1381 C 0.28057 0.17095 0.27408 0.0
C1382 C 0.28715 0.1539 0.27056 0.0
H1383 H 0.26974 0.09325 0.26382 0.0
H1384 H 0.27644 0.1138 0.28025 0.0
H1385 H 0.26352 0.11555 0.25755 0.0
H1386 H 0.28255 0.15054 0.22143 0.0
H1387 H 0.27074 0.18051 0.22758 0.0
H1388 H 0.32794 0.11892 0.53372 0.0
H1389 H 0.35452 0.10139 0.53559 0.0
H1390 H 0.33351 0.07004 0.48155 0.0
H1391 H 0.30671 0.08744 0.47964 0.0
H1392 H 0.34647 0.04779 0.51116 0.0
H1393 H 0.39836 0.11012 0.50081 0.0
H1394 H 0.38362 0.11333 0.52007 0.0
H1395 H 0.37341 0.10949 0.49559 0.0
C1396 C 0.32894 0.10828 0.52224 0.0
C1397 C 0.31532 0.10466 0.50644 0.0
C1398 C 0.34415 0.0983 0.52332 0.0
C1399 C 0.34608 0.08458 0.5086 0.0
C1400 C 0.33228 0.08061 0.49304 0.0
H1401 H 0.44719 0.04226 0.48182 0.0
H1402 H 0.41731 0.05425 0.48152 0.0
C1403 C 0.31704 0.0906 0.49193 0.0
C1404 C 0.36283 0.07483 0.50917 0.0
H1405 H 0.41046 0.08251 0.50808 0.0
C1406 C 0.36048 0.05533 0.51049 0.0
C1407 C 0.38104 0.08472 0.50813 0.0
C1408 C 0.38434 0.10554 0.50591 0.0
C1409 C 0.37595 0.04547 0.51091 0.0
C1410 C 0.39418 0.05544 0.51014 0.0
C1411 C 0.39647 0.07492 0.50878 0.0
C1412 C 0.41113 0.046 0.5098 0.0
C1413 C 0.37266 0.02447 0.51174 0.0
C1414 C 0.41744 0.03701 0.5257 0.0
C1415 C 0.43461 0.03003 0.52591 0.0
C1416 C 0.44576 0.03212 0.51029 0.0
C1417 C 0.43901 0.04052 0.49415 0.0
C1418 C 0.42192 0.04739 0.49393 0.0
H1419 H 0.35765 0.01847 0.50821 0.0
H1420 H 0.38126 0.01759 0.50161 0.0
H1421 H 0.37692 0.02106 0.52652 0.0
H1422 H 0.40946 0.03604 0.53823 0.0
H1423 H 0.43949 0.02373 0.53859 0.0
H1424 H 0.70265 0.56279 0.30589 0.0
H1425 H 0.72107 0.59417 0.3069 0.0
H1426 H 0.67289 0.61521 0.28129 0.0
H1427 H 0.65439 0.58401 0.28038 0.0
H1428 H 0.72872 0.61509 0.27537 0.0
H1429 H 0.6906 0.6534 0.32756 0.0
H1430 H 0.68824 0.62809 0.3249 0.0
H1431 H 0.67537 0.64037 0.30821 0.0
C1432 C 0.69594 0.57416 0.30067 0.0
C1433 C 0.67706 0.57098 0.29311 0.0
C1434 C 0.70649 0.59205 0.30124 0.0
C1435 C 0.69827 0.60706 0.29444 0.0
C1436 C 0.67939 0.60391 0.287 0.0
H1437 H 0.72544 0.71874 0.2648 0.0
H1438 H 0.71214 0.6872 0.27155 0.0
C1439 C 0.66887 0.58606 0.28639 0.0
C1440 C 0.7096 0.62582 0.29407 0.0
H1441 H 0.71043 0.67222 0.30809 0.0
C1442 C 0.72495 0.62757 0.28276 0.0
C1443 C 0.70465 0.64204 0.3038 0.0
C1444 C 0.68893 0.64091 0.31696 0.0
C1445 C 0.73487 0.64526 0.28007 0.0
C1446 C 0.72942 0.66153 0.28918 0.0
C1447 C 0.71453 0.65971 0.30108 0.0
C1448 C 0.73794 0.68065 0.28533 0.0
C1449 C 0.7505 0.64649 0.2668 0.0
C1450 C 0.7569 0.68749 0.29097 0.0
C1451 C 0.76463 0.70562 0.28711 0.0
C1452 C 0.75348 0.71717 0.27758 0.0
C1453 C 0.73448 0.71023 0.27209 0.0
C1454 C 0.7268 0.69221 0.27598 0.0
H1455 H 0.7508 0.63292 0.25831 0.0
H1456 H 0.74901 0.65745 0.25665 0.0
H1457 H 0.76418 0.65048 0.27547 0.0
H1458 H 0.76566 0.67886 0.29845 0.0
H1459 H 0.77928 0.71057 0.29159 0.0
H1460 H 0.84242 0.4794 0.78046 0.0
H1461 H 0.82537 0.44747 0.78068 0.0
H1462 H 0.87606 0.42463 0.77024 0.0
H1463 H 0.89317 0.45634 0.77002 0.0
H1464 H 0.84192 0.41078 0.74371 0.0
H1465 H 0.8309 0.40742 0.82168 0.0
H1466 H 0.82581 0.42788 0.81018 0.0
H1467 H 0.8496 0.42351 0.81345 0.0
C1468 C 0.84995 0.46756 0.77843 0.0
C1469 C 0.86911 0.47034 0.77519 0.0
C1470 C 0.84022 0.44938 0.77863 0.0
C1471 C 0.84953 0.43378 0.7756 0.0
C1472 C 0.86869 0.43654 0.77268 0.0
H1473 H 0.83006 0.31459 0.75698 0.0
H1474 H 0.8417 0.34814 0.76102 0.0
C1475 C 0.87842 0.45465 0.77256 0.0
C1476 C 0.83919 0.41449 0.7742 0.0
H1477 H 0.81946 0.38032 0.80093 0.0
C1478 C 0.83689 0.40414 0.75618 0.0
C1479 C 0.8325 0.40602 0.79048 0.0
C1480 C 0.83483 0.41666 0.81012 0.0
C1481 C 0.8284 0.38534 0.75406 0.0
C1482 C 0.82247 0.37656 0.77049 0.0
C1483 C 0.82414 0.3871 0.78841 0.0
C1484 C 0.81552 0.35619 0.7694 0.0
C1485 C 0.82592 0.37501 0.73423 0.0
C1486 C 0.79714 0.34956 0.77353 0.0
C1487 C 0.79043 0.33029 0.77135 0.0
C1488 C 0.80206 0.31742 0.76506 0.0
C1489 C 0.82067 0.32413 0.76163 0.0
C1490 C 0.82734 0.34331 0.76386 0.0
H1491 H 0.82599 0.38486 0.72272 0.0
H1492 H 0.83772 0.36689 0.73246 0.0
H1493 H 0.81259 0.36504 0.73219 0.0
H1494 H 0.78787 0.35931 0.77797 0.0
H1495 H 0.77605 0.32553 0.77417 0.0
H1496 H 0.04748 0.84525 0.13557 0.0
H1497 H 0.04823 0.87347 0.11816 0.0
H1498 H 0.01594 0.84108 0.06944 0.0
H1499 H 0.01496 0.81271 0.08689 0.0
H1500 H 0.06281 0.87936 0.08187 0.0
H1501 H 0.98669 0.88549 0.08057 0.0
H1502 H 0.99766 0.87103 0.0967 0.0
H1503 H 0.99266 0.86331 0.07159 0.0
C1504 C 0.04048 0.84413 0.12118 0.0
C1505 C 0.03111 0.82679 0.11261 0.0
C1506 C 0.04095 0.86025 0.11124 0.0
C1507 C 0.03199 0.85938 0.0926 0.0
C1508 C 0.02269 0.84208 0.08393 0.0
H1509 H 0.02654 0.95849 0.02606 0.0
H1510 H 0.02315 0.92549 0.03367 0.0
C1511 C 0.02222 0.8259 0.09388 0.0
C1512 C 0.03277 0.87667 0.08233 0.0
H1513 H 0.00619 0.90914 0.06702 0.0
C1514 C 0.05041 0.88577 0.07842 0.0
C1515 C 0.01653 0.88489 0.07771 0.0
C1516 C 0.99729 0.87581 0.08193 0.0
C1517 C 0.05234 0.90322 0.07062 0.0
C1518 C 0.03624 0.91189 0.0669 0.0
C1519 C 0.01848 0.9024 0.0699 0.0
C1520 C 0.0379 0.93162 0.06203 0.0
C1521 C 0.07166 0.91246 0.06681 0.0
C1522 C 0.04696 0.94588 0.07561 0.0
C1523 C 0.04883 0.96457 0.07139 0.0
C1524 C 0.04164 0.96945 0.05348 0.0
C1525 C 0.03228 0.95516 0.03995 0.0
C1526 C 0.03033 0.93635 0.04425 0.0
H1527 H 0.08145 0.90202 0.06507 0.0
H1528 H 0.07111 0.92022 0.05367 0.0
H1529 H 0.07746 0.92263 0.07922 0.0
H1530 H 0.0526 0.94253 0.08954 0.0
H1531 H 0.05606 0.97519 0.0822 0.0
H1532 H 0.96239 0.27974 0.85789 0.0
H1533 H 0.93162 0.27567 0.83987 0.0
H1534 H 0.92776 0.21557 0.84054 0.0
H1535 H 0.95863 0.21956 0.85887 0.0
H1536 H 0.91809 0.25552 0.80409 0.0
H1537 H 0.88036 0.22814 0.86536 0.0
H1538 H 0.90443 0.23952 0.86842 0.0
H1539 H 0.89884 0.21585 0.85763 0.0
C1540 C 0.95506 0.26564 0.85414 0.0
C1541 C 0.96283 0.24997 0.85992 0.0
C1542 C 0.93751 0.26334 0.84378 0.0
C1543 C 0.92736 0.24534 0.83907 0.0
C1544 C 0.93529 0.22959 0.84429 0.0
H1545 H 0.81938 0.23407 0.76779 0.0
H1546 H 0.85096 0.22875 0.77931 0.0
C1547 C 0.95292 0.23189 0.85468 0.0
C1548 C 0.90816 0.24342 0.8294 0.0
H1549 H 0.86196 0.23275 0.83748 0.0
C1550 C 0.90579 0.25029 0.81122 0.0
C1551 C 0.8922 0.23674 0.83889 0.0
C1552 C 0.89395 0.22975 0.85871 0.0
C1553 C 0.88783 0.25124 0.80252 0.0
C1554 C 0.87189 0.24494 0.81221 0.0
C1555 C 0.87425 0.23747 0.83008 0.0
C1556 C 0.85278 0.24774 0.80506 0.0
C1557 C 0.88605 0.25984 0.78353 0.0
C1558 C 0.84331 0.25995 0.81586 0.0
C1559 C 0.82535 0.26297 0.8094 0.0
C1560 C 0.81643 0.25377 0.79199 0.0
C1561 C 0.8259 0.24143 0.78121 0.0
C1562 C 0.84395 0.23841 0.78772 0.0
H1563 H 0.8998 0.26678 0.77951 0.0
H1564 H 0.88028 0.24869 0.772 0.0
H1565 H 0.87622 0.27033 0.78411 0.0
H1566 H 0.8499 0.26727 0.82928 0.0
H1567 H 0.81847 0.27253 0.8181 0.0
H1568 H 0.5068 0.20713 0.63692 0.0
H1569 H 0.50564 0.17618 0.61981 0.0
H1570 H 0.53717 0.20119 0.57567 0.0
H1571 H 0.53853 0.2323 0.59285 0.0
H1572 H 0.49039 0.1645 0.58135 0.0
H1573 H 0.5665 0.15878 0.59211 0.0
H1574 H 0.55585 0.17566 0.60631 0.0
H1575 H 0.56053 0.17954 0.58191 0.0
C1576 C 0.51352 0.20606 0.6236 0.0
C1577 C 0.5228 0.22212 0.61624 0.0
C1578 C 0.51284 0.18838 0.61384 0.0
C1579 C 0.5215 0.1864 0.59661 0.0
C1580 C 0.53066 0.20241 0.58912 0.0
H1581 H 0.52398 0.07916 0.52833 0.0
H1582 H 0.52872 0.11295 0.53842 0.0
C1583 C 0.53134 0.22015 0.59888 0.0
C1584 C 0.52048 0.16751 0.58647 0.0
H1585 H 0.54672 0.13306 0.57526 0.0
C1586 C 0.50272 0.15769 0.57986 0.0
C1587 C 0.53662 0.15874 0.58444 0.0
C1588 C 0.55598 0.1686 0.59165 0.0
C1589 C 0.5006 0.13911 0.57174 0.0
C1590 C 0.51663 0.13006 0.57047 0.0
C1591 C 0.53449 0.14009 0.57631 0.0
C1592 C 0.51484 0.10974 0.56466 0.0
C1593 C 0.48117 0.12917 0.56485 0.0
C1594 C 0.50595 0.09685 0.57636 0.0
C1595 C 0.50329 0.07768 0.57073 0.0
C1596 C 0.50951 0.07099 0.55327 0.0
C1597 C 0.51899 0.0839 0.54183 0.0
C1598 C 0.52169 0.10316 0.54755 0.0
H1599 H 0.47125 0.13928 0.56202 0.0
H1600 H 0.48146 0.11991 0.55149 0.0
H1601 H 0.47572 0.12031 0.57613 0.0
H1602 H 0.50085 0.10166 0.58979 0.0
H1603 H 0.49606 0.06815 0.57996 0.0
H1604 H 0.57221 0.79225 0.37736 0.0
H1605 H 0.60065 0.79672 0.36015 0.0
H1606 H 0.58145 0.74482 0.3252 0.0
H1607 H 0.55281 0.74051 0.34201 0.0
H1608 H 0.6272 0.77454 0.35938 0.0
H1609 H 0.5981 0.77918 0.28464 0.0
H1610 H 0.58438 0.78127 0.3051 0.0
H1611 H 0.58743 0.75848 0.29463 0.0
C1612 C 0.57396 0.78192 0.36584 0.0
C1613 C 0.5603 0.76603 0.36101 0.0
C1614 C 0.59019 0.7845 0.35601 0.0
C1615 C 0.59304 0.77128 0.34116 0.0
C1616 C 0.57933 0.75547 0.33623 0.0
H1617 H 0.69568 0.74089 0.30623 0.0
H1618 H 0.66558 0.7441 0.31874 0.0
C1619 C 0.56305 0.75294 0.34598 0.0
C1620 C 0.61102 0.77313 0.33198 0.0
H1621 H 0.62969 0.77194 0.28839 0.0
C1622 C 0.62774 0.77424 0.34387 0.0
C1623 C 0.61178 0.77302 0.31175 0.0
C1624 C 0.59447 0.77313 0.29831 0.0
C1625 C 0.64508 0.77436 0.33607 0.0
C1626 C 0.64568 0.77293 0.31581 0.0
C1627 C 0.62913 0.77275 0.30391 0.0
C1628 C 0.66325 0.77059 0.30686 0.0
C1629 C 0.66262 0.77582 0.3496 0.0
C1630 C 0.67151 0.78404 0.2953 0.0
C1631 C 0.68876 0.78219 0.28795 0.0
C1632 C 0.69791 0.76682 0.29206 0.0
C1633 C 0.68914 0.75302 0.30299 0.0
C1634 C 0.67196 0.75485 0.31023 0.0
H1635 H 0.66062 0.78231 0.36409 0.0
H1636 H 0.66611 0.76154 0.35138 0.0
H1637 H 0.67473 0.78424 0.34382 0.0
H1638 H 0.66488 0.79621 0.29241 0.0
H1639 H 0.69516 0.79302 0.27955 0.0
H1640 H 0.01596 0.20105 0.39847 0.0
H1641 H 0.01386 0.17369 0.41732 0.0
H1642 H 0.03046 0.20993 0.46945 0.0
H1643 H 0.03295 0.23736 0.45062 0.0
H1644 H 0.04985 0.18055 0.46728 0.0
H1645 H 0.97393 0.15476 0.45202 0.0
H1646 H 0.98554 0.15779 0.43036 0.0
H1647 H 0.98439 0.17789 0.44683 0.0
C1648 C 0.01907 0.20319 0.41396 0.0
C1649 C 0.02459 0.22134 0.42308 0.0
C1650 C 0.01771 0.18756 0.42473 0.0
C1651 C 0.02163 0.18979 0.44484 0.0
C1652 C 0.02722 0.2079 0.45397 0.0
H1653 H 0.00092 0.09075 0.51126 0.0
H1654 H 0.00058 0.12258 0.5011 0.0
C1655 C 0.02865 0.22355 0.4432 0.0
C1656 C 0.0209 0.17313 0.45614 0.0
H1657 H 0.9929 0.13267 0.46417 0.0
C1658 C 0.03732 0.17021 0.46682 0.0
C1659 C 0.00445 0.15982 0.45588 0.0
C1660 C 0.98603 0.1628 0.44582 0.0
C1661 C 0.03802 0.15385 0.47636 0.0
C1662 C 0.02198 0.13991 0.47488 0.0
C1663 C 0.00526 0.14328 0.46511 0.0
C1664 C 0.02271 0.12116 0.48199 0.0
C1665 C 0.05601 0.15158 0.48776 0.0
C1666 C 0.03514 0.10983 0.4745 0.0
C1667 C 0.03539 0.09178 0.48025 0.0
C1668 C 0.02307 0.08456 0.4935 0.0
C1669 C 0.01064 0.09594 0.50109 0.0
C1670 C 0.0104 0.11409 0.49529 0.0
H1671 H 0.06442 0.16542 0.49278 0.0
H1672 H 0.05319 0.14356 0.50048 0.0
H1673 H 0.06463 0.14384 0.47841 0.0
H1674 H 0.04444 0.11481 0.46387 0.0
H1675 H 0.0451 0.08339 0.47405 0.0
H1676 H 0.57179 0.24252 0.1481 0.0
H1677 H 0.6031 0.24477 0.16476 0.0
H1678 H 0.58401 0.2718 0.21524 0.0
H1679 H 0.55262 0.26979 0.19855 0.0
H1680 H 0.6169 0.29059 0.20416 0.0
H1681 H 0.6222 0.21516 0.20782 0.0
H1682 H 0.61557 0.22086 0.18391 0.0
H1683 H 0.60011 0.22355 0.20268 0.0
C1684 C 0.57421 0.24881 0.1628 0.0
C1685 C 0.55977 0.25598 0.17203 0.0
C1686 C 0.59207 0.24994 0.17236 0.0
C1687 C 0.59578 0.25814 0.19135 0.0
C1688 C 0.58137 0.26526 0.20064 0.0
H1689 H 0.7053 0.26255 0.2573 0.0
H1690 H 0.67142 0.25625 0.24778 0.0
C1691 C 0.56348 0.26413 0.19109 0.0
C1692 C 0.61506 0.26048 0.20093 0.0
H1693 H 0.65121 0.23651 0.21277 0.0
C1694 C 0.62431 0.27875 0.20629 0.0
C1695 C 0.62464 0.245 0.20392 0.0
C1696 C 0.61506 0.22503 0.19947 0.0
C1697 C 0.64317 0.28202 0.2137 0.0
C1698 C 0.65307 0.26662 0.21556 0.0
C1699 C 0.6436 0.24829 0.21111 0.0
C1700 C 0.67352 0.26945 0.22102 0.0
C1701 C 0.65244 0.30196 0.21924 0.0
C1702 C 0.68585 0.27848 0.20887 0.0
C1703 C 0.70509 0.28204 0.2142 0.0
C1704 C 0.71241 0.27659 0.23179 0.0
C1705 C 0.70008 0.26697 0.24369 0.0
C1706 C 0.68076 0.26337 0.23829 0.0
H1707 H 0.64193 0.31148 0.22191 0.0
H1708 H 0.6623 0.30278 0.23236 0.0
H1709 H 0.66056 0.3071 0.2073 0.0
H1710 H 0.68054 0.28296 0.19531 0.0
H1711 H 0.71418 0.28935 0.20462 0.0
H1712 H 0.53343 0.80824 0.9578 0.0
H1713 H 0.53451 0.838 0.97734 0.0
H1714 H 0.5428 0.86816 0.92679 0.0
H1715 H 0.54227 0.8385 0.90729 0.0
H1716 H 0.56468 0.88555 0.95871 0.0
H1717 H 0.49052 0.86719 0.97549 0.0
H1718 H 0.50582 0.85098 0.9828 0.0
H1719 H 0.50089 0.8536 0.9576 0.0
C1720 C 0.53565 0.82124 0.9509 0.0
C1721 C 0.53759 0.82107 0.93099 0.0
C1722 C 0.53617 0.83821 0.96206 0.0
C1723 C 0.53834 0.85526 0.95344 0.0
C1724 C 0.54103 0.85515 0.93371 0.0
H1725 H 0.50251 0.95988 0.97873 0.0
H1726 H 0.50754 0.92816 0.96863 0.0
C1727 C 0.54069 0.8382 0.92258 0.0
C1728 C 0.53699 0.87319 0.96465 0.0
H1729 H 0.50654 0.89651 0.98865 0.0
C1730 C 0.55205 0.88793 0.96543 0.0
C1731 C 0.52041 0.87626 0.97325 0.0
C1732 C 0.50341 0.86126 0.97215 0.0
C1733 C 0.5508 0.90582 0.97413 0.0
C1734 C 0.53416 0.9089 0.98258 0.0
C1735 C 0.51933 0.89402 0.9823 0.0
C1736 C 0.53096 0.92791 0.98975 0.0
C1737 C 0.5669 0.92148 0.97337 0.0
C1738 C 0.54226 0.93821 0.00527 0.0
C1739 C 0.53948 0.95653 0.01107 0.0
C1740 C 0.52532 0.96475 0.00144 0.0
C1741 C 0.51368 0.95408 0.98635 0.0
C1742 C 0.51648 0.93589 0.98058 0.0
H1743 H 0.57718 0.9176 0.96327 0.0
H1744 H 0.56166 0.93436 0.96885 0.0
H1745 H 0.57436 0.92485 0.98794 0.0
H1746 H 0.5533 0.93216 0.01277 0.0
H1747 H 0.54862 0.96435 0.02281 0.0
H1748 H 0.97612 0.78036 0.69541 0.0
H1749 H 0.94846 0.78179 0.71358 0.0
H1750 H 0.92027 0.73134 0.68097 0.0
H1751 H 0.94779 0.72978 0.66283 0.0
H1752 H 0.912 0.78448 0.69769 0.0
H1753 H 0.91249 0.72079 0.73728 0.0
H1754 H 0.93284 0.7317 0.72651 0.0
H1755 H 0.91447 0.71643 0.71191 0.0
C1756 C 0.96409 0.76947 0.69227 0.0
C1757 C 0.9641 0.75494 0.67771 0.0
C1758 C 0.94833 0.77032 0.70265 0.0
C1759 C 0.93245 0.75652 0.69881 0.0
C1760 C 0.93253 0.74191 0.68443 0.0
H1761 H 0.81626 0.7505 0.70391 0.0
H1762 H 0.8492 0.75587 0.69736 0.0
C1763 C 0.94821 0.74111 0.67399 0.0
C1764 C 0.91526 0.75797 0.70882 0.0
H1765 H 0.88324 0.73305 0.73437 0.0
C1766 C 0.90586 0.7734 0.70601 0.0
C1767 C 0.90742 0.74366 0.7199 0.0
C1768 C 0.91741 0.7273 0.72427 0.0
C1769 C 0.88823 0.7743 0.71296 0.0
C1770 C 0.87977 0.75931 0.7228 0.0
C1771 C 0.8897 0.74447 0.72668 0.0
C1772 C 0.85993 0.75775 0.72732 0.0
C1773 C 0.87857 0.79104 0.70927 0.0
C1774 C 0.85502 0.75693 0.74637 0.0
C1775 C 0.83609 0.75388 0.7502 0.0
C1776 C 0.82186 0.75127 0.73496 0.0
C1777 C 0.82688 0.75241 0.71596 0.0
C1778 C 0.84571 0.75562 0.71219 0.0
H1779 H 0.88883 0.80352 0.70699 0.0
H1780 H 0.8688 0.78767 0.69604 0.0
H1781 H 0.8703 0.79466 0.72145 0.0
H1782 H 0.86583 0.75838 0.75822 0.0
H1783 H 0.83263 0.75297 0.76497 0.0
H1784 H 0.13742 0.00252 0.85179 0.0
H1785 H 0.11855 0.00148 0.87953 0.0
H1786 H 0.07212 0.01668 0.8447 0.0
H1787 H 0.09102 0.01805 0.81698 0.0
H1788 H 0.079 0.03775 0.87899 0.0
H1789 H 0.0754 0.96247 0.89119 0.0
H1790 H 0.09903 0.97398 0.89049 0.0
H1791 H 0.08291 0.9718 0.86925 0.0
C1792 C 0.12315 0.0055 0.85001 0.0
C1793 C 0.11569 0.01035 0.83221 0.0
C1794 C 0.11233 0.00476 0.86584 0.0
C1795 C 0.0938 0.00868 0.86411 0.0
C1796 C 0.08633 0.01347 0.84632 0.0
H1797 H 0.01975 0.99395 0.95846 0.0
H1798 H 0.03201 0.99156 0.92659 0.0
C1799 C 0.09715 0.01426 0.83051 0.0
C1800 C 0.08264 0.00886 0.88114 0.0
H1801 H 0.0671 0.98255 0.91711 0.0
C1802 C 0.07622 0.02561 0.88719 0.0
C1803 C 0.07872 0.99294 0.89167 0.0
C1804 C 0.0842 0.97422 0.88522 0.0
C1805 C 0.06671 0.0271 0.90393 0.0
C1806 C 0.06383 0.01153 0.91511 0.0
C1807 C 0.0695 0.99453 0.90862 0.0
C1808 C 0.05608 0.01303 0.93416 0.0
C1809 C 0.05993 0.0454 0.90957 0.0
C1810 C 0.06566 0.0257 0.94899 0.0
C1811 C 0.05874 0.02712 0.96708 0.0
C1812 C 0.04211 0.01576 0.97085 0.0
C1813 C 0.03255 0.00294 0.95601 0.0
C1814 C 0.03954 0.00154 0.93782 0.0
H1815 H 0.058 0.05363 0.89691 0.0
H1816 H 0.04645 0.04298 0.91635 0.0
H1817 H 0.07055 0.054 0.92013 0.0
H1818 H 0.07866 0.03441 0.94662 0.0
H1819 H 0.06655 0.03708 0.97817 0.0
H1820 H 0.79289 0.34175 0.55769 0.0
H1821 H 0.79539 0.32067 0.58343 0.0
H1822 H 0.73819 0.3245 0.59525 0.0
H1823 H 0.73549 0.34529 0.56943 0.0
H1824 H 0.79156 0.32886 0.62167 0.0
H1825 H 0.73882 0.2682 0.59296 0.0
H1826 H 0.74814 0.28614 0.57806 0.0
H1827 H 0.72937 0.28986 0.59286 0.0
C1828 C 0.7808 0.33795 0.56568 0.0
C1829 C 0.76398 0.34513 0.56157 0.0
C1830 C 0.78224 0.32589 0.58032 0.0
C1831 C 0.76686 0.32073 0.59096 0.0
C1832 C 0.75006 0.32789 0.58685 0.0
H1833 H 0.73646 0.28418 0.69558 0.0
H1834 H 0.73971 0.29276 0.66274 0.0
C1835 C 0.7486 0.33991 0.57222 0.0
C1836 C 0.76868 0.30911 0.6074 0.0
H1837 H 0.74663 0.2712 0.62748 0.0
C1838 C 0.78206 0.316 0.6228 0.0
C1839 C 0.75633 0.29229 0.60873 0.0
C1840 C 0.74249 0.28358 0.59217 0.0
C1841 C 0.78248 0.30725 0.64008 0.0
C1842 C 0.76932 0.29111 0.64183 0.0
C1843 C 0.75668 0.2836 0.62605 0.0
C1844 C 0.76677 0.28353 0.6607 0.0
C1845 C 0.79615 0.31602 0.65678 0.0
C1846 C 0.78071 0.275 0.67017 0.0
C1847 C 0.77888 0.27003 0.68904 0.0
C1848 C 0.76314 0.27366 0.6986 0.0
C1849 C 0.74884 0.28137 0.68866 0.0
C1850 C 0.75062 0.28621 0.66987 0.0
H1851 H 0.80394 0.32975 0.65371 0.0
H1852 H 0.78864 0.31816 0.66991 0.0
H1853 H 0.8065 0.30645 0.65996 0.0
H1854 H 0.79319 0.27269 0.6632 0.0
H1855 H 0.7901 0.26407 0.69636 0.0
H1856 H 0.41566 0.04325 0.34134 0.0
H1857 H 0.43671 0.04467 0.37068 0.0
H1858 H 0.48152 0.03221 0.33652 0.0
H1859 H 0.46045 0.03041 0.30716 0.0
H1860 H 0.47669 0.00926 0.36499 0.0
H1861 H 0.48024 0.08276 0.39516 0.0
H1862 H 0.45647 0.07145 0.38973 0.0
H1863 H 0.47158 0.07506 0.37051 0.0
C1864 C 0.43008 0.04109 0.34008 0.0
C1865 C 0.4364 0.03665 0.32199 0.0
C1866 C 0.44214 0.04206 0.35684 0.0
C1867 C 0.46078 0.03883 0.35576 0.0
C1868 C 0.46724 0.03487 0.33766 0.0
H1869 H 0.53366 0.04354 0.46398 0.0
H1870 H 0.52364 0.04903 0.43069 0.0
C1871 C 0.45517 0.03383 0.32091 0.0
C1872 C 0.47284 0.03764 0.3736 0.0
H1873 H 0.48835 0.06062 0.41759 0.0
C1874 C 0.47954 0.02063 0.37634 0.0
C1875 C 0.47681 0.05255 0.3883 0.0
C1876 C 0.47106 0.07155 0.38571 0.0
C1877 C 0.48908 0.01773 0.39382 0.0
C1878 C 0.49174 0.03212 0.40903 0.0
C1879 C 0.48611 0.04954 0.40593 0.0
C1880 C 0.49842 0.02859 0.42876 0.0
C1881 C 0.49577 0.99908 0.39607 0.0
C1882 C 0.48747 0.01544 0.43861 0.0
C1883 C 0.49306 0.01233 0.45747 0.0
C1884 C 0.50974 0.02237 0.46695 0.0
C1885 C 0.5208 0.03552 0.45703 0.0
C1886 C 0.51509 0.0387 0.43807 0.0
H1887 H 0.49784 0.99199 0.38189 0.0
H1888 H 0.50916 0.00083 0.40537 0.0
H1889 H 0.48506 0.98978 0.40292 0.0
H1890 H 0.47438 0.00774 0.43178 0.0
H1891 H 0.48416 0.00214 0.46467 0.0
H1892 H 0.74982 0.68287 0.04436 0.0
H1893 H 0.74875 0.70066 0.07545 0.0
H1894 H 0.79236 0.67264 0.10047 0.0
H1895 H 0.79349 0.65476 0.0695 0.0
H1896 H 0.74126 0.68427 0.11142 0.0
H1897 H 0.81045 0.72979 0.11542 0.0
H1898 H 0.79879 0.7182 0.09303 0.0
H1899 H 0.81114 0.70527 0.10947 0.0
C1900 C 0.7593 0.68063 0.05645 0.0
C1901 C 0.77177 0.66745 0.05451 0.0
C1902 C 0.75864 0.69077 0.07418 0.0
C1903 C 0.77061 0.68809 0.09016 0.0
C1904 C 0.78321 0.6751 0.08821 0.0
H1905 H 0.77104 0.70275 0.21151 0.0
H1906 H 0.76663 0.69232 0.17721 0.0
C1907 C 0.78378 0.66485 0.07054 0.0
C1908 C 0.76937 0.69814 0.10917 0.0
H1909 H 0.79523 0.72798 0.14461 0.0
C1910 C 0.75295 0.69402 0.1186 0.0
C1911 C 0.78456 0.71101 0.11837 0.0
C1912 C 0.80219 0.71651 0.10852 0.0
C1913 C 0.75169 0.70176 0.13742 0.0
C1914 C 0.76727 0.71382 0.14702 0.0
C1915 C 0.78333 0.71866 0.13723 0.0
C1916 C 0.76784 0.72028 0.16771 0.0
C1917 C 0.73383 0.69672 0.14704 0.0
C1918 C 0.7699 0.73949 0.17374 0.0
C1919 C 0.77234 0.74553 0.19341 0.0
C1920 C 0.7731 0.73242 0.20729 0.0
C1921 C 0.77054 0.71319 0.20117 0.0
C1922 C 0.76791 0.70718 0.18157 0.0
H1923 H 0.72169 0.69169 0.13631 0.0
H1924 H 0.73559 0.68529 0.15651 0.0
H1925 H 0.7306 0.70894 0.15611 0.0
H1926 H 0.77001 0.74981 0.16321 0.0
H1927 H 0.77441 0.76044 0.1977 0.0
H1928 H 0.14707 0.01376 0.71493 0.0
H1929 H 0.13115 0.01265 0.68255 0.0
H1930 H 0.0774 0.00339 0.70615 0.0
H1931 H 0.0932 0.00434 0.73862 0.0
H1932 H 0.10154 0.9804 0.66449 0.0
H1933 H 0.07778 0.05048 0.67196 0.0
H1934 H 0.09759 0.04498 0.68668 0.0
H1935 H 0.07419 0.03528 0.69113 0.0
C1936 C 0.13186 0.01146 0.71323 0.0
C1937 C 0.12137 0.00913 0.7293 0.0
C1938 C 0.12281 0.01085 0.69475 0.0
C1939 C 0.10315 0.00813 0.69206 0.0
C1940 C 0.09261 0.0057 0.70802 0.0
H1941 H 0.02934 0.00518 0.58614 0.0
H1942 H 0.04173 0.00751 0.62009 0.0
C1943 C 0.10164 0.00616 0.72651 0.0
C1944 C 0.09373 0.00738 0.67243 0.0
H1945 H 0.06972 0.03248 0.6422 0.0
C1946 C 0.09453 0.99174 0.65959 0.0
C1947 C 0.08446 0.02213 0.66626 0.0
C1948 C 0.08343 0.03927 0.67962 0.0
C1949 C 0.08638 0.99048 0.64059 0.0
C1950 C 0.07768 0.00555 0.63414 0.0
C1951 C 0.07649 0.02102 0.64715 0.0
C1952 C 0.07034 0.00566 0.61376 0.0
C1953 C 0.08701 0.97293 0.62766 0.0
C1954 C 0.08244 0.00457 0.59902 0.0
C1955 C 0.07543 0.00315 0.57973 0.0
C1956 C 0.05619 0.00306 0.57477 0.0
C1957 C 0.04423 0.00519 0.58953 0.0
C1958 C 0.05126 0.00648 0.60891 0.0
H1959 H 0.0889 0.9608 0.63615 0.0
H1960 H 0.07397 0.96919 0.61786 0.0
H1961 H 0.09908 0.97534 0.61873 0.0
H1962 H 0.09729 0.00446 0.60245 0.0
H1963 H 0.08506 0.00178 0.5687 0.0
H1964 H 0.74615 0.37099 0.44791 0.0
H1965 H 0.7443 0.35173 0.41729 0.0
H1966 H 0.74984 0.30288 0.44807 0.0
H1967 H 0.75185 0.32205 0.47873 0.0
H1968 H 0.77536 0.30883 0.42063 0.0
H1969 H 0.70317 0.31174 0.38931 0.0
H1970 H 0.71608 0.33445 0.39733 0.0
H1971 H 0.71042 0.31766 0.41461 0.0
C1972 C 0.74668 0.3561 0.44814 0.0
C1973 C 0.7492 0.34803 0.46569 0.0
C1974 C 0.74549 0.34509 0.43065 0.0
C1975 C 0.74669 0.32584 0.43044 0.0
C1976 C 0.74875 0.31768 0.44795 0.0
H1977 H 0.74102 0.25522 0.32084 0.0
H1978 H 0.73564 0.26514 0.35418 0.0
C1979 C 0.74992 0.32866 0.46543 0.0
C1980 C 0.74766 0.31469 0.412 0.0
H1981 H 0.72489 0.30233 0.36731 0.0
C1982 C 0.76419 0.30713 0.40908 0.0
C1983 C 0.733 0.31232 0.39704 0.0
C1984 C 0.71458 0.31931 0.39975 0.0
C1985 C 0.76687 0.29815 0.39123 0.0
C1986 C 0.7527 0.29684 0.37592 0.0
C1987 C 0.73575 0.30347 0.3791 0.0
C1988 C 0.75604 0.29036 0.3561 0.0
C1989 C 0.78503 0.29058 0.38868 0.0
C1990 C 0.76917 0.30135 0.34626 0.0
C1991 C 0.77219 0.29584 0.32735 0.0
C1992 C 0.76214 0.27917 0.31787 0.0
C1993 C 0.74904 0.26807 0.3278 0.0
C1994 C 0.74591 0.27372 0.34678 0.0
H1995 H 0.79224 0.28832 0.40275 0.0
H1996 H 0.78252 0.27712 0.37946 0.0
H1997 H 0.79457 0.30082 0.3815 0.0
H1998 H 0.77694 0.31437 0.35317 0.0
H1999 H 0.78236 0.30475 0.32014 0.0
H2000 H 0.44709 0.05546 0.23298 0.0
H2001 H 0.46547 0.0556 0.20482 0.0
H2002 H 0.43345 0.00255 0.18206 0.0
H2003 H 0.41493 0.00234 0.21006 0.0
H2004 H 0.48738 0.02765 0.19034 0.0
H2005 H 0.42827 0.03831 0.13865 0.0
H2006 H 0.42784 0.04256 0.16441 0.0
H2007 H 0.42339 0.01897 0.15323 0.0
C2008 C 0.44394 0.04385 0.22195 0.0
C2009 C 0.42949 0.02896 0.22361 0.0
C2010 C 0.4545 0.04392 0.20595 0.0
C2011 C 0.45068 0.02916 0.19136 0.0
C2012 C 0.43643 0.01416 0.1931 0.0
H2013 H 0.51299 0.00274 0.09343 0.0
H2014 H 0.50024 0.00314 0.12507 0.0
C2015 C 0.42589 0.01407 0.20909 0.0
C2016 C 0.46132 0.02964 0.17407 0.0
H2017 H 0.4563 0.03243 0.12548 0.0
C2018 C 0.48065 0.02873 0.17614 0.0
C2019 C 0.45246 0.03121 0.15566 0.0
C2020 C 0.43188 0.03298 0.15277 0.0
C2021 C 0.49135 0.02914 0.16011 0.0
C2022 C 0.48239 0.03037 0.14166 0.0
C2023 C 0.4631 0.03142 0.13967 0.0
C2024 C 0.49265 0.03101 0.12411 0.0
C2025 C 0.51216 0.02858 0.16304 0.0
C2026 C 0.49282 0.04663 0.11329 0.0
C2027 C 0.49993 0.04639 0.09527 0.0
C2028 C 0.50698 0.03049 0.08769 0.0
C2029 C 0.50773 0.01522 0.09896 0.0
C2030 C 0.50051 0.01544 0.11704 0.0
H2031 H 0.51755 0.03174 0.17843 0.0
H2032 H 0.51499 0.01434 0.15825 0.0
H2033 H 0.52004 0.03877 0.15431 0.0
H2034 H 0.48682 0.05877 0.11852 0.0
H2035 H 0.49928 0.05844 0.08699 0.0
H2036 H 0.79317 0.68823 0.96855 0.0
H2037 H 0.79413 0.70669 0.9404 0.0
H2038 H 0.75677 0.662 0.90713 0.0
H2039 H 0.75563 0.64355 0.93517 0.0
H2040 H 0.8052 0.69741 0.90297 0.0
H2041 H 0.73069 0.70859 0.90059 0.0
H2042 H 0.74268 0.70079 0.92145 0.0
H2043 H 0.73386 0.68441 0.90108 0.0
C2044 C 0.78516 0.68235 0.95523 0.0
C2045 C 0.77423 0.66449 0.95409 0.0
C2046 C 0.78574 0.6929 0.93918 0.0
C2047 C 0.77529 0.68583 0.92179 0.0
C2048 C 0.76465 0.66786 0.92052 0.0
H2049 H 0.75507 0.71408 0.80665 0.0
H2050 H 0.75702 0.70084 0.83769 0.0
C2051 C 0.76409 0.6573 0.93653 0.0
C2052 C 0.77554 0.69711 0.90486 0.0
H2053 H 0.74695 0.71602 0.87299 0.0
C2054 C 0.79253 0.70169 0.89651 0.0
C2055 C 0.759 0.70275 0.89656 0.0
C2056 C 0.74055 0.69906 0.90546 0.0
C2057 C 0.79324 0.71101 0.87951 0.0
C2058 C 0.77656 0.71612 0.87089 0.0
C2059 C 0.7597 0.71204 0.8796 0.0
C2060 C 0.77593 0.72448 0.85211 0.0
C2061 C 0.81162 0.71462 0.87048 0.0
C2062 C 0.78587 0.74229 0.8499 0.0
C2063 C 0.78482 0.74997 0.83204 0.0
C2064 C 0.77373 0.73998 0.81615 0.0
C2065 C 0.76376 0.7222 0.81853 0.0
C2066 C 0.76483 0.71457 0.8363 0.0
H2067 H 0.82229 0.70669 0.87688 0.0
H2068 H 0.80956 0.71072 0.8547 0.0
H2069 H 0.81723 0.72981 0.87274 0.0
H2070 H 0.79428 0.7503 0.86202 0.0
H2071 H 0.79259 0.76373 0.83071 0.0
H2072 H 0.83164 0.10076 0.04558 0.0
H2073 H 0.85524 0.08012 0.04068 0.0
H2074 H 0.84182 0.07708 0.97918 0.0
H2075 H 0.81837 0.09803 0.98395 0.0
H2076 H 0.852 0.04355 0.02245 0.0
H2077 H 0.89848 0.09526 0.98532 0.0
H2078 H 0.87939 0.10177 0.99836 0.0
H2079 H 0.87467 0.08924 0.97492 0.0
C2080 C 0.83369 0.09568 0.03101 0.0
C2081 C 0.82329 0.10114 0.01514 0.0
C2082 C 0.84712 0.08384 0.02824 0.0
C2083 C 0.85043 0.07727 0.00957 0.0
C2084 C 0.83971 0.08227 0.99369 0.0
H2085 H 0.94838 0.02242 0.98501 0.0
H2086 H 0.91674 0.0309 0.97962 0.0
C2087 C 0.8263 0.09418 0.99645 0.0
C2088 C 0.86552 0.06566 0.00691 0.0
H2089 H 0.90924 0.06689 0.99104 0.0
C2090 C 0.86442 0.04853 0.01537 0.0
C2091 C 0.88164 0.07212 0.99752 0.0
C2092 C 0.88379 0.09065 0.98861 0.0
C2093 C 0.87935 0.03803 0.01534 0.0
C2094 C 0.89584 0.04499 0.00686 0.0
C2095 C 0.89653 0.06157 0.99747 0.0
C2096 C 0.91343 0.03688 0.00991 0.0
C2097 C 0.87751 0.01981 0.02481 0.0
C2098 C 0.92188 0.03723 0.02869 0.0
C2099 C 0.93985 0.03255 0.03178 0.0
C2100 C 0.94978 0.02744 0.01613 0.0
C2101 C 0.94098 0.02618 0.99733 0.0
C2102 C 0.92297 0.03106 0.99424 0.0
H2103 H 0.86256 0.01339 0.02463 0.0
H2104 H 0.88541 0.00959 0.01757 0.0
H2105 H 0.88327 0.02261 0.0401 0.0
H2106 H 0.91495 0.04206 0.04096 0.0
H2107 H 0.94626 0.03362 0.04642 0.0
H2108 H 0.30967 0.44773 0.05029 0.0
H2109 H 0.34061 0.46709 0.05179 0.0
H2110 H 0.36622 0.41723 0.04168 0.0
H2111 H 0.33549 0.39782 0.04066 0.0
H2112 H 0.38648 0.44207 0.06956 0.0
H2113 H 0.3686 0.4787 0.00481 0.0
H2114 H 0.35363 0.48095 0.02402 0.0
H2115 H 0.35377 0.45833 0.0115 0.0
C2116 C 0.32193 0.44091 0.04852 0.0
C2117 C 0.32015 0.42127 0.04524 0.0
C2118 C 0.33957 0.45199 0.04925 0.0
C2119 C 0.35569 0.44364 0.04646 0.0
C2120 C 0.35398 0.42399 0.04378 0.0
H2121 H 0.46905 0.46653 0.02215 0.0
H2122 H 0.43731 0.45439 0.02937 0.0
C2123 C 0.33639 0.41291 0.04319 0.0
C2124 C 0.37436 0.45518 0.04591 0.0
H2125 H 0.39919 0.48703 0.01996 0.0
C2126 C 0.38921 0.45202 0.05882 0.0
C2127 C 0.37791 0.46821 0.0319 0.0
C2128 C 0.36271 0.47169 0.01715 0.0
C2129 C 0.40757 0.46114 0.05777 0.0
C2130 C 0.41119 0.47367 0.0434 0.0
C2131 C 0.39628 0.47746 0.03101 0.0
C2132 C 0.43059 0.48138 0.03973 0.0
C2133 C 0.42309 0.45703 0.07177 0.0
C2134 C 0.43724 0.50067 0.04296 0.0
C2135 C 0.45554 0.50773 0.03894 0.0
C2136 C 0.46729 0.49559 0.03134 0.0
C2137 C 0.46042 0.4763 0.02801 0.0
C2138 C 0.4423 0.46929 0.0322 0.0
H2139 H 0.4175 0.45084 0.08468 0.0
H2140 H 0.43101 0.44684 0.06453 0.0
H2141 H 0.43307 0.47 0.07651 0.0
H2142 H 0.42831 0.51023 0.04863 0.0
H2143 H 0.46039 0.52265 0.04158 0.0
H2144 H 0.33283 0.54579 0.75591 0.0
H2145 H 0.31447 0.57176 0.75827 0.0
H2146 H 0.36514 0.61145 0.7584 0.0
H2147 H 0.38361 0.58558 0.75637 0.0
H2148 H 0.34211 0.62112 0.78643 0.0
H2149 H 0.30163 0.60406 0.71495 0.0
H2150 H 0.30006 0.5853 0.73057 0.0
H2151 H 0.32219 0.59364 0.72165 0.0
C2152 C 0.34004 0.56006 0.75638 0.0
C2153 C 0.35965 0.56366 0.75585 0.0
C2154 C 0.32952 0.57487 0.75765 0.0
C2155 C 0.3384 0.59353 0.75825 0.0
C2156 C 0.35799 0.59715 0.7579 0.0
H2157 H 0.30122 0.69621 0.73393 0.0
H2158 H 0.31246 0.66603 0.73439 0.0
C2159 C 0.36853 0.58236 0.75669 0.0
C2160 C 0.3274 0.60937 0.75937 0.0
H2161 H 0.29413 0.62955 0.73448 0.0
C2162 C 0.33152 0.62292 0.77516 0.0
C2163 C 0.31367 0.61171 0.74456 0.0
C2164 C 0.30918 0.59802 0.72688 0.0
C2165 C 0.32256 0.63895 0.77636 0.0
C2166 C 0.30887 0.64131 0.76153 0.0
C2167 C 0.30448 0.62757 0.74594 0.0
C2168 C 0.30048 0.65887 0.76087 0.0
C2169 C 0.32843 0.65361 0.79305 0.0
C2170 C 0.28954 0.66469 0.77538 0.0
C2171 C 0.28307 0.68209 0.7752 0.0
C2172 C 0.28745 0.69388 0.76047 0.0
C2173 C 0.29772 0.68758 0.74558 0.0
C2174 C 0.30413 0.67027 0.74577 0.0
H2175 H 0.34161 0.65135 0.80121 0.0
H2176 H 0.33053 0.6679 0.78792 0.0
H2177 H 0.31721 0.65304 0.80312 0.0
H2178 H 0.28628 0.65593 0.787 0.0
H2179 H 0.27514 0.68653 0.78684 0.0
H2180 H 0.23261 0.58883 0.49476 0.0
H2181 H 0.20073 0.57134 0.49177 0.0
H2182 H 0.18881 0.60139 0.54408 0.0
H2183 H 0.22081 0.61837 0.54753 0.0
H2184 H 0.17337 0.56501 0.54214 0.0
H2185 H 0.15634 0.59517 0.47318 0.0
H2186 H 0.17559 0.582 0.47261 0.0
H2187 H 0.17776 0.60331 0.48818 0.0
C2188 C 0.22323 0.59154 0.50572 0.0
C2189 C 0.22909 0.60508 0.52127 0.0
C2190 C 0.20501 0.58163 0.50394 0.0
C2191 C 0.19226 0.5854 0.51745 0.0
C2192 C 0.19838 0.59833 0.53343 0.0
H2193 H 0.07235 0.5724 0.50036 0.0
H2194 H 0.10613 0.58284 0.50529 0.0
C2195 C 0.21666 0.60804 0.53536 0.0
C2196 C 0.17231 0.57663 0.5146 0.0
H2197 H 0.13279 0.5732 0.48383 0.0
C2198 C 0.16448 0.56673 0.52937 0.0
C2199 C 0.1607 0.57915 0.49803 0.0
C2200 C 0.16794 0.59063 0.48217 0.0
C2201 C 0.14529 0.55946 0.52815 0.0
C2202 C 0.13377 0.56174 0.51146 0.0
C2203 C 0.14168 0.57138 0.49657 0.0
C2204 C 0.11326 0.55521 0.50945 0.0
C2205 C 0.13745 0.55005 0.54504 0.0
C2206 C 0.10603 0.53619 0.51022 0.0
C2207 C 0.08665 0.53022 0.50765 0.0
C2208 C 0.07425 0.54312 0.50391 0.0
C2209 C 0.08155 0.56212 0.50314 0.0
C2210 C 0.10085 0.5681 0.50595 0.0
H2211 H 0.14691 0.55383 0.55846 0.0
H2212 H 0.12345 0.55392 0.54766 0.0
H2213 H 0.13582 0.53459 0.5419 0.0
H2214 H 0.11536 0.52593 0.51245 0.0
H2215 H 0.08142 0.51545 0.50815 0.0
H2216 H 0.66229 0.93321 0.76504 0.0
H2217 H 0.68361 0.91067 0.7718 0.0
H2218 H 0.72876 0.95616 0.78848 0.0
H2219 H 0.70751 0.97887 0.78142 0.0
H2220 H 0.73935 0.92945 0.76406 0.0
H2221 H 0.70435 0.89565 0.82296 0.0
H2222 H 0.68804 0.89581 0.80235 0.0
H2223 H 0.69909 0.91771 0.81498 0.0
C2224 C 0.67672 0.93843 0.77026 0.0
C2225 C 0.68323 0.95779 0.77273 0.0
C2226 C 0.68885 0.92554 0.77429 0.0
C2227 C 0.70767 0.93175 0.78106 0.0
C2228 C 0.71424 0.95109 0.78348 0.0
H2229 H 0.76723 0.8366 0.80535 0.0
H2230 H 0.75936 0.86852 0.81069 0.0
C2231 C 0.7021 0.96401 0.7794 0.0
C2232 C 0.72062 0.9179 0.78429 0.0
H2233 H 0.72376 0.877 0.805 0.0
C2234 C 0.7362 0.9182 0.77335 0.0
C2235 C 0.71685 0.9035 0.79678 0.0
C2236 C 0.70128 0.90326 0.81009 0.0
C2237 C 0.74709 0.9036 0.77331 0.0
C2238 C 0.74203 0.88818 0.78421 0.0
C2239 C 0.7275 0.88871 0.79644 0.0
C2240 C 0.74955 0.87028 0.78091 0.0
C2241 C 0.76349 0.9045 0.76103 0.0
C2242 C 0.74678 0.86082 0.76243 0.0
C2243 C 0.75115 0.84274 0.7594 0.0
C2244 C 0.7583 0.83364 0.7748 0.0
C2245 C 0.76183 0.84335 0.7932 0.0
C2246 C 0.75732 0.86152 0.79627 0.0
H2247 H 0.76978 0.91928 0.7598 0.0
H2248 H 0.77454 0.89678 0.76702 0.0
H2249 H 0.75851 0.89812 0.74628 0.0
H2250 H 0.74037 0.86707 0.75046 0.0
H2251 H 0.74832 0.83565 0.74503 0.0
H2252 H 0.70776 0.90968 0.55399 0.0
H2253 H 0.68222 0.92857 0.55198 0.0
H2254 H 0.70916 0.95954 0.50855 0.0
H2255 H 0.73482 0.94067 0.51044 0.0
H2256 H 0.68538 0.96955 0.55759 0.0
H2257 H 0.65445 0.94001 0.48438 0.0
H2258 H 0.6701 0.92818 0.49886 0.0
H2259 H 0.67926 0.94841 0.48716 0.0
C2260 C 0.70826 0.9205 0.54399 0.0
C2261 C 0.72326 0.92365 0.53232 0.0
C2262 C 0.69367 0.93129 0.54289 0.0
C2263 C 0.69373 0.94532 0.53 0.0
C2264 C 0.70875 0.94862 0.51842 0.0
H2265 H 0.60121 0.00956 0.50454 0.0
H2266 H 0.63221 0.99922 0.5048 0.0
C2267 C 0.72341 0.93788 0.51958 0.0
C2268 C 0.67801 0.95645 0.52883 0.0
H2269 H 0.63933 0.96269 0.50025 0.0
C2270 C 0.67538 0.96818 0.54501 0.0
C2271 C 0.66513 0.95477 0.51231 0.0
C2272 C 0.6672 0.9421 0.49468 0.0
C2273 C 0.65995 0.978 0.54528 0.0
C2274 C 0.64657 0.97565 0.5291 0.0
C2275 C 0.6496 0.96447 0.51263 0.0
C2276 C 0.62852 0.9832 0.52963 0.0
C2277 C 0.65809 0.9907 0.56295 0.0
C2278 C 0.61618 0.97761 0.54344 0.0
C2279 C 0.5986 0.98348 0.54335 0.0
C2280 C 0.59283 0.99496 0.52932 0.0
C2281 C 0.60528 0.0008 0.5156 0.0
C2282 C 0.62295 0.99488 0.5157 0.0
H2283 H 0.67201 0.99593 0.57083 0.0
H2284 H 0.65127 0.00294 0.55915 0.0
H2285 H 0.64937 0.98269 0.5729 0.0
H2286 H 0.61994 0.96825 0.55404 0.0
H2287 H 0.58937 0.97866 0.55411 0.0
H2288 H 0.36073 0.46065 0.71729 0.0
H2289 H 0.34166 0.4295 0.7149 0.0
H2290 H 0.33059 0.43795 0.77457 0.0
H2291 H 0.34919 0.46914 0.77691 0.0
H2292 H 0.34787 0.40003 0.73428 0.0
H2293 H 0.27856 0.41851 0.74996 0.0
H2294 H 0.29754 0.43571 0.74408 0.0
H2295 H 0.29648 0.42884 0.76832 0.0
C2296 C 0.35402 0.45593 0.72981 0.0
C2297 C 0.35641 0.46735 0.74727 0.0
C2298 C 0.34313 0.43816 0.72843 0.0
C2299 C 0.33439 0.43152 0.74445 0.0
C2300 C 0.33673 0.44296 0.76186 0.0
H2301 H 0.30894 0.32079 0.77774 0.0
H2302 H 0.32168 0.35252 0.77118 0.0
C2303 C 0.34752 0.46073 0.76322 0.0
C2304 C 0.32407 0.41212 0.74354 0.0
H2305 H 0.28328 0.38666 0.75476 0.0
C2306 C 0.33364 0.39712 0.73847 0.0
C2307 C 0.30537 0.40828 0.74865 0.0
C2308 C 0.29383 0.42371 0.75285 0.0
C2309 C 0.32542 0.37843 0.73941 0.0
C2310 C 0.3073 0.37466 0.746 0.0
C2311 C 0.29729 0.38958 0.75 0.0
C2312 C 0.29908 0.35547 0.75002 0.0
C2313 C 0.33633 0.36292 0.73353 0.0
C2314 C 0.28172 0.3468 0.74083 0.0
C2315 C 0.27423 0.32859 0.74471 0.0
C2316 C 0.28396 0.31884 0.75791 0.0
C2317 C 0.30112 0.3278 0.76737 0.0
C2318 C 0.30853 0.34592 0.76353 0.0
H2319 H 0.34669 0.36752 0.72318 0.0
H2320 H 0.34422 0.35897 0.74649 0.0
H2321 H 0.32686 0.35026 0.72685 0.0
H2322 H 0.27412 0.35402 0.73049 0.0
H2323 H 0.26097 0.32211 0.73723 0.0
H2324 H 0.1731 0.56605 0.30199 0.0
H2325 H 0.18923 0.59835 0.30365 0.0
H2326 H 0.20263 0.58978 0.24476 0.0
H2327 H 0.18647 0.55733 0.24295 0.0
H2328 H 0.22812 0.6122 0.29561 0.0
H2329 H 0.17292 0.63595 0.24721 0.0
H2330 H 0.16875 0.6145 0.25904 0.0
H2331 H 0.18261 0.61554 0.23874 0.0
C2332 C 0.17957 0.57099 0.28942 0.0
C2333 C 0.17845 0.55923 0.2723 0.0
C2334 C 0.18881 0.58941 0.29041 0.0
C2335 C 0.19695 0.59642 0.27428 0.0
C2336 C 0.19627 0.58462 0.2573 0.0
H2337 H 0.26333 0.70886 0.27808 0.0
H2338 H 0.25306 0.67501 0.27121 0.0
C2339 C 0.18709 0.56611 0.25631 0.0
C2340 C 0.20554 0.61633 0.27523 0.0
H2341 H 0.19798 0.65881 0.26037 0.0
C2342 C 0.22171 0.6224 0.28774 0.0
C2343 C 0.19696 0.62951 0.26505 0.0
C2344 C 0.17928 0.62369 0.25181 0.0
C2345 C 0.22937 0.64147 0.29062 0.0
C2346 C 0.22062 0.65468 0.28066 0.0
C2347 C 0.20467 0.64856 0.26787 0.0
C2348 C 0.22692 0.67507 0.28448 0.0
C2349 C 0.24631 0.6475 0.30483 0.0
C2350 C 0.21548 0.68624 0.29397 0.0
C2351 C 0.22128 0.70548 0.29795 0.0
C2352 C 0.23858 0.71394 0.29235 0.0
C2353 C 0.24994 0.70274 0.28261 0.0
C2354 C 0.24415 0.68342 0.27873 0.0
H2355 H 0.24982 0.63584 0.31331 0.0
H2356 H 0.2586 0.65248 0.29694 0.0
H2357 H 0.24385 0.65933 0.31495 0.0
H2358 H 0.20212 0.68 0.29848 0.0
H2359 H 0.21217 0.71372 0.30539 0.0
H2360 H 0.52738 0.69398 0.40081 0.0
H2361 H 0.53085 0.6672 0.41958 0.0
H2362 H 0.51447 0.69727 0.46976 0.0
H2363 H 0.51045 0.72394 0.45088 0.0
H2364 H 0.55365 0.66434 0.45195 0.0
H2365 H 0.47861 0.64851 0.46666 0.0
H2366 H 0.48646 0.66453 0.44926 0.0
H2367 H 0.48972 0.67193 0.47459 0.0
C2368 C 0.52444 0.69486 0.41582 0.0
C2369 C 0.51848 0.71097 0.42434 0.0
C2370 C 0.52649 0.67958 0.42655 0.0
C2371 C 0.52268 0.68013 0.446 0.0
C2372 C 0.51709 0.69637 0.45466 0.0
H2373 H 0.51985 0.58591 0.51946 0.0
H2374 H 0.52385 0.61845 0.51052 0.0
C2375 C 0.51487 0.71162 0.44389 0.0
C2376 C 0.52447 0.66357 0.457 0.0
H2377 H 0.49923 0.62943 0.47986 0.0
C2378 C 0.54178 0.6568 0.45819 0.0
C2379 C 0.509 0.65378 0.46522 0.0
C2380 C 0.48985 0.65992 0.46378 0.0
C2381 C 0.54389 0.64022 0.46689 0.0
C2382 C 0.52828 0.63015 0.47452 0.0
C2383 C 0.5112 0.6373 0.47409 0.0
C2384 C 0.52863 0.61109 0.48087 0.0
C2385 C 0.5627 0.6334 0.46756 0.0
C2386 C 0.53024 0.5963 0.46721 0.0
C2387 C 0.5278 0.57782 0.4722 0.0
C2388 C 0.52378 0.57377 0.49098 0.0
C2389 C 0.52309 0.58866 0.50493 0.0
C2390 C 0.5253 0.6072 0.49984 0.0
H2391 H 0.57428 0.64499 0.46615 0.0
H2392 H 0.56555 0.62692 0.48121 0.0
H2393 H 0.56266 0.62259 0.4554 0.0
H2394 H 0.5325 0.59898 0.45243 0.0
H2395 H 0.52843 0.56662 0.46117 0.0
H2396 H 0.59025 0.26506 0.65946 0.0
H2397 H 0.6198 0.26757 0.67956 0.0
H2398 H 0.59876 0.30366 0.72216 0.0
H2399 H 0.56894 0.30096 0.70221 0.0
H2400 H 0.64548 0.29934 0.69325 0.0
H2401 H 0.61523 0.26203 0.75348 0.0
H2402 H 0.60247 0.26152 0.73018 0.0
H2403 H 0.60481 0.28206 0.74681 0.0
C2404 C 0.59191 0.27356 0.67308 0.0
C2405 C 0.57726 0.28273 0.67932 0.0
C2406 C 0.60881 0.275 0.68454 0.0
C2407 C 0.61136 0.28559 0.70246 0.0
C2408 C 0.59693 0.29514 0.70854 0.0
H2409 H 0.71249 0.29219 0.78375 0.0
H2410 H 0.68243 0.2992 0.76928 0.0
C2411 C 0.57997 0.29367 0.69709 0.0
C2412 C 0.62918 0.28637 0.71464 0.0
H2413 H 0.64791 0.27164 0.75624 0.0
C2414 C 0.646 0.29348 0.70712 0.0
C2415 C 0.62979 0.2788 0.73279 0.0
C2416 C 0.61216 0.27053 0.74131 0.0
C2417 C 0.66345 0.29265 0.71696 0.0
C2418 C 0.66407 0.28432 0.73465 0.0
C2419 C 0.6473 0.27803 0.74266 0.0
C2420 C 0.68192 0.28011 0.74382 0.0
C2421 C 0.68114 0.30023 0.70812 0.0
C2422 C 0.69123 0.26679 0.73445 0.0
C2423 C 0.70817 0.26268 0.74266 0.0
C2424 C 0.71621 0.27184 0.76044 0.0
C2425 C 0.70668 0.28496 0.77002 0.0
C2426 C 0.68956 0.28898 0.76179 0.0
H2427 H 0.67845 0.31047 0.6975 0.0
H2428 H 0.6921 0.30713 0.7194 0.0
H2429 H 0.68671 0.28845 0.70049 0.0
H2430 H 0.68538 0.25959 0.72071 0.0
H2431 H 0.71506 0.25245 0.73489 0.0
H2432 H 0.00778 0.29786 0.95443 0.0
H2433 H 0.00569 0.32815 0.972 0.0
H2434 H 0.01566 0.35609 0.92037 0.0
H2435 H 0.01769 0.32609 0.90281 0.0
H2436 H 0.03343 0.36097 0.97701 0.0
H2437 H 0.96779 0.37465 0.93824 0.0
H2438 H 0.97473 0.35156 0.93791 0.0
H2439 H 0.98462 0.36832 0.92221 0.0
C2440 C 0.00949 0.31048 0.94686 0.0
C2441 C 0.01284 0.30963 0.92724 0.0
C2442 C 0.00826 0.32772 0.95689 0.0
C2443 C 0.01014 0.34425 0.94736 0.0
C2444 C 0.01373 0.34342 0.92786 0.0
H2445 H 0.0304 0.46044 0.95693 0.0
H2446 H 0.02215 0.42667 0.94925 0.0
C2447 C 0.01504 0.32628 0.91789 0.0
C2448 C 0.0092 0.36266 0.95772 0.0
H2449 H 0.98796 0.40169 0.95427 0.0
C2450 C 0.02324 0.36977 0.97243 0.0
C2451 C 0.99578 0.37399 0.95174 0.0
C2452 C 0.97976 0.36668 0.93679 0.0
C2453 C 0.02511 0.38848 0.98025 0.0
C2454 C 0.01244 0.40018 0.9733 0.0
C2455 C 0.99768 0.39268 0.9595 0.0
C2456 C 0.0158 0.42071 0.97818 0.0
C2457 C 0.04133 0.39598 0.99493 0.0
C2458 C 0.01453 0.42858 0.99694 0.0
C2459 C 0.01922 0.44799 0.00141 0.0
C2460 C 0.02532 0.45972 0.98716 0.0
C2461 C 0.0259 0.45179 0.96826 0.0
C2462 C 0.02114 0.43249 0.96382 0.0
H2463 H 0.05112 0.38562 0.99713 0.0
H2464 H 0.04931 0.40899 0.99034 0.0
H2465 H 0.03587 0.39958 0.00896 0.0
H2466 H 0.01021 0.41969 0.00815 0.0
H2467 H 0.01861 0.45372 0.01609 0.0
H2468 H 0.9919 0.75468 0.19288 0.0
H2469 H 0.96282 0.75015 0.20916 0.0
H2470 H 0.93755 0.7844 0.16965 0.0
H2471 H 0.9664 0.7888 0.15319 0.0
H2472 H 0.94399 0.77701 0.22726 0.0
H2473 H 0.89916 0.73655 0.16615 0.0
H2474 H 0.92448 0.74023 0.16698 0.0
H2475 H 0.91137 0.75828 0.15959 0.0
C2476 C 0.98011 0.76119 0.18764 0.0
C2477 C 0.98136 0.772 0.17169 0.0
C2478 C 0.96354 0.75859 0.19696 0.0
C2479 C 0.94795 0.76666 0.19039 0.0
C2480 C 0.94929 0.7777 0.17467 0.0
H2481 H 0.84156 0.78838 0.21882 0.0
H2482 H 0.87215 0.7858 0.20724 0.0
C2483 C 0.96581 0.78029 0.16536 0.0
C2484 C 0.93034 0.76398 0.20015 0.0
H2485 H 0.88312 0.74995 0.19143 0.0
C2486 C 0.9307 0.7708 0.21956 0.0
C2487 C 0.91308 0.75572 0.1901 0.0
C2488 C 0.91198 0.7471 0.16961 0.0
C2489 C 0.91405 0.77058 0.22883 0.0
C2490 C 0.89673 0.76323 0.21842 0.0
C2491 C 0.89647 0.75565 0.19931 0.0
C2492 C 0.87858 0.76493 0.22638 0.0
C2493 C 0.91491 0.77902 0.24935 0.0
C2494 C 0.87211 0.75405 0.24107 0.0
C2495 C 0.85448 0.75544 0.24776 0.0
C2496 C 0.84314 0.76774 0.23981 0.0
C2497 C 0.84988 0.77875 0.22527 0.0
C2498 C 0.86737 0.7773 0.2186 0.0
H2499 H 0.92932 0.78572 0.25483 0.0
H2500 H 0.90529 0.78968 0.25042 0.0
H2501 H 0.91019 0.76786 0.25879 0.0
H2502 H 0.88055 0.7443 0.24712 0.0
H2503 H 0.84965 0.74675 0.25894 0.0
H2504 H 0.51768 0.28564 0.08471 0.0
H2505 H 0.52125 0.31344 0.06644 0.0
H2506 H 0.5194 0.34875 0.11862 0.0
H2507 H 0.516 0.32106 0.13701 0.0
H2508 H 0.49589 0.33871 0.06294 0.0
H2509 H 0.56532 0.3749 0.09481 0.0
H2510 H 0.55716 0.35046 0.09746 0.0
H2511 H 0.54933 0.36854 0.11258 0.0
C2512 C 0.51824 0.29935 0.09232 0.0
C2513 C 0.51658 0.3012 0.11229 0.0
C2514 C 0.52027 0.31519 0.08186 0.0
C2515 C 0.52086 0.33315 0.09122 0.0
C2516 C 0.51939 0.33505 0.11119 0.0
H2517 H 0.49044 0.43502 0.05661 0.0
H2518 H 0.49279 0.40387 0.06694 0.0
C2519 C 0.51732 0.31921 0.12166 0.0
C2520 C 0.52171 0.34982 0.07997 0.0
H2521 H 0.54603 0.39358 0.07737 0.0
C2522 C 0.507 0.3506 0.06589 0.0
C2523 C 0.53635 0.3652 0.08363 0.0
C2524 C 0.55304 0.36471 0.0978 0.0
C2525 C 0.50602 0.36677 0.0561 0.0
C2526 C 0.52 0.38259 0.06069 0.0
C2527 C 0.53525 0.38146 0.074 0.0
C2528 C 0.51819 0.40092 0.05313 0.0
C2529 C 0.48984 0.36691 0.04118 0.0
C2530 C 0.53182 0.40966 0.04205 0.0
C2531 C 0.53052 0.42757 0.03607 0.0
C2532 C 0.51572 0.43705 0.04137 0.0
C2533 C 0.50202 0.42811 0.05228 0.0
C2534 C 0.50326 0.41024 0.05811 0.0
H2535 H 0.4837 0.35245 0.0353 0.0
H2536 H 0.47865 0.37344 0.04797 0.0
H2537 H 0.49433 0.37518 0.02909 0.0
H2538 H 0.54352 0.40271 0.0382 0.0
H2539 H 0.54134 0.43416 0.02776 0.0
H2540 H 0.98829 0.29181 0.34122 0.0
H2541 H 0.95765 0.29478 0.32489 0.0
H2542 H 0.93019 0.25641 0.36208 0.0
H2543 H 0.96062 0.2532 0.37829 0.0
H2544 H 0.92791 0.26123 0.30728 0.0
H2545 H 0.90544 0.3073 0.36572 0.0
H2546 H 0.92984 0.30597 0.36247 0.0
H2547 H 0.91592 0.28757 0.37327 0.0
C2548 C 0.97571 0.284 0.34587 0.0
C2549 C 0.97682 0.27228 0.36104 0.0
C2550 C 0.95827 0.28571 0.33654 0.0
C2551 C 0.94175 0.27595 0.34245 0.0
C2552 C 0.94284 0.26418 0.35747 0.0
H2553 H 0.82498 0.25079 0.32468 0.0
H2554 H 0.85824 0.25829 0.33522 0.0
C2555 C 0.96021 0.26231 0.36666 0.0
C2556 C 0.92321 0.27768 0.3329 0.0
H2557 H 0.88164 0.29239 0.34194 0.0
C2558 C 0.91784 0.26832 0.3146 0.0
C2559 C 0.91024 0.28699 0.34259 0.0
C2560 C 0.91561 0.29768 0.36205 0.0
C2561 C 0.89934 0.267 0.30624 0.0
C2562 C 0.88609 0.2756 0.31635 0.0
C2563 C 0.89181 0.28581 0.33421 0.0
C2564 C 0.86579 0.27225 0.30989 0.0
C2565 C 0.89385 0.25544 0.28725 0.0
C2566 C 0.85888 0.27792 0.29225 0.0
C2567 C 0.83974 0.27354 0.28608 0.0
C2568 C 0.82725 0.26351 0.29753 0.0
C2569 C 0.83419 0.25843 0.31544 0.0
C2570 C 0.85323 0.26276 0.32154 0.0
H2571 H 0.90492 0.24709 0.28302 0.0
H2572 H 0.8806 0.2457 0.28798 0.0
H2573 H 0.89147 0.2649 0.27579 0.0
H2574 H 0.8683 0.28556 0.2832 0.0
H2575 H 0.83479 0.27772 0.27226 0.0
H2576 H 0.98401 0.71048 0.5878 0.0
H2577 H 0.98138 0.68027 0.56841 0.0
H2578 H 0.02234 0.66249 0.60844 0.0
H2579 H 0.02493 0.69239 0.62785 0.0
H2580 H 0.01015 0.66339 0.55082 0.0
H2581 H 0.97767 0.61976 0.60501 0.0
H2582 H 0.97832 0.64491 0.60616 0.0
H2583 H 0.99857 0.63503 0.61475 0.0
C2584 C 0.99239 0.70008 0.59246 0.0
C2585 C 0.00458 0.70373 0.6094 0.0
C2586 C 0.99089 0.68288 0.58138 0.0
C2587 C 0.00143 0.66907 0.58719 0.0
C2588 C 0.01379 0.67283 0.60392 0.0
H2589 H 0.0355 0.56602 0.55505 0.0
H2590 H 0.02976 0.59687 0.56751 0.0
C2591 C 0.01532 0.68995 0.61495 0.0
C2592 C -7e-05 0.65074 0.57576 0.0
H2593 H 0.99208 0.60359 0.58016 0.0
C2594 C 0.00585 0.65029 0.55703 0.0
C2595 C 0.99417 0.6337 0.58389 0.0
C2596 C 0.98664 0.63333 0.60349 0.0
C2597 C 0.0073 0.63317 0.54671 0.0
C2598 C 0.00261 0.61623 0.55536 0.0
C2599 C 0.99577 0.61666 0.57365 0.0
C2600 C 0.00642 0.59805 0.54662 0.0
C2601 C 0.01477 0.63327 0.5271 0.0
C2602 C 0.99524 0.58858 0.5306 0.0
C2603 C 0.99842 0.57077 0.52343 0.0
C2604 C 0.0128 0.56223 0.53224 0.0
C2605 C 0.0242 0.57206 0.548 0.0
C2606 C 0.02098 0.58973 0.55514 0.0
H2607 H 0.01902 0.64773 0.52295 0.0
H2608 H 0.02707 0.62563 0.52689 0.0
H2609 H 0.00381 0.62583 0.51612 0.0
H2610 H 0.98384 0.59477 0.52394 0.0
H2611 H 0.98939 0.56356 0.51128 0.0
H2612 H 0.56913 0.78937 0.84582 0.0
H2613 H 0.59673 0.78826 0.82757 0.0
H2614 H 0.61305 0.74455 0.8612 0.0
H2615 H 0.58546 0.7455 0.87941 0.0
H2616 H 0.63376 0.79536 0.84304 0.0
H2617 H 0.61774 0.72387 0.80561 0.0
H2618 H 0.60006 0.7357 0.81623 0.0
H2619 H 0.61562 0.72432 0.83112 0.0
C2620 C 0.57851 0.77941 0.8492 0.0
C2621 C 0.57516 0.76753 0.86405 0.0
C2622 C 0.59424 0.77877 0.83875 0.0
C2623 C 0.60676 0.76612 0.84282 0.0
C2624 C 0.60334 0.75413 0.85753 0.0
H2625 H 0.72353 0.77268 0.83123 0.0
H2626 H 0.69153 0.7707 0.84063 0.0
C2627 C 0.58767 0.7548 0.86804 0.0
C2628 C 0.6242 0.76648 0.83282 0.0
H2629 H 0.64977 0.73884 0.80689 0.0
C2630 C 0.63714 0.78308 0.83492 0.0
C2631 C 0.6285 0.75051 0.82203 0.0
C2632 C 0.61467 0.73263 0.81842 0.0
C2633 C 0.65463 0.78389 0.82728 0.0
C2634 C 0.65939 0.7676 0.8175 0.0
C2635 C 0.64613 0.75124 0.81458 0.0
C2636 C 0.67854 0.76711 0.81142 0.0
C2637 C 0.66802 0.80212 0.83001 0.0
C2638 C 0.68177 0.76495 0.79184 0.0
C2639 C 0.70017 0.766 0.78636 0.0
C2640 C 0.71551 0.76919 0.80043 0.0
C2641 C 0.71206 0.77048 0.82001 0.0
C2642 C 0.69378 0.76939 0.82544 0.0
H2643 H 0.66055 0.81432 0.83295 0.0
H2644 H 0.67831 0.80166 0.84252 0.0
H2645 H 0.67591 0.80436 0.81709 0.0
H2646 H 0.67013 0.76304 0.78083 0.0
H2647 H 0.70239 0.76491 0.77117 0.0
H2648 H 0.45224 0.52936 0.72649 0.0
H2649 H 0.47258 0.53331 0.70002 0.0
H2650 H 0.42374 0.52808 0.65945 0.0
H2651 H 0.40337 0.52445 0.68582 0.0
H2652 H 0.47471 0.50895 0.66854 0.0
H2653 H 0.45489 0.57541 0.64472 0.0
H2654 H 0.44908 0.56687 0.66754 0.0
H2655 H 0.43486 0.55779 0.64569 0.0
C2656 C 0.44585 0.52919 0.71193 0.0
C2657 C 0.4262 0.52669 0.70823 0.0
C2658 C 0.45749 0.53144 0.69684 0.0
C2659 C 0.44971 0.53134 0.67779 0.0
C2660 C 0.43008 0.52869 0.67407 0.0
H2661 H 0.47816 0.52182 0.5628 0.0
H2662 H 0.46481 0.52501 0.5937 0.0
C2663 C 0.41845 0.52649 0.68915 0.0
C2664 C 0.46198 0.53313 0.66166 0.0
H2665 H 0.47043 0.55745 0.62225 0.0
C2666 C 0.47403 0.51974 0.65859 0.0
C2667 C 0.46118 0.5473 0.64877 0.0
C2668 C 0.44945 0.56277 0.65194 0.0
C2669 C 0.48449 0.51954 0.64239 0.0
C2670 C 0.48297 0.53317 0.62905 0.0
C2671 C 0.47152 0.54699 0.63251 0.0
C2672 C 0.4916 0.53217 0.61045 0.0
C2673 C 0.49636 0.5042 0.63911 0.0
C2674 C 0.51117 0.53544 0.6096 0.0
C2675 C 0.51893 0.53371 0.59183 0.0
C2676 C 0.50721 0.52858 0.5747 0.0
C2677 C 0.48763 0.52568 0.57569 0.0
C2678 C 0.47993 0.52754 0.59335 0.0
H2679 H 0.49415 0.49333 0.64951 0.0
H2680 H 0.49316 0.49733 0.62424 0.0
H2681 H 0.51142 0.51042 0.64069 0.0
H2682 H 0.52039 0.53922 0.62267 0.0
H2683 H 0.53406 0.53603 0.59154 0.0
H2684 H 0.81241 0.18832 0.98635 0.0
H2685 H 0.81076 0.21213 0.96328 0.0
H2686 H 0.75145 0.19292 0.95065 0.0
H2687 H 0.75291 0.16942 0.97398 0.0
H2688 H 0.8008 0.20671 0.92502 0.0
H2689 H 0.75236 0.24901 0.95969 0.0
H2690 H 0.76369 0.23207 0.97214 0.0
H2691 H 0.7429 0.22455 0.95605 0.0
C2692 C 0.79901 0.18925 0.97871 0.0
C2693 C 0.78278 0.17706 0.98197 0.0
C2694 C 0.79807 0.20288 0.9656 0.0
C2695 C 0.78091 0.20456 0.95557 0.0
C2696 C 0.76473 0.19225 0.95865 0.0
H2697 H 0.7428 0.25121 0.85482 0.0
H2698 H 0.74618 0.23761 0.88569 0.0
C2699 C 0.76563 0.17869 0.97183 0.0
C2700 C 0.7801 0.21833 0.94092 0.0
H2701 H 0.75657 0.25337 0.92635 0.0
C2702 C 0.79137 0.21713 0.92547 0.0
C2703 C 0.76779 0.23193 0.94158 0.0
C2704 C 0.75614 0.23462 0.95837 0.0
C2705 C 0.79005 0.22857 0.9102 0.0
C2706 C 0.77726 0.24168 0.91053 0.0
C2707 C 0.76636 0.24329 0.92621 0.0
C2708 C 0.77405 0.25266 0.89388 0.0
C2709 C 0.80173 0.22597 0.89339 0.0
C2710 C 0.78829 0.26627 0.88877 0.0
C2711 C 0.7864 0.27411 0.87113 0.0
C2712 C 0.77028 0.26837 0.85836 0.0
C2713 C 0.75546 0.25581 0.86426 0.0
C2714 C 0.75734 0.24805 0.8819 0.0
H2715 H 0.8087 0.21324 0.89399 0.0
H2716 H 0.79289 0.22489 0.87954 0.0
H2717 H 0.81278 0.23836 0.89351 0.0
H2718 H 0.80121 0.27012 0.89798 0.0
H2719 H 0.79804 0.28381 0.86706 0.0
H2720 H 0.0947 0.52124 0.22967 0.0
H2721 H 0.07448 0.52069 0.19998 0.0
H2722 H 0.11105 0.48892 0.16943 0.0
H2723 H 0.1311 0.48896 0.19932 0.0
H2724 H 0.08328 0.5357 0.16773 0.0
H2725 H 0.06024 0.4594 0.15132 0.0
H2726 H 0.07157 0.4693 0.17446 0.0
H2727 H 0.08533 0.4652 0.1545 0.0
C2728 C 0.09838 0.51402 0.21666 0.0
C2729 C 0.11449 0.50515 0.21678 0.0
C2730 C 0.08678 0.51367 0.19972 0.0
C2731 C 0.09107 0.5045 0.18256 0.0
C2732 C 0.10718 0.49565 0.18262 0.0
H2733 H 0.06669 0.52794 0.06745 0.0
H2734 H 0.07867 0.52476 0.10029 0.0
C2735 C 0.11873 0.49584 0.19964 0.0
C2736 C 0.07945 0.50545 0.16436 0.0
H2737 H 0.05589 0.47884 0.12524 0.0
C2738 C 0.07709 0.52324 0.15859 0.0
C2739 C 0.07107 0.4892 0.15258 0.0
C2740 C 0.072 0.4697 0.15862 0.0
C2741 C 0.06733 0.52525 0.14096 0.0
C2742 C 0.0601 0.50906 0.12858 0.0
C2743 C 0.06163 0.49123 0.13471 0.0
C2744 C 0.05242 0.51055 0.10863 0.0
C2745 C 0.06507 0.54473 0.1356 0.0
C2746 C 0.03377 0.50311 0.10227 0.0
C2747 C 0.0268 0.50482 0.0833 0.0
C2748 C 0.03848 0.5139 0.07049 0.0
C2749 C 0.05722 0.52104 0.07695 0.0
C2750 C 0.06412 0.5193 0.09577 0.0
H2751 H 0.06601 0.55477 0.1486 0.0
H2752 H 0.0765 0.54984 0.12663 0.0
H2753 H 0.05142 0.54477 0.12718 0.0
H2754 H 0.0246 0.49616 0.112 0.0
H2755 H 0.01234 0.4991 0.07871 0.0
H2756 H 0.74257 0.87153 0.46856 0.0
H2757 H 0.74416 0.85528 0.43682 0.0
H2758 H 0.78888 0.8276 0.46001 0.0
H2759 H 0.7874 0.84381 0.49183 0.0
H2760 H 0.7963 0.84554 0.42565 0.0
H2761 H 0.72751 0.79913 0.41814 0.0
H2762 H 0.7262 0.82334 0.42503 0.0
H2763 H 0.73842 0.80997 0.44114 0.0
C2764 C 0.7526 0.86182 0.46695 0.0
C2765 C 0.76484 0.85891 0.48268 0.0
C2766 C 0.75344 0.85249 0.44884 0.0
C2767 C 0.7665 0.84009 0.44614 0.0
C2768 C 0.77863 0.83704 0.46185 0.0
H2769 H 0.76603 0.77302 0.33585 0.0
H2770 H 0.76923 0.7822 0.37064 0.0
C2771 C 0.77774 0.84628 0.48 0.0
C2772 C 0.76816 0.83118 0.42667 0.0
H2773 H 0.74328 0.80288 0.38943 0.0
C2774 C 0.7848 0.83603 0.4178 0.0
C2775 C 0.75323 0.81861 0.41657 0.0
C2776 C 0.73538 0.81228 0.42574 0.0
C2777 C 0.78658 0.8293 0.39874 0.0
C2778 C 0.77128 0.81753 0.3883 0.0
C2779 C 0.75496 0.81199 0.39746 0.0
C2780 C 0.77133 0.81198 0.36746 0.0
C2781 C 0.8047 0.83504 0.3898 0.0
C2782 C 0.77162 0.82571 0.35423 0.0
C2783 C 0.7697 0.82053 0.33445 0.0
C2784 C 0.76747 0.80151 0.3275 0.0
C2785 C 0.76785 0.78779 0.34077 0.0
C2786 C 0.7696 0.793 0.36062 0.0
H2787 H 0.81655 0.83972 0.40095 0.0
H2788 H 0.80827 0.82328 0.38031 0.0
H2789 H 0.80307 0.84691 0.38088 0.0
H2790 H 0.77266 0.84041 0.35921 0.0
H2791 H 0.76946 0.83142 0.32459 0.0
H2792 H 0.43112 0.49007 0.79808 0.0
H2793 H 0.44707 0.48759 0.82983 0.0
H2794 H 0.43188 0.54073 0.85027 0.0
H2795 H 0.41608 0.5434 0.81858 0.0
H2796 H 0.46976 0.53652 0.86074 0.0
H2797 H 0.419 0.47579 0.87808 0.0
H2798 H 0.4297 0.47295 0.8558 0.0
H2799 H 0.41409 0.49002 0.85865 0.0
C2800 C 0.43126 0.50126 0.80933 0.0
C2801 C 0.42227 0.51688 0.80589 0.0
C2802 C 0.44029 0.49977 0.82746 0.0
C2803 C 0.44043 0.51386 0.84244 0.0
C2804 C 0.43188 0.52968 0.83889 0.0
H2805 H 0.45408 0.52106 0.9645 0.0
H2806 H 0.44382 0.51724 0.93018 0.0
C2807 C 0.42284 0.53117 0.8208 0.0
C2808 C 0.44915 0.51208 0.86198 0.0
H2809 H 0.44394 0.4872 0.90151 0.0
C2810 C 0.46427 0.52563 0.86962 0.0
C2811 C 0.44181 0.49793 0.87352 0.0
C2812 C 0.42517 0.48339 0.86623 0.0
C2813 C 0.47204 0.52565 0.88866 0.0
C2814 C 0.46459 0.5116 0.90026 0.0
C2815 C 0.44971 0.49783 0.89249 0.0
C2816 C 0.47075 0.51214 0.92103 0.0
C2817 C 0.48758 0.54117 0.8965 0.0
C2818 C 0.4892 0.51002 0.9273 0.0
C2819 C 0.49515 0.51219 0.947 0.0
C2820 C 0.48271 0.51653 0.96068 0.0
C2821 C 0.46405 0.51785 0.95434 0.0
C2822 C 0.45813 0.51563 0.93472 0.0
H2823 H 0.4895 0.55268 0.88676 0.0
H2824 H 0.48466 0.54718 0.91089 0.0
H2825 H 0.50098 0.53538 0.89824 0.0
H2826 H 0.49907 0.50706 0.91694 0.0
H2827 H 0.5096 0.51105 0.95144 0.0
H2828 H 0.78094 0.15267 0.09217 0.0
H2829 H 0.78401 0.17437 0.12116 0.0
H2830 H 0.81791 0.21619 0.09249 0.0
H2831 H 0.81461 0.19463 0.06324 0.0
H2832 H 0.81533 0.193 0.14433 0.0
H2833 H 0.77491 0.24332 0.10908 0.0
H2834 H 0.77549 0.21999 0.09823 0.0
H2835 H 0.79534 0.23799 0.09783 0.0
C2836 C 0.78918 0.16643 0.09208 0.0
C2837 C 0.7974 0.17202 0.07541 0.0
C2838 C 0.79094 0.1788 0.10865 0.0
C2839 C 0.80093 0.19698 0.10885 0.0
C2840 C 0.80983 0.20235 0.09249 0.0
H2841 H 0.80011 0.28093 0.20828 0.0
H2842 H 0.80982 0.26722 0.17793 0.0
C2843 C 0.80802 0.18998 0.07586 0.0
C2844 C 0.80126 0.21036 0.12604 0.0
H2845 H 0.78359 0.2495 0.14225 0.0
C2846 C 0.80867 0.20553 0.14383 0.0
C2847 C 0.79262 0.22674 0.12532 0.0
C2848 C 0.784 0.23234 0.10665 0.0
C2849 C 0.80689 0.21615 0.16103 0.0
C2850 C 0.79737 0.23191 0.16039 0.0
C2851 C 0.79095 0.23744 0.14257 0.0
C2852 C 0.7914 0.24086 0.17813 0.0
C2853 C 0.81445 0.21001 0.17989 0.0
C2854 C 0.77751 0.23074 0.1878 0.0
C2855 C 0.77185 0.23849 0.20483 0.0
C2856 C 0.78002 0.25657 0.21265 0.0
C2857 C 0.79359 0.26698 0.20263 0.0
C2858 C 0.79919 0.25917 0.18538 0.0
H2859 H 0.82547 0.20095 0.17776 0.0
H2860 H 0.82039 0.22233 0.19005 0.0
H2861 H 0.80283 0.20181 0.18663 0.0
H2862 H 0.77115 0.21669 0.18223 0.0
H2863 H 0.76129 0.23009 0.21205 0.0
H2864 H 0.08415 0.49657 0.2893 0.0
H2865 H 0.06112 0.49855 0.31313 0.0
H2866 H 0.10594 0.50881 0.35873 0.0
H2867 H 0.12905 0.50741 0.33496 0.0
H2868 H 0.05279 0.47811 0.34246 0.0
H2869 H 0.07727 0.5515 0.37093 0.0
H2870 H 0.08501 0.54147 0.349 0.0
H2871 H 0.09624 0.53799 0.37212 0.0
C2872 C 0.08908 0.49924 0.30442 0.0
C2873 C 0.10838 0.50194 0.31031 0.0
C2874 C 0.07591 0.50042 0.31799 0.0
C2875 C 0.08185 0.50431 0.33763 0.0
C2876 C 0.1011 0.50641 0.34357 0.0
H2877 H 0.03889 0.47583 0.43952 0.0
H2878 H 0.04771 0.47679 0.40671 0.0
C2879 C 0.11427 0.5054 0.33002 0.0
C2880 C 0.06798 0.50551 0.3521 0.0
H2881 H 0.05951 0.53197 0.39206 0.0
C2882 C 0.05401 0.49004 0.35309 0.0
C2883 C 0.06912 0.52131 0.36559 0.0
C2884 C 0.08259 0.53908 0.36422 0.0
C2885 C 0.0422 0.48933 0.36818 0.0
C2886 C 0.0448 0.50426 0.38287 0.0
C2887 C 0.05768 0.52038 0.38096 0.0
C2888 C 0.03649 0.50241 0.40153 0.0
C2889 C 0.02742 0.47237 0.36849 0.0
C2890 C 0.02727 0.51656 0.40967 0.0
C2891 C 0.02242 0.5162 0.42872 0.0
C2892 C 0.02691 0.50177 0.43988 0.0
C2893 C 0.03531 0.4872 0.43135 0.0
C2894 C 0.04016 0.48759 0.41244 0.0
H2895 H 0.02209 0.46659 0.3536 0.0
H2896 H 0.03372 0.46122 0.37561 0.0
H2897 H 0.01539 0.47575 0.37643 0.0
H2898 H 0.02447 0.52821 0.40154 0.0
H2899 H 0.01598 0.52763 0.43494 0.0
H2900 H 0.74198 0.83423 0.5655 0.0
H2901 H 0.73845 0.81475 0.59275 0.0
H2902 H 0.7735 0.85831 0.62986 0.0
H2903 H 0.777 0.87787 0.6028 0.0
H2904 H 0.76699 0.80184 0.61611 0.0
H2905 H 0.72644 0.84667 0.65927 0.0
H2906 H 0.72907 0.84899 0.63398 0.0
H2907 H 0.74762 0.85926 0.65184 0.0
C2908 C 0.74885 0.83968 0.5795 0.0
C2909 C 0.7597 0.85762 0.58204 0.0
C2910 C 0.74684 0.82853 0.59502 0.0
C2911 C 0.75548 0.8352 0.61338 0.0
C2912 C 0.76641 0.85304 0.6159 0.0
H2913 H 0.77762 0.80226 0.72545 0.0
H2914 H 0.774 0.81662 0.69522 0.0
C2915 C 0.76848 0.86416 0.6004 0.0
C2916 C 0.75357 0.8234 0.62986 0.0
H2917 H 0.74023 0.82347 0.67578 0.0
C2918 C 0.76089 0.80638 0.62907 0.0
C2919 C 0.7455 0.82933 0.64668 0.0
C2920 C 0.73654 0.84697 0.64798 0.0
C2921 C 0.76129 0.79566 0.64509 0.0
C2922 C 0.75391 0.80202 0.66218 0.0
C2923 C 0.74592 0.81865 0.66266 0.0
C2924 C 0.75591 0.79268 0.6803 0.0
C2925 C 0.7704 0.77812 0.64395 0.0
C2926 C 0.74684 0.77439 0.682 0.0
C2927 C 0.74889 0.76602 0.69941 0.0
C2928 C 0.76001 0.77587 0.71536 0.0
C2929 C 0.76898 0.79419 0.71349 0.0
C2930 C 0.76691 0.80249 0.69621 0.0
H2931 H 0.77815 0.77682 0.63085 0.0
H2932 H 0.78031 0.77797 0.65687 0.0
H2933 H 0.75943 0.76563 0.64357 0.0
H2934 H 0.73806 0.76667 0.66995 0.0
H2935 H 0.74174 0.75193 0.70039 0.0
H2936 H 0.69523 0.39471 0.51214 0.0
H2937 H 0.67071 0.41383 0.51886 0.0
H2938 H 0.71195 0.45615 0.55075 0.0
H2939 H 0.73663 0.4372 0.54387 0.0
H2940 H 0.66049 0.42656 0.55545 0.0
H2941 H 0.68473 0.48586 0.51218 0.0
H2942 H 0.69296 0.46345 0.50926 0.0
H2943 H 0.7017 0.47959 0.52977 0.0
C2944 C 0.69909 0.40813 0.5205 0.0
C2945 C 0.71783 0.41451 0.52741 0.0
C2946 C 0.68508 0.419 0.52436 0.0
C2947 C 0.68957 0.43646 0.53514 0.0
C2948 C 0.70826 0.44285 0.54215 0.0
H2949 H 0.60474 0.51171 0.5551 0.0
H2950 H 0.63458 0.4991 0.55972 0.0
C2951 C 0.7223 0.43198 0.53826 0.0
C2952 C 0.67449 0.44772 0.53911 0.0
H2953 H 0.65686 0.48722 0.52731 0.0
C2954 C 0.65981 0.43995 0.54953 0.0
C2955 C 0.67377 0.46527 0.53152 0.0
C2956 C 0.68903 0.47406 0.51994 0.0
C2957 C 0.64401 0.44886 0.55182 0.0
C2958 C 0.64282 0.46586 0.54331 0.0
C2959 C 0.65793 0.4742 0.53386 0.0
C2960 C 0.62493 0.4735 0.54149 0.0
C2961 C 0.62838 0.43972 0.56272 0.0
C2962 C 0.60988 0.46334 0.52962 0.0
C2963 C 0.59309 0.47049 0.52683 0.0
C2964 C 0.59095 0.48799 0.5359 0.0
C2965 C 0.606 0.49816 0.54798 0.0
C2966 C 0.62299 0.49101 0.55062 0.0
H2967 H 0.63349 0.42996 0.57279 0.0
H2968 H 0.62188 0.45043 0.57103 0.0
H2969 H 0.61736 0.4315 0.55231 0.0
H2970 H 0.61123 0.44991 0.52226 0.0
H2971 H 0.58178 0.46225 0.51749 0.0
H2972 H 0.2033 0.12391 0.50858 0.0
H2973 H 0.17265 0.10426 0.50674 0.0
H2974 H 0.19744 0.05611 0.48719 0.0
H2975 H 0.22834 0.07571 0.48926 0.0
H2976 H 0.15255 0.0831 0.47458 0.0
H2977 H 0.16909 0.03787 0.53291 0.0
H2978 H 0.18381 0.05961 0.52966 0.0
H2979 H 0.18447 0.03906 0.51377 0.0
C2980 C 0.20226 0.10913 0.50393 0.0
C2981 C 0.21824 0.10133 0.49914 0.0
C2982 C 0.18473 0.09793 0.50285 0.0
C2983 C 0.1828 0.07869 0.49704 0.0
C2984 C 0.19868 0.07086 0.49203 0.0
H2985 H 0.07687 -6e-05 0.49525 0.0
H2986 H 0.10931 0.01239 0.48946 0.0
C2987 C 0.21628 0.08208 0.49313 0.0
C2988 C 0.16403 0.06709 0.49616 0.0
H2989 H 0.13829 0.03245 0.51799 0.0
C2990 C 0.14947 0.0719 0.48393 0.0
C2991 C 0.16008 0.05239 0.50828 0.0
C2992 C 0.17511 0.04693 0.52202 0.0
C2993 C 0.13096 0.06281 0.48393 0.0
C2994 C 0.12687 0.04872 0.49666 0.0
C2995 C 0.14153 0.04327 0.50824 0.0
C2996 C 0.10726 0.04098 0.49963 0.0
C2997 C 0.11585 0.06862 0.47057 0.0
C2998 C 0.09554 0.0529 0.50746 0.0
C2999 C 0.07719 0.04589 0.51086 0.0
C3000 C 0.07011 0.02674 0.50651 0.0
C3001 C 0.08188 0.01476 0.49866 0.0
C3002 C 0.10039 0.02182 0.49537 0.0
H3003 H 0.1218 0.07537 0.45811 0.0
H3004 H 0.1052 0.05638 0.46506 0.0
H3005 H 0.10864 0.07895 0.47858 0.0
H3006 H 0.10068 0.06767 0.51115 0.0
H3007 H 0.06855 0.05553 0.51693 0.0
H3008 H 0.15506 0.9475 0.77652 0.0
H3009 H 0.17356 0.92162 0.77438 0.0
H3010 H 0.22467 0.96134 0.78221 0.0
H3011 H 0.20628 0.98727 0.78396 0.0
H3012 H 0.22581 0.93358 0.75343 0.0
H3013 H 0.20203 0.90274 0.81956 0.0
H3014 H 0.18315 0.90507 0.80211 0.0
H3015 H 0.19778 0.92574 0.81356 0.0
C3016 C 0.17024 0.9507 0.7778 0.0
C3017 C 0.17922 0.9694 0.78053 0.0
C3018 C 0.1808 0.93591 0.77667 0.0
C3019 C 0.20051 0.93954 0.77846 0.0
C3020 C 0.20949 0.95821 0.78087 0.0
H3021 H 0.27264 0.85676 0.80445 0.0
H3022 H 0.25764 0.885 0.80402 0.0
C3023 C 0.19895 0.97301 0.78191 0.0
C3024 C 0.21182 0.9239 0.77786 0.0
H3025 H 0.2199 0.88494 0.80015 0.0
C3026 C 0.22457 0.92297 0.76368 0.0
C3027 C 0.21039 0.91023 0.79141 0.0
C3028 C 0.19774 0.91104 0.80764 0.0
C3029 C 0.23572 0.90855 0.7625 0.0
C3030 C 0.23383 0.89454 0.77566 0.0
C3031 C 0.22127 0.89564 0.78999 0.0
C3032 C 0.24465 0.87853 0.77492 0.0
C3033 C 0.24963 0.90864 0.74739 0.0
C3034 C 0.24262 0.86565 0.75856 0.0
C3035 C 0.2513 0.84952 0.75871 0.0
C3036 C 0.26199 0.84587 0.77531 0.0
C3037 C 0.26451 0.85913 0.79143 0.0
C3038 C 0.2559 0.87526 0.79123 0.0
H3039 H 0.25314 0.92282 0.74224 0.0
H3040 H 0.26281 0.90394 0.75304 0.0
H3041 H 0.24344 0.89886 0.73481 0.0
H3042 H 0.23372 0.86767 0.74594 0.0
H3043 H 0.24894 0.83953 0.74611 0.0
H3044 H 0.30247 0.9449 0.00094 0.0
H3045 H 0.33412 0.96161 0.99842 0.0
H3046 H 0.35778 0.91292 0.01482 0.0
H3047 H 0.32631 0.89609 0.01706 0.0
H3048 H 0.36256 0.97003 0.0274 0.0
H3049 H 0.38531 0.92614 0.96787 0.0
H3050 H 0.36101 0.92492 0.97291 0.0
H3051 H 0.37654 0.91237 0.98653 0.0
C3052 C 0.31443 0.93771 0.00378 0.0
C3053 C 0.31194 0.91918 0.00914 0.0
C3054 C 0.33247 0.94726 0.00234 0.0
C3055 C 0.34827 0.93838 0.00609 0.0
C3056 C 0.34577 0.91987 0.01137 0.0
H3057 H 0.46458 0.95978 0.03517 0.0
H3058 H 0.43124 0.94841 0.02732 0.0
C3059 C 0.32778 0.91032 0.01279 0.0
C3060 C 0.36746 0.94877 0.00588 0.0
H3061 H 0.40999 0.94531 0.98869 0.0
C3062 C 0.37286 0.96489 0.01865 0.0
C3063 C 0.38082 0.94206 0.99436 0.0
C3064 C 0.37558 0.92553 0.9795 0.0
C3065 C 0.39157 0.97378 0.0211 0.0
C3066 C 0.4051 0.9664 0.01038 0.0
C3067 C 0.39954 0.95085 0.99694 0.0
C3068 C 0.42534 0.97345 0.01433 0.0
C3069 C 0.39699 0.99036 0.03587 0.0
C3070 C 0.43304 0.99125 0.00941 0.0
C3071 C 0.45218 0.99782 0.01384 0.0
C3072 C 0.46381 0.98667 0.02332 0.0
C3073 C 0.45601 0.96876 0.02797 0.0
C3074 C 0.43697 0.9622 0.02345 0.0
H3075 H 0.38516 0.99309 0.04446 0.0
H3076 H 0.40896 0.98799 0.04584 0.0
H3077 H 0.40158 0.0031 0.02845 0.0
H3078 H 0.42425 4e-05 0.00222 0.0
H3079 H 0.45781 0.01166 0.01004 0.0
H3080 H 0.87546 0.58381 0.77832 0.0
H3081 H 0.85427 0.60647 0.77141 0.0
H3082 H 0.82416 0.56785 0.72582 0.0
H3083 H 0.84538 0.54499 0.73266 0.0
H3084 H 0.84644 0.62172 0.73396 0.0
H3085 H 0.78375 0.58244 0.76279 0.0
H3086 H 0.80726 0.57797 0.76939 0.0
H3087 H 0.79625 0.57013 0.74578 0.0
C3088 C 0.86435 0.58012 0.76681 0.0
C3089 C 0.86203 0.56261 0.75607 0.0
C3090 C 0.85229 0.59309 0.76286 0.0
C3091 C 0.83762 0.58875 0.7482 0.0
C3092 C 0.83532 0.57136 0.7373 0.0
H3093 H 0.77608 0.6831 0.72378 0.0
H3094 H 0.78792 0.65324 0.71682 0.0
C3095 C 0.84746 0.55837 0.7412 0.0
C3096 C 0.82478 0.60257 0.74466 0.0
H3097 H 0.78147 0.61286 0.754 0.0
C3098 C 0.83209 0.6197 0.73793 0.0
C3099 C 0.80612 0.59978 0.74993 0.0
C3100 C 0.79777 0.58165 0.75747 0.0
C3101 C 0.82153 0.63454 0.73725 0.0
C3102 C 0.80315 0.63206 0.74334 0.0
C3103 C 0.7955 0.6146 0.74917 0.0
C3104 C 0.79306 0.64826 0.74681 0.0
C3105 C 0.83055 0.65316 0.73125 0.0
C3106 C 0.79134 0.65483 0.76589 0.0
C3107 C 0.78468 0.67175 0.76988 0.0
C3108 C 0.77948 0.68238 0.75484 0.0
C3109 C 0.77999 0.67518 0.73564 0.0
C3110 C 0.78682 0.65822 0.73166 0.0
H3111 H 0.84562 0.65329 0.72893 0.0
H3112 H 0.82314 0.6562 0.7176 0.0
H3113 H 0.82935 0.66463 0.74238 0.0
H3114 H 0.79606 0.64733 0.77778 0.0
H3115 H 0.78429 0.67686 0.78481 0.0
H3116 H 0.83233 0.62116 0.98804 0.0
H3117 H 0.85977 0.60502 0.99164 0.0
H3118 H 0.83192 0.56924 0.03093 0.0
H3119 H 0.80422 0.58515 0.02715 0.0
H3120 H 0.88185 0.60266 0.02525 0.0
H3121 H 0.85025 0.53148 0.99286 0.0
H3122 H 0.83898 0.55196 0.9898 0.0
H3123 H 0.83828 0.54103 0.01209 0.0
C3124 C 0.83198 0.60976 0.99734 0.0
C3125 C 0.8161 0.60438 0.00727 0.0
C3126 C 0.84768 0.60057 0.9994 0.0
C3127 C 0.84782 0.58578 0.01138 0.0
C3128 C 0.83198 0.58036 0.02132 0.0
H3129 H 0.94355 0.52503 0.03718 0.0
H3130 H 0.91292 0.53606 0.03867 0.0
C3131 C 0.81622 0.58953 0.01922 0.0
C3132 C 0.86491 0.57666 0.01388 0.0
H3133 H 0.882 0.53531 0.00533 0.0
C3134 C 0.88184 0.58791 0.021 0.0
C3135 C 0.86486 0.55737 0.00845 0.0
C3136 C 0.84718 0.54473 0.00023 0.0
C3137 C 0.89877 0.58051 0.02243 0.0
C3138 C 0.89882 0.56141 0.01643 0.0
C3139 C 0.88184 0.54994 0.00996 0.0
C3140 C 0.91666 0.55371 0.01509 0.0
C3141 C 0.91661 0.59325 0.03002 0.0
C3142 C 0.9286 0.5597 0.00111 0.0
C3143 C 0.94592 0.55342 0.00017 0.0
C3144 C 0.95172 0.54102 0.01323 0.0
C3145 C 0.9395 0.53461 0.02695 0.0
C3146 C 0.92203 0.54088 0.02782 0.0
H3147 H 0.91367 0.6062 0.0381 0.0
H3148 H 0.92552 0.58587 0.03961 0.0
H3149 H 0.92471 0.59747 0.01773 0.0
H3150 H 0.92459 0.56945 0.99104 0.0
H3151 H 0.95488 0.55859 0.98934 0.0
H3152 H 0.15636 0.08061 0.775 0.0
H3153 H 0.17461 0.11195 0.77615 0.0
H3154 H 0.21897 0.09396 0.81171 0.0
H3155 H 0.20086 0.06239 0.81039 0.0
H3156 H 0.18877 0.13757 0.80771 0.0
H3157 H 0.24616 0.11516 0.76662 0.0
H3158 H 0.22404 0.10022 0.76761 0.0
H3159 H 0.24136 0.10325 0.78784 0.0
C3160 C 0.16997 0.08333 0.78313 0.0
C3161 C 0.17723 0.06902 0.79251 0.0
C3162 C 0.18037 0.10124 0.78378 0.0
C3163 C 0.19826 0.10519 0.79377 0.0
C3164 C 0.20535 0.0911 0.80362 0.0
H3165 H 0.27591 0.21155 0.79593 0.0
H3166 H 0.26225 0.17997 0.80328 0.0
C3167 C 0.19494 0.07312 0.80295 0.0
C3168 C 0.20939 0.12407 0.79354 0.0
H3169 H 0.24846 0.14738 0.77629 0.0
C3170 C 0.2019 0.13971 0.80099 0.0
C3171 C 0.22658 0.1268 0.78485 0.0
C3172 C 0.23501 0.11052 0.77613 0.0
C3173 C 0.21088 0.15804 0.79955 0.0
C3174 C 0.22766 0.16078 0.7902 0.0
C3175 C 0.23559 0.14517 0.78345 0.0
C3176 C 0.2362 0.1797 0.78579 0.0
C3177 C 0.20221 0.17435 0.80781 0.0
C3178 C 0.22622 0.18974 0.77322 0.0
C3179 C 0.23397 0.20761 0.76892 0.0
C3180 C 0.2519 0.21585 0.77711 0.0
C3181 C 0.26205 0.20562 0.78945 0.0
C3182 C 0.25428 0.18762 0.79368 0.0
H3183 H 0.19268 0.17008 0.81902 0.0
H3184 H 0.2132 0.18594 0.81422 0.0
H3185 H 0.19383 0.17981 0.7961 0.0
H3186 H 0.2124 0.18372 0.76669 0.0
H3187 H 0.22577 0.21501 0.75927 0.0
H3188 H 0.39054 0.95949 0.26678 0.0
H3189 H 0.37247 0.92848 0.26852 0.0
H3190 H 0.32994 0.95375 0.29675 0.0
H3191 H 0.34789 0.98499 0.29483 0.0
H3192 H 0.35992 0.91031 0.30084 0.0
H3193 H 0.30063 0.9221 0.24965 0.0
H3194 H 0.32293 0.93733 0.2522 0.0
H3195 H 0.30668 0.93881 0.27032 0.0
C3196 C 0.37738 0.95847 0.27343 0.0
C3197 C 0.37055 0.97466 0.28055 0.0
C3198 C 0.3671 0.94075 0.27445 0.0
C3199 C 0.34978 0.93887 0.28254 0.0
C3200 C 0.34314 0.95495 0.29017 0.0
H3201 H 0.27388 0.83108 0.27741 0.0
H3202 H 0.287 0.86409 0.28664 0.0
C3203 C 0.35344 0.97274 0.28915 0.0
C3204 C 0.33868 0.91999 0.28244 0.0
H3205 H 0.29961 0.89201 0.2606 0.0
C3206 C 0.34661 0.90635 0.29225 0.0
C3207 C 0.32127 0.91493 0.2713 0.0
C3208 C 0.31235 0.92897 0.26014 0.0
C3209 C 0.33793 0.8876 0.29063 0.0
C3210 C 0.32105 0.88236 0.2787 0.0
C3211 C 0.31258 0.89615 0.26971 0.0
C3212 C 0.31311 0.86244 0.27372 0.0
C3213 C 0.34712 0.87344 0.30132 0.0
C3214 C 0.32335 0.85079 0.26317 0.0
C3215 C 0.31591 0.8321 0.25779 0.0
C3216 C 0.29803 0.82468 0.26283 0.0
C3217 C 0.28771 0.8364 0.27336 0.0
C3218 C 0.29517 0.85521 0.27865 0.0
H3219 H 0.35659 0.88028 0.3139 0.0
H3220 H 0.33644 0.8627 0.30643 0.0
H3221 H 0.35568 0.86618 0.29147 0.0
H3222 H 0.33708 0.85623 0.25893 0.0
H3223 H 0.32422 0.82348 0.24968 0.0
H3224 H 0.54353 0.33932 0.63238 0.0
H3225 H 0.54042 0.3668 0.61457 0.0
H3226 H 0.49742 0.33373 0.57513 0.0
H3227 H 0.5004 0.3061 0.59296 0.0
H3228 H 0.54428 0.37097 0.57396 0.0
H3229 H 0.47325 0.37961 0.59622 0.0
H3230 H 0.48823 0.36563 0.6088 0.0
H3231 H 0.47638 0.35686 0.58575 0.0
C3232 C 0.53344 0.33787 0.6199 0.0
C3233 C 0.52215 0.32059 0.61411 0.0
C3234 C 0.53171 0.35356 0.60972 0.0
C3235 C 0.51858 0.3523 0.59367 0.0
C3236 C 0.50748 0.33501 0.58763 0.0
H3237 H 0.52163 0.45081 0.52535 0.0
H3238 H 0.51651 0.41768 0.53228 0.0
C3239 C 0.50925 0.31926 0.59778 0.0
C3240 C 0.5165 0.36929 0.58356 0.0
H3241 H 0.48776 0.40248 0.57765 0.0
C3242 C 0.53183 0.37774 0.57446 0.0
C3243 C 0.50024 0.37806 0.58438 0.0
C3244 C 0.48357 0.36972 0.59439 0.0
C3245 C 0.5316 0.39511 0.56673 0.0
C3246 C 0.51553 0.40414 0.56801 0.0
C3247 C 0.49995 0.39539 0.57653 0.0
C3248 C 0.51574 0.42373 0.56301 0.0
C3249 C 0.54892 0.40419 0.55821 0.0
C3250 C 0.51619 0.43795 0.57787 0.0
C3251 C 0.5191 0.45676 0.57399 0.0
C3252 C 0.52149 0.46169 0.55512 0.0
C3253 C 0.51982 0.44741 0.54002 0.0
C3254 C 0.51702 0.42851 0.54396 0.0
H3255 H 0.56103 0.39648 0.56066 0.0
H3256 H 0.54587 0.40452 0.54244 0.0
H3257 H 0.55301 0.4189 0.56452 0.0
H3258 H 0.51517 0.43453 0.59266 0.0
H3259 H 0.52016 0.46745 0.5859 0.0
H3260 H 0.4712 0.77174 0.33995 0.0
H3261 H 0.44047 0.77063 0.3224 0.0
H3262 H 0.41816 0.72421 0.3536 0.0
H3263 H 0.44882 0.72562 0.37167 0.0
H3264 H 0.41697 0.74393 0.29902 0.0
H3265 H 0.38392 0.76242 0.36589 0.0
H3266 H 0.40898 0.76361 0.36529 0.0
H3267 H 0.39443 0.74136 0.36626 0.0
C3268 C 0.45979 0.76121 0.34299 0.0
C3269 C 0.46233 0.74892 0.35735 0.0
C3270 C 0.44225 0.76056 0.33291 0.0
C3271 C 0.42695 0.74757 0.33694 0.0
C3272 C 0.42968 0.73463 0.35058 0.0
H3273 H 0.31665 0.73572 0.27057 0.0
H3274 H 0.34771 0.72971 0.28305 0.0
C3275 C 0.4472 0.7354 0.36082 0.0
C3276 C 0.40801 0.74836 0.32754 0.0
H3277 H 0.36423 0.75703 0.33707 0.0
C3278 C 0.40538 0.7467 0.30731 0.0
C3279 C 0.393 0.7522 0.33841 0.0
C3280 C 0.3952 0.75518 0.36015 0.0
C3281 C 0.38821 0.74905 0.29764 0.0
C3282 C 0.37321 0.75281 0.30854 0.0
C3283 C 0.37575 0.75409 0.32875 0.0
C3284 C 0.35509 0.75669 0.2995 0.0
C3285 C 0.38651 0.74821 0.27591 0.0
C3286 C 0.34894 0.77381 0.3046 0.0
C3287 C 0.33122 0.77715 0.29773 0.0
C3288 C 0.31926 0.76347 0.28552 0.0
C3289 C 0.32565 0.74658 0.27983 0.0
C3290 C 0.34339 0.74315 0.2869 0.0
H3291 H 0.40047 0.74962 0.27 0.0
H3292 H 0.37846 0.73448 0.27004 0.0
H3293 H 0.37889 0.75945 0.27075 0.0
H3294 H 0.35775 0.78448 0.31426 0.0
H3295 H 0.32674 0.79036 0.3023 0.0
H3296 H 0.00494 0.7143 0.1201 0.0
H3297 H 0.00606 0.68401 0.10247 0.0
H3298 H 0.05555 0.7078 0.07671 0.0
H3299 H 0.05457 0.73826 0.09439 0.0
H3300 H 0.00634 0.67486 0.06108 0.0
H3301 H 0.07052 0.6617 0.10417 0.0
H3302 H 0.05648 0.67903 0.11228 0.0
H3303 H 0.07153 0.68364 0.09331 0.0
C3304 C 0.01601 0.71313 0.11061 0.0
C3305 C 0.02973 0.7286 0.10869 0.0
C3306 C 0.0166 0.69584 0.10052 0.0
C3307 C 0.03097 0.69368 0.08846 0.0
C3308 C 0.04446 0.70919 0.08613 0.0
H3309 H 0.02578 0.58503 0.01966 0.0
H3310 H 0.03234 0.61907 0.02824 0.0
C3311 C 0.04384 0.72655 0.09617 0.0
C3312 C 0.03197 0.67494 0.07888 0.0
H3313 H 0.05578 0.6375 0.08147 0.0
C3314 C 0.0173 0.66676 0.06525 0.0
C3315 C 0.04625 0.66446 0.08452 0.0
C3316 C 0.06208 0.67251 0.09945 0.0
C3317 C 0.01618 0.64809 0.05758 0.0
C3318 C 0.03018 0.63744 0.06364 0.0
C3319 C 0.04519 0.64582 0.07676 0.0
C3320 C 0.02814 0.61699 0.05843 0.0
C3321 C 0.99952 0.63955 0.04385 0.0
C3322 C 0.02418 0.60465 0.07268 0.0
C3323 C 0.02042 0.58534 0.06786 0.0
C3324 C 0.02067 0.57797 0.04869 0.0
C3325 C 0.02546 0.59031 0.03454 0.0
C3326 C 0.02913 0.60972 0.03939 0.0
H3327 H 0.98875 0.64904 0.04248 0.0
H3328 H 0.00431 0.6365 0.02936 0.0
H3329 H 0.99289 0.62608 0.04877 0.0
H3330 H 0.0234 0.61002 0.08746 0.0
H3331 H 0.01692 0.57621 0.07912 0.0
H3332 H 0.07619 0.28452 0.88109 0.0
H3333 H 0.10347 0.28672 0.86216 0.0
H3334 H 0.07442 0.24257 0.82122 0.0
H3335 H 0.04686 0.24068 0.83983 0.0
H3336 H 0.12467 0.2603 0.85501 0.0
H3337 H 0.0949 0.28057 0.78555 0.0
H3338 H 0.08287 0.28167 0.80729 0.0
H3339 H 0.08186 0.25968 0.79306 0.0
C3340 C 0.07555 0.2754 0.86796 0.0
C3341 C 0.05941 0.26242 0.86193 0.0
C3342 C 0.09113 0.2767 0.85714 0.0
C3343 C 0.0909 0.26503 0.8401 0.0
C3344 C 0.07476 0.25207 0.83403 0.0
H3345 H 0.18861 0.2318 0.79257 0.0
H3346 H 0.15847 0.23362 0.8057 0.0
C3347 C 0.05908 0.25088 0.84477 0.0
C3348 C 0.10806 0.26547 0.82958 0.0
H3349 H 0.1248 0.26979 0.78531 0.0
C3350 C 0.1247 0.26253 0.83981 0.0
C3351 C 0.10817 0.26863 0.8098 0.0
C3352 C 0.09104 0.27301 0.79832 0.0
C3353 C 0.14133 0.26218 0.83072 0.0
C3354 C 0.1412 0.26435 0.81073 0.0
C3355 C 0.12474 0.26785 0.80057 0.0
C3356 C 0.15807 0.26268 0.80027 0.0
C3357 C 0.15892 0.25957 0.84266 0.0
C3358 C 0.1673 0.27813 0.79189 0.0
C3359 C 0.18452 0.27708 0.78415 0.0
C3360 C 0.19268 0.26056 0.78477 0.0
C3361 C 0.1828 0.2448 0.79212 0.0
C3362 C 0.1656 0.24583 0.79968 0.0
H3363 H 0.15798 0.26332 0.85825 0.0
H3364 H 0.16096 0.24462 0.84087 0.0
H3365 H 0.17148 0.26826 0.83798 0.0
H3366 H 0.16161 0.29123 0.79211 0.0
H3367 H 0.19183 0.28943 0.77857 0.0
H3368 H 0.50681 0.70463 0.90546 0.0
H3369 H 0.50474 0.67702 0.92394 0.0
H3370 H 0.5368 0.71025 0.97235 0.0
H3371 H 0.53938 0.73778 0.95372 0.0
H3372 H 0.55015 0.67853 0.96524 0.0
H3373 H 0.47323 0.66199 0.96697 0.0
H3374 H 0.47967 0.66346 0.94275 0.0
H3375 H 0.48444 0.684 0.95962 0.0
C3376 C 0.51328 0.70608 0.92009 0.0
C3377 C 0.52327 0.72334 0.92814 0.0
C3378 C 0.51194 0.69033 0.93072 0.0
C3379 C 0.52029 0.69164 0.94969 0.0
C3380 C 0.53013 0.70894 0.95779 0.0
H3381 H 0.50378 0.59251 0.01679 0.0
H3382 H 0.50385 0.62466 0.0074 0.0
C3383 C 0.53162 0.72464 0.94712 0.0
C3384 C 0.51996 0.67465 0.96049 0.0
H3385 H 0.49092 0.63682 0.97333 0.0
C3386 C 0.53716 0.66957 0.96726 0.0
C3387 C 0.50303 0.66313 0.96352 0.0
C3388 C 0.48406 0.66854 0.95802 0.0
C3389 C 0.53795 0.65281 0.97602 0.0
C3390 C 0.52111 0.64054 0.9776 0.0
C3391 C 0.50384 0.64609 0.97184 0.0
C3392 C 0.52126 0.62136 0.98379 0.0
C3393 C 0.55687 0.64833 0.98332 0.0
C3394 C 0.53077 0.60882 0.97347 0.0
C3395 C 0.53085 0.59062 0.97883 0.0
C3396 C 0.52118 0.58442 0.99449 0.0
C3397 C 0.51142 0.5969 0.00471 0.0
C3398 C 0.51143 0.61524 0.99936 0.0
H3399 H 0.56708 0.66134 0.98716 0.0
H3400 H 0.55583 0.64014 0.99616 0.0
H3401 H 0.56253 0.63992 0.97179 0.0
H3402 H 0.538 0.61305 0.96107 0.0
H3403 H 0.53836 0.58135 0.9705 0.0
H3404 H 0.07271 0.78504 0.66601 0.0
H3405 H 0.10379 0.78593 0.68289 0.0
H3406 H 0.08401 0.73547 0.70927 0.0
H3407 H 0.0528 0.73446 0.69244 0.0
H3408 H 0.11449 0.78558 0.72464 0.0
H3409 H 0.13024 0.72399 0.67919 0.0
H3410 H 0.11185 0.73721 0.67198 0.0
H3411 H 0.1085 0.72139 0.69049 0.0
C3412 C 0.07492 0.77422 0.67553 0.0
C3413 C 0.06037 0.75962 0.67783 0.0
C3414 C 0.09266 0.77477 0.68517 0.0
C3415 C 0.09618 0.76068 0.69715 0.0
C3416 C 0.08156 0.74637 0.69993 0.0
H3417 H 0.20511 0.76652 0.7651 0.0
H3418 H 0.17117 0.7601 0.75594 0.0
C3419 C 0.06376 0.74586 0.69037 0.0
C3420 C 0.1154 0.76069 0.70604 0.0
H3421 H 0.15416 0.73902 0.7021 0.0
C3422 C 0.12312 0.77528 0.71995 0.0
C3423 C 0.12658 0.74727 0.69971 0.0
C3424 C 0.11901 0.7316 0.68444 0.0
C3425 C 0.14193 0.77704 0.72742 0.0
C3426 C 0.15321 0.76383 0.7208 0.0
C3427 C 0.14537 0.749 0.70722 0.0
C3428 C 0.17363 0.76633 0.7263 0.0
C3429 C 0.14989 0.79346 0.74168 0.0
C3430 C 0.18615 0.77147 0.71253 0.0
C3431 C 0.20543 0.77518 0.71769 0.0
C3432 C 0.21256 0.77366 0.7367 0.0
C3433 C 0.20002 0.76783 0.75034 0.0
C3434 C 0.18066 0.76424 0.74518 0.0
H3435 H 0.13991 0.8037 0.74351 0.0
H3436 H 0.15325 0.78827 0.75591 0.0
H3437 H 0.16313 0.80084 0.73694 0.0
H3438 H 0.18096 0.7731 0.69788 0.0
H3439 H 0.21471 0.77953 0.70681 0.0
H3440 H 0.06273 0.33026 0.4147 0.0
H3441 H 0.06607 0.36054 0.43393 0.0
H3442 H 0.01407 0.34273 0.4586 0.0
H3443 H 0.01084 0.31246 0.43978 0.0
H3444 H 0.04253 0.38648 0.43223 0.0
H3445 H 0.048 0.36395 0.50618 0.0
H3446 H 0.05097 0.34876 0.48525 0.0
H3447 H 0.02781 0.35125 0.49204 0.0
C3448 C 0.05215 0.33275 0.42441 0.0
C3449 C 0.03655 0.319 0.42577 0.0
C3450 C 0.05408 0.35003 0.43539 0.0
C3451 C 0.0405 0.35377 0.44797 0.0
C3452 C 0.02498 0.33998 0.4494 0.0
H3453 H 0.00209 0.45532 0.48323 0.0
H3454 H 0.00858 0.42546 0.46875 0.0
C3455 C 0.02307 0.32274 0.43849 0.0
C3456 C 0.04164 0.37254 0.45848 0.0
H3457 H 0.03841 0.39435 0.50294 0.0
C3458 C 0.04194 0.38824 0.44773 0.0
C3459 C 0.04119 0.37491 0.47875 0.0
C3460 C 0.04218 0.35883 0.49124 0.0
C3461 C 0.04072 0.40605 0.45655 0.0
C3462 C 0.03878 0.40811 0.47659 0.0
C3463 C 0.0396 0.39267 0.48753 0.0
C3464 C 0.03473 0.4259 0.48614 0.0
C3465 C 0.04126 0.42246 0.44428 0.0
C3466 C 0.04689 0.43568 0.50133 0.0
C3467 C 0.04312 0.45277 0.50982 0.0
C3468 C 0.02709 0.46025 0.50327 0.0
C3469 C 0.01465 0.45005 0.4885 0.0
C3470 C 0.0184 0.43303 0.4801 0.0
H3471 H 0.04858 0.41997 0.43108 0.0
H3472 H 0.02668 0.42441 0.43966 0.0
H3473 H 0.04841 0.43564 0.45242 0.0
H3474 H 0.05947 0.43028 0.50632 0.0
H3475 H 0.05296 0.46029 0.52119 0.0
H3476 H 0.46983 0.24012 0.19724 0.0
H3477 H 0.44146 0.23981 0.21454 0.0
H3478 H 0.4158 0.26752 0.16914 0.0
H3479 H 0.44414 0.26807 0.15188 0.0
H3480 H 0.41073 0.28224 0.20728 0.0
H3481 H 0.39213 0.20448 0.19652 0.0
H3482 H 0.41525 0.21324 0.20769 0.0
H3483 H 0.40932 0.21738 0.18309 0.0
C3484 C 0.45816 0.2462 0.19098 0.0
C3485 C 0.45913 0.25399 0.17313 0.0
C3486 C 0.44197 0.24598 0.20086 0.0
C3487 C 0.42649 0.25347 0.19301 0.0
C3488 C 0.42761 0.26166 0.17543 0.0
H3489 H 0.3098 0.23418 0.20345 0.0
H3490 H 0.34213 0.23826 0.19498 0.0
C3491 C 0.44377 0.26189 0.16555 0.0
C3492 C 0.4088 0.25221 0.20264 0.0
H3493 H 0.37167 0.22096 0.21331 0.0
C3494 C 0.40225 0.26886 0.20882 0.0
C3495 C 0.39776 0.2347 0.20447 0.0
C3496 C 0.40382 0.2164 0.19749 0.0
C3497 C 0.38472 0.26847 0.21642 0.0
C3498 C 0.37359 0.25097 0.21795 0.0
C3499 C 0.38035 0.23433 0.21222 0.0
C3500 C 0.35407 0.24956 0.22347 0.0
C3501 C 0.37783 0.28671 0.22199 0.0
C3502 C 0.35006 0.25471 0.24234 0.0
C3503 C 0.33144 0.25238 0.2473 0.0
C3504 C 0.31665 0.24482 0.23344 0.0
C3505 C 0.32082 0.23999 0.21452 0.0
C3506 C 0.33931 0.24229 0.20962 0.0
H3507 H 0.38714 0.29905 0.21768 0.0
H3508 H 0.36341 0.28664 0.21521 0.0
H3509 H 0.37723 0.28832 0.23786 0.0
H3510 H 0.36132 0.26019 0.25327 0.0
H3511 H 0.32868 0.25618 0.26201 0.0
H3512 H 0.59071 0.49603 0.31979 0.0
H3513 H 0.57233 0.4947 0.34799 0.0
H3514 H 0.62034 0.52409 0.38369 0.0
H3515 H 0.63868 0.52569 0.3556 0.0
H3516 H 0.57864 0.47905 0.38317 0.0
H3517 H 0.57906 0.55587 0.39449 0.0
H3518 H 0.58555 0.54474 0.37247 0.0
H3519 H 0.60213 0.54951 0.39339 0.0
C3520 C 0.59734 0.5022 0.33366 0.0
C3521 C 0.6161 0.51109 0.33547 0.0
C3522 C 0.58683 0.50141 0.34974 0.0
C3523 C 0.59486 0.50959 0.36785 0.0
C3524 C 0.61373 0.51805 0.36976 0.0
H3525 H 0.57001 0.52192 0.48477 0.0
H3526 H 0.58281 0.52035 0.45348 0.0
C3527 C 0.62423 0.51886 0.35372 0.0
C3528 C 0.58364 0.50926 0.38484 0.0
H3529 H 0.56951 0.5378 0.42034 0.0
C3530 C 0.57642 0.49187 0.39119 0.0
C3531 C 0.58064 0.52602 0.39517 0.0
C3532 C 0.58708 0.5451 0.38845 0.0
C3533 C 0.56706 0.49083 0.40814 0.0
C3534 C 0.56473 0.50761 0.41884 0.0
C3535 C 0.5714 0.52496 0.41214 0.0
C3536 C 0.55665 0.50759 0.43776 0.0
C3537 C 0.56042 0.47185 0.41495 0.0
C3538 C 0.53763 0.50087 0.43932 0.0
C3539 C 0.53017 0.50178 0.45731 0.0
C3540 C 0.54163 0.50948 0.47397 0.0
C3541 C 0.56072 0.51596 0.47227 0.0
C3542 C 0.5681 0.51509 0.45438 0.0
H3543 H 0.56583 0.46036 0.40664 0.0
H3544 H 0.56492 0.47158 0.43048 0.0
H3545 H 0.54485 0.46909 0.41326 0.0
H3546 H 0.5285 0.49525 0.4266 0.0
H3547 H 0.51541 0.49673 0.45811 0.0
H3548 H 0.23072 0.84298 0.05531 0.0
H3549 H 0.23057 0.82389 0.08292 0.0
H3550 H 0.28441 0.85438 0.10544 0.0
H3551 H 0.28466 0.8736 0.07793 0.0
H3552 H 0.25886 0.80109 0.09657 0.0
H3553 H 0.24837 0.85959 0.14919 0.0
H3554 H 0.24378 0.86026 0.12349 0.0
H3555 H 0.26749 0.86445 0.13432 0.0
C3556 C 0.24251 0.84563 0.06616 0.0
C3557 C 0.25764 0.85987 0.06458 0.0
C3558 C 0.24244 0.83466 0.08183 0.0
C3559 C 0.25742 0.83785 0.09619 0.0
C3560 C 0.27266 0.85186 0.09454 0.0
H3561 H 0.2816 0.77451 0.19396 0.0
H3562 H 0.28212 0.78751 0.16248 0.0
C3563 C 0.27277 0.86281 0.07885 0.0
C3564 C 0.25681 0.8269 0.11324 0.0
H3565 H 0.25307 0.83099 0.16171 0.0
C3566 C 0.25761 0.80756 0.11084 0.0
C3567 C 0.25502 0.83545 0.13173 0.0
C3568 C 0.25346 0.85605 0.13493 0.0
C3569 C 0.25678 0.79653 0.12661 0.0
C3570 C 0.25519 0.80516 0.14512 0.0
C3571 C 0.25434 0.82447 0.14745 0.0
C3572 C 0.25396 0.79452 0.16238 0.0
C3573 C 0.25726 0.77574 0.12337 0.0
C3574 C 0.23785 0.79387 0.17248 0.0
C3575 C 0.23754 0.78657 0.19041 0.0
C3576 C 0.25339 0.77986 0.1986 0.0
C3577 C 0.26916 0.77952 0.18797 0.0
C3578 C 0.26947 0.78689 0.16998 0.0
H3579 H 0.25487 0.77069 0.10785 0.0
H3580 H 0.27121 0.77268 0.1289 0.0
H3581 H 0.24648 0.76774 0.13136 0.0
H3582 H 0.22576 0.7997 0.16681 0.0
H3583 H 0.22512 0.78692 0.19818 0.0
H3584 H 0.9108 0.53562 0.839 0.0
H3585 H 0.93165 0.53809 0.86866 0.0
H3586 H 0.97936 0.53707 0.83507 0.0
H3587 H 0.95862 0.53451 0.80536 0.0
H3588 H 0.97644 0.51053 0.86239 0.0
H3589 H 0.9705 0.58145 0.89529 0.0
H3590 H 0.94824 0.56728 0.88794 0.0
H3591 H 0.96395 0.57428 0.87007 0.0
C3592 C 0.92576 0.5362 0.83795 0.0
C3593 C 0.93309 0.53483 0.81989 0.0
C3594 C 0.93766 0.53773 0.85489 0.0
C3595 C 0.95706 0.53799 0.85402 0.0
C3596 C 0.96444 0.53702 0.83601 0.0
H3597 H 0.03396 0.5466 0.95964 0.0
H3598 H 0.02195 0.5513 0.92673 0.0
C3599 C 0.95257 0.53555 0.81908 0.0
C3600 C 0.96933 0.53751 0.87184 0.0
H3601 H 0.98282 0.5604 0.91628 0.0
C3602 C 0.9781 0.52157 0.87406 0.0
C3603 C 0.97161 0.55202 0.88693 0.0
C3604 C 0.96323 0.56982 0.88492 0.0
C3605 C 0.98826 0.5193 0.8914 0.0
C3606 C 0.98958 0.53328 0.90687 0.0
C3607 C 0.98168 0.54968 0.90435 0.0
C3608 C 0.99741 0.53021 0.92631 0.0
C3609 C 0.99708 0.50173 0.89329 0.0
C3610 C 0.98751 0.51687 0.93681 0.0
C3611 C 0.99419 0.51425 0.9555 0.0
C3612 C 0.01097 0.5249 0.96404 0.0
C3613 C 0.02105 0.53812 0.95338 0.0
C3614 C 0.01421 0.54087 0.93466 0.0
H3615 H 0.9987 0.49461 0.87898 0.0
H3616 H 0.01106 0.505 0.90153 0.0
H3617 H 0.98799 0.4918 0.90126 0.0
H3618 H 0.97442 0.50866 0.93063 0.0
H3619 H 0.98609 0.50395 0.96329 0.0
H3620 H 0.27129 0.14227 0.5732 0.0
H3621 H 0.27251 0.15997 0.60462 0.0
H3622 H 0.2728 0.21138 0.57685 0.0
H3623 H 0.27168 0.19375 0.5452 0.0
H3624 H 0.30275 0.19343 0.61812 0.0
H3625 H 0.22891 0.20814 0.61565 0.0
H3626 H 0.23535 0.18838 0.60159 0.0
H3627 H 0.242 0.21172 0.59486 0.0
C3628 C 0.27154 0.15733 0.57374 0.0
C3629 C 0.2714 0.16664 0.55674 0.0
C3630 C 0.27224 0.1674 0.5917 0.0
C3631 C 0.27261 0.18691 0.59299 0.0
C3632 C 0.27235 0.19629 0.57608 0.0
H3633 H 0.27394 0.25953 0.70032 0.0
H3634 H 0.27152 0.2484 0.66597 0.0
C3635 C 0.27177 0.18622 0.55806 0.0
C3636 C 0.27398 0.19737 0.61218 0.0
H3637 H 0.24813 0.21801 0.64435 0.0
C3638 C 0.29088 0.19896 0.62382 0.0
C3639 C 0.25851 0.20471 0.61942 0.0
C3640 C 0.24008 0.20318 0.60735 0.0
C3641 C 0.29261 0.20734 0.64275 0.0
C3642 C 0.27685 0.21384 0.65039 0.0
C3643 C 0.26015 0.21291 0.63848 0.0
C3644 C 0.2772 0.22047 0.67104 0.0
C3645 C 0.3113 0.20907 0.65445 0.0
C3646 C 0.28059 0.20828 0.68521 0.0
C3647 C 0.28202 0.21456 0.7047 0.0
C3648 C 0.2799 0.23314 0.71049 0.0
C3649 C 0.2757 0.24515 0.69631 0.0
C3650 C 0.27433 0.23884 0.6767 0.0
H3651 H 0.32304 0.20894 0.64502 0.0
H3652 H 0.31396 0.22217 0.66422 0.0
H3653 H 0.31128 0.19696 0.66336 0.0
H3654 H 0.28237 0.19391 0.68116 0.0
H3655 H 0.28505 0.20487 0.71524 0.0
H3656 H 0.64001 0.50456 0.21716 0.0
H3657 H 0.62368 0.50377 0.1851 0.0
H3658 H 0.57682 0.52405 0.2103 0.0
H3659 H 0.59319 0.52507 0.24251 0.0
H3660 H 0.58831 0.48311 0.17187 0.0
H3661 H 0.58904 0.55992 0.16796 0.0
H3662 H 0.60407 0.55051 0.18541 0.0
H3663 H 0.57962 0.55012 0.18878 0.0
C3664 C 0.62625 0.50892 0.21589 0.0
C3665 C 0.61789 0.51492 0.23234 0.0
C3666 C 0.61695 0.50846 0.19757 0.0
C3667 C 0.59915 0.51407 0.19532 0.0
C3668 C 0.59069 0.51998 0.21171 0.0
H3669 H 0.52879 0.51325 0.08663 0.0
H3670 H 0.53991 0.51725 0.12102 0.0
C3671 C 0.6 0.52044 0.23009 0.0
C3672 C 0.58938 0.5131 0.17578 0.0
H3673 H 0.57421 0.53999 0.14124 0.0
C3674 C 0.58513 0.49554 0.16521 0.0
C3675 C 0.58513 0.52933 0.16721 0.0
C3676 C 0.58979 0.54859 0.17781 0.0
C3677 C 0.57708 0.49378 0.14615 0.0
C3678 C 0.57345 0.51006 0.13734 0.0
C3679 C 0.57707 0.52757 0.14808 0.0
C3680 C 0.56709 0.50916 0.11661 0.0
C3681 C 0.57266 0.47451 0.13551 0.0
C3682 C 0.57893 0.50387 0.10282 0.0
C3683 C 0.57269 0.50162 0.08329 0.0
C3684 C 0.55447 0.50467 0.07714 0.0
C3685 C 0.54288 0.51075 0.09093 0.0
C3686 C 0.54918 0.51302 0.11055 0.0
H3687 H 0.57164 0.46325 0.14559 0.0
H3688 H 0.55927 0.47305 0.12625 0.0
H3689 H 0.58404 0.47238 0.1261 0.0
H3690 H 0.59292 0.50113 0.10722 0.0
H3691 H 0.58205 0.49708 0.07307 0.0
H3692 H 0.24798 0.82986 0.98104 0.0
H3693 H 0.24646 0.80897 0.95155 0.0
H3694 H 0.24763 0.85658 0.91753 0.0
H3695 H 0.24885 0.87754 0.94694 0.0
H3696 H 0.22197 0.8246 0.90193 0.0
H3697 H 0.29328 0.80732 0.92159 0.0
H3698 H 0.27638 0.80281 0.93898 0.0
H3699 H 0.28422 0.82653 0.93386 0.0
C3700 C 0.24773 0.83585 0.96726 0.0
C3701 C 0.24872 0.85534 0.96627 0.0
C3702 C 0.24692 0.82391 0.95046 0.0
C3703 C 0.24724 0.83129 0.93243 0.0
C3704 C 0.24742 0.85064 0.93135 0.0
H3705 H 0.2848 0.80219 0.8251 0.0
H3706 H 0.27893 0.81331 0.85754 0.0
C3707 C 0.24816 0.86259 0.94814 0.0
C3708 C 0.24846 0.81911 0.91473 0.0
H3709 H 0.27814 0.79389 0.89187 0.0
C3710 C 0.23411 0.81766 0.89977 0.0
C3711 C 0.26441 0.81021 0.91201 0.0
C3712 C 0.28055 0.81185 0.92736 0.0
C3713 C 0.23556 0.80797 0.88189 0.0
C3714 C 0.25169 0.79941 0.87906 0.0
C3715 C 0.26573 0.80034 0.89422 0.0
C3716 C 0.25542 0.79161 0.8598 0.0
C3717 C 0.22034 0.80778 0.86583 0.0
C3718 C 0.24433 0.77547 0.85048 0.0
C3719 C 0.24765 0.76903 0.8318 0.0
C3720 C 0.26206 0.77872 0.82225 0.0
C3721 C 0.27344 0.79453 0.83194 0.0
C3722 C 0.27017 0.80088 0.85053 0.0
H3723 H 0.21 0.81716 0.86964 0.0
H3724 H 0.22656 0.8122 0.8525 0.0
H3725 H 0.21274 0.79328 0.86262 0.0
H3726 H 0.23302 0.76802 0.85755 0.0
H3727 H 0.23869 0.75678 0.8247 0.0
H3728 H 0.94356 0.55195 0.72753 0.0
H3729 H 0.96517 0.55024 0.70218 0.0
H3730 H 0.94372 0.49148 0.68895 0.0
H3731 H 0.92189 0.49314 0.71397 0.0
H3732 H 0.99336 0.52752 0.69849 0.0
H3733 H 0.93909 0.51285 0.63658 0.0
H3734 H 0.93394 0.52125 0.6603 0.0
H3735 H 0.93573 0.49686 0.65497 0.0
C3736 C 0.94335 0.53872 0.71909 0.0
C3737 C 0.93094 0.52271 0.72259 0.0
C3738 C 0.95574 0.53774 0.7047 0.0
C3739 C 0.95587 0.52079 0.69358 0.0
C3740 C 0.94358 0.50478 0.69714 0.0
H3741 H 0.01402 0.4873 0.59625 0.0
H3742 H 0.99843 0.48725 0.62612 0.0
C3743 C 0.93115 0.50575 0.71145 0.0
C3744 C 0.96894 0.51978 0.67832 0.0
H3745 H 0.97029 0.50992 0.62998 0.0
C3746 C 0.98836 0.52372 0.68349 0.0
C3747 C 0.96233 0.51486 0.65879 0.0
C3748 C 0.94164 0.51138 0.65225 0.0
C3749 C 0.00137 0.52256 0.66961 0.0
C3750 C 0.99472 0.51748 0.65013 0.0
C3751 C 0.97532 0.51359 0.64499 0.0
C3752 C 0.00743 0.51677 0.63451 0.0
C3753 C 0.02208 0.52648 0.67589 0.0
C3754 C 0.01823 0.53326 0.62974 0.0
C3755 C 0.02722 0.53334 0.61267 0.0
C3756 C 0.02534 0.51698 0.60003 0.0
C3757 C 0.01565 0.50018 0.6056 0.0
C3758 C 0.00672 0.50011 0.62266 0.0
H3759 H 0.02486 0.52545 0.69162 0.0
H3760 H 0.02983 0.51657 0.66796 0.0
H3761 H 0.02771 0.54093 0.67268 0.0
H3762 H 0.01872 0.54633 0.63855 0.0
H3763 H 0.03454 0.54652 0.6088 0.0
H3764 H 0.24583 0.16258 0.44684 0.0
H3765 H 0.2483 0.18134 0.41909 0.0
H3766 H 0.30774 0.19691 0.43426 0.0
H3767 H 0.30539 0.17808 0.46212 0.0
H3768 H 0.26249 0.22093 0.41821 0.0
H3769 H 0.30311 0.17386 0.37719 0.0
H3770 H 0.29031 0.16641 0.39724 0.0
H3771 H 0.31219 0.18193 0.40152 0.0
C3772 C 0.25944 0.17 0.4443 0.0
C3773 C 0.27544 0.16877 0.45661 0.0
C3774 C 0.26081 0.18076 0.42848 0.0
C3775 C 0.27822 0.19039 0.42455 0.0
C3776 C 0.29421 0.18942 0.43693 0.0
H3777 H 0.28776 0.26773 0.33177 0.0
H3778 H 0.29198 0.25526 0.3634 0.0
C3779 C 0.29283 0.1787 0.45285 0.0
C3780 C 0.2795 0.20108 0.40723 0.0
H3781 H 0.29522 0.20015 0.36224 0.0
C3782 C 0.26983 0.21657 0.40604 0.0
C3783 C 0.289 0.19523 0.39137 0.0
C3784 C 0.29917 0.17838 0.3917 0.0
C3785 C 0.26907 0.22611 0.38922 0.0
C3786 C 0.27828 0.22004 0.37325 0.0
C3787 C 0.28831 0.20484 0.3746 0.0
C3788 C 0.27603 0.22794 0.35435 0.0
C3789 C 0.25775 0.24209 0.3883 0.0
C3790 C 0.26582 0.21668 0.33883 0.0
C3791 C 0.26334 0.22372 0.3209 0.0
C3792 C 0.27117 0.24219 0.31797 0.0
C3793 C 0.28152 0.25348 0.33354 0.0
C3794 C 0.28391 0.2464 0.35161 0.0
H3795 H 0.24954 0.24353 0.40103 0.0
H3796 H 0.26736 0.25543 0.38766 0.0
H3797 H 0.24795 0.23999 0.37504 0.0
H3798 H 0.25962 0.20241 0.34065 0.0
H3799 H 0.25528 0.21459 0.3093 0.0
H3800 H 0.32723 0.61939 0.48445 0.0
H3801 H 0.35262 0.60122 0.47835 0.0
H3802 H 0.34654 0.57726 0.5328 0.0
H3803 H 0.32085 0.59504 0.53877 0.0
H3804 H 0.3854 0.60454 0.49929 0.0
H3805 H 0.35039 0.53117 0.49781 0.0
H3806 H 0.33742 0.55067 0.49596 0.0
H3807 H 0.34629 0.54479 0.51919 0.0
C3808 C 0.33116 0.61007 0.49501 0.0
C3809 C 0.32211 0.60864 0.51211 0.0
C3810 C 0.34562 0.59966 0.49148 0.0
C3811 C 0.35126 0.58762 0.50495 0.0
C3812 C 0.34208 0.58604 0.52194 0.0
H3813 H 0.45632 0.56028 0.53952 0.0
H3814 H 0.42625 0.57111 0.53343 0.0
C3815 C 0.32754 0.59636 0.52544 0.0
C3816 C 0.36795 0.57825 0.50223 0.0
H3817 H 0.38423 0.53626 0.5047 0.0
C3818 C 0.38504 0.58955 0.50008 0.0
C3819 C 0.36747 0.55865 0.50297 0.0
C3820 C 0.34935 0.5456 0.5039 0.0
C3821 C 0.40183 0.58198 0.49989 0.0
C3822 C 0.40156 0.56268 0.50223 0.0
C3823 C 0.38437 0.55111 0.50313 0.0
C3824 C 0.41919 0.5549 0.50593 0.0
C3825 C 0.41986 0.59482 0.49785 0.0
C3826 C 0.42486 0.54169 0.4927 0.0
C3827 C 0.44219 0.53537 0.49614 0.0
C3828 C 0.45392 0.54218 0.5129 0.0
C3829 C 0.44776 0.5549 0.52636 0.0
C3830 C 0.43058 0.56115 0.52292 0.0
H3831 H 0.41718 0.6076 0.4908 0.0
H3832 H 0.42706 0.59936 0.51238 0.0
H3833 H 0.42947 0.5875 0.48934 0.0
H3834 H 0.41612 0.53663 0.47956 0.0
H3835 H 0.44656 0.52552 0.48556 0.0
H3836 H 0.81134 0.94818 0.55615 0.0
H3837 H 0.84259 0.96716 0.55798 0.0
H3838 H 0.86408 0.92106 0.52878 0.0
H3839 H 0.8331 0.90206 0.527 0.0
H3840 H 0.88672 0.93853 0.56254 0.0
H3841 H 0.86779 0.99016 0.51165 0.0
H3842 H 0.85358 0.98647 0.53155 0.0
H3843 H 0.85323 0.96786 0.51298 0.0
C3844 C 0.82275 0.94211 0.55015 0.0
C3845 C 0.81977 0.92365 0.54138 0.0
C3846 C 0.84055 0.95299 0.55113 0.0
C3847 C 0.85557 0.94556 0.54333 0.0
C3848 C 0.85265 0.92706 0.53484 0.0
H3849 H 0.9682 0.96754 0.51715 0.0
H3850 H 0.93637 0.9557 0.52415 0.0
C3851 C 0.83493 0.91623 0.53382 0.0
C3852 C 0.87447 0.95683 0.54391 0.0
H3853 H 0.89948 0.99296 0.5235 0.0
C3854 C 0.88949 0.95058 0.5542 0.0
C3855 C 0.87801 0.97262 0.53312 0.0
C3856 C 0.86238 0.9797 0.52157 0.0
C3857 C 0.90804 0.95929 0.55347 0.0
C3858 C 0.91169 0.97444 0.54187 0.0
C3859 C 0.89661 0.98131 0.53234 0.0
C3860 C 0.93109 0.98202 0.53794 0.0
C3861 C 0.92362 0.95197 0.56485 0.0
C3862 C 0.93856 0.00094 0.54294 0.0
C3863 C 0.95689 0.00785 0.53889 0.0
C3864 C 0.9679 0.99596 0.52958 0.0
C3865 C 0.96019 0.9771 0.5244 0.0
C3866 C 0.942 0.97024 0.5285 0.0
H3867 H 0.91836 0.94463 0.57728 0.0
H3868 H 0.92961 0.94174 0.55539 0.0
H3869 H 0.93506 0.96352 0.57031 0.0
H3870 H 0.93027 0.01029 0.55009 0.0
H3871 H 0.96238 0.02246 0.54299 0.0
H3872 H 0.84695 0.05777 0.22742 0.0
H3873 H 0.83012 0.08494 0.22856 0.0
H3874 H 0.86354 0.10795 0.28089 0.0
H3875 H 0.88062 0.08101 0.27967 0.0
H3876 H 0.80896 0.09884 0.25691 0.0
H3877 H 0.87093 0.15067 0.24562 0.0
H3878 H 0.87071 0.12567 0.24156 0.0
H3879 H 0.87439 0.13694 0.26565 0.0
C3880 C 0.85073 0.06864 0.23914 0.0
C3881 C 0.86522 0.06736 0.25336 0.0
C3882 C 0.84107 0.08411 0.23981 0.0
C3883 C 0.84575 0.09857 0.25466 0.0
C3884 C 0.85994 0.09712 0.2691 0.0
H3885 H 0.78271 0.19042 0.28297 0.0
H3886 H 0.79583 0.16088 0.28274 0.0
C3887 C 0.86965 0.0817 0.26841 0.0
C3888 C 0.83597 0.11529 0.25491 0.0
H3889 H 0.84336 0.16284 0.25316 0.0
C3890 C 0.81644 0.11285 0.25607 0.0
C3891 C 0.84576 0.1335 0.25361 0.0
C3892 C 0.86657 0.13691 0.25136 0.0
C3893 C 0.80645 0.1282 0.2561 0.0
C3894 C 0.81633 0.14646 0.25521 0.0
C3895 C 0.83583 0.14884 0.25397 0.0
C3896 C 0.80677 0.16332 0.25482 0.0
C3897 C 0.78541 0.12471 0.25665 0.0
C3898 C 0.80855 0.17446 0.23923 0.0
C3899 C 0.80126 0.19134 0.23941 0.0
C3900 C 0.79201 0.19746 0.25521 0.0
C3901 C 0.78964 0.18599 0.27055 0.0
C3902 C 0.79708 0.16909 0.2704 0.0
H3903 H 0.77955 0.10975 0.25256 0.0
H3904 H 0.78181 0.12836 0.2715 0.0
H3905 H 0.77854 0.13359 0.24681 0.0
H3906 H 0.81595 0.17028 0.22706 0.0
H3907 H 0.80323 0.19979 0.22731 0.0
H3908 H 0.73755 0.08296 0.00669 0.0
H3909 H 0.70511 0.06678 0.00264 0.0
H3910 H 0.68641 0.11521 0.03058 0.0
H3911 H 0.71877 0.13133 0.03499 0.0
H3912 H 0.66951 0.08127 0.04262 0.0
H3913 H 0.66583 0.08016 0.96268 0.0
H3914 H 0.68456 0.06944 0.97341 0.0
H3915 H 0.68458 0.09424 0.97806 0.0
C3916 C 0.72652 0.0901 0.01207 0.0
C3917 C 0.73065 0.10846 0.02102 0.0
C3918 C 0.70801 0.08088 0.00967 0.0
C3919 C 0.69335 0.08993 0.01603 0.0
C3920 C 0.69753 0.10802 0.02551 0.0
H3921 H 0.57594 0.07279 0.98025 0.0
H3922 H 0.60953 0.08337 0.98727 0.0
C3923 C 0.71601 0.11721 0.02798 0.0
C3924 C 0.67354 0.08089 0.01234 0.0
H3925 H 0.63911 0.06562 0.97622 0.0
C3926 C 0.66285 0.07773 0.02812 0.0
C3927 C 0.6649 0.07651 0.99339 0.0
C3928 C 0.67547 0.08038 0.97588 0.0
C3929 C 0.64366 0.07046 0.02544 0.0
C3930 C 0.63506 0.06599 0.00649 0.0
C3931 C 0.6458 0.06894 0.99073 0.0
C3932 C 0.61466 0.05936 0.00259 0.0
C3933 C 0.63261 0.06825 0.04288 0.0
C3934 C 0.60642 0.04228 0.00879 0.0
C3935 C 0.58714 0.0362 0.00486 0.0
C3936 C 0.57585 0.04706 0.99453 0.0
C3937 C 0.58422 0.06409 0.98824 0.0
C3938 C 0.60343 0.07015 0.99222 0.0
H3939 H 0.64031 0.07611 0.05605 0.0
H3940 H 0.61883 0.07321 0.04047 0.0
H3941 H 0.62995 0.05318 0.04554 0.0
H3942 H 0.61492 0.03358 0.01652 0.0
H3943 H 0.58113 0.02296 0.00981 0.0
H3944 H 0.20368 0.48028 0.28881 0.0
H3945 H 0.22228 0.45479 0.29282 0.0
H3946 H 0.17566 0.41484 0.26634 0.0
H3947 H 0.15685 0.44017 0.26275 0.0
H3948 H 0.19233 0.40257 0.29864 0.0
H3949 H 0.24597 0.42832 0.24973 0.0
H3950 H 0.24316 0.44471 0.26954 0.0
H3951 H 0.22422 0.43771 0.25111 0.0
C3952 C 0.19741 0.46606 0.28384 0.0
C3953 C 0.17886 0.46221 0.27535 0.0
C3954 C 0.20808 0.45153 0.28607 0.0
C3955 C 0.20045 0.43297 0.27961 0.0
C3956 C 0.18183 0.42908 0.27139 0.0
H3957 H 0.24386 0.33635 0.24179 0.0
H3958 H 0.23312 0.36649 0.24753 0.0
C3959 C 0.17112 0.44357 0.26929 0.0
C3960 C 0.21177 0.41748 0.28115 0.0
H3961 H 0.24985 0.40061 0.26428 0.0
C3962 C 0.20502 0.40218 0.29129 0.0
C3963 C 0.22828 0.41704 0.27148 0.0
C3964 C 0.2358 0.43272 0.25971 0.0
C3965 C 0.21391 0.38612 0.29144 0.0
C3966 C 0.23025 0.38556 0.28152 0.0
C3967 C 0.23742 0.40117 0.27201 0.0
C3968 C 0.23856 0.36807 0.27855 0.0
C3969 C 0.20513 0.36952 0.30128 0.0
C3970 C 0.2457 0.35911 0.29409 0.0
C3971 C 0.25177 0.34164 0.29086 0.0
C3972 C 0.25089 0.333 0.27202 0.0
C3973 C 0.24461 0.34251 0.2565 0.0
C3974 C 0.2385 0.35982 0.25974 0.0
H3975 H 0.19072 0.37099 0.30513 0.0
H3976 H 0.20444 0.35631 0.29189 0.0
H3977 H 0.21385 0.36826 0.31475 0.0
H3978 H 0.24622 0.36544 0.30871 0.0
H3979 H 0.25664 0.33471 0.3031 0.0
H3980 H 0.21287 0.41457 0.0571 0.0
H3981 H 0.18734 0.43332 0.05341 0.0
H3982 H 0.20553 0.4488 0.99852 0.0
H3983 H 0.23099 0.42989 0.002 0.0
H3984 H 0.18954 0.47206 0.04854 0.0
H3985 H 0.14954 0.42828 0.98594 0.0
H3986 H 0.16782 0.42008 0.00064 0.0
H3987 H 0.1738 0.43642 0.98307 0.0
C3988 C 0.21141 0.42193 0.04422 0.0
C3989 C 0.22387 0.42068 0.02979 0.0
C3990 C 0.19684 0.43266 0.04215 0.0
C3991 C 0.1944 0.44226 0.02558 0.0
C3992 C 0.20696 0.44123 0.01125 0.0
H3993 H 0.10191 0.5051 0.99499 0.0
H3994 H 0.13215 0.49318 0.9948 0.0
C3995 C 0.22154 0.4305 0.01331 0.0
C3996 C 0.17874 0.45341 0.0235 0.0
H3997 H 0.13736 0.45526 0.99715 0.0
C3998 C 0.17818 0.46846 0.03724 0.0
C3999 C 0.16402 0.44878 0.00864 0.0
C4000 C 0.16365 0.43243 0.99379 0.0
C4001 C 0.16313 0.4788 0.03675 0.0
C4002 C 0.14808 0.47374 0.02232 0.0
C4003 C 0.14894 0.45913 0.00816 0.0
C4004 C 0.13055 0.4822 0.02277 0.0
C4005 C 0.16339 0.49496 0.05178 0.0
C4006 C 0.11967 0.47993 0.03849 0.0
C4007 C 0.1025 0.48663 0.03861 0.0
C4008 C 0.09575 0.49571 0.02296 0.0
C4009 C 0.10679 0.49826 0.00731 0.0
C4010 C 0.12401 0.49143 0.00716 0.0
H4011 H 0.17795 0.50068 0.05772 0.0
H4012 H 0.15673 0.50646 0.04576 0.0
H4013 H 0.15544 0.48995 0.0639 0.0
H4014 H 0.12424 0.47252 0.0505 0.0
H4015 H 0.09436 0.4844 0.0509 0.0
H4016 H 0.8852 0.95305 0.24796 0.0
H4017 H 0.8664 0.92215 0.24872 0.0
H4018 H 0.81579 0.94744 0.24679 0.0
H4019 H 0.83452 0.97853 0.24614 0.0
H4020 H 0.83846 0.91449 0.27948 0.0
H4021 H 0.80828 0.90084 0.20306 0.0
H4022 H 0.8302 0.91617 0.20973 0.0
H4023 H 0.80851 0.9237 0.21543 0.0
C4024 C 0.87006 0.95204 0.24751 0.0
C4025 C 0.86132 0.96821 0.24702 0.0
C4026 C 0.85936 0.93439 0.24796 0.0
C4027 C 0.83976 0.93258 0.24771 0.0
C4028 C 0.83092 0.9486 0.24682 0.0
H4029 H 0.76122 0.82793 0.2501 0.0
H4030 H 0.774 0.8609 0.24718 0.0
C4031 C 0.84162 0.96631 0.2465 0.0
C4032 C 0.82878 0.91398 0.24953 0.0
H4033 H 0.80082 0.87704 0.2238 0.0
C4034 C 0.83012 0.90632 0.26736 0.0
C4035 C 0.81777 0.90356 0.23373 0.0
C4036 C 0.81604 0.91134 0.21432 0.0
C4037 C 0.821 0.88827 0.26976 0.0
C4038 C 0.81069 0.87742 0.25373 0.0
C4039 C 0.80881 0.88535 0.23603 0.0
C4040 C 0.80282 0.85745 0.25484 0.0
C4041 C 0.82251 0.88098 0.28946 0.0
C4042 C 0.81484 0.84456 0.25964 0.0
C4043 C 0.80762 0.82586 0.2614 0.0
C4044 C 0.78822 0.81956 0.25816 0.0
C4045 C 0.77622 0.83236 0.25274 0.0
C4046 C 0.78349 0.85118 0.25108 0.0
H4047 H 0.82555 0.89266 0.30104 0.0
H4048 H 0.80938 0.87187 0.29217 0.0
H4049 H 0.83422 0.87258 0.29038 0.0
H4050 H 0.82985 0.84898 0.26211 0.0
H4051 H 0.8173 0.81634 0.26534 0.0
H4052 H 0.67392 0.05601 0.79527 0.0
H4053 H 0.68822 0.08892 0.79712 0.0
H4054 H 0.69192 0.08477 0.73559 0.0
H4055 H 0.67732 0.05179 0.73357 0.0
H4056 H 0.723 0.10522 0.78596 0.0
H4057 H 0.66308 0.12935 0.74508 0.0
H4058 H 0.66124 0.10661 0.75452 0.0
H4059 H 0.67298 0.11067 0.73307 0.0
C4060 C 0.67781 0.06207 0.78212 0.0
C4061 C 0.6744 0.05138 0.76425 0.0
C4062 C 0.68601 0.08086 0.78322 0.0
C4063 C 0.6909 0.08931 0.76647 0.0
C4064 C 0.68794 0.07857 0.74863 0.0
H4065 H 0.75624 0.20231 0.77306 0.0
H4066 H 0.74575 0.1687 0.76493 0.0
C4067 C 0.6797 0.05974 0.74752 0.0
C4068 C 0.6988 0.10946 0.76785 0.0
H4069 H 0.68909 0.15224 0.75582 0.0
C4070 C 0.7157 0.11552 0.77926 0.0
C4071 C 0.68909 0.12281 0.75921 0.0
C4072 C 0.67051 0.11714 0.7474 0.0
C4073 C 0.72301 0.13464 0.78255 0.0
C4074 C 0.71328 0.14799 0.77395 0.0
C4075 C 0.69655 0.14192 0.76227 0.0
C4076 C 0.71948 0.16841 0.77805 0.0
C4077 C 0.74068 0.14046 0.79581 0.0
C4078 C 0.70795 0.17942 0.78764 0.0
C4079 C 0.71383 0.19859 0.79221 0.0
C4080 C 0.73135 0.20712 0.7872 0.0
C4081 C 0.74273 0.19612 0.77723 0.0
C4082 C 0.7368 0.17692 0.77264 0.0
H4083 H 0.74426 0.12884 0.8043 0.0
H4084 H 0.75258 0.14474 0.7871 0.0
H4085 H 0.73919 0.15263 0.80595 0.0
H4086 H 0.6945 0.1731 0.79188 0.0
H4087 H 0.70471 0.20666 0.79983 0.0
loop_
_geom_bond_atom_site_label_1
_geom_bond_atom_site_label_2
_geom_bond_distance
_geom_bond_site_symmetry_2
_ccdc_geom_bond_type
In0 O1 2.294 . S
In0 O2 2.326 . S
In0 O6 2.266 . S
In0 O7 2.326 1_455 S
In0 O8 2.266 . S
In0 O9 2.326 . S
In0 O11 2.294 . S
In0 O12 2.326 . S
O1 In0 2.294 . S
O1 C10 1.240 . S
O2 In0 2.326 . S
O2 C10 1.252 . S
C3 O6 1.252 1_655 S
C3 O7 1.260 . S
C4 O11 1.240 . S
C4 O12 1.252 . S
C5 O8 1.252 . S
C5 O9 1.260 . S
O6 In0 2.266 . S
O6 C3 1.252 1_455 S
O7 In0 2.326 1_655 S
O7 C3 1.260 . S
O8 In0 2.266 . S
O8 C5 1.252 . S
O9 In0 2.326 . S
O9 C5 1.260 . S
C10 O1 1.240 . S
C10 O2 1.252 . S
O11 In0 2.294 . S
O11 C4 1.240 . S
O12 In0 2.326 . S
O12 C4 1.252 . S
In13 O14 2.294 . S
In13 O15 2.326 . S
In13 O19 2.266 . S
In13 O20 2.326 . S
In13 O21 2.266 1_455 S
In13 O22 2.326 1_455 S
In13 O24 2.294 . S
In13 O25 2.326 . S
O14 In13 2.294 . S
O14 C23 1.240 . S
O15 In13 2.326 . S
O15 C23 1.252 . S
C16 O19 1.252 . S
C16 O20 1.260 . S
C17 O24 1.240 . S
C17 O25 1.252 . S
C18 O21 1.252 . S
C18 O22 1.260 . S
O19 In13 2.266 . S
O19 C16 1.252 . S
O20 In13 2.326 . S
O20 C16 1.260 . S
O21 In13 2.266 1_655 S
O21 C18 1.252 . S
O22 In13 2.326 1_655 S
O22 C18 1.260 . S
C23 O14 1.240 . S
C23 O15 1.252 . S
O24 In13 2.294 . S
O24 C17 1.240 . S
O25 In13 2.326 . S
O25 C17 1.252 . S
In26 O27 2.294 . S
In26 O28 2.326 . S
In26 O32 2.266 . S
In26 O33 2.326 . S
In26 O34 2.266 . S
In26 O35 2.326 . S
In26 O37 2.294 . S
In26 O38 2.326 . S
O27 In26 2.294 . S
O27 C36 1.240 . S
O28 In26 2.326 . S
O28 C36 1.252 . S
C29 O32 1.252 . S
C29 O33 1.260 . S
C30 O37 1.240 . S
C30 O38 1.252 . S
C31 O34 1.252 . S
C31 O35 1.260 . S
O32 In26 2.266 . S
O32 C29 1.252 . S
O33 In26 2.326 . S
O33 C29 1.260 . S
O34 In26 2.266 . S
O34 C31 1.252 . S
O35 In26 2.326 . S
O35 C31 1.260 . S
C36 O27 1.240 . S
C36 O28 1.252 . S
O37 In26 2.294 . S
O37 C30 1.240 . S
O38 In26 2.326 . S
O38 C30 1.252 . S
In39 O40 2.294 . S
In39 O41 2.326 . S
In39 O45 2.266 . S
In39 O46 2.326 . S
In39 O47 2.266 . S
In39 O48 2.326 . S
In39 O50 2.294 . S
In39 O51 2.326 . S
O40 In39 2.294 . S
O40 C49 1.240 . S
O41 In39 2.326 . S
O41 C49 1.252 . S
C42 O45 1.252 . S
C42 O46 1.260 . S
C43 O50 1.240 . S
C43 O51 1.252 . S
C44 O47 1.252 . S
C44 O48 1.260 . S
O45 In39 2.266 . S
O45 C42 1.252 . S
O46 In39 2.326 . S
O46 C42 1.260 . S
O47 In39 2.266 . S
O47 C44 1.252 . S
O48 In39 2.326 . S
O48 C44 1.260 . S
C49 O40 1.240 . S
C49 O41 1.252 . S
O50 In39 2.294 . S
O50 C43 1.240 . S
O51 In39 2.326 . S
O51 C43 1.252 . S
In52 O53 2.294 . S
In52 O54 2.326 . S
In52 O58 2.266 . S
In52 O59 2.326 . S
In52 O60 2.266 . S
In52 O61 2.326 . S
In52 O63 2.294 . S
In52 O64 2.326 1_455 S
O53 In52 2.294 . S
O53 C62 1.240 . S
O54 In52 2.326 . S
O54 C62 1.252 . S
C55 O58 1.252 . S
C55 O59 1.260 . S
C56 O63 1.240 1_655 S
C56 O64 1.252 . S
C57 O60 1.252 . S
C57 O61 1.260 . S
O58 In52 2.266 . S
O58 C55 1.252 . S
O59 In52 2.326 . S
O59 C55 1.260 . S
O60 In52 2.266 . S
O60 C57 1.252 . S
O61 In52 2.326 . S
O61 C57 1.260 . S
C62 O53 1.240 . S
C62 O54 1.252 . S
O63 In52 2.294 . S
O63 C56 1.240 1_455 S
O64 In52 2.326 1_655 S
O64 C56 1.252 . S
In65 O66 2.294 . S
In65 O67 2.326 . S
In65 O71 2.266 . S
In65 O72 2.326 . S
In65 O73 2.266 . S
In65 O74 2.326 . S
In65 O76 2.294 . S
In65 O77 2.326 . S
O66 In65 2.294 . S
O66 C75 1.240 . S
O67 In65 2.326 . S
O67 C75 1.252 . S
C68 O71 1.252 . S
C68 O72 1.260 . S
C69 O76 1.240 . S
C69 O77 1.252 . S
C70 O73 1.252 . S
C70 O74 1.260 . S
O71 In65 2.266 . S
O71 C68 1.252 . S
O72 In65 2.326 . S
O72 C68 1.260 . S
O73 In65 2.266 . S
O73 C70 1.252 . S
O74 In65 2.326 . S
O74 C70 1.260 . S
C75 O66 1.240 . S
C75 O67 1.252 . S
O76 In65 2.294 . S
O76 C69 1.240 . S
O77 In65 2.326 . S
O77 C69 1.252 . S
In78 O79 2.294 . S
In78 O80 2.326 . S
In78 O84 2.266 . S
In78 O85 2.326 . S
In78 O86 2.266 . S
In78 O87 2.326 . S
In78 O89 2.294 . S
In78 O90 2.326 . S
O79 In78 2.294 . S
O79 C88 1.240 . S
O80 In78 2.326 . S
O80 C88 1.252 . S
C81 O84 1.252 . S
C81 O85 1.260 . S
C82 O89 1.240 . S
C82 O90 1.252 . S
C83 O86 1.252 . S
C83 O87 1.260 . S
O84 In78 2.266 . S
O84 C81 1.252 . S
O85 In78 2.326 . S
O85 C81 1.260 . S
O86 In78 2.266 . S
O86 C83 1.252 . S
O87 In78 2.326 . S
O87 C83 1.260 . S
C88 O79 1.240 . S
C88 O80 1.252 . S
O89 In78 2.294 . S
O89 C82 1.240 . S
O90 In78 2.326 . S
O90 C82 1.252 . S
In91 O92 2.294 . S
In91 O93 2.326 . S
In91 O97 2.266 . S
In91 O98 2.326 . S
In91 O99 2.266 1_455 S
In91 O100 2.326 1_455 S
In91 O102 2.294 . S
In91 O103 2.326 . S
O92 In91 2.294 . S
O92 C101 1.240 . S
O93 In91 2.326 . S
O93 C101 1.252 . S
C94 O97 1.252 . S
C94 O98 1.260 . S
C95 O102 1.240 . S
C95 O103 1.252 . S
C96 O99 1.252 . S
C96 O100 1.260 . S
O97 In91 2.266 . S
O97 C94 1.252 . S
O98 In91 2.326 . S
O98 C94 1.260 . S
O99 In91 2.266 1_655 S
O99 C96 1.252 . S
O100 In91 2.326 1_655 S
O100 C96 1.260 . S
C101 O92 1.240 . S
C101 O93 1.252 . S
O102 In91 2.294 . S
O102 C95 1.240 . S
O103 In91 2.326 . S
O103 C95 1.252 . S
In104 O105 2.294 . S
In104 O106 2.326 . S
In104 O110 2.266 . S
In104 O111 2.326 . S
In104 O112 2.293 . S
In104 O113 2.326 1_545 S
In104 O115 2.294 . S
In104 O116 2.326 . S
O105 In104 2.294 . S
O105 C114 1.240 . S
O106 In104 2.326 . S
O106 C114 1.252 . S
C107 O110 1.252 . S
C107 O111 1.260 . S
C108 O115 1.240 . S
C108 O116 1.252 . S
C109 O112 1.217 1_565 S
C109 O113 1.260 . S
O110 In104 2.266 . S
O110 C107 1.252 . S
O111 In104 2.326 . S
O111 C107 1.260 . S
O112 In104 2.293 . S
O112 C109 1.217 1_545 S
O113 In104 2.326 1_565 S
O113 C109 1.260 . S
C114 O105 1.240 . S
C114 O106 1.252 . S
O115 In104 2.294 . S
O115 C108 1.240 . S
O116 In104 2.326 . S
O116 C108 1.252 . S
In117 O118 2.294 . S
In117 O119 2.326 . S
In117 O123 2.266 . S
In117 O124 2.326 . S
In117 O125 2.266 . S
In117 O126 2.326 . S
In117 O128 2.294 . S
In117 O129 2.326 . S
O118 In117 2.294 . S
O118 C127 1.240 . S
O119 In117 2.326 . S
O119 C127 1.252 . S
C120 O123 1.252 . S
C120 O124 1.260 . S
C121 O128 1.240 . S
C121 O129 1.252 . S
C122 O125 1.252 . S
C122 O126 1.260 . S
O123 In117 2.266 . S
O123 C120 1.252 . S
O124 In117 2.326 . S
O124 C120 1.260 . S
O125 In117 2.266 . S
O125 C122 1.252 . S
O126 In117 2.326 . S
O126 C122 1.260 . S
C127 O118 1.240 . S
C127 O119 1.252 . S
O128 In117 2.294 . S
O128 C121 1.240 . S
O129 In117 2.326 . S
O129 C121 1.252 . S
In130 O131 2.294 . S
In130 O132 2.326 . S
In130 O136 2.266 . S
In130 O137 2.326 . S
In130 O138 2.266 . S
In130 O139 2.326 . S
In130 O141 2.294 1_545 S
In130 O142 2.326 1_545 S
O131 In130 2.294 . S
O131 C140 1.240 . S
O132 In130 2.326 . S
O132 C140 1.252 . S
C133 O136 1.252 . S
C133 O137 1.260 . S
C134 O141 1.240 . S
C134 O142 1.252 . S
C135 O138 1.252 . S
C135 O139 1.260 . S
O136 In130 2.266 . S
O136 C133 1.252 . S
O137 In130 2.326 . S
O137 C133 1.260 . S
O138 In130 2.266 . S
O138 C135 1.252 . S
O139 In130 2.326 . S
O139 C135 1.260 . S
C140 O131 1.240 . S
C140 O132 1.252 . S
O141 In130 2.294 1_565 S
O141 C134 1.240 . S
O142 In130 2.326 1_565 S
O142 C134 1.252 . S
In143 O144 2.294 . S
In143 O145 2.326 . S
In143 O149 2.266 1_554 S
In143 O150 2.326 1_554 S
In143 O151 2.266 . S
In143 O152 2.326 . S
In143 O154 2.294 . S
In143 O155 2.326 . S
O144 In143 2.294 . S
O144 C153 1.240 . S
O145 In143 2.326 . S
O145 C153 1.252 . S
C146 O149 1.252 . S
C146 O150 1.260 . S
C147 O154 1.240 . S
C147 O155 1.252 . S
C148 O151 1.252 . S
C148 O152 1.260 . S
O149 In143 2.266 1_556 S
O149 C146 1.252 . S
O150 In143 2.326 1_556 S
O150 C146 1.260 . S
O151 In143 2.266 . S
O151 C148 1.252 . S
O152 In143 2.326 . S
O152 C148 1.260 . S
C153 O144 1.240 . S
C153 O145 1.252 . S
O154 In143 2.294 . S
O154 C147 1.240 . S
O155 In143 2.326 . S
O155 C147 1.252 . S
In156 O157 2.294 . S
In156 O158 2.326 . S
In156 O162 2.266 . S
In156 O163 2.326 . S
In156 O164 2.266 . S
In156 O165 2.326 . S
In156 O167 2.294 . S
In156 O168 2.326 . S
O157 In156 2.294 . S
O157 C166 1.240 . S
O158 In156 2.326 . S
O158 C166 1.252 . S
C159 O162 1.281 . S
C159 O163 1.265 . S
C160 O167 1.240 . S
C160 O168 1.252 . S
C161 O164 1.252 . S
C161 O165 1.260 . S
O162 In156 2.266 . S
O162 C159 1.281 . S
O163 In156 2.326 . S
O163 C159 1.265 . S
O164 In156 2.266 . S
O164 C161 1.252 . S
O165 In156 2.326 . S
O165 C161 1.260 . S
C166 O157 1.240 . S
C166 O158 1.252 . S
O167 In156 2.294 . S
O167 C160 1.240 . S
O168 In156 2.326 . S
O168 C160 1.252 . S
In169 O170 2.294 . S
In169 O171 2.326 . S
In169 O175 2.266 . S
In169 O176 2.326 . S
In169 O177 2.308 . S
In169 O178 2.326 1_554 S
In169 O180 2.294 . S
In169 O181 2.326 . S
O170 In169 2.294 . S
O170 C179 1.240 . S
O171 In169 2.326 . S
O171 C179 1.252 . S
C172 O175 1.252 . S
C172 O176 1.260 . S
C173 O180 1.240 . S
C173 O181 1.252 . S
C174 O177 1.204 1_556 S
C174 O178 1.260 . S
O175 In169 2.266 . S
O175 C172 1.252 . S
O176 In169 2.326 . S
O176 C172 1.260 . S
O177 In169 2.308 . S
O177 C174 1.204 1_554 S
O178 In169 2.326 1_556 S
O178 C174 1.260 . S
C179 O170 1.240 . S
C179 O171 1.252 . S
O180 In169 2.294 . S
O180 C173 1.240 . S
O181 In169 2.326 . S
O181 C173 1.252 . S
In182 O183 2.294 . S
In182 O184 2.326 . S
In182 O188 2.266 . S
In182 O189 2.326 . S
In182 O190 2.266 . S
In182 O191 2.326 . S
In182 O193 2.294 . S
In182 O194 2.326 . S
O183 In182 2.294 . S
O183 C192 1.240 . S
O184 In182 2.326 . S
O184 C192 1.252 . S
C185 O188 1.252 . S
C185 O189 1.260 . S
C186 O193 1.240 . S
C186 O194 1.252 . S
C187 O190 1.252 . S
C187 O191 1.260 . S
O188 In182 2.266 . S
O188 C185 1.252 . S
O189 In182 2.326 . S
O189 C185 1.260 . S
O190 In182 2.266 . S
O190 C187 1.252 . S
O191 In182 2.326 . S
O191 C187 1.260 . S
C192 O183 1.240 . S
C192 O184 1.252 . S
O193 In182 2.294 . S
O193 C186 1.240 . S
O194 In182 2.326 . S
O194 C186 1.252 . S
In195 O196 2.294 . S
In195 O197 2.326 . S
In195 O201 2.266 . S
In195 O202 2.326 . S
In195 O203 2.266 . S
In195 O204 2.326 . S
In195 O206 2.294 . S
In195 O207 2.326 . S
O196 In195 2.294 . S
O196 C205 1.240 . S
O197 In195 2.326 . S
O197 C205 1.252 . S
C198 O201 1.252 . S
C198 O202 1.260 . S
C199 O206 1.240 . S
C199 O207 1.252 . S
C200 O203 1.252 . S
C200 O204 1.260 . S
O201 In195 2.266 . S
O201 C198 1.252 . S
O202 In195 2.326 . S
O202 C198 1.260 . S
O203 In195 2.266 . S
O203 C200 1.252 . S
O204 In195 2.326 . S
O204 C200 1.260 . S
C205 O196 1.240 . S
C205 O197 1.252 . S
O206 In195 2.294 . S
O206 C199 1.240 . S
O207 In195 2.326 . S
O207 C199 1.252 . S
In208 O209 2.294 . S
In208 O210 2.326 . S
In208 O214 2.266 . S
In208 O215 2.326 . S
In208 O216 2.266 1_545 S
In208 O217 2.326 1_545 S
In208 O219 2.294 . S
In208 O220 2.326 . S
O209 In208 2.294 . S
O209 C218 1.240 . S
O210 In208 2.326 . S
O210 C218 1.252 . S
C211 O214 1.252 . S
C211 O215 1.260 . S
C212 O219 1.240 . S
C212 O220 1.252 . S
C213 O216 1.252 . S
C213 O217 1.260 . S
O214 In208 2.266 . S
O214 C211 1.252 . S
O215 In208 2.326 . S
O215 C211 1.260 . S
O216 In208 2.266 1_565 S
O216 C213 1.252 . S
O217 In208 2.326 1_565 S
O217 C213 1.260 . S
C218 O209 1.240 . S
C218 O210 1.252 . S
O219 In208 2.294 . S
O219 C212 1.240 . S
O220 In208 2.326 . S
O220 C212 1.252 . S
In221 O222 2.294 . S
In221 O223 2.326 . S
In221 O227 2.266 . S
In221 O228 2.326 . S
In221 O229 2.266 . S
In221 O230 2.326 . S
In221 O232 2.294 . S
In221 O233 2.326 . S
O222 In221 2.294 . S
O222 C231 1.240 . S
O223 In221 2.326 . S
O223 C231 1.252 . S
C224 O227 1.252 . S
C224 O228 1.260 . S
C225 O232 1.240 . S
C225 O233 1.252 . S
C226 O229 1.252 . S
C226 O230 1.260 . S
O227 In221 2.266 . S
O227 C224 1.252 . S
O228 In221 2.326 . S
O228 C224 1.260 . S
O229 In221 2.266 . S
O229 C226 1.252 . S
O230 In221 2.326 . S
O230 C226 1.260 . S
C231 O222 1.240 . S
C231 O223 1.252 . S
O232 In221 2.294 . S
O232 C225 1.240 . S
O233 In221 2.326 . S
O233 C225 1.252 . S
In234 O235 2.294 . S
In234 O236 2.326 . S
In234 O240 2.266 . S
In234 O241 2.326 . S
In234 O242 2.266 . S
In234 O243 2.326 . S
In234 O245 2.294 . S
In234 O246 2.326 . S
O235 In234 2.294 . S
O235 C244 1.240 . S
O236 In234 2.326 . S
O236 C244 1.252 . S
C237 O240 1.252 . S
C237 O241 1.260 . S
C238 O245 1.240 . S
C238 O246 1.252 . S
C239 O242 1.252 . S
C239 O243 1.260 . S
O240 In234 2.266 . S
O240 C237 1.252 . S
O241 In234 2.326 . S
O241 C237 1.260 . S
O242 In234 2.266 . S
O242 C239 1.252 . S
O243 In234 2.326 . S
O243 C239 1.260 . S
C244 O235 1.240 . S
C244 O236 1.252 . S
O245 In234 2.294 . S
O245 C238 1.240 . S
O246 In234 2.326 . S
O246 C238 1.252 . S
In247 O248 2.294 1_545 S
In247 O249 2.326 1_545 S
In247 O253 2.266 . S
In247 O254 2.326 . S
In247 O255 2.266 . S
In247 O256 2.326 . S
In247 O258 2.294 1_545 S
In247 O259 2.326 . S
O248 In247 2.294 1_565 S
O248 C257 1.240 . S
O249 In247 2.326 1_565 S
O249 C257 1.252 . S
C250 O253 1.252 . S
C250 O254 1.260 . S
C251 O258 1.240 . S
C251 O259 1.252 1_565 S
C252 O255 1.252 . S
C252 O256 1.260 . S
O253 In247 2.266 . S
O253 C250 1.252 . S
O254 In247 2.326 . S
O254 C250 1.260 . S
O255 In247 2.266 . S
O255 C252 1.252 . S
O256 In247 2.326 . S
O256 C252 1.260 . S
C257 O248 1.240 . S
C257 O249 1.252 . S
O258 In247 2.294 1_565 S
O258 C251 1.240 . S
O259 In247 2.326 . S
O259 C251 1.252 1_545 S
In260 O261 2.299 . S
In260 O262 2.328 . S
In260 O266 2.263 1_554 S
In260 O267 2.325 1_554 S
In260 O268 2.239 1_554 S
In260 O269 2.285 1_554 S
In260 O271 2.319 . S
In260 O272 2.367 . S
O261 In260 2.299 . S
O261 C270 1.240 . S
O262 In260 2.328 . S
O262 C270 1.252 . S
C263 O266 1.252 . S
C263 O267 1.260 . S
C264 O271 1.240 . S
C264 O272 1.252 . S
C265 O268 1.252 . S
C265 O269 1.260 . S
O266 In260 2.263 1_556 S
O266 C263 1.252 . S
O267 In260 2.325 1_556 S
O267 C263 1.260 . S
O268 In260 2.239 1_556 S
O268 C265 1.252 . S
O269 In260 2.285 1_556 S
O269 C265 1.260 . S
C270 O261 1.240 . S
C270 O262 1.252 . S
O271 In260 2.319 . S
O271 C264 1.240 . S
O272 In260 2.367 . S
O272 C264 1.252 . S
In273 O274 2.294 . S
In273 O275 2.326 . S
In273 O279 2.266 . S
In273 O280 2.326 . S
In273 O281 2.266 . S
In273 O282 2.326 . S
In273 O284 2.294 . S
In273 O285 2.326 . S
O274 In273 2.294 . S
O274 C283 1.240 . S
O275 In273 2.326 . S
O275 C283 1.252 . S
C276 O279 1.252 . S
C276 O280 1.260 . S
C277 O284 1.240 . S
C277 O285 1.252 . S
C278 O281 1.252 . S
C278 O282 1.260 . S
O279 In273 2.266 . S
O279 C276 1.252 . S
O280 In273 2.326 . S
O280 C276 1.260 . S
O281 In273 2.266 . S
O281 C278 1.252 . S
O282 In273 2.326 . S
O282 C278 1.260 . S
C283 O274 1.240 . S
C283 O275 1.252 . S
O284 In273 2.294 . S
O284 C277 1.240 . S
O285 In273 2.326 . S
O285 C277 1.252 . S
In286 O287 2.294 . S
In286 O288 2.326 . S
In286 O292 2.266 . S
In286 O293 2.326 . S
In286 O294 2.266 . S
In286 O295 2.326 . S
In286 O297 2.294 . S
In286 O298 2.326 . S
O287 In286 2.294 . S
O287 C296 1.240 . S
O288 In286 2.326 . S
O288 C296 1.252 . S
C289 O292 1.252 . S
C289 O293 1.260 . S
C290 O297 1.240 . S
C290 O298 1.252 . S
C291 O294 1.252 . S
C291 O295 1.260 . S
O292 In286 2.266 . S
O292 C289 1.252 . S
O293 In286 2.326 . S
O293 C289 1.260 . S
O294 In286 2.266 . S
O294 C291 1.252 . S
O295 In286 2.326 . S
O295 C291 1.260 . S
C296 O287 1.240 . S
C296 O288 1.252 . S
O297 In286 2.294 . S
O297 C290 1.240 . S
O298 In286 2.326 . S
O298 C290 1.252 . S
In299 O300 2.294 . S
In299 O301 2.326 . S
In299 O305 2.266 . S
In299 O306 2.326 . S
In299 O307 2.266 . S
In299 O308 2.326 . S
In299 O310 2.294 . S
In299 O311 2.326 . S
O300 In299 2.294 . S
O300 C309 1.240 . S
O301 In299 2.326 . S
O301 C309 1.252 . S
C302 O305 1.252 . S
C302 O306 1.260 . S
C303 O310 1.240 . S
C303 O311 1.252 . S
C304 O307 1.252 . S
C304 O308 1.260 . S
O305 In299 2.266 . S
O305 C302 1.252 . S
O306 In299 2.326 . S
O306 C302 1.260 . S
O307 In299 2.266 . S
O307 C304 1.252 . S
O308 In299 2.326 . S
O308 C304 1.260 . S
C309 O300 1.240 . S
C309 O301 1.252 . S
O310 In299 2.294 . S
O310 C303 1.240 . S
O311 In299 2.326 . S
O311 C303 1.252 . S
Zn312 O318 1.969 . S
Zn312 O319 1.965 . S
Zn312 O323 2.024 1_545 S
Zn312 O328 1.969 . S
Zn313 O320 1.969 . S
Zn313 O326 1.969 1_455 S
Zn313 O327 1.965 . S
Zn313 O329 2.024 . S
C314 O315 1.229 . S
C314 O323 1.058 . S
O315 C314 1.229 . S
C316 O317 1.229 . S
C316 O329 1.058 . S
O317 C316 1.229 . S
O318 Zn312 1.969 . S
O318 C321 1.267 . S
O319 Zn312 1.965 . S
O319 C330 1.260 . S
O320 Zn313 1.969 . S
O320 C330 1.258 . S
C321 O318 1.267 . S
C321 O322 1.228 1_545 S
O322 C321 1.228 1_565 S
O323 Zn312 2.024 1_565 S
O323 C314 1.058 . S
C324 O325 1.228 . S
C324 O326 1.267 . S
O325 C324 1.228 . S
O326 Zn313 1.969 1_655 S
O326 C324 1.267 . S
O327 Zn313 1.965 . S
O327 C331 1.260 . S
O328 Zn312 1.969 . S
O328 C331 1.258 . S
O329 Zn313 2.024 . S
O329 C316 1.058 . S
C330 O319 1.260 . S
C330 O320 1.258 . S
C331 O327 1.260 . S
C331 O328 1.258 . S
Zn332 O338 1.969 . S
Zn332 O339 1.965 . S
Zn332 O343 2.024 . S
Zn332 O348 1.969 . S
Zn333 O340 1.969 . S
Zn333 O346 1.969 . S
Zn333 O347 1.965 . S
Zn333 O349 2.024 . S
C334 O335 1.229 . S
C334 O343 1.058 . S
O335 C334 1.229 . S
C336 O337 1.229 . S
C336 O349 1.058 . S
O337 C336 1.229 . S
O338 Zn332 1.969 . S
O338 C341 1.267 . S
O339 Zn332 1.965 . S
O339 C350 1.260 . S
O340 Zn333 1.969 . S
O340 C350 1.258 . S
C341 O338 1.267 . S
C341 O342 1.228 . S
O342 C341 1.228 . S
O343 Zn332 2.024 . S
O343 C334 1.058 . S
C344 O345 1.228 . S
C344 O346 1.267 . S
O345 C344 1.228 . S
O346 Zn333 1.969 . S
O346 C344 1.267 . S
O347 Zn333 1.965 . S
O347 C351 1.260 . S
O348 Zn332 1.969 . S
O348 C351 1.258 . S
O349 Zn333 2.024 . S
O349 C336 1.058 . S
C350 O339 1.260 . S
C350 O340 1.258 . S
C351 O347 1.260 . S
C351 O348 1.258 . S
Zn352 O358 1.969 . S
Zn352 O359 1.965 . S
Zn352 O363 2.024 . S
Zn352 O368 1.969 . S
Zn353 O360 1.969 . S
Zn353 O366 1.969 . S
Zn353 O367 1.968 1_565 S
Zn353 O369 2.024 . S
C354 O355 1.229 . S
C354 O363 1.058 . S
O355 C354 1.229 . S
C356 O357 1.229 . S
C356 O369 1.058 . S
O357 C356 1.229 . S
O358 Zn352 1.969 . S
O358 C361 1.267 . S
O359 Zn352 1.965 . S
O359 C370 1.260 . S
O360 Zn353 1.969 . S
O360 C370 1.258 1_565 S
C361 O358 1.267 . S
C361 O362 1.228 . S
O362 C361 1.228 . S
O363 Zn352 2.024 . S
O363 C354 1.058 . S
C364 O365 1.228 . S
C364 O366 1.267 . S
O365 C364 1.228 . S
O366 Zn353 1.969 . S
O366 C364 1.267 . S
O367 Zn353 1.968 1_545 S
O367 C371 1.259 . S
O368 Zn352 1.969 . S
O368 C371 1.258 . S
O369 Zn353 2.024 . S
O369 C356 1.058 . S
C370 O359 1.260 . S
C370 O360 1.258 1_545 S
C371 O367 1.259 . S
C371 O368 1.258 . S
Zn372 O378 1.969 . S
Zn372 O379 1.965 . S
Zn372 O383 2.024 . S
Zn372 O388 1.969 . S
Zn373 O380 1.969 . S
Zn373 O386 1.969 . S
Zn373 O387 1.965 . S
Zn373 O389 2.024 . S
C374 O375 1.229 . S
C374 O383 1.058 . S
O375 C374 1.229 . S
C376 O377 1.229 . S
C376 O389 1.058 . S
O377 C376 1.229 . S
O378 Zn372 1.969 . S
O378 C381 1.267 . S
O379 Zn372 1.965 . S
O379 C390 1.260 . S
O380 Zn373 1.969 . S
O380 C390 1.258 . S
C381 O378 1.267 . S
C381 O382 1.228 . S
O382 C381 1.228 . S
O383 Zn372 2.024 . S
O383 C374 1.058 . S
C384 O385 1.228 . S
C384 O386 1.267 . S
O385 C384 1.228 . S
O386 Zn373 1.969 . S
O386 C384 1.267 . S
O387 Zn373 1.965 . S
O387 C391 1.260 . S
O388 Zn372 1.969 . S
O388 C391 1.258 . S
O389 Zn373 2.024 . S
O389 C376 1.058 . S
C390 O379 1.260 . S
C390 O380 1.258 . S
C391 O387 1.260 . S
C391 O388 1.258 . S
Zn392 O398 1.969 . S
Zn392 O399 1.965 . S
Zn392 O403 2.024 1_565 S
Zn392 O408 1.969 1_565 S
Zn393 O400 1.969 1_455 S
Zn393 O406 1.969 . S
Zn393 O407 1.965 . S
Zn393 O409 2.024 . S
C394 O395 1.192 1_545 S
C394 O403 1.080 . S
O395 C394 1.192 1_565 S
C396 O397 1.229 1_455 S
C396 O409 1.058 . S
O397 C396 1.229 1_655 S
O398 Zn392 1.969 . S
O398 C401 1.267 . S
O399 Zn392 1.965 . S
O399 C410 1.260 1_455 S
O400 Zn393 1.969 1_655 S
O400 C410 1.258 1_545 S
C401 O398 1.267 . S
C401 O402 1.228 . S
O402 C401 1.228 . S
O403 Zn392 2.024 1_545 S
O403 C394 1.080 . S
C404 O405 1.228 . S
C404 O406 1.267 . S
O405 C404 1.228 . S
O406 Zn393 1.969 . S
O406 C404 1.267 . S
O407 Zn393 1.965 . S
O407 C411 1.260 . S
O408 Zn392 1.969 1_545 S
O408 C411 1.258 . S
O409 Zn393 2.024 . S
O409 C396 1.058 . S
C410 O399 1.260 1_655 S
C410 O400 1.258 1_565 S
C411 O407 1.260 . S
C411 O408 1.258 . S
Zn412 O418 1.969 . S
Zn412 O419 1.965 . S
Zn412 O423 2.024 . S
Zn412 O428 1.969 . S
Zn413 O420 1.969 . S
Zn413 O426 1.969 . S
Zn413 O427 1.965 . S
Zn413 O429 2.024 . S
C414 O415 1.229 . S
C414 O423 1.058 . S
O415 C414 1.229 . S
C416 O417 1.229 . S
C416 O429 1.058 . S
O417 C416 1.229 . S
O418 Zn412 1.969 . S
O418 C421 1.267 . S
O419 Zn412 1.965 . S
O419 C430 1.260 . S
O420 Zn413 1.969 . S
O420 C430 1.258 . S
C421 O418 1.267 . S
C421 O422 1.228 . S
O422 C421 1.228 . S
O423 Zn412 2.024 . S
O423 C414 1.058 . S
C424 O425 1.228 . S
C424 O426 1.267 . S
O425 C424 1.228 . S
O426 Zn413 1.969 . S
O426 C424 1.267 . S
O427 Zn413 1.965 . S
O427 C431 1.260 . S
O428 Zn412 1.969 . S
O428 C431 1.258 . S
O429 Zn413 2.024 . S
O429 C416 1.058 . S
C430 O419 1.260 . S
C430 O420 1.258 . S
C431 O427 1.260 . S
C431 O428 1.258 . S
Zn432 O438 1.969 . S
Zn432 O439 1.965 . S
Zn432 O443 2.024 1_556 S
Zn432 O448 1.969 1_556 S
Zn433 O440 1.969 1_545 S
Zn433 O446 1.969 . S
Zn433 O447 1.965 . S
Zn433 O449 2.024 . S
C434 O435 1.229 1_554 S
C434 O443 1.058 . S
O435 C434 1.229 1_556 S
C436 O437 1.229 1_545 S
C436 O449 1.058 . S
O437 C436 1.229 1_565 S
O438 Zn432 1.969 . S
O438 C441 1.267 . S
O439 Zn432 1.965 . S
O439 C450 1.260 1_545 S
O440 Zn433 1.969 1_565 S
O440 C450 1.258 1_554 S
C441 O438 1.267 . S
C441 O442 1.228 . S
O442 C441 1.228 . S
O443 Zn432 2.024 1_554 S
O443 C434 1.058 . S
C444 O445 1.228 . S
C444 O446 1.267 . S
O445 C444 1.228 . S
O446 Zn433 1.969 . S
O446 C444 1.267 . S
O447 Zn433 1.965 . S
O447 C451 1.260 . S
O448 Zn432 1.969 1_554 S
O448 C451 1.258 . S
O449 Zn433 2.024 . S
O449 C436 1.058 . S
C450 O439 1.260 1_565 S
C450 O440 1.258 1_556 S
C451 O447 1.260 . S
C451 O448 1.258 . S
Zn452 O458 1.969 . S
Zn452 O459 1.965 . S
Zn452 O463 2.024 . S
Zn452 O468 1.969 . S
Zn453 O460 1.969 . S
Zn453 O466 1.969 . S
Zn453 O467 1.965 . S
Zn453 O469 2.024 . S
C454 O455 1.229 . S
C454 O463 1.058 . S
O455 C454 1.229 . S
C456 O457 1.229 . S
C456 O469 1.058 . S
O457 C456 1.229 . S
O458 Zn452 1.969 . S
O458 C461 1.267 . S
O459 Zn452 1.965 . S
O459 C470 1.260 . S
O460 Zn453 1.969 . S
O460 C470 1.258 . S
C461 O458 1.267 . S
C461 O462 1.228 . S
O462 C461 1.228 . S
O463 Zn452 2.024 . S
O463 C454 1.058 . S
C464 O465 1.228 . S
C464 O466 1.267 . S
O465 C464 1.228 . S
O466 Zn453 1.969 . S
O466 C464 1.267 . S
O467 Zn453 1.965 . S
O467 C471 1.260 . S
O468 Zn452 1.969 . S
O468 C471 1.258 . S
O469 Zn453 2.024 . S
O469 C456 1.058 . S
C470 O459 1.260 . S
C470 O460 1.258 . S
C471 O467 1.260 . S
C471 O468 1.258 . S
Zn472 O478 1.969 . S
Zn472 O479 1.965 . S
Zn472 O483 2.024 . S
Zn472 O488 1.969 . S
Zn473 O480 1.954 1_556 S
Zn473 O486 1.969 . S
Zn473 O487 1.965 1_556 S
Zn473 O489 2.024 . S
C474 O475 1.229 . S
C474 O483 1.058 . S
O475 C474 1.229 . S
C476 O477 1.229 . S
C476 O489 1.058 . S
O477 C476 1.229 . S
O478 Zn472 1.969 . S
O478 C481 1.267 . S
O479 Zn472 1.965 . S
O479 C490 1.260 . S
O480 Zn473 1.954 1_554 S
O480 C490 1.277 . S
C481 O478 1.267 . S
C481 O482 1.228 . S
O482 C481 1.228 . S
O483 Zn472 2.024 . S
O483 C474 1.058 . S
C484 O485 1.228 . S
C484 O486 1.267 . S
O485 C484 1.228 . S
O486 Zn473 1.969 . S
O486 C484 1.267 . S
O487 Zn473 1.965 1_554 S
O487 C491 1.260 . S
O488 Zn472 1.969 . S
O488 C491 1.258 . S
O489 Zn473 2.024 . S
O489 C476 1.058 . S
C490 O479 1.260 . S
C490 O480 1.277 . S
C491 O487 1.260 . S
C491 O488 1.258 . S
Zn492 O498 1.969 . S
Zn492 O499 1.965 . S
Zn492 O503 2.024 . S
Zn492 O508 1.969 . S
Zn493 O500 1.969 . S
Zn493 O506 1.969 . S
Zn493 O507 1.965 . S
Zn493 O509 2.024 . S
C494 O495 1.229 . S
C494 O503 1.058 . S
O495 C494 1.229 . S
C496 O497 1.229 . S
C496 O509 1.058 . S
O497 C496 1.229 . S
O498 Zn492 1.969 . S
O498 C501 1.267 . S
O499 Zn492 1.965 . S
O499 C510 1.260 . S
O500 Zn493 1.969 . S
O500 C510 1.258 . S
C501 O498 1.267 . S
C501 O502 1.228 . S
O502 C501 1.228 . S
O503 Zn492 2.024 . S
O503 C494 1.058 . S
C504 O505 1.228 . S
C504 O506 1.267 . S
O505 C504 1.228 . S
O506 Zn493 1.969 . S
O506 C504 1.267 . S
O507 Zn493 1.965 . S
O507 C511 1.260 . S
O508 Zn492 1.969 . S
O508 C511 1.258 . S
O509 Zn493 2.024 . S
O509 C496 1.058 . S
C510 O499 1.260 . S
C510 O500 1.258 . S
C511 O507 1.260 . S
C511 O508 1.258 . S
Zn512 O518 1.969 . S
Zn512 O519 1.965 . S
Zn512 O523 2.024 . S
Zn512 O528 1.969 . S
Zn513 O520 1.969 . S
Zn513 O526 1.969 . S
Zn513 O527 1.965 1_655 S
Zn513 O529 2.024 . S
C514 O515 1.229 . S
C514 O523 1.058 . S
O515 C514 1.229 . S
C516 O517 1.229 . S
C516 O529 1.058 . S
O517 C516 1.229 . S
O518 Zn512 1.969 . S
O518 C521 1.267 . S
O519 Zn512 1.965 . S
O519 C530 1.260 . S
O520 Zn513 1.969 . S
O520 C530 1.258 1_655 S
C521 O518 1.267 . S
C521 O522 1.228 . S
O522 C521 1.228 . S
O523 Zn512 2.024 . S
O523 C514 1.058 . S
C524 O525 1.228 . S
C524 O526 1.267 . S
O525 C524 1.228 . S
O526 Zn513 1.969 . S
O526 C524 1.267 . S
O527 Zn513 1.965 1_455 S
O527 C531 1.260 . S
O528 Zn512 1.969 . S
O528 C531 1.258 . S
O529 Zn513 2.024 . S
O529 C516 1.058 . S
C530 O519 1.260 . S
C530 O520 1.258 1_455 S
C531 O527 1.260 . S
C531 O528 1.258 . S
Zn532 O538 1.969 . S
Zn532 O539 1.965 . S
Zn532 O543 2.024 . S
Zn532 O548 1.969 . S
Zn533 O540 1.969 . S
Zn533 O546 1.969 . S
Zn533 O547 1.965 . S
Zn533 O549 2.024 . S
C534 O535 1.229 . S
C534 O543 1.058 . S
O535 C534 1.229 . S
C536 O537 1.229 . S
C536 O549 1.058 . S
O537 C536 1.229 . S
O538 Zn532 1.969 . S
O538 C541 1.267 . S
O539 Zn532 1.965 . S
O539 C550 1.260 . S
O540 Zn533 1.969 . S
O540 C550 1.258 . S
C541 O538 1.267 . S
C541 O542 1.228 . S
O542 C541 1.228 . S
O543 Zn532 2.024 . S
O543 C534 1.058 . S
C544 O545 1.228 . S
C544 O546 1.267 . S
O545 C544 1.228 . S
O546 Zn533 1.969 . S
O546 C544 1.267 . S
O547 Zn533 1.965 . S
O547 C551 1.260 . S
O548 Zn532 1.969 . S
O548 C551 1.258 . S
O549 Zn533 2.024 . S
O549 C536 1.058 . S
C550 O539 1.260 . S
C550 O540 1.258 . S
C551 O547 1.260 . S
C551 O548 1.258 . S
Zn552 O558 1.969 . S
Zn552 O559 1.965 . S
Zn552 O563 2.024 . S
Zn552 O568 1.969 . S
Zn553 O560 1.969 . S
Zn553 O566 1.969 . S
Zn553 O567 1.965 . S
Zn553 O569 2.024 . S
C554 O555 1.229 . S
C554 O563 1.058 . S
O555 C554 1.229 . S
C556 O557 1.229 . S
C556 O569 1.058 . S
O557 C556 1.229 . S
O558 Zn552 1.969 . S
O558 C561 1.267 . S
O559 Zn552 1.965 . S
O559 C570 1.260 . S
O560 Zn553 1.969 . S
O560 C570 1.258 . S
C561 O558 1.267 . S
C561 O562 1.228 . S
O562 C561 1.228 . S
O563 Zn552 2.024 . S
O563 C554 1.058 . S
C564 O565 1.228 . S
C564 O566 1.267 . S
O565 C564 1.228 . S
O566 Zn553 1.969 . S
O566 C564 1.267 . S
O567 Zn553 1.965 . S
O567 C571 1.260 . S
O568 Zn552 1.969 . S
O568 C571 1.258 . S
O569 Zn553 2.024 . S
O569 C556 1.058 . S
C570 O559 1.260 . S
C570 O560 1.258 . S
C571 O567 1.260 . S
C571 O568 1.258 . S
Zn572 O578 1.969 . S
Zn572 O579 1.965 . S
Zn572 O583 2.024 . S
Zn572 O588 1.969 . S
Zn573 O580 1.969 . S
Zn573 O586 1.969 . S
Zn573 O587 1.965 . S
Zn573 O589 2.024 . S
C574 O575 1.229 . S
C574 O583 1.058 . S
O575 C574 1.229 . S
C576 O577 1.229 . S
C576 O589 1.058 . S
O577 C576 1.229 . S
O578 Zn572 1.969 . S
O578 C581 1.267 . S
O579 Zn572 1.965 . S
O579 C590 1.260 . S
O580 Zn573 1.969 . S
O580 C590 1.258 . S
C581 O578 1.267 . S
C581 O582 1.228 . S
O582 C581 1.228 . S
O583 Zn572 2.024 . S
O583 C574 1.058 . S
C584 O585 1.228 . S
C584 O586 1.267 . S
O585 C584 1.228 . S
O586 Zn573 1.969 . S
O586 C584 1.267 . S
O587 Zn573 1.965 . S
O587 C591 1.260 . S
O588 Zn572 1.969 . S
O588 C591 1.258 . S
O589 Zn573 2.024 . S
O589 C576 1.058 . S
C590 O579 1.260 . S
C590 O580 1.258 . S
C591 O587 1.260 . S
C591 O588 1.258 . S
Zn592 O598 1.969 . S
Zn592 O599 1.965 . S
Zn592 O603 2.024 . S
Zn592 O608 1.969 . S
Zn593 O600 1.969 . S
Zn593 O606 1.969 . S
Zn593 O607 1.965 . S
Zn593 O609 2.024 . S
C594 O595 1.229 . S
C594 O603 1.058 . S
O595 C594 1.229 . S
C596 O597 1.229 . S
C596 O609 1.058 . S
O597 C596 1.229 . S
O598 Zn592 1.969 . S
O598 C601 1.267 . S
O599 Zn592 1.965 . S
O599 C610 1.260 . S
O600 Zn593 1.969 . S
O600 C610 1.258 . S
C601 O598 1.267 . S
C601 O602 1.228 . S
O602 C601 1.228 . S
O603 Zn592 2.024 . S
O603 C594 1.058 . S
C604 O605 1.228 . S
C604 O606 1.267 . S
O605 C604 1.228 . S
O606 Zn593 1.969 . S
O606 C604 1.267 . S
O607 Zn593 1.965 . S
O607 C611 1.260 . S
O608 Zn592 1.969 . S
O608 C611 1.258 . S
O609 Zn593 2.024 . S
O609 C596 1.058 . S
C610 O599 1.260 . S
C610 O600 1.258 . S
C611 O607 1.260 . S
C611 O608 1.258 . S
Zn612 O618 1.969 . S
Zn612 O619 1.965 . S
Zn612 O623 2.024 1_655 S
Zn612 O628 1.969 1_655 S
Zn613 O620 1.969 1_554 S
Zn613 O626 1.969 . S
Zn613 O627 1.965 . S
Zn613 O629 2.024 . S
C614 O615 1.229 1_455 S
C614 O623 1.058 . S
O615 C614 1.229 1_655 S
C616 O617 1.229 1_554 S
C616 O629 1.058 . S
O617 C616 1.229 1_556 S
O618 Zn612 1.969 . S
O618 C621 1.267 . S
O619 Zn612 1.965 . S
O619 C630 1.237 1_554 S
O620 Zn613 1.969 1_556 S
O620 C630 1.256 1_455 S
C621 O618 1.267 . S
C621 O622 1.228 . S
O622 C621 1.228 . S
O623 Zn612 2.024 1_455 S
O623 C614 1.058 . S
C624 O625 1.228 . S
C624 O626 1.267 . S
O625 C624 1.228 . S
O626 Zn613 1.969 . S
O626 C624 1.267 . S
O627 Zn613 1.965 . S
O627 C631 1.260 . S
O628 Zn612 1.969 1_455 S
O628 C631 1.258 . S
O629 Zn613 2.024 . S
O629 C616 1.058 . S
C630 O619 1.237 1_556 S
C630 O620 1.256 1_655 S
C631 O627 1.260 . S
C631 O628 1.258 . S
H632 C640 0.929 . S
H633 C642 0.897 1_655 S
H634 C644 0.930 . S
H635 C647 0.929 . S
H636 C650 0.930 . S
H637 C652 0.960 . S
H638 C652 0.960 . S
H639 C652 0.960 . S
C640 H632 0.929 . S
C640 C641 1.377 1_655 S
C640 C642 1.376 1_655 S
C641 C640 1.377 1_455 S
C641 C647 1.390 . S
C642 H633 0.897 1_455 S
C642 C640 1.376 1_455 S
C642 C643 1.413 . S
C643 C642 1.413 . S
C643 C644 1.400 . S
C643 C648 1.490 . S
C644 H634 0.930 . S
C644 C643 1.400 . S
C644 C647 1.386 . S
H645 C661 0.930 . S
H646 C662 0.931 . S
C647 H635 0.929 . S
C647 C641 1.390 . S
C647 C644 1.386 . S
C648 C643 1.490 . S
C648 C650 1.395 . S
C648 C651 1.403 . S
H649 C655 0.930 . S
C650 H636 0.930 . S
C650 C648 1.395 . S
C650 C653 1.403 . S
C651 C648 1.403 . S
C651 C652 1.524 . S
C651 C655 1.400 . S
C652 H637 0.960 . S
C652 H638 0.960 . S
C652 H639 0.960 . S
C652 C651 1.524 . S
C653 C650 1.403 . S
C653 C654 1.392 . S
C653 C657 1.495 . S
C654 C653 1.392 . S
C654 C655 1.385 . S
C654 C656 1.478 . S
C655 H649 0.930 . S
C655 C651 1.400 . S
C655 C654 1.385 . S
C656 C654 1.478 . S
C656 C658 1.381 . S
C656 C662 1.383 . S
C657 C653 1.495 . S
C657 H663 0.959 . S
C657 H664 0.961 . S
C657 H665 0.960 . S
C658 C656 1.381 . S
C658 C659 1.394 1_556 S
C658 H666 0.930 . S
C659 C658 1.394 1_554 S
C659 C660 1.383 . S
C659 H667 0.929 . S
C660 C659 1.383 . S
C660 C661 1.377 . S
C661 H645 0.930 . S
C661 C660 1.377 . S
C661 C662 1.379 1_554 S
C662 H646 0.931 . S
C662 C656 1.383 . S
C662 C661 1.379 1_556 S
H663 C657 0.959 . S
H664 C657 0.961 . S
H665 C657 0.960 . S
H666 C658 0.930 . S
H667 C659 0.929 . S
H668 C676 0.929 . S
H669 C678 0.930 . S
H670 C680 0.930 . S
H671 C683 0.929 . S
H672 C686 0.930 . S
H673 C688 0.960 . S
H674 C688 0.960 . S
H675 C688 0.960 . S
C676 H668 0.929 . S
C676 C677 1.377 . S
C676 C678 1.384 . S
C677 C676 1.377 . S
C677 C683 1.390 . S
C678 H669 0.930 . S
C678 C676 1.384 . S
C678 C679 1.372 . S
C679 C678 1.372 . S
C679 C680 1.400 . S
C679 C684 1.490 . S
C680 H670 0.930 . S
C680 C679 1.400 . S
C680 C683 1.386 . S
H681 C697 0.930 . S
H682 C698 0.931 . S
C683 H671 0.929 . S
C683 C677 1.390 . S
C683 C680 1.386 . S
C684 C679 1.490 . S
C684 C686 1.395 . S
C684 C687 1.403 . S
H685 C691 0.930 . S
C686 H672 0.930 . S
C686 C684 1.395 . S
C686 C689 1.403 . S
C687 C684 1.403 . S
C687 C688 1.524 . S
C687 C691 1.400 . S
C688 H673 0.960 . S
C688 H674 0.960 . S
C688 H675 0.960 . S
C688 C687 1.524 . S
C689 C686 1.403 . S
C689 C690 1.392 . S
C689 C693 1.495 . S
C690 C689 1.392 . S
C690 C691 1.385 . S
C690 C692 1.478 . S
C691 H685 0.930 . S
C691 C687 1.400 . S
C691 C690 1.385 . S
C692 C690 1.478 . S
C692 C694 1.381 . S
C692 C698 1.383 . S
C693 C689 1.495 . S
C693 H699 0.959 . S
C693 H700 0.961 . S
C693 H701 0.960 . S
C694 C692 1.381 . S
C694 C695 1.394 . S
C694 H702 0.930 . S
C695 C694 1.394 . S
C695 C696 1.383 . S
C695 H703 0.929 . S
C696 C695 1.383 . S
C696 C697 1.377 . S
C697 H681 0.930 . S
C697 C696 1.377 . S
C697 C698 1.379 . S
C698 H682 0.931 . S
C698 C692 1.383 . S
C698 C697 1.379 . S
H699 C693 0.959 . S
H700 C693 0.961 . S
H701 C693 0.960 . S
H702 C694 0.930 . S
H703 C695 0.929 . S
H704 C712 0.929 . S
H705 C714 0.930 . S
H706 C716 0.930 . S
H707 C719 0.929 . S
H708 C722 0.930 . S
H709 C724 0.960 . S
H710 C724 0.960 . S
H711 C724 0.960 . S
C712 H704 0.929 . S
C712 C713 1.377 . S
C712 C714 1.384 . S
C713 C712 1.377 . S
C713 C719 1.390 . S
C714 H705 0.930 . S
C714 C712 1.384 . S
C714 C715 1.372 . S
C715 C714 1.372 . S
C715 C716 1.400 . S
C715 C720 1.490 . S
C716 H706 0.930 . S
C716 C715 1.400 . S
C716 C719 1.386 . S
H717 C733 0.930 . S
H718 C734 0.931 . S
C719 H707 0.929 . S
C719 C713 1.390 . S
C719 C716 1.386 . S
C720 C715 1.490 . S
C720 C722 1.395 . S
C720 C723 1.403 . S
H721 C727 0.930 . S
C722 H708 0.930 . S
C722 C720 1.395 . S
C722 C725 1.403 . S
C723 C720 1.403 . S
C723 C724 1.524 . S
C723 C727 1.400 . S
C724 H709 0.960 . S
C724 H710 0.960 . S
C724 H711 0.960 . S
C724 C723 1.524 . S
C725 C722 1.403 . S
C725 C726 1.392 . S
C725 C729 1.495 . S
C726 C725 1.392 . S
C726 C727 1.385 . S
C726 C728 1.478 . S
C727 H721 0.930 . S
C727 C723 1.400 . S
C727 C726 1.385 . S
C728 C726 1.478 . S
C728 C730 1.381 . S
C728 C734 1.383 . S
C729 C725 1.495 . S
C729 H735 0.959 . S
C729 H736 0.961 . S
C729 H737 0.960 . S
C730 C728 1.381 . S
C730 C731 1.394 . S
C730 H738 0.930 . S
C731 C730 1.394 . S
C731 C732 1.383 . S
C731 H739 0.929 . S
C732 C731 1.383 . S
C732 C733 1.377 . S
C733 H717 0.930 . S
C733 C732 1.377 . S
C733 C734 1.379 . S
C734 H718 0.931 . S
C734 C728 1.383 . S
C734 C733 1.379 . S
H735 C729 0.959 . S
H736 C729 0.961 . S
H737 C729 0.960 . S
H738 C730 0.930 . S
H739 C731 0.929 . S
H740 C748 0.929 . S
H741 C750 0.930 . S
H742 C752 0.930 . S
H743 C755 0.929 . S
H744 C758 0.930 . S
H745 C760 0.960 . S
H746 C760 0.960 . S
H747 C760 0.960 . S
C748 H740 0.929 . S
C748 C749 1.377 . S
C748 C750 1.384 . S
C749 C748 1.377 . S
C749 C755 1.390 . S
C750 H741 0.930 . S
C750 C748 1.384 . S
C750 C751 1.372 . S
C751 C750 1.372 . S
C751 C752 1.400 . S
C751 C756 1.490 . S
C752 H742 0.930 . S
C752 C751 1.400 . S
C752 C755 1.386 . S
H753 C769 0.930 . S
H754 C770 0.931 . S
C755 H743 0.929 . S
C755 C749 1.390 . S
C755 C752 1.386 . S
C756 C751 1.490 . S
C756 C758 1.395 . S
C756 C759 1.403 . S
H757 C763 0.930 . S
C758 H744 0.930 . S
C758 C756 1.395 . S
C758 C761 1.403 . S
C759 C756 1.403 . S
C759 C760 1.524 . S
C759 C763 1.400 . S
C760 H745 0.960 . S
C760 H746 0.960 . S
C760 H747 0.960 . S
C760 C759 1.524 . S
C761 C758 1.403 . S
C761 C762 1.392 . S
C761 C765 1.495 . S
C762 C761 1.392 . S
C762 C763 1.385 . S
C762 C764 1.478 . S
C763 H757 0.930 . S
C763 C759 1.400 . S
C763 C762 1.385 . S
C764 C762 1.478 . S
C764 C766 1.381 . S
C764 C770 1.383 . S
C765 C761 1.495 . S
C765 H771 0.959 . S
C765 H772 0.961 . S
C765 H773 0.960 . S
C766 C764 1.381 . S
C766 C767 1.394 . S
C766 H774 0.930 . S
C767 C766 1.394 . S
C767 C768 1.383 . S
C767 H775 0.929 . S
C768 C767 1.383 . S
C768 C769 1.377 . S
C769 H753 0.930 . S
C769 C768 1.377 . S
C769 C770 1.379 . S
C770 H754 0.931 . S
C770 C764 1.383 . S
C770 C769 1.379 . S
H771 C765 0.959 . S
H772 C765 0.961 . S
H773 C765 0.960 . S
H774 C766 0.930 . S
H775 C767 0.929 . S
H776 C784 0.929 1_655 S
H777 C786 0.930 1_655 S
H778 C788 0.930 . S
H779 C791 0.929 . S
H780 C794 0.930 . S
H781 C796 0.960 . S
H782 C796 0.960 . S
H783 C796 0.960 . S
C784 H776 0.929 1_455 S
C784 C785 1.377 . S
C784 C786 1.384 . S
C785 C784 1.377 . S
C785 C791 1.390 . S
C786 H777 0.930 1_455 S
C786 C784 1.384 . S
C786 C787 1.372 . S
C787 C786 1.372 . S
C787 C788 1.400 . S
C787 C792 1.490 . S
C788 H778 0.930 . S
C788 C787 1.400 . S
C788 C791 1.386 . S
H789 C805 0.930 . S
H790 C806 0.931 . S
C791 H779 0.929 . S
C791 C785 1.390 . S
C791 C788 1.386 . S
C792 C787 1.490 . S
C792 C794 1.395 . S
C792 C795 1.403 . S
H793 C799 0.930 . S
C794 H780 0.930 . S
C794 C792 1.395 . S
C794 C797 1.403 . S
C795 C792 1.403 . S
C795 C796 1.524 . S
C795 C799 1.400 . S
C796 H781 0.960 . S
C796 H782 0.960 . S
C796 H783 0.960 . S
C796 C795 1.524 . S
C797 C794 1.403 . S
C797 C798 1.392 . S
C797 C801 1.495 . S
C798 C797 1.392 . S
C798 C799 1.385 . S
C798 C800 1.478 . S
C799 H793 0.930 . S
C799 C795 1.400 . S
C799 C798 1.385 . S
C800 C798 1.478 . S
C800 C802 1.381 . S
C800 C806 1.383 . S
C801 C797 1.495 . S
C801 H807 0.959 . S
C801 H808 0.961 . S
C801 H809 0.960 . S
C802 C800 1.381 . S
C802 C803 1.394 . S
C802 H810 0.930 . S
C803 C802 1.394 . S
C803 C804 1.383 . S
C803 H811 0.929 . S
C804 C803 1.383 . S
C804 C805 1.377 . S
C805 H789 0.930 . S
C805 C804 1.377 . S
C805 C806 1.379 . S
C806 H790 0.931 . S
C806 C800 1.383 . S
C806 C805 1.379 . S
H807 C801 0.959 . S
H808 C801 0.961 . S
H809 C801 0.960 . S
H810 C802 0.930 . S
H811 C803 0.929 . S
H812 C820 0.929 . S
H813 C822 0.930 . S
H814 C824 0.930 . S
H815 C827 0.929 . S
H816 C830 0.930 . S
H817 C832 0.960 . S
H818 C832 0.960 . S
H819 C832 0.960 . S
C820 H812 0.929 . S
C820 C821 1.377 . S
C820 C822 1.384 . S
C821 C820 1.377 . S
C821 C827 1.390 . S
C822 H813 0.930 . S
C822 C820 1.384 . S
C822 C823 1.372 . S
C823 C822 1.372 . S
C823 C824 1.400 . S
C823 C828 1.490 . S
C824 H814 0.930 . S
C824 C823 1.400 . S
C824 C827 1.386 . S
H825 C841 0.930 . S
H826 C842 0.931 . S
C827 H815 0.929 . S
C827 C821 1.390 . S
C827 C824 1.386 . S
C828 C823 1.490 . S
C828 C830 1.395 . S
C828 C831 1.403 . S
H829 C835 0.930 . S
C830 H816 0.930 . S
C830 C828 1.395 . S
C830 C833 1.403 . S
C831 C828 1.403 . S
C831 C832 1.524 . S
C831 C835 1.400 . S
C832 H817 0.960 . S
C832 H818 0.960 . S
C832 H819 0.960 . S
C832 C831 1.524 . S
C833 C830 1.403 . S
C833 C834 1.392 . S
C833 C837 1.495 . S
C834 C833 1.392 . S
C834 C835 1.385 . S
C834 C836 1.478 . S
C835 H829 0.930 . S
C835 C831 1.400 . S
C835 C834 1.385 . S
C836 C834 1.478 . S
C836 C838 1.381 . S
C836 C842 1.383 . S
C837 C833 1.495 . S
C837 H843 0.959 . S
C837 H844 0.961 . S
C837 H845 0.960 . S
C838 C836 1.381 . S
C838 C839 1.394 . S
C838 H846 0.930 . S
C839 C838 1.394 . S
C839 C840 1.383 . S
C839 H847 0.929 . S
C840 C839 1.383 . S
C840 C841 1.377 . S
C841 H825 0.930 . S
C841 C840 1.377 . S
C841 C842 1.379 . S
C842 H826 0.931 . S
C842 C836 1.383 . S
C842 C841 1.379 . S
H843 C837 0.959 . S
H844 C837 0.961 . S
H845 C837 0.960 . S
H846 C838 0.930 . S
H847 C839 0.929 . S
H848 C856 0.929 . S
H849 C858 0.930 . S
H850 C860 0.930 . S
H851 C863 0.929 . S
H852 C866 0.930 . S
H853 C868 0.960 . S
H854 C868 0.960 . S
H855 C868 0.960 . S
C856 H848 0.929 . S
C856 C857 1.377 . S
C856 C858 1.384 . S
C857 C856 1.377 . S
C857 C863 1.390 . S
C858 H849 0.930 . S
C858 C856 1.384 . S
C858 C859 1.372 . S
C859 C858 1.372 . S
C859 C860 1.400 . S
C859 C864 1.490 . S
C860 H850 0.930 . S
C860 C859 1.400 . S
C860 C863 1.386 . S
H861 C877 0.930 . S
H862 C878 0.931 . S
C863 H851 0.929 . S
C863 C857 1.390 . S
C863 C860 1.386 . S
C864 C859 1.490 . S
C864 C866 1.395 . S
C864 C867 1.403 . S
H865 C871 0.930 . S
C866 H852 0.930 . S
C866 C864 1.395 . S
C866 C869 1.403 . S
C867 C864 1.403 . S
C867 C868 1.524 . S
C867 C871 1.400 . S
C868 H853 0.960 . S
C868 H854 0.960 . S
C868 H855 0.960 . S
C868 C867 1.524 . S
C869 C866 1.403 . S
C869 C870 1.392 . S
C869 C873 1.495 . S
C870 C869 1.392 . S
C870 C871 1.385 . S
C870 C872 1.478 . S
C871 H865 0.930 . S
C871 C867 1.400 . S
C871 C870 1.385 . S
C872 C870 1.478 . S
C872 C874 1.381 . S
C872 C878 1.383 . S
C873 C869 1.495 . S
C873 H879 0.959 . S
C873 H880 0.961 . S
C873 H881 0.960 . S
C874 C872 1.381 . S
C874 C875 1.394 . S
C874 H882 0.930 . S
C875 C874 1.394 . S
C875 C876 1.383 . S
C875 H883 0.929 . S
C876 C875 1.383 . S
C876 C877 1.377 . S
C877 H861 0.930 . S
C877 C876 1.377 . S
C877 C878 1.379 . S
C878 H862 0.931 . S
C878 C872 1.383 . S
C878 C877 1.379 . S
H879 C873 0.959 . S
H880 C873 0.961 . S
H881 C873 0.960 . S
H882 C874 0.930 . S
H883 C875 0.929 . S
H884 C892 0.929 . S
H885 C894 0.930 . S
H886 C896 0.930 . S
H887 C899 0.929 . S
H888 C902 0.930 . S
H889 C904 0.960 . S
H890 C904 0.960 . S
H891 C904 0.960 . S
C892 H884 0.929 . S
C892 C893 1.377 . S
C892 C894 1.384 . S
C893 C892 1.377 . S
C893 C899 1.390 . S
C894 H885 0.930 . S
C894 C892 1.384 . S
C894 C895 1.372 . S
C895 C894 1.372 . S
C895 C896 1.400 . S
C895 C900 1.490 . S
C896 H886 0.930 . S
C896 C895 1.400 . S
C896 C899 1.386 . S
H897 C913 0.930 . S
H898 C914 0.931 . S
C899 H887 0.929 . S
C899 C893 1.390 . S
C899 C896 1.386 . S
C900 C895 1.490 . S
C900 C902 1.395 . S
C900 C903 1.403 . S
H901 C907 0.930 . S
C902 H888 0.930 . S
C902 C900 1.395 . S
C902 C905 1.403 . S
C903 C900 1.403 . S
C903 C904 1.524 . S
C903 C907 1.400 . S
C904 H889 0.960 . S
C904 H890 0.960 . S
C904 H891 0.960 . S
C904 C903 1.524 . S
C905 C902 1.403 . S
C905 C906 1.392 . S
C905 C909 1.495 . S
C906 C905 1.392 . S
C906 C907 1.385 . S
C906 C908 1.478 . S
C907 H901 0.930 . S
C907 C903 1.400 . S
C907 C906 1.385 . S
C908 C906 1.478 . S
C908 C910 1.381 . S
C908 C914 1.383 . S
C909 C905 1.495 . S
C909 H915 0.959 . S
C909 H916 0.961 . S
C909 H917 0.960 . S
C910 C908 1.381 . S
C910 C911 1.394 . S
C910 H918 0.930 . S
C911 C910 1.394 . S
C911 C912 1.383 . S
C911 H919 0.929 . S
C912 C911 1.383 . S
C912 C913 1.377 . S
C913 H897 0.930 . S
C913 C912 1.377 . S
C913 C914 1.379 . S
C914 H898 0.931 . S
C914 C908 1.383 . S
C914 C913 1.379 . S
H915 C909 0.959 . S
H916 C909 0.961 . S
H917 C909 0.960 . S
H918 C910 0.930 . S
H919 C911 0.929 . S
H920 C928 0.929 1_565 S
H921 C930 0.916 1_565 S
H922 C932 0.930 . S
H923 C935 0.929 . S
H924 C938 0.930 . S
H925 C940 0.960 1_455 S
H926 C940 0.960 . S
H927 C940 0.960 . S
C928 H920 0.929 1_545 S
C928 C929 1.377 . S
C928 C930 1.384 . S
C929 C928 1.377 . S
C929 C935 1.390 . S
C930 H921 0.916 1_545 S
C930 C928 1.384 . S
C930 C931 1.372 . S
C931 C930 1.372 . S
C931 C932 1.400 . S
C931 C936 1.490 . S
C932 H922 0.930 . S
C932 C931 1.400 . S
C932 C935 1.386 . S
H933 C949 0.930 . S
H934 C950 0.931 . S
C935 H923 0.929 . S
C935 C929 1.390 . S
C935 C932 1.386 . S
C936 C931 1.490 . S
C936 C938 1.395 . S
C936 C939 1.403 . S
H937 C943 0.930 1_455 S
C938 H924 0.930 . S
C938 C936 1.395 . S
C938 C941 1.403 . S
C939 C936 1.403 . S
C939 C940 1.524 . S
C939 C943 1.400 . S
C940 H925 0.960 1_655 S
C940 H926 0.960 . S
C940 H927 0.960 . S
C940 C939 1.524 . S
C941 C938 1.403 . S
C941 C942 1.392 . S
C941 C945 1.495 . S
C942 C941 1.392 . S
C942 C943 1.385 . S
C942 C944 1.478 . S
C943 H937 0.930 1_655 S
C943 C939 1.400 . S
C943 C942 1.385 . S
C944 C942 1.478 . S
C944 C946 1.381 . S
C944 C950 1.383 1_655 S
C945 C941 1.495 . S
C945 H951 0.959 . S
C945 H952 0.961 . S
C945 H953 0.960 . S
C946 C944 1.381 . S
C946 C947 1.394 1_655 S
C946 H954 0.930 . S
C947 C946 1.394 1_455 S
C947 C948 1.383 . S
C947 H955 0.929 . S
C948 C947 1.383 . S
C948 C949 1.377 . S
C949 H933 0.930 . S
C949 C948 1.377 . S
C949 C950 1.379 . S
C950 H934 0.931 . S
C950 C944 1.383 1_455 S
C950 C949 1.379 . S
H951 C945 0.959 . S
H952 C945 0.961 . S
H953 C945 0.960 . S
H954 C946 0.930 . S
H955 C947 0.929 . S
H956 C964 0.929 . S
H957 C966 0.930 . S
H958 C968 0.930 . S
H959 C971 0.929 . S
H960 C974 0.930 . S
H961 C976 0.960 . S
H962 C976 0.960 . S
H963 C976 0.960 . S
C964 H956 0.929 . S
C964 C965 1.377 . S
C964 C966 1.384 . S
C965 C964 1.377 . S
C965 C971 1.390 . S
C966 H957 0.930 . S
C966 C964 1.384 . S
C966 C967 1.372 . S
C967 C966 1.372 . S
C967 C968 1.400 . S
C967 C972 1.490 . S
C968 H958 0.930 . S
C968 C967 1.400 . S
C968 C971 1.386 . S
H969 C985 0.930 . S
H970 C986 0.931 . S
C971 H959 0.929 . S
C971 C965 1.390 . S
C971 C968 1.386 . S
C972 C967 1.490 . S
C972 C974 1.395 . S
C972 C975 1.403 . S
H973 C979 0.930 . S
C974 H960 0.930 . S
C974 C972 1.395 . S
C974 C977 1.403 . S
C975 C972 1.403 . S
C975 C976 1.524 . S
C975 C979 1.400 . S
C976 H961 0.960 . S
C976 H962 0.960 . S
C976 H963 0.960 . S
C976 C975 1.524 . S
C977 C974 1.403 . S
C977 C978 1.392 . S
C977 C981 1.495 . S
C978 C977 1.392 . S
C978 C979 1.385 . S
C978 C980 1.478 . S
C979 H973 0.930 . S
C979 C975 1.400 . S
C979 C978 1.385 . S
C980 C978 1.478 . S
C980 C982 1.381 . S
C980 C986 1.383 . S
C981 C977 1.495 . S
C981 H987 0.959 . S
C981 H988 0.961 . S
C981 H989 0.960 . S
C982 C980 1.381 . S
C982 C983 1.394 . S
C982 H990 0.930 . S
C983 C982 1.394 . S
C983 C984 1.383 . S
C983 H991 0.929 . S
C984 C983 1.383 . S
C984 C985 1.377 . S
C985 H969 0.930 . S
C985 C984 1.377 . S
C985 C986 1.379 . S
C986 H970 0.931 . S
C986 C980 1.383 . S
C986 C985 1.379 . S
H987 C981 0.959 . S
H988 C981 0.961 . S
H989 C981 0.960 . S
H990 C982 0.930 . S
H991 C983 0.929 . S
H992 C1000 0.929 . S
H993 C1002 0.930 . S
H994 C1004 0.930 . S
H995 C1007 0.929 . S
H996 C1010 0.930 . S
H997 C1012 0.960 . S
H998 C1012 0.960 . S
H999 C1012 0.960 . S
C1000 H992 0.929 . S
C1000 C1001 1.377 . S
C1000 C1002 1.384 . S
C1001 C1000 1.377 . S
C1001 C1007 1.390 1_565 S
C1002 H993 0.930 . S
C1002 C1000 1.384 . S
C1002 C1003 1.372 . S
C1003 C1002 1.372 . S
C1003 C1004 1.400 1_565 S
C1003 C1008 1.490 . S
C1004 H994 0.930 . S
C1004 C1003 1.400 1_545 S
C1004 C1007 1.386 . S
H1005 C1021 0.930 . S
H1006 C1022 0.931 . S
C1007 H995 0.929 . S
C1007 C1001 1.390 1_545 S
C1007 C1004 1.386 . S
C1008 C1003 1.490 . S
C1008 C1010 1.395 . S
C1008 C1011 1.403 1_565 S
H1009 C1015 0.930 . S
C1010 H996 0.930 . S
C1010 C1008 1.395 . S
C1010 C1013 1.403 . S
C1011 C1008 1.403 1_545 S
C1011 C1012 1.524 . S
C1011 C1015 1.400 . S
C1012 H997 0.960 . S
C1012 H998 0.960 . S
C1012 H999 0.960 . S
C1012 C1011 1.524 . S
C1013 C1010 1.403 . S
C1013 C1014 1.392 . S
C1013 C1017 1.495 . S
C1014 C1013 1.392 . S
C1014 C1015 1.385 1_565 S
C1014 C1016 1.478 . S
C1015 H1009 0.930 . S
C1015 C1011 1.400 . S
C1015 C1014 1.385 1_545 S
C1016 C1014 1.478 . S
C1016 C1018 1.381 . S
C1016 C1022 1.383 1_565 S
C1017 C1013 1.495 . S
C1017 H1023 0.959 . S
C1017 H1024 0.961 . S
C1017 H1025 0.960 . S
C1018 C1016 1.381 . S
C1018 C1019 1.394 . S
C1018 H1026 0.930 . S
C1019 C1018 1.394 . S
C1019 C1020 1.383 . S
C1019 H1027 0.929 . S
C1020 C1019 1.383 . S
C1020 C1021 1.377 1_565 S
C1021 H1005 0.930 . S
C1021 C1020 1.377 1_545 S
C1021 C1022 1.379 . S
C1022 H1006 0.931 . S
C1022 C1016 1.383 1_545 S
C1022 C1021 1.379 . S
H1023 C1017 0.959 . S
H1024 C1017 0.961 . S
H1025 C1017 0.960 . S
H1026 C1018 0.930 . S
H1027 C1019 0.929 . S
H1028 C1036 0.929 . S
H1029 C1038 0.930 . S
H1030 C1040 0.930 . S
H1031 C1043 0.929 . S
H1032 C1046 0.930 . S
H1033 C1048 0.960 . S
H1034 C1048 0.960 . S
H1035 C1048 0.960 . S
C1036 H1028 0.929 . S
C1036 C1037 1.377 . S
C1036 C1038 1.384 . S
C1037 C1036 1.377 . S
C1037 C1043 1.390 . S
C1038 H1029 0.930 . S
C1038 C1036 1.384 . S
C1038 C1039 1.372 . S
C1039 C1038 1.372 . S
C1039 C1040 1.400 . S
C1039 C1044 1.490 . S
C1040 H1030 0.930 . S
C1040 C1039 1.400 . S
C1040 C1043 1.386 . S
H1041 C1057 0.930 . S
H1042 C1058 0.931 . S
C1043 H1031 0.929 . S
C1043 C1037 1.390 . S
C1043 C1040 1.386 . S
C1044 C1039 1.490 . S
C1044 C1046 1.395 . S
C1044 C1047 1.403 . S
H1045 C1051 0.930 . S
C1046 H1032 0.930 . S
C1046 C1044 1.395 . S
C1046 C1049 1.403 . S
C1047 C1044 1.403 . S
C1047 C1048 1.524 . S
C1047 C1051 1.400 . S
C1048 H1033 0.960 . S
C1048 H1034 0.960 . S
C1048 H1035 0.960 . S
C1048 C1047 1.524 . S
C1049 C1046 1.403 . S
C1049 C1050 1.392 . S
C1049 C1053 1.495 . S
C1050 C1049 1.392 . S
C1050 C1051 1.385 . S
C1050 C1052 1.478 . S
C1051 H1045 0.930 . S
C1051 C1047 1.400 . S
C1051 C1050 1.385 . S
C1052 C1050 1.478 . S
C1052 C1054 1.381 . S
C1052 C1058 1.383 . S
C1053 C1049 1.495 . S
C1053 H1059 0.959 . S
C1053 H1060 0.961 . S
C1053 H1061 0.960 . S
C1054 C1052 1.381 . S
C1054 C1055 1.394 . S
C1054 H1062 0.930 . S
C1055 C1054 1.394 . S
C1055 C1056 1.383 . S
C1055 H1063 0.929 . S
C1056 C1055 1.383 . S
C1056 C1057 1.377 . S
C1057 H1041 0.930 . S
C1057 C1056 1.377 . S
C1057 C1058 1.379 . S
C1058 H1042 0.931 . S
C1058 C1052 1.383 . S
C1058 C1057 1.379 . S
H1059 C1053 0.959 . S
H1060 C1053 0.961 . S
H1061 C1053 0.960 . S
H1062 C1054 0.930 . S
H1063 C1055 0.929 . S
H1064 C1072 0.928 1_565 S
H1065 C1074 0.930 1_565 S
H1066 C1076 0.930 . S
H1067 C1079 0.929 . S
H1068 C1082 0.930 . S
H1069 C1084 0.960 . S
H1070 C1084 0.960 . S
H1071 C1084 0.960 . S
C1072 H1064 0.928 1_545 S
C1072 C1073 1.377 . S
C1072 C1074 1.384 . S
C1073 C1072 1.377 . S
C1073 C1079 1.390 . S
C1074 H1065 0.930 1_545 S
C1074 C1072 1.384 . S
C1074 C1075 1.372 . S
C1075 C1074 1.372 . S
C1075 C1076 1.400 . S
C1075 C1080 1.490 . S
C1076 H1066 0.930 . S
C1076 C1075 1.400 . S
C1076 C1079 1.386 . S
H1077 C1093 0.930 . S
H1078 C1094 0.931 . S
C1079 H1067 0.929 . S
C1079 C1073 1.390 . S
C1079 C1076 1.386 . S
C1080 C1075 1.490 . S
C1080 C1082 1.395 1_545 S
C1080 C1083 1.403 . S
H1081 C1087 0.930 . S
C1082 H1068 0.930 . S
C1082 C1080 1.395 1_565 S
C1082 C1085 1.403 . S
C1083 C1080 1.403 . S
C1083 C1084 1.524 . S
C1083 C1087 1.400 . S
C1084 H1069 0.960 . S
C1084 H1070 0.960 . S
C1084 H1071 0.960 . S
C1084 C1083 1.524 . S
C1085 C1082 1.403 . S
C1085 C1086 1.392 1_565 S
C1085 C1089 1.495 . S
C1086 C1085 1.392 1_545 S
C1086 C1087 1.385 . S
C1086 C1088 1.478 . S
C1087 H1081 0.930 . S
C1087 C1083 1.400 . S
C1087 C1086 1.385 . S
C1088 C1086 1.478 . S
C1088 C1090 1.381 1_545 S
C1088 C1094 1.383 1_655 S
C1089 C1085 1.495 . S
C1089 H1095 0.959 . S
C1089 H1096 0.961 . S
C1089 H1097 0.960 . S
C1090 C1088 1.381 1_565 S
C1090 C1091 1.394 . S
C1090 H1098 0.930 . S
C1091 C1090 1.394 . S
C1091 C1092 1.383 1_665 S
C1091 H1099 0.929 . S
C1092 C1091 1.383 1_445 S
C1092 C1093 1.377 . S
C1093 H1077 0.930 . S
C1093 C1092 1.377 . S
C1093 C1094 1.379 . S
C1094 H1078 0.931 . S
C1094 C1088 1.383 1_455 S
C1094 C1093 1.379 . S
H1095 C1089 0.959 . S
H1096 C1089 0.961 . S
H1097 C1089 0.960 . S
H1098 C1090 0.930 . S
H1099 C1091 0.929 . S
H1100 C1108 0.929 . S
H1101 C1110 0.930 . S
H1102 C1112 0.930 . S
H1103 C1115 0.929 . S
H1104 C1118 0.930 . S
H1105 C1120 0.960 . S
H1106 C1120 0.960 . S
H1107 C1120 0.960 . S
C1108 H1100 0.929 . S
C1108 C1109 1.377 . S
C1108 C1110 1.384 . S
C1109 C1108 1.377 . S
C1109 C1115 1.390 . S
C1110 H1101 0.930 . S
C1110 C1108 1.384 . S
C1110 C1111 1.372 . S
C1111 C1110 1.372 . S
C1111 C1112 1.400 . S
C1111 C1116 1.490 . S
C1112 H1102 0.930 . S
C1112 C1111 1.400 . S
C1112 C1115 1.386 . S
H1113 C1129 0.930 . S
H1114 C1130 0.931 . S
C1115 H1103 0.929 . S
C1115 C1109 1.390 . S
C1115 C1112 1.386 . S
C1116 C1111 1.490 . S
C1116 C1118 1.395 . S
C1116 C1119 1.403 . S
H1117 C1123 0.930 . S
C1118 H1104 0.930 . S
C1118 C1116 1.395 . S
C1118 C1121 1.403 . S
C1119 C1116 1.403 . S
C1119 C1120 1.524 . S
C1119 C1123 1.400 . S
C1120 H1105 0.960 . S
C1120 H1106 0.960 . S
C1120 H1107 0.960 . S
C1120 C1119 1.524 . S
C1121 C1118 1.403 . S
C1121 C1122 1.392 . S
C1121 C1125 1.495 . S
C1122 C1121 1.392 . S
C1122 C1123 1.385 . S
C1122 C1124 1.478 . S
C1123 H1117 0.930 . S
C1123 C1119 1.400 . S
C1123 C1122 1.385 . S
C1124 C1122 1.478 . S
C1124 C1126 1.381 . S
C1124 C1130 1.383 . S
C1125 C1121 1.495 . S
C1125 H1131 0.959 . S
C1125 H1132 0.961 . S
C1125 H1133 0.960 . S
C1126 C1124 1.381 . S
C1126 C1127 1.394 . S
C1126 H1134 0.930 . S
C1127 C1126 1.394 . S
C1127 C1128 1.383 . S
C1127 H1135 0.929 . S
C1128 C1127 1.383 . S
C1128 C1129 1.377 . S
C1129 H1113 0.930 . S
C1129 C1128 1.377 . S
C1129 C1130 1.379 . S
C1130 H1114 0.931 . S
C1130 C1124 1.383 . S
C1130 C1129 1.379 . S
H1131 C1125 0.959 . S
H1132 C1125 0.961 . S
H1133 C1125 0.960 . S
H1134 C1126 0.930 . S
H1135 C1127 0.929 . S
H1136 C1144 0.929 . S
H1137 C1146 0.930 . S
H1138 C1148 0.930 . S
H1139 C1151 0.929 1_565 S
H1140 C1154 0.930 . S
H1141 C1156 0.960 . S
H1142 C1156 0.960 . S
H1143 C1156 0.960 . S
C1144 H1136 0.929 . S
C1144 C1145 1.377 . S
C1144 C1146 1.384 . S
C1145 C1144 1.377 . S
C1145 C1151 1.390 . S
C1146 H1137 0.930 . S
C1146 C1144 1.384 . S
C1146 C1147 1.372 . S
C1147 C1146 1.372 . S
C1147 C1148 1.400 . S
C1147 C1152 1.490 . S
C1148 H1138 0.930 . S
C1148 C1147 1.400 . S
C1148 C1151 1.386 . S
H1149 C1165 0.930 . S
H1150 C1166 0.931 . S
C1151 H1139 0.929 1_545 S
C1151 C1145 1.390 . S
C1151 C1148 1.386 . S
C1152 C1147 1.490 . S
C1152 C1154 1.395 . S
C1152 C1155 1.403 . S
H1153 C1159 0.930 . S
C1154 H1140 0.930 . S
C1154 C1152 1.395 . S
C1154 C1157 1.403 . S
C1155 C1152 1.403 . S
C1155 C1156 1.524 . S
C1155 C1159 1.400 . S
C1156 H1141 0.960 . S
C1156 H1142 0.960 . S
C1156 H1143 0.960 . S
C1156 C1155 1.524 . S
C1157 C1154 1.403 . S
C1157 C1158 1.392 . S
C1157 C1161 1.495 . S
C1158 C1157 1.392 . S
C1158 C1159 1.385 . S
C1158 C1160 1.478 . S
C1159 H1153 0.930 . S
C1159 C1155 1.400 . S
C1159 C1158 1.385 . S
C1160 C1158 1.478 . S
C1160 C1162 1.381 . S
C1160 C1166 1.383 . S
C1161 C1157 1.495 . S
C1161 H1167 0.959 . S
C1161 H1168 0.961 1_545 S
C1161 H1169 0.960 . S
C1162 C1160 1.381 . S
C1162 C1163 1.394 . S
C1162 H1170 0.930 . S
C1163 C1162 1.394 . S
C1163 C1164 1.383 . S
C1163 H1171 0.929 . S
C1164 C1163 1.383 . S
C1164 C1165 1.377 . S
C1165 H1149 0.930 . S
C1165 C1164 1.377 . S
C1165 C1166 1.379 . S
C1166 H1150 0.931 . S
C1166 C1160 1.383 . S
C1166 C1165 1.379 . S
H1167 C1161 0.959 . S
H1168 C1161 0.961 1_565 S
H1169 C1161 0.960 . S
H1170 C1162 0.930 . S
H1171 C1163 0.929 . S
H1172 C1180 0.929 . S
H1173 C1182 0.930 . S
H1174 C1184 0.930 . S
H1175 C1187 0.929 . S
H1176 C1190 0.930 . S
H1177 C1192 0.960 . S
H1178 C1192 0.960 . S
H1179 C1192 0.960 . S
C1180 H1172 0.929 . S
C1180 C1181 1.377 . S
C1180 C1182 1.384 . S
C1181 C1180 1.377 . S
C1181 C1187 1.390 . S
C1182 H1173 0.930 . S
C1182 C1180 1.384 . S
C1182 C1183 1.372 . S
C1183 C1182 1.372 . S
C1183 C1184 1.400 . S
C1183 C1188 1.490 . S
C1184 H1174 0.930 . S
C1184 C1183 1.400 . S
C1184 C1187 1.386 . S
H1185 C1201 0.930 . S
H1186 C1202 0.931 . S
C1187 H1175 0.929 . S
C1187 C1181 1.390 . S
C1187 C1184 1.386 . S
C1188 C1183 1.490 . S
C1188 C1190 1.395 . S
C1188 C1191 1.403 . S
H1189 C1195 0.930 . S
C1190 H1176 0.930 . S
C1190 C1188 1.395 . S
C1190 C1193 1.403 . S
C1191 C1188 1.403 . S
C1191 C1192 1.524 . S
C1191 C1195 1.400 . S
C1192 H1177 0.960 . S
C1192 H1178 0.960 . S
C1192 H1179 0.960 . S
C1192 C1191 1.524 . S
C1193 C1190 1.403 . S
C1193 C1194 1.392 . S
C1193 C1197 1.495 . S
C1194 C1193 1.392 . S
C1194 C1195 1.385 . S
C1194 C1196 1.478 . S
C1195 H1189 0.930 . S
C1195 C1191 1.400 . S
C1195 C1194 1.385 . S
C1196 C1194 1.478 . S
C1196 C1198 1.381 . S
C1196 C1202 1.383 . S
C1197 C1193 1.495 . S
C1197 H1203 0.959 . S
C1197 H1204 0.961 . S
C1197 H1205 0.960 . S
C1198 C1196 1.381 . S
C1198 C1199 1.394 . S
C1198 H1206 0.930 . S
C1199 C1198 1.394 . S
C1199 C1200 1.383 . S
C1199 H1207 0.929 . S
C1200 C1199 1.383 . S
C1200 C1201 1.377 . S
C1201 H1185 0.930 . S
C1201 C1200 1.377 . S
C1201 C1202 1.379 . S
C1202 H1186 0.931 . S
C1202 C1196 1.383 . S
C1202 C1201 1.379 . S
H1203 C1197 0.959 . S
H1204 C1197 0.961 . S
H1205 C1197 0.960 . S
H1206 C1198 0.930 . S
H1207 C1199 0.929 . S
H1208 C1216 0.929 1_556 S
H1209 C1218 0.949 . S
H1210 C1220 0.930 . S
H1211 C1223 0.929 . S
H1212 C1226 0.930 . S
H1213 C1228 0.960 . S
H1214 C1228 0.960 . S
H1215 C1228 0.960 . S
C1216 H1208 0.929 1_554 S
C1216 C1217 1.377 . S
C1216 C1218 1.384 . S
C1217 C1216 1.377 . S
C1217 C1223 1.390 . S
C1218 H1209 0.949 . S
C1218 C1216 1.384 . S
C1218 C1219 1.372 . S
C1219 C1218 1.372 . S
C1219 C1220 1.400 . S
C1219 C1224 1.490 . S
C1220 H1210 0.930 . S
C1220 C1219 1.400 . S
C1220 C1223 1.386 . S
H1221 C1237 0.930 1_545 S
H1222 C1238 0.931 . S
C1223 H1211 0.929 . S
C1223 C1217 1.390 . S
C1223 C1220 1.386 . S
C1224 C1219 1.490 . S
C1224 C1226 1.395 . S
C1224 C1227 1.403 . S
H1225 C1231 0.930 . S
C1226 H1212 0.930 . S
C1226 C1224 1.395 . S
C1226 C1229 1.403 . S
C1227 C1224 1.403 . S
C1227 C1228 1.524 . S
C1227 C1231 1.400 . S
C1228 H1213 0.960 . S
C1228 H1214 0.960 . S
C1228 H1215 0.960 . S
C1228 C1227 1.524 . S
C1229 C1226 1.403 . S
C1229 C1230 1.392 . S
C1229 C1233 1.495 . S
C1230 C1229 1.392 . S
C1230 C1231 1.385 . S
C1230 C1232 1.478 . S
C1231 H1225 0.930 . S
C1231 C1227 1.400 . S
C1231 C1230 1.385 . S
C1232 C1230 1.478 . S
C1232 C1234 1.381 . S
C1232 C1238 1.383 . S
C1233 C1229 1.495 . S
C1233 H1239 0.959 . S
C1233 H1240 0.961 . S
C1233 H1241 0.960 . S
C1234 C1232 1.381 . S
C1234 C1235 1.394 . S
C1234 H1242 0.930 . S
C1235 C1234 1.394 . S
C1235 C1236 1.383 1_565 S
C1235 H1243 0.958 . S
C1236 C1235 1.383 1_545 S
C1236 C1237 1.377 1_545 S
C1237 H1221 0.930 1_565 S
C1237 C1236 1.377 1_565 S
C1237 C1238 1.379 . S
C1238 H1222 0.931 . S
C1238 C1232 1.383 . S
C1238 C1237 1.379 . S
H1239 C1233 0.959 . S
H1240 C1233 0.961 . S
H1241 C1233 0.960 . S
H1242 C1234 0.930 . S
H1243 C1235 0.958 . S
H1244 C1252 0.929 . S
H1245 C1254 0.930 . S
H1246 C1256 0.930 . S
H1247 C1259 0.929 . S
H1248 C1262 0.930 . S
H1249 C1264 0.965 . S
H1250 C1264 0.939 1_556 S
H1251 C1264 0.976 . S
C1252 H1244 0.929 . S
C1252 C1253 1.377 . S
C1252 C1254 1.384 . S
C1253 C1252 1.377 . S
C1253 C1259 1.390 1_556 S
C1254 H1245 0.930 . S
C1254 C1252 1.384 . S
C1254 C1255 1.372 . S
C1255 C1254 1.372 . S
C1255 C1256 1.400 1_556 S
C1255 C1260 1.490 . S
C1256 H1246 0.930 . S
C1256 C1255 1.400 1_554 S
C1256 C1259 1.386 . S
H1257 C1273 0.930 . S
H1258 C1274 0.931 . S
C1259 H1247 0.929 . S
C1259 C1253 1.390 1_554 S
C1259 C1256 1.386 . S
C1260 C1255 1.490 . S
C1260 C1262 1.395 . S
C1260 C1263 1.415 . S
H1261 C1267 0.932 . S
C1262 H1248 0.930 . S
C1262 C1260 1.395 . S
C1262 C1265 1.403 . S
C1263 C1260 1.415 . S
C1263 C1264 1.526 1_556 S
C1263 C1267 1.390 1_556 S
C1264 H1249 0.965 . S
C1264 H1250 0.939 1_554 S
C1264 H1251 0.976 . S
C1264 C1263 1.526 1_554 S
C1265 C1262 1.403 . S
C1265 C1266 1.392 . S
C1265 C1269 1.495 . S
C1266 C1265 1.392 . S
C1266 C1267 1.385 1_556 S
C1266 C1268 1.478 . S
C1267 H1261 0.932 . S
C1267 C1263 1.390 1_554 S
C1267 C1266 1.385 1_554 S
C1268 C1266 1.478 . S
C1268 C1270 1.383 . S
C1268 C1274 1.380 1_556 S
C1269 C1265 1.495 . S
C1269 H1275 0.959 . S
C1269 H1276 0.961 1_556 S
C1269 H1277 0.960 . S
C1270 C1268 1.383 . S
C1270 C1271 1.394 . S
C1270 H1278 0.930 . S
C1271 C1270 1.394 . S
C1271 C1272 1.383 1_556 S
C1271 H1279 0.929 . S
C1272 C1271 1.383 1_554 S
C1272 C1273 1.377 . S
C1273 H1257 0.930 . S
C1273 C1272 1.377 . S
C1273 C1274 1.379 . S
C1274 H1258 0.931 . S
C1274 C1268 1.380 1_554 S
C1274 C1273 1.379 . S
H1275 C1269 0.959 . S
H1276 C1269 0.961 1_554 S
H1277 C1269 0.960 . S
H1278 C1270 0.930 . S
H1279 C1271 0.929 . S
H1280 C1288 0.929 . S
H1281 C1290 0.930 . S
H1282 C1292 0.930 . S
H1283 C1295 0.929 . S
H1284 C1298 0.930 . S
H1285 C1300 0.960 . S
H1286 C1300 0.960 . S
H1287 C1300 0.960 . S
C1288 H1280 0.929 . S
C1288 C1289 1.377 . S
C1288 C1290 1.384 . S
C1289 C1288 1.377 . S
C1289 C1295 1.390 . S
C1290 H1281 0.930 . S
C1290 C1288 1.384 . S
C1290 C1291 1.372 . S
C1291 C1290 1.372 . S
C1291 C1292 1.400 . S
C1291 C1296 1.490 . S
C1292 H1282 0.930 . S
C1292 C1291 1.400 . S
C1292 C1295 1.386 . S
H1293 C1309 0.930 . S
H1294 C1310 0.931 . S
C1295 H1283 0.929 . S
C1295 C1289 1.390 . S
C1295 C1292 1.386 . S
C1296 C1291 1.490 . S
C1296 C1298 1.395 . S
C1296 C1299 1.403 . S
H1297 C1303 0.930 . S
C1298 H1284 0.930 . S
C1298 C1296 1.395 . S
C1298 C1301 1.403 . S
C1299 C1296 1.403 . S
C1299 C1300 1.524 . S
C1299 C1303 1.400 . S
C1300 H1285 0.960 . S
C1300 H1286 0.960 . S
C1300 H1287 0.960 . S
C1300 C1299 1.524 . S
C1301 C1298 1.403 . S
C1301 C1302 1.392 . S
C1301 C1305 1.495 . S
C1302 C1301 1.392 . S
C1302 C1303 1.385 . S
C1302 C1304 1.478 . S
C1303 H1297 0.930 . S
C1303 C1299 1.400 . S
C1303 C1302 1.385 . S
C1304 C1302 1.478 . S
C1304 C1306 1.381 . S
C1304 C1310 1.383 . S
C1305 C1301 1.495 . S
C1305 H1311 0.959 . S
C1305 H1312 0.961 . S
C1305 H1313 0.960 . S
C1306 C1304 1.381 . S
C1306 C1307 1.394 . S
C1306 H1314 0.930 . S
C1307 C1306 1.394 . S
C1307 C1308 1.383 . S
C1307 H1315 0.929 . S
C1308 C1307 1.383 . S
C1308 C1309 1.377 . S
C1309 H1293 0.930 . S
C1309 C1308 1.377 . S
C1309 C1310 1.379 . S
C1310 H1294 0.931 . S
C1310 C1304 1.383 . S
C1310 C1309 1.379 . S
H1311 C1305 0.959 . S
H1312 C1305 0.961 . S
H1313 C1305 0.960 . S
H1314 C1306 0.930 . S
H1315 C1307 0.929 . S
H1316 C1324 0.929 . S
H1317 C1326 0.930 . S
H1318 C1328 0.930 . S
H1319 C1331 0.929 . S
H1320 C1334 0.930 . S
H1321 C1336 0.960 . S
H1322 C1336 0.960 . S
H1323 C1336 0.960 . S
C1324 H1316 0.929 . S
C1324 C1325 1.377 . S
C1324 C1326 1.384 . S
C1325 C1324 1.377 . S
C1325 C1331 1.390 . S
C1326 H1317 0.930 . S
C1326 C1324 1.384 . S
C1326 C1327 1.372 . S
C1327 C1326 1.372 . S
C1327 C1328 1.400 . S
C1327 C1332 1.490 . S
C1328 H1318 0.930 . S
C1328 C1327 1.400 . S
C1328 C1331 1.386 . S
H1329 C1345 0.930 . S
H1330 C1346 0.931 . S
C1331 H1319 0.929 . S
C1331 C1325 1.390 . S
C1331 C1328 1.386 . S
C1332 C1327 1.490 . S
C1332 C1334 1.395 . S
C1332 C1335 1.403 . S
H1333 C1339 0.930 . S
C1334 H1320 0.930 . S
C1334 C1332 1.395 . S
C1334 C1337 1.403 . S
C1335 C1332 1.403 . S
C1335 C1336 1.524 . S
C1335 C1339 1.400 . S
C1336 H1321 0.960 . S
C1336 H1322 0.960 . S
C1336 H1323 0.960 . S
C1336 C1335 1.524 . S
C1337 C1334 1.403 . S
C1337 C1338 1.392 . S
C1337 C1341 1.495 . S
C1338 C1337 1.392 . S
C1338 C1339 1.385 . S
C1338 C1340 1.478 . S
C1339 H1333 0.930 . S
C1339 C1335 1.400 . S
C1339 C1338 1.385 . S
C1340 C1338 1.478 . S
C1340 C1342 1.381 . S
C1340 C1346 1.383 . S
C1341 C1337 1.495 . S
C1341 H1347 0.959 . S
C1341 H1348 0.961 . S
C1341 H1349 0.960 . S
C1342 C1340 1.381 . S
C1342 C1343 1.394 . S
C1342 H1350 0.930 . S
C1343 C1342 1.394 . S
C1343 C1344 1.383 . S
C1343 H1351 0.929 . S
C1344 C1343 1.383 . S
C1344 C1345 1.377 . S
C1345 H1329 0.930 . S
C1345 C1344 1.377 . S
C1345 C1346 1.379 . S
C1346 H1330 0.931 . S
C1346 C1340 1.383 . S
C1346 C1345 1.379 . S
H1347 C1341 0.959 . S
H1348 C1341 0.961 . S
H1349 C1341 0.960 . S
H1350 C1342 0.930 . S
H1351 C1343 0.929 . S
H1352 C1360 0.929 . S
H1353 C1362 0.930 . S
H1354 C1364 0.930 . S
H1355 C1367 0.929 . S
H1356 C1370 0.930 . S
H1357 C1372 0.960 . S
H1358 C1372 0.960 . S
H1359 C1372 0.960 . S
C1360 H1352 0.929 . S
C1360 C1361 1.377 . S
C1360 C1362 1.384 . S
C1361 C1360 1.377 . S
C1361 C1367 1.390 . S
C1362 H1353 0.930 . S
C1362 C1360 1.384 . S
C1362 C1363 1.372 . S
C1363 C1362 1.372 . S
C1363 C1364 1.400 . S
C1363 C1368 1.490 . S
C1364 H1354 0.930 . S
C1364 C1363 1.400 . S
C1364 C1367 1.386 . S
H1365 C1381 0.930 . S
H1366 C1382 0.931 . S
C1367 H1355 0.929 . S
C1367 C1361 1.390 . S
C1367 C1364 1.386 . S
C1368 C1363 1.490 . S
C1368 C1370 1.395 . S
C1368 C1371 1.403 . S
H1369 C1375 0.930 . S
C1370 H1356 0.930 . S
C1370 C1368 1.395 . S
C1370 C1373 1.403 . S
C1371 C1368 1.403 . S
C1371 C1372 1.524 . S
C1371 C1375 1.400 . S
C1372 H1357 0.960 . S
C1372 H1358 0.960 . S
C1372 H1359 0.960 . S
C1372 C1371 1.524 . S
C1373 C1370 1.403 . S
C1373 C1374 1.392 . S
C1373 C1377 1.495 . S
C1374 C1373 1.392 . S
C1374 C1375 1.385 . S
C1374 C1376 1.478 . S
C1375 H1369 0.930 . S
C1375 C1371 1.400 . S
C1375 C1374 1.385 . S
C1376 C1374 1.478 . S
C1376 C1378 1.381 . S
C1376 C1382 1.383 . S
C1377 C1373 1.495 . S
C1377 H1383 0.959 . S
C1377 H1384 0.961 . S
C1377 H1385 0.960 . S
C1378 C1376 1.381 . S
C1378 C1379 1.394 . S
C1378 H1386 0.930 . S
C1379 C1378 1.394 . S
C1379 C1380 1.383 . S
C1379 H1387 0.929 . S
C1380 C1379 1.383 . S
C1380 C1381 1.377 . S
C1381 H1365 0.930 . S
C1381 C1380 1.377 . S
C1381 C1382 1.379 . S
C1382 H1366 0.931 . S
C1382 C1376 1.383 . S
C1382 C1381 1.379 . S
H1383 C1377 0.959 . S
H1384 C1377 0.961 . S
H1385 C1377 0.960 . S
H1386 C1378 0.930 . S
H1387 C1379 0.929 . S
H1388 C1396 0.929 . S
H1389 C1398 0.930 . S
H1390 C1400 0.930 . S
H1391 C1403 0.929 . S
H1392 C1406 0.930 . S
H1393 C1408 0.960 . S
H1394 C1408 0.960 . S
H1395 C1408 0.960 . S
C1396 H1388 0.929 . S
C1396 C1397 1.377 . S
C1396 C1398 1.384 . S
C1397 C1396 1.377 . S
C1397 C1403 1.390 . S
C1398 H1389 0.930 . S
C1398 C1396 1.384 . S
C1398 C1399 1.372 . S
C1399 C1398 1.372 . S
C1399 C1400 1.400 . S
C1399 C1404 1.490 . S
C1400 H1390 0.930 . S
C1400 C1399 1.400 . S
C1400 C1403 1.386 . S
H1401 C1417 0.930 . S
H1402 C1418 0.931 . S
C1403 H1391 0.929 . S
C1403 C1397 1.390 . S
C1403 C1400 1.386 . S
C1404 C1399 1.490 . S
C1404 C1406 1.395 . S
C1404 C1407 1.403 . S
H1405 C1411 0.930 . S
C1406 H1392 0.930 . S
C1406 C1404 1.395 . S
C1406 C1409 1.403 . S
C1407 C1404 1.403 . S
C1407 C1408 1.524 . S
C1407 C1411 1.400 . S
C1408 H1393 0.960 . S
C1408 H1394 0.960 . S
C1408 H1395 0.960 . S
C1408 C1407 1.524 . S
C1409 C1406 1.403 . S
C1409 C1410 1.392 . S
C1409 C1413 1.495 . S
C1410 C1409 1.392 . S
C1410 C1411 1.385 . S
C1410 C1412 1.478 . S
C1411 H1405 0.930 . S
C1411 C1407 1.400 . S
C1411 C1410 1.385 . S
C1412 C1410 1.478 . S
C1412 C1414 1.381 . S
C1412 C1418 1.383 . S
C1413 C1409 1.495 . S
C1413 H1419 0.959 . S
C1413 H1420 0.961 . S
C1413 H1421 0.960 . S
C1414 C1412 1.381 . S
C1414 C1415 1.394 . S
C1414 H1422 0.930 . S
C1415 C1414 1.394 . S
C1415 C1416 1.383 . S
C1415 H1423 0.929 . S
C1416 C1415 1.383 . S
C1416 C1417 1.377 . S
C1417 H1401 0.930 . S
C1417 C1416 1.377 . S
C1417 C1418 1.379 . S
C1418 H1402 0.931 . S
C1418 C1412 1.383 . S
C1418 C1417 1.379 . S
H1419 C1413 0.959 . S
H1420 C1413 0.961 . S
H1421 C1413 0.960 . S
H1422 C1414 0.930 . S
H1423 C1415 0.929 . S
H1424 C1432 0.929 . S
H1425 C1434 0.930 . S
H1426 C1436 0.930 . S
H1427 C1439 0.929 . S
H1428 C1442 0.930 . S
H1429 C1444 0.960 . S
H1430 C1444 0.960 . S
H1431 C1444 0.960 . S
C1432 H1424 0.929 . S
C1432 C1433 1.377 . S
C1432 C1434 1.384 . S
C1433 C1432 1.377 . S
C1433 C1439 1.390 . S
C1434 H1425 0.930 . S
C1434 C1432 1.384 . S
C1434 C1435 1.372 . S
C1435 C1434 1.372 . S
C1435 C1436 1.400 . S
C1435 C1440 1.490 . S
C1436 H1426 0.930 . S
C1436 C1435 1.400 . S
C1436 C1439 1.386 . S
H1437 C1453 0.930 . S
H1438 C1454 0.931 . S
C1439 H1427 0.929 . S
C1439 C1433 1.390 . S
C1439 C1436 1.386 . S
C1440 C1435 1.490 . S
C1440 C1442 1.395 . S
C1440 C1443 1.403 . S
H1441 C1447 0.930 . S
C1442 H1428 0.930 . S
C1442 C1440 1.395 . S
C1442 C1445 1.403 . S
C1443 C1440 1.403 . S
C1443 C1444 1.524 . S
C1443 C1447 1.400 . S
C1444 H1429 0.960 . S
C1444 H1430 0.960 . S
C1444 H1431 0.960 . S
C1444 C1443 1.524 . S
C1445 C1442 1.403 . S
C1445 C1446 1.392 . S
C1445 C1449 1.495 . S
C1446 C1445 1.392 . S
C1446 C1447 1.385 . S
C1446 C1448 1.478 . S
C1447 H1441 0.930 . S
C1447 C1443 1.400 . S
C1447 C1446 1.385 . S
C1448 C1446 1.478 . S
C1448 C1450 1.381 . S
C1448 C1454 1.383 . S
C1449 C1445 1.495 . S
C1449 H1455 0.959 . S
C1449 H1456 0.961 . S
C1449 H1457 0.960 . S
C1450 C1448 1.381 . S
C1450 C1451 1.394 . S
C1450 H1458 0.930 . S
C1451 C1450 1.394 . S
C1451 C1452 1.383 . S
C1451 H1459 0.929 . S
C1452 C1451 1.383 . S
C1452 C1453 1.377 . S
C1453 H1437 0.930 . S
C1453 C1452 1.377 . S
C1453 C1454 1.379 . S
C1454 H1438 0.931 . S
C1454 C1448 1.383 . S
C1454 C1453 1.379 . S
H1455 C1449 0.959 . S
H1456 C1449 0.961 . S
H1457 C1449 0.960 . S
H1458 C1450 0.930 . S
H1459 C1451 0.929 . S
H1460 C1468 0.929 . S
H1461 C1470 0.930 . S
H1462 C1472 0.930 . S
H1463 C1475 0.929 . S
H1464 C1478 0.930 . S
H1465 C1480 0.960 . S
H1466 C1480 0.960 . S
H1467 C1480 0.960 . S
C1468 H1460 0.929 . S
C1468 C1469 1.377 . S
C1468 C1470 1.384 . S
C1469 C1468 1.377 . S
C1469 C1475 1.390 . S
C1470 H1461 0.930 . S
C1470 C1468 1.384 . S
C1470 C1471 1.372 . S
C1471 C1470 1.372 . S
C1471 C1472 1.400 . S
C1471 C1476 1.490 . S
C1472 H1462 0.930 . S
C1472 C1471 1.400 . S
C1472 C1475 1.386 . S
H1473 C1489 0.930 . S
H1474 C1490 0.931 . S
C1475 H1463 0.929 . S
C1475 C1469 1.390 . S
C1475 C1472 1.386 . S
C1476 C1471 1.490 . S
C1476 C1478 1.395 . S
C1476 C1479 1.403 . S
H1477 C1483 0.930 . S
C1478 H1464 0.930 . S
C1478 C1476 1.395 . S
C1478 C1481 1.403 . S
C1479 C1476 1.403 . S
C1479 C1480 1.524 . S
C1479 C1483 1.400 . S
C1480 H1465 0.960 . S
C1480 H1466 0.960 . S
C1480 H1467 0.960 . S
C1480 C1479 1.524 . S
C1481 C1478 1.403 . S
C1481 C1482 1.392 . S
C1481 C1485 1.495 . S
C1482 C1481 1.392 . S
C1482 C1483 1.385 . S
C1482 C1484 1.478 . S
C1483 H1477 0.930 . S
C1483 C1479 1.400 . S
C1483 C1482 1.385 . S
C1484 C1482 1.478 . S
C1484 C1486 1.381 . S
C1484 C1490 1.383 . S
C1485 C1481 1.495 . S
C1485 H1491 0.959 . S
C1485 H1492 0.961 . S
C1485 H1493 0.960 . S
C1486 C1484 1.381 . S
C1486 C1487 1.394 . S
C1486 H1494 0.930 . S
C1487 C1486 1.394 . S
C1487 C1488 1.383 . S
C1487 H1495 0.929 . S
C1488 C1487 1.383 . S
C1488 C1489 1.377 . S
C1489 H1473 0.930 . S
C1489 C1488 1.377 . S
C1489 C1490 1.379 . S
C1490 H1474 0.931 . S
C1490 C1484 1.383 . S
C1490 C1489 1.379 . S
H1491 C1485 0.959 . S
H1492 C1485 0.961 . S
H1493 C1485 0.960 . S
H1494 C1486 0.930 . S
H1495 C1487 0.929 . S
H1496 C1504 0.929 . S
H1497 C1506 0.930 . S
H1498 C1508 0.930 . S
H1499 C1511 0.929 . S
H1500 C1514 0.930 . S
H1501 C1516 0.960 1_655 S
H1502 C1516 0.960 . S
H1503 C1516 0.960 1_655 S
C1504 H1496 0.929 . S
C1504 C1505 1.377 . S
C1504 C1506 1.384 . S
C1505 C1504 1.377 . S
C1505 C1511 1.390 . S
C1506 H1497 0.930 . S
C1506 C1504 1.384 . S
C1506 C1507 1.372 . S
C1507 C1506 1.372 . S
C1507 C1508 1.400 . S
C1507 C1512 1.490 . S
C1508 H1498 0.930 . S
C1508 C1507 1.400 . S
C1508 C1511 1.386 . S
H1509 C1525 0.930 . S
H1510 C1526 0.931 . S
C1511 H1499 0.929 . S
C1511 C1505 1.390 . S
C1511 C1508 1.386 . S
C1512 C1507 1.490 . S
C1512 C1514 1.395 . S
C1512 C1515 1.403 . S
H1513 C1519 0.930 . S
C1514 H1500 0.930 . S
C1514 C1512 1.395 . S
C1514 C1517 1.403 . S
C1515 C1512 1.403 . S
C1515 C1516 1.524 . S
C1515 C1519 1.400 . S
C1516 H1501 0.960 1_455 S
C1516 H1502 0.960 . S
C1516 H1503 0.960 1_455 S
C1516 C1515 1.524 . S
C1517 C1514 1.403 . S
C1517 C1518 1.392 . S
C1517 C1521 1.495 . S
C1518 C1517 1.392 . S
C1518 C1519 1.385 . S
C1518 C1520 1.478 . S
C1519 H1513 0.930 . S
C1519 C1515 1.400 . S
C1519 C1518 1.385 . S
C1520 C1518 1.478 . S
C1520 C1522 1.381 . S
C1520 C1526 1.383 . S
C1521 C1517 1.495 . S
C1521 H1527 0.959 . S
C1521 H1528 0.961 . S
C1521 H1529 0.960 . S
C1522 C1520 1.381 . S
C1522 C1523 1.394 . S
C1522 H1530 0.930 . S
C1523 C1522 1.394 . S
C1523 C1524 1.383 . S
C1523 H1531 0.929 . S
C1524 C1523 1.383 . S
C1524 C1525 1.377 . S
C1525 H1509 0.930 . S
C1525 C1524 1.377 . S
C1525 C1526 1.379 . S
C1526 H1510 0.931 . S
C1526 C1520 1.383 . S
C1526 C1525 1.379 . S
H1527 C1521 0.959 . S
H1528 C1521 0.961 . S
H1529 C1521 0.960 . S
H1530 C1522 0.930 . S
H1531 C1523 0.929 . S
H1532 C1540 0.929 . S
H1533 C1542 0.930 . S
H1534 C1544 0.930 . S
H1535 C1547 0.929 . S
H1536 C1550 0.930 . S
H1537 C1552 0.960 . S
H1538 C1552 0.960 . S
H1539 C1552 0.960 . S
C1540 H1532 0.929 . S
C1540 C1541 1.377 . S
C1540 C1542 1.384 . S
C1541 C1540 1.377 . S
C1541 C1547 1.390 . S
C1542 H1533 0.930 . S
C1542 C1540 1.384 . S
C1542 C1543 1.372 . S
C1543 C1542 1.372 . S
C1543 C1544 1.400 . S
C1543 C1548 1.490 . S
C1544 H1534 0.930 . S
C1544 C1543 1.400 . S
C1544 C1547 1.386 . S
H1545 C1561 0.930 . S
H1546 C1562 0.931 . S
C1547 H1535 0.929 . S
C1547 C1541 1.390 . S
C1547 C1544 1.386 . S
C1548 C1543 1.490 . S
C1548 C1550 1.395 . S
C1548 C1551 1.403 . S
H1549 C1555 0.930 . S
C1550 H1536 0.930 . S
C1550 C1548 1.395 . S
C1550 C1553 1.403 . S
C1551 C1548 1.403 . S
C1551 C1552 1.524 . S
C1551 C1555 1.400 . S
C1552 H1537 0.960 . S
C1552 H1538 0.960 . S
C1552 H1539 0.960 . S
C1552 C1551 1.524 . S
C1553 C1550 1.403 . S
C1553 C1554 1.392 . S
C1553 C1557 1.495 . S
C1554 C1553 1.392 . S
C1554 C1555 1.385 . S
C1554 C1556 1.478 . S
C1555 H1549 0.930 . S
C1555 C1551 1.400 . S
C1555 C1554 1.385 . S
C1556 C1554 1.478 . S
C1556 C1558 1.381 . S
C1556 C1562 1.383 . S
C1557 C1553 1.495 . S
C1557 H1563 0.959 . S
C1557 H1564 0.961 . S
C1557 H1565 0.960 . S
C1558 C1556 1.381 . S
C1558 C1559 1.394 . S
C1558 H1566 0.930 . S
C1559 C1558 1.394 . S
C1559 C1560 1.383 . S
C1559 H1567 0.929 . S
C1560 C1559 1.383 . S
C1560 C1561 1.377 . S
C1561 H1545 0.930 . S
C1561 C1560 1.377 . S
C1561 C1562 1.379 . S
C1562 H1546 0.931 . S
C1562 C1556 1.383 . S
C1562 C1561 1.379 . S
H1563 C1557 0.959 . S
H1564 C1557 0.961 . S
H1565 C1557 0.960 . S
H1566 C1558 0.930 . S
H1567 C1559 0.929 . S
H1568 C1576 0.929 . S
H1569 C1578 0.930 . S
H1570 C1580 0.930 . S
H1571 C1583 0.929 . S
H1572 C1586 0.930 . S
H1573 C1588 0.960 . S
H1574 C1588 0.960 . S
H1575 C1588 0.960 . S
C1576 H1568 0.929 . S
C1576 C1577 1.377 . S
C1576 C1578 1.384 . S
C1577 C1576 1.377 . S
C1577 C1583 1.390 . S
C1578 H1569 0.930 . S
C1578 C1576 1.384 . S
C1578 C1579 1.372 . S
C1579 C1578 1.372 . S
C1579 C1580 1.400 . S
C1579 C1584 1.490 . S
C1580 H1570 0.930 . S
C1580 C1579 1.400 . S
C1580 C1583 1.386 . S
H1581 C1597 0.930 . S
H1582 C1598 0.931 . S
C1583 H1571 0.929 . S
C1583 C1577 1.390 . S
C1583 C1580 1.386 . S
C1584 C1579 1.490 . S
C1584 C1586 1.395 . S
C1584 C1587 1.403 . S
H1585 C1591 0.930 . S
C1586 H1572 0.930 . S
C1586 C1584 1.395 . S
C1586 C1589 1.403 . S
C1587 C1584 1.403 . S
C1587 C1588 1.524 . S
C1587 C1591 1.400 . S
C1588 H1573 0.960 . S
C1588 H1574 0.960 . S
C1588 H1575 0.960 . S
C1588 C1587 1.524 . S
C1589 C1586 1.403 . S
C1589 C1590 1.392 . S
C1589 C1593 1.495 . S
C1590 C1589 1.392 . S
C1590 C1591 1.385 . S
C1590 C1592 1.478 . S
C1591 H1585 0.930 . S
C1591 C1587 1.400 . S
C1591 C1590 1.385 . S
C1592 C1590 1.478 . S
C1592 C1594 1.381 . S
C1592 C1598 1.383 . S
C1593 C1589 1.495 . S
C1593 H1599 0.959 . S
C1593 H1600 0.961 . S
C1593 H1601 0.960 . S
C1594 C1592 1.381 . S
C1594 C1595 1.394 . S
C1594 H1602 0.930 . S
C1595 C1594 1.394 . S
C1595 C1596 1.383 . S
C1595 H1603 0.929 . S
C1596 C1595 1.383 . S
C1596 C1597 1.377 . S
C1597 H1581 0.930 . S
C1597 C1596 1.377 . S
C1597 C1598 1.379 . S
C1598 H1582 0.931 . S
C1598 C1592 1.383 . S
C1598 C1597 1.379 . S
H1599 C1593 0.959 . S
H1600 C1593 0.961 . S
H1601 C1593 0.960 . S
H1602 C1594 0.930 . S
H1603 C1595 0.929 . S
H1604 C1612 0.929 . S
H1605 C1614 0.930 . S
H1606 C1616 0.930 . S
H1607 C1619 0.929 . S
H1608 C1622 0.930 . S
H1609 C1624 0.960 . S
H1610 C1624 0.960 . S
H1611 C1624 0.960 . S
C1612 H1604 0.929 . S
C1612 C1613 1.377 . S
C1612 C1614 1.384 . S
C1613 C1612 1.377 . S
C1613 C1619 1.390 . S
C1614 H1605 0.930 . S
C1614 C1612 1.384 . S
C1614 C1615 1.372 . S
C1615 C1614 1.372 . S
C1615 C1616 1.400 . S
C1615 C1620 1.490 . S
C1616 H1606 0.930 . S
C1616 C1615 1.400 . S
C1616 C1619 1.386 . S
H1617 C1633 0.930 . S
H1618 C1634 0.931 . S
C1619 H1607 0.929 . S
C1619 C1613 1.390 . S
C1619 C1616 1.386 . S
C1620 C1615 1.490 . S
C1620 C1622 1.395 . S
C1620 C1623 1.403 . S
H1621 C1627 0.930 . S
C1622 H1608 0.930 . S
C1622 C1620 1.395 . S
C1622 C1625 1.403 . S
C1623 C1620 1.403 . S
C1623 C1624 1.524 . S
C1623 C1627 1.400 . S
C1624 H1609 0.960 . S
C1624 H1610 0.960 . S
C1624 H1611 0.960 . S
C1624 C1623 1.524 . S
C1625 C1622 1.403 . S
C1625 C1626 1.392 . S
C1625 C1629 1.495 . S
C1626 C1625 1.392 . S
C1626 C1627 1.385 . S
C1626 C1628 1.478 . S
C1627 H1621 0.930 . S
C1627 C1623 1.400 . S
C1627 C1626 1.385 . S
C1628 C1626 1.478 . S
C1628 C1630 1.381 . S
C1628 C1634 1.383 . S
C1629 C1625 1.495 . S
C1629 H1635 0.959 . S
C1629 H1636 0.961 . S
C1629 H1637 0.960 . S
C1630 C1628 1.381 . S
C1630 C1631 1.394 . S
C1630 H1638 0.930 . S
C1631 C1630 1.394 . S
C1631 C1632 1.383 . S
C1631 H1639 0.929 . S
C1632 C1631 1.383 . S
C1632 C1633 1.377 . S
C1633 H1617 0.930 . S
C1633 C1632 1.377 . S
C1633 C1634 1.379 . S
C1634 H1618 0.931 . S
C1634 C1628 1.383 . S
C1634 C1633 1.379 . S
H1635 C1629 0.959 . S
H1636 C1629 0.961 . S
H1637 C1629 0.960 . S
H1638 C1630 0.930 . S
H1639 C1631 0.929 . S
H1640 C1648 0.929 . S
H1641 C1650 0.930 . S
H1642 C1652 0.930 . S
H1643 C1655 0.929 . S
H1644 C1658 0.930 . S
H1645 C1660 0.960 . S
H1646 C1660 0.960 . S
H1647 C1660 0.960 . S
C1648 H1640 0.929 . S
C1648 C1649 1.377 . S
C1648 C1650 1.384 . S
C1649 C1648 1.377 . S
C1649 C1655 1.390 . S
C1650 H1641 0.930 . S
C1650 C1648 1.384 . S
C1650 C1651 1.372 . S
C1651 C1650 1.372 . S
C1651 C1652 1.400 . S
C1651 C1656 1.490 . S
C1652 H1642 0.930 . S
C1652 C1651 1.400 . S
C1652 C1655 1.386 . S
H1653 C1669 0.930 . S
H1654 C1670 0.931 . S
C1655 H1643 0.929 . S
C1655 C1649 1.390 . S
C1655 C1652 1.386 . S
C1656 C1651 1.490 . S
C1656 C1658 1.395 . S
C1656 C1659 1.403 . S
H1657 C1663 0.957 . S
C1658 H1644 0.930 . S
C1658 C1656 1.395 . S
C1658 C1661 1.403 . S
C1659 C1656 1.403 . S
C1659 C1660 1.524 1_455 S
C1659 C1663 1.400 . S
C1660 H1645 0.960 . S
C1660 H1646 0.960 . S
C1660 H1647 0.960 . S
C1660 C1659 1.524 1_655 S
C1661 C1658 1.403 . S
C1661 C1662 1.392 . S
C1661 C1665 1.495 . S
C1662 C1661 1.392 . S
C1662 C1663 1.385 . S
C1662 C1664 1.478 . S
C1663 H1657 0.957 . S
C1663 C1659 1.400 . S
C1663 C1662 1.385 . S
C1664 C1662 1.478 . S
C1664 C1666 1.381 . S
C1664 C1670 1.383 . S
C1665 C1661 1.495 . S
C1665 H1671 0.959 . S
C1665 H1672 0.961 . S
C1665 H1673 0.960 . S
C1666 C1664 1.381 . S
C1666 C1667 1.394 . S
C1666 H1674 0.930 . S
C1667 C1666 1.394 . S
C1667 C1668 1.383 . S
C1667 H1675 0.929 . S
C1668 C1667 1.383 . S
C1668 C1669 1.377 . S
C1669 H1653 0.930 . S
C1669 C1668 1.377 . S
C1669 C1670 1.379 . S
C1670 H1654 0.931 . S
C1670 C1664 1.383 . S
C1670 C1669 1.379 . S
H1671 C1665 0.959 . S
H1672 C1665 0.961 . S
H1673 C1665 0.960 . S
H1674 C1666 0.930 . S
H1675 C1667 0.929 . S
H1676 C1684 0.929 . S
H1677 C1686 0.930 . S
H1678 C1688 0.930 . S
H1679 C1691 0.929 . S
H1680 C1694 0.930 . S
H1681 C1696 0.960 . S
H1682 C1696 0.960 . S
H1683 C1696 0.960 . S
C1684 H1676 0.929 . S
C1684 C1685 1.377 . S
C1684 C1686 1.384 . S
C1685 C1684 1.377 . S
C1685 C1691 1.390 . S
C1686 H1677 0.930 . S
C1686 C1684 1.384 . S
C1686 C1687 1.372 . S
C1687 C1686 1.372 . S
C1687 C1688 1.400 . S
C1687 C1692 1.490 . S
C1688 H1678 0.930 . S
C1688 C1687 1.400 . S
C1688 C1691 1.386 . S
H1689 C1705 0.930 . S
H1690 C1706 0.931 . S
C1691 H1679 0.929 . S
C1691 C1685 1.390 . S
C1691 C1688 1.386 . S
C1692 C1687 1.490 . S
C1692 C1694 1.395 . S
C1692 C1695 1.403 . S
H1693 C1699 0.930 . S
C1694 H1680 0.930 . S
C1694 C1692 1.395 . S
C1694 C1697 1.403 . S
C1695 C1692 1.403 . S
C1695 C1696 1.524 . S
C1695 C1699 1.400 . S
C1696 H1681 0.960 . S
C1696 H1682 0.960 . S
C1696 H1683 0.960 . S
C1696 C1695 1.524 . S
C1697 C1694 1.403 . S
C1697 C1698 1.392 . S
C1697 C1701 1.495 . S
C1698 C1697 1.392 . S
C1698 C1699 1.385 . S
C1698 C1700 1.478 . S
C1699 H1693 0.930 . S
C1699 C1695 1.400 . S
C1699 C1698 1.385 . S
C1700 C1698 1.478 . S
C1700 C1702 1.381 . S
C1700 C1706 1.383 . S
C1701 C1697 1.495 . S
C1701 H1707 0.959 . S
C1701 H1708 0.961 . S
C1701 H1709 0.960 . S
C1702 C1700 1.381 . S
C1702 C1703 1.394 . S
C1702 H1710 0.930 . S
C1703 C1702 1.394 . S
C1703 C1704 1.383 . S
C1703 H1711 0.929 . S
C1704 C1703 1.383 . S
C1704 C1705 1.377 . S
C1705 H1689 0.930 . S
C1705 C1704 1.377 . S
C1705 C1706 1.379 . S
C1706 H1690 0.931 . S
C1706 C1700 1.383 . S
C1706 C1705 1.379 . S
H1707 C1701 0.959 . S
H1708 C1701 0.961 . S
H1709 C1701 0.960 . S
H1710 C1702 0.930 . S
H1711 C1703 0.929 . S
H1712 C1720 0.929 . S
H1713 C1722 0.930 . S
H1714 C1724 0.930 . S
H1715 C1727 0.929 . S
H1716 C1730 0.930 . S
H1717 C1732 0.960 . S
H1718 C1732 0.960 . S
H1719 C1732 0.960 . S
C1720 H1712 0.929 . S
C1720 C1721 1.377 . S
C1720 C1722 1.384 . S
C1721 C1720 1.377 . S
C1721 C1727 1.390 . S
C1722 H1713 0.930 . S
C1722 C1720 1.384 . S
C1722 C1723 1.372 . S
C1723 C1722 1.372 . S
C1723 C1724 1.400 . S
C1723 C1728 1.490 . S
C1724 H1714 0.930 . S
C1724 C1723 1.400 . S
C1724 C1727 1.386 . S
H1725 C1741 0.930 . S
H1726 C1742 0.931 . S
C1727 H1715 0.929 . S
C1727 C1721 1.390 . S
C1727 C1724 1.386 . S
C1728 C1723 1.490 . S
C1728 C1730 1.395 . S
C1728 C1731 1.403 . S
H1729 C1735 0.930 . S
C1730 H1716 0.930 . S
C1730 C1728 1.395 . S
C1730 C1733 1.403 . S
C1731 C1728 1.403 . S
C1731 C1732 1.524 . S
C1731 C1735 1.400 . S
C1732 H1717 0.960 . S
C1732 H1718 0.960 . S
C1732 H1719 0.960 . S
C1732 C1731 1.524 . S
C1733 C1730 1.403 . S
C1733 C1734 1.392 . S
C1733 C1737 1.495 . S
C1734 C1733 1.392 . S
C1734 C1735 1.385 . S
C1734 C1736 1.478 . S
C1735 H1729 0.930 . S
C1735 C1731 1.400 . S
C1735 C1734 1.385 . S
C1736 C1734 1.478 . S
C1736 C1738 1.381 . S
C1736 C1742 1.383 . S
C1737 C1733 1.495 . S
C1737 H1743 0.959 . S
C1737 H1744 0.961 . S
C1737 H1745 0.960 . S
C1738 C1736 1.381 . S
C1738 C1739 1.373 1_556 S
C1738 H1746 0.917 1_556 S
C1739 C1738 1.373 1_554 S
C1739 C1740 1.345 1_554 S
C1739 H1747 0.990 . S
C1740 C1739 1.345 1_556 S
C1740 C1741 1.377 . S
C1741 H1725 0.930 . S
C1741 C1740 1.377 . S
C1741 C1742 1.379 . S
C1742 H1726 0.931 . S
C1742 C1736 1.383 . S
C1742 C1741 1.379 . S
H1743 C1737 0.959 . S
H1744 C1737 0.961 . S
H1745 C1737 0.960 . S
H1746 C1738 0.917 1_554 S
H1747 C1739 0.990 . S
H1748 C1756 0.929 . S
H1749 C1758 0.930 . S
H1750 C1760 0.930 . S
H1751 C1763 0.929 . S
H1752 C1766 0.930 . S
H1753 C1768 0.960 . S
H1754 C1768 0.960 . S
H1755 C1768 0.960 . S
C1756 H1748 0.929 . S
C1756 C1757 1.377 . S
C1756 C1758 1.384 . S
C1757 C1756 1.377 . S
C1757 C1763 1.390 . S
C1758 H1749 0.930 . S
C1758 C1756 1.384 . S
C1758 C1759 1.372 . S
C1759 C1758 1.372 . S
C1759 C1760 1.400 . S
C1759 C1764 1.490 . S
C1760 H1750 0.930 . S
C1760 C1759 1.400 . S
C1760 C1763 1.386 . S
H1761 C1777 0.930 . S
H1762 C1778 0.931 . S
C1763 H1751 0.929 . S
C1763 C1757 1.390 . S
C1763 C1760 1.386 . S
C1764 C1759 1.490 . S
C1764 C1766 1.395 . S
C1764 C1767 1.403 . S
H1765 C1771 0.930 . S
C1766 H1752 0.930 . S
C1766 C1764 1.395 . S
C1766 C1769 1.403 . S
C1767 C1764 1.403 . S
C1767 C1768 1.524 . S
C1767 C1771 1.400 . S
C1768 H1753 0.960 . S
C1768 H1754 0.960 . S
C1768 H1755 0.960 . S
C1768 C1767 1.524 . S
C1769 C1766 1.403 . S
C1769 C1770 1.392 . S
C1769 C1773 1.495 . S
C1770 C1769 1.392 . S
C1770 C1771 1.385 . S
C1770 C1772 1.478 . S
C1771 H1765 0.930 . S
C1771 C1767 1.400 . S
C1771 C1770 1.385 . S
C1772 C1770 1.478 . S
C1772 C1774 1.381 . S
C1772 C1778 1.383 . S
C1773 C1769 1.495 . S
C1773 H1779 0.959 . S
C1773 H1780 0.961 . S
C1773 H1781 0.960 . S
C1774 C1772 1.381 . S
C1774 C1775 1.394 . S
C1774 H1782 0.930 . S
C1775 C1774 1.394 . S
C1775 C1776 1.383 . S
C1775 H1783 0.929 . S
C1776 C1775 1.383 . S
C1776 C1777 1.377 . S
C1777 H1761 0.930 . S
C1777 C1776 1.377 . S
C1777 C1778 1.379 . S
C1778 H1762 0.931 . S
C1778 C1772 1.383 . S
C1778 C1777 1.379 . S
H1779 C1773 0.959 . S
H1780 C1773 0.961 . S
H1781 C1773 0.960 . S
H1782 C1774 0.930 . S
H1783 C1775 0.929 . S
H1784 C1792 0.929 . S
H1785 C1794 0.930 . S
H1786 C1796 0.930 . S
H1787 C1799 0.929 . S
H1788 C1802 0.930 . S
H1789 C1804 0.960 . S
H1790 C1804 0.960 . S
H1791 C1804 0.960 . S
C1792 H1784 0.929 . S
C1792 C1793 1.377 . S
C1792 C1794 1.384 . S
C1793 C1792 1.377 . S
C1793 C1799 1.390 . S
C1794 H1785 0.930 . S
C1794 C1792 1.384 . S
C1794 C1795 1.372 . S
C1795 C1794 1.372 . S
C1795 C1796 1.400 . S
C1795 C1800 1.490 . S
C1796 H1786 0.930 . S
C1796 C1795 1.400 . S
C1796 C1799 1.386 . S
H1797 C1813 0.930 . S
H1798 C1814 0.931 . S
C1799 H1787 0.929 . S
C1799 C1793 1.390 . S
C1799 C1796 1.386 . S
C1800 C1795 1.490 . S
C1800 C1802 1.395 . S
C1800 C1803 1.403 . S
H1801 C1807 0.930 1_565 S
C1802 H1788 0.930 . S
C1802 C1800 1.395 . S
C1802 C1805 1.403 . S
C1803 C1800 1.403 . S
C1803 C1804 1.524 1_545 S
C1803 C1807 1.400 . S
C1804 H1789 0.960 . S
C1804 H1790 0.960 . S
C1804 H1791 0.960 . S
C1804 C1803 1.524 1_565 S
C1805 C1802 1.403 . S
C1805 C1806 1.392 . S
C1805 C1809 1.495 . S
C1806 C1805 1.392 . S
C1806 C1807 1.385 . S
C1806 C1808 1.478 . S
C1807 H1801 0.930 1_545 S
C1807 C1803 1.400 . S
C1807 C1806 1.385 . S
C1808 C1806 1.478 . S
C1808 C1810 1.381 . S
C1808 C1814 1.383 . S
C1809 C1805 1.495 . S
C1809 H1815 0.959 . S
C1809 H1816 0.961 . S
C1809 H1817 0.960 . S
C1810 C1808 1.381 . S
C1810 C1811 1.394 . S
C1810 H1818 0.930 . S
C1811 C1810 1.394 . S
C1811 C1812 1.383 . S
C1811 H1819 0.929 . S
C1812 C1811 1.383 . S
C1812 C1813 1.377 . S
C1813 H1797 0.930 . S
C1813 C1812 1.377 . S
C1813 C1814 1.379 . S
C1814 H1798 0.931 . S
C1814 C1808 1.383 . S
C1814 C1813 1.379 . S
H1815 C1809 0.959 . S
H1816 C1809 0.961 . S
H1817 C1809 0.960 . S
H1818 C1810 0.930 . S
H1819 C1811 0.929 . S
H1820 C1828 0.929 . S
H1821 C1830 0.930 . S
H1822 C1832 0.930 . S
H1823 C1835 0.929 . S
H1824 C1838 0.930 . S
H1825 C1840 0.960 . S
H1826 C1840 0.960 . S
H1827 C1840 0.960 . S
C1828 H1820 0.929 . S
C1828 C1829 1.377 . S
C1828 C1830 1.384 . S
C1829 C1828 1.377 . S
C1829 C1835 1.390 . S
C1830 H1821 0.930 . S
C1830 C1828 1.384 . S
C1830 C1831 1.372 . S
C1831 C1830 1.372 . S
C1831 C1832 1.400 . S
C1831 C1836 1.490 . S
C1832 H1822 0.930 . S
C1832 C1831 1.400 . S
C1832 C1835 1.386 . S
H1833 C1849 0.930 . S
H1834 C1850 0.931 . S
C1835 H1823 0.929 . S
C1835 C1829 1.390 . S
C1835 C1832 1.386 . S
C1836 C1831 1.490 . S
C1836 C1838 1.395 . S
C1836 C1839 1.403 . S
H1837 C1843 0.930 . S
C1838 H1824 0.930 . S
C1838 C1836 1.395 . S
C1838 C1841 1.403 . S
C1839 C1836 1.403 . S
C1839 C1840 1.524 . S
C1839 C1843 1.400 . S
C1840 H1825 0.960 . S
C1840 H1826 0.960 . S
C1840 H1827 0.960 . S
C1840 C1839 1.524 . S
C1841 C1838 1.403 . S
C1841 C1842 1.392 . S
C1841 C1845 1.495 . S
C1842 C1841 1.392 . S
C1842 C1843 1.385 . S
C1842 C1844 1.478 . S
C1843 H1837 0.930 . S
C1843 C1839 1.400 . S
C1843 C1842 1.385 . S
C1844 C1842 1.478 . S
C1844 C1846 1.381 . S
C1844 C1850 1.383 . S
C1845 C1841 1.495 . S
C1845 H1851 0.959 . S
C1845 H1852 0.961 . S
C1845 H1853 0.960 . S
C1846 C1844 1.381 . S
C1846 C1847 1.394 . S
C1846 H1854 0.930 . S
C1847 C1846 1.394 . S
C1847 C1848 1.383 . S
C1847 H1855 0.929 . S
C1848 C1847 1.383 . S
C1848 C1849 1.377 . S
C1849 H1833 0.930 . S
C1849 C1848 1.377 . S
C1849 C1850 1.379 . S
C1850 H1834 0.931 . S
C1850 C1844 1.383 . S
C1850 C1849 1.379 . S
H1851 C1845 0.959 . S
H1852 C1845 0.961 . S
H1853 C1845 0.960 . S
H1854 C1846 0.930 . S
H1855 C1847 0.929 . S
H1856 C1864 0.929 . S
H1857 C1866 0.930 . S
H1858 C1868 0.930 . S
H1859 C1871 0.929 . S
H1860 C1874 0.930 1_565 S
H1861 C1876 0.960 . S
H1862 C1876 0.960 . S
H1863 C1876 0.960 . S
C1864 H1856 0.929 . S
C1864 C1865 1.377 . S
C1864 C1866 1.384 . S
C1865 C1864 1.377 . S
C1865 C1871 1.390 . S
C1866 H1857 0.930 . S
C1866 C1864 1.384 . S
C1866 C1867 1.372 . S
C1867 C1866 1.372 . S
C1867 C1868 1.400 . S
C1867 C1872 1.490 . S
C1868 H1858 0.930 . S
C1868 C1867 1.400 . S
C1868 C1871 1.386 . S
H1869 C1885 0.930 . S
H1870 C1886 0.931 . S
C1871 H1859 0.929 . S
C1871 C1865 1.390 . S
C1871 C1868 1.386 . S
C1872 C1867 1.490 . S
C1872 C1874 1.395 . S
C1872 C1875 1.403 . S
H1873 C1879 0.930 . S
C1874 H1860 0.930 1_545 S
C1874 C1872 1.395 . S
C1874 C1877 1.403 1_545 S
C1875 C1872 1.403 . S
C1875 C1876 1.524 . S
C1875 C1879 1.400 . S
C1876 H1861 0.960 . S
C1876 H1862 0.960 . S
C1876 H1863 0.960 . S
C1876 C1875 1.524 . S
C1877 C1874 1.403 1_565 S
C1877 C1878 1.392 1_565 S
C1877 C1881 1.495 . S
C1878 C1877 1.392 1_545 S
C1878 C1879 1.385 . S
C1878 C1880 1.478 . S
C1879 H1873 0.930 . S
C1879 C1875 1.400 . S
C1879 C1878 1.385 . S
C1880 C1878 1.478 . S
C1880 C1882 1.381 . S
C1880 C1886 1.383 . S
C1881 C1877 1.495 . S
C1881 H1887 0.959 . S
C1881 H1888 0.961 . S
C1881 H1889 0.960 . S
C1882 C1880 1.381 . S
C1882 C1883 1.394 . S
C1882 H1890 0.930 . S
C1883 C1882 1.394 . S
C1883 C1884 1.383 . S
C1883 H1891 0.929 . S
C1884 C1883 1.383 . S
C1884 C1885 1.377 . S
C1885 H1869 0.930 . S
C1885 C1884 1.377 . S
C1885 C1886 1.379 . S
C1886 H1870 0.931 . S
C1886 C1880 1.383 . S
C1886 C1885 1.379 . S
H1887 C1881 0.959 . S
H1888 C1881 0.961 . S
H1889 C1881 0.960 . S
H1890 C1882 0.930 . S
H1891 C1883 0.929 . S
H1892 C1900 0.929 . S
H1893 C1902 0.930 . S
H1894 C1904 0.930 . S
H1895 C1907 0.929 . S
H1896 C1910 0.930 . S
H1897 C1912 0.960 . S
H1898 C1912 0.960 . S
H1899 C1912 0.960 . S
C1900 H1892 0.929 . S
C1900 C1901 1.377 . S
C1900 C1902 1.384 . S
C1901 C1900 1.377 . S
C1901 C1907 1.390 . S
C1902 H1893 0.930 . S
C1902 C1900 1.384 . S
C1902 C1903 1.372 . S
C1903 C1902 1.372 . S
C1903 C1904 1.400 . S
C1903 C1908 1.490 . S
C1904 H1894 0.930 . S
C1904 C1903 1.400 . S
C1904 C1907 1.386 . S
H1905 C1921 0.930 . S
H1906 C1922 0.931 . S
C1907 H1895 0.929 . S
C1907 C1901 1.390 . S
C1907 C1904 1.386 . S
C1908 C1903 1.490 . S
C1908 C1910 1.395 . S
C1908 C1911 1.403 . S
H1909 C1915 0.930 . S
C1910 H1896 0.930 . S
C1910 C1908 1.395 . S
C1910 C1913 1.403 . S
C1911 C1908 1.403 . S
C1911 C1912 1.524 . S
C1911 C1915 1.400 . S
C1912 H1897 0.960 . S
C1912 H1898 0.960 . S
C1912 H1899 0.960 . S
C1912 C1911 1.524 . S
C1913 C1910 1.403 . S
C1913 C1914 1.392 . S
C1913 C1917 1.495 . S
C1914 C1913 1.392 . S
C1914 C1915 1.385 . S
C1914 C1916 1.478 . S
C1915 H1909 0.930 . S
C1915 C1911 1.400 . S
C1915 C1914 1.385 . S
C1916 C1914 1.478 . S
C1916 C1918 1.381 . S
C1916 C1922 1.383 . S
C1917 C1913 1.495 . S
C1917 H1923 0.959 . S
C1917 H1924 0.961 . S
C1917 H1925 0.960 . S
C1918 C1916 1.381 . S
C1918 C1919 1.394 . S
C1918 H1926 0.930 . S
C1919 C1918 1.394 . S
C1919 C1920 1.383 . S
C1919 H1927 0.929 . S
C1920 C1919 1.383 . S
C1920 C1921 1.377 . S
C1921 H1905 0.930 . S
C1921 C1920 1.377 . S
C1921 C1922 1.379 . S
C1922 H1906 0.931 . S
C1922 C1916 1.383 . S
C1922 C1921 1.379 . S
H1923 C1917 0.959 . S
H1924 C1917 0.961 . S
H1925 C1917 0.960 . S
H1926 C1918 0.930 . S
H1927 C1919 0.929 . S
H1928 C1936 0.929 . S
H1929 C1938 0.930 . S
H1930 C1940 0.930 . S
H1931 C1943 0.929 . S
H1932 C1946 0.930 . S
H1933 C1948 0.960 . S
H1934 C1948 0.960 . S
H1935 C1948 0.960 . S
C1936 H1928 0.929 . S
C1936 C1937 1.377 . S
C1936 C1938 1.384 . S
C1937 C1936 1.377 . S
C1937 C1943 1.390 1_545 S
C1938 H1929 0.930 . S
C1938 C1936 1.384 . S
C1938 C1939 1.372 . S
C1939 C1938 1.372 . S
C1939 C1940 1.400 1_545 S
C1939 C1944 1.490 . S
C1940 H1930 0.930 . S
C1940 C1939 1.400 1_565 S
C1940 C1943 1.386 . S
H1941 C1957 0.930 . S
H1942 C1958 0.931 . S
C1943 H1931 0.929 . S
C1943 C1937 1.390 1_565 S
C1943 C1940 1.386 . S
C1944 C1939 1.490 . S
C1944 C1946 1.395 1_545 S
C1944 C1947 1.403 . S
H1945 C1951 0.930 . S
C1946 H1932 0.930 . S
C1946 C1944 1.395 1_565 S
C1946 C1949 1.403 . S
C1947 C1944 1.403 . S
C1947 C1948 1.524 . S
C1947 C1951 1.400 . S
C1948 H1933 0.960 . S
C1948 H1934 0.960 . S
C1948 H1935 0.960 . S
C1948 C1947 1.524 . S
C1949 C1946 1.403 . S
C1949 C1950 1.392 1_565 S
C1949 C1953 1.495 . S
C1950 C1949 1.392 1_545 S
C1950 C1951 1.385 . S
C1950 C1952 1.478 . S
C1951 H1945 0.930 . S
C1951 C1947 1.400 . S
C1951 C1950 1.385 . S
C1952 C1950 1.478 . S
C1952 C1954 1.381 . S
C1952 C1958 1.383 1_545 S
C1953 C1949 1.495 . S
C1953 H1959 0.959 . S
C1953 H1960 0.961 . S
C1953 H1961 0.960 . S
C1954 C1952 1.381 . S
C1954 C1955 1.394 . S
C1954 H1962 0.930 . S
C1955 C1954 1.394 . S
C1955 C1956 1.383 . S
C1955 H1963 0.929 . S
C1956 C1955 1.383 . S
C1956 C1957 1.377 1_545 S
C1957 H1941 0.930 . S
C1957 C1956 1.377 1_565 S
C1957 C1958 1.379 . S
C1958 H1942 0.931 . S
C1958 C1952 1.383 1_565 S
C1958 C1957 1.379 . S
H1959 C1953 0.959 . S
H1960 C1953 0.961 . S
H1961 C1953 0.960 . S
H1962 C1954 0.930 . S
H1963 C1955 0.929 . S
H1964 C1972 0.929 . S
H1965 C1974 0.930 . S
H1966 C1976 0.930 . S
H1967 C1979 0.929 . S
H1968 C1982 0.930 . S
H1969 C1984 0.960 . S
H1970 C1984 0.960 . S
H1971 C1984 0.960 . S
C1972 H1964 0.929 . S
C1972 C1973 1.377 . S
C1972 C1974 1.384 . S
C1973 C1972 1.377 . S
C1973 C1979 1.390 . S
C1974 H1965 0.930 . S
C1974 C1972 1.384 . S
C1974 C1975 1.372 . S
C1975 C1974 1.372 . S
C1975 C1976 1.400 . S
C1975 C1980 1.490 . S
C1976 H1966 0.930 . S
C1976 C1975 1.400 . S
C1976 C1979 1.386 . S
H1977 C1993 0.930 . S
H1978 C1994 0.931 . S
C1979 H1967 0.929 . S
C1979 C1973 1.390 . S
C1979 C1976 1.386 . S
C1980 C1975 1.490 . S
C1980 C1982 1.395 . S
C1980 C1983 1.403 . S
H1981 C1987 0.930 . S
C1982 H1968 0.930 . S
C1982 C1980 1.395 . S
C1982 C1985 1.403 . S
C1983 C1980 1.403 . S
C1983 C1984 1.524 . S
C1983 C1987 1.400 . S
C1984 H1969 0.960 . S
C1984 H1970 0.960 . S
C1984 H1971 0.960 . S
C1984 C1983 1.524 . S
C1985 C1982 1.403 . S
C1985 C1986 1.392 . S
C1985 C1989 1.495 . S
C1986 C1985 1.392 . S
C1986 C1987 1.385 . S
C1986 C1988 1.478 . S
C1987 H1981 0.930 . S
C1987 C1983 1.400 . S
C1987 C1986 1.385 . S
C1988 C1986 1.478 . S
C1988 C1990 1.381 . S
C1988 C1994 1.383 . S
C1989 C1985 1.495 . S
C1989 H1995 0.959 . S
C1989 H1996 0.961 . S
C1989 H1997 0.960 . S
C1990 C1988 1.381 . S
C1990 C1991 1.394 . S
C1990 H1998 0.930 . S
C1991 C1990 1.394 . S
C1991 C1992 1.383 . S
C1991 H1999 0.929 . S
C1992 C1991 1.383 . S
C1992 C1993 1.377 . S
C1993 H1977 0.930 . S
C1993 C1992 1.377 . S
C1993 C1994 1.379 . S
C1994 H1978 0.931 . S
C1994 C1988 1.383 . S
C1994 C1993 1.379 . S
H1995 C1989 0.959 . S
H1996 C1989 0.961 . S
H1997 C1989 0.960 . S
H1998 C1990 0.930 . S
H1999 C1991 0.929 . S
H2000 C2008 0.929 . S
H2001 C2010 0.930 . S
H2002 C2012 0.930 . S
H2003 C2015 0.929 . S
H2004 C2018 0.930 . S
H2005 C2020 0.960 . S
H2006 C2020 0.960 . S
H2007 C2020 0.960 . S
C2008 H2000 0.929 . S
C2008 C2009 1.377 . S
C2008 C2010 1.384 . S
C2009 C2008 1.377 . S
C2009 C2015 1.390 . S
C2010 H2001 0.930 . S
C2010 C2008 1.384 . S
C2010 C2011 1.372 . S
C2011 C2010 1.372 . S
C2011 C2012 1.400 . S
C2011 C2016 1.490 . S
C2012 H2002 0.930 . S
C2012 C2011 1.400 . S
C2012 C2015 1.386 . S
H2013 C2029 0.910 1_565 S
H2014 C2030 0.931 1_565 S
C2015 H2003 0.929 . S
C2015 C2009 1.390 . S
C2015 C2012 1.386 . S
C2016 C2011 1.490 . S
C2016 C2018 1.395 . S
C2016 C2019 1.403 . S
H2017 C2023 0.930 . S
C2018 H2004 0.930 . S
C2018 C2016 1.395 . S
C2018 C2021 1.403 . S
C2019 C2016 1.403 . S
C2019 C2020 1.524 . S
C2019 C2023 1.400 . S
C2020 H2005 0.960 . S
C2020 H2006 0.960 . S
C2020 H2007 0.960 . S
C2020 C2019 1.524 . S
C2021 C2018 1.403 . S
C2021 C2022 1.392 . S
C2021 C2025 1.495 . S
C2022 C2021 1.392 . S
C2022 C2023 1.385 . S
C2022 C2024 1.478 . S
C2023 H2017 0.930 . S
C2023 C2019 1.400 . S
C2023 C2022 1.385 . S
C2024 C2022 1.478 . S
C2024 C2026 1.381 . S
C2024 C2030 1.383 . S
C2025 C2021 1.495 . S
C2025 H2031 0.959 . S
C2025 H2032 0.961 1_545 S
C2025 H2033 0.960 . S
C2026 C2024 1.381 . S
C2026 C2027 1.394 . S
C2026 H2034 0.930 . S
C2027 C2026 1.394 . S
C2027 C2028 1.383 . S
C2027 H2035 0.929 . S
C2028 C2027 1.383 . S
C2028 C2029 1.395 . S
C2029 H2013 0.910 1_545 S
C2029 C2028 1.395 . S
C2029 C2030 1.382 . S
C2030 H2014 0.931 1_545 S
C2030 C2024 1.383 . S
C2030 C2029 1.382 . S
H2031 C2025 0.959 . S
H2032 C2025 0.961 1_565 S
H2033 C2025 0.960 . S
H2034 C2026 0.930 . S
H2035 C2027 0.929 . S
H2036 C2044 0.929 . S
H2037 C2046 0.930 . S
H2038 C2048 0.930 . S
H2039 C2051 0.929 . S
H2040 C2054 0.930 . S
H2041 C2056 0.960 . S
H2042 C2056 0.960 . S
H2043 C2056 0.960 . S
C2044 H2036 0.929 . S
C2044 C2045 1.377 . S
C2044 C2046 1.384 . S
C2045 C2044 1.377 . S
C2045 C2051 1.390 . S
C2046 H2037 0.930 . S
C2046 C2044 1.384 . S
C2046 C2047 1.372 . S
C2047 C2046 1.372 . S
C2047 C2048 1.400 . S
C2047 C2052 1.490 . S
C2048 H2038 0.930 . S
C2048 C2047 1.400 . S
C2048 C2051 1.386 . S
H2049 C2065 0.930 . S
H2050 C2066 0.931 . S
C2051 H2039 0.929 . S
C2051 C2045 1.390 . S
C2051 C2048 1.386 . S
C2052 C2047 1.490 . S
C2052 C2054 1.395 . S
C2052 C2055 1.403 . S
H2053 C2059 0.930 . S
C2054 H2040 0.930 . S
C2054 C2052 1.395 . S
C2054 C2057 1.403 . S
C2055 C2052 1.403 . S
C2055 C2056 1.524 . S
C2055 C2059 1.400 . S
C2056 H2041 0.960 . S
C2056 H2042 0.960 . S
C2056 H2043 0.960 . S
C2056 C2055 1.524 . S
C2057 C2054 1.403 . S
C2057 C2058 1.392 . S
C2057 C2061 1.495 . S
C2058 C2057 1.392 . S
C2058 C2059 1.385 . S
C2058 C2060 1.478 . S
C2059 H2053 0.930 . S
C2059 C2055 1.400 . S
C2059 C2058 1.385 . S
C2060 C2058 1.478 . S
C2060 C2062 1.381 . S
C2060 C2066 1.383 . S
C2061 C2057 1.495 . S
C2061 H2067 0.959 . S
C2061 H2068 0.961 . S
C2061 H2069 0.960 . S
C2062 C2060 1.381 . S
C2062 C2063 1.394 . S
C2062 H2070 0.930 . S
C2063 C2062 1.394 . S
C2063 C2064 1.383 . S
C2063 H2071 0.929 . S
C2064 C2063 1.383 . S
C2064 C2065 1.377 . S
C2065 H2049 0.930 . S
C2065 C2064 1.377 . S
C2065 C2066 1.379 . S
C2066 H2050 0.931 . S
C2066 C2060 1.383 . S
C2066 C2065 1.379 . S
H2067 C2061 0.959 . S
H2068 C2061 0.961 . S
H2069 C2061 0.960 . S
H2070 C2062 0.930 . S
H2071 C2063 0.929 . S
H2072 C2080 0.929 . S
H2073 C2082 0.930 . S
H2074 C2084 0.930 1_556 S
H2075 C2087 0.929 1_556 S
H2076 C2090 0.930 . S
H2077 C2092 0.960 . S
H2078 C2092 0.960 . S
H2079 C2092 0.960 1_556 S
C2080 H2072 0.929 . S
C2080 C2081 1.377 . S
C2080 C2082 1.384 . S
C2081 C2080 1.377 . S
C2081 C2087 1.390 . S
C2082 H2073 0.930 . S
C2082 C2080 1.384 . S
C2082 C2083 1.372 . S
C2083 C2082 1.372 . S
C2083 C2084 1.400 . S
C2083 C2088 1.490 . S
C2084 H2074 0.930 1_554 S
C2084 C2083 1.400 . S
C2084 C2087 1.386 . S
H2085 C2101 0.930 1_556 S
H2086 C2102 0.931 1_556 S
C2087 H2075 0.929 1_554 S
C2087 C2081 1.390 . S
C2087 C2084 1.386 . S
C2088 C2083 1.490 . S
C2088 C2090 1.395 . S
C2088 C2091 1.403 . S
H2089 C2095 0.930 . S
C2090 H2076 0.930 . S
C2090 C2088 1.395 . S
C2090 C2093 1.403 . S
C2091 C2088 1.403 . S
C2091 C2092 1.524 . S
C2091 C2095 1.400 . S
C2092 H2077 0.960 . S
C2092 H2078 0.960 . S
C2092 H2079 0.960 1_554 S
C2092 C2091 1.524 . S
C2093 C2090 1.403 . S
C2093 C2094 1.392 . S
C2093 C2097 1.495 . S
C2094 C2093 1.392 . S
C2094 C2095 1.385 . S
C2094 C2096 1.478 . S
C2095 H2089 0.930 . S
C2095 C2091 1.400 . S
C2095 C2094 1.385 . S
C2096 C2094 1.478 . S
C2096 C2098 1.381 . S
C2096 C2102 1.383 . S
C2097 C2093 1.495 . S
C2097 H2103 0.959 . S
C2097 H2104 0.961 . S
C2097 H2105 0.960 . S
C2098 C2096 1.381 . S
C2098 C2099 1.394 . S
C2098 H2106 0.930 . S
C2099 C2098 1.394 . S
C2099 C2100 1.383 . S
C2099 H2107 0.929 . S
C2100 C2099 1.383 . S
C2100 C2101 1.377 . S
C2101 H2085 0.930 1_554 S
C2101 C2100 1.377 . S
C2101 C2102 1.379 . S
C2102 H2086 0.931 1_554 S
C2102 C2096 1.383 . S
C2102 C2101 1.379 . S
H2103 C2097 0.959 . S
H2104 C2097 0.961 . S
H2105 C2097 0.960 . S
H2106 C2098 0.930 . S
H2107 C2099 0.929 . S
H2108 C2116 0.929 . S
H2109 C2118 0.930 . S
H2110 C2120 0.930 . S
H2111 C2123 0.929 . S
H2112 C2126 0.930 . S
H2113 C2128 0.960 1_556 S
H2114 C2128 0.960 . S
H2115 C2128 0.960 1_556 S
C2116 H2108 0.929 . S
C2116 C2117 1.377 . S
C2116 C2118 1.384 . S
C2117 C2116 1.377 . S
C2117 C2123 1.390 . S
C2118 H2109 0.930 . S
C2118 C2116 1.384 . S
C2118 C2119 1.372 . S
C2119 C2118 1.372 . S
C2119 C2120 1.400 . S
C2119 C2124 1.490 . S
C2120 H2110 0.930 . S
C2120 C2119 1.400 . S
C2120 C2123 1.386 . S
H2121 C2137 0.930 1_556 S
H2122 C2138 0.931 1_556 S
C2123 H2111 0.929 . S
C2123 C2117 1.390 . S
C2123 C2120 1.386 . S
C2124 C2119 1.490 . S
C2124 C2126 1.395 . S
C2124 C2127 1.403 . S
H2125 C2131 0.930 . S
C2126 H2112 0.930 . S
C2126 C2124 1.395 . S
C2126 C2129 1.403 . S
C2127 C2124 1.403 . S
C2127 C2128 1.524 . S
C2127 C2131 1.400 . S
C2128 H2113 0.960 1_554 S
C2128 H2114 0.960 . S
C2128 H2115 0.960 1_554 S
C2128 C2127 1.524 . S
C2129 C2126 1.403 . S
C2129 C2130 1.392 . S
C2129 C2133 1.495 . S
C2130 C2129 1.392 . S
C2130 C2131 1.385 . S
C2130 C2132 1.478 . S
C2131 H2125 0.930 . S
C2131 C2127 1.400 . S
C2131 C2130 1.385 . S
C2132 C2130 1.478 . S
C2132 C2134 1.381 . S
C2132 C2138 1.383 . S
C2133 C2129 1.495 . S
C2133 H2139 0.959 . S
C2133 H2140 0.961 . S
C2133 H2141 0.960 . S
C2134 C2132 1.381 . S
C2134 C2135 1.394 . S
C2134 H2142 0.930 . S
C2135 C2134 1.394 . S
C2135 C2136 1.383 . S
C2135 H2143 0.929 . S
C2136 C2135 1.383 . S
C2136 C2137 1.377 . S
C2137 H2121 0.930 1_554 S
C2137 C2136 1.377 . S
C2137 C2138 1.379 . S
C2138 H2122 0.931 1_554 S
C2138 C2132 1.383 . S
C2138 C2137 1.379 . S
H2139 C2133 0.959 . S
H2140 C2133 0.961 . S
H2141 C2133 0.960 . S
H2142 C2134 0.930 . S
H2143 C2135 0.929 . S
H2144 C2152 0.929 . S
H2145 C2154 0.930 . S
H2146 C2156 0.930 . S
H2147 C2159 0.929 . S
H2148 C2162 0.930 . S
H2149 C2164 0.960 . S
H2150 C2164 0.960 . S
H2151 C2164 0.960 . S
C2152 H2144 0.929 . S
C2152 C2153 1.377 . S
C2152 C2154 1.384 . S
C2153 C2152 1.377 . S
C2153 C2159 1.390 . S
C2154 H2145 0.930 . S
C2154 C2152 1.384 . S
C2154 C2155 1.372 . S
C2155 C2154 1.372 . S
C2155 C2156 1.400 . S
C2155 C2160 1.490 . S
C2156 H2146 0.930 . S
C2156 C2155 1.400 . S
C2156 C2159 1.386 . S
H2157 C2173 0.930 . S
H2158 C2174 0.931 . S
C2159 H2147 0.929 . S
C2159 C2153 1.390 . S
C2159 C2156 1.386 . S
C2160 C2155 1.490 . S
C2160 C2162 1.395 . S
C2160 C2163 1.403 . S
H2161 C2167 0.930 . S
C2162 H2148 0.930 . S
C2162 C2160 1.395 . S
C2162 C2165 1.403 . S
C2163 C2160 1.403 . S
C2163 C2164 1.524 . S
C2163 C2167 1.400 . S
C2164 H2149 0.960 . S
C2164 H2150 0.960 . S
C2164 H2151 0.960 . S
C2164 C2163 1.524 . S
C2165 C2162 1.403 . S
C2165 C2166 1.392 . S
C2165 C2169 1.495 . S
C2166 C2165 1.392 . S
C2166 C2167 1.385 . S
C2166 C2168 1.478 . S
C2167 H2161 0.930 . S
C2167 C2163 1.400 . S
C2167 C2166 1.385 . S
C2168 C2166 1.478 . S
C2168 C2170 1.381 . S
C2168 C2174 1.383 . S
C2169 C2165 1.495 . S
C2169 H2175 0.959 . S
C2169 H2176 0.961 . S
C2169 H2177 0.960 . S
C2170 C2168 1.381 . S
C2170 C2171 1.394 . S
C2170 H2178 0.930 . S
C2171 C2170 1.394 . S
C2171 C2172 1.383 . S
C2171 H2179 0.929 . S
C2172 C2171 1.383 . S
C2172 C2173 1.377 . S
C2173 H2157 0.930 . S
C2173 C2172 1.377 . S
C2173 C2174 1.379 . S
C2174 H2158 0.931 . S
C2174 C2168 1.383 . S
C2174 C2173 1.379 . S
H2175 C2169 0.959 . S
H2176 C2169 0.961 . S
H2177 C2169 0.960 . S
H2178 C2170 0.930 . S
H2179 C2171 0.929 . S
H2180 C2188 0.929 . S
H2181 C2190 0.930 . S
H2182 C2192 0.930 . S
H2183 C2195 0.929 . S
H2184 C2198 0.930 . S
H2185 C2200 0.960 . S
H2186 C2200 0.960 . S
H2187 C2200 0.960 . S
C2188 H2180 0.929 . S
C2188 C2189 1.377 . S
C2188 C2190 1.384 . S
C2189 C2188 1.377 . S
C2189 C2195 1.390 . S
C2190 H2181 0.930 . S
C2190 C2188 1.384 . S
C2190 C2191 1.372 . S
C2191 C2190 1.372 . S
C2191 C2192 1.400 . S
C2191 C2196 1.490 . S
C2192 H2182 0.930 . S
C2192 C2191 1.400 . S
C2192 C2195 1.386 . S
H2193 C2209 0.930 . S
H2194 C2210 0.931 . S
C2195 H2183 0.929 . S
C2195 C2189 1.390 . S
C2195 C2192 1.386 . S
C2196 C2191 1.490 . S
C2196 C2198 1.395 . S
C2196 C2199 1.403 . S
H2197 C2203 0.930 . S
C2198 H2184 0.930 . S
C2198 C2196 1.395 . S
C2198 C2201 1.403 . S
C2199 C2196 1.403 . S
C2199 C2200 1.524 . S
C2199 C2203 1.400 . S
C2200 H2185 0.960 . S
C2200 H2186 0.960 . S
C2200 H2187 0.960 . S
C2200 C2199 1.524 . S
C2201 C2198 1.403 . S
C2201 C2202 1.392 . S
C2201 C2205 1.495 . S
C2202 C2201 1.392 . S
C2202 C2203 1.385 . S
C2202 C2204 1.478 . S
C2203 H2197 0.930 . S
C2203 C2199 1.400 . S
C2203 C2202 1.385 . S
C2204 C2202 1.478 . S
C2204 C2206 1.381 . S
C2204 C2210 1.383 . S
C2205 C2201 1.495 . S
C2205 H2211 0.959 . S
C2205 H2212 0.961 . S
C2205 H2213 0.960 . S
C2206 C2204 1.381 . S
C2206 C2207 1.394 . S
C2206 H2214 0.930 . S
C2207 C2206 1.394 . S
C2207 C2208 1.383 . S
C2207 H2215 0.929 . S
C2208 C2207 1.383 . S
C2208 C2209 1.377 . S
C2209 H2193 0.930 . S
C2209 C2208 1.377 . S
C2209 C2210 1.379 . S
C2210 H2194 0.931 . S
C2210 C2204 1.383 . S
C2210 C2209 1.379 . S
H2211 C2205 0.959 . S
H2212 C2205 0.961 . S
H2213 C2205 0.960 . S
H2214 C2206 0.930 . S
H2215 C2207 0.929 . S
H2216 C2224 0.929 . S
H2217 C2226 0.930 . S
H2218 C2228 0.930 . S
H2219 C2231 0.929 . S
H2220 C2234 0.930 . S
H2221 C2236 0.960 . S
H2222 C2236 0.960 . S
H2223 C2236 0.960 . S
C2224 H2216 0.929 . S
C2224 C2225 1.377 . S
C2224 C2226 1.384 . S
C2225 C2224 1.377 . S
C2225 C2231 1.390 . S
C2226 H2217 0.930 . S
C2226 C2224 1.384 . S
C2226 C2227 1.372 . S
C2227 C2226 1.372 . S
C2227 C2228 1.400 . S
C2227 C2232 1.490 . S
C2228 H2218 0.930 . S
C2228 C2227 1.400 . S
C2228 C2231 1.386 . S
H2229 C2245 0.930 . S
H2230 C2246 0.931 . S
C2231 H2219 0.929 . S
C2231 C2225 1.390 . S
C2231 C2228 1.386 . S
C2232 C2227 1.490 . S
C2232 C2234 1.395 . S
C2232 C2235 1.403 . S
H2233 C2239 0.930 . S
C2234 H2220 0.930 . S
C2234 C2232 1.395 . S
C2234 C2237 1.403 . S
C2235 C2232 1.403 . S
C2235 C2236 1.524 . S
C2235 C2239 1.400 . S
C2236 H2221 0.960 . S
C2236 H2222 0.960 . S
C2236 H2223 0.960 . S
C2236 C2235 1.524 . S
C2237 C2234 1.403 . S
C2237 C2238 1.392 . S
C2237 C2241 1.495 . S
C2238 C2237 1.392 . S
C2238 C2239 1.385 . S
C2238 C2240 1.478 . S
C2239 H2233 0.930 . S
C2239 C2235 1.400 . S
C2239 C2238 1.385 . S
C2240 C2238 1.478 . S
C2240 C2242 1.381 . S
C2240 C2246 1.383 . S
C2241 C2237 1.495 . S
C2241 H2247 0.959 . S
C2241 H2248 0.961 . S
C2241 H2249 0.960 . S
C2242 C2240 1.381 . S
C2242 C2243 1.394 . S
C2242 H2250 0.930 . S
C2243 C2242 1.394 . S
C2243 C2244 1.383 . S
C2243 H2251 0.929 . S
C2244 C2243 1.383 . S
C2244 C2245 1.377 . S
C2245 H2229 0.930 . S
C2245 C2244 1.377 . S
C2245 C2246 1.379 . S
C2246 H2230 0.931 . S
C2246 C2240 1.383 . S
C2246 C2245 1.379 . S
H2247 C2241 0.959 . S
H2248 C2241 0.961 . S
H2249 C2241 0.960 . S
H2250 C2242 0.930 . S
H2251 C2243 0.929 . S
H2252 C2260 0.929 . S
H2253 C2262 0.930 . S
H2254 C2264 0.930 . S
H2255 C2267 0.929 . S
H2256 C2270 0.930 . S
H2257 C2272 0.960 . S
H2258 C2272 0.960 . S
H2259 C2272 0.960 . S
C2260 H2252 0.929 . S
C2260 C2261 1.377 . S
C2260 C2262 1.384 . S
C2261 C2260 1.377 . S
C2261 C2267 1.390 . S
C2262 H2253 0.930 . S
C2262 C2260 1.384 . S
C2262 C2263 1.372 . S
C2263 C2262 1.372 . S
C2263 C2264 1.400 . S
C2263 C2268 1.490 . S
C2264 H2254 0.930 . S
C2264 C2263 1.400 . S
C2264 C2267 1.386 . S
H2265 C2281 0.930 . S
H2266 C2282 0.931 . S
C2267 H2255 0.929 . S
C2267 C2261 1.390 . S
C2267 C2264 1.386 . S
C2268 C2263 1.490 . S
C2268 C2270 1.395 . S
C2268 C2271 1.403 . S
H2269 C2275 0.930 . S
C2270 H2256 0.930 . S
C2270 C2268 1.395 . S
C2270 C2273 1.403 . S
C2271 C2268 1.403 . S
C2271 C2272 1.524 . S
C2271 C2275 1.400 . S
C2272 H2257 0.960 . S
C2272 H2258 0.960 . S
C2272 H2259 0.960 . S
C2272 C2271 1.524 . S
C2273 C2270 1.403 . S
C2273 C2274 1.392 . S
C2273 C2277 1.495 . S
C2274 C2273 1.392 . S
C2274 C2275 1.385 . S
C2274 C2276 1.478 . S
C2275 H2269 0.930 . S
C2275 C2271 1.400 . S
C2275 C2274 1.385 . S
C2276 C2274 1.478 . S
C2276 C2278 1.381 . S
C2276 C2282 1.383 . S
C2277 C2273 1.495 . S
C2277 H2283 0.959 . S
C2277 H2284 0.961 . S
C2277 H2285 0.960 . S
C2278 C2276 1.381 . S
C2278 C2279 1.394 . S
C2278 H2286 0.930 . S
C2279 C2278 1.394 . S
C2279 C2280 1.383 . S
C2279 H2287 0.929 . S
C2280 C2279 1.383 . S
C2280 C2281 1.377 . S
C2281 H2265 0.930 . S
C2281 C2280 1.377 . S
C2281 C2282 1.379 . S
C2282 H2266 0.931 . S
C2282 C2276 1.383 . S
C2282 C2281 1.379 . S
H2283 C2277 0.959 . S
H2284 C2277 0.961 . S
H2285 C2277 0.960 . S
H2286 C2278 0.930 . S
H2287 C2279 0.929 . S
H2288 C2296 0.929 . S
H2289 C2298 0.930 . S
H2290 C2300 0.930 . S
H2291 C2303 0.929 . S
H2292 C2306 0.930 . S
H2293 C2308 0.960 . S
H2294 C2308 0.960 . S
H2295 C2308 0.960 . S
C2296 H2288 0.929 . S
C2296 C2297 1.377 . S
C2296 C2298 1.384 . S
C2297 C2296 1.377 . S
C2297 C2303 1.390 . S
C2298 H2289 0.930 . S
C2298 C2296 1.384 . S
C2298 C2299 1.372 . S
C2299 C2298 1.372 . S
C2299 C2300 1.400 . S
C2299 C2304 1.490 . S
C2300 H2290 0.930 . S
C2300 C2299 1.400 . S
C2300 C2303 1.386 . S
H2301 C2317 0.930 . S
H2302 C2318 0.931 . S
C2303 H2291 0.929 . S
C2303 C2297 1.390 . S
C2303 C2300 1.386 . S
C2304 C2299 1.490 . S
C2304 C2306 1.395 . S
C2304 C2307 1.403 . S
H2305 C2311 0.930 . S
C2306 H2292 0.930 . S
C2306 C2304 1.395 . S
C2306 C2309 1.403 . S
C2307 C2304 1.403 . S
C2307 C2308 1.524 . S
C2307 C2311 1.400 . S
C2308 H2293 0.960 . S
C2308 H2294 0.960 . S
C2308 H2295 0.960 . S
C2308 C2307 1.524 . S
C2309 C2306 1.403 . S
C2309 C2310 1.392 . S
C2309 C2313 1.495 . S
C2310 C2309 1.392 . S
C2310 C2311 1.385 . S
C2310 C2312 1.478 . S
C2311 H2305 0.930 . S
C2311 C2307 1.400 . S
C2311 C2310 1.385 . S
C2312 C2310 1.478 . S
C2312 C2314 1.381 . S
C2312 C2318 1.383 . S
C2313 C2309 1.495 . S
C2313 H2319 0.959 . S
C2313 H2320 0.961 . S
C2313 H2321 0.960 . S
C2314 C2312 1.381 . S
C2314 C2315 1.394 . S
C2314 H2322 0.930 . S
C2315 C2314 1.394 . S
C2315 C2316 1.383 . S
C2315 H2323 0.929 . S
C2316 C2315 1.383 . S
C2316 C2317 1.377 . S
C2317 H2301 0.930 . S
C2317 C2316 1.377 . S
C2317 C2318 1.379 . S
C2318 H2302 0.931 . S
C2318 C2312 1.383 . S
C2318 C2317 1.379 . S
H2319 C2313 0.959 . S
H2320 C2313 0.961 . S
H2321 C2313 0.960 . S
H2322 C2314 0.930 . S
H2323 C2315 0.929 . S
H2324 C2332 0.929 . S
H2325 C2334 0.930 . S
H2326 C2336 0.930 . S
H2327 C2339 0.929 . S
H2328 C2342 0.930 . S
H2329 C2344 0.960 . S
H2330 C2344 0.960 . S
H2331 C2344 0.960 . S
C2332 H2324 0.929 . S
C2332 C2333 1.377 . S
C2332 C2334 1.384 . S
C2333 C2332 1.377 . S
C2333 C2339 1.390 . S
C2334 H2325 0.930 . S
C2334 C2332 1.384 . S
C2334 C2335 1.372 . S
C2335 C2334 1.372 . S
C2335 C2336 1.400 . S
C2335 C2340 1.490 . S
C2336 H2326 0.930 . S
C2336 C2335 1.400 . S
C2336 C2339 1.386 . S
H2337 C2353 0.930 . S
H2338 C2354 0.931 . S
C2339 H2327 0.929 . S
C2339 C2333 1.390 . S
C2339 C2336 1.386 . S
C2340 C2335 1.490 . S
C2340 C2342 1.395 . S
C2340 C2343 1.403 . S
H2341 C2347 0.930 . S
C2342 H2328 0.930 . S
C2342 C2340 1.395 . S
C2342 C2345 1.403 . S
C2343 C2340 1.403 . S
C2343 C2344 1.524 . S
C2343 C2347 1.400 . S
C2344 H2329 0.960 . S
C2344 H2330 0.960 . S
C2344 H2331 0.960 . S
C2344 C2343 1.524 . S
C2345 C2342 1.403 . S
C2345 C2346 1.392 . S
C2345 C2349 1.495 . S
C2346 C2345 1.392 . S
C2346 C2347 1.385 . S
C2346 C2348 1.478 . S
C2347 H2341 0.930 . S
C2347 C2343 1.400 . S
C2347 C2346 1.385 . S
C2348 C2346 1.478 . S
C2348 C2350 1.381 . S
C2348 C2354 1.383 . S
C2349 C2345 1.495 . S
C2349 H2355 0.959 . S
C2349 H2356 0.961 . S
C2349 H2357 0.960 . S
C2350 C2348 1.381 . S
C2350 C2351 1.394 . S
C2350 H2358 0.930 . S
C2351 C2350 1.394 . S
C2351 C2352 1.383 . S
C2351 H2359 0.929 . S
C2352 C2351 1.383 . S
C2352 C2353 1.377 . S
C2353 H2337 0.930 . S
C2353 C2352 1.377 . S
C2353 C2354 1.379 . S
C2354 H2338 0.931 . S
C2354 C2348 1.383 . S
C2354 C2353 1.379 . S
H2355 C2349 0.959 . S
H2356 C2349 0.961 . S
H2357 C2349 0.960 . S
H2358 C2350 0.930 . S
H2359 C2351 0.929 . S
H2360 C2368 0.929 . S
H2361 C2370 0.930 . S
H2362 C2372 0.930 . S
H2363 C2375 0.929 . S
H2364 C2378 0.930 . S
H2365 C2380 0.960 . S
H2366 C2380 0.960 . S
H2367 C2380 0.960 . S
C2368 H2360 0.929 . S
C2368 C2369 1.377 . S
C2368 C2370 1.384 . S
C2369 C2368 1.377 . S
C2369 C2375 1.390 . S
C2370 H2361 0.930 . S
C2370 C2368 1.384 . S
C2370 C2371 1.372 . S
C2371 C2370 1.372 . S
C2371 C2372 1.400 . S
C2371 C2376 1.490 . S
C2372 H2362 0.930 . S
C2372 C2371 1.400 . S
C2372 C2375 1.386 . S
H2373 C2389 0.930 . S
H2374 C2390 0.931 . S
C2375 H2363 0.929 . S
C2375 C2369 1.390 . S
C2375 C2372 1.386 . S
C2376 C2371 1.490 . S
C2376 C2378 1.395 . S
C2376 C2379 1.403 . S
H2377 C2383 0.930 . S
C2378 H2364 0.930 . S
C2378 C2376 1.395 . S
C2378 C2381 1.403 . S
C2379 C2376 1.403 . S
C2379 C2380 1.524 . S
C2379 C2383 1.400 . S
C2380 H2365 0.960 . S
C2380 H2366 0.960 . S
C2380 H2367 0.960 . S
C2380 C2379 1.524 . S
C2381 C2378 1.403 . S
C2381 C2382 1.392 . S
C2381 C2385 1.495 . S
C2382 C2381 1.392 . S
C2382 C2383 1.385 . S
C2382 C2384 1.478 . S
C2383 H2377 0.930 . S
C2383 C2379 1.400 . S
C2383 C2382 1.385 . S
C2384 C2382 1.478 . S
C2384 C2386 1.381 . S
C2384 C2390 1.383 . S
C2385 C2381 1.495 . S
C2385 H2391 0.959 . S
C2385 H2392 0.961 . S
C2385 H2393 0.960 . S
C2386 C2384 1.381 . S
C2386 C2387 1.394 . S
C2386 H2394 0.930 . S
C2387 C2386 1.394 . S
C2387 C2388 1.383 . S
C2387 H2395 0.929 . S
C2388 C2387 1.383 . S
C2388 C2389 1.377 . S
C2389 H2373 0.930 . S
C2389 C2388 1.377 . S
C2389 C2390 1.379 . S
C2390 H2374 0.931 . S
C2390 C2384 1.383 . S
C2390 C2389 1.379 . S
H2391 C2385 0.959 . S
H2392 C2385 0.961 . S
H2393 C2385 0.960 . S
H2394 C2386 0.930 . S
H2395 C2387 0.929 . S
H2396 C2404 0.929 . S
H2397 C2406 0.930 . S
H2398 C2408 0.930 . S
H2399 C2411 0.929 . S
H2400 C2414 0.930 . S
H2401 C2416 0.960 . S
H2402 C2416 0.960 . S
H2403 C2416 0.960 . S
C2404 H2396 0.929 . S
C2404 C2405 1.377 . S
C2404 C2406 1.384 . S
C2405 C2404 1.377 . S
C2405 C2411 1.390 . S
C2406 H2397 0.930 . S
C2406 C2404 1.384 . S
C2406 C2407 1.372 . S
C2407 C2406 1.372 . S
C2407 C2408 1.400 . S
C2407 C2412 1.490 . S
C2408 H2398 0.930 . S
C2408 C2407 1.400 . S
C2408 C2411 1.386 . S
H2409 C2425 0.930 . S
H2410 C2426 0.931 . S
C2411 H2399 0.929 . S
C2411 C2405 1.390 . S
C2411 C2408 1.386 . S
C2412 C2407 1.490 . S
C2412 C2414 1.395 . S
C2412 C2415 1.403 . S
H2413 C2419 0.930 . S
C2414 H2400 0.930 . S
C2414 C2412 1.395 . S
C2414 C2417 1.403 . S
C2415 C2412 1.403 . S
C2415 C2416 1.524 . S
C2415 C2419 1.400 . S
C2416 H2401 0.960 . S
C2416 H2402 0.960 . S
C2416 H2403 0.960 . S
C2416 C2415 1.524 . S
C2417 C2414 1.403 . S
C2417 C2418 1.392 . S
C2417 C2421 1.495 . S
C2418 C2417 1.392 . S
C2418 C2419 1.385 . S
C2418 C2420 1.478 . S
C2419 H2413 0.930 . S
C2419 C2415 1.400 . S
C2419 C2418 1.385 . S
C2420 C2418 1.478 . S
C2420 C2422 1.381 . S
C2420 C2426 1.383 . S
C2421 C2417 1.495 . S
C2421 H2427 0.959 . S
C2421 H2428 0.961 . S
C2421 H2429 0.960 . S
C2422 C2420 1.381 . S
C2422 C2423 1.394 . S
C2422 H2430 0.930 . S
C2423 C2422 1.394 . S
C2423 C2424 1.383 . S
C2423 H2431 0.929 . S
C2424 C2423 1.383 . S
C2424 C2425 1.377 . S
C2425 H2409 0.930 . S
C2425 C2424 1.377 . S
C2425 C2426 1.379 . S
C2426 H2410 0.931 . S
C2426 C2420 1.383 . S
C2426 C2425 1.379 . S
H2427 C2421 0.959 . S
H2428 C2421 0.961 . S
H2429 C2421 0.960 . S
H2430 C2422 0.930 . S
H2431 C2423 0.929 . S
H2432 C2440 0.929 . S
H2433 C2442 0.930 . S
H2434 C2444 0.930 . S
H2435 C2447 0.929 . S
H2436 C2450 0.930 . S
H2437 C2452 0.960 . S
H2438 C2452 0.960 . S
H2439 C2452 0.960 . S
C2440 H2432 0.929 . S
C2440 C2441 1.377 . S
C2440 C2442 1.384 . S
C2441 C2440 1.377 . S
C2441 C2447 1.390 . S
C2442 H2433 0.930 . S
C2442 C2440 1.384 . S
C2442 C2443 1.372 . S
C2443 C2442 1.372 . S
C2443 C2444 1.400 . S
C2443 C2448 1.490 . S
C2444 H2434 0.930 . S
C2444 C2443 1.400 . S
C2444 C2447 1.386 . S
H2445 C2461 0.930 . S
H2446 C2462 0.931 . S
C2447 H2435 0.929 . S
C2447 C2441 1.390 . S
C2447 C2444 1.386 . S
C2448 C2443 1.490 . S
C2448 C2450 1.395 . S
C2448 C2451 1.403 1_455 S
H2449 C2455 0.930 . S
C2450 H2436 0.930 . S
C2450 C2448 1.395 . S
C2450 C2453 1.403 . S
C2451 C2448 1.403 1_655 S
C2451 C2452 1.524 . S
C2451 C2455 1.400 . S
C2452 H2437 0.960 . S
C2452 H2438 0.960 . S
C2452 H2439 0.960 . S
C2452 C2451 1.524 . S
C2453 C2450 1.403 . S
C2453 C2454 1.392 . S
C2453 C2457 1.495 . S
C2454 C2453 1.392 . S
C2454 C2455 1.385 1_455 S
C2454 C2456 1.478 . S
C2455 H2449 0.930 . S
C2455 C2451 1.400 . S
C2455 C2454 1.385 1_655 S
C2456 C2454 1.478 . S
C2456 C2458 1.381 1_556 S
C2456 C2462 1.383 . S
C2457 C2453 1.495 . S
C2457 H2463 0.959 . S
C2457 H2464 0.961 . S
C2457 H2465 0.960 1_556 S
C2458 C2456 1.381 1_554 S
C2458 C2459 1.394 . S
C2458 H2466 0.930 . S
C2459 C2458 1.394 . S
C2459 C2460 1.383 . S
C2459 H2467 0.930 1_455 S
C2460 C2459 1.383 . S
C2460 C2461 1.377 1_554 S
C2461 H2445 0.930 . S
C2461 C2460 1.377 1_556 S
C2461 C2462 1.379 . S
C2462 H2446 0.931 . S
C2462 C2456 1.383 . S
C2462 C2461 1.379 . S
H2463 C2457 0.959 . S
H2464 C2457 0.961 . S
H2465 C2457 0.960 1_554 S
H2466 C2458 0.930 . S
H2467 C2459 0.930 1_655 S
H2468 C2476 0.929 . S
H2469 C2478 0.930 . S
H2470 C2480 0.930 . S
H2471 C2483 0.929 . S
H2472 C2486 0.930 . S
H2473 C2488 0.960 . S
H2474 C2488 0.960 . S
H2475 C2488 0.960 . S
C2476 H2468 0.929 . S
C2476 C2477 1.377 . S
C2476 C2478 1.384 . S
C2477 C2476 1.377 . S
C2477 C2483 1.390 . S
C2478 H2469 0.930 . S
C2478 C2476 1.384 . S
C2478 C2479 1.372 . S
C2479 C2478 1.372 . S
C2479 C2480 1.400 . S
C2479 C2484 1.490 . S
C2480 H2470 0.930 . S
C2480 C2479 1.400 . S
C2480 C2483 1.386 . S
H2481 C2497 0.930 . S
H2482 C2498 0.931 . S
C2483 H2471 0.929 . S
C2483 C2477 1.390 . S
C2483 C2480 1.386 . S
C2484 C2479 1.490 . S
C2484 C2486 1.395 . S
C2484 C2487 1.403 . S
H2485 C2491 0.930 . S
C2486 H2472 0.930 . S
C2486 C2484 1.395 . S
C2486 C2489 1.403 . S
C2487 C2484 1.403 . S
C2487 C2488 1.524 . S
C2487 C2491 1.400 . S
C2488 H2473 0.960 . S
C2488 H2474 0.960 . S
C2488 H2475 0.960 . S
C2488 C2487 1.524 . S
C2489 C2486 1.403 . S
C2489 C2490 1.392 . S
C2489 C2493 1.495 . S
C2490 C2489 1.392 . S
C2490 C2491 1.385 . S
C2490 C2492 1.478 . S
C2491 H2485 0.930 . S
C2491 C2487 1.400 . S
C2491 C2490 1.385 . S
C2492 C2490 1.478 . S
C2492 C2494 1.381 . S
C2492 C2498 1.383 . S
C2493 C2489 1.495 . S
C2493 H2499 0.959 . S
C2493 H2500 0.961 . S
C2493 H2501 0.960 . S
C2494 C2492 1.381 . S
C2494 C2495 1.394 . S
C2494 H2502 0.930 . S
C2495 C2494 1.394 . S
C2495 C2496 1.383 . S
C2495 H2503 0.929 . S
C2496 C2495 1.383 . S
C2496 C2497 1.377 . S
C2497 H2481 0.930 . S
C2497 C2496 1.377 . S
C2497 C2498 1.379 . S
C2498 H2482 0.931 . S
C2498 C2492 1.383 . S
C2498 C2497 1.379 . S
H2499 C2493 0.959 . S
H2500 C2493 0.961 . S
H2501 C2493 0.960 . S
H2502 C2494 0.930 . S
H2503 C2495 0.929 . S
H2504 C2512 0.929 . S
H2505 C2514 0.930 . S
H2506 C2516 0.930 . S
H2507 C2519 0.929 . S
H2508 C2522 0.930 . S
H2509 C2524 0.960 . S
H2510 C2524 0.960 . S
H2511 C2524 0.960 . S
C2512 H2504 0.929 . S
C2512 C2513 1.377 . S
C2512 C2514 1.384 . S
C2513 C2512 1.377 . S
C2513 C2519 1.390 . S
C2514 H2505 0.930 . S
C2514 C2512 1.384 . S
C2514 C2515 1.372 . S
C2515 C2514 1.372 . S
C2515 C2516 1.400 . S
C2515 C2520 1.490 . S
C2516 H2506 0.930 . S
C2516 C2515 1.400 . S
C2516 C2519 1.386 . S
H2517 C2533 0.930 . S
H2518 C2534 0.931 . S
C2519 H2507 0.929 . S
C2519 C2513 1.390 . S
C2519 C2516 1.386 . S
C2520 C2515 1.490 . S
C2520 C2522 1.395 . S
C2520 C2523 1.403 . S
H2521 C2527 0.930 . S
C2522 H2508 0.930 . S
C2522 C2520 1.395 . S
C2522 C2525 1.403 . S
C2523 C2520 1.403 . S
C2523 C2524 1.524 . S
C2523 C2527 1.400 . S
C2524 H2509 0.960 . S
C2524 H2510 0.960 . S
C2524 H2511 0.960 . S
C2524 C2523 1.524 . S
C2525 C2522 1.403 . S
C2525 C2526 1.392 . S
C2525 C2529 1.495 . S
C2526 C2525 1.392 . S
C2526 C2527 1.385 . S
C2526 C2528 1.478 . S
C2527 H2521 0.930 . S
C2527 C2523 1.400 . S
C2527 C2526 1.385 . S
C2528 C2526 1.478 . S
C2528 C2530 1.381 . S
C2528 C2534 1.383 . S
C2529 C2525 1.495 . S
C2529 H2535 0.959 . S
C2529 H2536 0.961 . S
C2529 H2537 0.960 . S
C2530 C2528 1.381 . S
C2530 C2531 1.394 . S
C2530 H2538 0.930 . S
C2531 C2530 1.394 . S
C2531 C2532 1.383 . S
C2531 H2539 0.929 . S
C2532 C2531 1.383 . S
C2532 C2533 1.377 . S
C2533 H2517 0.930 . S
C2533 C2532 1.377 . S
C2533 C2534 1.379 . S
C2534 H2518 0.931 . S
C2534 C2528 1.383 . S
C2534 C2533 1.379 . S
H2535 C2529 0.959 . S
H2536 C2529 0.961 . S
H2537 C2529 0.960 . S
H2538 C2530 0.930 . S
H2539 C2531 0.929 . S
H2540 C2548 0.929 . S
H2541 C2550 0.930 . S
H2542 C2552 0.930 . S
H2543 C2555 0.929 . S
H2544 C2558 0.930 . S
H2545 C2560 0.960 . S
H2546 C2560 0.960 . S
H2547 C2560 0.960 . S
C2548 H2540 0.929 . S
C2548 C2549 1.377 . S
C2548 C2550 1.384 . S
C2549 C2548 1.377 . S
C2549 C2555 1.390 . S
C2550 H2541 0.930 . S
C2550 C2548 1.384 . S
C2550 C2551 1.372 . S
C2551 C2550 1.372 . S
C2551 C2552 1.400 . S
C2551 C2556 1.490 . S
C2552 H2542 0.930 . S
C2552 C2551 1.400 . S
C2552 C2555 1.386 . S
H2553 C2569 0.930 . S
H2554 C2570 0.931 . S
C2555 H2543 0.929 . S
C2555 C2549 1.390 . S
C2555 C2552 1.386 . S
C2556 C2551 1.490 . S
C2556 C2558 1.395 . S
C2556 C2559 1.403 . S
H2557 C2563 0.930 . S
C2558 H2544 0.930 . S
C2558 C2556 1.395 . S
C2558 C2561 1.403 . S
C2559 C2556 1.403 . S
C2559 C2560 1.524 . S
C2559 C2563 1.400 . S
C2560 H2545 0.960 . S
C2560 H2546 0.960 . S
C2560 H2547 0.960 . S
C2560 C2559 1.524 . S
C2561 C2558 1.403 . S
C2561 C2562 1.392 . S
C2561 C2565 1.495 . S
C2562 C2561 1.392 . S
C2562 C2563 1.385 . S
C2562 C2564 1.478 . S
C2563 H2557 0.930 . S
C2563 C2559 1.400 . S
C2563 C2562 1.385 . S
C2564 C2562 1.478 . S
C2564 C2566 1.381 . S
C2564 C2570 1.383 . S
C2565 C2561 1.495 . S
C2565 H2571 0.959 . S
C2565 H2572 0.961 . S
C2565 H2573 0.960 . S
C2566 C2564 1.381 . S
C2566 C2567 1.394 . S
C2566 H2574 0.930 . S
C2567 C2566 1.394 . S
C2567 C2568 1.383 . S
C2567 H2575 0.929 . S
C2568 C2567 1.383 . S
C2568 C2569 1.377 . S
C2569 H2553 0.930 . S
C2569 C2568 1.377 . S
C2569 C2570 1.379 . S
C2570 H2554 0.931 . S
C2570 C2564 1.383 . S
C2570 C2569 1.379 . S
H2571 C2565 0.959 . S
H2572 C2565 0.961 . S
H2573 C2565 0.960 . S
H2574 C2566 0.930 . S
H2575 C2567 0.929 . S
H2576 C2584 0.929 . S
H2577 C2586 0.930 . S
H2578 C2588 0.930 . S
H2579 C2591 0.929 . S
H2580 C2594 0.920 1_655 S
H2581 C2596 0.960 . S
H2582 C2596 0.960 1_655 S
H2583 C2596 0.960 . S
C2584 H2576 0.929 . S
C2584 C2585 1.377 1_655 S
C2584 C2586 1.384 . S
C2585 C2584 1.377 1_455 S
C2585 C2591 1.390 . S
C2586 H2577 0.930 . S
C2586 C2584 1.384 . S
C2586 C2587 1.372 1_655 S
C2587 C2586 1.372 1_455 S
C2587 C2588 1.400 . S
C2587 C2592 1.490 . S
C2588 H2578 0.930 . S
C2588 C2587 1.400 . S
C2588 C2591 1.386 . S
H2589 C2605 0.930 . S
H2590 C2606 0.931 . S
C2591 H2579 0.929 . S
C2591 C2585 1.390 . S
C2591 C2588 1.386 . S
C2592 C2587 1.490 . S
C2592 C2594 1.399 . S
C2592 C2595 1.403 . S
H2593 C2599 0.930 . S
C2594 H2580 0.920 1_455 S
C2594 C2592 1.399 . S
C2594 C2597 1.405 . S
C2595 C2592 1.403 . S
C2595 C2596 1.524 . S
C2595 C2599 1.400 . S
C2596 H2581 0.960 . S
C2596 H2582 0.960 1_455 S
C2596 H2583 0.960 . S
C2596 C2595 1.524 . S
C2597 C2594 1.405 . S
C2597 C2598 1.400 . S
C2597 C2601 1.493 1_455 S
C2598 C2597 1.400 . S
C2598 C2599 1.385 . S
C2598 C2600 1.478 . S
C2599 H2593 0.930 . S
C2599 C2595 1.400 . S
C2599 C2598 1.385 . S
C2600 C2598 1.478 . S
C2600 C2602 1.381 1_455 S
C2600 C2606 1.383 . S
C2601 C2597 1.493 1_655 S
C2601 H2607 0.959 . S
C2601 H2608 0.961 1_655 S
C2601 H2609 0.960 . S
C2602 C2600 1.381 1_655 S
C2602 C2603 1.394 . S
C2602 H2610 0.930 . S
C2603 C2602 1.394 . S
C2603 C2604 1.383 1_655 S
C2603 H2611 0.929 . S
C2604 C2603 1.383 1_455 S
C2604 C2605 1.377 . S
C2605 H2589 0.930 . S
C2605 C2604 1.377 . S
C2605 C2606 1.379 . S
C2606 H2590 0.931 . S
C2606 C2600 1.383 . S
C2606 C2605 1.379 . S
H2607 C2601 0.959 . S
H2608 C2601 0.961 1_455 S
H2609 C2601 0.960 . S
H2610 C2602 0.930 . S
H2611 C2603 0.929 . S
H2612 C2620 0.929 . S
H2613 C2622 0.930 . S
H2614 C2624 0.930 . S
H2615 C2627 0.929 . S
H2616 C2630 0.930 . S
H2617 C2632 0.960 . S
H2618 C2632 0.960 . S
H2619 C2632 0.960 . S
C2620 H2612 0.929 . S
C2620 C2621 1.377 . S
C2620 C2622 1.384 . S
C2621 C2620 1.377 . S
C2621 C2627 1.390 . S
C2622 H2613 0.930 . S
C2622 C2620 1.384 . S
C2622 C2623 1.372 . S
C2623 C2622 1.372 . S
C2623 C2624 1.400 . S
C2623 C2628 1.490 . S
C2624 H2614 0.930 . S
C2624 C2623 1.400 . S
C2624 C2627 1.386 . S
H2625 C2641 0.930 . S
H2626 C2642 0.931 . S
C2627 H2615 0.929 . S
C2627 C2621 1.390 . S
C2627 C2624 1.386 . S
C2628 C2623 1.490 . S
C2628 C2630 1.395 . S
C2628 C2631 1.403 . S
H2629 C2635 0.930 . S
C2630 H2616 0.930 . S
C2630 C2628 1.395 . S
C2630 C2633 1.403 . S
C2631 C2628 1.403 . S
C2631 C2632 1.524 . S
C2631 C2635 1.400 . S
C2632 H2617 0.960 . S
C2632 H2618 0.960 . S
C2632 H2619 0.960 . S
C2632 C2631 1.524 . S
C2633 C2630 1.403 . S
C2633 C2634 1.392 . S
C2633 C2637 1.495 . S
C2634 C2633 1.392 . S
C2634 C2635 1.385 . S
C2634 C2636 1.478 . S
C2635 H2629 0.930 . S
C2635 C2631 1.400 . S
C2635 C2634 1.385 . S
C2636 C2634 1.478 . S
C2636 C2638 1.381 . S
C2636 C2642 1.383 . S
C2637 C2633 1.495 . S
C2637 H2643 0.959 . S
C2637 H2644 0.961 . S
C2637 H2645 0.960 . S
C2638 C2636 1.381 . S
C2638 C2639 1.394 . S
C2638 H2646 0.930 . S
C2639 C2638 1.394 . S
C2639 C2640 1.383 . S
C2639 H2647 0.929 . S
C2640 C2639 1.383 . S
C2640 C2641 1.377 . S
C2641 H2625 0.930 . S
C2641 C2640 1.377 . S
C2641 C2642 1.379 . S
C2642 H2626 0.931 . S
C2642 C2636 1.383 . S
C2642 C2641 1.379 . S
H2643 C2637 0.959 . S
H2644 C2637 0.961 . S
H2645 C2637 0.960 . S
H2646 C2638 0.930 . S
H2647 C2639 0.929 . S
H2648 C2656 0.929 . S
H2649 C2658 0.930 . S
H2650 C2660 0.930 . S
H2651 C2663 0.929 . S
H2652 C2666 0.930 . S
H2653 C2668 0.960 . S
H2654 C2668 0.960 . S
H2655 C2668 0.960 . S
C2656 H2648 0.929 . S
C2656 C2657 1.377 . S
C2656 C2658 1.384 . S
C2657 C2656 1.377 . S
C2657 C2663 1.390 . S
C2658 H2649 0.930 . S
C2658 C2656 1.384 . S
C2658 C2659 1.372 . S
C2659 C2658 1.372 . S
C2659 C2660 1.400 . S
C2659 C2664 1.490 . S
C2660 H2650 0.930 . S
C2660 C2659 1.400 . S
C2660 C2663 1.386 . S
H2661 C2677 0.930 . S
H2662 C2678 0.931 . S
C2663 H2651 0.929 . S
C2663 C2657 1.390 . S
C2663 C2660 1.386 . S
C2664 C2659 1.490 . S
C2664 C2666 1.395 . S
C2664 C2667 1.403 . S
H2665 C2671 0.930 . S
C2666 H2652 0.930 . S
C2666 C2664 1.395 . S
C2666 C2669 1.403 . S
C2667 C2664 1.403 . S
C2667 C2668 1.524 . S
C2667 C2671 1.400 . S
C2668 H2653 0.960 . S
C2668 H2654 0.960 . S
C2668 H2655 0.960 . S
C2668 C2667 1.524 . S
C2669 C2666 1.403 . S
C2669 C2670 1.392 . S
C2669 C2673 1.495 . S
C2670 C2669 1.392 . S
C2670 C2671 1.385 . S
C2670 C2672 1.478 . S
C2671 H2665 0.930 . S
C2671 C2667 1.400 . S
C2671 C2670 1.385 . S
C2672 C2670 1.478 . S
C2672 C2674 1.381 . S
C2672 C2678 1.383 . S
C2673 C2669 1.495 . S
C2673 H2679 0.959 . S
C2673 H2680 0.961 . S
C2673 H2681 0.960 . S
C2674 C2672 1.381 . S
C2674 C2675 1.394 . S
C2674 H2682 0.930 . S
C2675 C2674 1.394 . S
C2675 C2676 1.383 . S
C2675 H2683 0.929 . S
C2676 C2675 1.383 . S
C2676 C2677 1.377 . S
C2677 H2661 0.930 . S
C2677 C2676 1.377 . S
C2677 C2678 1.379 . S
C2678 H2662 0.931 . S
C2678 C2672 1.383 . S
C2678 C2677 1.379 . S
H2679 C2673 0.959 . S
H2680 C2673 0.961 . S
H2681 C2673 0.960 . S
H2682 C2674 0.930 . S
H2683 C2675 0.929 . S
H2684 C2692 0.929 . S
H2685 C2694 0.930 . S
H2686 C2696 0.930 . S
H2687 C2699 0.929 . S
H2688 C2702 0.930 . S
H2689 C2704 0.960 . S
H2690 C2704 0.960 . S
H2691 C2704 0.960 . S
C2692 H2684 0.929 . S
C2692 C2693 1.377 . S
C2692 C2694 1.384 . S
C2693 C2692 1.377 . S
C2693 C2699 1.390 . S
C2694 H2685 0.930 . S
C2694 C2692 1.384 . S
C2694 C2695 1.372 . S
C2695 C2694 1.372 . S
C2695 C2696 1.400 . S
C2695 C2700 1.490 . S
C2696 H2686 0.930 . S
C2696 C2695 1.400 . S
C2696 C2699 1.386 . S
H2697 C2713 0.930 . S
H2698 C2714 0.931 . S
C2699 H2687 0.929 . S
C2699 C2693 1.390 . S
C2699 C2696 1.386 . S
C2700 C2695 1.490 . S
C2700 C2702 1.395 . S
C2700 C2703 1.403 . S
H2701 C2707 0.930 . S
C2702 H2688 0.930 . S
C2702 C2700 1.395 . S
C2702 C2705 1.403 . S
C2703 C2700 1.403 . S
C2703 C2704 1.524 . S
C2703 C2707 1.400 . S
C2704 H2689 0.960 . S
C2704 H2690 0.960 . S
C2704 H2691 0.960 . S
C2704 C2703 1.524 . S
C2705 C2702 1.403 . S
C2705 C2706 1.392 . S
C2705 C2709 1.495 . S
C2706 C2705 1.392 . S
C2706 C2707 1.385 . S
C2706 C2708 1.478 . S
C2707 H2701 0.930 . S
C2707 C2703 1.400 . S
C2707 C2706 1.385 . S
C2708 C2706 1.478 . S
C2708 C2710 1.381 . S
C2708 C2714 1.383 . S
C2709 C2705 1.495 . S
C2709 H2715 0.959 . S
C2709 H2716 0.961 . S
C2709 H2717 0.960 . S
C2710 C2708 1.381 . S
C2710 C2711 1.394 . S
C2710 H2718 0.930 . S
C2711 C2710 1.394 . S
C2711 C2712 1.383 . S
C2711 H2719 0.929 . S
C2712 C2711 1.383 . S
C2712 C2713 1.377 . S
C2713 H2697 0.930 . S
C2713 C2712 1.377 . S
C2713 C2714 1.379 . S
C2714 H2698 0.931 . S
C2714 C2708 1.383 . S
C2714 C2713 1.379 . S
H2715 C2709 0.959 . S
H2716 C2709 0.961 . S
H2717 C2709 0.960 . S
H2718 C2710 0.930 . S
H2719 C2711 0.929 . S
H2720 C2728 0.929 . S
H2721 C2730 0.930 . S
H2722 C2732 0.930 . S
H2723 C2735 0.929 . S
H2724 C2738 0.930 . S
H2725 C2740 0.960 . S
H2726 C2740 0.960 . S
H2727 C2740 0.960 . S
C2728 H2720 0.929 . S
C2728 C2729 1.377 . S
C2728 C2730 1.384 . S
C2729 C2728 1.377 . S
C2729 C2735 1.390 . S
C2730 H2721 0.930 . S
C2730 C2728 1.384 . S
C2730 C2731 1.372 . S
C2731 C2730 1.372 . S
C2731 C2732 1.400 . S
C2731 C2736 1.490 . S
C2732 H2722 0.930 . S
C2732 C2731 1.400 . S
C2732 C2735 1.386 . S
H2733 C2749 0.930 . S
H2734 C2750 0.931 . S
C2735 H2723 0.929 . S
C2735 C2729 1.390 . S
C2735 C2732 1.386 . S
C2736 C2731 1.490 . S
C2736 C2738 1.395 . S
C2736 C2739 1.403 . S
H2737 C2743 0.930 . S
C2738 H2724 0.930 . S
C2738 C2736 1.395 . S
C2738 C2741 1.403 . S
C2739 C2736 1.403 . S
C2739 C2740 1.524 . S
C2739 C2743 1.400 . S
C2740 H2725 0.960 . S
C2740 H2726 0.960 . S
C2740 H2727 0.960 . S
C2740 C2739 1.524 . S
C2741 C2738 1.403 . S
C2741 C2742 1.392 . S
C2741 C2745 1.495 . S
C2742 C2741 1.392 . S
C2742 C2743 1.385 . S
C2742 C2744 1.478 . S
C2743 H2737 0.930 . S
C2743 C2739 1.400 . S
C2743 C2742 1.385 . S
C2744 C2742 1.478 . S
C2744 C2746 1.381 . S
C2744 C2750 1.383 . S
C2745 C2741 1.495 . S
C2745 H2751 0.959 . S
C2745 H2752 0.961 . S
C2745 H2753 0.960 . S
C2746 C2744 1.381 . S
C2746 C2747 1.394 . S
C2746 H2754 0.930 . S
C2747 C2746 1.394 . S
C2747 C2748 1.383 . S
C2747 H2755 0.929 . S
C2748 C2747 1.383 . S
C2748 C2749 1.377 . S
C2749 H2733 0.930 . S
C2749 C2748 1.377 . S
C2749 C2750 1.379 . S
C2750 H2734 0.931 . S
C2750 C2744 1.383 . S
C2750 C2749 1.379 . S
H2751 C2745 0.959 . S
H2752 C2745 0.961 . S
H2753 C2745 0.960 . S
H2754 C2746 0.930 . S
H2755 C2747 0.929 . S
H2756 C2764 0.929 . S
H2757 C2766 0.930 . S
H2758 C2768 0.930 . S
H2759 C2771 0.929 . S
H2760 C2774 0.930 . S
H2761 C2776 0.960 . S
H2762 C2776 0.960 . S
H2763 C2776 0.960 . S
C2764 H2756 0.929 . S
C2764 C2765 1.377 . S
C2764 C2766 1.384 . S
C2765 C2764 1.377 . S
C2765 C2771 1.390 . S
C2766 H2757 0.930 . S
C2766 C2764 1.384 . S
C2766 C2767 1.372 . S
C2767 C2766 1.372 . S
C2767 C2768 1.400 . S
C2767 C2772 1.490 . S
C2768 H2758 0.930 . S
C2768 C2767 1.400 . S
C2768 C2771 1.386 . S
H2769 C2785 0.930 . S
H2770 C2786 0.931 . S
C2771 H2759 0.929 . S
C2771 C2765 1.390 . S
C2771 C2768 1.386 . S
C2772 C2767 1.490 . S
C2772 C2774 1.395 . S
C2772 C2775 1.403 . S
H2773 C2779 0.930 . S
C2774 H2760 0.930 . S
C2774 C2772 1.395 . S
C2774 C2777 1.403 . S
C2775 C2772 1.403 . S
C2775 C2776 1.524 . S
C2775 C2779 1.400 . S
C2776 H2761 0.960 . S
C2776 H2762 0.960 . S
C2776 H2763 0.960 . S
C2776 C2775 1.524 . S
C2777 C2774 1.403 . S
C2777 C2778 1.392 . S
C2777 C2781 1.495 . S
C2778 C2777 1.392 . S
C2778 C2779 1.385 . S
C2778 C2780 1.478 . S
C2779 H2773 0.930 . S
C2779 C2775 1.400 . S
C2779 C2778 1.385 . S
C2780 C2778 1.478 . S
C2780 C2782 1.381 . S
C2780 C2786 1.383 . S
C2781 C2777 1.495 . S
C2781 H2787 0.959 . S
C2781 H2788 0.961 . S
C2781 H2789 0.960 . S
C2782 C2780 1.381 . S
C2782 C2783 1.394 . S
C2782 H2790 0.930 . S
C2783 C2782 1.394 . S
C2783 C2784 1.383 . S
C2783 H2791 0.929 . S
C2784 C2783 1.383 . S
C2784 C2785 1.377 . S
C2785 H2769 0.930 . S
C2785 C2784 1.377 . S
C2785 C2786 1.379 . S
C2786 H2770 0.931 . S
C2786 C2780 1.383 . S
C2786 C2785 1.379 . S
H2787 C2781 0.959 . S
H2788 C2781 0.961 . S
H2789 C2781 0.960 . S
H2790 C2782 0.930 . S
H2791 C2783 0.929 . S
H2792 C2800 0.929 . S
H2793 C2802 0.930 . S
H2794 C2804 0.930 . S
H2795 C2807 0.929 . S
H2796 C2810 0.930 . S
H2797 C2812 0.960 . S
H2798 C2812 0.960 . S
H2799 C2812 0.960 . S
C2800 H2792 0.929 . S
C2800 C2801 1.377 . S
C2800 C2802 1.384 . S
C2801 C2800 1.377 . S
C2801 C2807 1.390 . S
C2802 H2793 0.930 . S
C2802 C2800 1.384 . S
C2802 C2803 1.372 . S
C2803 C2802 1.372 . S
C2803 C2804 1.400 . S
C2803 C2808 1.490 . S
C2804 H2794 0.930 . S
C2804 C2803 1.400 . S
C2804 C2807 1.386 . S
H2805 C2821 0.930 . S
H2806 C2822 0.931 . S
C2807 H2795 0.929 . S
C2807 C2801 1.390 . S
C2807 C2804 1.386 . S
C2808 C2803 1.490 . S
C2808 C2810 1.395 . S
C2808 C2811 1.403 . S
H2809 C2815 0.930 . S
C2810 H2796 0.930 . S
C2810 C2808 1.395 . S
C2810 C2813 1.403 . S
C2811 C2808 1.403 . S
C2811 C2812 1.524 . S
C2811 C2815 1.400 . S
C2812 H2797 0.960 . S
C2812 H2798 0.960 . S
C2812 H2799 0.960 . S
C2812 C2811 1.524 . S
C2813 C2810 1.403 . S
C2813 C2814 1.392 . S
C2813 C2817 1.495 . S
C2814 C2813 1.392 . S
C2814 C2815 1.385 . S
C2814 C2816 1.478 . S
C2815 H2809 0.930 . S
C2815 C2811 1.400 . S
C2815 C2814 1.385 . S
C2816 C2814 1.478 . S
C2816 C2818 1.381 . S
C2816 C2822 1.383 . S
C2817 C2813 1.495 . S
C2817 H2823 0.959 . S
C2817 H2824 0.961 . S
C2817 H2825 0.960 . S
C2818 C2816 1.381 . S
C2818 C2819 1.394 . S
C2818 H2826 0.930 . S
C2819 C2818 1.394 . S
C2819 C2820 1.383 . S
C2819 H2827 0.929 . S
C2820 C2819 1.383 . S
C2820 C2821 1.377 . S
C2821 H2805 0.930 . S
C2821 C2820 1.377 . S
C2821 C2822 1.379 . S
C2822 H2806 0.931 . S
C2822 C2816 1.383 . S
C2822 C2821 1.379 . S
H2823 C2817 0.959 . S
H2824 C2817 0.961 . S
H2825 C2817 0.960 . S
H2826 C2818 0.930 . S
H2827 C2819 0.929 . S
H2828 C2836 0.929 . S
H2829 C2838 0.930 . S
H2830 C2840 0.930 . S
H2831 C2843 0.929 . S
H2832 C2846 0.930 . S
H2833 C2848 0.960 . S
H2834 C2848 0.960 . S
H2835 C2848 0.960 . S
C2836 H2828 0.929 . S
C2836 C2837 1.377 . S
C2836 C2838 1.384 . S
C2837 C2836 1.377 . S
C2837 C2843 1.390 . S
C2838 H2829 0.930 . S
C2838 C2836 1.384 . S
C2838 C2839 1.372 . S
C2839 C2838 1.372 . S
C2839 C2840 1.400 . S
C2839 C2844 1.490 . S
C2840 H2830 0.930 . S
C2840 C2839 1.400 . S
C2840 C2843 1.386 . S
H2841 C2857 0.930 . S
H2842 C2858 0.931 . S
C2843 H2831 0.929 . S
C2843 C2837 1.390 . S
C2843 C2840 1.386 . S
C2844 C2839 1.490 . S
C2844 C2846 1.395 . S
C2844 C2847 1.403 . S
H2845 C2851 0.930 . S
C2846 H2832 0.930 . S
C2846 C2844 1.395 . S
C2846 C2849 1.403 . S
C2847 C2844 1.403 . S
C2847 C2848 1.524 . S
C2847 C2851 1.400 . S
C2848 H2833 0.960 . S
C2848 H2834 0.960 . S
C2848 H2835 0.960 . S
C2848 C2847 1.524 . S
C2849 C2846 1.403 . S
C2849 C2850 1.392 . S
C2849 C2853 1.495 . S
C2850 C2849 1.392 . S
C2850 C2851 1.385 . S
C2850 C2852 1.478 . S
C2851 H2845 0.930 . S
C2851 C2847 1.400 . S
C2851 C2850 1.385 . S
C2852 C2850 1.478 . S
C2852 C2854 1.381 . S
C2852 C2858 1.383 . S
C2853 C2849 1.495 . S
C2853 H2859 0.959 . S
C2853 H2860 0.961 . S
C2853 H2861 0.960 . S
C2854 C2852 1.381 . S
C2854 C2855 1.394 . S
C2854 H2862 0.930 . S
C2855 C2854 1.394 . S
C2855 C2856 1.383 . S
C2855 H2863 0.929 . S
C2856 C2855 1.383 . S
C2856 C2857 1.377 . S
C2857 H2841 0.930 . S
C2857 C2856 1.377 . S
C2857 C2858 1.379 . S
C2858 H2842 0.931 . S
C2858 C2852 1.383 . S
C2858 C2857 1.379 . S
H2859 C2853 0.959 . S
H2860 C2853 0.961 . S
H2861 C2853 0.960 . S
H2862 C2854 0.930 . S
H2863 C2855 0.929 . S
H2864 C2872 0.929 . S
H2865 C2874 0.930 . S
H2866 C2876 0.930 . S
H2867 C2879 0.929 . S
H2868 C2882 0.930 . S
H2869 C2884 0.960 . S
H2870 C2884 0.960 . S
H2871 C2884 0.960 . S
C2872 H2864 0.929 . S
C2872 C2873 1.377 . S
C2872 C2874 1.384 . S
C2873 C2872 1.377 . S
C2873 C2879 1.390 . S
C2874 H2865 0.930 . S
C2874 C2872 1.384 . S
C2874 C2875 1.372 . S
C2875 C2874 1.372 . S
C2875 C2876 1.400 . S
C2875 C2880 1.490 . S
C2876 H2866 0.930 . S
C2876 C2875 1.400 . S
C2876 C2879 1.386 . S
H2877 C2893 0.930 . S
H2878 C2894 0.931 . S
C2879 H2867 0.929 . S
C2879 C2873 1.390 . S
C2879 C2876 1.386 . S
C2880 C2875 1.490 . S
C2880 C2882 1.395 . S
C2880 C2883 1.403 . S
H2881 C2887 0.930 . S
C2882 H2868 0.930 . S
C2882 C2880 1.395 . S
C2882 C2885 1.403 . S
C2883 C2880 1.403 . S
C2883 C2884 1.524 . S
C2883 C2887 1.400 . S
C2884 H2869 0.960 . S
C2884 H2870 0.960 . S
C2884 H2871 0.960 . S
C2884 C2883 1.524 . S
C2885 C2882 1.403 . S
C2885 C2886 1.392 . S
C2885 C2889 1.495 . S
C2886 C2885 1.392 . S
C2886 C2887 1.385 . S
C2886 C2888 1.478 . S
C2887 H2881 0.930 . S
C2887 C2883 1.400 . S
C2887 C2886 1.385 . S
C2888 C2886 1.478 . S
C2888 C2890 1.381 . S
C2888 C2894 1.383 . S
C2889 C2885 1.495 . S
C2889 H2895 0.959 . S
C2889 H2896 0.961 . S
C2889 H2897 0.960 . S
C2890 C2888 1.381 . S
C2890 C2891 1.394 . S
C2890 H2898 0.930 . S
C2891 C2890 1.394 . S
C2891 C2892 1.383 . S
C2891 H2899 0.929 . S
C2892 C2891 1.383 . S
C2892 C2893 1.377 . S
C2893 H2877 0.930 . S
C2893 C2892 1.377 . S
C2893 C2894 1.379 . S
C2894 H2878 0.931 . S
C2894 C2888 1.383 . S
C2894 C2893 1.379 . S
H2895 C2889 0.959 . S
H2896 C2889 0.961 . S
H2897 C2889 0.960 . S
H2898 C2890 0.930 . S
H2899 C2891 0.929 . S
H2900 C2908 0.929 . S
H2901 C2910 0.930 . S
H2902 C2912 0.930 . S
H2903 C2915 0.929 . S
H2904 C2918 0.930 . S
H2905 C2920 0.960 . S
H2906 C2920 0.960 . S
H2907 C2920 0.960 . S
C2908 H2900 0.929 . S
C2908 C2909 1.377 . S
C2908 C2910 1.384 . S
C2909 C2908 1.377 . S
C2909 C2915 1.390 . S
C2910 H2901 0.930 . S
C2910 C2908 1.384 . S
C2910 C2911 1.372 . S
C2911 C2910 1.372 . S
C2911 C2912 1.400 . S
C2911 C2916 1.490 . S
C2912 H2902 0.930 . S
C2912 C2911 1.400 . S
C2912 C2915 1.386 . S
H2913 C2929 0.930 . S
H2914 C2930 0.931 . S
C2915 H2903 0.929 . S
C2915 C2909 1.390 . S
C2915 C2912 1.386 . S
C2916 C2911 1.490 . S
C2916 C2918 1.395 . S
C2916 C2919 1.403 . S
H2917 C2923 0.930 . S
C2918 H2904 0.930 . S
C2918 C2916 1.395 . S
C2918 C2921 1.403 . S
C2919 C2916 1.403 . S
C2919 C2920 1.524 . S
C2919 C2923 1.400 . S
C2920 H2905 0.960 . S
C2920 H2906 0.960 . S
C2920 H2907 0.960 . S
C2920 C2919 1.524 . S
C2921 C2918 1.403 . S
C2921 C2922 1.392 . S
C2921 C2925 1.495 . S
C2922 C2921 1.392 . S
C2922 C2923 1.385 . S
C2922 C2924 1.478 . S
C2923 H2917 0.930 . S
C2923 C2919 1.400 . S
C2923 C2922 1.385 . S
C2924 C2922 1.478 . S
C2924 C2926 1.381 . S
C2924 C2930 1.383 . S
C2925 C2921 1.495 . S
C2925 H2931 0.959 . S
C2925 H2932 0.961 . S
C2925 H2933 0.960 . S
C2926 C2924 1.381 . S
C2926 C2927 1.394 . S
C2926 H2934 0.930 . S
C2927 C2926 1.394 . S
C2927 C2928 1.383 . S
C2927 H2935 0.929 . S
C2928 C2927 1.383 . S
C2928 C2929 1.377 . S
C2929 H2913 0.930 . S
C2929 C2928 1.377 . S
C2929 C2930 1.379 . S
C2930 H2914 0.931 . S
C2930 C2924 1.383 . S
C2930 C2929 1.379 . S
H2931 C2925 0.959 . S
H2932 C2925 0.961 . S
H2933 C2925 0.960 . S
H2934 C2926 0.930 . S
H2935 C2927 0.929 . S
H2936 C2944 0.929 . S
H2937 C2946 0.930 . S
H2938 C2948 0.930 . S
H2939 C2951 0.929 . S
H2940 C2954 0.930 . S
H2941 C2956 0.960 . S
H2942 C2956 0.960 . S
H2943 C2956 0.960 . S
C2944 H2936 0.929 . S
C2944 C2945 1.377 . S
C2944 C2946 1.384 . S
C2945 C2944 1.377 . S
C2945 C2951 1.390 . S
C2946 H2937 0.930 . S
C2946 C2944 1.384 . S
C2946 C2947 1.372 . S
C2947 C2946 1.372 . S
C2947 C2948 1.400 . S
C2947 C2952 1.490 . S
C2948 H2938 0.930 . S
C2948 C2947 1.400 . S
C2948 C2951 1.386 . S
H2949 C2965 0.930 . S
H2950 C2966 0.931 . S
C2951 H2939 0.929 . S
C2951 C2945 1.390 . S
C2951 C2948 1.386 . S
C2952 C2947 1.490 . S
C2952 C2954 1.395 . S
C2952 C2955 1.403 . S
H2953 C2959 0.930 . S
C2954 H2940 0.930 . S
C2954 C2952 1.395 . S
C2954 C2957 1.403 . S
C2955 C2952 1.403 . S
C2955 C2956 1.524 . S
C2955 C2959 1.400 . S
C2956 H2941 0.960 . S
C2956 H2942 0.960 . S
C2956 H2943 0.960 . S
C2956 C2955 1.524 . S
C2957 C2954 1.403 . S
C2957 C2958 1.392 . S
C2957 C2961 1.495 . S
C2958 C2957 1.392 . S
C2958 C2959 1.385 . S
C2958 C2960 1.478 . S
C2959 H2953 0.930 . S
C2959 C2955 1.400 . S
C2959 C2958 1.385 . S
C2960 C2958 1.478 . S
C2960 C2962 1.381 . S
C2960 C2966 1.383 . S
C2961 C2957 1.495 . S
C2961 H2967 0.959 . S
C2961 H2968 0.961 . S
C2961 H2969 0.960 . S
C2962 C2960 1.381 . S
C2962 C2963 1.394 . S
C2962 H2970 0.930 . S
C2963 C2962 1.394 . S
C2963 C2964 1.383 . S
C2963 H2971 0.929 . S
C2964 C2963 1.383 . S
C2964 C2965 1.377 . S
C2965 H2949 0.930 . S
C2965 C2964 1.377 . S
C2965 C2966 1.379 . S
C2966 H2950 0.931 . S
C2966 C2960 1.383 . S
C2966 C2965 1.379 . S
H2967 C2961 0.959 . S
H2968 C2961 0.961 . S
H2969 C2961 0.960 . S
H2970 C2962 0.930 . S
H2971 C2963 0.929 . S
H2972 C2980 0.929 . S
H2973 C2982 0.930 . S
H2974 C2984 0.930 . S
H2975 C2987 0.929 . S
H2976 C2990 0.930 . S
H2977 C2992 0.960 . S
H2978 C2992 0.960 . S
H2979 C2992 0.960 . S
C2980 H2972 0.929 . S
C2980 C2981 1.377 . S
C2980 C2982 1.384 . S
C2981 C2980 1.377 . S
C2981 C2987 1.390 . S
C2982 H2973 0.930 . S
C2982 C2980 1.384 . S
C2982 C2983 1.372 . S
C2983 C2982 1.372 . S
C2983 C2984 1.400 . S
C2983 C2988 1.490 . S
C2984 H2974 0.930 . S
C2984 C2983 1.400 . S
C2984 C2987 1.386 . S
H2985 C3001 0.930 . S
H2986 C3002 0.931 . S
C2987 H2975 0.929 . S
C2987 C2981 1.390 . S
C2987 C2984 1.386 . S
C2988 C2983 1.490 . S
C2988 C2990 1.395 . S
C2988 C2991 1.403 . S
H2989 C2995 0.930 . S
C2990 H2976 0.930 . S
C2990 C2988 1.395 . S
C2990 C2993 1.403 . S
C2991 C2988 1.403 . S
C2991 C2992 1.524 . S
C2991 C2995 1.400 . S
C2992 H2977 0.960 . S
C2992 H2978 0.960 . S
C2992 H2979 0.960 . S
C2992 C2991 1.524 . S
C2993 C2990 1.403 . S
C2993 C2994 1.392 . S
C2993 C2997 1.495 . S
C2994 C2993 1.392 . S
C2994 C2995 1.385 . S
C2994 C2996 1.478 . S
C2995 H2989 0.930 . S
C2995 C2991 1.400 . S
C2995 C2994 1.385 . S
C2996 C2994 1.478 . S
C2996 C2998 1.381 . S
C2996 C3002 1.383 . S
C2997 C2993 1.495 . S
C2997 H3003 0.959 . S
C2997 H3004 0.961 . S
C2997 H3005 0.960 . S
C2998 C2996 1.381 . S
C2998 C2999 1.394 . S
C2998 H3006 0.930 . S
C2999 C2998 1.394 . S
C2999 C3000 1.383 . S
C2999 H3007 0.929 . S
C3000 C2999 1.383 . S
C3000 C3001 1.377 . S
C3001 H2985 0.930 . S
C3001 C3000 1.377 . S
C3001 C3002 1.379 . S
C3002 H2986 0.931 . S
C3002 C2996 1.383 . S
C3002 C3001 1.379 . S
H3003 C2997 0.959 . S
H3004 C2997 0.961 . S
H3005 C2997 0.960 . S
H3006 C2998 0.930 . S
H3007 C2999 0.929 . S
H3008 C3016 0.929 . S
H3009 C3018 0.930 . S
H3010 C3020 0.930 . S
H3011 C3023 0.929 . S
H3012 C3026 0.930 . S
H3013 C3028 0.960 . S
H3014 C3028 0.960 . S
H3015 C3028 0.960 . S
C3016 H3008 0.929 . S
C3016 C3017 1.377 . S
C3016 C3018 1.384 . S
C3017 C3016 1.377 . S
C3017 C3023 1.390 . S
C3018 H3009 0.930 . S
C3018 C3016 1.384 . S
C3018 C3019 1.372 . S
C3019 C3018 1.372 . S
C3019 C3020 1.400 . S
C3019 C3024 1.490 . S
C3020 H3010 0.930 . S
C3020 C3019 1.400 . S
C3020 C3023 1.386 . S
H3021 C3037 0.930 . S
H3022 C3038 0.931 . S
C3023 H3011 0.929 . S
C3023 C3017 1.390 . S
C3023 C3020 1.386 . S
C3024 C3019 1.490 . S
C3024 C3026 1.395 . S
C3024 C3027 1.403 . S
H3025 C3031 0.930 . S
C3026 H3012 0.930 . S
C3026 C3024 1.395 . S
C3026 C3029 1.403 . S
C3027 C3024 1.403 . S
C3027 C3028 1.524 . S
C3027 C3031 1.400 . S
C3028 H3013 0.960 . S
C3028 H3014 0.960 . S
C3028 H3015 0.960 . S
C3028 C3027 1.524 . S
C3029 C3026 1.403 . S
C3029 C3030 1.392 . S
C3029 C3033 1.495 . S
C3030 C3029 1.392 . S
C3030 C3031 1.385 . S
C3030 C3032 1.478 . S
C3031 H3025 0.930 . S
C3031 C3027 1.400 . S
C3031 C3030 1.385 . S
C3032 C3030 1.478 . S
C3032 C3034 1.381 . S
C3032 C3038 1.383 . S
C3033 C3029 1.495 . S
C3033 H3039 0.959 . S
C3033 H3040 0.961 . S
C3033 H3041 0.960 . S
C3034 C3032 1.381 . S
C3034 C3035 1.394 . S
C3034 H3042 0.930 . S
C3035 C3034 1.394 . S
C3035 C3036 1.383 . S
C3035 H3043 0.929 . S
C3036 C3035 1.383 . S
C3036 C3037 1.377 . S
C3037 H3021 0.930 . S
C3037 C3036 1.377 . S
C3037 C3038 1.379 . S
C3038 H3022 0.931 . S
C3038 C3032 1.383 . S
C3038 C3037 1.379 . S
H3039 C3033 0.959 . S
H3040 C3033 0.961 . S
H3041 C3033 0.960 . S
H3042 C3034 0.930 . S
H3043 C3035 0.929 . S
H3044 C3052 0.929 . S
H3045 C3054 0.930 . S
H3046 C3056 0.930 . S
H3047 C3059 0.929 . S
H3048 C3062 0.930 . S
H3049 C3064 0.960 . S
H3050 C3064 0.960 . S
H3051 C3064 0.960 . S
C3052 H3044 0.929 . S
C3052 C3053 1.377 . S
C3052 C3054 1.384 . S
C3053 C3052 1.377 . S
C3053 C3059 1.390 . S
C3054 H3045 0.930 . S
C3054 C3052 1.384 . S
C3054 C3055 1.372 . S
C3055 C3054 1.372 . S
C3055 C3056 1.400 . S
C3055 C3060 1.490 . S
C3056 H3046 0.930 . S
C3056 C3055 1.400 . S
C3056 C3059 1.386 . S
H3057 C3073 0.930 1_556 S
H3058 C3074 0.931 . S
C3059 H3047 0.929 . S
C3059 C3053 1.390 . S
C3059 C3056 1.386 . S
C3060 C3055 1.490 . S
C3060 C3062 1.395 . S
C3060 C3063 1.403 1_554 S
H3061 C3067 0.930 . S
C3062 H3048 0.930 . S
C3062 C3060 1.395 . S
C3062 C3065 1.403 . S
C3063 C3060 1.403 1_556 S
C3063 C3064 1.524 . S
C3063 C3067 1.400 . S
C3064 H3049 0.960 . S
C3064 H3050 0.960 . S
C3064 H3051 0.960 . S
C3064 C3063 1.524 . S
C3065 C3062 1.403 . S
C3065 C3066 1.392 . S
C3065 C3069 1.495 . S
C3066 C3065 1.392 . S
C3066 C3067 1.385 1_554 S
C3066 C3068 1.478 . S
C3067 H3061 0.930 . S
C3067 C3063 1.400 . S
C3067 C3066 1.385 1_556 S
C3068 C3066 1.478 . S
C3068 C3070 1.423 . S
C3068 C3074 1.383 . S
C3069 C3065 1.495 . S
C3069 H3075 0.959 . S
C3069 H3076 0.961 . S
C3069 H3077 0.960 . S
C3070 C3068 1.423 . S
C3070 C3071 1.374 1_565 S
C3070 H3078 0.910 1_565 S
C3071 C3070 1.374 1_545 S
C3071 C3072 1.383 . S
C3071 H3079 0.929 . S
C3072 C3071 1.383 . S
C3072 C3073 1.377 1_545 S
C3073 H3057 0.930 1_554 S
C3073 C3072 1.377 1_565 S
C3073 C3074 1.379 . S
C3074 H3058 0.931 . S
C3074 C3068 1.383 . S
C3074 C3073 1.379 . S
H3075 C3069 0.959 . S
H3076 C3069 0.961 . S
H3077 C3069 0.960 . S
H3078 C3070 0.910 1_545 S
H3079 C3071 0.929 . S
H3080 C3088 0.929 . S
H3081 C3090 0.930 . S
H3082 C3092 0.930 . S
H3083 C3095 0.929 . S
H3084 C3098 0.930 . S
H3085 C3100 0.960 . S
H3086 C3100 0.960 . S
H3087 C3100 0.960 . S
C3088 H3080 0.929 . S
C3088 C3089 1.377 . S
C3088 C3090 1.384 . S
C3089 C3088 1.377 . S
C3089 C3095 1.390 . S
C3090 H3081 0.930 . S
C3090 C3088 1.384 . S
C3090 C3091 1.372 . S
C3091 C3090 1.372 . S
C3091 C3092 1.400 . S
C3091 C3096 1.490 . S
C3092 H3082 0.930 . S
C3092 C3091 1.400 . S
C3092 C3095 1.386 . S
H3093 C3109 0.930 . S
H3094 C3110 0.931 . S
C3095 H3083 0.929 . S
C3095 C3089 1.390 . S
C3095 C3092 1.386 . S
C3096 C3091 1.490 . S
C3096 C3098 1.395 . S
C3096 C3099 1.403 . S
H3097 C3103 0.930 . S
C3098 H3084 0.930 . S
C3098 C3096 1.395 . S
C3098 C3101 1.403 . S
C3099 C3096 1.403 . S
C3099 C3100 1.524 . S
C3099 C3103 1.400 . S
C3100 H3085 0.960 . S
C3100 H3086 0.960 . S
C3100 H3087 0.960 . S
C3100 C3099 1.524 . S
C3101 C3098 1.403 . S
C3101 C3102 1.392 . S
C3101 C3105 1.495 . S
C3102 C3101 1.392 . S
C3102 C3103 1.385 . S
C3102 C3104 1.478 . S
C3103 H3097 0.930 . S
C3103 C3099 1.400 . S
C3103 C3102 1.385 . S
C3104 C3102 1.478 . S
C3104 C3106 1.381 . S
C3104 C3110 1.383 . S
C3105 C3101 1.495 . S
C3105 H3111 0.959 . S
C3105 H3112 0.961 . S
C3105 H3113 0.960 . S
C3106 C3104 1.381 . S
C3106 C3107 1.394 . S
C3106 H3114 0.930 . S
C3107 C3106 1.394 . S
C3107 C3108 1.383 . S
C3107 H3115 0.929 . S
C3108 C3107 1.383 . S
C3108 C3109 1.377 . S
C3109 H3093 0.930 . S
C3109 C3108 1.377 . S
C3109 C3110 1.379 . S
C3110 H3094 0.931 . S
C3110 C3104 1.383 . S
C3110 C3109 1.379 . S
H3111 C3105 0.959 . S
H3112 C3105 0.961 . S
H3113 C3105 0.960 . S
H3114 C3106 0.930 . S
H3115 C3107 0.929 . S
H3116 C3124 0.929 . S
H3117 C3126 0.930 . S
H3118 C3128 0.930 . S
H3119 C3131 0.929 . S
H3120 C3134 0.934 . S
H3121 C3136 0.960 . S
H3122 C3136 0.960 . S
H3123 C3136 0.960 . S
C3124 H3116 0.929 . S
C3124 C3125 1.377 1_556 S
C3124 C3126 1.384 . S
C3125 C3124 1.377 1_554 S
C3125 C3131 1.390 . S
C3126 H3117 0.930 . S
C3126 C3124 1.384 . S
C3126 C3127 1.372 1_556 S
C3127 C3126 1.372 1_554 S
C3127 C3128 1.400 . S
C3127 C3132 1.490 . S
C3128 H3118 0.930 . S
C3128 C3127 1.400 . S
C3128 C3131 1.386 . S
H3129 C3145 0.930 . S
H3130 C3146 0.931 . S
C3131 H3119 0.929 . S
C3131 C3125 1.390 . S
C3131 C3128 1.386 . S
C3132 C3127 1.490 . S
C3132 C3134 1.395 . S
C3132 C3135 1.403 . S
H3133 C3139 0.930 . S
C3134 H3120 0.934 . S
C3134 C3132 1.395 . S
C3134 C3137 1.403 . S
C3135 C3132 1.403 . S
C3135 C3136 1.524 . S
C3135 C3139 1.400 . S
C3136 H3121 0.960 . S
C3136 H3122 0.960 . S
C3136 H3123 0.960 . S
C3136 C3135 1.524 . S
C3137 C3134 1.403 . S
C3137 C3138 1.392 . S
C3137 C3141 1.495 . S
C3138 C3137 1.392 . S
C3138 C3139 1.385 . S
C3138 C3140 1.478 . S
C3139 H3133 0.930 . S
C3139 C3135 1.400 . S
C3139 C3138 1.385 . S
C3140 C3138 1.478 . S
C3140 C3142 1.381 . S
C3140 C3146 1.383 . S
C3141 C3137 1.495 . S
C3141 H3147 0.959 1_554 S
C3141 H3148 0.961 . S
C3141 H3149 0.960 1_554 S
C3142 C3140 1.381 . S
C3142 C3143 1.394 . S
C3142 H3150 0.913 1_554 S
C3143 C3142 1.394 . S
C3143 C3144 1.383 . S
C3143 H3151 0.929 . S
C3144 C3143 1.383 . S
C3144 C3145 1.377 . S
C3145 H3129 0.930 . S
C3145 C3144 1.377 . S
C3145 C3146 1.379 . S
C3146 H3130 0.931 . S
C3146 C3140 1.383 . S
C3146 C3145 1.379 . S
H3147 C3141 0.959 1_556 S
H3148 C3141 0.961 . S
H3149 C3141 0.960 1_556 S
H3150 C3142 0.913 1_556 S
H3151 C3143 0.929 . S
H3152 C3160 0.929 . S
H3153 C3162 0.930 . S
H3154 C3164 0.930 . S
H3155 C3167 0.929 . S
H3156 C3170 0.930 . S
H3157 C3172 0.960 . S
H3158 C3172 0.960 . S
H3159 C3172 0.960 . S
C3160 H3152 0.929 . S
C3160 C3161 1.377 . S
C3160 C3162 1.384 . S
C3161 C3160 1.377 . S
C3161 C3167 1.390 . S
C3162 H3153 0.930 . S
C3162 C3160 1.384 . S
C3162 C3163 1.372 . S
C3163 C3162 1.372 . S
C3163 C3164 1.400 . S
C3163 C3168 1.490 . S
C3164 H3154 0.930 . S
C3164 C3163 1.400 . S
C3164 C3167 1.386 . S
H3165 C3181 0.930 . S
H3166 C3182 0.931 . S
C3167 H3155 0.929 . S
C3167 C3161 1.390 . S
C3167 C3164 1.386 . S
C3168 C3163 1.490 . S
C3168 C3170 1.395 . S
C3168 C3171 1.403 . S
H3169 C3175 0.930 . S
C3170 H3156 0.930 . S
C3170 C3168 1.395 . S
C3170 C3173 1.403 . S
C3171 C3168 1.403 . S
C3171 C3172 1.524 . S
C3171 C3175 1.400 . S
C3172 H3157 0.960 . S
C3172 H3158 0.960 . S
C3172 H3159 0.960 . S
C3172 C3171 1.524 . S
C3173 C3170 1.403 . S
C3173 C3174 1.392 . S
C3173 C3177 1.495 . S
C3174 C3173 1.392 . S
C3174 C3175 1.385 . S
C3174 C3176 1.478 . S
C3175 H3169 0.930 . S
C3175 C3171 1.400 . S
C3175 C3174 1.385 . S
C3176 C3174 1.478 . S
C3176 C3178 1.381 . S
C3176 C3182 1.383 . S
C3177 C3173 1.495 . S
C3177 H3183 0.959 . S
C3177 H3184 0.961 . S
C3177 H3185 0.960 . S
C3178 C3176 1.381 . S
C3178 C3179 1.394 . S
C3178 H3186 0.930 . S
C3179 C3178 1.394 . S
C3179 C3180 1.383 . S
C3179 H3187 0.929 . S
C3180 C3179 1.383 . S
C3180 C3181 1.377 . S
C3181 H3165 0.930 . S
C3181 C3180 1.377 . S
C3181 C3182 1.379 . S
C3182 H3166 0.931 . S
C3182 C3176 1.383 . S
C3182 C3181 1.379 . S
H3183 C3177 0.959 . S
H3184 C3177 0.961 . S
H3185 C3177 0.960 . S
H3186 C3178 0.930 . S
H3187 C3179 0.929 . S
H3188 C3196 0.929 . S
H3189 C3198 0.930 . S
H3190 C3200 0.930 . S
H3191 C3203 0.929 . S
H3192 C3206 0.930 . S
H3193 C3208 0.960 . S
H3194 C3208 0.960 . S
H3195 C3208 0.960 . S
C3196 H3188 0.929 . S
C3196 C3197 1.377 . S
C3196 C3198 1.384 . S
C3197 C3196 1.377 . S
C3197 C3203 1.390 . S
C3198 H3189 0.930 . S
C3198 C3196 1.384 . S
C3198 C3199 1.372 . S
C3199 C3198 1.372 . S
C3199 C3200 1.400 . S
C3199 C3204 1.490 . S
C3200 H3190 0.930 . S
C3200 C3199 1.400 . S
C3200 C3203 1.386 . S
H3201 C3217 0.930 . S
H3202 C3218 0.931 . S
C3203 H3191 0.929 . S
C3203 C3197 1.390 . S
C3203 C3200 1.386 . S
C3204 C3199 1.490 . S
C3204 C3206 1.395 . S
C3204 C3207 1.403 . S
H3205 C3211 0.930 . S
C3206 H3192 0.930 . S
C3206 C3204 1.395 . S
C3206 C3209 1.403 . S
C3207 C3204 1.403 . S
C3207 C3208 1.524 . S
C3207 C3211 1.400 . S
C3208 H3193 0.960 . S
C3208 H3194 0.960 . S
C3208 H3195 0.960 . S
C3208 C3207 1.524 . S
C3209 C3206 1.403 . S
C3209 C3210 1.392 . S
C3209 C3213 1.495 . S
C3210 C3209 1.392 . S
C3210 C3211 1.385 . S
C3210 C3212 1.478 . S
C3211 H3205 0.930 . S
C3211 C3207 1.400 . S
C3211 C3210 1.385 . S
C3212 C3210 1.478 . S
C3212 C3214 1.381 . S
C3212 C3218 1.383 . S
C3213 C3209 1.495 . S
C3213 H3219 0.959 . S
C3213 H3220 0.961 . S
C3213 H3221 0.960 . S
C3214 C3212 1.381 . S
C3214 C3215 1.394 . S
C3214 H3222 0.930 . S
C3215 C3214 1.394 . S
C3215 C3216 1.383 . S
C3215 H3223 0.929 . S
C3216 C3215 1.383 . S
C3216 C3217 1.377 . S
C3217 H3201 0.930 . S
C3217 C3216 1.377 . S
C3217 C3218 1.379 . S
C3218 H3202 0.931 . S
C3218 C3212 1.383 . S
C3218 C3217 1.379 . S
H3219 C3213 0.959 . S
H3220 C3213 0.961 . S
H3221 C3213 0.960 . S
H3222 C3214 0.930 . S
H3223 C3215 0.929 . S
H3224 C3232 0.929 . S
H3225 C3234 0.930 . S
H3226 C3236 0.930 . S
H3227 C3239 0.929 . S
H3228 C3242 0.930 . S
H3229 C3244 0.960 . S
H3230 C3244 0.960 . S
H3231 C3244 0.960 . S
C3232 H3224 0.929 . S
C3232 C3233 1.377 . S
C3232 C3234 1.384 . S
C3233 C3232 1.377 . S
C3233 C3239 1.390 . S
C3234 H3225 0.930 . S
C3234 C3232 1.384 . S
C3234 C3235 1.372 . S
C3235 C3234 1.372 . S
C3235 C3236 1.400 . S
C3235 C3240 1.490 . S
C3236 H3226 0.930 . S
C3236 C3235 1.400 . S
C3236 C3239 1.386 . S
H3237 C3253 0.930 . S
H3238 C3254 0.931 . S
C3239 H3227 0.929 . S
C3239 C3233 1.390 . S
C3239 C3236 1.386 . S
C3240 C3235 1.490 . S
C3240 C3242 1.395 . S
C3240 C3243 1.403 . S
H3241 C3247 0.930 . S
C3242 H3228 0.930 . S
C3242 C3240 1.395 . S
C3242 C3245 1.403 . S
C3243 C3240 1.403 . S
C3243 C3244 1.524 . S
C3243 C3247 1.400 . S
C3244 H3229 0.960 . S
C3244 H3230 0.960 . S
C3244 H3231 0.960 . S
C3244 C3243 1.524 . S
C3245 C3242 1.403 . S
C3245 C3246 1.392 . S
C3245 C3249 1.495 . S
C3246 C3245 1.392 . S
C3246 C3247 1.385 . S
C3246 C3248 1.478 . S
C3247 H3241 0.930 . S
C3247 C3243 1.400 . S
C3247 C3246 1.385 . S
C3248 C3246 1.478 . S
C3248 C3250 1.381 . S
C3248 C3254 1.383 . S
C3249 C3245 1.495 . S
C3249 H3255 0.959 . S
C3249 H3256 0.961 . S
C3249 H3257 0.960 . S
C3250 C3248 1.381 . S
C3250 C3251 1.394 . S
C3250 H3258 0.930 . S
C3251 C3250 1.394 . S
C3251 C3252 1.383 . S
C3251 H3259 0.929 . S
C3252 C3251 1.383 . S
C3252 C3253 1.377 . S
C3253 H3237 0.930 . S
C3253 C3252 1.377 . S
C3253 C3254 1.379 . S
C3254 H3238 0.931 . S
C3254 C3248 1.383 . S
C3254 C3253 1.379 . S
H3255 C3249 0.959 . S
H3256 C3249 0.961 . S
H3257 C3249 0.960 . S
H3258 C3250 0.930 . S
H3259 C3251 0.929 . S
H3260 C3268 0.929 . S
H3261 C3270 0.930 . S
H3262 C3272 0.930 . S
H3263 C3275 0.929 . S
H3264 C3278 0.930 . S
H3265 C3280 0.960 . S
H3266 C3280 0.960 . S
H3267 C3280 0.960 . S
C3268 H3260 0.929 . S
C3268 C3269 1.377 . S
C3268 C3270 1.384 . S
C3269 C3268 1.377 . S
C3269 C3275 1.390 . S
C3270 H3261 0.930 . S
C3270 C3268 1.384 . S
C3270 C3271 1.372 . S
C3271 C3270 1.372 . S
C3271 C3272 1.400 . S
C3271 C3276 1.490 . S
C3272 H3262 0.930 . S
C3272 C3271 1.400 . S
C3272 C3275 1.386 . S
H3273 C3289 0.930 . S
H3274 C3290 0.931 . S
C3275 H3263 0.929 . S
C3275 C3269 1.390 . S
C3275 C3272 1.386 . S
C3276 C3271 1.490 . S
C3276 C3278 1.395 . S
C3276 C3279 1.403 . S
H3277 C3283 0.930 . S
C3278 H3264 0.930 . S
C3278 C3276 1.395 . S
C3278 C3281 1.403 . S
C3279 C3276 1.403 . S
C3279 C3280 1.524 . S
C3279 C3283 1.400 . S
C3280 H3265 0.960 . S
C3280 H3266 0.960 . S
C3280 H3267 0.960 . S
C3280 C3279 1.524 . S
C3281 C3278 1.403 . S
C3281 C3282 1.392 . S
C3281 C3285 1.495 . S
C3282 C3281 1.392 . S
C3282 C3283 1.385 . S
C3282 C3284 1.478 . S
C3283 H3277 0.930 . S
C3283 C3279 1.400 . S
C3283 C3282 1.385 . S
C3284 C3282 1.478 . S
C3284 C3286 1.381 . S
C3284 C3290 1.383 . S
C3285 C3281 1.495 . S
C3285 H3291 0.959 . S
C3285 H3292 0.961 . S
C3285 H3293 0.960 . S
C3286 C3284 1.381 . S
C3286 C3287 1.394 . S
C3286 H3294 0.930 . S
C3287 C3286 1.394 . S
C3287 C3288 1.383 . S
C3287 H3295 0.929 . S
C3288 C3287 1.383 . S
C3288 C3289 1.377 . S
C3289 H3273 0.930 . S
C3289 C3288 1.377 . S
C3289 C3290 1.379 . S
C3290 H3274 0.931 . S
C3290 C3284 1.383 . S
C3290 C3289 1.379 . S
H3291 C3285 0.959 . S
H3292 C3285 0.961 . S
H3293 C3285 0.960 . S
H3294 C3286 0.930 . S
H3295 C3287 0.929 . S
H3296 C3304 0.929 1_655 S
H3297 C3306 0.930 1_655 S
H3298 C3308 0.930 . S
H3299 C3311 0.929 . S
H3300 C3314 0.930 . S
H3301 C3316 0.960 . S
H3302 C3316 0.960 . S
H3303 C3316 0.960 . S
C3304 H3296 0.929 1_455 S
C3304 C3305 1.377 . S
C3304 C3306 1.384 . S
C3305 C3304 1.377 . S
C3305 C3311 1.390 . S
C3306 H3297 0.930 1_455 S
C3306 C3304 1.384 . S
C3306 C3307 1.372 . S
C3307 C3306 1.372 . S
C3307 C3308 1.400 . S
C3307 C3312 1.490 . S
C3308 H3298 0.930 . S
C3308 C3307 1.400 . S
C3308 C3311 1.386 . S
H3309 C3325 0.930 . S
H3310 C3326 0.931 . S
C3311 H3299 0.929 . S
C3311 C3305 1.390 . S
C3311 C3308 1.386 . S
C3312 C3307 1.490 . S
C3312 C3314 1.395 . S
C3312 C3315 1.403 . S
H3313 C3319 0.930 . S
C3314 H3300 0.930 . S
C3314 C3312 1.395 . S
C3314 C3317 1.403 . S
C3315 C3312 1.403 . S
C3315 C3316 1.524 . S
C3315 C3319 1.400 . S
C3316 H3301 0.960 . S
C3316 H3302 0.960 . S
C3316 H3303 0.960 . S
C3316 C3315 1.524 . S
C3317 C3314 1.403 . S
C3317 C3318 1.392 . S
C3317 C3321 1.495 . S
C3318 C3317 1.392 . S
C3318 C3319 1.385 . S
C3318 C3320 1.478 . S
C3319 H3313 0.930 . S
C3319 C3315 1.400 . S
C3319 C3318 1.385 . S
C3320 C3318 1.478 . S
C3320 C3322 1.381 1_455 S
C3320 C3326 1.383 . S
C3321 C3317 1.495 . S
C3321 H3327 0.959 . S
C3321 H3328 0.961 . S
C3321 H3329 0.960 1_455 S
C3322 C3320 1.381 1_655 S
C3322 C3323 1.394 . S
C3322 H3330 0.930 . S
C3323 C3322 1.394 . S
C3323 C3324 1.383 1_655 S
C3323 H3331 0.929 . S
C3324 C3323 1.383 1_455 S
C3324 C3325 1.377 . S
C3325 H3309 0.930 . S
C3325 C3324 1.377 . S
C3325 C3326 1.379 . S
C3326 H3310 0.931 . S
C3326 C3320 1.383 . S
C3326 C3325 1.379 . S
H3327 C3321 0.959 . S
H3328 C3321 0.961 . S
H3329 C3321 0.960 1_655 S
H3330 C3322 0.930 . S
H3331 C3323 0.929 . S
H3332 C3340 0.929 . S
H3333 C3342 0.930 . S
H3334 C3344 0.930 . S
H3335 C3347 0.929 . S
H3336 C3350 0.930 . S
H3337 C3352 0.960 . S
H3338 C3352 0.960 . S
H3339 C3352 0.960 . S
C3340 H3332 0.929 . S
C3340 C3341 1.377 . S
C3340 C3342 1.384 . S
C3341 C3340 1.377 . S
C3341 C3347 1.390 . S
C3342 H3333 0.930 . S
C3342 C3340 1.384 . S
C3342 C3343 1.372 . S
C3343 C3342 1.372 . S
C3343 C3344 1.400 . S
C3343 C3348 1.490 . S
C3344 H3334 0.930 . S
C3344 C3343 1.400 . S
C3344 C3347 1.386 . S
H3345 C3361 0.930 . S
H3346 C3362 0.931 . S
C3347 H3335 0.929 . S
C3347 C3341 1.390 . S
C3347 C3344 1.386 . S
C3348 C3343 1.490 . S
C3348 C3350 1.395 . S
C3348 C3351 1.403 . S
H3349 C3355 0.930 . S
C3350 H3336 0.930 . S
C3350 C3348 1.395 . S
C3350 C3353 1.403 . S
C3351 C3348 1.403 . S
C3351 C3352 1.524 . S
C3351 C3355 1.400 . S
C3352 H3337 0.960 . S
C3352 H3338 0.960 . S
C3352 H3339 0.960 . S
C3352 C3351 1.524 . S
C3353 C3350 1.403 . S
C3353 C3354 1.392 . S
C3353 C3357 1.495 . S
C3354 C3353 1.392 . S
C3354 C3355 1.385 . S
C3354 C3356 1.478 . S
C3355 H3349 0.930 . S
C3355 C3351 1.400 . S
C3355 C3354 1.385 . S
C3356 C3354 1.478 . S
C3356 C3358 1.381 . S
C3356 C3362 1.383 . S
C3357 C3353 1.495 . S
C3357 H3363 0.959 . S
C3357 H3364 0.961 . S
C3357 H3365 0.960 . S
C3358 C3356 1.381 . S
C3358 C3359 1.394 . S
C3358 H3366 0.930 . S
C3359 C3358 1.394 . S
C3359 C3360 1.383 . S
C3359 H3367 0.929 . S
C3360 C3359 1.383 . S
C3360 C3361 1.377 . S
C3361 H3345 0.930 . S
C3361 C3360 1.377 . S
C3361 C3362 1.379 . S
C3362 H3346 0.931 . S
C3362 C3356 1.383 . S
C3362 C3361 1.379 . S
H3363 C3357 0.959 . S
H3364 C3357 0.961 . S
H3365 C3357 0.960 . S
H3366 C3358 0.930 . S
H3367 C3359 0.929 . S
H3368 C3376 0.929 . S
H3369 C3378 0.930 . S
H3370 C3380 0.930 . S
H3371 C3383 0.929 . S
H3372 C3386 0.930 . S
H3373 C3388 0.960 . S
H3374 C3388 0.960 . S
H3375 C3388 0.960 . S
C3376 H3368 0.929 . S
C3376 C3377 1.377 . S
C3376 C3378 1.384 . S
C3377 C3376 1.377 . S
C3377 C3383 1.390 . S
C3378 H3369 0.930 . S
C3378 C3376 1.384 . S
C3378 C3379 1.372 . S
C3379 C3378 1.372 . S
C3379 C3380 1.400 . S
C3379 C3384 1.490 . S
C3380 H3370 0.930 . S
C3380 C3379 1.400 . S
C3380 C3383 1.386 . S
H3381 C3397 0.930 1_554 S
H3382 C3398 0.931 . S
C3383 H3371 0.929 . S
C3383 C3377 1.390 . S
C3383 C3380 1.386 . S
C3384 C3379 1.490 . S
C3384 C3386 1.395 . S
C3384 C3387 1.403 . S
H3385 C3391 0.930 . S
C3386 H3372 0.930 . S
C3386 C3384 1.395 . S
C3386 C3389 1.403 . S
C3387 C3384 1.403 . S
C3387 C3388 1.524 . S
C3387 C3391 1.400 . S
C3388 H3373 0.960 . S
C3388 H3374 0.960 . S
C3388 H3375 0.960 . S
C3388 C3387 1.524 . S
C3389 C3386 1.403 . S
C3389 C3390 1.392 . S
C3389 C3393 1.495 . S
C3390 C3389 1.392 . S
C3390 C3391 1.385 . S
C3390 C3392 1.478 . S
C3391 H3385 0.930 . S
C3391 C3387 1.400 . S
C3391 C3390 1.385 . S
C3392 C3390 1.478 . S
C3392 C3394 1.381 . S
C3392 C3398 1.383 . S
C3393 C3389 1.495 . S
C3393 H3399 0.959 . S
C3393 H3400 0.961 . S
C3393 H3401 0.960 . S
C3394 C3392 1.381 . S
C3394 C3395 1.394 . S
C3394 H3402 0.930 . S
C3395 C3394 1.394 . S
C3395 C3396 1.383 . S
C3395 H3403 0.929 . S
C3396 C3395 1.383 . S
C3396 C3397 1.377 . S
C3397 H3381 0.930 1_556 S
C3397 C3396 1.377 . S
C3397 C3398 1.379 . S
C3398 H3382 0.931 . S
C3398 C3392 1.383 . S
C3398 C3397 1.379 . S
H3399 C3393 0.959 . S
H3400 C3393 0.961 . S
H3401 C3393 0.960 . S
H3402 C3394 0.930 . S
H3403 C3395 0.929 . S
H3404 C3412 0.929 . S
H3405 C3414 0.930 . S
H3406 C3416 0.930 . S
H3407 C3419 0.929 . S
H3408 C3422 0.930 . S
H3409 C3424 0.960 . S
H3410 C3424 0.960 . S
H3411 C3424 0.960 . S
C3412 H3404 0.929 . S
C3412 C3413 1.377 . S
C3412 C3414 1.384 . S
C3413 C3412 1.377 . S
C3413 C3419 1.390 . S
C3414 H3405 0.930 . S
C3414 C3412 1.384 . S
C3414 C3415 1.372 . S
C3415 C3414 1.372 . S
C3415 C3416 1.400 . S
C3415 C3420 1.490 . S
C3416 H3406 0.930 . S
C3416 C3415 1.400 . S
C3416 C3419 1.386 . S
H3417 C3433 0.930 . S
H3418 C3434 0.931 . S
C3419 H3407 0.929 . S
C3419 C3413 1.390 . S
C3419 C3416 1.386 . S
C3420 C3415 1.490 . S
C3420 C3422 1.395 . S
C3420 C3423 1.403 . S
H3421 C3427 0.930 . S
C3422 H3408 0.930 . S
C3422 C3420 1.395 . S
C3422 C3425 1.403 . S
C3423 C3420 1.403 . S
C3423 C3424 1.524 . S
C3423 C3427 1.400 . S
C3424 H3409 0.960 . S
C3424 H3410 0.960 . S
C3424 H3411 0.960 . S
C3424 C3423 1.524 . S
C3425 C3422 1.403 . S
C3425 C3426 1.392 . S
C3425 C3429 1.495 . S
C3426 C3425 1.392 . S
C3426 C3427 1.385 . S
C3426 C3428 1.478 . S
C3427 H3421 0.930 . S
C3427 C3423 1.400 . S
C3427 C3426 1.385 . S
C3428 C3426 1.478 . S
C3428 C3430 1.381 . S
C3428 C3434 1.383 . S
C3429 C3425 1.495 . S
C3429 H3435 0.959 . S
C3429 H3436 0.961 . S
C3429 H3437 0.960 . S
C3430 C3428 1.381 . S
C3430 C3431 1.394 . S
C3430 H3438 0.930 . S
C3431 C3430 1.394 . S
C3431 C3432 1.383 . S
C3431 H3439 0.929 . S
C3432 C3431 1.383 . S
C3432 C3433 1.377 . S
C3433 H3417 0.930 . S
C3433 C3432 1.377 . S
C3433 C3434 1.379 . S
C3434 H3418 0.931 . S
C3434 C3428 1.383 . S
C3434 C3433 1.379 . S
H3435 C3429 0.959 . S
H3436 C3429 0.961 . S
H3437 C3429 0.960 . S
H3438 C3430 0.930 . S
H3439 C3431 0.929 . S
H3440 C3448 0.929 . S
H3441 C3450 0.930 . S
H3442 C3452 0.930 . S
H3443 C3455 0.929 . S
H3444 C3458 0.930 . S
H3445 C3460 0.960 . S
H3446 C3460 0.960 . S
H3447 C3460 0.960 . S
C3448 H3440 0.929 . S
C3448 C3449 1.377 . S
C3448 C3450 1.384 . S
C3449 C3448 1.377 . S
C3449 C3455 1.390 . S
C3450 H3441 0.930 . S
C3450 C3448 1.384 . S
C3450 C3451 1.372 . S
C3451 C3450 1.372 . S
C3451 C3452 1.400 . S
C3451 C3456 1.490 . S
C3452 H3442 0.930 . S
C3452 C3451 1.400 . S
C3452 C3455 1.386 . S
H3453 C3469 0.930 1_655 S
H3454 C3470 0.931 1_655 S
C3455 H3443 0.929 . S
C3455 C3449 1.390 . S
C3455 C3452 1.386 . S
C3456 C3451 1.490 . S
C3456 C3458 1.395 . S
C3456 C3459 1.403 . S
H3457 C3463 0.930 . S
C3458 H3444 0.930 . S
C3458 C3456 1.395 . S
C3458 C3461 1.403 . S
C3459 C3456 1.403 . S
C3459 C3460 1.524 . S
C3459 C3463 1.400 . S
C3460 H3445 0.960 . S
C3460 H3446 0.960 . S
C3460 H3447 0.960 . S
C3460 C3459 1.524 . S
C3461 C3458 1.403 . S
C3461 C3462 1.392 . S
C3461 C3465 1.495 . S
C3462 C3461 1.392 . S
C3462 C3463 1.385 . S
C3462 C3464 1.478 . S
C3463 H3457 0.930 . S
C3463 C3459 1.400 . S
C3463 C3462 1.385 . S
C3464 C3462 1.478 . S
C3464 C3466 1.381 . S
C3464 C3470 1.383 . S
C3465 C3461 1.495 . S
C3465 H3471 0.959 . S
C3465 H3472 0.910 1_455 S
C3465 H3473 0.960 . S
C3466 C3464 1.381 . S
C3466 C3467 1.394 . S
C3466 H3474 0.930 . S
C3467 C3466 1.394 . S
C3467 C3468 1.383 . S
C3467 H3475 0.929 . S
C3468 C3467 1.383 . S
C3468 C3469 1.377 . S
C3469 H3453 0.930 1_455 S
C3469 C3468 1.377 . S
C3469 C3470 1.379 . S
C3470 H3454 0.931 1_455 S
C3470 C3464 1.383 . S
C3470 C3469 1.379 . S
H3471 C3465 0.959 . S
H3472 C3465 0.910 1_655 S
H3473 C3465 0.960 . S
H3474 C3466 0.930 . S
H3475 C3467 0.929 . S
H3476 C3484 0.929 . S
H3477 C3486 0.930 . S
H3478 C3488 0.930 . S
H3479 C3491 0.929 . S
H3480 C3494 0.930 . S
H3481 C3496 0.960 . S
H3482 C3496 0.960 . S
H3483 C3496 0.960 . S
C3484 H3476 0.929 . S
C3484 C3485 1.377 . S
C3484 C3486 1.384 . S
C3485 C3484 1.377 . S
C3485 C3491 1.390 . S
C3486 H3477 0.930 . S
C3486 C3484 1.384 . S
C3486 C3487 1.372 . S
C3487 C3486 1.372 . S
C3487 C3488 1.400 . S
C3487 C3492 1.490 . S
C3488 H3478 0.930 . S
C3488 C3487 1.400 . S
C3488 C3491 1.386 . S
H3489 C3505 0.930 . S
H3490 C3506 0.931 . S
C3491 H3479 0.929 . S
C3491 C3485 1.390 . S
C3491 C3488 1.386 . S
C3492 C3487 1.490 . S
C3492 C3494 1.395 . S
C3492 C3495 1.403 . S
H3493 C3499 0.930 . S
C3494 H3480 0.930 . S
C3494 C3492 1.395 . S
C3494 C3497 1.403 . S
C3495 C3492 1.403 . S
C3495 C3496 1.524 . S
C3495 C3499 1.400 . S
C3496 H3481 0.960 . S
C3496 H3482 0.960 . S
C3496 H3483 0.960 . S
C3496 C3495 1.524 . S
C3497 C3494 1.403 . S
C3497 C3498 1.392 . S
C3497 C3501 1.495 . S
C3498 C3497 1.392 . S
C3498 C3499 1.385 . S
C3498 C3500 1.478 . S
C3499 H3493 0.930 . S
C3499 C3495 1.400 . S
C3499 C3498 1.385 . S
C3500 C3498 1.478 . S
C3500 C3502 1.381 . S
C3500 C3506 1.383 . S
C3501 C3497 1.495 . S
C3501 H3507 0.959 . S
C3501 H3508 0.961 . S
C3501 H3509 0.960 . S
C3502 C3500 1.381 . S
C3502 C3503 1.394 . S
C3502 H3510 0.930 . S
C3503 C3502 1.394 . S
C3503 C3504 1.383 . S
C3503 H3511 0.929 . S
C3504 C3503 1.383 . S
C3504 C3505 1.377 . S
C3505 H3489 0.930 . S
C3505 C3504 1.377 . S
C3505 C3506 1.379 . S
C3506 H3490 0.931 . S
C3506 C3500 1.383 . S
C3506 C3505 1.379 . S
H3507 C3501 0.959 . S
H3508 C3501 0.961 . S
H3509 C3501 0.960 . S
H3510 C3502 0.930 . S
H3511 C3503 0.929 . S
H3512 C3520 0.929 . S
H3513 C3522 0.930 . S
H3514 C3524 0.930 . S
H3515 C3527 0.929 . S
H3516 C3530 0.930 . S
H3517 C3532 0.960 . S
H3518 C3532 0.960 . S
H3519 C3532 0.960 . S
C3520 H3512 0.929 . S
C3520 C3521 1.377 . S
C3520 C3522 1.384 . S
C3521 C3520 1.377 . S
C3521 C3527 1.390 . S
C3522 H3513 0.930 . S
C3522 C3520 1.384 . S
C3522 C3523 1.372 . S
C3523 C3522 1.372 . S
C3523 C3524 1.400 . S
C3523 C3528 1.490 . S
C3524 H3514 0.930 . S
C3524 C3523 1.400 . S
C3524 C3527 1.386 . S
H3525 C3541 0.930 . S
H3526 C3542 0.931 . S
C3527 H3515 0.929 . S
C3527 C3521 1.390 . S
C3527 C3524 1.386 . S
C3528 C3523 1.490 . S
C3528 C3530 1.395 . S
C3528 C3531 1.403 . S
H3529 C3535 0.930 . S
C3530 H3516 0.930 . S
C3530 C3528 1.395 . S
C3530 C3533 1.403 . S
C3531 C3528 1.403 . S
C3531 C3532 1.524 . S
C3531 C3535 1.400 . S
C3532 H3517 0.960 . S
C3532 H3518 0.960 . S
C3532 H3519 0.960 . S
C3532 C3531 1.524 . S
C3533 C3530 1.403 . S
C3533 C3534 1.392 . S
C3533 C3537 1.495 . S
C3534 C3533 1.392 . S
C3534 C3535 1.385 . S
C3534 C3536 1.478 . S
C3535 H3529 0.930 . S
C3535 C3531 1.400 . S
C3535 C3534 1.385 . S
C3536 C3534 1.478 . S
C3536 C3538 1.381 . S
C3536 C3542 1.383 . S
C3537 C3533 1.495 . S
C3537 H3543 0.959 . S
C3537 H3544 0.961 . S
C3537 H3545 0.960 . S
C3538 C3536 1.381 . S
C3538 C3539 1.394 . S
C3538 H3546 0.930 . S
C3539 C3538 1.394 . S
C3539 C3540 1.383 . S
C3539 H3547 0.929 . S
C3540 C3539 1.383 . S
C3540 C3541 1.377 . S
C3541 H3525 0.930 . S
C3541 C3540 1.377 . S
C3541 C3542 1.379 . S
C3542 H3526 0.931 . S
C3542 C3536 1.383 . S
C3542 C3541 1.379 . S
H3543 C3537 0.959 . S
H3544 C3537 0.961 . S
H3545 C3537 0.960 . S
H3546 C3538 0.930 . S
H3547 C3539 0.929 . S
H3548 C3556 0.929 . S
H3549 C3558 0.930 . S
H3550 C3560 0.930 . S
H3551 C3563 0.929 . S
H3552 C3566 0.930 . S
H3553 C3568 0.960 . S
H3554 C3568 0.960 . S
H3555 C3568 0.960 . S
C3556 H3548 0.929 . S
C3556 C3557 1.377 . S
C3556 C3558 1.384 . S
C3557 C3556 1.377 . S
C3557 C3563 1.390 . S
C3558 H3549 0.930 . S
C3558 C3556 1.384 . S
C3558 C3559 1.372 . S
C3559 C3558 1.372 . S
C3559 C3560 1.400 . S
C3559 C3564 1.490 . S
C3560 H3550 0.930 . S
C3560 C3559 1.400 . S
C3560 C3563 1.386 . S
H3561 C3577 0.930 . S
H3562 C3578 0.931 . S
C3563 H3551 0.929 . S
C3563 C3557 1.390 . S
C3563 C3560 1.386 . S
C3564 C3559 1.490 . S
C3564 C3566 1.395 . S
C3564 C3567 1.403 . S
H3565 C3571 0.930 . S
C3566 H3552 0.930 . S
C3566 C3564 1.395 . S
C3566 C3569 1.403 . S
C3567 C3564 1.403 . S
C3567 C3568 1.524 . S
C3567 C3571 1.400 . S
C3568 H3553 0.960 . S
C3568 H3554 0.960 . S
C3568 H3555 0.960 . S
C3568 C3567 1.524 . S
C3569 C3566 1.403 . S
C3569 C3570 1.392 . S
C3569 C3573 1.495 . S
C3570 C3569 1.392 . S
C3570 C3571 1.385 . S
C3570 C3572 1.478 . S
C3571 H3565 0.930 . S
C3571 C3567 1.400 . S
C3571 C3570 1.385 . S
C3572 C3570 1.478 . S
C3572 C3574 1.381 . S
C3572 C3578 1.383 . S
C3573 C3569 1.495 . S
C3573 H3579 0.959 . S
C3573 H3580 0.961 . S
C3573 H3581 0.960 . S
C3574 C3572 1.381 . S
C3574 C3575 1.394 . S
C3574 H3582 0.930 . S
C3575 C3574 1.394 . S
C3575 C3576 1.383 . S
C3575 H3583 0.929 . S
C3576 C3575 1.383 . S
C3576 C3577 1.377 . S
C3577 H3561 0.930 . S
C3577 C3576 1.377 . S
C3577 C3578 1.379 . S
C3578 H3562 0.931 . S
C3578 C3572 1.383 . S
C3578 C3577 1.379 . S
H3579 C3573 0.959 . S
H3580 C3573 0.961 . S
H3581 C3573 0.960 . S
H3582 C3574 0.930 . S
H3583 C3575 0.929 . S
H3584 C3592 0.929 . S
H3585 C3594 0.930 . S
H3586 C3596 0.930 . S
H3587 C3599 0.929 . S
H3588 C3602 0.930 . S
H3589 C3604 0.960 . S
H3590 C3604 0.960 . S
H3591 C3604 0.960 . S
C3592 H3584 0.929 . S
C3592 C3593 1.377 . S
C3592 C3594 1.384 . S
C3593 C3592 1.377 . S
C3593 C3599 1.390 . S
C3594 H3585 0.930 . S
C3594 C3592 1.384 . S
C3594 C3595 1.372 . S
C3595 C3594 1.372 . S
C3595 C3596 1.400 . S
C3595 C3600 1.490 . S
C3596 H3586 0.930 . S
C3596 C3595 1.400 . S
C3596 C3599 1.386 . S
H3597 C3613 0.930 . S
H3598 C3614 0.934 1_455 S
C3599 H3587 0.929 . S
C3599 C3593 1.390 . S
C3599 C3596 1.386 . S
C3600 C3595 1.490 . S
C3600 C3602 1.395 . S
C3600 C3603 1.403 . S
H3601 C3607 0.930 . S
C3602 H3588 0.930 . S
C3602 C3600 1.395 . S
C3602 C3605 1.403 . S
C3603 C3600 1.403 . S
C3603 C3604 1.524 . S
C3603 C3607 1.400 . S
C3604 H3589 0.960 . S
C3604 H3590 0.960 . S
C3604 H3591 0.960 . S
C3604 C3603 1.524 . S
C3605 C3602 1.403 . S
C3605 C3606 1.392 . S
C3605 C3609 1.495 . S
C3606 C3605 1.392 . S
C3606 C3607 1.385 . S
C3606 C3608 1.478 . S
C3607 H3601 0.930 . S
C3607 C3603 1.400 . S
C3607 C3606 1.385 . S
C3608 C3606 1.478 . S
C3608 C3610 1.381 . S
C3608 C3614 1.383 . S
C3609 C3605 1.495 . S
C3609 H3615 0.959 . S
C3609 H3616 0.961 . S
C3609 H3617 0.960 . S
C3610 C3608 1.381 . S
C3610 C3611 1.394 . S
C3610 H3618 0.930 . S
C3611 C3610 1.394 . S
C3611 C3612 1.383 . S
C3611 H3619 0.929 . S
C3612 C3611 1.383 . S
C3612 C3613 1.377 1_655 S
C3613 H3597 0.930 . S
C3613 C3612 1.377 1_455 S
C3613 C3614 1.379 1_455 S
C3614 H3598 0.934 1_655 S
C3614 C3608 1.383 . S
C3614 C3613 1.379 1_655 S
H3615 C3609 0.959 . S
H3616 C3609 0.961 . S
H3617 C3609 0.960 . S
H3618 C3610 0.930 . S
H3619 C3611 0.929 . S
H3620 C3628 0.929 . S
H3621 C3630 0.930 . S
H3622 C3632 0.930 . S
H3623 C3635 0.929 . S
H3624 C3638 0.930 . S
H3625 C3640 0.960 . S
H3626 C3640 0.960 . S
H3627 C3640 0.960 . S
C3628 H3620 0.929 . S
C3628 C3629 1.377 . S
C3628 C3630 1.384 . S
C3629 C3628 1.377 . S
C3629 C3635 1.390 . S
C3630 H3621 0.930 . S
C3630 C3628 1.384 . S
C3630 C3631 1.372 . S
C3631 C3630 1.372 . S
C3631 C3632 1.400 . S
C3631 C3636 1.490 . S
C3632 H3622 0.930 . S
C3632 C3631 1.400 . S
C3632 C3635 1.386 . S
H3633 C3649 0.930 . S
H3634 C3650 0.931 . S
C3635 H3623 0.929 . S
C3635 C3629 1.390 . S
C3635 C3632 1.386 . S
C3636 C3631 1.490 . S
C3636 C3638 1.395 . S
C3636 C3639 1.403 . S
H3637 C3643 0.930 . S
C3638 H3624 0.930 . S
C3638 C3636 1.395 . S
C3638 C3641 1.403 . S
C3639 C3636 1.403 . S
C3639 C3640 1.524 . S
C3639 C3643 1.400 . S
C3640 H3625 0.960 . S
C3640 H3626 0.960 . S
C3640 H3627 0.960 . S
C3640 C3639 1.524 . S
C3641 C3638 1.403 . S
C3641 C3642 1.392 . S
C3641 C3645 1.495 . S
C3642 C3641 1.392 . S
C3642 C3643 1.385 . S
C3642 C3644 1.478 . S
C3643 H3637 0.930 . S
C3643 C3639 1.400 . S
C3643 C3642 1.385 . S
C3644 C3642 1.478 . S
C3644 C3646 1.381 . S
C3644 C3650 1.383 . S
C3645 C3641 1.495 . S
C3645 H3651 0.959 . S
C3645 H3652 0.961 . S
C3645 H3653 0.960 . S
C3646 C3644 1.381 . S
C3646 C3647 1.394 . S
C3646 H3654 0.930 . S
C3647 C3646 1.394 . S
C3647 C3648 1.383 . S
C3647 H3655 0.929 . S
C3648 C3647 1.383 . S
C3648 C3649 1.377 . S
C3649 H3633 0.930 . S
C3649 C3648 1.377 . S
C3649 C3650 1.379 . S
C3650 H3634 0.931 . S
C3650 C3644 1.383 . S
C3650 C3649 1.379 . S
H3651 C3645 0.959 . S
H3652 C3645 0.961 . S
H3653 C3645 0.960 . S
H3654 C3646 0.930 . S
H3655 C3647 0.929 . S
H3656 C3664 0.929 . S
H3657 C3666 0.930 . S
H3658 C3668 0.930 . S
H3659 C3671 0.929 . S
H3660 C3674 0.930 . S
H3661 C3676 0.960 . S
H3662 C3676 0.960 . S
H3663 C3676 0.960 . S
C3664 H3656 0.929 . S
C3664 C3665 1.377 . S
C3664 C3666 1.384 . S
C3665 C3664 1.377 . S
C3665 C3671 1.390 . S
C3666 H3657 0.930 . S
C3666 C3664 1.384 . S
C3666 C3667 1.372 . S
C3667 C3666 1.372 . S
C3667 C3668 1.400 . S
C3667 C3672 1.490 . S
C3668 H3658 0.930 . S
C3668 C3667 1.400 . S
C3668 C3671 1.386 . S
H3669 C3685 0.930 . S
H3670 C3686 0.931 . S
C3671 H3659 0.929 . S
C3671 C3665 1.390 . S
C3671 C3668 1.386 . S
C3672 C3667 1.490 . S
C3672 C3674 1.395 . S
C3672 C3675 1.403 . S
H3673 C3679 0.930 . S
C3674 H3660 0.930 . S
C3674 C3672 1.395 . S
C3674 C3677 1.403 . S
C3675 C3672 1.403 . S
C3675 C3676 1.524 . S
C3675 C3679 1.400 . S
C3676 H3661 0.960 . S
C3676 H3662 0.960 . S
C3676 H3663 0.960 . S
C3676 C3675 1.524 . S
C3677 C3674 1.403 . S
C3677 C3678 1.392 . S
C3677 C3681 1.495 . S
C3678 C3677 1.392 . S
C3678 C3679 1.385 . S
C3678 C3680 1.478 . S
C3679 H3673 0.930 . S
C3679 C3675 1.400 . S
C3679 C3678 1.385 . S
C3680 C3678 1.478 . S
C3680 C3682 1.381 . S
C3680 C3686 1.383 . S
C3681 C3677 1.495 . S
C3681 H3687 0.959 . S
C3681 H3688 0.961 . S
C3681 H3689 0.960 . S
C3682 C3680 1.381 . S
C3682 C3683 1.394 . S
C3682 H3690 0.930 . S
C3683 C3682 1.394 . S
C3683 C3684 1.383 . S
C3683 H3691 0.929 . S
C3684 C3683 1.383 . S
C3684 C3685 1.377 . S
C3685 H3669 0.930 . S
C3685 C3684 1.377 . S
C3685 C3686 1.379 . S
C3686 H3670 0.931 . S
C3686 C3680 1.383 . S
C3686 C3685 1.379 . S
H3687 C3681 0.959 . S
H3688 C3681 0.961 . S
H3689 C3681 0.960 . S
H3690 C3682 0.930 . S
H3691 C3683 0.929 . S
H3692 C3700 0.929 . S
H3693 C3702 0.930 . S
H3694 C3704 0.930 . S
H3695 C3707 0.929 . S
H3696 C3710 0.930 . S
H3697 C3712 0.960 . S
H3698 C3712 0.960 . S
H3699 C3712 0.960 . S
C3700 H3692 0.929 . S
C3700 C3701 1.377 . S
C3700 C3702 1.384 . S
C3701 C3700 1.377 . S
C3701 C3707 1.390 . S
C3702 H3693 0.930 . S
C3702 C3700 1.384 . S
C3702 C3703 1.372 . S
C3703 C3702 1.372 . S
C3703 C3704 1.400 . S
C3703 C3708 1.490 . S
C3704 H3694 0.930 . S
C3704 C3703 1.400 . S
C3704 C3707 1.386 . S
H3705 C3721 0.930 . S
H3706 C3722 0.931 . S
C3707 H3695 0.929 . S
C3707 C3701 1.390 . S
C3707 C3704 1.386 . S
C3708 C3703 1.490 . S
C3708 C3710 1.395 . S
C3708 C3711 1.403 . S
H3709 C3715 0.930 . S
C3710 H3696 0.930 . S
C3710 C3708 1.395 . S
C3710 C3713 1.403 . S
C3711 C3708 1.403 . S
C3711 C3712 1.524 . S
C3711 C3715 1.400 . S
C3712 H3697 0.960 . S
C3712 H3698 0.960 . S
C3712 H3699 0.960 . S
C3712 C3711 1.524 . S
C3713 C3710 1.403 . S
C3713 C3714 1.392 . S
C3713 C3717 1.495 . S
C3714 C3713 1.392 . S
C3714 C3715 1.385 . S
C3714 C3716 1.478 . S
C3715 H3709 0.930 . S
C3715 C3711 1.400 . S
C3715 C3714 1.385 . S
C3716 C3714 1.478 . S
C3716 C3718 1.381 . S
C3716 C3722 1.383 . S
C3717 C3713 1.495 . S
C3717 H3723 0.959 . S
C3717 H3724 0.961 . S
C3717 H3725 0.960 . S
C3718 C3716 1.381 . S
C3718 C3719 1.394 . S
C3718 H3726 0.930 . S
C3719 C3718 1.394 . S
C3719 C3720 1.383 . S
C3719 H3727 0.929 . S
C3720 C3719 1.383 . S
C3720 C3721 1.377 . S
C3721 H3705 0.930 . S
C3721 C3720 1.377 . S
C3721 C3722 1.379 . S
C3722 H3706 0.931 . S
C3722 C3716 1.383 . S
C3722 C3721 1.379 . S
H3723 C3717 0.959 . S
H3724 C3717 0.961 . S
H3725 C3717 0.960 . S
H3726 C3718 0.930 . S
H3727 C3719 0.929 . S
H3728 C3736 0.929 . S
H3729 C3738 0.930 . S
H3730 C3740 0.930 . S
H3731 C3743 0.929 . S
H3732 C3746 0.930 . S
H3733 C3748 0.960 . S
H3734 C3748 0.960 . S
H3735 C3748 0.960 . S
C3736 H3728 0.929 . S
C3736 C3737 1.377 . S
C3736 C3738 1.384 . S
C3737 C3736 1.377 . S
C3737 C3743 1.390 . S
C3738 H3729 0.930 . S
C3738 C3736 1.384 . S
C3738 C3739 1.372 . S
C3739 C3738 1.372 . S
C3739 C3740 1.400 . S
C3739 C3744 1.490 . S
C3740 H3730 0.930 . S
C3740 C3739 1.400 . S
C3740 C3743 1.386 . S
H3741 C3757 0.930 . S
H3742 C3758 0.931 . S
C3743 H3731 0.929 . S
C3743 C3737 1.390 . S
C3743 C3740 1.386 . S
C3744 C3739 1.490 . S
C3744 C3746 1.395 . S
C3744 C3747 1.403 . S
H3745 C3751 0.930 . S
C3746 H3732 0.930 . S
C3746 C3744 1.395 . S
C3746 C3749 1.403 . S
C3747 C3744 1.403 . S
C3747 C3748 1.524 . S
C3747 C3751 1.400 . S
C3748 H3733 0.960 . S
C3748 H3734 0.960 . S
C3748 H3735 0.960 . S
C3748 C3747 1.524 . S
C3749 C3746 1.403 . S
C3749 C3750 1.392 . S
C3749 C3753 1.495 . S
C3750 C3749 1.392 . S
C3750 C3751 1.385 . S
C3750 C3752 1.478 . S
C3751 H3745 0.930 . S
C3751 C3747 1.400 . S
C3751 C3750 1.385 . S
C3752 C3750 1.478 . S
C3752 C3754 1.381 . S
C3752 C3758 1.383 . S
C3753 C3749 1.495 . S
C3753 H3759 0.959 . S
C3753 H3760 0.961 . S
C3753 H3761 0.960 . S
C3754 C3752 1.381 . S
C3754 C3755 1.394 . S
C3754 H3762 0.930 . S
C3755 C3754 1.394 . S
C3755 C3756 1.383 . S
C3755 H3763 0.929 . S
C3756 C3755 1.383 . S
C3756 C3757 1.377 . S
C3757 H3741 0.930 . S
C3757 C3756 1.377 . S
C3757 C3758 1.379 . S
C3758 H3742 0.931 . S
C3758 C3752 1.383 . S
C3758 C3757 1.379 . S
H3759 C3753 0.959 . S
H3760 C3753 0.961 . S
H3761 C3753 0.960 . S
H3762 C3754 0.930 . S
H3763 C3755 0.929 . S
H3764 C3772 0.929 . S
H3765 C3774 0.930 . S
H3766 C3776 0.930 . S
H3767 C3779 0.929 . S
H3768 C3782 0.930 . S
H3769 C3784 0.960 . S
H3770 C3784 0.960 . S
H3771 C3784 0.960 . S
C3772 H3764 0.929 . S
C3772 C3773 1.377 . S
C3772 C3774 1.384 . S
C3773 C3772 1.377 . S
C3773 C3779 1.390 . S
C3774 H3765 0.930 . S
C3774 C3772 1.384 . S
C3774 C3775 1.372 . S
C3775 C3774 1.372 . S
C3775 C3776 1.400 . S
C3775 C3780 1.490 . S
C3776 H3766 0.930 . S
C3776 C3775 1.400 . S
C3776 C3779 1.386 . S
H3777 C3793 0.930 . S
H3778 C3794 0.931 . S
C3779 H3767 0.929 . S
C3779 C3773 1.390 . S
C3779 C3776 1.386 . S
C3780 C3775 1.490 . S
C3780 C3782 1.395 . S
C3780 C3783 1.403 . S
H3781 C3787 0.930 . S
C3782 H3768 0.930 . S
C3782 C3780 1.395 . S
C3782 C3785 1.403 . S
C3783 C3780 1.403 . S
C3783 C3784 1.524 . S
C3783 C3787 1.400 . S
C3784 H3769 0.960 . S
C3784 H3770 0.960 . S
C3784 H3771 0.960 . S
C3784 C3783 1.524 . S
C3785 C3782 1.403 . S
C3785 C3786 1.392 . S
C3785 C3789 1.495 . S
C3786 C3785 1.392 . S
C3786 C3787 1.385 . S
C3786 C3788 1.478 . S
C3787 H3781 0.930 . S
C3787 C3783 1.400 . S
C3787 C3786 1.385 . S
C3788 C3786 1.478 . S
C3788 C3790 1.381 . S
C3788 C3794 1.383 . S
C3789 C3785 1.495 . S
C3789 H3795 0.959 . S
C3789 H3796 0.961 . S
C3789 H3797 0.960 . S
C3790 C3788 1.381 . S
C3790 C3791 1.394 . S
C3790 H3798 0.930 . S
C3791 C3790 1.394 . S
C3791 C3792 1.383 . S
C3791 H3799 0.929 . S
C3792 C3791 1.383 . S
C3792 C3793 1.377 . S
C3793 H3777 0.930 . S
C3793 C3792 1.377 . S
C3793 C3794 1.379 . S
C3794 H3778 0.931 . S
C3794 C3788 1.383 . S
C3794 C3793 1.379 . S
H3795 C3789 0.959 . S
H3796 C3789 0.961 . S
H3797 C3789 0.960 . S
H3798 C3790 0.930 . S
H3799 C3791 0.929 . S
H3800 C3808 0.929 . S
H3801 C3810 0.930 . S
H3802 C3812 0.930 . S
H3803 C3815 0.929 . S
H3804 C3818 0.930 . S
H3805 C3820 0.960 . S
H3806 C3820 0.960 . S
H3807 C3820 0.960 . S
C3808 H3800 0.929 . S
C3808 C3809 1.377 . S
C3808 C3810 1.384 . S
C3809 C3808 1.377 . S
C3809 C3815 1.390 . S
C3810 H3801 0.930 . S
C3810 C3808 1.384 . S
C3810 C3811 1.372 . S
C3811 C3810 1.372 . S
C3811 C3812 1.400 . S
C3811 C3816 1.490 . S
C3812 H3802 0.930 . S
C3812 C3811 1.400 . S
C3812 C3815 1.386 . S
H3813 C3829 0.930 . S
H3814 C3830 0.931 . S
C3815 H3803 0.929 . S
C3815 C3809 1.390 . S
C3815 C3812 1.386 . S
C3816 C3811 1.490 . S
C3816 C3818 1.395 . S
C3816 C3819 1.403 . S
H3817 C3823 0.930 . S
C3818 H3804 0.930 . S
C3818 C3816 1.395 . S
C3818 C3821 1.403 . S
C3819 C3816 1.403 . S
C3819 C3820 1.524 . S
C3819 C3823 1.400 . S
C3820 H3805 0.960 . S
C3820 H3806 0.960 . S
C3820 H3807 0.960 . S
C3820 C3819 1.524 . S
C3821 C3818 1.403 . S
C3821 C3822 1.392 . S
C3821 C3825 1.495 . S
C3822 C3821 1.392 . S
C3822 C3823 1.385 . S
C3822 C3824 1.478 . S
C3823 H3817 0.930 . S
C3823 C3819 1.400 . S
C3823 C3822 1.385 . S
C3824 C3822 1.478 . S
C3824 C3826 1.381 . S
C3824 C3830 1.383 . S
C3825 C3821 1.495 . S
C3825 H3831 0.959 . S
C3825 H3832 0.961 . S
C3825 H3833 0.960 . S
C3826 C3824 1.381 . S
C3826 C3827 1.394 . S
C3826 H3834 0.930 . S
C3827 C3826 1.394 . S
C3827 C3828 1.383 . S
C3827 H3835 0.929 . S
C3828 C3827 1.383 . S
C3828 C3829 1.377 . S
C3829 H3813 0.930 . S
C3829 C3828 1.377 . S
C3829 C3830 1.379 . S
C3830 H3814 0.931 . S
C3830 C3824 1.383 . S
C3830 C3829 1.379 . S
H3831 C3825 0.959 . S
H3832 C3825 0.961 . S
H3833 C3825 0.960 . S
H3834 C3826 0.930 . S
H3835 C3827 0.929 . S
H3836 C3844 0.929 . S
H3837 C3846 0.930 . S
H3838 C3848 0.930 . S
H3839 C3851 0.929 . S
H3840 C3854 0.930 . S
H3841 C3856 0.960 . S
H3842 C3856 0.960 . S
H3843 C3856 0.960 . S
C3844 H3836 0.929 . S
C3844 C3845 1.377 . S
C3844 C3846 1.384 . S
C3845 C3844 1.377 . S
C3845 C3851 1.390 . S
C3846 H3837 0.930 . S
C3846 C3844 1.384 . S
C3846 C3847 1.372 . S
C3847 C3846 1.372 . S
C3847 C3848 1.400 . S
C3847 C3852 1.490 . S
C3848 H3838 0.930 . S
C3848 C3847 1.400 . S
C3848 C3851 1.386 . S
H3849 C3865 0.930 . S
H3850 C3866 0.931 . S
C3851 H3839 0.929 . S
C3851 C3845 1.390 . S
C3851 C3848 1.386 . S
C3852 C3847 1.490 . S
C3852 C3854 1.395 . S
C3852 C3855 1.403 . S
H3853 C3859 0.930 . S
C3854 H3840 0.930 . S
C3854 C3852 1.395 . S
C3854 C3857 1.403 . S
C3855 C3852 1.403 . S
C3855 C3856 1.524 . S
C3855 C3859 1.400 . S
C3856 H3841 0.960 . S
C3856 H3842 0.960 . S
C3856 H3843 0.960 . S
C3856 C3855 1.524 . S
C3857 C3854 1.403 . S
C3857 C3858 1.392 . S
C3857 C3861 1.495 . S
C3858 C3857 1.392 . S
C3858 C3859 1.385 . S
C3858 C3860 1.478 . S
C3859 H3853 0.930 . S
C3859 C3855 1.400 . S
C3859 C3858 1.385 . S
C3860 C3858 1.478 . S
C3860 C3862 1.381 . S
C3860 C3866 1.383 . S
C3861 C3857 1.495 . S
C3861 H3867 0.959 . S
C3861 H3868 0.961 . S
C3861 H3869 0.960 . S
C3862 C3860 1.381 . S
C3862 C3863 1.394 . S
C3862 H3870 0.930 . S
C3863 C3862 1.394 . S
C3863 C3864 1.383 . S
C3863 H3871 0.929 . S
C3864 C3863 1.383 . S
C3864 C3865 1.377 . S
C3865 H3849 0.930 . S
C3865 C3864 1.377 . S
C3865 C3866 1.379 . S
C3866 H3850 0.931 . S
C3866 C3860 1.383 . S
C3866 C3865 1.379 . S
H3867 C3861 0.959 . S
H3868 C3861 0.961 . S
H3869 C3861 0.960 . S
H3870 C3862 0.930 . S
H3871 C3863 0.929 . S
H3872 C3880 0.929 . S
H3873 C3882 0.930 . S
H3874 C3884 0.930 . S
H3875 C3887 0.929 . S
H3876 C3890 0.930 . S
H3877 C3892 0.960 . S
H3878 C3892 0.960 . S
H3879 C3892 0.960 . S
C3880 H3872 0.929 . S
C3880 C3881 1.377 . S
C3880 C3882 1.384 . S
C3881 C3880 1.377 . S
C3881 C3887 1.390 . S
C3882 H3873 0.930 . S
C3882 C3880 1.384 . S
C3882 C3883 1.372 . S
C3883 C3882 1.372 . S
C3883 C3884 1.400 . S
C3883 C3888 1.490 . S
C3884 H3874 0.930 . S
C3884 C3883 1.400 . S
C3884 C3887 1.386 . S
H3885 C3901 0.930 . S
H3886 C3902 0.931 . S
C3887 H3875 0.929 . S
C3887 C3881 1.390 . S
C3887 C3884 1.386 . S
C3888 C3883 1.490 . S
C3888 C3890 1.395 . S
C3888 C3891 1.403 . S
H3889 C3895 0.930 . S
C3890 H3876 0.930 . S
C3890 C3888 1.395 . S
C3890 C3893 1.403 . S
C3891 C3888 1.403 . S
C3891 C3892 1.524 . S
C3891 C3895 1.400 . S
C3892 H3877 0.960 . S
C3892 H3878 0.960 . S
C3892 H3879 0.960 . S
C3892 C3891 1.524 . S
C3893 C3890 1.403 . S
C3893 C3894 1.392 . S
C3893 C3897 1.495 . S
C3894 C3893 1.392 . S
C3894 C3895 1.385 . S
C3894 C3896 1.478 . S
C3895 H3889 0.930 . S
C3895 C3891 1.400 . S
C3895 C3894 1.385 . S
C3896 C3894 1.478 . S
C3896 C3898 1.381 . S
C3896 C3902 1.383 . S
C3897 C3893 1.495 . S
C3897 H3903 0.959 . S
C3897 H3904 0.961 . S
C3897 H3905 0.960 . S
C3898 C3896 1.381 . S
C3898 C3899 1.394 . S
C3898 H3906 0.930 . S
C3899 C3898 1.394 . S
C3899 C3900 1.383 . S
C3899 H3907 0.929 . S
C3900 C3899 1.383 . S
C3900 C3901 1.377 . S
C3901 H3885 0.930 . S
C3901 C3900 1.377 . S
C3901 C3902 1.379 . S
C3902 H3886 0.931 . S
C3902 C3896 1.383 . S
C3902 C3901 1.379 . S
H3903 C3897 0.959 . S
H3904 C3897 0.961 . S
H3905 C3897 0.960 . S
H3906 C3898 0.930 . S
H3907 C3899 0.929 . S
H3908 C3916 0.929 . S
H3909 C3918 0.930 . S
H3910 C3920 0.930 . S
H3911 C3923 0.929 . S
H3912 C3926 0.930 . S
H3913 C3928 0.960 . S
H3914 C3928 0.960 . S
H3915 C3928 0.960 . S
C3916 H3908 0.929 . S
C3916 C3917 1.377 . S
C3916 C3918 1.384 . S
C3917 C3916 1.377 . S
C3917 C3923 1.390 1_554 S
C3918 H3909 0.930 . S
C3918 C3916 1.384 . S
C3918 C3919 1.372 . S
C3919 C3918 1.372 . S
C3919 C3920 1.400 1_554 S
C3919 C3924 1.490 . S
C3920 H3910 0.930 . S
C3920 C3919 1.400 1_556 S
C3920 C3923 1.386 . S
H3921 C3937 0.930 . S
H3922 C3938 0.931 . S
C3923 H3911 0.929 . S
C3923 C3917 1.390 1_556 S
C3923 C3920 1.386 . S
C3924 C3919 1.490 . S
C3924 C3926 1.395 . S
C3924 C3927 1.403 1_554 S
H3925 C3931 0.930 . S
C3926 H3912 0.930 . S
C3926 C3924 1.395 . S
C3926 C3929 1.403 . S
C3927 C3924 1.403 1_556 S
C3927 C3928 1.524 . S
C3927 C3931 1.400 . S
C3928 H3913 0.960 . S
C3928 H3914 0.960 . S
C3928 H3915 0.960 . S
C3928 C3927 1.524 . S
C3929 C3926 1.403 . S
C3929 C3930 1.392 . S
C3929 C3933 1.495 . S
C3930 C3929 1.392 . S
C3930 C3931 1.385 1_554 S
C3930 C3932 1.478 . S
C3931 H3925 0.930 . S
C3931 C3927 1.400 . S
C3931 C3930 1.385 1_556 S
C3932 C3930 1.478 . S
C3932 C3934 1.381 . S
C3932 C3938 1.383 1_554 S
C3933 C3929 1.495 . S
C3933 H3939 0.959 . S
C3933 H3940 0.961 . S
C3933 H3941 0.960 . S
C3934 C3932 1.381 . S
C3934 C3935 1.394 . S
C3934 H3942 0.930 . S
C3935 C3934 1.394 . S
C3935 C3936 1.383 . S
C3935 H3943 0.929 . S
C3936 C3935 1.383 . S
C3936 C3937 1.377 1_554 S
C3937 H3921 0.930 . S
C3937 C3936 1.377 1_556 S
C3937 C3938 1.379 . S
C3938 H3922 0.931 . S
C3938 C3932 1.383 1_556 S
C3938 C3937 1.379 . S
H3939 C3933 0.959 . S
H3940 C3933 0.961 . S
H3941 C3933 0.960 . S
H3942 C3934 0.930 . S
H3943 C3935 0.929 . S
H3944 C3952 0.929 . S
H3945 C3954 0.930 . S
H3946 C3956 0.930 . S
H3947 C3959 0.929 . S
H3948 C3962 0.930 . S
H3949 C3964 0.960 . S
H3950 C3964 0.960 . S
H3951 C3964 0.960 . S
C3952 H3944 0.929 . S
C3952 C3953 1.377 . S
C3952 C3954 1.384 . S
C3953 C3952 1.377 . S
C3953 C3959 1.390 . S
C3954 H3945 0.930 . S
C3954 C3952 1.384 . S
C3954 C3955 1.372 . S
C3955 C3954 1.372 . S
C3955 C3956 1.400 . S
C3955 C3960 1.490 . S
C3956 H3946 0.930 . S
C3956 C3955 1.400 . S
C3956 C3959 1.386 . S
H3957 C3973 0.930 . S
H3958 C3974 0.931 . S
C3959 H3947 0.929 . S
C3959 C3953 1.390 . S
C3959 C3956 1.386 . S
C3960 C3955 1.490 . S
C3960 C3962 1.395 . S
C3960 C3963 1.403 . S
H3961 C3967 0.930 . S
C3962 H3948 0.930 . S
C3962 C3960 1.395 . S
C3962 C3965 1.403 . S
C3963 C3960 1.403 . S
C3963 C3964 1.524 . S
C3963 C3967 1.400 . S
C3964 H3949 0.960 . S
C3964 H3950 0.960 . S
C3964 H3951 0.960 . S
C3964 C3963 1.524 . S
C3965 C3962 1.403 . S
C3965 C3966 1.392 . S
C3965 C3969 1.495 . S
C3966 C3965 1.392 . S
C3966 C3967 1.385 . S
C3966 C3968 1.478 . S
C3967 H3961 0.930 . S
C3967 C3963 1.400 . S
C3967 C3966 1.385 . S
C3968 C3966 1.478 . S
C3968 C3970 1.381 . S
C3968 C3974 1.383 . S
C3969 C3965 1.495 . S
C3969 H3975 0.959 . S
C3969 H3976 0.961 . S
C3969 H3977 0.960 . S
C3970 C3968 1.381 . S
C3970 C3971 1.394 . S
C3970 H3978 0.930 . S
C3971 C3970 1.394 . S
C3971 C3972 1.383 . S
C3971 H3979 0.929 . S
C3972 C3971 1.383 . S
C3972 C3973 1.377 . S
C3973 H3957 0.930 . S
C3973 C3972 1.377 . S
C3973 C3974 1.379 . S
C3974 H3958 0.931 . S
C3974 C3968 1.383 . S
C3974 C3973 1.379 . S
H3975 C3969 0.959 . S
H3976 C3969 0.961 . S
H3977 C3969 0.960 . S
H3978 C3970 0.930 . S
H3979 C3971 0.929 . S
H3980 C3988 0.929 . S
H3981 C3990 0.930 . S
H3982 C3992 0.930 . S
H3983 C3995 0.929 . S
H3984 C3998 0.930 . S
H3985 C4000 0.960 . S
H3986 C4000 0.960 . S
H3987 C4000 0.960 . S
C3988 H3980 0.929 . S
C3988 C3989 1.377 . S
C3988 C3990 1.384 . S
C3989 C3988 1.377 . S
C3989 C3995 1.390 . S
C3990 H3981 0.930 . S
C3990 C3988 1.384 . S
C3990 C3991 1.372 . S
C3991 C3990 1.372 . S
C3991 C3992 1.400 . S
C3991 C3996 1.490 . S
C3992 H3982 0.930 . S
C3992 C3991 1.400 . S
C3992 C3995 1.386 . S
H3993 C4009 0.930 . S
H3994 C4010 0.931 . S
C3995 H3983 0.929 . S
C3995 C3989 1.390 . S
C3995 C3992 1.386 . S
C3996 C3991 1.490 . S
C3996 C3998 1.395 . S
C3996 C3999 1.403 . S
H3997 C4003 0.930 . S
C3998 H3984 0.930 . S
C3998 C3996 1.395 . S
C3998 C4001 1.403 . S
C3999 C3996 1.403 . S
C3999 C4000 1.524 1_554 S
C3999 C4003 1.400 . S
C4000 H3985 0.960 . S
C4000 H3986 0.960 . S
C4000 H3987 0.960 . S
C4000 C3999 1.524 1_556 S
C4001 C3998 1.403 . S
C4001 C4002 1.392 . S
C4001 C4005 1.495 . S
C4002 C4001 1.392 . S
C4002 C4003 1.385 . S
C4002 C4004 1.478 . S
C4003 H3997 0.930 . S
C4003 C3999 1.400 . S
C4003 C4002 1.385 . S
C4004 C4002 1.478 . S
C4004 C4006 1.381 . S
C4004 C4010 1.383 . S
C4005 C4001 1.495 . S
C4005 H4011 0.959 . S
C4005 H4012 0.961 . S
C4005 H4013 0.960 . S
C4006 C4004 1.381 . S
C4006 C4007 1.394 . S
C4006 H4014 0.930 . S
C4007 C4006 1.394 . S
C4007 C4008 1.383 . S
C4007 H4015 0.929 . S
C4008 C4007 1.383 . S
C4008 C4009 1.377 . S
C4009 H3993 0.930 . S
C4009 C4008 1.377 . S
C4009 C4010 1.379 . S
C4010 H3994 0.931 . S
C4010 C4004 1.383 . S
C4010 C4009 1.379 . S
H4011 C4005 0.959 . S
H4012 C4005 0.961 . S
H4013 C4005 0.960 . S
H4014 C4006 0.930 . S
H4015 C4007 0.929 . S
H4016 C4024 0.929 . S
H4017 C4026 0.930 . S
H4018 C4028 0.930 . S
H4019 C4031 0.929 . S
H4020 C4034 0.930 . S
H4021 C4036 0.960 . S
H4022 C4036 0.960 . S
H4023 C4036 0.960 . S
C4024 H4016 0.929 . S
C4024 C4025 1.377 . S
C4024 C4026 1.384 . S
C4025 C4024 1.377 . S
C4025 C4031 1.390 . S
C4026 H4017 0.930 . S
C4026 C4024 1.384 . S
C4026 C4027 1.372 . S
C4027 C4026 1.372 . S
C4027 C4028 1.400 . S
C4027 C4032 1.490 . S
C4028 H4018 0.930 . S
C4028 C4027 1.400 . S
C4028 C4031 1.386 . S
H4029 C4045 0.930 . S
H4030 C4046 0.931 . S
C4031 H4019 0.929 . S
C4031 C4025 1.390 . S
C4031 C4028 1.386 . S
C4032 C4027 1.490 . S
C4032 C4034 1.395 . S
C4032 C4035 1.403 . S
H4033 C4039 0.930 . S
C4034 H4020 0.930 . S
C4034 C4032 1.395 . S
C4034 C4037 1.403 . S
C4035 C4032 1.403 . S
C4035 C4036 1.524 . S
C4035 C4039 1.400 . S
C4036 H4021 0.960 . S
C4036 H4022 0.960 . S
C4036 H4023 0.960 . S
C4036 C4035 1.524 . S
C4037 C4034 1.403 . S
C4037 C4038 1.392 . S
C4037 C4041 1.495 . S
C4038 C4037 1.392 . S
C4038 C4039 1.385 . S
C4038 C4040 1.478 . S
C4039 H4033 0.930 . S
C4039 C4035 1.400 . S
C4039 C4038 1.385 . S
C4040 C4038 1.478 . S
C4040 C4042 1.381 . S
C4040 C4046 1.383 . S
C4041 C4037 1.495 . S
C4041 H4047 0.959 . S
C4041 H4048 0.961 . S
C4041 H4049 0.960 . S
C4042 C4040 1.381 . S
C4042 C4043 1.394 . S
C4042 H4050 0.930 . S
C4043 C4042 1.394 . S
C4043 C4044 1.383 . S
C4043 H4051 0.929 . S
C4044 C4043 1.383 . S
C4044 C4045 1.377 . S
C4045 H4029 0.930 . S
C4045 C4044 1.377 . S
C4045 C4046 1.379 . S
C4046 H4030 0.931 . S
C4046 C4040 1.383 . S
C4046 C4045 1.379 . S
H4047 C4041 0.959 . S
H4048 C4041 0.961 . S
H4049 C4041 0.960 . S
H4050 C4042 0.930 . S
H4051 C4043 0.929 . S
H4052 C4060 0.929 . S
H4053 C4062 0.930 . S
H4054 C4064 0.930 . S
H4055 C4067 0.929 . S
H4056 C4070 0.930 . S
H4057 C4072 0.960 . S
H4058 C4072 0.960 . S
H4059 C4072 0.960 . S
C4060 H4052 0.929 . S
C4060 C4061 1.377 . S
C4060 C4062 1.384 . S
C4061 C4060 1.377 . S
C4061 C4067 1.390 . S
C4062 H4053 0.930 . S
C4062 C4060 1.384 . S
C4062 C4063 1.372 . S
C4063 C4062 1.372 . S
C4063 C4064 1.400 . S
C4063 C4068 1.490 . S
C4064 H4054 0.930 . S
C4064 C4063 1.400 . S
C4064 C4067 1.386 . S
H4065 C4081 0.930 . S
H4066 C4082 0.931 . S
C4067 H4055 0.929 . S
C4067 C4061 1.390 . S
C4067 C4064 1.386 . S
C4068 C4063 1.490 . S
C4068 C4070 1.395 . S
C4068 C4071 1.403 . S
H4069 C4075 0.930 . S
C4070 H4056 0.930 . S
C4070 C4068 1.395 . S
C4070 C4073 1.403 . S
C4071 C4068 1.403 . S
C4071 C4072 1.524 . S
C4071 C4075 1.400 . S
C4072 H4057 0.960 . S
C4072 H4058 0.960 . S
C4072 H4059 0.960 . S
C4072 C4071 1.524 . S
C4073 C4070 1.403 . S
C4073 C4074 1.392 . S
C4073 C4077 1.495 . S
C4074 C4073 1.392 . S
C4074 C4075 1.385 . S
C4074 C4076 1.478 . S
C4075 H4069 0.930 . S
C4075 C4071 1.400 . S
C4075 C4074 1.385 . S
C4076 C4074 1.478 . S
C4076 C4078 1.381 . S
C4076 C4082 1.383 . S
C4077 C4073 1.495 . S
C4077 H4083 0.959 . S
C4077 H4084 0.961 . S
C4077 H4085 0.960 . S
C4078 C4076 1.381 . S
C4078 C4079 1.394 . S
C4078 H4086 0.930 . S
C4079 C4078 1.394 . S
C4079 C4080 1.383 . S
C4079 H4087 0.929 . S
C4080 C4079 1.383 . S
C4080 C4081 1.377 . S
C4081 H4065 0.930 . S
C4081 C4080 1.377 . S
C4081 C4082 1.379 . S
C4082 H4066 0.931 . S
C4082 C4076 1.383 . S
C4082 C4081 1.379 . S
H4083 C4077 0.959 . S
H4084 C4077 0.961 . S
H4085 C4077 0.960 . S
H4086 C4078 0.930 . S
H4087 C4079 0.929 . S
C641 C101 1.275 . S
C660 C316 1.064 . S
C677 C57 1.378 . S
C696 C351 1.319 . S
C713 C70 0.835 . S
C732 C356 0.738 . S
C768 C381 1.307 . S
C749 C82 1.413 . S
C785 C23 1.411 . S
C804 C401 1.277 . S
C840 C416 0.733 . S
C821 C29 0.837 . S
C876 C451 1.318 . S
C857 C49 1.370 . S
C893 C10 1.273 . S
C912 C456 1.103 . S
C948 C331 1.331 . S
C929 C218 1.418 . S
C965 C226 0.843 . S
C984 C341 0.819 . S
C1020 C371 1.364 1_565 S
C1001 C251 1.384 . S
C1056 C376 0.868 . S
C1037 C159 0.974 1_556 S
C1073 C211 1.009 . S
C1092 C396 0.988 . S
C1128 C431 1.364 . S
C1109 C225 1.385 . S
C1164 C441 0.855 . S
C1145 C252 0.843 . S
C1200 C471 1.329 . S
C1181 C166 1.417 . S
C1236 C321 1.180 . S
C1217 C147 1.355 . S
C1253 C263 1.650 . S
C1272 C491 1.616 . S
C1308 C501 1.316 . S
C1289 C309 1.460 . S
C1344 C516 0.745 . S
C1325 C291 0.857 . S
C1361 C108 1.358 . S
C1380 C461 1.267 . S
C1397 C121 1.464 . S
C1416 C361 1.388 . S
C1433 C302 1.653 . S
C1452 C551 1.617 . S
C1488 C556 0.752 . S
C1469 C276 0.857 . S
C1524 C314 1.325 . S
C1505 C55 1.487 . S
C1560 C570 1.657 . S
C1541 C96 1.694 . S
C1577 C88 1.179 . S
C1596 C354 1.065 . S
C1613 C75 1.693 . S
C1632 C544 1.595 . S
C1668 C404 1.591 . S
C1649 C4 1.694 . S
C1685 C44 1.187 . S
C1704 C494 1.055 . S
C1740 C450 1.671 . S
C1721 C31 1.692 . S
C1776 C574 1.347 . S
C1757 C18 1.486 . S
C1812 C330 1.618 1_556 S
C1793 C133 1.699 . S
C1848 C564 1.103 . S
C1829 C296 1.162 . S
C1865 C107 1.669 . S
C1884 C370 1.608 . S
C1901 C264 1.348 . S
C1920 C534 1.256 . S
C1937 C140 1.347 . S
C1956 C394 1.219 . S
C1992 C510 1.610 . S
C1973 C289 1.670 . S
C2009 C114 1.168 . S
C2028 C444 1.153 . S
C2045 C265 1.700 . S
C2064 C590 1.664 . S
C2081 C179 1.542 . S
C2100 C324 1.464 . S
C2117 C161 1.967 . S
C2136 C490 1.931 . S
C2153 C244 1.713 . S
C2172 C424 1.646 . S
C2189 C224 1.200 . S
C2208 C514 1.147 . S
C2244 C584 1.463 . S
C2225 C257 1.542 . S
C2261 C199 1.711 . S
C2280 C364 1.598 . S
C2316 C390 1.927 . S
C2297 C237 1.966 . S
C2352 C334 1.121 . S
C2333 C185 1.199 . S
C2369 C69 1.280 . S
C2388 C596 1.169 . S
C2424 C571 1.336 . S
C2405 C83 1.379 . S
C2441 C94 0.837 . S
C2460 C616 0.771 . S
C2477 C56 1.413 . S
C2496 C541 1.351 . S
C2513 C42 1.424 . S
C2532 C481 1.361 . S
C2568 C496 0.742 . S
C2549 C3 0.837 . S
C2604 C531 1.353 . S
C2585 C16 1.384 . S
C2640 C576 1.065 . S
C2621 C36 1.275 . S
C2676 C611 1.371 . S
C2657 C238 1.420 . S
C2693 C174 0.841 . S
C2712 C561 0.756 . S
C2748 C631 1.306 . S
C2729 C186 1.380 . S
C2784 C536 0.989 . S
C2765 C198 1.008 . S
C2820 C476 0.926 . S
C2801 C239 1.006 . S
C2837 C173 1.382 . S
C2856 C511 1.354 . S
C2892 C521 0.831 . S
C2873 C187 0.843 . S
C2909 C205 1.418 . S
C2928 C591 1.350 . S
C2964 C601 1.244 . S
C2945 C290 1.358 . S
C2981 C122 1.648 . S
C3000 C411 1.613 . S
C3036 C421 1.386 . S
C3017 C134 1.466 . S
C3072 C436 0.762 . S
C3053 C148 0.857 . S
C3108 C581 1.199 . S
C3089 C283 1.355 . S
C3125 C270 1.459 . S
C3144 C621 1.304 . S
C3180 C391 1.602 . S
C3161 C135 1.647 . S
C3216 C336 0.788 . S
C3197 C109 0.859 . S
C3233 C81 1.487 . S
C3252 C594 1.323 . S
C3288 C350 1.655 . S
C3269 C68 1.693 . S
C3305 C62 1.180 . S
C3324 C614 1.115 . S
C3341 C95 1.692 . S
C3360 C384 1.585 . S
C3377 C30 1.694 . S
C3396 C484 1.590 . S
C3432 C414 1.095 . S
C3413 C17 1.180 . S
C3449 C5 1.694 . S
C3468 C530 1.642 . S
C3485 C43 1.479 . S
C3504 C454 1.385 . S
C3540 C610 1.662 . S
C3521 C304 1.699 . S
C3557 C153 1.163 . S
C3576 C344 1.148 . S
C3612 C630 1.642 . S
C3593 C278 1.669 . S
C3629 C127 1.346 . S
C3648 C374 1.204 . S
C3665 C303 1.342 . S
C3684 C474 1.199 . S
C3720 C430 1.646 . S
C3701 C146 1.667 . S
C3737 C277 1.164 . S
C3756 C524 1.141 . S
C3792 C470 1.636 . S
C3773 C120 1.698 . S
C3828 C604 1.413 . S
C3809 C231 1.540 . S
C3864 C410 1.927 . S
C3845 C200 1.966 . S
C3881 C212 1.717 . S
C3900 C504 1.644 . S
C3936 C434 1.133 . S
C3917 C172 1.198 . S
C3953 C192 1.537 . S
C3972 C464 1.437 . S
C3989 C160 1.713 . S
C4008 C624 1.616 . S
C4044 C550 1.914 . S
C4025 C213 1.968 . S
C4080 C554 1.096 . S
C4061 C250 1.199 . S
