# Generated by pormake.
# Topology tsx, (6,3)-cn, num edge types: 1
# Building blocks:
#     Node 0, Type 0, BuildingBlock: MIDCAF_clean_sbu_0, # of connection points: 6
#     Node 1, Type 0, BuildingBlock: MIDCAF_clean_sbu_0, # of connection points: 6
#     Node 2, Type 1, BuildingBlock: WUSLED_clean_sbu_0, # of connection points: 3
#     Node 3, Type 1, BuildingBlock: WUSLED_clean_sbu_0, # of connection points: 3
#     Node 4, Type 1, BuildingBlock: WUSLED_clean_sbu_0, # of connection points: 3
#     Node 5, Type 1, BuildingBlock: WUSLED_clean_sbu_0, # of connection points: 3
#     Edge 6, Type (0, 1), BuildingBlock: UVAHIK_clean_linker_0, # of connection points: 2
#     Edge 7, Type (0, 1), BuildingBlock: UVAHIK_clean_linker_0, # of connection points: 2
#     Edge 8, Type (0, 1), BuildingBlock: UVAHIK_clean_linker_0, # of connection points: 2
#     Edge 9, Type (0, 1), BuildingBlock: UVAHIK_clean_linker_0, # of connection points: 2
#     Edge 10, Type (0, 1), BuildingBlock: UVAHIK_clean_linker_0, # of connection points: 2
#     Edge 11, Type (0, 1), BuildingBlock: UVAHIK_clean_linker_0, # of connection points: 2
#     Edge 12, Type (0, 1), BuildingBlock: UVAHIK_clean_linker_0, # of connection points: 2
#     Edge 13, Type (0, 1), BuildingBlock: UVAHIK_clean_linker_0, # of connection points: 2
#     Edge 14, Type (0, 1), BuildingBlock: UVAHIK_clean_linker_0, # of connection points: 2
#     Edge 15, Type (0, 1), BuildingBlock: UVAHIK_clean_linker_0, # of connection points: 2
#     Edge 16, Type (0, 1), BuildingBlock: UVAHIK_clean_linker_0, # of connection points: 2
#     Edge 17, Type (0, 1), BuildingBlock: UVAHIK_clean_linker_0, # of connection points: 2
# Relax obj value: 0.113
# Max RMSD: 0.180
# Mean RMSD: 0.108
data_MOF--net-tsx--node1-MIDCAF_clean_sbu_0--node2-WUSLED_clean_sbu_0--edge1-UVAHIK_clean_linker_0
_symmetry_space_group_name_H-M    P1
_symmetry_Int_Tables_number       1
_symmetry_cell_setting            triclinic
loop_
_symmetry_equiv_pos_as_xyz
'x, y, z'
_cell_length_a     31.099614
_cell_length_b     32.422038
_cell_length_c     60.47619
_cell_angle_alpha  90.831547
_cell_angle_beta   94.23136
_cell_angle_gamma 89.849581
loop_
_atom_site_label
_atom_site_type_symbol
_atom_site_fract_x
_atom_site_fract_y
_atom_site_fract_z
_atom_type_partial_charge
Zn0 Zn 0.9577 0.01384 0.97649 0.0
Zn1 Zn 0.11184 0.01233 0.03047 0.0
Zn2 Zn 0.04497 0.00211 0.01222 0.0
C3 C 0.09433 0.08349 0.00813 0.0
C4 C 0.12565 0.94684 0.00695 0.0
O5 O 0.99337 0.95571 0.00846 0.0
O6 O 0.9372 0.95834 0.98378 0.0
C7 C 0.99035 0.06782 0.01974 0.0
O8 O 0.07144 0.05734 0.99605 0.0
O9 O 0.11061 0.07289 0.02694 0.0
O10 O 0.14588 0.98029 0.00998 0.0
O11 O 0.08617 0.94552 0.01176 0.0
O12 O 0.97774 0.04673 1.00295 0.0
O13 O 0.02052 0.05253 0.03276 0.0
O14 O 0.05961 0.02601 0.97896 0.0
O15 O 1.00202 0.01536 0.95481 0.0
C16 C 0.0416 0.02376 0.95894 0.0
O17 O 0.0398 0.0225 0.04727 0.0
O18 O 0.09699 0.98742 0.05916 0.0
C19 C 0.95833 0.94008 0.99943 0.0
C20 C 0.06217 0.00504 0.06324 0.0
Zn21 Zn 0.62141 0.49072 0.53708 0.0
Zn22 Zn 0.43827 0.52434 0.47869 0.0
Zn23 Zn 0.55659 0.50794 0.51261 0.0
C24 C 0.53251 0.48773 0.46588 0.0
C25 C 0.51164 0.57646 0.49744 0.0
O26 O 0.52938 0.48276 0.54196 0.0
O27 O 0.58973 0.47953 0.56352 0.0
C28 C 0.62869 0.44149 0.50071 0.0
O29 O 0.56558 0.48218 0.47935 0.0
O30 O 0.49941 0.50214 0.47433 0.0
O31 O 0.49665 0.54258 0.49005 0.0
O32 O 0.54755 0.57439 0.50885 0.0
O33 O 0.64347 0.4433 0.52067 0.0
O34 O 0.59782 0.46561 0.49369 0.0
O35 O 0.58701 0.56825 0.52032 0.0
O36 O 0.65004 0.54542 0.53439 0.0
C37 C 0.62627 0.57501 0.52764 0.0
O38 O 0.49291 0.48227 0.52326 0.0
O39 O 0.42592 0.49227 0.50602 0.0
C40 C 0.54923 0.47628 0.561 0.0
C41 C 0.4512 0.47696 0.52153 0.0
C42 C 0.02897 0.10765 0.44704 0.0
C43 C 0.015 0.13467 0.43003 0.0
C44 C 0.96194 0.16444 0.45321 0.0
C45 C 0.98193 0.1629 0.43312 0.0
C46 C 0.97651 0.1377 0.47034 0.0
C47 C 0.00977 0.1095 0.46725 0.0
U48 U 0.08567 0.04721 0.40513 0.0
O49 O 0.15313 0.02802 0.40273 0.0
O50 O 0.10171 0.98146 0.40202 0.0
C51 C 0.14338 0.98858 0.40241 0.0
C52 C 0.06114 0.07572 0.44289 0.0
C53 C 0.17149 0.96215 0.4168 0.0
C54 C 0.18717 0.92289 0.45042 0.0
C55 C 0.1602 0.94972 0.43776 0.0
C56 C 0.23697 0.92148 0.42143 0.0
C57 C 0.22585 0.90844 0.44233 0.0
C58 C 0.21008 0.94804 0.40884 0.0
C59 C 0.05152 0.07388 0.3448 0.0
C60 C 0.08267 0.04229 0.31302 0.0
C61 C 0.0222 0.08931 0.30758 0.0
C62 C 0.02177 0.09472 0.3305 0.0
C63 C 0.05256 0.06296 0.29854 0.0
C64 C 0.08209 0.04766 0.33601 0.0
C65 C 0.04945 0.07942 0.36879 0.0
O66 O 0.04499 0.04205 0.43322 0.0
O67 O 0.09584 0.08896 0.43403 0.0
O68 O 0.08415 0.09479 0.37955 0.0
O69 O 0.03274 0.04846 0.37898 0.0
H70 H 0.02904 0.13329 0.41416 0.0
H71 H 0.97108 0.18258 0.41949 0.0
H72 H 0.96201 0.13842 0.48609 0.0
H73 H 0.01996 0.08866 0.48048 0.0
H74 H 0.17786 0.91356 0.46651 0.0
H75 H 0.1305 0.96041 0.44422 0.0
H76 H 0.26605 0.91035 0.4145 0.0
H77 H 0.21916 0.95714 0.39265 0.0
H78 H 0.10681 0.02217 0.30662 0.0
H79 H 0.99811 0.10516 0.29699 0.0
H80 H 0.99786 0.11494 0.33708 0.0
H81 H 0.10533 0.03132 0.3469 0.0
C82 C 0.96251 0.97985 0.57555 0.0
C83 C 0.9373 0.96288 0.59143 0.0
C84 C 0.89657 0.92329 0.56261 0.0
C85 C 0.90451 0.93495 0.58501 0.0
C86 C 0.92228 0.94002 0.54677 0.0
C87 C 0.95498 0.96821 0.55321 0.0
U88 U 0.02909 0.03251 0.62184 0.0
O89 O 0.09756 0.04973 0.62589 0.0
O90 O 0.04744 0.09744 0.62762 0.0
C91 C 0.08883 0.08936 0.62734 0.0
C92 C 0.99655 0.00959 0.58241 0.0
C93 C 0.11362 0.11748 0.61424 0.0
C94 C 0.15963 0.13154 0.58437 0.0
C95 C 0.13356 0.10432 0.59523 0.0
C96 C 0.14477 0.18541 0.61095 0.0
C97 C 0.16578 0.1723 0.59228 0.0
C98 C 0.11905 0.15828 0.62179 0.0
C99 C 1.00842 0.00312 0.68084 0.0
C100 C 0.04769 0.03508 0.71278 0.0
C101 C 0.9937 0.983 0.71798 0.0
C102 C 0.98548 0.97922 0.69503 0.0
C103 C 0.025 0.01085 0.72712 0.0
C104 C 0.03952 0.03117 0.68979 0.0
C105 C 0.99958 0.99848 0.65677 0.0
O106 O 0.98328 0.04241 0.59298 0.0
O107 O 0.03189 0.99337 0.59193 0.0
O108 O 0.03115 0.98257 0.64611 0.0
O109 O 0.98131 0.03049 0.64683 0.0
H110 H 0.94299 0.97131 0.6088 0.0
H111 H 0.88571 0.92205 0.59761 0.0
H112 H 0.91672 0.93171 0.52938 0.0
H113 H 0.97425 0.981 0.54078 0.0
H114 H 0.17518 0.12068 0.56993 0.0
H115 H 0.12962 0.07296 0.589 0.0
H116 H 0.14938 0.21634 0.6177 0.0
H117 H 0.10412 0.16897 0.63647 0.0
H118 H 0.07225 0.05651 0.71933 0.0
H119 H 0.9753 0.96434 0.7286 0.0
H120 H 0.96121 0.95759 0.68834 0.0
H121 H 0.05754 0.04985 0.67899 0.0
C122 C 0.51813 0.59809 0.94255 0.0
C123 C 0.49901 0.62357 0.92599 0.0
C124 C 0.45041 0.65267 0.95216 0.0
C125 C 0.46557 0.65068 0.93076 0.0
C126 C 0.47013 0.6273 0.9687 0.0
C127 C 0.50358 0.60034 0.96393 0.0
U128 U 0.5835 0.53781 0.9016 0.0
O129 O 0.65182 0.5188 0.90383 0.0
O130 O 0.60078 0.47193 0.90059 0.0
C131 C 0.64238 0.47923 0.90338 0.0
C132 C 0.55201 0.56796 0.93768 0.0
C133 C 0.66768 0.45183 0.91887 0.0
C134 C 0.71651 0.43923 0.95157 0.0
C135 C 0.69078 0.46636 0.9383 0.0
C136 C 0.69607 0.38298 0.92626 0.0
C137 C 0.71952 0.39712 0.94568 0.0
C138 C 0.67056 0.40993 0.9131 0.0
C139 C 0.55475 0.5579 0.83901 0.0
C140 C 0.58367 0.52192 0.80774 0.0
C141 C 0.52515 0.57073 0.80143 0.0
C142 C 0.5257 0.57854 0.82422 0.0
C143 C 0.55389 0.54211 0.7928 0.0
C144 C 0.58402 0.52967 0.83068 0.0
C145 C 0.55183 0.56512 0.86298 0.0
O146 O 0.53809 0.53373 0.92773 0.0
O147 O 0.58647 0.58291 0.9293 0.0
O148 O 0.58559 0.58159 0.87411 0.0
O149 O 0.53422 0.53529 0.87364 0.0
H150 H 0.50958 0.6221 0.90932 0.0
H151 H 0.45093 0.66938 0.91755 0.0
H152 H 0.45984 0.62838 0.98542 0.0
H153 H 0.5179 0.58094 0.97694 0.0
H154 H 0.73389 0.45119 0.96647 0.0
H155 H 0.68927 0.4986 0.94313 0.0
H156 H 0.69819 0.3511 0.92086 0.0
H157 H 0.65354 0.39806 0.89807 0.0
H158 H 0.60666 0.50007 0.80175 0.0
H159 H 0.5012 0.58635 0.79065 0.0
H160 H 0.50266 0.60022 0.83036 0.0
H161 H 0.60668 0.51335 0.84188 0.0
C162 C 0.45333 0.46128 0.07411 0.0
C163 C 0.4333 0.43689 0.08935 0.0
C164 C 0.38865 0.40373 0.05919 0.0
C165 C 0.4013 0.40841 0.08198 0.0
C166 C 0.40907 0.42833 0.04406 0.0
C167 C 0.44096 0.45678 0.05145 0.0
U168 U 0.51977 0.51953 0.12017 0.0
O169 O 0.5403 0.58449 0.12268 0.0
O170 O 0.58891 0.53513 0.1239 0.0
C171 C 0.58155 0.57507 0.12407 0.0
C172 C 0.487 0.49153 0.08152 0.0
C173 C 0.61037 0.60104 0.11183 0.0
C174 C 0.62982 0.63702 0.07889 0.0
C175 C 0.60202 0.61059 0.08934 0.0
C176 C 0.67454 0.64393 0.11323 0.0
C177 C 0.66631 0.65439 0.09081 0.0
C178 C 0.64689 0.61775 0.12357 0.0
C179 C 0.49673 0.49504 0.18059 0.0
C180 C 0.53863 0.51876 0.21394 0.0
C181 C 0.47315 0.47959 0.21694 0.0
C182 C 0.46714 0.47699 0.19386 0.0
C183 C 0.50896 0.50045 0.22734 0.0
C184 C 0.5325 0.51615 0.19072 0.0
C185 C 0.48972 0.49035 0.15633 0.0
O186 O 0.47327 0.52526 0.09108 0.0
O187 O 0.52196 0.4762 0.0919 0.0
O188 O 0.52114 0.47282 0.14623 0.0
O189 O 0.47272 0.52218 0.14568 0.0
H190 H 0.44231 0.43999 0.10694 0.0
H191 H 0.38605 0.39051 0.09419 0.0
H192 H 0.40085 0.42527 0.0264 0.0
H193 H 0.45609 0.47524 0.03942 0.0
H194 H 0.62226 0.64448 0.06165 0.0
H195 H 0.57391 0.59802 0.07996 0.0
H196 H 0.70267 0.65575 0.12288 0.0
H197 H 0.65398 0.61071 0.14092 0.0
H198 H 0.56636 0.5353 0.22139 0.0
H199 H 0.45008 0.46448 0.22666 0.0
H200 H 0.43947 0.46039 0.18634 0.0
H201 H 0.5557 0.53035 0.18071 0.0
C202 C 0.09327 0.15844 0.01408 0.0
C203 C 0.10569 0.12497 1.00099 0.0
C204 C 0.11895 0.19376 0.01662 0.0
C205 C 0.21356 0.24951 0.99792 0.0
H206 H 0.23832 0.2705 0.06092 0.0
C207 C 0.32483 0.38278 0.03316 0.0
C208 C 0.35441 0.3735 0.0512 0.0
C209 C 0.29304 0.3544 0.02552 0.0
C210 C 0.23191 0.265 0.04327 0.0
H211 H 0.15259 0.1036 0.97876 0.0
H212 H 0.19702 0.16594 0.98262 0.0
H213 H 0.18305 0.22056 0.04841 0.0
H214 H 0.3736 0.3263 0.07505 0.0
H215 H 0.31774 0.27725 0.06196 0.0
H216 H 0.26303 0.29376 0.9929 0.0
C217 C 0.16739 0.16493 0.99094 0.0
C218 C 0.1998 0.23673 0.03607 0.0
C219 C 0.14161 0.12942 0.98845 0.0
C220 C 0.35106 0.33498 0.0614 0.0
C221 C 0.31906 0.30673 0.05384 0.0
C222 C 0.24544 0.27826 0.00515 0.0
C223 C 0.15768 0.19636 0.00612 0.0
C224 C 0.19024 0.2285 0.01331 0.0
C225 C 0.28964 0.31606 0.03579 0.0
C226 C 0.25522 0.28612 0.02794 0.0
H227 H 0.06633 0.15543 0.02433 0.0
H228 H 0.11015 0.21773 0.02812 0.0
H229 H 0.20709 0.24376 0.98031 0.0
H230 H 0.32575 0.41233 0.02511 0.0
H231 H 0.27053 0.36282 0.01179 0.0
C232 C 0.18257 0.91888 0.98426 0.0
C233 C 0.14939 0.91107 0.99822 0.0
C234 C 0.21025 0.88754 0.97813 0.0
C235 C 0.2561 0.7884 0.9968 0.0
H236 H 0.2989 0.78579 0.93816 0.0
C237 C 0.38178 0.6672 0.97075 0.0
C238 C 0.41377 0.68046 0.95716 0.0
C239 C 0.34723 0.693 0.97534 0.0
C240 C 0.28773 0.78629 0.9547 0.0
H241 H 0.11852 0.86367 0.01625 0.0
H242 H 0.16737 0.80809 0.00542 0.0
H243 H 0.24081 0.8329 0.94613 0.0
H244 H 0.43462 0.73193 0.93815 0.0
H245 H 0.3747 0.77696 0.94622 0.0
H246 H 0.30367 0.74229 0.00548 0.0
C247 C 0.17182 0.8389 0.99931 0.0
C248 C 0.25416 0.81324 0.95925 0.0
C249 C 0.14355 0.87052 0.00532 0.0
C250 C 0.41029 0.72037 0.94837 0.0
C251 C 0.37579 0.74621 0.953 0.0
C252 C 0.28982 0.76142 0.99226 0.0
C253 C 0.20587 0.84723 0.98583 0.0
C254 C 0.23827 0.81514 0.98045 0.0
C255 C 0.34362 0.73287 0.96649 0.0
C256 C 0.30652 0.76038 0.97121 0.0
H257 H 0.18797 0.9498 0.97849 0.0
H258 H 0.23627 0.8954 0.96801 0.0
H259 H 0.24512 0.78939 0.01339 0.0
H260 H 0.38296 0.63647 0.97755 0.0
H261 H 0.32288 0.68133 0.98551 0.0
C262 C 0.93668 0.89936 0.03171 0.0
C263 C 0.93827 0.90342 0.00872 0.0
C264 C 0.9095 0.87002 0.04029 0.0
C265 C 0.81285 0.80488 0.02255 0.0
H266 H 0.83498 0.75913 0.08112 0.0
C267 C 0.70683 0.67715 0.05825 0.0
C268 C 0.69595 0.68329 0.08025 0.0
C269 C 0.73665 0.70306 0.04901 0.0
C270 C 0.82826 0.77181 0.06475 0.0
H271 H 0.9148 0.87851 0.97671 0.0
H272 H 0.87007 0.82561 0.99149 0.0
H273 H 0.88877 0.80325 0.0662 0.0
H274 H 0.70663 0.72319 0.10929 0.0
H275 H 0.75905 0.76743 0.09337 0.0
H276 H 0.75268 0.77232 0.02106 0.0
C277 C 0.88793 0.84609 1.00307 0.0
C278 C 0.85908 0.79738 0.05618 0.0
C279 C 0.91421 0.87602 0.99453 0.0
C280 C 0.71495 0.71667 0.09252 0.0
C281 C 0.745 0.74219 0.08339 0.0
C282 C 0.7824 0.77874 0.03098 0.0
C283 C 0.8839 0.84347 0.02606 0.0
C284 C 0.8518 0.81464 0.03498 0.0
C285 C 0.75656 0.7355 0.06161 0.0
C286 C 0.78955 0.76219 0.05227 0.0
H287 H 0.95421 0.92063 0.04302 0.0
H288 H 0.90717 0.86966 0.05805 0.0
H289 H 0.80515 0.81813 0.00642 0.0
H290 H 0.69326 0.65164 0.04832 0.0
H291 H 0.74501 0.69702 0.0322 0.0
C292 C 0.9524 0.1283 0.03647 0.0
C293 C 0.97645 0.11135 0.01982 0.0
C294 C 0.92748 0.16414 0.03227 0.0
C295 C 0.86626 0.20847 0.98528 0.0
H296 H 0.86001 0.31174 0.01802 0.0
C297 C 0.73399 0.32688 0.96185 0.0
C298 C 0.7475 0.36778 0.95917 0.0
C299 C 0.76161 0.29787 0.9723 0.0
C300 C 0.86144 0.28301 0.00874 0.0
H301 H 0.99574 0.11966 0.98644 0.0
H302 H 0.95275 0.18128 0.97924 0.0
H303 H 0.9114 0.25798 0.03131 0.0
H304 H 0.80045 0.41045 0.96644 0.0
H305 H 0.84862 0.35967 0.98495 0.0
H306 H 0.81695 0.23288 0.96265 0.0
C307 C 0.95286 0.16741 0.99544 0.0
C308 C 0.89057 0.25224 0.01644 0.0
C309 C 0.97778 0.13232 0.99968 0.0
C310 C 0.78878 0.37935 0.9683 0.0
C311 C 0.81645 0.35023 0.9789 0.0
C312 C 0.83694 0.23877 0.9778 0.0
C313 C 0.92607 0.18279 0.01129 0.0
C314 C 0.89359 0.21488 0.00458 0.0
C315 C 0.80352 0.30889 0.98054 0.0
C316 C 0.83425 0.27656 0.98931 0.0
H317 H 0.95018 0.11224 0.05192 0.0
H318 H 0.90702 0.17546 0.04476 0.0
H319 H 0.86774 0.17989 0.97585 0.0
H320 H 0.7021 0.31699 0.95557 0.0
H321 H 0.75029 0.2665 0.97365 0.0
C322 C 0.68809 0.6206 0.52199 0.0
C323 C 0.64508 0.6165 0.52714 0.0
C324 C 0.70769 0.65918 0.52265 0.0
C325 C 0.71021 0.75472 0.55233 0.0
H326 H 0.77801 0.79271 0.50532 0.0
C327 C 0.82132 0.89678 0.5646 0.0
C328 C 0.86188 0.8934 0.55591 0.0
C329 C 0.78913 0.86772 0.55894 0.0
C330 C 0.75951 0.78243 0.51868 0.0
H331 H 0.58844 0.6492 0.53673 0.0
H332 H 0.62359 0.71729 0.53873 0.0
H333 H 0.7307 0.73317 0.49879 0.0
H334 H 0.90059 0.85701 0.53452 0.0
H335 H 0.84499 0.80577 0.52503 0.0
H336 H 0.74087 0.80201 0.57276 0.0
C337 C 0.64164 0.69049 0.5338 0.0
C338 C 0.73214 0.74863 0.51483 0.0
C339 C 0.62159 0.65178 0.53259 0.0
C340 C 0.86945 0.86069 0.54124 0.0
C341 C 0.83743 0.83142 0.53574 0.0
C342 C 0.73807 0.7882 0.55631 0.0
C343 C 0.68494 0.69433 0.52892 0.0
C344 C 0.70798 0.734 0.53176 0.0
C345 C 0.79691 0.83442 0.54461 0.0
C346 C 0.76382 0.80187 0.53967 0.0
H347 H 0.70674 0.59383 0.51759 0.0
H348 H 0.74122 0.66132 0.51903 0.0
H349 H 0.69227 0.74359 0.56573 0.0
H350 H 0.81441 0.92202 0.57573 0.0
H351 H 0.75814 0.87141 0.56581 0.0
C352 C 0.6802 0.42434 0.47258 0.0
C353 C 0.64824 0.41152 0.48613 0.0
C354 C 0.70973 0.39571 0.46497 0.0
C355 C 0.75879 0.29862 0.48439 0.0
H356 H 0.81611 0.3 0.42964 0.0
C357 C 0.88833 0.17875 0.46588 0.0
C358 C 0.92487 0.19263 0.45587 0.0
C359 C 0.8528 0.20465 0.46776 0.0
C360 C 0.80061 0.29951 0.44509 0.0
H361 H 0.61954 0.35915 0.5011 0.0
H362 H 0.66963 0.30882 0.48705 0.0
H363 H 0.75448 0.34563 0.4342 0.0
H364 H 0.95296 0.24485 0.4402 0.0
H365 H 0.89101 0.29028 0.44367 0.0
H366 H 0.80507 0.25331 0.49553 0.0
C367 C 0.67281 0.34087 0.48266 0.0
C368 C 0.76524 0.32552 0.44766 0.0
C369 C 0.64371 0.36949 0.4904 0.0
C370 C 0.9251 0.23309 0.4478 0.0
C371 C 0.88955 0.25907 0.44972 0.0
C372 C 0.79402 0.27276 0.48185 0.0
C373 C 0.70755 0.35396 0.47089 0.0
C374 C 0.74384 0.32525 0.46733 0.0
C375 C 0.85297 0.24514 0.45972 0.0
C376 C 0.81537 0.27281 0.46218 0.0
H377 H 0.68469 0.45684 0.46953 0.0
H378 H 0.73617 0.40684 0.45601 0.0
H379 H 0.74393 0.29844 0.50003 0.0
H380 H 0.88677 0.14751 0.47188 0.0
H381 H 0.82489 0.19269 0.47523 0.0
C382 C 0.38934 0.4558 0.54233 0.0
C383 C 0.43124 0.44789 0.53621 0.0
C384 C 0.36503 0.42452 0.55086 0.0
C385 C 0.35202 0.31304 0.5466 0.0
H386 H 0.27187 0.33134 0.59192 0.0
C387 C 0.23698 0.18743 0.57698 0.0
C388 C 0.19582 0.20082 0.58218 0.0
C389 C 0.26766 0.21585 0.5709 0.0
C390 C 0.29375 0.32587 0.57905 0.0
H391 H 0.48165 0.4018 0.53529 0.0
H392 H 0.4389 0.34666 0.5503 0.0
H393 H 0.32477 0.38412 0.5853 0.0
H394 H 0.15336 0.25385 0.58318 0.0
H395 H 0.20662 0.30325 0.5725 0.0
H396 H 0.32031 0.25495 0.54013 0.0
C397 C 0.42492 0.37716 0.54842 0.0
C398 C 0.32424 0.356 0.57538 0.0
C399 C 0.44956 0.40879 0.54015 0.0
C400 C 0.18511 0.24272 0.57977 0.0
C401 C 0.21567 0.27103 0.57373 0.0
C402 C 0.32139 0.28278 0.55028 0.0
C403 C 0.38194 0.38446 0.55322 0.0
C404 C 0.3533 0.35025 0.55891 0.0
C405 C 0.25772 0.25816 0.56994 0.0
C406 C 0.29144 0.28922 0.56631 0.0
H407 H 0.37444 0.48564 0.53931 0.0
H408 H 0.33198 0.43113 0.55425 0.0
H409 H 0.37358 0.30797 0.53355 0.0
H410 H 0.24626 0.15536 0.57877 0.0
H411 H 0.29976 0.20496 0.56806 0.0
C412 C 0.48766 0.64568 0.5112 0.0
C413 C 0.48577 0.61445 0.49485 0.0
C414 C 0.45888 0.67907 0.50947 0.0
C415 C 0.35378 0.70869 0.48048 0.0
H416 H 0.38976 0.82041 0.49586 0.0
C417 C 0.23675 0.84469 0.46532 0.0
C418 C 0.2542 0.87878 0.45504 0.0
C419 C 0.2638 0.81413 0.4748 0.0
C420 C 0.3792 0.78937 0.49146 0.0
H421 H 0.45426 0.59447 0.46339 0.0
H422 H 0.40538 0.65286 0.45996 0.0
H423 H 0.44052 0.76364 0.50232 0.0
H424 H 0.31373 0.90892 0.448 0.0
H425 H 0.36067 0.85534 0.46383 0.0
H426 H 0.29341 0.73439 0.46844 0.0
C427 C 0.42767 0.65119 0.47455 0.0
C428 C 0.40819 0.75676 0.4954 0.0
C429 C 0.45596 0.61787 0.4764 0.0
C430 C 0.29925 0.88269 0.45548 0.0
C431 C 0.32622 0.85217 0.46485 0.0
C432 C 0.32498 0.74124 0.47639 0.0
C433 C 0.42803 0.68179 0.49127 0.0
C434 C 0.39616 0.71613 0.48941 0.0
C435 C 0.30887 0.817 0.47418 0.0
C436 C 0.33761 0.78212 0.48136 0.0
H437 H 0.51006 0.64345 0.52571 0.0
H438 H 0.45996 0.70202 0.52269 0.0
H439 H 0.34302 0.67767 0.47615 0.0
H440 H 0.20217 0.84069 0.4652 0.0
H441 H 0.24934 0.78776 0.48215 0.0
C442 C 0.06243 0.97626 0.10102 0.0
C443 C 0.05077 0.00828 0.08641 0.0
C444 C 0.05789 0.98092 0.12367 0.0
C445 C 0.01117 0.04803 0.16648 0.0
H446 H 0.10511 0.00141 0.20396 0.0
C447 C 0.04332 0.08971 0.25965 0.0
C448 C 0.05209 0.05661 0.27411 0.0
C449 C 0.04121 0.08347 0.23669 0.0
C450 C 0.07846 0.01428 0.19374 0.0
H451 H 0.02361 0.0697 0.08374 0.0
H452 H 0.01716 0.07875 0.12361 0.0
H453 H 0.10322 0.99111 0.16405 0.0
H454 H 0.06539 0.99093 0.27564 0.0
H455 H 0.06259 0.9803 0.23556 0.0
H456 H 0.98737 0.07224 0.19644 0.0
C457 C 0.02889 0.04955 0.11755 0.0
C458 C 0.07716 0.00823 0.17081 0.0
C459 C 0.03261 0.04448 0.09471 0.0
C460 C 0.05926 0.01724 0.26503 0.0
C461 C 0.05747 0.01109 0.24206 0.0
C462 C 0.01278 0.05449 0.18946 0.0
C463 C 0.04259 0.01817 0.13238 0.0
C464 C 0.04336 0.02477 0.15685 0.0
C465 C 0.04821 0.0441 0.22767 0.0
C466 C 0.04636 0.03751 0.2033 0.0
H467 H 0.07601 0.94781 0.09496 0.0
H468 H 0.06737 0.95554 0.13442 0.0
H469 H 0.98443 0.06087 0.15633 0.0
H470 H 0.03839 0.12058 0.26606 0.0
H471 H 0.0347 0.1096 0.22599 0.0
C472 C 0.0603 0.06645 0.92764 0.0
C473 C 0.06622 0.02984 0.93959 0.0
C474 C 0.06612 0.06676 0.90492 0.0
C475 C 0.04531 0.99658 0.85918 0.0
H476 H 0.1009 0.07555 0.8232 0.0
C477 C 0.03778 0.97839 0.76436 0.0
C478 C 0.03419 0.01413 0.75151 0.0
C479 C 0.04605 0.98122 0.78733 0.0
C480 C 0.0847 0.05355 0.833 0.0
H481 H 0.08507 0.96574 0.93786 0.0
H482 H 0.09538 0.96616 0.89817 0.0
H483 H 0.11177 0.08014 0.86367 0.0
H484 H 0.03619 0.08094 0.75269 0.0
H485 H 0.04964 0.08604 0.79289 0.0
H486 H 0.01649 0.97102 0.82896 0.0
C487 C 0.08675 0.99467 0.90632 0.0
C488 C 0.09128 0.05605 0.85614 0.0
C489 C 0.08155 0.99457 0.92905 0.0
C490 C 0.03924 0.05283 0.76214 0.0
C491 C 0.04711 0.0557 0.78519 0.0
C492 C 0.03819 0.99446 0.83616 0.0
C493 C 0.07705 0.0302 0.89389 0.0
C494 C 0.07193 0.02733 0.86939 0.0
C495 C 0.0505 0.01991 0.7981 0.0
C496 C 0.05799 0.02272 0.82271 0.0
H497 H 0.04719 0.09361 0.93538 0.0
H498 H 0.05818 0.09445 0.89566 0.0
H499 H 0.0291 0.9747 0.86907 0.0
H500 H 0.03475 0.9481 0.75661 0.0
H501 H 0.04936 0.95292 0.7966 0.0
C502 C 0.53762 0.43872 0.59534 0.0
C503 C 0.5265 0.47176 0.58132 0.0
C504 C 0.5323 0.44179 0.61807 0.0
C505 C 0.49142 0.51067 0.66266 0.0
H506 H 0.5903 0.46559 0.6971 0.0
C507 C 0.54071 0.56362 0.75289 0.0
C508 C 0.55133 0.53258 0.76844 0.0
C509 C 0.5349 0.55422 0.7302 0.0
C510 C 0.56225 0.47804 0.68778 0.0
H511 H 0.49856 0.53283 0.57969 0.0
H512 H 0.48996 0.53887 0.61934 0.0
H513 H 0.58073 0.45102 0.65754 0.0
H514 H 0.56492 0.4672 0.7719 0.0
H515 H 0.55595 0.45113 0.7323 0.0
H516 H 0.47418 0.53905 0.69304 0.0
C517 C 0.50187 0.51001 0.61294 0.0
C518 C 0.55645 0.46943 0.66502 0.0
C519 C 0.50641 0.5065 0.59008 0.0
C520 C 0.55733 0.49208 0.76051 0.0
C521 C 0.55195 0.48277 0.73777 0.0
C522 C 0.49754 0.51968 0.68542 0.0
C523 C 0.51688 0.47853 0.62742 0.0
C524 C 0.52097 0.48564 0.65204 0.0
C525 C 0.54008 0.51363 0.72237 0.0
C526 C 0.53311 0.50356 0.69824 0.0
H527 H 0.55372 0.41183 0.589 0.0
H528 H 0.54283 0.41626 0.62847 0.0
H529 H 0.46346 0.52339 0.65342 0.0
H530 H 0.53679 0.59534 0.75821 0.0
H531 H 0.52664 0.57886 0.71874 0.0
C532 C 0.49477 0.48694 0.42806 0.0
C533 C 0.53313 0.48201 0.44155 0.0
C534 C 0.49516 0.48649 0.405 0.0
C535 C 0.5659 0.50468 0.35986 0.0
H536 H 0.4714 0.45421 0.32386 0.0
C537 C 0.5562 0.49601 0.26305 0.0
C538 C 0.51524 0.50204 0.25204 0.0
C539 C 0.56104 0.49367 0.28624 0.0
C540 C 0.49782 0.46884 0.33365 0.0
H541 H 0.60203 0.47194 0.44139 0.0
H542 H 0.60271 0.47079 0.40083 0.0
H543 H 0.47547 0.44686 0.36392 0.0
H544 H 0.44778 0.51308 0.25698 0.0
H545 H 0.45617 0.50893 0.2972 0.0
H546 H 0.58803 0.5268 0.32941 0.0
C547 C 0.57234 0.47534 0.40822 0.0
C548 C 0.50021 0.46453 0.35665 0.0
C549 C 0.5719 0.47559 0.43142 0.0
C550 C 0.47962 0.50738 0.26484 0.0
C551 C 0.48443 0.50497 0.28793 0.0
C552 C 0.56354 0.50893 0.33675 0.0
C553 C 0.53395 0.48116 0.39474 0.0
C554 C 0.53388 0.4829 0.37011 0.0
C555 C 0.52501 0.49723 0.29892 0.0
C556 C 0.52907 0.49157 0.32341 0.0
H557 H 0.46437 0.49222 0.43531 0.0
H558 H 0.46509 0.49168 0.39522 0.0
H559 H 0.59203 0.51958 0.36974 0.0
H560 H 0.5843 0.49152 0.25372 0.0
H561 H 0.59274 0.48757 0.29418 0.0
loop_
_geom_bond_atom_site_label_1
_geom_bond_atom_site_label_2
_geom_bond_distance
_geom_bond_site_symmetry_2
_ccdc_geom_bond_type
Zn0 O6 1.920 1_545 S
Zn0 O12 1.898 . S
Zn0 O15 1.905 1_545 S
Zn1 O9 1.905 . S
Zn1 O10 1.898 1_545 S
Zn1 O18 1.920 1_545 S
Zn2 O5 2.080 1_445 S
Zn2 O8 2.114 . S
Zn2 O11 2.120 1_545 S
Zn2 O13 2.120 1_455 S
Zn2 O14 2.114 1_554 S
Zn2 O17 2.080 . S
C3 O8 1.166 . S
C3 O9 1.182 . S
C4 O10 1.167 . S
C4 O11 1.299 . S
O5 Zn2 2.080 1_665 S
O5 C19 1.305 . S
O6 Zn0 1.920 1_565 S
O6 C19 1.234 1_556 S
C7 O12 1.167 . S
C7 O13 1.299 1_556 S
O8 Zn2 2.114 . S
O8 C3 1.166 . S
O9 Zn1 1.905 . S
O9 C3 1.182 . S
O10 Zn1 1.898 1_565 S
O10 C4 1.167 . S
O11 Zn2 2.120 1_565 S
O11 C4 1.299 . S
O12 Zn0 1.898 . S
O12 C7 1.167 . S
O13 Zn2 2.120 1_655 S
O13 C7 1.299 1_554 S
O14 Zn2 2.114 1_556 S
O14 C16 1.166 1_545 S
O15 Zn0 1.905 1_565 S
O15 C16 1.182 1_655 S
C16 O14 1.166 1_565 S
C16 O15 1.182 1_455 S
O17 Zn2 2.080 . S
O17 C20 1.305 1_545 S
O18 Zn1 1.920 1_565 S
O18 C20 1.234 . S
C19 O5 1.305 . S
C19 O6 1.234 1_554 S
C20 O17 1.305 1_565 S
C20 O18 1.234 . S
Zn21 O27 1.920 . S
Zn21 O33 1.898 . S
Zn21 O36 1.905 . S
Zn22 O30 1.905 . S
Zn22 O31 1.898 . S
Zn22 O39 1.920 . S
Zn23 O26 2.080 . S
Zn23 O29 2.114 . S
Zn23 O32 2.120 . S
Zn23 O34 2.120 . S
Zn23 O35 2.114 . S
Zn23 O38 2.080 . S
C24 O29 1.166 . S
C24 O30 1.182 . S
C25 O31 1.167 . S
C25 O32 1.299 . S
O26 Zn23 2.080 . S
O26 C40 1.305 . S
O27 Zn21 1.920 . S
O27 C40 1.234 . S
C28 O33 1.167 . S
C28 O34 1.299 . S
O29 Zn23 2.114 . S
O29 C24 1.166 . S
O30 Zn22 1.905 . S
O30 C24 1.182 . S
O31 Zn22 1.898 . S
O31 C25 1.167 . S
O32 Zn23 2.120 . S
O32 C25 1.299 . S
O33 Zn21 1.898 . S
O33 C28 1.167 . S
O34 Zn23 2.120 . S
O34 C28 1.299 . S
O35 Zn23 2.114 . S
O35 C37 1.166 . S
O36 Zn21 1.905 . S
O36 C37 1.182 . S
C37 O35 1.166 . S
C37 O36 1.182 . S
O38 Zn23 2.080 . S
O38 C41 1.305 . S
O39 Zn22 1.920 . S
O39 C41 1.234 . S
C40 O26 1.305 . S
C40 O27 1.234 . S
C41 O38 1.305 . S
C41 O39 1.234 . S
C42 C43 1.264 1_455 S
C42 C47 1.482 . S
C42 C52 1.465 . S
C43 C42 1.264 1_655 S
C43 C45 1.339 . S
C43 H70 0.931 . S
C44 C45 1.395 . S
C44 C46 1.320 . S
C45 C43 1.339 . S
C45 C44 1.395 . S
C45 H71 0.929 . S
C46 C44 1.320 . S
C46 C47 1.386 1_655 S
C46 H72 0.930 . S
C47 C42 1.482 . S
C47 C46 1.386 1_455 S
C47 H73 0.945 . S
U48 O49 2.454 . S
U48 O50 2.458 1_545 S
U48 C51 2.984 1_545 S
U48 C52 2.847 . S
U48 C65 2.882 . S
U48 O66 2.441 . S
U48 O67 2.420 . S
U48 O68 2.455 . S
U48 O69 2.449 . S
O49 U48 2.454 . S
O49 C51 1.353 1_545 S
O50 U48 2.458 1_565 S
O50 C51 1.286 . S
C51 U48 2.984 1_565 S
C51 O49 1.353 1_565 S
C51 O50 1.286 . S
C51 C53 1.363 . S
C52 C42 1.465 . S
C52 U48 2.847 . S
C52 O66 1.249 . S
C52 O67 1.202 . S
C53 C51 1.363 . S
C53 C55 1.408 . S
C53 C58 1.342 . S
C54 C55 1.310 . S
C54 C57 1.461 . S
C54 H74 0.932 . S
C55 C53 1.408 . S
C55 C54 1.310 . S
C55 H75 0.930 . S
C56 C57 1.474 . S
C56 C58 1.285 . S
C56 H76 0.929 . S
C57 C54 1.461 . S
C57 C56 1.474 . S
C58 C53 1.342 . S
C58 C56 1.285 . S
C58 H77 0.930 . S
C59 C62 1.424 . S
C59 C64 1.245 . S
C59 C65 1.428 . S
C60 C63 1.260 . S
C60 C64 1.477 . S
C60 H78 0.932 . S
C61 C62 1.384 . S
C61 C63 1.479 . S
C61 H79 0.929 . S
C62 C59 1.424 . S
C62 C61 1.384 . S
C62 H80 0.928 . S
C63 C60 1.260 . S
C63 C61 1.479 . S
C64 C59 1.245 . S
C64 C60 1.477 . S
C64 H81 0.932 . S
C65 U48 2.882 . S
C65 C59 1.428 . S
C65 O68 1.301 . S
C65 O69 1.282 . S
O66 U48 2.441 . S
O66 C52 1.249 . S
O67 U48 2.420 . S
O67 C52 1.202 . S
O68 U48 2.455 . S
O68 C65 1.301 . S
O69 U48 2.449 . S
O69 C65 1.282 . S
H70 C43 0.931 . S
H71 C45 0.929 . S
H72 C46 0.930 . S
H73 C47 0.945 . S
H74 C54 0.932 . S
H75 C55 0.930 . S
H76 C56 0.929 . S
H77 C58 0.930 . S
H78 C60 0.932 . S
H79 C61 0.929 . S
H80 C62 0.928 . S
H81 C64 0.932 . S
C82 C83 1.264 . S
C82 C87 1.479 . S
C82 C92 1.465 . S
C83 C82 1.264 . S
C83 C85 1.339 . S
C83 H110 0.931 . S
C84 C85 1.395 . S
C84 C86 1.320 . S
C85 C83 1.339 . S
C85 C84 1.395 . S
C85 H111 0.929 . S
C86 C84 1.320 . S
C86 C87 1.405 . S
C86 H112 0.930 . S
C87 C82 1.479 . S
C87 C86 1.405 . S
C87 H113 0.931 . S
U88 O89 2.454 . S
U88 O90 2.458 . S
U88 C91 2.984 . S
U88 C92 2.847 1_445 S
U88 C105 2.882 . S
U88 O106 2.441 1_445 S
U88 O107 2.420 1_445 S
U88 O108 2.455 . S
U88 O109 2.449 1_545 S
O89 U88 2.454 . S
O89 C91 1.353 . S
O90 U88 2.458 . S
O90 C91 1.286 . S
C91 U88 2.984 . S
C91 O89 1.353 . S
C91 O90 1.286 . S
C91 C93 1.363 . S
C92 C82 1.465 . S
C92 U88 2.847 1_665 S
C92 O106 1.249 . S
C92 O107 1.202 . S
C93 C91 1.363 . S
C93 C95 1.408 . S
C93 C98 1.342 . S
C94 C95 1.310 . S
C94 C97 1.461 . S
C94 H114 0.932 . S
C95 C93 1.408 . S
C95 C94 1.310 . S
C95 H115 0.930 . S
C96 C97 1.474 . S
C96 C98 1.285 . S
C96 H116 0.929 . S
C97 C94 1.461 . S
C97 C96 1.474 . S
C98 C93 1.342 . S
C98 C96 1.285 . S
C98 H117 0.930 . S
C99 C102 1.424 1_445 S
C99 C104 1.245 . S
C99 C105 1.428 . S
C100 C103 1.260 . S
C100 C104 1.477 . S
C100 H118 0.932 . S
C101 C102 1.384 . S
C101 C103 1.479 1_665 S
C101 H119 0.929 . S
C102 C99 1.424 1_665 S
C102 C101 1.384 . S
C102 H120 0.928 . S
C103 C100 1.260 . S
C103 C101 1.479 1_445 S
C104 C99 1.245 . S
C104 C100 1.477 . S
C104 H121 0.932 . S
C105 U88 2.882 . S
C105 C99 1.428 . S
C105 O108 1.301 . S
C105 O109 1.282 1_545 S
O106 U88 2.441 1_665 S
O106 C92 1.249 . S
O107 U88 2.420 1_665 S
O107 C92 1.202 . S
O108 U88 2.455 . S
O108 C105 1.301 . S
O109 U88 2.449 1_565 S
O109 C105 1.282 1_565 S
H110 C83 0.931 . S
H111 C85 0.929 . S
H112 C86 0.930 . S
H113 C87 0.931 . S
H114 C94 0.932 . S
H115 C95 0.930 . S
H116 C96 0.929 . S
H117 C98 0.930 . S
H118 C100 0.932 . S
H119 C101 0.929 . S
H120 C102 0.928 . S
H121 C104 0.932 . S
C122 C123 1.264 . S
C122 C127 1.479 . S
C122 C132 1.465 . S
C123 C122 1.264 . S
C123 C125 1.339 . S
C123 H150 0.931 . S
C124 C125 1.395 . S
C124 C126 1.320 . S
C125 C123 1.339 . S
C125 C124 1.395 . S
C125 H151 0.929 . S
C126 C124 1.320 . S
C126 C127 1.405 . S
C126 H152 0.930 . S
C127 C122 1.479 . S
C127 C126 1.405 . S
C127 H153 0.931 . S
U128 O129 2.454 . S
U128 O130 2.458 . S
U128 C131 2.984 . S
U128 C132 2.847 . S
U128 C145 2.882 . S
U128 O146 2.441 . S
U128 O147 2.420 . S
U128 O148 2.455 . S
U128 O149 2.449 . S
O129 U128 2.454 . S
O129 C131 1.353 . S
O130 U128 2.458 . S
O130 C131 1.286 . S
C131 U128 2.984 . S
C131 O129 1.353 . S
C131 O130 1.286 . S
C131 C133 1.363 . S
C132 C122 1.465 . S
C132 U128 2.847 . S
C132 O146 1.249 . S
C132 O147 1.202 . S
C133 C131 1.363 . S
C133 C135 1.408 . S
C133 C138 1.342 . S
C134 C135 1.310 . S
C134 C137 1.461 . S
C134 H154 0.932 . S
C135 C133 1.408 . S
C135 C134 1.310 . S
C135 H155 0.930 . S
C136 C137 1.474 . S
C136 C138 1.285 . S
C136 H156 0.929 . S
C137 C134 1.461 . S
C137 C136 1.474 . S
C138 C133 1.342 . S
C138 C136 1.285 . S
C138 H157 0.930 . S
C139 C142 1.424 . S
C139 C144 1.245 . S
C139 C145 1.428 . S
C140 C143 1.260 . S
C140 C144 1.477 . S
C140 H158 0.932 . S
C141 C142 1.384 . S
C141 C143 1.479 . S
C141 H159 0.929 . S
C142 C139 1.424 . S
C142 C141 1.384 . S
C142 H160 0.928 . S
C143 C140 1.260 . S
C143 C141 1.479 . S
C144 C139 1.245 . S
C144 C140 1.477 . S
C144 H161 0.932 . S
C145 U128 2.882 . S
C145 C139 1.428 . S
C145 O148 1.301 . S
C145 O149 1.282 . S
O146 U128 2.441 . S
O146 C132 1.249 . S
O147 U128 2.420 . S
O147 C132 1.202 . S
O148 U128 2.455 . S
O148 C145 1.301 . S
O149 U128 2.449 . S
O149 C145 1.282 . S
H150 C123 0.931 . S
H151 C125 0.929 . S
H152 C126 0.930 . S
H153 C127 0.931 . S
H154 C134 0.932 . S
H155 C135 0.930 . S
H156 C136 0.929 . S
H157 C138 0.930 . S
H158 C140 0.932 . S
H159 C141 0.929 . S
H160 C142 0.928 . S
H161 C144 0.932 . S
C162 C163 1.264 . S
C162 C167 1.479 . S
C162 C172 1.465 . S
C163 C162 1.264 . S
C163 C165 1.339 . S
C163 H190 0.931 . S
C164 C165 1.395 . S
C164 C166 1.320 . S
C165 C163 1.339 . S
C165 C164 1.395 . S
C165 H191 0.929 . S
C166 C164 1.320 . S
C166 C167 1.405 . S
C166 H192 0.930 . S
C167 C162 1.479 . S
C167 C166 1.405 . S
C167 H193 0.931 . S
U168 O169 2.454 . S
U168 O170 2.458 . S
U168 C171 2.984 . S
U168 C172 2.847 . S
U168 C185 2.882 . S
U168 O186 2.441 . S
U168 O187 2.420 . S
U168 O188 2.455 . S
U168 O189 2.449 . S
O169 U168 2.454 . S
O169 C171 1.353 . S
O170 U168 2.458 . S
O170 C171 1.286 . S
C171 U168 2.984 . S
C171 O169 1.353 . S
C171 O170 1.286 . S
C171 C173 1.363 . S
C172 C162 1.465 . S
C172 U168 2.847 . S
C172 O186 1.249 . S
C172 O187 1.202 . S
C173 C171 1.363 . S
C173 C175 1.408 . S
C173 C178 1.342 . S
C174 C175 1.310 . S
C174 C177 1.461 . S
C174 H194 0.932 . S
C175 C173 1.408 . S
C175 C174 1.310 . S
C175 H195 0.930 . S
C176 C177 1.474 . S
C176 C178 1.285 . S
C176 H196 0.929 . S
C177 C174 1.461 . S
C177 C176 1.474 . S
C178 C173 1.342 . S
C178 C176 1.285 . S
C178 H197 0.930 . S
C179 C182 1.424 . S
C179 C184 1.245 . S
C179 C185 1.428 . S
C180 C183 1.260 . S
C180 C184 1.477 . S
C180 H198 0.932 . S
C181 C182 1.384 . S
C181 C183 1.479 . S
C181 H199 0.929 . S
C182 C179 1.424 . S
C182 C181 1.384 . S
C182 H200 0.928 . S
C183 C180 1.260 . S
C183 C181 1.479 . S
C184 C179 1.245 . S
C184 C180 1.477 . S
C184 H201 0.932 . S
C185 U168 2.882 . S
C185 C179 1.428 . S
C185 O188 1.301 . S
C185 O189 1.282 . S
O186 U168 2.441 . S
O186 C172 1.249 . S
O187 U168 2.420 . S
O187 C172 1.202 . S
O188 U168 2.455 . S
O188 C185 1.301 . S
O189 U168 2.449 . S
O189 C185 1.282 . S
H190 C163 0.931 . S
H191 C165 0.929 . S
H192 C166 0.930 . S
H193 C167 0.931 . S
H194 C174 0.932 . S
H195 C175 0.930 . S
H196 C176 0.929 . S
H197 C178 0.930 . S
H198 C180 0.932 . S
H199 C181 0.929 . S
H200 C182 0.928 . S
H201 C184 0.932 . S
C202 C203 1.349 . S
C202 C204 1.327 . S
C202 H227 0.950 . S
C203 C202 1.349 . S
C203 C219 1.349 . S
C204 C202 1.327 . S
C204 C223 1.429 . S
C204 H228 0.950 . S
C205 C222 1.574 . S
C205 C224 1.368 . S
C205 H229 0.949 . S
H206 C210 0.949 . S
C207 C208 1.349 . S
C207 C209 1.327 . S
C207 H230 0.950 . S
C208 C207 1.349 . S
C208 C220 1.349 . S
C209 C207 1.327 . S
C209 C225 1.429 . S
C209 H231 0.950 . S
C210 H206 0.949 . S
C210 C218 1.574 . S
C210 C226 1.368 . S
H211 C219 0.950 1_556 S
H212 C217 0.950 1_556 S
H213 C218 0.949 . S
H214 C220 0.950 . S
H215 C221 0.950 . S
H216 C222 0.949 . S
C217 H212 0.950 1_554 S
C217 C219 1.327 . S
C217 C223 1.429 . S
C218 C210 1.574 . S
C218 H213 0.949 . S
C218 C224 1.368 . S
C219 C203 1.349 . S
C219 H211 0.950 1_554 S
C219 C217 1.327 . S
C220 C208 1.349 . S
C220 H214 0.950 . S
C220 C221 1.327 . S
C221 H215 0.950 . S
C221 C220 1.327 . S
C221 C225 1.429 . S
C222 C205 1.574 . S
C222 H216 0.949 . S
C222 C226 1.368 . S
C223 C204 1.429 . S
C223 C217 1.429 . S
C223 C224 1.523 . S
C224 C205 1.368 . S
C224 C218 1.368 . S
C224 C223 1.523 . S
C225 C209 1.429 . S
C225 C221 1.429 . S
C225 C226 1.523 . S
C226 C210 1.368 . S
C226 C222 1.368 . S
C226 C225 1.523 . S
H227 C202 0.950 . S
H228 C204 0.950 . S
H229 C205 0.949 . S
H230 C207 0.950 . S
H231 C209 0.950 . S
C232 C233 1.349 . S
C232 C234 1.327 . S
C232 H257 0.950 . S
C233 C232 1.349 . S
C233 C249 1.349 1_556 S
C234 C232 1.327 . S
C234 C253 1.429 . S
C234 H258 0.950 . S
C235 C252 1.574 . S
C235 C254 1.368 . S
C235 H259 0.949 1_556 S
H236 C240 0.949 . S
C237 C238 1.349 . S
C237 C239 1.327 . S
C237 H260 0.950 . S
C238 C237 1.349 . S
C238 C250 1.349 . S
C239 C237 1.327 . S
C239 C255 1.429 . S
C239 H261 0.950 . S
C240 H236 0.949 . S
C240 C248 1.574 . S
C240 C256 1.368 . S
H241 C249 0.950 . S
H242 C247 0.968 . S
H243 C248 0.949 . S
H244 C250 0.950 . S
H245 C251 0.950 . S
H246 C252 0.949 . S
C247 H242 0.968 . S
C247 C249 1.336 . S
C247 C253 1.404 1_554 S
C248 C240 1.574 . S
C248 H243 0.949 . S
C248 C254 1.368 . S
C249 C233 1.349 1_554 S
C249 H241 0.950 . S
C249 C247 1.336 . S
C250 C238 1.349 . S
C250 H244 0.950 . S
C250 C251 1.327 . S
C251 H245 0.950 . S
C251 C250 1.327 . S
C251 C255 1.429 . S
C252 C235 1.574 . S
C252 H246 0.949 . S
C252 C256 1.368 . S
C253 C234 1.429 . S
C253 C247 1.404 1_556 S
C253 C254 1.523 . S
C254 C235 1.368 . S
C254 C248 1.368 . S
C254 C253 1.523 . S
C255 C239 1.429 . S
C255 C251 1.429 . S
C255 C256 1.523 . S
C256 C240 1.368 . S
C256 C252 1.368 . S
C256 C255 1.523 . S
H257 C232 0.950 . S
H258 C234 0.950 . S
H259 C235 0.949 1_554 S
H260 C237 0.950 . S
H261 C239 0.950 . S
C262 C263 1.349 . S
C262 C264 1.327 . S
C262 H287 0.950 . S
C263 C262 1.349 . S
C263 C279 1.349 . S
C264 C262 1.327 . S
C264 C283 1.429 . S
C264 H288 0.950 . S
C265 C282 1.574 . S
C265 C284 1.368 . S
C265 H289 0.970 . S
H266 C270 0.949 . S
C267 C268 1.349 . S
C267 C269 1.327 . S
C267 H290 0.950 . S
C268 C267 1.349 . S
C268 C280 1.349 . S
C269 C267 1.327 . S
C269 C285 1.429 . S
C269 H291 0.950 . S
C270 H266 0.949 . S
C270 C278 1.574 . S
C270 C286 1.368 . S
H271 C279 0.950 1_556 S
H272 C277 0.950 1_556 S
H273 C278 0.949 . S
H274 C280 0.950 . S
H275 C281 0.950 . S
H276 C282 0.949 . S
C277 H272 0.950 1_554 S
C277 C279 1.327 . S
C277 C283 1.429 . S
C278 C270 1.574 . S
C278 H273 0.949 . S
C278 C284 1.368 . S
C279 C263 1.349 . S
C279 H271 0.950 1_554 S
C279 C277 1.327 . S
C280 C268 1.349 . S
C280 H274 0.950 . S
C280 C281 1.327 . S
C281 H275 0.950 . S
C281 C280 1.327 . S
C281 C285 1.429 . S
C282 C265 1.574 . S
C282 H276 0.949 . S
C282 C286 1.368 . S
C283 C264 1.429 . S
C283 C277 1.429 . S
C283 C284 1.523 . S
C284 C265 1.368 . S
C284 C278 1.368 . S
C284 C283 1.523 . S
C285 C269 1.429 . S
C285 C281 1.429 . S
C285 C286 1.523 . S
C286 C270 1.368 . S
C286 C282 1.368 . S
C286 C285 1.523 . S
H287 C262 0.950 . S
H288 C264 0.950 . S
H289 C265 0.970 . S
H290 C267 0.950 . S
H291 C269 0.950 . S
C292 C293 1.349 1_554 S
C292 C294 1.327 . S
C292 H317 0.950 . S
C293 C292 1.349 1_556 S
C293 C309 1.349 . S
C294 C292 1.327 . S
C294 C313 1.429 1_554 S
C294 H318 0.950 . S
C295 C312 1.574 . S
C295 C314 1.368 . S
C295 H319 0.949 . S
H296 C300 0.949 1_554 S
C297 C298 1.349 . S
C297 C299 1.327 . S
C297 H320 0.950 . S
C298 C297 1.349 . S
C298 C310 1.349 . S
C299 C297 1.327 . S
C299 C315 1.429 . S
C299 H321 0.950 . S
C300 H296 0.949 1_556 S
C300 C308 1.574 . S
C300 C316 1.368 . S
H301 C309 0.950 . S
H302 C307 0.950 . S
H303 C308 0.949 1_554 S
H304 C310 0.950 . S
H305 C311 0.950 . S
H306 C312 0.949 . S
C307 H302 0.950 . S
C307 C309 1.327 . S
C307 C313 1.429 . S
C308 C300 1.574 . S
C308 H303 0.949 1_556 S
C308 C314 1.368 . S
C309 C293 1.349 . S
C309 H301 0.950 . S
C309 C307 1.327 . S
C310 C298 1.349 . S
C310 H304 0.950 . S
C310 C311 1.327 . S
C311 H305 0.950 . S
C311 C310 1.327 . S
C311 C315 1.429 . S
C312 C295 1.574 . S
C312 H306 0.949 . S
C312 C316 1.368 . S
C313 C294 1.429 1_556 S
C313 C307 1.429 . S
C313 C314 1.523 . S
C314 C295 1.368 . S
C314 C308 1.368 . S
C314 C313 1.523 . S
C315 C299 1.429 . S
C315 C311 1.429 . S
C315 C316 1.523 . S
C316 C300 1.368 . S
C316 C312 1.368 . S
C316 C315 1.523 . S
H317 C292 0.950 . S
H318 C294 0.950 . S
H319 C295 0.949 . S
H320 C297 0.950 . S
H321 C299 0.950 . S
C322 C323 1.349 . S
C322 C324 1.327 . S
C322 H347 0.950 . S
C323 C322 1.349 . S
C323 C339 1.349 . S
C324 C322 1.327 . S
C324 C343 1.429 . S
C324 H348 0.950 . S
C325 C342 1.574 . S
C325 C344 1.368 . S
C325 H349 0.949 . S
H326 C330 0.949 . S
C327 C328 1.349 . S
C327 C329 1.327 . S
C327 H350 0.950 . S
C328 C327 1.349 . S
C328 C340 1.349 . S
C329 C327 1.327 . S
C329 C345 1.429 . S
C329 H351 0.950 . S
C330 H326 0.949 . S
C330 C338 1.574 . S
C330 C346 1.368 . S
H331 C339 0.950 . S
H332 C337 0.950 . S
H333 C338 0.949 . S
H334 C340 0.950 . S
H335 C341 0.950 . S
H336 C342 0.949 . S
C337 H332 0.950 . S
C337 C339 1.327 . S
C337 C343 1.429 . S
C338 C330 1.574 . S
C338 H333 0.949 . S
C338 C344 1.368 . S
C339 C323 1.349 . S
C339 H331 0.950 . S
C339 C337 1.327 . S
C340 C328 1.349 . S
C340 H334 0.950 . S
C340 C341 1.327 . S
C341 H335 0.950 . S
C341 C340 1.327 . S
C341 C345 1.429 . S
C342 C325 1.574 . S
C342 H336 0.949 . S
C342 C346 1.368 . S
C343 C324 1.429 . S
C343 C337 1.429 . S
C343 C344 1.523 . S
C344 C325 1.368 . S
C344 C338 1.368 . S
C344 C343 1.523 . S
C345 C329 1.429 . S
C345 C341 1.429 . S
C345 C346 1.523 . S
C346 C330 1.368 . S
C346 C342 1.368 . S
C346 C345 1.523 . S
H347 C322 0.950 . S
H348 C324 0.950 . S
H349 C325 0.949 . S
H350 C327 0.950 . S
H351 C329 0.950 . S
C352 C353 1.349 . S
C352 C354 1.327 . S
C352 H377 0.950 . S
C353 C352 1.349 . S
C353 C369 1.349 . S
C354 C352 1.327 . S
C354 C373 1.429 . S
C354 H378 0.950 . S
C355 C372 1.574 . S
C355 C374 1.368 . S
C355 H379 0.949 . S
H356 C360 0.949 . S
C357 C358 1.349 . S
C357 C359 1.327 . S
C357 H380 0.950 . S
C358 C357 1.349 . S
C358 C370 1.349 . S
C359 C357 1.327 . S
C359 C375 1.429 . S
C359 H381 0.950 . S
C360 H356 0.949 . S
C360 C368 1.574 . S
C360 C376 1.368 . S
H361 C369 0.950 . S
H362 C367 0.950 . S
H363 C368 0.949 . S
H364 C370 0.950 . S
H365 C371 0.950 . S
H366 C372 0.949 . S
C367 H362 0.950 . S
C367 C369 1.327 . S
C367 C373 1.429 . S
C368 C360 1.574 . S
C368 H363 0.949 . S
C368 C374 1.368 . S
C369 C353 1.349 . S
C369 H361 0.950 . S
C369 C367 1.327 . S
C370 C358 1.349 . S
C370 H364 0.950 . S
C370 C371 1.327 . S
C371 H365 0.950 . S
C371 C370 1.327 . S
C371 C375 1.429 . S
C372 C355 1.574 . S
C372 H366 0.949 . S
C372 C376 1.368 . S
C373 C354 1.429 . S
C373 C367 1.429 . S
C373 C374 1.523 . S
C374 C355 1.368 . S
C374 C368 1.368 . S
C374 C373 1.523 . S
C375 C359 1.429 . S
C375 C371 1.429 . S
C375 C376 1.523 . S
C376 C360 1.368 . S
C376 C372 1.368 . S
C376 C375 1.523 . S
H377 C352 0.950 . S
H378 C354 0.950 . S
H379 C355 0.949 . S
H380 C357 0.950 . S
H381 C359 0.950 . S
C382 C383 1.349 . S
C382 C384 1.327 . S
C382 H407 0.950 . S
C383 C382 1.349 . S
C383 C399 1.349 . S
C384 C382 1.327 . S
C384 C403 1.429 . S
C384 H408 0.950 . S
C385 C402 1.574 . S
C385 C404 1.368 . S
C385 H409 0.949 . S
H386 C390 0.949 . S
C387 C388 1.349 . S
C387 C389 1.327 . S
C387 H410 0.950 . S
C388 C387 1.349 . S
C388 C400 1.349 . S
C389 C387 1.327 . S
C389 C405 1.429 . S
C389 H411 0.950 . S
C390 H386 0.949 . S
C390 C398 1.574 . S
C390 C406 1.368 . S
H391 C399 0.950 . S
H392 C397 0.950 . S
H393 C398 0.949 . S
H394 C400 0.950 . S
H395 C401 0.950 . S
H396 C402 0.949 . S
C397 H392 0.950 . S
C397 C399 1.327 . S
C397 C403 1.429 . S
C398 C390 1.574 . S
C398 H393 0.949 . S
C398 C404 1.368 . S
C399 C383 1.349 . S
C399 H391 0.950 . S
C399 C397 1.327 . S
C400 C388 1.349 . S
C400 H394 0.950 . S
C400 C401 1.327 . S
C401 H395 0.950 . S
C401 C400 1.327 . S
C401 C405 1.429 . S
C402 C385 1.574 . S
C402 H396 0.949 . S
C402 C406 1.368 . S
C403 C384 1.429 . S
C403 C397 1.429 . S
C403 C404 1.523 . S
C404 C385 1.368 . S
C404 C398 1.368 . S
C404 C403 1.523 . S
C405 C389 1.429 . S
C405 C401 1.429 . S
C405 C406 1.523 . S
C406 C390 1.368 . S
C406 C402 1.368 . S
C406 C405 1.523 . S
H407 C382 0.950 . S
H408 C384 0.950 . S
H409 C385 0.949 . S
H410 C387 0.950 . S
H411 C389 0.950 . S
C412 C413 1.349 . S
C412 C414 1.327 . S
C412 H437 0.950 . S
C413 C412 1.349 . S
C413 C429 1.349 . S
C414 C412 1.327 . S
C414 C433 1.429 . S
C414 H438 0.950 . S
C415 C432 1.574 . S
C415 C434 1.368 . S
C415 H439 0.949 . S
H416 C420 0.949 . S
C417 C418 1.349 . S
C417 C419 1.327 . S
C417 H440 0.950 . S
C418 C417 1.349 . S
C418 C430 1.349 . S
C419 C417 1.327 . S
C419 C435 1.429 . S
C419 H441 0.950 . S
C420 H416 0.949 . S
C420 C428 1.574 . S
C420 C436 1.368 . S
H421 C429 0.950 . S
H422 C427 0.950 . S
H423 C428 0.949 . S
H424 C430 0.950 . S
H425 C431 0.950 . S
H426 C432 0.949 . S
C427 H422 0.950 . S
C427 C429 1.327 . S
C427 C433 1.429 . S
C428 C420 1.574 . S
C428 H423 0.949 . S
C428 C434 1.368 . S
C429 C413 1.349 . S
C429 H421 0.950 . S
C429 C427 1.327 . S
C430 C418 1.349 . S
C430 H424 0.950 . S
C430 C431 1.327 . S
C431 H425 0.950 . S
C431 C430 1.327 . S
C431 C435 1.429 . S
C432 C415 1.574 . S
C432 H426 0.949 . S
C432 C436 1.368 . S
C433 C414 1.429 . S
C433 C427 1.429 . S
C433 C434 1.523 . S
C434 C415 1.368 . S
C434 C428 1.368 . S
C434 C433 1.523 . S
C435 C419 1.429 . S
C435 C431 1.429 . S
C435 C436 1.523 . S
C436 C420 1.368 . S
C436 C432 1.368 . S
C436 C435 1.523 . S
H437 C412 0.950 . S
H438 C414 0.950 . S
H439 C415 0.949 . S
H440 C417 0.950 . S
H441 C419 0.950 . S
C442 C443 1.349 . S
C442 C444 1.327 . S
C442 H467 0.950 . S
C443 C442 1.349 . S
C443 C459 1.349 1_565 S
C444 C442 1.327 . S
C444 C463 1.429 1_565 S
C444 H468 0.950 . S
C445 C462 1.574 . S
C445 C464 1.368 . S
C445 H469 0.949 . S
H446 C450 0.949 . S
C447 C448 1.349 . S
C447 C449 1.327 . S
C447 H470 0.950 . S
C448 C447 1.349 . S
C448 C460 1.349 . S
C449 C447 1.327 . S
C449 C465 1.429 . S
C449 H471 0.950 . S
C450 H446 0.949 . S
C450 C458 1.574 . S
C450 C466 1.368 1_565 S
H451 C459 0.950 . S
H452 C457 0.950 . S
H453 C458 0.949 . S
H454 C460 0.950 1_565 S
H455 C461 0.950 . S
H456 C462 0.949 . S
C457 H452 0.950 . S
C457 C459 1.327 . S
C457 C463 1.429 . S
C458 C450 1.574 . S
C458 H453 0.949 . S
C458 C464 1.368 1_565 S
C459 C443 1.349 1_545 S
C459 H451 0.950 . S
C459 C457 1.327 . S
C460 C448 1.349 . S
C460 H454 0.950 1_545 S
C460 C461 1.327 1_545 S
C461 H455 0.950 . S
C461 C460 1.327 1_565 S
C461 C465 1.429 1_565 S
C462 C445 1.574 . S
C462 H456 0.949 . S
C462 C466 1.368 . S
C463 C444 1.429 1_545 S
C463 C457 1.429 . S
C463 C464 1.523 . S
C464 C445 1.368 . S
C464 C458 1.368 1_545 S
C464 C463 1.523 . S
C465 C449 1.429 . S
C465 C461 1.429 1_545 S
C465 C466 1.523 . S
C466 C450 1.368 1_545 S
C466 C462 1.368 . S
C466 C465 1.523 . S
H467 C442 0.950 . S
H468 C444 0.950 . S
H469 C445 0.949 . S
H470 C447 0.950 . S
H471 C449 0.950 . S
C472 C473 1.349 1_545 S
C472 C474 1.327 . S
C472 H497 0.950 . S
C473 C472 1.349 1_565 S
C473 C489 1.349 . S
C474 C472 1.327 . S
C474 C493 1.428 1_545 S
C474 H498 0.950 . S
C475 C492 1.574 . S
C475 C494 1.368 1_665 S
C475 H499 0.949 . S
H476 C480 0.949 . S
C477 C478 1.349 1_665 S
C477 C479 1.327 . S
C477 H500 0.950 . S
C478 C477 1.349 1_445 S
C478 C490 1.349 . S
C479 C477 1.327 . S
C479 C495 1.429 1_665 S
C479 H501 0.950 . S
C480 H476 0.949 . S
C480 C488 1.574 . S
C480 C496 1.368 . S
H481 C489 0.950 1_655 S
H482 C487 0.950 1_655 S
H483 C488 0.949 . S
H484 C490 0.950 . S
H485 C491 0.950 . S
H486 C492 0.949 . S
C487 H482 0.950 1_455 S
C487 C489 1.327 . S
C487 C493 1.430 . S
C488 C480 1.574 . S
C488 H483 0.949 . S
C488 C494 1.368 . S
C489 C473 1.349 . S
C489 H481 0.950 1_455 S
C489 C487 1.327 . S
C490 C478 1.349 . S
C490 H484 0.950 . S
C490 C491 1.327 . S
C491 H485 0.950 . S
C491 C490 1.327 . S
C491 C495 1.429 . S
C492 C475 1.574 . S
C492 H486 0.949 . S
C492 C496 1.368 1_665 S
C493 C474 1.428 1_565 S
C493 C487 1.430 . S
C493 C494 1.523 1_565 S
C494 C475 1.368 1_445 S
C494 C488 1.368 . S
C494 C493 1.523 1_545 S
C495 C479 1.429 1_445 S
C495 C491 1.429 . S
C495 C496 1.523 . S
C496 C480 1.368 . S
C496 C492 1.368 1_445 S
C496 C495 1.523 . S
H497 C472 0.950 . S
H498 C474 0.950 . S
H499 C475 0.949 . S
H500 C477 0.950 . S
H501 C479 0.950 . S
C502 C503 1.349 . S
C502 C504 1.327 . S
C502 H527 0.950 . S
C503 C502 1.349 . S
C503 C519 1.349 . S
C504 C502 1.327 . S
C504 C523 1.429 . S
C504 H528 0.950 . S
C505 C522 1.574 . S
C505 C524 1.368 . S
C505 H529 0.949 . S
H506 C510 0.949 . S
C507 C508 1.349 . S
C507 C509 1.327 . S
C507 H530 0.950 . S
C508 C507 1.349 . S
C508 C520 1.349 . S
C509 C507 1.327 . S
C509 C525 1.429 . S
C509 H531 0.950 . S
C510 H506 0.949 . S
C510 C518 1.574 . S
C510 C526 1.368 . S
H511 C519 0.950 . S
H512 C517 0.950 . S
H513 C518 0.949 . S
H514 C520 0.950 . S
H515 C521 0.950 . S
H516 C522 0.949 . S
C517 H512 0.950 . S
C517 C519 1.327 . S
C517 C523 1.429 . S
C518 C510 1.574 . S
C518 H513 0.949 . S
C518 C524 1.368 . S
C519 C503 1.349 . S
C519 H511 0.950 . S
C519 C517 1.327 . S
C520 C508 1.349 . S
C520 H514 0.950 . S
C520 C521 1.327 . S
C521 H515 0.950 . S
C521 C520 1.327 . S
C521 C525 1.429 . S
C522 C505 1.574 . S
C522 H516 0.949 . S
C522 C526 1.368 . S
C523 C504 1.429 . S
C523 C517 1.429 . S
C523 C524 1.523 . S
C524 C505 1.368 . S
C524 C518 1.368 . S
C524 C523 1.523 . S
C525 C509 1.429 . S
C525 C521 1.429 . S
C525 C526 1.523 . S
C526 C510 1.368 . S
C526 C522 1.368 . S
C526 C525 1.523 . S
H527 C502 0.950 . S
H528 C504 0.950 . S
H529 C505 0.949 . S
H530 C507 0.950 . S
H531 C509 0.950 . S
C532 C533 1.349 . S
C532 C534 1.327 . S
C532 H557 0.950 . S
C533 C532 1.349 . S
C533 C549 1.349 . S
C534 C532 1.327 . S
C534 C553 1.429 . S
C534 H558 0.950 . S
C535 C552 1.574 . S
C535 C554 1.368 . S
C535 H559 0.949 . S
H536 C540 0.949 . S
C537 C538 1.349 . S
C537 C539 1.327 . S
C537 H560 0.950 . S
C538 C537 1.349 . S
C538 C550 1.349 . S
C539 C537 1.327 . S
C539 C555 1.429 . S
C539 H561 0.950 . S
C540 H536 0.949 . S
C540 C548 1.574 . S
C540 C556 1.368 . S
H541 C549 0.950 . S
H542 C547 0.950 . S
H543 C548 0.949 . S
H544 C550 0.950 . S
H545 C551 0.950 . S
H546 C552 0.949 . S
C547 H542 0.950 . S
C547 C549 1.327 . S
C547 C553 1.429 . S
C548 C540 1.574 . S
C548 H543 0.949 . S
C548 C554 1.368 . S
C549 C533 1.349 . S
C549 H541 0.950 . S
C549 C547 1.327 . S
C550 C538 1.349 . S
C550 H544 0.950 . S
C550 C551 1.327 . S
C551 H545 0.950 . S
C551 C550 1.327 . S
C551 C555 1.429 . S
C552 C535 1.574 . S
C552 H546 0.949 . S
C552 C556 1.368 . S
C553 C534 1.429 . S
C553 C547 1.429 . S
C553 C554 1.523 . S
C554 C535 1.368 . S
C554 C548 1.368 . S
C554 C553 1.523 . S
C555 C539 1.429 . S
C555 C551 1.429 . S
C555 C556 1.523 . S
C556 C540 1.368 . S
C556 C552 1.368 . S
C556 C555 1.523 . S
H557 C532 0.950 . S
H558 C534 0.950 . S
H559 C535 0.949 . S
H560 C537 0.950 . S
H561 C539 0.950 . S
C208 C164 1.143 . S
C203 C3 1.049 . S
C233 C4 1.530 1_556 S
C238 C124 1.649 . S
C263 C19 1.559 . S
C268 C177 1.660 . S
C293 C7 1.053 . S
C298 C137 1.153 . S
C323 C37 1.049 . S
C328 C84 1.143 . S
C353 C28 1.530 . S
C358 C44 1.649 . S
C388 C97 1.661 . S
C383 C41 1.559 . S
C418 C57 1.153 . S
C413 C25 1.053 . S
C443 C20 1.269 . S
C448 C63 1.424 . S
C473 C16 1.323 . S
C478 C103 1.455 . S
C508 C143 1.424 . S
C503 C40 1.269 . S
C533 C24 1.323 . S
C538 C183 1.455 . S
