# Generated by pormake.
# Topology gar, (4,6)-cn, num edge types: 1
# Building blocks:
#     Node 0, Type 0, BuildingBlock: GALJAG_clean_sbu_0, # of connection points: 4
#     Node 1, Type 0, BuildingBlock: GALJAG_clean_sbu_0, # of connection points: 4
#     Node 2, Type 0, BuildingBlock: GALJAG_clean_sbu_0, # of connection points: 4
#     Node 3, Type 0, BuildingBlock: GALJAG_clean_sbu_0, # of connection points: 4
#     Node 4, Type 0, BuildingBlock: GALJAG_clean_sbu_0, # of connection points: 4
#     Node 5, Type 0, BuildingBlock: GALJAG_clean_sbu_0, # of connection points: 4
#     Node 6, Type 0, BuildingBlock: GALJAG_clean_sbu_0, # of connection points: 4
#     Node 7, Type 0, BuildingBlock: GALJAG_clean_sbu_0, # of connection points: 4
#     Node 8, Type 0, BuildingBlock: GALJAG_clean_sbu_0, # of connection points: 4
#     Node 9, Type 0, BuildingBlock: GALJAG_clean_sbu_0, # of connection points: 4
#     Node 10, Type 0, BuildingBlock: GALJAG_clean_sbu_0, # of connection points: 4
#     Node 11, Type 0, BuildingBlock: GALJAG_clean_sbu_0, # of connection points: 4
#     Node 12, Type 0, BuildingBlock: GALJAG_clean_sbu_0, # of connection points: 4
#     Node 13, Type 0, BuildingBlock: GALJAG_clean_sbu_0, # of connection points: 4
#     Node 14, Type 0, BuildingBlock: GALJAG_clean_sbu_0, # of connection points: 4
#     Node 15, Type 0, BuildingBlock: GALJAG_clean_sbu_0, # of connection points: 4
#     Node 16, Type 0, BuildingBlock: GALJAG_clean_sbu_0, # of connection points: 4
#     Node 17, Type 0, BuildingBlock: GALJAG_clean_sbu_0, # of connection points: 4
#     Node 18, Type 0, BuildingBlock: GALJAG_clean_sbu_0, # of connection points: 4
#     Node 19, Type 0, BuildingBlock: GALJAG_clean_sbu_0, # of connection points: 4
#     Node 20, Type 0, BuildingBlock: GALJAG_clean_sbu_0, # of connection points: 4
#     Node 21, Type 0, BuildingBlock: GALJAG_clean_sbu_0, # of connection points: 4
#     Node 22, Type 0, BuildingBlock: GALJAG_clean_sbu_0, # of connection points: 4
#     Node 23, Type 0, BuildingBlock: GALJAG_clean_sbu_0, # of connection points: 4
#     Node 24, Type 1, BuildingBlock: BETGAK_clean_sbu_0, # of connection points: 6
#     Node 25, Type 1, BuildingBlock: BETGAK_clean_sbu_0, # of connection points: 6
#     Node 26, Type 1, BuildingBlock: BETGAK_clean_sbu_0, # of connection points: 6
#     Node 27, Type 1, BuildingBlock: BETGAK_clean_sbu_0, # of connection points: 6
#     Node 28, Type 1, BuildingBlock: BETGAK_clean_sbu_0, # of connection points: 6
#     Node 29, Type 1, BuildingBlock: BETGAK_clean_sbu_0, # of connection points: 6
#     Node 30, Type 1, BuildingBlock: BETGAK_clean_sbu_0, # of connection points: 6
#     Node 31, Type 1, BuildingBlock: BETGAK_clean_sbu_0, # of connection points: 6
#     Node 32, Type 1, BuildingBlock: BETGAK_clean_sbu_0, # of connection points: 6
#     Node 33, Type 1, BuildingBlock: BETGAK_clean_sbu_0, # of connection points: 6
#     Node 34, Type 1, BuildingBlock: BETGAK_clean_sbu_0, # of connection points: 6
#     Node 35, Type 1, BuildingBlock: BETGAK_clean_sbu_0, # of connection points: 6
#     Node 36, Type 1, BuildingBlock: BETGAK_clean_sbu_0, # of connection points: 6
#     Node 37, Type 1, BuildingBlock: BETGAK_clean_sbu_0, # of connection points: 6
#     Node 38, Type 1, BuildingBlock: BETGAK_clean_sbu_0, # of connection points: 6
#     Node 39, Type 1, BuildingBlock: BETGAK_clean_sbu_0, # of connection points: 6
#     Edge 40, Type (0, 1), BuildingBlock: MIFKUJ_clean_linker_0, # of connection points: 2
#     Edge 41, Type (0, 1), BuildingBlock: MIFKUJ_clean_linker_0, # of connection points: 2
#     Edge 42, Type (0, 1), BuildingBlock: MIFKUJ_clean_linker_0, # of connection points: 2
#     Edge 43, Type (0, 1), BuildingBlock: MIFKUJ_clean_linker_0, # of connection points: 2
#     Edge 44, Type (0, 1), BuildingBlock: MIFKUJ_clean_linker_0, # of connection points: 2
#     Edge 45, Type (0, 1), BuildingBlock: MIFKUJ_clean_linker_0, # of connection points: 2
#     Edge 46, Type (0, 1), BuildingBlock: MIFKUJ_clean_linker_0, # of connection points: 2
#     Edge 47, Type (0, 1), BuildingBlock: MIFKUJ_clean_linker_0, # of connection points: 2
#     Edge 48, Type (0, 1), BuildingBlock: MIFKUJ_clean_linker_0, # of connection points: 2
#     Edge 49, Type (0, 1), BuildingBlock: MIFKUJ_clean_linker_0, # of connection points: 2
#     Edge 50, Type (0, 1), BuildingBlock: MIFKUJ_clean_linker_0, # of connection points: 2
#     Edge 51, Type (0, 1), BuildingBlock: MIFKUJ_clean_linker_0, # of connection points: 2
#     Edge 52, Type (0, 1), BuildingBlock: MIFKUJ_clean_linker_0, # of connection points: 2
#     Edge 53, Type (0, 1), BuildingBlock: MIFKUJ_clean_linker_0, # of connection points: 2
#     Edge 54, Type (0, 1), BuildingBlock: MIFKUJ_clean_linker_0, # of connection points: 2
#     Edge 55, Type (0, 1), BuildingBlock: MIFKUJ_clean_linker_0, # of connection points: 2
#     Edge 56, Type (0, 1), BuildingBlock: MIFKUJ_clean_linker_0, # of connection points: 2
#     Edge 57, Type (0, 1), BuildingBlock: MIFKUJ_clean_linker_0, # of connection points: 2
#     Edge 58, Type (0, 1), BuildingBlock: MIFKUJ_clean_linker_0, # of connection points: 2
#     Edge 59, Type (0, 1), BuildingBlock: MIFKUJ_clean_linker_0, # of connection points: 2
#     Edge 60, Type (0, 1), BuildingBlock: MIFKUJ_clean_linker_0, # of connection points: 2
#     Edge 61, Type (0, 1), BuildingBlock: MIFKUJ_clean_linker_0, # of connection points: 2
#     Edge 62, Type (0, 1), BuildingBlock: MIFKUJ_clean_linker_0, # of connection points: 2
#     Edge 63, Type (0, 1), BuildingBlock: MIFKUJ_clean_linker_0, # of connection points: 2
#     Edge 64, Type (0, 1), BuildingBlock: MIFKUJ_clean_linker_0, # of connection points: 2
#     Edge 65, Type (0, 1), BuildingBlock: MIFKUJ_clean_linker_0, # of connection points: 2
#     Edge 66, Type (0, 1), BuildingBlock: MIFKUJ_clean_linker_0, # of connection points: 2
#     Edge 67, Type (0, 1), BuildingBlock: MIFKUJ_clean_linker_0, # of connection points: 2
#     Edge 68, Type (0, 1), BuildingBlock: MIFKUJ_clean_linker_0, # of connection points: 2
#     Edge 69, Type (0, 1), BuildingBlock: MIFKUJ_clean_linker_0, # of connection points: 2
#     Edge 70, Type (0, 1), BuildingBlock: MIFKUJ_clean_linker_0, # of connection points: 2
#     Edge 71, Type (0, 1), BuildingBlock: MIFKUJ_clean_linker_0, # of connection points: 2
#     Edge 72, Type (0, 1), BuildingBlock: MIFKUJ_clean_linker_0, # of connection points: 2
#     Edge 73, Type (0, 1), BuildingBlock: MIFKUJ_clean_linker_0, # of connection points: 2
#     Edge 74, Type (0, 1), BuildingBlock: MIFKUJ_clean_linker_0, # of connection points: 2
#     Edge 75, Type (0, 1), BuildingBlock: MIFKUJ_clean_linker_0, # of connection points: 2
#     Edge 76, Type (0, 1), BuildingBlock: MIFKUJ_clean_linker_0, # of connection points: 2
#     Edge 77, Type (0, 1), BuildingBlock: MIFKUJ_clean_linker_0, # of connection points: 2
#     Edge 78, Type (0, 1), BuildingBlock: MIFKUJ_clean_linker_0, # of connection points: 2
#     Edge 79, Type (0, 1), BuildingBlock: MIFKUJ_clean_linker_0, # of connection points: 2
#     Edge 80, Type (0, 1), BuildingBlock: MIFKUJ_clean_linker_0, # of connection points: 2
#     Edge 81, Type (0, 1), BuildingBlock: MIFKUJ_clean_linker_0, # of connection points: 2
#     Edge 82, Type (0, 1), BuildingBlock: MIFKUJ_clean_linker_0, # of connection points: 2
#     Edge 83, Type (0, 1), BuildingBlock: MIFKUJ_clean_linker_0, # of connection points: 2
#     Edge 84, Type (0, 1), BuildingBlock: MIFKUJ_clean_linker_0, # of connection points: 2
#     Edge 85, Type (0, 1), BuildingBlock: MIFKUJ_clean_linker_0, # of connection points: 2
#     Edge 86, Type (0, 1), BuildingBlock: MIFKUJ_clean_linker_0, # of connection points: 2
#     Edge 87, Type (0, 1), BuildingBlock: MIFKUJ_clean_linker_0, # of connection points: 2
#     Edge 88, Type (0, 1), BuildingBlock: MIFKUJ_clean_linker_0, # of connection points: 2
#     Edge 89, Type (0, 1), BuildingBlock: MIFKUJ_clean_linker_0, # of connection points: 2
#     Edge 90, Type (0, 1), BuildingBlock: MIFKUJ_clean_linker_0, # of connection points: 2
#     Edge 91, Type (0, 1), BuildingBlock: MIFKUJ_clean_linker_0, # of connection points: 2
#     Edge 92, Type (0, 1), BuildingBlock: MIFKUJ_clean_linker_0, # of connection points: 2
#     Edge 93, Type (0, 1), BuildingBlock: MIFKUJ_clean_linker_0, # of connection points: 2
#     Edge 94, Type (0, 1), BuildingBlock: MIFKUJ_clean_linker_0, # of connection points: 2
#     Edge 95, Type (0, 1), BuildingBlock: MIFKUJ_clean_linker_0, # of connection points: 2
#     Edge 96, Type (0, 1), BuildingBlock: MIFKUJ_clean_linker_0, # of connection points: 2
#     Edge 97, Type (0, 1), BuildingBlock: MIFKUJ_clean_linker_0, # of connection points: 2
#     Edge 98, Type (0, 1), BuildingBlock: MIFKUJ_clean_linker_0, # of connection points: 2
#     Edge 99, Type (0, 1), BuildingBlock: MIFKUJ_clean_linker_0, # of connection points: 2
#     Edge 100, Type (0, 1), BuildingBlock: MIFKUJ_clean_linker_0, # of connection points: 2
#     Edge 101, Type (0, 1), BuildingBlock: MIFKUJ_clean_linker_0, # of connection points: 2
#     Edge 102, Type (0, 1), BuildingBlock: MIFKUJ_clean_linker_0, # of connection points: 2
#     Edge 103, Type (0, 1), BuildingBlock: MIFKUJ_clean_linker_0, # of connection points: 2
#     Edge 104, Type (0, 1), BuildingBlock: MIFKUJ_clean_linker_0, # of connection points: 2
#     Edge 105, Type (0, 1), BuildingBlock: MIFKUJ_clean_linker_0, # of connection points: 2
#     Edge 106, Type (0, 1), BuildingBlock: MIFKUJ_clean_linker_0, # of connection points: 2
#     Edge 107, Type (0, 1), BuildingBlock: MIFKUJ_clean_linker_0, # of connection points: 2
#     Edge 108, Type (0, 1), BuildingBlock: MIFKUJ_clean_linker_0, # of connection points: 2
#     Edge 109, Type (0, 1), BuildingBlock: MIFKUJ_clean_linker_0, # of connection points: 2
#     Edge 110, Type (0, 1), BuildingBlock: MIFKUJ_clean_linker_0, # of connection points: 2
#     Edge 111, Type (0, 1), BuildingBlock: MIFKUJ_clean_linker_0, # of connection points: 2
#     Edge 112, Type (0, 1), BuildingBlock: MIFKUJ_clean_linker_0, # of connection points: 2
#     Edge 113, Type (0, 1), BuildingBlock: MIFKUJ_clean_linker_0, # of connection points: 2
#     Edge 114, Type (0, 1), BuildingBlock: MIFKUJ_clean_linker_0, # of connection points: 2
#     Edge 115, Type (0, 1), BuildingBlock: MIFKUJ_clean_linker_0, # of connection points: 2
#     Edge 116, Type (0, 1), BuildingBlock: MIFKUJ_clean_linker_0, # of connection points: 2
#     Edge 117, Type (0, 1), BuildingBlock: MIFKUJ_clean_linker_0, # of connection points: 2
#     Edge 118, Type (0, 1), BuildingBlock: MIFKUJ_clean_linker_0, # of connection points: 2
#     Edge 119, Type (0, 1), BuildingBlock: MIFKUJ_clean_linker_0, # of connection points: 2
#     Edge 120, Type (0, 1), BuildingBlock: MIFKUJ_clean_linker_0, # of connection points: 2
#     Edge 121, Type (0, 1), BuildingBlock: MIFKUJ_clean_linker_0, # of connection points: 2
#     Edge 122, Type (0, 1), BuildingBlock: MIFKUJ_clean_linker_0, # of connection points: 2
#     Edge 123, Type (0, 1), BuildingBlock: MIFKUJ_clean_linker_0, # of connection points: 2
#     Edge 124, Type (0, 1), BuildingBlock: MIFKUJ_clean_linker_0, # of connection points: 2
#     Edge 125, Type (0, 1), BuildingBlock: MIFKUJ_clean_linker_0, # of connection points: 2
#     Edge 126, Type (0, 1), BuildingBlock: MIFKUJ_clean_linker_0, # of connection points: 2
#     Edge 127, Type (0, 1), BuildingBlock: MIFKUJ_clean_linker_0, # of connection points: 2
#     Edge 128, Type (0, 1), BuildingBlock: MIFKUJ_clean_linker_0, # of connection points: 2
#     Edge 129, Type (0, 1), BuildingBlock: MIFKUJ_clean_linker_0, # of connection points: 2
#     Edge 130, Type (0, 1), BuildingBlock: MIFKUJ_clean_linker_0, # of connection points: 2
#     Edge 131, Type (0, 1), BuildingBlock: MIFKUJ_clean_linker_0, # of connection points: 2
#     Edge 132, Type (0, 1), BuildingBlock: MIFKUJ_clean_linker_0, # of connection points: 2
#     Edge 133, Type (0, 1), BuildingBlock: MIFKUJ_clean_linker_0, # of connection points: 2
#     Edge 134, Type (0, 1), BuildingBlock: MIFKUJ_clean_linker_0, # of connection points: 2
#     Edge 135, Type (0, 1), BuildingBlock: MIFKUJ_clean_linker_0, # of connection points: 2
# Relax obj value: 0.182
# Max RMSD: 0.286
# Mean RMSD: 0.168
data_MOF--net-gar--node1-GALJAG_clean_sbu_0--node2-BETGAK_clean_sbu_0--edge1-MIFKUJ_clean_linker_0
_symmetry_space_group_name_H-M    P1
_symmetry_Int_Tables_number       1
_symmetry_cell_setting            triclinic
loop_
_symmetry_equiv_pos_as_xyz
'x, y, z'
_cell_length_a     78.739598
_cell_length_b     73.129796
_cell_length_c     73.631078
_cell_angle_alpha  97.936133
_cell_angle_beta   94.774649
_cell_angle_gamma 101.67896
loop_
_atom_site_label
_atom_site_type_symbol
_atom_site_fract_x
_atom_site_fract_y
_atom_site_fract_z
_atom_type_partial_charge
In0 In 0.09217 0.32461 0.39374 0.0
O1 O 0.10782 0.33134 0.37019 0.0
O2 O 0.11945 0.31897 0.39117 0.0
C3 C 0.06328 0.32256 0.3711 0.0
C4 C 0.08505 0.29119 0.4061 0.0
C5 C 0.09303 0.35738 0.41618 0.0
O6 O 0.07685 0.31849 0.36516 0.0
O7 O 0.06439 0.32756 0.3883 0.0
O8 O 0.08621 0.34144 0.41994 0.0
O9 O 0.10102 0.35675 0.40206 0.0
C10 C 0.12064 0.32496 0.37592 0.0
O11 O 0.09783 0.30427 0.41352 0.0
O12 O 0.07634 0.29491 0.39252 0.0
In13 In 1.00128 0.76177 0.65829 0.0
O14 O 0.99979 0.7773 0.63358 0.0
O15 O 0.0106 0.79345 0.65977 0.0
C16 C 0.99783 0.72631 0.64082 0.0
C17 C 0.03371 0.76633 0.67411 0.0
C18 C 0.97263 0.76168 0.67553 0.0
O19 O 0.99336 0.73912 0.6329 0.0
O20 O 1.0038 0.73132 0.65757 0.0
O21 O 0.98777 0.76683 0.68409 0.0
O22 O 0.97204 0.75696 0.65836 0.0
C23 C 1.00712 0.79324 0.64273 0.0
O24 O 0.02073 0.76325 0.68318 0.0
O25 O 0.03017 0.76655 0.6571 0.0
In26 In 0.59122 0.82586 0.89214 0.0
O27 O 0.60678 0.83212 0.86867 0.0
O28 O 0.61969 0.82342 0.89149 0.0
C29 C 0.5613 0.81917 0.8698 0.0
C30 C 0.58805 0.79346 0.90599 0.0
C31 C 0.59027 0.85926 0.91242 0.0
O32 O 0.57595 0.82108 0.86378 0.0
O33 O 0.56175 0.82068 0.88709 0.0
O34 O 0.58437 0.84357 0.91725 0.0
O35 O 0.59774 0.8582 0.89798 0.0
C36 C 0.62041 0.82798 0.87558 0.0
O37 O 0.59526 0.80927 0.91559 0.0
O38 O 0.58323 0.79403 0.88936 0.0
In39 In 0.49997 0.26131 0.15663 0.0
O40 O 0.48987 0.23971 0.13102 0.0
O41 O 0.50113 0.23028 0.15426 0.0
C42 C 0.50594 0.29184 0.13991 0.0
C43 C 0.47124 0.26135 0.17349 0.0
C44 C 0.53222 0.26742 0.17404 0.0
O45 O 0.50497 0.2753 0.13165 0.0
O46 O 0.50302 0.29298 0.15661 0.0
O47 O 0.5189 0.26276 0.1822 0.0
O48 O 0.52919 0.26854 0.15722 0.0
C49 C 0.49409 0.22617 0.13781 0.0
O50 O 0.48601 0.2629 0.18232 0.0
O51 O 0.4711 0.26034 0.15626 0.0
In52 In 0.074 0.81 0.12881 0.0
O53 O 0.07924 0.78846 0.10452 0.0
O54 O 0.05991 0.77893 0.12137 0.0
C55 C 0.07427 0.84092 0.1105 0.0
C56 C 0.04513 0.80661 0.14761 0.0
C57 C 0.10503 0.81272 0.15056 0.0
O58 O 0.06464 0.82477 0.10488 0.0
O59 O 0.08433 0.84146 0.12494 0.0
O60 O 0.09361 0.82178 0.15541 0.0
O61 O 0.10104 0.80288 0.13471 0.0
C62 C 0.06809 0.77469 0.108 0.0
O63 O 0.05905 0.80223 0.15351 0.0
O64 O 0.04614 0.81365 0.13295 0.0
In65 In 0.51188 0.773 0.41258 0.0
O66 O 0.53018 0.76375 0.39126 0.0
O67 O 0.53989 0.78903 0.41012 0.0
C68 C 0.47926 0.77202 0.39329 0.0
C69 C 0.51524 0.74231 0.43005 0.0
C70 C 0.51685 0.80707 0.4348 0.0
O71 O 0.49355 0.77595 0.3866 0.0
O72 O 0.48118 0.76709 0.40894 0.0
O73 O 0.51399 0.79164 0.4411 0.0
O74 O 0.51741 0.80521 0.41759 0.0
C75 C 0.5429 0.77758 0.39698 0.0
O76 O 0.51067 0.75674 0.43789 0.0
O77 O 0.5174 0.74295 0.41333 0.0
In78 In 0.57417 0.30988 0.62946 0.0
O79 O 0.57242 0.28752 0.60305 0.0
O80 O 0.5687 0.27783 0.62851 0.0
C81 C 0.57454 0.34181 0.61263 0.0
C82 C 0.54338 0.30453 0.64506 0.0
C83 C 0.6064 0.31424 0.64976 0.0
O84 O 0.57204 0.32524 0.60372 0.0
O85 O 0.57747 0.34239 0.62986 0.0
O86 O 0.59396 0.32073 0.65598 0.0
O87 O 0.60299 0.30652 0.63305 0.0
C88 C 0.56928 0.27343 0.61147 0.0
O89 O 0.55784 0.30425 0.65364 0.0
O90 O 0.54447 0.30824 0.62893 0.0
In91 In 0.01173 0.27209 0.91152 0.0
O92 O 0.01851 0.25836 0.93683 0.0
O93 O 1.00706 0.23948 0.91253 0.0
C94 C 0.01303 0.30571 0.93316 0.0
C95 C 0.0429 0.27627 0.89594 0.0
C96 C 0.97924 0.27178 0.89286 0.0
O97 O 0.01332 0.29079 0.93987 0.0
O98 O 0.01218 0.30367 0.91583 0.0
O99 O 0.99369 0.27818 0.88728 0.0
O100 O 0.98096 0.26413 0.90712 0.0
C101 C 0.01368 0.24134 0.92917 0.0
O102 O 0.02867 0.26644 0.88733 0.0
O103 O 0.04128 0.28388 0.91191 0.0
In104 In 0.43024 0.04363 0.29401 0.0
O105 O 0.45231 0.04476 0.27584 0.0
O106 O 0.42591 0.03989 0.2634 0.0
C107 C 0.4449 0.04527 0.32816 0.0
C108 C 0.41429 0.0723 0.29363 0.0
C109 C 0.41638 1.00714 0.28532 0.0
O110 O 0.45381 0.05076 0.3156 0.0
O111 O 0.42862 0.0403 0.32365 0.0
O112 O 0.4073 0.0195 0.28478 0.0
O113 O 0.43223 0.0131 0.2915 0.0
C114 C 0.44172 0.04078 0.26118 0.0
O115 O 0.40691 0.05661 0.29766 0.0
O116 O 0.43026 0.07402 0.2914 0.0
In117 In 0.2798 0.188 0.50582 0.0
O118 O 0.28324 0.21558 0.52745 0.0
O119 O 0.2833 0.18979 0.53723 0.0
C120 C 0.28218 0.20296 0.47317 0.0
C121 C 0.3087 0.17312 0.51005 0.0
C122 C 0.24665 0.16561 0.50258 0.0
O123 O 0.27533 0.20999 0.48661 0.0
O124 O 0.28787 0.1886 0.47615 0.0
O125 O 0.26009 0.15901 0.50048 0.0
O126 O 0.24978 0.18342 0.50571 0.0
C127 C 0.28451 0.2073 0.54133 0.0
O128 O 0.29332 0.16312 0.50711 0.0
O129 O 0.3096 0.19063 0.51018 0.0
In130 In 0.16684 0.02121 0.77916 0.0
O131 O 0.14158 0.02219 0.75832 0.0
O132 O 0.16305 0.01658 0.74576 0.0
C133 C 0.14984 0.02235 0.81359 0.0
C134 C 0.18393 0.9885 0.77689 0.0
C135 C 0.18689 0.05913 0.77982 0.0
O136 O 0.14231 0.01461 0.79765 0.0
O137 O 0.16579 0.02903 0.81239 0.0
O138 O 0.19357 0.04493 0.78124 0.0
O139 O 0.17045 0.0544 0.77843 0.0
C140 C 0.14773 0.01931 0.74305 0.0
O141 O 0.19135 1.00557 0.78318 0.0
O142 O 0.16789 0.98764 0.77195 0.0
In143 In 0.29518 0.91779 0.00818 0.0
O144 O 0.29108 0.89586 0.02772 0.0
O145 O 0.3062 0.92369 0.03776 0.0
C146 C 0.2937 0.89856 0.97423 0.0
C147 C 0.26805 0.93417 0.01239 0.0
C148 C 0.32777 0.93699 0.00964 0.0
O149 O 0.29393 0.8906 0.98839 0.0
O150 O 0.29257 0.91563 0.97716 0.0
O151 O 0.31502 0.94506 0.0101 0.0
O152 O 0.32396 0.91919 0.008 0.0
C153 C 0.30044 0.90729 0.04102 0.0
O154 O 0.28265 0.94288 0.00896 0.0
O155 O 0.26673 0.9167 0.01265 0.0
In156 In 0.30882 0.39634 0.03996 0.0
O157 O 0.3091 0.37113 0.05619 0.0
O158 O 0.30647 0.39679 0.07148 0.0
C159 C 0.30634 0.3768 0.00482 0.0
C160 C 0.27929 0.41143 0.03644 0.0
C161 C 0.34304 0.41655 0.04243 0.0
O162 O 0.29858 0.36972 0.01737 0.0
O163 O 0.31501 0.39341 0.00992 0.0
O164 O 0.33011 0.4244 0.04307 0.0
O165 O 0.33884 0.39883 0.04183 0.0
C166 C 0.30701 0.37965 0.0717 0.0
O167 O 0.29462 0.4213 0.0375 0.0
O168 O 0.27888 0.39427 0.03735 0.0
In169 In 0.78642 0.15232 0.0302 0.0
O170 O 0.80185 0.12958 0.03318 0.0
O171 O 0.81487 0.15601 0.02663 0.0
C172 C 0.75334 0.13308 0.02763 0.0
C173 C 0.78886 0.17396 0.06292 0.0
C174 C 0.78326 0.16646 0.99893 0.0
O175 O 0.76485 0.1258 0.02025 0.0
O176 O 0.75888 0.14919 0.0371 0.0
O177 O 0.79002 0.17669 0.01406 0.0
O178 O 0.77888 0.14902 0.99951 0.0
C179 C 0.81581 0.13963 0.02948 0.0
O180 O 0.78497 0.17939 0.04787 0.0
O181 O 0.79224 0.15768 0.06156 0.0
In182 In 0.16683 0.54702 0.2557 0.0
O183 O 0.18783 0.53052 0.25234 0.0
O184 O 0.16236 0.51616 0.25694 0.0
C185 C 0.18319 0.58293 0.26115 0.0
C186 C 0.14992 0.5457 0.22282 0.0
C187 C 0.15562 0.5492 0.28876 0.0
O188 O 0.19161 0.56987 0.26051 0.0
O189 O 0.16683 0.57764 0.25827 0.0
O190 O 0.1453 0.54284 0.27411 0.0
O191 O 0.17159 0.55348 0.28662 0.0
C192 C 0.17794 0.51536 0.25483 0.0
O193 O 0.14264 0.54692 0.23745 0.0
O194 O 0.1656 0.5441 0.22464 0.0
In195 In 0.80906 0.89589 0.53922 0.0
O196 O 0.81092 0.87128 0.55602 0.0
O197 O 0.80226 0.89452 0.56933 0.0
C198 C 0.80798 0.87565 0.50477 0.0
C199 C 0.77992 0.91122 0.53457 0.0
C200 C 0.84278 0.91739 0.54188 0.0
O201 O 0.799 0.86918 0.51682 0.0
O202 O 0.81726 0.89198 0.51007 0.0
O203 O 0.82934 0.92389 0.53846 0.0
O204 O 0.83923 0.90061 0.54515 0.0
C205 C 0.80549 0.87847 0.57042 0.0
O206 O 0.79416 0.92046 0.54365 0.0
O207 O 0.78047 0.89457 0.52781 0.0
In208 In 0.92564 0.06159 0.26314 0.0
O209 O 0.95078 0.06578 0.24568 0.0
O210 O 0.9268 0.05663 0.22973 0.0
C211 C 0.94506 0.06272 0.29876 0.0
C212 C 0.90962 0.09541 0.26485 0.0
C213 C 0.90578 0.02304 0.26196 0.0
O214 O 0.95176 0.06347 0.28376 0.0
O215 O 0.92894 0.06258 0.29618 0.0
O216 O 0.89912 0.03751 0.26261 0.0
O217 O 0.922 0.02774 0.26097 0.0
C218 C 0.94321 0.061 0.22931 0.0
O219 O 0.90135 0.07827 0.26228 0.0
O220 O 0.92588 0.09576 0.26664 0.0
In221 In 0.28582 0.64943 0.53012 0.0
O222 O 0.30048 0.62579 0.53259 0.0
O223 O 0.31381 0.65179 0.52549 0.0
C224 C 0.25194 0.63437 0.52876 0.0
C225 C 0.29003 0.67229 0.56253 0.0
C226 C 0.28194 0.65972 0.49702 0.0
O227 O 0.26293 0.62397 0.52664 0.0
O228 O 0.25829 0.6519 0.53224 0.0
O229 O 0.28997 0.67106 0.51104 0.0
O230 O 0.27648 0.64294 0.49955 0.0
C231 C 0.3144 0.63532 0.52825 0.0
O232 O 0.29105 0.67834 0.54733 0.0
O233 O 0.28769 0.65454 0.5615 0.0
In234 In 0.42577 0.56156 0.76288 0.0
O235 O 0.40156 0.57834 0.76559 0.0
O236 O 0.42536 0.59521 0.76309 0.0
C237 C 0.40595 0.52326 0.76237 0.0
C238 C 0.44367 0.56051 0.72929 0.0
C239 C 0.44548 0.56285 0.7983 0.0
O240 O 0.39962 0.53609 0.75603 0.0
O241 O 0.42188 0.52948 0.76826 0.0
O242 O 0.45135 0.56045 0.78284 0.0
O243 O 0.43023 0.56593 0.79619 0.0
C244 C 0.40942 0.59513 0.76471 0.0
O245 O 0.45051 0.5689 0.74526 0.0
O246 O 0.42786 0.55267 0.73 0.0
In247 In 0.66778 0.04443 0.757 0.0
O248 O 0.69108 0.03132 0.75289 0.0
O249 O 0.66639 0.01313 0.75374 0.0
C250 C 0.68211 0.08115 0.76428 0.0
C251 C 0.6493 0.04305 0.72486 0.0
C252 C 0.65551 0.04447 0.78963 0.0
O253 O 0.6913 0.0688 0.76388 0.0
O254 O 0.66592 0.07488 0.76028 0.0
O255 O 0.64566 0.03945 0.77458 0.0
O256 O 0.67162 0.04795 0.78809 0.0
C257 C 0.68244 0.01468 0.75232 0.0
O258 O 0.64242 0.03886 0.73902 0.0
O259 O 0.66579 0.04729 0.72667 0.0
In260 In 0.77917 0.68804 0.00573 0.0
O261 O 0.7954 0.66546 0.99795 0.0
O262 O 0.80438 0.68524 0.02237 0.0
C263 C 0.74755 0.66249 1.00229 0.0
C264 C 0.78037 0.71079 0.03913 0.0
C265 C 0.78278 0.70497 0.97413 0.0
O266 O 0.76136 0.66015 0.01076 0.0
O267 O 0.74978 0.67721 0.99484 0.0
O268 O 0.77411 0.71026 0.98678 0.0
O269 O 0.78994 0.69173 0.97761 0.0
C270 C 0.80691 0.67126 0.01172 0.0
O271 O 0.79218 0.71365 0.02857 0.0
O272 O 0.76763 0.69753 0.03229 0.0
In273 In 0.92959 0.53757 0.79112 0.0
O274 O 0.90604 0.55005 0.79473 0.0
O275 O 0.92949 0.56831 0.78989 0.0
C276 C 0.91424 0.50153 0.78093 0.0
C277 C 0.9408 0.53665 0.75806 0.0
C278 C 0.94485 0.5388 0.82513 0.0
O279 O 0.90586 0.51455 0.78204 0.0
O280 O 0.93031 0.50647 0.78645 0.0
O281 O 0.95361 0.54313 0.8121 0.0
O282 O 0.92849 0.53494 0.82115 0.0
C283 C 0.91333 0.56609 0.79143 0.0
O284 O 0.95146 0.53891 0.77249 0.0
O285 O 0.9252 0.53633 0.76074 0.0
In286 In 0.79883 0.42103 0.51027 0.0
O287 O 0.79911 0.39635 0.52614 0.0
O288 O 0.79609 0.42256 0.54055 0.0
C289 C 0.79756 0.40518 0.47499 0.0
C290 C 0.77326 0.43992 0.51093 0.0
C291 C 0.83242 0.43683 0.51926 0.0
O292 O 0.78995 0.39632 0.48668 0.0
O293 O 0.80497 0.42219 0.48095 0.0
O294 O 0.82076 0.44638 0.52031 0.0
O295 O 0.82719 0.41951 0.5129 0.0
C296 C 0.79816 0.4061 0.54145 0.0
O297 O 0.7891 0.44804 0.51154 0.0
O298 O 0.77019 0.42205 0.50877 0.0
In299 In 0.66689 0.52117 0.27899 0.0
O300 O 0.69254 0.50683 0.28028 0.0
O301 O 0.66877 0.48781 0.2739 0.0
C302 C 0.68826 0.55862 0.2816 0.0
C303 C 0.64709 0.51976 0.2431 0.0
C304 C 0.64946 0.52263 0.31316 0.0
O305 O 0.69197 0.54373 0.27341 0.0
O306 O 0.67446 0.55464 0.28926 0.0
O307 O 0.64243 0.52362 0.29725 0.0
O308 O 0.66494 0.52053 0.31195 0.0
C309 C 0.68518 0.4894 0.27644 0.0
O310 O 0.64432 0.50678 0.25301 0.0
O311 O 0.65925 0.53307 0.2512 0.0
La312 La 0.03389 0.03602 0.01307 0.0
La313 La 0.06706 0.05629 0.0351 0.0
C314 C 1.00174 0.02385 1.00321 0.0
C315 C 0.98701 0.03309 0.00476 0.0
C316 C 0.97125 0.02527 0.99359 0.0
C317 C 0.95786 0.03518 0.99334 0.0
C318 C 0.96018 0.05312 1.00413 0.0
C319 C 0.976 0.06086 0.0154 0.0
C320 C 0.9893 0.05087 0.01575 0.0
C321 C 0.05855 0.03506 0.98895 0.0
C322 C 0.04508 0.08091 0.01534 0.0
C323 C 0.0992 0.06913 0.04528 0.0
C324 C 0.11415 0.06008 0.04593 0.0
C325 C 0.12932 0.06875 0.05785 0.0
C326 C 0.14268 0.05904 0.06044 0.0
C327 C 0.14089 0.04046 0.05127 0.0
C328 C 0.1258 0.03201 0.03905 0.0
C329 C 0.11255 0.04175 0.03638 0.0
C330 C 0.04199 0.0567 0.05899 0.0
C331 C 0.05547 0.01149 0.03349 0.0
O332 O 0.0128 0.03098 0.99248 0.0
O333 O 0.0096 0.02112 0.01866 0.0
O334 O 0.04224 0.02682 0.98613 0.0
O335 O 0.061 0.04266 0.00622 0.0
O336 O 0.03243 0.06553 0.01169 0.0
O337 O 0.06039 0.08055 0.02395 0.0
O338 O 0.0878 0.06354 0.0563 0.0
O339 O 0.0917 0.06973 0.02891 0.0
O340 O 0.05836 0.06475 0.06224 0.0
O341 O 0.04001 0.04945 0.04171 0.0
O342 O 0.06832 0.02675 0.03715 0.0
O343 O 0.04033 0.01196 0.02459 0.0
H344 H 0.96945 0.01171 0.9848 0.0
H345 H 0.9458 0.02898 0.98448 0.0
H346 H 0.97801 0.07454 0.02403 0.0
H347 H 1.00148 0.05717 0.02436 0.0
H348 H 0.13061 0.08281 0.06552 0.0
H349 H 0.15418 0.06584 0.06995 0.0
H350 H 0.12422 0.01784 0.03153 0.0
H351 H 0.10088 0.03481 0.02718 0.0
La352 La 0.29306 0.80253 0.27327 0.0
La353 La 0.2778 0.8115 0.30703 0.0
C354 C 0.29722 0.80106 0.23976 0.0
C355 C 0.3083 0.81399 0.22983 0.0
C356 C 0.31438 0.80687 0.21358 0.0
C357 C 0.3218 0.81924 0.20214 0.0
C358 C 0.32325 0.83879 0.20697 0.0
C359 C 0.31866 0.84602 0.224 0.0
C360 C 0.31121 0.83369 0.23538 0.0
C361 C 0.31861 0.80384 0.29981 0.0
C362 C 0.3003 0.84433 0.29474 0.0
C363 C 0.26211 0.81261 0.33541 0.0
C364 C 0.2586 0.80079 0.3496 0.0
C365 C 0.24304 0.80004 0.3577 0.0
C366 C 0.23893 0.78794 0.37051 0.0
C367 C 0.25044 0.77663 0.37533 0.0
C368 C 0.2659 0.77723 0.36697 0.0
C369 C 0.26992 0.78919 0.35409 0.0
C370 C 0.25914 0.81453 0.27602 0.0
C371 C 0.27724 0.76973 0.29227 0.0
O372 O 0.30512 0.792 0.25075 0.0
O373 O 0.28488 0.8079 0.24724 0.0
O374 O 0.31943 0.80067 0.28228 0.0
O375 O 0.30345 0.8067 0.30256 0.0
O376 O 0.29815 0.83326 0.27865 0.0
O377 O 0.29554 0.83807 0.3097 0.0
O378 O 0.25465 0.80466 0.31896 0.0
O379 O 0.27835 0.82133 0.33528 0.0
O380 O 0.26282 0.82713 0.29067 0.0
O381 O 0.26672 0.80133 0.27877 0.0
O382 O 0.27914 0.78237 0.30719 0.0
O383 O 0.2798 0.7745 0.276 0.0
H384 H 0.31232 0.79175 0.20914 0.0
H385 H 0.32506 0.8135 0.18883 0.0
H386 H 0.31936 0.86104 0.22772 0.0
H387 H 0.30671 0.8396 0.24788 0.0
H388 H 0.23404 0.80871 0.35402 0.0
H389 H 0.22695 0.78761 0.37683 0.0
H390 H 0.27479 0.76833 0.37031 0.0
H391 H 0.28178 0.78929 0.34758 0.0
La392 La 0.55762 0.03499 0.52831 0.0
La393 La 0.51821 0.0367 0.53022 0.0
C394 C 0.58793 0.0284 0.53421 0.0
C395 C 0.59996 0.01557 0.52883 0.0
C396 C 0.61477 0.02243 0.52027 0.0
C397 C 0.62782 0.01203 0.51782 0.0
C398 C 0.62657 0.99439 0.52387 0.0
C399 C 0.61138 0.98711 0.53171 0.0
C400 C 0.59832 0.99759 0.53427 0.0
C401 C 0.53893 0.03474 0.49687 0.0
C402 C 0.5279 0.99676 0.52365 0.0
C403 C 0.48787 0.0429 0.52437 0.0
C404 C 0.47699 0.05702 0.52921 0.0
C405 C 0.46526 0.05441 0.54253 0.0
C406 C 0.45333 0.06616 0.5454 0.0
C407 C 0.4527 0.08081 0.53495 0.0
C408 C 0.46477 0.0837 0.52197 0.0
C409 C 0.47669 0.07198 0.51911 0.0
C410 C 0.53674 0.0363 0.56142 0.0
C411 C 0.54778 0.07512 0.5357 0.0
O412 O 0.58388 0.0394 0.52264 0.0
O413 O 0.57475 0.02212 0.54309 0.0
O414 O 0.55574 0.04068 0.49959 0.0
O415 O 0.53397 0.02755 0.51041 0.0
O416 O 0.54453 1.00531 0.52869 0.0
O417 O 0.51563 1.00642 0.52048 0.0
O418 O 0.49249 0.03351 0.53721 0.0
O419 O 0.50038 0.04733 0.514 0.0
O420 O 0.51993 0.03025 0.55865 0.0
O421 O 0.54176 0.04386 0.5481 0.0
O422 O 0.53116 0.06657 0.53046 0.0
O423 O 0.56005 0.06534 0.53863 0.0
H424 H 0.6166 0.03624 0.51605 0.0
H425 H 0.63913 0.01804 0.51146 0.0
H426 H 0.60992 0.97367 0.53667 0.0
H427 H 0.58725 0.99186 0.54111 0.0
H428 H 0.46495 0.04292 0.55042 0.0
H429 H 0.44444 0.06357 0.55568 0.0
H430 H 0.46457 0.09458 0.51341 0.0
H431 H 0.48528 0.07428 0.50852 0.0
La432 La 0.27944 0.29618 0.77311 0.0
La433 La 0.31544 0.28731 0.77513 0.0
C434 C 0.24833 0.29945 0.77735 0.0
C435 C 0.2343 0.29862 0.78986 0.0
C436 C 0.22037 0.3072 0.78563 0.0
C437 C 0.20638 0.30633 0.79633 0.0
C438 C 0.20581 0.29684 0.81173 0.0
C439 C 0.22006 0.28862 0.81633 0.0
C440 C 0.23413 0.28943 0.80546 0.0
C441 C 0.30529 0.3253 0.76791 0.0
C442 C 0.3011 0.29825 0.81246 0.0
C443 C 0.34767 0.29273 0.77113 0.0
C444 C 0.36023 0.28805 0.758 0.0
C445 C 0.36508 0.27043 0.75542 0.0
C446 C 0.37796 0.26728 0.74384 0.0
C447 C 0.3863 0.28167 0.73459 0.0
C448 C 0.38132 0.2992 0.73726 0.0
C449 C 0.36856 0.30231 0.74874 0.0
C450 C 0.2917 0.25439 0.77531 0.0
C451 C 0.29199 0.27953 0.73613 0.0
O452 O 0.26204 0.31336 0.78147 0.0
O453 O 0.25249 0.2837 0.77038 0.0
O454 O 0.28956 0.3205 0.75936 0.0
O455 O 0.306 0.31352 0.7792 0.0
O456 O 0.28572 0.29619 0.80271 0.0
O457 O 0.31537 0.29701 0.80448 0.0
O458 O 0.33987 0.27987 0.78029 0.0
O459 O 0.33717 0.3032 0.76572 0.0
O460 O 0.30858 0.25654 0.77642 0.0
O461 O 0.289 0.27096 0.77444 0.0
O462 O 0.30753 0.28168 0.74544 0.0
O463 O 0.27837 0.28329 0.74419 0.0
H464 H 0.22019 0.3145 0.77379 0.0
H465 H 0.19595 0.31316 0.79246 0.0
H466 H 0.22013 0.28114 0.82803 0.0
H467 H 0.24471 0.28271 0.80911 0.0
H468 H 0.35909 0.25916 0.76246 0.0
H469 H 0.38135 0.25357 0.74212 0.0
H470 H 0.38764 0.31085 0.73088 0.0
H471 H 0.36544 0.31617 0.75068 0.0
La472 La 0.04473 0.05312 0.52389 0.0
La473 La 0.04991 0.0161 0.51165 0.0
C474 C 0.04897 0.08841 0.53231 0.0
C475 C 0.04885 0.10247 0.51975 0.0
C476 C 0.04437 0.1198 0.52547 0.0
C477 C 0.04421 0.13291 0.51326 0.0
C478 C 0.04868 0.12889 0.49525 0.0
C479 C 0.05285 0.11141 0.4895 0.0
C480 C 0.05277 0.0983 0.50156 0.0
C481 C 0.01599 0.02661 0.52303 0.0
C482 C 0.03315 0.03772 0.48103 0.0
C483 C 0.04691 0.98114 0.50182 0.0
C484 C 0.04783 0.96632 0.51327 0.0
C485 C 0.05534 0.95103 0.50728 0.0
C486 C 0.05654 0.93726 0.51853 0.0
C487 C 0.05006 0.93858 0.53576 0.0
C488 C 0.04289 0.95408 0.54185 0.0
C489 C 0.04198 0.96793 0.53081 0.0
C490 C 0.07831 0.04287 0.5123 0.0
C491 C 0.06116 0.03144 0.55475 0.0
O492 O 0.03407 0.07668 0.53237 0.0
O493 O 0.06187 0.07962 0.53152 0.0
O494 O 0.01649 0.04343 0.51924 0.0
O495 O 0.03142 0.02536 0.52849 0.0
O496 O 0.0361 0.05254 0.49432 0.0
O497 O 0.03742 0.02174 0.48475 0.0
O498 O 0.06147 0.99353 0.5022 0.0
O499 O 0.03359 0.98922 0.50338 0.0
O500 O 0.07812 0.0264 0.51684 0.0
O501 O 0.06283 0.04368 0.50671 0.0
O502 O 0.05786 0.01644 0.5415 0.0
O503 O 0.05717 0.0475 0.55081 0.0
H504 H 0.0411 0.12321 0.53935 0.0
H505 H 0.04102 0.14636 0.51803 0.0
H506 H 0.05613 0.10788 0.47563 0.0
H507 H 0.05587 0.0849 0.49663 0.0
H508 H 0.06022 0.94973 0.49394 0.0
H509 H 0.0621 0.92536 0.5136 0.0
H510 H 0.03799 0.95546 0.55518 0.0
H511 H 0.03667 0.97989 0.53602 0.0
La512 La 0.31665 0.80976 0.76591 0.0
La513 La 0.28478 0.78095 0.76787 0.0
C514 C 0.34568 0.83223 0.77453 0.0
C515 C 0.36392 0.83077 0.77638 0.0
C516 C 0.37021 0.81839 0.76362 0.0
C517 C 0.38707 0.81549 0.76703 0.0
C518 C 0.39757 0.82467 0.78335 0.0
C519 C 0.39144 0.8375 0.79576 0.0
C520 C 0.37472 0.84059 0.79223 0.0
C521 C 0.30048 0.79245 0.73396 0.0
C522 C 0.32014 0.76508 0.76863 0.0
C523 C 0.25507 0.75992 0.75944 0.0
C524 C 0.2377 0.76404 0.75598 0.0
C525 C 0.2299 0.77296 0.77018 0.0
C526 C 0.21429 0.77858 0.76615 0.0
C527 C 0.20642 0.77553 0.74788 0.0
C528 C 0.21403 0.76629 0.73378 0.0
C529 C 0.22948 0.76048 0.73782 0.0
C530 C 0.30114 0.79907 0.79955 0.0
C531 C 0.28093 0.82527 0.76566 0.0
O532 O 0.3374 0.82851 0.7578 0.0
O533 O 0.33643 0.82441 0.78653 0.0
O534 O 0.30865 0.81008 0.73688 0.0
O535 O 0.30269 0.7852 0.74825 0.0
O536 O 0.32811 0.78335 0.76858 0.0
O537 O 0.30274 0.76079 0.7678 0.0
O538 O 0.26277 0.76449 0.77642 0.0
O539 O 0.2657 0.76474 0.7473 0.0
O540 O 0.29314 0.78139 0.79718 0.0
O541 O 0.29857 0.80567 0.78503 0.0
O542 O 0.27309 0.80682 0.76409 0.0
O543 O 0.29839 0.8298 0.76782 0.0
H544 H 0.36195 0.81051 0.75139 0.0
H545 H 0.39161 0.80547 0.75739 0.0
H546 H 0.39945 0.84479 0.80837 0.0
H547 H 0.36997 0.85009 0.80224 0.0
H548 H 0.23598 0.77597 0.78432 0.0
H549 H 0.20854 0.78562 0.77722 0.0
H550 H 0.20796 0.76347 0.71963 0.0
H551 H 0.23524 0.75359 0.72665 0.0
La552 La 0.53659 0.05125 0.02445 0.0
La553 La 0.53151 0.05317 0.98385 0.0
C554 C 0.53436 0.05468 0.05854 0.0
C555 C 0.5242 0.04348 0.07062 0.0
C556 C 0.52578 0.02491 0.07212 0.0
C557 C 0.51565 0.01457 0.08348 0.0
C558 C 0.50366 0.02255 0.09321 0.0
C559 C 0.50204 0.04105 0.09159 0.0
C560 C 0.51227 0.05144 0.08045 0.0
C561 C 0.53978 0.02076 1.00302 0.0
C562 C 0.49897 0.03876 1.00183 0.0
C563 C 0.53251 0.05278 0.94999 0.0
C564 C 0.54331 0.06618 0.9403 0.0
C565 C 0.53528 0.07634 0.92862 0.0
C566 C 0.5454 0.08976 0.91997 0.0
C567 C 0.5637 0.09308 0.92274 0.0
C568 C 0.57168 0.08341 0.93505 0.0
C569 C 0.56159 0.07014 0.94378 0.0
C570 C 0.5296 0.08402 0.00625 0.0
C571 C 0.56948 0.06461 0.00566 0.0
O572 O 0.54644 0.04757 0.05074 0.0
O573 O 0.52517 0.06203 0.04707 0.0
O574 O 0.54728 0.02586 0.01972 0.0
O575 O 0.52919 0.03087 0.99977 0.0
O576 O 0.50819 0.04648 0.01785 0.0
O577 O 0.50646 0.03608 0.98664 0.0
O578 O 0.52111 0.05976 0.95909 0.0
O579 O 0.54062 0.04255 0.95948 0.0
O580 O 0.52046 0.07838 0.99038 0.0
O581 O 0.53972 0.07324 0.00841 0.0
O582 O 0.55992 0.05764 0.98964 0.0
O583 O 0.56225 0.06706 0.02115 0.0
H584 H 0.53482 0.01838 0.06458 0.0
H585 H 0.51714 1.00036 0.08466 0.0
H586 H 0.49313 0.04765 0.09928 0.0
H587 H 0.51087 0.06573 0.0795 0.0
H588 H 0.52118 0.07379 0.92611 0.0
H589 H 0.53893 0.09705 0.91059 0.0
H590 H 0.58574 0.08531 0.9372 0.0
H591 H 0.56817 0.06281 0.95302 0.0
La592 La 0.29258 0.29731 0.27473 0.0
La593 La 0.27722 0.25681 0.25652 0.0
C594 C 0.29966 0.33192 0.28731 0.0
C595 C 0.28962 0.34643 0.28617 0.0
C596 C 0.29151 0.36126 0.30091 0.0
C597 C 0.28096 0.37439 0.30044 0.0
C598 C 0.26857 0.37275 0.28515 0.0
C599 C 0.26659 0.35776 0.27051 0.0
C600 C 0.27699 0.34461 0.27106 0.0
C601 C 0.29313 0.27119 0.29646 0.0
C602 C 0.25147 0.28225 0.26713 0.0
C603 C 0.27012 0.22132 0.25273 0.0
C604 C 0.27883 0.20683 0.24435 0.0
C605 C 0.26967 0.18804 0.23927 0.0
C606 C 0.27863 0.17381 0.23403 0.0
C607 C 0.29686 0.17827 0.23387 0.0
C608 C 0.30577 0.19728 0.23791 0.0
C609 C 0.29683 0.2114 0.24304 0.0
C610 C 0.28131 0.27894 0.23011 0.0
C611 C 0.31742 0.27464 0.25746 0.0
O612 O 0.29305 0.31887 0.29675 0.0
O613 O 0.30451 0.32486 0.27172 0.0
O614 O 0.30585 0.28537 0.29602 0.0
O615 O 0.28084 0.27177 0.28445 0.0
O616 O 0.26479 0.29697 0.26907 0.0
O617 O 0.25343 0.26465 0.26385 0.0
O618 O 0.26298 0.23081 0.24149 0.0
O619 O 0.27906 0.23233 0.26742 0.0
O620 O 0.27539 0.26078 0.22714 0.0
O621 O 0.2846 0.2835 0.24742 0.0
O622 O 0.30534 0.25922 0.25734 0.0
O623 O 0.31477 0.29179 0.26172 0.0
H624 H 0.30101 0.36255 0.3128 0.0
H625 H 0.28261 0.38594 0.31182 0.0
H626 H 0.2569 0.35618 0.25872 0.0
H627 H 0.27507 0.33293 0.25979 0.0
H628 H 0.25576 0.18426 0.2401 0.0
H629 H 0.27143 0.15926 0.23084 0.0
H630 H 0.31983 0.20119 0.23828 0.0
H631 H 0.30424 0.22573 0.24689 0.0
La632 La 0.545 0.55289 0.02481 0.0
La633 La 0.5509 0.5145 0.00875 0.0
C634 C 0.55115 0.58842 0.02996 0.0
C635 C 0.55046 0.60223 0.01718 0.0
C636 C 0.53926 0.61482 0.01951 0.0
C637 C 0.5388 0.62821 0.00775 0.0
C638 C 0.54969 0.62947 0.99353 0.0
C639 C 0.56046 0.61637 0.99086 0.0
C640 C 0.56085 0.60293 1.00254 0.0
C641 C 0.51599 0.52687 0.02584 0.0
C642 C 0.53231 0.53631 0.9809 0.0
C643 C 0.55261 0.48031 1.00298 0.0
C644 C 0.55372 0.46648 0.01544 0.0
C645 C 0.56471 0.45377 0.01235 0.0
C646 C 0.56666 0.44133 0.02479 0.0
C647 C 0.55759 0.44142 0.04047 0.0
C648 C 0.54661 0.45425 0.04345 0.0
C649 C 0.54482 0.46676 0.03115 0.0
C650 C 0.57535 0.54394 0.00469 0.0
C651 C 0.5609 0.53014 0.05377 0.0
O652 O 0.53623 0.57795 0.03249 0.0
O653 O 0.56322 0.5786 0.0281 0.0
O654 O 0.51834 0.54471 0.03243 0.0
O655 O 0.53016 0.52448 0.01994 0.0
O656 O 0.53626 0.5511 0.99457 0.0
O657 O 0.53587 0.51976 0.98367 0.0
O658 O 0.56626 0.49427 0.00489 0.0
O659 O 0.53789 0.48608 1.00149 0.0
O660 O 0.56995 0.52894 0.99234 0.0
O661 O 0.56721 0.54158 0.01855 0.0
O662 O 0.55889 0.51598 0.03944 0.0
O663 O 0.55631 0.54631 0.05122 0.0
H664 H 0.53096 0.61438 0.03052 0.0
H665 H 0.52997 0.63769 0.00993 0.0
H666 H 0.56914 0.6169 0.9802 0.0
H667 H 0.56954 0.59331 1.00021 0.0
H668 H 0.57191 0.45362 1.00044 0.0
H669 H 0.57534 0.43175 0.0222 0.0
H670 H 0.53914 0.45446 0.05515 0.0
H671 H 0.53649 0.47668 0.03398 0.0
La672 La 0.81662 0.30961 0.26447 0.0
La673 La 0.7852 0.28229 0.26817 0.0
C674 C 0.84665 0.3305 0.2682 0.0
C675 C 0.86412 0.32717 0.2722 0.0
C676 C 0.87835 0.33796 0.26553 0.0
C677 C 0.89513 0.33513 0.26984 0.0
C678 C 0.89772 0.32155 0.28091 0.0
C679 C 0.88334 0.31039 0.28706 0.0
C680 C 0.86665 0.31317 0.28272 0.0
C681 C 0.79738 0.29429 0.23327 0.0
C682 C 0.81937 0.26485 0.26738 0.0
C683 C 0.75498 0.26195 0.26163 0.0
C684 C 0.73777 0.26609 0.25693 0.0
C685 C 0.72708 0.26947 0.27082 0.0
C686 C 0.71115 0.27429 0.26652 0.0
C687 C 0.70562 0.27573 0.24825 0.0
C688 C 0.71621 0.27219 0.23434 0.0
C689 C 0.73211 0.26736 0.23862 0.0
C690 C 0.80355 0.29847 0.29979 0.0
C691 C 0.78202 0.32665 0.26604 0.0
O692 O 0.83834 0.32199 0.25222 0.0
O693 O 0.83677 0.32888 0.28156 0.0
O694 O 0.80551 0.31184 0.23702 0.0
O695 O 0.80095 0.2861 0.24658 0.0
O696 O 0.82759 0.28305 0.26775 0.0
O697 O 0.80202 0.26104 0.2667 0.0
O698 O 0.76263 0.2689 0.27834 0.0
O699 O 0.76585 0.26404 0.24917 0.0
O700 O 0.79515 0.28093 0.29638 0.0
O701 O 0.80069 0.30626 0.28599 0.0
O702 O 0.77393 0.30842 0.26519 0.0
O703 O 0.79944 0.3307 0.26698 0.0
H704 H 0.87652 0.34872 0.25727 0.0
H705 H 0.9061 0.34394 0.26505 0.0
H706 H 0.88505 0.29968 0.29544 0.0
H707 H 0.85579 0.3046 0.28789 0.0
H708 H 0.73108 0.26852 0.28503 0.0
H709 H 0.7032 0.27699 0.27748 0.0
H710 H 0.71205 0.27281 0.22007 0.0
H711 H 0.73997 0.26468 0.22755 0.0
La712 La 0.03786 0.55201 0.52204 0.0
La713 La 0.02839 0.55271 0.48249 0.0
C714 C 0.03703 0.55265 0.55609 0.0
C715 C 0.02391 0.54246 0.56646 0.0
C716 C 0.02337 0.52346 0.56833 0.0
C717 C 0.01087 0.51388 0.57801 0.0
C718 C 0.99866 0.52305 0.58601 0.0
C719 C 0.9989 0.54187 0.58375 0.0
C720 C 0.01143 0.5515 0.57412 0.0
C721 C 0.0432 0.52322 0.4995 0.0
C722 C 0.99884 0.53674 0.50323 0.0
C723 C 0.02752 0.55261 0.44844 0.0
C724 C 0.03802 0.56574 0.43824 0.0
C725 C 0.02964 0.57453 0.4255 0.0
C726 C 0.03941 0.58765 0.41626 0.0
C727 C 0.05772 0.59213 0.41962 0.0
C728 C 0.06602 0.58395 0.43301 0.0
C729 C 0.05627 0.57087 0.44224 0.0
C730 C 0.02413 0.58202 0.5054 0.0
C731 C 0.0675 0.56937 0.50174 0.0
O732 O 0.04573 0.54233 0.54619 0.0
O733 O 0.03209 0.56534 0.5472 0.0
O734 O 0.05343 0.53142 0.51426 0.0
O735 O 0.03009 0.5305 0.49798 0.0
O736 O 0.00939 0.54508 0.51823 0.0
O737 O 1.00466 0.53425 0.48702 0.0
O738 O 0.01713 0.56016 0.45858 0.0
O739 O 0.03569 0.54183 0.45712 0.0
O740 O 0.0136 0.57443 0.49071 0.0
O741 O 0.03648 0.57376 0.50626 0.0
O742 O 0.05721 0.56113 0.48641 0.0
O743 O 0.0616 0.57065 0.51799 0.0
H744 H 0.0327 0.516 0.56248 0.0
H745 H 0.01096 0.49937 0.57955 0.0
H746 H 0.98991 0.54946 0.59015 0.0
H747 H 0.0115 0.5661 0.57287 0.0
H748 H 0.01554 0.57108 0.42258 0.0
H749 H 0.03272 0.59375 0.40595 0.0
H750 H 0.08013 0.5868 0.43561 0.0
H751 H 0.0631 0.56454 0.45222 0.0
La752 La 0.77781 0.79435 0.27327 0.0
La753 La 0.81627 0.78637 0.27433 0.0
C754 C 0.74546 0.78892 0.27708 0.0
C755 C 0.73291 0.7926 0.29068 0.0
C756 C 0.71941 0.80165 0.28593 0.0
C757 C 0.70596 0.8028 0.2972 0.0
C758 C 0.70548 0.7948 0.31358 0.0
C759 C 0.71933 0.78624 0.31862 0.0
C760 C 0.73282 0.78516 0.30737 0.0
C761 C 0.80243 0.82721 0.27348 0.0
C762 C 0.80152 0.79922 0.31193 0.0
C763 C 0.8486 0.79135 0.27123 0.0
C764 C 0.86082 0.78682 0.2577 0.0
C765 C 0.86567 0.76922 0.25494 0.0
C766 C 0.87827 0.76608 0.24307 0.0
C767 C 0.88634 0.78048 0.2337 0.0
C768 C 0.8813 0.79797 0.23644 0.0
C769 C 0.86881 0.80109 0.24824 0.0
C770 C 0.79167 0.75376 0.27371 0.0
C771 C 0.79258 0.78079 0.23562 0.0
O772 O 0.75373 0.80299 0.26969 0.0
O773 O 0.75549 0.77731 0.2806 0.0
O774 O 0.78557 0.82542 0.27272 0.0
O775 O 0.80427 0.81026 0.27418 0.0
O776 O 0.78597 0.79795 0.30281 0.0
O777 O 0.81547 0.79667 0.30366 0.0
O778 O 0.84018 0.77787 0.27926 0.0
O779 O 0.83872 0.80279 0.26679 0.0
O780 O 0.80839 0.7551 0.27362 0.0
O781 O 0.78998 0.77079 0.27377 0.0
O782 O 0.80822 0.78262 0.24479 0.0
O783 O 0.77859 0.78338 0.2439 0.0
H784 H 0.7189 0.80729 0.27309 0.0
H785 H 0.69552 0.80931 0.29263 0.0
H786 H 0.71968 0.78017 0.33121 0.0
H787 H 0.74293 0.77802 0.31154 0.0
H788 H 0.85991 0.75795 0.26212 0.0
H789 H 0.88173 0.7524 0.24126 0.0
H790 H 0.88743 0.8096 0.22991 0.0
H791 H 0.86567 0.81493 0.25028 0.0
La792 La 0.79632 0.30517 0.77458 0.0
La793 La 0.77838 0.30899 0.80588 0.0
C794 C 0.80661 0.30238 0.74311 0.0
C795 C 0.81483 0.31695 0.73269 0.0
C796 C 0.83069 0.316 0.72567 0.0
C797 C 0.83784 0.32911 0.71472 0.0
C798 C 0.8291 0.34324 0.7104 0.0
C799 C 0.81368 0.3447 0.71832 0.0
C800 C 0.80672 0.33182 0.72943 0.0
C801 C 0.81815 0.30999 0.80567 0.0
C802 C 0.79778 0.34484 0.79513 0.0
C803 C 0.76321 0.3095 0.83466 0.0
C804 C 0.7571 0.2975 0.84818 0.0
C805 C 0.73906 0.29224 0.84922 0.0
C806 C 0.73277 0.28104 0.86207 0.0
C807 C 0.7445 0.27527 0.87424 0.0
C808 C 0.76253 0.28057 0.87326 0.0
C809 C 0.76881 0.29159 0.86029 0.0
C810 C 0.7605 0.3149 0.77532 0.0
C811 C 0.77784 0.26808 0.78693 0.0
O812 O 0.81587 0.30002 0.75781 0.0
O813 O 0.79049 0.30244 0.74601 0.0
O814 O 0.82099 0.31854 0.79162 0.0
O815 O 0.80276 0.29975 0.80249 0.0
O816 O 0.79545 0.33486 0.77851 0.0
O817 O 0.79537 0.3365 0.80958 0.0
O818 O 0.75518 0.30408 0.81798 0.0
O819 O 0.78007 0.31561 0.83476 0.0
O820 O 0.76259 0.32532 0.79129 0.0
O821 O 0.76892 0.3021 0.77674 0.0
O822 O 0.77411 0.27856 0.80138 0.0
O823 O 0.78633 0.27532 0.77407 0.0
H824 H 0.83733 0.30486 0.7283 0.0
H825 H 0.84991 0.32779 0.70915 0.0
H826 H 0.80637 0.35512 0.71515 0.0
H827 H 0.79461 0.3332 0.73493 0.0
H828 H 0.72982 0.29679 0.84005 0.0
H829 H 0.71883 0.27698 0.8626 0.0
H830 H 0.77176 0.2759 0.88234 0.0
H831 H 0.78277 0.29542 0.85975 0.0
La832 La 0.79184 0.79509 0.77277 0.0
La833 La 0.7755 0.75804 0.75387 0.0
C834 C 0.79989 0.82984 0.78548 0.0
C835 C 0.78944 0.84422 0.7875 0.0
C836 C 0.7939 0.85919 0.80229 0.0
C837 C 0.78363 0.87264 0.80451 0.0
C838 C 0.76869 0.87107 0.79207 0.0
C839 C 0.76411 0.85582 0.77748 0.0
C840 C 0.77445 0.84256 0.77516 0.0
C841 C 0.7916 0.76877 0.79449 0.0
C842 C 0.75054 0.7819 0.76762 0.0
C843 C 0.76837 0.72277 0.74319 0.0
C844 C 0.77977 0.70915 0.74161 0.0
C845 C 0.77514 0.69267 0.72844 0.0
C846 C 0.78633 0.68004 0.72672 0.0
C847 C 0.80241 0.68403 0.73789 0.0
C848 C 0.80702 0.70058 0.75095 0.0
C849 C 0.79571 0.71289 0.75296 0.0
C850 C 0.77648 0.78446 0.732 0.0
C851 C 0.81679 0.77205 0.75721 0.0
O852 O 0.79622 0.81666 0.79569 0.0
O853 O 0.8015 0.82287 0.76854 0.0
O854 O 0.80471 0.78242 0.79374 0.0
O855 O 0.77923 0.76996 0.78282 0.0
O856 O 0.76414 0.79612 0.76891 0.0
O857 O 0.75212 0.76433 0.76366 0.0
O858 O 0.77048 0.73518 0.73196 0.0
O859 O 0.76737 0.73067 0.75999 0.0
O860 O 0.7634 0.77038 0.73179 0.0
O861 O 0.78838 0.78313 0.74407 0.0
O862 O 0.80333 0.75764 0.75549 0.0
O863 O 0.81517 0.78942 0.76244 0.0
H864 H 0.80533 0.86049 0.81205 0.0
H865 H 0.78738 0.88429 0.81588 0.0
H866 H 0.75287 0.85449 0.76745 0.0
H867 H 0.77081 0.83114 0.76359 0.0
H868 H 0.7629 0.68957 0.71957 0.0
H869 H 0.78251 0.66725 0.71664 0.0
H870 H 0.81918 0.70374 0.75999 0.0
H871 H 0.79942 0.72524 0.76354 0.0
La872 La 0.53535 0.53643 0.51296 0.0
La873 La 0.56774 0.55648 0.53607 0.0
C874 C 0.50337 0.52424 0.50231 0.0
C875 C 0.48855 0.53311 0.50502 0.0
C876 C 0.47259 0.5257 0.49406 0.0
C877 C 0.45909 0.53543 0.4951 0.0
C878 C 0.4616 0.55282 0.50684 0.0
C879 C 0.47753 0.56016 0.51791 0.0
C880 C 0.49091 0.55027 0.51711 0.0
C881 C 0.56081 0.53621 0.48971 0.0
C882 C 0.54662 0.58143 0.51606 0.0
C883 C 0.59968 0.56833 0.54756 0.0
C884 C 0.61431 0.55872 0.54809 0.0
C885 C 0.62612 0.56222 0.56414 0.0
C886 C 0.63865 0.55132 0.56596 0.0
C887 C 0.63955 0.53676 0.55169 0.0
C888 C 0.62786 0.53358 0.53546 0.0
C889 C 0.61527 0.54434 0.53374 0.0
C890 C 0.5422 0.5572 0.55911 0.0
C891 C 0.55621 0.51156 0.53392 0.0
O892 O 0.51446 0.5328 0.49238 0.0
O893 O 0.51118 0.52004 0.51708 0.0
O894 O 0.54443 0.52844 0.48594 0.0
O895 O 0.5626 0.54338 0.50705 0.0
O896 O 0.5338 0.56618 0.51246 0.0
O897 O 0.56191 0.5808 0.52449 0.0
O898 O 0.5878 0.56241 0.55795 0.0
O899 O 0.59279 0.57026 0.53132 0.0
O900 O 0.5584 0.56582 0.56246 0.0
O901 O 0.54032 0.54974 0.54186 0.0
O902 O 0.56864 0.52706 0.53876 0.0
O903 O 0.54165 0.51181 0.52374 0.0
H904 H 0.47072 0.51263 0.48447 0.0
H905 H 0.44682 0.52963 0.48648 0.0
H906 H 0.47958 0.57347 0.52719 0.0
H907 H 0.50321 0.55621 0.52563 0.0
H908 H 0.62531 0.57301 0.57551 0.0
H909 H 0.64734 0.55402 0.57868 0.0
H910 H 0.62842 0.52275 0.52404 0.0
H911 H 0.60607 0.54116 0.52135 0.0
La912 La 0.05732 0.5368 0.02821 0.0
La913 La 0.01768 0.53496 0.03199 0.0
C914 C 0.08843 0.5317 0.03149 0.0
C915 C 0.09952 0.51717 0.02936 0.0
C916 C 0.10567 0.51207 0.01236 0.0
C917 C 0.11824 0.50085 0.01097 0.0
C918 C 0.12523 0.4944 0.02656 0.0
C919 C 0.1186 0.49899 0.04345 0.0
C920 C 0.10603 0.51023 0.04484 0.0
C921 C 0.03813 0.54169 0.9992 0.0
C922 C 0.02927 0.49691 0.02104 0.0
C923 C 0.98644 0.53919 0.0303 0.0
C924 C 0.97583 0.55392 0.03226 0.0
C925 C 0.96253 0.55218 0.04392 0.0
C926 C 0.95111 0.56463 0.04482 0.0
C927 C 0.95258 0.57919 0.034 0.0
C928 C 0.9663 0.5813 0.02274 0.0
C929 C 0.97777 0.56883 0.02188 0.0
C930 C 0.0368 0.52886 0.0601 0.0
C931 C 0.04544 0.57505 0.03926 0.0
O932 O 0.08072 0.53573 0.01656 0.0
O933 O 0.07863 0.53203 0.04502 0.0
O934 O 0.05481 0.54849 1.00255 0.0
O935 O 0.03344 0.53077 0.01044 0.0
O936 O 0.04576 0.50633 0.02535 0.0
O937 O 0.01598 0.50555 0.02027 0.0
O938 O 0.99525 0.53673 0.0453 0.0
O939 O 0.99518 0.53769 0.01597 0.0
O940 O 0.02027 0.52144 0.05641 0.0
O941 O 0.04143 0.54066 0.04966 0.0
O942 O 0.02899 0.56546 0.03519 0.0
O943 O 0.05893 0.56662 0.03923 0.0
H944 H 0.10119 0.51722 1.00013 0.0
H945 H 0.12265 0.49746 0.99763 0.0
H946 H 0.12366 0.49457 0.05587 0.0
H947 H 0.10188 0.51406 0.05824 0.0
H948 H 0.96064 0.54077 0.052 0.0
H949 H 0.94066 0.56233 0.05349 0.0
H950 H 0.96806 0.59249 0.01441 0.0
H951 H 0.98793 0.57066 0.01281 0.0
H952 H 0.03705 0.24248 0.95922 0.0
H953 H 0.04269 0.21633 0.97476 0.0
H954 H 1.00233 0.17745 0.93723 0.0
H955 H 0.99705 0.20352 0.92111 0.0
H956 H 1.00573 0.17938 0.98356 0.0
H957 H 0.03341 0.17 0.92624 0.0
H958 H 0.05365 0.18166 0.9045 0.0
H959 H 0.09604 0.19654 0.94818 0.0
H960 H 0.07594 0.18527 0.97026 0.0
H961 H 0.01429 0.08828 1.00067 0.0
H962 H 0.00959 0.11624 0.988 0.0
H963 H 0.06417 0.14235 1.00209 0.0
H964 H 0.069 0.11422 0.01469 0.0
H965 H 0.05492 0.14889 0.96924 0.0
H966 H 0.03223 0.15863 0.02578 0.0
H967 H 0.01523 0.15137 0.05151 0.0
H968 H 0.96753 0.141 0.01522 0.0
H969 H 0.98427 0.14806 0.9892 0.0
C970 C 0.02932 0.22838 0.95424 0.0
C971 C 0.01656 0.2252 0.93884 0.0
C972 C 0.03259 0.21339 0.96318 0.0
C973 C 0.02295 0.19481 0.95727 0.0
C974 C 0.00996 0.19161 0.94212 0.0
C975 C 1.00697 0.20655 0.93286 0.0
C976 C 0.02668 0.17878 0.9667 0.0
C977 C 0.01627 0.17247 0.98018 0.0
C978 C 0.04107 0.17042 0.96322 0.0
C979 C 0.05313 0.17703 0.94993 0.0
C980 C 0.047 0.17597 0.93125 0.0
C981 C 0.05846 0.18246 0.91886 0.0
C982 C 0.07611 0.18991 0.92497 0.0
C983 C 0.08235 0.19082 0.94348 0.0
C984 C 0.07094 0.18437 0.95593 0.0
C985 C 0.02533 0.09998 1.00125 0.0
C986 C 0.04206 0.0988 0.00883 0.0
C987 C 0.02259 0.11613 0.99401 0.0
C988 C 0.03645 0.13174 0.99407 0.0
C989 C 0.05317 0.13065 1.00175 0.0
C990 C 0.05591 0.11451 0.00911 0.0
C991 C 0.03349 0.1488 0.98568 0.0
C992 C 0.04421 0.15555 0.97256 0.0
C993 C 0.01972 0.15799 0.98996 0.0
C994 C 0.00951 0.15367 0.00549 0.0
C995 C 0.01812 0.15465 0.02324 0.0
C996 C 0.00853 0.15062 0.0379 0.0
C997 C 0.99031 0.14568 0.03499 0.0
C998 C 0.98165 0.14482 0.01744 0.0
C999 C 0.99118 0.14887 1.00274 0.0
H1000 H 0.98291 0.14256 0.04635 0.0
H1001 H 0.08496 0.19492 0.91536 0.0
H1002 H 0.12664 0.78769 0.14695 0.0
H1003 H 0.15301 0.78725 0.16698 0.0
H1004 H 0.14734 0.83779 0.20142 0.0
H1005 H 0.12063 0.83802 0.18165 0.0
H1006 H 0.18267 0.83822 0.19184 0.0
H1007 H 0.13669 0.79848 0.21696 0.0
H1008 H 0.11146 0.77182 0.21508 0.0
H1009 H 0.14277 0.73282 0.19637 0.0
H1010 H 0.16814 0.7593 0.19788 0.0
H1011 H 0.2412 0.84197 0.27114 0.0
H1012 H 0.21621 0.84082 0.24873 0.0
H1013 H 0.21854 0.78426 0.22482 0.0
H1014 H 0.24362 0.78531 0.24764 0.0
H1015 H 0.18542 0.78561 0.22716 0.0
H1016 H 0.23124 0.82307 0.20232 0.0
H1017 H 0.25687 0.84853 0.20142 0.0
H1018 H 0.22701 0.89024 0.21623 0.0
H1019 H 0.20125 0.86502 0.21748 0.0
C1020 C 0.13099 0.79875 0.15877 0.0
C1021 C 0.12143 0.81291 0.16262 0.0
C1022 C 0.1461 0.79845 0.17028 0.0
C1023 C 0.15229 0.81245 0.18584 0.0
C1024 C 0.14294 0.82681 0.18954 0.0
C1025 C 0.12761 0.82691 0.17823 0.0
C1026 C 0.16838 0.81205 0.19825 0.0
C1027 C 0.18318 0.82685 0.19977 0.0
C1028 C 0.16944 0.79685 0.20807 0.0
C1029 C 0.15427 0.7809 0.20735 0.0
C1030 C 0.13816 0.78424 0.2123 0.0
C1031 C 0.12384 0.76915 0.21133 0.0
C1032 C 0.1255 0.75064 0.20556 0.0
C1033 C 0.1415 0.74717 0.20081 0.0
C1034 C 0.15586 0.76221 0.20174 0.0
C1035 C 0.23652 0.82929 0.26104 0.0
C1036 C 0.24455 0.81376 0.26124 0.0
C1037 C 0.22218 0.82867 0.24809 0.0
C1038 C 0.21538 0.81254 0.23473 0.0
C1039 C 0.22341 0.79694 0.23486 0.0
C1040 C 0.23785 0.79758 0.24788 0.0
C1041 C 0.19974 0.81202 0.22108 0.0
C1042 C 0.18501 0.79701 0.21926 0.0
C1043 C 0.19884 0.82688 0.21069 0.0
C1044 C 0.21435 0.84214 0.21018 0.0
C1045 C 0.23018 0.83767 0.20556 0.0
C1046 C 0.24472 0.85206 0.20495 0.0
C1047 C 0.24358 0.87099 0.20881 0.0
C1048 C 0.22788 0.87557 0.21327 0.0
C1049 C 0.21329 0.86123 0.21392 0.0
H1050 H 0.25485 0.88211 0.20831 0.0
H1051 H 0.11439 0.73898 0.20481 0.0
H1052 H 0.52624 0.8415 0.42406 0.0
H1053 H 0.52859 0.87265 0.44216 0.0
H1054 H 0.5149 0.84676 0.48965 0.0
H1055 H 0.51244 0.81533 0.47145 0.0
H1056 H 0.49637 0.87338 0.48456 0.0
H1057 H 0.5564 0.87056 0.48832 0.0
H1058 H 0.5842 0.86583 0.47743 0.0
H1059 H 0.58449 0.91053 0.44521 0.0
H1060 H 0.55655 0.91536 0.45569 0.0
H1061 H 0.53514 0.96907 0.54245 0.0
H1062 H 0.53229 0.93543 0.52985 0.0
H1063 H 0.51137 0.94531 0.47698 0.0
H1064 H 0.51329 0.97857 0.48977 0.0
H1065 H 0.548 0.92608 0.48839 0.0
H1066 H 0.48413 0.92319 0.48066 0.0
H1067 H 0.45706 0.9282 0.49318 0.0
H1068 H 0.46521 0.89383 0.53453 0.0
H1069 H 0.49262 0.88905 0.5225 0.0
C1070 C 0.52384 0.8424 0.43839 0.0
C1071 C 0.51913 0.82592 0.44631 0.0
C1072 C 0.52529 0.86026 0.44877 0.0
C1073 C 0.52208 0.86212 0.46734 0.0
C1074 C 0.51748 0.8457 0.47536 0.0
C1075 C 0.51612 0.82775 0.46497 0.0
C1076 C 0.52278 0.88121 0.47795 0.0
C1077 C 0.50777 0.8848 0.48557 0.0
C1078 C 0.53759 0.89624 0.47925 0.0
C1079 C 0.55428 0.8932 0.47267 0.0
C1080 C 0.56229 0.87926 0.47876 0.0
C1081 C 0.5781 0.87659 0.47269 0.0
C1082 C 0.58609 0.88784 0.4606 0.0
C1083 C 0.57828 0.90181 0.45456 0.0
C1084 C 0.56246 0.90452 0.46058 0.0
C1085 C 0.52946 0.96386 0.52831 0.0
C1086 C 0.52408 0.97621 0.51716 0.0
C1087 C 0.5279 0.94473 0.52112 0.0
C1088 C 0.52137 0.93786 0.50257 0.0
C1089 C 0.51602 0.95023 0.49144 0.0
C1090 C 0.51707 0.96918 0.49876 0.0
C1091 C 0.52148 0.9182 0.49438 0.0
C1092 C 0.53669 0.91454 0.48737 0.0
C1093 C 0.50692 0.90313 0.49363 0.0
C1094 C 0.4906 0.90615 0.50097 0.0
C1095 C 0.48034 0.91703 0.49265 0.0
C1096 C 0.46489 0.91974 0.49959 0.0
C1097 C 0.45947 0.91143 0.51472 0.0
C1098 C 0.46948 0.90035 0.52289 0.0
C1099 C 0.48498 0.89766 0.51603 0.0
H1100 H 0.44748 0.9135 0.52005 0.0
H1101 H 0.59834 0.88577 0.45594 0.0
H1102 H 0.53586 0.28453 0.67328 0.0
H1103 H 0.50779 0.27646 0.68576 0.0
H1104 H 0.48461 0.30624 0.64726 0.0
H1105 H 0.51247 0.31378 0.63427 0.0
H1106 H 0.48082 0.31623 0.6877 0.0
H1107 H 0.47131 0.26464 0.63787 0.0
H1108 H 0.47779 0.23704 0.61872 0.0
H1109 H 0.47649 0.2074 0.66519 0.0
H1110 H 0.47032 0.23499 0.68474 0.0
H1111 H 0.39263 0.29531 0.70225 0.0
H1112 H 0.41808 0.29529 0.68551 0.0
H1113 H 0.43776 0.26157 0.72237 0.0
H1114 H 0.41248 0.262 0.73973 0.0
H1115 H 0.4432 0.25202 0.68245 0.0
H1116 H 0.45446 0.30416 0.73252 0.0
H1117 H 0.44736 0.33149 0.75155 0.0
H1118 H 0.44542 0.35974 0.70426 0.0
H1119 H 0.45225 0.33241 0.68488 0.0
C1120 C 0.52477 0.28933 0.66744 0.0
C1121 C 0.52644 0.29994 0.65287 0.0
C1122 C 0.5087 0.28458 0.6745 0.0
C1123 C 0.49405 0.29066 0.6674 0.0
C1124 C 0.4957 0.30132 0.65291 0.0
C1125 C 0.51165 0.30567 0.64553 0.0
C1126 C 0.47735 0.28695 0.67589 0.0
C1127 C 0.47252 0.30221 0.68634 0.0
C1128 C 0.46668 0.26858 0.6745 0.0
C1129 C 0.47063 0.25203 0.66287 0.0
C1130 C 0.47267 0.25236 0.6441 0.0
C1131 C 0.47622 0.23668 0.63314 0.0
C1132 C 0.47763 0.22051 0.64075 0.0
C1133 C 0.47545 0.21997 0.65933 0.0
C1134 C 0.47192 0.23563 0.67036 0.0
C1135 C 0.4023 0.28784 0.70688 0.0
C1136 C 0.40055 0.27902 0.7227 0.0
C1137 C 0.41681 0.28769 0.69712 0.0
C1138 C 0.42997 0.27858 0.70273 0.0
C1139 C 0.42778 0.26866 0.71772 0.0
C1140 C 0.41326 0.26892 0.72764 0.0
C1141 C 0.44672 0.28136 0.69419 0.0
C1142 C 0.45156 0.26599 0.6838 0.0
C1143 C 0.45753 0.29963 0.69562 0.0
C1144 C 0.4537 0.31619 0.70724 0.0
C1145 C 0.45239 0.31615 0.72616 0.0
C1146 C 0.44844 0.33164 0.73701 0.0
C1147 C 0.4459 0.34733 0.72911 0.0
C1148 C 0.44737 0.34757 0.71035 0.0
C1149 C 0.45129 0.33209 0.69943 0.0
H1150 H 0.44283 0.35931 0.73753 0.0
H1151 H 0.48035 0.20837 0.63224 0.0
H1152 H 0.03903 0.81642 0.65043 0.0
H1153 H 0.05209 0.84074 0.63302 0.0
H1154 H 1.00324 0.83126 0.59804 0.0
H1155 H 0.99077 0.80576 0.61449 0.0
H1156 H 0.02735 0.83327 0.57772 0.0
H1157 H 0.02201 0.87236 0.63632 0.0
H1158 H 0.02841 0.88204 0.67008 0.0
H1159 H 0.08339 0.89348 0.66528 0.0
H1160 H 0.07731 0.88373 0.63151 0.0
H1161 H 0.02174 0.91841 0.54768 0.0
H1162 H 0.02061 0.89348 0.5668 0.0
H1163 H 0.07645 0.89994 0.569 0.0
H1164 H 0.07759 0.92481 0.54933 0.0
H1165 H 0.05716 0.89876 0.60569 0.0
H1166 H 0.06216 0.86461 0.54687 0.0
H1167 H 0.05589 0.85523 0.51312 0.0
H1168 H 1.00182 0.83441 0.51859 0.0
H1169 H 1.00772 0.84396 0.55237 0.0
C1170 C 0.03107 0.81979 0.63915 0.0
C1171 C 0.01389 0.80948 0.63381 0.0
C1172 C 0.03852 0.83373 0.62926 0.0
C1173 C 0.02862 0.83813 0.61435 0.0
C1174 C 0.01121 0.82811 0.60942 0.0
C1175 C 1.00401 0.81367 0.61887 0.0
C1176 C 0.03634 0.85252 0.60323 0.0
C1177 C 0.03377 0.8476 0.58392 0.0
C1178 C 0.04564 0.87099 0.61121 0.0
C1179 C 0.04921 0.87717 0.63144 0.0
C1180 C 0.03546 0.87689 0.64249 0.0
C1181 C 0.03903 0.88239 0.66161 0.0
C1182 C 0.05629 0.88833 0.66982 0.0
C1183 C 0.07003 0.88886 0.65891 0.0
C1184 C 0.06653 0.88338 0.63978 0.0
C1185 C 0.03376 0.9145 0.55223 0.0
C1186 C 0.04973 0.9234 0.54707 0.0
C1187 C 0.03311 0.90032 0.56312 0.0
C1188 C 0.04845 0.89498 0.56925 0.0
C1189 C 0.06452 0.90397 0.56436 0.0
C1190 C 0.06513 0.918 0.5531 0.0
C1191 C 0.04713 0.87962 0.58043 0.0
C1192 C 0.051 0.8843 0.59964 0.0
C1193 C 0.03901 0.86091 0.57244 0.0
C1194 C 0.03536 0.85515 0.55214 0.0
C1195 C 0.0489 0.85821 0.54086 0.0
C1196 C 0.04542 0.85283 0.52173 0.0
C1197 C 0.02846 0.84427 0.51371 0.0
C1198 C 0.01495 0.84105 0.52482 0.0
C1199 C 0.01836 0.84643 0.54396 0.0
H1200 H 0.02579 0.84009 0.4989 0.0
H1201 H 0.05903 0.89254 0.68463 0.0
H1202 H 0.55736 0.82221 0.83338 0.0
H1203 H 0.52987 0.81863 0.81372 0.0
H1204 H 0.50108 0.80472 0.85914 0.0
H1205 H 0.52847 0.80841 0.87891 0.0
H1206 H 0.48675 0.78216 0.82514 0.0
H1207 H 0.50897 0.84675 0.85233 0.0
H1208 H 0.53097 0.87658 0.8597 0.0
H1209 H 0.52876 0.88202 0.80229 0.0
H1210 H 0.50747 0.85152 0.79441 0.0
H1211 H 0.40799 0.81293 0.81475 0.0
H1212 H 0.43665 0.80698 0.82398 0.0
H1213 H 0.45371 0.82005 0.77213 0.0
H1214 H 0.42484 0.826 0.76278 0.0
H1215 H 0.47522 0.84059 0.80413 0.0
H1216 H 0.44839 0.77637 0.7787 0.0
H1217 H 0.42507 0.74748 0.77419 0.0
H1218 H 0.43354 0.7434 0.8317 0.0
H1219 H 0.45664 0.7725 0.83667 0.0
C1220 C 0.54515 0.81818 0.83908 0.0
C1221 C 0.54493 0.81573 0.85764 0.0
C1222 C 0.52953 0.81611 0.82786 0.0
C1223 C 0.51359 0.81146 0.83508 0.0
C1224 C 0.51334 0.80822 0.85338 0.0
C1225 C 0.52893 0.81048 0.86465 0.0
C1226 C 0.49716 0.81154 0.82413 0.0
C1227 C 0.48418 0.79488 0.82047 0.0
C1228 C 0.49407 0.8282 0.818 0.0
C1229 C 0.50687 0.8466 0.82272 0.0
C1230 C 0.51338 0.8541 0.84121 0.0
C1231 C 0.52569 0.87119 0.84551 0.0
C1232 C 0.53122 0.88126 0.8315 0.0
C1233 C 0.52451 0.87418 0.81313 0.0
C1234 C 0.5124 0.85691 0.80873 0.0
C1235 C 0.41785 0.81438 0.8053 0.0
C1236 C 0.41445 0.82003 0.78817 0.0
C1237 C 0.43408 0.81082 0.81048 0.0
C1238 C 0.4471 0.81291 0.79861 0.0
C1239 C 0.44366 0.81824 0.78133 0.0
C1240 C 0.4273 0.82161 0.77604 0.0
C1241 C 0.46474 0.81123 0.80519 0.0
C1242 C 0.47796 0.82769 0.80822 0.0
C1243 C 0.46787 0.7945 0.8111 0.0
C1244 C 0.45421 0.77673 0.80808 0.0
C1245 C 0.44521 0.7694 0.79042 0.0
C1246 C 0.43202 0.75298 0.78778 0.0
C1247 C 0.42778 0.74366 0.80266 0.0
C1248 C 0.43681 0.75066 0.82019 0.0
C1249 C 0.44997 0.76711 0.82293 0.0
H1250 H 0.41753 0.73099 0.80061 0.0
H1251 H 0.54069 0.89455 0.83487 0.0
H1252 H 0.4837 0.21614 0.10113 0.0
H1253 H 0.48692 0.18775 0.08151 0.0
H1254 H 0.50487 0.1659 0.12943 0.0
H1255 H 0.50214 0.19471 0.14922 0.0
H1256 H 0.52738 0.16684 0.10435 0.0
H1257 H 0.46559 0.14401 0.10291 0.0
H1258 H 0.43481 0.14673 0.09937 0.0
H1259 H 0.43899 0.15636 0.04354 0.0
H1260 H 0.46984 0.15395 0.0468 0.0
H1261 H 0.54439 0.092 0.04174 0.0
H1262 H 0.5351 0.11107 0.06705 0.0
H1263 H 0.50251 0.13176 0.02787 0.0
H1264 H 0.50907 0.10942 1.003 0.0
H1265 H 0.48563 0.127 0.05308 0.0
H1266 H 0.54773 0.15695 0.05557 0.0
H1267 H 0.57925 0.15718 0.05857 0.0
H1268 H 0.57554 0.13789 0.1109 0.0
H1269 H 0.544 0.1374 0.10812 0.0
C1270 C 0.48793 0.20511 0.10755 0.0
C1271 C 0.49284 0.20764 0.12664 0.0
C1272 C 0.48965 0.18882 0.09633 0.0
C1273 C 0.49599 0.17469 0.10406 0.0
C1274 C 0.49991 0.17668 0.12326 0.0
C1275 C 0.49833 0.19308 0.13451 0.0
C1276 C 0.50068 0.15923 0.09184 0.0
C1277 C 0.51822 0.15784 0.09329 0.0
C1278 C 0.48877 0.14792 0.07725 0.0
C1279 C 0.47005 0.14882 0.07513 0.0
C1280 C 0.45996 0.14675 0.08989 0.0
C1281 C 0.44249 0.14825 0.08794 0.0
C1282 C 0.43495 0.15172 0.07125 0.0
C1283 C 0.44484 0.15364 0.05645 0.0
C1284 C 0.4623 0.15216 0.05833 0.0
C1285 C 0.53485 0.10024 0.03866 0.0
C1286 C 0.52675 0.09861 0.02066 0.0
C1287 C 0.52994 0.11165 0.05311 0.0
C1288 C 0.51826 0.12324 0.04953 0.0
C1289 C 0.51131 0.12275 0.03117 0.0
C1290 C 0.5152 0.11019 0.0169 0.0
C1291 C 0.51268 0.13536 0.06478 0.0
C1292 C 0.49489 0.13592 0.06409 0.0
C1293 C 0.52448 0.14633 0.07981 0.0
C1294 C 0.5435 0.14698 0.08155 0.0
C1295 C 0.55365 0.15272 0.06768 0.0
C1296 C 0.57151 0.15289 0.06935 0.0
C1297 C 0.57938 0.14751 0.08489 0.0
C1298 C 0.56943 0.14204 0.09886 0.0
C1299 C 0.55157 0.14183 0.09726 0.0
H1300 H 0.59319 0.14762 0.08613 0.0
H1301 H 0.42145 0.15291 0.06978 0.0
H1302 H 0.12756 0.34035 0.34504 0.0
H1303 H 0.14878 0.33378 0.32404 0.0
H1304 H 0.16638 0.2974 0.35953 0.0
H1305 H 0.14551 0.30442 0.3809 0.0
H1306 H 0.19313 0.31647 0.34704 0.0
H1307 H 0.13755 0.2797 0.32015 0.0
H1308 H 0.10633 0.27289 0.30829 0.0
H1309 H 0.11788 0.30831 0.26704 0.0
H1310 H 0.14915 0.31558 0.27885 0.0
H1311 H 0.22562 0.25791 0.27924 0.0
H1312 H 0.20104 0.26605 0.29421 0.0
H1313 H 0.21407 0.32229 0.28058 0.0
H1314 H 0.23914 0.3145 0.26601 0.0
H1315 H 0.17182 0.29307 0.28083 0.0
H1316 H 0.2291 0.33221 0.31437 0.0
H1317 H 0.25981 0.33272 0.32485 0.0
H1318 H 0.24328 0.28579 0.35321 0.0
H1319 H 0.21247 0.28477 0.34249 0.0
C1320 C 0.13613 0.33116 0.34849 0.0
C1321 C 0.13486 0.32282 0.36455 0.0
C1322 C 0.14814 0.3273 0.33641 0.0
C1323 C 0.15889 0.31477 0.34 0.0
C1324 C 0.15815 0.30705 0.35644 0.0
C1325 C 0.14625 0.31108 0.36865 0.0
C1326 C 0.17065 0.30944 0.32646 0.0
C1327 C 0.18839 0.3114 0.33259 0.0
C1328 C 0.16451 0.30258 0.30758 0.0
C1329 C 0.14568 0.29838 0.30054 0.0
C1330 C 0.13342 0.2862 0.30867 0.0
C1331 C 0.11571 0.28222 0.30193 0.0
C1332 C 0.11012 0.29021 0.28696 0.0
C1333 C 0.12223 0.30217 0.27867 0.0
C1334 C 0.13995 0.30622 0.28538 0.0
C1335 C 0.22296 0.27183 0.27887 0.0
C1336 C 0.23441 0.28567 0.27167 0.0
C1337 C 0.2089 0.27642 0.28742 0.0
C1338 C 0.20594 0.29476 0.28854 0.0
C1339 C 0.21627 0.30806 0.27979 0.0
C1340 C 0.23057 0.30361 0.27156 0.0
C1341 C 0.19409 0.30075 0.30143 0.0
C1342 C 0.17642 0.29859 0.29523 0.0
C1343 C 0.20014 0.30705 0.3203 0.0
C1344 C 0.21854 0.30832 0.32751 0.0
C1345 C 0.23204 0.32195 0.32276 0.0
C1346 C 0.24945 0.32232 0.32873 0.0
C1347 C 0.2535 0.30927 0.33967 0.0
C1348 C 0.24013 0.29588 0.34472 0.0
C1349 C 0.22269 0.29539 0.3387 0.0
H1350 H 0.26698 0.30954 0.34425 0.0
H1351 H 0.09641 0.2871 0.28175 0.0
H1352 H 0.9298 0.0568 0.19183 0.0
H1353 H 0.94473 0.05647 0.16392 0.0
H1354 H 0.99389 0.06288 0.19703 0.0
H1355 H 0.97894 0.06425 0.22504 0.0
H1356 H 1.00338 0.07933 0.17162 0.0
H1357 H 0.96519 0.0178 0.16219 0.0
H1358 H 0.93696 0.99505 0.15956 0.0
H1359 H 0.91691 0.02017 0.11533 0.0
H1360 H 0.94498 0.04319 0.11783 0.0
H1361 H 0.05199 0.0587 0.09588 0.0
H1362 H 0.03584 0.05858 0.12254 0.0
H1363 H 0.98811 0.05296 0.08722 0.0
H1364 H 1.00451 0.05183 0.05991 0.0
H1365 H 0.97747 0.03678 0.11341 0.0
H1366 H 0.01682 0.09806 0.12286 0.0
H1367 H 0.04525 0.12062 0.12633 0.0
H1368 H 0.06359 0.09547 0.17139 0.0
H1369 H 0.03534 0.07265 0.16807 0.0
C1370 C 0.94381 0.0581 0.19335 0.0
C1371 C 0.95276 0.06046 0.21137 0.0
C1372 C 0.95258 0.05766 0.17696 0.0
C1373 C 0.97095 0.05905 0.17728 0.0
C1374 C 0.97989 0.06163 0.19541 0.0
C1375 C 0.97114 0.06236 0.21182 0.0
C1376 C 0.98075 0.05816 0.15927 0.0
C1377 C 0.99757 0.0697 0.1591 0.0
C1378 C 0.97386 0.0462 0.14198 0.0
C1379 C 0.9571 0.0323 0.14031 0.0
C1380 C 0.95473 0.0185 0.15195 0.0
C1381 C 0.93877 1.00557 0.15048 0.0
C1382 C 0.92514 1.0062 0.13732 0.0
C1383 C 0.92747 0.01972 0.12554 0.0
C1384 C 0.9434 0.03269 0.12696 0.0
C1385 C 0.038 0.05735 0.09347 0.0
C1386 C 0.03002 0.05527 0.07502 0.0
C1387 C 0.02854 0.05764 0.10922 0.0
C1388 C 0.01027 0.05661 0.10802 0.0
C1389 C 1.00206 0.05407 0.08947 0.0
C1390 C 0.01159 0.05336 0.07346 0.0
C1391 C 1.00013 0.05788 0.12579 0.0
C1392 C 0.98327 0.04641 0.12592 0.0
C1393 C 1.00705 0.06985 0.14312 0.0
C1394 C 0.02402 0.08354 0.14509 0.0
C1395 C 0.02695 0.09729 0.13344 0.0
C1396 C 0.04303 0.11013 0.13539 0.0
C1397 C 0.05623 0.10945 0.14904 0.0
C1398 C 0.05336 0.09596 0.16081 0.0
C1399 C 0.03732 0.08309 0.1589 0.0
H1400 H 0.06866 0.1194 0.15053 0.0
H1401 H 0.91278 0.99618 0.13621 0.0
H1402 H 0.25286 0.6444 0.47296 0.0
H1403 H 0.23926 0.66088 0.45095 0.0
H1404 H 0.28463 0.70691 0.46176 0.0
H1405 H 0.29796 0.69083 0.48415 0.0
H1406 H 0.25463 0.71808 0.46909 0.0
H1407 H 0.27413 0.67717 0.41982 0.0
H1408 H 0.27462 0.64609 0.40212 0.0
H1409 H 0.2188 0.63406 0.39019 0.0
H1410 H 0.218 0.66503 0.40795 0.0
H1411 H 0.2721 0.77539 0.40518 0.0
H1412 H 0.26794 0.75273 0.4265 0.0
H1413 H 0.2163 0.72773 0.39859 0.0
H1414 H 0.22065 0.75047 0.37678 0.0
H1415 H 0.23634 0.70192 0.40171 0.0
H1416 H 0.21979 0.74859 0.44347 0.0
H1417 H 0.22083 0.78052 0.46014 0.0
H1418 H 0.27218 0.78263 0.4862 0.0
H1419 H 0.27158 0.75086 0.46954 0.0
C1420 C 0.26014 0.65774 0.47013 0.0
C1421 C 0.27633 0.66656 0.48029 0.0
C1422 C 0.25233 0.66714 0.45764 0.0
C1423 C 0.26086 0.68519 0.45505 0.0
C1424 C 0.27778 0.69308 0.46386 0.0
C1425 C 0.28543 0.68387 0.47651 0.0
C1426 C 0.25177 0.69699 0.44487 0.0
C1427 C 0.25057 0.7146 0.45435 0.0
C1428 C 0.24545 0.69183 0.42597 0.0
C1429 C 0.24599 0.67326 0.41539 0.0
C1430 C 0.26196 0.66781 0.41354 0.0
C1431 C 0.2623 0.65025 0.40347 0.0
C1432 C 0.24675 0.63808 0.39509 0.0
C1433 C 0.23083 0.64348 0.39672 0.0
C1434 C 0.23043 0.66103 0.40677 0.0
C1435 C 0.25977 0.76524 0.40378 0.0
C1436 C 0.24674 0.76447 0.38939 0.0
C1437 C 0.2573 0.75247 0.41607 0.0
C1438 C 0.24168 0.7388 0.41428 0.0
C1439 C 0.22833 0.73838 0.40027 0.0
C1440 C 0.2308 0.7513 0.38793 0.0
C1441 C 0.24073 0.72369 0.42564 0.0
C1442 C 0.23976 0.70525 0.41656 0.0
C1443 C 0.24521 0.72814 0.44495 0.0
C1444 C 0.24558 0.74724 0.45526 0.0
C1445 C 0.23132 0.75587 0.45272 0.0
C1446 C 0.23184 0.77396 0.46217 0.0
C1447 C 0.24655 0.78358 0.47424 0.0
C1448 C 0.26077 0.77513 0.4769 0.0
C1449 C 0.26032 0.75705 0.46749 0.0
H1450 H 0.24693 0.79759 0.48152 0.0
H1451 H 0.24703 0.62449 0.3873 0.0
H1452 H 0.66032 0.04874 0.69143 0.0
H1453 H 0.64188 0.04944 0.66307 0.0
H1454 H 0.59626 0.04071 0.69217 0.0
H1455 H 0.61439 0.03967 0.72025 0.0
H1456 H 0.59353 0.01542 0.66047 0.0
H1457 H 0.61329 0.08345 0.68116 0.0
H1458 H 0.63545 0.11326 0.68948 0.0
H1459 H 0.65299 0.10531 0.63586 0.0
H1460 H 0.63114 0.0753 0.62732 0.0
H1461 H 0.52751 0.02581 0.59407 0.0
H1462 H 0.54721 0.02834 0.62234 0.0
H1463 H 0.59119 0.04994 0.59413 0.0
H1464 H 0.57152 0.04948 0.56697 0.0
H1465 H 0.59597 0.06867 0.6251 0.0
H1466 H 0.57929 1.00175 0.60353 0.0
H1467 H 0.55925 0.97068 0.59353 0.0
H1468 H 0.53905 0.97438 0.64601 0.0
H1469 H 0.5588 1.00557 0.65623 0.0
C1470 C 0.64636 0.04701 0.6917 0.0
C1471 C 0.63868 0.04387 0.70786 0.0
C1472 C 0.63592 0.04756 0.67561 0.0
C1473 C 0.6178 0.04517 0.6757 0.0
C1474 C 0.61024 0.04252 0.69194 0.0
C1475 C 0.62059 0.04185 0.7079 0.0
C1476 C 0.60634 0.04396 0.65867 0.0
C1477 C 0.59391 0.02709 0.65275 0.0
C1478 C 0.60747 0.05899 0.64839 0.0
C1479 C 0.6207 0.07699 0.65369 0.0
C1480 C 0.622 0.08794 0.67122 0.0
C1481 C 0.63448 0.10491 0.67596 0.0
C1482 C 0.64566 0.11114 0.66323 0.0
C1483 C 0.64436 0.10045 0.64572 0.0
C1484 C 0.63192 0.08346 0.64093 0.0
C1485 C 0.54139 0.0311 0.59405 0.0
C1486 C 0.54812 0.03699 0.57829 0.0
C1487 C 0.55264 0.0324 0.61008 0.0
C1488 C 0.57074 0.03892 0.6102 0.0
C1489 C 0.57732 0.04481 0.59439 0.0
C1490 C 0.56607 0.04423 0.57873 0.0
C1491 C 0.58295 0.04006 0.62681 0.0
C1492 C 0.59557 0.0569 0.63267 0.0
C1493 C 0.58237 0.02479 0.63676 0.0
C1494 C 0.5704 1.00608 0.63057 0.0
C1495 C 0.57048 0.996 0.61288 0.0
C1496 C 0.55919 0.97836 0.60719 0.0
C1497 C 0.54786 0.97058 0.61911 0.0
C1498 C 0.54781 0.98042 0.63677 0.0
C1499 C 0.55906 0.99808 0.64253 0.0
H1500 H 0.53914 0.95692 0.61468 0.0
H1501 H 0.65529 0.12429 0.66692 0.0
H1502 H 0.27991 0.34921 0.98467 0.0
H1503 H 0.27868 0.33439 0.95247 0.0
H1504 H 0.33084 0.36614 0.95017 0.0
H1505 H 0.33145 0.38189 0.98175 0.0
H1506 H 0.31426 0.36678 0.92045 0.0
H1507 H 0.3175 0.31449 0.95331 0.0
H1508 H 0.30812 0.29206 0.97453 0.0
H1509 H 0.25837 0.27257 0.94167 0.0
H1510 H 0.26738 0.29504 0.92038 0.0
H1511 H 0.33024 0.31405 0.83722 0.0
H1512 H 0.3313 0.32532 0.87034 0.0
H1513 H 0.27558 0.30527 0.86716 0.0
H1514 H 0.27438 0.29413 0.8341 0.0
H1515 H 0.29361 0.29786 0.89906 0.0
H1516 H 0.29057 0.35004 0.86658 0.0
H1517 H 0.3001 0.37178 0.84481 0.0
H1518 H 0.35018 0.39086 0.87708 0.0
H1519 H 0.34103 0.36899 0.8989 0.0
C1520 C 0.29111 0.35291 0.97726 0.0
C1521 C 0.30578 0.36669 0.98575 0.0
C1522 C 0.29049 0.34432 0.95884 0.0
C1523 C 0.30481 0.34876 0.94871 0.0
C1524 C 0.31954 0.36238 0.95743 0.0
C1525 C 0.31993 0.37135 0.97558 0.0
C1526 C 0.30441 0.33988 0.92893 0.0
C1527 C 0.31003 0.35164 0.91599 0.0
C1528 C 0.29843 0.32016 0.92262 0.0
C1529 C 0.29307 0.30657 0.93535 0.0
C1530 C 0.30453 0.30549 0.95067 0.0
C1531 C 0.29928 0.29277 0.96271 0.0
C1532 C 0.28265 0.28094 0.95948 0.0
C1533 C 0.27124 0.28176 0.94417 0.0
C1534 C 0.27642 0.29448 0.93211 0.0
C1535 C 0.31824 0.3118 0.8436 0.0
C1536 C 0.30221 0.30326 0.83292 0.0
C1537 C 0.31885 0.31833 0.86255 0.0
C1538 C 0.30349 0.3163 0.87126 0.0
C1539 C 0.28761 0.30702 0.86079 0.0
C1540 C 0.28695 0.30071 0.84184 0.0
C1541 C 0.30378 0.32474 0.89099 0.0
C1542 C 0.29802 0.31295 0.90377 0.0
C1543 C 0.30973 0.34438 0.89721 0.0
C1544 C 0.31518 0.35774 0.88426 0.0
C1545 C 0.30366 0.35877 0.86896 0.0
C1546 C 0.30899 0.37113 0.85662 0.0
C1547 C 0.32575 0.38266 0.85953 0.0
C1548 C 0.33721 0.3819 0.87482 0.0
C1549 C 0.33195 0.36953 0.88719 0.0
H1550 H 0.32985 0.39221 0.84995 0.0
H1551 H 0.2786 0.2711 0.96881 0.0
H1552 H 0.97988 0.06038 0.30742 0.0
H1553 H 0.99512 0.05671 0.33677 0.0
H1554 H 0.94817 0.05721 0.36269 0.0
H1555 H 0.93298 0.06106 0.33335 0.0
H1556 H 0.97463 0.07631 0.38741 0.0
H1557 H 0.96723 0.01467 0.34843 0.0
H1558 H 0.97151 0.99395 0.32052 0.0
H1559 H 0.02706 0.01377 0.33229 0.0
H1560 H 0.0231 0.03474 0.36015 0.0
H1561 H 1.00217 0.0485 0.47239 0.0
H1562 H 0.9879 0.05177 0.44265 0.0
H1563 H 0.03054 0.03589 0.41579 0.0
H1564 H 0.04389 0.03078 0.44561 0.0
H1565 H 1.00753 0.02567 0.39083 0.0
H1566 H 0.01871 0.08658 0.42645 0.0
H1567 H 0.01889 0.11075 0.45344 0.0
H1568 H 0.96283 0.09819 0.44695 0.0
H1569 H 0.96232 0.07379 0.42004 0.0
C1570 C 0.97268 0.05976 0.31931 0.0
C1571 C 0.95491 0.06108 0.31746 0.0
C1572 C 0.98151 0.05745 0.33637 0.0
C1573 C 0.97308 0.05624 0.35263 0.0
C1574 C 0.95541 0.05795 0.35084 0.0
C1575 C 0.94657 0.06018 0.33377 0.0
C1576 C 0.98242 0.05325 0.37126 0.0
C1577 C 0.98157 0.06499 0.38802 0.0
C1578 C 0.99253 0.03923 0.37281 0.0
C1579 C 0.99486 0.02635 0.35628 0.0
C1580 C 0.98035 0.01464 0.34502 0.0
C1581 C 0.98272 1.00286 0.32921 0.0
C1582 C 0.99954 1.00257 0.32462 0.0
C1583 C 0.01404 0.01401 0.33586 0.0
C1584 C 0.01174 0.02582 0.35166 0.0
C1585 C 0.00855 0.04558 0.46017 0.0
C1586 C 0.02438 0.03932 0.46189 0.0
C1587 C 1.00042 0.04783 0.44282 0.0
C1588 C 0.00806 0.04499 0.42611 0.0
C1589 C 0.02389 0.03847 0.42787 0.0
C1590 C 0.03172 0.03553 0.44521 0.0
C1591 C 0.99957 0.04857 0.40721 0.0
C1592 C 1.00059 0.03699 0.39037 0.0
C1593 C 0.99028 0.06331 0.40545 0.0
C1594 C 0.99048 0.07825 0.42133 0.0
C1595 C 1.00642 0.08895 0.43081 0.0
C1596 C 1.00659 0.10268 0.4461 0.0
C1597 C 0.99088 0.10597 0.45192 0.0
C1598 C 0.97498 0.09561 0.44242 0.0
C1599 C 0.97475 0.08184 0.42714 0.0
H1600 H 0.99103 0.11658 0.46378 0.0
H1601 H 1.00135 0.99347 0.31236 0.0
H1602 H 0.28516 0.66271 0.59661 0.0
H1603 H 0.28345 0.68401 0.62485 0.0
H1604 H 0.29214 0.73152 0.59535 0.0
H1605 H 0.29409 0.71045 0.56725 0.0
H1606 H 0.313 0.73812 0.62726 0.0
H1607 H 0.25185 0.71393 0.607 0.0
H1608 H 0.2247 0.68967 0.59745 0.0
H1609 H 0.22976 0.66972 0.6494 0.0
H1610 H 0.25708 0.69369 0.65916 0.0
H1611 H 0.2997 0.8049 0.70069 0.0
H1612 H 0.29468 0.78527 0.6701 0.0
H1613 H 0.28505 0.73493 0.6955 0.0
H1614 H 0.28994 0.75434 0.7259 0.0
H1615 H 0.26311 0.73096 0.66457 0.0
H1616 H 0.32472 0.75167 0.68384 0.0
H1617 H 0.35258 0.77459 0.69418 0.0
H1618 H 0.34748 0.79927 0.64491 0.0
H1619 H 0.31944 0.77667 0.6344 0.0
C1620 C 0.2868 0.67771 0.59621 0.0
C1621 C 0.2899 0.68498 0.57982 0.0
C1622 C 0.28562 0.68981 0.61226 0.0
C1623 C 0.28745 0.70927 0.61206 0.0
C1624 C 0.29063 0.71652 0.59572 0.0
C1625 C 0.29181 0.70448 0.57973 0.0
C1626 C 0.28712 0.72233 0.62912 0.0
C1627 C 0.30195 0.73678 0.63525 0.0
C1628 C 0.27289 0.72015 0.63974 0.0
C1629 C 0.25662 0.70549 0.63373 0.0
C1630 C 0.24728 0.70424 0.61631 0.0
C1631 C 0.23183 0.69057 0.61088 0.0
C1632 C 0.22554 0.67813 0.62279 0.0
C1633 C 0.23467 0.67934 0.64017 0.0
C1634 C 0.25013 0.69297 0.64566 0.0
C1635 C 0.29622 0.78965 0.69966 0.0
C1636 C 0.29527 0.78109 0.71557 0.0
C1637 C 0.29341 0.77849 0.68225 0.0
C1638 C 0.28972 0.75869 0.68063 0.0
C1639 C 0.28787 0.75019 0.69649 0.0
C1640 C 0.29067 0.7613 0.71383 0.0
C1641 C 0.28897 0.7467 0.66263 0.0
C1642 C 0.27402 0.73242 0.65641 0.0
C1643 C 0.30318 0.74883 0.652 0.0
C1644 C 0.31987 0.76266 0.65847 0.0
C1645 C 0.32944 0.76213 0.67531 0.0
C1646 C 0.34528 0.77503 0.68118 0.0
C1647 C 0.35176 0.78843 0.67025 0.0
C1648 C 0.34242 0.78893 0.6534 0.0
C1649 C 0.32655 0.77608 0.64748 0.0
H1650 H 0.36405 0.79837 0.67479 0.0
H1651 H 0.21356 0.66758 0.61857 0.0
H1652 H 0.67442 0.06329 0.82178 0.0
H1653 H 0.66342 0.08165 0.84667 0.0
H1654 H 0.61067 0.05906 0.8209 0.0
H1655 H 0.62156 0.04085 0.79584 0.0
H1656 H 0.61892 0.09817 0.82828 0.0
H1657 H 0.62493 0.04483 0.85913 0.0
H1658 H 0.64156 0.02291 0.87092 0.0
H1659 H 0.67679 0.06957 0.90559 0.0
H1660 H 0.6605 0.09181 0.89378 0.0
H1661 H 0.55631 0.09077 0.88586 0.0
H1662 H 0.57769 0.09569 0.86459 0.0
H1663 H 0.6173 0.12306 0.90964 0.0
H1664 H 0.59563 0.11774 0.93138 0.0
H1665 H 0.62446 0.09211 0.89462 0.0
H1666 H 0.61069 0.14384 0.86894 0.0
H1667 H 0.5915 0.16346 0.85732 0.0
H1668 H 0.56839 0.11846 0.81295 0.0
H1669 H 0.58723 0.09846 0.82441 0.0
C1670 C 0.66045 0.0618 0.82171 0.0
C1671 C 0.64881 0.05077 0.80686 0.0
C1672 C 0.65422 0.07242 0.83584 0.0
C1673 C 0.63631 0.07192 0.83534 0.0
C1674 C 0.62459 0.05982 0.82127 0.0
C1675 C 0.63079 0.04925 0.80713 0.0
C1676 C 0.62965 0.08439 0.84911 0.0
C1677 C 0.62009 0.09698 0.84283 0.0
C1678 C 0.63201 0.08337 0.8681 0.0
C1679 C 0.64166 0.07 0.87538 0.0
C1680 C 0.63632 0.05043 0.86915 0.0
C1681 C 0.64566 0.03794 0.87585 0.0
C1682 C 0.66027 0.04485 0.88893 0.0
C1683 C 0.66551 0.06425 0.89541 0.0
C1684 C 0.65622 0.0768 0.88872 0.0
C1685 C 0.56929 0.09883 0.89126 0.0
C1686 C 0.57443 0.10337 0.91033 0.0
C1687 C 0.58162 0.10176 0.87896 0.0
C1688 C 0.59922 0.10958 0.8855 0.0
C1689 C 0.60382 0.11684 0.90433 0.0
C1690 C 0.59145 0.11375 0.91672 0.0
C1691 C 0.61264 0.10522 0.87373 0.0
C1692 C 0.62374 0.09411 0.88026 0.0
C1693 C 0.61148 0.10744 0.85492 0.0
C1694 C 0.60049 0.11966 0.84753 0.0
C1695 C 0.60152 0.13812 0.8567 0.0
C1696 C 0.59068 0.1493 0.85015 0.0
C1697 C 0.57875 0.14222 0.83439 0.0
C1698 C 0.57768 0.12396 0.82512 0.0
C1699 C 0.5885 0.11271 0.8316 0.0
H1700 H 0.57033 0.15089 0.82938 0.0
H1701 H 0.6675 0.03517 0.8941 0.0
H1702 H 0.29605 0.39288 0.10467 0.0
H1703 H 0.291 0.37681 0.13142 0.0
H1704 H 0.30764 0.3286 0.10388 0.0
H1705 H 0.31198 0.34438 0.07681 0.0
H1706 H 0.28128 0.3159 0.12062 0.0
H1707 H 0.33377 0.36459 0.14196 0.0
H1708 H 0.35051 0.39764 0.14804 0.0
H1709 H 0.31342 0.41307 0.18358 0.0
H1710 H 0.29638 0.38015 0.17757 0.0
H1711 H 0.29046 0.26766 0.19634 0.0
H1712 H 0.29505 0.28515 0.17067 0.0
H1713 H 0.28385 0.33413 0.20326 0.0
H1714 H 0.28059 0.31679 0.22962 0.0
H1715 H 0.30605 0.34722 0.18402 0.0
H1716 H 0.25373 0.3 0.16432 0.0
H1717 H 0.23467 0.26808 0.15741 0.0
H1718 H 0.26816 0.25079 0.11833 0.0
H1719 H 0.28753 0.28253 0.12517 0.0
C1720 C 0.29875 0.3789 0.10432 0.0
C1721 C 0.30461 0.37009 0.0885 0.0
C1722 C 0.29593 0.36967 0.11978 0.0
C1723 C 0.29924 0.35144 0.12017 0.0
C1724 C 0.30498 0.34261 0.10426 0.0
C1725 C 0.30757 0.35173 0.0887 0.0
C1726 C 0.29661 0.3415 0.13689 0.0
C1727 C 0.28694 0.32272 0.13443 0.0
C1728 C 0.30326 0.35035 0.15524 0.0
C1729 C 0.31376 0.36997 0.15923 0.0
C1730 C 0.32918 0.37506 0.15105 0.0
C1731 C 0.33871 0.39376 0.15447 0.0
C1732 C 0.33302 0.40745 0.16617 0.0
C1733 C 0.31782 0.40245 0.17453 0.0
C1734 C 0.30824 0.38378 0.17114 0.0
C1735 C 0.28909 0.28222 0.19812 0.0
C1736 C 0.2851 0.29075 0.21513 0.0
C1737 C 0.29147 0.29224 0.18321 0.0
C1738 C 0.2892 0.31099 0.18436 0.0
C1739 C 0.2856 0.3197 0.2016 0.0
C1740 C 0.28373 0.30978 0.2168 0.0
C1741 C 0.29087 0.32142 0.1678 0.0
C1742 C 0.30034 0.34031 0.17026 0.0
C1743 C 0.28375 0.31275 0.14945 0.0
C1744 C 0.27218 0.2936 0.1454 0.0
C1745 C 0.2571 0.28935 0.15436 0.0
C1746 C 0.24623 0.2713 0.15043 0.0
C1747 C 0.25023 0.25741 0.13748 0.0
C1748 C 0.26509 0.26155 0.12839 0.0
C1749 C 0.27601 0.27958 0.13227 0.0
H1750 H 0.24179 0.24344 0.13445 0.0
H1751 H 0.34039 0.42192 0.16877 0.0
H1752 H 0.23632 0.91937 0.02279 0.0
H1753 H 0.21504 0.9369 0.03452 0.0
H1754 H 0.24823 0.98923 0.0267 0.0
H1755 H 0.26954 0.97189 0.01503 0.0
H1756 H 0.23468 0.99151 0.06086 0.0
H1757 H 0.21484 0.97144 0.99598 0.0
H1758 H 0.20671 0.94768 0.96774 0.0
H1759 H 0.16582 0.91616 0.99335 0.0
H1760 H 0.17385 0.93968 0.02183 0.0
H1761 H 0.17604 0.05305 0.05167 0.0
H1762 H 0.19824 0.03401 0.05135 0.0
H1763 H 0.1592 0.98493 0.05675 0.0
H1764 H 0.13694 1.0039 0.05706 0.0
H1765 H 0.17535 0.97901 0.02685 0.0
H1766 H 0.19302 1.0029 0.09073 0.0
H1767 H 0.20217 0.0268 0.11875 0.0
H1768 H 0.24765 0.05186 0.09524 0.0
H1769 H 0.23868 0.02826 0.06697 0.0
C1770 C 0.23898 0.93459 0.02342 0.0
C1771 C 0.25448 0.94427 0.01787 0.0
C1772 C 0.22691 0.94456 0.03023 0.0
C1773 C 0.23017 0.96432 0.03151 0.0
C1774 C 0.2456 0.974 0.02595 0.0
C1775 C 0.25764 0.96404 0.0191 0.0
C1776 C 0.21709 0.97486 0.0378 0.0
C1777 C 0.22171 0.98893 0.05344 0.0
C1778 C 0.20016 0.97111 0.02826 0.0
C1779 C 0.19502 0.95721 0.01105 0.0
C1780 C 0.20416 0.9594 0.9956 0.0
C1781 C 0.19957 0.94599 0.97956 0.0
C1782 C 0.18578 0.93039 0.97877 0.0
C1783 C 0.1765 0.92824 0.99399 0.0
C1784 C 0.18105 0.94162 0.01007 0.0
C1785 C 0.1723 0.03833 0.0533 0.0
C1786 C 0.15476 0.02984 0.05407 0.0
C1787 C 0.185 0.02748 0.05318 0.0
C1788 C 0.18033 1.00807 0.05401 0.0
C1789 C 0.16302 0.99988 0.05603 0.0
C1790 C 0.15033 0.01068 0.05608 0.0
C1791 C 0.19283 0.99587 0.04999 0.0
C1792 C 0.18817 0.98148 0.0346 0.0
C1793 C 0.20973 0.99949 0.05974 0.0
C1794 C 0.21508 0.01388 0.07664 0.0
C1795 C 0.20489 0.01362 0.09145 0.0
C1796 C 0.21007 0.02708 0.10741 0.0
C1797 C 0.22546 0.04086 0.10876 0.0
C1798 C 0.23572 0.04119 0.09417 0.0
C1799 C 0.23061 0.02775 0.07818 0.0
H1800 H 0.22945 0.05127 0.12113 0.0
H1801 H 0.18226 0.92 0.96635 0.0
H1802 H 0.73786 0.63668 0.02523 0.0
H1803 H 0.70884 0.61754 0.02664 0.0
H1804 H 0.68835 0.64027 0.98054 0.0
H1805 H 0.71726 0.66025 0.97984 0.0
H1806 H 0.66521 0.63781 1.00259 0.0
H1807 H 0.69765 0.59264 0.97826 0.0
H1808 H 0.72248 0.57678 0.97811 0.0
H1809 H 0.71129 0.55886 0.02978 0.0
H1810 H 0.6865 0.57479 0.03034 0.0
H1811 H 0.59279 0.55259 0.97535 0.0
H1812 H 0.62184 0.57294 0.97577 0.0
H1813 H 0.62619 0.58543 0.03507 0.0
H1814 H 0.59695 0.5654 0.03473 0.0
H1815 H 0.65686 0.56943 0.00655 0.0
H1816 H 0.62859 0.62176 0.03268 0.0
H1817 H 0.60342 0.63716 0.03156 0.0
H1818 H 0.60574 0.63834 0.97368 0.0
H1819 H 0.63116 0.62331 0.97459 0.0
C1820 C 0.7272 0.6375 0.0153 0.0
C1821 C 0.73 0.6499 1.00229 0.0
C1822 C 0.71052 0.62643 0.01604 0.0
C1823 C 0.69618 0.62694 1.00344 0.0
C1824 C 0.69901 0.63941 0.99045 0.0
C1825 C 0.71564 0.65079 0.98996 0.0
C1826 C 0.67832 0.61468 1.00384 0.0
C1827 C 0.66356 0.62286 1.00335 0.0
C1828 C 0.67571 0.59505 0.00496 0.0
C1829 C 0.6903 0.58502 1.0044 0.0
C1830 C 0.70051 0.58535 0.98961 0.0
C1831 C 0.71458 0.57636 0.98946 0.0
C1832 C 0.71848 0.56685 1.00395 0.0
C1833 C 0.70826 0.56623 0.01857 0.0
C1834 C 0.69418 0.57522 0.0188 0.0
C1835 C 0.59986 0.5598 0.98848 0.0
C1836 C 0.59247 0.55741 0.00499 0.0
C1837 C 0.61651 0.57137 0.9887 0.0
C1838 C 0.62629 0.58068 0.00545 0.0
C1839 C 0.61892 0.57843 0.02197 0.0
C1840 C 0.60215 0.56705 0.02175 0.0
C1841 C 0.64415 0.59273 0.00555 0.0
C1842 C 0.65876 0.58444 0.00593 0.0
C1843 C 0.64667 0.61215 1.00425 0.0
C1844 C 0.63173 0.62153 1.00372 0.0
C1845 C 0.62376 0.62541 0.01975 0.0
C1846 C 0.60952 0.63415 0.01917 0.0
C1847 C 0.60318 0.63901 1.00262 0.0
C1848 C 0.6109 0.63492 0.98656 0.0
C1849 C 0.62525 0.62635 0.98711 0.0
H1850 H 0.59223 0.64588 1.00221 0.0
H1851 H 0.7294 0.55993 1.00382 0.0
H1852 H 0.67169 0.44992 0.27196 0.0
H1853 H 0.68664 0.42338 0.26978 0.0
H1854 H 0.73618 0.46254 0.27524 0.0
H1855 H 0.72118 0.48912 0.27746 0.0
H1856 H 0.73947 0.43301 0.25153 0.0
H1857 H 0.7177 0.4337 0.31109 0.0
H1858 H 0.69498 0.43244 0.33231 0.0
H1859 H 0.6679 0.37831 0.3025 0.0
H1860 H 0.69035 0.37936 0.28097 0.0
H1861 H 0.79384 0.36577 0.26607 0.0
H1862 H 0.77806 0.39149 0.26724 0.0
H1863 H 0.72989 0.35168 0.26812 0.0
H1864 H 0.7458 0.32586 0.26711 0.0
H1865 H 0.72508 0.38101 0.28793 0.0
H1866 H 0.74382 0.37828 0.22887 0.0
H1867 H 0.76325 0.37797 0.2043 0.0
H1868 H 0.79233 0.43339 0.22867 0.0
H1869 H 0.77321 0.43393 0.25356 0.0
C1870 C 0.6858 0.45312 0.2728 0.0
C1871 C 0.69483 0.47238 0.27504 0.0
C1872 C 0.69458 0.43757 0.27164 0.0
C1873 C 0.7131 0.44006 0.27256 0.0
C1874 C 0.72208 0.45933 0.27448 0.0
C1875 C 0.71331 0.4749 0.27584 0.0
C1876 C 0.72292 0.42302 0.27146 0.0
C1877 C 0.73637 0.42194 0.25986 0.0
C1878 C 0.71904 0.40737 0.28138 0.0
C1879 C 0.70561 0.4067 0.29433 0.0
C1880 C 0.70684 0.42159 0.309 0.0
C1881 C 0.69402 0.4209 0.32109 0.0
C1882 C 0.67998 0.40533 0.31872 0.0
C1883 C 0.67876 0.39038 0.3043 0.0
C1884 C 0.69154 0.391 0.29216 0.0
C1885 C 0.77986 0.36221 0.26642 0.0
C1886 C 0.77156 0.34299 0.2664 0.0
C1887 C 0.77056 0.3773 0.26696 0.0
C1888 C 0.75216 0.37443 0.26752 0.0
C1889 C 0.74386 0.3552 0.26769 0.0
C1890 C 0.75317 0.34006 0.26703 0.0
C1891 C 0.7419 0.39113 0.26821 0.0
C1892 C 0.72832 0.39213 0.27968 0.0
C1893 C 0.74534 0.40646 0.2578 0.0
C1894 C 0.75723 0.40603 0.24324 0.0
C1895 C 0.75449 0.39031 0.22912 0.0
C1896 C 0.76542 0.39011 0.21511 0.0
C1897 C 0.77906 0.40562 0.21496 0.0
C1898 C 0.78179 0.42136 0.22883 0.0
C1899 C 0.77091 0.42162 0.2429 0.0
H1900 H 0.78747 0.40546 0.20407 0.0
H1901 H 0.67007 0.40482 0.32809 0.0
H1902 H 0.84649 0.46723 0.54538 0.0
H1903 H 0.87689 0.48479 0.54994 0.0
H1904 H 0.88969 0.44368 0.50827 0.0
H1905 H 0.85963 0.42558 0.50451 0.0
H1906 H 0.91742 0.45901 0.53247 0.0
H1907 H 0.87328 0.48117 0.49622 0.0
H1908 H 0.84559 0.4918 0.49216 0.0
H1909 H 0.86479 0.53822 0.53634 0.0
H1910 H 0.89253 0.52769 0.5408 0.0
H1911 H 0.9759 0.50779 0.48114 0.0
H1912 H 0.9469 0.49276 0.48798 0.0
H1913 H 0.95177 0.53483 0.53648 0.0
H1914 H 0.98074 0.54985 0.52985 0.0
H1915 H 0.91657 0.52169 0.51392 0.0
H1916 H 0.96369 0.50017 0.54568 0.0
H1917 H 0.99128 0.48918 0.54516 0.0
H1918 H 0.96602 0.4406 0.50547 0.0
H1919 H 0.93834 0.45153 0.50539 0.0
C1920 C 0.85597 0.46177 0.5376 0.0
C1921 C 0.85086 0.44548 0.52424 0.0
C1922 C 0.87326 0.47168 0.54027 0.0
C1923 C 0.88529 0.46578 0.52902 0.0
C1924 C 0.88053 0.44849 0.51699 0.0
C1925 C 0.86336 0.43828 0.51472 0.0
C1926 C 0.90157 0.47895 0.52715 0.0
C1927 C 0.91727 0.47275 0.52857 0.0
C1928 C 0.90128 0.49688 0.522 0.0
C1929 C 0.88487 0.50357 0.51895 0.0
C1930 C 0.87157 0.49363 0.50508 0.0
C1931 C 0.85587 0.49962 0.50272 0.0
C1932 C 0.85342 0.51566 0.51401 0.0
C1933 C 0.8667 0.52579 0.52763 0.0
C1934 C 0.88241 0.51983 0.53007 0.0
C1935 C 0.97058 0.51404 0.49299 0.0
C1936 C 0.98054 0.52961 0.50523 0.0
C1937 C 0.95411 0.50552 0.49684 0.0
C1938 C 0.94754 0.51268 0.51282 0.0
C1939 C 0.95681 0.5292 0.52414 0.0
C1940 C 0.97333 0.53758 0.52043 0.0
C1941 C 0.93217 0.50154 0.51898 0.0
C1942 C 0.91674 0.50816 0.51834 0.0
C1943 C 0.93265 0.48391 0.52453 0.0
C1944 C 0.94897 0.47669 0.52548 0.0
C1945 C 0.96402 0.48715 0.53682 0.0
C1946 C 0.97968 0.48096 0.53662 0.0
C1947 C 0.98041 0.46421 0.52531 0.0
C1948 C 0.96544 0.45356 0.51424 0.0
C1949 C 0.94975 0.45974 0.51432 0.0
H1950 H 0.99256 0.45947 0.52513 0.0
H1951 H 0.84125 0.52025 0.51219 0.0
H1952 H 0.42292 0.09706 0.27001 0.0
H1953 H 0.4033 0.11302 0.25403 0.0
H1954 H 0.36264 0.09259 0.2868 0.0
H1955 H 0.38202 0.07573 0.30218 0.0
H1956 H 0.35042 0.0869 0.2512 0.0
H1957 H 0.38666 0.1403 0.29435 0.0
H1958 H 0.41561 0.15944 0.30787 0.0
H1959 H 0.42725 0.17166 0.25433 0.0
H1960 H 0.39832 0.15267 0.24049 0.0
H1961 H 0.29225 0.14698 0.25044 0.0
H1962 H 0.31279 0.12673 0.25422 0.0
H1963 H 0.34557 0.15577 0.21829 0.0
H1964 H 0.325 0.1764 0.21465 0.0
H1965 H 0.36393 0.15577 0.24903 0.0
H1966 H 0.32556 0.10775 0.20668 0.0
H1967 H 0.29744 0.08751 0.19217 0.0
H1968 H 0.29044 0.06368 0.24185 0.0
H1969 H 0.31839 0.08396 0.25678 0.0
C1970 C 0.40995 0.09639 0.27416 0.0
C1971 C 0.404 0.08537 0.28747 0.0
C1972 C 0.39872 0.10542 0.26492 0.0
C1973 C 0.38154 0.10407 0.26929 0.0
C1974 C 0.37583 0.09372 0.28316 0.0
C1975 C 0.38695 0.08433 0.29211 0.0
C1976 C 0.36936 0.11315 0.25923 0.0
C1977 C 0.35325 0.10198 0.25083 0.0
C1978 C 0.3735 0.13262 0.25793 0.0
C1979 C 0.39038 0.14503 0.2664 0.0
C1980 C 0.39537 0.14717 0.28549 0.0
C1981 C 0.41176 0.15798 0.2932 0.0
C1982 C 0.42323 0.1668 0.28196 0.0
C1983 C 0.41829 0.16492 0.26301 0.0
C1984 C 0.40188 0.1542 0.25524 0.0
C1985 C 0.30347 0.14861 0.24276 0.0
C1986 C 0.30704 0.16331 0.2323 0.0
C1987 C 0.31525 0.137 0.24494 0.0
C1988 C 0.3307 0.13966 0.23646 0.0
C1989 C 0.33374 0.1535 0.22498 0.0
C1990 C 0.32199 0.16523 0.2229 0.0
C1991 C 0.34452 0.12968 0.24167 0.0
C1992 C 0.36107 0.14063 0.24908 0.0
C1993 C 0.34081 0.10996 0.24188 0.0
C1994 C 0.32407 0.09747 0.23289 0.0
C1995 C 0.31799 0.09827 0.21456 0.0
C1996 C 0.30208 0.08678 0.20625 0.0
C1997 C 0.29215 0.07433 0.21609 0.0
C1998 C 0.29815 0.07331 0.23424 0.0
C1999 C 0.31405 0.08478 0.24262 0.0
H2000 H 0.27983 0.06547 0.20964 0.0
H2001 H 0.43596 0.17507 0.28793 0.0
H2002 H 0.30942 0.13811 0.5188 0.0
H2003 H 0.33496 0.12506 0.52636 0.0
H2004 H 0.36889 0.17661 0.51793 0.0
H2005 H 0.34333 0.1899 0.51067 0.0
H2006 H 0.37819 0.14419 0.50049 0.0
H2007 H 0.36649 0.16877 0.56003 0.0
H2008 H 0.34899 0.17422 0.58569 0.0
H2009 H 0.33838 0.11497 0.58926 0.0
H2010 H 0.35558 0.10908 0.56339 0.0
H2011 H 0.45574 0.11875 0.53321 0.0
H2012 H 0.43255 0.13647 0.53244 0.0
H2013 H 0.39522 0.08706 0.54019 0.0
H2014 H 0.41826 0.06912 0.54068 0.0
H2015 H 0.3889 0.12066 0.55958 0.0
H2016 H 0.39854 0.0964 0.49769 0.0
H2017 H 0.41736 0.09167 0.47307 0.0
H2018 H 0.4328 0.15177 0.47511 0.0
H2019 H 0.41422 0.15685 0.49993 0.0
C2020 C 0.32231 0.14668 0.51851 0.0
C2021 C 0.3243 0.16504 0.51404 0.0
C2022 C 0.33692 0.13923 0.52296 0.0
C2023 C 0.35391 0.14986 0.52284 0.0
C2024 C 0.35595 0.16812 0.51815 0.0
C2025 C 0.34132 0.17571 0.514 0.0
C2026 C 0.36944 0.14165 0.52715 0.0
C2027 C 0.38065 0.13934 0.51354 0.0
C2028 C 0.37263 0.13504 0.54408 0.0
C2029 C 0.36217 0.13845 0.55959 0.0
C2030 C 0.36027 0.15686 0.56614 0.0
C2031 C 0.35044 0.16004 0.58076 0.0
C2032 C 0.34254 0.14494 0.58906 0.0
C2033 C 0.34449 0.12664 0.58279 0.0
C2034 C 0.35429 0.12337 0.56815 0.0
C2035 C 0.44263 0.1116 0.53478 0.0
C2036 C 0.43895 0.09233 0.53672 0.0
C2037 C 0.42936 0.12182 0.53446 0.0
C2038 C 0.41202 0.11307 0.53601 0.0
C2039 C 0.40846 0.09418 0.53898 0.0
C2040 C 0.42172 0.08391 0.53928 0.0
C2041 C 0.39746 0.12305 0.53282 0.0
C2042 C 0.38644 0.12563 0.5466 0.0
C2043 C 0.39444 0.13002 0.51609 0.0
C2044 C 0.40509 0.127 0.50071 0.0
C2045 C 0.40598 0.1086 0.4929 0.0
C2046 C 0.41661 0.10586 0.47893 0.0
C2047 C 0.42629 0.12141 0.47255 0.0
C2048 C 0.4253 0.13974 0.48007 0.0
C2049 C 0.4147 0.14256 0.49407 0.0
H2050 H 0.43455 0.11926 0.46175 0.0
H2051 H 0.33494 0.14743 0.60039 0.0
H2052 H 0.68353 0.593 0.29998 0.0
H2053 H 0.69937 0.62538 0.29926 0.0
H2054 H 0.73206 0.6038 0.26131 0.0
H2055 H 0.71657 0.57136 0.2626 0.0
H2056 H 0.75229 0.63144 0.28132 0.0
H2057 H 0.69491 0.63 0.25146 0.0
H2058 H 0.66286 0.62565 0.24914 0.0
H2059 H 0.66758 0.66813 0.29687 0.0
H2060 H 0.69966 0.67257 0.29959 0.0
H2061 H 0.79308 0.71881 0.25601 0.0
H2062 H 0.77523 0.68766 0.25695 0.0
H2063 H 0.74313 0.71307 0.29299 0.0
H2064 H 0.76069 0.74471 0.29115 0.0
H2065 H 0.72222 0.68397 0.27536 0.0
H2066 H 0.77868 0.68571 0.30588 0.0
H2067 H 0.81073 0.68991 0.30992 0.0
H2068 H 0.8078 0.64676 0.26315 0.0
H2069 H 0.77575 0.64245 0.25871 0.0
C2070 C 0.69411 0.59502 0.29146 0.0
C2071 C 0.69852 0.57901 0.28138 0.0
C2072 C 0.70321 0.61389 0.29085 0.0
C2073 C 0.71708 0.61792 0.27986 0.0
C2074 C 0.72158 0.60182 0.26996 0.0
C2075 C 0.71257 0.58295 0.27068 0.0
C2076 C 0.72708 0.63846 0.27891 0.0
C2077 C 0.7455 0.64271 0.2797 0.0
C2078 C 0.71891 0.6541 0.2775 0.0
C2079 C 0.69966 0.65148 0.27582 0.0
C2080 C 0.6891 0.63833 0.26151 0.0
C2081 C 0.67093 0.63586 0.26012 0.0
C2082 C 0.66319 0.64657 0.27288 0.0
C2083 C 0.6736 0.65982 0.28702 0.0
C2084 C 0.69177 0.66233 0.28848 0.0
C2085 C 0.78208 0.71797 0.264 0.0
C2086 C 0.77851 0.73484 0.27326 0.0
C2087 C 0.77186 0.69976 0.26483 0.0
C2088 C 0.75775 0.69706 0.27563 0.0
C2089 C 0.7538 0.71402 0.28456 0.0
C2090 C 0.7639 0.73243 0.2834 0.0
C2091 C 0.74745 0.67686 0.27748 0.0
C2092 C 0.72901 0.67268 0.27691 0.0
C2093 C 0.75559 0.66126 0.27929 0.0
C2094 C 0.77484 0.66391 0.28186 0.0
C2095 C 0.78489 0.67721 0.29639 0.0
C2096 C 0.80305 0.6796 0.29876 0.0
C2097 C 0.8113 0.66865 0.28677 0.0
C2098 C 0.8014 0.65526 0.27241 0.0
C2099 C 0.78324 0.65283 0.26997 0.0
H2100 H 0.82536 0.67051 0.28863 0.0
H2101 H 0.64912 0.64463 0.27178 0.0
H2102 H 0.92202 0.46978 0.79149 0.0
H2103 H 0.90175 0.439 0.78675 0.0
H2104 H 0.8673 0.45891 0.74907 0.0
H2105 H 0.88727 0.4898 0.75418 0.0
H2106 H 0.85644 0.45667 0.78337 0.0
H2107 H 0.87575 0.4176 0.73598 0.0
H2108 H 0.89592 0.40209 0.71883 0.0
H2109 H 0.90689 0.37441 0.76485 0.0
H2110 H 0.88697 0.38997 0.7824 0.0
H2111 H 0.79033 0.36954 0.77339 0.0
H2112 H 0.8102 0.39916 0.77068 0.0
H2113 H 0.84352 0.39342 0.81819 0.0
H2114 H 0.82335 0.36416 0.82139 0.0
H2115 H 0.85379 0.38781 0.77746 0.0
H2116 H 0.83657 0.42943 0.82553 0.0
H2117 H 0.81551 0.44404 0.84212 0.0
H2118 H 0.80031 0.46624 0.79373 0.0
H2119 H 0.82114 0.45153 0.77676 0.0
C2120 C 0.91048 0.46724 0.78161 0.0
C2121 C 0.90561 0.48207 0.7738 0.0
C2122 C 0.89905 0.44964 0.7787 0.0
C2123 C 0.88296 0.44701 0.76788 0.0
C2124 C 0.87964 0.46089 0.75759 0.0
C2125 C 0.89087 0.47852 0.76074 0.0
C2126 C 0.86809 0.43367 0.77248 0.0
C2127 C 0.85563 0.44153 0.78166 0.0
C2128 C 0.8676 0.41416 0.7709 0.0
C2129 C 0.87998 0.40514 0.7606 0.0
C2130 C 0.88262 0.4084 0.74255 0.0
C2131 C 0.89397 0.39954 0.73273 0.0
C2132 C 0.90271 0.38731 0.74077 0.0
C2133 C 0.90012 0.38391 0.75865 0.0
C2134 C 0.88879 0.39274 0.76853 0.0
C2135 C 0.80144 0.37519 0.78377 0.0
C2136 C 0.80565 0.36476 0.7974 0.0
C2137 C 0.81268 0.392 0.78226 0.0
C2138 C 0.82821 0.39806 0.79416 0.0
C2139 C 0.83144 0.38877 0.80904 0.0
C2140 C 0.81996 0.37219 0.81085 0.0
C2141 C 0.8425 0.41096 0.78831 0.0
C2142 C 0.85471 0.40297 0.77895 0.0
C2143 C 0.84282 0.43034 0.78969 0.0
C2144 C 0.83026 0.43919 0.79981 0.0
C2145 C 0.8286 0.43725 0.81836 0.0
C2146 C 0.81675 0.4456 0.82785 0.0
C2147 C 0.80654 0.45601 0.81897 0.0
C2148 C 0.80821 0.45814 0.80058 0.0
C2149 C 0.82005 0.44982 0.79103 0.0
H2150 H 0.79737 0.46246 0.82634 0.0
H2151 H 0.91147 0.38044 0.73312 0.0
H2152 H 0.09953 0.87319 0.11094 0.0
H2153 H 0.0972 0.9011 0.09679 0.0
H2154 H 0.04326 0.87596 0.07694 0.0
H2155 H 0.0461 0.84745 0.08981 0.0
H2156 H 0.0538 0.89344 0.05259 0.0
H2157 H 0.06066 0.9151 0.11795 0.0
H2158 H 0.07488 0.92038 0.14995 0.0
H2159 H 0.12115 0.95331 0.1338 0.0
H2160 H 0.10726 0.94805 0.10167 0.0
H2161 H 0.03053 0.97937 0.03454 0.0
H2162 H 0.03391 0.95088 0.04698 0.0
H2163 H 0.08917 0.97379 0.06021 0.0
H2164 H 0.08574 1.00271 0.04833 0.0
H2165 H 0.07809 0.95768 0.08757 0.0
H2166 H 0.06907 0.9362 0.02158 0.0
H2167 H 0.05303 0.93131 0.99044 0.0
H2168 H 0.00825 0.89834 0.00919 0.0
H2169 H 0.02395 0.90322 0.04049 0.0
C2170 C 0.0872 0.87358 0.10348 0.0
C2171 C 0.07302 0.85799 0.1016 0.0
C2172 C 0.08576 0.88976 0.09551 0.0
C2173 C 0.06985 0.8913 0.08608 0.0
C2174 C 0.05573 0.87552 0.08406 0.0
C2175 C 0.05735 0.85911 0.09151 0.0
C2176 C 0.06786 0.90908 0.07826 0.0
C2177 C 0.05896 0.90742 0.06047 0.0
C2178 C 0.0747 0.92768 0.08806 0.0
C2179 C 0.08298 0.93104 0.10739 0.0
C2180 C 0.0739 0.9234 0.12122 0.0
C2181 C 0.08189 0.92639 0.13938 0.0
C2182 C 0.09892 0.93713 0.14389 0.0
C2183 C 0.10797 0.94497 0.13028 0.0
C2184 C 0.10004 0.94201 0.1121 0.0
C2185 C 0.04347 0.97836 0.03993 0.0
C2186 C 0.05786 0.99348 0.0402 0.0
C2187 C 0.04542 0.96187 0.04703 0.0
C2188 C 0.06189 0.9597 0.05435 0.0
C2189 C 0.07629 0.97483 0.05466 0.0
C2190 C 0.07432 0.99144 0.04774 0.0
C2191 C 0.06406 0.94196 0.06201 0.0
C2192 C 0.07298 0.94366 0.07975 0.0
C2193 C 0.05695 0.92341 0.0523 0.0
C2194 C 0.04765 0.92019 0.0334 0.0
C2195 C 0.05578 0.92797 0.01907 0.0
C2196 C 0.04675 0.9252 1.0014 0.0
C2197 C 0.02962 0.91455 0.99785 0.0
C2198 C 0.02151 0.90659 0.01196 0.0
C2199 C 0.03048 0.90933 0.02966 0.0
H2200 H 0.02265 0.91245 0.98417 0.0
H2201 H 0.1051 0.93941 0.15795 0.0
H2202 H 0.97355 0.29913 0.87239 0.0
H2203 H 0.94573 0.3054 0.85997 0.0
H2204 H 0.91776 0.25757 0.88132 0.0
H2205 H 0.94563 0.2517 0.89448 0.0
H2206 H 0.90676 0.26113 0.84107 0.0
H2207 H 0.91523 0.29501 0.90298 0.0
H2208 H 0.93104 0.31769 0.92989 0.0
H2209 H 0.934 0.36295 0.89803 0.0
H2210 H 0.91848 0.34045 0.87079 0.0
H2211 H 0.82069 0.27827 0.82189 0.0
H2212 H 0.84693 0.27138 0.83777 0.0
H2213 H 0.87643 0.32629 0.83198 0.0
H2214 H 0.85038 0.33306 0.81599 0.0
H2215 H 0.88633 0.31859 0.86538 0.0
H2216 H 0.88013 0.28661 0.80377 0.0
H2217 H 0.86572 0.26522 0.77543 0.0
H2218 H 0.86011 0.21797 0.80487 0.0
H2219 H 0.87427 0.23916 0.83348 0.0
C2220 C 0.96151 0.28984 0.87441 0.0
C2221 C 0.96201 0.27477 0.8844 0.0
C2222 C 0.94551 0.29353 0.86733 0.0
C2223 C 0.92942 0.28201 0.86958 0.0
C2224 C 0.92987 0.26673 0.87927 0.0
C2225 C 0.94588 0.26336 0.88682 0.0
C2226 C 0.91228 0.28595 0.86179 0.0
C2227 C 0.90217 0.27352 0.84665 0.0
C2228 C 0.90634 0.30245 0.86849 0.0
C2229 C 0.91591 0.31598 0.88475 0.0
C2230 C 0.91946 0.30974 0.90162 0.0
C2231 C 0.92832 0.32259 0.91696 0.0
C2232 C 0.93358 0.34174 0.91565 0.0
C2233 C 0.92996 0.3481 0.899 0.0
C2234 C 0.92113 0.3353 0.88361 0.0
C2235 C 0.83269 0.28899 0.82424 0.0
C2236 C 0.83327 0.30628 0.81763 0.0
C2237 C 0.84783 0.28497 0.83323 0.0
C2238 C 0.86401 0.29818 0.83608 0.0
C2239 C 0.86434 0.31573 0.8301 0.0
C2240 C 0.84932 0.31961 0.8209 0.0
C2241 C 0.88064 0.29365 0.84471 0.0
C2242 C 0.89077 0.30606 0.85991 0.0
C2243 C 0.88675 0.27728 0.8379 0.0
C2244 C 0.87803 0.26451 0.82083 0.0
C2245 C 0.87565 0.27169 0.80425 0.0
C2246 C 0.86756 0.2596 0.78813 0.0
C2247 C 0.86194 0.24026 0.78836 0.0
C2248 C 0.86443 0.23297 0.80472 0.0
C2249 C 0.87248 0.24501 0.8209 0.0
H2250 H 0.85571 0.2309 0.77586 0.0
H2251 H 0.94041 0.35166 0.92755 0.0
H2252 H 0.5628 0.25836 0.57436 0.0
H2253 H 0.55857 0.22488 0.56043 0.0
H2254 H 0.56607 0.20971 0.61458 0.0
H2255 H 0.56992 0.24281 0.62849 0.0
H2256 H 0.58613 0.19407 0.58954 0.0
H2257 H 0.52692 0.19943 0.59349 0.0
H2258 H 0.50037 0.21182 0.58812 0.0
H2259 H 0.49987 0.19675 0.52958 0.0
H2260 H 0.5266 0.18454 0.53459 0.0
H2261 H 0.56348 0.09397 0.56918 0.0
H2262 H 0.56642 0.12737 0.58147 0.0
H2263 H 0.54405 0.13659 0.52881 0.0
H2264 H 0.53959 0.10266 0.51718 0.0
H2265 H 0.53192 0.15614 0.55236 0.0
H2266 H 0.59196 0.15085 0.54876 0.0
H2267 H 0.61769 0.13725 0.55504 0.0
H2268 H 0.6164 0.15188 0.61336 0.0
H2269 H 0.59057 0.16539 0.60743 0.0
C2270 C 0.56351 0.24786 0.58326 0.0
C2271 C 0.56675 0.25331 0.60255 0.0
C2272 C 0.56101 0.22872 0.5753 0.0
C2273 C 0.56197 0.2147 0.58644 0.0
C2274 C 0.56528 0.22019 0.60566 0.0
C2275 C 0.56746 0.23917 0.61361 0.0
C2276 C 0.56013 0.19439 0.57825 0.0
C2277 C 0.57424 0.18574 0.58146 0.0
C2278 C 0.54474 0.18353 0.56747 0.0
C2279 C 0.52894 0.19135 0.56441 0.0
C2280 C 0.52131 0.19902 0.57946 0.0
C2281 C 0.50618 0.20594 0.57648 0.0
C2282 C 0.49848 0.20515 0.55852 0.0
C2283 C 0.50588 0.19741 0.54349 0.0
C2284 C 0.52103 0.19049 0.54639 0.0
C2285 C 0.55946 0.10323 0.56016 0.0
C2286 C 0.55167 0.09583 0.5421 0.0
C2287 C 0.56123 0.12244 0.56717 0.0
C2288 C 0.55602 0.13498 0.556 0.0
C2289 C 0.54832 0.12747 0.53782 0.0
C2290 C 0.54592 0.10809 0.53106 0.0
C2291 C 0.55806 0.15569 0.56338 0.0
C2292 C 0.54396 0.16445 0.56013 0.0
C2293 C 0.57351 0.16672 0.57411 0.0
C2294 C 0.58929 0.15902 0.57764 0.0
C2295 C 0.59716 0.15113 0.56292 0.0
C2296 C 0.61175 0.14343 0.56642 0.0
C2297 C 0.61865 0.14368 0.58458 0.0
C2298 C 0.61104 0.1517 0.59929 0.0
C2299 C 0.59645 0.15941 0.59587 0.0
H2300 H 0.62992 0.13767 0.58726 0.0
H2301 H 0.48674 0.21047 0.55624 0.0
H2302 H 0.55965 0.75035 0.3823 0.0
H2303 H 0.58859 0.75503 0.37106 0.0
H2304 H 0.59384 0.81539 0.38261 0.0
H2305 H 0.56535 0.81081 0.39469 0.0
H2306 H 0.60005 0.79484 0.34296 0.0
H2307 H 0.61791 0.80824 0.40773 0.0
H2308 H 0.61917 0.80322 0.44017 0.0
H2309 H 0.63778 0.75243 0.42578 0.0
H2310 H 0.63625 0.75694 0.39312 0.0
H2311 H 0.68691 0.82271 0.32116 0.0
H2312 H 0.6609 0.82144 0.33734 0.0
H2313 H 0.6632 0.7654 0.34779 0.0
H2314 H 0.68923 0.76655 0.33163 0.0
H2315 H 0.65353 0.78536 0.37764 0.0
H2316 H 0.63501 0.77313 0.31185 0.0
H2317 H 0.63548 0.78088 0.28031 0.0
H2318 H 0.61939 0.83257 0.29799 0.0
H2319 H 0.61905 0.82523 0.3297 0.0
C2320 C 0.56698 0.76461 0.38244 0.0
C2321 C 0.56012 0.7802 0.38933 0.0
C2322 C 0.58358 0.76728 0.37611 0.0
C2323 C 0.59352 0.78558 0.37606 0.0
C2324 C 0.58654 0.80114 0.38261 0.0
C2325 C 0.57021 0.79849 0.38948 0.0
C2326 C 0.61084 0.7884 0.3685 0.0
C2327 C 0.61177 0.79296 0.35065 0.0
C2328 C 0.62621 0.78588 0.3784 0.0
C2329 C 0.62658 0.78271 0.39789 0.0
C2330 C 0.62191 0.79578 0.41139 0.0
C2331 C 0.62278 0.79309 0.42985 0.0
C2332 C 0.62845 0.77745 0.43502 0.0
C2333 C 0.6333 0.76449 0.42174 0.0
C2334 C 0.63241 0.7671 0.40324 0.0
C2335 C 0.68192 0.81006 0.32684 0.0
C2336 C 0.69024 0.79465 0.32479 0.0
C2337 C 0.66698 0.80936 0.33618 0.0
C2338 C 0.65972 0.79317 0.3436 0.0
C2339 C 0.66839 0.77807 0.34223 0.0
C2340 C 0.68339 0.77878 0.33295 0.0
C2341 C 0.64272 0.79159 0.35195 0.0
C2342 C 0.64182 0.78721 0.36993 0.0
C2343 C 0.62738 0.79453 0.34228 0.0
C2344 C 0.62711 0.79869 0.32314 0.0
C2345 C 0.63162 0.78617 0.30901 0.0
C2346 C 0.63187 0.7905 0.29111 0.0
C2347 C 0.62749 0.80723 0.28716 0.0
C2348 C 0.62278 0.81963 0.30108 0.0
C2349 C 0.62254 0.81538 0.319 0.0
H2350 H 0.62772 0.81057 0.2733 0.0
H2351 H 0.62918 0.77543 0.44933 0.0
H2352 H 0.10598 0.27265 0.42475 0.0
H2353 H 0.09689 0.24243 0.43608 0.0
H2354 H 0.04349 0.23962 0.41514 0.0
H2355 H 0.05253 0.26928 0.40314 0.0
H2356 H 0.05641 0.2364 0.45802 0.0
H2357 H 0.0504 0.21099 0.39313 0.0
H2358 H 0.06058 0.20777 0.36233 0.0
H2359 H 0.10423 0.18717 0.38385 0.0
H2360 H 0.09447 0.19066 0.41492 0.0
H2361 H 0.02407 0.14851 0.48577 0.0
H2362 H 0.02695 0.1735 0.46646 0.0
H2363 H 0.07896 0.1666 0.45765 0.0
H2364 H 0.07583 0.1412 0.47632 0.0
H2365 H 0.0638 0.17415 0.42723 0.0
H2366 H 0.07049 0.2009 0.49228 0.0
H2367 H 0.06086 0.20502 0.52334 0.0
H2368 H 0.01619 0.22381 0.50162 0.0
H2369 H 0.02545 0.21955 0.47038 0.0
C2370 C 0.09234 0.26548 0.4225 0.0
C2371 C 0.07995 0.27318 0.41307 0.0
C2372 C 0.08719 0.24826 0.42887 0.0
C2373 C 0.06957 0.23883 0.42624 0.0
C2374 C 0.05716 0.24664 0.41708 0.0
C2375 C 0.06235 0.26354 0.41027 0.0
C2376 C 0.06401 0.22129 0.43395 0.0
C2377 C 0.05773 0.2227 0.4512 0.0
C2378 C 0.06597 0.2036 0.42504 0.0
C2379 C 0.07186 0.20139 0.40641 0.0
C2380 C 0.0623 0.20604 0.39136 0.0
C2381 C 0.06796 0.2041 0.37384 0.0
C2382 C 0.08309 0.19735 0.37115 0.0
C2383 C 0.09254 0.19246 0.38597 0.0
C2384 C 0.08695 0.19441 0.40354 0.0
C2385 C 0.03605 0.15231 0.47959 0.0
C2386 C 0.04983 0.14318 0.48272 0.0
C2387 C 0.03769 0.16654 0.46856 0.0
C2388 C 0.05333 0.17223 0.46092 0.0
C2389 C 0.06679 0.16251 0.4634 0.0
C2390 C 0.06503 0.14806 0.47414 0.0
C2391 C 0.0563 0.18917 0.45156 0.0
C2392 C 0.06221 0.18774 0.43401 0.0
C2393 C 0.05399 0.20693 0.4602 0.0
C2394 C 0.04856 0.20973 0.479 0.0
C2395 C 0.05857 0.20582 0.49413 0.0
C2396 C 0.05318 0.20818 0.51175 0.0
C2397 C 0.03789 0.21463 0.51444 0.0
C2398 C 0.028 0.21879 0.49951 0.0
C2399 C 0.03332 0.21641 0.48185 0.0
H2400 H 0.03374 0.21644 0.52809 0.0
H2401 H 0.08745 0.19584 0.35757 0.0
H2402 H 0.54376 0.25536 0.20523 0.0
H2403 H 0.57395 0.26131 0.21954 0.0
H2404 H 0.59068 0.29565 0.17836 0.0
H2405 H 0.56072 0.28893 0.16353 0.0
H2406 H 0.61107 0.27293 0.18197 0.0
H2407 H 0.58833 0.31481 0.22473 0.0
H2408 H 0.56764 0.32359 0.24596 0.0
H2409 H 0.57986 0.28398 0.28025 0.0
H2410 H 0.60044 0.27476 0.25909 0.0
H2411 H 0.69768 0.30018 0.22568 0.0
H2412 H 0.66851 0.30397 0.21488 0.0
H2413 H 0.6458 0.26426 0.24906 0.0
H2414 H 0.67482 0.26042 0.25987 0.0
H2415 H 0.62939 0.29363 0.24902 0.0
H2416 H 0.64959 0.24974 0.2046 0.0
H2417 H 0.66981 0.24027 0.18312 0.0
H2418 H 0.66192 0.28374 0.15169 0.0
H2419 H 0.64185 0.29367 0.17319 0.0
C2420 C 0.55391 0.26426 0.19936 0.0
C2421 C 0.55005 0.27165 0.18332 0.0
C2422 C 0.5711 0.26776 0.20759 0.0
C2423 C 0.58451 0.27918 0.20017 0.0
C2424 C 0.58053 0.28682 0.1843 0.0
C2425 C 0.56345 0.28297 0.17586 0.0
C2426 C 0.60284 0.28225 0.20826 0.0
C2427 C 0.61514 0.27785 0.19657 0.0
C2428 C 0.60805 0.28831 0.22736 0.0
C2429 C 0.59585 0.29402 0.24025 0.0
C2430 C 0.58654 0.3079 0.23674 0.0
C2431 C 0.57483 0.31296 0.24877 0.0
C2432 C 0.57242 0.30433 0.26443 0.0
C2433 C 0.58174 0.29065 0.26812 0.0
C2434 C 0.59345 0.28553 0.25612 0.0
C2435 C 0.68644 0.29241 0.23098 0.0
C2436 C 0.68842 0.27987 0.24345 0.0
C2437 C 0.66986 0.29463 0.22487 0.0
C2438 C 0.65509 0.28419 0.23103 0.0
C2439 C 0.6571 0.27245 0.24421 0.0
C2440 C 0.67366 0.27028 0.25037 0.0
C2441 C 0.63744 0.2842 0.22274 0.0
C2442 C 0.62531 0.28908 0.23437 0.0
C2443 C 0.63235 0.27862 0.20357 0.0
C2444 C 0.6444 0.27261 0.19065 0.0
C2445 C 0.65229 0.25739 0.19321 0.0
C2446 C 0.6637 0.25192 0.18102 0.0
C2447 C 0.66719 0.26144 0.16609 0.0
C2448 C 0.65924 0.27641 0.16329 0.0
C2449 C 0.64785 0.28197 0.17548 0.0
H2450 H 0.67602 0.25717 0.15665 0.0
H2451 H 0.56334 0.30825 0.27372 0.0
H2452 H 0.56894 0.86333 0.93915 0.0
H2453 H 0.55937 0.89193 0.95115 0.0
H2454 H 0.59248 0.92374 0.91742 0.0
H2455 H 0.60206 0.89502 0.90512 0.0
H2456 H 0.59457 0.94072 0.95596 0.0
H2457 H 0.54817 0.92479 0.90211 0.0
H2458 H 0.52568 0.9026 0.87981 0.0
H2459 H 0.50364 0.87712 0.92413 0.0
H2460 H 0.52566 0.89976 0.94675 0.0
H2461 H 0.55987 0.02185 0.97516 0.0
H2462 H 0.56725 0.99487 0.95636 0.0
H2463 H 0.53392 0.9567 0.98483 0.0
H2464 H 0.52631 0.98383 1.00347 0.0
H2465 H 0.53216 0.94412 0.94618 0.0
H2466 H 0.57525 0.96824 0.99967 0.0
H2467 H 0.59621 0.99401 0.02012 0.0
H2468 H 0.62578 1.005 0.97487 0.0
H2469 H 0.60484 0.97943 0.95409 0.0
C2470 C 0.57434 0.87644 0.93441 0.0
C2471 C 0.5863 0.87699 0.92126 0.0
C2472 C 0.5687 0.89269 0.94112 0.0
C2473 C 0.57502 0.90977 0.93489 0.0
C2474 C 0.58738 0.91058 0.92222 0.0
C2475 C 0.5929 0.89423 0.91532 0.0
C2476 C 0.56904 0.92684 0.94225 0.0
C2477 C 0.581 0.94163 0.95361 0.0
C2478 C 0.55133 0.92787 0.93935 0.0
C2479 C 0.53862 0.9137 0.926 0.0
C2480 C 0.53859 0.91433 0.90704 0.0
C2481 C 0.5259 0.90175 0.89436 0.0
C2482 C 0.51337 0.88826 0.9005 0.0
C2483 C 0.5134 0.8875 0.91938 0.0
C2484 C 0.5259 0.90029 0.93214 0.0
C2485 C 0.55375 1.00768 0.97696 0.0
C2486 C 0.5424 1.00468 0.99042 0.0
C2487 C 0.55805 0.99234 0.96637 0.0
C2488 C 0.5512 0.97389 0.96936 0.0
C2489 C 0.53926 0.97087 0.98233 0.0
C2490 C 0.53498 0.98626 0.99295 0.0
C2491 C 0.55763 0.95789 0.96011 0.0
C2492 C 0.54576 0.94329 0.94845 0.0
C2493 C 0.57547 0.95714 0.9627 0.0
C2494 C 0.58842 0.97203 0.97531 0.0
C2495 C 0.58619 0.9762 0.99408 0.0
C2496 C 0.59806 0.99076 0.00572 0.0
C2497 C 0.61229 1.00117 0.99879 0.0
C2498 C 0.61474 0.99694 0.98022 0.0
C2499 C 0.60289 0.98239 0.96851 0.0
H2500 H 0.62144 0.01248 0.00781 0.0
H2501 H 0.50358 0.87848 0.89065 0.0
H2502 H 0.93925 0.74722 0.66024 0.0
H2503 H 0.91271 0.74728 0.67511 0.0
H2504 H 0.94364 0.77509 0.72632 0.0
H2505 H 0.97037 0.77468 0.71159 0.0
H2506 H 0.91651 0.74836 0.73234 0.0
H2507 H 0.92569 0.80047 0.69921 0.0
H2508 H 0.93138 0.81679 0.67249 0.0
H2509 H 0.88343 0.78362 0.64251 0.0
H2510 H 0.87759 0.76685 0.66896 0.0
H2511 H 0.84915 0.79448 0.76693 0.0
H2512 H 0.87567 0.79136 0.75264 0.0
H2513 H 0.84732 0.7405 0.71728 0.0
H2514 H 0.82087 0.74315 0.73179 0.0
H2515 H 0.87278 0.77932 0.70368 0.0
H2516 H 0.86765 0.72434 0.73852 0.0
H2517 H 0.85915 0.7156 0.7682 0.0
H2518 H 0.89959 0.76114 0.79747 0.0
H2519 H 0.90808 0.77032 0.76792 0.0
C2520 C 0.9404 0.75327 0.67469 0.0
C2521 C 0.95679 0.76116 0.68475 0.0
C2522 C 0.92526 0.75329 0.68314 0.0
C2523 C 0.92628 0.76144 0.70169 0.0
C2524 C 0.94265 0.76877 0.71196 0.0
C2525 C 0.95785 0.76862 0.70353 0.0
C2526 C 0.91021 0.76309 0.71003 0.0
C2527 C 0.907 0.75511 0.72602 0.0
C2528 C 0.89788 0.77213 0.70193 0.0
C2529 C 0.9013 0.78225 0.686 0.0
C2530 C 0.91643 0.79653 0.68686 0.0
C2531 C 0.91967 0.80588 0.67177 0.0
C2532 C 0.9078 0.8012 0.65579 0.0
C2533 C 0.89263 0.7872 0.65489 0.0
C2534 C 0.88935 0.77777 0.66993 0.0
C2535 C 0.84867 0.78252 0.75627 0.0
C2536 C 0.8331 0.76899 0.7505 0.0
C2537 C 0.8637 0.78087 0.74806 0.0
C2538 C 0.86317 0.76588 0.73385 0.0
C2539 C 0.84775 0.75222 0.72818 0.0
C2540 C 0.8328 0.75363 0.73663 0.0
C2541 C 0.87905 0.76411 0.72541 0.0
C2542 C 0.88225 0.77227 0.70962 0.0
C2543 C 0.89145 0.75554 0.73376 0.0
C2544 C 0.88849 0.74798 0.7511 0.0
C2545 C 0.87488 0.73229 0.7513 0.0
C2546 C 0.86997 0.72736 0.76808 0.0
C2547 C 0.87873 0.73795 0.7847 0.0
C2548 C 0.89279 0.75303 0.78458 0.0
C2549 C 0.89768 0.75807 0.76783 0.0
H2550 H 0.87455 0.73466 0.79769 0.0
H2551 H 0.91033 0.80847 0.64412 0.0
H2552 H 0.1144 0.01137 0.81972 0.0
H2553 H 0.10054 0.01397 0.84841 0.0
H2554 H 0.15056 0.03952 0.87914 0.0
H2555 H 0.16441 0.03676 0.85041 0.0
H2556 H 0.13456 0.01984 0.90173 0.0
H2557 H 0.11285 0.06351 0.86783 0.0
H2558 H 0.09797 0.07421 0.84175 0.0
H2559 H 0.05084 0.03404 0.84535 0.0
H2560 H 0.06551 0.02293 0.87131 0.0
H2561 H 0.09592 0.04768 0.9869 0.0
H2562 H 0.11177 0.04643 0.95916 0.0
H2563 H 0.06336 0.02157 0.92501 0.0
H2564 H 0.04783 0.02284 0.95216 0.0
H2565 H 0.07936 0.04202 0.90462 0.0
H2566 H 0.10016 0.9975 0.93719 0.0
H2567 H 0.11395 0.98627 0.96358 0.0
H2568 H 0.16153 0.02678 0.96251 0.0
H2569 H 0.14793 0.03842 0.93623 0.0
C2570 C 0.12262 0.01761 0.83249 0.0
C2571 C 0.14089 0.02382 0.83198 0.0
C2572 C 0.1145 0.01929 0.8493 0.0
C2573 C 0.12401 0.02735 0.86691 0.0
C2574 C 0.14232 0.03326 0.86639 0.0
C2575 C 0.15042 0.03169 0.84956 0.0
C2576 C 0.11514 0.02951 0.88548 0.0
C2577 C 0.12261 0.02499 0.90215 0.0
C2578 C 0.09912 0.03578 0.88712 0.0
C2579 C 0.09035 0.04224 0.87137 0.0
C2580 C 0.09936 0.05684 0.86295 0.0
C2581 C 0.09096 0.063 0.84821 0.0
C2582 C 0.07349 0.05476 0.84186 0.0
C2583 C 0.06438 0.04037 0.85026 0.0
C2584 C 0.07273 0.03414 0.86499 0.0
C2585 C 0.08855 0.04192 0.97355 0.0
C2586 C 0.07016 0.03534 0.97252 0.0
C2587 C 0.09778 0.04105 0.95731 0.0
C2588 C 0.08923 0.03365 0.93903 0.0
C2589 C 0.07091 0.02743 0.93824 0.0
C2590 C 0.06183 0.02813 0.95426 0.0
C2591 C 0.09871 0.03228 0.92084 0.0
C2592 C 0.09134 0.03691 0.90422 0.0
C2593 C 0.11469 0.02596 0.91922 0.0
C2594 C 0.12297 0.01897 0.93489 0.0
C2595 C 0.11353 1.00409 0.94266 0.0
C2596 C 0.12131 0.99765 0.95759 0.0
C2597 C 0.13859 1.00585 0.96476 0.0
C2598 C 0.14813 0.02047 0.95697 0.0
C2599 C 0.1404 0.027 0.94205 0.0
H2600 H 0.14459 1.00085 0.97633 0.0
H2601 H 0.067 0.05957 0.83046 0.0
H2602 H 0.79554 0.42438 0.57549 0.0
H2603 H 0.80624 0.41732 0.60529 0.0
H2604 H 0.82233 0.36879 0.57752 0.0
H2605 H 0.81137 0.37559 0.54768 0.0
H2606 H 0.804 0.36037 0.60484 0.0
H2607 H 0.85182 0.41038 0.59698 0.0
H2608 H 0.86626 0.44239 0.59247 0.0
H2609 H 0.84886 0.46623 0.64233 0.0
H2610 H 0.83404 0.43441 0.64697 0.0
H2611 H 0.84257 0.33187 0.67876 0.0
H2612 H 0.84332 0.34672 0.65127 0.0
H2613 H 0.82676 0.3943 0.68019 0.0
H2614 H 0.82717 0.38015 0.70837 0.0
H2615 H 0.84649 0.40466 0.65277 0.0
H2616 H 0.7963 0.35732 0.65909 0.0
H2617 H 0.78003 0.32627 0.66426 0.0
H2618 H 0.79975 0.29893 0.61764 0.0
H2619 H 0.81633 0.32981 0.61236 0.0
C2620 C 0.80118 0.41208 0.57577 0.0
C2621 C 0.80245 0.40037 0.55932 0.0
C2622 C 0.80754 0.40826 0.59277 0.0
C2623 C 0.8154 0.39278 0.59355 0.0
C2624 C 0.81642 0.38091 0.57715 0.0
C2625 C 0.80998 0.38465 0.56016 0.0
C2626 C 0.82115 0.38789 0.61151 0.0
C2627 C 0.81357 0.36995 0.61514 0.0
C2628 C 0.83304 0.40077 0.62526 0.0
C2629 C 0.84164 0.41998 0.62222 0.0
C2630 C 0.85088 0.42245 0.60687 0.0
C2631 C 0.85918 0.44057 0.60431 0.0
C2632 C 0.85844 0.45633 0.61708 0.0
C2633 C 0.8494 0.45401 0.63243 0.0
C2634 C 0.84105 0.43594 0.63503 0.0
C2635 C 0.83989 0.34589 0.67968 0.0
C2636 C 0.83431 0.35455 0.6957 0.0
C2637 C 0.84017 0.35429 0.66382 0.0
C2638 C 0.8345 0.37124 0.66357 0.0
C2639 C 0.83092 0.38104 0.68005 0.0
C2640 C 0.83096 0.3728 0.69607 0.0
C2641 C 0.82965 0.37699 0.64573 0.0
C2642 C 0.83714 0.39509 0.64227 0.0
C2643 C 0.81742 0.36444 0.63212 0.0
C2644 C 0.80772 0.34583 0.63548 0.0
C2645 C 0.79731 0.34466 0.65007 0.0
C2646 C 0.788 0.3271 0.65299 0.0
C2647 C 0.7889 0.31063 0.64132 0.0
C2648 C 0.7991 0.31169 0.62669 0.0
C2649 C 0.80845 0.32921 0.62373 0.0
H2650 H 0.78165 0.29705 0.64358 0.0
H2651 H 0.86492 0.47033 0.61511 0.0
H2652 H 0.42814 0.03289 0.35644 0.0
H2653 H 0.44128 0.02574 0.38515 0.0
H2654 H 0.49259 0.04331 0.36856 0.0
H2655 H 0.47955 0.05035 0.3397 0.0
H2656 H 0.48788 0.00931 0.38406 0.0
H2657 H 0.47683 0.07325 0.39649 0.0
H2658 H 0.45753 0.09597 0.39719 0.0
H2659 H 0.42623 0.06535 0.43283 0.0
H2660 H 0.4452 0.04225 0.43207 0.0
H2661 H 0.54829 0.04518 0.46433 0.0
H2662 H 0.52898 0.04148 0.43547 0.0
H2663 H 0.48512 0.01638 0.46186 0.0
H2664 H 0.50434 0.01914 0.49027 0.0
H2665 H 0.4816 0.04878 0.44262 0.0
H2666 H 0.49326 0.9879 0.43484 0.0
H2667 H 0.51116 0.96394 0.43532 0.0
H2668 H 0.5387 0.98576 0.39228 0.0
H2669 H 0.5212 0.01017 0.39181 0.0
C2670 C 0.44223 0.03535 0.35897 0.0
C2671 C 0.45288 0.04246 0.34601 0.0
C2672 C 0.44967 0.03112 0.37527 0.0
C2673 C 0.46785 0.03403 0.37886 0.0
C2674 C 0.47851 0.04091 0.36589 0.0
C2675 C 0.47108 0.04516 0.34958 0.0
C2676 C 0.47592 0.03117 0.39669 0.0
C2677 C 0.4866 0.01797 0.39687 0.0
C2678 C 0.47354 0.0419 0.41342 0.0
C2679 C 0.4623 0.05592 0.41406 0.0
C2680 C 0.46576 0.07129 0.40436 0.0
C2681 C 0.45489 0.08424 0.40477 0.0
C2682 C 0.44063 0.08207 0.415 0.0
C2683 C 0.43725 0.06698 0.42488 0.0
C2684 C 0.44805 0.05396 0.42446 0.0
C2685 C 0.53456 0.03882 0.46389 0.0
C2686 C 0.52771 0.03278 0.47954 0.0
C2687 C 0.5236 0.03665 0.44748 0.0
C2688 C 0.50574 0.02868 0.44674 0.0
C2689 C 0.4989 0.0226 0.46232 0.0
C2690 C 0.50988 0.02435 0.47853 0.0
C2691 C 0.4941 0.02753 0.42984 0.0
C2692 C 0.48268 0.0399 0.42986 0.0
C2693 C 0.49554 0.01577 0.41342 0.0
C2694 C 0.50604 1.00104 0.41344 0.0
C2695 C 0.50327 0.98775 0.42561 0.0
C2696 C 0.51331 0.97405 0.42586 0.0
C2697 C 0.5261 0.97336 0.41387 0.0
C2698 C 0.52881 0.98634 0.40158 0.0
C2699 C 0.51882 1.00011 0.40131 0.0
H2700 H 0.53387 0.96274 0.41408 0.0
H2701 H 0.43224 0.09212 0.41531 0.0
H2702 H 0.75493 0.70986 0.06227 0.0
H2703 H 0.75786 0.72293 0.09508 0.0
H2704 H 0.8126 0.74572 0.09373 0.0
H2705 H 0.80968 0.73275 0.06068 0.0
H2706 H 0.80639 0.72759 0.1245 0.0
H2707 H 0.78631 0.77547 0.09677 0.0
H2708 H 0.7674 0.78836 0.0758 0.0
H2709 H 0.72304 0.76708 0.10297 0.0
H2710 H 0.74168 0.75385 0.12396 0.0
H2711 H 0.81904 0.78281 0.21366 0.0
H2712 H 0.81745 0.77229 0.18063 0.0
H2713 H 0.76147 0.75471 0.17754 0.0
H2714 H 0.76294 0.76584 0.21081 0.0
H2715 H 0.76943 0.77072 0.14871 0.0
H2716 H 0.79078 0.72273 0.17691 0.0
H2717 H 0.81072 0.71093 0.19778 0.0
H2718 H 0.85399 0.73353 0.16974 0.0
H2719 H 0.83434 0.74565 0.14882 0.0
C2720 C 0.76756 0.71786 0.06885 0.0
C2721 C 0.78202 0.7204 0.0587 0.0
C2722 C 0.76924 0.72531 0.08769 0.0
C2723 C 0.78544 0.73541 0.09702 0.0
C2724 C 0.79994 0.738 0.08694 0.0
C2725 C 0.79822 0.73072 0.06797 0.0
C2726 C 0.78707 0.74316 0.11724 0.0
C2727 C 0.79848 0.73722 0.12977 0.0
C2728 C 0.77661 0.75551 0.1243 0.0
C2729 C 0.76535 0.76352 0.11182 0.0
C2730 C 0.7725 0.77342 0.09818 0.0
C2731 C 0.76184 0.78081 0.08631 0.0
C2732 C 0.74402 0.7785 0.08802 0.0
C2733 C 0.73684 0.76884 0.10165 0.0
C2734 C 0.74745 0.76141 0.11355 0.0
C2735 C 0.80632 0.77674 0.20604 0.0
C2736 C 0.7911 0.77512 0.21509 0.0
C2737 C 0.80545 0.77056 0.18703 0.0
C2738 C 0.78938 0.7622 0.17643 0.0
C2739 C 0.77408 0.76097 0.18531 0.0
C2740 C 0.77492 0.76737 0.20439 0.0
C2741 C 0.78858 0.75498 0.15613 0.0
C2742 C 0.77733 0.76104 0.14353 0.0
C2743 C 0.79931 0.74283 0.14904 0.0
C2744 C 0.81109 0.73524 0.16139 0.0
C2745 C 0.80456 0.72526 0.17525 0.0
C2746 C 0.81581 0.71851 0.18708 0.0
C2747 C 0.83362 0.72152 0.18512 0.0
C2748 C 0.8402 0.73122 0.17125 0.0
C2749 C 0.829 0.73801 0.15939 0.0
H2750 H 0.84231 0.71631 0.19431 0.0
H2751 H 0.73578 0.78423 0.07881 0.0
H2752 H 0.11802 0.03335 0.73383 0.0
H2753 H 0.1039 0.03566 0.70358 0.0
H2754 H 0.14085 1.00807 0.67714 0.0
H2755 H 0.15562 1.00697 0.70754 0.0
H2756 H 0.13527 0.02746 0.65475 0.0
H2757 H 0.09004 0.98912 0.67953 0.0
H2758 H 0.0691 0.97862 0.70107 0.0
H2759 H 0.04673 0.02706 0.69742 0.0
H2760 H 0.06768 0.03798 0.67601 0.0
H2761 H 0.08023 1.00556 0.56552 0.0
H2762 H 0.09434 1.00355 0.59606 0.0
H2763 H 0.07553 0.05164 0.61991 0.0
H2764 H 0.06192 0.05414 0.58919 0.0
H2765 H 0.07139 0.02127 0.64267 0.0
H2766 H 0.11814 0.05629 0.61415 0.0
H2767 H 0.13746 0.06084 0.5897 0.0
H2768 H 0.15517 0.01043 0.59776 0.0
H2769 H 0.13576 1.00542 0.62208 0.0
C2770 C 0.12318 0.02764 0.72164 0.0
C2771 C 0.13818 0.01983 0.72376 0.0
C2772 C 0.11482 0.02878 0.7039 0.0
C2773 C 0.12055 0.02165 0.68701 0.0
C2774 C 0.13561 0.01384 0.68924 0.0
C2775 C 0.14418 0.01307 0.70699 0.0
C2776 C 0.11136 0.02268 0.66743 0.0
C2777 C 0.12124 0.0258 0.6524 0.0
C2778 C 0.09288 0.02068 0.66313 0.0
C2779 C 0.08059 0.0145 0.67637 0.0
C2780 C 0.08077 0.99764 0.68347 0.0
C2781 C 0.06888 0.99159 0.69562 0.0
C2782 C 0.05664 1.00221 0.70067 0.0
C2783 C 0.05626 0.01889 0.69355 0.0
C2784 C 0.06813 0.02501 0.6814 0.0
C2785 C 0.07902 0.01583 0.57717 0.0
C2786 C 0.06965 0.03007 0.57427 0.0
C2787 C 0.08727 0.01467 0.59492 0.0
C2788 C 0.08635 0.0274 0.61101 0.0
C2789 C 0.07673 0.04144 0.6082 0.0
C2790 C 0.06885 0.04291 0.59034 0.0
C2791 C 0.09535 0.02614 0.63041 0.0
C2792 C 0.08542 0.02296 0.64528 0.0
C2793 C 0.11364 0.0273 0.63435 0.0
C2794 C 0.12538 0.03039 0.61983 0.0
C2795 C 0.12605 0.04609 0.61061 0.0
C2796 C 0.13704 0.04877 0.59679 0.0
C2797 C 0.14751 0.03591 0.59215 0.0
C2798 C 0.14704 0.02037 0.60135 0.0
C2799 C 0.13606 0.01761 0.61517 0.0
H2800 H 0.156 0.03801 0.58145 0.0
H2801 H 0.04742 0.99748 0.71005 0.0
H2802 H 0.81909 0.41918 0.45073 0.0
H2803 H 0.82442 0.4026 0.4213 0.0
H2804 H 0.78562 0.35375 0.42784 0.0
H2805 H 0.78063 0.37006 0.45758 0.0
H2806 H 0.81535 0.34418 0.41796 0.0
H2807 H 0.77841 0.38658 0.39812 0.0
H2808 H 0.77262 0.41834 0.39685 0.0
H2809 H 0.82057 0.43454 0.37352 0.0
H2810 H 0.82672 0.40296 0.37484 0.0
H2811 H 0.79278 0.28755 0.33155 0.0
H2812 H 0.79561 0.30738 0.36151 0.0
H2813 H 0.82721 0.3536 0.34056 0.0
H2814 H 0.82281 0.33433 0.31012 0.0
H2815 H 0.80671 0.36737 0.35841 0.0
H2816 H 0.84377 0.32736 0.37402 0.0
H2817 H 0.85314 0.29731 0.3752 0.0
H2818 H 0.81144 0.27907 0.40705 0.0
H2819 H 0.80165 0.30889 0.40585 0.0
C2820 C 0.81154 0.40498 0.44578 0.0
C2821 C 0.79937 0.39591 0.45638 0.0
C2822 C 0.81462 0.39554 0.42897 0.0
C2823 C 0.80533 0.377 0.42232 0.0
C2824 C 0.79296 0.36805 0.43275 0.0
C2825 C 0.79003 0.3774 0.44966 0.0
C2826 C 0.80862 0.36662 0.40468 0.0
C2827 C 0.81333 0.34913 0.40488 0.0
C2828 C 0.80705 0.37365 0.38781 0.0
C2829 C 0.80309 0.39247 0.38672 0.0
C2830 C 0.78774 0.39695 0.3928 0.0
C2831 C 0.7844 0.41492 0.39206 0.0
C2832 C 0.79624 0.42847 0.38515 0.0
C2833 C 0.81142 0.42405 0.37888 0.0
C2834 C 0.81483 0.40612 0.3796 0.0
C2835 C 0.80059 0.30183 0.33344 0.0
C2836 C 0.80782 0.30931 0.31856 0.0
C2837 C 0.80233 0.31317 0.35064 0.0
C2838 C 0.81197 0.33196 0.35353 0.0
C2839 C 0.81975 0.33917 0.33878 0.0
C2840 C 0.81745 0.32805 0.3214 0.0
C2841 C 0.81276 0.3444 0.37148 0.0
C2842 C 0.80897 0.36238 0.37142 0.0
C2843 C 0.81582 0.33812 0.38857 0.0
C2844 C 0.82193 0.32035 0.38977 0.0
C2845 C 0.83656 0.31692 0.38123 0.0
C2846 C 0.84194 0.29992 0.38189 0.0
C2847 C 0.83288 0.28628 0.39117 0.0
C2848 C 0.81845 0.28965 0.39988 0.0
C2849 C 0.813 0.30662 0.39924 0.0
H2850 H 0.83704 0.27311 0.39163 0.0
H2851 H 0.79364 0.44237 0.38462 0.0
H2852 H 0.47383 0.03655 0.25248 0.0
H2853 H 0.48122 0.02447 0.22213 0.0
H2854 H 0.42792 0.01851 0.19874 0.0
H2855 H 0.42038 0.03043 0.22895 0.0
H2856 H 0.443 0.98851 0.18404 0.0
H2857 H 0.45263 0.05519 0.19257 0.0
H2858 H 0.46264 0.08734 0.21024 0.0
H2859 H 0.51569 0.08064 0.21293 0.0
H2860 H 0.50592 0.04827 0.1955 0.0
H2861 H 0.46873 0.01746 0.09593 0.0
H2862 H 0.45451 0.00978 0.12298 0.0
H2863 H 0.50222 0.99859 0.14756 0.0
H2864 H 0.51647 1.0059 0.12038 0.0
H2865 H 0.48791 0.03484 0.16088 0.0
H2866 H 0.47381 0.96601 0.14633 0.0
H2867 H 0.45946 0.93591 0.12654 0.0
H2868 H 0.4094 0.9498 0.13119 0.0
H2869 H 0.42348 0.98013 0.15078 0.0
C2870 C 0.46374 0.03274 0.24085 0.0
C2871 C 0.44667 0.03479 0.24293 0.0
C2872 C 0.46789 0.02562 0.22365 0.0
C2873 C 0.45505 0.02059 0.20834 0.0
C2874 C 0.4379 0.02214 0.21048 0.0
C2875 C 0.43374 0.02926 0.22766 0.0
C2876 C 0.46013 0.01617 0.18978 0.0
C2877 C 0.45279 0.99857 0.17888 0.0
C2878 C 0.47246 0.02959 0.183 0.0
C2879 C 0.47855 0.04928 0.19288 0.0
C2880 C 0.46643 0.06055 0.197 0.0
C2881 C 0.47205 0.0788 0.20698 0.0
C2882 C 0.48979 0.08601 0.21274 0.0
C2883 C 0.50195 0.07502 0.20846 0.0
C2884 C 0.49638 0.05672 0.19852 0.0
C2885 C 0.47592 0.01248 0.10671 0.0
C2886 C 0.49374 0.01248 0.10627 0.0
C2887 C 0.46775 1.00797 0.12206 0.0
C2888 C 0.47739 1.00366 0.13712 0.0
C2889 C 0.4946 1.00168 0.13587 0.0
C2890 C 0.50272 1.00591 0.1204 0.0
C2891 C 0.47148 1.0068 0.1554 0.0
C2892 C 0.47839 0.02454 0.16613 0.0
C2893 C 0.45821 0.99379 0.16148 0.0
C2894 C 0.44973 0.97544 0.14989 0.0
C2895 C 0.45976 0.96274 0.14299 0.0
C2896 C 0.45167 0.94561 0.13184 0.0
C2897 C 0.43353 0.94097 0.12757 0.0
C2898 C 0.42345 0.95342 0.13449 0.0
C2899 C 0.43148 0.97057 0.14565 0.0
H2900 H 0.4273 0.9277 0.11892 0.0
H2901 H 0.49412 0.10014 0.2205 0.0
H2902 H 0.76112 0.72506 0.958 0.0
H2903 H 0.76203 0.73588 0.92781 0.0
H2904 H 0.80801 0.71382 0.9196 0.0
H2905 H 0.80685 0.70245 0.94943 0.0
H2906 H 0.80911 0.75273 0.91045 0.0
H2907 H 0.7732 0.68913 0.89752 0.0
H2908 H 0.7483 0.66417 0.90175 0.0
H2909 H 0.71268 0.6984 0.88676 0.0
H2910 H 0.73741 0.72368 0.8827 0.0
H2911 H 0.81679 0.75924 0.8166 0.0
H2912 H 0.81487 0.74856 0.84652 0.0
H2913 H 0.76021 0.75009 0.84275 0.0
H2914 H 0.76198 0.75971 0.81213 0.0
H2915 H 0.76278 0.7228 0.85906 0.0
H2916 H 0.79592 0.78593 0.8713 0.0
H2917 H 0.81925 0.81322 0.86862 0.0
H2918 H 0.85802 0.784 0.88683 0.0
H2919 H 0.83493 0.75642 0.88939 0.0
C2920 C 0.7715 0.72259 0.94983 0.0
C2921 C 0.78391 0.71283 0.95628 0.0
C2922 C 0.77197 0.72877 0.93249 0.0
C2923 C 0.78509 0.72571 0.92123 0.0
C2924 C 0.79777 0.71644 0.92789 0.0
C2925 C 0.79706 0.70989 0.94502 0.0
C2926 C 0.78536 0.73169 0.90239 0.0
C2927 C 0.79909 0.74603 0.89915 0.0
C2928 C 0.772 0.72358 0.88768 0.0
C2929 C 0.75715 0.70836 0.89001 0.0
C2930 C 0.76007 0.6914 0.89529 0.0
C2931 C 0.74599 0.67718 0.89762 0.0
C2932 C 0.72892 0.67972 0.89458 0.0
C2933 C 0.7259 0.69646 0.88914 0.0
C2934 C 0.73995 0.71073 0.88681 0.0
C2935 C 0.80429 0.75704 0.82202 0.0
C2936 C 0.78955 0.76029 0.81184 0.0
C2937 C 0.80323 0.75117 0.83939 0.0
C2938 C 0.7875 0.74896 0.84756 0.0
C2939 C 0.77259 0.75169 0.83709 0.0
C2940 C 0.77358 0.75717 0.81946 0.0
C2941 C 0.7867 0.74384 0.86686 0.0
C2942 C 0.77285 0.72965 0.87026 0.0
C2943 C 0.79974 0.75248 0.88188 0.0
C2944 C 0.81369 0.76903 0.88037 0.0
C2945 C 0.80943 0.78527 0.87461 0.0
C2946 C 0.82261 0.8008 0.87313 0.0
C2947 C 0.84011 0.80032 0.8775 0.0
C2948 C 0.84446 0.78433 0.88342 0.0
C2949 C 0.83133 0.76875 0.88491 0.0
H2950 H 0.85029 0.81236 0.87635 0.0
H2951 H 0.71803 0.6687 0.89639 0.0
H2952 H 0.82106 0.10463 0.03355 0.0
H2953 H 0.84741 0.09262 0.02862 0.0
H2954 H 0.87288 0.14665 0.01595 0.0
H2955 H 0.84656 0.15871 0.02069 0.0
H2956 H 0.87741 0.11728 0.99108 0.0
H2957 H 0.88413 0.13543 0.05621 0.0
H2958 H 0.87515 0.13722 0.08758 0.0
H2959 H 0.86849 0.07703 0.08395 0.0
H2960 H 0.87714 0.07483 0.05242 0.0
H2961 H 0.96212 0.09043 1.00141 0.0
H2962 H 0.93853 0.10776 1.00409 0.0
H2963 H 0.90281 0.05635 0.00999 0.0
H2964 H 0.92617 0.03901 0.00732 0.0
H2965 H 0.90606 0.08844 0.03896 0.0
H2966 H 0.89801 0.07101 0.9724 0.0
H2967 H 0.90636 0.07018 0.94082 0.0
H2968 H 0.91625 0.1308 0.94757 0.0
H2969 H 0.90827 0.13202 0.97934 0.0
C2970 C 0.83232 0.11396 0.02985 0.0
C2971 C 0.83184 0.13259 0.02757 0.0
C2972 C 0.84733 0.10712 0.02705 0.0
C2973 C 0.86206 0.11885 0.02205 0.0
C2974 C 0.86161 0.13744 0.01979 0.0
C2975 C 0.84662 0.1443 0.0226 0.0
C2976 C 0.87787 0.11154 0.01904 0.0
C2977 C 0.88391 0.11126 1.00163 0.0
C2978 C 0.88619 0.10369 0.03283 0.0
C2979 C 0.88116 0.10495 0.05188 0.0
C2980 C 0.88063 0.12255 0.06205 0.0
C2981 C 0.87561 0.12364 0.07986 0.0
C2982 C 0.87122 0.10724 0.08774 0.0
C2983 C 0.87188 0.08972 0.07782 0.0
C2984 C 0.87685 0.08854 0.05998 0.0
C2985 C 0.94917 0.08285 1.00313 0.0
C2986 C 0.9459 0.06341 1.00422 0.0
C2987 C 0.93576 0.0927 1.00452 0.0
C2988 C 0.91904 0.08323 0.0072 0.0
C2989 C 0.91568 0.06379 0.00787 0.0
C2990 C 0.92898 0.05392 0.00627 0.0
C2991 C 0.90527 0.09367 0.01085 0.0
C2992 C 0.89969 0.09466 0.02848 0.0
C2993 C 0.89755 0.10234 0.99731 0.0
C2994 C 0.90284 0.10161 0.97839 0.0
C2995 C 0.90225 0.08418 0.96728 0.0
C2996 C 0.90684 0.08364 0.9493 0.0
C2997 C 0.91191 0.10043 0.94222 0.0
C2998 C 0.91239 0.11781 0.95309 0.0
C2999 C 0.90784 0.11843 0.97109 0.0
H3000 H 0.91541 0.09998 0.92828 0.0
H3001 H 0.86734 0.10811 0.10153 0.0
H3002 H 0.37272 0.4022 0.04071 0.0
H3003 H 0.40213 0.41827 0.03606 0.0
H3004 H 0.38458 0.47028 0.03508 0.0
H3005 H 0.35505 0.45416 0.03957 0.0
H3006 H 0.40517 0.46581 0.00821 0.0
H3007 H 0.41012 0.46071 0.07318 0.0
H3008 H 0.40829 0.44385 0.09998 0.0
H3009 H 0.44449 0.41157 0.07945 0.0
H3010 H 0.44631 0.428 0.05236 0.0
H3011 H 0.4841 0.53494 0.02729 0.0
H3012 H 0.4559 0.51383 0.02762 0.0
H3013 H 0.48043 0.46605 0.02358 0.0
H3014 H 0.50899 0.48741 0.0228 0.0
H3015 H 0.45729 0.46528 0.05073 0.0
H3016 H 0.45465 0.47022 0.98768 0.0
H3017 H 0.45718 0.48528 0.9598 0.0
H3018 H 0.41755 0.51528 0.97469 0.0
H3019 H 0.41497 0.50064 1.00286 0.0
C3020 C 0.37511 0.41711 0.0397 0.0
C3021 C 0.36138 0.42684 0.04076 0.0
C3022 C 0.39205 0.42636 0.03703 0.0
C3023 C 0.39593 0.44571 0.03538 0.0
C3024 C 0.38218 0.45542 0.03632 0.0
C3025 C 0.36522 0.44617 0.03904 0.0
C3026 C 0.41416 0.45579 0.03263 0.0
C3027 C 0.41649 0.46585 0.01769 0.0
C3028 C 0.42931 0.45532 0.04438 0.0
C3029 C 0.42817 0.44542 0.06063 0.0
C3030 C 0.41756 0.44989 0.07429 0.0
C3031 C 0.41654 0.44042 0.08955 0.0
C3032 C 0.42621 0.42659 0.09138 0.0
C3033 C 0.43696 0.42223 0.07798 0.0
C3034 C 0.43799 0.43161 0.06268 0.0
C3035 C 0.48357 0.51991 0.02632 0.0
C3036 C 0.49893 0.51295 0.02502 0.0
C3037 C 0.46732 0.50778 0.02645 0.0
C3038 C 0.46578 0.48819 0.02556 0.0
C3039 C 0.48112 0.48107 0.02426 0.0
C3040 C 0.49748 0.49328 0.02374 0.0
C3041 C 0.44819 0.47562 0.0266 0.0
C3042 C 0.44598 0.46513 0.04119 0.0
C3043 C 0.4332 0.47543 0.01437 0.0
C3044 C 0.43475 0.48447 0.99753 0.0
C3045 C 0.4466 0.48019 0.98514 0.0
C3046 C 0.44802 0.48862 0.96925 0.0
C3047 C 0.43757 0.50127 0.9655 0.0
C3048 C 0.42566 0.5055 0.97763 0.0
C3049 C 0.4242 0.49712 0.99356 0.0
H3050 H 0.43867 0.50777 0.95318 0.0
H3051 H 0.42542 0.4193 0.10321 0.0
H3052 H 0.42192 0.63143 0.75541 0.0
H3053 H 0.40847 0.6588 0.75546 0.0
H3054 H 0.36356 0.62854 0.77659 0.0
H3055 H 0.37667 0.60069 0.77526 0.0
H3056 H 0.34945 0.6486 0.7607 0.0
H3057 H 0.40371 0.67629 0.80016 0.0
H3058 H 0.43568 0.6853 0.80832 0.0
H3059 H 0.44087 0.71397 0.7613 0.0
H3060 H 0.40894 0.70513 0.75289 0.0
H3061 H 0.31035 0.72971 0.77993 0.0
H3062 H 0.32518 0.7036 0.78062 0.0
H3063 H 0.36843 0.73469 0.75766 0.0
H3064 H 0.35394 0.76168 0.75842 0.0
H3065 H 0.38365 0.71455 0.77398 0.0
H3066 H 0.32921 0.68734 0.73507 0.0
H3067 H 0.29714 0.67924 0.72774 0.0
H3068 H 0.29237 0.64966 0.77419 0.0
H3069 H 0.32439 0.65772 0.78186 0.0
C3070 C 0.40917 0.63041 0.76017 0.0
C3071 C 0.40082 0.61304 0.76538 0.0
C3072 C 0.40131 0.64666 0.76049 0.0
C3073 C 0.38461 0.64719 0.76662 0.0
C3074 C 0.37627 0.62969 0.77175 0.0
C3075 C 0.384 0.6133 0.77106 0.0
C3076 C 0.37571 0.66515 0.76724 0.0
C3077 C 0.35725 0.66289 0.76394 0.0
C3078 C 0.38486 0.68471 0.77086 0.0
C3079 C 0.404 0.68986 0.77579 0.0
C3080 C 0.4117 0.68442 0.79152 0.0
C3081 C 0.4298 0.68953 0.7962 0.0
C3082 C 0.4403 0.70012 0.78528 0.0
C3083 C 0.43273 0.70568 0.76969 0.0
C3084 C 0.41463 0.70068 0.76499 0.0
C3085 C 0.32304 0.73126 0.77495 0.0
C3086 C 0.33043 0.74857 0.76903 0.0
C3087 C 0.33168 0.71569 0.77502 0.0
C3088 C 0.34822 0.71565 0.76839 0.0
C3089 C 0.35581 0.73319 0.76276 0.0
C3090 C 0.34731 0.74905 0.76317 0.0
C3091 C 0.35741 0.69791 0.76758 0.0
C3092 C 0.37589 0.70023 0.7708 0.0
C3093 C 0.3483 0.67837 0.7639 0.0
C3094 C 0.32914 0.67325 0.7591 0.0
C3095 C 0.3213 0.67913 0.74371 0.0
C3096 C 0.30314 0.67456 0.73951 0.0
C3097 C 0.29273 0.66398 0.75051 0.0
C3098 C 0.30045 0.65787 0.76569 0.0
C3099 C 0.31859 0.66241 0.76996 0.0
H3100 H 0.27868 0.66049 0.74726 0.0
H3101 H 0.4543 0.70409 0.78895 0.0
H3102 H 0.23402 0.59841 0.51447 0.0
H3103 H 0.20223 0.5877 0.50706 0.0
H3104 H 0.19573 0.64373 0.52773 0.0
H3105 H 0.22719 0.65444 0.5352 0.0
H3106 H 0.17485 0.6159 0.54189 0.0
H3107 H 0.19089 0.62991 0.48316 0.0
H3108 H 0.20542 0.62816 0.45477 0.0
H3109 H 0.18206 0.56892 0.44085 0.0
H3110 H 0.16764 0.57023 0.46933 0.0
H3111 H 0.08535 0.60433 0.5169 0.0
H3112 H 0.1169 0.61634 0.51912 0.0
H3113 H 0.12231 0.56327 0.48868 0.0
H3114 H 0.09056 0.55202 0.48508 0.0
H3115 H 0.14416 0.58933 0.47943 0.0
H3116 H 0.12909 0.57553 0.53926 0.0
H3117 H 0.11366 0.57815 0.56703 0.0
H3118 H 0.13477 0.63802 0.5782 0.0
H3119 H 0.1502 0.63577 0.55043 0.0
C3120 C 0.22575 0.60834 0.51755 0.0
C3121 C 0.23299 0.62717 0.52553 0.0
C3122 C 0.2077 0.60229 0.51312 0.0
C3123 C 0.19679 0.61503 0.51672 0.0
C3124 C 0.20401 0.63375 0.52483 0.0
C3125 C 0.22196 0.6398 0.52916 0.0
C3126 C 0.17772 0.60873 0.51311 0.0
C3127 C 0.16808 0.61027 0.52818 0.0
C3128 C 0.16908 0.60109 0.49527 0.0
C3129 C 0.17843 0.6001 0.47858 0.0
C3130 C 0.18909 0.61643 0.47423 0.0
C3131 C 0.19725 0.61554 0.45806 0.0
C3132 C 0.19473 0.59842 0.44606 0.0
C3133 C 0.18406 0.58216 0.4502 0.0
C3134 C 0.17591 0.58296 0.46636 0.0
C3135 C 0.09336 0.59548 0.5104 0.0
C3136 C 0.08583 0.57732 0.50092 0.0
C3137 C 0.11133 0.60219 0.51186 0.0
C3138 C 0.12202 0.59042 0.50469 0.0
C3139 C 0.11433 0.57253 0.49448 0.0
C3140 C 0.09626 0.56611 0.4924 0.0
C3141 C 0.14121 0.59654 0.50813 0.0
C3142 C 0.15091 0.59494 0.49309 0.0
C3143 C 0.14994 0.60417 0.52599 0.0
C3144 C 0.14068 0.60549 0.54271 0.0
C3145 C 0.13036 0.58926 0.5476 0.0
C3146 C 0.12163 0.59068 0.56335 0.0
C3147 C 0.1232 0.60824 0.57435 0.0
C3148 C 0.13355 0.62443 0.56966 0.0
C3149 C 0.14231 0.62308 0.55395 0.0
H3150 H 0.11643 0.60931 0.58653 0.0
H3151 H 0.20099 0.59778 0.43351 0.0
H3152 H 0.71719 0.01555 0.75674 0.0
H3153 H 0.73076 0.98959 0.76307 0.0
H3154 H 0.6801 0.9516 0.75498 0.0
H3155 H 0.66637 0.97765 0.74904 0.0
H3156 H 0.69804 0.95048 0.78733 0.0
H3157 H 0.70907 0.94714 0.7242 0.0
H3158 H 0.71907 0.96016 0.69683 0.0
H3159 H 0.77122 0.97849 0.72451 0.0
H3160 H 0.76148 0.96582 0.75216 0.0
H3161 H 0.73328 0.86713 0.78852 0.0
H3162 H 0.71734 0.89169 0.78304 0.0
H3163 H 0.76585 0.93337 0.79198 0.0
H3164 H 0.78186 0.90889 0.79703 0.0
H3165 H 0.7477 0.93135 0.7583 0.0
H3166 H 0.73647 0.93522 0.82163 0.0
H3167 H 0.7262 0.92351 0.84948 0.0
H3168 H 0.67416 0.90465 0.82161 0.0
H3169 H 0.68418 0.91596 0.79346 0.0
C3170 C 0.70899 1.00157 0.7559 0.0
C3171 C 0.69076 0.99855 0.75255 0.0
C3172 C 0.71674 0.98677 0.7595 0.0
C3173 C 0.70638 0.96875 0.75946 0.0
C3174 C 0.68825 0.96548 0.75513 0.0
C3175 C 0.68047 0.98031 0.75167 0.0
C3176 C 0.71439 0.95375 0.7654 0.0
C3177 C 0.70869 0.94598 0.7808 0.0
C3178 C 0.72852 0.94839 0.75709 0.0
C3179 C 0.73452 0.95562 0.7403 0.0
C3180 C 0.72266 0.95402 0.72448 0.0
C3181 C 0.72828 0.96134 0.70891 0.0
C3182 C 0.74576 0.97017 0.70894 0.0
C3183 C 0.75768 0.97164 0.72451 0.0
C3184 C 0.75212 0.96437 0.74013 0.0
C3185 C 0.74046 0.88162 0.78968 0.0
C3186 C 0.75878 0.88615 0.79299 0.0
C3187 C 0.73136 0.89561 0.78666 0.0
C3188 C 0.7405 0.91424 0.78701 0.0
C3189 C 0.75864 0.91901 0.79162 0.0
C3190 C 0.76774 0.90506 0.79465 0.0
C3191 C 0.73149 0.92821 0.78038 0.0
C3192 C 0.73698 0.93574 0.76478 0.0
C3193 C 0.71714 0.93328 0.78849 0.0
C3194 C 0.71114 0.92622 0.80534 0.0
C3195 C 0.72288 0.92836 0.82135 0.0
C3196 C 0.71709 0.92184 0.83722 0.0
C3197 C 0.69955 0.91328 0.8373 0.0
C3198 C 0.68775 0.91124 0.82151 0.0
C3199 C 0.69348 0.91771 0.8056 0.0
H3200 H 0.69509 0.90827 0.84961 0.0
H3201 H 0.75008 0.97585 0.69688 0.0
H3202 H 0.77524 0.9469 0.54736 0.0
H3203 H 0.74857 0.95911 0.54407 0.0
H3204 H 0.72093 0.90521 0.51354 0.0
H3205 H 0.74771 0.89312 0.51645 0.0
H3206 H 0.70957 0.93071 0.49831 0.0
H3207 H 0.71538 0.91984 0.55957 0.0
H3208 H 0.72894 0.92061 0.59115 0.0
H3209 H 0.73612 0.98108 0.60146 0.0
H3210 H 0.72284 0.9807 0.56982 0.0
H3211 H 0.62572 0.95609 0.51444 0.0
H3212 H 0.65048 0.94022 0.51438 0.0
H3213 H 0.6861 0.99406 0.53183 0.0
H3214 H 0.66161 0.00993 0.53184 0.0
H3215 H 0.69131 0.96555 0.55335 0.0
H3216 H 0.6828 0.97269 0.48853 0.0
H3217 H 0.66582 0.96726 0.45785 0.0
H3218 H 0.65916 0.90724 0.45583 0.0
H3219 H 0.67588 0.91231 0.48663 0.0
C3220 C 0.76351 0.93764 0.53991 0.0
C3221 C 0.76371 0.91896 0.53228 0.0
C3222 C 0.74814 0.94462 0.5381 0.0
C3223 C 0.73241 0.93308 0.52878 0.0
C3224 C 0.73272 0.91452 0.52083 0.0
C3225 C 0.74811 0.90756 0.52257 0.0
C3226 C 0.71574 0.94035 0.52759 0.0
C3227 C 0.70554 0.93813 0.51044 0.0
C3228 C 0.71003 0.94986 0.54331 0.0
C3229 C 0.71831 0.95027 0.56224 0.0
C3230 C 0.72002 0.93333 0.5685 0.0
C3231 C 0.72762 0.93369 0.58643 0.0
C3232 C 0.73344 0.95089 0.59829 0.0
C3233 C 0.73164 0.96777 0.59224 0.0
C3234 C 0.72408 0.96749 0.57431 0.0
C3235 C 0.63883 0.96457 0.51822 0.0
C3236 C 0.64155 0.98439 0.52309 0.0
C3237 C 0.65301 0.95546 0.51807 0.0
C3238 C 0.67028 0.9659 0.52304 0.0
C3239 C 0.67298 0.98563 0.52788 0.0
C3240 C 0.6589 0.99473 0.52777 0.0
C3241 C 0.68557 0.95647 0.52406 0.0
C3242 C 0.69543 0.95816 0.54125 0.0
C3243 C 0.6905 0.94587 0.5085 0.0
C3244 C 0.68043 0.94289 0.49 0.0
C3245 C 0.67757 0.95833 0.48164 0.0
C3246 C 0.66802 0.95532 0.4642 0.0
C3247 C 0.66137 0.93692 0.45492 0.0
C3248 C 0.66429 0.92149 0.46305 0.0
C3249 C 0.67381 0.92443 0.48049 0.0
H3250 H 0.654 0.93462 0.44142 0.0
H3251 H 0.73929 0.95114 0.61217 0.0
H3252 H 0.41717 0.49526 0.77921 0.0
H3253 H 0.40181 0.46327 0.78174 0.0
H3254 H 0.35619 0.47154 0.75023 0.0
H3255 H 0.37148 0.50402 0.74834 0.0
H3256 H 0.34392 0.45128 0.77353 0.0
H3257 H 0.38988 0.44054 0.73532 0.0
H3258 H 0.42046 0.44351 0.7287 0.0
H3259 H 0.43242 0.41976 0.77715 0.0
H3260 H 0.40197 0.41683 0.78414 0.0
H3261 H 0.2981 0.35464 0.75094 0.0
H3262 H 0.31517 0.38656 0.75138 0.0
H3263 H 0.35669 0.37473 0.78657 0.0
H3264 H 0.33931 0.3424 0.78627 0.0
H3265 H 0.37195 0.39643 0.76343 0.0
H3266 H 0.32947 0.40568 0.80249 0.0
H3267 H 0.30046 0.40307 0.8134 0.0
H3268 H 0.28369 0.43029 0.76919 0.0
H3269 H 0.31257 0.43284 0.75784 0.0
C3270 C 0.40388 0.49039 0.77267 0.0
C3271 C 0.39593 0.50283 0.76339 0.0
C3272 C 0.39495 0.47163 0.77398 0.0
C3273 C 0.37754 0.46384 0.76579 0.0
C3274 C 0.3695 0.47641 0.75672 0.0
C3275 C 0.37841 0.4953 0.75555 0.0
C3276 C 0.36773 0.44315 0.76691 0.0
C3277 C 0.35015 0.4394 0.7709 0.0
C3278 C 0.37546 0.42693 0.76461 0.0
C3279 C 0.3937 0.42862 0.76032 0.0
C3280 C 0.39906 0.43604 0.74459 0.0
C3281 C 0.41636 0.43771 0.74078 0.0
C3282 C 0.42838 0.43187 0.75252 0.0
C3283 C 0.42311 0.4243 0.76808 0.0
C3284 C 0.40583 0.42261 0.77196 0.0
C3285 C 0.31084 0.35863 0.75891 0.0
C3286 C 0.31694 0.34533 0.76863 0.0
C3287 C 0.32075 0.3773 0.75923 0.0
C3288 C 0.33755 0.38398 0.7692 0.0
C3289 C 0.34391 0.37059 0.7787 0.0
C3290 C 0.33382 0.35183 0.77858 0.0
C3291 C 0.34807 0.40463 0.76947 0.0
C3292 C 0.36572 0.40833 0.76585 0.0
C3293 C 0.34059 0.42089 0.77261 0.0
C3294 C 0.32313 0.41925 0.77918 0.0
C3295 C 0.31955 0.41095 0.79498 0.0
C3296 C 0.30314 0.40951 0.80127 0.0
C3297 C 0.29022 0.41646 0.79196 0.0
C3298 C 0.29371 0.42488 0.77636 0.0
C3299 C 0.3101 0.42634 0.77 0.0
H3300 H 0.27753 0.41535 0.79686 0.0
H3301 H 0.44177 0.43319 0.74955 0.0
H3302 H 0.16687 0.61212 0.26614 0.0
H3303 H 0.18029 0.64535 0.27683 0.0
H3304 H 0.2313 0.63199 0.27973 0.0
H3305 H 0.21793 0.5985 0.26926 0.0
H3306 H 0.22608 0.65779 0.31047 0.0
H3307 H 0.21667 0.64692 0.24274 0.0
H3308 H 0.19835 0.63683 0.21277 0.0
H3309 H 0.16687 0.67669 0.22838 0.0
H3310 H 0.18486 0.68683 0.25857 0.0
H3311 H 0.28758 0.73654 0.29323 0.0
H3312 H 0.26812 0.70573 0.29393 0.0
H3313 H 0.22375 0.73213 0.29374 0.0
H3314 H 0.24312 0.76273 0.29323 0.0
H3315 H 0.22108 0.70182 0.26564 0.0
H3316 H 0.23252 0.71739 0.32995 0.0
H3317 H 0.24992 0.72899 0.36023 0.0
H3318 H 0.2756 0.68244 0.35278 0.0
H3319 H 0.25862 0.67075 0.32222 0.0
C3320 C 0.18096 0.61625 0.26902 0.0
C3321 C 0.19146 0.60288 0.26669 0.0
C3322 C 0.18853 0.63516 0.27523 0.0
C3323 C 0.20668 0.6409 0.27899 0.0
C3324 C 0.21721 0.6276 0.27696 0.0
C3325 C 0.20963 0.60862 0.2708 0.0
C3326 C 0.21482 0.66098 0.28368 0.0
C3327 C 0.22512 0.66748 0.30072 0.0
C3328 C 0.21275 0.67356 0.27116 0.0
C3329 C 0.20196 0.66745 0.25299 0.0
C3330 C 0.20574 0.65341 0.23984 0.0
C3331 C 0.19543 0.6477 0.22281 0.0
C3332 C 0.18141 0.65606 0.2187 0.0
C3333 C 0.1777 0.67019 0.2316 0.0
C3334 C 0.18795 0.67592 0.24867 0.0
C3335 C 0.2737 0.73557 0.29349 0.0
C3336 C 0.26655 0.7515 0.29304 0.0
C3337 C 0.2627 0.71823 0.29407 0.0
C3338 C 0.24466 0.71696 0.29407 0.0
C3339 C 0.23767 0.73304 0.2939 0.0
C3340 C 0.24863 0.75032 0.29351 0.0
C3341 C 0.23292 0.69849 0.29211 0.0
C3342 C 0.22184 0.69228 0.2756 0.0
C3343 C 0.23408 0.68636 0.30525 0.0
C3344 C 0.24436 0.69325 0.32367 0.0
C3345 C 0.242 0.7097 0.33466 0.0
C3346 C 0.25177 0.71629 0.3519 0.0
C3347 C 0.26387 0.70647 0.35842 0.0
C3348 C 0.26622 0.69004 0.3477 0.0
C3349 C 0.25651 0.68341 0.33041 0.0
H3350 H 0.2714 0.71157 0.37179 0.0
H3351 H 0.17346 0.65164 0.2055 0.0
H3352 H 0.53713 0.7184 0.42167 0.0
H3353 H 0.54379 0.69327 0.43787 0.0
H3354 H 0.50739 0.70432 0.4765 0.0
H3355 H 0.50182 0.73056 0.46104 0.0
H3356 H 0.53124 0.69517 0.49513 0.0
H3357 H 0.50002 0.66375 0.43641 0.0
H3358 H 0.49421 0.65724 0.40243 0.0
H3359 H 0.54437 0.64327 0.39892 0.0
H3360 H 0.55054 0.64988 0.43287 0.0
H3361 H 0.5158 0.59316 0.50935 0.0
H3362 H 0.51146 0.62175 0.49712 0.0
H3363 H 0.56678 0.63872 0.49492 0.0
H3364 H 0.57131 0.6106 0.5078 0.0
H3365 H 0.53351 0.63344 0.45897 0.0
H3366 H 0.56426 0.66634 0.51894 0.0
H3367 H 0.5684 0.67215 0.55296 0.0
H3368 H 0.51659 0.68222 0.5539 0.0
H3369 H 0.51202 0.67604 0.51984 0.0
C3370 C 0.53048 0.71544 0.43358 0.0
C3371 C 0.51872 0.72643 0.43982 0.0
C3372 C 0.53419 0.70084 0.44285 0.0
C3373 C 0.52573 0.69609 0.45827 0.0
C3374 C 0.51414 0.70731 0.46467 0.0
C3375 C 0.51083 0.72234 0.45571 0.0
C3376 C 0.52891 0.67956 0.46761 0.0
C3377 C 0.53154 0.68169 0.48707 0.0
C3378 C 0.52958 0.66168 0.45751 0.0
C3379 C 0.52578 0.65745 0.43715 0.0
C3380 C 0.50982 0.65935 0.42838 0.0
C3381 C 0.50647 0.65565 0.40913 0.0
C3382 C 0.51893 0.64988 0.39852 0.0
C3383 C 0.53474 0.64774 0.40715 0.0
C3384 C 0.53816 0.65144 0.42639 0.0
C3385 C 0.5271 0.6031 0.50652 0.0
C3386 C 0.54394 0.59949 0.50972 0.0
C3387 C 0.52458 0.61951 0.49954 0.0
C3388 C 0.53879 0.63264 0.49523 0.0
C3389 C 0.5556 0.62906 0.49837 0.0
C3390 C 0.55818 0.61291 0.50577 0.0
C3391 C 0.53592 0.64926 0.48622 0.0
C3392 C 0.53322 0.64702 0.46688 0.0
C3393 C 0.53504 0.6669 0.49641 0.0
C3394 C 0.53768 0.67032 0.51685 0.0
C3395 C 0.55364 0.66943 0.52639 0.0
C3396 C 0.55609 0.67289 0.54569 0.0
C3397 C 0.54273 0.67745 0.55559 0.0
C3398 C 0.5269 0.6786 0.54622 0.0
C3399 C 0.52437 0.6751 0.52692 0.0
H3400 H 0.54467 0.68017 0.57053 0.0
H3401 H 0.51631 0.64705 0.38362 0.0
H3402 H 0.61969 0.33572 0.68357 0.0
H3403 H 0.64631 0.33504 0.70314 0.0
H3404 H 0.65716 0.29181 0.66258 0.0
H3405 H 0.63076 0.29277 0.64274 0.0
H3406 H 0.6614 0.28406 0.69998 0.0
H3407 H 0.68095 0.33364 0.66539 0.0
H3408 H 0.67997 0.36299 0.6528 0.0
H3409 H 0.68577 0.39389 0.70775 0.0
H3410 H 0.68654 0.36464 0.72068 0.0
H3411 H 0.74796 0.28851 0.74377 0.0
H3412 H 0.72273 0.28747 0.72123 0.0
H3413 H 0.71401 0.33874 0.75193 0.0
H3414 H 0.73927 0.33999 0.77405 0.0
H3415 H 0.709 0.34128 0.71766 0.0
H3416 H 0.68858 0.29223 0.75265 0.0
H3417 H 0.68852 0.26302 0.76586 0.0
H3418 H 0.68329 0.23118 0.71139 0.0
H3419 H 0.68359 0.26027 0.69785 0.0
C3420 C 0.62779 0.32616 0.67873 0.0
C3421 C 0.62306 0.31442 0.66144 0.0
C3422 C 0.64305 0.32575 0.68998 0.0
C3423 C 0.6539 0.31336 0.68446 0.0
C3424 C 0.6491 0.30148 0.66728 0.0
C3425 C 0.63401 0.30215 0.65585 0.0
C3426 C 0.6703 0.31304 0.69651 0.0
C3427 C 0.67193 0.2965 0.70363 0.0
C3428 C 0.68399 0.32929 0.70169 0.0
C3429 C 0.68363 0.34692 0.69399 0.0
C3430 C 0.68187 0.34666 0.67479 0.0
C3431 C 0.68138 0.36329 0.66759 0.0
C3432 C 0.68276 0.38029 0.67947 0.0
C3433 C 0.68468 0.38071 0.69857 0.0
C3434 C 0.68516 0.36411 0.70584 0.0
C3435 C 0.74071 0.29961 0.74562 0.0
C3436 C 0.74572 0.31433 0.76081 0.0
C3437 C 0.72613 0.29894 0.73278 0.0
C3438 C 0.71606 0.3129 0.73481 0.0
C3439 C 0.72135 0.32774 0.74983 0.0
C3440 C 0.73587 0.32843 0.76258 0.0
C3441 C 0.70015 0.31233 0.72146 0.0
C3442 C 0.69857 0.32876 0.71404 0.0
C3443 C 0.68645 0.29598 0.71615 0.0
C3444 C 0.68634 0.27848 0.72425 0.0
C3445 C 0.68759 0.27903 0.74349 0.0
C3446 C 0.68748 0.26249 0.75104 0.0
C3447 C 0.68597 0.24526 0.73948 0.0
C3448 C 0.68451 0.24454 0.72034 0.0
C3449 C 0.68465 0.26106 0.71272 0.0
H3450 H 0.68588 0.23247 0.74535 0.0
H3451 H 0.68238 0.39315 0.67387 0.0
H3452 H 0.99618 0.33267 0.92449 0.0
H3453 H 0.99795 0.36395 0.94205 0.0
H3454 H 0.03416 0.35239 0.98411 0.0
H3455 H 0.03121 0.32037 0.9671 0.0
H3456 H 0.01627 0.37196 1.00068 0.0
H3457 H 0.0465 0.38111 0.94872 0.0
H3458 H 0.05244 0.37901 0.91623 0.0
H3459 H 0.01081 0.40689 0.90396 0.0
H3460 H 1.00444 0.4089 0.93631 0.0
H3461 H 0.05014 0.47314 0.03008 0.0
H3462 H 0.04618 0.43936 0.01834 0.0
H3463 H 0.99738 0.44006 0.98749 0.0
H3464 H 1.00109 0.47378 0.99936 0.0
H3465 H 0.02331 0.42655 0.96671 0.0
H3466 H 0.99587 0.41748 0.02268 0.0
H3467 H 0.9955 0.42174 0.05646 0.0
H3468 H 0.0398 0.39625 0.06232 0.0
H3469 H 0.04057 0.39204 0.02859 0.0
C3470 C 1.00441 0.33679 0.93756 0.0
C3471 C 0.01365 0.32422 0.94441 0.0
C3472 C 1.00557 0.35477 0.94754 0.0
C3473 C 0.01666 0.36094 0.9642 0.0
C3474 C 0.02558 0.34813 0.97128 0.0
C3475 C 0.02394 0.32984 0.96156 0.0
C3476 C 0.01891 0.38073 0.97404 0.0
C3477 C 0.01804 0.38387 0.99321 0.0
C3478 C 0.02133 0.3965 0.9645 0.0
C3479 C 0.02486 0.39494 0.94491 0.0
C3480 C 0.03849 0.3866 0.93905 0.0
C3481 C 0.04196 0.38547 0.92067 0.0
C3482 C 0.03197 0.39275 0.90803 0.0
C3483 C 0.0185 0.40121 0.91375 0.0
C3484 C 0.01496 0.40235 0.93211 0.0
C3485 C 0.03843 0.46604 0.021 0.0
C3486 C 0.02596 0.47614 0.01555 0.0
C3487 C 0.03616 0.44672 0.01441 0.0
C3488 C 0.02147 0.43723 1.00211 0.0
C3489 C 0.00876 0.44714 0.99706 0.0
C3490 C 0.01089 0.46639 1.00387 0.0
C3491 C 0.02022 0.41753 0.99301 0.0
C3492 C 0.02147 0.41452 0.97402 0.0
C3493 C 0.01891 0.40211 1.00286 0.0
C3494 C 0.01837 0.4046 0.02312 0.0
C3495 C 1.00562 0.41293 0.03118 0.0
C3496 C 1.00532 0.4153 0.05032 0.0
C3497 C 0.01764 0.40931 0.06153 0.0
C3498 C 0.03027 0.4009 0.05362 0.0
C3499 C 0.03063 0.39849 0.0345 0.0
H3500 H 0.01739 0.41117 0.07634 0.0
H3501 H 0.03471 0.39189 0.89381 0.0
H3502 H 0.01436 0.8165 0.13794 0.0
H3503 H 0.98659 0.8083 0.15067 0.0
H3504 H 0.01001 0.77799 0.18852 0.0
H3505 H 0.03795 0.78619 0.17579 0.0
H3506 H 0.97561 0.75849 0.17208 0.0
H3507 H 1.00477 0.82014 0.20459 0.0
H3508 H 0.02026 0.85339 0.20682 0.0
H3509 H 0.97605 0.86557 0.17638 0.0
H3510 H 0.96039 0.83231 0.17375 0.0
H3511 H 0.91288 0.7615 0.23912 0.0
H3512 H 0.93826 0.76157 0.22195 0.0
H3513 H 0.91772 0.79423 0.18449 0.0
H3514 H 0.89214 0.79375 0.20113 0.0
H3515 H 0.95071 0.81126 0.2004 0.0
H3516 H 0.92056 0.75088 0.169 0.0
H3517 H 0.90475 0.71761 0.16485 0.0
H3518 H 0.94949 0.70252 0.19124 0.0
H3519 H 0.9655 0.7358 0.19586 0.0
C3520 C 0.01366 0.80816 0.14904 0.0
C3521 C 0.02848 0.80224 0.15601 0.0
C3522 C 0.99773 0.8034 0.15626 0.0
C3523 C 0.99616 0.79256 0.17062 0.0
C3524 C 0.01085 0.78632 0.17742 0.0
C3525 C 0.02687 0.79119 0.17026 0.0
C3526 C 0.97945 0.78873 0.17913 0.0
C3527 C 0.97026 0.76999 0.17854 0.0
C3528 C 0.97219 0.8037 0.1871 0.0
C3529 C 0.98148 0.82373 0.18884 0.0
C3530 C 0.9984 0.82989 0.19827 0.0
C3531 C 1.0072 0.84874 0.19962 0.0
C3532 C 0.99916 0.86157 0.19171 0.0
C3533 C 0.98227 0.85561 0.18248 0.0
C3534 C 0.97342 0.83677 0.18108 0.0
C3535 C 0.9135 0.76827 0.22694 0.0
C3536 C 0.90052 0.77793 0.22179 0.0
C3537 C 0.92808 0.76833 0.21714 0.0
C3538 C 0.93003 0.77807 0.20199 0.0
C3539 C 0.91664 0.78679 0.19622 0.0
C3540 C 0.90204 0.7866 0.20588 0.0
C3541 C 0.94672 0.781 0.19341 0.0
C3542 C 0.95598 0.79967 0.19401 0.0
C3543 C 0.95388 0.76592 0.18538 0.0
C3544 C 0.94416 0.74594 0.18303 0.0
C3545 C 0.92696 0.74054 0.17417 0.0
C3546 C 0.91798 0.72165 0.17167 0.0
C3547 C 0.92608 0.70797 0.17784 0.0
C3548 C 0.94321 0.71315 0.18651 0.0
C3549 C 0.95225 0.73203 0.18908 0.0
H3550 H 0.91912 0.69335 0.17585 0.0
H3551 H 1.006 0.87616 0.19276 0.0
H3552 H 0.51768 0.29215 0.10633 0.0
H3553 H 0.5309 0.31963 0.09303 0.0
H3554 H 0.52228 0.35664 0.14067 0.0
H3555 H 0.50908 0.32907 0.15425 0.0
H3556 H 0.51173 0.36644 0.10662 0.0
H3557 H 0.56187 0.35149 0.13718 0.0
H3558 H 0.58146 0.33089 0.14562 0.0
H3559 H 0.59091 0.31911 0.08905 0.0
H3560 H 0.57112 0.33937 0.08019 0.0
H3561 H 0.55869 0.44743 0.07812 0.0
H3562 H 0.55432 0.42332 0.09817 0.0
H3563 H 0.55538 0.38031 0.05218 0.0
H3564 H 0.55895 0.40413 0.03177 0.0
H3565 H 0.57192 0.37555 0.08861 0.0
H3566 H 0.51884 0.38515 0.05739 0.0
H3567 H 0.49819 0.40403 0.04744 0.0
H3568 H 0.49343 0.424 0.10403 0.0
H3569 H 0.51437 0.40551 0.11432 0.0
C3570 C 0.51847 0.30613 0.11395 0.0
C3571 C 0.51231 0.30852 0.1313 0.0
C3572 C 0.52618 0.32178 0.10641 0.0
C3573 C 0.5278 0.34006 0.11605 0.0
C3574 C 0.52125 0.34256 0.13315 0.0
C3575 C 0.51365 0.32687 0.14081 0.0
C3576 C 0.53568 0.35651 0.10775 0.0
C3577 C 0.52502 0.36871 0.10307 0.0
C3578 C 0.55287 0.35901 0.10271 0.0
C3579 C 0.56487 0.34685 0.10799 0.0
C3580 C 0.56799 0.34438 0.1265 0.0
C3581 C 0.57916 0.33278 0.13137 0.0
C3582 C 0.5874 0.32367 0.11787 0.0
C3583 C 0.58451 0.32617 0.09948 0.0
C3584 C 0.57332 0.33772 0.09453 0.0
C3585 C 0.55814 0.43286 0.07227 0.0
C3586 C 0.55871 0.42762 0.05325 0.0
C3587 C 0.55586 0.41918 0.0838 0.0
C3588 C 0.55437 0.40012 0.07653 0.0
C3589 C 0.55657 0.39502 0.05797 0.0
C3590 C 0.55861 0.40867 0.04635 0.0
C3591 C 0.54792 0.38535 0.08751 0.0
C3592 C 0.55877 0.37345 0.09254 0.0
C3593 C 0.53083 0.38292 0.09274 0.0
C3594 C 0.51839 0.39421 0.08662 0.0
C3595 C 0.51358 0.39378 0.06771 0.0
C3596 C 0.50178 0.40436 0.06201 0.0
C3597 C 0.49455 0.41527 0.07509 0.0
C3598 C 0.49909 0.4156 0.09391 0.0
C3599 C 0.51094 0.40509 0.09969 0.0
H3600 H 0.48536 0.4234 0.07065 0.0
H3601 H 0.59605 0.3147 0.12167 0.0
H3602 H 0.05842 0.31679 0.33344 0.0
H3603 H 0.03091 0.31379 0.31379 0.0
H3604 H 1.00434 0.32137 0.36232 0.0
H3605 H 0.03162 0.32454 0.38195 0.0
H3606 H 0.98708 0.29064 0.3353 0.0
H3607 H 0.01406 0.35704 0.34188 0.0
H3608 H 0.03768 0.38428 0.33983 0.0
H3609 H 0.03498 0.36644 0.2814 0.0
H3610 H 0.01146 0.33892 0.28317 0.0
H3611 H 0.91086 0.32131 0.3159 0.0
H3612 H 0.94001 0.31805 0.32672 0.0
H3613 H 0.95371 0.31462 0.27097 0.0
H3614 H 0.92435 0.31812 0.26002 0.0
H3615 H 0.97864 0.33884 0.29609 0.0
H3616 H 0.94655 0.27482 0.29034 0.0
H3617 H 0.92192 0.24946 0.2944 0.0
H3618 H 0.93328 0.26429 0.35328 0.0
H3619 H 0.95783 0.2899 0.34959 0.0
C3620 C 0.04668 0.3178 0.33985 0.0
C3621 C 0.04706 0.3209 0.35914 0.0
C3622 C 0.03107 0.3161 0.32866 0.0
C3623 C 0.01574 0.31732 0.33672 0.0
C3624 C 0.0161 0.32029 0.35595 0.0
C3625 C 0.03167 0.32219 0.3671 0.0
C3626 C 0.99922 0.31583 0.32524 0.0
C3627 C 0.98518 0.3011 0.32666 0.0
C3628 C 0.99703 0.32933 0.31378 0.0
C3629 C 0.01121 0.34578 0.3127 0.0
C3630 C 0.01864 0.35881 0.32863 0.0
C3631 C 0.03197 0.37433 0.32752 0.0
C3632 C 0.03788 0.37705 0.31051 0.0
C3633 C 0.03042 0.36428 0.29458 0.0
C3634 C 0.01709 0.34873 0.29562 0.0
C3635 C 0.92003 0.31966 0.30594 0.0
C3636 C 0.91541 0.31972 0.28714 0.0
C3637 C 0.93662 0.31776 0.3121 0.0
C3638 C 0.94878 0.31565 0.29954 0.0
C3639 C 0.94435 0.31604 0.28078 0.0
C3640 C 0.9277 0.31808 0.27458 0.0
C3641 C 0.96633 0.31385 0.30643 0.0
C3642 C 0.98061 0.32799 0.30422 0.0
C3643 C 0.96868 0.29991 0.31738 0.0
C3644 C 0.95404 0.28432 0.31966 0.0
C3645 C 0.94376 0.27273 0.30415 0.0
C3646 C 0.92982 0.25829 0.30639 0.0
C3647 C 0.92606 0.25524 0.32408 0.0
C3648 C 0.93624 0.26663 0.33958 0.0
C3649 C 0.95019 0.28108 0.33742 0.0
H3650 H 0.91526 0.24406 0.32578 0.0
H3651 H 0.04819 0.38908 0.30967 0.0
H3652 H 0.97694 0.70776 0.60981 0.0
H3653 H 0.98028 0.67891 0.59045 0.0
H3654 H 0.02315 0.6749 0.62905 0.0
H3655 H 0.01936 0.70321 0.64891 0.0
H3656 H 0.02207 0.68159 0.58255 0.0
H3657 H 0.00936 0.64201 0.63012 0.0
H3658 H 0.99197 0.62891 0.65352 0.0
H3659 H 0.94745 0.60884 0.61264 0.0
H3660 H 0.96456 0.62215 0.58906 0.0
H3661 H 0.04773 0.60305 0.53294 0.0
H3662 H 0.04233 0.6251 0.55886 0.0
H3663 H 0.98774 0.61323 0.53794 0.0
H3664 H 0.99312 0.59118 0.5118 0.0
H3665 H 0.9957 0.61319 0.57774 0.0
H3666 H 0.00973 0.65107 0.52979 0.0
H3667 H 0.02784 0.66323 0.5065 0.0
H3668 H 0.07089 0.68629 0.54862 0.0
H3669 H 0.05309 0.674 0.57213 0.0
C3670 C 0.98669 0.70036 0.61441 0.0
C3671 C 0.9979 0.70759 0.63076 0.0
C3672 C 0.98852 0.6839 0.60345 0.0
C3673 C 1.00174 0.67472 0.60857 0.0
C3674 C 0.01256 0.68154 0.6252 0.0
C3675 C 0.01044 0.69773 0.63643 0.0
C3676 C 1.00607 0.66027 0.59494 0.0
C3677 C 0.01657 0.66659 0.58164 0.0
C3678 C 0.99861 0.64086 0.59375 0.0
C3679 C 0.98811 0.63346 0.60796 0.0
C3680 C 0.99577 0.63516 0.62622 0.0
C3681 C 0.98599 0.62759 0.63948 0.0
C3682 C 0.96858 0.61815 0.6346 0.0
C3683 C 0.96092 0.61624 0.61642 0.0
C3684 C 0.97064 0.62381 0.60311 0.0
C3685 C 0.0346 0.6052 0.53387 0.0
C3686 C 0.02083 0.59564 0.52043 0.0
C3687 C 0.03154 0.61769 0.54866 0.0
C3688 C 0.01467 0.62067 0.55019 0.0
C3689 C 1.00083 0.61096 0.5369 0.0
C3690 C 1.00393 0.5986 0.52196 0.0
C3691 C 0.01166 0.63455 0.56532 0.0
C3692 C 1.00135 0.62817 0.57877 0.0
C3693 C 0.01945 0.65394 0.56677 0.0
C3694 C 0.03014 0.66143 0.55267 0.0
C3695 C 0.02311 0.65858 0.53406 0.0
C3696 C 0.03331 0.66553 0.52082 0.0
C3697 C 0.05052 0.67548 0.52607 0.0
C3698 C 0.05756 0.67855 0.54457 0.0
C3699 C 0.04742 0.67161 0.55786 0.0
H3700 H 0.0584 0.68085 0.5158 0.0
H3701 H 0.96105 0.61224 0.64487 0.0
H3702 H 0.62503 0.83932 0.84245 0.0
H3703 H 0.64634 0.8321 0.82189 0.0
H3704 H 0.66954 0.80496 0.86295 0.0
H3705 H 0.6483 0.81237 0.88378 0.0
H3706 H 0.69409 0.82521 0.84619 0.0
H3707 H 0.64119 0.77885 0.82803 0.0
H3708 H 0.60974 0.76631 0.81852 0.0
H3709 H 0.61344 0.79244 0.76982 0.0
H3710 H 0.64488 0.8054 0.77918 0.0
H3711 H 0.72533 0.75849 0.7815 0.0
H3712 H 0.70109 0.76733 0.79672 0.0
H3713 H 0.71396 0.82276 0.78114 0.0
H3714 H 0.7386 0.81423 0.76628 0.0
H3715 H 0.67118 0.78786 0.78428 0.0
H3716 H 0.72492 0.84168 0.81265 0.0
H3717 H 0.75669 0.84877 0.82209 0.0
H3718 H 0.75047 0.80169 0.85178 0.0
H3719 H 0.71867 0.7942 0.84224 0.0
C3720 C 0.63484 0.83208 0.84723 0.0
C3721 C 0.63498 0.82629 0.86465 0.0
C3722 C 0.64692 0.82786 0.83542 0.0
C3723 C 0.65924 0.81767 0.84078 0.0
C3724 C 0.66003 0.81276 0.85856 0.0
C3725 C 0.64795 0.81704 0.87044 0.0
C3726 C 0.67093 0.81167 0.82759 0.0
C3727 C 0.68901 0.81715 0.83265 0.0
C3728 C 0.66433 0.80087 0.80999 0.0
C3729 C 0.64536 0.79331 0.80444 0.0
C3730 C 0.63526 0.78211 0.8154 0.0
C3731 C 0.61744 0.77488 0.81001 0.0
C3732 C 0.60958 0.77863 0.79361 0.0
C3733 C 0.61954 0.78959 0.78254 0.0
C3734 C 0.63736 0.79687 0.78788 0.0
C3735 C 0.72271 0.77239 0.78086 0.0
C3736 C 0.73394 0.78581 0.77297 0.0
C3737 C 0.70888 0.77738 0.78954 0.0
C3738 C 0.706 0.79571 0.79017 0.0
C3739 C 0.71621 0.8086 0.7809 0.0
C3740 C 0.73024 0.80374 0.77248 0.0
C3741 C 0.69408 0.80209 0.80272 0.0
C3742 C 0.67606 0.79636 0.79767 0.0
C3743 C 0.70063 0.8124 0.8204 0.0
C3744 C 0.71954 0.81735 0.82668 0.0
C3745 C 0.73037 0.83286 0.82117 0.0
C3746 C 0.74837 0.83691 0.82649 0.0
C3747 C 0.75561 0.82566 0.83748 0.0
C3748 C 0.74486 0.81037 0.84324 0.0
C3749 C 0.72686 0.8062 0.83786 0.0
H3750 H 0.76955 0.82882 0.84157 0.0
H3751 H 0.59579 0.773 0.78945 0.0
H3752 H 0.47837 0.57667 0.72447 0.0
H3753 H 0.49364 0.57566 0.69673 0.0
H3754 H 0.44679 0.54209 0.66463 0.0
H3755 H 0.43161 0.5428 0.69257 0.0
H3756 H 0.47157 0.5291 0.64979 0.0
H3757 H 0.4682 0.59498 0.66466 0.0
H3758 H 0.47331 0.62604 0.68463 0.0
H3759 H 0.52846 0.62842 0.69057 0.0
H3760 H 0.52366 0.5973 0.67079 0.0
H3761 H 0.5064 0.53768 0.56081 0.0
H3762 H 0.48946 0.53787 0.58769 0.0
H3763 H 0.53329 0.57586 0.62117 0.0
H3764 H 0.54973 0.576 0.59467 0.0
H3765 H 0.50937 0.58667 0.63506 0.0
H3766 H 0.51525 0.5231 0.62309 0.0
H3767 H 0.51308 0.49139 0.60535 0.0
H3768 H 0.4573 0.48353 0.59653 0.0
H3769 H 0.45916 0.51533 0.61405 0.0
C3770 C 0.47113 0.56907 0.71157 0.0
C3771 C 0.45335 0.55994 0.71144 0.0
C3772 C 0.48002 0.5686 0.69527 0.0
C3773 C 0.47176 0.55911 0.67755 0.0
C3774 C 0.45404 0.54972 0.67752 0.0
C3775 C 0.44514 0.55019 0.69383 0.0
C3776 C 0.48134 0.55884 0.65944 0.0
C3777 C 0.47956 0.54192 0.64662 0.0
C3778 C 0.49267 0.575 0.65463 0.0
C3779 C 0.49555 0.59375 0.66638 0.0
C3780 C 0.4814 0.6021 0.67029 0.0
C3781 C 0.48425 0.61971 0.68157 0.0
C3782 C 0.50119 0.62917 0.6889 0.0
C3783 C 0.51534 0.62107 0.68491 0.0
C3784 C 0.51257 0.60345 0.67365 0.0
C3785 C 0.51248 0.54619 0.57381 0.0
C3786 C 0.52986 0.55687 0.57486 0.0
C3787 C 0.50269 0.54618 0.58962 0.0
C3788 C 0.50967 0.55673 0.6075 0.0
C3789 C 0.5269 0.5675 0.60821 0.0
C3790 C 0.53655 0.5675 0.59261 0.0
C3791 C 0.49957 0.55694 0.62528 0.0
C3792 C 0.5013 0.57384 0.6381 0.0
C3793 C 0.48859 0.54068 0.63032 0.0
C3794 C 0.48736 0.52167 0.61966 0.0
C3795 C 0.50253 0.51467 0.61723 0.0
C3796 C 0.50135 0.49667 0.60725 0.0
C3797 C 0.48506 0.48548 0.59976 0.0
C3798 C 0.46991 0.49225 0.60229 0.0
C3799 C 0.47101 0.51025 0.61226 0.0
H3800 H 0.48418 0.47154 0.59204 0.0
H3801 H 0.50336 0.6428 0.69763 0.0
H3802 H 0.76459 0.1475 0.96665 0.0
H3803 H 0.75023 0.16144 0.94297 0.0
H3804 H 0.77507 0.21729 0.97145 0.0
H3805 H 0.78937 0.20353 0.99519 0.0
H3806 H 0.73896 0.21147 0.965 0.0
H3807 H 0.78817 0.20111 0.93289 0.0
H3808 H 0.80748 0.1821 0.91856 0.0
H3809 H 0.76407 0.1488 0.88105 0.0
H3810 H 0.74443 0.16745 0.89539 0.0
H3811 H 0.75444 0.28091 0.91094 0.0
H3812 H 0.75025 0.25701 0.93108 0.0
H3813 H 0.71672 0.21761 0.88719 0.0
H3814 H 0.72066 0.24181 0.86701 0.0
H3815 H 0.74693 0.20668 0.89855 0.0
H3816 H 0.70041 0.22605 0.92711 0.0
H3817 H 0.68405 0.24857 0.94135 0.0
H3818 H 0.72545 0.26872 0.98574 0.0
H3819 H 0.74219 0.24656 0.97166 0.0
C3820 C 0.76731 0.16275 0.9676 0.0
C3821 C 0.77794 0.1745 0.98279 0.0
C3822 C 0.75904 0.17064 0.95414 0.0
C3823 C 0.76143 0.19031 0.95575 0.0
C3824 C 0.77293 0.20204 0.97023 0.0
C3825 C 0.78119 0.19418 0.98365 0.0
C3826 C 0.75136 0.19893 0.94297 0.0
C3827 C 0.7406 0.21044 0.95043 0.0
C3828 C 0.75301 0.19679 0.92391 0.0
C3829 C 0.76477 0.18543 0.91544 0.0
C3830 C 0.78269 0.18956 0.92176 0.0
C3831 C 0.79371 0.1789 0.9136 0.0
C3832 C 0.78699 0.16418 0.89897 0.0
C3833 C 0.76924 0.16015 0.89244 0.0
C3834 C 0.75816 0.17075 0.90059 0.0
C3835 C 0.74567 0.26737 0.90585 0.0
C3836 C 0.73817 0.26292 0.88744 0.0
C3837 C 0.74314 0.25379 0.91737 0.0
C3838 C 0.73316 0.23559 0.91056 0.0
C3839 C 0.72435 0.23166 0.89265 0.0
C3840 C 0.72667 0.24541 0.88118 0.0
C3841 C 0.73535 0.22019 0.92079 0.0
C3842 C 0.74461 0.20718 0.91292 0.0
C3843 C 0.73266 0.22131 0.93959 0.0
C3844 C 0.72255 0.23456 0.94831 0.0
C3845 C 0.70606 0.23533 0.93987 0.0
C3846 C 0.69672 0.24804 0.94793 0.0
C3847 C 0.7037 0.26006 0.96445 0.0
C3848 C 0.72004 0.25937 0.97297 0.0
C3849 C 0.72944 0.24669 0.96498 0.0
H3850 H 0.69645 0.2699 0.97065 0.0
H3851 H 0.79555 0.15596 0.89265 0.0
H3852 H 0.15597 0.5309 0.18861 0.0
H3853 H 0.13837 0.53044 0.15942 0.0
H3854 H 0.10698 0.56429 0.18835 0.0
H3855 H 0.12396 0.564 0.2175 0.0
H3856 H 0.08757 0.53337 0.17036 0.0
H3857 H 0.13343 0.58109 0.15639 0.0
H3858 H 0.16337 0.59639 0.15196 0.0
H3859 H 0.16463 0.5507 0.10903 0.0
H3860 H 0.13477 0.53497 0.11337 0.0
H3861 H 0.03638 0.54961 0.09292 0.0
H3862 H 0.05705 0.55276 0.12055 0.0
H3863 H 0.08151 0.51095 0.09235 0.0
H3864 H 0.06061 0.50767 0.06474 0.0
H3865 H 0.10472 0.54541 0.10907 0.0
H3866 H 0.05788 0.49828 0.12437 0.0
H3867 H 0.02739 0.4851 0.1288 0.0
H3868 H 0.02794 0.53312 0.16981 0.0
H3869 H 0.05838 0.5467 0.16545 0.0
C3870 C 0.14542 0.53839 0.18859 0.0
C3871 C 0.14089 0.54704 0.20514 0.0
C3872 C 0.13554 0.53831 0.17197 0.0
C3873 C 0.12139 0.5473 0.17183 0.0
C3874 C 0.11777 0.55714 0.18827 0.0
C3875 C 0.12735 0.55685 0.20486 0.0
C3876 C 0.10879 0.54412 0.15526 0.0
C3877 C 0.09132 0.53633 0.15703 0.0
C3878 C 0.11383 0.54745 0.13782 0.0
C3879 C 0.13191 0.55673 0.13537 0.0
C3880 C 0.14015 0.57418 0.14615 0.0
C3881 C 0.1571 0.58297 0.14361 0.0
C3882 C 0.16592 0.57449 0.13026 0.0
C3883 C 0.15779 0.55723 0.11939 0.0
C3884 C 0.14085 0.54838 0.12187 0.0
C3885 C 0.04595 0.54084 0.0929 0.0
C3886 C 0.04712 0.52838 0.07709 0.0
C3887 C 0.05772 0.54268 0.10851 0.0
C3888 C 0.07068 0.53206 0.10831 0.0
C3889 C 0.07154 0.51923 0.09259 0.0
C3890 C 0.05967 0.51732 0.077 0.0
C3891 C 0.08368 0.53494 0.12439 0.0
C3892 C 0.10115 0.54255 0.12248 0.0
C3893 C 0.07865 0.53177 0.14181 0.0
C3894 C 0.06036 0.52357 0.14447 0.0
C3895 C 0.05146 0.50609 0.13423 0.0
C3896 C 0.03419 0.49854 0.13675 0.0
C3897 C 0.02572 0.50828 0.14955 0.0
C3898 C 0.03451 0.52559 0.15989 0.0
C3899 C 0.05178 0.53321 0.15742 0.0
H3900 H 0.01235 0.5024 0.15148 0.0
H3901 H 0.17902 0.58132 0.12831 0.0
H3902 H 0.83398 0.87964 0.48265 0.0
H3903 H 0.8336 0.86424 0.451 0.0
H3904 H 0.78062 0.83399 0.45178 0.0
H3905 H 0.78149 0.84853 0.48409 0.0
H3906 H 0.79522 0.8118 0.43276 0.0
H3907 H 0.7928 0.87581 0.4297 0.0
H3908 H 0.80151 0.91058 0.43713 0.0
H3909 H 0.85122 0.90919 0.41768 0.0
H3910 H 0.84287 0.87438 0.4103 0.0
H3911 H 0.77523 0.79599 0.33408 0.0
H3912 H 0.77713 0.80622 0.3673 0.0
H3913 H 0.83302 0.82415 0.3698 0.0
H3914 H 0.83125 0.81379 0.33637 0.0
H3915 H 0.81687 0.85185 0.38681 0.0
H3916 H 0.81569 0.7856 0.38785 0.0
H3917 H 0.80356 0.75135 0.37917 0.0
H3918 H 0.75577 0.75804 0.40069 0.0
H3919 H 0.76753 0.79237 0.40929 0.0
C3920 C 0.82228 0.8696 0.47611 0.0
C3921 C 0.80773 0.86539 0.48582 0.0
C3922 C 0.822 0.8609 0.45789 0.0
C3923 C 0.80689 0.84831 0.44857 0.0
C3924 C 0.79245 0.8437 0.45847 0.0
C3925 C 0.79292 0.85204 0.47695 0.0
C3926 C 0.80618 0.8402 0.42855 0.0
C3927 C 0.79977 0.82067 0.42273 0.0
C3928 C 0.81219 0.85155 0.41523 0.0
C3929 C 0.81727 0.87248 0.41963 0.0
C3930 C 0.80563 0.88292 0.42713 0.0
C3931 C 0.81049 0.90263 0.4313 0.0
C3932 C 0.82693 0.91209 0.42793 0.0
C3933 C 0.83851 0.90185 0.42031 0.0
C3934 C 0.83371 0.88213 0.4161 0.0
C3935 C 0.78799 0.80197 0.34165 0.0
C3936 C 0.8031 0.80416 0.33245 0.0
C3937 C 0.78904 0.80771 0.36074 0.0
C3938 C 0.80521 0.8159 0.37114 0.0
C3939 C 0.82038 0.81783 0.36209 0.0
C3940 C 0.81937 0.81185 0.34297 0.0
C3941 C 0.80609 0.82356 0.39117 0.0
C3942 C 0.81244 0.84304 0.39694 0.0
C3943 C 0.79951 0.81225 0.40424 0.0
C3944 C 0.79245 0.79159 0.39907 0.0
C3945 C 0.80255 0.7798 0.39059 0.0
C3946 C 0.79575 0.76036 0.38572 0.0
C3947 C 0.77889 0.75253 0.38934 0.0
C3948 C 0.76882 0.76412 0.39788 0.0
C3949 C 0.77555 0.78357 0.40278 0.0
H3950 H 0.77366 0.73748 0.38555 0.0
H3951 H 0.83067 0.92735 0.43119 0.0
H3952 H 0.47745 0.55252 0.80586 0.0
H3953 H 0.4921 0.54823 0.83527 0.0
H3954 H 0.45029 0.56402 0.86352 0.0
H3955 H 0.43567 0.56841 0.83407 0.0
H3956 H 0.47945 0.57895 0.88581 0.0
H3957 H 0.45801 0.51521 0.8528 0.0
H3958 H 0.45536 0.48969 0.82637 0.0
H3959 H 0.51094 0.495 0.8328 0.0
H3960 H 0.51393 0.52072 0.85914 0.0
H3961 H 0.50469 0.5535 0.97317 0.0
H3962 H 0.48999 0.55663 0.94356 0.0
H3963 H 0.52566 0.52872 0.91509 0.0
H3964 H 0.53914 0.52385 0.94492 0.0
H3965 H 0.50041 0.52045 0.89215 0.0
H3966 H 0.52341 0.58261 0.92422 0.0
H3967 H 0.52805 0.60814 0.95083 0.0
H3968 H 0.47354 0.60885 0.94475 0.0
H3969 H 0.46834 0.58254 0.91866 0.0
C3970 C 0.47127 0.55517 0.81827 0.0
C3971 C 0.4551 0.56091 0.81703 0.0
C3972 C 0.47973 0.55251 0.83538 0.0
C3973 C 0.47253 0.55539 0.85235 0.0
C3974 C 0.45653 0.5615 0.85113 0.0
C3975 C 0.44801 0.56405 0.834 0.0
C3976 C 0.48145 0.55213 0.87108 0.0
C3977 C 0.48377 0.56597 0.88709 0.0
C3978 C 0.48803 0.53564 0.87344 0.0
C3979 C 0.4862 0.51998 0.85784 0.0
C3980 C 0.46967 0.51098 0.84852 0.0
C3981 C 0.46811 0.49648 0.83356 0.0
C3982 C 0.48297 0.49075 0.82788 0.0
C3983 C 0.49943 0.49947 0.8372 0.0
C3984 C 0.50107 0.51399 0.85216 0.0
C3985 C 0.50948 0.54798 0.96065 0.0
C3986 C 0.52343 0.53852 0.96197 0.0
C3987 C 0.50109 0.55004 0.94333 0.0
C3988 C 0.50675 0.54378 0.92614 0.0
C3989 C 0.52063 0.53406 0.92753 0.0
C3990 C 0.52857 0.5313 0.94489 0.0
C3991 C 0.49835 0.54725 0.90713 0.0
C3992 C 0.49614 0.53347 0.89101 0.0
C3993 C 0.49229 0.56405 0.90453 0.0
C3994 C 0.49546 0.58048 0.91957 0.0
C3995 C 0.51239 0.58819 0.92855 0.0
C3996 C 0.51513 0.60278 0.94359 0.0
C3997 C 0.50116 0.61024 0.94941 0.0
C3998 C 0.48437 0.60306 0.94023 0.0
C3999 C 0.48149 0.58823 0.92537 0.0
H4000 H 0.50334 0.62155 0.96107 0.0
H4001 H 0.48174 0.47954 0.81629 0.0
H4002 H 0.76499 0.19476 0.07019 0.0
H4003 H 0.76296 0.21436 0.09922 0.0
H4004 H 0.80846 0.19868 0.12415 0.0
H4005 H 0.80965 0.17785 0.09534 0.0
H4006 H 0.7875 0.20144 0.14849 0.0
H4007 H 0.80975 0.24139 0.10537 0.0
H4008 H 0.8097 0.25388 0.07592 0.0
H4009 H 0.76194 0.27163 0.0851 0.0
H4010 H 0.76158 0.25899 0.1145 0.0
H4011 H 0.82089 0.27853 0.21656 0.0
H4012 H 0.81658 0.25887 0.18616 0.0
H4013 H 0.76403 0.26747 0.17766 0.0
H4014 H 0.7685 0.28757 0.20824 0.0
H4015 H 0.78526 0.26837 0.1454 0.0
H4016 H 0.76545 0.22817 0.19078 0.0
H4017 H 0.77071 0.22044 0.22206 0.0
H4018 H 0.81963 0.20741 0.20945 0.0
H4019 H 0.81453 0.21483 0.17805 0.0
C4020 C 0.77449 0.19548 0.08194 0.0
C4021 C 0.78768 0.1852 0.08061 0.0
C4022 C 0.77336 0.20669 0.09847 0.0
C4023 C 0.78588 0.20846 0.11369 0.0
C4024 C 0.79873 0.19762 0.11254 0.0
C4025 C 0.79949 0.18586 0.09612 0.0
C4026 C 0.78598 0.22217 0.13049 0.0
C4027 C 0.78702 0.21604 0.14772 0.0
C4028 C 0.78524 0.24126 0.12959 0.0
C4029 C 0.78554 0.24907 0.11203 0.0
C4030 C 0.79918 0.24786 0.10105 0.0
C4031 C 0.79923 0.25497 0.08438 0.0
C4032 C 0.7858 0.2635 0.07862 0.0
C4033 C 0.77232 0.26499 0.08956 0.0
C4034 C 0.77219 0.25786 0.10624 0.0
C4035 C 0.80854 0.27643 0.20802 0.0
C4036 C 0.79495 0.28429 0.21446 0.0
C4037 C 0.8061 0.26529 0.19076 0.0
C4038 C 0.78995 0.26166 0.1799 0.0
C4039 C 0.77656 0.27022 0.18596 0.0
C4040 C 0.77907 0.28154 0.2033 0.0
C4041 C 0.78683 0.24756 0.16305 0.0
C4042 C 0.78531 0.25363 0.14593 0.0
C4043 C 0.78751 0.22856 0.16402 0.0
C4044 C 0.78957 0.22194 0.18206 0.0
C4045 C 0.77721 0.22339 0.19462 0.0
C4046 C 0.78017 0.21911 0.21238 0.0
C4047 C 0.79547 0.21338 0.21774 0.0
C4048 C 0.80772 0.21171 0.20526 0.0
C4049 C 0.80474 0.2158 0.18743 0.0
H4050 H 0.79785 0.21028 0.23156 0.0
H4051 H 0.78586 0.26899 0.0657 0.0
H4052 H 0.12287 0.53896 0.2984 0.0
H4053 H 0.11075 0.55581 0.32346 0.0
H4054 H 0.16181 0.59087 0.34274 0.0
H4055 H 0.17414 0.57364 0.31818 0.0
H4056 H 0.14212 0.58275 0.37088 0.0
H4057 H 0.13491 0.60619 0.31301 0.0
H4058 H 0.1261 0.60118 0.27944 0.0
H4059 H 0.07334 0.5776 0.28785 0.0
H4060 H 0.08187 0.5822 0.32142 0.0
H4061 H 0.08787 0.61988 0.4275 0.0
H4062 H 0.10989 0.62604 0.40616 0.0
H4063 H 0.07361 0.59043 0.36182 0.0
H4064 H 0.05172 0.58528 0.38253 0.0
H4065 H 0.09461 0.61153 0.34705 0.0
H4066 H 0.10233 0.57475 0.39848 0.0
H4067 H 0.10951 0.57131 0.43096 0.0
H4068 H 0.15776 0.61203 0.43405 0.0
H4069 H 0.15072 0.6159 0.40166 0.0
C4070 C 0.13157 0.54984 0.30834 0.0
C4071 C 0.14932 0.55525 0.30625 0.0
C4072 C 0.12465 0.55955 0.3225 0.0
C4073 C 0.13535 0.57501 0.33436 0.0
C4074 C 0.15337 0.57917 0.33345 0.0
C4075 C 0.16036 0.56925 0.31948 0.0
C4076 C 0.12745 0.58759 0.34674 0.0
C4077 C 0.13194 0.58939 0.36575 0.0
C4078 C 0.11435 0.59633 0.33986 0.0
C4079 C 0.10903 0.59463 0.31975 0.0
C4080 C 0.12142 0.6 0.3077 0.0
C4081 C 0.11648 0.59718 0.28867 0.0
C4082 C 0.09916 0.58911 0.28152 0.0
C4083 C 0.08673 0.58391 0.2934 0.0
C4084 C 0.0916 0.58667 0.31244 0.0
C4085 C 0.08445 0.61417 0.41298 0.0
C4086 C 0.06828 0.60174 0.4067 0.0
C4087 C 0.09706 0.61757 0.40084 0.0
C4088 C 0.09371 0.608 0.38258 0.0
C4089 C 0.0767 0.59787 0.37586 0.0
C4090 C 0.06406 0.59489 0.38779 0.0
C4091 C 0.10796 0.60504 0.37134 0.0
C4092 C 0.10513 0.60546 0.35233 0.0
C4093 C 0.12208 0.59756 0.37819 0.0
C4094 C 0.12584 0.5959 0.39784 0.0
C4095 C 0.11436 0.58312 0.40618 0.0
C4096 C 0.11841 0.58108 0.42453 0.0
C4097 C 0.13403 0.59152 0.43455 0.0
C4098 C 0.14562 0.60406 0.42629 0.0
C4099 C 0.14158 0.60623 0.40797 0.0
H4100 H 0.1372 0.58981 0.44867 0.0
H4101 H 0.09538 0.58687 0.26677 0.0
H4102 H 0.82031 0.85006 0.58124 0.0
H4103 H 0.81575 0.83441 0.60829 0.0
H4104 H 0.77852 0.86809 0.62353 0.0
H4105 H 0.78414 0.88467 0.59724 0.0
H4106 H 0.79297 0.8652 0.65298 0.0
H4107 H 0.76862 0.81647 0.60264 0.0
H4108 H 0.76701 0.79529 0.57313 0.0
H4109 H 0.80876 0.77232 0.59548 0.0
H4110 H 0.81078 0.79354 0.62507 0.0
H4111 H 0.75221 0.7937 0.70792 0.0
H4112 H 0.75705 0.80934 0.68066 0.0
H4113 H 0.8123 0.81278 0.69123 0.0
H4114 H 0.80762 0.79785 0.71889 0.0
H4115 H 0.7876 0.796 0.64914 0.0
H4116 H 0.81 0.84906 0.7007 0.0
H4117 H 0.80547 0.86781 0.72971 0.0
H4118 H 0.75954 0.88011 0.70276 0.0
H4119 H 0.7636 0.86105 0.6737 0.0
C4120 C 0.81118 0.85416 0.59039 0.0
C4121 C 0.80261 0.86869 0.58695 0.0
C4122 C 0.80838 0.845 0.60588 0.0
C4123 C 0.7964 0.84951 0.61812 0.0
C4124 C 0.78787 0.86411 0.61461 0.0
C4125 C 0.79105 0.87363 0.59942 0.0
C4126 C 0.79299 0.83943 0.63467 0.0
C4127 C 0.7917 0.85004 0.65185 0.0
C4128 C 0.79108 0.81951 0.63379 0.0
C4129 C 0.78998 0.80675 0.61601 0.0
C4130 C 0.77755 0.80701 0.60122 0.0
C4131 C 0.77655 0.79498 0.58448 0.0
C4132 C 0.78781 0.78251 0.58241 0.0
C4133 C 0.80007 0.78201 0.59709 0.0
C4134 C 0.80114 0.79403 0.61386 0.0
C4135 C 0.76541 0.79792 0.70453 0.0
C4136 C 0.77952 0.79462 0.71576 0.0
C4137 C 0.76816 0.80681 0.68886 0.0
C4138 C 0.78505 0.81226 0.68373 0.0
C4139 C 0.79914 0.80876 0.6948 0.0
C4140 C 0.79645 0.80031 0.71073 0.0
C4141 C 0.78803 0.82191 0.66708 0.0
C4142 C 0.78905 0.81118 0.64999 0.0
C4143 C 0.78907 0.84155 0.66783 0.0
C4144 C 0.78699 0.85346 0.68512 0.0
C4145 C 0.79885 0.85561 0.70102 0.0
C4146 C 0.79638 0.86631 0.71746 0.0
C4147 C 0.78219 0.8751 0.7181 0.0
C4148 C 0.7705 0.87327 0.70226 0.0
C4149 C 0.77288 0.86252 0.68581 0.0
H4150 H 0.78029 0.88336 0.73084 0.0
H4151 H 0.78701 0.77321 0.56945 0.0
H4152 H 0.73799 0.4274 0.50427 0.0
H4153 H 0.71578 0.44426 0.51478 0.0
H4154 H 0.75611 0.49266 0.53924 0.0
H4155 H 0.77838 0.47615 0.52834 0.0
H4156 H 0.72723 0.47726 0.56263 0.0
H4157 H 0.73875 0.50217 0.50685 0.0
H4158 H 0.74365 0.49987 0.47405 0.0
H4159 H 0.69245 0.4645 0.4585 0.0
H4160 H 0.68736 0.46641 0.49129 0.0
H4161 H 0.67366 0.54844 0.56706 0.0
H4162 H 0.69653 0.5303 0.56522 0.0
H4163 H 0.6587 0.4811 0.53764 0.0
H4164 H 0.63558 0.49878 0.54012 0.0
H4165 H 0.68746 0.49758 0.51738 0.0
H4166 H 0.67564 0.47559 0.57456 0.0
H4167 H 0.67202 0.4782 0.60768 0.0
H4168 H 0.72493 0.50961 0.62137 0.0
H4169 H 0.7288 0.50742 0.58829 0.0
C4170 C 0.74208 0.44172 0.51167 0.0
C4171 C 0.75982 0.45056 0.51537 0.0
C4172 C 0.72945 0.45123 0.51776 0.0
C4173 C 0.73445 0.46954 0.5279 0.0
C4174 C 0.75213 0.47846 0.53155 0.0
C4175 C 0.76475 0.46911 0.52513 0.0
C4176 C 0.72102 0.47951 0.53409 0.0
C4177 C 0.71864 0.48199 0.55286 0.0
C4178 C 0.70985 0.48536 0.52121 0.0
C4179 C 0.71275 0.48426 0.50149 0.0
C4180 C 0.7286 0.49376 0.49644 0.0
C4181 C 0.7314 0.49257 0.47786 0.0
C4182 C 0.71839 0.482 0.4642 0.0
C4183 C 0.70253 0.47266 0.4691 0.0
C4184 C 0.69967 0.47381 0.48768 0.0
C4185 C 0.67007 0.53359 0.56118 0.0
C4186 C 0.65286 0.52517 0.55335 0.0
C4187 C 0.68316 0.52327 0.56016 0.0
C4188 C 0.67922 0.50448 0.55123 0.0
C4189 C 0.66191 0.49565 0.54455 0.0
C4190 C 0.64879 0.50585 0.54577 0.0
C4191 C 0.69338 0.49518 0.54596 0.0
C4192 C 0.696 0.49291 0.52725 0.0
C4193 C 0.70485 0.48981 0.55902 0.0
C4194 C 0.70242 0.49158 0.57891 0.0
C4195 C 0.68643 0.4833 0.58461 0.0
C4196 C 0.68435 0.48463 0.60339 0.0
C4197 C 0.69821 0.49413 0.61662 0.0
C4198 C 0.71419 0.5023 0.6111 0.0
C4199 C 0.71633 0.50101 0.59233 0.0
H4200 H 0.69659 0.49511 0.63115 0.0
H4201 H 0.72058 0.48109 0.44982 0.0
H4202 H 0.21508 0.17617 0.5008 0.0
H4203 H 0.18606 0.15651 0.50135 0.0
H4204 H 0.20897 0.10822 0.50562 0.0
H4205 H 0.23787 0.12767 0.50414 0.0
H4206 H 0.18116 0.09643 0.48421 0.0
H4207 H 0.19312 0.13561 0.54363 0.0
H4208 H 0.20089 0.16552 0.56556 0.0
H4209 H 0.15588 0.18277 0.54247 0.0
H4210 H 0.14797 0.15305 0.52024 0.0
H4211 H 0.11153 0.03803 0.51849 0.0
H4212 H 0.13894 0.05954 0.51573 0.0
H4213 H 0.11049 0.10036 0.49966 0.0
H4214 H 0.08284 0.07855 0.50214 0.0
H4215 H 0.13988 0.11675 0.52598 0.0
H4216 H 0.12773 0.07547 0.46755 0.0
H4217 H 0.12068 0.04487 0.44669 0.0
H4218 H 0.16721 0.03065 0.47001 0.0
H4219 H 0.17441 0.06106 0.49119 0.0
C4220 C 0.21392 0.16133 0.50177 0.0
C4221 C 0.22886 0.15352 0.50241 0.0
C4222 C 0.19726 0.15008 0.50227 0.0
C4223 C 0.1951 0.13079 0.50392 0.0
C4224 C 0.21007 0.12298 0.50436 0.0
C4225 C 0.22667 0.13415 0.50353 0.0
C4226 C 0.17736 0.11864 0.50491 0.0
C4227 C 0.17231 0.10087 0.49357 0.0
C4228 C 0.16537 0.12436 0.51674 0.0
C4229 C 0.17006 0.14219 0.53014 0.0
C4230 C 0.18495 0.14584 0.54315 0.0
C4231 C 0.18937 0.16274 0.55564 0.0
C4232 C 0.17891 0.17605 0.55537 0.0
C4233 C 0.16399 0.17246 0.54264 0.0
C4234 C 0.15952 0.15558 0.5301 0.0
C4235 C 0.11102 0.05155 0.5143 0.0
C4236 C 0.09484 0.0565 0.51049 0.0
C4237 C 0.12678 0.06387 0.51269 0.0
C4238 C 0.12693 0.08161 0.50734 0.0
C4239 C 0.11082 0.08677 0.5038 0.0
C4240 C 0.09496 0.07428 0.50519 0.0
C4241 C 0.14392 0.09456 0.50547 0.0
C4242 C 0.14879 0.11243 0.51662 0.0
C4243 C 0.1559 0.08883 0.4937 0.0
C4244 C 0.15151 0.07047 0.48108 0.0
C4245 C 0.13637 0.06574 0.46835 0.0
C4246 C 0.13236 0.04844 0.45644 0.0
C4247 C 0.14346 0.0358 0.45706 0.0
C4248 C 0.15861 0.04044 0.46957 0.0
C4249 C 0.16266 0.05772 0.48151 0.0
H4250 H 0.14035 0.02243 0.44781 0.0
H4251 H 0.18236 0.18914 0.56506 0.0
H4252 H 0.17163 0.95038 0.75971 0.0
H4253 H 0.18636 0.92378 0.75663 0.0
H4254 H 0.2327 0.95951 0.78784 0.0
H4255 H 0.21812 0.98633 0.79012 0.0
H4256 H 0.24537 0.93815 0.76644 0.0
H4257 H 0.19651 0.91477 0.80078 0.0
H4258 H 0.16523 0.90545 0.80463 0.0
H4259 H 0.15632 0.86745 0.75315 0.0
H4260 H 0.18752 0.87653 0.74902 0.0
H4261 H 0.29205 0.86427 0.77842 0.0
H4262 H 0.27623 0.88976 0.78038 0.0
H4263 H 0.22921 0.85019 0.75537 0.0
H4264 H 0.245 0.82431 0.75468 0.0
H4265 H 0.21604 0.87301 0.77216 0.0
H4266 H 0.26078 0.89332 0.7357 0.0
H4267 H 0.2903 0.90209 0.72626 0.0
H4268 H 0.30525 0.94516 0.77405 0.0
H4269 H 0.27587 0.93651 0.78388 0.0
C4270 C 0.18495 0.95276 0.76608 0.0
C4271 C 0.19324 0.97121 0.77534 0.0
C4272 C 0.19357 0.93706 0.76448 0.0
C4273 C 0.21109 0.93845 0.77237 0.0
C4274 C 0.21937 0.95702 0.78147 0.0
C4275 C 0.21081 0.97275 0.78289 0.0
C4276 C 0.22085 0.92128 0.77094 0.0
C4277 C 0.23879 0.92407 0.76811 0.0
C4278 C 0.21295 0.90194 0.77193 0.0
C4279 C 0.19429 0.89644 0.77454 0.0
C4280 C 0.18785 0.90446 0.79029 0.0
C4281 C 0.17015 0.89921 0.79252 0.0
C4282 C 0.15879 0.8859 0.77913 0.0
C4283 C 0.16512 0.87778 0.7635 0.0
C4284 C 0.18281 0.88292 0.76124 0.0
C4285 C 0.27834 0.86074 0.77319 0.0
C4286 C 0.27032 0.84151 0.76621 0.0
C4287 C 0.26903 0.87582 0.77407 0.0
C4288 C 0.25099 0.87312 0.76747 0.0
C4289 C 0.24291 0.85376 0.76063 0.0
C4290 C 0.25217 0.83854 0.76013 0.0
C4291 C 0.24076 0.88996 0.76809 0.0
C4292 C 0.22274 0.88711 0.77069 0.0
C4293 C 0.24842 0.90914 0.76621 0.0
C4294 C 0.26621 0.91409 0.76064 0.0
C4295 C 0.27042 0.90454 0.74428 0.0
C4296 C 0.28711 0.90952 0.73884 0.0
C4297 C 0.29966 0.92412 0.74959 0.0
C4298 C 0.29554 0.93381 0.76577 0.0
C4299 C 0.27886 0.92888 0.77128 0.0
H4300 H 0.31257 0.92798 0.74534 0.0
H4301 H 0.1451 0.88184 0.78088 0.0
H4302 H 0.33916 0.97506 0.01692 0.0
H4303 H 0.36913 0.99284 0.01822 0.0
H4304 H 0.38691 0.94064 0.00823 0.0
H4305 H 0.35693 0.92268 0.00717 0.0
H4306 H 0.41016 0.96883 0.03317 0.0
H4307 H 0.38011 0.95909 0.97294 0.0
H4308 H 0.35531 0.95814 0.94981 0.0
H4309 H 0.36088 0.01816 0.96421 0.0
H4310 H 0.38558 0.01941 0.98766 0.0
H4311 H 0.48236 1.00444 0.98372 0.0
H4312 H 0.45265 0.98781 0.98659 0.0
H4313 H 0.44484 0.03688 0.02195 0.0
H4314 H 0.47497 0.0533 0.01992 0.0
H4315 H 0.41717 0.00978 0.98453 0.0
H4316 H 0.45 0.01618 0.04625 0.0
H4317 H 0.47668 0.01348 0.06439 0.0
H4318 H 0.46672 0.9541 0.0434 0.0
H4319 H 0.44051 0.95679 0.02394 0.0
C4320 C 0.34948 0.96739 0.01516 0.0
C4321 C 0.34581 0.94758 0.01155 0.0
C4322 C 0.36653 0.97752 0.01604 0.0
C4323 C 0.38001 0.96794 0.0131 0.0
C4324 C 0.37656 0.94816 0.01053 0.0
C4325 C 0.35948 0.93799 0.00974 0.0
C4326 C 0.39724 0.97861 0.0106 0.0
C4327 C 0.41174 0.97778 0.02257 0.0
C4328 C 0.39918 0.98988 0.99647 0.0
C4329 C 0.38457 0.98932 0.98216 0.0
C4330 C 0.37597 0.97207 0.97126 0.0
C4331 C 0.36194 0.97147 0.95808 0.0
C4332 C 0.3565 0.98807 0.95557 0.0
C4333 C 0.36511 1.00531 0.96619 0.0
C4334 C 0.37913 1.00598 0.97942 0.0
C4335 C 0.47419 0.01171 0.9919 0.0
C4336 C 0.4807 0.02999 1.00169 0.0
C4337 C 0.45737 1.00224 0.99354 0.0
C4338 C 0.44691 0.01119 0.00462 0.0
C4339 C 0.453 0.02987 0.0135 0.0
C4340 C 0.47004 0.03914 0.01235 0.0
C4341 C 0.42989 1.00058 0.00755 0.0
C4342 C 0.41549 1.00112 0.99538 0.0
C4343 C 0.4282 0.98861 0.0211 0.0
C4344 C 0.44349 0.98679 0.03335 0.0
C4345 C 0.45365 1.00262 0.0452 0.0
C4346 C 0.46869 1.00108 0.05578 0.0
C4347 C 0.4734 0.98361 0.05519 0.0
C4348 C 0.46309 0.96765 0.04385 0.0
C4349 C 0.4482 0.9692 0.03292 0.0
H4350 H 0.48502 0.98243 0.0635 0.0
H4351 H 0.34563 0.98758 0.94537 0.0
H4352 H 0.87825 0.56289 0.79109 0.0
H4353 H 0.86041 0.5816 0.77627 0.0
H4354 H 0.90692 0.61683 0.7624 0.0
H4355 H 0.92487 0.59832 0.77737 0.0
H4356 H 0.88541 0.63666 0.77807 0.0
H4357 H 0.87958 0.58402 0.72944 0.0
H4358 H 0.87268 0.55033 0.71556 0.0
H4359 H 0.8197 0.5454 0.7277 0.0
H4360 H 0.82633 0.57897 0.74194 0.0
H4361 H 0.83707 0.6913 0.73387 0.0
H4362 H 0.85727 0.67037 0.73783 0.0
H4363 H 0.81423 0.62601 0.74529 0.0
H4364 H 0.79399 0.6467 0.74059 0.0
H4365 H 0.83606 0.61037 0.72897 0.0
H4366 H 0.84109 0.65658 0.78277 0.0
H4367 H 0.84739 0.6861 0.8052 0.0
H4368 H 0.89915 0.70029 0.78948 0.0
H4369 H 0.8931 0.67093 0.7668 0.0
C4370 C 0.88469 0.57479 0.78511 0.0
C4371 C 0.90296 0.57926 0.7855 0.0
C4372 C 0.87447 0.58523 0.77636 0.0
C4373 C 0.88235 0.60023 0.76781 0.0
C4374 C 0.90061 0.6051 0.76871 0.0
C4375 C 0.91085 0.59469 0.77747 0.0
C4376 C 0.87166 0.61193 0.75939 0.0
C4377 C 0.8749 0.63106 0.76696 0.0
C4378 C 0.85751 0.60426 0.74549 0.0
C4379 C 0.85351 0.58403 0.73689 0.0
C4380 C 0.86649 0.57573 0.7293 0.0
C4381 C 0.86262 0.55665 0.72134 0.0
C4382 C 0.84577 0.54573 0.72077 0.0
C4383 C 0.83275 0.55387 0.72815 0.0
C4384 C 0.83656 0.57293 0.73615 0.0
C4385 C 0.83195 0.67693 0.73596 0.0
C4386 C 0.81405 0.67056 0.73705 0.0
C4387 C 0.84347 0.66503 0.73834 0.0
C4388 C 0.83733 0.64677 0.74231 0.0
C4389 C 0.8193 0.64005 0.74227 0.0
C4390 C 0.80773 0.65184 0.73957 0.0
C4391 C 0.84971 0.6352 0.74787 0.0
C4392 C 0.84682 0.6161 0.73976 0.0
C4393 C 0.86391 0.64268 0.76177 0.0
C4394 C 0.86658 0.66167 0.77299 0.0
C4395 C 0.85366 0.66622 0.78377 0.0
C4396 C 0.85724 0.68283 0.79665 0.0
C4397 C 0.87372 0.6949 0.79892 0.0
C4398 C 0.88645 0.69082 0.78781 0.0
C4399 C 0.88293 0.67425 0.7749 0.0
H4400 H 0.87667 0.70734 0.8094 0.0
H4401 H 0.8428 0.53096 0.7146 0.0
H4402 H 0.82341 0.65242 0.98636 0.0
H4403 H 0.84908 0.63909 0.99194 0.0
H4404 H 0.85033 0.65645 0.05059 0.0
H4405 H 0.82545 0.67111 0.04481 0.0
H4406 H 0.88134 0.6601 0.04521 0.0
H4407 H 0.83399 0.60795 0.02628 0.0
H4408 H 0.80786 0.58809 0.00707 0.0
H4409 H 0.83783 0.581 0.96148 0.0
H4410 H 0.86409 0.60104 0.98035 0.0
H4411 H 0.93642 0.59387 0.06286 0.0
H4412 H 0.91269 0.61096 0.06132 0.0
H4413 H 0.9147 0.60902 1.00278 0.0
H4414 H 0.93803 0.59162 1.00411 0.0
H4415 H 0.88163 0.59685 0.01103 0.0
H4416 H 0.93026 0.65017 0.03514 0.0
H4417 H 0.95461 0.66758 0.05837 0.0
H4418 H 0.91951 0.66852 0.09993 0.0
H4419 H 0.895 0.65088 0.07702 0.0
C4420 C 0.82915 0.65336 1.00044 0.0
C4421 C 0.82225 0.66262 0.01514 0.0
C4422 C 0.84383 0.64559 1.00369 0.0
C4423 C 0.85157 0.64613 0.0218 0.0
C4424 C 0.84474 0.65566 0.03648 0.0
C4425 C 0.8304 0.66396 0.03318 0.0
C4426 C 0.86658 0.63664 0.02532 0.0
C4427 C 0.88123 0.64616 0.03786 0.0
C4428 C 0.86667 0.6183 0.01605 0.0
C4429 C 0.85096 0.60613 0.00468 0.0
C4430 C 0.83498 0.60224 0.01212 0.0
C4431 C 0.82015 0.59095 1.0013 0.0
C4432 C 0.82118 0.58332 0.98305 0.0
C4433 C 0.83705 0.58693 0.97561 0.0
C4434 C 0.85191 0.59824 0.98636 0.0
C4435 C 0.93186 0.59712 0.04965 0.0
C4436 C 0.93922 0.59124 0.03359 0.0
C4437 C 0.91836 0.60708 0.04882 0.0
C4438 C 0.91187 0.61142 0.03193 0.0
C4439 C 0.91944 0.60592 0.016 0.0
C4440 C 0.93294 0.59606 0.01682 0.0
C4441 C 0.89649 0.62054 0.03038 0.0
C4442 C 0.88169 0.61081 0.01832 0.0
C4443 C 0.89604 0.63829 0.04069 0.0
C4444 C 0.91082 0.64903 0.05438 0.0
C4445 C 0.92776 0.65395 0.04926 0.0
C4446 C 0.94158 0.66389 0.06237 0.0
C4447 C 0.93862 0.66911 0.08062 0.0
C4448 C 0.9218 0.66445 0.08579 0.0
C4449 C 0.90793 0.6545 0.07274 0.0
H4450 H 0.94934 0.6768 0.09074 0.0
H4451 H 0.80968 0.57459 0.97469 0.0
H4452 H 0.22301 0.07366 0.78335 0.0
H4453 H 0.23915 0.10596 0.78255 0.0
H4454 H 0.19063 0.12394 0.77477 0.0
H4455 H 0.17451 0.09156 0.77531 0.0
H4456 H 0.21102 0.14297 0.75497 0.0
H4457 H 0.22086 0.13561 0.81786 0.0
H4458 H 0.22937 0.12054 0.84414 0.0
H4459 H 0.2814 0.12645 0.82878 0.0
H4460 H 0.27313 0.14137 0.80226 0.0
H4461 H 0.25445 0.24358 0.77207 0.0
H4462 H 0.23603 0.21209 0.77299 0.0
H4463 H 0.28218 0.18969 0.7806 0.0
H4464 H 0.30032 0.22077 0.77988 0.0
H4465 H 0.26167 0.1735 0.80123 0.0
H4466 H 0.25065 0.18081 0.73745 0.0
H4467 H 0.24119 0.19627 0.71183 0.0
H4468 H 0.19029 0.19131 0.73008 0.0
H4469 H 0.19951 0.176 0.75593 0.0
C4470 C 0.21567 0.08442 0.78153 0.0
C4471 C 0.19719 0.07948 0.77953 0.0
C4472 C 0.22504 0.10324 0.78117 0.0
C4473 C 0.21649 0.11826 0.77888 0.0
C4474 C 0.198 0.1132 0.77661 0.0
C4475 C 0.18863 0.0944 0.77701 0.0
C4476 C 0.22666 0.13891 0.77887 0.0
C4477 C 0.22195 0.14957 0.76532 0.0
C4478 C 0.24125 0.14829 0.79203 0.0
C4479 C 0.24633 0.13944 0.80798 0.0
C4480 C 0.23409 0.13359 0.82002 0.0
C4481 C 0.23887 0.12509 0.83497 0.0
C4482 C 0.25591 0.12249 0.8381 0.0
C4483 C 0.26821 0.12845 0.82632 0.0
C4484 C 0.26348 0.13695 0.81134 0.0
C4485 C 0.26072 0.23199 0.77394 0.0
C4486 C 0.27918 0.23525 0.77588 0.0
C4487 C 0.25005 0.21366 0.77434 0.0
C4488 C 0.25731 0.19767 0.77669 0.0
C4489 C 0.27574 0.20118 0.7788 0.0
C4490 C 0.28629 0.2193 0.77832 0.0
C4491 C 0.24622 0.1775 0.77716 0.0
C4492 C 0.25076 0.16691 0.79085 0.0
C4493 C 0.23139 0.16829 0.76423 0.0
C4494 C 0.22583 0.17745 0.74872 0.0
C4495 C 0.23747 0.18313 0.73606 0.0
C4496 C 0.23215 0.19185 0.72149 0.0
C4497 C 0.21516 0.19482 0.71936 0.0
C4498 C 0.20345 0.18903 0.73176 0.0
C4499 C 0.20871 0.18032 0.74637 0.0
H4500 H 0.21107 0.20157 0.70807 0.0
H4501 H 0.25959 0.1159 0.84967 0.0
H4502 H 0.39146 0.99204 0.2569 0.0
H4503 H 0.37332 0.9601 0.25231 0.0
H4504 H 0.40602 0.94602 0.29598 0.0
H4505 H 0.4247 0.97772 0.3 0.0
H4506 H 0.38647 0.91401 0.27175 0.0
H4507 H 0.37889 0.97074 0.30995 0.0
H4508 H 0.3774 1.0044 0.31523 0.0
H4509 H 0.33365 0.99313 0.27332 0.0
H4510 H 0.33514 0.95943 0.26756 0.0
H4511 H 0.32567 0.86436 0.32087 0.0
H4512 H 0.34624 0.89325 0.3172 0.0
H4513 H 0.31507 0.89647 0.26713 0.0
H4514 H 0.29476 0.86734 0.27045 0.0
H4515 H 0.3334 0.93303 0.29332 0.0
H4516 H 0.34102 0.8734 0.25843 0.0
H4517 H 0.34445 0.84035 0.25616 0.0
H4518 H 0.38944 0.85768 0.29654 0.0
H4519 H 0.38616 0.89079 0.29933 0.0
C4520 C 0.39513 0.98181 0.26494 0.0
C4521 C 0.40884 0.98721 0.27929 0.0
C4522 C 0.38497 0.96359 0.26215 0.0
C4523 C 0.38812 0.95117 0.27427 0.0
C4524 C 0.40341 0.95562 0.28666 0.0
C4525 C 0.41388 0.97373 0.28911 0.0
C4526 C 0.37346 0.93697 0.27796 0.0
C4527 C 0.37485 0.91809 0.2764 0.0
C4528 C 0.35853 0.94257 0.28441 0.0
C4529 C 0.35725 0.96267 0.28818 0.0
C4530 C 0.36902 0.97548 0.30181 0.0
C4531 C 0.36818 0.99455 0.30488 0.0
C4532 C 0.35547 1.00091 0.29459 0.0
C4533 C 0.34352 0.98819 0.28125 0.0
C4534 C 0.34436 0.9691 0.27807 0.0
C4535 C 0.32291 0.87173 0.30953 0.0
C4536 C 0.30903 0.86383 0.29575 0.0
C4537 C 0.3346 0.88805 0.30744 0.0
C4538 C 0.33208 0.89648 0.29177 0.0
C4539 C 0.31704 0.88988 0.27922 0.0
C4540 C 0.30558 0.87336 0.28109 0.0
C4541 C 0.34635 0.91012 0.28685 0.0
C4542 C 0.34491 0.92892 0.28836 0.0
C4543 C 0.36135 0.90446 0.28081 0.0
C4544 C 0.36326 0.88454 0.27918 0.0
C4545 C 0.35153 0.87014 0.26697 0.0
C4546 C 0.35345 0.85141 0.26558 0.0
C4547 C 0.36713 0.84695 0.2762 0.0
C4548 C 0.37886 0.86118 0.28834 0.0
C4549 C 0.37698 0.87992 0.28982 0.0
H4550 H 0.36871 0.8325 0.27493 0.0
H4551 H 0.35485 0.01569 0.29697 0.0
H4552 H 0.58249 0.37925 0.62876 0.0
H4553 H 0.57957 0.40712 0.61484 0.0
H4554 H 0.56012 0.37152 0.56254 0.0
H4555 H 0.56366 0.34363 0.57635 0.0
H4556 H 0.57902 0.40167 0.55503 0.0
H4557 H 0.53309 0.3928 0.59297 0.0
H4558 H 0.51907 0.38809 0.62118 0.0
H4559 H 0.54946 0.44165 0.649 0.0
H4560 H 0.56384 0.44657 0.62101 0.0
H4561 H 0.53966 0.47446 0.52016 0.0
H4562 H 0.54286 0.4456 0.53256 0.0
H4563 H 0.58027 0.47912 0.5767 0.0
H4564 H 0.57762 0.50789 0.56406 0.0
H4565 H 0.55096 0.44973 0.58731 0.0
H4566 H 0.59693 0.45704 0.54739 0.0
H4567 H 0.60812 0.46119 0.51759 0.0
H4568 H 0.57362 0.40915 0.49171 0.0
H4569 H 0.56205 0.40484 0.52134 0.0
C4570 C 0.57765 0.3773 0.61426 0.0
C4571 C 0.57329 0.35901 0.60378 0.0
C4572 C 0.57582 0.39335 0.60627 0.0
C4573 C 0.56922 0.39174 0.58756 0.0
C4574 C 0.56518 0.37347 0.57697 0.0
C4575 C 0.56719 0.3574 0.58493 0.0
C4576 C 0.56653 0.40899 0.57916 0.0
C4577 C 0.57267 0.41196 0.5621 0.0
C4578 C 0.55829 0.42282 0.58808 0.0
C4579 C 0.54968 0.41996 0.60495 0.0
C4580 C 0.53688 0.40351 0.60514 0.0
C4581 C 0.52885 0.40081 0.62109 0.0
C4582 C 0.53341 0.41453 0.63689 0.0
C4583 C 0.54597 0.43101 0.63676 0.0
C4584 C 0.55405 0.43377 0.62085 0.0
C4585 C 0.54867 0.47571 0.53243 0.0
C4586 C 0.55845 0.49365 0.54096 0.0
C4587 C 0.55048 0.45914 0.53955 0.0
C4588 C 0.56179 0.46002 0.55568 0.0
C4589 C 0.57142 0.47792 0.5643 0.0
C4590 C 0.56996 0.49442 0.55695 0.0
C4591 C 0.56367 0.44238 0.5635 0.0
C4592 C 0.5573 0.43935 0.58037 0.0
C4593 C 0.57135 0.42834 0.55425 0.0
C4594 C 0.57851 0.43071 0.53653 0.0
C4595 C 0.59164 0.44656 0.53531 0.0
C4596 C 0.59807 0.44893 0.51846 0.0
C4597 C 0.59155 0.43547 0.50275 0.0
C4598 C 0.57864 0.41957 0.50388 0.0
C4599 C 0.57216 0.41715 0.52071 0.0
H4600 H 0.59652 0.43733 0.48971 0.0
H4601 H 0.52718 0.41242 0.64923 0.0
H4602 H 0.44661 0.76401 0.40525 0.0
H4603 H 0.41914 0.77042 0.39218 0.0
H4604 H 0.44514 0.79334 0.34847 0.0
H4605 H 0.47269 0.78703 0.3616 0.0
H4606 H 0.42394 0.81554 0.36026 0.0
H4607 H 0.41631 0.74856 0.34183 0.0
H4608 H 0.41557 0.71572 0.34664 0.0
H4609 H 0.37518 0.71839 0.38204 0.0
H4610 H 0.37583 0.75137 0.37762 0.0
H4611 H 0.35245 0.81262 0.29436 0.0
H4612 H 0.37816 0.80834 0.31253 0.0
H4613 H 0.34628 0.78903 0.35384 0.0
H4614 H 0.32008 0.79348 0.33531 0.0
H4615 H 0.36943 0.76586 0.3461 0.0
H4616 H 0.37543 0.8322 0.36248 0.0
H4617 H 0.37572 0.8647 0.35682 0.0
H4618 H 0.41901 0.86338 0.32523 0.0
H4619 H 0.41881 0.83073 0.33043 0.0
C4620 C 0.4465 0.77024 0.39274 0.0
C4621 C 0.46204 0.77476 0.38446 0.0
C4622 C 0.43065 0.77392 0.3852 0.0
C4623 C 0.42969 0.78229 0.36907 0.0
C4624 C 0.44524 0.7869 0.36085 0.0
C4625 C 0.46108 0.78312 0.36834 0.0
C4626 C 0.41263 0.78629 0.36086 0.0
C4627 C 0.41212 0.80456 0.35703 0.0
C4628 C 0.39677 0.77233 0.35698 0.0
C4629 C 0.39625 0.75249 0.35955 0.0
C4630 C 0.40735 0.74219 0.35074 0.0
C4631 C 0.40694 0.72354 0.35338 0.0
C4632 C 0.39537 0.71499 0.36468 0.0
C4633 C 0.38415 0.72505 0.37331 0.0
C4634 C 0.38453 0.74371 0.37074 0.0
C4635 C 0.35084 0.80784 0.3075 0.0
C4636 C 0.33407 0.80371 0.31336 0.0
C4637 C 0.3657 0.80535 0.31797 0.0
C4638 C 0.36453 0.79845 0.33483 0.0
C4639 C 0.34778 0.79443 0.34096 0.0
C4640 C 0.33275 0.79719 0.33045 0.0
C4641 C 0.38081 0.79504 0.34535 0.0
C4642 C 0.3812 0.77689 0.34953 0.0
C4643 C 0.39656 0.80913 0.34958 0.0
C4644 C 0.39702 0.82893 0.34674 0.0
C4645 C 0.38496 0.83879 0.35424 0.0
C4646 C 0.38511 0.85725 0.35111 0.0
C4647 C 0.39735 0.86608 0.34064 0.0
C4648 C 0.40953 0.85651 0.33335 0.0
C4649 C 0.40942 0.83803 0.33639 0.0
H4650 H 0.39741 0.88035 0.33818 0.0
H4651 H 0.39507 0.70056 0.36671 0.0
H4652 H 0.04181 0.74496 0.11066 0.0
H4653 H 0.03837 0.71178 0.09743 0.0
H4654 H 0.08495 0.72577 0.07075 0.0
H4655 H 0.08822 0.75933 0.08367 0.0
H4656 H 0.06057 0.69895 0.04831 0.0
H4657 H 0.08522 0.70702 0.11179 0.0
H4658 H 0.08667 0.71691 0.1454 0.0
H4659 H 0.03694 0.67984 0.14593 0.0
H4660 H 0.03508 0.66993 0.11229 0.0
H4661 H 0.0745 0.60272 0.03728 0.0
H4662 H 0.0786 0.63706 0.04718 0.0
H4663 H 0.02732 0.62856 0.06526 0.0
H4664 H 0.02292 0.59454 0.05495 0.0
H4665 H 0.05536 0.6525 0.09181 0.0
H4666 H 0.02942 0.64531 0.02964 0.0
H4667 H 0.02624 0.63509 0.99599 0.0
H4668 H 0.07652 0.66993 0.99293 0.0
H4669 H 0.08013 0.68012 0.02668 0.0
C4670 C 0.05128 0.74106 0.10184 0.0
C4671 C 0.06538 0.75484 0.09835 0.0
C4672 C 0.04934 0.72199 0.09435 0.0
C4673 C 0.06162 0.71606 0.08341 0.0
C4674 C 0.07535 0.72989 0.07924 0.0
C4675 C 0.07722 0.74909 0.08664 0.0
C4676 C 0.06033 0.69542 0.07687 0.0
C4677 C 0.05976 0.68888 0.05789 0.0
C4678 C 0.05878 0.68203 0.08922 0.0
C4679 C 0.05996 0.68785 0.10949 0.0
C4680 C 0.07455 0.70107 0.11906 0.0
C4681 C 0.07544 0.70666 0.13812 0.0
C4682 C 0.06189 0.69903 0.14779 0.0
C4683 C 0.04743 0.68575 0.13843 0.0
C4684 C 0.04645 0.68012 0.11937 0.0
C4685 C 0.06411 0.6082 0.04333 0.0
C4686 C 0.04838 0.59587 0.04526 0.0
C4687 C 0.06644 0.62782 0.04893 0.0
C4688 C 0.05325 0.6354 0.05696 0.0
C4689 C 0.03767 0.62307 0.05911 0.0
C4690 C 0.03517 0.6036 0.05313 0.0
C4691 C 0.05566 0.65614 0.06335 0.0
C4692 C 0.05639 0.66265 0.0823 0.0
C4693 C 0.0572 0.66942 0.05098 0.0
C4694 C 0.05517 0.66325 0.03073 0.0
C4695 C 0.03991 0.65061 0.02184 0.0
C4696 C 0.038 0.64486 1.00274 0.0
C4697 C 0.05121 0.6518 0.99233 0.0
C4698 C 0.06633 0.66453 1.00102 0.0
C4699 C 0.06831 0.6703 0.02014 0.0
H4700 H 0.0497 0.64736 0.97754 0.0
H4701 H 0.06261 0.70339 0.16254 0.0
H4702 H 0.07546 0.28952 0.91498 0.0
H4703 H 0.10385 0.2933 0.90318 0.0
H4704 H 0.07821 0.27325 0.84784 0.0
H4705 H 0.04976 0.26849 0.85984 0.0
H4706 H 0.10445 0.25846 0.85097 0.0
H4707 H 0.09927 0.32357 0.86879 0.0
H4708 H 0.09557 0.35088 0.89064 0.0
H4709 H 0.14107 0.34758 0.9254 0.0
H4710 H 0.14493 0.32012 0.90387 0.0
H4711 H 0.17129 0.28979 0.79783 0.0
H4712 H 0.14554 0.28739 0.81434 0.0
H4713 H 0.17819 0.29733 0.8662 0.0
H4714 H 0.20429 0.29996 0.84962 0.0
H4715 H 0.15052 0.31718 0.86763 0.0
H4716 H 0.15681 0.25412 0.85127 0.0
H4717 H 0.16185 0.22663 0.83069 0.0
H4718 H 0.11541 0.22565 0.79524 0.0
H4719 H 0.11022 0.25332 0.81551 0.0
C4720 C 0.07584 0.28592 0.90027 0.0
C4721 C 0.06021 0.27871 0.88838 0.0
C4722 C 0.09219 0.28828 0.89346 0.0
C4723 C 0.09349 0.28402 0.87443 0.0
C4724 C 0.07782 0.27675 0.86256 0.0
C4725 C 0.06146 0.27404 0.86943 0.0
C4726 C 0.111 0.28646 0.8669 0.0
C4727 C 0.11432 0.27148 0.85448 0.0
C4728 C 0.12454 0.30305 0.87196 0.0
C4729 C 0.12229 0.31967 0.88479 0.0
C4730 C 0.10843 0.3286 0.88114 0.0
C4731 C 0.10631 0.34412 0.89347 0.0
C4732 C 0.11805 0.35093 0.90942 0.0
C4733 C 0.13197 0.34228 0.91305 0.0
C4734 C 0.13414 0.32675 0.90078 0.0
C4735 C 0.17313 0.29165 0.81276 0.0
C4736 C 0.19005 0.29511 0.82229 0.0
C4737 C 0.15829 0.29017 0.82223 0.0
C4738 C 0.15974 0.29209 0.8416 0.0
C4739 C 0.1766 0.29581 0.85128 0.0
C4740 C 0.19155 0.29713 0.84174 0.0
C4741 C 0.14351 0.28944 0.85134 0.0
C4742 C 0.14054 0.30425 0.86418 0.0
C4743 C 0.13032 0.27266 0.84691 0.0
C4744 C 0.1332 0.25586 0.83482 0.0
C4745 C 0.14773 0.24811 0.83903 0.0
C4746 C 0.15061 0.23249 0.82743 0.0
C4747 C 0.13898 0.22442 0.81165 0.0
C4748 C 0.12441 0.23192 0.80747 0.0
C4749 C 0.12148 0.24756 0.81902 0.0
H4750 H 0.14124 0.21233 0.80268 0.0
H4751 H 0.11638 0.36293 0.91895 0.0
H4752 H 0.57508 0.75781 0.88741 0.0
H4753 H 0.56651 0.72884 0.90054 0.0
H4754 H 0.58259 0.76047 0.95536 0.0
H4755 H 0.59161 0.78941 0.94228 0.0
H4756 H 0.5939 0.72894 0.95198 0.0
H4757 H 0.53881 0.74568 0.93669 0.0
H4758 H 0.51586 0.75352 0.91616 0.0
H4759 H 0.50924 0.69957 0.88177 0.0
H4760 H 0.53233 0.69151 0.90196 0.0
H4761 H 0.54718 0.666 0.00491 0.0
H4762 H 0.55107 0.69221 0.98743 0.0
H4763 H 0.55928 0.65525 0.93969 0.0
H4764 H 0.55537 0.62875 0.95693 0.0
H4765 H 0.53446 0.68778 0.93802 0.0
H4766 H 0.5961 0.67764 0.94777 0.0
H4767 H 0.61957 0.66983 0.96769 0.0
H4768 H 0.61164 0.71031 0.01253 0.0
H4769 H 0.58846 0.71872 0.99262 0.0
C4770 C 0.5769 0.75855 0.90226 0.0
C4771 C 0.58407 0.77583 0.91385 0.0
C4772 C 0.57184 0.74202 0.90974 0.0
C4773 C 0.57363 0.74256 0.92893 0.0
C4774 C 0.58104 0.75976 0.9405 0.0
C4775 C 0.58624 0.77626 0.93303 0.0
C4776 C 0.56834 0.72512 0.93702 0.0
C4777 C 0.58083 0.72012 0.94898 0.0
C4778 C 0.5514 0.71327 0.93283 0.0
C4779 C 0.53743 0.71807 0.92074 0.0
C4780 C 0.53256 0.73555 0.92467 0.0
C4781 C 0.5195 0.74002 0.91311 0.0
C4782 C 0.51113 0.72707 0.89764 0.0
C4783 C 0.51576 0.7096 0.89374 0.0
C4784 C 0.52881 0.70507 0.90525 0.0
C4785 C 0.54928 0.66318 0.99054 0.0
C4786 C 0.55067 0.64506 0.98233 0.0
C4787 C 0.55156 0.67824 0.98061 0.0
C4788 C 0.55522 0.67551 0.96228 0.0
C4789 C 0.55621 0.65748 0.95378 0.0
C4790 C 0.55406 0.64239 0.96375 0.0
C4791 C 0.56001 0.692 0.95287 0.0
C4792 C 0.54747 0.69673 0.9408 0.0
C4793 C 0.57685 0.70368 0.95682 0.0
C4794 C 0.59062 0.69872 0.96882 0.0
C4795 C 0.5994 0.68483 0.96189 0.0
C4796 C 0.61263 0.68033 0.97315 0.0
C4797 C 0.61698 0.68943 0.99142 0.0
C4798 C 0.60823 0.70323 0.99839 0.0
C4799 C 0.59513 0.70797 0.98711 0.0
H4800 H 0.62716 0.68582 1.00014 0.0
H4801 H 0.50103 0.73056 0.88871 0.0
H4802 H 0.06253 0.78306 0.66015 0.0
H4803 H 0.0927 0.78985 0.67433 0.0
H4804 H 0.0758 0.76486 0.72139 0.0
H4805 H 0.0454 0.75868 0.70751 0.0
H4806 H 0.10019 0.79626 0.73213 0.0
H4807 H 0.09304 0.74029 0.68677 0.0
H4808 H 0.08524 0.72109 0.65579 0.0
H4809 H 0.12328 0.76054 0.63405 0.0
H4810 H 0.13116 0.78011 0.66486 0.0
H4811 H 0.17685 0.76801 0.7645 0.0
H4812 H 0.14812 0.77279 0.75368 0.0
H4813 H 0.17022 0.80061 0.71033 0.0
H4814 H 0.19898 0.79561 0.721 0.0
H4815 H 0.14398 0.77113 0.69723 0.0
H4816 H 0.15368 0.82472 0.7451 0.0
H4817 H 0.16177 0.84164 0.77699 0.0
H4818 H 0.11897 0.80485 0.79502 0.0
H4819 H 0.1109 0.78731 0.76338 0.0
C4820 C 0.06527 0.779 0.67351 0.0
C4821 C 0.05176 0.77018 0.68272 0.0
C4822 C 0.08247 0.78288 0.68158 0.0
C4823 C 0.08645 0.77759 0.69875 0.0
C4824 C 0.07293 0.76904 0.70811 0.0
C4825 C 0.05565 0.76544 0.70017 0.0
C4826 C 0.10476 0.78052 0.7067 0.0
C4827 C 0.10978 0.79066 0.72461 0.0
C4828 C 0.11726 0.77356 0.69662 0.0
C4829 C 0.11256 0.76177 0.67808 0.0
C4830 C 0.09965 0.74494 0.67535 0.0
C4831 C 0.09523 0.73398 0.65783 0.0
C4832 C 0.10372 0.73962 0.64295 0.0
C4833 C 0.11669 0.75621 0.64558 0.0
C4834 C 0.12115 0.76723 0.66307 0.0
C4835 C 0.17562 0.77561 0.753 0.0
C4836 C 0.18995 0.78129 0.74341 0.0
C4837 C 0.15926 0.77839 0.74687 0.0
C4838 C 0.15713 0.7871 0.73126 0.0
C4839 C 0.17167 0.79384 0.72239 0.0
C4840 C 0.188 0.79094 0.72843 0.0
C4841 C 0.13946 0.78677 0.72275 0.0
C4842 C 0.13451 0.77703 0.7047 0.0
C4843 C 0.12704 0.79389 0.73282 0.0
C4844 C 0.13173 0.80462 0.75184 0.0
C4845 C 0.14605 0.82014 0.75588 0.0
C4846 C 0.15063 0.82986 0.77391 0.0
C4847 C 0.14086 0.82437 0.78799 0.0
C4848 C 0.12651 0.80911 0.78409 0.0
C4849 C 0.12193 0.79926 0.7661 0.0
H4850 H 0.14442 0.83194 0.80194 0.0
H4851 H 0.10029 0.73111 0.6294 0.0
H4852 H 0.10977 0.39389 0.41562 0.0
H4853 H 0.09981 0.42274 0.42689 0.0
H4854 H 0.05523 0.38902 0.44572 0.0
H4855 H 0.06537 0.36028 0.43517 0.0
H4856 H 0.05089 0.42185 0.42162 0.0
H4857 H 0.0783 0.40545 0.47774 0.0
H4858 H 0.10278 0.39663 0.4951 0.0
H4859 H 0.13745 0.44716 0.48606 0.0
H4860 H 0.11318 0.45609 0.46838 0.0
H4861 H 0.02008 0.49181 0.48108 0.0
H4862 H 0.02746 0.46385 0.46374 0.0
H4863 H 0.08176 0.49276 0.4709 0.0
H4864 H 0.0745 0.51981 0.48939 0.0
H4865 H 0.08051 0.46137 0.48029 0.0
H4866 H 0.0531 0.48072 0.42765 0.0
H4867 H 0.02951 0.48991 0.40923 0.0
H4868 H 0.99599 0.43576 0.40939 0.0
H4869 H 0.01928 0.42635 0.42809 0.0
C4870 C 0.09801 0.3927 0.42243 0.0
C4871 C 0.08851 0.37492 0.42482 0.0
C4872 C 0.09223 0.4091 0.42862 0.0
C4873 C 0.07668 0.40786 0.43685 0.0
C4874 C 0.06716 0.39016 0.43921 0.0
C4875 C 0.07313 0.37383 0.43345 0.0
C4876 C 0.071 0.42517 0.44422 0.0
C4877 C 0.05721 0.43054 0.43449 0.0
C4878 C 0.07952 0.43651 0.46076 0.0
C4879 C 0.09402 0.4313 0.47158 0.0
C4880 C 0.09119 0.41457 0.47932 0.0
C4881 C 0.105 0.40957 0.48924 0.0
C4882 C 0.12167 0.4213 0.49163 0.0
C4883 C 0.12454 0.43807 0.48416 0.0
C4884 C 0.11076 0.44311 0.4742 0.0
C4885 C 0.03351 0.49215 0.47863 0.0
C4886 C 0.0468 0.50774 0.48657 0.0
C4887 C 0.03773 0.47627 0.46864 0.0
C4888 C 0.05521 0.47614 0.46593 0.0
C4889 C 0.06823 0.49235 0.47293 0.0
C4890 C 0.0641 0.50785 0.48342 0.0
C4891 C 0.0604 0.45866 0.45761 0.0
C4892 C 0.07413 0.45303 0.46727 0.0
C4893 C 0.05189 0.44733 0.44085 0.0
C4894 C 0.03791 0.4529 0.42945 0.0
C4895 C 0.04066 0.47082 0.42388 0.0
C4896 C 0.02734 0.47606 0.41337 0.0
C4897 C 0.01125 0.46344 0.40818 0.0
C4898 C 0.00845 0.44553 0.41345 0.0
C4899 C 0.02172 0.44023 0.42399 0.0
H4900 H 1.00095 0.46753 0.40005 0.0
H4901 H 0.13236 0.41741 0.49932 0.0
H4902 H 0.46775 0.25997 0.20981 0.0
H4903 H 0.44116 0.25974 0.22491 0.0
H4904 H 0.41234 0.26049 0.17263 0.0
H4905 H 0.43878 0.26068 0.15745 0.0
H4906 H 0.40946 0.28888 0.20031 0.0
H4907 H 0.40498 0.22182 0.19068 0.0
H4908 H 0.41373 0.19157 0.19264 0.0
H4909 H 0.41857 0.2036 0.25183 0.0
H4910 H 0.41014 0.23404 0.25023 0.0
H4911 H 0.32333 0.27488 0.22233 0.0
H4912 H 0.35023 0.27162 0.20901 0.0
H4913 H 0.37425 0.26688 0.26262 0.0
H4914 H 0.34699 0.26967 0.27584 0.0
H4915 H 0.38049 0.24094 0.23581 0.0
H4916 H 0.38433 0.30801 0.24513 0.0
H4917 H 0.37419 0.33745 0.24269 0.0
H4918 H 0.3699 0.32493 0.18356 0.0
H4919 H 0.3798 0.2953 0.18563 0.0
C4920 C 0.45571 0.25997 0.20155 0.0
C4921 C 0.45529 0.26055 0.18254 0.0
C4922 C 0.44056 0.25968 0.21015 0.0
C4923 C 0.4249 0.26002 0.1998 0.0
C4924 C 0.42438 0.26019 0.18076 0.0
C4925 C 0.43946 0.26036 0.17216 0.0
C4926 C 0.4094 0.26194 0.20903 0.0
C4927 C 0.40298 0.27831 0.20791 0.0
C4928 C 0.40143 0.24836 0.21936 0.0
C4929 C 0.40718 0.23037 0.22034 0.0
C4930 C 0.40818 0.21816 0.20412 0.0
C4931 C 0.41301 0.20092 0.20517 0.0
C4932 C 0.41676 0.19567 0.22234 0.0
C4933 C 0.41571 0.20767 0.23852 0.0
C4934 C 0.41091 0.22492 0.23756 0.0
C4935 C 0.33442 0.27312 0.23117 0.0
C4936 C 0.33346 0.27257 0.24996 0.0
C4937 C 0.34972 0.27137 0.22364 0.0
C4938 C 0.36425 0.26935 0.23495 0.0
C4939 C 0.36315 0.26854 0.25377 0.0
C4940 C 0.34774 0.27016 0.26128 0.0
C4941 C 0.38047 0.2678 0.22694 0.0
C4942 C 0.38707 0.25156 0.22833 0.0
C4943 C 0.38863 0.2815 0.21682 0.0
C4944 C 0.38268 0.29935 0.21555 0.0
C4945 C 0.3811 0.31146 0.2316 0.0
C4946 C 0.37542 0.3282 0.23028 0.0
C4947 C 0.37137 0.33304 0.21298 0.0
C4948 C 0.37303 0.32116 0.19695 0.0
C4949 C 0.3787 0.30441 0.1982 0.0
H4950 H 0.36698 0.346 0.21199 0.0
H4951 H 0.42042 0.18229 0.2231 0.0
H4952 H 0.61906 0.5357 0.32147 0.0
H4953 H 0.60563 0.53871 0.35048 0.0
H4954 H 0.64547 0.51567 0.37681 0.0
H4955 H 0.65915 0.5131 0.3479 0.0
H4956 H 0.61446 0.50109 0.3899 0.0
H4957 H 0.64298 0.56475 0.38561 0.0
H4958 H 0.64949 0.59352 0.37122 0.0
H4959 H 0.59565 0.59723 0.36911 0.0
H4960 H 0.58876 0.5683 0.38324 0.0
H4961 H 0.59211 0.52317 0.48385 0.0
H4962 H 0.60703 0.52107 0.45563 0.0
H4963 H 0.57139 0.54979 0.42987 0.0
H4964 H 0.55648 0.55159 0.45782 0.0
H4965 H 0.60044 0.56151 0.41649 0.0
H4966 H 0.57052 0.49945 0.41878 0.0
H4967 H 0.56127 0.47005 0.43154 0.0
H4968 H 0.61394 0.46214 0.43532 0.0
H4969 H 0.62358 0.49169 0.4228 0.0
C4970 C 0.62513 0.53124 0.33334 0.0
C4971 C 0.64057 0.52413 0.33159 0.0
C4972 C 0.61732 0.53307 0.35034 0.0
C4973 C 0.62419 0.52763 0.36682 0.0
C4974 C 0.63941 0.52015 0.36494 0.0
C4975 C 0.64743 0.5187 0.34805 0.0
C4976 C 0.61579 0.52984 0.38564 0.0
C4977 C 0.61177 0.51452 0.39568 0.0
C4978 C 0.61124 0.54691 0.39382 0.0
C4979 C 0.61533 0.56425 0.3853 0.0
C4980 C 0.6325 0.57161 0.38193 0.0
C4981 C 0.63626 0.58796 0.37385 0.0
C4982 C 0.62298 0.59717 0.3692 0.0
C4983 C 0.60592 0.59006 0.37268 0.0
C4984 C 0.60208 0.57369 0.38073 0.0
C4985 C 0.58765 0.52954 0.47245 0.0
C4986 C 0.57309 0.53819 0.47403 0.0
C4987 C 0.59615 0.52804 0.45581 0.0
C4988 C 0.59069 0.53507 0.43961 0.0
C4989 C 0.57645 0.54413 0.44151 0.0
C4990 C 0.56782 0.54532 0.45792 0.0
C4991 C 0.59929 0.53283 0.42091 0.0
C4992 C 0.60326 0.54811 0.41082 0.0
C4993 C 0.60343 0.51562 0.41249 0.0
C4994 C 0.59782 0.49792 0.42009 0.0
C4995 C 0.58017 0.49154 0.42249 0.0
C4996 C 0.57485 0.47484 0.42965 0.0
C4997 C 0.58703 0.46427 0.43431 0.0
C4998 C 0.60454 0.47038 0.43175 0.0
C4999 C 0.60994 0.4871 0.42462 0.0
H5000 H 0.58288 0.45134 0.43984 0.0
H5001 H 0.62593 0.60983 0.36296 0.0
H5002 H 0.32923 0.9239 0.06444 0.0
H5003 H 0.33733 0.91689 0.09505 0.0
H5004 H 0.29092 0.87249 0.08871 0.0
H5005 H 0.28286 0.87918 0.05768 0.0
H5006 H 0.29813 0.90288 0.12267 0.0
H5007 H 0.32446 0.85806 0.08518 0.0
H5008 H 0.34395 0.84957 0.0624 0.0
H5009 H 0.3879 0.88681 0.09612 0.0
H5010 H 0.3686 0.89571 0.119 0.0
H5011 H 0.2978 0.83816 0.18076 0.0
H5012 H 0.29835 0.85718 0.1561 0.0
H5013 H 0.35163 0.88541 0.17613 0.0
H5014 H 0.351 0.86609 0.20124 0.0
H5015 H 0.34667 0.87187 0.13871 0.0
H5016 H 0.3218 0.91169 0.17918 0.0
H5017 H 0.30295 0.92093 0.20233 0.0
H5018 H 0.25738 0.89533 0.16415 0.0
H5019 H 0.27593 0.88575 0.14081 0.0
C5020 C 0.32079 0.91257 0.06954 0.0
C5021 C 0.30535 0.90211 0.05889 0.0
C5022 C 0.32548 0.90859 0.08694 0.0
C5023 C 0.31467 0.89428 0.09397 0.0
C5024 C 0.29934 0.88363 0.08333 0.0
C5025 C 0.29479 0.88737 0.06571 0.0
C5026 C 0.31906 0.8909 0.11276 0.0
C5027 C 0.30867 0.89603 0.12626 0.0
C5028 C 0.33349 0.88305 0.11745 0.0
C5029 C 0.34506 0.87775 0.10366 0.0
C5030 C 0.33824 0.8646 0.08763 0.0
C5031 C 0.34926 0.85967 0.07473 0.0
C5032 C 0.36714 0.8677 0.07777 0.0
C5033 C 0.37404 0.88063 0.09376 0.0
C5034 C 0.36307 0.88562 0.1067 0.0
C5035 C 0.30961 0.84847 0.17988 0.0
C5036 C 0.32444 0.85062 0.19249 0.0
C5037 C 0.30985 0.85947 0.166 0.0
C5038 C 0.32493 0.87288 0.16453 0.0
C5039 C 0.33984 0.87522 0.17724 0.0
C5040 C 0.33953 0.86421 0.19139 0.0
C5041 C 0.3251 0.88289 0.14851 0.0
C5042 C 0.33641 0.8792 0.1354 0.0
C5043 C 0.31162 0.89231 0.14424 0.0
C5044 C 0.3003 0.89796 0.15823 0.0
C5045 C 0.30776 0.90792 0.17574 0.0
C5046 C 0.29712 0.91325 0.1889 0.0
C5047 C 0.27898 0.90872 0.18471 0.0
C5048 C 0.27144 0.89886 0.16736 0.0
C5049 C 0.28202 0.89352 0.15414 0.0
H5050 H 0.27077 0.91287 0.19491 0.0
H5051 H 0.37565 0.86385 0.06777 0.0
H5052 H 0.9298 0.53781 0.857 0.0
H5053 H 0.94325 0.534 0.88709 0.0
H5054 H 0.99113 0.5302 0.86381 0.0
H5055 H 0.97792 0.53446 0.83376 0.0
H5056 H 0.97682 0.50235 0.89138 0.0
H5057 H 0.99387 0.56916 0.88208 0.0
H5058 H 0.9861 0.59835 0.87412 0.0
H5059 H 0.95222 0.59838 0.91692 0.0
H5060 H 0.95963 0.56901 0.92492 0.0
H5061 H 0.04429 0.52578 0.96571 0.0
H5062 H 0.02554 0.52157 0.93644 0.0
H5063 H 0.98979 0.55006 0.96451 0.0
H5064 H 0.00934 0.55556 0.99323 0.0
H5065 H 0.99442 0.56275 0.93508 0.0
H5066 H 0.981 0.5009 0.94962 0.0
H5067 H 0.98614 0.471 0.95844 0.0
H5068 H 0.00878 0.45917 0.90824 0.0
H5069 H 1.00413 0.48922 0.89926 0.0
C5070 C 0.94318 0.53613 0.85831 0.0
C5071 C 0.95297 0.53676 0.84322 0.0
C5072 C 0.95074 0.53374 0.87539 0.0
C5073 C 0.96805 0.53163 0.87747 0.0
C5074 C 0.97767 0.5316 0.86229 0.0
C5075 C 0.97022 0.53433 0.84529 0.0
C5076 C 0.97686 0.53206 0.89596 0.0
C5077 C 0.98084 0.51548 0.90101 0.0
C5078 C 0.98137 0.54909 0.90856 0.0
C5079 C 0.97715 0.56685 0.90395 0.0
C5080 C 0.98466 0.57533 0.88968 0.0
C5081 C 0.98034 0.5919 0.88518 0.0
C5082 C 0.96863 0.60019 0.89498 0.0
C5083 C 0.96126 0.59194 0.90933 0.0
C5084 C 0.96552 0.57534 0.91385 0.0
C5085 C 0.03251 0.53129 0.96542 0.0
C5086 C 0.02792 0.54068 0.98155 0.0
C5087 C 0.02167 0.52859 0.94886 0.0
C5088 C 1.00601 0.53503 0.94839 0.0
C5089 C 1.00167 0.54472 0.96458 0.0
C5090 C 0.01267 0.54768 0.98101 0.0
C5091 C 0.99485 0.53303 0.93077 0.0
C5092 C 0.99035 0.54941 0.92577 0.0
C5093 C 0.98953 0.51564 0.91851 0.0
C5094 C 0.99236 0.49748 0.92384 0.0
C5095 C 0.98723 0.49204 0.94052 0.0
C5096 C 0.99003 0.47503 0.94555 0.0
C5097 C 0.99781 0.46321 0.93393 0.0
C5098 C 1.00277 0.46836 0.91724 0.0
C5099 C 1.00005 0.48538 0.91217 0.0
H5100 H 0.99997 0.45005 0.93784 0.0
H5101 H 0.96531 0.61302 0.89148 0.0
H5102 H 0.29887 0.19534 0.57114 0.0
H5103 H 0.30129 0.20898 0.60364 0.0
H5104 H 0.27764 0.25396 0.58884 0.0
H5105 H 0.27606 0.24075 0.55596 0.0
H5106 H 0.30187 0.26764 0.61744 0.0
H5107 H 0.254 0.21249 0.60448 0.0
H5108 H 0.24107 0.17885 0.59275 0.0
H5109 H 0.27707 0.16241 0.63111 0.0
H5110 H 0.29033 0.19596 0.64293 0.0
H5111 H 0.27241 0.28911 0.70745 0.0
H5112 H 0.27192 0.27822 0.67412 0.0
H5113 H 0.30696 0.2421 0.6862 0.0
H5114 H 0.308 0.25338 0.71924 0.0
H5115 H 0.27652 0.22437 0.65925 0.0
H5116 H 0.32481 0.27687 0.67192 0.0
H5117 H 0.3404 0.30965 0.68383 0.0
H5118 H 0.30643 0.33024 0.64671 0.0
H5119 H 0.29042 0.29753 0.63479 0.0
C5120 C 0.29429 0.20823 0.57476 0.0
C5121 C 0.28706 0.21681 0.56094 0.0
C5122 C 0.29558 0.21599 0.59344 0.0
C5123 C 0.28912 0.23223 0.59895 0.0
C5124 C 0.28257 0.24132 0.58509 0.0
C5125 C 0.28163 0.23375 0.56627 0.0
C5126 C 0.28865 0.23917 0.61907 0.0
C5127 C 0.29601 0.25822 0.62645 0.0
C5128 C 0.28155 0.22687 0.63121 0.0
C5129 C 0.2732 0.20672 0.62452 0.0
C5130 C 0.25916 0.20169 0.61039 0.0
C5131 C 0.25179 0.18265 0.60372 0.0
C5132 C 0.25826 0.1685 0.61116 0.0
C5133 C 0.27207 0.17338 0.62536 0.0
C5134 C 0.2795 0.1924 0.63207 0.0
C5135 C 0.2799 0.27876 0.70296 0.0
C5136 C 0.29024 0.27212 0.716 0.0
C5137 C 0.27969 0.27262 0.68393 0.0
C5138 C 0.28945 0.25936 0.67761 0.0
C5139 C 0.29934 0.25233 0.69067 0.0
C5140 C 0.29993 0.25882 0.70958 0.0
C5141 C 0.28948 0.2528 0.65744 0.0
C5142 C 0.28213 0.23382 0.65013 0.0
C5143 C 0.29678 0.26507 0.64547 0.0
C5144 C 0.30623 0.28477 0.65268 0.0
C5145 C 0.3205 0.28839 0.66647 0.0
C5146 C 0.32946 0.30695 0.67319 0.0
C5147 C 0.32436 0.32202 0.66609 0.0
C5148 C 0.31033 0.31855 0.65224 0.0
C5149 C 0.30131 0.3 0.64549 0.0
H5150 H 0.33132 0.33639 0.67129 0.0
H5151 H 0.25256 0.15377 0.60595 0.0
H5152 H 0.62411 0.49028 0.21832 0.0
H5153 H 0.60963 0.49087 0.18744 0.0
H5154 H 0.63302 0.55006 0.19228 0.0
H5155 H 0.64765 0.5494 0.22289 0.0
H5156 H 0.60025 0.54516 0.17624 0.0
H5157 H 0.64597 0.51188 0.16289 0.0
H5158 H 0.66201 0.48633 0.16427 0.0
H5159 H 0.61558 0.44504 0.14126 0.0
H5160 H 0.5992 0.47033 0.13999 0.0
H5161 H 0.57684 0.55828 0.08327 0.0
H5162 H 0.59085 0.55601 0.11344 0.0
H5163 H 0.57769 0.49523 0.10021 0.0
H5164 H 0.56472 0.49766 0.06929 0.0
H5165 H 0.60433 0.4998 0.12111 0.0
H5166 H 0.55774 0.52974 0.13508 0.0
H5167 H 0.53922 0.55317 0.13451 0.0
H5168 H 0.58324 0.59773 0.1576 0.0
H5169 H 0.60207 0.57458 0.15812 0.0
C5170 C 0.62627 0.50349 0.21292 0.0
C5171 C 0.63737 0.51978 0.22373 0.0
C5172 C 0.61792 0.50383 0.19489 0.0
C5173 C 0.61999 0.52052 0.18663 0.0
C5174 C 0.63084 0.53682 0.19763 0.0
C5175 C 0.63938 0.53641 0.21546 0.0
C5176 C 0.611 0.52123 0.16696 0.0
C5177 C 0.60144 0.53529 0.16424 0.0
C5178 C 0.61149 0.50817 0.15073 0.0
C5179 C 0.62131 0.49299 0.15154 0.0
C5180 C 0.63914 0.49734 0.15827 0.0
C5181 C 0.6483 0.48291 0.15901 0.0
C5182 C 0.63981 0.46407 0.15291 0.0
C5183 C 0.62214 0.45964 0.14602 0.0
C5184 C 0.61291 0.47401 0.14528 0.0
C5185 C 0.57675 0.54432 0.08665 0.0
C5186 C 0.56918 0.52822 0.07324 0.0
C5187 C 0.58476 0.54295 0.10443 0.0
C5188 C 0.58523 0.52535 0.1104 0.0
C5189 C 0.5778 0.5092 0.09685 0.0
C5190 C 0.57014 0.51059 0.07883 0.0
C5191 C 0.59358 0.52388 0.13024 0.0
C5192 C 0.60304 0.50969 0.13304 0.0
C5193 C 0.59258 0.53649 0.14669 0.0
C5194 C 0.58134 0.55045 0.14646 0.0
C5195 C 0.56348 0.54455 0.13994 0.0
C5196 C 0.55293 0.55777 0.13964 0.0
C5197 C 0.56006 0.57693 0.14597 0.0
C5198 C 0.57774 0.58289 0.15267 0.0
C5199 C 0.58836 0.56972 0.15299 0.0
H5200 H 0.55187 0.58715 0.14571 0.0
H5201 H 0.64692 0.45292 0.15348 0.0
H5202 H 0.29555 0.91399 0.94274 0.0
H5203 H 0.3036 0.90037 0.91336 0.0
H5204 H 0.30901 0.85012 0.93578 0.0
H5205 H 0.30108 0.86372 0.96539 0.0
H5206 H 0.33598 0.86402 0.91175 0.0
H5207 H 0.27262 0.84739 0.91328 0.0
H5208 H 0.24468 0.85625 0.91892 0.0
H5209 H 0.25128 0.89323 0.87832 0.0
H5210 H 0.27939 0.88475 0.87262 0.0
H5211 H 0.30684 0.78832 0.83326 0.0
H5212 H 0.31267 0.80917 0.86332 0.0
H5213 H 0.31401 0.85774 0.83584 0.0
H5214 H 0.30875 0.83728 0.80598 0.0
H5215 H 0.28668 0.84818 0.86159 0.0
H5216 H 0.34689 0.86227 0.85596 0.0
H5217 H 0.37536 0.85538 0.8496 0.0
H5218 H 0.37621 0.82623 0.89633 0.0
H5219 H 0.3475 0.83258 0.90274 0.0
C5220 C 0.29839 0.90001 0.94142 0.0
C5221 C 0.29733 0.88972 0.9562 0.0
C5222 C 0.30322 0.89239 0.92473 0.0
C5223 C 0.30696 0.87433 0.92254 0.0
C5224 C 0.30633 0.86418 0.93736 0.0
C5225 C 0.30149 0.8718 0.9541 0.0
C5226 C 0.3092 0.86509 0.9041 0.0
C5227 C 0.32522 0.86038 0.90079 0.0
C5228 C 0.2953 0.861 0.88974 0.0
C5229 C 0.27811 0.86554 0.89262 0.0
C5230 C 0.26812 0.85745 0.9056 0.0
C5231 C 0.25227 0.86241 0.90881 0.0
C5232 C 0.24623 0.87533 0.89901 0.0
C5233 C 0.25598 0.88324 0.88591 0.0
C5234 C 0.27186 0.87834 0.88266 0.0
C5235 C 0.30883 0.80348 0.8337 0.0
C5236 C 0.30715 0.81121 0.81742 0.0
C5237 C 0.31224 0.81533 0.85077 0.0
C5238 C 0.31378 0.83489 0.85161 0.0
C5239 C 0.31298 0.84267 0.83534 0.0
C5240 C 0.3099 0.83094 0.81835 0.0
C5241 C 0.31332 0.84671 0.86928 0.0
C5242 C 0.29755 0.85191 0.87247 0.0
C5243 C 0.32754 0.85144 0.88329 0.0
C5244 C 0.34489 0.84768 0.87969 0.0
C5245 C 0.35303 0.85418 0.86476 0.0
C5246 C 0.36924 0.85042 0.86117 0.0
C5247 C 0.37757 0.84032 0.87252 0.0
C5248 C 0.36972 0.83402 0.88753 0.0
C5249 C 0.35346 0.8377 0.89115 0.0
H5250 H 0.39012 0.83742 0.86973 0.0
H5251 H 0.23397 0.87918 0.90155 0.0
H5252 H 0.91941 0.53162 0.7262 0.0
H5253 H 0.92563 0.5212 0.69507 0.0
H5254 H 0.97797 0.51958 0.71636 0.0
H5255 H 0.97185 0.53015 0.74774 0.0
H5256 H 0.97666 0.5403 0.68877 0.0
H5257 H 0.94759 0.47915 0.70031 0.0
H5258 H 0.92346 0.45581 0.70871 0.0
H5259 H 0.88961 0.46367 0.66297 0.0
H5260 H 0.91344 0.48731 0.65448 0.0
H5261 H 0.00823 0.50389 0.61275 0.0
H5262 H 0.99306 0.49775 0.63945 0.0
H5263 H 0.94895 0.51666 0.61593 0.0
H5264 H 0.96408 0.52278 0.58885 0.0
H5265 H 0.94411 0.48502 0.64353 0.0
H5266 H 0.96947 0.54986 0.63629 0.0
H5267 H 0.99204 0.57496 0.62792 0.0
H5268 H 0.03042 0.56177 0.66601 0.0
H5269 H 0.00809 0.53631 0.67431 0.0
C5270 C 0.93229 0.5291 0.72427 0.0
C5271 C 0.94529 0.53193 0.73931 0.0
C5272 C 0.93569 0.52287 0.70652 0.0
C5273 C 0.95211 0.5193 0.70354 0.0
C5274 C 0.96513 0.5221 0.71852 0.0
C5275 C 0.96173 0.52835 0.73633 0.0
C5276 C 0.95637 0.51496 0.68458 0.0
C5277 C 0.9697 0.52802 0.67903 0.0
C5278 C 0.94668 0.49938 0.67168 0.0
C5279 C 0.9323 0.48518 0.67685 0.0
C5280 C 0.93496 0.47607 0.69214 0.0
C5281 C 0.92134 0.46274 0.69691 0.0
C5282 C 0.90501 0.4583 0.68641 0.0
C5283 C 0.90227 0.46714 0.67111 0.0
C5284 C 0.91583 0.4805 0.66631 0.0
C5285 C 0.99497 0.50588 0.61276 0.0
C5286 C 0.98745 0.51417 0.59892 0.0
C5287 C 0.98631 0.50231 0.62803 0.0
C5288 C 0.97003 0.50694 0.62961 0.0
C5289 C 0.96151 0.51297 0.61481 0.0
C5290 C 0.97024 0.51666 0.59951 0.0
C5291 C 0.9645 0.51022 0.64811 0.0
C5292 C 0.951 0.49715 0.65346 0.0
C5293 C 0.97368 0.52602 0.66091 0.0
C5294 C 0.98722 0.54097 0.65563 0.0
C5295 C 0.98279 0.5521 0.64264 0.0
C5296 C 0.99551 0.56644 0.63796 0.0
C5297 C 0.01268 0.56989 0.64635 0.0
C5298 C 0.01714 0.55902 0.65945 0.0
C5299 C 1.00447 0.54462 0.66413 0.0
H5300 H 0.0225 0.58104 0.64277 0.0
H5301 H 0.89449 0.44797 0.69011 0.0
H5302 H 0.26117 0.22388 0.45757 0.0
H5303 H 0.2624 0.23519 0.42762 0.0
H5304 H 0.30733 0.21142 0.41861 0.0
H5305 H 0.30572 0.1994 0.44814 0.0
H5306 H 0.30648 0.25469 0.4123 0.0
H5307 H 0.27875 0.18746 0.39545 0.0
H5308 H 0.25613 0.15936 0.39769 0.0
H5309 H 0.21609 0.18808 0.38193 0.0
H5310 H 0.2385 0.21648 0.37993 0.0
H5311 H 0.31881 0.26461 0.3201 0.0
H5312 H 0.31645 0.25306 0.34959 0.0
H5313 H 0.26059 0.24733 0.34177 0.0
H5314 H 0.26294 0.25802 0.31167 0.0
H5315 H 0.26585 0.22004 0.35764 0.0
H5316 H 0.29059 0.28571 0.37222 0.0
H5317 H 0.31094 0.31589 0.3712 0.0
H5318 H 0.3537 0.29392 0.39277 0.0
H5319 H 0.33363 0.2635 0.39368 0.0
C5320 C 0.27133 0.22109 0.44924 0.0
C5321 C 0.28331 0.21065 0.45531 0.0
C5322 C 0.27202 0.22756 0.43208 0.0
C5323 C 0.28496 0.2242 0.42075 0.0
C5324 C 0.29721 0.21422 0.42702 0.0
C5325 C 0.29624 0.2073 0.44392 0.0
C5326 C 0.28552 0.2307 0.40224 0.0
C5327 C 0.29776 0.24699 0.40029 0.0
C5328 C 0.2737 0.22121 0.38665 0.0
C5329 C 0.26027 0.20416 0.38781 0.0
C5330 C 0.26512 0.18786 0.3927 0.0
C5331 C 0.25234 0.17186 0.39387 0.0
C5332 C 0.23468 0.17196 0.39003 0.0
C5333 C 0.22977 0.18804 0.38495 0.0
C5334 C 0.2425 0.20408 0.38379 0.0
C5335 C 0.30599 0.26064 0.32455 0.0
C5336 C 0.29108 0.26219 0.31344 0.0
C5337 C 0.30464 0.25423 0.34162 0.0
C5338 C 0.28837 0.2497 0.34846 0.0
C5339 C 0.27336 0.25073 0.33707 0.0
C5340 C 0.27468 0.25682 0.31976 0.0
C5341 C 0.28713 0.24397 0.36739 0.0
C5342 C 0.27467 0.22785 0.36954 0.0
C5343 C 0.29849 0.25395 0.38329 0.0
C5344 C 0.31062 0.27225 0.38286 0.0
C5345 C 0.30435 0.28727 0.37663 0.0
C5346 C 0.31583 0.30443 0.37609 0.0
C5347 C 0.33361 0.30681 0.38187 0.0
C5348 C 0.33993 0.29205 0.38827 0.0
C5349 C 0.3285 0.27485 0.38882 0.0
H5350 H 0.34248 0.3201 0.38144 0.0
H5351 H 0.2248 0.15955 0.39092 0.0
H5352 H 0.34338 0.65213 0.5145 0.0
H5353 H 0.36943 0.63976 0.50946 0.0
H5354 H 0.34703 0.58936 0.53085 0.0
H5355 H 0.3207 0.60161 0.53586 0.0
H5356 H 0.38213 0.60802 0.54628 0.0
H5357 H 0.34734 0.58598 0.48661 0.0
H5358 H 0.33033 0.59067 0.45861 0.0
H5359 H 0.37509 0.62882 0.44563 0.0
H5360 H 0.39232 0.62452 0.47369 0.0
H5361 H 0.43011 0.54082 0.51811 0.0
H5362 H 0.40665 0.55815 0.52105 0.0
H5363 H 0.43772 0.60497 0.5006 0.0
H5364 H 0.4615 0.58776 0.49809 0.0
H5365 H 0.40062 0.59216 0.48424 0.0
H5366 H 0.43597 0.61445 0.54117 0.0
H5367 H 0.45406 0.61311 0.56972 0.0
H5368 H 0.41004 0.57884 0.58847 0.0
H5369 H 0.39173 0.57974 0.55987 0.0
C5370 C 0.34398 0.6384 0.51816 0.0
C5371 C 0.33009 0.6278 0.52564 0.0
C5372 C 0.35882 0.63136 0.51516 0.0
C5373 C 0.35999 0.61367 0.51968 0.0
C5374 C 0.34622 0.60306 0.52727 0.0
C5375 C 0.33127 0.61004 0.53013 0.0
C5376 C 0.37587 0.6065 0.51701 0.0
C5377 C 0.38608 0.60431 0.53272 0.0
C5378 C 0.38136 0.60269 0.49934 0.0
C5379 C 0.37107 0.60506 0.48234 0.0
C5380 C 0.35352 0.59547 0.47785 0.0
C5381 C 0.34385 0.59804 0.46196 0.0
C5382 C 0.35161 0.61007 0.45037 0.0
C5383 C 0.36909 0.61951 0.45462 0.0
C5384 C 0.37882 0.617 0.47051 0.0
C5385 C 0.43184 0.55477 0.5142 0.0
C5386 C 0.44743 0.56307 0.50792 0.0
C5387 C 0.41854 0.56463 0.5159 0.0
C5388 C 0.42059 0.58278 0.51108 0.0
C5389 C 0.43601 0.59096 0.50437 0.0
C5390 C 0.44951 0.58121 0.50301 0.0
C5391 C 0.40653 0.59308 0.5135 0.0
C5392 C 0.39671 0.59597 0.49779 0.0
C5393 C 0.40155 0.59794 0.5312 0.0
C5394 C 0.41254 0.59697 0.54827 0.0
C5395 C 0.4302 0.60642 0.55127 0.0
C5396 C 0.44048 0.60579 0.56749 0.0
C5397 C 0.43322 0.59584 0.58088 0.0
C5398 C 0.41565 0.58651 0.57807 0.0
C5399 C 0.40531 0.58708 0.56186 0.0
H5400 H 0.44119 0.59541 0.59345 0.0
H5401 H 0.3441 0.61205 0.43808 0.0
H5402 H 0.85372 0.95275 0.53237 0.0
H5403 H 0.88331 0.96869 0.5281 0.0
H5404 H 0.90304 0.92121 0.54283 0.0
H5405 H 0.87351 0.9054 0.54739 0.0
H5406 H 0.92547 0.95123 0.55794 0.0
H5407 H 0.89811 0.93036 0.49706 0.0
H5408 H 0.87616 0.92555 0.46997 0.0
H5409 H 0.88557 0.9855 0.47025 0.0
H5410 H 0.9074 0.99072 0.49754 0.0
H5411 H 0.01012 0.98989 0.53133 0.0
H5412 H 0.98187 0.96871 0.53288 0.0
H5413 H 0.95531 0.01215 0.51973 0.0
H5414 H 0.98322 0.03274 0.51738 0.0
H5415 H 0.93717 0.98055 0.50218 0.0
H5416 H 0.96389 0.99943 0.5665 0.0
H5417 H 0.98759 1.00132 0.59129 0.0
H5418 H 0.98064 0.94086 0.58143 0.0
H5419 H 0.95702 0.93865 0.55646 0.0
C5420 C 0.86436 0.94573 0.53484 0.0
C5421 C 0.86108 0.92775 0.54034 0.0
C5422 C 0.88136 0.95482 0.53221 0.0
C5423 C 0.89568 0.94619 0.53485 0.0
C5424 C 0.89243 0.92835 0.54064 0.0
C5425 C 0.87543 0.91926 0.54327 0.0
C5426 C 0.91395 0.95583 0.53183 0.0
C5427 C 0.92796 0.95743 0.5456 0.0
C5428 C 0.91762 0.96395 0.51574 0.0
C5429 C 0.90426 0.96094 0.49952 0.0
C5430 C 0.89537 0.94254 0.49149 0.0
C5431 C 0.88297 0.93973 0.47606 0.0
C5432 C 0.87943 0.95521 0.46843 0.0
C5433 C 0.8883 0.97353 0.4762 0.0
C5434 C 0.90069 0.97642 0.49165 0.0
C5435 C 0.99826 0.99487 0.52875 0.0
C5436 C 0.99911 0.01315 0.52437 0.0
C5437 C 0.982 0.98277 0.52975 0.0
C5438 C 0.96614 0.98876 0.52676 0.0
C5439 C 0.96711 1.00694 0.52214 0.0
C5440 C 0.98323 0.01885 0.52091 0.0
C5441 C 0.9485 0.97657 0.52859 0.0
C5442 C 0.93462 0.97439 0.51452 0.0
C5443 C 0.94502 0.96757 0.5442 0.0
C5444 C 0.95879 0.9689 0.55958 0.0
C5445 C 0.96744 0.98656 0.56963 0.0
C5446 C 0.98087 0.98768 0.58369 0.0
C5447 C 0.98564 0.97122 0.58791 0.0
C5448 C 0.97694 0.95359 0.57814 0.0
C5449 C 0.96352 0.9524 0.56406 0.0
H5450 H 0.99606 0.97213 0.59877 0.0
H5451 H 0.86985 0.953 0.45646 0.0
H5452 H 0.92429 0.13392 0.26298 0.0
H5453 H 0.9108 0.16135 0.26317 0.0
H5454 H 0.86137 0.12645 0.26976 0.0
H5455 H 0.87475 0.09887 0.26827 0.0
H5456 H 0.85032 0.14852 0.25487 0.0
H5457 H 0.89624 0.17112 0.30436 0.0
H5458 H 0.92596 0.18072 0.32099 0.0
H5459 H 0.94083 0.21974 0.28363 0.0
H5460 H 0.91127 0.21021 0.26663 0.0
H5461 H 0.80706 0.22714 0.27215 0.0
H5462 H 0.82153 0.20083 0.27286 0.0
H5463 H 0.86947 0.23602 0.26264 0.0
H5464 H 0.85499 0.26298 0.26317 0.0
H5465 H 0.88148 0.21416 0.27944 0.0
H5466 H 0.83387 0.18514 0.22778 0.0
H5467 H 0.80308 0.17406 0.21404 0.0
H5468 H 0.79062 0.14753 0.26114 0.0
H5469 H 0.82141 0.15777 0.27478 0.0
C5470 C 0.91051 0.13188 0.26451 0.0
C5471 C 0.90103 0.11334 0.26562 0.0
C5472 C 0.90256 0.14811 0.2649 0.0
C5473 C 0.88452 0.14732 0.26699 0.0
C5474 C 0.87512 0.12867 0.26809 0.0
C5475 C 0.88299 0.1124 0.26733 0.0
C5476 C 0.87536 0.1651 0.26742 0.0
C5477 C 0.85746 0.1627 0.26057 0.0
C5478 C 0.88363 0.18459 0.27442 0.0
C5479 C 0.90162 0.18971 0.28405 0.0
C5480 C 0.90591 0.18157 0.29955 0.0
C5481 C 0.92272 0.18704 0.30907 0.0
C5482 C 0.93529 0.20077 0.30332 0.0
C5483 C 0.9311 0.20904 0.28801 0.0
C5484 C 0.91433 0.2036 0.27843 0.0
C5485 C 0.82071 0.22957 0.26997 0.0
C5486 C 0.82935 0.24802 0.26753 0.0
C5487 C 0.82922 0.21387 0.27001 0.0
C5488 C 0.84709 0.21499 0.26708 0.0
C5489 C 0.85583 0.2336 0.26484 0.0
C5490 C 0.84733 0.24946 0.2651 0.0
C5491 C 0.85655 0.19746 0.26681 0.0
C5492 C 0.87448 0.19993 0.27368 0.0
C5493 C 0.84826 0.17794 0.26027 0.0
C5494 C 0.82979 0.17245 0.25238 0.0
C5495 C 0.8245 0.17706 0.23522 0.0
C5496 C 0.8071 0.17086 0.22743 0.0
C5497 C 0.79488 0.16036 0.23683 0.0
C5498 C 0.80007 0.15575 0.25392 0.0
C5499 C 0.8175 0.1616 0.2616 0.0
H5500 H 0.78141 0.15568 0.2308 0.0
H5501 H 0.94827 0.20505 0.31075 0.0
H5502 H 0.73657 0.10409 1.00049 0.0
H5503 H 0.70482 0.0927 0.99291 0.0
H5504 H 0.69638 0.13301 0.03797 0.0
H5505 H 0.72781 0.14449 0.04553 0.0
H5506 H 0.68057 0.09356 0.03752 0.0
H5507 H 0.68716 0.14276 1.00013 0.0
H5508 H 0.69718 0.16068 0.9756 0.0
H5509 H 0.67521 0.11206 0.93456 0.0
H5510 H 0.66533 0.09373 0.95889 0.0
H5511 H 0.59123 0.09009 0.03215 0.0
H5512 H 0.62268 0.10107 0.03298 0.0
H5513 H 0.62177 0.06508 0.98107 0.0
H5514 H 0.59007 0.05438 0.97987 0.0
H5515 H 0.64256 0.10007 0.98262 0.0
H5516 H 0.6351 0.05139 0.0212 0.0
H5517 H 0.62307 0.0356 0.0463 0.0
H5518 H 0.64583 0.08539 0.08566 0.0
H5519 H 0.65783 0.10154 0.06076 0.0
C5520 C 0.72789 0.11037 0.00882 0.0
C5521 C 0.73457 0.12492 0.02376 0.0
C5522 C 0.70986 0.10409 1.0043 0.0
C5523 C 0.69845 0.11224 0.01479 0.0
C5524 C 0.7051 0.12673 0.02968 0.0
C5525 C 0.72301 0.13311 0.03407 0.0
C5526 C 0.6796 0.10435 0.01177 0.0
C5527 C 0.67223 0.09502 0.02554 0.0
C5528 C 0.66895 0.10606 0.99594 0.0
C5529 C 0.67584 0.11672 0.9814 0.0
C5530 C 0.6848 0.13575 0.98592 0.0
C5531 C 0.69035 0.14603 0.97203 0.0
C5532 C 0.68692 0.13749 0.95354 0.0
C5533 C 0.67794 0.11864 0.9489 0.0
C5534 C 0.67238 0.10829 0.96274 0.0
C5535 C 0.59772 0.08451 0.02092 0.0
C5536 C 0.58833 0.07132 0.00601 0.0
C5537 C 0.61565 0.09077 0.02142 0.0
C5538 C 0.62448 0.0836 0.00724 0.0
C5539 C 0.6151 0.0707 0.99214 0.0
C5540 C 0.59708 0.0646 0.9915 0.0
C5541 C 0.64359 0.08943 0.00846 0.0
C5542 C 0.65099 0.09832 0.99441 0.0
C5543 C 0.65435 0.08748 0.02409 0.0
C5544 C 0.64729 0.07769 0.0391 0.0
C5545 C 0.63747 0.05899 0.0352 0.0
C5546 C 0.63067 0.04998 0.04939 0.0
C5547 C 0.63367 0.05949 0.06756 0.0
C5548 C 0.64352 0.07803 0.07158 0.0
C5549 C 0.65035 0.08711 0.05744 0.0
H5550 H 0.62838 0.05249 0.07853 0.0
H5551 H 0.69116 0.1455 0.94281 0.0
H5552 H 0.20721 0.50588 0.24301 0.0
H5553 H 0.21963 0.47929 0.2505 0.0
H5554 H 0.17668 0.4618 0.28147 0.0
H5555 H 0.16387 0.4879 0.27358 0.0
H5556 H 0.21891 0.46932 0.29743 0.0
H5557 H 0.16972 0.43376 0.25248 0.0
H5558 H 0.15168 0.4301 0.22263 0.0
H5559 H 0.19696 0.42909 0.1941 0.0
H5560 H 0.21531 0.43307 0.22384 0.0
H5561 H 0.24802 0.38455 0.31026 0.0
H5562 H 0.22944 0.40745 0.30718 0.0
H5563 H 0.2475 0.41566 0.25446 0.0
H5564 H 0.2656 0.39259 0.25731 0.0
H5565 H 0.21354 0.41098 0.25206 0.0
H5566 H 0.26304 0.44719 0.29373 0.0
H5567 H 0.28397 0.45505 0.32194 0.0
H5568 H 0.24211 0.45873 0.35514 0.0
H5569 H 0.22087 0.45057 0.32712 0.0
C5570 C 0.20035 0.49618 0.25118 0.0
C5571 C 0.18459 0.49868 0.25762 0.0
C5572 C 0.20745 0.48119 0.25551 0.0
C5573 C 0.19897 0.4689 0.26653 0.0
C5574 C 0.18325 0.47131 0.27294 0.0
C5575 C 0.17594 0.48603 0.26828 0.0
C5576 C 0.20666 0.45342 0.27119 0.0
C5577 C 0.21751 0.4563 0.28782 0.0
C5578 C 0.20498 0.43693 0.25826 0.0
C5579 C 0.19388 0.43383 0.24036 0.0
C5580 C 0.17583 0.43287 0.23984 0.0
C5581 C 0.16555 0.43073 0.22295 0.0
C5582 C 0.17317 0.4294 0.20648 0.0
C5583 C 0.19108 0.43012 0.20687 0.0
C5584 C 0.20142 0.4323 0.22373 0.0
C5585 C 0.248 0.3914 0.29812 0.0
C5586 C 0.25806 0.38696 0.28397 0.0
C5587 C 0.23745 0.40438 0.29637 0.0
C5588 C 0.23718 0.41316 0.2806 0.0
C5589 C 0.24745 0.40886 0.26663 0.0
C5590 C 0.25777 0.39578 0.26828 0.0
C5591 C 0.22618 0.42682 0.27834 0.0
C5592 C 0.21468 0.42368 0.26205 0.0
C5593 C 0.22759 0.44327 0.29148 0.0
C5594 C 0.24033 0.44796 0.30834 0.0
C5595 C 0.25827 0.44944 0.30706 0.0
C5596 C 0.27019 0.454 0.32301 0.0
C5597 C 0.26437 0.45731 0.34033 0.0
C5598 C 0.24659 0.4561 0.34172 0.0
C5599 C 0.2346 0.4515 0.32581 0.0
H5600 H 0.27362 0.46087 0.35266 0.0
H5601 H 0.1652 0.42777 0.19341 0.0
H5602 H 0.24695 0.39739 0.04629 0.0
H5603 H 0.22054 0.40993 0.04318 0.0
H5604 H 0.24793 0.4546 0.01694 0.0
H5605 H 0.27472 0.44282 0.02145 0.0
H5606 H 0.22958 0.46989 0.03566 0.0
H5607 H 0.21313 0.41167 0.99429 0.0
H5608 H 0.20814 0.37737 0.98338 0.0
H5609 H 0.17178 0.36666 0.02301 0.0
H5610 H 0.17671 0.40089 0.03432 0.0
H5611 H 0.15281 0.49944 0.00553 0.0
H5612 H 0.17733 0.48368 0.00482 0.0
H5613 H 0.15628 0.44992 0.04456 0.0
H5614 H 0.13131 0.46525 0.04495 0.0
H5615 H 0.17061 0.42885 0.01751 0.0
H5616 H 0.18923 0.48977 0.05782 0.0
H5617 H 0.19313 0.52448 0.06403 0.0
H5618 H 0.22518 0.52978 0.0198 0.0
H5619 H 0.22129 0.49508 0.0132 0.0
C5620 C 0.24735 0.40992 0.03988 0.0
C5621 C 0.26306 0.4191 0.03419 0.0
C5622 C 0.23206 0.41702 0.03785 0.0
C5623 C 0.23173 0.43314 0.02938 0.0
C5624 C 0.2475 0.44222 0.02358 0.0
C5625 C 0.26293 0.43543 0.02612 0.0
C5626 C 0.21535 0.44103 0.02731 0.0
C5627 C 0.21681 0.46074 0.03136 0.0
C5628 C 0.1983 0.42948 0.0219 0.0
C5629 C 0.19545 0.40885 0.01529 0.0
C5630 C 0.20418 0.40199 1.00079 0.0
C5631 C 0.20134 0.38256 0.99451 0.0
C5632 C 0.18969 0.36984 1.00253 0.0
C5633 C 0.18083 0.37653 0.01683 0.0
C5634 C 0.18363 0.39595 0.02317 0.0
C5635 C 0.15312 0.48845 0.01393 0.0
C5636 C 0.1399 0.48385 0.02541 0.0
C5637 C 0.16736 0.47951 0.01362 0.0
C5638 C 0.16898 0.46571 0.02485 0.0
C5639 C 0.15552 0.46055 0.03581 0.0
C5640 C 0.14126 0.46953 0.03616 0.0
C5641 C 0.18509 0.45746 0.02586 0.0
C5642 C 0.1835 0.43778 0.02169 0.0
C5643 C 0.20209 0.46901 0.03057 0.0
C5644 C 0.2049 0.48986 0.03497 0.0
C5645 C 0.19709 0.49835 0.04941 0.0
C5646 C 0.19928 0.51801 0.05299 0.0
C5647 C 0.20938 0.52933 0.0423 0.0
C5648 C 0.21737 0.521 0.02807 0.0
C5649 C 0.21519 0.50135 0.02442 0.0
H5650 H 0.21104 0.54455 0.04507 0.0
H5651 H 0.1875 0.35481 0.99765 0.0
H5652 H 0.87028 0.00885 0.26486 0.0
H5653 H 0.85483 0.97664 0.267 0.0
H5654 H 0.9029 0.95751 0.26419 0.0
H5655 H 0.91824 0.98968 0.2616 0.0
H5656 H 0.8808 0.92899 0.24797 0.0
H5657 H 0.87891 0.96356 0.30615 0.0
H5658 H 0.87386 0.98874 0.32966 0.0
H5659 H 0.81904 0.97423 0.31071 0.0
H5660 H 0.8238 0.9491 0.28689 0.0
H5661 H 0.84001 0.83776 0.27451 0.0
H5662 H 0.85838 0.86903 0.27306 0.0
H5663 H 0.81252 0.89245 0.26968 0.0
H5664 H 0.79439 0.86156 0.27111 0.0
H5665 H 0.83556 0.91826 0.29047 0.0
H5666 H 0.84083 0.88172 0.23126 0.0
H5667 H 0.84894 0.85518 0.21192 0.0
H5668 H 0.90162 0.87246 0.23831 0.0
H5669 H 0.89377 0.89897 0.25794 0.0
C5670 C 0.87769 0.99788 0.26465 0.0
C5671 C 0.89582 1.00254 0.263 0.0
C5672 C 0.86872 0.9791 0.26609 0.0
C5673 C 0.87731 0.96373 0.26618 0.0
C5674 C 0.89542 0.9684 0.26425 0.0
C5675 C 0.90438 0.98718 0.26279 0.0
C5676 C 0.86758 0.9432 0.26816 0.0
C5677 C 0.87104 0.92691 0.25747 0.0
C5678 C 0.85469 0.93933 0.28054 0.0
C5679 C 0.85174 0.95461 0.29457 0.0
C5680 C 0.8658 0.96586 0.30687 0.0
C5681 C 0.86298 0.9801 0.32028 0.0
C5682 C 0.84615 0.98313 0.32164 0.0
C5683 C 0.83208 0.9719 0.3096 0.0
C5684 C 0.83483 0.95765 0.29615 0.0
C5685 C 0.8337 0.84939 0.27325 0.0
C5686 C 0.81526 0.84633 0.27271 0.0
C5687 C 0.84439 0.86767 0.27237 0.0
C5688 C 0.83728 0.88396 0.27094 0.0
C5689 C 0.81892 0.88079 0.27072 0.0
C5690 C 0.80835 0.86269 0.27149 0.0
C5691 C 0.84836 0.90415 0.26989 0.0
C5692 C 0.8452 0.9204 0.28085 0.0
C5693 C 0.86191 0.90789 0.25822 0.0
C5694 C 0.86667 0.89221 0.24617 0.0
C5695 C 0.85412 0.87981 0.23297 0.0
C5696 C 0.85867 0.86477 0.22197 0.0
C5697 C 0.87577 0.8621 0.22393 0.0
C5698 C 0.88838 0.87452 0.23683 0.0
C5699 C 0.88389 0.88956 0.24788 0.0
H5700 H 0.87926 0.85043 0.21543 0.0
H5701 H 0.84399 0.99414 0.33205 0.0
H5702 H 0.66519 0.10988 0.76283 0.0
H5703 H 0.67793 0.14379 0.77041 0.0
H5704 H 0.72811 0.13175 0.78587 0.0
H5705 H 0.71553 0.09783 0.77826 0.0
H5706 H 0.71844 0.16383 0.8093 0.0
H5707 H 0.7191 0.13598 0.74342 0.0
H5708 H 0.70341 0.11963 0.71329 0.0
H5709 H 0.67319 0.16231 0.71243 0.0
H5710 H 0.68856 0.17876 0.74269 0.0
H5711 H 0.78658 0.23785 0.79997 0.0
H5712 H 0.76709 0.20658 0.79765 0.0
H5713 H 0.72758 0.22531 0.765 0.0
H5714 H 0.7475 0.25578 0.76624 0.0
H5715 H 0.72635 0.19208 0.7522 0.0
H5716 H 0.72831 0.22471 0.81184 0.0
H5717 H 0.7412 0.2433 0.84201 0.0
H5718 H 0.76023 0.19586 0.8572 0.0
H5719 H 0.74825 0.17722 0.82668 0.0
C5720 C 0.6789 0.11449 0.76803 0.0
C5721 C 0.68953 0.10137 0.76966 0.0
C5722 C 0.68606 0.13377 0.7725 0.0
C5723 C 0.70386 0.14004 0.77867 0.0
C5724 C 0.71428 0.12699 0.78124 0.0
C5725 C 0.70717 0.10771 0.77666 0.0
C5726 C 0.71232 0.15994 0.7798 0.0
C5727 C 0.72027 0.17018 0.79693 0.0
C5728 C 0.7138 0.16825 0.76366 0.0
C5729 C 0.70481 0.15844 0.74538 0.0
C5730 C 0.70903 0.14179 0.73685 0.0
C5731 C 0.7002 0.13252 0.71975 0.0
C5732 C 0.68727 0.13989 0.71098 0.0
C5733 C 0.68318 0.15659 0.71926 0.0
C5734 C 0.69194 0.16588 0.73637 0.0
C5735 C 0.77393 0.23485 0.79184 0.0
C5736 C 0.76839 0.24869 0.78302 0.0
C5737 C 0.76274 0.21727 0.79077 0.0
C5738 C 0.74575 0.21387 0.78154 0.0
C5739 C 0.7406 0.22764 0.77219 0.0
C5740 C 0.75194 0.24493 0.77282 0.0
C5741 C 0.73324 0.19604 0.78172 0.0
C5742 C 0.72442 0.18615 0.76478 0.0
C5743 C 0.73039 0.18851 0.79821 0.0
C5744 C 0.73749 0.19957 0.81679 0.0
C5745 C 0.73541 0.21826 0.82149 0.0
C5746 C 0.74259 0.22884 0.83868 0.0
C5747 C 0.75151 0.22077 0.85155 0.0
C5748 C 0.75334 0.20211 0.8472 0.0
C5749 C 0.74642 0.19154 0.82991 0.0
H5750 H 0.75698 0.22896 0.86489 0.0
H5751 H 0.68044 0.13269 0.69775 0.0
loop_
_geom_bond_atom_site_label_1
_geom_bond_atom_site_label_2
_geom_bond_distance
_geom_bond_site_symmetry_2
_ccdc_geom_bond_type
In0 O1 2.294 . S
In0 O2 2.326 . S
In0 O6 2.266 . S
In0 O7 2.326 . S
In0 O8 2.266 . S
In0 O9 2.326 . S
In0 O11 2.294 . S
In0 O12 2.326 . S
O1 In0 2.294 . S
O1 C10 1.240 . S
O2 In0 2.326 . S
O2 C10 1.252 . S
C3 O6 1.252 . S
C3 O7 1.260 . S
C4 O11 1.240 . S
C4 O12 1.252 . S
C5 O8 1.252 . S
C5 O9 1.260 . S
O6 In0 2.266 . S
O6 C3 1.252 . S
O7 In0 2.326 . S
O7 C3 1.260 . S
O8 In0 2.266 . S
O8 C5 1.252 . S
O9 In0 2.326 . S
O9 C5 1.260 . S
C10 O1 1.240 . S
C10 O2 1.252 . S
O11 In0 2.294 . S
O11 C4 1.240 . S
O12 In0 2.326 . S
O12 C4 1.252 . S
In13 O14 2.294 . S
In13 O15 2.326 . S
In13 O19 2.266 1_455 S
In13 O20 2.326 1_455 S
In13 O21 2.264 1_455 S
In13 O22 2.322 1_455 S
In13 O24 2.296 . S
In13 O25 2.330 . S
O14 In13 2.294 . S
O14 C23 1.240 . S
O15 In13 2.326 . S
O15 C23 1.252 . S
C16 O19 1.252 . S
C16 O20 1.260 . S
C17 O24 1.240 . S
C17 O25 1.252 . S
C18 O21 1.252 . S
C18 O22 1.260 . S
O19 In13 2.266 1_655 S
O19 C16 1.252 . S
O20 In13 2.326 1_655 S
O20 C16 1.260 . S
O21 In13 2.264 1_655 S
O21 C18 1.252 . S
O22 In13 2.322 1_655 S
O22 C18 1.260 . S
C23 O14 1.240 . S
C23 O15 1.252 . S
O24 In13 2.296 . S
O24 C17 1.240 . S
O25 In13 2.330 . S
O25 C17 1.252 . S
In26 O27 2.294 . S
In26 O28 2.326 . S
In26 O32 2.266 . S
In26 O33 2.326 . S
In26 O34 2.266 . S
In26 O35 2.326 . S
In26 O37 2.294 . S
In26 O38 2.326 . S
O27 In26 2.294 . S
O27 C36 1.240 . S
O28 In26 2.326 . S
O28 C36 1.252 . S
C29 O32 1.252 . S
C29 O33 1.260 . S
C30 O37 1.240 . S
C30 O38 1.252 . S
C31 O34 1.252 . S
C31 O35 1.260 . S
O32 In26 2.266 . S
O32 C29 1.252 . S
O33 In26 2.326 . S
O33 C29 1.260 . S
O34 In26 2.266 . S
O34 C31 1.252 . S
O35 In26 2.326 . S
O35 C31 1.260 . S
C36 O27 1.240 . S
C36 O28 1.252 . S
O37 In26 2.294 . S
O37 C30 1.240 . S
O38 In26 2.326 . S
O38 C30 1.252 . S
In39 O40 2.294 . S
In39 O41 2.326 . S
In39 O45 2.266 . S
In39 O46 2.326 . S
In39 O47 2.266 . S
In39 O48 2.326 . S
In39 O50 2.294 . S
In39 O51 2.326 . S
O40 In39 2.294 . S
O40 C49 1.240 . S
O41 In39 2.326 . S
O41 C49 1.252 . S
C42 O45 1.252 . S
C42 O46 1.260 . S
C43 O50 1.240 . S
C43 O51 1.252 . S
C44 O47 1.252 . S
C44 O48 1.260 . S
O45 In39 2.266 . S
O45 C42 1.252 . S
O46 In39 2.326 . S
O46 C42 1.260 . S
O47 In39 2.266 . S
O47 C44 1.252 . S
O48 In39 2.326 . S
O48 C44 1.260 . S
C49 O40 1.240 . S
C49 O41 1.252 . S
O50 In39 2.294 . S
O50 C43 1.240 . S
O51 In39 2.326 . S
O51 C43 1.252 . S
In52 O53 2.294 . S
In52 O54 2.326 . S
In52 O58 2.266 . S
In52 O59 2.326 . S
In52 O60 2.266 . S
In52 O61 2.326 . S
In52 O63 2.294 . S
In52 O64 2.326 . S
O53 In52 2.294 . S
O53 C62 1.240 . S
O54 In52 2.326 . S
O54 C62 1.252 . S
C55 O58 1.252 . S
C55 O59 1.260 . S
C56 O63 1.240 . S
C56 O64 1.252 . S
C57 O60 1.252 . S
C57 O61 1.260 . S
O58 In52 2.266 . S
O58 C55 1.252 . S
O59 In52 2.326 . S
O59 C55 1.260 . S
O60 In52 2.266 . S
O60 C57 1.252 . S
O61 In52 2.326 . S
O61 C57 1.260 . S
C62 O53 1.240 . S
C62 O54 1.252 . S
O63 In52 2.294 . S
O63 C56 1.240 . S
O64 In52 2.326 . S
O64 C56 1.252 . S
In65 O66 2.294 . S
In65 O67 2.326 . S
In65 O71 2.266 . S
In65 O72 2.326 . S
In65 O73 2.266 . S
In65 O74 2.326 . S
In65 O76 2.294 . S
In65 O77 2.326 . S
O66 In65 2.294 . S
O66 C75 1.240 . S
O67 In65 2.326 . S
O67 C75 1.252 . S
C68 O71 1.252 . S
C68 O72 1.260 . S
C69 O76 1.240 . S
C69 O77 1.252 . S
C70 O73 1.252 . S
C70 O74 1.260 . S
O71 In65 2.266 . S
O71 C68 1.252 . S
O72 In65 2.326 . S
O72 C68 1.260 . S
O73 In65 2.266 . S
O73 C70 1.252 . S
O74 In65 2.326 . S
O74 C70 1.260 . S
C75 O66 1.240 . S
C75 O67 1.252 . S
O76 In65 2.294 . S
O76 C69 1.240 . S
O77 In65 2.326 . S
O77 C69 1.252 . S
In78 O79 2.294 . S
In78 O80 2.326 . S
In78 O84 2.266 . S
In78 O85 2.326 . S
In78 O86 2.266 . S
In78 O87 2.326 . S
In78 O89 2.294 . S
In78 O90 2.326 . S
O79 In78 2.294 . S
O79 C88 1.240 . S
O80 In78 2.326 . S
O80 C88 1.252 . S
C81 O84 1.252 . S
C81 O85 1.260 . S
C82 O89 1.240 . S
C82 O90 1.252 . S
C83 O86 1.252 . S
C83 O87 1.260 . S
O84 In78 2.266 . S
O84 C81 1.252 . S
O85 In78 2.326 . S
O85 C81 1.260 . S
O86 In78 2.266 . S
O86 C83 1.252 . S
O87 In78 2.326 . S
O87 C83 1.260 . S
C88 O79 1.240 . S
C88 O80 1.252 . S
O89 In78 2.294 . S
O89 C82 1.240 . S
O90 In78 2.326 . S
O90 C82 1.252 . S
In91 O92 2.294 . S
In91 O93 2.326 . S
In91 O97 2.266 . S
In91 O98 2.326 . S
In91 O99 2.266 1_455 S
In91 O100 2.326 1_455 S
In91 O102 2.294 . S
In91 O103 2.326 . S
O92 In91 2.294 . S
O92 C101 1.240 . S
O93 In91 2.326 . S
O93 C101 1.252 . S
C94 O97 1.252 . S
C94 O98 1.260 . S
C95 O102 1.240 . S
C95 O103 1.252 . S
C96 O99 1.252 . S
C96 O100 1.260 . S
O97 In91 2.266 . S
O97 C94 1.252 . S
O98 In91 2.326 . S
O98 C94 1.260 . S
O99 In91 2.266 1_655 S
O99 C96 1.252 . S
O100 In91 2.326 1_655 S
O100 C96 1.260 . S
C101 O92 1.240 . S
C101 O93 1.252 . S
O102 In91 2.294 . S
O102 C95 1.240 . S
O103 In91 2.326 . S
O103 C95 1.252 . S
In104 O105 2.294 . S
In104 O106 2.326 . S
In104 O110 2.266 . S
In104 O111 2.326 . S
In104 O112 2.266 1_545 S
In104 O113 2.326 1_545 S
In104 O115 2.294 . S
In104 O116 2.326 . S
O105 In104 2.294 . S
O105 C114 1.240 . S
O106 In104 2.326 . S
O106 C114 1.252 . S
C107 O110 1.252 . S
C107 O111 1.260 . S
C108 O115 1.240 . S
C108 O116 1.252 . S
C109 O112 1.252 . S
C109 O113 1.260 . S
O110 In104 2.266 . S
O110 C107 1.252 . S
O111 In104 2.326 . S
O111 C107 1.260 . S
O112 In104 2.266 1_565 S
O112 C109 1.252 . S
O113 In104 2.326 1_565 S
O113 C109 1.260 . S
C114 O105 1.240 . S
C114 O106 1.252 . S
O115 In104 2.294 . S
O115 C108 1.240 . S
O116 In104 2.326 . S
O116 C108 1.252 . S
In117 O118 2.294 . S
In117 O119 2.326 . S
In117 O123 2.266 . S
In117 O124 2.326 . S
In117 O125 2.266 . S
In117 O126 2.326 . S
In117 O128 2.294 . S
In117 O129 2.326 . S
O118 In117 2.294 . S
O118 C127 1.240 . S
O119 In117 2.326 . S
O119 C127 1.252 . S
C120 O123 1.252 . S
C120 O124 1.260 . S
C121 O128 1.240 . S
C121 O129 1.252 . S
C122 O125 1.252 . S
C122 O126 1.260 . S
O123 In117 2.266 . S
O123 C120 1.252 . S
O124 In117 2.326 . S
O124 C120 1.260 . S
O125 In117 2.266 . S
O125 C122 1.252 . S
O126 In117 2.326 . S
O126 C122 1.260 . S
C127 O118 1.240 . S
C127 O119 1.252 . S
O128 In117 2.294 . S
O128 C121 1.240 . S
O129 In117 2.326 . S
O129 C121 1.252 . S
In130 O131 2.294 1_545 S
In130 O132 2.328 . S
In130 O136 2.266 . S
In130 O137 2.326 . S
In130 O138 2.266 . S
In130 O139 2.326 . S
In130 O141 2.294 1_545 S
In130 O142 2.326 1_545 S
O131 In130 2.294 1_565 S
O131 C140 1.240 . S
O132 In130 2.328 . S
O132 C140 1.254 1_545 S
C133 O136 1.252 . S
C133 O137 1.260 . S
C134 O141 1.240 . S
C134 O142 1.252 . S
C135 O138 1.252 . S
C135 O139 1.260 . S
O136 In130 2.266 . S
O136 C133 1.252 . S
O137 In130 2.326 . S
O137 C133 1.260 . S
O138 In130 2.266 . S
O138 C135 1.252 . S
O139 In130 2.326 . S
O139 C135 1.260 . S
C140 O131 1.240 . S
C140 O132 1.254 1_565 S
O141 In130 2.294 1_565 S
O141 C134 1.240 . S
O142 In130 2.326 1_565 S
O142 C134 1.252 . S
In143 O144 2.294 . S
In143 O145 2.326 . S
In143 O149 2.266 1_554 S
In143 O150 2.326 1_554 S
In143 O151 2.266 . S
In143 O152 2.326 . S
In143 O154 2.294 . S
In143 O155 2.326 . S
O144 In143 2.294 . S
O144 C153 1.240 . S
O145 In143 2.326 . S
O145 C153 1.252 . S
C146 O149 1.252 . S
C146 O150 1.260 . S
C147 O154 1.240 . S
C147 O155 1.252 . S
C148 O151 1.252 . S
C148 O152 1.260 . S
O149 In143 2.266 1_556 S
O149 C146 1.252 . S
O150 In143 2.326 1_556 S
O150 C146 1.260 . S
O151 In143 2.266 . S
O151 C148 1.252 . S
O152 In143 2.326 . S
O152 C148 1.260 . S
C153 O144 1.240 . S
C153 O145 1.252 . S
O154 In143 2.294 . S
O154 C147 1.240 . S
O155 In143 2.326 . S
O155 C147 1.252 . S
In156 O157 2.294 . S
In156 O158 2.326 . S
In156 O162 2.266 1_554 S
In156 O163 2.326 1_554 S
In156 O164 2.266 . S
In156 O165 2.326 . S
In156 O167 2.294 . S
In156 O168 2.326 . S
O157 In156 2.294 . S
O157 C166 1.240 . S
O158 In156 2.326 . S
O158 C166 1.252 . S
C159 O162 1.252 . S
C159 O163 1.260 . S
C160 O167 1.240 . S
C160 O168 1.252 . S
C161 O164 1.252 . S
C161 O165 1.260 . S
O162 In156 2.266 1_556 S
O162 C159 1.252 . S
O163 In156 2.326 1_556 S
O163 C159 1.260 . S
O164 In156 2.266 . S
O164 C161 1.252 . S
O165 In156 2.326 . S
O165 C161 1.260 . S
C166 O157 1.240 . S
C166 O158 1.252 . S
O167 In156 2.294 . S
O167 C160 1.240 . S
O168 In156 2.326 . S
O168 C160 1.252 . S
In169 O170 2.294 . S
In169 O171 2.326 . S
In169 O175 2.266 . S
In169 O176 2.326 . S
In169 O177 2.266 . S
In169 O178 2.326 1_554 S
In169 O180 2.294 . S
In169 O181 2.326 . S
O170 In169 2.294 . S
O170 C179 1.240 . S
O171 In169 2.326 . S
O171 C179 1.252 . S
C172 O175 1.252 . S
C172 O176 1.260 . S
C173 O180 1.240 . S
C173 O181 1.252 . S
C174 O177 1.252 1_556 S
C174 O178 1.260 . S
O175 In169 2.266 . S
O175 C172 1.252 . S
O176 In169 2.326 . S
O176 C172 1.260 . S
O177 In169 2.266 . S
O177 C174 1.252 1_554 S
O178 In169 2.326 1_556 S
O178 C174 1.260 . S
C179 O170 1.240 . S
C179 O171 1.252 . S
O180 In169 2.294 . S
O180 C173 1.240 . S
O181 In169 2.326 . S
O181 C173 1.252 . S
In182 O183 2.294 . S
In182 O184 2.326 . S
In182 O188 2.266 . S
In182 O189 2.326 . S
In182 O190 2.266 . S
In182 O191 2.326 . S
In182 O193 2.294 . S
In182 O194 2.326 . S
O183 In182 2.294 . S
O183 C192 1.240 . S
O184 In182 2.326 . S
O184 C192 1.252 . S
C185 O188 1.252 . S
C185 O189 1.260 . S
C186 O193 1.240 . S
C186 O194 1.252 . S
C187 O190 1.252 . S
C187 O191 1.260 . S
O188 In182 2.266 . S
O188 C185 1.252 . S
O189 In182 2.326 . S
O189 C185 1.260 . S
O190 In182 2.266 . S
O190 C187 1.252 . S
O191 In182 2.326 . S
O191 C187 1.260 . S
C192 O183 1.240 . S
C192 O184 1.252 . S
O193 In182 2.294 . S
O193 C186 1.240 . S
O194 In182 2.326 . S
O194 C186 1.252 . S
In195 O196 2.294 . S
In195 O197 2.326 . S
In195 O201 2.266 . S
In195 O202 2.326 . S
In195 O203 2.266 . S
In195 O204 2.326 . S
In195 O206 2.294 . S
In195 O207 2.326 . S
O196 In195 2.294 . S
O196 C205 1.240 . S
O197 In195 2.326 . S
O197 C205 1.252 . S
C198 O201 1.252 . S
C198 O202 1.260 . S
C199 O206 1.240 . S
C199 O207 1.252 . S
C200 O203 1.252 . S
C200 O204 1.260 . S
O201 In195 2.266 . S
O201 C198 1.252 . S
O202 In195 2.326 . S
O202 C198 1.260 . S
O203 In195 2.266 . S
O203 C200 1.252 . S
O204 In195 2.326 . S
O204 C200 1.260 . S
C205 O196 1.240 . S
C205 O197 1.252 . S
O206 In195 2.294 . S
O206 C199 1.240 . S
O207 In195 2.326 . S
O207 C199 1.252 . S
In208 O209 2.294 . S
In208 O210 2.326 . S
In208 O214 2.266 . S
In208 O215 2.326 . S
In208 O216 2.266 . S
In208 O217 2.326 . S
In208 O219 2.294 . S
In208 O220 2.326 . S
O209 In208 2.294 . S
O209 C218 1.240 . S
O210 In208 2.326 . S
O210 C218 1.252 . S
C211 O214 1.252 . S
C211 O215 1.260 . S
C212 O219 1.240 . S
C212 O220 1.252 . S
C213 O216 1.252 . S
C213 O217 1.260 . S
O214 In208 2.266 . S
O214 C211 1.252 . S
O215 In208 2.326 . S
O215 C211 1.260 . S
O216 In208 2.266 . S
O216 C213 1.252 . S
O217 In208 2.326 . S
O217 C213 1.260 . S
C218 O209 1.240 . S
C218 O210 1.252 . S
O219 In208 2.294 . S
O219 C212 1.240 . S
O220 In208 2.326 . S
O220 C212 1.252 . S
In221 O222 2.294 . S
In221 O223 2.326 . S
In221 O227 2.266 . S
In221 O228 2.326 . S
In221 O229 2.266 . S
In221 O230 2.326 . S
In221 O232 2.294 . S
In221 O233 2.326 . S
O222 In221 2.294 . S
O222 C231 1.240 . S
O223 In221 2.326 . S
O223 C231 1.252 . S
C224 O227 1.252 . S
C224 O228 1.260 . S
C225 O232 1.240 . S
C225 O233 1.252 . S
C226 O229 1.252 . S
C226 O230 1.260 . S
O227 In221 2.266 . S
O227 C224 1.252 . S
O228 In221 2.326 . S
O228 C224 1.260 . S
O229 In221 2.266 . S
O229 C226 1.252 . S
O230 In221 2.326 . S
O230 C226 1.260 . S
C231 O222 1.240 . S
C231 O223 1.252 . S
O232 In221 2.294 . S
O232 C225 1.240 . S
O233 In221 2.326 . S
O233 C225 1.252 . S
In234 O235 2.294 . S
In234 O236 2.326 . S
In234 O240 2.266 . S
In234 O241 2.326 . S
In234 O242 2.266 . S
In234 O243 2.326 . S
In234 O245 2.294 . S
In234 O246 2.326 . S
O235 In234 2.294 . S
O235 C244 1.240 . S
O236 In234 2.326 . S
O236 C244 1.252 . S
C237 O240 1.252 . S
C237 O241 1.260 . S
C238 O245 1.240 . S
C238 O246 1.252 . S
C239 O242 1.252 . S
C239 O243 1.260 . S
O240 In234 2.266 . S
O240 C237 1.252 . S
O241 In234 2.326 . S
O241 C237 1.260 . S
O242 In234 2.266 . S
O242 C239 1.252 . S
O243 In234 2.326 . S
O243 C239 1.260 . S
C244 O235 1.240 . S
C244 O236 1.252 . S
O245 In234 2.294 . S
O245 C238 1.240 . S
O246 In234 2.326 . S
O246 C238 1.252 . S
In247 O248 2.294 . S
In247 O249 2.326 . S
In247 O253 2.266 . S
In247 O254 2.326 . S
In247 O255 2.266 . S
In247 O256 2.326 . S
In247 O258 2.294 . S
In247 O259 2.326 . S
O248 In247 2.294 . S
O248 C257 1.240 . S
O249 In247 2.326 . S
O249 C257 1.252 . S
C250 O253 1.252 . S
C250 O254 1.260 . S
C251 O258 1.240 . S
C251 O259 1.252 . S
C252 O255 1.252 . S
C252 O256 1.260 . S
O253 In247 2.266 . S
O253 C250 1.252 . S
O254 In247 2.326 . S
O254 C250 1.260 . S
O255 In247 2.266 . S
O255 C252 1.252 . S
O256 In247 2.326 . S
O256 C252 1.260 . S
C257 O248 1.240 . S
C257 O249 1.252 . S
O258 In247 2.294 . S
O258 C251 1.240 . S
O259 In247 2.326 . S
O259 C251 1.252 . S
In260 O261 2.294 . S
In260 O262 2.326 . S
In260 O266 2.266 . S
In260 O267 2.326 . S
In260 O268 2.266 1_554 S
In260 O269 2.326 1_554 S
In260 O271 2.294 . S
In260 O272 2.326 . S
O261 In260 2.294 . S
O261 C270 1.240 . S
O262 In260 2.326 . S
O262 C270 1.252 . S
C263 O266 1.252 . S
C263 O267 1.260 . S
C264 O271 1.240 . S
C264 O272 1.252 . S
C265 O268 1.252 . S
C265 O269 1.260 . S
O266 In260 2.266 . S
O266 C263 1.252 . S
O267 In260 2.326 . S
O267 C263 1.260 . S
O268 In260 2.266 1_556 S
O268 C265 1.252 . S
O269 In260 2.326 1_556 S
O269 C265 1.260 . S
C270 O261 1.240 . S
C270 O262 1.252 . S
O271 In260 2.294 . S
O271 C264 1.240 . S
O272 In260 2.326 . S
O272 C264 1.252 . S
In273 O274 2.294 . S
In273 O275 2.326 . S
In273 O279 2.266 . S
In273 O280 2.326 . S
In273 O281 2.266 . S
In273 O282 2.326 . S
In273 O284 2.294 . S
In273 O285 2.326 . S
O274 In273 2.294 . S
O274 C283 1.240 . S
O275 In273 2.326 . S
O275 C283 1.252 . S
C276 O279 1.252 . S
C276 O280 1.260 . S
C277 O284 1.240 . S
C277 O285 1.252 . S
C278 O281 1.252 . S
C278 O282 1.260 . S
O279 In273 2.266 . S
O279 C276 1.252 . S
O280 In273 2.326 . S
O280 C276 1.260 . S
O281 In273 2.266 . S
O281 C278 1.252 . S
O282 In273 2.326 . S
O282 C278 1.260 . S
C283 O274 1.240 . S
C283 O275 1.252 . S
O284 In273 2.294 . S
O284 C277 1.240 . S
O285 In273 2.326 . S
O285 C277 1.252 . S
In286 O287 2.294 . S
In286 O288 2.326 . S
In286 O292 2.266 . S
In286 O293 2.326 . S
In286 O294 2.266 . S
In286 O295 2.326 . S
In286 O297 2.294 . S
In286 O298 2.326 . S
O287 In286 2.294 . S
O287 C296 1.240 . S
O288 In286 2.326 . S
O288 C296 1.252 . S
C289 O292 1.252 . S
C289 O293 1.260 . S
C290 O297 1.240 . S
C290 O298 1.252 . S
C291 O294 1.252 . S
C291 O295 1.260 . S
O292 In286 2.266 . S
O292 C289 1.252 . S
O293 In286 2.326 . S
O293 C289 1.260 . S
O294 In286 2.266 . S
O294 C291 1.252 . S
O295 In286 2.326 . S
O295 C291 1.260 . S
C296 O287 1.240 . S
C296 O288 1.252 . S
O297 In286 2.294 . S
O297 C290 1.240 . S
O298 In286 2.326 . S
O298 C290 1.252 . S
In299 O300 2.294 . S
In299 O301 2.326 . S
In299 O305 2.266 . S
In299 O306 2.326 . S
In299 O307 2.266 . S
In299 O308 2.326 . S
In299 O310 2.294 . S
In299 O311 2.326 . S
O300 In299 2.294 . S
O300 C309 1.240 . S
O301 In299 2.326 . S
O301 C309 1.252 . S
C302 O305 1.252 . S
C302 O306 1.260 . S
C303 O310 1.240 . S
C303 O311 1.252 . S
C304 O307 1.252 . S
C304 O308 1.260 . S
O305 In299 2.266 . S
O305 C302 1.252 . S
O306 In299 2.326 . S
O306 C302 1.260 . S
O307 In299 2.266 . S
O307 C304 1.252 . S
O308 In299 2.326 . S
O308 C304 1.260 . S
C309 O300 1.240 . S
C309 O301 1.252 . S
O310 In299 2.294 . S
O310 C303 1.240 . S
O311 In299 2.326 . S
O311 C303 1.252 . S
La312 C314 2.928 1_455 S
La312 O332 2.521 1_454 S
La312 O333 2.628 1_455 S
La312 O334 2.554 1_554 S
La312 O335 2.757 . S
La312 O336 2.470 . S
La312 O341 2.482 . S
La312 O343 2.503 . S
La313 C323 2.928 . S
La313 O335 2.482 . S
La313 O337 2.503 . S
La313 O338 2.521 . S
La313 O339 2.628 . S
La313 O340 2.554 . S
La313 O341 2.757 . S
La313 O342 2.470 . S
C314 La312 2.928 1_655 S
C314 C315 1.503 . S
C314 O332 1.261 1_554 S
C314 O333 1.243 . S
C315 C314 1.503 . S
C315 C316 1.394 1_554 S
C315 C320 1.373 . S
C316 C315 1.394 1_556 S
C316 C317 1.380 . S
C316 H344 0.930 . S
C317 C316 1.380 . S
C317 C318 1.376 . S
C317 H345 0.930 . S
C318 C317 1.376 . S
C318 C319 1.370 1_556 S
C319 C318 1.370 1_554 S
C319 C320 1.396 . S
C319 H346 0.929 . S
C320 C315 1.373 . S
C320 C319 1.396 . S
C320 H347 0.929 . S
C321 O334 1.240 . S
C321 O335 1.289 1_556 S
C322 O336 1.258 . S
C322 O337 1.256 . S
C323 La313 2.928 . S
C323 C324 1.503 . S
C323 O338 1.261 . S
C323 O339 1.243 . S
C324 C323 1.503 . S
C324 C325 1.394 . S
C324 C329 1.373 . S
C325 C324 1.394 . S
C325 C326 1.380 . S
C325 H348 0.930 . S
C326 C325 1.380 . S
C326 C327 1.376 . S
C326 H349 0.930 . S
C327 C326 1.376 . S
C327 C328 1.370 . S
C328 C327 1.370 . S
C328 C329 1.396 . S
C328 H350 0.929 . S
C329 C324 1.373 . S
C329 C328 1.396 . S
C329 H351 0.929 . S
C330 O340 1.240 . S
C330 O341 1.289 . S
C331 O342 1.258 . S
C331 O343 1.256 . S
O332 La312 2.521 1_656 S
O332 C314 1.261 1_556 S
O333 La312 2.628 1_655 S
O333 C314 1.243 . S
O334 La312 2.554 1_556 S
O334 C321 1.240 . S
O335 La312 2.757 . S
O335 La313 2.482 . S
O335 C321 1.289 1_554 S
O336 La312 2.470 . S
O336 C322 1.258 . S
O337 La313 2.503 . S
O337 C322 1.256 . S
O338 La313 2.521 . S
O338 C323 1.261 . S
O339 La313 2.628 . S
O339 C323 1.243 . S
O340 La313 2.554 . S
O340 C330 1.240 . S
O341 La312 2.482 . S
O341 La313 2.757 . S
O341 C330 1.289 . S
O342 La313 2.470 . S
O342 C331 1.258 . S
O343 La312 2.503 . S
O343 C331 1.256 . S
H344 C316 0.930 . S
H345 C317 0.930 . S
H346 C319 0.929 . S
H347 C320 0.929 . S
H348 C325 0.930 . S
H349 C326 0.930 . S
H350 C328 0.929 . S
H351 C329 0.929 . S
La352 C354 2.928 . S
La352 O372 2.521 . S
La352 O373 2.628 . S
La352 O374 2.554 . S
La352 O375 2.757 . S
La352 O376 2.470 . S
La352 O381 2.482 . S
La352 O383 2.503 . S
La353 C363 2.928 . S
La353 O375 2.482 . S
La353 O377 2.503 . S
La353 O378 2.521 . S
La353 O379 2.628 . S
La353 O380 2.554 . S
La353 O381 2.757 . S
La353 O382 2.470 . S
C354 La352 2.928 . S
C354 C355 1.503 . S
C354 O372 1.261 . S
C354 O373 1.243 . S
C355 C354 1.503 . S
C355 C356 1.394 . S
C355 C360 1.373 . S
C356 C355 1.394 . S
C356 C357 1.380 . S
C356 H384 0.930 . S
C357 C356 1.380 . S
C357 C358 1.376 . S
C357 H385 0.930 . S
C358 C357 1.376 . S
C358 C359 1.370 . S
C359 C358 1.370 . S
C359 C360 1.396 . S
C359 H386 0.929 . S
C360 C355 1.373 . S
C360 C359 1.396 . S
C360 H387 0.929 . S
C361 O374 1.240 . S
C361 O375 1.289 . S
C362 O376 1.258 . S
C362 O377 1.256 . S
C363 La353 2.928 . S
C363 C364 1.503 . S
C363 O378 1.261 . S
C363 O379 1.243 . S
C364 C363 1.503 . S
C364 C365 1.394 . S
C364 C369 1.373 . S
C365 C364 1.394 . S
C365 C366 1.380 . S
C365 H388 0.930 . S
C366 C365 1.380 . S
C366 C367 1.376 . S
C366 H389 0.930 . S
C367 C366 1.376 . S
C367 C368 1.370 . S
C368 C367 1.370 . S
C368 C369 1.396 . S
C368 H390 0.929 . S
C369 C364 1.373 . S
C369 C368 1.396 . S
C369 H391 0.929 . S
C370 O380 1.240 . S
C370 O381 1.289 . S
C371 O382 1.258 . S
C371 O383 1.256 . S
O372 La352 2.521 . S
O372 C354 1.261 . S
O373 La352 2.628 . S
O373 C354 1.243 . S
O374 La352 2.554 . S
O374 C361 1.240 . S
O375 La352 2.757 . S
O375 La353 2.482 . S
O375 C361 1.289 . S
O376 La352 2.470 . S
O376 C362 1.258 . S
O377 La353 2.503 . S
O377 C362 1.256 . S
O378 La353 2.521 . S
O378 C363 1.261 . S
O379 La353 2.628 . S
O379 C363 1.243 . S
O380 La353 2.554 . S
O380 C370 1.240 . S
O381 La352 2.482 . S
O381 La353 2.757 . S
O381 C370 1.289 . S
O382 La353 2.470 . S
O382 C371 1.258 . S
O383 La352 2.503 . S
O383 C371 1.256 . S
H384 C356 0.930 . S
H385 C357 0.930 . S
H386 C359 0.929 . S
H387 C360 0.929 . S
H388 C365 0.930 . S
H389 C366 0.930 . S
H390 C368 0.929 . S
H391 C369 0.929 . S
La392 C394 2.928 . S
La392 O412 2.521 . S
La392 O413 2.628 . S
La392 O414 2.554 . S
La392 O415 2.757 . S
La392 O416 2.470 1_545 S
La392 O421 2.482 . S
La392 O423 2.503 . S
La393 C403 2.928 . S
La393 O415 2.482 . S
La393 O417 2.503 1_545 S
La393 O418 2.521 . S
La393 O419 2.628 . S
La393 O420 2.554 . S
La393 O421 2.757 . S
La393 O422 2.470 . S
C394 La392 2.928 . S
C394 C395 1.503 1_545 S
C394 O412 1.261 . S
C394 O413 1.243 . S
C395 C394 1.503 1_565 S
C395 C396 1.394 . S
C395 C400 1.373 . S
C396 C395 1.394 . S
C396 C397 1.380 . S
C396 H424 0.980 . S
C397 C396 1.380 . S
C397 C398 1.376 . S
C397 H425 0.930 . S
C398 C397 1.376 . S
C398 C399 1.370 . S
C399 C398 1.370 . S
C399 C400 1.396 . S
C399 H426 0.929 . S
C400 C395 1.373 . S
C400 C399 1.396 . S
C400 H427 0.929 . S
C401 O414 1.240 . S
C401 O415 1.289 . S
C402 O416 1.258 . S
C402 O417 1.256 . S
C403 La393 2.928 . S
C403 C404 1.503 . S
C403 O418 1.261 . S
C403 O419 1.243 . S
C404 C403 1.503 . S
C404 C405 1.394 . S
C404 C409 1.373 . S
C405 C404 1.394 . S
C405 C406 1.380 . S
C405 H428 0.930 . S
C406 C405 1.380 . S
C406 C407 1.376 . S
C406 H429 0.930 . S
C407 C406 1.376 . S
C407 C408 1.370 . S
C408 C407 1.370 . S
C408 C409 1.396 . S
C408 H430 0.929 . S
C409 C404 1.373 . S
C409 C408 1.396 . S
C409 H431 0.929 . S
C410 O420 1.240 . S
C410 O421 1.289 . S
C411 O422 1.258 . S
C411 O423 1.256 . S
O412 La392 2.521 . S
O412 C394 1.261 . S
O413 La392 2.628 . S
O413 C394 1.243 . S
O414 La392 2.554 . S
O414 C401 1.240 . S
O415 La392 2.757 . S
O415 La393 2.482 . S
O415 C401 1.289 . S
O416 La392 2.470 1_565 S
O416 C402 1.258 . S
O417 La393 2.503 1_565 S
O417 C402 1.256 . S
O418 La393 2.521 . S
O418 C403 1.261 . S
O419 La393 2.628 . S
O419 C403 1.243 . S
O420 La393 2.554 . S
O420 C410 1.240 . S
O421 La392 2.482 . S
O421 La393 2.757 . S
O421 C410 1.289 . S
O422 La393 2.470 . S
O422 C411 1.258 . S
O423 La392 2.503 . S
O423 C411 1.256 . S
H424 C396 0.980 . S
H425 C397 0.930 . S
H426 C399 0.929 . S
H427 C400 0.929 . S
H428 C405 0.930 . S
H429 C406 0.930 . S
H430 C408 0.929 . S
H431 C409 0.929 . S
La432 C434 2.928 . S
La432 O452 2.521 . S
La432 O453 2.628 . S
La432 O454 2.554 . S
La432 O455 2.757 . S
La432 O456 2.470 . S
La432 O461 2.482 . S
La432 O463 2.503 . S
La433 C443 2.928 . S
La433 O455 2.482 . S
La433 O457 2.503 . S
La433 O458 2.521 . S
La433 O459 2.628 . S
La433 O460 2.554 . S
La433 O461 2.757 . S
La433 O462 2.470 . S
C434 La432 2.928 . S
C434 C435 1.503 . S
C434 O452 1.261 . S
C434 O453 1.243 . S
C435 C434 1.503 . S
C435 C436 1.394 . S
C435 C440 1.373 . S
C436 C435 1.394 . S
C436 C437 1.380 . S
C436 H464 0.930 . S
C437 C436 1.380 . S
C437 C438 1.376 . S
C437 H465 0.930 . S
C438 C437 1.376 . S
C438 C439 1.370 . S
C439 C438 1.370 . S
C439 C440 1.396 . S
C439 H466 0.929 . S
C440 C435 1.373 . S
C440 C439 1.396 . S
C440 H467 0.929 . S
C441 O454 1.240 . S
C441 O455 1.289 . S
C442 O456 1.258 . S
C442 O457 1.256 . S
C443 La433 2.928 . S
C443 C444 1.503 . S
C443 O458 1.261 . S
C443 O459 1.243 . S
C444 C443 1.503 . S
C444 C445 1.394 . S
C444 C449 1.373 . S
C445 C444 1.394 . S
C445 C446 1.380 . S
C445 H468 0.930 . S
C446 C445 1.380 . S
C446 C447 1.376 . S
C446 H469 0.930 . S
C447 C446 1.376 . S
C447 C448 1.370 . S
C448 C447 1.370 . S
C448 C449 1.396 . S
C448 H470 0.929 . S
C449 C444 1.373 . S
C449 C448 1.396 . S
C449 H471 0.929 . S
C450 O460 1.240 . S
C450 O461 1.289 . S
C451 O462 1.258 . S
C451 O463 1.256 . S
O452 La432 2.521 . S
O452 C434 1.261 . S
O453 La432 2.628 . S
O453 C434 1.243 . S
O454 La432 2.554 . S
O454 C441 1.240 . S
O455 La432 2.757 . S
O455 La433 2.482 . S
O455 C441 1.289 . S
O456 La432 2.470 . S
O456 C442 1.258 . S
O457 La433 2.503 . S
O457 C442 1.256 . S
O458 La433 2.521 . S
O458 C443 1.261 . S
O459 La433 2.628 . S
O459 C443 1.243 . S
O460 La433 2.554 . S
O460 C450 1.240 . S
O461 La432 2.482 . S
O461 La433 2.757 . S
O461 C450 1.289 . S
O462 La433 2.470 . S
O462 C451 1.258 . S
O463 La432 2.503 . S
O463 C451 1.256 . S
H464 C436 0.930 . S
H465 C437 0.930 . S
H466 C439 0.929 . S
H467 C440 0.929 . S
H468 C445 0.930 . S
H469 C446 0.930 . S
H470 C448 0.929 . S
H471 C449 0.929 . S
La472 C474 2.928 . S
La472 O492 2.521 . S
La472 O493 2.628 . S
La472 O494 2.554 . S
La472 O495 2.757 . S
La472 O496 2.470 . S
La472 O501 2.482 . S
La472 O503 2.503 . S
La473 C483 2.928 . S
La473 O495 2.482 1_565 S
La473 O497 2.503 1_565 S
La473 O498 2.521 . S
La473 O499 2.628 . S
La473 O500 2.554 1_565 S
La473 O501 2.757 1_565 S
La473 O502 2.470 1_565 S
C474 La472 2.928 . S
C474 C475 1.503 . S
C474 O492 1.261 . S
C474 O493 1.243 . S
C475 C474 1.503 . S
C475 C476 1.394 . S
C475 C480 1.373 . S
C476 C475 1.394 . S
C476 C477 1.380 . S
C476 H504 0.930 . S
C477 C476 1.380 . S
C477 C478 1.376 . S
C477 H505 0.930 . S
C478 C477 1.376 . S
C478 C479 1.370 . S
C479 C478 1.370 . S
C479 C480 1.396 . S
C479 H506 0.929 . S
C480 C475 1.373 . S
C480 C479 1.396 . S
C480 H507 0.929 . S
C481 O494 1.240 . S
C481 O495 1.289 . S
C482 O496 1.258 . S
C482 O497 1.256 . S
C483 La473 2.928 . S
C483 C484 1.503 . S
C483 O498 1.261 . S
C483 O499 1.243 . S
C484 C483 1.503 . S
C484 C485 1.394 . S
C484 C489 1.373 . S
C485 C484 1.394 . S
C485 C486 1.380 . S
C485 H508 0.930 . S
C486 C485 1.380 . S
C486 C487 1.376 . S
C486 H509 0.930 . S
C487 C486 1.376 . S
C487 C488 1.370 . S
C488 C487 1.370 . S
C488 C489 1.396 . S
C488 H510 0.929 . S
C489 C484 1.373 . S
C489 C488 1.396 . S
C489 H511 0.929 . S
C490 O500 1.240 . S
C490 O501 1.289 . S
C491 O502 1.258 . S
C491 O503 1.256 . S
O492 La472 2.521 . S
O492 C474 1.261 . S
O493 La472 2.628 . S
O493 C474 1.243 . S
O494 La472 2.554 . S
O494 C481 1.240 . S
O495 La472 2.757 . S
O495 La473 2.482 1_545 S
O495 C481 1.289 . S
O496 La472 2.470 . S
O496 C482 1.258 . S
O497 La473 2.503 1_545 S
O497 C482 1.256 . S
O498 La473 2.521 . S
O498 C483 1.261 . S
O499 La473 2.628 . S
O499 C483 1.243 . S
O500 La473 2.554 1_545 S
O500 C490 1.240 . S
O501 La472 2.482 . S
O501 La473 2.757 1_545 S
O501 C490 1.289 . S
O502 La473 2.470 1_545 S
O502 C491 1.258 . S
O503 La472 2.503 . S
O503 C491 1.256 . S
H504 C476 0.930 . S
H505 C477 0.930 . S
H506 C479 0.929 . S
H507 C480 0.929 . S
H508 C485 0.930 . S
H509 C486 0.930 . S
H510 C488 0.929 . S
H511 C489 0.929 . S
La512 C514 2.928 . S
La512 O532 2.521 . S
La512 O533 2.628 . S
La512 O534 2.554 . S
La512 O535 2.757 . S
La512 O536 2.470 . S
La512 O541 2.482 . S
La512 O543 2.503 . S
La513 C523 2.928 . S
La513 O535 2.482 . S
La513 O537 2.503 . S
La513 O538 2.521 . S
La513 O539 2.628 . S
La513 O540 2.554 . S
La513 O541 2.757 . S
La513 O542 2.470 . S
C514 La512 2.928 . S
C514 C515 1.503 . S
C514 O532 1.261 . S
C514 O533 1.243 . S
C515 C514 1.503 . S
C515 C516 1.394 . S
C515 C520 1.373 . S
C516 C515 1.394 . S
C516 C517 1.380 . S
C516 H544 0.930 . S
C517 C516 1.380 . S
C517 C518 1.376 . S
C517 H545 0.930 . S
C518 C517 1.376 . S
C518 C519 1.370 . S
C519 C518 1.370 . S
C519 C520 1.396 . S
C519 H546 0.929 . S
C520 C515 1.373 . S
C520 C519 1.396 . S
C520 H547 0.929 . S
C521 O534 1.240 . S
C521 O535 1.289 . S
C522 O536 1.258 . S
C522 O537 1.256 . S
C523 La513 2.928 . S
C523 C524 1.503 . S
C523 O538 1.261 . S
C523 O539 1.243 . S
C524 C523 1.503 . S
C524 C525 1.394 . S
C524 C529 1.373 . S
C525 C524 1.394 . S
C525 C526 1.380 . S
C525 H548 0.930 . S
C526 C525 1.380 . S
C526 C527 1.376 . S
C526 H549 0.930 . S
C527 C526 1.376 . S
C527 C528 1.370 . S
C528 C527 1.370 . S
C528 C529 1.396 . S
C528 H550 0.929 . S
C529 C524 1.373 . S
C529 C528 1.396 . S
C529 H551 0.929 . S
C530 O540 1.240 . S
C530 O541 1.289 . S
C531 O542 1.258 . S
C531 O543 1.256 . S
O532 La512 2.521 . S
O532 C514 1.261 . S
O533 La512 2.628 . S
O533 C514 1.243 . S
O534 La512 2.554 . S
O534 C521 1.240 . S
O535 La512 2.757 . S
O535 La513 2.482 . S
O535 C521 1.289 . S
O536 La512 2.470 . S
O536 C522 1.258 . S
O537 La513 2.503 . S
O537 C522 1.256 . S
O538 La513 2.521 . S
O538 C523 1.261 . S
O539 La513 2.628 . S
O539 C523 1.243 . S
O540 La513 2.554 . S
O540 C530 1.240 . S
O541 La512 2.482 . S
O541 La513 2.757 . S
O541 C530 1.289 . S
O542 La513 2.470 . S
O542 C531 1.258 . S
O543 La512 2.503 . S
O543 C531 1.256 . S
H544 C516 0.930 . S
H545 C517 0.930 . S
H546 C519 0.929 . S
H547 C520 0.929 . S
H548 C525 0.930 . S
H549 C526 0.930 . S
H550 C528 0.929 . S
H551 C529 0.929 . S
La552 C554 2.928 . S
La552 O572 2.521 . S
La552 O573 2.628 . S
La552 O574 2.554 . S
La552 O575 2.757 1_554 S
La552 O576 2.470 . S
La552 O581 2.482 . S
La552 O583 2.503 . S
La553 C563 2.928 . S
La553 O575 2.482 . S
La553 O577 2.503 . S
La553 O578 2.521 . S
La553 O579 2.628 . S
La553 O580 2.554 . S
La553 O581 2.757 1_556 S
La553 O582 2.470 . S
C554 La552 2.928 . S
C554 C555 1.503 . S
C554 O572 1.261 . S
C554 O573 1.243 . S
C555 C554 1.503 . S
C555 C556 1.394 . S
C555 C560 1.373 . S
C556 C555 1.394 . S
C556 C557 1.380 1_545 S
C556 H584 0.930 1_545 S
C557 C556 1.380 1_565 S
C557 C558 1.376 1_565 S
C557 H585 0.930 . S
C558 C557 1.376 1_545 S
C558 C559 1.370 . S
C559 C558 1.370 . S
C559 C560 1.396 . S
C559 H586 0.929 . S
C560 C555 1.373 . S
C560 C559 1.396 . S
C560 H587 0.929 . S
C561 O574 1.240 1_556 S
C561 O575 1.289 . S
C562 O576 1.258 . S
C562 O577 1.256 1_554 S
C563 La553 2.928 . S
C563 C564 1.503 . S
C563 O578 1.261 . S
C563 O579 1.243 . S
C564 C563 1.503 . S
C564 C565 1.394 . S
C564 C569 1.373 . S
C565 C564 1.394 . S
C565 C566 1.380 . S
C565 H588 0.930 . S
C566 C565 1.380 . S
C566 C567 1.376 . S
C566 H589 0.930 . S
C567 C566 1.376 . S
C567 C568 1.370 . S
C568 C567 1.370 . S
C568 C569 1.396 . S
C568 H590 0.929 . S
C569 C564 1.373 . S
C569 C568 1.396 . S
C569 H591 0.929 . S
C570 O580 1.240 1_554 S
C570 O581 1.289 . S
C571 O582 1.258 1_554 S
C571 O583 1.256 . S
O572 La552 2.521 . S
O572 C554 1.261 . S
O573 La552 2.628 . S
O573 C554 1.243 . S
O574 La552 2.554 . S
O574 C561 1.240 1_554 S
O575 La552 2.757 1_556 S
O575 La553 2.482 . S
O575 C561 1.289 . S
O576 La552 2.470 . S
O576 C562 1.258 . S
O577 La553 2.503 . S
O577 C562 1.256 1_556 S
O578 La553 2.521 . S
O578 C563 1.261 . S
O579 La553 2.628 . S
O579 C563 1.243 . S
O580 La553 2.554 . S
O580 C570 1.240 1_556 S
O581 La552 2.482 . S
O581 La553 2.757 1_554 S
O581 C570 1.289 . S
O582 La553 2.470 . S
O582 C571 1.258 1_556 S
O583 La552 2.503 . S
O583 C571 1.256 . S
H584 C556 0.930 1_565 S
H585 C557 0.930 . S
H586 C559 0.929 . S
H587 C560 0.929 . S
H588 C565 0.930 . S
H589 C566 0.930 . S
H590 C568 0.929 . S
H591 C569 0.929 . S
La592 C594 2.928 . S
La592 O612 2.521 . S
La592 O613 2.628 . S
La592 O614 2.554 . S
La592 O615 2.757 . S
La592 O616 2.470 . S
La592 O621 2.482 . S
La592 O623 2.503 . S
La593 C603 2.928 . S
La593 O615 2.482 . S
La593 O617 2.503 . S
La593 O618 2.521 . S
La593 O619 2.628 . S
La593 O620 2.554 . S
La593 O621 2.757 . S
La593 O622 2.470 . S
C594 La592 2.928 . S
C594 C595 1.503 . S
C594 O612 1.261 . S
C594 O613 1.243 . S
C595 C594 1.503 . S
C595 C596 1.394 . S
C595 C600 1.373 . S
C596 C595 1.394 . S
C596 C597 1.380 . S
C596 H624 0.930 . S
C597 C596 1.380 . S
C597 C598 1.376 . S
C597 H625 0.930 . S
C598 C597 1.376 . S
C598 C599 1.370 . S
C599 C598 1.370 . S
C599 C600 1.396 . S
C599 H626 0.929 . S
C600 C595 1.373 . S
C600 C599 1.396 . S
C600 H627 0.929 . S
C601 O614 1.240 . S
C601 O615 1.289 . S
C602 O616 1.258 . S
C602 O617 1.256 . S
C603 La593 2.928 . S
C603 C604 1.503 . S
C603 O618 1.261 . S
C603 O619 1.243 . S
C604 C603 1.503 . S
C604 C605 1.394 . S
C604 C609 1.373 . S
C605 C604 1.394 . S
C605 C606 1.380 . S
C605 H628 0.930 . S
C606 C605 1.380 . S
C606 C607 1.376 . S
C606 H629 0.930 . S
C607 C606 1.376 . S
C607 C608 1.370 . S
C608 C607 1.370 . S
C608 C609 1.396 . S
C608 H630 0.929 . S
C609 C604 1.373 . S
C609 C608 1.396 . S
C609 H631 0.929 . S
C610 O620 1.240 . S
C610 O621 1.289 . S
C611 O622 1.258 . S
C611 O623 1.256 . S
O612 La592 2.521 . S
O612 C594 1.261 . S
O613 La592 2.628 . S
O613 C594 1.243 . S
O614 La592 2.554 . S
O614 C601 1.240 . S
O615 La592 2.757 . S
O615 La593 2.482 . S
O615 C601 1.289 . S
O616 La592 2.470 . S
O616 C602 1.258 . S
O617 La593 2.503 . S
O617 C602 1.256 . S
O618 La593 2.521 . S
O618 C603 1.261 . S
O619 La593 2.628 . S
O619 C603 1.243 . S
O620 La593 2.554 . S
O620 C610 1.240 . S
O621 La592 2.482 . S
O621 La593 2.757 . S
O621 C610 1.289 . S
O622 La593 2.470 . S
O622 C611 1.258 . S
O623 La592 2.503 . S
O623 C611 1.256 . S
H624 C596 0.930 . S
H625 C597 0.930 . S
H626 C599 0.929 . S
H627 C600 0.929 . S
H628 C605 0.930 . S
H629 C606 0.930 . S
H630 C608 0.929 . S
H631 C609 0.929 . S
La632 C634 2.928 1_554 S
La632 O652 2.521 . S
La632 O653 2.628 1_554 S
La632 O654 2.554 . S
La632 O655 2.757 . S
La632 O656 2.470 1_554 S
La632 O661 2.482 . S
La632 O663 2.503 . S
La633 C643 2.928 1_556 S
La633 O655 2.482 1_556 S
La633 O657 2.503 . S
La633 O658 2.521 1_556 S
La633 O659 2.628 1_556 S
La633 O660 2.554 . S
La633 O661 2.757 1_556 S
La633 O662 2.470 1_556 S
C634 La632 2.928 1_556 S
C634 C635 1.503 . S
C634 O652 1.261 1_556 S
C634 O653 1.243 . S
C635 C634 1.503 . S
C635 C636 1.394 . S
C635 C640 1.373 . S
C636 C635 1.394 . S
C636 C637 1.380 . S
C636 H664 0.930 . S
C637 C636 1.380 . S
C637 C638 1.376 . S
C637 H665 0.930 . S
C638 C637 1.376 . S
C638 C639 1.370 . S
C639 C638 1.370 . S
C639 C640 1.396 . S
C639 H666 0.929 . S
C640 C635 1.373 . S
C640 C639 1.396 . S
C640 H667 0.929 . S
C641 O654 1.240 . S
C641 O655 1.289 . S
C642 O656 1.258 . S
C642 O657 1.256 . S
C643 La633 2.928 1_554 S
C643 C644 1.503 . S
C643 O658 1.261 . S
C643 O659 1.243 . S
C644 C643 1.503 . S
C644 C645 1.394 . S
C644 C649 1.373 . S
C645 C644 1.394 . S
C645 C646 1.380 . S
C645 H668 0.930 . S
C646 C645 1.380 . S
C646 C647 1.376 . S
C646 H669 0.930 . S
C647 C646 1.376 . S
C647 C648 1.370 . S
C648 C647 1.370 . S
C648 C649 1.396 . S
C648 H670 0.929 . S
C649 C644 1.373 . S
C649 C648 1.396 . S
C649 H671 0.929 . S
C650 O660 1.241 1_554 S
C650 O661 1.291 . S
C651 O662 1.258 . S
C651 O663 1.256 . S
O652 La632 2.521 . S
O652 C634 1.261 1_554 S
O653 La632 2.628 1_556 S
O653 C634 1.243 . S
O654 La632 2.554 . S
O654 C641 1.240 . S
O655 La632 2.757 . S
O655 La633 2.482 1_554 S
O655 C641 1.289 . S
O656 La632 2.470 1_556 S
O656 C642 1.258 . S
O657 La633 2.503 . S
O657 C642 1.256 . S
O658 La633 2.521 1_554 S
O658 C643 1.261 . S
O659 La633 2.628 1_554 S
O659 C643 1.243 . S
O660 La633 2.554 . S
O660 C650 1.241 1_556 S
O661 La632 2.482 . S
O661 La633 2.757 1_554 S
O661 C650 1.291 . S
O662 La633 2.470 1_554 S
O662 C651 1.258 . S
O663 La632 2.503 . S
O663 C651 1.256 . S
H664 C636 0.930 . S
H665 C637 0.930 . S
H666 C639 0.929 . S
H667 C640 0.929 . S
H668 C645 0.930 . S
H669 C646 0.930 . S
H670 C648 0.929 . S
H671 C649 0.929 . S
La672 C674 2.928 . S
La672 O692 2.521 . S
La672 O693 2.628 . S
La672 O694 2.554 . S
La672 O695 2.757 . S
La672 O696 2.470 . S
La672 O701 2.482 . S
La672 O703 2.503 . S
La673 C683 2.928 . S
La673 O695 2.482 . S
La673 O697 2.503 . S
La673 O698 2.521 . S
La673 O699 2.628 . S
La673 O700 2.554 . S
La673 O701 2.757 . S
La673 O702 2.470 . S
C674 La672 2.928 . S
C674 C675 1.503 . S
C674 O692 1.261 . S
C674 O693 1.243 . S
C675 C674 1.503 . S
C675 C676 1.394 . S
C675 C680 1.373 . S
C676 C675 1.394 . S
C676 C677 1.380 . S
C676 H704 0.930 . S
C677 C676 1.380 . S
C677 C678 1.376 . S
C677 H705 0.930 . S
C678 C677 1.376 . S
C678 C679 1.370 . S
C679 C678 1.370 . S
C679 C680 1.396 . S
C679 H706 0.929 . S
C680 C675 1.373 . S
C680 C679 1.396 . S
C680 H707 0.929 . S
C681 O694 1.240 . S
C681 O695 1.289 . S
C682 O696 1.258 . S
C682 O697 1.256 . S
C683 La673 2.928 . S
C683 C684 1.503 . S
C683 O698 1.261 . S
C683 O699 1.243 . S
C684 C683 1.503 . S
C684 C685 1.394 . S
C684 C689 1.373 . S
C685 C684 1.394 . S
C685 C686 1.380 . S
C685 H708 0.930 . S
C686 C685 1.380 . S
C686 C687 1.376 . S
C686 H709 0.930 . S
C687 C686 1.376 . S
C687 C688 1.370 . S
C688 C687 1.370 . S
C688 C689 1.396 . S
C688 H710 0.929 . S
C689 C684 1.373 . S
C689 C688 1.396 . S
C689 H711 0.929 . S
C690 O700 1.240 . S
C690 O701 1.289 . S
C691 O702 1.258 . S
C691 O703 1.256 . S
O692 La672 2.521 . S
O692 C674 1.261 . S
O693 La672 2.628 . S
O693 C674 1.243 . S
O694 La672 2.554 . S
O694 C681 1.240 . S
O695 La672 2.757 . S
O695 La673 2.482 . S
O695 C681 1.289 . S
O696 La672 2.470 . S
O696 C682 1.258 . S
O697 La673 2.503 . S
O697 C682 1.256 . S
O698 La673 2.521 . S
O698 C683 1.261 . S
O699 La673 2.628 . S
O699 C683 1.243 . S
O700 La673 2.554 . S
O700 C690 1.240 . S
O701 La672 2.482 . S
O701 La673 2.757 . S
O701 C690 1.289 . S
O702 La673 2.470 . S
O702 C691 1.258 . S
O703 La672 2.503 . S
O703 C691 1.256 . S
H704 C676 0.930 . S
H705 C677 0.930 . S
H706 C679 0.929 . S
H707 C680 0.929 . S
H708 C685 0.930 . S
H709 C686 0.930 . S
H710 C688 0.929 . S
H711 C689 0.929 . S
La712 C714 2.928 . S
La712 O732 2.521 . S
La712 O733 2.628 . S
La712 O734 2.554 . S
La712 O735 2.757 . S
La712 O736 2.470 1_455 S
La712 O741 2.482 . S
La712 O743 2.503 . S
La713 C723 2.928 . S
La713 O735 2.482 . S
La713 O737 2.503 1_455 S
La713 O738 2.521 . S
La713 O739 2.628 . S
La713 O740 2.554 . S
La713 O741 2.757 . S
La713 O742 2.470 . S
C714 La712 2.928 . S
C714 C715 1.503 1_455 S
C714 O732 1.261 . S
C714 O733 1.243 . S
C715 C714 1.503 1_655 S
C715 C716 1.394 . S
C715 C720 1.373 . S
C716 C715 1.394 . S
C716 C717 1.380 . S
C716 H744 0.930 1_655 S
C717 C716 1.380 . S
C717 C718 1.376 . S
C717 H745 0.930 . S
C718 C717 1.376 . S
C718 C719 1.370 . S
C719 C718 1.370 . S
C719 C720 1.396 . S
C719 H746 0.929 . S
C720 C715 1.373 . S
C720 C719 1.396 . S
C720 H747 0.929 . S
C721 O734 1.240 . S
C721 O735 1.289 . S
C722 O736 1.258 . S
C722 O737 1.256 . S
C723 La713 2.928 . S
C723 C724 1.503 . S
C723 O738 1.261 . S
C723 O739 1.243 . S
C724 C723 1.503 . S
C724 C725 1.394 . S
C724 C729 1.373 . S
C725 C724 1.394 . S
C725 C726 1.380 . S
C725 H748 0.930 . S
C726 C725 1.380 . S
C726 C727 1.376 . S
C726 H749 0.930 . S
C727 C726 1.376 . S
C727 C728 1.370 . S
C728 C727 1.370 . S
C728 C729 1.396 . S
C728 H750 0.929 . S
C729 C724 1.373 . S
C729 C728 1.396 . S
C729 H751 0.929 . S
C730 O740 1.240 . S
C730 O741 1.289 . S
C731 O742 1.258 . S
C731 O743 1.256 . S
O732 La712 2.521 . S
O732 C714 1.261 . S
O733 La712 2.628 . S
O733 C714 1.243 . S
O734 La712 2.554 . S
O734 C721 1.240 . S
O735 La712 2.757 . S
O735 La713 2.482 . S
O735 C721 1.289 . S
O736 La712 2.470 1_655 S
O736 C722 1.258 . S
O737 La713 2.503 1_655 S
O737 C722 1.256 . S
O738 La713 2.521 . S
O738 C723 1.261 . S
O739 La713 2.628 . S
O739 C723 1.243 . S
O740 La713 2.554 . S
O740 C730 1.240 . S
O741 La712 2.482 . S
O741 La713 2.757 . S
O741 C730 1.289 . S
O742 La713 2.470 . S
O742 C731 1.258 . S
O743 La712 2.503 . S
O743 C731 1.256 . S
H744 C716 0.930 1_455 S
H745 C717 0.930 . S
H746 C719 0.929 . S
H747 C720 0.929 . S
H748 C725 0.930 . S
H749 C726 0.930 . S
H750 C728 0.929 . S
H751 C729 0.929 . S
La752 C754 2.928 . S
La752 O772 2.521 . S
La752 O773 2.628 . S
La752 O774 2.554 . S
La752 O775 2.757 . S
La752 O776 2.470 . S
La752 O781 2.482 . S
La752 O783 2.503 . S
La753 C763 2.928 . S
La753 O775 2.482 . S
La753 O777 2.503 . S
La753 O778 2.521 . S
La753 O779 2.628 . S
La753 O780 2.554 . S
La753 O781 2.757 . S
La753 O782 2.470 . S
C754 La752 2.928 . S
C754 C755 1.503 . S
C754 O772 1.261 . S
C754 O773 1.243 . S
C755 C754 1.503 . S
C755 C756 1.394 . S
C755 C760 1.373 . S
C756 C755 1.394 . S
C756 C757 1.380 . S
C756 H784 0.930 . S
C757 C756 1.380 . S
C757 C758 1.376 . S
C757 H785 0.930 . S
C758 C757 1.376 . S
C758 C759 1.370 . S
C759 C758 1.370 . S
C759 C760 1.396 . S
C759 H786 0.929 . S
C760 C755 1.373 . S
C760 C759 1.396 . S
C760 H787 0.929 . S
C761 O774 1.240 . S
C761 O775 1.289 . S
C762 O776 1.258 . S
C762 O777 1.256 . S
C763 La753 2.928 . S
C763 C764 1.503 . S
C763 O778 1.261 . S
C763 O779 1.243 . S
C764 C763 1.503 . S
C764 C765 1.394 . S
C764 C769 1.373 . S
C765 C764 1.394 . S
C765 C766 1.380 . S
C765 H788 0.930 . S
C766 C765 1.380 . S
C766 C767 1.376 . S
C766 H789 0.930 . S
C767 C766 1.376 . S
C767 C768 1.370 . S
C768 C767 1.370 . S
C768 C769 1.396 . S
C768 H790 0.929 . S
C769 C764 1.373 . S
C769 C768 1.396 . S
C769 H791 0.929 . S
C770 O780 1.240 . S
C770 O781 1.289 . S
C771 O782 1.258 . S
C771 O783 1.256 . S
O772 La752 2.521 . S
O772 C754 1.261 . S
O773 La752 2.628 . S
O773 C754 1.243 . S
O774 La752 2.554 . S
O774 C761 1.240 . S
O775 La752 2.757 . S
O775 La753 2.482 . S
O775 C761 1.289 . S
O776 La752 2.470 . S
O776 C762 1.258 . S
O777 La753 2.503 . S
O777 C762 1.256 . S
O778 La753 2.521 . S
O778 C763 1.261 . S
O779 La753 2.628 . S
O779 C763 1.243 . S
O780 La753 2.554 . S
O780 C770 1.240 . S
O781 La752 2.482 . S
O781 La753 2.757 . S
O781 C770 1.289 . S
O782 La753 2.470 . S
O782 C771 1.258 . S
O783 La752 2.503 . S
O783 C771 1.256 . S
H784 C756 0.930 . S
H785 C757 0.930 . S
H786 C759 0.929 . S
H787 C760 0.929 . S
H788 C765 0.930 . S
H789 C766 0.930 . S
H790 C768 0.929 . S
H791 C769 0.929 . S
La792 C794 2.928 . S
La792 O812 2.521 . S
La792 O813 2.628 . S
La792 O814 2.554 . S
La792 O815 2.757 . S
La792 O816 2.470 . S
La792 O821 2.482 . S
La792 O823 2.503 . S
La793 C803 2.928 . S
La793 O815 2.482 . S
La793 O817 2.503 . S
La793 O818 2.521 . S
La793 O819 2.628 . S
La793 O820 2.554 . S
La793 O821 2.757 . S
La793 O822 2.470 . S
C794 La792 2.928 . S
C794 C795 1.503 . S
C794 O812 1.261 . S
C794 O813 1.243 . S
C795 C794 1.503 . S
C795 C796 1.394 . S
C795 C800 1.373 . S
C796 C795 1.394 . S
C796 C797 1.380 . S
C796 H824 0.930 . S
C797 C796 1.380 . S
C797 C798 1.376 . S
C797 H825 0.930 . S
C798 C797 1.376 . S
C798 C799 1.370 . S
C799 C798 1.370 . S
C799 C800 1.396 . S
C799 H826 0.929 . S
C800 C795 1.373 . S
C800 C799 1.396 . S
C800 H827 0.929 . S
C801 O814 1.240 . S
C801 O815 1.289 . S
C802 O816 1.258 . S
C802 O817 1.256 . S
C803 La793 2.928 . S
C803 C804 1.503 . S
C803 O818 1.261 . S
C803 O819 1.243 . S
C804 C803 1.503 . S
C804 C805 1.394 . S
C804 C809 1.373 . S
C805 C804 1.394 . S
C805 C806 1.380 . S
C805 H828 0.930 . S
C806 C805 1.380 . S
C806 C807 1.376 . S
C806 H829 0.930 . S
C807 C806 1.376 . S
C807 C808 1.370 . S
C808 C807 1.370 . S
C808 C809 1.396 . S
C808 H830 0.929 . S
C809 C804 1.373 . S
C809 C808 1.396 . S
C809 H831 0.929 . S
C810 O820 1.240 . S
C810 O821 1.289 . S
C811 O822 1.258 . S
C811 O823 1.256 . S
O812 La792 2.521 . S
O812 C794 1.261 . S
O813 La792 2.628 . S
O813 C794 1.243 . S
O814 La792 2.554 . S
O814 C801 1.240 . S
O815 La792 2.757 . S
O815 La793 2.482 . S
O815 C801 1.289 . S
O816 La792 2.470 . S
O816 C802 1.258 . S
O817 La793 2.503 . S
O817 C802 1.256 . S
O818 La793 2.521 . S
O818 C803 1.261 . S
O819 La793 2.628 . S
O819 C803 1.243 . S
O820 La793 2.554 . S
O820 C810 1.240 . S
O821 La792 2.482 . S
O821 La793 2.757 . S
O821 C810 1.289 . S
O822 La793 2.470 . S
O822 C811 1.258 . S
O823 La792 2.503 . S
O823 C811 1.256 . S
H824 C796 0.930 . S
H825 C797 0.930 . S
H826 C799 0.929 . S
H827 C800 0.929 . S
H828 C805 0.930 . S
H829 C806 0.930 . S
H830 C808 0.929 . S
H831 C809 0.929 . S
La832 C834 2.928 . S
La832 O852 2.521 . S
La832 O853 2.628 . S
La832 O854 2.554 . S
La832 O855 2.757 . S
La832 O856 2.470 . S
La832 O861 2.482 . S
La832 O863 2.503 . S
La833 C843 2.928 . S
La833 O855 2.482 . S
La833 O857 2.503 . S
La833 O858 2.521 . S
La833 O859 2.628 . S
La833 O860 2.554 . S
La833 O861 2.757 . S
La833 O862 2.470 . S
C834 La832 2.928 . S
C834 C835 1.503 . S
C834 O852 1.261 . S
C834 O853 1.243 . S
C835 C834 1.503 . S
C835 C836 1.394 . S
C835 C840 1.373 . S
C836 C835 1.394 . S
C836 C837 1.380 . S
C836 H864 0.930 . S
C837 C836 1.380 . S
C837 C838 1.376 . S
C837 H865 0.930 . S
C838 C837 1.376 . S
C838 C839 1.370 . S
C839 C838 1.370 . S
C839 C840 1.396 . S
C839 H866 0.929 . S
C840 C835 1.373 . S
C840 C839 1.396 . S
C840 H867 0.929 . S
C841 O854 1.240 . S
C841 O855 1.289 . S
C842 O856 1.258 . S
C842 O857 1.256 . S
C843 La833 2.928 . S
C843 C844 1.503 . S
C843 O858 1.261 . S
C843 O859 1.243 . S
C844 C843 1.503 . S
C844 C845 1.394 . S
C844 C849 1.373 . S
C845 C844 1.394 . S
C845 C846 1.380 . S
C845 H868 0.930 . S
C846 C845 1.380 . S
C846 C847 1.376 . S
C846 H869 0.930 . S
C847 C846 1.376 . S
C847 C848 1.370 . S
C848 C847 1.370 . S
C848 C849 1.396 . S
C848 H870 0.929 . S
C849 C844 1.373 . S
C849 C848 1.396 . S
C849 H871 0.929 . S
C850 O860 1.240 . S
C850 O861 1.289 . S
C851 O862 1.258 . S
C851 O863 1.256 . S
O852 La832 2.521 . S
O852 C834 1.261 . S
O853 La832 2.628 . S
O853 C834 1.243 . S
O854 La832 2.554 . S
O854 C841 1.240 . S
O855 La832 2.757 . S
O855 La833 2.482 . S
O855 C841 1.289 . S
O856 La832 2.470 . S
O856 C842 1.258 . S
O857 La833 2.503 . S
O857 C842 1.256 . S
O858 La833 2.521 . S
O858 C843 1.261 . S
O859 La833 2.628 . S
O859 C843 1.243 . S
O860 La833 2.554 . S
O860 C850 1.240 . S
O861 La832 2.482 . S
O861 La833 2.757 . S
O861 C850 1.289 . S
O862 La833 2.470 . S
O862 C851 1.258 . S
O863 La832 2.503 . S
O863 C851 1.256 . S
H864 C836 0.930 . S
H865 C837 0.930 . S
H866 C839 0.929 . S
H867 C840 0.929 . S
H868 C845 0.930 . S
H869 C846 0.930 . S
H870 C848 0.929 . S
H871 C849 0.929 . S
La872 C874 2.928 . S
La872 O892 2.521 . S
La872 O893 2.628 . S
La872 O894 2.554 . S
La872 O895 2.757 . S
La872 O896 2.470 . S
La872 O901 2.482 . S
La872 O903 2.503 . S
La873 C883 2.928 . S
La873 O895 2.482 . S
La873 O897 2.503 . S
La873 O898 2.521 . S
La873 O899 2.628 . S
La873 O900 2.554 . S
La873 O901 2.757 . S
La873 O902 2.470 . S
C874 La872 2.928 . S
C874 C875 1.503 . S
C874 O892 1.261 . S
C874 O893 1.243 . S
C875 C874 1.503 . S
C875 C876 1.394 . S
C875 C880 1.373 . S
C876 C875 1.394 . S
C876 C877 1.380 . S
C876 H904 0.930 . S
C877 C876 1.380 . S
C877 C878 1.376 . S
C877 H905 0.930 . S
C878 C877 1.376 . S
C878 C879 1.370 . S
C879 C878 1.370 . S
C879 C880 1.396 . S
C879 H906 0.929 . S
C880 C875 1.373 . S
C880 C879 1.396 . S
C880 H907 0.929 . S
C881 O894 1.240 . S
C881 O895 1.289 . S
C882 O896 1.258 . S
C882 O897 1.256 . S
C883 La873 2.928 . S
C883 C884 1.503 . S
C883 O898 1.261 . S
C883 O899 1.243 . S
C884 C883 1.503 . S
C884 C885 1.394 . S
C884 C889 1.373 . S
C885 C884 1.394 . S
C885 C886 1.380 . S
C885 H908 0.930 . S
C886 C885 1.380 . S
C886 C887 1.376 . S
C886 H909 0.930 . S
C887 C886 1.376 . S
C887 C888 1.370 . S
C888 C887 1.370 . S
C888 C889 1.396 . S
C888 H910 0.929 . S
C889 C884 1.373 . S
C889 C888 1.396 . S
C889 H911 0.929 . S
C890 O900 1.240 . S
C890 O901 1.289 . S
C891 O902 1.258 . S
C891 O903 1.256 . S
O892 La872 2.521 . S
O892 C874 1.261 . S
O893 La872 2.628 . S
O893 C874 1.243 . S
O894 La872 2.554 . S
O894 C881 1.240 . S
O895 La872 2.757 . S
O895 La873 2.482 . S
O895 C881 1.289 . S
O896 La872 2.470 . S
O896 C882 1.258 . S
O897 La873 2.503 . S
O897 C882 1.256 . S
O898 La873 2.521 . S
O898 C883 1.261 . S
O899 La873 2.628 . S
O899 C883 1.243 . S
O900 La873 2.554 . S
O900 C890 1.240 . S
O901 La872 2.482 . S
O901 La873 2.757 . S
O901 C890 1.289 . S
O902 La873 2.470 . S
O902 C891 1.258 . S
O903 La872 2.503 . S
O903 C891 1.256 . S
H904 C876 0.930 . S
H905 C877 0.930 . S
H906 C879 0.929 . S
H907 C880 0.929 . S
H908 C885 0.930 . S
H909 C886 0.930 . S
H910 C888 0.929 . S
H911 C889 0.929 . S
La912 C914 2.928 . S
La912 O932 2.521 . S
La912 O933 2.628 . S
La912 O934 2.554 1_554 S
La912 O935 2.757 . S
La912 O936 2.470 . S
La912 O941 2.482 . S
La912 O943 2.503 . S
La913 C923 2.928 1_455 S
La913 O935 2.482 . S
La913 O937 2.503 . S
La913 O938 2.521 1_455 S
La913 O939 2.628 1_455 S
La913 O940 2.554 . S
La913 O941 2.757 . S
La913 O942 2.470 . S
C914 La912 2.928 . S
C914 C915 1.503 . S
C914 O932 1.261 . S
C914 O933 1.243 . S
C915 C914 1.503 . S
C915 C916 1.394 1_554 S
C915 C920 1.373 . S
C916 C915 1.394 1_556 S
C916 C917 1.380 . S
C916 H944 0.930 . S
C917 C916 1.380 . S
C917 C918 1.376 1_556 S
C917 H945 0.930 . S
C918 C917 1.376 1_554 S
C918 C919 1.370 . S
C919 C918 1.370 . S
C919 C920 1.396 . S
C919 H946 0.929 . S
C920 C915 1.373 . S
C920 C919 1.396 . S
C920 H947 0.929 . S
C921 O934 1.240 . S
C921 O935 1.289 1_556 S
C922 O936 1.258 . S
C922 O937 1.256 . S
C923 La913 2.928 1_655 S
C923 C924 1.503 . S
C923 O938 1.261 . S
C923 O939 1.243 . S
C924 C923 1.503 . S
C924 C925 1.394 . S
C924 C929 1.373 . S
C925 C924 1.394 . S
C925 C926 1.380 . S
C925 H948 0.930 . S
C926 C925 1.380 . S
C926 C927 1.376 . S
C926 H949 0.930 . S
C927 C926 1.376 . S
C927 C928 1.370 . S
C928 C927 1.370 . S
C928 C929 1.396 . S
C928 H950 0.929 . S
C929 C924 1.373 . S
C929 C928 1.396 . S
C929 H951 0.929 . S
C930 O940 1.240 . S
C930 O941 1.289 . S
C931 O942 1.258 . S
C931 O943 1.256 . S
O932 La912 2.521 . S
O932 C914 1.261 . S
O933 La912 2.628 . S
O933 C914 1.243 . S
O934 La912 2.554 1_556 S
O934 C921 1.240 . S
O935 La912 2.757 . S
O935 La913 2.482 . S
O935 C921 1.289 1_554 S
O936 La912 2.470 . S
O936 C922 1.258 . S
O937 La913 2.503 . S
O937 C922 1.256 . S
O938 La913 2.521 1_655 S
O938 C923 1.261 . S
O939 La913 2.628 1_655 S
O939 C923 1.243 . S
O940 La913 2.554 . S
O940 C930 1.240 . S
O941 La912 2.482 . S
O941 La913 2.757 . S
O941 C930 1.289 . S
O942 La913 2.470 . S
O942 C931 1.258 . S
O943 La912 2.503 . S
O943 C931 1.256 . S
H944 C916 0.930 . S
H945 C917 0.930 . S
H946 C919 0.929 . S
H947 C920 0.929 . S
H948 C925 0.930 . S
H949 C926 0.930 . S
H950 C928 0.929 . S
H951 C929 0.929 . S
H952 C970 0.951 . S
H953 C972 0.951 . S
H954 C974 0.950 1_655 S
H955 C975 0.950 1_655 S
H956 C977 0.950 . S
H957 C980 0.950 . S
H958 C981 0.950 . S
H959 C983 0.950 . S
H960 C984 0.950 . S
H961 C985 0.951 . S
H962 C987 0.951 . S
H963 C989 0.950 . S
H964 C990 0.950 . S
H965 C992 0.950 . S
H966 C995 0.950 . S
H967 C996 0.950 . S
H968 C998 0.950 . S
H969 C999 0.950 1_556 S
C970 H952 0.951 . S
C970 C971 1.366 . S
C970 C972 1.388 . S
C971 C970 1.366 . S
C971 C975 1.385 . S
C972 H953 0.951 . S
C972 C970 1.388 . S
C972 C973 1.366 . S
C973 C972 1.366 . S
C973 C974 1.414 . S
C973 C976 1.499 . S
C974 H954 0.950 1_455 S
C974 C973 1.414 . S
C974 C975 1.374 . S
C975 H955 0.950 1_455 S
C975 C971 1.385 . S
C975 C974 1.374 . S
C976 C973 1.499 . S
C976 C977 1.373 . S
C976 C978 1.389 . S
C977 H956 0.950 . S
C977 C976 1.373 . S
C977 C993 1.377 . S
C978 C976 1.389 . S
C978 C979 1.524 . S
C978 C992 1.377 . S
C979 C978 1.524 . S
C979 C980 1.397 . S
C979 C984 1.363 . S
C980 H957 0.950 . S
C980 C979 1.397 . S
C980 C981 1.334 . S
C981 H958 0.950 . S
C981 C980 1.334 . S
C981 C982 1.287 . S
C982 C981 1.287 . S
C982 C983 1.524 . S
C982 H1001 0.913 . S
C983 H959 0.950 . S
C983 C982 1.524 . S
C983 C984 1.415 . S
C984 H960 0.950 . S
C984 C979 1.363 . S
C984 C983 1.415 . S
C985 H961 0.951 . S
C985 C986 1.366 . S
C985 C987 1.388 1_554 S
C986 C985 1.366 . S
C986 C990 1.385 . S
C987 H962 0.951 . S
C987 C985 1.388 1_556 S
C987 C988 1.366 . S
C988 C987 1.366 . S
C988 C989 1.414 1_556 S
C988 C991 1.499 . S
C989 H963 0.950 . S
C989 C988 1.414 1_554 S
C989 C990 1.374 . S
C990 H964 0.950 . S
C990 C986 1.385 . S
C990 C989 1.374 . S
C991 C988 1.499 . S
C991 C992 1.373 . S
C991 C993 1.389 . S
C992 H965 0.950 . S
C992 C978 1.377 . S
C992 C991 1.373 . S
C993 C977 1.377 . S
C993 C991 1.389 . S
C993 C994 1.524 1_556 S
C994 C993 1.524 1_554 S
C994 C995 1.397 . S
C994 C999 1.363 1_455 S
C995 H966 0.950 . S
C995 C994 1.397 . S
C995 C996 1.334 . S
C996 H967 0.950 . S
C996 C995 1.334 . S
C996 C997 1.287 1_455 S
C997 C996 1.287 1_655 S
C997 C998 1.524 . S
C997 H1000 0.999 . S
C998 H968 0.950 . S
C998 C997 1.524 . S
C998 C999 1.415 . S
C999 H969 0.950 1_554 S
C999 C994 1.363 1_655 S
C999 C998 1.415 . S
H1000 C997 0.999 . S
H1001 C982 0.913 . S
H1002 C1020 0.951 . S
H1003 C1022 0.951 . S
H1004 C1024 0.950 . S
H1005 C1025 0.950 . S
H1006 C1027 0.950 . S
H1007 C1030 0.950 . S
H1008 C1031 0.950 . S
H1009 C1033 0.950 . S
H1010 C1034 0.950 . S
H1011 C1035 0.951 . S
H1012 C1037 0.951 . S
H1013 C1039 0.950 . S
H1014 C1040 0.950 . S
H1015 C1042 0.950 . S
H1016 C1045 0.950 . S
H1017 C1046 0.950 . S
H1018 C1048 0.950 . S
H1019 C1049 0.950 . S
C1020 H1002 0.951 . S
C1020 C1021 1.366 . S
C1020 C1022 1.388 . S
C1021 C1020 1.366 . S
C1021 C1025 1.385 . S
C1022 H1003 0.951 . S
C1022 C1020 1.388 . S
C1022 C1023 1.366 . S
C1023 C1022 1.366 . S
C1023 C1024 1.414 . S
C1023 C1026 1.499 . S
C1024 H1004 0.950 . S
C1024 C1023 1.414 . S
C1024 C1025 1.374 . S
C1025 H1005 0.950 . S
C1025 C1021 1.385 . S
C1025 C1024 1.374 . S
C1026 C1023 1.499 . S
C1026 C1027 1.373 . S
C1026 C1028 1.389 . S
C1027 H1006 0.950 . S
C1027 C1026 1.373 . S
C1027 C1043 1.377 . S
C1028 C1026 1.389 . S
C1028 C1029 1.524 . S
C1028 C1042 1.377 . S
C1029 C1028 1.524 . S
C1029 C1030 1.397 . S
C1029 C1034 1.363 . S
C1030 H1007 0.950 . S
C1030 C1029 1.397 . S
C1030 C1031 1.334 . S
C1031 H1008 0.950 . S
C1031 C1030 1.334 . S
C1031 C1032 1.287 . S
C1032 C1031 1.287 . S
C1032 C1033 1.524 . S
C1032 H1051 0.913 . S
C1033 H1009 0.950 . S
C1033 C1032 1.524 . S
C1033 C1034 1.415 . S
C1034 H1010 0.950 . S
C1034 C1029 1.363 . S
C1034 C1033 1.415 . S
C1035 H1011 0.951 . S
C1035 C1036 1.366 . S
C1035 C1037 1.388 . S
C1036 C1035 1.366 . S
C1036 C1040 1.385 . S
C1037 H1012 0.951 . S
C1037 C1035 1.388 . S
C1037 C1038 1.366 . S
C1038 C1037 1.366 . S
C1038 C1039 1.414 . S
C1038 C1041 1.499 . S
C1039 H1013 0.950 . S
C1039 C1038 1.414 . S
C1039 C1040 1.374 . S
C1040 H1014 0.950 . S
C1040 C1036 1.385 . S
C1040 C1039 1.374 . S
C1041 C1038 1.499 . S
C1041 C1042 1.373 . S
C1041 C1043 1.389 . S
C1042 H1015 0.950 . S
C1042 C1028 1.377 . S
C1042 C1041 1.373 . S
C1043 C1027 1.377 . S
C1043 C1041 1.389 . S
C1043 C1044 1.524 . S
C1044 C1043 1.524 . S
C1044 C1045 1.397 . S
C1044 C1049 1.363 . S
C1045 H1016 0.950 . S
C1045 C1044 1.397 . S
C1045 C1046 1.334 . S
C1046 H1017 0.950 . S
C1046 C1045 1.334 . S
C1046 C1047 1.287 . S
C1047 C1046 1.287 . S
C1047 C1048 1.524 . S
C1047 H1050 0.999 . S
C1048 H1018 0.950 . S
C1048 C1047 1.524 . S
C1048 C1049 1.415 . S
C1049 H1019 0.950 . S
C1049 C1044 1.363 . S
C1049 C1048 1.415 . S
H1050 C1047 0.999 . S
H1051 C1032 0.913 . S
H1052 C1070 0.951 . S
H1053 C1072 0.951 . S
H1054 C1074 0.950 . S
H1055 C1075 0.950 . S
H1056 C1077 0.950 . S
H1057 C1080 0.950 . S
H1058 C1081 0.950 . S
H1059 C1083 0.950 . S
H1060 C1084 0.950 . S
H1061 C1085 0.951 . S
H1062 C1087 0.951 . S
H1063 C1089 0.950 . S
H1064 C1090 0.950 . S
H1065 C1092 0.950 . S
H1066 C1095 0.950 . S
H1067 C1096 0.950 . S
H1068 C1098 0.950 . S
H1069 C1099 0.950 . S
C1070 H1052 0.951 . S
C1070 C1071 1.366 . S
C1070 C1072 1.388 . S
C1071 C1070 1.366 . S
C1071 C1075 1.385 . S
C1072 H1053 0.951 . S
C1072 C1070 1.388 . S
C1072 C1073 1.366 . S
C1073 C1072 1.366 . S
C1073 C1074 1.414 . S
C1073 C1076 1.499 . S
C1074 H1054 0.950 . S
C1074 C1073 1.414 . S
C1074 C1075 1.374 . S
C1075 H1055 0.950 . S
C1075 C1071 1.385 . S
C1075 C1074 1.374 . S
C1076 C1073 1.499 . S
C1076 C1077 1.373 . S
C1076 C1078 1.389 . S
C1077 H1056 0.950 . S
C1077 C1076 1.373 . S
C1077 C1093 1.377 . S
C1078 C1076 1.389 . S
C1078 C1079 1.524 . S
C1078 C1092 1.377 . S
C1079 C1078 1.524 . S
C1079 C1080 1.397 . S
C1079 C1084 1.363 . S
C1080 H1057 0.950 . S
C1080 C1079 1.397 . S
C1080 C1081 1.334 . S
C1081 H1058 0.950 . S
C1081 C1080 1.334 . S
C1081 C1082 1.287 . S
C1082 C1081 1.287 . S
C1082 C1083 1.524 . S
C1082 H1101 0.913 . S
C1083 H1059 0.950 . S
C1083 C1082 1.524 . S
C1083 C1084 1.415 . S
C1084 H1060 0.950 . S
C1084 C1079 1.363 . S
C1084 C1083 1.415 . S
C1085 H1061 0.951 . S
C1085 C1086 1.366 . S
C1085 C1087 1.388 . S
C1086 C1085 1.366 . S
C1086 C1090 1.385 . S
C1087 H1062 0.951 . S
C1087 C1085 1.388 . S
C1087 C1088 1.366 . S
C1088 C1087 1.366 . S
C1088 C1089 1.414 . S
C1088 C1091 1.499 . S
C1089 H1063 0.950 . S
C1089 C1088 1.414 . S
C1089 C1090 1.374 . S
C1090 H1064 0.950 . S
C1090 C1086 1.385 . S
C1090 C1089 1.374 . S
C1091 C1088 1.499 . S
C1091 C1092 1.373 . S
C1091 C1093 1.389 . S
C1092 H1065 0.950 . S
C1092 C1078 1.377 . S
C1092 C1091 1.373 . S
C1093 C1077 1.377 . S
C1093 C1091 1.389 . S
C1093 C1094 1.524 . S
C1094 C1093 1.524 . S
C1094 C1095 1.397 . S
C1094 C1099 1.363 . S
C1095 H1066 0.950 . S
C1095 C1094 1.397 . S
C1095 C1096 1.334 . S
C1096 H1067 0.950 . S
C1096 C1095 1.334 . S
C1096 C1097 1.287 . S
C1097 C1096 1.287 . S
C1097 C1098 1.524 . S
C1097 H1100 0.999 . S
C1098 H1068 0.950 . S
C1098 C1097 1.524 . S
C1098 C1099 1.415 . S
C1099 H1069 0.950 . S
C1099 C1094 1.363 . S
C1099 C1098 1.415 . S
H1100 C1097 0.999 . S
H1101 C1082 0.913 . S
H1102 C1120 0.951 . S
H1103 C1122 0.951 . S
H1104 C1124 0.950 . S
H1105 C1125 0.950 . S
H1106 C1127 0.950 . S
H1107 C1130 0.950 . S
H1108 C1131 0.950 . S
H1109 C1133 0.950 . S
H1110 C1134 0.950 . S
H1111 C1135 0.951 . S
H1112 C1137 0.951 . S
H1113 C1139 0.950 . S
H1114 C1140 0.950 . S
H1115 C1142 0.950 . S
H1116 C1145 0.950 . S
H1117 C1146 0.950 . S
H1118 C1148 0.950 . S
H1119 C1149 0.950 . S
C1120 H1102 0.951 . S
C1120 C1121 1.366 . S
C1120 C1122 1.388 . S
C1121 C1120 1.366 . S
C1121 C1125 1.385 . S
C1122 H1103 0.951 . S
C1122 C1120 1.388 . S
C1122 C1123 1.366 . S
C1123 C1122 1.366 . S
C1123 C1124 1.414 . S
C1123 C1126 1.499 . S
C1124 H1104 0.950 . S
C1124 C1123 1.414 . S
C1124 C1125 1.374 . S
C1125 H1105 0.950 . S
C1125 C1121 1.385 . S
C1125 C1124 1.374 . S
C1126 C1123 1.499 . S
C1126 C1127 1.373 . S
C1126 C1128 1.389 . S
C1127 H1106 0.950 . S
C1127 C1126 1.373 . S
C1127 C1143 1.377 . S
C1128 C1126 1.389 . S
C1128 C1129 1.524 . S
C1128 C1142 1.377 . S
C1129 C1128 1.524 . S
C1129 C1130 1.397 . S
C1129 C1134 1.363 . S
C1130 H1107 0.950 . S
C1130 C1129 1.397 . S
C1130 C1131 1.334 . S
C1131 H1108 0.950 . S
C1131 C1130 1.334 . S
C1131 C1132 1.287 . S
C1132 C1131 1.287 . S
C1132 C1133 1.524 . S
C1132 H1151 0.913 . S
C1133 H1109 0.950 . S
C1133 C1132 1.524 . S
C1133 C1134 1.415 . S
C1134 H1110 0.950 . S
C1134 C1129 1.363 . S
C1134 C1133 1.415 . S
C1135 H1111 0.951 . S
C1135 C1136 1.366 . S
C1135 C1137 1.388 . S
C1136 C1135 1.366 . S
C1136 C1140 1.385 . S
C1137 H1112 0.951 . S
C1137 C1135 1.388 . S
C1137 C1138 1.366 . S
C1138 C1137 1.366 . S
C1138 C1139 1.414 . S
C1138 C1141 1.499 . S
C1139 H1113 0.950 . S
C1139 C1138 1.414 . S
C1139 C1140 1.374 . S
C1140 H1114 0.950 . S
C1140 C1136 1.385 . S
C1140 C1139 1.374 . S
C1141 C1138 1.499 . S
C1141 C1142 1.373 . S
C1141 C1143 1.389 . S
C1142 H1115 0.950 . S
C1142 C1128 1.377 . S
C1142 C1141 1.373 . S
C1143 C1127 1.377 . S
C1143 C1141 1.389 . S
C1143 C1144 1.524 . S
C1144 C1143 1.524 . S
C1144 C1145 1.397 . S
C1144 C1149 1.363 . S
C1145 H1116 0.950 . S
C1145 C1144 1.397 . S
C1145 C1146 1.334 . S
C1146 H1117 0.950 . S
C1146 C1145 1.334 . S
C1146 C1147 1.287 . S
C1147 C1146 1.287 . S
C1147 C1148 1.524 . S
C1147 H1150 0.999 . S
C1148 H1118 0.950 . S
C1148 C1147 1.524 . S
C1148 C1149 1.415 . S
C1149 H1119 0.950 . S
C1149 C1144 1.363 . S
C1149 C1148 1.415 . S
H1150 C1147 0.999 . S
H1151 C1132 0.913 . S
H1152 C1170 0.951 . S
H1153 C1172 0.951 . S
H1154 C1174 0.950 1_655 S
H1155 C1175 0.950 . S
H1156 C1177 0.950 . S
H1157 C1180 0.950 . S
H1158 C1181 0.950 . S
H1159 C1183 0.950 . S
H1160 C1184 0.950 . S
H1161 C1185 0.951 . S
H1162 C1187 0.951 . S
H1163 C1189 0.950 . S
H1164 C1190 0.950 . S
H1165 C1192 0.950 . S
H1166 C1195 0.950 . S
H1167 C1196 0.950 . S
H1168 C1198 0.950 1_655 S
H1169 C1199 0.905 1_655 S
C1170 H1152 0.951 . S
C1170 C1171 1.366 . S
C1170 C1172 1.388 . S
C1171 C1170 1.366 . S
C1171 C1175 1.385 1_455 S
C1172 H1153 0.951 . S
C1172 C1170 1.388 . S
C1172 C1173 1.366 . S
C1173 C1172 1.366 . S
C1173 C1174 1.414 . S
C1173 C1176 1.499 . S
C1174 H1154 0.950 1_455 S
C1174 C1173 1.414 . S
C1174 C1175 1.374 1_455 S
C1175 H1155 0.950 . S
C1175 C1171 1.385 1_655 S
C1175 C1174 1.374 1_655 S
C1176 C1173 1.499 . S
C1176 C1177 1.373 . S
C1176 C1178 1.389 . S
C1177 H1156 0.950 . S
C1177 C1176 1.373 . S
C1177 C1193 1.377 . S
C1178 C1176 1.389 . S
C1178 C1179 1.524 . S
C1178 C1192 1.377 . S
C1179 C1178 1.524 . S
C1179 C1180 1.397 . S
C1179 C1184 1.363 . S
C1180 H1157 0.950 . S
C1180 C1179 1.397 . S
C1180 C1181 1.334 . S
C1181 H1158 0.950 . S
C1181 C1180 1.334 . S
C1181 C1182 1.287 . S
C1182 C1181 1.287 . S
C1182 C1183 1.524 . S
C1182 H1201 0.913 . S
C1183 H1159 0.950 . S
C1183 C1182 1.524 . S
C1183 C1184 1.415 . S
C1184 H1160 0.950 . S
C1184 C1179 1.363 . S
C1184 C1183 1.415 . S
C1185 H1161 0.951 . S
C1185 C1186 1.366 . S
C1185 C1187 1.388 . S
C1186 C1185 1.366 . S
C1186 C1190 1.385 . S
C1187 H1162 0.951 . S
C1187 C1185 1.388 . S
C1187 C1188 1.366 . S
C1188 C1187 1.366 . S
C1188 C1189 1.414 . S
C1188 C1191 1.499 . S
C1189 H1163 0.950 . S
C1189 C1188 1.414 . S
C1189 C1190 1.374 . S
C1190 H1164 0.950 . S
C1190 C1186 1.385 . S
C1190 C1189 1.374 . S
C1191 C1188 1.499 . S
C1191 C1192 1.373 . S
C1191 C1193 1.389 . S
C1192 H1165 0.950 . S
C1192 C1178 1.377 . S
C1192 C1191 1.373 . S
C1193 C1177 1.377 . S
C1193 C1191 1.389 . S
C1193 C1194 1.524 . S
C1194 C1193 1.524 . S
C1194 C1195 1.397 . S
C1194 C1199 1.363 . S
C1195 H1166 0.950 . S
C1195 C1194 1.397 . S
C1195 C1196 1.334 . S
C1196 H1167 0.950 . S
C1196 C1195 1.334 . S
C1196 C1197 1.287 . S
C1197 C1196 1.287 . S
C1197 C1198 1.524 . S
C1197 H1200 0.999 . S
C1198 H1168 0.950 1_455 S
C1198 C1197 1.524 . S
C1198 C1199 1.415 . S
C1199 H1169 0.905 1_455 S
C1199 C1194 1.363 . S
C1199 C1198 1.415 . S
H1200 C1197 0.999 . S
H1201 C1182 0.913 . S
H1202 C1220 0.951 . S
H1203 C1222 0.951 . S
H1204 C1224 0.950 . S
H1205 C1225 0.950 . S
H1206 C1227 0.950 . S
H1207 C1230 0.950 . S
H1208 C1231 0.950 . S
H1209 C1233 0.950 . S
H1210 C1234 0.950 . S
H1211 C1235 0.951 . S
H1212 C1237 0.951 . S
H1213 C1239 0.950 . S
H1214 C1240 0.950 . S
H1215 C1242 0.950 . S
H1216 C1245 0.950 . S
H1217 C1246 0.950 . S
H1218 C1248 0.950 . S
H1219 C1249 0.950 . S
C1220 H1202 0.951 . S
C1220 C1221 1.366 . S
C1220 C1222 1.388 . S
C1221 C1220 1.366 . S
C1221 C1225 1.385 . S
C1222 H1203 0.951 . S
C1222 C1220 1.388 . S
C1222 C1223 1.366 . S
C1223 C1222 1.366 . S
C1223 C1224 1.414 . S
C1223 C1226 1.499 . S
C1224 H1204 0.950 . S
C1224 C1223 1.414 . S
C1224 C1225 1.374 . S
C1225 H1205 0.950 . S
C1225 C1221 1.385 . S
C1225 C1224 1.374 . S
C1226 C1223 1.499 . S
C1226 C1227 1.373 . S
C1226 C1228 1.389 . S
C1227 H1206 0.950 . S
C1227 C1226 1.373 . S
C1227 C1243 1.377 . S
C1228 C1226 1.389 . S
C1228 C1229 1.524 . S
C1228 C1242 1.377 . S
C1229 C1228 1.524 . S
C1229 C1230 1.397 . S
C1229 C1234 1.363 . S
C1230 H1207 0.950 . S
C1230 C1229 1.397 . S
C1230 C1231 1.334 . S
C1231 H1208 0.950 . S
C1231 C1230 1.334 . S
C1231 C1232 1.287 . S
C1232 C1231 1.287 . S
C1232 C1233 1.524 . S
C1232 H1251 0.913 . S
C1233 H1209 0.950 . S
C1233 C1232 1.524 . S
C1233 C1234 1.415 . S
C1234 H1210 0.950 . S
C1234 C1229 1.363 . S
C1234 C1233 1.415 . S
C1235 H1211 0.951 . S
C1235 C1236 1.366 . S
C1235 C1237 1.388 . S
C1236 C1235 1.366 . S
C1236 C1240 1.385 . S
C1237 H1212 0.951 . S
C1237 C1235 1.388 . S
C1237 C1238 1.366 . S
C1238 C1237 1.366 . S
C1238 C1239 1.414 . S
C1238 C1241 1.499 . S
C1239 H1213 0.950 . S
C1239 C1238 1.414 . S
C1239 C1240 1.374 . S
C1240 H1214 0.950 . S
C1240 C1236 1.385 . S
C1240 C1239 1.374 . S
C1241 C1238 1.499 . S
C1241 C1242 1.373 . S
C1241 C1243 1.389 . S
C1242 H1215 0.950 . S
C1242 C1228 1.377 . S
C1242 C1241 1.373 . S
C1243 C1227 1.377 . S
C1243 C1241 1.389 . S
C1243 C1244 1.524 . S
C1244 C1243 1.524 . S
C1244 C1245 1.397 . S
C1244 C1249 1.363 . S
C1245 H1216 0.950 . S
C1245 C1244 1.397 . S
C1245 C1246 1.334 . S
C1246 H1217 0.950 . S
C1246 C1245 1.334 . S
C1246 C1247 1.287 . S
C1247 C1246 1.287 . S
C1247 C1248 1.524 . S
C1247 H1250 0.999 . S
C1248 H1218 0.950 . S
C1248 C1247 1.524 . S
C1248 C1249 1.415 . S
C1249 H1219 0.950 . S
C1249 C1244 1.363 . S
C1249 C1248 1.415 . S
H1250 C1247 0.999 . S
H1251 C1232 0.913 . S
H1252 C1270 0.951 . S
H1253 C1272 0.951 . S
H1254 C1274 0.950 . S
H1255 C1275 0.950 . S
H1256 C1277 0.950 . S
H1257 C1280 0.950 . S
H1258 C1281 0.950 . S
H1259 C1283 0.950 . S
H1260 C1284 0.950 . S
H1261 C1285 0.951 . S
H1262 C1287 0.951 . S
H1263 C1289 0.950 . S
H1264 C1290 0.950 . S
H1265 C1292 0.950 . S
H1266 C1295 0.950 . S
H1267 C1296 0.950 . S
H1268 C1298 0.950 . S
H1269 C1299 0.950 . S
C1270 H1252 0.951 . S
C1270 C1271 1.366 . S
C1270 C1272 1.388 . S
C1271 C1270 1.366 . S
C1271 C1275 1.385 . S
C1272 H1253 0.951 . S
C1272 C1270 1.388 . S
C1272 C1273 1.366 . S
C1273 C1272 1.366 . S
C1273 C1274 1.414 . S
C1273 C1276 1.499 . S
C1274 H1254 0.950 . S
C1274 C1273 1.414 . S
C1274 C1275 1.374 . S
C1275 H1255 0.950 . S
C1275 C1271 1.385 . S
C1275 C1274 1.374 . S
C1276 C1273 1.499 . S
C1276 C1277 1.373 . S
C1276 C1278 1.389 . S
C1277 H1256 0.950 . S
C1277 C1276 1.373 . S
C1277 C1293 1.377 . S
C1278 C1276 1.389 . S
C1278 C1279 1.524 . S
C1278 C1292 1.377 . S
C1279 C1278 1.524 . S
C1279 C1280 1.397 . S
C1279 C1284 1.363 . S
C1280 H1257 0.950 . S
C1280 C1279 1.397 . S
C1280 C1281 1.334 . S
C1281 H1258 0.950 . S
C1281 C1280 1.334 . S
C1281 C1282 1.287 . S
C1282 C1281 1.287 . S
C1282 C1283 1.524 . S
C1282 H1301 0.913 . S
C1283 H1259 0.950 . S
C1283 C1282 1.524 . S
C1283 C1284 1.415 . S
C1284 H1260 0.950 . S
C1284 C1279 1.363 . S
C1284 C1283 1.415 . S
C1285 H1261 0.951 . S
C1285 C1286 1.366 . S
C1285 C1287 1.388 . S
C1286 C1285 1.366 . S
C1286 C1290 1.385 . S
C1287 H1262 0.951 . S
C1287 C1285 1.388 . S
C1287 C1288 1.366 . S
C1288 C1287 1.366 . S
C1288 C1289 1.414 . S
C1288 C1291 1.499 . S
C1289 H1263 0.950 . S
C1289 C1288 1.414 . S
C1289 C1290 1.374 . S
C1290 H1264 0.950 . S
C1290 C1286 1.385 . S
C1290 C1289 1.374 . S
C1291 C1288 1.499 . S
C1291 C1292 1.373 . S
C1291 C1293 1.389 . S
C1292 H1265 0.950 . S
C1292 C1278 1.377 . S
C1292 C1291 1.373 . S
C1293 C1277 1.377 . S
C1293 C1291 1.389 . S
C1293 C1294 1.524 . S
C1294 C1293 1.524 . S
C1294 C1295 1.397 . S
C1294 C1299 1.363 . S
C1295 H1266 0.950 . S
C1295 C1294 1.397 . S
C1295 C1296 1.334 . S
C1296 H1267 0.950 . S
C1296 C1295 1.334 . S
C1296 C1297 1.287 . S
C1297 C1296 1.287 . S
C1297 C1298 1.524 . S
C1297 H1300 0.999 . S
C1298 H1268 0.950 . S
C1298 C1297 1.524 . S
C1298 C1299 1.415 . S
C1299 H1269 0.950 . S
C1299 C1294 1.363 . S
C1299 C1298 1.415 . S
H1300 C1297 0.999 . S
H1301 C1282 0.913 . S
H1302 C1320 0.951 . S
H1303 C1322 0.951 . S
H1304 C1324 0.950 . S
H1305 C1325 0.950 . S
H1306 C1327 0.950 . S
H1307 C1330 0.950 . S
H1308 C1331 0.950 . S
H1309 C1333 0.950 . S
H1310 C1334 0.950 . S
H1311 C1335 0.951 . S
H1312 C1337 0.951 . S
H1313 C1339 0.950 . S
H1314 C1340 0.950 . S
H1315 C1342 0.950 . S
H1316 C1345 0.950 . S
H1317 C1346 0.950 . S
H1318 C1348 0.950 . S
H1319 C1349 0.950 . S
C1320 H1302 0.951 . S
C1320 C1321 1.366 . S
C1320 C1322 1.388 . S
C1321 C1320 1.366 . S
C1321 C1325 1.385 . S
C1322 H1303 0.951 . S
C1322 C1320 1.388 . S
C1322 C1323 1.366 . S
C1323 C1322 1.366 . S
C1323 C1324 1.414 . S
C1323 C1326 1.499 . S
C1324 H1304 0.950 . S
C1324 C1323 1.414 . S
C1324 C1325 1.374 . S
C1325 H1305 0.950 . S
C1325 C1321 1.385 . S
C1325 C1324 1.374 . S
C1326 C1323 1.499 . S
C1326 C1327 1.373 . S
C1326 C1328 1.389 . S
C1327 H1306 0.950 . S
C1327 C1326 1.373 . S
C1327 C1343 1.377 . S
C1328 C1326 1.389 . S
C1328 C1329 1.524 . S
C1328 C1342 1.377 . S
C1329 C1328 1.524 . S
C1329 C1330 1.397 . S
C1329 C1334 1.363 . S
C1330 H1307 0.950 . S
C1330 C1329 1.397 . S
C1330 C1331 1.334 . S
C1331 H1308 0.950 . S
C1331 C1330 1.334 . S
C1331 C1332 1.287 . S
C1332 C1331 1.287 . S
C1332 C1333 1.524 . S
C1332 H1351 0.913 . S
C1333 H1309 0.950 . S
C1333 C1332 1.524 . S
C1333 C1334 1.415 . S
C1334 H1310 0.950 . S
C1334 C1329 1.363 . S
C1334 C1333 1.415 . S
C1335 H1311 0.951 . S
C1335 C1336 1.366 . S
C1335 C1337 1.388 . S
C1336 C1335 1.366 . S
C1336 C1340 1.385 . S
C1337 H1312 0.951 . S
C1337 C1335 1.388 . S
C1337 C1338 1.366 . S
C1338 C1337 1.366 . S
C1338 C1339 1.414 . S
C1338 C1341 1.499 . S
C1339 H1313 0.950 . S
C1339 C1338 1.414 . S
C1339 C1340 1.374 . S
C1340 H1314 0.950 . S
C1340 C1336 1.385 . S
C1340 C1339 1.374 . S
C1341 C1338 1.499 . S
C1341 C1342 1.373 . S
C1341 C1343 1.389 . S
C1342 H1315 0.950 . S
C1342 C1328 1.377 . S
C1342 C1341 1.373 . S
C1343 C1327 1.377 . S
C1343 C1341 1.389 . S
C1343 C1344 1.524 . S
C1344 C1343 1.524 . S
C1344 C1345 1.397 . S
C1344 C1349 1.363 . S
C1345 H1316 0.950 . S
C1345 C1344 1.397 . S
C1345 C1346 1.334 . S
C1346 H1317 0.950 . S
C1346 C1345 1.334 . S
C1346 C1347 1.287 . S
C1347 C1346 1.287 . S
C1347 C1348 1.524 . S
C1347 H1350 0.999 . S
C1348 H1318 0.950 . S
C1348 C1347 1.524 . S
C1348 C1349 1.415 . S
C1349 H1319 0.950 . S
C1349 C1344 1.363 . S
C1349 C1348 1.415 . S
H1350 C1347 0.999 . S
H1351 C1332 0.913 . S
H1352 C1370 0.951 . S
H1353 C1372 0.951 . S
H1354 C1374 0.950 . S
H1355 C1375 0.950 . S
H1356 C1377 0.950 1_455 S
H1357 C1380 0.950 . S
H1358 C1381 0.962 . S
H1359 C1383 0.950 . S
H1360 C1384 0.950 . S
H1361 C1385 0.951 . S
H1362 C1387 0.951 . S
H1363 C1389 0.950 1_655 S
H1364 C1390 0.950 . S
H1365 C1392 0.950 . S
H1366 C1395 0.950 . S
H1367 C1396 0.950 . S
H1368 C1398 0.950 . S
H1369 C1399 0.950 . S
C1370 H1352 0.951 . S
C1370 C1371 1.366 . S
C1370 C1372 1.388 . S
C1371 C1370 1.366 . S
C1371 C1375 1.385 . S
C1372 H1353 0.951 . S
C1372 C1370 1.388 . S
C1372 C1373 1.366 . S
C1373 C1372 1.366 . S
C1373 C1374 1.414 . S
C1373 C1376 1.499 . S
C1374 H1354 0.950 . S
C1374 C1373 1.414 . S
C1374 C1375 1.374 . S
C1375 H1355 0.950 . S
C1375 C1371 1.385 . S
C1375 C1374 1.374 . S
C1376 C1373 1.499 . S
C1376 C1377 1.373 . S
C1376 C1378 1.389 . S
C1377 H1356 0.950 1_655 S
C1377 C1376 1.373 . S
C1377 C1393 1.377 1_655 S
C1378 C1376 1.389 . S
C1378 C1379 1.524 . S
C1378 C1392 1.377 . S
C1379 C1378 1.524 . S
C1379 C1380 1.397 . S
C1379 C1384 1.363 . S
C1380 H1357 0.950 . S
C1380 C1379 1.397 . S
C1380 C1381 1.334 . S
C1381 H1358 0.962 . S
C1381 C1380 1.334 . S
C1381 C1382 1.287 . S
C1382 C1381 1.287 . S
C1382 C1383 1.524 . S
C1382 H1401 0.941 . S
C1383 H1359 0.950 . S
C1383 C1382 1.524 . S
C1383 C1384 1.415 . S
C1384 H1360 0.950 . S
C1384 C1379 1.363 . S
C1384 C1383 1.415 . S
C1385 H1361 0.951 . S
C1385 C1386 1.366 . S
C1385 C1387 1.388 . S
C1386 C1385 1.366 . S
C1386 C1390 1.385 . S
C1387 H1362 0.951 . S
C1387 C1385 1.388 . S
C1387 C1388 1.366 . S
C1388 C1387 1.366 . S
C1388 C1389 1.414 . S
C1388 C1391 1.470 1_455 S
C1389 H1363 0.950 1_455 S
C1389 C1388 1.414 . S
C1389 C1390 1.374 . S
C1390 H1364 0.950 . S
C1390 C1386 1.385 . S
C1390 C1389 1.374 . S
C1391 C1388 1.470 1_655 S
C1391 C1392 1.414 . S
C1391 C1393 1.378 1_655 S
C1392 H1365 0.950 . S
C1392 C1378 1.377 . S
C1392 C1391 1.414 . S
C1393 C1377 1.377 1_455 S
C1393 C1391 1.378 1_455 S
C1393 C1394 1.524 . S
C1394 C1393 1.524 . S
C1394 C1395 1.397 . S
C1394 C1399 1.363 . S
C1395 H1366 0.950 . S
C1395 C1394 1.397 . S
C1395 C1396 1.334 . S
C1396 H1367 0.950 . S
C1396 C1395 1.334 . S
C1396 C1397 1.287 . S
C1397 C1396 1.287 . S
C1397 C1398 1.524 . S
C1397 H1400 0.999 . S
C1398 H1368 0.950 . S
C1398 C1397 1.524 . S
C1398 C1399 1.415 . S
C1399 H1369 0.950 . S
C1399 C1394 1.363 . S
C1399 C1398 1.415 . S
H1400 C1397 0.999 . S
H1401 C1382 0.941 . S
H1402 C1420 0.951 . S
H1403 C1422 0.951 . S
H1404 C1424 0.950 . S
H1405 C1425 0.950 . S
H1406 C1427 0.950 . S
H1407 C1430 0.950 . S
H1408 C1431 0.950 . S
H1409 C1433 0.950 . S
H1410 C1434 0.950 . S
H1411 C1435 0.951 . S
H1412 C1437 0.951 . S
H1413 C1439 0.950 . S
H1414 C1440 0.950 . S
H1415 C1442 0.950 . S
H1416 C1445 0.950 . S
H1417 C1446 0.950 . S
H1418 C1448 0.950 . S
H1419 C1449 0.950 . S
C1420 H1402 0.951 . S
C1420 C1421 1.366 . S
C1420 C1422 1.388 . S
C1421 C1420 1.366 . S
C1421 C1425 1.385 . S
C1422 H1403 0.951 . S
C1422 C1420 1.388 . S
C1422 C1423 1.366 . S
C1423 C1422 1.366 . S
C1423 C1424 1.414 . S
C1423 C1426 1.499 . S
C1424 H1404 0.950 . S
C1424 C1423 1.414 . S
C1424 C1425 1.374 . S
C1425 H1405 0.950 . S
C1425 C1421 1.385 . S
C1425 C1424 1.374 . S
C1426 C1423 1.499 . S
C1426 C1427 1.373 . S
C1426 C1428 1.389 . S
C1427 H1406 0.950 . S
C1427 C1426 1.373 . S
C1427 C1443 1.377 . S
C1428 C1426 1.389 . S
C1428 C1429 1.524 . S
C1428 C1442 1.377 . S
C1429 C1428 1.524 . S
C1429 C1430 1.397 . S
C1429 C1434 1.363 . S
C1430 H1407 0.950 . S
C1430 C1429 1.397 . S
C1430 C1431 1.334 . S
C1431 H1408 0.950 . S
C1431 C1430 1.334 . S
C1431 C1432 1.287 . S
C1432 C1431 1.287 . S
C1432 C1433 1.524 . S
C1432 H1451 0.913 . S
C1433 H1409 0.950 . S
C1433 C1432 1.524 . S
C1433 C1434 1.415 . S
C1434 H1410 0.950 . S
C1434 C1429 1.363 . S
C1434 C1433 1.415 . S
C1435 H1411 0.951 . S
C1435 C1436 1.366 . S
C1435 C1437 1.388 . S
C1436 C1435 1.366 . S
C1436 C1440 1.385 . S
C1437 H1412 0.951 . S
C1437 C1435 1.388 . S
C1437 C1438 1.366 . S
C1438 C1437 1.366 . S
C1438 C1439 1.414 . S
C1438 C1441 1.499 . S
C1439 H1413 0.950 . S
C1439 C1438 1.414 . S
C1439 C1440 1.374 . S
C1440 H1414 0.950 . S
C1440 C1436 1.385 . S
C1440 C1439 1.374 . S
C1441 C1438 1.499 . S
C1441 C1442 1.373 . S
C1441 C1443 1.389 . S
C1442 H1415 0.950 . S
C1442 C1428 1.377 . S
C1442 C1441 1.373 . S
C1443 C1427 1.377 . S
C1443 C1441 1.389 . S
C1443 C1444 1.524 . S
C1444 C1443 1.524 . S
C1444 C1445 1.397 . S
C1444 C1449 1.363 . S
C1445 H1416 0.950 . S
C1445 C1444 1.397 . S
C1445 C1446 1.334 . S
C1446 H1417 0.950 . S
C1446 C1445 1.334 . S
C1446 C1447 1.287 . S
C1447 C1446 1.287 . S
C1447 C1448 1.524 . S
C1447 H1450 0.999 . S
C1448 H1418 0.950 . S
C1448 C1447 1.524 . S
C1448 C1449 1.415 . S
C1449 H1419 0.950 . S
C1449 C1444 1.363 . S
C1449 C1448 1.415 . S
H1450 C1447 0.999 . S
H1451 C1432 0.913 . S
H1452 C1470 0.951 . S
H1453 C1472 0.951 . S
H1454 C1474 0.950 . S
H1455 C1475 0.950 . S
H1456 C1477 0.950 . S
H1457 C1480 0.950 . S
H1458 C1481 0.950 . S
H1459 C1483 0.950 . S
H1460 C1484 0.950 . S
H1461 C1485 0.951 . S
H1462 C1487 0.951 . S
H1463 C1489 0.950 . S
H1464 C1490 0.950 . S
H1465 C1492 0.950 . S
H1466 C1495 0.950 . S
H1467 C1496 0.950 . S
H1468 C1498 0.950 . S
H1469 C1499 0.950 1_545 S
C1470 H1452 0.951 . S
C1470 C1471 1.366 . S
C1470 C1472 1.388 . S
C1471 C1470 1.366 . S
C1471 C1475 1.385 . S
C1472 H1453 0.951 . S
C1472 C1470 1.388 . S
C1472 C1473 1.366 . S
C1473 C1472 1.366 . S
C1473 C1474 1.414 . S
C1473 C1476 1.499 . S
C1474 H1454 0.950 . S
C1474 C1473 1.414 . S
C1474 C1475 1.374 . S
C1475 H1455 0.950 . S
C1475 C1471 1.385 . S
C1475 C1474 1.374 . S
C1476 C1473 1.499 . S
C1476 C1477 1.373 . S
C1476 C1478 1.389 . S
C1477 H1456 0.950 . S
C1477 C1476 1.373 . S
C1477 C1493 1.377 . S
C1478 C1476 1.389 . S
C1478 C1479 1.524 . S
C1478 C1492 1.377 . S
C1479 C1478 1.524 . S
C1479 C1480 1.397 . S
C1479 C1484 1.363 . S
C1480 H1457 0.950 . S
C1480 C1479 1.397 . S
C1480 C1481 1.334 . S
C1481 H1458 0.950 . S
C1481 C1480 1.334 . S
C1481 C1482 1.287 . S
C1482 C1481 1.287 . S
C1482 C1483 1.524 . S
C1482 H1501 0.913 . S
C1483 H1459 0.950 . S
C1483 C1482 1.524 . S
C1483 C1484 1.415 . S
C1484 H1460 0.950 . S
C1484 C1479 1.363 . S
C1484 C1483 1.415 . S
C1485 H1461 0.951 . S
C1485 C1486 1.366 . S
C1485 C1487 1.388 . S
C1486 C1485 1.366 . S
C1486 C1490 1.385 . S
C1487 H1462 0.951 . S
C1487 C1485 1.388 . S
C1487 C1488 1.366 . S
C1488 C1487 1.366 . S
C1488 C1489 1.414 . S
C1488 C1491 1.499 . S
C1489 H1463 0.950 . S
C1489 C1488 1.414 . S
C1489 C1490 1.374 . S
C1490 H1464 0.950 . S
C1490 C1486 1.385 . S
C1490 C1489 1.374 . S
C1491 C1488 1.499 . S
C1491 C1492 1.373 . S
C1491 C1493 1.389 . S
C1492 H1465 0.950 . S
C1492 C1478 1.377 . S
C1492 C1491 1.373 . S
C1493 C1477 1.377 . S
C1493 C1491 1.389 . S
C1493 C1494 1.561 . S
C1494 C1493 1.561 . S
C1494 C1495 1.370 1_545 S
C1494 C1499 1.352 1_545 S
C1495 H1466 0.950 . S
C1495 C1494 1.370 1_565 S
C1495 C1496 1.334 . S
C1496 H1467 0.950 . S
C1496 C1495 1.334 . S
C1496 C1497 1.287 . S
C1497 C1496 1.287 . S
C1497 C1498 1.524 . S
C1497 H1500 0.999 . S
C1498 H1468 0.950 . S
C1498 C1497 1.524 . S
C1498 C1499 1.415 . S
C1499 H1469 0.950 1_565 S
C1499 C1494 1.352 1_565 S
C1499 C1498 1.415 . S
H1500 C1497 0.999 . S
H1501 C1482 0.913 . S
H1502 C1520 0.951 . S
H1503 C1522 0.951 . S
H1504 C1524 0.950 . S
H1505 C1525 0.950 . S
H1506 C1527 0.950 . S
H1507 C1530 0.950 . S
H1508 C1531 0.950 . S
H1509 C1533 0.950 . S
H1510 C1534 0.950 . S
H1511 C1535 0.951 . S
H1512 C1537 0.951 . S
H1513 C1539 0.950 . S
H1514 C1540 0.950 . S
H1515 C1542 0.950 . S
H1516 C1545 0.950 . S
H1517 C1546 0.950 . S
H1518 C1548 0.950 . S
H1519 C1549 0.950 . S
C1520 H1502 0.951 . S
C1520 C1521 1.366 . S
C1520 C1522 1.388 . S
C1521 C1520 1.366 . S
C1521 C1525 1.385 . S
C1522 H1503 0.951 . S
C1522 C1520 1.388 . S
C1522 C1523 1.366 . S
C1523 C1522 1.366 . S
C1523 C1524 1.414 . S
C1523 C1526 1.499 . S
C1524 H1504 0.950 . S
C1524 C1523 1.414 . S
C1524 C1525 1.374 . S
C1525 H1505 0.950 . S
C1525 C1521 1.385 . S
C1525 C1524 1.374 . S
C1526 C1523 1.499 . S
C1526 C1527 1.373 . S
C1526 C1528 1.389 . S
C1527 H1506 0.950 . S
C1527 C1526 1.373 . S
C1527 C1543 1.377 . S
C1528 C1526 1.389 . S
C1528 C1529 1.524 . S
C1528 C1542 1.377 . S
C1529 C1528 1.524 . S
C1529 C1530 1.397 . S
C1529 C1534 1.363 . S
C1530 H1507 0.950 . S
C1530 C1529 1.397 . S
C1530 C1531 1.334 . S
C1531 H1508 0.950 . S
C1531 C1530 1.334 . S
C1531 C1532 1.287 . S
C1532 C1531 1.287 . S
C1532 C1533 1.524 . S
C1532 H1551 0.913 . S
C1533 H1509 0.950 . S
C1533 C1532 1.524 . S
C1533 C1534 1.415 . S
C1534 H1510 0.950 . S
C1534 C1529 1.363 . S
C1534 C1533 1.415 . S
C1535 H1511 0.951 . S
C1535 C1536 1.366 . S
C1535 C1537 1.388 . S
C1536 C1535 1.366 . S
C1536 C1540 1.385 . S
C1537 H1512 0.951 . S
C1537 C1535 1.388 . S
C1537 C1538 1.366 . S
C1538 C1537 1.366 . S
C1538 C1539 1.414 . S
C1538 C1541 1.499 . S
C1539 H1513 0.950 . S
C1539 C1538 1.414 . S
C1539 C1540 1.374 . S
C1540 H1514 0.950 . S
C1540 C1536 1.385 . S
C1540 C1539 1.374 . S
C1541 C1538 1.499 . S
C1541 C1542 1.373 . S
C1541 C1543 1.389 . S
C1542 H1515 0.950 . S
C1542 C1528 1.377 . S
C1542 C1541 1.373 . S
C1543 C1527 1.377 . S
C1543 C1541 1.389 . S
C1543 C1544 1.524 . S
C1544 C1543 1.524 . S
C1544 C1545 1.397 . S
C1544 C1549 1.363 . S
C1545 H1516 0.950 . S
C1545 C1544 1.397 . S
C1545 C1546 1.334 . S
C1546 H1517 0.950 . S
C1546 C1545 1.334 . S
C1546 C1547 1.287 . S
C1547 C1546 1.287 . S
C1547 C1548 1.524 . S
C1547 H1550 0.999 . S
C1548 H1518 0.950 . S
C1548 C1547 1.524 . S
C1548 C1549 1.415 . S
C1549 H1519 0.950 . S
C1549 C1544 1.363 . S
C1549 C1548 1.415 . S
H1550 C1547 0.999 . S
H1551 C1532 0.913 . S
H1552 C1570 0.951 . S
H1553 C1572 0.951 . S
H1554 C1574 0.950 . S
H1555 C1575 0.950 . S
H1556 C1577 0.950 . S
H1557 C1580 0.950 . S
H1558 C1581 0.953 . S
H1559 C1583 0.950 . S
H1560 C1584 0.950 . S
H1561 C1585 0.951 . S
H1562 C1587 0.951 1_655 S
H1563 C1589 0.950 . S
H1564 C1590 0.950 . S
H1565 C1592 0.950 . S
H1566 C1595 0.950 . S
H1567 C1596 0.950 . S
H1568 C1598 0.950 . S
H1569 C1599 0.950 . S
C1570 H1552 0.951 . S
C1570 C1571 1.366 . S
C1570 C1572 1.388 . S
C1571 C1570 1.366 . S
C1571 C1575 1.385 . S
C1572 H1553 0.951 . S
C1572 C1570 1.388 . S
C1572 C1573 1.366 . S
C1573 C1572 1.366 . S
C1573 C1574 1.414 . S
C1573 C1576 1.499 . S
C1574 H1554 0.950 . S
C1574 C1573 1.414 . S
C1574 C1575 1.374 . S
C1575 H1555 0.950 . S
C1575 C1571 1.385 . S
C1575 C1574 1.374 . S
C1576 C1573 1.499 . S
C1576 C1577 1.373 . S
C1576 C1578 1.389 . S
C1577 H1556 0.950 . S
C1577 C1576 1.373 . S
C1577 C1593 1.377 . S
C1578 C1576 1.389 . S
C1578 C1579 1.524 . S
C1578 C1592 1.377 1_655 S
C1579 C1578 1.524 . S
C1579 C1580 1.397 . S
C1579 C1584 1.363 1_655 S
C1580 H1557 0.950 . S
C1580 C1579 1.397 . S
C1580 C1581 1.330 1_545 S
C1581 H1558 0.953 . S
C1581 C1580 1.330 1_565 S
C1581 C1582 1.288 . S
C1582 C1581 1.288 . S
C1582 C1583 1.524 1_665 S
C1582 H1601 0.913 . S
C1583 H1559 0.950 . S
C1583 C1582 1.524 1_445 S
C1583 C1584 1.415 . S
C1584 H1560 0.950 . S
C1584 C1579 1.363 1_455 S
C1584 C1583 1.415 . S
C1585 H1561 0.951 . S
C1585 C1586 1.366 . S
C1585 C1587 1.388 . S
C1586 C1585 1.366 . S
C1586 C1590 1.385 . S
C1587 H1562 0.951 1_455 S
C1587 C1585 1.388 . S
C1587 C1588 1.366 . S
C1588 C1587 1.366 . S
C1588 C1589 1.414 . S
C1588 C1591 1.499 . S
C1589 H1563 0.950 . S
C1589 C1588 1.414 . S
C1589 C1590 1.374 . S
C1590 H1564 0.950 . S
C1590 C1586 1.385 . S
C1590 C1589 1.374 . S
C1591 C1588 1.499 . S
C1591 C1592 1.373 . S
C1591 C1593 1.389 1_455 S
C1592 H1565 0.950 . S
C1592 C1578 1.377 1_455 S
C1592 C1591 1.373 . S
C1593 C1577 1.377 . S
C1593 C1591 1.389 1_655 S
C1593 C1594 1.524 . S
C1594 C1593 1.524 . S
C1594 C1595 1.397 1_655 S
C1594 C1599 1.363 . S
C1595 H1566 0.950 . S
C1595 C1594 1.397 1_455 S
C1595 C1596 1.334 . S
C1596 H1567 0.950 . S
C1596 C1595 1.334 . S
C1596 C1597 1.287 1_455 S
C1597 C1596 1.287 1_655 S
C1597 C1598 1.524 . S
C1597 H1600 0.999 . S
C1598 H1568 0.950 . S
C1598 C1597 1.524 . S
C1598 C1599 1.415 . S
C1599 H1569 0.950 . S
C1599 C1594 1.363 . S
C1599 C1598 1.415 . S
H1600 C1597 0.999 . S
H1601 C1582 0.913 . S
H1602 C1620 0.951 . S
H1603 C1622 0.951 . S
H1604 C1624 0.950 . S
H1605 C1625 0.950 . S
H1606 C1627 0.950 . S
H1607 C1630 0.950 . S
H1608 C1631 0.950 . S
H1609 C1633 0.950 . S
H1610 C1634 0.950 . S
H1611 C1635 0.951 . S
H1612 C1637 0.951 . S
H1613 C1639 0.950 . S
H1614 C1640 0.950 . S
H1615 C1642 0.950 . S
H1616 C1645 0.950 . S
H1617 C1646 0.950 . S
H1618 C1648 0.950 . S
H1619 C1649 0.950 . S
C1620 H1602 0.951 . S
C1620 C1621 1.366 . S
C1620 C1622 1.388 . S
C1621 C1620 1.366 . S
C1621 C1625 1.385 . S
C1622 H1603 0.951 . S
C1622 C1620 1.388 . S
C1622 C1623 1.366 . S
C1623 C1622 1.366 . S
C1623 C1624 1.414 . S
C1623 C1626 1.499 . S
C1624 H1604 0.950 . S
C1624 C1623 1.414 . S
C1624 C1625 1.374 . S
C1625 H1605 0.950 . S
C1625 C1621 1.385 . S
C1625 C1624 1.374 . S
C1626 C1623 1.499 . S
C1626 C1627 1.373 . S
C1626 C1628 1.389 . S
C1627 H1606 0.950 . S
C1627 C1626 1.373 . S
C1627 C1643 1.377 . S
C1628 C1626 1.389 . S
C1628 C1629 1.524 . S
C1628 C1642 1.377 . S
C1629 C1628 1.524 . S
C1629 C1630 1.397 . S
C1629 C1634 1.363 . S
C1630 H1607 0.950 . S
C1630 C1629 1.397 . S
C1630 C1631 1.334 . S
C1631 H1608 0.950 . S
C1631 C1630 1.334 . S
C1631 C1632 1.287 . S
C1632 C1631 1.287 . S
C1632 C1633 1.524 . S
C1632 H1651 0.913 . S
C1633 H1609 0.950 . S
C1633 C1632 1.524 . S
C1633 C1634 1.415 . S
C1634 H1610 0.950 . S
C1634 C1629 1.363 . S
C1634 C1633 1.415 . S
C1635 H1611 0.951 . S
C1635 C1636 1.366 . S
C1635 C1637 1.388 . S
C1636 C1635 1.366 . S
C1636 C1640 1.385 . S
C1637 H1612 0.951 . S
C1637 C1635 1.388 . S
C1637 C1638 1.366 . S
C1638 C1637 1.366 . S
C1638 C1639 1.414 . S
C1638 C1641 1.499 . S
C1639 H1613 0.950 . S
C1639 C1638 1.414 . S
C1639 C1640 1.374 . S
C1640 H1614 0.950 . S
C1640 C1636 1.385 . S
C1640 C1639 1.374 . S
C1641 C1638 1.499 . S
C1641 C1642 1.373 . S
C1641 C1643 1.389 . S
C1642 H1615 0.950 . S
C1642 C1628 1.377 . S
C1642 C1641 1.373 . S
C1643 C1627 1.377 . S
C1643 C1641 1.389 . S
C1643 C1644 1.524 . S
C1644 C1643 1.524 . S
C1644 C1645 1.397 . S
C1644 C1649 1.363 . S
C1645 H1616 0.950 . S
C1645 C1644 1.397 . S
C1645 C1646 1.334 . S
C1646 H1617 0.950 . S
C1646 C1645 1.334 . S
C1646 C1647 1.287 . S
C1647 C1646 1.287 . S
C1647 C1648 1.524 . S
C1647 H1650 0.999 . S
C1648 H1618 0.950 . S
C1648 C1647 1.524 . S
C1648 C1649 1.415 . S
C1649 H1619 0.950 . S
C1649 C1644 1.363 . S
C1649 C1648 1.415 . S
H1650 C1647 0.999 . S
H1651 C1632 0.913 . S
H1652 C1670 0.951 . S
H1653 C1672 0.951 . S
H1654 C1674 0.950 . S
H1655 C1675 0.950 . S
H1656 C1677 0.950 . S
H1657 C1680 0.950 . S
H1658 C1681 0.950 . S
H1659 C1683 0.950 . S
H1660 C1684 0.950 . S
H1661 C1685 0.951 . S
H1662 C1687 0.951 . S
H1663 C1689 0.950 . S
H1664 C1690 0.950 . S
H1665 C1692 0.950 . S
H1666 C1695 0.950 . S
H1667 C1696 0.950 . S
H1668 C1698 0.950 . S
H1669 C1699 0.950 . S
C1670 H1652 0.951 . S
C1670 C1671 1.366 . S
C1670 C1672 1.388 . S
C1671 C1670 1.366 . S
C1671 C1675 1.385 . S
C1672 H1653 0.951 . S
C1672 C1670 1.388 . S
C1672 C1673 1.366 . S
C1673 C1672 1.366 . S
C1673 C1674 1.414 . S
C1673 C1676 1.499 . S
C1674 H1654 0.950 . S
C1674 C1673 1.414 . S
C1674 C1675 1.374 . S
C1675 H1655 0.950 . S
C1675 C1671 1.385 . S
C1675 C1674 1.374 . S
C1676 C1673 1.499 . S
C1676 C1677 1.373 . S
C1676 C1678 1.389 . S
C1677 H1656 0.950 . S
C1677 C1676 1.373 . S
C1677 C1693 1.377 . S
C1678 C1676 1.389 . S
C1678 C1679 1.524 . S
C1678 C1692 1.377 . S
C1679 C1678 1.524 . S
C1679 C1680 1.397 . S
C1679 C1684 1.363 . S
C1680 H1657 0.950 . S
C1680 C1679 1.397 . S
C1680 C1681 1.334 . S
C1681 H1658 0.950 . S
C1681 C1680 1.334 . S
C1681 C1682 1.287 . S
C1682 C1681 1.287 . S
C1682 C1683 1.524 . S
C1682 H1701 0.913 . S
C1683 H1659 0.950 . S
C1683 C1682 1.524 . S
C1683 C1684 1.415 . S
C1684 H1660 0.950 . S
C1684 C1679 1.363 . S
C1684 C1683 1.415 . S
C1685 H1661 0.951 . S
C1685 C1686 1.366 . S
C1685 C1687 1.388 . S
C1686 C1685 1.366 . S
C1686 C1690 1.385 . S
C1687 H1662 0.951 . S
C1687 C1685 1.388 . S
C1687 C1688 1.366 . S
C1688 C1687 1.366 . S
C1688 C1689 1.414 . S
C1688 C1691 1.499 . S
C1689 H1663 0.950 . S
C1689 C1688 1.414 . S
C1689 C1690 1.374 . S
C1690 H1664 0.950 . S
C1690 C1686 1.385 . S
C1690 C1689 1.374 . S
C1691 C1688 1.499 . S
C1691 C1692 1.373 . S
C1691 C1693 1.389 . S
C1692 H1665 0.950 . S
C1692 C1678 1.377 . S
C1692 C1691 1.373 . S
C1693 C1677 1.377 . S
C1693 C1691 1.389 . S
C1693 C1694 1.524 . S
C1694 C1693 1.524 . S
C1694 C1695 1.397 . S
C1694 C1699 1.363 . S
C1695 H1666 0.950 . S
C1695 C1694 1.397 . S
C1695 C1696 1.334 . S
C1696 H1667 0.950 . S
C1696 C1695 1.334 . S
C1696 C1697 1.287 . S
C1697 C1696 1.287 . S
C1697 C1698 1.524 . S
C1697 H1700 0.999 . S
C1698 H1668 0.950 . S
C1698 C1697 1.524 . S
C1698 C1699 1.415 . S
C1699 H1669 0.950 . S
C1699 C1694 1.363 . S
C1699 C1698 1.415 . S
H1700 C1697 0.999 . S
H1701 C1682 0.913 . S
H1702 C1720 0.951 . S
H1703 C1722 0.951 . S
H1704 C1724 0.950 . S
H1705 C1725 0.950 . S
H1706 C1727 0.950 . S
H1707 C1730 0.950 . S
H1708 C1731 0.950 . S
H1709 C1733 0.950 . S
H1710 C1734 0.950 . S
H1711 C1735 0.951 . S
H1712 C1737 0.951 . S
H1713 C1739 0.950 . S
H1714 C1740 0.950 . S
H1715 C1742 0.950 . S
H1716 C1745 0.950 . S
H1717 C1746 0.950 . S
H1718 C1748 0.950 . S
H1719 C1749 0.950 . S
C1720 H1702 0.951 . S
C1720 C1721 1.366 . S
C1720 C1722 1.388 . S
C1721 C1720 1.366 . S
C1721 C1725 1.385 . S
C1722 H1703 0.951 . S
C1722 C1720 1.388 . S
C1722 C1723 1.366 . S
C1723 C1722 1.366 . S
C1723 C1724 1.414 . S
C1723 C1726 1.499 . S
C1724 H1704 0.950 . S
C1724 C1723 1.414 . S
C1724 C1725 1.374 . S
C1725 H1705 0.950 . S
C1725 C1721 1.385 . S
C1725 C1724 1.374 . S
C1726 C1723 1.499 . S
C1726 C1727 1.373 . S
C1726 C1728 1.389 . S
C1727 H1706 0.950 . S
C1727 C1726 1.373 . S
C1727 C1743 1.377 . S
C1728 C1726 1.389 . S
C1728 C1729 1.524 . S
C1728 C1742 1.377 . S
C1729 C1728 1.524 . S
C1729 C1730 1.397 . S
C1729 C1734 1.363 . S
C1730 H1707 0.950 . S
C1730 C1729 1.397 . S
C1730 C1731 1.334 . S
C1731 H1708 0.950 . S
C1731 C1730 1.334 . S
C1731 C1732 1.287 . S
C1732 C1731 1.287 . S
C1732 C1733 1.524 . S
C1732 H1751 0.913 . S
C1733 H1709 0.950 . S
C1733 C1732 1.524 . S
C1733 C1734 1.415 . S
C1734 H1710 0.950 . S
C1734 C1729 1.363 . S
C1734 C1733 1.415 . S
C1735 H1711 0.951 . S
C1735 C1736 1.366 . S
C1735 C1737 1.388 . S
C1736 C1735 1.366 . S
C1736 C1740 1.385 . S
C1737 H1712 0.951 . S
C1737 C1735 1.388 . S
C1737 C1738 1.366 . S
C1738 C1737 1.366 . S
C1738 C1739 1.414 . S
C1738 C1741 1.499 . S
C1739 H1713 0.950 . S
C1739 C1738 1.414 . S
C1739 C1740 1.374 . S
C1740 H1714 0.950 . S
C1740 C1736 1.385 . S
C1740 C1739 1.374 . S
C1741 C1738 1.499 . S
C1741 C1742 1.373 . S
C1741 C1743 1.389 . S
C1742 H1715 0.950 . S
C1742 C1728 1.377 . S
C1742 C1741 1.373 . S
C1743 C1727 1.377 . S
C1743 C1741 1.389 . S
C1743 C1744 1.524 . S
C1744 C1743 1.524 . S
C1744 C1745 1.397 . S
C1744 C1749 1.363 . S
C1745 H1716 0.950 . S
C1745 C1744 1.397 . S
C1745 C1746 1.334 . S
C1746 H1717 0.950 . S
C1746 C1745 1.334 . S
C1746 C1747 1.287 . S
C1747 C1746 1.287 . S
C1747 C1748 1.524 . S
C1747 H1750 0.999 . S
C1748 H1718 0.950 . S
C1748 C1747 1.524 . S
C1748 C1749 1.415 . S
C1749 H1719 0.950 . S
C1749 C1744 1.363 . S
C1749 C1748 1.415 . S
H1750 C1747 0.999 . S
H1751 C1732 0.913 . S
H1752 C1770 0.951 . S
H1753 C1772 0.951 . S
H1754 C1774 0.950 . S
H1755 C1775 0.950 . S
H1756 C1777 0.950 . S
H1757 C1780 0.950 . S
H1758 C1781 0.950 . S
H1759 C1783 0.950 . S
H1760 C1784 0.950 . S
H1761 C1785 0.951 . S
H1762 C1787 0.951 . S
H1763 C1789 0.950 . S
H1764 C1790 0.950 . S
H1765 C1792 0.950 . S
H1766 C1795 0.945 1_565 S
H1767 C1796 0.950 . S
H1768 C1798 0.950 . S
H1769 C1799 0.950 . S
C1770 H1752 0.951 . S
C1770 C1771 1.366 . S
C1770 C1772 1.388 . S
C1771 C1770 1.366 . S
C1771 C1775 1.385 . S
C1772 H1753 0.951 . S
C1772 C1770 1.388 . S
C1772 C1773 1.366 . S
C1773 C1772 1.366 . S
C1773 C1774 1.414 . S
C1773 C1776 1.499 . S
C1774 H1754 0.950 . S
C1774 C1773 1.414 . S
C1774 C1775 1.374 . S
C1775 H1755 0.950 . S
C1775 C1771 1.385 . S
C1775 C1774 1.374 . S
C1776 C1773 1.499 . S
C1776 C1777 1.373 . S
C1776 C1778 1.389 . S
C1777 H1756 0.950 . S
C1777 C1776 1.373 . S
C1777 C1793 1.377 . S
C1778 C1776 1.389 . S
C1778 C1779 1.524 . S
C1778 C1792 1.377 . S
C1779 C1778 1.524 . S
C1779 C1780 1.397 1_554 S
C1779 C1784 1.363 . S
C1780 H1757 0.950 . S
C1780 C1779 1.397 1_556 S
C1780 C1781 1.334 . S
C1781 H1758 0.950 . S
C1781 C1780 1.334 . S
C1781 C1782 1.287 . S
C1782 C1781 1.287 . S
C1782 C1783 1.524 . S
C1782 H1801 0.913 . S
C1783 H1759 0.950 . S
C1783 C1782 1.524 . S
C1783 C1784 1.415 1_556 S
C1784 H1760 0.950 . S
C1784 C1779 1.363 . S
C1784 C1783 1.415 1_554 S
C1785 H1761 0.951 . S
C1785 C1786 1.366 . S
C1785 C1787 1.388 . S
C1786 C1785 1.366 . S
C1786 C1790 1.385 1_545 S
C1787 H1762 0.951 . S
C1787 C1785 1.388 . S
C1787 C1788 1.366 1_545 S
C1788 C1787 1.366 1_565 S
C1788 C1789 1.414 . S
C1788 C1791 1.499 . S
C1789 H1763 0.950 . S
C1789 C1788 1.414 . S
C1789 C1790 1.374 . S
C1790 H1764 0.950 . S
C1790 C1786 1.385 1_565 S
C1790 C1789 1.374 . S
C1791 C1788 1.499 . S
C1791 C1792 1.373 . S
C1791 C1793 1.389 . S
C1792 H1765 0.950 . S
C1792 C1778 1.377 . S
C1792 C1791 1.373 . S
C1793 C1777 1.377 . S
C1793 C1791 1.389 . S
C1793 C1794 1.524 1_565 S
C1794 C1793 1.524 1_545 S
C1794 C1795 1.398 . S
C1794 C1799 1.363 . S
C1795 H1766 0.945 1_545 S
C1795 C1794 1.398 . S
C1795 C1796 1.338 . S
C1796 H1767 0.950 . S
C1796 C1795 1.338 . S
C1796 C1797 1.287 . S
C1797 C1796 1.287 . S
C1797 C1798 1.524 . S
C1797 H1800 0.999 . S
C1798 H1768 0.950 . S
C1798 C1797 1.524 . S
C1798 C1799 1.415 . S
C1799 H1769 0.950 . S
C1799 C1794 1.363 . S
C1799 C1798 1.415 . S
H1800 C1797 0.999 . S
H1801 C1782 0.913 . S
H1802 C1820 0.951 . S
H1803 C1822 0.951 . S
H1804 C1824 0.950 . S
H1805 C1825 0.950 . S
H1806 C1827 0.950 . S
H1807 C1830 0.950 . S
H1808 C1831 0.950 . S
H1809 C1833 0.950 . S
H1810 C1834 0.950 . S
H1811 C1835 0.951 . S
H1812 C1837 0.951 . S
H1813 C1839 0.950 . S
H1814 C1840 0.950 . S
H1815 C1842 0.950 . S
H1816 C1845 0.950 . S
H1817 C1846 0.950 . S
H1818 C1848 0.950 . S
H1819 C1849 0.950 . S
C1820 H1802 0.951 . S
C1820 C1821 1.366 . S
C1820 C1822 1.388 . S
C1821 C1820 1.366 . S
C1821 C1825 1.385 1_554 S
C1822 H1803 0.951 . S
C1822 C1820 1.388 . S
C1822 C1823 1.366 . S
C1823 C1822 1.366 . S
C1823 C1824 1.414 1_554 S
C1823 C1826 1.496 . S
C1824 H1804 0.950 . S
C1824 C1823 1.414 1_556 S
C1824 C1825 1.374 . S
C1825 H1805 0.950 . S
C1825 C1821 1.385 1_556 S
C1825 C1824 1.374 . S
C1826 C1823 1.496 . S
C1826 C1827 1.372 1_554 S
C1826 C1828 1.396 . S
C1827 H1806 0.950 . S
C1827 C1826 1.372 1_556 S
C1827 C1843 1.386 . S
C1828 C1826 1.396 . S
C1828 C1829 1.524 . S
C1828 C1842 1.377 . S
C1829 C1828 1.524 . S
C1829 C1830 1.397 1_554 S
C1829 C1834 1.363 . S
C1830 H1807 0.950 . S
C1830 C1829 1.397 1_556 S
C1830 C1831 1.334 . S
C1831 H1808 0.950 . S
C1831 C1830 1.334 . S
C1831 C1832 1.287 1_556 S
C1832 C1831 1.287 1_554 S
C1832 C1833 1.524 . S
C1832 H1851 0.913 . S
C1833 H1809 0.950 . S
C1833 C1832 1.524 . S
C1833 C1834 1.415 . S
C1834 H1810 0.950 . S
C1834 C1829 1.363 . S
C1834 C1833 1.415 . S
C1835 H1811 0.951 . S
C1835 C1836 1.326 1_556 S
C1835 C1837 1.388 . S
C1836 C1835 1.326 1_554 S
C1836 C1840 1.417 . S
C1837 H1812 0.951 . S
C1837 C1835 1.388 . S
C1837 C1838 1.366 1_556 S
C1838 C1837 1.366 1_554 S
C1838 C1839 1.414 . S
C1838 C1841 1.499 . S
C1839 H1813 0.950 . S
C1839 C1838 1.414 . S
C1839 C1840 1.374 . S
C1840 H1814 0.950 . S
C1840 C1836 1.417 . S
C1840 C1839 1.374 . S
C1841 C1838 1.499 . S
C1841 C1842 1.373 . S
C1841 C1843 1.378 1_554 S
C1842 H1815 0.950 . S
C1842 C1828 1.377 . S
C1842 C1841 1.373 . S
C1843 C1827 1.386 . S
C1843 C1841 1.378 1_556 S
C1843 C1844 1.526 . S
C1844 C1843 1.526 . S
C1844 C1845 1.397 1_556 S
C1844 C1849 1.363 . S
C1845 H1816 0.950 . S
C1845 C1844 1.397 1_554 S
C1845 C1846 1.334 . S
C1846 H1817 0.950 . S
C1846 C1845 1.334 . S
C1846 C1847 1.287 . S
C1847 C1846 1.287 . S
C1847 C1848 1.524 1_554 S
C1847 H1850 0.999 . S
C1848 H1818 0.950 . S
C1848 C1847 1.524 1_556 S
C1848 C1849 1.415 . S
C1849 H1819 0.950 . S
C1849 C1844 1.363 . S
C1849 C1848 1.415 . S
H1850 C1847 0.999 . S
H1851 C1832 0.913 . S
H1852 C1870 0.951 . S
H1853 C1872 0.951 . S
H1854 C1874 0.950 . S
H1855 C1875 0.950 . S
H1856 C1877 0.950 . S
H1857 C1880 0.950 . S
H1858 C1881 0.950 . S
H1859 C1883 0.950 . S
H1860 C1884 0.950 . S
H1861 C1885 0.951 . S
H1862 C1887 0.951 . S
H1863 C1889 0.950 . S
H1864 C1890 0.950 . S
H1865 C1892 0.950 . S
H1866 C1895 0.950 . S
H1867 C1896 0.950 . S
H1868 C1898 0.950 . S
H1869 C1899 0.950 . S
C1870 H1852 0.951 . S
C1870 C1871 1.366 . S
C1870 C1872 1.388 . S
C1871 C1870 1.366 . S
C1871 C1875 1.385 . S
C1872 H1853 0.951 . S
C1872 C1870 1.388 . S
C1872 C1873 1.366 . S
C1873 C1872 1.366 . S
C1873 C1874 1.414 . S
C1873 C1876 1.499 . S
C1874 H1854 0.950 . S
C1874 C1873 1.414 . S
C1874 C1875 1.374 . S
C1875 H1855 0.950 . S
C1875 C1871 1.385 . S
C1875 C1874 1.374 . S
C1876 C1873 1.499 . S
C1876 C1877 1.373 . S
C1876 C1878 1.389 . S
C1877 H1856 0.950 . S
C1877 C1876 1.373 . S
C1877 C1893 1.377 . S
C1878 C1876 1.389 . S
C1878 C1879 1.524 . S
C1878 C1892 1.377 . S
C1879 C1878 1.524 . S
C1879 C1880 1.397 . S
C1879 C1884 1.363 . S
C1880 H1857 0.950 . S
C1880 C1879 1.397 . S
C1880 C1881 1.334 . S
C1881 H1858 0.950 . S
C1881 C1880 1.334 . S
C1881 C1882 1.287 . S
C1882 C1881 1.287 . S
C1882 C1883 1.524 . S
C1882 H1901 0.913 . S
C1883 H1859 0.950 . S
C1883 C1882 1.524 . S
C1883 C1884 1.415 . S
C1884 H1860 0.950 . S
C1884 C1879 1.363 . S
C1884 C1883 1.415 . S
C1885 H1861 0.951 . S
C1885 C1886 1.366 . S
C1885 C1887 1.388 . S
C1886 C1885 1.366 . S
C1886 C1890 1.385 . S
C1887 H1862 0.951 . S
C1887 C1885 1.388 . S
C1887 C1888 1.366 . S
C1888 C1887 1.366 . S
C1888 C1889 1.414 . S
C1888 C1891 1.499 . S
C1889 H1863 0.950 . S
C1889 C1888 1.414 . S
C1889 C1890 1.374 . S
C1890 H1864 0.950 . S
C1890 C1886 1.385 . S
C1890 C1889 1.374 . S
C1891 C1888 1.499 . S
C1891 C1892 1.373 . S
C1891 C1893 1.389 . S
C1892 H1865 0.950 . S
C1892 C1878 1.377 . S
C1892 C1891 1.373 . S
C1893 C1877 1.377 . S
C1893 C1891 1.389 . S
C1893 C1894 1.524 . S
C1894 C1893 1.524 . S
C1894 C1895 1.397 . S
C1894 C1899 1.363 . S
C1895 H1866 0.950 . S
C1895 C1894 1.397 . S
C1895 C1896 1.334 . S
C1896 H1867 0.950 . S
C1896 C1895 1.334 . S
C1896 C1897 1.287 . S
C1897 C1896 1.287 . S
C1897 C1898 1.524 . S
C1897 H1900 0.999 . S
C1898 H1868 0.950 . S
C1898 C1897 1.524 . S
C1898 C1899 1.415 . S
C1899 H1869 0.950 . S
C1899 C1894 1.363 . S
C1899 C1898 1.415 . S
H1900 C1897 0.999 . S
H1901 C1882 0.913 . S
H1902 C1920 0.951 . S
H1903 C1922 0.951 . S
H1904 C1924 0.950 . S
H1905 C1925 0.950 . S
H1906 C1927 0.950 . S
H1907 C1930 0.950 . S
H1908 C1931 0.950 . S
H1909 C1933 0.950 . S
H1910 C1934 0.950 . S
H1911 C1935 0.951 . S
H1912 C1937 0.951 . S
H1913 C1939 0.950 . S
H1914 C1940 0.950 . S
H1915 C1942 0.950 . S
H1916 C1945 0.950 . S
H1917 C1946 0.950 . S
H1918 C1948 0.950 . S
H1919 C1949 0.950 . S
C1920 H1902 0.951 . S
C1920 C1921 1.366 . S
C1920 C1922 1.388 . S
C1921 C1920 1.366 . S
C1921 C1925 1.385 . S
C1922 H1903 0.951 . S
C1922 C1920 1.388 . S
C1922 C1923 1.366 . S
C1923 C1922 1.366 . S
C1923 C1924 1.414 . S
C1923 C1926 1.499 . S
C1924 H1904 0.950 . S
C1924 C1923 1.414 . S
C1924 C1925 1.374 . S
C1925 H1905 0.950 . S
C1925 C1921 1.385 . S
C1925 C1924 1.374 . S
C1926 C1923 1.499 . S
C1926 C1927 1.373 . S
C1926 C1928 1.389 . S
C1927 H1906 0.950 . S
C1927 C1926 1.373 . S
C1927 C1943 1.377 . S
C1928 C1926 1.389 . S
C1928 C1929 1.524 . S
C1928 C1942 1.377 . S
C1929 C1928 1.524 . S
C1929 C1930 1.397 . S
C1929 C1934 1.363 . S
C1930 H1907 0.950 . S
C1930 C1929 1.397 . S
C1930 C1931 1.334 . S
C1931 H1908 0.950 . S
C1931 C1930 1.334 . S
C1931 C1932 1.287 . S
C1932 C1931 1.287 . S
C1932 C1933 1.524 . S
C1932 H1951 0.913 . S
C1933 H1909 0.950 . S
C1933 C1932 1.524 . S
C1933 C1934 1.415 . S
C1934 H1910 0.950 . S
C1934 C1929 1.363 . S
C1934 C1933 1.415 . S
C1935 H1911 0.951 . S
C1935 C1936 1.366 . S
C1935 C1937 1.388 . S
C1936 C1935 1.366 . S
C1936 C1940 1.385 . S
C1937 H1912 0.951 . S
C1937 C1935 1.388 . S
C1937 C1938 1.366 . S
C1938 C1937 1.366 . S
C1938 C1939 1.414 . S
C1938 C1941 1.499 . S
C1939 H1913 0.950 . S
C1939 C1938 1.414 . S
C1939 C1940 1.374 . S
C1940 H1914 0.950 . S
C1940 C1936 1.385 . S
C1940 C1939 1.374 . S
C1941 C1938 1.499 . S
C1941 C1942 1.373 . S
C1941 C1943 1.389 . S
C1942 H1915 0.950 . S
C1942 C1928 1.377 . S
C1942 C1941 1.373 . S
C1943 C1927 1.377 . S
C1943 C1941 1.389 . S
C1943 C1944 1.524 . S
C1944 C1943 1.524 . S
C1944 C1945 1.397 . S
C1944 C1949 1.363 . S
C1945 H1916 0.950 . S
C1945 C1944 1.397 . S
C1945 C1946 1.334 . S
C1946 H1917 0.950 . S
C1946 C1945 1.334 . S
C1946 C1947 1.287 . S
C1947 C1946 1.287 . S
C1947 C1948 1.524 . S
C1947 H1950 0.999 . S
C1948 H1918 0.950 . S
C1948 C1947 1.524 . S
C1948 C1949 1.415 . S
C1949 H1919 0.950 . S
C1949 C1944 1.363 . S
C1949 C1948 1.415 . S
H1950 C1947 0.999 . S
H1951 C1932 0.913 . S
H1952 C1970 0.951 . S
H1953 C1972 0.951 . S
H1954 C1974 0.950 . S
H1955 C1975 0.950 . S
H1956 C1977 0.950 . S
H1957 C1980 0.950 . S
H1958 C1981 0.950 . S
H1959 C1983 0.950 . S
H1960 C1984 0.950 . S
H1961 C1985 0.951 . S
H1962 C1987 0.951 . S
H1963 C1989 0.950 . S
H1964 C1990 0.950 . S
H1965 C1992 0.950 . S
H1966 C1995 0.950 . S
H1967 C1996 0.950 . S
H1968 C1998 0.950 . S
H1969 C1999 0.950 . S
C1970 H1952 0.951 . S
C1970 C1971 1.366 . S
C1970 C1972 1.388 . S
C1971 C1970 1.366 . S
C1971 C1975 1.385 . S
C1972 H1953 0.951 . S
C1972 C1970 1.388 . S
C1972 C1973 1.366 . S
C1973 C1972 1.366 . S
C1973 C1974 1.414 . S
C1973 C1976 1.499 . S
C1974 H1954 0.950 . S
C1974 C1973 1.414 . S
C1974 C1975 1.374 . S
C1975 H1955 0.950 . S
C1975 C1971 1.385 . S
C1975 C1974 1.374 . S
C1976 C1973 1.499 . S
C1976 C1977 1.373 . S
C1976 C1978 1.389 . S
C1977 H1956 0.950 . S
C1977 C1976 1.373 . S
C1977 C1993 1.377 . S
C1978 C1976 1.389 . S
C1978 C1979 1.524 . S
C1978 C1992 1.377 . S
C1979 C1978 1.524 . S
C1979 C1980 1.397 . S
C1979 C1984 1.363 . S
C1980 H1957 0.950 . S
C1980 C1979 1.397 . S
C1980 C1981 1.334 . S
C1981 H1958 0.950 . S
C1981 C1980 1.334 . S
C1981 C1982 1.287 . S
C1982 C1981 1.287 . S
C1982 C1983 1.524 . S
C1982 H2001 0.913 . S
C1983 H1959 0.950 . S
C1983 C1982 1.524 . S
C1983 C1984 1.415 . S
C1984 H1960 0.950 . S
C1984 C1979 1.363 . S
C1984 C1983 1.415 . S
C1985 H1961 0.951 . S
C1985 C1986 1.366 . S
C1985 C1987 1.388 . S
C1986 C1985 1.366 . S
C1986 C1990 1.385 . S
C1987 H1962 0.951 . S
C1987 C1985 1.388 . S
C1987 C1988 1.366 . S
C1988 C1987 1.366 . S
C1988 C1989 1.414 . S
C1988 C1991 1.499 . S
C1989 H1963 0.950 . S
C1989 C1988 1.414 . S
C1989 C1990 1.374 . S
C1990 H1964 0.950 . S
C1990 C1986 1.385 . S
C1990 C1989 1.374 . S
C1991 C1988 1.499 . S
C1991 C1992 1.373 . S
C1991 C1993 1.389 . S
C1992 H1965 0.950 . S
C1992 C1978 1.377 . S
C1992 C1991 1.373 . S
C1993 C1977 1.377 . S
C1993 C1991 1.389 . S
C1993 C1994 1.524 . S
C1994 C1993 1.524 . S
C1994 C1995 1.397 . S
C1994 C1999 1.363 . S
C1995 H1966 0.950 . S
C1995 C1994 1.397 . S
C1995 C1996 1.334 . S
C1996 H1967 0.950 . S
C1996 C1995 1.334 . S
C1996 C1997 1.287 . S
C1997 C1996 1.287 . S
C1997 C1998 1.524 . S
C1997 H2000 0.999 . S
C1998 H1968 0.950 . S
C1998 C1997 1.524 . S
C1998 C1999 1.415 . S
C1999 H1969 0.950 . S
C1999 C1994 1.363 . S
C1999 C1998 1.415 . S
H2000 C1997 0.999 . S
H2001 C1982 0.913 . S
H2002 C2020 0.951 . S
H2003 C2022 0.951 . S
H2004 C2024 0.950 . S
H2005 C2025 0.950 . S
H2006 C2027 0.950 . S
H2007 C2030 0.950 . S
H2008 C2031 0.950 . S
H2009 C2033 0.950 . S
H2010 C2034 0.950 . S
H2011 C2035 0.951 . S
H2012 C2037 0.951 . S
H2013 C2039 0.950 . S
H2014 C2040 0.950 . S
H2015 C2042 0.950 . S
H2016 C2045 0.950 . S
H2017 C2046 0.950 . S
H2018 C2048 0.950 . S
H2019 C2049 0.950 . S
C2020 H2002 0.951 . S
C2020 C2021 1.366 . S
C2020 C2022 1.388 . S
C2021 C2020 1.366 . S
C2021 C2025 1.385 . S
C2022 H2003 0.951 . S
C2022 C2020 1.388 . S
C2022 C2023 1.366 . S
C2023 C2022 1.366 . S
C2023 C2024 1.414 . S
C2023 C2026 1.499 . S
C2024 H2004 0.950 . S
C2024 C2023 1.414 . S
C2024 C2025 1.374 . S
C2025 H2005 0.950 . S
C2025 C2021 1.385 . S
C2025 C2024 1.374 . S
C2026 C2023 1.499 . S
C2026 C2027 1.373 . S
C2026 C2028 1.389 . S
C2027 H2006 0.950 . S
C2027 C2026 1.373 . S
C2027 C2043 1.377 . S
C2028 C2026 1.389 . S
C2028 C2029 1.524 . S
C2028 C2042 1.377 . S
C2029 C2028 1.524 . S
C2029 C2030 1.397 . S
C2029 C2034 1.363 . S
C2030 H2007 0.950 . S
C2030 C2029 1.397 . S
C2030 C2031 1.334 . S
C2031 H2008 0.950 . S
C2031 C2030 1.334 . S
C2031 C2032 1.287 . S
C2032 C2031 1.287 . S
C2032 C2033 1.524 . S
C2032 H2051 0.913 . S
C2033 H2009 0.950 . S
C2033 C2032 1.524 . S
C2033 C2034 1.415 . S
C2034 H2010 0.950 . S
C2034 C2029 1.363 . S
C2034 C2033 1.415 . S
C2035 H2011 0.951 . S
C2035 C2036 1.366 . S
C2035 C2037 1.388 . S
C2036 C2035 1.366 . S
C2036 C2040 1.385 . S
C2037 H2012 0.951 . S
C2037 C2035 1.388 . S
C2037 C2038 1.366 . S
C2038 C2037 1.366 . S
C2038 C2039 1.414 . S
C2038 C2041 1.499 . S
C2039 H2013 0.950 . S
C2039 C2038 1.414 . S
C2039 C2040 1.374 . S
C2040 H2014 0.950 . S
C2040 C2036 1.385 . S
C2040 C2039 1.374 . S
C2041 C2038 1.499 . S
C2041 C2042 1.373 . S
C2041 C2043 1.389 . S
C2042 H2015 0.950 . S
C2042 C2028 1.377 . S
C2042 C2041 1.373 . S
C2043 C2027 1.377 . S
C2043 C2041 1.389 . S
C2043 C2044 1.524 . S
C2044 C2043 1.524 . S
C2044 C2045 1.397 . S
C2044 C2049 1.363 . S
C2045 H2016 0.950 . S
C2045 C2044 1.397 . S
C2045 C2046 1.334 . S
C2046 H2017 0.950 . S
C2046 C2045 1.334 . S
C2046 C2047 1.287 . S
C2047 C2046 1.287 . S
C2047 C2048 1.524 . S
C2047 H2050 0.999 . S
C2048 H2018 0.950 . S
C2048 C2047 1.524 . S
C2048 C2049 1.415 . S
C2049 H2019 0.950 . S
C2049 C2044 1.363 . S
C2049 C2048 1.415 . S
H2050 C2047 0.999 . S
H2051 C2032 0.913 . S
H2052 C2070 0.951 . S
H2053 C2072 0.951 . S
H2054 C2074 0.950 . S
H2055 C2075 0.950 . S
H2056 C2077 0.950 . S
H2057 C2080 0.950 . S
H2058 C2081 0.950 . S
H2059 C2083 0.950 . S
H2060 C2084 0.950 . S
H2061 C2085 0.951 . S
H2062 C2087 0.951 . S
H2063 C2089 0.950 . S
H2064 C2090 0.950 . S
H2065 C2092 0.950 . S
H2066 C2095 0.950 . S
H2067 C2096 0.950 . S
H2068 C2098 0.950 . S
H2069 C2099 0.950 . S
C2070 H2052 0.951 . S
C2070 C2071 1.366 . S
C2070 C2072 1.388 . S
C2071 C2070 1.366 . S
C2071 C2075 1.385 . S
C2072 H2053 0.951 . S
C2072 C2070 1.388 . S
C2072 C2073 1.366 . S
C2073 C2072 1.366 . S
C2073 C2074 1.414 . S
C2073 C2076 1.499 . S
C2074 H2054 0.950 . S
C2074 C2073 1.414 . S
C2074 C2075 1.374 . S
C2075 H2055 0.950 . S
C2075 C2071 1.385 . S
C2075 C2074 1.374 . S
C2076 C2073 1.499 . S
C2076 C2077 1.373 . S
C2076 C2078 1.389 . S
C2077 H2056 0.950 . S
C2077 C2076 1.373 . S
C2077 C2093 1.377 . S
C2078 C2076 1.389 . S
C2078 C2079 1.524 . S
C2078 C2092 1.377 . S
C2079 C2078 1.524 . S
C2079 C2080 1.397 . S
C2079 C2084 1.363 . S
C2080 H2057 0.950 . S
C2080 C2079 1.397 . S
C2080 C2081 1.334 . S
C2081 H2058 0.950 . S
C2081 C2080 1.334 . S
C2081 C2082 1.287 . S
C2082 C2081 1.287 . S
C2082 C2083 1.524 . S
C2082 H2101 0.913 . S
C2083 H2059 0.950 . S
C2083 C2082 1.524 . S
C2083 C2084 1.415 . S
C2084 H2060 0.950 . S
C2084 C2079 1.363 . S
C2084 C2083 1.415 . S
C2085 H2061 0.951 . S
C2085 C2086 1.366 . S
C2085 C2087 1.388 . S
C2086 C2085 1.366 . S
C2086 C2090 1.385 . S
C2087 H2062 0.951 . S
C2087 C2085 1.388 . S
C2087 C2088 1.366 . S
C2088 C2087 1.366 . S
C2088 C2089 1.414 . S
C2088 C2091 1.499 . S
C2089 H2063 0.950 . S
C2089 C2088 1.414 . S
C2089 C2090 1.374 . S
C2090 H2064 0.950 . S
C2090 C2086 1.385 . S
C2090 C2089 1.374 . S
C2091 C2088 1.499 . S
C2091 C2092 1.373 . S
C2091 C2093 1.389 . S
C2092 H2065 0.950 . S
C2092 C2078 1.377 . S
C2092 C2091 1.373 . S
C2093 C2077 1.377 . S
C2093 C2091 1.389 . S
C2093 C2094 1.524 . S
C2094 C2093 1.524 . S
C2094 C2095 1.397 . S
C2094 C2099 1.363 . S
C2095 H2066 0.950 . S
C2095 C2094 1.397 . S
C2095 C2096 1.334 . S
C2096 H2067 0.950 . S
C2096 C2095 1.334 . S
C2096 C2097 1.287 . S
C2097 C2096 1.287 . S
C2097 C2098 1.524 . S
C2097 H2100 0.999 . S
C2098 H2068 0.950 . S
C2098 C2097 1.524 . S
C2098 C2099 1.415 . S
C2099 H2069 0.950 . S
C2099 C2094 1.363 . S
C2099 C2098 1.415 . S
H2100 C2097 0.999 . S
H2101 C2082 0.913 . S
H2102 C2120 0.951 . S
H2103 C2122 0.951 . S
H2104 C2124 0.950 . S
H2105 C2125 0.950 . S
H2106 C2127 0.950 . S
H2107 C2130 0.950 . S
H2108 C2131 0.950 . S
H2109 C2133 0.950 . S
H2110 C2134 0.950 . S
H2111 C2135 0.951 . S
H2112 C2137 0.951 . S
H2113 C2139 0.950 . S
H2114 C2140 0.950 . S
H2115 C2142 0.950 . S
H2116 C2145 0.950 . S
H2117 C2146 0.950 . S
H2118 C2148 0.950 . S
H2119 C2149 0.950 . S
C2120 H2102 0.951 . S
C2120 C2121 1.366 . S
C2120 C2122 1.388 . S
C2121 C2120 1.366 . S
C2121 C2125 1.385 . S
C2122 H2103 0.951 . S
C2122 C2120 1.388 . S
C2122 C2123 1.366 . S
C2123 C2122 1.366 . S
C2123 C2124 1.414 . S
C2123 C2126 1.499 . S
C2124 H2104 0.950 . S
C2124 C2123 1.414 . S
C2124 C2125 1.374 . S
C2125 H2105 0.950 . S
C2125 C2121 1.385 . S
C2125 C2124 1.374 . S
C2126 C2123 1.499 . S
C2126 C2127 1.373 . S
C2126 C2128 1.389 . S
C2127 H2106 0.950 . S
C2127 C2126 1.373 . S
C2127 C2143 1.377 . S
C2128 C2126 1.389 . S
C2128 C2129 1.524 . S
C2128 C2142 1.377 . S
C2129 C2128 1.524 . S
C2129 C2130 1.397 . S
C2129 C2134 1.363 . S
C2130 H2107 0.950 . S
C2130 C2129 1.397 . S
C2130 C2131 1.334 . S
C2131 H2108 0.950 . S
C2131 C2130 1.334 . S
C2131 C2132 1.287 . S
C2132 C2131 1.287 . S
C2132 C2133 1.524 . S
C2132 H2151 0.913 . S
C2133 H2109 0.950 . S
C2133 C2132 1.524 . S
C2133 C2134 1.415 . S
C2134 H2110 0.950 . S
C2134 C2129 1.363 . S
C2134 C2133 1.415 . S
C2135 H2111 0.951 . S
C2135 C2136 1.366 . S
C2135 C2137 1.388 . S
C2136 C2135 1.366 . S
C2136 C2140 1.385 . S
C2137 H2112 0.951 . S
C2137 C2135 1.388 . S
C2137 C2138 1.366 . S
C2138 C2137 1.366 . S
C2138 C2139 1.414 . S
C2138 C2141 1.499 . S
C2139 H2113 0.950 . S
C2139 C2138 1.414 . S
C2139 C2140 1.374 . S
C2140 H2114 0.950 . S
C2140 C2136 1.385 . S
C2140 C2139 1.374 . S
C2141 C2138 1.499 . S
C2141 C2142 1.373 . S
C2141 C2143 1.389 . S
C2142 H2115 0.950 . S
C2142 C2128 1.377 . S
C2142 C2141 1.373 . S
C2143 C2127 1.377 . S
C2143 C2141 1.389 . S
C2143 C2144 1.524 . S
C2144 C2143 1.524 . S
C2144 C2145 1.397 . S
C2144 C2149 1.363 . S
C2145 H2116 0.950 . S
C2145 C2144 1.397 . S
C2145 C2146 1.334 . S
C2146 H2117 0.950 . S
C2146 C2145 1.334 . S
C2146 C2147 1.287 . S
C2147 C2146 1.287 . S
C2147 C2148 1.524 . S
C2147 H2150 0.999 . S
C2148 H2118 0.950 . S
C2148 C2147 1.524 . S
C2148 C2149 1.415 . S
C2149 H2119 0.950 . S
C2149 C2144 1.363 . S
C2149 C2148 1.415 . S
H2150 C2147 0.999 . S
H2151 C2132 0.913 . S
H2152 C2170 0.951 . S
H2153 C2172 0.951 . S
H2154 C2174 0.950 . S
H2155 C2175 0.950 . S
H2156 C2177 0.950 . S
H2157 C2180 0.950 . S
H2158 C2181 0.950 . S
H2159 C2183 0.950 . S
H2160 C2184 0.950 . S
H2161 C2185 0.951 . S
H2162 C2187 0.951 . S
H2163 C2189 0.950 . S
H2164 C2190 0.950 . S
H2165 C2192 0.950 . S
H2166 C2195 0.950 . S
H2167 C2196 0.931 1_556 S
H2168 C2198 0.945 1_655 S
H2169 C2199 0.950 . S
C2170 H2152 0.951 . S
C2170 C2171 1.366 . S
C2170 C2172 1.388 . S
C2171 C2170 1.366 . S
C2171 C2175 1.385 . S
C2172 H2153 0.951 . S
C2172 C2170 1.388 . S
C2172 C2173 1.366 . S
C2173 C2172 1.366 . S
C2173 C2174 1.414 . S
C2173 C2176 1.499 . S
C2174 H2154 0.950 . S
C2174 C2173 1.414 . S
C2174 C2175 1.374 . S
C2175 H2155 0.950 . S
C2175 C2171 1.385 . S
C2175 C2174 1.374 . S
C2176 C2173 1.499 . S
C2176 C2177 1.373 . S
C2176 C2178 1.389 . S
C2177 H2156 0.950 . S
C2177 C2176 1.373 . S
C2177 C2193 1.377 . S
C2178 C2176 1.389 . S
C2178 C2179 1.524 . S
C2178 C2192 1.377 . S
C2179 C2178 1.524 . S
C2179 C2180 1.397 . S
C2179 C2184 1.363 . S
C2180 H2157 0.950 . S
C2180 C2179 1.397 . S
C2180 C2181 1.334 . S
C2181 H2158 0.950 . S
C2181 C2180 1.334 . S
C2181 C2182 1.287 . S
C2182 C2181 1.287 . S
C2182 C2183 1.524 . S
C2182 H2201 0.913 . S
C2183 H2159 0.950 . S
C2183 C2182 1.524 . S
C2183 C2184 1.415 . S
C2184 H2160 0.950 . S
C2184 C2179 1.363 . S
C2184 C2183 1.415 . S
C2185 H2161 0.951 . S
C2185 C2186 1.366 . S
C2185 C2187 1.388 . S
C2186 C2185 1.366 . S
C2186 C2190 1.385 . S
C2187 H2162 0.951 . S
C2187 C2185 1.388 . S
C2187 C2188 1.366 . S
C2188 C2187 1.366 . S
C2188 C2189 1.414 . S
C2188 C2191 1.499 . S
C2189 H2163 0.950 . S
C2189 C2188 1.414 . S
C2189 C2190 1.374 . S
C2190 H2164 0.950 . S
C2190 C2186 1.385 . S
C2190 C2189 1.374 . S
C2191 C2188 1.499 . S
C2191 C2192 1.373 . S
C2191 C2193 1.389 . S
C2192 H2165 0.950 . S
C2192 C2178 1.377 . S
C2192 C2191 1.373 . S
C2193 C2177 1.377 . S
C2193 C2191 1.389 . S
C2193 C2194 1.524 . S
C2194 C2193 1.524 . S
C2194 C2195 1.397 . S
C2194 C2199 1.363 . S
C2195 H2166 0.950 . S
C2195 C2194 1.397 . S
C2195 C2196 1.354 . S
C2196 H2167 0.931 1_554 S
C2196 C2195 1.354 . S
C2196 C2197 1.286 1_554 S
C2197 C2196 1.286 1_556 S
C2197 C2198 1.524 1_556 S
C2197 H2200 0.999 . S
C2198 H2168 0.945 1_455 S
C2198 C2197 1.524 1_554 S
C2198 C2199 1.415 . S
C2199 H2169 0.950 . S
C2199 C2194 1.363 . S
C2199 C2198 1.415 . S
H2200 C2197 0.999 . S
H2201 C2182 0.913 . S
H2202 C2220 0.951 . S
H2203 C2222 0.951 . S
H2204 C2224 0.950 . S
H2205 C2225 0.950 . S
H2206 C2227 0.950 . S
H2207 C2230 0.950 . S
H2208 C2231 0.950 . S
H2209 C2233 0.950 . S
H2210 C2234 0.950 . S
H2211 C2235 0.951 . S
H2212 C2237 0.951 . S
H2213 C2239 0.950 . S
H2214 C2240 0.950 . S
H2215 C2242 0.950 . S
H2216 C2245 0.950 . S
H2217 C2246 0.950 . S
H2218 C2248 0.950 . S
H2219 C2249 0.950 . S
C2220 H2202 0.951 . S
C2220 C2221 1.366 . S
C2220 C2222 1.388 . S
C2221 C2220 1.366 . S
C2221 C2225 1.385 . S
C2222 H2203 0.951 . S
C2222 C2220 1.388 . S
C2222 C2223 1.366 . S
C2223 C2222 1.366 . S
C2223 C2224 1.414 . S
C2223 C2226 1.499 . S
C2224 H2204 0.950 . S
C2224 C2223 1.414 . S
C2224 C2225 1.374 . S
C2225 H2205 0.950 . S
C2225 C2221 1.385 . S
C2225 C2224 1.374 . S
C2226 C2223 1.499 . S
C2226 C2227 1.373 . S
C2226 C2228 1.389 . S
C2227 H2206 0.950 . S
C2227 C2226 1.373 . S
C2227 C2243 1.377 . S
C2228 C2226 1.389 . S
C2228 C2229 1.524 . S
C2228 C2242 1.377 . S
C2229 C2228 1.524 . S
C2229 C2230 1.397 . S
C2229 C2234 1.363 . S
C2230 H2207 0.950 . S
C2230 C2229 1.397 . S
C2230 C2231 1.334 . S
C2231 H2208 0.950 . S
C2231 C2230 1.334 . S
C2231 C2232 1.287 . S
C2232 C2231 1.287 . S
C2232 C2233 1.524 . S
C2232 H2251 0.913 . S
C2233 H2209 0.950 . S
C2233 C2232 1.524 . S
C2233 C2234 1.415 . S
C2234 H2210 0.950 . S
C2234 C2229 1.363 . S
C2234 C2233 1.415 . S
C2235 H2211 0.951 . S
C2235 C2236 1.366 . S
C2235 C2237 1.388 . S
C2236 C2235 1.366 . S
C2236 C2240 1.385 . S
C2237 H2212 0.951 . S
C2237 C2235 1.388 . S
C2237 C2238 1.366 . S
C2238 C2237 1.366 . S
C2238 C2239 1.414 . S
C2238 C2241 1.499 . S
C2239 H2213 0.950 . S
C2239 C2238 1.414 . S
C2239 C2240 1.374 . S
C2240 H2214 0.950 . S
C2240 C2236 1.385 . S
C2240 C2239 1.374 . S
C2241 C2238 1.499 . S
C2241 C2242 1.373 . S
C2241 C2243 1.389 . S
C2242 H2215 0.950 . S
C2242 C2228 1.377 . S
C2242 C2241 1.373 . S
C2243 C2227 1.377 . S
C2243 C2241 1.389 . S
C2243 C2244 1.524 . S
C2244 C2243 1.524 . S
C2244 C2245 1.397 . S
C2244 C2249 1.363 . S
C2245 H2216 0.950 . S
C2245 C2244 1.397 . S
C2245 C2246 1.334 . S
C2246 H2217 0.950 . S
C2246 C2245 1.334 . S
C2246 C2247 1.287 . S
C2247 C2246 1.287 . S
C2247 C2248 1.524 . S
C2247 H2250 0.999 . S
C2248 H2218 0.950 . S
C2248 C2247 1.524 . S
C2248 C2249 1.415 . S
C2249 H2219 0.950 . S
C2249 C2244 1.363 . S
C2249 C2248 1.415 . S
H2250 C2247 0.999 . S
H2251 C2232 0.913 . S
H2252 C2270 0.951 . S
H2253 C2272 0.951 . S
H2254 C2274 0.950 . S
H2255 C2275 0.950 . S
H2256 C2277 0.950 . S
H2257 C2280 0.950 . S
H2258 C2281 0.950 . S
H2259 C2283 0.950 . S
H2260 C2284 0.950 . S
H2261 C2285 0.951 . S
H2262 C2287 0.951 . S
H2263 C2289 0.950 . S
H2264 C2290 0.950 . S
H2265 C2292 0.950 . S
H2266 C2295 0.950 . S
H2267 C2296 0.950 . S
H2268 C2298 0.950 . S
H2269 C2299 0.950 . S
C2270 H2252 0.951 . S
C2270 C2271 1.366 . S
C2270 C2272 1.388 . S
C2271 C2270 1.366 . S
C2271 C2275 1.385 . S
C2272 H2253 0.951 . S
C2272 C2270 1.388 . S
C2272 C2273 1.366 . S
C2273 C2272 1.366 . S
C2273 C2274 1.414 . S
C2273 C2276 1.499 . S
C2274 H2254 0.950 . S
C2274 C2273 1.414 . S
C2274 C2275 1.374 . S
C2275 H2255 0.950 . S
C2275 C2271 1.385 . S
C2275 C2274 1.374 . S
C2276 C2273 1.499 . S
C2276 C2277 1.373 . S
C2276 C2278 1.389 . S
C2277 H2256 0.950 . S
C2277 C2276 1.373 . S
C2277 C2293 1.377 . S
C2278 C2276 1.389 . S
C2278 C2279 1.524 . S
C2278 C2292 1.377 . S
C2279 C2278 1.524 . S
C2279 C2280 1.397 . S
C2279 C2284 1.363 . S
C2280 H2257 0.950 . S
C2280 C2279 1.397 . S
C2280 C2281 1.334 . S
C2281 H2258 0.950 . S
C2281 C2280 1.334 . S
C2281 C2282 1.287 . S
C2282 C2281 1.287 . S
C2282 C2283 1.524 . S
C2282 H2301 0.913 . S
C2283 H2259 0.950 . S
C2283 C2282 1.524 . S
C2283 C2284 1.415 . S
C2284 H2260 0.950 . S
C2284 C2279 1.363 . S
C2284 C2283 1.415 . S
C2285 H2261 0.951 . S
C2285 C2286 1.366 . S
C2285 C2287 1.388 . S
C2286 C2285 1.366 . S
C2286 C2290 1.385 . S
C2287 H2262 0.951 . S
C2287 C2285 1.388 . S
C2287 C2288 1.366 . S
C2288 C2287 1.366 . S
C2288 C2289 1.414 . S
C2288 C2291 1.499 . S
C2289 H2263 0.950 . S
C2289 C2288 1.414 . S
C2289 C2290 1.374 . S
C2290 H2264 0.950 . S
C2290 C2286 1.385 . S
C2290 C2289 1.374 . S
C2291 C2288 1.499 . S
C2291 C2292 1.373 . S
C2291 C2293 1.389 . S
C2292 H2265 0.950 . S
C2292 C2278 1.377 . S
C2292 C2291 1.373 . S
C2293 C2277 1.377 . S
C2293 C2291 1.389 . S
C2293 C2294 1.524 . S
C2294 C2293 1.524 . S
C2294 C2295 1.397 . S
C2294 C2299 1.363 . S
C2295 H2266 0.950 . S
C2295 C2294 1.397 . S
C2295 C2296 1.334 . S
C2296 H2267 0.950 . S
C2296 C2295 1.334 . S
C2296 C2297 1.287 . S
C2297 C2296 1.287 . S
C2297 C2298 1.524 . S
C2297 H2300 0.999 . S
C2298 H2268 0.950 . S
C2298 C2297 1.524 . S
C2298 C2299 1.415 . S
C2299 H2269 0.950 . S
C2299 C2294 1.363 . S
C2299 C2298 1.415 . S
H2300 C2297 0.999 . S
H2301 C2282 0.913 . S
H2302 C2320 0.951 . S
H2303 C2322 0.951 . S
H2304 C2324 0.950 . S
H2305 C2325 0.950 . S
H2306 C2327 0.950 . S
H2307 C2330 0.950 . S
H2308 C2331 0.950 . S
H2309 C2333 0.950 . S
H2310 C2334 0.950 . S
H2311 C2335 0.951 . S
H2312 C2337 0.951 . S
H2313 C2339 0.950 . S
H2314 C2340 0.950 . S
H2315 C2342 0.950 . S
H2316 C2345 0.950 . S
H2317 C2346 0.950 . S
H2318 C2348 0.950 . S
H2319 C2349 0.950 . S
C2320 H2302 0.951 . S
C2320 C2321 1.366 . S
C2320 C2322 1.388 . S
C2321 C2320 1.366 . S
C2321 C2325 1.385 . S
C2322 H2303 0.951 . S
C2322 C2320 1.388 . S
C2322 C2323 1.366 . S
C2323 C2322 1.366 . S
C2323 C2324 1.414 . S
C2323 C2326 1.499 . S
C2324 H2304 0.950 . S
C2324 C2323 1.414 . S
C2324 C2325 1.374 . S
C2325 H2305 0.950 . S
C2325 C2321 1.385 . S
C2325 C2324 1.374 . S
C2326 C2323 1.499 . S
C2326 C2327 1.373 . S
C2326 C2328 1.389 . S
C2327 H2306 0.950 . S
C2327 C2326 1.373 . S
C2327 C2343 1.377 . S
C2328 C2326 1.389 . S
C2328 C2329 1.524 . S
C2328 C2342 1.377 . S
C2329 C2328 1.524 . S
C2329 C2330 1.397 . S
C2329 C2334 1.363 . S
C2330 H2307 0.950 . S
C2330 C2329 1.397 . S
C2330 C2331 1.334 . S
C2331 H2308 0.950 . S
C2331 C2330 1.334 . S
C2331 C2332 1.287 . S
C2332 C2331 1.287 . S
C2332 C2333 1.524 . S
C2332 H2351 0.913 . S
C2333 H2309 0.950 . S
C2333 C2332 1.524 . S
C2333 C2334 1.415 . S
C2334 H2310 0.950 . S
C2334 C2329 1.363 . S
C2334 C2333 1.415 . S
C2335 H2311 0.951 . S
C2335 C2336 1.366 . S
C2335 C2337 1.388 . S
C2336 C2335 1.366 . S
C2336 C2340 1.385 . S
C2337 H2312 0.951 . S
C2337 C2335 1.388 . S
C2337 C2338 1.366 . S
C2338 C2337 1.366 . S
C2338 C2339 1.414 . S
C2338 C2341 1.499 . S
C2339 H2313 0.950 . S
C2339 C2338 1.414 . S
C2339 C2340 1.374 . S
C2340 H2314 0.950 . S
C2340 C2336 1.385 . S
C2340 C2339 1.374 . S
C2341 C2338 1.499 . S
C2341 C2342 1.373 . S
C2341 C2343 1.389 . S
C2342 H2315 0.950 . S
C2342 C2328 1.377 . S
C2342 C2341 1.373 . S
C2343 C2327 1.377 . S
C2343 C2341 1.389 . S
C2343 C2344 1.524 . S
C2344 C2343 1.524 . S
C2344 C2345 1.397 . S
C2344 C2349 1.363 . S
C2345 H2316 0.950 . S
C2345 C2344 1.397 . S
C2345 C2346 1.334 . S
C2346 H2317 0.950 . S
C2346 C2345 1.334 . S
C2346 C2347 1.287 . S
C2347 C2346 1.287 . S
C2347 C2348 1.524 . S
C2347 H2350 0.999 . S
C2348 H2318 0.950 . S
C2348 C2347 1.524 . S
C2348 C2349 1.415 . S
C2349 H2319 0.950 . S
C2349 C2344 1.363 . S
C2349 C2348 1.415 . S
H2350 C2347 0.999 . S
H2351 C2332 0.913 . S
H2352 C2370 0.951 . S
H2353 C2372 0.951 . S
H2354 C2374 0.950 . S
H2355 C2375 0.950 . S
H2356 C2377 0.950 . S
H2357 C2380 0.950 . S
H2358 C2381 0.950 . S
H2359 C2383 0.950 . S
H2360 C2384 0.950 . S
H2361 C2385 0.951 . S
H2362 C2387 0.951 . S
H2363 C2389 0.950 . S
H2364 C2390 0.950 . S
H2365 C2392 0.950 . S
H2366 C2395 0.950 . S
H2367 C2396 0.950 . S
H2368 C2398 0.950 . S
H2369 C2399 0.950 . S
C2370 H2352 0.951 . S
C2370 C2371 1.366 . S
C2370 C2372 1.388 . S
C2371 C2370 1.366 . S
C2371 C2375 1.385 . S
C2372 H2353 0.951 . S
C2372 C2370 1.388 . S
C2372 C2373 1.366 . S
C2373 C2372 1.366 . S
C2373 C2374 1.414 . S
C2373 C2376 1.499 . S
C2374 H2354 0.950 . S
C2374 C2373 1.414 . S
C2374 C2375 1.374 . S
C2375 H2355 0.950 . S
C2375 C2371 1.385 . S
C2375 C2374 1.374 . S
C2376 C2373 1.499 . S
C2376 C2377 1.373 . S
C2376 C2378 1.389 . S
C2377 H2356 0.950 . S
C2377 C2376 1.373 . S
C2377 C2393 1.377 . S
C2378 C2376 1.389 . S
C2378 C2379 1.524 . S
C2378 C2392 1.377 . S
C2379 C2378 1.524 . S
C2379 C2380 1.397 . S
C2379 C2384 1.363 . S
C2380 H2357 0.950 . S
C2380 C2379 1.397 . S
C2380 C2381 1.334 . S
C2381 H2358 0.950 . S
C2381 C2380 1.334 . S
C2381 C2382 1.287 . S
C2382 C2381 1.287 . S
C2382 C2383 1.524 . S
C2382 H2401 0.913 . S
C2383 H2359 0.950 . S
C2383 C2382 1.524 . S
C2383 C2384 1.415 . S
C2384 H2360 0.950 . S
C2384 C2379 1.363 . S
C2384 C2383 1.415 . S
C2385 H2361 0.951 . S
C2385 C2386 1.366 . S
C2385 C2387 1.388 . S
C2386 C2385 1.366 . S
C2386 C2390 1.385 . S
C2387 H2362 0.951 . S
C2387 C2385 1.388 . S
C2387 C2388 1.366 . S
C2388 C2387 1.366 . S
C2388 C2389 1.414 . S
C2388 C2391 1.499 . S
C2389 H2363 0.950 . S
C2389 C2388 1.414 . S
C2389 C2390 1.374 . S
C2390 H2364 0.950 . S
C2390 C2386 1.385 . S
C2390 C2389 1.374 . S
C2391 C2388 1.499 . S
C2391 C2392 1.373 . S
C2391 C2393 1.389 . S
C2392 H2365 0.950 . S
C2392 C2378 1.377 . S
C2392 C2391 1.373 . S
C2393 C2377 1.377 . S
C2393 C2391 1.389 . S
C2393 C2394 1.524 . S
C2394 C2393 1.524 . S
C2394 C2395 1.397 . S
C2394 C2399 1.363 . S
C2395 H2366 0.950 . S
C2395 C2394 1.397 . S
C2395 C2396 1.334 . S
C2396 H2367 0.950 . S
C2396 C2395 1.334 . S
C2396 C2397 1.287 . S
C2397 C2396 1.287 . S
C2397 C2398 1.524 . S
C2397 H2400 0.999 . S
C2398 H2368 0.950 . S
C2398 C2397 1.524 . S
C2398 C2399 1.415 . S
C2399 H2369 0.950 . S
C2399 C2394 1.363 . S
C2399 C2398 1.415 . S
H2400 C2397 0.999 . S
H2401 C2382 0.913 . S
H2402 C2420 0.951 . S
H2403 C2422 0.951 . S
H2404 C2424 0.950 . S
H2405 C2425 0.950 . S
H2406 C2427 0.950 . S
H2407 C2430 0.950 . S
H2408 C2431 0.950 . S
H2409 C2433 0.950 . S
H2410 C2434 0.950 . S
H2411 C2435 0.951 . S
H2412 C2437 0.951 . S
H2413 C2439 0.950 . S
H2414 C2440 0.950 . S
H2415 C2442 0.950 . S
H2416 C2445 0.950 . S
H2417 C2446 0.950 . S
H2418 C2448 0.950 . S
H2419 C2449 0.950 . S
C2420 H2402 0.951 . S
C2420 C2421 1.366 . S
C2420 C2422 1.388 . S
C2421 C2420 1.366 . S
C2421 C2425 1.385 . S
C2422 H2403 0.951 . S
C2422 C2420 1.388 . S
C2422 C2423 1.366 . S
C2423 C2422 1.366 . S
C2423 C2424 1.414 . S
C2423 C2426 1.499 . S
C2424 H2404 0.950 . S
C2424 C2423 1.414 . S
C2424 C2425 1.374 . S
C2425 H2405 0.950 . S
C2425 C2421 1.385 . S
C2425 C2424 1.374 . S
C2426 C2423 1.499 . S
C2426 C2427 1.373 . S
C2426 C2428 1.389 . S
C2427 H2406 0.950 . S
C2427 C2426 1.373 . S
C2427 C2443 1.377 . S
C2428 C2426 1.389 . S
C2428 C2429 1.524 . S
C2428 C2442 1.377 . S
C2429 C2428 1.524 . S
C2429 C2430 1.397 . S
C2429 C2434 1.363 . S
C2430 H2407 0.950 . S
C2430 C2429 1.397 . S
C2430 C2431 1.334 . S
C2431 H2408 0.950 . S
C2431 C2430 1.334 . S
C2431 C2432 1.287 . S
C2432 C2431 1.287 . S
C2432 C2433 1.524 . S
C2432 H2451 0.913 . S
C2433 H2409 0.950 . S
C2433 C2432 1.524 . S
C2433 C2434 1.415 . S
C2434 H2410 0.950 . S
C2434 C2429 1.363 . S
C2434 C2433 1.415 . S
C2435 H2411 0.951 . S
C2435 C2436 1.366 . S
C2435 C2437 1.388 . S
C2436 C2435 1.366 . S
C2436 C2440 1.385 . S
C2437 H2412 0.951 . S
C2437 C2435 1.388 . S
C2437 C2438 1.366 . S
C2438 C2437 1.366 . S
C2438 C2439 1.414 . S
C2438 C2441 1.499 . S
C2439 H2413 0.950 . S
C2439 C2438 1.414 . S
C2439 C2440 1.374 . S
C2440 H2414 0.950 . S
C2440 C2436 1.385 . S
C2440 C2439 1.374 . S
C2441 C2438 1.499 . S
C2441 C2442 1.373 . S
C2441 C2443 1.389 . S
C2442 H2415 0.950 . S
C2442 C2428 1.377 . S
C2442 C2441 1.373 . S
C2443 C2427 1.377 . S
C2443 C2441 1.389 . S
C2443 C2444 1.524 . S
C2444 C2443 1.524 . S
C2444 C2445 1.397 . S
C2444 C2449 1.363 . S
C2445 H2416 0.950 . S
C2445 C2444 1.397 . S
C2445 C2446 1.334 . S
C2446 H2417 0.950 . S
C2446 C2445 1.334 . S
C2446 C2447 1.287 . S
C2447 C2446 1.287 . S
C2447 C2448 1.524 . S
C2447 H2450 0.999 . S
C2448 H2418 0.950 . S
C2448 C2447 1.524 . S
C2448 C2449 1.415 . S
C2449 H2419 0.950 . S
C2449 C2444 1.363 . S
C2449 C2448 1.415 . S
H2450 C2447 0.999 . S
H2451 C2432 0.913 . S
H2452 C2470 0.951 . S
H2453 C2472 0.951 . S
H2454 C2474 0.950 . S
H2455 C2475 0.950 . S
H2456 C2477 0.950 . S
H2457 C2480 0.950 . S
H2458 C2481 0.950 . S
H2459 C2483 0.950 . S
H2460 C2484 0.950 . S
H2461 C2485 0.951 1_545 S
H2462 C2487 0.951 . S
H2463 C2489 0.950 . S
H2464 C2490 0.950 . S
H2465 C2492 0.950 . S
H2466 C2495 0.950 . S
H2467 C2496 0.950 1_554 S
H2468 C2498 0.950 . S
H2469 C2499 0.950 . S
C2470 H2452 0.951 . S
C2470 C2471 1.366 . S
C2470 C2472 1.388 . S
C2471 C2470 1.366 . S
C2471 C2475 1.385 . S
C2472 H2453 0.951 . S
C2472 C2470 1.388 . S
C2472 C2473 1.366 . S
C2473 C2472 1.366 . S
C2473 C2474 1.414 . S
C2473 C2476 1.499 . S
C2474 H2454 0.950 . S
C2474 C2473 1.414 . S
C2474 C2475 1.374 . S
C2475 H2455 0.950 . S
C2475 C2471 1.385 . S
C2475 C2474 1.374 . S
C2476 C2473 1.499 . S
C2476 C2477 1.373 . S
C2476 C2478 1.389 . S
C2477 H2456 0.950 . S
C2477 C2476 1.373 . S
C2477 C2493 1.377 . S
C2478 C2476 1.389 . S
C2478 C2479 1.524 . S
C2478 C2492 1.377 . S
C2479 C2478 1.524 . S
C2479 C2480 1.397 . S
C2479 C2484 1.363 . S
C2480 H2457 0.950 . S
C2480 C2479 1.397 . S
C2480 C2481 1.334 . S
C2481 H2458 0.950 . S
C2481 C2480 1.334 . S
C2481 C2482 1.287 . S
C2482 C2481 1.287 . S
C2482 C2483 1.524 . S
C2482 H2501 0.913 . S
C2483 H2459 0.950 . S
C2483 C2482 1.524 . S
C2483 C2484 1.415 . S
C2484 H2460 0.950 . S
C2484 C2479 1.363 . S
C2484 C2483 1.415 . S
C2485 H2461 0.951 1_565 S
C2485 C2486 1.366 . S
C2485 C2487 1.388 . S
C2486 C2485 1.366 . S
C2486 C2490 1.385 . S
C2487 H2462 0.951 . S
C2487 C2485 1.388 . S
C2487 C2488 1.366 . S
C2488 C2487 1.366 . S
C2488 C2489 1.414 . S
C2488 C2491 1.499 . S
C2489 H2463 0.950 . S
C2489 C2488 1.414 . S
C2489 C2490 1.374 . S
C2490 H2464 0.950 . S
C2490 C2486 1.385 . S
C2490 C2489 1.374 . S
C2491 C2488 1.499 . S
C2491 C2492 1.373 . S
C2491 C2493 1.389 . S
C2492 H2465 0.950 . S
C2492 C2478 1.377 . S
C2492 C2491 1.373 . S
C2493 C2477 1.377 . S
C2493 C2491 1.389 . S
C2493 C2494 1.524 . S
C2494 C2493 1.524 . S
C2494 C2495 1.397 . S
C2494 C2499 1.363 . S
C2495 H2466 0.950 . S
C2495 C2494 1.397 . S
C2495 C2496 1.334 . S
C2496 H2467 0.950 1_556 S
C2496 C2495 1.334 . S
C2496 C2497 1.287 . S
C2497 C2496 1.287 . S
C2497 C2498 1.524 . S
C2497 H2500 0.980 1_556 S
C2498 H2468 0.950 . S
C2498 C2497 1.524 . S
C2498 C2499 1.415 . S
C2499 H2469 0.950 . S
C2499 C2494 1.363 . S
C2499 C2498 1.415 . S
H2500 C2497 0.980 1_554 S
H2501 C2482 0.913 . S
H2502 C2520 0.951 . S
H2503 C2522 0.951 . S
H2504 C2524 0.950 . S
H2505 C2525 0.950 . S
H2506 C2527 0.950 . S
H2507 C2530 0.950 . S
H2508 C2531 0.950 . S
H2509 C2533 0.950 . S
H2510 C2534 0.950 . S
H2511 C2535 0.951 . S
H2512 C2537 0.951 . S
H2513 C2539 0.950 . S
H2514 C2540 0.950 . S
H2515 C2542 0.950 . S
H2516 C2545 0.950 . S
H2517 C2546 0.950 . S
H2518 C2548 0.950 . S
H2519 C2549 0.950 . S
C2520 H2502 0.951 . S
C2520 C2521 1.366 . S
C2520 C2522 1.388 . S
C2521 C2520 1.366 . S
C2521 C2525 1.385 . S
C2522 H2503 0.951 . S
C2522 C2520 1.388 . S
C2522 C2523 1.366 . S
C2523 C2522 1.366 . S
C2523 C2524 1.414 . S
C2523 C2526 1.499 . S
C2524 H2504 0.950 . S
C2524 C2523 1.414 . S
C2524 C2525 1.374 . S
C2525 H2505 0.950 . S
C2525 C2521 1.385 . S
C2525 C2524 1.374 . S
C2526 C2523 1.499 . S
C2526 C2527 1.373 . S
C2526 C2528 1.389 . S
C2527 H2506 0.950 . S
C2527 C2526 1.373 . S
C2527 C2543 1.377 . S
C2528 C2526 1.389 . S
C2528 C2529 1.524 . S
C2528 C2542 1.377 . S
C2529 C2528 1.524 . S
C2529 C2530 1.397 . S
C2529 C2534 1.363 . S
C2530 H2507 0.950 . S
C2530 C2529 1.397 . S
C2530 C2531 1.334 . S
C2531 H2508 0.950 . S
C2531 C2530 1.334 . S
C2531 C2532 1.287 . S
C2532 C2531 1.287 . S
C2532 C2533 1.524 . S
C2532 H2551 0.913 . S
C2533 H2509 0.950 . S
C2533 C2532 1.524 . S
C2533 C2534 1.415 . S
C2534 H2510 0.950 . S
C2534 C2529 1.363 . S
C2534 C2533 1.415 . S
C2535 H2511 0.951 . S
C2535 C2536 1.366 . S
C2535 C2537 1.388 . S
C2536 C2535 1.366 . S
C2536 C2540 1.385 . S
C2537 H2512 0.951 . S
C2537 C2535 1.388 . S
C2537 C2538 1.366 . S
C2538 C2537 1.366 . S
C2538 C2539 1.414 . S
C2538 C2541 1.499 . S
C2539 H2513 0.950 . S
C2539 C2538 1.414 . S
C2539 C2540 1.374 . S
C2540 H2514 0.950 . S
C2540 C2536 1.385 . S
C2540 C2539 1.374 . S
C2541 C2538 1.499 . S
C2541 C2542 1.373 . S
C2541 C2543 1.389 . S
C2542 H2515 0.950 . S
C2542 C2528 1.377 . S
C2542 C2541 1.373 . S
C2543 C2527 1.377 . S
C2543 C2541 1.389 . S
C2543 C2544 1.524 . S
C2544 C2543 1.524 . S
C2544 C2545 1.397 . S
C2544 C2549 1.363 . S
C2545 H2516 0.950 . S
C2545 C2544 1.397 . S
C2545 C2546 1.334 . S
C2546 H2517 0.950 . S
C2546 C2545 1.334 . S
C2546 C2547 1.287 . S
C2547 C2546 1.287 . S
C2547 C2548 1.524 . S
C2547 H2550 0.999 . S
C2548 H2518 0.950 . S
C2548 C2547 1.524 . S
C2548 C2549 1.415 . S
C2549 H2519 0.950 . S
C2549 C2544 1.363 . S
C2549 C2548 1.415 . S
H2550 C2547 0.999 . S
H2551 C2532 0.913 . S
H2552 C2570 0.948 1_565 S
H2553 C2572 0.951 . S
H2554 C2574 0.950 . S
H2555 C2575 0.950 . S
H2556 C2577 0.950 . S
H2557 C2580 0.950 . S
H2558 C2581 0.950 . S
H2559 C2583 0.950 . S
H2560 C2584 0.950 . S
H2561 C2585 0.951 . S
H2562 C2587 0.951 . S
H2563 C2589 0.950 . S
H2564 C2590 0.950 . S
H2565 C2592 0.950 . S
H2566 C2595 0.950 . S
H2567 C2596 0.950 . S
H2568 C2598 0.950 . S
H2569 C2599 0.950 . S
C2570 H2552 0.948 1_545 S
C2570 C2571 1.366 . S
C2570 C2572 1.388 . S
C2571 C2570 1.366 . S
C2571 C2575 1.385 . S
C2572 H2553 0.951 . S
C2572 C2570 1.388 . S
C2572 C2573 1.366 . S
C2573 C2572 1.366 . S
C2573 C2574 1.414 . S
C2573 C2576 1.499 . S
C2574 H2554 0.950 . S
C2574 C2573 1.414 . S
C2574 C2575 1.374 . S
C2575 H2555 0.950 . S
C2575 C2571 1.385 . S
C2575 C2574 1.374 . S
C2576 C2573 1.499 . S
C2576 C2577 1.373 . S
C2576 C2578 1.389 . S
C2577 H2556 0.950 . S
C2577 C2576 1.373 . S
C2577 C2593 1.377 . S
C2578 C2576 1.389 . S
C2578 C2579 1.524 . S
C2578 C2592 1.377 . S
C2579 C2578 1.524 . S
C2579 C2580 1.397 . S
C2579 C2584 1.363 . S
C2580 H2557 0.950 . S
C2580 C2579 1.397 . S
C2580 C2581 1.334 . S
C2581 H2558 0.950 . S
C2581 C2580 1.334 . S
C2581 C2582 1.287 . S
C2582 C2581 1.287 . S
C2582 C2583 1.524 . S
C2582 H2601 0.913 . S
C2583 H2559 0.950 . S
C2583 C2582 1.524 . S
C2583 C2584 1.415 . S
C2584 H2560 0.950 . S
C2584 C2579 1.363 . S
C2584 C2583 1.415 . S
C2585 H2561 0.951 . S
C2585 C2586 1.366 . S
C2585 C2587 1.388 . S
C2586 C2585 1.366 . S
C2586 C2590 1.385 . S
C2587 H2562 0.951 . S
C2587 C2585 1.388 . S
C2587 C2588 1.366 . S
C2588 C2587 1.366 . S
C2588 C2589 1.414 . S
C2588 C2591 1.499 . S
C2589 H2563 0.950 . S
C2589 C2588 1.414 . S
C2589 C2590 1.374 . S
C2590 H2564 0.950 . S
C2590 C2586 1.385 . S
C2590 C2589 1.374 . S
C2591 C2588 1.499 . S
C2591 C2592 1.373 . S
C2591 C2593 1.389 . S
C2592 H2565 0.950 . S
C2592 C2578 1.377 . S
C2592 C2591 1.373 . S
C2593 C2577 1.377 . S
C2593 C2591 1.389 . S
C2593 C2594 1.524 . S
C2594 C2593 1.524 . S
C2594 C2595 1.397 1_545 S
C2594 C2599 1.363 . S
C2595 H2566 0.950 . S
C2595 C2594 1.397 1_565 S
C2595 C2596 1.334 . S
C2596 H2567 0.950 . S
C2596 C2595 1.334 . S
C2596 C2597 1.287 . S
C2597 C2596 1.287 . S
C2597 C2598 1.524 1_565 S
C2597 H2600 0.999 . S
C2598 H2568 0.950 . S
C2598 C2597 1.524 1_545 S
C2598 C2599 1.415 . S
C2599 H2569 0.950 . S
C2599 C2594 1.363 . S
C2599 C2598 1.415 . S
H2600 C2597 0.999 . S
H2601 C2582 0.913 . S
H2602 C2620 0.951 . S
H2603 C2622 0.951 . S
H2604 C2624 0.950 . S
H2605 C2625 0.950 . S
H2606 C2627 0.950 . S
H2607 C2630 0.950 . S
H2608 C2631 0.950 . S
H2609 C2633 0.950 . S
H2610 C2634 0.950 . S
H2611 C2635 0.951 . S
H2612 C2637 0.951 . S
H2613 C2639 0.950 . S
H2614 C2640 0.950 . S
H2615 C2642 0.950 . S
H2616 C2645 0.950 . S
H2617 C2646 0.950 . S
H2618 C2648 0.950 . S
H2619 C2649 0.950 . S
C2620 H2602 0.951 . S
C2620 C2621 1.366 . S
C2620 C2622 1.388 . S
C2621 C2620 1.366 . S
C2621 C2625 1.385 . S
C2622 H2603 0.951 . S
C2622 C2620 1.388 . S
C2622 C2623 1.366 . S
C2623 C2622 1.366 . S
C2623 C2624 1.414 . S
C2623 C2626 1.499 . S
C2624 H2604 0.950 . S
C2624 C2623 1.414 . S
C2624 C2625 1.374 . S
C2625 H2605 0.950 . S
C2625 C2621 1.385 . S
C2625 C2624 1.374 . S
C2626 C2623 1.499 . S
C2626 C2627 1.373 . S
C2626 C2628 1.389 . S
C2627 H2606 0.950 . S
C2627 C2626 1.373 . S
C2627 C2643 1.377 . S
C2628 C2626 1.389 . S
C2628 C2629 1.524 . S
C2628 C2642 1.377 . S
C2629 C2628 1.524 . S
C2629 C2630 1.397 . S
C2629 C2634 1.363 . S
C2630 H2607 0.950 . S
C2630 C2629 1.397 . S
C2630 C2631 1.334 . S
C2631 H2608 0.950 . S
C2631 C2630 1.334 . S
C2631 C2632 1.287 . S
C2632 C2631 1.287 . S
C2632 C2633 1.524 . S
C2632 H2651 0.913 . S
C2633 H2609 0.950 . S
C2633 C2632 1.524 . S
C2633 C2634 1.415 . S
C2634 H2610 0.950 . S
C2634 C2629 1.363 . S
C2634 C2633 1.415 . S
C2635 H2611 0.951 . S
C2635 C2636 1.366 . S
C2635 C2637 1.388 . S
C2636 C2635 1.366 . S
C2636 C2640 1.385 . S
C2637 H2612 0.951 . S
C2637 C2635 1.388 . S
C2637 C2638 1.366 . S
C2638 C2637 1.366 . S
C2638 C2639 1.414 . S
C2638 C2641 1.499 . S
C2639 H2613 0.950 . S
C2639 C2638 1.414 . S
C2639 C2640 1.374 . S
C2640 H2614 0.950 . S
C2640 C2636 1.385 . S
C2640 C2639 1.374 . S
C2641 C2638 1.499 . S
C2641 C2642 1.373 . S
C2641 C2643 1.389 . S
C2642 H2615 0.950 . S
C2642 C2628 1.377 . S
C2642 C2641 1.373 . S
C2643 C2627 1.377 . S
C2643 C2641 1.389 . S
C2643 C2644 1.524 . S
C2644 C2643 1.524 . S
C2644 C2645 1.397 . S
C2644 C2649 1.363 . S
C2645 H2616 0.950 . S
C2645 C2644 1.397 . S
C2645 C2646 1.334 . S
C2646 H2617 0.950 . S
C2646 C2645 1.334 . S
C2646 C2647 1.287 . S
C2647 C2646 1.287 . S
C2647 C2648 1.524 . S
C2647 H2650 0.999 . S
C2648 H2618 0.950 . S
C2648 C2647 1.524 . S
C2648 C2649 1.415 . S
C2649 H2619 0.950 . S
C2649 C2644 1.363 . S
C2649 C2648 1.415 . S
H2650 C2647 0.999 . S
H2651 C2632 0.913 . S
H2652 C2670 0.951 . S
H2653 C2672 0.951 . S
H2654 C2674 0.950 . S
H2655 C2675 0.950 . S
H2656 C2677 0.950 1_565 S
H2657 C2680 0.950 . S
H2658 C2681 0.950 . S
H2659 C2683 0.950 . S
H2660 C2684 0.950 . S
H2661 C2685 0.951 . S
H2662 C2687 0.951 . S
H2663 C2689 0.950 . S
H2664 C2690 0.950 . S
H2665 C2692 0.950 . S
H2666 C2695 0.950 . S
H2667 C2696 0.950 . S
H2668 C2698 0.950 . S
H2669 C2699 0.950 . S
C2670 H2652 0.951 . S
C2670 C2671 1.366 . S
C2670 C2672 1.388 . S
C2671 C2670 1.366 . S
C2671 C2675 1.385 . S
C2672 H2653 0.951 . S
C2672 C2670 1.388 . S
C2672 C2673 1.366 . S
C2673 C2672 1.366 . S
C2673 C2674 1.414 . S
C2673 C2676 1.499 . S
C2674 H2654 0.950 . S
C2674 C2673 1.414 . S
C2674 C2675 1.374 . S
C2675 H2655 0.950 . S
C2675 C2671 1.385 . S
C2675 C2674 1.374 . S
C2676 C2673 1.499 . S
C2676 C2677 1.373 . S
C2676 C2678 1.389 . S
C2677 H2656 0.950 1_545 S
C2677 C2676 1.373 . S
C2677 C2693 1.377 . S
C2678 C2676 1.389 . S
C2678 C2679 1.524 . S
C2678 C2692 1.377 . S
C2679 C2678 1.524 . S
C2679 C2680 1.397 . S
C2679 C2684 1.363 . S
C2680 H2657 0.950 . S
C2680 C2679 1.397 . S
C2680 C2681 1.334 . S
C2681 H2658 0.950 . S
C2681 C2680 1.334 . S
C2681 C2682 1.287 . S
C2682 C2681 1.287 . S
C2682 C2683 1.524 . S
C2682 H2701 0.913 . S
C2683 H2659 0.950 . S
C2683 C2682 1.524 . S
C2683 C2684 1.415 . S
C2684 H2660 0.950 . S
C2684 C2679 1.363 . S
C2684 C2683 1.415 . S
C2685 H2661 0.951 . S
C2685 C2686 1.366 . S
C2685 C2687 1.388 . S
C2686 C2685 1.366 . S
C2686 C2690 1.385 . S
C2687 H2662 0.951 . S
C2687 C2685 1.388 . S
C2687 C2688 1.366 . S
C2688 C2687 1.366 . S
C2688 C2689 1.414 . S
C2688 C2691 1.499 . S
C2689 H2663 0.950 . S
C2689 C2688 1.414 . S
C2689 C2690 1.374 . S
C2690 H2664 0.950 . S
C2690 C2686 1.385 . S
C2690 C2689 1.374 . S
C2691 C2688 1.499 . S
C2691 C2692 1.373 . S
C2691 C2693 1.389 . S
C2692 H2665 0.950 . S
C2692 C2678 1.377 . S
C2692 C2691 1.373 . S
C2693 C2677 1.377 . S
C2693 C2691 1.389 . S
C2693 C2694 1.524 1_545 S
C2694 C2693 1.524 1_565 S
C2694 C2695 1.397 . S
C2694 C2699 1.363 . S
C2695 H2666 0.950 . S
C2695 C2694 1.397 . S
C2695 C2696 1.334 . S
C2696 H2667 0.950 . S
C2696 C2695 1.334 . S
C2696 C2697 1.287 . S
C2697 C2696 1.287 . S
C2697 C2698 1.524 . S
C2697 H2700 0.999 . S
C2698 H2668 0.950 . S
C2698 C2697 1.524 . S
C2698 C2699 1.415 . S
C2699 H2669 0.950 . S
C2699 C2694 1.363 . S
C2699 C2698 1.415 . S
H2700 C2697 0.999 . S
H2701 C2682 0.913 . S
H2702 C2720 0.951 . S
H2703 C2722 0.951 . S
H2704 C2724 0.950 . S
H2705 C2725 0.950 . S
H2706 C2727 0.950 . S
H2707 C2730 0.950 . S
H2708 C2731 0.950 . S
H2709 C2733 0.950 . S
H2710 C2734 0.950 . S
H2711 C2735 0.951 . S
H2712 C2737 0.951 . S
H2713 C2739 0.950 . S
H2714 C2740 0.950 . S
H2715 C2742 0.950 . S
H2716 C2745 0.950 . S
H2717 C2746 0.950 . S
H2718 C2748 0.950 . S
H2719 C2749 0.950 . S
C2720 H2702 0.951 . S
C2720 C2721 1.366 . S
C2720 C2722 1.388 . S
C2721 C2720 1.366 . S
C2721 C2725 1.385 . S
C2722 H2703 0.951 . S
C2722 C2720 1.388 . S
C2722 C2723 1.366 . S
C2723 C2722 1.366 . S
C2723 C2724 1.414 . S
C2723 C2726 1.499 . S
C2724 H2704 0.950 . S
C2724 C2723 1.414 . S
C2724 C2725 1.374 . S
C2725 H2705 0.950 . S
C2725 C2721 1.385 . S
C2725 C2724 1.374 . S
C2726 C2723 1.499 . S
C2726 C2727 1.373 . S
C2726 C2728 1.389 . S
C2727 H2706 0.950 . S
C2727 C2726 1.373 . S
C2727 C2743 1.377 . S
C2728 C2726 1.389 . S
C2728 C2729 1.524 . S
C2728 C2742 1.377 . S
C2729 C2728 1.524 . S
C2729 C2730 1.397 . S
C2729 C2734 1.363 . S
C2730 H2707 0.950 . S
C2730 C2729 1.397 . S
C2730 C2731 1.334 . S
C2731 H2708 0.950 . S
C2731 C2730 1.334 . S
C2731 C2732 1.287 . S
C2732 C2731 1.287 . S
C2732 C2733 1.524 . S
C2732 H2751 0.913 . S
C2733 H2709 0.950 . S
C2733 C2732 1.524 . S
C2733 C2734 1.415 . S
C2734 H2710 0.950 . S
C2734 C2729 1.363 . S
C2734 C2733 1.415 . S
C2735 H2711 0.951 . S
C2735 C2736 1.366 . S
C2735 C2737 1.388 . S
C2736 C2735 1.366 . S
C2736 C2740 1.385 . S
C2737 H2712 0.951 . S
C2737 C2735 1.388 . S
C2737 C2738 1.366 . S
C2738 C2737 1.366 . S
C2738 C2739 1.414 . S
C2738 C2741 1.499 . S
C2739 H2713 0.950 . S
C2739 C2738 1.414 . S
C2739 C2740 1.374 . S
C2740 H2714 0.950 . S
C2740 C2736 1.385 . S
C2740 C2739 1.374 . S
C2741 C2738 1.499 . S
C2741 C2742 1.373 . S
C2741 C2743 1.389 . S
C2742 H2715 0.950 . S
C2742 C2728 1.377 . S
C2742 C2741 1.373 . S
C2743 C2727 1.377 . S
C2743 C2741 1.389 . S
C2743 C2744 1.524 . S
C2744 C2743 1.524 . S
C2744 C2745 1.397 . S
C2744 C2749 1.363 . S
C2745 H2716 0.950 . S
C2745 C2744 1.397 . S
C2745 C2746 1.334 . S
C2746 H2717 0.950 . S
C2746 C2745 1.334 . S
C2746 C2747 1.287 . S
C2747 C2746 1.287 . S
C2747 C2748 1.524 . S
C2747 H2750 0.999 . S
C2748 H2718 0.950 . S
C2748 C2747 1.524 . S
C2748 C2749 1.415 . S
C2749 H2719 0.950 . S
C2749 C2744 1.363 . S
C2749 C2748 1.415 . S
H2750 C2747 0.999 . S
H2751 C2732 0.913 . S
H2752 C2770 0.951 . S
H2753 C2772 0.951 . S
H2754 C2774 0.950 . S
H2755 C2775 0.950 . S
H2756 C2777 0.950 . S
H2757 C2780 0.950 . S
H2758 C2781 0.950 . S
H2759 C2783 0.950 . S
H2760 C2784 0.950 . S
H2761 C2785 0.951 1_565 S
H2762 C2787 0.951 1_565 S
H2763 C2789 0.950 . S
H2764 C2790 0.950 . S
H2765 C2792 0.950 . S
H2766 C2795 0.950 . S
H2767 C2796 0.950 . S
H2768 C2798 0.945 1_565 S
H2769 C2799 0.950 1_565 S
C2770 H2752 0.951 . S
C2770 C2771 1.366 1_545 S
C2770 C2772 1.388 . S
C2771 C2770 1.366 1_565 S
C2771 C2775 1.385 . S
C2772 H2753 0.951 . S
C2772 C2770 1.388 . S
C2772 C2773 1.366 . S
C2773 C2772 1.366 . S
C2773 C2774 1.414 1_545 S
C2773 C2776 1.499 . S
C2774 H2754 0.950 . S
C2774 C2773 1.414 1_565 S
C2774 C2775 1.374 . S
C2775 H2755 0.950 . S
C2775 C2771 1.385 . S
C2775 C2774 1.374 . S
C2776 C2773 1.499 . S
C2776 C2777 1.373 . S
C2776 C2778 1.389 . S
C2777 H2756 0.950 . S
C2777 C2776 1.373 . S
C2777 C2793 1.377 . S
C2778 C2776 1.389 . S
C2778 C2779 1.523 1_545 S
C2778 C2792 1.377 . S
C2779 C2778 1.523 1_565 S
C2779 C2780 1.405 . S
C2779 C2784 1.357 1_565 S
C2780 H2757 0.950 . S
C2780 C2779 1.405 . S
C2780 C2781 1.334 . S
C2781 H2758 0.950 . S
C2781 C2780 1.334 . S
C2781 C2782 1.287 . S
C2782 C2781 1.287 . S
C2782 C2783 1.524 1_565 S
C2782 H2801 0.913 . S
C2783 H2759 0.950 . S
C2783 C2782 1.524 1_545 S
C2783 C2784 1.415 . S
C2784 H2760 0.950 . S
C2784 C2779 1.357 1_545 S
C2784 C2783 1.415 . S
C2785 H2761 0.951 1_545 S
C2785 C2786 1.366 . S
C2785 C2787 1.388 . S
C2786 C2785 1.366 . S
C2786 C2790 1.385 . S
C2787 H2762 0.951 1_545 S
C2787 C2785 1.388 . S
C2787 C2788 1.366 . S
C2788 C2787 1.366 . S
C2788 C2789 1.414 . S
C2788 C2791 1.499 . S
C2789 H2763 0.950 . S
C2789 C2788 1.414 . S
C2789 C2790 1.374 . S
C2790 H2764 0.950 . S
C2790 C2786 1.385 . S
C2790 C2789 1.374 . S
C2791 C2788 1.499 . S
C2791 C2792 1.373 . S
C2791 C2793 1.389 . S
C2792 H2765 0.950 . S
C2792 C2778 1.377 . S
C2792 C2791 1.373 . S
C2793 C2777 1.377 . S
C2793 C2791 1.389 . S
C2793 C2794 1.524 . S
C2794 C2793 1.524 . S
C2794 C2795 1.397 . S
C2794 C2799 1.363 . S
C2795 H2766 0.950 . S
C2795 C2794 1.397 . S
C2795 C2796 1.334 . S
C2796 H2767 0.950 . S
C2796 C2795 1.334 . S
C2796 C2797 1.287 . S
C2797 C2796 1.287 . S
C2797 C2798 1.524 . S
C2797 H2800 0.999 . S
C2798 H2768 0.945 1_545 S
C2798 C2797 1.524 . S
C2798 C2799 1.415 . S
C2799 H2769 0.950 1_545 S
C2799 C2794 1.363 . S
C2799 C2798 1.415 . S
H2800 C2797 0.999 . S
H2801 C2782 0.913 . S
H2802 C2820 0.951 . S
H2803 C2822 0.951 . S
H2804 C2824 0.950 . S
H2805 C2825 0.950 . S
H2806 C2827 0.950 . S
H2807 C2830 0.950 . S
H2808 C2831 0.950 . S
H2809 C2833 0.950 . S
H2810 C2834 0.950 . S
H2811 C2835 0.951 . S
H2812 C2837 0.951 . S
H2813 C2839 0.950 . S
H2814 C2840 0.950 . S
H2815 C2842 0.950 . S
H2816 C2845 0.950 . S
H2817 C2846 0.950 . S
H2818 C2848 0.950 . S
H2819 C2849 0.950 . S
C2820 H2802 0.951 . S
C2820 C2821 1.366 . S
C2820 C2822 1.388 . S
C2821 C2820 1.366 . S
C2821 C2825 1.385 . S
C2822 H2803 0.951 . S
C2822 C2820 1.388 . S
C2822 C2823 1.366 . S
C2823 C2822 1.366 . S
C2823 C2824 1.414 . S
C2823 C2826 1.499 . S
C2824 H2804 0.950 . S
C2824 C2823 1.414 . S
C2824 C2825 1.374 . S
C2825 H2805 0.950 . S
C2825 C2821 1.385 . S
C2825 C2824 1.374 . S
C2826 C2823 1.499 . S
C2826 C2827 1.373 . S
C2826 C2828 1.389 . S
C2827 H2806 0.950 . S
C2827 C2826 1.373 . S
C2827 C2843 1.377 . S
C2828 C2826 1.389 . S
C2828 C2829 1.524 . S
C2828 C2842 1.377 . S
C2829 C2828 1.524 . S
C2829 C2830 1.397 . S
C2829 C2834 1.363 . S
C2830 H2807 0.950 . S
C2830 C2829 1.397 . S
C2830 C2831 1.334 . S
C2831 H2808 0.950 . S
C2831 C2830 1.334 . S
C2831 C2832 1.287 . S
C2832 C2831 1.287 . S
C2832 C2833 1.524 . S
C2832 H2851 0.913 . S
C2833 H2809 0.950 . S
C2833 C2832 1.524 . S
C2833 C2834 1.415 . S
C2834 H2810 0.950 . S
C2834 C2829 1.363 . S
C2834 C2833 1.415 . S
C2835 H2811 0.951 . S
C2835 C2836 1.366 . S
C2835 C2837 1.388 . S
C2836 C2835 1.366 . S
C2836 C2840 1.385 . S
C2837 H2812 0.951 . S
C2837 C2835 1.388 . S
C2837 C2838 1.366 . S
C2838 C2837 1.366 . S
C2838 C2839 1.414 . S
C2838 C2841 1.499 . S
C2839 H2813 0.950 . S
C2839 C2838 1.414 . S
C2839 C2840 1.374 . S
C2840 H2814 0.950 . S
C2840 C2836 1.385 . S
C2840 C2839 1.374 . S
C2841 C2838 1.499 . S
C2841 C2842 1.373 . S
C2841 C2843 1.389 . S
C2842 H2815 0.950 . S
C2842 C2828 1.377 . S
C2842 C2841 1.373 . S
C2843 C2827 1.377 . S
C2843 C2841 1.389 . S
C2843 C2844 1.524 . S
C2844 C2843 1.524 . S
C2844 C2845 1.397 . S
C2844 C2849 1.363 . S
C2845 H2816 0.950 . S
C2845 C2844 1.397 . S
C2845 C2846 1.334 . S
C2846 H2817 0.950 . S
C2846 C2845 1.334 . S
C2846 C2847 1.287 . S
C2847 C2846 1.287 . S
C2847 C2848 1.524 . S
C2847 H2850 0.999 . S
C2848 H2818 0.950 . S
C2848 C2847 1.524 . S
C2848 C2849 1.415 . S
C2849 H2819 0.950 . S
C2849 C2844 1.363 . S
C2849 C2848 1.415 . S
H2850 C2847 0.999 . S
H2851 C2832 0.913 . S
H2852 C2870 0.951 . S
H2853 C2872 0.951 . S
H2854 C2874 0.952 . S
H2855 C2875 0.950 . S
H2856 C2877 0.950 . S
H2857 C2880 0.950 . S
H2858 C2881 0.950 . S
H2859 C2883 0.950 . S
H2860 C2884 0.950 . S
H2861 C2885 0.951 . S
H2862 C2887 0.951 . S
H2863 C2889 0.950 . S
H2864 C2890 0.950 . S
H2865 C2892 0.950 . S
H2866 C2895 0.950 . S
H2867 C2896 0.950 . S
H2868 C2898 0.950 . S
H2869 C2899 0.950 . S
C2870 H2852 0.951 . S
C2870 C2871 1.366 . S
C2870 C2872 1.388 . S
C2871 C2870 1.366 . S
C2871 C2875 1.385 . S
C2872 H2853 0.951 . S
C2872 C2870 1.388 . S
C2872 C2873 1.366 . S
C2873 C2872 1.366 . S
C2873 C2874 1.414 . S
C2873 C2876 1.499 . S
C2874 H2854 0.952 . S
C2874 C2873 1.414 . S
C2874 C2875 1.374 . S
C2875 H2855 0.950 . S
C2875 C2871 1.385 . S
C2875 C2874 1.374 . S
C2876 C2873 1.499 . S
C2876 C2877 1.373 1_545 S
C2876 C2878 1.389 . S
C2877 H2856 0.950 . S
C2877 C2876 1.373 1_565 S
C2877 C2893 1.377 . S
C2878 C2876 1.389 . S
C2878 C2879 1.524 . S
C2878 C2892 1.377 . S
C2879 C2878 1.524 . S
C2879 C2880 1.397 . S
C2879 C2884 1.363 . S
C2880 H2857 0.950 . S
C2880 C2879 1.397 . S
C2880 C2881 1.334 . S
C2881 H2858 0.950 . S
C2881 C2880 1.334 . S
C2881 C2882 1.287 . S
C2882 C2881 1.287 . S
C2882 C2883 1.524 . S
C2882 H2901 0.913 . S
C2883 H2859 0.950 . S
C2883 C2882 1.524 . S
C2883 C2884 1.415 . S
C2884 H2860 0.950 . S
C2884 C2879 1.363 . S
C2884 C2883 1.415 . S
C2885 H2861 0.951 . S
C2885 C2886 1.365 1_565 S
C2885 C2887 1.389 . S
C2886 C2885 1.365 1_545 S
C2886 C2890 1.385 . S
C2887 H2862 0.951 . S
C2887 C2885 1.389 . S
C2887 C2888 1.365 1_565 S
C2888 C2887 1.365 1_545 S
C2888 C2889 1.414 . S
C2888 C2891 1.499 . S
C2889 H2863 0.950 . S
C2889 C2888 1.414 . S
C2889 C2890 1.374 . S
C2890 H2864 0.950 . S
C2890 C2886 1.385 . S
C2890 C2889 1.374 . S
C2891 C2888 1.499 . S
C2891 C2892 1.373 . S
C2891 C2893 1.389 1_545 S
C2892 H2865 0.950 . S
C2892 C2878 1.377 . S
C2892 C2891 1.373 . S
C2893 C2877 1.377 . S
C2893 C2891 1.389 1_565 S
C2893 C2894 1.524 . S
C2894 C2893 1.524 . S
C2894 C2895 1.397 . S
C2894 C2899 1.363 . S
C2895 H2866 0.950 . S
C2895 C2894 1.397 . S
C2895 C2896 1.334 . S
C2896 H2867 0.950 . S
C2896 C2895 1.334 . S
C2896 C2897 1.287 . S
C2897 C2896 1.287 . S
C2897 C2898 1.524 . S
C2897 H2900 0.999 . S
C2898 H2868 0.950 . S
C2898 C2897 1.524 . S
C2898 C2899 1.415 . S
C2899 H2869 0.950 . S
C2899 C2894 1.363 . S
C2899 C2898 1.415 . S
H2900 C2897 0.999 . S
H2901 C2882 0.913 . S
H2902 C2920 0.951 . S
H2903 C2922 0.951 . S
H2904 C2924 0.950 . S
H2905 C2925 0.950 . S
H2906 C2927 0.950 . S
H2907 C2930 0.950 . S
H2908 C2931 0.950 . S
H2909 C2933 0.950 . S
H2910 C2934 0.950 . S
H2911 C2935 0.951 . S
H2912 C2937 0.951 . S
H2913 C2939 0.950 . S
H2914 C2940 0.950 . S
H2915 C2942 0.950 . S
H2916 C2945 0.950 . S
H2917 C2946 0.950 . S
H2918 C2948 0.950 . S
H2919 C2949 0.950 . S
C2920 H2902 0.951 . S
C2920 C2921 1.366 . S
C2920 C2922 1.388 . S
C2921 C2920 1.366 . S
C2921 C2925 1.385 . S
C2922 H2903 0.951 . S
C2922 C2920 1.388 . S
C2922 C2923 1.366 . S
C2923 C2922 1.366 . S
C2923 C2924 1.414 . S
C2923 C2926 1.499 . S
C2924 H2904 0.950 . S
C2924 C2923 1.414 . S
C2924 C2925 1.374 . S
C2925 H2905 0.950 . S
C2925 C2921 1.385 . S
C2925 C2924 1.374 . S
C2926 C2923 1.499 . S
C2926 C2927 1.373 . S
C2926 C2928 1.389 . S
C2927 H2906 0.950 . S
C2927 C2926 1.373 . S
C2927 C2943 1.377 . S
C2928 C2926 1.389 . S
C2928 C2929 1.524 . S
C2928 C2942 1.377 . S
C2929 C2928 1.524 . S
C2929 C2930 1.397 . S
C2929 C2934 1.363 . S
C2930 H2907 0.950 . S
C2930 C2929 1.397 . S
C2930 C2931 1.334 . S
C2931 H2908 0.950 . S
C2931 C2930 1.334 . S
C2931 C2932 1.287 . S
C2932 C2931 1.287 . S
C2932 C2933 1.524 . S
C2932 H2951 0.913 . S
C2933 H2909 0.950 . S
C2933 C2932 1.524 . S
C2933 C2934 1.415 . S
C2934 H2910 0.950 . S
C2934 C2929 1.363 . S
C2934 C2933 1.415 . S
C2935 H2911 0.951 . S
C2935 C2936 1.366 . S
C2935 C2937 1.388 . S
C2936 C2935 1.366 . S
C2936 C2940 1.385 . S
C2937 H2912 0.951 . S
C2937 C2935 1.388 . S
C2937 C2938 1.366 . S
C2938 C2937 1.366 . S
C2938 C2939 1.414 . S
C2938 C2941 1.499 . S
C2939 H2913 0.950 . S
C2939 C2938 1.414 . S
C2939 C2940 1.374 . S
C2940 H2914 0.950 . S
C2940 C2936 1.385 . S
C2940 C2939 1.374 . S
C2941 C2938 1.499 . S
C2941 C2942 1.373 . S
C2941 C2943 1.389 . S
C2942 H2915 0.950 . S
C2942 C2928 1.377 . S
C2942 C2941 1.373 . S
C2943 C2927 1.377 . S
C2943 C2941 1.389 . S
C2943 C2944 1.524 . S
C2944 C2943 1.524 . S
C2944 C2945 1.397 . S
C2944 C2949 1.363 . S
C2945 H2916 0.950 . S
C2945 C2944 1.397 . S
C2945 C2946 1.334 . S
C2946 H2917 0.950 . S
C2946 C2945 1.334 . S
C2946 C2947 1.287 . S
C2947 C2946 1.287 . S
C2947 C2948 1.524 . S
C2947 H2950 0.999 . S
C2948 H2918 0.950 . S
C2948 C2947 1.524 . S
C2948 C2949 1.415 . S
C2949 H2919 0.950 . S
C2949 C2944 1.363 . S
C2949 C2948 1.415 . S
H2950 C2947 0.999 . S
H2951 C2932 0.913 . S
H2952 C2970 0.951 . S
H2953 C2972 0.951 . S
H2954 C2974 0.950 . S
H2955 C2975 0.950 . S
H2956 C2977 0.950 . S
H2957 C2980 0.950 . S
H2958 C2981 0.950 . S
H2959 C2983 0.950 . S
H2960 C2984 0.950 . S
H2961 C2985 0.951 . S
H2962 C2987 0.951 . S
H2963 C2989 0.950 . S
H2964 C2990 0.950 . S
H2965 C2992 0.950 . S
H2966 C2995 0.950 . S
H2967 C2996 0.950 . S
H2968 C2998 0.950 . S
H2969 C2999 0.950 . S
C2970 H2952 0.951 . S
C2970 C2971 1.366 . S
C2970 C2972 1.388 . S
C2971 C2970 1.366 . S
C2971 C2975 1.385 . S
C2972 H2953 0.951 . S
C2972 C2970 1.388 . S
C2972 C2973 1.366 . S
C2973 C2972 1.366 . S
C2973 C2974 1.414 . S
C2973 C2976 1.499 . S
C2974 H2954 0.950 . S
C2974 C2973 1.414 . S
C2974 C2975 1.374 . S
C2975 H2955 0.950 . S
C2975 C2971 1.385 . S
C2975 C2974 1.374 . S
C2976 C2973 1.499 . S
C2976 C2977 1.373 1_554 S
C2976 C2978 1.389 . S
C2977 H2956 0.950 . S
C2977 C2976 1.373 1_556 S
C2977 C2993 1.377 . S
C2978 C2976 1.389 . S
C2978 C2979 1.524 . S
C2978 C2992 1.377 . S
C2979 C2978 1.524 . S
C2979 C2980 1.397 . S
C2979 C2984 1.363 . S
C2980 H2957 0.950 . S
C2980 C2979 1.397 . S
C2980 C2981 1.334 . S
C2981 H2958 0.950 . S
C2981 C2980 1.334 . S
C2981 C2982 1.287 . S
C2982 C2981 1.287 . S
C2982 C2983 1.524 . S
C2982 H3001 0.913 . S
C2983 H2959 0.950 . S
C2983 C2982 1.524 . S
C2983 C2984 1.415 . S
C2984 H2960 0.950 . S
C2984 C2979 1.363 . S
C2984 C2983 1.415 . S
C2985 H2961 0.951 . S
C2985 C2986 1.366 . S
C2985 C2987 1.388 . S
C2986 C2985 1.366 . S
C2986 C2990 1.385 1_556 S
C2987 H2962 0.951 . S
C2987 C2985 1.388 . S
C2987 C2988 1.358 1_556 S
C2988 C2987 1.358 1_554 S
C2988 C2989 1.419 . S
C2988 C2991 1.502 . S
C2989 H2963 0.950 . S
C2989 C2988 1.419 . S
C2989 C2990 1.374 . S
C2990 H2964 0.950 . S
C2990 C2986 1.385 1_554 S
C2990 C2989 1.374 . S
C2991 C2988 1.502 . S
C2991 C2992 1.373 . S
C2991 C2993 1.389 1_554 S
C2992 H2965 0.950 . S
C2992 C2978 1.377 . S
C2992 C2991 1.373 . S
C2993 C2977 1.377 . S
C2993 C2991 1.389 1_556 S
C2993 C2994 1.524 . S
C2994 C2993 1.524 . S
C2994 C2995 1.397 . S
C2994 C2999 1.363 . S
C2995 H2966 0.950 . S
C2995 C2994 1.397 . S
C2995 C2996 1.334 . S
C2996 H2967 0.950 . S
C2996 C2995 1.334 . S
C2996 C2997 1.287 . S
C2997 C2996 1.287 . S
C2997 C2998 1.524 . S
C2997 H3000 0.999 . S
C2998 H2968 0.950 . S
C2998 C2997 1.524 . S
C2998 C2999 1.415 . S
C2999 H2969 0.950 . S
C2999 C2994 1.363 . S
C2999 C2998 1.415 . S
H3000 C2997 0.999 . S
H3001 C2982 0.913 . S
H3002 C3020 0.951 . S
H3003 C3022 0.951 . S
H3004 C3024 0.950 . S
H3005 C3025 0.950 . S
H3006 C3027 0.950 1_556 S
H3007 C3030 0.950 . S
H3008 C3031 0.950 . S
H3009 C3033 0.950 . S
H3010 C3034 0.950 . S
H3011 C3035 0.951 . S
H3012 C3037 0.951 . S
H3013 C3039 0.950 . S
H3014 C3040 0.950 . S
H3015 C3042 0.950 . S
H3016 C3045 0.950 . S
H3017 C3046 0.950 . S
H3018 C3048 0.950 . S
H3019 C3049 0.950 . S
C3020 H3002 0.951 . S
C3020 C3021 1.366 . S
C3020 C3022 1.388 . S
C3021 C3020 1.366 . S
C3021 C3025 1.385 . S
C3022 H3003 0.951 . S
C3022 C3020 1.388 . S
C3022 C3023 1.366 . S
C3023 C3022 1.366 . S
C3023 C3024 1.414 . S
C3023 C3026 1.499 . S
C3024 H3004 0.950 . S
C3024 C3023 1.414 . S
C3024 C3025 1.374 . S
C3025 H3005 0.950 . S
C3025 C3021 1.385 . S
C3025 C3024 1.374 . S
C3026 C3023 1.499 . S
C3026 C3027 1.373 . S
C3026 C3028 1.389 . S
C3027 H3006 0.950 1_554 S
C3027 C3026 1.373 . S
C3027 C3043 1.377 . S
C3028 C3026 1.389 . S
C3028 C3029 1.524 . S
C3028 C3042 1.377 . S
C3029 C3028 1.524 . S
C3029 C3030 1.397 . S
C3029 C3034 1.363 . S
C3030 H3007 0.950 . S
C3030 C3029 1.397 . S
C3030 C3031 1.334 . S
C3031 H3008 0.950 . S
C3031 C3030 1.334 . S
C3031 C3032 1.287 . S
C3032 C3031 1.287 . S
C3032 C3033 1.524 . S
C3032 H3051 0.913 . S
C3033 H3009 0.950 . S
C3033 C3032 1.524 . S
C3033 C3034 1.415 . S
C3034 H3010 0.950 . S
C3034 C3029 1.363 . S
C3034 C3033 1.415 . S
C3035 H3011 0.951 . S
C3035 C3036 1.366 . S
C3035 C3037 1.388 . S
C3036 C3035 1.366 . S
C3036 C3040 1.385 . S
C3037 H3012 0.951 . S
C3037 C3035 1.388 . S
C3037 C3038 1.366 . S
C3038 C3037 1.366 . S
C3038 C3039 1.414 . S
C3038 C3041 1.499 . S
C3039 H3013 0.950 . S
C3039 C3038 1.414 . S
C3039 C3040 1.374 . S
C3040 H3014 0.950 . S
C3040 C3036 1.385 . S
C3040 C3039 1.374 . S
C3041 C3038 1.499 . S
C3041 C3042 1.373 . S
C3041 C3043 1.389 . S
C3042 H3015 0.950 . S
C3042 C3028 1.377 . S
C3042 C3041 1.373 . S
C3043 C3027 1.377 . S
C3043 C3041 1.389 . S
C3043 C3044 1.524 1_554 S
C3044 C3043 1.524 1_556 S
C3044 C3045 1.397 . S
C3044 C3049 1.363 . S
C3045 H3016 0.950 . S
C3045 C3044 1.397 . S
C3045 C3046 1.334 . S
C3046 H3017 0.950 . S
C3046 C3045 1.334 . S
C3046 C3047 1.287 . S
C3047 C3046 1.287 . S
C3047 C3048 1.524 . S
C3047 H3050 0.999 . S
C3048 H3018 0.950 . S
C3048 C3047 1.524 . S
C3048 C3049 1.415 . S
C3049 H3019 0.950 . S
C3049 C3044 1.363 . S
C3049 C3048 1.415 . S
H3050 C3047 0.999 . S
H3051 C3032 0.913 . S
H3052 C3070 0.951 . S
H3053 C3072 0.951 . S
H3054 C3074 0.950 . S
H3055 C3075 0.950 . S
H3056 C3077 0.950 . S
H3057 C3080 0.950 . S
H3058 C3081 0.950 . S
H3059 C3083 0.950 . S
H3060 C3084 0.950 . S
H3061 C3085 0.951 . S
H3062 C3087 0.951 . S
H3063 C3089 0.950 . S
H3064 C3090 0.950 . S
H3065 C3092 0.950 . S
H3066 C3095 0.950 . S
H3067 C3096 0.950 . S
H3068 C3098 0.950 . S
H3069 C3099 0.950 . S
C3070 H3052 0.951 . S
C3070 C3071 1.366 . S
C3070 C3072 1.388 . S
C3071 C3070 1.366 . S
C3071 C3075 1.385 . S
C3072 H3053 0.951 . S
C3072 C3070 1.388 . S
C3072 C3073 1.366 . S
C3073 C3072 1.366 . S
C3073 C3074 1.414 . S
C3073 C3076 1.499 . S
C3074 H3054 0.950 . S
C3074 C3073 1.414 . S
C3074 C3075 1.374 . S
C3075 H3055 0.950 . S
C3075 C3071 1.385 . S
C3075 C3074 1.374 . S
C3076 C3073 1.499 . S
C3076 C3077 1.373 . S
C3076 C3078 1.389 . S
C3077 H3056 0.950 . S
C3077 C3076 1.373 . S
C3077 C3093 1.377 . S
C3078 C3076 1.389 . S
C3078 C3079 1.524 . S
C3078 C3092 1.377 . S
C3079 C3078 1.524 . S
C3079 C3080 1.397 . S
C3079 C3084 1.363 . S
C3080 H3057 0.950 . S
C3080 C3079 1.397 . S
C3080 C3081 1.334 . S
C3081 H3058 0.950 . S
C3081 C3080 1.334 . S
C3081 C3082 1.287 . S
C3082 C3081 1.287 . S
C3082 C3083 1.524 . S
C3082 H3101 0.913 . S
C3083 H3059 0.950 . S
C3083 C3082 1.524 . S
C3083 C3084 1.415 . S
C3084 H3060 0.950 . S
C3084 C3079 1.363 . S
C3084 C3083 1.415 . S
C3085 H3061 0.951 . S
C3085 C3086 1.366 . S
C3085 C3087 1.388 . S
C3086 C3085 1.366 . S
C3086 C3090 1.385 . S
C3087 H3062 0.951 . S
C3087 C3085 1.388 . S
C3087 C3088 1.366 . S
C3088 C3087 1.366 . S
C3088 C3089 1.414 . S
C3088 C3091 1.499 . S
C3089 H3063 0.950 . S
C3089 C3088 1.414 . S
C3089 C3090 1.374 . S
C3090 H3064 0.950 . S
C3090 C3086 1.385 . S
C3090 C3089 1.374 . S
C3091 C3088 1.499 . S
C3091 C3092 1.373 . S
C3091 C3093 1.389 . S
C3092 H3065 0.950 . S
C3092 C3078 1.377 . S
C3092 C3091 1.373 . S
C3093 C3077 1.377 . S
C3093 C3091 1.389 . S
C3093 C3094 1.524 . S
C3094 C3093 1.524 . S
C3094 C3095 1.397 . S
C3094 C3099 1.363 . S
C3095 H3066 0.950 . S
C3095 C3094 1.397 . S
C3095 C3096 1.334 . S
C3096 H3067 0.950 . S
C3096 C3095 1.334 . S
C3096 C3097 1.287 . S
C3097 C3096 1.287 . S
C3097 C3098 1.524 . S
C3097 H3100 0.999 . S
C3098 H3068 0.950 . S
C3098 C3097 1.524 . S
C3098 C3099 1.415 . S
C3099 H3069 0.950 . S
C3099 C3094 1.363 . S
C3099 C3098 1.415 . S
H3100 C3097 0.999 . S
H3101 C3082 0.913 . S
H3102 C3120 0.951 . S
H3103 C3122 0.951 . S
H3104 C3124 0.950 . S
H3105 C3125 0.950 . S
H3106 C3127 0.950 . S
H3107 C3130 0.950 . S
H3108 C3131 0.950 . S
H3109 C3133 0.950 . S
H3110 C3134 0.950 . S
H3111 C3135 0.951 . S
H3112 C3137 0.951 . S
H3113 C3139 0.950 . S
H3114 C3140 0.950 . S
H3115 C3142 0.950 . S
H3116 C3145 0.950 . S
H3117 C3146 0.950 . S
H3118 C3148 0.950 . S
H3119 C3149 0.950 . S
C3120 H3102 0.951 . S
C3120 C3121 1.366 . S
C3120 C3122 1.388 . S
C3121 C3120 1.366 . S
C3121 C3125 1.385 . S
C3122 H3103 0.951 . S
C3122 C3120 1.388 . S
C3122 C3123 1.366 . S
C3123 C3122 1.366 . S
C3123 C3124 1.414 . S
C3123 C3126 1.499 . S
C3124 H3104 0.950 . S
C3124 C3123 1.414 . S
C3124 C3125 1.374 . S
C3125 H3105 0.950 . S
C3125 C3121 1.385 . S
C3125 C3124 1.374 . S
C3126 C3123 1.499 . S
C3126 C3127 1.373 . S
C3126 C3128 1.389 . S
C3127 H3106 0.950 . S
C3127 C3126 1.373 . S
C3127 C3143 1.377 . S
C3128 C3126 1.389 . S
C3128 C3129 1.524 . S
C3128 C3142 1.377 . S
C3129 C3128 1.524 . S
C3129 C3130 1.397 . S
C3129 C3134 1.363 . S
C3130 H3107 0.950 . S
C3130 C3129 1.397 . S
C3130 C3131 1.334 . S
C3131 H3108 0.950 . S
C3131 C3130 1.334 . S
C3131 C3132 1.287 . S
C3132 C3131 1.287 . S
C3132 C3133 1.524 . S
C3132 H3151 0.913 . S
C3133 H3109 0.950 . S
C3133 C3132 1.524 . S
C3133 C3134 1.415 . S
C3134 H3110 0.950 . S
C3134 C3129 1.363 . S
C3134 C3133 1.415 . S
C3135 H3111 0.951 . S
C3135 C3136 1.366 . S
C3135 C3137 1.388 . S
C3136 C3135 1.366 . S
C3136 C3140 1.385 . S
C3137 H3112 0.951 . S
C3137 C3135 1.388 . S
C3137 C3138 1.366 . S
C3138 C3137 1.366 . S
C3138 C3139 1.414 . S
C3138 C3141 1.499 . S
C3139 H3113 0.950 . S
C3139 C3138 1.414 . S
C3139 C3140 1.374 . S
C3140 H3114 0.950 . S
C3140 C3136 1.385 . S
C3140 C3139 1.374 . S
C3141 C3138 1.499 . S
C3141 C3142 1.373 . S
C3141 C3143 1.389 . S
C3142 H3115 0.950 . S
C3142 C3128 1.377 . S
C3142 C3141 1.373 . S
C3143 C3127 1.377 . S
C3143 C3141 1.389 . S
C3143 C3144 1.524 . S
C3144 C3143 1.524 . S
C3144 C3145 1.397 . S
C3144 C3149 1.363 . S
C3145 H3116 0.950 . S
C3145 C3144 1.397 . S
C3145 C3146 1.334 . S
C3146 H3117 0.950 . S
C3146 C3145 1.334 . S
C3146 C3147 1.287 . S
C3147 C3146 1.287 . S
C3147 C3148 1.524 . S
C3147 H3150 0.999 . S
C3148 H3118 0.950 . S
C3148 C3147 1.524 . S
C3148 C3149 1.415 . S
C3149 H3119 0.950 . S
C3149 C3144 1.363 . S
C3149 C3148 1.415 . S
H3150 C3147 0.999 . S
H3151 C3132 0.913 . S
H3152 C3170 0.951 . S
H3153 C3172 0.947 . S
H3154 C3174 0.950 . S
H3155 C3175 0.950 . S
H3156 C3177 0.950 . S
H3157 C3180 0.950 . S
H3158 C3181 0.950 . S
H3159 C3183 0.950 . S
H3160 C3184 0.950 . S
H3161 C3185 0.951 . S
H3162 C3187 0.951 . S
H3163 C3189 0.950 . S
H3164 C3190 0.950 . S
H3165 C3192 0.950 . S
H3166 C3195 0.950 . S
H3167 C3196 0.950 . S
H3168 C3198 0.950 . S
H3169 C3199 0.950 . S
C3170 H3152 0.951 . S
C3170 C3171 1.366 . S
C3170 C3172 1.388 1_545 S
C3171 C3170 1.366 . S
C3171 C3175 1.385 1_545 S
C3172 H3153 0.947 . S
C3172 C3170 1.388 1_565 S
C3172 C3173 1.366 . S
C3173 C3172 1.366 . S
C3173 C3174 1.414 . S
C3173 C3176 1.499 . S
C3174 H3154 0.950 . S
C3174 C3173 1.414 . S
C3174 C3175 1.374 . S
C3175 H3155 0.950 . S
C3175 C3171 1.385 1_565 S
C3175 C3174 1.374 . S
C3176 C3173 1.499 . S
C3176 C3177 1.373 . S
C3176 C3178 1.389 . S
C3177 H3156 0.950 . S
C3177 C3176 1.373 . S
C3177 C3193 1.377 . S
C3178 C3176 1.389 . S
C3178 C3179 1.524 . S
C3178 C3192 1.377 . S
C3179 C3178 1.524 . S
C3179 C3180 1.397 . S
C3179 C3184 1.363 . S
C3180 H3157 0.950 . S
C3180 C3179 1.397 . S
C3180 C3181 1.334 . S
C3181 H3158 0.950 . S
C3181 C3180 1.334 . S
C3181 C3182 1.287 . S
C3182 C3181 1.287 . S
C3182 C3183 1.524 . S
C3182 H3201 0.913 . S
C3183 H3159 0.950 . S
C3183 C3182 1.524 . S
C3183 C3184 1.415 . S
C3184 H3160 0.950 . S
C3184 C3179 1.363 . S
C3184 C3183 1.415 . S
C3185 H3161 0.951 . S
C3185 C3186 1.366 . S
C3185 C3187 1.388 . S
C3186 C3185 1.366 . S
C3186 C3190 1.385 . S
C3187 H3162 0.951 . S
C3187 C3185 1.388 . S
C3187 C3188 1.366 . S
C3188 C3187 1.366 . S
C3188 C3189 1.414 . S
C3188 C3191 1.499 . S
C3189 H3163 0.950 . S
C3189 C3188 1.414 . S
C3189 C3190 1.374 . S
C3190 H3164 0.950 . S
C3190 C3186 1.385 . S
C3190 C3189 1.374 . S
C3191 C3188 1.499 . S
C3191 C3192 1.373 . S
C3191 C3193 1.389 . S
C3192 H3165 0.950 . S
C3192 C3178 1.377 . S
C3192 C3191 1.373 . S
C3193 C3177 1.377 . S
C3193 C3191 1.389 . S
C3193 C3194 1.524 . S
C3194 C3193 1.524 . S
C3194 C3195 1.397 . S
C3194 C3199 1.363 . S
C3195 H3166 0.950 . S
C3195 C3194 1.397 . S
C3195 C3196 1.334 . S
C3196 H3167 0.950 . S
C3196 C3195 1.334 . S
C3196 C3197 1.287 . S
C3197 C3196 1.287 . S
C3197 C3198 1.524 . S
C3197 H3200 0.999 . S
C3198 H3168 0.950 . S
C3198 C3197 1.524 . S
C3198 C3199 1.415 . S
C3199 H3169 0.950 . S
C3199 C3194 1.363 . S
C3199 C3198 1.415 . S
H3200 C3197 0.999 . S
H3201 C3182 0.913 . S
H3202 C3220 0.951 . S
H3203 C3222 0.951 . S
H3204 C3224 0.950 . S
H3205 C3225 0.950 . S
H3206 C3227 0.950 . S
H3207 C3230 0.950 . S
H3208 C3231 0.950 . S
H3209 C3233 0.950 . S
H3210 C3234 0.950 . S
H3211 C3235 0.951 . S
H3212 C3237 0.951 . S
H3213 C3239 0.950 . S
H3214 C3240 0.950 . S
H3215 C3242 0.950 . S
H3216 C3245 0.950 . S
H3217 C3246 0.950 . S
H3218 C3248 0.950 . S
H3219 C3249 0.950 . S
C3220 H3202 0.951 . S
C3220 C3221 1.366 . S
C3220 C3222 1.388 . S
C3221 C3220 1.366 . S
C3221 C3225 1.385 . S
C3222 H3203 0.951 . S
C3222 C3220 1.388 . S
C3222 C3223 1.366 . S
C3223 C3222 1.366 . S
C3223 C3224 1.414 . S
C3223 C3226 1.499 . S
C3224 H3204 0.950 . S
C3224 C3223 1.414 . S
C3224 C3225 1.374 . S
C3225 H3205 0.950 . S
C3225 C3221 1.385 . S
C3225 C3224 1.374 . S
C3226 C3223 1.499 . S
C3226 C3227 1.373 . S
C3226 C3228 1.389 . S
C3227 H3206 0.950 . S
C3227 C3226 1.373 . S
C3227 C3243 1.377 . S
C3228 C3226 1.389 . S
C3228 C3229 1.524 . S
C3228 C3242 1.377 . S
C3229 C3228 1.524 . S
C3229 C3230 1.397 . S
C3229 C3234 1.363 . S
C3230 H3207 0.950 . S
C3230 C3229 1.397 . S
C3230 C3231 1.334 . S
C3231 H3208 0.950 . S
C3231 C3230 1.334 . S
C3231 C3232 1.287 . S
C3232 C3231 1.287 . S
C3232 C3233 1.524 . S
C3232 H3251 0.913 . S
C3233 H3209 0.950 . S
C3233 C3232 1.524 . S
C3233 C3234 1.415 . S
C3234 H3210 0.950 . S
C3234 C3229 1.363 . S
C3234 C3233 1.415 . S
C3235 H3211 0.951 . S
C3235 C3236 1.366 . S
C3235 C3237 1.388 . S
C3236 C3235 1.366 . S
C3236 C3240 1.385 . S
C3237 H3212 0.951 . S
C3237 C3235 1.388 . S
C3237 C3238 1.366 . S
C3238 C3237 1.366 . S
C3238 C3239 1.414 . S
C3238 C3241 1.499 . S
C3239 H3213 0.950 . S
C3239 C3238 1.414 . S
C3239 C3240 1.374 . S
C3240 H3214 0.950 . S
C3240 C3236 1.385 . S
C3240 C3239 1.374 . S
C3241 C3238 1.499 . S
C3241 C3242 1.373 . S
C3241 C3243 1.389 . S
C3242 H3215 0.950 . S
C3242 C3228 1.377 . S
C3242 C3241 1.373 . S
C3243 C3227 1.377 . S
C3243 C3241 1.389 . S
C3243 C3244 1.524 . S
C3244 C3243 1.524 . S
C3244 C3245 1.397 . S
C3244 C3249 1.363 . S
C3245 H3216 0.950 . S
C3245 C3244 1.397 . S
C3245 C3246 1.334 . S
C3246 H3217 0.950 . S
C3246 C3245 1.334 . S
C3246 C3247 1.287 . S
C3247 C3246 1.287 . S
C3247 C3248 1.524 . S
C3247 H3250 0.999 . S
C3248 H3218 0.950 . S
C3248 C3247 1.524 . S
C3248 C3249 1.415 . S
C3249 H3219 0.950 . S
C3249 C3244 1.363 . S
C3249 C3248 1.415 . S
H3250 C3247 0.999 . S
H3251 C3232 0.913 . S
H3252 C3270 0.951 . S
H3253 C3272 0.951 . S
H3254 C3274 0.950 . S
H3255 C3275 0.950 . S
H3256 C3277 0.950 . S
H3257 C3280 0.950 . S
H3258 C3281 0.950 . S
H3259 C3283 0.950 . S
H3260 C3284 0.950 . S
H3261 C3285 0.951 . S
H3262 C3287 0.951 . S
H3263 C3289 0.950 . S
H3264 C3290 0.950 . S
H3265 C3292 0.950 . S
H3266 C3295 0.950 . S
H3267 C3296 0.950 . S
H3268 C3298 0.950 . S
H3269 C3299 0.950 . S
C3270 H3252 0.951 . S
C3270 C3271 1.366 . S
C3270 C3272 1.388 . S
C3271 C3270 1.366 . S
C3271 C3275 1.385 . S
C3272 H3253 0.951 . S
C3272 C3270 1.388 . S
C3272 C3273 1.366 . S
C3273 C3272 1.366 . S
C3273 C3274 1.414 . S
C3273 C3276 1.499 . S
C3274 H3254 0.950 . S
C3274 C3273 1.414 . S
C3274 C3275 1.374 . S
C3275 H3255 0.950 . S
C3275 C3271 1.385 . S
C3275 C3274 1.374 . S
C3276 C3273 1.499 . S
C3276 C3277 1.373 . S
C3276 C3278 1.389 . S
C3277 H3256 0.950 . S
C3277 C3276 1.373 . S
C3277 C3293 1.377 . S
C3278 C3276 1.389 . S
C3278 C3279 1.524 . S
C3278 C3292 1.377 . S
C3279 C3278 1.524 . S
C3279 C3280 1.397 . S
C3279 C3284 1.363 . S
C3280 H3257 0.950 . S
C3280 C3279 1.397 . S
C3280 C3281 1.334 . S
C3281 H3258 0.950 . S
C3281 C3280 1.334 . S
C3281 C3282 1.287 . S
C3282 C3281 1.287 . S
C3282 C3283 1.524 . S
C3282 H3301 0.913 . S
C3283 H3259 0.950 . S
C3283 C3282 1.524 . S
C3283 C3284 1.415 . S
C3284 H3260 0.950 . S
C3284 C3279 1.363 . S
C3284 C3283 1.415 . S
C3285 H3261 0.951 . S
C3285 C3286 1.366 . S
C3285 C3287 1.388 . S
C3286 C3285 1.366 . S
C3286 C3290 1.385 . S
C3287 H3262 0.951 . S
C3287 C3285 1.388 . S
C3287 C3288 1.366 . S
C3288 C3287 1.366 . S
C3288 C3289 1.414 . S
C3288 C3291 1.499 . S
C3289 H3263 0.950 . S
C3289 C3288 1.414 . S
C3289 C3290 1.374 . S
C3290 H3264 0.950 . S
C3290 C3286 1.385 . S
C3290 C3289 1.374 . S
C3291 C3288 1.499 . S
C3291 C3292 1.373 . S
C3291 C3293 1.389 . S
C3292 H3265 0.950 . S
C3292 C3278 1.377 . S
C3292 C3291 1.373 . S
C3293 C3277 1.377 . S
C3293 C3291 1.389 . S
C3293 C3294 1.524 . S
C3294 C3293 1.524 . S
C3294 C3295 1.397 . S
C3294 C3299 1.363 . S
C3295 H3266 0.950 . S
C3295 C3294 1.397 . S
C3295 C3296 1.334 . S
C3296 H3267 0.950 . S
C3296 C3295 1.334 . S
C3296 C3297 1.287 . S
C3297 C3296 1.287 . S
C3297 C3298 1.524 . S
C3297 H3300 0.999 . S
C3298 H3268 0.950 . S
C3298 C3297 1.524 . S
C3298 C3299 1.415 . S
C3299 H3269 0.950 . S
C3299 C3294 1.363 . S
C3299 C3298 1.415 . S
H3300 C3297 0.999 . S
H3301 C3282 0.913 . S
H3302 C3320 0.951 . S
H3303 C3322 0.951 . S
H3304 C3324 0.950 . S
H3305 C3325 0.950 . S
H3306 C3327 0.950 . S
H3307 C3330 0.950 . S
H3308 C3331 0.950 . S
H3309 C3333 0.950 . S
H3310 C3334 0.950 . S
H3311 C3335 0.951 . S
H3312 C3337 0.951 . S
H3313 C3339 0.950 . S
H3314 C3340 0.950 . S
H3315 C3342 0.950 . S
H3316 C3345 0.950 . S
H3317 C3346 0.950 . S
H3318 C3348 0.950 . S
H3319 C3349 0.950 . S
C3320 H3302 0.951 . S
C3320 C3321 1.366 . S
C3320 C3322 1.388 . S
C3321 C3320 1.366 . S
C3321 C3325 1.385 . S
C3322 H3303 0.951 . S
C3322 C3320 1.388 . S
C3322 C3323 1.366 . S
C3323 C3322 1.366 . S
C3323 C3324 1.414 . S
C3323 C3326 1.499 . S
C3324 H3304 0.950 . S
C3324 C3323 1.414 . S
C3324 C3325 1.374 . S
C3325 H3305 0.950 . S
C3325 C3321 1.385 . S
C3325 C3324 1.374 . S
C3326 C3323 1.499 . S
C3326 C3327 1.373 . S
C3326 C3328 1.389 . S
C3327 H3306 0.950 . S
C3327 C3326 1.373 . S
C3327 C3343 1.377 . S
C3328 C3326 1.389 . S
C3328 C3329 1.524 . S
C3328 C3342 1.377 . S
C3329 C3328 1.524 . S
C3329 C3330 1.397 . S
C3329 C3334 1.363 . S
C3330 H3307 0.950 . S
C3330 C3329 1.397 . S
C3330 C3331 1.334 . S
C3331 H3308 0.950 . S
C3331 C3330 1.334 . S
C3331 C3332 1.287 . S
C3332 C3331 1.287 . S
C3332 C3333 1.524 . S
C3332 H3351 0.913 . S
C3333 H3309 0.950 . S
C3333 C3332 1.524 . S
C3333 C3334 1.415 . S
C3334 H3310 0.950 . S
C3334 C3329 1.363 . S
C3334 C3333 1.415 . S
C3335 H3311 0.951 . S
C3335 C3336 1.366 . S
C3335 C3337 1.388 . S
C3336 C3335 1.366 . S
C3336 C3340 1.385 . S
C3337 H3312 0.951 . S
C3337 C3335 1.388 . S
C3337 C3338 1.366 . S
C3338 C3337 1.366 . S
C3338 C3339 1.414 . S
C3338 C3341 1.499 . S
C3339 H3313 0.950 . S
C3339 C3338 1.414 . S
C3339 C3340 1.374 . S
C3340 H3314 0.950 . S
C3340 C3336 1.385 . S
C3340 C3339 1.374 . S
C3341 C3338 1.499 . S
C3341 C3342 1.373 . S
C3341 C3343 1.389 . S
C3342 H3315 0.950 . S
C3342 C3328 1.377 . S
C3342 C3341 1.373 . S
C3343 C3327 1.377 . S
C3343 C3341 1.389 . S
C3343 C3344 1.524 . S
C3344 C3343 1.524 . S
C3344 C3345 1.397 . S
C3344 C3349 1.363 . S
C3345 H3316 0.950 . S
C3345 C3344 1.397 . S
C3345 C3346 1.334 . S
C3346 H3317 0.950 . S
C3346 C3345 1.334 . S
C3346 C3347 1.287 . S
C3347 C3346 1.287 . S
C3347 C3348 1.524 . S
C3347 H3350 0.999 . S
C3348 H3318 0.950 . S
C3348 C3347 1.524 . S
C3348 C3349 1.415 . S
C3349 H3319 0.950 . S
C3349 C3344 1.363 . S
C3349 C3348 1.415 . S
H3350 C3347 0.999 . S
H3351 C3332 0.913 . S
H3352 C3370 0.951 . S
H3353 C3372 0.951 . S
H3354 C3374 0.950 . S
H3355 C3375 0.950 . S
H3356 C3377 0.950 . S
H3357 C3380 0.950 . S
H3358 C3381 0.950 . S
H3359 C3383 0.950 . S
H3360 C3384 0.950 . S
H3361 C3385 0.951 . S
H3362 C3387 0.951 . S
H3363 C3389 0.950 . S
H3364 C3390 0.950 . S
H3365 C3392 0.950 . S
H3366 C3395 0.950 . S
H3367 C3396 0.950 . S
H3368 C3398 0.950 . S
H3369 C3399 0.950 . S
C3370 H3352 0.951 . S
C3370 C3371 1.366 . S
C3370 C3372 1.388 . S
C3371 C3370 1.366 . S
C3371 C3375 1.385 . S
C3372 H3353 0.951 . S
C3372 C3370 1.388 . S
C3372 C3373 1.366 . S
C3373 C3372 1.366 . S
C3373 C3374 1.414 . S
C3373 C3376 1.499 . S
C3374 H3354 0.950 . S
C3374 C3373 1.414 . S
C3374 C3375 1.374 . S
C3375 H3355 0.950 . S
C3375 C3371 1.385 . S
C3375 C3374 1.374 . S
C3376 C3373 1.499 . S
C3376 C3377 1.373 . S
C3376 C3378 1.389 . S
C3377 H3356 0.950 . S
C3377 C3376 1.373 . S
C3377 C3393 1.377 . S
C3378 C3376 1.389 . S
C3378 C3379 1.524 . S
C3378 C3392 1.377 . S
C3379 C3378 1.524 . S
C3379 C3380 1.397 . S
C3379 C3384 1.363 . S
C3380 H3357 0.950 . S
C3380 C3379 1.397 . S
C3380 C3381 1.334 . S
C3381 H3358 0.950 . S
C3381 C3380 1.334 . S
C3381 C3382 1.287 . S
C3382 C3381 1.287 . S
C3382 C3383 1.524 . S
C3382 H3401 0.913 . S
C3383 H3359 0.950 . S
C3383 C3382 1.524 . S
C3383 C3384 1.415 . S
C3384 H3360 0.950 . S
C3384 C3379 1.363 . S
C3384 C3383 1.415 . S
C3385 H3361 0.951 . S
C3385 C3386 1.366 . S
C3385 C3387 1.388 . S
C3386 C3385 1.366 . S
C3386 C3390 1.385 . S
C3387 H3362 0.951 . S
C3387 C3385 1.388 . S
C3387 C3388 1.366 . S
C3388 C3387 1.366 . S
C3388 C3389 1.414 . S
C3388 C3391 1.499 . S
C3389 H3363 0.950 . S
C3389 C3388 1.414 . S
C3389 C3390 1.374 . S
C3390 H3364 0.950 . S
C3390 C3386 1.385 . S
C3390 C3389 1.374 . S
C3391 C3388 1.499 . S
C3391 C3392 1.373 . S
C3391 C3393 1.389 . S
C3392 H3365 0.950 . S
C3392 C3378 1.377 . S
C3392 C3391 1.373 . S
C3393 C3377 1.377 . S
C3393 C3391 1.389 . S
C3393 C3394 1.524 . S
C3394 C3393 1.524 . S
C3394 C3395 1.397 . S
C3394 C3399 1.363 . S
C3395 H3366 0.950 . S
C3395 C3394 1.397 . S
C3395 C3396 1.334 . S
C3396 H3367 0.950 . S
C3396 C3395 1.334 . S
C3396 C3397 1.287 . S
C3397 C3396 1.287 . S
C3397 C3398 1.524 . S
C3397 H3400 0.999 . S
C3398 H3368 0.950 . S
C3398 C3397 1.524 . S
C3398 C3399 1.415 . S
C3399 H3369 0.950 . S
C3399 C3394 1.363 . S
C3399 C3398 1.415 . S
H3400 C3397 0.999 . S
H3401 C3382 0.913 . S
H3402 C3420 0.951 . S
H3403 C3422 0.951 . S
H3404 C3424 0.950 . S
H3405 C3425 0.950 . S
H3406 C3427 0.950 . S
H3407 C3430 0.950 . S
H3408 C3431 0.950 . S
H3409 C3433 0.950 . S
H3410 C3434 0.950 . S
H3411 C3435 0.951 . S
H3412 C3437 0.951 . S
H3413 C3439 0.950 . S
H3414 C3440 0.950 . S
H3415 C3442 0.950 . S
H3416 C3445 0.950 . S
H3417 C3446 0.950 . S
H3418 C3448 0.950 . S
H3419 C3449 0.950 . S
C3420 H3402 0.951 . S
C3420 C3421 1.366 . S
C3420 C3422 1.388 . S
C3421 C3420 1.366 . S
C3421 C3425 1.385 . S
C3422 H3403 0.951 . S
C3422 C3420 1.388 . S
C3422 C3423 1.366 . S
C3423 C3422 1.366 . S
C3423 C3424 1.414 . S
C3423 C3426 1.499 . S
C3424 H3404 0.950 . S
C3424 C3423 1.414 . S
C3424 C3425 1.374 . S
C3425 H3405 0.950 . S
C3425 C3421 1.385 . S
C3425 C3424 1.374 . S
C3426 C3423 1.499 . S
C3426 C3427 1.373 . S
C3426 C3428 1.389 . S
C3427 H3406 0.950 . S
C3427 C3426 1.373 . S
C3427 C3443 1.377 . S
C3428 C3426 1.389 . S
C3428 C3429 1.524 . S
C3428 C3442 1.377 . S
C3429 C3428 1.524 . S
C3429 C3430 1.397 . S
C3429 C3434 1.363 . S
C3430 H3407 0.950 . S
C3430 C3429 1.397 . S
C3430 C3431 1.334 . S
C3431 H3408 0.950 . S
C3431 C3430 1.334 . S
C3431 C3432 1.287 . S
C3432 C3431 1.287 . S
C3432 C3433 1.524 . S
C3432 H3451 0.913 . S
C3433 H3409 0.950 . S
C3433 C3432 1.524 . S
C3433 C3434 1.415 . S
C3434 H3410 0.950 . S
C3434 C3429 1.363 . S
C3434 C3433 1.415 . S
C3435 H3411 0.951 . S
C3435 C3436 1.366 . S
C3435 C3437 1.388 . S
C3436 C3435 1.366 . S
C3436 C3440 1.385 . S
C3437 H3412 0.951 . S
C3437 C3435 1.388 . S
C3437 C3438 1.366 . S
C3438 C3437 1.366 . S
C3438 C3439 1.414 . S
C3438 C3441 1.499 . S
C3439 H3413 0.950 . S
C3439 C3438 1.414 . S
C3439 C3440 1.374 . S
C3440 H3414 0.950 . S
C3440 C3436 1.385 . S
C3440 C3439 1.374 . S
C3441 C3438 1.499 . S
C3441 C3442 1.373 . S
C3441 C3443 1.389 . S
C3442 H3415 0.950 . S
C3442 C3428 1.377 . S
C3442 C3441 1.373 . S
C3443 C3427 1.377 . S
C3443 C3441 1.389 . S
C3443 C3444 1.524 . S
C3444 C3443 1.524 . S
C3444 C3445 1.397 . S
C3444 C3449 1.363 . S
C3445 H3416 0.950 . S
C3445 C3444 1.397 . S
C3445 C3446 1.334 . S
C3446 H3417 0.950 . S
C3446 C3445 1.334 . S
C3446 C3447 1.287 . S
C3447 C3446 1.287 . S
C3447 C3448 1.524 . S
C3447 H3450 0.999 . S
C3448 H3418 0.950 . S
C3448 C3447 1.524 . S
C3448 C3449 1.415 . S
C3449 H3419 0.950 . S
C3449 C3444 1.363 . S
C3449 C3448 1.415 . S
H3450 C3447 0.999 . S
H3451 C3432 0.913 . S
H3452 C3470 0.951 1_655 S
H3453 C3472 0.951 1_655 S
H3454 C3474 0.950 . S
H3455 C3475 0.950 . S
H3456 C3477 0.950 . S
H3457 C3480 0.950 . S
H3458 C3481 0.950 . S
H3459 C3483 0.950 . S
H3460 C3484 0.963 . S
H3461 C3485 0.951 . S
H3462 C3487 0.951 . S
H3463 C3489 0.950 . S
H3464 C3490 0.969 . S
H3465 C3492 0.950 . S
H3466 C3495 0.950 1_655 S
H3467 C3496 0.950 1_655 S
H3468 C3498 0.950 . S
H3469 C3499 0.950 . S
C3470 H3452 0.951 1_455 S
C3470 C3471 1.366 . S
C3470 C3472 1.388 . S
C3471 C3470 1.366 . S
C3471 C3475 1.385 . S
C3472 H3453 0.951 1_455 S
C3472 C3470 1.388 . S
C3472 C3473 1.366 . S
C3473 C3472 1.366 . S
C3473 C3474 1.414 . S
C3473 C3476 1.499 . S
C3474 H3454 0.950 . S
C3474 C3473 1.414 . S
C3474 C3475 1.374 . S
C3475 H3455 0.950 . S
C3475 C3471 1.385 . S
C3475 C3474 1.374 . S
C3476 C3473 1.499 . S
C3476 C3477 1.373 . S
C3476 C3478 1.389 . S
C3477 H3456 0.950 . S
C3477 C3476 1.373 . S
C3477 C3493 1.371 1_556 S
C3478 C3476 1.389 . S
C3478 C3479 1.524 . S
C3478 C3492 1.377 . S
C3479 C3478 1.524 . S
C3479 C3480 1.397 . S
C3479 C3484 1.363 . S
C3480 H3457 0.950 . S
C3480 C3479 1.397 . S
C3480 C3481 1.334 . S
C3481 H3458 0.950 . S
C3481 C3480 1.334 . S
C3481 C3482 1.287 . S
C3482 C3481 1.287 . S
C3482 C3483 1.524 . S
C3482 H3501 0.913 . S
C3483 H3459 0.950 . S
C3483 C3482 1.524 . S
C3483 C3484 1.415 . S
C3484 H3460 0.963 . S
C3484 C3479 1.363 . S
C3484 C3483 1.415 . S
C3485 H3461 0.951 . S
C3485 C3486 1.366 . S
C3485 C3487 1.388 . S
C3486 C3485 1.366 . S
C3486 C3490 1.385 . S
C3487 H3462 0.951 . S
C3487 C3485 1.388 . S
C3487 C3488 1.366 . S
C3488 C3487 1.366 . S
C3488 C3489 1.414 1_554 S
C3488 C3491 1.499 1_554 S
C3489 H3463 0.950 . S
C3489 C3488 1.414 1_556 S
C3489 C3490 1.374 1_556 S
C3490 H3464 0.969 . S
C3490 C3486 1.385 . S
C3490 C3489 1.374 1_554 S
C3491 C3488 1.499 1_556 S
C3491 C3492 1.373 . S
C3491 C3493 1.380 1_556 S
C3492 H3465 0.950 . S
C3492 C3478 1.377 . S
C3492 C3491 1.373 . S
C3493 C3477 1.371 1_554 S
C3493 C3491 1.380 1_554 S
C3493 C3494 1.539 . S
C3494 C3493 1.539 . S
C3494 C3495 1.397 . S
C3494 C3499 1.363 . S
C3495 H3466 0.950 1_455 S
C3495 C3494 1.397 . S
C3495 C3496 1.334 . S
C3496 H3467 0.950 1_455 S
C3496 C3495 1.334 . S
C3496 C3497 1.287 . S
C3497 C3496 1.287 . S
C3497 C3498 1.524 . S
C3497 H3500 0.999 . S
C3498 H3468 0.950 . S
C3498 C3497 1.524 . S
C3498 C3499 1.415 . S
C3499 H3469 0.950 . S
C3499 C3494 1.363 . S
C3499 C3498 1.415 . S
H3500 C3497 0.999 . S
H3501 C3482 0.913 . S
H3502 C3520 0.954 . S
H3503 C3522 0.951 . S
H3504 C3524 0.950 . S
H3505 C3525 0.950 . S
H3506 C3527 0.950 . S
H3507 C3530 0.950 . S
H3508 C3531 0.962 . S
H3509 C3533 0.950 . S
H3510 C3534 0.950 . S
H3511 C3535 0.951 . S
H3512 C3537 0.951 . S
H3513 C3539 0.950 . S
H3514 C3540 0.950 . S
H3515 C3542 0.950 . S
H3516 C3545 0.950 . S
H3517 C3546 0.950 . S
H3518 C3548 0.950 . S
H3519 C3549 0.950 . S
C3520 H3502 0.954 . S
C3520 C3521 1.375 . S
C3520 C3522 1.379 1_455 S
C3521 C3520 1.375 . S
C3521 C3525 1.385 . S
C3522 H3503 0.951 . S
C3522 C3520 1.379 1_655 S
C3522 C3523 1.366 . S
C3523 C3522 1.366 . S
C3523 C3524 1.414 . S
C3523 C3526 1.499 . S
C3524 H3504 0.950 . S
C3524 C3523 1.414 . S
C3524 C3525 1.374 1_655 S
C3525 H3505 0.950 . S
C3525 C3521 1.385 . S
C3525 C3524 1.374 1_455 S
C3526 C3523 1.499 . S
C3526 C3527 1.373 . S
C3526 C3528 1.389 . S
C3527 H3506 0.950 . S
C3527 C3526 1.373 . S
C3527 C3543 1.377 . S
C3528 C3526 1.389 . S
C3528 C3529 1.524 . S
C3528 C3542 1.377 . S
C3529 C3528 1.524 . S
C3529 C3530 1.397 . S
C3529 C3534 1.363 . S
C3530 H3507 0.950 . S
C3530 C3529 1.397 . S
C3530 C3531 1.330 1_655 S
C3531 H3508 0.962 . S
C3531 C3530 1.330 1_455 S
C3531 C3532 1.279 1_455 S
C3532 C3531 1.279 1_655 S
C3532 C3533 1.524 . S
C3532 H3551 0.934 . S
C3533 H3509 0.950 . S
C3533 C3532 1.524 . S
C3533 C3534 1.415 . S
C3534 H3510 0.950 . S
C3534 C3529 1.363 . S
C3534 C3533 1.415 . S
C3535 H3511 0.951 . S
C3535 C3536 1.366 . S
C3535 C3537 1.388 . S
C3536 C3535 1.366 . S
C3536 C3540 1.385 . S
C3537 H3512 0.951 . S
C3537 C3535 1.388 . S
C3537 C3538 1.366 . S
C3538 C3537 1.366 . S
C3538 C3539 1.414 . S
C3538 C3541 1.499 . S
C3539 H3513 0.950 . S
C3539 C3538 1.414 . S
C3539 C3540 1.374 . S
C3540 H3514 0.950 . S
C3540 C3536 1.385 . S
C3540 C3539 1.374 . S
C3541 C3538 1.499 . S
C3541 C3542 1.373 . S
C3541 C3543 1.389 . S
C3542 H3515 0.950 . S
C3542 C3528 1.377 . S
C3542 C3541 1.373 . S
C3543 C3527 1.377 . S
C3543 C3541 1.389 . S
C3543 C3544 1.524 . S
C3544 C3543 1.524 . S
C3544 C3545 1.397 . S
C3544 C3549 1.363 . S
C3545 H3516 0.950 . S
C3545 C3544 1.397 . S
C3545 C3546 1.334 . S
C3546 H3517 0.950 . S
C3546 C3545 1.334 . S
C3546 C3547 1.287 . S
C3547 C3546 1.287 . S
C3547 C3548 1.524 . S
C3547 H3550 0.999 . S
C3548 H3518 0.950 . S
C3548 C3547 1.524 . S
C3548 C3549 1.415 . S
C3549 H3519 0.950 . S
C3549 C3544 1.363 . S
C3549 C3548 1.415 . S
H3550 C3547 0.999 . S
H3551 C3532 0.934 . S
H3552 C3570 0.951 . S
H3553 C3572 0.951 . S
H3554 C3574 0.950 . S
H3555 C3575 0.950 . S
H3556 C3577 0.950 . S
H3557 C3580 0.950 . S
H3558 C3581 0.950 . S
H3559 C3583 0.950 . S
H3560 C3584 0.950 . S
H3561 C3585 0.951 . S
H3562 C3587 0.951 . S
H3563 C3589 0.950 . S
H3564 C3590 0.950 . S
H3565 C3592 0.950 . S
H3566 C3595 0.950 . S
H3567 C3596 0.950 . S
H3568 C3598 0.950 . S
H3569 C3599 0.950 . S
C3570 H3552 0.951 . S
C3570 C3571 1.366 . S
C3570 C3572 1.388 . S
C3571 C3570 1.366 . S
C3571 C3575 1.385 . S
C3572 H3553 0.951 . S
C3572 C3570 1.388 . S
C3572 C3573 1.366 . S
C3573 C3572 1.366 . S
C3573 C3574 1.414 . S
C3573 C3576 1.499 . S
C3574 H3554 0.950 . S
C3574 C3573 1.414 . S
C3574 C3575 1.374 . S
C3575 H3555 0.950 . S
C3575 C3571 1.385 . S
C3575 C3574 1.374 . S
C3576 C3573 1.499 . S
C3576 C3577 1.373 . S
C3576 C3578 1.389 . S
C3577 H3556 0.950 . S
C3577 C3576 1.373 . S
C3577 C3593 1.377 . S
C3578 C3576 1.389 . S
C3578 C3579 1.524 . S
C3578 C3592 1.377 . S
C3579 C3578 1.524 . S
C3579 C3580 1.397 . S
C3579 C3584 1.363 . S
C3580 H3557 0.950 . S
C3580 C3579 1.397 . S
C3580 C3581 1.334 . S
C3581 H3558 0.950 . S
C3581 C3580 1.334 . S
C3581 C3582 1.287 . S
C3582 C3581 1.287 . S
C3582 C3583 1.524 . S
C3582 H3601 0.913 . S
C3583 H3559 0.950 . S
C3583 C3582 1.524 . S
C3583 C3584 1.415 . S
C3584 H3560 0.950 . S
C3584 C3579 1.363 . S
C3584 C3583 1.415 . S
C3585 H3561 0.951 . S
C3585 C3586 1.366 . S
C3585 C3587 1.388 . S
C3586 C3585 1.366 . S
C3586 C3590 1.385 . S
C3587 H3562 0.951 . S
C3587 C3585 1.388 . S
C3587 C3588 1.366 . S
C3588 C3587 1.366 . S
C3588 C3589 1.414 . S
C3588 C3591 1.499 . S
C3589 H3563 0.950 . S
C3589 C3588 1.414 . S
C3589 C3590 1.374 . S
C3590 H3564 0.950 . S
C3590 C3586 1.385 . S
C3590 C3589 1.374 . S
C3591 C3588 1.499 . S
C3591 C3592 1.373 . S
C3591 C3593 1.389 . S
C3592 H3565 0.950 . S
C3592 C3578 1.377 . S
C3592 C3591 1.373 . S
C3593 C3577 1.377 . S
C3593 C3591 1.389 . S
C3593 C3594 1.524 . S
C3594 C3593 1.524 . S
C3594 C3595 1.397 . S
C3594 C3599 1.363 . S
C3595 H3566 0.950 . S
C3595 C3594 1.397 . S
C3595 C3596 1.334 . S
C3596 H3567 0.950 . S
C3596 C3595 1.334 . S
C3596 C3597 1.287 . S
C3597 C3596 1.287 . S
C3597 C3598 1.524 . S
C3597 H3600 0.999 . S
C3598 H3568 0.950 . S
C3598 C3597 1.524 . S
C3598 C3599 1.415 . S
C3599 H3569 0.950 . S
C3599 C3594 1.363 . S
C3599 C3598 1.415 . S
H3600 C3597 0.999 . S
H3601 C3582 0.913 . S
H3602 C3620 0.951 . S
H3603 C3622 0.951 . S
H3604 C3624 0.950 1_655 S
H3605 C3625 0.950 . S
H3606 C3627 0.950 . S
H3607 C3630 0.950 . S
H3608 C3631 0.950 . S
H3609 C3633 0.950 . S
H3610 C3634 0.950 . S
H3611 C3635 0.951 . S
H3612 C3637 0.951 . S
H3613 C3639 0.950 . S
H3614 C3640 0.950 . S
H3615 C3642 0.950 . S
H3616 C3645 0.950 . S
H3617 C3646 0.950 . S
H3618 C3648 0.950 . S
H3619 C3649 0.950 . S
C3620 H3602 0.951 . S
C3620 C3621 1.366 . S
C3620 C3622 1.388 . S
C3621 C3620 1.366 . S
C3621 C3625 1.385 . S
C3622 H3603 0.951 . S
C3622 C3620 1.388 . S
C3622 C3623 1.366 . S
C3623 C3622 1.366 . S
C3623 C3624 1.414 . S
C3623 C3626 1.499 1_455 S
C3624 H3604 0.950 1_455 S
C3624 C3623 1.414 . S
C3624 C3625 1.374 . S
C3625 H3605 0.950 . S
C3625 C3621 1.385 . S
C3625 C3624 1.374 . S
C3626 C3623 1.499 1_655 S
C3626 C3627 1.373 . S
C3626 C3628 1.389 . S
C3627 H3606 0.950 . S
C3627 C3626 1.373 . S
C3627 C3643 1.377 . S
C3628 C3626 1.389 . S
C3628 C3629 1.524 1_655 S
C3628 C3642 1.377 . S
C3629 C3628 1.524 1_455 S
C3629 C3630 1.397 . S
C3629 C3634 1.363 . S
C3630 H3607 0.950 . S
C3630 C3629 1.397 . S
C3630 C3631 1.334 . S
C3631 H3608 0.950 . S
C3631 C3630 1.334 . S
C3631 C3632 1.287 . S
C3632 C3631 1.287 . S
C3632 C3633 1.524 . S
C3632 H3651 0.913 . S
C3633 H3609 0.950 . S
C3633 C3632 1.524 . S
C3633 C3634 1.415 . S
C3634 H3610 0.950 . S
C3634 C3629 1.363 . S
C3634 C3633 1.415 . S
C3635 H3611 0.951 . S
C3635 C3636 1.366 . S
C3635 C3637 1.388 . S
C3636 C3635 1.366 . S
C3636 C3640 1.385 . S
C3637 H3612 0.951 . S
C3637 C3635 1.388 . S
C3637 C3638 1.366 . S
C3638 C3637 1.366 . S
C3638 C3639 1.414 . S
C3638 C3641 1.499 . S
C3639 H3613 0.950 . S
C3639 C3638 1.414 . S
C3639 C3640 1.374 . S
C3640 H3614 0.950 . S
C3640 C3636 1.385 . S
C3640 C3639 1.374 . S
C3641 C3638 1.499 . S
C3641 C3642 1.373 . S
C3641 C3643 1.389 . S
C3642 H3615 0.950 . S
C3642 C3628 1.377 . S
C3642 C3641 1.373 . S
C3643 C3627 1.377 . S
C3643 C3641 1.389 . S
C3643 C3644 1.524 . S
C3644 C3643 1.524 . S
C3644 C3645 1.397 . S
C3644 C3649 1.363 . S
C3645 H3616 0.950 . S
C3645 C3644 1.397 . S
C3645 C3646 1.334 . S
C3646 H3617 0.950 . S
C3646 C3645 1.334 . S
C3646 C3647 1.287 . S
C3647 C3646 1.287 . S
C3647 C3648 1.524 . S
C3647 H3650 0.999 . S
C3648 H3618 0.950 . S
C3648 C3647 1.524 . S
C3648 C3649 1.415 . S
C3649 H3619 0.950 . S
C3649 C3644 1.363 . S
C3649 C3648 1.415 . S
H3650 C3647 0.999 . S
H3651 C3632 0.913 . S
H3652 C3670 0.951 . S
H3653 C3672 0.951 . S
H3654 C3674 0.950 . S
H3655 C3675 0.950 . S
H3656 C3677 0.950 . S
H3657 C3680 0.950 1_455 S
H3658 C3681 0.950 . S
H3659 C3683 0.950 . S
H3660 C3684 0.950 . S
H3661 C3685 0.951 . S
H3662 C3687 0.951 . S
H3663 C3689 0.950 . S
H3664 C3690 0.950 . S
H3665 C3692 0.950 . S
H3666 C3695 0.950 . S
H3667 C3696 0.950 . S
H3668 C3698 0.950 . S
H3669 C3699 0.950 . S
C3670 H3652 0.951 . S
C3670 C3671 1.366 . S
C3670 C3672 1.388 . S
C3671 C3670 1.366 . S
C3671 C3675 1.385 1_655 S
C3672 H3653 0.951 . S
C3672 C3670 1.388 . S
C3672 C3673 1.366 . S
C3673 C3672 1.366 . S
C3673 C3674 1.414 1_655 S
C3673 C3676 1.496 . S
C3674 H3654 0.950 . S
C3674 C3673 1.414 1_455 S
C3674 C3675 1.374 . S
C3675 H3655 0.950 . S
C3675 C3671 1.385 1_455 S
C3675 C3674 1.374 . S
C3676 C3673 1.496 . S
C3676 C3677 1.377 1_655 S
C3676 C3678 1.388 . S
C3677 H3656 0.950 . S
C3677 C3676 1.377 1_455 S
C3677 C3693 1.377 . S
C3678 C3676 1.388 . S
C3678 C3679 1.524 . S
C3678 C3692 1.377 . S
C3679 C3678 1.524 . S
C3679 C3680 1.397 . S
C3679 C3684 1.363 . S
C3680 H3657 0.950 1_655 S
C3680 C3679 1.397 . S
C3680 C3681 1.334 . S
C3681 H3658 0.950 . S
C3681 C3680 1.334 . S
C3681 C3682 1.287 . S
C3682 C3681 1.287 . S
C3682 C3683 1.524 . S
C3682 H3701 0.913 . S
C3683 H3659 0.950 . S
C3683 C3682 1.524 . S
C3683 C3684 1.415 . S
C3684 H3660 0.950 . S
C3684 C3679 1.363 . S
C3684 C3683 1.415 . S
C3685 H3661 0.951 . S
C3685 C3686 1.366 . S
C3685 C3687 1.388 . S
C3686 C3685 1.366 . S
C3686 C3690 1.385 1_455 S
C3687 H3662 0.951 . S
C3687 C3685 1.388 . S
C3687 C3688 1.366 . S
C3688 C3687 1.366 . S
C3688 C3689 1.414 1_455 S
C3688 C3691 1.499 . S
C3689 H3663 0.950 . S
C3689 C3688 1.414 1_655 S
C3689 C3690 1.374 . S
C3690 H3664 0.950 . S
C3690 C3686 1.385 1_655 S
C3690 C3689 1.374 . S
C3691 C3688 1.499 . S
C3691 C3692 1.373 1_455 S
C3691 C3693 1.389 . S
C3692 H3665 0.950 . S
C3692 C3678 1.377 . S
C3692 C3691 1.373 1_655 S
C3693 C3677 1.377 . S
C3693 C3691 1.389 . S
C3693 C3694 1.524 . S
C3694 C3693 1.524 . S
C3694 C3695 1.397 . S
C3694 C3699 1.363 . S
C3695 H3666 0.950 . S
C3695 C3694 1.397 . S
C3695 C3696 1.334 . S
C3696 H3667 0.950 . S
C3696 C3695 1.334 . S
C3696 C3697 1.287 . S
C3697 C3696 1.287 . S
C3697 C3698 1.524 . S
C3697 H3700 0.999 . S
C3698 H3668 0.950 . S
C3698 C3697 1.524 . S
C3698 C3699 1.415 . S
C3699 H3669 0.950 . S
C3699 C3694 1.363 . S
C3699 C3698 1.415 . S
H3700 C3697 0.999 . S
H3701 C3682 0.913 . S
H3702 C3720 0.951 . S
H3703 C3722 0.951 . S
H3704 C3724 0.950 . S
H3705 C3725 0.950 . S
H3706 C3727 0.950 . S
H3707 C3730 0.950 . S
H3708 C3731 0.950 . S
H3709 C3733 0.950 . S
H3710 C3734 0.950 . S
H3711 C3735 0.951 . S
H3712 C3737 0.951 . S
H3713 C3739 0.950 . S
H3714 C3740 0.950 . S
H3715 C3742 0.950 . S
H3716 C3745 0.950 . S
H3717 C3746 0.950 . S
H3718 C3748 0.950 . S
H3719 C3749 0.950 . S
C3720 H3702 0.951 . S
C3720 C3721 1.366 . S
C3720 C3722 1.388 . S
C3721 C3720 1.366 . S
C3721 C3725 1.385 . S
C3722 H3703 0.951 . S
C3722 C3720 1.388 . S
C3722 C3723 1.366 . S
C3723 C3722 1.366 . S
C3723 C3724 1.414 . S
C3723 C3726 1.499 . S
C3724 H3704 0.950 . S
C3724 C3723 1.414 . S
C3724 C3725 1.374 . S
C3725 H3705 0.950 . S
C3725 C3721 1.385 . S
C3725 C3724 1.374 . S
C3726 C3723 1.499 . S
C3726 C3727 1.373 . S
C3726 C3728 1.389 . S
C3727 H3706 0.950 . S
C3727 C3726 1.373 . S
C3727 C3743 1.377 . S
C3728 C3726 1.389 . S
C3728 C3729 1.524 . S
C3728 C3742 1.377 . S
C3729 C3728 1.524 . S
C3729 C3730 1.397 . S
C3729 C3734 1.363 . S
C3730 H3707 0.950 . S
C3730 C3729 1.397 . S
C3730 C3731 1.334 . S
C3731 H3708 0.950 . S
C3731 C3730 1.334 . S
C3731 C3732 1.287 . S
C3732 C3731 1.287 . S
C3732 C3733 1.524 . S
C3732 H3751 0.913 . S
C3733 H3709 0.950 . S
C3733 C3732 1.524 . S
C3733 C3734 1.415 . S
C3734 H3710 0.950 . S
C3734 C3729 1.363 . S
C3734 C3733 1.415 . S
C3735 H3711 0.951 . S
C3735 C3736 1.366 . S
C3735 C3737 1.388 . S
C3736 C3735 1.366 . S
C3736 C3740 1.385 . S
C3737 H3712 0.951 . S
C3737 C3735 1.388 . S
C3737 C3738 1.366 . S
C3738 C3737 1.366 . S
C3738 C3739 1.414 . S
C3738 C3741 1.499 . S
C3739 H3713 0.950 . S
C3739 C3738 1.414 . S
C3739 C3740 1.374 . S
C3740 H3714 0.950 . S
C3740 C3736 1.385 . S
C3740 C3739 1.374 . S
C3741 C3738 1.499 . S
C3741 C3742 1.373 . S
C3741 C3743 1.389 . S
C3742 H3715 0.950 . S
C3742 C3728 1.377 . S
C3742 C3741 1.373 . S
C3743 C3727 1.377 . S
C3743 C3741 1.389 . S
C3743 C3744 1.524 . S
C3744 C3743 1.524 . S
C3744 C3745 1.397 . S
C3744 C3749 1.363 . S
C3745 H3716 0.950 . S
C3745 C3744 1.397 . S
C3745 C3746 1.334 . S
C3746 H3717 0.950 . S
C3746 C3745 1.334 . S
C3746 C3747 1.287 . S
C3747 C3746 1.287 . S
C3747 C3748 1.524 . S
C3747 H3750 0.999 . S
C3748 H3718 0.950 . S
C3748 C3747 1.524 . S
C3748 C3749 1.415 . S
C3749 H3719 0.950 . S
C3749 C3744 1.363 . S
C3749 C3748 1.415 . S
H3750 C3747 0.999 . S
H3751 C3732 0.913 . S
H3752 C3770 0.951 . S
H3753 C3772 0.951 . S
H3754 C3774 0.950 . S
H3755 C3775 0.950 . S
H3756 C3777 0.950 . S
H3757 C3780 0.950 . S
H3758 C3781 0.950 . S
H3759 C3783 0.950 . S
H3760 C3784 0.950 . S
H3761 C3785 0.951 . S
H3762 C3787 0.951 . S
H3763 C3789 0.950 . S
H3764 C3790 0.950 . S
H3765 C3792 0.950 . S
H3766 C3795 0.950 . S
H3767 C3796 0.950 . S
H3768 C3798 0.950 . S
H3769 C3799 0.950 . S
C3770 H3752 0.951 . S
C3770 C3771 1.366 . S
C3770 C3772 1.388 . S
C3771 C3770 1.366 . S
C3771 C3775 1.385 . S
C3772 H3753 0.951 . S
C3772 C3770 1.388 . S
C3772 C3773 1.366 . S
C3773 C3772 1.366 . S
C3773 C3774 1.414 . S
C3773 C3776 1.499 . S
C3774 H3754 0.950 . S
C3774 C3773 1.414 . S
C3774 C3775 1.374 . S
C3775 H3755 0.950 . S
C3775 C3771 1.385 . S
C3775 C3774 1.374 . S
C3776 C3773 1.499 . S
C3776 C3777 1.373 . S
C3776 C3778 1.389 . S
C3777 H3756 0.950 . S
C3777 C3776 1.373 . S
C3777 C3793 1.377 . S
C3778 C3776 1.389 . S
C3778 C3779 1.524 . S
C3778 C3792 1.377 . S
C3779 C3778 1.524 . S
C3779 C3780 1.397 . S
C3779 C3784 1.363 . S
C3780 H3757 0.950 . S
C3780 C3779 1.397 . S
C3780 C3781 1.334 . S
C3781 H3758 0.950 . S
C3781 C3780 1.334 . S
C3781 C3782 1.287 . S
C3782 C3781 1.287 . S
C3782 C3783 1.524 . S
C3782 H3801 0.913 . S
C3783 H3759 0.950 . S
C3783 C3782 1.524 . S
C3783 C3784 1.415 . S
C3784 H3760 0.950 . S
C3784 C3779 1.363 . S
C3784 C3783 1.415 . S
C3785 H3761 0.951 . S
C3785 C3786 1.366 . S
C3785 C3787 1.388 . S
C3786 C3785 1.366 . S
C3786 C3790 1.385 . S
C3787 H3762 0.951 . S
C3787 C3785 1.388 . S
C3787 C3788 1.366 . S
C3788 C3787 1.366 . S
C3788 C3789 1.414 . S
C3788 C3791 1.499 . S
C3789 H3763 0.950 . S
C3789 C3788 1.414 . S
C3789 C3790 1.374 . S
C3790 H3764 0.950 . S
C3790 C3786 1.385 . S
C3790 C3789 1.374 . S
C3791 C3788 1.499 . S
C3791 C3792 1.373 . S
C3791 C3793 1.389 . S
C3792 H3765 0.950 . S
C3792 C3778 1.377 . S
C3792 C3791 1.373 . S
C3793 C3777 1.377 . S
C3793 C3791 1.389 . S
C3793 C3794 1.524 . S
C3794 C3793 1.524 . S
C3794 C3795 1.397 . S
C3794 C3799 1.363 . S
C3795 H3766 0.950 . S
C3795 C3794 1.397 . S
C3795 C3796 1.334 . S
C3796 H3767 0.950 . S
C3796 C3795 1.334 . S
C3796 C3797 1.287 . S
C3797 C3796 1.287 . S
C3797 C3798 1.524 . S
C3797 H3800 0.999 . S
C3798 H3768 0.950 . S
C3798 C3797 1.524 . S
C3798 C3799 1.415 . S
C3799 H3769 0.950 . S
C3799 C3794 1.363 . S
C3799 C3798 1.415 . S
H3800 C3797 0.999 . S
H3801 C3782 0.913 . S
H3802 C3820 0.951 . S
H3803 C3822 0.951 . S
H3804 C3824 0.950 . S
H3805 C3825 0.973 . S
H3806 C3827 0.950 . S
H3807 C3830 0.950 . S
H3808 C3831 0.950 . S
H3809 C3833 0.950 . S
H3810 C3834 0.950 . S
H3811 C3835 0.951 . S
H3812 C3837 0.951 . S
H3813 C3839 0.950 . S
H3814 C3840 0.950 . S
H3815 C3842 0.950 . S
H3816 C3845 0.950 . S
H3817 C3846 0.950 . S
H3818 C3848 0.950 . S
H3819 C3849 0.950 . S
C3820 H3802 0.951 . S
C3820 C3821 1.366 . S
C3820 C3822 1.388 . S
C3821 C3820 1.366 . S
C3821 C3825 1.385 . S
C3822 H3803 0.951 . S
C3822 C3820 1.388 . S
C3822 C3823 1.366 . S
C3823 C3822 1.366 . S
C3823 C3824 1.414 . S
C3823 C3826 1.499 . S
C3824 H3804 0.950 . S
C3824 C3823 1.414 . S
C3824 C3825 1.374 . S
C3825 H3805 0.973 . S
C3825 C3821 1.385 . S
C3825 C3824 1.374 . S
C3826 C3823 1.499 . S
C3826 C3827 1.373 . S
C3826 C3828 1.389 . S
C3827 H3806 0.950 . S
C3827 C3826 1.373 . S
C3827 C3843 1.377 . S
C3828 C3826 1.389 . S
C3828 C3829 1.524 . S
C3828 C3842 1.377 . S
C3829 C3828 1.524 . S
C3829 C3830 1.397 . S
C3829 C3834 1.363 . S
C3830 H3807 0.950 . S
C3830 C3829 1.397 . S
C3830 C3831 1.334 . S
C3831 H3808 0.950 . S
C3831 C3830 1.334 . S
C3831 C3832 1.287 . S
C3832 C3831 1.287 . S
C3832 C3833 1.524 . S
C3832 H3851 0.913 . S
C3833 H3809 0.950 . S
C3833 C3832 1.524 . S
C3833 C3834 1.415 . S
C3834 H3810 0.950 . S
C3834 C3829 1.363 . S
C3834 C3833 1.415 . S
C3835 H3811 0.951 . S
C3835 C3836 1.366 . S
C3835 C3837 1.388 . S
C3836 C3835 1.366 . S
C3836 C3840 1.385 . S
C3837 H3812 0.951 . S
C3837 C3835 1.388 . S
C3837 C3838 1.366 . S
C3838 C3837 1.366 . S
C3838 C3839 1.414 . S
C3838 C3841 1.499 . S
C3839 H3813 0.950 . S
C3839 C3838 1.414 . S
C3839 C3840 1.374 . S
C3840 H3814 0.950 . S
C3840 C3836 1.385 . S
C3840 C3839 1.374 . S
C3841 C3838 1.499 . S
C3841 C3842 1.373 . S
C3841 C3843 1.389 . S
C3842 H3815 0.950 . S
C3842 C3828 1.377 . S
C3842 C3841 1.373 . S
C3843 C3827 1.377 . S
C3843 C3841 1.389 . S
C3843 C3844 1.524 . S
C3844 C3843 1.524 . S
C3844 C3845 1.397 . S
C3844 C3849 1.363 . S
C3845 H3816 0.950 . S
C3845 C3844 1.397 . S
C3845 C3846 1.334 . S
C3846 H3817 0.950 . S
C3846 C3845 1.334 . S
C3846 C3847 1.287 . S
C3847 C3846 1.287 . S
C3847 C3848 1.524 . S
C3847 H3850 0.999 . S
C3848 H3818 0.950 . S
C3848 C3847 1.524 . S
C3848 C3849 1.415 . S
C3849 H3819 0.950 . S
C3849 C3844 1.363 . S
C3849 C3848 1.415 . S
H3850 C3847 0.999 . S
H3851 C3832 0.913 . S
H3852 C3870 0.951 . S
H3853 C3872 0.951 . S
H3854 C3874 0.950 . S
H3855 C3875 0.950 . S
H3856 C3877 0.950 . S
H3857 C3880 0.950 . S
H3858 C3881 0.950 . S
H3859 C3883 0.950 . S
H3860 C3884 0.950 . S
H3861 C3885 0.951 . S
H3862 C3887 0.951 . S
H3863 C3889 0.950 . S
H3864 C3890 0.950 . S
H3865 C3892 0.950 . S
H3866 C3895 0.950 . S
H3867 C3896 0.950 . S
H3868 C3898 0.950 . S
H3869 C3899 0.950 . S
C3870 H3852 0.951 . S
C3870 C3871 1.366 . S
C3870 C3872 1.388 . S
C3871 C3870 1.366 . S
C3871 C3875 1.385 . S
C3872 H3853 0.951 . S
C3872 C3870 1.388 . S
C3872 C3873 1.366 . S
C3873 C3872 1.366 . S
C3873 C3874 1.414 . S
C3873 C3876 1.499 . S
C3874 H3854 0.950 . S
C3874 C3873 1.414 . S
C3874 C3875 1.374 . S
C3875 H3855 0.950 . S
C3875 C3871 1.385 . S
C3875 C3874 1.374 . S
C3876 C3873 1.499 . S
C3876 C3877 1.373 . S
C3876 C3878 1.389 . S
C3877 H3856 0.950 . S
C3877 C3876 1.373 . S
C3877 C3893 1.377 . S
C3878 C3876 1.389 . S
C3878 C3879 1.524 . S
C3878 C3892 1.377 . S
C3879 C3878 1.524 . S
C3879 C3880 1.397 . S
C3879 C3884 1.363 . S
C3880 H3857 0.950 . S
C3880 C3879 1.397 . S
C3880 C3881 1.334 . S
C3881 H3858 0.950 . S
C3881 C3880 1.334 . S
C3881 C3882 1.287 . S
C3882 C3881 1.287 . S
C3882 C3883 1.524 . S
C3882 H3901 0.913 . S
C3883 H3859 0.950 . S
C3883 C3882 1.524 . S
C3883 C3884 1.415 . S
C3884 H3860 0.950 . S
C3884 C3879 1.363 . S
C3884 C3883 1.415 . S
C3885 H3861 0.951 . S
C3885 C3886 1.366 . S
C3885 C3887 1.388 . S
C3886 C3885 1.366 . S
C3886 C3890 1.385 . S
C3887 H3862 0.951 . S
C3887 C3885 1.388 . S
C3887 C3888 1.366 . S
C3888 C3887 1.366 . S
C3888 C3889 1.414 . S
C3888 C3891 1.499 . S
C3889 H3863 0.950 . S
C3889 C3888 1.414 . S
C3889 C3890 1.374 . S
C3890 H3864 0.950 . S
C3890 C3886 1.385 . S
C3890 C3889 1.374 . S
C3891 C3888 1.499 . S
C3891 C3892 1.373 . S
C3891 C3893 1.389 . S
C3892 H3865 0.950 . S
C3892 C3878 1.377 . S
C3892 C3891 1.373 . S
C3893 C3877 1.377 . S
C3893 C3891 1.389 . S
C3893 C3894 1.524 . S
C3894 C3893 1.524 . S
C3894 C3895 1.397 . S
C3894 C3899 1.363 . S
C3895 H3866 0.950 . S
C3895 C3894 1.397 . S
C3895 C3896 1.334 . S
C3896 H3867 0.950 . S
C3896 C3895 1.334 . S
C3896 C3897 1.287 . S
C3897 C3896 1.287 . S
C3897 C3898 1.524 . S
C3897 H3900 0.999 . S
C3898 H3868 0.950 . S
C3898 C3897 1.524 . S
C3898 C3899 1.415 . S
C3899 H3869 0.950 . S
C3899 C3894 1.363 . S
C3899 C3898 1.415 . S
H3900 C3897 0.999 . S
H3901 C3882 0.913 . S
H3902 C3920 0.951 . S
H3903 C3922 0.951 . S
H3904 C3924 0.950 . S
H3905 C3925 0.950 . S
H3906 C3927 0.950 . S
H3907 C3930 0.950 . S
H3908 C3931 0.950 . S
H3909 C3933 0.950 . S
H3910 C3934 0.950 . S
H3911 C3935 0.951 . S
H3912 C3937 0.951 . S
H3913 C3939 0.950 . S
H3914 C3940 0.950 . S
H3915 C3942 0.950 . S
H3916 C3945 0.950 . S
H3917 C3946 0.950 . S
H3918 C3948 0.950 . S
H3919 C3949 0.950 . S
C3920 H3902 0.951 . S
C3920 C3921 1.366 . S
C3920 C3922 1.388 . S
C3921 C3920 1.366 . S
C3921 C3925 1.385 . S
C3922 H3903 0.951 . S
C3922 C3920 1.388 . S
C3922 C3923 1.366 . S
C3923 C3922 1.366 . S
C3923 C3924 1.414 . S
C3923 C3926 1.499 . S
C3924 H3904 0.950 . S
C3924 C3923 1.414 . S
C3924 C3925 1.374 . S
C3925 H3905 0.950 . S
C3925 C3921 1.385 . S
C3925 C3924 1.374 . S
C3926 C3923 1.499 . S
C3926 C3927 1.373 . S
C3926 C3928 1.389 . S
C3927 H3906 0.950 . S
C3927 C3926 1.373 . S
C3927 C3943 1.377 . S
C3928 C3926 1.389 . S
C3928 C3929 1.524 . S
C3928 C3942 1.377 . S
C3929 C3928 1.524 . S
C3929 C3930 1.397 . S
C3929 C3934 1.363 . S
C3930 H3907 0.950 . S
C3930 C3929 1.397 . S
C3930 C3931 1.334 . S
C3931 H3908 0.950 . S
C3931 C3930 1.334 . S
C3931 C3932 1.287 . S
C3932 C3931 1.287 . S
C3932 C3933 1.524 . S
C3932 H3951 0.913 . S
C3933 H3909 0.950 . S
C3933 C3932 1.524 . S
C3933 C3934 1.415 . S
C3934 H3910 0.950 . S
C3934 C3929 1.363 . S
C3934 C3933 1.415 . S
C3935 H3911 0.951 . S
C3935 C3936 1.366 . S
C3935 C3937 1.388 . S
C3936 C3935 1.366 . S
C3936 C3940 1.385 . S
C3937 H3912 0.951 . S
C3937 C3935 1.388 . S
C3937 C3938 1.366 . S
C3938 C3937 1.366 . S
C3938 C3939 1.414 . S
C3938 C3941 1.499 . S
C3939 H3913 0.950 . S
C3939 C3938 1.414 . S
C3939 C3940 1.374 . S
C3940 H3914 0.950 . S
C3940 C3936 1.385 . S
C3940 C3939 1.374 . S
C3941 C3938 1.499 . S
C3941 C3942 1.373 . S
C3941 C3943 1.389 . S
C3942 H3915 0.950 . S
C3942 C3928 1.377 . S
C3942 C3941 1.373 . S
C3943 C3927 1.377 . S
C3943 C3941 1.389 . S
C3943 C3944 1.524 . S
C3944 C3943 1.524 . S
C3944 C3945 1.397 . S
C3944 C3949 1.363 . S
C3945 H3916 0.950 . S
C3945 C3944 1.397 . S
C3945 C3946 1.334 . S
C3946 H3917 0.950 . S
C3946 C3945 1.334 . S
C3946 C3947 1.287 . S
C3947 C3946 1.287 . S
C3947 C3948 1.524 . S
C3947 H3950 0.999 . S
C3948 H3918 0.950 . S
C3948 C3947 1.524 . S
C3948 C3949 1.415 . S
C3949 H3919 0.950 . S
C3949 C3944 1.363 . S
C3949 C3948 1.415 . S
H3950 C3947 0.999 . S
H3951 C3932 0.913 . S
H3952 C3970 0.951 . S
H3953 C3972 0.951 . S
H3954 C3974 0.950 . S
H3955 C3975 0.950 . S
H3956 C3977 0.950 . S
H3957 C3980 0.950 . S
H3958 C3981 0.950 . S
H3959 C3983 0.950 . S
H3960 C3984 0.950 . S
H3961 C3985 0.951 . S
H3962 C3987 0.951 . S
H3963 C3989 0.950 . S
H3964 C3990 0.950 . S
H3965 C3992 0.950 . S
H3966 C3995 0.950 . S
H3967 C3996 0.950 . S
H3968 C3998 0.950 . S
H3969 C3999 0.950 . S
C3970 H3952 0.951 . S
C3970 C3971 1.366 . S
C3970 C3972 1.388 . S
C3971 C3970 1.366 . S
C3971 C3975 1.385 . S
C3972 H3953 0.951 . S
C3972 C3970 1.388 . S
C3972 C3973 1.366 . S
C3973 C3972 1.366 . S
C3973 C3974 1.414 . S
C3973 C3976 1.499 . S
C3974 H3954 0.950 . S
C3974 C3973 1.414 . S
C3974 C3975 1.374 . S
C3975 H3955 0.950 . S
C3975 C3971 1.385 . S
C3975 C3974 1.374 . S
C3976 C3973 1.499 . S
C3976 C3977 1.373 . S
C3976 C3978 1.389 . S
C3977 H3956 0.950 . S
C3977 C3976 1.373 . S
C3977 C3993 1.377 . S
C3978 C3976 1.389 . S
C3978 C3979 1.524 . S
C3978 C3992 1.377 . S
C3979 C3978 1.524 . S
C3979 C3980 1.397 . S
C3979 C3984 1.363 . S
C3980 H3957 0.950 . S
C3980 C3979 1.397 . S
C3980 C3981 1.334 . S
C3981 H3958 0.950 . S
C3981 C3980 1.334 . S
C3981 C3982 1.287 . S
C3982 C3981 1.287 . S
C3982 C3983 1.524 . S
C3982 H4001 0.913 . S
C3983 H3959 0.950 . S
C3983 C3982 1.524 . S
C3983 C3984 1.415 . S
C3984 H3960 0.950 . S
C3984 C3979 1.363 . S
C3984 C3983 1.415 . S
C3985 H3961 0.951 . S
C3985 C3986 1.366 . S
C3985 C3987 1.388 . S
C3986 C3985 1.366 . S
C3986 C3990 1.385 . S
C3987 H3962 0.951 . S
C3987 C3985 1.388 . S
C3987 C3988 1.366 . S
C3988 C3987 1.366 . S
C3988 C3989 1.414 . S
C3988 C3991 1.499 . S
C3989 H3963 0.950 . S
C3989 C3988 1.414 . S
C3989 C3990 1.374 . S
C3990 H3964 0.950 . S
C3990 C3986 1.385 . S
C3990 C3989 1.374 . S
C3991 C3988 1.499 . S
C3991 C3992 1.373 . S
C3991 C3993 1.389 . S
C3992 H3965 0.950 . S
C3992 C3978 1.377 . S
C3992 C3991 1.373 . S
C3993 C3977 1.377 . S
C3993 C3991 1.389 . S
C3993 C3994 1.524 . S
C3994 C3993 1.524 . S
C3994 C3995 1.397 . S
C3994 C3999 1.363 . S
C3995 H3966 0.950 . S
C3995 C3994 1.397 . S
C3995 C3996 1.334 . S
C3996 H3967 0.950 . S
C3996 C3995 1.334 . S
C3996 C3997 1.287 . S
C3997 C3996 1.287 . S
C3997 C3998 1.524 . S
C3997 H4000 0.999 . S
C3998 H3968 0.950 . S
C3998 C3997 1.524 . S
C3998 C3999 1.415 . S
C3999 H3969 0.950 . S
C3999 C3994 1.363 . S
C3999 C3998 1.415 . S
H4000 C3997 0.999 . S
H4001 C3982 0.913 . S
H4002 C4020 0.951 . S
H4003 C4022 0.951 . S
H4004 C4024 0.950 . S
H4005 C4025 0.950 . S
H4006 C4027 0.950 . S
H4007 C4030 0.950 . S
H4008 C4031 0.950 . S
H4009 C4033 0.950 . S
H4010 C4034 0.950 . S
H4011 C4035 0.951 . S
H4012 C4037 0.951 . S
H4013 C4039 0.950 . S
H4014 C4040 0.950 . S
H4015 C4042 0.950 . S
H4016 C4045 0.950 . S
H4017 C4046 0.950 . S
H4018 C4048 0.950 . S
H4019 C4049 0.950 . S
C4020 H4002 0.951 . S
C4020 C4021 1.366 . S
C4020 C4022 1.388 . S
C4021 C4020 1.366 . S
C4021 C4025 1.385 . S
C4022 H4003 0.951 . S
C4022 C4020 1.388 . S
C4022 C4023 1.366 . S
C4023 C4022 1.366 . S
C4023 C4024 1.414 . S
C4023 C4026 1.499 . S
C4024 H4004 0.950 . S
C4024 C4023 1.414 . S
C4024 C4025 1.374 . S
C4025 H4005 0.950 . S
C4025 C4021 1.385 . S
C4025 C4024 1.374 . S
C4026 C4023 1.499 . S
C4026 C4027 1.373 . S
C4026 C4028 1.389 . S
C4027 H4006 0.950 . S
C4027 C4026 1.373 . S
C4027 C4043 1.377 . S
C4028 C4026 1.389 . S
C4028 C4029 1.524 . S
C4028 C4042 1.377 . S
C4029 C4028 1.524 . S
C4029 C4030 1.397 . S
C4029 C4034 1.363 . S
C4030 H4007 0.950 . S
C4030 C4029 1.397 . S
C4030 C4031 1.334 . S
C4031 H4008 0.950 . S
C4031 C4030 1.334 . S
C4031 C4032 1.287 . S
C4032 C4031 1.287 . S
C4032 C4033 1.524 . S
C4032 H4051 0.913 . S
C4033 H4009 0.950 . S
C4033 C4032 1.524 . S
C4033 C4034 1.415 . S
C4034 H4010 0.950 . S
C4034 C4029 1.363 . S
C4034 C4033 1.415 . S
C4035 H4011 0.951 . S
C4035 C4036 1.366 . S
C4035 C4037 1.388 . S
C4036 C4035 1.366 . S
C4036 C4040 1.385 . S
C4037 H4012 0.951 . S
C4037 C4035 1.388 . S
C4037 C4038 1.366 . S
C4038 C4037 1.366 . S
C4038 C4039 1.414 . S
C4038 C4041 1.499 . S
C4039 H4013 0.950 . S
C4039 C4038 1.414 . S
C4039 C4040 1.374 . S
C4040 H4014 0.950 . S
C4040 C4036 1.385 . S
C4040 C4039 1.374 . S
C4041 C4038 1.499 . S
C4041 C4042 1.373 . S
C4041 C4043 1.389 . S
C4042 H4015 0.950 . S
C4042 C4028 1.377 . S
C4042 C4041 1.373 . S
C4043 C4027 1.377 . S
C4043 C4041 1.389 . S
C4043 C4044 1.524 . S
C4044 C4043 1.524 . S
C4044 C4045 1.397 . S
C4044 C4049 1.363 . S
C4045 H4016 0.950 . S
C4045 C4044 1.397 . S
C4045 C4046 1.334 . S
C4046 H4017 0.950 . S
C4046 C4045 1.334 . S
C4046 C4047 1.287 . S
C4047 C4046 1.287 . S
C4047 C4048 1.524 . S
C4047 H4050 0.999 . S
C4048 H4018 0.950 . S
C4048 C4047 1.524 . S
C4048 C4049 1.415 . S
C4049 H4019 0.950 . S
C4049 C4044 1.363 . S
C4049 C4048 1.415 . S
H4050 C4047 0.999 . S
H4051 C4032 0.913 . S
H4052 C4070 0.951 . S
H4053 C4072 0.951 . S
H4054 C4074 0.950 . S
H4055 C4075 0.950 . S
H4056 C4077 0.950 . S
H4057 C4080 0.950 . S
H4058 C4081 0.950 . S
H4059 C4083 0.950 . S
H4060 C4084 0.950 . S
H4061 C4085 0.951 . S
H4062 C4087 0.951 . S
H4063 C4089 0.950 . S
H4064 C4090 0.950 . S
H4065 C4092 0.950 . S
H4066 C4095 0.950 . S
H4067 C4096 0.950 . S
H4068 C4098 0.950 . S
H4069 C4099 0.950 . S
C4070 H4052 0.951 . S
C4070 C4071 1.366 . S
C4070 C4072 1.388 . S
C4071 C4070 1.366 . S
C4071 C4075 1.385 . S
C4072 H4053 0.951 . S
C4072 C4070 1.388 . S
C4072 C4073 1.366 . S
C4073 C4072 1.366 . S
C4073 C4074 1.414 . S
C4073 C4076 1.499 . S
C4074 H4054 0.950 . S
C4074 C4073 1.414 . S
C4074 C4075 1.374 . S
C4075 H4055 0.950 . S
C4075 C4071 1.385 . S
C4075 C4074 1.374 . S
C4076 C4073 1.499 . S
C4076 C4077 1.373 . S
C4076 C4078 1.389 . S
C4077 H4056 0.950 . S
C4077 C4076 1.373 . S
C4077 C4093 1.377 . S
C4078 C4076 1.389 . S
C4078 C4079 1.524 . S
C4078 C4092 1.377 . S
C4079 C4078 1.524 . S
C4079 C4080 1.397 . S
C4079 C4084 1.363 . S
C4080 H4057 0.950 . S
C4080 C4079 1.397 . S
C4080 C4081 1.334 . S
C4081 H4058 0.950 . S
C4081 C4080 1.334 . S
C4081 C4082 1.287 . S
C4082 C4081 1.287 . S
C4082 C4083 1.524 . S
C4082 H4101 0.913 . S
C4083 H4059 0.950 . S
C4083 C4082 1.524 . S
C4083 C4084 1.415 . S
C4084 H4060 0.950 . S
C4084 C4079 1.363 . S
C4084 C4083 1.415 . S
C4085 H4061 0.951 . S
C4085 C4086 1.366 . S
C4085 C4087 1.388 . S
C4086 C4085 1.366 . S
C4086 C4090 1.385 . S
C4087 H4062 0.951 . S
C4087 C4085 1.388 . S
C4087 C4088 1.366 . S
C4088 C4087 1.366 . S
C4088 C4089 1.414 . S
C4088 C4091 1.499 . S
C4089 H4063 0.950 . S
C4089 C4088 1.414 . S
C4089 C4090 1.374 . S
C4090 H4064 0.950 . S
C4090 C4086 1.385 . S
C4090 C4089 1.374 . S
C4091 C4088 1.499 . S
C4091 C4092 1.373 . S
C4091 C4093 1.389 . S
C4092 H4065 0.950 . S
C4092 C4078 1.377 . S
C4092 C4091 1.373 . S
C4093 C4077 1.377 . S
C4093 C4091 1.389 . S
C4093 C4094 1.524 . S
C4094 C4093 1.524 . S
C4094 C4095 1.397 . S
C4094 C4099 1.363 . S
C4095 H4066 0.950 . S
C4095 C4094 1.397 . S
C4095 C4096 1.334 . S
C4096 H4067 0.950 . S
C4096 C4095 1.334 . S
C4096 C4097 1.287 . S
C4097 C4096 1.287 . S
C4097 C4098 1.524 . S
C4097 H4100 0.999 . S
C4098 H4068 0.950 . S
C4098 C4097 1.524 . S
C4098 C4099 1.415 . S
C4099 H4069 0.950 . S
C4099 C4094 1.363 . S
C4099 C4098 1.415 . S
H4100 C4097 0.999 . S
H4101 C4082 0.913 . S
H4102 C4120 0.951 . S
H4103 C4122 0.951 . S
H4104 C4124 0.950 . S
H4105 C4125 0.950 . S
H4106 C4127 0.950 . S
H4107 C4130 0.950 . S
H4108 C4131 0.950 . S
H4109 C4133 0.950 . S
H4110 C4134 0.950 . S
H4111 C4135 0.951 . S
H4112 C4137 0.951 . S
H4113 C4139 0.950 . S
H4114 C4140 0.950 . S
H4115 C4142 0.950 . S
H4116 C4145 0.950 . S
H4117 C4146 0.950 . S
H4118 C4148 0.950 . S
H4119 C4149 0.950 . S
C4120 H4102 0.951 . S
C4120 C4121 1.366 . S
C4120 C4122 1.388 . S
C4121 C4120 1.366 . S
C4121 C4125 1.385 . S
C4122 H4103 0.951 . S
C4122 C4120 1.388 . S
C4122 C4123 1.366 . S
C4123 C4122 1.366 . S
C4123 C4124 1.414 . S
C4123 C4126 1.499 . S
C4124 H4104 0.950 . S
C4124 C4123 1.414 . S
C4124 C4125 1.374 . S
C4125 H4105 0.950 . S
C4125 C4121 1.385 . S
C4125 C4124 1.374 . S
C4126 C4123 1.499 . S
C4126 C4127 1.373 . S
C4126 C4128 1.389 . S
C4127 H4106 0.950 . S
C4127 C4126 1.373 . S
C4127 C4143 1.377 . S
C4128 C4126 1.389 . S
C4128 C4129 1.524 . S
C4128 C4142 1.377 . S
C4129 C4128 1.524 . S
C4129 C4130 1.397 . S
C4129 C4134 1.363 . S
C4130 H4107 0.950 . S
C4130 C4129 1.397 . S
C4130 C4131 1.334 . S
C4131 H4108 0.950 . S
C4131 C4130 1.334 . S
C4131 C4132 1.287 . S
C4132 C4131 1.287 . S
C4132 C4133 1.524 . S
C4132 H4151 0.913 . S
C4133 H4109 0.950 . S
C4133 C4132 1.524 . S
C4133 C4134 1.415 . S
C4134 H4110 0.950 . S
C4134 C4129 1.363 . S
C4134 C4133 1.415 . S
C4135 H4111 0.951 . S
C4135 C4136 1.366 . S
C4135 C4137 1.388 . S
C4136 C4135 1.366 . S
C4136 C4140 1.385 . S
C4137 H4112 0.951 . S
C4137 C4135 1.388 . S
C4137 C4138 1.366 . S
C4138 C4137 1.366 . S
C4138 C4139 1.414 . S
C4138 C4141 1.499 . S
C4139 H4113 0.950 . S
C4139 C4138 1.414 . S
C4139 C4140 1.374 . S
C4140 H4114 0.950 . S
C4140 C4136 1.385 . S
C4140 C4139 1.374 . S
C4141 C4138 1.499 . S
C4141 C4142 1.373 . S
C4141 C4143 1.389 . S
C4142 H4115 0.950 . S
C4142 C4128 1.377 . S
C4142 C4141 1.373 . S
C4143 C4127 1.377 . S
C4143 C4141 1.389 . S
C4143 C4144 1.524 . S
C4144 C4143 1.524 . S
C4144 C4145 1.397 . S
C4144 C4149 1.363 . S
C4145 H4116 0.950 . S
C4145 C4144 1.397 . S
C4145 C4146 1.334 . S
C4146 H4117 0.950 . S
C4146 C4145 1.334 . S
C4146 C4147 1.287 . S
C4147 C4146 1.287 . S
C4147 C4148 1.524 . S
C4147 H4150 0.999 . S
C4148 H4118 0.950 . S
C4148 C4147 1.524 . S
C4148 C4149 1.415 . S
C4149 H4119 0.950 . S
C4149 C4144 1.363 . S
C4149 C4148 1.415 . S
H4150 C4147 0.999 . S
H4151 C4132 0.913 . S
H4152 C4170 0.951 . S
H4153 C4172 0.951 . S
H4154 C4174 0.950 . S
H4155 C4175 0.950 . S
H4156 C4177 0.950 . S
H4157 C4180 0.950 . S
H4158 C4181 0.950 . S
H4159 C4183 0.950 . S
H4160 C4184 0.950 . S
H4161 C4185 0.951 . S
H4162 C4187 0.951 . S
H4163 C4189 0.950 . S
H4164 C4190 0.950 . S
H4165 C4192 0.950 . S
H4166 C4195 0.950 . S
H4167 C4196 0.950 . S
H4168 C4198 0.950 . S
H4169 C4199 0.950 . S
C4170 H4152 0.951 . S
C4170 C4171 1.366 . S
C4170 C4172 1.388 . S
C4171 C4170 1.366 . S
C4171 C4175 1.385 . S
C4172 H4153 0.951 . S
C4172 C4170 1.388 . S
C4172 C4173 1.366 . S
C4173 C4172 1.366 . S
C4173 C4174 1.414 . S
C4173 C4176 1.499 . S
C4174 H4154 0.950 . S
C4174 C4173 1.414 . S
C4174 C4175 1.374 . S
C4175 H4155 0.950 . S
C4175 C4171 1.385 . S
C4175 C4174 1.374 . S
C4176 C4173 1.499 . S
C4176 C4177 1.373 . S
C4176 C4178 1.389 . S
C4177 H4156 0.950 . S
C4177 C4176 1.373 . S
C4177 C4193 1.377 . S
C4178 C4176 1.389 . S
C4178 C4179 1.524 . S
C4178 C4192 1.377 . S
C4179 C4178 1.524 . S
C4179 C4180 1.397 . S
C4179 C4184 1.363 . S
C4180 H4157 0.950 . S
C4180 C4179 1.397 . S
C4180 C4181 1.334 . S
C4181 H4158 0.950 . S
C4181 C4180 1.334 . S
C4181 C4182 1.287 . S
C4182 C4181 1.287 . S
C4182 C4183 1.524 . S
C4182 H4201 0.913 . S
C4183 H4159 0.950 . S
C4183 C4182 1.524 . S
C4183 C4184 1.415 . S
C4184 H4160 0.950 . S
C4184 C4179 1.363 . S
C4184 C4183 1.415 . S
C4185 H4161 0.951 . S
C4185 C4186 1.366 . S
C4185 C4187 1.388 . S
C4186 C4185 1.366 . S
C4186 C4190 1.385 . S
C4187 H4162 0.951 . S
C4187 C4185 1.388 . S
C4187 C4188 1.366 . S
C4188 C4187 1.366 . S
C4188 C4189 1.414 . S
C4188 C4191 1.499 . S
C4189 H4163 0.950 . S
C4189 C4188 1.414 . S
C4189 C4190 1.374 . S
C4190 H4164 0.950 . S
C4190 C4186 1.385 . S
C4190 C4189 1.374 . S
C4191 C4188 1.499 . S
C4191 C4192 1.373 . S
C4191 C4193 1.389 . S
C4192 H4165 0.950 . S
C4192 C4178 1.377 . S
C4192 C4191 1.373 . S
C4193 C4177 1.377 . S
C4193 C4191 1.389 . S
C4193 C4194 1.524 . S
C4194 C4193 1.524 . S
C4194 C4195 1.397 . S
C4194 C4199 1.363 . S
C4195 H4166 0.950 . S
C4195 C4194 1.397 . S
C4195 C4196 1.334 . S
C4196 H4167 0.950 . S
C4196 C4195 1.334 . S
C4196 C4197 1.287 . S
C4197 C4196 1.287 . S
C4197 C4198 1.524 . S
C4197 H4200 0.999 . S
C4198 H4168 0.950 . S
C4198 C4197 1.524 . S
C4198 C4199 1.415 . S
C4199 H4169 0.950 . S
C4199 C4194 1.363 . S
C4199 C4198 1.415 . S
H4200 C4197 0.999 . S
H4201 C4182 0.913 . S
H4202 C4220 0.951 . S
H4203 C4222 0.951 . S
H4204 C4224 0.950 . S
H4205 C4225 0.950 . S
H4206 C4227 0.950 . S
H4207 C4230 0.950 . S
H4208 C4231 0.950 . S
H4209 C4233 0.950 . S
H4210 C4234 0.950 . S
H4211 C4235 0.951 . S
H4212 C4237 0.951 . S
H4213 C4239 0.950 . S
H4214 C4240 0.950 . S
H4215 C4242 0.950 . S
H4216 C4245 0.950 . S
H4217 C4246 0.950 . S
H4218 C4248 0.950 . S
H4219 C4249 0.950 . S
C4220 H4202 0.951 . S
C4220 C4221 1.366 . S
C4220 C4222 1.388 . S
C4221 C4220 1.366 . S
C4221 C4225 1.385 . S
C4222 H4203 0.951 . S
C4222 C4220 1.388 . S
C4222 C4223 1.366 . S
C4223 C4222 1.366 . S
C4223 C4224 1.414 . S
C4223 C4226 1.499 . S
C4224 H4204 0.950 . S
C4224 C4223 1.414 . S
C4224 C4225 1.374 . S
C4225 H4205 0.950 . S
C4225 C4221 1.385 . S
C4225 C4224 1.374 . S
C4226 C4223 1.499 . S
C4226 C4227 1.373 . S
C4226 C4228 1.389 . S
C4227 H4206 0.950 . S
C4227 C4226 1.373 . S
C4227 C4243 1.377 . S
C4228 C4226 1.389 . S
C4228 C4229 1.524 . S
C4228 C4242 1.377 . S
C4229 C4228 1.524 . S
C4229 C4230 1.397 . S
C4229 C4234 1.363 . S
C4230 H4207 0.950 . S
C4230 C4229 1.397 . S
C4230 C4231 1.334 . S
C4231 H4208 0.950 . S
C4231 C4230 1.334 . S
C4231 C4232 1.287 . S
C4232 C4231 1.287 . S
C4232 C4233 1.524 . S
C4232 H4251 0.913 . S
C4233 H4209 0.950 . S
C4233 C4232 1.524 . S
C4233 C4234 1.415 . S
C4234 H4210 0.950 . S
C4234 C4229 1.363 . S
C4234 C4233 1.415 . S
C4235 H4211 0.951 . S
C4235 C4236 1.366 . S
C4235 C4237 1.388 . S
C4236 C4235 1.366 . S
C4236 C4240 1.385 . S
C4237 H4212 0.951 . S
C4237 C4235 1.388 . S
C4237 C4238 1.366 . S
C4238 C4237 1.366 . S
C4238 C4239 1.414 . S
C4238 C4241 1.499 . S
C4239 H4213 0.950 . S
C4239 C4238 1.414 . S
C4239 C4240 1.374 . S
C4240 H4214 0.950 . S
C4240 C4236 1.385 . S
C4240 C4239 1.374 . S
C4241 C4238 1.499 . S
C4241 C4242 1.373 . S
C4241 C4243 1.389 . S
C4242 H4215 0.950 . S
C4242 C4228 1.377 . S
C4242 C4241 1.373 . S
C4243 C4227 1.377 . S
C4243 C4241 1.389 . S
C4243 C4244 1.524 . S
C4244 C4243 1.524 . S
C4244 C4245 1.397 . S
C4244 C4249 1.363 . S
C4245 H4216 0.950 . S
C4245 C4244 1.397 . S
C4245 C4246 1.334 . S
C4246 H4217 0.950 . S
C4246 C4245 1.334 . S
C4246 C4247 1.287 . S
C4247 C4246 1.287 . S
C4247 C4248 1.524 . S
C4247 H4250 0.999 . S
C4248 H4218 0.950 . S
C4248 C4247 1.524 . S
C4248 C4249 1.415 . S
C4249 H4219 0.950 . S
C4249 C4244 1.363 . S
C4249 C4248 1.415 . S
H4250 C4247 0.999 . S
H4251 C4232 0.913 . S
H4252 C4270 0.951 . S
H4253 C4272 0.951 . S
H4254 C4274 0.950 . S
H4255 C4275 0.950 . S
H4256 C4277 0.950 . S
H4257 C4280 0.950 . S
H4258 C4281 0.950 . S
H4259 C4283 0.950 . S
H4260 C4284 0.950 . S
H4261 C4285 0.951 . S
H4262 C4287 0.951 . S
H4263 C4289 0.950 . S
H4264 C4290 0.950 . S
H4265 C4292 0.950 . S
H4266 C4295 0.950 . S
H4267 C4296 0.950 . S
H4268 C4298 0.950 . S
H4269 C4299 0.950 . S
C4270 H4252 0.951 . S
C4270 C4271 1.366 . S
C4270 C4272 1.388 . S
C4271 C4270 1.366 . S
C4271 C4275 1.385 . S
C4272 H4253 0.951 . S
C4272 C4270 1.388 . S
C4272 C4273 1.366 . S
C4273 C4272 1.366 . S
C4273 C4274 1.414 . S
C4273 C4276 1.499 . S
C4274 H4254 0.950 . S
C4274 C4273 1.414 . S
C4274 C4275 1.374 . S
C4275 H4255 0.950 . S
C4275 C4271 1.385 . S
C4275 C4274 1.374 . S
C4276 C4273 1.499 . S
C4276 C4277 1.373 . S
C4276 C4278 1.389 . S
C4277 H4256 0.950 . S
C4277 C4276 1.373 . S
C4277 C4293 1.377 . S
C4278 C4276 1.389 . S
C4278 C4279 1.524 . S
C4278 C4292 1.377 . S
C4279 C4278 1.524 . S
C4279 C4280 1.397 . S
C4279 C4284 1.363 . S
C4280 H4257 0.950 . S
C4280 C4279 1.397 . S
C4280 C4281 1.334 . S
C4281 H4258 0.950 . S
C4281 C4280 1.334 . S
C4281 C4282 1.287 . S
C4282 C4281 1.287 . S
C4282 C4283 1.524 . S
C4282 H4301 0.913 . S
C4283 H4259 0.950 . S
C4283 C4282 1.524 . S
C4283 C4284 1.415 . S
C4284 H4260 0.950 . S
C4284 C4279 1.363 . S
C4284 C4283 1.415 . S
C4285 H4261 0.951 . S
C4285 C4286 1.366 . S
C4285 C4287 1.388 . S
C4286 C4285 1.366 . S
C4286 C4290 1.385 . S
C4287 H4262 0.951 . S
C4287 C4285 1.388 . S
C4287 C4288 1.366 . S
C4288 C4287 1.366 . S
C4288 C4289 1.414 . S
C4288 C4291 1.499 . S
C4289 H4263 0.950 . S
C4289 C4288 1.414 . S
C4289 C4290 1.374 . S
C4290 H4264 0.950 . S
C4290 C4286 1.385 . S
C4290 C4289 1.374 . S
C4291 C4288 1.499 . S
C4291 C4292 1.373 . S
C4291 C4293 1.389 . S
C4292 H4265 0.950 . S
C4292 C4278 1.377 . S
C4292 C4291 1.373 . S
C4293 C4277 1.377 . S
C4293 C4291 1.389 . S
C4293 C4294 1.524 . S
C4294 C4293 1.524 . S
C4294 C4295 1.397 . S
C4294 C4299 1.363 . S
C4295 H4266 0.950 . S
C4295 C4294 1.397 . S
C4295 C4296 1.334 . S
C4296 H4267 0.950 . S
C4296 C4295 1.334 . S
C4296 C4297 1.287 . S
C4297 C4296 1.287 . S
C4297 C4298 1.524 . S
C4297 H4300 0.999 . S
C4298 H4268 0.950 . S
C4298 C4297 1.524 . S
C4298 C4299 1.415 . S
C4299 H4269 0.950 . S
C4299 C4294 1.363 . S
C4299 C4298 1.415 . S
H4300 C4297 0.999 . S
H4301 C4282 0.913 . S
H4302 C4320 0.951 . S
H4303 C4322 0.951 . S
H4304 C4324 0.950 . S
H4305 C4325 0.950 . S
H4306 C4327 0.950 . S
H4307 C4330 0.950 . S
H4308 C4331 0.950 . S
H4309 C4333 0.980 . S
H4310 C4334 0.964 . S
H4311 C4335 0.951 . S
H4312 C4337 0.950 . S
H4313 C4339 0.950 . S
H4314 C4340 0.950 . S
H4315 C4342 0.950 1_545 S
H4316 C4345 0.986 . S
H4317 C4346 0.950 . S
H4318 C4348 0.950 . S
H4319 C4349 0.950 . S
C4320 H4302 0.951 . S
C4320 C4321 1.366 . S
C4320 C4322 1.388 . S
C4321 C4320 1.366 . S
C4321 C4325 1.385 . S
C4322 H4303 0.951 . S
C4322 C4320 1.388 . S
C4322 C4323 1.366 . S
C4323 C4322 1.366 . S
C4323 C4324 1.414 . S
C4323 C4326 1.499 . S
C4324 H4304 0.950 . S
C4324 C4323 1.414 . S
C4324 C4325 1.374 . S
C4325 H4305 0.950 . S
C4325 C4321 1.385 . S
C4325 C4324 1.374 . S
C4326 C4323 1.499 . S
C4326 C4327 1.373 . S
C4326 C4328 1.389 1_554 S
C4327 H4306 0.950 . S
C4327 C4326 1.373 . S
C4327 C4343 1.377 . S
C4328 C4326 1.389 1_556 S
C4328 C4329 1.524 . S
C4328 C4342 1.377 . S
C4329 C4328 1.524 . S
C4329 C4330 1.397 . S
C4329 C4334 1.344 1_565 S
C4330 H4307 0.950 . S
C4330 C4329 1.397 . S
C4330 C4331 1.334 . S
C4331 H4308 0.950 . S
C4331 C4330 1.334 . S
C4331 C4332 1.287 . S
C4332 C4331 1.287 . S
C4332 C4333 1.498 1_565 S
C4332 H4351 0.913 . S
C4333 H4309 0.980 . S
C4333 C4332 1.498 1_545 S
C4333 C4334 1.411 . S
C4334 H4310 0.964 . S
C4334 C4329 1.344 1_545 S
C4334 C4333 1.411 . S
C4335 H4311 0.951 . S
C4335 C4336 1.366 . S
C4335 C4337 1.388 1_545 S
C4336 C4335 1.366 . S
C4336 C4340 1.385 . S
C4337 H4312 0.950 . S
C4337 C4335 1.388 1_565 S
C4337 C4338 1.366 1_565 S
C4338 C4337 1.366 1_545 S
C4338 C4339 1.414 . S
C4338 C4341 1.499 1_545 S
C4339 H4313 0.950 . S
C4339 C4338 1.414 . S
C4339 C4340 1.374 . S
C4340 H4314 0.950 . S
C4340 C4336 1.385 . S
C4340 C4339 1.374 . S
C4341 C4338 1.499 1_565 S
C4341 C4342 1.373 1_554 S
C4341 C4343 1.389 . S
C4342 H4315 0.950 1_565 S
C4342 C4328 1.377 . S
C4342 C4341 1.373 1_556 S
C4343 C4327 1.377 . S
C4343 C4341 1.389 . S
C4343 C4344 1.524 . S
C4344 C4343 1.524 . S
C4344 C4345 1.369 1_565 S
C4344 C4349 1.363 . S
C4345 H4316 0.986 . S
C4345 C4344 1.369 1_545 S
C4345 C4346 1.327 . S
C4346 H4317 0.950 . S
C4346 C4345 1.327 . S
C4346 C4347 1.287 1_545 S
C4347 C4346 1.287 1_565 S
C4347 C4348 1.524 . S
C4347 H4350 0.999 . S
C4348 H4318 0.950 . S
C4348 C4347 1.524 . S
C4348 C4349 1.415 . S
C4349 H4319 0.950 . S
C4349 C4344 1.363 . S
C4349 C4348 1.415 . S
H4350 C4347 0.999 . S
H4351 C4332 0.913 . S
H4352 C4370 0.951 . S
H4353 C4372 0.951 . S
H4354 C4374 0.950 . S
H4355 C4375 0.950 . S
H4356 C4377 0.950 . S
H4357 C4380 0.950 . S
H4358 C4381 0.950 . S
H4359 C4383 0.950 . S
H4360 C4384 0.950 . S
H4361 C4385 0.951 . S
H4362 C4387 0.951 . S
H4363 C4389 0.950 . S
H4364 C4390 0.950 . S
H4365 C4392 0.950 . S
H4366 C4395 0.950 . S
H4367 C4396 0.950 . S
H4368 C4398 0.950 . S
H4369 C4399 0.950 . S
C4370 H4352 0.951 . S
C4370 C4371 1.366 . S
C4370 C4372 1.388 . S
C4371 C4370 1.366 . S
C4371 C4375 1.385 . S
C4372 H4353 0.951 . S
C4372 C4370 1.388 . S
C4372 C4373 1.366 . S
C4373 C4372 1.366 . S
C4373 C4374 1.414 . S
C4373 C4376 1.499 . S
C4374 H4354 0.950 . S
C4374 C4373 1.414 . S
C4374 C4375 1.374 . S
C4375 H4355 0.950 . S
C4375 C4371 1.385 . S
C4375 C4374 1.374 . S
C4376 C4373 1.499 . S
C4376 C4377 1.373 . S
C4376 C4378 1.389 . S
C4377 H4356 0.950 . S
C4377 C4376 1.373 . S
C4377 C4393 1.377 . S
C4378 C4376 1.389 . S
C4378 C4379 1.524 . S
C4378 C4392 1.377 . S
C4379 C4378 1.524 . S
C4379 C4380 1.397 . S
C4379 C4384 1.363 . S
C4380 H4357 0.950 . S
C4380 C4379 1.397 . S
C4380 C4381 1.334 . S
C4381 H4358 0.950 . S
C4381 C4380 1.334 . S
C4381 C4382 1.287 . S
C4382 C4381 1.287 . S
C4382 C4383 1.524 . S
C4382 H4401 0.913 . S
C4383 H4359 0.950 . S
C4383 C4382 1.524 . S
C4383 C4384 1.415 . S
C4384 H4360 0.950 . S
C4384 C4379 1.363 . S
C4384 C4383 1.415 . S
C4385 H4361 0.951 . S
C4385 C4386 1.366 . S
C4385 C4387 1.388 . S
C4386 C4385 1.366 . S
C4386 C4390 1.385 . S
C4387 H4362 0.951 . S
C4387 C4385 1.388 . S
C4387 C4388 1.366 . S
C4388 C4387 1.366 . S
C4388 C4389 1.414 . S
C4388 C4391 1.499 . S
C4389 H4363 0.950 . S
C4389 C4388 1.414 . S
C4389 C4390 1.374 . S
C4390 H4364 0.950 . S
C4390 C4386 1.385 . S
C4390 C4389 1.374 . S
C4391 C4388 1.499 . S
C4391 C4392 1.373 . S
C4391 C4393 1.389 . S
C4392 H4365 0.950 . S
C4392 C4378 1.377 . S
C4392 C4391 1.373 . S
C4393 C4377 1.377 . S
C4393 C4391 1.389 . S
C4393 C4394 1.524 . S
C4394 C4393 1.524 . S
C4394 C4395 1.397 . S
C4394 C4399 1.363 . S
C4395 H4366 0.950 . S
C4395 C4394 1.397 . S
C4395 C4396 1.334 . S
C4396 H4367 0.950 . S
C4396 C4395 1.334 . S
C4396 C4397 1.287 . S
C4397 C4396 1.287 . S
C4397 C4398 1.524 . S
C4397 H4400 0.999 . S
C4398 H4368 0.950 . S
C4398 C4397 1.524 . S
C4398 C4399 1.415 . S
C4399 H4369 0.950 . S
C4399 C4394 1.363 . S
C4399 C4398 1.415 . S
H4400 C4397 0.999 . S
H4401 C4382 0.913 . S
H4402 C4420 0.951 1_556 S
H4403 C4422 0.931 1_556 S
H4404 C4424 0.950 . S
H4405 C4425 0.950 . S
H4406 C4427 0.950 . S
H4407 C4430 0.950 . S
H4408 C4431 0.961 . S
H4409 C4433 0.950 . S
H4410 C4434 0.950 . S
H4411 C4435 0.951 . S
H4412 C4437 0.951 . S
H4413 C4439 0.950 . S
H4414 C4440 0.950 . S
H4415 C4442 0.950 . S
H4416 C4445 0.950 . S
H4417 C4446 0.950 . S
H4418 C4448 0.950 . S
H4419 C4449 0.950 . S
C4420 H4402 0.951 1_554 S
C4420 C4421 1.366 . S
C4420 C4422 1.388 . S
C4421 C4420 1.366 . S
C4421 C4425 1.385 . S
C4422 H4403 0.931 1_554 S
C4422 C4420 1.388 . S
C4422 C4423 1.366 . S
C4423 C4422 1.366 . S
C4423 C4424 1.414 . S
C4423 C4426 1.499 . S
C4424 H4404 0.950 . S
C4424 C4423 1.414 . S
C4424 C4425 1.374 . S
C4425 H4405 0.950 . S
C4425 C4421 1.385 . S
C4425 C4424 1.374 . S
C4426 C4423 1.499 . S
C4426 C4427 1.373 . S
C4426 C4428 1.389 . S
C4427 H4406 0.950 . S
C4427 C4426 1.373 . S
C4427 C4443 1.377 . S
C4428 C4426 1.389 . S
C4428 C4429 1.524 . S
C4428 C4442 1.377 . S
C4429 C4428 1.524 . S
C4429 C4430 1.397 . S
C4429 C4434 1.363 1_554 S
C4430 H4407 0.950 . S
C4430 C4429 1.397 . S
C4430 C4431 1.349 . S
C4431 H4408 0.961 . S
C4431 C4430 1.349 . S
C4431 C4432 1.262 1_554 S
C4432 C4431 1.262 1_556 S
C4432 C4433 1.524 . S
C4432 H4451 0.913 . S
C4433 H4409 0.950 . S
C4433 C4432 1.524 . S
C4433 C4434 1.415 . S
C4434 H4410 0.950 . S
C4434 C4429 1.363 1_556 S
C4434 C4433 1.415 . S
C4435 H4411 0.951 . S
C4435 C4436 1.366 . S
C4435 C4437 1.388 . S
C4436 C4435 1.366 . S
C4436 C4440 1.385 . S
C4437 H4412 0.951 . S
C4437 C4435 1.388 . S
C4437 C4438 1.366 . S
C4438 C4437 1.366 . S
C4438 C4439 1.414 . S
C4438 C4441 1.499 . S
C4439 H4413 0.950 . S
C4439 C4438 1.414 . S
C4439 C4440 1.374 . S
C4440 H4414 0.950 . S
C4440 C4436 1.385 . S
C4440 C4439 1.374 . S
C4441 C4438 1.499 . S
C4441 C4442 1.373 . S
C4441 C4443 1.389 . S
C4442 H4415 0.950 . S
C4442 C4428 1.377 . S
C4442 C4441 1.373 . S
C4443 C4427 1.377 . S
C4443 C4441 1.389 . S
C4443 C4444 1.524 . S
C4444 C4443 1.524 . S
C4444 C4445 1.397 . S
C4444 C4449 1.363 . S
C4445 H4416 0.950 . S
C4445 C4444 1.397 . S
C4445 C4446 1.334 . S
C4446 H4417 0.950 . S
C4446 C4445 1.334 . S
C4446 C4447 1.287 . S
C4447 C4446 1.287 . S
C4447 C4448 1.524 . S
C4447 H4450 0.999 . S
C4448 H4418 0.950 . S
C4448 C4447 1.524 . S
C4448 C4449 1.415 . S
C4449 H4419 0.950 . S
C4449 C4444 1.363 . S
C4449 C4448 1.415 . S
H4450 C4447 0.999 . S
H4451 C4432 0.913 . S
H4452 C4470 0.951 . S
H4453 C4472 0.951 . S
H4454 C4474 0.950 . S
H4455 C4475 0.950 . S
H4456 C4477 0.950 . S
H4457 C4480 0.950 . S
H4458 C4481 0.950 . S
H4459 C4483 0.950 . S
H4460 C4484 0.950 . S
H4461 C4485 0.951 . S
H4462 C4487 0.951 . S
H4463 C4489 0.950 . S
H4464 C4490 0.950 . S
H4465 C4492 0.950 . S
H4466 C4495 0.950 . S
H4467 C4496 0.950 . S
H4468 C4498 0.950 . S
H4469 C4499 0.950 . S
C4470 H4452 0.951 . S
C4470 C4471 1.366 . S
C4470 C4472 1.388 . S
C4471 C4470 1.366 . S
C4471 C4475 1.385 . S
C4472 H4453 0.951 . S
C4472 C4470 1.388 . S
C4472 C4473 1.366 . S
C4473 C4472 1.366 . S
C4473 C4474 1.414 . S
C4473 C4476 1.499 . S
C4474 H4454 0.950 . S
C4474 C4473 1.414 . S
C4474 C4475 1.374 . S
C4475 H4455 0.950 . S
C4475 C4471 1.385 . S
C4475 C4474 1.374 . S
C4476 C4473 1.499 . S
C4476 C4477 1.373 . S
C4476 C4478 1.389 . S
C4477 H4456 0.950 . S
C4477 C4476 1.373 . S
C4477 C4493 1.377 . S
C4478 C4476 1.389 . S
C4478 C4479 1.524 . S
C4478 C4492 1.377 . S
C4479 C4478 1.524 . S
C4479 C4480 1.397 . S
C4479 C4484 1.363 . S
C4480 H4457 0.950 . S
C4480 C4479 1.397 . S
C4480 C4481 1.334 . S
C4481 H4458 0.950 . S
C4481 C4480 1.334 . S
C4481 C4482 1.287 . S
C4482 C4481 1.287 . S
C4482 C4483 1.524 . S
C4482 H4501 0.913 . S
C4483 H4459 0.950 . S
C4483 C4482 1.524 . S
C4483 C4484 1.415 . S
C4484 H4460 0.950 . S
C4484 C4479 1.363 . S
C4484 C4483 1.415 . S
C4485 H4461 0.951 . S
C4485 C4486 1.366 . S
C4485 C4487 1.388 . S
C4486 C4485 1.366 . S
C4486 C4490 1.385 . S
C4487 H4462 0.951 . S
C4487 C4485 1.388 . S
C4487 C4488 1.366 . S
C4488 C4487 1.366 . S
C4488 C4489 1.414 . S
C4488 C4491 1.499 . S
C4489 H4463 0.950 . S
C4489 C4488 1.414 . S
C4489 C4490 1.374 . S
C4490 H4464 0.950 . S
C4490 C4486 1.385 . S
C4490 C4489 1.374 . S
C4491 C4488 1.499 . S
C4491 C4492 1.373 . S
C4491 C4493 1.389 . S
C4492 H4465 0.950 . S
C4492 C4478 1.377 . S
C4492 C4491 1.373 . S
C4493 C4477 1.377 . S
C4493 C4491 1.389 . S
C4493 C4494 1.524 . S
C4494 C4493 1.524 . S
C4494 C4495 1.397 . S
C4494 C4499 1.363 . S
C4495 H4466 0.950 . S
C4495 C4494 1.397 . S
C4495 C4496 1.334 . S
C4496 H4467 0.950 . S
C4496 C4495 1.334 . S
C4496 C4497 1.287 . S
C4497 C4496 1.287 . S
C4497 C4498 1.524 . S
C4497 H4500 0.999 . S
C4498 H4468 0.950 . S
C4498 C4497 1.524 . S
C4498 C4499 1.415 . S
C4499 H4469 0.950 . S
C4499 C4494 1.363 . S
C4499 C4498 1.415 . S
H4500 C4497 0.999 . S
H4501 C4482 0.913 . S
H4502 C4520 0.951 . S
H4503 C4522 0.951 . S
H4504 C4524 0.950 . S
H4505 C4525 0.950 . S
H4506 C4527 0.950 . S
H4507 C4530 0.950 . S
H4508 C4531 0.950 . S
H4509 C4533 0.950 . S
H4510 C4534 0.950 . S
H4511 C4535 0.951 . S
H4512 C4537 0.951 . S
H4513 C4539 0.950 . S
H4514 C4540 0.950 . S
H4515 C4542 0.950 . S
H4516 C4545 0.950 . S
H4517 C4546 0.950 . S
H4518 C4548 0.950 . S
H4519 C4549 0.950 . S
C4520 H4502 0.951 . S
C4520 C4521 1.366 . S
C4520 C4522 1.388 . S
C4521 C4520 1.366 . S
C4521 C4525 1.385 . S
C4522 H4503 0.951 . S
C4522 C4520 1.388 . S
C4522 C4523 1.366 . S
C4523 C4522 1.366 . S
C4523 C4524 1.414 . S
C4523 C4526 1.499 . S
C4524 H4504 0.950 . S
C4524 C4523 1.414 . S
C4524 C4525 1.374 . S
C4525 H4505 0.950 . S
C4525 C4521 1.385 . S
C4525 C4524 1.374 . S
C4526 C4523 1.499 . S
C4526 C4527 1.373 . S
C4526 C4528 1.389 . S
C4527 H4506 0.950 . S
C4527 C4526 1.373 . S
C4527 C4543 1.377 . S
C4528 C4526 1.389 . S
C4528 C4529 1.524 . S
C4528 C4542 1.377 . S
C4529 C4528 1.524 . S
C4529 C4530 1.397 . S
C4529 C4534 1.363 . S
C4530 H4507 0.950 . S
C4530 C4529 1.397 . S
C4530 C4531 1.334 . S
C4531 H4508 0.950 . S
C4531 C4530 1.334 . S
C4531 C4532 1.287 . S
C4532 C4531 1.287 . S
C4532 C4533 1.524 . S
C4532 H4551 0.913 . S
C4533 H4509 0.950 . S
C4533 C4532 1.524 . S
C4533 C4534 1.415 . S
C4534 H4510 0.950 . S
C4534 C4529 1.363 . S
C4534 C4533 1.415 . S
C4535 H4511 0.951 . S
C4535 C4536 1.366 . S
C4535 C4537 1.388 . S
C4536 C4535 1.366 . S
C4536 C4540 1.385 . S
C4537 H4512 0.951 . S
C4537 C4535 1.388 . S
C4537 C4538 1.366 . S
C4538 C4537 1.366 . S
C4538 C4539 1.414 . S
C4538 C4541 1.499 . S
C4539 H4513 0.950 . S
C4539 C4538 1.414 . S
C4539 C4540 1.374 . S
C4540 H4514 0.950 . S
C4540 C4536 1.385 . S
C4540 C4539 1.374 . S
C4541 C4538 1.499 . S
C4541 C4542 1.373 . S
C4541 C4543 1.389 . S
C4542 H4515 0.950 . S
C4542 C4528 1.377 . S
C4542 C4541 1.373 . S
C4543 C4527 1.377 . S
C4543 C4541 1.389 . S
C4543 C4544 1.524 . S
C4544 C4543 1.524 . S
C4544 C4545 1.397 . S
C4544 C4549 1.363 . S
C4545 H4516 0.950 . S
C4545 C4544 1.397 . S
C4545 C4546 1.334 . S
C4546 H4517 0.950 . S
C4546 C4545 1.334 . S
C4546 C4547 1.287 . S
C4547 C4546 1.287 . S
C4547 C4548 1.524 . S
C4547 H4550 0.999 . S
C4548 H4518 0.950 . S
C4548 C4547 1.524 . S
C4548 C4549 1.415 . S
C4549 H4519 0.950 . S
C4549 C4544 1.363 . S
C4549 C4548 1.415 . S
H4550 C4547 0.999 . S
H4551 C4532 0.913 . S
H4552 C4570 0.951 . S
H4553 C4572 0.951 . S
H4554 C4574 0.950 . S
H4555 C4575 0.950 . S
H4556 C4577 0.950 . S
H4557 C4580 0.950 . S
H4558 C4581 0.950 . S
H4559 C4583 0.950 . S
H4560 C4584 0.950 . S
H4561 C4585 0.951 . S
H4562 C4587 0.951 . S
H4563 C4589 0.950 . S
H4564 C4590 0.950 . S
H4565 C4592 0.950 . S
H4566 C4595 0.950 . S
H4567 C4596 0.950 . S
H4568 C4598 0.950 . S
H4569 C4599 0.950 . S
C4570 H4552 0.951 . S
C4570 C4571 1.366 . S
C4570 C4572 1.388 . S
C4571 C4570 1.366 . S
C4571 C4575 1.385 . S
C4572 H4553 0.951 . S
C4572 C4570 1.388 . S
C4572 C4573 1.366 . S
C4573 C4572 1.366 . S
C4573 C4574 1.414 . S
C4573 C4576 1.499 . S
C4574 H4554 0.950 . S
C4574 C4573 1.414 . S
C4574 C4575 1.374 . S
C4575 H4555 0.950 . S
C4575 C4571 1.385 . S
C4575 C4574 1.374 . S
C4576 C4573 1.499 . S
C4576 C4577 1.373 . S
C4576 C4578 1.389 . S
C4577 H4556 0.950 . S
C4577 C4576 1.373 . S
C4577 C4593 1.377 . S
C4578 C4576 1.389 . S
C4578 C4579 1.524 . S
C4578 C4592 1.377 . S
C4579 C4578 1.524 . S
C4579 C4580 1.397 . S
C4579 C4584 1.363 . S
C4580 H4557 0.950 . S
C4580 C4579 1.397 . S
C4580 C4581 1.334 . S
C4581 H4558 0.950 . S
C4581 C4580 1.334 . S
C4581 C4582 1.287 . S
C4582 C4581 1.287 . S
C4582 C4583 1.524 . S
C4582 H4601 0.913 . S
C4583 H4559 0.950 . S
C4583 C4582 1.524 . S
C4583 C4584 1.415 . S
C4584 H4560 0.950 . S
C4584 C4579 1.363 . S
C4584 C4583 1.415 . S
C4585 H4561 0.951 . S
C4585 C4586 1.366 . S
C4585 C4587 1.388 . S
C4586 C4585 1.366 . S
C4586 C4590 1.385 . S
C4587 H4562 0.951 . S
C4587 C4585 1.388 . S
C4587 C4588 1.366 . S
C4588 C4587 1.366 . S
C4588 C4589 1.414 . S
C4588 C4591 1.499 . S
C4589 H4563 0.950 . S
C4589 C4588 1.414 . S
C4589 C4590 1.374 . S
C4590 H4564 0.950 . S
C4590 C4586 1.385 . S
C4590 C4589 1.374 . S
C4591 C4588 1.499 . S
C4591 C4592 1.373 . S
C4591 C4593 1.389 . S
C4592 H4565 0.950 . S
C4592 C4578 1.377 . S
C4592 C4591 1.373 . S
C4593 C4577 1.377 . S
C4593 C4591 1.389 . S
C4593 C4594 1.524 . S
C4594 C4593 1.524 . S
C4594 C4595 1.397 . S
C4594 C4599 1.363 . S
C4595 H4566 0.950 . S
C4595 C4594 1.397 . S
C4595 C4596 1.334 . S
C4596 H4567 0.950 . S
C4596 C4595 1.334 . S
C4596 C4597 1.287 . S
C4597 C4596 1.287 . S
C4597 C4598 1.524 . S
C4597 H4600 0.999 . S
C4598 H4568 0.950 . S
C4598 C4597 1.524 . S
C4598 C4599 1.415 . S
C4599 H4569 0.950 . S
C4599 C4594 1.363 . S
C4599 C4598 1.415 . S
H4600 C4597 0.999 . S
H4601 C4582 0.913 . S
H4602 C4620 0.951 . S
H4603 C4622 0.951 . S
H4604 C4624 0.950 . S
H4605 C4625 0.950 . S
H4606 C4627 0.950 . S
H4607 C4630 0.950 . S
H4608 C4631 0.950 . S
H4609 C4633 0.950 . S
H4610 C4634 0.950 . S
H4611 C4635 0.951 . S
H4612 C4637 0.951 . S
H4613 C4639 0.950 . S
H4614 C4640 0.950 . S
H4615 C4642 0.950 . S
H4616 C4645 0.950 . S
H4617 C4646 0.950 . S
H4618 C4648 0.950 . S
H4619 C4649 0.950 . S
C4620 H4602 0.951 . S
C4620 C4621 1.366 . S
C4620 C4622 1.388 . S
C4621 C4620 1.366 . S
C4621 C4625 1.385 . S
C4622 H4603 0.951 . S
C4622 C4620 1.388 . S
C4622 C4623 1.366 . S
C4623 C4622 1.366 . S
C4623 C4624 1.414 . S
C4623 C4626 1.499 . S
C4624 H4604 0.950 . S
C4624 C4623 1.414 . S
C4624 C4625 1.374 . S
C4625 H4605 0.950 . S
C4625 C4621 1.385 . S
C4625 C4624 1.374 . S
C4626 C4623 1.499 . S
C4626 C4627 1.373 . S
C4626 C4628 1.389 . S
C4627 H4606 0.950 . S
C4627 C4626 1.373 . S
C4627 C4643 1.377 . S
C4628 C4626 1.389 . S
C4628 C4629 1.524 . S
C4628 C4642 1.377 . S
C4629 C4628 1.524 . S
C4629 C4630 1.397 . S
C4629 C4634 1.363 . S
C4630 H4607 0.950 . S
C4630 C4629 1.397 . S
C4630 C4631 1.334 . S
C4631 H4608 0.950 . S
C4631 C4630 1.334 . S
C4631 C4632 1.287 . S
C4632 C4631 1.287 . S
C4632 C4633 1.524 . S
C4632 H4651 0.913 . S
C4633 H4609 0.950 . S
C4633 C4632 1.524 . S
C4633 C4634 1.415 . S
C4634 H4610 0.950 . S
C4634 C4629 1.363 . S
C4634 C4633 1.415 . S
C4635 H4611 0.951 . S
C4635 C4636 1.366 . S
C4635 C4637 1.388 . S
C4636 C4635 1.366 . S
C4636 C4640 1.385 . S
C4637 H4612 0.951 . S
C4637 C4635 1.388 . S
C4637 C4638 1.366 . S
C4638 C4637 1.366 . S
C4638 C4639 1.414 . S
C4638 C4641 1.499 . S
C4639 H4613 0.950 . S
C4639 C4638 1.414 . S
C4639 C4640 1.374 . S
C4640 H4614 0.950 . S
C4640 C4636 1.385 . S
C4640 C4639 1.374 . S
C4641 C4638 1.499 . S
C4641 C4642 1.373 . S
C4641 C4643 1.389 . S
C4642 H4615 0.950 . S
C4642 C4628 1.377 . S
C4642 C4641 1.373 . S
C4643 C4627 1.377 . S
C4643 C4641 1.389 . S
C4643 C4644 1.524 . S
C4644 C4643 1.524 . S
C4644 C4645 1.397 . S
C4644 C4649 1.363 . S
C4645 H4616 0.950 . S
C4645 C4644 1.397 . S
C4645 C4646 1.334 . S
C4646 H4617 0.950 . S
C4646 C4645 1.334 . S
C4646 C4647 1.287 . S
C4647 C4646 1.287 . S
C4647 C4648 1.524 . S
C4647 H4650 0.999 . S
C4648 H4618 0.950 . S
C4648 C4647 1.524 . S
C4648 C4649 1.415 . S
C4649 H4619 0.950 . S
C4649 C4644 1.363 . S
C4649 C4648 1.415 . S
H4650 C4647 0.999 . S
H4651 C4632 0.913 . S
H4652 C4670 0.951 . S
H4653 C4672 0.951 . S
H4654 C4674 0.950 . S
H4655 C4675 0.950 . S
H4656 C4677 0.950 . S
H4657 C4680 0.950 . S
H4658 C4681 0.950 . S
H4659 C4683 0.950 . S
H4660 C4684 0.950 . S
H4661 C4685 0.951 . S
H4662 C4687 0.951 . S
H4663 C4689 0.950 . S
H4664 C4690 0.950 . S
H4665 C4692 0.950 . S
H4666 C4695 0.950 . S
H4667 C4696 0.962 . S
H4668 C4698 0.950 . S
H4669 C4699 0.950 . S
C4670 H4652 0.951 . S
C4670 C4671 1.366 . S
C4670 C4672 1.388 . S
C4671 C4670 1.366 . S
C4671 C4675 1.385 . S
C4672 H4653 0.951 . S
C4672 C4670 1.388 . S
C4672 C4673 1.366 . S
C4673 C4672 1.366 . S
C4673 C4674 1.414 . S
C4673 C4676 1.499 . S
C4674 H4654 0.950 . S
C4674 C4673 1.414 . S
C4674 C4675 1.374 . S
C4675 H4655 0.950 . S
C4675 C4671 1.385 . S
C4675 C4674 1.374 . S
C4676 C4673 1.499 . S
C4676 C4677 1.373 . S
C4676 C4678 1.389 . S
C4677 H4656 0.950 . S
C4677 C4676 1.373 . S
C4677 C4693 1.377 . S
C4678 C4676 1.389 . S
C4678 C4679 1.524 . S
C4678 C4692 1.377 . S
C4679 C4678 1.524 . S
C4679 C4680 1.397 . S
C4679 C4684 1.363 . S
C4680 H4657 0.950 . S
C4680 C4679 1.397 . S
C4680 C4681 1.334 . S
C4681 H4658 0.950 . S
C4681 C4680 1.334 . S
C4681 C4682 1.287 . S
C4682 C4681 1.287 . S
C4682 C4683 1.524 . S
C4682 H4701 0.913 . S
C4683 H4659 0.950 . S
C4683 C4682 1.524 . S
C4683 C4684 1.415 . S
C4684 H4660 0.950 . S
C4684 C4679 1.363 . S
C4684 C4683 1.415 . S
C4685 H4661 0.951 . S
C4685 C4686 1.366 . S
C4685 C4687 1.388 . S
C4686 C4685 1.366 . S
C4686 C4690 1.385 . S
C4687 H4662 0.951 . S
C4687 C4685 1.388 . S
C4687 C4688 1.366 . S
C4688 C4687 1.366 . S
C4688 C4689 1.414 . S
C4688 C4691 1.499 . S
C4689 H4663 0.950 . S
C4689 C4688 1.414 . S
C4689 C4690 1.374 . S
C4690 H4664 0.950 . S
C4690 C4686 1.385 . S
C4690 C4689 1.374 . S
C4691 C4688 1.499 . S
C4691 C4692 1.373 . S
C4691 C4693 1.389 . S
C4692 H4665 0.950 . S
C4692 C4678 1.377 . S
C4692 C4691 1.373 . S
C4693 C4677 1.377 . S
C4693 C4691 1.389 . S
C4693 C4694 1.524 . S
C4694 C4693 1.524 . S
C4694 C4695 1.397 . S
C4694 C4699 1.363 . S
C4695 H4666 0.950 . S
C4695 C4694 1.397 . S
C4695 C4696 1.298 1_554 S
C4696 H4667 0.962 . S
C4696 C4695 1.298 1_556 S
C4696 C4697 1.311 . S
C4697 C4696 1.311 . S
C4697 C4698 1.524 . S
C4697 H4700 0.999 . S
C4698 H4668 0.950 . S
C4698 C4697 1.524 . S
C4698 C4699 1.415 1_556 S
C4699 H4669 0.950 . S
C4699 C4694 1.363 . S
C4699 C4698 1.415 1_554 S
H4700 C4697 0.999 . S
H4701 C4682 0.913 . S
H4702 C4720 0.951 . S
H4703 C4722 0.951 . S
H4704 C4724 0.950 . S
H4705 C4725 0.950 . S
H4706 C4727 0.950 . S
H4707 C4730 0.950 . S
H4708 C4731 0.950 . S
H4709 C4733 0.950 . S
H4710 C4734 0.950 . S
H4711 C4735 0.951 . S
H4712 C4737 0.951 . S
H4713 C4739 0.950 . S
H4714 C4740 0.950 . S
H4715 C4742 0.950 . S
H4716 C4745 0.950 . S
H4717 C4746 0.950 . S
H4718 C4748 0.950 . S
H4719 C4749 0.950 . S
C4720 H4702 0.951 . S
C4720 C4721 1.366 . S
C4720 C4722 1.388 . S
C4721 C4720 1.366 . S
C4721 C4725 1.385 . S
C4722 H4703 0.951 . S
C4722 C4720 1.388 . S
C4722 C4723 1.366 . S
C4723 C4722 1.366 . S
C4723 C4724 1.414 . S
C4723 C4726 1.499 . S
C4724 H4704 0.950 . S
C4724 C4723 1.414 . S
C4724 C4725 1.374 . S
C4725 H4705 0.950 . S
C4725 C4721 1.385 . S
C4725 C4724 1.374 . S
C4726 C4723 1.499 . S
C4726 C4727 1.373 . S
C4726 C4728 1.389 . S
C4727 H4706 0.950 . S
C4727 C4726 1.373 . S
C4727 C4743 1.377 . S
C4728 C4726 1.389 . S
C4728 C4729 1.524 . S
C4728 C4742 1.377 . S
C4729 C4728 1.524 . S
C4729 C4730 1.397 . S
C4729 C4734 1.363 . S
C4730 H4707 0.950 . S
C4730 C4729 1.397 . S
C4730 C4731 1.334 . S
C4731 H4708 0.950 . S
C4731 C4730 1.334 . S
C4731 C4732 1.287 . S
C4732 C4731 1.287 . S
C4732 C4733 1.524 . S
C4732 H4751 0.913 . S
C4733 H4709 0.950 . S
C4733 C4732 1.524 . S
C4733 C4734 1.415 . S
C4734 H4710 0.950 . S
C4734 C4729 1.363 . S
C4734 C4733 1.415 . S
C4735 H4711 0.951 . S
C4735 C4736 1.366 . S
C4735 C4737 1.388 . S
C4736 C4735 1.366 . S
C4736 C4740 1.385 . S
C4737 H4712 0.951 . S
C4737 C4735 1.388 . S
C4737 C4738 1.366 . S
C4738 C4737 1.366 . S
C4738 C4739 1.414 . S
C4738 C4741 1.499 . S
C4739 H4713 0.950 . S
C4739 C4738 1.414 . S
C4739 C4740 1.374 . S
C4740 H4714 0.950 . S
C4740 C4736 1.385 . S
C4740 C4739 1.374 . S
C4741 C4738 1.499 . S
C4741 C4742 1.373 . S
C4741 C4743 1.389 . S
C4742 H4715 0.950 . S
C4742 C4728 1.377 . S
C4742 C4741 1.373 . S
C4743 C4727 1.377 . S
C4743 C4741 1.389 . S
C4743 C4744 1.524 . S
C4744 C4743 1.524 . S
C4744 C4745 1.397 . S
C4744 C4749 1.363 . S
C4745 H4716 0.950 . S
C4745 C4744 1.397 . S
C4745 C4746 1.334 . S
C4746 H4717 0.950 . S
C4746 C4745 1.334 . S
C4746 C4747 1.287 . S
C4747 C4746 1.287 . S
C4747 C4748 1.524 . S
C4747 H4750 0.999 . S
C4748 H4718 0.950 . S
C4748 C4747 1.524 . S
C4748 C4749 1.415 . S
C4749 H4719 0.950 . S
C4749 C4744 1.363 . S
C4749 C4748 1.415 . S
H4750 C4747 0.999 . S
H4751 C4732 0.913 . S
H4752 C4770 0.951 . S
H4753 C4772 0.951 . S
H4754 C4774 0.950 . S
H4755 C4775 0.950 . S
H4756 C4777 0.950 . S
H4757 C4780 0.950 . S
H4758 C4781 0.950 . S
H4759 C4783 0.950 . S
H4760 C4784 0.950 . S
H4761 C4785 0.951 . S
H4762 C4787 0.951 . S
H4763 C4789 0.950 . S
H4764 C4790 0.950 . S
H4765 C4792 0.950 . S
H4766 C4795 0.950 . S
H4767 C4796 0.950 . S
H4768 C4798 0.950 . S
H4769 C4799 0.950 . S
C4770 H4752 0.951 . S
C4770 C4771 1.366 . S
C4770 C4772 1.388 . S
C4771 C4770 1.366 . S
C4771 C4775 1.385 . S
C4772 H4753 0.951 . S
C4772 C4770 1.388 . S
C4772 C4773 1.366 . S
C4773 C4772 1.366 . S
C4773 C4774 1.414 . S
C4773 C4776 1.499 . S
C4774 H4754 0.950 . S
C4774 C4773 1.414 . S
C4774 C4775 1.374 . S
C4775 H4755 0.950 . S
C4775 C4771 1.385 . S
C4775 C4774 1.374 . S
C4776 C4773 1.499 . S
C4776 C4777 1.373 . S
C4776 C4778 1.389 . S
C4777 H4756 0.950 . S
C4777 C4776 1.373 . S
C4777 C4793 1.377 . S
C4778 C4776 1.389 . S
C4778 C4779 1.524 . S
C4778 C4792 1.377 . S
C4779 C4778 1.524 . S
C4779 C4780 1.397 . S
C4779 C4784 1.363 . S
C4780 H4757 0.950 . S
C4780 C4779 1.397 . S
C4780 C4781 1.334 . S
C4781 H4758 0.950 . S
C4781 C4780 1.334 . S
C4781 C4782 1.287 . S
C4782 C4781 1.287 . S
C4782 C4783 1.524 . S
C4782 H4801 0.913 . S
C4783 H4759 0.950 . S
C4783 C4782 1.524 . S
C4783 C4784 1.415 . S
C4784 H4760 0.950 . S
C4784 C4779 1.363 . S
C4784 C4783 1.415 . S
C4785 H4761 0.951 . S
C4785 C4786 1.366 . S
C4785 C4787 1.388 . S
C4786 C4785 1.366 . S
C4786 C4790 1.385 . S
C4787 H4762 0.951 . S
C4787 C4785 1.388 . S
C4787 C4788 1.366 . S
C4788 C4787 1.366 . S
C4788 C4789 1.414 . S
C4788 C4791 1.499 . S
C4789 H4763 0.950 . S
C4789 C4788 1.414 . S
C4789 C4790 1.374 . S
C4790 H4764 0.950 . S
C4790 C4786 1.385 . S
C4790 C4789 1.374 . S
C4791 C4788 1.499 . S
C4791 C4792 1.373 . S
C4791 C4793 1.389 . S
C4792 H4765 0.950 . S
C4792 C4778 1.377 . S
C4792 C4791 1.373 . S
C4793 C4777 1.377 . S
C4793 C4791 1.389 . S
C4793 C4794 1.524 . S
C4794 C4793 1.524 . S
C4794 C4795 1.397 . S
C4794 C4799 1.363 . S
C4795 H4766 0.950 . S
C4795 C4794 1.397 . S
C4795 C4796 1.334 . S
C4796 H4767 0.950 . S
C4796 C4795 1.334 . S
C4796 C4797 1.287 . S
C4797 C4796 1.287 . S
C4797 C4798 1.524 . S
C4797 H4800 0.999 . S
C4798 H4768 0.950 . S
C4798 C4797 1.524 . S
C4798 C4799 1.415 . S
C4799 H4769 0.950 . S
C4799 C4794 1.363 . S
C4799 C4798 1.415 . S
H4800 C4797 0.999 . S
H4801 C4782 0.913 . S
H4802 C4820 0.951 . S
H4803 C4822 0.951 . S
H4804 C4824 0.950 . S
H4805 C4825 0.950 . S
H4806 C4827 0.950 . S
H4807 C4830 0.950 . S
H4808 C4831 0.950 . S
H4809 C4833 0.950 . S
H4810 C4834 0.950 . S
H4811 C4835 0.951 . S
H4812 C4837 0.951 . S
H4813 C4839 0.950 . S
H4814 C4840 0.950 . S
H4815 C4842 0.950 . S
H4816 C4845 0.950 . S
H4817 C4846 0.950 . S
H4818 C4848 0.950 . S
H4819 C4849 0.950 . S
C4820 H4802 0.951 . S
C4820 C4821 1.366 . S
C4820 C4822 1.388 . S
C4821 C4820 1.366 . S
C4821 C4825 1.385 . S
C4822 H4803 0.951 . S
C4822 C4820 1.388 . S
C4822 C4823 1.366 . S
C4823 C4822 1.366 . S
C4823 C4824 1.414 . S
C4823 C4826 1.499 . S
C4824 H4804 0.950 . S
C4824 C4823 1.414 . S
C4824 C4825 1.374 . S
C4825 H4805 0.950 . S
C4825 C4821 1.385 . S
C4825 C4824 1.374 . S
C4826 C4823 1.499 . S
C4826 C4827 1.373 . S
C4826 C4828 1.389 . S
C4827 H4806 0.950 . S
C4827 C4826 1.373 . S
C4827 C4843 1.377 . S
C4828 C4826 1.389 . S
C4828 C4829 1.524 . S
C4828 C4842 1.377 . S
C4829 C4828 1.524 . S
C4829 C4830 1.397 . S
C4829 C4834 1.363 . S
C4830 H4807 0.950 . S
C4830 C4829 1.397 . S
C4830 C4831 1.334 . S
C4831 H4808 0.950 . S
C4831 C4830 1.334 . S
C4831 C4832 1.287 . S
C4832 C4831 1.287 . S
C4832 C4833 1.524 . S
C4832 H4851 0.913 . S
C4833 H4809 0.950 . S
C4833 C4832 1.524 . S
C4833 C4834 1.415 . S
C4834 H4810 0.950 . S
C4834 C4829 1.363 . S
C4834 C4833 1.415 . S
C4835 H4811 0.951 . S
C4835 C4836 1.366 . S
C4835 C4837 1.388 . S
C4836 C4835 1.366 . S
C4836 C4840 1.385 . S
C4837 H4812 0.951 . S
C4837 C4835 1.388 . S
C4837 C4838 1.366 . S
C4838 C4837 1.366 . S
C4838 C4839 1.414 . S
C4838 C4841 1.499 . S
C4839 H4813 0.950 . S
C4839 C4838 1.414 . S
C4839 C4840 1.374 . S
C4840 H4814 0.950 . S
C4840 C4836 1.385 . S
C4840 C4839 1.374 . S
C4841 C4838 1.499 . S
C4841 C4842 1.373 . S
C4841 C4843 1.389 . S
C4842 H4815 0.950 . S
C4842 C4828 1.377 . S
C4842 C4841 1.373 . S
C4843 C4827 1.377 . S
C4843 C4841 1.389 . S
C4843 C4844 1.524 . S
C4844 C4843 1.524 . S
C4844 C4845 1.397 . S
C4844 C4849 1.363 . S
C4845 H4816 0.950 . S
C4845 C4844 1.397 . S
C4845 C4846 1.334 . S
C4846 H4817 0.950 . S
C4846 C4845 1.334 . S
C4846 C4847 1.287 . S
C4847 C4846 1.287 . S
C4847 C4848 1.524 . S
C4847 H4850 0.999 . S
C4848 H4818 0.950 . S
C4848 C4847 1.524 . S
C4848 C4849 1.415 . S
C4849 H4819 0.950 . S
C4849 C4844 1.363 . S
C4849 C4848 1.415 . S
H4850 C4847 0.999 . S
H4851 C4832 0.913 . S
H4852 C4870 0.951 . S
H4853 C4872 0.951 . S
H4854 C4874 0.950 . S
H4855 C4875 0.950 . S
H4856 C4877 0.950 . S
H4857 C4880 0.950 . S
H4858 C4881 0.950 . S
H4859 C4883 0.950 . S
H4860 C4884 0.950 . S
H4861 C4885 0.951 . S
H4862 C4887 0.951 . S
H4863 C4889 0.950 . S
H4864 C4890 0.950 . S
H4865 C4892 0.950 . S
H4866 C4895 0.950 . S
H4867 C4896 0.950 . S
H4868 C4898 0.950 . S
H4869 C4899 0.950 . S
C4870 H4852 0.951 . S
C4870 C4871 1.366 . S
C4870 C4872 1.388 . S
C4871 C4870 1.366 . S
C4871 C4875 1.385 . S
C4872 H4853 0.951 . S
C4872 C4870 1.388 . S
C4872 C4873 1.366 . S
C4873 C4872 1.366 . S
C4873 C4874 1.414 . S
C4873 C4876 1.499 . S
C4874 H4854 0.950 . S
C4874 C4873 1.414 . S
C4874 C4875 1.374 . S
C4875 H4855 0.950 . S
C4875 C4871 1.385 . S
C4875 C4874 1.374 . S
C4876 C4873 1.499 . S
C4876 C4877 1.373 . S
C4876 C4878 1.389 . S
C4877 H4856 0.950 . S
C4877 C4876 1.373 . S
C4877 C4893 1.377 . S
C4878 C4876 1.389 . S
C4878 C4879 1.524 . S
C4878 C4892 1.377 . S
C4879 C4878 1.524 . S
C4879 C4880 1.397 . S
C4879 C4884 1.363 . S
C4880 H4857 0.950 . S
C4880 C4879 1.397 . S
C4880 C4881 1.334 . S
C4881 H4858 0.950 . S
C4881 C4880 1.334 . S
C4881 C4882 1.287 . S
C4882 C4881 1.287 . S
C4882 C4883 1.524 . S
C4882 H4901 0.913 . S
C4883 H4859 0.950 . S
C4883 C4882 1.524 . S
C4883 C4884 1.415 . S
C4884 H4860 0.950 . S
C4884 C4879 1.363 . S
C4884 C4883 1.415 . S
C4885 H4861 0.951 . S
C4885 C4886 1.366 . S
C4885 C4887 1.388 . S
C4886 C4885 1.366 . S
C4886 C4890 1.385 . S
C4887 H4862 0.951 . S
C4887 C4885 1.388 . S
C4887 C4888 1.366 . S
C4888 C4887 1.366 . S
C4888 C4889 1.414 . S
C4888 C4891 1.499 . S
C4889 H4863 0.950 . S
C4889 C4888 1.414 . S
C4889 C4890 1.374 . S
C4890 H4864 0.950 . S
C4890 C4886 1.385 . S
C4890 C4889 1.374 . S
C4891 C4888 1.499 . S
C4891 C4892 1.373 . S
C4891 C4893 1.389 . S
C4892 H4865 0.950 . S
C4892 C4878 1.377 . S
C4892 C4891 1.373 . S
C4893 C4877 1.377 . S
C4893 C4891 1.389 . S
C4893 C4894 1.524 . S
C4894 C4893 1.524 . S
C4894 C4895 1.397 . S
C4894 C4899 1.363 . S
C4895 H4866 0.950 . S
C4895 C4894 1.397 . S
C4895 C4896 1.334 . S
C4896 H4867 0.950 . S
C4896 C4895 1.334 . S
C4896 C4897 1.263 1_455 S
C4897 C4896 1.263 1_655 S
C4897 C4898 1.528 . S
C4897 H4900 1.026 . S
C4898 H4868 0.950 . S
C4898 C4897 1.528 . S
C4898 C4899 1.415 1_655 S
C4899 H4869 0.950 . S
C4899 C4894 1.363 . S
C4899 C4898 1.415 1_455 S
H4900 C4897 1.026 . S
H4901 C4882 0.913 . S
H4902 C4920 0.951 . S
H4903 C4922 0.951 . S
H4904 C4924 0.950 . S
H4905 C4925 0.950 . S
H4906 C4927 0.950 . S
H4907 C4930 0.950 . S
H4908 C4931 0.950 . S
H4909 C4933 0.950 . S
H4910 C4934 0.950 . S
H4911 C4935 0.951 . S
H4912 C4937 0.951 . S
H4913 C4939 0.950 . S
H4914 C4940 0.950 . S
H4915 C4942 0.950 . S
H4916 C4945 0.950 . S
H4917 C4946 0.950 . S
H4918 C4948 0.950 . S
H4919 C4949 0.950 . S
C4920 H4902 0.951 . S
C4920 C4921 1.366 . S
C4920 C4922 1.388 . S
C4921 C4920 1.366 . S
C4921 C4925 1.385 . S
C4922 H4903 0.951 . S
C4922 C4920 1.388 . S
C4922 C4923 1.366 . S
C4923 C4922 1.366 . S
C4923 C4924 1.414 . S
C4923 C4926 1.499 . S
C4924 H4904 0.950 . S
C4924 C4923 1.414 . S
C4924 C4925 1.374 . S
C4925 H4905 0.950 . S
C4925 C4921 1.385 . S
C4925 C4924 1.374 . S
C4926 C4923 1.499 . S
C4926 C4927 1.373 . S
C4926 C4928 1.389 . S
C4927 H4906 0.950 . S
C4927 C4926 1.373 . S
C4927 C4943 1.377 . S
C4928 C4926 1.389 . S
C4928 C4929 1.524 . S
C4928 C4942 1.377 . S
C4929 C4928 1.524 . S
C4929 C4930 1.397 . S
C4929 C4934 1.363 . S
C4930 H4907 0.950 . S
C4930 C4929 1.397 . S
C4930 C4931 1.334 . S
C4931 H4908 0.950 . S
C4931 C4930 1.334 . S
C4931 C4932 1.287 . S
C4932 C4931 1.287 . S
C4932 C4933 1.524 . S
C4932 H4951 0.913 . S
C4933 H4909 0.950 . S
C4933 C4932 1.524 . S
C4933 C4934 1.415 . S
C4934 H4910 0.950 . S
C4934 C4929 1.363 . S
C4934 C4933 1.415 . S
C4935 H4911 0.951 . S
C4935 C4936 1.366 . S
C4935 C4937 1.388 . S
C4936 C4935 1.366 . S
C4936 C4940 1.385 . S
C4937 H4912 0.951 . S
C4937 C4935 1.388 . S
C4937 C4938 1.366 . S
C4938 C4937 1.366 . S
C4938 C4939 1.414 . S
C4938 C4941 1.499 . S
C4939 H4913 0.950 . S
C4939 C4938 1.414 . S
C4939 C4940 1.374 . S
C4940 H4914 0.950 . S
C4940 C4936 1.385 . S
C4940 C4939 1.374 . S
C4941 C4938 1.499 . S
C4941 C4942 1.373 . S
C4941 C4943 1.389 . S
C4942 H4915 0.950 . S
C4942 C4928 1.377 . S
C4942 C4941 1.373 . S
C4943 C4927 1.377 . S
C4943 C4941 1.389 . S
C4943 C4944 1.524 . S
C4944 C4943 1.524 . S
C4944 C4945 1.397 . S
C4944 C4949 1.363 . S
C4945 H4916 0.950 . S
C4945 C4944 1.397 . S
C4945 C4946 1.334 . S
C4946 H4917 0.950 . S
C4946 C4945 1.334 . S
C4946 C4947 1.287 . S
C4947 C4946 1.287 . S
C4947 C4948 1.524 . S
C4947 H4950 0.999 . S
C4948 H4918 0.950 . S
C4948 C4947 1.524 . S
C4948 C4949 1.415 . S
C4949 H4919 0.950 . S
C4949 C4944 1.363 . S
C4949 C4948 1.415 . S
H4950 C4947 0.999 . S
H4951 C4932 0.913 . S
H4952 C4970 0.951 . S
H4953 C4972 0.951 . S
H4954 C4974 0.950 . S
H4955 C4975 0.950 . S
H4956 C4977 0.950 . S
H4957 C4980 0.950 . S
H4958 C4981 0.950 . S
H4959 C4983 0.950 . S
H4960 C4984 0.950 . S
H4961 C4985 0.951 . S
H4962 C4987 0.951 . S
H4963 C4989 0.950 . S
H4964 C4990 0.950 . S
H4965 C4992 0.950 . S
H4966 C4995 0.950 . S
H4967 C4996 0.950 . S
H4968 C4998 0.950 . S
H4969 C4999 0.950 . S
C4970 H4952 0.951 . S
C4970 C4971 1.366 . S
C4970 C4972 1.388 . S
C4971 C4970 1.366 . S
C4971 C4975 1.385 . S
C4972 H4953 0.951 . S
C4972 C4970 1.388 . S
C4972 C4973 1.366 . S
C4973 C4972 1.366 . S
C4973 C4974 1.414 . S
C4973 C4976 1.499 . S
C4974 H4954 0.950 . S
C4974 C4973 1.414 . S
C4974 C4975 1.374 . S
C4975 H4955 0.950 . S
C4975 C4971 1.385 . S
C4975 C4974 1.374 . S
C4976 C4973 1.499 . S
C4976 C4977 1.373 . S
C4976 C4978 1.389 . S
C4977 H4956 0.950 . S
C4977 C4976 1.373 . S
C4977 C4993 1.377 . S
C4978 C4976 1.389 . S
C4978 C4979 1.524 . S
C4978 C4992 1.377 . S
C4979 C4978 1.524 . S
C4979 C4980 1.397 . S
C4979 C4984 1.363 . S
C4980 H4957 0.950 . S
C4980 C4979 1.397 . S
C4980 C4981 1.334 . S
C4981 H4958 0.950 . S
C4981 C4980 1.334 . S
C4981 C4982 1.287 . S
C4982 C4981 1.287 . S
C4982 C4983 1.524 . S
C4982 H5001 0.913 . S
C4983 H4959 0.950 . S
C4983 C4982 1.524 . S
C4983 C4984 1.415 . S
C4984 H4960 0.950 . S
C4984 C4979 1.363 . S
C4984 C4983 1.415 . S
C4985 H4961 0.951 . S
C4985 C4986 1.366 . S
C4985 C4987 1.388 . S
C4986 C4985 1.366 . S
C4986 C4990 1.385 . S
C4987 H4962 0.951 . S
C4987 C4985 1.388 . S
C4987 C4988 1.366 . S
C4988 C4987 1.366 . S
C4988 C4989 1.414 . S
C4988 C4991 1.499 . S
C4989 H4963 0.950 . S
C4989 C4988 1.414 . S
C4989 C4990 1.374 . S
C4990 H4964 0.950 . S
C4990 C4986 1.385 . S
C4990 C4989 1.374 . S
C4991 C4988 1.499 . S
C4991 C4992 1.373 . S
C4991 C4993 1.389 . S
C4992 H4965 0.950 . S
C4992 C4978 1.377 . S
C4992 C4991 1.373 . S
C4993 C4977 1.377 . S
C4993 C4991 1.389 . S
C4993 C4994 1.524 . S
C4994 C4993 1.524 . S
C4994 C4995 1.397 . S
C4994 C4999 1.363 . S
C4995 H4966 0.950 . S
C4995 C4994 1.397 . S
C4995 C4996 1.334 . S
C4996 H4967 0.950 . S
C4996 C4995 1.334 . S
C4996 C4997 1.287 . S
C4997 C4996 1.287 . S
C4997 C4998 1.524 . S
C4997 H5000 0.999 . S
C4998 H4968 0.950 . S
C4998 C4997 1.524 . S
C4998 C4999 1.415 . S
C4999 H4969 0.950 . S
C4999 C4994 1.363 . S
C4999 C4998 1.415 . S
H5000 C4997 0.999 . S
H5001 C4982 0.913 . S
H5002 C5020 0.951 . S
H5003 C5022 0.951 . S
H5004 C5024 0.950 . S
H5005 C5025 0.950 . S
H5006 C5027 0.950 . S
H5007 C5030 0.950 . S
H5008 C5031 0.950 . S
H5009 C5033 0.950 . S
H5010 C5034 0.950 . S
H5011 C5035 0.951 . S
H5012 C5037 0.951 . S
H5013 C5039 0.950 . S
H5014 C5040 0.950 . S
H5015 C5042 0.950 . S
H5016 C5045 0.950 . S
H5017 C5046 0.950 . S
H5018 C5048 0.950 . S
H5019 C5049 0.950 . S
C5020 H5002 0.951 . S
C5020 C5021 1.366 . S
C5020 C5022 1.388 . S
C5021 C5020 1.366 . S
C5021 C5025 1.385 . S
C5022 H5003 0.951 . S
C5022 C5020 1.388 . S
C5022 C5023 1.366 . S
C5023 C5022 1.366 . S
C5023 C5024 1.414 . S
C5023 C5026 1.499 . S
C5024 H5004 0.950 . S
C5024 C5023 1.414 . S
C5024 C5025 1.374 . S
C5025 H5005 0.950 . S
C5025 C5021 1.385 . S
C5025 C5024 1.374 . S
C5026 C5023 1.499 . S
C5026 C5027 1.373 . S
C5026 C5028 1.389 . S
C5027 H5006 0.950 . S
C5027 C5026 1.373 . S
C5027 C5043 1.377 . S
C5028 C5026 1.389 . S
C5028 C5029 1.524 . S
C5028 C5042 1.377 . S
C5029 C5028 1.524 . S
C5029 C5030 1.397 . S
C5029 C5034 1.363 . S
C5030 H5007 0.950 . S
C5030 C5029 1.397 . S
C5030 C5031 1.334 . S
C5031 H5008 0.950 . S
C5031 C5030 1.334 . S
C5031 C5032 1.287 . S
C5032 C5031 1.287 . S
C5032 C5033 1.524 . S
C5032 H5051 0.913 . S
C5033 H5009 0.950 . S
C5033 C5032 1.524 . S
C5033 C5034 1.415 . S
C5034 H5010 0.950 . S
C5034 C5029 1.363 . S
C5034 C5033 1.415 . S
C5035 H5011 0.951 . S
C5035 C5036 1.366 . S
C5035 C5037 1.388 . S
C5036 C5035 1.366 . S
C5036 C5040 1.385 . S
C5037 H5012 0.951 . S
C5037 C5035 1.388 . S
C5037 C5038 1.366 . S
C5038 C5037 1.366 . S
C5038 C5039 1.414 . S
C5038 C5041 1.499 . S
C5039 H5013 0.950 . S
C5039 C5038 1.414 . S
C5039 C5040 1.374 . S
C5040 H5014 0.950 . S
C5040 C5036 1.385 . S
C5040 C5039 1.374 . S
C5041 C5038 1.499 . S
C5041 C5042 1.373 . S
C5041 C5043 1.389 . S
C5042 H5015 0.950 . S
C5042 C5028 1.377 . S
C5042 C5041 1.373 . S
C5043 C5027 1.377 . S
C5043 C5041 1.389 . S
C5043 C5044 1.524 . S
C5044 C5043 1.524 . S
C5044 C5045 1.397 . S
C5044 C5049 1.363 . S
C5045 H5016 0.950 . S
C5045 C5044 1.397 . S
C5045 C5046 1.334 . S
C5046 H5017 0.950 . S
C5046 C5045 1.334 . S
C5046 C5047 1.287 . S
C5047 C5046 1.287 . S
C5047 C5048 1.524 . S
C5047 H5050 0.999 . S
C5048 H5018 0.950 . S
C5048 C5047 1.524 . S
C5048 C5049 1.415 . S
C5049 H5019 0.950 . S
C5049 C5044 1.363 . S
C5049 C5048 1.415 . S
H5050 C5047 0.999 . S
H5051 C5032 0.913 . S
H5052 C5070 0.951 . S
H5053 C5072 0.951 . S
H5054 C5074 0.950 . S
H5055 C5075 0.950 . S
H5056 C5077 0.950 . S
H5057 C5080 0.950 . S
H5058 C5081 0.950 . S
H5059 C5083 0.950 . S
H5060 C5084 0.950 . S
H5061 C5085 0.951 . S
H5062 C5087 0.951 . S
H5063 C5089 0.950 . S
H5064 C5090 0.950 . S
H5065 C5092 0.950 . S
H5066 C5095 0.950 . S
H5067 C5096 0.950 . S
H5068 C5098 0.950 . S
H5069 C5099 0.950 . S
C5070 H5052 0.951 . S
C5070 C5071 1.366 . S
C5070 C5072 1.388 . S
C5071 C5070 1.366 . S
C5071 C5075 1.385 . S
C5072 H5053 0.951 . S
C5072 C5070 1.388 . S
C5072 C5073 1.366 . S
C5073 C5072 1.366 . S
C5073 C5074 1.414 . S
C5073 C5076 1.499 . S
C5074 H5054 0.950 . S
C5074 C5073 1.414 . S
C5074 C5075 1.374 . S
C5075 H5055 0.950 . S
C5075 C5071 1.385 . S
C5075 C5074 1.374 . S
C5076 C5073 1.499 . S
C5076 C5077 1.373 . S
C5076 C5078 1.389 . S
C5077 H5056 0.950 . S
C5077 C5076 1.373 . S
C5077 C5093 1.377 . S
C5078 C5076 1.389 . S
C5078 C5079 1.524 . S
C5078 C5092 1.377 . S
C5079 C5078 1.524 . S
C5079 C5080 1.397 . S
C5079 C5084 1.363 . S
C5080 H5057 0.950 . S
C5080 C5079 1.397 . S
C5080 C5081 1.334 . S
C5081 H5058 0.950 . S
C5081 C5080 1.334 . S
C5081 C5082 1.287 . S
C5082 C5081 1.287 . S
C5082 C5083 1.524 . S
C5082 H5101 0.913 . S
C5083 H5059 0.950 . S
C5083 C5082 1.524 . S
C5083 C5084 1.415 . S
C5084 H5060 0.950 . S
C5084 C5079 1.363 . S
C5084 C5083 1.415 . S
C5085 H5061 0.951 . S
C5085 C5086 1.366 . S
C5085 C5087 1.388 . S
C5086 C5085 1.366 . S
C5086 C5090 1.385 1_455 S
C5087 H5062 0.951 . S
C5087 C5085 1.388 . S
C5087 C5088 1.366 1_455 S
C5088 C5087 1.366 1_655 S
C5088 C5089 1.414 . S
C5088 C5091 1.499 . S
C5089 H5063 0.950 . S
C5089 C5088 1.414 . S
C5089 C5090 1.374 . S
C5090 H5064 0.950 . S
C5090 C5086 1.385 1_655 S
C5090 C5089 1.374 . S
C5091 C5088 1.499 . S
C5091 C5092 1.373 . S
C5091 C5093 1.389 . S
C5092 H5065 0.950 . S
C5092 C5078 1.377 . S
C5092 C5091 1.373 . S
C5093 C5077 1.377 . S
C5093 C5091 1.389 . S
C5093 C5094 1.524 . S
C5094 C5093 1.524 . S
C5094 C5095 1.397 . S
C5094 C5099 1.363 . S
C5095 H5066 0.950 . S
C5095 C5094 1.397 . S
C5095 C5096 1.334 . S
C5096 H5067 0.950 . S
C5096 C5095 1.334 . S
C5096 C5097 1.287 . S
C5097 C5096 1.287 . S
C5097 C5098 1.524 . S
C5097 H5100 0.999 . S
C5098 H5068 0.950 . S
C5098 C5097 1.524 . S
C5098 C5099 1.415 . S
C5099 H5069 0.950 . S
C5099 C5094 1.363 . S
C5099 C5098 1.415 . S
H5100 C5097 0.999 . S
H5101 C5082 0.913 . S
H5102 C5120 0.951 . S
H5103 C5122 0.951 . S
H5104 C5124 0.950 . S
H5105 C5125 0.950 . S
H5106 C5127 0.950 . S
H5107 C5130 0.950 . S
H5108 C5131 0.950 . S
H5109 C5133 0.950 . S
H5110 C5134 0.950 . S
H5111 C5135 0.951 . S
H5112 C5137 0.951 . S
H5113 C5139 0.950 . S
H5114 C5140 0.950 . S
H5115 C5142 0.950 . S
H5116 C5145 0.950 . S
H5117 C5146 0.950 . S
H5118 C5148 0.950 . S
H5119 C5149 0.950 . S
C5120 H5102 0.951 . S
C5120 C5121 1.366 . S
C5120 C5122 1.388 . S
C5121 C5120 1.366 . S
C5121 C5125 1.385 . S
C5122 H5103 0.951 . S
C5122 C5120 1.388 . S
C5122 C5123 1.366 . S
C5123 C5122 1.366 . S
C5123 C5124 1.414 . S
C5123 C5126 1.499 . S
C5124 H5104 0.950 . S
C5124 C5123 1.414 . S
C5124 C5125 1.374 . S
C5125 H5105 0.950 . S
C5125 C5121 1.385 . S
C5125 C5124 1.374 . S
C5126 C5123 1.499 . S
C5126 C5127 1.373 . S
C5126 C5128 1.389 . S
C5127 H5106 0.950 . S
C5127 C5126 1.373 . S
C5127 C5143 1.377 . S
C5128 C5126 1.389 . S
C5128 C5129 1.524 . S
C5128 C5142 1.377 . S
C5129 C5128 1.524 . S
C5129 C5130 1.397 . S
C5129 C5134 1.363 . S
C5130 H5107 0.950 . S
C5130 C5129 1.397 . S
C5130 C5131 1.334 . S
C5131 H5108 0.950 . S
C5131 C5130 1.334 . S
C5131 C5132 1.287 . S
C5132 C5131 1.287 . S
C5132 C5133 1.524 . S
C5132 H5151 0.913 . S
C5133 H5109 0.950 . S
C5133 C5132 1.524 . S
C5133 C5134 1.415 . S
C5134 H5110 0.950 . S
C5134 C5129 1.363 . S
C5134 C5133 1.415 . S
C5135 H5111 0.951 . S
C5135 C5136 1.366 . S
C5135 C5137 1.388 . S
C5136 C5135 1.366 . S
C5136 C5140 1.385 . S
C5137 H5112 0.951 . S
C5137 C5135 1.388 . S
C5137 C5138 1.366 . S
C5138 C5137 1.366 . S
C5138 C5139 1.414 . S
C5138 C5141 1.499 . S
C5139 H5113 0.950 . S
C5139 C5138 1.414 . S
C5139 C5140 1.374 . S
C5140 H5114 0.950 . S
C5140 C5136 1.385 . S
C5140 C5139 1.374 . S
C5141 C5138 1.499 . S
C5141 C5142 1.373 . S
C5141 C5143 1.389 . S
C5142 H5115 0.950 . S
C5142 C5128 1.377 . S
C5142 C5141 1.373 . S
C5143 C5127 1.377 . S
C5143 C5141 1.389 . S
C5143 C5144 1.524 . S
C5144 C5143 1.524 . S
C5144 C5145 1.397 . S
C5144 C5149 1.363 . S
C5145 H5116 0.950 . S
C5145 C5144 1.397 . S
C5145 C5146 1.334 . S
C5146 H5117 0.950 . S
C5146 C5145 1.334 . S
C5146 C5147 1.287 . S
C5147 C5146 1.287 . S
C5147 C5148 1.524 . S
C5147 H5150 0.999 . S
C5148 H5118 0.950 . S
C5148 C5147 1.524 . S
C5148 C5149 1.415 . S
C5149 H5119 0.950 . S
C5149 C5144 1.363 . S
C5149 C5148 1.415 . S
H5150 C5147 0.999 . S
H5151 C5132 0.913 . S
H5152 C5170 0.951 . S
H5153 C5172 0.951 . S
H5154 C5174 0.950 . S
H5155 C5175 0.950 . S
H5156 C5177 0.950 . S
H5157 C5180 0.950 . S
H5158 C5181 0.950 . S
H5159 C5183 0.950 . S
H5160 C5184 0.950 . S
H5161 C5185 0.951 . S
H5162 C5187 0.951 . S
H5163 C5189 0.950 . S
H5164 C5190 0.950 . S
H5165 C5192 0.950 . S
H5166 C5195 0.950 . S
H5167 C5196 0.950 . S
H5168 C5198 0.950 . S
H5169 C5199 0.950 . S
C5170 H5152 0.951 . S
C5170 C5171 1.366 . S
C5170 C5172 1.388 . S
C5171 C5170 1.366 . S
C5171 C5175 1.385 . S
C5172 H5153 0.951 . S
C5172 C5170 1.388 . S
C5172 C5173 1.366 . S
C5173 C5172 1.366 . S
C5173 C5174 1.414 . S
C5173 C5176 1.499 . S
C5174 H5154 0.950 . S
C5174 C5173 1.414 . S
C5174 C5175 1.374 . S
C5175 H5155 0.950 . S
C5175 C5171 1.385 . S
C5175 C5174 1.374 . S
C5176 C5173 1.499 . S
C5176 C5177 1.373 . S
C5176 C5178 1.389 . S
C5177 H5156 0.950 . S
C5177 C5176 1.373 . S
C5177 C5193 1.377 . S
C5178 C5176 1.389 . S
C5178 C5179 1.524 . S
C5178 C5192 1.377 . S
C5179 C5178 1.524 . S
C5179 C5180 1.397 . S
C5179 C5184 1.363 . S
C5180 H5157 0.950 . S
C5180 C5179 1.397 . S
C5180 C5181 1.334 . S
C5181 H5158 0.950 . S
C5181 C5180 1.334 . S
C5181 C5182 1.287 . S
C5182 C5181 1.287 . S
C5182 C5183 1.524 . S
C5182 H5201 0.913 . S
C5183 H5159 0.950 . S
C5183 C5182 1.524 . S
C5183 C5184 1.415 . S
C5184 H5160 0.950 . S
C5184 C5179 1.363 . S
C5184 C5183 1.415 . S
C5185 H5161 0.951 . S
C5185 C5186 1.366 . S
C5185 C5187 1.388 . S
C5186 C5185 1.366 . S
C5186 C5190 1.385 . S
C5187 H5162 0.951 . S
C5187 C5185 1.388 . S
C5187 C5188 1.366 . S
C5188 C5187 1.366 . S
C5188 C5189 1.414 . S
C5188 C5191 1.499 . S
C5189 H5163 0.950 . S
C5189 C5188 1.414 . S
C5189 C5190 1.374 . S
C5190 H5164 0.950 . S
C5190 C5186 1.385 . S
C5190 C5189 1.374 . S
C5191 C5188 1.499 . S
C5191 C5192 1.373 . S
C5191 C5193 1.389 . S
C5192 H5165 0.950 . S
C5192 C5178 1.377 . S
C5192 C5191 1.373 . S
C5193 C5177 1.377 . S
C5193 C5191 1.389 . S
C5193 C5194 1.524 . S
C5194 C5193 1.524 . S
C5194 C5195 1.397 . S
C5194 C5199 1.363 . S
C5195 H5166 0.950 . S
C5195 C5194 1.397 . S
C5195 C5196 1.334 . S
C5196 H5167 0.950 . S
C5196 C5195 1.334 . S
C5196 C5197 1.287 . S
C5197 C5196 1.287 . S
C5197 C5198 1.524 . S
C5197 H5200 0.999 . S
C5198 H5168 0.950 . S
C5198 C5197 1.524 . S
C5198 C5199 1.415 . S
C5199 H5169 0.950 . S
C5199 C5194 1.363 . S
C5199 C5198 1.415 . S
H5200 C5197 0.999 . S
H5201 C5182 0.913 . S
H5202 C5220 0.951 . S
H5203 C5222 0.951 . S
H5204 C5224 0.950 . S
H5205 C5225 0.950 . S
H5206 C5227 0.950 . S
H5207 C5230 0.950 . S
H5208 C5231 0.950 . S
H5209 C5233 0.950 . S
H5210 C5234 0.950 . S
H5211 C5235 0.951 . S
H5212 C5237 0.951 . S
H5213 C5239 0.950 . S
H5214 C5240 0.950 . S
H5215 C5242 0.950 . S
H5216 C5245 0.950 . S
H5217 C5246 0.950 . S
H5218 C5248 0.950 . S
H5219 C5249 0.950 . S
C5220 H5202 0.951 . S
C5220 C5221 1.366 . S
C5220 C5222 1.388 . S
C5221 C5220 1.366 . S
C5221 C5225 1.385 . S
C5222 H5203 0.951 . S
C5222 C5220 1.388 . S
C5222 C5223 1.366 . S
C5223 C5222 1.366 . S
C5223 C5224 1.414 . S
C5223 C5226 1.499 . S
C5224 H5204 0.950 . S
C5224 C5223 1.414 . S
C5224 C5225 1.374 . S
C5225 H5205 0.950 . S
C5225 C5221 1.385 . S
C5225 C5224 1.374 . S
C5226 C5223 1.499 . S
C5226 C5227 1.373 . S
C5226 C5228 1.389 . S
C5227 H5206 0.950 . S
C5227 C5226 1.373 . S
C5227 C5243 1.377 . S
C5228 C5226 1.389 . S
C5228 C5229 1.524 . S
C5228 C5242 1.377 . S
C5229 C5228 1.524 . S
C5229 C5230 1.397 . S
C5229 C5234 1.363 . S
C5230 H5207 0.950 . S
C5230 C5229 1.397 . S
C5230 C5231 1.334 . S
C5231 H5208 0.950 . S
C5231 C5230 1.334 . S
C5231 C5232 1.287 . S
C5232 C5231 1.287 . S
C5232 C5233 1.524 . S
C5232 H5251 0.913 . S
C5233 H5209 0.950 . S
C5233 C5232 1.524 . S
C5233 C5234 1.415 . S
C5234 H5210 0.950 . S
C5234 C5229 1.363 . S
C5234 C5233 1.415 . S
C5235 H5211 0.951 . S
C5235 C5236 1.366 . S
C5235 C5237 1.388 . S
C5236 C5235 1.366 . S
C5236 C5240 1.385 . S
C5237 H5212 0.951 . S
C5237 C5235 1.388 . S
C5237 C5238 1.366 . S
C5238 C5237 1.366 . S
C5238 C5239 1.414 . S
C5238 C5241 1.499 . S
C5239 H5213 0.950 . S
C5239 C5238 1.414 . S
C5239 C5240 1.374 . S
C5240 H5214 0.950 . S
C5240 C5236 1.385 . S
C5240 C5239 1.374 . S
C5241 C5238 1.499 . S
C5241 C5242 1.373 . S
C5241 C5243 1.389 . S
C5242 H5215 0.950 . S
C5242 C5228 1.377 . S
C5242 C5241 1.373 . S
C5243 C5227 1.377 . S
C5243 C5241 1.389 . S
C5243 C5244 1.524 . S
C5244 C5243 1.524 . S
C5244 C5245 1.397 . S
C5244 C5249 1.363 . S
C5245 H5216 0.950 . S
C5245 C5244 1.397 . S
C5245 C5246 1.334 . S
C5246 H5217 0.950 . S
C5246 C5245 1.334 . S
C5246 C5247 1.287 . S
C5247 C5246 1.287 . S
C5247 C5248 1.524 . S
C5247 H5250 0.999 . S
C5248 H5218 0.950 . S
C5248 C5247 1.524 . S
C5248 C5249 1.415 . S
C5249 H5219 0.950 . S
C5249 C5244 1.363 . S
C5249 C5248 1.415 . S
H5250 C5247 0.999 . S
H5251 C5232 0.913 . S
H5252 C5270 0.951 . S
H5253 C5272 0.951 . S
H5254 C5274 0.950 . S
H5255 C5275 0.950 . S
H5256 C5277 0.950 . S
H5257 C5280 0.950 . S
H5258 C5281 0.950 . S
H5259 C5283 0.950 . S
H5260 C5284 0.950 . S
H5261 C5285 0.951 . S
H5262 C5287 0.951 . S
H5263 C5289 0.950 . S
H5264 C5290 0.950 . S
H5265 C5292 0.950 . S
H5266 C5295 0.950 . S
H5267 C5296 0.950 . S
H5268 C5298 0.950 . S
H5269 C5299 0.950 . S
C5270 H5252 0.951 . S
C5270 C5271 1.366 . S
C5270 C5272 1.388 . S
C5271 C5270 1.366 . S
C5271 C5275 1.385 . S
C5272 H5253 0.951 . S
C5272 C5270 1.388 . S
C5272 C5273 1.366 . S
C5273 C5272 1.366 . S
C5273 C5274 1.414 . S
C5273 C5276 1.499 . S
C5274 H5254 0.950 . S
C5274 C5273 1.414 . S
C5274 C5275 1.374 . S
C5275 H5255 0.950 . S
C5275 C5271 1.385 . S
C5275 C5274 1.374 . S
C5276 C5273 1.499 . S
C5276 C5277 1.373 . S
C5276 C5278 1.389 . S
C5277 H5256 0.950 . S
C5277 C5276 1.373 . S
C5277 C5293 1.377 . S
C5278 C5276 1.389 . S
C5278 C5279 1.524 . S
C5278 C5292 1.377 . S
C5279 C5278 1.524 . S
C5279 C5280 1.397 . S
C5279 C5284 1.363 . S
C5280 H5257 0.950 . S
C5280 C5279 1.397 . S
C5280 C5281 1.334 . S
C5281 H5258 0.950 . S
C5281 C5280 1.334 . S
C5281 C5282 1.287 . S
C5282 C5281 1.287 . S
C5282 C5283 1.524 . S
C5282 H5301 0.913 . S
C5283 H5259 0.950 . S
C5283 C5282 1.524 . S
C5283 C5284 1.415 . S
C5284 H5260 0.950 . S
C5284 C5279 1.363 . S
C5284 C5283 1.415 . S
C5285 H5261 0.951 . S
C5285 C5286 1.366 . S
C5285 C5287 1.388 . S
C5286 C5285 1.366 . S
C5286 C5290 1.385 . S
C5287 H5262 0.951 . S
C5287 C5285 1.388 . S
C5287 C5288 1.366 . S
C5288 C5287 1.366 . S
C5288 C5289 1.414 . S
C5288 C5291 1.499 . S
C5289 H5263 0.950 . S
C5289 C5288 1.414 . S
C5289 C5290 1.374 . S
C5290 H5264 0.950 . S
C5290 C5286 1.385 . S
C5290 C5289 1.374 . S
C5291 C5288 1.499 . S
C5291 C5292 1.373 . S
C5291 C5293 1.389 . S
C5292 H5265 0.950 . S
C5292 C5278 1.377 . S
C5292 C5291 1.373 . S
C5293 C5277 1.377 . S
C5293 C5291 1.389 . S
C5293 C5294 1.524 . S
C5294 C5293 1.524 . S
C5294 C5295 1.397 . S
C5294 C5299 1.363 . S
C5295 H5266 0.950 . S
C5295 C5294 1.397 . S
C5295 C5296 1.334 . S
C5296 H5267 0.950 . S
C5296 C5295 1.334 . S
C5296 C5297 1.260 1_655 S
C5297 C5296 1.260 1_455 S
C5297 C5298 1.536 . S
C5297 H5300 1.020 . S
C5298 H5268 0.950 . S
C5298 C5297 1.536 . S
C5298 C5299 1.415 1_455 S
C5299 H5269 0.950 . S
C5299 C5294 1.363 . S
C5299 C5298 1.415 1_655 S
H5300 C5297 1.020 . S
H5301 C5282 0.913 . S
H5302 C5320 0.951 . S
H5303 C5322 0.951 . S
H5304 C5324 0.950 . S
H5305 C5325 0.950 . S
H5306 C5327 0.950 . S
H5307 C5330 0.950 . S
H5308 C5331 0.950 . S
H5309 C5333 0.950 . S
H5310 C5334 0.950 . S
H5311 C5335 0.951 . S
H5312 C5337 0.951 . S
H5313 C5339 0.950 . S
H5314 C5340 0.950 . S
H5315 C5342 0.950 . S
H5316 C5345 0.950 . S
H5317 C5346 0.950 . S
H5318 C5348 0.950 . S
H5319 C5349 0.950 . S
C5320 H5302 0.951 . S
C5320 C5321 1.366 . S
C5320 C5322 1.388 . S
C5321 C5320 1.366 . S
C5321 C5325 1.385 . S
C5322 H5303 0.951 . S
C5322 C5320 1.388 . S
C5322 C5323 1.366 . S
C5323 C5322 1.366 . S
C5323 C5324 1.414 . S
C5323 C5326 1.499 . S
C5324 H5304 0.950 . S
C5324 C5323 1.414 . S
C5324 C5325 1.374 . S
C5325 H5305 0.950 . S
C5325 C5321 1.385 . S
C5325 C5324 1.374 . S
C5326 C5323 1.499 . S
C5326 C5327 1.373 . S
C5326 C5328 1.389 . S
C5327 H5306 0.950 . S
C5327 C5326 1.373 . S
C5327 C5343 1.377 . S
C5328 C5326 1.389 . S
C5328 C5329 1.524 . S
C5328 C5342 1.377 . S
C5329 C5328 1.524 . S
C5329 C5330 1.397 . S
C5329 C5334 1.363 . S
C5330 H5307 0.950 . S
C5330 C5329 1.397 . S
C5330 C5331 1.334 . S
C5331 H5308 0.950 . S
C5331 C5330 1.334 . S
C5331 C5332 1.287 . S
C5332 C5331 1.287 . S
C5332 C5333 1.524 . S
C5332 H5351 0.913 . S
C5333 H5309 0.950 . S
C5333 C5332 1.524 . S
C5333 C5334 1.415 . S
C5334 H5310 0.950 . S
C5334 C5329 1.363 . S
C5334 C5333 1.415 . S
C5335 H5311 0.951 . S
C5335 C5336 1.366 . S
C5335 C5337 1.388 . S
C5336 C5335 1.366 . S
C5336 C5340 1.385 . S
C5337 H5312 0.951 . S
C5337 C5335 1.388 . S
C5337 C5338 1.366 . S
C5338 C5337 1.366 . S
C5338 C5339 1.414 . S
C5338 C5341 1.499 . S
C5339 H5313 0.950 . S
C5339 C5338 1.414 . S
C5339 C5340 1.374 . S
C5340 H5314 0.950 . S
C5340 C5336 1.385 . S
C5340 C5339 1.374 . S
C5341 C5338 1.499 . S
C5341 C5342 1.373 . S
C5341 C5343 1.389 . S
C5342 H5315 0.950 . S
C5342 C5328 1.377 . S
C5342 C5341 1.373 . S
C5343 C5327 1.377 . S
C5343 C5341 1.389 . S
C5343 C5344 1.524 . S
C5344 C5343 1.524 . S
C5344 C5345 1.397 . S
C5344 C5349 1.363 . S
C5345 H5316 0.950 . S
C5345 C5344 1.397 . S
C5345 C5346 1.334 . S
C5346 H5317 0.950 . S
C5346 C5345 1.334 . S
C5346 C5347 1.287 . S
C5347 C5346 1.287 . S
C5347 C5348 1.524 . S
C5347 H5350 0.999 . S
C5348 H5318 0.950 . S
C5348 C5347 1.524 . S
C5348 C5349 1.415 . S
C5349 H5319 0.950 . S
C5349 C5344 1.363 . S
C5349 C5348 1.415 . S
H5350 C5347 0.999 . S
H5351 C5332 0.913 . S
H5352 C5370 0.951 . S
H5353 C5372 0.951 . S
H5354 C5374 0.950 . S
H5355 C5375 0.950 . S
H5356 C5377 0.950 . S
H5357 C5380 0.950 . S
H5358 C5381 0.950 . S
H5359 C5383 0.950 . S
H5360 C5384 0.950 . S
H5361 C5385 0.951 . S
H5362 C5387 0.951 . S
H5363 C5389 0.950 . S
H5364 C5390 0.950 . S
H5365 C5392 0.950 . S
H5366 C5395 0.950 . S
H5367 C5396 0.950 . S
H5368 C5398 0.950 . S
H5369 C5399 0.950 . S
C5370 H5352 0.951 . S
C5370 C5371 1.366 . S
C5370 C5372 1.388 . S
C5371 C5370 1.366 . S
C5371 C5375 1.385 . S
C5372 H5353 0.951 . S
C5372 C5370 1.388 . S
C5372 C5373 1.366 . S
C5373 C5372 1.366 . S
C5373 C5374 1.414 . S
C5373 C5376 1.499 . S
C5374 H5354 0.950 . S
C5374 C5373 1.414 . S
C5374 C5375 1.374 . S
C5375 H5355 0.950 . S
C5375 C5371 1.385 . S
C5375 C5374 1.374 . S
C5376 C5373 1.499 . S
C5376 C5377 1.373 . S
C5376 C5378 1.389 . S
C5377 H5356 0.950 . S
C5377 C5376 1.373 . S
C5377 C5393 1.377 . S
C5378 C5376 1.389 . S
C5378 C5379 1.524 . S
C5378 C5392 1.377 . S
C5379 C5378 1.524 . S
C5379 C5380 1.397 . S
C5379 C5384 1.363 . S
C5380 H5357 0.950 . S
C5380 C5379 1.397 . S
C5380 C5381 1.334 . S
C5381 H5358 0.950 . S
C5381 C5380 1.334 . S
C5381 C5382 1.287 . S
C5382 C5381 1.287 . S
C5382 C5383 1.524 . S
C5382 H5401 0.913 . S
C5383 H5359 0.950 . S
C5383 C5382 1.524 . S
C5383 C5384 1.415 . S
C5384 H5360 0.950 . S
C5384 C5379 1.363 . S
C5384 C5383 1.415 . S
C5385 H5361 0.951 . S
C5385 C5386 1.366 . S
C5385 C5387 1.388 . S
C5386 C5385 1.366 . S
C5386 C5390 1.385 . S
C5387 H5362 0.951 . S
C5387 C5385 1.388 . S
C5387 C5388 1.366 . S
C5388 C5387 1.366 . S
C5388 C5389 1.414 . S
C5388 C5391 1.499 . S
C5389 H5363 0.950 . S
C5389 C5388 1.414 . S
C5389 C5390 1.374 . S
C5390 H5364 0.950 . S
C5390 C5386 1.385 . S
C5390 C5389 1.374 . S
C5391 C5388 1.499 . S
C5391 C5392 1.373 . S
C5391 C5393 1.389 . S
C5392 H5365 0.950 . S
C5392 C5378 1.377 . S
C5392 C5391 1.373 . S
C5393 C5377 1.377 . S
C5393 C5391 1.389 . S
C5393 C5394 1.524 . S
C5394 C5393 1.524 . S
C5394 C5395 1.397 . S
C5394 C5399 1.363 . S
C5395 H5366 0.950 . S
C5395 C5394 1.397 . S
C5395 C5396 1.334 . S
C5396 H5367 0.950 . S
C5396 C5395 1.334 . S
C5396 C5397 1.287 . S
C5397 C5396 1.287 . S
C5397 C5398 1.524 . S
C5397 H5400 0.999 . S
C5398 H5368 0.950 . S
C5398 C5397 1.524 . S
C5398 C5399 1.415 . S
C5399 H5369 0.950 . S
C5399 C5394 1.363 . S
C5399 C5398 1.415 . S
H5400 C5397 0.999 . S
H5401 C5382 0.913 . S
H5402 C5420 0.951 . S
H5403 C5422 0.951 . S
H5404 C5424 0.950 . S
H5405 C5425 0.950 . S
H5406 C5427 0.950 . S
H5407 C5430 0.950 . S
H5408 C5431 0.950 . S
H5409 C5433 0.950 . S
H5410 C5434 0.950 . S
H5411 C5435 0.951 . S
H5412 C5437 0.951 . S
H5413 C5439 0.950 . S
H5414 C5440 0.950 . S
H5415 C5442 0.950 . S
H5416 C5445 0.950 . S
H5417 C5446 0.950 . S
H5418 C5448 0.950 . S
H5419 C5449 0.950 . S
C5420 H5402 0.951 . S
C5420 C5421 1.366 . S
C5420 C5422 1.388 . S
C5421 C5420 1.366 . S
C5421 C5425 1.385 . S
C5422 H5403 0.951 . S
C5422 C5420 1.388 . S
C5422 C5423 1.366 . S
C5423 C5422 1.366 . S
C5423 C5424 1.414 . S
C5423 C5426 1.499 . S
C5424 H5404 0.950 . S
C5424 C5423 1.414 . S
C5424 C5425 1.374 . S
C5425 H5405 0.950 . S
C5425 C5421 1.385 . S
C5425 C5424 1.374 . S
C5426 C5423 1.499 . S
C5426 C5427 1.373 . S
C5426 C5428 1.389 . S
C5427 H5406 0.950 . S
C5427 C5426 1.373 . S
C5427 C5443 1.377 . S
C5428 C5426 1.389 . S
C5428 C5429 1.524 . S
C5428 C5442 1.377 . S
C5429 C5428 1.524 . S
C5429 C5430 1.397 . S
C5429 C5434 1.363 . S
C5430 H5407 0.950 . S
C5430 C5429 1.397 . S
C5430 C5431 1.334 . S
C5431 H5408 0.950 . S
C5431 C5430 1.334 . S
C5431 C5432 1.287 . S
C5432 C5431 1.287 . S
C5432 C5433 1.524 . S
C5432 H5451 0.913 . S
C5433 H5409 0.950 . S
C5433 C5432 1.524 . S
C5433 C5434 1.415 . S
C5434 H5410 0.950 . S
C5434 C5429 1.363 . S
C5434 C5433 1.415 . S
C5435 H5411 0.951 . S
C5435 C5436 1.366 . S
C5435 C5437 1.388 . S
C5436 C5435 1.366 . S
C5436 C5440 1.385 1_565 S
C5437 H5412 0.951 . S
C5437 C5435 1.388 . S
C5437 C5438 1.366 . S
C5438 C5437 1.366 . S
C5438 C5439 1.414 . S
C5438 C5441 1.499 . S
C5439 H5413 0.950 . S
C5439 C5438 1.414 . S
C5439 C5440 1.374 1_565 S
C5440 H5414 0.950 . S
C5440 C5436 1.385 1_545 S
C5440 C5439 1.374 1_545 S
C5441 C5438 1.499 . S
C5441 C5442 1.373 . S
C5441 C5443 1.389 . S
C5442 H5415 0.950 . S
C5442 C5428 1.377 . S
C5442 C5441 1.373 . S
C5443 C5427 1.377 . S
C5443 C5441 1.389 . S
C5443 C5444 1.524 . S
C5444 C5443 1.524 . S
C5444 C5445 1.397 . S
C5444 C5449 1.363 . S
C5445 H5416 0.950 . S
C5445 C5444 1.397 . S
C5445 C5446 1.334 . S
C5446 H5417 0.950 . S
C5446 C5445 1.334 . S
C5446 C5447 1.287 . S
C5447 C5446 1.287 . S
C5447 C5448 1.524 . S
C5447 H5450 0.999 . S
C5448 H5418 0.950 . S
C5448 C5447 1.524 . S
C5448 C5449 1.415 . S
C5449 H5419 0.950 . S
C5449 C5444 1.363 . S
C5449 C5448 1.415 . S
H5450 C5447 0.999 . S
H5451 C5432 0.913 . S
H5452 C5470 0.951 . S
H5453 C5472 0.951 . S
H5454 C5474 0.950 . S
H5455 C5475 0.950 . S
H5456 C5477 0.950 . S
H5457 C5480 0.950 . S
H5458 C5481 0.950 . S
H5459 C5483 0.950 . S
H5460 C5484 0.950 . S
H5461 C5485 0.951 . S
H5462 C5487 0.951 . S
H5463 C5489 0.950 . S
H5464 C5490 0.950 . S
H5465 C5492 0.950 . S
H5466 C5495 0.950 . S
H5467 C5496 0.950 . S
H5468 C5498 0.950 . S
H5469 C5499 0.950 . S
C5470 H5452 0.951 . S
C5470 C5471 1.366 . S
C5470 C5472 1.388 . S
C5471 C5470 1.366 . S
C5471 C5475 1.385 . S
C5472 H5453 0.951 . S
C5472 C5470 1.388 . S
C5472 C5473 1.366 . S
C5473 C5472 1.366 . S
C5473 C5474 1.414 . S
C5473 C5476 1.499 . S
C5474 H5454 0.950 . S
C5474 C5473 1.414 . S
C5474 C5475 1.374 . S
C5475 H5455 0.950 . S
C5475 C5471 1.385 . S
C5475 C5474 1.374 . S
C5476 C5473 1.499 . S
C5476 C5477 1.373 . S
C5476 C5478 1.389 . S
C5477 H5456 0.950 . S
C5477 C5476 1.373 . S
C5477 C5493 1.377 . S
C5478 C5476 1.389 . S
C5478 C5479 1.524 . S
C5478 C5492 1.377 . S
C5479 C5478 1.524 . S
C5479 C5480 1.397 . S
C5479 C5484 1.363 . S
C5480 H5457 0.950 . S
C5480 C5479 1.397 . S
C5480 C5481 1.334 . S
C5481 H5458 0.950 . S
C5481 C5480 1.334 . S
C5481 C5482 1.287 . S
C5482 C5481 1.287 . S
C5482 C5483 1.524 . S
C5482 H5501 0.913 . S
C5483 H5459 0.950 . S
C5483 C5482 1.524 . S
C5483 C5484 1.415 . S
C5484 H5460 0.950 . S
C5484 C5479 1.363 . S
C5484 C5483 1.415 . S
C5485 H5461 0.951 . S
C5485 C5486 1.366 . S
C5485 C5487 1.388 . S
C5486 C5485 1.366 . S
C5486 C5490 1.385 . S
C5487 H5462 0.951 . S
C5487 C5485 1.388 . S
C5487 C5488 1.366 . S
C5488 C5487 1.366 . S
C5488 C5489 1.414 . S
C5488 C5491 1.499 . S
C5489 H5463 0.950 . S
C5489 C5488 1.414 . S
C5489 C5490 1.374 . S
C5490 H5464 0.950 . S
C5490 C5486 1.385 . S
C5490 C5489 1.374 . S
C5491 C5488 1.499 . S
C5491 C5492 1.373 . S
C5491 C5493 1.389 . S
C5492 H5465 0.950 . S
C5492 C5478 1.377 . S
C5492 C5491 1.373 . S
C5493 C5477 1.377 . S
C5493 C5491 1.389 . S
C5493 C5494 1.524 . S
C5494 C5493 1.524 . S
C5494 C5495 1.397 . S
C5494 C5499 1.363 . S
C5495 H5466 0.950 . S
C5495 C5494 1.397 . S
C5495 C5496 1.334 . S
C5496 H5467 0.950 . S
C5496 C5495 1.334 . S
C5496 C5497 1.287 . S
C5497 C5496 1.287 . S
C5497 C5498 1.524 . S
C5497 H5500 0.999 . S
C5498 H5468 0.950 . S
C5498 C5497 1.524 . S
C5498 C5499 1.415 . S
C5499 H5469 0.950 . S
C5499 C5494 1.363 . S
C5499 C5498 1.415 . S
H5500 C5497 0.999 . S
H5501 C5482 0.913 . S
H5502 C5520 0.951 . S
H5503 C5522 0.951 . S
H5504 C5524 0.950 . S
H5505 C5525 0.950 . S
H5506 C5527 0.950 . S
H5507 C5530 0.950 . S
H5508 C5531 0.950 . S
H5509 C5533 0.950 . S
H5510 C5534 0.950 . S
H5511 C5535 0.951 . S
H5512 C5537 0.951 . S
H5513 C5539 0.950 . S
H5514 C5540 0.950 . S
H5515 C5542 0.950 . S
H5516 C5545 0.950 . S
H5517 C5546 0.950 . S
H5518 C5548 0.950 . S
H5519 C5549 0.950 . S
C5520 H5502 0.951 . S
C5520 C5521 1.366 1_556 S
C5520 C5522 1.388 . S
C5521 C5520 1.366 1_554 S
C5521 C5525 1.385 . S
C5522 H5503 0.951 . S
C5522 C5520 1.388 . S
C5522 C5523 1.366 1_556 S
C5523 C5522 1.366 1_554 S
C5523 C5524 1.414 . S
C5523 C5526 1.499 . S
C5524 H5504 0.950 . S
C5524 C5523 1.414 . S
C5524 C5525 1.374 . S
C5525 H5505 0.950 . S
C5525 C5521 1.385 . S
C5525 C5524 1.374 . S
C5526 C5523 1.499 . S
C5526 C5527 1.373 . S
C5526 C5528 1.389 1_554 S
C5527 H5506 0.950 . S
C5527 C5526 1.373 . S
C5527 C5543 1.377 . S
C5528 C5526 1.389 1_556 S
C5528 C5529 1.524 . S
C5528 C5542 1.377 . S
C5529 C5528 1.524 . S
C5529 C5530 1.397 . S
C5529 C5534 1.363 . S
C5530 H5507 0.950 . S
C5530 C5529 1.397 . S
C5530 C5531 1.334 . S
C5531 H5508 0.950 . S
C5531 C5530 1.334 . S
C5531 C5532 1.287 . S
C5532 C5531 1.287 . S
C5532 C5533 1.524 . S
C5532 H5551 0.913 . S
C5533 H5509 0.950 . S
C5533 C5532 1.524 . S
C5533 C5534 1.415 . S
C5534 H5510 0.950 . S
C5534 C5529 1.363 . S
C5534 C5533 1.415 . S
C5535 H5511 0.951 . S
C5535 C5536 1.366 . S
C5535 C5537 1.388 . S
C5536 C5535 1.366 . S
C5536 C5540 1.385 1_554 S
C5537 H5512 0.951 . S
C5537 C5535 1.388 . S
C5537 C5538 1.366 . S
C5538 C5537 1.366 . S
C5538 C5539 1.414 1_554 S
C5538 C5541 1.499 . S
C5539 H5513 0.950 . S
C5539 C5538 1.414 1_556 S
C5539 C5540 1.374 . S
C5540 H5514 0.950 . S
C5540 C5536 1.385 1_556 S
C5540 C5539 1.374 . S
C5541 C5538 1.499 . S
C5541 C5542 1.373 1_554 S
C5541 C5543 1.389 . S
C5542 H5515 0.950 . S
C5542 C5528 1.377 . S
C5542 C5541 1.373 1_556 S
C5543 C5527 1.377 . S
C5543 C5541 1.389 . S
C5543 C5544 1.524 . S
C5544 C5543 1.524 . S
C5544 C5545 1.397 . S
C5544 C5549 1.363 . S
C5545 H5516 0.950 . S
C5545 C5544 1.397 . S
C5545 C5546 1.334 . S
C5546 H5517 0.950 . S
C5546 C5545 1.334 . S
C5546 C5547 1.287 . S
C5547 C5546 1.287 . S
C5547 C5548 1.524 . S
C5547 H5550 0.999 . S
C5548 H5518 0.950 . S
C5548 C5547 1.524 . S
C5548 C5549 1.415 . S
C5549 H5519 0.950 . S
C5549 C5544 1.363 . S
C5549 C5548 1.415 . S
H5550 C5547 0.999 . S
H5551 C5532 0.913 . S
H5552 C5570 0.951 . S
H5553 C5572 0.951 . S
H5554 C5574 0.950 . S
H5555 C5575 0.950 . S
H5556 C5577 0.950 . S
H5557 C5580 0.950 . S
H5558 C5581 0.950 . S
H5559 C5583 0.950 . S
H5560 C5584 0.950 . S
H5561 C5585 0.951 . S
H5562 C5587 0.951 . S
H5563 C5589 0.950 . S
H5564 C5590 0.950 . S
H5565 C5592 0.950 . S
H5566 C5595 0.950 . S
H5567 C5596 0.950 . S
H5568 C5598 0.950 . S
H5569 C5599 0.950 . S
C5570 H5552 0.951 . S
C5570 C5571 1.366 . S
C5570 C5572 1.388 . S
C5571 C5570 1.366 . S
C5571 C5575 1.385 . S
C5572 H5553 0.951 . S
C5572 C5570 1.388 . S
C5572 C5573 1.366 . S
C5573 C5572 1.366 . S
C5573 C5574 1.414 . S
C5573 C5576 1.499 . S
C5574 H5554 0.950 . S
C5574 C5573 1.414 . S
C5574 C5575 1.374 . S
C5575 H5555 0.950 . S
C5575 C5571 1.385 . S
C5575 C5574 1.374 . S
C5576 C5573 1.499 . S
C5576 C5577 1.373 . S
C5576 C5578 1.389 . S
C5577 H5556 0.950 . S
C5577 C5576 1.373 . S
C5577 C5593 1.377 . S
C5578 C5576 1.389 . S
C5578 C5579 1.524 . S
C5578 C5592 1.377 . S
C5579 C5578 1.524 . S
C5579 C5580 1.397 . S
C5579 C5584 1.363 . S
C5580 H5557 0.950 . S
C5580 C5579 1.397 . S
C5580 C5581 1.334 . S
C5581 H5558 0.950 . S
C5581 C5580 1.334 . S
C5581 C5582 1.287 . S
C5582 C5581 1.287 . S
C5582 C5583 1.524 . S
C5582 H5601 0.913 . S
C5583 H5559 0.950 . S
C5583 C5582 1.524 . S
C5583 C5584 1.415 . S
C5584 H5560 0.950 . S
C5584 C5579 1.363 . S
C5584 C5583 1.415 . S
C5585 H5561 0.951 . S
C5585 C5586 1.366 . S
C5585 C5587 1.388 . S
C5586 C5585 1.366 . S
C5586 C5590 1.385 . S
C5587 H5562 0.951 . S
C5587 C5585 1.388 . S
C5587 C5588 1.366 . S
C5588 C5587 1.366 . S
C5588 C5589 1.414 . S
C5588 C5591 1.499 . S
C5589 H5563 0.950 . S
C5589 C5588 1.414 . S
C5589 C5590 1.374 . S
C5590 H5564 0.950 . S
C5590 C5586 1.385 . S
C5590 C5589 1.374 . S
C5591 C5588 1.499 . S
C5591 C5592 1.373 . S
C5591 C5593 1.389 . S
C5592 H5565 0.950 . S
C5592 C5578 1.377 . S
C5592 C5591 1.373 . S
C5593 C5577 1.377 . S
C5593 C5591 1.389 . S
C5593 C5594 1.524 . S
C5594 C5593 1.524 . S
C5594 C5595 1.397 . S
C5594 C5599 1.363 . S
C5595 H5566 0.950 . S
C5595 C5594 1.397 . S
C5595 C5596 1.334 . S
C5596 H5567 0.950 . S
C5596 C5595 1.334 . S
C5596 C5597 1.287 . S
C5597 C5596 1.287 . S
C5597 C5598 1.524 . S
C5597 H5600 0.999 . S
C5598 H5568 0.950 . S
C5598 C5597 1.524 . S
C5598 C5599 1.415 . S
C5599 H5569 0.950 . S
C5599 C5594 1.363 . S
C5599 C5598 1.415 . S
H5600 C5597 0.999 . S
H5601 C5582 0.913 . S
H5602 C5620 0.951 . S
H5603 C5622 0.951 . S
H5604 C5624 0.970 . S
H5605 C5625 0.950 . S
H5606 C5627 0.950 . S
H5607 C5630 0.950 . S
H5608 C5631 0.950 . S
H5609 C5633 0.950 . S
H5610 C5634 0.950 . S
H5611 C5635 0.951 . S
H5612 C5637 0.951 . S
H5613 C5639 0.950 . S
H5614 C5640 0.950 . S
H5615 C5642 0.950 . S
H5616 C5645 0.950 . S
H5617 C5646 0.950 . S
H5618 C5648 0.950 . S
H5619 C5649 0.950 . S
C5620 H5602 0.951 . S
C5620 C5621 1.366 . S
C5620 C5622 1.388 . S
C5621 C5620 1.366 . S
C5621 C5625 1.385 . S
C5622 H5603 0.951 . S
C5622 C5620 1.388 . S
C5622 C5623 1.366 . S
C5623 C5622 1.366 . S
C5623 C5624 1.414 . S
C5623 C5626 1.499 . S
C5624 H5604 0.970 . S
C5624 C5623 1.414 . S
C5624 C5625 1.374 . S
C5625 H5605 0.950 . S
C5625 C5621 1.385 . S
C5625 C5624 1.374 . S
C5626 C5623 1.499 . S
C5626 C5627 1.373 . S
C5626 C5628 1.389 . S
C5627 H5606 0.950 . S
C5627 C5626 1.373 . S
C5627 C5643 1.377 . S
C5628 C5626 1.389 . S
C5628 C5629 1.524 . S
C5628 C5642 1.377 . S
C5629 C5628 1.524 . S
C5629 C5630 1.397 1_554 S
C5629 C5634 1.363 . S
C5630 H5607 0.950 . S
C5630 C5629 1.397 1_556 S
C5630 C5631 1.334 . S
C5631 H5608 0.950 . S
C5631 C5630 1.334 . S
C5631 C5632 1.287 . S
C5632 C5631 1.287 . S
C5632 C5633 1.524 1_556 S
C5632 H5651 0.913 . S
C5633 H5609 0.950 . S
C5633 C5632 1.524 1_554 S
C5633 C5634 1.415 . S
C5634 H5610 0.950 . S
C5634 C5629 1.363 . S
C5634 C5633 1.415 . S
C5635 H5611 0.951 . S
C5635 C5636 1.366 1_556 S
C5635 C5637 1.388 . S
C5636 C5635 1.366 1_554 S
C5636 C5640 1.385 . S
C5637 H5612 0.951 . S
C5637 C5635 1.388 . S
C5637 C5638 1.366 1_556 S
C5638 C5637 1.366 1_554 S
C5638 C5639 1.414 . S
C5638 C5641 1.499 . S
C5639 H5613 0.950 . S
C5639 C5638 1.414 . S
C5639 C5640 1.374 . S
C5640 H5614 0.950 . S
C5640 C5636 1.385 . S
C5640 C5639 1.374 . S
C5641 C5638 1.499 . S
C5641 C5642 1.373 . S
C5641 C5643 1.389 . S
C5642 H5615 0.950 . S
C5642 C5628 1.377 . S
C5642 C5641 1.373 . S
C5643 C5627 1.377 . S
C5643 C5641 1.389 . S
C5643 C5644 1.524 . S
C5644 C5643 1.524 . S
C5644 C5645 1.397 . S
C5644 C5649 1.363 . S
C5645 H5616 0.950 . S
C5645 C5644 1.397 . S
C5645 C5646 1.334 . S
C5646 H5617 0.950 . S
C5646 C5645 1.334 . S
C5646 C5647 1.287 . S
C5647 C5646 1.287 . S
C5647 C5648 1.524 . S
C5647 H5650 0.999 . S
C5648 H5618 0.950 . S
C5648 C5647 1.524 . S
C5648 C5649 1.415 . S
C5649 H5619 0.950 . S
C5649 C5644 1.363 . S
C5649 C5648 1.415 . S
H5650 C5647 0.999 . S
H5651 C5632 0.913 . S
H5652 C5670 0.951 . S
H5653 C5672 0.951 . S
H5654 C5674 0.950 . S
H5655 C5675 0.950 . S
H5656 C5677 0.950 . S
H5657 C5680 0.950 . S
H5658 C5681 0.950 . S
H5659 C5683 0.950 . S
H5660 C5684 0.950 . S
H5661 C5685 0.951 . S
H5662 C5687 0.951 . S
H5663 C5689 0.950 . S
H5664 C5690 0.950 . S
H5665 C5692 0.950 . S
H5666 C5695 0.950 . S
H5667 C5696 0.950 . S
H5668 C5698 0.950 . S
H5669 C5699 0.950 . S
C5670 H5652 0.951 . S
C5670 C5671 1.366 . S
C5670 C5672 1.388 . S
C5671 C5670 1.366 . S
C5671 C5675 1.385 . S
C5672 H5653 0.951 . S
C5672 C5670 1.388 . S
C5672 C5673 1.366 . S
C5673 C5672 1.366 . S
C5673 C5674 1.414 . S
C5673 C5676 1.499 . S
C5674 H5654 0.950 . S
C5674 C5673 1.414 . S
C5674 C5675 1.374 . S
C5675 H5655 0.950 . S
C5675 C5671 1.385 . S
C5675 C5674 1.374 . S
C5676 C5673 1.499 . S
C5676 C5677 1.373 . S
C5676 C5678 1.389 . S
C5677 H5656 0.950 . S
C5677 C5676 1.373 . S
C5677 C5693 1.377 . S
C5678 C5676 1.389 . S
C5678 C5679 1.524 . S
C5678 C5692 1.377 . S
C5679 C5678 1.524 . S
C5679 C5680 1.397 . S
C5679 C5684 1.363 . S
C5680 H5657 0.950 . S
C5680 C5679 1.397 . S
C5680 C5681 1.334 . S
C5681 H5658 0.950 . S
C5681 C5680 1.334 . S
C5681 C5682 1.287 . S
C5682 C5681 1.287 . S
C5682 C5683 1.524 . S
C5682 H5701 0.913 . S
C5683 H5659 0.950 . S
C5683 C5682 1.524 . S
C5683 C5684 1.415 . S
C5684 H5660 0.950 . S
C5684 C5679 1.363 . S
C5684 C5683 1.415 . S
C5685 H5661 0.951 . S
C5685 C5686 1.366 . S
C5685 C5687 1.388 . S
C5686 C5685 1.366 . S
C5686 C5690 1.385 . S
C5687 H5662 0.951 . S
C5687 C5685 1.388 . S
C5687 C5688 1.366 . S
C5688 C5687 1.366 . S
C5688 C5689 1.414 . S
C5688 C5691 1.499 . S
C5689 H5663 0.950 . S
C5689 C5688 1.414 . S
C5689 C5690 1.374 . S
C5690 H5664 0.950 . S
C5690 C5686 1.385 . S
C5690 C5689 1.374 . S
C5691 C5688 1.499 . S
C5691 C5692 1.373 . S
C5691 C5693 1.389 . S
C5692 H5665 0.950 . S
C5692 C5678 1.377 . S
C5692 C5691 1.373 . S
C5693 C5677 1.377 . S
C5693 C5691 1.389 . S
C5693 C5694 1.524 . S
C5694 C5693 1.524 . S
C5694 C5695 1.397 . S
C5694 C5699 1.363 . S
C5695 H5666 0.950 . S
C5695 C5694 1.397 . S
C5695 C5696 1.334 . S
C5696 H5667 0.950 . S
C5696 C5695 1.334 . S
C5696 C5697 1.287 . S
C5697 C5696 1.287 . S
C5697 C5698 1.524 . S
C5697 H5700 0.999 . S
C5698 H5668 0.950 . S
C5698 C5697 1.524 . S
C5698 C5699 1.415 . S
C5699 H5669 0.950 . S
C5699 C5694 1.363 . S
C5699 C5698 1.415 . S
H5700 C5697 0.999 . S
H5701 C5682 0.913 . S
H5702 C5720 0.951 . S
H5703 C5722 0.951 . S
H5704 C5724 0.950 . S
H5705 C5725 0.950 . S
H5706 C5727 0.950 . S
H5707 C5730 0.950 . S
H5708 C5731 0.950 . S
H5709 C5733 0.950 . S
H5710 C5734 0.950 . S
H5711 C5735 0.951 . S
H5712 C5737 0.951 . S
H5713 C5739 0.950 . S
H5714 C5740 0.950 . S
H5715 C5742 0.950 . S
H5716 C5745 0.950 . S
H5717 C5746 0.950 . S
H5718 C5748 0.950 . S
H5719 C5749 0.950 . S
C5720 H5702 0.951 . S
C5720 C5721 1.366 . S
C5720 C5722 1.388 . S
C5721 C5720 1.366 . S
C5721 C5725 1.385 . S
C5722 H5703 0.951 . S
C5722 C5720 1.388 . S
C5722 C5723 1.366 . S
C5723 C5722 1.366 . S
C5723 C5724 1.414 . S
C5723 C5726 1.499 . S
C5724 H5704 0.950 . S
C5724 C5723 1.414 . S
C5724 C5725 1.374 . S
C5725 H5705 0.950 . S
C5725 C5721 1.385 . S
C5725 C5724 1.374 . S
C5726 C5723 1.499 . S
C5726 C5727 1.373 . S
C5726 C5728 1.389 . S
C5727 H5706 0.950 . S
C5727 C5726 1.373 . S
C5727 C5743 1.377 . S
C5728 C5726 1.389 . S
C5728 C5729 1.524 . S
C5728 C5742 1.377 . S
C5729 C5728 1.524 . S
C5729 C5730 1.397 . S
C5729 C5734 1.363 . S
C5730 H5707 0.950 . S
C5730 C5729 1.397 . S
C5730 C5731 1.334 . S
C5731 H5708 0.950 . S
C5731 C5730 1.334 . S
C5731 C5732 1.287 . S
C5732 C5731 1.287 . S
C5732 C5733 1.524 . S
C5732 H5751 0.913 . S
C5733 H5709 0.950 . S
C5733 C5732 1.524 . S
C5733 C5734 1.415 . S
C5734 H5710 0.950 . S
C5734 C5729 1.363 . S
C5734 C5733 1.415 . S
C5735 H5711 0.951 . S
C5735 C5736 1.366 . S
C5735 C5737 1.388 . S
C5736 C5735 1.366 . S
C5736 C5740 1.385 . S
C5737 H5712 0.951 . S
C5737 C5735 1.388 . S
C5737 C5738 1.366 . S
C5738 C5737 1.366 . S
C5738 C5739 1.414 . S
C5738 C5741 1.499 . S
C5739 H5713 0.950 . S
C5739 C5738 1.414 . S
C5739 C5740 1.374 . S
C5740 H5714 0.950 . S
C5740 C5736 1.385 . S
C5740 C5739 1.374 . S
C5741 C5738 1.499 . S
C5741 C5742 1.373 . S
C5741 C5743 1.389 . S
C5742 H5715 0.950 . S
C5742 C5728 1.377 . S
C5742 C5741 1.373 . S
C5743 C5727 1.377 . S
C5743 C5741 1.389 . S
C5743 C5744 1.524 . S
C5744 C5743 1.524 . S
C5744 C5745 1.397 . S
C5744 C5749 1.363 . S
C5745 H5716 0.950 . S
C5745 C5744 1.397 . S
C5745 C5746 1.334 . S
C5746 H5717 0.950 . S
C5746 C5745 1.334 . S
C5746 C5747 1.287 . S
C5747 C5746 1.287 . S
C5747 C5748 1.524 . S
C5747 H5750 0.999 . S
C5748 H5718 0.950 . S
C5748 C5747 1.524 . S
C5748 C5749 1.415 . S
C5749 H5719 0.950 . S
C5749 C5744 1.363 . S
C5749 C5748 1.415 . S
H5750 C5747 0.999 . S
H5751 C5732 0.913 . S
C971 C101 2.135 . S
C986 C322 2.067 . S
C1021 C57 1.973 . S
C1036 C370 2.001 . S
C1071 C70 0.790 . S
C1086 C402 0.784 . S
C1136 C447 1.353 . S
C1121 C82 1.364 . S
C1171 C23 1.265 . S
C1186 C487 1.237 . S
C1236 C518 0.296 . S
C1221 C29 0.173 . S
C1286 C570 1.033 . S
C1271 C49 1.009 . S
C1321 C10 1.724 . S
C1336 C602 1.636 . S
C1386 C330 2.342 . S
C1371 C218 2.344 . S
C1421 C226 0.338 . S
C1436 C367 0.442 . S
C1486 C410 1.274 . S
C1471 C251 1.270 . S
C1536 C442 0.982 . S
C1521 C159 1.005 . S
C1571 C211 1.684 . S
C1586 C482 1.632 . S
C1636 C521 1.422 . S
C1621 C225 1.434 . S
C1686 C567 0.365 . S
C1671 C252 0.186 . S
C1736 C610 1.925 . S
C1721 C166 1.938 . S
C1786 C327 1.427 . S
C1771 C147 1.460 . S
C1821 C263 1.883 . S
C1836 C650 1.906 . S
C1886 C691 2.521 . S
C1871 C309 2.585 . S
C1936 C722 0.414 . S
C1921 C291 0.315 . S
C1971 C108 1.416 . S
C1986 C607 1.387 . S
C2021 C121 1.545 . S
C2036 C407 1.527 . S
C2071 C302 2.192 . S
C2086 C770 2.187 . S
C2136 C802 0.505 . S
C2121 C276 0.353 . S
C2186 C331 2.306 1_565 S
C2171 C55 2.354 . S
C2236 C801 2.343 . S
C2221 C96 2.360 . S
C2271 C88 1.294 . S
C2286 C411 1.260 . S
C2321 C75 1.633 . S
C2336 C758 1.620 . S
C2386 C478 1.309 . S
C2371 C4 1.328 . S
C2421 C44 0.468 . S
C2436 C687 0.477 . S
C2486 C561 1.519 1_565 S
C2471 C31 1.525 . S
C2536 C851 1.824 . S
C2521 C18 1.894 . S
C2586 C321 2.636 . S
C2571 C133 2.660 . S
C2636 C798 0.488 . S
C2621 C296 0.456 . S
C2671 C107 1.621 . S
C2686 C401 1.597 . S
C2721 C264 1.456 . S
C2736 C771 1.431 . S
C2771 C140 1.980 . S
C2786 C491 1.955 . S
C2836 C690 1.605 . S
C2821 C289 1.642 . S
C2871 C114 0.339 . S
C2886 C558 0.386 . S
C2921 C265 2.242 . S
C2936 C841 2.213 . S
C2971 C179 1.579 . S
C2986 C318 1.554 . S
C3021 C161 2.236 . S
C3036 C641 2.220 . S
C3071 C244 2.882 . S
C3086 C522 2.816 . S
C3121 C224 0.958 . S
C3136 C731 0.951 . S
C3186 C838 1.387 . S
C3171 C257 1.405 . S
C3221 C199 1.673 . S
C3236 C398 1.658 . S
C3286 C441 2.514 . S
C3271 C237 2.547 . S
C3336 C371 0.728 . S
C3321 C185 0.726 . S
C3371 C69 2.136 . S
C3386 C882 2.068 . S
C3436 C810 2.001 . S
C3421 C83 1.971 . S
C3471 C94 0.792 . S
C3486 C922 0.784 . S
C3521 C56 1.364 . S
C3536 C767 1.352 . S
C3571 C42 1.282 . S
C3586 C647 1.249 . S
C3636 C678 0.299 . S
C3621 C3 0.175 . S
C3686 C730 1.044 . S
C3671 C16 1.016 . S
C3736 C842 1.636 . S
C3721 C36 1.724 . S
C3786 C890 2.342 . S
C3771 C238 2.344 . S
C3821 C174 0.337 . S
C3836 C807 0.440 . S
C3886 C930 1.274 . S
C3871 C186 1.270 . S
C3936 C762 0.980 . S
C3921 C198 1.004 . S
C3986 C642 1.633 . S
C3971 C239 1.686 . S
C4021 C173 1.433 . S
C4036 C681 1.421 . S
C4086 C727 0.369 . S
C4071 C187 0.190 . S
C4121 C205 1.938 . S
C4136 C850 1.924 . S
C4186 C887 1.424 . S
C4171 C290 1.458 . S
C4221 C122 1.885 . S
C4236 C490 1.901 . S
C4286 C531 2.529 . S
C4271 C134 2.592 . S
C4336 C562 0.411 . S
C4321 C148 0.313 . S
C4386 C847 1.386 . S
C4371 C283 1.414 . S
C4421 C270 1.543 . S
C4436 C927 1.524 . S
C4486 C450 2.185 . S
C4471 C135 2.190 . S
C4536 C362 0.507 . S
C4521 C109 0.354 . S
C4571 C81 2.354 . S
C4586 C891 2.306 . S
C4636 C361 2.341 . S
C4621 C68 2.359 . S
C4671 C62 1.294 . S
C4686 C931 1.259 . S
C4721 C95 1.632 . S
C4736 C438 1.620 . S
C4771 C30 1.328 . S
C4786 C638 1.309 . S
C4836 C527 0.462 . S
C4821 C17 0.446 . S
C4871 C5 1.526 . S
C4886 C721 1.519 . S
C4921 C43 1.878 . S
C4936 C611 1.813 . S
C4986 C881 2.636 . S
C4971 C304 2.660 . S
C5021 C153 0.454 . S
C5036 C358 0.486 . S
C5086 C921 1.598 . S
C5071 C278 1.622 . S
C5121 C127 1.456 . S
C5136 C451 1.429 . S
C5171 C303 1.972 . S
C5186 C651 1.946 . S
C5236 C530 1.602 . S
C5221 C146 1.639 . S
C5271 C277 0.336 . S
C5286 C718 0.386 . S
C5336 C601 2.210 . S
C5321 C120 2.239 . S
C5386 C878 1.554 . S
C5371 C231 1.579 . S
C5436 C481 2.220 1_665 S
C5421 C200 2.235 . S
C5471 C212 2.887 . S
C5486 C682 2.821 . S
C5536 C571 0.950 . S
C5521 C172 0.958 . S
C5571 C192 1.403 . S
C5586 C598 1.386 . S
C5621 C160 1.673 . S
C5636 C918 1.659 . S
C5686 C761 2.516 . S
C5671 C213 2.550 1_565 S
C5736 C811 0.730 . S
C5721 C250 0.729 . S
