# Generated by pormake.
# Topology ocu, (6,8)-cn, num edge types: 1
# Building blocks:
#     Node 0, Type 0, BuildingBlock: KUMJIN_clean_sbu_1, # of connection points: 6
#     Node 1, Type 0, BuildingBlock: KUMJIN_clean_sbu_1, # of connection points: 6
#     Node 2, Type 0, BuildingBlock: KUMJIN_clean_sbu_1, # of connection points: 6
#     Node 3, Type 0, BuildingBlock: KUMJIN_clean_sbu_1, # of connection points: 6
#     Node 4, Type 0, BuildingBlock: KUMJIN_clean_sbu_1, # of connection points: 6
#     Node 5, Type 0, BuildingBlock: KUMJIN_clean_sbu_1, # of connection points: 6
#     Node 6, Type 0, BuildingBlock: KUMJIN_clean_sbu_1, # of connection points: 6
#     Node 7, Type 0, BuildingBlock: KUMJIN_clean_sbu_1, # of connection points: 6
#     Node 8, Type 1, BuildingBlock: AJUNOK_clean_sbu_0, # of connection points: 8
#     Node 9, Type 1, BuildingBlock: AJUNOK_clean_sbu_0, # of connection points: 8
#     Node 10, Type 1, BuildingBlock: AJUNOK_clean_sbu_0, # of connection points: 8
#     Node 11, Type 1, BuildingBlock: AJUNOK_clean_sbu_0, # of connection points: 8
#     Node 12, Type 1, BuildingBlock: AJUNOK_clean_sbu_0, # of connection points: 8
#     Node 13, Type 1, BuildingBlock: AJUNOK_clean_sbu_0, # of connection points: 8
#     Edge 14, Type (0, 1), BuildingBlock: XIVTED_clean_linker_0, # of connection points: 2
#     Edge 15, Type (0, 1), BuildingBlock: XIVTED_clean_linker_0, # of connection points: 2
#     Edge 16, Type (0, 1), BuildingBlock: XIVTED_clean_linker_0, # of connection points: 2
#     Edge 17, Type (0, 1), BuildingBlock: XIVTED_clean_linker_0, # of connection points: 2
#     Edge 18, Type (0, 1), BuildingBlock: XIVTED_clean_linker_0, # of connection points: 2
#     Edge 19, Type (0, 1), BuildingBlock: XIVTED_clean_linker_0, # of connection points: 2
#     Edge 20, Type (0, 1), BuildingBlock: XIVTED_clean_linker_0, # of connection points: 2
#     Edge 21, Type (0, 1), BuildingBlock: XIVTED_clean_linker_0, # of connection points: 2
#     Edge 22, Type (0, 1), BuildingBlock: XIVTED_clean_linker_0, # of connection points: 2
#     Edge 23, Type (0, 1), BuildingBlock: XIVTED_clean_linker_0, # of connection points: 2
#     Edge 24, Type (0, 1), BuildingBlock: XIVTED_clean_linker_0, # of connection points: 2
#     Edge 25, Type (0, 1), BuildingBlock: XIVTED_clean_linker_0, # of connection points: 2
#     Edge 26, Type (0, 1), BuildingBlock: XIVTED_clean_linker_0, # of connection points: 2
#     Edge 27, Type (0, 1), BuildingBlock: XIVTED_clean_linker_0, # of connection points: 2
#     Edge 28, Type (0, 1), BuildingBlock: XIVTED_clean_linker_0, # of connection points: 2
#     Edge 29, Type (0, 1), BuildingBlock: XIVTED_clean_linker_0, # of connection points: 2
#     Edge 30, Type (0, 1), BuildingBlock: XIVTED_clean_linker_0, # of connection points: 2
#     Edge 31, Type (0, 1), BuildingBlock: XIVTED_clean_linker_0, # of connection points: 2
#     Edge 32, Type (0, 1), BuildingBlock: XIVTED_clean_linker_0, # of connection points: 2
#     Edge 33, Type (0, 1), BuildingBlock: XIVTED_clean_linker_0, # of connection points: 2
#     Edge 34, Type (0, 1), BuildingBlock: XIVTED_clean_linker_0, # of connection points: 2
#     Edge 35, Type (0, 1), BuildingBlock: XIVTED_clean_linker_0, # of connection points: 2
#     Edge 36, Type (0, 1), BuildingBlock: XIVTED_clean_linker_0, # of connection points: 2
#     Edge 37, Type (0, 1), BuildingBlock: XIVTED_clean_linker_0, # of connection points: 2
#     Edge 38, Type (0, 1), BuildingBlock: XIVTED_clean_linker_0, # of connection points: 2
#     Edge 39, Type (0, 1), BuildingBlock: XIVTED_clean_linker_0, # of connection points: 2
#     Edge 40, Type (0, 1), BuildingBlock: XIVTED_clean_linker_0, # of connection points: 2
#     Edge 41, Type (0, 1), BuildingBlock: XIVTED_clean_linker_0, # of connection points: 2
#     Edge 42, Type (0, 1), BuildingBlock: XIVTED_clean_linker_0, # of connection points: 2
#     Edge 43, Type (0, 1), BuildingBlock: XIVTED_clean_linker_0, # of connection points: 2
#     Edge 44, Type (0, 1), BuildingBlock: XIVTED_clean_linker_0, # of connection points: 2
#     Edge 45, Type (0, 1), BuildingBlock: XIVTED_clean_linker_0, # of connection points: 2
#     Edge 46, Type (0, 1), BuildingBlock: XIVTED_clean_linker_0, # of connection points: 2
#     Edge 47, Type (0, 1), BuildingBlock: XIVTED_clean_linker_0, # of connection points: 2
#     Edge 48, Type (0, 1), BuildingBlock: XIVTED_clean_linker_0, # of connection points: 2
#     Edge 49, Type (0, 1), BuildingBlock: XIVTED_clean_linker_0, # of connection points: 2
#     Edge 50, Type (0, 1), BuildingBlock: XIVTED_clean_linker_0, # of connection points: 2
#     Edge 51, Type (0, 1), BuildingBlock: XIVTED_clean_linker_0, # of connection points: 2
#     Edge 52, Type (0, 1), BuildingBlock: XIVTED_clean_linker_0, # of connection points: 2
#     Edge 53, Type (0, 1), BuildingBlock: XIVTED_clean_linker_0, # of connection points: 2
#     Edge 54, Type (0, 1), BuildingBlock: XIVTED_clean_linker_0, # of connection points: 2
#     Edge 55, Type (0, 1), BuildingBlock: XIVTED_clean_linker_0, # of connection points: 2
#     Edge 56, Type (0, 1), BuildingBlock: XIVTED_clean_linker_0, # of connection points: 2
#     Edge 57, Type (0, 1), BuildingBlock: XIVTED_clean_linker_0, # of connection points: 2
#     Edge 58, Type (0, 1), BuildingBlock: XIVTED_clean_linker_0, # of connection points: 2
#     Edge 59, Type (0, 1), BuildingBlock: XIVTED_clean_linker_0, # of connection points: 2
#     Edge 60, Type (0, 1), BuildingBlock: XIVTED_clean_linker_0, # of connection points: 2
#     Edge 61, Type (0, 1), BuildingBlock: XIVTED_clean_linker_0, # of connection points: 2
# Relax obj value: 0.131
# Max RMSD: 0.182
# Mean RMSD: 0.157
data_MOF--net-ocu--node1-KUMJIN_clean_sbu_1--node2-AJUNOK_clean_sbu_0--edge1-XIVTED_clean_linker_0
_symmetry_space_group_name_H-M    P1
_symmetry_Int_Tables_number       1
_symmetry_cell_setting            triclinic
loop_
_symmetry_equiv_pos_as_xyz
'x, y, z'
_cell_length_a     44.359628
_cell_length_b     45.122461
_cell_length_c     39.507225
_cell_angle_alpha  104.85757
_cell_angle_beta   87.744661
_cell_angle_gamma 113.09585
loop_
_atom_site_label
_atom_site_type_symbol
_atom_site_fract_x
_atom_site_fract_y
_atom_site_fract_z
_atom_type_partial_charge
Eu0 Eu 0.22618 0.23716 0.20058 0.0
C1 C 0.32316 0.32425 0.34251 0.0
N2 N 0.32959 0.31099 0.30924 0.0
C3 C 0.37344 0.36364 0.30968 0.0
C4 C 0.34079 0.35832 0.35976 0.0
C5 C 0.35574 0.32975 0.29378 0.0
C6 C 0.36556 0.37815 0.34251 0.0
C7 C 0.2935 0.31663 0.39497 0.0
C8 C 0.29978 0.30358 0.36021 0.0
C9 C 0.31037 0.35067 0.41154 0.0
C10 C 0.33387 0.37145 0.39398 0.0
Eu11 Eu 0.29613 0.25333 0.28531 0.0
N12 N 0.2828 0.27079 0.34331 0.0
C13 C 0.27029 0.29503 0.41207 0.0
C14 C 0.26092 0.24944 0.36017 0.0
C15 C 0.25413 0.26127 0.39469 0.0
H16 H 0.36386 0.31884 0.26954 0.0
H17 H 0.23649 0.24434 0.40789 0.0
H18 H 0.15517 0.17668 0.21728 0.0
H19 H 0.28756 0.23799 0.07829 0.0
H20 H 0.24891 0.22327 0.34695 0.0
H21 H 0.26484 0.30413 0.43876 0.0
H22 H 0.27494 0.26245 0.13789 0.0
H23 H 0.39359 0.37844 0.29685 0.0
H24 H 0.30563 0.36114 0.4381 0.0
H25 H 0.34703 0.39757 0.40738 0.0
H26 H 0.12153 0.11754 0.19133 0.0
H27 H 0.37957 0.40437 0.35487 0.0
H28 H 0.2579 0.17771 0.05027 0.0
N29 N 0.19073 0.18003 0.17868 0.0
C30 C 0.19727 0.16474 0.14644 0.0
C31 C 0.14313 0.13032 0.17878 0.0
C32 C 0.1776 0.13098 0.12998 0.0
C33 C 0.16293 0.16385 0.19389 0.0
C34 C 0.1508 0.11363 0.147 0.0
N35 N 0.23975 0.21627 0.14378 0.0
C36 C 0.26214 0.23613 0.1258 0.0
C37 C 0.22833 0.16844 0.09437 0.0
C38 C 0.22223 0.18333 0.12851 0.0
C39 C 0.2525 0.18829 0.07648 0.0
C40 C 0.26927 0.22234 0.09216 0.0
H41 H 0.1351 0.08776 0.13514 0.0
H42 H 0.16959 0.08998 0.08363 0.0
H43 H 0.21411 0.12269 0.05262 0.0
O44 O 0.22111 0.2699 0.16988 0.0
O45 O 0.26992 0.22166 0.18635 0.0
O46 O 0.27884 0.20851 0.23639 0.0
O47 O 0.17959 0.24089 0.1942 0.0
O48 O 0.27064 0.28361 0.22603 0.0
O49 O 0.31589 0.27602 0.24046 0.0
O50 O 0.30492 0.22268 0.3159 0.0
O51 O 0.25779 0.27645 0.3025 0.0
O52 O 0.22732 0.27206 0.25301 0.0
O53 O 0.34363 0.24984 0.28677 0.0
O54 O 0.2505 0.20868 0.26097 0.0
O55 O 0.20532 0.21527 0.24626 0.0
C56 C 0.28473 0.20899 0.20344 0.0
C57 C 0.1669 0.25767 0.14669 0.0
C58 C 0.13817 0.28161 0.11718 0.0
C59 C 0.11655 0.24925 0.09959 0.0
C60 C 0.14501 0.22552 0.12864 0.0
C61 C 0.11994 0.22144 0.10536 0.0
C62 C 0.16331 0.28578 0.14092 0.0
C63 C 0.30114 0.28719 0.22163 0.0
C64 C 0.19009 0.26212 0.17522 0.0
C65 C 0.18437 0.11589 0.09648 0.0
C66 C 0.20967 0.13454 0.07876 0.0
C67 C 0.23668 0.2837 0.28672 0.0
C68 C 0.3602 0.23452 0.33424 0.0
C69 C 0.38488 0.20936 0.367 0.0
C70 C 0.41155 0.2403 0.37822 0.0
C71 C 0.38703 0.26525 0.34609 0.0
C72 C 0.3592 0.2066 0.3449 0.0
C73 C 0.41257 0.26798 0.36784 0.0
C74 C 0.22097 0.20702 0.26724 0.0
C75 C 0.3352 0.22999 0.30753 0.0
H76 H 0.09654 0.24554 0.08193 0.0
H77 H 0.14669 0.20357 0.13334 0.0
H78 H 0.1027 0.1966 0.09217 0.0
H79 H 0.17942 0.31069 0.15548 0.0
H80 H 0.43215 0.24282 0.39421 0.0
H81 H 0.3887 0.28691 0.33781 0.0
H82 H 0.33894 0.18262 0.33531 0.0
H83 H 0.43358 0.29148 0.37615 0.0
Eu84 Eu 0.73456 0.27441 0.25595 0.0
C85 C 0.82624 0.20639 0.16913 0.0
N86 N 0.79605 0.19085 0.18003 0.0
C87 C 0.7804 0.14944 0.12486 0.0
C88 C 0.83453 0.19409 0.13511 0.0
C89 C 0.77331 0.16259 0.15876 0.0
C90 C 0.81113 0.1653 0.11291 0.0
C91 C 0.87976 0.25245 0.18069 0.0
C92 C 0.84859 0.2353 0.19172 0.0
C93 C 0.88819 0.2401 0.1469 0.0
C94 C 0.86564 0.21104 0.12419 0.0
Eu95 Eu 0.78579 0.21527 0.23702 0.0
N96 N 0.83933 0.24733 0.2239 0.0
C97 C 0.90143 0.28172 0.20382 0.0
C98 C 0.86062 0.27543 0.24681 0.0
C99 C 0.89186 0.29316 0.23705 0.0
H100 H 0.74999 0.14979 0.16834 0.0
H101 H 0.90859 0.31562 0.2552 0.0
H102 H 0.76672 0.33924 0.32614 0.0
H103 H 0.6137 0.17011 0.23327 0.0
H104 H 0.8538 0.2843 0.27267 0.0
H105 H 0.9256 0.29563 0.19631 0.0
H106 H 0.66793 0.20414 0.21746 0.0
H107 H 0.76224 0.12701 0.10806 0.0
H108 H 0.91203 0.25299 0.13799 0.0
H109 H 0.87245 0.20197 0.09814 0.0
H110 H 0.75186 0.36033 0.3857 0.0
H111 H 0.81655 0.15511 0.08657 0.0
H112 H 0.59478 0.18762 0.29182 0.0
N113 N 0.72184 0.29681 0.31265 0.0
C114 C 0.69152 0.2799 0.32241 0.0
C115 C 0.73473 0.33758 0.36828 0.0
C116 C 0.68181 0.29112 0.35605 0.0
C117 C 0.74331 0.32539 0.33478 0.0
C118 C 0.70386 0.32033 0.37903 0.0
N119 N 0.68102 0.23986 0.26713 0.0
C120 C 0.66068 0.21179 0.24336 0.0
C121 C 0.6393 0.23209 0.30899 0.0
C122 C 0.67051 0.25067 0.29904 0.0
C123 C 0.61889 0.20263 0.28513 0.0
C124 C 0.62956 0.19258 0.25211 0.0
H125 H 0.69729 0.32976 0.40507 0.0
H126 H 0.6428 0.28097 0.39159 0.0
H127 H 0.60562 0.22932 0.35046 0.0
O128 O 0.70862 0.28597 0.21816 0.0
O129 O 0.72998 0.24361 0.29489 0.0
O130 O 0.73469 0.1999 0.25547 0.0
O131 O 0.73728 0.32498 0.26415 0.0
O132 O 0.72446 0.23687 0.20174 0.0
O133 O 0.73358 0.19434 0.21479 0.0
O134 O 0.81019 0.20352 0.27601 0.0
O135 O 0.79164 0.24732 0.19931 0.0
O136 O 0.78586 0.29175 0.23735 0.0
O137 O 0.78176 0.16445 0.22982 0.0
O138 O 0.79717 0.25366 0.29031 0.0
O139 O 0.78651 0.297 0.28046 0.0
C140 C 0.72758 0.21278 0.28665 0.0
C141 C 0.71018 0.34198 0.22549 0.0
C142 C 0.68837 0.3589 0.1818 0.0
C143 C 0.6972 0.39088 0.20477 0.0
C144 C 0.7188 0.37406 0.24828 0.0
C145 C 0.71217 0.39832 0.23795 0.0
C146 C 0.69454 0.33434 0.19229 0.0
C147 C 0.72319 0.20616 0.1927 0.0
C148 C 0.71875 0.31719 0.23597 0.0
C149 C 0.65067 0.27274 0.36585 0.0
C150 C 0.62951 0.24331 0.34242 0.0
C151 C 0.79436 0.27829 0.20709 0.0
C152 C 0.8059 0.14679 0.27046 0.0
C153 C 0.83078 0.1317 0.31329 0.0
C154 C 0.81399 0.0978 0.29602 0.0
C155 C 0.78938 0.11278 0.25319 0.0
C156 C 0.82697 0.15618 0.30034 0.0
C157 C 0.79354 0.08844 0.26592 0.0
C158 C 0.79831 0.2843 0.30057 0.0
C159 C 0.79906 0.17203 0.25887 0.0
H160 H 0.69236 0.41004 0.197 0.0
H161 H 0.73083 0.3805 0.27403 0.0
H162 H 0.71887 0.42298 0.25558 0.0
H163 H 0.68797 0.30978 0.17434 0.0
H164 H 0.81681 0.07863 0.30582 0.0
H165 H 0.77276 0.10493 0.23024 0.0
H166 H 0.83963 0.1823 0.31411 0.0
H167 H 0.78061 0.06228 0.25269 0.0
Eu168 Eu 0.75453 0.71254 0.28213 0.0
C169 C 0.82812 0.80266 0.16635 0.0
N170 N 0.81574 0.81268 0.19733 0.0
C171 C 0.86349 0.8642 0.21203 0.0
C172 C 0.85968 0.82253 0.15812 0.0
C173 C 0.83202 0.84396 0.21892 0.0
C174 C 0.87768 0.85314 0.1819 0.0
C175 C 0.81987 0.76427 0.10823 0.0
C176 C 0.80833 0.77382 0.14139 0.0
C177 C 0.85193 0.78304 0.10098 0.0
C178 C 0.87176 0.81207 0.12584 0.0
Eu179 Eu 0.76288 0.7746 0.2059 0.0
N180 N 0.77725 0.75602 0.14873 0.0
C181 C 0.79849 0.73667 0.08288 0.0
C182 C 0.7557 0.73031 0.12347 0.0
C183 C 0.76613 0.71995 0.09036 0.0
H184 H 0.82085 0.85363 0.24152 0.0
H185 H 0.74921 0.6991 0.07065 0.0
H186 H 0.69867 0.6317 0.25415 0.0
H187 H 0.77095 0.7939 0.41515 0.0
H188 H 0.73067 0.71743 0.12923 0.0
H189 H 0.80647 0.72865 0.05713 0.0
H190 H 0.78841 0.77208 0.3574 0.0
H191 H 0.8766 0.88856 0.22972 0.0
H192 H 0.86129 0.77587 0.0758 0.0
H193 H 0.89607 0.82686 0.11936 0.0
H194 H 0.64355 0.59721 0.26854 0.0
H195 H 0.90193 0.86908 0.17648 0.0
H196 H 0.71373 0.76652 0.43013 0.0
N197 N 0.70279 0.6751 0.2945 0.0
C198 C 0.69054 0.68707 0.32464 0.0
C199 C 0.65623 0.62262 0.28419 0.0
C200 C 0.65945 0.66778 0.33438 0.0
C201 C 0.68732 0.6424 0.27593 0.0
C202 C 0.64185 0.63567 0.31304 0.0
N203 N 0.74131 0.734 0.33918 0.0
C204 C 0.76338 0.76029 0.36351 0.0
C205 C 0.6994 0.72863 0.38053 0.0
C206 C 0.71038 0.7172 0.34765 0.0
C207 C 0.72123 0.75708 0.40459 0.0
C208 C 0.75356 0.77258 0.39629 0.0
H209 H 0.61792 0.62014 0.31963 0.0
H210 H 0.62363 0.66599 0.37357 0.0
H211 H 0.6586 0.71927 0.41394 0.0
O212 O 0.79312 0.71654 0.31854 0.0
O213 O 0.74191 0.75956 0.29969 0.0
O214 O 0.72515 0.76686 0.24825 0.0
O215 O 0.76661 0.67003 0.28022 0.0
O216 O 0.79373 0.75386 0.26284 0.0
O217 O 0.79431 0.80222 0.25657 0.0
O218 O 0.72221 0.76849 0.17138 0.0
O219 O 0.7793 0.73054 0.1862 0.0
O220 O 0.77973 0.70375 0.23074 0.0
O221 O 0.74955 0.81642 0.2078 0.0
O222 O 0.73782 0.73201 0.22755 0.0
O223 O 0.71514 0.68366 0.23693 0.0
C224 C 0.72896 0.77449 0.28305 0.0
C225 C 0.78704 0.66604 0.33188 0.0
C226 C 0.81443 0.64272 0.36336 0.0
C227 C 0.78399 0.62354 0.37387 0.0
C228 C 0.75673 0.64675 0.34265 0.0
C229 C 0.75528 0.62552 0.36347 0.0
C230 C 0.81588 0.6639 0.34224 0.0
C231 C 0.80223 0.78604 0.27553 0.0
C232 C 0.78852 0.68528 0.30656 0.0
C233 C 0.64763 0.68028 0.36599 0.0
C234 C 0.66757 0.71061 0.38902 0.0
C235 C 0.78629 0.7092 0.19916 0.0
C236 C 0.72784 0.81725 0.15505 0.0
C237 C 0.70143 0.84137 0.12356 0.0
C238 C 0.7309 0.85542 0.10813 0.0
C239 C 0.75718 0.8313 0.13931 0.0
C240 C 0.69994 0.82225 0.14703 0.0
C241 C 0.75862 0.85033 0.11596 0.0
C242 C 0.71553 0.70212 0.21667 0.0
C243 C 0.72688 0.79992 0.18209 0.0
H244 H 0.78237 0.60633 0.38929 0.0
H245 H 0.73414 0.64746 0.33425 0.0
H246 H 0.7318 0.61014 0.37106 0.0
H247 H 0.83924 0.67796 0.33316 0.0
H248 H 0.73261 0.87099 0.09072 0.0
H249 H 0.77908 0.82817 0.14567 0.0
H250 H 0.67745 0.81216 0.15975 0.0
H251 H 0.78143 0.86168 0.10441 0.0
Eu252 Eu 0.23362 0.76763 0.23894 0.0
C253 C 0.29449 0.69091 0.31558 0.0
N254 N 0.30959 0.72079 0.30775 0.0
C255 C 0.34341 0.74342 0.3614 0.0
C256 C 0.30323 0.68638 0.34726 0.0
C257 C 0.33378 0.74688 0.32984 0.0
C258 C 0.32815 0.71302 0.3701 0.0
C259 C 0.25208 0.63461 0.30123 0.0
C260 C 0.26919 0.6652 0.29256 0.0
C261 C 0.26101 0.63002 0.3326 0.0
C262 C 0.28659 0.65573 0.35544 0.0
Eu263 Eu 0.29512 0.7226 0.25217 0.0
N264 N 0.26089 0.67027 0.26225 0.0
C265 C 0.2264 0.60946 0.27817 0.0
C266 C 0.23697 0.64498 0.2389 0.0
C267 C 0.21894 0.61464 0.24682 0.0
H268 H 0.34605 0.77014 0.32272 0.0
H269 H 0.19971 0.59497 0.22831 0.0
H270 H 0.18357 0.71771 0.16768 0.0
H271 H 0.32508 0.89646 0.26266 0.0
H272 H 0.23209 0.64714 0.21358 0.0
H273 H 0.21254 0.58577 0.28404 0.0
H274 H 0.29371 0.84382 0.27773 0.0
H275 H 0.36273 0.76411 0.37888 0.0
H276 H 0.24819 0.60665 0.33951 0.0
H277 H 0.29306 0.65179 0.37961 0.0
H278 H 0.16802 0.72175 0.1102 0.0
H279 H 0.33564 0.71045 0.3946 0.0
H280 H 0.31354 0.90365 0.2053 0.0
N281 N 0.22064 0.76677 0.18153 0.0
C282 C 0.23572 0.79629 0.17291 0.0
C283 C 0.18736 0.74273 0.12737 0.0
C284 C 0.22726 0.79985 0.14055 0.0
C285 C 0.1966 0.74027 0.15961 0.0
C286 C 0.20274 0.77265 0.11779 0.0
N287 N 0.26718 0.81939 0.228 0.0
C288 C 0.28965 0.84558 0.2519 0.0
C289 C 0.27619 0.85356 0.18747 0.0
C290 C 0.25982 0.82306 0.19646 0.0
C291 C 0.30034 0.87992 0.21134 0.0
C292 C 0.30702 0.87591 0.24369 0.0
H293 H 0.19533 0.77456 0.09289 0.0
H294 H 0.23688 0.83362 0.10737 0.0
H295 H 0.2799 0.88042 0.14815 0.0
O296 O 0.21117 0.8013 0.26571 0.0
O297 O 0.26828 0.76229 0.19602 0.0
O298 O 0.31275 0.7665 0.22769 0.0
O299 O 0.18092 0.75365 0.23067 0.0
O300 O 0.26458 0.79026 0.29043 0.0
O301 O 0.30949 0.77812 0.27341 0.0
O302 O 0.31601 0.68761 0.22553 0.0
O303 O 0.26052 0.72644 0.29578 0.0
O304 O 0.21533 0.72783 0.26948 0.0
O305 O 0.34842 0.73673 0.2552 0.0
O306 O 0.2641 0.70009 0.20033 0.0
O307 O 0.22302 0.7134 0.22491 0.0
C308 C 0.29988 0.7703 0.2005 0.0
C309 C 0.15644 0.77476 0.27955 0.0
C310 C 0.14144 0.78801 0.33972 0.0
C311 C 0.10806 0.77021 0.32784 0.0
C312 C 0.12315 0.75715 0.26806 0.0
C313 C 0.09909 0.75451 0.29225 0.0
C314 C 0.16544 0.789 0.31549 0.0
C315 C 0.29406 0.79191 0.29715 0.0
C316 C 0.1814 0.78018 0.2538 0.0
C317 C 0.24325 0.83039 0.13199 0.0
C318 C 0.26775 0.85705 0.15525 0.0
C319 C 0.2292 0.72142 0.29426 0.0
C320 C 0.366 0.71319 0.20182 0.0
C321 C 0.37007 0.69504 0.13893 0.0
C322 C 0.40396 0.7152 0.14349 0.0
C323 C 0.39979 0.73301 0.20616 0.0
C324 C 0.35118 0.69564 0.16798 0.0
C325 C 0.41856 0.73446 0.17692 0.0
C326 C 0.23442 0.69917 0.19758 0.0
C327 C 0.34622 0.70942 0.23232 0.0
H328 H 0.08881 0.76975 0.34567 0.0
H329 H 0.11578 0.74603 0.24036 0.0
H330 H 0.07338 0.74137 0.28324 0.0
H331 H 0.19115 0.80236 0.32455 0.0
H332 H 0.41948 0.71479 0.12167 0.0
H333 H 0.41165 0.74693 0.23208 0.0
H334 H 0.32499 0.68071 0.16424 0.0
H335 H 0.44471 0.74947 0.18032 0.0
Eu336 Eu 0.23237 0.78165 0.76103 0.0
C337 C 0.32042 0.6962 0.66833 0.0
N338 N 0.29162 0.6844 0.68341 0.0
C339 C 0.26883 0.63957 0.63164 0.0
C340 C 0.32415 0.68092 0.6335 0.0
C341 C 0.2664 0.65562 0.66637 0.0
C342 C 0.29764 0.6526 0.61492 0.0
C343 C 0.3775 0.73488 0.6744 0.0
C344 C 0.34669 0.72277 0.68844 0.0
C345 C 0.38093 0.72097 0.63907 0.0
C346 C 0.3543 0.69403 0.61865 0.0
Eu347 Eu 0.28765 0.71845 0.73827 0.0
N348 N 0.34243 0.7358 0.72228 0.0
C349 C 0.40401 0.76014 0.69651 0.0
C350 C 0.36848 0.75892 0.74457 0.0
C351 C 0.3996 0.77176 0.73194 0.0
H352 H 0.24382 0.6462 0.67907 0.0
H353 H 0.42005 0.79077 0.74944 0.0
H354 H 0.26601 0.85212 0.82909 0.0
H355 H 0.10548 0.69054 0.73913 0.0
H356 H 0.36494 0.7682 0.77179 0.0
H357 H 0.42809 0.77023 0.68672 0.0
H358 H 0.16058 0.72194 0.7221 0.0
H359 H 0.24839 0.61743 0.61766 0.0
H360 H 0.40425 0.73032 0.62756 0.0
H361 H 0.3575 0.68303 0.59168 0.0
H362 H 0.25464 0.87232 0.89013 0.0
H363 H 0.29941 0.64023 0.58798 0.0
H364 H 0.09106 0.70558 0.80049 0.0
N365 N 0.22263 0.80708 0.81866 0.0
C366 C 0.19308 0.79045 0.83027 0.0
C367 C 0.23729 0.84904 0.87373 0.0
C368 C 0.18523 0.80173 0.86486 0.0
C369 C 0.2438 0.83715 0.83914 0.0
C370 C 0.20815 0.83093 0.88688 0.0
N371 N 0.17769 0.75333 0.7735 0.0
C372 C 0.15482 0.72828 0.74903 0.0
C373 C 0.13857 0.74595 0.81782 0.0
C374 C 0.16988 0.763 0.80698 0.0
C375 C 0.1154 0.71926 0.7932 0.0
C376 C 0.12345 0.71066 0.75855 0.0
H377 H 0.20308 0.84031 0.91364 0.0
H378 H 0.14817 0.79225 0.90265 0.0
H379 H 0.10736 0.74336 0.8615 0.0
O380 O 0.20052 0.79276 0.72996 0.0
O381 O 0.21897 0.73826 0.78691 0.0
O382 O 0.23272 0.6988 0.74677 0.0
O383 O 0.24506 0.83314 0.75907 0.0
O384 O 0.21875 0.73766 0.71194 0.0
O385 O 0.25581 0.71202 0.69168 0.0
O386 O 0.31329 0.71689 0.78367 0.0
O387 O 0.31383 0.77084 0.7328 0.0
O388 O 0.27159 0.78627 0.7205 0.0
O389 O 0.2708 0.6737 0.7564 0.0
O390 O 0.27684 0.75823 0.77238 0.0
O391 O 0.27792 0.80588 0.79791 0.0
C392 C 0.2192 0.70804 0.77585 0.0
C393 C 0.21259 0.84828 0.72368 0.0
C394 C 0.18779 0.85969 0.67746 0.0
C395 C 0.20619 0.89401 0.6912 0.0
C396 C 0.23068 0.8827 0.73733 0.0
C397 C 0.2273 0.90543 0.7212 0.0
C398 C 0.19066 0.83687 0.694 0.0
C399 C 0.22937 0.71788 0.68816 0.0
C400 C 0.21986 0.82431 0.73731 0.0
C401 C 0.15448 0.78412 0.87608 0.0
C402 C 0.13121 0.75631 0.85263 0.0
C403 C 0.30162 0.78676 0.71742 0.0
C404 C 0.3117 0.66329 0.78065 0.0
C405 C 0.34117 0.64396 0.81401 0.0
C406 C 0.33929 0.61806 0.78446 0.0
C407 C 0.31028 0.63763 0.75082 0.0
C408 C 0.32747 0.66656 0.8121 0.0
C409 C 0.32399 0.61505 0.75286 0.0
C410 C 0.2913 0.7852 0.79693 0.0
C411 C 0.29499 0.68538 0.78017 0.0
H412 H 0.20409 0.91196 0.67872 0.0
H413 H 0.248 0.892 0.75994 0.0
H414 H 0.24146 0.93191 0.73162 0.0
H415 H 0.177 0.81035 0.68278 0.0
H416 H 0.34949 0.60016 0.78596 0.0
H417 H 0.29814 0.63467 0.72617 0.0
H418 H 0.32838 0.68611 0.83527 0.0
H419 H 0.32244 0.59501 0.73007 0.0
Eu420 Eu 0.25394 0.21923 0.78526 0.0
C421 C 0.33505 0.29778 0.66331 0.0
N422 N 0.32259 0.311 0.6927 0.0
C423 C 0.36916 0.36331 0.70154 0.0
C424 C 0.36596 0.31684 0.65293 0.0
C425 C 0.33806 0.34405 0.71017 0.0
C426 C 0.38346 0.34945 0.67322 0.0
C427 C 0.3266 0.25442 0.60871 0.0
C428 C 0.31561 0.26645 0.64137 0.0
C429 C 0.358 0.27271 0.59947 0.0
C430 C 0.37769 0.30368 0.6216 0.0
Eu431 Eu 0.26977 0.27492 0.70346 0.0
N432 N 0.28503 0.24895 0.65043 0.0
C433 C 0.30509 0.22505 0.58546 0.0
C434 C 0.26319 0.2219 0.62681 0.0
C435 C 0.27305 0.20909 0.5943 0.0
H436 H 0.32643 0.35577 0.73082 0.0
H437 H 0.25577 0.1873 0.57582 0.0
H438 H 0.20104 0.13712 0.75247 0.0
H439 H 0.26149 0.29724 0.91706 0.0
H440 H 0.2381 0.21063 0.63289 0.0
H441 H 0.31255 0.21529 0.56003 0.0
H442 H 0.28188 0.279 0.85945 0.0
H443 H 0.38174 0.3891 0.71623 0.0
H444 H 0.36688 0.26365 0.57465 0.0
H445 H 0.40142 0.31796 0.61345 0.0
H446 H 0.14568 0.10031 0.76349 0.0
H447 H 0.40728 0.36474 0.66613 0.0
H448 H 0.20391 0.26655 0.92893 0.0
N449 N 0.20201 0.17931 0.7929 0.0
C450 C 0.18749 0.19025 0.8218 0.0
C451 C 0.15697 0.12567 0.77975 0.0
C452 C 0.15634 0.16932 0.82982 0.0
C453 C 0.1882 0.14681 0.77335 0.0
C454 C 0.14068 0.13718 0.80766 0.0
N455 N 0.23585 0.24028 0.83874 0.0
C456 C 0.25655 0.26633 0.86429 0.0
C457 C 0.19233 0.23058 0.878 0.0
C458 C 0.20505 0.22113 0.84556 0.0
C459 C 0.21266 0.25884 0.90354 0.0
C460 C 0.24518 0.27628 0.89697 0.0
H461 H 0.11672 0.12049 0.8129 0.0
H462 H 0.1185 0.16459 0.86693 0.0
H463 H 0.15024 0.2178 0.90932 0.0
O464 O 0.30202 0.21759 0.79433 0.0
O465 O 0.23899 0.26477 0.79613 0.0
O466 O 0.24939 0.29623 0.75356 0.0
O467 O 0.26422 0.20231 0.8287 0.0
O468 O 0.28505 0.25891 0.76179 0.0
O469 O 0.30439 0.3072 0.75211 0.0
O470 O 0.22331 0.27148 0.6807 0.0
O471 O 0.28552 0.2299 0.69477 0.0
O472 O 0.27099 0.19495 0.73431 0.0
O473 O 0.26935 0.30651 0.67039 0.0
O474 O 0.22807 0.23668 0.72372 0.0
O475 O 0.22145 0.18875 0.73565 0.0
C476 C 0.23762 0.28914 0.78345 0.0
C477 C 0.29636 0.17155 0.81649 0.0
C478 C 0.3223 0.13852 0.83408 0.0
C479 C 0.29666 0.10928 0.81502 0.0
C480 C 0.27183 0.14194 0.79662 0.0
C481 C 0.27177 0.11104 0.79634 0.0
C482 C 0.3217 0.16986 0.83545 0.0
C483 C 0.30518 0.2897 0.7732 0.0
C484 C 0.29282 0.20328 0.81975 0.0
C485 C 0.14252 0.18025 0.86065 0.0
C486 C 0.16057 0.21062 0.8848 0.0
C487 C 0.28481 0.20388 0.70582 0.0
C488 C 0.22533 0.32274 0.67151 0.0
C489 C 0.19472 0.34944 0.64917 0.0
C490 C 0.21078 0.37876 0.67582 0.0
C491 C 0.24057 0.35229 0.69822 0.0
C492 C 0.20187 0.32119 0.64715 0.0
C493 C 0.23329 0.38003 0.70031 0.0
C494 C 0.21708 0.20412 0.71345 0.0
C495 C 0.23772 0.29595 0.66629 0.0
H496 H 0.29612 0.08489 0.81422 0.0
H497 H 0.25215 0.14274 0.78203 0.0
H498 H 0.25235 0.08835 0.78158 0.0
H499 H 0.34084 0.19257 0.85068 0.0
H500 H 0.20576 0.40077 0.67775 0.0
H501 H 0.259 0.35428 0.71686 0.0
H502 H 0.19031 0.29876 0.62608 0.0
H503 H 0.24556 0.40282 0.72066 0.0
Eu504 Eu 0.73605 0.26894 0.74374 0.0
C505 C 0.79924 0.18764 0.81104 0.0
N506 N 0.81514 0.21874 0.80669 0.0
C507 C 0.84676 0.23635 0.86122 0.0
C508 C 0.80531 0.18015 0.84197 0.0
C509 C 0.83951 0.24268 0.83033 0.0
C510 C 0.8292 0.20509 0.86734 0.0
C511 C 0.76086 0.13041 0.78792 0.0
C512 C 0.77763 0.16304 0.78401 0.0
C513 C 0.76541 0.12329 0.81949 0.0
C514 C 0.7878 0.14801 0.84632 0.0
Eu515 Eu 0.80142 0.22827 0.75506 0.0
N516 N 0.77438 0.17054 0.75339 0.0
C517 C 0.74082 0.10559 0.75957 0.0
C518 C 0.75752 0.14553 0.72471 0.0
C519 C 0.73971 0.11304 0.72763 0.0
H520 H 0.85297 0.26687 0.82556 0.0
H521 H 0.72561 0.09361 0.70499 0.0
H522 H 0.68398 0.21347 0.67623 0.0
H523 H 0.81044 0.4012 0.75949 0.0
H524 H 0.75813 0.14987 0.69918 0.0
H525 H 0.72732 0.0803 0.7616 0.0
H526 H 0.78437 0.34875 0.77799 0.0
H527 H 0.8657 0.2556 0.88032 0.0
H528 H 0.75249 0.09843 0.82299 0.0
H529 H 0.79179 0.14188 0.87009 0.0
H530 H 0.66826 0.20946 0.61556 0.0
H531 H 0.83471 0.20027 0.89137 0.0
H532 H 0.80156 0.40105 0.69798 0.0
N533 N 0.72191 0.262 0.68413 0.0
C534 C 0.73571 0.28931 0.67142 0.0
C535 C 0.68769 0.23189 0.63075 0.0
C536 C 0.72673 0.28856 0.63723 0.0
C537 C 0.69717 0.23399 0.66492 0.0
C538 C 0.7028 0.25916 0.61667 0.0
N539 N 0.7629 0.31932 0.72714 0.0
C540 C 0.78087 0.3486 0.75105 0.0
C541 C 0.77051 0.34825 0.68204 0.0
C542 C 0.75693 0.31886 0.6936 0.0
C543 C 0.79052 0.37801 0.7059 0.0
C544 C 0.79552 0.37822 0.74066 0.0
H545 H 0.69499 0.25767 0.59042 0.0
H546 H 0.73414 0.31741 0.5991 0.0
H547 H 0.77289 0.36958 0.63821 0.0
O548 O 0.71682 0.30236 0.77735 0.0
O549 O 0.79055 0.29066 0.73714 0.0
O550 O 0.80298 0.24769 0.70726 0.0
O551 O 0.68345 0.25858 0.74002 0.0
O552 O 0.76036 0.28792 0.79863 0.0
O553 O 0.80908 0.27883 0.79288 0.0
O554 O 0.83847 0.20755 0.74551 0.0
O555 O 0.76305 0.22576 0.79516 0.0
O556 O 0.71845 0.22256 0.76419 0.0
O557 O 0.85289 0.26089 0.75347 0.0
O558 O 0.7712 0.20619 0.70247 0.0
O559 O 0.72431 0.21446 0.71914 0.0
C560 C 0.80354 0.2774 0.71045 0.0
C561 C 0.66487 0.27434 0.79608 0.0
C562 C 0.65698 0.29268 0.85775 0.0
C563 C 0.623 0.27326 0.85088 0.0
C564 C 0.63106 0.25528 0.78918 0.0
C565 C 0.61037 0.25364 0.81689 0.0
C566 C 0.67774 0.2894 0.83087 0.0
C567 C 0.78953 0.29231 0.81056 0.0
C568 C 0.68631 0.28266 0.76767 0.0
C569 C 0.74077 0.31753 0.62525 0.0
C570 C 0.76276 0.34726 0.64755 0.0
C571 C 0.73129 0.21716 0.79031 0.0
C572 C 0.87775 0.23366 0.71006 0.0
C573 C 0.87542 0.20491 0.6485 0.0
C574 C 0.90899 0.22475 0.64774 0.0
C575 C 0.91111 0.25318 0.70916 0.0
C576 C 0.85975 0.21079 0.67935 0.0
C577 C 0.92654 0.24908 0.67781 0.0
C578 C 0.74047 0.20126 0.69592 0.0
C579 C 0.86155 0.23566 0.743 0.0
H580 H 0.60591 0.27494 0.87086 0.0
H581 H 0.62061 0.24271 0.7625 0.0
H582 H 0.58419 0.23928 0.81157 0.0
H583 H 0.70404 0.30257 0.83656 0.0
H584 H 0.92214 0.2204 0.62457 0.0
H585 H 0.92523 0.27112 0.73269 0.0
H586 H 0.83376 0.19608 0.68001 0.0
H587 H 0.95245 0.26385 0.67716 0.0
Eu588 Eu 0.72711 0.73911 0.70528 0.0
C589 C 0.81726 0.82737 0.84439 0.0
N590 N 0.82627 0.81178 0.81382 0.0
C591 C 0.87544 0.86089 0.81704 0.0
C592 C 0.83656 0.86105 0.8615 0.0
C593 C 0.85606 0.82735 0.8015 0.0
C594 C 0.86532 0.87803 0.84675 0.0
C595 C 0.78318 0.82349 0.89427 0.0
C596 C 0.79066 0.8088 0.86074 0.0
C597 C 0.80119 0.85748 0.91015 0.0
C598 C 0.82773 0.87622 0.89378 0.0
Eu599 Eu 0.7912 0.75489 0.79074 0.0
N600 N 0.77371 0.77575 0.84521 0.0
C601 C 0.75892 0.80317 0.91169 0.0
C602 C 0.75218 0.7553 0.86331 0.0
C603 C 0.74384 0.76881 0.89645 0.0
H604 H 0.86551 0.81389 0.78015 0.0
H605 H 0.72604 0.75273 0.91033 0.0
H606 H 0.65294 0.68099 0.71898 0.0
H607 H 0.79595 0.73781 0.58777 0.0
H608 H 0.74115 0.72868 0.85169 0.0
H609 H 0.75265 0.81353 0.93755 0.0
H610 H 0.78241 0.76254 0.64675 0.0
H611 H 0.89862 0.87325 0.80663 0.0
H612 H 0.79559 0.86922 0.93576 0.0
H613 H 0.84217 0.9021 0.90707 0.0
H614 H 0.61783 0.62239 0.69174 0.0
H615 H 0.88079 0.90384 0.85917 0.0
H616 H 0.76302 0.67871 0.55758 0.0
N617 N 0.68944 0.68331 0.68163 0.0
C618 C 0.69661 0.66787 0.64978 0.0
C619 C 0.64017 0.63471 0.67998 0.0
C620 C 0.6763 0.63451 0.63268 0.0
C621 C 0.66066 0.66787 0.69576 0.0
C622 C 0.6483 0.61776 0.64863 0.0
N623 N 0.74279 0.71802 0.64978 0.0
C624 C 0.76813 0.73684 0.63374 0.0
C625 C 0.73053 0.67053 0.5997 0.0
C626 C 0.72351 0.68576 0.63323 0.0
C627 C 0.75702 0.68949 0.58341 0.0
C628 C 0.77572 0.72285 0.60039 0.0
H629 H 0.63218 0.59214 0.63634 0.0
H630 H 0.66868 0.59345 0.5865 0.0
H631 H 0.71604 0.62495 0.55769 0.0
O632 O 0.72105 0.76675 0.66949 0.0
O633 O 0.76316 0.71194 0.69475 0.0
O634 O 0.80734 0.73379 0.73774 0.0
O635 O 0.68174 0.74659 0.70187 0.0
O636 O 0.77177 0.78612 0.72764 0.0
O637 O 0.81542 0.77898 0.74714 0.0
O638 O 0.79274 0.71151 0.80549 0.0
O639 O 0.74623 0.76835 0.80225 0.0
O640 O 0.74321 0.78426 0.75289 0.0
O641 O 0.83031 0.76044 0.82612 0.0
O642 O 0.74889 0.70798 0.76226 0.0
O643 O 0.70413 0.71642 0.74935 0.0
C644 C 0.79184 0.71418 0.70699 0.0
C645 C 0.66696 0.75738 0.65056 0.0
C646 C 0.63637 0.77895 0.62023 0.0
C647 C 0.61657 0.74611 0.602 0.0
C648 C 0.64703 0.72475 0.63188 0.0
C649 C 0.62197 0.71923 0.60772 0.0
C650 C 0.66168 0.78454 0.6445 0.0
C651 C 0.80234 0.78952 0.72579 0.0
C652 C 0.69153 0.76348 0.67836 0.0
C653 C 0.68391 0.61911 0.59978 0.0
C654 C 0.71085 0.63707 0.58332 0.0
C655 C 0.73489 0.78354 0.785 0.0
C656 C 0.84641 0.71616 0.81948 0.0
C657 C 0.879 0.69177 0.84176 0.0
C658 C 0.90238 0.70159 0.81749 0.0
C659 C 0.86968 0.72515 0.79483 0.0
C660 C 0.85083 0.69892 0.84262 0.0
C661 C 0.89755 0.71791 0.79395 0.0
C662 C 0.71825 0.70344 0.76641 0.0
C663 C 0.82036 0.72895 0.82441 0.0
H664 H 0.59651 0.74127 0.58379 0.0
H665 H 0.65045 0.70358 0.63647 0.0
H666 H 0.60631 0.69398 0.59379 0.0
H667 H 0.67653 0.8098 0.65935 0.0
H668 H 0.92429 0.69637 0.81662 0.0
H669 H 0.86683 0.73879 0.77711 0.0
H670 H 0.83316 0.69221 0.86198 0.0
H671 H 0.91569 0.72541 0.77532 0.0
Cd672 Cd 0.98325 0.96373 0.53066 0.0
Cd673 Cd 0.0369 0.02477 0.45169 0.0
C674 C 0.04776 0.95236 0.54171 0.0
N675 N 0.01807 0.93649 0.52337 0.0
C676 C 0.02295 0.88409 0.51148 0.0
C677 C 0.05297 0.89966 0.5317 0.0
C678 C 0.06587 0.93435 0.54602 0.0
C679 C 1.00577 0.90324 0.50751 0.0
H680 H 0.05654 0.97857 0.55483 0.0
H681 H 0.98166 0.8913 0.49385 0.0
C682 C 0.97859 0.95436 0.43781 0.0
C683 C 0.97317 0.036 0.43677 0.0
C684 C 0.9535 0.05317 0.43529 0.0
C685 C 0.96283 0.08606 0.45591 0.0
C686 C 0.99098 0.10048 0.47904 0.0
C687 C 0.0097 0.08201 0.48017 0.0
N688 N 1.00075 0.05065 0.45873 0.0
H689 H 0.96734 0.01176 0.41891 0.0
H690 H 0.03225 0.09326 0.49668 0.0
C691 C 0.05978 0.96589 0.43153 0.0
N692 N 0.0664 -0.00529 0.45688 0.0
C693 C 0.10618 0.98535 0.4866 0.0
C694 C 0.09829 0.95456 0.46182 0.0
C695 C 0.07535 0.94516 0.43363 0.0
C696 C 0.0898 0.00537 0.48348 0.0
H697 H 0.04243 0.95897 0.40962 0.0
H698 H 0.09562 0.02925 0.50224 0.0
C699 C 0.04254 0.03472 0.54694 0.0
C700 C 0.94011 0.92374 0.57004 0.0
N701 N 0.95285 -0.0057 0.53269 0.0
C702 C 0.94874 0.01113 0.56509 0.0
C703 C 0.9275 0.02746 0.56885 0.0
C704 C 0.91089 0.0263 0.53881 0.0
C705 C 0.91618 0.00953 0.50571 0.0
C706 C 0.93715 -0.00683 0.50331 0.0
C707 C 0.0841 0.06589 0.41594 0.0
O708 O 0.98926 0.96494 0.46975 0.0
O709 O 0.99319 0.97255 0.41759 0.0
O710 O 0.03535 0.02678 0.51417 0.0
O711 O 0.02478 0.01531 0.56468 0.0
O712 O 0.93331 0.91713 0.53719 0.0
O713 O 0.96666 0.94818 0.58326 0.0
O714 O 0.08336 0.07551 0.44906 0.0
O715 O 0.06274 0.03754 0.40009 0.0
H716 H 0.96144 0.0112 0.58795 0.0
H717 H 0.9402 0.97909 0.47819 0.0
H718 H 0.01246 0.85736 0.49995 0.0
H719 H 0.08872 0.94712 0.56223 0.0
H720 H 0.93229 0.04155 0.4166 0.0
H721 H 0.99885 0.12592 0.49513 0.0
H722 H 0.12418 -0.00659 0.50834 0.0
H723 H 0.06964 0.92205 0.41334 0.0
H724 H 0.92417 0.04092 0.5947 0.0
H725 H 0.90376 0.00863 0.48215 0.0
Cd726 Cd 0.47167 0.99064 0.04437 0.0
Cd727 Cd 0.54882 0.00238 0.94554 0.0
C728 C 0.52118 0.97555 0.08881 0.0
N729 N 0.50621 0.96665 0.05633 0.0
C730 C 0.52955 0.92632 0.03544 0.0
C731 C 0.54566 0.93516 0.06861 0.0
C732 C 0.54108 0.96002 0.09557 0.0
C733 C 0.50965 0.94229 0.02996 0.0
H734 H 0.51748 -0.00543 0.10945 0.0
H735 H 0.49687 0.93513 0.0046 0.0
C736 C 0.47085 0.9561 0.94896 0.0
C737 C 0.49927 0.01864 0.90187 0.0
C738 C 0.47845 0.03353 0.89593 0.0
C739 C 0.47239 0.05675 0.92374 0.0
C740 C 0.48809 0.06476 0.95693 0.0
C741 C 0.50874 0.04925 0.96169 0.0
N742 N 0.51354 0.02636 0.93448 0.0
H743 H 0.50401 0.00084 0.88054 0.0
H744 H 0.52102 0.0556 0.98716 0.0
C745 C 0.56689 0.94352 0.89441 0.0
N746 N 0.5724 0.96133 0.92871 0.0
C747 C 0.61083 0.93795 0.93785 0.0
C748 C 0.60655 0.9203 0.90216 0.0
C749 C 0.58371 0.92293 0.88061 0.0
C750 C 0.59366 0.9586 0.95056 0.0
H751 H 0.55022 0.94624 0.87733 0.0
H752 H 0.59823 0.97334 0.97759 0.0
C753 C 0.54812 0.03415 0.03642 0.0
C754 C 0.42625 0.94215 0.07485 0.0
N755 N 0.44639 0.03035 0.0596 0.0
C756 C 0.46183 0.0611 0.08221 0.0
C757 C 0.44469 0.08175 0.09496 0.0
C758 C 0.4111 0.07058 0.0849 0.0
C759 C 0.39607 0.03894 0.0611 0.0
C760 C 0.41416 0.01928 0.04875 0.0
C761 C 0.59391 0.05176 0.91636 0.0
O762 O 0.47765 0.97239 0.98097 0.0
O763 O 0.49342 0.96054 0.92746 0.0
O764 O 0.53737 0.01331 0.00698 0.0
O765 O 0.52824 0.03425 0.06059 0.0
O766 O 0.42528 0.9377 0.04166 0.0
O767 O 0.44683 0.96988 0.09328 0.0
O768 O 0.59247 0.05704 0.94956 0.0
O769 O 0.57593 0.02304 0.89741 0.0
H770 H 0.48718 0.06922 0.09135 0.0
H771 H 0.4021 -0.00543 0.03133 0.0
H772 H 0.53248 0.90753 0.01381 0.0
H773 H 0.55233 0.96712 0.12181 0.0
H774 H 0.46753 0.02718 0.86965 0.0
H775 H 0.48419 0.08247 0.97908 0.0
H776 H 0.62833 0.93696 0.95544 0.0
H777 H 0.5792 0.90954 0.85308 0.0
H778 H 0.45732 0.10569 0.11359 0.0
H779 H 0.37038 0.02927 0.0523 0.0
Cd780 Cd 0.96435 0.48429 0.03434 0.0
Cd781 Cd 0.04207 0.49528 0.94015 0.0
C782 C 0.01271 0.46902 0.08099 0.0
N783 N 0.99981 0.46066 0.04756 0.0
C784 C 0.02492 0.42135 0.02912 0.0
C785 C 0.03823 0.4292 0.06351 0.0
C786 C 0.03224 0.45374 0.0895 0.0
C787 C 1.00557 0.43732 0.02176 0.0
H788 H 1.00755 0.48738 0.10116 0.0
H789 H 0.9945 0.4304 -0.00442 0.0
C790 C 0.96829 0.45001 0.94893 0.0
C791 C 0.98577 0.50933 0.90435 0.0
C792 C 0.96683 0.52694 0.90073 0.0
C793 C 0.97149 0.55723 0.92562 0.0
C794 C 0.99523 0.56893 0.95366 0.0
C795 C 0.0137 0.5507 0.95607 0.0
N796 N 0.00844 0.52139 0.93189 0.0
H797 H 0.98265 0.48629 0.88507 0.0
H798 H 0.03254 0.56015 0.97714 0.0
C799 C 0.05929 0.4354 0.89434 0.0
N800 N 0.06633 0.45562 0.92755 0.0
C801 C 0.10787 0.43638 0.93714 0.0
C802 C 0.10211 0.41637 0.90228 0.0
C803 C 0.07675 0.41546 0.88123 0.0
C804 C 0.08973 0.45608 0.94924 0.0
H805 H 0.04098 0.43587 0.87742 0.0
H806 H 0.09541 0.47287 0.97534 0.0
C807 C 0.04456 0.53231 0.03705 0.0
C808 C 0.92031 0.43781 0.06724 0.0
N809 N 0.94111 0.52533 0.05104 0.0
C810 C 0.9496 0.54533 0.08433 0.0
C811 C 0.93381 0.56672 0.09878 0.0
C812 C 0.90891 0.56817 0.07889 0.0
C813 C 0.90114 0.54755 0.04419 0.0
C814 C 0.91738 0.52615 0.03088 0.0
C815 C 0.08815 0.53858 0.90418 0.0
O816 O 0.97836 0.47568 0.97456 0.0
O817 O 0.98783 0.44746 0.92499 0.0
O818 O 0.04367 0.51972 0.00416 0.0
O819 O 0.01838 0.52592 0.05349 0.0
O820 O 0.91892 0.43083 0.03375 0.0
O821 O 0.94037 0.46657 0.08394 0.0
O822 O 0.09166 0.54377 0.93729 0.0
O823 O 0.06404 0.51252 0.88794 0.0
H824 H 0.96793 0.54375 0.10026 0.0
H825 H 0.91042 0.50965 0.00471 0.0
H826 H 0.02844 0.40224 0.00836 0.0
H827 H 0.04232 0.46089 0.11628 0.0
H828 H 0.94937 0.51734 0.87822 0.0
H829 H 0.9996 0.59196 0.97359 0.0
H830 H 0.12728 0.43814 0.95431 0.0
H831 H 0.07089 0.40006 0.85445 0.0
H832 H 0.94051 0.58107 0.12583 0.0
H833 H 0.8826 0.54768 0.02732 0.0
Cd834 Cd 0.48584 0.46698 0.03416 0.0
Cd835 Cd 0.53141 0.51954 0.94952 0.0
C836 C 0.54573 0.45694 0.05811 0.0
N837 N 0.52354 0.44335 0.03007 0.0
C838 C 0.54095 0.39838 0.00966 0.0
C839 C 0.56354 0.41156 0.03905 0.0
C840 C 0.56609 0.44149 0.06308 0.0
C841 C 0.5209 0.41487 0.00566 0.0
H842 H 0.54635 0.47888 0.07771 0.0
H843 H 0.50234 0.40428 0.98409 0.0
C844 C 0.47438 0.45041 0.94102 0.0
C845 C 0.46379 0.52623 0.93792 0.0
C846 C 0.44385 0.54329 0.9373 0.0
C847 C 0.45448 0.57695 0.95613 0.0
C848 C 0.48407 0.59206 0.9771 0.0
C849 C 0.50297 0.57377 0.97749 0.0
N850 N 0.4929 0.54186 0.95735 0.0
H851 H 0.45694 0.50138 0.92105 0.0
H852 H 0.52663 0.58558 0.99212 0.0
C853 C 0.55673 0.46201 0.93221 0.0
N854 N 0.5611 0.49068 0.95705 0.0
C855 C 0.60858 0.49092 0.98311 0.0
C856 C 0.60535 0.46227 0.95695 0.0
C857 C 0.5788 0.44713 0.93173 0.0
C858 C 0.58629 0.50526 0.98222 0.0
H859 H 0.53733 0.45178 0.91164 0.0
H860 H 0.59038 0.52896 0.00033 0.0
C861 C 0.54254 0.54291 0.04695 0.0
C862 C 0.44201 0.42699 0.07278 0.0
N863 N 0.45352 0.49533 0.03363 0.0
C864 C 0.4605 0.52561 0.05655 0.0
C865 C 0.44169 0.54343 0.0547 0.0
C866 C 0.41518 0.52966 0.02942 0.0
C867 C 0.40707 0.4974 0.00768 0.0
C868 C 0.42675 0.48042 0.0105 0.0
C869 C 0.57718 0.56116 0.91229 0.0
O870 O 0.48635 0.46338 0.97244 0.0
O871 O 0.48775 0.46633 0.91858 0.0
O872 O 0.53842 0.5345 0.0137 0.0
O873 O 0.5271 0.52165 0.0639 0.0
O874 O 0.43729 0.4194 0.03954 0.0
O875 O 0.46731 0.45254 0.08722 0.0
O876 O 0.57427 0.57159 0.94472 0.0
O877 O 0.55828 0.53145 0.89691 0.0
H878 H 0.48044 0.53601 0.07645 0.0
H879 H 0.42088 0.45541 -0.00561 0.0
H880 H 0.53842 0.3754 0.99053 0.0
H881 H 0.58261 0.45212 0.0865 0.0
H882 H 0.42152 0.53095 0.92022 0.0
H883 H 0.49292 0.61794 0.99212 0.0
H884 H 0.6291 0.50302 0.00269 0.0
H885 H 0.57582 0.42471 0.91135 0.0
H886 H 0.44782 0.56778 0.0729 0.0
H887 H 0.38637 0.48584 0.98837 0.0
Cd888 Cd 0.9705 0.48707 0.54135 0.0
Cd889 Cd 0.04785 0.49952 0.44312 0.0
C890 C 0.02341 0.47102 0.5821 0.0
N891 N 1.00352 0.45997 0.55226 0.0
C892 C 0.02059 0.41467 0.53096 0.0
C893 C 0.04222 0.42639 0.56076 0.0
C894 C 0.04353 0.45481 0.58662 0.0
C895 C 1.00141 0.43204 0.52718 0.0
H896 H 0.02401 0.49268 0.60221 0.0
H897 H 0.98475 0.42315 0.50423 0.0
C898 C 0.97377 0.4513 0.45236 0.0
C899 C 0.99467 0.51182 0.40146 0.0
C900 C 0.97463 0.52738 0.39518 0.0
C901 C 0.97195 0.55373 0.4217 0.0
C902 C 0.9901 0.56385 0.45395 0.0
C903 C 0.01037 0.54807 0.45877 0.0
N904 N 0.01197 0.5224 0.43285 0.0
H905 H 0.99697 0.49174 0.38111 0.0
H906 H 0.02506 0.55655 0.48318 0.0
C907 C 0.06168 0.43552 0.39786 0.0
N908 N 0.07301 0.46048 0.42791 0.0
C909 C 0.11865 0.44578 0.43418 0.0
C910 C 0.10817 0.42045 0.4025 0.0
C911 C 0.07874 0.41507 0.38482 0.0
C912 C 0.1007 0.46561 0.44638 0.0
H913 H 0.03991 0.43216 0.3833 0.0
H914 H 0.10962 0.48601 0.46989 0.0
C915 C 0.049 0.53288 0.53818 0.0
C916 C 0.92462 0.44013 0.57251 0.0
N917 N 0.94539 0.52735 0.55725 0.0
C918 C 0.95983 0.55568 0.5836 0.0
C919 C 0.94317 0.57658 0.59735 0.0
C920 C 0.91102 0.56861 0.58414 0.0
C921 C 0.89709 0.53944 0.55635 0.0
C922 C 0.91458 0.51914 0.54349 0.0
C923 C 0.0929 0.5479 0.41228 0.0
O924 O 0.98228 0.47569 0.47953 0.0
O925 O 0.99401 0.45152 0.4285 0.0
O926 O 0.04149 0.51717 0.50613 0.0
O927 O 0.02654 0.52918 0.55986 0.0
O928 O 0.92394 0.43407 0.5391 0.0
O929 O 0.94526 0.46822 0.59016 0.0
O930 O 0.09751 0.54916 0.44434 0.0
O931 O 0.06848 0.5234 0.39439 0.0
H932 H 0.98391 0.56148 0.59499 0.0
H933 H 0.90306 0.4962 0.52312 0.0
H934 H 0.01887 0.39264 0.51067 0.0
H935 H 0.05982 0.46425 0.6101 0.0
H936 H 0.96201 0.51919 0.36949 0.0
H937 H 0.98871 0.58365 0.47539 0.0
H938 H 0.14125 0.45126 0.44866 0.0
H939 H 0.06912 0.39556 0.36071 0.0
H940 H 0.95515 0.59814 0.61912 0.0
H941 H 0.87273 0.53202 0.54463 0.0
Cd942 Cd 0.46899 0.9869 0.53857 0.0
Cd943 Cd 0.54699 -0.00266 0.44381 0.0
C944 C 0.52054 0.97234 0.58212 0.0
N945 N 0.5039 0.96239 0.55029 0.0
C946 C 0.52424 0.91941 0.53026 0.0
C947 C 0.54136 0.92904 0.56289 0.0
C948 C 0.53959 0.95591 0.58898 0.0
C949 C 0.50536 0.93642 0.52457 0.0
H950 H 0.51853 0.99264 0.60239 0.0
H951 H 0.49115 0.92827 0.49991 0.0
C952 C 0.47239 0.95466 0.45098 0.0
C953 C 0.49308 0.00926 0.40041 0.0
C954 C 0.47354 0.0252 0.3935 0.0
C955 C 0.47479 0.05484 0.41741 0.0
C956 C 0.49579 0.06742 0.44807 0.0
C957 C 0.51448 0.05039 0.45417 0.0
N958 N 0.51264 0.02177 0.43063 0.0
H959 H 0.49258 0.98687 0.38167 0.0
H960 H 0.53095 0.06034 0.4775 0.0
C961 C 0.56193 0.93461 0.39661 0.0
N962 N 0.57102 0.95661 0.42888 0.0
C963 C 0.61284 0.93705 0.43706 0.0
C964 C 0.60447 0.91438 0.4034 0.0
C965 C 0.57828 0.91343 0.38337 0.0
C966 C 0.59595 0.95806 0.44918 0.0
H967 H 0.54266 0.93436 0.38044 0.0
H968 H 0.60339 0.97618 0.47447 0.0
C969 C 0.54852 0.03603 0.54081 0.0
C970 C 0.4253 0.94026 0.57152 0.0
N971 N 0.44376 0.02636 0.55312 0.0
C972 C 0.45959 0.05674 0.57617 0.0
C973 C 0.44288 0.07754 0.58979 0.0
C974 C 0.40933 0.06681 0.58018 0.0
C975 C 0.39381 0.03562 0.55581 0.0
C976 C 0.41153 0.01579 0.54253 0.0
C977 C 0.59268 0.04322 0.4112 0.0
O978 O 0.4841 0.97648 0.47951 0.0
O979 O 0.49163 0.9527 0.42665 0.0
O980 O 0.54684 0.02233 0.50801 0.0
O981 O 0.52261 0.0298 0.55771 0.0
O982 O 0.42302 0.93362 0.53804 0.0
O983 O 0.44617 0.96867 0.58811 0.0
O984 O 0.59533 0.04769 0.44425 0.0
O985 O 0.57021 0.01639 0.39369 0.0
H986 H 0.48487 0.06435 0.58519 0.0
H987 H 0.39916 0.99129 0.52481 0.0
H988 H 0.52453 0.89825 0.5099 0.0
H989 H 0.55224 0.96357 0.61462 0.0
H990 H 0.45756 0.01425 0.36968 0.0
H991 H 0.49839 0.09058 0.46687 0.0
H992 H 0.6324 0.93884 0.454 0.0
H993 H 0.57101 0.89735 0.35702 0.0
H994 H 0.45573 0.10114 0.60887 0.0
H995 H 0.36804 0.02639 0.54753 0.0
H996 H 0.18154 0.22217 0.31684 0.0
H997 H 0.10002 0.04645 0.34919 0.0
H998 H 0.22002 0.14773 0.27115 0.0
H999 H 0.12259 0.13271 0.4379 0.0
H1000 H 0.13706 0.08208 0.31504 0.0
H1001 H 0.15231 0.18878 0.35748 0.0
C1002 C 0.18342 0.19862 0.31525 0.0
C1003 C 0.20259 0.18719 0.29069 0.0
C1004 C 0.1341 0.09302 0.34211 0.0
C1005 C 0.16953 0.14934 0.33603 0.0
C1006 C 0.11293 0.07285 0.36153 0.0
C1007 C 0.10814 0.08681 0.39628 0.0
C1008 C 0.14988 0.12738 0.35733 0.0
C1009 C 0.12556 0.12111 0.41109 0.0
C1010 C 0.16726 0.17996 0.33854 0.0
C1011 C 0.20518 0.15706 0.2898 0.0
N1012 N 0.14539 0.14048 0.39127 0.0
N1013 N 0.18829 0.13875 0.31185 0.0
H1014 H 0.89736 0.16427 0.32251 0.0
H1015 H 0.89701 0.06869 0.45606 0.0
H1016 H 0.81139 0.11943 0.37574 0.0
H1017 H 0.98711 0.14603 0.43963 0.0
H1018 H 0.866 0.09455 0.43443 0.0
H1019 H 0.93202 0.16645 0.37081 0.0
C1020 C 0.88597 0.15591 0.34501 0.0
C1021 C 0.85174 0.14096 0.3452 0.0
C1022 C 0.89255 0.10665 0.43646 0.0
C1023 C 0.89063 0.14314 0.39986 0.0
C1024 C 0.91026 0.09195 0.44915 0.0
C1025 C 0.94458 0.1056 0.45018 0.0
C1026 C 0.90921 0.13414 0.42278 0.0
C1027 C 0.96057 0.13504 0.43953 0.0
C1028 C 0.90564 0.15722 0.37253 0.0
C1029 C 0.83781 0.13049 0.37461 0.0
N1030 N 0.94269 0.14788 0.42523 0.0
N1031 N 0.85733 0.13124 0.40057 0.0
H1032 H 0.84724 0.77304 0.30826 0.0
H1033 H 0.92419 0.95873 0.41559 0.0
H1034 H 0.79847 0.84071 0.32032 0.0
H1035 H 0.96052 0.8877 0.43257 0.0
H1036 H 0.87347 0.91326 0.38818 0.0
H1037 H 0.88399 0.81038 0.36017 0.0
C1038 C 0.84383 0.79537 0.32236 0.0
C1039 C 0.82036 0.80432 0.30981 0.0
C1040 C 0.89215 0.90733 0.3983 0.0
C1041 C 0.8622 0.84703 0.36847 0.0
C1042 C 0.92121 0.93339 0.41388 0.0
C1043 C 0.94651 0.92679 0.42599 0.0
C1044 C 0.88893 0.87423 0.39311 0.0
C1045 C 0.94143 0.89358 0.42333 0.0
C1046 C 0.86471 0.81661 0.35197 0.0
C1047 C 0.81677 0.83336 0.32884 0.0
N1048 N 0.91341 0.86831 0.40628 0.0
N1049 N 0.83775 0.85388 0.35693 0.0
H1050 H 0.11487 0.77598 0.4013 0.0
H1051 H 0.16377 0.96872 0.47056 0.0
H1052 H 0.18948 0.85121 0.3604 0.0
H1053 H 0.06764 0.88888 0.45735 0.0
H1054 H 0.18835 0.92713 0.46063 0.0
H1055 H 0.11671 0.81939 0.45399 0.0
C1056 C 0.13239 0.80134 0.40386 0.0
C1057 C 0.15078 0.81024 0.37572 0.0
C1058 C 0.16197 0.91907 0.46167 0.0
C1059 C 0.15297 0.8595 0.43546 0.0
C1060 C 0.148 0.94262 0.46709 0.0
C1061 C 0.11376 0.93188 0.46438 0.0
C1062 C 0.14133 0.88501 0.45418 0.0
C1063 C 0.09416 0.89796 0.45938 0.0
C1064 C 0.13372 0.82597 0.43406 0.0
C1065 C 0.1741 0.84323 0.38099 0.0
N1066 N 0.10824 0.87567 0.45412 0.0
N1067 N 0.1738 0.86697 0.40988 0.0
H1068 H 0.20527 0.86597 0.6124 0.0
H1069 H 0.0264 0.84501 0.55771 0.0
H1070 H 0.121 0.82839 0.67097 0.0
H1071 H 0.11787 0.91126 0.52865 0.0
H1072 H 0.05687 0.82008 0.58365 0.0
H1073 H 0.16885 0.86102 0.56451 0.0
C1074 C 0.17895 0.85591 0.61467 0.0
C1075 C 0.16592 0.84833 0.64567 0.0
C1076 C 0.07 0.83922 0.57039 0.0
C1077 C 0.12445 0.84352 0.59191 0.0
C1078 C 0.05269 0.85335 0.55554 0.0
C1079 C 0.06972 0.87999 0.54076 0.0
C1080 C 0.10435 0.8516 0.56981 0.0
C1081 C 0.10379 0.8905 0.53933 0.0
C1082 C 0.15822 0.85312 0.58749 0.0
C1083 C 0.13176 0.83491 0.64745 0.0
N1084 N 0.11998 0.87636 0.55379 0.0
N1085 N 0.11207 0.8337 0.62119 0.0
H1086 H 0.17388 0.21573 0.6763 0.0
H1087 H 0.08058 0.03298 0.5971 0.0
H1088 H 0.22042 0.14731 0.6733 0.0
H1089 H 0.07617 0.09636 0.5338 0.0
H1090 H 0.13112 0.07681 0.62714 0.0
H1091 H 0.13823 0.17653 0.62439 0.0
C1092 C 0.17743 0.1931 0.66392 0.0
C1093 C 0.19991 0.18455 0.67901 0.0
C1094 C 0.11941 0.08107 0.60635 0.0
C1095 C 0.15901 0.1397 0.62081 0.0
C1096 C 0.09035 0.05619 0.58943 0.0
C1097 C 0.07395 0.06133 0.56333 0.0
C1098 C 0.13172 0.11186 0.5981 0.0
C1099 C 0.08798 0.09176 0.55417 0.0
C1100 C 0.15713 0.17081 0.63439 0.0
C1101 C 0.20298 0.15451 0.66269 0.0
N1102 N 0.11583 0.11648 0.57228 0.0
N1103 N 0.1823 0.13285 0.63481 0.0
H1104 H 0.87917 0.19614 0.57713 0.0
H1105 H 0.85424 0.01487 0.57213 0.0
H1106 H 0.83314 0.14344 0.65475 0.0
H1107 H 0.92021 0.07838 0.5133 0.0
H1108 H 0.82361 0.05105 0.58384 0.0
H1109 H 0.86807 0.14252 0.5346 0.0
C1110 C 0.86593 0.17336 0.58496 0.0
C1111 C 0.85866 0.17434 0.61996 0.0
C1112 C 0.844 0.05634 0.56717 0.0
C1113 C 0.84642 0.1134 0.57197 0.0
C1114 C 0.86154 0.036 0.56091 0.0
C1115 C 0.88947 0.04417 0.5418 0.0
C1116 C 0.85521 0.08519 0.55481 0.0
C1117 C 0.89833 0.07138 0.52756 0.0
C1118 C 0.85939 0.14278 0.56066 0.0
C1119 C 0.84017 0.14408 0.62833 0.0
N1120 N 0.8815 0.09132 0.53475 0.0
N1121 N 0.83559 0.11477 0.60476 0.0
H1122 H 0.86775 0.80515 0.71611 0.0
H1123 H 0.87532 0.88028 0.55632 0.0
H1124 H 0.78439 0.82232 0.68652 0.0
H1125 H 0.95623 0.9232 0.63515 0.0
H1126 H 0.8408 0.84857 0.59585 0.0
H1127 H 0.90102 0.83924 0.67831 0.0
C1128 C 0.85652 0.81623 0.70195 0.0
C1129 C 0.82334 0.811 0.70455 0.0
C1130 C 0.86614 0.86507 0.60424 0.0
C1131 C 0.86072 0.84866 0.66065 0.0
C1132 C 0.88579 0.88289 0.58177 0.0
C1133 C 0.91864 0.90412 0.5925 0.0
C1134 C 0.87989 0.86808 0.63696 0.0
C1135 C 0.93104 0.90697 0.62584 0.0
C1136 C 0.87542 0.83547 0.68035 0.0
C1137 C 0.80992 0.82569 0.68526 0.0
N1138 N 0.91173 0.88885 0.64679 0.0
N1139 N 0.82857 0.84352 0.66365 0.0
H1140 H 0.27236 0.14416 0.20125 0.0
H1141 H 0.42858 0.13837 0.09553 0.0
H1142 H 0.334 0.22476 0.15852 0.0
H1143 H 0.34899 0.04985 0.10903 0.0
H1144 H 0.39644 0.1713 0.12111 0.0
H1145 H 0.30121 0.10983 0.16962 0.0
C1146 C 0.2921 0.15466 0.18529 0.0
C1147 C 0.30105 0.1875 0.18286 0.0
C1148 C 0.38594 0.14464 0.11831 0.0
C1149 C 0.33485 0.14852 0.14704 0.0
C1150 C 0.40439 0.12582 0.10388 0.0
C1151 C 0.3916 0.09114 0.09996 0.0
C1152 C 0.35456 0.12895 0.12967 0.0
C1153 C 0.35987 0.07638 0.11111 0.0
C1154 C 0.30852 0.13502 0.16712 0.0
C1155 C 0.32643 0.19961 0.16124 0.0
N1156 N 0.34269 0.0953 0.12564 0.0
N1157 N 0.34274 0.18036 0.14463 0.0
H1158 H 0.81397 0.26035 0.14063 0.0
H1159 H 0.91699 0.44918 0.13776 0.0
H1160 H 0.81873 0.34609 0.22358 0.0
H1161 H 0.88193 0.3707 0.04152 0.0
H1162 H 0.88844 0.40906 0.17092 0.0
H1163 H 0.84583 0.29817 0.10517 0.0
C1164 C 0.82171 0.28704 0.15139 0.0
C1165 C 0.81358 0.30012 0.18508 0.0
C1166 C 0.88674 0.40058 0.14254 0.0
C1167 C 0.84988 0.34311 0.14493 0.0
C1168 C 0.90299 0.4235 0.12352 0.0
C1169 C 0.90135 0.41337 0.08674 0.0
C1170 C 0.86867 0.36713 0.12482 0.0
C1171 C 0.88332 0.3796 0.06984 0.0
C1172 C 0.83974 0.30849 0.13112 0.0
C1173 C 0.82424 0.33483 0.19774 0.0
N1174 N 0.86758 0.35753 0.08907 0.0
N1175 N 0.84188 0.35505 0.17771 0.0
H1176 H 0.68524 0.88919 0.16622 0.0
H1177 H 0.53771 0.86941 0.04216 0.0
H1178 H 0.65594 0.81389 0.06761 0.0
H1179 H 0.60295 0.96336 0.10993 0.0
H1180 H 0.57296 0.84306 0.056 0.0
H1181 H 0.64497 0.90997 0.15271 0.0
C1182 C 0.66979 0.87673 0.14201 0.0
C1183 C 0.6737 0.85002 0.11788 0.0
C1184 C 0.57933 0.8694 0.06779 0.0
C1185 C 0.62814 0.87364 0.10206 0.0
C1186 C 0.55943 0.88457 0.05978 0.0
C1187 C 0.56709 0.91866 0.07531 0.0
C1188 C 0.60667 0.88838 0.09187 0.0
C1189 C 0.59542 0.93686 0.09816 0.0
C1190 C 0.6471 0.88868 0.13416 0.0
C1191 C 0.65344 0.83466 0.08671 0.0
N1192 N 0.61397 0.92144 0.10593 0.0
N1193 N 0.63141 0.84677 0.07954 0.0
H1194 H 0.2404 0.67945 0.12604 0.0
H1195 H 0.05747 0.54258 0.10553 0.0
H1196 H 0.17308 0.66163 0.20768 0.0
H1197 H 0.10196 0.57325 0.0143 0.0
H1198 H 0.10612 0.58181 0.14121 0.0
H1199 H 0.19542 0.63776 0.08222 0.0
C1200 C 0.21643 0.66647 0.13463 0.0
C1201 C 0.21031 0.6734 0.17032 0.0
C1202 C 0.10554 0.58035 0.11344 0.0
C1203 C 0.15987 0.62692 0.12148 0.0
C1204 C 0.07762 0.55778 0.09299 0.0
C1205 C 0.07558 0.55509 0.05711 0.0
C1206 C 0.13182 0.60096 0.09821 0.0
C1207 C 0.10278 0.57493 0.04211 0.0
C1208 C 0.19091 0.64319 0.10981 0.0
C1209 C 0.17892 0.65693 0.18044 0.0
N1210 N 0.13002 0.59757 0.06296 0.0
N1211 N 0.15507 0.63461 0.15621 0.0
H1212 H 0.3492 0.8255 0.77955 0.0
H1213 H 0.43966 0.89775 0.96813 0.0
H1214 H 0.30381 0.77418 0.85802 0.0
H1215 H 0.43095 0.95472 0.89939 0.0
H1216 H 0.39711 0.84714 0.93006 0.0
H1217 H 0.39313 0.86537 0.82264 0.0
C1218 C 0.34941 0.8216 0.80543 0.0
C1219 C 0.3232 0.79641 0.81527 0.0
C1220 C 0.40413 0.87095 0.92397 0.0
C1221 C 0.37173 0.84354 0.86542 0.0
C1222 C 0.42786 0.89972 0.94579 0.0
C1223 C 0.43866 0.92996 0.93629 0.0
C1224 C 0.39221 0.87308 0.89268 0.0
C1225 C 0.42326 0.93162 0.90717 0.0
C1226 C 0.37402 0.84486 0.83029 0.0
C1227 C 0.32405 0.79322 0.8496 0.0
N1228 N 0.40117 0.9034 0.88601 0.0
N1229 N 0.34766 0.81719 0.87402 0.0
H1230 H 0.22027 0.33362 0.76191 0.0
H1231 H 0.12913 0.3828 0.9332 0.0
H1232 H 0.21288 0.29105 0.84935 0.0
H1233 H 0.12458 0.40887 0.8363 0.0
H1234 H 0.1636 0.35289 0.90616 0.0
H1235 H 0.18889 0.36479 0.79172 0.0
C1236 C 0.21267 0.33114 0.78772 0.0
C1237 C 0.2201 0.30984 0.80328 0.0
C1238 C 0.15489 0.36509 0.89088 0.0
C1239 C 0.1833 0.34579 0.8379 0.0
C1240 C 0.13534 0.38233 0.90634 0.0
C1241 C 0.12344 0.39815 0.88696 0.0
C1242 C 0.16291 0.36394 0.8559 0.0
C1243 C 0.13237 0.39653 0.85218 0.0
C1244 C 0.1944 0.34892 0.80472 0.0
C1245 C 0.2085 0.30741 0.83653 0.0
N1246 N 0.15144 0.37982 0.83792 0.0
N1247 N 0.19079 0.32518 0.85279 0.0
H1248 H 0.66369 0.19347 0.78946 0.0
H1249 H 0.62894 0.04572 0.85895 0.0
H1250 H 0.74813 0.19757 0.84424 0.0
H1251 H 0.60281 0.11733 0.93563 0.0
H1252 H 0.66052 0.08989 0.83031 0.0
H1253 H 0.62792 0.15545 0.82294 0.0
C1254 C 0.67477 0.1864 0.80834 0.0
C1255 C 0.70911 0.1976 0.81291 0.0
C1256 C 0.64763 0.09566 0.85331 0.0
C1257 C 0.66853 0.15447 0.85066 0.0
C1258 C 0.6299 0.07074 0.86968 0.0
C1259 C 0.61396 0.07827 0.89997 0.0
C1260 C 0.64851 0.12788 0.86678 0.0
C1261 C 0.61555 0.11093 0.91276 0.0
C1262 C 0.65436 0.16491 0.8274 0.0
C1263 C 0.72199 0.18838 0.83854 0.0
N1264 N 0.63254 0.13475 0.89596 0.0
N1265 N 0.70172 0.16672 0.85588 0.0
H1266 H 0.92558 0.71683 0.89578 0.0
H1267 H 0.90706 0.53501 0.90148 0.0
H1268 H 0.8465 0.62627 0.84056 0.0
H1269 H 0.99342 0.62542 0.94036 0.0
H1270 H 0.8787 0.56859 0.89003 0.0
H1271 H 0.94362 0.68438 0.92519 0.0
C1272 C 0.91162 0.69014 0.89056 0.0
C1273 C 0.88475 0.67399 0.86569 0.0
C1274 C 0.90371 0.58104 0.90151 0.0
C1275 C 0.90568 0.63666 0.89812 0.0
C1276 C 0.92004 0.56188 0.90776 0.0
C1277 C 0.95286 0.5773 0.92149 0.0
C1278 C 0.92028 0.61589 0.90913 0.0
C1279 C 0.96809 0.61232 0.92999 0.0
C1280 C 0.92199 0.67161 0.9071 0.0
C1281 C 0.86735 0.63946 0.85967 0.0
N1282 N 0.95176 0.63035 0.9234 0.0
N1283 N 0.87846 0.62177 0.87533 0.0
H1284 H 0.14685 0.30477 0.05865 0.0
H1285 H 0.03354 0.40578 0.12156 0.0
H1286 H 0.11413 0.32192 0.16321 0.0
H1287 H 0.08433 0.40972 0.02633 0.0
H1288 H 0.0632 0.37507 0.13676 0.0
H1289 H 0.12619 0.3444 0.04635 0.0
C1290 C 0.1359 0.31749 0.07921 0.0
C1291 C 0.13226 0.31031 0.112 0.0
C1292 C 0.06821 0.38294 0.11273 0.0
C1293 C 0.10757 0.35461 0.09787 0.0
C1294 C 0.05131 0.40061 0.10406 0.0
C1295 C 0.05667 0.41072 0.07281 0.0
C1296 C 0.09061 0.37498 0.08993 0.0
C1297 C 0.0793 0.40231 0.05063 0.0
C1298 C 0.12397 0.33992 0.07216 0.0
C1299 C 0.11764 0.32707 0.13771 0.0
N1300 N 0.09539 0.38487 0.05958 0.0
N1301 N 0.10543 0.34809 0.12995 0.0
H1302 H 0.19974 0.71974 0.84284 0.0
H1303 H 0.09285 0.52942 0.83349 0.0
H1304 H 0.19747 0.63976 0.75379 0.0
H1305 H 0.13205 0.60288 0.93229 0.0
H1306 H 0.12596 0.57067 0.80267 0.0
H1307 H 0.16975 0.67842 0.87499 0.0
C1308 C 0.19291 0.6935 0.83 0.0
C1309 C 0.20109 0.68318 0.79547 0.0
C1310 C 0.12753 0.57765 0.8311 0.0
C1311 C 0.1666 0.63587 0.83213 0.0
C1312 C 0.10863 0.55416 0.84871 0.0
C1313 C 0.10983 0.56268 0.8855 0.0
C1314 C 0.14738 0.61011 0.85035 0.0
C1315 C 0.13057 0.5952 0.90389 0.0
C1316 C 0.17597 0.66999 0.84848 0.0
C1317 C 0.19174 0.64886 0.78032 0.0
N1318 N 0.14833 0.61787 0.8861 0.0
N1319 N 0.17476 0.62643 0.79864 0.0
H1320 H 0.35729 0.10372 0.80174 0.0
H1321 H 0.47838 0.12206 0.95049 0.0
H1322 H 0.34972 0.16452 0.9029 0.0
H1323 H 0.41465 0.02695 0.88358 0.0
H1324 H 0.4436 0.14776 0.93314 0.0
H1325 H 0.39441 0.08724 0.82882 0.0
C1326 C 0.36387 0.11399 0.82966 0.0
C1327 C 0.34991 0.13493 0.85021 0.0
C1328 C 0.43725 0.12123 0.92276 0.0
C1329 C 0.39253 0.11616 0.88134 0.0
C1330 C 0.45694 0.1065 0.93258 0.0
C1331 C 0.44993 0.0724 0.91763 0.0
C1332 C 0.41092 0.10169 0.89757 0.0
C1333 C 0.42179 0.05349 0.89472 0.0
C1334 C 0.38492 0.10448 0.84507 0.0
C1335 C 0.35984 0.14809 0.88623 0.0
N1336 N 0.40372 0.06849 0.88497 0.0
N1337 N 0.38048 0.13819 0.90094 0.0
H1338 H 0.80042 0.35801 0.83785 0.0
H1339 H 0.95084 0.38259 0.92925 0.0
H1340 H 0.8036 0.27311 0.86554 0.0
H1341 H 0.91153 0.45783 0.96509 0.0
H1342 H 0.89487 0.34031 0.91318 0.0
H1343 H 0.83529 0.39456 0.89092 0.0
C1344 C 0.80804 0.34705 0.85549 0.0
C1345 C 0.80136 0.31296 0.84641 0.0
C1346 C 0.89837 0.36591 0.9256 0.0
C1347 C 0.8414 0.35419 0.90629 0.0
C1348 C 0.93027 0.38998 0.93444 0.0
C1349 C 0.93551 0.42361 0.94752 0.0
C1350 C 0.87196 0.37601 0.92833 0.0
C1351 C 0.90825 0.43207 0.95445 0.0
C1352 C 0.8278 0.36782 0.88586 0.0
C1353 C 0.81084 0.29972 0.8705 0.0
N1354 N 0.87754 0.40856 0.94356 0.0
N1355 N 0.83152 0.32046 0.89884 0.0
H1356 H 0.72338 0.83162 0.764 0.0
H1357 H 0.62229 0.87668 0.92896 0.0
H1358 H 0.70524 0.78293 0.84789 0.0
H1359 H 0.63719 0.91909 0.84043 0.0
H1360 H 0.65439 0.84399 0.90199 0.0
H1361 H 0.69389 0.86545 0.79366 0.0
C1362 C 0.71319 0.82797 0.7887 0.0
C1363 C 0.71698 0.80432 0.80343 0.0
C1364 C 0.65067 0.8605 0.88853 0.0
C1365 C 0.6827 0.84326 0.83779 0.0
C1366 C 0.63242 0.87928 0.90398 0.0
C1367 C 0.62666 0.90055 0.88687 0.0
C1368 C 0.66364 0.8632 0.85583 0.0
C1369 C 0.64037 0.90267 0.85441 0.0
C1370 C 0.69631 0.84742 0.80572 0.0
C1371 C 0.70327 0.80104 0.83569 0.0
N1372 N 0.65811 0.88437 0.8401 0.0
N1373 N 0.6867 0.82018 0.85172 0.0
H1374 H 0.77372 0.67151 0.1299 0.0
H1375 H 0.93153 0.62753 0.13147 0.0
H1376 H 0.84032 0.70375 0.22095 0.0
H1377 H 0.84519 0.56084 0.06263 0.0
H1378 H 0.90184 0.66162 0.15871 0.0
H1379 H 0.80313 0.63704 0.0987 0.0
C1380 C 0.79479 0.67173 0.14307 0.0
C1381 C 0.80473 0.69057 0.17798 0.0
C1382 C 0.88943 0.63955 0.13754 0.0
C1383 C 0.83847 0.65166 0.14262 0.0
C1384 C 0.90633 0.61965 0.12199 0.0
C1385 C 0.89111 0.59052 0.0946 0.0
C1386 C 0.85704 0.63108 0.12543 0.0
C1387 C 0.8585 0.58304 0.08319 0.0
C1388 C 0.81135 0.65189 0.12543 0.0
C1389 C 0.83185 0.68957 0.19406 0.0
N1390 N 0.84266 0.60315 0.09855 0.0
N1391 N 0.84781 0.6707 0.17627 0.0
H1392 H 0.35512 0.82606 0.22488 0.0
H1393 H 0.38711 0.87672 0.04303 0.0
H1394 H 0.29308 0.76545 0.13065 0.0
H1395 H 0.42151 0.94664 0.14476 0.0
H1396 H 0.3584 0.83228 0.0722 0.0
H1397 H 0.3867 0.86691 0.19302 0.0
C1398 C 0.34865 0.82105 0.19723 0.0
C1399 C 0.32156 0.79248 0.18025 0.0
C1400 C 0.37207 0.85744 0.08801 0.0
C1401 C 0.35739 0.83904 0.1437 0.0
C1402 C 0.38829 0.8828 0.07144 0.0
C1403 C 0.40649 0.91549 0.09152 0.0
C1404 C 0.37431 0.86487 0.12483 0.0
C1405 C 0.40769 0.92186 0.12823 0.0
C1406 C 0.36644 0.84449 0.17915 0.0
C1407 C 0.31378 0.78737 0.14458 0.0
N1408 N 0.3919 0.89679 0.14366 0.0
N1409 N 0.33167 0.81048 0.12737 0.0
H1410 H 0.70846 0.21818 0.13165 0.0
H1411 H 0.60137 0.02419 0.05159 0.0
H1412 H 0.69254 0.13907 0.18156 0.0
H1413 H 0.57075 0.09961 0.03614 0.0
H1414 H 0.65369 0.06809 0.07967 0.0
H1415 H 0.67415 0.17601 0.07977 0.0
C1416 C 0.69799 0.19207 0.1316 0.0
C1417 C 0.70328 0.18207 0.16089 0.0
C1418 C 0.63596 0.07496 0.06903 0.0
C1419 C 0.66549 0.1343 0.10191 0.0
C1420 C 0.60631 0.05001 0.05299 0.0
C1421 C 0.58195 0.05875 0.04242 0.0
C1422 C 0.64086 0.10859 0.07456 0.0
C1423 C 0.58908 0.09231 0.04469 0.0
C1424 C 0.67885 0.16816 0.10201 0.0
C1425 C 0.68946 0.14795 0.15947 0.0
N1426 N 0.61787 0.1163 0.0612 0.0
N1427 N 0.67128 0.12537 0.13053 0.0
H1428 H 0.67017 0.71307 0.80676 0.0
H1429 H 0.60602 0.5422 0.8532 0.0
H1430 H 0.72549 0.65106 0.78125 0.0
H1431 H 0.60304 0.62906 0.92855 0.0
H1432 H 0.64457 0.57888 0.82062 0.0
H1433 H 0.63921 0.67984 0.84654 0.0
C1434 C 0.67562 0.69237 0.80951 0.0
C1435 C 0.69999 0.68437 0.79069 0.0
C1436 C 0.63559 0.58978 0.84446 0.0
C1437 C 0.66479 0.64646 0.83525 0.0
C1438 C 0.61352 0.56898 0.86282 0.0
C1439 C 0.60124 0.58277 0.89328 0.0
C1440 C 0.64453 0.62436 0.85621 0.0
C1441 C 0.61193 0.61757 0.90503 0.0
C1442 C 0.65828 0.67374 0.83232 0.0
C1443 C 0.70671 0.65778 0.79538 0.0
N1444 N 0.63264 0.63727 0.88609 0.0
N1445 N 0.68875 0.63928 0.81686 0.0
H1446 H 0.40411 0.6815 0.84015 0.0
H1447 H 0.38809 0.55858 0.95243 0.0
H1448 H 0.3118 0.61131 0.86241 0.0
H1449 H 0.47954 0.63977 0.94649 0.0
H1450 H 0.35846 0.5866 0.93207 0.0
H1451 H 0.431 0.67625 0.89003 0.0
C1452 C 0.38953 0.6656 0.85622 0.0
C1453 C 0.35613 0.64622 0.84727 0.0
C1454 C 0.38498 0.59873 0.93582 0.0
C1455 C 0.38619 0.63972 0.90348 0.0
C1456 C 0.40189 0.5826 0.94728 0.0
C1457 C 0.43628 0.59667 0.95065 0.0
C1458 C 0.40265 0.62834 0.92602 0.0
C1459 C 0.45297 0.62807 0.94423 0.0
C1460 C 0.40471 0.66265 0.88465 0.0
C1461 C 0.33783 0.62613 0.86854 0.0
N1462 N 0.43599 0.6425 0.93129 0.0
N1463 N 0.35325 0.62293 0.89544 0.0
H1464 H 0.29706 0.34035 0.8216 0.0
H1465 H 0.46353 0.38439 0.92725 0.0
H1466 H 0.34944 0.27569 0.80471 0.0
H1467 H 0.41498 0.45106 0.93086 0.0
H1468 H 0.41351 0.33731 0.89712 0.0
H1469 H 0.33034 0.3729 0.87646 0.0
C1470 C 0.31514 0.33262 0.82995 0.0
C1471 C 0.32049 0.30528 0.80897 0.0
C1472 C 0.41351 0.36213 0.90549 0.0
C1473 C 0.35989 0.34335 0.87055 0.0
C1474 C 0.44193 0.38885 0.92272 0.0
C1475 C 0.44312 0.42139 0.93128 0.0
C1476 C 0.3865 0.3684 0.89678 0.0
C1477 C 0.41493 0.42625 0.92452 0.0
C1478 C 0.33419 0.35119 0.8612 0.0
C1479 C 0.34426 0.29629 0.82068 0.0
N1480 N 0.38787 0.40009 0.90744 0.0
N1481 N 0.36368 0.31575 0.8504 0.0
H1482 H 0.70653 0.35362 0.85951 0.0
H1483 H 0.62337 0.44039 0.00616 0.0
H1484 H 0.63655 0.30141 0.92554 0.0
H1485 H 0.64347 0.45441 0.90315 0.0
H1486 H 0.65635 0.40603 -0.00216 0.0
H1487 H 0.71385 0.40571 0.90025 0.0
C1488 C 0.69368 0.35254 0.8833 0.0
C1489 C 0.66976 0.32249 0.88825 0.0
C1490 C 0.65449 0.41775 0.97773 0.0
C1491 C 0.67753 0.38322 0.93427 0.0
C1492 C 0.63567 0.43675 0.98242 0.0
C1493 C 0.63026 0.44866 0.95502 0.0
C1494 C 0.66829 0.41171 0.94555 0.0
C1495 C 0.64668 0.44466 0.92449 0.0
C1496 C 0.69802 0.38279 0.90663 0.0
C1497 C 0.65406 0.32388 0.91977 0.0
N1498 N 0.66477 0.42605 0.92034 0.0
N1499 N 0.65737 0.35397 0.94115 0.0
H1500 H 0.71645 0.38594 0.1291 0.0
H1501 H 0.54483 0.3446 0.03409 0.0
H1502 H 0.62562 0.31715 0.15613 0.0
H1503 H 0.62792 0.43948 0.06251 0.0
H1504 H 0.57748 0.31915 0.05613 0.0
H1505 H 0.68725 0.38721 0.07864 0.0
C1506 C 0.69049 0.37032 0.12363 0.0
C1507 C 0.67308 0.352 0.14683 0.0
C1508 C 0.58864 0.34525 0.05619 0.0
C1509 C 0.6396 0.35399 0.09023 0.0
C1510 C 0.57018 0.35976 0.04367 0.0
C1511 C 0.58378 0.39417 0.04618 0.0
C1512 C 0.62099 0.36527 0.07018 0.0
C1513 C 0.61643 0.41284 0.0596 0.0
C1514 C 0.67388 0.371 0.09496 0.0
C1515 C 0.63958 0.3319 0.13879 0.0
N1516 N 0.63383 0.39816 0.07098 0.0
N1517 N 0.62354 0.3341 0.1115 0.0
H1518 H 0.7172 0.65505 0.15919 0.0
H1519 H 0.54129 0.57726 0.1139 0.0
H1520 H 0.66619 0.71885 0.20156 0.0
H1521 H 0.59869 0.58408 0.02329 0.0
H1522 H 0.58581 0.62701 0.14875 0.0
H1523 H 0.6756 0.62597 0.10955 0.0
C1524 C 0.69763 0.66337 0.15742 0.0
C1525 C 0.69493 0.68929 0.18398 0.0
C1526 C 0.58829 0.61791 0.12105 0.0
C1527 C 0.64706 0.65563 0.12874 0.0
C1528 C 0.56312 0.58944 0.10126 0.0
C1529 C 0.56678 0.57595 0.06598 0.0
C1530 C 0.61771 0.63219 0.10576 0.0
C1531 C 0.5953 0.59306 0.05069 0.0
C1532 C 0.67414 0.64702 0.12917 0.0
C1533 C 0.66901 0.69905 0.18118 0.0
N1534 N 0.62033 0.61973 0.07104 0.0
N1535 N 0.64534 0.68147 0.15448 0.0
H1536 H 0.32633 0.63065 0.13198 0.0
H1537 H 0.44064 0.59435 0.02898 0.0
H1538 H 0.38074 0.69864 0.07061 0.0
H1539 H 0.34828 0.51082 0.02387 0.0
H1540 H 0.41188 0.63036 0.03268 0.0
H1541 H 0.31988 0.58416 0.08225 0.0
C1542 C 0.3357 0.63604 0.10755 0.0
C1543 C 0.35574 0.6687 0.106 0.0
C1544 C 0.39751 0.60399 0.02957 0.0
C1545 C 0.34921 0.61516 0.04935 0.0
C1546 C 0.41408 0.58343 0.02771 0.0
C1547 C 0.39679 0.54969 0.02611 0.0
C1548 C 0.3634 0.59122 0.03203 0.0
C1549 C 0.36239 0.53685 0.02497 0.0
C1550 C 0.33176 0.60918 0.07888 0.0
C1551 C 0.36673 0.67375 0.07344 0.0
N1552 N 0.34671 0.55798 0.02923 0.0
N1553 N 0.36419 0.6471 0.04649 0.0
H1554 H 0.36386 0.2975 0.20501 0.0
H1555 H 0.37641 0.38815 0.05824 0.0
H1556 H 0.28295 0.32309 0.18598 0.0
H1557 H 0.45661 0.42104 0.13584 0.0
H1558 H 0.33976 0.35468 0.09521 0.0
H1559 H 0.39708 0.33307 0.16897 0.0
C1560 C 0.35307 0.31064 0.19336 0.0
C1561 C 0.32072 0.30767 0.19882 0.0
C1562 C 0.36538 0.36943 0.10395 0.0
C1563 C 0.35832 0.34745 0.15691 0.0
C1564 C 0.38622 0.38818 0.08293 0.0
C1565 C 0.41947 0.40697 0.09407 0.0
C1566 C 0.37837 0.36898 0.13549 0.0
C1567 C 0.43111 0.40673 0.12637 0.0
C1568 C 0.37203 0.33083 0.17281 0.0
C1569 C 0.30784 0.32481 0.18247 0.0
N1570 N 0.41063 0.3876 0.1458 0.0
N1571 N 0.32669 0.34391 0.16187 0.0
H1572 H 0.85784 0.72935 0.70604 0.0
H1573 H 0.84338 0.5502 0.58865 0.0
H1574 H 0.76511 0.65267 0.65787 0.0
H1575 H 0.93494 0.63681 0.61576 0.0
H1576 H 0.814 0.58558 0.61481 0.0
H1577 H 0.88584 0.69454 0.67467 0.0
C1578 C 0.84329 0.7052 0.68869 0.0
C1579 C 0.80892 0.69405 0.68477 0.0
C1580 C 0.84052 0.5968 0.6149 0.0
C1581 C 0.84119 0.6534 0.64872 0.0
C1582 C 0.85751 0.57658 0.59969 0.0
C1583 C 0.89215 0.5901 0.59968 0.0
C1584 C 0.85805 0.63097 0.63075 0.0
C1585 C 0.90851 0.62461 0.61542 0.0
C1586 C 0.85939 0.68526 0.67068 0.0
C1587 C 0.79161 0.66249 0.6616 0.0
N1588 N 0.89145 0.64356 0.6303 0.0
N1589 N 0.80784 0.64317 0.64479 0.0
H1590 H 0.32689 0.8538 0.73485 0.0
H1591 H 0.38737 0.87272 0.54639 0.0
H1592 H 0.32409 0.7683 0.65333 0.0
H1593 H 0.4214 0.95232 0.64183 0.0
H1594 H 0.35965 0.83331 0.58204 0.0
H1595 H 0.35818 0.8902 0.69841 0.0
C1596 C 0.33324 0.84287 0.70927 0.0
C1597 C 0.32322 0.80836 0.69689 0.0
C1598 C 0.37331 0.85943 0.59495 0.0
C1599 C 0.3581 0.84942 0.65463 0.0
C1600 C 0.38878 0.88191 0.57469 0.0
C1601 C 0.4064 0.91589 0.59118 0.0
C1602 C 0.37528 0.87131 0.63172 0.0
C1603 C 0.40791 0.92645 0.62791 0.0
C1604 C 0.35101 0.86351 0.68845 0.0
C1605 C 0.33173 0.79503 0.66359 0.0
N1606 N 0.39249 0.90433 0.64682 0.0
N1607 N 0.34847 0.81564 0.64325 0.0
H1608 H 0.12791 0.31568 0.64199 0.0
H1609 H 0.10784 0.44728 0.55359 0.0
H1610 H 0.20774 0.38597 0.6013 0.0
H1611 H 0.02505 0.3671 0.57756 0.0
H1612 H 0.14414 0.42132 0.56547 0.0
H1613 H 0.0889 0.32907 0.61262 0.0
C1614 C 0.13708 0.33307 0.62585 0.0
C1615 C 0.17098 0.34979 0.62401 0.0
C1616 C 0.11802 0.4091 0.56783 0.0
C1617 C 0.12683 0.36595 0.59121 0.0
C1618 C 0.09741 0.42401 0.56114 0.0
C1619 C 0.06367 0.40932 0.56494 0.0
C1620 C 0.10483 0.37961 0.57906 0.0
C1621 C 0.05107 0.37911 0.57453 0.0
C1622 C 0.11489 0.34097 0.60936 0.0
C1623 C 0.18174 0.3726 0.60335 0.0
N1624 N 0.07172 0.36543 0.58175 0.0
N1625 N 0.1598 0.38033 0.58816 0.0
H1626 H 0.74032 0.19284 0.62449 0.0
H1627 H 0.55827 0.06477 0.61047 0.0
H1628 H 0.69378 0.14537 0.70532 0.0
H1629 H 0.61015 0.06202 0.51552 0.0
H1630 H 0.60912 0.10195 0.64396 0.0
H1631 H 0.69534 0.15012 0.58167 0.0
C1632 C 0.7214 0.17262 0.63275 0.0
C1633 C 0.72046 0.1722 0.66818 0.0
C1634 C 0.6096 0.09314 0.61581 0.0
C1635 C 0.66967 0.1245 0.62041 0.0
C1636 C 0.58041 0.07202 0.59651 0.0
C1637 C 0.57991 0.06004 0.56006 0.0
C1638 C 0.63887 0.10273 0.59885 0.0
C1639 C 0.60959 0.07064 0.54364 0.0
C1640 C 0.69582 0.14854 0.60853 0.0
C1641 C 0.69527 0.14632 0.67816 0.0
N1642 N 0.63816 0.09164 0.56325 0.0
N1643 N 0.67078 0.12369 0.65448 0.0
H1644 H 0.82219 0.35238 0.32157 0.0
H1645 H 0.96319 0.38553 0.43169 0.0
H1646 H 0.81825 0.26707 0.35499 0.0
H1647 H 0.91333 0.45206 0.46426 0.0
H1648 H 0.91045 0.33965 0.40847 0.0
H1649 H 0.85468 0.38896 0.37541 0.0
C1650 C 0.82741 0.34123 0.34061 0.0
C1651 C 0.81721 0.30654 0.3338 0.0
C1652 C 0.91087 0.36399 0.42186 0.0
C1653 C 0.8557 0.34858 0.39493 0.0
C1654 C 0.94091 0.39014 0.43486 0.0
C1655 C 0.94239 0.42252 0.44891 0.0
C1656 C 0.88275 0.37092 0.42145 0.0
C1657 C 0.91302 0.42738 0.45297 0.0
C1658 C 0.8459 0.36219 0.37143 0.0
C1659 C 0.82592 0.29372 0.35901 0.0
N1660 N 0.88435 0.40204 0.43795 0.0
N1661 N 0.84546 0.31482 0.38816 0.0
H1662 H 0.6704 0.77333 0.26286 0.0
H1663 H 0.66976 0.92562 0.41807 0.0
H1664 H 0.74358 0.81776 0.34974 0.0
H1665 H 0.58229 0.85236 0.35489 0.0
H1666 H 0.69922 0.89021 0.39225 0.0
H1667 H 0.64005 0.80561 0.29433 0.0
C1668 C 0.68019 0.79001 0.28859 0.0
C1669 C 0.70983 0.79304 0.30346 0.0
C1670 C 0.67353 0.88194 0.38424 0.0
C1671 C 0.67517 0.83079 0.3397 0.0
C1672 C 0.65644 0.90211 0.39914 0.0
C1673 C 0.62309 0.89251 0.38881 0.0
C1674 C 0.65753 0.85204 0.35825 0.0
C1675 C 0.60796 0.86176 0.3634 0.0
C1676 C 0.66272 0.80838 0.30665 0.0
C1677 C 0.72093 0.81473 0.3372 0.0
N1678 N 0.62526 0.84301 0.34894 0.0
N1679 N 0.70386 0.83314 0.35398 0.0
H1680 H 0.16161 0.6925 0.29067 0.0
H1681 H 0.15629 0.56415 0.39462 0.0
H1682 H 0.24715 0.7069 0.35172 0.0
H1683 H 0.07452 0.59316 0.39556 0.0
H1684 H 0.18902 0.61043 0.36911 0.0
H1685 H 0.12755 0.65224 0.32237 0.0
C1686 C 0.17331 0.6873 0.3107 0.0
C1687 C 0.20763 0.70193 0.31731 0.0
C1688 C 0.16405 0.60689 0.37541 0.0
C1689 C 0.1689 0.6554 0.35275 0.0
C1690 C 0.14549 0.58057 0.38977 0.0
C1691 C 0.11301 0.57533 0.39725 0.0
C1692 C 0.14987 0.62786 0.36857 0.0
C1693 C 0.09961 0.59663 0.38993 0.0
C1694 C 0.15383 0.66427 0.32866 0.0
C1695 C 0.22115 0.69483 0.34426 0.0
N1696 N 0.11809 0.62205 0.37586 0.0
N1697 N 0.2019 0.67143 0.36036 0.0
H1698 H 0.39424 0.20246 0.43205 0.0
H1699 H 0.45901 0.06077 0.35353 0.0
H1700 H 0.37983 0.14992 0.32236 0.0
H1701 H 0.44585 0.09093 0.46417 0.0
H1702 H 0.42818 0.09178 0.34189 0.0
H1703 H 0.40977 0.15991 0.44511 0.0
C1704 C 0.39371 0.18154 0.41083 0.0
C1705 C 0.38621 0.1799 0.37603 0.0
C1706 C 0.4317 0.09131 0.36869 0.0
C1707 C 0.40477 0.13166 0.39057 0.0
C1708 C 0.44927 0.07344 0.3754 0.0
C1709 C 0.45514 0.07302 0.40994 0.0
C1710 C 0.42026 0.10947 0.39668 0.0
C1711 C 0.44252 0.09088 0.43716 0.0
C1712 C 0.40265 0.15731 0.41825 0.0
C1713 C 0.3856 0.15217 0.34951 0.0
N1714 N 0.42597 0.10859 0.42998 0.0
N1715 N 0.39545 0.12949 0.35723 0.0
H1716 H 0.59361 0.80201 0.65654 0.0
H1717 H 0.60063 0.92767 0.54208 0.0
H1718 H 0.65882 0.81697 0.57313 0.0
H1719 H 0.51947 0.8849 0.60216 0.0
H1720 H 0.62787 0.89438 0.55829 0.0
H1721 H 0.57258 0.84084 0.64347 0.0
C1722 C 0.60387 0.81404 0.63586 0.0
C1723 C 0.62797 0.80652 0.61597 0.0
C1724 C 0.60408 0.89227 0.56781 0.0
C1725 C 0.60367 0.85044 0.60026 0.0
C1726 C 0.58863 0.91115 0.55858 0.0
C1727 C 0.55803 0.90896 0.57114 0.0
C1728 C 0.58865 0.87123 0.58969 0.0
C1729 C 0.54327 0.88741 0.59239 0.0
C1730 C 0.59171 0.83594 0.62816 0.0
C1731 C 0.6403 0.82239 0.58914 0.0
N1732 N 0.55872 0.86942 0.60101 0.0
N1733 N 0.62792 0.84359 0.58192 0.0
H1734 H 0.71222 0.22781 0.35561 0.0
H1735 H 0.59216 0.03907 0.34144 0.0
H1736 H 0.69697 0.14553 0.26402 0.0
H1737 H 0.63822 0.10635 0.44159 0.0
H1738 H 0.62346 0.08236 0.3128 0.0
H1739 H 0.67857 0.18749 0.38804 0.0
C1740 C 0.70182 0.2014 0.34239 0.0
C1741 C 0.70753 0.18992 0.30719 0.0
C1742 C 0.62691 0.08762 0.34104 0.0
C1743 C 0.6691 0.14432 0.34357 0.0
C1744 C 0.60912 0.06288 0.35741 0.0
C1745 C 0.61302 0.06895 0.39388 0.0
C1746 C 0.64877 0.11878 0.36119 0.0
C1747 C 0.63491 0.10055 0.4133 0.0
C1748 C 0.68279 0.17854 0.36086 0.0
C1749 C 0.6935 0.15555 0.29118 0.0
N1750 N 0.65208 0.12444 0.39668 0.0
N1751 N 0.67487 0.13407 0.30943 0.0
H1752 H 0.84797 0.61302 0.31813 0.0
H1753 H 0.98036 0.61973 0.44921 0.0
H1754 H 0.84636 0.65991 0.42757 0.0
H1755 H 0.91455 0.52669 0.38013 0.0
H1756 H 0.94549 0.64675 0.43624 0.0
H1757 H 0.88985 0.59489 0.33367 0.0
C1758 C 0.85713 0.6202 0.34529 0.0
C1759 C 0.84384 0.63772 0.37173 0.0
C1760 C 0.93908 0.62047 0.42396 0.0
C1761 C 0.89132 0.61742 0.38942 0.0
C1762 C 0.95868 0.60483 0.4315 0.0
C1763 C 0.95077 0.57073 0.4154 0.0
C1764 C 0.91211 0.60213 0.39945 0.0
C1765 C 0.92251 0.55315 0.39228 0.0
C1766 C 0.88072 0.60974 0.3541 0.0
C1767 C 0.85615 0.64628 0.40662 0.0
N1768 N 0.90449 0.56916 0.38467 0.0
N1769 N 0.8793 0.63592 0.41462 0.0
H1770 H 0.28493 0.79176 0.36569 0.0
H1771 H 0.42551 0.97085 0.43052 0.0
H1772 H 0.34734 0.84765 0.29794 0.0
H1773 H 0.44109 0.89069 0.45669 0.0
H1774 H 0.37154 0.93108 0.40241 0.0
H1775 H 0.3208 0.8336 0.41709 0.0
C1776 C 0.3057 0.81326 0.36191 0.0
C1777 C 0.3133 0.81697 0.32805 0.0
C1778 C 0.38617 0.9226 0.41584 0.0
C1779 C 0.35266 0.86436 0.38546 0.0
C1780 C 0.41683 0.94509 0.43164 0.0
C1781 C 0.4375 0.93353 0.44513 0.0
C1782 C 0.3765 0.88863 0.41373 0.0
C1783 C 0.42565 0.9001 0.44597 0.0
C1784 C 0.32589 0.83681 0.39093 0.0
C1785 C 0.34065 0.84441 0.32382 0.0
N1786 N 0.39589 0.87838 0.42964 0.0
N1787 N 0.35926 0.86731 0.35232 0.0
H1788 H 0.23435 0.30677 0.35934 0.0
H1789 H 0.11706 0.39817 0.3329 0.0
H1790 H 0.20056 0.31025 0.25999 0.0
H1791 H 0.14651 0.39871 0.43601 0.0
H1792 H 0.14887 0.36605 0.30713 0.0
H1793 H 0.20461 0.34117 0.3894 0.0
C1794 C 0.22111 0.31488 0.34386 0.0
C1795 C 0.22035 0.30548 0.307 0.0
C1796 C 0.14849 0.37307 0.33544 0.0
C1797 C 0.18574 0.34429 0.34106 0.0
C1798 C 0.12991 0.39129 0.35028 0.0
C1799 C 0.12842 0.40096 0.38685 0.0
C1800 C 0.16621 0.36426 0.35707 0.0
C1801 C 0.14684 0.39199 0.40771 0.0
C1802 C 0.20391 0.33433 0.36101 0.0
C1803 C 0.2021 0.31644 0.28839 0.0
N1804 N 0.16485 0.37409 0.39256 0.0
N1805 N 0.18569 0.33496 0.30551 0.0
H1806 H 0.27457 0.1395 0.70472 0.0
H1807 H 0.42582 0.13412 0.58966 0.0
H1808 H 0.33307 0.21963 0.65945 0.0
H1809 H 0.34963 0.04613 0.60891 0.0
H1810 H 0.3945 0.16706 0.6181 0.0
H1811 H 0.30404 0.10621 0.67311 0.0
C1812 C 0.29333 0.15005 0.68781 0.0
C1813 C 0.30088 0.18243 0.68444 0.0
C1814 C 0.38458 0.14052 0.61598 0.0
C1815 C 0.33516 0.14426 0.64823 0.0
C1816 C 0.40252 0.12173 0.59988 0.0
C1817 C 0.39032 0.08723 0.59671 0.0
C1818 C 0.35444 0.1249 0.62971 0.0
C1819 C 0.35986 0.07253 0.61035 0.0
C1820 C 0.31015 0.13093 0.66969 0.0
C1821 C 0.32571 0.19462 0.66225 0.0
N1822 N 0.34317 0.09142 0.62643 0.0
N1823 N 0.34205 0.17568 0.64521 0.0
H1824 H 0.81144 0.26013 0.63973 0.0
H1825 H 0.91102 0.45167 0.64082 0.0
H1826 H 0.84289 0.34292 0.73225 0.0
H1827 H 0.89326 0.37191 0.54635 0.0
H1828 H 0.88349 0.4108 0.67343 0.0
H1829 H 0.84075 0.2989 0.60392 0.0
C1830 C 0.82479 0.28637 0.65244 0.0
C1831 C 0.82426 0.29864 0.68877 0.0
C1832 C 0.88547 0.40202 0.64556 0.0
C1833 C 0.8572 0.34277 0.64843 0.0
C1834 C 0.90106 0.42544 0.62686 0.0
C1835 C 0.90438 0.41516 0.59084 0.0
C1836 C 0.87311 0.36784 0.62829 0.0
C1837 C 0.89092 0.38083 0.5741 0.0
C1838 C 0.84126 0.30845 0.63208 0.0
C1839 C 0.84197 0.33266 0.70417 0.0
N1840 N 0.87594 0.35826 0.59304 0.0
N1841 N 0.85746 0.35352 0.68394 0.0
H1842 H 0.17176 0.6739 0.69921 0.0
H1843 H 0.08947 0.58519 0.51281 0.0
H1844 H 0.23348 0.70272 0.61635 0.0
H1845 H 0.08392 0.5335 0.59221 0.0
H1846 H 0.13945 0.63146 0.54496 0.0
H1847 H 0.13292 0.62669 0.6563 0.0
C1848 C 0.17651 0.67078 0.67168 0.0
C1849 C 0.205 0.69263 0.66091 0.0
C1850 C 0.12775 0.60942 0.55451 0.0
C1851 C 0.16155 0.63786 0.61186 0.0
C1852 C 0.09945 0.58319 0.53632 0.0
C1853 C 0.08253 0.55622 0.55065 0.0
C1854 C 0.13837 0.60811 0.58689 0.0
C1855 C 0.096 0.5544 0.58099 0.0
C1856 C 0.15479 0.64347 0.64733 0.0
C1857 C 0.21117 0.68652 0.6252 0.0
N1858 N 0.12287 0.58031 0.59846 0.0
N1859 N 0.18925 0.65957 0.60151 0.0
loop_
_geom_bond_atom_site_label_1
_geom_bond_atom_site_label_2
_geom_bond_distance
_geom_bond_site_symmetry_2
_ccdc_geom_bond_type
Eu0 N29 2.600 . S
Eu0 N35 2.562 . S
Eu0 O44 2.462 . S
Eu0 O45 2.373 . S
Eu0 O47 2.432 . S
Eu0 O48 2.291 . S
Eu0 O52 2.335 . S
Eu0 O55 2.372 . S
Eu0 C64 2.787 . S
C1 N2 1.365 . S
C1 C4 1.405 . S
C1 C8 1.448 . S
N2 C1 1.365 . S
N2 C5 1.319 . S
N2 Eu11 2.600 . S
C3 C5 1.397 . S
C3 C6 1.367 . S
C3 H23 0.931 . S
C4 C1 1.405 . S
C4 C6 1.403 . S
C4 C10 1.439 . S
C5 N2 1.319 . S
C5 C3 1.397 . S
C5 H16 0.930 . S
C6 C3 1.367 . S
C6 C4 1.403 . S
C6 H27 0.929 . S
C7 C8 1.430 . S
C7 C9 1.387 . S
C7 C13 1.404 . S
C8 C1 1.448 . S
C8 C7 1.430 . S
C8 N12 1.351 . S
C9 C7 1.387 . S
C9 C10 1.374 . S
C9 H24 0.931 . S
C10 C4 1.439 . S
C10 C9 1.374 . S
C10 H25 0.931 . S
Eu11 N2 2.600 . S
Eu11 N12 2.562 . S
Eu11 O46 2.335 . S
Eu11 O49 2.372 . S
Eu11 O50 2.462 . S
Eu11 O51 2.373 . S
Eu11 O53 2.432 . S
Eu11 O54 2.291 . S
Eu11 C75 2.787 . S
N12 C8 1.351 . S
N12 Eu11 2.562 . S
N12 C14 1.325 . S
C13 C7 1.404 . S
C13 C15 1.366 . S
C13 H21 0.930 . S
C14 N12 1.325 . S
C14 C15 1.416 . S
C14 H20 0.929 . S
C15 C13 1.366 . S
C15 C14 1.416 . S
C15 H17 0.930 . S
H16 C5 0.930 . S
H17 C15 0.930 . S
H18 C33 0.930 . S
H19 C40 0.930 . S
H20 C14 0.929 . S
H21 C13 0.930 . S
H22 C36 0.929 . S
H23 C3 0.931 . S
H24 C9 0.931 . S
H25 C10 0.931 . S
H26 C31 0.931 . S
H27 C6 0.929 . S
H28 C39 0.930 . S
N29 Eu0 2.600 . S
N29 C30 1.365 . S
N29 C33 1.319 . S
C30 N29 1.365 . S
C30 C32 1.405 . S
C30 C38 1.448 . S
C31 H26 0.931 . S
C31 C33 1.397 . S
C31 C34 1.367 . S
C32 C30 1.405 . S
C32 C34 1.403 . S
C32 C65 1.439 . S
C33 H18 0.930 . S
C33 N29 1.319 . S
C33 C31 1.397 . S
C34 C31 1.367 . S
C34 C32 1.403 . S
C34 H41 0.929 . S
N35 Eu0 2.562 . S
N35 C36 1.325 . S
N35 C38 1.351 . S
C36 H22 0.929 . S
C36 N35 1.325 . S
C36 C40 1.416 . S
C37 C38 1.430 . S
C37 C39 1.404 . S
C37 C66 1.387 . S
C38 C30 1.448 . S
C38 N35 1.351 . S
C38 C37 1.430 . S
C39 H28 0.930 . S
C39 C37 1.404 . S
C39 C40 1.366 . S
C40 H19 0.930 . S
C40 C36 1.416 . S
C40 C39 1.366 . S
H41 C34 0.929 . S
H42 C65 0.931 . S
H43 C66 0.931 . S
O44 Eu0 2.462 . S
O44 C64 1.252 . S
O45 Eu0 2.373 . S
O45 C56 1.249 . S
O46 Eu11 2.335 . S
O46 C56 1.264 . S
O47 Eu0 2.432 . S
O47 C64 1.268 . S
O48 Eu0 2.291 . S
O48 C63 1.255 . S
O49 Eu11 2.372 . S
O49 C63 1.257 . S
O50 Eu11 2.462 . S
O50 C75 1.252 . S
O51 Eu11 2.373 . S
O51 C67 1.249 . S
O52 Eu0 2.335 . S
O52 C67 1.264 . S
O53 Eu11 2.432 . S
O53 C75 1.268 . S
O54 Eu11 2.291 . S
O54 C74 1.255 . S
O55 Eu0 2.372 . S
O55 C74 1.257 . S
C56 O45 1.249 . S
C56 O46 1.264 . S
C57 C60 1.382 . S
C57 C62 1.390 . S
C57 C64 1.506 . S
C58 C59 1.398 . S
C58 C62 1.392 . S
C59 C58 1.398 . S
C59 C61 1.372 . S
C59 H76 0.931 . S
C60 C57 1.382 . S
C60 C61 1.390 . S
C60 H77 0.931 . S
C61 C59 1.372 . S
C61 C60 1.390 . S
C61 H78 0.929 . S
C62 C57 1.390 . S
C62 C58 1.392 . S
C62 H79 0.930 . S
C63 O48 1.255 . S
C63 O49 1.257 . S
C64 Eu0 2.787 . S
C64 O44 1.252 . S
C64 O47 1.268 . S
C64 C57 1.506 . S
C65 C32 1.439 . S
C65 H42 0.931 . S
C65 C66 1.374 . S
C66 C37 1.387 . S
C66 H43 0.931 . S
C66 C65 1.374 . S
C67 O51 1.249 . S
C67 O52 1.264 . S
C68 C71 1.382 . S
C68 C72 1.390 . S
C68 C75 1.506 . S
C69 C70 1.398 . S
C69 C72 1.392 . S
C70 C69 1.398 . S
C70 C73 1.372 . S
C70 H80 0.931 . S
C71 C68 1.382 . S
C71 C73 1.390 . S
C71 H81 0.931 . S
C72 C68 1.390 . S
C72 C69 1.392 . S
C72 H82 0.930 . S
C73 C70 1.372 . S
C73 C71 1.390 . S
C73 H83 0.929 . S
C74 O54 1.255 . S
C74 O55 1.257 . S
C75 Eu11 2.787 . S
C75 O50 1.252 . S
C75 O53 1.268 . S
C75 C68 1.506 . S
H76 C59 0.931 . S
H77 C60 0.931 . S
H78 C61 0.929 . S
H79 C62 0.930 . S
H80 C70 0.931 . S
H81 C71 0.931 . S
H82 C72 0.930 . S
H83 C73 0.929 . S
Eu84 N113 2.600 . S
Eu84 N119 2.562 . S
Eu84 O128 2.462 . S
Eu84 O129 2.373 . S
Eu84 O131 2.432 . S
Eu84 O132 2.291 . S
Eu84 O136 2.335 . S
Eu84 O139 2.372 . S
Eu84 C148 2.787 . S
C85 N86 1.365 . S
C85 C88 1.405 . S
C85 C92 1.448 . S
N86 C85 1.365 . S
N86 C89 1.319 . S
N86 Eu95 2.600 . S
C87 C89 1.397 . S
C87 C90 1.367 . S
C87 H107 0.931 . S
C88 C85 1.405 . S
C88 C90 1.403 . S
C88 C94 1.439 . S
C89 N86 1.319 . S
C89 C87 1.397 . S
C89 H100 0.930 . S
C90 C87 1.367 . S
C90 C88 1.403 . S
C90 H111 0.929 . S
C91 C92 1.430 . S
C91 C93 1.387 . S
C91 C97 1.404 . S
C92 C85 1.448 . S
C92 C91 1.430 . S
C92 N96 1.351 . S
C93 C91 1.387 . S
C93 C94 1.374 . S
C93 H108 0.931 . S
C94 C88 1.439 . S
C94 C93 1.374 . S
C94 H109 0.931 . S
Eu95 N86 2.600 . S
Eu95 N96 2.562 . S
Eu95 O130 2.335 . S
Eu95 O133 2.372 . S
Eu95 O134 2.462 . S
Eu95 O135 2.373 . S
Eu95 O137 2.432 . S
Eu95 O138 2.291 . S
Eu95 C159 2.787 . S
N96 C92 1.351 . S
N96 Eu95 2.562 . S
N96 C98 1.325 . S
C97 C91 1.404 . S
C97 C99 1.366 . S
C97 H105 0.930 . S
C98 N96 1.325 . S
C98 C99 1.416 . S
C98 H104 0.929 . S
C99 C97 1.366 . S
C99 C98 1.416 . S
C99 H101 0.930 . S
H100 C89 0.930 . S
H101 C99 0.930 . S
H102 C117 0.930 . S
H103 C124 0.930 . S
H104 C98 0.929 . S
H105 C97 0.930 . S
H106 C120 0.929 . S
H107 C87 0.931 . S
H108 C93 0.931 . S
H109 C94 0.931 . S
H110 C115 0.931 . S
H111 C90 0.929 . S
H112 C123 0.930 . S
N113 Eu84 2.600 . S
N113 C114 1.365 . S
N113 C117 1.319 . S
C114 N113 1.365 . S
C114 C116 1.405 . S
C114 C122 1.448 . S
C115 H110 0.931 . S
C115 C117 1.397 . S
C115 C118 1.367 . S
C116 C114 1.405 . S
C116 C118 1.403 . S
C116 C149 1.439 . S
C117 H102 0.930 . S
C117 N113 1.319 . S
C117 C115 1.397 . S
C118 C115 1.367 . S
C118 C116 1.403 . S
C118 H125 0.929 . S
N119 Eu84 2.562 . S
N119 C120 1.325 . S
N119 C122 1.351 . S
C120 H106 0.929 . S
C120 N119 1.325 . S
C120 C124 1.416 . S
C121 C122 1.430 . S
C121 C123 1.404 . S
C121 C150 1.387 . S
C122 C114 1.448 . S
C122 N119 1.351 . S
C122 C121 1.430 . S
C123 H112 0.930 . S
C123 C121 1.404 . S
C123 C124 1.366 . S
C124 H103 0.930 . S
C124 C120 1.416 . S
C124 C123 1.366 . S
H125 C118 0.929 . S
H126 C149 0.931 . S
H127 C150 0.931 . S
O128 Eu84 2.462 . S
O128 C148 1.252 . S
O129 Eu84 2.373 . S
O129 C140 1.249 . S
O130 Eu95 2.335 . S
O130 C140 1.264 . S
O131 Eu84 2.432 . S
O131 C148 1.268 . S
O132 Eu84 2.291 . S
O132 C147 1.255 . S
O133 Eu95 2.372 . S
O133 C147 1.257 . S
O134 Eu95 2.462 . S
O134 C159 1.252 . S
O135 Eu95 2.373 . S
O135 C151 1.249 . S
O136 Eu84 2.335 . S
O136 C151 1.264 . S
O137 Eu95 2.432 . S
O137 C159 1.268 . S
O138 Eu95 2.291 . S
O138 C158 1.255 . S
O139 Eu84 2.372 . S
O139 C158 1.257 . S
C140 O129 1.249 . S
C140 O130 1.264 . S
C141 C144 1.382 . S
C141 C146 1.390 . S
C141 C148 1.506 . S
C142 C143 1.398 . S
C142 C146 1.392 . S
C143 C142 1.398 . S
C143 C145 1.372 . S
C143 H160 0.931 . S
C144 C141 1.382 . S
C144 C145 1.390 . S
C144 H161 0.931 . S
C145 C143 1.372 . S
C145 C144 1.390 . S
C145 H162 0.929 . S
C146 C141 1.390 . S
C146 C142 1.392 . S
C146 H163 0.930 . S
C147 O132 1.255 . S
C147 O133 1.257 . S
C148 Eu84 2.787 . S
C148 O128 1.252 . S
C148 O131 1.268 . S
C148 C141 1.506 . S
C149 C116 1.439 . S
C149 H126 0.931 . S
C149 C150 1.374 . S
C150 C121 1.387 . S
C150 H127 0.931 . S
C150 C149 1.374 . S
C151 O135 1.249 . S
C151 O136 1.264 . S
C152 C155 1.382 . S
C152 C156 1.390 . S
C152 C159 1.506 . S
C153 C154 1.398 . S
C153 C156 1.392 . S
C154 C153 1.398 . S
C154 C157 1.372 . S
C154 H164 0.931 . S
C155 C152 1.382 . S
C155 C157 1.390 . S
C155 H165 0.931 . S
C156 C152 1.390 . S
C156 C153 1.392 . S
C156 H166 0.930 . S
C157 C154 1.372 . S
C157 C155 1.390 . S
C157 H167 0.929 . S
C158 O138 1.255 . S
C158 O139 1.257 . S
C159 Eu95 2.787 . S
C159 O134 1.252 . S
C159 O137 1.268 . S
C159 C152 1.506 . S
H160 C143 0.931 . S
H161 C144 0.931 . S
H162 C145 0.929 . S
H163 C146 0.930 . S
H164 C154 0.931 . S
H165 C155 0.931 . S
H166 C156 0.930 . S
H167 C157 0.929 . S
Eu168 N197 2.600 . S
Eu168 N203 2.562 . S
Eu168 O212 2.462 . S
Eu168 O213 2.373 . S
Eu168 O215 2.432 . S
Eu168 O216 2.291 . S
Eu168 O220 2.335 . S
Eu168 O223 2.372 . S
Eu168 C232 2.787 . S
C169 N170 1.365 . S
C169 C172 1.405 . S
C169 C176 1.448 . S
N170 C169 1.365 . S
N170 C173 1.319 . S
N170 Eu179 2.600 . S
C171 C173 1.397 . S
C171 C174 1.367 . S
C171 H191 0.931 . S
C172 C169 1.405 . S
C172 C174 1.403 . S
C172 C178 1.439 . S
C173 N170 1.319 . S
C173 C171 1.397 . S
C173 H184 0.930 . S
C174 C171 1.367 . S
C174 C172 1.403 . S
C174 H195 0.929 . S
C175 C176 1.430 . S
C175 C177 1.387 . S
C175 C181 1.404 . S
C176 C169 1.448 . S
C176 C175 1.430 . S
C176 N180 1.351 . S
C177 C175 1.387 . S
C177 C178 1.374 . S
C177 H192 0.931 . S
C178 C172 1.439 . S
C178 C177 1.374 . S
C178 H193 0.931 . S
Eu179 N170 2.600 . S
Eu179 N180 2.562 . S
Eu179 O214 2.335 . S
Eu179 O217 2.372 . S
Eu179 O218 2.462 . S
Eu179 O219 2.373 . S
Eu179 O221 2.432 . S
Eu179 O222 2.291 . S
Eu179 C243 2.787 . S
N180 C176 1.351 . S
N180 Eu179 2.562 . S
N180 C182 1.325 . S
C181 C175 1.404 . S
C181 C183 1.366 . S
C181 H189 0.930 . S
C182 N180 1.325 . S
C182 C183 1.416 . S
C182 H188 0.929 . S
C183 C181 1.366 . S
C183 C182 1.416 . S
C183 H185 0.930 . S
H184 C173 0.930 . S
H185 C183 0.930 . S
H186 C201 0.930 . S
H187 C208 0.930 . S
H188 C182 0.929 . S
H189 C181 0.930 . S
H190 C204 0.929 . S
H191 C171 0.931 . S
H192 C177 0.931 . S
H193 C178 0.931 . S
H194 C199 0.931 . S
H195 C174 0.929 . S
H196 C207 0.930 . S
N197 Eu168 2.600 . S
N197 C198 1.365 . S
N197 C201 1.319 . S
C198 N197 1.365 . S
C198 C200 1.405 . S
C198 C206 1.448 . S
C199 H194 0.931 . S
C199 C201 1.397 . S
C199 C202 1.367 . S
C200 C198 1.405 . S
C200 C202 1.403 . S
C200 C233 1.439 . S
C201 H186 0.930 . S
C201 N197 1.319 . S
C201 C199 1.397 . S
C202 C199 1.367 . S
C202 C200 1.403 . S
C202 H209 0.929 . S
N203 Eu168 2.562 . S
N203 C204 1.325 . S
N203 C206 1.351 . S
C204 H190 0.929 . S
C204 N203 1.325 . S
C204 C208 1.416 . S
C205 C206 1.430 . S
C205 C207 1.404 . S
C205 C234 1.387 . S
C206 C198 1.448 . S
C206 N203 1.351 . S
C206 C205 1.430 . S
C207 H196 0.930 . S
C207 C205 1.404 . S
C207 C208 1.366 . S
C208 H187 0.930 . S
C208 C204 1.416 . S
C208 C207 1.366 . S
H209 C202 0.929 . S
H210 C233 0.931 . S
H211 C234 0.931 . S
O212 Eu168 2.462 . S
O212 C232 1.252 . S
O213 Eu168 2.373 . S
O213 C224 1.249 . S
O214 Eu179 2.335 . S
O214 C224 1.264 . S
O215 Eu168 2.432 . S
O215 C232 1.268 . S
O216 Eu168 2.291 . S
O216 C231 1.255 . S
O217 Eu179 2.372 . S
O217 C231 1.257 . S
O218 Eu179 2.462 . S
O218 C243 1.252 . S
O219 Eu179 2.373 . S
O219 C235 1.249 . S
O220 Eu168 2.335 . S
O220 C235 1.264 . S
O221 Eu179 2.432 . S
O221 C243 1.268 . S
O222 Eu179 2.291 . S
O222 C242 1.255 . S
O223 Eu168 2.372 . S
O223 C242 1.257 . S
C224 O213 1.249 . S
C224 O214 1.264 . S
C225 C228 1.382 . S
C225 C230 1.390 . S
C225 C232 1.506 . S
C226 C227 1.398 . S
C226 C230 1.392 . S
C227 C226 1.398 . S
C227 C229 1.372 . S
C227 H244 0.931 . S
C228 C225 1.382 . S
C228 C229 1.390 . S
C228 H245 0.931 . S
C229 C227 1.372 . S
C229 C228 1.390 . S
C229 H246 0.929 . S
C230 C225 1.390 . S
C230 C226 1.392 . S
C230 H247 0.930 . S
C231 O216 1.255 . S
C231 O217 1.257 . S
C232 Eu168 2.787 . S
C232 O212 1.252 . S
C232 O215 1.268 . S
C232 C225 1.506 . S
C233 C200 1.439 . S
C233 H210 0.931 . S
C233 C234 1.374 . S
C234 C205 1.387 . S
C234 H211 0.931 . S
C234 C233 1.374 . S
C235 O219 1.249 . S
C235 O220 1.264 . S
C236 C239 1.382 . S
C236 C240 1.390 . S
C236 C243 1.506 . S
C237 C238 1.398 . S
C237 C240 1.392 . S
C238 C237 1.398 . S
C238 C241 1.372 . S
C238 H248 0.931 . S
C239 C236 1.382 . S
C239 C241 1.390 . S
C239 H249 0.931 . S
C240 C236 1.390 . S
C240 C237 1.392 . S
C240 H250 0.930 . S
C241 C238 1.372 . S
C241 C239 1.390 . S
C241 H251 0.929 . S
C242 O222 1.255 . S
C242 O223 1.257 . S
C243 Eu179 2.787 . S
C243 O218 1.252 . S
C243 O221 1.268 . S
C243 C236 1.506 . S
H244 C227 0.931 . S
H245 C228 0.931 . S
H246 C229 0.929 . S
H247 C230 0.930 . S
H248 C238 0.931 . S
H249 C239 0.931 . S
H250 C240 0.930 . S
H251 C241 0.929 . S
Eu252 N281 2.600 . S
Eu252 N287 2.562 . S
Eu252 O296 2.462 . S
Eu252 O297 2.373 . S
Eu252 O299 2.432 . S
Eu252 O300 2.291 . S
Eu252 O304 2.335 . S
Eu252 O307 2.372 . S
Eu252 C316 2.787 . S
C253 N254 1.365 . S
C253 C256 1.405 . S
C253 C260 1.448 . S
N254 C253 1.365 . S
N254 C257 1.319 . S
N254 Eu263 2.600 . S
C255 C257 1.397 . S
C255 C258 1.367 . S
C255 H275 0.931 . S
C256 C253 1.405 . S
C256 C258 1.403 . S
C256 C262 1.439 . S
C257 N254 1.319 . S
C257 C255 1.397 . S
C257 H268 0.930 . S
C258 C255 1.367 . S
C258 C256 1.403 . S
C258 H279 0.929 . S
C259 C260 1.430 . S
C259 C261 1.387 . S
C259 C265 1.404 . S
C260 C253 1.448 . S
C260 C259 1.430 . S
C260 N264 1.351 . S
C261 C259 1.387 . S
C261 C262 1.374 . S
C261 H276 0.931 . S
C262 C256 1.439 . S
C262 C261 1.374 . S
C262 H277 0.931 . S
Eu263 N254 2.600 . S
Eu263 N264 2.562 . S
Eu263 O298 2.335 . S
Eu263 O301 2.372 . S
Eu263 O302 2.462 . S
Eu263 O303 2.373 . S
Eu263 O305 2.432 . S
Eu263 O306 2.291 . S
Eu263 C327 2.787 . S
N264 C260 1.351 . S
N264 Eu263 2.562 . S
N264 C266 1.325 . S
C265 C259 1.404 . S
C265 C267 1.366 . S
C265 H273 0.930 . S
C266 N264 1.325 . S
C266 C267 1.416 . S
C266 H272 0.929 . S
C267 C265 1.366 . S
C267 C266 1.416 . S
C267 H269 0.930 . S
H268 C257 0.930 . S
H269 C267 0.930 . S
H270 C285 0.930 . S
H271 C292 0.930 . S
H272 C266 0.929 . S
H273 C265 0.930 . S
H274 C288 0.929 . S
H275 C255 0.931 . S
H276 C261 0.931 . S
H277 C262 0.931 . S
H278 C283 0.931 . S
H279 C258 0.929 . S
H280 C291 0.930 . S
N281 Eu252 2.600 . S
N281 C282 1.365 . S
N281 C285 1.319 . S
C282 N281 1.365 . S
C282 C284 1.405 . S
C282 C290 1.448 . S
C283 H278 0.931 . S
C283 C285 1.397 . S
C283 C286 1.367 . S
C284 C282 1.405 . S
C284 C286 1.403 . S
C284 C317 1.439 . S
C285 H270 0.930 . S
C285 N281 1.319 . S
C285 C283 1.397 . S
C286 C283 1.367 . S
C286 C284 1.403 . S
C286 H293 0.929 . S
N287 Eu252 2.562 . S
N287 C288 1.325 . S
N287 C290 1.351 . S
C288 H274 0.929 . S
C288 N287 1.325 . S
C288 C292 1.416 . S
C289 C290 1.430 . S
C289 C291 1.404 . S
C289 C318 1.387 . S
C290 C282 1.448 . S
C290 N287 1.351 . S
C290 C289 1.430 . S
C291 H280 0.930 . S
C291 C289 1.404 . S
C291 C292 1.366 . S
C292 H271 0.930 . S
C292 C288 1.416 . S
C292 C291 1.366 . S
H293 C286 0.929 . S
H294 C317 0.931 . S
H295 C318 0.931 . S
O296 Eu252 2.462 . S
O296 C316 1.252 . S
O297 Eu252 2.373 . S
O297 C308 1.249 . S
O298 Eu263 2.335 . S
O298 C308 1.264 . S
O299 Eu252 2.432 . S
O299 C316 1.268 . S
O300 Eu252 2.291 . S
O300 C315 1.255 . S
O301 Eu263 2.372 . S
O301 C315 1.257 . S
O302 Eu263 2.462 . S
O302 C327 1.252 . S
O303 Eu263 2.373 . S
O303 C319 1.249 . S
O304 Eu252 2.335 . S
O304 C319 1.264 . S
O305 Eu263 2.432 . S
O305 C327 1.268 . S
O306 Eu263 2.291 . S
O306 C326 1.255 . S
O307 Eu252 2.372 . S
O307 C326 1.257 . S
C308 O297 1.249 . S
C308 O298 1.264 . S
C309 C312 1.382 . S
C309 C314 1.390 . S
C309 C316 1.506 . S
C310 C311 1.398 . S
C310 C314 1.392 . S
C311 C310 1.398 . S
C311 C313 1.372 . S
C311 H328 0.931 . S
C312 C309 1.382 . S
C312 C313 1.390 . S
C312 H329 0.931 . S
C313 C311 1.372 . S
C313 C312 1.390 . S
C313 H330 0.929 . S
C314 C309 1.390 . S
C314 C310 1.392 . S
C314 H331 0.930 . S
C315 O300 1.255 . S
C315 O301 1.257 . S
C316 Eu252 2.787 . S
C316 O296 1.252 . S
C316 O299 1.268 . S
C316 C309 1.506 . S
C317 C284 1.439 . S
C317 H294 0.931 . S
C317 C318 1.374 . S
C318 C289 1.387 . S
C318 H295 0.931 . S
C318 C317 1.374 . S
C319 O303 1.249 . S
C319 O304 1.264 . S
C320 C323 1.382 . S
C320 C324 1.390 . S
C320 C327 1.506 . S
C321 C322 1.398 . S
C321 C324 1.392 . S
C322 C321 1.398 . S
C322 C325 1.372 . S
C322 H332 0.931 . S
C323 C320 1.382 . S
C323 C325 1.390 . S
C323 H333 0.931 . S
C324 C320 1.390 . S
C324 C321 1.392 . S
C324 H334 0.930 . S
C325 C322 1.372 . S
C325 C323 1.390 . S
C325 H335 0.929 . S
C326 O306 1.255 . S
C326 O307 1.257 . S
C327 Eu263 2.787 . S
C327 O302 1.252 . S
C327 O305 1.268 . S
C327 C320 1.506 . S
H328 C311 0.931 . S
H329 C312 0.931 . S
H330 C313 0.929 . S
H331 C314 0.930 . S
H332 C322 0.931 . S
H333 C323 0.931 . S
H334 C324 0.930 . S
H335 C325 0.929 . S
Eu336 N365 2.600 . S
Eu336 N371 2.562 . S
Eu336 O380 2.462 . S
Eu336 O381 2.373 . S
Eu336 O383 2.432 . S
Eu336 O384 2.291 . S
Eu336 O388 2.335 . S
Eu336 O391 2.372 . S
Eu336 C400 2.787 . S
C337 N338 1.365 . S
C337 C340 1.405 . S
C337 C344 1.448 . S
N338 C337 1.365 . S
N338 C341 1.319 . S
N338 Eu347 2.600 . S
C339 C341 1.397 . S
C339 C342 1.367 . S
C339 H359 0.931 . S
C340 C337 1.405 . S
C340 C342 1.403 . S
C340 C346 1.439 . S
C341 N338 1.319 . S
C341 C339 1.397 . S
C341 H352 0.930 . S
C342 C339 1.367 . S
C342 C340 1.403 . S
C342 H363 0.929 . S
C343 C344 1.430 . S
C343 C345 1.387 . S
C343 C349 1.404 . S
C344 C337 1.448 . S
C344 C343 1.430 . S
C344 N348 1.351 . S
C345 C343 1.387 . S
C345 C346 1.374 . S
C345 H360 0.931 . S
C346 C340 1.439 . S
C346 C345 1.374 . S
C346 H361 0.931 . S
Eu347 N338 2.600 . S
Eu347 N348 2.562 . S
Eu347 O382 2.335 . S
Eu347 O385 2.372 . S
Eu347 O386 2.462 . S
Eu347 O387 2.373 . S
Eu347 O389 2.432 . S
Eu347 O390 2.291 . S
Eu347 C411 2.787 . S
N348 C344 1.351 . S
N348 Eu347 2.562 . S
N348 C350 1.325 . S
C349 C343 1.404 . S
C349 C351 1.366 . S
C349 H357 0.930 . S
C350 N348 1.325 . S
C350 C351 1.416 . S
C350 H356 0.929 . S
C351 C349 1.366 . S
C351 C350 1.416 . S
C351 H353 0.930 . S
H352 C341 0.930 . S
H353 C351 0.930 . S
H354 C369 0.930 . S
H355 C376 0.930 . S
H356 C350 0.929 . S
H357 C349 0.930 . S
H358 C372 0.929 . S
H359 C339 0.931 . S
H360 C345 0.931 . S
H361 C346 0.931 . S
H362 C367 0.931 . S
H363 C342 0.929 . S
H364 C375 0.930 . S
N365 Eu336 2.600 . S
N365 C366 1.365 . S
N365 C369 1.319 . S
C366 N365 1.365 . S
C366 C368 1.405 . S
C366 C374 1.448 . S
C367 H362 0.931 . S
C367 C369 1.397 . S
C367 C370 1.367 . S
C368 C366 1.405 . S
C368 C370 1.403 . S
C368 C401 1.439 . S
C369 H354 0.930 . S
C369 N365 1.319 . S
C369 C367 1.397 . S
C370 C367 1.367 . S
C370 C368 1.403 . S
C370 H377 0.929 . S
N371 Eu336 2.562 . S
N371 C372 1.325 . S
N371 C374 1.351 . S
C372 H358 0.929 . S
C372 N371 1.325 . S
C372 C376 1.416 . S
C373 C374 1.430 . S
C373 C375 1.404 . S
C373 C402 1.387 . S
C374 C366 1.448 . S
C374 N371 1.351 . S
C374 C373 1.430 . S
C375 H364 0.930 . S
C375 C373 1.404 . S
C375 C376 1.366 . S
C376 H355 0.930 . S
C376 C372 1.416 . S
C376 C375 1.366 . S
H377 C370 0.929 . S
H378 C401 0.931 . S
H379 C402 0.931 . S
O380 Eu336 2.462 . S
O380 C400 1.252 . S
O381 Eu336 2.373 . S
O381 C392 1.249 . S
O382 Eu347 2.335 . S
O382 C392 1.264 . S
O383 Eu336 2.432 . S
O383 C400 1.268 . S
O384 Eu336 2.291 . S
O384 C399 1.255 . S
O385 Eu347 2.372 . S
O385 C399 1.257 . S
O386 Eu347 2.462 . S
O386 C411 1.252 . S
O387 Eu347 2.373 . S
O387 C403 1.249 . S
O388 Eu336 2.335 . S
O388 C403 1.264 . S
O389 Eu347 2.432 . S
O389 C411 1.268 . S
O390 Eu347 2.291 . S
O390 C410 1.255 . S
O391 Eu336 2.372 . S
O391 C410 1.257 . S
C392 O381 1.249 . S
C392 O382 1.264 . S
C393 C396 1.382 . S
C393 C398 1.390 . S
C393 C400 1.506 . S
C394 C395 1.398 . S
C394 C398 1.392 . S
C395 C394 1.398 . S
C395 C397 1.372 . S
C395 H412 0.931 . S
C396 C393 1.382 . S
C396 C397 1.390 . S
C396 H413 0.931 . S
C397 C395 1.372 . S
C397 C396 1.390 . S
C397 H414 0.929 . S
C398 C393 1.390 . S
C398 C394 1.392 . S
C398 H415 0.930 . S
C399 O384 1.255 . S
C399 O385 1.257 . S
C400 Eu336 2.787 . S
C400 O380 1.252 . S
C400 O383 1.268 . S
C400 C393 1.506 . S
C401 C368 1.439 . S
C401 H378 0.931 . S
C401 C402 1.374 . S
C402 C373 1.387 . S
C402 H379 0.931 . S
C402 C401 1.374 . S
C403 O387 1.249 . S
C403 O388 1.264 . S
C404 C407 1.382 . S
C404 C408 1.390 . S
C404 C411 1.506 . S
C405 C406 1.398 . S
C405 C408 1.392 . S
C406 C405 1.398 . S
C406 C409 1.372 . S
C406 H416 0.931 . S
C407 C404 1.382 . S
C407 C409 1.390 . S
C407 H417 0.931 . S
C408 C404 1.390 . S
C408 C405 1.392 . S
C408 H418 0.930 . S
C409 C406 1.372 . S
C409 C407 1.390 . S
C409 H419 0.929 . S
C410 O390 1.255 . S
C410 O391 1.257 . S
C411 Eu347 2.787 . S
C411 O386 1.252 . S
C411 O389 1.268 . S
C411 C404 1.506 . S
H412 C395 0.931 . S
H413 C396 0.931 . S
H414 C397 0.929 . S
H415 C398 0.930 . S
H416 C406 0.931 . S
H417 C407 0.931 . S
H418 C408 0.930 . S
H419 C409 0.929 . S
Eu420 N449 2.600 . S
Eu420 N455 2.562 . S
Eu420 O464 2.462 . S
Eu420 O465 2.373 . S
Eu420 O467 2.432 . S
Eu420 O468 2.291 . S
Eu420 O472 2.335 . S
Eu420 O475 2.372 . S
Eu420 C484 2.787 . S
C421 N422 1.365 . S
C421 C424 1.405 . S
C421 C428 1.448 . S
N422 C421 1.365 . S
N422 C425 1.319 . S
N422 Eu431 2.600 . S
C423 C425 1.397 . S
C423 C426 1.367 . S
C423 H443 0.931 . S
C424 C421 1.405 . S
C424 C426 1.403 . S
C424 C430 1.439 . S
C425 N422 1.319 . S
C425 C423 1.397 . S
C425 H436 0.930 . S
C426 C423 1.367 . S
C426 C424 1.403 . S
C426 H447 0.929 . S
C427 C428 1.430 . S
C427 C429 1.387 . S
C427 C433 1.404 . S
C428 C421 1.448 . S
C428 C427 1.430 . S
C428 N432 1.351 . S
C429 C427 1.387 . S
C429 C430 1.374 . S
C429 H444 0.931 . S
C430 C424 1.439 . S
C430 C429 1.374 . S
C430 H445 0.931 . S
Eu431 N422 2.600 . S
Eu431 N432 2.562 . S
Eu431 O466 2.335 . S
Eu431 O469 2.372 . S
Eu431 O470 2.462 . S
Eu431 O471 2.373 . S
Eu431 O473 2.432 . S
Eu431 O474 2.291 . S
Eu431 C495 2.787 . S
N432 C428 1.351 . S
N432 Eu431 2.562 . S
N432 C434 1.325 . S
C433 C427 1.404 . S
C433 C435 1.366 . S
C433 H441 0.930 . S
C434 N432 1.325 . S
C434 C435 1.416 . S
C434 H440 0.929 . S
C435 C433 1.366 . S
C435 C434 1.416 . S
C435 H437 0.930 . S
H436 C425 0.930 . S
H437 C435 0.930 . S
H438 C453 0.930 . S
H439 C460 0.930 . S
H440 C434 0.929 . S
H441 C433 0.930 . S
H442 C456 0.929 . S
H443 C423 0.931 . S
H444 C429 0.931 . S
H445 C430 0.931 . S
H446 C451 0.931 . S
H447 C426 0.929 . S
H448 C459 0.930 . S
N449 Eu420 2.600 . S
N449 C450 1.365 . S
N449 C453 1.319 . S
C450 N449 1.365 . S
C450 C452 1.405 . S
C450 C458 1.448 . S
C451 H446 0.931 . S
C451 C453 1.397 . S
C451 C454 1.367 . S
C452 C450 1.405 . S
C452 C454 1.403 . S
C452 C485 1.439 . S
C453 H438 0.930 . S
C453 N449 1.319 . S
C453 C451 1.397 . S
C454 C451 1.367 . S
C454 C452 1.403 . S
C454 H461 0.929 . S
N455 Eu420 2.562 . S
N455 C456 1.325 . S
N455 C458 1.351 . S
C456 H442 0.929 . S
C456 N455 1.325 . S
C456 C460 1.416 . S
C457 C458 1.430 . S
C457 C459 1.404 . S
C457 C486 1.387 . S
C458 C450 1.448 . S
C458 N455 1.351 . S
C458 C457 1.430 . S
C459 H448 0.930 . S
C459 C457 1.404 . S
C459 C460 1.366 . S
C460 H439 0.930 . S
C460 C456 1.416 . S
C460 C459 1.366 . S
H461 C454 0.929 . S
H462 C485 0.931 . S
H463 C486 0.931 . S
O464 Eu420 2.462 . S
O464 C484 1.252 . S
O465 Eu420 2.373 . S
O465 C476 1.249 . S
O466 Eu431 2.335 . S
O466 C476 1.264 . S
O467 Eu420 2.432 . S
O467 C484 1.268 . S
O468 Eu420 2.291 . S
O468 C483 1.255 . S
O469 Eu431 2.372 . S
O469 C483 1.257 . S
O470 Eu431 2.462 . S
O470 C495 1.252 . S
O471 Eu431 2.373 . S
O471 C487 1.249 . S
O472 Eu420 2.335 . S
O472 C487 1.264 . S
O473 Eu431 2.432 . S
O473 C495 1.268 . S
O474 Eu431 2.291 . S
O474 C494 1.255 . S
O475 Eu420 2.372 . S
O475 C494 1.257 . S
C476 O465 1.249 . S
C476 O466 1.264 . S
C477 C480 1.382 . S
C477 C482 1.390 . S
C477 C484 1.506 . S
C478 C479 1.398 . S
C478 C482 1.392 . S
C479 C478 1.398 . S
C479 C481 1.372 . S
C479 H496 0.931 . S
C480 C477 1.382 . S
C480 C481 1.390 . S
C480 H497 0.931 . S
C481 C479 1.372 . S
C481 C480 1.390 . S
C481 H498 0.929 . S
C482 C477 1.390 . S
C482 C478 1.392 . S
C482 H499 0.930 . S
C483 O468 1.255 . S
C483 O469 1.257 . S
C484 Eu420 2.787 . S
C484 O464 1.252 . S
C484 O467 1.268 . S
C484 C477 1.506 . S
C485 C452 1.439 . S
C485 H462 0.931 . S
C485 C486 1.374 . S
C486 C457 1.387 . S
C486 H463 0.931 . S
C486 C485 1.374 . S
C487 O471 1.249 . S
C487 O472 1.264 . S
C488 C491 1.382 . S
C488 C492 1.390 . S
C488 C495 1.506 . S
C489 C490 1.398 . S
C489 C492 1.392 . S
C490 C489 1.398 . S
C490 C493 1.372 . S
C490 H500 0.931 . S
C491 C488 1.382 . S
C491 C493 1.390 . S
C491 H501 0.931 . S
C492 C488 1.390 . S
C492 C489 1.392 . S
C492 H502 0.930 . S
C493 C490 1.372 . S
C493 C491 1.390 . S
C493 H503 0.929 . S
C494 O474 1.255 . S
C494 O475 1.257 . S
C495 Eu431 2.787 . S
C495 O470 1.252 . S
C495 O473 1.268 . S
C495 C488 1.506 . S
H496 C479 0.931 . S
H497 C480 0.931 . S
H498 C481 0.929 . S
H499 C482 0.930 . S
H500 C490 0.931 . S
H501 C491 0.931 . S
H502 C492 0.930 . S
H503 C493 0.929 . S
Eu504 N533 2.600 . S
Eu504 N539 2.562 . S
Eu504 O548 2.462 . S
Eu504 O549 2.373 . S
Eu504 O551 2.432 . S
Eu504 O552 2.291 . S
Eu504 O556 2.335 . S
Eu504 O559 2.372 . S
Eu504 C568 2.787 . S
C505 N506 1.365 . S
C505 C508 1.405 . S
C505 C512 1.448 . S
N506 C505 1.365 . S
N506 C509 1.319 . S
N506 Eu515 2.600 . S
C507 C509 1.397 . S
C507 C510 1.367 . S
C507 H527 0.931 . S
C508 C505 1.405 . S
C508 C510 1.403 . S
C508 C514 1.439 . S
C509 N506 1.319 . S
C509 C507 1.397 . S
C509 H520 0.930 . S
C510 C507 1.367 . S
C510 C508 1.403 . S
C510 H531 0.929 . S
C511 C512 1.430 . S
C511 C513 1.387 . S
C511 C517 1.404 . S
C512 C505 1.448 . S
C512 C511 1.430 . S
C512 N516 1.351 . S
C513 C511 1.387 . S
C513 C514 1.374 . S
C513 H528 0.931 . S
C514 C508 1.439 . S
C514 C513 1.374 . S
C514 H529 0.931 . S
Eu515 N506 2.600 . S
Eu515 N516 2.562 . S
Eu515 O550 2.335 . S
Eu515 O553 2.372 . S
Eu515 O554 2.462 . S
Eu515 O555 2.373 . S
Eu515 O557 2.432 . S
Eu515 O558 2.291 . S
Eu515 C579 2.787 . S
N516 C512 1.351 . S
N516 Eu515 2.562 . S
N516 C518 1.325 . S
C517 C511 1.404 . S
C517 C519 1.366 . S
C517 H525 0.930 . S
C518 N516 1.325 . S
C518 C519 1.416 . S
C518 H524 0.929 . S
C519 C517 1.366 . S
C519 C518 1.416 . S
C519 H521 0.930 . S
H520 C509 0.930 . S
H521 C519 0.930 . S
H522 C537 0.930 . S
H523 C544 0.930 . S
H524 C518 0.929 . S
H525 C517 0.930 . S
H526 C540 0.929 . S
H527 C507 0.931 . S
H528 C513 0.931 . S
H529 C514 0.931 . S
H530 C535 0.931 . S
H531 C510 0.929 . S
H532 C543 0.930 . S
N533 Eu504 2.600 . S
N533 C534 1.365 . S
N533 C537 1.319 . S
C534 N533 1.365 . S
C534 C536 1.405 . S
C534 C542 1.448 . S
C535 H530 0.931 . S
C535 C537 1.397 . S
C535 C538 1.367 . S
C536 C534 1.405 . S
C536 C538 1.403 . S
C536 C569 1.439 . S
C537 H522 0.930 . S
C537 N533 1.319 . S
C537 C535 1.397 . S
C538 C535 1.367 . S
C538 C536 1.403 . S
C538 H545 0.929 . S
N539 Eu504 2.562 . S
N539 C540 1.325 . S
N539 C542 1.351 . S
C540 H526 0.929 . S
C540 N539 1.325 . S
C540 C544 1.416 . S
C541 C542 1.430 . S
C541 C543 1.404 . S
C541 C570 1.387 . S
C542 C534 1.448 . S
C542 N539 1.351 . S
C542 C541 1.430 . S
C543 H532 0.930 . S
C543 C541 1.404 . S
C543 C544 1.366 . S
C544 H523 0.930 . S
C544 C540 1.416 . S
C544 C543 1.366 . S
H545 C538 0.929 . S
H546 C569 0.931 . S
H547 C570 0.931 . S
O548 Eu504 2.462 . S
O548 C568 1.252 . S
O549 Eu504 2.373 . S
O549 C560 1.249 . S
O550 Eu515 2.335 . S
O550 C560 1.264 . S
O551 Eu504 2.432 . S
O551 C568 1.268 . S
O552 Eu504 2.291 . S
O552 C567 1.255 . S
O553 Eu515 2.372 . S
O553 C567 1.257 . S
O554 Eu515 2.462 . S
O554 C579 1.252 . S
O555 Eu515 2.373 . S
O555 C571 1.249 . S
O556 Eu504 2.335 . S
O556 C571 1.264 . S
O557 Eu515 2.432 . S
O557 C579 1.268 . S
O558 Eu515 2.291 . S
O558 C578 1.255 . S
O559 Eu504 2.372 . S
O559 C578 1.257 . S
C560 O549 1.249 . S
C560 O550 1.264 . S
C561 C564 1.382 . S
C561 C566 1.390 . S
C561 C568 1.506 . S
C562 C563 1.398 . S
C562 C566 1.392 . S
C563 C562 1.398 . S
C563 C565 1.372 . S
C563 H580 0.931 . S
C564 C561 1.382 . S
C564 C565 1.390 . S
C564 H581 0.931 . S
C565 C563 1.372 . S
C565 C564 1.390 . S
C565 H582 0.929 . S
C566 C561 1.390 . S
C566 C562 1.392 . S
C566 H583 0.930 . S
C567 O552 1.255 . S
C567 O553 1.257 . S
C568 Eu504 2.787 . S
C568 O548 1.252 . S
C568 O551 1.268 . S
C568 C561 1.506 . S
C569 C536 1.439 . S
C569 H546 0.931 . S
C569 C570 1.374 . S
C570 C541 1.387 . S
C570 H547 0.931 . S
C570 C569 1.374 . S
C571 O555 1.249 . S
C571 O556 1.264 . S
C572 C575 1.382 . S
C572 C576 1.390 . S
C572 C579 1.506 . S
C573 C574 1.398 . S
C573 C576 1.392 . S
C574 C573 1.398 . S
C574 C577 1.372 . S
C574 H584 0.931 . S
C575 C572 1.382 . S
C575 C577 1.390 . S
C575 H585 0.931 . S
C576 C572 1.390 . S
C576 C573 1.392 . S
C576 H586 0.930 . S
C577 C574 1.372 . S
C577 C575 1.390 . S
C577 H587 0.929 . S
C578 O558 1.255 . S
C578 O559 1.257 . S
C579 Eu515 2.787 . S
C579 O554 1.252 . S
C579 O557 1.268 . S
C579 C572 1.506 . S
H580 C563 0.931 . S
H581 C564 0.931 . S
H582 C565 0.929 . S
H583 C566 0.930 . S
H584 C574 0.931 . S
H585 C575 0.931 . S
H586 C576 0.930 . S
H587 C577 0.929 . S
Eu588 N617 2.600 . S
Eu588 N623 2.562 . S
Eu588 O632 2.462 . S
Eu588 O633 2.373 . S
Eu588 O635 2.432 . S
Eu588 O636 2.291 . S
Eu588 O640 2.335 . S
Eu588 O643 2.372 . S
Eu588 C652 2.787 . S
C589 N590 1.365 . S
C589 C592 1.405 . S
C589 C596 1.448 . S
N590 C589 1.365 . S
N590 C593 1.319 . S
N590 Eu599 2.600 . S
C591 C593 1.397 . S
C591 C594 1.367 . S
C591 H611 0.931 . S
C592 C589 1.405 . S
C592 C594 1.403 . S
C592 C598 1.439 . S
C593 N590 1.319 . S
C593 C591 1.397 . S
C593 H604 0.930 . S
C594 C591 1.367 . S
C594 C592 1.403 . S
C594 H615 0.929 . S
C595 C596 1.430 . S
C595 C597 1.387 . S
C595 C601 1.404 . S
C596 C589 1.448 . S
C596 C595 1.430 . S
C596 N600 1.351 . S
C597 C595 1.387 . S
C597 C598 1.374 . S
C597 H612 0.931 . S
C598 C592 1.439 . S
C598 C597 1.374 . S
C598 H613 0.931 . S
Eu599 N590 2.600 . S
Eu599 N600 2.562 . S
Eu599 O634 2.335 . S
Eu599 O637 2.372 . S
Eu599 O638 2.462 . S
Eu599 O639 2.373 . S
Eu599 O641 2.432 . S
Eu599 O642 2.291 . S
Eu599 C663 2.787 . S
N600 C596 1.351 . S
N600 Eu599 2.562 . S
N600 C602 1.325 . S
C601 C595 1.404 . S
C601 C603 1.366 . S
C601 H609 0.930 . S
C602 N600 1.325 . S
C602 C603 1.416 . S
C602 H608 0.929 . S
C603 C601 1.366 . S
C603 C602 1.416 . S
C603 H605 0.930 . S
H604 C593 0.930 . S
H605 C603 0.930 . S
H606 C621 0.930 . S
H607 C628 0.930 . S
H608 C602 0.929 . S
H609 C601 0.930 . S
H610 C624 0.929 . S
H611 C591 0.931 . S
H612 C597 0.931 . S
H613 C598 0.931 . S
H614 C619 0.931 . S
H615 C594 0.929 . S
H616 C627 0.930 . S
N617 Eu588 2.600 . S
N617 C618 1.365 . S
N617 C621 1.319 . S
C618 N617 1.365 . S
C618 C620 1.405 . S
C618 C626 1.448 . S
C619 H614 0.931 . S
C619 C621 1.397 . S
C619 C622 1.367 . S
C620 C618 1.405 . S
C620 C622 1.403 . S
C620 C653 1.439 . S
C621 H606 0.930 . S
C621 N617 1.319 . S
C621 C619 1.397 . S
C622 C619 1.367 . S
C622 C620 1.403 . S
C622 H629 0.929 . S
N623 Eu588 2.562 . S
N623 C624 1.325 . S
N623 C626 1.351 . S
C624 H610 0.929 . S
C624 N623 1.325 . S
C624 C628 1.416 . S
C625 C626 1.430 . S
C625 C627 1.404 . S
C625 C654 1.387 . S
C626 C618 1.448 . S
C626 N623 1.351 . S
C626 C625 1.430 . S
C627 H616 0.930 . S
C627 C625 1.404 . S
C627 C628 1.366 . S
C628 H607 0.930 . S
C628 C624 1.416 . S
C628 C627 1.366 . S
H629 C622 0.929 . S
H630 C653 0.931 . S
H631 C654 0.931 . S
O632 Eu588 2.462 . S
O632 C652 1.252 . S
O633 Eu588 2.373 . S
O633 C644 1.249 . S
O634 Eu599 2.335 . S
O634 C644 1.264 . S
O635 Eu588 2.432 . S
O635 C652 1.268 . S
O636 Eu588 2.291 . S
O636 C651 1.255 . S
O637 Eu599 2.372 . S
O637 C651 1.257 . S
O638 Eu599 2.462 . S
O638 C663 1.252 . S
O639 Eu599 2.373 . S
O639 C655 1.249 . S
O640 Eu588 2.335 . S
O640 C655 1.264 . S
O641 Eu599 2.432 . S
O641 C663 1.268 . S
O642 Eu599 2.291 . S
O642 C662 1.255 . S
O643 Eu588 2.372 . S
O643 C662 1.257 . S
C644 O633 1.249 . S
C644 O634 1.264 . S
C645 C648 1.382 . S
C645 C650 1.390 . S
C645 C652 1.506 . S
C646 C647 1.398 . S
C646 C650 1.392 . S
C647 C646 1.398 . S
C647 C649 1.372 . S
C647 H664 0.931 . S
C648 C645 1.382 . S
C648 C649 1.390 . S
C648 H665 0.931 . S
C649 C647 1.372 . S
C649 C648 1.390 . S
C649 H666 0.929 . S
C650 C645 1.390 . S
C650 C646 1.392 . S
C650 H667 0.930 . S
C651 O636 1.255 . S
C651 O637 1.257 . S
C652 Eu588 2.787 . S
C652 O632 1.252 . S
C652 O635 1.268 . S
C652 C645 1.506 . S
C653 C620 1.439 . S
C653 H630 0.931 . S
C653 C654 1.374 . S
C654 C625 1.387 . S
C654 H631 0.931 . S
C654 C653 1.374 . S
C655 O639 1.249 . S
C655 O640 1.264 . S
C656 C659 1.382 . S
C656 C660 1.390 . S
C656 C663 1.506 . S
C657 C658 1.398 . S
C657 C660 1.392 . S
C658 C657 1.398 . S
C658 C661 1.372 . S
C658 H668 0.931 . S
C659 C656 1.382 . S
C659 C661 1.390 . S
C659 H669 0.931 . S
C660 C656 1.390 . S
C660 C657 1.392 . S
C660 H670 0.930 . S
C661 C658 1.372 . S
C661 C659 1.390 . S
C661 H671 0.929 . S
C662 O642 1.255 . S
C662 O643 1.257 . S
C663 Eu599 2.787 . S
C663 O638 1.252 . S
C663 O641 1.268 . S
C663 C656 1.506 . S
H664 C647 0.931 . S
H665 C648 0.931 . S
H666 C649 0.929 . S
H667 C650 0.930 . S
H668 C658 0.931 . S
H669 C659 0.931 . S
H670 C660 0.930 . S
H671 C661 0.929 . S
Cd672 N675 2.334 1_655 S
Cd672 N701 2.304 1_565 S
Cd672 O708 2.268 . S
Cd672 O711 2.273 1_665 S
Cd672 O712 2.417 . S
Cd672 O713 2.330 . S
Cd673 N688 2.304 1_455 S
Cd673 N692 2.334 1_545 S
Cd673 O709 2.273 1_445 S
Cd673 O710 2.268 . S
Cd673 O714 2.417 . S
Cd673 O715 2.330 . S
C674 N675 1.332 . S
C674 C678 1.381 . S
C674 H680 0.931 . S
N675 Cd672 2.334 1_455 S
N675 C674 1.332 . S
N675 C679 1.328 . S
C676 C677 1.396 . S
C676 C679 1.378 . S
C676 H718 0.931 . S
C677 C676 1.396 . S
C677 C678 1.382 . S
C678 C674 1.381 . S
C678 C677 1.382 . S
C678 H719 0.930 . S
C679 N675 1.328 . S
C679 C676 1.378 . S
C679 H681 0.930 1_455 S
H680 C674 0.931 . S
H681 C679 0.930 1_655 S
C682 O708 1.238 . S
C682 O709 1.253 . S
C683 C684 1.379 . S
C683 N688 1.337 . S
C683 H689 0.929 . S
C684 C683 1.379 . S
C684 C685 1.380 . S
C684 H720 0.929 . S
C685 C684 1.380 . S
C685 C686 1.399 . S
C686 C685 1.399 . S
C686 C687 1.384 . S
C686 H721 0.931 . S
C687 C686 1.384 . S
C687 N688 1.336 . S
C687 H690 0.923 1_655 S
N688 Cd673 2.304 1_655 S
N688 C683 1.337 . S
N688 C687 1.336 . S
H689 C683 0.929 . S
H690 C687 0.923 1_455 S
C691 N692 1.332 . S
C691 C695 1.381 . S
C691 H697 0.931 . S
N692 Cd673 2.334 1_565 S
N692 C691 1.332 . S
N692 C696 1.328 . S
C693 C694 1.396 . S
C693 C696 1.378 . S
C693 H722 0.931 . S
C694 C693 1.396 . S
C694 C695 1.382 . S
C695 C691 1.381 . S
C695 C694 1.382 . S
C695 H723 0.930 . S
C696 N692 1.328 . S
C696 C693 1.378 . S
C696 H698 0.930 1_565 S
H697 C691 0.931 . S
H698 C696 0.930 1_545 S
C699 O710 1.238 . S
C699 O711 1.253 . S
C700 O712 1.239 . S
C700 O713 1.230 . S
N701 Cd672 2.304 1_545 S
N701 C702 1.337 . S
N701 C706 1.338 . S
C702 N701 1.337 . S
C702 C703 1.379 . S
C702 H716 0.929 . S
C703 C702 1.379 . S
C703 C704 1.380 . S
C703 H724 0.929 . S
C704 C703 1.380 . S
C704 C705 1.399 . S
C705 C704 1.399 . S
C705 C706 1.376 . S
C705 H725 0.931 . S
C706 N701 1.338 . S
C706 C705 1.376 . S
C706 H717 0.930 1_545 S
C707 O714 1.239 . S
C707 O715 1.230 . S
O708 Cd672 2.268 . S
O708 C682 1.238 . S
O709 Cd673 2.273 1_665 S
O709 C682 1.253 . S
O710 Cd673 2.268 . S
O710 C699 1.238 . S
O711 Cd672 2.273 1_445 S
O711 C699 1.253 . S
O712 Cd672 2.417 . S
O712 C700 1.239 . S
O713 Cd672 2.330 . S
O713 C700 1.230 . S
O714 Cd673 2.417 . S
O714 C707 1.239 . S
O715 Cd673 2.330 . S
O715 C707 1.230 . S
H716 C702 0.929 . S
H717 C706 0.930 1_565 S
H718 C676 0.931 . S
H719 C678 0.930 . S
H720 C684 0.929 . S
H721 C686 0.931 . S
H722 C693 0.931 . S
H723 C695 0.930 . S
H724 C703 0.929 . S
H725 C705 0.931 . S
Cd726 N729 2.334 . S
Cd726 N755 2.304 1_565 S
Cd726 O762 2.268 1_554 S
Cd726 O765 2.273 1_565 S
Cd726 O766 2.417 . S
Cd726 O767 2.330 . S
Cd727 N742 2.304 . S
Cd727 N746 2.334 1_545 S
Cd727 O763 2.273 1_545 S
Cd727 O764 2.268 1_556 S
Cd727 O768 2.417 . S
Cd727 O769 2.330 . S
C728 N729 1.332 . S
C728 C732 1.381 . S
C728 H734 0.931 . S
N729 Cd726 2.334 . S
N729 C728 1.332 . S
N729 C733 1.328 . S
C730 C731 1.396 . S
C730 C733 1.378 . S
C730 H772 0.931 1_554 S
C731 C730 1.396 . S
C731 C732 1.382 . S
C732 C728 1.381 . S
C732 C731 1.382 . S
C732 H773 0.930 . S
C733 N729 1.328 . S
C733 C730 1.378 . S
C733 H735 0.930 1_554 S
H734 C728 0.931 . S
H735 C733 0.930 1_556 S
C736 O762 1.238 . S
C736 O763 1.253 . S
C737 C738 1.379 . S
C737 N742 1.337 . S
C737 H743 0.929 . S
C738 C737 1.379 . S
C738 C739 1.380 . S
C738 H774 0.929 . S
C739 C738 1.380 . S
C739 C740 1.399 . S
C740 C739 1.399 . S
C740 C741 1.376 . S
C740 H775 0.931 1_556 S
C741 C740 1.376 . S
C741 N742 1.338 . S
C741 H744 0.930 1_556 S
N742 Cd727 2.304 . S
N742 C737 1.337 . S
N742 C741 1.338 . S
H743 C737 0.929 . S
H744 C741 0.930 1_554 S
C745 N746 1.332 . S
C745 C749 1.381 . S
C745 H751 0.931 . S
N746 Cd727 2.334 1_565 S
N746 C745 1.332 . S
N746 C750 1.328 . S
C747 C748 1.396 . S
C747 C750 1.378 . S
C747 H776 0.931 . S
C748 C747 1.396 . S
C748 C749 1.382 . S
C749 C745 1.381 . S
C749 C748 1.382 . S
C749 H777 0.930 . S
C750 N746 1.328 . S
C750 C747 1.378 . S
C750 H752 0.930 1_566 S
H751 C745 0.931 . S
H752 C750 0.930 1_544 S
C753 O764 1.238 . S
C753 O765 1.253 . S
C754 O766 1.239 . S
C754 O767 1.230 . S
N755 Cd726 2.304 1_545 S
N755 C756 1.337 . S
N755 C760 1.338 . S
C756 N755 1.337 . S
C756 C757 1.379 . S
C756 H770 0.929 . S
C757 C756 1.379 . S
C757 C758 1.380 . S
C757 H778 0.929 . S
C758 C757 1.380 . S
C758 C759 1.399 . S
C759 C758 1.399 . S
C759 C760 1.376 . S
C759 H779 0.931 . S
C760 N755 1.338 . S
C760 C759 1.376 . S
C760 H771 0.930 1_544 S
C761 O768 1.239 . S
C761 O769 1.230 . S
O762 Cd726 2.268 1_556 S
O762 C736 1.238 . S
O763 Cd727 2.273 1_565 S
O763 C736 1.253 . S
O764 Cd727 2.268 1_554 S
O764 C753 1.238 . S
O765 Cd726 2.273 1_545 S
O765 C753 1.253 . S
O766 Cd726 2.417 . S
O766 C754 1.239 . S
O767 Cd726 2.330 . S
O767 C754 1.230 . S
O768 Cd727 2.417 . S
O768 C761 1.239 . S
O769 Cd727 2.330 . S
O769 C761 1.230 . S
H770 C756 0.929 . S
H771 C760 0.930 1_566 S
H772 C730 0.931 1_556 S
H773 C732 0.930 . S
H774 C738 0.929 . S
H775 C740 0.931 1_554 S
H776 C747 0.931 . S
H777 C749 0.930 . S
H778 C757 0.929 . S
H779 C759 0.931 . S
Cd780 N783 2.334 1_655 S
Cd780 N809 2.304 . S
Cd780 O816 2.268 1_554 S
Cd780 O819 2.273 1_655 S
Cd780 O820 2.417 . S
Cd780 O821 2.330 . S
Cd781 N796 2.304 1_455 S
Cd781 N800 2.334 . S
Cd781 O817 2.273 1_455 S
Cd781 O818 2.268 1_556 S
Cd781 O822 2.417 . S
Cd781 O823 2.330 . S
C782 N783 1.332 . S
C782 C786 1.381 . S
C782 H788 0.931 . S
N783 Cd780 2.334 1_455 S
N783 C782 1.332 . S
N783 C787 1.328 . S
C784 C785 1.396 . S
C784 C787 1.378 . S
C784 H826 0.931 1_554 S
C785 C784 1.396 . S
C785 C786 1.382 . S
C786 C782 1.381 . S
C786 C785 1.382 . S
C786 H827 0.930 . S
C787 N783 1.328 . S
C787 C784 1.378 . S
C787 H789 0.930 1_454 S
H788 C782 0.931 . S
H789 C787 0.930 1_656 S
C790 O816 1.238 . S
C790 O817 1.253 . S
C791 C792 1.379 . S
C791 N796 1.337 . S
C791 H797 0.929 . S
C792 C791 1.379 . S
C792 C793 1.380 . S
C792 H828 0.929 . S
C793 C792 1.380 . S
C793 C794 1.399 . S
C794 C793 1.399 . S
C794 C795 1.388 . S
C794 H829 0.931 1_556 S
C795 C794 1.388 . S
C795 N796 1.335 . S
C795 H798 0.920 1_656 S
N796 Cd781 2.304 1_655 S
N796 C791 1.337 . S
N796 C795 1.335 . S
H797 C791 0.929 . S
H798 C795 0.920 1_454 S
C799 N800 1.332 . S
C799 C803 1.381 . S
C799 H805 0.931 . S
N800 Cd781 2.334 . S
N800 C799 1.332 . S
N800 C804 1.328 . S
C801 C802 1.396 . S
C801 C804 1.378 . S
C801 H830 0.931 . S
C802 C801 1.396 . S
C802 C803 1.382 . S
C803 C799 1.381 . S
C803 C802 1.382 . S
C803 H831 0.930 . S
C804 N800 1.328 . S
C804 C801 1.378 . S
C804 H806 0.930 1_556 S
H805 C799 0.931 . S
H806 C804 0.930 1_554 S
C807 O818 1.238 . S
C807 O819 1.253 . S
C808 O820 1.239 . S
C808 O821 1.230 . S
N809 Cd780 2.304 . S
N809 C810 1.337 . S
N809 C814 1.338 . S
C810 N809 1.337 . S
C810 C811 1.379 . S
C810 H824 0.929 . S
C811 C810 1.379 . S
C811 C812 1.380 . S
C811 H832 0.929 . S
C812 C811 1.380 . S
C812 C813 1.399 . S
C813 C812 1.399 . S
C813 C814 1.376 . S
C813 H833 0.931 . S
C814 N809 1.338 . S
C814 C813 1.376 . S
C814 H825 0.930 1_554 S
C815 O822 1.239 . S
C815 O823 1.230 . S
O816 Cd780 2.268 1_556 S
O816 C790 1.238 . S
O817 Cd781 2.273 1_655 S
O817 C790 1.253 . S
O818 Cd781 2.268 1_554 S
O818 C807 1.238 . S
O819 Cd780 2.273 1_455 S
O819 C807 1.253 . S
O820 Cd780 2.417 . S
O820 C808 1.239 . S
O821 Cd780 2.330 . S
O821 C808 1.230 . S
O822 Cd781 2.417 . S
O822 C815 1.239 . S
O823 Cd781 2.330 . S
O823 C815 1.230 . S
H824 C810 0.929 . S
H825 C814 0.930 1_556 S
H826 C784 0.931 1_556 S
H827 C786 0.930 . S
H828 C792 0.929 . S
H829 C794 0.931 1_554 S
H830 C801 0.931 . S
H831 C803 0.930 . S
H832 C811 0.929 . S
H833 C813 0.931 . S
Cd834 N837 2.334 . S
Cd834 N863 2.304 . S
Cd834 O870 2.268 1_554 S
Cd834 O873 2.273 . S
Cd834 O874 2.417 . S
Cd834 O875 2.330 . S
Cd835 N850 2.304 . S
Cd835 N854 2.334 . S
Cd835 O871 2.273 . S
Cd835 O872 2.268 1_556 S
Cd835 O876 2.417 . S
Cd835 O877 2.330 . S
C836 N837 1.332 . S
C836 C840 1.381 . S
C836 H842 0.931 . S
N837 Cd834 2.334 . S
N837 C836 1.332 . S
N837 C841 1.328 . S
C838 C839 1.396 . S
C838 C841 1.378 . S
C838 H880 0.931 1_554 S
C839 C838 1.396 . S
C839 C840 1.382 . S
C840 C836 1.381 . S
C840 C839 1.382 . S
C840 H881 0.930 . S
C841 N837 1.328 . S
C841 C838 1.378 . S
C841 H843 0.930 1_554 S
H842 C836 0.931 . S
H843 C841 0.930 1_556 S
C844 O870 1.238 . S
C844 O871 1.253 . S
C845 C846 1.379 . S
C845 N850 1.337 . S
C845 H851 0.929 . S
C846 C845 1.379 . S
C846 C847 1.380 . S
C846 H882 0.929 . S
C847 C846 1.380 . S
C847 C848 1.399 . S
C848 C847 1.399 . S
C848 C849 1.376 . S
C848 H883 0.931 1_556 S
C849 C848 1.376 . S
C849 N850 1.338 . S
C849 H852 0.930 1_556 S
N850 Cd835 2.304 . S
N850 C845 1.337 . S
N850 C849 1.338 . S
H851 C845 0.929 . S
H852 C849 0.930 1_554 S
C853 N854 1.332 . S
C853 C857 1.381 . S
C853 H859 0.931 . S
N854 Cd835 2.334 . S
N854 C853 1.332 . S
N854 C858 1.328 . S
C855 C856 1.396 . S
C855 C858 1.378 . S
C855 H884 0.931 . S
C856 C855 1.396 . S
C856 C857 1.382 . S
C857 C853 1.381 . S
C857 C856 1.382 . S
C857 H885 0.930 . S
C858 N854 1.328 . S
C858 C855 1.378 . S
C858 H860 0.930 1_556 S
H859 C853 0.931 . S
H860 C858 0.930 1_554 S
C861 O872 1.238 . S
C861 O873 1.253 . S
C862 O874 1.239 . S
C862 O875 1.230 . S
N863 Cd834 2.304 . S
N863 C864 1.337 . S
N863 C868 1.338 . S
C864 N863 1.337 . S
C864 C865 1.379 . S
C864 H878 0.929 . S
C865 C864 1.379 . S
C865 C866 1.380 . S
C865 H886 0.929 . S
C866 C865 1.380 . S
C866 C867 1.399 . S
C867 C866 1.399 . S
C867 C868 1.376 . S
C867 H887 0.931 . S
C868 N863 1.338 . S
C868 C867 1.376 . S
C868 H879 0.930 1_554 S
C869 O876 1.239 . S
C869 O877 1.230 . S
O870 Cd834 2.268 1_556 S
O870 C844 1.238 . S
O871 Cd835 2.273 . S
O871 C844 1.253 . S
O872 Cd835 2.268 1_554 S
O872 C861 1.238 . S
O873 Cd834 2.273 . S
O873 C861 1.253 . S
O874 Cd834 2.417 . S
O874 C862 1.239 . S
O875 Cd834 2.330 . S
O875 C862 1.230 . S
O876 Cd835 2.417 . S
O876 C869 1.239 . S
O877 Cd835 2.330 . S
O877 C869 1.230 . S
H878 C864 0.929 . S
H879 C868 0.930 1_556 S
H880 C838 0.931 1_556 S
H881 C840 0.930 . S
H882 C846 0.929 . S
H883 C848 0.931 1_554 S
H884 C855 0.931 . S
H885 C857 0.930 . S
H886 C865 0.929 . S
H887 C867 0.931 . S
Cd888 N891 2.334 1_655 S
Cd888 N917 2.304 . S
Cd888 O924 2.268 . S
Cd888 O927 2.273 1_655 S
Cd888 O928 2.417 . S
Cd888 O929 2.330 . S
Cd889 N904 2.304 1_455 S
Cd889 N908 2.334 . S
Cd889 O925 2.273 1_455 S
Cd889 O926 2.268 . S
Cd889 O930 2.417 . S
Cd889 O931 2.330 . S
C890 N891 1.332 . S
C890 C894 1.381 . S
C890 H896 0.931 . S
N891 Cd888 2.334 1_455 S
N891 C890 1.332 . S
N891 C895 1.328 . S
C892 C893 1.396 . S
C892 C895 1.378 . S
C892 H934 0.931 . S
C893 C892 1.396 . S
C893 C894 1.382 . S
C894 C890 1.381 . S
C894 C893 1.382 . S
C894 H935 0.930 . S
C895 N891 1.328 . S
C895 C892 1.378 . S
C895 H897 0.930 1_455 S
H896 C890 0.931 . S
H897 C895 0.930 1_655 S
C898 O924 1.238 . S
C898 O925 1.253 . S
C899 C900 1.379 . S
C899 N904 1.337 . S
C899 H905 0.929 . S
C900 C899 1.379 . S
C900 C901 1.380 . S
C900 H936 0.929 . S
C901 C900 1.380 . S
C901 C902 1.399 . S
C902 C901 1.399 . S
C902 C903 1.387 . S
C902 H937 0.931 . S
C903 C902 1.387 . S
C903 N904 1.336 . S
C903 H906 0.921 1_655 S
N904 Cd889 2.304 1_655 S
N904 C899 1.337 . S
N904 C903 1.336 . S
H905 C899 0.929 . S
H906 C903 0.921 1_455 S
C907 N908 1.332 . S
C907 C911 1.381 . S
C907 H913 0.931 . S
N908 Cd889 2.334 . S
N908 C907 1.332 . S
N908 C912 1.328 . S
C909 C910 1.396 . S
C909 C912 1.378 . S
C909 H938 0.931 . S
C910 C909 1.396 . S
C910 C911 1.382 . S
C911 C907 1.381 . S
C911 C910 1.382 . S
C911 H939 0.930 . S
C912 N908 1.328 . S
C912 C909 1.378 . S
C912 H914 0.930 . S
H913 C907 0.931 . S
H914 C912 0.930 . S
C915 O926 1.238 . S
C915 O927 1.253 . S
C916 O928 1.239 . S
C916 O929 1.230 . S
N917 Cd888 2.304 . S
N917 C918 1.337 . S
N917 C922 1.338 . S
C918 N917 1.337 . S
C918 C919 1.379 . S
C918 H932 0.929 . S
C919 C918 1.379 . S
C919 C920 1.380 . S
C919 H940 0.929 . S
C920 C919 1.380 . S
C920 C921 1.399 . S
C921 C920 1.399 . S
C921 C922 1.376 . S
C921 H941 0.931 . S
C922 N917 1.338 . S
C922 C921 1.376 . S
C922 H933 0.930 . S
C923 O930 1.239 . S
C923 O931 1.230 . S
O924 Cd888 2.268 . S
O924 C898 1.238 . S
O925 Cd889 2.273 1_655 S
O925 C898 1.253 . S
O926 Cd889 2.268 . S
O926 C915 1.238 . S
O927 Cd888 2.273 1_455 S
O927 C915 1.253 . S
O928 Cd888 2.417 . S
O928 C916 1.239 . S
O929 Cd888 2.330 . S
O929 C916 1.230 . S
O930 Cd889 2.417 . S
O930 C923 1.239 . S
O931 Cd889 2.330 . S
O931 C923 1.230 . S
H932 C918 0.929 . S
H933 C922 0.930 . S
H934 C892 0.931 . S
H935 C894 0.930 . S
H936 C900 0.929 . S
H937 C902 0.931 . S
H938 C909 0.931 . S
H939 C911 0.930 . S
H940 C919 0.929 . S
H941 C921 0.931 . S
Cd942 N945 2.334 . S
Cd942 N971 2.304 1_565 S
Cd942 O978 2.268 . S
Cd942 O981 2.273 1_565 S
Cd942 O982 2.417 . S
Cd942 O983 2.330 . S
Cd943 N958 2.304 . S
Cd943 N962 2.334 1_545 S
Cd943 O979 2.273 1_545 S
Cd943 O980 2.268 . S
Cd943 O984 2.417 . S
Cd943 O985 2.330 . S
C944 N945 1.332 . S
C944 C948 1.381 . S
C944 H950 0.931 . S
N945 Cd942 2.334 . S
N945 C944 1.332 . S
N945 C949 1.328 . S
C946 C947 1.396 . S
C946 C949 1.378 . S
C946 H988 0.931 . S
C947 C946 1.396 . S
C947 C948 1.382 . S
C948 C944 1.381 . S
C948 C947 1.382 . S
C948 H989 0.930 . S
C949 N945 1.328 . S
C949 C946 1.378 . S
C949 H951 0.930 . S
H950 C944 0.931 . S
H951 C949 0.930 . S
C952 O978 1.238 . S
C952 O979 1.253 . S
C953 C954 1.379 . S
C953 N958 1.337 . S
C953 H959 0.929 . S
C954 C953 1.379 . S
C954 C955 1.380 . S
C954 H990 0.929 . S
C955 C954 1.380 . S
C955 C956 1.399 . S
C956 C955 1.399 . S
C956 C957 1.376 . S
C956 H991 0.931 . S
C957 C956 1.376 . S
C957 N958 1.338 . S
C957 H960 0.930 . S
N958 Cd943 2.304 . S
N958 C953 1.337 . S
N958 C957 1.338 . S
H959 C953 0.929 . S
H960 C957 0.930 . S
C961 N962 1.332 . S
C961 C965 1.381 . S
C961 H967 0.931 . S
N962 Cd943 2.334 1_565 S
N962 C961 1.332 . S
N962 C966 1.328 . S
C963 C964 1.396 . S
C963 C966 1.378 . S
C963 H992 0.931 . S
C964 C963 1.396 . S
C964 C965 1.382 . S
C965 C961 1.381 . S
C965 C964 1.382 . S
C965 H993 0.930 . S
C966 N962 1.328 . S
C966 C963 1.378 . S
C966 H968 0.930 1_565 S
H967 C961 0.931 . S
H968 C966 0.930 1_545 S
C969 O980 1.238 . S
C969 O981 1.253 . S
C970 O982 1.239 . S
C970 O983 1.230 . S
N971 Cd942 2.304 1_545 S
N971 C972 1.337 . S
N971 C976 1.338 . S
C972 N971 1.337 . S
C972 C973 1.379 . S
C972 H986 0.929 . S
C973 C972 1.379 . S
C973 C974 1.380 . S
C973 H994 0.929 . S
C974 C973 1.380 . S
C974 C975 1.399 . S
C975 C974 1.399 . S
C975 C976 1.376 . S
C975 H995 0.931 . S
C976 N971 1.338 . S
C976 C975 1.376 . S
C976 H987 0.930 1_545 S
C977 O984 1.239 . S
C977 O985 1.230 . S
O978 Cd942 2.268 . S
O978 C952 1.238 . S
O979 Cd943 2.273 1_565 S
O979 C952 1.253 . S
O980 Cd943 2.268 . S
O980 C969 1.238 . S
O981 Cd942 2.273 1_545 S
O981 C969 1.253 . S
O982 Cd942 2.417 . S
O982 C970 1.239 . S
O983 Cd942 2.330 . S
O983 C970 1.230 . S
O984 Cd943 2.417 . S
O984 C977 1.239 . S
O985 Cd943 2.330 . S
O985 C977 1.230 . S
H986 C972 0.929 . S
H987 C976 0.930 1_565 S
H988 C946 0.931 . S
H989 C948 0.930 . S
H990 C954 0.929 . S
H991 C956 0.931 . S
H992 C963 0.931 . S
H993 C965 0.930 . S
H994 C973 0.929 . S
H995 C975 0.931 . S
H996 C1002 0.930 . S
H997 C1006 0.930 . S
H998 C1011 0.929 . S
H999 C1009 0.929 . S
H1000 C1004 0.929 . S
H1001 C1010 0.929 . S
C1002 H996 0.930 . S
C1002 C1003 1.367 . S
C1002 C1010 1.378 . S
C1003 C1002 1.367 . S
C1003 C1011 1.433 . S
C1004 H1000 0.929 . S
C1004 C1006 1.378 . S
C1004 C1008 1.350 . S
C1005 C1008 1.463 . S
C1005 C1010 1.350 . S
C1005 N1013 1.427 . S
C1006 H997 0.930 . S
C1006 C1004 1.378 . S
C1006 C1007 1.367 . S
C1007 C1006 1.367 . S
C1007 C1009 1.433 . S
C1008 C1004 1.350 . S
C1008 C1005 1.463 . S
C1008 N1012 1.427 . S
C1009 H999 0.929 . S
C1009 C1007 1.433 . S
C1009 N1012 1.384 . S
C1010 H1001 0.929 . S
C1010 C1002 1.378 . S
C1010 C1005 1.350 . S
C1011 H998 0.929 . S
C1011 C1003 1.433 . S
C1011 N1013 1.384 . S
N1012 C1008 1.427 . S
N1012 C1009 1.384 . S
N1013 C1005 1.427 . S
N1013 C1011 1.384 . S
H1014 C1020 0.930 . S
H1015 C1024 0.930 . S
H1016 C1029 0.929 . S
H1017 C1027 0.929 . S
H1018 C1022 0.929 . S
H1019 C1028 0.929 . S
C1020 H1014 0.930 . S
C1020 C1021 1.367 . S
C1020 C1028 1.378 . S
C1021 C1020 1.367 . S
C1021 C1029 1.433 . S
C1022 H1018 0.929 . S
C1022 C1024 1.378 . S
C1022 C1026 1.350 . S
C1023 C1026 1.463 . S
C1023 C1028 1.350 . S
C1023 N1031 1.427 . S
C1024 H1015 0.930 . S
C1024 C1022 1.378 . S
C1024 C1025 1.367 . S
C1025 C1024 1.367 . S
C1025 C1027 1.433 . S
C1026 C1022 1.350 . S
C1026 C1023 1.463 . S
C1026 N1030 1.427 . S
C1027 H1017 0.929 . S
C1027 C1025 1.433 . S
C1027 N1030 1.384 . S
C1028 H1019 0.929 . S
C1028 C1020 1.378 . S
C1028 C1023 1.350 . S
C1029 H1016 0.929 . S
C1029 C1021 1.433 . S
C1029 N1031 1.384 . S
N1030 C1026 1.427 . S
N1030 C1027 1.384 . S
N1031 C1023 1.427 . S
N1031 C1029 1.384 . S
H1032 C1038 0.930 . S
H1033 C1042 0.930 . S
H1034 C1047 0.929 . S
H1035 C1045 0.929 . S
H1036 C1040 0.929 . S
H1037 C1046 0.929 . S
C1038 H1032 0.930 . S
C1038 C1039 1.367 . S
C1038 C1046 1.378 . S
C1039 C1038 1.367 . S
C1039 C1047 1.433 . S
C1040 H1036 0.929 . S
C1040 C1042 1.378 . S
C1040 C1044 1.350 . S
C1041 C1044 1.463 . S
C1041 C1046 1.350 . S
C1041 N1049 1.427 . S
C1042 H1033 0.930 . S
C1042 C1040 1.378 . S
C1042 C1043 1.367 . S
C1043 C1042 1.367 . S
C1043 C1045 1.433 . S
C1044 C1040 1.350 . S
C1044 C1041 1.463 . S
C1044 N1048 1.427 . S
C1045 H1035 0.929 . S
C1045 C1043 1.433 . S
C1045 N1048 1.384 . S
C1046 H1037 0.929 . S
C1046 C1038 1.378 . S
C1046 C1041 1.350 . S
C1047 H1034 0.929 . S
C1047 C1039 1.433 . S
C1047 N1049 1.384 . S
N1048 C1044 1.427 . S
N1048 C1045 1.384 . S
N1049 C1041 1.427 . S
N1049 C1047 1.384 . S
H1050 C1056 0.930 . S
H1051 C1060 0.930 . S
H1052 C1065 0.929 . S
H1053 C1063 0.929 . S
H1054 C1058 0.929 . S
H1055 C1064 0.929 . S
C1056 H1050 0.930 . S
C1056 C1057 1.367 . S
C1056 C1064 1.378 . S
C1057 C1056 1.367 . S
C1057 C1065 1.433 . S
C1058 H1054 0.929 . S
C1058 C1060 1.378 . S
C1058 C1062 1.350 . S
C1059 C1062 1.463 . S
C1059 C1064 1.350 . S
C1059 N1067 1.427 . S
C1060 H1051 0.930 . S
C1060 C1058 1.378 . S
C1060 C1061 1.367 . S
C1061 C1060 1.367 . S
C1061 C1063 1.433 . S
C1062 C1058 1.350 . S
C1062 C1059 1.463 . S
C1062 N1066 1.427 . S
C1063 H1053 0.929 . S
C1063 C1061 1.433 . S
C1063 N1066 1.384 . S
C1064 H1055 0.929 . S
C1064 C1056 1.378 . S
C1064 C1059 1.350 . S
C1065 H1052 0.929 . S
C1065 C1057 1.433 . S
C1065 N1067 1.384 . S
N1066 C1062 1.427 . S
N1066 C1063 1.384 . S
N1067 C1059 1.427 . S
N1067 C1065 1.384 . S
H1068 C1074 0.930 . S
H1069 C1078 0.930 . S
H1070 C1083 0.929 . S
H1071 C1081 0.929 . S
H1072 C1076 0.929 . S
H1073 C1082 0.929 . S
C1074 H1068 0.930 . S
C1074 C1075 1.367 . S
C1074 C1082 1.378 . S
C1075 C1074 1.367 . S
C1075 C1083 1.433 . S
C1076 H1072 0.929 . S
C1076 C1078 1.378 . S
C1076 C1080 1.350 . S
C1077 C1080 1.463 . S
C1077 C1082 1.350 . S
C1077 N1085 1.427 . S
C1078 H1069 0.930 . S
C1078 C1076 1.378 . S
C1078 C1079 1.367 . S
C1079 C1078 1.367 . S
C1079 C1081 1.433 . S
C1080 C1076 1.350 . S
C1080 C1077 1.463 . S
C1080 N1084 1.427 . S
C1081 H1071 0.929 . S
C1081 C1079 1.433 . S
C1081 N1084 1.384 . S
C1082 H1073 0.929 . S
C1082 C1074 1.378 . S
C1082 C1077 1.350 . S
C1083 H1070 0.929 . S
C1083 C1075 1.433 . S
C1083 N1085 1.384 . S
N1084 C1080 1.427 . S
N1084 C1081 1.384 . S
N1085 C1077 1.427 . S
N1085 C1083 1.384 . S
H1086 C1092 0.930 . S
H1087 C1096 0.930 . S
H1088 C1101 0.929 . S
H1089 C1099 0.929 . S
H1090 C1094 0.929 . S
H1091 C1100 0.929 . S
C1092 H1086 0.930 . S
C1092 C1093 1.367 . S
C1092 C1100 1.378 . S
C1093 C1092 1.367 . S
C1093 C1101 1.433 . S
C1094 H1090 0.929 . S
C1094 C1096 1.378 . S
C1094 C1098 1.350 . S
C1095 C1098 1.463 . S
C1095 C1100 1.350 . S
C1095 N1103 1.427 . S
C1096 H1087 0.930 . S
C1096 C1094 1.378 . S
C1096 C1097 1.367 . S
C1097 C1096 1.367 . S
C1097 C1099 1.433 . S
C1098 C1094 1.350 . S
C1098 C1095 1.463 . S
C1098 N1102 1.427 . S
C1099 H1089 0.929 . S
C1099 C1097 1.433 . S
C1099 N1102 1.384 . S
C1100 H1091 0.929 . S
C1100 C1092 1.378 . S
C1100 C1095 1.350 . S
C1101 H1088 0.929 . S
C1101 C1093 1.433 . S
C1101 N1103 1.384 . S
N1102 C1098 1.427 . S
N1102 C1099 1.384 . S
N1103 C1095 1.427 . S
N1103 C1101 1.384 . S
H1104 C1110 0.930 . S
H1105 C1114 0.930 . S
H1106 C1119 0.929 . S
H1107 C1117 0.929 . S
H1108 C1112 0.929 . S
H1109 C1118 0.929 . S
C1110 H1104 0.930 . S
C1110 C1111 1.367 . S
C1110 C1118 1.378 . S
C1111 C1110 1.367 . S
C1111 C1119 1.433 . S
C1112 H1108 0.929 . S
C1112 C1114 1.378 . S
C1112 C1116 1.350 . S
C1113 C1116 1.463 . S
C1113 C1118 1.350 . S
C1113 N1121 1.427 . S
C1114 H1105 0.930 . S
C1114 C1112 1.378 . S
C1114 C1115 1.367 . S
C1115 C1114 1.367 . S
C1115 C1117 1.433 . S
C1116 C1112 1.350 . S
C1116 C1113 1.463 . S
C1116 N1120 1.427 . S
C1117 H1107 0.929 . S
C1117 C1115 1.433 . S
C1117 N1120 1.384 . S
C1118 H1109 0.929 . S
C1118 C1110 1.378 . S
C1118 C1113 1.350 . S
C1119 H1106 0.929 . S
C1119 C1111 1.433 . S
C1119 N1121 1.384 . S
N1120 C1116 1.427 . S
N1120 C1117 1.384 . S
N1121 C1113 1.427 . S
N1121 C1119 1.384 . S
H1122 C1128 0.930 . S
H1123 C1132 0.930 . S
H1124 C1137 0.929 . S
H1125 C1135 0.929 . S
H1126 C1130 0.929 . S
H1127 C1136 0.929 . S
C1128 H1122 0.930 . S
C1128 C1129 1.367 . S
C1128 C1136 1.378 . S
C1129 C1128 1.367 . S
C1129 C1137 1.433 . S
C1130 H1126 0.929 . S
C1130 C1132 1.378 . S
C1130 C1134 1.350 . S
C1131 C1134 1.463 . S
C1131 C1136 1.350 . S
C1131 N1139 1.427 . S
C1132 H1123 0.930 . S
C1132 C1130 1.378 . S
C1132 C1133 1.367 . S
C1133 C1132 1.367 . S
C1133 C1135 1.433 . S
C1134 C1130 1.350 . S
C1134 C1131 1.463 . S
C1134 N1138 1.427 . S
C1135 H1125 0.929 . S
C1135 C1133 1.433 . S
C1135 N1138 1.384 . S
C1136 H1127 0.929 . S
C1136 C1128 1.378 . S
C1136 C1131 1.350 . S
C1137 H1124 0.929 . S
C1137 C1129 1.433 . S
C1137 N1139 1.384 . S
N1138 C1134 1.427 . S
N1138 C1135 1.384 . S
N1139 C1131 1.427 . S
N1139 C1137 1.384 . S
H1140 C1146 0.930 . S
H1141 C1150 0.930 . S
H1142 C1155 0.929 . S
H1143 C1153 0.929 . S
H1144 C1148 0.929 . S
H1145 C1154 0.929 . S
C1146 H1140 0.930 . S
C1146 C1147 1.367 . S
C1146 C1154 1.378 . S
C1147 C1146 1.367 . S
C1147 C1155 1.433 . S
C1148 H1144 0.929 . S
C1148 C1150 1.378 . S
C1148 C1152 1.350 . S
C1149 C1152 1.463 . S
C1149 C1154 1.350 . S
C1149 N1157 1.427 . S
C1150 H1141 0.930 . S
C1150 C1148 1.378 . S
C1150 C1151 1.367 . S
C1151 C1150 1.367 . S
C1151 C1153 1.433 . S
C1152 C1148 1.350 . S
C1152 C1149 1.463 . S
C1152 N1156 1.427 . S
C1153 H1143 0.929 . S
C1153 C1151 1.433 . S
C1153 N1156 1.384 . S
C1154 H1145 0.929 . S
C1154 C1146 1.378 . S
C1154 C1149 1.350 . S
C1155 H1142 0.929 . S
C1155 C1147 1.433 . S
C1155 N1157 1.384 . S
N1156 C1152 1.427 . S
N1156 C1153 1.384 . S
N1157 C1149 1.427 . S
N1157 C1155 1.384 . S
H1158 C1164 0.930 . S
H1159 C1168 0.930 . S
H1160 C1173 0.929 . S
H1161 C1171 0.929 . S
H1162 C1166 0.929 . S
H1163 C1172 0.929 . S
C1164 H1158 0.930 . S
C1164 C1165 1.367 . S
C1164 C1172 1.378 . S
C1165 C1164 1.367 . S
C1165 C1173 1.433 . S
C1166 H1162 0.929 . S
C1166 C1168 1.378 . S
C1166 C1170 1.350 . S
C1167 C1170 1.463 . S
C1167 C1172 1.350 . S
C1167 N1175 1.427 . S
C1168 H1159 0.930 . S
C1168 C1166 1.378 . S
C1168 C1169 1.367 . S
C1169 C1168 1.367 . S
C1169 C1171 1.433 . S
C1170 C1166 1.350 . S
C1170 C1167 1.463 . S
C1170 N1174 1.427 . S
C1171 H1161 0.929 . S
C1171 C1169 1.433 . S
C1171 N1174 1.384 . S
C1172 H1163 0.929 . S
C1172 C1164 1.378 . S
C1172 C1167 1.350 . S
C1173 H1160 0.929 . S
C1173 C1165 1.433 . S
C1173 N1175 1.384 . S
N1174 C1170 1.427 . S
N1174 C1171 1.384 . S
N1175 C1167 1.427 . S
N1175 C1173 1.384 . S
H1176 C1182 0.930 . S
H1177 C1186 0.930 . S
H1178 C1191 0.929 . S
H1179 C1189 0.929 . S
H1180 C1184 0.929 . S
H1181 C1190 0.929 . S
C1182 H1176 0.930 . S
C1182 C1183 1.367 . S
C1182 C1190 1.378 . S
C1183 C1182 1.367 . S
C1183 C1191 1.433 . S
C1184 H1180 0.929 . S
C1184 C1186 1.378 . S
C1184 C1188 1.350 . S
C1185 C1188 1.463 . S
C1185 C1190 1.350 . S
C1185 N1193 1.427 . S
C1186 H1177 0.930 . S
C1186 C1184 1.378 . S
C1186 C1187 1.367 . S
C1187 C1186 1.367 . S
C1187 C1189 1.433 . S
C1188 C1184 1.350 . S
C1188 C1185 1.463 . S
C1188 N1192 1.427 . S
C1189 H1179 0.929 . S
C1189 C1187 1.433 . S
C1189 N1192 1.384 . S
C1190 H1181 0.929 . S
C1190 C1182 1.378 . S
C1190 C1185 1.350 . S
C1191 H1178 0.929 . S
C1191 C1183 1.433 . S
C1191 N1193 1.384 . S
N1192 C1188 1.427 . S
N1192 C1189 1.384 . S
N1193 C1185 1.427 . S
N1193 C1191 1.384 . S
H1194 C1200 0.930 . S
H1195 C1204 0.930 . S
H1196 C1209 0.929 . S
H1197 C1207 0.929 . S
H1198 C1202 0.929 . S
H1199 C1208 0.929 . S
C1200 H1194 0.930 . S
C1200 C1201 1.367 . S
C1200 C1208 1.378 . S
C1201 C1200 1.367 . S
C1201 C1209 1.433 . S
C1202 H1198 0.929 . S
C1202 C1204 1.378 . S
C1202 C1206 1.350 . S
C1203 C1206 1.463 . S
C1203 C1208 1.350 . S
C1203 N1211 1.427 . S
C1204 H1195 0.930 . S
C1204 C1202 1.378 . S
C1204 C1205 1.367 . S
C1205 C1204 1.367 . S
C1205 C1207 1.433 . S
C1206 C1202 1.350 . S
C1206 C1203 1.463 . S
C1206 N1210 1.427 . S
C1207 H1197 0.929 . S
C1207 C1205 1.433 . S
C1207 N1210 1.384 . S
C1208 H1199 0.929 . S
C1208 C1200 1.378 . S
C1208 C1203 1.350 . S
C1209 H1196 0.929 . S
C1209 C1201 1.433 . S
C1209 N1211 1.384 . S
N1210 C1206 1.427 . S
N1210 C1207 1.384 . S
N1211 C1203 1.427 . S
N1211 C1209 1.384 . S
H1212 C1218 0.930 . S
H1213 C1222 0.930 . S
H1214 C1227 0.929 . S
H1215 C1225 0.929 . S
H1216 C1220 0.929 . S
H1217 C1226 0.929 . S
C1218 H1212 0.930 . S
C1218 C1219 1.367 . S
C1218 C1226 1.378 . S
C1219 C1218 1.367 . S
C1219 C1227 1.433 . S
C1220 H1216 0.929 . S
C1220 C1222 1.378 . S
C1220 C1224 1.350 . S
C1221 C1224 1.463 . S
C1221 C1226 1.350 . S
C1221 N1229 1.427 . S
C1222 H1213 0.930 . S
C1222 C1220 1.378 . S
C1222 C1223 1.367 . S
C1223 C1222 1.367 . S
C1223 C1225 1.433 . S
C1224 C1220 1.350 . S
C1224 C1221 1.463 . S
C1224 N1228 1.427 . S
C1225 H1215 0.929 . S
C1225 C1223 1.433 . S
C1225 N1228 1.384 . S
C1226 H1217 0.929 . S
C1226 C1218 1.378 . S
C1226 C1221 1.350 . S
C1227 H1214 0.929 . S
C1227 C1219 1.433 . S
C1227 N1229 1.384 . S
N1228 C1224 1.427 . S
N1228 C1225 1.384 . S
N1229 C1221 1.427 . S
N1229 C1227 1.384 . S
H1230 C1236 0.930 . S
H1231 C1240 0.930 . S
H1232 C1245 0.929 . S
H1233 C1243 0.929 . S
H1234 C1238 0.929 . S
H1235 C1244 0.929 . S
C1236 H1230 0.930 . S
C1236 C1237 1.367 . S
C1236 C1244 1.378 . S
C1237 C1236 1.367 . S
C1237 C1245 1.433 . S
C1238 H1234 0.929 . S
C1238 C1240 1.378 . S
C1238 C1242 1.350 . S
C1239 C1242 1.463 . S
C1239 C1244 1.350 . S
C1239 N1247 1.427 . S
C1240 H1231 0.930 . S
C1240 C1238 1.378 . S
C1240 C1241 1.367 . S
C1241 C1240 1.367 . S
C1241 C1243 1.433 . S
C1242 C1238 1.350 . S
C1242 C1239 1.463 . S
C1242 N1246 1.427 . S
C1243 H1233 0.929 . S
C1243 C1241 1.433 . S
C1243 N1246 1.384 . S
C1244 H1235 0.929 . S
C1244 C1236 1.378 . S
C1244 C1239 1.350 . S
C1245 H1232 0.929 . S
C1245 C1237 1.433 . S
C1245 N1247 1.384 . S
N1246 C1242 1.427 . S
N1246 C1243 1.384 . S
N1247 C1239 1.427 . S
N1247 C1245 1.384 . S
H1248 C1254 0.930 . S
H1249 C1258 0.930 . S
H1250 C1263 0.929 . S
H1251 C1261 0.929 . S
H1252 C1256 0.929 . S
H1253 C1262 0.929 . S
C1254 H1248 0.930 . S
C1254 C1255 1.367 . S
C1254 C1262 1.378 . S
C1255 C1254 1.367 . S
C1255 C1263 1.433 . S
C1256 H1252 0.929 . S
C1256 C1258 1.378 . S
C1256 C1260 1.350 . S
C1257 C1260 1.463 . S
C1257 C1262 1.350 . S
C1257 N1265 1.427 . S
C1258 H1249 0.930 . S
C1258 C1256 1.378 . S
C1258 C1259 1.367 . S
C1259 C1258 1.367 . S
C1259 C1261 1.433 . S
C1260 C1256 1.350 . S
C1260 C1257 1.463 . S
C1260 N1264 1.427 . S
C1261 H1251 0.929 . S
C1261 C1259 1.433 . S
C1261 N1264 1.384 . S
C1262 H1253 0.929 . S
C1262 C1254 1.378 . S
C1262 C1257 1.350 . S
C1263 H1250 0.929 . S
C1263 C1255 1.433 . S
C1263 N1265 1.384 . S
N1264 C1260 1.427 . S
N1264 C1261 1.384 . S
N1265 C1257 1.427 . S
N1265 C1263 1.384 . S
H1266 C1272 0.930 . S
H1267 C1276 0.930 . S
H1268 C1281 0.929 . S
H1269 C1279 0.929 . S
H1270 C1274 0.929 . S
H1271 C1280 0.929 . S
C1272 H1266 0.930 . S
C1272 C1273 1.367 . S
C1272 C1280 1.378 . S
C1273 C1272 1.367 . S
C1273 C1281 1.433 . S
C1274 H1270 0.929 . S
C1274 C1276 1.378 . S
C1274 C1278 1.350 . S
C1275 C1278 1.463 . S
C1275 C1280 1.350 . S
C1275 N1283 1.427 . S
C1276 H1267 0.930 . S
C1276 C1274 1.378 . S
C1276 C1277 1.367 . S
C1277 C1276 1.367 . S
C1277 C1279 1.433 . S
C1278 C1274 1.350 . S
C1278 C1275 1.463 . S
C1278 N1282 1.427 . S
C1279 H1269 0.929 . S
C1279 C1277 1.433 . S
C1279 N1282 1.384 . S
C1280 H1271 0.929 . S
C1280 C1272 1.378 . S
C1280 C1275 1.350 . S
C1281 H1268 0.929 . S
C1281 C1273 1.433 . S
C1281 N1283 1.384 . S
N1282 C1278 1.427 . S
N1282 C1279 1.384 . S
N1283 C1275 1.427 . S
N1283 C1281 1.384 . S
H1284 C1290 0.930 . S
H1285 C1294 0.930 . S
H1286 C1299 0.929 . S
H1287 C1297 0.929 . S
H1288 C1292 0.929 . S
H1289 C1298 0.929 . S
C1290 H1284 0.930 . S
C1290 C1291 1.367 . S
C1290 C1298 1.378 . S
C1291 C1290 1.367 . S
C1291 C1299 1.433 . S
C1292 H1288 0.929 . S
C1292 C1294 1.378 . S
C1292 C1296 1.350 . S
C1293 C1296 1.463 . S
C1293 C1298 1.350 . S
C1293 N1301 1.427 . S
C1294 H1285 0.930 . S
C1294 C1292 1.378 . S
C1294 C1295 1.367 . S
C1295 C1294 1.367 . S
C1295 C1297 1.433 . S
C1296 C1292 1.350 . S
C1296 C1293 1.463 . S
C1296 N1300 1.427 . S
C1297 H1287 0.929 . S
C1297 C1295 1.433 . S
C1297 N1300 1.384 . S
C1298 H1289 0.929 . S
C1298 C1290 1.378 . S
C1298 C1293 1.350 . S
C1299 H1286 0.929 . S
C1299 C1291 1.433 . S
C1299 N1301 1.384 . S
N1300 C1296 1.427 . S
N1300 C1297 1.384 . S
N1301 C1293 1.427 . S
N1301 C1299 1.384 . S
H1302 C1308 0.930 . S
H1303 C1312 0.930 . S
H1304 C1317 0.929 . S
H1305 C1315 0.929 . S
H1306 C1310 0.929 . S
H1307 C1316 0.929 . S
C1308 H1302 0.930 . S
C1308 C1309 1.367 . S
C1308 C1316 1.378 . S
C1309 C1308 1.367 . S
C1309 C1317 1.433 . S
C1310 H1306 0.929 . S
C1310 C1312 1.378 . S
C1310 C1314 1.350 . S
C1311 C1314 1.463 . S
C1311 C1316 1.350 . S
C1311 N1319 1.427 . S
C1312 H1303 0.930 . S
C1312 C1310 1.378 . S
C1312 C1313 1.367 . S
C1313 C1312 1.367 . S
C1313 C1315 1.433 . S
C1314 C1310 1.350 . S
C1314 C1311 1.463 . S
C1314 N1318 1.427 . S
C1315 H1305 0.929 . S
C1315 C1313 1.433 . S
C1315 N1318 1.384 . S
C1316 H1307 0.929 . S
C1316 C1308 1.378 . S
C1316 C1311 1.350 . S
C1317 H1304 0.929 . S
C1317 C1309 1.433 . S
C1317 N1319 1.384 . S
N1318 C1314 1.427 . S
N1318 C1315 1.384 . S
N1319 C1311 1.427 . S
N1319 C1317 1.384 . S
H1320 C1326 0.930 . S
H1321 C1330 0.930 . S
H1322 C1335 0.929 . S
H1323 C1333 0.929 . S
H1324 C1328 0.929 . S
H1325 C1334 0.929 . S
C1326 H1320 0.930 . S
C1326 C1327 1.367 . S
C1326 C1334 1.378 . S
C1327 C1326 1.367 . S
C1327 C1335 1.433 . S
C1328 H1324 0.929 . S
C1328 C1330 1.378 . S
C1328 C1332 1.350 . S
C1329 C1332 1.463 . S
C1329 C1334 1.350 . S
C1329 N1337 1.427 . S
C1330 H1321 0.930 . S
C1330 C1328 1.378 . S
C1330 C1331 1.367 . S
C1331 C1330 1.367 . S
C1331 C1333 1.433 . S
C1332 C1328 1.350 . S
C1332 C1329 1.463 . S
C1332 N1336 1.427 . S
C1333 H1323 0.929 . S
C1333 C1331 1.433 . S
C1333 N1336 1.384 . S
C1334 H1325 0.929 . S
C1334 C1326 1.378 . S
C1334 C1329 1.350 . S
C1335 H1322 0.929 . S
C1335 C1327 1.433 . S
C1335 N1337 1.384 . S
N1336 C1332 1.427 . S
N1336 C1333 1.384 . S
N1337 C1329 1.427 . S
N1337 C1335 1.384 . S
H1338 C1344 0.930 . S
H1339 C1348 0.930 . S
H1340 C1353 0.929 . S
H1341 C1351 0.929 . S
H1342 C1346 0.929 . S
H1343 C1352 0.929 . S
C1344 H1338 0.930 . S
C1344 C1345 1.367 . S
C1344 C1352 1.378 . S
C1345 C1344 1.367 . S
C1345 C1353 1.433 . S
C1346 H1342 0.929 . S
C1346 C1348 1.378 . S
C1346 C1350 1.350 . S
C1347 C1350 1.463 . S
C1347 C1352 1.350 . S
C1347 N1355 1.427 . S
C1348 H1339 0.930 . S
C1348 C1346 1.378 . S
C1348 C1349 1.367 . S
C1349 C1348 1.367 . S
C1349 C1351 1.433 . S
C1350 C1346 1.350 . S
C1350 C1347 1.463 . S
C1350 N1354 1.427 . S
C1351 H1341 0.929 . S
C1351 C1349 1.433 . S
C1351 N1354 1.384 . S
C1352 H1343 0.929 . S
C1352 C1344 1.378 . S
C1352 C1347 1.350 . S
C1353 H1340 0.929 . S
C1353 C1345 1.433 . S
C1353 N1355 1.384 . S
N1354 C1350 1.427 . S
N1354 C1351 1.384 . S
N1355 C1347 1.427 . S
N1355 C1353 1.384 . S
H1356 C1362 0.930 . S
H1357 C1366 0.930 . S
H1358 C1371 0.929 . S
H1359 C1369 0.929 . S
H1360 C1364 0.929 . S
H1361 C1370 0.929 . S
C1362 H1356 0.930 . S
C1362 C1363 1.367 . S
C1362 C1370 1.378 . S
C1363 C1362 1.367 . S
C1363 C1371 1.433 . S
C1364 H1360 0.929 . S
C1364 C1366 1.378 . S
C1364 C1368 1.350 . S
C1365 C1368 1.463 . S
C1365 C1370 1.350 . S
C1365 N1373 1.427 . S
C1366 H1357 0.930 . S
C1366 C1364 1.378 . S
C1366 C1367 1.367 . S
C1367 C1366 1.367 . S
C1367 C1369 1.433 . S
C1368 C1364 1.350 . S
C1368 C1365 1.463 . S
C1368 N1372 1.427 . S
C1369 H1359 0.929 . S
C1369 C1367 1.433 . S
C1369 N1372 1.384 . S
C1370 H1361 0.929 . S
C1370 C1362 1.378 . S
C1370 C1365 1.350 . S
C1371 H1358 0.929 . S
C1371 C1363 1.433 . S
C1371 N1373 1.384 . S
N1372 C1368 1.427 . S
N1372 C1369 1.384 . S
N1373 C1365 1.427 . S
N1373 C1371 1.384 . S
H1374 C1380 0.930 . S
H1375 C1384 0.930 . S
H1376 C1389 0.929 . S
H1377 C1387 0.929 . S
H1378 C1382 0.929 . S
H1379 C1388 0.929 . S
C1380 H1374 0.930 . S
C1380 C1381 1.367 . S
C1380 C1388 1.378 . S
C1381 C1380 1.367 . S
C1381 C1389 1.433 . S
C1382 H1378 0.929 . S
C1382 C1384 1.378 . S
C1382 C1386 1.350 . S
C1383 C1386 1.463 . S
C1383 C1388 1.350 . S
C1383 N1391 1.427 . S
C1384 H1375 0.930 . S
C1384 C1382 1.378 . S
C1384 C1385 1.367 . S
C1385 C1384 1.367 . S
C1385 C1387 1.433 . S
C1386 C1382 1.350 . S
C1386 C1383 1.463 . S
C1386 N1390 1.427 . S
C1387 H1377 0.929 . S
C1387 C1385 1.433 . S
C1387 N1390 1.384 . S
C1388 H1379 0.929 . S
C1388 C1380 1.378 . S
C1388 C1383 1.350 . S
C1389 H1376 0.929 . S
C1389 C1381 1.433 . S
C1389 N1391 1.384 . S
N1390 C1386 1.427 . S
N1390 C1387 1.384 . S
N1391 C1383 1.427 . S
N1391 C1389 1.384 . S
H1392 C1398 0.930 . S
H1393 C1402 0.930 . S
H1394 C1407 0.929 . S
H1395 C1405 0.929 . S
H1396 C1400 0.929 . S
H1397 C1406 0.929 . S
C1398 H1392 0.930 . S
C1398 C1399 1.367 . S
C1398 C1406 1.378 . S
C1399 C1398 1.367 . S
C1399 C1407 1.433 . S
C1400 H1396 0.929 . S
C1400 C1402 1.378 . S
C1400 C1404 1.350 . S
C1401 C1404 1.463 . S
C1401 C1406 1.350 . S
C1401 N1409 1.427 . S
C1402 H1393 0.930 . S
C1402 C1400 1.378 . S
C1402 C1403 1.367 . S
C1403 C1402 1.367 . S
C1403 C1405 1.433 . S
C1404 C1400 1.350 . S
C1404 C1401 1.463 . S
C1404 N1408 1.427 . S
C1405 H1395 0.929 . S
C1405 C1403 1.433 . S
C1405 N1408 1.384 . S
C1406 H1397 0.929 . S
C1406 C1398 1.378 . S
C1406 C1401 1.350 . S
C1407 H1394 0.929 . S
C1407 C1399 1.433 . S
C1407 N1409 1.384 . S
N1408 C1404 1.427 . S
N1408 C1405 1.384 . S
N1409 C1401 1.427 . S
N1409 C1407 1.384 . S
H1410 C1416 0.930 . S
H1411 C1420 0.930 . S
H1412 C1425 0.929 . S
H1413 C1423 0.929 . S
H1414 C1418 0.929 . S
H1415 C1424 0.929 . S
C1416 H1410 0.930 . S
C1416 C1417 1.367 . S
C1416 C1424 1.378 . S
C1417 C1416 1.367 . S
C1417 C1425 1.433 . S
C1418 H1414 0.929 . S
C1418 C1420 1.378 . S
C1418 C1422 1.350 . S
C1419 C1422 1.463 . S
C1419 C1424 1.350 . S
C1419 N1427 1.427 . S
C1420 H1411 0.930 . S
C1420 C1418 1.378 . S
C1420 C1421 1.367 . S
C1421 C1420 1.367 . S
C1421 C1423 1.433 . S
C1422 C1418 1.350 . S
C1422 C1419 1.463 . S
C1422 N1426 1.427 . S
C1423 H1413 0.929 . S
C1423 C1421 1.433 . S
C1423 N1426 1.384 . S
C1424 H1415 0.929 . S
C1424 C1416 1.378 . S
C1424 C1419 1.350 . S
C1425 H1412 0.929 . S
C1425 C1417 1.433 . S
C1425 N1427 1.384 . S
N1426 C1422 1.427 . S
N1426 C1423 1.384 . S
N1427 C1419 1.427 . S
N1427 C1425 1.384 . S
H1428 C1434 0.930 . S
H1429 C1438 0.930 . S
H1430 C1443 0.929 . S
H1431 C1441 0.929 . S
H1432 C1436 0.929 . S
H1433 C1442 0.929 . S
C1434 H1428 0.930 . S
C1434 C1435 1.367 . S
C1434 C1442 1.378 . S
C1435 C1434 1.367 . S
C1435 C1443 1.433 . S
C1436 H1432 0.929 . S
C1436 C1438 1.378 . S
C1436 C1440 1.350 . S
C1437 C1440 1.463 . S
C1437 C1442 1.350 . S
C1437 N1445 1.427 . S
C1438 H1429 0.930 . S
C1438 C1436 1.378 . S
C1438 C1439 1.367 . S
C1439 C1438 1.367 . S
C1439 C1441 1.433 . S
C1440 C1436 1.350 . S
C1440 C1437 1.463 . S
C1440 N1444 1.427 . S
C1441 H1431 0.929 . S
C1441 C1439 1.433 . S
C1441 N1444 1.384 . S
C1442 H1433 0.929 . S
C1442 C1434 1.378 . S
C1442 C1437 1.350 . S
C1443 H1430 0.929 . S
C1443 C1435 1.433 . S
C1443 N1445 1.384 . S
N1444 C1440 1.427 . S
N1444 C1441 1.384 . S
N1445 C1437 1.427 . S
N1445 C1443 1.384 . S
H1446 C1452 0.930 . S
H1447 C1456 0.930 . S
H1448 C1461 0.929 . S
H1449 C1459 0.929 . S
H1450 C1454 0.929 . S
H1451 C1460 0.929 . S
C1452 H1446 0.930 . S
C1452 C1453 1.367 . S
C1452 C1460 1.378 . S
C1453 C1452 1.367 . S
C1453 C1461 1.433 . S
C1454 H1450 0.929 . S
C1454 C1456 1.378 . S
C1454 C1458 1.350 . S
C1455 C1458 1.463 . S
C1455 C1460 1.350 . S
C1455 N1463 1.427 . S
C1456 H1447 0.930 . S
C1456 C1454 1.378 . S
C1456 C1457 1.367 . S
C1457 C1456 1.367 . S
C1457 C1459 1.433 . S
C1458 C1454 1.350 . S
C1458 C1455 1.463 . S
C1458 N1462 1.427 . S
C1459 H1449 0.929 . S
C1459 C1457 1.433 . S
C1459 N1462 1.384 . S
C1460 H1451 0.929 . S
C1460 C1452 1.378 . S
C1460 C1455 1.350 . S
C1461 H1448 0.929 . S
C1461 C1453 1.433 . S
C1461 N1463 1.384 . S
N1462 C1458 1.427 . S
N1462 C1459 1.384 . S
N1463 C1455 1.427 . S
N1463 C1461 1.384 . S
H1464 C1470 0.930 . S
H1465 C1474 0.930 . S
H1466 C1479 0.929 . S
H1467 C1477 0.929 . S
H1468 C1472 0.929 . S
H1469 C1478 0.929 . S
C1470 H1464 0.930 . S
C1470 C1471 1.367 . S
C1470 C1478 1.378 . S
C1471 C1470 1.367 . S
C1471 C1479 1.433 . S
C1472 H1468 0.929 . S
C1472 C1474 1.378 . S
C1472 C1476 1.350 . S
C1473 C1476 1.463 . S
C1473 C1478 1.350 . S
C1473 N1481 1.427 . S
C1474 H1465 0.930 . S
C1474 C1472 1.378 . S
C1474 C1475 1.367 . S
C1475 C1474 1.367 . S
C1475 C1477 1.433 . S
C1476 C1472 1.350 . S
C1476 C1473 1.463 . S
C1476 N1480 1.427 . S
C1477 H1467 0.929 . S
C1477 C1475 1.433 . S
C1477 N1480 1.384 . S
C1478 H1469 0.929 . S
C1478 C1470 1.378 . S
C1478 C1473 1.350 . S
C1479 H1466 0.929 . S
C1479 C1471 1.433 . S
C1479 N1481 1.384 . S
N1480 C1476 1.427 . S
N1480 C1477 1.384 . S
N1481 C1473 1.427 . S
N1481 C1479 1.384 . S
H1482 C1488 0.930 . S
H1483 C1492 0.930 1_554 S
H1484 C1497 0.929 . S
H1485 C1495 0.929 . S
H1486 C1490 0.929 . S
H1487 C1496 0.929 . S
C1488 H1482 0.930 . S
C1488 C1489 1.367 . S
C1488 C1496 1.378 . S
C1489 C1488 1.367 . S
C1489 C1497 1.433 . S
C1490 H1486 0.929 . S
C1490 C1492 1.378 . S
C1490 C1494 1.350 . S
C1491 C1494 1.463 . S
C1491 C1496 1.350 . S
C1491 N1499 1.427 . S
C1492 H1483 0.930 1_556 S
C1492 C1490 1.378 . S
C1492 C1493 1.367 . S
C1493 C1492 1.367 . S
C1493 C1495 1.433 . S
C1494 C1490 1.350 . S
C1494 C1491 1.463 . S
C1494 N1498 1.427 . S
C1495 H1485 0.929 . S
C1495 C1493 1.433 . S
C1495 N1498 1.384 . S
C1496 H1487 0.929 . S
C1496 C1488 1.378 . S
C1496 C1491 1.350 . S
C1497 H1484 0.929 . S
C1497 C1489 1.433 . S
C1497 N1499 1.384 . S
N1498 C1494 1.427 . S
N1498 C1495 1.384 . S
N1499 C1491 1.427 . S
N1499 C1497 1.384 . S
H1500 C1506 0.930 . S
H1501 C1510 0.930 . S
H1502 C1515 0.929 . S
H1503 C1513 0.929 . S
H1504 C1508 0.929 . S
H1505 C1514 0.929 . S
C1506 H1500 0.930 . S
C1506 C1507 1.367 . S
C1506 C1514 1.378 . S
C1507 C1506 1.367 . S
C1507 C1515 1.433 . S
C1508 H1504 0.929 . S
C1508 C1510 1.378 . S
C1508 C1512 1.350 . S
C1509 C1512 1.463 . S
C1509 C1514 1.350 . S
C1509 N1517 1.427 . S
C1510 H1501 0.930 . S
C1510 C1508 1.378 . S
C1510 C1511 1.367 . S
C1511 C1510 1.367 . S
C1511 C1513 1.433 . S
C1512 C1508 1.350 . S
C1512 C1509 1.463 . S
C1512 N1516 1.427 . S
C1513 H1503 0.929 . S
C1513 C1511 1.433 . S
C1513 N1516 1.384 . S
C1514 H1505 0.929 . S
C1514 C1506 1.378 . S
C1514 C1509 1.350 . S
C1515 H1502 0.929 . S
C1515 C1507 1.433 . S
C1515 N1517 1.384 . S
N1516 C1512 1.427 . S
N1516 C1513 1.384 . S
N1517 C1509 1.427 . S
N1517 C1515 1.384 . S
H1518 C1524 0.930 . S
H1519 C1528 0.930 . S
H1520 C1533 0.929 . S
H1521 C1531 0.929 . S
H1522 C1526 0.929 . S
H1523 C1532 0.929 . S
C1524 H1518 0.930 . S
C1524 C1525 1.367 . S
C1524 C1532 1.378 . S
C1525 C1524 1.367 . S
C1525 C1533 1.433 . S
C1526 H1522 0.929 . S
C1526 C1528 1.378 . S
C1526 C1530 1.350 . S
C1527 C1530 1.463 . S
C1527 C1532 1.350 . S
C1527 N1535 1.427 . S
C1528 H1519 0.930 . S
C1528 C1526 1.378 . S
C1528 C1529 1.367 . S
C1529 C1528 1.367 . S
C1529 C1531 1.433 . S
C1530 C1526 1.350 . S
C1530 C1527 1.463 . S
C1530 N1534 1.427 . S
C1531 H1521 0.929 . S
C1531 C1529 1.433 . S
C1531 N1534 1.384 . S
C1532 H1523 0.929 . S
C1532 C1524 1.378 . S
C1532 C1527 1.350 . S
C1533 H1520 0.929 . S
C1533 C1525 1.433 . S
C1533 N1535 1.384 . S
N1534 C1530 1.427 . S
N1534 C1531 1.384 . S
N1535 C1527 1.427 . S
N1535 C1533 1.384 . S
H1536 C1542 0.930 . S
H1537 C1546 0.930 . S
H1538 C1551 0.929 . S
H1539 C1549 0.929 . S
H1540 C1544 0.929 . S
H1541 C1550 0.929 . S
C1542 H1536 0.930 . S
C1542 C1543 1.367 . S
C1542 C1550 1.378 . S
C1543 C1542 1.367 . S
C1543 C1551 1.433 . S
C1544 H1540 0.929 . S
C1544 C1546 1.378 . S
C1544 C1548 1.350 . S
C1545 C1548 1.463 . S
C1545 C1550 1.350 . S
C1545 N1553 1.427 . S
C1546 H1537 0.930 . S
C1546 C1544 1.378 . S
C1546 C1547 1.367 . S
C1547 C1546 1.367 . S
C1547 C1549 1.433 . S
C1548 C1544 1.350 . S
C1548 C1545 1.463 . S
C1548 N1552 1.427 . S
C1549 H1539 0.929 . S
C1549 C1547 1.433 . S
C1549 N1552 1.384 . S
C1550 H1541 0.929 . S
C1550 C1542 1.378 . S
C1550 C1545 1.350 . S
C1551 H1538 0.929 . S
C1551 C1543 1.433 . S
C1551 N1553 1.384 . S
N1552 C1548 1.427 . S
N1552 C1549 1.384 . S
N1553 C1545 1.427 . S
N1553 C1551 1.384 . S
H1554 C1560 0.930 . S
H1555 C1564 0.930 . S
H1556 C1569 0.929 . S
H1557 C1567 0.929 . S
H1558 C1562 0.929 . S
H1559 C1568 0.929 . S
C1560 H1554 0.930 . S
C1560 C1561 1.367 . S
C1560 C1568 1.378 . S
C1561 C1560 1.367 . S
C1561 C1569 1.433 . S
C1562 H1558 0.929 . S
C1562 C1564 1.378 . S
C1562 C1566 1.350 . S
C1563 C1566 1.463 . S
C1563 C1568 1.350 . S
C1563 N1571 1.427 . S
C1564 H1555 0.930 . S
C1564 C1562 1.378 . S
C1564 C1565 1.367 . S
C1565 C1564 1.367 . S
C1565 C1567 1.433 . S
C1566 C1562 1.350 . S
C1566 C1563 1.463 . S
C1566 N1570 1.427 . S
C1567 H1557 0.929 . S
C1567 C1565 1.433 . S
C1567 N1570 1.384 . S
C1568 H1559 0.929 . S
C1568 C1560 1.378 . S
C1568 C1563 1.350 . S
C1569 H1556 0.929 . S
C1569 C1561 1.433 . S
C1569 N1571 1.384 . S
N1570 C1566 1.427 . S
N1570 C1567 1.384 . S
N1571 C1563 1.427 . S
N1571 C1569 1.384 . S
H1572 C1578 0.930 . S
H1573 C1582 0.930 . S
H1574 C1587 0.929 . S
H1575 C1585 0.929 . S
H1576 C1580 0.929 . S
H1577 C1586 0.929 . S
C1578 H1572 0.930 . S
C1578 C1579 1.367 . S
C1578 C1586 1.378 . S
C1579 C1578 1.367 . S
C1579 C1587 1.433 . S
C1580 H1576 0.929 . S
C1580 C1582 1.378 . S
C1580 C1584 1.350 . S
C1581 C1584 1.463 . S
C1581 C1586 1.350 . S
C1581 N1589 1.427 . S
C1582 H1573 0.930 . S
C1582 C1580 1.378 . S
C1582 C1583 1.367 . S
C1583 C1582 1.367 . S
C1583 C1585 1.433 . S
C1584 C1580 1.350 . S
C1584 C1581 1.463 . S
C1584 N1588 1.427 . S
C1585 H1575 0.929 . S
C1585 C1583 1.433 . S
C1585 N1588 1.384 . S
C1586 H1577 0.929 . S
C1586 C1578 1.378 . S
C1586 C1581 1.350 . S
C1587 H1574 0.929 . S
C1587 C1579 1.433 . S
C1587 N1589 1.384 . S
N1588 C1584 1.427 . S
N1588 C1585 1.384 . S
N1589 C1581 1.427 . S
N1589 C1587 1.384 . S
H1590 C1596 0.930 . S
H1591 C1600 0.930 . S
H1592 C1605 0.929 . S
H1593 C1603 0.929 . S
H1594 C1598 0.929 . S
H1595 C1604 0.929 . S
C1596 H1590 0.930 . S
C1596 C1597 1.367 . S
C1596 C1604 1.378 . S
C1597 C1596 1.367 . S
C1597 C1605 1.433 . S
C1598 H1594 0.929 . S
C1598 C1600 1.378 . S
C1598 C1602 1.350 . S
C1599 C1602 1.463 . S
C1599 C1604 1.350 . S
C1599 N1607 1.427 . S
C1600 H1591 0.930 . S
C1600 C1598 1.378 . S
C1600 C1601 1.367 . S
C1601 C1600 1.367 . S
C1601 C1603 1.433 . S
C1602 C1598 1.350 . S
C1602 C1599 1.463 . S
C1602 N1606 1.427 . S
C1603 H1593 0.929 . S
C1603 C1601 1.433 . S
C1603 N1606 1.384 . S
C1604 H1595 0.929 . S
C1604 C1596 1.378 . S
C1604 C1599 1.350 . S
C1605 H1592 0.929 . S
C1605 C1597 1.433 . S
C1605 N1607 1.384 . S
N1606 C1602 1.427 . S
N1606 C1603 1.384 . S
N1607 C1599 1.427 . S
N1607 C1605 1.384 . S
H1608 C1614 0.930 . S
H1609 C1618 0.930 . S
H1610 C1623 0.929 . S
H1611 C1621 0.929 . S
H1612 C1616 0.929 . S
H1613 C1622 0.929 . S
C1614 H1608 0.930 . S
C1614 C1615 1.367 . S
C1614 C1622 1.378 . S
C1615 C1614 1.367 . S
C1615 C1623 1.433 . S
C1616 H1612 0.929 . S
C1616 C1618 1.378 . S
C1616 C1620 1.350 . S
C1617 C1620 1.463 . S
C1617 C1622 1.350 . S
C1617 N1625 1.427 . S
C1618 H1609 0.930 . S
C1618 C1616 1.378 . S
C1618 C1619 1.367 . S
C1619 C1618 1.367 . S
C1619 C1621 1.433 . S
C1620 C1616 1.350 . S
C1620 C1617 1.463 . S
C1620 N1624 1.427 . S
C1621 H1611 0.929 . S
C1621 C1619 1.433 . S
C1621 N1624 1.384 . S
C1622 H1613 0.929 . S
C1622 C1614 1.378 . S
C1622 C1617 1.350 . S
C1623 H1610 0.929 . S
C1623 C1615 1.433 . S
C1623 N1625 1.384 . S
N1624 C1620 1.427 . S
N1624 C1621 1.384 . S
N1625 C1617 1.427 . S
N1625 C1623 1.384 . S
H1626 C1632 0.930 . S
H1627 C1636 0.930 . S
H1628 C1641 0.929 . S
H1629 C1639 0.929 . S
H1630 C1634 0.929 . S
H1631 C1640 0.929 . S
C1632 H1626 0.930 . S
C1632 C1633 1.367 . S
C1632 C1640 1.378 . S
C1633 C1632 1.367 . S
C1633 C1641 1.433 . S
C1634 H1630 0.929 . S
C1634 C1636 1.378 . S
C1634 C1638 1.350 . S
C1635 C1638 1.463 . S
C1635 C1640 1.350 . S
C1635 N1643 1.427 . S
C1636 H1627 0.930 . S
C1636 C1634 1.378 . S
C1636 C1637 1.367 . S
C1637 C1636 1.367 . S
C1637 C1639 1.433 . S
C1638 C1634 1.350 . S
C1638 C1635 1.463 . S
C1638 N1642 1.427 . S
C1639 H1629 0.929 . S
C1639 C1637 1.433 . S
C1639 N1642 1.384 . S
C1640 H1631 0.929 . S
C1640 C1632 1.378 . S
C1640 C1635 1.350 . S
C1641 H1628 0.929 . S
C1641 C1633 1.433 . S
C1641 N1643 1.384 . S
N1642 C1638 1.427 . S
N1642 C1639 1.384 . S
N1643 C1635 1.427 . S
N1643 C1641 1.384 . S
H1644 C1650 0.930 . S
H1645 C1654 0.930 . S
H1646 C1659 0.929 . S
H1647 C1657 0.929 . S
H1648 C1652 0.929 . S
H1649 C1658 0.929 . S
C1650 H1644 0.930 . S
C1650 C1651 1.367 . S
C1650 C1658 1.378 . S
C1651 C1650 1.367 . S
C1651 C1659 1.433 . S
C1652 H1648 0.929 . S
C1652 C1654 1.378 . S
C1652 C1656 1.350 . S
C1653 C1656 1.463 . S
C1653 C1658 1.350 . S
C1653 N1661 1.427 . S
C1654 H1645 0.930 . S
C1654 C1652 1.378 . S
C1654 C1655 1.367 . S
C1655 C1654 1.367 . S
C1655 C1657 1.433 . S
C1656 C1652 1.350 . S
C1656 C1653 1.463 . S
C1656 N1660 1.427 . S
C1657 H1647 0.929 . S
C1657 C1655 1.433 . S
C1657 N1660 1.384 . S
C1658 H1649 0.929 . S
C1658 C1650 1.378 . S
C1658 C1653 1.350 . S
C1659 H1646 0.929 . S
C1659 C1651 1.433 . S
C1659 N1661 1.384 . S
N1660 C1656 1.427 . S
N1660 C1657 1.384 . S
N1661 C1653 1.427 . S
N1661 C1659 1.384 . S
H1662 C1668 0.930 . S
H1663 C1672 0.930 . S
H1664 C1677 0.929 . S
H1665 C1675 0.929 . S
H1666 C1670 0.929 . S
H1667 C1676 0.929 . S
C1668 H1662 0.930 . S
C1668 C1669 1.367 . S
C1668 C1676 1.378 . S
C1669 C1668 1.367 . S
C1669 C1677 1.433 . S
C1670 H1666 0.929 . S
C1670 C1672 1.378 . S
C1670 C1674 1.350 . S
C1671 C1674 1.463 . S
C1671 C1676 1.350 . S
C1671 N1679 1.427 . S
C1672 H1663 0.930 . S
C1672 C1670 1.378 . S
C1672 C1673 1.367 . S
C1673 C1672 1.367 . S
C1673 C1675 1.433 . S
C1674 C1670 1.350 . S
C1674 C1671 1.463 . S
C1674 N1678 1.427 . S
C1675 H1665 0.929 . S
C1675 C1673 1.433 . S
C1675 N1678 1.384 . S
C1676 H1667 0.929 . S
C1676 C1668 1.378 . S
C1676 C1671 1.350 . S
C1677 H1664 0.929 . S
C1677 C1669 1.433 . S
C1677 N1679 1.384 . S
N1678 C1674 1.427 . S
N1678 C1675 1.384 . S
N1679 C1671 1.427 . S
N1679 C1677 1.384 . S
H1680 C1686 0.930 . S
H1681 C1690 0.930 . S
H1682 C1695 0.929 . S
H1683 C1693 0.929 . S
H1684 C1688 0.929 . S
H1685 C1694 0.929 . S
C1686 H1680 0.930 . S
C1686 C1687 1.367 . S
C1686 C1694 1.378 . S
C1687 C1686 1.367 . S
C1687 C1695 1.433 . S
C1688 H1684 0.929 . S
C1688 C1690 1.378 . S
C1688 C1692 1.350 . S
C1689 C1692 1.463 . S
C1689 C1694 1.350 . S
C1689 N1697 1.427 . S
C1690 H1681 0.930 . S
C1690 C1688 1.378 . S
C1690 C1691 1.367 . S
C1691 C1690 1.367 . S
C1691 C1693 1.433 . S
C1692 C1688 1.350 . S
C1692 C1689 1.463 . S
C1692 N1696 1.427 . S
C1693 H1683 0.929 . S
C1693 C1691 1.433 . S
C1693 N1696 1.384 . S
C1694 H1685 0.929 . S
C1694 C1686 1.378 . S
C1694 C1689 1.350 . S
C1695 H1682 0.929 . S
C1695 C1687 1.433 . S
C1695 N1697 1.384 . S
N1696 C1692 1.427 . S
N1696 C1693 1.384 . S
N1697 C1689 1.427 . S
N1697 C1695 1.384 . S
H1698 C1704 0.930 . S
H1699 C1708 0.930 . S
H1700 C1713 0.929 . S
H1701 C1711 0.929 . S
H1702 C1706 0.929 . S
H1703 C1712 0.929 . S
C1704 H1698 0.930 . S
C1704 C1705 1.367 . S
C1704 C1712 1.378 . S
C1705 C1704 1.367 . S
C1705 C1713 1.433 . S
C1706 H1702 0.929 . S
C1706 C1708 1.378 . S
C1706 C1710 1.350 . S
C1707 C1710 1.463 . S
C1707 C1712 1.350 . S
C1707 N1715 1.427 . S
C1708 H1699 0.930 . S
C1708 C1706 1.378 . S
C1708 C1709 1.367 . S
C1709 C1708 1.367 . S
C1709 C1711 1.433 . S
C1710 C1706 1.350 . S
C1710 C1707 1.463 . S
C1710 N1714 1.427 . S
C1711 H1701 0.929 . S
C1711 C1709 1.433 . S
C1711 N1714 1.384 . S
C1712 H1703 0.929 . S
C1712 C1704 1.378 . S
C1712 C1707 1.350 . S
C1713 H1700 0.929 . S
C1713 C1705 1.433 . S
C1713 N1715 1.384 . S
N1714 C1710 1.427 . S
N1714 C1711 1.384 . S
N1715 C1707 1.427 . S
N1715 C1713 1.384 . S
H1716 C1722 0.930 . S
H1717 C1726 0.930 . S
H1718 C1731 0.929 . S
H1719 C1729 0.929 . S
H1720 C1724 0.929 . S
H1721 C1730 0.929 . S
C1722 H1716 0.930 . S
C1722 C1723 1.367 . S
C1722 C1730 1.378 . S
C1723 C1722 1.367 . S
C1723 C1731 1.433 . S
C1724 H1720 0.929 . S
C1724 C1726 1.378 . S
C1724 C1728 1.350 . S
C1725 C1728 1.463 . S
C1725 C1730 1.350 . S
C1725 N1733 1.427 . S
C1726 H1717 0.930 . S
C1726 C1724 1.378 . S
C1726 C1727 1.367 . S
C1727 C1726 1.367 . S
C1727 C1729 1.433 . S
C1728 C1724 1.350 . S
C1728 C1725 1.463 . S
C1728 N1732 1.427 . S
C1729 H1719 0.929 . S
C1729 C1727 1.433 . S
C1729 N1732 1.384 . S
C1730 H1721 0.929 . S
C1730 C1722 1.378 . S
C1730 C1725 1.350 . S
C1731 H1718 0.929 . S
C1731 C1723 1.433 . S
C1731 N1733 1.384 . S
N1732 C1728 1.427 . S
N1732 C1729 1.384 . S
N1733 C1725 1.427 . S
N1733 C1731 1.384 . S
H1734 C1740 0.930 . S
H1735 C1744 0.930 . S
H1736 C1749 0.929 . S
H1737 C1747 0.929 . S
H1738 C1742 0.929 . S
H1739 C1748 0.929 . S
C1740 H1734 0.930 . S
C1740 C1741 1.367 . S
C1740 C1748 1.378 . S
C1741 C1740 1.367 . S
C1741 C1749 1.433 . S
C1742 H1738 0.929 . S
C1742 C1744 1.378 . S
C1742 C1746 1.350 . S
C1743 C1746 1.463 . S
C1743 C1748 1.350 . S
C1743 N1751 1.427 . S
C1744 H1735 0.930 . S
C1744 C1742 1.378 . S
C1744 C1745 1.367 . S
C1745 C1744 1.367 . S
C1745 C1747 1.433 . S
C1746 C1742 1.350 . S
C1746 C1743 1.463 . S
C1746 N1750 1.427 . S
C1747 H1737 0.929 . S
C1747 C1745 1.433 . S
C1747 N1750 1.384 . S
C1748 H1739 0.929 . S
C1748 C1740 1.378 . S
C1748 C1743 1.350 . S
C1749 H1736 0.929 . S
C1749 C1741 1.433 . S
C1749 N1751 1.384 . S
N1750 C1746 1.427 . S
N1750 C1747 1.384 . S
N1751 C1743 1.427 . S
N1751 C1749 1.384 . S
H1752 C1758 0.930 . S
H1753 C1762 0.930 . S
H1754 C1767 0.929 . S
H1755 C1765 0.929 . S
H1756 C1760 0.929 . S
H1757 C1766 0.929 . S
C1758 H1752 0.930 . S
C1758 C1759 1.367 . S
C1758 C1766 1.378 . S
C1759 C1758 1.367 . S
C1759 C1767 1.433 . S
C1760 H1756 0.929 . S
C1760 C1762 1.378 . S
C1760 C1764 1.350 . S
C1761 C1764 1.463 . S
C1761 C1766 1.350 . S
C1761 N1769 1.427 . S
C1762 H1753 0.930 . S
C1762 C1760 1.378 . S
C1762 C1763 1.367 . S
C1763 C1762 1.367 . S
C1763 C1765 1.433 . S
C1764 C1760 1.350 . S
C1764 C1761 1.463 . S
C1764 N1768 1.427 . S
C1765 H1755 0.929 . S
C1765 C1763 1.433 . S
C1765 N1768 1.384 . S
C1766 H1757 0.929 . S
C1766 C1758 1.378 . S
C1766 C1761 1.350 . S
C1767 H1754 0.929 . S
C1767 C1759 1.433 . S
C1767 N1769 1.384 . S
N1768 C1764 1.427 . S
N1768 C1765 1.384 . S
N1769 C1761 1.427 . S
N1769 C1767 1.384 . S
H1770 C1776 0.930 . S
H1771 C1780 0.930 . S
H1772 C1785 0.929 . S
H1773 C1783 0.929 . S
H1774 C1778 0.929 . S
H1775 C1784 0.929 . S
C1776 H1770 0.930 . S
C1776 C1777 1.367 . S
C1776 C1784 1.378 . S
C1777 C1776 1.367 . S
C1777 C1785 1.433 . S
C1778 H1774 0.929 . S
C1778 C1780 1.378 . S
C1778 C1782 1.350 . S
C1779 C1782 1.463 . S
C1779 C1784 1.350 . S
C1779 N1787 1.427 . S
C1780 H1771 0.930 . S
C1780 C1778 1.378 . S
C1780 C1781 1.367 . S
C1781 C1780 1.367 . S
C1781 C1783 1.433 . S
C1782 C1778 1.350 . S
C1782 C1779 1.463 . S
C1782 N1786 1.427 . S
C1783 H1773 0.929 . S
C1783 C1781 1.433 . S
C1783 N1786 1.384 . S
C1784 H1775 0.929 . S
C1784 C1776 1.378 . S
C1784 C1779 1.350 . S
C1785 H1772 0.929 . S
C1785 C1777 1.433 . S
C1785 N1787 1.384 . S
N1786 C1782 1.427 . S
N1786 C1783 1.384 . S
N1787 C1779 1.427 . S
N1787 C1785 1.384 . S
H1788 C1794 0.930 . S
H1789 C1798 0.930 . S
H1790 C1803 0.929 . S
H1791 C1801 0.929 . S
H1792 C1796 0.929 . S
H1793 C1802 0.929 . S
C1794 H1788 0.930 . S
C1794 C1795 1.367 . S
C1794 C1802 1.378 . S
C1795 C1794 1.367 . S
C1795 C1803 1.433 . S
C1796 H1792 0.929 . S
C1796 C1798 1.378 . S
C1796 C1800 1.350 . S
C1797 C1800 1.463 . S
C1797 C1802 1.350 . S
C1797 N1805 1.427 . S
C1798 H1789 0.930 . S
C1798 C1796 1.378 . S
C1798 C1799 1.367 . S
C1799 C1798 1.367 . S
C1799 C1801 1.433 . S
C1800 C1796 1.350 . S
C1800 C1797 1.463 . S
C1800 N1804 1.427 . S
C1801 H1791 0.929 . S
C1801 C1799 1.433 . S
C1801 N1804 1.384 . S
C1802 H1793 0.929 . S
C1802 C1794 1.378 . S
C1802 C1797 1.350 . S
C1803 H1790 0.929 . S
C1803 C1795 1.433 . S
C1803 N1805 1.384 . S
N1804 C1800 1.427 . S
N1804 C1801 1.384 . S
N1805 C1797 1.427 . S
N1805 C1803 1.384 . S
H1806 C1812 0.930 . S
H1807 C1816 0.930 . S
H1808 C1821 0.929 . S
H1809 C1819 0.929 . S
H1810 C1814 0.929 . S
H1811 C1820 0.929 . S
C1812 H1806 0.930 . S
C1812 C1813 1.367 . S
C1812 C1820 1.378 . S
C1813 C1812 1.367 . S
C1813 C1821 1.433 . S
C1814 H1810 0.929 . S
C1814 C1816 1.378 . S
C1814 C1818 1.350 . S
C1815 C1818 1.463 . S
C1815 C1820 1.350 . S
C1815 N1823 1.427 . S
C1816 H1807 0.930 . S
C1816 C1814 1.378 . S
C1816 C1817 1.367 . S
C1817 C1816 1.367 . S
C1817 C1819 1.433 . S
C1818 C1814 1.350 . S
C1818 C1815 1.463 . S
C1818 N1822 1.427 . S
C1819 H1809 0.929 . S
C1819 C1817 1.433 . S
C1819 N1822 1.384 . S
C1820 H1811 0.929 . S
C1820 C1812 1.378 . S
C1820 C1815 1.350 . S
C1821 H1808 0.929 . S
C1821 C1813 1.433 . S
C1821 N1823 1.384 . S
N1822 C1818 1.427 . S
N1822 C1819 1.384 . S
N1823 C1815 1.427 . S
N1823 C1821 1.384 . S
H1824 C1830 0.930 . S
H1825 C1834 0.930 . S
H1826 C1839 0.929 . S
H1827 C1837 0.929 . S
H1828 C1832 0.929 . S
H1829 C1838 0.929 . S
C1830 H1824 0.930 . S
C1830 C1831 1.367 . S
C1830 C1838 1.378 . S
C1831 C1830 1.367 . S
C1831 C1839 1.433 . S
C1832 H1828 0.929 . S
C1832 C1834 1.378 . S
C1832 C1836 1.350 . S
C1833 C1836 1.463 . S
C1833 C1838 1.350 . S
C1833 N1841 1.427 . S
C1834 H1825 0.930 . S
C1834 C1832 1.378 . S
C1834 C1835 1.367 . S
C1835 C1834 1.367 . S
C1835 C1837 1.433 . S
C1836 C1832 1.350 . S
C1836 C1833 1.463 . S
C1836 N1840 1.427 . S
C1837 H1827 0.929 . S
C1837 C1835 1.433 . S
C1837 N1840 1.384 . S
C1838 H1829 0.929 . S
C1838 C1830 1.378 . S
C1838 C1833 1.350 . S
C1839 H1826 0.929 . S
C1839 C1831 1.433 . S
C1839 N1841 1.384 . S
N1840 C1836 1.427 . S
N1840 C1837 1.384 . S
N1841 C1833 1.427 . S
N1841 C1839 1.384 . S
H1842 C1848 0.930 . S
H1843 C1852 0.930 . S
H1844 C1857 0.929 . S
H1845 C1855 0.929 . S
H1846 C1850 0.929 . S
H1847 C1856 0.929 . S
C1848 H1842 0.930 . S
C1848 C1849 1.367 . S
C1848 C1856 1.378 . S
C1849 C1848 1.367 . S
C1849 C1857 1.433 . S
C1850 H1846 0.929 . S
C1850 C1852 1.378 . S
C1850 C1854 1.350 . S
C1851 C1854 1.463 . S
C1851 C1856 1.350 . S
C1851 N1859 1.427 . S
C1852 H1843 0.930 . S
C1852 C1850 1.378 . S
C1852 C1853 1.367 . S
C1853 C1852 1.367 . S
C1853 C1855 1.433 . S
C1854 C1850 1.350 . S
C1854 C1851 1.463 . S
C1854 N1858 1.427 . S
C1855 H1845 0.929 . S
C1855 C1853 1.433 . S
C1855 N1858 1.384 . S
C1856 H1847 0.929 . S
C1856 C1848 1.378 . S
C1856 C1851 1.350 . S
C1857 H1844 0.929 . S
C1857 C1849 1.433 . S
C1857 N1859 1.384 . S
N1858 C1854 1.427 . S
N1858 C1855 1.384 . S
N1859 C1851 1.427 . S
N1859 C1857 1.384 . S
C1007 C707 1.422 . S
C1003 C74 1.387 . S
C1025 C685 1.559 . S
C1021 C153 1.514 . S
C1043 C682 0.932 . S
C1039 C231 0.937 . S
C1057 C310 0.616 . S
C1061 C694 0.343 . S
C1075 C394 1.512 . S
C1079 C677 1.539 . S
C1097 C699 0.931 . S
C1093 C494 0.936 . S
C1111 C573 0.653 . S
C1115 C704 0.301 . S
C1129 C651 1.384 . S
C1133 C700 1.416 . S
C1151 C758 2.728 . S
C1147 C56 2.792 . S
C1165 C151 1.383 . S
C1169 C808 1.378 . S
C1187 C731 1.572 . S
C1183 C237 1.493 . S
C1205 C807 0.958 . S
C1201 C326 0.949 . S
C1219 C410 0.916 . S
C1223 C736 0.945 . S
C1241 C802 2.731 . S
C1237 C476 2.793 . S
C1255 C571 1.402 . S
C1259 C761 1.397 . S
C1273 C657 1.491 . S
C1277 C793 1.574 . S
C1291 C58 1.512 . S
C1295 C785 1.571 . S
C1309 C392 1.394 . S
C1313 C815 1.389 . S
C1331 C739 1.587 . S
C1327 C478 1.507 . S
C1349 C790 0.978 . S
C1345 C567 0.955 . S
C1363 C655 2.795 . S
C1367 C748 2.730 . S
C1381 C235 2.807 . S
C1385 C812 2.741 . S
C1403 C754 1.396 . S
C1399 C308 1.403 . S
C1417 C147 0.949 . S
C1421 C753 0.948 . S
C1435 C662 1.383 . S
C1439 C869 1.421 . S
C1453 C405 1.521 . S
C1457 C847 1.553 . S
C1475 C844 0.935 . S
C1471 C483 0.919 . S
C1493 C856 0.350 . S
C1489 C562 0.620 . S
C1507 C142 1.501 . S
C1511 C839 1.550 . S
C1529 C861 0.932 . S
C1525 C242 0.927 . S
C1543 C321 0.638 . S
C1547 C866 0.338 . S
C1561 C63 1.382 . S
C1565 C862 1.417 . S
C1579 C644 2.792 . S
C1583 C920 2.725 . S
C1601 C970 1.371 . S
C1597 C403 1.382 . S
C1615 C489 1.511 . S
C1619 C893 1.569 . S
C1633 C578 0.949 . S
C1637 C969 0.958 . S
C1655 C898 0.941 . S
C1651 C158 0.920 . S
C1669 C224 2.794 . S
C1673 C964 2.729 . S
C1691 C923 1.397 . S
C1687 C319 1.402 . S
C1709 C955 1.569 . S
C1705 C69 1.503 . S
C1727 C947 1.581 . S
C1723 C646 1.494 . S
C1741 C140 1.394 . S
C1745 C977 1.389 . S
C1759 C226 1.508 . S
C1763 C901 1.589 . S
C1781 C952 0.968 . S
C1777 C315 0.951 . S
C1795 C67 2.795 . S
C1799 C910 2.723 . S
C1813 C487 2.806 . S
C1817 C974 2.746 . S
C1835 C916 1.403 . S
C1831 C560 1.408 . S
C1853 C915 0.958 . S
C1849 C399 0.929 . S
