# Generated by pormake.
# Topology csq, (4,8)-cn, num edge types: 1
# Building blocks:
#     Node 0, Type 0, BuildingBlock: KOZSID_clean_sbu_0, # of connection points: 4
#     Node 1, Type 0, BuildingBlock: KOZSID_clean_sbu_0, # of connection points: 4
#     Node 2, Type 0, BuildingBlock: KOZSID_clean_sbu_0, # of connection points: 4
#     Node 3, Type 0, BuildingBlock: KOZSID_clean_sbu_0, # of connection points: 4
#     Node 4, Type 0, BuildingBlock: KOZSID_clean_sbu_0, # of connection points: 4
#     Node 5, Type 0, BuildingBlock: KOZSID_clean_sbu_0, # of connection points: 4
#     Node 6, Type 1, BuildingBlock: TAGTUT_clean_sbu_1, # of connection points: 8
#     Node 7, Type 1, BuildingBlock: TAGTUT_clean_sbu_1, # of connection points: 8
#     Node 8, Type 1, BuildingBlock: TAGTUT_clean_sbu_1, # of connection points: 8
#     Edge 9, Type (0, 1), BuildingBlock: EYOCIG_clean_linker_4, # of connection points: 2
#     Edge 10, Type (0, 1), BuildingBlock: EYOCIG_clean_linker_4, # of connection points: 2
#     Edge 11, Type (0, 1), BuildingBlock: EYOCIG_clean_linker_4, # of connection points: 2
#     Edge 12, Type (0, 1), BuildingBlock: EYOCIG_clean_linker_4, # of connection points: 2
#     Edge 13, Type (0, 1), BuildingBlock: EYOCIG_clean_linker_4, # of connection points: 2
#     Edge 14, Type (0, 1), BuildingBlock: EYOCIG_clean_linker_4, # of connection points: 2
#     Edge 15, Type (0, 1), BuildingBlock: EYOCIG_clean_linker_4, # of connection points: 2
#     Edge 16, Type (0, 1), BuildingBlock: EYOCIG_clean_linker_4, # of connection points: 2
#     Edge 17, Type (0, 1), BuildingBlock: EYOCIG_clean_linker_4, # of connection points: 2
#     Edge 18, Type (0, 1), BuildingBlock: EYOCIG_clean_linker_4, # of connection points: 2
#     Edge 19, Type (0, 1), BuildingBlock: EYOCIG_clean_linker_4, # of connection points: 2
#     Edge 20, Type (0, 1), BuildingBlock: EYOCIG_clean_linker_4, # of connection points: 2
#     Edge 21, Type (0, 1), BuildingBlock: EYOCIG_clean_linker_4, # of connection points: 2
#     Edge 22, Type (0, 1), BuildingBlock: EYOCIG_clean_linker_4, # of connection points: 2
#     Edge 23, Type (0, 1), BuildingBlock: EYOCIG_clean_linker_4, # of connection points: 2
#     Edge 24, Type (0, 1), BuildingBlock: EYOCIG_clean_linker_4, # of connection points: 2
#     Edge 25, Type (0, 1), BuildingBlock: EYOCIG_clean_linker_4, # of connection points: 2
#     Edge 26, Type (0, 1), BuildingBlock: EYOCIG_clean_linker_4, # of connection points: 2
#     Edge 27, Type (0, 1), BuildingBlock: EYOCIG_clean_linker_4, # of connection points: 2
#     Edge 28, Type (0, 1), BuildingBlock: EYOCIG_clean_linker_4, # of connection points: 2
#     Edge 29, Type (0, 1), BuildingBlock: EYOCIG_clean_linker_4, # of connection points: 2
#     Edge 30, Type (0, 1), BuildingBlock: EYOCIG_clean_linker_4, # of connection points: 2
#     Edge 31, Type (0, 1), BuildingBlock: EYOCIG_clean_linker_4, # of connection points: 2
#     Edge 32, Type (0, 1), BuildingBlock: EYOCIG_clean_linker_4, # of connection points: 2
# Relax obj value: 0.037
# Max RMSD: 0.132
# Mean RMSD: 0.041
data_MOF--net-csq--node1-KOZSID_clean_sbu_0--node2-TAGTUT_clean_sbu_1--edge1-EYOCIG_clean_linker_4
_symmetry_space_group_name_H-M    P1
_symmetry_Int_Tables_number       1
_symmetry_cell_setting            triclinic
loop_
_symmetry_equiv_pos_as_xyz
'x, y, z'
_cell_length_a     46.329927
_cell_length_b     46.28525
_cell_length_c     17.179827
_cell_angle_alpha  87.257875
_cell_angle_beta   97.834036
_cell_angle_gamma 119.94234
loop_
_atom_site_label
_atom_site_type_symbol
_atom_site_fract_x
_atom_site_fract_y
_atom_site_fract_z
_atom_type_partial_charge
C0 C 0.30174 0.49313 0.35529 0.0
C1 C 0.32729 0.52396 0.38604 0.0
C2 C 0.32416 0.54751 0.34094 0.0
C3 C 0.29705 0.52982 0.2856 0.0
N4 N 0.28256 0.49634 0.29257 0.0
Co5 Co 0.24275 0.46118 0.22454 0.0
N6 N 0.23841 0.49586 0.15787 0.0
C7 C 0.25712 0.52939 0.16799 0.0
C8 C 0.24828 0.54668 0.11216 0.0
C9 C 0.22258 0.52282 0.06287 0.0
C10 C 0.21729 0.49222 0.09171 0.0
N11 N 0.20318 0.42599 0.15592 0.0
C12 C 0.18573 0.42909 0.08936 0.0
C13 C 0.16042 0.39826 0.05811 0.0
C14 C 0.16218 0.37478 0.10635 0.0
C15 C 0.18831 0.39255 0.16387 0.0
N16 N 0.24693 0.42645 0.29168 0.0
C17 C 0.22693 0.39298 0.28441 0.0
C18 C 0.23605 0.37562 0.33957 0.0
C19 C 0.26356 0.39945 0.38503 0.0
C20 C 0.26955 0.43001 0.35463 0.0
N21 N 0.21192 0.4622 0.29577 0.0
C22 C 0.16869 0.46498 0.39516 0.0
C23 C 0.16314 0.43447 0.36714 0.0
C24 C 0.18489 0.43362 0.31808 0.0
C25 C 0.19626 0.49388 0.37312 0.0
C26 C 0.21723 0.49198 0.32413 0.0
N27 N 0.27356 0.46059 0.15314 0.0
C28 C 0.29097 0.431 0.07395 0.0
C29 C 0.31575 0.46097 0.0462 0.0
C30 C 0.31925 0.49056 0.07373 0.0
C31 C 0.29825 0.48985 0.12655 0.0
C32 C 0.27031 0.43135 0.12703 0.0
H33 H 0.30239 0.51344 0.14467 0.0
H34 H 0.2517 0.40772 0.14595 0.0
H35 H 0.17928 0.40957 0.29877 0.0
H36 H 0.23756 0.51517 0.30995 0.0
C37 C 0.28423 0.54395 0.22736 0.0
C38 C 0.29726 0.46165 0.38669 0.0
C39 C 0.19239 0.46053 0.05348 0.0
C40 C 0.20023 0.37854 0.22425 0.0
H41 H 0.34626 0.5289 0.4359 0.0
H42 H 0.33974 0.57432 0.34779 0.0
H43 H 0.25969 0.57345 0.10687 0.0
H44 H 0.20955 0.52741 0.01084 0.0
H45 H 0.14277 0.39327 0.0054 0.0
H46 H 0.14665 0.34795 0.09957 0.0
H47 H 0.22423 0.34885 0.34567 0.0
H48 H 0.27772 0.39492 0.43479 0.0
H49 H 0.14202 0.41131 0.3826 0.0
H50 H 0.20163 0.51811 0.39326 0.0
H51 H 0.28741 0.40737 0.05466 0.0
H52 H 0.33816 0.51438 0.05435 0.0
C53 C 0.84889 0.25836 0.08206 0.0
C54 C 0.87492 0.25326 0.06909 0.0
C55 C 0.86834 0.22338 0.10161 0.0
C56 C 0.83876 0.21197 0.13235 0.0
N57 N 0.82567 0.23241 0.11961 0.0
Co58 Co 0.78501 0.22759 0.16063 0.0
N59 N 0.78072 0.18931 0.22788 0.0
C60 C 0.80044 0.17528 0.23259 0.0
C61 C 0.79177 0.14974 0.28461 0.0
C62 C 0.765 0.1474 0.31527 0.0
C63 C 0.7588 0.17172 0.27991 0.0
N64 N 0.74409 0.22266 0.20066 0.0
C65 C 0.72526 0.20154 0.2541 0.0
C66 C 0.69854 0.20614 0.26395 0.0
C67 C 0.70058 0.23104 0.21515 0.0
C68 C 0.72823 0.24018 0.17824 0.0
N69 N 0.79017 0.26675 0.09587 0.0
C70 C 0.76965 0.27993 0.08742 0.0
C71 C 0.78162 0.3088 0.04586 0.0
C72 C 0.81214 0.31504 0.02891 0.0
C73 C 0.81696 0.28948 0.06128 0.0
N74 N 0.75543 0.19599 0.07152 0.0
C75 C 0.71151 0.15057 0.94941 0.0
C76 C 0.70992 0.17891 0.96437 0.0
C77 C 0.73196 0.20112 0.0249 0.0
C78 C 0.73566 0.14529 0.99486 0.0
C79 C 0.7573 0.16823 0.05522 0.0
N80 N 0.81446 0.25919 0.24753 0.0
C81 C 0.83376 0.31205 0.31151 0.0
C82 C 0.86459 0.31435 0.33738 0.0
C83 C 0.86908 0.28743 0.32474 0.0
C84 C 0.84344 0.25981 0.28055 0.0
C85 C 0.80894 0.28415 0.26749 0.0
H86 H 0.84807 0.23994 0.27048 0.0
H87 H 0.78613 0.28406 0.24685 0.0
H88 H 0.72903 0.22199 0.03286 0.0
H89 H 0.77498 0.16264 0.0881 0.0
C90 C 0.82654 0.18632 0.18634 0.0
C91 C 0.84831 0.28913 0.06334 0.0
C92 C 0.73154 0.17678 0.29674 0.0
C93 C 0.74125 0.26664 0.12655 0.0
H94 H 0.89711 0.27016 0.04234 0.0
H95 H 0.88451 0.21254 0.10738 0.0
H96 H 0.80345 0.13456 0.29843 0.0
H97 H 0.75144 0.12972 0.35849 0.0
H98 H 0.67964 0.19298 0.3028 0.0
H99 H 0.68418 0.24161 0.20841 0.0
H100 H 0.7704 0.32444 0.03327 0.0
H101 H 0.82954 0.33668 0.99915 0.0
H102 H 0.69138 0.18376 0.93018 0.0
H103 H 0.73752 0.12337 0.98484 0.0
H104 H 0.82922 0.3322 0.32276 0.0
H105 H 0.8925 0.28811 0.3466 0.0
C106 C 0.58623 0.74435 0.14601 0.0
C107 C 0.61736 0.74832 0.17627 0.0
C108 C 0.64093 0.77714 0.14645 0.0
C109 C 0.62297 0.78913 0.09973 0.0
N110 N 0.58933 0.76997 0.09878 0.0
Co111 Co 0.55404 0.77645 0.03136 0.0
N112 N 0.58862 0.81892 0.98726 0.0
C113 C 0.62237 0.83333 0.00474 0.0
C114 C 0.63963 0.86377 0.97112 0.0
C115 C 0.61544 0.86959 0.9314 0.0
C116 C 0.58471 0.8422 0.94292 0.0
N117 N 0.51872 0.7822 0.96211 0.0
C118 C 0.52146 0.80834 0.91781 0.0
C119 C 0.49038 0.80253 0.88105 0.0
C120 C 0.46712 0.77202 0.90432 0.0
C121 C 0.4852 0.76088 0.95351 0.0
N122 N 0.51922 0.73481 0.07762 0.0
C123 C 0.48548 0.72073 0.06048 0.0
C124 C 0.46786 0.69203 0.10007 0.0
C125 C 0.49172 0.68721 0.14471 0.0
C126 C 0.52269 0.71332 0.12948 0.0
N127 N 0.55309 0.80332 0.11435 0.0
C128 C 0.55444 0.85638 0.18423 0.0
C129 C 0.52379 0.82868 0.15794 0.0
C130 C 0.52366 0.80197 0.12418 0.0
C131 C 0.58395 0.85531 0.18674 0.0
C132 C 0.58258 0.82798 0.15274 0.0
N133 N 0.55556 0.74964 0.94839 0.0
C134 C 0.53152 0.69314 0.90333 0.0
C135 C 0.56369 0.69844 0.90118 0.0
C136 C 0.59085 0.73064 0.90746 0.0
C137 C 0.58591 0.75628 0.92867 0.0
C138 C 0.52794 0.71959 0.92507 0.0
H139 H 0.60741 0.78057 0.93458 0.0
H140 H 0.50308 0.71455 0.92891 0.0
H141 H 0.49981 0.78173 0.10115 0.0
H142 H 0.60585 0.82853 0.15291 0.0
C143 C 0.63686 0.81822 0.05597 0.0
C144 C 0.55448 0.71543 0.16225 0.0
C145 C 0.55248 0.83986 0.9129 0.0
C146 C 0.47119 0.73333 0.00154 0.0
H147 H 0.62245 0.73179 0.21497 0.0
H148 H 0.66794 0.78784 0.15675 0.0
H149 H 0.66656 0.88025 0.97685 0.0
H150 H 0.61985 0.89177 0.89908 0.0
H151 H 0.48496 0.8192 0.84373 0.0
H152 H 0.44008 0.76022 0.89059 0.0
H153 H 0.44089 0.67589 0.09495 0.0
H154 H 0.48686 0.66627 0.18243 0.0
H155 H 0.50036 0.82851 0.15882 0.0
H156 H 0.60798 0.87613 0.21029 0.0
H157 H 0.50962 0.66852 0.89304 0.0
H158 H 0.61583 0.73569 0.90029 0.0
C159 C 0.84548 0.58324 0.22902 0.0
C160 C 0.87075 0.61433 0.25875 0.0
C161 C 0.86727 0.63744 0.21231 0.0
C162 C 0.84019 0.61926 0.15715 0.0
N163 N 0.82623 0.58588 0.16514 0.0
Co164 Co 0.78619 0.55029 0.09788 0.0
N165 N 0.78042 0.58438 0.03124 0.0
C166 C 0.80014 0.61792 0.03782 0.0
C167 C 0.78982 0.63486 0.98411 0.0
C168 C 0.76171 0.61072 0.9407 0.0
C169 C 0.75651 0.58035 0.97067 0.0
N170 N 0.74592 0.51466 0.03141 0.0
C171 C 0.72527 0.51728 0.97106 0.0
C172 C 0.69981 0.48617 0.94174 0.0
C173 C 0.70436 0.46306 0.98542 0.0
C174 C 0.73218 0.48125 0.03865 0.0
N175 N 0.79208 0.51616 0.16397 0.0
C176 C 0.7735 0.48259 0.15455 0.0
C177 C 0.78362 0.46559 0.20841 0.0
C178 C 0.81022 0.48968 0.25542 0.0
C179 C 0.81477 0.52014 0.22739 0.0
N180 N 0.75618 0.55057 0.17041 0.0
C181 C 0.71346 0.55019 0.2734 0.0
C182 C 0.71054 0.52054 0.24874 0.0
C183 C 0.73196 0.52126 0.19768 0.0
C184 C 0.738 0.58016 0.24598 0.0
C185 C 0.75902 0.57981 0.1948 0.0
N186 N 0.81628 0.54989 0.02528 0.0
C187 C 0.83302 0.51909 0.9495 0.0
C188 C 0.86017 0.54848 0.92842 0.0
C189 C 0.86484 0.57873 0.95476 0.0
C190 C 0.84267 0.57888 0.00268 0.0
C191 C 0.81154 0.52033 0.99737 0.0
H192 H 0.84763 0.60272 0.02127 0.0
H193 H 0.79153 0.49694 0.01153 0.0
H194 H 0.72838 0.49774 0.18104 0.0
H195 H 0.77736 0.60341 0.17563 0.0
C196 C 0.82727 0.63275 0.09726 0.0
C197 C 0.8408 0.552 0.26351 0.0
C198 C 0.72822 0.54842 0.94065 0.0
C199 C 0.74594 0.46769 0.09624 0.0
H200 H 0.88969 0.6197 0.30894 0.0
H201 H 0.8826 0.66431 0.21819 0.0
H202 H 0.8011 0.66159 0.97803 0.0
H203 H 0.74653 0.61495 0.89288 0.0
H204 H 0.67986 0.48074 0.89399 0.0
H205 H 0.68908 0.4362 0.97944 0.0
H206 H 0.77271 0.43886 0.21343 0.0
H207 H 0.82453 0.48532 0.30509 0.0
H208 H 0.69169 0.49678 0.26857 0.0
H209 H 0.74092 0.60373 0.26367 0.0
H210 H 0.82859 0.49511 0.93008 0.0
H211 H 0.88573 0.60213 0.93948 0.0
C212 C 0.27626 0.85003 0.19709 0.0
C213 C 0.2719 0.8772 0.20584 0.0
C214 C 0.24319 0.87105 0.15804 0.0
C215 C 0.23164 0.8406 0.12264 0.0
N216 N 0.25122 0.82688 0.14507 0.0
Co217 Co 0.24334 0.78269 0.10749 0.0
N218 N 0.19949 0.7721 0.04236 0.0
C219 C 0.18552 0.79187 0.03386 0.0
C220 C 0.15436 0.7772 0.99017 0.0
C221 C 0.14771 0.74593 0.9709 0.0
C222 C 0.17529 0.74326 0.00397 0.0
N223 N 0.23579 0.7387 0.0694 0.0
C224 C 0.20875 0.71351 0.0263 0.0
C225 C 0.21398 0.68711 0.01429 0.0
C226 C 0.24501 0.69551 0.05248 0.0
C227 C 0.25702 0.72646 0.08531 0.0
N228 N 0.28651 0.79243 0.17441 0.0
C229 C 0.30067 0.77282 0.18152 0.0
C230 C 0.32962 0.78521 0.23328 0.0
C231 C 0.33432 0.81449 0.26135 0.0
C232 C 0.30784 0.81838 0.22482 0.0
N233 N 0.21835 0.76047 0.1958 0.0
C234 C 0.16767 0.71418 0.27679 0.0
C235 C 0.19539 0.71069 0.2709 0.0
C236 C 0.22088 0.73457 0.23113 0.0
C237 C 0.16765 0.74315 0.25223 0.0
C238 C 0.19374 0.76642 0.21299 0.0
N239 N 0.26795 0.80481 0.01703 0.0
C240 C 0.31039 0.8147 0.9354 0.0
C241 C 0.30178 0.83495 0.8875 0.0
C242 C 0.27626 0.84016 0.90435 0.0
C243 C 0.25974 0.82491 0.96913 0.0
C244 C 0.29325 0.79995 -0.00039 0.0
H245 H 0.24071 0.8301 0.97929 0.0
H246 H 0.30125 0.78508 0.03442 0.0
H247 H 0.24108 0.73039 0.22469 0.0
H248 H 0.19222 0.78774 0.19237 0.0
C249 C 0.20148 0.82326 0.0719 0.0
C250 C 0.30446 0.84731 0.23975 0.0
C251 C 0.17703 0.71259 0.99913 0.0
C252 C 0.28626 0.7429 0.13847 0.0
H253 H 0.28772 0.89906 0.24344 0.0
H254 H 0.2318 0.88668 0.15094 0.0
H255 H 0.13797 0.78762 0.97604 0.0
H256 H 0.12489 0.72696 0.93764 0.0
H257 H 0.19671 0.66373 0.98316 0.0
H258 H 0.2568 0.68024 0.05846 0.0
H259 H 0.34542 0.77421 0.24885 0.0
H260 H 0.35495 0.83114 0.30395 0.0
H261 H 0.1964 0.68877 0.29237 0.0
H262 H 0.14679 0.74687 0.25892 0.0
H263 H 0.33069 0.81079 0.92439 0.0
H264 H 0.26953 0.85642 0.8688 0.0
C265 C 0.49948 0.20041 0.32276 0.0
C266 C 0.53008 0.20555 0.36115 0.0
C267 C 0.55405 0.23551 0.33684 0.0
C268 C 0.5367 0.24678 0.28537 0.0
N269 N 0.503 0.22639 0.27766 0.0
Co270 Co 0.46797 0.23051 0.20363 0.0
N271 N 0.50334 0.2701 0.15371 0.0
C272 C 0.5371 0.28417 0.17123 0.0
C273 C 0.55473 0.31236 0.12992 0.0
C274 C 0.53085 0.31707 0.08491 0.0
C275 C 0.49993 0.29138 0.10169 0.0
N276 N 0.43292 0.23483 0.12996 0.0
C277 C 0.4365 0.26014 0.08185 0.0
C278 C 0.40571 0.25545 0.04606 0.0
C279 C 0.3817 0.22647 0.07424 0.0
C280 C 0.39916 0.2152 0.12539 0.0
N281 N 0.43278 0.19062 0.25325 0.0
C282 C 0.39903 0.17667 0.23713 0.0
C283 C 0.38172 0.1471 0.27434 0.0
C284 C 0.40587 0.14126 0.31424 0.0
C285 C 0.4365 0.16776 0.29896 0.0
N286 N 0.46689 0.26106 0.27887 0.0
C287 C 0.46535 0.31321 0.35019 0.0
C288 C 0.43563 0.284 0.32658 0.0
C289 C 0.43699 0.25807 0.29213 0.0
C290 C 0.49583 0.3149 0.34518 0.0
C291 C 0.49603 0.28845 0.31025 0.0
N292 N 0.46896 0.20008 0.12828 0.0
C293 C 0.43975 0.14796 0.05425 0.0
C294 C 0.47016 0.1497 0.04769 0.0
C295 C 0.49999 0.17786 0.07657 0.0
C296 C 0.49883 0.20282 0.11603 0.0
C297 C 0.43973 0.17355 0.09401 0.0
H298 H 0.52237 0.22347 0.13859 0.0
H299 H 0.41579 0.17076 0.09872 0.0
H300 H 0.41353 0.2365 0.27391 0.0
H301 H 0.52005 0.29141 0.30635 0.0
C302 C 0.55136 0.27287 0.23358 0.0
C303 C 0.46839 0.1689 0.3219 0.0
C304 C 0.46831 0.29018 0.07364 0.0
C305 C 0.38468 0.18877 0.17673 0.0
H306 H 0.53469 0.18843 0.39869 0.0
H307 H 0.58102 0.24641 0.35018 0.0
H308 H 0.58168 0.32862 0.1353 0.0
H309 H 0.53562 0.33794 0.04702 0.0
H310 H 0.40113 0.27203 0.00638 0.0
H311 H 0.35474 0.21589 0.06225 0.0
H312 H 0.35481 0.13049 0.26829 0.0
H313 H 0.40152 0.11922 0.34713 0.0
H314 H 0.41151 0.28154 0.33241 0.0
H315 H 0.51941 0.33694 0.36569 0.0
H316 H 0.41613 0.12665 0.03063 0.0
H317 H 0.52406 0.18022 0.07062 0.0
C318 C 0.97013 0.42062 0.91209 0.0
C319 C 0.06855 0.46362 0.83389 0.0
C320 C 0.06218 0.57775 0.78578 0.0
Mg321 Mg 0.99683 0.43197 0.75216 0.0
O322 O 0.99913 0.47311 0.76219 0.0
Mg323 Mg 0.02348 0.5008 0.86025 0.0
Mg324 Mg 0.01711 0.50711 0.6808 0.0
O325 O 0.03327 0.54081 0.59793 0.0
Mg326 Mg 0.02821 0.57803 0.61031 0.0
Mg327 Mg 0.00641 0.51127 0.50164 0.0
C328 C 0.96943 0.43721 0.57675 0.0
C329 C 0.06333 0.49156 0.5738 0.0
O330 O 0.98845 0.45214 0.92862 0.0
O331 O 0.96893 0.4077 0.84687 0.0
O332 O 0.06341 0.48447 0.86728 0.0
O333 O 0.04702 0.44194 0.78277 0.0
O334 O 0.97309 0.41922 0.63184 0.0
O335 O 0.98032 0.46849 0.58603 0.0
C336 C 0.96985 0.52248 0.78052 0.0
O337 O 0.97774 0.52096 0.71246 0.0
O338 O 0.98349 0.51603 0.84366 0.0
O339 O 0.0367 0.55797 0.43128 0.0
O340 O 0.05292 0.60234 0.5115 0.0
O341 O 0.96485 0.52566 0.49112 0.0
C342 C 0.05216 0.58943 0.44656 0.0
O343 O 0.97667 0.5658 0.57759 0.0
O344 O 0.05438 0.59302 0.72976 0.0
C345 C 0.95731 0.54513 0.52216 0.0
O346 O 0.05375 0.54659 0.77918 0.0
O347 O 0.05705 0.49302 0.64431 0.0
O348 O 0.04777 0.49758 0.51363 0.0
C349 C 0.47472 0.03752 0.83651 0.0
C350 C 0.41774 0.94516 0.70104 0.0
C351 C 0.53675 0.95354 0.68417 0.0
Mg352 Mg 0.456 0.01813 0.66007 0.0
O353 O 0.49614 0.0171 0.6793 0.0
Mg354 Mg 0.50097 0.98862 0.76589 0.0
Mg355 Mg 0.51018 0.00219 0.59297 0.0
O356 O 0.52522 0.9885 0.50642 0.0
Mg357 Mg 0.56711 0.99092 0.5289 0.0
Mg358 Mg 0.52048 0.01816 0.42113 0.0
C359 C 0.48568 0.05238 0.50478 0.0
C360 C 0.44517 0.96088 0.45624 0.0
O361 O 0.48887 0.01951 0.84731 0.0
O362 O 0.46111 0.04096 0.76952 0.0
O363 O 0.44456 0.94954 0.74357 0.0
O364 O 0.41649 0.96764 0.65756 0.0
O365 O 0.46469 0.0463 0.55316 0.0
O366 O 0.50675 0.04179 0.51404 0.0
C367 C 0.57516 0.04366 0.72621 0.0
O368 O 0.56433 0.03877 0.65238 0.0
O369 O 0.55624 0.02806 0.77907 0.0
O370 O 0.53378 0.98997 0.33968 0.0
O371 O 0.56256 0.96952 0.41798 0.0
O372 O 0.57727 0.05816 0.43894 0.0
C373 C 0.54915 0.97324 0.35086 0.0
O374 O 0.60691 0.04193 0.52486 0.0
O375 O 0.55864 0.96173 0.63662 0.0
C376 C 0.60505 0.0633 0.47789 0.0
O377 O 0.51444 0.9628 0.67443 0.0
O378 O 0.45532 0.96502 0.53077 0.0
O379 O 0.46486 0.97772 0.40558 0.0
C380 C 0.54299 0.59189 0.4037 0.0
C381 C 0.59846 0.54317 0.485 0.0
C382 C 0.47734 0.43738 0.54562 0.0
Mg383 Mg 0.56995 0.57865 0.56958 0.0
O384 O 0.52724 0.54063 0.55998 0.0
Mg385 Mg 0.51359 0.51139 0.46443 0.0
Mg386 Mg 0.51418 0.50672 0.64535 0.0
O387 O 0.49995 0.47292 0.73053 0.0
Mg388 Mg 0.45545 0.43728 0.71729 0.0
Mg389 Mg 0.51305 0.50246 0.82582 0.0
C390 C 0.55059 0.57515 0.74482 0.0
C391 C 0.58194 0.51857 0.7562 0.0
O392 O 0.52537 0.5601 0.3898 0.0
O393 O 0.56081 0.60452 0.46986 0.0
O394 O 0.56824 0.52323 0.45495 0.0
O395 O 0.60541 0.56516 0.53734 0.0
O396 O 0.56912 0.5909 0.69078 0.0
O397 O 0.52549 0.54549 0.73594 0.0
C398 C 0.44613 0.49451 0.53887 0.0
O399 O 0.46093 0.49616 0.60824 0.0
O400 O 0.46061 0.49984 0.47718 0.0
O401 O 0.50037 0.45425 0.89803 0.0
O402 O 0.46375 0.41099 0.81551 0.0
O403 O 0.45823 0.49113 0.83858 0.0
C404 C 0.48184 0.42281 0.88173 0.0
O405 O 0.41996 0.45049 0.75517 0.0
O406 O 0.45739 0.42301 0.59802 0.0
C407 C 0.42755 0.47156 0.81062 0.0
O408 O 0.50224 0.46739 0.55363 0.0
O409 O 0.56836 0.51735 0.68525 0.0
O410 O 0.56608 0.51325 0.81545 0.0
C411 C 0.12871 0.47101 0.48543 0.0
C412 C 0.14624 0.46719 0.44441 0.0
C413 C 0.10765 0.477 0.52897 0.0
C414 C 0.08855 0.48314 0.55805 0.0
C415 C 0.68723 0.13659 0.39098 0.0
C416 C 0.70841 0.15509 0.35073 0.0
C417 C 0.66024 0.1131 0.43054 0.0
C418 C 0.63569 0.09013 0.45394 0.0
C419 C 0.55111 0.6647 0.24999 0.0
C420 C 0.55396 0.68821 0.21031 0.0
C421 C 0.54663 0.63717 0.29821 0.0
C422 C 0.54363 0.61499 0.34295 0.0
C423 C 0.88247 0.55105 0.38529 0.0
C424 C 0.86338 0.55232 0.33162 0.0
C425 C 0.90653 0.54907 0.44222 0.0
C426 C 0.9299 0.54855 0.48177 0.0
C427 C 0.35411 0.894 0.33949 0.0
C428 C 0.33045 0.8738 0.29458 0.0
C429 C 0.38389 0.91666 0.38932 0.0
C430 C 0.41095 0.93596 0.4259 0.0
C431 C 0.46628 0.36633 0.40234 0.0
C432 C 0.46483 0.34162 0.37827 0.0
C433 C 0.4703 0.39469 0.43981 0.0
C434 C 0.47551 0.41633 0.48487 0.0
C435 C 0.54696 0.8896 0.83986 0.0
C436 C 0.55082 0.86804 0.87462 0.0
C437 C 0.54116 0.91305 0.79356 0.0
C438 C 0.5368 0.93147 0.74681 0.0
C439 C 0.67657 0.5429 0.84099 0.0
C440 C 0.70134 0.54715 0.88382 0.0
C441 C 0.64514 0.53526 0.79861 0.0
C442 C 0.61677 0.5279 0.77215 0.0
C443 C 0.12674 0.65434 0.93501 0.0
C444 C 0.14822 0.68132 0.96441 0.0
C445 C 0.1034 0.62303 0.89557 0.0
C446 C 0.08478 0.59894 0.85217 0.0
C447 C 0.47221 0.10019 0.9836 0.0
C448 C 0.47088 0.12256 0.01267 0.0
C449 C 0.47427 0.07555 0.94376 0.0
C450 C 0.47599 0.05699 0.90033 0.0
C451 C 0.35668 0.46427 0.94435 0.0
C452 C 0.3377 0.46189 0.99055 0.0
C453 C 0.38012 0.46738 0.89264 0.0
C454 C 0.40108 0.46868 0.85404 0.0
C455 C 0.90201 0.3449 0.02712 0.0
C456 C 0.87837 0.31921 0.04494 0.0
C457 C 0.92802 0.37467 0.99948 0.0
C458 C 0.9483 0.39817 0.96602 0.0
C459 C 0.90221 0.54385 0.84565 0.0
C460 C 0.88373 0.54715 0.88331 0.0
C461 C 0.9246 0.5379 0.80946 0.0
C462 C 0.94461 0.53131 0.78851 0.0
C463 C 0.33827 0.86797 0.77574 0.0
C464 C 0.32145 0.85304 0.82656 0.0
C465 C 0.363 0.89164 0.7327 0.0
C466 C 0.38691 0.91655 0.71474 0.0
C467 C 0.47223 0.34562 0.01414 0.0
C468 C 0.46899 0.31987 0.04123 0.0
C469 C 0.47753 0.37547 0.9778 0.0
C470 C 0.48135 0.39912 0.93882 0.0
C471 C 0.15004 0.46117 0.93574 0.0
C472 C 0.17046 0.46045 0.9855 0.0
C473 C 0.12323 0.4621 0.88952 0.0
C474 C 0.09793 0.46189 0.86218 0.0
C475 C 0.66539 0.10825 0.8401 0.0
C476 C 0.68709 0.1265 0.89048 0.0
C477 C 0.63662 0.08682 0.78799 0.0
C478 C 0.60947 0.06797 0.75271 0.0
C479 C 0.56918 0.6455 0.88853 0.0
C480 C 0.56859 0.67077 0.89454 0.0
C481 C 0.56397 0.61541 0.86031 0.0
C482 C 0.55539 0.59374 0.8129 0.0
C483 C 0.47408 0.11589 0.36056 0.0
C484 C 0.46982 0.13885 0.34031 0.0
C485 C 0.48091 0.09163 0.39637 0.0
C486 C 0.48602 0.07342 0.44103 0.0
C487 C 0.34931 0.46662 0.48038 0.0
C488 C 0.32373 0.46221 0.44226 0.0
C489 C 0.38214 0.47549 0.51236 0.0
C490 C 0.41129 0.48406 0.529 0.0
C491 C 0.91233 0.37065 0.40722 0.0
C492 C 0.89134 0.34453 0.3757 0.0
C493 C 0.93455 0.39965 0.45282 0.0
C494 C 0.951 0.4204 0.50398 0.0
C495 C 0.5551 0.91108 0.21811 0.0
C496 C 0.55565 0.88649 0.20305 0.0
C497 C 0.55245 0.93716 0.24639 0.0
C498 C 0.54916 0.95522 0.28692 0.0
C499 C 0.67148 0.54761 0.36867 0.0
C500 C 0.69088 0.54945 0.32531 0.0
C501 C 0.64728 0.54534 0.41519 0.0
C502 C 0.62552 0.54488 0.44811 0.0
C503 C 0.1148 0.66275 0.32281 0.0
C504 C 0.13834 0.68686 0.30148 0.0
C505 C 0.08979 0.63425 0.35354 0.0
C506 C 0.07174 0.6116 0.3911 0.0
loop_
_geom_bond_atom_site_label_1
_geom_bond_atom_site_label_2
_geom_bond_distance
_geom_bond_site_symmetry_2
_ccdc_geom_bond_type
C0 C1 1.443 . S
C0 N4 1.376 . S
C0 C38 1.389 . S
C1 C0 1.443 . S
C1 C2 1.340 . S
C1 H41 0.951 . S
C2 C1 1.340 . S
C2 C3 1.439 . S
C2 H42 0.950 . S
C3 C2 1.439 . S
C3 N4 1.374 . S
C3 C37 1.395 . S
N4 C0 1.376 . S
N4 C3 1.374 . S
N4 Co5 2.008 . S
Co5 N4 2.008 . S
Co5 N6 1.995 . S
Co5 N11 2.008 . S
Co5 N16 1.995 . S
Co5 N21 2.282 . S
Co5 N27 2.282 . S
N6 Co5 1.995 . S
N6 C7 1.376 . S
N6 C10 1.383 . S
C7 N6 1.376 . S
C7 C8 1.446 . S
C7 C37 1.391 . S
C8 C7 1.446 . S
C8 C9 1.339 . S
C8 H43 0.949 . S
C9 C8 1.339 . S
C9 C10 1.439 . S
C9 H44 0.950 . S
C10 N6 1.383 . S
C10 C9 1.439 . S
C10 C39 1.392 . S
N11 Co5 2.008 . S
N11 C12 1.376 . S
N11 C15 1.374 . S
C12 N11 1.376 . S
C12 C13 1.443 . S
C12 C39 1.389 . S
C13 C12 1.443 . S
C13 C14 1.340 . S
C13 H45 0.951 . S
C14 C13 1.340 . S
C14 C15 1.439 . S
C14 H46 0.950 . S
C15 N11 1.374 . S
C15 C14 1.439 . S
C15 C40 1.395 . S
N16 Co5 1.995 . S
N16 C17 1.376 . S
N16 C20 1.383 . S
C17 N16 1.376 . S
C17 C18 1.446 . S
C17 C40 1.391 . S
C18 C17 1.446 . S
C18 C19 1.339 . S
C18 H47 0.949 . S
C19 C18 1.339 . S
C19 C20 1.439 . S
C19 H48 0.950 . S
C20 N16 1.383 . S
C20 C19 1.439 . S
C20 C38 1.392 . S
N21 Co5 2.282 . S
N21 C24 1.332 . S
N21 C26 1.332 . S
C22 C23 1.386 . S
C22 C25 1.388 . S
C23 C22 1.386 . S
C23 C24 1.382 . S
C23 H49 0.950 . S
C24 N21 1.332 . S
C24 C23 1.382 . S
C24 H35 0.952 . S
C25 C22 1.388 . S
C25 C26 1.382 . S
C25 H50 0.950 . S
C26 N21 1.332 . S
C26 C25 1.382 . S
C26 H36 0.948 . S
N27 Co5 2.282 . S
N27 C31 1.332 . S
N27 C32 1.332 . S
C28 C29 1.388 . S
C28 C32 1.382 . S
C28 H51 0.950 . S
C29 C28 1.388 . S
C29 C30 1.386 . S
C30 C29 1.386 . S
C30 C31 1.382 . S
C30 H52 0.950 . S
C31 N27 1.332 . S
C31 C30 1.382 . S
C31 H33 0.952 . S
C32 N27 1.332 . S
C32 C28 1.382 . S
C32 H34 0.948 . S
H33 C31 0.952 . S
H34 C32 0.948 . S
H35 C24 0.952 . S
H36 C26 0.948 . S
C37 C3 1.395 . S
C37 C7 1.391 . S
C38 C0 1.389 . S
C38 C20 1.392 . S
C39 C10 1.392 . S
C39 C12 1.389 . S
C40 C15 1.395 . S
C40 C17 1.391 . S
H41 C1 0.951 . S
H42 C2 0.950 . S
H43 C8 0.949 . S
H44 C9 0.950 . S
H45 C13 0.951 . S
H46 C14 0.950 . S
H47 C18 0.949 . S
H48 C19 0.950 . S
H49 C23 0.950 . S
H50 C25 0.950 . S
H51 C28 0.950 . S
H52 C30 0.950 . S
C53 C54 1.443 . S
C53 N57 1.376 . S
C53 C91 1.389 . S
C54 C53 1.443 . S
C54 C55 1.340 . S
C54 H94 0.951 . S
C55 C54 1.340 . S
C55 C56 1.439 . S
C55 H95 0.950 . S
C56 C55 1.439 . S
C56 N57 1.374 . S
C56 C90 1.395 . S
N57 C53 1.376 . S
N57 C56 1.374 . S
N57 Co58 2.008 . S
Co58 N57 2.008 . S
Co58 N59 1.995 . S
Co58 N64 2.008 . S
Co58 N69 1.995 . S
Co58 N74 2.282 . S
Co58 N80 2.282 . S
N59 Co58 1.995 . S
N59 C60 1.376 . S
N59 C63 1.383 . S
C60 N59 1.376 . S
C60 C61 1.446 . S
C60 C90 1.391 . S
C61 C60 1.446 . S
C61 C62 1.339 . S
C61 H96 0.949 . S
C62 C61 1.339 . S
C62 C63 1.439 . S
C62 H97 0.950 . S
C63 N59 1.383 . S
C63 C62 1.439 . S
C63 C92 1.392 . S
N64 Co58 2.008 . S
N64 C65 1.376 . S
N64 C68 1.374 . S
C65 N64 1.376 . S
C65 C66 1.443 . S
C65 C92 1.389 . S
C66 C65 1.443 . S
C66 C67 1.340 . S
C66 H98 0.951 . S
C67 C66 1.340 . S
C67 C68 1.439 . S
C67 H99 0.950 . S
C68 N64 1.374 . S
C68 C67 1.439 . S
C68 C93 1.395 . S
N69 Co58 1.995 . S
N69 C70 1.376 . S
N69 C73 1.383 . S
C70 N69 1.376 . S
C70 C71 1.446 . S
C70 C93 1.391 . S
C71 C70 1.446 . S
C71 C72 1.339 . S
C71 H100 0.949 . S
C72 C71 1.339 . S
C72 C73 1.439 . S
C72 H101 0.950 . S
C73 N69 1.383 . S
C73 C72 1.439 . S
C73 C91 1.392 . S
N74 Co58 2.282 . S
N74 C77 1.332 . S
N74 C79 1.332 . S
C75 C76 1.386 . S
C75 C78 1.388 1_556 S
C76 C75 1.386 . S
C76 C77 1.382 1_556 S
C76 H102 0.950 . S
C77 N74 1.332 . S
C77 C76 1.382 1_554 S
C77 H88 0.952 . S
C78 C75 1.388 1_554 S
C78 C79 1.382 . S
C78 H103 0.950 . S
C79 N74 1.332 . S
C79 C78 1.382 . S
C79 H89 0.948 . S
N80 Co58 2.282 . S
N80 C84 1.332 . S
N80 C85 1.332 . S
C81 C82 1.388 . S
C81 C85 1.382 . S
C81 H104 0.950 . S
C82 C81 1.388 . S
C82 C83 1.386 . S
C83 C82 1.386 . S
C83 C84 1.382 . S
C83 H105 0.950 . S
C84 N80 1.332 . S
C84 C83 1.382 . S
C84 H86 0.952 . S
C85 N80 1.332 . S
C85 C81 1.382 . S
C85 H87 0.948 . S
H86 C84 0.952 . S
H87 C85 0.948 . S
H88 C77 0.952 . S
H89 C79 0.948 . S
C90 C56 1.395 . S
C90 C60 1.391 . S
C91 C53 1.389 . S
C91 C73 1.392 . S
C92 C63 1.392 . S
C92 C65 1.389 . S
C93 C68 1.395 . S
C93 C70 1.391 . S
H94 C54 0.951 . S
H95 C55 0.950 . S
H96 C61 0.949 . S
H97 C62 0.950 . S
H98 C66 0.951 . S
H99 C67 0.950 . S
H100 C71 0.949 . S
H101 C72 0.950 . S
H102 C76 0.950 . S
H103 C78 0.950 . S
H104 C81 0.950 . S
H105 C83 0.950 . S
C106 C107 1.443 . S
C106 N110 1.376 . S
C106 C144 1.389 . S
C107 C106 1.443 . S
C107 C108 1.340 . S
C107 H147 0.951 . S
C108 C107 1.340 . S
C108 C109 1.439 . S
C108 H148 0.950 . S
C109 C108 1.439 . S
C109 N110 1.374 . S
C109 C143 1.395 . S
N110 C106 1.376 . S
N110 C109 1.374 . S
N110 Co111 2.008 . S
Co111 N110 2.008 . S
Co111 N112 1.995 1_554 S
Co111 N117 2.008 1_554 S
Co111 N122 1.995 . S
Co111 N127 2.282 . S
Co111 N133 2.282 1_554 S
N112 Co111 1.995 1_556 S
N112 C113 1.376 . S
N112 C116 1.383 . S
C113 N112 1.376 . S
C113 C114 1.446 . S
C113 C143 1.391 1_556 S
C114 C113 1.446 . S
C114 C115 1.339 . S
C114 H149 0.949 . S
C115 C114 1.339 . S
C115 C116 1.439 . S
C115 H150 0.950 . S
C116 N112 1.383 . S
C116 C115 1.439 . S
C116 C145 1.392 . S
N117 Co111 2.008 1_556 S
N117 C118 1.376 . S
N117 C121 1.374 . S
C118 N117 1.376 . S
C118 C119 1.443 . S
C118 C145 1.389 . S
C119 C118 1.443 . S
C119 C120 1.340 . S
C119 H151 0.951 . S
C120 C119 1.340 . S
C120 C121 1.439 . S
C120 H152 0.950 . S
C121 N117 1.374 . S
C121 C120 1.439 . S
C121 C146 1.395 1_556 S
N122 Co111 1.995 . S
N122 C123 1.376 . S
N122 C126 1.383 . S
C123 N122 1.376 . S
C123 C124 1.446 . S
C123 C146 1.391 . S
C124 C123 1.446 . S
C124 C125 1.339 . S
C124 H153 0.949 . S
C125 C124 1.339 . S
C125 C126 1.439 . S
C125 H154 0.950 . S
C126 N122 1.383 . S
C126 C125 1.439 . S
C126 C144 1.392 . S
N127 Co111 2.282 . S
N127 C130 1.332 . S
N127 C132 1.332 . S
C128 C129 1.386 . S
C128 C131 1.388 . S
C129 C128 1.386 . S
C129 C130 1.382 . S
C129 H155 0.950 . S
C130 N127 1.332 . S
C130 C129 1.382 . S
C130 H141 0.952 . S
C131 C128 1.388 . S
C131 C132 1.382 . S
C131 H156 0.950 . S
C132 N127 1.332 . S
C132 C131 1.382 . S
C132 H142 0.948 . S
N133 Co111 2.282 1_556 S
N133 C137 1.332 . S
N133 C138 1.332 . S
C134 C135 1.388 . S
C134 C138 1.382 . S
C134 H157 0.950 . S
C135 C134 1.388 . S
C135 C136 1.386 . S
C136 C135 1.386 . S
C136 C137 1.382 . S
C136 H158 0.950 . S
C137 N133 1.332 . S
C137 C136 1.382 . S
C137 H139 0.952 . S
C138 N133 1.332 . S
C138 C134 1.382 . S
C138 H140 0.948 . S
H139 C137 0.952 . S
H140 C138 0.948 . S
H141 C130 0.952 . S
H142 C132 0.948 . S
C143 C109 1.395 . S
C143 C113 1.391 1_554 S
C144 C106 1.389 . S
C144 C126 1.392 . S
C145 C116 1.392 . S
C145 C118 1.389 . S
C146 C121 1.395 1_554 S
C146 C123 1.391 . S
H147 C107 0.951 . S
H148 C108 0.950 . S
H149 C114 0.949 . S
H150 C115 0.950 . S
H151 C119 0.951 . S
H152 C120 0.950 . S
H153 C124 0.949 . S
H154 C125 0.950 . S
H155 C129 0.950 . S
H156 C131 0.950 . S
H157 C134 0.950 . S
H158 C136 0.950 . S
C159 C160 1.443 . S
C159 N163 1.376 . S
C159 C197 1.389 . S
C160 C159 1.443 . S
C160 C161 1.340 . S
C160 H200 0.951 . S
C161 C160 1.340 . S
C161 C162 1.439 . S
C161 H201 0.950 . S
C162 C161 1.439 . S
C162 N163 1.374 . S
C162 C196 1.395 . S
N163 C159 1.376 . S
N163 C162 1.374 . S
N163 Co164 2.008 . S
Co164 N163 2.008 . S
Co164 N165 1.995 . S
Co164 N170 2.008 . S
Co164 N175 1.995 . S
Co164 N180 2.282 . S
Co164 N186 2.282 . S
N165 Co164 1.995 . S
N165 C166 1.376 . S
N165 C169 1.383 1_554 S
C166 N165 1.376 . S
C166 C167 1.446 1_554 S
C166 C196 1.391 . S
C167 C166 1.446 1_556 S
C167 C168 1.339 . S
C167 H202 0.949 . S
C168 C167 1.339 . S
C168 C169 1.439 . S
C168 H203 0.950 . S
C169 N165 1.383 1_556 S
C169 C168 1.439 . S
C169 C198 1.392 . S
N170 Co164 2.008 . S
N170 C171 1.376 1_554 S
N170 C174 1.374 . S
C171 N170 1.376 1_556 S
C171 C172 1.443 . S
C171 C198 1.389 . S
C172 C171 1.443 . S
C172 C173 1.340 1_556 S
C172 H204 0.951 . S
C173 C172 1.340 1_554 S
C173 C174 1.439 . S
C173 H205 0.950 . S
C174 N170 1.374 . S
C174 C173 1.439 . S
C174 C199 1.395 . S
N175 Co164 1.995 . S
N175 C176 1.376 . S
N175 C179 1.383 . S
C176 N175 1.376 . S
C176 C177 1.446 . S
C176 C199 1.391 . S
C177 C176 1.446 . S
C177 C178 1.339 . S
C177 H206 0.949 . S
C178 C177 1.339 . S
C178 C179 1.439 . S
C178 H207 0.950 . S
C179 N175 1.383 . S
C179 C178 1.439 . S
C179 C197 1.392 . S
N180 Co164 2.282 . S
N180 C183 1.332 . S
N180 C185 1.332 . S
C181 C182 1.386 . S
C181 C184 1.388 . S
C182 C181 1.386 . S
C182 C183 1.382 . S
C182 H208 0.950 . S
C183 N180 1.332 . S
C183 C182 1.382 . S
C183 H194 0.952 . S
C184 C181 1.388 . S
C184 C185 1.382 . S
C184 H209 0.950 . S
C185 N180 1.332 . S
C185 C184 1.382 . S
C185 H195 0.948 . S
N186 Co164 2.282 . S
N186 C190 1.332 1_554 S
N186 C191 1.333 . S
C187 C188 1.388 . S
C187 C191 1.379 1_556 S
C187 H210 0.950 . S
C188 C187 1.388 . S
C188 C189 1.386 . S
C189 C188 1.386 . S
C189 C190 1.382 . S
C189 H211 0.950 . S
C190 N186 1.332 1_556 S
C190 C189 1.382 . S
C190 H192 0.952 . S
C191 N186 1.333 . S
C191 C187 1.379 1_554 S
C191 H193 0.951 . S
H192 C190 0.952 . S
H193 C191 0.951 . S
H194 C183 0.952 . S
H195 C185 0.948 . S
C196 C162 1.395 . S
C196 C166 1.391 . S
C197 C159 1.389 . S
C197 C179 1.392 . S
C198 C169 1.392 . S
C198 C171 1.389 . S
C199 C174 1.395 . S
C199 C176 1.391 . S
H200 C160 0.951 . S
H201 C161 0.950 . S
H202 C167 0.949 . S
H203 C168 0.950 . S
H204 C172 0.951 . S
H205 C173 0.950 . S
H206 C177 0.949 . S
H207 C178 0.950 . S
H208 C182 0.950 . S
H209 C184 0.950 . S
H210 C187 0.950 . S
H211 C189 0.950 . S
C212 C213 1.443 . S
C212 N216 1.376 . S
C212 C250 1.389 . S
C213 C212 1.443 . S
C213 C214 1.340 . S
C213 H253 0.951 . S
C214 C213 1.340 . S
C214 C215 1.439 . S
C214 H254 0.950 . S
C215 C214 1.439 . S
C215 N216 1.374 . S
C215 C249 1.395 . S
N216 C212 1.376 . S
N216 C215 1.374 . S
N216 Co217 2.008 . S
Co217 N216 2.008 . S
Co217 N218 1.995 . S
Co217 N223 2.008 . S
Co217 N228 1.995 . S
Co217 N233 2.282 . S
Co217 N239 2.282 . S
N218 Co217 1.995 . S
N218 C219 1.376 . S
N218 C222 1.383 1_554 S
C219 N218 1.376 . S
C219 C220 1.446 1_554 S
C219 C249 1.391 . S
C220 C219 1.446 1_556 S
C220 C221 1.339 . S
C220 H255 0.949 . S
C221 C220 1.339 . S
C221 C222 1.439 . S
C221 H256 0.950 . S
C222 N218 1.383 1_556 S
C222 C221 1.439 . S
C222 C251 1.392 . S
N223 Co217 2.008 . S
N223 C224 1.376 . S
N223 C227 1.374 . S
C224 N223 1.376 . S
C224 C225 1.443 . S
C224 C251 1.389 1_554 S
C225 C224 1.443 . S
C225 C226 1.340 . S
C225 H257 0.951 1_554 S
C226 C225 1.340 . S
C226 C227 1.439 . S
C226 H258 0.950 . S
C227 N223 1.374 . S
C227 C226 1.439 . S
C227 C252 1.395 . S
N228 Co217 1.995 . S
N228 C229 1.376 . S
N228 C232 1.383 . S
C229 N228 1.376 . S
C229 C230 1.446 . S
C229 C252 1.391 . S
C230 C229 1.446 . S
C230 C231 1.339 . S
C230 H259 0.949 . S
C231 C230 1.339 . S
C231 C232 1.439 . S
C231 H260 0.950 . S
C232 N228 1.383 . S
C232 C231 1.439 . S
C232 C250 1.392 . S
N233 Co217 2.282 . S
N233 C236 1.332 . S
N233 C238 1.332 . S
C234 C235 1.386 . S
C234 C237 1.388 . S
C235 C234 1.386 . S
C235 C236 1.382 . S
C235 H261 0.950 . S
C236 N233 1.332 . S
C236 C235 1.382 . S
C236 H247 0.952 . S
C237 C234 1.388 . S
C237 C238 1.382 . S
C237 H262 0.950 . S
C238 N233 1.332 . S
C238 C237 1.382 . S
C238 H248 0.948 . S
N239 Co217 2.282 . S
N239 C243 1.332 1_554 S
N239 C244 1.332 . S
C240 C241 1.388 . S
C240 C244 1.382 1_556 S
C240 H263 0.950 . S
C241 C240 1.388 . S
C241 C242 1.386 . S
C242 C241 1.386 . S
C242 C243 1.382 . S
C242 H264 0.950 . S
C243 N239 1.332 1_556 S
C243 C242 1.382 . S
C243 H245 0.952 . S
C244 N239 1.332 . S
C244 C240 1.382 1_554 S
C244 H246 0.948 . S
H245 C243 0.952 . S
H246 C244 0.948 . S
H247 C236 0.952 . S
H248 C238 0.948 . S
C249 C215 1.395 . S
C249 C219 1.391 . S
C250 C212 1.389 . S
C250 C232 1.392 . S
C251 C222 1.392 . S
C251 C224 1.389 1_556 S
C252 C227 1.395 . S
C252 C229 1.391 . S
H253 C213 0.951 . S
H254 C214 0.950 . S
H255 C220 0.949 . S
H256 C221 0.950 . S
H257 C225 0.951 1_556 S
H258 C226 0.950 . S
H259 C230 0.949 . S
H260 C231 0.950 . S
H261 C235 0.950 . S
H262 C237 0.950 . S
H263 C240 0.950 . S
H264 C242 0.950 . S
C265 C266 1.443 . S
C265 N269 1.376 . S
C265 C303 1.389 . S
C266 C265 1.443 . S
C266 C267 1.340 . S
C266 H306 0.951 . S
C267 C266 1.340 . S
C267 C268 1.439 . S
C267 H307 0.950 . S
C268 C267 1.439 . S
C268 N269 1.374 . S
C268 C302 1.395 . S
N269 C265 1.376 . S
N269 C268 1.374 . S
N269 Co270 2.008 . S
Co270 N269 2.008 . S
Co270 N271 1.995 . S
Co270 N276 2.008 . S
Co270 N281 1.995 . S
Co270 N286 2.282 . S
Co270 N292 2.282 . S
N271 Co270 1.995 . S
N271 C272 1.376 . S
N271 C275 1.383 . S
C272 N271 1.376 . S
C272 C273 1.446 . S
C272 C302 1.391 . S
C273 C272 1.446 . S
C273 C274 1.339 . S
C273 H308 0.949 . S
C274 C273 1.339 . S
C274 C275 1.439 . S
C274 H309 0.950 . S
C275 N271 1.383 . S
C275 C274 1.439 . S
C275 C304 1.392 . S
N276 Co270 2.008 . S
N276 C277 1.376 . S
N276 C280 1.374 . S
C277 N276 1.376 . S
C277 C278 1.443 . S
C277 C304 1.389 . S
C278 C277 1.443 . S
C278 C279 1.340 . S
C278 H310 0.951 . S
C279 C278 1.340 . S
C279 C280 1.439 . S
C279 H311 0.950 . S
C280 N276 1.374 . S
C280 C279 1.439 . S
C280 C305 1.395 . S
N281 Co270 1.995 . S
N281 C282 1.376 . S
N281 C285 1.383 . S
C282 N281 1.376 . S
C282 C283 1.446 . S
C282 C305 1.391 . S
C283 C282 1.446 . S
C283 C284 1.339 . S
C283 H312 0.949 . S
C284 C283 1.339 . S
C284 C285 1.439 . S
C284 H313 0.950 . S
C285 N281 1.383 . S
C285 C284 1.439 . S
C285 C303 1.392 . S
N286 Co270 2.282 . S
N286 C289 1.332 . S
N286 C291 1.332 . S
C287 C288 1.386 . S
C287 C290 1.388 . S
C288 C287 1.386 . S
C288 C289 1.382 . S
C288 H314 0.950 . S
C289 N286 1.332 . S
C289 C288 1.382 . S
C289 H300 0.952 . S
C290 C287 1.388 . S
C290 C291 1.382 . S
C290 H315 0.950 . S
C291 N286 1.332 . S
C291 C290 1.382 . S
C291 H301 0.948 . S
N292 Co270 2.282 . S
N292 C296 1.332 . S
N292 C297 1.332 . S
C293 C294 1.388 . S
C293 C297 1.382 . S
C293 H316 0.950 . S
C294 C293 1.388 . S
C294 C295 1.386 . S
C295 C294 1.386 . S
C295 C296 1.382 . S
C295 H317 0.950 . S
C296 N292 1.332 . S
C296 C295 1.382 . S
C296 H298 0.952 . S
C297 N292 1.332 . S
C297 C293 1.382 . S
C297 H299 0.948 . S
H298 C296 0.952 . S
H299 C297 0.948 . S
H300 C289 0.952 . S
H301 C291 0.948 . S
C302 C268 1.395 . S
C302 C272 1.391 . S
C303 C265 1.389 . S
C303 C285 1.392 . S
C304 C275 1.392 . S
C304 C277 1.389 . S
C305 C280 1.395 . S
C305 C282 1.391 . S
H306 C266 0.951 . S
H307 C267 0.950 . S
H308 C273 0.949 . S
H309 C274 0.950 . S
H310 C278 0.951 . S
H311 C279 0.950 . S
H312 C283 0.949 . S
H313 C284 0.950 . S
H314 C288 0.950 . S
H315 C290 0.950 . S
H316 C293 0.950 . S
H317 C295 0.950 . S
C318 O330 1.241 . S
C318 O331 1.280 . S
C319 O332 1.277 . S
C319 O333 1.245 . S
C320 O344 1.247 . S
C320 O346 1.289 . S
Mg321 O322 1.932 1_655 S
Mg321 O331 1.992 . S
Mg321 O333 1.977 1_655 S
Mg321 O334 2.067 . S
O322 Mg321 1.932 1_455 S
O322 Mg323 1.986 . S
O322 Mg324 1.917 . S
Mg323 O322 1.986 . S
Mg323 O330 2.042 1_455 S
Mg323 O332 2.041 . S
Mg323 O338 2.038 1_455 S
Mg323 O346 2.238 . S
Mg324 O322 1.917 . S
Mg324 O325 1.917 . S
Mg324 O335 2.106 1_455 S
Mg324 O337 2.079 1_455 S
Mg324 O346 2.106 . S
Mg324 O347 2.079 . S
O325 Mg324 1.917 . S
O325 Mg326 1.926 . S
O325 Mg327 1.986 . S
Mg326 O325 1.926 . S
Mg326 O340 1.984 . S
Mg326 O343 1.988 1_455 S
Mg326 O344 2.061 . S
Mg327 O325 1.986 . S
Mg327 O335 2.238 1_455 S
Mg327 O339 2.042 . S
Mg327 O341 2.041 1_455 S
Mg327 O348 2.038 . S
C328 O334 1.247 . S
C328 O335 1.289 . S
C329 O347 1.245 . S
C329 O348 1.274 . S
O330 C318 1.241 . S
O330 Mg323 2.042 1_655 S
O331 C318 1.280 . S
O331 Mg321 1.992 . S
O332 C319 1.277 . S
O332 Mg323 2.041 . S
O333 C319 1.245 . S
O333 Mg321 1.977 1_455 S
O334 Mg321 2.067 . S
O334 C328 1.247 . S
O335 Mg324 2.106 1_655 S
O335 Mg327 2.238 1_655 S
O335 C328 1.289 . S
C336 O337 1.245 . S
C336 O338 1.274 . S
O337 Mg324 2.079 1_655 S
O337 C336 1.245 . S
O338 Mg323 2.038 1_655 S
O338 C336 1.274 . S
O339 Mg327 2.042 . S
O339 C342 1.241 . S
O340 Mg326 1.984 . S
O340 C342 1.280 . S
O341 Mg327 2.041 1_655 S
O341 C345 1.277 . S
C342 O339 1.241 . S
C342 O340 1.280 . S
O343 Mg326 1.988 1_655 S
O343 C345 1.245 . S
O344 C320 1.247 . S
O344 Mg326 2.061 . S
C345 O341 1.277 . S
C345 O343 1.245 . S
O346 C320 1.289 . S
O346 Mg323 2.238 . S
O346 Mg324 2.106 . S
O347 Mg324 2.079 . S
O347 C329 1.245 . S
O348 Mg327 2.038 . S
O348 C329 1.274 . S
C349 O361 1.241 . S
C349 O362 1.280 . S
C350 O363 1.277 . S
C350 O364 1.245 . S
C351 O375 1.247 . S
C351 O377 1.289 . S
Mg352 O353 1.926 . S
Mg352 O362 1.984 . S
Mg352 O364 1.988 1_545 S
Mg352 O365 2.061 . S
O353 Mg352 1.926 . S
O353 Mg354 1.986 . S
O353 Mg355 1.917 . S
Mg354 O353 1.986 . S
Mg354 O361 2.042 . S
Mg354 O363 2.041 1_545 S
Mg354 O369 2.038 . S
Mg354 O377 2.238 1_545 S
Mg355 O353 1.917 . S
Mg355 O356 1.917 1_545 S
Mg355 O366 2.106 . S
Mg355 O368 2.079 . S
Mg355 O377 2.106 1_545 S
Mg355 O378 2.079 1_545 S
O356 Mg355 1.917 1_565 S
O356 Mg357 1.926 . S
O356 Mg358 1.986 1_565 S
Mg357 O356 1.926 . S
Mg357 O371 1.984 . S
Mg357 O374 1.988 1_565 S
Mg357 O375 2.061 . S
Mg358 O356 1.986 1_545 S
Mg358 O366 2.238 . S
Mg358 O370 2.042 1_545 S
Mg358 O372 2.041 . S
Mg358 O379 2.038 1_545 S
C359 O365 1.247 . S
C359 O366 1.289 . S
C360 O378 1.245 . S
C360 O379 1.274 . S
O361 C349 1.241 . S
O361 Mg354 2.042 . S
O362 C349 1.280 . S
O362 Mg352 1.984 . S
O363 C350 1.277 . S
O363 Mg354 2.041 1_565 S
O364 C350 1.245 . S
O364 Mg352 1.988 1_565 S
O365 Mg352 2.061 . S
O365 C359 1.247 . S
O366 Mg355 2.106 . S
O366 Mg358 2.238 . S
O366 C359 1.289 . S
C367 O368 1.245 . S
C367 O369 1.274 . S
O368 Mg355 2.079 . S
O368 C367 1.245 . S
O369 Mg354 2.038 . S
O369 C367 1.274 . S
O370 Mg358 2.042 1_565 S
O370 C373 1.241 . S
O371 Mg357 1.984 . S
O371 C373 1.280 . S
O372 Mg358 2.041 . S
O372 C376 1.277 . S
C373 O370 1.241 . S
C373 O371 1.280 . S
O374 Mg357 1.988 1_545 S
O374 C376 1.245 . S
O375 C351 1.247 . S
O375 Mg357 2.061 . S
C376 O372 1.277 . S
C376 O374 1.245 . S
O377 C351 1.289 . S
O377 Mg354 2.238 1_565 S
O377 Mg355 2.106 1_565 S
O378 Mg355 2.079 1_565 S
O378 C360 1.245 . S
O379 Mg358 2.038 1_565 S
O379 C360 1.274 . S
C380 O392 1.241 . S
C380 O393 1.280 . S
C381 O394 1.277 . S
C381 O395 1.245 . S
C382 O406 1.247 . S
C382 O408 1.289 . S
Mg383 O384 1.926 . S
Mg383 O393 1.984 . S
Mg383 O395 1.988 . S
Mg383 O396 2.061 . S
O384 Mg383 1.926 . S
O384 Mg385 1.986 . S
O384 Mg386 1.917 . S
Mg385 O384 1.986 . S
Mg385 O392 2.042 . S
Mg385 O394 2.041 . S
Mg385 O400 2.038 . S
Mg385 O408 2.238 . S
Mg386 O384 1.917 . S
Mg386 O387 1.917 . S
Mg386 O397 2.106 . S
Mg386 O399 2.079 . S
Mg386 O408 2.106 . S
Mg386 O409 2.079 . S
O387 Mg386 1.917 . S
O387 Mg388 1.926 . S
O387 Mg389 1.986 . S
Mg388 O387 1.926 . S
Mg388 O402 1.984 . S
Mg388 O405 1.988 . S
Mg388 O406 2.061 . S
Mg389 O387 1.986 . S
Mg389 O397 2.238 . S
Mg389 O401 2.042 . S
Mg389 O403 2.041 . S
Mg389 O410 2.038 . S
C390 O396 1.247 . S
C390 O397 1.289 . S
C391 O409 1.245 . S
C391 O410 1.274 . S
O392 C380 1.241 . S
O392 Mg385 2.042 . S
O393 C380 1.280 . S
O393 Mg383 1.984 . S
O394 C381 1.277 . S
O394 Mg385 2.041 . S
O395 C381 1.245 . S
O395 Mg383 1.988 . S
O396 Mg383 2.061 . S
O396 C390 1.247 . S
O397 Mg386 2.106 . S
O397 Mg389 2.238 . S
O397 C390 1.289 . S
C398 O399 1.245 . S
C398 O400 1.274 . S
O399 Mg386 2.079 . S
O399 C398 1.245 . S
O400 Mg385 2.038 . S
O400 C398 1.274 . S
O401 Mg389 2.042 . S
O401 C404 1.241 . S
O402 Mg388 1.984 . S
O402 C404 1.280 . S
O403 Mg389 2.041 . S
O403 C407 1.277 . S
C404 O401 1.241 . S
C404 O402 1.280 . S
O405 Mg388 1.988 . S
O405 C407 1.245 . S
O406 C382 1.247 . S
O406 Mg388 2.061 . S
C407 O403 1.277 . S
C407 O405 1.245 . S
O408 C382 1.289 . S
O408 Mg385 2.238 . S
O408 Mg386 2.106 . S
O409 Mg386 2.079 . S
O409 C391 1.245 . S
O410 Mg389 2.038 . S
O410 C391 1.274 . S
C411 C412 1.170 . S
C411 C413 1.380 . S
C412 C411 1.170 . S
C413 C411 1.380 . S
C413 C414 1.170 . S
C414 C413 1.170 . S
C415 C416 1.170 . S
C415 C417 1.380 . S
C416 C415 1.170 . S
C417 C415 1.380 . S
C417 C418 1.170 . S
C418 C417 1.170 . S
C419 C420 1.170 . S
C419 C421 1.380 . S
C420 C419 1.170 . S
C421 C419 1.380 . S
C421 C422 1.170 . S
C422 C421 1.170 . S
C423 C424 1.170 . S
C423 C425 1.380 . S
C424 C423 1.170 . S
C425 C423 1.380 . S
C425 C426 1.170 . S
C426 C425 1.170 . S
C427 C428 1.170 . S
C427 C429 1.380 . S
C428 C427 1.170 . S
C429 C427 1.380 . S
C429 C430 1.170 . S
C430 C429 1.170 . S
C431 C432 1.170 . S
C431 C433 1.380 . S
C432 C431 1.170 . S
C433 C431 1.380 . S
C433 C434 1.170 . S
C434 C433 1.170 . S
C435 C436 1.170 . S
C435 C437 1.380 . S
C436 C435 1.170 . S
C437 C435 1.380 . S
C437 C438 1.170 . S
C438 C437 1.170 . S
C439 C440 1.170 . S
C439 C441 1.380 . S
C440 C439 1.170 . S
C441 C439 1.380 . S
C441 C442 1.170 . S
C442 C441 1.170 . S
C443 C444 1.170 . S
C443 C445 1.380 . S
C444 C443 1.170 . S
C445 C443 1.380 . S
C445 C446 1.170 . S
C446 C445 1.170 . S
C447 C448 1.170 . S
C447 C449 1.380 . S
C448 C447 1.170 . S
C449 C447 1.380 . S
C449 C450 1.170 . S
C450 C449 1.170 . S
C451 C452 1.170 . S
C451 C453 1.380 . S
C452 C451 1.170 . S
C453 C451 1.380 . S
C453 C454 1.170 . S
C454 C453 1.170 . S
C455 C456 1.170 1_556 S
C455 C457 1.380 . S
C456 C455 1.170 1_554 S
C457 C455 1.380 . S
C457 C458 1.170 . S
C458 C457 1.170 . S
C459 C460 1.170 . S
C459 C461 1.380 . S
C460 C459 1.170 . S
C461 C459 1.380 . S
C461 C462 1.170 . S
C462 C461 1.170 . S
C463 C464 1.170 . S
C463 C465 1.380 . S
C464 C463 1.170 . S
C465 C463 1.380 . S
C465 C466 1.170 . S
C466 C465 1.170 . S
C467 C468 1.170 . S
C467 C469 1.380 1_554 S
C468 C467 1.170 . S
C469 C467 1.380 1_556 S
C469 C470 1.170 . S
C470 C469 1.170 . S
C471 C472 1.170 . S
C471 C473 1.380 1_554 S
C472 C471 1.170 . S
C473 C471 1.380 1_556 S
C473 C474 1.170 . S
C474 C473 1.170 . S
C475 C476 1.170 . S
C475 C477 1.380 . S
C476 C475 1.170 . S
C477 C475 1.380 . S
C477 C478 1.170 . S
C478 C477 1.170 . S
C479 C480 1.170 . S
C479 C481 1.380 . S
C480 C479 1.170 . S
C481 C479 1.380 . S
C481 C482 1.170 . S
C482 C481 1.170 . S
C483 C484 1.170 . S
C483 C485 1.380 . S
C484 C483 1.170 . S
C485 C483 1.380 . S
C485 C486 1.170 . S
C486 C485 1.170 . S
C487 C488 1.170 . S
C487 C489 1.380 . S
C488 C487 1.170 . S
C489 C487 1.380 . S
C489 C490 1.170 . S
C490 C489 1.170 . S
C491 C492 1.170 . S
C491 C493 1.380 . S
C492 C491 1.170 . S
C493 C491 1.380 . S
C493 C494 1.170 . S
C494 C493 1.170 . S
C495 C496 1.170 . S
C495 C497 1.380 . S
C496 C495 1.170 . S
C497 C495 1.380 . S
C497 C498 1.170 . S
C498 C497 1.170 . S
C499 C500 1.170 . S
C499 C501 1.380 . S
C500 C499 1.170 . S
C501 C499 1.380 . S
C501 C502 1.170 . S
C502 C501 1.170 . S
C503 C504 1.170 . S
C503 C505 1.380 . S
C504 C503 1.170 . S
C505 C503 1.380 . S
C505 C506 1.170 . S
C506 C505 1.170 . S
C412 C22 1.902 . S
C414 C329 1.793 . S
C416 C92 1.796 . S
C418 C376 1.784 . S
C422 C380 1.869 . S
C420 C144 1.929 . S
C426 C345 1.630 . S
C424 C197 1.657 . S
C428 C250 2.012 . S
C430 C360 1.942 . S
C434 C382 1.173 . S
C432 C287 1.256 . S
C438 C351 1.654 . S
C436 C145 1.711 . S
C440 C198 1.619 . S
C442 C391 1.537 . S
C446 C320 1.619 . S
C444 C251 1.675 . S
C448 C294 1.440 1_556 S
C450 C349 1.413 . S
C452 C29 1.864 1_556 S
C454 C407 1.814 . S
C458 C318 1.714 . S
C456 C91 1.771 . S
C462 C336 1.659 . S
C460 C188 1.698 . S
C466 C350 1.328 . S
C464 C241 1.352 . S
C470 C404 1.687 . S
C468 C304 1.780 . S
C474 C319 1.437 . S
C472 C39 1.477 . S
C478 C367 1.486 . S
C476 C75 1.568 . S
C480 C135 1.068 . S
C482 C390 1.026 . S
C486 C359 1.476 . S
C484 C303 1.511 . S
C490 C398 1.409 . S
C488 C38 1.420 . S
C494 C328 1.201 . S
C492 C82 1.260 . S
C498 C373 1.211 . S
C496 C128 1.293 . S
C500 C181 1.685 . S
C502 C381 1.649 . S
C504 C234 1.301 . S
C506 C342 1.249 . S
