# Generated by pormake.
# Topology rtl, (3,6)-cn, num edge types: 1
# Building blocks:
#     Node 0, Type 0, BuildingBlock: OLANEW_clean_sbu_2, # of connection points: 3
#     Node 1, Type 0, BuildingBlock: OLANEW_clean_sbu_2, # of connection points: 3
#     Node 2, Type 0, BuildingBlock: OLANEW_clean_sbu_2, # of connection points: 3
#     Node 3, Type 0, BuildingBlock: OLANEW_clean_sbu_2, # of connection points: 3
#     Node 4, Type 1, BuildingBlock: KUMBUR_clean_sbu_1, # of connection points: 6
#     Node 5, Type 1, BuildingBlock: KUMBUR_clean_sbu_1, # of connection points: 6
#     Edge 6, Type (0, 1), BuildingBlock: AJUNOK_clean_linker_0, # of connection points: 2
#     Edge 7, Type (0, 1), BuildingBlock: AJUNOK_clean_linker_0, # of connection points: 2
#     Edge 8, Type (0, 1), BuildingBlock: AJUNOK_clean_linker_0, # of connection points: 2
#     Edge 9, Type (0, 1), BuildingBlock: AJUNOK_clean_linker_0, # of connection points: 2
#     Edge 10, Type (0, 1), BuildingBlock: AJUNOK_clean_linker_0, # of connection points: 2
#     Edge 11, Type (0, 1), BuildingBlock: AJUNOK_clean_linker_0, # of connection points: 2
#     Edge 12, Type (0, 1), BuildingBlock: AJUNOK_clean_linker_0, # of connection points: 2
#     Edge 13, Type (0, 1), BuildingBlock: AJUNOK_clean_linker_0, # of connection points: 2
#     Edge 14, Type (0, 1), BuildingBlock: AJUNOK_clean_linker_0, # of connection points: 2
#     Edge 15, Type (0, 1), BuildingBlock: AJUNOK_clean_linker_0, # of connection points: 2
#     Edge 16, Type (0, 1), BuildingBlock: AJUNOK_clean_linker_0, # of connection points: 2
#     Edge 17, Type (0, 1), BuildingBlock: AJUNOK_clean_linker_0, # of connection points: 2
# Relax obj value: 0.047
# Max RMSD: 0.179
# Mean RMSD: 0.140
data_MOF--net-rtl--node1-OLANEW_clean_sbu_2--node2-KUMBUR_clean_sbu_1--edge1-AJUNOK_clean_linker_0
_symmetry_space_group_name_H-M    P1
_symmetry_Int_Tables_number       1
_symmetry_cell_setting            triclinic
loop_
_symmetry_equiv_pos_as_xyz
'x, y, z'
_cell_length_a     28.856978
_cell_length_b     28.920418
_cell_length_c     22.760415
_cell_angle_alpha  71.889188
_cell_angle_beta   103.11428
_cell_angle_gamma 91.51776
loop_
_atom_site_label
_atom_site_type_symbol
_atom_site_fract_x
_atom_site_fract_y
_atom_site_fract_z
_atom_type_partial_charge
O0 O 0.19252 0.83888 0.94544 0.0
Cd1 Cd 0.25407 0.80165 0.04152 0.0
O2 O 0.19744 0.90921 0.96465 0.0
Cd3 Cd 0.22001 0.87753 0.0674 0.0
O4 O 0.18084 0.87816 0.13903 0.0
C5 C 0.17597 0.91815 0.14976 0.0
O6 O 0.19843 0.95594 0.12229 0.0
C7 C 0.18297 0.88453 0.92712 0.0
C8 C 0.31355 0.73158 0.02973 0.0
O9 O 0.27966 0.71912 0.05856 0.0
O10 O 0.31899 0.77709 0.00526 0.0
O11 O 0.71243 0.70058 0.82078 0.0
Cd12 Cd 0.78093 0.71333 0.769 0.0
O13 O 0.69859 0.64861 0.76778 0.0
Cd14 Cd 0.66214 0.59296 0.73035 0.0
O15 O 0.6442 0.55497 0.65933 0.0
C16 C 0.61718 0.57624 0.60536 0.0
O17 O 0.59808 0.6196 0.59514 0.0
C18 C 0.68803 0.66613 0.8081 0.0
C19 C 0.81929 0.80281 0.71548 0.0
O20 O 0.78634 0.78506 0.68173 0.0
O21 O 0.83163 0.77997 0.77523 0.0
O22 O 0.76146 0.14266 0.24993 0.0
Cd23 Cd 0.70068 0.1703 0.1498 0.0
O24 O 0.8114 0.14807 0.18926 0.0
Cd25 Cd 0.8768 0.1365 0.16169 0.0
O26 O 0.91372 0.13133 0.08979 0.0
C27 C 0.92705 0.09048 0.08758 0.0
O28 O 0.92053 0.05051 0.13149 0.0
C29 C 0.80369 0.13722 0.24465 0.0
C30 C 0.65683 0.26208 0.12183 0.0
O31 O 0.64146 0.2235 0.15623 0.0
O32 O 0.69371 0.25741 0.10124 0.0
O33 O 0.27841 0.34213 0.55569 0.0
Cd34 Cd 0.27087 0.29248 0.48355 0.0
O35 O 0.33267 0.38882 0.51606 0.0
Cd36 Cd 0.33344 0.36541 0.43368 0.0
O37 O 0.35387 0.38593 0.34216 0.0
C38 C 0.39767 0.38294 0.34179 0.0
O39 O 0.4286 0.36398 0.39604 0.0
C40 C 0.30735 0.37604 0.557 0.0
C41 C 0.20509 0.21896 0.50349 0.0
O42 O 0.24679 0.21402 0.54006 0.0
O43 O 0.19394 0.25881 0.45758 0.0
Tb44 Tb 0.02555 0.96647 0.55168 0.0
C45 C 0.91405 0.15448 0.50159 0.0
N46 N 0.95969 0.14266 0.53563 0.0
C47 C 0.98452 0.21963 0.47708 0.0
C48 C 0.9021 0.19905 0.45241 0.0
C49 C 0.99477 0.17472 0.52495 0.0
C50 C 0.93804 0.23178 0.44044 0.0
C51 C 0.83229 0.13101 0.4791 0.0
C52 C 0.87983 0.12048 0.51435 0.0
C53 C 0.82023 0.17518 0.42953 0.0
C54 C 0.85504 0.20909 0.4162 0.0
Tb55 Tb 0.97287 0.06747 0.60993 0.0
N56 N 0.89316 0.07727 0.56128 0.0
C57 C 0.7982 0.09706 0.49518 0.0
C58 C 0.85906 0.04637 0.58084 0.0
C59 C 0.8115 0.05506 0.54711 0.0
H60 H 0.03058 0.16582 0.55367 0.0
H61 H 0.78495 0.02972 0.56194 0.0
H62 H 0.95448 0.87339 0.56748 0.0
H63 H 0.21229 0.97879 0.65586 0.0
H64 H 0.86757 0.01563 0.62343 0.0
H65 H 0.76131 0.10372 0.46924 0.0
H66 H 0.13541 0.00858 0.58212 0.0
H67 H 0.01248 0.24479 0.46839 0.0
H68 H 0.784 0.18359 0.40148 0.0
H69 H 0.84521 0.24297 0.37781 0.0
H70 H 0.95878 0.7873 0.6337 0.0
H71 H 0.93031 0.26639 0.40297 0.0
H72 H 0.22306 0.89376 0.72738 0.0
N73 N 0.02613 0.88563 0.60691 0.0
C74 C 0.06821 0.8656 0.64691 0.0
C75 C 0.98976 0.80898 0.63816 0.0
C76 C 0.07246 0.81644 0.68521 0.0
C77 C 0.98724 0.85798 0.60132 0.0
C78 C 0.03249 0.78815 0.6805 0.0
N79 N 0.10048 0.94294 0.61495 0.0
C80 C 0.13838 0.97225 0.61455 0.0
C81 C 0.15071 0.87606 0.6929 0.0
C82 C 0.10675 0.89511 0.65083 0.0
C83 C 0.18874 0.90691 0.69552 0.0
C84 C 0.18268 0.95502 0.65556 0.0
H85 H 0.03428 0.75022 0.70915 0.0
H86 H 0.1201 0.7597 0.75734 0.0
H87 H 0.18861 0.81188 0.76404 0.0
O88 O 0.06158 0.98219 0.47752 0.0
O89 O 0.0336 0.95251 0.65373 0.0
O90 O 0.03906 0.02715 0.67062 0.0
O91 O 0.02043 0.9185 0.49788 0.0
O92 O 0.05401 0.04049 0.52747 0.0
O93 O 0.0478 0.07288 0.60699 0.0
O94 O 0.94535 0.06165 0.69017 0.0
O95 O 0.96912 0.07899 0.50825 0.0
O96 O 0.95822 0.00426 0.4936 0.0
O97 O 0.98243 0.12438 0.65011 0.0
O98 O 0.94936 0.99247 0.64039 0.0
O99 O 0.95068 0.96144 0.55838 0.0
C100 C 0.05 0.98016 0.6889 0.0
C101 C 0.02792 0.95272 0.39242 0.0
C102 C 0.04297 0.94929 0.29281 0.0
C103 C 0.99471 0.96194 0.26348 0.0
C104 C 0.97993 0.96618 0.36244 0.0
C105 C 0.9635 0.97082 0.29808 0.0
C106 C 0.05938 0.94504 0.35726 0.0
C107 C 0.06636 0.07163 0.55975 0.0
C108 C 0.04592 0.94453 0.46065 0.0
C109 C 0.11616 0.79735 0.72735 0.0
C110 C 0.15518 0.82708 0.73118 0.0
C111 C 0.949 0.05143 0.47442 0.0
C112 C 0.99533 0.09567 0.76152 0.0
C113 C 0.00388 0.08665 0.87375 0.0
C114 C 0.05351 0.08144 0.88328 0.0
C115 C 0.04513 0.09088 0.77199 0.0
C116 C 0.97484 0.09397 0.81256 0.0
C117 C 0.07393 0.08377 0.83256 0.0
C118 C 0.9352 0.96141 0.60872 0.0
C119 C 0.96481 0.10099 0.69806 0.0
H120 H 0.98131 0.96521 0.21389 0.0
H121 H 0.9552 0.97246 0.38885 0.0
H122 H 0.92641 0.98092 0.27508 0.0
H123 H 0.09649 0.93465 0.38041 0.0
H124 H 0.07652 0.07638 0.92982 0.0
H125 H 0.0618 0.09277 0.73331 0.0
H126 H 0.93646 0.09774 0.80489 0.0
H127 H 0.11223 0.0803 0.84025 0.0
Tb128 Tb 0.4652 0.50657 0.96872 0.0
C129 C 0.65255 0.58632 0.05732 0.0
N130 N 0.63412 0.54241 0.08118 0.0
C131 C 0.70521 0.50177 0.07969 0.0
C132 C 0.6971 0.58952 0.04098 0.0
C133 C 0.66128 0.50049 0.09627 0.0
C134 C 0.72282 0.54643 0.05084 0.0
C135 C 0.64594 0.67445 0.02949 0.0
C136 C 0.62731 0.62836 0.05117 0.0
C137 C 0.68968 0.67785 0.01156 0.0
C138 C 0.71505 0.6355 0.01688 0.0
Tb139 Tb 0.56067 0.54687 0.10285 0.0
N140 N 0.58408 0.62395 0.06602 0.0
C141 C 0.6199 0.71568 0.02638 0.0
C142 C 0.5589 0.66374 0.0645 0.0
C143 C 0.57629 0.71026 0.04425 0.0
H144 H 0.65044 0.46589 0.12285 0.0
H145 H 0.55609 0.74187 0.04243 0.0
H146 H 0.36489 0.56299 0.95784 0.0
H147 H 0.50555 0.31706 1.0001 0.0
H148 H 0.52547 0.65954 0.07898 0.0
H149 H 0.63309 0.75178 0.01023 0.0
H150 H 0.51684 0.40515 0.96476 0.0
H151 H 0.72596 0.46831 0.09048 0.0
H152 H 0.70431 0.713 0.99385 0.0
H153 H 0.74898 0.63865 0.00348 0.0
H154 H 0.28459 0.5411 0.97519 0.0
H155 H 0.75711 0.54729 0.03873 0.0
H156 H 0.4344 0.28599 0.04062 0.0
N157 N 0.39155 0.48954 0.98809 0.0
C158 C 0.38133 0.44186 0.00658 0.0
C159 C 0.31162 0.5128 0.98481 0.0
C160 C 0.33635 0.42754 0.01807 0.0
C161 C 0.35722 0.52511 0.9755 0.0
C162 C 0.30131 0.46377 0.00706 0.0
N163 N 0.45694 0.42385 0.99456 0.0
C164 C 0.48737 0.39213 0.98637 0.0
C165 C 0.40631 0.35781 0.0289 0.0
C166 C 0.41576 0.40773 0.0116 0.0
C167 C 0.44015 0.32469 0.02745 0.0
C168 C 0.48037 0.34207 0.00472 0.0
H169 H 0.2661 0.45432 0.01471 0.0
H170 H 0.29335 0.36588 0.04817 0.0
H171 H 0.3548 0.30467 0.05801 0.0
O172 O 0.44753 0.48381 0.88761 0.0
O173 O 0.44794 0.49391 0.06214 0.0
O174 O 0.52124 0.48095 0.13256 0.0
O175 O 0.43115 0.55733 0.88121 0.0
O176 O 0.53894 0.47493 0.99886 0.0
O177 O 0.56656 0.47109 0.10405 0.0
O178 O 0.54557 0.56613 0.17884 0.0
O179 O 0.54459 0.5907 0.00158 0.0
O180 O 0.53436 0.53268 0.95212 0.0
O181 O 0.6154 0.5393 0.18421 0.0
O182 O 0.48804 0.57693 0.08131 0.0
O183 O 0.45365 0.57958 0.97687 0.0
C184 C 0.47479 0.47674 0.12005 0.0
C185 C 0.37769 0.52087 0.81321 0.0
C186 C 0.32728 0.48494 0.73824 0.0
C187 C 0.28738 0.51015 0.74124 0.0
C188 C 0.33737 0.54635 0.81458 0.0
C189 C 0.29251 0.54064 0.77915 0.0
C190 C 0.37236 0.49056 0.77444 0.0
C191 C 0.56292 0.45254 0.05722 0.0
C192 C 0.42554 0.52481 0.8517 0.0
C193 C 0.32751 0.37775 0.03833 0.0
C194 C 0.36255 0.3429 0.04407 0.0
C195 C 0.55084 0.57454 0.95597 0.0
C196 C 0.58835 0.51652 0.27845 0.0
C197 C 0.59246 0.50035 0.39141 0.0
C198 C 0.58869 0.45041 0.3985 0.0
C199 C 0.58638 0.4664 0.28704 0.0
C200 C 0.59146 0.5334 0.33069 0.0
C201 C 0.58594 0.43362 0.34662 0.0
C202 C 0.4548 0.59251 0.02822 0.0
C203 C 0.58752 0.55112 0.21523 0.0
H204 H 0.25239 0.50725 0.71303 0.0
H205 H 0.34038 0.57078 0.84271 0.0
H206 H 0.26162 0.56034 0.78057 0.0
H207 H 0.40337 0.47113 0.77262 0.0
H208 H 0.58799 0.42431 0.44421 0.0
H209 H 0.58528 0.4527 0.24761 0.0
H210 H 0.59409 0.57204 0.3243 0.0
H211 H 0.58368 0.39506 0.35266 0.0
C212 C 0.16963 0.15376 0.57867 0.0
C213 C 0.17048 0.18035 0.51573 0.0
C214 C 0.13607 0.11844 0.59216 0.0
C215 C 0.10322 0.1069 0.5434 0.0
H216 H 0.19419 0.16131 0.61793 0.0
H217 H 0.13577 0.10021 0.64128 0.0
S218 S 0.09158 0.16477 0.37053 0.0
N219 N 0.1356 0.19269 0.40388 0.0
N220 N 0.07403 0.12436 0.42958 0.0
C221 C 0.10445 0.13223 0.48022 0.0
C222 C 0.13766 0.16946 0.46633 0.0
C223 C 0.36353 0.69892 0.97308 0.0
C224 C 0.34736 0.69459 0.02838 0.0
C225 C 0.3972 0.66487 0.97237 0.0
C226 C 0.417 0.62648 0.0276 0.0
H227 H 0.34995 0.72873 0.9301 0.0
H228 H 0.40881 0.66946 0.92894 0.0
S229 S 0.38726 0.60015 0.18494 0.0
N230 N 0.35318 0.64875 0.13923 0.0
N231 N 0.41799 0.58649 0.13914 0.0
C232 C 0.40113 0.62206 0.08317 0.0
C233 C 0.36591 0.65567 0.08324 0.0
C234 C 0.87869 0.86653 0.72534 0.0
C235 C 0.84507 0.84618 0.68617 0.0
C236 C 0.90685 0.90436 0.69967 0.0
C237 C 0.90306 0.92311 0.63378 0.0
H238 H 0.88398 0.85262 0.77652 0.0
H239 H 0.93276 0.91809 0.73198 0.0
S240 S 0.81877 0.88542 0.5097 0.0
N241 N 0.8082 0.8498 0.57723 0.0
N242 N 0.86139 0.92071 0.52948 0.0
C243 C 0.86887 0.90421 0.59382 0.0
C244 C 0.83982 0.86589 0.61985 0.0
C245 C 0.64304 0.3506 0.05727 0.0
C246 C 0.63236 0.31049 0.10562 0.0
C247 C 0.61983 0.39653 0.0406 0.0
C248 C 0.58592 0.40403 0.07259 0.0
H249 H 0.66929 0.34647 0.03175 0.0
H250 H 0.62905 0.42652 0.00336 0.0
S251 S 0.54299 0.31157 0.19983 0.0
N252 N 0.58372 0.28171 0.1833 0.0
N253 N 0.54108 0.36805 0.15226 0.0
C254 C 0.57468 0.36454 0.12046 0.0
C255 C 0.59758 0.31773 0.13684 0.0
C256 C 0.14824 0.96141 0.21602 0.0
C257 C 0.14269 0.92369 0.18838 0.0
C258 C 0.11601 0.9692 0.25013 0.0
C259 C 0.07648 0.94025 0.25666 0.0
H260 H 0.1778 0.98511 0.21139 0.0
H261 H 0.12165 0.99852 0.27084 0.0
S262 S 0.04508 0.83725 0.19323 0.0
N263 N 0.09438 0.85692 0.17035 0.0
N264 N 0.03339 0.87247 0.23345 0.0
C265 C 0.07033 0.90253 0.22939 0.0
C266 C 0.10359 0.89395 0.19561 0.0
C267 C 0.64717 0.59362 0.86253 0.0
C268 C 0.65067 0.64453 0.84237 0.0
C269 C 0.61424 0.57148 0.89826 0.0
C270 C 0.58337 0.59937 0.91516 0.0
H271 H 0.6711 0.5705 0.85227 0.0
H272 H 0.61388 0.53208 0.91423 0.0
S273 S 0.5739 0.73424 0.86705 0.0
N274 N 0.61817 0.72238 0.8381 0.0
N275 N 0.55522 0.68084 0.90373 0.0
C276 C 0.58529 0.65039 0.89343 0.0
C277 C 0.61928 0.67294 0.85759 0.0
C278 C 0.83409 0.07285 0.34816 0.0
C279 C 0.84189 0.11566 0.30183 0.0
C280 C 0.86957 0.0516 0.40317 0.0
C281 C 0.91336 0.07342 0.41468 0.0
H282 H 0.80046 0.0554 0.34154 0.0
H283 H 0.8622 0.0186 0.43775 0.0
S284 S 0.95071 0.18653 0.30931 0.0
N285 N 0.89649 0.17918 0.27103 0.0
N286 N 0.96249 0.14032 0.37591 0.0
C287 C 0.92138 0.11653 0.3692 0.0
C288 C 0.88578 0.1374 0.31232 0.0
C289 C 0.34684 0.43671 0.608 0.0
C290 C 0.3121 0.40166 0.60562 0.0
C291 C 0.35194 0.46262 0.65168 0.0
C292 C 0.32239 0.45493 0.69478 0.0
H293 H 0.37033 0.44466 0.5755 0.0
H294 H 0.37866 0.48971 0.65076 0.0
S295 S 0.22768 0.3657 0.71159 0.0
N296 N 0.24877 0.35948 0.65266 0.0
N297 N 0.25857 0.40835 0.73476 0.0
C298 C 0.28803 0.41956 0.69396 0.0
C299 C 0.28289 0.39287 0.64954 0.0
C300 C 0.576 0.57595 0.49596 0.0
C301 C 0.60998 0.55443 0.55298 0.0
C302 C 0.57025 0.55805 0.44423 0.0
C303 C 0.59824 0.5179 0.4474 0.0
H304 H 0.55374 0.60716 0.4909 0.0
H305 H 0.54361 0.57577 0.40141 0.0
S306 S 0.69336 0.44921 0.58459 0.0
N307 N 0.67242 0.49081 0.60894 0.0
N308 N 0.66204 0.45785 0.51141 0.0
C309 C 0.63222 0.49587 0.50406 0.0
C310 C 0.63798 0.51393 0.55687 0.0
C311 C 0.93786 0.1274 0.97674 0.0
C312 C 0.94676 0.08811 0.0337 0.0
C313 C 0.9553 0.12606 0.92455 0.0
C314 C 0.98291 0.08572 0.92772 0.0
H315 H 0.91696 0.15943 0.97214 0.0
H316 H 0.948 0.15724 0.88186 0.0
S317 S 0.01614 0.97326 0.06483 0.0
N318 N 0.98457 0.00728 0.08931 0.0
N319 N 0.01782 0.00528 0.99139 0.0
C320 C 0.99198 0.04614 0.98402 0.0
C321 C 0.97375 0.04717 0.03692 0.0
C322 C 0.46191 0.39454 0.28164 0.0
C323 C 0.41461 0.40434 0.28241 0.0
C324 C 0.48039 0.41726 0.22846 0.0
C325 C 0.45262 0.45088 0.1736 0.0
H326 H 0.48527 0.36954 0.32282 0.0
H327 H 0.51703 0.40849 0.23085 0.0
S328 S 0.3267 0.49018 0.15151 0.0
N329 N 0.3401 0.45011 0.22328 0.0
N330 N 0.37523 0.49317 0.12385 0.0
C331 C 0.40498 0.46046 0.17325 0.0
C332 C 0.38595 0.43716 0.22745 0.0
C333 C 0.11321 0.88398 0.83965 0.0
C334 C 0.15142 0.9087 0.86452 0.0
C335 C 0.08001 0.90783 0.78344 0.0
C336 C 0.08416 0.95705 0.74979 0.0
H337 H 0.10817 0.84634 0.86464 0.0
H338 H 0.05075 0.88759 0.76631 0.0
S339 S 0.18191 0.03553 0.79019 0.0
N340 N 0.19389 0.98363 0.84881 0.0
N341 N 0.13213 0.02798 0.74219 0.0
C342 C 0.1231 0.98159 0.77309 0.0
C343 C 0.15666 0.95748 0.83062 0.0
loop_
_geom_bond_atom_site_label_1
_geom_bond_atom_site_label_2
_geom_bond_distance
_geom_bond_site_symmetry_2
_ccdc_geom_bond_type
O0 Cd1 2.300 1_556 S
O0 C7 1.275 . S
Cd1 O0 2.300 1_554 S
Cd1 O9 2.381 . S
Cd1 O10 2.378 . S
O2 Cd3 2.385 1_556 S
O2 C7 1.255 . S
Cd3 O2 2.385 1_554 S
Cd3 O4 2.317 . S
O4 Cd3 2.317 . S
O4 C5 1.232 . S
C5 O4 1.232 . S
C5 O6 1.218 . S
O6 C5 1.218 . S
C7 O0 1.275 . S
C7 O2 1.255 . S
C8 O9 1.258 . S
C8 O10 1.256 . S
O9 Cd1 2.381 . S
O9 C8 1.258 . S
O10 Cd1 2.378 . S
O10 C8 1.256 . S
O11 Cd12 2.300 . S
O11 C18 1.275 . S
Cd12 O11 2.300 . S
Cd12 O20 2.381 . S
Cd12 O21 2.378 . S
O13 Cd14 2.385 . S
O13 C18 1.255 . S
Cd14 O13 2.385 . S
Cd14 O15 2.317 . S
O15 Cd14 2.317 . S
O15 C16 1.232 . S
C16 O15 1.232 . S
C16 O17 1.218 . S
O17 C16 1.218 . S
C18 O11 1.275 . S
C18 O13 1.255 . S
C19 O20 1.258 . S
C19 O21 1.256 . S
O20 Cd12 2.381 . S
O20 C19 1.258 . S
O21 Cd12 2.378 . S
O21 C19 1.256 . S
O22 Cd23 2.300 . S
O22 C29 1.275 . S
Cd23 O22 2.300 . S
Cd23 O31 2.381 . S
Cd23 O32 2.378 . S
O24 Cd25 2.385 . S
O24 C29 1.255 . S
Cd25 O24 2.385 . S
Cd25 O26 2.317 . S
O26 Cd25 2.317 . S
O26 C27 1.232 . S
C27 O26 1.232 . S
C27 O28 1.218 . S
O28 C27 1.218 . S
C29 O22 1.275 . S
C29 O24 1.255 . S
C30 O31 1.258 . S
C30 O32 1.256 . S
O31 Cd23 2.381 . S
O31 C30 1.258 . S
O32 Cd23 2.378 . S
O32 C30 1.256 . S
O33 Cd34 2.300 . S
O33 C40 1.275 . S
Cd34 O33 2.300 . S
Cd34 O42 2.381 . S
Cd34 O43 2.378 . S
O35 Cd36 2.385 . S
O35 C40 1.255 . S
Cd36 O35 2.385 . S
Cd36 O37 2.317 . S
O37 Cd36 2.317 . S
O37 C38 1.232 . S
C38 O37 1.232 . S
C38 O39 1.218 . S
O39 C38 1.218 . S
C40 O33 1.275 . S
C40 O35 1.255 . S
C41 O42 1.258 . S
C41 O43 1.256 . S
O42 Cd34 2.381 . S
O42 C41 1.258 . S
O43 Cd34 2.378 . S
O43 C41 1.256 . S
Tb44 N73 2.617 . S
Tb44 N79 2.572 . S
Tb44 O88 2.465 . S
Tb44 O89 2.387 . S
Tb44 O91 2.428 . S
Tb44 O92 2.308 1_565 S
Tb44 O96 2.349 1_465 S
Tb44 O99 2.393 1_455 S
Tb44 C108 2.802 . S
C45 N46 1.379 . S
C45 C48 1.416 . S
C45 C52 1.424 . S
N46 C45 1.379 . S
N46 C49 1.334 1_655 S
N46 Tb55 2.617 . S
C47 C49 1.390 . S
C47 C50 1.339 1_455 S
C47 H67 0.930 . S
C48 C45 1.416 . S
C48 C50 1.416 . S
C48 C54 1.448 . S
C49 N46 1.334 1_455 S
C49 C47 1.390 . S
C49 H60 0.930 . S
C50 C47 1.339 1_655 S
C50 C48 1.416 . S
C50 H71 0.930 . S
C51 C52 1.413 . S
C51 C53 1.427 . S
C51 C57 1.416 . S
C52 C45 1.424 . S
C52 C51 1.413 . S
C52 N56 1.361 . S
C53 C51 1.427 . S
C53 C54 1.328 . S
C53 H68 0.929 . S
C54 C48 1.448 . S
C54 C53 1.328 . S
C54 H69 0.930 . S
Tb55 N46 2.617 . S
Tb55 N56 2.572 . S
Tb55 O90 2.349 1_655 S
Tb55 O93 2.393 1_655 S
Tb55 O94 2.465 . S
Tb55 O95 2.387 . S
Tb55 O97 2.428 . S
Tb55 O98 2.308 1_545 S
Tb55 C119 2.802 . S
N56 C52 1.361 . S
N56 Tb55 2.572 . S
N56 C58 1.340 . S
C57 C51 1.416 . S
C57 C59 1.332 . S
C57 H65 0.931 . S
C58 N56 1.340 . S
C58 C59 1.407 . S
C58 H64 0.930 . S
C59 C57 1.332 . S
C59 C58 1.407 . S
C59 H61 0.929 . S
H60 C49 0.930 . S
H61 C59 0.929 . S
H62 C77 0.930 1_655 S
H63 C84 0.929 . S
H64 C58 0.930 . S
H65 C57 0.931 . S
H66 C80 0.930 . S
H67 C47 0.930 . S
H68 C53 0.929 . S
H69 C54 0.930 . S
H70 C75 0.930 1_655 S
H71 C50 0.930 . S
H72 C83 0.931 . S
N73 Tb44 2.617 . S
N73 C74 1.379 . S
N73 C77 1.334 . S
C74 N73 1.379 . S
C74 C76 1.416 . S
C74 C82 1.424 . S
C75 H70 0.930 1_455 S
C75 C77 1.390 . S
C75 C78 1.339 . S
C76 C74 1.416 . S
C76 C78 1.416 . S
C76 C109 1.448 . S
C77 H62 0.930 1_455 S
C77 N73 1.334 . S
C77 C75 1.390 . S
C78 C75 1.339 . S
C78 C76 1.416 . S
C78 H85 0.930 . S
N79 Tb44 2.572 . S
N79 C80 1.340 . S
N79 C82 1.361 . S
C80 H66 0.930 . S
C80 N79 1.340 . S
C80 C84 1.407 . S
C81 C82 1.413 . S
C81 C83 1.416 . S
C81 C110 1.427 . S
C82 C74 1.424 . S
C82 N79 1.361 . S
C82 C81 1.413 . S
C83 H72 0.931 . S
C83 C81 1.416 . S
C83 C84 1.332 . S
C84 H63 0.929 . S
C84 C80 1.407 . S
C84 C83 1.332 . S
H85 C78 0.930 . S
H86 C109 0.930 . S
H87 C110 0.929 . S
O88 Tb44 2.465 . S
O88 C108 1.264 . S
O89 Tb44 2.387 . S
O89 C100 1.264 . S
O90 Tb55 2.349 1_455 S
O90 C100 1.243 1_545 S
O91 Tb44 2.428 . S
O91 C108 1.256 . S
O92 Tb44 2.308 1_545 S
O92 C107 1.266 . S
O93 Tb55 2.393 1_455 S
O93 C107 1.248 . S
O94 Tb55 2.465 . S
O94 C119 1.264 . S
O95 Tb55 2.387 . S
O95 C111 1.264 . S
O96 Tb44 2.349 1_645 S
O96 C111 1.243 . S
O97 Tb55 2.428 . S
O97 C119 1.256 . S
O98 Tb55 2.308 1_565 S
O98 C118 1.266 . S
O99 Tb44 2.393 1_655 S
O99 C118 1.248 . S
C100 O89 1.264 . S
C100 O90 1.243 1_565 S
C101 C104 1.399 . S
C101 C106 1.383 . S
C101 C108 1.496 . S
C102 C103 1.399 . S
C102 C106 1.389 . S
C103 C102 1.399 . S
C103 C105 1.380 . S
C103 H120 0.929 . S
C104 C101 1.399 . S
C104 C105 1.392 . S
C104 H121 0.929 . S
C105 C103 1.380 . S
C105 C104 1.392 . S
C105 H122 0.929 . S
C106 C101 1.383 . S
C106 C102 1.389 . S
C106 H123 0.931 . S
C107 O92 1.266 . S
C107 O93 1.248 . S
C108 Tb44 2.802 . S
C108 O88 1.264 . S
C108 O91 1.256 . S
C108 C101 1.496 . S
C109 C76 1.448 . S
C109 H86 0.930 . S
C109 C110 1.328 . S
C110 C81 1.427 . S
C110 H87 0.929 . S
C110 C109 1.328 . S
C111 O95 1.264 . S
C111 O96 1.243 . S
C112 C115 1.399 . S
C112 C116 1.383 . S
C112 C119 1.496 . S
C113 C114 1.399 . S
C113 C116 1.389 . S
C114 C113 1.399 . S
C114 C117 1.380 . S
C114 H124 0.929 . S
C115 C112 1.399 . S
C115 C117 1.392 . S
C115 H125 0.929 . S
C116 C112 1.383 . S
C116 C113 1.389 . S
C116 H126 0.931 . S
C117 C114 1.380 . S
C117 C115 1.392 . S
C117 H127 0.929 . S
C118 O98 1.266 . S
C118 O99 1.248 . S
C119 Tb55 2.802 . S
C119 O94 1.264 . S
C119 O97 1.256 . S
C119 C112 1.496 . S
H120 C103 0.929 . S
H121 C104 0.929 . S
H122 C105 0.929 . S
H123 C106 0.931 . S
H124 C114 0.929 . S
H125 C115 0.929 . S
H126 C116 0.931 . S
H127 C117 0.929 . S
Tb128 N157 2.617 . S
Tb128 N163 2.572 1_556 S
Tb128 O172 2.465 . S
Tb128 O173 2.387 1_556 S
Tb128 O175 2.428 . S
Tb128 O176 2.308 1_556 S
Tb128 O180 2.349 . S
Tb128 O183 2.393 . S
Tb128 C192 2.802 . S
C129 N130 1.379 . S
C129 C132 1.416 . S
C129 C136 1.424 . S
N130 C129 1.379 . S
N130 C133 1.334 . S
N130 Tb139 2.617 . S
C131 C133 1.390 . S
C131 C134 1.339 . S
C131 H151 0.930 . S
C132 C129 1.416 . S
C132 C134 1.416 . S
C132 C138 1.448 . S
C133 N130 1.334 . S
C133 C131 1.390 . S
C133 H144 0.930 . S
C134 C131 1.339 . S
C134 C132 1.416 . S
C134 H155 0.930 . S
C135 C136 1.413 . S
C135 C137 1.427 . S
C135 C141 1.416 . S
C136 C129 1.424 . S
C136 C135 1.413 . S
C136 N140 1.361 . S
C137 C135 1.427 . S
C137 C138 1.328 . S
C137 H152 0.929 . S
C138 C132 1.448 . S
C138 C137 1.328 . S
C138 H153 0.930 . S
Tb139 N130 2.617 . S
Tb139 N140 2.572 . S
Tb139 O174 2.349 . S
Tb139 O177 2.393 . S
Tb139 O178 2.465 . S
Tb139 O179 2.387 . S
Tb139 O181 2.428 . S
Tb139 O182 2.308 . S
Tb139 C203 2.802 . S
N140 C136 1.361 . S
N140 Tb139 2.572 . S
N140 C142 1.340 . S
C141 C135 1.416 . S
C141 C143 1.332 . S
C141 H149 0.931 . S
C142 N140 1.340 . S
C142 C143 1.407 . S
C142 H148 0.930 . S
C143 C141 1.332 . S
C143 C142 1.407 . S
C143 H145 0.929 . S
H144 C133 0.930 . S
H145 C143 0.929 . S
H146 C161 0.930 . S
H147 C168 0.929 . S
H148 C142 0.930 . S
H149 C141 0.931 . S
H150 C164 0.930 . S
H151 C131 0.930 . S
H152 C137 0.929 . S
H153 C138 0.930 . S
H154 C159 0.930 . S
H155 C134 0.930 . S
H156 C167 0.931 . S
N157 Tb128 2.617 . S
N157 C158 1.379 1_556 S
N157 C161 1.334 . S
C158 N157 1.379 1_554 S
C158 C160 1.416 . S
C158 C166 1.424 . S
C159 H154 0.930 . S
C159 C161 1.390 . S
C159 C162 1.339 1_556 S
C160 C158 1.416 . S
C160 C162 1.416 . S
C160 C193 1.448 . S
C161 H146 0.930 . S
C161 N157 1.334 . S
C161 C159 1.390 . S
C162 C159 1.339 1_554 S
C162 C160 1.416 . S
C162 H169 0.930 . S
N163 Tb128 2.572 1_554 S
N163 C164 1.340 . S
N163 C166 1.361 . S
C164 H150 0.930 . S
C164 N163 1.340 . S
C164 C168 1.407 . S
C165 C166 1.413 . S
C165 C167 1.416 . S
C165 C194 1.427 . S
C166 C158 1.424 . S
C166 N163 1.361 . S
C166 C165 1.413 . S
C167 H156 0.931 . S
C167 C165 1.416 . S
C167 C168 1.332 . S
C168 H147 0.929 . S
C168 C164 1.407 . S
C168 C167 1.332 . S
H169 C162 0.930 . S
H170 C193 0.930 . S
H171 C194 0.929 . S
O172 Tb128 2.465 . S
O172 C192 1.264 . S
O173 Tb128 2.387 1_554 S
O173 C184 1.264 . S
O174 Tb139 2.349 . S
O174 C184 1.243 . S
O175 Tb128 2.428 . S
O175 C192 1.256 . S
O176 Tb128 2.308 1_554 S
O176 C191 1.266 . S
O177 Tb139 2.393 . S
O177 C191 1.248 . S
O178 Tb139 2.465 . S
O178 C203 1.264 . S
O179 Tb139 2.387 . S
O179 C195 1.264 1_554 S
O180 Tb128 2.349 . S
O180 C195 1.243 . S
O181 Tb139 2.428 . S
O181 C203 1.256 . S
O182 Tb139 2.308 . S
O182 C202 1.266 . S
O183 Tb128 2.393 . S
O183 C202 1.248 1_556 S
C184 O173 1.264 . S
C184 O174 1.243 . S
C185 C188 1.399 . S
C185 C190 1.383 . S
C185 C192 1.496 . S
C186 C187 1.399 . S
C186 C190 1.389 . S
C187 C186 1.399 . S
C187 C189 1.380 . S
C187 H204 0.929 . S
C188 C185 1.399 . S
C188 C189 1.392 . S
C188 H205 0.929 . S
C189 C187 1.380 . S
C189 C188 1.392 . S
C189 H206 0.929 . S
C190 C185 1.383 . S
C190 C186 1.389 . S
C190 H207 0.931 . S
C191 O176 1.266 . S
C191 O177 1.248 . S
C192 Tb128 2.802 . S
C192 O172 1.264 . S
C192 O175 1.256 . S
C192 C185 1.496 . S
C193 C160 1.448 . S
C193 H170 0.930 . S
C193 C194 1.328 . S
C194 C165 1.427 . S
C194 H171 0.929 . S
C194 C193 1.328 . S
C195 O179 1.264 1_556 S
C195 O180 1.243 . S
C196 C199 1.399 . S
C196 C200 1.383 . S
C196 C203 1.496 . S
C197 C198 1.399 . S
C197 C200 1.389 . S
C198 C197 1.399 . S
C198 C201 1.380 . S
C198 H208 0.929 . S
C199 C196 1.399 . S
C199 C201 1.392 . S
C199 H209 0.929 . S
C200 C196 1.383 . S
C200 C197 1.389 . S
C200 H210 0.931 . S
C201 C198 1.380 . S
C201 C199 1.392 . S
C201 H211 0.929 . S
C202 O182 1.266 . S
C202 O183 1.248 1_554 S
C203 Tb139 2.802 . S
C203 O178 1.264 . S
C203 O181 1.256 . S
C203 C196 1.496 . S
H204 C187 0.929 . S
H205 C188 0.929 . S
H206 C189 0.929 . S
H207 C190 0.931 . S
H208 C198 0.929 . S
H209 C199 0.929 . S
H210 C200 0.931 . S
H211 C201 0.929 . S
C212 C213 1.369 . S
C212 C214 1.419 . S
C212 H216 0.930 . S
C213 C212 1.369 . S
C213 C222 1.429 . S
C214 C212 1.419 . S
C214 C215 1.363 . S
C214 H217 0.929 . S
C215 C214 1.363 . S
C215 C221 1.428 . S
H216 C212 0.930 . S
H217 C214 0.929 . S
S218 N219 1.613 . S
S218 N220 1.610 . S
N219 S218 1.613 . S
N219 C222 1.350 . S
N220 S218 1.610 . S
N220 C221 1.351 . S
C221 C215 1.428 . S
C221 N220 1.351 . S
C221 C222 1.434 . S
C222 C213 1.429 . S
C222 N219 1.350 . S
C222 C221 1.434 . S
C223 C224 1.369 . S
C223 C225 1.419 . S
C223 H227 0.930 1_554 S
C224 C223 1.369 . S
C224 C233 1.429 . S
C225 C223 1.419 . S
C225 C226 1.363 . S
C225 H228 0.929 1_554 S
C226 C225 1.363 . S
C226 C232 1.428 . S
H227 C223 0.930 1_556 S
H228 C225 0.929 1_556 S
S229 N230 1.613 . S
S229 N231 1.610 . S
N230 S229 1.613 . S
N230 C233 1.350 . S
N231 S229 1.610 . S
N231 C232 1.351 . S
C232 C226 1.428 . S
C232 N231 1.351 . S
C232 C233 1.434 . S
C233 C224 1.429 . S
C233 N230 1.350 . S
C233 C232 1.434 . S
C234 C235 1.369 . S
C234 C236 1.419 . S
C234 H238 0.930 . S
C235 C234 1.369 . S
C235 C244 1.429 . S
C236 C234 1.419 . S
C236 C237 1.363 . S
C236 H239 0.929 . S
C237 C236 1.363 . S
C237 C243 1.428 . S
H238 C234 0.930 . S
H239 C236 0.929 . S
S240 N241 1.613 1_545 S
S240 N242 1.610 1_545 S
N241 S240 1.613 1_565 S
N241 C244 1.350 . S
N242 S240 1.610 1_565 S
N242 C243 1.351 . S
C243 C237 1.428 . S
C243 N242 1.351 . S
C243 C244 1.434 . S
C244 C235 1.429 . S
C244 N241 1.350 . S
C244 C243 1.434 . S
C245 C246 1.369 . S
C245 C247 1.419 . S
C245 H249 0.930 . S
C246 C245 1.369 . S
C246 C255 1.429 . S
C247 C245 1.419 . S
C247 C248 1.363 . S
C247 H250 0.929 . S
C248 C247 1.363 . S
C248 C254 1.428 . S
H249 C245 0.930 . S
H250 C247 0.929 . S
S251 N252 1.613 . S
S251 N253 1.610 . S
N252 S251 1.613 . S
N252 C255 1.350 . S
N253 S251 1.610 . S
N253 C254 1.351 . S
C254 C248 1.428 . S
C254 N253 1.351 . S
C254 C255 1.434 . S
C255 C246 1.429 . S
C255 N252 1.350 . S
C255 C254 1.434 . S
C256 C257 1.369 . S
C256 C258 1.419 . S
C256 H260 0.930 . S
C257 C256 1.369 . S
C257 C266 1.429 . S
C258 C256 1.419 . S
C258 C259 1.363 . S
C258 H261 0.929 1_565 S
C259 C258 1.363 . S
C259 C265 1.428 . S
H260 C256 0.930 . S
H261 C258 0.929 1_545 S
S262 N263 1.613 . S
S262 N264 1.610 . S
N263 S262 1.613 . S
N263 C266 1.350 . S
N264 S262 1.610 . S
N264 C265 1.351 . S
C265 C259 1.428 . S
C265 N264 1.351 . S
C265 C266 1.434 . S
C266 C257 1.429 . S
C266 N263 1.350 . S
C266 C265 1.434 . S
C267 C268 1.369 . S
C267 C269 1.419 . S
C267 H271 0.930 . S
C268 C267 1.369 . S
C268 C277 1.429 . S
C269 C267 1.419 . S
C269 C270 1.363 . S
C269 H272 0.929 . S
C270 C269 1.363 . S
C270 C276 1.428 . S
H271 C267 0.930 . S
H272 C269 0.929 . S
S273 N274 1.613 . S
S273 N275 1.610 . S
N274 S273 1.613 . S
N274 C277 1.350 . S
N275 S273 1.610 . S
N275 C276 1.351 . S
C276 C270 1.428 . S
C276 N275 1.351 . S
C276 C277 1.434 . S
C277 C268 1.429 . S
C277 N274 1.350 . S
C277 C276 1.434 . S
C278 C279 1.369 . S
C278 C280 1.419 . S
C278 H282 0.930 . S
C279 C278 1.369 . S
C279 C288 1.429 . S
C280 C278 1.419 . S
C280 C281 1.363 . S
C280 H283 0.929 . S
C281 C280 1.363 . S
C281 C287 1.428 . S
H282 C278 0.930 . S
H283 C280 0.929 . S
S284 N285 1.613 . S
S284 N286 1.610 . S
N285 S284 1.613 . S
N285 C288 1.350 . S
N286 S284 1.610 . S
N286 C287 1.351 . S
C287 C281 1.428 . S
C287 N286 1.351 . S
C287 C288 1.434 . S
C288 C279 1.429 . S
C288 N285 1.350 . S
C288 C287 1.434 . S
C289 C290 1.369 . S
C289 C291 1.419 . S
C289 H293 0.930 . S
C290 C289 1.369 . S
C290 C299 1.429 . S
C291 C289 1.419 . S
C291 C292 1.363 . S
C291 H294 0.929 . S
C292 C291 1.363 . S
C292 C298 1.428 . S
H293 C289 0.930 . S
H294 C291 0.929 . S
S295 N296 1.613 . S
S295 N297 1.610 . S
N296 S295 1.613 . S
N296 C299 1.350 . S
N297 S295 1.610 . S
N297 C298 1.351 . S
C298 C292 1.428 . S
C298 N297 1.351 . S
C298 C299 1.434 . S
C299 C290 1.429 . S
C299 N296 1.350 . S
C299 C298 1.434 . S
C300 C301 1.369 . S
C300 C302 1.419 . S
C300 H304 0.930 . S
C301 C300 1.369 . S
C301 C310 1.429 . S
C302 C300 1.419 . S
C302 C303 1.363 . S
C302 H305 0.929 . S
C303 C302 1.363 . S
C303 C309 1.428 . S
H304 C300 0.930 . S
H305 C302 0.929 . S
S306 N307 1.613 . S
S306 N308 1.610 . S
N307 S306 1.613 . S
N307 C310 1.350 . S
N308 S306 1.610 . S
N308 C309 1.351 . S
C309 C303 1.428 . S
C309 N308 1.351 . S
C309 C310 1.434 . S
C310 C301 1.429 . S
C310 N307 1.350 . S
C310 C309 1.434 . S
C311 C312 1.369 . S
C311 C313 1.419 . S
C311 H315 0.930 . S
C312 C311 1.369 . S
C312 C321 1.429 . S
C313 C311 1.419 . S
C313 C314 1.363 . S
C313 H316 0.929 . S
C314 C313 1.363 . S
C314 C320 1.428 . S
H315 C311 0.930 . S
H316 C313 0.929 . S
S317 N318 1.613 1_565 S
S317 N319 1.610 1_554 S
N318 S317 1.613 1_545 S
N318 C321 1.350 1_554 S
N319 S317 1.610 1_556 S
N319 C320 1.351 1_565 S
C320 C314 1.428 . S
C320 N319 1.351 1_545 S
C320 C321 1.434 . S
C321 C312 1.429 . S
C321 N318 1.350 1_556 S
C321 C320 1.434 . S
C322 C323 1.369 . S
C322 C324 1.419 . S
C322 H326 0.930 . S
C323 C322 1.369 . S
C323 C332 1.429 . S
C324 C322 1.419 . S
C324 C325 1.363 . S
C324 H327 0.929 . S
C325 C324 1.363 . S
C325 C331 1.428 . S
H326 C322 0.930 . S
H327 C324 0.929 . S
S328 N329 1.613 . S
S328 N330 1.610 . S
N329 S328 1.613 . S
N329 C332 1.350 . S
N330 S328 1.610 . S
N330 C331 1.351 . S
C331 C325 1.428 . S
C331 N330 1.351 . S
C331 C332 1.434 . S
C332 C323 1.429 . S
C332 N329 1.350 . S
C332 C331 1.434 . S
C333 C334 1.369 . S
C333 C335 1.419 . S
C333 H337 0.930 . S
C334 C333 1.369 . S
C334 C343 1.429 . S
C335 C333 1.419 . S
C335 C336 1.363 . S
C335 H338 0.929 . S
C336 C335 1.363 . S
C336 C342 1.428 . S
H337 C333 0.930 . S
H338 C335 0.929 . S
S339 N340 1.613 . S
S339 N341 1.610 . S
N340 S339 1.613 . S
N340 C343 1.350 1_545 S
N341 S339 1.610 . S
N341 C342 1.351 1_545 S
C342 C336 1.428 . S
C342 N341 1.351 1_565 S
C342 C343 1.434 . S
C343 C334 1.429 . S
C343 N340 1.350 1_565 S
C343 C342 1.434 . S
C215 C107 1.613 . S
C213 C41 1.605 . S
C224 C8 1.629 . S
C226 C202 1.631 . S
C235 C19 1.732 . S
C237 C118 1.780 . S
C246 C30 1.590 . S
C248 C191 1.601 . S
C259 C102 1.431 . S
C257 C5 1.453 . S
C270 C195 1.794 . S
C268 C18 1.748 . S
C279 C29 1.593 . S
C281 C111 1.712 . S
C290 C40 1.588 . S
C292 C186 1.508 . S
C303 C197 1.391 . S
C301 C16 1.312 . S
C314 C113 1.353 . S
C312 C27 1.290 1_556 S
C325 C184 1.544 . S
C323 C38 1.278 . S
C334 C7 1.497 . S
C336 C100 1.525 . S
