# Generated by pormake.
# Topology nia, (6,6)-cn, num edge types: 1
# Building blocks:
#     Node 0, Type 0, BuildingBlock: FUNLAD_clean_sbu_0, # of connection points: 6
#     Node 1, Type 0, BuildingBlock: FUNLAD_clean_sbu_0, # of connection points: 6
#     Node 2, Type 1, BuildingBlock: MIDCAF_clean_sbu_0, # of connection points: 6
#     Node 3, Type 1, BuildingBlock: MIDCAF_clean_sbu_0, # of connection points: 6
#     Edge 4, Type (0, 1), BuildingBlock: FUNLAD_clean_linker_1, # of connection points: 2
#     Edge 5, Type (0, 1), BuildingBlock: FUNLAD_clean_linker_1, # of connection points: 2
#     Edge 6, Type (0, 1), BuildingBlock: FUNLAD_clean_linker_1, # of connection points: 2
#     Edge 7, Type (0, 1), BuildingBlock: FUNLAD_clean_linker_1, # of connection points: 2
#     Edge 8, Type (0, 1), BuildingBlock: FUNLAD_clean_linker_1, # of connection points: 2
#     Edge 9, Type (0, 1), BuildingBlock: FUNLAD_clean_linker_1, # of connection points: 2
#     Edge 10, Type (0, 1), BuildingBlock: FUNLAD_clean_linker_1, # of connection points: 2
#     Edge 11, Type (0, 1), BuildingBlock: FUNLAD_clean_linker_1, # of connection points: 2
#     Edge 12, Type (0, 1), BuildingBlock: FUNLAD_clean_linker_1, # of connection points: 2
#     Edge 13, Type (0, 1), BuildingBlock: FUNLAD_clean_linker_1, # of connection points: 2
#     Edge 14, Type (0, 1), BuildingBlock: FUNLAD_clean_linker_1, # of connection points: 2
#     Edge 15, Type (0, 1), BuildingBlock: FUNLAD_clean_linker_1, # of connection points: 2
# Relax obj value: 0.144
# Max RMSD: 0.243
# Mean RMSD: 0.144
data_MOF--net-nia--node1-FUNLAD_clean_sbu_0--node2-MIDCAF_clean_sbu_0--edge1-FUNLAD_clean_linker_1
_symmetry_space_group_name_H-M    P1
_symmetry_Int_Tables_number       1
_symmetry_cell_setting            triclinic
loop_
_symmetry_equiv_pos_as_xyz
'x, y, z'
_cell_length_a     24.665787
_cell_length_b     24.64478
_cell_length_c     37.201645
_cell_angle_alpha  96.82441
_cell_angle_beta   96.542368
_cell_angle_gamma 117.52456
loop_
_atom_site_label
_atom_site_type_symbol
_atom_site_fract_x
_atom_site_fract_y
_atom_site_fract_z
_atom_type_partial_charge
C0 C 0.0948 0.00372 0.07705 0.0
N1 N 0.13004 0.08199 0.98305 0.0
C2 C 0.18824 0.12514 1.00128 0.0
C3 C 0.23631 0.15135 0.98184 0.0
C4 C 0.22433 0.13347 0.94331 0.0
C5 C 0.1638 0.08853 0.92519 0.0
C6 C 0.11718 0.06339 0.94573 0.0
Zn7 Zn 0.05994 0.04461 0.01152 0.0
C8 C 0.98087 0.90815 0.98321 0.0
N9 N 0.91001 0.96638 0.06898 0.0
C10 C 0.92595 0.98369 0.10639 0.0
C11 C 0.85024 0.92597 0.05196 0.0
C12 C 0.80378 0.90154 0.07282 0.0
C13 C 0.8188 0.91872 0.11152 0.0
C14 C 0.88112 0.96043 0.12827 0.0
Zn15 Zn 0.97955 0.00326 0.03966 0.0
O16 O 0.11849 0.0328 0.05213 0.0
C17 C 0.05917 0.14001 0.06757 0.0
O18 O 0.03739 0.98423 0.07757 0.0
H19 H 0.8386 0.91272 0.02219 0.0
H20 H 0.1974 0.13922 0.03095 0.0
H21 H 0.97377 0.01582 0.11945 0.0
O22 O 0.08741 0.13405 0.04218 0.0
O23 O 0.01245 0.09242 0.0732 0.0
H24 H 0.07062 0.02871 0.93181 0.0
O25 O 0.92319 0.02295 1.00111 0.0
O26 O 0.00074 0.05627 0.9712 0.0
O27 O 0.94739 0.91457 1.00521 0.0
O28 O 0.03199 0.95466 0.98145 0.0
C29 C 0.94558 0.04441 0.97362 0.0
H30 H 0.28251 0.1855 0.99679 0.0
H31 H 0.15239 0.07173 0.89569 0.0
H32 H 0.75636 0.8695 0.05876 0.0
H33 H 0.89599 0.97559 0.15781 0.0
C34 C 0.04908 0.96351 0.46936 0.0
N35 N 0.98138 0.90667 0.56458 0.0
C36 C 0.9486 0.84544 0.54808 0.0
C37 C 0.93548 0.79925 0.56934 0.0
C38 C 0.95632 0.81622 0.60781 0.0
C39 C 0.99024 0.8799 0.62394 0.0
C40 C 0.00231 0.92427 0.60174 0.0
Zn41 Zn 0.00074 0.97717 0.53593 0.0
C42 C 0.13204 0.07921 0.5642 0.0
N43 N 0.04554 0.1327 0.48334 0.0
C44 C 0.02914 0.11884 0.44587 0.0
C45 C 0.07797 0.19276 0.50199 0.0
C46 C 0.09661 0.24173 0.48276 0.0
C47 C 0.08259 0.22866 0.44407 0.0
C48 C 0.04736 0.1663 0.42554 0.0
Zn49 Zn 0.02463 0.06101 0.51084 0.0
O50 O 0.03019 0.93517 0.49547 0.0
C51 C 0.89336 0.96077 0.48238 0.0
O52 O 0.05109 0.01593 0.46905 0.0
H53 H 0.09049 0.20265 0.53177 0.0
H54 H 0.93228 0.83246 0.51852 0.0
H55 H 0.00271 0.07075 0.43159 0.0
O56 O 0.90825 0.93045 0.50328 0.0
O57 O 0.93281 0.01613 0.48124 0.0
H58 H 0.02801 0.97315 0.6145 0.0
O59 O -0.00232 0.10451 0.5532 0.0
O60 O 0.9722 0.02002 0.57641 0.0
O61 O 0.1169 0.10623 0.54118 0.0
O62 O 0.09261 0.02494 0.56739 0.0
C63 C 0.97665 0.07357 0.57808 0.0
H64 H 0.90891 0.75063 0.55583 0.0
H65 H 0.00667 0.89623 0.65333 0.0
H66 H 0.12333 0.28936 0.49794 0.0
H67 H 0.03384 0.15408 0.39579 0.0
Zn68 Zn 0.3141 0.69232 0.20097 0.0
Zn69 Zn 0.32575 0.73271 0.34728 0.0
Zn70 Zn 0.31969 0.71437 0.27337 0.0
C71 C 0.44709 0.77363 0.33514 0.0
C72 C 0.25804 0.60396 0.31862 0.0
O73 O 0.27444 0.76501 0.24982 0.0
O74 O 0.26269 0.73309 0.18982 0.0
C75 C 0.43996 0.76014 0.23409 0.0
O76 O 0.41808 0.75519 0.30131 0.0
O77 O 0.41768 0.77118 0.36111 0.0
O78 O 0.27521 0.64252 0.34864 0.0
O79 O 0.27068 0.62311 0.28841 0.0
O80 O 0.40512 0.73844 0.20257 0.0
O81 O 0.41603 0.75403 0.26333 0.0
O82 O 0.26209 0.61304 0.24991 0.0
O83 O 0.27091 0.60018 0.19142 0.0
C84 C 0.24947 0.57726 0.21849 0.0
O85 O 0.27562 0.77252 0.28794 0.0
O86 O 0.28557 0.78576 0.3487 0.0
C87 C 0.2544 0.76403 0.21611 0.0
C88 C 0.26667 0.79528 0.31831 0.0
Zn89 Zn 0.72654 0.33496 0.84383 0.0
Zn90 Zn 0.69054 0.32895 0.70124 0.0
Zn91 Zn 0.71111 0.32871 0.77165 0.0
C92 C 0.77039 0.45138 0.73472 0.0
C93 C 0.57476 0.27213 0.71636 0.0
O94 O 0.75766 0.27239 0.78435 0.0
O95 O 0.76164 0.27793 0.84443 0.0
C96 C 0.78724 0.45642 0.83483 0.0
O97 O 0.76327 0.42564 0.76321 0.0
O98 O 0.74219 0.41879 0.703 0.0
O99 O 0.59982 0.29215 0.68963 0.0
O100 O 0.6089 0.28135 0.74783 0.0
O101 O 0.78186 0.42594 0.86041 0.0
O102 O 0.76337 0.42762 0.80106 0.0
O103 O 0.61841 0.28913 0.78635 0.0
O104 O 0.63751 0.30131 0.84716 0.0
C105 C 0.59918 0.28379 0.81714 0.0
O106 O 0.75416 0.27638 0.74646 0.0
O107 O 0.72603 0.2741 0.68732 0.0
C108 C 0.77135 0.25692 0.81462 0.0
C109 C 0.75336 0.25972 0.71215 0.0
H110 H 0.18375 0.01424 0.10497 0.0
C111 C 0.13382 0.99127 0.10424 0.0
H112 H 0.05955 0.92638 0.12542 0.0
H113 H 0.29397 0.86192 0.16092 0.0
H114 H 0.29247 0.84845 0.09503 0.0
H115 H 0.22063 0.86712 0.05302 0.0
H116 H 0.15224 0.90172 0.07667 0.0
C117 C 0.1093 0.94898 0.1256 0.0
C118 C 0.14851 0.93148 0.15003 0.0
C119 C 0.18458 0.90649 0.13501 0.0
C120 C 0.22173 0.89019 0.15867 0.0
C121 C 0.26189 0.87107 0.1437 0.0
C122 C 0.26187 0.86364 0.10602 0.0
C123 C 0.22175 0.87454 0.08243 0.0
C124 C 0.18326 0.89536 0.09654 0.0
H125 H 0.1813 0.77272 0.18289 0.0
C126 C 0.21964 0.79675 0.20647 0.0
H127 H 0.28211 0.88448 0.24061 0.0
H128 H 0.0885 0.98164 0.18839 0.0
H129 H 0.08851 0.99151 0.25409 0.0
H130 H 0.14804 0.95677 0.29412 0.0
H131 H 0.20893 0.91263 0.26871 0.0
C132 C 0.24206 0.85819 0.21825 0.0
C133 C 0.2174 0.89189 0.19648 0.0
C134 C 0.18336 0.91876 0.21177 0.0
C135 C 0.14884 0.93862 0.18854 0.0
C136 C 0.11498 0.96512 0.2046 0.0
C137 C 0.11473 0.97122 0.2423 0.0
C138 C 0.14827 0.95161 0.26487 0.0
C139 C 0.18245 0.92582 0.24993 0.0
H140 H 0.22925 0.1544 0.5808 0.0
C141 C 0.19467 0.11146 0.58739 0.0
H142 H 0.17555 0.04743 0.62347 0.0
H143 H 0.46194 0.12309 0.66502 0.0
H144 H 0.41535 0.01372 0.63665 0.0
H145 H 0.30332 0.95315 0.60925 0.0
H146 H 0.23726 0.00162 0.61 0.0
C147 C 0.2095 0.09051 0.61671 0.0
C148 C 0.27371 0.12355 0.63904 0.0
C149 C 0.31108 0.09385 0.63922 0.0
C150 C 0.3756 0.1287 0.65506 0.0
C151 C 0.41258 0.09873 0.6536 0.0
C152 C 0.38644 0.03596 0.63737 0.0
C153 C 0.32336 0.00186 0.62194 0.0
C154 C 0.28595 0.03027 0.6226 0.0
H155 H 0.48464 0.20986 0.73122 0.0
C156 C 0.50623 0.2361 0.71069 0.0
H157 H 0.49164 0.25945 0.65891 0.0
H158 H 0.21156 0.18952 0.65175 0.0
H159 H 0.25734 0.29771 0.68273 0.0
H160 H 0.36998 0.35903 0.70858 0.0
H161 H 0.43737 0.31224 0.70394 0.0
C162 C 0.47069 0.23263 0.67943 0.0
C163 C 0.40213 0.19285 0.67086 0.0
C164 C 0.36367 0.2209 0.67367 0.0
C165 C 0.29911 0.18598 0.65813 0.0
C166 C 0.26132 0.21465 0.66204 0.0
C167 C 0.28692 0.27651 0.68002 0.0
C168 C 0.35033 0.31101 0.69461 0.0
C169 C 0.3885 0.28374 0.69162 0.0
H170 H 0.11976 0.24137 0.08267 0.0
C171 C 0.0811 0.2022 0.08992 0.0
H172 H 0.0185 0.17394 0.12699 0.0
H173 H 0.21672 0.42149 0.24292 0.0
H174 H 0.20555 0.34046 0.27723 0.0
H175 H 0.13714 0.22941 0.24892 0.0
H176 H 0.07957 0.19887 0.18589 0.0
C177 C 0.05577 0.21246 0.1184 0.0
C178 C 0.08079 0.27714 0.13936 0.0
C179 C 0.11249 0.29403 0.17648 0.0
C180 C 0.15108 0.35817 0.19303 0.0
C181 C 0.18542 0.37378 0.22932 0.0
C182 C 0.17977 0.32761 0.24926 0.0
C183 C 0.14128 0.26506 0.2333 0.0
C184 C 0.1085 0.24815 0.19716 0.0
H185 H 0.17443 0.49236 0.23165 0.0
C186 C 0.2072 0.50962 0.21325 0.0
H187 H 0.23857 0.48859 0.16601 0.0
H188 H 0.00969 0.25931 0.07262 0.0
H189 H 0.0109 0.34014 0.04055 0.0
H190 H 0.07802 0.45146 0.06881 0.0
H191 H 0.14394 0.48254 0.12927 0.0
C192 C 0.20626 0.47039 0.18459 0.0
C193 C 0.1561 0.40468 0.17246 0.0
C194 C 0.11748 0.38748 0.13729 0.0
C195 C 0.0794 0.32358 0.12084 0.0
C196 C 0.04084 0.30744 0.08582 0.0
C197 C 0.0407 0.3533 0.0673 0.0
C198 C 0.07845 0.41595 0.08322 0.0
C199 C 0.11637 0.43314 0.11783 0.0
H200 H 0.95174 0.07452 0.63281 0.0
C201 C 0.9577 0.09805 0.60945 0.0
H202 H 0.94958 0.16868 0.58645 0.0
H203 H 0.77328 0.11089 0.71643 0.0
H204 H 0.71587 0.00312 0.68326 0.0
H205 H 0.7483 0.96924 0.62838 0.0
H206 H 0.83893 0.04158 0.60722 0.0
C207 C 0.94318 0.14412 0.60934 0.0
C208 C 0.91999 0.16413 0.64093 0.0
C209 C 0.86425 0.12144 0.65129 0.0
C210 C 0.84258 0.14183 0.68109 0.0
C211 C 0.78957 0.09788 0.69275 0.0
C212 C 0.75655 0.03607 0.67413 0.0
C213 C 0.77502 0.01695 0.64337 0.0
C214 C 0.82787 0.05896 0.6318 0.0
H215 H 0.76648 0.19789 0.67158 0.0
C216 C 0.78401 0.22413 0.69982 0.0
H217 H 0.85889 0.26143 0.74506 0.0
H218 H 0.03201 0.25585 0.63154 0.0
H219 H 0.087 0.36336 0.66438 0.0
H220 H 0.04434 0.40015 0.7127 0.0
H221 H 0.94699 0.32947 0.72889 0.0
C222 C 0.83745 0.23084 0.7182 0.0
C223 C 0.87249 0.20578 0.69793 0.0
C224 C 0.92974 0.24764 0.68906 0.0
C225 C 0.95374 0.22666 0.66069 0.0
C226 C 0.0111 0.26946 0.65241 0.0
C227 C 0.04324 0.3313 0.67111 0.0
C228 C 0.01924 0.35201 0.69832 0.0
C229 C 0.96314 0.31094 0.70727 0.0
H230 H 0.72123 0.86131 0.11711 0.0
C231 C 0.76803 0.89239 0.13287 0.0
H232 H 0.82029 0.93629 0.18739 0.0
H233 H 0.57349 0.91367 0.23815 0.0
H234 H 0.64019 0.02581 0.25 0.0
H235 H 0.74462 0.07152 0.23396 0.0
H236 H 0.78285 0.00522 0.2058 0.0
C237 C 0.77546 0.90462 0.16995 0.0
C238 C 0.72034 0.87768 0.18792 0.0
C239 C 0.69981 0.9171 0.20552 0.0
C240 C 0.63977 0.89072 0.21503 0.0
C241 C 0.61889 0.93111 0.23076 0.0
C242 C 0.65671 0.99562 0.23767 0.0
C243 C 0.71552 0.02136 0.22863 0.0
C244 C 0.7369 0.9828 0.2125 0.0
H245 H 0.5383 0.81002 0.26412 0.0
C246 C 0.50829 0.79163 0.23705 0.0
H247 H 0.50342 0.77718 0.17945 0.0
H248 H 0.7539 0.79002 0.16464 0.0
H249 H 0.69061 0.67758 0.15728 0.0
H250 H 0.58589 0.63164 0.173 0.0
H251 H 0.54404 0.6979 0.19642 0.0
C252 C 0.53334 0.79725 0.20657 0.0
C253 C 0.60124 0.82509 0.20728 0.0
C254 C 0.62506 0.78586 0.19392 0.0
C255 C 0.68494 0.81221 0.18447 0.0
C256 C 0.70793 0.77208 0.17136 0.0
C257 C 0.67229 0.70761 0.16727 0.0
C258 C 0.61335 0.68175 0.17614 0.0
C259 C 0.58975 0.7202 0.18934 0.0
H260 H 0.90664 0.71897 0.61567 0.0
C261 C 0.93975 0.76634 0.62996 0.0
H262 H -0.00489 0.82147 0.68225 0.0
H263 H 0.79621 0.61741 0.7572 0.0
H264 H 0.79144 0.71063 0.78173 0.0
H265 H 0.85472 0.81052 0.76294 0.0
H266 H 0.92294 0.81769 0.7193 0.0
C267 C 0.9622 0.77564 0.66626 0.0
C268 C 0.93901 0.72246 0.68586 0.0
C269 C 0.90118 0.71993 0.71226 0.0
C270 C 0.86504 0.66251 0.72331 0.0
C271 C 0.82491 0.65998 0.74812 0.0
C272 C 0.82173 0.71313 0.76236 0.0
C273 C 0.85742 0.7694 0.7518 0.0
C274 C 0.89637 0.77292 0.72678 0.0
H275 H 0.84511 0.54474 0.76471 0.0
C276 C 0.81394 0.51846 0.73849 0.0
H277 H 0.7877 0.51868 0.68257 0.0
H278 H 0.0222 0.71818 0.64451 0.0
H279 H 0.03475 0.62756 0.62472 0.0
H280 H 0.97138 0.52751 0.64338 0.0
H281 H 0.89543 0.51762 0.68209 0.0
C282 C 0.81786 0.54563 0.70899 0.0
C283 C 0.86804 0.60868 0.70824 0.0
C284 C 0.91263 0.61376 0.68615 0.0
C285 C 0.94854 0.67097 0.6751 0.0
C286 C -0.00726 0.67507 0.65292 0.0
C287 C 0.00065 0.62363 0.64162 0.0
C288 C 0.96499 0.56731 0.65214 0.0
C289 C 0.9214 0.56215 0.67415 0.0
H290 H 0.07734 0.89695 0.44525 0.0
C291 C 0.07095 0.93655 0.44063 0.0
H292 H 0.07943 9e-05 0.4054 0.0
H293 H 0.29935 0.97242 0.34705 0.0
H294 H 0.3455 0.08474 0.36785 0.0
H295 H 0.28616 0.12996 0.39639 0.0
H296 H 0.18059 0.06365 0.40419 0.0
C297 C 0.08496 0.96008 0.41003 0.0
C298 C 0.11449 0.93596 0.38432 0.0
C299 C 0.17567 0.9759 0.3795 0.0
C300 C 0.21026 0.94993 0.36353 0.0
C301 C 0.27175 0.99018 0.35961 0.0
C302 C 0.29851 0.0545 0.37124 0.0
C303 C 0.26505 0.07996 0.38727 0.0
C304 C 0.20445 0.04133 0.39161 0.0
H305 H 0.20382 0.82677 0.2919 0.0
C306 C 0.23024 0.82884 0.31789 0.0
H307 H 0.25335 0.86026 0.3756 0.0
H308 H 0.99197 0.85048 0.37769 0.0
H309 H 0.9438 0.73915 0.35295 0.0
H310 H 0.00538 0.69318 0.3283 0.0
H311 H 0.11485 0.75813 0.32754 0.0
C312 C 0.2257 0.85709 0.34973 0.0
C313 C 0.1837 0.88455 0.35259 0.0
C314 C 0.11985 0.84564 0.35269 0.0
C315 C 0.08487 0.87169 0.36804 0.0
C316 C 0.02094 0.83235 0.36746 0.0
C317 C -0.00725 0.76863 0.35315 0.0
C318 C 0.02741 0.74278 0.3392 0.0
C319 C 0.09028 0.78058 0.33898 0.0
H320 H 0.32364 0.18237 0.93979 0.0
C321 C 0.27668 0.16069 0.9235 0.0
H322 H 0.22434 0.14079 0.86959 0.0
H323 H 0.523 0.35319 0.87834 0.0
H324 H 0.49809 0.42482 0.91421 0.0
H325 H 0.39334 0.38859 0.92914 0.0
H326 H 0.31303 0.28031 0.90846 0.0
C327 C 0.26991 0.16106 0.88713 0.0
C328 C 0.3259 0.18668 0.86997 0.0
C329 C 0.37143 0.25033 0.88122 0.0
C330 C 0.43132 0.27126 0.87222 0.0
C331 C 0.47671 0.33476 0.88464 0.0
C332 C 0.46294 0.37638 0.90508 0.0
C333 C 0.40399 0.35598 0.9135 0.0
C334 C 0.35852 0.29374 0.90173 0.0
H335 H 0.50066 0.2517 0.79261 0.0
C336 C 0.53238 0.25922 0.81769 0.0
H337 H 0.54228 0.25722 0.87455 0.0
H338 H 0.24421 0.06522 0.8376 0.0
H339 H 0.2664 0.99532 0.7979 0.0
H340 H 0.37075 0.03125 0.78248 0.0
H341 H 0.45341 0.1371 0.80656 0.0
C342 C 0.51064 0.24784 0.84895 0.0
C343 C 0.44494 0.22872 0.85136 0.0
C344 C 0.39723 0.16677 0.83659 0.0
C345 C 0.33725 0.14585 0.84574 0.0
C346 C 0.2906 0.0834 0.83152 0.0
C347 C 0.30271 0.04284 0.80871 0.0
C348 C 0.36146 0.06309 0.80001 0.0
C349 C 0.40849 0.12413 0.81393 0.0
H350 H 0.11646 0.32671 0.43901 0.0
C351 C 0.1058 0.2811 0.42414 0.0
H352 H 0.11128 0.23238 0.3748 0.0
H353 H 0.1131 0.44544 0.29129 0.0
H354 H 0.02377 0.35274 0.25433 0.0
H355 H 0.99025 0.25 0.27172 0.0
H356 H 0.04607 0.23951 0.32635 0.0
C357 C 0.11971 0.27659 0.39032 0.0
C358 C 0.14856 0.33327 0.37396 0.0
C359 C 0.11616 0.33815 0.34161 0.0
C360 C 0.13607 0.39727 0.33131 0.0
C361 C 0.10108 0.4016 0.29994 0.0
C362 C 0.04941 0.34873 0.27858 0.0
C363 C 0.03049 0.29088 0.28839 0.0
C364 C 0.06289 0.28548 0.31977 0.0
H365 H 0.22917 0.50558 0.29588 0.0
C366 C 0.22813 0.53669 0.31873 0.0
H367 H 0.20534 0.54607 0.37109 0.0
H368 H 0.23222 0.33415 0.42939 0.0
H369 H 0.32864 0.42425 0.46243 0.0
H370 H 0.3624 0.5275 0.44569 0.0
H371 H 0.30035 0.54105 0.39569 0.0
C372 C 0.20469 0.51446 0.34781 0.0
C373 C 0.18905 0.45059 0.35318 0.0
C374 C 0.22582 0.44381 0.38262 0.0
C375 C 0.20596 0.38481 0.3927 0.0
C376 C 0.24426 0.37865 0.42154 0.0
C377 C 0.29995 0.42981 0.44046 0.0
C378 C 0.31897 0.48789 0.43101 0.0
C379 C 0.28267 0.49508 0.40239 0.0
H380 H 0.86847 0.06112 0.9522 0.0
C381 C 0.90933 0.05888 0.9457 0.0
H382 H 0.96871 0.07053 0.90729 0.0
H383 H 0.71544 0.08148 0.82669 0.0
H384 H 0.65614 0.97232 0.83122 0.0
H385 H 0.70787 0.91948 0.86085 0.0
H386 H 0.81888 0.97551 0.88654 0.0
C387 C 0.92773 0.0726 0.91368 0.0
C388 C 0.89841 0.09889 0.88882 0.0
C389 C 0.8341 0.06475 0.87286 0.0
C390 C 0.80451 0.09478 0.85515 0.0
C391 C 0.73985 0.06057 0.84053 0.0
C392 C 0.70551 -0.00201 0.84277 0.0
C393 C 0.73464 0.96825 0.85949 0.0
C394 C 0.79821 0.00099 0.87435 0.0
H395 H 0.8154 0.20254 0.79177 0.0
C396 C 0.79931 0.21521 0.8157 0.0
H397 H 0.7883 0.20549 0.87051 0.0
H398 H 0.02496 0.17464 0.91035 0.0
H399 H 0.08455 0.28042 0.90112 0.0
H400 H 0.03299 0.33149 0.86938 0.0
H401 H 0.92133 0.27679 0.84665 0.0
C402 C 0.80638 0.19466 0.84697 0.0
C403 C 0.83943 0.15824 0.85276 0.0
C404 C 0.90493 0.19 0.86466 0.0
C405 C 0.93459 0.16033 0.8828 0.0
C406 C -0.00016 0.19433 0.89601 0.0
C407 C 0.03471 0.25529 0.89098 0.0
C408 C 0.00569 0.28407 0.87314 0.0
C409 C 0.94154 0.25217 0.86027 0.0
H410 H 0.81605 0.96737 0.45181 0.0
C411 C 0.8306 0.93444 0.45999 0.0
H412 H 0.80646 0.83958 0.45556 0.0
H413 H 0.51652 0.75044 0.42463 0.0
H414 H 0.52956 0.70908 0.47894 0.0
H415 H 0.63398 0.73261 0.50993 0.0
H416 H 0.72583 0.79683 0.48646 0.0
C417 C 0.79252 0.87311 0.44784 0.0
C418 C 0.72904 0.85061 0.42576 0.0
C419 C 0.67593 0.81322 0.43999 0.0
C420 C 0.61595 0.80114 0.4227 0.0
C421 C 0.56347 0.76269 0.4372 0.0
C422 C 0.5702 0.7383 0.46828 0.0
C423 C 0.62896 0.75145 0.48568 0.0
C424 C 0.68136 0.78848 0.47188 0.0
H425 H 0.53404 0.77572 0.32372 0.0
C426 C 0.5138 0.79182 0.34411 0.0
H427 H 0.52619 0.83704 0.39839 0.0
H428 H 0.81813 0.90737 0.38519 0.0
H429 H 0.8057 0.9486 0.33047 0.0
H430 H 0.70407 0.93835 0.30448 0.0
H431 H 0.61419 0.8857 0.33235 0.0
C432 C 0.54752 0.82233 0.37805 0.0
C433 C 0.6093 0.8277 0.39171 0.0
C434 C 0.66196 0.86178 0.37602 0.0
C435 C 0.72148 0.8712 0.39235 0.0
C436 C 0.77264 0.90177 0.37491 0.0
C437 C 0.76602 0.92519 0.34337 0.0
C438 C 0.70874 0.91918 0.32865 0.0
C439 C 0.65726 0.88825 0.34479 0.0
H440 H -0.00151 0.8387 0.95138 0.0
C441 C 0.96211 0.8472 0.96022 0.0
H442 H 0.86579 0.8119 0.95784 0.0
H443 H 0.91128 0.62361 0.83134 0.0
H444 H 0.95849 0.7127 0.80195 0.0
H445 H 0.96881 0.81423 0.82882 0.0
H446 H 0.93398 0.82775 0.88604 0.0
C447 C 0.90222 0.80319 0.94929 0.0
C448 C 0.88468 0.73987 0.92872 0.0
C449 C 0.90179 0.73185 0.89405 0.0
C450 C 0.8919 0.67219 0.87719 0.0
C451 C 0.91447 0.66686 0.84433 0.0
C452 C 0.9422 0.71784 0.82731 0.0
C453 C 0.9483 0.77508 0.84253 0.0
C454 C 0.92853 0.78232 0.87553 0.0
H455 H 0.7985 0.54774 0.82584 0.0
C456 C 0.81418 0.52477 0.84441 0.0
H457 H 0.86547 0.53289 0.89575 0.0
H458 H 0.84269 0.73806 0.99408 0.0
H459 H 0.78544 0.64713 0.02001 0.0
H460 H 0.75959 0.54225 0.98798 0.0
H461 H 0.79181 0.52791 0.9302 0.0
C462 C 0.85067 0.55685 0.87747 0.0
C463 C 0.8607 0.6198 0.89369 0.0
C464 C 0.83942 0.62712 0.92693 0.0
C465 C 0.85233 0.68728 0.94475 0.0
C466 C 0.833 0.69341 0.97879 0.0
C467 C 0.80011 0.64153 0.99412 0.0
C468 C 0.78571 0.58254 0.97614 0.0
C469 C 0.80493 0.5751 0.943 0.0
loop_
_geom_bond_atom_site_label_1
_geom_bond_atom_site_label_2
_geom_bond_distance
_geom_bond_site_symmetry_2
_ccdc_geom_bond_type
C0 O16 1.251 1_565 S
C0 O18 1.254 . S
N1 C2 1.333 . S
N1 C6 1.307 . S
N1 Zn7 2.020 . S
C2 N1 1.333 . S
C2 C3 1.379 . S
C2 H20 0.952 1_556 S
C3 C2 1.379 . S
C3 C4 1.390 . S
C3 H30 0.949 . S
C4 C3 1.390 . S
C4 C5 1.357 . S
C5 C4 1.357 . S
C5 C6 1.370 . S
C5 H31 0.950 . S
C6 N1 1.307 . S
C6 C5 1.370 . S
C6 H24 0.948 . S
Zn7 N1 2.020 . S
Zn7 O16 2.039 1_556 S
Zn7 O22 2.034 1_556 S
Zn7 O26 2.025 . S
Zn7 O28 2.024 1_545 S
C8 O27 1.246 . S
C8 O28 1.249 1_655 S
N9 C10 1.307 . S
N9 C11 1.333 . S
N9 Zn15 2.020 1_565 S
C10 N9 1.307 . S
C10 C14 1.370 . S
C10 H21 0.948 . S
C11 N9 1.333 . S
C11 C12 1.379 . S
C11 H19 0.952 . S
C12 C11 1.379 . S
C12 C13 1.390 . S
C12 H32 0.949 . S
C13 C12 1.390 . S
C13 C14 1.357 . S
C14 C10 1.370 . S
C14 C13 1.357 . S
C14 H33 0.950 . S
Zn15 N9 2.020 1_545 S
Zn15 O18 2.025 1_645 S
Zn15 O23 2.024 1_655 S
Zn15 O25 2.040 . S
Zn15 O27 2.034 1_544 S
O16 C0 1.251 1_545 S
O16 Zn7 2.039 1_554 S
C17 O22 1.246 . S
C17 O23 1.249 . S
O18 C0 1.254 . S
O18 Zn15 2.025 1_465 S
H19 C11 0.952 . S
H20 C2 0.952 1_554 S
H21 C10 0.948 . S
O22 Zn7 2.034 1_554 S
O22 C17 1.246 . S
O23 Zn15 2.024 1_455 S
O23 C17 1.249 . S
H24 C6 0.948 . S
O25 Zn15 2.040 . S
O25 C29 1.249 1_554 S
O26 Zn7 2.025 . S
O26 C29 1.254 1_455 S
O27 C8 1.246 . S
O27 Zn15 2.034 1_566 S
O28 Zn7 2.024 1_565 S
O28 C8 1.249 1_455 S
C29 O25 1.249 1_556 S
C29 O26 1.254 1_655 S
H30 C3 0.949 . S
H31 C5 0.950 . S
H32 C12 0.949 . S
H33 C14 0.950 . S
C34 O50 1.251 . S
C34 O52 1.254 1_565 S
N35 C36 1.333 . S
N35 C40 1.307 . S
N35 Zn41 2.020 . S
C36 N35 1.333 . S
C36 C37 1.379 . S
C36 H54 0.952 . S
C37 C36 1.379 . S
C37 C38 1.390 . S
C37 H64 0.949 . S
C38 C37 1.390 . S
C38 C39 1.357 . S
C39 C38 1.357 . S
C39 C40 1.370 . S
C39 H65 0.950 . S
C40 N35 1.307 . S
C40 C39 1.370 . S
C40 H58 0.948 . S
Zn41 N35 2.020 . S
Zn41 O50 2.039 1_655 S
Zn41 O56 2.034 . S
Zn41 O60 2.025 1_565 S
Zn41 O62 2.024 1_665 S
C42 O61 1.246 . S
C42 O62 1.249 . S
N43 C44 1.307 . S
N43 C45 1.333 . S
N43 Zn49 2.020 . S
C44 N43 1.307 . S
C44 C48 1.370 . S
C44 H55 0.948 . S
C45 N43 1.333 . S
C45 C46 1.379 . S
C45 H53 0.952 . S
C46 C45 1.379 . S
C46 C47 1.390 . S
C46 H66 0.949 . S
C47 C46 1.390 . S
C47 C48 1.357 . S
C48 C44 1.370 . S
C48 C47 1.357 . S
C48 H67 0.950 . S
Zn49 N43 2.020 . S
Zn49 O52 2.025 . S
Zn49 O57 2.024 1_455 S
Zn49 O59 2.039 . S
Zn49 O61 2.034 . S
O50 C34 1.251 . S
O50 Zn41 2.039 1_455 S
C51 O56 1.246 . S
C51 O57 1.249 1_565 S
O52 C34 1.254 1_545 S
O52 Zn49 2.025 . S
H53 C45 0.952 . S
H54 C36 0.952 . S
H55 C44 0.948 . S
O56 Zn41 2.034 . S
O56 C51 1.246 . S
O57 Zn49 2.024 1_655 S
O57 C51 1.249 1_545 S
H58 C40 0.948 . S
O59 Zn49 2.039 . S
O59 C63 1.251 1_455 S
O60 Zn41 2.025 1_545 S
O60 C63 1.254 . S
O61 C42 1.246 . S
O61 Zn49 2.034 . S
O62 Zn41 2.024 1_445 S
O62 C42 1.249 . S
C63 O59 1.251 1_655 S
C63 O60 1.254 . S
H64 C37 0.949 . S
H65 C39 0.950 . S
H66 C46 0.949 . S
H67 C48 0.950 . S
Zn68 O74 1.920 . S
Zn68 O80 1.898 . S
Zn68 O83 1.905 . S
Zn69 O77 1.905 . S
Zn69 O78 1.898 . S
Zn69 O86 1.920 . S
Zn70 O73 2.080 . S
Zn70 O76 2.114 . S
Zn70 O79 2.120 . S
Zn70 O81 2.120 . S
Zn70 O82 2.114 . S
Zn70 O85 2.080 . S
C71 O76 1.166 . S
C71 O77 1.182 . S
C72 O78 1.167 . S
C72 O79 1.299 . S
O73 Zn70 2.080 . S
O73 C87 1.305 . S
O74 Zn68 1.920 . S
O74 C87 1.234 . S
C75 O80 1.167 . S
C75 O81 1.299 . S
O76 Zn70 2.114 . S
O76 C71 1.166 . S
O77 Zn69 1.905 . S
O77 C71 1.182 . S
O78 Zn69 1.898 . S
O78 C72 1.167 . S
O79 Zn70 2.120 . S
O79 C72 1.299 . S
O80 Zn68 1.898 . S
O80 C75 1.167 . S
O81 Zn70 2.120 . S
O81 C75 1.299 . S
O82 Zn70 2.114 . S
O82 C84 1.166 . S
O83 Zn68 1.905 . S
O83 C84 1.182 . S
C84 O82 1.166 . S
C84 O83 1.182 . S
O85 Zn70 2.080 . S
O85 C88 1.305 . S
O86 Zn69 1.920 . S
O86 C88 1.234 . S
C87 O73 1.305 . S
C87 O74 1.234 . S
C88 O85 1.305 . S
C88 O86 1.234 . S
Zn89 O95 1.920 . S
Zn89 O101 1.898 . S
Zn89 O104 1.905 . S
Zn90 O98 1.905 . S
Zn90 O99 1.898 . S
Zn90 O107 1.920 . S
Zn91 O94 2.080 . S
Zn91 O97 2.114 . S
Zn91 O100 2.120 . S
Zn91 O102 2.120 . S
Zn91 O103 2.114 . S
Zn91 O106 2.080 . S
C92 O97 1.166 . S
C92 O98 1.182 . S
C93 O99 1.167 . S
C93 O100 1.299 . S
O94 Zn91 2.080 . S
O94 C108 1.305 . S
O95 Zn89 1.920 . S
O95 C108 1.234 . S
C96 O101 1.167 . S
C96 O102 1.299 . S
O97 Zn91 2.114 . S
O97 C92 1.166 . S
O98 Zn90 1.905 . S
O98 C92 1.182 . S
O99 Zn90 1.898 . S
O99 C93 1.167 . S
O100 Zn91 2.120 . S
O100 C93 1.299 . S
O101 Zn89 1.898 . S
O101 C96 1.167 . S
O102 Zn91 2.120 . S
O102 C96 1.299 . S
O103 Zn91 2.114 . S
O103 C105 1.166 . S
O104 Zn89 1.905 . S
O104 C105 1.182 . S
C105 O103 1.166 . S
C105 O104 1.182 . S
O106 Zn91 2.080 . S
O106 C109 1.305 . S
O107 Zn90 1.920 . S
O107 C109 1.234 . S
C108 O94 1.305 . S
C108 O95 1.234 . S
C109 O106 1.305 . S
C109 O107 1.234 . S
H110 C111 0.951 . S
C111 H110 0.951 . S
C111 C117 1.265 . S
H112 C117 0.950 . S
H113 C121 0.949 . S
H114 C122 0.950 . S
H115 C123 0.951 . S
H116 C124 0.951 . S
C117 C111 1.265 . S
C117 H112 0.950 . S
C117 C118 1.478 . S
C118 C117 1.478 . S
C118 C119 1.397 . S
C118 C135 1.394 . S
C119 C118 1.397 . S
C119 C120 1.438 . S
C119 C124 1.429 . S
C120 C119 1.438 . S
C120 C121 1.428 . S
C120 C133 1.394 . S
C121 H113 0.949 . S
C121 C120 1.428 . S
C121 C122 1.345 . S
C122 H114 0.950 . S
C122 C121 1.345 . S
C122 C123 1.424 . S
C123 H115 0.951 . S
C123 C122 1.424 . S
C123 C124 1.347 . S
C124 H116 0.951 . S
C124 C119 1.429 . S
C124 C123 1.347 . S
H125 C126 0.951 . S
C126 H125 0.951 . S
C126 C132 1.265 . S
H127 C132 0.950 . S
H128 C136 0.949 . S
H129 C137 0.934 1_655 S
H130 C138 0.951 . S
H131 C139 0.951 . S
C132 C126 1.265 . S
C132 H127 0.950 . S
C132 C133 1.478 . S
C133 C120 1.394 . S
C133 C132 1.478 . S
C133 C134 1.397 . S
C134 C133 1.397 . S
C134 C135 1.438 . S
C134 C139 1.429 . S
C135 C118 1.394 . S
C135 C134 1.438 . S
C135 C136 1.428 . S
C136 H128 0.949 . S
C136 C135 1.428 . S
C136 C137 1.345 . S
C137 H129 0.934 1_455 S
C137 C136 1.345 . S
C137 C138 1.424 . S
C138 H130 0.951 . S
C138 C137 1.424 . S
C138 C139 1.347 . S
C139 H131 0.951 . S
C139 C134 1.429 . S
C139 C138 1.347 . S
H140 C141 0.951 . S
C141 H140 0.951 . S
C141 C147 1.265 . S
H142 C147 0.950 . S
H143 C151 0.949 . S
H144 C152 0.950 1_565 S
H145 C153 0.951 . S
H146 C154 0.951 . S
C147 C141 1.265 . S
C147 H142 0.950 . S
C147 C148 1.478 . S
C148 C147 1.478 . S
C148 C149 1.397 . S
C148 C165 1.394 . S
C149 C148 1.397 . S
C149 C150 1.438 . S
C149 C154 1.429 . S
C150 C149 1.438 . S
C150 C151 1.428 . S
C150 C163 1.394 . S
C151 H143 0.949 . S
C151 C150 1.428 . S
C151 C152 1.345 . S
C152 H144 0.950 1_545 S
C152 C151 1.345 . S
C152 C153 1.424 1_545 S
C153 H145 0.951 . S
C153 C152 1.424 1_565 S
C153 C154 1.347 1_565 S
C154 H146 0.951 . S
C154 C149 1.429 . S
C154 C153 1.347 1_545 S
H155 C156 0.951 . S
C156 H155 0.951 . S
C156 C162 1.265 . S
H157 C162 0.950 . S
H158 C166 0.949 . S
H159 C167 0.950 . S
H160 C168 0.951 . S
H161 C169 0.951 . S
C162 C156 1.265 . S
C162 H157 0.950 . S
C162 C163 1.478 . S
C163 C150 1.394 . S
C163 C162 1.478 . S
C163 C164 1.397 . S
C164 C163 1.397 . S
C164 C165 1.438 . S
C164 C169 1.429 . S
C165 C148 1.394 . S
C165 C164 1.438 . S
C165 C166 1.428 . S
C166 H158 0.949 . S
C166 C165 1.428 . S
C166 C167 1.345 . S
C167 H159 0.950 . S
C167 C166 1.345 . S
C167 C168 1.424 . S
C168 H160 0.951 . S
C168 C167 1.424 . S
C168 C169 1.347 . S
C169 H161 0.951 . S
C169 C164 1.429 . S
C169 C168 1.347 . S
H170 C171 0.951 . S
C171 H170 0.951 . S
C171 C177 1.265 . S
H172 C177 0.950 . S
H173 C181 0.949 . S
H174 C182 0.950 . S
H175 C183 0.951 . S
H176 C184 0.951 . S
C177 C171 1.265 . S
C177 H172 0.950 . S
C177 C178 1.478 . S
C178 C177 1.478 . S
C178 C179 1.397 . S
C178 C195 1.394 . S
C179 C178 1.397 . S
C179 C180 1.438 . S
C179 C184 1.429 . S
C180 C179 1.438 . S
C180 C181 1.428 . S
C180 C193 1.394 . S
C181 H173 0.949 . S
C181 C180 1.428 . S
C181 C182 1.345 . S
C182 H174 0.950 . S
C182 C181 1.345 . S
C182 C183 1.424 . S
C183 H175 0.951 . S
C183 C182 1.424 . S
C183 C184 1.347 . S
C184 H176 0.951 . S
C184 C179 1.429 . S
C184 C183 1.347 . S
H185 C186 0.951 . S
C186 H185 0.951 . S
C186 C192 1.265 . S
H187 C192 0.950 . S
H188 C196 0.949 . S
H189 C197 0.950 . S
H190 C198 0.951 . S
H191 C199 0.951 . S
C192 C186 1.265 . S
C192 H187 0.950 . S
C192 C193 1.478 . S
C193 C180 1.394 . S
C193 C192 1.478 . S
C193 C194 1.397 . S
C194 C193 1.397 . S
C194 C195 1.438 . S
C194 C199 1.429 . S
C195 C178 1.394 . S
C195 C194 1.438 . S
C195 C196 1.428 . S
C196 H188 0.949 . S
C196 C195 1.428 . S
C196 C197 1.345 . S
C197 H189 0.950 . S
C197 C196 1.345 . S
C197 C198 1.424 . S
C198 H190 0.951 . S
C198 C197 1.424 . S
C198 C199 1.347 . S
C199 H191 0.951 . S
C199 C194 1.429 . S
C199 C198 1.347 . S
H200 C201 0.951 . S
C201 H200 0.951 . S
C201 C207 1.265 . S
H202 C207 0.950 . S
H203 C211 0.949 . S
H204 C212 0.950 . S
H205 C213 0.951 1_565 S
H206 C214 0.951 . S
C207 C201 1.265 . S
C207 H202 0.950 . S
C207 C208 1.478 . S
C208 C207 1.478 . S
C208 C209 1.397 . S
C208 C225 1.394 . S
C209 C208 1.397 . S
C209 C210 1.438 . S
C209 C214 1.429 . S
C210 C209 1.438 . S
C210 C211 1.428 . S
C210 C223 1.394 . S
C211 H203 0.949 . S
C211 C210 1.428 . S
C211 C212 1.345 . S
C212 H204 0.950 . S
C212 C211 1.345 . S
C212 C213 1.424 . S
C213 H205 0.951 1_545 S
C213 C212 1.424 . S
C213 C214 1.347 . S
C214 H206 0.951 . S
C214 C209 1.429 . S
C214 C213 1.347 . S
H215 C216 0.951 . S
C216 H215 0.951 . S
C216 C222 1.265 . S
H217 C222 0.950 . S
H218 C226 0.949 . S
H219 C227 0.950 . S
H220 C228 0.951 . S
H221 C229 0.951 . S
C222 C216 1.265 . S
C222 H217 0.950 . S
C222 C223 1.478 . S
C223 C210 1.394 . S
C223 C222 1.478 . S
C223 C224 1.397 . S
C224 C223 1.397 . S
C224 C225 1.438 . S
C224 C229 1.429 . S
C225 C208 1.394 . S
C225 C224 1.438 . S
C225 C226 1.428 . S
C226 H218 0.949 . S
C226 C225 1.428 . S
C226 C227 1.345 1_655 S
C227 H219 0.950 . S
C227 C226 1.345 1_455 S
C227 C228 1.424 . S
C228 H220 0.951 . S
C228 C227 1.424 . S
C228 C229 1.347 1_455 S
C229 H221 0.951 . S
C229 C224 1.429 . S
C229 C228 1.347 1_655 S
H230 C231 0.951 . S
C231 H230 0.951 . S
C231 C237 1.265 . S
H232 C237 0.950 . S
H233 C241 0.949 . S
H234 C242 0.950 . S
H235 C243 0.951 . S
H236 C244 0.951 1_545 S
C237 C231 1.265 . S
C237 H232 0.950 . S
C237 C238 1.478 . S
C238 C237 1.478 . S
C238 C239 1.397 . S
C238 C255 1.394 . S
C239 C238 1.397 . S
C239 C240 1.438 . S
C239 C244 1.429 . S
C240 C239 1.438 . S
C240 C241 1.428 . S
C240 C253 1.394 . S
C241 H233 0.949 . S
C241 C240 1.428 . S
C241 C242 1.345 1_565 S
C242 H234 0.950 . S
C242 C241 1.345 1_545 S
C242 C243 1.424 . S
C243 H235 0.951 . S
C243 C242 1.424 . S
C243 C244 1.347 1_545 S
C244 H236 0.951 1_565 S
C244 C239 1.429 . S
C244 C243 1.347 1_565 S
H245 C246 0.951 . S
C246 H245 0.951 . S
C246 C252 1.265 . S
H247 C252 0.950 . S
H248 C256 0.949 . S
H249 C257 0.950 . S
H250 C258 0.951 . S
H251 C259 0.951 . S
C252 C246 1.265 . S
C252 H247 0.950 . S
C252 C253 1.478 . S
C253 C240 1.394 . S
C253 C252 1.478 . S
C253 C254 1.397 . S
C254 C253 1.397 . S
C254 C255 1.438 . S
C254 C259 1.429 . S
C255 C238 1.394 . S
C255 C254 1.438 . S
C255 C256 1.428 . S
C256 H248 0.949 . S
C256 C255 1.428 . S
C256 C257 1.345 . S
C257 H249 0.950 . S
C257 C256 1.345 . S
C257 C258 1.424 . S
C258 H250 0.951 . S
C258 C257 1.424 . S
C258 C259 1.347 . S
C259 H251 0.951 . S
C259 C254 1.429 . S
C259 C258 1.347 . S
H260 C261 0.951 . S
C261 H260 0.951 . S
C261 C267 1.265 . S
H262 C267 0.950 . S
H263 C271 0.949 . S
H264 C272 0.950 . S
H265 C273 0.951 . S
H266 C274 0.951 . S
C267 C261 1.265 . S
C267 H262 0.950 . S
C267 C268 1.478 . S
C268 C267 1.478 . S
C268 C269 1.397 . S
C268 C285 1.394 . S
C269 C268 1.397 . S
C269 C270 1.438 . S
C269 C274 1.429 . S
C270 C269 1.438 . S
C270 C271 1.428 . S
C270 C283 1.394 . S
C271 H263 0.949 . S
C271 C270 1.428 . S
C271 C272 1.345 . S
C272 H264 0.950 . S
C272 C271 1.345 . S
C272 C273 1.424 . S
C273 H265 0.951 . S
C273 C272 1.424 . S
C273 C274 1.347 . S
C274 H266 0.951 . S
C274 C269 1.429 . S
C274 C273 1.347 . S
H275 C276 0.951 . S
C276 H275 0.951 . S
C276 C282 1.265 . S
H277 C282 0.950 . S
H278 C286 0.949 . S
H279 C287 0.950 . S
H280 C288 0.951 . S
H281 C289 0.951 . S
C282 C276 1.265 . S
C282 H277 0.950 . S
C282 C283 1.478 . S
C283 C270 1.394 . S
C283 C282 1.478 . S
C283 C284 1.397 . S
C284 C283 1.397 . S
C284 C285 1.438 . S
C284 C289 1.429 . S
C285 C268 1.394 . S
C285 C284 1.438 . S
C285 C286 1.428 . S
C286 H278 0.949 . S
C286 C285 1.428 . S
C286 C287 1.345 . S
C287 H279 0.950 . S
C287 C286 1.345 . S
C287 C288 1.424 . S
C288 H280 0.951 . S
C288 C287 1.424 . S
C288 C289 1.347 . S
C289 H281 0.951 . S
C289 C284 1.429 . S
C289 C288 1.347 . S
H290 C291 0.951 . S
C291 H290 0.951 . S
C291 C297 1.265 . S
H292 C297 0.950 . S
H293 C301 0.949 . S
H294 C302 0.950 1_545 S
H295 C303 0.951 . S
H296 C304 0.951 . S
C297 C291 1.265 . S
C297 H292 0.950 . S
C297 C298 1.478 . S
C298 C297 1.478 . S
C298 C299 1.397 . S
C298 C315 1.394 . S
C299 C298 1.397 . S
C299 C300 1.438 . S
C299 C304 1.429 . S
C300 C299 1.438 . S
C300 C301 1.428 . S
C300 C313 1.394 . S
C301 H293 0.949 . S
C301 C300 1.428 . S
C301 C302 1.345 . S
C302 H294 0.950 1_565 S
C302 C301 1.345 . S
C302 C303 1.424 1_565 S
C303 H295 0.951 . S
C303 C302 1.424 1_545 S
C303 C304 1.347 1_545 S
C304 H296 0.951 . S
C304 C299 1.429 . S
C304 C303 1.347 1_565 S
H305 C306 0.951 . S
C306 H305 0.951 . S
C306 C312 1.265 . S
H307 C312 0.950 . S
H308 C316 0.949 . S
H309 C317 0.950 . S
H310 C318 0.951 . S
H311 C319 0.951 . S
C312 C306 1.265 . S
C312 H307 0.950 . S
C312 C313 1.478 . S
C313 C300 1.394 . S
C313 C312 1.478 . S
C313 C314 1.397 . S
C314 C313 1.397 . S
C314 C315 1.438 . S
C314 C319 1.429 . S
C315 C298 1.394 . S
C315 C314 1.438 . S
C315 C316 1.428 . S
C316 H308 0.949 . S
C316 C315 1.428 . S
C316 C317 1.345 . S
C317 H309 0.950 . S
C317 C316 1.345 . S
C317 C318 1.424 . S
C318 H310 0.951 . S
C318 C317 1.424 . S
C318 C319 1.347 . S
C319 H311 0.951 . S
C319 C314 1.429 . S
C319 C318 1.347 . S
H320 C321 0.951 . S
C321 H320 0.951 . S
C321 C327 1.265 . S
H322 C327 0.950 . S
H323 C331 0.949 . S
H324 C332 0.950 . S
H325 C333 0.951 . S
H326 C334 0.951 . S
C327 C321 1.265 . S
C327 H322 0.950 . S
C327 C328 1.478 . S
C328 C327 1.478 . S
C328 C329 1.397 . S
C328 C345 1.394 . S
C329 C328 1.397 . S
C329 C330 1.438 . S
C329 C334 1.429 . S
C330 C329 1.438 . S
C330 C331 1.428 . S
C330 C343 1.394 . S
C331 H323 0.949 . S
C331 C330 1.428 . S
C331 C332 1.345 . S
C332 H324 0.950 . S
C332 C331 1.345 . S
C332 C333 1.424 . S
C333 H325 0.951 . S
C333 C332 1.424 . S
C333 C334 1.347 . S
C334 H326 0.951 . S
C334 C329 1.429 . S
C334 C333 1.347 . S
H335 C336 0.951 . S
C336 H335 0.951 . S
C336 C342 1.265 . S
H337 C342 0.950 . S
H338 C346 0.949 . S
H339 C347 0.950 . S
H340 C348 0.951 . S
H341 C349 0.951 . S
C342 C336 1.265 . S
C342 H337 0.950 . S
C342 C343 1.478 . S
C343 C330 1.394 . S
C343 C342 1.478 . S
C343 C344 1.397 . S
C344 C343 1.397 . S
C344 C345 1.438 . S
C344 C349 1.429 . S
C345 C328 1.394 . S
C345 C344 1.438 . S
C345 C346 1.428 . S
C346 H338 0.949 . S
C346 C345 1.428 . S
C346 C347 1.345 . S
C347 H339 0.950 . S
C347 C346 1.345 . S
C347 C348 1.424 . S
C348 H340 0.951 . S
C348 C347 1.424 . S
C348 C349 1.347 . S
C349 H341 0.951 . S
C349 C344 1.429 . S
C349 C348 1.347 . S
H350 C351 0.951 . S
C351 H350 0.951 . S
C351 C357 1.265 . S
H352 C357 0.950 . S
H353 C361 0.949 . S
H354 C362 0.950 . S
H355 C363 0.951 . S
H356 C364 0.951 . S
C357 C351 1.265 . S
C357 H352 0.950 . S
C357 C358 1.478 . S
C358 C357 1.478 . S
C358 C359 1.397 . S
C358 C375 1.394 . S
C359 C358 1.397 . S
C359 C360 1.438 . S
C359 C364 1.429 . S
C360 C359 1.438 . S
C360 C361 1.428 . S
C360 C373 1.394 . S
C361 H353 0.949 . S
C361 C360 1.428 . S
C361 C362 1.345 . S
C362 H354 0.950 . S
C362 C361 1.345 . S
C362 C363 1.424 . S
C363 H355 0.951 . S
C363 C362 1.424 . S
C363 C364 1.347 . S
C364 H356 0.951 . S
C364 C359 1.429 . S
C364 C363 1.347 . S
H365 C366 0.951 . S
C366 H365 0.951 . S
C366 C372 1.265 . S
H367 C372 0.950 . S
H368 C376 0.949 . S
H369 C377 0.950 . S
H370 C378 0.951 . S
H371 C379 0.951 . S
C372 C366 1.265 . S
C372 H367 0.950 . S
C372 C373 1.478 . S
C373 C360 1.394 . S
C373 C372 1.478 . S
C373 C374 1.397 . S
C374 C373 1.397 . S
C374 C375 1.438 . S
C374 C379 1.429 . S
C375 C358 1.394 . S
C375 C374 1.438 . S
C375 C376 1.428 . S
C376 H368 0.949 . S
C376 C375 1.428 . S
C376 C377 1.345 . S
C377 H369 0.950 . S
C377 C376 1.345 . S
C377 C378 1.424 . S
C378 H370 0.951 . S
C378 C377 1.424 . S
C378 C379 1.347 . S
C379 H371 0.951 . S
C379 C374 1.429 . S
C379 C378 1.347 . S
H380 C381 0.951 . S
C381 H380 0.951 . S
C381 C387 1.265 . S
H382 C387 0.950 . S
H383 C391 0.949 . S
H384 C392 0.951 . S
H385 C393 0.951 . S
H386 C394 0.951 . S
C387 C381 1.265 . S
C387 H382 0.950 . S
C387 C388 1.478 . S
C388 C387 1.478 . S
C388 C389 1.397 . S
C388 C405 1.394 . S
C389 C388 1.397 . S
C389 C390 1.438 . S
C389 C394 1.429 . S
C390 C389 1.438 . S
C390 C391 1.428 . S
C390 C403 1.394 . S
C391 H383 0.949 . S
C391 C390 1.428 . S
C391 C392 1.345 . S
C392 H384 0.951 . S
C392 C391 1.345 . S
C392 C393 1.424 1_545 S
C393 H385 0.951 . S
C393 C392 1.424 1_565 S
C393 C394 1.347 1_565 S
C394 H386 0.951 . S
C394 C389 1.429 . S
C394 C393 1.347 1_545 S
H395 C396 0.951 . S
C396 H395 0.951 . S
C396 C402 1.265 . S
H397 C402 0.950 . S
H398 C406 0.958 . S
H399 C407 0.950 . S
H400 C408 0.951 . S
H401 C409 0.951 . S
C402 C396 1.265 . S
C402 H397 0.950 . S
C402 C403 1.478 . S
C403 C390 1.394 . S
C403 C402 1.478 . S
C403 C404 1.397 . S
C404 C403 1.397 . S
C404 C405 1.438 . S
C404 C409 1.429 . S
C405 C388 1.394 . S
C405 C404 1.438 . S
C405 C406 1.428 . S
C406 H398 0.958 . S
C406 C405 1.428 . S
C406 C407 1.345 1_655 S
C407 H399 0.950 . S
C407 C406 1.345 1_455 S
C407 C408 1.424 1_455 S
C408 H400 0.951 . S
C408 C407 1.424 1_655 S
C408 C409 1.347 . S
C409 H401 0.951 . S
C409 C404 1.429 . S
C409 C408 1.347 . S
H410 C411 0.951 . S
C411 H410 0.951 . S
C411 C417 1.265 . S
H412 C417 0.950 . S
H413 C421 0.949 . S
H414 C422 0.950 . S
H415 C423 0.951 . S
H416 C424 0.951 . S
C417 C411 1.265 . S
C417 H412 0.950 . S
C417 C418 1.478 . S
C418 C417 1.478 . S
C418 C419 1.397 . S
C418 C435 1.394 . S
C419 C418 1.397 . S
C419 C420 1.438 . S
C419 C424 1.429 . S
C420 C419 1.438 . S
C420 C421 1.428 . S
C420 C433 1.394 . S
C421 H413 0.949 . S
C421 C420 1.428 . S
C421 C422 1.345 . S
C422 H414 0.950 . S
C422 C421 1.345 . S
C422 C423 1.424 . S
C423 H415 0.951 . S
C423 C422 1.424 . S
C423 C424 1.347 . S
C424 H416 0.951 . S
C424 C419 1.429 . S
C424 C423 1.347 . S
H425 C426 0.951 . S
C426 H425 0.951 . S
C426 C432 1.265 . S
H427 C432 0.950 . S
H428 C436 0.949 . S
H429 C437 0.950 . S
H430 C438 0.951 . S
H431 C439 0.951 . S
C432 C426 1.265 . S
C432 H427 0.950 . S
C432 C433 1.478 . S
C433 C420 1.394 . S
C433 C432 1.478 . S
C433 C434 1.397 . S
C434 C433 1.397 . S
C434 C435 1.438 . S
C434 C439 1.429 . S
C435 C418 1.394 . S
C435 C434 1.438 . S
C435 C436 1.428 . S
C436 H428 0.949 . S
C436 C435 1.428 . S
C436 C437 1.345 . S
C437 H429 0.950 . S
C437 C436 1.345 . S
C437 C438 1.424 . S
C438 H430 0.951 . S
C438 C437 1.424 . S
C438 C439 1.347 . S
C439 H431 0.951 . S
C439 C434 1.429 . S
C439 C438 1.347 . S
H440 C441 0.951 . S
C441 H440 0.951 . S
C441 C447 1.265 . S
H442 C447 0.950 . S
H443 C451 0.949 . S
H444 C452 0.950 . S
H445 C453 0.951 . S
H446 C454 0.951 . S
C447 C441 1.265 . S
C447 H442 0.950 . S
C447 C448 1.478 . S
C448 C447 1.478 . S
C448 C449 1.397 . S
C448 C465 1.394 . S
C449 C448 1.397 . S
C449 C450 1.438 . S
C449 C454 1.429 . S
C450 C449 1.438 . S
C450 C451 1.428 . S
C450 C463 1.394 . S
C451 H443 0.949 . S
C451 C450 1.428 . S
C451 C452 1.345 . S
C452 H444 0.950 . S
C452 C451 1.345 . S
C452 C453 1.424 . S
C453 H445 0.951 . S
C453 C452 1.424 . S
C453 C454 1.347 . S
C454 H446 0.951 . S
C454 C449 1.429 . S
C454 C453 1.347 . S
H455 C456 0.951 . S
C456 H455 0.951 . S
C456 C462 1.265 . S
H457 C462 0.950 . S
H458 C466 0.949 . S
H459 C467 0.950 1_554 S
H460 C468 0.951 . S
H461 C469 0.951 . S
C462 C456 1.265 . S
C462 H457 0.950 . S
C462 C463 1.478 . S
C463 C450 1.394 . S
C463 C462 1.478 . S
C463 C464 1.397 . S
C464 C463 1.397 . S
C464 C465 1.438 . S
C464 C469 1.429 . S
C465 C448 1.394 . S
C465 C464 1.438 . S
C465 C466 1.428 . S
C466 H458 0.949 . S
C466 C465 1.428 . S
C466 C467 1.345 . S
C467 H459 0.950 1_556 S
C467 C466 1.345 . S
C467 C468 1.424 . S
C468 H460 0.951 . S
C468 C467 1.424 . S
C468 C469 1.347 . S
C469 H461 0.951 . S
C469 C464 1.429 . S
C469 C468 1.347 . S
C111 C0 1.661 . S
C126 C87 1.428 . S
C141 C42 1.781 . S
C156 C93 1.680 . S
C171 C17 1.643 . S
C186 C84 1.567 . S
C201 C63 1.483 . S
C216 C109 1.258 . S
C231 C13 1.222 . S
C246 C75 1.184 . S
C276 C92 1.179 . S
C261 C38 1.239 . S
C291 C34 1.652 . S
C306 C88 1.505 . S
C336 C105 1.203 . S
C321 C4 1.270 . S
C366 C72 1.145 . S
C351 C47 1.223 . S
C396 C108 1.407 . S
C381 C29 1.494 . S
C426 C71 1.524 . S
C411 C51 1.646 . S
C456 C96 1.626 . S
C441 C8 1.772 . S
