# Generated by pormake.
# Topology gar, (4,6)-cn, num edge types: 1
# Building blocks:
#     Node 0, Type 0, BuildingBlock: CEKHIL_clean_sbu_0, # of connection points: 4
#     Node 1, Type 0, BuildingBlock: CEKHIL_clean_sbu_0, # of connection points: 4
#     Node 2, Type 0, BuildingBlock: CEKHIL_clean_sbu_0, # of connection points: 4
#     Node 3, Type 0, BuildingBlock: CEKHIL_clean_sbu_0, # of connection points: 4
#     Node 4, Type 0, BuildingBlock: CEKHIL_clean_sbu_0, # of connection points: 4
#     Node 5, Type 0, BuildingBlock: CEKHIL_clean_sbu_0, # of connection points: 4
#     Node 6, Type 0, BuildingBlock: CEKHIL_clean_sbu_0, # of connection points: 4
#     Node 7, Type 0, BuildingBlock: CEKHIL_clean_sbu_0, # of connection points: 4
#     Node 8, Type 0, BuildingBlock: CEKHIL_clean_sbu_0, # of connection points: 4
#     Node 9, Type 0, BuildingBlock: CEKHIL_clean_sbu_0, # of connection points: 4
#     Node 10, Type 0, BuildingBlock: CEKHIL_clean_sbu_0, # of connection points: 4
#     Node 11, Type 0, BuildingBlock: CEKHIL_clean_sbu_0, # of connection points: 4
#     Node 12, Type 0, BuildingBlock: CEKHIL_clean_sbu_0, # of connection points: 4
#     Node 13, Type 0, BuildingBlock: CEKHIL_clean_sbu_0, # of connection points: 4
#     Node 14, Type 0, BuildingBlock: CEKHIL_clean_sbu_0, # of connection points: 4
#     Node 15, Type 0, BuildingBlock: CEKHIL_clean_sbu_0, # of connection points: 4
#     Node 16, Type 0, BuildingBlock: CEKHIL_clean_sbu_0, # of connection points: 4
#     Node 17, Type 0, BuildingBlock: CEKHIL_clean_sbu_0, # of connection points: 4
#     Node 18, Type 0, BuildingBlock: CEKHIL_clean_sbu_0, # of connection points: 4
#     Node 19, Type 0, BuildingBlock: CEKHIL_clean_sbu_0, # of connection points: 4
#     Node 20, Type 0, BuildingBlock: CEKHIL_clean_sbu_0, # of connection points: 4
#     Node 21, Type 0, BuildingBlock: CEKHIL_clean_sbu_0, # of connection points: 4
#     Node 22, Type 0, BuildingBlock: CEKHIL_clean_sbu_0, # of connection points: 4
#     Node 23, Type 0, BuildingBlock: CEKHIL_clean_sbu_0, # of connection points: 4
#     Node 24, Type 1, BuildingBlock: MIFKUJ_clean_sbu_0, # of connection points: 6
#     Node 25, Type 1, BuildingBlock: MIFKUJ_clean_sbu_0, # of connection points: 6
#     Node 26, Type 1, BuildingBlock: MIFKUJ_clean_sbu_0, # of connection points: 6
#     Node 27, Type 1, BuildingBlock: MIFKUJ_clean_sbu_0, # of connection points: 6
#     Node 28, Type 1, BuildingBlock: MIFKUJ_clean_sbu_0, # of connection points: 6
#     Node 29, Type 1, BuildingBlock: MIFKUJ_clean_sbu_0, # of connection points: 6
#     Node 30, Type 1, BuildingBlock: MIFKUJ_clean_sbu_0, # of connection points: 6
#     Node 31, Type 1, BuildingBlock: MIFKUJ_clean_sbu_0, # of connection points: 6
#     Node 32, Type 1, BuildingBlock: MIFKUJ_clean_sbu_0, # of connection points: 6
#     Node 33, Type 1, BuildingBlock: MIFKUJ_clean_sbu_0, # of connection points: 6
#     Node 34, Type 1, BuildingBlock: MIFKUJ_clean_sbu_0, # of connection points: 6
#     Node 35, Type 1, BuildingBlock: MIFKUJ_clean_sbu_0, # of connection points: 6
#     Node 36, Type 1, BuildingBlock: MIFKUJ_clean_sbu_0, # of connection points: 6
#     Node 37, Type 1, BuildingBlock: MIFKUJ_clean_sbu_0, # of connection points: 6
#     Node 38, Type 1, BuildingBlock: MIFKUJ_clean_sbu_0, # of connection points: 6
#     Node 39, Type 1, BuildingBlock: MIFKUJ_clean_sbu_0, # of connection points: 6
#     Edge 40, Type (0, 1), BuildingBlock: KIFKEQ_clean_linker_1, # of connection points: 2
#     Edge 41, Type (0, 1), BuildingBlock: KIFKEQ_clean_linker_1, # of connection points: 2
#     Edge 42, Type (0, 1), BuildingBlock: KIFKEQ_clean_linker_1, # of connection points: 2
#     Edge 43, Type (0, 1), BuildingBlock: KIFKEQ_clean_linker_1, # of connection points: 2
#     Edge 44, Type (0, 1), BuildingBlock: KIFKEQ_clean_linker_1, # of connection points: 2
#     Edge 45, Type (0, 1), BuildingBlock: KIFKEQ_clean_linker_1, # of connection points: 2
#     Edge 46, Type (0, 1), BuildingBlock: KIFKEQ_clean_linker_1, # of connection points: 2
#     Edge 47, Type (0, 1), BuildingBlock: KIFKEQ_clean_linker_1, # of connection points: 2
#     Edge 48, Type (0, 1), BuildingBlock: KIFKEQ_clean_linker_1, # of connection points: 2
#     Edge 49, Type (0, 1), BuildingBlock: KIFKEQ_clean_linker_1, # of connection points: 2
#     Edge 50, Type (0, 1), BuildingBlock: KIFKEQ_clean_linker_1, # of connection points: 2
#     Edge 51, Type (0, 1), BuildingBlock: KIFKEQ_clean_linker_1, # of connection points: 2
#     Edge 52, Type (0, 1), BuildingBlock: KIFKEQ_clean_linker_1, # of connection points: 2
#     Edge 53, Type (0, 1), BuildingBlock: KIFKEQ_clean_linker_1, # of connection points: 2
#     Edge 54, Type (0, 1), BuildingBlock: KIFKEQ_clean_linker_1, # of connection points: 2
#     Edge 55, Type (0, 1), BuildingBlock: KIFKEQ_clean_linker_1, # of connection points: 2
#     Edge 56, Type (0, 1), BuildingBlock: KIFKEQ_clean_linker_1, # of connection points: 2
#     Edge 57, Type (0, 1), BuildingBlock: KIFKEQ_clean_linker_1, # of connection points: 2
#     Edge 58, Type (0, 1), BuildingBlock: KIFKEQ_clean_linker_1, # of connection points: 2
#     Edge 59, Type (0, 1), BuildingBlock: KIFKEQ_clean_linker_1, # of connection points: 2
#     Edge 60, Type (0, 1), BuildingBlock: KIFKEQ_clean_linker_1, # of connection points: 2
#     Edge 61, Type (0, 1), BuildingBlock: KIFKEQ_clean_linker_1, # of connection points: 2
#     Edge 62, Type (0, 1), BuildingBlock: KIFKEQ_clean_linker_1, # of connection points: 2
#     Edge 63, Type (0, 1), BuildingBlock: KIFKEQ_clean_linker_1, # of connection points: 2
#     Edge 64, Type (0, 1), BuildingBlock: KIFKEQ_clean_linker_1, # of connection points: 2
#     Edge 65, Type (0, 1), BuildingBlock: KIFKEQ_clean_linker_1, # of connection points: 2
#     Edge 66, Type (0, 1), BuildingBlock: KIFKEQ_clean_linker_1, # of connection points: 2
#     Edge 67, Type (0, 1), BuildingBlock: KIFKEQ_clean_linker_1, # of connection points: 2
#     Edge 68, Type (0, 1), BuildingBlock: KIFKEQ_clean_linker_1, # of connection points: 2
#     Edge 69, Type (0, 1), BuildingBlock: KIFKEQ_clean_linker_1, # of connection points: 2
#     Edge 70, Type (0, 1), BuildingBlock: KIFKEQ_clean_linker_1, # of connection points: 2
#     Edge 71, Type (0, 1), BuildingBlock: KIFKEQ_clean_linker_1, # of connection points: 2
#     Edge 72, Type (0, 1), BuildingBlock: KIFKEQ_clean_linker_1, # of connection points: 2
#     Edge 73, Type (0, 1), BuildingBlock: KIFKEQ_clean_linker_1, # of connection points: 2
#     Edge 74, Type (0, 1), BuildingBlock: KIFKEQ_clean_linker_1, # of connection points: 2
#     Edge 75, Type (0, 1), BuildingBlock: KIFKEQ_clean_linker_1, # of connection points: 2
#     Edge 76, Type (0, 1), BuildingBlock: KIFKEQ_clean_linker_1, # of connection points: 2
#     Edge 77, Type (0, 1), BuildingBlock: KIFKEQ_clean_linker_1, # of connection points: 2
#     Edge 78, Type (0, 1), BuildingBlock: KIFKEQ_clean_linker_1, # of connection points: 2
#     Edge 79, Type (0, 1), BuildingBlock: KIFKEQ_clean_linker_1, # of connection points: 2
#     Edge 80, Type (0, 1), BuildingBlock: KIFKEQ_clean_linker_1, # of connection points: 2
#     Edge 81, Type (0, 1), BuildingBlock: KIFKEQ_clean_linker_1, # of connection points: 2
#     Edge 82, Type (0, 1), BuildingBlock: KIFKEQ_clean_linker_1, # of connection points: 2
#     Edge 83, Type (0, 1), BuildingBlock: KIFKEQ_clean_linker_1, # of connection points: 2
#     Edge 84, Type (0, 1), BuildingBlock: KIFKEQ_clean_linker_1, # of connection points: 2
#     Edge 85, Type (0, 1), BuildingBlock: KIFKEQ_clean_linker_1, # of connection points: 2
#     Edge 86, Type (0, 1), BuildingBlock: KIFKEQ_clean_linker_1, # of connection points: 2
#     Edge 87, Type (0, 1), BuildingBlock: KIFKEQ_clean_linker_1, # of connection points: 2
#     Edge 88, Type (0, 1), BuildingBlock: KIFKEQ_clean_linker_1, # of connection points: 2
#     Edge 89, Type (0, 1), BuildingBlock: KIFKEQ_clean_linker_1, # of connection points: 2
#     Edge 90, Type (0, 1), BuildingBlock: KIFKEQ_clean_linker_1, # of connection points: 2
#     Edge 91, Type (0, 1), BuildingBlock: KIFKEQ_clean_linker_1, # of connection points: 2
#     Edge 92, Type (0, 1), BuildingBlock: KIFKEQ_clean_linker_1, # of connection points: 2
#     Edge 93, Type (0, 1), BuildingBlock: KIFKEQ_clean_linker_1, # of connection points: 2
#     Edge 94, Type (0, 1), BuildingBlock: KIFKEQ_clean_linker_1, # of connection points: 2
#     Edge 95, Type (0, 1), BuildingBlock: KIFKEQ_clean_linker_1, # of connection points: 2
#     Edge 96, Type (0, 1), BuildingBlock: KIFKEQ_clean_linker_1, # of connection points: 2
#     Edge 97, Type (0, 1), BuildingBlock: KIFKEQ_clean_linker_1, # of connection points: 2
#     Edge 98, Type (0, 1), BuildingBlock: KIFKEQ_clean_linker_1, # of connection points: 2
#     Edge 99, Type (0, 1), BuildingBlock: KIFKEQ_clean_linker_1, # of connection points: 2
#     Edge 100, Type (0, 1), BuildingBlock: KIFKEQ_clean_linker_1, # of connection points: 2
#     Edge 101, Type (0, 1), BuildingBlock: KIFKEQ_clean_linker_1, # of connection points: 2
#     Edge 102, Type (0, 1), BuildingBlock: KIFKEQ_clean_linker_1, # of connection points: 2
#     Edge 103, Type (0, 1), BuildingBlock: KIFKEQ_clean_linker_1, # of connection points: 2
#     Edge 104, Type (0, 1), BuildingBlock: KIFKEQ_clean_linker_1, # of connection points: 2
#     Edge 105, Type (0, 1), BuildingBlock: KIFKEQ_clean_linker_1, # of connection points: 2
#     Edge 106, Type (0, 1), BuildingBlock: KIFKEQ_clean_linker_1, # of connection points: 2
#     Edge 107, Type (0, 1), BuildingBlock: KIFKEQ_clean_linker_1, # of connection points: 2
#     Edge 108, Type (0, 1), BuildingBlock: KIFKEQ_clean_linker_1, # of connection points: 2
#     Edge 109, Type (0, 1), BuildingBlock: KIFKEQ_clean_linker_1, # of connection points: 2
#     Edge 110, Type (0, 1), BuildingBlock: KIFKEQ_clean_linker_1, # of connection points: 2
#     Edge 111, Type (0, 1), BuildingBlock: KIFKEQ_clean_linker_1, # of connection points: 2
#     Edge 112, Type (0, 1), BuildingBlock: KIFKEQ_clean_linker_1, # of connection points: 2
#     Edge 113, Type (0, 1), BuildingBlock: KIFKEQ_clean_linker_1, # of connection points: 2
#     Edge 114, Type (0, 1), BuildingBlock: KIFKEQ_clean_linker_1, # of connection points: 2
#     Edge 115, Type (0, 1), BuildingBlock: KIFKEQ_clean_linker_1, # of connection points: 2
#     Edge 116, Type (0, 1), BuildingBlock: KIFKEQ_clean_linker_1, # of connection points: 2
#     Edge 117, Type (0, 1), BuildingBlock: KIFKEQ_clean_linker_1, # of connection points: 2
#     Edge 118, Type (0, 1), BuildingBlock: KIFKEQ_clean_linker_1, # of connection points: 2
#     Edge 119, Type (0, 1), BuildingBlock: KIFKEQ_clean_linker_1, # of connection points: 2
#     Edge 120, Type (0, 1), BuildingBlock: KIFKEQ_clean_linker_1, # of connection points: 2
#     Edge 121, Type (0, 1), BuildingBlock: KIFKEQ_clean_linker_1, # of connection points: 2
#     Edge 122, Type (0, 1), BuildingBlock: KIFKEQ_clean_linker_1, # of connection points: 2
#     Edge 123, Type (0, 1), BuildingBlock: KIFKEQ_clean_linker_1, # of connection points: 2
#     Edge 124, Type (0, 1), BuildingBlock: KIFKEQ_clean_linker_1, # of connection points: 2
#     Edge 125, Type (0, 1), BuildingBlock: KIFKEQ_clean_linker_1, # of connection points: 2
#     Edge 126, Type (0, 1), BuildingBlock: KIFKEQ_clean_linker_1, # of connection points: 2
#     Edge 127, Type (0, 1), BuildingBlock: KIFKEQ_clean_linker_1, # of connection points: 2
#     Edge 128, Type (0, 1), BuildingBlock: KIFKEQ_clean_linker_1, # of connection points: 2
#     Edge 129, Type (0, 1), BuildingBlock: KIFKEQ_clean_linker_1, # of connection points: 2
#     Edge 130, Type (0, 1), BuildingBlock: KIFKEQ_clean_linker_1, # of connection points: 2
#     Edge 131, Type (0, 1), BuildingBlock: KIFKEQ_clean_linker_1, # of connection points: 2
#     Edge 132, Type (0, 1), BuildingBlock: KIFKEQ_clean_linker_1, # of connection points: 2
#     Edge 133, Type (0, 1), BuildingBlock: KIFKEQ_clean_linker_1, # of connection points: 2
#     Edge 134, Type (0, 1), BuildingBlock: KIFKEQ_clean_linker_1, # of connection points: 2
#     Edge 135, Type (0, 1), BuildingBlock: KIFKEQ_clean_linker_1, # of connection points: 2
# Relax obj value: 0.097
# Max RMSD: 0.279
# Mean RMSD: 0.128
data_MOF--net-gar--node1-CEKHIL_clean_sbu_0--node2-MIFKUJ_clean_sbu_0--edge1-KIFKEQ_clean_linker_1
_symmetry_space_group_name_H-M    P1
_symmetry_Int_Tables_number       1
_symmetry_cell_setting            triclinic
loop_
_symmetry_equiv_pos_as_xyz
'x, y, z'
_cell_length_a     57.758679
_cell_length_b     57.181976
_cell_length_c     54.289157
_cell_angle_alpha  94.438564
_cell_angle_beta   94.608113
_cell_angle_gamma 98.899744
loop_
_atom_site_label
_atom_site_type_symbol
_atom_site_fract_x
_atom_site_fract_y
_atom_site_fract_z
_atom_type_partial_charge
Co0 Co 0.03197 0.27719 0.40474 0.0
O1 O 0.06469 0.27363 0.40559 0.0
O2 O 0.0385 0.26379 0.37288 0.0
C3 C 0.03781 0.31442 0.42351 0.0
O4 O 0.99749 0.27921 0.39566 0.0
Co5 Co 0.00656 0.28579 0.4523 0.0
O6 O 0.98075 0.29232 0.42889 0.0
C7 C 0.01577 0.2376 0.43679 0.0
C8 C 0.06014 0.26552 0.38237 0.0
C9 C 0.98015 0.28646 0.4057 0.0
O10 O 0.02363 0.24456 0.41657 0.0
O11 O 0.00958 0.25155 0.45373 0.0
O12 O 0.04017 0.3109 0.39995 0.0
O13 O 0.03403 0.29556 0.43512 0.0
Co14 Co 1.00006 0.75681 0.64324 0.0
O15 O 0.96647 0.75421 0.64029 0.0
O16 O 0.9878 0.74679 0.67367 0.0
C17 C 0.00682 0.79259 0.62816 0.0
O18 O 0.03503 0.75853 0.65319 0.0
Co19 Co 0.02746 0.76051 0.59596 0.0
O20 O 0.05506 0.76953 0.62095 0.0
C21 C 1.00007 0.71481 0.606 0.0
C22 C 0.96723 0.74858 0.66299 0.0
C23 C 0.05437 0.76528 0.64362 0.0
O24 O 0.99765 0.72296 0.62828 0.0
O25 O 0.00905 0.72758 0.58973 0.0
O26 O 0.0032 0.79117 0.65135 0.0
O27 O 0.00435 0.77262 0.61476 0.0
Co28 Co 0.54017 0.77931 0.90635 0.0
O29 O 0.57315 0.77787 0.90615 0.0
O30 O 0.54618 0.76402 0.87497 0.0
C31 C 0.54464 0.81741 0.92205 0.0
O32 O 0.50506 0.77827 0.89899 0.0
Co33 Co 0.51673 0.79008 0.95465 0.0
O34 O 0.48919 0.79371 0.93169 0.0
C35 C 0.52945 0.74251 0.94289 0.0
C36 C 0.56818 0.76764 0.88372 0.0
C37 C 0.48771 0.78545 0.90903 0.0
O38 O 0.53465 0.74792 0.92117 0.0
O39 O 0.52395 0.75742 0.9594 0.0
O40 O 0.54548 0.81238 0.89841 0.0
O41 O 0.54278 0.79967 0.93542 0.0
Co42 Co 0.49219 0.25428 0.14165 0.0
O43 O 0.45888 0.25223 0.14236 0.0
O44 O 0.48283 0.24422 0.17333 0.0
C45 C 0.49807 0.29025 0.12694 0.0
O46 O 0.52767 0.25563 0.14742 0.0
Co47 Co 0.51352 0.25745 0.09058 0.0
O48 O 0.54356 0.26499 0.11218 0.0
C49 C 0.48842 0.21188 0.10361 0.0
C50 C 0.46162 0.24656 0.16493 0.0
C51 C 0.54554 0.26134 0.13509 0.0
O52 O 0.48825 0.2204 0.12626 0.0
O53 O 0.49518 0.22447 0.08622 0.0
O54 O 0.49647 0.28856 0.15047 0.0
O55 O 0.49374 0.27045 0.1131 0.0
Co56 Co 0.02016 0.77719 0.15342 0.0
O57 O 0.98633 0.77144 0.14912 0.0
O58 O 0.0077 0.76493 0.18282 0.0
C59 C 0.02346 0.81337 0.1386 0.0
O60 O 0.05509 0.78149 0.16546 0.0
Co61 Co 0.0503 0.78498 0.10903 0.0
O62 O 0.07766 0.78935 0.13428 0.0
C63 C 0.02733 0.73655 0.11698 0.0
C64 C 0.98697 0.76475 0.17143 0.0
C65 C 0.07528 0.786 0.15692 0.0
O66 O 0.02117 0.74407 0.1381 0.0
O67 O 0.03707 0.7504 0.10201 0.0
O68 O 0.01987 0.81111 0.1617 0.0
O69 O 0.02397 0.79388 0.12521 0.0
Co70 Co 0.51137 0.75584 0.38754 0.0
O71 O 0.54513 0.76143 0.39275 0.0
O72 O 0.52463 0.74428 0.35811 0.0
C73 C 0.50691 0.79249 0.40271 0.0
O74 O 0.47648 0.74841 0.3748 0.0
Co75 Co 0.48108 0.75867 0.43208 0.0
O76 O 0.45474 0.75669 0.40596 0.0
C77 C 0.50684 0.71847 0.42421 0.0
C78 C 0.54509 0.75211 0.37019 0.0
C79 C 0.45665 0.75086 0.38316 0.0
O80 O 0.51064 0.72425 0.40222 0.0
O81 O 0.49734 0.73124 0.43963 0.0
O82 O 0.51157 0.78864 0.37986 0.0
O83 O 0.50683 0.7747 0.41592 0.0
Co84 Co 0.52386 0.27761 0.65135 0.0
O85 O 0.49029 0.27004 0.64322 0.0
O86 O 0.50878 0.26721 0.67996 0.0
C87 C 0.52725 0.3118 0.6327 0.0
O88 O 0.55743 0.28431 0.66787 0.0
Co89 Co 0.56066 0.28452 0.6132 0.0
O90 O 0.58387 0.297 0.64186 0.0
C91 C 0.53797 0.23592 0.6219 0.0
C92 C 0.48904 0.26517 0.66611 0.0
C93 C 0.57855 0.29256 0.66349 0.0
O94 O 0.52761 0.24414 0.64005 0.0
O95 O 0.55054 0.24914 0.60835 0.0
O96 O 0.5213 0.31148 0.6553 0.0
O97 O 0.53062 0.29176 0.62222 0.0
Co98 Co 0.01224 0.26081 0.88692 0.0
O99 O 0.04593 0.26564 0.89175 0.0
O100 O 0.02484 0.2492 0.85712 0.0
C101 C 0.00852 0.29741 0.90279 0.0
O102 O 0.97722 0.25434 0.87477 0.0
Co103 Co 0.98257 0.26424 0.9323 0.0
O104 O 0.95788 0.26773 0.90595 0.0
C105 C 0.00878 0.2244 0.92394 0.0
C106 C 0.04547 0.25652 0.86905 0.0
C107 C 0.95874 0.26083 0.88318 0.0
O108 O 0.01098 0.22904 0.90131 0.0
O109 O 1.00013 0.23767 0.93965 0.0
O110 O 0.01315 0.29399 0.87987 0.0
O111 O 0.00825 0.27931 0.91552 0.0
Co112 Co 0.39711 0.02789 0.29246 0.0
O113 O 0.40173 0.06019 0.28364 0.0
O114 O 0.36855 0.03457 0.27558 0.0
C115 C 0.41424 0.03639 0.33144 0.0
O116 O 0.38454 0.99408 0.29902 0.0
Co117 Co 0.43721 0.00049 0.30837 0.0
O118 O 0.41194 0.97604 0.31777 0.0
C119 C 0.42755 0.00874 0.25554 0.0
C120 C 0.37986 0.05586 0.27436 0.0
C121 C 0.39068 0.97647 0.30978 0.0
O122 O 0.40853 0.01671 0.2602 0.0
O123 O 0.442 0.00321 0.27243 0.0
O124 O 0.39235 0.03873 0.3265 0.0
O125 O 0.42521 0.03023 0.31287 0.0
Co126 Co 0.26605 0.12951 0.49137 0.0
O127 O 0.30004 0.13465 0.49808 0.0
O128 O 0.27653 0.10097 0.50171 0.0
C129 C 0.26591 0.14677 0.45504 0.0
O130 O 0.23088 0.11609 0.48581 0.0
Co131 Co 0.23588 0.16952 0.48523 0.0
O132 O 0.20915 0.14355 0.47494 0.0
C133 C 0.25589 0.16098 0.53533 0.0
C134 C 0.29783 0.11259 0.50311 0.0
C135 C 0.211 0.12223 0.47889 0.0
O136 O 0.26261 0.14167 0.52674 0.0
O137 O 0.2469 0.175 0.52144 0.0
O138 O 0.26918 0.12479 0.45553 0.0
O139 O 0.26383 0.1576 0.47622 0.0
Co140 Co 0.14027 0.0076 0.79728 0.0
O141 O 0.1352 0.97327 0.79175 0.0
O142 O 0.16838 0.99672 0.78685 0.0
C143 C 0.12363 0.00846 0.8339 0.0
O144 O 0.15358 0.04311 0.80196 0.0
Co145 Co 0.10043 0.03771 0.80206 0.0
O146 O 0.12585 0.06547 0.80953 0.0
C147 C 0.1089 0.01674 0.75256 0.0
C148 C 0.15691 0.97527 0.78639 0.0
C149 C 0.14715 0.06341 0.80682 0.0
O150 O 0.12804 0.01029 0.76166 0.0
O151 O 0.09482 0.02592 0.76603 0.0
O152 O 0.14539 0.00527 0.8332 0.0
O153 O 0.11255 0.01006 0.81269 0.0
Co154 Co 0.24824 0.88304 0.99738 0.0
O155 O 0.21587 0.8809 0.00462 0.0
O156 O 0.24235 0.91366 0.01089 0.0
C157 C 0.24061 0.86241 0.95951 0.0
O158 O 0.28276 0.89287 0.99161 0.0
Co159 Co 0.27221 0.8383 0.9873 0.0
O160 O 0.29848 0.86129 0.97784 0.0
C161 C 0.2645 0.85488 0.03869 0.0
C162 C 0.22079 0.90341 0.01201 0.0
C163 C 0.29987 0.88357 0.9833 0.0
O164 O 0.25748 0.87388 0.03168 0.0
O165 O 0.26912 0.83826 0.02361 0.0
O166 O 0.2389 0.88489 0.9619 0.0
O167 O 0.2451 0.85322 0.97986 0.0
Co168 Co 0.26439 0.39403 0.03677 0.0
O169 O 0.23043 0.38836 0.03363 0.0
O170 O 0.25221 0.42139 0.05139 0.0
C171 C 0.26701 0.38116 0.99679 0.0
O172 O 0.30002 0.40719 0.04141 0.0
Co173 Co 0.2933 0.35326 0.02707 0.0
O174 O 0.31791 0.37999 0.02167 0.0
C175 C 0.27237 0.35877 0.07495 0.0
C176 C 0.23133 0.40984 0.04363 0.0
C177 C 0.31804 0.401 0.03147 0.0
O178 O 0.26533 0.37829 0.06936 0.0
O179 O 0.28253 0.34607 0.06008 0.0
O180 O 0.26374 0.40279 0.00257 0.0
O181 O 0.26724 0.36784 0.01488 0.0
Co182 Co 0.78639 0.13322 0.03028 0.0
O183 O 0.81957 0.13353 0.02801 0.0
O184 O 0.79517 0.10338 0.03929 0.0
C185 C 0.77932 0.14754 0.99329 0.0
O186 O 0.75098 0.12568 0.0332 0.0
Co187 Co 0.7651 0.18023 0.03029 0.0
O188 O 0.73484 0.158 0.02521 0.0
C189 C 0.79385 0.1703 0.07439 0.0
C190 C 0.81626 0.11182 0.03404 0.0
C191 C 0.73295 0.13608 0.02905 0.0
O192 O 0.79258 0.14834 0.06589 0.0
O193 O 0.78648 0.18609 0.06173 0.0
O194 O 0.78041 0.1251 0.99428 0.0
O195 O 0.78452 0.16054 0.01402 0.0
Co196 Co 0.14388 0.49234 0.2697 0.0
O197 O 0.14318 0.45893 0.27243 0.0
O198 O 0.17321 0.48326 0.2608 0.0
C199 C 0.12974 0.50037 0.30622 0.0
O200 O 0.15158 0.52777 0.26599 0.0
Co201 Co 0.09755 0.51429 0.26864 0.0
O202 O 0.11974 0.54481 0.27251 0.0
C203 C 0.10721 0.48361 0.22604 0.0
C204 C 0.16455 0.46204 0.26605 0.0
C205 C 0.14149 0.5462 0.26909 0.0
O206 O 0.12904 0.48577 0.23436 0.0
O207 O 0.09146 0.49099 0.2385 0.0
O208 O 0.15192 0.4989 0.30558 0.0
O209 O 0.11687 0.4948 0.28551 0.0
Co210 Co 0.7641 0.89266 0.53654 0.0
O211 O 0.7301 0.88816 0.53333 0.0
O212 O 0.75304 0.92107 0.54982 0.0
C213 C 0.76754 0.87786 0.49729 0.0
O214 O 0.7997 0.90485 0.54165 0.0
Co215 Co 0.79138 0.85002 0.53064 0.0
O216 O 0.81946 0.87496 0.53186 0.0
C217 C 0.76527 0.85663 0.5744 0.0
C218 C 0.73184 0.90992 0.54299 0.0
C219 C 0.81898 0.89683 0.53807 0.0
O220 O 0.76389 0.87826 0.56981 0.0
O221 O 0.77311 0.84195 0.5595 0.0
O222 O 0.7643 0.89973 0.50173 0.0
O223 O 0.76682 0.86544 0.5161 0.0
Co224 Co 0.88927 0.01081 0.25469 0.0
O225 O 0.89527 0.04505 0.25614 0.0
O226 O 0.86188 0.02258 0.24055 0.0
C227 C 0.90347 0.00884 0.29439 0.0
O228 O 0.87549 0.97523 0.25139 0.0
Co229 Co 0.92871 0.98029 0.26359 0.0
O230 O 0.90206 0.95638 0.27065 0.0
C231 C 0.92309 0.00217 0.21605 0.0
C232 C 0.87371 0.04377 0.2466 0.0
C233 C 0.88117 0.957 0.26154 0.0
O234 O 0.90355 0.00873 0.22162 0.0
O235 O 0.93588 0.99204 0.23089 0.0
O236 O 0.88212 0.01282 0.28939 0.0
O237 O 0.9158 0.00769 0.2757 0.0
Co238 Co 0.28102 0.63086 0.52331 0.0
O239 O 0.31477 0.63535 0.52415 0.0
O240 O 0.29229 0.60162 0.53015 0.0
C241 C 0.27587 0.64859 0.48805 0.0
O242 O 0.24578 0.61884 0.52271 0.0
Co243 Co 0.25261 0.67318 0.52373 0.0
O244 O 0.22594 0.64778 0.5116 0.0
C245 C 0.27735 0.66157 0.57031 0.0
C246 C 0.31319 0.61303 0.52785 0.0
C247 C 0.22658 0.62622 0.51561 0.0
O248 O 0.2831 0.64253 0.55981 0.0
O249 O 0.26672 0.67615 0.55883 0.0
O250 O 0.27864 0.62641 0.48692 0.0
O251 O 0.27754 0.65932 0.50997 0.0
Co252 Co 0.38556 0.50837 0.75588 0.0
O253 O 0.39071 0.54259 0.76026 0.0
O254 O 0.35843 0.52062 0.74134 0.0
C255 C 0.3978 0.5036 0.79546 0.0
O256 O 0.37331 0.47253 0.7493 0.0
Co257 Co 0.42739 0.48056 0.76371 0.0
O258 O 0.40239 0.45229 0.76049 0.0
C259 C 0.42359 0.50876 0.72091 0.0
C260 C 0.36974 0.54167 0.74936 0.0
C261 C 0.38099 0.45295 0.75311 0.0
O262 O 0.40176 0.50959 0.72393 0.0
O263 O 0.4373 0.50044 0.73644 0.0
O264 O 0.37637 0.50702 0.78976 0.0
O265 O 0.41128 0.50489 0.77766 0.0
Co266 Co 0.64027 0.99461 0.76494 0.0
O267 O 0.63772 0.96101 0.76746 0.0
O268 O 0.66863 0.98369 0.75524 0.0
C269 C 0.62783 0.00331 0.80227 0.0
O270 O 0.64958 0.03005 0.76116 0.0
Co271 Co 0.59568 0.01932 0.76615 0.0
O272 O 0.6192 0.04874 0.76962 0.0
C273 C 0.60218 0.98762 0.72256 0.0
C274 C 0.65887 0.96287 0.76059 0.0
C275 C 0.64057 0.04913 0.76508 0.0
O276 O 0.62411 0.98836 0.72994 0.0
O277 O 0.58776 0.99652 0.73579 0.0
O278 O 0.64962 0.00074 0.80068 0.0
O279 O 0.61422 0.99856 0.78197 0.0
Co280 Co 0.76949 0.63091 0.9978 0.0
O281 O 0.80353 0.63548 0.00246 0.0
O282 O 0.78025 0.60217 0.00769 0.0
C283 C 0.76805 0.6481 0.96126 0.0
O284 O 0.73406 0.61817 0.99415 0.0
Co285 Co 0.74069 0.67212 0.99386 0.0
O286 O 0.71272 0.64699 0.98703 0.0
C287 C 0.76262 0.6631 0.04285 0.0
C288 C 0.80156 0.61356 0.00784 0.0
C289 C 0.71416 0.62532 0.98977 0.0
O290 O 0.76811 0.64336 0.0337 0.0
O291 O 0.75374 0.67757 0.02946 0.0
O292 O 0.77053 0.62588 0.96153 0.0
O293 O 0.76734 0.65913 0.98269 0.0
Co294 Co 0.89511 0.53003 0.79181 0.0
O295 O 0.89846 0.56202 0.78166 0.0
O296 O 0.86539 0.53604 0.77744 0.0
C297 C 0.91565 0.53952 0.82924 0.0
O298 O 0.88332 0.49653 0.80018 0.0
Co299 Co 0.93581 0.50226 0.80506 0.0
O300 O 0.91157 0.47819 0.8167 0.0
C301 C 0.92125 0.50803 0.75246 0.0
C302 C 0.87605 0.55718 0.77445 0.0
C303 C 0.89 0.47885 0.81037 0.0
O304 O 0.9036 0.51773 0.75856 0.0
O305 O 0.9365 0.50204 0.7682 0.0
O306 O 0.89367 0.54225 0.82627 0.0
O307 O 0.9246 0.53244 0.80956 0.0
Co308 Co 0.74701 0.384 0.50125 0.0
O309 O 0.71489 0.38265 0.50972 0.0
O310 O 0.74213 0.41485 0.51455 0.0
C311 C 0.73799 0.36272 0.46385 0.0
O312 O 0.78104 0.39386 0.49425 0.0
Co313 Co 0.77185 0.34038 0.48999 0.0
O314 O 0.79628 0.36341 0.4772 0.0
C315 C 0.7651 0.35648 0.54204 0.0
C316 C 0.72057 0.40526 0.51662 0.0
C317 C 0.7975 0.38548 0.48363 0.0
O318 O 0.75723 0.37518 0.53536 0.0
O319 O 0.77016 0.34033 0.52664 0.0
O320 O 0.73665 0.3853 0.46596 0.0
O321 O 0.74344 0.35385 0.48415 0.0
Co322 Co 0.64206 0.50933 0.299 0.0
O323 O 0.63527 0.47507 0.29266 0.0
O324 O 0.66941 0.49712 0.28831 0.0
C325 C 0.62522 0.51012 0.33541 0.0
O326 O 0.65715 0.5443 0.30432 0.0
Co327 Co 0.60524 0.54264 0.30547 0.0
O328 O 0.63217 0.56821 0.31656 0.0
C329 C 0.61255 0.52236 0.25503 0.0
C330 C 0.65694 0.47608 0.28738 0.0
C331 C 0.65272 0.56489 0.3119 0.0
O332 O 0.63033 0.51334 0.26369 0.0
O333 O 0.59975 0.53305 0.26885 0.0
O334 O 0.6467 0.50598 0.33471 0.0
O335 O 0.61459 0.51309 0.31437 0.0
Zn336 Zn 0.04573 0.0086 0.04271 0.0
Zn337 Zn 0.99776 0.02514 0.00793 0.0
C338 C 0.02645 0.97038 0.06699 0.0
O339 O 0.03386 0.98713 0.08504 0.0
C340 C 0.00608 0.07559 0.00617 0.0
O341 O 0.99174 0.07472 0.02381 0.0
O342 O 0.07932 0.00434 0.05287 0.0
O343 O 0.04773 0.01901 0.00824 0.0
O344 O 0.01408 0.00151 0.98839 0.0
C345 C 0.08475 0.98697 0.03963 0.0
O346 O 0.06923 0.9753 0.02222 0.0
O347 O 0.02808 0.97529 0.04463 0.0
C348 C 0.94768 0.01656 0.01164 0.0
O349 O 0.95384 0.00412 0.02971 0.0
O350 O 0.96301 0.02403 0.99724 0.0
O351 O 0.99869 0.02761 0.04542 0.0
O352 O 0.03286 0.02993 0.06769 0.0
O353 O 0.01222 0.0565 0.99745 0.0
C354 C 0.03626 0.00796 0.98875 0.0
C355 C 0.01096 0.03103 0.06625 0.0
Zn356 Zn 0.25599 0.7565 0.29529 0.0
Zn357 Zn 0.27385 0.77373 0.24864 0.0
C358 C 0.2281 0.71369 0.28628 0.0
O359 O 0.21609 0.72779 0.29839 0.0
C360 C 0.29888 0.81741 0.26625 0.0
O361 O 0.31217 0.80859 0.25059 0.0
O362 O 0.25196 0.75126 0.33116 0.0
O363 O 0.2907 0.77 0.29662 0.0
O364 O 0.29864 0.75472 0.26064 0.0
C365 C 0.26692 0.73866 0.33886 0.0
O366 O 0.28227 0.73266 0.32397 0.0
O367 O 0.24803 0.72245 0.27968 0.0
C368 C 0.26608 0.79971 0.20903 0.0
O369 O 0.25143 0.80604 0.22461 0.0
O370 O 0.27891 0.78438 0.21479 0.0
O371 O 0.23999 0.75823 0.2449 0.0
O372 O 0.23126 0.77436 0.28017 0.0
O373 O 0.27947 0.80508 0.27017 0.0
C374 C 0.30501 0.76135 0.28336 0.0
C375 C 0.2255 0.76749 0.25735 0.0
Zn376 Zn 0.48629 0.01996 0.53833 0.0
Zn377 Zn 0.54144 0.99764 0.51724 0.0
C378 C 0.50952 0.06113 0.56973 0.0
O379 O 0.50634 0.04645 0.58704 0.0
C380 C 0.53356 0.95768 0.48549 0.0
O381 O 0.54891 0.9729 0.47577 0.0
O382 O 0.45118 0.02285 0.53602 0.0
O383 O 0.49582 0.00577 0.50575 0.0
O384 O 0.52941 0.01649 0.49026 0.0
C385 C 0.44601 0.04207 0.52824 0.0
O386 O 0.46274 0.05794 0.5216 0.0
O387 O 0.50359 0.05347 0.54714 0.0
C388 C 0.58096 0.9793 0.53525 0.0
O389 O 0.56304 0.96616 0.54355 0.0
O390 O 0.57687 0.99644 0.5227 0.0
O391 O 0.52873 0.01095 0.54742 0.0
O392 O 0.497 0.99962 0.56497 0.0
O393 O 0.52608 0.9641 0.50593 0.0
C394 C 0.50736 0.01715 0.49019 0.0
C395 C 0.51859 0.99849 0.56292 0.0
Zn396 Zn 0.29262 0.24176 0.76161 0.0
Zn397 Zn 0.24636 0.26827 0.78557 0.0
C398 C 0.27449 0.21231 0.71902 0.0
O399 O 0.28198 0.19741 0.73386 0.0
C400 C 0.25697 0.30736 0.82184 0.0
O401 O 0.24474 0.31627 0.80447 0.0
O402 O 0.32587 0.23735 0.75564 0.0
O403 O 0.296 0.27675 0.77375 0.0
O404 O 0.26235 0.28585 0.75879 0.0
C405 C 0.3326 0.24691 0.73647 0.0
O406 O 0.31846 0.25864 0.72403 0.0
O407 O 0.27536 0.23389 0.72737 0.0
C408 C 0.20453 0.26179 0.80538 0.0
O409 O 0.22009 0.25514 0.82124 0.0
O410 O 0.21155 0.27031 0.78577 0.0
O411 O 0.24682 0.23329 0.78855 0.0
O412 O 0.27809 0.21659 0.78236 0.0
O413 O 0.26122 0.28631 0.81782 0.0
C414 C 0.28457 0.29127 0.76347 0.0
C415 C 0.25728 0.21533 0.78872 0.0
Zn416 Zn 0.02818 0.98572 0.52545 0.0
Zn417 Zn 0.00816 0.03035 0.50949 0.0
C418 C 0.05853 0.99709 0.56821 0.0
O419 O 0.06978 0.98457 0.55332 0.0
C420 C 0.97576 0.0123 0.46883 0.0
O421 O 0.96245 0.02059 0.48483 0.0
O422 O 0.03166 0.95193 0.53135 0.0
O423 O 0.99302 0.98213 0.5158 0.0
O424 O 0.98578 0.0157 0.5333 0.0
C425 C 0.01881 0.94564 0.54847 0.0
O426 O 0.00596 0.96063 0.55769 0.0
O427 O 0.03892 0.00247 0.55993 0.0
C428 C 0.01316 0.07092 0.48523 0.0
O429 O 0.02483 0.05672 0.4728 0.0
O430 O 0.00329 0.0637 0.50403 0.0
O431 O 0.04345 0.03452 0.51784 0.0
O432 O 0.05098 1.00023 0.50218 0.0
O433 O 0.99758 0.01314 0.47533 0.0
C434 C 0.9792 0.99368 0.52688 0.0
C435 C 0.05711 0.02256 0.507 0.0
Zn436 Zn 0.2571 0.78998 0.75513 0.0
Zn437 Zn 0.28975 0.73769 0.77989 0.0
C438 C 0.21701 0.77284 0.72423 0.0
O439 O 0.23119 0.78439 0.70993 0.0
C440 C 0.32759 0.74148 0.81661 0.0
O441 O 0.3146 0.72181 0.82174 0.0
O442 O 0.25187 0.82484 0.7576 0.0
O443 O 0.27234 0.78157 0.78729 0.0
O444 O 0.26525 0.74686 0.80173 0.0
C445 C 0.23275 0.82777 0.76678 0.0
O446 O 0.22003 0.80954 0.77508 0.0
O447 O 0.22446 0.77112 0.74658 0.0
C448 C 0.30961 0.69806 0.76431 0.0
O449 O 0.32554 0.71636 0.76123 0.0
O450 O 0.2906 0.70201 0.77307 0.0
O451 O 0.28672 0.75236 0.74757 0.0
O452 O 0.27528 0.78041 0.72649 0.0
O453 O 0.32054 0.7524 0.79868 0.0
C454 C 0.26125 0.76815 0.80149 0.0
C455 C 0.28474 0.76176 0.72724 0.0
Zn456 Zn 0.52389 0.02381 0.99692 0.0
Zn457 Zn 0.50243 0.00081 0.04177 0.0
C458 C 0.56406 0.05475 0.01236 0.0
O459 O 0.55002 0.06693 0.00034 0.0
C460 C 0.46313 0.97155 0.01504 0.0
O461 O 0.47541 0.9555 0.02253 0.0
O462 O 0.53203 0.03074 0.96252 0.0
O463 O 0.5134 0.98874 0.99198 0.0
O464 O 0.52442 0.97931 0.029 0.0
C465 C 0.55 0.02139 0.95781 0.0
O466 O 0.55894 0.0086 0.97407 0.0
O467 O 0.55581 0.03375 0.01697 0.0
C468 C 0.47744 0.00447 0.08209 0.0
O469 O 0.46926 0.01867 0.06686 0.0
O470 O 0.49328 0.99281 0.07533 0.0
O471 O 0.51377 0.03607 0.04709 0.0
O472 O 0.50172 0.04462 0.00995 0.0
O473 O 0.47137 0.99346 0.02027 0.0
C474 C 0.52187 0.97454 0.0056 0.0
C475 C 0.505 0.05 0.03326 0.0
Zn476 Zn 0.2749 0.23251 0.25304 0.0
Zn477 Zn 0.24814 0.27693 0.28283 0.0
C478 C 0.31828 0.26528 0.2492 0.0
O479 O 0.30495 0.27579 0.23436 0.0
C480 C 0.19744 0.26772 0.2814 0.0
O481 O 0.19882 0.28344 0.26497 0.0
O482 O 0.28191 0.19961 0.24306 0.0
O483 O 0.25592 0.22803 0.28246 0.0
O484 O 0.2706 0.26141 0.30466 0.0
C485 C 0.29435 0.19327 0.26104 0.0
O486 O 0.29811 0.20695 0.28201 0.0
O487 O 0.30851 0.24958 0.26205 0.0
C488 C 0.25759 0.32816 0.28319 0.0
O489 O 0.27251 0.32382 0.26708 0.0
O490 O 0.24762 0.31117 0.29434 0.0
O491 O 0.24964 0.27733 0.24567 0.0
O492 O 0.2605 0.24714 0.22407 0.0
O493 O 0.21615 0.26096 0.29 0.0
C494 C 0.26445 0.23896 0.30321 0.0
C495 C 0.25297 0.26695 0.225 0.0
Zn496 Zn 0.52979 0.48629 0.02965 0.0
Zn497 Zn 0.50731 0.53143 0.00777 0.0
C498 C 0.55991 0.50262 0.07167 0.0
O499 O 0.57308 0.49243 0.05687 0.0
C500 C 0.47093 0.51769 0.97046 0.0
O501 O 0.46137 0.53002 0.98718 0.0
O502 O 0.5329 0.45294 0.03713 0.0
O503 O 0.49491 0.48302 0.01841 0.0
O504 O 0.48775 0.51734 0.03412 0.0
C505 C 0.51986 0.44704 0.05419 0.0
O506 O 0.50713 0.46232 0.06306 0.0
O507 O 0.53896 0.50421 0.0635 0.0
C508 C 0.51254 0.57236 0.98479 0.0
O509 O 0.52113 0.55694 0.97039 0.0
O510 O 0.50354 0.5655 0.0042 0.0
O511 O 0.54282 0.5342 0.00893 0.0
O512 O 0.55448 0.49915 0.00766 0.0
O513 O 0.49201 0.51428 0.97523 0.0
C514 C 0.48117 0.49512 0.02893 0.0
C515 C 0.55861 0.52137 0.00566 0.0
Zn516 Zn 0.74765 0.2853 0.25319 0.0
Zn517 Zn 0.78402 0.23565 0.28012 0.0
C518 C 0.71154 0.27986 0.21579 0.0
O519 O 0.72744 0.29629 0.20857 0.0
C520 C 0.82244 0.26305 0.31122 0.0
O521 O 0.80786 0.25714 0.32785 0.0
O522 O 0.74465 0.32071 0.25842 0.0
O523 O 0.75182 0.27149 0.28629 0.0
O524 O 0.76479 0.24459 0.30821 0.0
C525 C 0.72423 0.32361 0.26423 0.0
O526 O 0.70917 0.30483 0.26797 0.0
O527 O 0.71661 0.26997 0.23524 0.0
C528 C 0.81024 0.19697 0.27539 0.0
O529 O 0.82721 0.21523 0.27649 0.0
O530 O 0.78912 0.20065 0.27669 0.0
O531 O 0.76723 0.24425 0.24908 0.0
O532 O 0.77203 0.27665 0.23043 0.0
O533 O 0.81611 0.25661 0.28839 0.0
C534 C 0.75449 0.26273 0.30698 0.0
C535 C 0.77732 0.25612 0.23304 0.0
Zn536 Zn 0.01968 0.52071 0.49664 0.0
Zn537 Zn 1.00009 0.50069 0.54168 0.0
C538 C 0.061 0.54846 0.51773 0.0
O539 O 0.04874 0.56386 0.50861 0.0
C540 C 0.96024 0.47066 0.5202 0.0
O541 O 0.97206 0.45685 0.53272 0.0
O542 O 0.02981 0.52692 0.46277 0.0
O543 O 0.006 0.48601 0.4926 0.0
O544 O 0.02169 0.47891 0.52875 0.0
C545 C 0.04441 0.5131 0.45766 0.0
O546 O 0.04922 0.49802 0.47362 0.0
O547 O 0.05135 0.52685 0.517 0.0
C548 C 0.97397 0.50334 0.58117 0.0
O549 O 0.9649 0.51645 0.56532 0.0
O550 O 0.99121 0.49327 0.57544 0.0
O551 O 0.0114 0.53569 0.54675 0.0
O552 O 0.99982 0.54435 0.50954 0.0
O553 O 0.96897 0.4925 0.52026 0.0
C554 C 0.01569 0.47231 0.50594 0.0
C555 C 0.00337 0.54993 0.53281 0.0
Zn556 Zn 0.79282 0.74589 0.26997 0.0
Zn557 Zn 0.74544 0.76585 0.28349 0.0
C558 C 0.77765 0.71314 0.22728 0.0
O559 O 0.78433 0.6985 0.24291 0.0
C560 C 0.76115 0.79879 0.3245 0.0
O561 O 0.75389 0.81196 0.30763 0.0
O562 O 0.82644 0.7403 0.26715 0.0
O563 O 0.79603 0.7815 0.27628 0.0
O564 O 0.76162 0.78935 0.26146 0.0
C565 C 0.83429 0.74889 0.24793 0.0
O566 O 0.821 0.76041 0.23412 0.0
O567 O 0.77764 0.73472 0.23513 0.0
C568 C 0.70337 0.75575 0.30317 0.0
O569 O 0.71775 0.7434 0.31439 0.0
O570 O 0.71112 0.76879 0.28664 0.0
O571 O 0.7437 0.73048 0.27395 0.0
O572 O 0.77663 0.72497 0.29408 0.0
O573 O 0.76033 0.77663 0.31867 0.0
C574 C 0.78375 0.79562 0.26649 0.0
C575 C 0.75509 0.71764 0.2868 0.0
Zn576 Zn 0.75393 0.25667 0.80023 0.0
Zn577 Zn 0.77067 0.27573 0.75354 0.0
C578 C 0.72536 0.21533 0.77899 0.0
O579 O 0.7107 0.22698 0.79019 0.0
C580 C 0.79704 0.31968 0.76848 0.0
O581 O 0.80922 0.31039 0.75196 0.0
O582 O 0.74939 0.24618 0.83444 0.0
O583 O 0.78812 0.27067 0.80269 0.0
O584 O 0.79555 0.25677 0.76587 0.0
C585 C 0.7631 0.23126 0.83893 0.0
O586 O 0.77705 0.22601 0.82209 0.0
O587 O 0.74678 0.22493 0.77931 0.0
C588 C 0.76123 0.29836 0.71136 0.0
O589 O 0.74531 0.30404 0.7257 0.0
O590 O 0.77511 0.28458 0.71883 0.0
O591 O 0.73605 0.26219 0.75176 0.0
O592 O 0.73056 0.27754 0.78872 0.0
O593 O 0.77802 0.30763 0.7739 0.0
C594 C 0.80215 0.26245 0.78876 0.0
C595 C 0.72319 0.27186 0.76604 0.0
Zn596 Zn 0.77363 0.73391 0.75285 0.0
Zn597 Zn 0.75164 0.77699 0.78356 0.0
C598 C 0.81411 0.75515 0.73341 0.0
O599 O 0.79868 0.75084 0.71384 0.0
C600 C 0.71231 0.75506 0.80309 0.0
O601 O 0.72724 0.76362 0.82235 0.0
O602 O 0.77798 0.70135 0.73853 0.0
O603 O 0.76362 0.72729 0.78697 0.0
O604 O 0.77184 0.76225 0.80879 0.0
C605 C 0.79287 0.69334 0.75281 0.0
O606 O 0.80234 0.70616 0.77327 0.0
O607 O 0.80723 0.75118 0.75459 0.0
C608 C 0.72881 0.8154 0.78218 0.0
O609 O 0.71782 0.79996 0.76427 0.0
O610 O 0.74595 0.80995 0.79564 0.0
O611 O 0.76312 0.78387 0.75037 0.0
O612 O 0.7531 0.74927 0.72854 0.0
O613 O 0.71878 0.75743 0.78144 0.0
C614 C 0.76907 0.73961 0.80772 0.0
C615 C 0.75613 0.77187 0.72977 0.0
Zn616 Zn 0.54508 0.50455 0.54368 0.0
Zn617 Zn 0.50039 0.52273 0.51142 0.0
C618 C 0.53457 0.4548 0.53479 0.0
O619 O 0.55297 0.45892 0.52207 0.0
C620 C 0.5141 0.55803 0.48164 0.0
O621 O 0.50234 0.54033 0.46653 0.0
O622 O 0.577 0.49722 0.55587 0.0
O623 O 0.54889 0.51567 0.50966 0.0
O624 O 0.51496 0.49953 0.48934 0.0
C625 C 0.59594 0.50589 0.54721 0.0
O626 O 0.59576 0.52365 0.53327 0.0
O627 O 0.5253 0.47232 0.54275 0.0
C628 C 0.4623 0.5436 0.51623 0.0
O629 O 0.4801 0.5557 0.53081 0.0
O630 O 0.46606 0.52596 0.502 0.0
O631 O 0.49796 0.51854 0.54794 0.0
O632 O 0.53265 0.52496 0.56962 0.0
O633 O 0.51751 0.55496 0.50456 0.0
C634 C 0.53714 0.50603 0.48965 0.0
C635 C 0.5104 0.5233 0.56859 0.0
Zn636 Zn 0.98878 0.51864 0.03799 0.0
Zn637 Zn 0.03994 0.49861 0.01547 0.0
C638 C 0.00716 0.5603 0.06847 0.0
O639 O 0.99957 0.54613 0.08506 0.0
C640 C 0.01661 0.45995 0.98307 0.0
O641 O 0.02333 0.47542 0.96736 0.0
O642 O 0.95411 0.52298 0.03852 0.0
O643 O 0.99336 0.5059 0.0035 0.0
O644 O 0.02762 0.52022 0.99135 0.0
C645 C 0.94953 0.53894 0.02448 0.0
O646 O 0.96646 0.54908 0.01221 0.0
O647 O 0.00611 0.55196 0.04595 0.0
C648 C 0.0798 0.47695 0.02675 0.0
O649 O 0.0632 0.46447 0.03767 0.0
O650 O 0.07454 0.49384 0.0144 0.0
O651 O 0.03596 0.51151 0.05013 0.0
O652 O 1.00172 0.49847 0.06321 0.0
O653 O 0.02114 0.46584 0.00624 0.0
C654 C 0.00526 0.51855 0.98923 0.0
C655 C 0.02403 0.49965 0.06496 0.0
H656 H 0.03175 0.22104 0.96831 0.0
H657 H 1.00193 0.17927 0.90035 0.0
H658 H 0.03669 0.18497 0.98772 0.0
H659 H 0.00629 0.14277 0.9201 0.0
H660 H 0.02619 0.08125 0.96253 0.0
H661 H 0.03241 0.11737 0.9409 0.0
H662 H 0.00576 0.15589 0.00115 0.0
H663 H 0.99971 0.12008 0.02274 0.0
C664 C 0.0266 0.20406 0.95741 0.0
C665 C 0.01611 0.20281 0.93301 0.0
C666 C 0.02934 0.18343 0.96855 0.0
C667 C 0.02135 0.16105 0.95565 0.0
C668 C 0.01261 0.1598 0.93051 0.0
C669 C 0.01009 0.18062 0.9192 0.0
C670 C 0.02201 0.09755 0.97131 0.0
C671 C 0.01239 0.09783 0.99434 0.0
C672 C 0.02544 0.11815 0.95883 0.0
C673 C 0.01961 0.13945 0.96931 0.0
C674 C 0.01075 0.13984 0.99272 0.0
C675 C 0.00714 0.11927 0.00505 0.0
H676 H 0.08761 0.80369 0.20562 0.0
H677 H 0.11045 0.76299 0.14461 0.0
H678 H 0.12375 0.80031 0.2312 0.0
H679 H 0.14512 0.75773 0.17022 0.0
H680 H 0.21651 0.77034 0.20815 0.0
H681 H 0.18086 0.7769 0.18569 0.0
H682 H 0.14661 0.77754 0.25374 0.0
H683 H 0.18376 0.7732 0.27683 0.0
C684 C 0.10034 0.79391 0.1978 0.0
C685 C 0.09663 0.78411 0.17301 0.0
C686 C 0.12094 0.79174 0.21248 0.0
C687 C 0.13784 0.77912 0.20278 0.0
C688 C 0.13328 0.76848 0.17822 0.0
C689 C 0.11324 0.77133 0.16346 0.0
C690 C 0.2015 0.77213 0.21849 0.0
C691 C 0.20303 0.77129 0.24433 0.0
C692 C 0.18075 0.77555 0.20546 0.0
C693 C 0.16037 0.77721 0.21762 0.0
C694 C 0.16188 0.77653 0.24364 0.0
C695 C 0.18311 0.77387 0.2569 0.0
H696 H 0.50649 0.83299 0.37936 0.0
H697 H 0.50233 0.80568 0.45115 0.0
H698 H 0.50847 0.87325 0.39875 0.0
H699 H 0.50508 0.84594 0.47065 0.0
H700 H 0.49974 0.9222 0.49773 0.0
H701 H 0.48824 0.88218 0.47649 0.0
H702 H 0.53954 0.89896 0.42411 0.0
H703 H 0.55046 0.93867 0.44468 0.0
C704 C 0.50574 0.83558 0.39924 0.0
C705 C 0.50462 0.81628 0.41379 0.0
C706 C 0.507 0.85863 0.41038 0.0
C707 C 0.50736 0.86284 0.4363 0.0
C708 C 0.50474 0.84333 0.45065 0.0
C709 C 0.50333 0.82026 0.43947 0.0
C710 C 0.50838 0.9173 0.48157 0.0
C711 C 0.52597 0.93358 0.47287 0.0
C712 C 0.50185 0.89441 0.46945 0.0
C713 C 0.51282 0.88746 0.44847 0.0
C714 C 0.5303 0.90387 0.43982 0.0
C715 C 0.53673 0.92663 0.4518 0.0
H716 H 0.48009 0.24455 0.70896 0.0
H717 H 0.4464 0.27255 0.6464 0.0
H718 H 0.44223 0.23613 0.72628 0.0
H719 H 0.40907 0.26558 0.66414 0.0
H720 H 0.34065 0.23701 0.689 0.0
H721 H 0.37834 0.23741 0.67204 0.0
H722 H 0.41387 0.25385 0.74607 0.0
H723 H 0.37565 0.25168 0.76302 0.0
C724 C 0.46457 0.24891 0.69894 0.0
C725 C 0.46613 0.25905 0.67626 0.0
C726 C 0.44289 0.24426 0.70895 0.0
C727 C 0.4224 0.25003 0.69664 0.0
C728 C 0.42418 0.26022 0.67392 0.0
C729 C 0.44569 0.26442 0.66375 0.0
C730 C 0.35656 0.24031 0.70162 0.0
C731 C 0.3554 0.24446 0.72723 0.0
C732 C 0.37822 0.24081 0.69192 0.0
C733 C 0.39935 0.24626 0.70755 0.0
C734 C 0.39806 0.24944 0.73341 0.0
C735 C 0.37621 0.24829 0.74318 0.0
H736 H 0.01109 0.83733 0.65136 0.0
H737 H 0.01622 0.79917 0.58064 0.0
H738 H 0.01718 0.87481 0.63224 0.0
H739 H 0.02189 0.83653 0.56149 0.0
H740 H 0.04717 0.91198 0.53942 0.0
H741 H 0.04793 0.87527 0.55989 0.0
H742 H 0.99153 0.89163 0.60253 0.0
H743 H 0.99087 0.92792 0.58256 0.0
C744 C 0.01374 0.83698 0.63182 0.0
C745 C 0.0129 0.81536 0.61743 0.0
C746 C 0.01714 0.85838 0.62085 0.0
C747 C 0.01974 0.85853 0.59531 0.0
C748 C 0.02008 0.83698 0.58122 0.0
C749 C 0.01666 0.81558 0.59218 0.0
C750 C 0.03494 0.90762 0.55312 0.0
C751 C 0.01903 0.92285 0.55941 0.0
C752 C 0.03539 0.88669 0.56484 0.0
C753 C 0.02002 0.8808 0.58306 0.0
C754 C 0.00399 0.89596 0.58903 0.0
C755 C 0.0035 0.91669 0.57737 0.0
H756 H 0.44883 0.80567 0.91855 0.0
H757 H 0.47439 0.75734 0.86585 0.0
H758 H 0.40976 0.79687 0.89541 0.0
H759 H 0.43542 0.74843 0.84329 0.0
H760 H 0.35566 0.7145 0.83981 0.0
H761 H 0.3949 0.72746 0.86128 0.0
H762 H 0.39106 0.79986 0.84634 0.0
H763 H 0.35183 0.78682 0.82415 0.0
C764 C 0.4462 0.79337 0.90199 0.0
C765 C 0.46467 0.78209 0.89413 0.0
C766 C 0.42393 0.78845 0.88876 0.0
C767 C 0.41975 0.77191 0.86779 0.0
C768 C 0.4383 0.76116 0.85954 0.0
C769 C 0.46059 0.76635 0.87244 0.0
C770 C 0.36313 0.73319 0.84119 0.0
C771 C 0.35081 0.74968 0.83032 0.0
C772 C 0.38556 0.74055 0.85334 0.0
C773 C 0.39584 0.76458 0.85531 0.0
C774 C 0.38337 0.78123 0.845 0.0
C775 C 0.36108 0.77377 0.83229 0.0
H776 H 0.46213 0.18787 0.06331 0.0
H777 H 0.50548 0.17819 0.129 0.0
H778 H 0.46227 0.14684 0.04754 0.0
H779 H 0.50707 0.13762 0.11271 0.0
H780 H 0.4996 0.0614 0.0819 0.0
H781 H 0.49028 0.09829 0.10085 0.0
H782 H 0.48953 0.12683 0.02932 0.0
H783 H 0.49746 0.08935 0.01023 0.0
C784 C 0.47131 0.17671 0.07455 0.0
C785 C 0.48373 0.18603 0.09734 0.0
C786 C 0.47174 0.15332 0.06538 0.0
C787 C 0.48519 0.13898 0.07848 0.0
C788 C 0.49637 0.14796 0.10211 0.0
C789 C 0.49544 0.17122 0.11155 0.0
C790 C 0.49721 0.0755 0.07019 0.0
C791 C 0.49919 0.07246 0.04453 0.0
C792 C 0.49199 0.09674 0.08111 0.0
C793 C 0.48907 0.11566 0.06671 0.0
C794 C 0.49105 0.11253 0.04099 0.0
C795 C 0.49584 0.0911 0.03 0.0
H796 H 0.0563 0.25227 0.33257 0.0
H797 H 0.10674 0.26742 0.39723 0.0
H798 H 0.08814 0.24807 0.30641 0.0
H799 H 0.13855 0.26351 0.37107 0.0
H800 H 0.19029 0.24076 0.32046 0.0
H801 H 0.15586 0.23578 0.34392 0.0
H802 H 0.12047 0.2762 0.29317 0.0
H803 H 0.15473 0.28098 0.26953 0.0
C804 C 0.07414 0.25442 0.34125 0.0
C805 C 0.07903 0.26031 0.36696 0.0
C806 C 0.09238 0.25214 0.32623 0.0
C807 C 0.11587 0.25557 0.33664 0.0
C808 C 0.12062 0.26049 0.3625 0.0
C809 C 0.1024 0.26287 0.37749 0.0
C810 C 0.17501 0.24822 0.31402 0.0
C811 C 0.17534 0.26144 0.29321 0.0
C812 C 0.15534 0.24548 0.32758 0.0
C813 C 0.13553 0.25578 0.32055 0.0
C814 C 0.13537 0.26788 0.29897 0.0
C815 C 0.15507 0.2707 0.28546 0.0
H816 H 0.95293 0.97822 0.19226 0.0
H817 H 0.91511 0.0373 0.18553 0.0
H818 H 0.97398 0.98911 0.15695 0.0
H819 H 0.93653 0.04831 0.14962 0.0
H820 H 0.96559 0.03858 0.06991 0.0
H821 H 0.94269 0.03324 0.10552 0.0
H822 H 0.00498 0.02265 0.14994 0.0
H823 H 0.02788 0.02772 0.11435 0.0
C824 C 0.94898 0.99351 0.18313 0.0
C825 C 0.9325 0.00706 0.19196 0.0
C826 C 0.96125 0.99987 0.16296 0.0
C827 C 0.95744 0.01996 0.15092 0.0
C828 C 0.93998 0.03284 0.15871 0.0
C829 C 0.92762 0.02646 0.17913 0.0
C830 C 0.97453 0.03546 0.08737 0.0
C831 C 0.99853 0.03305 0.08908 0.0
C832 C 0.96136 0.03252 0.10781 0.0
C833 C 0.97189 0.02702 0.13038 0.0
C834 C 0.99625 0.02636 0.1326 0.0
C835 C 0.00943 0.02944 0.11223 0.0
H836 H 0.27018 0.69473 0.48772 0.0
H837 H 0.26976 0.63108 0.43901 0.0
H838 H 0.26473 0.71708 0.45184 0.0
H839 H 0.26438 0.6539 0.40296 0.0
H840 H 0.22809 0.72485 0.36327 0.0
H841 H 0.22674 0.70165 0.39971 0.0
H842 H 0.30206 0.705 0.40339 0.0
H843 H 0.30355 0.72805 0.36732 0.0
C844 C 0.26854 0.68539 0.46937 0.0
C845 C 0.27052 0.66115 0.46612 0.0
C846 C 0.26529 0.69821 0.44894 0.0
C847 C 0.26392 0.68701 0.42495 0.0
C848 C 0.26517 0.66267 0.4215 0.0
C849 C 0.26836 0.64974 0.44201 0.0
C850 C 0.24434 0.72104 0.37226 0.0
C851 C 0.26594 0.72824 0.36269 0.0
C852 C 0.24352 0.70762 0.39277 0.0
C853 C 0.26428 0.70142 0.40377 0.0
C854 C 0.28587 0.70937 0.39479 0.0
C855 C 0.2867 0.72263 0.37436 0.0
H856 H 0.62564 0.98546 0.68037 0.0
H857 H 0.55711 0.96873 0.707 0.0
H858 H 0.60732 0.9795 0.63763 0.0
H859 H 0.5388 0.96422 0.66515 0.0
H860 H 0.5055 0.96101 0.59011 0.0
H861 H 0.5286 0.94853 0.625 0.0
H862 H 0.58674 0.00333 0.61456 0.0
H863 H 0.56427 0.01448 0.57912 0.0
C864 C 0.60677 0.97994 0.67708 0.0
C865 C 0.59275 0.97814 0.69701 0.0
C866 C 0.59618 0.97681 0.65261 0.0
C867 C 0.57143 0.97202 0.64777 0.0
C868 C 0.55783 0.96781 0.66779 0.0
C869 C 0.56837 0.9707 0.69201 0.0
C870 C 0.5234 0.96996 0.5951 0.0
C871 C 0.53299 0.98882 0.58213 0.0
C872 C 0.53666 0.96293 0.61513 0.0
C873 C 0.55952 0.97515 0.62307 0.0
C874 C 0.56944 0.99317 0.60904 0.0
C875 C 0.55639 0.99981 0.58878 0.0
H876 H 0.26828 0.33542 0.97999 0.0
H877 H 0.27187 0.40601 0.9559 0.0
H878 H 0.2692 0.31923 0.93747 0.0
H879 H 0.27381 0.38995 0.91322 0.0
H880 H 0.24239 0.34819 0.83896 0.0
H881 H 0.24805 0.36719 0.88103 0.0
H882 H 0.29132 0.31566 0.90302 0.0
H883 H 0.28478 0.29602 0.86097 0.0
C884 C 0.26967 0.34755 0.96561 0.0
C885 C 0.26979 0.37196 0.97122 0.0
C886 C 0.2704 0.33828 0.94119 0.0
C887 C 0.27152 0.35324 0.92179 0.0
C888 C 0.27253 0.37784 0.9276 0.0
C889 C 0.27155 0.38708 0.95206 0.0
C890 C 0.25334 0.34105 0.85269 0.0
C891 C 0.26296 0.32046 0.84667 0.0
C892 C 0.25673 0.35207 0.87685 0.0
C893 C 0.27005 0.34293 0.89556 0.0
C894 C 0.28057 0.32293 0.88922 0.0
C895 C 0.27697 0.31175 0.86508 0.0
H896 H 0.8849 0.01769 0.3382 0.0
H897 H 0.94399 0.99216 0.30748 0.0
H898 H 0.90255 0.01483 0.37992 0.0
H899 H 0.96119 0.98822 0.34907 0.0
H900 H 0.99857 0.01584 0.42677 0.0
H901 H 0.98052 0.01215 0.38418 0.0
H902 H 0.91234 0.98968 0.40993 0.0
H903 H 0.93037 0.99452 0.45252 0.0
C904 C 0.90147 0.01108 0.34038 0.0
C905 C 0.91312 0.0053 0.31961 0.0
C906 C 0.91156 0.00926 0.36431 0.0
C907 C 0.93339 0.0013 0.36799 0.0
C908 C 0.94462 0.99482 0.34705 0.0
C909 C 0.93466 0.99693 0.32317 0.0
C910 C 0.97981 0.00966 0.4232 0.0
C911 C 0.96583 0.00563 0.4429 0.0
C912 C 0.96941 0.00751 0.39877 0.0
C913 C 0.94485 0.00093 0.39354 0.0
C914 C 0.93118 0.99542 0.41325 0.0
C915 C 0.94153 0.99795 0.43765 0.0
H916 H 0.31983 0.67757 0.59661 0.0
H917 H 0.24527 0.66183 0.60321 0.0
H918 H 0.32513 0.70237 0.6364 0.0
H919 H 0.25041 0.68647 0.6426 0.0
H920 H 0.26176 0.76101 0.68145 0.0
H921 H 0.26261 0.73268 0.64571 0.0
H922 H 0.3179 0.70349 0.68493 0.0
H923 H 0.31722 0.73224 0.72074 0.0
C924 C 0.30483 0.67845 0.60721 0.0
C925 C 0.2822 0.66767 0.59715 0.0
C926 C 0.30779 0.69284 0.62974 0.0
C927 C 0.28807 0.69673 0.64214 0.0
C928 C 0.26582 0.68408 0.63314 0.0
C929 C 0.26292 0.6697 0.61085 0.0
C930 C 0.2745 0.74897 0.68228 0.0
C931 C 0.28917 0.74853 0.70407 0.0
C932 C 0.27477 0.73255 0.66195 0.0
C933 C 0.28992 0.71554 0.66286 0.0
C934 C 0.30587 0.71623 0.6839 0.0
C935 C 0.30539 0.73254 0.70439 0.0
H936 H 0.59135 0.02749 0.80742 0.0
H937 H 0.64383 0.99669 0.8493 0.0
H938 H 0.5738 0.03732 0.84527 0.0
H939 H 0.62545 0.00502 0.88715 0.0
H940 H 0.59661 0.03181 0.95482 0.0
H941 H 0.61723 0.03257 0.91746 0.0
H942 H 0.55023 0.01809 0.87269 0.0
H943 H 0.52983 0.01895 0.91036 0.0
C944 C 0.59914 0.02284 0.82481 0.0
C945 C 0.61885 0.01124 0.82552 0.0
C946 C 0.58896 0.0283 0.84651 0.0
C947 C 0.59795 0.02174 0.86933 0.0
C948 C 0.6182 0.01075 0.87004 0.0
C949 C 0.62872 0.00581 0.84836 0.0
C950 C 0.58641 0.02929 0.93689 0.0
C951 C 0.56175 0.02524 0.93523 0.0
C952 C 0.59817 0.02947 0.91549 0.0
C953 C 0.58548 0.02496 0.89197 0.0
C954 C 0.56067 0.02193 0.89043 0.0
C955 C 0.5489 0.02234 0.91194 0.0
H956 H 0.30173 0.33533 0.10094 0.0
H957 H 0.23533 0.36071 0.10412 0.0
H958 H 0.29432 0.31352 0.13679 0.0
H959 H 0.22767 0.33834 0.14045 0.0
H960 H 0.23818 0.30995 0.2202 0.0
H961 H 0.24158 0.33407 0.18503 0.0
H962 H 0.2673 0.27764 0.14333 0.0
H963 H 0.26429 0.2537 0.17845 0.0
C964 C 0.28555 0.33641 0.10948 0.0
C965 C 0.26899 0.34957 0.09948 0.0
C966 C 0.28121 0.32369 0.12995 0.0
C967 C 0.2601 0.32358 0.14109 0.0
C968 C 0.24405 0.33792 0.13216 0.0
C969 C 0.24846 0.35083 0.11148 0.0
C970 C 0.24424 0.30251 0.20339 0.0
C971 C 0.25119 0.27988 0.20231 0.0
C972 C 0.24612 0.31638 0.18321 0.0
C973 C 0.25511 0.308 0.16152 0.0
C974 C 0.26079 0.28487 0.15997 0.0
C975 C 0.25886 0.27101 0.18006 0.0
H976 H 0.17406 0.88689 0.01265 0.0
H977 H 0.22591 0.95021 0.03036 0.0
H978 H 0.14329 0.90896 0.02404 0.0
H979 H 0.19504 0.97235 0.04262 0.0
H980 H 0.12746 0.00749 0.0274 0.0
H981 H 0.16218 0.98809 0.02419 0.0
H982 H 0.12694 0.92758 0.05726 0.0
H983 H 0.09209 0.94671 0.05931 0.0
C984 C 0.17895 0.90549 0.01933 0.0
C985 C 0.20244 0.91679 0.02052 0.0
C986 C 0.16128 0.91816 0.02609 0.0
C987 C 0.16661 0.94248 0.03445 0.0
C988 C 0.19023 0.95372 0.03607 0.0
C989 C 0.20795 0.94101 0.02915 0.0
C990 C 0.12758 0.99039 0.03468 0.0
C991 C 0.10739 0.97863 0.04387 0.0
C992 C 0.1474 0.9792 0.0328 0.0
C993 C 0.14729 0.95606 0.04013 0.0
C994 C 0.1275 0.94513 0.0509 0.0
C995 C 0.10766 0.95618 0.05245 0.0
H996 H 0.70722 0.57617 0.98497 0.0
H997 H 0.67053 0.63597 0.99566 0.0
H998 H 0.67021 0.54894 0.98633 0.0
H999 H 0.63428 0.60922 0.99821 0.0
H1000 H 0.5674 0.56046 0.98063 0.0
H1001 H 0.60497 0.58326 0.97427 0.0
H1002 H 0.64075 0.53327 0.01202 0.0
H1003 H 0.60253 0.50953 0.01717 0.0
C1004 C 0.6913 0.58351 0.9876 0.0
C1005 C 0.69185 0.6083 0.98983 0.0
C1006 C 0.67009 0.5679 0.98857 0.0
C1007 C 0.649 0.57674 0.99206 0.0
C1008 C 0.64983 0.60155 0.99468 0.0
C1009 C 0.6708 0.61703 0.99334 0.0
C1010 C 0.58323 0.55409 0.98731 0.0
C1011 C 0.58192 0.53325 -0.00042 0.0
C1012 C 0.60492 0.56736 0.98389 0.0
C1013 C 0.62611 0.56059 0.99318 0.0
C1014 C 0.62488 0.5391 0.00454 0.0
C1015 C 0.60298 0.52547 0.00756 0.0
H1016 H 0.63839 0.43063 0.29441 0.0
H1017 H 0.69925 0.47228 0.26899 0.0
H1018 H 0.65598 0.395 0.28811 0.0
H1019 H 0.71661 0.43626 0.26153 0.0
H1020 H 0.75002 0.36861 0.276 0.0
H1021 H 0.7344 0.40616 0.28064 0.0
H1022 H 0.66445 0.36824 0.25696 0.0
H1023 H 0.67982 0.33121 0.25355 0.0
C1024 C 0.6554 0.43211 0.28707 0.0
C1025 C 0.66732 0.45427 0.28205 0.0
C1026 C 0.66552 0.4116 0.28331 0.0
C1027 C 0.68771 0.41255 0.27402 0.0
C1028 C 0.69963 0.43479 0.26893 0.0
C1029 C 0.68959 0.45543 0.273 0.0
C1030 C 0.73136 0.36849 0.27173 0.0
C1031 C 0.71609 0.34696 0.26486 0.0
C1032 C 0.72237 0.38997 0.27428 0.0
C1033 C 0.698 0.39028 0.26968 0.0
C1034 C 0.68313 0.36875 0.26155 0.0
C1035 C 0.692 0.34745 0.25942 0.0
H1036 H 0.83338 0.37745 0.45574 0.0
H1037 H 0.81213 0.43014 0.50685 0.0
H1038 H 0.8725 0.40112 0.45786 0.0
H1039 H 0.85141 0.45338 0.50956 0.0
H1040 H 0.92413 0.4945 0.50642 0.0
H1041 H 0.88365 0.47672 0.49096 0.0
H1042 H 0.90325 0.40678 0.49139 0.0
H1043 H 0.94327 0.42441 0.50627 0.0
C1044 C 0.83695 0.39421 0.46719 0.0
C1045 C 0.81977 0.40165 0.4815 0.0
C1046 C 0.85938 0.40776 0.46845 0.0
C1047 C 0.86522 0.42891 0.48424 0.0
C1048 C 0.8475 0.43725 0.4971 0.0
C1049 C 0.82498 0.42381 0.49566 0.0
C1050 C 0.91978 0.47537 0.50265 0.0
C1051 C 0.93674 0.4608 0.50774 0.0
C1052 C 0.89663 0.46519 0.49396 0.0
C1053 C 0.89019 0.44032 0.48996 0.0
C1054 C 0.90758 0.42598 0.49388 0.0
C1055 C 0.93053 0.43609 0.50269 0.0
H1056 H 0.39939 0.10145 0.26883 0.0
H1057 H 0.33321 0.05326 0.25865 0.0
H1058 H 0.37876 0.1344 0.26006 0.0
H1059 H 0.31254 0.08643 0.25018 0.0
H1060 H 0.2856 0.1549 0.22543 0.0
H1061 H 0.30689 0.12074 0.22278 0.0
H1062 H 0.35217 0.15151 0.28816 0.0
H1063 H 0.33127 0.18497 0.29088 0.0
C1064 C 0.38049 0.09782 0.26432 0.0
C1065 C 0.36788 0.07485 0.2649 0.0
C1066 C 0.36869 0.11668 0.25931 0.0
C1067 C 0.34402 0.11301 0.25483 0.0
C1068 C 0.33156 0.08976 0.25351 0.0
C1069 C 0.3434 0.07082 0.25852 0.0
C1070 C 0.30017 0.15428 0.2391 0.0
C1071 C 0.30667 0.17253 0.25842 0.0
C1072 C 0.3123 0.13481 0.2376 0.0
C1073 C 0.33136 0.13366 0.2551 0.0
C1074 C 0.33787 0.15209 0.27413 0.0
C1075 C 0.32566 0.17118 0.27583 0.0
H1076 H 0.34301 0.13369 0.51849 0.0
H1077 H 0.29958 0.06499 0.50064 0.0
H1078 H 0.37742 0.11435 0.52648 0.0
H1079 H 0.33407 0.04563 0.50838 0.0
H1080 H 0.40904 0.02654 0.49344 0.0
H1081 H 0.37202 0.04263 0.48868 0.0
H1082 H 0.39313 0.0882 0.55653 0.0
H1083 H 0.43007 0.07223 0.56097 0.0
C1084 C 0.3408 0.11446 0.51637 0.0
C1085 C 0.31856 0.10089 0.50899 0.0
C1086 C 0.36048 0.10336 0.52106 0.0
C1087 C 0.35848 0.07843 0.5181 0.0
C1088 C 0.33622 0.06485 0.51072 0.0
C1089 C 0.31645 0.07595 0.50644 0.0
C1090 C 0.40531 0.03945 0.50767 0.0
C1091 C 0.42203 0.04785 0.52785 0.0
C1092 C 0.38424 0.04875 0.50492 0.0
C1093 C 0.37969 0.06679 0.52219 0.0
C1094 C 0.39621 0.07454 0.54278 0.0
C1095 C 0.4172 0.06524 0.5455 0.0
H1096 H 0.65584 0.60857 0.33784 0.0
H1097 H 0.69158 0.56903 0.28602 0.0
H1098 H 0.68387 0.64463 0.33366 0.0
H1099 H 0.71906 0.60525 0.28152 0.0
H1100 H 0.7202 0.6888 0.25753 0.0
H1101 H 0.69849 0.6506 0.26631 0.0
H1102 H 0.74061 0.65471 0.33622 0.0
H1103 H 0.76303 0.69289 0.32718 0.0
C1104 C 0.66985 0.60747 0.3259 0.0
C1105 C 0.67145 0.58591 0.31226 0.0
C1106 C 0.68589 0.62806 0.32361 0.0
C1107 C 0.70356 0.62753 0.30737 0.0
C1108 C 0.70567 0.60594 0.29432 0.0
C1109 C 0.68995 0.58526 0.29696 0.0
C1110 C 0.72502 0.68149 0.27469 0.0
C1111 C 0.74331 0.6938 0.29169 0.0
C1112 C 0.71263 0.65965 0.27964 0.0
C1113 C 0.71794 0.6499 0.3019 0.0
C1114 C 0.73631 0.66198 0.31891 0.0
C1115 C 0.74913 0.68368 0.31369 0.0
H1116 H 0.89594 0.43736 0.83076 0.0
H1117 H 0.84367 0.47155 0.7924 0.0
H1118 H 0.86854 0.39977 0.8251 0.0
H1119 H 0.81669 0.434 0.78663 0.0
H1120 H 0.80711 0.3572 0.74229 0.0
H1121 H 0.82562 0.39745 0.75795 0.0
H1122 H 0.82478 0.3777 0.83309 0.0
H1123 H 0.80538 0.33723 0.81721 0.0
C1124 C 0.87849 0.43704 0.82167 0.0
C1125 C 0.87221 0.4574 0.81165 0.0
C1126 C 0.86277 0.41556 0.81859 0.0
C1127 C 0.84064 0.41407 0.80528 0.0
C1128 C 0.83373 0.43474 0.79687 0.0
C1129 C 0.84926 0.45622 0.80018 0.0
C1130 C 0.81036 0.36167 0.76217 0.0
C1131 C 0.80481 0.34439 0.77863 0.0
C1132 C 0.82086 0.38465 0.77113 0.0
C1133 C 0.82653 0.39061 0.79671 0.0
C1134 C 0.82046 0.37346 0.8133 0.0
C1135 C 0.80931 0.3505 0.80429 0.0
H1136 H 0.02784 0.85819 0.16204 0.0
H1137 H 0.01954 0.81966 0.08944 0.0
H1138 H 0.02652 0.8952 0.14283 0.0
H1139 H 0.01693 0.85625 0.07022 0.0
H1140 H 0.03877 0.93059 0.0441 0.0
H1141 H 0.03804 0.8922 0.06102 0.0
H1142 H 1.0011 0.91658 0.12181 0.0
H1143 H 0.00312 0.95525 0.10547 0.0
C1144 C 0.02566 0.85765 0.14198 0.0
C1145 C 0.02387 0.83608 0.12727 0.0
C1146 C 0.02462 0.87881 0.13091 0.0
C1147 C 0.02135 0.87879 0.10487 0.0
C1148 C 0.01975 0.85712 0.09025 0.0
C1149 C 0.02117 0.83607 0.1013 0.0
C1150 C 0.02998 0.92742 0.06071 0.0
C1151 C 0.02094 0.94575 0.07348 0.0
C1152 C 0.02961 0.90545 0.07053 0.0
C1153 C 0.01987 0.90131 0.0931 0.0
C1154 C 0.00942 0.91928 0.10485 0.0
C1155 C 0.01021 0.94133 0.0953 0.0
H1156 H 0.92668 0.29008 0.88812 0.0
H1157 H 0.94322 0.23283 0.83941 0.0
H1158 H 0.8903 0.28984 0.86259 0.0
H1159 H 0.90583 0.23205 0.81388 0.0
H1160 H 0.842 0.25586 0.76558 0.0
H1161 H 0.88151 0.25507 0.78601 0.0
H1162 H 0.85413 0.26165 0.85753 0.0
H1163 H 0.81561 0.2631 0.83761 0.0
C1164 C 0.92244 0.2773 0.87196 0.0
C1165 C 0.93755 0.26111 0.86608 0.0
C1166 C 0.90154 0.27715 0.85731 0.0
C1167 C 0.89488 0.26053 0.83655 0.0
C1168 C 0.91048 0.24501 0.82982 0.0
C1169 C 0.93177 0.24538 0.84446 0.0
C1170 C 0.84454 0.25702 0.78565 0.0
C1171 C 0.82576 0.25993 0.79996 0.0
C1172 C 0.86708 0.25649 0.79732 0.0
C1173 C 0.87102 0.25882 0.82339 0.0
C1174 C 0.85189 0.26053 0.83744 0.0
C1175 C 0.8297 0.26125 0.82594 0.0
H1176 H 0.50179 0.20189 0.63153 0.0
H1177 H 0.56784 0.21137 0.59838 0.0
H1178 H 0.49637 0.15909 0.61871 0.0
H1179 H 0.56227 0.16871 0.58581 0.0
H1180 H 0.53318 0.08243 0.61312 0.0
H1181 H 0.54094 0.12505 0.62678 0.0
H1182 H 0.50885 0.14028 0.55663 0.0
H1183 H 0.50114 0.09777 0.5427 0.0
C1184 C 0.51524 0.19483 0.62183 0.0
C1185 C 0.53519 0.20996 0.61588 0.0
C1186 C 0.51209 0.17047 0.61447 0.0
C1187 C 0.52894 0.16097 0.60133 0.0
C1188 C 0.54908 0.17587 0.59586 0.0
C1189 C 0.55218 0.20019 0.60302 0.0
C1190 C 0.52797 0.09489 0.60054 0.0
C1191 C 0.51658 0.08682 0.57686 0.0
C1192 C 0.53234 0.11914 0.60839 0.0
C1193 C 0.52525 0.13558 0.59274 0.0
C1194 C 0.5144 0.12771 0.5689 0.0
C1195 C 0.51017 0.10348 0.56094 0.0
H1196 H 0.55176 0.74294 0.32098 0.0
H1197 H 0.58913 0.76074 0.39384 0.0
H1198 H 0.58951 0.74399 0.30281 0.0
H1199 H 0.62642 0.76175 0.37582 0.0
H1200 H 0.68513 0.73217 0.34041 0.0
H1201 H 0.64633 0.73068 0.35472 0.0
H1202 H 0.62733 0.77488 0.2979 0.0
H1203 H 0.66674 0.77648 0.28326 0.0
C1204 C 0.56798 0.74693 0.33309 0.0
C1205 C 0.56749 0.75159 0.35885 0.0
C1206 C 0.58953 0.74775 0.32268 0.0
C1207 C 0.61087 0.75289 0.33792 0.0
C1208 C 0.61026 0.7575 0.36363 0.0
C1209 C 0.58887 0.75695 0.37395 0.0
C1210 C 0.67279 0.74158 0.33079 0.0
C1211 C 0.67916 0.75462 0.31076 0.0
C1212 C 0.65052 0.74074 0.3391 0.0
C1213 C 0.63387 0.7528 0.32757 0.0
C1214 C 0.63984 0.76535 0.30706 0.0
C1215 C 0.66239 0.76637 0.2988 0.0
H1216 H 0.98401 0.21289 0.46316 0.0
H1217 H 0.04283 0.2053 0.42055 0.0
H1218 H 0.98186 0.17207 0.47342 0.0
H1219 H 0.04153 0.16462 0.43182 0.0
H1220 H 0.02163 0.08614 0.44017 0.0
H1221 H 0.02071 0.12555 0.42667 0.0
H1222 H 1.00215 0.1493 0.499 0.0
H1223 H 1.002 0.10944 0.51203 0.0
C1224 C 0.99656 0.20245 0.45606 0.0
C1225 C 0.01369 0.21227 0.44119 0.0
C1226 C 0.99546 0.17909 0.46211 0.0
C1227 C 0.01173 0.16508 0.45379 0.0
C1228 C 0.02854 0.17476 0.43836 0.0
C1229 C 0.02937 0.19809 0.43193 0.0
C1230 C 0.01725 0.09978 0.45315 0.0
C1231 C 0.01189 0.09475 0.47717 0.0
C1232 C 0.01687 0.12244 0.44545 0.0
C1233 C 0.01145 0.14072 0.46172 0.0
C1234 C 0.00599 0.13559 0.48577 0.0
C1235 C 0.00602 0.11279 0.49335 0.0
H1236 H 0.55879 0.2553 0.18377 0.0
H1237 H 0.58702 0.27205 0.11464 0.0
H1238 H 0.59886 0.25921 0.20378 0.0
H1239 H 0.62659 0.27529 0.13435 0.0
H1240 H 0.6931 0.30632 0.18221 0.0
H1241 H 0.65271 0.30189 0.16415 0.0
H1242 H 0.63429 0.24023 0.20417 0.0
H1243 H 0.6749 0.24516 0.22302 0.0
C1244 C 0.57346 0.25972 0.17282 0.0
C1245 C 0.56963 0.26346 0.14761 0.0
C1246 C 0.5964 0.2618 0.18425 0.0
C1247 C 0.61589 0.26768 0.17067 0.0
C1248 C 0.61198 0.27117 0.14546 0.0
C1249 C 0.5892 0.26916 0.13411 0.0
C1250 C 0.68053 0.29167 0.18704 0.0
C1251 C 0.68724 0.27592 0.20383 0.0
C1252 C 0.65735 0.28912 0.17665 0.0
C1253 C 0.64032 0.27059 0.18257 0.0
C1254 C 0.64697 0.25481 0.19942 0.0
C1255 C 0.67024 0.2575 0.21002 0.0
H1256 H 0.52197 0.85087 0.90203 0.0
H1257 H 0.56361 0.83715 0.96729 0.0
H1258 H 0.51629 0.88875 0.92271 0.0
H1259 H 0.55946 0.87559 0.98751 0.0
H1260 H 0.52704 0.9336 0.02727 0.0
H1261 H 0.53271 0.89577 0.00653 0.0
H1262 H 0.53414 0.92719 0.93656 0.0
H1263 H 0.52725 0.96428 0.95702 0.0
C1264 C 0.53037 0.85633 0.92059 0.0
C1265 C 0.54327 0.84132 0.93311 0.0
C1266 C 0.5272 0.87802 0.93249 0.0
C1267 C 0.53738 0.88533 0.95691 0.0
C1268 C 0.55088 0.87041 0.96901 0.0
C1269 C 0.55351 0.84851 0.95734 0.0
C1270 C 0.52864 0.93234 0.00749 0.0
C1271 C 0.52666 0.95186 0.9938 0.0
C1272 C 0.53201 0.91071 0.99556 0.0
C1273 C 0.53387 0.90831 0.96976 0.0
C1274 C 0.5323 0.92809 0.95628 0.0
C1275 C 0.52856 0.9495 0.9681 0.0
H1276 H 0.96389 0.75162 0.71339 0.0
H1277 H 0.92221 0.74254 0.6426 0.0
H1278 H 0.92848 0.7559 0.73447 0.0
H1279 H 0.88719 0.74631 0.6634 0.0
H1280 H 0.84995 0.73734 0.75781 0.0
H1281 H 0.88872 0.73522 0.74314 0.0
H1282 H 0.87331 0.77951 0.68496 0.0
H1283 H 0.83456 0.78091 0.69908 0.0
C1284 C 0.94713 0.75006 0.70241 0.0
C1285 C 0.94582 0.74699 0.67634 0.0
C1286 C 0.92691 0.7526 0.71445 0.0
C1287 C 0.90516 0.75211 0.70056 0.0
C1288 C 0.90379 0.74759 0.67462 0.0
C1289 C 0.92385 0.74517 0.66268 0.0
C1290 C 0.85524 0.74721 0.74238 0.0
C1291 C 0.8393 0.75919 0.72943 0.0
C1292 C 0.87736 0.74589 0.73391 0.0
C1293 C 0.8838 0.75665 0.71249 0.0
C1294 C 0.86858 0.77041 0.70106 0.0
C1295 C 0.8465 0.77146 0.70929 0.0
H1296 H 0.14012 0.99936 0.88048 0.0
H1297 H 0.07907 0.01691 0.83922 0.0
H1298 H 0.11867 0.99697 0.91744 0.0
H1299 H 0.05787 0.01524 0.87616 0.0
H1300 H 0.01812 0.99029 0.94103 0.0
H1301 H 0.03937 0.98922 0.9038 0.0
H1302 H 0.10383 0.02105 0.94777 0.0
H1303 H 0.083 0.02132 0.98469 0.0
C1304 C 0.12222 0.00296 0.87938 0.0
C1305 C 0.11137 0.00841 0.85693 0.0
C1306 C 0.10987 0.00163 0.90058 0.0
C1307 C 0.0864 0.00584 0.89989 0.0
C1308 C 0.0757 0.01144 0.87739 0.0
C1309 C 0.08799 0.01267 0.85622 0.0
C1310 C 0.03685 0.99687 0.94272 0.0
C1311 C 0.04873 0.006 0.96589 0.0
C1312 C 0.04905 0.99643 0.92135 0.0
C1313 C 0.0734 0.00514 0.92265 0.0
C1314 C 0.08523 0.01387 0.94595 0.0
C1315 C 0.07313 0.01421 0.96719 0.0
H1316 H 0.74724 0.37859 0.58161 0.0
H1317 H 0.78957 0.32489 0.56272 0.0
H1318 H 0.7487 0.36768 0.62439 0.0
H1319 H 0.79019 0.31349 0.60456 0.0
H1320 H 0.79978 0.30425 0.68514 0.0
H1321 H 0.80373 0.32303 0.64653 0.0
H1322 H 0.73155 0.33503 0.64548 0.0
H1323 H 0.72807 0.31727 0.6846 0.0
C1324 C 0.75702 0.36467 0.5866 0.0
C1325 C 0.76798 0.3524 0.56865 0.0
C1326 C 0.7577 0.35827 0.61103 0.0
C1327 C 0.76938 0.33952 0.6179 0.0
C1328 C 0.78124 0.32816 0.60014 0.0
C1329 C 0.78064 0.33456 0.57594 0.0
C1330 C 0.7848 0.31091 0.6766 0.0
C1331 C 0.76356 0.30909 0.68768 0.0
C1332 C 0.78703 0.3217 0.6545 0.0
C1333 C 0.76792 0.3305 0.64279 0.0
C1334 C 0.74677 0.32888 0.65414 0.0
C1335 C 0.74467 0.31843 0.67643 0.0
H1336 H 0.39788 0.01609 0.37173 0.0
H1337 H 0.45725 0.06062 0.34725 0.0
H1338 H 0.42053 0.01387 0.41117 0.0
H1339 H 0.47947 0.06022 0.3872 0.0
H1340 H 0.52323 0.02858 0.44561 0.0
H1341 H 0.49981 0.03568 0.40855 0.0
H1342 H 0.43797 0.03068 0.44914 0.0
H1343 H 0.46105 0.02149 0.48527 0.0
C1344 C 0.41554 0.02606 0.37524 0.0
C1345 C 0.42591 0.03853 0.35669 0.0
C1346 C 0.4286 0.0249 0.39786 0.0
C1347 C 0.45209 0.0367 0.4025 0.0
C1348 C 0.46178 0.05031 0.3842 0.0
C1349 C 0.44897 0.05085 0.36141 0.0
C1350 C 0.50469 0.02924 0.44665 0.0
C1351 C 0.49408 0.02466 0.46851 0.0
C1352 C 0.49118 0.03349 0.42539 0.0
C1353 C 0.4668 0.03379 0.42563 0.0
C1354 C 0.45649 0.03015 0.44789 0.0
C1355 C 0.46988 0.02531 0.46888 0.0
H1356 H 0.75086 0.7023 0.06734 0.0
H1357 H 0.78099 0.63916 0.08041 0.0
H1358 H 0.75388 0.71336 0.11128 0.0
H1359 H 0.78488 0.65096 0.12513 0.0
H1360 H 0.76583 0.66791 0.20488 0.0
H1361 H 0.76295 0.65518 0.16055 0.0
H1362 H 0.781 0.72847 0.14504 0.0
H1363 H 0.78275 0.74109 0.18903 0.0
C1364 C 0.7584 0.69079 0.07956 0.0
C1365 C 0.7657 0.66975 0.07012 0.0
C1366 C 0.7603 0.69733 0.10496 0.0
C1367 C 0.76981 0.68324 0.12192 0.0
C1368 C 0.77725 0.66217 0.11263 0.0
C1369 C 0.77519 0.65547 0.08698 0.0
C1370 C 0.7689 0.68127 0.19189 0.0
C1371 C 0.77416 0.70552 0.20039 0.0
C1372 C 0.76753 0.67396 0.1665 0.0
C1373 C 0.77171 0.69074 0.14908 0.0
C1374 C 0.77714 0.71501 0.15775 0.0
C1375 C 0.77813 0.72231 0.18303 0.0
H1376 H 0.06937 0.0272 0.7277 0.0
H1377 H 0.13401 0.00065 0.71535 0.0
H1378 H 0.05843 0.02344 0.68354 0.0
H1379 H 0.12335 0.9977 0.67063 0.0
H1380 H 0.08453 0.97043 0.59458 0.0
H1381 H 0.09746 0.97559 0.63861 0.0
H1382 H 0.06579 0.03925 0.646 0.0
H1383 H 0.0517 0.03316 0.6019 0.0
C1384 C 0.0814 0.02067 0.71557 0.0
C1385 C 0.10262 0.01416 0.72525 0.0
C1386 C 0.07517 0.01876 0.69005 0.0
C1387 C 0.09 0.01043 0.6733 0.0
C1388 C 0.11131 0.00395 0.68292 0.0
C1389 C 0.11751 0.00573 0.7086 0.0
C1390 C 0.08045 0.98564 0.60559 0.0
C1391 C 0.06711 0.00143 0.59482 0.0
C1392 C 0.08802 0.98869 0.63088 0.0
C1393 C 0.08278 0.00787 0.64605 0.0
C1394 C 0.0698 0.02399 0.63507 0.0
C1395 C 0.06181 0.02064 0.60978 0.0
H1396 H 0.73354 0.31493 0.45723 0.0
H1397 H 0.73968 0.37724 0.41658 0.0
H1398 H 0.73473 0.29003 0.41935 0.0
H1399 H 0.74161 0.35216 0.37827 0.0
H1400 H 0.72724 0.29773 0.31057 0.0
H1401 H 0.72087 0.32176 0.3477 0.0
H1402 H 0.76276 0.28136 0.3922 0.0
H1403 H 0.76826 0.25685 0.35519 0.0
C1404 C 0.73512 0.32334 0.4401 0.0
C1405 C 0.73667 0.3481 0.43991 0.0
C1406 C 0.73598 0.30901 0.41835 0.0
C1407 C 0.73863 0.31903 0.39574 0.0
C1408 C 0.73941 0.34379 0.39534 0.0
C1409 C 0.73837 0.35821 0.41725 0.0
C1410 C 0.73476 0.29376 0.3283 0.0
C1411 C 0.74816 0.27528 0.32983 0.0
C1412 C 0.73132 0.30772 0.34961 0.0
C1413 C 0.74137 0.30365 0.37302 0.0
C1414 C 0.75439 0.28483 0.37458 0.0
C1415 C 0.7576 0.27073 0.3533 0.0
H1416 H 0.46765 0.9961 0.23891 0.0
H1417 H 0.40084 0.01525 0.21321 0.0
H1418 H 0.47841 0.99346 0.19667 0.0
H1419 H 0.41142 0.01185 0.17065 0.0
H1420 H 0.45143 0.03406 0.1045 0.0
H1421 H 0.43822 0.03336 0.14578 0.0
H1422 H 0.47025 0.97102 0.15695 0.0
H1423 H 0.48422 0.97222 0.11568 0.0
C1424 C 0.45511 0.9995 0.22423 0.0
C1425 C 0.43341 0.00605 0.22953 0.0
C1426 C 0.46124 0.99779 0.19993 0.0
C1427 C 0.4458 0.00245 0.18026 0.0
C1428 C 0.42387 0.00849 0.18544 0.0
C1429 C 0.41776 0.01034 0.20983 0.0
C1430 C 0.45556 0.02009 0.11568 0.0
C1431 C 0.4689 0.00319 0.10688 0.0
C1432 C 0.44782 0.0196 0.13932 0.0
C1433 C 0.45308 0.00209 0.15466 0.0
C1434 C 0.46616 0.98494 0.1457 0.0
C1435 C 0.47409 0.98555 0.12206 0.0
H1436 H 0.77913 0.69558 0.95879 0.0
H1437 H 0.75676 0.62995 0.91248 0.0
H1438 H 0.78047 0.71758 0.92248 0.0
H1439 H 0.75629 0.65211 0.87577 0.0
H1440 H 0.77701 0.69425 0.81175 0.0
H1441 H 0.77721 0.67237 0.8482 0.0
H1442 H 0.76108 0.73343 0.89177 0.0
H1443 H 0.76297 0.75587 0.8555 0.0
C1444 C 0.77411 0.68586 0.94073 0.0
C1445 C 0.76784 0.66098 0.93853 0.0
C1446 C 0.77466 0.69858 0.91975 0.0
C1447 C 0.76837 0.68692 0.89579 0.0
C1448 C 0.76177 0.66191 0.89367 0.0
C1449 C 0.7618 0.64909 0.91476 0.0
C1450 C 0.77382 0.70313 0.8292 0.0
C1451 C 0.77009 0.72692 0.83064 0.0
C1452 C 0.77358 0.69038 0.85021 0.0
C1453 C 0.76898 0.70079 0.8733 0.0
C1454 C 0.76519 0.72469 0.87465 0.0
C1455 C 0.7661 0.73766 0.85372 0.0
H1456 H 0.81369 0.0644 0.0408 0.0
H1457 H 0.86114 0.12528 0.02243 0.0
H1458 H 0.84355 0.03925 0.03349 0.0
H1459 H 0.89097 0.10037 0.01554 0.0
H1460 H 0.91413 0.00957 0.04436 0.0
H1461 H 0.88183 0.03166 0.04998 0.0
H1462 H 0.89882 0.06924 0.9861 0.0
H1463 H 0.93148 0.04749 0.98076 0.0
C1464 C 0.83058 0.07248 0.03553 0.0
C1465 C 0.83502 0.09686 0.03224 0.0
C1466 C 0.8477 0.05806 0.03131 0.0
C1467 C 0.86961 0.0677 0.02362 0.0
C1468 C 0.87414 0.0922 0.02089 0.0
C1469 C 0.8571 0.10657 0.02514 0.0
C1470 C 0.91075 0.02223 0.0312 0.0
C1471 C 0.92554 0.02679 0.01214 0.0
C1472 C 0.89216 0.03492 0.03445 0.0
C1473 C 0.88787 0.0525 0.01872 0.0
C1474 C 0.90192 0.05619 0.9989 0.0
C1475 C 0.92051 0.04351 0.99565 0.0
H1476 H 0.35137 0.39888 -0.00053 0.0
H1477 H 0.33521 0.44196 0.06274 0.0
H1478 H 0.38955 0.42338 0.00036 0.0
H1479 H 0.37433 0.46669 0.06388 0.0
H1480 H 0.44214 0.51565 0.03928 0.0
H1481 H 0.40162 0.49513 0.04079 0.0
H1482 H 0.42525 0.42757 0.02803 0.0
H1483 H 0.46506 0.44774 0.0261 0.0
C1484 C 0.35598 0.41363 0.01369 0.0
C1485 C 0.34029 0.41812 0.03134 0.0
C1486 C 0.37803 0.42768 0.01423 0.0
C1487 C 0.38534 0.44668 0.03256 0.0
C1488 C 0.36928 0.4521 0.04957 0.0
C1489 C 0.34691 0.43795 0.04894 0.0
C1490 C 0.43863 0.49641 0.037 0.0
C1491 C 0.45685 0.48339 0.03222 0.0
C1492 C 0.41543 0.48466 0.03793 0.0
C1493 C 0.41005 0.45969 0.03408 0.0
C1494 C 0.42855 0.44681 0.03043 0.0
C1495 C 0.4515 0.45844 0.02942 0.0
H1496 H 0.39241 0.58722 0.75678 0.0
H1497 H 0.32303 0.54587 0.73971 0.0
H1498 H 0.37552 0.62359 0.75838 0.0
H1499 H 0.30593 0.5827 0.74123 0.0
H1500 H 0.28806 0.65545 0.77915 0.0
H1501 H 0.3008 0.61648 0.77297 0.0
H1502 H 0.35566 0.64708 0.73003 0.0
H1503 H 0.34328 0.68559 0.73634 0.0
C1504 C 0.37352 0.5859 0.75309 0.0
C1505 C 0.3591 0.56362 0.74797 0.0
C1506 C 0.36381 0.60681 0.75394 0.0
C1507 C 0.33935 0.60611 0.74984 0.0
C1508 C 0.32483 0.58383 0.74458 0.0
C1509 C 0.33463 0.56278 0.74347 0.0
C1510 C 0.30263 0.6537 0.76813 0.0
C1511 C 0.31488 0.67371 0.75858 0.0
C1512 C 0.30989 0.63139 0.76453 0.0
C1513 C 0.3295 0.62876 0.75132 0.0
C1514 C 0.34085 0.64857 0.74076 0.0
C1515 C 0.33368 0.67068 0.74436 0.0
H1516 H 0.18513 0.6317 0.49128 0.0
H1517 H 0.21646 0.58404 0.53693 0.0
H1518 H 0.14635 0.60939 0.49464 0.0
H1519 H 0.17711 0.56155 0.54025 0.0
H1520 H 0.08349 0.59205 0.53557 0.0
H1521 H 0.1252 0.60732 0.53535 0.0
H1522 H 0.1382 0.53711 0.51163 0.0
H1523 H 0.09606 0.5216 0.51203 0.0
C1524 C 0.18378 0.6163 0.50184 0.0
C1525 C 0.20383 0.60997 0.51429 0.0
C1526 C 0.16155 0.60357 0.50379 0.0
C1527 C 0.15878 0.58418 0.51822 0.0
C1528 C 0.17886 0.57659 0.52918 0.0
C1529 C 0.2013 0.58944 0.52725 0.0
C1530 C 0.0953 0.57973 0.53093 0.0
C1531 C 0.08657 0.55574 0.52364 0.0
C1532 C 0.11913 0.58848 0.53067 0.0
C1533 C 0.13473 0.57346 0.52294 0.0
C1534 C 0.12645 0.54902 0.5176 0.0
C1535 C 0.10243 0.54017 0.51795 0.0
H1536 H 0.64157 0.91679 0.74607 0.0
H1537 H 0.70455 0.96325 0.77801 0.0
H1538 H 0.66036 0.88234 0.75295 0.0
H1539 H 0.72311 0.92872 0.78671 0.0
H1540 H 0.75502 0.85885 0.779 0.0
H1541 H 0.73962 0.89571 0.7726 0.0
H1542 H 0.67012 0.86081 0.78519 0.0
H1543 H 0.68543 0.82396 0.78983 0.0
C1544 C 0.65954 0.91954 0.75451 0.0
C1545 C 0.67167 0.94255 0.76143 0.0
C1546 C 0.67026 0.89981 0.75887 0.0
C1547 C 0.69312 0.90257 0.7711 0.0
C1548 C 0.70556 0.92578 0.7772 0.0
C1549 C 0.69499 0.9456 0.77218 0.0
C1550 C 0.7366 0.85943 0.78099 0.0
C1551 C 0.72137 0.83879 0.78506 0.0
C1552 C 0.72769 0.88048 0.77721 0.0
C1553 C 0.70343 0.88122 0.77772 0.0
C1554 C 0.6887 0.86082 0.78368 0.0
C1555 C 0.6975 0.83978 0.78686 0.0
H1556 H 0.7298 0.95768 0.55042 0.0
H1557 H 0.68593 0.88873 0.53799 0.0
H1558 H 0.69445 0.97669 0.54977 0.0
H1559 H 0.65089 0.9076 0.53748 0.0
H1560 H 0.5938 0.94591 0.56417 0.0
H1561 H 0.63088 0.93089 0.5676 0.0
H1562 H 0.65957 0.98163 0.51869 0.0
H1563 H 0.622 0.99685 0.51509 0.0
C1564 C 0.71265 0.94658 0.54781 0.0
C1565 C 0.71069 0.92167 0.54442 0.0
C1566 C 0.69243 0.95748 0.54722 0.0
C1567 C 0.66985 0.94367 0.54364 0.0
C1568 C 0.66799 0.91877 0.54056 0.0
C1569 C 0.68811 0.90794 0.54081 0.0
C1570 C 0.60797 0.95406 0.55418 0.0
C1571 C 0.60475 0.97245 0.53908 0.0
C1572 C 0.62926 0.94535 0.55613 0.0
C1573 C 0.6481 0.95481 0.54317 0.0
C1574 C 0.64538 0.97398 0.52895 0.0
C1575 C 0.62387 0.98267 0.52685 0.0
H1576 H 0.33345 0.4444 0.75862 0.0
H1577 H 0.39162 0.40932 0.74023 0.0
H1578 H 0.30868 0.40555 0.75939 0.0
H1579 H 0.36695 0.37088 0.74004 0.0
H1580 H 0.33091 0.30884 0.77588 0.0
H1581 H 0.35205 0.34787 0.77109 0.0
H1582 H 0.28847 0.36801 0.73768 0.0
H1583 H 0.26682 0.32863 0.74331 0.0
C1584 C 0.34077 0.42843 0.75419 0.0
C1585 C 0.36459 0.42994 0.74971 0.0
C1586 C 0.32659 0.40614 0.75461 0.0
C1587 C 0.33591 0.38496 0.75032 0.0
C1588 C 0.35931 0.3867 0.74424 0.0
C1589 C 0.37346 0.40881 0.74416 0.0
C1590 C 0.32129 0.32147 0.76747 0.0
C1591 C 0.2971 0.31542 0.7599 0.0
C1592 C 0.33355 0.34394 0.76451 0.0
C1593 C 0.32214 0.36115 0.75362 0.0
C1594 C 0.29784 0.35527 0.74621 0.0
C1595 C 0.28546 0.33265 0.74931 0.0
H1596 H 0.12756 0.58888 0.28006 0.0
H1597 H 0.18764 0.55796 0.25887 0.0
H1598 H 0.15094 0.62815 0.28308 0.0
H1599 H 0.21127 0.59779 0.26221 0.0
H1600 H 0.2337 0.68016 0.24875 0.0
H1601 H 0.21425 0.6383 0.24319 0.0
H1602 H 0.18418 0.64794 0.31287 0.0
H1603 H 0.20288 0.68923 0.31804 0.0
C1604 C 0.14574 0.59041 0.27592 0.0
C1605 C 0.15572 0.57016 0.26942 0.0
C1606 C 0.15919 0.61298 0.27779 0.0
C1607 C 0.18302 0.616 0.27322 0.0
C1608 C 0.19294 0.59594 0.26584 0.0
C1609 C 0.17942 0.57318 0.26407 0.0
C1610 C 0.2231 0.67311 0.26288 0.0
C1611 C 0.21927 0.68796 0.28349 0.0
C1612 C 0.21205 0.64925 0.25976 0.0
C1613 C 0.19727 0.64009 0.27734 0.0
C1614 C 0.19488 0.65469 0.29866 0.0
C1615 C 0.20561 0.67833 0.30162 0.0
H1616 H 0.52385 0.68314 0.39706 0.0
H1617 H 0.50413 0.70259 0.47012 0.0
H1618 H 0.53171 0.64511 0.41066 0.0
H1619 H 0.51125 0.66474 0.48329 0.0
H1620 H 0.53537 0.59993 0.50778 0.0
H1621 H 0.53924 0.63963 0.49332 0.0
H1622 H 0.50848 0.6092 0.42044 0.0
H1623 H 0.5055 0.56975 0.43455 0.0
C1624 C 0.52129 0.6794 0.41599 0.0
C1625 C 0.51308 0.69586 0.43235 0.0
C1626 C 0.52573 0.65758 0.42378 0.0
C1627 C 0.52209 0.65181 0.44809 0.0
C1628 C 0.51464 0.66865 0.46459 0.0
C1629 C 0.51026 0.69034 0.45687 0.0
C1630 C 0.5299 0.60173 0.48855 0.0
C1631 C 0.51984 0.58172 0.47243 0.0
C1632 C 0.53197 0.62448 0.48028 0.0
C1633 C 0.52386 0.62767 0.45578 0.0
C1634 C 0.51511 0.60748 0.43934 0.0
C1635 C 0.51322 0.5848 0.44754 0.0
H1636 H 0.5785 0.26695 0.70379 0.0
H1637 H 0.62237 0.3198 0.66789 0.0
H1638 H 0.61225 0.26325 0.7326 0.0
H1639 H 0.65594 0.31644 0.69737 0.0
H1640 H 0.7013 0.31022 0.77579 0.0
H1641 H 0.66452 0.31822 0.75422 0.0
H1642 H 0.65579 0.24977 0.71221 0.0
H1643 H 0.69273 0.24213 0.73294 0.0
C1644 C 0.59513 0.2783 0.7025 0.0
C1645 C 0.5978 0.29363 0.68348 0.0
C1646 C 0.61439 0.27611 0.71897 0.0
C1647 C 0.63648 0.28965 0.71715 0.0
C1648 C 0.63893 0.30601 0.69918 0.0
C1649 C 0.61978 0.30784 0.68232 0.0
C1650 C 0.69126 0.29679 0.76224 0.0
C1651 C 0.69971 0.27557 0.75599 0.0
C1652 C 0.6704 0.30141 0.74988 0.0
C1653 C 0.6575 0.28454 0.73172 0.0
C1654 C 0.66546 0.26294 0.72627 0.0
C1655 C 0.68653 0.25861 0.73808 0.0
H1656 H 0.99269 0.30632 0.94788 0.0
H1657 H 0.01342 0.34 0.88277 0.0
H1658 H 0.98789 0.34459 0.96795 0.0
H1659 H 0.00952 0.37846 0.90313 0.0
H1660 H 0.99237 0.44458 0.93844 0.0
H1661 H 0.98431 0.40397 0.91891 0.0
H1662 H 0.01375 0.37919 0.98597 0.0
H1663 H 0.02082 0.41968 0.00574 0.0
C1664 C 0.99609 0.32192 0.9378 0.0
C1665 C 0.00364 0.32026 0.91384 0.0
C1666 C 0.99344 0.34386 0.94935 0.0
C1667 C 0.99848 0.36465 0.93727 0.0
C1668 C 0.00515 0.36279 0.91289 0.0
C1669 C 0.00759 0.34078 0.90125 0.0
C1670 C 0.99658 0.43032 0.94914 0.0
C1671 C 0.00746 0.43521 0.97345 0.0
C1672 C 0.99213 0.4071 0.93792 0.0
C1673 C 0.99885 0.38838 0.95065 0.0
C1674 C 0.0082 0.39312 0.97563 0.0
C1675 C 0.01231 0.41634 0.98699 0.0
H1676 H 0.98175 0.74861 0.21745 0.0
H1677 H 0.94254 0.76733 0.15279 0.0
H1678 H 0.94517 0.74025 0.23746 0.0
H1679 H 0.90655 0.75998 0.17283 0.0
H1680 H 0.84143 0.73054 0.20272 0.0
H1681 H 0.87883 0.72999 0.1852 0.0
H1682 H 0.91579 0.75973 0.25585 0.0
H1683 H 0.87796 0.75887 0.27366 0.0
C1684 C 0.96534 0.75085 0.2075 0.0
C1685 C 0.96502 0.75851 0.18349 0.0
C1686 C 0.94441 0.74621 0.21901 0.0
C1687 C 0.92279 0.74922 0.20674 0.0
C1688 C 0.92266 0.75682 0.18269 0.0
C1689 C 0.94342 0.76125 0.1712 0.0
C1690 C 0.85762 0.7364 0.21461 0.0
C1691 C 0.85697 0.74479 0.23944 0.0
C1692 C 0.87906 0.73635 0.20455 0.0
C1693 C 0.9004 0.7454 0.21889 0.0
C1694 C 0.89975 0.75255 0.24425 0.0
C1695 C 0.87814 0.7521 0.2545 0.0
H1696 H 0.50827 0.33423 0.15211 0.0
H1697 H 0.50355 0.29783 0.07865 0.0
H1698 H 0.51687 0.37233 0.13468 0.0
H1699 H 0.51177 0.33597 0.06118 0.0
H1700 H 0.54355 0.41039 0.04119 0.0
H1701 H 0.54161 0.37232 0.05951 0.0
H1702 H 0.49207 0.39378 0.10881 0.0
H1703 H 0.49414 0.43146 0.09098 0.0
C1704 C 0.50921 0.33437 0.13227 0.0
C1705 C 0.50495 0.31313 0.11669 0.0
C1706 C 0.51407 0.35616 0.12229 0.0
C1707 C 0.51475 0.35709 0.09654 0.0
C1708 C 0.51151 0.33577 0.08109 0.0
C1709 C 0.50662 0.31397 0.09108 0.0
C1710 C 0.53233 0.40692 0.05598 0.0
C1711 C 0.51904 0.42392 0.06465 0.0
C1712 C 0.53119 0.38517 0.06642 0.0
C1713 C 0.51687 0.38022 0.08575 0.0
C1714 C 0.50365 0.39727 0.09431 0.0
C1715 C 0.50471 0.41882 0.0839 0.0
H1716 H 0.93615 0.28514 0.42051 0.0
H1717 H 0.97431 0.2884 0.35529 0.0
H1718 H 0.89956 0.28358 0.39496 0.0
H1719 H 0.93752 0.28801 0.32952 0.0
H1720 H 0.86279 0.25356 0.29217 0.0
H1721 H 0.90237 0.26242 0.31361 0.0
H1722 H 0.87665 0.30523 0.37137 0.0
H1723 H 0.83704 0.29503 0.35068 0.0
C1724 C 0.93677 0.286 0.40071 0.0
C1725 C 0.95814 0.28692 0.38995 0.0
C1726 C 0.91573 0.28531 0.38598 0.0
C1727 C 0.9155 0.28597 0.36009 0.0
C1728 C 0.93697 0.28726 0.34933 0.0
C1729 C 0.95807 0.28757 0.3641 0.0
C1730 C 0.86581 0.26531 0.30914 0.0
C1731 C 0.84691 0.27339 0.32 0.0
C1732 C 0.8885 0.27043 0.32147 0.0
C1733 C 0.89266 0.28405 0.34463 0.0
C1734 C 0.874 0.29398 0.35407 0.0
C1735 C 0.85134 0.28842 0.34208 0.0
H1736 H 0.97234 0.69289 0.56576 0.0
H1737 H 0.01648 0.67962 0.62933 0.0
H1738 H 0.96959 0.65165 0.54892 0.0
H1739 H 0.01518 0.63876 0.61196 0.0
H1740 H 0.99962 0.56227 0.58148 0.0
H1741 H 0.99443 0.60056 0.60084 0.0
H1742 H 0.99418 0.62884 0.52919 0.0
H1743 H 0.99828 0.59004 0.5097 0.0
C1744 C 0.98112 0.68091 0.57627 0.0
C1745 C 0.99443 0.68917 0.59886 0.0
C1746 C 0.97988 0.65741 0.5665 0.0
C1747 C 0.99252 0.64189 0.57878 0.0
C1748 C 0.00496 0.65001 0.60206 0.0
C1749 C 0.00571 0.67341 0.61211 0.0
C1750 C 0.99829 0.57663 0.56982 0.0
C1751 C 0.99942 0.57317 0.54404 0.0
C1752 C 0.99543 0.59867 0.58098 0.0
C1753 C 0.99393 0.61793 0.56669 0.0
C1754 C 0.9948 0.61435 0.5408 0.0
C1755 C 0.99733 0.59215 0.52957 0.0
H1756 H 0.56436 0.74865 0.83508 0.0
H1757 H 0.61468 0.77235 0.89876 0.0
H1758 H 0.59649 0.73929 0.81083 0.0
H1759 H 0.64628 0.76314 0.8748 0.0
H1760 H 0.67252 0.76559 0.77841 0.0
H1761 H 0.63418 0.76398 0.79532 0.0
H1762 H 0.65881 0.7261 0.85536 0.0
H1763 H 0.69699 0.72816 0.83883 0.0
C1764 C 0.58218 0.7517 0.84393 0.0
C1765 C 0.58699 0.7611 0.86889 0.0
C1766 C 0.6005 0.7464 0.83004 0.0
C1767 C 0.62379 0.75014 0.84106 0.0
C1768 C 0.62844 0.75952 0.86597 0.0
C1769 C 0.61031 0.76494 0.87968 0.0
C1770 C 0.6693 0.75603 0.79459 0.0
C1771 C 0.68765 0.74715 0.8075 0.0
C1772 C 0.64742 0.75518 0.80431 0.0
C1773 C 0.64377 0.74538 0.82695 0.0
C1774 C 0.66133 0.73416 0.83815 0.0
C1775 C 0.6831 0.73519 0.82862 0.0
H1776 H 0.40473 0.49974 0.67246 0.0
H1777 H 0.46627 0.53509 0.71874 0.0
H1778 H 0.42583 0.50602 0.63559 0.0
H1779 H 0.48703 0.5425 0.68216 0.0
H1780 H 0.52726 0.52083 0.61696 0.0
H1781 H 0.50515 0.52056 0.65338 0.0
H1782 H 0.44342 0.53161 0.60804 0.0
H1783 H 0.46522 0.53085 0.57167 0.0
C1784 C 0.4225 0.50953 0.67464 0.0
C1785 C 0.43393 0.51681 0.69838 0.0
C1786 C 0.43468 0.51315 0.65354 0.0
C1787 C 0.4584 0.52444 0.65582 0.0
C1788 C 0.46911 0.53311 0.67961 0.0
C1789 C 0.45712 0.52914 0.7006 0.0
C1790 C 0.50906 0.52345 0.61486 0.0
C1791 C 0.49805 0.52574 0.59138 0.0
C1792 C 0.49632 0.52341 0.63577 0.0
C1793 C 0.47234 0.52598 0.63377 0.0
C1794 C 0.46164 0.52911 0.61035 0.0
C1795 C 0.47427 0.52887 0.58945 0.0
H1796 H 0.76449 0.19006 0.98912 0.0
H1797 H 0.77895 0.12841 0.94555 0.0
H1798 H 0.75758 0.20938 0.95139 0.0
H1799 H 0.77206 0.14786 0.90763 0.0
H1800 H 0.79527 0.20491 0.85529 0.0
H1801 H 0.79557 0.18301 0.89177 0.0
H1802 H 0.73183 0.2076 0.9113 0.0
H1803 H 0.73153 0.2299 0.87442 0.0
C1804 C 0.76591 0.18052 0.97144 0.0
C1805 C 0.77252 0.15783 0.97025 0.0
C1806 C 0.76178 0.19154 0.94983 0.0
C1807 C 0.76448 0.18022 0.92663 0.0
C1808 C 0.7701 0.15709 0.92535 0.0
C1809 C 0.77395 0.14592 0.94698 0.0
C1810 C 0.7812 0.20563 0.86723 0.0
C1811 C 0.76329 0.21906 0.86191 0.0
C1812 C 0.7813 0.1929 0.88806 0.0
C1813 C 0.76353 0.19329 0.90415 0.0
C1814 C 0.74574 0.207 0.89914 0.0
C1815 C 0.74559 0.21978 0.87813 0.0
H1816 H 0.12714 0.50197 0.18712 0.0
H1817 H 0.06998 0.45086 0.20633 0.0
H1818 H 0.10743 0.50171 0.14606 0.0
H1819 H 0.05078 0.44878 0.16436 0.0
H1820 H 0.00634 0.48191 0.1066 0.0
H1821 H 0.02874 0.47213 0.14324 0.0
H1822 H 0.09299 0.48738 0.10736 0.0
H1823 H 0.07104 0.49978 0.07253 0.0
C1824 C 0.11093 0.48965 0.18198 0.0
C1825 C 0.10001 0.47647 0.19971 0.0
C1826 C 0.09944 0.48946 0.15834 0.0
C1827 C 0.07706 0.47556 0.15179 0.0
C1828 C 0.06752 0.46035 0.16889 0.0
C1829 C 0.07871 0.46112 0.19278 0.0
C1830 C 0.02524 0.48309 0.10662 0.0
C1831 C 0.03682 0.49148 0.08653 0.0
C1832 C 0.03816 0.47716 0.12753 0.0
C1833 C 0.06289 0.47893 0.1285 0.0
C1834 C 0.07415 0.48624 0.10777 0.0
C1835 C 0.0614 0.49298 0.08743 0.0
H1836 H 0.75952 0.89578 0.45273 0.0
H1837 H 0.78244 0.83581 0.48541 0.0
H1838 H 0.76103 0.87639 0.41147 0.0
H1839 H 0.78507 0.8168 0.44425 0.0
H1840 H 0.75683 0.77735 0.36768 0.0
H1841 H 0.76097 0.79696 0.40973 0.0
H1842 H 0.78443 0.86436 0.38131 0.0
H1843 H 0.77912 0.84483 0.33935 0.0
C1844 C 0.76532 0.87864 0.45107 0.0
C1845 C 0.77074 0.86728 0.47229 0.0
C1846 C 0.76634 0.86751 0.42739 0.0
C1847 C 0.77313 0.84488 0.42435 0.0
C1848 C 0.77931 0.83396 0.44573 0.0
C1849 C 0.77799 0.84496 0.46938 0.0
C1850 C 0.76325 0.79627 0.37056 0.0
C1851 C 0.76749 0.80959 0.35027 0.0
C1852 C 0.76568 0.80759 0.39468 0.0
C1853 C 0.77276 0.83241 0.39904 0.0
C1854 C 0.7783 0.84538 0.37873 0.0
C1855 C 0.77549 0.83415 0.35465 0.0
H1856 H 0.44315 0.50217 0.81215 0.0
H1857 H 0.37329 0.49807 0.83627 0.0
H1858 H 0.4594 0.50176 0.85472 0.0
H1859 H 0.38942 0.49659 0.87898 0.0
H1860 H 0.43021 0.53098 0.95222 0.0
H1861 H 0.41152 0.52373 0.91019 0.0
H1862 H 0.46378 0.48084 0.89022 0.0
H1863 H 0.48319 0.48908 0.93235 0.0
C1864 C 0.43119 0.5007 0.82654 0.0
C1865 C 0.40697 0.50041 0.82093 0.0
C1866 C 0.4405 0.50027 0.85099 0.0
C1867 C 0.42578 0.49929 0.87042 0.0
C1868 C 0.40135 0.49783 0.86458 0.0
C1869 C 0.39206 0.49852 0.84009 0.0
C1870 C 0.43761 0.51977 0.93898 0.0
C1871 C 0.4583 0.51074 0.94558 0.0
C1872 C 0.42674 0.51544 0.91483 0.0
C1873 C 0.4361 0.50171 0.89669 0.0
C1874 C 0.45629 0.49183 0.90359 0.0
C1875 C 0.46735 0.49642 0.92776 0.0
H1876 H 0.77809 0.15027 0.1151 0.0
H1877 H 0.82536 0.20899 0.0925 0.0
H1878 H 0.78017 0.1708 0.15654 0.0
H1879 H 0.82853 0.22915 0.13414 0.0
H1880 H 0.79199 0.27285 0.18998 0.0
H1881 H 0.80242 0.24984 0.15426 0.0
H1882 H 0.79864 0.18788 0.19555 0.0
H1883 H 0.78698 0.2107 0.23078 0.0
C1884 C 0.78987 0.16703 0.11942 0.0
C1885 C 0.80155 0.17808 0.10069 0.0
C1886 C 0.79103 0.17894 0.14317 0.0
C1887 C 0.80412 0.202 0.14865 0.0
C1888 C 0.81772 0.21179 0.13047 0.0
C1889 C 0.81623 0.20009 0.1067 0.0
C1890 C 0.79387 0.25447 0.19166 0.0
C1891 C 0.78857 0.24367 0.21333 0.0
C1892 C 0.80001 0.2412 0.17113 0.0
C1893 C 0.80127 0.21681 0.17181 0.0
C1894 C 0.79747 0.20645 0.1941 0.0
C1895 C 0.79109 0.21967 0.21451 0.0
H1896 H 0.14916 0.50353 0.35411 0.0
H1897 H 0.08709 0.51428 0.30926 0.0
H1898 H 0.12953 0.51081 0.3916 0.0
H1899 H 0.06759 0.52151 0.34656 0.0
H1900 H 0.0451 0.54599 0.42309 0.0
H1901 H 0.06812 0.54776 0.38693 0.0
H1902 H 0.09503 0.48441 0.40585 0.0
H1903 H 0.07241 0.48257 0.44146 0.0
C1904 C 0.13154 0.50788 0.35229 0.0
C1905 C 0.11951 0.50799 0.32884 0.0
C1906 C 0.1203 0.51198 0.37367 0.0
C1907 C 0.09699 0.51649 0.37187 0.0
C1908 C 0.08559 0.5182 0.34846 0.0
C1909 C 0.09671 0.51385 0.32712 0.0
C1910 C 0.05592 0.53248 0.4194 0.0
C1911 C 0.05704 0.51423 0.43515 0.0
C1912 C 0.06911 0.53354 0.39885 0.0
C1913 C 0.08367 0.51648 0.39397 0.0
C1914 C 0.08448 0.49817 0.40958 0.0
C1915 C 0.07132 0.49704 0.42988 0.0
H1916 H 0.77856 0.87668 0.62205 0.0
H1917 H 0.73728 0.81534 0.57962 0.0
H1918 H 0.77435 0.85654 0.66005 0.0
H1919 H 0.73197 0.7956 0.61735 0.0
H1920 H 0.75485 0.75427 0.68101 0.0
H1921 H 0.75438 0.77635 0.64441 0.0
H1922 H 0.75137 0.84068 0.69062 0.0
H1923 H 0.75286 0.81874 0.72722 0.0
C1924 C 0.76789 0.85923 0.62102 0.0
C1925 C 0.75826 0.84755 0.59795 0.0
C1926 C 0.76549 0.84758 0.64277 0.0
C1927 C 0.75318 0.82411 0.64186 0.0
C1928 C 0.7422 0.81328 0.61884 0.0
C1929 C 0.74494 0.82473 0.5972 0.0
C1930 C 0.75392 0.77308 0.68332 0.0
C1931 C 0.754 0.78469 0.70708 0.0
C1932 C 0.75351 0.78581 0.66228 0.0
C1933 C 0.75279 0.81046 0.66436 0.0
C1934 C 0.75232 0.8219 0.68816 0.0
C1935 C 0.75302 0.80922 0.7092 0.0
H1936 H 0.72869 0.45209 0.53413 0.0
H1937 H 0.67325 0.39145 0.51889 0.0
H1938 H 0.69998 0.47698 0.54575 0.0
H1939 H 0.64438 0.41651 0.52999 0.0
H1940 H 0.59918 0.46383 0.56727 0.0
H1941 H 0.63019 0.43963 0.56337 0.0
H1942 H 0.66902 0.49359 0.52437 0.0
H1943 H 0.63834 0.51796 0.52869 0.0
C1944 C 0.71036 0.44403 0.53335 0.0
C1945 C 0.70322 0.41981 0.52541 0.0
C1946 C 0.69388 0.45835 0.5399 0.0
C1947 C 0.66982 0.44883 0.53864 0.0
C1948 C 0.66278 0.4244 0.53145 0.0
C1949 C 0.67931 0.41005 0.52493 0.0
C1950 C 0.61457 0.47076 0.55831 0.0
C1951 C 0.61626 0.49288 0.54828 0.0
C1952 C 0.63223 0.45675 0.55585 0.0
C1953 C 0.65204 0.46455 0.54339 0.0
C1954 C 0.65416 0.48711 0.53432 0.0
C1955 C 0.6365 0.50109 0.53673 0.0
H1956 H 0.2054 0.07782 0.49603 0.0
H1957 H 0.16662 0.12671 0.4603 0.0
H1958 H 0.16841 0.05194 0.50056 0.0
H1959 H 0.1299 0.10071 0.46443 0.0
H1960 H 0.07141 0.0703 0.50967 0.0
H1961 H 0.10853 0.09188 0.50005 0.0
H1962 H 0.13241 0.02565 0.47995 0.0
H1963 H 0.09484 0.00368 0.49004 0.0
C1964 C 0.18907 0.08283 0.48867 0.0
C1965 C 0.18904 0.10457 0.47808 0.0
C1966 C 0.16785 0.06793 0.49123 0.0
C1967 C 0.14614 0.07442 0.48323 0.0
C1968 C 0.14626 0.09542 0.47132 0.0
C1969 C 0.16737 0.1103 0.46882 0.0
C1970 C 0.08447 0.06018 0.5032 0.0
C1971 C 0.08006 0.03518 0.50065 0.0
C1972 C 0.10577 0.07264 0.49744 0.0
C1973 C 0.12342 0.06055 0.48893 0.0
C1974 C 0.11919 0.0355 0.4865 0.0
C1975 C 0.09765 0.02293 0.49217 0.0
H1976 H 0.14082 0.92957 0.79488 0.0
H1977 H 0.19919 0.97318 0.76725 0.0
H1978 H 0.16021 0.8951 0.78918 0.0
H1979 H 0.21829 0.93827 0.76021 0.0
H1980 H 0.25626 0.87395 0.77499 0.0
H1981 H 0.2384 0.91018 0.7788 0.0
H1982 H 0.16956 0.86783 0.75973 0.0
H1983 H 0.18727 0.8321 0.75747 0.0
C1984 C 0.15766 0.9317 0.78716 0.0
C1985 C 0.16837 0.9541 0.7814 0.0
C1986 C 0.16881 0.91184 0.78371 0.0
C1987 C 0.19084 0.91364 0.77392 0.0
C1988 C 0.20151 0.93612 0.76803 0.0
C1989 C 0.19046 0.95613 0.77186 0.0
C1990 C 0.23735 0.8726 0.77148 0.0
C1991 C 0.22312 0.85026 0.76624 0.0
C1992 C 0.22706 0.89332 0.77358 0.0
C1993 C 0.20237 0.89206 0.77004 0.0
C1994 C 0.18848 0.86964 0.76349 0.0
C1995 C 0.19867 0.84908 0.76194 0.0
H1996 H 0.30999 0.93246 0.98602 0.0
H1997 H 0.3422 0.8692 0.979 0.0
H1998 H 0.34883 0.957 0.98805 0.0
H1999 H 0.38059 0.89328 0.98236 0.0
H2000 H 0.44849 0.93656 0.97828 0.0
H2001 H 0.4081 0.91829 0.96473 0.0
H2002 H 0.38298 0.9691 0.01511 0.0
H2003 H 0.42352 0.98838 0.027 0.0
C2004 C 0.32531 0.92379 0.98476 0.0
C2005 C 0.32293 0.89884 0.98228 0.0
C2006 C 0.34762 0.93786 0.9861 0.0
C2007 C 0.36804 0.92726 0.98531 0.0
C2008 C 0.36543 0.90229 0.98235 0.0
C2009 C 0.34325 0.88834 0.98062 0.0
C2010 C 0.43421 0.94415 0.98584 0.0
C2011 C 0.43895 0.96373 0.00366 0.0
C2012 C 0.41105 0.93355 0.97836 0.0
C2013 C 0.39212 0.9417 0.98932 0.0
C2014 C 0.39694 0.96232 0.00609 0.0
C2015 C 0.42018 0.97338 0.013 0.0
H2016 H 0.89309 0.60279 0.76517 0.0
H2017 H 0.82888 0.55207 0.76158 0.0
H2018 H 0.87019 0.63344 0.75343 0.0
H2019 H 0.80612 0.58262 0.74982 0.0
H2020 H 0.7796 0.65393 0.77539 0.0
H2021 H 0.79867 0.61869 0.77512 0.0
H2022 H 0.84286 0.64634 0.72002 0.0
H2023 H 0.82344 0.68168 0.72033 0.0
C2024 C 0.87416 0.5981 0.7615 0.0
C2025 C 0.86278 0.57511 0.7646 0.0
C2026 C 0.86106 0.61558 0.7546 0.0
C2027 C 0.83635 0.61042 0.75082 0.0
C2028 C 0.82512 0.58715 0.75282 0.0
C2029 C 0.83819 0.56966 0.75954 0.0
C2030 C 0.79272 0.65193 0.76251 0.0
C2031 C 0.79977 0.67005 0.74747 0.0
C2032 C 0.8037 0.63185 0.76239 0.0
C2033 C 0.82229 0.62978 0.74757 0.0
C2034 C 0.82863 0.64752 0.73166 0.0
C2035 C 0.81737 0.66752 0.73158 0.0
H2036 H 0.84771 0.63332 0.00818 0.0
H2037 H 0.80321 0.56748 0.01836 0.0
H2038 H 0.8823 0.61407 0.01332 0.0
H2039 H 0.83805 0.548 0.02324 0.0
H2040 H 0.9117 0.5293 0.05259 0.0
H2041 H 0.87527 0.54667 0.05011 0.0
H2042 H 0.89882 0.58462 0.98861 0.0
H2043 H 0.93477 0.56769 0.99116 0.0
C2044 C 0.84528 0.61473 0.01161 0.0
C2045 C 0.82263 0.60194 0.01268 0.0
C2046 C 0.86515 0.60362 0.01443 0.0
C2047 C 0.86299 0.57937 0.01839 0.0
C2048 C 0.84038 0.56671 0.0203 0.0
C2049 C 0.82041 0.57786 0.0174 0.0
C2050 C 0.90894 0.54122 0.03846 0.0
C2051 C 0.92633 0.54729 0.0223 0.0
C2052 C 0.88808 0.55115 0.03701 0.0
C2053 C 0.88428 0.56741 0.01943 0.0
C2054 C 0.90136 0.5727 0.0028 0.0
C2055 C 0.92201 0.56282 0.0042 0.0
H2056 H 0.19556 0.06822 0.81168 0.0
H2057 H 0.13858 0.10847 0.80207 0.0
H2058 H 0.22399 0.10443 0.81013 0.0
H2059 H 0.16663 0.14411 0.79943 0.0
H2060 H 0.21927 0.20945 0.81553 0.0
H2061 H 0.19457 0.17283 0.82258 0.0
H2062 H 0.23977 0.13263 0.78309 0.0
H2063 H 0.26522 0.1697 0.77692 0.0
C2064 C 0.18909 0.08477 0.80928 0.0
C2065 C 0.16475 0.08543 0.80726 0.0
C2066 C 0.2054 0.10552 0.8082 0.0
C2067 C 0.19774 0.12738 0.80481 0.0
C2068 C 0.17337 0.12787 0.80274 0.0
C2069 C 0.15717 0.1073 0.80414 0.0
C2070 C 0.22418 0.19285 0.8086 0.0
C2071 C 0.2442 0.19261 0.79552 0.0
C2072 C 0.20983 0.17173 0.81245 0.0
C2073 C 0.21477 0.14962 0.80299 0.0
C2074 C 0.23539 0.14925 0.79079 0.0
C2075 C 0.25 0.17052 0.7872 0.0
H2076 H 0.3449 0.9693 0.28992 0.0
H2077 H 0.39562 0.93496 0.33057 0.0
H2078 H 0.3176 0.93198 0.28386 0.0
H2079 H 0.36798 0.89758 0.32449 0.0
H2080 H 0.30671 0.83463 0.31506 0.0
H2081 H 0.32534 0.87527 0.33117 0.0
H2082 H 0.3253 0.89562 0.25618 0.0
H2083 H 0.30741 0.85527 0.24034 0.0
C2084 C 0.35009 0.95397 0.29805 0.0
C2085 C 0.37271 0.95503 0.31031 0.0
C2086 C 0.33437 0.93262 0.29459 0.0
C2087 C 0.34079 0.91194 0.30353 0.0
C2088 C 0.36257 0.91335 0.31754 0.0
C2089 C 0.37845 0.93471 0.32084 0.0
C2090 C 0.31021 0.84809 0.30225 0.0
C2091 C 0.30567 0.84215 0.27658 0.0
C2092 C 0.32092 0.87116 0.31138 0.0
C2093 C 0.32663 0.88851 0.29489 0.0
C2094 C 0.3208 0.88269 0.26931 0.0
C2095 C 0.31066 0.85965 0.26024 0.0
H2096 H 0.52311 0.35768 0.64895 0.0
H2097 H 0.53131 0.31286 0.58347 0.0
H2098 H 0.52248 0.39139 0.62374 0.0
H2099 H 0.52971 0.34585 0.55838 0.0
H2100 H 0.55579 0.41584 0.52721 0.0
H2101 H 0.55334 0.38158 0.55107 0.0
H2102 H 0.49953 0.40732 0.59161 0.0
H2103 H 0.50254 0.44223 0.56812 0.0
C2104 C 0.52474 0.35504 0.62923 0.0
C2105 C 0.52753 0.33271 0.61827 0.0
C2106 C 0.52413 0.37424 0.61472 0.0
C2107 C 0.5261 0.37136 0.58898 0.0
C2108 C 0.5286 0.3489 0.57816 0.0
C2109 C 0.52947 0.32991 0.59261 0.0
C2110 C 0.54311 0.41406 0.54088 0.0
C2111 C 0.52943 0.43186 0.54578 0.0
C2112 C 0.54169 0.39433 0.55462 0.0
C2113 C 0.52637 0.39175 0.57347 0.0
C2114 C 0.51184 0.40899 0.57757 0.0
C2115 C 0.51334 0.42883 0.56386 0.0
H2116 H 0.45275 0.75464 0.33275 0.0
H2117 H 0.41147 0.74028 0.39441 0.0
H2118 H 0.41654 0.7557 0.30616 0.0
H2119 H 0.37568 0.74085 0.36797 0.0
H2120 H 0.32398 0.77973 0.32933 0.0
H2121 H 0.36082 0.77455 0.35087 0.0
H2122 H 0.37689 0.73299 0.28648 0.0
H2123 H 0.33948 0.73845 0.26435 0.0
C2124 C 0.43597 0.75122 0.34048 0.0
C2125 C 0.43501 0.74781 0.3658 0.0
C2126 C 0.41526 0.75179 0.32525 0.0
C2127 C 0.39331 0.74887 0.33511 0.0
C2128 C 0.39236 0.74381 0.35997 0.0
C2129 C 0.4129 0.74341 0.37512 0.0
C2130 C 0.33527 0.76951 0.31956 0.0
C2131 C 0.3286 0.75929 0.29513 0.0
C2132 C 0.35641 0.76641 0.33205 0.0
C2133 C 0.37157 0.75294 0.32059 0.0
C2134 C 0.36549 0.7434 0.29581 0.0
C2135 C 0.3441 0.7465 0.28317 0.0
H2136 H 0.04241 0.71436 0.0764 0.0
H2137 H 0.0054 0.69998 0.14115 0.0
H2138 H 0.03927 0.67215 0.06513 0.0
H2139 H 1.00154 0.65741 0.12925 0.0
H2140 H 0.01902 0.58309 0.11476 0.0
H2141 H 0.02424 0.62574 0.12658 0.0
H2142 H 0.01171 0.63826 0.04947 0.0
H2143 H 0.00744 0.59579 0.03767 0.0
C2144 C 0.03336 0.70221 0.08815 0.0
C2145 C 0.02416 0.71065 0.10974 0.0
C2146 C 0.03147 0.67791 0.08157 0.0
C2147 C 0.02016 0.66133 0.09625 0.0
C2148 C 0.01071 0.6697 0.11773 0.0
C2149 C 0.01274 0.69411 0.12445 0.0
C2150 C 0.0177 0.59503 0.10034 0.0
C2151 C 0.01291 0.58614 0.0753 0.0
C2152 C 0.02043 0.61944 0.10712 0.0
C2153 C 0.01817 0.63544 0.08902 0.0
C2154 C 0.01388 0.62651 0.0639 0.0
C2155 C 0.01143 0.60214 0.0571 0.0
H2156 H 0.05162 0.24721 0.81967 0.0
H2157 H 0.08955 0.2645 0.89234 0.0
H2158 H 0.08922 0.24763 0.80123 0.0
H2159 H 0.12657 0.26499 0.87408 0.0
H2160 H 0.18507 0.23599 0.84026 0.0
H2161 H 0.1456 0.23332 0.85299 0.0
H2162 H 0.12761 0.27813 0.79634 0.0
H2163 H 0.16771 0.28079 0.7832 0.0
C2164 C 0.06791 0.25094 0.83167 0.0
C2165 C 0.06765 0.25563 0.85746 0.0
C2166 C 0.08936 0.25139 0.82111 0.0
C2167 C 0.11075 0.2562 0.83626 0.0
C2168 C 0.11035 0.26092 0.86198 0.0
C2169 C 0.0891 0.26068 0.87243 0.0
C2170 C 0.17279 0.24528 0.83035 0.0
C2171 C 0.17967 0.25899 0.81099 0.0
C2172 C 0.15014 0.2437 0.83768 0.0
C2173 C 0.13368 0.2558 0.82592 0.0
C2174 C 0.14002 0.26862 0.8057 0.0
C2175 C 0.16292 0.27022 0.79827 0.0
H2176 H 0.5261 0.70258 0.91076 0.0
H2177 H 0.53028 0.7262 0.9888 0.0
H2178 H 0.52115 0.66143 0.92083 0.0
H2179 H 0.52615 0.68517 0.99892 0.0
H2180 H 0.49321 0.60866 0.00689 0.0
H2181 H 0.49747 0.64982 0.9964 0.0
H2182 H 0.54186 0.63336 0.93915 0.0
H2183 H 0.53698 0.59238 0.94901 0.0
C2184 C 0.52632 0.69901 0.93007 0.0
C2185 C 0.52852 0.71765 0.94896 0.0
C2186 C 0.52351 0.67541 0.93588 0.0
C2187 C 0.52311 0.66997 0.96071 0.0
C2188 C 0.52586 0.68868 0.97959 0.0
C2189 C 0.52843 0.71223 0.97378 0.0
C2190 C 0.50377 0.61388 0.99202 0.0
C2191 C 0.51465 0.59727 0.97873 0.0
C2192 C 0.50635 0.63747 0.98609 0.0
C2193 C 0.52001 0.6449 0.9669 0.0
C2194 C 0.53088 0.6282 0.95372 0.0
C2195 C 0.52816 0.60468 0.95949 0.0
H2196 H 0.09683 0.78918 0.63472 0.0
H2197 H 0.06321 0.745 0.68701 0.0
H2198 H 0.13496 0.78827 0.65653 0.0
H2199 H 0.10184 0.74378 0.70876 0.0
H2200 H 0.17847 0.77155 0.75082 0.0
H2201 H 0.13749 0.76912 0.73345 0.0
H2202 H 0.15879 0.75638 0.65975 0.0
H2203 H 0.19942 0.75934 0.67694 0.0
C2204 C 0.09757 0.77928 0.65091 0.0
C2205 C 0.07703 0.76683 0.65887 0.0
C2206 C 0.11946 0.77866 0.66334 0.0
C2207 C 0.12141 0.76542 0.68394 0.0
C2208 C 0.10083 0.754 0.69283 0.0
C2209 C 0.07876 0.75471 0.68038 0.0
C2210 C 0.17418 0.7676 0.73099 0.0
C2211 C 0.19203 0.76587 0.71513 0.0
C2212 C 0.1508 0.7663 0.72106 0.0
C2213 C 0.1451 0.76318 0.69521 0.0
C2214 C 0.16277 0.7595 0.67969 0.0
C2215 C 0.18599 0.76098 0.68953 0.0
H2216 H 0.03115 0.32505 0.47181 0.0
H2217 H 0.04127 0.35696 0.40308 0.0
H2218 H 0.02653 0.36328 0.492 0.0
H2219 H 0.03729 0.39554 0.42354 0.0
H2220 H 0.04039 0.44015 0.52646 0.0
H2221 H 0.04758 0.40248 0.50648 0.0
H2222 H 0.00642 0.4144 0.43991 0.0
H2223 H 0.99977 0.45207 0.45951 0.0
C2224 C 0.03261 0.34031 0.46106 0.0
C2225 C 0.03647 0.33801 0.43582 0.0
C2226 C 0.03014 0.36227 0.47271 0.0
C2227 C 0.03152 0.38245 0.4594 0.0
C2228 C 0.03582 0.38024 0.43423 0.0
C2229 C 0.03825 0.35821 0.42254 0.0
C2230 C 0.03288 0.43466 0.50758 0.0
C2231 C 0.01956 0.44909 0.49458 0.0
C2232 C 0.03695 0.41309 0.49615 0.0
C2233 C 0.02768 0.40552 0.47154 0.0
C2234 C 0.01421 0.41991 0.45868 0.0
C2235 C 0.01024 0.44144 0.47004 0.0
H2236 H 0.41603 0.24732 0.14967 0.0
H2237 H 0.46233 0.24503 0.21575 0.0
H2238 H 0.38442 0.25356 0.175 0.0
H2239 H 0.43005 0.25108 0.24137 0.0
H2240 H 0.34468 0.29599 0.22262 0.0
H2241 H 0.38136 0.29045 0.20556 0.0
H2242 H 0.38535 0.22994 0.24755 0.0
H2243 H 0.34841 0.23533 0.26477 0.0
C2244 C 0.4194 0.24783 0.16963 0.0
C2245 C 0.4418 0.24593 0.18069 0.0
C2246 C 0.4013 0.25158 0.18415 0.0
C2247 C 0.40499 0.25338 0.21013 0.0
C2248 C 0.42687 0.24997 0.22135 0.0
C2249 C 0.44524 0.24639 0.2067 0.0
C2250 C 0.35362 0.28188 0.2288 0.0
C2251 C 0.34336 0.2659 0.24474 0.0
C2252 C 0.37458 0.27865 0.21892 0.0
C2253 C 0.38587 0.25947 0.22486 0.0
C2254 C 0.37694 0.24482 0.24263 0.0
C2255 C 0.3558 0.24798 0.2525 0.0
H2256 H 0.58031 0.51775 0.34009 0.0
H2257 H 0.64135 0.50095 0.38208 0.0
H2258 H 0.55861 0.51548 0.3767 0.0
H2259 H 0.61945 0.4982 0.41873 0.0
H2260 H 0.58308 0.52305 0.48501 0.0
H2261 H 0.60387 0.52352 0.44816 0.0
H2262 H 0.54053 0.48819 0.40451 0.0
H2263 H 0.51927 0.48813 0.44187 0.0
C2264 C 0.58913 0.51358 0.35718 0.0
C2265 C 0.61265 0.50968 0.35821 0.0
C2266 C 0.57656 0.51202 0.37813 0.0
C2267 C 0.58718 0.50657 0.40071 0.0
C2268 C 0.61076 0.50271 0.40173 0.0
C2269 C 0.62335 0.50426 0.38073 0.0
C2270 C 0.57345 0.51519 0.46768 0.0
C2271 C 0.54941 0.50544 0.46656 0.0
C2272 C 0.58553 0.51536 0.44645 0.0
C2273 C 0.57402 0.50575 0.42331 0.0
C2274 C 0.54994 0.49594 0.42203 0.0
C2275 C 0.53775 0.49577 0.44344 0.0
H2276 H 0.24692 0.87763 0.07811 0.0
H2277 H 0.28937 0.82391 0.05967 0.0
H2278 H 0.24972 0.86805 0.1214 0.0
H2279 H 0.29133 0.81386 0.10193 0.0
H2280 H 0.30391 0.8066 0.18203 0.0
H2281 H 0.30639 0.82521 0.14318 0.0
H2282 H 0.23394 0.83591 0.14423 0.0
H2283 H 0.23199 0.8184 0.18367 0.0
C2284 C 0.25697 0.86399 0.0833 0.0
C2285 C 0.26761 0.85133 0.06538 0.0
C2286 C 0.25845 0.85837 0.10801 0.0
C2287 C 0.27067 0.84009 0.11515 0.0
C2288 C 0.28206 0.82824 0.09732 0.0
C2289 C 0.28064 0.83384 0.07287 0.0
C2290 C 0.28859 0.813 0.17391 0.0
C2291 C 0.2677 0.81083 0.18558 0.0
C2292 C 0.28997 0.82369 0.1517 0.0
C2293 C 0.27028 0.83191 0.14044 0.0
C2294 C 0.24954 0.83015 0.15252 0.0
C2295 C 0.24833 0.81988 0.17497 0.0
H2296 H 0.90091 0.54886 0.87536 0.0
H2297 H 0.96134 0.53454 0.83825 0.0
H2298 H 0.92341 0.54873 0.91554 0.0
H2299 H 0.98338 0.53369 0.87795 0.0
H2300 H 0.0235 0.54536 0.95322 0.0
H2301 H 1.00209 0.55553 0.91582 0.0
H2302 H 0.93726 0.51819 0.938 0.0
H2303 H 0.95829 0.50851 0.97516 0.0
C2304 C 0.91899 0.54586 0.87579 0.0
C2305 C 0.92926 0.54146 0.8537 0.0
C2306 C 0.93186 0.5457 0.89875 0.0
C2307 C 0.95519 0.5411 0.89995 0.0
C2308 C 0.96563 0.53763 0.87778 0.0
C2309 C 0.95284 0.53786 0.85496 0.0
C2310 C 0.00466 0.53953 0.95014 0.0
C2311 C 0.99268 0.52602 0.9671 0.0
C2312 C 0.99239 0.54532 0.92875 0.0
C2313 C 0.96794 0.53766 0.92392 0.0
C2314 C 0.95596 0.52474 0.94128 0.0
C2315 C 0.96815 0.51899 0.96254 0.0
H2316 H 0.27756 0.13994 0.57299 0.0
H2317 H 0.23898 0.19746 0.55937 0.0
H2318 H 0.28122 0.1523 0.61749 0.0
H2319 H 0.24205 0.20919 0.60335 0.0
H2320 H 0.2741 0.24034 0.68048 0.0
H2321 H 0.27008 0.22746 0.63629 0.0
H2322 H 0.25869 0.15408 0.65295 0.0
H2323 H 0.26348 0.16703 0.69717 0.0
C2324 C 0.26977 0.15508 0.57942 0.0
C2325 C 0.25809 0.16771 0.56249 0.0
C2326 C 0.27174 0.16211 0.60494 0.0
C2327 C 0.262 0.18184 0.61402 0.0
C2328 C 0.25016 0.19423 0.59706 0.0
C2329 C 0.24829 0.18733 0.57172 0.0
C2330 C 0.27039 0.22148 0.67468 0.0
C2331 C 0.26902 0.20471 0.69228 0.0
C2332 C 0.26812 0.21405 0.64934 0.0
C2333 C 0.26416 0.18968 0.64102 0.0
C2334 C 0.26218 0.17295 0.65868 0.0
C2335 C 0.26467 0.18038 0.68402 0.0
H2336 H 0.58323 0.54732 0.23005 0.0
H2337 H 0.62752 0.49383 0.21832 0.0
H2338 H 0.57155 0.54432 0.18591 0.0
H2339 H 0.6152 0.49034 0.17385 0.0
H2340 H 0.60469 0.50539 0.09295 0.0
H2341 H 0.61831 0.51101 0.13694 0.0
H2342 H 0.5478 0.51765 0.1545 0.0
H2343 H 0.53433 0.51264 0.1104 0.0
C2344 C 0.59042 0.53478 0.21807 0.0
C2345 C 0.60625 0.52069 0.22783 0.0
C2346 C 0.58357 0.53299 0.19268 0.0
C2347 C 0.59224 0.51697 0.17628 0.0
C2348 C 0.60836 0.50308 0.18593 0.0
C2349 C 0.61536 0.50498 0.21143 0.0
C2350 C 0.59214 0.50832 0.10619 0.0
C2351 C 0.56842 0.50863 0.09818 0.0
C2352 C 0.59992 0.51131 0.13144 0.0
C2353 C 0.58416 0.51461 0.14932 0.0
C2354 C 0.56052 0.51545 0.14125 0.0
C2355 C 0.55276 0.51257 0.11595 0.0
H2356 H 0.24994 0.81759 0.95257 0.0
H2357 H 0.23136 0.87525 0.91206 0.0
H2358 H 0.25303 0.79462 0.91396 0.0
H2359 H 0.23397 0.85147 0.87278 0.0
H2360 H 0.21998 0.78311 0.81148 0.0
H2361 H 0.21313 0.80748 0.84889 0.0
H2362 H 0.28333 0.8038 0.88058 0.0
H2363 H 0.29023 0.78017 0.84318 0.0
C2364 C 0.2464 0.8254 0.93541 0.0
C2365 C 0.24074 0.84846 0.93542 0.0
C2366 C 0.24814 0.81213 0.91327 0.0
C2367 C 0.24388 0.82134 0.8905 0.0
C2368 C 0.23729 0.84401 0.89022 0.0
C2369 C 0.23591 0.85761 0.9126 0.0
C2370 C 0.23383 0.78765 0.82651 0.0
C2371 C 0.25552 0.77979 0.82474 0.0
C2372 C 0.22999 0.80159 0.84773 0.0
C2373 C 0.24776 0.80752 0.86746 0.0
C2374 C 0.26932 0.79933 0.86566 0.0
C2375 C 0.2732 0.78569 0.84445 0.0
H2376 H 0.90979 0.53473 0.7152 0.0
H2377 H 0.94163 0.47321 0.73043 0.0
H2378 H 0.92131 0.53181 0.67299 0.0
H2379 H 0.95213 0.46946 0.68796 0.0
H2380 H 0.99499 0.48972 0.62341 0.0
H2381 H 0.97998 0.48915 0.66407 0.0
H2382 H 0.91576 0.5105 0.63356 0.0
H2383 H 0.9313 0.51213 0.59333 0.0
C2384 C 0.91874 0.52024 0.70929 0.0
C2385 C 0.92503 0.50434 0.72606 0.0
C2386 C 0.9253 0.51849 0.68509 0.0
C2387 C 0.9379 0.50053 0.67712 0.0
C2388 C 0.94302 0.48388 0.69364 0.0
C2389 C 0.93684 0.4859 0.71791 0.0
C2390 C 0.97762 0.49412 0.62543 0.0
C2391 C 0.96437 0.50109 0.60532 0.0
C2392 C 0.96891 0.49367 0.64868 0.0
C2393 C 0.94662 0.49982 0.65214 0.0
C2394 C 0.93315 0.50611 0.63172 0.0
C2395 C 0.94201 0.5069 0.60862 0.0
H2396 H 0.25615 0.19133 0.45071 0.0
H2397 H 0.27402 0.13095 0.40778 0.0
H2398 H 0.25656 0.21344 0.4142 0.0
H2399 H 0.27454 0.15334 0.37099 0.0
H2400 H 0.28504 0.25448 0.35037 0.0
H2401 H 0.2858 0.23161 0.3867 0.0
H2402 H 0.24609 0.17016 0.34273 0.0
H2403 H 0.2455 0.19272 0.30656 0.0
C2404 C 0.26016 0.18273 0.43344 0.0
C2405 C 0.26505 0.15932 0.43216 0.0
C2406 C 0.26056 0.19553 0.41255 0.0
C2407 C 0.26577 0.18526 0.38975 0.0
C2408 C 0.27033 0.1617 0.3883 0.0
C2409 C 0.27003 0.14887 0.40932 0.0
C2410 C 0.27646 0.23612 0.34849 0.0
C2411 C 0.26518 0.2255 0.32555 0.0
C2412 C 0.27686 0.22302 0.36929 0.0
C2413 C 0.26603 0.19904 0.36757 0.0
C2414 C 0.25489 0.18845 0.3446 0.0
C2415 C 0.25446 0.2015 0.32389 0.0
H2416 H 0.35889 0.63391 0.53019 0.0
H2417 H 0.31467 0.56507 0.52328 0.0
H2418 H 0.39341 0.61483 0.52642 0.0
H2419 H 0.34961 0.54584 0.51951 0.0
H2420 H 0.42071 0.52828 0.48595 0.0
H2421 H 0.38311 0.54326 0.48905 0.0
H2422 H 0.41379 0.58939 0.55395 0.0
H2423 H 0.45063 0.57488 0.55103 0.0
C2424 C 0.35655 0.61467 0.52803 0.0
C2425 C 0.33408 0.60101 0.52728 0.0
C2426 C 0.37633 0.60374 0.52584 0.0
C2427 C 0.37418 0.57884 0.5227 0.0
C2428 C 0.35172 0.56506 0.52175 0.0
C2429 C 0.33182 0.57606 0.5242 0.0
C2430 C 0.41926 0.5415 0.5009 0.0
C2431 C 0.43881 0.55068 0.51792 0.0
C2432 C 0.39779 0.54998 0.50274 0.0
C2433 C 0.39571 0.56775 0.52154 0.0
C2434 C 0.41499 0.57608 0.53898 0.0
C2435 C 0.43617 0.56768 0.53722 0.0
H2436 H 0.82732 0.94495 0.53247 0.0
H2437 H 0.86246 0.88599 0.54953 0.0
H2438 H 0.86573 0.97007 0.53138 0.0
H2439 H 0.90038 0.91097 0.54927 0.0
H2440 H 0.96072 0.94761 0.51246 0.0
H2441 H 0.92199 0.92653 0.51716 0.0
H2442 H 0.90366 0.99001 0.55378 0.0
H2443 H 0.94288 0.01167 0.54839 0.0
C2444 C 0.8432 0.93749 0.53645 0.0
C2445 C 0.84181 0.91335 0.54069 0.0
C2446 C 0.86521 0.95189 0.53588 0.0
C2447 C 0.88622 0.94244 0.53971 0.0
C2448 C 0.88465 0.91871 0.54546 0.0
C2449 C 0.86283 0.90437 0.54575 0.0
C2450 C 0.94856 0.95725 0.52154 0.0
C2451 C 0.9551 0.98139 0.53017 0.0
C2452 C 0.92627 0.94501 0.52443 0.0
C2453 C 0.9097 0.95638 0.53625 0.0
C2454 C 0.91596 0.98068 0.54458 0.0
C2455 C 0.93847 0.99306 0.54161 0.0
H2456 H 0.82679 0.04697 0.24559 0.0
H2457 H 0.89553 0.08947 0.24682 0.0
H2458 H 0.80947 0.08311 0.25234 0.0
H2459 H 0.87829 0.12547 0.2523 0.0
H2460 H 0.8499 0.18297 0.29406 0.0
H2461 H 0.86352 0.1455 0.2851 0.0
H2462 H 0.79911 0.11926 0.23834 0.0
H2463 H 0.785 0.15694 0.24847 0.0
C2464 C 0.8381 0.06406 0.24664 0.0
C2465 C 0.86256 0.0654 0.24591 0.0
C2466 C 0.82817 0.08481 0.25052 0.0
C2467 C 0.8425 0.10731 0.25348 0.0
C2468 C 0.86675 0.10851 0.25101 0.0
C2469 C 0.87666 0.08785 0.24755 0.0
C2470 C 0.83851 0.1691 0.28208 0.0
C2471 C 0.81643 0.17287 0.27193 0.0
C2472 C 0.84644 0.14765 0.27665 0.0
C2473 C 0.83276 0.12943 0.2604 0.0
C2474 C 0.81017 0.13284 0.25092 0.0
C2475 C 0.80202 0.15437 0.25674 0.0
H2476 H 0.71943 0.08843 0.03517 0.0
H2477 H 0.6915 0.15265 0.02138 0.0
H2478 H 0.67914 0.06627 0.03169 0.0
H2479 H 0.65195 0.13083 0.01837 0.0
H2480 H 0.58777 0.08418 0.98335 0.0
H2481 H 0.62913 0.10107 0.9877 0.0
H2482 H 0.6402 0.06264 0.05192 0.0
H2483 H 0.59819 0.04486 0.047 0.0
C2484 C 0.70481 0.09786 0.03158 0.0
C2485 C 0.70881 0.12233 0.02835 0.0
C2486 C 0.68176 0.08518 0.0297 0.0
C2487 C 0.66239 0.09674 0.02442 0.0
C2488 C 0.66648 0.12126 0.02193 0.0
C2489 C 0.68928 0.13383 0.0238 0.0
C2490 C 0.59891 0.07935 0.99852 0.0
C2491 C 0.58961 0.06375 0.0153 0.0
C2492 C 0.62267 0.08902 0.00098 0.0
C2493 C 0.63784 0.08369 0.02053 0.0
C2494 C 0.62889 0.06715 0.03673 0.0
C2495 C 0.6049 0.05712 0.03404 0.0
H2496 H 0.21179 0.46463 0.26145 0.0
H2497 H 0.14947 0.41574 0.27283 0.0
H2498 H 0.2354 0.43282 0.26546 0.0
H2499 H 0.17296 0.38426 0.27719 0.0
H2500 H 0.21615 0.32742 0.25715 0.0
H2501 H 0.19437 0.36013 0.25169 0.0
H2502 H 0.24963 0.40776 0.29711 0.0
H2503 H 0.27169 0.37458 0.30211 0.0
C2504 C 0.20312 0.44708 0.26462 0.0
C2505 C 0.17875 0.44265 0.26667 0.0
C2506 C 0.21667 0.42895 0.26717 0.0
C2507 C 0.20607 0.40602 0.27163 0.0
C2508 C 0.18165 0.40163 0.27344 0.0
C2509 C 0.16818 0.41971 0.271 0.0
C2510 C 0.22351 0.34486 0.26609 0.0
C2511 C 0.24529 0.34855 0.28037 0.0
C2512 C 0.21108 0.36359 0.26299 0.0
C2513 C 0.22013 0.38651 0.27419 0.0
C2514 C 0.24226 0.39032 0.28813 0.0
C2515 C 0.25481 0.37142 0.29115 0.0
H2516 H 0.22307 0.44967 0.07155 0.0
H2517 H 0.1912 0.39626 0.01298 0.0
H2518 H 0.18772 0.46888 0.06784 0.0
H2519 H 0.15663 0.41588 0.00876 0.0
H2520 H 0.11247 0.477 0.99252 0.0
H2521 H 0.1504 0.46238 0.99718 0.0
H2522 H 0.13965 0.44984 0.07303 0.0
H2523 H 0.10151 0.46335 0.0681 0.0
C2524 C 0.2086 0.44206 0.05794 0.0
C2525 C 0.20987 0.42131 0.04275 0.0
C2526 C 0.18846 0.45308 0.05574 0.0
C2527 C 0.16961 0.444 0.03779 0.0
C2528 C 0.171 0.42341 0.02254 0.0
C2529 C 0.19074 0.41206 0.02518 0.0
C2530 C 0.11842 0.47147 0.01026 0.0
C2531 C 0.10406 0.47136 0.02995 0.0
C2532 C 0.14003 0.46304 0.0129 0.0
C2533 C 0.14796 0.45509 0.03552 0.0
C2534 C 0.13407 0.45604 0.0555 0.0
C2535 C 0.11223 0.46374 0.05263 0.0
H2536 H 0.84082 0.94044 0.23011 0.0
H2537 H 0.88118 0.92493 0.29558 0.0
H2538 H 0.81476 0.90202 0.23007 0.0
H2539 H 0.85521 0.88736 0.29585 0.0
H2540 H 0.83073 0.81106 0.26958 0.0
H2541 H 0.85133 0.85095 0.26783 0.0
H2542 H 0.78513 0.87606 0.25417 0.0
H2543 H 0.76406 0.83539 0.25573 0.0
C2544 C 0.8439 0.92905 0.24466 0.0
C2545 C 0.86337 0.93546 0.26252 0.0
C2546 C 0.82896 0.90712 0.24468 0.0
C2547 C 0.83325 0.89142 0.26264 0.0
C2548 C 0.85181 0.8987 0.28133 0.0
C2549 C 0.8667 0.92029 0.28119 0.0
C2550 C 0.82039 0.82495 0.26614 0.0
C2551 C 0.79566 0.81999 0.26314 0.0
C2552 C 0.83227 0.84793 0.26523 0.0
C2553 C 0.81988 0.86681 0.26137 0.0
C2554 C 0.79516 0.86187 0.25726 0.0
C2555 C 0.78312 0.83862 0.25819 0.0
H2556 H 0.68684 0.05956 0.75432 0.0
H2557 H 0.62743 0.09245 0.77386 0.0
H2558 H 0.70992 0.09908 0.7524 0.0
H2559 H 0.65033 0.13123 0.77249 0.0
H2560 H 0.68481 0.19813 0.75101 0.0
H2561 H 0.66633 0.15666 0.74316 0.0
H2562 H 0.72796 0.13509 0.77948 0.0
H2563 H 0.74689 0.17682 0.78615 0.0
C2564 C 0.67869 0.07512 0.75818 0.0
C2565 C 0.65518 0.07274 0.76405 0.0
C2566 C 0.69193 0.09773 0.75713 0.0
C2567 C 0.68185 0.11832 0.76183 0.0
C2568 C 0.65849 0.11581 0.768 0.0
C2569 C 0.64536 0.09342 0.76902 0.0
C2570 C 0.69464 0.18443 0.75657 0.0
C2571 C 0.71714 0.19051 0.76921 0.0
C2572 C 0.68402 0.16071 0.75234 0.0
C2573 C 0.6954 0.1426 0.76132 0.0
C2574 C 0.71872 0.14858 0.7723 0.0
C2575 C 0.72958 0.17243 0.77609 0.0
loop_
_geom_bond_atom_site_label_1
_geom_bond_atom_site_label_2
_geom_bond_distance
_geom_bond_site_symmetry_2
_ccdc_geom_bond_type
Co0 O1 2.216 . S
Co0 O2 2.091 . S
Co0 O4 2.004 1_455 S
Co0 O10 2.021 . S
Co0 O12 2.137 . S
Co0 O13 2.244 . S
O1 Co0 2.216 . S
O1 C8 1.247 . S
O2 Co0 2.091 . S
O2 C8 1.261 . S
C3 O12 1.247 . S
C3 O13 1.272 . S
O4 Co0 2.004 1_655 S
O4 C9 1.259 . S
Co5 O6 2.061 . S
Co5 O11 2.052 1_655 S
Co5 O13 2.135 1_655 S
O6 Co5 2.061 . S
O6 C9 1.235 . S
C7 O10 1.238 . S
C7 O11 1.241 . S
C8 O1 1.247 . S
C8 O2 1.261 . S
C9 O4 1.259 . S
C9 O6 1.235 . S
O10 Co0 2.021 . S
O10 C7 1.238 . S
O11 Co5 2.052 1_455 S
O11 C7 1.241 . S
O12 Co0 2.137 . S
O12 C3 1.247 . S
O13 Co0 2.244 . S
O13 C3 1.272 . S
O13 Co5 2.135 1_455 S
Co14 O15 2.216 1_455 S
Co14 O16 2.091 1_455 S
Co14 O18 2.004 . S
Co14 O24 2.021 . S
Co14 O26 2.137 . S
Co14 O27 2.244 . S
O15 Co14 2.216 1_655 S
O15 C22 1.247 . S
O16 Co14 2.091 1_655 S
O16 C22 1.261 . S
C17 O26 1.247 . S
C17 O27 1.272 . S
O18 Co14 2.004 . S
O18 C23 1.259 . S
Co19 O20 2.061 . S
Co19 O25 2.052 . S
Co19 O27 2.135 . S
O20 Co19 2.061 . S
O20 C23 1.235 . S
C21 O24 1.238 . S
C21 O25 1.241 . S
C22 O15 1.247 . S
C22 O16 1.261 . S
C23 O18 1.259 . S
C23 O20 1.235 . S
O24 Co14 2.021 . S
O24 C21 1.238 . S
O25 Co19 2.052 . S
O25 C21 1.241 . S
O26 Co14 2.137 . S
O26 C17 1.247 . S
O27 Co14 2.244 . S
O27 C17 1.272 . S
O27 Co19 2.135 . S
Co28 O29 2.216 . S
Co28 O30 2.091 . S
Co28 O32 2.004 . S
Co28 O38 2.021 . S
Co28 O40 2.137 . S
Co28 O41 2.244 . S
O29 Co28 2.216 . S
O29 C36 1.247 . S
O30 Co28 2.091 . S
O30 C36 1.261 . S
C31 O40 1.247 . S
C31 O41 1.272 . S
O32 Co28 2.004 . S
O32 C37 1.259 . S
Co33 O34 2.061 . S
Co33 O39 2.052 . S
Co33 O41 2.135 . S
O34 Co33 2.061 . S
O34 C37 1.235 . S
C35 O38 1.238 . S
C35 O39 1.241 . S
C36 O29 1.247 . S
C36 O30 1.261 . S
C37 O32 1.259 . S
C37 O34 1.235 . S
O38 Co28 2.021 . S
O38 C35 1.238 . S
O39 Co33 2.052 . S
O39 C35 1.241 . S
O40 Co28 2.137 . S
O40 C31 1.247 . S
O41 Co28 2.244 . S
O41 C31 1.272 . S
O41 Co33 2.135 . S
Co42 O43 2.216 . S
Co42 O44 2.091 . S
Co42 O46 2.004 . S
Co42 O52 2.021 . S
Co42 O54 2.137 . S
Co42 O55 2.244 . S
O43 Co42 2.216 . S
O43 C50 1.247 . S
O44 Co42 2.091 . S
O44 C50 1.261 . S
C45 O54 1.247 . S
C45 O55 1.272 . S
O46 Co42 2.004 . S
O46 C51 1.259 . S
Co47 O48 2.061 . S
Co47 O53 2.052 . S
Co47 O55 2.135 . S
O48 Co47 2.061 . S
O48 C51 1.235 . S
C49 O52 1.238 . S
C49 O53 1.241 . S
C50 O43 1.247 . S
C50 O44 1.261 . S
C51 O46 1.259 . S
C51 O48 1.235 . S
O52 Co42 2.021 . S
O52 C49 1.238 . S
O53 Co47 2.052 . S
O53 C49 1.241 . S
O54 Co42 2.137 . S
O54 C45 1.247 . S
O55 Co42 2.244 . S
O55 C45 1.272 . S
O55 Co47 2.135 . S
Co56 O57 2.216 1_455 S
Co56 O58 2.091 . S
Co56 O60 2.004 . S
Co56 O66 2.021 . S
Co56 O68 2.137 . S
Co56 O69 2.244 . S
O57 Co56 2.216 1_655 S
O57 C64 1.247 . S
O58 Co56 2.091 . S
O58 C64 1.261 1_455 S
C59 O68 1.247 . S
C59 O69 1.272 . S
O60 Co56 2.004 . S
O60 C65 1.259 . S
Co61 O62 2.061 . S
Co61 O67 2.052 . S
Co61 O69 2.135 . S
O62 Co61 2.061 . S
O62 C65 1.235 . S
C63 O66 1.238 . S
C63 O67 1.241 . S
C64 O57 1.247 . S
C64 O58 1.261 1_655 S
C65 O60 1.259 . S
C65 O62 1.235 . S
O66 Co56 2.021 . S
O66 C63 1.238 . S
O67 Co61 2.052 . S
O67 C63 1.241 . S
O68 Co56 2.137 . S
O68 C59 1.247 . S
O69 Co56 2.244 . S
O69 C59 1.272 . S
O69 Co61 2.135 . S
Co70 O71 2.216 . S
Co70 O72 2.091 . S
Co70 O74 2.004 . S
Co70 O80 2.021 . S
Co70 O82 2.137 . S
Co70 O83 2.244 . S
O71 Co70 2.216 . S
O71 C78 1.247 . S
O72 Co70 2.091 . S
O72 C78 1.261 . S
C73 O82 1.247 . S
C73 O83 1.272 . S
O74 Co70 2.004 . S
O74 C79 1.259 . S
Co75 O76 2.061 . S
Co75 O81 2.052 . S
Co75 O83 2.135 . S
O76 Co75 2.061 . S
O76 C79 1.235 . S
C77 O80 1.238 . S
C77 O81 1.241 . S
C78 O71 1.247 . S
C78 O72 1.261 . S
C79 O74 1.259 . S
C79 O76 1.235 . S
O80 Co70 2.021 . S
O80 C77 1.238 . S
O81 Co75 2.052 . S
O81 C77 1.241 . S
O82 Co70 2.137 . S
O82 C73 1.247 . S
O83 Co70 2.244 . S
O83 C73 1.272 . S
O83 Co75 2.135 . S
Co84 O85 2.216 . S
Co84 O86 2.091 . S
Co84 O88 2.004 . S
Co84 O94 2.021 . S
Co84 O96 2.137 . S
Co84 O97 2.244 . S
O85 Co84 2.216 . S
O85 C92 1.247 . S
O86 Co84 2.091 . S
O86 C92 1.261 . S
C87 O96 1.247 . S
C87 O97 1.272 . S
O88 Co84 2.004 . S
O88 C93 1.259 . S
Co89 O90 2.061 . S
Co89 O95 2.052 . S
Co89 O97 2.135 . S
O90 Co89 2.061 . S
O90 C93 1.235 . S
C91 O94 1.238 . S
C91 O95 1.241 . S
C92 O85 1.247 . S
C92 O86 1.261 . S
C93 O88 1.259 . S
C93 O90 1.235 . S
O94 Co84 2.021 . S
O94 C91 1.238 . S
O95 Co89 2.052 . S
O95 C91 1.241 . S
O96 Co84 2.137 . S
O96 C87 1.247 . S
O97 Co84 2.244 . S
O97 C87 1.272 . S
O97 Co89 2.135 . S
Co98 O99 2.216 . S
Co98 O100 2.091 . S
Co98 O102 2.004 1_455 S
Co98 O108 2.021 . S
Co98 O110 2.137 . S
Co98 O111 2.244 1_455 S
O99 Co98 2.216 . S
O99 C106 1.247 . S
O100 Co98 2.091 . S
O100 C106 1.261 . S
C101 O110 1.247 . S
C101 O111 1.272 1_455 S
O102 Co98 2.004 1_655 S
O102 C107 1.259 . S
Co103 O104 2.061 . S
Co103 O109 2.052 . S
Co103 O111 2.135 . S
O104 Co103 2.061 . S
O104 C107 1.235 . S
C105 O108 1.235 1_655 S
C105 O109 1.241 . S
C106 O99 1.247 . S
C106 O100 1.261 . S
C107 O102 1.259 . S
C107 O104 1.235 . S
O108 Co98 2.021 . S
O108 C105 1.235 1_455 S
O109 Co103 2.052 . S
O109 C105 1.241 . S
O110 Co98 2.137 . S
O110 C101 1.247 . S
O111 Co98 2.244 1_655 S
O111 C101 1.272 1_655 S
O111 Co103 2.135 . S
Co112 O113 2.216 . S
Co112 O114 2.091 . S
Co112 O116 2.004 1_545 S
Co112 O122 2.021 . S
Co112 O124 2.137 . S
Co112 O125 2.244 . S
O113 Co112 2.216 . S
O113 C120 1.247 . S
O114 Co112 2.091 . S
O114 C120 1.261 . S
C115 O124 1.247 . S
C115 O125 1.272 . S
O116 Co112 2.004 1_565 S
O116 C121 1.259 . S
Co117 O118 2.061 . S
Co117 O123 2.052 1_565 S
Co117 O125 2.135 1_565 S
O118 Co117 2.061 . S
O118 C121 1.235 . S
C119 O122 1.238 . S
C119 O123 1.241 . S
C120 O113 1.247 . S
C120 O114 1.261 . S
C121 O116 1.259 . S
C121 O118 1.235 . S
O122 Co112 2.021 . S
O122 C119 1.238 . S
O123 Co117 2.052 1_545 S
O123 C119 1.241 . S
O124 Co112 2.137 . S
O124 C115 1.247 . S
O125 Co112 2.244 . S
O125 C115 1.272 . S
O125 Co117 2.135 1_545 S
Co126 O127 2.216 . S
Co126 O128 2.091 . S
Co126 O130 2.004 . S
Co126 O136 2.021 . S
Co126 O138 2.137 . S
Co126 O139 2.244 . S
O127 Co126 2.216 . S
O127 C134 1.247 . S
O128 Co126 2.091 . S
O128 C134 1.261 . S
C129 O138 1.247 . S
C129 O139 1.272 . S
O130 Co126 2.004 . S
O130 C135 1.259 . S
Co131 O132 2.061 . S
Co131 O137 2.052 . S
Co131 O139 2.135 . S
O132 Co131 2.061 . S
O132 C135 1.235 . S
C133 O136 1.238 . S
C133 O137 1.241 . S
C134 O127 1.247 . S
C134 O128 1.261 . S
C135 O130 1.259 . S
C135 O132 1.235 . S
O136 Co126 2.021 . S
O136 C133 1.238 . S
O137 Co131 2.052 . S
O137 C133 1.241 . S
O138 Co126 2.137 . S
O138 C129 1.247 . S
O139 Co126 2.244 . S
O139 C129 1.272 . S
O139 Co131 2.135 . S
Co140 O141 2.216 1_545 S
Co140 O142 2.091 1_545 S
Co140 O144 2.004 . S
Co140 O150 2.021 . S
Co140 O152 2.137 . S
Co140 O153 2.244 . S
O141 Co140 2.216 1_565 S
O141 C148 1.247 . S
O142 Co140 2.091 1_565 S
O142 C148 1.261 . S
C143 O152 1.247 . S
C143 O153 1.272 . S
O144 Co140 2.004 . S
O144 C149 1.259 . S
Co145 O146 2.061 . S
Co145 O151 2.052 . S
Co145 O153 2.135 . S
O146 Co145 2.061 . S
O146 C149 1.235 . S
C147 O150 1.238 . S
C147 O151 1.241 . S
C148 O141 1.247 . S
C148 O142 1.261 . S
C149 O144 1.259 . S
C149 O146 1.235 . S
O150 Co140 2.021 . S
O150 C147 1.238 . S
O151 Co145 2.052 . S
O151 C147 1.241 . S
O152 Co140 2.137 . S
O152 C143 1.247 . S
O153 Co140 2.244 . S
O153 C143 1.272 . S
O153 Co145 2.135 . S
Co154 O155 2.216 . S
Co154 O156 2.091 . S
Co154 O158 2.004 . S
Co154 O164 2.021 . S
Co154 O166 2.137 1_554 S
Co154 O167 2.244 1_554 S
O155 Co154 2.216 . S
O155 C162 1.247 . S
O156 Co154 2.091 . S
O156 C162 1.261 . S
C157 O166 1.247 . S
C157 O167 1.272 . S
O158 Co154 2.004 . S
O158 C163 1.259 . S
Co159 O160 2.061 . S
Co159 O165 2.052 . S
Co159 O167 2.135 1_554 S
O160 Co159 2.061 . S
O160 C163 1.235 . S
C161 O164 1.238 . S
C161 O165 1.241 . S
C162 O155 1.247 . S
C162 O156 1.261 . S
C163 O158 1.259 . S
C163 O160 1.235 . S
O164 Co154 2.021 . S
O164 C161 1.238 . S
O165 Co159 2.052 . S
O165 C161 1.241 . S
O166 Co154 2.137 1_556 S
O166 C157 1.247 . S
O167 Co154 2.244 1_556 S
O167 C157 1.272 . S
O167 Co159 2.135 1_556 S
Co168 O169 2.216 . S
Co168 O170 2.091 . S
Co168 O172 2.004 . S
Co168 O178 2.021 . S
Co168 O180 2.137 . S
Co168 O181 2.244 . S
O169 Co168 2.216 . S
O169 C176 1.247 . S
O170 Co168 2.091 . S
O170 C176 1.261 . S
C171 O180 1.247 . S
C171 O181 1.272 . S
O172 Co168 2.004 . S
O172 C177 1.259 . S
Co173 O174 2.061 . S
Co173 O179 2.052 . S
Co173 O181 2.135 . S
O174 Co173 2.061 . S
O174 C177 1.235 . S
C175 O178 1.238 . S
C175 O179 1.241 . S
C176 O169 1.247 . S
C176 O170 1.261 . S
C177 O172 1.259 . S
C177 O174 1.235 . S
O178 Co168 2.021 . S
O178 C175 1.238 . S
O179 Co173 2.052 . S
O179 C175 1.241 . S
O180 Co168 2.137 . S
O180 C171 1.247 . S
O181 Co168 2.244 . S
O181 C171 1.272 . S
O181 Co173 2.135 . S
Co182 O183 2.216 . S
Co182 O184 2.091 . S
Co182 O186 2.004 . S
Co182 O192 2.021 . S
Co182 O194 2.137 1_554 S
Co182 O195 2.244 . S
O183 Co182 2.216 . S
O183 C190 1.247 . S
O184 Co182 2.091 . S
O184 C190 1.261 . S
C185 O194 1.247 . S
C185 O195 1.272 1_556 S
O186 Co182 2.004 . S
O186 C191 1.259 . S
Co187 O188 2.061 . S
Co187 O193 2.052 . S
Co187 O195 2.135 . S
O188 Co187 2.061 . S
O188 C191 1.235 . S
C189 O192 1.238 . S
C189 O193 1.241 . S
C190 O183 1.247 . S
C190 O184 1.261 . S
C191 O186 1.259 . S
C191 O188 1.235 . S
O192 Co182 2.021 . S
O192 C189 1.238 . S
O193 Co187 2.052 . S
O193 C189 1.241 . S
O194 Co182 2.137 1_556 S
O194 C185 1.247 . S
O195 Co182 2.244 . S
O195 C185 1.272 1_554 S
O195 Co187 2.135 . S
Co196 O197 2.216 . S
Co196 O198 2.091 . S
Co196 O200 2.004 . S
Co196 O206 2.021 . S
Co196 O208 2.137 . S
Co196 O209 2.244 . S
O197 Co196 2.216 . S
O197 C204 1.247 . S
O198 Co196 2.091 . S
O198 C204 1.261 . S
C199 O208 1.247 . S
C199 O209 1.272 . S
O200 Co196 2.004 . S
O200 C205 1.259 . S
Co201 O202 2.061 . S
Co201 O207 2.052 . S
Co201 O209 2.135 . S
O202 Co201 2.061 . S
O202 C205 1.235 . S
C203 O206 1.238 . S
C203 O207 1.241 . S
C204 O197 1.247 . S
C204 O198 1.261 . S
C205 O200 1.259 . S
C205 O202 1.235 . S
O206 Co196 2.021 . S
O206 C203 1.238 . S
O207 Co201 2.052 . S
O207 C203 1.241 . S
O208 Co196 2.137 . S
O208 C199 1.247 . S
O209 Co196 2.244 . S
O209 C199 1.272 . S
O209 Co201 2.135 . S
Co210 O211 2.216 . S
Co210 O212 2.091 . S
Co210 O214 2.004 . S
Co210 O220 2.021 . S
Co210 O222 2.137 . S
Co210 O223 2.244 . S
O211 Co210 2.216 . S
O211 C218 1.247 . S
O212 Co210 2.091 . S
O212 C218 1.261 . S
C213 O222 1.247 . S
C213 O223 1.272 . S
O214 Co210 2.004 . S
O214 C219 1.259 . S
Co215 O216 2.061 . S
Co215 O221 2.052 . S
Co215 O223 2.135 . S
O216 Co215 2.061 . S
O216 C219 1.235 . S
C217 O220 1.238 . S
C217 O221 1.241 . S
C218 O211 1.247 . S
C218 O212 1.261 . S
C219 O214 1.259 . S
C219 O216 1.235 . S
O220 Co210 2.021 . S
O220 C217 1.238 . S
O221 Co215 2.052 . S
O221 C217 1.241 . S
O222 Co210 2.137 . S
O222 C213 1.247 . S
O223 Co210 2.244 . S
O223 C213 1.272 . S
O223 Co215 2.135 . S
Co224 O225 2.216 . S
Co224 O226 2.091 . S
Co224 O228 2.004 1_545 S
Co224 O234 2.021 . S
Co224 O236 2.137 . S
Co224 O237 2.244 . S
O225 Co224 2.216 . S
O225 C232 1.247 . S
O226 Co224 2.091 . S
O226 C232 1.261 . S
C227 O236 1.247 . S
C227 O237 1.272 . S
O228 Co224 2.004 1_565 S
O228 C233 1.259 . S
Co229 O230 2.061 . S
Co229 O235 2.052 . S
Co229 O237 2.135 1_565 S
O230 Co229 2.061 . S
O230 C233 1.235 . S
C231 O234 1.238 . S
C231 O235 1.241 1_545 S
C232 O225 1.247 . S
C232 O226 1.261 . S
C233 O228 1.259 . S
C233 O230 1.235 . S
O234 Co224 2.021 . S
O234 C231 1.238 . S
O235 Co229 2.052 . S
O235 C231 1.241 1_565 S
O236 Co224 2.137 . S
O236 C227 1.247 . S
O237 Co224 2.244 . S
O237 C227 1.272 . S
O237 Co229 2.135 1_545 S
Co238 O239 2.216 . S
Co238 O240 2.091 . S
Co238 O242 2.004 . S
Co238 O248 2.021 . S
Co238 O250 2.137 . S
Co238 O251 2.244 . S
O239 Co238 2.216 . S
O239 C246 1.247 . S
O240 Co238 2.091 . S
O240 C246 1.261 . S
C241 O250 1.247 . S
C241 O251 1.272 . S
O242 Co238 2.004 . S
O242 C247 1.259 . S
Co243 O244 2.061 . S
Co243 O249 2.052 . S
Co243 O251 2.135 . S
O244 Co243 2.061 . S
O244 C247 1.235 . S
C245 O248 1.238 . S
C245 O249 1.241 . S
C246 O239 1.247 . S
C246 O240 1.261 . S
C247 O242 1.259 . S
C247 O244 1.235 . S
O248 Co238 2.021 . S
O248 C245 1.238 . S
O249 Co243 2.052 . S
O249 C245 1.241 . S
O250 Co238 2.137 . S
O250 C241 1.247 . S
O251 Co238 2.244 . S
O251 C241 1.272 . S
O251 Co243 2.135 . S
Co252 O253 2.216 . S
Co252 O254 2.091 . S
Co252 O256 2.004 . S
Co252 O262 2.021 . S
Co252 O264 2.137 . S
Co252 O265 2.244 . S
O253 Co252 2.216 . S
O253 C260 1.247 . S
O254 Co252 2.091 . S
O254 C260 1.261 . S
C255 O264 1.247 . S
C255 O265 1.272 . S
O256 Co252 2.004 . S
O256 C261 1.259 . S
Co257 O258 2.061 . S
Co257 O263 2.052 . S
Co257 O265 2.135 . S
O258 Co257 2.061 . S
O258 C261 1.235 . S
C259 O262 1.238 . S
C259 O263 1.241 . S
C260 O253 1.247 . S
C260 O254 1.261 . S
C261 O256 1.259 . S
C261 O258 1.235 . S
O262 Co252 2.021 . S
O262 C259 1.238 . S
O263 Co257 2.052 . S
O263 C259 1.241 . S
O264 Co252 2.137 . S
O264 C255 1.247 . S
O265 Co252 2.244 . S
O265 C255 1.272 . S
O265 Co257 2.135 . S
Co266 O267 2.216 . S
Co266 O268 2.091 . S
Co266 O270 2.004 1_565 S
Co266 O276 2.021 . S
Co266 O278 2.137 . S
Co266 O279 2.244 1_565 S
O267 Co266 2.216 . S
O267 C274 1.247 . S
O268 Co266 2.091 . S
O268 C274 1.261 . S
C269 O278 1.234 1_545 S
C269 O279 1.283 . S
O270 Co266 2.004 1_545 S
O270 C275 1.259 . S
Co271 O272 2.061 . S
Co271 O277 2.052 . S
Co271 O279 2.135 . S
O272 Co271 2.061 . S
O272 C275 1.235 . S
C273 O276 1.237 . S
C273 O277 1.243 1_565 S
C274 O267 1.247 . S
C274 O268 1.261 . S
C275 O270 1.259 . S
C275 O272 1.235 . S
O276 Co266 2.021 . S
O276 C273 1.237 . S
O277 Co271 2.052 . S
O277 C273 1.243 1_545 S
O278 Co266 2.137 . S
O278 C269 1.234 1_565 S
O279 Co266 2.244 1_545 S
O279 C269 1.283 . S
O279 Co271 2.135 . S
Co280 O281 2.216 . S
Co280 O282 2.093 . S
Co280 O284 2.004 . S
Co280 O290 2.021 1_556 S
Co280 O292 2.137 . S
Co280 O293 2.244 . S
O281 Co280 2.216 . S
O281 C288 1.242 1_556 S
O282 Co280 2.093 . S
O282 C288 1.267 1_556 S
C283 O292 1.247 . S
C283 O293 1.272 . S
O284 Co280 2.004 . S
O284 C289 1.259 . S
Co285 O286 2.065 1_554 S
Co285 O291 2.060 . S
Co285 O293 2.129 1_554 S
O286 Co285 2.065 1_556 S
O286 C289 1.237 . S
C287 O290 1.238 . S
C287 O291 1.241 . S
C288 O281 1.242 1_554 S
C288 O282 1.267 1_554 S
C289 O284 1.259 . S
C289 O286 1.237 . S
O290 Co280 2.021 1_554 S
O290 C287 1.238 . S
O291 Co285 2.060 . S
O291 C287 1.241 . S
O292 Co280 2.137 . S
O292 C283 1.247 . S
O293 Co280 2.244 . S
O293 C283 1.272 . S
O293 Co285 2.129 1_556 S
Co294 O295 2.216 . S
Co294 O296 2.091 . S
Co294 O298 2.004 . S
Co294 O304 2.021 . S
Co294 O306 2.137 . S
Co294 O307 2.244 . S
O295 Co294 2.216 . S
O295 C302 1.247 . S
O296 Co294 2.091 . S
O296 C302 1.261 . S
C297 O306 1.247 . S
C297 O307 1.272 . S
O298 Co294 2.004 . S
O298 C303 1.259 . S
Co299 O300 2.061 . S
Co299 O305 2.052 . S
Co299 O307 2.135 . S
O300 Co299 2.061 . S
O300 C303 1.235 . S
C301 O304 1.238 . S
C301 O305 1.241 . S
C302 O295 1.247 . S
C302 O296 1.261 . S
C303 O298 1.259 . S
C303 O300 1.235 . S
O304 Co294 2.021 . S
O304 C301 1.238 . S
O305 Co299 2.052 . S
O305 C301 1.241 . S
O306 Co294 2.137 . S
O306 C297 1.247 . S
O307 Co294 2.244 . S
O307 C297 1.272 . S
O307 Co299 2.135 . S
Co308 O309 2.216 . S
Co308 O310 2.091 . S
Co308 O312 2.004 . S
Co308 O318 2.021 . S
Co308 O320 2.137 . S
Co308 O321 2.244 . S
O309 Co308 2.216 . S
O309 C316 1.247 . S
O310 Co308 2.091 . S
O310 C316 1.261 . S
C311 O320 1.247 . S
C311 O321 1.272 . S
O312 Co308 2.004 . S
O312 C317 1.259 . S
Co313 O314 2.061 . S
Co313 O319 2.052 . S
Co313 O321 2.135 . S
O314 Co313 2.061 . S
O314 C317 1.235 . S
C315 O318 1.238 . S
C315 O319 1.241 . S
C316 O309 1.247 . S
C316 O310 1.261 . S
C317 O312 1.259 . S
C317 O314 1.235 . S
O318 Co308 2.021 . S
O318 C315 1.238 . S
O319 Co313 2.052 . S
O319 C315 1.241 . S
O320 Co308 2.137 . S
O320 C311 1.247 . S
O321 Co308 2.244 . S
O321 C311 1.272 . S
O321 Co313 2.135 . S
Co322 O323 2.216 . S
Co322 O324 2.091 . S
Co322 O326 2.004 . S
Co322 O332 2.021 . S
Co322 O334 2.137 . S
Co322 O335 2.244 . S
O323 Co322 2.216 . S
O323 C330 1.247 . S
O324 Co322 2.091 . S
O324 C330 1.261 . S
C325 O334 1.247 . S
C325 O335 1.272 . S
O326 Co322 2.004 . S
O326 C331 1.259 . S
Co327 O328 2.061 . S
Co327 O333 2.052 . S
Co327 O335 2.135 . S
O328 Co327 2.061 . S
O328 C331 1.235 . S
C329 O332 1.238 . S
C329 O333 1.241 . S
C330 O323 1.247 . S
C330 O324 1.261 . S
C331 O326 1.259 . S
C331 O328 1.235 . S
O332 Co322 2.021 . S
O332 C329 1.238 . S
O333 Co327 2.052 . S
O333 C329 1.241 . S
O334 Co322 2.137 . S
O334 C325 1.247 . S
O335 Co322 2.244 . S
O335 C325 1.272 . S
O335 Co327 2.135 . S
Zn336 O342 1.969 . S
Zn336 O343 1.965 1_565 S
Zn336 O347 2.024 . S
Zn336 O352 1.969 1_565 S
Zn337 O344 1.969 1_654 S
Zn337 O350 1.969 1_554 S
Zn337 O351 1.965 . S
Zn337 O353 2.024 1_655 S
C338 O339 1.229 . S
C338 O347 1.058 . S
O339 C338 1.229 . S
C340 O341 1.229 1_454 S
C340 O353 1.058 . S
O341 C340 1.229 1_656 S
O342 Zn336 1.969 . S
O342 C345 1.267 . S
O343 Zn336 1.965 1_545 S
O343 C354 1.260 1_554 S
O344 Zn337 1.969 1_456 S
O344 C354 1.258 . S
C345 O342 1.267 . S
C345 O346 1.228 . S
O346 C345 1.228 . S
O347 Zn336 2.024 . S
O347 C338 1.058 . S
C348 O349 1.228 . S
C348 O350 1.267 1_554 S
O349 C348 1.228 . S
O350 Zn337 1.969 1_556 S
O350 C348 1.267 1_556 S
O351 Zn337 1.965 . S
O351 C355 1.260 1_655 S
O352 Zn336 1.969 1_545 S
O352 C355 1.258 . S
O353 Zn337 2.024 1_455 S
O353 C340 1.058 . S
C354 O343 1.260 1_556 S
C354 O344 1.258 . S
C355 O351 1.260 1_455 S
C355 O352 1.258 . S
Zn356 O362 1.969 . S
Zn356 O363 1.965 . S
Zn356 O367 2.024 . S
Zn356 O372 1.969 . S
Zn357 O364 1.969 . S
Zn357 O370 1.969 . S
Zn357 O371 1.965 . S
Zn357 O373 2.024 . S
C358 O359 1.229 . S
C358 O367 1.058 . S
O359 C358 1.229 . S
C360 O361 1.229 . S
C360 O373 1.058 . S
O361 C360 1.229 . S
O362 Zn356 1.969 . S
O362 C365 1.267 . S
O363 Zn356 1.965 . S
O363 C374 1.260 . S
O364 Zn357 1.969 . S
O364 C374 1.258 . S
C365 O362 1.267 . S
C365 O366 1.228 . S
O366 C365 1.228 . S
O367 Zn356 2.024 . S
O367 C358 1.058 . S
C368 O369 1.228 . S
C368 O370 1.267 . S
O369 C368 1.228 . S
O370 Zn357 1.969 . S
O370 C368 1.267 . S
O371 Zn357 1.965 . S
O371 C375 1.260 . S
O372 Zn356 1.969 . S
O372 C375 1.258 . S
O373 Zn357 2.024 . S
O373 C360 1.058 . S
C374 O363 1.260 . S
C374 O364 1.258 . S
C375 O371 1.260 . S
C375 O372 1.258 . S
Zn376 O382 1.969 . S
Zn376 O383 1.965 . S
Zn376 O387 2.024 . S
Zn376 O392 1.969 . S
Zn377 O384 1.969 . S
Zn377 O390 1.969 . S
Zn377 O391 1.965 1_565 S
Zn377 O393 2.024 . S
C378 O379 1.229 . S
C378 O387 1.058 . S
O379 C378 1.229 . S
C380 O381 1.229 . S
C380 O393 1.058 . S
O381 C380 1.229 . S
O382 Zn376 1.969 . S
O382 C385 1.267 . S
O383 Zn376 1.965 . S
O383 C394 1.260 . S
O384 Zn377 1.969 . S
O384 C394 1.258 1_565 S
C385 O382 1.267 . S
C385 O386 1.228 . S
O386 C385 1.228 . S
O387 Zn376 2.024 . S
O387 C378 1.058 . S
C388 O389 1.228 . S
C388 O390 1.267 . S
O389 C388 1.228 . S
O390 Zn377 1.969 . S
O390 C388 1.267 . S
O391 Zn377 1.965 1_545 S
O391 C395 1.260 . S
O392 Zn376 1.969 . S
O392 C395 1.258 . S
O393 Zn377 2.024 . S
O393 C380 1.058 . S
C394 O383 1.260 . S
C394 O384 1.258 1_545 S
C395 O391 1.260 . S
C395 O392 1.258 . S
Zn396 O402 1.969 . S
Zn396 O403 1.965 . S
Zn396 O407 2.024 . S
Zn396 O412 1.969 . S
Zn397 O404 1.969 . S
Zn397 O410 1.969 . S
Zn397 O411 1.965 . S
Zn397 O413 2.024 . S
C398 O399 1.229 . S
C398 O407 1.058 . S
O399 C398 1.229 . S
C400 O401 1.229 . S
C400 O413 1.058 . S
O401 C400 1.229 . S
O402 Zn396 1.969 . S
O402 C405 1.267 . S
O403 Zn396 1.965 . S
O403 C414 1.260 . S
O404 Zn397 1.969 . S
O404 C414 1.258 . S
C405 O402 1.267 . S
C405 O406 1.228 . S
O406 C405 1.228 . S
O407 Zn396 2.024 . S
O407 C398 1.058 . S
C408 O409 1.228 . S
C408 O410 1.267 . S
O409 C408 1.228 . S
O410 Zn397 1.969 . S
O410 C408 1.267 . S
O411 Zn397 1.965 . S
O411 C415 1.260 . S
O412 Zn396 1.969 . S
O412 C415 1.258 . S
O413 Zn397 2.024 . S
O413 C400 1.058 . S
C414 O403 1.260 . S
C414 O404 1.258 . S
C415 O411 1.260 . S
C415 O412 1.258 . S
Zn416 O422 1.969 . S
Zn416 O423 1.965 1_455 S
Zn416 O427 2.024 1_565 S
Zn416 O432 1.969 1_565 S
Zn417 O424 1.969 1_455 S
Zn417 O430 1.969 1_455 S
Zn417 O431 1.965 . S
Zn417 O433 2.024 . S
C418 O419 1.229 1_545 S
C418 O427 1.058 . S
O419 C418 1.229 1_565 S
C420 O421 1.229 . S
C420 O433 1.058 1_655 S
O421 C420 1.229 . S
O422 Zn416 1.969 . S
O422 C425 1.267 . S
O423 Zn416 1.965 1_655 S
O423 C434 1.260 . S
O424 Zn417 1.969 1_655 S
O424 C434 1.258 1_545 S
C425 O422 1.267 . S
C425 O426 1.228 . S
O426 C425 1.228 . S
O427 Zn416 2.024 1_545 S
O427 C418 1.058 . S
C428 O429 1.228 . S
C428 O430 1.267 1_455 S
O429 C428 1.228 . S
O430 Zn417 1.969 1_655 S
O430 C428 1.267 1_655 S
O431 Zn417 1.965 . S
O431 C435 1.260 . S
O432 Zn416 1.969 1_545 S
O432 C435 1.258 . S
O433 Zn417 2.024 . S
O433 C420 1.058 1_455 S
C434 O423 1.260 . S
C434 O424 1.258 1_565 S
C435 O431 1.260 . S
C435 O432 1.258 . S
Zn436 O442 1.969 . S
Zn436 O443 1.965 . S
Zn436 O447 2.024 . S
Zn436 O452 1.969 . S
Zn437 O444 1.969 . S
Zn437 O450 1.969 . S
Zn437 O451 1.965 . S
Zn437 O453 2.024 . S
C438 O439 1.229 . S
C438 O447 1.058 . S
O439 C438 1.229 . S
C440 O441 1.229 . S
C440 O453 1.058 . S
O441 C440 1.229 . S
O442 Zn436 1.969 . S
O442 C445 1.267 . S
O443 Zn436 1.965 . S
O443 C454 1.260 . S
O444 Zn437 1.969 . S
O444 C454 1.258 . S
C445 O442 1.267 . S
C445 O446 1.228 . S
O446 C445 1.228 . S
O447 Zn436 2.024 . S
O447 C438 1.058 . S
C448 O449 1.228 . S
C448 O450 1.267 . S
O449 C448 1.228 . S
O450 Zn437 1.969 . S
O450 C448 1.267 . S
O451 Zn437 1.965 . S
O451 C455 1.260 . S
O452 Zn436 1.969 . S
O452 C455 1.258 . S
O453 Zn437 2.024 . S
O453 C440 1.058 . S
C454 O443 1.260 . S
C454 O444 1.258 . S
C455 O451 1.260 . S
C455 O452 1.258 . S
Zn456 O462 1.969 . S
Zn456 O463 1.965 1_545 S
Zn456 O467 2.024 1_556 S
Zn456 O472 1.969 1_556 S
Zn457 O464 1.994 . S
Zn457 O470 1.981 . S
Zn457 O471 1.940 1_565 S
Zn457 O473 2.015 1_565 S
C458 O459 1.229 . S
C458 O467 1.058 . S
O459 C458 1.229 . S
C460 O461 1.229 . S
C460 O473 1.058 1_565 S
O461 C460 1.229 . S
O462 Zn456 1.969 . S
O462 C465 1.267 . S
O463 Zn456 1.965 1_565 S
O463 C474 1.260 1_556 S
O464 Zn457 1.994 . S
O464 C474 1.258 . S
C465 O462 1.267 . S
C465 O466 1.228 . S
O466 C465 1.228 . S
O467 Zn456 2.024 1_554 S
O467 C458 1.058 . S
C468 O469 1.228 . S
C468 O470 1.267 1_545 S
O469 C468 1.228 . S
O470 Zn457 1.981 . S
O470 C468 1.267 1_565 S
O471 Zn457 1.940 1_545 S
O471 C475 1.260 . S
O472 Zn456 1.969 1_554 S
O472 C475 1.258 . S
O473 Zn457 2.015 1_545 S
O473 C460 1.058 1_545 S
C474 O463 1.260 1_554 S
C474 O464 1.258 . S
C475 O471 1.260 . S
C475 O472 1.258 . S
Zn476 O482 1.969 . S
Zn476 O483 1.965 . S
Zn476 O487 2.024 . S
Zn476 O492 1.969 . S
Zn477 O484 1.969 . S
Zn477 O490 1.969 . S
Zn477 O491 1.965 . S
Zn477 O493 2.024 . S
C478 O479 1.229 . S
C478 O487 1.058 . S
O479 C478 1.229 . S
C480 O481 1.229 . S
C480 O493 1.058 . S
O481 C480 1.229 . S
O482 Zn476 1.969 . S
O482 C485 1.267 . S
O483 Zn476 1.965 . S
O483 C494 1.260 . S
O484 Zn477 1.969 . S
O484 C494 1.258 . S
C485 O482 1.267 . S
C485 O486 1.228 . S
O486 C485 1.228 . S
O487 Zn476 2.024 . S
O487 C478 1.058 . S
C488 O489 1.228 . S
C488 O490 1.267 . S
O489 C488 1.228 . S
O490 Zn477 1.969 . S
O490 C488 1.267 . S
O491 Zn477 1.965 . S
O491 C495 1.260 . S
O492 Zn476 1.969 . S
O492 C495 1.258 . S
O493 Zn477 2.024 . S
O493 C480 1.058 . S
C494 O483 1.260 . S
C494 O484 1.258 . S
C495 O491 1.260 . S
C495 O492 1.258 . S
Zn496 O502 1.969 . S
Zn496 O503 1.965 . S
Zn496 O507 2.024 . S
Zn496 O512 1.969 . S
Zn497 O504 1.969 1_556 S
Zn497 O510 1.969 1_556 S
Zn497 O511 1.965 1_556 S
Zn497 O513 2.024 . S
C498 O499 1.229 . S
C498 O507 1.058 . S
O499 C498 1.229 . S
C500 O501 1.229 . S
C500 O513 1.058 . S
O501 C500 1.229 . S
O502 Zn496 1.969 . S
O502 C505 1.267 . S
O503 Zn496 1.965 . S
O503 C514 1.260 . S
O504 Zn497 1.969 1_554 S
O504 C514 1.258 . S
C505 O502 1.267 . S
C505 O506 1.228 . S
O506 C505 1.228 . S
O507 Zn496 2.024 . S
O507 C498 1.058 . S
C508 O509 1.228 . S
C508 O510 1.267 1_556 S
O509 C508 1.228 . S
O510 Zn497 1.969 1_554 S
O510 C508 1.267 1_554 S
O511 Zn497 1.965 1_554 S
O511 C515 1.260 . S
O512 Zn496 1.969 . S
O512 C515 1.258 . S
O513 Zn497 2.024 . S
O513 C500 1.058 . S
C514 O503 1.260 . S
C514 O504 1.258 . S
C515 O511 1.260 . S
C515 O512 1.258 . S
Zn516 O522 1.969 . S
Zn516 O523 1.965 . S
Zn516 O527 2.024 . S
Zn516 O532 1.969 . S
Zn517 O524 1.969 . S
Zn517 O530 1.969 . S
Zn517 O531 1.965 . S
Zn517 O533 2.024 . S
C518 O519 1.229 . S
C518 O527 1.058 . S
O519 C518 1.229 . S
C520 O521 1.229 . S
C520 O533 1.058 . S
O521 C520 1.229 . S
O522 Zn516 1.969 . S
O522 C525 1.267 . S
O523 Zn516 1.965 . S
O523 C534 1.260 . S
O524 Zn517 1.969 . S
O524 C534 1.258 . S
C525 O522 1.267 . S
C525 O526 1.228 . S
O526 C525 1.228 . S
O527 Zn516 2.024 . S
O527 C518 1.058 . S
C528 O529 1.228 . S
C528 O530 1.267 . S
O529 C528 1.228 . S
O530 Zn517 1.969 . S
O530 C528 1.267 . S
O531 Zn517 1.965 . S
O531 C535 1.260 . S
O532 Zn516 1.969 . S
O532 C535 1.258 . S
O533 Zn517 2.024 . S
O533 C520 1.058 . S
C534 O523 1.260 . S
C534 O524 1.258 . S
C535 O531 1.260 . S
C535 O532 1.258 . S
Zn536 O542 1.969 . S
Zn536 O543 1.965 . S
Zn536 O547 2.024 . S
Zn536 O552 1.969 . S
Zn537 O544 1.969 . S
Zn537 O550 1.969 . S
Zn537 O551 1.965 1_655 S
Zn537 O553 2.024 . S
C538 O539 1.229 . S
C538 O547 1.058 . S
O539 C538 1.229 . S
C540 O541 1.229 . S
C540 O553 1.058 . S
O541 C540 1.229 . S
O542 Zn536 1.969 . S
O542 C545 1.267 . S
O543 Zn536 1.965 . S
O543 C554 1.260 . S
O544 Zn537 1.969 . S
O544 C554 1.258 1_655 S
C545 O542 1.267 . S
C545 O546 1.228 . S
O546 C545 1.228 . S
O547 Zn536 2.024 . S
O547 C538 1.058 . S
C548 O549 1.228 . S
C548 O550 1.267 . S
O549 C548 1.228 . S
O550 Zn537 1.969 . S
O550 C548 1.267 . S
O551 Zn537 1.965 1_455 S
O551 C555 1.260 . S
O552 Zn536 1.969 . S
O552 C555 1.258 . S
O553 Zn537 2.024 . S
O553 C540 1.058 . S
C554 O543 1.260 . S
C554 O544 1.258 1_455 S
C555 O551 1.260 . S
C555 O552 1.258 . S
Zn556 O562 1.969 . S
Zn556 O563 1.965 . S
Zn556 O567 2.024 . S
Zn556 O572 1.969 . S
Zn557 O564 1.969 . S
Zn557 O570 1.969 . S
Zn557 O571 1.965 . S
Zn557 O573 2.024 . S
C558 O559 1.229 . S
C558 O567 1.058 . S
O559 C558 1.229 . S
C560 O561 1.229 . S
C560 O573 1.058 . S
O561 C560 1.229 . S
O562 Zn556 1.969 . S
O562 C565 1.267 . S
O563 Zn556 1.965 . S
O563 C574 1.260 . S
O564 Zn557 1.969 . S
O564 C574 1.258 . S
C565 O562 1.267 . S
C565 O566 1.228 . S
O566 C565 1.228 . S
O567 Zn556 2.024 . S
O567 C558 1.058 . S
C568 O569 1.228 . S
C568 O570 1.267 . S
O569 C568 1.228 . S
O570 Zn557 1.969 . S
O570 C568 1.267 . S
O571 Zn557 1.965 . S
O571 C575 1.260 . S
O572 Zn556 1.969 . S
O572 C575 1.258 . S
O573 Zn557 2.024 . S
O573 C560 1.058 . S
C574 O563 1.260 . S
C574 O564 1.258 . S
C575 O571 1.260 . S
C575 O572 1.258 . S
Zn576 O582 1.969 . S
Zn576 O583 1.965 . S
Zn576 O587 2.024 . S
Zn576 O592 1.969 . S
Zn577 O584 1.969 . S
Zn577 O590 1.969 . S
Zn577 O591 1.965 . S
Zn577 O593 2.024 . S
C578 O579 1.229 . S
C578 O587 1.058 . S
O579 C578 1.229 . S
C580 O581 1.229 . S
C580 O593 1.058 . S
O581 C580 1.229 . S
O582 Zn576 1.969 . S
O582 C585 1.267 . S
O583 Zn576 1.965 . S
O583 C594 1.260 . S
O584 Zn577 1.969 . S
O584 C594 1.258 . S
C585 O582 1.267 . S
C585 O586 1.228 . S
O586 C585 1.228 . S
O587 Zn576 2.024 . S
O587 C578 1.058 . S
C588 O589 1.228 . S
C588 O590 1.267 . S
O589 C588 1.228 . S
O590 Zn577 1.969 . S
O590 C588 1.267 . S
O591 Zn577 1.965 . S
O591 C595 1.260 . S
O592 Zn576 1.969 . S
O592 C595 1.258 . S
O593 Zn577 2.024 . S
O593 C580 1.058 . S
C594 O583 1.260 . S
C594 O584 1.258 . S
C595 O591 1.260 . S
C595 O592 1.258 . S
Zn596 O602 1.969 . S
Zn596 O603 1.965 . S
Zn596 O607 2.024 . S
Zn596 O612 1.969 . S
Zn597 O604 1.969 . S
Zn597 O610 1.969 . S
Zn597 O611 1.965 . S
Zn597 O613 2.024 . S
C598 O599 1.229 . S
C598 O607 1.058 . S
O599 C598 1.229 . S
C600 O601 1.229 . S
C600 O613 1.058 . S
O601 C600 1.229 . S
O602 Zn596 1.969 . S
O602 C605 1.267 . S
O603 Zn596 1.965 . S
O603 C614 1.260 . S
O604 Zn597 1.969 . S
O604 C614 1.258 . S
C605 O602 1.267 . S
C605 O606 1.228 . S
O606 C605 1.228 . S
O607 Zn596 2.024 . S
O607 C598 1.058 . S
C608 O609 1.228 . S
C608 O610 1.267 . S
O609 C608 1.228 . S
O610 Zn597 1.969 . S
O610 C608 1.267 . S
O611 Zn597 1.965 . S
O611 C615 1.260 . S
O612 Zn596 1.969 . S
O612 C615 1.258 . S
O613 Zn597 2.024 . S
O613 C600 1.058 . S
C614 O603 1.260 . S
C614 O604 1.258 . S
C615 O611 1.260 . S
C615 O612 1.258 . S
Zn616 O622 1.969 . S
Zn616 O623 1.965 . S
Zn616 O627 2.024 . S
Zn616 O632 1.969 . S
Zn617 O624 1.969 . S
Zn617 O630 1.969 . S
Zn617 O631 1.965 . S
Zn617 O633 2.024 . S
C618 O619 1.229 . S
C618 O627 1.058 . S
O619 C618 1.229 . S
C620 O621 1.229 . S
C620 O633 1.058 . S
O621 C620 1.229 . S
O622 Zn616 1.969 . S
O622 C625 1.267 . S
O623 Zn616 1.965 . S
O623 C634 1.260 . S
O624 Zn617 1.969 . S
O624 C634 1.258 . S
C625 O622 1.267 . S
C625 O626 1.228 . S
O626 C625 1.228 . S
O627 Zn616 2.024 . S
O627 C618 1.058 . S
C628 O629 1.228 . S
C628 O630 1.267 . S
O629 C628 1.228 . S
O630 Zn617 1.969 . S
O630 C628 1.267 . S
O631 Zn617 1.965 . S
O631 C635 1.260 . S
O632 Zn616 1.969 . S
O632 C635 1.258 . S
O633 Zn617 2.024 . S
O633 C620 1.058 . S
C634 O623 1.260 . S
C634 O624 1.258 . S
C635 O631 1.260 . S
C635 O632 1.258 . S
Zn636 O642 1.969 . S
Zn636 O643 1.965 . S
Zn636 O647 2.024 1_655 S
Zn636 O652 1.969 1_655 S
Zn637 O644 1.969 1_554 S
Zn637 O650 1.969 . S
Zn637 O651 1.965 . S
Zn637 O653 2.024 . S
C638 O639 1.229 1_455 S
C638 O647 1.058 . S
O639 C638 1.229 1_655 S
C640 O641 1.229 1_554 S
C640 O653 1.058 . S
O641 C640 1.229 1_556 S
O642 Zn636 1.969 . S
O642 C645 1.267 . S
O643 Zn636 1.965 . S
O643 C654 1.260 1_654 S
O644 Zn637 1.969 1_556 S
O644 C654 1.258 . S
C645 O642 1.267 . S
C645 O646 1.228 . S
O646 C645 1.228 . S
O647 Zn636 2.024 1_455 S
O647 C638 1.058 . S
C648 O649 1.228 . S
C648 O650 1.267 . S
O649 C648 1.228 . S
O650 Zn637 1.969 . S
O650 C648 1.267 . S
O651 Zn637 1.965 . S
O651 C655 1.260 . S
O652 Zn636 1.969 1_455 S
O652 C655 1.258 . S
O653 Zn637 2.024 . S
O653 C640 1.058 . S
C654 O643 1.260 1_456 S
C654 O644 1.258 . S
C655 O651 1.260 . S
C655 O652 1.258 . S
H656 C664 0.950 . S
H657 C669 0.950 . S
H658 C666 0.950 . S
H659 C668 0.950 . S
H660 C670 0.950 . S
H661 C672 0.950 1_655 S
H662 C674 0.950 1_554 S
H663 C675 0.950 . S
C664 H656 0.950 . S
C664 C665 1.386 1_455 S
C664 C666 1.391 . S
C665 C664 1.386 1_655 S
C665 C669 1.393 . S
C666 H658 0.950 . S
C666 C664 1.391 . S
C666 C667 1.400 . S
C667 C666 1.400 . S
C667 C668 1.398 1_455 S
C667 C673 1.491 . S
C668 H659 0.950 . S
C668 C667 1.398 1_655 S
C668 C669 1.391 . S
C669 H657 0.950 . S
C669 C665 1.393 . S
C669 C668 1.391 . S
C670 H660 0.950 . S
C670 C671 1.386 1_556 S
C670 C672 1.391 . S
C671 C670 1.386 1_554 S
C671 C675 1.393 . S
C672 H661 0.950 1_455 S
C672 C670 1.391 . S
C672 C673 1.400 . S
C673 C667 1.491 . S
C673 C672 1.400 . S
C673 C674 1.398 . S
C674 H662 0.950 1_556 S
C674 C673 1.398 . S
C674 C675 1.391 1_556 S
C675 H663 0.950 . S
C675 C671 1.393 . S
C675 C674 1.391 1_554 S
H676 C684 0.950 . S
H677 C689 0.950 . S
H678 C686 0.950 . S
H679 C688 0.950 . S
H680 C690 0.950 . S
H681 C692 0.950 . S
H682 C694 0.950 . S
H683 C695 0.950 . S
C684 H676 0.950 . S
C684 C685 1.386 . S
C684 C686 1.391 . S
C685 C684 1.386 . S
C685 C689 1.393 . S
C686 H678 0.950 . S
C686 C684 1.391 . S
C686 C687 1.400 . S
C687 C686 1.400 . S
C687 C688 1.398 . S
C687 C693 1.491 . S
C688 H679 0.950 . S
C688 C687 1.398 . S
C688 C689 1.391 . S
C689 H677 0.950 . S
C689 C685 1.393 . S
C689 C688 1.391 . S
C690 H680 0.950 . S
C690 C691 1.386 . S
C690 C692 1.391 . S
C691 C690 1.386 . S
C691 C695 1.393 . S
C692 H681 0.950 . S
C692 C690 1.391 . S
C692 C693 1.400 . S
C693 C687 1.491 . S
C693 C692 1.400 . S
C693 C694 1.398 . S
C694 H682 0.950 . S
C694 C693 1.398 . S
C694 C695 1.391 . S
C695 H683 0.950 . S
C695 C691 1.393 . S
C695 C694 1.391 . S
H696 C704 0.950 . S
H697 C709 0.950 . S
H698 C706 0.950 . S
H699 C708 0.950 . S
H700 C710 0.950 . S
H701 C712 0.950 . S
H702 C714 0.950 . S
H703 C715 0.950 . S
C704 H696 0.950 . S
C704 C705 1.386 . S
C704 C706 1.391 . S
C705 C704 1.386 . S
C705 C709 1.393 . S
C706 H698 0.950 . S
C706 C704 1.391 . S
C706 C707 1.400 . S
C707 C706 1.400 . S
C707 C708 1.398 . S
C707 C713 1.491 . S
C708 H699 0.950 . S
C708 C707 1.398 . S
C708 C709 1.391 . S
C709 H697 0.950 . S
C709 C705 1.393 . S
C709 C708 1.391 . S
C710 H700 0.950 . S
C710 C711 1.386 . S
C710 C712 1.391 . S
C711 C710 1.386 . S
C711 C715 1.393 . S
C712 H701 0.950 . S
C712 C710 1.391 . S
C712 C713 1.400 . S
C713 C707 1.491 . S
C713 C712 1.400 . S
C713 C714 1.398 . S
C714 H702 0.950 . S
C714 C713 1.398 . S
C714 C715 1.391 . S
C715 H703 0.950 . S
C715 C711 1.393 . S
C715 C714 1.391 . S
H716 C724 0.950 . S
H717 C729 0.950 . S
H718 C726 0.950 . S
H719 C728 0.950 . S
H720 C730 0.950 . S
H721 C732 0.950 . S
H722 C734 0.950 . S
H723 C735 0.950 . S
C724 H716 0.950 . S
C724 C725 1.386 . S
C724 C726 1.391 . S
C725 C724 1.386 . S
C725 C729 1.393 . S
C726 H718 0.950 . S
C726 C724 1.391 . S
C726 C727 1.400 . S
C727 C726 1.400 . S
C727 C728 1.398 . S
C727 C733 1.491 . S
C728 H719 0.950 . S
C728 C727 1.398 . S
C728 C729 1.391 . S
C729 H717 0.950 . S
C729 C725 1.393 . S
C729 C728 1.391 . S
C730 H720 0.950 . S
C730 C731 1.386 . S
C730 C732 1.391 . S
C731 C730 1.386 . S
C731 C735 1.393 . S
C732 H721 0.950 . S
C732 C730 1.391 . S
C732 C733 1.400 . S
C733 C727 1.491 . S
C733 C732 1.400 . S
C733 C734 1.398 . S
C734 H722 0.950 . S
C734 C733 1.398 . S
C734 C735 1.391 . S
C735 H723 0.950 . S
C735 C731 1.393 . S
C735 C734 1.391 . S
H736 C744 0.950 1_655 S
H737 C749 0.950 . S
H738 C746 0.950 1_655 S
H739 C748 0.950 . S
H740 C750 0.950 . S
H741 C752 0.950 . S
H742 C754 0.950 1_655 S
H743 C755 0.969 . S
C744 H736 0.950 1_455 S
C744 C745 1.386 . S
C744 C746 1.391 . S
C745 C744 1.386 . S
C745 C749 1.393 . S
C746 H738 0.950 1_455 S
C746 C744 1.391 . S
C746 C747 1.400 . S
C747 C746 1.400 . S
C747 C748 1.398 . S
C747 C753 1.491 . S
C748 H739 0.950 . S
C748 C747 1.398 . S
C748 C749 1.391 . S
C749 H737 0.950 . S
C749 C745 1.393 . S
C749 C748 1.391 . S
C750 H740 0.950 . S
C750 C751 1.386 . S
C750 C752 1.391 . S
C751 C750 1.386 . S
C751 C755 1.393 . S
C752 H741 0.950 . S
C752 C750 1.391 . S
C752 C753 1.400 . S
C753 C747 1.491 . S
C753 C752 1.400 . S
C753 C754 1.398 . S
C754 H742 0.950 1_455 S
C754 C753 1.398 . S
C754 C755 1.391 . S
C755 H743 0.969 . S
C755 C751 1.393 . S
C755 C754 1.391 . S
H756 C764 0.950 . S
H757 C769 0.950 . S
H758 C766 0.950 . S
H759 C768 0.950 . S
H760 C770 0.950 . S
H761 C772 0.950 . S
H762 C774 0.950 . S
H763 C775 0.950 . S
C764 H756 0.950 . S
C764 C765 1.386 . S
C764 C766 1.391 . S
C765 C764 1.386 . S
C765 C769 1.393 . S
C766 H758 0.950 . S
C766 C764 1.391 . S
C766 C767 1.400 . S
C767 C766 1.400 . S
C767 C768 1.398 . S
C767 C773 1.491 . S
C768 H759 0.950 . S
C768 C767 1.398 . S
C768 C769 1.391 . S
C769 H757 0.950 . S
C769 C765 1.393 . S
C769 C768 1.391 . S
C770 H760 0.950 . S
C770 C771 1.386 . S
C770 C772 1.391 . S
C771 C770 1.386 . S
C771 C775 1.393 . S
C772 H761 0.950 . S
C772 C770 1.391 . S
C772 C773 1.400 . S
C773 C767 1.491 . S
C773 C772 1.400 . S
C773 C774 1.398 . S
C774 H762 0.950 . S
C774 C773 1.398 . S
C774 C775 1.391 . S
C775 H763 0.950 . S
C775 C771 1.393 . S
C775 C774 1.391 . S
H776 C784 0.950 . S
H777 C789 0.950 . S
H778 C786 0.950 . S
H779 C788 0.950 . S
H780 C790 0.950 . S
H781 C792 0.950 . S
H782 C794 0.950 . S
H783 C795 0.950 . S
C784 H776 0.950 . S
C784 C785 1.386 . S
C784 C786 1.391 . S
C785 C784 1.386 . S
C785 C789 1.393 . S
C786 H778 0.950 . S
C786 C784 1.391 . S
C786 C787 1.400 . S
C787 C786 1.400 . S
C787 C788 1.398 . S
C787 C793 1.491 . S
C788 H779 0.950 . S
C788 C787 1.398 . S
C788 C789 1.391 . S
C789 H777 0.950 . S
C789 C785 1.393 . S
C789 C788 1.391 . S
C790 H780 0.950 . S
C790 C791 1.386 . S
C790 C792 1.391 . S
C791 C790 1.386 . S
C791 C795 1.393 . S
C792 H781 0.950 . S
C792 C790 1.391 . S
C792 C793 1.400 . S
C793 C787 1.491 . S
C793 C792 1.400 . S
C793 C794 1.398 . S
C794 H782 0.950 . S
C794 C793 1.398 . S
C794 C795 1.391 . S
C795 H783 0.950 . S
C795 C791 1.393 . S
C795 C794 1.391 . S
H796 C804 0.950 . S
H797 C809 0.950 . S
H798 C806 0.950 . S
H799 C808 0.950 . S
H800 C810 0.950 . S
H801 C812 0.950 . S
H802 C814 0.950 . S
H803 C815 0.950 . S
C804 H796 0.950 . S
C804 C805 1.386 . S
C804 C806 1.391 . S
C805 C804 1.386 . S
C805 C809 1.393 . S
C806 H798 0.950 . S
C806 C804 1.391 . S
C806 C807 1.400 . S
C807 C806 1.400 . S
C807 C808 1.398 . S
C807 C813 1.491 . S
C808 H799 0.950 . S
C808 C807 1.398 . S
C808 C809 1.391 . S
C809 H797 0.950 . S
C809 C805 1.393 . S
C809 C808 1.391 . S
C810 H800 0.950 . S
C810 C811 1.386 . S
C810 C812 1.391 . S
C811 C810 1.386 . S
C811 C815 1.393 . S
C812 H801 0.950 . S
C812 C810 1.391 . S
C812 C813 1.400 . S
C813 C807 1.491 . S
C813 C812 1.400 . S
C813 C814 1.398 . S
C814 H802 0.950 . S
C814 C813 1.398 . S
C814 C815 1.391 . S
C815 H803 0.950 . S
C815 C811 1.393 . S
C815 C814 1.391 . S
H816 C824 0.950 . S
H817 C829 0.950 . S
H818 C826 0.938 1_565 S
H819 C828 0.950 . S
H820 C830 0.950 . S
H821 C832 0.950 . S
H822 C834 0.950 1_565 S
H823 C835 0.941 1_465 S
C824 H816 0.950 . S
C824 C825 1.386 1_565 S
C824 C826 1.390 1_565 S
C825 C824 1.386 1_545 S
C825 C829 1.393 . S
C826 H818 0.938 1_545 S
C826 C824 1.390 1_545 S
C826 C827 1.413 . S
C827 C826 1.413 . S
C827 C828 1.398 . S
C827 C833 1.491 . S
C828 H819 0.950 . S
C828 C827 1.398 . S
C828 C829 1.391 . S
C829 H817 0.950 . S
C829 C825 1.393 . S
C829 C828 1.391 . S
C830 H820 0.950 . S
C830 C831 1.386 . S
C830 C832 1.391 . S
C831 C830 1.386 . S
C831 C835 1.395 . S
C832 H821 0.950 . S
C832 C830 1.391 . S
C832 C833 1.400 . S
C833 C827 1.491 . S
C833 C832 1.400 . S
C833 C834 1.398 . S
C834 H822 0.950 1_545 S
C834 C833 1.398 . S
C834 C835 1.397 . S
C835 H823 0.941 1_645 S
C835 C831 1.395 . S
C835 C834 1.397 . S
H836 C844 0.950 . S
H837 C849 0.950 . S
H838 C846 0.950 . S
H839 C848 0.950 . S
H840 C850 0.950 . S
H841 C852 0.950 . S
H842 C854 0.950 . S
H843 C855 0.950 . S
C844 H836 0.950 . S
C844 C845 1.386 . S
C844 C846 1.391 . S
C845 C844 1.386 . S
C845 C849 1.393 . S
C846 H838 0.950 . S
C846 C844 1.391 . S
C846 C847 1.400 . S
C847 C846 1.400 . S
C847 C848 1.398 . S
C847 C853 1.491 . S
C848 H839 0.950 . S
C848 C847 1.398 . S
C848 C849 1.391 . S
C849 H837 0.950 . S
C849 C845 1.393 . S
C849 C848 1.391 . S
C850 H840 0.950 . S
C850 C851 1.386 . S
C850 C852 1.391 . S
C851 C850 1.386 . S
C851 C855 1.393 . S
C852 H841 0.950 . S
C852 C850 1.391 . S
C852 C853 1.400 . S
C853 C847 1.491 . S
C853 C852 1.400 . S
C853 C854 1.398 . S
C854 H842 0.950 . S
C854 C853 1.398 . S
C854 C855 1.391 . S
C855 H843 0.950 . S
C855 C851 1.393 . S
C855 C854 1.391 . S
H856 C864 0.950 . S
H857 C869 0.950 . S
H858 C866 0.950 . S
H859 C868 0.950 . S
H860 C870 0.950 . S
H861 C872 0.950 . S
H862 C874 0.950 . S
H863 C875 0.950 . S
C864 H856 0.950 . S
C864 C865 1.386 1_545 S
C864 C866 1.391 . S
C865 C864 1.386 1_565 S
C865 C869 1.393 . S
C866 H858 0.950 . S
C866 C864 1.391 . S
C866 C867 1.400 1_545 S
C867 C866 1.400 1_565 S
C867 C868 1.398 . S
C867 C873 1.501 . S
C868 H859 0.950 . S
C868 C867 1.398 . S
C868 C869 1.391 . S
C869 H857 0.950 . S
C869 C865 1.393 . S
C869 C868 1.391 . S
C870 H860 0.950 . S
C870 C871 1.386 1_565 S
C870 C872 1.391 . S
C871 C870 1.386 1_545 S
C871 C875 1.393 . S
C872 H861 0.950 . S
C872 C870 1.391 . S
C872 C873 1.435 . S
C873 C867 1.501 . S
C873 C872 1.435 . S
C873 C874 1.354 1_565 S
C874 H862 0.950 . S
C874 C873 1.354 1_545 S
C874 C875 1.391 . S
C875 H863 0.950 . S
C875 C871 1.393 . S
C875 C874 1.391 . S
H876 C884 0.950 . S
H877 C889 0.950 . S
H878 C886 0.950 . S
H879 C888 0.950 . S
H880 C890 0.950 . S
H881 C892 0.950 . S
H882 C894 0.950 . S
H883 C895 0.950 . S
C884 H876 0.950 . S
C884 C885 1.386 . S
C884 C886 1.391 . S
C885 C884 1.386 . S
C885 C889 1.393 . S
C886 H878 0.950 . S
C886 C884 1.391 . S
C886 C887 1.400 . S
C887 C886 1.400 . S
C887 C888 1.398 . S
C887 C893 1.491 . S
C888 H879 0.950 . S
C888 C887 1.398 . S
C888 C889 1.391 . S
C889 H877 0.950 . S
C889 C885 1.393 . S
C889 C888 1.391 . S
C890 H880 0.950 . S
C890 C891 1.386 . S
C890 C892 1.391 . S
C891 C890 1.386 . S
C891 C895 1.393 . S
C892 H881 0.950 . S
C892 C890 1.391 . S
C892 C893 1.400 . S
C893 C887 1.491 . S
C893 C892 1.400 . S
C893 C894 1.398 . S
C894 H882 0.950 . S
C894 C893 1.398 . S
C894 C895 1.391 . S
C895 H883 0.950 . S
C895 C891 1.393 . S
C895 C894 1.391 . S
H896 C904 0.950 1_565 S
H897 C909 0.950 . S
H898 C906 0.950 1_565 S
H899 C908 0.950 . S
H900 C910 0.950 1_455 S
H901 C912 0.950 . S
H902 C914 0.950 1_565 S
H903 C915 0.950 1_565 S
C904 H896 0.950 1_545 S
C904 C905 1.386 . S
C904 C906 1.391 . S
C905 C904 1.386 . S
C905 C909 1.393 . S
C906 H898 0.950 1_545 S
C906 C904 1.391 . S
C906 C907 1.400 . S
C907 C906 1.400 . S
C907 C908 1.398 . S
C907 C913 1.491 . S
C908 H899 0.950 . S
C908 C907 1.398 . S
C908 C909 1.391 . S
C909 H897 0.950 . S
C909 C905 1.393 . S
C909 C908 1.391 . S
C910 H900 0.950 1_655 S
C910 C911 1.386 . S
C910 C912 1.391 . S
C911 C910 1.386 . S
C911 C915 1.393 . S
C912 H901 0.950 . S
C912 C910 1.391 . S
C912 C913 1.400 . S
C913 C907 1.491 . S
C913 C912 1.400 . S
C913 C914 1.398 . S
C914 H902 0.950 1_545 S
C914 C913 1.398 . S
C914 C915 1.391 . S
C915 H903 0.950 1_545 S
C915 C911 1.393 . S
C915 C914 1.391 . S
H916 C924 0.950 . S
H917 C929 0.950 . S
H918 C926 0.950 . S
H919 C928 0.950 . S
H920 C930 0.950 . S
H921 C932 0.950 . S
H922 C934 0.950 . S
H923 C935 0.950 . S
C924 H916 0.950 . S
C924 C925 1.386 . S
C924 C926 1.391 . S
C925 C924 1.386 . S
C925 C929 1.393 . S
C926 H918 0.950 . S
C926 C924 1.391 . S
C926 C927 1.400 . S
C927 C926 1.400 . S
C927 C928 1.398 . S
C927 C933 1.491 . S
C928 H919 0.950 . S
C928 C927 1.398 . S
C928 C929 1.391 . S
C929 H917 0.950 . S
C929 C925 1.393 . S
C929 C928 1.391 . S
C930 H920 0.950 . S
C930 C931 1.386 . S
C930 C932 1.391 . S
C931 C930 1.386 . S
C931 C935 1.393 . S
C932 H921 0.950 . S
C932 C930 1.391 . S
C932 C933 1.400 . S
C933 C927 1.491 . S
C933 C932 1.400 . S
C933 C934 1.398 . S
C934 H922 0.950 . S
C934 C933 1.398 . S
C934 C935 1.391 . S
C935 H923 0.950 . S
C935 C931 1.393 . S
C935 C934 1.391 . S
H936 C944 0.950 . S
H937 C949 0.950 . S
H938 C946 0.950 . S
H939 C948 0.950 . S
H940 C950 0.950 . S
H941 C952 0.950 1_565 S
H942 C954 0.950 . S
H943 C955 0.950 . S
C944 H936 0.950 . S
C944 C945 1.386 . S
C944 C946 1.391 . S
C945 C944 1.386 . S
C945 C949 1.393 1_545 S
C946 H938 0.950 . S
C946 C944 1.391 . S
C946 C947 1.400 . S
C947 C946 1.400 . S
C947 C948 1.398 1_545 S
C947 C953 1.491 . S
C948 H939 0.950 . S
C948 C947 1.398 1_565 S
C948 C949 1.391 . S
C949 H937 0.950 . S
C949 C945 1.393 1_565 S
C949 C948 1.391 . S
C950 H940 0.950 . S
C950 C951 1.386 . S
C950 C952 1.391 . S
C951 C950 1.386 . S
C951 C955 1.393 . S
C952 H941 0.950 1_545 S
C952 C950 1.391 . S
C952 C953 1.400 . S
C953 C947 1.491 . S
C953 C952 1.400 . S
C953 C954 1.398 . S
C954 H942 0.950 . S
C954 C953 1.398 . S
C954 C955 1.391 . S
C955 H943 0.950 . S
C955 C951 1.393 . S
C955 C954 1.391 . S
H956 C964 0.950 . S
H957 C969 0.950 . S
H958 C966 0.950 . S
H959 C968 0.950 . S
H960 C970 0.950 . S
H961 C972 0.950 . S
H962 C974 0.950 . S
H963 C975 0.950 . S
C964 H956 0.950 . S
C964 C965 1.386 . S
C964 C966 1.391 . S
C965 C964 1.386 . S
C965 C969 1.393 . S
C966 H958 0.950 . S
C966 C964 1.391 . S
C966 C967 1.400 . S
C967 C966 1.400 . S
C967 C968 1.398 . S
C967 C973 1.491 . S
C968 H959 0.950 . S
C968 C967 1.398 . S
C968 C969 1.391 . S
C969 H957 0.950 . S
C969 C965 1.393 . S
C969 C968 1.391 . S
C970 H960 0.950 . S
C970 C971 1.386 . S
C970 C972 1.391 . S
C971 C970 1.386 . S
C971 C975 1.393 . S
C972 H961 0.950 . S
C972 C970 1.391 . S
C972 C973 1.400 . S
C973 C967 1.491 . S
C973 C972 1.400 . S
C973 C974 1.398 . S
C974 H962 0.950 . S
C974 C973 1.398 . S
C974 C975 1.391 . S
C975 H963 0.950 . S
C975 C971 1.393 . S
C975 C974 1.391 . S
H976 C984 0.950 . S
H977 C989 0.950 . S
H978 C986 0.950 . S
H979 C988 0.950 . S
H980 C990 0.950 1_545 S
H981 C992 0.950 . S
H982 C994 0.950 . S
H983 C995 0.950 . S
C984 H976 0.950 . S
C984 C985 1.386 . S
C984 C986 1.391 . S
C985 C984 1.386 . S
C985 C989 1.393 . S
C986 H978 0.950 . S
C986 C984 1.391 . S
C986 C987 1.400 . S
C987 C986 1.400 . S
C987 C988 1.398 . S
C987 C993 1.491 . S
C988 H979 0.950 . S
C988 C987 1.398 . S
C988 C989 1.391 . S
C989 H977 0.950 . S
C989 C985 1.393 . S
C989 C988 1.391 . S
C990 H980 0.950 1_565 S
C990 C991 1.386 . S
C990 C992 1.391 . S
C991 C990 1.386 . S
C991 C995 1.393 . S
C992 H981 0.950 . S
C992 C990 1.391 . S
C992 C993 1.400 . S
C993 C987 1.491 . S
C993 C992 1.400 . S
C993 C994 1.398 . S
C994 H982 0.950 . S
C994 C993 1.398 . S
C994 C995 1.391 . S
C995 H983 0.950 . S
C995 C991 1.393 . S
C995 C994 1.391 . S
H996 C1004 0.950 . S
H997 C1009 0.950 . S
H998 C1006 0.950 . S
H999 C1008 0.950 1_556 S
H1000 C1010 0.950 . S
H1001 C1012 0.961 . S
H1002 C1014 0.950 . S
H1003 C1015 0.950 . S
C1004 H996 0.950 . S
C1004 C1005 1.386 1_554 S
C1004 C1006 1.391 . S
C1005 C1004 1.386 1_556 S
C1005 C1009 1.393 . S
C1006 H998 0.950 . S
C1006 C1004 1.391 . S
C1006 C1007 1.400 . S
C1007 C1006 1.400 . S
C1007 C1008 1.397 . S
C1007 C1013 1.491 . S
C1008 H999 0.950 1_554 S
C1008 C1007 1.397 . S
C1008 C1009 1.392 1_554 S
C1009 H997 0.950 . S
C1009 C1005 1.393 . S
C1009 C1008 1.392 1_556 S
C1010 H1000 0.950 . S
C1010 C1011 1.386 . S
C1010 C1012 1.391 . S
C1011 C1010 1.386 . S
C1011 C1015 1.393 . S
C1012 H1001 0.961 . S
C1012 C1010 1.391 . S
C1012 C1013 1.400 . S
C1013 C1007 1.491 . S
C1013 C1012 1.400 . S
C1013 C1014 1.398 . S
C1014 H1002 0.950 . S
C1014 C1013 1.398 . S
C1014 C1015 1.391 . S
C1015 H1003 0.950 . S
C1015 C1011 1.393 . S
C1015 C1014 1.391 . S
H1016 C1024 0.950 . S
H1017 C1029 0.950 . S
H1018 C1026 0.950 . S
H1019 C1028 0.950 . S
H1020 C1030 0.950 . S
H1021 C1032 0.950 . S
H1022 C1034 0.950 . S
H1023 C1035 0.950 . S
C1024 H1016 0.950 . S
C1024 C1025 1.386 . S
C1024 C1026 1.391 . S
C1025 C1024 1.386 . S
C1025 C1029 1.393 . S
C1026 H1018 0.950 . S
C1026 C1024 1.391 . S
C1026 C1027 1.400 . S
C1027 C1026 1.400 . S
C1027 C1028 1.398 . S
C1027 C1033 1.491 . S
C1028 H1019 0.950 . S
C1028 C1027 1.398 . S
C1028 C1029 1.391 . S
C1029 H1017 0.950 . S
C1029 C1025 1.393 . S
C1029 C1028 1.391 . S
C1030 H1020 0.950 . S
C1030 C1031 1.386 . S
C1030 C1032 1.391 . S
C1031 C1030 1.386 . S
C1031 C1035 1.393 . S
C1032 H1021 0.950 . S
C1032 C1030 1.391 . S
C1032 C1033 1.400 . S
C1033 C1027 1.491 . S
C1033 C1032 1.400 . S
C1033 C1034 1.398 . S
C1034 H1022 0.950 . S
C1034 C1033 1.398 . S
C1034 C1035 1.391 . S
C1035 H1023 0.950 . S
C1035 C1031 1.393 . S
C1035 C1034 1.391 . S
H1036 C1044 0.950 . S
H1037 C1049 0.950 . S
H1038 C1046 0.950 . S
H1039 C1048 0.950 . S
H1040 C1050 0.950 . S
H1041 C1052 0.950 . S
H1042 C1054 0.950 . S
H1043 C1055 0.950 . S
C1044 H1036 0.950 . S
C1044 C1045 1.386 . S
C1044 C1046 1.391 . S
C1045 C1044 1.386 . S
C1045 C1049 1.393 . S
C1046 H1038 0.950 . S
C1046 C1044 1.391 . S
C1046 C1047 1.400 . S
C1047 C1046 1.400 . S
C1047 C1048 1.398 . S
C1047 C1053 1.491 . S
C1048 H1039 0.950 . S
C1048 C1047 1.398 . S
C1048 C1049 1.391 . S
C1049 H1037 0.950 . S
C1049 C1045 1.393 . S
C1049 C1048 1.391 . S
C1050 H1040 0.950 . S
C1050 C1051 1.386 . S
C1050 C1052 1.391 . S
C1051 C1050 1.386 . S
C1051 C1055 1.393 . S
C1052 H1041 0.950 . S
C1052 C1050 1.391 . S
C1052 C1053 1.400 . S
C1053 C1047 1.491 . S
C1053 C1052 1.400 . S
C1053 C1054 1.398 . S
C1054 H1042 0.950 . S
C1054 C1053 1.398 . S
C1054 C1055 1.391 . S
C1055 H1043 0.950 . S
C1055 C1051 1.393 . S
C1055 C1054 1.391 . S
H1056 C1064 0.950 . S
H1057 C1069 0.950 . S
H1058 C1066 0.950 . S
H1059 C1068 0.950 . S
H1060 C1070 0.950 . S
H1061 C1072 0.950 . S
H1062 C1074 0.950 . S
H1063 C1075 0.950 . S
C1064 H1056 0.950 . S
C1064 C1065 1.386 . S
C1064 C1066 1.391 . S
C1065 C1064 1.386 . S
C1065 C1069 1.393 . S
C1066 H1058 0.950 . S
C1066 C1064 1.391 . S
C1066 C1067 1.400 . S
C1067 C1066 1.400 . S
C1067 C1068 1.398 . S
C1067 C1073 1.491 . S
C1068 H1059 0.950 . S
C1068 C1067 1.398 . S
C1068 C1069 1.391 . S
C1069 H1057 0.950 . S
C1069 C1065 1.393 . S
C1069 C1068 1.391 . S
C1070 H1060 0.950 . S
C1070 C1071 1.386 . S
C1070 C1072 1.391 . S
C1071 C1070 1.386 . S
C1071 C1075 1.393 . S
C1072 H1061 0.950 . S
C1072 C1070 1.391 . S
C1072 C1073 1.400 . S
C1073 C1067 1.491 . S
C1073 C1072 1.400 . S
C1073 C1074 1.398 . S
C1074 H1062 0.950 . S
C1074 C1073 1.398 . S
C1074 C1075 1.391 . S
C1075 H1063 0.950 . S
C1075 C1071 1.393 . S
C1075 C1074 1.391 . S
H1076 C1084 0.950 . S
H1077 C1089 0.950 . S
H1078 C1086 0.950 . S
H1079 C1088 0.950 . S
H1080 C1090 0.950 . S
H1081 C1092 0.950 . S
H1082 C1094 0.950 . S
H1083 C1095 0.950 . S
C1084 H1076 0.950 . S
C1084 C1085 1.386 . S
C1084 C1086 1.391 . S
C1085 C1084 1.386 . S
C1085 C1089 1.393 . S
C1086 H1078 0.950 . S
C1086 C1084 1.391 . S
C1086 C1087 1.400 . S
C1087 C1086 1.400 . S
C1087 C1088 1.398 . S
C1087 C1093 1.491 . S
C1088 H1079 0.950 . S
C1088 C1087 1.398 . S
C1088 C1089 1.391 . S
C1089 H1077 0.950 . S
C1089 C1085 1.393 . S
C1089 C1088 1.391 . S
C1090 H1080 0.950 . S
C1090 C1091 1.386 . S
C1090 C1092 1.391 . S
C1091 C1090 1.386 . S
C1091 C1095 1.393 . S
C1092 H1081 0.950 . S
C1092 C1090 1.391 . S
C1092 C1093 1.400 . S
C1093 C1087 1.491 . S
C1093 C1092 1.400 . S
C1093 C1094 1.398 . S
C1094 H1082 0.950 . S
C1094 C1093 1.398 . S
C1094 C1095 1.391 . S
C1095 H1083 0.950 . S
C1095 C1091 1.393 . S
C1095 C1094 1.391 . S
H1096 C1104 0.950 . S
H1097 C1109 0.950 . S
H1098 C1106 0.950 . S
H1099 C1108 0.950 . S
H1100 C1110 0.950 . S
H1101 C1112 0.950 . S
H1102 C1114 0.950 . S
H1103 C1115 0.950 . S
C1104 H1096 0.950 . S
C1104 C1105 1.386 . S
C1104 C1106 1.391 . S
C1105 C1104 1.386 . S
C1105 C1109 1.393 . S
C1106 H1098 0.950 . S
C1106 C1104 1.391 . S
C1106 C1107 1.400 . S
C1107 C1106 1.400 . S
C1107 C1108 1.398 . S
C1107 C1113 1.491 . S
C1108 H1099 0.950 . S
C1108 C1107 1.398 . S
C1108 C1109 1.391 . S
C1109 H1097 0.950 . S
C1109 C1105 1.393 . S
C1109 C1108 1.391 . S
C1110 H1100 0.950 . S
C1110 C1111 1.386 . S
C1110 C1112 1.391 . S
C1111 C1110 1.386 . S
C1111 C1115 1.393 . S
C1112 H1101 0.950 . S
C1112 C1110 1.391 . S
C1112 C1113 1.400 . S
C1113 C1107 1.491 . S
C1113 C1112 1.400 . S
C1113 C1114 1.398 . S
C1114 H1102 0.950 . S
C1114 C1113 1.398 . S
C1114 C1115 1.391 . S
C1115 H1103 0.950 . S
C1115 C1111 1.393 . S
C1115 C1114 1.391 . S
H1116 C1124 0.950 . S
H1117 C1129 0.950 . S
H1118 C1126 0.950 . S
H1119 C1128 0.950 . S
H1120 C1130 0.950 . S
H1121 C1132 0.950 . S
H1122 C1134 0.950 . S
H1123 C1135 0.950 . S
C1124 H1116 0.950 . S
C1124 C1125 1.386 . S
C1124 C1126 1.391 . S
C1125 C1124 1.386 . S
C1125 C1129 1.393 . S
C1126 H1118 0.950 . S
C1126 C1124 1.391 . S
C1126 C1127 1.400 . S
C1127 C1126 1.400 . S
C1127 C1128 1.398 . S
C1127 C1133 1.491 . S
C1128 H1119 0.950 . S
C1128 C1127 1.398 . S
C1128 C1129 1.391 . S
C1129 H1117 0.950 . S
C1129 C1125 1.393 . S
C1129 C1128 1.391 . S
C1130 H1120 0.950 . S
C1130 C1131 1.386 . S
C1130 C1132 1.391 . S
C1131 C1130 1.386 . S
C1131 C1135 1.393 . S
C1132 H1121 0.950 . S
C1132 C1130 1.391 . S
C1132 C1133 1.400 . S
C1133 C1127 1.491 . S
C1133 C1132 1.400 . S
C1133 C1134 1.398 . S
C1134 H1122 0.950 . S
C1134 C1133 1.398 . S
C1134 C1135 1.391 . S
C1135 H1123 0.950 . S
C1135 C1131 1.393 . S
C1135 C1134 1.391 . S
H1136 C1144 0.950 . S
H1137 C1149 0.950 . S
H1138 C1146 0.950 . S
H1139 C1148 0.950 . S
H1140 C1150 0.950 . S
H1141 C1152 0.950 . S
H1142 C1154 0.950 . S
H1143 C1155 0.950 . S
C1144 H1136 0.950 . S
C1144 C1145 1.386 . S
C1144 C1146 1.391 . S
C1145 C1144 1.386 . S
C1145 C1149 1.393 . S
C1146 H1138 0.950 . S
C1146 C1144 1.391 . S
C1146 C1147 1.400 . S
C1147 C1146 1.400 . S
C1147 C1148 1.398 . S
C1147 C1153 1.491 . S
C1148 H1139 0.950 . S
C1148 C1147 1.398 . S
C1148 C1149 1.391 . S
C1149 H1137 0.950 . S
C1149 C1145 1.393 . S
C1149 C1148 1.391 . S
C1150 H1140 0.950 . S
C1150 C1151 1.386 . S
C1150 C1152 1.391 . S
C1151 C1150 1.386 . S
C1151 C1155 1.393 . S
C1152 H1141 0.950 . S
C1152 C1150 1.391 . S
C1152 C1153 1.400 . S
C1153 C1147 1.491 . S
C1153 C1152 1.400 . S
C1153 C1154 1.398 . S
C1154 H1142 0.950 . S
C1154 C1153 1.398 . S
C1154 C1155 1.391 . S
C1155 H1143 0.950 . S
C1155 C1151 1.393 . S
C1155 C1154 1.391 . S
H1156 C1164 0.950 . S
H1157 C1169 0.950 . S
H1158 C1166 0.950 . S
H1159 C1168 0.950 . S
H1160 C1170 0.950 . S
H1161 C1172 0.950 . S
H1162 C1174 0.950 . S
H1163 C1175 0.950 . S
C1164 H1156 0.950 . S
C1164 C1165 1.386 . S
C1164 C1166 1.391 . S
C1165 C1164 1.386 . S
C1165 C1169 1.393 . S
C1166 H1158 0.950 . S
C1166 C1164 1.391 . S
C1166 C1167 1.400 . S
C1167 C1166 1.400 . S
C1167 C1168 1.398 . S
C1167 C1173 1.491 . S
C1168 H1159 0.950 . S
C1168 C1167 1.398 . S
C1168 C1169 1.391 . S
C1169 H1157 0.950 . S
C1169 C1165 1.393 . S
C1169 C1168 1.391 . S
C1170 H1160 0.950 . S
C1170 C1171 1.386 . S
C1170 C1172 1.391 . S
C1171 C1170 1.386 . S
C1171 C1175 1.393 . S
C1172 H1161 0.950 . S
C1172 C1170 1.391 . S
C1172 C1173 1.400 . S
C1173 C1167 1.491 . S
C1173 C1172 1.400 . S
C1173 C1174 1.398 . S
C1174 H1162 0.950 . S
C1174 C1173 1.398 . S
C1174 C1175 1.391 . S
C1175 H1163 0.950 . S
C1175 C1171 1.393 . S
C1175 C1174 1.391 . S
H1176 C1184 0.950 . S
H1177 C1189 0.950 . S
H1178 C1186 0.950 . S
H1179 C1188 0.950 . S
H1180 C1190 0.950 . S
H1181 C1192 0.950 . S
H1182 C1194 0.950 . S
H1183 C1195 0.950 . S
C1184 H1176 0.950 . S
C1184 C1185 1.386 . S
C1184 C1186 1.391 . S
C1185 C1184 1.386 . S
C1185 C1189 1.393 . S
C1186 H1178 0.950 . S
C1186 C1184 1.391 . S
C1186 C1187 1.400 . S
C1187 C1186 1.400 . S
C1187 C1188 1.398 . S
C1187 C1193 1.491 . S
C1188 H1179 0.950 . S
C1188 C1187 1.398 . S
C1188 C1189 1.391 . S
C1189 H1177 0.950 . S
C1189 C1185 1.393 . S
C1189 C1188 1.391 . S
C1190 H1180 0.950 . S
C1190 C1191 1.386 . S
C1190 C1192 1.391 . S
C1191 C1190 1.386 . S
C1191 C1195 1.393 . S
C1192 H1181 0.950 . S
C1192 C1190 1.391 . S
C1192 C1193 1.400 . S
C1193 C1187 1.491 . S
C1193 C1192 1.400 . S
C1193 C1194 1.398 . S
C1194 H1182 0.950 . S
C1194 C1193 1.398 . S
C1194 C1195 1.391 . S
C1195 H1183 0.950 . S
C1195 C1191 1.393 . S
C1195 C1194 1.391 . S
H1196 C1204 0.950 . S
H1197 C1209 0.950 . S
H1198 C1206 0.950 . S
H1199 C1208 0.950 . S
H1200 C1210 0.950 . S
H1201 C1212 0.950 . S
H1202 C1214 0.950 . S
H1203 C1215 0.950 . S
C1204 H1196 0.950 . S
C1204 C1205 1.386 . S
C1204 C1206 1.391 . S
C1205 C1204 1.386 . S
C1205 C1209 1.393 . S
C1206 H1198 0.950 . S
C1206 C1204 1.391 . S
C1206 C1207 1.400 . S
C1207 C1206 1.400 . S
C1207 C1208 1.398 . S
C1207 C1213 1.491 . S
C1208 H1199 0.950 . S
C1208 C1207 1.398 . S
C1208 C1209 1.391 . S
C1209 H1197 0.950 . S
C1209 C1205 1.393 . S
C1209 C1208 1.391 . S
C1210 H1200 0.950 . S
C1210 C1211 1.386 . S
C1210 C1212 1.391 . S
C1211 C1210 1.386 . S
C1211 C1215 1.393 . S
C1212 H1201 0.950 . S
C1212 C1210 1.391 . S
C1212 C1213 1.400 . S
C1213 C1207 1.491 . S
C1213 C1212 1.400 . S
C1213 C1214 1.398 . S
C1214 H1202 0.950 . S
C1214 C1213 1.398 . S
C1214 C1215 1.391 . S
C1215 H1203 0.950 . S
C1215 C1211 1.393 . S
C1215 C1214 1.391 . S
H1216 C1224 0.950 1_655 S
H1217 C1229 0.950 . S
H1218 C1226 0.950 1_655 S
H1219 C1228 0.950 . S
H1220 C1230 0.950 . S
H1221 C1232 0.950 . S
H1222 C1234 0.961 . S
H1223 C1235 0.950 . S
C1224 H1216 0.950 1_455 S
C1224 C1225 1.386 . S
C1224 C1226 1.391 . S
C1225 C1224 1.386 . S
C1225 C1229 1.393 . S
C1226 H1218 0.950 1_455 S
C1226 C1224 1.391 . S
C1226 C1227 1.400 . S
C1227 C1226 1.400 . S
C1227 C1228 1.398 . S
C1227 C1233 1.491 . S
C1228 H1219 0.950 . S
C1228 C1227 1.398 . S
C1228 C1229 1.391 . S
C1229 H1217 0.950 . S
C1229 C1225 1.393 . S
C1229 C1228 1.391 . S
C1230 H1220 0.950 . S
C1230 C1231 1.386 . S
C1230 C1232 1.391 . S
C1231 C1230 1.386 . S
C1231 C1235 1.393 1_455 S
C1232 H1221 0.950 . S
C1232 C1230 1.391 . S
C1232 C1233 1.400 . S
C1233 C1227 1.491 . S
C1233 C1232 1.400 . S
C1233 C1234 1.388 1_455 S
C1234 H1222 0.961 . S
C1234 C1233 1.388 1_655 S
C1234 C1235 1.391 . S
C1235 H1223 0.950 . S
C1235 C1231 1.393 1_655 S
C1235 C1234 1.391 . S
H1236 C1244 0.950 . S
H1237 C1249 0.950 . S
H1238 C1246 0.950 . S
H1239 C1248 0.950 . S
H1240 C1250 0.950 . S
H1241 C1252 0.950 . S
H1242 C1254 0.950 . S
H1243 C1255 0.950 . S
C1244 H1236 0.950 . S
C1244 C1245 1.386 . S
C1244 C1246 1.391 . S
C1245 C1244 1.386 . S
C1245 C1249 1.393 . S
C1246 H1238 0.950 . S
C1246 C1244 1.391 . S
C1246 C1247 1.400 . S
C1247 C1246 1.400 . S
C1247 C1248 1.398 . S
C1247 C1253 1.491 . S
C1248 H1239 0.950 . S
C1248 C1247 1.398 . S
C1248 C1249 1.391 . S
C1249 H1237 0.950 . S
C1249 C1245 1.393 . S
C1249 C1248 1.391 . S
C1250 H1240 0.950 . S
C1250 C1251 1.386 . S
C1250 C1252 1.391 . S
C1251 C1250 1.386 . S
C1251 C1255 1.393 . S
C1252 H1241 0.950 . S
C1252 C1250 1.391 . S
C1252 C1253 1.400 . S
C1253 C1247 1.491 . S
C1253 C1252 1.400 . S
C1253 C1254 1.398 . S
C1254 H1242 0.950 . S
C1254 C1253 1.398 . S
C1254 C1255 1.391 . S
C1255 H1243 0.950 . S
C1255 C1251 1.393 . S
C1255 C1254 1.391 . S
H1256 C1264 0.950 . S
H1257 C1269 0.950 . S
H1258 C1266 0.950 . S
H1259 C1268 0.950 . S
H1260 C1270 0.941 1_554 S
H1261 C1272 0.950 . S
H1262 C1274 0.950 . S
H1263 C1275 0.950 . S
C1264 H1256 0.950 . S
C1264 C1265 1.386 . S
C1264 C1266 1.391 . S
C1265 C1264 1.386 . S
C1265 C1269 1.393 . S
C1266 H1258 0.950 . S
C1266 C1264 1.391 . S
C1266 C1267 1.400 . S
C1267 C1266 1.400 . S
C1267 C1268 1.398 . S
C1267 C1273 1.491 . S
C1268 H1259 0.950 . S
C1268 C1267 1.398 . S
C1268 C1269 1.391 . S
C1269 H1257 0.950 . S
C1269 C1265 1.393 . S
C1269 C1268 1.391 . S
C1270 H1260 0.941 1_556 S
C1270 C1271 1.386 . S
C1270 C1272 1.400 . S
C1271 C1270 1.386 . S
C1271 C1275 1.393 . S
C1272 H1261 0.950 . S
C1272 C1270 1.400 . S
C1272 C1273 1.400 . S
C1273 C1267 1.491 . S
C1273 C1272 1.400 . S
C1273 C1274 1.398 . S
C1274 H1262 0.950 . S
C1274 C1273 1.398 . S
C1274 C1275 1.391 . S
C1275 H1263 0.950 . S
C1275 C1271 1.393 . S
C1275 C1274 1.391 . S
H1276 C1284 0.950 . S
H1277 C1289 0.950 . S
H1278 C1286 0.950 . S
H1279 C1288 0.950 . S
H1280 C1290 0.950 . S
H1281 C1292 0.950 . S
H1282 C1294 0.950 . S
H1283 C1295 0.950 . S
C1284 H1276 0.950 . S
C1284 C1285 1.386 . S
C1284 C1286 1.391 . S
C1285 C1284 1.386 . S
C1285 C1289 1.393 . S
C1286 H1278 0.950 . S
C1286 C1284 1.391 . S
C1286 C1287 1.400 . S
C1287 C1286 1.400 . S
C1287 C1288 1.398 . S
C1287 C1293 1.491 . S
C1288 H1279 0.950 . S
C1288 C1287 1.398 . S
C1288 C1289 1.391 . S
C1289 H1277 0.950 . S
C1289 C1285 1.393 . S
C1289 C1288 1.391 . S
C1290 H1280 0.950 . S
C1290 C1291 1.386 . S
C1290 C1292 1.391 . S
C1291 C1290 1.386 . S
C1291 C1295 1.393 . S
C1292 H1281 0.950 . S
C1292 C1290 1.391 . S
C1292 C1293 1.400 . S
C1293 C1287 1.491 . S
C1293 C1292 1.400 . S
C1293 C1294 1.398 . S
C1294 H1282 0.950 . S
C1294 C1293 1.398 . S
C1294 C1295 1.391 . S
C1295 H1283 0.950 . S
C1295 C1291 1.393 . S
C1295 C1294 1.391 . S
H1296 C1304 0.950 . S
H1297 C1309 0.950 . S
H1298 C1306 0.950 . S
H1299 C1308 0.950 . S
H1300 C1310 0.950 . S
H1301 C1312 0.950 . S
H1302 C1314 0.950 . S
H1303 C1315 0.950 . S
C1304 H1296 0.950 . S
C1304 C1305 1.386 . S
C1304 C1306 1.391 . S
C1305 C1304 1.386 . S
C1305 C1309 1.393 1_545 S
C1306 H1298 0.950 . S
C1306 C1304 1.391 . S
C1306 C1307 1.400 . S
C1307 C1306 1.400 . S
C1307 C1308 1.398 1_545 S
C1307 C1313 1.491 . S
C1308 H1299 0.950 . S
C1308 C1307 1.398 1_565 S
C1308 C1309 1.391 . S
C1309 H1297 0.950 . S
C1309 C1305 1.393 1_565 S
C1309 C1308 1.391 . S
C1310 H1300 0.950 . S
C1310 C1311 1.386 1_565 S
C1310 C1312 1.391 . S
C1311 C1310 1.386 1_545 S
C1311 C1315 1.393 . S
C1312 H1301 0.950 . S
C1312 C1310 1.391 . S
C1312 C1313 1.400 1_565 S
C1313 C1307 1.491 . S
C1313 C1312 1.400 1_545 S
C1313 C1314 1.398 . S
C1314 H1302 0.950 . S
C1314 C1313 1.398 . S
C1314 C1315 1.391 . S
C1315 H1303 0.950 . S
C1315 C1311 1.393 . S
C1315 C1314 1.391 . S
H1316 C1324 0.950 . S
H1317 C1329 0.950 . S
H1318 C1326 0.950 . S
H1319 C1328 0.950 . S
H1320 C1330 0.950 . S
H1321 C1332 0.950 . S
H1322 C1334 0.950 . S
H1323 C1335 0.950 . S
C1324 H1316 0.950 . S
C1324 C1325 1.386 . S
C1324 C1326 1.391 . S
C1325 C1324 1.386 . S
C1325 C1329 1.393 . S
C1326 H1318 0.950 . S
C1326 C1324 1.391 . S
C1326 C1327 1.400 . S
C1327 C1326 1.400 . S
C1327 C1328 1.398 . S
C1327 C1333 1.491 . S
C1328 H1319 0.950 . S
C1328 C1327 1.398 . S
C1328 C1329 1.391 . S
C1329 H1317 0.950 . S
C1329 C1325 1.393 . S
C1329 C1328 1.391 . S
C1330 H1320 0.950 . S
C1330 C1331 1.386 . S
C1330 C1332 1.391 . S
C1331 C1330 1.386 . S
C1331 C1335 1.393 . S
C1332 H1321 0.950 . S
C1332 C1330 1.391 . S
C1332 C1333 1.400 . S
C1333 C1327 1.491 . S
C1333 C1332 1.400 . S
C1333 C1334 1.398 . S
C1334 H1322 0.950 . S
C1334 C1333 1.398 . S
C1334 C1335 1.391 . S
C1335 H1323 0.950 . S
C1335 C1331 1.393 . S
C1335 C1334 1.391 . S
H1336 C1344 0.950 . S
H1337 C1349 0.950 . S
H1338 C1346 0.950 . S
H1339 C1348 0.950 . S
H1340 C1350 0.950 . S
H1341 C1352 0.950 . S
H1342 C1354 0.950 . S
H1343 C1355 0.950 . S
C1344 H1336 0.950 . S
C1344 C1345 1.386 . S
C1344 C1346 1.391 . S
C1345 C1344 1.386 . S
C1345 C1349 1.393 . S
C1346 H1338 0.950 . S
C1346 C1344 1.391 . S
C1346 C1347 1.400 . S
C1347 C1346 1.400 . S
C1347 C1348 1.398 . S
C1347 C1353 1.491 . S
C1348 H1339 0.950 . S
C1348 C1347 1.398 . S
C1348 C1349 1.391 . S
C1349 H1337 0.950 . S
C1349 C1345 1.393 . S
C1349 C1348 1.391 . S
C1350 H1340 0.950 . S
C1350 C1351 1.386 . S
C1350 C1352 1.391 . S
C1351 C1350 1.386 . S
C1351 C1355 1.393 . S
C1352 H1341 0.950 . S
C1352 C1350 1.391 . S
C1352 C1353 1.400 . S
C1353 C1347 1.491 . S
C1353 C1352 1.400 . S
C1353 C1354 1.398 . S
C1354 H1342 0.950 . S
C1354 C1353 1.398 . S
C1354 C1355 1.391 . S
C1355 H1343 0.950 . S
C1355 C1351 1.393 . S
C1355 C1354 1.391 . S
H1356 C1364 0.950 . S
H1357 C1369 0.950 . S
H1358 C1366 0.950 . S
H1359 C1368 0.950 . S
H1360 C1370 0.950 . S
H1361 C1372 0.950 . S
H1362 C1374 0.950 . S
H1363 C1375 0.950 . S
C1364 H1356 0.950 . S
C1364 C1365 1.386 . S
C1364 C1366 1.391 . S
C1365 C1364 1.386 . S
C1365 C1369 1.393 . S
C1366 H1358 0.950 . S
C1366 C1364 1.391 . S
C1366 C1367 1.400 . S
C1367 C1366 1.400 . S
C1367 C1368 1.398 . S
C1367 C1373 1.491 . S
C1368 H1359 0.950 . S
C1368 C1367 1.398 . S
C1368 C1369 1.391 . S
C1369 H1357 0.950 . S
C1369 C1365 1.393 . S
C1369 C1368 1.391 . S
C1370 H1360 0.950 . S
C1370 C1371 1.386 . S
C1370 C1372 1.391 . S
C1371 C1370 1.386 . S
C1371 C1375 1.393 . S
C1372 H1361 0.950 . S
C1372 C1370 1.391 . S
C1372 C1373 1.400 . S
C1373 C1367 1.491 . S
C1373 C1372 1.400 . S
C1373 C1374 1.398 . S
C1374 H1362 0.950 . S
C1374 C1373 1.398 . S
C1374 C1375 1.391 . S
C1375 H1363 0.950 . S
C1375 C1371 1.393 . S
C1375 C1374 1.391 . S
H1376 C1384 0.950 . S
H1377 C1389 0.950 . S
H1378 C1386 0.950 . S
H1379 C1388 0.950 . S
H1380 C1390 0.950 . S
H1381 C1392 0.950 . S
H1382 C1394 0.950 . S
H1383 C1395 0.950 . S
C1384 H1376 0.950 . S
C1384 C1385 1.386 . S
C1384 C1386 1.391 . S
C1385 C1384 1.386 . S
C1385 C1389 1.393 1_545 S
C1386 H1378 0.950 . S
C1386 C1384 1.391 . S
C1386 C1387 1.400 . S
C1387 C1386 1.400 . S
C1387 C1388 1.398 1_545 S
C1387 C1393 1.491 . S
C1388 H1379 0.950 . S
C1388 C1387 1.398 1_565 S
C1388 C1389 1.391 . S
C1389 H1377 0.950 . S
C1389 C1385 1.393 1_565 S
C1389 C1388 1.391 . S
C1390 H1380 0.950 . S
C1390 C1391 1.386 1_565 S
C1390 C1392 1.391 . S
C1391 C1390 1.386 1_545 S
C1391 C1395 1.393 . S
C1392 H1381 0.950 . S
C1392 C1390 1.391 . S
C1392 C1393 1.400 1_565 S
C1393 C1387 1.491 . S
C1393 C1392 1.400 1_545 S
C1393 C1394 1.398 . S
C1394 H1382 0.950 . S
C1394 C1393 1.398 . S
C1394 C1395 1.391 . S
C1395 H1383 0.950 . S
C1395 C1391 1.393 . S
C1395 C1394 1.391 . S
H1396 C1404 0.950 . S
H1397 C1409 0.950 . S
H1398 C1406 0.950 . S
H1399 C1408 0.950 . S
H1400 C1410 0.950 . S
H1401 C1412 0.950 . S
H1402 C1414 0.950 . S
H1403 C1415 0.950 . S
C1404 H1396 0.950 . S
C1404 C1405 1.386 . S
C1404 C1406 1.391 . S
C1405 C1404 1.386 . S
C1405 C1409 1.393 . S
C1406 H1398 0.950 . S
C1406 C1404 1.391 . S
C1406 C1407 1.400 . S
C1407 C1406 1.400 . S
C1407 C1408 1.398 . S
C1407 C1413 1.491 . S
C1408 H1399 0.950 . S
C1408 C1407 1.398 . S
C1408 C1409 1.391 . S
C1409 H1397 0.950 . S
C1409 C1405 1.393 . S
C1409 C1408 1.391 . S
C1410 H1400 0.950 . S
C1410 C1411 1.386 . S
C1410 C1412 1.391 . S
C1411 C1410 1.386 . S
C1411 C1415 1.393 . S
C1412 H1401 0.950 . S
C1412 C1410 1.391 . S
C1412 C1413 1.400 . S
C1413 C1407 1.491 . S
C1413 C1412 1.400 . S
C1413 C1414 1.398 . S
C1414 H1402 0.950 . S
C1414 C1413 1.398 . S
C1414 C1415 1.391 . S
C1415 H1403 0.950 . S
C1415 C1411 1.393 . S
C1415 C1414 1.391 . S
H1416 C1424 0.950 1_565 S
H1417 C1429 0.950 . S
H1418 C1426 0.946 1_565 S
H1419 C1428 0.950 . S
H1420 C1430 0.950 . S
H1421 C1432 0.950 . S
H1422 C1434 0.950 . S
H1423 C1435 0.950 . S
C1424 H1416 0.950 1_545 S
C1424 C1425 1.386 . S
C1424 C1426 1.392 . S
C1425 C1424 1.386 . S
C1425 C1429 1.393 . S
C1426 H1418 0.946 1_545 S
C1426 C1424 1.392 . S
C1426 C1427 1.403 . S
C1427 C1426 1.403 . S
C1427 C1428 1.398 . S
C1427 C1433 1.491 . S
C1428 H1419 0.950 . S
C1428 C1427 1.398 . S
C1428 C1429 1.391 . S
C1429 H1417 0.950 . S
C1429 C1425 1.393 . S
C1429 C1428 1.391 . S
C1430 H1420 0.950 . S
C1430 C1431 1.416 . S
C1430 C1432 1.391 . S
C1431 C1430 1.416 . S
C1431 C1435 1.370 1_545 S
C1432 H1421 0.950 . S
C1432 C1430 1.391 . S
C1432 C1433 1.400 . S
C1433 C1427 1.491 . S
C1433 C1432 1.400 . S
C1433 C1434 1.398 1_545 S
C1434 H1422 0.950 . S
C1434 C1433 1.398 1_565 S
C1434 C1435 1.391 . S
C1435 H1423 0.950 . S
C1435 C1431 1.370 1_565 S
C1435 C1434 1.391 . S
H1436 C1444 0.950 . S
H1437 C1449 0.950 . S
H1438 C1446 0.950 . S
H1439 C1448 0.950 . S
H1440 C1450 0.950 . S
H1441 C1452 0.950 . S
H1442 C1454 0.950 . S
H1443 C1455 0.950 . S
C1444 H1436 0.950 . S
C1444 C1445 1.386 . S
C1444 C1446 1.391 . S
C1445 C1444 1.386 . S
C1445 C1449 1.393 . S
C1446 H1438 0.950 . S
C1446 C1444 1.391 . S
C1446 C1447 1.400 . S
C1447 C1446 1.400 . S
C1447 C1448 1.398 . S
C1447 C1453 1.491 . S
C1448 H1439 0.950 . S
C1448 C1447 1.398 . S
C1448 C1449 1.391 . S
C1449 H1437 0.950 . S
C1449 C1445 1.393 . S
C1449 C1448 1.391 . S
C1450 H1440 0.950 . S
C1450 C1451 1.386 . S
C1450 C1452 1.391 . S
C1451 C1450 1.386 . S
C1451 C1455 1.393 . S
C1452 H1441 0.950 . S
C1452 C1450 1.391 . S
C1452 C1453 1.400 . S
C1453 C1447 1.491 . S
C1453 C1452 1.400 . S
C1453 C1454 1.398 . S
C1454 H1442 0.950 . S
C1454 C1453 1.398 . S
C1454 C1455 1.391 . S
C1455 H1443 0.950 . S
C1455 C1451 1.393 . S
C1455 C1454 1.391 . S
H1456 C1464 0.950 1_556 S
H1457 C1469 0.950 . S
H1458 C1466 0.950 1_556 S
H1459 C1468 0.950 . S
H1460 C1470 0.950 . S
H1461 C1472 0.950 . S
H1462 C1474 0.950 . S
H1463 C1475 0.950 . S
C1464 H1456 0.950 1_554 S
C1464 C1465 1.386 . S
C1464 C1466 1.391 . S
C1465 C1464 1.386 . S
C1465 C1469 1.393 . S
C1466 H1458 0.950 1_554 S
C1466 C1464 1.391 . S
C1466 C1467 1.400 . S
C1467 C1466 1.400 . S
C1467 C1468 1.398 . S
C1467 C1473 1.491 . S
C1468 H1459 0.950 . S
C1468 C1467 1.398 . S
C1468 C1469 1.391 . S
C1469 H1457 0.950 . S
C1469 C1465 1.393 . S
C1469 C1468 1.391 . S
C1470 H1460 0.950 . S
C1470 C1471 1.386 . S
C1470 C1472 1.391 . S
C1471 C1470 1.386 . S
C1471 C1475 1.393 1_554 S
C1472 H1461 0.950 . S
C1472 C1470 1.391 . S
C1472 C1473 1.400 . S
C1473 C1467 1.491 . S
C1473 C1472 1.400 . S
C1473 C1474 1.398 1_554 S
C1474 H1462 0.950 . S
C1474 C1473 1.398 1_556 S
C1474 C1475 1.391 . S
C1475 H1463 0.950 . S
C1475 C1471 1.393 1_556 S
C1475 C1474 1.391 . S
H1476 C1484 0.950 . S
H1477 C1489 0.950 . S
H1478 C1486 0.950 . S
H1479 C1488 0.950 . S
H1480 C1490 0.950 . S
H1481 C1492 0.950 . S
H1482 C1494 0.950 . S
H1483 C1495 0.950 . S
C1484 H1476 0.950 . S
C1484 C1485 1.386 . S
C1484 C1486 1.391 . S
C1485 C1484 1.386 . S
C1485 C1489 1.393 . S
C1486 H1478 0.950 . S
C1486 C1484 1.391 . S
C1486 C1487 1.400 . S
C1487 C1486 1.400 . S
C1487 C1488 1.398 . S
C1487 C1493 1.491 . S
C1488 H1479 0.950 . S
C1488 C1487 1.398 . S
C1488 C1489 1.391 . S
C1489 H1477 0.950 . S
C1489 C1485 1.393 . S
C1489 C1488 1.391 . S
C1490 H1480 0.950 . S
C1490 C1491 1.386 . S
C1490 C1492 1.391 . S
C1491 C1490 1.386 . S
C1491 C1495 1.393 . S
C1492 H1481 0.950 . S
C1492 C1490 1.391 . S
C1492 C1493 1.400 . S
C1493 C1487 1.491 . S
C1493 C1492 1.400 . S
C1493 C1494 1.398 . S
C1494 H1482 0.950 . S
C1494 C1493 1.398 . S
C1494 C1495 1.391 . S
C1495 H1483 0.950 . S
C1495 C1491 1.393 . S
C1495 C1494 1.391 . S
H1496 C1504 0.950 . S
H1497 C1509 0.950 . S
H1498 C1506 0.950 . S
H1499 C1508 0.950 . S
H1500 C1510 0.950 . S
H1501 C1512 0.950 . S
H1502 C1514 0.950 . S
H1503 C1515 0.950 . S
C1504 H1496 0.950 . S
C1504 C1505 1.386 . S
C1504 C1506 1.391 . S
C1505 C1504 1.386 . S
C1505 C1509 1.393 . S
C1506 H1498 0.950 . S
C1506 C1504 1.391 . S
C1506 C1507 1.400 . S
C1507 C1506 1.400 . S
C1507 C1508 1.398 . S
C1507 C1513 1.491 . S
C1508 H1499 0.950 . S
C1508 C1507 1.398 . S
C1508 C1509 1.391 . S
C1509 H1497 0.950 . S
C1509 C1505 1.393 . S
C1509 C1508 1.391 . S
C1510 H1500 0.950 . S
C1510 C1511 1.386 . S
C1510 C1512 1.391 . S
C1511 C1510 1.386 . S
C1511 C1515 1.393 . S
C1512 H1501 0.950 . S
C1512 C1510 1.391 . S
C1512 C1513 1.400 . S
C1513 C1507 1.491 . S
C1513 C1512 1.400 . S
C1513 C1514 1.398 . S
C1514 H1502 0.950 . S
C1514 C1513 1.398 . S
C1514 C1515 1.391 . S
C1515 H1503 0.950 . S
C1515 C1511 1.393 . S
C1515 C1514 1.391 . S
H1516 C1524 0.950 . S
H1517 C1529 0.950 . S
H1518 C1526 0.950 . S
H1519 C1528 0.950 . S
H1520 C1530 0.950 . S
H1521 C1532 0.950 . S
H1522 C1534 0.950 . S
H1523 C1535 0.950 . S
C1524 H1516 0.950 . S
C1524 C1525 1.386 . S
C1524 C1526 1.391 . S
C1525 C1524 1.386 . S
C1525 C1529 1.393 . S
C1526 H1518 0.950 . S
C1526 C1524 1.391 . S
C1526 C1527 1.400 . S
C1527 C1526 1.400 . S
C1527 C1528 1.398 . S
C1527 C1533 1.491 . S
C1528 H1519 0.950 . S
C1528 C1527 1.398 . S
C1528 C1529 1.391 . S
C1529 H1517 0.950 . S
C1529 C1525 1.393 . S
C1529 C1528 1.391 . S
C1530 H1520 0.950 . S
C1530 C1531 1.386 . S
C1530 C1532 1.391 . S
C1531 C1530 1.386 . S
C1531 C1535 1.393 . S
C1532 H1521 0.950 . S
C1532 C1530 1.391 . S
C1532 C1533 1.400 . S
C1533 C1527 1.491 . S
C1533 C1532 1.400 . S
C1533 C1534 1.398 . S
C1534 H1522 0.950 . S
C1534 C1533 1.398 . S
C1534 C1535 1.391 . S
C1535 H1523 0.950 . S
C1535 C1531 1.393 . S
C1535 C1534 1.391 . S
H1536 C1544 0.950 . S
H1537 C1549 0.950 . S
H1538 C1546 0.950 . S
H1539 C1548 0.950 . S
H1540 C1550 0.950 . S
H1541 C1552 0.950 . S
H1542 C1554 0.950 . S
H1543 C1555 0.950 . S
C1544 H1536 0.950 . S
C1544 C1545 1.386 . S
C1544 C1546 1.391 . S
C1545 C1544 1.386 . S
C1545 C1549 1.393 . S
C1546 H1538 0.950 . S
C1546 C1544 1.391 . S
C1546 C1547 1.400 . S
C1547 C1546 1.400 . S
C1547 C1548 1.398 . S
C1547 C1553 1.491 . S
C1548 H1539 0.950 . S
C1548 C1547 1.398 . S
C1548 C1549 1.391 . S
C1549 H1537 0.950 . S
C1549 C1545 1.393 . S
C1549 C1548 1.391 . S
C1550 H1540 0.950 . S
C1550 C1551 1.386 . S
C1550 C1552 1.391 . S
C1551 C1550 1.386 . S
C1551 C1555 1.393 . S
C1552 H1541 0.950 . S
C1552 C1550 1.391 . S
C1552 C1553 1.400 . S
C1553 C1547 1.491 . S
C1553 C1552 1.400 . S
C1553 C1554 1.398 . S
C1554 H1542 0.950 . S
C1554 C1553 1.398 . S
C1554 C1555 1.391 . S
C1555 H1543 0.950 . S
C1555 C1551 1.393 . S
C1555 C1554 1.391 . S
H1556 C1564 0.950 . S
H1557 C1569 0.950 . S
H1558 C1566 0.950 . S
H1559 C1568 0.950 . S
H1560 C1570 0.950 . S
H1561 C1572 0.950 . S
H1562 C1574 0.950 . S
H1563 C1575 0.950 . S
C1564 H1556 0.950 . S
C1564 C1565 1.386 . S
C1564 C1566 1.391 . S
C1565 C1564 1.386 . S
C1565 C1569 1.393 . S
C1566 H1558 0.950 . S
C1566 C1564 1.391 . S
C1566 C1567 1.400 . S
C1567 C1566 1.400 . S
C1567 C1568 1.398 . S
C1567 C1573 1.491 . S
C1568 H1559 0.950 . S
C1568 C1567 1.398 . S
C1568 C1569 1.391 . S
C1569 H1557 0.950 . S
C1569 C1565 1.393 . S
C1569 C1568 1.391 . S
C1570 H1560 0.950 . S
C1570 C1571 1.386 . S
C1570 C1572 1.391 . S
C1571 C1570 1.386 . S
C1571 C1575 1.393 . S
C1572 H1561 0.950 . S
C1572 C1570 1.391 . S
C1572 C1573 1.400 . S
C1573 C1567 1.491 . S
C1573 C1572 1.400 . S
C1573 C1574 1.398 . S
C1574 H1562 0.950 . S
C1574 C1573 1.398 . S
C1574 C1575 1.391 . S
C1575 H1563 0.950 . S
C1575 C1571 1.393 . S
C1575 C1574 1.391 . S
H1576 C1584 0.950 . S
H1577 C1589 0.950 . S
H1578 C1586 0.950 . S
H1579 C1588 0.950 . S
H1580 C1590 0.950 . S
H1581 C1592 0.950 . S
H1582 C1594 0.950 . S
H1583 C1595 0.950 . S
C1584 H1576 0.950 . S
C1584 C1585 1.386 . S
C1584 C1586 1.391 . S
C1585 C1584 1.386 . S
C1585 C1589 1.393 . S
C1586 H1578 0.950 . S
C1586 C1584 1.391 . S
C1586 C1587 1.400 . S
C1587 C1586 1.400 . S
C1587 C1588 1.398 . S
C1587 C1593 1.491 . S
C1588 H1579 0.950 . S
C1588 C1587 1.398 . S
C1588 C1589 1.391 . S
C1589 H1577 0.950 . S
C1589 C1585 1.393 . S
C1589 C1588 1.391 . S
C1590 H1580 0.950 . S
C1590 C1591 1.386 . S
C1590 C1592 1.391 . S
C1591 C1590 1.386 . S
C1591 C1595 1.393 . S
C1592 H1581 0.950 . S
C1592 C1590 1.391 . S
C1592 C1593 1.400 . S
C1593 C1587 1.491 . S
C1593 C1592 1.400 . S
C1593 C1594 1.398 . S
C1594 H1582 0.950 . S
C1594 C1593 1.398 . S
C1594 C1595 1.391 . S
C1595 H1583 0.950 . S
C1595 C1591 1.393 . S
C1595 C1594 1.391 . S
H1596 C1604 0.950 . S
H1597 C1609 0.950 . S
H1598 C1606 0.950 . S
H1599 C1608 0.950 . S
H1600 C1610 0.950 . S
H1601 C1612 0.950 . S
H1602 C1614 0.950 . S
H1603 C1615 0.950 . S
C1604 H1596 0.950 . S
C1604 C1605 1.386 . S
C1604 C1606 1.391 . S
C1605 C1604 1.386 . S
C1605 C1609 1.393 . S
C1606 H1598 0.950 . S
C1606 C1604 1.391 . S
C1606 C1607 1.400 . S
C1607 C1606 1.400 . S
C1607 C1608 1.398 . S
C1607 C1613 1.491 . S
C1608 H1599 0.950 . S
C1608 C1607 1.398 . S
C1608 C1609 1.391 . S
C1609 H1597 0.950 . S
C1609 C1605 1.393 . S
C1609 C1608 1.391 . S
C1610 H1600 0.950 . S
C1610 C1611 1.386 . S
C1610 C1612 1.391 . S
C1611 C1610 1.386 . S
C1611 C1615 1.393 . S
C1612 H1601 0.950 . S
C1612 C1610 1.391 . S
C1612 C1613 1.400 . S
C1613 C1607 1.491 . S
C1613 C1612 1.400 . S
C1613 C1614 1.398 . S
C1614 H1602 0.950 . S
C1614 C1613 1.398 . S
C1614 C1615 1.391 . S
C1615 H1603 0.950 . S
C1615 C1611 1.393 . S
C1615 C1614 1.391 . S
H1616 C1624 0.950 . S
H1617 C1629 0.950 . S
H1618 C1626 0.950 . S
H1619 C1628 0.950 . S
H1620 C1630 0.950 . S
H1621 C1632 0.950 . S
H1622 C1634 0.950 . S
H1623 C1635 0.950 . S
C1624 H1616 0.950 . S
C1624 C1625 1.386 . S
C1624 C1626 1.391 . S
C1625 C1624 1.386 . S
C1625 C1629 1.393 . S
C1626 H1618 0.950 . S
C1626 C1624 1.391 . S
C1626 C1627 1.400 . S
C1627 C1626 1.400 . S
C1627 C1628 1.398 . S
C1627 C1633 1.491 . S
C1628 H1619 0.950 . S
C1628 C1627 1.398 . S
C1628 C1629 1.391 . S
C1629 H1617 0.950 . S
C1629 C1625 1.393 . S
C1629 C1628 1.391 . S
C1630 H1620 0.950 . S
C1630 C1631 1.386 . S
C1630 C1632 1.391 . S
C1631 C1630 1.386 . S
C1631 C1635 1.393 . S
C1632 H1621 0.950 . S
C1632 C1630 1.391 . S
C1632 C1633 1.400 . S
C1633 C1627 1.491 . S
C1633 C1632 1.400 . S
C1633 C1634 1.398 . S
C1634 H1622 0.950 . S
C1634 C1633 1.398 . S
C1634 C1635 1.391 . S
C1635 H1623 0.950 . S
C1635 C1631 1.393 . S
C1635 C1634 1.391 . S
H1636 C1644 0.950 . S
H1637 C1649 0.950 . S
H1638 C1646 0.950 . S
H1639 C1648 0.950 . S
H1640 C1650 0.950 . S
H1641 C1652 0.950 . S
H1642 C1654 0.950 . S
H1643 C1655 0.950 . S
C1644 H1636 0.950 . S
C1644 C1645 1.386 . S
C1644 C1646 1.391 . S
C1645 C1644 1.386 . S
C1645 C1649 1.393 . S
C1646 H1638 0.950 . S
C1646 C1644 1.391 . S
C1646 C1647 1.400 . S
C1647 C1646 1.400 . S
C1647 C1648 1.398 . S
C1647 C1653 1.491 . S
C1648 H1639 0.950 . S
C1648 C1647 1.398 . S
C1648 C1649 1.391 . S
C1649 H1637 0.950 . S
C1649 C1645 1.393 . S
C1649 C1648 1.391 . S
C1650 H1640 0.950 . S
C1650 C1651 1.386 . S
C1650 C1652 1.391 . S
C1651 C1650 1.386 . S
C1651 C1655 1.393 . S
C1652 H1641 0.950 . S
C1652 C1650 1.391 . S
C1652 C1653 1.400 . S
C1653 C1647 1.491 . S
C1653 C1652 1.400 . S
C1653 C1654 1.398 . S
C1654 H1642 0.950 . S
C1654 C1653 1.398 . S
C1654 C1655 1.391 . S
C1655 H1643 0.950 . S
C1655 C1651 1.393 . S
C1655 C1654 1.391 . S
H1656 C1664 0.950 . S
H1657 C1669 0.950 . S
H1658 C1666 0.950 . S
H1659 C1668 0.950 . S
H1660 C1670 0.950 . S
H1661 C1672 0.950 . S
H1662 C1674 0.950 . S
H1663 C1675 0.950 . S
C1664 H1656 0.950 . S
C1664 C1665 1.386 . S
C1664 C1666 1.391 . S
C1665 C1664 1.386 . S
C1665 C1669 1.393 1_455 S
C1666 H1658 0.950 . S
C1666 C1664 1.391 . S
C1666 C1667 1.400 . S
C1667 C1666 1.400 . S
C1667 C1668 1.398 1_455 S
C1667 C1673 1.491 . S
C1668 H1659 0.950 . S
C1668 C1667 1.398 1_655 S
C1668 C1669 1.391 . S
C1669 H1657 0.950 . S
C1669 C1665 1.393 1_655 S
C1669 C1668 1.391 . S
C1670 H1660 0.950 . S
C1670 C1671 1.386 1_655 S
C1670 C1672 1.391 . S
C1671 C1670 1.386 1_455 S
C1671 C1675 1.393 1_556 S
C1672 H1661 0.950 . S
C1672 C1670 1.391 . S
C1672 C1673 1.400 1_655 S
C1673 C1667 1.491 . S
C1673 C1672 1.400 1_455 S
C1673 C1674 1.398 . S
C1674 H1662 0.950 . S
C1674 C1673 1.398 . S
C1674 C1675 1.391 1_556 S
C1675 H1663 0.950 . S
C1675 C1671 1.393 1_554 S
C1675 C1674 1.391 1_554 S
H1676 C1684 0.950 . S
H1677 C1689 0.950 . S
H1678 C1686 0.950 . S
H1679 C1688 0.950 . S
H1680 C1690 0.950 . S
H1681 C1692 0.950 . S
H1682 C1694 0.950 . S
H1683 C1695 0.950 . S
C1684 H1676 0.950 . S
C1684 C1685 1.386 . S
C1684 C1686 1.391 . S
C1685 C1684 1.386 . S
C1685 C1689 1.393 . S
C1686 H1678 0.950 . S
C1686 C1684 1.391 . S
C1686 C1687 1.400 . S
C1687 C1686 1.400 . S
C1687 C1688 1.398 . S
C1687 C1693 1.491 . S
C1688 H1679 0.950 . S
C1688 C1687 1.398 . S
C1688 C1689 1.391 . S
C1689 H1677 0.950 . S
C1689 C1685 1.393 . S
C1689 C1688 1.391 . S
C1690 H1680 0.950 . S
C1690 C1691 1.386 . S
C1690 C1692 1.391 . S
C1691 C1690 1.386 . S
C1691 C1695 1.393 . S
C1692 H1681 0.950 . S
C1692 C1690 1.391 . S
C1692 C1693 1.400 . S
C1693 C1687 1.491 . S
C1693 C1692 1.400 . S
C1693 C1694 1.398 . S
C1694 H1682 0.950 . S
C1694 C1693 1.398 . S
C1694 C1695 1.391 . S
C1695 H1683 0.950 . S
C1695 C1691 1.393 . S
C1695 C1694 1.391 . S
H1696 C1704 0.950 . S
H1697 C1709 0.950 . S
H1698 C1706 0.950 . S
H1699 C1708 0.950 . S
H1700 C1710 0.950 . S
H1701 C1712 0.950 . S
H1702 C1714 0.950 . S
H1703 C1715 0.950 . S
C1704 H1696 0.950 . S
C1704 C1705 1.386 . S
C1704 C1706 1.391 . S
C1705 C1704 1.386 . S
C1705 C1709 1.393 . S
C1706 H1698 0.950 . S
C1706 C1704 1.391 . S
C1706 C1707 1.400 . S
C1707 C1706 1.400 . S
C1707 C1708 1.398 . S
C1707 C1713 1.491 . S
C1708 H1699 0.950 . S
C1708 C1707 1.398 . S
C1708 C1709 1.391 . S
C1709 H1697 0.950 . S
C1709 C1705 1.393 . S
C1709 C1708 1.391 . S
C1710 H1700 0.950 . S
C1710 C1711 1.386 . S
C1710 C1712 1.391 . S
C1711 C1710 1.386 . S
C1711 C1715 1.393 . S
C1712 H1701 0.950 . S
C1712 C1710 1.391 . S
C1712 C1713 1.400 . S
C1713 C1707 1.491 . S
C1713 C1712 1.400 . S
C1713 C1714 1.398 . S
C1714 H1702 0.950 . S
C1714 C1713 1.398 . S
C1714 C1715 1.391 . S
C1715 H1703 0.950 . S
C1715 C1711 1.393 . S
C1715 C1714 1.391 . S
H1716 C1724 0.950 . S
H1717 C1729 0.950 . S
H1718 C1726 0.950 . S
H1719 C1728 0.950 . S
H1720 C1730 0.950 . S
H1721 C1732 0.950 . S
H1722 C1734 0.950 . S
H1723 C1735 0.950 . S
C1724 H1716 0.950 . S
C1724 C1725 1.386 . S
C1724 C1726 1.391 . S
C1725 C1724 1.386 . S
C1725 C1729 1.393 . S
C1726 H1718 0.950 . S
C1726 C1724 1.391 . S
C1726 C1727 1.400 . S
C1727 C1726 1.400 . S
C1727 C1728 1.398 . S
C1727 C1733 1.491 . S
C1728 H1719 0.950 . S
C1728 C1727 1.398 . S
C1728 C1729 1.391 . S
C1729 H1717 0.950 . S
C1729 C1725 1.393 . S
C1729 C1728 1.391 . S
C1730 H1720 0.950 . S
C1730 C1731 1.386 . S
C1730 C1732 1.391 . S
C1731 C1730 1.386 . S
C1731 C1735 1.393 . S
C1732 H1721 0.950 . S
C1732 C1730 1.391 . S
C1732 C1733 1.400 . S
C1733 C1727 1.491 . S
C1733 C1732 1.400 . S
C1733 C1734 1.398 . S
C1734 H1722 0.950 . S
C1734 C1733 1.398 . S
C1734 C1735 1.391 . S
C1735 H1723 0.950 . S
C1735 C1731 1.393 . S
C1735 C1734 1.391 . S
H1736 C1744 0.950 . S
H1737 C1749 0.950 . S
H1738 C1746 0.950 . S
H1739 C1748 0.950 . S
H1740 C1750 0.950 . S
H1741 C1752 0.950 . S
H1742 C1754 0.950 . S
H1743 C1755 0.950 . S
C1744 H1736 0.950 . S
C1744 C1745 1.386 1_655 S
C1744 C1746 1.391 . S
C1745 C1744 1.386 1_455 S
C1745 C1749 1.393 . S
C1746 H1738 0.950 . S
C1746 C1744 1.391 . S
C1746 C1747 1.400 1_655 S
C1747 C1746 1.400 1_455 S
C1747 C1748 1.398 . S
C1747 C1753 1.491 . S
C1748 H1739 0.950 . S
C1748 C1747 1.398 . S
C1748 C1749 1.391 . S
C1749 H1737 0.950 . S
C1749 C1745 1.393 . S
C1749 C1748 1.391 . S
C1750 H1740 0.950 . S
C1750 C1751 1.386 . S
C1750 C1752 1.391 . S
C1751 C1750 1.386 . S
C1751 C1755 1.393 1_455 S
C1752 H1741 0.950 . S
C1752 C1750 1.391 . S
C1752 C1753 1.400 . S
C1753 C1747 1.491 . S
C1753 C1752 1.400 . S
C1753 C1754 1.398 1_455 S
C1754 H1742 0.950 . S
C1754 C1753 1.398 1_655 S
C1754 C1755 1.391 . S
C1755 H1743 0.950 . S
C1755 C1751 1.393 1_655 S
C1755 C1754 1.391 . S
H1756 C1764 0.950 . S
H1757 C1769 0.950 . S
H1758 C1766 0.950 . S
H1759 C1768 0.950 . S
H1760 C1770 0.950 . S
H1761 C1772 0.950 . S
H1762 C1774 0.950 . S
H1763 C1775 0.950 . S
C1764 H1756 0.950 . S
C1764 C1765 1.386 . S
C1764 C1766 1.391 . S
C1765 C1764 1.386 . S
C1765 C1769 1.393 . S
C1766 H1758 0.950 . S
C1766 C1764 1.391 . S
C1766 C1767 1.400 . S
C1767 C1766 1.400 . S
C1767 C1768 1.398 . S
C1767 C1773 1.491 . S
C1768 H1759 0.950 . S
C1768 C1767 1.398 . S
C1768 C1769 1.391 . S
C1769 H1757 0.950 . S
C1769 C1765 1.393 . S
C1769 C1768 1.391 . S
C1770 H1760 0.950 . S
C1770 C1771 1.386 . S
C1770 C1772 1.391 . S
C1771 C1770 1.386 . S
C1771 C1775 1.393 . S
C1772 H1761 0.950 . S
C1772 C1770 1.391 . S
C1772 C1773 1.400 . S
C1773 C1767 1.491 . S
C1773 C1772 1.400 . S
C1773 C1774 1.398 . S
C1774 H1762 0.950 . S
C1774 C1773 1.398 . S
C1774 C1775 1.391 . S
C1775 H1763 0.950 . S
C1775 C1771 1.393 . S
C1775 C1774 1.391 . S
H1776 C1784 0.950 . S
H1777 C1789 0.950 . S
H1778 C1786 0.950 . S
H1779 C1788 0.950 . S
H1780 C1790 0.950 . S
H1781 C1792 0.950 . S
H1782 C1794 0.950 . S
H1783 C1795 0.950 . S
C1784 H1776 0.950 . S
C1784 C1785 1.386 . S
C1784 C1786 1.391 . S
C1785 C1784 1.386 . S
C1785 C1789 1.393 . S
C1786 H1778 0.950 . S
C1786 C1784 1.391 . S
C1786 C1787 1.400 . S
C1787 C1786 1.400 . S
C1787 C1788 1.398 . S
C1787 C1793 1.491 . S
C1788 H1779 0.950 . S
C1788 C1787 1.398 . S
C1788 C1789 1.391 . S
C1789 H1777 0.950 . S
C1789 C1785 1.393 . S
C1789 C1788 1.391 . S
C1790 H1780 0.950 . S
C1790 C1791 1.386 . S
C1790 C1792 1.391 . S
C1791 C1790 1.386 . S
C1791 C1795 1.393 . S
C1792 H1781 0.950 . S
C1792 C1790 1.391 . S
C1792 C1793 1.400 . S
C1793 C1787 1.491 . S
C1793 C1792 1.400 . S
C1793 C1794 1.398 . S
C1794 H1782 0.950 . S
C1794 C1793 1.398 . S
C1794 C1795 1.391 . S
C1795 H1783 0.950 . S
C1795 C1791 1.393 . S
C1795 C1794 1.391 . S
H1796 C1804 0.950 . S
H1797 C1809 0.950 . S
H1798 C1806 0.950 . S
H1799 C1808 0.950 . S
H1800 C1810 0.950 . S
H1801 C1812 0.950 . S
H1802 C1814 0.950 . S
H1803 C1815 0.950 . S
C1804 H1796 0.950 . S
C1804 C1805 1.386 . S
C1804 C1806 1.391 . S
C1805 C1804 1.386 . S
C1805 C1809 1.393 . S
C1806 H1798 0.950 . S
C1806 C1804 1.391 . S
C1806 C1807 1.400 . S
C1807 C1806 1.400 . S
C1807 C1808 1.398 . S
C1807 C1813 1.491 . S
C1808 H1799 0.950 . S
C1808 C1807 1.398 . S
C1808 C1809 1.391 . S
C1809 H1797 0.950 . S
C1809 C1805 1.393 . S
C1809 C1808 1.391 . S
C1810 H1800 0.950 . S
C1810 C1811 1.386 . S
C1810 C1812 1.391 . S
C1811 C1810 1.386 . S
C1811 C1815 1.393 . S
C1812 H1801 0.950 . S
C1812 C1810 1.391 . S
C1812 C1813 1.400 . S
C1813 C1807 1.491 . S
C1813 C1812 1.400 . S
C1813 C1814 1.398 . S
C1814 H1802 0.950 . S
C1814 C1813 1.398 . S
C1814 C1815 1.391 . S
C1815 H1803 0.950 . S
C1815 C1811 1.393 . S
C1815 C1814 1.391 . S
H1816 C1824 0.950 . S
H1817 C1829 0.950 . S
H1818 C1826 0.950 . S
H1819 C1828 0.950 . S
H1820 C1830 0.950 . S
H1821 C1832 0.950 . S
H1822 C1834 0.950 . S
H1823 C1835 0.950 . S
C1824 H1816 0.950 . S
C1824 C1825 1.386 . S
C1824 C1826 1.391 . S
C1825 C1824 1.386 . S
C1825 C1829 1.393 . S
C1826 H1818 0.950 . S
C1826 C1824 1.391 . S
C1826 C1827 1.400 . S
C1827 C1826 1.400 . S
C1827 C1828 1.398 . S
C1827 C1833 1.491 . S
C1828 H1819 0.950 . S
C1828 C1827 1.398 . S
C1828 C1829 1.391 . S
C1829 H1817 0.950 . S
C1829 C1825 1.393 . S
C1829 C1828 1.391 . S
C1830 H1820 0.950 . S
C1830 C1831 1.386 . S
C1830 C1832 1.391 . S
C1831 C1830 1.386 . S
C1831 C1835 1.393 . S
C1832 H1821 0.950 . S
C1832 C1830 1.391 . S
C1832 C1833 1.400 . S
C1833 C1827 1.491 . S
C1833 C1832 1.400 . S
C1833 C1834 1.398 . S
C1834 H1822 0.950 . S
C1834 C1833 1.398 . S
C1834 C1835 1.391 . S
C1835 H1823 0.950 . S
C1835 C1831 1.393 . S
C1835 C1834 1.391 . S
H1836 C1844 0.950 . S
H1837 C1849 0.950 . S
H1838 C1846 0.950 . S
H1839 C1848 0.950 . S
H1840 C1850 0.950 . S
H1841 C1852 0.950 . S
H1842 C1854 0.950 . S
H1843 C1855 0.950 . S
C1844 H1836 0.950 . S
C1844 C1845 1.386 . S
C1844 C1846 1.391 . S
C1845 C1844 1.386 . S
C1845 C1849 1.393 . S
C1846 H1838 0.950 . S
C1846 C1844 1.391 . S
C1846 C1847 1.400 . S
C1847 C1846 1.400 . S
C1847 C1848 1.398 . S
C1847 C1853 1.491 . S
C1848 H1839 0.950 . S
C1848 C1847 1.398 . S
C1848 C1849 1.391 . S
C1849 H1837 0.950 . S
C1849 C1845 1.393 . S
C1849 C1848 1.391 . S
C1850 H1840 0.950 . S
C1850 C1851 1.386 . S
C1850 C1852 1.391 . S
C1851 C1850 1.386 . S
C1851 C1855 1.393 . S
C1852 H1841 0.950 . S
C1852 C1850 1.391 . S
C1852 C1853 1.400 . S
C1853 C1847 1.491 . S
C1853 C1852 1.400 . S
C1853 C1854 1.398 . S
C1854 H1842 0.950 . S
C1854 C1853 1.398 . S
C1854 C1855 1.391 . S
C1855 H1843 0.950 . S
C1855 C1851 1.393 . S
C1855 C1854 1.391 . S
H1856 C1864 0.950 . S
H1857 C1869 0.950 . S
H1858 C1866 0.950 . S
H1859 C1868 0.950 . S
H1860 C1870 0.950 . S
H1861 C1872 0.950 . S
H1862 C1874 0.950 . S
H1863 C1875 0.950 . S
C1864 H1856 0.950 . S
C1864 C1865 1.386 . S
C1864 C1866 1.391 . S
C1865 C1864 1.386 . S
C1865 C1869 1.393 . S
C1866 H1858 0.950 . S
C1866 C1864 1.391 . S
C1866 C1867 1.400 . S
C1867 C1866 1.400 . S
C1867 C1868 1.398 . S
C1867 C1873 1.491 . S
C1868 H1859 0.950 . S
C1868 C1867 1.398 . S
C1868 C1869 1.391 . S
C1869 H1857 0.950 . S
C1869 C1865 1.393 . S
C1869 C1868 1.391 . S
C1870 H1860 0.950 . S
C1870 C1871 1.386 . S
C1870 C1872 1.391 . S
C1871 C1870 1.386 . S
C1871 C1875 1.393 . S
C1872 H1861 0.950 . S
C1872 C1870 1.391 . S
C1872 C1873 1.400 . S
C1873 C1867 1.491 . S
C1873 C1872 1.400 . S
C1873 C1874 1.398 . S
C1874 H1862 0.950 . S
C1874 C1873 1.398 . S
C1874 C1875 1.391 . S
C1875 H1863 0.950 . S
C1875 C1871 1.393 . S
C1875 C1874 1.391 . S
H1876 C1884 0.950 . S
H1877 C1889 0.950 . S
H1878 C1886 0.950 . S
H1879 C1888 0.950 . S
H1880 C1890 0.950 . S
H1881 C1892 0.950 . S
H1882 C1894 0.950 . S
H1883 C1895 0.950 . S
C1884 H1876 0.950 . S
C1884 C1885 1.386 . S
C1884 C1886 1.391 . S
C1885 C1884 1.386 . S
C1885 C1889 1.393 . S
C1886 H1878 0.950 . S
C1886 C1884 1.391 . S
C1886 C1887 1.400 . S
C1887 C1886 1.400 . S
C1887 C1888 1.398 . S
C1887 C1893 1.491 . S
C1888 H1879 0.950 . S
C1888 C1887 1.398 . S
C1888 C1889 1.391 . S
C1889 H1877 0.950 . S
C1889 C1885 1.393 . S
C1889 C1888 1.391 . S
C1890 H1880 0.950 . S
C1890 C1891 1.386 . S
C1890 C1892 1.391 . S
C1891 C1890 1.386 . S
C1891 C1895 1.393 . S
C1892 H1881 0.950 . S
C1892 C1890 1.391 . S
C1892 C1893 1.400 . S
C1893 C1887 1.491 . S
C1893 C1892 1.400 . S
C1893 C1894 1.398 . S
C1894 H1882 0.950 . S
C1894 C1893 1.398 . S
C1894 C1895 1.391 . S
C1895 H1883 0.950 . S
C1895 C1891 1.393 . S
C1895 C1894 1.391 . S
H1896 C1904 0.950 . S
H1897 C1909 0.950 . S
H1898 C1906 0.950 . S
H1899 C1908 0.950 . S
H1900 C1910 0.950 . S
H1901 C1912 0.950 . S
H1902 C1914 0.950 . S
H1903 C1915 0.950 . S
C1904 H1896 0.950 . S
C1904 C1905 1.386 . S
C1904 C1906 1.391 . S
C1905 C1904 1.386 . S
C1905 C1909 1.393 . S
C1906 H1898 0.950 . S
C1906 C1904 1.391 . S
C1906 C1907 1.400 . S
C1907 C1906 1.400 . S
C1907 C1908 1.398 . S
C1907 C1913 1.491 . S
C1908 H1899 0.950 . S
C1908 C1907 1.398 . S
C1908 C1909 1.391 . S
C1909 H1897 0.950 . S
C1909 C1905 1.393 . S
C1909 C1908 1.391 . S
C1910 H1900 0.950 . S
C1910 C1911 1.386 . S
C1910 C1912 1.391 . S
C1911 C1910 1.386 . S
C1911 C1915 1.393 . S
C1912 H1901 0.950 . S
C1912 C1910 1.391 . S
C1912 C1913 1.400 . S
C1913 C1907 1.491 . S
C1913 C1912 1.400 . S
C1913 C1914 1.398 . S
C1914 H1902 0.950 . S
C1914 C1913 1.398 . S
C1914 C1915 1.391 . S
C1915 H1903 0.950 . S
C1915 C1911 1.393 . S
C1915 C1914 1.391 . S
H1916 C1924 0.950 . S
H1917 C1929 0.950 . S
H1918 C1926 0.950 . S
H1919 C1928 0.950 . S
H1920 C1930 0.950 . S
H1921 C1932 0.950 . S
H1922 C1934 0.950 . S
H1923 C1935 0.950 . S
C1924 H1916 0.950 . S
C1924 C1925 1.386 . S
C1924 C1926 1.391 . S
C1925 C1924 1.386 . S
C1925 C1929 1.393 . S
C1926 H1918 0.950 . S
C1926 C1924 1.391 . S
C1926 C1927 1.400 . S
C1927 C1926 1.400 . S
C1927 C1928 1.398 . S
C1927 C1933 1.491 . S
C1928 H1919 0.950 . S
C1928 C1927 1.398 . S
C1928 C1929 1.391 . S
C1929 H1917 0.950 . S
C1929 C1925 1.393 . S
C1929 C1928 1.391 . S
C1930 H1920 0.950 . S
C1930 C1931 1.386 . S
C1930 C1932 1.391 . S
C1931 C1930 1.386 . S
C1931 C1935 1.393 . S
C1932 H1921 0.950 . S
C1932 C1930 1.391 . S
C1932 C1933 1.400 . S
C1933 C1927 1.491 . S
C1933 C1932 1.400 . S
C1933 C1934 1.398 . S
C1934 H1922 0.950 . S
C1934 C1933 1.398 . S
C1934 C1935 1.391 . S
C1935 H1923 0.950 . S
C1935 C1931 1.393 . S
C1935 C1934 1.391 . S
H1936 C1944 0.950 . S
H1937 C1949 0.950 . S
H1938 C1946 0.950 . S
H1939 C1948 0.950 . S
H1940 C1950 0.950 . S
H1941 C1952 0.950 . S
H1942 C1954 0.950 . S
H1943 C1955 0.950 . S
C1944 H1936 0.950 . S
C1944 C1945 1.386 . S
C1944 C1946 1.391 . S
C1945 C1944 1.386 . S
C1945 C1949 1.393 . S
C1946 H1938 0.950 . S
C1946 C1944 1.391 . S
C1946 C1947 1.400 . S
C1947 C1946 1.400 . S
C1947 C1948 1.398 . S
C1947 C1953 1.491 . S
C1948 H1939 0.950 . S
C1948 C1947 1.398 . S
C1948 C1949 1.391 . S
C1949 H1937 0.950 . S
C1949 C1945 1.393 . S
C1949 C1948 1.391 . S
C1950 H1940 0.950 . S
C1950 C1951 1.386 . S
C1950 C1952 1.391 . S
C1951 C1950 1.386 . S
C1951 C1955 1.393 . S
C1952 H1941 0.950 . S
C1952 C1950 1.391 . S
C1952 C1953 1.400 . S
C1953 C1947 1.491 . S
C1953 C1952 1.400 . S
C1953 C1954 1.398 . S
C1954 H1942 0.950 . S
C1954 C1953 1.398 . S
C1954 C1955 1.391 . S
C1955 H1943 0.950 . S
C1955 C1951 1.393 . S
C1955 C1954 1.391 . S
H1956 C1964 0.950 . S
H1957 C1969 0.950 . S
H1958 C1966 0.950 . S
H1959 C1968 0.950 . S
H1960 C1970 0.950 . S
H1961 C1972 0.950 . S
H1962 C1974 0.950 . S
H1963 C1975 0.950 . S
C1964 H1956 0.950 . S
C1964 C1965 1.386 . S
C1964 C1966 1.391 . S
C1965 C1964 1.386 . S
C1965 C1969 1.393 . S
C1966 H1958 0.950 . S
C1966 C1964 1.391 . S
C1966 C1967 1.400 . S
C1967 C1966 1.400 . S
C1967 C1968 1.398 . S
C1967 C1973 1.491 . S
C1968 H1959 0.950 . S
C1968 C1967 1.398 . S
C1968 C1969 1.391 . S
C1969 H1957 0.950 . S
C1969 C1965 1.393 . S
C1969 C1968 1.391 . S
C1970 H1960 0.950 . S
C1970 C1971 1.386 . S
C1970 C1972 1.391 . S
C1971 C1970 1.386 . S
C1971 C1975 1.393 . S
C1972 H1961 0.950 . S
C1972 C1970 1.391 . S
C1972 C1973 1.400 . S
C1973 C1967 1.491 . S
C1973 C1972 1.400 . S
C1973 C1974 1.398 . S
C1974 H1962 0.950 . S
C1974 C1973 1.398 . S
C1974 C1975 1.391 . S
C1975 H1963 0.950 . S
C1975 C1971 1.393 . S
C1975 C1974 1.391 . S
H1976 C1984 0.950 . S
H1977 C1989 0.950 . S
H1978 C1986 0.950 . S
H1979 C1988 0.950 . S
H1980 C1990 0.950 . S
H1981 C1992 0.950 . S
H1982 C1994 0.950 . S
H1983 C1995 0.950 . S
C1984 H1976 0.950 . S
C1984 C1985 1.386 . S
C1984 C1986 1.391 . S
C1985 C1984 1.386 . S
C1985 C1989 1.393 . S
C1986 H1978 0.950 . S
C1986 C1984 1.391 . S
C1986 C1987 1.400 . S
C1987 C1986 1.400 . S
C1987 C1988 1.398 . S
C1987 C1993 1.491 . S
C1988 H1979 0.950 . S
C1988 C1987 1.398 . S
C1988 C1989 1.391 . S
C1989 H1977 0.950 . S
C1989 C1985 1.393 . S
C1989 C1988 1.391 . S
C1990 H1980 0.950 . S
C1990 C1991 1.386 . S
C1990 C1992 1.391 . S
C1991 C1990 1.386 . S
C1991 C1995 1.393 . S
C1992 H1981 0.950 . S
C1992 C1990 1.391 . S
C1992 C1993 1.400 . S
C1993 C1987 1.491 . S
C1993 C1992 1.400 . S
C1993 C1994 1.398 . S
C1994 H1982 0.950 . S
C1994 C1993 1.398 . S
C1994 C1995 1.391 . S
C1995 H1983 0.950 . S
C1995 C1991 1.393 . S
C1995 C1994 1.391 . S
H1996 C2004 0.950 . S
H1997 C2009 0.950 . S
H1998 C2006 0.950 . S
H1999 C2008 0.950 . S
H2000 C2010 0.950 . S
H2001 C2012 0.950 . S
H2002 C2014 0.950 . S
H2003 C2015 0.950 1_545 S
C2004 H1996 0.950 . S
C2004 C2005 1.386 . S
C2004 C2006 1.391 . S
C2005 C2004 1.386 . S
C2005 C2009 1.393 . S
C2006 H1998 0.950 . S
C2006 C2004 1.391 . S
C2006 C2007 1.400 . S
C2007 C2006 1.400 . S
C2007 C2008 1.398 . S
C2007 C2013 1.491 . S
C2008 H1999 0.950 . S
C2008 C2007 1.398 . S
C2008 C2009 1.391 . S
C2009 H1997 0.950 . S
C2009 C2005 1.393 . S
C2009 C2008 1.391 . S
C2010 H2000 0.950 . S
C2010 C2011 1.386 . S
C2010 C2012 1.391 . S
C2011 C2010 1.386 . S
C2011 C2015 1.393 . S
C2012 H2001 0.950 . S
C2012 C2010 1.391 . S
C2012 C2013 1.400 . S
C2013 C2007 1.491 . S
C2013 C2012 1.400 . S
C2013 C2014 1.398 . S
C2014 H2002 0.950 . S
C2014 C2013 1.398 . S
C2014 C2015 1.391 . S
C2015 H2003 0.950 1_565 S
C2015 C2011 1.393 . S
C2015 C2014 1.391 . S
H2016 C2024 0.950 . S
H2017 C2029 0.950 . S
H2018 C2026 0.950 . S
H2019 C2028 0.950 . S
H2020 C2030 0.950 . S
H2021 C2032 0.950 . S
H2022 C2034 0.950 . S
H2023 C2035 0.950 . S
C2024 H2016 0.950 . S
C2024 C2025 1.386 . S
C2024 C2026 1.391 . S
C2025 C2024 1.386 . S
C2025 C2029 1.393 . S
C2026 H2018 0.950 . S
C2026 C2024 1.391 . S
C2026 C2027 1.400 . S
C2027 C2026 1.400 . S
C2027 C2028 1.398 . S
C2027 C2033 1.491 . S
C2028 H2019 0.950 . S
C2028 C2027 1.398 . S
C2028 C2029 1.391 . S
C2029 H2017 0.950 . S
C2029 C2025 1.393 . S
C2029 C2028 1.391 . S
C2030 H2020 0.950 . S
C2030 C2031 1.386 . S
C2030 C2032 1.391 . S
C2031 C2030 1.386 . S
C2031 C2035 1.393 . S
C2032 H2021 0.950 . S
C2032 C2030 1.391 . S
C2032 C2033 1.400 . S
C2033 C2027 1.491 . S
C2033 C2032 1.400 . S
C2033 C2034 1.398 . S
C2034 H2022 0.950 . S
C2034 C2033 1.398 . S
C2034 C2035 1.391 . S
C2035 H2023 0.950 . S
C2035 C2031 1.393 . S
C2035 C2034 1.391 . S
H2036 C2044 0.950 . S
H2037 C2049 0.950 . S
H2038 C2046 0.950 1_556 S
H2039 C2048 0.950 . S
H2040 C2050 0.950 . S
H2041 C2052 0.950 . S
H2042 C2054 0.950 . S
H2043 C2055 0.950 . S
C2044 H2036 0.950 . S
C2044 C2045 1.386 1_556 S
C2044 C2046 1.391 1_556 S
C2045 C2044 1.386 1_554 S
C2045 C2049 1.393 . S
C2046 H2038 0.950 1_554 S
C2046 C2044 1.391 1_554 S
C2046 C2047 1.400 . S
C2047 C2046 1.400 . S
C2047 C2048 1.398 . S
C2047 C2053 1.491 . S
C2048 H2039 0.950 . S
C2048 C2047 1.398 . S
C2048 C2049 1.391 . S
C2049 H2037 0.950 . S
C2049 C2045 1.393 . S
C2049 C2048 1.391 . S
C2050 H2040 0.950 . S
C2050 C2051 1.386 . S
C2050 C2052 1.391 . S
C2051 C2050 1.386 . S
C2051 C2055 1.393 . S
C2052 H2041 0.950 . S
C2052 C2050 1.391 . S
C2052 C2053 1.400 . S
C2053 C2047 1.491 . S
C2053 C2052 1.400 . S
C2053 C2054 1.398 . S
C2054 H2042 0.950 . S
C2054 C2053 1.398 . S
C2054 C2055 1.391 . S
C2055 H2043 0.950 . S
C2055 C2051 1.393 . S
C2055 C2054 1.391 . S
H2056 C2064 0.950 . S
H2057 C2069 0.950 . S
H2058 C2066 0.950 . S
H2059 C2068 0.950 . S
H2060 C2070 0.950 . S
H2061 C2072 0.950 . S
H2062 C2074 0.950 . S
H2063 C2075 0.950 . S
C2064 H2056 0.950 . S
C2064 C2065 1.386 . S
C2064 C2066 1.391 . S
C2065 C2064 1.386 . S
C2065 C2069 1.393 . S
C2066 H2058 0.950 . S
C2066 C2064 1.391 . S
C2066 C2067 1.400 . S
C2067 C2066 1.400 . S
C2067 C2068 1.398 . S
C2067 C2073 1.491 . S
C2068 H2059 0.950 . S
C2068 C2067 1.398 . S
C2068 C2069 1.391 . S
C2069 H2057 0.950 . S
C2069 C2065 1.393 . S
C2069 C2068 1.391 . S
C2070 H2060 0.950 . S
C2070 C2071 1.386 . S
C2070 C2072 1.391 . S
C2071 C2070 1.386 . S
C2071 C2075 1.393 . S
C2072 H2061 0.950 . S
C2072 C2070 1.391 . S
C2072 C2073 1.400 . S
C2073 C2067 1.491 . S
C2073 C2072 1.400 . S
C2073 C2074 1.398 . S
C2074 H2062 0.950 . S
C2074 C2073 1.398 . S
C2074 C2075 1.391 . S
C2075 H2063 0.950 . S
C2075 C2071 1.393 . S
C2075 C2074 1.391 . S
H2076 C2084 0.950 . S
H2077 C2089 0.950 . S
H2078 C2086 0.950 . S
H2079 C2088 0.950 . S
H2080 C2090 0.950 . S
H2081 C2092 0.950 . S
H2082 C2094 0.950 . S
H2083 C2095 0.950 . S
C2084 H2076 0.950 . S
C2084 C2085 1.386 . S
C2084 C2086 1.391 . S
C2085 C2084 1.386 . S
C2085 C2089 1.393 . S
C2086 H2078 0.950 . S
C2086 C2084 1.391 . S
C2086 C2087 1.400 . S
C2087 C2086 1.400 . S
C2087 C2088 1.398 . S
C2087 C2093 1.491 . S
C2088 H2079 0.950 . S
C2088 C2087 1.398 . S
C2088 C2089 1.391 . S
C2089 H2077 0.950 . S
C2089 C2085 1.393 . S
C2089 C2088 1.391 . S
C2090 H2080 0.950 . S
C2090 C2091 1.386 . S
C2090 C2092 1.391 . S
C2091 C2090 1.386 . S
C2091 C2095 1.393 . S
C2092 H2081 0.950 . S
C2092 C2090 1.391 . S
C2092 C2093 1.400 . S
C2093 C2087 1.491 . S
C2093 C2092 1.400 . S
C2093 C2094 1.398 . S
C2094 H2082 0.950 . S
C2094 C2093 1.398 . S
C2094 C2095 1.391 . S
C2095 H2083 0.950 . S
C2095 C2091 1.393 . S
C2095 C2094 1.391 . S
H2096 C2104 0.950 . S
H2097 C2109 0.950 . S
H2098 C2106 0.950 . S
H2099 C2108 0.950 . S
H2100 C2110 0.950 . S
H2101 C2112 0.950 . S
H2102 C2114 0.950 . S
H2103 C2115 0.950 . S
C2104 H2096 0.950 . S
C2104 C2105 1.386 . S
C2104 C2106 1.391 . S
C2105 C2104 1.386 . S
C2105 C2109 1.393 . S
C2106 H2098 0.950 . S
C2106 C2104 1.391 . S
C2106 C2107 1.400 . S
C2107 C2106 1.400 . S
C2107 C2108 1.398 . S
C2107 C2113 1.491 . S
C2108 H2099 0.950 . S
C2108 C2107 1.398 . S
C2108 C2109 1.391 . S
C2109 H2097 0.950 . S
C2109 C2105 1.393 . S
C2109 C2108 1.391 . S
C2110 H2100 0.950 . S
C2110 C2111 1.386 . S
C2110 C2112 1.391 . S
C2111 C2110 1.386 . S
C2111 C2115 1.393 . S
C2112 H2101 0.950 . S
C2112 C2110 1.391 . S
C2112 C2113 1.400 . S
C2113 C2107 1.491 . S
C2113 C2112 1.400 . S
C2113 C2114 1.398 . S
C2114 H2102 0.950 . S
C2114 C2113 1.398 . S
C2114 C2115 1.391 . S
C2115 H2103 0.950 . S
C2115 C2111 1.393 . S
C2115 C2114 1.391 . S
H2116 C2124 0.950 . S
H2117 C2129 0.950 . S
H2118 C2126 0.950 . S
H2119 C2128 0.950 . S
H2120 C2130 0.950 . S
H2121 C2132 0.950 . S
H2122 C2134 0.950 . S
H2123 C2135 0.950 . S
C2124 H2116 0.950 . S
C2124 C2125 1.386 . S
C2124 C2126 1.391 . S
C2125 C2124 1.386 . S
C2125 C2129 1.393 . S
C2126 H2118 0.950 . S
C2126 C2124 1.391 . S
C2126 C2127 1.400 . S
C2127 C2126 1.400 . S
C2127 C2128 1.398 . S
C2127 C2133 1.491 . S
C2128 H2119 0.950 . S
C2128 C2127 1.398 . S
C2128 C2129 1.391 . S
C2129 H2117 0.950 . S
C2129 C2125 1.393 . S
C2129 C2128 1.391 . S
C2130 H2120 0.950 . S
C2130 C2131 1.386 . S
C2130 C2132 1.391 . S
C2131 C2130 1.386 . S
C2131 C2135 1.393 . S
C2132 H2121 0.950 . S
C2132 C2130 1.391 . S
C2132 C2133 1.400 . S
C2133 C2127 1.491 . S
C2133 C2132 1.400 . S
C2133 C2134 1.398 . S
C2134 H2122 0.950 . S
C2134 C2133 1.398 . S
C2134 C2135 1.391 . S
C2135 H2123 0.950 . S
C2135 C2131 1.393 . S
C2135 C2134 1.391 . S
H2136 C2144 0.950 . S
H2137 C2149 0.950 . S
H2138 C2146 0.950 . S
H2139 C2148 0.950 . S
H2140 C2150 0.950 . S
H2141 C2152 0.950 . S
H2142 C2154 0.950 . S
H2143 C2155 0.950 . S
C2144 H2136 0.950 . S
C2144 C2145 1.386 . S
C2144 C2146 1.391 . S
C2145 C2144 1.386 . S
C2145 C2149 1.393 . S
C2146 H2138 0.950 . S
C2146 C2144 1.391 . S
C2146 C2147 1.400 . S
C2147 C2146 1.400 . S
C2147 C2148 1.398 . S
C2147 C2153 1.491 . S
C2148 H2139 0.950 . S
C2148 C2147 1.398 . S
C2148 C2149 1.391 . S
C2149 H2137 0.950 . S
C2149 C2145 1.393 . S
C2149 C2148 1.391 . S
C2150 H2140 0.950 . S
C2150 C2151 1.386 . S
C2150 C2152 1.391 . S
C2151 C2150 1.386 . S
C2151 C2155 1.393 . S
C2152 H2141 0.950 . S
C2152 C2150 1.391 . S
C2152 C2153 1.400 . S
C2153 C2147 1.491 . S
C2153 C2152 1.400 . S
C2153 C2154 1.398 . S
C2154 H2142 0.950 . S
C2154 C2153 1.398 . S
C2154 C2155 1.391 . S
C2155 H2143 0.950 . S
C2155 C2151 1.393 . S
C2155 C2154 1.391 . S
H2156 C2164 0.950 . S
H2157 C2169 0.950 . S
H2158 C2166 0.950 . S
H2159 C2168 0.950 . S
H2160 C2170 0.950 . S
H2161 C2172 0.950 . S
H2162 C2174 0.950 . S
H2163 C2175 0.950 . S
C2164 H2156 0.950 . S
C2164 C2165 1.386 . S
C2164 C2166 1.391 . S
C2165 C2164 1.386 . S
C2165 C2169 1.393 . S
C2166 H2158 0.950 . S
C2166 C2164 1.391 . S
C2166 C2167 1.400 . S
C2167 C2166 1.400 . S
C2167 C2168 1.398 . S
C2167 C2173 1.491 . S
C2168 H2159 0.950 . S
C2168 C2167 1.398 . S
C2168 C2169 1.391 . S
C2169 H2157 0.950 . S
C2169 C2165 1.393 . S
C2169 C2168 1.391 . S
C2170 H2160 0.950 . S
C2170 C2171 1.386 . S
C2170 C2172 1.391 . S
C2171 C2170 1.386 . S
C2171 C2175 1.393 . S
C2172 H2161 0.950 . S
C2172 C2170 1.391 . S
C2172 C2173 1.400 . S
C2173 C2167 1.491 . S
C2173 C2172 1.400 . S
C2173 C2174 1.398 . S
C2174 H2162 0.950 . S
C2174 C2173 1.398 . S
C2174 C2175 1.391 . S
C2175 H2163 0.950 . S
C2175 C2171 1.393 . S
C2175 C2174 1.391 . S
H2176 C2184 0.950 . S
H2177 C2189 0.950 . S
H2178 C2186 0.950 . S
H2179 C2188 0.950 . S
H2180 C2190 0.950 1_554 S
H2181 C2192 0.950 . S
H2182 C2194 0.950 . S
H2183 C2195 0.950 . S
C2184 H2176 0.950 . S
C2184 C2185 1.386 . S
C2184 C2186 1.391 . S
C2185 C2184 1.386 . S
C2185 C2189 1.393 . S
C2186 H2178 0.950 . S
C2186 C2184 1.391 . S
C2186 C2187 1.400 . S
C2187 C2186 1.400 . S
C2187 C2188 1.398 . S
C2187 C2193 1.491 . S
C2188 H2179 0.950 . S
C2188 C2187 1.398 . S
C2188 C2189 1.391 . S
C2189 H2177 0.950 . S
C2189 C2185 1.393 . S
C2189 C2188 1.391 . S
C2190 H2180 0.950 1_556 S
C2190 C2191 1.386 . S
C2190 C2192 1.391 . S
C2191 C2190 1.386 . S
C2191 C2195 1.393 . S
C2192 H2181 0.950 . S
C2192 C2190 1.391 . S
C2192 C2193 1.400 . S
C2193 C2187 1.491 . S
C2193 C2192 1.400 . S
C2193 C2194 1.398 . S
C2194 H2182 0.950 . S
C2194 C2193 1.398 . S
C2194 C2195 1.391 . S
C2195 H2183 0.950 . S
C2195 C2191 1.393 . S
C2195 C2194 1.391 . S
H2196 C2204 0.950 . S
H2197 C2209 0.950 . S
H2198 C2206 0.950 . S
H2199 C2208 0.950 . S
H2200 C2210 0.950 . S
H2201 C2212 0.950 . S
H2202 C2214 0.950 . S
H2203 C2215 0.950 . S
C2204 H2196 0.950 . S
C2204 C2205 1.386 . S
C2204 C2206 1.391 . S
C2205 C2204 1.386 . S
C2205 C2209 1.393 . S
C2206 H2198 0.950 . S
C2206 C2204 1.391 . S
C2206 C2207 1.400 . S
C2207 C2206 1.400 . S
C2207 C2208 1.398 . S
C2207 C2213 1.491 . S
C2208 H2199 0.950 . S
C2208 C2207 1.398 . S
C2208 C2209 1.391 . S
C2209 H2197 0.950 . S
C2209 C2205 1.393 . S
C2209 C2208 1.391 . S
C2210 H2200 0.950 . S
C2210 C2211 1.386 . S
C2210 C2212 1.391 . S
C2211 C2210 1.386 . S
C2211 C2215 1.393 . S
C2212 H2201 0.950 . S
C2212 C2210 1.391 . S
C2212 C2213 1.400 . S
C2213 C2207 1.491 . S
C2213 C2212 1.400 . S
C2213 C2214 1.398 . S
C2214 H2202 0.950 . S
C2214 C2213 1.398 . S
C2214 C2215 1.391 . S
C2215 H2203 0.950 . S
C2215 C2211 1.393 . S
C2215 C2214 1.391 . S
H2216 C2224 0.950 1_655 S
H2217 C2229 0.950 . S
H2218 C2226 0.950 1_655 S
H2219 C2228 0.950 . S
H2220 C2230 0.950 . S
H2221 C2232 0.950 . S
H2222 C2234 0.950 1_655 S
H2223 C2235 0.951 1_655 S
C2224 H2216 0.950 1_455 S
C2224 C2225 1.386 . S
C2224 C2226 1.391 . S
C2225 C2224 1.386 . S
C2225 C2229 1.393 . S
C2226 H2218 0.950 1_455 S
C2226 C2224 1.391 . S
C2226 C2227 1.400 . S
C2227 C2226 1.400 . S
C2227 C2228 1.398 . S
C2227 C2233 1.491 . S
C2228 H2219 0.950 . S
C2228 C2227 1.398 . S
C2228 C2229 1.391 . S
C2229 H2217 0.950 . S
C2229 C2225 1.393 . S
C2229 C2228 1.391 . S
C2230 H2220 0.950 . S
C2230 C2231 1.386 . S
C2230 C2232 1.391 . S
C2231 C2230 1.386 . S
C2231 C2235 1.392 . S
C2232 H2221 0.950 . S
C2232 C2230 1.391 . S
C2232 C2233 1.400 . S
C2233 C2227 1.491 . S
C2233 C2232 1.400 . S
C2233 C2234 1.398 . S
C2234 H2222 0.950 1_455 S
C2234 C2233 1.398 . S
C2234 C2235 1.390 . S
C2235 H2223 0.951 1_455 S
C2235 C2231 1.392 . S
C2235 C2234 1.390 . S
H2236 C2244 0.950 . S
H2237 C2249 0.950 . S
H2238 C2246 0.950 . S
H2239 C2248 0.950 . S
H2240 C2250 0.950 . S
H2241 C2252 0.950 . S
H2242 C2254 0.950 . S
H2243 C2255 0.950 . S
C2244 H2236 0.950 . S
C2244 C2245 1.386 . S
C2244 C2246 1.391 . S
C2245 C2244 1.386 . S
C2245 C2249 1.393 . S
C2246 H2238 0.950 . S
C2246 C2244 1.391 . S
C2246 C2247 1.400 . S
C2247 C2246 1.400 . S
C2247 C2248 1.398 . S
C2247 C2253 1.491 . S
C2248 H2239 0.950 . S
C2248 C2247 1.398 . S
C2248 C2249 1.391 . S
C2249 H2237 0.950 . S
C2249 C2245 1.393 . S
C2249 C2248 1.391 . S
C2250 H2240 0.950 . S
C2250 C2251 1.386 . S
C2250 C2252 1.391 . S
C2251 C2250 1.386 . S
C2251 C2255 1.393 . S
C2252 H2241 0.950 . S
C2252 C2250 1.391 . S
C2252 C2253 1.400 . S
C2253 C2247 1.491 . S
C2253 C2252 1.400 . S
C2253 C2254 1.398 . S
C2254 H2242 0.950 . S
C2254 C2253 1.398 . S
C2254 C2255 1.391 . S
C2255 H2243 0.950 . S
C2255 C2251 1.393 . S
C2255 C2254 1.391 . S
H2256 C2264 0.950 . S
H2257 C2269 0.950 . S
H2258 C2266 0.950 . S
H2259 C2268 0.950 . S
H2260 C2270 0.950 . S
H2261 C2272 0.950 . S
H2262 C2274 0.950 . S
H2263 C2275 0.950 . S
C2264 H2256 0.950 . S
C2264 C2265 1.386 . S
C2264 C2266 1.391 . S
C2265 C2264 1.386 . S
C2265 C2269 1.393 . S
C2266 H2258 0.950 . S
C2266 C2264 1.391 . S
C2266 C2267 1.400 . S
C2267 C2266 1.400 . S
C2267 C2268 1.398 . S
C2267 C2273 1.491 . S
C2268 H2259 0.950 . S
C2268 C2267 1.398 . S
C2268 C2269 1.391 . S
C2269 H2257 0.950 . S
C2269 C2265 1.393 . S
C2269 C2268 1.391 . S
C2270 H2260 0.950 . S
C2270 C2271 1.386 . S
C2270 C2272 1.391 . S
C2271 C2270 1.386 . S
C2271 C2275 1.393 . S
C2272 H2261 0.950 . S
C2272 C2270 1.391 . S
C2272 C2273 1.400 . S
C2273 C2267 1.491 . S
C2273 C2272 1.400 . S
C2273 C2274 1.398 . S
C2274 H2262 0.950 . S
C2274 C2273 1.398 . S
C2274 C2275 1.391 . S
C2275 H2263 0.950 . S
C2275 C2271 1.393 . S
C2275 C2274 1.391 . S
H2276 C2284 0.950 . S
H2277 C2289 0.950 . S
H2278 C2286 0.950 . S
H2279 C2288 0.950 . S
H2280 C2290 0.950 . S
H2281 C2292 0.950 . S
H2282 C2294 0.950 . S
H2283 C2295 0.950 . S
C2284 H2276 0.950 . S
C2284 C2285 1.386 . S
C2284 C2286 1.391 . S
C2285 C2284 1.386 . S
C2285 C2289 1.393 . S
C2286 H2278 0.950 . S
C2286 C2284 1.391 . S
C2286 C2287 1.400 . S
C2287 C2286 1.400 . S
C2287 C2288 1.398 . S
C2287 C2293 1.491 . S
C2288 H2279 0.950 . S
C2288 C2287 1.398 . S
C2288 C2289 1.391 . S
C2289 H2277 0.950 . S
C2289 C2285 1.393 . S
C2289 C2288 1.391 . S
C2290 H2280 0.950 . S
C2290 C2291 1.386 . S
C2290 C2292 1.391 . S
C2291 C2290 1.386 . S
C2291 C2295 1.393 . S
C2292 H2281 0.950 . S
C2292 C2290 1.391 . S
C2292 C2293 1.400 . S
C2293 C2287 1.491 . S
C2293 C2292 1.400 . S
C2293 C2294 1.398 . S
C2294 H2282 0.950 . S
C2294 C2293 1.398 . S
C2294 C2295 1.391 . S
C2295 H2283 0.950 . S
C2295 C2291 1.393 . S
C2295 C2294 1.391 . S
H2296 C2304 0.950 . S
H2297 C2309 0.950 . S
H2298 C2306 0.950 . S
H2299 C2308 0.950 . S
H2300 C2310 0.950 . S
H2301 C2312 0.952 1_455 S
H2302 C2314 0.950 . S
H2303 C2315 0.950 . S
C2304 H2296 0.950 . S
C2304 C2305 1.386 . S
C2304 C2306 1.391 . S
C2305 C2304 1.386 . S
C2305 C2309 1.393 . S
C2306 H2298 0.950 . S
C2306 C2304 1.391 . S
C2306 C2307 1.400 . S
C2307 C2306 1.400 . S
C2307 C2308 1.398 . S
C2307 C2313 1.491 . S
C2308 H2299 0.950 . S
C2308 C2307 1.398 . S
C2308 C2309 1.391 . S
C2309 H2297 0.950 . S
C2309 C2305 1.393 . S
C2309 C2308 1.391 . S
C2310 H2300 0.950 . S
C2310 C2311 1.386 1_455 S
C2310 C2312 1.391 1_455 S
C2311 C2310 1.386 1_655 S
C2311 C2315 1.393 . S
C2312 H2301 0.952 1_655 S
C2312 C2310 1.391 1_655 S
C2312 C2313 1.400 . S
C2313 C2307 1.491 . S
C2313 C2312 1.400 . S
C2313 C2314 1.398 . S
C2314 H2302 0.950 . S
C2314 C2313 1.398 . S
C2314 C2315 1.391 . S
C2315 H2303 0.950 . S
C2315 C2311 1.393 . S
C2315 C2314 1.391 . S
H2316 C2324 0.950 . S
H2317 C2329 0.950 . S
H2318 C2326 0.950 . S
H2319 C2328 0.950 . S
H2320 C2330 0.950 . S
H2321 C2332 0.950 . S
H2322 C2334 0.950 . S
H2323 C2335 0.950 . S
C2324 H2316 0.950 . S
C2324 C2325 1.386 . S
C2324 C2326 1.391 . S
C2325 C2324 1.386 . S
C2325 C2329 1.393 . S
C2326 H2318 0.950 . S
C2326 C2324 1.391 . S
C2326 C2327 1.400 . S
C2327 C2326 1.400 . S
C2327 C2328 1.398 . S
C2327 C2333 1.491 . S
C2328 H2319 0.950 . S
C2328 C2327 1.398 . S
C2328 C2329 1.391 . S
C2329 H2317 0.950 . S
C2329 C2325 1.393 . S
C2329 C2328 1.391 . S
C2330 H2320 0.950 . S
C2330 C2331 1.386 . S
C2330 C2332 1.391 . S
C2331 C2330 1.386 . S
C2331 C2335 1.393 . S
C2332 H2321 0.950 . S
C2332 C2330 1.391 . S
C2332 C2333 1.400 . S
C2333 C2327 1.491 . S
C2333 C2332 1.400 . S
C2333 C2334 1.398 . S
C2334 H2322 0.950 . S
C2334 C2333 1.398 . S
C2334 C2335 1.391 . S
C2335 H2323 0.950 . S
C2335 C2331 1.393 . S
C2335 C2334 1.391 . S
H2336 C2344 0.950 . S
H2337 C2349 0.950 . S
H2338 C2346 0.950 . S
H2339 C2348 0.950 . S
H2340 C2350 0.950 . S
H2341 C2352 0.950 . S
H2342 C2354 0.950 . S
H2343 C2355 0.950 . S
C2344 H2336 0.950 . S
C2344 C2345 1.386 . S
C2344 C2346 1.391 . S
C2345 C2344 1.386 . S
C2345 C2349 1.393 . S
C2346 H2338 0.950 . S
C2346 C2344 1.391 . S
C2346 C2347 1.400 . S
C2347 C2346 1.400 . S
C2347 C2348 1.398 . S
C2347 C2353 1.491 . S
C2348 H2339 0.950 . S
C2348 C2347 1.398 . S
C2348 C2349 1.391 . S
C2349 H2337 0.950 . S
C2349 C2345 1.393 . S
C2349 C2348 1.391 . S
C2350 H2340 0.950 . S
C2350 C2351 1.386 . S
C2350 C2352 1.391 . S
C2351 C2350 1.386 . S
C2351 C2355 1.393 . S
C2352 H2341 0.950 . S
C2352 C2350 1.391 . S
C2352 C2353 1.400 . S
C2353 C2347 1.491 . S
C2353 C2352 1.400 . S
C2353 C2354 1.398 . S
C2354 H2342 0.950 . S
C2354 C2353 1.398 . S
C2354 C2355 1.391 . S
C2355 H2343 0.950 . S
C2355 C2351 1.393 . S
C2355 C2354 1.391 . S
H2356 C2364 0.950 . S
H2357 C2369 0.950 . S
H2358 C2366 0.950 . S
H2359 C2368 0.950 . S
H2360 C2370 0.950 . S
H2361 C2372 0.950 . S
H2362 C2374 0.950 . S
H2363 C2375 0.950 . S
C2364 H2356 0.950 . S
C2364 C2365 1.386 . S
C2364 C2366 1.391 . S
C2365 C2364 1.386 . S
C2365 C2369 1.393 . S
C2366 H2358 0.950 . S
C2366 C2364 1.391 . S
C2366 C2367 1.400 . S
C2367 C2366 1.400 . S
C2367 C2368 1.398 . S
C2367 C2373 1.491 . S
C2368 H2359 0.950 . S
C2368 C2367 1.398 . S
C2368 C2369 1.391 . S
C2369 H2357 0.950 . S
C2369 C2365 1.393 . S
C2369 C2368 1.391 . S
C2370 H2360 0.950 . S
C2370 C2371 1.386 . S
C2370 C2372 1.391 . S
C2371 C2370 1.386 . S
C2371 C2375 1.393 . S
C2372 H2361 0.950 . S
C2372 C2370 1.391 . S
C2372 C2373 1.400 . S
C2373 C2367 1.491 . S
C2373 C2372 1.400 . S
C2373 C2374 1.398 . S
C2374 H2362 0.950 . S
C2374 C2373 1.398 . S
C2374 C2375 1.391 . S
C2375 H2363 0.950 . S
C2375 C2371 1.393 . S
C2375 C2374 1.391 . S
H2376 C2384 0.950 . S
H2377 C2389 0.950 . S
H2378 C2386 0.950 . S
H2379 C2388 0.950 . S
H2380 C2390 0.950 . S
H2381 C2392 0.950 . S
H2382 C2394 0.950 . S
H2383 C2395 0.950 . S
C2384 H2376 0.950 . S
C2384 C2385 1.386 . S
C2384 C2386 1.391 . S
C2385 C2384 1.386 . S
C2385 C2389 1.393 . S
C2386 H2378 0.950 . S
C2386 C2384 1.391 . S
C2386 C2387 1.400 . S
C2387 C2386 1.400 . S
C2387 C2388 1.398 . S
C2387 C2393 1.491 . S
C2388 H2379 0.950 . S
C2388 C2387 1.398 . S
C2388 C2389 1.391 . S
C2389 H2377 0.950 . S
C2389 C2385 1.393 . S
C2389 C2388 1.391 . S
C2390 H2380 0.950 . S
C2390 C2391 1.386 . S
C2390 C2392 1.391 . S
C2391 C2390 1.386 . S
C2391 C2395 1.393 . S
C2392 H2381 0.950 . S
C2392 C2390 1.391 . S
C2392 C2393 1.400 . S
C2393 C2387 1.491 . S
C2393 C2392 1.400 . S
C2393 C2394 1.398 . S
C2394 H2382 0.950 . S
C2394 C2393 1.398 . S
C2394 C2395 1.391 . S
C2395 H2383 0.950 . S
C2395 C2391 1.393 . S
C2395 C2394 1.391 . S
H2396 C2404 0.950 . S
H2397 C2409 0.950 . S
H2398 C2406 0.950 . S
H2399 C2408 0.950 . S
H2400 C2410 0.950 . S
H2401 C2412 0.950 . S
H2402 C2414 0.950 . S
H2403 C2415 0.950 . S
C2404 H2396 0.950 . S
C2404 C2405 1.386 . S
C2404 C2406 1.391 . S
C2405 C2404 1.386 . S
C2405 C2409 1.393 . S
C2406 H2398 0.950 . S
C2406 C2404 1.391 . S
C2406 C2407 1.400 . S
C2407 C2406 1.400 . S
C2407 C2408 1.398 . S
C2407 C2413 1.491 . S
C2408 H2399 0.950 . S
C2408 C2407 1.398 . S
C2408 C2409 1.391 . S
C2409 H2397 0.950 . S
C2409 C2405 1.393 . S
C2409 C2408 1.391 . S
C2410 H2400 0.950 . S
C2410 C2411 1.386 . S
C2410 C2412 1.391 . S
C2411 C2410 1.386 . S
C2411 C2415 1.393 . S
C2412 H2401 0.950 . S
C2412 C2410 1.391 . S
C2412 C2413 1.400 . S
C2413 C2407 1.491 . S
C2413 C2412 1.400 . S
C2413 C2414 1.398 . S
C2414 H2402 0.950 . S
C2414 C2413 1.398 . S
C2414 C2415 1.391 . S
C2415 H2403 0.950 . S
C2415 C2411 1.393 . S
C2415 C2414 1.391 . S
H2416 C2424 0.950 . S
H2417 C2429 0.950 . S
H2418 C2426 0.950 . S
H2419 C2428 0.950 . S
H2420 C2430 0.950 . S
H2421 C2432 0.950 . S
H2422 C2434 0.950 . S
H2423 C2435 0.950 . S
C2424 H2416 0.950 . S
C2424 C2425 1.386 . S
C2424 C2426 1.391 . S
C2425 C2424 1.386 . S
C2425 C2429 1.393 . S
C2426 H2418 0.950 . S
C2426 C2424 1.391 . S
C2426 C2427 1.400 . S
C2427 C2426 1.400 . S
C2427 C2428 1.398 . S
C2427 C2433 1.491 . S
C2428 H2419 0.950 . S
C2428 C2427 1.398 . S
C2428 C2429 1.391 . S
C2429 H2417 0.950 . S
C2429 C2425 1.393 . S
C2429 C2428 1.391 . S
C2430 H2420 0.950 . S
C2430 C2431 1.386 . S
C2430 C2432 1.391 . S
C2431 C2430 1.386 . S
C2431 C2435 1.393 . S
C2432 H2421 0.950 . S
C2432 C2430 1.391 . S
C2432 C2433 1.400 . S
C2433 C2427 1.491 . S
C2433 C2432 1.400 . S
C2433 C2434 1.398 . S
C2434 H2422 0.950 . S
C2434 C2433 1.398 . S
C2434 C2435 1.391 . S
C2435 H2423 0.950 . S
C2435 C2431 1.393 . S
C2435 C2434 1.391 . S
H2436 C2444 0.950 . S
H2437 C2449 0.950 . S
H2438 C2446 0.950 . S
H2439 C2448 0.950 . S
H2440 C2450 0.950 . S
H2441 C2452 0.950 . S
H2442 C2454 0.950 . S
H2443 C2455 0.950 1_545 S
C2444 H2436 0.950 . S
C2444 C2445 1.386 . S
C2444 C2446 1.391 . S
C2445 C2444 1.386 . S
C2445 C2449 1.393 . S
C2446 H2438 0.950 . S
C2446 C2444 1.391 . S
C2446 C2447 1.400 . S
C2447 C2446 1.400 . S
C2447 C2448 1.398 . S
C2447 C2453 1.491 . S
C2448 H2439 0.950 . S
C2448 C2447 1.398 . S
C2448 C2449 1.391 . S
C2449 H2437 0.950 . S
C2449 C2445 1.393 . S
C2449 C2448 1.391 . S
C2450 H2440 0.950 . S
C2450 C2451 1.386 . S
C2450 C2452 1.391 . S
C2451 C2450 1.386 . S
C2451 C2455 1.393 . S
C2452 H2441 0.950 . S
C2452 C2450 1.391 . S
C2452 C2453 1.400 . S
C2453 C2447 1.491 . S
C2453 C2452 1.400 . S
C2453 C2454 1.398 . S
C2454 H2442 0.950 . S
C2454 C2453 1.398 . S
C2454 C2455 1.391 . S
C2455 H2443 0.950 1_565 S
C2455 C2451 1.393 . S
C2455 C2454 1.391 . S
H2456 C2464 0.950 . S
H2457 C2469 0.950 . S
H2458 C2466 0.950 . S
H2459 C2468 0.950 . S
H2460 C2470 0.950 . S
H2461 C2472 0.950 . S
H2462 C2474 0.950 . S
H2463 C2475 0.950 . S
C2464 H2456 0.950 . S
C2464 C2465 1.386 . S
C2464 C2466 1.391 . S
C2465 C2464 1.386 . S
C2465 C2469 1.393 . S
C2466 H2458 0.950 . S
C2466 C2464 1.391 . S
C2466 C2467 1.400 . S
C2467 C2466 1.400 . S
C2467 C2468 1.398 . S
C2467 C2473 1.491 . S
C2468 H2459 0.950 . S
C2468 C2467 1.398 . S
C2468 C2469 1.391 . S
C2469 H2457 0.950 . S
C2469 C2465 1.393 . S
C2469 C2468 1.391 . S
C2470 H2460 0.950 . S
C2470 C2471 1.386 . S
C2470 C2472 1.391 . S
C2471 C2470 1.386 . S
C2471 C2475 1.393 . S
C2472 H2461 0.950 . S
C2472 C2470 1.391 . S
C2472 C2473 1.400 . S
C2473 C2467 1.491 . S
C2473 C2472 1.400 . S
C2473 C2474 1.398 . S
C2474 H2462 0.950 . S
C2474 C2473 1.398 . S
C2474 C2475 1.391 . S
C2475 H2463 0.950 . S
C2475 C2471 1.393 . S
C2475 C2474 1.391 . S
H2476 C2484 0.950 . S
H2477 C2489 0.950 1_556 S
H2478 C2486 0.950 . S
H2479 C2488 0.950 1_556 S
H2480 C2490 0.950 1_556 S
H2481 C2492 0.950 1_556 S
H2482 C2494 0.950 . S
H2483 C2495 0.950 . S
C2484 H2476 0.950 . S
C2484 C2485 1.386 . S
C2484 C2486 1.391 . S
C2485 C2484 1.386 . S
C2485 C2489 1.393 . S
C2486 H2478 0.950 . S
C2486 C2484 1.391 . S
C2486 C2487 1.400 . S
C2487 C2486 1.400 . S
C2487 C2488 1.398 . S
C2487 C2493 1.491 . S
C2488 H2479 0.950 1_554 S
C2488 C2487 1.398 . S
C2488 C2489 1.391 . S
C2489 H2477 0.950 1_554 S
C2489 C2485 1.393 . S
C2489 C2488 1.391 . S
C2490 H2480 0.950 1_554 S
C2490 C2491 1.386 . S
C2490 C2492 1.391 . S
C2491 C2490 1.386 . S
C2491 C2495 1.393 . S
C2492 H2481 0.950 1_554 S
C2492 C2490 1.391 . S
C2492 C2493 1.400 . S
C2493 C2487 1.491 . S
C2493 C2492 1.400 . S
C2493 C2494 1.398 . S
C2494 H2482 0.950 . S
C2494 C2493 1.398 . S
C2494 C2495 1.391 . S
C2495 H2483 0.950 . S
C2495 C2491 1.393 . S
C2495 C2494 1.391 . S
H2496 C2504 0.950 . S
H2497 C2509 0.950 . S
H2498 C2506 0.950 . S
H2499 C2508 0.950 . S
H2500 C2510 0.950 . S
H2501 C2512 0.950 . S
H2502 C2514 0.950 . S
H2503 C2515 0.950 . S
C2504 H2496 0.950 . S
C2504 C2505 1.386 . S
C2504 C2506 1.391 . S
C2505 C2504 1.386 . S
C2505 C2509 1.393 . S
C2506 H2498 0.950 . S
C2506 C2504 1.391 . S
C2506 C2507 1.400 . S
C2507 C2506 1.400 . S
C2507 C2508 1.398 . S
C2507 C2513 1.491 . S
C2508 H2499 0.950 . S
C2508 C2507 1.398 . S
C2508 C2509 1.391 . S
C2509 H2497 0.950 . S
C2509 C2505 1.393 . S
C2509 C2508 1.391 . S
C2510 H2500 0.950 . S
C2510 C2511 1.386 . S
C2510 C2512 1.391 . S
C2511 C2510 1.386 . S
C2511 C2515 1.393 . S
C2512 H2501 0.950 . S
C2512 C2510 1.391 . S
C2512 C2513 1.400 . S
C2513 C2507 1.491 . S
C2513 C2512 1.400 . S
C2513 C2514 1.398 . S
C2514 H2502 0.950 . S
C2514 C2513 1.398 . S
C2514 C2515 1.391 . S
C2515 H2503 0.950 . S
C2515 C2511 1.393 . S
C2515 C2514 1.391 . S
H2516 C2524 0.950 . S
H2517 C2529 0.950 . S
H2518 C2526 0.950 . S
H2519 C2528 0.950 1_556 S
H2520 C2530 0.950 . S
H2521 C2532 0.950 1_556 S
H2522 C2534 0.950 . S
H2523 C2535 0.950 . S
C2524 H2516 0.950 . S
C2524 C2525 1.386 . S
C2524 C2526 1.391 . S
C2525 C2524 1.386 . S
C2525 C2529 1.393 . S
C2526 H2518 0.950 . S
C2526 C2524 1.391 . S
C2526 C2527 1.400 . S
C2527 C2526 1.400 . S
C2527 C2528 1.398 . S
C2527 C2533 1.491 . S
C2528 H2519 0.950 1_554 S
C2528 C2527 1.398 . S
C2528 C2529 1.391 . S
C2529 H2517 0.950 . S
C2529 C2525 1.393 . S
C2529 C2528 1.391 . S
C2530 H2520 0.950 . S
C2530 C2531 1.386 1_556 S
C2530 C2532 1.391 1_556 S
C2531 C2530 1.386 1_554 S
C2531 C2535 1.393 . S
C2532 H2521 0.950 1_554 S
C2532 C2530 1.391 1_554 S
C2532 C2533 1.400 . S
C2533 C2527 1.491 . S
C2533 C2532 1.400 . S
C2533 C2534 1.398 . S
C2534 H2522 0.950 . S
C2534 C2533 1.398 . S
C2534 C2535 1.391 . S
C2535 H2523 0.950 . S
C2535 C2531 1.393 . S
C2535 C2534 1.391 . S
H2536 C2544 0.950 . S
H2537 C2549 0.950 . S
H2538 C2546 0.950 . S
H2539 C2548 0.950 . S
H2540 C2550 0.950 . S
H2541 C2552 0.950 . S
H2542 C2554 0.950 . S
H2543 C2555 0.950 . S
C2544 H2536 0.950 . S
C2544 C2545 1.386 . S
C2544 C2546 1.391 . S
C2545 C2544 1.386 . S
C2545 C2549 1.393 . S
C2546 H2538 0.950 . S
C2546 C2544 1.391 . S
C2546 C2547 1.400 . S
C2547 C2546 1.400 . S
C2547 C2548 1.398 . S
C2547 C2553 1.491 . S
C2548 H2539 0.950 . S
C2548 C2547 1.398 . S
C2548 C2549 1.391 . S
C2549 H2537 0.950 . S
C2549 C2545 1.393 . S
C2549 C2548 1.391 . S
C2550 H2540 0.950 . S
C2550 C2551 1.386 . S
C2550 C2552 1.391 . S
C2551 C2550 1.386 . S
C2551 C2555 1.393 . S
C2552 H2541 0.950 . S
C2552 C2550 1.391 . S
C2552 C2553 1.400 . S
C2553 C2547 1.491 . S
C2553 C2552 1.400 . S
C2553 C2554 1.398 . S
C2554 H2542 0.950 . S
C2554 C2553 1.398 . S
C2554 C2555 1.391 . S
C2555 H2543 0.950 . S
C2555 C2551 1.393 . S
C2555 C2554 1.391 . S
H2556 C2564 0.950 . S
H2557 C2569 0.950 . S
H2558 C2566 0.950 . S
H2559 C2568 0.950 . S
H2560 C2570 0.950 . S
H2561 C2572 0.950 . S
H2562 C2574 0.950 . S
H2563 C2575 0.950 . S
C2564 H2556 0.950 . S
C2564 C2565 1.386 . S
C2564 C2566 1.391 . S
C2565 C2564 1.386 . S
C2565 C2569 1.393 . S
C2566 H2558 0.950 . S
C2566 C2564 1.391 . S
C2566 C2567 1.400 . S
C2567 C2566 1.400 . S
C2567 C2568 1.398 . S
C2567 C2573 1.491 . S
C2568 H2559 0.950 . S
C2568 C2567 1.398 . S
C2568 C2569 1.391 . S
C2569 H2557 0.950 . S
C2569 C2565 1.393 . S
C2569 C2568 1.391 . S
C2570 H2560 0.950 . S
C2570 C2571 1.386 . S
C2570 C2572 1.391 . S
C2571 C2570 1.386 . S
C2571 C2575 1.393 . S
C2572 H2561 0.950 . S
C2572 C2570 1.391 . S
C2572 C2573 1.400 . S
C2573 C2567 1.491 . S
C2573 C2572 1.400 . S
C2573 C2574 1.398 . S
C2574 H2562 0.950 . S
C2574 C2573 1.398 . S
C2574 C2575 1.391 . S
C2575 H2563 0.950 . S
C2575 C2571 1.393 . S
C2575 C2574 1.391 . S
C665 C105 1.426 . S
C671 C340 1.287 . S
C685 C65 1.522 . S
C691 C375 1.497 . S
C705 C73 1.115 . S
C711 C380 1.018 . S
C731 C405 1.382 . S
C725 C92 1.460 . S
C745 C17 1.514 . S
C751 C425 1.433 . S
C771 C440 0.984 . S
C765 C37 1.104 . S
C791 C475 1.511 . S
C785 C49 1.482 . S
C805 C8 1.404 . S
C811 C480 1.240 . S
C831 C355 1.540 1_655 S
C825 C231 1.566 . S
C845 C241 1.029 . S
C851 C365 0.998 . S
C871 C395 1.431 . S
C865 C273 1.428 . S
C891 C400 1.122 . S
C885 C171 1.222 1_556 S
C905 C227 1.202 . S
C911 C420 1.079 . S
C931 C455 1.420 . S
C925 C245 1.413 . S
C951 C465 0.982 . S
C945 C269 1.044 . S
C971 C495 1.532 . S
C965 C175 1.562 . S
C991 C345 1.296 . S
C985 C162 1.445 . S
C1005 C289 1.766 . S
C1011 C515 1.745 . S
C1031 C525 1.416 . S
C1025 C330 1.535 . S
C1051 C540 0.971 . S
C1045 C317 1.076 . S
C1065 C120 1.408 . S
C1071 C485 1.263 . S
C1085 C134 1.554 . S
C1091 C385 1.432 . S
C1105 C331 1.731 . S
C1111 C575 1.694 . S
C1131 C580 0.936 . S
C1125 C303 1.042 . S
C1151 C338 1.300 . S
C1145 C59 1.465 . S
C1171 C594 1.531 . S
C1165 C107 1.552 . S
C1185 C91 1.107 . S
C1191 C378 1.037 . S
C1205 C78 1.489 . S
C1211 C568 1.410 . S
C1231 C428 1.476 . S
C1225 C7 1.518 . S
C1245 C51 1.123 . S
C1251 C518 1.032 . S
C1271 C474 1.536 1_556 S
C1265 C31 1.579 . S
C1291 C598 1.247 . S
C1285 C22 1.406 . S
C1311 C354 1.556 . S
C1305 C143 1.627 . S
C1331 C588 0.995 . S
C1325 C315 1.028 . S
C1345 C115 1.494 . S
C1351 C394 1.465 . S
C1365 C287 1.200 . S
C1371 C558 1.121 . S
C1385 C147 1.215 . S
C1391 C418 1.156 . S
C1411 C534 1.448 . S
C1405 C311 1.500 . S
C1425 C119 1.038 . S
C1431 C468 1.030 . S
C1445 C283 1.616 . S
C1451 C614 1.536 . S
C1465 C190 1.451 . S
C1471 C348 1.339 . S
C1485 C177 1.796 . S
C1491 C514 1.777 . S
C1505 C260 1.545 . S
C1511 C448 1.441 . S
C1525 C247 1.108 . S
C1531 C538 1.001 . S
C1551 C608 1.286 . S
C1545 C274 1.411 . S
C1565 C218 1.574 . S
C1571 C388 1.483 . S
C1591 C414 1.724 . S
C1585 C261 1.760 . S
C1611 C358 0.987 . S
C1605 C205 1.076 . S
C1625 C77 1.441 . S
C1631 C620 1.267 . S
C1651 C595 1.492 . S
C1645 C93 1.521 . S
C1665 C101 1.117 . S
C1671 C640 1.048 1_556 S
C1685 C64 1.462 . S
C1691 C565 1.391 . S
C1705 C45 1.515 . S
C1711 C505 1.430 . S
C1731 C520 0.993 . S
C1725 C9 1.096 . S
C1751 C555 1.507 . S
C1745 C21 1.482 . S
C1771 C600 1.205 . S
C1765 C36 1.396 . S
C1791 C635 1.513 . S
C1785 C259 1.563 . S
C1805 C185 1.027 . S
C1811 C585 0.948 . S
C1831 C655 1.417 . S
C1825 C203 1.428 . S
C1851 C560 1.100 . S
C1845 C213 1.216 . S
C1871 C500 1.102 . S
C1865 C255 1.206 . S
C1885 C189 1.427 . S
C1891 C535 1.417 . S
C1911 C545 0.999 . S
C1905 C199 1.037 . S
C1925 C217 1.559 . S
C1931 C615 1.507 . S
C1951 C625 1.333 . S
C1945 C316 1.455 . S
C1965 C135 1.765 . S
C1971 C435 1.747 . S
C1991 C445 1.409 . S
C1985 C148 1.532 . S
C2011 C460 1.016 . S
C2005 C163 1.077 . S
C2031 C605 1.255 . S
C2025 C302 1.404 . S
C2045 C288 1.567 . S
C2051 C645 1.448 . S
C2071 C415 1.704 . S
C2065 C149 1.726 . S
C2091 C360 0.987 . S
C2085 C121 1.041 . S
C2105 C87 1.464 . S
C2111 C618 1.291 . S
C2131 C374 1.515 . S
C2125 C79 1.557 . S
C2145 C63 1.106 . S
C2151 C638 1.031 . S
C2165 C106 1.490 . S
C2171 C408 1.412 . S
C2185 C35 1.530 . S
C2191 C508 1.483 . S
C2211 C438 1.037 . S
C2205 C23 1.133 . S
C2225 C3 1.581 . S
C2231 C554 1.530 . S
C2245 C50 1.398 . S
C2251 C478 1.229 . S
C2271 C634 1.549 . S
C2265 C325 1.625 . S
C2285 C161 1.022 . S
C2291 C368 0.989 . S
C2311 C654 1.466 1_655 S
C2305 C297 1.494 . S
C2325 C133 1.229 . S
C2331 C398 1.172 . S
C2345 C329 1.202 . S
C2351 C498 1.136 . S
C2371 C454 1.450 . S
C2365 C157 1.499 . S
C2385 C301 1.043 . S
C2391 C548 1.012 . S
C2411 C494 1.538 . S
C2405 C129 1.617 . S
C2431 C628 1.321 . S
C2425 C246 1.446 . S
C2451 C434 1.767 . S
C2445 C219 1.799 . S
C2465 C232 1.540 . S
C2471 C528 1.436 . S
C2491 C458 1.023 . S
C2485 C191 1.099 . S
C2505 C204 1.411 . S
C2511 C488 1.297 . S
C2525 C176 1.568 . S
C2531 C648 1.462 . S
C2551 C574 1.734 . S
C2545 C233 1.754 . S
C2571 C578 0.964 . S
C2565 C275 1.070 . S
