# Generated by pormake.
# Topology nia, (6,6)-cn, num edge types: 1
# Building blocks:
#     Node 0, Type 0, BuildingBlock: BETFAJ_clean_sbu_0, # of connection points: 6
#     Node 1, Type 0, BuildingBlock: BETFAJ_clean_sbu_0, # of connection points: 6
#     Node 2, Type 1, BuildingBlock: MIDCAF_clean_sbu_0, # of connection points: 6
#     Node 3, Type 1, BuildingBlock: MIDCAF_clean_sbu_0, # of connection points: 6
#     Edge 4, Type (0, 1), BuildingBlock: FUNLAD_clean_linker_1, # of connection points: 2
#     Edge 5, Type (0, 1), BuildingBlock: FUNLAD_clean_linker_1, # of connection points: 2
#     Edge 6, Type (0, 1), BuildingBlock: FUNLAD_clean_linker_1, # of connection points: 2
#     Edge 7, Type (0, 1), BuildingBlock: FUNLAD_clean_linker_1, # of connection points: 2
#     Edge 8, Type (0, 1), BuildingBlock: FUNLAD_clean_linker_1, # of connection points: 2
#     Edge 9, Type (0, 1), BuildingBlock: FUNLAD_clean_linker_1, # of connection points: 2
#     Edge 10, Type (0, 1), BuildingBlock: FUNLAD_clean_linker_1, # of connection points: 2
#     Edge 11, Type (0, 1), BuildingBlock: FUNLAD_clean_linker_1, # of connection points: 2
#     Edge 12, Type (0, 1), BuildingBlock: FUNLAD_clean_linker_1, # of connection points: 2
#     Edge 13, Type (0, 1), BuildingBlock: FUNLAD_clean_linker_1, # of connection points: 2
#     Edge 14, Type (0, 1), BuildingBlock: FUNLAD_clean_linker_1, # of connection points: 2
#     Edge 15, Type (0, 1), BuildingBlock: FUNLAD_clean_linker_1, # of connection points: 2
# Relax obj value: 0.320
# Max RMSD: 0.267
# Mean RMSD: 0.247
data_MOF--net-nia--node1-BETFAJ_clean_sbu_0--node2-MIDCAF_clean_sbu_0--edge1-FUNLAD_clean_linker_1
_symmetry_space_group_name_H-M    P1
_symmetry_Int_Tables_number       1
_symmetry_cell_setting            triclinic
loop_
_symmetry_equiv_pos_as_xyz
'x, y, z'
_cell_length_a     26.425426
_cell_length_b     29.330647
_cell_length_c     36.046954
_cell_angle_alpha  72.147039
_cell_angle_beta   101.39885
_cell_angle_gamma 127.88108
loop_
_atom_site_label
_atom_site_type_symbol
_atom_site_fract_x
_atom_site_fract_y
_atom_site_fract_z
_atom_type_partial_charge
Sm0 Sm 0.08291 0.07066 0.03352 0.0
Sm1 Sm 0.9829 0.95613 0.99252 0.0
C2 C 0.17952 0.16965 0.05267 0.0
C3 C 0.18527 0.20511 0.07635 0.0
C4 C 0.22387 0.26706 0.06348 0.0
C5 C 0.22792 0.30134 0.08498 0.0
C6 C 0.19335 0.27389 0.11974 0.0
C7 C 0.15528 0.21189 0.13279 0.0
C8 C 0.15056 0.17755 0.11098 0.0
C9 C 0.96438 0.98773 0.07034 0.0
C10 C 0.97877 0.07209 0.96627 0.0
C11 C 0.88932 0.85065 0.98037 0.0
C12 C 0.89179 0.80718 0.97069 0.0
C13 C 0.83675 0.74892 0.97282 0.0
C14 C 0.83971 0.70813 0.96297 0.0
C15 C 0.89754 0.72534 0.95048 0.0
C16 C 0.95328 0.78326 0.94999 0.0
C17 C 0.95031 0.82383 0.96005 0.0
C18 C 0.10187 0.0379 0.95643 0.0
C19 C 0.09529 0.9607 0.05438 0.0
O20 O 0.14762 0.16913 0.01966 0.0
O21 O 0.1659 0.11742 0.0717 0.0
O22 O 0.98473 0.98691 0.04221 0.0
O23 O 0.0103 0.03581 0.08182 0.0
O24 O 0.03489 0.10377 0.98385 0.0
O25 O 0.94631 0.0142 0.96906 0.0
O26 O 0.9108 0.85956 0.01537 0.0
O27 O 0.90997 0.89998 0.95313 0.0
O28 O 0.08195 0.03918 0.98459 0.0
O29 O 0.05544 0.99029 0.94458 0.0
O30 O 0.03766 0.92601 0.03919 0.0
O31 O 0.12499 0.01802 0.05057 0.0
H32 H 0.25078 0.28887 0.03679 0.0
H33 H 0.25918 0.34925 0.07469 0.0
H34 H 0.12877 0.19006 0.15963 0.0
H35 H 0.11978 0.12955 0.12119 0.0
H36 H 0.79151 0.73522 0.98166 0.0
H37 H 0.79625 0.66352 0.96397 0.0
H38 H 0.99905 0.79749 0.94178 0.0
H39 H 0.99365 0.86842 0.95924 0.0
Sm40 Sm 1.00284 0.02222 0.53148 0.0
Sm41 Sm 0.06808 0.0054 0.48203 0.0
C42 C 0.96521 0.07192 0.55722 0.0
C43 C 0.91407 0.06235 0.57632 0.0
C44 C 0.8887 0.09382 0.55728 0.0
C45 C 0.85108 0.09655 0.57747 0.0
C46 C 0.8384 0.06789 0.61731 0.0
C47 C 0.85987 0.03274 0.63545 0.0
C48 C 0.89726 0.02978 0.61514 0.0
C49 C 0.96208 0.90544 0.56017 0.0
C50 C 0.9253 0.96275 0.45742 0.0
C51 C 0.13169 0.98941 0.44573 0.0
C52 C 0.17266 0.97063 0.44769 0.0
C53 C 0.15048 0.91127 0.46331 0.0
C54 C 0.18465 0.89219 0.45724 0.0
C55 C 0.241 0.93186 0.4352 0.0
C56 C 0.26604 0.99244 0.42273 0.0
C57 C 0.23178 0.01142 0.4287 0.0
C58 C 0.08071 0.11122 0.45527 0.0
C59 C 0.13711 0.0445 0.56297 0.0
O60 O 0.95557 0.06686 0.52115 0.0
O61 O 0.99817 0.05313 0.57844 0.0
O62 O 1.00011 0.94269 0.53215 0.0
O63 O 0.94377 0.92928 0.57373 0.0
O64 O 0.93346 0.99575 0.47914 0.0
O65 O 0.96676 0.95186 0.45766 0.0
O66 O 0.07131 0.94864 0.45529 0.0
O67 O 0.15724 0.03928 0.45507 0.0
O68 O 0.08623 0.08809 0.49016 0.0
O69 O 0.06611 0.07719 0.43316 0.0
O70 O 0.13017 0.01623 0.53796 0.0
O71 O 0.09918 0.0593 0.56267 0.0
H72 H 0.90147 0.11963 0.52743 0.0
H73 H 0.83669 0.12503 0.56238 0.0
H74 H 0.8509 0.01033 0.66608 0.0
H75 H 0.91603 0.00491 0.63055 0.0
H76 H 0.10522 0.87894 0.47839 0.0
H77 H 0.16478 0.84546 0.46775 0.0
H78 H 0.31057 0.02506 0.40706 0.0
H79 H 0.24997 0.05757 0.41665 0.0
Zn80 Zn 0.40259 0.76073 0.14365 0.0
Zn81 Zn 0.38399 0.67047 0.32246 0.0
Zn82 Zn 0.38887 0.69999 0.24603 0.0
C83 C 0.51312 0.74416 0.29944 0.0
C84 C 0.31492 0.56351 0.30351 0.0
O85 O 0.34512 0.74851 0.22409 0.0
O86 O 0.36195 0.791 0.16023 0.0
C87 C 0.51921 0.77773 0.19245 0.0
O88 O 0.48796 0.7397 0.26522 0.0
O89 O 0.4785 0.71969 0.32897 0.0
O90 O 0.3354 0.5836 0.33368 0.0
O91 O 0.32892 0.60007 0.26966 0.0
O92 O 0.49238 0.78457 0.16003 0.0
O93 O 0.48868 0.75068 0.22503 0.0
O94 O 0.34852 0.66574 0.19745 0.0
O95 O 0.3379 0.67922 0.13402 0.0
C96 C 0.32361 0.64453 0.16756 0.0
O97 O 0.35809 0.74353 0.26543 0.0
O98 O 0.34169 0.70404 0.32872 0.0
C99 C 0.33823 0.77958 0.19204 0.0
C100 C 0.34081 0.73893 0.29812 0.0
Zn101 Zn 0.665 0.28767 0.8473 0.0
Zn102 Zn 0.67458 0.34433 0.69372 0.0
Zn103 Zn 0.66532 0.31439 0.76972 0.0
C104 C 0.73771 0.45199 0.70934 0.0
C105 C 0.54325 0.2605 0.71608 0.0
O106 O 0.70786 0.26441 0.79391 0.0
O107 O 0.70557 0.24564 0.8581 0.0
C108 C 0.74426 0.41314 0.81781 0.0
O109 O 0.72161 0.41577 0.74361 0.0
O110 O 0.72209 0.43153 0.67963 0.0
O111 O 0.57955 0.29131 0.68688 0.0
O112 O 0.56631 0.2651 0.75067 0.0
O113 O 0.72262 0.37264 0.8489 0.0
O114 O 0.72769 0.40014 0.78444 0.0
O115 O 0.5644 0.26437 0.79019 0.0
O116 O 0.57125 0.24363 0.85455 0.0
C117 C 0.53784 0.24151 0.82382 0.0
O118 O 0.69941 0.27128 0.75302 0.0
O119 O 0.71689 0.30901 0.6896 0.0
C120 C 0.72031 0.2424 0.82821 0.0
C121 C 0.71739 0.27495 0.72089 0.0
H122 H 0.18297 0.96584 0.07013 0.0
C123 C 0.1315 0.9368 0.07468 0.0
H124 H 0.05409 0.85563 0.10628 0.0
H125 H 0.18371 0.7231 0.14058 0.0
H126 H 0.08405 0.6591 0.10793 0.0
H127 H 0.01158 0.68802 0.08094 0.0
H128 H 0.03779 0.78054 0.08664 0.0
C129 C 0.10528 0.88425 0.10095 0.0
C130 C 0.14499 0.86316 0.12187 0.0
C131 C 0.12857 0.80859 0.11839 0.0
C132 C 0.17093 0.79238 0.1333 0.0
C133 C 0.15366 0.73788 0.12922 0.0
C134 C 0.09655 0.70068 0.11068 0.0
C135 C 0.0557 0.71691 0.09555 0.0
C136 C 0.07135 0.77023 0.09912 0.0
H137 H 0.27414 0.78741 0.2174 0.0
C138 C 0.29643 0.79794 0.19081 0.0
H139 H 0.30071 0.8297 0.12952 0.0
H140 H 0.18212 0.9613 0.14415 0.0
H141 H 0.28106 0.02401 0.17779 0.0
H142 H 0.3583 -0.00023 0.19878 0.0
H143 H 0.3362 0.91168 0.18723 0.0
C144 C 0.28074 0.82176 0.15634 0.0
C145 C 0.23002 0.83095 0.15115 0.0
C146 C 0.24414 0.88305 0.1574 0.0
C147 C 0.20085 0.89844 0.14365 0.0
C148 C 0.21479 0.94921 0.1521 0.0
C149 C 0.27114 0.98528 0.1717 0.0
C150 C 0.3146 0.97157 0.18359 0.0
C151 C 0.30143 0.921 0.17669 0.0
H152 H 0.18811 0.07951 0.61425 0.0
C153 C 0.18996 0.06341 0.59142 0.0
H154 H 0.24857 0.05745 0.56367 0.0
H155 H 0.4722 0.29295 0.62502 0.0
H156 H 0.47097 0.33519 0.55618 0.0
H157 H 0.3912 0.27228 0.51197 0.0
H158 H 0.31283 0.16614 0.53663 0.0
C159 C 0.24318 0.06927 0.58765 0.0
C160 C 0.29951 0.10352 0.61219 0.0
C161 C 0.34477 0.16526 0.59757 0.0
C162 C 0.38939 0.20152 0.62334 0.0
C163 C 0.43536 0.2631 0.60741 0.0
C164 C 0.43562 0.28806 0.56771 0.0
C165 C 0.39082 0.25267 0.54281 0.0
C166 C 0.34592 0.19191 0.55738 0.0
H167 H 0.47446 0.16893 0.71244 0.0
C168 C 0.47861 0.20889 0.71024 0.0
H169 H 0.44137 0.25729 0.68663 0.0
H170 H 0.22863 0.98538 0.64651 0.0
H171 H 0.23207 0.94002 0.71496 0.0
H172 H 0.30415 0.0021 0.76107 0.0
H173 H 0.37048 0.10984 0.74003 0.0
C174 C 0.4343 0.21552 0.69035 0.0
C175 C 0.38767 0.17583 0.664 0.0
C176 C 0.34448 0.11305 0.67814 0.0
C177 C 0.30163 0.07696 0.65181 0.0
C178 C 0.26095 0.01445 0.66577 0.0
C179 C 0.26255 0.98799 0.70482 0.0
C180 C 0.30296 0.02309 0.73085 0.0
C181 C 0.34212 0.08492 0.71811 0.0
H182 H 0.20022 0.29413 0.17549 0.0
C183 C 0.19985 0.30952 0.14394 0.0
H184 H 0.20777 0.37739 0.09663 0.0
H185 H 0.18854 0.47335 0.23052 0.0
H186 H 0.07598 0.38865 0.23499 0.0
H187 H 0.03432 0.30952 0.20161 0.0
H188 H 0.10488 0.31494 0.16331 0.0
C189 C 0.20881 0.36151 0.12804 0.0
C190 C 0.23343 0.4039 0.15201 0.0
C191 C 0.1914 0.39861 0.1748 0.0
C192 C 0.21511 0.44377 0.19406 0.0
C193 C 0.1725 0.43959 0.21558 0.0
C194 C 0.10799 0.39134 0.21834 0.0
C195 C 0.08457 0.34683 0.19952 0.0
C196 C 0.12552 0.35035 0.17774 0.0
H197 H 0.25184 0.56342 0.14758 0.0
C198 C 0.28476 0.58108 0.17137 0.0
H199 H 0.33885 0.56749 0.21896 0.0
H200 H 0.32766 0.42337 0.11375 0.0
H201 H 0.44003 0.50736 0.11048 0.0
H202 H 0.4812 0.58546 0.14469 0.0
H203 H 0.41012 0.57966 0.18237 0.0
C204 C 0.30015 0.54819 0.19816 0.0
C205 C 0.28024 0.4932 0.19035 0.0
C206 C 0.32338 0.496 0.17039 0.0
C207 C 0.2997 0.45143 0.15067 0.0
C208 C 0.343 0.45631 0.1292 0.0
C209 C 0.40772 0.50428 0.12713 0.0
C210 C 0.43089 0.5482 0.14638 0.0
C211 C 0.38948 0.54436 0.16784 0.0
H212 H 0.82863 0.07888 0.67265 0.0
C213 C 0.81394 0.08242 0.6421 0.0
H214 H 0.76669 0.11094 0.59789 0.0
H215 H 0.72759 0.14055 0.76553 0.0
H216 H 0.6629 0.03285 0.78654 0.0
H217 H 0.64933 0.97336 0.74459 0.0
H218 H 0.70212 0.02147 0.68207 0.0
C219 C 0.78272 0.10709 0.62807 0.0
C220 C 0.78217 0.14127 0.65088 0.0
C221 C 0.74859 0.11232 0.68636 0.0
C222 C 0.75321 0.14637 0.7094 0.0
C223 C 0.72291 0.11659 0.74603 0.0
C224 C 0.68611 0.05485 0.75854 0.0
C225 C 0.67872 0.02139 0.73501 0.0
C226 C 0.70957 0.04956 0.69932 0.0
H227 H 0.68176 0.19072 0.71036 0.0
C228 C 0.72474 0.23065 0.71811 0.0
H229 H 0.82516 0.2854 0.72104 0.0
H230 H 0.85553 0.21106 0.5852 0.0
H231 H 0.9167 0.31805 0.56309 0.0
H232 H 0.91876 0.37669 0.60065 0.0
H233 H 0.86053 0.32886 0.66068 0.0
C234 C 0.78229 0.24383 0.71521 0.0
C235 C 0.78774 0.20902 0.6956 0.0
C236 C 0.82177 0.23801 0.66015 0.0
C237 C 0.81933 0.2041 0.63795 0.0
C238 C 0.85466 0.23428 0.60299 0.0
C239 C 0.89016 0.29584 0.58991 0.0
C240 C 0.89138 0.32883 0.61107 0.0
C241 C 0.85763 0.30058 0.64569 0.0
H242 H 0.86366 0.9077 0.07178 0.0
C243 C 0.89788 0.94501 0.08508 0.0
H244 H 0.91278 0.99002 0.12637 0.0
H245 H 0.60012 0.85179 0.09467 0.0
H246 H 0.62696 0.9076 0.02788 0.0
H247 H 0.73719 0.96742 1.00477 0.0
H248 H 0.8222 0.97422 0.04879 0.0
C249 C 0.87815 0.95339 0.11253 0.0
C250 C 0.8098 0.9137 0.12558 0.0
C251 C 0.76069 0.91133 0.09954 0.0
C252 C 0.69647 0.87569 0.11277 0.0
C253 C 0.64915 0.87603 0.08624 0.0
C254 C 0.66396 0.9085 0.04773 0.0
C255 C 0.72616 0.94246 0.03478 0.0
C256 C 0.77436 0.94508 0.06037 0.0
H257 H 0.62069 0.83177 0.21235 0.0
C258 C 0.58843 0.80469 0.19193 0.0
H259 H 0.57711 0.77263 0.14415 0.0
H260 H 0.89203 0.9101 0.18366 0.0
H261 H 0.86447 0.85115 0.25022 0.0
H262 H 0.75238 0.78475 0.27199 0.0
H263 H 0.66735 0.77764 0.22766 0.0
C264 C 0.61145 0.80101 0.16354 0.0
C265 C 0.6806 0.84146 0.15194 0.0
C266 C 0.72967 0.8437 0.17796 0.0
C267 C 0.79434 0.88077 0.16498 0.0
C268 C 0.84231 0.8828 0.19184 0.0
C269 C 0.82711 0.84892 0.23009 0.0
C270 C 0.764 0.81157 0.24236 0.0
C271 C 0.71564 0.80844 0.21667 0.0
H272 H 0.95278 0.82488 0.5597 0.0
C273 C 0.94021 0.84274 0.57548 0.0
H274 H 0.89411 0.8265 0.62449 0.0
H275 H 0.72593 0.54827 0.61181 0.0
H276 H 0.68623 0.57964 0.55057 0.0
H277 H 0.73287 0.6857 0.52234 0.0
H278 H 0.81962 0.76101 0.55519 0.0
C279 C 0.90439 0.80767 0.60801 0.0
C280 C 0.87861 0.74332 0.62382 0.0
C281 C 0.82802 0.69947 0.60418 0.0
C282 C 0.80113 0.63804 0.62056 0.0
C283 C 0.74947 0.59554 0.60049 0.0
C284 C 0.72568 0.61285 0.56538 0.0
C285 C 0.75191 0.67254 0.5495 0.0
C286 C 0.80212 0.71543 0.56862 0.0
H287 H 0.76838 0.53303 0.72605 0.0
C288 C 0.77146 0.51726 0.70358 0.0
H289 H 0.8037 0.53843 0.6478 0.0
H290 H 0.97085 0.81438 0.67084 0.0
H291 H 0.01037 0.78329 0.73258 0.0
H292 H 0.96814 0.678 0.75924 0.0
H293 H 0.88534 0.60293 0.72487 0.0
C294 C 0.80164 0.55585 0.66964 0.0
C295 C 0.82494 0.61981 0.65657 0.0
C296 C 0.87485 0.66366 0.67658 0.0
C297 C 0.90069 0.72506 0.66055 0.0
C298 C 0.94966 0.76744 0.68153 0.0
C299 C 0.97307 0.75027 0.7169 0.0
C300 C 0.94928 0.69096 0.73191 0.0
C301 C 0.90116 0.6481 0.712 0.0
H302 H 0.24821 0.86054 0.43608 0.0
C303 C 0.26765 0.9069 0.42259 0.0
H304 H 0.32372 0.97964 0.37569 0.0
H305 H 0.36637 0.76952 0.39378 0.0
H306 H 0.41954 0.79268 0.45518 0.0
H307 H 0.42669 0.86645 0.47954 0.0
H308 H 0.38055 0.91754 0.44234 0.0
C309 C 0.30584 0.93458 0.39153 0.0
C310 C 0.31342 0.89973 0.37361 0.0
C311 C 0.34185 0.87134 0.39519 0.0
C312 C 0.33786 0.82908 0.38103 0.0
C313 C 0.36678 0.80131 0.4033 0.0
C314 C 0.39793 0.81447 0.43857 0.0
C315 C 0.40193 0.85597 0.45228 0.0
C316 C 0.37473 0.88454 0.43084 0.0
H317 H 0.34907 0.82216 0.28022 0.0
C318 C 0.32753 0.77943 0.30125 0.0
H319 H 0.2771 0.72501 0.35362 0.0
H320 H 0.26281 0.95351 0.32202 0.0
H321 H 0.21029 0.93116 0.2603 0.0
H322 H 0.19747 0.85337 0.2376 0.0
H323 H 0.23951 0.79932 0.27562 0.0
C324 C 0.29796 0.76784 0.33272 0.0
C325 C 0.30565 0.81555 0.34516 0.0
C326 C 0.28025 0.84635 0.32252 0.0
C327 C 0.28545 0.88953 0.33641 0.0
C328 C 0.25989 0.9199 0.3132 0.0
C329 C 0.22944 0.90744 0.27767 0.0
C330 C 0.22252 0.86388 0.26477 0.0
C331 C 0.24734 0.83343 0.28683 0.0
H332 H 0.20703 0.09353 0.96471 0.0
C333 C 0.16892 0.07744 0.94303 0.0
H334 H 0.14317 0.07402 0.88469 0.0
H335 H 0.46751 0.27201 0.89189 0.0
H336 H 0.45228 0.32193 0.92621 0.0
H337 H 0.3438 0.28285 0.94223 0.0
H338 H 0.25016 0.19314 0.92472 0.0
C339 C 0.18273 0.09013 0.90551 0.0
C340 C 0.24877 0.11942 0.89169 0.0
C341 C 0.30306 0.17425 0.89996 0.0
C342 C 0.36568 0.19821 0.88923 0.0
C343 C 0.41898 0.25172 0.89929 0.0
C344 C 0.41094 0.28115 0.91877 0.0
C345 C 0.34989 0.25906 0.92788 0.0
C346 C 0.29646 0.2068 0.9182 0.0
H347 H 0.44113 0.21584 0.80064 0.0
C348 C 0.46877 0.21454 0.82709 0.0
H349 H 0.46965 0.19153 0.88858 0.0
H350 H 0.15581 0.01526 0.86867 0.0
H351 H 0.17138 0.96772 0.83287 0.0
H352 H 0.27929 0.00987 0.81416 0.0
H353 H 0.37249 0.10168 0.82928 0.0
C354 C 0.44102 0.19101 0.86231 0.0
C355 C 0.37427 0.16931 0.86846 0.0
C356 C 0.31976 0.1164 0.85822 0.0
C357 C 0.25719 0.09148 0.86981 0.0
C358 C 0.20425 0.03734 0.86023 0.0
C359 C 0.21243 0.00905 0.8398 0.0
C360 C 0.27322 0.03301 0.829 0.0
C361 C 0.32639 0.08587 0.83801 0.0
H362 H 0.13048 0.20296 0.46134 0.0
C363 C 0.11029 0.1758 0.44034 0.0
H364 H 0.09639 0.17499 0.38076 0.0
H365 H 0.1465 0.42613 0.31594 0.0
H366 H 0.03101 0.36028 0.30814 0.0
H367 H 0.97092 0.25203 0.33547 0.0
H368 H 0.02585 0.20885 0.37111 0.0
C369 C 0.11752 0.20214 0.40184 0.0
C370 C 0.15435 0.26833 0.38619 0.0
C371 C 0.12207 0.29317 0.36461 0.0
C372 C 0.15695 0.35592 0.34862 0.0
C373 C 0.12271 0.37907 0.32842 0.0
C374 C 0.05635 0.34173 0.32375 0.0
C375 C 0.0225 0.28075 0.33912 0.0
C376 C 0.05467 0.25653 0.35939 0.0
H377 H 0.26157 0.47944 0.28334 0.0
C378 C 0.27596 0.49758 0.30868 0.0
H379 H 0.27629 0.47917 0.37018 0.0
H380 H 0.23319 0.23591 0.42159 0.0
H381 H 0.34847 0.30168 0.4294 0.0
H382 H 0.40834 0.41006 0.40282 0.0
H383 H 0.35314 0.45332 0.36794 0.0
C384 C 0.25988 0.46047 0.34486 0.0
C385 C 0.22443 0.39418 0.35398 0.0
C386 C 0.25689 0.36904 0.3746 0.0
C387 C 0.22212 0.30634 0.39042 0.0
C388 C 0.25663 0.28306 0.40985 0.0
C389 C 0.32301 0.32033 0.41435 0.0
C390 C 0.35671 0.38135 0.39938 0.0
C391 C 0.32437 0.40563 0.37962 0.0
H392 H 0.97541 0.14915 0.9467 0.0
C393 C 0.95056 0.10368 0.94459 0.0
H394 H 0.86942 0.03361 0.92102 0.0
H395 H 0.75445 0.17493 0.93127 0.0
H396 H 0.7493 0.13024 1.00025 0.0
H397 H 0.79748 0.07668 0.0278 0.0
H398 H 0.84977 0.06632 0.98625 0.0
C399 C 0.89484 0.07849 0.92441 0.0
C400 C 0.86545 0.11091 0.90739 0.0
C401 C 0.83571 0.11743 0.93205 0.0
C402 C 0.80945 0.14979 0.91622 0.0
C403 C 0.77751 0.15299 0.94162 0.0
C404 C 0.77364 0.12704 0.98137 0.0
C405 C 0.80068 0.09683 0.99687 0.0
C406 C 0.83093 0.09154 0.97264 0.0
H407 H 0.73155 0.17957 0.81579 0.0
C408 C 0.74943 0.21087 0.83341 0.0
H409 H 0.81082 0.25002 0.87828 0.0
H410 H 0.91295 0.10166 0.85168 0.0
H411 H 0.92227 0.14943 0.78262 0.0
H412 H 0.88712 0.21409 0.756 0.0
H413 H 0.84046 0.22989 0.79774 0.0
C414 C 0.79404 0.21781 0.86152 0.0
C415 C 0.815 0.17791 0.8758 0.0
C416 C 0.84462 0.17112 0.85103 0.0
C417 C 0.86795 0.13604 0.86674 0.0
C418 C 0.89539 0.12845 0.8413 0.0
C419 C 0.90115 0.1557 0.80167 0.0
C420 C 0.88111 0.19194 0.78666 0.0
C421 C 0.85368 0.20012 0.81094 0.0
H422 H 0.83235 0.9441 0.43485 0.0
C423 C 0.86722 0.93663 0.43298 0.0
H424 H 0.88943 0.89528 0.40684 0.0
H425 H 0.57112 0.75041 0.39852 0.0
H426 H 0.57603 0.71559 0.46832 0.0
H427 H 0.6799 0.74997 0.50241 0.0
H428 H 0.77937 0.81984 0.46671 0.0
C429 C 0.85478 0.9023 0.40999 0.0
C430 C 0.79268 0.8729 0.38858 0.0
C431 C 0.73489 0.8305 0.40969 0.0
C432 C 0.67525 0.81014 0.38995 0.0
C433 C 0.61813 0.76827 0.41191 0.0
C434 C 0.62014 0.74747 0.45207 0.0
C435 C 0.67856 0.76685 0.47126 0.0
C436 C 0.73537 0.80749 0.45045 0.0
H437 H 0.60901 0.76909 0.29249 0.0
C438 C 0.58265 0.77785 0.30522 0.0
H439 H 0.58283 0.82118 0.34204 0.0
H440 H 0.8944 0.94541 0.33918 0.0
H441 H 0.88989 0.97731 0.26868 0.0
H442 H 0.78653 0.94464 0.23432 0.0
H443 H 0.68722 0.87958 0.27005 0.0
C444 C 0.61092 0.81348 0.32997 0.0
C445 C 0.67355 0.83131 0.34899 0.0
C446 C 0.7311 0.87033 0.32748 0.0
C447 C 0.79084 0.89041 0.34738 0.0
C448 C 0.84782 0.92925 0.32547 0.0
C449 C 0.8459 0.94793 0.28505 0.0
C450 C 0.78769 0.92949 0.26569 0.0
C451 C 0.73087 0.89157 0.28654 0.0
H452 H 0.85604 0.63586 0.94483 0.0
C453 C 0.89668 0.68247 0.93646 0.0
H454 H 0.97536 0.74506 0.89799 0.0
H455 H 0.85078 0.46031 0.90823 0.0
H456 H 0.90939 0.46364 0.96966 0.0
H457 H 0.97433 0.55468 0.9944 0.0
H458 H 0.98124 0.64321 0.95746 0.0
C459 C 0.93696 0.69869 0.90944 0.0
C460 C 0.91958 0.65387 0.88902 0.0
C461 C 0.9176 0.60356 0.91013 0.0
C462 C 0.87991 0.55129 0.89595 0.0
C463 C 0.87787 0.50104 0.918 0.0
C464 C 0.91156 0.50248 0.95318 0.0
C465 C 0.94813 0.55372 0.9671 0.0
C466 C 0.95142 0.60394 0.94587 0.0
H467 H 0.82426 0.50805 0.79701 0.0
C468 C 0.79051 0.47538 0.82047 0.0
H469 H 0.75847 0.45706 0.87572 0.0
H470 H 0.92976 0.74894 0.83678 0.0
H471 H 0.87327 0.74752 0.77466 0.0
H472 H 0.79983 0.65459 0.75222 0.0
H473 H 0.78357 0.56339 0.79101 0.0
C474 C 0.79243 0.49067 0.85247 0.0
C475 C 0.84378 0.54952 0.86089 0.0
C476 C 0.85134 0.60209 0.83768 0.0
C477 C 0.89134 0.65504 0.85136 0.0
C478 C 0.89884 0.7073 0.82796 0.0
C479 C 0.86674 0.70707 0.79232 0.0
C480 C 0.82551 0.65479 0.77966 0.0
C481 C 0.81725 0.60269 0.80209 0.0
loop_
_geom_bond_atom_site_label_1
_geom_bond_atom_site_label_2
_geom_bond_distance
_geom_bond_site_symmetry_2
_ccdc_geom_bond_type
Sm0 C2 2.846 . S
Sm0 O20 2.543 . S
Sm0 O21 2.450 . S
Sm0 O22 2.681 1_445 S
Sm0 O23 2.464 1_445 S
Sm0 O24 2.396 . S
Sm0 O28 2.386 1_554 S
Sm0 O31 2.408 1_545 S
Sm1 C11 2.846 . S
Sm1 O22 2.386 1_556 S
Sm1 O25 2.408 1_565 S
Sm1 O26 2.543 . S
Sm1 O27 2.450 . S
Sm1 O28 2.681 1_665 S
Sm1 O29 2.464 1_665 S
Sm1 O30 2.396 1_656 S
C2 Sm0 2.846 . S
C2 C3 1.506 . S
C2 O20 1.261 . S
C2 O21 1.242 . S
C3 C2 1.506 . S
C3 C4 1.358 . S
C3 C8 1.382 . S
C4 C3 1.358 . S
C4 C5 1.385 . S
C4 H32 0.930 . S
C5 C4 1.385 . S
C5 C6 1.395 . S
C5 H33 0.929 . S
C6 C5 1.395 . S
C6 C7 1.335 . S
C7 C6 1.335 . S
C7 C8 1.398 . S
C7 H34 0.930 . S
C8 C3 1.382 . S
C8 C7 1.398 . S
C8 H35 0.929 . S
C9 O22 1.271 . S
C9 O23 1.251 . S
C10 O24 1.252 1_656 S
C10 O25 1.272 . S
C11 Sm1 2.846 . S
C11 C12 1.506 . S
C11 O26 1.261 . S
C11 O27 1.242 . S
C12 C11 1.506 . S
C12 C13 1.358 . S
C12 C17 1.382 . S
C13 C12 1.358 . S
C13 C14 1.385 . S
C13 H36 0.930 1_556 S
C14 C13 1.385 . S
C14 C15 1.395 . S
C14 H37 0.929 . S
C15 C14 1.395 . S
C15 C16 1.335 . S
C16 C15 1.335 . S
C16 C17 1.398 . S
C16 H38 0.930 . S
C17 C12 1.382 . S
C17 C16 1.398 . S
C17 H39 0.929 . S
C18 O28 1.271 . S
C18 O29 1.251 . S
C19 O30 1.252 . S
C19 O31 1.272 . S
O20 Sm0 2.543 . S
O20 C2 1.261 . S
O21 Sm0 2.450 . S
O21 C2 1.242 . S
O22 Sm0 2.681 1_665 S
O22 Sm1 2.386 1_554 S
O22 C9 1.271 . S
O23 Sm0 2.464 1_665 S
O23 C9 1.251 . S
O24 Sm0 2.396 . S
O24 C10 1.252 1_454 S
O25 Sm1 2.408 1_545 S
O25 C10 1.272 . S
O26 Sm1 2.543 . S
O26 C11 1.261 . S
O27 Sm1 2.450 . S
O27 C11 1.242 . S
O28 Sm0 2.386 1_556 S
O28 Sm1 2.681 1_445 S
O28 C18 1.271 . S
O29 Sm1 2.464 1_445 S
O29 C18 1.251 . S
O30 Sm1 2.396 1_454 S
O30 C19 1.252 . S
O31 Sm0 2.408 1_565 S
O31 C19 1.272 . S
H32 C4 0.930 . S
H33 C5 0.929 . S
H34 C7 0.930 . S
H35 C8 0.929 . S
H36 C13 0.930 1_554 S
H37 C14 0.929 . S
H38 C16 0.930 . S
H39 C17 0.929 . S
Sm40 C42 2.846 1_455 S
Sm40 O60 2.543 1_455 S
Sm40 O61 2.450 1_455 S
Sm40 O62 2.681 1_545 S
Sm40 O63 2.464 1_445 S
Sm40 O64 2.396 1_445 S
Sm40 O68 2.386 . S
Sm40 O71 2.408 . S
Sm41 C51 2.846 . S
Sm41 O62 2.386 . S
Sm41 O65 2.408 1_455 S
Sm41 O66 2.543 . S
Sm41 O67 2.450 1_565 S
Sm41 O68 2.681 1_565 S
Sm41 O69 2.464 1_565 S
Sm41 O70 2.396 1_565 S
C42 Sm40 2.846 1_655 S
C42 C43 1.506 . S
C42 O60 1.261 . S
C42 O61 1.242 . S
C43 C42 1.506 . S
C43 C44 1.358 . S
C43 C48 1.382 . S
C44 C43 1.358 . S
C44 C45 1.385 . S
C44 H72 0.930 . S
C45 C44 1.385 . S
C45 C46 1.395 . S
C45 H73 0.929 . S
C46 C45 1.395 . S
C46 C47 1.335 . S
C47 C46 1.335 . S
C47 C48 1.398 . S
C47 H74 0.930 . S
C48 C43 1.382 . S
C48 C47 1.398 . S
C48 H75 0.929 . S
C49 O62 1.271 1_655 S
C49 O63 1.251 . S
C50 O64 1.252 . S
C50 O65 1.272 . S
C51 Sm41 2.846 . S
C51 C52 1.506 . S
C51 O66 1.261 . S
C51 O67 1.242 1_565 S
C52 C51 1.506 . S
C52 C53 1.358 . S
C52 C57 1.382 . S
C53 C52 1.358 . S
C53 C54 1.385 . S
C53 H76 0.930 . S
C54 C53 1.385 . S
C54 C55 1.395 . S
C54 H77 0.929 . S
C55 C54 1.395 . S
C55 C56 1.335 . S
C56 C55 1.335 . S
C56 C57 1.413 . S
C56 H78 0.930 1_565 S
C57 C52 1.382 . S
C57 C56 1.413 . S
C57 H79 0.914 1_565 S
C58 O68 1.271 . S
C58 O69 1.251 . S
C59 O70 1.252 . S
C59 O71 1.272 . S
O60 Sm40 2.543 1_655 S
O60 C42 1.261 . S
O61 Sm40 2.450 1_655 S
O61 C42 1.242 . S
O62 Sm40 2.681 1_565 S
O62 Sm41 2.386 . S
O62 C49 1.271 1_455 S
O63 Sm40 2.464 1_665 S
O63 C49 1.251 . S
O64 Sm40 2.396 1_665 S
O64 C50 1.252 . S
O65 Sm41 2.408 1_655 S
O65 C50 1.272 . S
O66 Sm41 2.543 . S
O66 C51 1.261 . S
O67 Sm41 2.450 1_545 S
O67 C51 1.242 1_545 S
O68 Sm40 2.386 . S
O68 Sm41 2.681 1_545 S
O68 C58 1.271 . S
O69 Sm41 2.464 1_545 S
O69 C58 1.251 . S
O70 Sm41 2.396 1_545 S
O70 C59 1.252 . S
O71 Sm40 2.408 . S
O71 C59 1.272 . S
H72 C44 0.930 . S
H73 C45 0.929 . S
H74 C47 0.930 . S
H75 C48 0.929 . S
H76 C53 0.930 . S
H77 C54 0.929 . S
H78 C56 0.930 1_545 S
H79 C57 0.914 1_545 S
Zn80 O86 1.920 . S
Zn80 O92 1.898 . S
Zn80 O95 1.905 . S
Zn81 O89 1.905 . S
Zn81 O90 1.898 . S
Zn81 O98 1.920 . S
Zn82 O85 2.080 . S
Zn82 O88 2.114 . S
Zn82 O91 2.120 . S
Zn82 O93 2.120 . S
Zn82 O94 2.114 . S
Zn82 O97 2.080 . S
C83 O88 1.166 . S
C83 O89 1.182 . S
C84 O90 1.167 . S
C84 O91 1.299 . S
O85 Zn82 2.080 . S
O85 C99 1.305 . S
O86 Zn80 1.920 . S
O86 C99 1.234 . S
C87 O92 1.167 . S
C87 O93 1.299 . S
O88 Zn82 2.114 . S
O88 C83 1.166 . S
O89 Zn81 1.905 . S
O89 C83 1.182 . S
O90 Zn81 1.898 . S
O90 C84 1.167 . S
O91 Zn82 2.120 . S
O91 C84 1.299 . S
O92 Zn80 1.898 . S
O92 C87 1.167 . S
O93 Zn82 2.120 . S
O93 C87 1.299 . S
O94 Zn82 2.114 . S
O94 C96 1.166 . S
O95 Zn80 1.905 . S
O95 C96 1.182 . S
C96 O94 1.166 . S
C96 O95 1.182 . S
O97 Zn82 2.080 . S
O97 C100 1.305 . S
O98 Zn81 1.920 . S
O98 C100 1.234 . S
C99 O85 1.305 . S
C99 O86 1.234 . S
C100 O97 1.305 . S
C100 O98 1.234 . S
Zn101 O107 1.920 . S
Zn101 O113 1.898 . S
Zn101 O116 1.905 . S
Zn102 O110 1.905 . S
Zn102 O111 1.898 . S
Zn102 O119 1.920 . S
Zn103 O106 2.080 . S
Zn103 O109 2.114 . S
Zn103 O112 2.120 . S
Zn103 O114 2.120 . S
Zn103 O115 2.114 . S
Zn103 O118 2.080 . S
C104 O109 1.166 . S
C104 O110 1.182 . S
C105 O111 1.167 . S
C105 O112 1.299 . S
O106 Zn103 2.080 . S
O106 C120 1.305 . S
O107 Zn101 1.920 . S
O107 C120 1.234 . S
C108 O113 1.167 . S
C108 O114 1.299 . S
O109 Zn103 2.114 . S
O109 C104 1.166 . S
O110 Zn102 1.905 . S
O110 C104 1.182 . S
O111 Zn102 1.898 . S
O111 C105 1.167 . S
O112 Zn103 2.120 . S
O112 C105 1.299 . S
O113 Zn101 1.898 . S
O113 C108 1.167 . S
O114 Zn103 2.120 . S
O114 C108 1.299 . S
O115 Zn103 2.114 . S
O115 C117 1.166 . S
O116 Zn101 1.905 . S
O116 C117 1.182 . S
C117 O115 1.166 . S
C117 O116 1.182 . S
O118 Zn103 2.080 . S
O118 C121 1.305 . S
O119 Zn102 1.920 . S
O119 C121 1.234 . S
C120 O106 1.305 . S
C120 O107 1.234 . S
C121 O118 1.305 . S
C121 O119 1.234 . S
H122 C123 0.951 . S
C123 H122 0.951 . S
C123 C129 1.265 . S
H124 C129 0.950 . S
H125 C133 0.949 . S
H126 C134 0.950 . S
H127 C135 0.951 1_655 S
H128 C136 0.951 . S
C129 C123 1.265 . S
C129 H124 0.950 . S
C129 C130 1.478 . S
C130 C129 1.478 . S
C130 C131 1.397 . S
C130 C147 1.394 . S
C131 C130 1.397 . S
C131 C132 1.438 . S
C131 C136 1.429 . S
C132 C131 1.438 . S
C132 C133 1.428 . S
C132 C145 1.394 . S
C133 H125 0.949 . S
C133 C132 1.428 . S
C133 C134 1.345 . S
C134 H126 0.950 . S
C134 C133 1.345 . S
C134 C135 1.424 . S
C135 H127 0.951 1_455 S
C135 C134 1.424 . S
C135 C136 1.347 . S
C136 H128 0.951 . S
C136 C131 1.429 . S
C136 C135 1.347 . S
H137 C138 0.951 . S
C138 H137 0.951 . S
C138 C144 1.265 . S
H139 C144 0.950 . S
H140 C148 0.949 . S
H141 C149 0.950 1_545 S
H142 C150 0.951 . S
H143 C151 0.951 . S
C144 C138 1.265 . S
C144 H139 0.950 . S
C144 C145 1.478 . S
C145 C132 1.394 . S
C145 C144 1.478 . S
C145 C146 1.397 . S
C146 C145 1.397 . S
C146 C147 1.438 . S
C146 C151 1.429 . S
C147 C130 1.394 . S
C147 C146 1.438 . S
C147 C148 1.428 . S
C148 H140 0.949 . S
C148 C147 1.428 . S
C148 C149 1.345 . S
C149 H141 0.950 1_565 S
C149 C148 1.345 . S
C149 C150 1.424 . S
C150 H142 0.951 . S
C150 C149 1.424 . S
C150 C151 1.347 . S
C151 H143 0.951 . S
C151 C146 1.429 . S
C151 C150 1.347 . S
H152 C153 0.951 . S
C153 H152 0.951 . S
C153 C159 1.265 . S
H154 C159 0.950 . S
H155 C163 0.949 . S
H156 C164 0.950 . S
H157 C165 0.951 . S
H158 C166 0.951 . S
C159 C153 1.265 . S
C159 H154 0.950 . S
C159 C160 1.478 . S
C160 C159 1.478 . S
C160 C161 1.397 . S
C160 C177 1.394 . S
C161 C160 1.397 . S
C161 C162 1.438 . S
C161 C166 1.429 . S
C162 C161 1.438 . S
C162 C163 1.428 . S
C162 C175 1.394 . S
C163 H155 0.949 . S
C163 C162 1.428 . S
C163 C164 1.345 . S
C164 H156 0.950 . S
C164 C163 1.345 . S
C164 C165 1.424 . S
C165 H157 0.951 . S
C165 C164 1.424 . S
C165 C166 1.347 . S
C166 H158 0.951 . S
C166 C161 1.429 . S
C166 C165 1.347 . S
H167 C168 0.951 . S
C168 H167 0.951 . S
C168 C174 1.265 . S
H169 C174 0.950 . S
H170 C178 0.949 1_565 S
H171 C179 0.950 . S
H172 C180 0.951 1_565 S
H173 C181 0.951 . S
C174 C168 1.265 . S
C174 H169 0.950 . S
C174 C175 1.478 . S
C175 C162 1.394 . S
C175 C174 1.478 . S
C175 C176 1.397 . S
C176 C175 1.397 . S
C176 C177 1.438 . S
C176 C181 1.429 . S
C177 C160 1.394 . S
C177 C176 1.438 . S
C177 C178 1.428 . S
C178 H170 0.949 1_545 S
C178 C177 1.428 . S
C178 C179 1.345 1_545 S
C179 H171 0.950 . S
C179 C178 1.345 1_565 S
C179 C180 1.424 1_565 S
C180 H172 0.951 1_545 S
C180 C179 1.424 1_545 S
C180 C181 1.347 . S
C181 H173 0.951 . S
C181 C176 1.429 . S
C181 C180 1.347 . S
H182 C183 0.951 . S
C183 H182 0.951 . S
C183 C189 1.265 . S
H184 C189 0.950 . S
H185 C193 0.949 . S
H186 C194 0.950 . S
H187 C195 0.951 . S
H188 C196 0.951 . S
C189 C183 1.265 . S
C189 H184 0.950 . S
C189 C190 1.478 . S
C190 C189 1.478 . S
C190 C191 1.397 . S
C190 C207 1.394 . S
C191 C190 1.397 . S
C191 C192 1.438 . S
C191 C196 1.429 . S
C192 C191 1.438 . S
C192 C193 1.428 . S
C192 C205 1.394 . S
C193 H185 0.949 . S
C193 C192 1.428 . S
C193 C194 1.345 . S
C194 H186 0.950 . S
C194 C193 1.345 . S
C194 C195 1.424 . S
C195 H187 0.951 . S
C195 C194 1.424 . S
C195 C196 1.347 . S
C196 H188 0.951 . S
C196 C191 1.429 . S
C196 C195 1.347 . S
H197 C198 0.951 . S
C198 H197 0.951 . S
C198 C204 1.265 . S
H199 C204 0.950 . S
H200 C208 0.949 . S
H201 C209 0.950 . S
H202 C210 0.951 . S
H203 C211 0.951 . S
C204 C198 1.265 . S
C204 H199 0.950 . S
C204 C205 1.478 . S
C205 C192 1.394 . S
C205 C204 1.478 . S
C205 C206 1.397 . S
C206 C205 1.397 . S
C206 C207 1.438 . S
C206 C211 1.429 . S
C207 C190 1.394 . S
C207 C206 1.438 . S
C207 C208 1.428 . S
C208 H200 0.949 . S
C208 C207 1.428 . S
C208 C209 1.345 . S
C209 H201 0.950 . S
C209 C208 1.345 . S
C209 C210 1.424 . S
C210 H202 0.951 . S
C210 C209 1.424 . S
C210 C211 1.347 . S
C211 H203 0.951 . S
C211 C206 1.429 . S
C211 C210 1.347 . S
H212 C213 0.951 . S
C213 H212 0.951 . S
C213 C219 1.265 . S
H214 C219 0.950 . S
H215 C223 0.949 . S
H216 C224 0.950 . S
H217 C225 0.951 . S
H218 C226 0.951 . S
C219 C213 1.265 . S
C219 H214 0.950 . S
C219 C220 1.478 . S
C220 C219 1.478 . S
C220 C221 1.397 . S
C220 C237 1.394 . S
C221 C220 1.397 . S
C221 C222 1.438 . S
C221 C226 1.429 . S
C222 C221 1.438 . S
C222 C223 1.428 . S
C222 C235 1.394 . S
C223 H215 0.949 . S
C223 C222 1.428 . S
C223 C224 1.345 . S
C224 H216 0.950 . S
C224 C223 1.345 . S
C224 C225 1.424 . S
C225 H217 0.951 . S
C225 C224 1.424 . S
C225 C226 1.347 . S
C226 H218 0.951 . S
C226 C221 1.429 . S
C226 C225 1.347 . S
H227 C228 0.951 . S
C228 H227 0.951 . S
C228 C234 1.265 . S
H229 C234 0.950 . S
H230 C238 0.949 . S
H231 C239 0.950 . S
H232 C240 0.951 . S
H233 C241 0.951 . S
C234 C228 1.265 . S
C234 H229 0.950 . S
C234 C235 1.478 . S
C235 C222 1.394 . S
C235 C234 1.478 . S
C235 C236 1.397 . S
C236 C235 1.397 . S
C236 C237 1.438 . S
C236 C241 1.429 . S
C237 C220 1.394 . S
C237 C236 1.438 . S
C237 C238 1.428 . S
C238 H230 0.949 . S
C238 C237 1.428 . S
C238 C239 1.345 . S
C239 H231 0.950 . S
C239 C238 1.345 . S
C239 C240 1.424 . S
C240 H232 0.951 . S
C240 C239 1.424 . S
C240 C241 1.347 . S
C241 H233 0.951 . S
C241 C236 1.429 . S
C241 C240 1.347 . S
H242 C243 0.951 . S
C243 H242 0.951 . S
C243 C249 1.265 . S
H244 C249 0.950 . S
H245 C253 0.949 . S
H246 C254 0.950 . S
H247 C255 0.951 . S
H248 C256 0.951 . S
C249 C243 1.265 . S
C249 H244 0.950 . S
C249 C250 1.478 . S
C250 C249 1.478 . S
C250 C251 1.397 . S
C250 C267 1.394 . S
C251 C250 1.397 . S
C251 C252 1.438 . S
C251 C256 1.429 . S
C252 C251 1.438 . S
C252 C253 1.428 . S
C252 C265 1.394 . S
C253 H245 0.949 . S
C253 C252 1.428 . S
C253 C254 1.345 . S
C254 H246 0.950 . S
C254 C253 1.345 . S
C254 C255 1.424 . S
C255 H247 0.951 . S
C255 C254 1.424 . S
C255 C256 1.347 . S
C256 H248 0.951 . S
C256 C251 1.429 . S
C256 C255 1.347 . S
H257 C258 0.951 . S
C258 H257 0.951 . S
C258 C264 1.265 . S
H259 C264 0.950 . S
H260 C268 0.949 . S
H261 C269 0.950 . S
H262 C270 0.951 . S
H263 C271 0.951 . S
C264 C258 1.265 . S
C264 H259 0.950 . S
C264 C265 1.478 . S
C265 C252 1.394 . S
C265 C264 1.478 . S
C265 C266 1.397 . S
C266 C265 1.397 . S
C266 C267 1.438 . S
C266 C271 1.429 . S
C267 C250 1.394 . S
C267 C266 1.438 . S
C267 C268 1.428 . S
C268 H260 0.949 . S
C268 C267 1.428 . S
C268 C269 1.345 . S
C269 H261 0.950 . S
C269 C268 1.345 . S
C269 C270 1.424 . S
C270 H262 0.951 . S
C270 C269 1.424 . S
C270 C271 1.347 . S
C271 H263 0.951 . S
C271 C266 1.429 . S
C271 C270 1.347 . S
H272 C273 0.951 . S
C273 H272 0.951 . S
C273 C279 1.265 . S
H274 C279 0.950 . S
H275 C283 0.949 . S
H276 C284 0.950 . S
H277 C285 0.951 . S
H278 C286 0.951 . S
C279 C273 1.265 . S
C279 H274 0.950 . S
C279 C280 1.478 . S
C280 C279 1.478 . S
C280 C281 1.397 . S
C280 C297 1.394 . S
C281 C280 1.397 . S
C281 C282 1.438 . S
C281 C286 1.429 . S
C282 C281 1.438 . S
C282 C283 1.428 . S
C282 C295 1.394 . S
C283 H275 0.949 . S
C283 C282 1.428 . S
C283 C284 1.345 . S
C284 H276 0.950 . S
C284 C283 1.345 . S
C284 C285 1.424 . S
C285 H277 0.951 . S
C285 C284 1.424 . S
C285 C286 1.347 . S
C286 H278 0.951 . S
C286 C281 1.429 . S
C286 C285 1.347 . S
H287 C288 0.951 . S
C288 H287 0.951 . S
C288 C294 1.265 . S
H289 C294 0.950 . S
H290 C298 0.949 . S
H291 C299 0.950 . S
H292 C300 0.951 . S
H293 C301 0.951 . S
C294 C288 1.265 . S
C294 H289 0.950 . S
C294 C295 1.478 . S
C295 C282 1.394 . S
C295 C294 1.478 . S
C295 C296 1.397 . S
C296 C295 1.397 . S
C296 C297 1.438 . S
C296 C301 1.429 . S
C297 C280 1.394 . S
C297 C296 1.438 . S
C297 C298 1.428 . S
C298 H290 0.949 . S
C298 C297 1.428 . S
C298 C299 1.345 . S
C299 H291 0.950 . S
C299 C298 1.345 . S
C299 C300 1.424 . S
C300 H292 0.951 . S
C300 C299 1.424 . S
C300 C301 1.347 . S
C301 H293 0.951 . S
C301 C296 1.429 . S
C301 C300 1.347 . S
H302 C303 0.951 . S
C303 H302 0.951 . S
C303 C309 1.265 . S
H304 C309 0.950 . S
H305 C313 0.949 . S
H306 C314 0.950 . S
H307 C315 0.951 . S
H308 C316 0.951 . S
C309 C303 1.265 . S
C309 H304 0.950 . S
C309 C310 1.478 . S
C310 C309 1.478 . S
C310 C311 1.397 . S
C310 C327 1.394 . S
C311 C310 1.397 . S
C311 C312 1.438 . S
C311 C316 1.429 . S
C312 C311 1.438 . S
C312 C313 1.428 . S
C312 C325 1.394 . S
C313 H305 0.949 . S
C313 C312 1.428 . S
C313 C314 1.345 . S
C314 H306 0.950 . S
C314 C313 1.345 . S
C314 C315 1.424 . S
C315 H307 0.951 . S
C315 C314 1.424 . S
C315 C316 1.347 . S
C316 H308 0.951 . S
C316 C311 1.429 . S
C316 C315 1.347 . S
H317 C318 0.951 . S
C318 H317 0.951 . S
C318 C324 1.265 . S
H319 C324 0.950 . S
H320 C328 0.949 . S
H321 C329 0.973 . S
H322 C330 0.951 . S
H323 C331 0.951 . S
C324 C318 1.265 . S
C324 H319 0.950 . S
C324 C325 1.478 . S
C325 C312 1.394 . S
C325 C324 1.478 . S
C325 C326 1.397 . S
C326 C325 1.397 . S
C326 C327 1.438 . S
C326 C331 1.429 . S
C327 C310 1.394 . S
C327 C326 1.438 . S
C327 C328 1.428 . S
C328 H320 0.949 . S
C328 C327 1.428 . S
C328 C329 1.345 . S
C329 H321 0.973 . S
C329 C328 1.345 . S
C329 C330 1.424 . S
C330 H322 0.951 . S
C330 C329 1.424 . S
C330 C331 1.347 . S
C331 H323 0.951 . S
C331 C326 1.429 . S
C331 C330 1.347 . S
H332 C333 0.951 . S
C333 H332 0.951 . S
C333 C339 1.265 . S
H334 C339 0.950 . S
H335 C343 0.949 . S
H336 C344 0.950 . S
H337 C345 0.951 . S
H338 C346 0.951 . S
C339 C333 1.265 . S
C339 H334 0.950 . S
C339 C340 1.478 . S
C340 C339 1.478 . S
C340 C341 1.397 . S
C340 C357 1.394 . S
C341 C340 1.397 . S
C341 C342 1.438 . S
C341 C346 1.429 . S
C342 C341 1.438 . S
C342 C343 1.428 . S
C342 C355 1.394 . S
C343 H335 0.949 . S
C343 C342 1.428 . S
C343 C344 1.345 . S
C344 H336 0.950 . S
C344 C343 1.345 . S
C344 C345 1.424 . S
C345 H337 0.951 . S
C345 C344 1.424 . S
C345 C346 1.347 . S
C346 H338 0.951 . S
C346 C341 1.429 . S
C346 C345 1.347 . S
H347 C348 0.951 . S
C348 H347 0.951 . S
C348 C354 1.265 . S
H349 C354 0.950 . S
H350 C358 0.949 . S
H351 C359 0.950 . S
H352 C360 0.951 . S
H353 C361 0.951 . S
C354 C348 1.265 . S
C354 H349 0.950 . S
C354 C355 1.478 . S
C355 C342 1.394 . S
C355 C354 1.478 . S
C355 C356 1.397 . S
C356 C355 1.397 . S
C356 C357 1.438 . S
C356 C361 1.429 . S
C357 C340 1.394 . S
C357 C356 1.438 . S
C357 C358 1.428 . S
C358 H350 0.949 . S
C358 C357 1.428 . S
C358 C359 1.345 . S
C359 H351 0.950 . S
C359 C358 1.345 . S
C359 C360 1.424 . S
C360 H352 0.951 . S
C360 C359 1.424 . S
C360 C361 1.347 . S
C361 H353 0.951 . S
C361 C356 1.429 . S
C361 C360 1.347 . S
H362 C363 0.951 . S
C363 H362 0.951 . S
C363 C369 1.265 . S
H364 C369 0.950 . S
H365 C373 0.949 . S
H366 C374 0.950 . S
H367 C375 0.951 1_655 S
H368 C376 0.951 . S
C369 C363 1.265 . S
C369 H364 0.950 . S
C369 C370 1.478 . S
C370 C369 1.478 . S
C370 C371 1.397 . S
C370 C387 1.394 . S
C371 C370 1.397 . S
C371 C372 1.438 . S
C371 C376 1.429 . S
C372 C371 1.438 . S
C372 C373 1.428 . S
C372 C385 1.394 . S
C373 H365 0.949 . S
C373 C372 1.428 . S
C373 C374 1.345 . S
C374 H366 0.950 . S
C374 C373 1.345 . S
C374 C375 1.424 . S
C375 H367 0.951 1_455 S
C375 C374 1.424 . S
C375 C376 1.347 . S
C376 H368 0.951 . S
C376 C371 1.429 . S
C376 C375 1.347 . S
H377 C378 0.951 . S
C378 H377 0.951 . S
C378 C384 1.265 . S
H379 C384 0.950 . S
H380 C388 0.949 . S
H381 C389 0.950 . S
H382 C390 0.951 . S
H383 C391 0.951 . S
C384 C378 1.265 . S
C384 H379 0.950 . S
C384 C385 1.478 . S
C385 C372 1.394 . S
C385 C384 1.478 . S
C385 C386 1.397 . S
C386 C385 1.397 . S
C386 C387 1.438 . S
C386 C391 1.429 . S
C387 C370 1.394 . S
C387 C386 1.438 . S
C387 C388 1.428 . S
C388 H380 0.949 . S
C388 C387 1.428 . S
C388 C389 1.345 . S
C389 H381 0.950 . S
C389 C388 1.345 . S
C389 C390 1.424 . S
C390 H382 0.951 . S
C390 C389 1.424 . S
C390 C391 1.347 . S
C391 H383 0.951 . S
C391 C386 1.429 . S
C391 C390 1.347 . S
H392 C393 0.951 . S
C393 H392 0.951 . S
C393 C399 1.265 . S
H394 C399 0.950 . S
H395 C403 0.949 . S
H396 C404 0.950 . S
H397 C405 0.951 1_554 S
H398 C406 0.951 . S
C399 C393 1.265 . S
C399 H394 0.950 . S
C399 C400 1.478 . S
C400 C399 1.478 . S
C400 C401 1.397 . S
C400 C417 1.394 . S
C401 C400 1.397 . S
C401 C402 1.438 . S
C401 C406 1.429 . S
C402 C401 1.438 . S
C402 C403 1.428 . S
C402 C415 1.394 . S
C403 H395 0.949 . S
C403 C402 1.428 . S
C403 C404 1.345 . S
C404 H396 0.950 . S
C404 C403 1.345 . S
C404 C405 1.424 . S
C405 H397 0.951 1_556 S
C405 C404 1.424 . S
C405 C406 1.347 . S
C406 H398 0.951 . S
C406 C401 1.429 . S
C406 C405 1.347 . S
H407 C408 0.951 . S
C408 H407 0.951 . S
C408 C414 1.265 . S
H409 C414 0.950 . S
H410 C418 0.949 . S
H411 C419 0.950 . S
H412 C420 0.951 . S
H413 C421 0.951 . S
C414 C408 1.265 . S
C414 H409 0.950 . S
C414 C415 1.478 . S
C415 C402 1.394 . S
C415 C414 1.478 . S
C415 C416 1.397 . S
C416 C415 1.397 . S
C416 C417 1.438 . S
C416 C421 1.429 . S
C417 C400 1.394 . S
C417 C416 1.438 . S
C417 C418 1.428 . S
C418 H410 0.949 . S
C418 C417 1.428 . S
C418 C419 1.345 . S
C419 H411 0.950 . S
C419 C418 1.345 . S
C419 C420 1.424 . S
C420 H412 0.951 . S
C420 C419 1.424 . S
C420 C421 1.347 . S
C421 H413 0.951 . S
C421 C416 1.429 . S
C421 C420 1.347 . S
H422 C423 0.951 . S
C423 H422 0.951 . S
C423 C429 1.265 . S
H424 C429 0.950 . S
H425 C433 0.949 . S
H426 C434 0.950 . S
H427 C435 0.951 . S
H428 C436 0.951 . S
C429 C423 1.265 . S
C429 H424 0.950 . S
C429 C430 1.478 . S
C430 C429 1.478 . S
C430 C431 1.397 . S
C430 C447 1.394 . S
C431 C430 1.397 . S
C431 C432 1.438 . S
C431 C436 1.429 . S
C432 C431 1.438 . S
C432 C433 1.428 . S
C432 C445 1.394 . S
C433 H425 0.949 . S
C433 C432 1.428 . S
C433 C434 1.345 . S
C434 H426 0.950 . S
C434 C433 1.345 . S
C434 C435 1.424 . S
C435 H427 0.951 . S
C435 C434 1.424 . S
C435 C436 1.347 . S
C436 H428 0.951 . S
C436 C431 1.429 . S
C436 C435 1.347 . S
H437 C438 0.951 . S
C438 H437 0.951 . S
C438 C444 1.265 . S
H439 C444 0.950 . S
H440 C448 0.949 . S
H441 C449 0.950 . S
H442 C450 0.951 . S
H443 C451 0.951 . S
C444 C438 1.265 . S
C444 H439 0.950 . S
C444 C445 1.478 . S
C445 C432 1.394 . S
C445 C444 1.478 . S
C445 C446 1.397 . S
C446 C445 1.397 . S
C446 C447 1.438 . S
C446 C451 1.429 . S
C447 C430 1.394 . S
C447 C446 1.438 . S
C447 C448 1.428 . S
C448 H440 0.949 . S
C448 C447 1.428 . S
C448 C449 1.345 . S
C449 H441 0.950 . S
C449 C448 1.345 . S
C449 C450 1.424 . S
C450 H442 0.951 . S
C450 C449 1.424 . S
C450 C451 1.347 . S
C451 H443 0.951 . S
C451 C446 1.429 . S
C451 C450 1.347 . S
H452 C453 0.951 . S
C453 H452 0.951 . S
C453 C459 1.265 . S
H454 C459 0.950 . S
H455 C463 0.949 . S
H456 C464 0.950 . S
H457 C465 0.951 . S
H458 C466 0.951 . S
C459 C453 1.265 . S
C459 H454 0.950 . S
C459 C460 1.478 . S
C460 C459 1.478 . S
C460 C461 1.397 . S
C460 C477 1.394 . S
C461 C460 1.397 . S
C461 C462 1.438 . S
C461 C466 1.429 . S
C462 C461 1.438 . S
C462 C463 1.428 . S
C462 C475 1.394 . S
C463 H455 0.949 . S
C463 C462 1.428 . S
C463 C464 1.345 . S
C464 H456 0.950 . S
C464 C463 1.345 . S
C464 C465 1.424 . S
C465 H457 0.951 . S
C465 C464 1.424 . S
C465 C466 1.347 . S
C466 H458 0.951 . S
C466 C461 1.429 . S
C466 C465 1.347 . S
H467 C468 0.951 . S
C468 H467 0.951 . S
C468 C474 1.265 . S
H469 C474 0.950 . S
H470 C478 0.949 . S
H471 C479 0.950 . S
H472 C480 0.951 . S
H473 C481 0.951 . S
C474 C468 1.265 . S
C474 H469 0.950 . S
C474 C475 1.478 . S
C475 C462 1.394 . S
C475 C474 1.478 . S
C475 C476 1.397 . S
C476 C475 1.397 . S
C476 C477 1.438 . S
C476 C481 1.429 . S
C477 C460 1.394 . S
C477 C476 1.438 . S
C477 C478 1.428 . S
C478 H470 0.949 . S
C478 C477 1.428 . S
C478 C479 1.345 . S
C479 H471 0.950 . S
C479 C478 1.345 . S
C479 C480 1.424 . S
C480 H472 0.951 . S
C480 C479 1.424 . S
C480 C481 1.347 . S
C481 H473 0.951 . S
C481 C476 1.429 . S
C481 C480 1.347 . S
C123 C19 1.844 . S
C138 C99 1.860 . S
C153 C59 1.152 . S
C168 C105 1.051 . S
C183 C6 0.813 . S
C198 C96 0.729 . S
C213 C46 1.313 . S
C228 C121 1.157 . S
C243 C9 2.129 . S
C258 C87 2.012 . S
C288 C104 2.279 . S
C273 C49 2.352 . S
C303 C55 1.186 . S
C318 C100 1.122 . S
C348 C117 1.767 . S
C333 C18 1.790 . S
C378 C84 2.126 . S
C363 C58 2.191 . S
C408 C120 2.037 . S
C393 C10 2.108 . S
C438 C83 1.366 . S
C423 C50 1.484 . S
C468 C108 0.892 . S
C453 C15 0.867 . S
