# Generated by pormake.
# Topology rtl, (3,6)-cn, num edge types: 1
# Building blocks:
#     Node 0, Type 0, BuildingBlock: WUSLED_clean_sbu_0, # of connection points: 3
#     Node 1, Type 0, BuildingBlock: WUSLED_clean_sbu_0, # of connection points: 3
#     Node 2, Type 0, BuildingBlock: WUSLED_clean_sbu_0, # of connection points: 3
#     Node 3, Type 0, BuildingBlock: WUSLED_clean_sbu_0, # of connection points: 3
#     Node 4, Type 1, BuildingBlock: CIFDUS_clean_sbu_1, # of connection points: 6
#     Node 5, Type 1, BuildingBlock: CIFDUS_clean_sbu_1, # of connection points: 6
#     Edge 6, Type (0, 1), BuildingBlock: EZIPEK_clean_linker_0, # of connection points: 2
#     Edge 7, Type (0, 1), BuildingBlock: EZIPEK_clean_linker_0, # of connection points: 2
#     Edge 8, Type (0, 1), BuildingBlock: EZIPEK_clean_linker_0, # of connection points: 2
#     Edge 9, Type (0, 1), BuildingBlock: EZIPEK_clean_linker_0, # of connection points: 2
#     Edge 10, Type (0, 1), BuildingBlock: EZIPEK_clean_linker_0, # of connection points: 2
#     Edge 11, Type (0, 1), BuildingBlock: EZIPEK_clean_linker_0, # of connection points: 2
#     Edge 12, Type (0, 1), BuildingBlock: EZIPEK_clean_linker_0, # of connection points: 2
#     Edge 13, Type (0, 1), BuildingBlock: EZIPEK_clean_linker_0, # of connection points: 2
#     Edge 14, Type (0, 1), BuildingBlock: EZIPEK_clean_linker_0, # of connection points: 2
#     Edge 15, Type (0, 1), BuildingBlock: EZIPEK_clean_linker_0, # of connection points: 2
#     Edge 16, Type (0, 1), BuildingBlock: EZIPEK_clean_linker_0, # of connection points: 2
#     Edge 17, Type (0, 1), BuildingBlock: EZIPEK_clean_linker_0, # of connection points: 2
# Relax obj value: 0.026
# Max RMSD: 0.061
# Mean RMSD: 0.045
data_MOF--net-rtl--node1-WUSLED_clean_sbu_0--node2-CIFDUS_clean_sbu_1--edge1-EZIPEK_clean_linker_0
_symmetry_space_group_name_H-M    P1
_symmetry_Int_Tables_number       1
_symmetry_cell_setting            triclinic
loop_
_symmetry_equiv_pos_as_xyz
'x, y, z'
_cell_length_a     31.660936
_cell_length_b     35.527259
_cell_length_c     24.095298
_cell_angle_alpha  90.471697
_cell_angle_beta   97.997187
_cell_angle_gamma 89.989361
loop_
_atom_site_label
_atom_site_type_symbol
_atom_site_fract_x
_atom_site_fract_y
_atom_site_fract_z
_atom_type_partial_charge
C0 C 0.27456 0.95649 0.27426 0.0
C1 C 0.2415 0.98153 0.25452 0.0
C2 C 0.21945 0.98488 0.34802 0.0
C3 C 0.21418 0.99572 0.29125 0.0
C4 C 0.254 0.9617 0.36797 0.0
C5 C 0.28118 0.94773 0.33154 0.0
U6 U 0.3055 0.92085 0.13008 0.0
O7 O 0.31455 0.86199 0.10651 0.0
O8 O 0.36875 0.90102 0.11142 0.0
C9 C 0.35507 0.86628 0.10172 0.0
C10 C 0.29946 0.9352 0.23647 0.0
C11 C 0.38372 0.8342 0.1199 0.0
C12 C 0.39534 0.77471 0.16989 0.0
C13 C 0.37681 0.81076 0.16464 0.0
C14 C 0.43097 0.78646 0.08919 0.0
C15 C 0.42086 0.76162 0.13043 0.0
C16 C 0.41266 0.8224 0.0841 0.0
C17 C 0.23742 0.95845 0.99073 0.0
C18 C 0.24221 0.97027 0.89175 0.0
C19 C 0.17315 0.96457 0.92307 0.0
C20 C 0.19285 0.9585 0.97765 0.0
C21 C 0.19734 0.97132 0.87962 0.0
C22 C 0.2622 0.96377 0.94705 0.0
C23 C 0.25512 0.95644 0.05119 0.0
O24 O 0.27893 0.90788 0.20726 0.0
O25 O 0.32513 0.95384 0.20799 0.0
O26 O 0.29461 0.96717 0.06842 0.0
O27 O 0.2432 0.92739 0.07854 0.0
H28 H 0.23556 0.98862 0.21049 0.0
H29 H 0.18744 1.01325 0.27473 0.0
H30 H 0.25835 0.95248 0.41112 0.0
H31 H 0.3062 0.9283 0.34769 0.0
H32 H 0.38704 0.75598 0.20193 0.0
H33 H 0.35467 0.81911 0.1929 0.0
H34 H 0.45028 0.77694 0.05805 0.0
H35 H 0.41836 0.83976 0.04911 0.0
H36 H 0.2616 0.97594 0.85911 0.0
H37 H 0.13864 0.96597 0.91522 0.0
H38 H 0.17293 0.9552 1.01041 0.0
H39 H 0.29669 0.96412 0.95583 0.0
C40 C 0.72478 0.65572 0.76025 0.0
C41 C 0.6941 0.62906 0.73874 0.0
C42 C 0.68298 0.6108 0.83426 0.0
C43 C 0.67267 0.60769 0.77505 0.0
C44 C 0.71001 0.6413 0.85404 0.0
C45 C 0.73136 0.66254 0.81794 0.0
U46 U 0.75601 0.68172 0.6162 0.0
O47 O 0.77057 0.73678 0.58258 0.0
O48 O 0.81991 0.69302 0.59268 0.0
C49 C 0.81035 0.72798 0.57848 0.0
C50 C 0.75011 0.67699 0.72386 0.0
C51 C 0.8427 0.7574 0.59605 0.0
C52 C 0.86923 0.81028 0.65627 0.0
C53 C 0.84329 0.77811 0.64617 0.0
C54 C 0.89608 0.79998 0.56808 0.0
C55 C 0.89476 0.82213 0.61631 0.0
C56 C 0.87034 0.76793 0.55811 0.0
C57 C 0.69009 0.63241 0.48587 0.0
C58 C 0.70153 0.62759 0.38797 0.0
C59 C 0.6339 0.60876 0.41538 0.0
C60 C 0.64876 0.61828 0.47088 0.0
C61 C 0.66016 0.61284 0.37345 0.0
C62 C 0.7164 0.63755 0.444 0.0
C63 C 0.70403 0.64045 0.54581 0.0
O64 O 0.77717 0.6571 0.69898 0.0
O65 O 0.72935 0.70206 0.69077 0.0
O66 O 0.69384 0.67367 0.56413 0.0
O67 O 0.74221 0.62909 0.56782 0.0
H68 H 0.68659 0.62481 0.69386 0.0
H69 H 0.64756 0.58951 0.75557 0.0
H70 H 0.71476 0.64983 0.89751 0.0
H71 H 0.75315 0.6845 0.83534 0.0
H72 H 0.86772 0.827 0.69372 0.0
H73 H 0.82228 0.77047 0.67611 0.0
H74 H 0.91539 0.80862 0.53666 0.0
H75 H 0.8704 0.75243 0.51918 0.0
H76 H 0.72253 0.63041 0.3564 0.0
H77 H 0.60221 0.59687 0.40537 0.0
H78 H 0.62807 0.61391 0.5025 0.0
H79 H 0.74844 0.64849 0.45474 0.0
C80 C 0.80061 0.1337 0.18236 0.0
C81 C 0.83331 0.10939 0.1704 0.0
C82 C 0.85465 0.09873 0.27039 0.0
C83 C 0.86016 0.09199 0.2142 0.0
C84 C 0.82101 0.12189 0.28196 0.0
C85 C 0.7943 0.1392 0.23837 0.0
U86 U 0.76314 0.16447 0.02868 0.0
O87 O 0.69959 0.18387 0.98977 0.0
O88 O 0.75431 0.22228 0.99692 0.0
C89 C 0.71308 0.21811 0.98157 0.0
C90 C 0.77498 0.1562 0.13841 0.0
C91 C 0.68534 0.24989 0.9939 0.0
C92 C 0.6626 0.29832 0.05583 0.0
C93 C 0.6878 0.26666 0.04734 0.0
C94 C 0.63178 0.2963 0.95811 0.0
C95 C 0.63467 0.31362 1.01103 0.0
C96 C 0.65694 0.2649 0.94965 0.0
C97 C 0.81227 0.11242 0.90782 0.0
C98 C 0.84521 0.13085 0.82638 0.0
C99 C 0.82928 0.06526 0.84025 0.0
C100 C 0.81186 0.07491 0.88878 0.0
C101 C 0.84811 0.09292 0.81027 0.0
C102 C 0.82733 0.14057 0.8747 0.0
C103 C 0.80398 0.12005 0.96606 0.0
O104 O 0.7965 0.18009 0.11183 0.0
O105 O 0.74474 0.13865 0.10505 0.0
O106 O 0.76593 0.11211 0.97878 0.0
O107 O 0.82039 0.15099 0.99044 0.0
H108 H 0.83873 0.10469 0.12747 0.0
H109 H 0.88576 0.07397 0.2044 0.0
H110 H 0.81611 0.12731 0.32491 0.0
H111 H 0.76936 0.15786 0.24856 0.0
H112 H 0.66503 0.311 0.09719 0.0
H113 H 0.70944 0.25558 0.08216 0.0
H114 H 0.61034 0.30742 0.92313 0.0
H115 H 0.65458 0.25254 0.90807 0.0
H116 H 0.85929 0.15268 0.80371 0.0
H117 H 0.83116 0.03585 0.82862 0.0
H118 H 0.80064 0.05264 0.91353 0.0
H119 H 0.82778 0.16978 0.88798 0.0
C120 C 0.29007 0.46799 0.39105 0.0
C121 C 0.31703 0.49903 0.38801 0.0
C122 C 0.33048 0.4799 0.2949 0.0
C123 C 0.33706 0.50489 0.34062 0.0
C124 C 0.30099 0.45022 0.29599 0.0
C125 C 0.28118 0.44408 0.34404 0.0
U126 U 0.23362 0.41639 0.50689 0.0
O127 O 0.22388 0.35925 0.47189 0.0
O128 O 0.16893 0.39687 0.47155 0.0
C129 C 0.18231 0.36284 0.46075 0.0
C130 C 0.27743 0.45924 0.4465 0.0
C131 C 0.15727 0.32997 0.47539 0.0
C132 C 0.13225 0.26638 0.45029 0.0
C133 C 0.15124 0.29999 0.43681 0.0
C134 C 0.12238 0.29264 0.54061 0.0
C135 C 0.11828 0.26201 0.50254 0.0
C136 C 0.14208 0.32635 0.5273 0.0
C137 C 0.27569 0.44536 0.66082 0.0
C138 C 0.28812 0.46887 0.75714 0.0
C139 C 0.34675 0.46536 0.70267 0.0
C140 C 0.31892 0.45185 0.65645 0.0
C141 C 0.33185 0.47304 0.75394 0.0
C142 C 0.26037 0.45494 0.71109 0.0
C143 C 0.24759 0.42432 0.61676 0.0
O144 O 0.29176 0.42753 0.46957 0.0
O145 O 0.23871 0.46775 0.45641 0.0
O146 O 0.26648 0.39899 0.58876 0.0
O147 O 0.21803 0.44334 0.58487 0.0
H148 H 0.32454 0.51773 0.42378 0.0
H149 H 0.35959 0.52788 0.34091 0.0
H150 H 0.29533 0.43061 0.2611 0.0
H151 H 0.26059 0.41986 0.34544 0.0
H152 H 0.1296 0.24324 0.42046 0.0
H153 H 0.16266 0.30211 0.3966 0.0
H154 H 0.11209 0.28981 0.58142 0.0
H155 H 0.14652 0.34899 0.55795 0.0
H156 H 0.27575 0.47525 0.79586 0.0
H157 H 0.3802 0.46903 0.69886 0.0
H158 H 0.33156 0.44508 0.61805 0.0
H159 H 0.22718 0.45029 0.71546 0.0
O160 O 0.98363 0.05147 0.50061 0.0
Mn161 Mn 0.02507 0.03405 0.57114 0.0
O162 O 0.9818 1.00128 0.44312 0.0
Mn163 Mn 1.01126 0.96889 0.49545 0.0
O164 O 0.06658 1.01345 0.64282 0.0
O165 O 0.04785 0.0905 0.57758 0.0
Mn166 Mn 0.05198 0.09172 0.65221 0.0
O167 O 0.97588 0.04408 0.62019 0.0
O168 O 0.09763 0.06429 0.68314 0.0
O169 O 0.0735 0.02471 0.51829 0.0
O170 O 0.0692 0.96428 0.49852 0.0
O171 O 0.06498 0.1385 0.64011 0.0
O172 O 1.00227 0.08714 0.68285 0.0
C173 C 0.98259 0.94557 0.55843 0.0
C174 C 0.97142 0.03505 0.45333 0.0
C175 C 0.09462 0.029 0.67991 0.0
C176 C 0.06117 0.12566 0.58911 0.0
C177 C 0.97249 0.06543 0.66245 0.0
C178 C 0.08849 0.99507 0.49677 0.0
O179 O 0.99901 0.97979 0.56338 0.0
O180 O 0.98425 0.92726 0.51206 0.0
O181 O 0.54581 0.55486 0.1362 0.0
Mn182 Mn 0.5095 0.53304 0.0606 0.0
O183 O 0.59168 0.51066 0.1601 0.0
Mn184 Mn 0.54406 0.48233 0.13895 0.0
O185 O 0.47204 0.51348 0.98457 0.0
O186 O 0.48536 0.5888 0.05705 0.0
Mn187 Mn 0.4827 0.59235 0.98275 0.0
O188 O 0.56049 0.54638 1.01668 0.0
O189 O 0.43838 0.5642 0.94878 0.0
O190 O 0.45904 0.51798 0.10372 0.0
O191 O 0.4965 0.4894 0.17558 0.0
O192 O 0.46848 0.63847 0.99973 0.0
O193 O 0.53315 0.58815 0.95325 0.0
C194 C 0.54917 0.44282 0.08052 0.0
C195 C 0.58068 0.54408 0.16532 0.0
C196 C 0.44336 0.52905 0.94871 0.0
C197 C 0.47114 0.62388 0.04928 0.0
C198 C 0.56338 0.56718 0.97409 0.0
C199 C 0.46124 0.50211 0.15157 0.0
O200 O 0.53401 0.47666 0.06429 0.0
O201 O 0.55737 0.43487 0.13333 0.0
C202 C 0.06277 0.20977 0.4957 0.0
C203 C 0.10373 0.22394 0.51861 0.0
C204 C 0.12054 0.16317 0.56422 0.0
C205 C 0.07773 0.15138 0.54896 0.0
N206 N 1.00804 0.16169 0.49889 0.0
N207 N 0.17109 0.2147 0.57758 0.0
C208 C 0.04902 0.1739 0.51327 0.0
C209 C 0.13259 0.20067 0.55341 0.0
N210 N 0.03689 0.23087 0.45789 0.0
N211 N 0.14945 0.13812 0.59014 0.0
H212 H 0.18237 0.24122 0.56871 0.0
H213 H 0.19087 0.20103 0.60927 0.0
H214 H 0.14102 0.11042 0.59784 0.0
H215 H 0.18204 0.14344 0.59902 0.0
H216 H 1.00868 0.22089 0.43525 0.0
H217 H 0.04471 0.25809 0.44704 0.0
H218 H 0.98363 0.17795 0.47793 0.0
H219 H 0.99833 0.13492 0.50949 0.0
C220 C 0.4684 0.70411 0.14949 0.0
C221 C 0.42942 0.72041 0.1242 0.0
C222 C 0.41077 0.66112 0.07341 0.0
C223 C 0.45237 0.64741 0.09119 0.0
N224 N 0.51456 0.64879 0.1594 0.0
N225 N 0.36272 0.71456 0.06261 0.0
C226 C 0.47921 0.66671 0.13384 0.0
C227 C 0.39987 0.69855 0.08736 0.0
N228 N 0.49591 0.72523 0.18584 0.0
N229 N 0.38225 0.63807 0.04169 0.0
H230 H 0.35282 0.74141 0.0729 0.0
H231 H 0.34246 0.7022 0.02983 0.0
H232 H 0.39017 0.6105 0.03176 0.0
H233 H 0.35032 0.64468 0.02949 0.0
H234 H 0.52662 0.71679 0.20188 0.0
H235 H 0.48822 0.75219 0.19871 0.0
H236 H 0.5346 0.65948 0.19377 0.0
H237 H 0.5211 0.62115 0.14878 0.0
C238 C 0.95966 0.86376 0.6417 0.0
C239 C 0.91566 0.86006 0.62022 0.0
C240 C 0.91471 0.92556 0.58779 0.0
C241 C 0.95961 0.92669 0.60008 0.0
N242 N 0.02387 0.90304 0.6511 0.0
N243 N 0.85018 0.8876 0.57527 0.0
C244 C 0.98159 0.8978 0.63204 0.0
C245 C 0.89258 0.89142 0.59525 0.0
N246 N 0.98058 0.83398 0.66852 0.0
N247 N 0.89385 0.95726 0.56751 0.0
H248 H 0.83274 0.8634 0.58112 0.0
H249 H 0.83241 0.90763 0.55094 0.0
H250 H 0.9104 0.98226 0.56314 0.0
H251 H 0.86084 0.95991 0.55985 0.0
H252 H 1.01312 0.83341 0.68265 0.0
H253 H 0.96491 0.80922 0.67667 0.0
H254 H 0.04301 0.88396 0.67552 0.0
H255 H 0.03925 0.92829 0.64437 0.0
C256 C 0.62022 0.38369 1.00212 0.0
C257 C 0.60783 0.34752 1.01929 0.0
C258 C 0.54459 0.37559 0.05219 0.0
C259 C 0.56 0.41215 0.04202 0.0
N260 N 0.60896 0.45166 1.00176 0.0
N261 N 0.55577 0.30765 0.05342 0.0
C262 C 0.59623 0.41629 1.01394 0.0
C263 C 0.56901 0.34307 0.04188 0.0
N264 N 0.65527 0.38673 0.97503 0.0
N265 N 0.50711 0.37272 0.07409 0.0
H266 H 0.57283 0.28342 0.0461 0.0
H267 H 0.52776 0.30155 0.0694 0.0
H268 H 0.48791 0.39616 0.07846 0.0
H269 H 0.49428 0.34787 0.08689 0.0
H270 H 0.6646 0.4113 0.95702 0.0
H271 H 0.67477 0.36393 0.96849 0.0
H272 H 0.63733 0.45796 0.98675 0.0
H273 H 0.59051 0.47538 1.00674 0.0
C274 C 0.18989 0.01776 0.42906 0.0
C275 C 0.1849 0.99122 0.38392 0.0
C276 C 0.11452 0.97415 0.40694 0.0
C277 C 0.1212 0.99689 0.45674 0.0
N278 N 0.16583 0.04065 0.51541 0.0
N279 N 0.14637 0.93846 0.33784 0.0
C280 C 0.159 0.01912 0.46769 0.0
C281 C 0.14842 0.96778 0.37535 0.0
N282 N 0.22475 0.04089 0.43535 0.0
N283 N 0.07479 0.9605 0.38715 0.0
H284 H 0.1697 0.93302 0.31227 0.0
H285 H 0.12338 0.91732 0.33586 0.0
H286 H 0.04733 0.96858 0.40334 0.0
H287 H 0.06784 0.94566 0.34951 0.0
H288 H 0.23099 0.06154 0.46618 0.0
H289 H 0.24727 0.04038 0.4076 0.0
H290 H 0.19206 0.05806 0.5264 0.0
H291 H 0.14589 0.04013 0.54628 0.0
C292 C 0.67209 0.5908 0.93403 0.0
C293 C 0.6624 0.58599 0.87502 0.0
C294 C 0.59866 0.55043 0.89028 0.0
C295 C 0.60174 0.56623 0.94506 0.0
N296 N 0.64398 0.59881 1.02161 0.0
N297 N 0.63717 0.53475 0.81322 0.0
C298 C 0.63958 0.58505 0.96814 0.0
C299 C 0.63138 0.558 0.85681 0.0
N300 N 0.71337 0.59545 0.95797 0.0
N301 N 0.56438 0.52858 0.87012 0.0
H302 H 0.66547 0.53516 0.79557 0.0
H303 H 0.61745 0.51189 0.80058 0.0
H304 H 0.54186 0.52003 0.89524 0.0
H305 H 0.55779 0.52013 0.82829 0.0
H306 H 0.72264 0.59589 1.00122 0.0
H307 H 0.73849 0.59362 0.93419 0.0
H308 H 0.66909 0.61644 0.03792 0.0
H309 H 0.62136 0.59402 0.04827 0.0
C310 C 0.873 0.05059 0.34624 0.0
C311 C 0.88485 0.08286 0.3177 0.0
C312 C 0.95366 0.08523 0.37975 0.0
C313 C 0.94079 0.05405 0.40987 0.0
N314 N 0.88492 1.01234 0.42985 0.0
N315 N 0.93308 0.1348 0.31243 0.0
C316 C 0.89947 0.03827 0.39536 0.0
C317 C 0.92425 0.10135 0.33603 0.0
N318 N 0.83698 0.03105 0.32547 0.0
N319 N 0.99448 0.09851 0.3915 0.0
H320 H 0.91285 0.14698 0.27959 0.0
H321 H 0.95881 0.15189 0.32791 0.0
H322 H 0.01652 0.08782 0.42373 0.0
H323 H 1.00744 0.11844 0.36729 0.0
H324 H 0.82912 1.00496 0.3406 0.0
H325 H 0.81659 0.03942 0.28994 0.0
H326 H 0.85355 1.00275 0.42517 0.0
H327 H 0.90316 1.00305 0.46654 0.0
C328 C 0.38553 0.51903 0.80229 0.0
C329 C 0.36229 0.48517 0.80415 0.0
C330 C 0.39543 0.47633 0.90222 0.0
C331 C 0.42077 0.5089 0.89835 0.0
N332 N 0.45011 0.55247 0.83718 0.0
N333 N 0.35274 0.42686 0.85175 0.0
C334 C 0.41906 0.52734 0.84586 0.0
C335 C 0.36953 0.46231 0.85294 0.0
N336 N 0.37447 0.54431 0.76034 0.0
N337 N 0.3946 0.45966 0.9529 0.0
H338 H 0.33448 0.41538 0.81628 0.0
H339 H 0.36026 0.40765 0.88404 0.0
H340 H 0.41342 0.46882 0.98945 0.0
H341 H 0.37316 0.43841 0.95925 0.0
H342 H 0.38776 0.57118 0.76068 0.0
H343 H 0.34894 0.54006 0.72858 0.0
H344 H 0.45203 0.56447 0.79827 0.0
H345 H 0.47665 0.5578 0.86698 0.0
C346 C 0.63756 0.55745 0.31308 0.0
C347 C 0.64516 0.59659 0.31679 0.0
C348 C 0.61357 0.60241 0.21782 0.0
C349 C 0.60014 0.5642 0.2176 0.0
N350 N 0.58832 0.50985 0.27401 0.0
N351 N 0.63606 0.65778 0.27431 0.0
C352 C 0.6091 0.54294 0.26776 0.0
C353 C 0.6321 0.6196 0.26949 0.0
N354 N 0.65742 0.53397 0.35314 0.0
N355 N 0.60986 0.62192 0.16888 0.0
H356 H 0.65004 0.67105 0.3111 0.0
H357 H 0.62288 0.67619 0.24318 0.0
H358 H 0.59575 0.6104 0.13089 0.0
H359 H 0.62302 0.64855 0.16558 0.0
H360 H 0.65564 0.50472 0.34939 0.0
H361 H 0.6793 0.54364 0.38664 0.0
H362 H 0.5916 0.49517 0.31166 0.0
H363 H 0.56362 0.49977 0.24467 0.0
C364 C 0.86648 0.0908 0.71083 0.0
C365 C 0.87672 0.08162 0.7685 0.0
C366 C 0.94129 0.04936 0.74775 0.0
C367 C 0.93482 0.06377 0.69275 0.0
N368 N 0.89249 0.0998 0.62141 0.0
N369 N 0.92884 0.05843 0.84346 0.0
C370 C 0.89743 0.0846 0.6738 0.0
C371 C 0.91529 0.06223 0.78737 0.0
N372 N 0.82715 0.10501 0.69149 0.0
N373 N 0.97276 0.0235 0.76216 0.0
H374 H 0.91215 0.06911 0.87446 0.0
H375 H 0.95892 0.0482 0.8593 0.0
H376 H 0.99186 1.01324 0.7334 0.0
H377 H 0.97675 1.00947 0.80034 0.0
H378 H 0.81631 0.10911 0.64916 0.0
H379 H 0.80402 0.10986 0.71762 0.0
H380 H 0.86863 0.119 0.6073 0.0
H381 H 0.9138 0.09447 0.59291 0.0
C382 C 0.39122 0.45565 0.24685 0.0
C383 C 0.35871 0.48275 0.24998 0.0
C384 C 0.391 0.52295 0.18421 0.0
C385 C 0.42231 0.4948 0.17913 0.0
N386 N 0.44123 0.42905 0.19043 0.0
N387 N 0.32123 0.53729 0.21028 0.0
C388 C 0.41888 0.45947 0.20565 0.0
C389 C 0.35647 0.51478 0.21472 0.0
N390 N 0.39748 0.42723 0.28502 0.0
N391 N 0.39535 0.55817 0.16334 0.0
H392 H 0.29555 0.53181 0.23189 0.0
H393 H 0.31573 0.55889 0.18118 0.0
H394 H 0.42074 0.56609 0.1428 0.0
H395 H 0.37573 0.58065 0.17085 0.0
H396 H 0.42395 0.40952 0.28833 0.0
H397 H 0.37874 0.42346 0.31682 0.0
H398 H 0.4373 0.40202 0.20545 0.0
H399 H 0.45954 0.42982 0.15767 0.0
C400 C 0.1511 0.01903 0.82607 0.0
C401 C 0.1744 0.98518 0.82492 0.0
C402 C 0.14391 0.97663 0.72531 0.0
C403 C 0.11738 1.00854 0.72952 0.0
N404 N 0.08512 0.04977 0.79208 0.0
N405 N 0.18833 0.92827 0.77543 0.0
C406 C 0.1177 0.02643 0.78254 0.0
C407 C 0.16953 0.96284 0.77499 0.0
N408 N 0.16119 0.04461 0.86849 0.0
N409 N 0.14557 0.9602 0.6743 0.0
H410 H 0.20763 0.91791 0.81061 0.0
H411 H 0.18246 0.90906 0.74238 0.0
H412 H 0.12674 0.96922 0.63788 0.0
H413 H 0.1673 0.93918 0.6677 0.0
H414 H 0.14721 0.07121 0.86817 0.0
H415 H 0.18671 0.04084 0.90036 0.0
H416 H 0.08256 0.06122 0.83147 0.0
H417 H 0.05816 0.05375 0.76256 0.0
loop_
_geom_bond_atom_site_label_1
_geom_bond_atom_site_label_2
_geom_bond_distance
_geom_bond_site_symmetry_2
_ccdc_geom_bond_type
C0 C1 1.264 . S
C0 C5 1.479 . S
C0 C10 1.465 . S
C1 C0 1.264 . S
C1 C3 1.339 . S
C1 H28 0.931 . S
C2 C3 1.395 . S
C2 C4 1.320 . S
C3 C1 1.339 . S
C3 C2 1.395 . S
C3 H29 0.929 1_565 S
C4 C2 1.320 . S
C4 C5 1.405 . S
C4 H30 0.930 . S
C5 C0 1.479 . S
C5 C4 1.405 . S
C5 H31 0.931 . S
U6 O7 2.454 . S
U6 O8 2.458 . S
U6 C9 2.984 . S
U6 C10 2.847 . S
U6 C23 2.884 1_554 S
U6 O24 2.441 . S
U6 O25 2.420 . S
U6 O26 2.455 . S
U6 O27 2.449 . S
O7 U6 2.454 . S
O7 C9 1.353 . S
O8 U6 2.458 . S
O8 C9 1.286 . S
C9 U6 2.984 . S
C9 O7 1.353 . S
C9 O8 1.286 . S
C9 C11 1.363 . S
C10 C0 1.465 . S
C10 U6 2.847 . S
C10 O24 1.249 . S
C10 O25 1.202 . S
C11 C9 1.363 . S
C11 C13 1.408 . S
C11 C16 1.342 . S
C12 C13 1.310 . S
C12 C15 1.461 . S
C12 H32 0.932 . S
C13 C11 1.408 . S
C13 C12 1.310 . S
C13 H33 0.930 . S
C14 C15 1.474 . S
C14 C16 1.285 . S
C14 H34 0.929 . S
C15 C12 1.461 . S
C15 C14 1.474 . S
C16 C11 1.342 . S
C16 C14 1.285 . S
C16 H35 0.930 . S
C17 C20 1.424 . S
C17 C22 1.245 . S
C17 C23 1.426 . S
C18 C21 1.260 . S
C18 C22 1.477 . S
C18 H36 0.932 . S
C19 C20 1.384 . S
C19 C21 1.479 . S
C19 H37 0.929 1_565 S
C20 C17 1.424 . S
C20 C19 1.384 . S
C20 H38 0.928 . S
C21 C18 1.260 . S
C21 C19 1.479 . S
C22 C17 1.245 . S
C22 C18 1.477 . S
C22 H39 0.932 . S
C23 U6 2.884 1_556 S
C23 C17 1.426 . S
C23 O26 1.301 1_556 S
C23 O27 1.284 1_556 S
O24 U6 2.441 . S
O24 C10 1.249 . S
O25 U6 2.420 . S
O25 C10 1.202 . S
O26 U6 2.455 . S
O26 C23 1.301 1_554 S
O27 U6 2.449 . S
O27 C23 1.284 1_554 S
H28 C1 0.931 . S
H29 C3 0.929 1_545 S
H30 C4 0.930 . S
H31 C5 0.931 . S
H32 C12 0.932 . S
H33 C13 0.930 . S
H34 C14 0.929 . S
H35 C16 0.930 . S
H36 C18 0.932 . S
H37 C19 0.929 1_545 S
H38 C20 0.928 . S
H39 C22 0.932 . S
C40 C41 1.264 . S
C40 C45 1.479 . S
C40 C50 1.465 . S
C41 C40 1.264 . S
C41 C43 1.339 . S
C41 H68 0.931 . S
C42 C43 1.395 . S
C42 C44 1.320 . S
C43 C41 1.339 . S
C43 C42 1.395 . S
C43 H69 0.929 . S
C44 C42 1.320 . S
C44 C45 1.405 . S
C44 H70 0.930 . S
C45 C40 1.479 . S
C45 C44 1.405 . S
C45 H71 0.931 . S
U46 O47 2.454 . S
U46 O48 2.458 . S
U46 C49 2.984 . S
U46 C50 2.847 . S
U46 C63 2.882 . S
U46 O64 2.441 . S
U46 O65 2.420 . S
U46 O66 2.455 . S
U46 O67 2.449 . S
O47 U46 2.454 . S
O47 C49 1.353 . S
O48 U46 2.458 . S
O48 C49 1.286 . S
C49 U46 2.984 . S
C49 O47 1.353 . S
C49 O48 1.286 . S
C49 C51 1.363 . S
C50 C40 1.465 . S
C50 U46 2.847 . S
C50 O64 1.249 . S
C50 O65 1.202 . S
C51 C49 1.363 . S
C51 C53 1.408 . S
C51 C56 1.342 . S
C52 C53 1.310 . S
C52 C55 1.461 . S
C52 H72 0.932 . S
C53 C51 1.408 . S
C53 C52 1.310 . S
C53 H73 0.930 . S
C54 C55 1.474 . S
C54 C56 1.285 . S
C54 H74 0.929 . S
C55 C52 1.461 . S
C55 C54 1.474 . S
C56 C51 1.342 . S
C56 C54 1.285 . S
C56 H75 0.930 . S
C57 C60 1.424 . S
C57 C62 1.245 . S
C57 C63 1.428 . S
C58 C61 1.260 . S
C58 C62 1.477 . S
C58 H76 0.932 . S
C59 C60 1.384 . S
C59 C61 1.479 . S
C59 H77 0.929 . S
C60 C57 1.424 . S
C60 C59 1.384 . S
C60 H78 0.928 . S
C61 C58 1.260 . S
C61 C59 1.479 . S
C62 C57 1.245 . S
C62 C58 1.477 . S
C62 H79 0.932 . S
C63 U46 2.882 . S
C63 C57 1.428 . S
C63 O66 1.301 . S
C63 O67 1.282 . S
O64 U46 2.441 . S
O64 C50 1.249 . S
O65 U46 2.420 . S
O65 C50 1.202 . S
O66 U46 2.455 . S
O66 C63 1.301 . S
O67 U46 2.449 . S
O67 C63 1.282 . S
H68 C41 0.931 . S
H69 C43 0.929 . S
H70 C44 0.930 . S
H71 C45 0.931 . S
H72 C52 0.932 . S
H73 C53 0.930 . S
H74 C54 0.929 . S
H75 C56 0.930 . S
H76 C58 0.932 . S
H77 C59 0.929 . S
H78 C60 0.928 . S
H79 C62 0.932 . S
C80 C81 1.264 . S
C80 C85 1.479 . S
C80 C90 1.465 . S
C81 C80 1.264 . S
C81 C83 1.339 . S
C81 H108 0.931 . S
C82 C83 1.395 . S
C82 C84 1.320 . S
C83 C81 1.339 . S
C83 C82 1.395 . S
C83 H109 0.929 . S
C84 C82 1.320 . S
C84 C85 1.405 . S
C84 H110 0.930 . S
C85 C80 1.479 . S
C85 C84 1.405 . S
C85 H111 0.931 . S
U86 O87 2.454 . S
U86 O88 2.458 1_554 S
U86 C89 2.984 1_554 S
U86 C90 2.847 . S
U86 C103 2.882 1_554 S
U86 O104 2.441 . S
U86 O105 2.420 . S
U86 O106 2.455 1_554 S
U86 O107 2.449 1_554 S
O87 U86 2.454 . S
O87 C89 1.353 1_554 S
O88 U86 2.458 1_556 S
O88 C89 1.286 . S
C89 U86 2.984 1_556 S
C89 O87 1.353 1_556 S
C89 O88 1.286 . S
C89 C91 1.363 . S
C90 C80 1.465 . S
C90 U86 2.847 . S
C90 O104 1.249 . S
C90 O105 1.202 . S
C91 C89 1.363 . S
C91 C93 1.408 1_556 S
C91 C96 1.342 . S
C92 C93 1.310 . S
C92 C95 1.461 1_554 S
C92 H112 0.932 . S
C93 C91 1.408 1_554 S
C93 C92 1.310 . S
C93 H113 0.930 . S
C94 C95 1.474 . S
C94 C96 1.285 . S
C94 H114 0.929 . S
C95 C92 1.461 1_556 S
C95 C94 1.474 . S
C96 C91 1.342 . S
C96 C94 1.285 . S
C96 H115 0.930 . S
C97 C100 1.424 . S
C97 C102 1.245 . S
C97 C103 1.428 . S
C98 C101 1.260 . S
C98 C102 1.477 . S
C98 H116 0.932 . S
C99 C100 1.384 . S
C99 C101 1.479 . S
C99 H117 0.929 . S
C100 C97 1.424 . S
C100 C99 1.384 . S
C100 H118 0.928 . S
C101 C98 1.260 . S
C101 C99 1.479 . S
C102 C97 1.245 . S
C102 C98 1.477 . S
C102 H119 0.932 . S
C103 U86 2.882 1_556 S
C103 C97 1.428 . S
C103 O106 1.301 . S
C103 O107 1.282 . S
O104 U86 2.441 . S
O104 C90 1.249 . S
O105 U86 2.420 . S
O105 C90 1.202 . S
O106 U86 2.455 1_556 S
O106 C103 1.301 . S
O107 U86 2.449 1_556 S
O107 C103 1.282 . S
H108 C81 0.931 . S
H109 C83 0.929 . S
H110 C84 0.930 . S
H111 C85 0.931 . S
H112 C92 0.932 . S
H113 C93 0.930 . S
H114 C94 0.929 . S
H115 C96 0.930 . S
H116 C98 0.932 . S
H117 C99 0.929 . S
H118 C100 0.928 . S
H119 C102 0.932 . S
C120 C121 1.264 . S
C120 C125 1.479 . S
C120 C130 1.465 . S
C121 C120 1.264 . S
C121 C123 1.339 . S
C121 H148 0.931 . S
C122 C123 1.395 . S
C122 C124 1.320 . S
C123 C121 1.339 . S
C123 C122 1.395 . S
C123 H149 0.929 . S
C124 C122 1.320 . S
C124 C125 1.405 . S
C124 H150 0.930 . S
C125 C120 1.479 . S
C125 C124 1.405 . S
C125 H151 0.931 . S
U126 O127 2.454 . S
U126 O128 2.458 . S
U126 C129 2.984 . S
U126 C130 2.847 . S
U126 C143 2.882 . S
U126 O144 2.441 . S
U126 O145 2.420 . S
U126 O146 2.455 . S
U126 O147 2.449 . S
O127 U126 2.454 . S
O127 C129 1.353 . S
O128 U126 2.458 . S
O128 C129 1.286 . S
C129 U126 2.984 . S
C129 O127 1.353 . S
C129 O128 1.286 . S
C129 C131 1.363 . S
C130 C120 1.465 . S
C130 U126 2.847 . S
C130 O144 1.249 . S
C130 O145 1.202 . S
C131 C129 1.363 . S
C131 C133 1.408 . S
C131 C136 1.342 . S
C132 C133 1.310 . S
C132 C135 1.461 . S
C132 H152 0.932 . S
C133 C131 1.408 . S
C133 C132 1.310 . S
C133 H153 0.930 . S
C134 C135 1.474 . S
C134 C136 1.285 . S
C134 H154 0.929 . S
C135 C132 1.461 . S
C135 C134 1.474 . S
C136 C131 1.342 . S
C136 C134 1.285 . S
C136 H155 0.930 . S
C137 C140 1.424 . S
C137 C142 1.245 . S
C137 C143 1.428 . S
C138 C141 1.260 . S
C138 C142 1.477 . S
C138 H156 0.932 . S
C139 C140 1.384 . S
C139 C141 1.479 . S
C139 H157 0.929 . S
C140 C137 1.424 . S
C140 C139 1.384 . S
C140 H158 0.928 . S
C141 C138 1.260 . S
C141 C139 1.479 . S
C142 C137 1.245 . S
C142 C138 1.477 . S
C142 H159 0.932 . S
C143 U126 2.882 . S
C143 C137 1.428 . S
C143 O146 1.301 . S
C143 O147 1.282 . S
O144 U126 2.441 . S
O144 C130 1.249 . S
O145 U126 2.420 . S
O145 C130 1.202 . S
O146 U126 2.455 . S
O146 C143 1.301 . S
O147 U126 2.449 . S
O147 C143 1.282 . S
H148 C121 0.931 . S
H149 C123 0.929 . S
H150 C124 0.930 . S
H151 C125 0.931 . S
H152 C132 0.932 . S
H153 C133 0.930 . S
H154 C134 0.929 . S
H155 C136 0.930 . S
H156 C138 0.932 . S
H157 C139 0.929 . S
H158 C140 0.928 . S
H159 C142 0.932 . S
O160 Mn161 2.163 1_655 S
O160 C174 1.244 . S
Mn161 O160 2.163 1_455 S
Mn161 O164 2.160 1_545 S
Mn161 O165 2.221 . S
Mn161 O167 2.163 1_455 S
Mn161 O169 2.160 1_545 S
Mn161 O179 2.221 1_445 S
O162 Mn163 2.087 1_545 S
O162 C174 1.256 . S
Mn163 O162 2.087 1_565 S
Mn163 O170 2.089 1_655 S
Mn163 O179 2.290 . S
Mn163 O180 2.251 . S
O164 Mn161 2.160 1_565 S
O164 C175 1.239 . S
O165 Mn161 2.221 . S
O165 Mn166 2.290 . S
O165 C176 1.278 . S
Mn166 O165 2.290 . S
Mn166 O168 2.089 . S
Mn166 O171 2.251 . S
Mn166 O172 2.087 1_455 S
O167 Mn161 2.163 1_655 S
O167 C177 1.244 . S
O168 Mn166 2.089 . S
O168 C175 1.256 1_545 S
O169 Mn161 2.160 1_565 S
O169 C178 1.239 . S
O170 Mn163 2.089 1_455 S
O170 C178 1.256 . S
O171 Mn166 2.251 . S
O171 C176 1.241 . S
O172 Mn166 2.087 1_655 S
O172 C177 1.256 . S
C173 O179 1.278 . S
C173 O180 1.241 . S
C174 O160 1.244 . S
C174 O162 1.256 . S
C175 O164 1.239 . S
C175 O168 1.256 1_565 S
C176 O165 1.278 . S
C176 O171 1.241 . S
C177 O167 1.244 . S
C177 O172 1.256 . S
C178 O169 1.239 . S
C178 O170 1.256 . S
O179 Mn161 2.221 1_665 S
O179 Mn163 2.290 . S
O179 C173 1.278 . S
O180 Mn163 2.251 . S
O180 C173 1.241 . S
O181 Mn182 2.163 . S
O181 C195 1.244 . S
Mn182 O181 2.163 . S
Mn182 O185 2.160 1_554 S
Mn182 O186 2.221 . S
Mn182 O188 2.163 1_554 S
Mn182 O190 2.160 . S
Mn182 O200 2.221 . S
O183 Mn184 2.087 . S
O183 C195 1.256 . S
Mn184 O183 2.087 . S
Mn184 O191 2.089 . S
Mn184 O200 2.290 . S
Mn184 O201 2.251 . S
O185 Mn182 2.160 1_556 S
O185 C196 1.239 . S
O186 Mn182 2.221 . S
O186 Mn187 2.290 1_554 S
O186 C197 1.278 . S
Mn187 O186 2.290 1_556 S
Mn187 O189 2.089 . S
Mn187 O192 2.251 . S
Mn187 O193 2.087 . S
O188 Mn182 2.163 1_556 S
O188 C198 1.244 . S
O189 Mn187 2.089 . S
O189 C196 1.256 . S
O190 Mn182 2.160 . S
O190 C199 1.239 . S
O191 Mn184 2.089 . S
O191 C199 1.256 . S
O192 Mn187 2.251 . S
O192 C197 1.241 1_556 S
O193 Mn187 2.087 . S
O193 C198 1.256 . S
C194 O200 1.278 . S
C194 O201 1.241 . S
C195 O181 1.244 . S
C195 O183 1.256 . S
C196 O185 1.239 . S
C196 O189 1.256 . S
C197 O186 1.278 . S
C197 O192 1.241 1_554 S
C198 O188 1.244 . S
C198 O193 1.256 . S
C199 O190 1.239 . S
C199 O191 1.256 . S
O200 Mn182 2.221 . S
O200 Mn184 2.290 . S
O200 C194 1.278 . S
O201 Mn184 2.251 . S
O201 C194 1.241 . S
C202 C203 1.363 . S
C202 C208 1.379 . S
C202 N210 1.356 . S
C203 C202 1.363 . S
C203 C209 1.363 . S
C204 C205 1.363 . S
C204 C209 1.379 . S
C204 N211 1.356 . S
C205 C204 1.363 . S
C205 C208 1.363 . S
N206 C208 1.356 . S
N206 H218 0.984 1_455 S
N206 H219 0.985 . S
N207 C209 1.356 . S
N207 H212 0.984 . S
N207 H213 0.985 . S
C208 C202 1.379 . S
C208 C205 1.363 . S
C208 N206 1.356 . S
C209 C203 1.363 . S
C209 C204 1.379 . S
C209 N207 1.356 . S
N210 C202 1.356 . S
N210 H216 0.984 . S
N210 H217 0.984 . S
N211 C204 1.356 . S
N211 H214 0.984 . S
N211 H215 0.985 . S
H212 N207 0.984 . S
H213 N207 0.985 . S
H214 N211 0.984 . S
H215 N211 0.985 . S
H216 N210 0.984 . S
H217 N210 0.984 . S
H218 N206 0.984 1_655 S
H219 N206 0.985 . S
C220 C221 1.363 . S
C220 C226 1.379 . S
C220 N228 1.356 . S
C221 C220 1.363 . S
C221 C227 1.363 . S
C222 C223 1.363 . S
C222 C227 1.379 . S
C222 N229 1.356 1_554 S
C223 C222 1.363 . S
C223 C226 1.363 . S
N224 C226 1.356 . S
N224 H236 0.984 . S
N224 H237 0.985 . S
N225 C227 1.356 . S
N225 H230 0.984 . S
N225 H231 0.985 1_554 S
C226 C220 1.379 . S
C226 C223 1.363 . S
C226 N224 1.356 . S
C227 C221 1.363 . S
C227 C222 1.379 . S
C227 N225 1.356 . S
N228 C220 1.356 . S
N228 H234 0.984 . S
N228 H235 0.984 . S
N229 C222 1.356 1_556 S
N229 H232 0.984 . S
N229 H233 0.985 . S
H230 N225 0.984 . S
H231 N225 0.985 1_556 S
H232 N229 0.984 . S
H233 N229 0.985 . S
H234 N228 0.984 . S
H235 N228 0.984 . S
H236 N224 0.984 . S
H237 N224 0.985 . S
C238 C239 1.363 . S
C238 C244 1.379 . S
C238 N246 1.356 . S
C239 C238 1.363 . S
C239 C245 1.363 . S
C240 C241 1.363 . S
C240 C245 1.379 . S
C240 N247 1.356 . S
C241 C240 1.363 . S
C241 C244 1.363 . S
N242 C244 1.340 1_455 S
N242 H254 1.000 . S
N242 H255 0.985 1_455 S
N243 C245 1.356 . S
N243 H248 0.984 . S
N243 H249 0.985 . S
C244 C238 1.379 . S
C244 C241 1.363 . S
C244 N242 1.340 1_655 S
C245 C239 1.363 . S
C245 C240 1.379 . S
C245 N243 1.356 . S
N246 C238 1.356 . S
N246 H252 0.984 1_655 S
N246 H253 0.984 . S
N247 C240 1.356 . S
N247 H250 0.984 . S
N247 H251 0.985 . S
H248 N243 0.984 . S
H249 N243 0.985 . S
H250 N247 0.984 . S
H251 N247 0.985 . S
H252 N246 0.984 1_455 S
H253 N246 0.984 . S
H254 N242 1.000 . S
H255 N242 0.985 1_655 S
C256 C257 1.363 . S
C256 C262 1.379 . S
C256 N264 1.356 . S
C257 C256 1.363 . S
C257 C263 1.363 1_556 S
C258 C259 1.363 . S
C258 C263 1.379 . S
C258 N265 1.356 . S
C259 C258 1.363 . S
C259 C262 1.363 1_554 S
N260 C262 1.356 . S
N260 H272 0.984 . S
N260 H273 0.985 . S
N261 C263 1.356 . S
N261 H266 0.984 . S
N261 H267 0.985 . S
C262 C256 1.379 . S
C262 C259 1.363 1_556 S
C262 N260 1.356 . S
C263 C257 1.363 1_554 S
C263 C258 1.379 . S
C263 N261 1.356 . S
N264 C256 1.356 . S
N264 H270 0.984 . S
N264 H271 0.984 . S
N265 C258 1.356 . S
N265 H268 0.984 . S
N265 H269 0.985 . S
H266 N261 0.984 . S
H267 N261 0.985 . S
H268 N265 0.984 . S
H269 N265 0.985 . S
H270 N264 0.984 . S
H271 N264 0.984 . S
H272 N260 0.984 . S
H273 N260 0.985 . S
C274 C275 1.363 . S
C274 C280 1.379 1_565 S
C274 N282 1.356 1_565 S
C275 C274 1.363 . S
C275 C281 1.363 . S
C276 C277 1.363 . S
C276 C281 1.379 . S
C276 N283 1.356 . S
C277 C276 1.363 . S
C277 C280 1.363 1_565 S
N278 C280 1.356 . S
N278 H290 0.984 . S
N278 H291 0.985 . S
N279 C281 1.356 . S
N279 H284 0.984 . S
N279 H285 0.985 . S
C280 C274 1.379 1_545 S
C280 C277 1.363 1_545 S
C280 N278 1.356 . S
C281 C275 1.363 . S
C281 C276 1.379 . S
C281 N279 1.356 . S
N282 C274 1.356 1_545 S
N282 H288 0.984 . S
N282 H289 0.984 . S
N283 C276 1.356 . S
N283 H286 0.984 . S
N283 H287 0.985 . S
H284 N279 0.984 . S
H285 N279 0.985 . S
H286 N283 0.984 . S
H287 N283 0.985 . S
H288 N282 0.984 . S
H289 N282 0.984 . S
H290 N278 0.984 . S
H291 N278 0.985 . S
C292 C293 1.363 . S
C292 C298 1.379 . S
C292 N300 1.356 . S
C293 C292 1.363 . S
C293 C299 1.363 . S
C294 C295 1.363 . S
C294 C299 1.379 . S
C294 N301 1.356 . S
C295 C294 1.363 . S
C295 C298 1.363 . S
N296 C298 1.356 . S
N296 H308 0.984 1_556 S
N296 H309 0.992 . S
N297 C299 1.356 . S
N297 H302 0.984 . S
N297 H303 0.985 . S
C298 C292 1.379 . S
C298 C295 1.363 . S
C298 N296 1.356 . S
C299 C293 1.363 . S
C299 C294 1.379 . S
C299 N297 1.356 . S
N300 C292 1.356 . S
N300 H306 0.984 . S
N300 H307 0.984 . S
N301 C294 1.356 . S
N301 H304 0.984 . S
N301 H305 0.985 . S
H302 N297 0.984 . S
H303 N297 0.985 . S
H304 N301 0.984 . S
H305 N301 0.985 . S
H306 N300 0.984 . S
H307 N300 0.984 . S
H308 N296 0.984 1_554 S
H309 N296 0.992 . S
C310 C311 1.363 . S
C310 C316 1.379 . S
C310 N318 1.356 . S
C311 C310 1.363 . S
C311 C317 1.363 . S
C312 C313 1.363 . S
C312 C317 1.379 . S
C312 N319 1.356 . S
C313 C312 1.363 . S
C313 C316 1.363 . S
N314 C316 1.356 . S
N314 H326 0.984 1_545 S
N314 H327 0.985 . S
N315 C317 1.356 . S
N315 H320 0.984 . S
N315 H321 0.985 . S
C316 C310 1.379 . S
C316 C313 1.363 . S
C316 N314 1.356 . S
C317 C311 1.363 . S
C317 C312 1.379 . S
C317 N315 1.356 . S
N318 C310 1.356 . S
N318 H324 0.984 1_545 S
N318 H325 0.984 . S
N319 C312 1.356 . S
N319 H322 0.984 . S
N319 H323 0.985 . S
H320 N315 0.984 . S
H321 N315 0.985 . S
H322 N319 0.984 . S
H323 N319 0.985 . S
H324 N318 0.984 1_565 S
H325 N318 0.984 . S
H326 N314 0.984 1_565 S
H327 N314 0.985 . S
C328 C329 1.363 . S
C328 C334 1.379 . S
C328 N336 1.356 . S
C329 C328 1.363 . S
C329 C335 1.363 . S
C330 C331 1.363 . S
C330 C335 1.379 . S
C330 N337 1.356 . S
C331 C330 1.363 . S
C331 C334 1.363 . S
N332 C334 1.356 . S
N332 H344 0.984 . S
N332 H345 0.985 . S
N333 C335 1.356 . S
N333 H338 0.984 . S
N333 H339 0.985 . S
C334 C328 1.379 . S
C334 C331 1.363 . S
C334 N332 1.356 . S
C335 C329 1.363 . S
C335 C330 1.379 . S
C335 N333 1.356 . S
N336 C328 1.356 . S
N336 H342 0.984 . S
N336 H343 0.984 . S
N337 C330 1.356 . S
N337 H340 0.984 . S
N337 H341 0.985 . S
H338 N333 0.984 . S
H339 N333 0.985 . S
H340 N337 0.984 . S
H341 N337 0.985 . S
H342 N336 0.984 . S
H343 N336 0.984 . S
H344 N332 0.984 . S
H345 N332 0.985 . S
C346 C347 1.363 . S
C346 C352 1.379 . S
C346 N354 1.356 . S
C347 C346 1.363 . S
C347 C353 1.363 . S
C348 C349 1.363 . S
C348 C353 1.379 . S
C348 N355 1.356 . S
C349 C348 1.363 . S
C349 C352 1.363 . S
N350 C352 1.356 . S
N350 H362 0.984 . S
N350 H363 0.985 . S
N351 C353 1.356 . S
N351 H356 0.984 . S
N351 H357 0.985 . S
C352 C346 1.379 . S
C352 C349 1.363 . S
C352 N350 1.356 . S
C353 C347 1.363 . S
C353 C348 1.379 . S
C353 N351 1.356 . S
N354 C346 1.356 . S
N354 H360 0.984 . S
N354 H361 0.984 . S
N355 C348 1.356 . S
N355 H358 0.984 . S
N355 H359 0.985 . S
H356 N351 0.984 . S
H357 N351 0.985 . S
H358 N355 0.984 . S
H359 N355 0.985 . S
H360 N354 0.984 . S
H361 N354 0.984 . S
H362 N350 0.984 . S
H363 N350 0.985 . S
C364 C365 1.363 . S
C364 C370 1.379 . S
C364 N372 1.356 . S
C365 C364 1.363 . S
C365 C371 1.363 . S
C366 C367 1.363 . S
C366 C371 1.379 . S
C366 N373 1.356 . S
C367 C366 1.363 . S
C367 C370 1.363 . S
N368 C370 1.356 . S
N368 H380 0.984 . S
N368 H381 0.985 . S
N369 C371 1.356 . S
N369 H374 0.984 . S
N369 H375 0.985 . S
C370 C364 1.379 . S
C370 C367 1.363 . S
C370 N368 1.356 . S
C371 C365 1.363 . S
C371 C366 1.379 . S
C371 N369 1.356 . S
N372 C364 1.356 . S
N372 H378 0.984 . S
N372 H379 0.984 . S
N373 C366 1.356 . S
N373 H376 0.984 . S
N373 H377 0.985 . S
H374 N369 0.984 . S
H375 N369 0.985 . S
H376 N373 0.984 . S
H377 N373 0.985 . S
H378 N372 0.984 . S
H379 N372 0.984 . S
H380 N368 0.984 . S
H381 N368 0.985 . S
C382 C383 1.363 . S
C382 C388 1.379 . S
C382 N390 1.356 . S
C383 C382 1.363 . S
C383 C389 1.363 . S
C384 C385 1.363 . S
C384 C389 1.379 . S
C384 N391 1.356 . S
C385 C384 1.363 . S
C385 C388 1.363 . S
N386 C388 1.356 . S
N386 H398 0.984 . S
N386 H399 0.985 . S
N387 C389 1.356 . S
N387 H392 0.984 . S
N387 H393 0.985 . S
C388 C382 1.379 . S
C388 C385 1.363 . S
C388 N386 1.356 . S
C389 C383 1.363 . S
C389 C384 1.379 . S
C389 N387 1.356 . S
N390 C382 1.356 . S
N390 H396 0.984 . S
N390 H397 0.984 . S
N391 C384 1.356 . S
N391 H394 0.984 . S
N391 H395 0.985 . S
H392 N387 0.984 . S
H393 N387 0.985 . S
H394 N391 0.984 . S
H395 N391 0.985 . S
H396 N390 0.984 . S
H397 N390 0.984 . S
H398 N386 0.984 . S
H399 N386 0.985 . S
C400 C401 1.363 1_545 S
C400 C406 1.379 . S
C400 N408 1.356 . S
C401 C400 1.363 1_565 S
C401 C407 1.363 . S
C402 C403 1.363 . S
C402 C407 1.379 . S
C402 N409 1.356 . S
C403 C402 1.363 . S
C403 C406 1.363 1_565 S
N404 C406 1.356 . S
N404 H416 0.984 . S
N404 H417 0.985 . S
N405 C407 1.356 . S
N405 H410 0.984 . S
N405 H411 0.985 . S
C406 C400 1.379 . S
C406 C403 1.363 1_545 S
C406 N404 1.356 . S
C407 C401 1.363 . S
C407 C402 1.379 . S
C407 N405 1.356 . S
N408 C400 1.356 . S
N408 H414 0.984 . S
N408 H415 0.984 . S
N409 C402 1.356 . S
N409 H412 0.984 . S
N409 H413 0.985 . S
H410 N405 0.984 . S
H411 N405 0.985 . S
H412 N409 0.984 . S
H413 N409 0.985 . S
H414 N408 0.984 . S
H415 N408 0.984 . S
H416 N404 0.984 . S
H417 N404 0.985 . S
C205 C176 1.495 . S
C203 C135 1.615 . S
C221 C15 1.612 . S
C223 C197 1.484 . S
C239 C55 1.710 . S
C241 C173 1.550 . S
C257 C95 1.730 . S
C259 C194 1.581 . S
C277 C178 1.765 . S
C275 C2 1.740 . S
C295 C198 1.657 . S
C293 C42 1.603 . S
C311 C82 1.635 . S
C313 C174 1.526 . S
C329 C141 1.724 . S
C331 C196 1.600 . S
C349 C195 1.553 . S
C347 C61 1.572 . S
C367 C177 1.691 . S
C365 C101 1.693 . S
C385 C199 1.787 . S
C383 C122 1.764 . S
C401 C21 1.747 . S
C403 C175 1.624 . S
