# Generated by pormake.
# Topology myd, (4,6)-cn, num edge types: 1
# Building blocks:
#     Node 0, Type 0, BuildingBlock: KOZSID_clean_sbu_0, # of connection points: 4
#     Node 1, Type 0, BuildingBlock: KOZSID_clean_sbu_0, # of connection points: 4
#     Node 2, Type 0, BuildingBlock: KOZSID_clean_sbu_0, # of connection points: 4
#     Node 3, Type 0, BuildingBlock: KOZSID_clean_sbu_0, # of connection points: 4
#     Node 4, Type 0, BuildingBlock: KOZSID_clean_sbu_0, # of connection points: 4
#     Node 5, Type 0, BuildingBlock: KOZSID_clean_sbu_0, # of connection points: 4
#     Node 6, Type 0, BuildingBlock: KOZSID_clean_sbu_0, # of connection points: 4
#     Node 7, Type 0, BuildingBlock: KOZSID_clean_sbu_0, # of connection points: 4
#     Node 8, Type 0, BuildingBlock: KOZSID_clean_sbu_0, # of connection points: 4
#     Node 9, Type 0, BuildingBlock: KOZSID_clean_sbu_0, # of connection points: 4
#     Node 10, Type 0, BuildingBlock: KOZSID_clean_sbu_0, # of connection points: 4
#     Node 11, Type 0, BuildingBlock: KOZSID_clean_sbu_0, # of connection points: 4
#     Node 12, Type 1, BuildingBlock: LEVNOQ01_clean_sbu_1, # of connection points: 6
#     Node 13, Type 1, BuildingBlock: LEVNOQ01_clean_sbu_1, # of connection points: 6
#     Node 14, Type 1, BuildingBlock: LEVNOQ01_clean_sbu_1, # of connection points: 6
#     Node 15, Type 1, BuildingBlock: LEVNOQ01_clean_sbu_1, # of connection points: 6
#     Node 16, Type 1, BuildingBlock: LEVNOQ01_clean_sbu_1, # of connection points: 6
#     Node 17, Type 1, BuildingBlock: LEVNOQ01_clean_sbu_1, # of connection points: 6
#     Node 18, Type 1, BuildingBlock: LEVNOQ01_clean_sbu_1, # of connection points: 6
#     Node 19, Type 1, BuildingBlock: LEVNOQ01_clean_sbu_1, # of connection points: 6
#     Edge 20, Type (0, 1), BuildingBlock: XUDNAN_clean_linker_2, # of connection points: 2
#     Edge 21, Type (0, 1), BuildingBlock: XUDNAN_clean_linker_2, # of connection points: 2
#     Edge 22, Type (0, 1), BuildingBlock: XUDNAN_clean_linker_2, # of connection points: 2
#     Edge 23, Type (0, 1), BuildingBlock: XUDNAN_clean_linker_2, # of connection points: 2
#     Edge 24, Type (0, 1), BuildingBlock: XUDNAN_clean_linker_2, # of connection points: 2
#     Edge 25, Type (0, 1), BuildingBlock: XUDNAN_clean_linker_2, # of connection points: 2
#     Edge 26, Type (0, 1), BuildingBlock: XUDNAN_clean_linker_2, # of connection points: 2
#     Edge 27, Type (0, 1), BuildingBlock: XUDNAN_clean_linker_2, # of connection points: 2
#     Edge 28, Type (0, 1), BuildingBlock: XUDNAN_clean_linker_2, # of connection points: 2
#     Edge 29, Type (0, 1), BuildingBlock: XUDNAN_clean_linker_2, # of connection points: 2
#     Edge 30, Type (0, 1), BuildingBlock: XUDNAN_clean_linker_2, # of connection points: 2
#     Edge 31, Type (0, 1), BuildingBlock: XUDNAN_clean_linker_2, # of connection points: 2
#     Edge 32, Type (0, 1), BuildingBlock: XUDNAN_clean_linker_2, # of connection points: 2
#     Edge 33, Type (0, 1), BuildingBlock: XUDNAN_clean_linker_2, # of connection points: 2
#     Edge 34, Type (0, 1), BuildingBlock: XUDNAN_clean_linker_2, # of connection points: 2
#     Edge 35, Type (0, 1), BuildingBlock: XUDNAN_clean_linker_2, # of connection points: 2
#     Edge 36, Type (0, 1), BuildingBlock: XUDNAN_clean_linker_2, # of connection points: 2
#     Edge 37, Type (0, 1), BuildingBlock: XUDNAN_clean_linker_2, # of connection points: 2
#     Edge 38, Type (0, 1), BuildingBlock: XUDNAN_clean_linker_2, # of connection points: 2
#     Edge 39, Type (0, 1), BuildingBlock: XUDNAN_clean_linker_2, # of connection points: 2
#     Edge 40, Type (0, 1), BuildingBlock: XUDNAN_clean_linker_2, # of connection points: 2
#     Edge 41, Type (0, 1), BuildingBlock: XUDNAN_clean_linker_2, # of connection points: 2
#     Edge 42, Type (0, 1), BuildingBlock: XUDNAN_clean_linker_2, # of connection points: 2
#     Edge 43, Type (0, 1), BuildingBlock: XUDNAN_clean_linker_2, # of connection points: 2
#     Edge 44, Type (0, 1), BuildingBlock: XUDNAN_clean_linker_2, # of connection points: 2
#     Edge 45, Type (0, 1), BuildingBlock: XUDNAN_clean_linker_2, # of connection points: 2
#     Edge 46, Type (0, 1), BuildingBlock: XUDNAN_clean_linker_2, # of connection points: 2
#     Edge 47, Type (0, 1), BuildingBlock: XUDNAN_clean_linker_2, # of connection points: 2
#     Edge 48, Type (0, 1), BuildingBlock: XUDNAN_clean_linker_2, # of connection points: 2
#     Edge 49, Type (0, 1), BuildingBlock: XUDNAN_clean_linker_2, # of connection points: 2
#     Edge 50, Type (0, 1), BuildingBlock: XUDNAN_clean_linker_2, # of connection points: 2
#     Edge 51, Type (0, 1), BuildingBlock: XUDNAN_clean_linker_2, # of connection points: 2
#     Edge 52, Type (0, 1), BuildingBlock: XUDNAN_clean_linker_2, # of connection points: 2
#     Edge 53, Type (0, 1), BuildingBlock: XUDNAN_clean_linker_2, # of connection points: 2
#     Edge 54, Type (0, 1), BuildingBlock: XUDNAN_clean_linker_2, # of connection points: 2
#     Edge 55, Type (0, 1), BuildingBlock: XUDNAN_clean_linker_2, # of connection points: 2
#     Edge 56, Type (0, 1), BuildingBlock: XUDNAN_clean_linker_2, # of connection points: 2
#     Edge 57, Type (0, 1), BuildingBlock: XUDNAN_clean_linker_2, # of connection points: 2
#     Edge 58, Type (0, 1), BuildingBlock: XUDNAN_clean_linker_2, # of connection points: 2
#     Edge 59, Type (0, 1), BuildingBlock: XUDNAN_clean_linker_2, # of connection points: 2
#     Edge 60, Type (0, 1), BuildingBlock: XUDNAN_clean_linker_2, # of connection points: 2
#     Edge 61, Type (0, 1), BuildingBlock: XUDNAN_clean_linker_2, # of connection points: 2
#     Edge 62, Type (0, 1), BuildingBlock: XUDNAN_clean_linker_2, # of connection points: 2
#     Edge 63, Type (0, 1), BuildingBlock: XUDNAN_clean_linker_2, # of connection points: 2
#     Edge 64, Type (0, 1), BuildingBlock: XUDNAN_clean_linker_2, # of connection points: 2
#     Edge 65, Type (0, 1), BuildingBlock: XUDNAN_clean_linker_2, # of connection points: 2
#     Edge 66, Type (0, 1), BuildingBlock: XUDNAN_clean_linker_2, # of connection points: 2
#     Edge 67, Type (0, 1), BuildingBlock: XUDNAN_clean_linker_2, # of connection points: 2
# Relax obj value: 0.184
# Max RMSD: 0.195
# Mean RMSD: 0.138
data_MOF--net-myd--node1-KOZSID_clean_sbu_0--node2-LEVNOQ01_clean_sbu_1--edge1-XUDNAN_clean_linker_2
_symmetry_space_group_name_H-M    P1
_symmetry_Int_Tables_number       1
_symmetry_cell_setting            triclinic
loop_
_symmetry_equiv_pos_as_xyz
'x, y, z'
_cell_length_a     50.515404
_cell_length_b     50.995908
_cell_length_c     50.075267
_cell_angle_alpha  92.342353
_cell_angle_beta   92.134826
_cell_angle_gamma 94.089629
loop_
_atom_site_label
_atom_site_type_symbol
_atom_site_fract_x
_atom_site_fract_y
_atom_site_fract_z
_atom_type_partial_charge
C0 C 0.99441 0.30091 0.33024 0.0
C1 C 0.96777 0.30525 0.3331 0.0
C2 C 0.95332 0.28364 0.32207 0.0
C3 C 0.97168 0.26758 0.31251 0.0
N4 N -0.0029 0.2772 0.31749 0.0
Co5 Co 0.02939 0.26403 0.30079 0.0
N6 N 0.00743 0.23785 0.27711 0.0
C7 C 0.98132 0.23078 0.27913 0.0
C8 C 0.97194 0.21082 0.26138 0.0
C9 C 0.99339 0.2048 0.24718 0.0
C10 C 0.01464 0.2217 0.25705 0.0
N11 N 0.06163 0.25259 0.28275 0.0
C12 C 0.06354 0.23642 0.26083 0.0
C13 C 0.08977 0.23476 0.25406 0.0
C14 C 0.10493 0.25047 0.27245 0.0
C15 C 0.08714 0.26097 0.28918 0.0
N16 N 0.05108 0.28949 0.32552 0.0
C17 C 0.07773 0.29095 0.3296 0.0
C18 C 0.08697 0.31151 0.34682 0.0
C19 C 0.06499 0.32427 0.35337 0.0
C20 C 0.04352 0.31085 0.33958 0.0
N21 N 0.03224 0.2355 0.32698 0.0
C22 C 0.03346 0.18374 0.34435 0.0
C23 C 0.05686 0.19831 0.33906 0.0
C24 C 0.05589 0.22425 0.33119 0.0
C25 C 0.00997 0.19657 0.34452 0.0
C26 C 0.00993 0.22258 0.33639 0.0
N27 N 0.02673 0.29121 0.27419 0.0
C28 C 0.04596 0.32875 0.25216 0.0
C29 C 0.02358 0.32912 0.23459 0.0
C30 C 0.0027 0.30984 0.23797 0.0
C31 C 0.00446 0.29169 0.25796 0.0
C32 C 0.04734 0.30955 0.27111 0.0
H33 H 0.98765 0.27795 0.25988 0.0
H34 H 0.06533 0.30984 0.28315 0.0
H35 H 0.0745 0.23426 0.32759 0.0
H36 H 0.99142 0.23135 0.33688 0.0
C37 C 0.96562 0.24553 0.29537 0.0
C38 C 0.01666 0.32013 0.33856 0.0
C39 C 0.04102 0.22223 0.24621 0.0
C40 C 0.09352 0.2779 0.31165 0.0
H41 H 0.95919 0.3226 0.34093 0.0
H42 H 0.93191 0.28094 0.31945 0.0
H43 H 0.95175 0.20228 0.25848 0.0
H44 H 0.99329 0.18995 0.2311 0.0
H45 H 0.09714 0.22326 0.23767 0.0
H46 H 0.12636 0.25379 0.27352 0.0
H47 H 0.10747 0.31797 0.35199 0.0
H48 H 0.06495 0.34227 0.36559 0.0
H49 H 0.07574 0.18949 0.34018 0.0
H50 H 0.99156 0.18628 0.34992 0.0
H51 H 0.06276 0.34297 0.25183 0.0
H52 H 0.98481 0.30805 0.22544 0.0
C53 C 0.98289 0.71592 0.11756 0.0
C54 C 0.95823 0.70943 0.10495 0.0
C55 C 0.94159 0.72718 0.11455 0.0
C56 C 0.95704 0.74332 0.13236 0.0
N57 N 0.98267 0.73732 0.13427 0.0
Co58 Co 0.01188 0.75422 0.15866 0.0
N59 N 0.98649 0.77715 0.17621 0.0
C60 C 0.96016 0.77795 0.17041 0.0
C61 C 0.94852 0.79726 0.18457 0.0
C62 C 0.96853 0.80943 0.2005 0.0
C63 C 0.99127 0.79663 0.19518 0.0
N64 N 0.04122 0.77159 0.18272 0.0
C65 C 0.04033 0.79075 0.20212 0.0
C66 C 0.06526 0.79791 0.21379 0.0
C67 C 0.08265 0.78276 0.20116 0.0
C68 C 0.06737 0.76728 0.18261 0.0
N69 N 0.03709 0.73096 0.14121 0.0
C70 C 0.06361 0.73082 0.14598 0.0
C71 C 0.07494 0.71117 0.13188 0.0
C72 C 0.05427 0.69754 0.11788 0.0
C73 C 0.03159 0.70982 0.12429 0.0
N74 N 0.01937 0.7817 0.13236 0.0
C75 C 0.03149 0.82698 0.10408 0.0
C76 C 0.05136 0.81092 0.11139 0.0
C77 C 0.04488 0.78839 0.12531 0.0
C78 C 0.00527 0.81925 0.10912 0.0
C79 C -0.00036 0.79636 0.12281 0.0
N80 N 0.00463 0.72689 0.18516 0.0
C81 C 0.02101 0.69624 0.21635 0.0
C82 C 0.99521 0.68675 0.22159 0.0
C83 C 0.9741 0.69771 0.20823 0.0
C84 C 0.97922 0.71782 0.1904 0.0
C85 C 0.02524 0.71601 0.19818 0.0
H86 H 0.9624 0.7258 0.18102 0.0
H87 H 0.04541 0.72211 0.19488 0.0
H88 H 0.06101 0.77723 0.13067 0.0
H89 H 0.97926 0.79141 0.12598 0.0
C90 C 0.9474 0.76193 0.14991 0.0
C91 C 0.00502 0.69951 0.11576 0.0
C92 C 0.01634 0.80252 0.21015 0.0
C93 C 0.07682 0.74805 0.16538 0.0
H94 H 0.95257 0.69284 0.09126 0.0
H95 H 0.92045 0.72735 0.11024 0.0
H96 H 0.92806 0.80225 0.18309 0.0
H97 H 0.96662 0.82578 0.21461 0.0
H98 H 0.07029 0.81264 0.22969 0.0
H99 H 0.10388 0.78293 0.20509 0.0
H100 H 0.09554 0.7066 0.13259 0.0
H101 H 0.05547 0.68001 0.10516 0.0
H102 H 0.0719 0.81614 0.10711 0.0
H103 H 0.98928 0.83099 0.10289 0.0
H104 H 0.03799 0.68821 0.22605 0.0
H105 H 0.95374 0.69116 0.21191 0.0
C106 C 0.33642 0.97943 0.27535 0.0
C107 C 0.33917 0.9533 0.2812 0.0
C108 C 0.32778 0.93823 0.26021 0.0
C109 C 0.3182 0.95571 0.24296 0.0
N110 N 0.32363 0.98122 0.25118 0.0
Co111 Co 0.30862 0.01277 0.23527 0.0
N112 N 0.28423 0.98997 0.21004 0.0
C113 C 0.28351 0.96347 0.20645 0.0
C114 C 0.26408 0.95314 0.1885 0.0
C115 C 0.2514 0.97424 0.18027 0.0
C116 C 0.2641 0.99642 0.19357 0.0
N117 N 0.29303 0.04423 0.22013 0.0
C118 C 0.27172 0.04563 0.20304 0.0
C119 C 0.26697 0.07152 0.19831 0.0
C120 C 0.28577 0.087 0.21318 0.0
C121 C 0.30092 0.06976 0.2261 0.0
N122 N 0.33301 0.03518 0.26061 0.0
C123 C 0.33737 0.06166 0.26116 0.0
C124 C 0.35383 0.07145 0.28222 0.0
C125 C 0.35954 0.05001 0.29635 0.0
C126 C 0.34603 0.02834 0.28316 0.0
N127 N 0.33596 0.01416 0.20725 0.0
C128 C 0.3656 0.01666 0.16016 0.0
C129 C 0.36334 0.03909 0.17674 0.0
C130 C 0.34855 0.0374 0.1999 0.0
C131 C 0.35398 0.99283 0.16871 0.0
C132 C 0.34039 0.99196 0.19235 0.0
N133 N 0.28139 0.01179 0.26239 0.0
C134 C 0.25786 0.03373 0.29678 0.0
C135 C 0.24187 0.01073 0.3004 0.0
C136 C 0.2463 0.9882 0.28473 0.0
C137 C 0.26624 0.98908 0.26627 0.0
C138 C 0.27713 0.03392 0.27757 0.0
H139 H 0.26896 0.97123 0.25513 0.0
H140 H 0.28836 0.05217 0.27523 0.0
H141 H 0.34744 0.05532 0.21115 0.0
H142 H 0.33307 0.97302 0.19759 0.0
C143 C 0.29947 0.9486 0.22229 0.0
C144 C 0.34416 0.002 0.2939 0.0
C145 C 0.25567 0.02299 0.19074 0.0
C146 C 0.32161 0.07682 0.24509 0.0
H147 H 0.34688 0.94536 0.29928 0.0
H148 H 0.3246 0.91699 0.25892 0.0
H149 H 0.25901 0.93262 0.18293 0.0
H150 H 0.23425 0.97309 0.1666 0.0
H151 H 0.2514 0.07846 0.18555 0.0
H152 H 0.2878 0.10829 0.21481 0.0
H153 H 0.35934 0.09189 0.28781 0.0
H154 H 0.37109 0.05041 0.31502 0.0
H155 H 0.37266 0.05799 0.17194 0.0
H156 H 0.35444 0.9746 0.15701 0.0
H157 H 0.25559 0.0516 0.30864 0.0
H158 H 0.23417 0.96999 0.28619 0.0
C159 C 0.63589 0.46585 0.21218 0.0
C160 C 0.62361 0.44098 0.20624 0.0
C161 C 0.63569 0.42419 0.22253 0.0
C162 C 0.65435 0.43982 0.23755 0.0
N163 N 0.65444 0.46559 0.2322 0.0
Co164 Co 0.67705 0.49549 0.25 0.0
N165 N 0.69732 0.47068 0.27131 0.0
C166 C 0.69575 0.44412 0.26838 0.0
C167 C 0.71318 0.43256 0.28499 0.0
C168 C 0.72622 0.4529 0.29978 0.0
C169 C 0.71557 0.4758 0.29161 0.0
N170 N 0.69818 0.52541 0.26949 0.0
C171 C 0.71153 0.52511 0.29334 0.0
C172 C 0.71652 0.55036 0.30489 0.0
C173 C 0.70694 0.56724 0.28724 0.0
C174 C 0.69584 0.55142 0.26648 0.0
N175 N 0.65782 0.52019 0.22751 0.0
C176 C 0.66247 0.54663 0.2274 0.0
C177 C 0.64979 0.55802 0.20683 0.0
C178 C 0.63666 0.53763 0.19246 0.0
C179 C 0.64171 0.51475 0.2055 0.0
N180 N 0.65094 0.49769 0.27841 0.0
C181 C 0.62257 0.5022 0.32561 0.0
C182 C 0.62622 0.52357 0.30909 0.0
C183 C 0.64027 0.52085 0.28558 0.0
C184 C 0.63238 0.47839 0.31724 0.0
C185 C 0.64572 0.47644 0.29363 0.0
N186 N 0.70355 0.49326 0.22159 0.0
C187 C 0.7353 0.51411 0.19253 0.0
C188 C 0.73889 0.49002 0.17915 0.0
C189 C 0.72483 0.46759 0.18787 0.0
C190 C 0.70752 0.46961 0.20886 0.0
C191 C 0.71772 0.51528 0.21352 0.0
H192 H 0.69747 0.45167 0.21425 0.0
H193 H 0.71568 0.53425 0.22276 0.0
H194 H 0.64283 0.53783 0.27386 0.0
H195 H 0.65255 0.45767 0.28869 0.0
C196 C 0.67475 0.4306 0.25343 0.0
C197 C 0.63253 0.48814 0.19557 0.0
C198 C 0.72179 0.50169 0.30478 0.0
C199 C 0.67982 0.56017 0.24611 0.0
H200 H 0.60873 0.43539 0.19053 0.0
H201 H 0.63246 0.40297 0.22222 0.0
H202 H 0.71514 0.41175 0.28717 0.0
H203 H 0.74109 0.45077 0.31546 0.0
H204 H 0.72612 0.55602 0.32415 0.0
H205 H 0.70667 0.58839 0.28995 0.0
H206 H 0.65092 0.5786 0.20214 0.0
H207 H 0.62566 0.53992 0.17397 0.0
H208 H 0.61849 0.5423 0.31427 0.0
H209 H 0.63066 0.46121 0.32923 0.0
H210 H 0.7456 0.53214 0.18653 0.0
H211 H 0.72728 0.44835 0.17871 0.0
C212 C 0.30055 0.35674 0.9928 0.0
C213 C 0.30799 0.36258 0.96713 0.0
C214 C 0.28783 0.35241 0.95004 0.0
C215 C 0.2695 0.34076 0.96613 0.0
N216 N 0.27655 0.34313 0.99246 0.0
Co217 Co 0.25811 0.32545 0.0223 0.0
N218 N 0.23195 0.30604 0.99665 0.0
C219 C 0.22756 0.31122 0.97069 0.0
C220 C 0.20548 0.29766 0.959 0.0
C221 C 0.19507 0.28306 0.97879 0.0
C222 C 0.2119 0.28815 0.00132 0.0
N223 N 0.24129 0.30576 0.05184 0.0
C224 C 0.22299 0.28489 0.0506 0.0
C225 C 0.21808 0.2759 0.07585 0.0
C226 C 0.23353 0.29201 0.09366 0.0
C227 C 0.24723 0.3096 0.07829 0.0
N228 N 0.28305 0.34653 0.04788 0.0
C229 C 0.28142 0.3486 0.07469 0.0
C230 C 0.30142 0.36503 0.08688 0.0
C231 C 0.31677 0.37359 0.06655 0.0
C232 C 0.30528 0.3617 0.04312 0.0
N233 N 0.23236 0.35339 0.02544 0.0
C234 C 0.18673 0.38253 0.02236 0.0
C235 C 0.19222 0.36787 0.04465 0.0
C236 C 0.21509 0.354 0.04598 0.0
C237 C 0.20684 0.38544 0.00381 0.0
C238 C 0.22918 0.37085 0.00566 0.0
N239 N 0.28322 0.29766 0.01921 0.0
C240 C 0.31837 0.27362 0.03828 0.0
C241 C 0.32096 0.25983 0.01386 0.0
C242 C 0.30372 0.26499 0.99241 0.0
C243 C 0.28527 0.28394 0.99543 0.0
C244 C 0.29934 0.29215 0.04058 0.0
H245 H 0.2729 0.2875 0.97825 0.0
H246 H 0.29809 0.30209 0.05973 0.0
H247 H 0.21743 0.34308 0.06347 0.0
H248 H 0.24318 0.37374 0.9904 0.0
C249 C 0.2459 0.3269 0.95726 0.0
C250 C 0.3168 0.36406 0.01699 0.0
C251 C 0.20923 0.27408 0.02597 0.0
C252 C 0.26483 0.33063 0.08784 0.0
H253 H 0.32617 0.3728 0.96118 0.0
H254 H 0.28695 0.35287 0.92844 0.0
H255 H 0.19814 0.29792 0.93843 0.0
H256 H 0.17738 0.26974 0.97667 0.0
H257 H 0.20447 0.2597 0.08095 0.0
H258 H 0.23453 0.29111 0.11523 0.0
H259 H 0.30543 0.3689 0.10811 0.0
H260 H 0.3349 0.38629 0.06876 0.0
H261 H 0.17844 0.36561 0.06052 0.0
H262 H 0.20533 0.39832 0.9873 0.0
H263 H 0.33125 0.27053 0.05547 0.0
H264 H 0.30434 0.25443 0.97327 0.0
C265 C 0.19551 0.64366 0.48402 0.0
C266 C 0.19164 0.63091 0.45896 0.0
C267 C 0.2113 0.64086 0.44358 0.0
C268 C 0.22596 0.6589 0.46009 0.0
N269 N 0.21715 0.66089 0.48526 0.0
Co270 Co 0.23141 0.68591 0.51532 0.0
N271 N 0.25816 0.70283 0.4916 0.0
C272 C 0.2618 0.69644 0.46554 0.0
C273 C 0.28363 0.70931 0.4554 0.0
C274 C 0.29483 0.72468 0.47621 0.0
C275 C 0.27882 0.72064 0.4979 0.0
N276 N 0.24591 0.71077 0.54534 0.0
C277 C 0.26706 0.72872 0.54624 0.0
C278 C 0.2707 0.74156 0.57126 0.0
C279 C 0.25163 0.73082 0.58693 0.0
C280 C 0.23737 0.7123 0.57063 0.0
N281 N 0.20461 0.66893 0.53884 0.0
C282 C 0.2012 0.67484 0.56499 0.0
C283 C 0.1802 0.66067 0.57535 0.0
C284 C 0.1692 0.64515 0.55442 0.0
C285 C 0.18428 0.65071 0.53247 0.0
N286 N 0.25785 0.6609 0.52595 0.0
C287 C 0.30527 0.63873 0.54115 0.0
C288 C 0.28831 0.64778 0.56039 0.0
C289 C 0.26454 0.65809 0.55238 0.0
C290 C 0.2963 0.638 0.51434 0.0
C291 C 0.27273 0.64909 0.50725 0.0
N292 N 0.20527 0.71138 0.5049 0.0
C293 C 0.17578 0.74554 0.51584 0.0
C294 C 0.17005 0.74894 0.48871 0.0
C295 C 0.181 0.73192 0.47016 0.0
C296 C 0.19895 0.71426 0.47848 0.0
C297 C 0.19299 0.72644 0.52345 0.0
H298 H 0.20768 0.70335 0.46302 0.0
H299 H 0.19634 0.72454 0.54439 0.0
H300 H 0.25258 0.6649 0.56791 0.0
H301 H 0.26764 0.64885 0.48646 0.0
C302 C 0.24647 0.67604 0.45191 0.0
C303 C 0.17755 0.63949 0.50565 0.0
C304 C 0.28452 0.73372 0.52416 0.0
C305 C 0.21667 0.69518 0.57872 0.0
H306 H 0.17583 0.61643 0.45227 0.0
H307 H 0.21398 0.63626 0.4226 0.0
H308 H 0.29129 0.70678 0.43563 0.0
H309 H 0.31324 0.73681 0.47555 0.0
H310 H 0.28584 0.75681 0.57772 0.0
H311 H 0.24885 0.73556 0.60787 0.0
H312 H 0.1731 0.66219 0.59544 0.0
H313 H 0.15154 0.63189 0.55507 0.0
H314 H 0.29377 0.64825 0.58151 0.0
H315 H 0.30775 0.62969 0.49866 0.0
H316 H 0.16768 0.75787 0.53116 0.0
H317 H 0.17635 0.73246 0.44893 0.0
C318 C 0.77635 0.84506 0.47765 0.0
C319 C 0.78003 0.85153 0.45134 0.0
C320 C 0.75926 0.83909 0.43647 0.0
C321 C 0.74408 0.82601 0.45456 0.0
N322 N 0.75333 0.83022 0.48015 0.0
Co323 Co 0.73867 0.81424 0.5128 0.0
N324 N 0.71253 0.79015 0.49068 0.0
C325 C 0.70853 0.78974 0.46376 0.0
C326 C 0.69059 0.76998 0.454 0.0
C327 C 0.68256 0.75704 0.47593 0.0
C328 C 0.6958 0.76997 0.49807 0.0
N329 N 0.72437 0.79828 0.54551 0.0
C330 C 0.70466 0.77922 0.54785 0.0
C331 C 0.69858 0.77627 0.57447 0.0
C332 C 0.71574 0.79333 0.58942 0.0
C333 C 0.73095 0.80603 0.57118 0.0
N334 N 0.76518 0.83829 0.53456 0.0
C335 C 0.76708 0.8415 0.56151 0.0
C336 C 0.78962 0.85606 0.57084 0.0
C337 C 0.80334 0.86184 0.54861 0.0
C338 C 0.78812 0.85078 0.52678 0.0
N339 N 0.71087 0.84069 0.51493 0.0
C340 C 0.66038 0.86108 0.51971 0.0
C341 C 0.67799 0.86086 0.54191 0.0
C342 C 0.70314 0.85097 0.53901 0.0
C343 C 0.66996 0.85439 0.49475 0.0
C344 C 0.69524 0.84507 0.49279 0.0
N345 N 0.76532 0.78733 0.51078 0.0
C346 C 0.79953 0.76247 0.53101 0.0
C347 C 0.80218 0.74777 0.50698 0.0
C348 C 0.78564 0.7535 0.48513 0.0
C349 C 0.76813 0.77339 0.48727 0.0
C350 C 0.78092 0.78176 0.53255 0.0
H351 H 0.75681 0.77707 0.46958 0.0
H352 H 0.77938 0.79204 0.55147 0.0
H353 H 0.71547 0.85094 0.55671 0.0
H354 H 0.70104 0.84047 0.47314 0.0
C355 C 0.72353 0.80675 0.44796 0.0
C356 C 0.79658 0.85074 0.49909 0.0
C357 C 0.69204 0.7626 0.52569 0.0
C358 C 0.75086 0.82595 0.57745 0.0
H359 H 0.79681 0.86276 0.44356 0.0
H360 H 0.75657 0.83822 0.4149 0.0
H361 H 0.68466 0.76505 0.43331 0.0
H362 H 0.66883 0.73978 0.47532 0.0
H363 H 0.68338 0.76303 0.58234 0.0
H364 H 0.7168 0.79632 0.61097 0.0
H365 H 0.79646 0.85992 0.59146 0.0
H366 H 0.82298 0.8717 0.54899 0.0
H367 H 0.67192 0.86691 0.56161 0.0
H368 H 0.65761 0.85557 0.47673 0.0
H369 H 0.81181 0.7594 0.54861 0.0
H370 H 0.78568 0.74257 0.46619 0.0
C371 C 0.50128 0.81502 0.84124 0.0
C372 C 0.47607 0.82054 0.84884 0.0
C373 C 0.45928 0.79959 0.83988 0.0
C374 C 0.4751 0.78263 0.82723 0.0
N375 N 0.50115 0.79098 0.82847 0.0
Co376 Co 0.53057 0.77469 0.80931 0.0
N377 N 0.50498 0.74863 0.78916 0.0
C378 C 0.47862 0.74475 0.79286 0.0
C379 C 0.46619 0.72507 0.77651 0.0
C380 C 0.48578 0.71572 0.76158 0.0
C381 C 0.5092 0.73026 0.76976 0.0
N382 N 0.55998 0.75935 0.78942 0.0
C383 C 0.55904 0.74023 0.76966 0.0
C384 C 0.58422 0.7359 0.76105 0.0
C385 C 0.60169 0.75274 0.77606 0.0
C386 C 0.58625 0.7664 0.79289 0.0
N387 N 0.55584 0.8009 0.82968 0.0
C388 C 0.58264 0.80169 0.83032 0.0
C389 C 0.59444 0.82362 0.84403 0.0
C390 C 0.57396 0.83798 0.85182 0.0
C391 C 0.55078 0.82398 0.84236 0.0
N392 N 0.53453 0.74812 0.83747 0.0
C393 C 0.53674 0.6983 0.85972 0.0
C394 C 0.55999 0.71277 0.85338 0.0
C395 C 0.55846 0.73771 0.84271 0.0
C396 C 0.51304 0.71073 0.85838 0.0
C397 C 0.51254 0.73574 0.84799 0.0
N398 N 0.52674 0.79991 0.78092 0.0
C399 C 0.54656 0.82921 0.74942 0.0
C400 C 0.5217 0.83203 0.73742 0.0
C401 C 0.49928 0.81946 0.74795 0.0
C402 C 0.50224 0.80344 0.76959 0.0
C403 C 0.54861 0.81333 0.77132 0.0
H404 H 0.48457 0.79369 0.77661 0.0
H405 H 0.56806 0.81178 0.77995 0.0
H406 H 0.5768 0.74752 0.83775 0.0
H407 H 0.49382 0.74397 0.84757 0.0
C408 C 0.4658 0.76098 0.81061 0.0
C409 C 0.52444 0.83394 0.84433 0.0
C410 C 0.53498 0.72501 0.75925 0.0
C411 C 0.59568 0.78558 0.81252 0.0
H412 H 0.47016 0.83839 0.85861 0.0
H413 H 0.43785 0.79784 0.84075 0.0
H414 H 0.44531 0.71849 0.77538 0.0
H415 H 0.48315 0.69984 0.74649 0.0
H416 H 0.58938 0.72181 0.7457 0.0
H417 H 0.62309 0.75466 0.77498 0.0
H418 H 0.61543 0.82963 0.84604 0.0
H419 H 0.57583 0.85718 0.86205 0.0
H420 H 0.57902 0.70431 0.85512 0.0
H421 H 0.4947 0.70075 0.86441 0.0
H422 H 0.56428 0.83906 0.74184 0.0
H423 H 0.47967 0.82142 0.73907 0.0
C424 C 0.54798 0.30337 0.63831 0.0
C425 C 0.57222 0.30931 0.62708 0.0
C426 C 0.58834 0.29011 0.63436 0.0
C427 C 0.57301 0.27358 0.64949 0.0
N428 N 0.54805 0.28091 0.65181 0.0
Co429 Co 0.51961 0.26356 0.67295 0.0
N430 N 0.54561 0.24264 0.69251 0.0
C431 C 0.57181 0.2422 0.68804 0.0
C432 C 0.58475 0.22591 0.70436 0.0
C433 C 0.56571 0.21558 0.72039 0.0
C434 C 0.5421 0.22619 0.71293 0.0
N435 N 0.49078 0.24516 0.69306 0.0
C436 C 0.49209 0.22788 0.71293 0.0
C437 C 0.46688 0.21965 0.72087 0.0
C438 C 0.44917 0.23165 0.70507 0.0
C439 C 0.46439 0.24665 0.68854 0.0
N440 N 0.4941 0.28638 0.65523 0.0
C441 C 0.46745 0.28493 0.65718 0.0
C442 C 0.45555 0.30513 0.64544 0.0
C443 C 0.47595 0.32077 0.63605 0.0
C444 C 0.4992 0.30896 0.64237 0.0
N445 N 0.51326 0.23537 0.64416 0.0
C446 C 0.49787 0.19045 0.61136 0.0
C447 C 0.48305 0.21245 0.61107 0.0
C448 C 0.49136 0.23472 0.62698 0.0
C449 C 0.52174 0.19209 0.62634 0.0
C450 C 0.52909 0.21459 0.64236 0.0
N451 N 0.52553 0.29122 0.70111 0.0
C452 C 0.50719 0.32205 0.7314 0.0
C453 C 0.53237 0.33423 0.7372 0.0
C454 C 0.55431 0.32447 0.72521 0.0
C455 C 0.55046 0.30269 0.70733 0.0
C456 C 0.5042 0.30061 0.71339 0.0
H457 H 0.5677 0.29547 0.69848 0.0
H458 H 0.48444 0.2921 0.70929 0.0
H459 H 0.47925 0.25079 0.62505 0.0
H460 H 0.54742 0.21409 0.65337 0.0
C461 C 0.58305 0.25576 0.66702 0.0
C462 C 0.52583 0.32018 0.63701 0.0
C463 C 0.51669 0.219 0.7249 0.0
C464 C 0.45471 0.26539 0.67183 0.0
H465 H 0.57795 0.32636 0.61585 0.0
H466 H 0.60932 0.28955 0.63092 0.0
H467 H 0.60542 0.22161 0.70424 0.0
H468 H 0.56878 0.20132 0.73541 0.0
H469 H 0.46168 0.20669 0.7367 0.0
H470 H 0.42777 0.23048 0.70631 0.0
H471 H 0.43467 0.30872 0.64482 0.0
H472 H 0.47385 0.3391 0.62634 0.0
H473 H 0.46461 0.21227 0.59929 0.0
H474 H 0.53448 0.17587 0.62615 0.0
H475 H 0.48988 0.32908 0.74078 0.0
H476 H 0.57417 0.33329 0.72991 0.0
C477 C 0.84486 0.48388 0.77881 0.0
C478 C 0.85454 0.45925 0.78115 0.0
C479 C 0.84272 0.44349 0.76062 0.0
C480 C 0.82675 0.45936 0.74676 0.0
N481 N 0.82806 0.48425 0.75715 0.0
Co482 Co 0.80895 0.51373 0.74285 0.0
N483 N 0.7836 0.48918 0.72069 0.0
C484 C 0.784 0.46276 0.71859 0.0
C485 C 0.76119 0.4506 0.7068 0.0
C486 C 0.7456 0.4706 0.70068 0.0
C487 C 0.7603 0.49402 0.70811 0.0
N488 N 0.7916 0.54347 0.72703 0.0
C489 C 0.773 0.54275 0.70692 0.0
C490 C 0.77323 0.56685 0.69471 0.0
C491 C 0.79125 0.58365 0.7089 0.0
C492 C 0.80181 0.56869 0.72809 0.0
N493 N 0.83196 0.53809 0.76741 0.0
C494 C 0.83315 0.56464 0.76805 0.0
C495 C 0.84552 0.57617 0.79077 0.0
C496 C 0.85256 0.55568 0.80555 0.0
C497 C 0.84481 0.53266 0.79051 0.0
N498 N 0.83425 0.51646 0.71343 0.0
C499 C 0.86208 0.52953 0.66756 0.0
C500 C 0.86913 0.54205 0.69244 0.0
C501 C 0.85565 0.53468 0.71509 0.0
C502 C 0.84238 0.50887 0.66657 0.0
C503 C 0.82878 0.50277 0.68942 0.0
N504 N 0.78376 0.51123 0.7714 0.0
C505 C 0.75437 0.53156 0.80126 0.0
C506 C 0.74514 0.50681 0.80937 0.0
C507 C 0.75637 0.48449 0.79931 0.0
C508 C 0.77567 0.48712 0.78045 0.0
C509 C 0.77369 0.53335 0.78212 0.0
H510 H 0.78325 0.46938 0.77272 0.0
H511 H 0.77987 0.55256 0.77555 0.0
H512 H 0.86265 0.54454 0.73354 0.0
H513 H 0.81359 0.48716 0.68662 0.0
C514 C 0.80548 0.45019 0.72933 0.0
C515 C 0.8511 0.50614 0.798 0.0
C516 C 0.75351 0.52037 0.70043 0.0
C517 C 0.82034 0.5779 0.74816 0.0
H518 H 0.86788 0.45302 0.79667 0.0
H519 H 0.844 0.4225 0.7575 0.0
H520 H 0.75615 0.42969 0.70366 0.0
H521 H 0.72573 0.46792 0.6918 0.0
H522 H 0.76143 0.57202 0.67752 0.0
H523 H 0.79612 0.60424 0.70556 0.0
H524 H 0.84804 0.59692 0.79649 0.0
H525 H 0.86202 0.55772 0.82531 0.0
H526 H 0.88464 0.55786 0.69452 0.0
H527 H 0.83716 0.49747 0.64817 0.0
H528 H 0.74573 0.5492 0.80857 0.0
H529 H 0.74952 0.46503 0.80522 0.0
C530 C 0.1423 0.03135 0.77808 0.0
C531 C 0.13283 0.05596 0.78258 0.0
C532 C 0.14369 0.07184 0.76387 0.0
C533 C 0.15882 0.05597 0.74889 0.0
N534 N 0.15754 0.03083 0.75646 0.0
Co535 Co 0.17562 0.00107 0.73989 0.0
N536 N 0.1978 0.02536 0.71765 0.0
C537 C 0.19809 0.05194 0.71861 0.0
C538 C 0.21712 0.06378 0.70346 0.0
C539 C 0.22956 0.04358 0.69188 0.0
C540 C 0.2169 0.02032 0.70005 0.0
N541 N 0.19276 0.97105 0.72185 0.0
C542 C 0.20955 0.97072 0.70111 0.0
C543 C 0.21258 0.94509 0.6918 0.0
C544 C 0.19786 0.92881 0.70739 0.0
C545 C 0.18616 0.9452 0.72496 0.0
N546 N 0.15499 0.9771 0.76373 0.0
C547 C 0.15526 0.95062 0.76383 0.0
C548 C 0.14372 0.93985 0.78553 0.0
C549 C 0.13627 0.96075 0.80064 0.0
C550 C 0.14322 0.98323 0.78693 0.0
N551 N 0.14732 0.99689 0.71148 0.0
C552 C 0.12009 0.9856 0.66279 0.0
C553 C 0.11889 0.96727 0.68252 0.0
C554 C 0.13231 0.97352 0.70698 0.0
C555 C 0.13174 0.01074 0.6688 0.0
C556 C 0.14479 0.01611 0.69344 0.0
N557 N 0.20356 0.00503 0.76816 0.0
C558 C 0.23434 0.98517 0.79733 0.0
C559 C 0.24451 0.00992 0.80694 0.0
C560 C 0.23299 0.03224 0.79834 0.0
C561 C 0.21242 0.02934 0.77895 0.0
C562 C 0.21398 0.98316 0.77793 0.0
H563 H 0.20454 0.04697 0.77235 0.0
H564 H 0.20753 0.9638 0.77046 0.0
H565 H 0.13125 0.95863 0.72123 0.0
H566 H 0.15393 0.03545 0.69669 0.0
C567 C 0.17883 0.06502 0.73226 0.0
C568 C 0.13959 0.01021 0.79684 0.0
C569 C 0.22253 0.99408 0.68925 0.0
C570 C 0.16924 0.93691 0.7449 0.0
H571 H 0.12087 0.06219 0.79884 0.0
H572 H 0.14249 0.09288 0.76282 0.0
H573 H 0.22116 0.08461 0.70073 0.0
H574 H 0.24579 0.04587 0.6785 0.0
H575 H 0.22374 0.93857 0.6751 0.0
H576 H 0.1956 0.90753 0.7058 0.0
H577 H 0.14244 0.9194 0.79067 0.0
H578 H 0.12782 0.95925 0.82003 0.0
H579 H 0.10916 0.9478 0.67855 0.0
H580 H 0.13206 0.02567 0.65399 0.0
H581 H 0.24329 0.96756 0.80347 0.0
H582 H 0.24092 0.05175 0.80523 0.0
C583 C 0.72148 0.15649 0.98541 0.0
C584 C 0.72058 0.14524 0.95967 0.0
C585 C 0.73238 0.16362 0.94386 0.0
C586 C 0.74095 0.18429 0.96113 0.0
N587 N 0.73621 0.17959 0.98691 0.0
Co588 Co 0.75132 0.19988 0.01955 0.0
N589 N 0.76864 0.22701 0.99723 0.0
C590 C 0.76524 0.22937 0.97052 0.0
C591 C 0.77977 0.25059 0.96123 0.0
C592 C 0.79383 0.26179 0.98315 0.0
C593 C 0.78734 0.24641 0.00457 0.0
N594 N 0.76767 0.21958 0.05221 0.0
C595 C 0.78892 0.23741 0.05382 0.0
C596 C 0.79833 0.24215 0.08016 0.0
C597 C 0.78223 0.2271 0.09564 0.0
C598 C 0.76435 0.21353 0.07803 0.0
N599 N 0.73348 0.1727 0.04166 0.0
C600 C 0.73446 0.17153 0.06851 0.0
C601 C 0.72069 0.14964 0.07749 0.0
C602 C 0.70961 0.13655 0.05492 0.0
C603 C 0.71701 0.1516 0.03362 0.0
N604 N 0.78353 0.17961 0.01808 0.0
C605 C 0.83384 0.15845 0.01632 0.0
C606 C 0.82028 0.16001 0.04026 0.0
C607 C 0.79511 0.17005 0.04055 0.0
C608 C 0.82029 0.16543 0.99306 0.0
C609 C 0.79606 0.17661 0.99453 0.0
N610 N 0.71921 0.22081 0.02073 0.0
C611 C 0.69003 0.24896 0.0444 0.0
C612 C 0.6788 0.25665 0.02021 0.0
C613 C 0.68681 0.2447 0.99663 0.0
C614 C 0.70652 0.2269 0.99733 0.0
C615 C 0.71007 0.23101 0.04422 0.0
H616 H 0.71156 0.21893 0.97841 0.0
H617 H 0.71827 0.22609 0.06321 0.0
H618 H 0.7859 0.17094 0.05938 0.0
H619 H 0.78847 0.18359 0.97633 0.0
C620 C 0.75318 0.20849 0.95421 0.0
C621 C 0.70449 0.14826 0.00693 0.0
C622 C 0.8015 0.24876 0.03062 0.0
C623 C 0.74849 0.19126 0.08447 0.0
H624 H 0.71154 0.12617 0.95283 0.0
H625 H 0.73424 0.16215 0.9224 0.0
H626 H 0.78157 0.25606 0.94068 0.0
H627 H 0.8084 0.27839 0.98299 0.0
H628 H 0.81591 0.25392 0.08755 0.0
H629 H 0.78488 0.22449 0.11689 0.0
H630 H 0.71832 0.14428 0.098 0.0
H631 H 0.69601 0.11912 0.05423 0.0
H632 H 0.82922 0.15458 0.059 0.0
H633 H 0.82847 0.16323 0.97353 0.0
H634 H 0.68421 0.25754 0.06324 0.0
H635 H 0.67828 0.2496 0.97745 0.0
O636 O 0.0892 0.10678 0.09941 0.0
Mg637 Mg 0.11579 0.10194 0.06824 0.0
O638 O 0.05255 0.08632 0.07963 0.0
Mg639 Mg 0.06487 0.06916 0.03835 0.0
O640 O 0.10703 0.06491 0.05492 0.0
O641 O 0.14717 0.07877 0.07146 0.0
O642 O 0.07923 0.05512 0.99628 0.0
O643 O 0.05824 0.02542 0.05132 0.0
Mg644 Mg 0.01945 0.03681 0.00329 0.0
O645 O 0.0214 0.07228 0.02373 0.0
O646 O 0.04519 0.03707 0.97109 0.0
O647 O 0.02301 0.00601 0.0288 0.0
O648 O 0.98486 0.05508 0.00103 0.0
C649 C 0.09172 0.12959 0.02399 0.0
C650 C 0.06459 0.09953 0.09936 0.0
C651 C 0.12993 0.05948 0.06487 0.0
C652 C 0.06961 0.0447 0.97402 0.0
C653 C 0.04202 0.00536 0.04587 0.0
C654 C 0.99695 0.07408 0.01553 0.0
O655 O 0.11285 0.12731 0.03773 0.0
O656 O 0.07217 0.11223 0.0234 0.0
O657 O 0.96375 0.46758 0.09993 0.0
Mg658 Mg 0.93155 0.45584 0.07174 0.0
O659 O 0.97076 0.43715 0.07051 0.0
Mg660 Mg 0.94666 0.4584 0.03597 0.0
O661 O 0.9032 0.47305 0.05097 0.0
O662 O 0.90255 0.4676 0.09497 0.0
O663 O 0.92686 0.47584 0.99577 0.0
O664 O 0.96257 0.49843 0.05526 0.0
Mg665 Mg 0.9779 0.47914 0.00499 0.0
O666 O 0.98873 0.44502 0.02171 0.0
O667 O 0.95914 0.47315 0.96813 0.0
O668 O 0.97974 0.5179 0.02147 0.0
O669 O 0.01591 0.47296 0.0 0.0
C670 C 0.92168 0.40392 0.0419 0.0
C671 C 0.97632 0.44805 0.09336 0.0
C672 C 0.89145 0.47532 0.07356 0.0
C673 C 0.93521 0.4767 0.97193 0.0
C674 C 0.97278 0.51896 0.04531 0.0
C675 C 0.01165 0.45116 0.01167 0.0
O676 O 0.92277 0.41439 0.06537 0.0
O677 O 0.92864 0.41765 0.02236 0.0
O678 O 0.07548 0.93878 0.37509 0.0
Mg679 Mg 0.06534 0.90691 0.39866 0.0
O680 O 0.07041 0.96318 0.41092 0.0
Mg681 Mg 0.02986 0.94326 0.42315 0.0
O682 O 0.04662 0.90309 0.43437 0.0
O683 O 0.0886 0.91511 0.43512 0.0
O684 O 0.9887 0.92293 0.43674 0.0
O685 O 0.04457 0.95593 0.46518 0.0
Mg686 Mg 0.99578 0.97972 0.44748 0.0
O687 O 0.01664 0.9859 0.41318 0.0
O688 O 0.96211 0.95412 0.44606 0.0
O689 O 0.01793 0.98289 0.48403 0.0
O690 O 0.98986 0.01439 0.43171 0.0
C691 C 0.01491 0.90416 0.37092 0.0
C692 C 0.0817 0.95944 0.38905 0.0
C693 C 0.07014 0.89991 0.444 0.0
C694 C 0.966 0.93002 0.44345 0.0
C695 C 0.03842 0.9701 0.48501 0.0
C696 C 0.00609 0.0086 0.41344 0.0
O697 O 0.03108 0.88865 0.38019 0.0
O698 O 0.01537 0.92809 0.37969 0.0
O699 O 0.92191 0.62112 0.41697 0.0
Mg700 Mg 0.93471 0.5986 0.38565 0.0
O701 O 0.92787 0.59218 0.44779 0.0
Mg702 Mg 0.94646 0.55304 0.42858 0.0
O703 O 0.95899 0.56797 0.38707 0.0
O704 O 0.97582 0.60767 0.39645 0.0
O705 O 0.96353 0.5133 0.40745 0.0
O706 O 0.98812 0.56625 0.44571 0.0
Mg707 Mg 0.95544 0.51352 0.45508 0.0
O708 O 0.93241 0.54029 0.4713 0.0
O709 O 0.94135 0.48277 0.42812 0.0
O710 O 0.99645 0.52629 0.45709 0.0
O711 O 0.94452 0.50435 0.49192 0.0
C712 C 0.89174 0.55072 0.39465 0.0
C713 C 0.91967 0.61426 0.44071 0.0
C714 C 0.97646 0.58652 0.38217 0.0
C715 C 0.95589 0.48889 0.40915 0.0
C716 C 0.00426 0.5502 0.45438 0.0
C717 C 0.93225 0.52563 0.49193 0.0
O718 O 0.90035 0.57125 0.38307 0.0
O719 O 0.90563 0.54 0.41216 0.0
O720 O 0.42068 0.9245 0.60969 0.0
Mg721 Mg 0.38653 0.93312 0.58847 0.0
O722 O 0.44628 0.93817 0.57766 0.0
Mg723 Mg 0.4243 0.95087 0.5394 0.0
O724 O 0.38203 0.95917 0.55775 0.0
O725 O 0.39178 0.9741 0.59849 0.0
O726 O 0.40371 0.96229 0.4975 0.0
O727 O 0.43739 0.99468 0.55075 0.0
Mg728 Mg 0.46238 0.96994 0.49944 0.0
O729 O 0.46724 0.94039 0.52477 0.0
O730 O 0.43494 0.96087 0.4679 0.0
O731 O 0.46262 0.0076 0.5178 0.0
O732 O 0.49805 0.95459 0.49631 0.0
C733 C 0.39337 0.89257 0.54059 0.0
C734 C 0.44338 0.92889 0.6006 0.0
C735 C 0.37647 0.97439 0.57779 0.0
C736 C 0.41085 0.96253 0.47316 0.0
C737 C 0.45111 0.01252 0.53924 0.0
C738 C 0.49039 0.93848 0.51417 0.0
O739 O 0.38155 0.89937 0.5615 0.0
O740 O 0.41035 0.90785 0.52961 0.0
O741 O 0.54116 0.55965 0.62951 0.0
Mg742 Mg 0.5559 0.55899 0.59022 0.0
O743 O 0.52403 0.58581 0.60218 0.0
Mg744 Mg 0.54192 0.56275 0.56256 0.0
O745 O 0.58969 0.55799 0.57194 0.0
O746 O 0.583 0.53156 0.60412 0.0
O747 O 0.55594 0.54544 0.52116 0.0
O748 O 0.53162 0.51938 0.57769 0.0
Mg749 Mg 0.49674 0.5303 0.52851 0.0
O750 O 0.49832 0.56622 0.54885 0.0
O751 O 0.52082 0.53043 0.49579 0.0
O752 O 0.4992 0.49772 0.55343 0.0
O753 O 0.46246 0.54874 0.52511 0.0
C754 C 0.56917 0.61412 0.57023 0.0
C755 C 0.52729 0.57883 0.62608 0.0
C756 C 0.59903 0.54187 0.58788 0.0
C757 C 0.54557 0.53594 0.49884 0.0
C758 C 0.51647 0.4986 0.57254 0.0
C759 C 0.47379 0.56742 0.5406 0.0
O760 O 0.57111 0.60057 0.59091 0.0
O761 O 0.5551 0.60414 0.55022 0.0
O762 O 0.61231 0.47899 0.95102 0.0
Mg763 Mg 0.58103 0.4488 0.94195 0.0
O764 O 0.57796 0.49061 0.92941 0.0
Mg765 Mg 0.5473 0.46601 0.95483 0.0
O766 O 0.56585 0.42261 0.96755 0.0
O767 O 0.60217 0.41755 0.94429 0.0
O768 O 0.51073 0.4472 0.97677 0.0
O769 O 0.56961 0.48074 0.99299 0.0
Mg770 Mg 0.51691 0.50734 0.98289 0.0
O771 O 0.53254 0.50803 0.94587 0.0
O772 O 0.48475 0.47953 0.98467 0.0
O773 O 0.54654 0.5098 0.01387 0.0
O774 O 0.51036 0.54065 0.96367 0.0
C775 C 0.54119 0.4443 0.89701 0.0
C776 C 0.60279 0.49332 0.93378 0.0
C777 C 0.58627 0.40914 0.96194 0.0
C778 C 0.4885 0.45527 0.98364 0.0
C779 C 0.5667 0.49641 0.01276 0.0
C780 C 0.52306 0.53109 0.94408 0.0
O781 O 0.56589 0.44416 0.90173 0.0
O782 O 0.52612 0.44966 0.91584 0.0
O783 O 0.44509 0.13867 0.92148 0.0
Mg784 Mg 0.44299 0.10232 0.90173 0.0
O785 O 0.44405 0.10831 0.95095 0.0
Mg786 Mg 0.46618 0.07222 0.92964 0.0
O787 O 0.47908 0.09227 0.88813 0.0
O788 O 0.44694 0.10825 0.86258 0.0
O789 O 0.48607 0.03367 0.90901 0.0
O790 O 0.5046 0.09575 0.94675 0.0
Mg791 Mg 0.48966 0.04376 0.96267 0.0
O792 O 0.45201 0.05407 0.97108 0.0
O793 O 0.49154 0.00813 0.94251 0.0
O794 O 0.52443 0.06711 0.97036 0.0
O795 O 0.47963 0.03527 -0.00046 0.0
C796 C 0.40689 0.05751 0.90558 0.0
C797 C 0.44043 0.13201 0.94483 0.0
C798 C 0.47112 0.10236 0.86585 0.0
C799 C 0.49105 0.01104 0.91771 0.0
C800 C 0.52405 0.08971 0.96142 0.0
C801 C 0.45678 0.04367 0.99399 0.0
O802 O 0.40547 0.08176 0.9031 0.0
O803 O 0.42895 0.04895 0.91202 0.0
H804 H 0.03497 0.16029 0.39228 0.0
H805 H 0.0317 0.1434 0.30681 0.0
H806 H 0.02943 0.09544 0.31441 0.0
H807 H 0.07503 0.10447 0.40986 0.0
H808 H 0.05755 0.09919 0.44012 0.0
H809 H 0.06182 0.1318 0.42758 0.0
H810 H 0.01082 0.13541 0.42719 0.0
H811 H 0.00647 0.10297 0.43981 0.0
H812 H 0.98925 0.11048 0.40919 0.0
H813 H 0.02397 0.04845 0.33237 0.0
H814 H 0.01364 0.00875 0.35867 0.0
H815 H 0.02064 0.05782 0.4316 0.0
C816 C 0.03414 0.14641 0.37526 0.0
C817 C 0.03349 0.15528 0.34903 0.0
C818 C 0.03226 0.13676 0.32709 0.0
C819 C 0.03109 0.10955 0.33123 0.0
C820 C 0.03149 0.10127 0.35747 0.0
C821 C 0.03315 0.11929 0.37907 0.0
C822 C 0.03176 0.10564 0.40523 0.0
C823 C 0.05811 0.11057 0.42166 0.0
C824 C 0.00817 0.11412 0.42128 0.0
C825 C 0.02761 0.07725 0.39508 0.0
C826 C 0.02813 0.07482 0.36754 0.0
C827 C 0.02373 0.05021 0.35397 0.0
C828 C 0.01795 0.02775 0.36897 0.0
C829 C 0.01614 0.03037 0.39705 0.0
C830 C 0.02172 0.05532 0.41009 0.0
H831 H 0.98497 0.33921 0.37764 0.0
H832 H 0.03917 0.36489 0.31738 0.0
H833 H 0.03046 0.41138 0.32837 0.0
H834 H 0.93633 0.38525 0.35936 0.0
H835 H 0.92562 0.38931 0.39311 0.0
H836 H 0.93828 0.35876 0.38193 0.0
H837 H 0.97348 0.36295 0.42116 0.0
H838 H 0.96097 0.39346 0.43251 0.0
H839 H 0.99561 0.39229 0.42539 0.0
H840 H 0.01464 0.45607 0.34695 0.0
H841 H 0.99317 0.49271 0.36977 0.0
H842 H 0.94544 0.43581 0.41297 0.0
C843 C 0.99466 0.35454 0.36637 0.0
C844 C 0.01227 0.3483 0.34618 0.0
C845 C 0.02541 0.36916 0.33279 0.0
C846 C 0.02048 0.39562 0.33883 0.0
C847 C 0.00198 0.40095 0.35805 0.0
C848 C 0.98911 0.38081 0.37133 0.0
C849 C 0.96884 0.39119 0.38979 0.0
C850 C 0.9406 0.38049 0.3805 0.0
C851 C 0.97512 0.38459 0.41894 0.0
C852 C 0.97292 0.42046 0.38575 0.0
C853 C 0.99208 0.42591 0.3674 0.0
C854 C -0.00058 0.45187 0.36113 0.0
C855 C 0.98702 0.47261 0.3741 0.0
C856 C 0.96734 0.46734 0.39303 0.0
C857 C 0.96019 0.44076 0.39849 0.0
H858 H 0.03468 0.87585 0.12814 0.0
H859 H 0.0429 0.83378 0.05233 0.0
H860 H 0.05312 0.87605 0.0309 0.0
H861 H 0.0022 0.92817 0.10427 0.0
H862 H 0.01899 0.95327 0.12646 0.0
H863 H 0.01562 0.91977 0.13643 0.0
H864 H 0.06667 0.92042 0.14434 0.0
H865 H 0.07021 0.95397 0.13415 0.0
H866 H 0.08812 0.92909 0.11762 0.0
H867 H 0.05833 0.92161 0.0172 0.0
H868 H 0.05508 0.96878 0.01048 0.0
H869 H 0.04366 0.98262 0.09513 0.0
C870 C 0.03903 0.87575 0.10712 0.0
C871 C 0.03821 0.85195 0.09165 0.0
C872 C 0.0437 0.85205 0.06426 0.0
C873 C 0.04965 0.87585 0.05209 0.0
C874 C 0.0504 0.89912 0.06782 0.0
C875 C 0.04528 0.89935 0.09474 0.0
C876 C 0.04557 0.92726 0.10654 0.0
C877 C 0.01901 0.93241 0.11914 0.0
C878 C 0.06904 0.93302 0.12687 0.0
C879 C 0.04977 0.94266 0.08163 0.0
C880 C 0.05335 0.92591 0.05977 0.0
C881 C 0.05601 0.93496 0.03417 0.0
C882 C 0.05413 0.96172 0.03058 0.0
C883 C 0.04936 0.97907 0.05237 0.0
C884 C 0.04787 0.96969 0.07837 0.0
H885 H -0.00264 0.67362 0.06754 0.0
H886 H 0.00011 0.66248 0.15282 0.0
H887 H 0.98968 0.61446 0.14444 0.0
H888 H 0.94272 0.62396 0.0511 0.0
H889 H 0.95644 0.61389 0.01992 0.0
H890 H 0.96272 0.64731 0.03295 0.0
H891 H 0.01347 0.64293 0.03097 0.0
H892 H 0.00739 0.60957 0.01791 0.0
H893 H 0.02812 0.61658 0.0478 0.0
H894 H 0.97989 0.5679 0.12629 0.0
H895 H 0.97363 0.52572 0.09982 0.0
H896 H 0.97831 0.56814 0.02653 0.0
C897 C 0.99572 0.6609 0.0843 0.0
C898 C -0.00046 0.67112 0.11069 0.0
C899 C -0.00271 0.65445 0.13245 0.0
C900 C 0.99124 0.62739 0.12788 0.0
C901 C 0.98749 0.61773 0.10148 0.0
C902 C 0.98965 0.63398 0.08007 0.0
C903 C 0.98548 0.61869 0.05367 0.0
C904 C 0.96035 0.62642 0.03852 0.0
C905 C 0.01009 0.62214 0.03659 0.0
C906 C 0.98173 0.59116 0.06348 0.0
C907 C 0.98237 0.591 0.09109 0.0
C908 C 0.97935 0.56774 0.10466 0.0
C909 C 0.97585 0.54396 0.08951 0.0
C910 C 0.97586 0.54382 0.06122 0.0
C911 C 0.97861 0.56772 0.04815 0.0
H912 H 0.37441 0.05897 0.12629 0.0
H913 H 0.39071 0.97692 0.13504 0.0
H914 H 0.40686 0.97509 0.08999 0.0
H915 H 0.35874 0.05744 0.05504 0.0
H916 H 0.37784 0.08769 0.049 0.0
H917 H 0.36363 0.08296 0.08111 0.0
H918 H 0.40997 0.0922 0.10475 0.0
H919 H 0.4241 0.09755 0.07277 0.0
H920 H 0.43707 0.07358 0.09425 0.0
H921 H 0.4188 0.97988 0.04426 0.0
H922 H 0.44133 0.99472 0.00447 0.0
H923 H 0.42698 0.07562 0.02599 0.0
C924 C 0.38144 0.04059 0.11893 0.0
C925 C 0.3794 0.01755 0.13413 0.0
C926 C 0.38984 0.99435 0.12357 0.0
C927 C 0.3994 0.99309 0.09786 0.0
C928 C 0.3997 0.01549 0.08304 0.0
C929 C 0.39233 0.0392 0.09345 0.0
C930 C 0.39865 0.06103 0.07419 0.0
C931 C 0.37319 0.07298 0.06425 0.0
C932 C 0.41865 0.08234 0.08727 0.0
C933 C 0.41088 0.04559 0.05163 0.0
C934 C 0.41007 0.01918 0.05702 0.0
C935 C 0.41981 1.0005 0.03979 0.0
C936 C 0.43233 0.00908 0.01712 0.0
C937 C 0.43564 0.03615 0.01214 0.0
C938 C 0.4241 0.05474 0.02909 0.0
H939 H 0.59177 0.50771 0.16777 0.0
H940 H 0.65672 0.45725 0.15948 0.0
H941 H 0.64815 0.45412 0.11033 0.0
H942 H 0.54835 0.48643 0.11355 0.0
H943 H 0.54236 0.5193 0.10411 0.0
H944 H 0.55104 0.51327 0.13833 0.0
H945 H 0.5901 0.54898 0.13709 0.0
H946 H 0.58247 0.55436 0.1024 0.0
H947 H 0.61514 0.54564 0.11271 0.0
H948 H 0.63177 0.45732 0.06207 0.0
H949 H 0.60928 0.46632 0.01914 0.0
H950 H 0.56302 0.52297 0.06025 0.0
C951 C 0.60423 0.4961 0.15554 0.0
C952 C 0.62511 0.48315 0.167 0.0
C953 C 0.64061 0.46741 0.15074 0.0
C954 C 0.63609 0.46576 0.12294 0.0
C955 C 0.61676 0.48079 0.11205 0.0
C956 C 0.60143 0.49598 0.1279 0.0
C957 C 0.58438 0.51287 0.11158 0.0
C958 C 0.55478 0.50761 0.11722 0.0
C959 C 0.59357 0.54219 0.11623 0.0
C960 C 0.59074 0.50316 0.08396 0.0
C961 C 0.60963 0.48485 0.08451 0.0
C962 C 0.6173 0.47197 0.06133 0.0
C963 C 0.60451 0.47732 0.03708 0.0
C964 C 0.58441 0.49539 0.03647 0.0
C965 C 0.57839 0.50921 0.06006 0.0
H966 H 0.38057 0.97194 0.31837 0.0
H967 H 0.32021 0.02565 0.3358 0.0
H968 H 0.32811 0.01995 0.38441 0.0
H969 H 0.35794 0.92656 0.37103 0.0
H970 H 0.39107 0.91668 0.37725 0.0
H971 H 0.38076 0.92583 0.34425 0.0
H972 H 0.4207 0.96071 0.34453 0.0
H973 H 0.43109 0.95177 0.37743 0.0
H974 H 0.42502 0.98549 0.37139 0.0
H975 H 0.34478 0.00885 0.43203 0.0
H976 H 0.36855 0.99407 0.47249 0.0
H977 H 0.41297 0.9435 0.42212 0.0
C978 C 0.36832 0.98183 0.3323 0.0
C979 C 0.34922 0.99864 0.32322 0.0
C980 C 0.33479 0.01243 0.34232 0.0
C981 C 0.339 0.00916 0.36993 0.0
C982 C 0.35722 0.99145 0.37812 0.0
C983 C 0.37127 0.97771 0.35969 0.0
C984 C 0.38895 0.9591 0.37321 0.0
C985 C 0.3791 0.93034 0.366 0.0
C986 C 0.41816 0.96463 0.36624 0.0
C987 C 0.38441 0.96601 0.40226 0.0
C988 C 0.36567 0.98431 0.4049 0.0
C989 C 0.35913 0.99417 0.43011 0.0
C990 C 0.37252 0.98552 0.45303 0.0
C991 C 0.39234 0.96739 0.45047 0.0
C992 C 0.39774 0.95719 0.42474 0.0
H993 H 0.6224 0.54503 0.36228 0.0
H994 H 0.59088 0.46385 0.34763 0.0
H995 H 0.57464 0.46327 0.39292 0.0
H996 H 0.64035 0.54278 0.43225 0.0
H997 H 0.6279 0.57393 0.44181 0.0
H998 H 0.63948 0.56843 0.40856 0.0
H999 H 0.5943 0.58012 0.38797 0.0
H1000 H 0.58284 0.58628 0.42112 0.0
H1001 H 0.56412 0.5631 0.39828 0.0
H1002 H 0.56338 0.46957 0.43913 0.0
H1003 H 0.54653 0.48605 0.48157 0.0
H1004 H 0.57946 0.56479 0.46681 0.0
C1005 C 0.61187 0.52721 0.36848 0.0
C1006 C 0.60912 0.50405 0.35156 0.0
C1007 C 0.59465 0.48141 0.36047 0.0
C1008 C 0.58518 0.48087 0.38622 0.0
C1009 C 0.5894 0.5034 0.40275 0.0
C1010 C 0.60141 0.52652 0.3941 0.0
C1011 C 0.60059 0.54857 0.41544 0.0
C1012 C 0.62877 0.55904 0.42508 0.0
C1013 C 0.5845 0.57083 0.40508 0.0
C1014 C 0.58631 0.53398 0.43727 0.0
C1015 C 0.58078 0.50778 0.42949 0.0
C1016 C 0.56742 0.49004 0.4455 0.0
C1017 C 0.5581 0.49952 0.4696 0.0
C1018 C 0.56194 0.52651 0.47738 0.0
C1019 C 0.57685 0.54395 0.46146 0.0
H1020 H 0.14647 0.39271 0.05842 0.0
H1021 H 0.16411 0.39467 0.97378 0.0
H1022 H 0.11951 0.40655 0.96358 0.0
H1023 H 0.07723 0.36411 0.04656 0.0
H1024 H 0.06449 0.38325 0.0736 0.0
H1025 H 0.09821 0.3738 0.07571 0.0
H1026 H 0.11554 0.42258 0.08363 0.0
H1027 H 0.08187 0.43193 0.08204 0.0
H1028 H 0.10589 0.44646 0.06022 0.0
H1029 H 0.07359 0.41533 0.96032 0.0
H1030 H 0.03067 0.43394 0.96616 0.0
H1031 H 0.04 0.42821 0.05216 0.0
C1032 C 0.1411 0.39514 0.03763 0.0
C1033 C 0.15968 0.39234 0.01707 0.0
C1034 C 0.15127 0.39685 0.99035 0.0
C1035 C 0.12545 0.40308 0.98405 0.0
C1036 C 0.10766 0.40435 0.00439 0.0
C1037 C 0.11501 0.40115 0.03076 0.0
C1038 C 0.09186 0.40574 0.04872 0.0
C1039 C 0.0824 0.38021 0.06193 0.0
C1040 C 0.09924 0.42802 0.06989 0.0
C1041 C 0.0711 0.41343 0.02819 0.0
C1042 C 0.08056 0.41116 0.0027 0.0
C1043 C 0.06587 0.41727 0.98011 0.0
C1044 C 0.04147 0.42767 0.98361 0.0
C1045 C 0.03219 0.43237 0.00948 0.0
C1046 C 0.04657 0.42427 0.03214 0.0
H1047 H 0.13247 0.65107 0.47829 0.0
H1048 H 0.16859 0.58942 0.52062 0.0
H1049 H 0.12826 0.55961 0.51078 0.0
H1050 H 0.0662 0.63765 0.49963 0.0
H1051 H 0.05026 0.64406 0.46799 0.0
H1052 H 0.08211 0.6605 0.47766 0.0
H1053 H 0.1016 0.64293 0.43389 0.0
H1054 H 0.06975 0.62653 0.42402 0.0
H1055 H 0.09884 0.60806 0.42573 0.0
H1056 H 0.08508 0.53715 0.4972 0.0
H1057 H 0.03984 0.52231 0.48105 0.0
H1058 H 0.03063 0.59849 0.44722 0.0
C1059 C 0.13161 0.63129 0.48551 0.0
C1060 C 0.15309 0.62231 0.50049 0.0
C1061 C 0.15192 0.59641 0.50944 0.0
C1062 C 0.12928 0.57946 0.50384 0.0
C1063 C 0.10828 0.58883 0.48913 0.0
C1064 C 0.10914 0.61408 0.48002 0.0
C1065 C 0.0836 0.61906 0.46479 0.0
C1066 C 0.06972 0.64165 0.47834 0.0
C1067 C 0.08877 0.62446 0.43536 0.0
C1068 C 0.06814 0.59277 0.46731 0.0
C1069 C 0.08296 0.57566 0.48119 0.0
C1070 C 0.07323 0.55026 0.48621 0.0
C1071 C 0.04751 0.54203 0.47688 0.0
C1072 C 0.03173 0.55923 0.46282 0.0
C1073 C 0.04225 0.58493 0.45791 0.0
H1074 H 0.83099 0.89429 0.51174 0.0
H1075 H 0.82542 0.8186 0.46864 0.0
H1076 H 0.87027 0.82847 0.45149 0.0
H1077 H 0.86308 0.93226 0.46905 0.0
H1078 H 0.88573 0.95062 0.49278 0.0
H1079 H 0.85459 0.93645 0.50357 0.0
H1080 H 0.87901 0.91122 0.53977 0.0
H1081 H 0.91038 0.92567 0.52935 0.0
H1082 H 0.90477 0.89044 0.53022 0.0
H1083 H 0.91423 0.84959 0.43518 0.0
H1084 H 0.95317 0.87901 0.42344 0.0
H1085 H 0.9304 0.93816 0.4811 0.0
C1086 C 0.83969 0.87919 0.49988 0.0
C1087 C 0.82497 0.85541 0.49208 0.0
C1088 C 0.83654 0.83686 0.47508 0.0
C1089 C 0.86201 0.84224 0.46533 0.0
C1090 C 0.87604 0.86593 0.47347 0.0
C1091 C 0.86549 0.88374 0.49099 0.0
C1092 C 0.88431 0.90787 0.49655 0.0
C1093 C 0.87113 0.93328 0.49007 0.0
C1094 C 0.89526 0.90886 0.5257 0.0
C1095 C 0.90581 0.9021 0.47742 0.0
C1096 C 0.90125 0.87756 0.46473 0.0
C1097 C 0.9182 0.86867 0.44537 0.0
C1098 C 0.94021 0.88543 0.43878 0.0
C1099 C 0.94459 0.91087 0.4512 0.0
C1100 C 0.92737 0.91891 0.47104 0.0
H1101 H 0.3503 0.64461 0.51207 0.0
H1102 H 0.32223 0.61565 0.58718 0.0
H1103 H 0.36748 0.60425 0.59946 0.0
H1104 H 0.38798 0.5921 0.49853 0.0
H1105 H 0.41386 0.61116 0.48259 0.0
H1106 H 0.38081 0.62195 0.48249 0.0
H1107 H 0.3995 0.6669 0.50416 0.0
H1108 H 0.43262 0.65582 0.50489 0.0
H1109 H 0.41872 0.6678 0.53529 0.0
H1110 H 0.41448 0.59204 0.60195 0.0
H1111 H 0.456 0.57203 0.59052 0.0
H1112 H 0.45185 0.60472 0.51226 0.0
C1113 C 0.35348 0.6359 0.53116 0.0
C1114 C 0.33249 0.63135 0.54872 0.0
C1115 C 0.33793 0.62006 0.57358 0.0
C1116 C 0.36366 0.61354 0.5808 0.0
C1117 C 0.38379 0.6183 0.56296 0.0
C1118 C 0.37885 0.6288 0.53843 0.0
C1119 C 0.40277 0.62832 0.52116 0.0
C1120 C 0.39595 0.61242 0.49466 0.0
C1121 C 0.41406 0.65639 0.51608 0.0
C1122 C 0.42148 0.61458 0.53926 0.0
C1123 C 0.41063 0.61003 0.56376 0.0
C1124 C 0.4234 0.5959 0.58306 0.0
C1125 C 0.44709 0.58486 0.57656 0.0
C1126 C 0.45718 0.58753 0.55082 0.0
C1127 C 0.44485 0.60334 0.53238 0.0
H1128 H 0.56426 0.67447 0.89978 0.0
H1129 H 0.50802 0.65816 0.8327 0.0
H1130 H 0.50461 0.61101 0.84266 0.0
H1131 H 0.59646 0.61024 0.89503 0.0
H1132 H 0.59929 0.60826 0.93086 0.0
H1133 H 0.60083 0.63993 0.91601 0.0
H1134 H 0.5622 0.65392 0.94473 0.0
H1135 H 0.56076 0.62248 0.95978 0.0
H1136 H 0.53141 0.63363 0.94354 0.0
H1137 H 0.50369 0.56646 0.86233 0.0
H1138 H 0.50192 0.52943 0.89299 0.0
H1139 H 0.55727 0.57442 0.94823 0.0
C1140 C 0.55172 0.66079 0.88692 0.0
C1141 C 0.53646 0.66986 0.8654 0.0
C1142 C 0.51981 0.65155 0.84931 0.0
C1143 C 0.51793 0.62471 0.85467 0.0
C1144 C 0.53283 0.61633 0.87628 0.0
C1145 C 0.54933 0.63384 0.89226 0.0
C1146 C 0.56087 0.62019 0.91595 0.0
C1147 C 0.59116 0.61963 0.91436 0.0
C1148 C 0.55334 0.63333 0.94256 0.0
C1149 C 0.54726 0.59272 0.91147 0.0
C1150 C 0.53183 0.59066 0.88801 0.0
C1151 C 0.51609 0.56768 0.88049 0.0
C1152 C 0.51532 0.54664 0.89786 0.0
C1153 C 0.52997 0.54889 0.9225 0.0
C1154 C 0.54656 0.57197 0.92903 0.0
H1155 H 0.51185 0.85844 0.89147 0.0
H1156 H 0.52936 0.87376 0.80942 0.0
H1157 H 0.52194 0.92105 0.81782 0.0
H1158 H 0.45962 0.90255 0.89732 0.0
H1159 H 0.46867 0.91248 0.93159 0.0
H1160 H 0.47556 0.88029 0.91871 0.0
H1161 H 0.52534 0.88978 0.9328 0.0
H1162 H 0.51857 0.92193 0.94585 0.0
H1163 H 0.54335 0.91864 0.92119 0.0
H1164 H 0.51154 0.96785 0.83636 0.0
H1165 H 0.50163 0.00795 0.86323 0.0
H1166 H 0.49132 0.96032 0.93243 0.0
C1167 C 0.5142 0.87184 0.87535 0.0
C1168 C 0.52116 0.86259 0.84981 0.0
C1169 C 0.5241 0.8806 0.82915 0.0
C1170 C 0.51981 0.90744 0.83375 0.0
C1171 C 0.51264 0.916 0.85918 0.0
C1172 C 0.50999 0.89859 0.87961 0.0
C1173 C 0.50227 0.9124 0.90516 0.0
C1174 C 0.47491 0.90127 0.91369 0.0
C1175 C 0.52366 0.91058 0.92756 0.0
C1176 C 0.50122 0.94034 0.89617 0.0
C1177 C 0.50704 0.94225 0.86958 0.0
C1178 C 0.50707 0.96646 0.85725 0.0
C1179 C 0.50138 0.98918 0.87261 0.0
C1180 C 0.49595 0.98757 0.90008 0.0
C1181 C 0.49567 0.96259 0.91161 0.0
H1182 H 0.50986 0.34387 0.59173 0.0
H1183 H 0.55179 0.3595 0.66833 0.0
H1184 H 0.55581 0.40726 0.65991 0.0
H1185 H 0.54589 0.39572 0.55527 0.0
H1186 H 0.5164 0.40306 0.53648 0.0
H1187 H 0.51985 0.37022 0.54747 0.0
H1188 H 0.47517 0.37164 0.5712 0.0
H1189 H 0.47172 0.40457 0.56061 0.0
H1190 H 0.47093 0.3978 0.59564 0.0
H1191 H 0.55269 0.45385 0.6436 0.0
H1192 H 0.54307 0.49465 0.62104 0.0
H1193 H 0.50086 0.44783 0.55648 0.0
C1194 C 0.52014 0.35741 0.60652 0.0
C1195 C 0.53037 0.34832 0.63072 0.0
C1196 C 0.54383 0.36634 0.64968 0.0
C1197 C 0.54615 0.3934 0.64506 0.0
C1198 C 0.53494 0.40196 0.62134 0.0
C1199 C 0.52234 0.38442 0.60234 0.0
C1200 C 0.51063 0.39858 0.57924 0.0
C1201 C 0.52399 0.39147 0.55307 0.0
C1202 C 0.48032 0.3928 0.57653 0.0
C1203 C 0.51799 0.42686 0.58841 0.0
C1204 C 0.53237 0.4285 0.61252 0.0
C1205 C 0.54145 0.45274 0.62472 0.0
C1206 C 0.53582 0.47581 0.6118 0.0
C1207 C 0.52096 0.47447 0.58713 0.0
C1208 C 0.5119 0.44959 0.5755 0.0
H1209 H 0.49849 0.14039 0.62905 0.0
H1210 H 0.47477 0.18486 0.5611 0.0
H1211 H 0.45575 0.14389 0.5379 0.0
H1212 H 0.51864 0.08511 0.59136 0.0
H1213 H 0.50652 0.06128 0.61446 0.0
H1214 H 0.51683 0.09434 0.62635 0.0
H1215 H 0.47083 0.09852 0.64663 0.0
H1216 H 0.46022 0.06557 0.63441 0.0
H1217 H 0.44117 0.0927 0.62546 0.0
H1218 H 0.44171 0.09925 0.52118 0.0
H1219 H 0.4357 0.05168 0.50992 0.0
H1220 H 0.46788 0.03504 0.58841 0.0
C1221 C 0.48943 0.14144 0.60921 0.0
C1222 C 0.48792 0.16575 0.59686 0.0
C1223 C 0.47575 0.16646 0.57102 0.0
C1224 C 0.46489 0.14334 0.55774 0.0
C1225 C 0.46634 0.11979 0.57062 0.0
C1226 C 0.47844 0.11853 0.59566 0.0
C1227 C 0.47829 0.0904 0.60438 0.0
C1228 C 0.50676 0.08231 0.60941 0.0
C1229 C 0.46163 0.08658 0.62919 0.0
C1230 C 0.46493 0.076 0.57985 0.0
C1231 C 0.45791 0.09352 0.56088 0.0
C1232 C 0.4468 0.08528 0.53589 0.0
C1233 C 0.44348 0.05834 0.52969 0.0
C1234 C 0.45112 0.04006 0.54844 0.0
C1235 C 0.46139 0.04883 0.57408 0.0
H1236 H 0.84079 0.52895 0.61592 0.0
H1237 H 0.91438 0.54663 0.66312 0.0
H1238 H 0.93767 0.55623 0.6222 0.0
H1239 H 0.86761 0.49265 0.56652 0.0
H1240 H 0.84787 0.50353 0.53892 0.0
H1241 H 0.83519 0.50409 0.57197 0.0
H1242 H 0.82826 0.55372 0.569 0.0
H1243 H 0.84099 0.5533 0.53582 0.0
H1244 H 0.85578 0.57626 0.56137 0.0
H1245 H 0.95465 0.55726 0.57751 0.0
H1246 H 0.96511 0.54697 0.53077 0.0
H1247 H 0.88186 0.526 0.51104 0.0
C1248 C 0.86175 0.53515 0.61774 0.0
C1249 C 0.87564 0.53724 0.64295 0.0
C1250 C 0.90303 0.54552 0.6443 0.0
C1251 C 0.91651 0.551 0.62108 0.0
C1252 C 0.90239 0.54814 0.59662 0.0
C1253 C 0.87562 0.54037 0.59467 0.0
C1254 C 0.86603 0.53551 0.56567 0.0
C1255 C 0.85346 0.50727 0.56049 0.0
C1256 C 0.84661 0.55592 0.55749 0.0
C1257 C 0.89208 0.53983 0.55184 0.0
C1258 C 0.91252 0.54808 0.57013 0.0
C1259 C 0.93881 0.55141 0.56289 0.0
C1260 C 0.94456 0.5455 0.5364 0.0
C1261 C 0.92418 0.53619 0.51762 0.0
C1262 C 0.89754 0.53379 0.52512 0.0
H1263 H 0.07001 0.97571 0.64128 0.0
H1264 H 0.15326 0.9797 0.62276 0.0
H1265 H 0.14109 0.97237 0.57464 0.0
H1266 H 0.04663 0.92613 0.5859 0.0
H1267 H 0.01639 0.94212 0.58007 0.0
H1268 H 0.03163 0.94283 0.61325 0.0
H1269 H 0.03262 0.99379 0.61526 0.0
H1270 H 0.01787 0.99329 0.58199 0.0
H1271 H 0.04908 0.01195 0.5897 0.0
H1272 H 0.12042 0.96885 0.52929 0.0
H1273 H 0.09193 0.96962 0.48819 0.0
H1274 H 0.02213 0.9709 0.53603 0.0
C1275 C 0.08548 0.97422 0.627 0.0
C1276 C 0.11241 0.97794 0.63516 0.0
C1277 C 0.13249 0.97663 0.61637 0.0
C1278 C 0.12579 0.97241 0.58921 0.0
C1279 C 0.09898 0.96958 0.5815 0.0
C1280 C 0.0791 0.97026 0.59976 0.0
C1281 C 0.05194 0.96923 0.58592 0.0
C1282 C 0.03569 0.94355 0.59163 0.0
C1283 C 0.03703 0.99352 0.59368 0.0
C1284 C 0.05983 0.9694 0.55715 0.0
C1285 C 0.08699 0.96883 0.55506 0.0
C1286 C 0.0991 0.96908 0.53057 0.0
C1287 C 0.08287 0.96967 0.50747 0.0
C1288 C 0.05511 0.97066 0.50933 0.0
C1289 C 0.04343 0.97058 0.53437 0.0
H1290 H 0.84046 0.47339 0.83961 0.0
H1291 H 0.89984 0.53019 0.81131 0.0
H1292 H 0.92323 0.5324 0.85548 0.0
H1293 H 0.83805 0.49447 0.90715 0.0
H1294 H 0.83844 0.46249 0.92118 0.0
H1295 H 0.825 0.46556 0.88771 0.0
H1296 H 0.85732 0.43291 0.86895 0.0
H1297 H 0.8703 0.42903 0.90245 0.0
H1298 H 0.89244 0.43877 0.87664 0.0
H1299 H 0.93655 0.53305 0.90306 0.0
H1300 H 0.95063 0.52046 0.94795 0.0
H1301 H 0.88841 0.45706 0.94473 0.0
C1302 C 0.85854 0.48605 0.84278 0.0
C1303 C 0.86759 0.50291 0.82273 0.0
C1304 C 0.89195 0.51821 0.82696 0.0
C1305 C 0.9053 0.51963 0.85193 0.0
C1306 C 0.8949 0.5043 0.87192 0.0
C1307 C 0.87305 0.48663 0.8673 0.0
C1308 C 0.86843 0.47004 0.89151 0.0
C1309 C 0.84083 0.47336 0.90253 0.0
C1310 C 0.87236 0.44097 0.88447 0.0
C1311 C 0.89038 0.48213 0.91078 0.0
C1312 C 0.90484 0.50228 0.899 0.0
C1313 C 0.92577 0.51702 0.91241 0.0
C1314 C 0.9334 0.5099 0.93798 0.0
C1315 C 0.92053 0.48793 0.94975 0.0
C1316 C 0.8982 0.47426 0.93637 0.0
H1317 H 0.09966 0.99079 0.82848 0.0
H1318 H 0.16878 0.04634 0.82962 0.0
H1319 H 0.16002 0.06061 0.87614 0.0
H1320 H 0.05743 0.0238 0.86615 0.0
H1321 H 0.04564 0.99659 0.88549 0.0
H1322 H 0.05791 0.99045 0.85277 0.0
H1323 H 0.092 0.96006 0.87247 0.0
H1324 H 0.07965 0.96593 0.90536 0.0
H1325 H 0.11446 0.97242 0.89963 0.0
H1326 H 0.14134 0.07058 0.92197 0.0
H1327 H 0.11546 0.07408 0.96296 0.0
H1328 H 0.06198 0.00842 0.9326 0.0
C1329 C 0.11366 0.0051 0.83883 0.0
C1330 C 0.13528 0.01698 0.82561 0.0
C1331 C 0.15219 0.03682 0.83949 0.0
C1332 C 0.14746 0.04496 0.86592 0.0
C1333 C 0.12621 0.03246 0.87853 0.0
C1334 C 0.11 0.01251 0.86558 0.0
C1335 C 0.08895 0.00171 0.8837 0.0
C1336 C 0.06083 0.00327 0.87127 0.0
C1337 C 0.09406 0.97335 0.8907 0.0
C1338 C 0.09421 0.02031 0.90792 0.0
C1339 C 0.11616 0.03754 0.90494 0.0
C1340 C 0.12435 0.05691 0.92464 0.0
C1341 C 0.10959 0.05875 0.94786 0.0
C1342 C 0.08672 0.04156 0.95091 0.0
C1343 C 0.07928 0.02194 0.93077 0.0
H1344 H 0.63877 0.90431 0.54372 0.0
H1345 H 0.61741 0.82994 0.50064 0.0
H1346 H 0.56998 0.83868 0.50161 0.0
H1347 H 0.57808 0.90481 0.58493 0.0
H1348 H 0.57599 0.93973 0.58224 0.0
H1349 H 0.60789 0.92596 0.58202 0.0
H1350 H 0.61745 0.94707 0.53683 0.0
H1351 H 0.58578 0.96106 0.53712 0.0
H1352 H 0.59399 0.94049 0.50892 0.0
H1353 H 0.52494 0.85699 0.50385 0.0
H1354 H 0.48733 0.88567 0.50243 0.0
H1355 H 0.53755 0.94907 0.54184 0.0
C1356 C 0.624 0.88966 0.53504 0.0
C1357 C 0.6318 0.86634 0.52223 0.0
C1358 C 0.61192 0.84793 0.51054 0.0
C1359 C 0.58488 0.85263 0.51119 0.0
C1360 C 0.57778 0.87594 0.52358 0.0
C1361 C 0.59679 0.89426 0.53517 0.0
C1362 C 0.58405 0.91893 0.54464 0.0
C1363 C 0.58667 0.92257 0.57528 0.0
C1364 C 0.59602 0.94332 0.53105 0.0
C1365 C 0.55526 0.91212 0.53542 0.0
C1366 C 0.55188 0.88687 0.52413 0.0
C1367 C 0.52729 0.87664 0.51304 0.0
C1368 C 0.50591 0.89294 0.51253 0.0
C1369 C 0.50934 0.91928 0.52267 0.0
C1370 C 0.53419 0.92871 0.53474 0.0
H1371 H 0.67179 0.13623 0.96068 0.0
H1372 H 0.66743 0.16077 0.04467 0.0
H1373 H 0.61914 0.15429 0.04023 0.0
H1374 H 0.61137 0.16929 0.93906 0.0
H1375 H 0.60329 0.14376 0.9135 0.0
H1376 H 0.63755 0.15336 0.92283 0.0
H1377 H 0.64525 0.10485 0.93245 0.0
H1378 H 0.61115 0.09516 0.92356 0.0
H1379 H 0.6248 0.08786 0.95598 0.0
H1380 H 0.57246 0.13727 0.0288 0.0
H1381 H 0.53099 0.11371 0.0101 0.0
H1382 H 0.5659 0.1058 0.93287 0.0
C1383 C 0.66159 0.14077 0.9784 0.0
C1384 C 0.67467 0.14747 0.00349 0.0
C1385 C 0.65875 0.15373 0.02545 0.0
C1386 C 0.63099 0.15083 0.02304 0.0
C1387 C 0.6192 0.14307 -0.00179 0.0
C1388 C 0.63402 0.13883 0.97613 0.0
C1389 C 0.61679 0.12932 0.95187 0.0
C1390 C 0.61729 0.15018 0.93056 0.0
C1391 C 0.62498 0.10273 0.94033 0.0
C1392 C 0.59008 0.1267 0.96437 0.0
C1393 C 0.59179 0.13529 0.99103 0.0
C1394 C 0.57054 0.13155 0.00773 0.0
C1395 C 0.54715 0.11825 0.99701 0.0
C1396 C 0.54537 0.10909 0.96997 0.0
C1397 C 0.5667 0.11386 0.95327 0.0
H1398 H 0.33604 0.41059 0.99768 0.0
H1399 H 0.36024 0.33897 0.03185 0.0
H1400 H 0.40755 0.3538 0.0264 0.0
H1401 H 0.38606 0.4134 0.9477 0.0
H1402 H 0.39055 0.44881 0.94977 0.0
H1403 H 0.35888 0.43257 0.95677 0.0
H1404 H 0.3603 0.45705 0.00324 0.0
H1405 H 0.39192 0.4734 0.99638 0.0
H1406 H 0.38848 0.45465 0.02597 0.0
H1407 H 0.45213 0.37632 0.0159 0.0
H1408 H 0.4905 0.40605 0.00383 0.0
H1409 H 0.43615 0.46243 0.97667 0.0
C1410 C 0.35141 0.39816 0.00404 0.0
C1411 C 0.3449 0.37368 0.01502 0.0
C1412 C 0.3652 0.35781 0.02335 0.0
C1413 C 0.39196 0.366 0.0202 0.0
C1414 C 0.39783 0.39005 0.00868 0.0
C1415 C 0.3781 0.40591 0.00077 0.0
C1416 C 0.38953 0.43068 0.98868 0.0
C1417 C 0.38073 0.4314 0.95898 0.0
C1418 C 0.38213 0.4554 0.00454 0.0
C1419 C 0.41882 0.42673 0.99187 0.0
C1420 C 0.42329 0.40301 0.00298 0.0
C1421 C 0.4489 0.39499 0.00727 0.0
C1422 C 0.47052 0.41188 0.00031 0.0
C1423 C 0.4662 0.43655 0.98963 0.0
C1424 C 0.44002 0.44383 0.98519 0.0
H1425 H 0.86294 0.12924 0.05189 0.0
H1426 H 0.87067 0.17242 0.97886 0.0
H1427 H 0.91628 0.16099 0.97623 0.0
H1428 H 0.93327 0.1508 0.0768 0.0
H1429 H 0.93741 0.12001 0.09228 0.0
H1430 H 0.90512 0.13299 0.09036 0.0
H1431 H 0.8851 0.08978 0.06616 0.0
H1432 H 0.91708 0.07661 0.06871 0.0
H1433 H 0.90018 0.07763 0.03644 0.0
H1434 H 0.96008 0.14386 0.97908 0.0
H1435 H 0.99671 0.11475 0.98362 0.0
H1436 H 0.96307 0.08396 0.05518 0.0
C1437 C 0.87419 0.13693 0.03563 0.0
C1438 C 0.86226 0.15154 0.01544 0.0
C1439 C 0.87822 0.16048 0.99432 0.0
C1440 C 0.90473 0.15467 0.99288 0.0
C1441 C 0.91576 0.14074 0.01319 0.0
C1442 C 0.90111 0.1319 0.03419 0.0
C1443 C 0.91774 0.1159 0.05246 0.0
C1444 C 0.92373 0.1308 0.07959 0.0
C1445 C 0.90422 0.08835 0.05611 0.0
C1446 C 0.94284 0.11491 0.03674 0.0
C1447 C 0.9417 0.13063 0.01494 0.0
C1448 C 0.96156 0.13191 0.99636 0.0
C1449 C 0.98243 0.11553 -0.00079 0.0
C1450 C 0.98291 0.09782 0.0201 0.0
C1451 C 0.9635 0.09815 0.03967 0.0
H1452 H 0.0627 0.17495 0.23916 0.0
H1453 H 0.02429 0.23518 0.19688 0.0
H1454 H 0.01961 0.20597 0.15597 0.0
H1455 H 0.10052 0.15186 0.18421 0.0
H1456 H 0.09649 0.11795 0.19314 0.0
H1457 H 0.09612 0.14383 0.21858 0.0
H1458 H 0.05031 0.12373 0.23251 0.0
H1459 H 0.05011 0.09846 0.20623 0.0
H1460 H 0.02306 0.11957 0.20808 0.0
H1461 H 0.01698 0.16964 0.12079 0.0
H1462 H 0.02759 0.13354 0.08953 0.0
H1463 H 0.07037 0.098 0.15357 0.0
C1464 C 0.05396 0.18209 0.22101 0.0
C1465 C 0.04412 0.20726 0.22076 0.0
C1466 C 0.03222 0.216 0.19705 0.0
C1467 C 0.02911 0.19942 0.17399 0.0
C1468 C 0.03799 0.17423 0.17512 0.0
C1469 C 0.05086 0.16585 0.19774 0.0
C1470 C 0.05973 0.13834 0.19315 0.0
C1471 C 0.09002 0.13799 0.1975 0.0
C1472 C 0.04492 0.11888 0.21107 0.0
C1473 C 0.05095 0.13309 0.16404 0.0
C1474 C 0.03737 0.15358 0.15443 0.0
C1475 C 0.02753 0.15345 0.12806 0.0
C1476 C 0.03327 0.13267 0.11055 0.0
C1477 C 0.04938 0.11293 0.11939 0.0
C1478 C 0.05746 0.11259 0.14664 0.0
H1479 H 0.98005 0.33978 0.20094 0.0
H1480 H 0.06374 0.36516 0.2175 0.0
H1481 H 0.06042 0.39811 0.18424 0.0
H1482 H 0.98439 0.34516 0.12933 0.0
H1483 H 0.95099 0.35516 0.1256 0.0
H1484 H 0.95949 0.3338 0.15188 0.0
H1485 H 0.9424 0.36658 0.187 0.0
H1486 H 0.93393 0.38805 0.16086 0.0
H1487 H 0.95572 0.40039 0.18858 0.0
H1488 H 0.04796 0.43021 0.14957 0.0
H1489 H 0.02708 0.45621 0.11459 0.0
H1490 H 0.95409 0.40667 0.11795 0.0
C1491 C -0.00186 0.35158 0.19792 0.0
C1492 C 0.02208 0.34916 0.2132 0.0
C1493 C 0.04463 0.36619 0.20748 0.0
C1494 C 0.04319 0.38517 0.18809 0.0
C1495 C 0.01934 0.38672 0.17377 0.0
C1496 C -0.00263 0.37006 0.17813 0.0
C1497 C 0.97426 0.37503 0.15934 0.0
C1498 C 0.96686 0.35086 0.14042 0.0
C1499 C 0.95017 0.383 0.17489 0.0
C1500 C 0.98649 0.39775 0.1444 0.0
C1501 C 0.01254 0.40425 0.15295 0.0
C1502 C 0.02764 0.42519 0.14255 0.0
C1503 C 0.01573 0.43987 0.12287 0.0
C1504 C 0.9892 0.43327 0.11392 0.0
C1505 C 0.9745 0.41192 0.12463 0.0
H1506 H 0.03208 0.85358 0.22598 0.0
H1507 H 0.99597 0.78026 0.25312 0.0
H1508 H 0.98175 0.80341 0.29377 0.0
H1509 H 0.05855 0.87745 0.29104 0.0
H1510 H 0.05325 0.91133 0.28499 0.0
H1511 H 0.05865 0.8889 0.25745 0.0
H1512 H 0.01455 0.90142 0.2349 0.0
H1513 H 0.00842 0.92287 0.26317 0.0
H1514 H 0.98405 0.89673 0.25223 0.0
H1515 H 0.97052 0.83334 0.32992 0.0
H1516 H 0.9767 0.86503 0.36834 0.0
H1517 H 0.02229 0.91915 0.32039 0.0
C1518 C 0.02168 0.84251 0.24089 0.0
C1519 C 0.01496 0.81531 0.23682 0.0
C1520 C 0.00129 0.80115 0.25634 0.0
C1521 C 0.99269 0.81419 0.27906 0.0
C1522 C -0.00179 0.8413 0.28193 0.0
C1523 C 0.01333 0.8552 0.26406 0.0
C1524 C 0.01902 0.88364 0.27376 0.0
C1525 C 0.04915 0.89073 0.27703 0.0
C1526 C 0.00571 0.90226 0.25488 0.0
C1527 C 0.00572 0.88311 0.30044 0.0
C1528 C 0.99269 0.85877 0.30392 0.0
C1529 C 0.9804 0.85257 0.32748 0.0
C1530 C 0.98363 0.87082 0.34906 0.0
C1531 C -0.00047 0.89449 0.34695 0.0
C1532 C 0.00921 0.90155 0.32198 0.0
H1533 H 0.01782 0.68573 0.27188 0.0
H1534 H 0.96204 0.64141 0.21633 0.0
H1535 H 0.95525 0.60704 0.24962 0.0
H1536 H 0.04786 0.63099 0.30177 0.0
H1537 H 0.04975 0.64643 0.33489 0.0
H1538 H 0.0513 0.66637 0.30602 0.0
H1539 H 0.01147 0.69131 0.3223 0.0
H1540 H 0.01004 0.67169 0.35133 0.0
H1541 H 0.98099 0.67288 0.32953 0.0
H1542 H 0.95349 0.57832 0.29073 0.0
H1543 H 0.95323 0.56109 0.33619 0.0
H1544 H 0.01085 0.62444 0.36381 0.0
C1545 C 0.00446 0.66859 0.26656 0.0
C1546 C 0.99065 0.66609 0.24144 0.0
C1547 C 0.97279 0.64373 0.23551 0.0
C1548 C 0.96899 0.62403 0.25421 0.0
C1549 C 0.98312 0.62705 0.2788 0.0
C1550 C 0.00029 0.64898 0.285 0.0
C1551 C 0.01155 0.64882 0.31341 0.0
C1552 C 0.04192 0.6481 0.31404 0.0
C1553 C 0.003 0.67257 0.33012 0.0
C1554 C -0.00168 0.62326 0.32229 0.0
C1555 C 0.98203 0.61083 0.30212 0.0
C1556 C 0.96643 0.58779 0.30652 0.0
C1557 C 0.96664 0.57794 0.33242 0.0
C1558 C 0.98223 0.59125 0.35369 0.0
C1559 C -0.00096 0.61353 0.348 0.0
H1560 H 0.24837 0.01575 0.13677 0.0
H1561 H 0.208 0.03714 0.20833 0.0
H1562 H 0.1653 0.03591 0.18187 0.0
H1563 H 0.21523 0.05234 0.09117 0.0
H1564 H 0.21423 0.02739 0.06447 0.0
H1565 H 0.2399 0.02846 0.09026 0.0
H1566 H 0.2257 0.97959 0.09898 0.0
H1567 H 0.19888 0.97924 0.0741 0.0
H1568 H 0.1921 0.97071 0.10786 0.0
H1569 H 0.12766 0.03351 0.14724 0.0
H1570 H 0.10229 0.04444 0.10688 0.0
H1571 H 0.16732 0.0246 0.05809 0.0
C1572 C 0.23046 0.02029 0.14671 0.0
C1573 C 0.23115 0.02643 0.17444 0.0
C1574 C 0.20761 0.03235 0.18703 0.0
C1575 C 0.18331 0.03118 0.17228 0.0
C1576 C 0.18299 0.02358 0.14514 0.0
C1577 C 0.20608 0.0187 0.13243 0.0
C1578 C 0.20086 0.01295 0.10277 0.0
C1579 C 0.21857 0.03142 0.08622 0.0
C1580 C 0.20462 0.9839 0.0955 0.0
C1581 C 0.1718 0.01827 0.1002 0.0
C1582 C 0.16142 0.02265 0.12508 0.0
C1583 C 0.13552 0.02986 0.12773 0.0
C1584 C 0.12095 0.03548 0.10453 0.0
C1585 C 0.13318 0.03565 0.07955 0.0
C1586 C 0.15756 0.02422 0.07698 0.0
H1587 H 0.78762 0.51674 0.17396 0.0
H1588 H 0.73186 0.45853 0.133 0.0
H1589 H 0.76271 0.45438 0.09622 0.0
H1590 H 0.81178 0.54826 0.11366 0.0
H1591 H 0.84544 0.55301 0.12714 0.0
H1592 H 0.81807 0.55315 0.14925 0.0
H1593 H 0.83722 0.51584 0.17619 0.0
H1594 H 0.86499 0.51646 0.1548 0.0
H1595 H 0.84526 0.48607 0.15859 0.0
H1596 H 0.80146 0.45418 0.06534 0.0
H1597 H 0.84643 0.45369 0.04727 0.0
H1598 H 0.87583 0.51277 0.10763 0.0
C1599 C 0.78153 0.5036 0.15697 0.0
C1600 C 0.7571 0.48818 0.15639 0.0
C1601 C 0.75046 0.47053 0.13409 0.0
C1602 C 0.76774 0.46825 0.11289 0.0
C1603 C 0.79156 0.48392 0.11403 0.0
C1604 C 0.79851 0.5011 0.13564 0.0
C1605 C 0.82617 0.51404 0.13329 0.0
C1606 C 0.82531 0.54389 0.13067 0.0
C1607 C 0.84447 0.5077 0.15712 0.0
C1608 C 0.83411 0.50086 0.10744 0.0
C1609 C 0.81371 0.48393 0.09624 0.0
C1610 C 0.81736 0.46779 0.07362 0.0
C1611 C 0.84287 0.46787 0.0632 0.0
C1612 C 0.86431 0.48366 0.07571 0.0
C1613 C 0.8595 0.50119 0.09722 0.0
H1614 H 0.22355 0.96965 0.3302 0.0
H1615 H 0.21001 0.05064 0.31333 0.0
H1616 H 0.17121 0.04839 0.34163 0.0
H1617 H 0.15809 0.94725 0.32087 0.0
H1618 H 0.15859 0.9231 0.34615 0.0
H1619 H 0.18859 0.93289 0.3299 0.0
H1620 H 0.21204 0.94562 0.37597 0.0
H1621 H 0.18198 0.93588 0.39241 0.0
H1622 H 0.19764 0.96857 0.39853 0.0
H1623 H 0.1306 0.03584 0.36703 0.0
H1624 H 0.09008 0.01265 0.38403 0.0
H1625 H 0.12842 0.93934 0.38023 0.0
C1626 C 0.21268 0.98707 0.33259 0.0
C1627 C 0.22009 0.01036 0.31957 0.0
C1628 C 0.20526 0.03271 0.32355 0.0
C1629 C 0.18308 0.03163 0.33957 0.0
C1630 C 0.17587 0.00808 0.35139 0.0
C1631 C 0.19021 0.98616 0.34797 0.0
C1632 C 0.17641 0.96218 0.35951 0.0
C1633 C 0.17003 0.94008 0.33781 0.0
C1634 C 0.19301 0.95251 0.38301 0.0
C1635 C 0.15153 0.97382 0.36897 0.0
C1636 C 0.15186 1.00048 0.36487 0.0
C1637 C 0.13022 0.01506 0.37067 0.0
C1638 C 0.10737 0.00186 0.38029 0.0
C1639 C 0.10642 0.97443 0.38323 0.0
C1640 C 0.1289 0.96043 0.37811 0.0
H1641 H 0.766 0.53297 0.30008 0.0
H1642 H 0.72765 0.47939 0.35407 0.0
H1643 H 0.7671 0.48632 0.38566 0.0
H1644 H 0.82965 0.52339 0.30748 0.0
H1645 H 0.8419 0.55753 0.30933 0.0
H1646 H 0.81086 0.54786 0.29195 0.0
H1647 H 0.78677 0.58068 0.32185 0.0
H1648 H 0.81793 0.59093 0.33921 0.0
H1649 H 0.78985 0.57928 0.35771 0.0
H1650 H 0.81487 0.49611 0.40726 0.0
H1651 H 0.86141 0.51236 0.41991 0.0
H1652 H 0.86041 0.5656 0.35447 0.0
C1653 C 0.76553 0.52311 0.31882 0.0
C1654 C 0.74415 0.50556 0.32468 0.0
C1655 C 0.74428 0.49271 0.34923 0.0
C1656 C 0.76633 0.49674 0.36729 0.0
C1657 C 0.78696 0.51481 0.3609 0.0
C1658 C 0.78591 0.52855 0.33771 0.0
C1659 C 0.80914 0.54819 0.33572 0.0
C1660 C 0.82374 0.54394 0.30959 0.0
C1661 C 0.8004 0.57644 0.33881 0.0
C1662 C 0.82523 0.54128 0.35977 0.0
C1663 C 0.81228 0.5223 0.37449 0.0
C1664 C 0.82487 0.51148 0.39628 0.0
C1665 C 0.85129 0.52059 0.40311 0.0
C1666 C 0.86443 0.54021 0.38806 0.0
C1667 C 0.85095 0.55071 0.36647 0.0
H1668 H 0.16316 0.26153 0.05242 0.0
H1669 H 0.21677 0.23093 0.99514 0.0
H1670 H 0.1821 0.19673 0.97938 0.0
H1671 H 0.13857 0.19424 0.06969 0.0
H1672 H 0.10623 0.20484 0.077 0.0
H1673 H 0.13505 0.22757 0.08172 0.0
H1674 H 0.1114 0.2592 0.051 0.0
H1675 H 0.08343 0.2355 0.0447 0.0
H1676 H 0.10145 0.24843 0.01713 0.0
H1677 H 0.14113 0.16919 0.96669 0.0
H1678 H 0.10629 0.13421 0.97331 0.0
H1679 H 0.08093 0.17785 0.04243 0.0
C1680 C 0.16782 0.2471 0.03717 0.0
C1681 C 0.19233 0.24907 0.02448 0.0
C1682 C 0.1979 0.22974 0.00481 0.0
C1683 C 0.17819 0.21071 0.99533 0.0
C1684 C 0.15343 0.21062 0.00659 0.0
C1685 C 0.14877 0.22701 0.02831 0.0
C1686 C 0.12204 0.21948 0.0397 0.0
C1687 C 0.12569 0.21101 0.06872 0.0
C1688 C 0.10349 0.24201 0.03802 0.0
C1689 C 0.11246 0.19644 0.02073 0.0
C1690 C 0.1304 0.19265 0.00101 0.0
C1691 C 0.127 0.17174 0.98213 0.0
C1692 C 0.10664 0.15226 0.98558 0.0
C1693 C 0.09155 0.15323 0.00869 0.0
C1694 C 0.09216 0.17694 0.02444 0.0
H1695 H 0.12845 0.77446 0.51282 0.0
H1696 H 0.17792 0.77556 0.4434 0.0
H1697 H 0.15087 0.80742 0.42334 0.0
H1698 H 0.06523 0.78824 0.47822 0.0
H1699 H 0.05573 0.81123 0.50378 0.0
H1700 H 0.07582 0.78478 0.51258 0.0
H1701 H 0.11166 0.81819 0.53487 0.0
H1702 H 0.09149 0.84465 0.52657 0.0
H1703 H 0.12523 0.84498 0.51596 0.0
H1704 H 0.11864 0.83553 0.40846 0.0
H1705 H 0.09271 0.87328 0.40488 0.0
H1706 H 0.06796 0.8651 0.48665 0.0
C1707 C 0.13351 0.78132 0.49336 0.0
C1708 C 0.15443 0.77076 0.47895 0.0
C1709 C 0.1609 0.78136 0.45408 0.0
C1710 C 0.1457 0.79978 0.44245 0.0
C1711 C 0.12455 0.80856 0.45627 0.0
C1712 C 0.11901 0.80089 0.48165 0.0
C1713 C 0.09728 0.81704 0.49301 0.0
C1714 C 0.07202 0.79926 0.49715 0.0
C1715 C 0.10702 0.83213 0.51915 0.0
C1716 C 0.09275 0.83561 0.47031 0.0
C1717 C 0.10776 0.82879 0.44896 0.0
C1718 C 0.10702 0.84145 0.42509 0.0
C1719 C 0.09186 0.86293 0.42327 0.0
C1720 C 0.07831 0.87258 0.44553 0.0
C1721 C 0.078 0.8582 0.46927 0.0
H1722 H 0.82584 0.73033 0.46121 0.0
H1723 H 0.82377 0.71689 0.54626 0.0
H1724 H 0.85451 0.68165 0.54023 0.0
H1725 H 0.82246 0.66113 0.44205 0.0
H1726 H 0.84223 0.66673 0.41334 0.0
H1727 H 0.82158 0.69169 0.42531 0.0
H1728 H 0.86255 0.72551 0.42965 0.0
H1729 H 0.8833 0.70071 0.41767 0.0
H1730 H 0.89144 0.718 0.44936 0.0
H1731 H 0.88615 0.64523 0.52275 0.0
H1732 H 0.91321 0.61495 0.4965 0.0
H1733 H 0.88955 0.6527 0.42416 0.0
C1734 C 0.83113 0.71992 0.47877 0.0
C1735 C 0.82171 0.72674 0.50423 0.0
C1736 C 0.83062 0.71265 0.52644 0.0
C1737 C 0.84801 0.69227 0.52319 0.0
C1738 C 0.85619 0.68575 0.49754 0.0
C1739 C 0.84769 0.69926 0.47581 0.0
C1740 C 0.85786 0.6883 0.45003 0.0
C1741 C 0.83466 0.67625 0.4316 0.0
C1742 C 0.8748 0.70939 0.43587 0.0
C1743 C 0.87448 0.66723 0.46055 0.0
C1744 C 0.87331 0.6655 0.48791 0.0
C1745 C 0.88716 0.64668 0.50131 0.0
C1746 C 0.90254 0.62953 0.48629 0.0
C1747 C 0.90414 0.63157 0.45822 0.0
C1748 C 0.88956 0.65067 0.4456 0.0
H1749 H 0.29071 0.77892 0.49793 0.0
H1750 H 0.32869 0.7334 0.55752 0.0
H1751 H 0.36713 0.76668 0.56108 0.0
H1752 H 0.35539 0.79949 0.46622 0.0
H1753 H 0.34351 0.83072 0.45779 0.0
H1754 H 0.3206 0.80195 0.45832 0.0
H1755 H 0.29182 0.82612 0.492 0.0
H1756 H 0.31421 0.85491 0.49091 0.0
H1757 H 0.30731 0.84081 0.5226 0.0
H1758 H 0.39799 0.80681 0.56161 0.0
H1759 H 0.41629 0.85302 0.56339 0.0
H1760 H 0.35971 0.8709 0.501 0.0
C1761 C 0.30734 0.77594 0.51147 0.0
C1762 C 0.30706 0.75386 0.52743 0.0
C1763 C 0.32881 0.75036 0.54517 0.0
C1764 C 0.35076 0.76887 0.54697 0.0
C1765 C 0.35081 0.79009 0.53024 0.0
C1766 C 0.32968 0.7936 0.51275 0.0
C1767 C 0.33386 0.81868 0.49797 0.0
C1768 C 0.33862 0.81234 0.46832 0.0
C1769 C 0.31043 0.83616 0.50111 0.0
C1770 C 0.35904 0.83048 0.51233 0.0
C1771 C 0.36922 0.81304 0.52989 0.0
C1772 C 0.39072 0.82036 0.54746 0.0
C1773 C 0.40105 0.84654 0.54827 0.0
C1774 C 0.38961 0.86495 0.53189 0.0
C1775 C 0.36923 0.85672 0.5129 0.0
H1776 H 0.53148 0.71836 0.70442 0.0
H1777 H 0.5408 0.67645 0.7773 0.0
H1778 H 0.53543 0.63399 0.75116 0.0
H1779 H 0.48213 0.67403 0.67201 0.0
H1780 H 0.4949 0.67609 0.63896 0.0
H1781 H 0.50076 0.70353 0.66278 0.0
H1782 H 0.55158 0.70318 0.65769 0.0
H1783 H 0.54581 0.67638 0.63314 0.0
H1784 H 0.56749 0.673 0.662 0.0
H1785 H 0.52683 0.59634 0.71772 0.0
H1786 H 0.52368 0.56564 0.67812 0.0
H1787 H 0.51994 0.63163 0.62643 0.0
C1788 C 0.53296 0.70017 0.71464 0.0
C1789 C 0.53678 0.7004 0.74274 0.0
C1790 C 0.53822 0.67643 0.75572 0.0
C1791 C 0.53491 0.65232 0.74108 0.0
C1792 C 0.53025 0.6526 0.71348 0.0
C1793 C 0.5299 0.67586 0.70025 0.0
C1794 C 0.52506 0.6705 0.67035 0.0
C1795 C 0.49917 0.6817 0.66045 0.0
C1796 C 0.54891 0.68141 0.65489 0.0
C1797 C 0.52263 0.64062 0.66892 0.0
C1798 C 0.52541 0.63076 0.69408 0.0
C1799 C 0.52475 0.60381 0.6979 0.0
C1800 C 0.52275 0.58651 0.6753 0.0
C1801 C 0.52153 0.5962 0.64923 0.0
C1802 C 0.5204 0.62357 0.64611 0.0
H1803 H 0.50161 0.87967 0.73417 0.0
H1804 H 0.53436 0.81771 0.687 0.0
H1805 H 0.52463 0.84092 0.64558 0.0
H1806 H 0.44841 0.88833 0.69334 0.0
H1807 H 0.44903 0.92364 0.69777 0.0
H1808 H 0.46302 0.90475 0.72351 0.0
H1809 H 0.50795 0.93249 0.7215 0.0
H1810 H 0.49402 0.95149 0.69555 0.0
H1811 H 0.52393 0.93513 0.69003 0.0
H1812 H 0.50622 0.86804 0.60941 0.0
H1813 H 0.47785 0.89484 0.58167 0.0
H1814 H 0.45683 0.93845 0.65281 0.0
C1815 C 0.50739 0.87154 0.71511 0.0
C1816 C 0.519 0.84732 0.71343 0.0
C1817 C 0.52587 0.83662 0.68838 0.0
C1818 C 0.52051 0.84968 0.6649 0.0
C1819 C 0.50874 0.87356 0.66707 0.0
C1820 C 0.50243 0.88446 0.6916 0.0
C1821 C 0.48752 0.90885 0.68841 0.0
C1822 C 0.46039 0.9062 0.70151 0.0
C1823 C 0.50436 0.93344 0.69954 0.0
C1824 C 0.48464 0.90887 0.65829 0.0
C1825 C 0.49782 0.88896 0.64624 0.0
C1826 C 0.49641 0.8841 0.61857 0.0
C1827 C 0.48046 0.89949 0.60296 0.0
C1828 C 0.46582 0.91893 0.61529 0.0
C1829 C 0.46849 0.9241 0.64308 0.0
H1830 H 0.52579 0.32955 0.78958 0.0
H1831 H 0.54438 0.3865 0.73 0.0
H1832 H 0.54259 0.42283 0.76445 0.0
H1833 H 0.47977 0.36532 0.82509 0.0
H1834 H 0.4908 0.3553 0.85753 0.0
H1835 H 0.49405 0.33415 0.82832 0.0
H1836 H 0.54473 0.33317 0.83851 0.0
H1837 H 0.54141 0.35342 0.86828 0.0
H1838 H 0.56475 0.36378 0.84376 0.0
H1839 H 0.53982 0.45216 0.80599 0.0
H1840 H 0.54149 0.47196 0.85211 0.0
H1841 H 0.52223 0.39527 0.88307 0.0
C1842 C 0.52973 0.34972 0.78399 0.0
C1843 C 0.53531 0.35561 0.75757 0.0
C1844 C 0.54036 0.38196 0.75047 0.0
C1845 C 0.53908 0.40255 0.76974 0.0
C1846 C 0.53266 0.39611 0.79566 0.0
C1847 C 0.52852 0.37029 0.80282 0.0
C1848 C 0.52303 0.3683 0.83205 0.0
C1849 C 0.49525 0.35498 0.83596 0.0
C1850 C 0.54477 0.35383 0.8465 0.0
C1851 C 0.52453 0.39713 0.84041 0.0
C1852 C 0.53004 0.41292 0.81917 0.0
C1853 C 0.53494 0.4401 0.82266 0.0
C1854 C 0.53553 0.45121 0.84874 0.0
C1855 C 0.53088 0.4351 0.8706 0.0
C1856 C 0.52446 0.40799 0.86635 0.0
H1857 H 0.49208 0.16923 0.72863 0.0
H1858 H 0.53999 0.23044 0.7743 0.0
H1859 H 0.54038 0.20233 0.81349 0.0
H1860 H 0.45017 0.15203 0.78095 0.0
H1861 H 0.44686 0.11737 0.77169 0.0
H1862 H 0.45358 0.14097 0.74667 0.0
H1863 H 0.49507 0.11688 0.73391 0.0
H1864 H 0.48883 0.0936 0.7595 0.0
H1865 H 0.52046 0.11229 0.75919 0.0
H1866 H 0.53421 0.16817 0.8482 0.0
H1867 H 0.51466 0.13534 0.87817 0.0
H1868 H 0.46748 0.09806 0.8113 0.0
C1869 C 0.50269 0.17661 0.7469 0.0
C1870 C 0.51611 0.20196 0.74852 0.0
C1871 C 0.52975 0.21101 0.77271 0.0
C1872 C 0.53021 0.1951 0.79495 0.0
C1873 C 0.51684 0.17016 0.79275 0.0
C1874 C 0.50291 0.16115 0.76948 0.0
C1875 C 0.48788 0.1348 0.77323 0.0
C1876 C 0.45785 0.13641 0.76784 0.0
C1877 C 0.49871 0.11311 0.75539 0.0
C1878 C 0.4946 0.13095 0.80256 0.0
C1879 C 0.51219 0.15104 0.81315 0.0
C1880 C 0.52064 0.15221 0.84006 0.0
C1881 C 0.50974 0.13322 0.8569 0.0
C1882 C 0.49002 0.11383 0.84694 0.0
C1883 C 0.4831 0.11221 0.81924 0.0
H1884 H 0.72893 0.49153 0.65579 0.0
H1885 H 0.72135 0.56035 0.70849 0.0
H1886 H 0.69063 0.57729 0.67522 0.0
H1887 H 0.71156 0.5098 0.59184 0.0
H1888 H 0.68629 0.48364 0.58361 0.0
H1889 H 0.7131 0.47851 0.60715 0.0
H1890 H 0.67995 0.46573 0.64364 0.0
H1891 H 0.65319 0.46921 0.61957 0.0
H1892 H 0.65422 0.48725 0.65134 0.0
H1893 H 0.66705 0.58921 0.63301 0.0
H1894 H 0.62718 0.58603 0.60312 0.0
H1895 H 0.63355 0.50226 0.59064 0.0
C1896 C 0.72013 0.50954 0.66133 0.0
C1897 C 0.729 0.52536 0.68431 0.0
C1898 C 0.71626 0.54869 0.69021 0.0
C1899 C 0.69905 0.55864 0.67136 0.0
C1900 C 0.69233 0.54347 0.64811 0.0
C1901 C 0.70008 0.51824 0.64461 0.0
C1902 C 0.68285 0.50288 0.62302 0.0
C1903 C 0.69946 0.49315 0.60004 0.0
C1904 C 0.66659 0.47991 0.6351 0.0
C1905 C 0.66519 0.52406 0.61422 0.0
C1906 C 0.67263 0.54775 0.62776 0.0
C1907 C 0.66037 0.57065 0.62281 0.0
C1908 C 0.63799 0.56874 0.60561 0.0
C1909 C 0.62736 0.54397 0.59508 0.0
C1910 C 0.64158 0.52143 0.59842 0.0
H1911 H 0.26596 0.96412 0.68515 0.0
H1912 H 0.22043 0.01775 0.6406 0.0
H1913 H 0.25276 0.01681 0.60459 0.0
H1914 H 0.32936 0.9834 0.67009 0.0
H1915 H 0.34061 0.95091 0.66466 0.0
H1916 H 0.31355 0.95574 0.68616 0.0
H1917 H 0.28378 0.92083 0.65771 0.0
H1918 H 0.31086 0.91587 0.63602 0.0
H1919 H 0.27934 0.92445 0.62222 0.0
H1920 H 0.2948 0.01369 0.5758 0.0
H1921 H 0.33845 0.0055 0.5566 0.0
H1922 H 0.35087 0.94848 0.61679 0.0
C1923 C 0.26236 0.9752 0.66756 0.0
C1924 C 0.24078 0.9914 0.6661 0.0
C1925 C 0.23709 0.00564 0.6426 0.0
C1926 C 0.25527 0.00505 0.62189 0.0
C1927 C 0.27647 0.98904 0.62414 0.0
C1928 C 0.27942 0.97368 0.64607 0.0
C1929 C 0.30304 0.9572 0.64337 0.0
C1930 C 0.3228 0.96214 0.66749 0.0
C1931 C 0.2937 0.92785 0.63961 0.0
C1932 C 0.31443 0.96748 0.61788 0.0
C1933 C 0.29877 0.98557 0.60667 0.0
C1934 C 0.3068 0.99903 0.5841 0.0
C1935 C 0.33157 0.9942 0.57316 0.0
C1936 C 0.34803 0.97607 0.58479 0.0
C1937 C 0.33871 0.96217 0.607 0.0
H1938 H 0.73748 0.52665 0.86009 0.0
H1939 H 0.6994 0.47983 0.79321 0.0
H1940 H 0.65756 0.47623 0.81704 0.0
H1941 H 0.70689 0.48935 0.91132 0.0
H1942 H 0.70312 0.51747 0.93352 0.0
H1943 H 0.72966 0.51818 0.91051 0.0
H1944 H 0.71314 0.56092 0.89143 0.0
H1945 H 0.68618 0.55998 0.91409 0.0
H1946 H 0.67934 0.56105 0.87859 0.0
H1947 H 0.61962 0.48171 0.84493 0.0
H1948 H 0.58929 0.48329 0.88167 0.0
H1949 H 0.65297 0.51901 0.93481 0.0
C1950 C 0.72021 0.51576 0.85063 0.0
C1951 C 0.72121 0.50379 0.82483 0.0
C1952 C 0.69867 0.48922 0.81295 0.0
C1953 C 0.67488 0.48729 0.82617 0.0
C1954 C 0.67424 0.49981 0.85129 0.0
C1955 C 0.69637 0.51303 0.86388 0.0
C1956 C 0.69041 0.52272 0.89191 0.0
C1957 C 0.70859 0.51122 0.91306 0.0
C1958 C 0.6924 0.55296 0.89414 0.0
C1959 C 0.66181 0.51188 0.89331 0.0
C1960 C 0.6527 0.50006 0.86904 0.0
C1961 C 0.62658 0.49033 0.86426 0.0
C1962 C 0.60951 0.49141 0.88534 0.0
C1963 C 0.61905 0.50064 0.91127 0.0
C1964 C 0.64536 0.51168 0.91521 0.0
H1965 H 0.25802 0.02165 0.85995 0.0
H1966 H 0.28949 0.00412 0.78237 0.0
H1967 H 0.33485 0.00657 0.80252 0.0
H1968 H 0.30727 0.06913 0.88216 0.0
H1969 H 0.30927 0.05965 0.91644 0.0
H1970 H 0.27889 0.05272 0.89684 0.0
H1971 H 0.27974 0.00343 0.90727 0.0
H1972 H 0.31055 0.01021 0.92651 0.0
H1973 H 0.30837 0.98594 0.89919 0.0
H1974 H 0.37567 0.01267 0.82902 0.0
H1975 H 0.41217 0.03092 0.85967 0.0
H1976 H 0.35579 0.04767 0.92011 0.0
C1977 C 0.27461 0.01805 0.84754 0.0
C1978 C 0.2708 0.0123 0.8199 0.0
C1979 C 0.2925 0.00811 0.80374 0.0
C1980 C 0.31813 0.0092 0.815 0.0
C1981 C 0.32146 0.0143 0.84242 0.0
C1982 C 0.3005 0.01907 0.85854 0.0
C1983 C 0.31028 0.02684 0.8869 0.0
C1984 C 0.30089 0.05369 0.89609 0.0
C1985 C 0.30172 0.00533 0.9061 0.0
C1986 C 0.33998 0.02787 0.8834 0.0
C1987 C 0.34578 0.01912 0.85792 0.0
C1988 C 0.37158 0.01909 0.84922 0.0
C1989 C 0.39212 0.02928 0.86673 0.0
C1990 C 0.38644 0.03998 0.89212 0.0
C1991 C 0.36029 0.03883 0.90093 0.0
H1992 H 0.64014 0.74427 0.51076 0.0
H1993 H 0.71085 0.72421 0.55513 0.0
H1994 H 0.68547 0.68621 0.57295 0.0
H1995 H 0.59067 0.72429 0.55281 0.0
H1996 H 0.56794 0.70772 0.52796 0.0
H1997 H 0.59092 0.73409 0.51862 0.0
H1998 H 0.60966 0.70368 0.48245 0.0
H1999 H 0.58631 0.6773 0.49117 0.0
H2000 H 0.62134 0.67257 0.49161 0.0
H2001 H 0.65078 0.65761 0.59278 0.0
H2002 H 0.61327 0.62672 0.60164 0.0
H2003 H 0.56797 0.65501 0.53463 0.0
C2004 C 0.65051 0.73133 0.52343 0.0
C2005 C 0.6774 0.73737 0.53195 0.0
C2006 C 0.69016 0.72016 0.54883 0.0
C2007 C 0.67594 0.69861 0.55906 0.0
C2008 C 0.64935 0.6937 0.55097 0.0
C2009 C 0.63709 0.70852 0.53239 0.0
C2010 C 0.60897 0.69698 0.52535 0.0
C2011 C 0.58842 0.71697 0.53157 0.0
C2012 C 0.60642 0.68703 0.4959 0.0
C2013 C 0.60702 0.67428 0.54411 0.0
C2014 C 0.63042 0.67354 0.55918 0.0
C2015 C 0.63282 0.65695 0.58023 0.0
C2016 C 0.61128 0.63943 0.58507 0.0
C2017 C 0.58812 0.6374 0.56799 0.0
C2018 C 0.58569 0.65557 0.54755 0.0
H2019 H 0.68696 0.30121 0.99341 0.0
H2020 H 0.62966 0.26109 0.04253 0.0
H2021 H 0.59844 0.29599 0.03459 0.0
H2022 H 0.67333 0.3679 0.01466 0.0
H2023 H 0.67886 0.38005 0.98188 0.0
H2024 H 0.69615 0.3526 0.99314 0.0
H2025 H 0.67781 0.3247 0.9511 0.0
H2026 H 0.66031 0.35196 0.93985 0.0
H2027 H 0.64244 0.32064 0.94417 0.0
H2028 H 0.57239 0.33664 0.01781 0.0
H2029 H 0.55701 0.37658 0.99631 0.0
H2030 H 0.63325 0.38725 0.95959 0.0
C2031 C 0.66794 0.29989 0.00276 0.0
C2032 C 0.66071 0.2785 0.01857 0.0
C2033 C 0.63567 0.27749 0.03051 0.0
C2034 C 0.61779 0.29718 0.02597 0.0
C2035 C 0.62543 0.31789 0.0097 0.0
C2036 C 0.65019 0.31929 -0.00137 0.0
C2037 C 0.65417 0.34291 0.9817 0.0
C2038 C 0.67697 0.36199 0.99356 0.0
C2039 C 0.65895 0.33454 0.95248 0.0
C2040 C 0.62765 0.35448 0.98427 0.0
C2041 C 0.6111 0.34021 0.00053 0.0
C2042 C 0.58543 0.34789 0.00515 0.0
C2043 C 0.57678 0.3706 0.99288 0.0
C2044 C 0.5937 0.38517 0.976 0.0
C2045 C 0.61942 0.37671 0.97205 0.0
H2046 H 0.34995 0.25044 0.96966 0.0
H2047 H 0.33864 0.22498 0.05037 0.0
H2048 H 0.37101 0.1914 0.04337 0.0
H2049 H 0.35178 0.18634 0.94039 0.0
H2050 H 0.3758 0.19609 0.91629 0.0
H2051 H 0.3537 0.21941 0.92883 0.0
H2052 H 0.39404 0.25156 0.94402 0.0
H2053 H 0.41628 0.22832 0.93148 0.0
H2054 H 0.41973 0.24045 0.96586 0.0
H2055 H 0.40211 0.1573 0.02526 0.0
H2056 H 0.42918 0.12794 -0.00158 0.0
H2057 H 0.41921 0.17707 0.93053 0.0
C2058 C 0.35413 0.23784 0.98595 0.0
C2059 C 0.34149 0.24038 0.01052 0.0
C2060 C 0.34815 0.22369 0.03139 0.0
C2061 C 0.36646 0.20443 0.02757 0.0
C2062 C 0.37805 0.20212 0.0028 0.0
C2063 C 0.37214 0.21855 0.98244 0.0
C2064 C 0.38599 0.21145 0.95722 0.0
C2065 C 0.36561 0.20281 0.93434 0.0
C2066 C 0.40515 0.23431 0.94919 0.0
C2067 C 0.4008 0.18854 0.96651 0.0
C2068 C 0.39598 0.18319 0.99277 0.0
C2069 C 0.4063 0.16161 0.0048 0.0
C2070 C 0.42167 0.14505 0.98945 0.0
C2071 C 0.4267 0.15034 0.96249 0.0
C2072 C 0.41631 0.17264 0.95123 0.0
H2073 H 0.81227 0.29224 0.06326 0.0
H2074 H 0.84658 0.24348 0.00279 0.0
H2075 H 0.88476 0.27671 0.00089 0.0
H2076 H 0.82633 0.35061 0.04144 0.0
H2077 H 0.83594 0.3679 0.07282 0.0
H2078 H 0.8138 0.33878 0.07234 0.0
H2079 H 0.84532 0.31659 0.10513 0.0
H2080 H 0.86724 0.34615 0.10666 0.0
H2081 H 0.8798 0.31493 0.09765 0.0
H2082 H 0.91293 0.32023 -0.00085 0.0
H2083 H 0.9335 0.36608 0.00407 0.0
H2084 H 0.88362 0.38127 0.07073 0.0
C2085 C 0.82855 0.28776 0.05079 0.0
C2086 C 0.82682 0.26529 0.0335 0.0
C2087 C 0.84783 0.26068 0.01634 0.0
C2088 C 0.86953 0.27933 0.01519 0.0
C2089 C 0.87027 0.30171 0.03221 0.0
C2090 C 0.85084 0.3053 0.05051 0.0
C2091 C 0.85544 0.33123 0.06601 0.0
C2092 C 0.83146 0.3481 0.06293 0.0
C2093 C 0.86237 0.32696 0.09561 0.0
C2094 C 0.87918 0.34269 0.05207 0.0
C2095 C 0.88766 0.32553 0.03264 0.0
C2096 C 0.90715 0.33347 0.01498 0.0
C2097 C 0.91848 0.35949 0.01767 0.0
C2098 C 0.91034 0.37678 0.03804 0.0
C2099 C 0.89067 0.36813 0.05544 0.0
loop_
_geom_bond_atom_site_label_1
_geom_bond_atom_site_label_2
_geom_bond_distance
_geom_bond_site_symmetry_2
_ccdc_geom_bond_type
C0 C1 1.470 . S
C0 N4 1.372 1_655 S
C0 C38 1.370 1_655 S
C1 C0 1.470 . S
C1 C2 1.340 . S
C1 H41 0.951 . S
C2 C1 1.340 . S
C2 C3 1.439 . S
C2 H42 0.950 . S
C3 C2 1.439 . S
C3 N4 1.374 1_655 S
C3 C37 1.395 . S
N4 C0 1.372 1_455 S
N4 C3 1.374 1_455 S
N4 Co5 2.008 . S
Co5 N4 2.008 . S
Co5 N6 1.995 . S
Co5 N11 2.008 . S
Co5 N16 1.995 . S
Co5 N21 2.282 . S
Co5 N27 2.282 . S
N6 Co5 1.995 . S
N6 C7 1.376 1_455 S
N6 C10 1.383 . S
C7 N6 1.376 1_655 S
C7 C8 1.446 . S
C7 C37 1.391 . S
C8 C7 1.446 . S
C8 C9 1.339 1_655 S
C8 H43 0.949 . S
C9 C8 1.339 1_455 S
C9 C10 1.439 . S
C9 H44 0.950 . S
C10 N6 1.383 . S
C10 C9 1.439 . S
C10 C39 1.392 . S
N11 Co5 2.008 . S
N11 C12 1.376 . S
N11 C15 1.374 . S
C12 N11 1.376 . S
C12 C13 1.443 . S
C12 C39 1.389 . S
C13 C12 1.443 . S
C13 C14 1.340 . S
C13 H45 0.951 . S
C14 C13 1.340 . S
C14 C15 1.439 . S
C14 H46 0.950 . S
C15 N11 1.374 . S
C15 C14 1.439 . S
C15 C40 1.395 . S
N16 Co5 1.995 . S
N16 C17 1.376 . S
N16 C20 1.383 . S
C17 N16 1.376 . S
C17 C18 1.446 . S
C17 C40 1.391 . S
C18 C17 1.446 . S
C18 C19 1.339 . S
C18 H47 0.949 . S
C19 C18 1.339 . S
C19 C20 1.439 . S
C19 H48 0.950 . S
C20 N16 1.383 . S
C20 C19 1.439 . S
C20 C38 1.392 . S
N21 Co5 2.282 . S
N21 C24 1.332 . S
N21 C26 1.332 . S
C22 C23 1.386 . S
C22 C25 1.388 . S
C23 C22 1.386 . S
C23 C24 1.382 . S
C23 H49 0.950 . S
C24 N21 1.332 . S
C24 C23 1.382 . S
C24 H35 0.952 . S
C25 C22 1.388 . S
C25 C26 1.382 . S
C25 H50 0.950 . S
C26 N21 1.332 . S
C26 C25 1.382 . S
C26 H36 0.948 . S
N27 Co5 2.282 . S
N27 C31 1.332 . S
N27 C32 1.332 . S
C28 C29 1.388 . S
C28 C32 1.382 . S
C28 H51 0.950 . S
C29 C28 1.388 . S
C29 C30 1.386 . S
C30 C29 1.386 . S
C30 C31 1.382 . S
C30 H52 0.950 1_455 S
C31 N27 1.332 . S
C31 C30 1.382 . S
C31 H33 0.952 1_455 S
C32 N27 1.332 . S
C32 C28 1.382 . S
C32 H34 0.948 . S
H33 C31 0.952 1_655 S
H34 C32 0.948 . S
H35 C24 0.952 . S
H36 C26 0.948 . S
C37 C3 1.395 . S
C37 C7 1.391 . S
C38 C0 1.370 1_455 S
C38 C20 1.392 . S
C39 C10 1.392 . S
C39 C12 1.389 . S
C40 C15 1.395 . S
C40 C17 1.391 . S
H41 C1 0.951 . S
H42 C2 0.950 . S
H43 C8 0.949 . S
H44 C9 0.950 . S
H45 C13 0.951 . S
H46 C14 0.950 . S
H47 C18 0.949 . S
H48 C19 0.950 . S
H49 C23 0.950 . S
H50 C25 0.950 . S
H51 C28 0.950 . S
H52 C30 0.950 1_655 S
C53 C54 1.443 . S
C53 N57 1.376 . S
C53 C91 1.389 1_655 S
C54 C53 1.443 . S
C54 C55 1.340 . S
C54 H94 0.951 . S
C55 C54 1.340 . S
C55 C56 1.439 . S
C55 H95 0.950 . S
C56 C55 1.439 . S
C56 N57 1.374 . S
C56 C90 1.395 . S
N57 C53 1.376 . S
N57 C56 1.374 . S
N57 Co58 2.008 1_655 S
Co58 N57 2.008 1_455 S
Co58 N59 1.995 1_455 S
Co58 N64 2.008 . S
Co58 N69 1.995 . S
Co58 N74 2.282 . S
Co58 N80 2.282 . S
N59 Co58 1.995 1_655 S
N59 C60 1.376 . S
N59 C63 1.380 1_655 S
C60 N59 1.376 . S
C60 C61 1.446 . S
C60 C90 1.391 . S
C61 C60 1.446 . S
C61 C62 1.339 . S
C61 H96 0.949 . S
C62 C61 1.339 . S
C62 C63 1.425 1_655 S
C62 H97 0.950 . S
C63 N59 1.380 1_455 S
C63 C62 1.425 1_455 S
C63 C92 1.406 . S
N64 Co58 2.008 . S
N64 C65 1.376 . S
N64 C68 1.374 . S
C65 N64 1.376 . S
C65 C66 1.443 . S
C65 C92 1.389 . S
C66 C65 1.443 . S
C66 C67 1.340 . S
C66 H98 0.951 . S
C67 C66 1.340 . S
C67 C68 1.439 . S
C67 H99 0.950 . S
C68 N64 1.374 . S
C68 C67 1.439 . S
C68 C93 1.395 . S
N69 Co58 1.995 . S
N69 C70 1.376 . S
N69 C73 1.383 . S
C70 N69 1.376 . S
C70 C71 1.446 . S
C70 C93 1.391 . S
C71 C70 1.446 . S
C71 C72 1.339 . S
C71 H100 0.949 . S
C72 C71 1.339 . S
C72 C73 1.439 . S
C72 H101 0.950 . S
C73 N69 1.383 . S
C73 C72 1.439 . S
C73 C91 1.392 . S
N74 Co58 2.282 . S
N74 C77 1.332 . S
N74 C79 1.332 . S
C75 C76 1.386 . S
C75 C78 1.388 . S
C76 C75 1.386 . S
C76 C77 1.382 . S
C76 H102 0.950 . S
C77 N74 1.332 . S
C77 C76 1.382 . S
C77 H88 0.952 . S
C78 C75 1.388 . S
C78 C79 1.382 . S
C78 H103 0.950 1_455 S
C79 N74 1.332 . S
C79 C78 1.382 . S
C79 H89 0.948 1_455 S
N80 Co58 2.282 . S
N80 C84 1.332 1_455 S
N80 C85 1.332 . S
C81 C82 1.388 1_455 S
C81 C85 1.382 . S
C81 H104 0.950 . S
C82 C81 1.388 1_655 S
C82 C83 1.386 . S
C83 C82 1.386 . S
C83 C84 1.382 . S
C83 H105 0.950 . S
C84 N80 1.332 1_655 S
C84 C83 1.382 . S
C84 H86 0.952 . S
C85 N80 1.332 . S
C85 C81 1.382 . S
C85 H87 0.948 . S
H86 C84 0.952 . S
H87 C85 0.948 . S
H88 C77 0.952 . S
H89 C79 0.948 1_655 S
C90 C56 1.395 . S
C90 C60 1.391 . S
C91 C53 1.389 1_455 S
C91 C73 1.392 . S
C92 C63 1.406 . S
C92 C65 1.389 . S
C93 C68 1.395 . S
C93 C70 1.391 . S
H94 C54 0.951 . S
H95 C55 0.950 . S
H96 C61 0.949 . S
H97 C62 0.950 . S
H98 C66 0.951 . S
H99 C67 0.950 . S
H100 C71 0.949 . S
H101 C72 0.950 . S
H102 C76 0.950 . S
H103 C78 0.950 1_655 S
H104 C81 0.950 . S
H105 C83 0.950 . S
C106 C107 1.443 . S
C106 N110 1.376 . S
C106 C144 1.389 . S
C107 C106 1.443 . S
C107 C108 1.340 . S
C107 H147 0.951 . S
C108 C107 1.340 . S
C108 C109 1.439 . S
C108 H148 0.950 . S
C109 C108 1.439 . S
C109 N110 1.374 . S
C109 C143 1.395 . S
N110 C106 1.376 . S
N110 C109 1.374 . S
N110 Co111 2.008 1_565 S
Co111 N110 2.008 1_545 S
Co111 N112 1.995 1_545 S
Co111 N117 2.008 . S
Co111 N122 1.995 . S
Co111 N127 2.282 . S
Co111 N133 2.282 . S
N112 Co111 1.995 1_565 S
N112 C113 1.376 . S
N112 C116 1.385 1_565 S
C113 N112 1.376 . S
C113 C114 1.446 . S
C113 C143 1.391 . S
C114 C113 1.446 . S
C114 C115 1.339 . S
C114 H149 0.949 . S
C115 C114 1.339 . S
C115 C116 1.442 1_565 S
C115 H150 0.950 . S
C116 N112 1.385 1_545 S
C116 C115 1.442 1_545 S
C116 C145 1.387 . S
N117 Co111 2.008 . S
N117 C118 1.376 . S
N117 C121 1.374 . S
C118 N117 1.376 . S
C118 C119 1.443 . S
C118 C145 1.389 . S
C119 C118 1.443 . S
C119 C120 1.340 . S
C119 H151 0.951 . S
C120 C119 1.340 . S
C120 C121 1.439 . S
C120 H152 0.950 . S
C121 N117 1.374 . S
C121 C120 1.439 . S
C121 C146 1.395 . S
N122 Co111 1.995 . S
N122 C123 1.376 . S
N122 C126 1.383 . S
C123 N122 1.376 . S
C123 C124 1.446 . S
C123 C146 1.391 . S
C124 C123 1.446 . S
C124 C125 1.339 . S
C124 H153 0.949 . S
C125 C124 1.339 . S
C125 C126 1.439 . S
C125 H154 0.950 . S
C126 N122 1.383 . S
C126 C125 1.439 . S
C126 C144 1.392 1_545 S
N127 Co111 2.282 . S
N127 C130 1.332 . S
N127 C132 1.332 . S
C128 C129 1.386 . S
C128 C131 1.388 . S
C129 C128 1.386 . S
C129 C130 1.382 . S
C129 H155 0.950 . S
C130 N127 1.332 . S
C130 C129 1.382 . S
C130 H141 0.952 . S
C131 C128 1.388 . S
C131 C132 1.382 . S
C131 H156 0.950 1_545 S
C132 N127 1.332 . S
C132 C131 1.382 . S
C132 H142 0.948 1_545 S
N133 Co111 2.282 . S
N133 C137 1.332 1_545 S
N133 C138 1.332 . S
C134 C135 1.388 1_545 S
C134 C138 1.382 . S
C134 H157 0.950 . S
C135 C134 1.388 1_565 S
C135 C136 1.386 . S
C136 C135 1.386 . S
C136 C137 1.382 . S
C136 H158 0.950 . S
C137 N133 1.332 1_565 S
C137 C136 1.382 . S
C137 H139 0.952 . S
C138 N133 1.332 . S
C138 C134 1.382 . S
C138 H140 0.948 . S
H139 C137 0.952 . S
H140 C138 0.948 . S
H141 C130 0.952 . S
H142 C132 0.948 1_565 S
C143 C109 1.395 . S
C143 C113 1.391 . S
C144 C106 1.389 . S
C144 C126 1.392 1_565 S
C145 C116 1.387 . S
C145 C118 1.389 . S
C146 C121 1.395 . S
C146 C123 1.391 . S
H147 C107 0.951 . S
H148 C108 0.950 . S
H149 C114 0.949 . S
H150 C115 0.950 . S
H151 C119 0.951 . S
H152 C120 0.950 . S
H153 C124 0.949 . S
H154 C125 0.950 . S
H155 C129 0.950 . S
H156 C131 0.950 1_565 S
H157 C134 0.950 . S
H158 C136 0.950 . S
C159 C160 1.443 . S
C159 N163 1.376 . S
C159 C197 1.389 . S
C160 C159 1.443 . S
C160 C161 1.340 . S
C160 H200 0.951 . S
C161 C160 1.340 . S
C161 C162 1.439 . S
C161 H201 0.950 . S
C162 C161 1.439 . S
C162 N163 1.374 . S
C162 C196 1.395 . S
N163 C159 1.376 . S
N163 C162 1.374 . S
N163 Co164 2.008 . S
Co164 N163 2.008 . S
Co164 N165 1.995 . S
Co164 N170 2.008 . S
Co164 N175 1.995 . S
Co164 N180 2.282 . S
Co164 N186 2.282 . S
N165 Co164 1.995 . S
N165 C166 1.376 . S
N165 C169 1.383 . S
C166 N165 1.376 . S
C166 C167 1.446 . S
C166 C196 1.391 . S
C167 C166 1.446 . S
C167 C168 1.339 . S
C167 H202 0.949 . S
C168 C167 1.339 . S
C168 C169 1.439 . S
C168 H203 0.950 . S
C169 N165 1.383 . S
C169 C168 1.439 . S
C169 C198 1.392 . S
N170 Co164 2.008 . S
N170 C171 1.376 . S
N170 C174 1.374 . S
C171 N170 1.376 . S
C171 C172 1.443 . S
C171 C198 1.389 . S
C172 C171 1.443 . S
C172 C173 1.340 . S
C172 H204 0.951 . S
C173 C172 1.340 . S
C173 C174 1.439 . S
C173 H205 0.950 . S
C174 N170 1.374 . S
C174 C173 1.439 . S
C174 C199 1.395 . S
N175 Co164 1.995 . S
N175 C176 1.376 . S
N175 C179 1.383 . S
C176 N175 1.376 . S
C176 C177 1.446 . S
C176 C199 1.391 . S
C177 C176 1.446 . S
C177 C178 1.339 . S
C177 H206 0.949 . S
C178 C177 1.339 . S
C178 C179 1.439 . S
C178 H207 0.950 . S
C179 N175 1.383 . S
C179 C178 1.439 . S
C179 C197 1.392 . S
N180 Co164 2.282 . S
N180 C183 1.332 . S
N180 C185 1.332 . S
C181 C182 1.386 . S
C181 C184 1.388 . S
C182 C181 1.386 . S
C182 C183 1.382 . S
C182 H208 0.950 . S
C183 N180 1.332 . S
C183 C182 1.382 . S
C183 H194 0.952 . S
C184 C181 1.388 . S
C184 C185 1.382 . S
C184 H209 0.950 . S
C185 N180 1.332 . S
C185 C184 1.382 . S
C185 H195 0.948 . S
N186 Co164 2.282 . S
N186 C190 1.332 . S
N186 C191 1.332 . S
C187 C188 1.388 . S
C187 C191 1.382 . S
C187 H210 0.950 . S
C188 C187 1.388 . S
C188 C189 1.386 . S
C189 C188 1.386 . S
C189 C190 1.382 . S
C189 H211 0.950 . S
C190 N186 1.332 . S
C190 C189 1.382 . S
C190 H192 0.952 . S
C191 N186 1.332 . S
C191 C187 1.382 . S
C191 H193 0.948 . S
H192 C190 0.952 . S
H193 C191 0.948 . S
H194 C183 0.952 . S
H195 C185 0.948 . S
C196 C162 1.395 . S
C196 C166 1.391 . S
C197 C159 1.389 . S
C197 C179 1.392 . S
C198 C169 1.392 . S
C198 C171 1.389 . S
C199 C174 1.395 . S
C199 C176 1.391 . S
H200 C160 0.951 . S
H201 C161 0.950 . S
H202 C167 0.949 . S
H203 C168 0.950 . S
H204 C172 0.951 . S
H205 C173 0.950 . S
H206 C177 0.949 . S
H207 C178 0.950 . S
H208 C182 0.950 . S
H209 C184 0.950 . S
H210 C187 0.950 . S
H211 C189 0.950 . S
C212 C213 1.443 . S
C212 N216 1.376 . S
C212 C250 1.389 1_556 S
C213 C212 1.443 . S
C213 C214 1.340 . S
C213 H253 0.951 . S
C214 C213 1.340 . S
C214 C215 1.439 . S
C214 H254 0.950 . S
C215 C214 1.439 . S
C215 N216 1.374 . S
C215 C249 1.395 . S
N216 C212 1.376 . S
N216 C215 1.374 . S
N216 Co217 2.008 1_556 S
Co217 N216 2.008 1_554 S
Co217 N218 1.982 1_554 S
Co217 N223 2.008 . S
Co217 N228 1.995 . S
Co217 N233 2.282 . S
Co217 N239 2.282 . S
N218 Co217 1.982 1_556 S
N218 C219 1.399 . S
N218 C222 1.375 1_556 S
C219 N218 1.399 . S
C219 C220 1.446 . S
C219 C249 1.391 . S
C220 C219 1.446 . S
C220 C221 1.339 . S
C220 H255 0.949 . S
C221 C220 1.339 . S
C221 C222 1.439 1_556 S
C221 H256 0.950 . S
C222 N218 1.375 1_554 S
C222 C221 1.439 1_554 S
C222 C251 1.392 . S
N223 Co217 2.008 . S
N223 C224 1.376 . S
N223 C227 1.374 . S
C224 N223 1.376 . S
C224 C225 1.443 . S
C224 C251 1.389 . S
C225 C224 1.443 . S
C225 C226 1.340 . S
C225 H257 0.951 . S
C226 C225 1.340 . S
C226 C227 1.439 . S
C226 H258 0.950 . S
C227 N223 1.374 . S
C227 C226 1.439 . S
C227 C252 1.395 . S
N228 Co217 1.995 . S
N228 C229 1.376 . S
N228 C232 1.383 . S
C229 N228 1.376 . S
C229 C230 1.446 . S
C229 C252 1.391 . S
C230 C229 1.446 . S
C230 C231 1.339 . S
C230 H259 0.949 . S
C231 C230 1.339 . S
C231 C232 1.439 . S
C231 H260 0.950 . S
C232 N228 1.383 . S
C232 C231 1.439 . S
C232 C250 1.392 . S
N233 Co217 2.282 . S
N233 C236 1.332 . S
N233 C238 1.332 . S
C234 C235 1.386 . S
C234 C237 1.388 . S
C235 C234 1.386 . S
C235 C236 1.382 . S
C235 H261 0.950 . S
C236 N233 1.332 . S
C236 C235 1.382 . S
C236 H247 0.952 . S
C237 C234 1.388 . S
C237 C238 1.382 . S
C237 H262 0.950 . S
C238 N233 1.332 . S
C238 C237 1.382 . S
C238 H248 0.948 1_554 S
N239 Co217 2.282 . S
N239 C243 1.332 1_554 S
N239 C244 1.332 . S
C240 C241 1.388 . S
C240 C244 1.382 . S
C240 H263 0.950 . S
C241 C240 1.388 . S
C241 C242 1.386 1_554 S
C242 C241 1.386 1_556 S
C242 C243 1.382 . S
C242 H264 0.950 . S
C243 N239 1.332 1_556 S
C243 C242 1.382 . S
C243 H245 0.952 . S
C244 N239 1.332 . S
C244 C240 1.382 . S
C244 H246 0.948 . S
H245 C243 0.952 . S
H246 C244 0.948 . S
H247 C236 0.952 . S
H248 C238 0.948 1_556 S
C249 C215 1.395 . S
C249 C219 1.391 . S
C250 C212 1.389 1_554 S
C250 C232 1.392 . S
C251 C222 1.392 . S
C251 C224 1.389 . S
C252 C227 1.395 . S
C252 C229 1.391 . S
H253 C213 0.951 . S
H254 C214 0.950 . S
H255 C220 0.949 . S
H256 C221 0.950 . S
H257 C225 0.951 . S
H258 C226 0.950 . S
H259 C230 0.949 . S
H260 C231 0.950 . S
H261 C235 0.950 . S
H262 C237 0.950 . S
H263 C240 0.950 . S
H264 C242 0.950 . S
C265 C266 1.443 . S
C265 N269 1.376 . S
C265 C303 1.389 . S
C266 C265 1.443 . S
C266 C267 1.340 . S
C266 H306 0.951 . S
C267 C266 1.340 . S
C267 C268 1.439 . S
C267 H307 0.950 . S
C268 C267 1.439 . S
C268 N269 1.374 . S
C268 C302 1.395 . S
N269 C265 1.376 . S
N269 C268 1.374 . S
N269 Co270 2.008 . S
Co270 N269 2.008 . S
Co270 N271 1.995 . S
Co270 N276 2.008 . S
Co270 N281 1.995 . S
Co270 N286 2.282 . S
Co270 N292 2.282 . S
N271 Co270 1.995 . S
N271 C272 1.376 . S
N271 C275 1.383 . S
C272 N271 1.376 . S
C272 C273 1.446 . S
C272 C302 1.391 . S
C273 C272 1.446 . S
C273 C274 1.339 . S
C273 H308 0.949 . S
C274 C273 1.339 . S
C274 C275 1.439 . S
C274 H309 0.950 . S
C275 N271 1.383 . S
C275 C274 1.439 . S
C275 C304 1.392 . S
N276 Co270 2.008 . S
N276 C277 1.376 . S
N276 C280 1.374 . S
C277 N276 1.376 . S
C277 C278 1.443 . S
C277 C304 1.389 . S
C278 C277 1.443 . S
C278 C279 1.340 . S
C278 H310 0.951 . S
C279 C278 1.340 . S
C279 C280 1.439 . S
C279 H311 0.950 . S
C280 N276 1.374 . S
C280 C279 1.439 . S
C280 C305 1.395 . S
N281 Co270 1.995 . S
N281 C282 1.376 . S
N281 C285 1.383 . S
C282 N281 1.376 . S
C282 C283 1.446 . S
C282 C305 1.391 . S
C283 C282 1.446 . S
C283 C284 1.339 . S
C283 H312 0.949 . S
C284 C283 1.339 . S
C284 C285 1.439 . S
C284 H313 0.950 . S
C285 N281 1.383 . S
C285 C284 1.439 . S
C285 C303 1.392 . S
N286 Co270 2.282 . S
N286 C289 1.332 . S
N286 C291 1.332 . S
C287 C288 1.386 . S
C287 C290 1.388 . S
C288 C287 1.386 . S
C288 C289 1.382 . S
C288 H314 0.950 . S
C289 N286 1.332 . S
C289 C288 1.382 . S
C289 H300 0.952 . S
C290 C287 1.388 . S
C290 C291 1.382 . S
C290 H315 0.950 . S
C291 N286 1.332 . S
C291 C290 1.382 . S
C291 H301 0.948 . S
N292 Co270 2.282 . S
N292 C296 1.332 . S
N292 C297 1.332 . S
C293 C294 1.388 . S
C293 C297 1.382 . S
C293 H316 0.950 . S
C294 C293 1.388 . S
C294 C295 1.386 . S
C295 C294 1.386 . S
C295 C296 1.382 . S
C295 H317 0.950 . S
C296 N292 1.332 . S
C296 C295 1.382 . S
C296 H298 0.952 . S
C297 N292 1.332 . S
C297 C293 1.382 . S
C297 H299 0.948 . S
H298 C296 0.952 . S
H299 C297 0.948 . S
H300 C289 0.952 . S
H301 C291 0.948 . S
C302 C268 1.395 . S
C302 C272 1.391 . S
C303 C265 1.389 . S
C303 C285 1.392 . S
C304 C275 1.392 . S
C304 C277 1.389 . S
C305 C280 1.395 . S
C305 C282 1.391 . S
H306 C266 0.951 . S
H307 C267 0.950 . S
H308 C273 0.949 . S
H309 C274 0.950 . S
H310 C278 0.951 . S
H311 C279 0.950 . S
H312 C283 0.949 . S
H313 C284 0.950 . S
H314 C288 0.950 . S
H315 C290 0.950 . S
H316 C293 0.950 . S
H317 C295 0.950 . S
C318 C319 1.443 . S
C318 N322 1.376 . S
C318 C356 1.389 . S
C319 C318 1.443 . S
C319 C320 1.340 . S
C319 H359 0.951 . S
C320 C319 1.340 . S
C320 C321 1.439 . S
C320 H360 0.950 . S
C321 C320 1.439 . S
C321 N322 1.374 . S
C321 C355 1.395 . S
N322 C318 1.376 . S
N322 C321 1.374 . S
N322 Co323 2.008 . S
Co323 N322 2.008 . S
Co323 N324 1.995 . S
Co323 N329 2.008 . S
Co323 N334 1.995 . S
Co323 N339 2.282 . S
Co323 N345 2.282 . S
N324 Co323 1.995 . S
N324 C325 1.376 . S
N324 C328 1.383 . S
C325 N324 1.376 . S
C325 C326 1.446 . S
C325 C355 1.391 . S
C326 C325 1.446 . S
C326 C327 1.339 . S
C326 H361 0.949 . S
C327 C326 1.339 . S
C327 C328 1.439 . S
C327 H362 0.950 . S
C328 N324 1.383 . S
C328 C327 1.439 . S
C328 C357 1.392 . S
N329 Co323 2.008 . S
N329 C330 1.376 . S
N329 C333 1.374 . S
C330 N329 1.376 . S
C330 C331 1.443 . S
C330 C357 1.389 . S
C331 C330 1.443 . S
C331 C332 1.340 . S
C331 H363 0.951 . S
C332 C331 1.340 . S
C332 C333 1.439 . S
C332 H364 0.950 . S
C333 N329 1.374 . S
C333 C332 1.439 . S
C333 C358 1.395 . S
N334 Co323 1.995 . S
N334 C335 1.376 . S
N334 C338 1.383 . S
C335 N334 1.376 . S
C335 C336 1.446 . S
C335 C358 1.391 . S
C336 C335 1.446 . S
C336 C337 1.339 . S
C336 H365 0.949 . S
C337 C336 1.339 . S
C337 C338 1.439 . S
C337 H366 0.950 . S
C338 N334 1.383 . S
C338 C337 1.439 . S
C338 C356 1.392 . S
N339 Co323 2.282 . S
N339 C342 1.332 . S
N339 C344 1.332 . S
C340 C341 1.386 . S
C340 C343 1.388 . S
C341 C340 1.386 . S
C341 C342 1.382 . S
C341 H367 0.950 . S
C342 N339 1.332 . S
C342 C341 1.382 . S
C342 H353 0.952 . S
C343 C340 1.388 . S
C343 C344 1.382 . S
C343 H368 0.950 . S
C344 N339 1.332 . S
C344 C343 1.382 . S
C344 H354 0.948 . S
N345 Co323 2.282 . S
N345 C349 1.332 . S
N345 C350 1.332 . S
C346 C347 1.388 . S
C346 C350 1.382 . S
C346 H369 0.950 . S
C347 C346 1.388 . S
C347 C348 1.386 . S
C348 C347 1.386 . S
C348 C349 1.382 . S
C348 H370 0.950 . S
C349 N345 1.332 . S
C349 C348 1.382 . S
C349 H351 0.952 . S
C350 N345 1.332 . S
C350 C346 1.382 . S
C350 H352 0.948 . S
H351 C349 0.952 . S
H352 C350 0.948 . S
H353 C342 0.952 . S
H354 C344 0.948 . S
C355 C321 1.395 . S
C355 C325 1.391 . S
C356 C318 1.389 . S
C356 C338 1.392 . S
C357 C328 1.392 . S
C357 C330 1.389 . S
C358 C333 1.395 . S
C358 C335 1.391 . S
H359 C319 0.951 . S
H360 C320 0.950 . S
H361 C326 0.949 . S
H362 C327 0.950 . S
H363 C331 0.951 . S
H364 C332 0.950 . S
H365 C336 0.949 . S
H366 C337 0.950 . S
H367 C341 0.950 . S
H368 C343 0.950 . S
H369 C346 0.950 . S
H370 C348 0.950 . S
C371 C372 1.443 . S
C371 N375 1.376 . S
C371 C409 1.389 . S
C372 C371 1.443 . S
C372 C373 1.340 . S
C372 H412 0.951 . S
C373 C372 1.340 . S
C373 C374 1.439 . S
C373 H413 0.950 . S
C374 C373 1.439 . S
C374 N375 1.374 . S
C374 C408 1.395 . S
N375 C371 1.376 . S
N375 C374 1.374 . S
N375 Co376 2.008 . S
Co376 N375 2.008 . S
Co376 N377 1.995 . S
Co376 N382 2.008 . S
Co376 N387 1.995 . S
Co376 N392 2.282 . S
Co376 N398 2.282 . S
N377 Co376 1.995 . S
N377 C378 1.376 . S
N377 C381 1.383 . S
C378 N377 1.376 . S
C378 C379 1.446 . S
C378 C408 1.391 . S
C379 C378 1.446 . S
C379 C380 1.339 . S
C379 H414 0.949 . S
C380 C379 1.339 . S
C380 C381 1.439 . S
C380 H415 0.950 . S
C381 N377 1.383 . S
C381 C380 1.439 . S
C381 C410 1.392 . S
N382 Co376 2.008 . S
N382 C383 1.376 . S
N382 C386 1.374 . S
C383 N382 1.376 . S
C383 C384 1.443 . S
C383 C410 1.389 . S
C384 C383 1.443 . S
C384 C385 1.340 . S
C384 H416 0.951 . S
C385 C384 1.340 . S
C385 C386 1.439 . S
C385 H417 0.950 . S
C386 N382 1.374 . S
C386 C385 1.439 . S
C386 C411 1.395 . S
N387 Co376 1.995 . S
N387 C388 1.376 . S
N387 C391 1.383 . S
C388 N387 1.376 . S
C388 C389 1.446 . S
C388 C411 1.391 . S
C389 C388 1.446 . S
C389 C390 1.339 . S
C389 H418 0.949 . S
C390 C389 1.339 . S
C390 C391 1.439 . S
C390 H419 0.950 . S
C391 N387 1.383 . S
C391 C390 1.439 . S
C391 C409 1.392 . S
N392 Co376 2.282 . S
N392 C395 1.332 . S
N392 C397 1.332 . S
C393 C394 1.386 . S
C393 C396 1.388 . S
C394 C393 1.386 . S
C394 C395 1.382 . S
C394 H420 0.950 . S
C395 N392 1.332 . S
C395 C394 1.382 . S
C395 H406 0.952 . S
C396 C393 1.388 . S
C396 C397 1.382 . S
C396 H421 0.950 . S
C397 N392 1.332 . S
C397 C396 1.382 . S
C397 H407 0.948 . S
N398 Co376 2.282 . S
N398 C402 1.332 . S
N398 C403 1.332 . S
C399 C400 1.388 . S
C399 C403 1.382 . S
C399 H422 0.950 . S
C400 C399 1.388 . S
C400 C401 1.386 . S
C401 C400 1.386 . S
C401 C402 1.382 . S
C401 H423 0.950 . S
C402 N398 1.332 . S
C402 C401 1.382 . S
C402 H404 0.952 . S
C403 N398 1.332 . S
C403 C399 1.382 . S
C403 H405 0.948 . S
H404 C402 0.952 . S
H405 C403 0.948 . S
H406 C395 0.952 . S
H407 C397 0.948 . S
C408 C374 1.395 . S
C408 C378 1.391 . S
C409 C371 1.389 . S
C409 C391 1.392 . S
C410 C381 1.392 . S
C410 C383 1.389 . S
C411 C386 1.395 . S
C411 C388 1.391 . S
H412 C372 0.951 . S
H413 C373 0.950 . S
H414 C379 0.949 . S
H415 C380 0.950 . S
H416 C384 0.951 . S
H417 C385 0.950 . S
H418 C389 0.949 . S
H419 C390 0.950 . S
H420 C394 0.950 . S
H421 C396 0.950 . S
H422 C399 0.950 . S
H423 C401 0.950 . S
C424 C425 1.443 . S
C424 N428 1.376 . S
C424 C462 1.389 . S
C425 C424 1.443 . S
C425 C426 1.340 . S
C425 H465 0.951 . S
C426 C425 1.340 . S
C426 C427 1.439 . S
C426 H466 0.950 . S
C427 C426 1.439 . S
C427 N428 1.374 . S
C427 C461 1.395 . S
N428 C424 1.376 . S
N428 C427 1.374 . S
N428 Co429 2.008 . S
Co429 N428 2.008 . S
Co429 N430 1.995 . S
Co429 N435 2.008 . S
Co429 N440 1.995 . S
Co429 N445 2.282 . S
Co429 N451 2.282 . S
N430 Co429 1.995 . S
N430 C431 1.376 . S
N430 C434 1.383 . S
C431 N430 1.376 . S
C431 C432 1.446 . S
C431 C461 1.391 . S
C432 C431 1.446 . S
C432 C433 1.339 . S
C432 H467 0.949 . S
C433 C432 1.339 . S
C433 C434 1.439 . S
C433 H468 0.950 . S
C434 N430 1.383 . S
C434 C433 1.439 . S
C434 C463 1.392 . S
N435 Co429 2.008 . S
N435 C436 1.376 . S
N435 C439 1.374 . S
C436 N435 1.376 . S
C436 C437 1.443 . S
C436 C463 1.389 . S
C437 C436 1.443 . S
C437 C438 1.340 . S
C437 H469 0.951 . S
C438 C437 1.340 . S
C438 C439 1.439 . S
C438 H470 0.950 . S
C439 N435 1.374 . S
C439 C438 1.439 . S
C439 C464 1.395 . S
N440 Co429 1.995 . S
N440 C441 1.376 . S
N440 C444 1.383 . S
C441 N440 1.376 . S
C441 C442 1.446 . S
C441 C464 1.391 . S
C442 C441 1.446 . S
C442 C443 1.339 . S
C442 H471 0.949 . S
C443 C442 1.339 . S
C443 C444 1.439 . S
C443 H472 0.950 . S
C444 N440 1.383 . S
C444 C443 1.439 . S
C444 C462 1.392 . S
N445 Co429 2.282 . S
N445 C448 1.332 . S
N445 C450 1.332 . S
C446 C447 1.386 . S
C446 C449 1.388 . S
C447 C446 1.386 . S
C447 C448 1.382 . S
C447 H473 0.950 . S
C448 N445 1.332 . S
C448 C447 1.382 . S
C448 H459 0.952 . S
C449 C446 1.388 . S
C449 C450 1.382 . S
C449 H474 0.950 . S
C450 N445 1.332 . S
C450 C449 1.382 . S
C450 H460 0.948 . S
N451 Co429 2.282 . S
N451 C455 1.332 . S
N451 C456 1.332 . S
C452 C453 1.388 . S
C452 C456 1.382 . S
C452 H475 0.950 . S
C453 C452 1.388 . S
C453 C454 1.386 . S
C454 C453 1.386 . S
C454 C455 1.382 . S
C454 H476 0.950 . S
C455 N451 1.332 . S
C455 C454 1.382 . S
C455 H457 0.952 . S
C456 N451 1.332 . S
C456 C452 1.382 . S
C456 H458 0.948 . S
H457 C455 0.952 . S
H458 C456 0.948 . S
H459 C448 0.952 . S
H460 C450 0.948 . S
C461 C427 1.395 . S
C461 C431 1.391 . S
C462 C424 1.389 . S
C462 C444 1.392 . S
C463 C434 1.392 . S
C463 C436 1.389 . S
C464 C439 1.395 . S
C464 C441 1.391 . S
H465 C425 0.951 . S
H466 C426 0.950 . S
H467 C432 0.949 . S
H468 C433 0.950 . S
H469 C437 0.951 . S
H470 C438 0.950 . S
H471 C442 0.949 . S
H472 C443 0.950 . S
H473 C447 0.950 . S
H474 C449 0.950 . S
H475 C452 0.950 . S
H476 C454 0.950 . S
C477 C478 1.443 . S
C477 N481 1.376 . S
C477 C515 1.389 . S
C478 C477 1.443 . S
C478 C479 1.340 . S
C478 H518 0.951 . S
C479 C478 1.340 . S
C479 C480 1.439 . S
C479 H519 0.950 . S
C480 C479 1.439 . S
C480 N481 1.374 . S
C480 C514 1.395 . S
N481 C477 1.376 . S
N481 C480 1.374 . S
N481 Co482 2.008 . S
Co482 N481 2.008 . S
Co482 N483 1.995 . S
Co482 N488 2.008 . S
Co482 N493 1.995 . S
Co482 N498 2.282 . S
Co482 N504 2.282 . S
N483 Co482 1.995 . S
N483 C484 1.376 . S
N483 C487 1.383 . S
C484 N483 1.376 . S
C484 C485 1.446 . S
C484 C514 1.391 . S
C485 C484 1.446 . S
C485 C486 1.339 . S
C485 H520 0.949 . S
C486 C485 1.339 . S
C486 C487 1.439 . S
C486 H521 0.950 . S
C487 N483 1.383 . S
C487 C486 1.439 . S
C487 C516 1.392 . S
N488 Co482 2.008 . S
N488 C489 1.376 . S
N488 C492 1.374 . S
C489 N488 1.376 . S
C489 C490 1.443 . S
C489 C516 1.389 . S
C490 C489 1.443 . S
C490 C491 1.340 . S
C490 H522 0.951 . S
C491 C490 1.340 . S
C491 C492 1.439 . S
C491 H523 0.950 . S
C492 N488 1.374 . S
C492 C491 1.439 . S
C492 C517 1.395 . S
N493 Co482 1.995 . S
N493 C494 1.376 . S
N493 C497 1.383 . S
C494 N493 1.376 . S
C494 C495 1.446 . S
C494 C517 1.391 . S
C495 C494 1.446 . S
C495 C496 1.339 . S
C495 H524 0.949 . S
C496 C495 1.339 . S
C496 C497 1.439 . S
C496 H525 0.950 . S
C497 N493 1.383 . S
C497 C496 1.439 . S
C497 C515 1.392 . S
N498 Co482 2.282 . S
N498 C501 1.332 . S
N498 C503 1.332 . S
C499 C500 1.386 . S
C499 C502 1.388 . S
C500 C499 1.386 . S
C500 C501 1.382 . S
C500 H526 0.950 . S
C501 N498 1.332 . S
C501 C500 1.382 . S
C501 H512 0.952 . S
C502 C499 1.388 . S
C502 C503 1.382 . S
C502 H527 0.950 . S
C503 N498 1.332 . S
C503 C502 1.382 . S
C503 H513 0.948 . S
N504 Co482 2.282 . S
N504 C508 1.332 . S
N504 C509 1.332 . S
C505 C506 1.388 . S
C505 C509 1.382 . S
C505 H528 0.950 . S
C506 C505 1.388 . S
C506 C507 1.386 . S
C507 C506 1.386 . S
C507 C508 1.382 . S
C507 H529 0.950 . S
C508 N504 1.332 . S
C508 C507 1.382 . S
C508 H510 0.952 . S
C509 N504 1.332 . S
C509 C505 1.382 . S
C509 H511 0.948 . S
H510 C508 0.952 . S
H511 C509 0.948 . S
H512 C501 0.952 . S
H513 C503 0.948 . S
C514 C480 1.395 . S
C514 C484 1.391 . S
C515 C477 1.389 . S
C515 C497 1.392 . S
C516 C487 1.392 . S
C516 C489 1.389 . S
C517 C492 1.395 . S
C517 C494 1.391 . S
H518 C478 0.951 . S
H519 C479 0.950 . S
H520 C485 0.949 . S
H521 C486 0.950 . S
H522 C490 0.951 . S
H523 C491 0.950 . S
H524 C495 0.949 . S
H525 C496 0.950 . S
H526 C500 0.950 . S
H527 C502 0.950 . S
H528 C505 0.950 . S
H529 C507 0.950 . S
C530 C531 1.443 . S
C530 N534 1.376 . S
C530 C568 1.389 . S
C531 C530 1.443 . S
C531 C532 1.340 . S
C531 H571 0.951 . S
C532 C531 1.340 . S
C532 C533 1.439 . S
C532 H572 0.950 . S
C533 C532 1.439 . S
C533 N534 1.374 . S
C533 C567 1.395 . S
N534 C530 1.376 . S
N534 C533 1.374 . S
N534 Co535 2.008 . S
Co535 N534 2.008 . S
Co535 N536 1.995 . S
Co535 N541 2.008 1_545 S
Co535 N546 1.995 1_545 S
Co535 N551 2.282 1_545 S
Co535 N557 2.282 . S
N536 Co535 1.995 . S
N536 C537 1.376 . S
N536 C540 1.383 . S
C537 N536 1.376 . S
C537 C538 1.446 . S
C537 C567 1.391 . S
C538 C537 1.446 . S
C538 C539 1.339 . S
C538 H573 0.949 . S
C539 C538 1.339 . S
C539 C540 1.439 . S
C539 H574 0.950 . S
C540 N536 1.383 . S
C540 C539 1.439 . S
C540 C569 1.392 1_545 S
N541 Co535 2.008 1_565 S
N541 C542 1.376 . S
N541 C545 1.374 . S
C542 N541 1.376 . S
C542 C543 1.443 . S
C542 C569 1.389 . S
C543 C542 1.443 . S
C543 C544 1.340 . S
C543 H575 0.951 . S
C544 C543 1.340 . S
C544 C545 1.439 . S
C544 H576 0.950 . S
C545 N541 1.374 . S
C545 C544 1.439 . S
C545 C570 1.395 . S
N546 Co535 1.995 1_565 S
N546 C547 1.376 . S
N546 C550 1.383 . S
C547 N546 1.376 . S
C547 C548 1.446 . S
C547 C570 1.391 . S
C548 C547 1.446 . S
C548 C549 1.339 . S
C548 H577 0.949 . S
C549 C548 1.339 . S
C549 C550 1.439 . S
C549 H578 0.950 . S
C550 N546 1.383 . S
C550 C549 1.439 . S
C550 C568 1.392 1_565 S
N551 Co535 2.282 1_565 S
N551 C554 1.332 . S
N551 C556 1.332 1_565 S
C552 C553 1.386 . S
C552 C555 1.388 1_565 S
C553 C552 1.386 . S
C553 C554 1.382 . S
C553 H579 0.950 . S
C554 N551 1.332 . S
C554 C553 1.382 . S
C554 H565 0.952 . S
C555 C552 1.388 1_545 S
C555 C556 1.382 . S
C555 H580 0.950 . S
C556 N551 1.332 1_545 S
C556 C555 1.382 . S
C556 H566 0.948 . S
N557 Co535 2.282 . S
N557 C561 1.332 . S
N557 C562 1.332 1_545 S
C558 C559 1.388 1_565 S
C558 C562 1.382 . S
C558 H581 0.950 . S
C559 C558 1.388 1_545 S
C559 C560 1.386 . S
C560 C559 1.386 . S
C560 C561 1.382 . S
C560 H582 0.950 . S
C561 N557 1.332 . S
C561 C560 1.382 . S
C561 H563 0.952 . S
C562 N557 1.332 1_565 S
C562 C558 1.382 . S
C562 H564 0.948 . S
H563 C561 0.952 . S
H564 C562 0.948 . S
H565 C554 0.952 . S
H566 C556 0.948 . S
C567 C533 1.395 . S
C567 C537 1.391 . S
C568 C530 1.389 . S
C568 C550 1.392 1_545 S
C569 C540 1.392 1_565 S
C569 C542 1.389 . S
C570 C545 1.395 . S
C570 C547 1.391 . S
H571 C531 0.951 . S
H572 C532 0.950 . S
H573 C538 0.949 . S
H574 C539 0.950 . S
H575 C543 0.951 . S
H576 C544 0.950 . S
H577 C548 0.949 . S
H578 C549 0.950 . S
H579 C553 0.950 . S
H580 C555 0.950 . S
H581 C558 0.950 . S
H582 C560 0.950 . S
C583 C584 1.443 . S
C583 N587 1.376 . S
C583 C621 1.389 1_556 S
C584 C583 1.443 . S
C584 C585 1.340 . S
C584 H624 0.951 . S
C585 C584 1.340 . S
C585 C586 1.439 . S
C585 H625 0.950 . S
C586 C585 1.439 . S
C586 N587 1.374 . S
C586 C620 1.395 . S
N587 C583 1.376 . S
N587 C586 1.374 . S
N587 Co588 2.008 1_556 S
Co588 N587 2.008 1_554 S
Co588 N589 1.995 . S
Co588 N594 2.008 . S
Co588 N599 1.995 . S
Co588 N604 2.282 . S
Co588 N610 2.282 . S
N589 Co588 1.995 . S
N589 C590 1.376 1_554 S
N589 C593 1.383 . S
C590 N589 1.376 1_556 S
C590 C591 1.446 . S
C590 C620 1.391 . S
C591 C590 1.446 . S
C591 C592 1.339 . S
C591 H626 0.949 . S
C592 C591 1.339 . S
C592 C593 1.439 1_556 S
C592 H627 0.950 . S
C593 N589 1.383 . S
C593 C592 1.439 1_554 S
C593 C622 1.392 . S
N594 Co588 2.008 . S
N594 C595 1.376 . S
N594 C598 1.374 . S
C595 N594 1.376 . S
C595 C596 1.443 . S
C595 C622 1.389 . S
C596 C595 1.443 . S
C596 C597 1.340 . S
C596 H628 0.951 . S
C597 C596 1.340 . S
C597 C598 1.439 . S
C597 H629 0.950 . S
C598 N594 1.374 . S
C598 C597 1.439 . S
C598 C623 1.395 . S
N599 Co588 1.995 . S
N599 C600 1.376 . S
N599 C603 1.383 . S
C600 N599 1.376 . S
C600 C601 1.446 . S
C600 C623 1.391 . S
C601 C600 1.446 . S
C601 C602 1.339 . S
C601 H630 0.949 . S
C602 C601 1.339 . S
C602 C603 1.439 . S
C602 H631 0.950 . S
C603 N599 1.383 . S
C603 C602 1.439 . S
C603 C621 1.392 . S
N604 Co588 2.282 . S
N604 C607 1.332 . S
N604 C609 1.332 . S
C605 C606 1.386 . S
C605 C608 1.388 . S
C606 C605 1.386 . S
C606 C607 1.382 . S
C606 H632 0.950 . S
C607 N604 1.332 . S
C607 C606 1.382 . S
C607 H618 0.952 . S
C608 C605 1.388 . S
C608 C609 1.382 . S
C608 H633 0.959 . S
C609 N604 1.332 . S
C609 C608 1.382 . S
C609 H619 0.948 1_554 S
N610 Co588 2.282 . S
N610 C614 1.332 1_554 S
N610 C615 1.332 . S
C611 C612 1.388 . S
C611 C615 1.382 . S
C611 H634 0.950 . S
C612 C611 1.388 . S
C612 C613 1.386 1_554 S
C613 C612 1.386 1_556 S
C613 C614 1.382 . S
C613 H635 0.950 . S
C614 N610 1.332 1_556 S
C614 C613 1.382 . S
C614 H616 0.952 . S
C615 N610 1.332 . S
C615 C611 1.382 . S
C615 H617 0.948 . S
H616 C614 0.952 . S
H617 C615 0.948 . S
H618 C607 0.952 . S
H619 C609 0.948 1_556 S
C620 C586 1.395 . S
C620 C590 1.391 . S
C621 C583 1.389 1_554 S
C621 C603 1.392 . S
C622 C593 1.392 . S
C622 C595 1.389 . S
C623 C598 1.395 . S
C623 C600 1.391 . S
H624 C584 0.951 . S
H625 C585 0.950 . S
H626 C591 0.949 . S
H627 C592 0.950 . S
H628 C596 0.951 . S
H629 C597 0.950 . S
H630 C601 0.949 . S
H631 C602 0.950 . S
H632 C606 0.950 . S
H633 C608 0.959 . S
H634 C611 0.950 . S
H635 C613 0.950 . S
O636 Mg637 1.990 . S
O636 C650 1.253 . S
Mg637 O636 1.990 . S
Mg637 O640 2.180 . S
Mg637 O641 2.117 . S
Mg637 O655 2.030 . S
O638 Mg639 2.072 . S
O638 C650 1.260 . S
Mg639 O638 2.072 . S
Mg639 O640 2.099 . S
Mg639 O642 2.079 . S
Mg639 O643 2.072 . S
Mg639 O645 2.099 . S
Mg639 O656 2.079 . S
O640 Mg637 2.180 . S
O640 Mg639 2.099 . S
O640 C651 1.279 . S
O641 Mg637 2.117 . S
O641 C651 1.250 . S
O642 Mg639 2.079 . S
O642 C652 1.264 1_554 S
O643 Mg639 2.072 . S
O643 C653 1.260 . S
Mg644 O645 2.192 . S
Mg644 O646 2.019 1_554 S
Mg644 O647 2.017 . S
Mg644 O648 2.128 1_455 S
O645 Mg639 2.099 . S
O645 Mg644 2.192 . S
O645 C654 1.279 . S
O646 Mg644 2.019 1_556 S
O646 C652 1.248 . S
O647 Mg644 2.017 . S
O647 C653 1.253 . S
O648 Mg644 2.128 1_655 S
O648 C654 1.250 1_655 S
C649 O655 1.248 . S
C649 O656 1.264 . S
C650 O636 1.253 . S
C650 O638 1.260 . S
C651 O640 1.279 . S
C651 O641 1.250 . S
C652 O642 1.264 1_556 S
C652 O646 1.248 . S
C653 O643 1.260 . S
C653 O647 1.253 . S
C654 O645 1.279 . S
C654 O648 1.250 1_455 S
O655 Mg637 2.030 . S
O655 C649 1.248 . S
O656 Mg639 2.079 . S
O656 C649 1.264 . S
O657 Mg658 1.990 . S
O657 C671 1.253 . S
Mg658 O657 1.990 . S
Mg658 O661 2.180 . S
Mg658 O662 2.117 . S
Mg658 O676 2.030 . S
O659 Mg660 2.072 . S
O659 C671 1.260 . S
Mg660 O659 2.072 . S
Mg660 O661 2.099 . S
Mg660 O663 2.079 . S
Mg660 O664 2.072 . S
Mg660 O666 2.099 . S
Mg660 O677 2.079 . S
O661 Mg658 2.180 . S
O661 Mg660 2.099 . S
O661 C672 1.279 . S
O662 Mg658 2.117 . S
O662 C672 1.250 . S
O663 Mg660 2.079 . S
O663 C673 1.264 1_554 S
O664 Mg660 2.072 . S
O664 C674 1.260 . S
Mg665 O666 2.180 1_556 S
Mg665 O667 2.030 . S
Mg665 O668 1.990 1_556 S
Mg665 O669 2.117 1_656 S
O666 Mg660 2.099 . S
O666 Mg665 2.180 1_554 S
O666 C675 1.279 1_655 S
O667 Mg665 2.030 . S
O667 C673 1.248 . S
O668 Mg665 1.990 1_554 S
O668 C674 1.253 . S
O669 Mg665 2.117 1_454 S
O669 C675 1.250 . S
C670 O676 1.248 . S
C670 O677 1.264 . S
C671 O657 1.253 . S
C671 O659 1.260 . S
C672 O661 1.279 . S
C672 O662 1.250 . S
C673 O663 1.264 1_556 S
C673 O667 1.248 . S
C674 O664 1.260 . S
C674 O668 1.253 . S
C675 O666 1.279 1_455 S
C675 O669 1.250 . S
O676 Mg658 2.030 . S
O676 C670 1.248 . S
O677 Mg660 2.079 . S
O677 C670 1.264 . S
O678 Mg679 1.990 . S
O678 C692 1.253 . S
Mg679 O678 1.990 . S
Mg679 O682 2.180 . S
Mg679 O683 2.117 . S
Mg679 O697 2.030 . S
O680 Mg681 2.072 . S
O680 C692 1.260 . S
Mg681 O680 2.072 . S
Mg681 O682 2.099 . S
Mg681 O684 2.077 . S
Mg681 O685 2.072 . S
Mg681 O687 2.099 . S
Mg681 O698 2.079 . S
O682 Mg679 2.180 . S
O682 Mg681 2.099 . S
O682 C693 1.279 . S
O683 Mg679 2.117 . S
O683 C693 1.250 . S
O684 Mg681 2.077 . S
O684 C694 1.265 1_455 S
O685 Mg681 2.072 . S
O685 C695 1.260 . S
Mg686 O687 2.177 1_655 S
Mg686 O688 2.032 . S
Mg686 O689 1.983 1_655 S
Mg686 O690 2.115 1_665 S
O687 Mg681 2.099 . S
O687 Mg686 2.177 1_455 S
O687 C696 1.279 . S
O688 Mg686 2.032 . S
O688 C694 1.248 . S
O689 Mg686 1.983 1_455 S
O689 C695 1.253 . S
O690 Mg686 2.115 1_445 S
O690 C696 1.250 1_545 S
C691 O697 1.248 . S
C691 O698 1.264 . S
C692 O678 1.253 . S
C692 O680 1.260 . S
C693 O682 1.279 . S
C693 O683 1.250 . S
C694 O684 1.265 1_655 S
C694 O688 1.248 . S
C695 O685 1.260 . S
C695 O689 1.253 . S
C696 O687 1.279 . S
C696 O690 1.250 1_565 S
O697 Mg679 2.030 . S
O697 C691 1.248 . S
O698 Mg681 2.079 . S
O698 C691 1.264 . S
O699 Mg700 1.990 . S
O699 C713 1.253 . S
Mg700 O699 1.990 . S
Mg700 O703 2.180 . S
Mg700 O704 2.117 . S
Mg700 O718 2.030 . S
O701 Mg702 2.072 . S
O701 C713 1.260 . S
Mg702 O701 2.072 . S
Mg702 O703 2.099 . S
Mg702 O705 2.079 . S
Mg702 O706 2.072 . S
Mg702 O708 2.099 . S
Mg702 O719 2.079 . S
O703 Mg700 2.180 . S
O703 Mg702 2.099 . S
O703 C714 1.279 . S
O704 Mg700 2.117 . S
O704 C714 1.250 . S
O705 Mg702 2.079 . S
O705 C715 1.264 . S
O706 Mg702 2.072 . S
O706 C716 1.260 . S
Mg707 O708 2.180 . S
Mg707 O709 2.030 . S
Mg707 O710 1.990 . S
Mg707 O711 2.117 . S
O708 Mg702 2.099 . S
O708 Mg707 2.180 . S
O708 C717 1.279 . S
O709 Mg707 2.030 . S
O709 C715 1.248 . S
O710 Mg707 1.990 . S
O710 C716 1.253 . S
O711 Mg707 2.117 . S
O711 C717 1.250 . S
C712 O718 1.248 . S
C712 O719 1.264 . S
C713 O699 1.253 . S
C713 O701 1.260 . S
C714 O703 1.279 . S
C714 O704 1.250 . S
C715 O705 1.264 . S
C715 O709 1.248 . S
C716 O706 1.260 . S
C716 O710 1.253 . S
C717 O708 1.279 . S
C717 O711 1.250 . S
O718 Mg700 2.030 . S
O718 C712 1.248 . S
O719 Mg702 2.079 . S
O719 C712 1.264 . S
O720 Mg721 1.990 . S
O720 C734 1.253 . S
Mg721 O720 1.990 . S
Mg721 O724 2.180 . S
Mg721 O725 2.117 . S
Mg721 O739 2.030 . S
O722 Mg723 2.072 . S
O722 C734 1.260 . S
Mg723 O722 2.072 . S
Mg723 O724 2.099 . S
Mg723 O726 2.079 . S
Mg723 O727 2.072 . S
Mg723 O729 2.099 . S
Mg723 O740 2.079 . S
O724 Mg721 2.180 . S
O724 Mg723 2.099 . S
O724 C735 1.279 . S
O725 Mg721 2.117 . S
O725 C735 1.250 . S
O726 Mg723 2.079 . S
O726 C736 1.264 . S
O727 Mg723 2.072 . S
O727 C737 1.260 . S
Mg728 O729 2.180 . S
Mg728 O730 2.030 . S
Mg728 O731 1.990 . S
Mg728 O732 2.117 . S
O729 Mg723 2.099 . S
O729 Mg728 2.180 . S
O729 C738 1.279 . S
O730 Mg728 2.030 . S
O730 C736 1.248 . S
O731 Mg728 1.990 . S
O731 C737 1.253 . S
O732 Mg728 2.117 . S
O732 C738 1.250 . S
C733 O739 1.248 . S
C733 O740 1.264 . S
C734 O720 1.253 . S
C734 O722 1.260 . S
C735 O724 1.279 . S
C735 O725 1.250 . S
C736 O726 1.264 . S
C736 O730 1.248 . S
C737 O727 1.260 . S
C737 O731 1.253 . S
C738 O729 1.279 . S
C738 O732 1.250 . S
O739 Mg721 2.030 . S
O739 C733 1.248 . S
O740 Mg723 2.079 . S
O740 C733 1.264 . S
O741 Mg742 1.990 . S
O741 C755 1.253 . S
Mg742 O741 1.990 . S
Mg742 O745 2.180 . S
Mg742 O746 2.117 . S
Mg742 O760 2.030 . S
O743 Mg744 2.072 . S
O743 C755 1.260 . S
Mg744 O743 2.072 . S
Mg744 O745 2.099 . S
Mg744 O747 2.079 . S
Mg744 O748 2.072 . S
Mg744 O750 2.099 . S
Mg744 O761 2.079 . S
O745 Mg742 2.180 . S
O745 Mg744 2.099 . S
O745 C756 1.279 . S
O746 Mg742 2.117 . S
O746 C756 1.250 . S
O747 Mg744 2.079 . S
O747 C757 1.264 . S
O748 Mg744 2.072 . S
O748 C758 1.260 . S
Mg749 O750 2.180 . S
Mg749 O751 2.030 . S
Mg749 O752 1.990 . S
Mg749 O753 2.117 . S
O750 Mg744 2.099 . S
O750 Mg749 2.180 . S
O750 C759 1.279 . S
O751 Mg749 2.030 . S
O751 C757 1.248 . S
O752 Mg749 1.990 . S
O752 C758 1.253 . S
O753 Mg749 2.117 . S
O753 C759 1.250 . S
C754 O760 1.248 . S
C754 O761 1.264 . S
C755 O741 1.253 . S
C755 O743 1.260 . S
C756 O745 1.279 . S
C756 O746 1.250 . S
C757 O747 1.264 . S
C757 O751 1.248 . S
C758 O748 1.260 . S
C758 O752 1.253 . S
C759 O750 1.279 . S
C759 O753 1.250 . S
O760 Mg742 2.030 . S
O760 C754 1.248 . S
O761 Mg744 2.079 . S
O761 C754 1.264 . S
O762 Mg763 1.990 . S
O762 C776 1.253 . S
Mg763 O762 1.990 . S
Mg763 O766 2.180 . S
Mg763 O767 2.117 . S
Mg763 O781 2.030 . S
O764 Mg765 2.072 . S
O764 C776 1.260 . S
Mg765 O764 2.072 . S
Mg765 O766 2.099 . S
Mg765 O768 2.079 . S
Mg765 O769 2.072 . S
Mg765 O771 2.099 . S
Mg765 O782 2.079 . S
O766 Mg763 2.180 . S
O766 Mg765 2.099 . S
O766 C777 1.279 . S
O767 Mg763 2.117 . S
O767 C777 1.250 . S
O768 Mg765 2.079 . S
O768 C778 1.264 . S
O769 Mg765 2.072 . S
O769 C779 1.260 1_556 S
Mg770 O771 2.180 . S
Mg770 O772 2.020 1_556 S
Mg770 O773 1.990 1_556 S
Mg770 O774 2.117 . S
O771 Mg765 2.099 . S
O771 Mg770 2.180 . S
O771 C780 1.279 . S
O772 Mg770 2.020 1_554 S
O772 C778 1.234 1_554 S
O773 Mg770 1.990 1_554 S
O773 C779 1.253 . S
O774 Mg770 2.117 . S
O774 C780 1.250 . S
C775 O781 1.248 . S
C775 O782 1.264 . S
C776 O762 1.253 . S
C776 O764 1.260 . S
C777 O766 1.279 . S
C777 O767 1.250 . S
C778 O768 1.264 . S
C778 O772 1.234 1_556 S
C779 O769 1.260 1_554 S
C779 O773 1.253 . S
C780 O771 1.279 . S
C780 O774 1.250 . S
O781 Mg763 2.030 . S
O781 C775 1.248 . S
O782 Mg765 2.079 . S
O782 C775 1.264 . S
O783 Mg784 1.990 . S
O783 C797 1.253 . S
Mg784 O783 1.990 . S
Mg784 O787 2.180 . S
Mg784 O788 2.117 . S
Mg784 O802 2.030 . S
O785 Mg786 2.072 . S
O785 C797 1.260 . S
Mg786 O785 2.072 . S
Mg786 O787 2.099 . S
Mg786 O789 2.079 . S
Mg786 O790 2.072 . S
Mg786 O792 2.099 . S
Mg786 O803 2.079 . S
O787 Mg784 2.180 . S
O787 Mg786 2.099 . S
O787 C798 1.279 . S
O788 Mg784 2.117 . S
O788 C798 1.250 . S
O789 Mg786 2.079 . S
O789 C799 1.264 . S
O790 Mg786 2.072 . S
O790 C800 1.260 . S
Mg791 O792 2.180 . S
Mg791 O793 2.030 . S
Mg791 O794 1.990 . S
Mg791 O795 2.117 1_556 S
O792 Mg786 2.099 . S
O792 Mg791 2.180 . S
O792 C801 1.279 . S
O793 Mg791 2.030 . S
O793 C799 1.248 . S
O794 Mg791 1.990 . S
O794 C800 1.253 . S
O795 Mg791 2.117 1_554 S
O795 C801 1.250 1_554 S
C796 O802 1.248 . S
C796 O803 1.264 . S
C797 O783 1.253 . S
C797 O785 1.260 . S
C798 O787 1.279 . S
C798 O788 1.250 . S
C799 O789 1.264 . S
C799 O793 1.248 . S
C800 O790 1.260 . S
C800 O794 1.253 . S
C801 O792 1.279 . S
C801 O795 1.250 1_556 S
O802 Mg784 2.030 . S
O802 C796 1.248 . S
O803 Mg786 2.079 . S
O803 C796 1.264 . S
H804 C816 0.930 . S
H805 C818 0.930 . S
H806 C819 0.930 . S
H807 C823 0.959 . S
H808 C823 0.959 . S
H809 C823 0.961 . S
H810 C824 0.960 . S
H811 C824 0.961 . S
H812 C824 0.959 1_655 S
H813 C827 0.929 . S
H814 C828 0.931 . S
H815 C830 0.930 . S
C816 H804 0.930 . S
C816 C817 1.399 . S
C816 C821 1.399 . S
C817 C816 1.399 . S
C817 C818 1.376 . S
C818 H805 0.930 . S
C818 C817 1.376 . S
C818 C819 1.388 . S
C819 H806 0.930 . S
C819 C818 1.388 . S
C819 C820 1.390 . S
C820 C819 1.390 . S
C820 C821 1.394 . S
C820 C826 1.465 . S
C821 C816 1.399 . S
C821 C820 1.394 . S
C821 C822 1.516 . S
C822 C821 1.516 . S
C822 C823 1.502 . S
C822 C824 1.561 . S
C822 C825 1.526 . S
C823 H807 0.959 . S
C823 H808 0.959 . S
C823 H809 0.961 . S
C823 C822 1.502 . S
C824 H810 0.960 . S
C824 H811 0.961 . S
C824 H812 0.959 1_455 S
C824 C822 1.561 . S
C825 C822 1.526 . S
C825 C826 1.396 . S
C825 C830 1.390 . S
C826 C820 1.465 . S
C826 C825 1.396 . S
C826 C827 1.399 . S
C827 H813 0.929 . S
C827 C826 1.399 . S
C827 C828 1.385 . S
C828 H814 0.931 . S
C828 C827 1.385 . S
C828 C829 1.389 . S
C829 C828 1.389 . S
C829 C830 1.387 . S
C830 H815 0.930 . S
C830 C825 1.390 . S
C830 C829 1.387 . S
H831 C843 0.930 . S
H832 C845 0.930 . S
H833 C846 0.930 . S
H834 C850 0.959 . S
H835 C850 0.959 . S
H836 C850 0.961 . S
H837 C851 0.960 . S
H838 C851 0.961 . S
H839 C851 0.959 . S
H840 C854 0.929 . S
H841 C855 0.931 . S
H842 C857 0.930 . S
C843 H831 0.930 . S
C843 C844 1.399 1_655 S
C843 C848 1.399 . S
C844 C843 1.399 1_455 S
C844 C845 1.376 . S
C845 H832 0.930 . S
C845 C844 1.376 . S
C845 C846 1.388 . S
C846 H833 0.930 . S
C846 C845 1.388 . S
C846 C847 1.390 . S
C847 C846 1.390 . S
C847 C848 1.394 1_455 S
C847 C853 1.465 . S
C848 C843 1.399 . S
C848 C847 1.394 1_655 S
C848 C849 1.516 . S
C849 C848 1.516 . S
C849 C850 1.502 . S
C849 C851 1.561 . S
C849 C852 1.526 . S
C850 H834 0.959 . S
C850 H835 0.959 . S
C850 H836 0.961 . S
C850 C849 1.502 . S
C851 H837 0.960 . S
C851 H838 0.961 . S
C851 H839 0.959 . S
C851 C849 1.561 . S
C852 C849 1.526 . S
C852 C853 1.396 1_655 S
C852 C857 1.390 . S
C853 C847 1.465 . S
C853 C852 1.396 1_455 S
C853 C854 1.399 . S
C854 H840 0.929 . S
C854 C853 1.399 . S
C854 C855 1.385 . S
C855 H841 0.931 . S
C855 C854 1.385 . S
C855 C856 1.389 1_455 S
C856 C855 1.389 1_655 S
C856 C857 1.387 . S
C857 H842 0.930 . S
C857 C852 1.390 . S
C857 C856 1.387 . S
H858 C870 0.930 . S
H859 C872 0.930 . S
H860 C873 0.930 . S
H861 C877 0.959 . S
H862 C877 0.959 . S
H863 C877 0.961 . S
H864 C878 0.960 . S
H865 C878 0.961 . S
H866 C878 0.959 . S
H867 C881 0.929 . S
H868 C882 0.931 . S
H869 C884 0.930 . S
C870 H858 0.930 . S
C870 C871 1.399 . S
C870 C875 1.399 . S
C871 C870 1.399 . S
C871 C872 1.376 . S
C872 H859 0.930 . S
C872 C871 1.376 . S
C872 C873 1.388 . S
C873 H860 0.930 . S
C873 C872 1.388 . S
C873 C874 1.390 . S
C874 C873 1.390 . S
C874 C875 1.394 . S
C874 C880 1.465 . S
C875 C870 1.399 . S
C875 C874 1.394 . S
C875 C876 1.516 . S
C876 C875 1.516 . S
C876 C877 1.502 . S
C876 C878 1.561 . S
C876 C879 1.526 . S
C877 H861 0.959 . S
C877 H862 0.959 . S
C877 H863 0.961 . S
C877 C876 1.502 . S
C878 H864 0.960 . S
C878 H865 0.961 . S
C878 H866 0.959 . S
C878 C876 1.561 . S
C879 C876 1.526 . S
C879 C880 1.396 . S
C879 C884 1.390 . S
C880 C874 1.465 . S
C880 C879 1.396 . S
C880 C881 1.399 . S
C881 H867 0.929 . S
C881 C880 1.399 . S
C881 C882 1.385 . S
C882 H868 0.931 . S
C882 C881 1.385 . S
C882 C883 1.389 . S
C883 C882 1.389 . S
C883 C884 1.387 . S
C884 H869 0.930 . S
C884 C879 1.390 . S
C884 C883 1.387 . S
H885 C897 0.930 . S
H886 C899 0.930 . S
H887 C900 0.930 . S
H888 C904 0.959 . S
H889 C904 0.959 . S
H890 C904 0.961 . S
H891 C905 0.960 . S
H892 C905 0.961 . S
H893 C905 0.959 . S
H894 C908 0.929 . S
H895 C909 0.931 . S
H896 C911 0.930 . S
C897 H885 0.930 . S
C897 C898 1.399 1_655 S
C897 C902 1.399 . S
C898 C897 1.399 1_455 S
C898 C899 1.376 . S
C899 H886 0.930 . S
C899 C898 1.376 . S
C899 C900 1.388 . S
C900 H887 0.930 . S
C900 C899 1.388 . S
C900 C901 1.390 1_455 S
C901 C900 1.390 1_655 S
C901 C902 1.394 . S
C901 C907 1.465 . S
C902 C897 1.399 . S
C902 C901 1.394 . S
C902 C903 1.516 . S
C903 C902 1.516 . S
C903 C904 1.502 . S
C903 C905 1.561 1_655 S
C903 C906 1.526 . S
C904 H888 0.959 . S
C904 H889 0.959 . S
C904 H890 0.961 . S
C904 C903 1.502 . S
C905 H891 0.960 . S
C905 H892 0.961 . S
C905 H893 0.959 . S
C905 C903 1.561 1_455 S
C906 C903 1.526 . S
C906 C907 1.396 . S
C906 C911 1.390 . S
C907 C901 1.465 . S
C907 C906 1.396 . S
C907 C908 1.399 . S
C908 H894 0.929 . S
C908 C907 1.399 . S
C908 C909 1.385 . S
C909 H895 0.931 . S
C909 C908 1.385 . S
C909 C910 1.389 . S
C910 C909 1.389 . S
C910 C911 1.387 . S
C911 H896 0.930 . S
C911 C906 1.390 . S
C911 C910 1.387 . S
H912 C924 0.930 . S
H913 C926 0.930 1_565 S
H914 C927 0.930 1_565 S
H915 C931 0.959 . S
H916 C931 0.959 . S
H917 C931 0.961 . S
H918 C932 0.960 . S
H919 C932 0.961 . S
H920 C932 0.959 . S
H921 C935 0.929 1_565 S
H922 C936 0.931 . S
H923 C938 0.930 . S
C924 H912 0.930 . S
C924 C925 1.399 . S
C924 C929 1.399 . S
C925 C924 1.399 . S
C925 C926 1.376 . S
C926 H913 0.930 1_545 S
C926 C925 1.376 . S
C926 C927 1.388 . S
C927 H914 0.930 1_545 S
C927 C926 1.388 . S
C927 C928 1.390 . S
C928 C927 1.390 . S
C928 C929 1.394 . S
C928 C934 1.465 . S
C929 C924 1.399 . S
C929 C928 1.394 . S
C929 C930 1.516 . S
C930 C929 1.516 . S
C930 C931 1.502 . S
C930 C932 1.561 . S
C930 C933 1.526 . S
C931 H915 0.959 . S
C931 H916 0.959 . S
C931 H917 0.961 . S
C931 C930 1.502 . S
C932 H918 0.960 . S
C932 H919 0.961 . S
C932 H920 0.959 . S
C932 C930 1.561 . S
C933 C930 1.526 . S
C933 C934 1.396 . S
C933 C938 1.390 . S
C934 C928 1.465 . S
C934 C933 1.396 . S
C934 C935 1.399 . S
C935 H921 0.929 1_545 S
C935 C934 1.399 . S
C935 C936 1.385 . S
C936 H922 0.931 . S
C936 C935 1.385 . S
C936 C937 1.389 . S
C937 C936 1.389 . S
C937 C938 1.387 . S
C938 H923 0.930 . S
C938 C933 1.390 . S
C938 C937 1.387 . S
H939 C951 0.930 . S
H940 C953 0.930 . S
H941 C954 0.930 . S
H942 C958 0.959 . S
H943 C958 0.959 . S
H944 C958 0.961 . S
H945 C959 0.960 . S
H946 C959 0.961 . S
H947 C959 0.959 . S
H948 C962 0.929 . S
H949 C963 0.931 . S
H950 C965 0.930 . S
C951 H939 0.930 . S
C951 C952 1.399 . S
C951 C956 1.399 . S
C952 C951 1.399 . S
C952 C953 1.376 . S
C953 H940 0.930 . S
C953 C952 1.376 . S
C953 C954 1.388 . S
C954 H941 0.930 . S
C954 C953 1.388 . S
C954 C955 1.390 . S
C955 C954 1.390 . S
C955 C956 1.394 . S
C955 C961 1.465 . S
C956 C951 1.399 . S
C956 C955 1.394 . S
C956 C957 1.516 . S
C957 C956 1.516 . S
C957 C958 1.502 . S
C957 C959 1.561 . S
C957 C960 1.526 . S
C958 H942 0.959 . S
C958 H943 0.959 . S
C958 H944 0.961 . S
C958 C957 1.502 . S
C959 H945 0.960 . S
C959 H946 0.961 . S
C959 H947 0.959 . S
C959 C957 1.561 . S
C960 C957 1.526 . S
C960 C961 1.396 . S
C960 C965 1.390 . S
C961 C955 1.465 . S
C961 C960 1.396 . S
C961 C962 1.399 . S
C962 H948 0.929 . S
C962 C961 1.399 . S
C962 C963 1.385 . S
C963 H949 0.931 . S
C963 C962 1.385 . S
C963 C964 1.389 . S
C964 C963 1.389 . S
C964 C965 1.387 . S
C965 H950 0.930 . S
C965 C960 1.390 . S
C965 C964 1.387 . S
H966 C978 0.930 . S
H967 C980 0.930 . S
H968 C981 0.930 . S
H969 C985 0.959 . S
H970 C985 0.959 . S
H971 C985 0.961 . S
H972 C986 0.960 . S
H973 C986 0.961 . S
H974 C986 0.959 . S
H975 C989 0.929 . S
H976 C990 0.931 . S
H977 C992 0.930 . S
C978 H966 0.930 . S
C978 C979 1.399 . S
C978 C983 1.399 . S
C979 C978 1.399 . S
C979 C980 1.376 1_565 S
C980 H967 0.930 . S
C980 C979 1.376 1_545 S
C980 C981 1.388 . S
C981 H968 0.930 . S
C981 C980 1.388 . S
C981 C982 1.402 . S
C982 C981 1.402 . S
C982 C983 1.381 1_545 S
C982 C988 1.463 1_545 S
C983 C978 1.399 . S
C983 C982 1.381 1_565 S
C983 C984 1.516 . S
C984 C983 1.516 . S
C984 C985 1.502 . S
C984 C986 1.561 . S
C984 C987 1.526 . S
C985 H969 0.959 . S
C985 H970 0.959 . S
C985 H971 0.961 . S
C985 C984 1.502 . S
C986 H972 0.960 . S
C986 H973 0.961 . S
C986 H974 0.959 . S
C986 C984 1.561 . S
C987 C984 1.526 . S
C987 C988 1.396 . S
C987 C992 1.390 . S
C988 C982 1.463 1_565 S
C988 C987 1.396 . S
C988 C989 1.399 1_565 S
C989 H975 0.929 . S
C989 C988 1.399 1_545 S
C989 C990 1.385 . S
C990 H976 0.931 . S
C990 C989 1.385 . S
C990 C991 1.389 1_545 S
C991 C990 1.389 1_565 S
C991 C992 1.387 . S
C992 H977 0.930 . S
C992 C987 1.390 . S
C992 C991 1.387 . S
H993 C1005 0.930 . S
H994 C1007 0.930 . S
H995 C1008 0.930 . S
H996 C1012 0.959 . S
H997 C1012 0.959 . S
H998 C1012 0.961 . S
H999 C1013 0.960 . S
H1000 C1013 0.961 . S
H1001 C1013 0.959 . S
H1002 C1016 0.929 . S
H1003 C1017 0.931 . S
H1004 C1019 0.930 . S
C1005 H993 0.930 . S
C1005 C1006 1.399 . S
C1005 C1010 1.399 . S
C1006 C1005 1.399 . S
C1006 C1007 1.376 . S
C1007 H994 0.930 . S
C1007 C1006 1.376 . S
C1007 C1008 1.388 . S
C1008 H995 0.930 . S
C1008 C1007 1.388 . S
C1008 C1009 1.390 . S
C1009 C1008 1.390 . S
C1009 C1010 1.394 . S
C1009 C1015 1.465 . S
C1010 C1005 1.399 . S
C1010 C1009 1.394 . S
C1010 C1011 1.516 . S
C1011 C1010 1.516 . S
C1011 C1012 1.502 . S
C1011 C1013 1.561 . S
C1011 C1014 1.526 . S
C1012 H996 0.959 . S
C1012 H997 0.959 . S
C1012 H998 0.961 . S
C1012 C1011 1.502 . S
C1013 H999 0.960 . S
C1013 H1000 0.961 . S
C1013 H1001 0.959 . S
C1013 C1011 1.561 . S
C1014 C1011 1.526 . S
C1014 C1015 1.396 . S
C1014 C1019 1.390 . S
C1015 C1009 1.465 . S
C1015 C1014 1.396 . S
C1015 C1016 1.399 . S
C1016 H1002 0.929 . S
C1016 C1015 1.399 . S
C1016 C1017 1.385 . S
C1017 H1003 0.931 . S
C1017 C1016 1.385 . S
C1017 C1018 1.389 . S
C1018 C1017 1.389 . S
C1018 C1019 1.387 . S
C1019 H1004 0.930 . S
C1019 C1014 1.390 . S
C1019 C1018 1.387 . S
H1020 C1032 0.930 . S
H1021 C1034 0.930 1_556 S
H1022 C1035 0.930 1_556 S
H1023 C1039 0.959 . S
H1024 C1039 0.959 . S
H1025 C1039 0.961 . S
H1026 C1040 0.960 . S
H1027 C1040 0.961 . S
H1028 C1040 0.959 . S
H1029 C1043 0.929 . S
H1030 C1044 0.931 . S
H1031 C1046 0.930 . S
C1032 H1020 0.930 . S
C1032 C1033 1.399 . S
C1032 C1037 1.399 . S
C1033 C1032 1.399 . S
C1033 C1034 1.376 . S
C1034 H1021 0.930 1_554 S
C1034 C1033 1.376 . S
C1034 C1035 1.388 . S
C1035 H1022 0.930 1_554 S
C1035 C1034 1.388 . S
C1035 C1036 1.390 . S
C1036 C1035 1.390 . S
C1036 C1037 1.394 . S
C1036 C1042 1.465 . S
C1037 C1032 1.399 . S
C1037 C1036 1.394 . S
C1037 C1038 1.516 . S
C1038 C1037 1.516 . S
C1038 C1039 1.502 . S
C1038 C1040 1.561 . S
C1038 C1041 1.526 . S
C1039 H1023 0.959 . S
C1039 H1024 0.959 . S
C1039 H1025 0.961 . S
C1039 C1038 1.502 . S
C1040 H1026 0.960 . S
C1040 H1027 0.961 . S
C1040 H1028 0.959 . S
C1040 C1038 1.561 . S
C1041 C1038 1.526 . S
C1041 C1042 1.396 . S
C1041 C1046 1.390 . S
C1042 C1036 1.465 . S
C1042 C1041 1.396 . S
C1042 C1043 1.399 1_554 S
C1043 H1029 0.929 . S
C1043 C1042 1.399 1_556 S
C1043 C1044 1.385 . S
C1044 H1030 0.931 . S
C1044 C1043 1.385 . S
C1044 C1045 1.389 1_556 S
C1045 C1044 1.389 1_554 S
C1045 C1046 1.387 . S
C1046 H1031 0.930 . S
C1046 C1041 1.390 . S
C1046 C1045 1.387 . S
H1047 C1059 0.930 . S
H1048 C1061 0.930 . S
H1049 C1062 0.930 . S
H1050 C1066 0.959 . S
H1051 C1066 0.959 . S
H1052 C1066 0.961 . S
H1053 C1067 0.960 . S
H1054 C1067 0.961 . S
H1055 C1067 0.959 . S
H1056 C1070 0.929 . S
H1057 C1071 0.931 . S
H1058 C1073 0.930 . S
C1059 H1047 0.930 . S
C1059 C1060 1.399 . S
C1059 C1064 1.399 . S
C1060 C1059 1.399 . S
C1060 C1061 1.376 . S
C1061 H1048 0.930 . S
C1061 C1060 1.376 . S
C1061 C1062 1.388 . S
C1062 H1049 0.930 . S
C1062 C1061 1.388 . S
C1062 C1063 1.390 . S
C1063 C1062 1.390 . S
C1063 C1064 1.394 . S
C1063 C1069 1.465 . S
C1064 C1059 1.399 . S
C1064 C1063 1.394 . S
C1064 C1065 1.516 . S
C1065 C1064 1.516 . S
C1065 C1066 1.502 . S
C1065 C1067 1.561 . S
C1065 C1068 1.526 . S
C1066 H1050 0.959 . S
C1066 H1051 0.959 . S
C1066 H1052 0.961 . S
C1066 C1065 1.502 . S
C1067 H1053 0.960 . S
C1067 H1054 0.961 . S
C1067 H1055 0.959 . S
C1067 C1065 1.561 . S
C1068 C1065 1.526 . S
C1068 C1069 1.396 . S
C1068 C1073 1.390 . S
C1069 C1063 1.465 . S
C1069 C1068 1.396 . S
C1069 C1070 1.399 . S
C1070 H1056 0.929 . S
C1070 C1069 1.399 . S
C1070 C1071 1.385 . S
C1071 H1057 0.931 . S
C1071 C1070 1.385 . S
C1071 C1072 1.389 . S
C1072 C1071 1.389 . S
C1072 C1073 1.387 . S
C1073 H1058 0.930 . S
C1073 C1068 1.390 . S
C1073 C1072 1.387 . S
H1074 C1086 0.930 . S
H1075 C1088 0.930 . S
H1076 C1089 0.930 . S
H1077 C1093 0.959 . S
H1078 C1093 0.959 . S
H1079 C1093 0.961 . S
H1080 C1094 0.960 . S
H1081 C1094 0.961 . S
H1082 C1094 0.959 . S
H1083 C1097 0.929 . S
H1084 C1098 0.931 . S
H1085 C1100 0.930 . S
C1086 H1074 0.930 . S
C1086 C1087 1.399 . S
C1086 C1091 1.399 . S
C1087 C1086 1.399 . S
C1087 C1088 1.376 . S
C1088 H1075 0.930 . S
C1088 C1087 1.376 . S
C1088 C1089 1.388 . S
C1089 H1076 0.930 . S
C1089 C1088 1.388 . S
C1089 C1090 1.390 . S
C1090 C1089 1.390 . S
C1090 C1091 1.394 . S
C1090 C1096 1.465 . S
C1091 C1086 1.399 . S
C1091 C1090 1.394 . S
C1091 C1092 1.516 . S
C1092 C1091 1.516 . S
C1092 C1093 1.502 . S
C1092 C1094 1.561 . S
C1092 C1095 1.526 . S
C1093 H1077 0.959 . S
C1093 H1078 0.959 . S
C1093 H1079 0.961 . S
C1093 C1092 1.502 . S
C1094 H1080 0.960 . S
C1094 H1081 0.961 . S
C1094 H1082 0.959 . S
C1094 C1092 1.561 . S
C1095 C1092 1.526 . S
C1095 C1096 1.396 . S
C1095 C1100 1.390 . S
C1096 C1090 1.465 . S
C1096 C1095 1.396 . S
C1096 C1097 1.399 . S
C1097 H1083 0.929 . S
C1097 C1096 1.399 . S
C1097 C1098 1.385 . S
C1098 H1084 0.931 . S
C1098 C1097 1.385 . S
C1098 C1099 1.389 . S
C1099 C1098 1.389 . S
C1099 C1100 1.387 . S
C1100 H1085 0.930 . S
C1100 C1095 1.390 . S
C1100 C1099 1.387 . S
H1101 C1113 0.930 . S
H1102 C1115 0.930 . S
H1103 C1116 0.930 . S
H1104 C1120 0.959 . S
H1105 C1120 0.959 . S
H1106 C1120 0.961 . S
H1107 C1121 0.960 . S
H1108 C1121 0.961 . S
H1109 C1121 0.959 . S
H1110 C1124 0.929 . S
H1111 C1125 0.931 . S
H1112 C1127 0.930 . S
C1113 H1101 0.930 . S
C1113 C1114 1.399 . S
C1113 C1118 1.399 . S
C1114 C1113 1.399 . S
C1114 C1115 1.376 . S
C1115 H1102 0.930 . S
C1115 C1114 1.376 . S
C1115 C1116 1.388 . S
C1116 H1103 0.930 . S
C1116 C1115 1.388 . S
C1116 C1117 1.390 . S
C1117 C1116 1.390 . S
C1117 C1118 1.394 . S
C1117 C1123 1.465 . S
C1118 C1113 1.399 . S
C1118 C1117 1.394 . S
C1118 C1119 1.516 . S
C1119 C1118 1.516 . S
C1119 C1120 1.502 . S
C1119 C1121 1.561 . S
C1119 C1122 1.526 . S
C1120 H1104 0.959 . S
C1120 H1105 0.959 . S
C1120 H1106 0.961 . S
C1120 C1119 1.502 . S
C1121 H1107 0.960 . S
C1121 H1108 0.961 . S
C1121 H1109 0.959 . S
C1121 C1119 1.561 . S
C1122 C1119 1.526 . S
C1122 C1123 1.396 . S
C1122 C1127 1.390 . S
C1123 C1117 1.465 . S
C1123 C1122 1.396 . S
C1123 C1124 1.399 . S
C1124 H1110 0.929 . S
C1124 C1123 1.399 . S
C1124 C1125 1.385 . S
C1125 H1111 0.931 . S
C1125 C1124 1.385 . S
C1125 C1126 1.389 . S
C1126 C1125 1.389 . S
C1126 C1127 1.387 . S
C1127 H1112 0.930 . S
C1127 C1122 1.390 . S
C1127 C1126 1.387 . S
H1128 C1140 0.930 . S
H1129 C1142 0.930 . S
H1130 C1143 0.930 . S
H1131 C1147 0.959 . S
H1132 C1147 0.959 . S
H1133 C1147 0.961 . S
H1134 C1148 0.960 . S
H1135 C1148 0.961 . S
H1136 C1148 0.959 . S
H1137 C1151 0.929 . S
H1138 C1152 0.931 . S
H1139 C1154 0.930 . S
C1140 H1128 0.930 . S
C1140 C1141 1.399 . S
C1140 C1145 1.399 . S
C1141 C1140 1.399 . S
C1141 C1142 1.376 . S
C1142 H1129 0.930 . S
C1142 C1141 1.376 . S
C1142 C1143 1.388 . S
C1143 H1130 0.930 . S
C1143 C1142 1.388 . S
C1143 C1144 1.390 . S
C1144 C1143 1.390 . S
C1144 C1145 1.394 . S
C1144 C1150 1.465 . S
C1145 C1140 1.399 . S
C1145 C1144 1.394 . S
C1145 C1146 1.516 . S
C1146 C1145 1.516 . S
C1146 C1147 1.502 . S
C1146 C1148 1.561 . S
C1146 C1149 1.526 . S
C1147 H1131 0.959 . S
C1147 H1132 0.959 . S
C1147 H1133 0.961 . S
C1147 C1146 1.502 . S
C1148 H1134 0.960 . S
C1148 H1135 0.961 . S
C1148 H1136 0.959 . S
C1148 C1146 1.561 . S
C1149 C1146 1.526 . S
C1149 C1150 1.396 . S
C1149 C1154 1.390 . S
C1150 C1144 1.465 . S
C1150 C1149 1.396 . S
C1150 C1151 1.399 . S
C1151 H1137 0.929 . S
C1151 C1150 1.399 . S
C1151 C1152 1.385 . S
C1152 H1138 0.931 . S
C1152 C1151 1.385 . S
C1152 C1153 1.389 . S
C1153 C1152 1.389 . S
C1153 C1154 1.387 . S
C1154 H1139 0.930 . S
C1154 C1149 1.390 . S
C1154 C1153 1.387 . S
H1155 C1167 0.930 . S
H1156 C1169 0.930 . S
H1157 C1170 0.930 . S
H1158 C1174 0.959 . S
H1159 C1174 0.959 . S
H1160 C1174 0.961 . S
H1161 C1175 0.960 . S
H1162 C1175 0.961 . S
H1163 C1175 0.959 . S
H1164 C1178 0.929 . S
H1165 C1179 0.931 1_545 S
H1166 C1181 0.930 . S
C1167 H1155 0.930 . S
C1167 C1168 1.399 . S
C1167 C1172 1.399 . S
C1168 C1167 1.399 . S
C1168 C1169 1.376 . S
C1169 H1156 0.930 . S
C1169 C1168 1.376 . S
C1169 C1170 1.388 . S
C1170 H1157 0.930 . S
C1170 C1169 1.388 . S
C1170 C1171 1.390 . S
C1171 C1170 1.390 . S
C1171 C1172 1.394 . S
C1171 C1177 1.465 . S
C1172 C1167 1.399 . S
C1172 C1171 1.394 . S
C1172 C1173 1.516 . S
C1173 C1172 1.516 . S
C1173 C1174 1.502 . S
C1173 C1175 1.561 . S
C1173 C1176 1.526 . S
C1174 H1158 0.959 . S
C1174 H1159 0.959 . S
C1174 H1160 0.961 . S
C1174 C1173 1.502 . S
C1175 H1161 0.960 . S
C1175 H1162 0.961 . S
C1175 H1163 0.959 . S
C1175 C1173 1.561 . S
C1176 C1173 1.526 . S
C1176 C1177 1.396 . S
C1176 C1181 1.390 . S
C1177 C1171 1.465 . S
C1177 C1176 1.396 . S
C1177 C1178 1.399 . S
C1178 H1164 0.929 . S
C1178 C1177 1.399 . S
C1178 C1179 1.385 . S
C1179 H1165 0.931 1_565 S
C1179 C1178 1.385 . S
C1179 C1180 1.389 . S
C1180 C1179 1.389 . S
C1180 C1181 1.387 . S
C1181 H1166 0.930 . S
C1181 C1176 1.390 . S
C1181 C1180 1.387 . S
H1182 C1194 0.930 . S
H1183 C1196 0.930 . S
H1184 C1197 0.930 . S
H1185 C1201 0.959 . S
H1186 C1201 0.959 . S
H1187 C1201 0.961 . S
H1188 C1202 0.960 . S
H1189 C1202 0.961 . S
H1190 C1202 0.959 . S
H1191 C1205 0.929 . S
H1192 C1206 0.931 . S
H1193 C1208 0.930 . S
C1194 H1182 0.930 . S
C1194 C1195 1.399 . S
C1194 C1199 1.399 . S
C1195 C1194 1.399 . S
C1195 C1196 1.376 . S
C1196 H1183 0.930 . S
C1196 C1195 1.376 . S
C1196 C1197 1.388 . S
C1197 H1184 0.930 . S
C1197 C1196 1.388 . S
C1197 C1198 1.390 . S
C1198 C1197 1.390 . S
C1198 C1199 1.394 . S
C1198 C1204 1.465 . S
C1199 C1194 1.399 . S
C1199 C1198 1.394 . S
C1199 C1200 1.516 . S
C1200 C1199 1.516 . S
C1200 C1201 1.502 . S
C1200 C1202 1.561 . S
C1200 C1203 1.526 . S
C1201 H1185 0.959 . S
C1201 H1186 0.959 . S
C1201 H1187 0.961 . S
C1201 C1200 1.502 . S
C1202 H1188 0.960 . S
C1202 H1189 0.961 . S
C1202 H1190 0.959 . S
C1202 C1200 1.561 . S
C1203 C1200 1.526 . S
C1203 C1204 1.396 . S
C1203 C1208 1.390 . S
C1204 C1198 1.465 . S
C1204 C1203 1.396 . S
C1204 C1205 1.399 . S
C1205 H1191 0.929 . S
C1205 C1204 1.399 . S
C1205 C1206 1.385 . S
C1206 H1192 0.931 . S
C1206 C1205 1.385 . S
C1206 C1207 1.389 . S
C1207 C1206 1.389 . S
C1207 C1208 1.387 . S
C1208 H1193 0.930 . S
C1208 C1203 1.390 . S
C1208 C1207 1.387 . S
H1209 C1221 0.930 . S
H1210 C1223 0.930 . S
H1211 C1224 0.930 . S
H1212 C1228 0.959 . S
H1213 C1228 0.959 . S
H1214 C1228 0.961 . S
H1215 C1229 0.960 . S
H1216 C1229 0.961 . S
H1217 C1229 0.959 . S
H1218 C1232 0.929 . S
H1219 C1233 0.931 . S
H1220 C1235 0.930 . S
C1221 H1209 0.930 . S
C1221 C1222 1.399 . S
C1221 C1226 1.399 . S
C1222 C1221 1.399 . S
C1222 C1223 1.376 . S
C1223 H1210 0.930 . S
C1223 C1222 1.376 . S
C1223 C1224 1.388 . S
C1224 H1211 0.930 . S
C1224 C1223 1.388 . S
C1224 C1225 1.390 . S
C1225 C1224 1.390 . S
C1225 C1226 1.394 . S
C1225 C1231 1.465 . S
C1226 C1221 1.399 . S
C1226 C1225 1.394 . S
C1226 C1227 1.516 . S
C1227 C1226 1.516 . S
C1227 C1228 1.502 . S
C1227 C1229 1.561 . S
C1227 C1230 1.526 . S
C1228 H1212 0.959 . S
C1228 H1213 0.959 . S
C1228 H1214 0.961 . S
C1228 C1227 1.502 . S
C1229 H1215 0.960 . S
C1229 H1216 0.961 . S
C1229 H1217 0.959 . S
C1229 C1227 1.561 . S
C1230 C1227 1.526 . S
C1230 C1231 1.396 . S
C1230 C1235 1.390 . S
C1231 C1225 1.465 . S
C1231 C1230 1.396 . S
C1231 C1232 1.399 . S
C1232 H1218 0.929 . S
C1232 C1231 1.399 . S
C1232 C1233 1.385 . S
C1233 H1219 0.931 . S
C1233 C1232 1.385 . S
C1233 C1234 1.389 . S
C1234 C1233 1.389 . S
C1234 C1235 1.387 . S
C1235 H1220 0.930 . S
C1235 C1230 1.390 . S
C1235 C1234 1.387 . S
H1236 C1248 0.930 . S
H1237 C1250 0.930 . S
H1238 C1251 0.930 . S
H1239 C1255 0.959 . S
H1240 C1255 0.959 . S
H1241 C1255 0.961 . S
H1242 C1256 0.960 . S
H1243 C1256 0.961 . S
H1244 C1256 0.959 . S
H1245 C1259 0.929 . S
H1246 C1260 0.931 . S
H1247 C1262 0.930 . S
C1248 H1236 0.930 . S
C1248 C1249 1.399 . S
C1248 C1253 1.399 . S
C1249 C1248 1.399 . S
C1249 C1250 1.376 . S
C1250 H1237 0.930 . S
C1250 C1249 1.376 . S
C1250 C1251 1.388 . S
C1251 H1238 0.930 . S
C1251 C1250 1.388 . S
C1251 C1252 1.390 . S
C1252 C1251 1.390 . S
C1252 C1253 1.394 . S
C1252 C1258 1.465 . S
C1253 C1248 1.399 . S
C1253 C1252 1.394 . S
C1253 C1254 1.516 . S
C1254 C1253 1.516 . S
C1254 C1255 1.502 . S
C1254 C1256 1.561 . S
C1254 C1257 1.526 . S
C1255 H1239 0.959 . S
C1255 H1240 0.959 . S
C1255 H1241 0.961 . S
C1255 C1254 1.502 . S
C1256 H1242 0.960 . S
C1256 H1243 0.961 . S
C1256 H1244 0.959 . S
C1256 C1254 1.561 . S
C1257 C1254 1.526 . S
C1257 C1258 1.396 . S
C1257 C1262 1.390 . S
C1258 C1252 1.465 . S
C1258 C1257 1.396 . S
C1258 C1259 1.399 . S
C1259 H1245 0.929 . S
C1259 C1258 1.399 . S
C1259 C1260 1.385 . S
C1260 H1246 0.931 . S
C1260 C1259 1.385 . S
C1260 C1261 1.389 . S
C1261 C1260 1.389 . S
C1261 C1262 1.387 . S
C1262 H1247 0.930 . S
C1262 C1257 1.390 . S
C1262 C1261 1.387 . S
H1263 C1275 0.930 . S
H1264 C1277 0.930 . S
H1265 C1278 0.930 . S
H1266 C1282 0.959 . S
H1267 C1282 0.959 . S
H1268 C1282 0.961 . S
H1269 C1283 0.960 . S
H1270 C1283 0.961 . S
H1271 C1283 0.959 1_545 S
H1272 C1286 0.929 . S
H1273 C1287 0.931 . S
H1274 C1289 0.930 . S
C1275 H1263 0.930 . S
C1275 C1276 1.399 . S
C1275 C1280 1.399 . S
C1276 C1275 1.399 . S
C1276 C1277 1.376 . S
C1277 H1264 0.930 . S
C1277 C1276 1.376 . S
C1277 C1278 1.388 . S
C1278 H1265 0.930 . S
C1278 C1277 1.388 . S
C1278 C1279 1.390 . S
C1279 C1278 1.390 . S
C1279 C1280 1.394 . S
C1279 C1285 1.465 . S
C1280 C1275 1.399 . S
C1280 C1279 1.394 . S
C1280 C1281 1.516 . S
C1281 C1280 1.516 . S
C1281 C1282 1.502 . S
C1281 C1283 1.561 . S
C1281 C1284 1.526 . S
C1282 H1266 0.959 . S
C1282 H1267 0.959 . S
C1282 H1268 0.961 . S
C1282 C1281 1.502 . S
C1283 H1269 0.960 . S
C1283 H1270 0.961 . S
C1283 H1271 0.959 1_565 S
C1283 C1281 1.561 . S
C1284 C1281 1.526 . S
C1284 C1285 1.396 . S
C1284 C1289 1.390 . S
C1285 C1279 1.465 . S
C1285 C1284 1.396 . S
C1285 C1286 1.399 . S
C1286 H1272 0.929 . S
C1286 C1285 1.399 . S
C1286 C1287 1.385 . S
C1287 H1273 0.931 . S
C1287 C1286 1.385 . S
C1287 C1288 1.389 . S
C1288 C1287 1.389 . S
C1288 C1289 1.387 . S
C1289 H1274 0.930 . S
C1289 C1284 1.390 . S
C1289 C1288 1.387 . S
H1290 C1302 0.930 . S
H1291 C1304 0.930 . S
H1292 C1305 0.930 . S
H1293 C1309 0.959 . S
H1294 C1309 0.959 . S
H1295 C1309 0.961 . S
H1296 C1310 0.960 . S
H1297 C1310 0.961 . S
H1298 C1310 0.959 . S
H1299 C1313 0.929 . S
H1300 C1314 0.931 . S
H1301 C1316 0.930 . S
C1302 H1290 0.930 . S
C1302 C1303 1.399 . S
C1302 C1307 1.399 . S
C1303 C1302 1.399 . S
C1303 C1304 1.376 . S
C1304 H1291 0.930 . S
C1304 C1303 1.376 . S
C1304 C1305 1.388 . S
C1305 H1292 0.930 . S
C1305 C1304 1.388 . S
C1305 C1306 1.390 . S
C1306 C1305 1.390 . S
C1306 C1307 1.394 . S
C1306 C1312 1.465 . S
C1307 C1302 1.399 . S
C1307 C1306 1.394 . S
C1307 C1308 1.516 . S
C1308 C1307 1.516 . S
C1308 C1309 1.502 . S
C1308 C1310 1.561 . S
C1308 C1311 1.526 . S
C1309 H1293 0.959 . S
C1309 H1294 0.959 . S
C1309 H1295 0.961 . S
C1309 C1308 1.502 . S
C1310 H1296 0.960 . S
C1310 H1297 0.961 . S
C1310 H1298 0.959 . S
C1310 C1308 1.561 . S
C1311 C1308 1.526 . S
C1311 C1312 1.396 . S
C1311 C1316 1.390 . S
C1312 C1306 1.465 . S
C1312 C1311 1.396 . S
C1312 C1313 1.399 . S
C1313 H1299 0.929 . S
C1313 C1312 1.399 . S
C1313 C1314 1.385 . S
C1314 H1300 0.931 . S
C1314 C1313 1.385 . S
C1314 C1315 1.389 . S
C1315 C1314 1.389 . S
C1315 C1316 1.387 . S
C1316 H1301 0.930 . S
C1316 C1311 1.390 . S
C1316 C1315 1.387 . S
H1317 C1329 0.930 1_565 S
H1318 C1331 0.930 . S
H1319 C1332 0.930 . S
H1320 C1336 0.959 . S
H1321 C1336 0.959 . S
H1322 C1336 0.961 . S
H1323 C1337 0.960 . S
H1324 C1337 0.961 . S
H1325 C1337 0.959 . S
H1326 C1340 0.929 . S
H1327 C1341 0.931 . S
H1328 C1343 0.917 1_565 S
C1329 H1317 0.930 1_545 S
C1329 C1330 1.399 . S
C1329 C1334 1.399 . S
C1330 C1329 1.399 . S
C1330 C1331 1.376 . S
C1331 H1318 0.930 . S
C1331 C1330 1.376 . S
C1331 C1332 1.388 . S
C1332 H1319 0.930 . S
C1332 C1331 1.388 . S
C1332 C1333 1.390 . S
C1333 C1332 1.390 . S
C1333 C1334 1.394 . S
C1333 C1339 1.465 . S
C1334 C1329 1.399 . S
C1334 C1333 1.394 . S
C1334 C1335 1.516 1_545 S
C1335 C1334 1.516 1_565 S
C1335 C1336 1.502 . S
C1335 C1337 1.561 . S
C1335 C1338 1.526 1_565 S
C1336 H1320 0.959 . S
C1336 H1321 0.959 . S
C1336 H1322 0.961 . S
C1336 C1335 1.502 . S
C1337 H1323 0.960 . S
C1337 H1324 0.961 . S
C1337 H1325 0.959 . S
C1337 C1335 1.561 . S
C1338 C1335 1.526 1_545 S
C1338 C1339 1.396 . S
C1338 C1343 1.390 . S
C1339 C1333 1.465 . S
C1339 C1338 1.396 . S
C1339 C1340 1.399 . S
C1340 H1326 0.929 . S
C1340 C1339 1.399 . S
C1340 C1341 1.385 . S
C1341 H1327 0.931 . S
C1341 C1340 1.385 . S
C1341 C1342 1.389 . S
C1342 C1341 1.389 . S
C1342 C1343 1.387 . S
C1343 H1328 0.917 1_545 S
C1343 C1338 1.390 . S
C1343 C1342 1.387 . S
H1344 C1356 0.930 . S
H1345 C1358 0.930 . S
H1346 C1359 0.930 . S
H1347 C1363 0.959 . S
H1348 C1363 0.959 . S
H1349 C1363 0.961 . S
H1350 C1364 0.960 . S
H1351 C1364 0.961 . S
H1352 C1364 0.959 . S
H1353 C1367 0.929 . S
H1354 C1368 0.931 . S
H1355 C1370 0.930 . S
C1356 H1344 0.930 . S
C1356 C1357 1.399 . S
C1356 C1361 1.399 . S
C1357 C1356 1.399 . S
C1357 C1358 1.376 . S
C1358 H1345 0.930 . S
C1358 C1357 1.376 . S
C1358 C1359 1.388 . S
C1359 H1346 0.930 . S
C1359 C1358 1.388 . S
C1359 C1360 1.390 . S
C1360 C1359 1.390 . S
C1360 C1361 1.394 . S
C1360 C1366 1.465 . S
C1361 C1356 1.399 . S
C1361 C1360 1.394 . S
C1361 C1362 1.516 . S
C1362 C1361 1.516 . S
C1362 C1363 1.502 . S
C1362 C1364 1.561 . S
C1362 C1365 1.526 . S
C1363 H1347 0.959 . S
C1363 H1348 0.959 . S
C1363 H1349 0.961 . S
C1363 C1362 1.502 . S
C1364 H1350 0.960 . S
C1364 H1351 0.961 . S
C1364 H1352 0.959 . S
C1364 C1362 1.561 . S
C1365 C1362 1.526 . S
C1365 C1366 1.396 . S
C1365 C1370 1.390 . S
C1366 C1360 1.465 . S
C1366 C1365 1.396 . S
C1366 C1367 1.399 . S
C1367 H1353 0.929 . S
C1367 C1366 1.399 . S
C1367 C1368 1.385 . S
C1368 H1354 0.931 . S
C1368 C1367 1.385 . S
C1368 C1369 1.389 . S
C1369 C1368 1.389 . S
C1369 C1370 1.387 . S
C1370 H1355 0.930 . S
C1370 C1365 1.390 . S
C1370 C1369 1.387 . S
H1371 C1383 0.930 . S
H1372 C1385 0.930 . S
H1373 C1386 0.930 . S
H1374 C1390 0.959 . S
H1375 C1390 0.959 . S
H1376 C1390 0.961 . S
H1377 C1391 0.960 . S
H1378 C1391 0.961 . S
H1379 C1391 0.959 . S
H1380 C1394 0.929 . S
H1381 C1395 0.931 1_554 S
H1382 C1397 0.930 . S
C1383 H1371 0.930 . S
C1383 C1384 1.399 1_556 S
C1383 C1388 1.399 . S
C1384 C1383 1.399 1_554 S
C1384 C1385 1.376 . S
C1385 H1372 0.930 . S
C1385 C1384 1.376 . S
C1385 C1386 1.388 . S
C1386 H1373 0.930 . S
C1386 C1385 1.388 . S
C1386 C1387 1.427 . S
C1387 C1386 1.427 . S
C1387 C1388 1.359 1_554 S
C1387 C1393 1.456 1_554 S
C1388 C1383 1.399 . S
C1388 C1387 1.359 1_556 S
C1388 C1389 1.516 . S
C1389 C1388 1.516 . S
C1389 C1390 1.502 . S
C1389 C1391 1.561 . S
C1389 C1392 1.526 . S
C1390 H1374 0.959 . S
C1390 H1375 0.959 . S
C1390 H1376 0.961 . S
C1390 C1389 1.502 . S
C1391 H1377 0.960 . S
C1391 H1378 0.961 . S
C1391 H1379 0.959 . S
C1391 C1389 1.561 . S
C1392 C1389 1.526 . S
C1392 C1393 1.396 . S
C1392 C1397 1.390 . S
C1393 C1387 1.456 1_556 S
C1393 C1392 1.396 . S
C1393 C1394 1.399 1_556 S
C1394 H1380 0.929 . S
C1394 C1393 1.399 1_554 S
C1394 C1395 1.385 1_554 S
C1395 H1381 0.931 1_556 S
C1395 C1394 1.385 1_556 S
C1395 C1396 1.389 . S
C1396 C1395 1.389 . S
C1396 C1397 1.387 . S
C1397 H1382 0.930 . S
C1397 C1392 1.390 . S
C1397 C1396 1.387 . S
H1398 C1410 0.930 . S
H1399 C1412 0.930 . S
H1400 C1413 0.930 . S
H1401 C1417 0.959 . S
H1402 C1417 0.959 . S
H1403 C1417 0.961 . S
H1404 C1418 0.959 1_556 S
H1405 C1418 0.961 1_556 S
H1406 C1418 0.959 . S
H1407 C1421 0.929 . S
H1408 C1422 0.931 . S
H1409 C1424 0.930 . S
C1410 H1398 0.930 . S
C1410 C1411 1.399 1_556 S
C1410 C1415 1.399 . S
C1411 C1410 1.399 1_554 S
C1411 C1412 1.376 . S
C1412 H1399 0.930 . S
C1412 C1411 1.376 . S
C1412 C1413 1.388 . S
C1413 H1400 0.930 . S
C1413 C1412 1.388 . S
C1413 C1414 1.390 . S
C1414 C1413 1.390 . S
C1414 C1415 1.394 1_554 S
C1414 C1420 1.465 . S
C1415 C1410 1.399 . S
C1415 C1414 1.394 1_556 S
C1415 C1416 1.516 . S
C1416 C1415 1.516 . S
C1416 C1417 1.502 . S
C1416 C1418 1.561 1_556 S
C1416 C1419 1.526 . S
C1417 H1401 0.959 . S
C1417 H1402 0.959 . S
C1417 H1403 0.961 . S
C1417 C1416 1.502 . S
C1418 H1404 0.959 1_554 S
C1418 H1405 0.961 1_554 S
C1418 H1406 0.959 . S
C1418 C1416 1.561 1_554 S
C1419 C1416 1.526 . S
C1419 C1420 1.396 1_556 S
C1419 C1424 1.390 . S
C1420 C1414 1.465 . S
C1420 C1419 1.396 1_554 S
C1420 C1421 1.399 . S
C1421 H1407 0.929 . S
C1421 C1420 1.399 . S
C1421 C1422 1.385 . S
C1422 H1408 0.931 . S
C1422 C1421 1.385 . S
C1422 C1423 1.389 1_554 S
C1423 C1422 1.389 1_556 S
C1423 C1424 1.387 . S
C1424 H1409 0.930 . S
C1424 C1419 1.390 . S
C1424 C1423 1.387 . S
H1425 C1437 0.930 . S
H1426 C1439 0.930 1_556 S
H1427 C1440 0.930 1_556 S
H1428 C1444 0.959 . S
H1429 C1444 0.959 . S
H1430 C1444 0.961 . S
H1431 C1445 0.960 . S
H1432 C1445 0.961 . S
H1433 C1445 0.959 . S
H1434 C1448 0.929 . S
H1435 C1449 0.934 1_556 S
H1436 C1451 0.930 . S
C1437 H1425 0.930 . S
C1437 C1438 1.399 . S
C1437 C1442 1.399 . S
C1438 C1437 1.399 . S
C1438 C1439 1.376 . S
C1439 H1426 0.930 1_554 S
C1439 C1438 1.376 . S
C1439 C1440 1.388 . S
C1440 H1427 0.930 1_554 S
C1440 C1439 1.388 . S
C1440 C1441 1.390 . S
C1441 C1440 1.390 . S
C1441 C1442 1.394 . S
C1441 C1447 1.465 . S
C1442 C1437 1.399 . S
C1442 C1441 1.394 . S
C1442 C1443 1.516 . S
C1443 C1442 1.516 . S
C1443 C1444 1.502 . S
C1443 C1445 1.561 . S
C1443 C1446 1.526 . S
C1444 H1428 0.959 . S
C1444 H1429 0.959 . S
C1444 H1430 0.961 . S
C1444 C1443 1.502 . S
C1445 H1431 0.960 . S
C1445 H1432 0.961 . S
C1445 H1433 0.959 . S
C1445 C1443 1.561 . S
C1446 C1443 1.526 . S
C1446 C1447 1.396 . S
C1446 C1451 1.390 . S
C1447 C1441 1.465 . S
C1447 C1446 1.396 . S
C1447 C1448 1.399 1_554 S
C1448 H1434 0.929 . S
C1448 C1447 1.399 1_556 S
C1448 C1449 1.386 1_556 S
C1449 H1435 0.934 1_554 S
C1449 C1448 1.386 1_554 S
C1449 C1450 1.385 . S
C1450 C1449 1.385 . S
C1450 C1451 1.387 . S
C1451 H1436 0.930 . S
C1451 C1446 1.390 . S
C1451 C1450 1.387 . S
H1452 C1464 0.930 . S
H1453 C1466 0.930 . S
H1454 C1467 0.930 . S
H1455 C1471 0.959 . S
H1456 C1471 0.959 . S
H1457 C1471 0.961 . S
H1458 C1472 0.960 . S
H1459 C1472 0.961 . S
H1460 C1472 0.959 . S
H1461 C1475 0.929 . S
H1462 C1476 0.931 . S
H1463 C1478 0.930 . S
C1464 H1452 0.930 . S
C1464 C1465 1.399 . S
C1464 C1469 1.399 . S
C1465 C1464 1.399 . S
C1465 C1466 1.376 . S
C1466 H1453 0.930 . S
C1466 C1465 1.376 . S
C1466 C1467 1.388 . S
C1467 H1454 0.930 . S
C1467 C1466 1.388 . S
C1467 C1468 1.390 . S
C1468 C1467 1.390 . S
C1468 C1469 1.394 . S
C1468 C1474 1.465 . S
C1469 C1464 1.399 . S
C1469 C1468 1.394 . S
C1469 C1470 1.516 . S
C1470 C1469 1.516 . S
C1470 C1471 1.502 . S
C1470 C1472 1.561 . S
C1470 C1473 1.526 . S
C1471 H1455 0.959 . S
C1471 H1456 0.959 . S
C1471 H1457 0.961 . S
C1471 C1470 1.502 . S
C1472 H1458 0.960 . S
C1472 H1459 0.961 . S
C1472 H1460 0.959 . S
C1472 C1470 1.561 . S
C1473 C1470 1.526 . S
C1473 C1474 1.396 . S
C1473 C1478 1.390 . S
C1474 C1468 1.465 . S
C1474 C1473 1.396 . S
C1474 C1475 1.399 . S
C1475 H1461 0.929 . S
C1475 C1474 1.399 . S
C1475 C1476 1.385 . S
C1476 H1462 0.931 . S
C1476 C1475 1.385 . S
C1476 C1477 1.389 . S
C1477 C1476 1.389 . S
C1477 C1478 1.387 . S
C1478 H1463 0.930 . S
C1478 C1473 1.390 . S
C1478 C1477 1.387 . S
H1479 C1491 0.930 . S
H1480 C1493 0.930 . S
H1481 C1494 0.930 . S
H1482 C1498 0.959 . S
H1483 C1498 0.959 . S
H1484 C1498 0.961 . S
H1485 C1499 0.960 . S
H1486 C1499 0.961 . S
H1487 C1499 0.959 . S
H1488 C1502 0.929 . S
H1489 C1503 0.934 . S
H1490 C1505 0.930 . S
C1491 H1479 0.930 . S
C1491 C1492 1.399 1_655 S
C1491 C1496 1.399 . S
C1492 C1491 1.399 1_455 S
C1492 C1493 1.376 . S
C1493 H1480 0.930 . S
C1493 C1492 1.376 . S
C1493 C1494 1.388 . S
C1494 H1481 0.930 . S
C1494 C1493 1.388 . S
C1494 C1495 1.390 . S
C1495 C1494 1.390 . S
C1495 C1496 1.394 1_455 S
C1495 C1501 1.465 . S
C1496 C1491 1.399 . S
C1496 C1495 1.394 1_655 S
C1496 C1497 1.516 . S
C1497 C1496 1.516 . S
C1497 C1498 1.502 . S
C1497 C1499 1.561 . S
C1497 C1500 1.526 . S
C1498 H1482 0.959 . S
C1498 H1483 0.959 . S
C1498 H1484 0.961 . S
C1498 C1497 1.502 . S
C1499 H1485 0.960 . S
C1499 H1486 0.961 . S
C1499 H1487 0.959 . S
C1499 C1497 1.561 . S
C1500 C1497 1.526 . S
C1500 C1501 1.396 1_655 S
C1500 C1505 1.390 . S
C1501 C1495 1.465 . S
C1501 C1500 1.396 1_455 S
C1501 C1502 1.399 . S
C1502 H1488 0.929 . S
C1502 C1501 1.399 . S
C1502 C1503 1.389 . S
C1503 H1489 0.934 . S
C1503 C1502 1.389 . S
C1503 C1504 1.383 1_455 S
C1504 C1503 1.383 1_655 S
C1504 C1505 1.387 . S
C1505 H1490 0.930 . S
C1505 C1500 1.390 . S
C1505 C1504 1.387 . S
H1506 C1518 0.930 . S
H1507 C1520 0.930 . S
H1508 C1521 0.930 . S
H1509 C1525 0.959 . S
H1510 C1525 0.959 . S
H1511 C1525 0.961 . S
H1512 C1526 0.960 . S
H1513 C1526 0.961 . S
H1514 C1526 0.959 1_655 S
H1515 C1529 0.929 . S
H1516 C1530 0.931 . S
H1517 C1532 0.930 . S
C1518 H1506 0.930 . S
C1518 C1519 1.399 . S
C1518 C1523 1.399 . S
C1519 C1518 1.399 . S
C1519 C1520 1.376 . S
C1520 H1507 0.930 . S
C1520 C1519 1.376 . S
C1520 C1521 1.388 . S
C1521 H1508 0.930 . S
C1521 C1520 1.388 . S
C1521 C1522 1.390 . S
C1522 C1521 1.390 . S
C1522 C1523 1.394 . S
C1522 C1528 1.465 . S
C1523 C1518 1.399 . S
C1523 C1522 1.394 . S
C1523 C1524 1.516 . S
C1524 C1523 1.516 . S
C1524 C1525 1.502 . S
C1524 C1526 1.561 . S
C1524 C1527 1.526 . S
C1525 H1509 0.959 . S
C1525 H1510 0.959 . S
C1525 H1511 0.961 . S
C1525 C1524 1.502 . S
C1526 H1512 0.960 . S
C1526 H1513 0.961 . S
C1526 H1514 0.959 1_455 S
C1526 C1524 1.561 . S
C1527 C1524 1.526 . S
C1527 C1528 1.396 . S
C1527 C1532 1.390 . S
C1528 C1522 1.465 . S
C1528 C1527 1.396 . S
C1528 C1529 1.399 . S
C1529 H1515 0.929 . S
C1529 C1528 1.399 . S
C1529 C1530 1.385 . S
C1530 H1516 0.931 . S
C1530 C1529 1.385 . S
C1530 C1531 1.389 . S
C1531 C1530 1.389 . S
C1531 C1532 1.387 . S
C1532 H1517 0.930 . S
C1532 C1527 1.390 . S
C1532 C1531 1.387 . S
H1533 C1545 0.956 . S
H1534 C1547 0.930 . S
H1535 C1548 0.930 . S
H1536 C1552 0.959 . S
H1537 C1552 0.959 . S
H1538 C1552 0.961 . S
H1539 C1553 0.964 . S
H1540 C1553 0.961 . S
H1541 C1553 0.959 . S
H1542 C1556 0.929 . S
H1543 C1557 0.931 . S
H1544 C1559 0.930 . S
C1545 H1533 0.956 . S
C1545 C1546 1.385 1_455 S
C1545 C1550 1.388 1_455 S
C1546 C1545 1.385 1_655 S
C1546 C1547 1.376 . S
C1547 H1534 0.930 . S
C1547 C1546 1.376 . S
C1547 C1548 1.388 . S
C1548 H1535 0.930 . S
C1548 C1547 1.388 . S
C1548 C1549 1.390 . S
C1549 C1548 1.390 . S
C1549 C1550 1.394 . S
C1549 C1555 1.465 . S
C1550 C1545 1.388 1_655 S
C1550 C1549 1.394 . S
C1550 C1551 1.516 1_655 S
C1551 C1550 1.516 1_455 S
C1551 C1552 1.502 . S
C1551 C1553 1.561 1_455 S
C1551 C1554 1.526 1_455 S
C1552 H1536 0.959 . S
C1552 H1537 0.959 . S
C1552 H1538 0.961 . S
C1552 C1551 1.502 . S
C1553 H1539 0.964 . S
C1553 H1540 0.961 . S
C1553 H1541 0.959 . S
C1553 C1551 1.561 1_655 S
C1554 C1551 1.526 1_655 S
C1554 C1555 1.396 . S
C1554 C1559 1.390 . S
C1555 C1549 1.465 . S
C1555 C1554 1.396 . S
C1555 C1556 1.399 . S
C1556 H1542 0.929 . S
C1556 C1555 1.399 . S
C1556 C1557 1.385 . S
C1557 H1543 0.931 . S
C1557 C1556 1.385 . S
C1557 C1558 1.389 . S
C1558 C1557 1.389 . S
C1558 C1559 1.387 . S
C1559 H1544 0.930 . S
C1559 C1554 1.390 . S
C1559 C1558 1.387 . S
H1560 C1572 0.930 . S
H1561 C1574 0.930 . S
H1562 C1575 0.930 . S
H1563 C1579 0.959 . S
H1564 C1579 0.959 . S
H1565 C1579 0.961 . S
H1566 C1580 0.960 . S
H1567 C1580 0.961 . S
H1568 C1580 0.959 . S
H1569 C1583 0.929 . S
H1570 C1584 0.931 . S
H1571 C1586 0.930 . S
C1572 H1560 0.930 . S
C1572 C1573 1.399 . S
C1572 C1577 1.399 . S
C1573 C1572 1.399 . S
C1573 C1574 1.376 . S
C1574 H1561 0.930 . S
C1574 C1573 1.376 . S
C1574 C1575 1.388 . S
C1575 H1562 0.930 . S
C1575 C1574 1.388 . S
C1575 C1576 1.390 . S
C1576 C1575 1.390 . S
C1576 C1577 1.394 . S
C1576 C1582 1.465 . S
C1577 C1572 1.399 . S
C1577 C1576 1.394 . S
C1577 C1578 1.516 . S
C1578 C1577 1.516 . S
C1578 C1579 1.502 . S
C1578 C1580 1.561 1_545 S
C1578 C1581 1.526 . S
C1579 H1563 0.959 . S
C1579 H1564 0.959 . S
C1579 H1565 0.961 . S
C1579 C1578 1.502 . S
C1580 H1566 0.960 . S
C1580 H1567 0.961 . S
C1580 H1568 0.959 . S
C1580 C1578 1.561 1_565 S
C1581 C1578 1.526 . S
C1581 C1582 1.396 . S
C1581 C1586 1.390 . S
C1582 C1576 1.465 . S
C1582 C1581 1.396 . S
C1582 C1583 1.399 . S
C1583 H1569 0.929 . S
C1583 C1582 1.399 . S
C1583 C1584 1.385 . S
C1584 H1570 0.931 . S
C1584 C1583 1.385 . S
C1584 C1585 1.389 . S
C1585 C1584 1.389 . S
C1585 C1586 1.387 . S
C1586 H1571 0.930 . S
C1586 C1581 1.390 . S
C1586 C1585 1.387 . S
H1587 C1599 0.930 . S
H1588 C1601 0.930 . S
H1589 C1602 0.930 . S
H1590 C1606 0.959 . S
H1591 C1606 0.959 . S
H1592 C1606 0.961 . S
H1593 C1607 0.960 . S
H1594 C1607 0.961 . S
H1595 C1607 0.959 . S
H1596 C1610 0.929 . S
H1597 C1611 0.931 . S
H1598 C1613 0.930 . S
C1599 H1587 0.930 . S
C1599 C1600 1.399 . S
C1599 C1604 1.399 . S
C1600 C1599 1.399 . S
C1600 C1601 1.376 . S
C1601 H1588 0.930 . S
C1601 C1600 1.376 . S
C1601 C1602 1.388 . S
C1602 H1589 0.930 . S
C1602 C1601 1.388 . S
C1602 C1603 1.390 . S
C1603 C1602 1.390 . S
C1603 C1604 1.394 . S
C1603 C1609 1.465 . S
C1604 C1599 1.399 . S
C1604 C1603 1.394 . S
C1604 C1605 1.516 . S
C1605 C1604 1.516 . S
C1605 C1606 1.502 . S
C1605 C1607 1.561 . S
C1605 C1608 1.526 . S
C1606 H1590 0.959 . S
C1606 H1591 0.959 . S
C1606 H1592 0.961 . S
C1606 C1605 1.502 . S
C1607 H1593 0.960 . S
C1607 H1594 0.961 . S
C1607 H1595 0.959 . S
C1607 C1605 1.561 . S
C1608 C1605 1.526 . S
C1608 C1609 1.396 . S
C1608 C1613 1.390 . S
C1609 C1603 1.465 . S
C1609 C1608 1.396 . S
C1609 C1610 1.399 . S
C1610 H1596 0.929 . S
C1610 C1609 1.399 . S
C1610 C1611 1.385 . S
C1611 H1597 0.931 . S
C1611 C1610 1.385 . S
C1611 C1612 1.389 . S
C1612 C1611 1.389 . S
C1612 C1613 1.387 . S
C1613 H1598 0.930 . S
C1613 C1608 1.390 . S
C1613 C1612 1.387 . S
H1614 C1626 0.930 . S
H1615 C1628 0.930 . S
H1616 C1629 0.930 . S
H1617 C1633 0.959 . S
H1618 C1633 0.959 . S
H1619 C1633 0.961 . S
H1620 C1634 0.960 . S
H1621 C1634 0.961 . S
H1622 C1634 0.959 . S
H1623 C1637 0.929 . S
H1624 C1638 0.931 1_545 S
H1625 C1640 0.930 . S
C1626 H1614 0.930 . S
C1626 C1627 1.399 . S
C1626 C1631 1.399 . S
C1627 C1626 1.399 . S
C1627 C1628 1.376 1_565 S
C1628 H1615 0.930 . S
C1628 C1627 1.376 1_545 S
C1628 C1629 1.388 . S
C1629 H1616 0.930 . S
C1629 C1628 1.388 . S
C1629 C1630 1.390 1_545 S
C1630 C1629 1.390 1_565 S
C1630 C1631 1.394 . S
C1630 C1636 1.465 . S
C1631 C1626 1.399 . S
C1631 C1630 1.394 . S
C1631 C1632 1.516 . S
C1632 C1631 1.516 . S
C1632 C1633 1.502 . S
C1632 C1634 1.561 . S
C1632 C1635 1.526 . S
C1633 H1617 0.959 . S
C1633 H1618 0.959 . S
C1633 H1619 0.961 . S
C1633 C1632 1.502 . S
C1634 H1620 0.960 . S
C1634 H1621 0.961 . S
C1634 H1622 0.959 . S
C1634 C1632 1.561 . S
C1635 C1632 1.526 . S
C1635 C1636 1.396 . S
C1635 C1640 1.390 . S
C1636 C1630 1.465 . S
C1636 C1635 1.396 . S
C1636 C1637 1.399 1_565 S
C1637 H1623 0.929 . S
C1637 C1636 1.399 1_545 S
C1637 C1638 1.385 1_545 S
C1638 H1624 0.931 1_565 S
C1638 C1637 1.385 1_565 S
C1638 C1639 1.389 . S
C1639 C1638 1.389 . S
C1639 C1640 1.387 . S
C1640 H1625 0.930 . S
C1640 C1635 1.390 . S
C1640 C1639 1.387 . S
H1641 C1653 0.930 . S
H1642 C1655 0.930 . S
H1643 C1656 0.930 . S
H1644 C1660 0.959 . S
H1645 C1660 0.959 . S
H1646 C1660 0.961 . S
H1647 C1661 0.960 . S
H1648 C1661 0.961 . S
H1649 C1661 0.959 . S
H1650 C1664 0.929 . S
H1651 C1665 0.931 . S
H1652 C1667 0.930 . S
C1653 H1641 0.930 . S
C1653 C1654 1.399 . S
C1653 C1658 1.399 . S
C1654 C1653 1.399 . S
C1654 C1655 1.376 . S
C1655 H1642 0.930 . S
C1655 C1654 1.376 . S
C1655 C1656 1.388 . S
C1656 H1643 0.930 . S
C1656 C1655 1.388 . S
C1656 C1657 1.390 . S
C1657 C1656 1.390 . S
C1657 C1658 1.394 . S
C1657 C1663 1.465 . S
C1658 C1653 1.399 . S
C1658 C1657 1.394 . S
C1658 C1659 1.516 . S
C1659 C1658 1.516 . S
C1659 C1660 1.502 . S
C1659 C1661 1.561 . S
C1659 C1662 1.526 . S
C1660 H1644 0.959 . S
C1660 H1645 0.959 . S
C1660 H1646 0.961 . S
C1660 C1659 1.502 . S
C1661 H1647 0.960 . S
C1661 H1648 0.961 . S
C1661 H1649 0.959 . S
C1661 C1659 1.561 . S
C1662 C1659 1.526 . S
C1662 C1663 1.396 . S
C1662 C1667 1.390 . S
C1663 C1657 1.465 . S
C1663 C1662 1.396 . S
C1663 C1664 1.399 . S
C1664 H1650 0.929 . S
C1664 C1663 1.399 . S
C1664 C1665 1.385 . S
C1665 H1651 0.931 . S
C1665 C1664 1.385 . S
C1665 C1666 1.389 . S
C1666 C1665 1.389 . S
C1666 C1667 1.387 . S
C1667 H1652 0.930 . S
C1667 C1662 1.390 . S
C1667 C1666 1.387 . S
H1668 C1680 0.930 . S
H1669 C1682 0.930 1_556 S
H1670 C1683 0.930 1_556 S
H1671 C1687 0.959 . S
H1672 C1687 0.959 . S
H1673 C1687 0.961 . S
H1674 C1688 0.960 . S
H1675 C1688 0.961 . S
H1676 C1688 0.959 . S
H1677 C1691 0.930 1_556 S
H1678 C1692 0.931 1_556 S
H1679 C1694 0.930 . S
C1680 H1668 0.930 . S
C1680 C1681 1.399 . S
C1680 C1685 1.399 . S
C1681 C1680 1.399 . S
C1681 C1682 1.376 . S
C1682 H1669 0.930 1_554 S
C1682 C1681 1.376 . S
C1682 C1683 1.388 . S
C1683 H1670 0.930 1_554 S
C1683 C1682 1.388 . S
C1683 C1684 1.390 . S
C1684 C1683 1.390 . S
C1684 C1685 1.394 . S
C1684 C1690 1.465 . S
C1685 C1680 1.399 . S
C1685 C1684 1.394 . S
C1685 C1686 1.516 . S
C1686 C1685 1.516 . S
C1686 C1687 1.502 . S
C1686 C1688 1.561 . S
C1686 C1689 1.526 . S
C1687 H1671 0.959 . S
C1687 H1672 0.959 . S
C1687 H1673 0.961 . S
C1687 C1686 1.502 . S
C1688 H1674 0.960 . S
C1688 H1675 0.961 . S
C1688 H1676 0.959 . S
C1688 C1686 1.561 . S
C1689 C1686 1.526 . S
C1689 C1690 1.396 . S
C1689 C1694 1.390 . S
C1690 C1684 1.465 . S
C1690 C1689 1.396 . S
C1690 C1691 1.398 . S
C1691 H1677 0.930 1_554 S
C1691 C1690 1.398 . S
C1691 C1692 1.385 . S
C1692 H1678 0.931 1_554 S
C1692 C1691 1.385 . S
C1692 C1693 1.389 . S
C1693 C1692 1.389 . S
C1693 C1694 1.387 . S
C1694 H1679 0.930 . S
C1694 C1689 1.390 . S
C1694 C1693 1.387 . S
H1695 C1707 0.930 . S
H1696 C1709 0.930 . S
H1697 C1710 0.930 . S
H1698 C1714 0.959 . S
H1699 C1714 0.959 . S
H1700 C1714 0.961 . S
H1701 C1715 0.960 . S
H1702 C1715 0.961 . S
H1703 C1715 0.959 . S
H1704 C1718 0.929 . S
H1705 C1719 0.931 . S
H1706 C1721 0.930 . S
C1707 H1695 0.930 . S
C1707 C1708 1.399 . S
C1707 C1712 1.399 . S
C1708 C1707 1.399 . S
C1708 C1709 1.376 . S
C1709 H1696 0.930 . S
C1709 C1708 1.376 . S
C1709 C1710 1.388 . S
C1710 H1697 0.930 . S
C1710 C1709 1.388 . S
C1710 C1711 1.390 . S
C1711 C1710 1.390 . S
C1711 C1712 1.394 . S
C1711 C1717 1.465 . S
C1712 C1707 1.399 . S
C1712 C1711 1.394 . S
C1712 C1713 1.516 . S
C1713 C1712 1.516 . S
C1713 C1714 1.502 . S
C1713 C1715 1.561 . S
C1713 C1716 1.526 . S
C1714 H1698 0.959 . S
C1714 H1699 0.959 . S
C1714 H1700 0.961 . S
C1714 C1713 1.502 . S
C1715 H1701 0.960 . S
C1715 H1702 0.961 . S
C1715 H1703 0.959 . S
C1715 C1713 1.561 . S
C1716 C1713 1.526 . S
C1716 C1717 1.396 . S
C1716 C1721 1.390 . S
C1717 C1711 1.465 . S
C1717 C1716 1.396 . S
C1717 C1718 1.399 . S
C1718 H1704 0.929 . S
C1718 C1717 1.399 . S
C1718 C1719 1.385 . S
C1719 H1705 0.931 . S
C1719 C1718 1.385 . S
C1719 C1720 1.389 . S
C1720 C1719 1.389 . S
C1720 C1721 1.387 . S
C1721 H1706 0.930 . S
C1721 C1716 1.390 . S
C1721 C1720 1.387 . S
H1722 C1734 0.930 . S
H1723 C1736 0.930 . S
H1724 C1737 0.930 . S
H1725 C1741 0.959 . S
H1726 C1741 0.959 . S
H1727 C1741 0.961 . S
H1728 C1742 0.960 . S
H1729 C1742 0.961 . S
H1730 C1742 0.959 . S
H1731 C1745 0.929 . S
H1732 C1746 0.931 . S
H1733 C1748 0.930 . S
C1734 H1722 0.930 . S
C1734 C1735 1.399 . S
C1734 C1739 1.399 . S
C1735 C1734 1.399 . S
C1735 C1736 1.376 . S
C1736 H1723 0.930 . S
C1736 C1735 1.376 . S
C1736 C1737 1.388 . S
C1737 H1724 0.930 . S
C1737 C1736 1.388 . S
C1737 C1738 1.390 . S
C1738 C1737 1.390 . S
C1738 C1739 1.394 . S
C1738 C1744 1.465 . S
C1739 C1734 1.399 . S
C1739 C1738 1.394 . S
C1739 C1740 1.516 . S
C1740 C1739 1.516 . S
C1740 C1741 1.502 . S
C1740 C1742 1.561 . S
C1740 C1743 1.526 . S
C1741 H1725 0.959 . S
C1741 H1726 0.959 . S
C1741 H1727 0.961 . S
C1741 C1740 1.502 . S
C1742 H1728 0.960 . S
C1742 H1729 0.961 . S
C1742 H1730 0.959 . S
C1742 C1740 1.561 . S
C1743 C1740 1.526 . S
C1743 C1744 1.396 . S
C1743 C1748 1.390 . S
C1744 C1738 1.465 . S
C1744 C1743 1.396 . S
C1744 C1745 1.399 . S
C1745 H1731 0.929 . S
C1745 C1744 1.399 . S
C1745 C1746 1.385 . S
C1746 H1732 0.931 . S
C1746 C1745 1.385 . S
C1746 C1747 1.389 . S
C1747 C1746 1.389 . S
C1747 C1748 1.387 . S
C1748 H1733 0.930 . S
C1748 C1743 1.390 . S
C1748 C1747 1.387 . S
H1749 C1761 0.930 . S
H1750 C1763 0.930 . S
H1751 C1764 0.930 . S
H1752 C1768 0.959 . S
H1753 C1768 0.959 . S
H1754 C1768 0.961 . S
H1755 C1769 0.960 . S
H1756 C1769 0.961 . S
H1757 C1769 0.959 . S
H1758 C1772 0.929 . S
H1759 C1773 0.931 . S
H1760 C1775 0.930 . S
C1761 H1749 0.930 . S
C1761 C1762 1.399 . S
C1761 C1766 1.399 . S
C1762 C1761 1.399 . S
C1762 C1763 1.376 . S
C1763 H1750 0.930 . S
C1763 C1762 1.376 . S
C1763 C1764 1.388 . S
C1764 H1751 0.930 . S
C1764 C1763 1.388 . S
C1764 C1765 1.390 . S
C1765 C1764 1.390 . S
C1765 C1766 1.394 . S
C1765 C1771 1.465 . S
C1766 C1761 1.399 . S
C1766 C1765 1.394 . S
C1766 C1767 1.516 . S
C1767 C1766 1.516 . S
C1767 C1768 1.502 . S
C1767 C1769 1.561 . S
C1767 C1770 1.526 . S
C1768 H1752 0.959 . S
C1768 H1753 0.959 . S
C1768 H1754 0.961 . S
C1768 C1767 1.502 . S
C1769 H1755 0.960 . S
C1769 H1756 0.961 . S
C1769 H1757 0.959 . S
C1769 C1767 1.561 . S
C1770 C1767 1.526 . S
C1770 C1771 1.396 . S
C1770 C1775 1.390 . S
C1771 C1765 1.465 . S
C1771 C1770 1.396 . S
C1771 C1772 1.399 . S
C1772 H1758 0.929 . S
C1772 C1771 1.399 . S
C1772 C1773 1.385 . S
C1773 H1759 0.931 . S
C1773 C1772 1.385 . S
C1773 C1774 1.389 . S
C1774 C1773 1.389 . S
C1774 C1775 1.387 . S
C1775 H1760 0.930 . S
C1775 C1770 1.390 . S
C1775 C1774 1.387 . S
H1776 C1788 0.930 . S
H1777 C1790 0.930 . S
H1778 C1791 0.930 . S
H1779 C1795 0.959 . S
H1780 C1795 0.959 . S
H1781 C1795 0.961 . S
H1782 C1796 0.960 . S
H1783 C1796 0.961 . S
H1784 C1796 0.959 . S
H1785 C1799 0.929 . S
H1786 C1800 0.931 . S
H1787 C1802 0.930 . S
C1788 H1776 0.930 . S
C1788 C1789 1.399 . S
C1788 C1793 1.399 . S
C1789 C1788 1.399 . S
C1789 C1790 1.376 . S
C1790 H1777 0.930 . S
C1790 C1789 1.376 . S
C1790 C1791 1.388 . S
C1791 H1778 0.930 . S
C1791 C1790 1.388 . S
C1791 C1792 1.390 . S
C1792 C1791 1.390 . S
C1792 C1793 1.394 . S
C1792 C1798 1.465 . S
C1793 C1788 1.399 . S
C1793 C1792 1.394 . S
C1793 C1794 1.516 . S
C1794 C1793 1.516 . S
C1794 C1795 1.502 . S
C1794 C1796 1.561 . S
C1794 C1797 1.526 . S
C1795 H1779 0.959 . S
C1795 H1780 0.959 . S
C1795 H1781 0.961 . S
C1795 C1794 1.502 . S
C1796 H1782 0.960 . S
C1796 H1783 0.961 . S
C1796 H1784 0.959 . S
C1796 C1794 1.561 . S
C1797 C1794 1.526 . S
C1797 C1798 1.396 . S
C1797 C1802 1.390 . S
C1798 C1792 1.465 . S
C1798 C1797 1.396 . S
C1798 C1799 1.399 . S
C1799 H1785 0.929 . S
C1799 C1798 1.399 . S
C1799 C1800 1.385 . S
C1800 H1786 0.931 . S
C1800 C1799 1.385 . S
C1800 C1801 1.389 . S
C1801 C1800 1.389 . S
C1801 C1802 1.387 . S
C1802 H1787 0.930 . S
C1802 C1797 1.390 . S
C1802 C1801 1.387 . S
H1803 C1815 0.930 . S
H1804 C1817 0.930 . S
H1805 C1818 0.930 . S
H1806 C1822 0.959 . S
H1807 C1822 0.959 . S
H1808 C1822 0.961 . S
H1809 C1823 0.960 . S
H1810 C1823 0.961 . S
H1811 C1823 0.959 . S
H1812 C1826 0.929 . S
H1813 C1827 0.931 . S
H1814 C1829 0.930 . S
C1815 H1803 0.930 . S
C1815 C1816 1.399 . S
C1815 C1820 1.399 . S
C1816 C1815 1.399 . S
C1816 C1817 1.376 . S
C1817 H1804 0.930 . S
C1817 C1816 1.376 . S
C1817 C1818 1.388 . S
C1818 H1805 0.930 . S
C1818 C1817 1.388 . S
C1818 C1819 1.390 . S
C1819 C1818 1.390 . S
C1819 C1820 1.394 . S
C1819 C1825 1.465 . S
C1820 C1815 1.399 . S
C1820 C1819 1.394 . S
C1820 C1821 1.516 . S
C1821 C1820 1.516 . S
C1821 C1822 1.502 . S
C1821 C1823 1.561 . S
C1821 C1824 1.526 . S
C1822 H1806 0.959 . S
C1822 H1807 0.959 . S
C1822 H1808 0.961 . S
C1822 C1821 1.502 . S
C1823 H1809 0.960 . S
C1823 H1810 0.961 . S
C1823 H1811 0.959 . S
C1823 C1821 1.561 . S
C1824 C1821 1.526 . S
C1824 C1825 1.396 . S
C1824 C1829 1.390 . S
C1825 C1819 1.465 . S
C1825 C1824 1.396 . S
C1825 C1826 1.399 . S
C1826 H1812 0.929 . S
C1826 C1825 1.399 . S
C1826 C1827 1.385 . S
C1827 H1813 0.931 . S
C1827 C1826 1.385 . S
C1827 C1828 1.389 . S
C1828 C1827 1.389 . S
C1828 C1829 1.387 . S
C1829 H1814 0.930 . S
C1829 C1824 1.390 . S
C1829 C1828 1.387 . S
H1830 C1842 0.930 . S
H1831 C1844 0.930 . S
H1832 C1845 0.930 . S
H1833 C1849 0.959 . S
H1834 C1849 0.959 . S
H1835 C1849 0.961 . S
H1836 C1850 0.960 . S
H1837 C1850 0.961 . S
H1838 C1850 0.959 . S
H1839 C1853 0.929 . S
H1840 C1854 0.931 . S
H1841 C1856 0.930 . S
C1842 H1830 0.930 . S
C1842 C1843 1.399 . S
C1842 C1847 1.399 . S
C1843 C1842 1.399 . S
C1843 C1844 1.376 . S
C1844 H1831 0.930 . S
C1844 C1843 1.376 . S
C1844 C1845 1.388 . S
C1845 H1832 0.930 . S
C1845 C1844 1.388 . S
C1845 C1846 1.390 . S
C1846 C1845 1.390 . S
C1846 C1847 1.394 . S
C1846 C1852 1.465 . S
C1847 C1842 1.399 . S
C1847 C1846 1.394 . S
C1847 C1848 1.516 . S
C1848 C1847 1.516 . S
C1848 C1849 1.502 . S
C1848 C1850 1.561 . S
C1848 C1851 1.526 . S
C1849 H1833 0.959 . S
C1849 H1834 0.959 . S
C1849 H1835 0.961 . S
C1849 C1848 1.502 . S
C1850 H1836 0.960 . S
C1850 H1837 0.961 . S
C1850 H1838 0.959 . S
C1850 C1848 1.561 . S
C1851 C1848 1.526 . S
C1851 C1852 1.396 . S
C1851 C1856 1.390 . S
C1852 C1846 1.465 . S
C1852 C1851 1.396 . S
C1852 C1853 1.399 . S
C1853 H1839 0.929 . S
C1853 C1852 1.399 . S
C1853 C1854 1.385 . S
C1854 H1840 0.931 . S
C1854 C1853 1.385 . S
C1854 C1855 1.389 . S
C1855 C1854 1.389 . S
C1855 C1856 1.387 . S
C1856 H1841 0.930 . S
C1856 C1851 1.390 . S
C1856 C1855 1.387 . S
H1857 C1869 0.930 . S
H1858 C1871 0.930 . S
H1859 C1872 0.930 . S
H1860 C1876 0.959 . S
H1861 C1876 0.959 . S
H1862 C1876 0.961 . S
H1863 C1877 0.960 . S
H1864 C1877 0.961 . S
H1865 C1877 0.959 . S
H1866 C1880 0.929 . S
H1867 C1881 0.931 . S
H1868 C1883 0.930 . S
C1869 H1857 0.930 . S
C1869 C1870 1.399 . S
C1869 C1874 1.399 . S
C1870 C1869 1.399 . S
C1870 C1871 1.376 . S
C1871 H1858 0.930 . S
C1871 C1870 1.376 . S
C1871 C1872 1.388 . S
C1872 H1859 0.930 . S
C1872 C1871 1.388 . S
C1872 C1873 1.390 . S
C1873 C1872 1.390 . S
C1873 C1874 1.394 . S
C1873 C1879 1.465 . S
C1874 C1869 1.399 . S
C1874 C1873 1.394 . S
C1874 C1875 1.516 . S
C1875 C1874 1.516 . S
C1875 C1876 1.502 . S
C1875 C1877 1.561 . S
C1875 C1878 1.526 . S
C1876 H1860 0.959 . S
C1876 H1861 0.959 . S
C1876 H1862 0.961 . S
C1876 C1875 1.502 . S
C1877 H1863 0.960 . S
C1877 H1864 0.961 . S
C1877 H1865 0.959 . S
C1877 C1875 1.561 . S
C1878 C1875 1.526 . S
C1878 C1879 1.396 . S
C1878 C1883 1.390 . S
C1879 C1873 1.465 . S
C1879 C1878 1.396 . S
C1879 C1880 1.399 . S
C1880 H1866 0.929 . S
C1880 C1879 1.399 . S
C1880 C1881 1.385 . S
C1881 H1867 0.931 . S
C1881 C1880 1.385 . S
C1881 C1882 1.389 . S
C1882 C1881 1.389 . S
C1882 C1883 1.387 . S
C1883 H1868 0.930 . S
C1883 C1878 1.390 . S
C1883 C1882 1.387 . S
H1884 C1896 0.930 . S
H1885 C1898 0.930 . S
H1886 C1899 0.930 . S
H1887 C1903 0.959 . S
H1888 C1903 0.959 . S
H1889 C1903 0.961 . S
H1890 C1904 0.960 . S
H1891 C1904 0.961 . S
H1892 C1904 0.959 . S
H1893 C1907 0.929 . S
H1894 C1908 0.931 . S
H1895 C1910 0.930 . S
C1896 H1884 0.930 . S
C1896 C1897 1.399 . S
C1896 C1901 1.399 . S
C1897 C1896 1.399 . S
C1897 C1898 1.376 . S
C1898 H1885 0.930 . S
C1898 C1897 1.376 . S
C1898 C1899 1.388 . S
C1899 H1886 0.930 . S
C1899 C1898 1.388 . S
C1899 C1900 1.390 . S
C1900 C1899 1.390 . S
C1900 C1901 1.394 . S
C1900 C1906 1.465 . S
C1901 C1896 1.399 . S
C1901 C1900 1.394 . S
C1901 C1902 1.516 . S
C1902 C1901 1.516 . S
C1902 C1903 1.502 . S
C1902 C1904 1.561 . S
C1902 C1905 1.526 . S
C1903 H1887 0.959 . S
C1903 H1888 0.959 . S
C1903 H1889 0.961 . S
C1903 C1902 1.502 . S
C1904 H1890 0.960 . S
C1904 H1891 0.961 . S
C1904 H1892 0.959 . S
C1904 C1902 1.561 . S
C1905 C1902 1.526 . S
C1905 C1906 1.396 . S
C1905 C1910 1.390 . S
C1906 C1900 1.465 . S
C1906 C1905 1.396 . S
C1906 C1907 1.399 . S
C1907 H1893 0.929 . S
C1907 C1906 1.399 . S
C1907 C1908 1.385 . S
C1908 H1894 0.931 . S
C1908 C1907 1.385 . S
C1908 C1909 1.389 . S
C1909 C1908 1.389 . S
C1909 C1910 1.387 . S
C1910 H1895 0.930 . S
C1910 C1905 1.390 . S
C1910 C1909 1.387 . S
H1911 C1923 0.930 . S
H1912 C1925 0.930 . S
H1913 C1926 0.930 . S
H1914 C1930 0.959 . S
H1915 C1930 0.959 . S
H1916 C1930 0.961 . S
H1917 C1931 0.960 . S
H1918 C1931 0.961 . S
H1919 C1931 0.959 . S
H1920 C1934 0.929 . S
H1921 C1935 0.931 1_545 S
H1922 C1937 0.930 . S
C1923 H1911 0.930 . S
C1923 C1924 1.399 . S
C1923 C1928 1.399 . S
C1924 C1923 1.399 . S
C1924 C1925 1.376 1_565 S
C1925 H1912 0.930 . S
C1925 C1924 1.376 1_545 S
C1925 C1926 1.388 . S
C1926 H1913 0.930 . S
C1926 C1925 1.388 . S
C1926 C1927 1.390 1_545 S
C1927 C1926 1.390 1_565 S
C1927 C1928 1.394 . S
C1927 C1933 1.465 . S
C1928 C1923 1.399 . S
C1928 C1927 1.394 . S
C1928 C1929 1.516 . S
C1929 C1928 1.516 . S
C1929 C1930 1.502 . S
C1929 C1931 1.561 . S
C1929 C1932 1.526 . S
C1930 H1914 0.959 . S
C1930 H1915 0.959 . S
C1930 H1916 0.961 . S
C1930 C1929 1.502 . S
C1931 H1917 0.960 . S
C1931 H1918 0.961 . S
C1931 H1919 0.959 . S
C1931 C1929 1.561 . S
C1932 C1929 1.526 . S
C1932 C1933 1.396 . S
C1932 C1937 1.390 . S
C1933 C1927 1.465 . S
C1933 C1932 1.396 . S
C1933 C1934 1.399 1_565 S
C1934 H1920 0.929 . S
C1934 C1933 1.399 1_545 S
C1934 C1935 1.385 1_545 S
C1935 H1921 0.931 1_565 S
C1935 C1934 1.385 1_565 S
C1935 C1936 1.389 . S
C1936 C1935 1.389 . S
C1936 C1937 1.387 . S
C1937 H1922 0.930 . S
C1937 C1932 1.390 . S
C1937 C1936 1.387 . S
H1938 C1950 0.930 . S
H1939 C1952 0.930 . S
H1940 C1953 0.930 . S
H1941 C1957 0.959 . S
H1942 C1957 0.959 . S
H1943 C1957 0.961 . S
H1944 C1958 0.960 . S
H1945 C1958 0.961 . S
H1946 C1958 0.959 . S
H1947 C1961 0.929 . S
H1948 C1962 0.931 . S
H1949 C1964 0.930 . S
C1950 H1938 0.930 . S
C1950 C1951 1.399 . S
C1950 C1955 1.399 . S
C1951 C1950 1.399 . S
C1951 C1952 1.376 . S
C1952 H1939 0.930 . S
C1952 C1951 1.376 . S
C1952 C1953 1.388 . S
C1953 H1940 0.930 . S
C1953 C1952 1.388 . S
C1953 C1954 1.390 . S
C1954 C1953 1.390 . S
C1954 C1955 1.394 . S
C1954 C1960 1.465 . S
C1955 C1950 1.399 . S
C1955 C1954 1.394 . S
C1955 C1956 1.516 . S
C1956 C1955 1.516 . S
C1956 C1957 1.502 . S
C1956 C1958 1.561 . S
C1956 C1959 1.526 . S
C1957 H1941 0.959 . S
C1957 H1942 0.959 . S
C1957 H1943 0.961 . S
C1957 C1956 1.502 . S
C1958 H1944 0.960 . S
C1958 H1945 0.961 . S
C1958 H1946 0.959 . S
C1958 C1956 1.561 . S
C1959 C1956 1.526 . S
C1959 C1960 1.396 . S
C1959 C1964 1.390 . S
C1960 C1954 1.465 . S
C1960 C1959 1.396 . S
C1960 C1961 1.399 . S
C1961 H1947 0.929 . S
C1961 C1960 1.399 . S
C1961 C1962 1.385 . S
C1962 H1948 0.931 . S
C1962 C1961 1.385 . S
C1962 C1963 1.389 . S
C1963 C1962 1.389 . S
C1963 C1964 1.387 . S
C1964 H1949 0.930 . S
C1964 C1959 1.390 . S
C1964 C1963 1.387 . S
H1965 C1977 0.930 . S
H1966 C1979 0.930 . S
H1967 C1980 0.930 . S
H1968 C1984 0.959 . S
H1969 C1984 0.959 . S
H1970 C1984 0.961 . S
H1971 C1985 0.960 1_565 S
H1972 C1985 0.961 . S
H1973 C1985 0.959 1_565 S
H1974 C1988 0.929 . S
H1975 C1989 0.931 . S
H1976 C1991 0.930 . S
C1977 H1965 0.930 . S
C1977 C1978 1.399 . S
C1977 C1982 1.399 . S
C1978 C1977 1.399 . S
C1978 C1979 1.376 . S
C1979 H1966 0.930 . S
C1979 C1978 1.376 . S
C1979 C1980 1.388 . S
C1980 H1967 0.930 . S
C1980 C1979 1.388 . S
C1980 C1981 1.390 . S
C1981 C1980 1.390 . S
C1981 C1982 1.394 . S
C1981 C1987 1.465 . S
C1982 C1977 1.399 . S
C1982 C1981 1.394 . S
C1982 C1983 1.516 . S
C1983 C1982 1.516 . S
C1983 C1984 1.502 . S
C1983 C1985 1.561 . S
C1983 C1986 1.526 . S
C1984 H1968 0.959 . S
C1984 H1969 0.959 . S
C1984 H1970 0.961 . S
C1984 C1983 1.502 . S
C1985 H1971 0.960 1_545 S
C1985 H1972 0.961 . S
C1985 H1973 0.959 1_545 S
C1985 C1983 1.561 . S
C1986 C1983 1.526 . S
C1986 C1987 1.396 . S
C1986 C1991 1.390 . S
C1987 C1981 1.465 . S
C1987 C1986 1.396 . S
C1987 C1988 1.399 . S
C1988 H1974 0.929 . S
C1988 C1987 1.399 . S
C1988 C1989 1.385 . S
C1989 H1975 0.931 . S
C1989 C1988 1.385 . S
C1989 C1990 1.389 . S
C1990 C1989 1.389 . S
C1990 C1991 1.387 . S
C1991 H1976 0.930 . S
C1991 C1986 1.390 . S
C1991 C1990 1.387 . S
H1992 C2004 0.930 . S
H1993 C2006 0.930 . S
H1994 C2007 0.930 . S
H1995 C2011 0.959 . S
H1996 C2011 0.959 . S
H1997 C2011 0.961 . S
H1998 C2012 0.960 . S
H1999 C2012 0.961 . S
H2000 C2012 0.959 . S
H2001 C2015 0.929 . S
H2002 C2016 0.931 . S
H2003 C2018 0.930 . S
C2004 H1992 0.930 . S
C2004 C2005 1.399 . S
C2004 C2009 1.399 . S
C2005 C2004 1.399 . S
C2005 C2006 1.376 . S
C2006 H1993 0.930 . S
C2006 C2005 1.376 . S
C2006 C2007 1.388 . S
C2007 H1994 0.930 . S
C2007 C2006 1.388 . S
C2007 C2008 1.390 . S
C2008 C2007 1.390 . S
C2008 C2009 1.394 . S
C2008 C2014 1.465 . S
C2009 C2004 1.399 . S
C2009 C2008 1.394 . S
C2009 C2010 1.516 . S
C2010 C2009 1.516 . S
C2010 C2011 1.502 . S
C2010 C2012 1.561 . S
C2010 C2013 1.526 . S
C2011 H1995 0.959 . S
C2011 H1996 0.959 . S
C2011 H1997 0.961 . S
C2011 C2010 1.502 . S
C2012 H1998 0.960 . S
C2012 H1999 0.961 . S
C2012 H2000 0.959 . S
C2012 C2010 1.561 . S
C2013 C2010 1.526 . S
C2013 C2014 1.396 . S
C2013 C2018 1.390 . S
C2014 C2008 1.465 . S
C2014 C2013 1.396 . S
C2014 C2015 1.399 . S
C2015 H2001 0.929 . S
C2015 C2014 1.399 . S
C2015 C2016 1.385 . S
C2016 H2002 0.931 . S
C2016 C2015 1.385 . S
C2016 C2017 1.389 . S
C2017 C2016 1.389 . S
C2017 C2018 1.387 . S
C2018 H2003 0.930 . S
C2018 C2013 1.390 . S
C2018 C2017 1.387 . S
H2019 C2031 0.930 . S
H2020 C2033 0.930 . S
H2021 C2034 0.930 . S
H2022 C2038 0.959 1_554 S
H2023 C2038 0.959 . S
H2024 C2038 0.961 . S
H2025 C2039 0.960 . S
H2026 C2039 0.961 . S
H2027 C2039 0.959 . S
H2028 C2042 0.929 . S
H2029 C2043 0.931 . S
H2030 C2045 0.930 . S
C2031 H2019 0.930 . S
C2031 C2032 1.399 1_556 S
C2031 C2036 1.399 . S
C2032 C2031 1.399 1_554 S
C2032 C2033 1.376 . S
C2033 H2020 0.930 . S
C2033 C2032 1.376 . S
C2033 C2034 1.388 . S
C2034 H2021 0.930 . S
C2034 C2033 1.388 . S
C2034 C2035 1.390 . S
C2035 C2034 1.390 . S
C2035 C2036 1.394 1_554 S
C2035 C2041 1.461 1_554 S
C2036 C2031 1.399 . S
C2036 C2035 1.394 1_556 S
C2036 C2037 1.516 . S
C2037 C2036 1.516 . S
C2037 C2038 1.502 . S
C2037 C2039 1.561 . S
C2037 C2040 1.526 . S
C2038 H2022 0.959 1_556 S
C2038 H2023 0.959 . S
C2038 H2024 0.961 . S
C2038 C2037 1.502 . S
C2039 H2025 0.960 . S
C2039 H2026 0.961 . S
C2039 H2027 0.959 . S
C2039 C2037 1.561 . S
C2040 C2037 1.526 . S
C2040 C2041 1.417 . S
C2040 C2045 1.390 . S
C2041 C2035 1.461 1_556 S
C2041 C2040 1.417 . S
C2041 C2042 1.387 1_556 S
C2042 H2028 0.929 . S
C2042 C2041 1.387 1_554 S
C2042 C2043 1.385 . S
C2043 H2029 0.931 . S
C2043 C2042 1.385 . S
C2043 C2044 1.389 1_554 S
C2044 C2043 1.389 1_556 S
C2044 C2045 1.387 . S
C2045 H2030 0.930 . S
C2045 C2040 1.390 . S
C2045 C2044 1.387 . S
H2046 C2058 0.930 . S
H2047 C2060 0.930 . S
H2048 C2061 0.930 . S
H2049 C2065 0.959 . S
H2050 C2065 0.959 . S
H2051 C2065 0.961 . S
H2052 C2066 0.960 . S
H2053 C2066 0.961 . S
H2054 C2066 0.959 . S
H2055 C2069 0.929 . S
H2056 C2070 0.928 . S
H2057 C2072 0.930 . S
C2058 H2046 0.930 . S
C2058 C2059 1.399 1_556 S
C2058 C2063 1.399 . S
C2059 C2058 1.399 1_554 S
C2059 C2060 1.376 . S
C2060 H2047 0.930 . S
C2060 C2059 1.376 . S
C2060 C2061 1.388 . S
C2061 H2048 0.930 . S
C2061 C2060 1.388 . S
C2061 C2062 1.390 1_554 S
C2062 C2061 1.390 1_556 S
C2062 C2063 1.394 . S
C2062 C2068 1.465 . S
C2063 C2058 1.399 . S
C2063 C2062 1.394 . S
C2063 C2064 1.516 . S
C2064 C2063 1.516 . S
C2064 C2065 1.502 . S
C2064 C2066 1.561 . S
C2064 C2067 1.526 . S
C2065 H2049 0.959 . S
C2065 H2050 0.959 . S
C2065 H2051 0.961 . S
C2065 C2064 1.502 . S
C2066 H2052 0.960 . S
C2066 H2053 0.961 . S
C2066 H2054 0.959 . S
C2066 C2064 1.561 . S
C2067 C2064 1.526 . S
C2067 C2068 1.396 . S
C2067 C2072 1.390 . S
C2068 C2062 1.465 . S
C2068 C2067 1.396 . S
C2068 C2069 1.399 1_556 S
C2069 H2055 0.929 . S
C2069 C2068 1.399 1_554 S
C2069 C2070 1.385 1_554 S
C2070 H2056 0.928 . S
C2070 C2069 1.385 1_556 S
C2070 C2071 1.389 . S
C2071 C2070 1.389 . S
C2071 C2072 1.387 . S
C2072 H2057 0.930 . S
C2072 C2067 1.390 . S
C2072 C2071 1.387 . S
H2073 C2085 0.930 . S
H2074 C2087 0.930 . S
H2075 C2088 0.930 1_556 S
H2076 C2092 0.959 . S
H2077 C2092 0.959 . S
H2078 C2092 0.961 . S
H2079 C2093 0.960 . S
H2080 C2093 0.961 . S
H2081 C2093 0.959 . S
H2082 C2096 0.911 1_556 S
H2083 C2097 0.931 1_556 S
H2084 C2099 0.930 . S
C2085 H2073 0.930 . S
C2085 C2086 1.399 . S
C2085 C2090 1.399 . S
C2086 C2085 1.399 . S
C2086 C2087 1.376 . S
C2087 H2074 0.930 . S
C2087 C2086 1.376 . S
C2087 C2088 1.388 . S
C2088 H2075 0.930 1_554 S
C2088 C2087 1.388 . S
C2088 C2089 1.390 . S
C2089 C2088 1.390 . S
C2089 C2090 1.394 . S
C2089 C2095 1.465 . S
C2090 C2085 1.399 . S
C2090 C2089 1.394 . S
C2090 C2091 1.516 . S
C2091 C2090 1.516 . S
C2091 C2092 1.502 . S
C2091 C2093 1.561 . S
C2091 C2094 1.526 . S
C2092 H2076 0.959 . S
C2092 H2077 0.959 . S
C2092 H2078 0.961 . S
C2092 C2091 1.502 . S
C2093 H2079 0.960 . S
C2093 H2080 0.961 . S
C2093 H2081 0.959 . S
C2093 C2091 1.561 . S
C2094 C2091 1.526 . S
C2094 C2095 1.396 . S
C2094 C2099 1.390 . S
C2095 C2089 1.465 . S
C2095 C2094 1.396 . S
C2095 C2096 1.418 . S
C2096 H2082 0.911 1_554 S
C2096 C2095 1.418 . S
C2096 C2097 1.385 . S
C2097 H2083 0.931 1_554 S
C2097 C2096 1.385 . S
C2097 C2098 1.389 . S
C2098 C2097 1.389 . S
C2098 C2099 1.387 . S
C2099 H2084 0.930 . S
C2099 C2094 1.390 . S
C2099 C2098 1.387 . S
C817 C22 1.968 . S
C829 C696 1.848 1_545 S
C856 C715 1.958 . S
C844 C38 1.984 . S
C883 C653 1.649 1_565 S
C871 C75 1.676 . S
C898 C91 1.597 . S
C910 C674 1.619 . S
C925 C128 1.621 . S
C937 C801 1.423 1_554 S
C952 C197 1.456 . S
C964 C779 1.485 . S
C991 C736 1.910 . S
C979 C144 1.953 . S
C1006 C181 1.556 . S
C1018 C757 1.513 . S
C1045 C675 1.552 . S
C1033 C234 1.710 . S
C1072 C716 1.565 1_455 S
C1060 C303 1.623 . S
C1087 C356 1.825 . S
C1099 C694 1.813 . S
C1114 C287 1.700 . S
C1126 C759 1.495 . S
C1153 C780 1.766 . S
C1141 C393 1.885 . S
C1180 C799 1.975 1_565 S
C1168 C409 1.998 . S
C1195 C462 1.763 . S
C1207 C758 1.807 . S
C1234 C737 1.538 1_545 S
C1222 C446 1.571 . S
C1249 C499 1.586 . S
C1261 C717 1.338 . S
C1276 C552 1.428 . S
C1288 C695 1.479 . S
C1315 C673 1.771 . S
C1303 C515 1.833 . S
C1330 C568 1.738 . S
C1342 C652 1.698 . S
C1369 C738 1.655 . S
C1357 C340 1.759 . S
C1396 C800 1.513 . S
C1384 C621 1.576 . S
C1411 C250 1.727 . S
C1423 C778 1.723 . S
C1438 C605 1.621 . S
C1450 C654 1.470 1_655 S
C1477 C650 1.251 . S
C1465 C39 1.243 . S
C1492 C29 1.092 . S
C1504 C671 1.069 . S
C1531 C691 1.292 . S
C1519 C92 1.382 . S
C1558 C714 1.318 . S
C1546 C82 1.664 . S
C1573 C145 1.203 . S
C1585 C651 0.900 . S
C1600 C188 1.607 . S
C1612 C672 1.192 . S
C1639 C692 1.106 . S
C1627 C135 1.077 . S
C1654 C198 1.177 . S
C1666 C712 1.161 . S
C1681 C251 1.037 . S
C1693 C649 1.039 . S
C1720 C693 1.248 . S
C1708 C294 1.560 . S
C1735 C347 1.503 . S
C1747 C713 1.484 . S
C1762 C304 1.228 . S
C1774 C733 1.081 . S
C1801 C755 1.189 . S
C1789 C410 1.335 . S
C1816 C400 1.088 . S
C1828 C734 1.143 . S
C1843 C453 1.187 . S
C1855 C775 1.087 . S
C1870 C463 1.982 . S
C1882 C798 1.638 . S
C1897 C516 1.216 . S
C1909 C756 0.896 . S
C1936 C735 1.595 . S
C1924 C569 1.935 . S
C1951 C506 0.968 . S
C1963 C776 0.915 . S
C1990 C796 0.954 . S
C1978 C559 0.945 . S
C2017 C754 0.900 . S
C2005 C357 1.012 . S
C2044 C777 1.334 . S
C2032 C612 1.599 . S
C2071 C797 1.447 . S
C2059 C241 1.450 . S
C2086 C622 1.169 . S
C2098 C670 1.146 . S
