# Generated by pormake.
# Topology gar, (4,6)-cn, num edge types: 1
# Building blocks:
#     Node 0, Type 0, BuildingBlock: TATPOV_clean_sbu_0, # of connection points: 4
#     Node 1, Type 0, BuildingBlock: TATPOV_clean_sbu_0, # of connection points: 4
#     Node 2, Type 0, BuildingBlock: TATPOV_clean_sbu_0, # of connection points: 4
#     Node 3, Type 0, BuildingBlock: TATPOV_clean_sbu_0, # of connection points: 4
#     Node 4, Type 0, BuildingBlock: TATPOV_clean_sbu_0, # of connection points: 4
#     Node 5, Type 0, BuildingBlock: TATPOV_clean_sbu_0, # of connection points: 4
#     Node 6, Type 0, BuildingBlock: TATPOV_clean_sbu_0, # of connection points: 4
#     Node 7, Type 0, BuildingBlock: TATPOV_clean_sbu_0, # of connection points: 4
#     Node 8, Type 0, BuildingBlock: TATPOV_clean_sbu_0, # of connection points: 4
#     Node 9, Type 0, BuildingBlock: TATPOV_clean_sbu_0, # of connection points: 4
#     Node 10, Type 0, BuildingBlock: TATPOV_clean_sbu_0, # of connection points: 4
#     Node 11, Type 0, BuildingBlock: TATPOV_clean_sbu_0, # of connection points: 4
#     Node 12, Type 0, BuildingBlock: TATPOV_clean_sbu_0, # of connection points: 4
#     Node 13, Type 0, BuildingBlock: TATPOV_clean_sbu_0, # of connection points: 4
#     Node 14, Type 0, BuildingBlock: TATPOV_clean_sbu_0, # of connection points: 4
#     Node 15, Type 0, BuildingBlock: TATPOV_clean_sbu_0, # of connection points: 4
#     Node 16, Type 0, BuildingBlock: TATPOV_clean_sbu_0, # of connection points: 4
#     Node 17, Type 0, BuildingBlock: TATPOV_clean_sbu_0, # of connection points: 4
#     Node 18, Type 0, BuildingBlock: TATPOV_clean_sbu_0, # of connection points: 4
#     Node 19, Type 0, BuildingBlock: TATPOV_clean_sbu_0, # of connection points: 4
#     Node 20, Type 0, BuildingBlock: TATPOV_clean_sbu_0, # of connection points: 4
#     Node 21, Type 0, BuildingBlock: TATPOV_clean_sbu_0, # of connection points: 4
#     Node 22, Type 0, BuildingBlock: TATPOV_clean_sbu_0, # of connection points: 4
#     Node 23, Type 0, BuildingBlock: TATPOV_clean_sbu_0, # of connection points: 4
#     Node 24, Type 1, BuildingBlock: KUMBOL_clean_sbu_1, # of connection points: 6
#     Node 25, Type 1, BuildingBlock: KUMBOL_clean_sbu_1, # of connection points: 6
#     Node 26, Type 1, BuildingBlock: KUMBOL_clean_sbu_1, # of connection points: 6
#     Node 27, Type 1, BuildingBlock: KUMBOL_clean_sbu_1, # of connection points: 6
#     Node 28, Type 1, BuildingBlock: KUMBOL_clean_sbu_1, # of connection points: 6
#     Node 29, Type 1, BuildingBlock: KUMBOL_clean_sbu_1, # of connection points: 6
#     Node 30, Type 1, BuildingBlock: KUMBOL_clean_sbu_1, # of connection points: 6
#     Node 31, Type 1, BuildingBlock: KUMBOL_clean_sbu_1, # of connection points: 6
#     Node 32, Type 1, BuildingBlock: KUMBOL_clean_sbu_1, # of connection points: 6
#     Node 33, Type 1, BuildingBlock: KUMBOL_clean_sbu_1, # of connection points: 6
#     Node 34, Type 1, BuildingBlock: KUMBOL_clean_sbu_1, # of connection points: 6
#     Node 35, Type 1, BuildingBlock: KUMBOL_clean_sbu_1, # of connection points: 6
#     Node 36, Type 1, BuildingBlock: KUMBOL_clean_sbu_1, # of connection points: 6
#     Node 37, Type 1, BuildingBlock: KUMBOL_clean_sbu_1, # of connection points: 6
#     Node 38, Type 1, BuildingBlock: KUMBOL_clean_sbu_1, # of connection points: 6
#     Node 39, Type 1, BuildingBlock: KUMBOL_clean_sbu_1, # of connection points: 6
#     Edge 40, Type (0, 1), BuildingBlock: MIFKUJ_clean_linker_0, # of connection points: 2
#     Edge 41, Type (0, 1), BuildingBlock: MIFKUJ_clean_linker_0, # of connection points: 2
#     Edge 42, Type (0, 1), BuildingBlock: MIFKUJ_clean_linker_0, # of connection points: 2
#     Edge 43, Type (0, 1), BuildingBlock: MIFKUJ_clean_linker_0, # of connection points: 2
#     Edge 44, Type (0, 1), BuildingBlock: MIFKUJ_clean_linker_0, # of connection points: 2
#     Edge 45, Type (0, 1), BuildingBlock: MIFKUJ_clean_linker_0, # of connection points: 2
#     Edge 46, Type (0, 1), BuildingBlock: MIFKUJ_clean_linker_0, # of connection points: 2
#     Edge 47, Type (0, 1), BuildingBlock: MIFKUJ_clean_linker_0, # of connection points: 2
#     Edge 48, Type (0, 1), BuildingBlock: MIFKUJ_clean_linker_0, # of connection points: 2
#     Edge 49, Type (0, 1), BuildingBlock: MIFKUJ_clean_linker_0, # of connection points: 2
#     Edge 50, Type (0, 1), BuildingBlock: MIFKUJ_clean_linker_0, # of connection points: 2
#     Edge 51, Type (0, 1), BuildingBlock: MIFKUJ_clean_linker_0, # of connection points: 2
#     Edge 52, Type (0, 1), BuildingBlock: MIFKUJ_clean_linker_0, # of connection points: 2
#     Edge 53, Type (0, 1), BuildingBlock: MIFKUJ_clean_linker_0, # of connection points: 2
#     Edge 54, Type (0, 1), BuildingBlock: MIFKUJ_clean_linker_0, # of connection points: 2
#     Edge 55, Type (0, 1), BuildingBlock: MIFKUJ_clean_linker_0, # of connection points: 2
#     Edge 56, Type (0, 1), BuildingBlock: MIFKUJ_clean_linker_0, # of connection points: 2
#     Edge 57, Type (0, 1), BuildingBlock: MIFKUJ_clean_linker_0, # of connection points: 2
#     Edge 58, Type (0, 1), BuildingBlock: MIFKUJ_clean_linker_0, # of connection points: 2
#     Edge 59, Type (0, 1), BuildingBlock: MIFKUJ_clean_linker_0, # of connection points: 2
#     Edge 60, Type (0, 1), BuildingBlock: MIFKUJ_clean_linker_0, # of connection points: 2
#     Edge 61, Type (0, 1), BuildingBlock: MIFKUJ_clean_linker_0, # of connection points: 2
#     Edge 62, Type (0, 1), BuildingBlock: MIFKUJ_clean_linker_0, # of connection points: 2
#     Edge 63, Type (0, 1), BuildingBlock: MIFKUJ_clean_linker_0, # of connection points: 2
#     Edge 64, Type (0, 1), BuildingBlock: MIFKUJ_clean_linker_0, # of connection points: 2
#     Edge 65, Type (0, 1), BuildingBlock: MIFKUJ_clean_linker_0, # of connection points: 2
#     Edge 66, Type (0, 1), BuildingBlock: MIFKUJ_clean_linker_0, # of connection points: 2
#     Edge 67, Type (0, 1), BuildingBlock: MIFKUJ_clean_linker_0, # of connection points: 2
#     Edge 68, Type (0, 1), BuildingBlock: MIFKUJ_clean_linker_0, # of connection points: 2
#     Edge 69, Type (0, 1), BuildingBlock: MIFKUJ_clean_linker_0, # of connection points: 2
#     Edge 70, Type (0, 1), BuildingBlock: MIFKUJ_clean_linker_0, # of connection points: 2
#     Edge 71, Type (0, 1), BuildingBlock: MIFKUJ_clean_linker_0, # of connection points: 2
#     Edge 72, Type (0, 1), BuildingBlock: MIFKUJ_clean_linker_0, # of connection points: 2
#     Edge 73, Type (0, 1), BuildingBlock: MIFKUJ_clean_linker_0, # of connection points: 2
#     Edge 74, Type (0, 1), BuildingBlock: MIFKUJ_clean_linker_0, # of connection points: 2
#     Edge 75, Type (0, 1), BuildingBlock: MIFKUJ_clean_linker_0, # of connection points: 2
#     Edge 76, Type (0, 1), BuildingBlock: MIFKUJ_clean_linker_0, # of connection points: 2
#     Edge 77, Type (0, 1), BuildingBlock: MIFKUJ_clean_linker_0, # of connection points: 2
#     Edge 78, Type (0, 1), BuildingBlock: MIFKUJ_clean_linker_0, # of connection points: 2
#     Edge 79, Type (0, 1), BuildingBlock: MIFKUJ_clean_linker_0, # of connection points: 2
#     Edge 80, Type (0, 1), BuildingBlock: MIFKUJ_clean_linker_0, # of connection points: 2
#     Edge 81, Type (0, 1), BuildingBlock: MIFKUJ_clean_linker_0, # of connection points: 2
#     Edge 82, Type (0, 1), BuildingBlock: MIFKUJ_clean_linker_0, # of connection points: 2
#     Edge 83, Type (0, 1), BuildingBlock: MIFKUJ_clean_linker_0, # of connection points: 2
#     Edge 84, Type (0, 1), BuildingBlock: MIFKUJ_clean_linker_0, # of connection points: 2
#     Edge 85, Type (0, 1), BuildingBlock: MIFKUJ_clean_linker_0, # of connection points: 2
#     Edge 86, Type (0, 1), BuildingBlock: MIFKUJ_clean_linker_0, # of connection points: 2
#     Edge 87, Type (0, 1), BuildingBlock: MIFKUJ_clean_linker_0, # of connection points: 2
#     Edge 88, Type (0, 1), BuildingBlock: MIFKUJ_clean_linker_0, # of connection points: 2
#     Edge 89, Type (0, 1), BuildingBlock: MIFKUJ_clean_linker_0, # of connection points: 2
#     Edge 90, Type (0, 1), BuildingBlock: MIFKUJ_clean_linker_0, # of connection points: 2
#     Edge 91, Type (0, 1), BuildingBlock: MIFKUJ_clean_linker_0, # of connection points: 2
#     Edge 92, Type (0, 1), BuildingBlock: MIFKUJ_clean_linker_0, # of connection points: 2
#     Edge 93, Type (0, 1), BuildingBlock: MIFKUJ_clean_linker_0, # of connection points: 2
#     Edge 94, Type (0, 1), BuildingBlock: MIFKUJ_clean_linker_0, # of connection points: 2
#     Edge 95, Type (0, 1), BuildingBlock: MIFKUJ_clean_linker_0, # of connection points: 2
#     Edge 96, Type (0, 1), BuildingBlock: MIFKUJ_clean_linker_0, # of connection points: 2
#     Edge 97, Type (0, 1), BuildingBlock: MIFKUJ_clean_linker_0, # of connection points: 2
#     Edge 98, Type (0, 1), BuildingBlock: MIFKUJ_clean_linker_0, # of connection points: 2
#     Edge 99, Type (0, 1), BuildingBlock: MIFKUJ_clean_linker_0, # of connection points: 2
#     Edge 100, Type (0, 1), BuildingBlock: MIFKUJ_clean_linker_0, # of connection points: 2
#     Edge 101, Type (0, 1), BuildingBlock: MIFKUJ_clean_linker_0, # of connection points: 2
#     Edge 102, Type (0, 1), BuildingBlock: MIFKUJ_clean_linker_0, # of connection points: 2
#     Edge 103, Type (0, 1), BuildingBlock: MIFKUJ_clean_linker_0, # of connection points: 2
#     Edge 104, Type (0, 1), BuildingBlock: MIFKUJ_clean_linker_0, # of connection points: 2
#     Edge 105, Type (0, 1), BuildingBlock: MIFKUJ_clean_linker_0, # of connection points: 2
#     Edge 106, Type (0, 1), BuildingBlock: MIFKUJ_clean_linker_0, # of connection points: 2
#     Edge 107, Type (0, 1), BuildingBlock: MIFKUJ_clean_linker_0, # of connection points: 2
#     Edge 108, Type (0, 1), BuildingBlock: MIFKUJ_clean_linker_0, # of connection points: 2
#     Edge 109, Type (0, 1), BuildingBlock: MIFKUJ_clean_linker_0, # of connection points: 2
#     Edge 110, Type (0, 1), BuildingBlock: MIFKUJ_clean_linker_0, # of connection points: 2
#     Edge 111, Type (0, 1), BuildingBlock: MIFKUJ_clean_linker_0, # of connection points: 2
#     Edge 112, Type (0, 1), BuildingBlock: MIFKUJ_clean_linker_0, # of connection points: 2
#     Edge 113, Type (0, 1), BuildingBlock: MIFKUJ_clean_linker_0, # of connection points: 2
#     Edge 114, Type (0, 1), BuildingBlock: MIFKUJ_clean_linker_0, # of connection points: 2
#     Edge 115, Type (0, 1), BuildingBlock: MIFKUJ_clean_linker_0, # of connection points: 2
#     Edge 116, Type (0, 1), BuildingBlock: MIFKUJ_clean_linker_0, # of connection points: 2
#     Edge 117, Type (0, 1), BuildingBlock: MIFKUJ_clean_linker_0, # of connection points: 2
#     Edge 118, Type (0, 1), BuildingBlock: MIFKUJ_clean_linker_0, # of connection points: 2
#     Edge 119, Type (0, 1), BuildingBlock: MIFKUJ_clean_linker_0, # of connection points: 2
#     Edge 120, Type (0, 1), BuildingBlock: MIFKUJ_clean_linker_0, # of connection points: 2
#     Edge 121, Type (0, 1), BuildingBlock: MIFKUJ_clean_linker_0, # of connection points: 2
#     Edge 122, Type (0, 1), BuildingBlock: MIFKUJ_clean_linker_0, # of connection points: 2
#     Edge 123, Type (0, 1), BuildingBlock: MIFKUJ_clean_linker_0, # of connection points: 2
#     Edge 124, Type (0, 1), BuildingBlock: MIFKUJ_clean_linker_0, # of connection points: 2
#     Edge 125, Type (0, 1), BuildingBlock: MIFKUJ_clean_linker_0, # of connection points: 2
#     Edge 126, Type (0, 1), BuildingBlock: MIFKUJ_clean_linker_0, # of connection points: 2
#     Edge 127, Type (0, 1), BuildingBlock: MIFKUJ_clean_linker_0, # of connection points: 2
#     Edge 128, Type (0, 1), BuildingBlock: MIFKUJ_clean_linker_0, # of connection points: 2
#     Edge 129, Type (0, 1), BuildingBlock: MIFKUJ_clean_linker_0, # of connection points: 2
#     Edge 130, Type (0, 1), BuildingBlock: MIFKUJ_clean_linker_0, # of connection points: 2
#     Edge 131, Type (0, 1), BuildingBlock: MIFKUJ_clean_linker_0, # of connection points: 2
#     Edge 132, Type (0, 1), BuildingBlock: MIFKUJ_clean_linker_0, # of connection points: 2
#     Edge 133, Type (0, 1), BuildingBlock: MIFKUJ_clean_linker_0, # of connection points: 2
#     Edge 134, Type (0, 1), BuildingBlock: MIFKUJ_clean_linker_0, # of connection points: 2
#     Edge 135, Type (0, 1), BuildingBlock: MIFKUJ_clean_linker_0, # of connection points: 2
# Relax obj value: 0.073
# Max RMSD: 0.177
# Mean RMSD: 0.128
data_MOF--net-gar--node1-TATPOV_clean_sbu_0--node2-KUMBOL_clean_sbu_1--edge1-MIFKUJ_clean_linker_0
_symmetry_space_group_name_H-M    P1
_symmetry_Int_Tables_number       1
_symmetry_cell_setting            triclinic
loop_
_symmetry_equiv_pos_as_xyz
'x, y, z'
_cell_length_a     76.488492
_cell_length_b     76.484888
_cell_length_c     72.443827
_cell_angle_alpha  95.915222
_cell_angle_beta   96.344767
_cell_angle_gamma 102.50203
loop_
_atom_site_label
_atom_site_type_symbol
_atom_site_fract_x
_atom_site_fract_y
_atom_site_fract_z
_atom_type_partial_charge
Zn0 Zn 0.01809 0.29652 0.37766 0.0
Zn1 Zn 0.04078 0.29798 0.35526 0.0
O2 O 0.04669 0.32457 0.37184 0.0
O3 O 0.0249 0.32152 0.38969 0.0
O4 O 0.06364 0.29542 0.34098 0.0
O5 O 0.02307 0.2779 0.39266 0.0
O6 O 0.03989 0.27508 0.37028 0.0
C7 C 0.03844 0.33127 0.38445 0.0
C8 C 0.99984 0.29227 0.34068 0.0
O9 O 0.01604 0.29541 0.33637 0.0
O10 O 0.99739 0.29065 0.35744 0.0
C11 C 0.07366 0.30537 0.33115 0.0
O12 O 0.06971 0.32068 0.32762 0.0
C13 C 0.03317 0.26948 0.38465 0.0
Zn14 Zn 0.01159 0.72571 0.7002 0.0
Zn15 Zn 0.0146 0.75096 0.67786 0.0
O16 O 0.99041 0.75147 0.69038 0.0
O17 O 0.98957 0.73255 0.71123 0.0
O18 O 0.01673 0.77369 0.66432 0.0
O19 O 0.03799 0.73491 0.71297 0.0
O20 O 0.04105 0.75516 0.69347 0.0
C21 C 0.98258 0.74389 0.70324 0.0
C22 C 0.00902 0.71176 0.65993 0.0
O23 O 0.01144 0.72843 0.65762 0.0
O24 O 0.00808 0.70719 0.67623 0.0
C25 C 0.01342 0.77377 0.6467 0.0
O26 O 0.0084 0.7583 0.63568 0.0
C27 C 0.04812 0.74752 0.70639 0.0
Zn28 Zn 0.52103 0.79754 0.87941 0.0
Zn29 Zn 0.54093 0.79835 0.85557 0.0
O30 O 0.5467 0.82553 0.87137 0.0
O31 O 0.52952 0.82134 0.89375 0.0
O32 O 0.56324 0.79593 0.84066 0.0
O33 O 0.52319 0.77688 0.89201 0.0
O34 O 0.54116 0.77532 0.87057 0.0
C35 C 0.5408 0.83177 0.88612 0.0
C36 C 0.50006 0.79358 0.84346 0.0
O37 O 0.5154 0.79449 0.83736 0.0
O38 O 0.49953 0.7943 0.86086 0.0
C39 C 0.57281 0.80545 0.83018 0.0
O40 O 0.56859 0.82049 0.82606 0.0
C41 C 0.53355 0.76876 0.88408 0.0
Zn42 Zn 0.51418 0.22736 0.20232 0.0
Zn43 Zn 0.51517 0.25131 0.17872 0.0
O44 O 0.4918 0.25254 0.19256 0.0
O45 O 0.49078 0.23206 0.21183 0.0
O46 O 0.51774 0.27331 0.1641 0.0
O47 O 0.53994 0.23858 0.21601 0.0
O48 O 0.54191 0.25546 0.19324 0.0
C49 C 0.48394 0.24401 0.20486 0.0
C50 C 0.51125 0.2123 0.16215 0.0
O51 O 0.51089 0.22835 0.1589 0.0
O52 O 0.51271 0.20882 0.17896 0.0
C53 C 0.5086 0.27377 0.1484 0.0
O54 O 0.49655 0.25921 0.14048 0.0
C55 C 0.54955 0.24985 0.2074 0.0
Zn56 Zn 0.06935 0.78403 0.08042 0.0
Zn57 Zn 0.04643 0.7828 0.10471 0.0
O58 O 0.0455 0.80684 0.09172 0.0
O59 O 0.06397 0.80708 0.0706 0.0
O60 O 0.02444 0.78024 0.11918 0.0
O61 O 0.05844 0.75825 0.06691 0.0
O62 O 0.0421 0.75613 0.09001 0.0
C63 C 0.05312 0.81454 0.07878 0.0
C64 C 0.08552 0.7866 0.12048 0.0
O65 O 0.06952 0.78639 0.12418 0.0
O66 O 0.08856 0.78589 0.10353 0.0
C67 C 0.02453 0.78751 0.13585 0.0
O68 O 0.03978 0.79745 0.1451 0.0
C69 C 0.04748 0.74857 0.07575 0.0
Zn70 Zn 0.47504 0.75417 0.44791 0.0
Zn71 Zn 0.50122 0.7583 0.42682 0.0
O72 O 0.50614 0.78424 0.44243 0.0
O73 O 0.48516 0.78026 0.46105 0.0
O74 O 0.52327 0.75895 0.41242 0.0
O75 O 0.48066 0.73153 0.45799 0.0
O76 O 0.50289 0.73519 0.441 0.0
C77 C 0.49812 0.79068 0.45523 0.0
C78 C 0.46112 0.75337 0.4088 0.0
O79 O 0.47793 0.75598 0.40684 0.0
O80 O 0.45628 0.75139 0.42478 0.0
C81 C 0.52904 0.7697 0.40095 0.0
O82 O 0.52025 0.7821 0.39697 0.0
C83 C 0.49396 0.72622 0.45231 0.0
Zn84 Zn 0.57093 0.28451 0.5818 0.0
Zn85 Zn 0.54697 0.28248 0.60498 0.0
O86 O 0.54557 0.30608 0.59151 0.0
O87 O 0.5661 0.30789 0.57249 0.0
O88 O 0.52479 0.28052 0.61906 0.0
O89 O 0.5601 0.25855 0.56817 0.0
O90 O 0.54257 0.25592 0.59025 0.0
C91 C 0.55415 0.31452 0.57961 0.0
C92 C 0.58646 0.28741 0.62173 0.0
O93 O 0.57012 0.28627 0.62489 0.0
O94 O 0.58994 0.28703 0.60496 0.0
C95 C 0.52518 0.28512 0.63654 0.0
O96 O 0.54088 0.29139 0.64705 0.0
C97 C 0.54858 0.24864 0.57627 0.0
Zn98 Zn 0.97867 0.25603 0.9495 0.0
Zn99 Zn 0.00135 0.25747 0.92491 0.0
O100 O 0.00677 0.28421 0.93955 0.0
O101 O 0.99118 0.28123 0.96324 0.0
O102 O 0.02114 0.25725 0.90751 0.0
O103 O 0.98286 0.23224 0.95799 0.0
O104 O 0.0041 0.23497 0.93971 0.0
C105 C 0.00186 0.29125 0.95441 0.0
C106 C 0.96147 0.25484 0.91089 0.0
O107 O 0.97708 0.25395 0.90661 0.0
O108 O 0.95896 0.25588 0.92796 0.0
C109 C 0.03536 0.26983 0.90862 0.0
O110 O 0.0373 0.28434 0.92076 0.0
C111 C 0.99557 0.22641 0.95156 0.0
Zn112 Zn 0.40891 0.98101 0.28786 0.0
Zn113 Zn 0.39308 0.01376 0.28477 0.0
O114 O 0.39932 0.01914 0.31162 0.0
O115 O 0.40427 0.99204 0.31352 0.0
O116 O 0.38006 0.03209 0.27845 0.0
O117 O 0.40747 0.98821 0.26157 0.0
O118 O 0.41438 0.01713 0.27179 0.0
C119 C 0.4015 0.00673 0.32114 0.0
C120 C 0.37145 0.97885 0.28851 0.0
O121 O 0.37387 0.99086 0.27763 0.0
O122 O 0.38483 0.97495 0.2978 0.0
C123 C 0.36752 0.03293 0.28831 0.0
O124 O 0.36447 0.02221 0.3012 0.0
C125 C 0.41311 0.0044 0.25889 0.0
Zn126 Zn 0.24662 0.18917 0.50446 0.0
Zn127 Zn 0.2691 0.16803 0.50497 0.0
O128 O 0.27279 0.18101 0.48064 0.0
O129 O 0.25412 0.19919 0.48167 0.0
O130 O 0.28748 0.15245 0.50706 0.0
O131 O 0.2563 0.20217 0.53025 0.0
O132 O 0.27396 0.18302 0.53167 0.0
C133 C 0.26546 0.19273 0.47339 0.0
C134 C 0.22897 0.15144 0.49978 0.0
O135 O 0.24504 0.14919 0.50155 0.0
O136 O 0.22609 0.16717 0.50053 0.0
C137 C 0.29792 0.15016 0.49499 0.0
O138 O 0.29705 0.1581 0.4798 0.0
C139 C 0.26803 0.19592 0.53946 0.0
Zn140 Zn 0.10709 0.04836 0.77803 0.0
Zn141 Zn 0.12927 0.02743 0.77675 0.0
O142 O 0.1168 0.02299 0.80105 0.0
O143 O 0.09908 0.04216 0.80215 0.0
O144 O 0.14481 0.00891 0.77452 0.0
O145 O 0.09268 0.03791 0.75313 0.0
O146 O 0.11385 0.02286 0.75012 0.0
C147 C 0.10576 0.03031 0.80936 0.0
C148 C 0.14417 0.06781 0.78058 0.0
O149 O 0.14752 0.05216 0.78024 0.0
O150 O 0.12798 0.06946 0.77929 0.0
C151 C 0.14782 0.99914 0.78718 0.0
O152 O 0.14106 0.00118 0.80294 0.0
C153 C 0.09985 0.02769 0.74307 0.0
Zn154 Zn 0.31686 0.8865 0.00227 0.0
Zn155 Zn 0.28444 0.90441 0.00285 0.0
O156 O 0.28453 0.90319 0.97605 0.0
O157 O 0.30626 0.88795 0.97533 0.0
O158 O 0.26219 0.91264 0.00689 0.0
O159 O 0.30566 0.8681 0.01853 0.0
O160 O 0.28459 0.87917 0.00568 0.0
C161 C 0.29471 0.8954 0.96723 0.0
C162 C 0.32289 0.92504 0.01658 0.0
O163 O 0.30616 0.92411 0.01254 0.0
O164 O 0.32924 0.91101 0.01596 0.0
C165 C 0.26313 0.92768 0.00059 0.0
O166 O 0.27779 0.93515 0.99382 0.0
C167 C 0.29105 0.87302 0.01967 0.0
Zn168 Zn 0.30387 0.35582 0.03077 0.0
Zn169 Zn 0.28144 0.37818 0.02665 0.0
O170 O 0.27702 0.36239 0.0011 0.0
O171 O 0.29417 0.34294 0.00489 0.0
O172 O 0.26088 0.39086 0.02536 0.0
O173 O 0.29377 0.34636 0.05302 0.0
O174 O 0.27694 0.36622 0.05051 0.0
C175 C 0.28294 0.34898 0.99467 0.0
C176 C 0.32147 0.39438 0.03247 0.0
O177 O 0.30556 0.39699 0.02922 0.0
O178 O 0.32382 0.37867 0.03419 0.0
C179 C 0.26084 0.40674 0.02177 0.0
O180 O 0.27569 0.41704 0.01777 0.0
C181 C 0.28206 0.35404 0.05895 0.0
Zn182 Zn 0.73199 0.14253 0.04361 0.0
Zn183 Zn 0.76612 0.12628 0.03934 0.0
O184 O 0.76592 0.13434 0.01523 0.0
O185 O 0.74234 0.14637 0.01867 0.0
O186 O 0.78665 0.11622 0.04384 0.0
O187 O 0.74665 0.142 0.0693 0.0
O188 O 0.7724 0.14776 0.05791 0.0
C189 C 0.75448 0.1428 0.00925 0.0
C190 C 0.73255 0.1076 0.04945 0.0
O191 O 0.74447 0.10635 0.03903 0.0
O192 O 0.73456 0.12233 0.05994 0.0
C193 C 0.78644 0.10166 0.03392 0.0
O194 O 0.7724 0.09413 0.0213 0.0
C195 C 0.76365 0.14801 0.07153 0.0
Zn196 Zn 0.14982 0.56142 0.23965 0.0
Zn197 Zn 0.16605 0.52891 0.24467 0.0
O198 O 0.15124 0.5257 0.2643 0.0
O199 O 0.14728 0.55348 0.26574 0.0
O200 O 0.17728 0.50865 0.24367 0.0
O201 O 0.16005 0.55358 0.21571 0.0
O202 O 0.15243 0.52522 0.21989 0.0
C203 C 0.14687 0.53895 0.27287 0.0
C204 C 0.18835 0.56437 0.24223 0.0
O205 O 0.18585 0.55106 0.25139 0.0
O206 O 0.17529 0.56752 0.23164 0.0
C207 C 0.19362 0.5097 0.24984 0.0
O208 O 0.20397 0.52514 0.25808 0.0
C209 C 0.15488 0.53709 0.20904 0.0
Zn210 Zn 0.80477 0.85781 0.53017 0.0
Zn211 Zn 0.78266 0.87784 0.52888 0.0
O212 O 0.77753 0.86272 0.50204 0.0
O213 O 0.79628 0.84475 0.50488 0.0
O214 O 0.76369 0.89286 0.53028 0.0
O215 O 0.79863 0.84664 0.55226 0.0
O216 O 0.7794 0.86425 0.55255 0.0
C217 C 0.78439 0.85016 0.49496 0.0
C218 C 0.82287 0.89446 0.53335 0.0
O219 O 0.80682 0.89687 0.53138 0.0
O220 O 0.82553 0.87876 0.53362 0.0
C221 C 0.75223 0.89358 0.51643 0.0
O222 O 0.75285 0.8848 0.50005 0.0
C223 C 0.78677 0.85269 0.55996 0.0
Zn224 Zn 0.94324 0.99522 0.25256 0.0
Zn225 Zn 0.92028 0.01576 0.25197 0.0
O226 O 0.93509 0.0219 0.27875 0.0
O227 O 0.95645 0.00678 0.27726 0.0
O228 O 0.90632 0.03534 0.25034 0.0
O229 O 0.95346 0.00181 0.22975 0.0
O230 O 0.93348 0.01864 0.2285 0.0
C231 C 0.94912 0.01752 0.28636 0.0
C232 C 0.9055 0.97615 0.25095 0.0
O233 O 0.90175 0.99153 0.25018 0.0
O234 O 0.92174 0.97466 0.25175 0.0
C235 C 0.8984 0.04076 0.26357 0.0
O236 O 0.89843 0.03279 0.2788 0.0
C237 C 0.94607 0.01271 0.22166 0.0
Zn238 Zn 0.24051 0.63941 0.54081 0.0
Zn239 Zn 0.26604 0.62522 0.54182 0.0
O240 O 0.26812 0.63765 0.51944 0.0
O241 O 0.23884 0.63392 0.51246 0.0
O242 O 0.28661 0.61527 0.54506 0.0
O243 O 0.25656 0.66262 0.55317 0.0
O244 O 0.26944 0.64235 0.56466 0.0
C245 C 0.25454 0.63762 0.50776 0.0
C246 C 0.23276 0.60576 0.54908 0.0
O247 O 0.24448 0.60462 0.53835 0.0
O248 O 0.23418 0.62078 0.55872 0.0
C249 C 0.28746 0.60223 0.53336 0.0
O250 O 0.27416 0.59568 0.51964 0.0
C251 C 0.26686 0.65818 0.5658 0.0
Zn252 Zn 0.43941 0.49115 0.75131 0.0
Zn253 Zn 0.41989 0.5147 0.75149 0.0
O254 O 0.43479 0.52064 0.77814 0.0
O255 O 0.44882 0.49833 0.77834 0.0
O256 O 0.40694 0.53522 0.75002 0.0
O257 O 0.45336 0.49999 0.73131 0.0
O258 O 0.43348 0.51671 0.72803 0.0
C259 C 0.44497 0.51203 0.78674 0.0
C260 C 0.40174 0.47468 0.74609 0.0
O261 O 0.40015 0.49092 0.74969 0.0
O262 O 0.41709 0.47145 0.74454 0.0
C263 C 0.39544 0.53823 0.76062 0.0
O264 O 0.39109 0.52728 0.77306 0.0
C265 C 0.44653 0.51072 0.72229 0.0
Zn266 Zn 0.64943 0.05479 0.7475 0.0
Zn267 Zn 0.6656 0.03067 0.74117 0.0
O268 O 0.65961 0.02893 0.76691 0.0
O269 O 0.63358 0.03554 0.75918 0.0
O270 O 0.67693 0.01078 0.73549 0.0
O271 O 0.64714 0.05405 0.71955 0.0
O272 O 0.64473 0.02538 0.72179 0.0
C273 C 0.64365 0.02878 0.76999 0.0
C274 C 0.68664 0.06554 0.75253 0.0
O275 O 0.68425 0.05276 0.73931 0.0
O276 O 0.67385 0.06723 0.76175 0.0
C277 C 0.69111 0.0113 0.74643 0.0
O278 O 0.69713 0.02497 0.7598 0.0
C279 C 0.64322 0.03781 0.71202 0.0
Zn280 Zn 0.74442 0.68774 0.003 0.0
Zn281 Zn 0.77048 0.67002 0.00473 0.0
O282 O 0.77253 0.68265 0.98044 0.0
O283 O 0.75169 0.69852 0.98016 0.0
O284 O 0.79175 0.6579 0.0056 0.0
O285 O 0.75262 0.69941 0.02975 0.0
O286 O 0.77501 0.68547 0.03102 0.0
C287 C 0.7641 0.69322 0.9726 0.0
C288 C 0.73064 0.64961 -0.00032 0.0
O289 O 0.74733 0.64929 0.00253 0.0
O290 O 0.7259 0.66436 -0.00133 0.0
C291 C 0.79012 0.64113 0.00053 0.0
O292 O 0.77402 0.63087 0.99425 0.0
C293 C 0.76628 0.69593 0.03886 0.0
Zn294 Zn 0.9043 0.48284 0.79201 0.0
Zn295 Zn 0.89076 0.51441 0.78267 0.0
O296 O 0.90123 0.52074 0.80903 0.0
O297 O 0.8926 0.49274 0.81408 0.0
O298 O 0.8792 0.53386 0.77792 0.0
O299 O 0.90616 0.48527 0.76429 0.0
O300 O 0.90819 0.51463 0.76561 0.0
C301 C 0.8971 0.50941 0.82021 0.0
C302 C 0.86587 0.48166 0.78721 0.0
O303 O 0.86981 0.49314 0.7761 0.0
O304 O 0.87821 0.47835 0.79871 0.0
C305 C 0.86593 0.53425 0.78684 0.0
O306 O 0.86185 0.52256 0.79867 0.0
C307 C 0.90979 0.49989 0.75727 0.0
Zn308 Zn 0.80874 0.37538 0.48641 0.0
Zn309 Zn 0.77859 0.40542 0.4981 0.0
O310 O 0.77409 0.40642 0.4701 0.0
O311 O 0.7934 0.39093 0.47687 0.0
O312 O 0.7602 0.41696 0.50732 0.0
O313 O 0.8006 0.36715 0.51026 0.0
O314 O 0.7776 0.37945 0.50317 0.0
C315 C 0.7851 0.39763 0.46463 0.0
C316 C 0.81878 0.4177 0.50201 0.0
O317 O 0.80366 0.42054 0.50577 0.0
O318 O 0.8208 0.40248 0.49457 0.0
C319 C 0.76272 0.4329 0.50299 0.0
O320 O 0.77765 0.43995 0.49644 0.0
C321 C 0.78827 0.37464 0.51537 0.0
Zn322 Zn 0.6082 0.55034 0.27773 0.0
Zn323 Zn 0.62912 0.52745 0.2763 0.0
O324 O 0.61668 0.52407 0.30054 0.0
O325 O 0.59671 0.5409 0.29915 0.0
O326 O 0.64204 0.50698 0.27459 0.0
O327 O 0.59592 0.54209 0.25139 0.0
O328 O 0.61387 0.52322 0.24982 0.0
C329 C 0.60399 0.52994 0.30733 0.0
C330 C 0.64685 0.56708 0.28273 0.0
O331 O 0.64885 0.55098 0.27955 0.0
O332 O 0.63121 0.57005 0.28315 0.0
C333 C 0.65539 0.50607 0.28627 0.0
O334 O 0.66163 0.51921 0.30014 0.0
C335 C 0.60148 0.52996 0.24211 0.0
C336 C 0.98835 0.97172 0.9856 0.0
C337 C 0.97402 0.95512 0.00893 0.0
C338 C 0.98459 0.97102 0.00398 0.0
C339 C 0.96738 0.93998 0.99533 0.0
C340 C 0.98178 0.95645 0.97197 0.0
C341 C 0.97127 0.94063 0.97693 0.0
N342 N 0.99802 0.98741 0.98094 0.0
C343 C 0.00174 0.98869 0.96305 0.0
C344 C 0.98563 0.95765 0.95363 0.0
C345 C 0.99572 0.97381 0.94919 0.0
Gd346 Gd 0.0528 0.03202 0.03081 0.0
Gd347 Gd 0.00351 0.01206 0.00442 0.0
N348 N 0.99089 0.98599 0.01687 0.0
C349 C 0.97 0.95508 0.02731 0.0
C350 C 0.98685 0.98602 0.03471 0.0
C351 C 0.97657 0.97055 0.04026 0.0
H352 H 0.99079 0.99807 0.04452 0.0
H353 H 0.97322 0.9708 0.05435 0.0
H354 H 0.07444 0.04126 0.99393 0.0
H355 H 0.00857 0.00138 0.95917 0.0
H356 H 0.09288 0.06751 0.98262 0.0
H357 H 0.96146 0.94337 0.03154 0.0
H358 H 0.95911 0.92771 -0.00114 0.0
H359 H 0.04805 0.04572 0.07528 0.0
H360 H 0.98071 0.94625 0.94275 0.0
H361 H 0.99849 0.97493 0.93497 0.0
H362 H 0.10117 0.11522 0.03347 0.0
H363 H 0.96594 0.92885 0.96658 0.0
H364 H 0.07547 0.1012 0.08901 0.0
H365 H 0.05711 0.07336 0.09793 0.0
N366 N 0.0598 0.05791 0.0532 0.0
C367 C 0.07036 0.07291 0.04818 0.0
C368 C 0.05524 0.05791 0.07088 0.0
C369 C 0.07113 0.08916 0.07883 0.0
C370 C 0.0607 0.07351 0.0839 0.0
C371 C 0.0762 0.08899 0.06084 0.0
H372 H 0.09177 0.11669 0.06487 0.0
N373 N 0.07027 0.05623 0.01872 0.0
C374 C 0.07576 0.07204 0.03047 0.0
C375 C 0.09275 0.08572 0.00734 0.0
C376 C 0.08703 0.08727 0.02501 0.0
C377 C 0.07694 0.0543 0.00213 0.0
C378 C 0.08788 0.06908 0.99596 0.0
O379 O 0.02106 0.99175 0.01069 0.0
O380 O 0.03797 0.00513 0.03851 0.0
O381 O 0.07552 0.02019 0.02547 0.0
O382 O 0.07348 0.0324 0.05379 0.0
O383 O 0.00613 0.02832 0.03301 0.0
O384 O 0.03165 0.02308 0.04893 0.0
O385 O 0.03841 0.05418 0.02245 0.0
O386 O 0.01437 0.04092 -0.00081 0.0
O387 O 0.97787 0.01692 0.01112 0.0
O388 O 0.98155 0.00997 0.98225 0.0
O389 O 0.04862 0.01742 0.00106 0.0
O390 O 0.02329 0.02394 0.98596 0.0
C391 C 0.03055 0.9905 0.02666 0.0
C392 C 0.01601 0.02741 0.04873 0.0
C393 C 0.0993 0.01963 0.0506 0.0
C394 C 0.1261 0.009 0.04543 0.0
C395 C 0.1207 0.01727 0.07711 0.0
C396 C 0.10467 0.02162 0.07006 0.0
C397 C 0.13148 0.01104 0.06482 0.0
C398 C 0.11003 0.01317 0.03834 0.0
C399 C 0.08248 0.02405 0.04312 0.0
C400 C 0.09253 0.1034 0.03744 0.0
C401 C 0.08717 0.10423 0.05532 0.0
H402 H 0.10138 0.0971 0.00261 0.0
C403 C 0.02545 0.05531 0.00917 0.0
C404 C 0.03966 0.0214 0.98611 0.0
C405 C 0.96173 0.02903 0.98786 0.0
C406 C 0.93875 0.04569 0.99279 0.0
C407 C 0.95441 0.04898 0.96564 0.0
C408 C 0.9645 0.03682 0.97133 0.0
C409 C 0.94142 0.0533 0.97624 0.0
C410 C 0.94896 0.03371 -0.00136 0.0
C411 C 0.97105 0.01517 0.99353 0.0
H412 H 0.12478 0.01876 0.09208 0.0
H413 H 0.09646 0.02644 0.07981 0.0
H414 H 0.14393 0.00774 0.07039 0.0
H415 H 0.10605 0.01156 0.0233 0.0
H416 H 0.95649 0.05486 0.95287 0.0
H417 H 0.97429 0.03342 0.96271 0.0
H418 H 0.9334 0.06248 0.97153 0.0
H419 H 0.94651 0.02759 0.01126 0.0
C420 C 0.29856 0.74329 0.22484 0.0
C421 C 0.27326 0.72543 0.20289 0.0
C422 C 0.28071 0.74029 0.21688 0.0
C423 C 0.2842 0.7141 0.19667 0.0
C424 C 0.3095 0.73169 0.21896 0.0
C425 C 0.30228 0.7172 0.20471 0.0
N426 N 0.30505 0.75713 0.23888 0.0
C427 C 0.3224 0.7603 0.24754 0.0
C428 C 0.32731 0.73483 0.2278 0.0
C429 C 0.33376 0.74922 0.24212 0.0
Gd430 Gd 0.25923 0.77894 0.29692 0.0
Gd431 Gd 0.2855 0.77548 0.24684 0.0
N432 N 0.27032 0.75112 0.22371 0.0
C433 C 0.25487 0.72199 0.19604 0.0
C434 C 0.25215 0.74716 0.21767 0.0
C435 C 0.24424 0.73279 0.20363 0.0
H436 H 0.24339 0.75449 0.22385 0.0
H437 H 0.22986 0.72987 0.1989 0.0
H438 H 0.29967 0.79069 0.32505 0.0
H439 H 0.32759 0.77151 0.2585 0.0
H440 H 0.3162 0.81524 0.34924 0.0
H441 H 0.24863 0.71071 0.18535 0.0
H442 H 0.2787 0.70266 0.18594 0.0
H443 H 0.21722 0.78513 0.28975 0.0
H444 H 0.33614 0.72622 0.22372 0.0
H445 H 0.3475 0.75183 0.24893 0.0
H446 H 0.27416 0.85258 0.35862 0.0
H447 H 0.31048 0.70817 0.2 0.0
H448 H 0.21521 0.83418 0.32275 0.0
H449 H 0.20027 0.80786 0.29926 0.0
N450 N 0.2418 0.79928 0.30617 0.0
C451 C 0.24992 0.81301 0.31995 0.0
C452 C 0.22405 0.79704 0.29922 0.0
C453 C 0.22277 0.82442 0.31832 0.0
C454 C 0.21433 0.80965 0.30497 0.0
C455 C 0.24071 0.82613 0.32617 0.0
H456 H 0.2428 0.85069 0.34493 0.0
N457 N 0.27613 0.80121 0.32124 0.0
C458 C 0.26753 0.81392 0.3279 0.0
C459 C 0.29427 0.82875 0.34947 0.0
C460 C 0.27648 0.82819 0.34194 0.0
C461 C 0.29319 0.80128 0.32922 0.0
C462 C 0.30257 0.81513 0.34322 0.0
O463 O 0.27771 0.7497 0.25832 0.0
O464 O 0.25465 0.75834 0.27108 0.0
O465 O 0.26101 0.76257 0.31946 0.0
O466 O 0.23454 0.76476 0.30608 0.0
O467 O 0.25724 0.7816 0.24256 0.0
O468 O 0.24127 0.78016 0.26904 0.0
O469 O 0.27311 0.80665 0.2929 0.0
O470 O 0.27652 0.78836 0.27028 0.0
O471 O 0.28321 0.79316 0.22599 0.0
O472 O 0.30958 0.79421 0.24142 0.0
O473 O 0.2863 0.7694 0.29777 0.0
O474 O 0.3037 0.7816 0.27513 0.0
C475 C 0.26427 0.74634 0.26813 0.0
C476 C 0.24257 0.78215 0.25095 0.0
C477 C 0.23461 0.74717 0.33195 0.0
C478 C 0.23697 0.73085 0.35855 0.0
C479 C 0.20755 0.73335 0.3445 0.0
C480 C 0.21572 0.74339 0.33143 0.0
C481 C 0.21815 0.72707 0.35809 0.0
C482 C 0.24516 0.74081 0.34555 0.0
C483 C 0.24353 0.75869 0.31925 0.0
C484 C 0.26747 0.84147 0.34791 0.0
C485 C 0.24962 0.84042 0.34008 0.0
H486 H 0.30163 0.83951 0.36026 0.0
C487 C 0.27993 0.80493 0.27779 0.0
C488 C 0.30194 0.77415 0.29084 0.0
C489 C 0.30799 0.80137 0.21017 0.0
C490 C 0.30643 0.81296 0.1804 0.0
C491 C 0.32775 0.7946 0.18782 0.0
C492 C 0.32166 0.79287 0.20521 0.0
C493 C 0.32014 0.80462 0.17538 0.0
C494 C 0.30052 0.81143 0.19775 0.0
C495 C 0.30057 0.79984 0.22779 0.0
H496 H 0.19302 0.73055 0.34419 0.0
H497 H 0.20733 0.74838 0.32113 0.0
H498 H 0.21174 0.71939 0.36827 0.0
H499 H 0.25977 0.74375 0.34624 0.0
H500 H 0.33834 0.78816 0.18397 0.0
H501 H 0.32754 0.78493 0.21464 0.0
H502 H 0.32496 0.80595 0.16197 0.0
H503 H 0.28999 0.81807 0.20157 0.0
C504 C 0.5656 0.05779 0.49169 0.0
C505 C 0.58675 0.07636 0.51745 0.0
C506 C 0.57333 0.06062 0.51044 0.0
C507 C 0.59193 0.08942 0.50559 0.0
C508 C 0.5708 0.07085 0.47975 0.0
C509 C 0.58393 0.08671 0.48683 0.0
N510 N 0.55302 0.04225 0.48516 0.0
C511 C 0.54552 0.03864 0.46681 0.0
C512 C 0.56276 0.06748 0.461 0.0
C513 C 0.55011 0.05128 0.4545 0.0
Gd514 Gd 0.49856 0.01708 0.52796 0.0
Gd515 Gd 0.54725 0.02189 0.50686 0.0
N516 N 0.56781 0.04791 0.52174 0.0
C517 C 0.5948 0.0783 0.5361 0.0
C518 C 0.57602 0.04939 0.53964 0.0
C519 C 0.58945 0.06474 0.54722 0.0
H520 H 0.57272 0.03842 0.54777 0.0
H521 H 0.59597 0.06591 0.56148 0.0
H522 H 0.47487 0.99895 0.48617 0.0
H523 H 0.53638 0.0258 0.46156 0.0
H524 H 0.45198 0.97119 0.47268 0.0
H525 H 0.60552 0.08995 0.54187 0.0
H526 H 0.6022 0.10162 0.51076 0.0
H527 H 0.50886 0.01382 0.57348 0.0
H528 H 0.5664 0.07718 0.45138 0.0
H529 H 0.54409 0.04841 0.43995 0.0
H530 H 0.44297 0.93772 0.52481 0.0
H531 H 0.58812 0.09689 0.47786 0.0
H532 H 0.47763 0.96326 0.58445 0.0
H533 H 0.50035 0.99183 0.59555 0.0
N534 N 0.49198 0.99731 0.55007 0.0
C535 C 0.47918 0.98189 0.54371 0.0
C536 C 0.49941 0.00111 0.56843 0.0
C537 C 0.48151 0.97273 0.57467 0.0
C538 C 0.4944 0.98882 0.58099 0.0
C539 C 0.47366 0.96913 0.55586 0.0
H540 H 0.45612 0.94328 0.55803 0.0
N541 N 0.47784 0.99099 0.51329 0.0
C542 C 0.47178 0.97871 0.52485 0.0
C543 C 0.45159 0.96002 0.49881 0.0
C544 C 0.45865 0.96276 0.51784 0.0
C545 C 0.47071 0.98867 0.49491 0.0
C546 C 0.45758 0.97307 0.48733 0.0
O547 O 0.53706 0.04806 0.51285 0.0
O548 O 0.51991 0.0434 0.53699 0.0
O549 O 0.4758 0.02964 0.52041 0.0
O550 O 0.48454 0.02664 0.54957 0.0
O551 O 0.54536 0.01124 0.53435 0.0
O552 O 0.52515 0.02611 0.54509 0.0
O553 O 0.50775 0.99041 0.52125 0.0
O554 O 0.52666 0.99515 0.49844 0.0
O555 O 0.5708 0.01035 0.51421 0.0
O556 O 0.56158 0.01311 0.48511 0.0
O557 O 0.50074 0.02709 0.50024 0.0
O558 O 0.5209 0.01192 0.48906 0.0
C559 C 0.52883 0.05428 0.52639 0.0
C560 C 0.53582 0.01523 0.54738 0.0
C561 C 0.45951 0.04099 0.54499 0.0
C562 C 0.43342 0.05438 0.54012 0.0
C563 C 0.44613 0.0517 0.57163 0.0
C564 C 0.4591 0.04375 0.56444 0.0
C565 C 0.43332 0.05692 0.55958 0.0
C566 C 0.44668 0.04655 0.53278 0.0
C567 C 0.47344 0.03231 0.53799 0.0
C568 C 0.45305 0.95007 0.52995 0.0
C569 C 0.46055 0.95323 0.54889 0.0
H570 H 0.44144 0.94795 0.49288 0.0
C571 C 0.51699 0.98431 0.50854 0.0
C572 C 0.5093 0.02194 0.48677 0.0
C573 C 0.58803 0.00082 0.48963 0.0
C574 C 0.61191 0.9842 0.493 0.0
C575 C 0.60495 0.99595 0.46382 0.0
C576 C 0.59152 0.00296 0.47123 0.0
C577 C 0.61504 0.9866 0.47456 0.0
C578 C 0.59848 0.99156 0.50066 0.0
C579 C 0.57331 0.00818 0.49665 0.0
H580 H 0.44596 0.05378 0.58661 0.0
H581 H 0.46883 0.03975 0.5742 0.0
H582 H 0.42331 0.06306 0.56547 0.0
H583 H 0.44678 0.04455 0.51777 0.0
H584 H 0.60751 0.9977 0.44965 0.0
H585 H 0.58383 0.0101 0.46248 0.0
H586 H 0.62541 0.98123 0.46844 0.0
H587 H 0.59591 0.9897 0.51483 0.0
C588 C 0.23607 0.28804 0.72689 0.0
C589 C 0.21674 0.26034 0.7099 0.0
C590 C 0.22909 0.2695 0.72558 0.0
C591 C 0.21172 0.26996 0.69547 0.0
C592 C 0.23116 0.29771 0.71237 0.0
C593 C 0.21898 0.28857 0.69666 0.0
N594 N 0.24774 0.29657 0.74231 0.0
C595 C 0.25484 0.31474 0.74422 0.0
C596 C 0.23861 0.31632 0.71411 0.0
C597 C 0.25049 0.32486 0.73011 0.0
Gd598 Gd 0.30127 0.26249 0.77132 0.0
Gd599 Gd 0.25343 0.27847 0.76536 0.0
N600 N 0.23447 0.26044 0.7396 0.0
C601 C 0.20962 0.24179 0.70929 0.0
C602 C 0.2274 0.24243 0.73917 0.0
C603 C 0.21502 0.2328 0.72396 0.0
H604 H 0.23085 0.2355 0.7507 0.0
H605 H 0.20939 0.2185 0.7237 0.0
H606 H 0.3238 0.30596 0.78469 0.0
H607 H 0.26352 0.32155 0.75683 0.0
H608 H 0.3423 0.32454 0.81258 0.0
H609 H 0.19972 0.23437 0.69776 0.0
H610 H 0.20225 0.26312 0.68331 0.0
H611 H 0.29425 0.21985 0.78079 0.0
H612 H 0.23517 0.32422 0.70325 0.0
H613 H 0.25614 0.33927 0.73169 0.0
H614 H 0.35021 0.28195 0.85511 0.0
H615 H 0.215 0.29579 0.6854 0.0
H616 H 0.32155 0.21958 0.83553 0.0
H617 H 0.30209 0.20313 0.8067 0.0
N618 N 0.30828 0.24546 0.79509 0.0
C619 C 0.31924 0.25473 0.81066 0.0
C620 C 0.30224 0.22717 0.79351 0.0
C621 C 0.31793 0.22699 0.82428 0.0
C622 C 0.3069 0.21766 0.80806 0.0
C623 C 0.32429 0.24574 0.82573 0.0
H624 H 0.33952 0.24902 0.85342 0.0
N625 N 0.32 0.2816 0.79685 0.0
C626 C 0.32528 0.27332 0.81157 0.0
C627 C 0.34245 0.30203 0.82806 0.0
C628 C 0.33653 0.28335 0.82763 0.0
C629 C 0.32656 0.29964 0.79684 0.0
C630 C 0.33752 0.31017 0.81255 0.0
O631 O 0.26533 0.27169 0.73872 0.0
O632 O 0.28016 0.24993 0.74664 0.0
O633 O 0.32465 0.2706 0.75595 0.0
O634 O 0.3166 0.24322 0.76311 0.0
O635 O 0.25405 0.25283 0.77838 0.0
O636 O 0.27581 0.24024 0.76573 0.0
O637 O 0.2888 0.2685 0.79775 0.0
O638 O 0.27458 0.29068 0.78992 0.0
O639 O 0.23002 0.27018 0.78075 0.0
O640 O 0.23759 0.29741 0.77315 0.0
O641 O 0.30027 0.28796 0.75785 0.0
O642 O 0.27914 0.30023 0.77185 0.0
C643 C 0.27328 0.25857 0.73404 0.0
C644 C 0.26112 0.23894 0.77399 0.0
C645 C 0.34233 0.2484 0.74606 0.0
C646 C 0.36909 0.2536 0.72975 0.0
C647 C 0.35633 0.22363 0.73713 0.0
C648 C 0.34298 0.23009 0.74539 0.0
C649 C 0.3693 0.23527 0.72943 0.0
C650 C 0.35548 0.26023 0.73802 0.0
C651 C 0.3277 0.25441 0.75512 0.0
C652 C 0.34157 0.27445 0.84268 0.0
C653 C 0.33548 0.2557 0.84172 0.0
H654 H 0.35105 0.31023 0.84016 0.0
C655 C 0.28119 0.28186 0.80246 0.0
C656 C 0.29332 0.30179 0.76281 0.0
C657 C 0.21126 0.29184 0.7894 0.0
C658 C 0.18546 0.28731 0.80733 0.0
C659 C 0.19487 0.3155 0.79461 0.0
C660 C 0.20868 0.30921 0.78713 0.0
C661 C 0.18342 0.30472 0.80466 0.0
C662 C 0.19937 0.28071 0.79948 0.0
C663 C 0.22644 0.28611 0.781 0.0
H664 H 0.35663 0.20952 0.73675 0.0
H665 H 0.33312 0.22062 0.75127 0.0
H666 H 0.3796 0.22993 0.72314 0.0
H667 H 0.35525 0.27437 0.73835 0.0
H668 H 0.19312 0.3289 0.79272 0.0
H669 H 0.21738 0.31808 0.77949 0.0
H670 H 0.17286 0.31003 0.81045 0.0
H671 H 0.20111 0.26732 0.80149 0.0
C672 C 0.00997 0.063 0.555 0.0
C673 C 0.03832 0.08119 0.57191 0.0
C674 C 0.02856 0.0695 0.55604 0.0
C675 C 0.02919 0.08617 0.58669 0.0
C676 C 1.00079 0.0679 0.56985 0.0
C677 C 0.01049 0.07953 0.58567 0.0
N678 N 1.00093 0.05166 0.5396 0.0
C679 C 0.98271 0.04498 0.53798 0.0
C680 C 0.98212 0.0609 0.56839 0.0
C681 C 0.97304 0.04941 0.55236 0.0
Gd682 Gd 0.03418 0.99751 0.51093 0.0
Gd683 Gd 0.01828 0.04528 0.51621 0.0
N684 N 0.03711 0.06415 0.54166 0.0
C685 C 0.05697 0.08757 0.57245 0.0
C686 C 0.05514 0.07091 0.54182 0.0
C687 C 0.06539 0.08246 0.55731 0.0
H688 H 0.06165 0.0678 0.52994 0.0
H689 H 0.07976 0.08757 0.55747 0.0
H690 H 0.99114 0.97435 0.49688 0.0
H691 H 0.97554 0.03661 0.52539 0.0
H692 H 0.9737 0.9533 0.46988 0.0
H693 H 0.06492 0.09664 0.58436 0.0
H694 H 0.03648 0.09515 0.59898 0.0
H695 H 0.07702 0.00739 0.50194 0.0
H696 H 0.97458 0.06434 0.5795 0.0
H697 H 0.95858 0.04407 0.55101 0.0
H698 H 0.018 0.94504 0.42985 0.0
H699 H 0.00366 0.08347 0.5972 0.0
H700 H 0.07904 0.97866 0.44863 0.0
H701 H 0.0944 0.99992 0.47669 0.0
N702 N 0.05193 0.99146 0.4878 0.0
C703 C 0.04323 0.97967 0.47256 0.0
C704 C 0.07008 0.99861 0.48948 0.0
C705 C 0.07129 0.98216 0.45951 0.0
C706 C 0.08 0.9942 0.47531 0.0
C707 C 0.05272 0.97464 0.45803 0.0
H708 H 0.05053 0.95804 0.43138 0.0
N709 N 0.01587 0.97814 0.4855 0.0
C710 C 0.02472 0.9727 0.47145 0.0
C711 C 0.99677 0.95343 0.45529 0.0
C712 C 0.01537 0.96026 0.45592 0.0
C713 C 0.99788 0.97104 0.48525 0.0
C714 C 0.98801 0.95881 0.47005 0.0
O715 O 0.02451 0.03309 0.54299 0.0
O716 O 0.04652 0.01873 0.53541 0.0
O717 O 0.02609 0.97448 0.52684 0.0
O718 O 0.05335 0.98201 0.51927 0.0
O719 O 0.04349 0.04422 0.50275 0.0
O720 O 0.05585 0.02325 0.51711 0.0
O721 O 0.02745 0.00922 0.48405 0.0
O722 O 0.00577 0.02433 0.49149 0.0
O723 O 0.02641 0.06867 0.50085 0.0
O724 O 0.99903 0.06078 0.508 0.0
O725 O 0.00852 0.99832 0.52366 0.0
O726 O 0.99629 0.01982 0.50996 0.0
C727 C 0.03766 0.0252 0.5479 0.0
C728 C 0.05729 0.0372 0.50768 0.0
C729 C 0.04813 0.95667 0.53702 0.0
C730 C 0.04265 0.9293 0.55255 0.0
C731 C 0.07307 0.94334 0.54738 0.0
C732 C 0.06663 0.95664 0.53891 0.0
C733 C 0.06121 0.92976 0.55408 0.0
C734 C 0.03605 0.94294 0.5441 0.0
C735 C 0.04217 0.97119 0.52759 0.0
C736 C 0.02487 0.9549 0.44165 0.0
C737 C 0.04344 0.9622 0.4426 0.0
H738 H 0.98911 0.94383 0.44362 0.0
C739 C 0.01425 0.01704 0.47913 0.0
C740 C 0.99473 0.00533 0.51857 0.0
C741 C 0.00451 0.08672 0.4911 0.0
C742 C 0.00978 0.1127 0.47355 0.0
C743 C 0.98028 0.10176 0.4829 0.0
C744 C 0.98654 0.08832 0.49133 0.0
C745 C 0.99178 0.11385 0.47406 0.0
C746 C 0.01624 0.09908 0.48211 0.0
C747 C 0.01029 0.07187 0.50005 0.0
H748 H 0.08735 0.94352 0.54871 0.0
H749 H 0.07629 0.96698 0.53381 0.0
H750 H 0.06657 0.91951 0.56056 0.0
H751 H 0.02174 0.94267 0.5428 0.0
H752 H 0.96642 0.10278 0.48318 0.0
H753 H 0.97718 0.07911 0.49803 0.0
H754 H 0.98661 0.12419 0.46756 0.0
H755 H 0.03011 0.09809 0.48168 0.0
C756 C 0.24166 0.73085 0.79453 0.0
C757 C 0.22313 0.7097 0.76876 0.0
C758 C 0.23882 0.72317 0.77582 0.0
C759 C 0.21026 0.70416 0.78066 0.0
C760 C 0.22879 0.72531 0.80649 0.0
C761 C 0.21307 0.71195 0.79945 0.0
N762 N 0.25693 0.74385 0.80094 0.0
C763 C 0.26041 0.75158 0.81916 0.0
C764 C 0.2321 0.73339 0.82518 0.0
C765 C 0.248 0.74654 0.83155 0.0
Gd766 Gd 0.28007 0.79876 0.75637 0.0
Gd767 Gd 0.27679 0.75071 0.77911 0.0
N768 N 0.25129 0.72913 0.76449 0.0
C769 C 0.22092 0.70214 0.74995 0.0
C770 C 0.2497 0.72123 0.7465 0.0
C771 C 0.23436 0.7078 0.73883 0.0
H772 H 0.26047 0.72492 0.73827 0.0
H773 H 0.23302 0.70166 0.72445 0.0
H774 H 0.2973 0.82389 0.79756 0.0
H775 H 0.27292 0.76137 0.82423 0.0
H776 H 0.32469 0.84742 0.81088 0.0
H777 H 0.20907 0.69171 0.74399 0.0
H778 H 0.1981 0.69383 0.77548 0.0
H779 H 0.284 0.78739 0.71136 0.0
H780 H 0.22254 0.72949 0.83483 0.0
H781 H 0.25077 0.7527 0.84602 0.0
H782 H 0.35859 0.85562 0.75914 0.0
H783 H 0.20302 0.70752 0.80844 0.0
H784 H 0.3346 0.81856 0.70052 0.0
H785 H 0.3063 0.79539 0.68957 0.0
N786 N 0.30011 0.80498 0.73454 0.0
C787 C 0.31544 0.81794 0.74083 0.0
C788 C 0.2966 0.79705 0.71638 0.0
C789 C 0.32502 0.81487 0.7102 0.0
C790 C 0.30908 0.80174 0.70397 0.0
C791 C 0.32831 0.82325 0.72879 0.0
H792 H 0.35392 0.84115 0.72651 0.0
N793 N 0.30593 0.81994 0.77097 0.0
C794 C 0.31835 0.82576 0.7595 0.0
C795 C 0.33636 0.84703 0.78512 0.0
C796 C 0.334 0.83935 0.76635 0.0
C797 C 0.30781 0.82775 0.78904 0.0
C798 C 0.32316 0.84128 0.79648 0.0
O799 O 0.24966 0.7591 0.77151 0.0
O800 O 0.25408 0.7771 0.74787 0.0
O801 O 0.26756 0.82163 0.76304 0.0
O802 O 0.27002 0.81194 0.73405 0.0
O803 O 0.28717 0.75272 0.75169 0.0
O804 O 0.27136 0.77194 0.73962 0.0
O805 O 0.30654 0.78944 0.76254 0.0
O806 O 0.30212 0.7733 0.78745 0.0
O807 O 0.29041 0.72883 0.77173 0.0
O808 O 0.28707 0.73688 0.80084 0.0
O809 O 0.26976 0.79675 0.78394 0.0
O810 O 0.28532 0.77739 0.79647 0.0
C811 C 0.24332 0.76785 0.75832 0.0
C812 C 0.28224 0.76115 0.73796 0.0
C813 C 0.2555 0.8369 0.7378 0.0
C814 C 0.2427 0.86346 0.74182 0.0
C815 C 0.24276 0.84841 0.71061 0.0
C816 C 0.25121 0.83593 0.71828 0.0
C817 C 0.23857 0.86209 0.72225 0.0
C818 C 0.25101 0.85065 0.74964 0.0
C819 C 0.26448 0.82334 0.74529 0.0
C820 C 0.34666 0.84494 0.75424 0.0
C821 C 0.34393 0.83678 0.73559 0.0
H822 H 0.3482 0.85755 0.7909 0.0
C823 C 0.31279 0.78133 0.7762 0.0
C824 C 0.27467 0.78849 0.79788 0.0
C825 C 0.30281 0.71279 0.79613 0.0
C826 C 0.31685 0.68709 0.79114 0.0
C827 C 0.31553 0.70039 0.82273 0.0
C828 C 0.30669 0.71286 0.81558 0.0
C829 C 0.32051 0.68757 0.81064 0.0
C830 C 0.30815 0.6999 0.78383 0.0
C831 C 0.29332 0.72635 0.78927 0.0
H832 H 0.23945 0.84747 0.69557 0.0
H833 H 0.25433 0.82545 0.70883 0.0
H834 H 0.2319 0.87159 0.71593 0.0
H835 H 0.25419 0.85157 0.76471 0.0
H836 H 0.31844 0.70061 0.83773 0.0
H837 H 0.30293 0.72261 0.82539 0.0
H838 H 0.32729 0.67793 0.81653 0.0
H839 H 0.30526 0.6996 0.7688 0.0
C840 C 0.5551 0.00378 0.06042 0.0
C841 C 0.56831 0.0292 0.0841 0.0
C842 C 0.55457 0.02033 0.06945 0.0
C843 C 0.58336 0.02178 0.08829 0.0
C844 C 0.56942 0.99555 0.06545 0.0
C845 C 0.58391 0.00495 0.07894 0.0
N846 N 0.5408 0.99515 0.04764 0.0
C847 C 0.53902 0.97754 0.04066 0.0
C848 C 0.56832 0.97787 0.05727 0.0
C849 C 0.55281 0.96867 0.04514 0.0
Gd850 Gd 0.5198 0.04108 0.98772 0.0
Gd851 Gd 0.52041 0.01221 0.03727 0.0
N852 N 0.53965 0.02678 0.0651 0.0
C853 C 0.56602 0.04469 0.09467 0.0
C854 C 0.53646 0.04061 0.07676 0.0
C855 C 0.54977 0.05009 0.09135 0.0
H856 H 0.52368 0.04448 0.07496 0.0
H857 H 0.54742 0.06148 0.1001 0.0
H858 H 0.50128 0.99959 0.96211 0.0
H859 H 0.52684 0.97028 0.03182 0.0
H860 H 0.47837 0.98646 0.93538 0.0
H861 H 0.57626 0.05198 0.10603 0.0
H862 H 0.59423 0.02857 0.09924 0.0
H863 H 0.51494 0.08331 -0.0015 0.0
H864 H 0.57898 0.971 0.06078 0.0
H865 H 0.55145 0.95476 0.03931 0.0
H866 H 0.45152 0.03515 0.92067 0.0
H867 H 0.59523 0.99903 0.08278 0.0
H868 H 0.47182 0.09174 0.96009 0.0
H869 H 0.4955 0.10297 0.98739 0.0
N870 N 0.50219 0.06094 0.97793 0.0
C871 C 0.48938 0.05456 0.96276 0.0
C872 C 0.5045 0.07812 0.98671 0.0
C873 C 0.48031 0.08301 0.96491 0.0
C874 C 0.49361 0.08938 0.98036 0.0
C875 C 0.47803 0.06543 0.9559 0.0
H876 H 0.45575 0.06654 0.93512 0.0
N877 N 0.49745 0.02636 0.96222 0.0
C878 C 0.48706 0.03685 0.95453 0.0
C879 C 0.47034 0.01136 0.93223 0.0
C880 C 0.4732 0.02959 0.93939 0.0
C881 C 0.49422 0.0084 0.95554 0.0
C882 C 0.48081 0.00071 0.94045 0.0
O883 O 0.54695 0.01954 0.02705 0.0
O884 O 0.53775 0.04215 0.01465 0.0
O885 O 0.54042 0.03961 0.96994 0.0
O886 O 0.53621 0.06568 0.98074 0.0
O887 O 0.51682 0.04156 0.04209 0.0
O888 O 0.51767 0.05748 0.01551 0.0
O889 O 0.49151 0.02835 0.99086 0.0
O890 O 0.50899 0.02093 0.01237 0.0
O891 O 0.49687 0.01125 0.05127 0.0
O892 O 0.50274 0.98635 0.0396 0.0
O893 O 0.52648 0.01285 0.98441 0.0
O894 O 0.52 0.9951 0.00908 0.0
C895 C 0.54971 0.03246 0.01656 0.0
C896 C 0.51604 0.05611 0.0335 0.0
C897 C 0.54527 0.06259 0.95073 0.0
C898 C 0.55586 0.05851 0.92081 0.0
C899 C 0.53934 0.08163 0.92704 0.0
C900 C 0.53777 0.07673 0.94496 0.0
C901 C 0.54832 0.07248 0.91489 0.0
C902 C 0.55436 0.05365 0.9386 0.0
C903 C 0.5443 0.05699 0.96934 0.0
C904 C 0.46221 0.04052 0.93226 0.0
C905 C 0.46459 0.05838 0.94053 0.0
H906 H 0.45978 0.00528 0.9207 0.0
C907 C 0.49264 0.01981 0.00505 0.0
C908 C 0.52462 0.99741 0.99203 0.0
C909 C 0.49192 0.98733 0.06892 0.0
C910 C 0.48363 0.99261 0.09993 0.0
C911 C 0.50076 0.97006 0.09322 0.0
C912 C 0.50062 0.97401 0.07479 0.0
C913 C 0.49248 0.9795 0.10588 0.0
C914 C 0.48312 0.99621 0.08146 0.0
C915 C 0.49339 0.99376 0.05068 0.0
H916 H 0.53374 0.0926 0.92263 0.0
H917 H 0.53082 0.08401 0.95422 0.0
H918 H 0.54977 0.07653 0.90114 0.0
H919 H 0.56048 0.04295 0.94306 0.0
H920 H 0.50747 0.95985 0.09775 0.0
H921 H 0.50759 0.96696 0.06535 0.0
H922 H 0.49272 0.97639 0.12015 0.0
H923 H 0.4764 0.00651 0.07704 0.0
C924 C 0.32617 0.30636 0.29623 0.0
C925 C 0.34323 0.32547 0.27641 0.0
C926 C 0.32697 0.31408 0.27964 0.0
C927 C 0.35875 0.32846 0.28965 0.0
C928 C 0.34164 0.31003 0.30987 0.0
C929 C 0.35795 0.32082 0.30634 0.0
N930 N 0.3101 0.29624 0.29954 0.0
C931 C 0.30842 0.29062 0.3167 0.0
C932 C 0.34014 0.30335 0.32702 0.0
C933 C 0.3234 0.2938 0.33052 0.0
Gd934 Gd 0.26328 0.24312 0.25096 0.0
Gd935 Gd 0.28565 0.29311 0.2757 0.0
N936 N 0.31163 0.3115 0.26729 0.0
C937 C 0.34326 0.33421 0.26037 0.0
C938 C 0.3113 0.32135 0.25259 0.0
C939 C 0.32713 0.33237 0.24857 0.0
H940 H 0.2987 0.32127 0.24423 0.0
H941 H 0.32677 0.33981 0.23666 0.0
H942 H 0.25059 0.22457 0.28853 0.0
H943 H 0.29546 0.28443 0.32031 0.0
H944 H 0.22257 0.20879 0.29912 0.0
H945 H 0.35546 0.34305 0.25744 0.0
H946 H 0.37132 0.33715 0.28737 0.0
H947 H 0.25358 0.24212 0.20386 0.0
H948 H 0.35166 0.30604 0.33789 0.0
H949 H 0.32193 0.28925 0.34405 0.0
H950 H 0.17784 0.1999 0.24517 0.0
H951 H 0.36992 0.32373 0.31667 0.0
H952 H 0.19723 0.21834 0.18827 0.0
H953 H 0.22692 0.23247 0.17966 0.0
N954 N 0.23881 0.23528 0.22643 0.0
C955 C 0.22276 0.22676 0.23133 0.0
C956 C 0.2405 0.23679 0.20799 0.0
C957 C 0.20877 0.22306 0.19908 0.0
C958 C 0.2255 0.23104 0.19416 0.0
C959 C 0.2073 0.2205 0.21775 0.0
H960 H 0.17907 0.20636 0.21276 0.0
N961 N 0.23743 0.22794 0.26222 0.0
C962 C 0.22207 0.22293 0.24966 0.0
C963 C 0.20605 0.20829 0.27295 0.0
C964 C 0.20592 0.213 0.25478 0.0
C965 C 0.238 0.22199 0.27936 0.0
C966 C 0.22221 0.21267 0.28522 0.0
O967 O 0.30577 0.27552 0.26942 0.0
O968 O 0.29132 0.25536 0.24334 0.0
O969 O 0.27377 0.22039 0.25926 0.0
O970 O 0.26103 0.21969 0.23088 0.0
O971 O 0.28398 0.28996 0.24432 0.0
O972 O 0.26173 0.26459 0.23185 0.0
O973 O 0.24525 0.25571 0.26865 0.0
O974 O 0.25479 0.28584 0.26603 0.0
O975 O 0.27999 0.31893 0.2714 0.0
O976 O 0.28515 0.3125 0.29963 0.0
O977 O 0.28044 0.24849 0.2794 0.0
O978 O 0.27283 0.27308 0.29382 0.0
C979 C 0.3063 0.26412 0.25447 0.0
C980 C 0.27221 0.28033 0.23048 0.0
C981 C 0.28171 0.20132 0.23525 0.0
C982 C 0.29507 0.17562 0.23737 0.0
C983 C 0.2968 0.19112 0.20984 0.0
C984 C 0.28734 0.20313 0.21756 0.0
C985 C 0.30046 0.17721 0.2196 0.0
C986 C 0.28595 0.18781 0.24522 0.0
C987 C 0.26921 0.21137 0.24253 0.0
C988 C 0.19036 0.2075 0.24147 0.0
C989 C 0.19105 0.2112 0.22301 0.0
H990 H 0.1939 0.20079 0.27745 0.0
C991 C 0.24224 0.27206 0.26936 0.0
C992 C 0.27626 0.25706 0.29428 0.0
C993 C 0.26784 0.3344 0.29482 0.0
C994 C 0.25083 0.35689 0.28833 0.0
C995 C 0.25067 0.34508 0.31809 0.0
C996 C 0.2621 0.3341 0.31259 0.0
C997 C 0.24498 0.35642 0.30597 0.0
C998 C 0.26224 0.34597 0.28283 0.0
C999 C 0.2811 0.32433 0.28921 0.0
H1000 H 0.30092 0.19233 0.19612 0.0
H1001 H 0.28403 0.21343 0.20952 0.0
H1002 H 0.30743 0.1677 0.21332 0.0
H1003 H 0.28129 0.18613 0.2587 0.0
H1004 H 0.24644 0.34498 0.33185 0.0
H1005 H 0.26664 0.32566 0.32233 0.0
H1006 H 0.23638 0.36512 0.31049 0.0
H1007 H 0.26699 0.34678 0.2693 0.0
C1008 C 0.50959 0.56191 0.05455 0.0
C1009 C 0.53755 0.58131 0.07102 0.0
C1010 C 0.52808 0.56904 0.05543 0.0
C1011 C 0.52832 0.58601 0.08581 0.0
C1012 C 0.5003 0.56656 0.0694 0.0
C1013 C 0.50978 0.57861 0.08503 0.0
N1014 N 0.50073 0.55032 0.03922 0.0
C1015 C 0.48259 0.5432 0.03765 0.0
C1016 C 0.48174 0.55901 0.06805 0.0
C1017 C 0.47284 0.54731 0.05208 0.0
Gd1018 Gd 0.53417 0.49741 0.01072 0.0
Gd1019 Gd 0.51822 0.54505 0.01561 0.0
N1020 N 0.53677 0.564 0.04105 0.0
C1021 C 0.55598 0.58871 0.07114 0.0
C1022 C 0.55457 0.57161 0.04084 0.0
C1023 C 0.56451 0.58387 0.05597 0.0
H1024 H 0.56101 0.56881 0.0288 0.0
H1025 H 0.57865 0.58986 0.05575 0.0
H1026 H 0.49168 0.4724 -0.00168 0.0
H1027 H 0.4755 0.53472 0.02506 0.0
H1028 H 0.47397 0.45124 0.97149 0.0
H1029 H 0.56362 0.59851 0.08264 0.0
H1030 H 0.5354 0.59541 0.09791 0.0
H1031 H 0.57676 0.5079 0.00092 0.0
H1032 H 0.47412 0.56224 0.07917 0.0
H1033 H 0.45845 0.54163 0.05077 0.0
H1034 H 0.51676 0.44656 0.92857 0.0
H1035 H 0.50286 0.58238 0.09656 0.0
H1036 H 0.57794 0.48014 0.94683 0.0
H1037 H 0.59366 0.50098 0.97505 0.0
N1038 N 0.55157 0.49179 0.98711 0.0
C1039 C 0.5427 0.48007 0.97187 0.0
C1040 C 0.56966 0.49916 0.98847 0.0
C1041 C 0.5704 0.48328 0.95805 0.0
C1042 C 0.57932 0.4951 0.97394 0.0
C1043 C 0.55189 0.47555 0.95688 0.0
H1044 H 0.5492 0.45987 0.92962 0.0
N1045 N 0.51569 0.47772 0.98566 0.0
C1046 C 0.52428 0.47275 0.97117 0.0
C1047 C 0.49638 0.4529 0.95565 0.0
C1048 C 0.51476 0.46045 0.95561 0.0
C1049 C 0.49803 0.46974 0.98617 0.0
C1050 C 0.48805 0.4574 0.9711 0.0
O1051 O 0.52415 0.53255 0.04232 0.0
O1052 O 0.54653 0.51831 0.03546 0.0
O1053 O 0.52628 0.47424 0.02651 0.0
O1054 O 0.5533 0.4816 0.01833 0.0
O1055 O 0.54378 0.54424 0.00256 0.0
O1056 O 0.55594 0.52319 0.01714 0.0
O1057 O 0.52785 0.50906 0.98374 0.0
O1058 O 0.50651 0.52523 0.98989 0.0
O1059 O 0.52644 0.5695 0.00154 0.0
O1060 O 0.49892 0.56055 0.00799 0.0
O1061 O 0.50829 0.49849 0.02299 0.0
O1062 O 0.49622 0.51956 0.00836 0.0
C1063 C 0.53763 0.52523 0.04764 0.0
C1064 C 0.55748 0.53712 0.00765 0.0
C1065 C 0.54788 0.45535 0.03482 0.0
C1066 C 0.54333 0.42969 0.05297 0.0
C1067 C 0.57095 0.43806 0.03912 0.0
C1068 C 0.56484 0.45212 0.0318 0.0
C1069 C 0.56033 0.42697 0.04964 0.0
C1070 C 0.53697 0.4439 0.04542 0.0
C1071 C 0.54214 0.47053 0.02642 0.0
C1072 C 0.52387 0.45594 0.94065 0.0
C1073 C 0.54237 0.4635 0.94127 0.0
H1074 H 0.4886 0.44335 0.944 0.0
C1075 C 0.5155 0.5177 0.97829 0.0
C1076 C 0.49445 0.50509 0.01704 0.0
C1077 C 0.50436 0.58824 0.99412 0.0
C1078 C 0.50731 0.61375 0.97574 0.0
C1079 C 0.48219 0.60675 0.99366 0.0
C1080 C 0.48853 0.59233 -0.00024 0.0
C1081 C 0.49143 0.61734 0.98174 0.0
C1082 C 0.51398 0.59923 0.9822 0.0
C1083 C 0.51028 0.57256 0.00115 0.0
H1084 H 0.58401 0.43576 0.03662 0.0
H1085 H 0.57349 0.46045 0.02365 0.0
H1086 H 0.56539 0.41612 0.0552 0.0
H1087 H 0.52384 0.44607 0.04789 0.0
H1088 H 0.47001 0.60975 -0.0018 0.0
H1089 H 0.48098 0.58439 0.00906 0.0
H1090 H 0.48619 0.62853 0.97729 0.0
H1091 H 0.52622 0.59633 0.97773 0.0
C1092 C 0.73715 0.23035 0.29482 0.0
C1093 C 0.71783 0.20933 0.26934 0.0
C1094 C 0.73392 0.22239 0.27611 0.0
C1095 C 0.70511 0.20423 0.2815 0.0
C1096 C 0.72431 0.22525 0.30698 0.0
C1097 C 0.70834 0.21216 0.30024 0.0
N1098 N 0.75281 0.24294 0.30111 0.0
C1099 C 0.75666 0.25049 0.31944 0.0
C1100 C 0.728 0.23329 0.32567 0.0
C1101 C 0.74425 0.24591 0.33191 0.0
Gd1102 Gd 0.77904 0.29734 0.25931 0.0
Gd1103 Gd 0.77327 0.2468 0.27933 0.0
N1104 N 0.74638 0.22761 0.26449 0.0
C1105 C 0.71508 0.20164 0.25056 0.0
C1106 C 0.74378 0.22022 0.24618 0.0
C1107 C 0.72805 0.20718 0.23893 0.0
H1108 H 0.75393 0.22401 0.23721 0.0
H1109 H 0.7261 0.20114 0.22449 0.0
H1110 H 0.79638 0.32398 0.29982 0.0
H1111 H 0.76953 0.25952 0.32478 0.0
H1112 H 0.82498 0.34562 0.31351 0.0
H1113 H 0.70311 0.19125 0.24497 0.0
H1114 H 0.69272 0.19414 0.27655 0.0
H1115 H 0.77643 0.29737 0.21268 0.0
H1116 H 0.71852 0.22965 0.33547 0.0
H1117 H 0.74739 0.25182 0.34642 0.0
H1118 H 0.85863 0.35309 0.26146 0.0
H1119 H 0.69839 0.20802 0.30944 0.0
H1120 H 0.82793 0.32556 0.20064 0.0
H1121 H 0.7969 0.30734 0.18961 0.0
N1122 N 0.79617 0.30859 0.23623 0.0
C1123 C 0.81259 0.31975 0.24252 0.0
C1124 C 0.79012 0.30492 0.21751 0.0
C1125 C 0.81909 0.32102 0.21075 0.0
C1126 C 0.80159 0.31073 0.20447 0.0
C1127 C 0.82463 0.32607 0.22999 0.0
H1128 H 0.85104 0.34246 0.22766 0.0
N1129 N 0.8044 0.32018 0.27289 0.0
C1130 C 0.8168 0.32585 0.26146 0.0
C1131 C 0.83637 0.34508 0.28758 0.0
C1132 C 0.83325 0.33826 0.26852 0.0
C1133 C 0.80682 0.32767 0.29118 0.0
C1134 C 0.82293 0.34001 0.29888 0.0
O1135 O 0.74801 0.2576 0.27143 0.0
O1136 O 0.75547 0.27366 0.24726 0.0
O1137 O 0.76812 0.31999 0.27027 0.0
O1138 O 0.75907 0.30656 0.24199 0.0
O1139 O 0.7798 0.24874 0.25061 0.0
O1140 O 0.78302 0.27612 0.23789 0.0
O1141 O 0.80512 0.29243 0.27446 0.0
O1142 O 0.8021 0.26144 0.27643 0.0
O1143 O 0.78127 0.22152 0.27135 0.0
O1144 O 0.78022 0.23056 0.30036 0.0
O1145 O 0.76919 0.2872 0.28491 0.0
O1146 O 0.7857 0.2707 0.30014 0.0
C1147 C 0.74326 0.26551 0.25693 0.0
C1148 C 0.78334 0.25896 0.23739 0.0
C1149 C 0.75777 0.33711 0.24717 0.0
C1150 C 0.74512 0.36373 0.24735 0.0
C1151 C 0.76178 0.3561 0.22229 0.0
C1152 C 0.76473 0.34108 0.2305 0.0
C1153 C 0.75191 0.36733 0.23059 0.0
C1154 C 0.74813 0.34867 0.25568 0.0
C1155 C 0.75826 0.31983 0.25435 0.0
C1156 C 0.84579 0.34376 0.25627 0.0
C1157 C 0.84148 0.33768 0.23703 0.0
H1158 H 0.84884 0.35464 0.29358 0.0
C1159 C 0.81187 0.27806 0.27645 0.0
C1160 C 0.7802 0.28559 0.29935 0.0
C1161 C 0.80048 0.21169 0.29468 0.0
C1162 C 0.81837 0.18892 0.29092 0.0
C1163 C 0.8232 0.20922 0.31997 0.0
C1164 C 0.80998 0.21763 0.31282 0.0
C1165 C 0.82746 0.19508 0.3091 0.0
C1166 C 0.80492 0.19734 0.28363 0.0
C1167 C 0.7843 0.21849 0.28864 0.0
H1168 H 0.7669 0.35887 0.20928 0.0
H1169 H 0.77199 0.33232 0.22349 0.0
H1170 H 0.74951 0.3788 0.22392 0.0
H1171 H 0.74243 0.34561 0.26835 0.0
H1172 H 0.82988 0.21341 0.33419 0.0
H1173 H 0.80678 0.22836 0.32184 0.0
H1174 H 0.83766 0.18863 0.31507 0.0
H1175 H 0.79734 0.19214 0.26989 0.0
C1176 C 0.05364 0.50209 0.56163 0.0
C1177 C 0.06857 0.52804 0.58439 0.0
C1178 C 0.0544 0.51946 0.57002 0.0
C1179 C 0.082 0.519 0.59004 0.0
C1180 C 0.06693 0.49286 0.56749 0.0
C1181 C 0.08116 0.50145 0.58165 0.0
N1182 N 0.04034 0.49455 0.54718 0.0
C1183 C 0.0389 0.47739 0.53877 0.0
C1184 C 0.06573 0.47539 0.55867 0.0
C1185 C 0.05153 0.46756 0.54439 0.0
Gd1186 Gd 0.02356 0.54175 0.48727 0.0
Gd1187 Gd 0.02142 0.513 0.5367 0.0
N1188 N 0.04175 0.52825 0.56345 0.0
C1189 C 0.06898 0.54556 0.59247 0.0
C1190 C 0.04151 0.54491 0.57214 0.0
C1191 C 0.05521 0.55389 0.58653 0.0
H1192 H 0.03079 0.55141 0.56829 0.0
H1193 H 0.05514 0.56727 0.59303 0.0
H1194 H 0.01763 0.50941 0.44994 0.0
H1195 H 0.02805 0.47128 0.52761 0.0
H1196 H 0.99311 0.49372 0.42485 0.0
H1197 H 0.07969 0.55266 0.60345 0.0
H1198 H 0.09312 0.52549 0.60088 0.0
H1199 H 0.01473 0.58142 0.50132 0.0
H1200 H 0.07567 0.46785 0.56276 0.0
H1201 H 0.05042 0.45402 0.53756 0.0
H1202 H 0.94891 0.52966 0.42731 0.0
H1203 H 0.09164 0.49466 0.58614 0.0
H1204 H 0.96454 0.58441 0.47053 0.0
H1205 H 0.9907 0.59787 0.49491 0.0
N1206 N 0.00239 0.55911 0.48063 0.0
C1207 C 0.98858 0.55188 0.46666 0.0
C1208 C 0.00345 0.57553 0.49056 0.0
C1209 C 0.97514 0.57724 0.47315 0.0
C1210 C 0.98987 0.58487 0.48695 0.0
C1211 C 0.97436 0.56053 0.46278 0.0
H1212 H 0.9487 0.55855 0.4457 0.0
N1213 N 0.00296 0.52806 0.46033 0.0
C1214 C 0.9887 0.53564 0.45641 0.0
C1215 C 0.97592 0.5119 0.43082 0.0
C1216 C 0.97462 0.52761 0.44179 0.0
C1217 C 0.00521 0.51394 0.44844 0.0
C1218 C 0.99152 0.50531 0.43386 0.0
O1219 O 0.05034 0.52343 0.53343 0.0
O1220 O 0.03473 0.53284 0.51213 0.0
O1221 O 0.04505 0.54226 0.47011 0.0
O1222 O 0.03985 0.56737 0.48239 0.0
O1223 O 0.01493 0.54133 0.53804 0.0
O1224 O 0.02928 0.55863 0.51636 0.0
O1225 O 0.99657 0.53499 0.49667 0.0
O1226 O 0.00451 0.51192 0.50913 0.0
O1227 O 0.99978 0.51388 0.55329 0.0
O1228 O 0.00526 0.48815 0.54355 0.0
O1229 O 0.02726 0.5123 0.48268 0.0
O1230 O 0.02364 0.49616 0.50904 0.0
C1231 C 0.05066 0.53209 0.51928 0.0
C1232 C 0.02076 0.55692 0.53141 0.0
C1233 C 0.04667 0.56549 0.45133 0.0
C1234 C 0.05455 0.56267 0.41979 0.0
C1235 C 0.03355 0.581 0.42768 0.0
C1236 C 0.03518 0.57672 0.44598 0.0
C1237 C 0.0432 0.57403 0.4146 0.0
C1238 C 0.05631 0.55856 0.43818 0.0
C1239 C 0.04783 0.55966 0.47 0.0
C1240 C 0.96 0.53577 0.43831 0.0
C1241 C 0.9599 0.55224 0.44874 0.0
H1242 H 0.96535 0.50522 0.41951 0.0
C1243 C 0.99267 0.52165 0.50641 0.0
C1244 C 0.02668 0.49751 0.49132 0.0
C1245 C 0.99456 0.49083 0.57279 0.0
C1246 C 0.98952 0.49744 0.60507 0.0
C1247 C 0.99036 0.46692 0.59254 0.0
C1248 C 0.99323 0.47264 0.57525 0.0
C1249 C 0.98839 0.47918 0.60735 0.0
C1250 C 0.99294 0.5032 0.58784 0.0
C1251 C 0.9963 0.49657 0.55422 0.0
H1252 H 0.02471 0.58965 0.4236 0.0
H1253 H 0.02733 0.58204 0.4558 0.0
H1254 H 0.04173 0.5774 0.40044 0.0
H1255 H 0.06525 0.54998 0.44231 0.0
H1256 H 0.98911 0.45285 0.59431 0.0
H1257 H 0.99414 0.4628 0.56374 0.0
H1258 H 0.98516 0.47415 0.6203 0.0
H1259 H 0.9937 0.51722 0.58601 0.0
C1260 C 0.73429 0.78476 0.22594 0.0
C1261 C 0.71676 0.75664 0.20804 0.0
C1262 C 0.72827 0.76609 0.22417 0.0
C1263 C 0.71244 0.76603 0.19315 0.0
C1264 C 0.72903 0.79436 0.21148 0.0
C1265 C 0.71862 0.78484 0.19484 0.0
N1266 N 0.74372 0.79367 0.24248 0.0
C1267 C 0.74641 0.81196 0.24626 0.0
C1268 C 0.73354 0.81327 0.21459 0.0
C1269 C 0.74192 0.8221 0.23222 0.0
Gd1270 Gd 0.80167 0.76338 0.27179 0.0
Gd1271 Gd 0.75137 0.7754 0.26466 0.0
N1272 N 0.73261 0.75732 0.23883 0.0
C1273 C 0.70931 0.73816 0.2077 0.0
C1274 C 0.72418 0.73971 0.23924 0.0
C1275 C 0.71279 0.72974 0.2235 0.0
H1276 H 0.72655 0.73336 0.25161 0.0
H1277 H 0.70668 0.71561 0.22355 0.0
H1278 H 0.82114 0.8062 0.29174 0.0
H1279 H 0.75192 0.81869 0.26021 0.0
H1280 H 0.8417 0.82151 0.31996 0.0
H1281 H 0.70036 0.73044 0.19557 0.0
H1282 H 0.70378 0.75897 0.18055 0.0
H1283 H 0.79256 0.71893 0.2766 0.0
H1284 H 0.72978 0.82113 0.20383 0.0
H1285 H 0.74461 0.83667 0.2351 0.0
H1286 H 0.85008 0.77353 0.35512 0.0
H1287 H 0.7146 0.79198 0.18352 0.0
H1288 H 0.81872 0.71315 0.33006 0.0
H1289 H 0.79922 0.69966 0.30027 0.0
N1290 N 0.80658 0.74353 0.29345 0.0
C1291 C 0.81788 0.75117 0.30945 0.0
C1292 C 0.80034 0.72521 0.28985 0.0
C1293 C 0.81548 0.7218 0.31988 0.0
C1294 C 0.8044 0.71414 0.30312 0.0
C1295 C 0.82256 0.74048 0.32313 0.0
H1296 H 0.838 0.74066 0.35014 0.0
N1297 N 0.81987 0.77981 0.29899 0.0
C1298 C 0.82486 0.76976 0.31221 0.0
C1299 C 0.8427 0.79683 0.33144 0.0
C1300 C 0.83642 0.77804 0.3288 0.0
C1301 C 0.82561 0.79817 0.30175 0.0
C1302 C 0.83715 0.80694 0.31791 0.0
O1303 O 0.75912 0.75729 0.24154 0.0
O1304 O 0.7892 0.76993 0.24445 0.0
O1305 O 0.82971 0.77034 0.26547 0.0
O1306 O 0.81218 0.74347 0.25581 0.0
O1307 O 0.75697 0.75236 0.27956 0.0
O1308 O 0.77711 0.74019 0.26431 0.0
O1309 O 0.7886 0.77069 0.29751 0.0
O1310 O 0.77234 0.79114 0.28808 0.0
O1311 O 0.73434 0.7667 0.2861 0.0
O1312 O 0.72731 0.78536 0.26796 0.0
O1313 O 0.80222 0.79076 0.26292 0.0
O1314 O 0.77494 0.80009 0.26451 0.0
C1315 C 0.7744 0.76015 0.23446 0.0
C1316 C 0.76225 0.73835 0.27219 0.0
C1317 C 0.84262 0.74812 0.24766 0.0
C1318 C 0.86863 0.75274 0.23024 0.0
C1319 C 0.85685 0.72337 0.23971 0.0
C1320 C 0.84356 0.73002 0.24793 0.0
C1321 C 0.86924 0.7346 0.23088 0.0
C1322 C 0.85535 0.75962 0.23885 0.0
C1323 C 0.82794 0.75437 0.25622 0.0
C1324 C 0.84116 0.7674 0.34235 0.0
C1325 C 0.83424 0.74868 0.33953 0.0
H1326 H 0.85161 0.80368 0.34398 0.0
C1327 C 0.78034 0.78388 0.30132 0.0
C1328 C 0.79238 0.80299 0.26218 0.0
C1329 C 0.71426 0.7849 0.29604 0.0
C1330 C 0.68779 0.78517 0.31233 0.0
C1331 C 0.71202 0.81223 0.31494 0.0
C1332 C 0.72143 0.80309 0.30331 0.0
C1333 C 0.69525 0.80345 0.3192 0.0
C1334 C 0.69753 0.77584 0.30091 0.0
C1335 C 0.72266 0.77609 0.28137 0.0
H1336 H 0.85745 0.7094 0.24005 0.0
H1337 H 0.83402 0.72096 0.2546 0.0
H1338 H 0.87935 0.72909 0.22443 0.0
H1339 H 0.85471 0.77358 0.23838 0.0
H1340 H 0.71757 0.8263 0.32036 0.0
H1341 H 0.734 0.81038 0.29946 0.0
H1342 H 0.68812 0.81095 0.32804 0.0
H1343 H 0.69174 0.76187 0.29511 0.0
C1344 C 0.79725 0.24107 0.72269 0.0
C1345 C 0.77133 0.22442 0.70059 0.0
C1346 C 0.77961 0.23925 0.71428 0.0
C1347 C 0.78108 0.21158 0.69533 0.0
C1348 C 0.80717 0.22834 0.71722 0.0
C1349 C 0.79898 0.21357 0.70356 0.0
N1350 N 0.80449 0.25494 0.73663 0.0
C1351 C 0.82196 0.25753 0.74478 0.0
C1352 C 0.82496 0.23067 0.72587 0.0
C1353 C 0.83244 0.24544 0.73956 0.0
Gd1354 Gd 0.75746 0.27376 0.79588 0.0
Gd1355 Gd 0.7854 0.27362 0.74558 0.0
N1356 N 0.77015 0.25134 0.72052 0.0
C1357 C 0.75335 0.22273 0.69288 0.0
C1358 C 0.75287 0.25013 0.71241 0.0
C1359 C 0.74417 0.23577 0.69866 0.0
H1360 H 0.74556 0.26003 0.71647 0.0
H1361 H 0.73033 0.23472 0.69261 0.0
H1362 H 0.79037 0.27836 0.83299 0.0
H1363 H 0.8279 0.26894 0.75534 0.0
H1364 H 0.80675 0.3022 0.85826 0.0
H1365 H 0.74647 0.21147 0.68242 0.0
H1366 H 0.77488 0.20001 0.68497 0.0
H1367 H 0.7176 0.28316 0.78388 0.0
H1368 H 0.83303 0.22119 0.72205 0.0
H1369 H 0.84624 0.24745 0.7462 0.0
H1370 H 0.77178 0.34727 0.85758 0.0
H1371 H 0.80632 0.20353 0.69936 0.0
H1372 H 0.71606 0.33311 0.81559 0.0
H1373 H 0.70161 0.30732 0.79123 0.0
N1374 N 0.7407 0.29517 0.80364 0.0
C1375 C 0.74848 0.30874 0.81759 0.0
C1376 C 0.72396 0.29435 0.79444 0.0
C1377 C 0.72307 0.32251 0.81241 0.0
C1378 C 0.71487 0.30799 0.79865 0.0
C1379 C 0.74006 0.32299 0.82216 0.0
H1380 H 0.74265 0.34826 0.83995 0.0
N1381 N 0.77184 0.29361 0.8232 0.0
C1382 C 0.76474 0.30808 0.82752 0.0
C1383 C 0.78893 0.31994 0.853 0.0
C1384 C 0.77318 0.32177 0.84236 0.0
C1385 C 0.78601 0.29085 0.83483 0.0
C1386 C 0.7951 0.30418 0.84952 0.0
O1387 O 0.77321 0.24538 0.74916 0.0
O1388 O 0.76736 0.26155 0.77236 0.0
O1389 O 0.75719 0.25207 0.81246 0.0
O1390 O 0.73181 0.25709 0.80063 0.0
O1391 O 0.75735 0.28045 0.74426 0.0
O1392 O 0.73983 0.26873 0.76714 0.0
O1393 O 0.76377 0.30027 0.78526 0.0
O1394 O 0.78647 0.29211 0.77216 0.0
O1395 O 0.78298 0.29132 0.72457 0.0
O1396 O 0.80953 0.2907 0.73832 0.0
O1397 O 0.78726 0.27096 0.80014 0.0
O1398 O 0.80288 0.27266 0.77334 0.0
C1399 C 0.76547 0.24546 0.76386 0.0
C1400 C 0.74174 0.27584 0.75118 0.0
C1401 C 0.73405 0.24785 0.83096 0.0
C1402 C 0.73935 0.23931 0.86195 0.0
C1403 C 0.71683 0.25649 0.85519 0.0
C1404 C 0.72077 0.25653 0.83678 0.0
C1405 C 0.72617 0.24798 0.86783 0.0
C1406 C 0.74309 0.23909 0.8436 0.0
C1407 C 0.73977 0.24852 0.81234 0.0
C1408 C 0.76536 0.3365 0.8464 0.0
C1409 C 0.74876 0.33706 0.83639 0.0
H1410 H 0.79593 0.33021 0.86442 0.0
C1411 C 0.77645 0.30373 0.77463 0.0
C1412 C 0.80188 0.27095 0.79142 0.0
C1413 C 0.8072 0.29807 0.70728 0.0
C1414 C 0.80723 0.31173 0.67862 0.0
C1415 C 0.82711 0.29164 0.68498 0.0
C1416 C 0.82045 0.28915 0.70196 0.0
C1417 C 0.82064 0.30301 0.67337 0.0
C1418 C 0.80053 0.30917 0.69549 0.0
C1419 C 0.80042 0.29688 0.72527 0.0
H1420 H 0.70655 0.26308 0.85966 0.0
H1421 H 0.71361 0.26344 0.82726 0.0
H1422 H 0.72295 0.24787 0.88202 0.0
H1423 H 0.75325 0.2322 0.83922 0.0
H1424 H 0.83739 0.28486 0.68088 0.0
H1425 H 0.82573 0.28045 0.7109 0.0
H1426 H 0.82598 0.30493 0.6603 0.0
H1427 H 0.79039 0.31619 0.69965 0.0
C1428 C 0.82534 0.80869 0.79379 0.0
C1429 C 0.84164 0.82227 0.76984 0.0
C1430 C 0.82561 0.81254 0.77533 0.0
C1431 C 0.85728 0.82819 0.78303 0.0
C1432 C 0.8411 0.81456 0.80696 0.0
C1433 C 0.857 0.82439 0.80151 0.0
N1434 N 0.80971 0.79936 0.79887 0.0
C1435 C 0.80888 0.7955 0.81678 0.0
C1436 C 0.84037 0.81055 0.82534 0.0
C1437 C 0.82422 0.80094 0.83023 0.0
Gd1438 Gd 0.76475 0.74389 0.75043 0.0
Gd1439 Gd 0.78462 0.79411 0.77585 0.0
N1440 N 0.81021 0.80686 0.76281 0.0
C1441 C 0.84142 0.82603 0.75132 0.0
C1442 C 0.80973 0.81121 0.74503 0.0
C1443 C 0.82537 0.82053 0.73889 0.0
H1444 H 0.79722 0.8082 0.73581 0.0
H1445 H 0.82493 0.82387 0.72471 0.0
H1446 H 0.75397 0.72323 0.78734 0.0
H1447 H 0.79627 0.7889 0.82097 0.0
H1448 H 0.72717 0.70432 0.79738 0.0
H1449 H 0.85346 0.83349 0.74658 0.0
H1450 H 0.86965 0.83584 0.77909 0.0
H1451 H 0.75235 0.75026 0.70575 0.0
H1452 H 0.85217 0.81493 0.83588 0.0
H1453 H 0.82348 0.79802 0.84447 0.0
H1454 H 0.68106 0.69627 0.7446 0.0
H1455 H 0.86917 0.82915 0.81151 0.0
H1456 H 0.69682 0.7234 0.69023 0.0
H1457 H 0.7251 0.74188 0.68242 0.0
N1458 N 0.73931 0.73836 0.72742 0.0
C1459 C 0.72403 0.72768 0.73183 0.0
C1460 C 0.73989 0.74318 0.70982 0.0
C1461 C 0.70862 0.72754 0.7008 0.0
C1462 C 0.72454 0.73805 0.69636 0.0
C1463 C 0.70826 0.72207 0.71863 0.0
H1464 H 0.68057 0.70637 0.71345 0.0
N1465 N 0.73985 0.72705 0.76175 0.0
C1466 C 0.72433 0.72181 0.74942 0.0
C1467 C 0.70983 0.70442 0.77185 0.0
C1468 C 0.70885 0.71042 0.75422 0.0
C1469 C 0.74118 0.72045 0.77848 0.0
C1470 C 0.72611 0.70935 0.78397 0.0
O1471 O 0.80512 0.77664 0.76989 0.0
O1472 O 0.79182 0.75819 0.74283 0.0
O1473 O 0.77545 0.72035 0.7558 0.0
O1474 O 0.76344 0.72316 0.72755 0.0
O1475 O 0.76782 0.79061 0.74741 0.0
O1476 O 0.77432 0.76533 0.73285 0.0
O1477 O 0.74277 0.75697 0.76107 0.0
O1478 O 0.75503 0.78495 0.77899 0.0
O1479 O 0.78085 0.82029 0.76944 0.0
O1480 O 0.78613 0.81551 0.7983 0.0
O1481 O 0.77991 0.7486 0.7799 0.0
O1482 O 0.77323 0.77404 0.79448 0.0
C1483 C 0.80644 0.76643 0.75446 0.0
C1484 C 0.7688 0.78025 0.7322 0.0
C1485 C 0.77419 0.69621 0.73043 0.0
C1486 C 0.78702 0.67041 0.73448 0.0
C1487 C 0.77284 0.67365 0.70382 0.0
C1488 C 0.76898 0.68971 0.71129 0.0
C1489 C 0.78195 0.66404 0.71534 0.0
C1490 C 0.78301 0.68639 0.742 0.0
C1491 C 0.77098 0.71346 0.73819 0.0
C1492 C 0.69306 0.70508 0.74119 0.0
C1493 C 0.69278 0.71085 0.72344 0.0
H1494 H 0.69823 0.69564 0.77605 0.0
C1495 C 0.74123 0.77159 0.77162 0.0
C1496 C 0.77592 0.75771 0.79463 0.0
C1497 C 0.76686 0.83508 0.7918 0.0
C1498 C 0.74986 0.85791 0.7867 0.0
C1499 C 0.7445 0.83987 0.81199 0.0
C1500 C 0.75748 0.83063 0.80697 0.0
C1501 C 0.74081 0.8536 0.80202 0.0
C1502 C 0.76276 0.84857 0.78152 0.0
C1503 C 0.78147 0.82642 0.78704 0.0
H1504 H 0.76886 0.6687 0.68907 0.0
H1505 H 0.76206 0.69709 0.70206 0.0
H1506 H 0.78491 0.65159 0.70939 0.0
H1507 H 0.78715 0.69134 0.75677 0.0
H1508 H 0.73748 0.83654 0.82379 0.0
H1509 H 0.76029 0.8202 0.8151 0.0
H1510 H 0.73096 0.86091 0.80629 0.0
H1511 H 0.77 0.85223 0.7699 0.0
C1512 C 0.488 0.47137 0.48793 0.0
C1513 C 0.4722 0.45578 0.51104 0.0
C1514 C 0.48309 0.47141 0.50587 0.0
C1515 C 0.46647 0.44007 0.49805 0.0
C1516 C 0.48188 0.45567 0.47474 0.0
C1517 C 0.47127 0.44003 0.47995 0.0
N1518 N 0.4979 0.48687 0.48307 0.0
C1519 C 0.50129 0.48769 0.46502 0.0
C1520 C 0.48608 0.4563 0.45648 0.0
C1521 C 0.49571 0.47242 0.45158 0.0
Gd1522 Gd 0.55428 0.53441 0.53099 0.0
Gd1523 Gd 0.50362 0.51226 0.50607 0.0
N1524 N 0.48876 0.48682 0.51822 0.0
C1525 C 0.46714 0.45649 0.52905 0.0
C1526 C 0.48315 0.48781 0.53545 0.0
C1527 C 0.47258 0.47261 0.54128 0.0
H1528 H 0.48645 0.50041 0.54453 0.0
H1529 H 0.46836 0.47343 0.55505 0.0
H1530 H 0.56899 0.54768 0.49111 0.0
H1531 H 0.50738 0.50025 0.46058 0.0
H1532 H 0.58689 0.57496 0.48126 0.0
H1533 H 0.45879 0.44477 0.53353 0.0
H1534 H 0.45811 0.42795 0.50177 0.0
H1535 H 0.5467 0.5466 0.57527 0.0
H1536 H 0.48148 0.44458 0.44593 0.0
H1537 H 0.49842 0.47323 0.4373 0.0
H1538 H 0.59974 0.61847 0.53636 0.0
H1539 H 0.46644 0.42789 0.46998 0.0
H1540 H 0.57432 0.60167 0.59114 0.0
H1541 H 0.55567 0.57342 0.59878 0.0
N1542 N 0.55836 0.55974 0.55358 0.0
C1543 C 0.56901 0.57504 0.54917 0.0
C1544 C 0.55366 0.55905 0.57119 0.0
C1545 C 0.56985 0.59005 0.58045 0.0
C1546 C 0.55918 0.57418 0.58478 0.0
C1547 C 0.57498 0.59062 0.56253 0.0
H1548 H 0.59098 0.61816 0.56795 0.0
N1549 N 0.56835 0.55998 0.51852 0.0
C1550 C 0.57427 0.57511 0.53129 0.0
C1551 C 0.58967 0.5908 0.50823 0.0
C1552 C 0.58521 0.59089 0.52646 0.0
C1553 C 0.5729 0.55978 0.50085 0.0
C1554 C 0.58338 0.57521 0.49534 0.0
O1555 O 0.51706 0.49244 0.52072 0.0
O1556 O 0.54802 0.50368 0.52891 0.0
O1557 O 0.58223 0.53402 0.52869 0.0
O1558 O 0.57275 0.53457 0.55579 0.0
O1559 O 0.50903 0.52974 0.534 0.0
O1560 O 0.53391 0.52283 0.54911 0.0
O1561 O 0.53715 0.55449 0.52277 0.0
O1562 O 0.51534 0.53994 0.49794 0.0
O1563 O 0.48009 0.52114 0.5137 0.0
O1564 O 0.48028 0.50907 0.48526 0.0
O1565 O 0.55165 0.51925 0.50192 0.0
O1566 O 0.524 0.52108 0.48673 0.0
C1567 C 0.53337 0.49041 0.52669 0.0
C1568 C 0.51789 0.52629 0.54919 0.0
C1569 C 0.5965 0.52003 0.55191 0.0
C1570 C 0.61908 0.50322 0.54565 0.0
C1571 C 0.6068 0.50223 0.57501 0.0
C1572 C 0.59592 0.51377 0.5695 0.0
C1573 C 0.61844 0.49699 0.56314 0.0
C1574 C 0.60817 0.51466 0.54004 0.0
C1575 C 0.58612 0.53322 0.54654 0.0
C1576 C 0.59121 0.60631 0.53981 0.0
C1577 C 0.58616 0.60616 0.55779 0.0
H1578 H 0.59796 0.60267 0.50396 0.0
C1579 C 0.52496 0.55482 0.50838 0.0
C1580 C 0.54072 0.51938 0.4866 0.0
C1581 C 0.46219 0.53009 0.48953 0.0
C1582 C 0.43986 0.54752 0.49374 0.0
C1583 C 0.45356 0.54743 0.46521 0.0
C1584 C 0.4639 0.53578 0.47181 0.0
C1585 C 0.44145 0.55326 0.47613 0.0
C1586 C 0.45023 0.5361 0.50041 0.0
C1587 C 0.47154 0.51693 0.49667 0.0
H1588 H 0.60644 0.49759 0.58861 0.0
H1589 H 0.5873 0.51799 0.57913 0.0
H1590 H 0.62715 0.48837 0.5677 0.0
H1591 H 0.60919 0.51974 0.52666 0.0
H1592 H 0.45472 0.55169 0.45152 0.0
H1593 H 0.47301 0.53115 0.46305 0.0
H1594 H 0.43314 0.56193 0.47078 0.0
H1595 H 0.44855 0.53145 0.51392 0.0
C1596 C 0.06412 0.55588 0.98865 0.0
C1597 C 0.08476 0.57591 0.01385 0.0
C1598 C 0.07164 0.55979 0.00747 0.0
C1599 C 0.0903 0.588 0.00115 0.0
C1600 C 0.06963 0.56802 0.9759 0.0
C1601 C 0.08276 0.58406 0.98225 0.0
N1602 N 0.05141 0.54027 0.98285 0.0
C1603 C 0.04396 0.53575 0.96453 0.0
C1604 C 0.06183 0.56363 0.9571 0.0
C1605 C 0.04896 0.54741 0.9514 0.0
Gd1606 Gd 0.99804 0.51703 0.02874 0.0
Gd1607 Gd 0.04523 0.52139 0.0058 0.0
N1608 N 0.06585 0.54797 0.01957 0.0
C1609 C 0.09194 0.5794 0.03284 0.0
C1610 C 0.07314 0.55109 0.03795 0.0
C1611 C 0.08597 0.56702 0.04495 0.0
H1612 H 0.06939 0.54124 0.04714 0.0
H1613 H 0.09136 0.56965 0.05965 0.0
H1614 H 0.97189 0.50071 0.9881 0.0
H1615 H 0.03448 0.52295 0.95994 0.0
H1616 H 0.9481 0.47352 0.9747 0.0
H1617 H 0.10226 0.59147 0.03825 0.0
H1618 H 0.10039 0.60045 0.00582 0.0
H1619 H 0.01019 0.51225 0.07382 0.0
H1620 H 0.06574 0.57259 0.94687 0.0
H1621 H 0.04304 0.5438 0.93686 0.0
H1622 H 0.94154 0.43822 0.02573 0.0
H1623 H 0.08718 0.59353 0.97263 0.0
H1624 H 0.97947 0.4613 0.0841 0.0
H1625 H 0.0026 0.48956 0.09521 0.0
N1626 N 0.9925 0.49648 0.05041 0.0
C1627 C 0.97951 0.48117 0.04407 0.0
C1628 C 1.0006 0.4997 0.06857 0.0
C1629 C 0.98301 0.47106 0.07451 0.0
C1630 C 0.99611 0.48698 0.08083 0.0
C1631 C 0.97441 0.46805 0.056 0.0
H1632 H 0.95662 0.44233 0.05815 0.0
N1633 N 0.97673 0.4913 0.01422 0.0
C1634 C 0.97125 0.4786 0.02554 0.0
C1635 C 0.94933 0.46113 0.0001 0.0
C1636 C 0.95753 0.46306 0.01869 0.0
C1637 C 0.96836 0.48988 -0.00363 0.0
C1638 C 0.95469 0.47467 0.98893 0.0
O1639 O 0.03641 0.54804 0.01323 0.0
O1640 O 0.01861 0.54388 0.03712 0.0
O1641 O 0.97518 0.5292 0.02104 0.0
O1642 O 0.98314 0.5256 0.0502 0.0
O1643 O 0.03991 0.50988 0.03204 0.0
O1644 O 0.02359 0.52629 0.04815 0.0
O1645 O 0.00685 0.49042 0.02035 0.0
O1646 O 0.02395 0.49522 -0.00394 0.0
O1647 O 0.06818 0.50942 0.01482 0.0
O1648 O 0.05988 0.51131 0.98523 0.0
O1649 O 1.00011 0.52807 0.00144 0.0
O1650 O 0.0191 0.5128 0.9879 0.0
C1651 C 0.02838 0.55444 0.02687 0.0
C1652 C 0.03739 0.51893 0.0473 0.0
C1653 C 0.95781 0.5396 0.04485 0.0
C1654 C 0.93248 0.55387 0.039 0.0
C1655 C 0.94303 0.54959 0.07069 0.0
C1656 C 0.95623 0.54158 0.06408 0.0
C1657 C 0.93119 0.55566 0.05825 0.0
C1658 C 0.94589 0.5459 0.03226 0.0
C1659 C 0.97229 0.53143 0.03846 0.0
C1660 C 0.95227 0.4501 0.03064 0.0
C1661 C 0.9608 0.4525 0.04916 0.0
H1662 H 0.93868 0.44941 0.99433 0.0
C1663 C 0.01458 0.48427 0.00629 0.0
C1664 C 0.00766 0.52306 0.98709 0.0
C1665 C 0.08515 0.4976 0.99097 0.0
C1666 C 0.11016 0.48279 -0.00359 0.0
C1667 C 0.09951 0.48728 0.96487 0.0
C1668 C 0.08659 0.49556 0.97168 0.0
C1669 C 0.11123 0.48093 0.97713 0.0
C1670 C 0.09706 0.49112 0.00342 0.0
C1671 C 0.0709 0.50619 -0.00261 0.0
H1672 H 0.94198 0.55111 0.08552 0.0
H1673 H 0.96526 0.53701 0.07411 0.0
H1674 H 0.92101 0.56187 0.06366 0.0
H1675 H 0.94693 0.54456 0.0174 0.0
H1676 H 0.10043 0.48576 0.95001 0.0
H1677 H 0.07766 0.50033 0.96172 0.0
H1678 H 0.12121 0.4745 0.97157 0.0
H1679 H 0.09619 0.49252 0.01831 0.0
H1680 H 0.97191 0.1939 0.95044 0.0
H1681 H 0.97768 0.16578 0.9601 0.0
H1682 H 0.03391 0.19203 0.97713 0.0
H1683 H 0.02828 0.21977 0.96572 0.0
H1684 H 0.03452 0.16108 0.96542 0.0
H1685 H 0.99669 0.17973 0.00869 0.0
H1686 H 0.96987 0.18898 0.01873 0.0
H1687 H 0.93577 0.13901 0.99074 0.0
H1688 H 0.96235 0.12955 0.98035 0.0
H1689 H 0.04894 0.08925 0.01927 0.0
H1690 H 0.04519 0.1184 0.01023 0.0
H1691 H 0.99294 0.09242 0.9795 0.0
H1692 H 0.99679 0.06334 0.98814 0.0
H1693 H 0.99141 0.12371 4e-05 0.0
H1694 H 0.0301 0.10555 0.95732 0.0
H1695 H 0.05736 0.09648 0.94839 0.0
H1696 H 0.09065 0.14634 0.97757 0.0
H1697 H 0.06359 0.15558 0.98695 0.0
C1698 C 0.98555 0.19365 0.95615 0.0
C1699 C 0.99961 0.20917 0.95727 0.0
C1700 C 0.98884 0.17751 0.96201 0.0
C1701 C 0.0062 0.1765 0.97014 0.0
C1702 C 0.02033 0.19208 0.97107 0.0
C1703 C 0.01713 0.20807 0.96454 0.0
C1704 C 0.00962 0.15926 0.97724 0.0
C1705 C 0.02517 0.15322 0.9733 0.0
C1706 C 0.99748 0.14834 0.98734 0.0
C1707 C 0.9815 0.15402 0.9936 0.0
C1708 C 0.98346 0.17077 0.00459 0.0
C1709 C 0.9683 0.17604 0.01035 0.0
C1710 C 0.95113 0.16461 0.00533 0.0
C1711 C 0.94908 0.14786 0.99459 0.0
C1712 C 0.96418 0.14253 0.98878 0.0
C1713 C 0.03671 0.08963 0.0105 0.0
C1714 C 0.02332 0.07361 0.00433 0.0
C1715 C 0.03456 0.10644 0.00527 0.0
C1716 C 0.0188 0.10785 0.99394 0.0
C1717 C 0.00528 0.09194 0.98816 0.0
C1718 C 0.00756 0.07516 0.9931 0.0
C1719 C 0.01618 0.12572 0.98816 0.0
C1720 C 1.00079 0.1318 0.99233 0.0
C1721 C 0.02857 0.13677 0.97855 0.0
C1722 C 0.04484 0.13116 0.97304 0.0
C1723 C 0.04325 0.1145 0.962 0.0
C1724 C 0.05866 0.10934 0.95683 0.0
C1725 C 0.07573 0.1208 0.96246 0.0
C1726 C 0.07742 0.13746 0.97326 0.0
C1727 C 0.06205 0.14266 0.97851 0.0
H1728 H 0.08764 0.11679 0.95842 0.0
H1729 H 0.93941 0.16872 0.0098 0.0
H1730 H 0.11774 0.77791 0.11614 0.0
H1731 H 0.14217 0.77649 0.14016 0.0
H1732 H 0.11237 0.79337 0.18314 0.0
H1733 H 0.08748 0.79457 0.15897 0.0
H1734 H 0.14855 0.81178 0.18911 0.0
H1735 H 0.11581 0.7514 0.17913 0.0
H1736 H 0.09889 0.72241 0.16118 0.0
H1737 H 0.14656 0.71574 0.13773 0.0
H1738 H 0.16374 0.74486 0.15537 0.0
H1739 H 0.21022 0.78849 0.26086 0.0
H1740 H 0.18288 0.78932 0.24062 0.0
H1741 H 0.20917 0.78048 0.1921 0.0
H1742 H 0.23689 0.78036 0.21229 0.0
H1743 H 0.17247 0.75659 0.1915 0.0
H1744 H 0.20312 0.82013 0.19965 0.0
H1745 H 0.21723 0.85071 0.21571 0.0
H1746 H 0.17097 0.85046 0.24446 0.0
H1747 H 0.15646 0.81991 0.22825 0.0
C1748 C 0.11629 0.78138 0.13068 0.0
C1749 C 0.10056 0.78642 0.13554 0.0
C1750 C 0.1303 0.78043 0.14446 0.0
C1751 C 0.12914 0.78463 0.16355 0.0
C1752 C 0.1136 0.78997 0.16853 0.0
C1753 C 0.09936 0.79065 0.15469 0.0
C1754 C 0.14446 0.78381 0.17803 0.0
C1755 C 0.15352 0.79959 0.18987 0.0
C1756 C 0.15117 0.76799 0.17902 0.0
C1757 C 0.14102 0.75041 0.16844 0.0
C1758 C 0.12266 0.74383 0.17003 0.0
C1759 C 0.11303 0.72736 0.15994 0.0
C1760 C 0.12164 0.71726 0.14828 0.0
C1761 C 0.13991 0.72359 0.14675 0.0
C1762 C 0.14962 0.74007 0.15682 0.0
C1763 C 0.21036 0.78664 0.246 0.0
C1764 C 0.22594 0.78382 0.23855 0.0
C1765 C 0.19459 0.78721 0.23433 0.0
C1766 C 0.19378 0.78474 0.21476 0.0
C1767 C 0.20931 0.78221 0.20715 0.0
C1768 C 0.22523 0.78209 0.21884 0.0
C1769 C 0.17677 0.78471 0.20227 0.0
C1770 C 0.16736 0.76871 0.19084 0.0
C1771 C 0.1695 0.80022 0.20192 0.0
C1772 C 0.17884 0.81772 0.21295 0.0
C1773 C 0.19611 0.82649 0.20964 0.0
C1774 C 0.20411 0.84387 0.21867 0.0
C1775 C 0.19502 0.85252 0.23118 0.0
C1776 C 0.17799 0.84374 0.23479 0.0
C1777 C 0.16985 0.82643 0.22563 0.0
H1778 H 0.20106 0.86609 0.23797 0.0
H1779 H 0.11415 0.70452 0.14047 0.0
H1780 H 0.4855 0.80807 0.48424 0.0
H1781 H 0.48903 0.84045 0.49294 0.0
H1782 H 0.52281 0.85144 0.44973 0.0
H1783 H 0.51956 0.81887 0.4411 0.0
H1784 H 0.53612 0.87531 0.48015 0.0
H1785 H 0.47719 0.8546 0.44456 0.0
H1786 H 0.44646 0.83516 0.43623 0.0
H1787 H 0.43334 0.85186 0.49041 0.0
H1788 H 0.46405 0.87126 0.49913 0.0
H1789 H 0.53185 0.96718 0.48124 0.0
H1790 H 0.52901 0.935 0.47256 0.0
H1791 H 0.49468 0.92315 0.51515 0.0
H1792 H 0.49746 0.9556 0.52399 0.0
H1793 H 0.48146 0.89975 0.48431 0.0
H1794 H 0.53974 0.91926 0.52055 0.0
H1795 H 0.57084 0.93729 0.53055 0.0
H1796 H 0.58533 0.92228 0.47655 0.0
H1797 H 0.55422 0.90427 0.46614 0.0
C1798 C 0.49385 0.81731 0.47664 0.0
C1799 C 0.50222 0.81064 0.4619 0.0
C1800 C 0.49572 0.83595 0.48155 0.0
C1801 C 0.50586 0.84864 0.47178 0.0
C1802 C 0.5148 0.84209 0.45749 0.0
C1803 C 0.51298 0.82337 0.45259 0.0
C1804 C 0.50705 0.86862 0.47653 0.0
C1805 C 0.52412 0.88064 0.48072 0.0
C1806 C 0.4915 0.8758 0.47783 0.0
C1807 C 0.47297 0.86427 0.47255 0.0
C1808 C 0.46778 0.85405 0.45474 0.0
C1809 C 0.45036 0.84305 0.44994 0.0
C1810 C 0.43797 0.84225 0.4628 0.0
C1811 C 0.44295 0.85249 0.48046 0.0
C1812 C 0.46035 0.86351 0.48533 0.0
C1813 C 0.52364 0.95784 0.48886 0.0
C1814 C 0.51482 0.96427 0.50337 0.0
C1815 C 0.52211 0.93927 0.48388 0.0
C1816 C 0.51182 0.92637 0.49328 0.0
C1817 C 0.50275 0.93268 0.50761 0.0
C1818 C 0.50433 0.95135 0.51267 0.0
C1819 C 0.51055 0.90643 0.48806 0.0
C1820 C 0.49346 0.89443 0.48368 0.0
C1821 C 0.52609 0.89925 0.48664 0.0
C1822 C 0.54461 0.91056 0.49253 0.0
C1823 C 0.5495 0.91997 0.51074 0.0
C1824 C 0.56713 0.93014 0.51649 0.0
C1825 C 0.58002 0.93093 0.5042 0.0
C1826 C 0.5753 0.92165 0.48606 0.0
C1827 C 0.55768 0.91144 0.48022 0.0
H1828 H 0.59367 0.93866 0.50884 0.0
H1829 H 0.4245 0.83372 0.45906 0.0
H1830 H 0.49057 0.28199 0.61905 0.0
H1831 H 0.46277 0.2798 0.63366 0.0
H1832 H 0.49341 0.28199 0.68782 0.0
H1833 H 0.52117 0.28456 0.67346 0.0
H1834 H 0.46129 0.25378 0.67989 0.0
H1835 H 0.48119 0.31777 0.67773 0.0
H1836 H 0.49014 0.34473 0.66196 0.0
H1837 H 0.43799 0.3321 0.62847 0.0
H1838 H 0.42884 0.30484 0.64381 0.0
H1839 H 0.40413 0.26583 0.7448 0.0
H1840 H 0.42968 0.27491 0.72758 0.0
H1841 H 0.39272 0.27433 0.67795 0.0
H1842 H 0.36704 0.26528 0.69533 0.0
H1843 H 0.42606 0.30121 0.6807 0.0
H1844 H 0.40545 0.23812 0.68286 0.0
H1845 H 0.39598 0.21079 0.69791 0.0
H1846 H 0.44876 0.22071 0.7297 0.0
H1847 H 0.45845 0.24836 0.71513 0.0
C1848 C 0.49137 0.282 0.63407 0.0
C1849 C 0.50813 0.28346 0.64508 0.0
C1850 C 0.47548 0.28081 0.6424 0.0
C1851 C 0.476 0.28079 0.66186 0.0
C1852 C 0.49266 0.28199 0.67279 0.0
C1853 C 0.50855 0.28351 0.66455 0.0
C1854 C 0.45927 0.27933 0.67099 0.0
C1855 C 0.4537 0.26424 0.68019 0.0
C1856 C 0.44899 0.29268 0.67089 0.0
C1857 C 0.45441 0.30912 0.66174 0.0
C1858 C 0.47169 0.32062 0.66686 0.0
C1859 C 0.47679 0.33598 0.65803 0.0
C1860 C 0.46467 0.34009 0.64417 0.0
C1861 C 0.44739 0.32888 0.63917 0.0
C1862 C 0.44224 0.31346 0.64793 0.0
C1863 C 0.40149 0.26846 0.73047 0.0
C1864 C 0.38364 0.26506 0.72145 0.0
C1865 C 0.41608 0.27348 0.72056 0.0
C1866 C 0.41314 0.275 0.70136 0.0
C1867 C 0.39534 0.27324 0.69274 0.0
C1868 C 0.38067 0.26819 0.7027 0.0
C1869 C 0.4284 0.27588 0.69 0.0
C1870 C 0.43361 0.29074 0.68031 0.0
C1871 C 0.43831 0.2622 0.68943 0.0
C1872 C 0.43262 0.24544 0.69804 0.0
C1873 C 0.415 0.23458 0.69318 0.0
C1874 C 0.4096 0.21901 0.70161 0.0
C1875 C 0.42175 0.21405 0.71479 0.0
C1876 C 0.43935 0.2246 0.71952 0.0
C1877 C 0.44481 0.24023 0.71118 0.0
H1878 H 0.41754 0.20199 0.7213 0.0
H1879 H 0.46864 0.352 0.63736 0.0
H1880 H 0.0197 0.77951 0.61128 0.0
H1881 H 0.02238 0.80756 0.59725 0.0
H1882 H 0.01351 0.83523 0.64906 0.0
H1883 H 0.01131 0.80716 0.66345 0.0
H1884 H 0.99181 0.84122 0.61535 0.0
H1885 H 0.05323 0.84619 0.63988 0.0
H1886 H 0.08229 0.83747 0.64627 0.0
H1887 H 0.08544 0.82959 0.58729 0.0
H1888 H 0.05627 0.83803 0.58053 0.0
H1889 H 0.02616 0.93007 0.58428 0.0
H1890 H 0.01666 0.9041 0.60129 0.0
H1891 H 0.02536 0.8683 0.55499 0.0
H1892 H 0.03462 0.89407 0.53803 0.0
H1893 H 0.04717 0.86861 0.58941 0.0
H1894 H 0.98488 0.86261 0.56502 0.0
H1895 H 0.9559 0.87154 0.55896 0.0
H1896 H 0.95465 0.88206 0.61811 0.0
H1897 H 0.98377 0.8734 0.62454 0.0
C1898 C 0.01838 0.79156 0.61975 0.0
C1899 C 0.01531 0.79107 0.6385 0.0
C1900 C 0.01996 0.80761 0.61171 0.0
C1901 C 0.01817 0.82353 0.62208 0.0
C1902 C 0.01495 0.82312 0.64079 0.0
C1903 C 0.01377 0.80709 0.649 0.0
C1904 C 0.01944 0.84037 0.61305 0.0
C1905 C 0.00402 0.84745 0.60998 0.0
C1906 C 0.03525 0.84833 0.60575 0.0
C1907 C 0.05243 0.84253 0.60969 0.0
C1908 C 0.05998 0.84234 0.62826 0.0
C1909 C 0.07652 0.83752 0.63195 0.0
C1910 C 0.08568 0.83292 0.61719 0.0
C1911 C 0.07831 0.83312 0.59871 0.0
C1912 C 0.06178 0.83793 0.59494 0.0
C1913 C 0.02515 0.91656 0.57741 0.0
C1914 C 0.03097 0.91405 0.55977 0.0
C1915 C 0.01986 0.90173 0.58718 0.0
C1916 C 0.02045 0.88424 0.57949 0.0
C1917 C 0.02482 0.88164 0.56124 0.0
C1918 C 0.02996 0.89636 0.55148 0.0
C1919 C 0.01941 0.86921 0.59125 0.0
C1920 C 0.03497 0.8625 0.59489 0.0
C1921 C 0.00376 0.86171 0.59909 0.0
C1922 C 0.98666 0.86764 0.59526 0.0
C1923 C 0.97859 0.86711 0.57674 0.0
C1924 C 0.96208 0.87203 0.57324 0.0
C1925 C 0.95348 0.87744 0.58814 0.0
C1926 C 0.96136 0.87793 0.60658 0.0
C1927 C 0.97786 0.87301 0.61016 0.0
H1928 H 0.94067 0.88118 0.58539 0.0
H1929 H 0.09851 0.82925 0.62008 0.0
H1930 H 0.47057 0.80208 0.85568 0.0
H1931 H 0.44054 0.79822 0.8394 0.0
H1932 H 0.45788 0.7793 0.78795 0.0
H1933 H 0.48889 0.78293 0.80461 0.0
H1934 H 0.43307 0.80693 0.78733 0.0
H1935 H 0.43451 0.74802 0.8058 0.0
H1936 H 0.44231 0.72796 0.82839 0.0
H1937 H 0.4104 0.74876 0.86666 0.0
H1938 H 0.40254 0.76904 0.84436 0.0
H1939 H 0.33835 0.78583 0.75218 0.0
H1940 H 0.37057 0.78638 0.75896 0.0
H1941 H 0.36465 0.78231 0.81705 0.0
H1942 H 0.33233 0.78053 0.80998 0.0
H1943 H 0.38495 0.76272 0.80952 0.0
H1944 H 0.38762 0.82379 0.7981 0.0
H1945 H 0.38188 0.84862 0.78099 0.0
H1946 H 0.40653 0.82888 0.73513 0.0
H1947 H 0.41264 0.80402 0.75216 0.0
C1948 C 0.46831 0.79706 0.84087 0.0
C1949 C 0.48237 0.79257 0.83162 0.0
C1950 C 0.45093 0.7949 0.83155 0.0
C1951 C 0.44675 0.78822 0.81253 0.0
C1952 C 0.46077 0.7844 0.80274 0.0
C1953 C 0.47849 0.7865 0.81224 0.0
C1954 C 0.42748 0.78501 0.80371 0.0
C1955 C 0.42253 0.79689 0.79167 0.0
C1956 C 0.41363 0.77259 0.81016 0.0
C1957 C 0.41796 0.76006 0.8234 0.0
C1958 C 0.4292 0.74834 0.81905 0.0
C1959 C 0.43362 0.73693 0.8318 0.0
C1960 C 0.42686 0.73709 0.84895 0.0
C1961 C 0.4156 0.74862 0.85336 0.0
C1962 C 0.41111 0.76003 0.84064 0.0
C1963 C 0.34397 0.78513 0.76641 0.0
C1964 C 0.3327 0.78309 0.78051 0.0
C1965 C 0.36252 0.78558 0.77035 0.0
C1966 C 0.37044 0.78461 0.78865 0.0
C1967 C 0.35913 0.78293 0.80277 0.0
C1968 C 0.34055 0.782 0.79874 0.0
C1969 C 0.39027 0.78484 0.79315 0.0
C1970 C 0.39535 0.77249 0.80462 0.0
C1971 C 0.40422 0.79724 0.78667 0.0
C1972 C 0.40036 0.81195 0.77627 0.0
C1973 C 0.39169 0.82468 0.7843 0.0
C1974 C 0.38841 0.83878 0.77464 0.0
C1975 C 0.39368 0.84025 0.75688 0.0
C1976 C 0.40239 0.82769 0.74884 0.0
C1977 C 0.40584 0.81364 0.75853 0.0
H1978 H 0.39108 0.85116 0.74939 0.0
H1979 H 0.43034 0.72828 0.85883 0.0
H1980 H 0.52724 0.18396 0.1642 0.0
H1981 H 0.52769 0.1598 0.13954 0.0
H1982 H 0.49551 0.18283 0.10041 0.0
H1983 H 0.49548 0.20761 0.1251 0.0
H1984 H 0.48342 0.14281 0.10192 0.0
H1985 H 0.53541 0.18747 0.09299 0.0
H1986 H 0.56415 0.21003 0.10293 0.0
H1987 H 0.58865 0.16921 0.12386 0.0
H1988 H 0.55998 0.14644 0.11425 0.0
H1989 H 0.49267 0.07795 0.02694 0.0
H1990 H 0.49136 0.10611 0.04582 0.0
H1991 H 0.5361 0.10069 0.08493 0.0
H1992 H 0.53807 0.07338 0.06537 0.0
H1993 H 0.54076 0.13404 0.08068 0.0
H1994 H 0.48964 0.09041 0.0936 0.0
H1995 H 0.4612 0.06703 0.08583 0.0
H1996 H 0.43539 0.10459 0.05983 0.0
H1997 H 0.46376 0.12815 0.06733 0.0
C1998 C 0.52022 0.18395 0.15036 0.0
C1999 C 0.51124 0.19773 0.1467 0.0
C2000 C 0.52056 0.17012 0.13623 0.0
C2001 C 0.51165 0.16942 0.11807 0.0
C2002 C 0.5025 0.18306 0.11431 0.0
C2003 C 0.50253 0.19724 0.12841 0.0
C2004 C 0.51189 0.15425 0.10334 0.0
C2005 C 0.49588 0.14108 0.09695 0.0
C2006 C 0.52821 0.15163 0.09725 0.0
C2007 C 0.54549 0.16528 0.10305 0.0
C2008 C 0.54688 0.18333 0.09986 0.0
C2009 C 0.56317 0.19615 0.1054 0.0
C2010 C 0.57821 0.19106 0.11406 0.0
C2011 C 0.57699 0.17313 0.11716 0.0
C2012 C 0.56073 0.16026 0.11164 0.0
C2013 C 0.50213 0.08277 0.03964 0.0
C2014 C 0.51493 0.07294 0.04518 0.0
C2015 C 0.50133 0.09884 0.05051 0.0
C2016 C 0.5133 0.10546 0.06723 0.0
C2017 C 0.52647 0.09588 0.07235 0.0
C2018 C 0.52733 0.07994 0.0614 0.0
C2019 C 0.51229 0.12231 0.07937 0.0
C2020 C 0.5282 0.13581 0.08538 0.0
C2021 C 0.49591 0.12507 0.08534 0.0
C2022 C 0.47885 0.11097 0.08084 0.0
C2023 C 0.47793 0.09364 0.08612 0.0
C2024 C 0.46183 0.08036 0.08178 0.0
C2025 C 0.44652 0.0843 0.07229 0.0
C2026 C 0.44727 0.10155 0.06716 0.0
C2027 C 0.46335 0.11487 0.07146 0.0
H2028 H 0.43406 0.07401 0.06894 0.0
H2029 H 0.59081 0.20101 0.11834 0.0
H2030 H 0.08934 0.27654 0.33821 0.0
H2031 H 0.11666 0.26949 0.3273 0.0
H2032 H 0.12312 0.3158 0.29735 0.0
H2033 H 0.09588 0.32273 0.30797 0.0
H2034 H 0.13098 0.28967 0.27613 0.0
H2035 H 0.14996 0.31417 0.34101 0.0
H2036 H 0.14904 0.31603 0.37506 0.0
H2037 H 0.15712 0.26214 0.37444 0.0
H2038 H 0.15788 0.25989 0.34032 0.0
H2039 H 0.22551 0.30049 0.26427 0.0
H2040 H 0.19633 0.30435 0.27331 0.0
H2041 H 0.18917 0.25397 0.29634 0.0
H2042 H 0.218 0.24997 0.28717 0.0
H2043 H 0.18115 0.28037 0.32066 0.0
H2044 H 0.16366 0.25599 0.25668 0.0
H2045 H 0.16346 0.25289 0.22245 0.0
H2046 H 0.15195 0.30529 0.22109 0.0
H2047 H 0.15233 0.30882 0.25538 0.0
C2048 C 0.09651 0.28522 0.32926 0.0
C2049 C 0.09016 0.3003 0.32414 0.0
C2050 C 0.11234 0.28123 0.32307 0.0
C2051 C 0.12246 0.29219 0.31155 0.0
C2052 C 0.11587 0.30701 0.30617 0.0
C2053 C 0.10015 0.31102 0.31238 0.0
C2054 C 0.13981 0.28845 0.30513 0.0
C2055 C 0.142 0.28792 0.286 0.0
C2056 C 0.1543 0.28551 0.31763 0.0
C2057 C 0.15377 0.28679 0.33809 0.0
C2058 C 0.1514 0.30267 0.34811 0.0
C2059 C 0.15093 0.3038 0.36743 0.0
C2060 C 0.15296 0.2892 0.3769 0.0
C2061 C 0.15551 0.27343 0.36708 0.0
C2062 C 0.15597 0.27222 0.34776 0.0
C2063 C 0.21772 0.29018 0.27118 0.0
C2064 C 0.22432 0.27482 0.27479 0.0
C2065 C 0.20088 0.29236 0.27632 0.0
C2066 C 0.1902 0.27945 0.28555 0.0
C2067 C 0.19689 0.26422 0.28929 0.0
C2068 C 0.21349 0.26188 0.28387 0.0
C2069 C 0.17242 0.28197 0.29175 0.0
C2070 C 0.17014 0.28219 0.31081 0.0
C2071 C 0.15784 0.28454 0.27918 0.0
C2072 C 0.15827 0.28278 0.25866 0.0
C2073 C 0.16135 0.26697 0.24913 0.0
C2074 C 0.16113 0.2651 0.2297 0.0
C2075 C 0.15775 0.27891 0.21961 0.0
C2076 C 0.1546 0.29462 0.22893 0.0
C2077 C 0.15482 0.29656 0.24837 0.0
H2078 H 0.15752 0.27741 0.20456 0.0
H2079 H 0.15261 0.29011 0.39186 0.0
H2080 H 0.98035 0.02059 0.2138 0.0
H2081 H 0.9903 0.02618 0.18353 0.0
H2082 H 0.93503 0.02131 0.15943 0.0
H2083 H 0.92502 0.01623 0.18999 0.0
H2084 H 0.95681 0.99808 0.1407 0.0
H2085 H 0.95799 0.06001 0.16298 0.0
H2086 H 0.96606 0.08663 0.18717 0.0
H2087 H 0.0224 0.08767 0.18707 0.0
H2088 H 0.01464 0.06088 0.16304 0.0
H2089 H 0.98385 0.03588 0.05499 0.0
H2090 H 0.97019 0.03489 0.0841 0.0
H2091 H 0.01674 0.02013 0.11161 0.0
H2092 H 0.02985 0.01967 0.08254 0.0
H2093 H 0.99707 0.05432 0.12754 0.0
H2094 H 0.99687 0.99012 0.11255 0.0
H2095 H 0.99025 0.96052 0.09293 0.0
H2096 H 0.93421 0.96181 0.08261 0.0
H2097 H 0.9406 0.99165 0.10181 0.0
C2098 C 0.97038 0.02102 0.2021 0.0
C2099 C 0.95197 0.01807 0.20409 0.0
C2100 C 0.97606 0.02422 0.1849 0.0
C2101 C 0.96336 0.02416 0.16939 0.0
C2102 C 0.94497 0.02147 0.17136 0.0
C2103 C 0.93931 0.01869 0.18875 0.0
C2104 C 0.96941 0.02589 0.15094 0.0
C2105 C 0.96526 0.01048 0.13761 0.0
C2106 C 0.98096 0.0419 0.14737 0.0
C2107 C 0.98573 0.05841 0.16127 0.0
C2108 C 0.9721 0.06589 0.16816 0.0
C2109 C 0.97661 0.081 0.18184 0.0
C2110 C 0.99473 0.08883 0.18867 0.0
C2111 C 0.00837 0.0816 0.18176 0.0
C2112 C 0.00393 0.06647 0.16808 0.0
C2113 C 0.99118 0.03244 0.06723 0.0
C2114 C 0.00811 0.02819 0.06648 0.0
C2115 C 0.98336 0.03186 0.08379 0.0
C2116 C 0.99248 0.02732 0.09981 0.0
C2117 C 0.0095 0.02353 0.09928 0.0
C2118 C 0.01707 0.02356 0.08267 0.0
C2119 C 0.98431 0.02652 0.11723 0.0
C2120 C 0.98823 0.04206 0.13043 0.0
C2121 C 0.97287 0.0105 0.12091 0.0
C2122 C 0.96929 0.99333 0.10817 0.0
C2123 C 0.98323 0.98433 0.10569 0.0
C2124 C 0.97949 0.96742 0.09482 0.0
C2125 C 0.96181 0.9593 0.08658 0.0
C2126 C 0.94789 0.96814 0.089 0.0
C2127 C 0.95157 0.98507 0.09981 0.0
H2128 H 0.95889 0.94622 0.07823 0.0
H2129 H 0.9982 0.1005 0.1993 0.0
H2130 H 0.24662 0.62581 0.4704 0.0
H2131 H 0.25176 0.64482 0.44509 0.0
H2132 H 0.27365 0.69166 0.48631 0.0
H2133 H 0.26898 0.67275 0.51138 0.0
H2134 H 0.24314 0.69248 0.45748 0.0
H2135 H 0.30291 0.6813 0.4665 0.0
H2136 H 0.32341 0.6607 0.47029 0.0
H2137 H 0.30206 0.63266 0.41526 0.0
H2138 H 0.28125 0.65298 0.41125 0.0
H2139 H 0.25481 0.74992 0.39118 0.0
H2140 H 0.26817 0.73742 0.41773 0.0
H2141 H 0.25724 0.68528 0.38405 0.0
H2142 H 0.24409 0.69785 0.35756 0.0
H2143 H 0.28653 0.68987 0.41163 0.0
H2144 H 0.22476 0.69697 0.40378 0.0
H2145 H 0.20047 0.71346 0.40051 0.0
H2146 H 0.22193 0.74546 0.45367 0.0
H2147 H 0.24661 0.72941 0.45706 0.0
C2148 C 0.25267 0.64012 0.47384 0.0
C2149 C 0.25755 0.64805 0.49247 0.0
C2150 C 0.25566 0.65086 0.45957 0.0
C2151 C 0.26323 0.66945 0.4641 0.0
C2152 C 0.26799 0.67728 0.48276 0.0
C2153 C 0.26532 0.66656 0.49692 0.0
C2154 C 0.26493 0.68107 0.44941 0.0
C2155 C 0.25288 0.69231 0.44767 0.0
C2156 C 0.27743 0.68028 0.43664 0.0
C2157 C 0.29051 0.66862 0.43859 0.0
C2158 C 0.30258 0.67072 0.45522 0.0
C2159 C 0.31424 0.6591 0.45741 0.0
C2160 C 0.31403 0.64537 0.44302 0.0
C2161 C 0.30222 0.64332 0.42638 0.0
C2162 C 0.29052 0.65491 0.42411 0.0
C2163 C 0.25586 0.73596 0.38942 0.0
C2164 C 0.24812 0.72454 0.37283 0.0
C2165 C 0.2636 0.72891 0.40441 0.0
C2166 C 0.2633 0.71041 0.40281 0.0
C2167 C 0.2575 0.69958 0.38547 0.0
C2168 C 0.24979 0.70663 0.37051 0.0
C2169 C 0.26473 0.7015 0.41968 0.0
C2170 C 0.27719 0.69056 0.42176 0.0
C2171 C 0.25235 0.70232 0.43274 0.0
C2172 C 0.23776 0.71227 0.43048 0.0
C2173 C 0.22447 0.70772 0.41463 0.0
C2174 C 0.21061 0.71696 0.41277 0.0
C2175 C 0.20973 0.73058 0.42681 0.0
C2176 C 0.2227 0.73498 0.44275 0.0
C2177 C 0.23665 0.72586 0.44462 0.0
H2178 H 0.19894 0.73767 0.42538 0.0
H2179 H 0.32303 0.63634 0.44477 0.0
H2180 H 0.62617 0.0052 0.69356 0.0
H2181 H 0.61465 0.99852 0.66056 0.0
H2182 H 0.64 0.05287 0.65232 0.0
H2183 H 0.65127 0.05988 0.68574 0.0
H2184 H 0.60327 0.04561 0.65329 0.0
H2185 H 0.64518 0.01719 0.62263 0.0
H2186 H 0.66499 0.9957 0.62365 0.0
H2187 H 0.61887 0.95189 0.62246 0.0
H2188 H 0.5988 0.9731 0.62156 0.0
H2189 H 0.55224 0.04491 0.56998 0.0
H2190 H 0.57345 0.04635 0.59745 0.0
H2191 H 0.55678 0.98828 0.59606 0.0
H2192 H 0.53776 0.9867 0.56597 0.0
H2193 H 0.59007 0.99669 0.59977 0.0
H2194 H 0.54803 0.02234 0.6315 0.0
H2195 H 0.527 0.04235 0.63528 0.0
H2196 H 0.57096 0.08892 0.63978 0.0
H2197 H 0.59221 0.06925 0.63571 0.0
C2198 C 0.6297 0.01558 0.68461 0.0
C2199 C 0.63872 0.03327 0.69202 0.0
C2200 C 0.62357 0.01159 0.6657 0.0
C2201 C 0.62648 0.02531 0.65427 0.0
C2202 C 0.63776 0.04224 0.66118 0.0
C2203 C 0.64367 0.04634 0.6802 0.0
C2204 C 0.61266 0.02414 0.63858 0.0
C2205 C 0.60058 0.03528 0.64122 0.0
C2206 C 0.60872 0.00974 0.62394 0.0
C2207 C 0.6205 0.99676 0.62208 0.0
C2208 C 0.63925 0.00295 0.62242 0.0
C2209 C 0.65053 0.99082 0.62303 0.0
C2210 C 0.6432 0.97248 0.62326 0.0
C2211 C 0.62453 0.96612 0.62232 0.0
C2212 C 0.61318 0.97818 0.62165 0.0
C2213 C 0.55301 0.03251 0.57573 0.0
C2214 C 0.5441 0.01568 0.56607 0.0
C2215 C 0.56481 0.03334 0.59165 0.0
C2216 C 0.56631 0.01745 0.59908 0.0
C2217 C 0.55576 0.00064 0.5904 0.0
C2218 C 0.54495 0.99972 0.57348 0.0
C2219 C 0.58076 0.01847 0.61423 0.0
C2220 C 0.59279 0.00718 0.61168 0.0
C2221 C 0.5844 0.03239 0.62949 0.0
C2222 C 0.57175 0.04425 0.63331 0.0
C2223 C 0.55324 0.03684 0.63337 0.0
C2224 C 0.54126 0.04814 0.6355 0.0
C2225 C 0.54765 0.06689 0.63778 0.0
C2226 C 0.56604 0.07439 0.63807 0.0
C2227 C 0.57807 0.06317 0.63591 0.0
H2228 H 0.53834 0.0756 0.63931 0.0
H2229 H 0.65198 0.96318 0.6243 0.0
H2230 H 0.27902 0.31424 0.97932 0.0
H2231 H 0.27716 0.30309 0.94615 0.0
H2232 H 0.2768 0.35647 0.93196 0.0
H2233 H 0.27773 0.36745 0.96513 0.0
H2234 H 0.25577 0.33216 0.90613 0.0
H2235 H 0.31661 0.34093 0.93609 0.0
H2236 H 0.34055 0.33752 0.96029 0.0
H2237 H 0.32611 0.27999 0.94488 0.0
H2238 H 0.30198 0.28305 0.92069 0.0
H2239 H 0.28193 0.31629 0.81666 0.0
H2240 H 0.28161 0.32808 0.84911 0.0
H2241 H 0.28215 0.27554 0.86563 0.0
H2242 H 0.28325 0.26379 0.83304 0.0
H2243 H 0.30347 0.30064 0.89016 0.0
H2244 H 0.242 0.29291 0.85969 0.0
H2245 H 0.21803 0.29749 0.83632 0.0
H2246 H 0.23443 0.35483 0.85272 0.0
H2247 H 0.25864 0.3506 0.87613 0.0
C2248 C 0.27815 0.32347 0.96905 0.0
C2249 C 0.27858 0.34168 0.9747 0.0
C2250 C 0.27726 0.31716 0.95015 0.0
C2251 C 0.27742 0.32908 0.93664 0.0
C2252 C 0.2768 0.34706 0.94216 0.0
C2253 C 0.27726 0.3533 0.96108 0.0
C2254 C 0.27903 0.32291 0.91694 0.0
C2255 C 0.26632 0.32547 0.9026 0.0
C2256 C 0.29274 0.31406 0.91235 0.0
C2257 C 0.30743 0.31221 0.92667 0.0
C2258 C 0.31851 0.32755 0.93792 0.0
C2259 C 0.33211 0.32568 0.95162 0.0
C2260 C 0.33483 0.30855 0.95414 0.0
C2261 C 0.32399 0.29325 0.94291 0.0
C2262 C 0.31037 0.29504 0.92918 0.0
C2263 C 0.28202 0.30723 0.8272 0.0
C2264 C 0.28236 0.28904 0.82233 0.0
C2265 C 0.28172 0.31398 0.84574 0.0
C2266 C 0.28129 0.30258 0.85974 0.0
C2267 C 0.28228 0.28454 0.85501 0.0
C2268 C 0.28292 0.27784 0.83644 0.0
C2269 C 0.27997 0.30953 0.87931 0.0
C2270 C 0.29287 0.30728 0.89365 0.0
C2271 C 0.26656 0.31887 0.88385 0.0
C2272 C 0.25222 0.32143 0.86954 0.0
C2273 C 0.24059 0.3065 0.8582 0.0
C2274 C 0.22694 0.30904 0.84496 0.0
C2275 C 0.22471 0.32645 0.84299 0.0
C2276 C 0.23617 0.34136 0.85425 0.0
C2277 C 0.24984 0.33889 0.86752 0.0
H2278 H 0.21408 0.32839 0.83281 0.0
H2279 H 0.34535 0.30712 0.96478 0.0
H2280 H 0.92912 0.02053 0.31498 0.0
H2281 H 0.93953 0.02106 0.34834 0.0
H2282 H 0.99422 0.02566 0.33619 0.0
H2283 H 0.98376 0.02447 0.30291 0.0
H2284 H 0.98525 0.99918 0.35633 0.0
H2285 H 0.9794 0.06114 0.35922 0.0
H2286 H 0.96222 0.08429 0.35336 0.0
H2287 H 0.92364 0.06156 0.38822 0.0
H2288 H 0.94043 0.03808 0.39404 0.0
H2289 H 0.03243 0.01491 0.44881 0.0
H2290 H 0.02091 0.01593 0.4161 0.0
H2291 H 0.96814 0.01646 0.43175 0.0
H2292 H 0.97984 0.01642 0.46443 0.0
H2293 H 0.97494 0.03992 0.40977 0.0
H2294 H 0.97853 0.97769 0.406 0.0
H2295 H 0.99252 0.95188 0.4096 0.0
H2296 H 0.03299 0.97321 0.37605 0.0
H2297 H 0.01907 0.99907 0.37206 0.0
C2298 C 0.94343 0.02224 0.31957 0.0
C2299 C 0.95569 0.02259 0.30647 0.0
C2300 C 0.94936 0.02243 0.3386 0.0
C2301 C 0.96768 0.02339 0.34477 0.0
C2302 C 0.98003 0.02479 0.33175 0.0
C2303 C 0.97408 0.0243 0.31278 0.0
C2304 C 0.97399 0.02182 0.36453 0.0
C2305 C 0.98323 0.00826 0.36802 0.0
C2306 C 0.97074 0.0332 0.3798 0.0
C2307 C 0.96111 0.04779 0.37697 0.0
C2308 C 0.96723 0.06106 0.36561 0.0
C2309 C 0.95755 0.07422 0.36227 0.0
C2310 C 0.94183 0.07438 0.37039 0.0
C2311 C 0.93581 0.06142 0.38194 0.0
C2312 C 0.94542 0.04819 0.38528 0.0
C2313 C 0.01835 0.01509 0.44518 0.0
C2314 C 0.00707 0.01572 0.45914 0.0
C2315 C 0.01172 0.01558 0.42647 0.0
C2316 C 0.99356 0.01614 0.42134 0.0
C2317 C 0.98221 0.01619 0.43529 0.0
C2318 C 0.98891 0.01611 0.45398 0.0
C2319 C 0.9865 0.01739 0.40163 0.0
C2320 C 0.97703 0.03084 0.39813 0.0
C2321 C 0.98934 0.00576 0.38631 0.0
C2322 C 0.99787 0.99038 0.38889 0.0
C2323 C 0.99048 0.97693 0.3995 0.0
C2324 C 0.99837 0.96227 0.40156 0.0
C2325 C 0.01372 0.96096 0.39317 0.0
C2326 C 0.02113 0.97426 0.38258 0.0
C2327 C 0.0132 0.98887 0.38033 0.0
H2328 H 0.01984 0.94961 0.39482 0.0
H2329 H 0.93433 0.08455 0.36775 0.0
H2330 H 0.24098 0.65643 0.58715 0.0
H2331 H 0.24449 0.66858 0.62022 0.0
H2332 H 0.30114 0.69135 0.61875 0.0
H2333 H 0.29778 0.67823 0.58573 0.0
H2334 H 0.29237 0.67879 0.65365 0.0
H2335 H 0.27255 0.71508 0.60567 0.0
H2336 H 0.25141 0.71933 0.57912 0.0
H2337 H 0.20734 0.70778 0.61129 0.0
H2338 H 0.2282 0.7032 0.63792 0.0
H2339 H 0.31082 0.75546 0.72174 0.0
H2340 H 0.30903 0.73526 0.69261 0.0
H2341 H 0.25056 0.72443 0.68708 0.0
H2342 H 0.25253 0.74621 0.71435 0.0
H2343 H 0.25994 0.72846 0.65649 0.0
H2344 H 0.27758 0.69483 0.70578 0.0
H2345 H 0.29718 0.6901 0.73335 0.0
H2346 H 0.34198 0.69491 0.70187 0.0
H2347 H 0.32268 0.69974 0.67414 0.0
C2348 C 0.25411 0.66414 0.59402 0.0
C2349 C 0.26901 0.66743 0.58424 0.0
C2350 C 0.25617 0.67056 0.61279 0.0
C2351 C 0.273 0.68079 0.62149 0.0
C2352 C 0.28813 0.68331 0.61196 0.0
C2353 C 0.28615 0.67641 0.59322 0.0
C2354 C 0.27394 0.69198 0.63894 0.0
C2355 C 0.28526 0.68962 0.65454 0.0
C2356 C 0.26433 0.70576 0.6397 0.0
C2357 C 0.25188 0.70859 0.62365 0.0
C2358 C 0.25833 0.71331 0.607 0.0
C2359 C 0.24641 0.71579 0.59196 0.0
C2360 C 0.22804 0.71377 0.59349 0.0
C2361 C 0.22156 0.7093 0.61009 0.0
C2362 C 0.23342 0.70675 0.62516 0.0
C2363 C 0.29775 0.74903 0.71377 0.0
C2364 C 0.2818 0.75198 0.71978 0.0
C2365 C 0.2967 0.73736 0.69757 0.0
C2366 C 0.27967 0.72804 0.68826 0.0
C2367 C 0.26381 0.73154 0.69419 0.0
C2368 C 0.26492 0.74398 0.70957 0.0
C2369 C 0.27804 0.71517 0.67175 0.0
C2370 C 0.26675 0.71737 0.65607 0.0
C2371 C 0.28721 0.70099 0.67129 0.0
C2372 C 0.2987 0.69772 0.6879 0.0
C2373 C 0.29162 0.69491 0.70475 0.0
C2374 C 0.30268 0.69221 0.72041 0.0
C2375 C 0.32082 0.69224 0.71937 0.0
C2376 C 0.32792 0.69488 0.70265 0.0
C2377 C 0.31692 0.69754 0.68695 0.0
H2378 H 0.32937 0.69019 0.7315 0.0
H2379 H 0.21883 0.71572 0.58183 0.0
H2380 H 0.6123 0.00958 0.77792 0.0
H2381 H 0.60093 0.01296 0.80802 0.0
H2382 H 0.65226 0.04788 0.83268 0.0
H2383 H 0.66386 0.04402 0.80268 0.0
H2384 H 0.63593 0.02349 0.85595 0.0
H2385 H 0.62196 0.06903 0.8206 0.0
H2386 H 0.61133 0.08213 0.79293 0.0
H2387 H 0.55853 0.04743 0.78975 0.0
H2388 H 0.56886 0.03405 0.81732 0.0
H2389 H 0.59192 0.06307 0.92631 0.0
H2390 H 0.61061 0.05243 0.90437 0.0
H2391 H 0.56234 0.02272 0.86812 0.0
H2392 H 0.54368 0.03419 0.88974 0.0
H2393 H 0.58108 0.04836 0.85223 0.0
H2394 H 0.59693 1.00046 0.88602 0.0
H2395 H 0.6091 0.98674 0.91252 0.0
H2396 H 0.65912 0.02667 0.91869 0.0
H2397 H 0.64726 0.04055 0.8922 0.0
C2398 C 0.62126 0.01738 0.79 0.0
C2399 C 0.63882 0.02643 0.78836 0.0
C2400 C 0.61479 0.01948 0.80698 0.0
C2401 C 0.62574 0.03099 0.82215 0.0
C2402 C 0.64375 0.03901 0.82094 0.0
C2403 C 0.65035 0.03665 0.80399 0.0
C2404 C 0.61779 0.03512 0.83888 0.0
C2405 C 0.62408 0.02918 0.85539 0.0
C2406 C 0.60246 0.04258 0.83776 0.0
C2407 C 0.59624 0.05044 0.82097 0.0
C2408 C 0.60813 0.06408 0.81391 0.0
C2409 C 0.60214 0.0716 0.79827 0.0
C2410 C 0.58428 0.06559 0.78957 0.0
C2411 C 0.57236 0.05208 0.7965 0.0
C2412 C 0.57826 0.04456 0.81216 0.0
C2413 C 0.58544 0.054 0.91377 0.0
C2414 C 0.56661 0.04982 0.90911 0.0
C2415 C 0.59605 0.04767 0.90148 0.0
C2416 C 0.5878 0.03688 0.88466 0.0
C2417 C 0.56887 0.03113 0.88106 0.0
C2418 C 0.55827 0.0378 0.89317 0.0
C2419 C 0.59836 0.03548 0.86915 0.0
C2420 C 0.59283 0.04253 0.85293 0.0
C2421 C 0.61447 0.02922 0.87067 0.0
C2422 C 0.62111 0.02167 0.88735 0.0
C2423 C 0.61042 0.00646 0.89323 0.0
C2424 C 0.61731 0.99859 0.90816 0.0
C2425 C 0.63484 0.00588 0.91735 0.0
C2426 C 0.64553 0.02106 0.91162 0.0
C2427 C 0.63875 0.0289 0.89663 0.0
H2428 H 0.64017 0.99974 0.92886 0.0
H2429 H 0.57967 0.07142 0.77747 0.0
H2430 H 0.25644 0.32525 0.06469 0.0
H2431 H 0.25016 0.31572 0.09516 0.0
H2432 H 0.28831 0.36365 0.12328 0.0
H2433 H 0.29434 0.37326 0.09287 0.0
H2434 H 0.29626 0.33032 0.12945 0.0
H2435 H 0.24733 0.35957 0.13173 0.0
H2436 H 0.21935 0.36654 0.1173 0.0
H2437 H 0.19193 0.31069 0.11284 0.0
H2438 H 0.21986 0.30334 0.12705 0.0
H2439 H 0.29906 0.30342 0.21764 0.0
H2440 H 0.29699 0.31934 0.19086 0.0
H2441 H 0.24335 0.28618 0.17181 0.0
H2442 H 0.24409 0.27303 0.20123 0.0
H2443 H 0.24161 0.3141 0.1607 0.0
H2444 H 0.2891 0.28324 0.14837 0.0
H2445 H 0.3176 0.27349 0.14925 0.0
H2446 H 0.3476 0.32832 0.16561 0.0
H2447 H 0.31901 0.3385 0.16389 0.0
C2448 C 0.26296 0.33397 0.07744 0.0
C2449 C 0.27573 0.34997 0.07668 0.0
C2450 C 0.25931 0.32861 0.09477 0.0
C2451 C 0.26864 0.3391 0.11142 0.0
C2452 C 0.28079 0.35554 0.11057 0.0
C2453 C 0.28425 0.36099 0.09328 0.0
C2454 C 0.26849 0.33133 0.12927 0.0
C2455 C 0.28445 0.32713 0.13662 0.0
C2456 C 0.2528 0.32643 0.13787 0.0
C2457 C 0.23569 0.3309 0.13042 0.0
C2458 C 0.23533 0.34877 0.12768 0.0
C2459 C 0.21949 0.35279 0.11952 0.0
C2460 C 0.20387 0.33906 0.11414 0.0
C2461 C 0.20404 0.32131 0.11704 0.0
C2462 C 0.21986 0.31721 0.1252 0.0
C2463 C 0.2865 0.30006 0.20826 0.0
C2464 C 0.27152 0.28747 0.21213 0.0
C2465 C 0.28559 0.30865 0.19227 0.0
C2466 C 0.27024 0.30373 0.17859 0.0
C2467 C 0.25543 0.29043 0.18198 0.0
C2468 C 0.25596 0.2826 0.19871 0.0
C2469 C 0.26968 0.31279 0.16117 0.0
C2470 C 0.25357 0.31733 0.15382 0.0
C2471 C 0.28521 0.3177 0.15205 0.0
C2472 C 0.30199 0.31152 0.15635 0.0
C2473 C 0.30176 0.29314 0.15257 0.0
C2474 C 0.31798 0.28758 0.15301 0.0
C2475 C 0.33451 0.30024 0.15763 0.0
C2476 C 0.33482 0.31852 0.16204 0.0
C2477 C 0.31862 0.32421 0.16122 0.0
H2478 H 0.34707 0.2959 0.15772 0.0
H2479 H 0.19164 0.34218 0.10773 0.0
H2480 H 0.22746 0.91235 0.00065 0.0
H2481 H 0.2026 0.92798 0.00041 0.0
H2482 H 0.24031 0.97876 -3e-05 0.0
H2483 H 0.2651 0.9633 -0.00018 0.0
H2484 H 0.21744 0.97467 0.03067 0.0
H2485 H 0.21498 0.96803 0.96349 0.0
H2486 H 0.21352 0.95063 0.93252 0.0
H2487 H 0.16279 0.91668 0.93975 0.0
H2488 H 0.16404 0.93381 0.97086 0.0
H2489 H 0.15703 0.02808 0.03612 0.0
H2490 H 0.1789 0.01587 0.01952 0.0
H2491 H 0.14237 0.96318 0.01002 0.0
H2492 H 0.12029 0.97558 0.02622 0.0
H2493 H 0.16508 0.96941 0.98163 0.0
H2494 H 0.16807 0.97259 0.04861 0.0
H2495 H 0.16918 0.98727 0.08078 0.0
H2496 H 0.21874 0.02438 0.07561 0.0
H2497 H 0.21772 0.01011 0.04322 0.0
C2498 C 0.23037 0.92682 0.0004 0.0
C2499 C 0.24811 0.9367 0.00041 0.0
C2500 C 0.21621 0.93564 4e-05 0.0
C2501 C 0.21978 0.95438 -6e-05 0.0
C2502 C 0.23743 0.96423 -0.00021 0.0
C2503 C 0.25151 0.95541 -0.00018 0.0
C2504 C 0.20546 0.964 0.00234 0.0
C2505 C 0.20617 0.97388 0.01984 0.0
C2506 C 0.19062 0.96228 0.98832 0.0
C2507 C 0.18968 0.95211 0.96955 0.0
C2508 C 0.20358 0.95678 0.95852 0.0
C2509 C 0.20277 0.94699 0.94093 0.0
C2510 C 0.18808 0.93254 0.93419 0.0
C2511 C 0.17415 0.92789 0.94499 0.0
C2512 C 0.17488 0.93765 0.96259 0.0
C2513 C 0.15356 0.01405 0.02994 0.0
C2514 C 0.1374 0.00255 0.0326 0.0
C2515 C 0.16589 0.00714 0.02039 0.0
C2516 C 0.16225 0.98862 0.0139 0.0
C2517 C 0.14531 0.97751 0.01495 0.0
C2518 C 0.13286 0.9845 0.02432 0.0
C2519 C 0.17724 0.98034 0.0099 0.0
C2520 C 0.17654 0.97052 0.99229 0.0
C2521 C 0.19206 0.98178 0.02396 0.0
C2522 C 0.19268 0.99046 0.0434 0.0
C2523 C 0.17909 0.98401 0.05425 0.0
C2524 C 0.17973 0.99224 0.07254 0.0
C2525 C 0.19399 0.0068 0.08021 0.0
C2526 C 0.20767 0.01314 0.06962 0.0
C2527 C 0.20706 0.005 0.05129 0.0
H2528 H 0.19448 0.01312 0.09439 0.0
H2529 H 0.18749 0.92496 0.92057 0.0
H2530 H 0.72113 0.6308 0.02808 0.0
H2531 H 0.69221 0.60949 0.02829 0.0
H2532 H 0.67839 0.61114 0.96916 0.0
H2533 H 0.70695 0.63314 0.96928 0.0
H2534 H 0.65199 0.61692 0.98691 0.0
H2535 H 0.68817 0.57215 0.98807 0.0
H2536 H 0.71371 0.55994 0.00062 0.0
H2537 H 0.69457 0.55992 0.05416 0.0
H2538 H 0.66901 0.57229 0.04197 0.0
H2539 H 0.56873 0.55165 0.97703 0.0
H2540 H 0.59916 0.56858 0.974 0.0
H2541 H 0.61706 0.56335 0.03146 0.0
H2542 H 0.58712 0.54522 0.03386 0.0
H2543 H 0.64171 0.55896 0.01348 0.0
H2544 H 0.60632 0.60403 0.01395 0.0
H2545 H 0.58152 0.61812 0.00325 0.0
H2546 H 0.59941 0.61984 0.9492 0.0
H2547 H 0.62415 0.60553 0.95947 0.0
C2548 C 0.71216 0.62604 0.01504 0.0
C2549 C 0.71629 0.63322 -0.00142 0.0
C2550 C 0.69561 0.61393 0.01514 0.0
C2551 C 0.68311 0.60857 -0.00131 0.0
C2552 C 0.68776 0.61507 0.98202 0.0
C2553 C 0.70414 0.62743 0.98202 0.0
C2554 C 0.66464 0.59746 -0.00087 0.0
C2555 C 0.64971 0.60408 0.99243 0.0
C2556 C 0.66164 0.58106 0.00696 0.0
C2557 C 0.67675 0.57322 0.01413 0.0
C2558 C 0.68945 0.56959 0.00253 0.0
C2559 C 0.70392 0.56264 0.00958 0.0
C2560 C 0.70578 0.55918 0.02818 0.0
C2561 C 0.69312 0.5626 0.03976 0.0
C2562 C 0.67861 0.56953 0.03277 0.0
C2563 C 0.57928 0.55408 0.98891 0.0
C2564 C 0.57573 0.54714 0.00563 0.0
C2565 C 0.59661 0.56391 0.98727 0.0
C2566 C 0.61045 0.56764 0.00262 0.0
C2567 C 0.60674 0.56066 0.01935 0.0
C2568 C 0.58964 0.5503 0.02075 0.0
C2569 C 0.6289 0.5784 0.00129 0.0
C2570 C 0.64388 0.57175 0.00786 0.0
C2571 C 0.63192 0.59495 0.99361 0.0
C2572 C 0.61698 0.60352 0.98743 0.0
C2573 C 0.60488 0.60729 -0.00026 0.0
C2574 C 0.59085 0.61533 0.99375 0.0
C2575 C 0.58886 0.61983 0.97555 0.0
C2576 C 0.60094 0.61632 0.96329 0.0
C2577 C 0.61497 0.60825 0.96919 0.0
H2578 H 0.57799 0.62606 0.97095 0.0
H2579 H 0.71702 0.55385 0.03363 0.0
H2580 H 0.64272 0.47433 0.26272 0.0
H2581 H 0.65684 0.44857 0.2591 0.0
H2582 H 0.70103 0.47635 0.30141 0.0
H2583 H 0.687 0.50214 0.30519 0.0
H2584 H 0.71217 0.46237 0.26908 0.0
H2585 H 0.66947 0.44222 0.31117 0.0
H2586 H 0.63932 0.43432 0.32127 0.0
H2587 H 0.6211 0.39387 0.2733 0.0
H2588 H 0.65103 0.40176 0.26271 0.0
H2589 H 0.75691 0.3918 0.27514 0.0
H2590 H 0.74046 0.41458 0.28513 0.0
H2591 H 0.69321 0.38537 0.24721 0.0
H2592 H 0.70964 0.36253 0.23747 0.0
H2593 H 0.68336 0.39982 0.27832 0.0
H2594 H 0.72289 0.41965 0.23447 0.0
H2595 H 0.75172 0.42683 0.2216 0.0
H2596 H 0.77407 0.46743 0.2687 0.0
H2597 H 0.74549 0.46019 0.28211 0.0
C2598 C 0.65542 0.47495 0.27131 0.0
C2599 C 0.66376 0.49032 0.28424 0.0
C2600 C 0.6634 0.46016 0.2693 0.0
C2601 C 0.6799 0.46049 0.28011 0.0
C2602 C 0.68826 0.47581 0.29299 0.0
C2603 C 0.68021 0.49053 0.29514 0.0
C2604 C 0.68891 0.44526 0.27739 0.0
C2605 C 0.70601 0.44875 0.27142 0.0
C2606 C 0.68052 0.42736 0.27973 0.0
C2607 C 0.66246 0.42274 0.28603 0.0
C2608 C 0.65898 0.43179 0.30265 0.0
C2609 C 0.64194 0.42728 0.30849 0.0
C2610 C 0.62829 0.41364 0.2979 0.0
C2611 C 0.63167 0.40446 0.28147 0.0
C2612 C 0.64867 0.40895 0.27554 0.0
C2613 C 0.74288 0.39011 0.26934 0.0
C2614 C 0.73444 0.37559 0.25559 0.0
C2615 C 0.73353 0.40312 0.27493 0.0
C2616 C 0.7157 0.40185 0.26665 0.0
C2617 C 0.70695 0.38667 0.25373 0.0
C2618 C 0.71631 0.37367 0.24815 0.0
C2619 C 0.70671 0.417 0.27023 0.0
C2620 C 0.68959 0.41348 0.27618 0.0
C2621 C 0.71487 0.43484 0.26745 0.0
C2622 C 0.73211 0.4392 0.25943 0.0
C2623 C 0.73401 0.42997 0.2422 0.0
C2624 C 0.75031 0.43407 0.23479 0.0
C2625 C 0.76474 0.44754 0.24435 0.0
C2626 C 0.7629 0.45696 0.26134 0.0
C2627 C 0.74666 0.45285 0.26886 0.0
H2628 H 0.77734 0.45072 0.23857 0.0
H2629 H 0.61511 0.41015 0.30246 0.0
H2630 H 0.8202 0.45157 0.49292 0.0
H2631 H 0.84814 0.47431 0.49131 0.0
H2632 H 0.87973 0.43899 0.51384 0.0
H2633 H 0.85225 0.41664 0.51558 0.0
H2634 H 0.88706 0.47386 0.53224 0.0
H2635 H 0.87553 0.4392 0.47174 0.0
H2636 H 0.86021 0.42673 0.43995 0.0
H2637 H 0.8688 0.48008 0.42389 0.0
H2638 H 0.88362 0.49299 0.45585 0.0
H2639 H 0.97793 0.48842 0.515 0.0
H2640 H 0.94581 0.4748 0.51341 0.0
H2641 H 0.93276 0.52406 0.4983 0.0
H2642 H 0.96492 0.53801 0.50014 0.0
H2643 H 0.91367 0.48824 0.47467 0.0
H2644 H 0.93125 0.51746 0.54141 0.0
H2645 H 0.94919 0.52078 0.5725 0.0
H2646 H 0.93329 0.4635 0.5736 0.0
H2647 H 0.9154 0.45986 0.54245 0.0
C2648 C 0.83319 0.44903 0.49791 0.0
C2649 C 0.8344 0.43264 0.50452 0.0
C2650 C 0.84895 0.46173 0.49663 0.0
C2651 C 0.86571 0.45797 0.50216 0.0
C2652 C 0.86677 0.44187 0.50936 0.0
C2653 C 0.85119 0.42928 0.51054 0.0
C2654 C 0.88254 0.47107 0.50212 0.0
C2655 C 0.89279 0.47728 0.51965 0.0
C2656 C 0.88986 0.47493 0.48551 0.0
C2657 C 0.8802 0.46717 0.46648 0.0
C2658 C 0.87372 0.44837 0.46166 0.0
C2659 C 0.86522 0.44119 0.44353 0.0
C2660 C 0.86338 0.45262 0.42996 0.0
C2661 C 0.87008 0.47125 0.43448 0.0
C2662 C 0.87847 0.47852 0.45262 0.0
C2663 C 0.96826 0.49649 0.51175 0.0
C2664 C 0.97379 0.51427 0.50785 0.0
C2665 C 0.95 0.48863 0.51062 0.0
C2666 C 0.93723 0.49855 0.50567 0.0
C2667 C 0.94265 0.51635 0.50203 0.0
C2668 C 0.96091 0.52426 0.50325 0.0
C2669 C 0.91814 0.49038 0.50479 0.0
C2670 C 0.90757 0.48534 0.48718 0.0
C2671 C 0.91082 0.48602 0.52115 0.0
C2672 C 0.922 0.48843 0.53967 0.0
C2673 C 0.9317 0.50559 0.54825 0.0
C2674 C 0.94185 0.5075 0.5659 0.0
C2675 C 0.94234 0.49232 0.57504 0.0
C2676 C 0.93284 0.47522 0.56652 0.0
C2677 C 0.9227 0.47324 0.54891 0.0
H2678 H 0.94997 0.49365 0.58875 0.0
H2679 H 0.85689 0.44703 0.41592 0.0
H2680 H 0.34333 0.03445 0.25903 0.0
H2681 H 0.32797 0.059 0.25468 0.0
H2682 H 0.35531 0.0874 0.30833 0.0
H2683 H 0.36979 0.06223 0.31309 0.0
H2684 H 0.32204 0.09117 0.30353 0.0
H2685 H 0.37083 0.09765 0.26694 0.0
H2686 H 0.3896 0.08874 0.2437 0.0
H2687 H 0.34435 0.07905 0.20025 0.0
H2688 H 0.32522 0.0876 0.22327 0.0
H2689 H 0.31466 0.17786 0.27146 0.0
H2690 H 0.32266 0.15264 0.28629 0.0
H2691 H 0.28921 0.11496 0.24097 0.0
H2692 H 0.28159 0.14009 0.22598 0.0
H2693 H 0.3272 0.11788 0.24429 0.0
H2694 H 0.27848 0.11157 0.28238 0.0
H2695 H 0.26075 0.12083 0.3065 0.0
H2696 H 0.30782 0.13225 0.34791 0.0
H2697 H 0.3259 0.12328 0.32399 0.0
C2698 C 0.34575 0.04587 0.26991 0.0
C2699 C 0.35754 0.04678 0.28632 0.0
C2700 C 0.33715 0.05985 0.26743 0.0
C2701 C 0.34088 0.07511 0.28103 0.0
C2702 C 0.35234 0.07572 0.2977 0.0
C2703 C 0.36057 0.06148 0.30039 0.0
C2704 C 0.33326 0.09066 0.2775 0.0
C2705 C 0.32332 0.09721 0.29069 0.0
C2706 C 0.33504 0.09842 0.26074 0.0
C2707 C 0.34654 0.09312 0.24689 0.0
C2708 C 0.36483 0.09347 0.25246 0.0
C2709 C 0.37555 0.0885 0.23932 0.0
C2710 C 0.36816 0.0833 0.22052 0.0
C2711 C 0.35005 0.08306 0.21482 0.0
C2712 C 0.33927 0.08797 0.22791 0.0
C2713 C 0.30881 0.16413 0.26496 0.0
C2714 C 0.29804 0.16068 0.24742 0.0
C2715 C 0.31313 0.14982 0.27353 0.0
C2716 C 0.30646 0.13209 0.26465 0.0
C2717 C 0.29439 0.12864 0.24796 0.0
C2718 C 0.29028 0.1429 0.2393 0.0
C2719 C 0.31531 0.11784 0.2699 0.0
C2720 C 0.32587 0.11181 0.25712 0.0
C2721 C 0.31431 0.11086 0.28712 0.0
C2722 C 0.30361 0.11701 0.30131 0.0
C2723 C 0.28513 0.11634 0.29655 0.0
C2724 C 0.27499 0.12145 0.31022 0.0
C2725 C 0.28317 0.1272 0.32871 0.0
C2726 C 0.30151 0.12785 0.33358 0.0
C2727 C 0.3117 0.12275 0.31997 0.0
H2728 H 0.27528 0.13109 0.33928 0.0
H2729 H 0.37649 0.07948 0.21036 0.0
H2730 H 0.29617 0.12165 0.51527 0.0
H2731 H 0.31888 0.10386 0.52042 0.0
H2732 H 0.35381 0.1378 0.48889 0.0
H2733 H 0.33062 0.15464 0.48264 0.0
H2734 H 0.35583 0.10681 0.47893 0.0
H2735 H 0.35896 0.13857 0.5405 0.0
H2736 H 0.34885 0.14865 0.57013 0.0
H2737 H 0.33296 0.09362 0.5807 0.0
H2738 H 0.34268 0.08318 0.551 0.0
H2739 H 0.43773 0.08169 0.51828 0.0
H2740 H 0.41388 0.09627 0.50627 0.0
H2741 H 0.37372 0.05493 0.52408 0.0
H2742 H 0.39744 0.04051 0.53609 0.0
H2743 H 0.37488 0.08939 0.54066 0.0
H2744 H 0.37302 0.05859 0.47858 0.0
H2745 H 0.38468 0.04975 0.44946 0.0
H2746 H 0.40082 0.10547 0.4413 0.0
H2747 H 0.38947 0.11465 0.47049 0.0
C2748 C 0.30872 0.12526 0.50945 0.0
C2749 C 0.31164 0.1395 0.49851 0.0
C2750 C 0.3218 0.11519 0.51256 0.0
C2751 C 0.33832 0.1196 0.50534 0.0
C2752 C 0.34122 0.13399 0.49458 0.0
C2753 C 0.32796 0.14366 0.49101 0.0
C2754 C 0.35232 0.10887 0.50818 0.0
C2755 C 0.36017 0.1033 0.49255 0.0
C2756 C 0.35781 0.10381 0.52582 0.0
C2757 C 0.35133 0.11008 0.54336 0.0
C2758 C 0.35309 0.1286 0.54901 0.0
C2759 C 0.34747 0.13438 0.56586 0.0
C2760 C 0.34021 0.12178 0.57725 0.0
C2761 C 0.33853 0.10337 0.57183 0.0
C2762 C 0.34408 0.09751 0.55499 0.0
C2763 C 0.42373 0.07538 0.51889 0.0
C2764 C 0.41933 0.06003 0.52807 0.0
C2765 C 0.41013 0.08372 0.51211 0.0
C2766 C 0.39205 0.07673 0.51443 0.0
C2767 C 0.38759 0.06056 0.52222 0.0
C2768 C 0.4011 0.05229 0.52898 0.0
C2769 C 0.37822 0.08747 0.51148 0.0
C2770 C 0.37049 0.09303 0.52711 0.0
C2771 C 0.37312 0.09281 0.49399 0.0
C2772 C 0.3806 0.08731 0.47686 0.0
C2773 C 0.3793 0.06897 0.47072 0.0
C2774 C 0.38578 0.06389 0.45416 0.0
C2775 C 0.39354 0.07704 0.44357 0.0
C2776 C 0.39485 0.0953 0.44953 0.0
C2777 C 0.38839 0.10044 0.46608 0.0
H2778 H 0.39849 0.07308 0.43071 0.0
H2779 H 0.33592 0.12629 0.59032 0.0
H2780 H 0.67651 0.57161 0.2642 0.0
H2781 H 0.69862 0.60009 0.26395 0.0
H2782 H 0.67418 0.62607 0.30667 0.0
H2783 H 0.65174 0.59796 0.30634 0.0
H2784 H 0.676 0.6445 0.27896 0.0
H2785 H 0.71784 0.61817 0.31447 0.0
H2786 H 0.73488 0.59519 0.32155 0.0
H2787 H 0.75933 0.60134 0.27132 0.0
H2788 H 0.74224 0.62418 0.26379 0.0
H2789 H 0.73773 0.72946 0.29615 0.0
H2790 H 0.71969 0.69961 0.29875 0.0
H2791 H 0.74429 0.67628 0.25445 0.0
H2792 H 0.76278 0.70621 0.25207 0.0
H2793 H 0.74266 0.65633 0.28217 0.0
H2794 H 0.69987 0.68342 0.24741 0.0
H2795 H 0.68186 0.7059 0.24127 0.0
H2796 H 0.65917 0.69866 0.29229 0.0
H2797 H 0.67699 0.67616 0.29878 0.0
C2798 C 0.6762 0.58332 0.27383 0.0
C2799 C 0.66238 0.58272 0.28517 0.0
C2800 C 0.68883 0.59958 0.27371 0.0
C2801 C 0.68802 0.61527 0.28524 0.0
C2802 C 0.67496 0.61422 0.2975 0.0
C2803 C 0.66219 0.59815 0.29736 0.0
C2804 C 0.69938 0.63319 0.28327 0.0
C2805 C 0.69062 0.64714 0.27996 0.0
C2806 C 0.71838 0.63652 0.28401 0.0
C2807 C 0.72859 0.62273 0.28846 0.0
C2808 C 0.72672 0.61449 0.30484 0.0
C2809 C 0.73641 0.60152 0.30895 0.0
C2810 C 0.74813 0.59676 0.29686 0.0
C2811 C 0.75022 0.60501 0.28065 0.0
C2812 C 0.74054 0.61797 0.27646 0.0
C2813 C 0.73932 0.71798 0.28694 0.0
C2814 C 0.7517 0.72015 0.27391 0.0
C2815 C 0.7289 0.70093 0.28837 0.0
C2816 C 0.7304 0.68574 0.27657 0.0
C2817 C 0.74288 0.68784 0.26366 0.0
C2818 C 0.75345 0.70491 0.26234 0.0
C2819 C 0.71926 0.66763 0.27806 0.0
C2820 C 0.72805 0.65365 0.2812 0.0
C2821 C 0.70025 0.66429 0.27738 0.0
C2822 C 0.68991 0.67821 0.27366 0.0
C2823 C 0.69118 0.68674 0.25741 0.0
C2824 C 0.68097 0.69946 0.25385 0.0
C2825 C 0.66948 0.70377 0.26642 0.0
C2826 C 0.66811 0.69534 0.28258 0.0
C2827 C 0.67822 0.68258 0.28618 0.0
H2828 H 0.66159 0.71359 0.26361 0.0
H2829 H 0.75563 0.58672 0.30007 0.0
H2830 H 0.84545 0.46954 0.81329 0.0
H2831 H 0.82741 0.43851 0.80963 0.0
H2832 H 0.83231 0.43327 0.75053 0.0
H2833 H 0.84909 0.46446 0.75398 0.0
H2834 H 0.8032 0.41321 0.75556 0.0
H2835 H 0.86541 0.42471 0.7859 0.0
H2836 H 0.89167 0.43727 0.81023 0.0
H2837 H 0.86181 0.41365 0.85186 0.0
H2838 H 0.83535 0.40111 0.82784 0.0
H2839 H 0.78661 0.3196 0.74492 0.0
H2840 H 0.80478 0.35003 0.74546 0.0
H2841 H 0.80089 0.36093 0.80447 0.0
H2842 H 0.78509 0.32963 0.80425 0.0
H2843 H 0.83244 0.37731 0.79749 0.0
H2844 H 0.76931 0.36959 0.76759 0.0
H2845 H 0.7437 0.35551 0.74296 0.0
H2846 H 0.77671 0.37136 0.70053 0.0
H2847 H 0.80248 0.38554 0.72493 0.0
C2848 C 0.84157 0.46201 0.79939 0.0
C2849 C 0.84872 0.46887 0.78393 0.0
C2850 C 0.83172 0.44429 0.79738 0.0
C2851 C 0.82952 0.43358 0.78005 0.0
C2852 C 0.83424 0.44139 0.76409 0.0
C2853 C 0.84358 0.45923 0.76599 0.0
C2854 C 0.82386 0.41403 0.77865 0.0
C2855 C 0.80971 0.40536 0.76464 0.0
C2856 C 0.83254 0.40394 0.79052 0.0
C2857 C 0.8483 0.41216 0.80508 0.0
C2858 C 0.86437 0.42238 0.80027 0.0
C2859 C 0.87932 0.42944 0.81401 0.0
C2860 C 0.87838 0.42631 0.83259 0.0
C2861 C 0.86251 0.41611 0.83748 0.0
C2862 C 0.84754 0.40902 0.82381 0.0
C2863 C 0.79038 0.32827 0.758 0.0
C2864 C 0.78483 0.32243 0.77446 0.0
C2865 C 0.80041 0.34569 0.75831 0.0
C2866 C 0.80384 0.35765 0.77494 0.0
C2867 C 0.79832 0.35178 0.79151 0.0
C2868 C 0.78896 0.33413 0.7913 0.0
C2869 C 0.81145 0.37675 0.77487 0.0
C2870 C 0.8261 0.38529 0.78843 0.0
C2871 C 0.80333 0.38679 0.7626 0.0
C2872 C 0.78777 0.37851 0.74803 0.0
C2873 C 0.77106 0.37006 0.753 0.0
C2874 C 0.75654 0.36208 0.73909 0.0
C2875 C 0.75858 0.36257 0.72019 0.0
C2876 C 0.77513 0.37106 0.71516 0.0
C2877 C 0.78968 0.37909 0.72901 0.0
H2878 H 0.74732 0.35637 0.70944 0.0
H2879 H 0.88998 0.43174 0.84318 0.0
H2880 H 0.06002 0.82995 0.04683 0.0
H2881 H 0.05623 0.85916 0.03855 0.0
H2882 H 0.03663 0.87014 0.0911 0.0
H2883 H 0.03951 0.84032 0.09894 0.0
H2884 H 0.01825 0.88311 0.06809 0.0
H2885 H 0.08253 0.89121 0.07822 0.0
H2886 H 0.1121 0.88444 0.07428 0.0
H2887 H 0.10322 0.88926 0.01564 0.0
H2888 H 0.07351 0.89588 0.0192 0.0
H2889 H 0.03223 0.97957 0.06178 0.0
H2890 H 0.0353 0.95011 0.07075 0.0
H2891 H 0.03603 0.93053 0.01301 0.0
H2892 H 0.03213 0.95975 0.00388 0.0
H2893 H 0.06486 0.92307 0.03948 0.0
H2894 H 1.00022 0.91225 0.02913 0.0
H2895 H 0.96922 0.91518 0.03213 0.0
H2896 H 0.97961 0.91599 0.09172 0.0
H2897 H 0.01059 0.91242 0.08898 0.0
C2898 C 0.05484 0.83851 0.05667 0.0
C2899 C 0.05009 0.83251 0.07362 0.0
C2900 C 0.05288 0.85552 0.05199 0.0
C2901 C 0.04657 0.86757 0.06429 0.0
C2902 C 0.0416 0.86146 0.08118 0.0
C2903 C 0.04325 0.84425 0.08572 0.0
C2904 C 0.04463 0.88609 0.05934 0.0
C2905 C 0.02874 0.8919 0.06223 0.0
C2906 C 0.05788 0.89784 0.05114 0.0
C2907 C 0.07572 0.89387 0.04895 0.0
C2908 C 0.08683 0.89071 0.06447 0.0
C2909 C 0.10363 0.88692 0.0623 0.0
C2910 C 0.10951 0.88637 0.04471 0.0
C2911 C 0.09864 0.88967 0.02925 0.0
C2912 C 0.08183 0.89346 0.03134 0.0
C2913 C 0.03295 0.96898 0.05094 0.0
C2914 C 0.03198 0.97221 0.03205 0.0
C2915 C 0.03468 0.95203 0.05611 0.0
C2916 C 0.036 0.93785 0.04265 0.0
C2917 C 0.03509 0.94109 0.02378 0.0
C2918 C 0.03281 0.95786 0.01853 0.0
C2919 C 0.03856 0.91986 0.0483 0.0
C2920 C 0.05457 0.91426 0.04557 0.0
C2921 C 0.02557 0.90837 0.05683 0.0
C2922 C 0.00776 0.91233 0.05887 0.0
C2923 C 0.996 0.91337 0.04291 0.0
C2924 C 0.9784 0.91502 0.04455 0.0
C2925 C 0.97249 0.91595 0.06212 0.0
C2926 C 0.98422 0.91531 0.07813 0.0
C2927 C 0.00177 0.91336 0.07653 0.0
H2928 H 0.95875 0.91694 0.06328 0.0
H2929 H 0.12251 0.88343 0.04306 0.0
H2930 H 0.95382 0.24118 0.87302 0.0
H2931 H 0.92781 0.24337 0.85079 0.0
H2932 H 0.91009 0.27568 0.89423 0.0
H2933 H 0.93513 0.27263 0.91637 0.0
H2934 H 0.88279 0.25344 0.87862 0.0
H2935 H 0.93065 0.29172 0.85357 0.0
H2936 H 0.95898 0.2997 0.83986 0.0
H2937 H 0.93722 0.25859 0.79307 0.0
H2938 H 0.90884 0.2502 0.80663 0.0
H2939 H 0.81939 0.29077 0.82472 0.0
H2940 H 0.84681 0.28718 0.84342 0.0
H2941 H 0.85135 0.24488 0.80132 0.0
H2942 H 0.82337 0.2479 0.78305 0.0
H2943 H 0.88474 0.26992 0.81438 0.0
H2944 H 0.8362 0.23328 0.84011 0.0
H2945 H 0.80821 0.22638 0.85461 0.0
H2946 H 0.83222 0.26704 0.9012 0.0
H2947 H 0.86026 0.27436 0.88687 0.0
C2948 C 0.94433 0.24873 0.87774 0.0
C2949 C 0.94645 0.25649 0.89658 0.0
C2950 C 0.92949 0.25013 0.86498 0.0
C2951 C 0.91676 0.25976 0.87066 0.0
C2952 C 0.91937 0.26794 0.88935 0.0
C2953 C 0.93381 0.26619 0.90209 0.0
C2954 C 0.90019 0.26077 0.85782 0.0
C2955 C 0.88342 0.25734 0.86469 0.0
C2956 C 0.90056 0.26529 0.8393 0.0
C2957 C 0.9177 0.27017 0.83126 0.0
C2958 C 0.93197 0.28426 0.84046 0.0
C2959 C 0.94802 0.28889 0.83269 0.0
C2960 C 0.94992 0.27961 0.81564 0.0
C2961 C 0.93575 0.26573 0.8063 0.0
C2962 C 0.91968 0.26103 0.81402 0.0
C2963 C 0.82585 0.28031 0.81976 0.0
C2964 C 0.81878 0.26918 0.80273 0.0
C2965 C 0.84175 0.27845 0.83031 0.0
C2966 C 0.85113 0.26559 0.82395 0.0
C2967 C 0.84441 0.25488 0.8066 0.0
C2968 C 0.8284 0.25662 0.79616 0.0
C2969 C 0.86771 0.26314 0.83555 0.0
C2970 C 0.88432 0.26613 0.82837 0.0
C2971 C 0.86732 0.25854 0.85395 0.0
C2972 C 0.85026 0.2545 0.8623 0.0
C2973 C 0.83543 0.2409 0.85333 0.0
C2974 C 0.81957 0.23688 0.86155 0.0
C2975 C 0.81842 0.2463 0.87878 0.0
C2976 C 0.83311 0.25978 0.88783 0.0
C2977 C 0.84899 0.26386 0.87967 0.0
H2978 H 0.80616 0.24311 0.88515 0.0
H2979 H 0.96235 0.28323 0.80964 0.0
H2980 H 0.54667 0.2293 0.54149 0.0
H2981 H 0.54198 0.19645 0.53335 0.0
H2982 H 0.53681 0.18918 0.59082 0.0
H2983 H 0.54076 0.22195 0.59887 0.0
H2984 H 0.56145 0.17003 0.57478 0.0
H2985 H 0.50101 0.17554 0.56262 0.0
H2986 H 0.4754 0.18729 0.54953 0.0
H2987 H 0.48417 0.16978 0.49377 0.0
H2988 H 0.51007 0.15817 0.50654 0.0
H2989 H 0.52821 0.07305 0.56069 0.0
H2990 H 0.53121 0.10557 0.56894 0.0
H2991 H 0.53744 0.11383 0.51189 0.0
H2992 H 0.53504 0.08125 0.50366 0.0
H2993 H 0.51165 0.13227 0.52823 0.0
H2994 H 0.57341 0.12774 0.54173 0.0
H2995 H 0.5986 0.11615 0.55605 0.0
H2996 H 0.58568 0.1308 0.61085 0.0
H2997 H 0.56049 0.14275 0.59685 0.0
C2998 C 0.54423 0.22071 0.55236 0.0
C2999 C 0.54391 0.22842 0.57083 0.0
C3000 C 0.54159 0.20185 0.54768 0.0
C3001 C 0.53906 0.19011 0.56142 0.0
C3002 C 0.53872 0.19778 0.57988 0.0
C3003 C 0.54084 0.21659 0.58445 0.0
C3004 C 0.53722 0.17 0.55658 0.0
C3005 C 0.5504 0.16179 0.56477 0.0
C3006 C 0.523 0.15902 0.54334 0.0
C3007 C 0.50766 0.16623 0.53553 0.0
C3008 C 0.49765 0.17441 0.54756 0.0
C3009 C 0.48304 0.18099 0.5402 0.0
C3010 C 0.47821 0.17935 0.52083 0.0
C3011 C 0.48797 0.17109 0.50877 0.0
C3012 C 0.50261 0.1645 0.51606 0.0
C3013 C 0.5303 0.08175 0.54985 0.0
C3014 C 0.53135 0.07437 0.53144 0.0
C3015 C 0.53204 0.10044 0.55463 0.0
C3016 C 0.53451 0.11238 0.54109 0.0
C3017 C 0.5355 0.10505 0.52266 0.0
C3018 C 0.53421 0.08637 0.51797 0.0
C3019 C 0.53602 0.13239 0.54624 0.0
C3020 C 0.52273 0.14055 0.53817 0.0
C3021 C 0.55002 0.1433 0.55975 0.0
C3022 C 0.56494 0.13593 0.56824 0.0
C3023 C 0.57583 0.12833 0.55683 0.0
C3024 C 0.59012 0.12172 0.56489 0.0
C3025 C 0.59362 0.12252 0.58433 0.0
C3026 C 0.58291 0.13011 0.59578 0.0
C3027 C 0.56867 0.13688 0.5878 0.0
H3028 H 0.6047 0.11737 0.59053 0.0
H3029 H 0.46687 0.18443 0.51516 0.0
H3030 H 0.55402 0.7496 0.4098 0.0
H3031 H 0.58069 0.74713 0.39456 0.0
H3032 H 0.56788 0.78378 0.35656 0.0
H3033 H 0.54142 0.78642 0.37173 0.0
H3034 H 0.57556 0.75406 0.33799 0.0
H3035 H 0.60183 0.79734 0.3926 0.0
H3036 H 0.6099 0.80877 0.42623 0.0
H3037 H 0.63755 0.76632 0.43418 0.0
H3038 H 0.6294 0.75446 0.40061 0.0
H3039 H 0.65628 0.79578 0.30525 0.0
H3040 H 0.62839 0.78626 0.31883 0.0
H3041 H 0.65081 0.74644 0.34514 0.0
H3042 H 0.67849 0.75532 0.33059 0.0
H3043 H 0.63853 0.77152 0.3705 0.0
H3044 H 0.61535 0.73034 0.31539 0.0
H3045 H 0.60825 0.71953 0.28156 0.0
H3046 H 0.57559 0.75813 0.27457 0.0
H3047 H 0.58264 0.76931 0.30833 0.0
C3048 C 0.55689 0.75715 0.3982 0.0
C3049 C 0.54545 0.76818 0.39198 0.0
C3050 C 0.57222 0.75578 0.38955 0.0
C3051 C 0.57638 0.76527 0.37436 0.0
C3052 C 0.56498 0.77625 0.36818 0.0
C3053 C 0.54983 0.77779 0.37693 0.0
C3054 C 0.59231 0.76365 0.36453 0.0
C3055 C 0.58933 0.75797 0.34513 0.0
C3056 C 0.61032 0.76805 0.37386 0.0
C3057 C 0.61472 0.77482 0.39415 0.0
C3058 C 0.60939 0.79027 0.40156 0.0
C3059 C 0.61404 0.79687 0.42061 0.0
C3060 C 0.62415 0.78822 0.43236 0.0
C3061 C 0.62965 0.77296 0.42508 0.0
C3062 C 0.62501 0.76629 0.40605 0.0
C3063 C 0.65507 0.78465 0.31349 0.0
C3064 C 0.66969 0.77652 0.31711 0.0
C3065 C 0.63912 0.77922 0.32129 0.0
C3066 C 0.63753 0.76578 0.33324 0.0
C3067 C 0.65173 0.75691 0.33606 0.0
C3068 C 0.66751 0.76195 0.32769 0.0
C3069 C 0.62174 0.76247 0.34392 0.0
C3070 C 0.62474 0.76725 0.36346 0.0
C3071 C 0.60374 0.75723 0.33476 0.0
C3072 C 0.59965 0.75076 0.31438 0.0
C3073 C 0.60679 0.73664 0.30662 0.0
C3074 C 0.60273 0.73042 0.28746 0.0
C3075 C 0.5915 0.73817 0.27591 0.0
C3076 C 0.58429 0.75215 0.28352 0.0
C3077 C 0.58829 0.75841 0.30268 0.0
H3078 H 0.58837 0.73332 0.26109 0.0
H3079 H 0.62779 0.79339 0.44708 0.0
H3080 H 0.03064 0.23616 0.36512 0.0
H3081 H 0.03028 0.20774 0.37849 0.0
H3082 H 0.0414 0.23723 0.43414 0.0
H3083 H 0.0413 0.26536 0.42091 0.0
H3084 H 0.06218 0.21185 0.42918 0.0
H3085 H 1.00064 0.2162 0.41936 0.0
H3086 H 0.97172 0.21867 0.40236 0.0
H3087 H 0.96863 0.1691 0.36712 0.0
H3088 H 0.99773 0.16649 0.38371 0.0
H3089 H 0.03056 0.14564 0.48855 0.0
H3090 H 0.04001 0.17125 0.47134 0.0
H3091 H 0.02205 0.13605 0.41908 0.0
H3092 H 0.01237 0.11053 0.43639 0.0
H3093 H 0.00613 0.16334 0.42004 0.0
H3094 H 0.06788 0.15866 0.43315 0.0
H3095 H 0.09625 0.15724 0.45212 0.0
H3096 H 0.09798 0.20848 0.48357 0.0
H3097 H 0.0695 0.2101 0.46497 0.0
C3098 C 0.03342 0.23654 0.38016 0.0
C3099 C 0.03624 0.25293 0.392 0.0
C3100 C 0.033 0.22033 0.38779 0.0
C3101 C 0.03573 0.22036 0.40733 0.0
C3102 C 0.03929 0.23686 0.41906 0.0
C3103 C 0.03931 0.25293 0.41148 0.0
C3104 C 0.03467 0.2033 0.41577 0.0
C3105 C 0.04991 0.20123 0.42725 0.0
C3106 C 0.0187 0.1894 0.41308 0.0
C3107 C 0.00158 0.19134 0.40255 0.0
C3108 C 0.99398 0.20599 0.40777 0.0
C3109 C 0.9775 0.20737 0.39826 0.0
C3110 C 0.96839 0.1941 0.3836 0.0
C3111 C 0.97575 0.17942 0.37842 0.0
C3112 C 0.99224 0.17799 0.38786 0.0
C3113 C 0.02945 0.14326 0.47342 0.0
C3114 C 0.02107 0.12608 0.46378 0.0
C3115 C 0.03477 0.15792 0.46355 0.0
C3116 C 0.03176 0.15566 0.44384 0.0
C3117 C 0.02453 0.13818 0.43425 0.0
C3118 C 0.01921 0.12355 0.44413 0.0
C3119 C 0.03376 0.17169 0.4334 0.0
C3120 C 0.01857 0.17371 0.42168 0.0
C3121 C 0.04969 0.18568 0.43612 0.0
C3122 C 0.06645 0.1844 0.44778 0.0
C3123 C 0.07419 0.16951 0.44427 0.0
C3124 C 0.09033 0.16871 0.45492 0.0
C3125 C 0.09889 0.18274 0.46907 0.0
C3126 C 0.09132 0.19761 0.47263 0.0
C3127 C 0.07519 0.19848 0.46203 0.0
H3128 H 0.11141 0.18211 0.47726 0.0
H3129 H 0.9556 0.19516 0.37631 0.0
H3130 H 0.56954 0.25212 0.242 0.0
H3131 H 0.60248 0.25682 0.24966 0.0
H3132 H 0.60852 0.26158 0.19187 0.0
H3133 H 0.57565 0.25757 0.18427 0.0
H3134 H 0.62726 0.23643 0.20834 0.0
H3135 H 0.62297 0.29775 0.22011 0.0
H3136 H 0.61142 0.32313 0.23384 0.0
H3137 H 0.62995 0.31335 0.28914 0.0
H3138 H 0.64139 0.28772 0.27573 0.0
H3139 H 0.72529 0.26641 0.22184 0.0
H3140 H 0.69283 0.26439 0.21292 0.0
H3141 H 0.68402 0.26096 0.27027 0.0
H3142 H 0.71622 0.26225 0.2791 0.0
H3143 H 0.66685 0.28638 0.25322 0.0
H3144 H 0.66888 0.22447 0.24261 0.0
H3145 H 0.67585 0.19594 0.23017 0.0
H3146 H 0.66042 0.20548 0.174 0.0
H3147 H 0.65307 0.23402 0.1861 0.0
C3148 C 0.57788 0.25449 0.23096 0.0
C3149 C 0.56981 0.25465 0.21253 0.0
C3150 C 0.59679 0.25716 0.23537 0.0
C3151 C 0.60819 0.25958 0.22139 0.0
C3152 C 0.60017 0.2598 0.20298 0.0
C3153 C 0.58131 0.25764 0.19866 0.0
C3154 C 0.62829 0.26116 0.22588 0.0
C3155 C 0.63597 0.24757 0.21786 0.0
C3156 C 0.63973 0.27534 0.23876 0.0
C3157 C 0.63284 0.29068 0.24692 0.0
C3158 C 0.62441 0.30089 0.23521 0.0
C3159 C 0.61793 0.31535 0.24293 0.0
C3160 C 0.6199 0.31981 0.26236 0.0
C3161 C 0.6284 0.30985 0.2741 0.0
C3162 C 0.63491 0.29536 0.26644 0.0
C3163 C 0.71644 0.26519 0.23256 0.0
C3164 C 0.7235 0.26451 0.25123 0.0
C3165 C 0.69781 0.26397 0.22742 0.0
C3166 C 0.68576 0.26252 0.24088 0.0
C3167 C 0.69286 0.26208 0.25956 0.0
C3168 C 0.71136 0.26279 0.26459 0.0
C3169 C 0.66587 0.26164 0.23559 0.0
C3170 C 0.65822 0.27534 0.24351 0.0
C3171 C 0.6544 0.2475 0.22268 0.0
C3172 C 0.66069 0.23151 0.21525 0.0
C3173 C 0.66734 0.22069 0.22759 0.0
C3174 C 0.67125 0.20446 0.22061 0.0
C3175 C 0.66868 0.19895 0.20132 0.0
C3176 C 0.66241 0.20978 0.18894 0.0
C3177 C 0.65833 0.22596 0.19585 0.0
H3178 H 0.67143 0.18622 0.19598 0.0
H3179 H 0.61487 0.33102 0.26831 0.0
H3180 H 0.53671 0.86163 0.86927 0.0
H3181 H 0.53448 0.89076 0.88568 0.0
H3182 H 0.55063 0.87372 0.93858 0.0
H3183 H 0.55268 0.84482 0.9223 0.0
H3184 H 0.52077 0.8861 0.94011 0.0
H3185 H 0.57839 0.90674 0.91863 0.0
H3186 H 0.59856 0.91112 0.89436 0.0
H3187 H 0.56561 0.94263 0.86757 0.0
H3188 H 0.54505 0.93815 0.89149 0.0
H3189 H 0.52902 0.96489 0.00272 0.0
H3190 H 0.53363 0.93868 0.98418 0.0
H3191 H 0.52972 0.96531 0.93472 0.0
H3192 H 0.52759 0.99264 0.95398 0.0
H3193 H 0.55146 0.94752 0.92944 0.0
H3194 H 0.49362 0.92759 0.95045 0.0
H3195 H 0.47202 0.92201 0.97328 0.0
H3196 H 0.50289 0.88832 -0.00063 0.0
H3197 H 0.52479 0.89388 0.97686 0.0
C3198 C 0.54061 0.86448 0.88431 0.0
C3199 C 0.54541 0.85108 0.89443 0.0
C3200 C 0.53906 0.88105 0.89375 0.0
C3201 C 0.54232 0.88456 0.9135 0.0
C3202 C 0.54795 0.87147 0.92342 0.0
C3203 C 0.54944 0.85502 0.91405 0.0
C3204 C 0.53919 0.90136 0.92408 0.0
C3205 C 0.52759 0.89955 0.93789 0.0
C3206 C 0.54754 0.91898 0.92087 0.0
C3207 C 0.5601 0.92197 0.90674 0.0
C3208 C 0.57539 0.91451 0.90749 0.0
C3209 C 0.58689 0.91701 0.8938 0.0
C3210 C 0.58334 0.92711 0.8794 0.0
C3211 C 0.56832 0.93479 0.87871 0.0
C3212 C 0.55674 0.93227 0.89233 0.0
C3213 C 0.52917 0.96538 0.98802 0.0
C3214 C 0.52738 0.98106 0.98013 0.0
C3215 C 0.53153 0.95001 0.97715 0.0
C3216 C 0.53121 0.9493 0.95762 0.0
C3217 C 0.52979 0.96508 0.94964 0.0
C3218 C 0.52829 0.9808 0.96075 0.0
C3219 C 0.533 0.93245 0.94574 0.0
C3220 C 0.54438 0.93417 0.93166 0.0
C3221 C 0.52418 0.91469 0.94853 0.0
C3222 C 0.51093 0.91128 0.96203 0.0
C3223 C 0.49585 0.91907 0.96111 0.0
C3224 C 0.48355 0.9159 0.97399 0.0
C3225 C 0.48611 0.90485 0.98778 0.0
C3226 C 0.50094 0.8969 0.98869 0.0
C3227 C 0.51328 0.90004 0.97586 0.0
H3228 H 0.47658 0.90242 -0.00226 0.0
H3229 H 0.59226 0.92902 0.86881 0.0
H3230 H 0.97341 0.75157 0.73834 0.0
H3231 H 0.9447 0.75654 0.747 0.0
H3232 H 0.92217 0.7475 0.68858 0.0
H3233 H 0.95158 0.74433 0.67999 0.0
H3234 H 0.90687 0.76926 0.70165 0.0
H3235 H 0.91341 0.71503 0.72624 0.0
H3236 H 0.92816 0.69538 0.74446 0.0
H3237 H 0.9297 0.73047 0.79514 0.0
H3238 H 0.91511 0.75042 0.7772 0.0
H3239 H 0.81462 0.75153 0.72106 0.0
H3240 H 0.84399 0.74839 0.71257 0.0
H3241 H 0.86974 0.77419 0.76744 0.0
H3242 H 0.84029 0.77747 0.77603 0.0
H3243 H 0.8826 0.74363 0.75622 0.0
H3244 H 0.87341 0.79656 0.72902 0.0
H3245 H 0.85681 0.81353 0.70908 0.0
H3246 H 0.85782 0.77649 0.66066 0.0
H3247 H 0.87419 0.75912 0.68036 0.0
C3248 C 0.96238 0.7508 0.72732 0.0
C3249 C 0.96499 0.7476 0.70843 0.0
C3250 C 0.94566 0.75336 0.7323 0.0
C3251 C 0.9305 0.75185 0.71864 0.0
C3252 C 0.93326 0.74879 0.69968 0.0
C3253 C 0.95022 0.74693 0.69468 0.0
C3254 C 0.91205 0.75369 0.72399 0.0
C3255 C 0.90161 0.76331 0.71344 0.0
C3256 C 0.90465 0.74631 0.73952 0.0
C3257 C 0.91332 0.7343 0.75035 0.0
C3258 C 0.91697 0.71859 0.74126 0.0
C3259 C 0.9253 0.7074 0.75153 0.0
C3260 C 0.92991 0.7117 0.77093 0.0
C3261 C 0.92614 0.72717 0.78011 0.0
C3262 C 0.91782 0.73841 0.7699 0.0
C3263 C 0.82648 0.75662 0.7314 0.0
C3264 C 0.8248 0.76482 0.74932 0.0
C3265 C 0.84343 0.75484 0.72645 0.0
C3266 C 0.85943 0.7611 0.73923 0.0
C3267 C 0.8578 0.76918 0.75719 0.0
C3268 C 0.84083 0.77114 0.7621 0.0
C3269 C 0.87769 0.75911 0.73389 0.0
C3270 C 0.888 0.74946 0.74442 0.0
C3271 C 0.88471 0.76599 0.71804 0.0
C3272 C 0.8749 0.77645 0.7062 0.0
C3273 C 0.86997 0.79195 0.71414 0.0
C3274 C 0.86062 0.80166 0.70288 0.0
C3275 C 0.85624 0.79608 0.68362 0.0
C3276 C 0.86121 0.78079 0.67558 0.0
C3277 C 0.87054 0.77101 0.68679 0.0
H3278 H 0.84901 0.80362 0.67492 0.0
H3279 H 0.93637 0.70303 0.77886 0.0
H3280 H 0.09105 0.99832 0.82187 0.0
H3281 H 0.08107 0.99486 0.85281 0.0
H3282 H 0.10258 0.05183 0.87045 0.0
H3283 H 0.11207 0.05533 0.83963 0.0
H3284 H 0.10928 0.03129 0.89868 0.0
H3285 H 0.06045 0.03921 0.85617 0.0
H3286 H 0.03871 0.03313 0.82721 0.0
H3287 H 0.01659 0.97995 0.84014 0.0
H3288 H 0.03845 0.98562 0.86905 0.0
H3289 H 0.0491 0.04937 0.96638 0.0
H3290 H 0.06216 0.04898 0.93682 0.0
H3291 H 0.05843 0.99177 0.93536 0.0
H3292 H 0.04644 0.99239 0.96557 0.0
H3293 H 0.04318 0.01123 0.89953 0.0
H3294 H 0.09399 0.00615 0.94439 0.0
H3295 H 0.11477 0.01617 0.97392 0.0
H3296 H 0.13247 0.06841 0.95662 0.0
H3297 H 0.11138 0.05884 0.92717 0.0
C3298 C 0.09391 0.00996 0.83253 0.0
C3299 C 0.10227 0.02708 0.82847 0.0
C3300 C 0.08816 0.00803 0.85012 0.0
C3301 C 0.09099 0.02314 0.8639 0.0
C3302 C 0.10027 0.04001 0.86009 0.0
C3303 C 0.10565 0.04199 0.84249 0.0
C3304 C 0.08323 0.02179 0.88178 0.0
C3305 C 0.09484 0.02684 0.89884 0.0
C3306 C 0.06436 0.01626 0.88204 0.0
C3307 C 0.05128 0.01273 0.86462 0.0
C3308 C 0.0511 0.02613 0.85272 0.0
C3309 C 0.03873 0.02278 0.83634 0.0
C3310 C 0.02632 0.00614 0.8318 0.0
C3311 C 0.02625 0.99282 0.84365 0.0
C3312 C 0.03863 0.99609 0.86004 0.0
C3313 C 0.05123 0.03678 0.95976 0.0
C3314 C 0.04714 0.02097 0.96825 0.0
C3315 C 0.05862 0.03655 0.94293 0.0
C3316 C 0.06134 0.02036 0.93403 0.0
C3317 C 0.05658 0.00441 0.94216 0.0
C3318 C 0.04983 0.00477 0.95936 0.0
C3319 C 0.06927 0.0202 0.91629 0.0
C3320 C 0.05765 0.01522 0.8993 0.0
C3321 C 0.08808 0.02613 0.91609 0.0
C3322 C 0.10088 0.03186 0.93371 0.0
C3323 C 0.10209 0.01986 0.947 0.0
C3324 C 0.11396 0.02545 0.96371 0.0
C3325 C 0.12487 0.04294 0.96718 0.0
C3326 C 0.12396 0.05488 0.95393 0.0
C3327 C 0.11203 0.04939 0.93724 0.0
H3328 H 0.13409 0.04723 0.98011 0.0
H3329 H 0.01673 0.00357 0.81913 0.0
H3330 H 0.81646 0.38346 0.54317 0.0
H3331 H 0.81455 0.38116 0.57622 0.0
H3332 H 0.75645 0.37198 0.56538 0.0
H3333 H 0.75835 0.37499 0.53225 0.0
H3334 H 0.77214 0.38683 0.60377 0.0
H3335 H 0.7726 0.338 0.55549 0.0
H3336 H 0.78497 0.32419 0.52912 0.0
H3337 H 0.83491 0.32834 0.56459 0.0
H3338 H 0.82305 0.34271 0.59103 0.0
H3339 H 0.77278 0.30823 0.66201 0.0
H3340 H 0.76261 0.32656 0.63884 0.0
H3341 H 0.81627 0.36095 0.64626 0.0
H3342 H 0.82651 0.34253 0.66902 0.0
H3343 H 0.79561 0.33165 0.60918 0.0
H3344 H 0.79693 0.38456 0.6555 0.0
H3345 H 0.78548 0.40006 0.68152 0.0
H3346 H 0.73232 0.38715 0.65009 0.0
H3347 H 0.74347 0.37142 0.62394 0.0
C3348 C 0.80334 0.38164 0.548 0.0
C3349 C 0.78744 0.3786 0.5353 0.0
C3350 C 0.80229 0.38053 0.56685 0.0
C3351 C 0.78532 0.37579 0.5729 0.0
C3352 C 0.76961 0.37544 0.56077 0.0
C3353 C 0.7707 0.37697 0.5419 0.0
C3354 C 0.78391 0.36688 0.58981 0.0
C3355 C 0.7771 0.37469 0.60498 0.0
C3356 C 0.79007 0.35081 0.59104 0.0
C3357 C 0.79697 0.34162 0.57521 0.0
C3358 C 0.78626 0.33611 0.55764 0.0
C3359 C 0.7932 0.32819 0.54267 0.0
C3360 C 0.81073 0.32543 0.54516 0.0
C3361 C 0.82135 0.33053 0.56266 0.0
C3362 C 0.81453 0.33859 0.57763 0.0
C3363 C 0.7822 0.32001 0.65896 0.0
C3364 C 0.80047 0.3239 0.66677 0.0
C3365 C 0.77633 0.33057 0.64604 0.0
C3366 C 0.78865 0.34524 0.64125 0.0
C3367 C 0.80654 0.34988 0.65019 0.0
C3368 C 0.81245 0.33923 0.66284 0.0
C3369 C 0.78486 0.35217 0.62354 0.0
C3370 C 0.79042 0.34368 0.60794 0.0
C3371 C 0.77766 0.36754 0.62204 0.0
C3372 C 0.77095 0.37651 0.63796 0.0
C3373 C 0.78275 0.38476 0.65427 0.0
C3374 C 0.77633 0.39369 0.66899 0.0
C3375 C 0.75816 0.39449 0.66751 0.0
C3376 C 0.74637 0.38644 0.65126 0.0
C3377 C 0.75273 0.37754 0.63649 0.0
H3378 H 0.75323 0.40141 0.67892 0.0
H3379 H 0.81607 0.3193 0.53356 0.0
H3380 H 0.39861 0.98147 0.34455 0.0
H3381 H 0.41604 0.98643 0.37525 0.0
H3382 H 0.42585 0.0442 0.3747 0.0
H3383 H 0.40933 0.03922 0.34307 0.0
H3384 H 0.45681 0.03167 0.37703 0.0
H3385 H 0.40289 0.02374 0.40772 0.0
H3386 H 0.37152 0.00696 0.40784 0.0
H3387 H 0.38999 0.95872 0.41564 0.0
H3388 H 0.42145 0.97515 0.41528 0.0
H3389 H 0.50038 0.05005 0.47202 0.0
H3390 H 0.48123 0.04821 0.44207 0.0
H3391 H 0.47975 0.99129 0.43082 0.0
H3392 H 0.49938 0.99319 0.46031 0.0
H3393 H 0.44518 0.00406 0.4349 0.0
H3394 H 0.49692 0.0089 0.4032 0.0
H3395 H 0.52877 0.02255 0.40104 0.0
H3396 H 0.51522 0.07317 0.39338 0.0
H3397 H 0.48329 0.05994 0.39601 0.0
C3398 C 0.40391 0.99524 0.35125 0.0
C3399 C 0.4036 0.00997 0.34135 0.0
C3400 C 0.41375 0.99807 0.36883 0.0
C3401 C 0.42235 0.01569 0.37692 0.0
C3402 C 0.4194 0.03055 0.36833 0.0
C3403 C 0.40985 0.02768 0.35046 0.0
C3404 C 0.43652 0.01815 0.39267 0.0
C3405 C 0.45427 0.0261 0.38992 0.0
C3406 C 0.43307 0.00996 0.40886 0.0
C3407 C 0.41453 0.00071 0.41156 0.0
C3408 C 0.40027 0.00961 0.40968 0.0
C3409 C 0.38247 1.00013 0.40967 0.0
C3410 C 0.37877 0.98178 0.41175 0.0
C3411 C 0.39289 0.97294 0.41409 0.0
C3412 C 0.41072 0.98235 0.41408 0.0
C3413 C 0.49628 0.03735 0.4628 0.0
C3414 C 0.50089 0.02173 0.46809 0.0
C3415 C 0.48554 0.03632 0.44591 0.0
C3416 C 0.47926 0.0196 0.43474 0.0
C3417 C 0.48472 0.00421 0.43953 0.0
C3418 C 0.49585 0.00534 0.45615 0.0
C3419 C 0.46518 0.01789 0.41935 0.0
C3420 C 0.44758 0.00995 0.42213 0.0
C3421 C 0.46882 0.0258 0.40314 0.0
C3422 C 0.48769 0.03346 0.39995 0.0
C3423 C 0.50071 0.02297 0.4011 0.0
C3424 C 0.5188 0.03063 0.39983 0.0
C3425 C 0.52402 0.04873 0.39711 0.0
C3426 C 0.51114 0.05915 0.3955 0.0
C3427 C 0.49303 0.05157 0.39687 0.0
H3428 H 0.53805 0.05468 0.39624 0.0
H3429 H 0.36495 0.97442 0.41153 0.0
H3430 H 0.74278 0.68688 0.06302 0.0
H3431 H 0.74636 0.69647 0.09667 0.0
H3432 H 0.80042 0.72715 0.09465 0.0
H3433 H 0.79712 0.71655 0.0608 0.0
H3434 H 0.79885 0.71225 0.12678 0.0
H3435 H 0.76353 0.74745 0.09411 0.0
H3436 H 0.73856 0.7511 0.07129 0.0
H3437 H 0.6999 0.72131 0.10192 0.0
H3438 H 0.72464 0.71728 0.1248 0.0
H3439 H 0.80216 0.76781 0.21351 0.0
H3440 H 0.80254 0.75643 0.18079 0.0
H3441 H 0.74821 0.72442 0.17806 0.0
H3442 H 0.74779 0.73577 0.2107 0.0
H3443 H 0.75111 0.74109 0.14814 0.0
H3444 H 0.78612 0.70675 0.1816 0.0
H3445 H 0.81085 0.70168 0.20376 0.0
H3446 H 0.8499 0.72825 0.17145 0.0
H3447 H 0.82549 0.73423 0.14958 0.0
C3448 C 0.75549 0.69556 0.0698 0.0
C3449 C 0.76959 0.70122 0.05935 0.0
C3450 C 0.75751 0.7011 0.08903 0.0
C3451 C 0.77346 0.71301 0.09819 0.0
C3452 C 0.78792 0.7181 0.0879 0.0
C3453 C 0.78604 0.71212 0.06859 0.0
C3454 C 0.77446 0.72068 0.1182 0.0
C3455 C 0.7886 0.71884 0.13143 0.0
C3456 C 0.76085 0.72893 0.12439 0.0
C3457 C 0.74594 0.732 0.11111 0.0
C3458 C 0.7497 0.74167 0.09596 0.0
C3459 C 0.73559 0.74378 0.08301 0.0
C3460 C 0.71766 0.73642 0.08514 0.0
C3461 C 0.71379 0.72701 0.10029 0.0
C3462 C 0.72785 0.72484 0.11328 0.0
C3463 C 0.79029 0.75832 0.20596 0.0
C3464 C 0.77481 0.7529 0.21471 0.0
C3465 C 0.79056 0.75175 0.18724 0.0
C3466 C 0.77545 0.73945 0.1769 0.0
C3467 C 0.76003 0.73395 0.18566 0.0
C3468 C 0.75976 0.74053 0.20435 0.0
C3469 C 0.77546 0.7326 0.15685 0.0
C3470 C 0.76147 0.73462 0.14356 0.0
C3471 C 0.78921 0.72451 0.15069 0.0
C3472 C 0.80394 0.72114 0.16404 0.0
C3473 C 0.79999 0.71179 0.17938 0.0
C3474 C 0.81396 0.70878 0.19192 0.0
C3475 C 0.83194 0.71477 0.1891 0.0
C3476 C 0.83599 0.7238 0.17375 0.0
C3477 C 0.82209 0.72704 0.1613 0.0
H3478 H 0.84273 0.71227 0.1987 0.0
H3479 H 0.70676 0.73802 0.07506 0.0
H3480 H 0.06723 0.03005 0.72563 0.0
H3481 H 0.05771 0.02813 0.69214 0.0
H3482 H 0.10771 0.01478 0.68057 0.0
H3483 H 0.11749 0.01682 0.71438 0.0
H3484 H 0.09936 0.04182 0.66055 0.0
H3485 H 0.06985 0.98264 0.67058 0.0
H3486 H 0.0516 0.9605 0.68739 0.0
H3487 H 0.00606 0.98405 0.67608 0.0
H3488 H 0.02412 0.0065 0.65938 0.0
H3489 H 0.0691 0.01759 0.5627 0.0
H3490 H 0.07995 0.01716 0.59552 0.0
H3491 H 0.0325 0.03309 0.61168 0.0
H3492 H 0.02146 0.03367 0.57864 0.0
H3493 H 0.04064 0.00361 0.62884 0.0
H3494 H 0.07074 0.06301 0.61872 0.0
H3495 H 0.0895 0.08528 0.60248 0.0
H3496 H 0.13454 0.0611 0.61395 0.0
H3497 H 0.11598 0.03846 0.63003 0.0
C3498 C 0.07613 0.02641 0.716 0.0
C3499 C 0.09311 0.02352 0.72272 0.0
C3500 C 0.07065 0.02534 0.69681 0.0
C3501 C 0.08196 0.02129 0.6838 0.0
C3502 C 0.09877 0.01795 0.69037 0.0
C3503 C 0.10425 0.01892 0.70967 0.0
C3504 C 0.07618 0.02106 0.66345 0.0
C3505 C 0.0867 0.03323 0.65351 0.0
C3506 C 0.05947 0.01014 0.65435 0.0
C3507 C 0.04836 0.99631 0.66382 0.0
C3508 C 0.05595 0.98314 0.67173 0.0
C3509 C 0.04565 0.97053 0.68123 0.0
C3510 C 0.02769 0.97089 0.68283 0.0
C3511 C 0.01997 0.98379 0.67483 0.0
C3512 C 0.03023 0.99644 0.6653 0.0
C3513 C 0.06093 0.02108 0.57318 0.0
C3514 C 0.04436 0.02565 0.568 0.0
C3515 C 0.06722 0.02087 0.59198 0.0
C3516 C 0.05708 0.02513 0.60606 0.0
C3517 C 0.04053 0.02973 0.60101 0.0
C3518 C 0.03428 0.03013 0.58215 0.0
C3519 C 0.06372 0.02449 0.626 0.0
C3520 C 0.05336 0.01213 0.63584 0.0
C3521 C 0.08063 0.03517 0.63493 0.0
C3522 C 0.09189 0.0489 0.62542 0.0
C3523 C 0.0846 0.06232 0.61764 0.0
C3524 C 0.0952 0.07503 0.60847 0.0
C3525 C 0.11317 0.07456 0.60711 0.0
C3526 C 0.1206 0.06142 0.61498 0.0
C3527 C 0.11005 0.04865 0.62414 0.0
H3528 H 0.12135 0.08442 0.60001 0.0
H3529 H 0.01974 0.96115 0.69025 0.0
H3530 H 0.81327 0.38889 0.45022 0.0
H3531 H 0.81173 0.37099 0.42006 0.0
H3532 H 0.75648 0.37479 0.40557 0.0
H3533 H 0.75789 0.39269 0.43602 0.0
H3534 H 0.76223 0.33916 0.40412 0.0
H3535 H 0.7862 0.39581 0.38335 0.0
H3536 H 0.80736 0.42552 0.38603 0.0
H3537 H 0.85166 0.39974 0.38212 0.0
H3538 H 0.83082 0.36986 0.37992 0.0
H3539 H 0.7537 0.3008 0.30988 0.0
H3540 H 0.75487 0.32048 0.33887 0.0
H3541 H 0.8091 0.31526 0.35661 0.0
H3542 H 0.80793 0.29519 0.32751 0.0
H3543 H 0.80319 0.35158 0.35601 0.0
H3544 H 0.78161 0.29635 0.38059 0.0
H3545 H 0.76217 0.26605 0.38035 0.0
H3546 H 0.71519 0.28837 0.37775 0.0
H3547 H 0.7344 0.31887 0.37805 0.0
C3548 C 0.80101 0.38639 0.44032 0.0
C3549 C 0.78565 0.39196 0.44515 0.0
C3550 C 0.80014 0.37619 0.42324 0.0
C3551 C 0.78399 0.37172 0.41089 0.0
C3552 C 0.769 0.37829 0.41515 0.0
C3553 C 0.76988 0.38861 0.43228 0.0
C3554 C 0.78254 0.35896 0.39425 0.0
C3555 C 0.77086 0.34193 0.39333 0.0
C3556 C 0.79444 0.36262 0.38088 0.0
C3557 C 0.80693 0.38057 0.38155 0.0
C3558 C 0.80046 0.39646 0.38317 0.0
C3559 C 0.81241 0.41334 0.38463 0.0
C3560 C 0.83084 0.41452 0.38425 0.0
C3561 C 0.83737 0.39881 0.38241 0.0
C3562 C 0.82549 0.38189 0.38105 0.0
C3563 C 0.76582 0.3038 0.32003 0.0
C3564 C 0.7808 0.29676 0.31675 0.0
C3565 C 0.76639 0.31483 0.33651 0.0
C3566 C 0.78199 0.31897 0.34961 0.0
C3567 C 0.79696 0.31188 0.34648 0.0
C3568 C 0.79628 0.30055 0.33006 0.0
C3569 C 0.78295 0.33187 0.36594 0.0
C3570 C 0.79449 0.34889 0.36675 0.0
C3571 C 0.77108 0.32815 0.3793 0.0
C3572 C 0.75943 0.30988 0.37922 0.0
C3573 C 0.76712 0.29479 0.37987 0.0
C3574 C 0.75615 0.27759 0.3798 0.0
C3575 C 0.73745 0.27528 0.37897 0.0
C3576 C 0.72969 0.29019 0.37838 0.0
C3577 C 0.74062 0.30745 0.37859 0.0
H3578 H 0.72897 0.26193 0.37882 0.0
H3579 H 0.84006 0.4276 0.38534 0.0
H3580 H 0.39268 0.98712 0.22679 0.0
H3581 H 0.39785 0.99287 0.19504 0.0
H3582 H 0.44355 0.03672 0.21784 0.0
H3583 H 0.43768 0.03168 0.2495 0.0
H3584 H 0.42964 0.04338 0.18614 0.0
H3585 H 0.44746 0.99344 0.21116 0.0
H3586 H 0.44301 0.96497 0.22504 0.0
H3587 H 0.40772 0.93741 0.17554 0.0
H3588 H 0.41158 0.96586 0.16153 0.0
H3589 H 0.49772 0.01265 0.13361 0.0
H3590 H 0.48063 0.02492 0.15651 0.0
H3591 H 0.43169 0.00641 0.11734 0.0
H3592 H 0.44866 0.99441 0.09439 0.0
H3593 H 0.44251 0.98815 0.15371 0.0
H3594 H 0.43405 0.0436 0.12881 0.0
H3595 H 0.44434 0.07414 0.12009 0.0
H3596 H 0.47251 0.09269 0.17566 0.0
H3597 H 0.46259 0.06226 0.18463 0.0
C3598 C 0.40362 0.99814 0.22488 0.0
C3599 C 0.41527 0.00863 0.24022 0.0
C3600 C 0.4064 0.00154 0.20688 0.0
C3601 C 0.42131 0.01489 0.20427 0.0
C3602 C 0.432 0.02633 0.21967 0.0
C3603 C 0.42886 0.02329 0.23766 0.0
C3604 C 0.42786 0.01488 0.18612 0.0
C3605 C 0.43236 0.03132 0.17889 0.0
C3606 C 0.43169 0.9991 0.17712 0.0
C3607 C 0.42955 0.98187 0.18542 0.0
C3608 C 0.43861 0.98135 0.20329 0.0
C3609 C 0.43619 0.96522 0.21119 0.0
C3610 C 0.42502 0.94941 0.20121 0.0
C3611 C 0.41629 0.94969 0.18329 0.0
C3612 C 0.41855 0.96583 0.17538 0.0
C3613 C 0.48341 0.01169 0.12982 0.0
C3614 C 0.47427 0.00226 0.11263 0.0
C3615 C 0.4738 0.01901 0.14264 0.0
C3616 C 0.45505 0.01668 0.13834 0.0
C3617 C 0.44624 0.00864 0.12058 0.0
C3618 C 0.45586 0.00155 0.10769 0.0
C3619 C 0.44436 0.01669 0.15374 0.0
C3620 C 0.43926 1.00012 0.16058 0.0
C3621 C 0.44118 0.03256 0.16303 0.0
C3622 C 0.44772 0.0506 0.15731 0.0
C3623 C 0.44265 0.05413 0.13907 0.0
C3624 C 0.44835 0.07145 0.13412 0.0
C3625 C 0.45911 0.08533 0.14729 0.0
C3626 C 0.46421 0.08193 0.16545 0.0
C3627 C 0.45854 0.06466 0.17047 0.0
H3628 H 0.46345 0.09874 0.14344 0.0
H3629 H 0.42317 0.93692 0.20734 0.0
H3630 H 0.79609 0.70109 0.95769 0.0
H3631 H 0.80012 0.71007 0.92641 0.0
H3632 H 0.7425 0.70349 0.91337 0.0
H3633 H 0.7385 0.69518 0.94456 0.0
H3634 H 0.75882 0.68939 0.88324 0.0
H3635 H 0.76442 0.74275 0.92629 0.0
H3636 H 0.7767 0.76385 0.95515 0.0
H3637 H 0.8296 0.77308 0.93812 0.0
H3638 H 0.81767 0.75168 0.90929 0.0
H3639 H 0.74851 0.75102 0.81549 0.0
H3640 H 0.7485 0.73767 0.84497 0.0
H3641 H 0.80421 0.73526 0.844 0.0
H3642 H 0.80393 0.74772 0.81396 0.0
H3643 H 0.79107 0.7526 0.88048 0.0
H3644 H 0.78297 0.69991 0.8348 0.0
H3645 H 0.76837 0.67987 0.80586 0.0
H3646 H 0.7177 0.67035 0.82774 0.0
H3647 H 0.73192 0.69074 0.85665 0.0
C3648 C 0.78434 0.70152 0.94807 0.0
C3649 C 0.76703 0.69775 0.95363 0.0
C3650 C 0.78662 0.70658 0.93024 0.0
C3651 C 0.77158 0.70745 0.91758 0.0
C3652 C 0.75426 0.70288 0.92287 0.0
C3653 C 0.75204 0.69831 0.94077 0.0
C3654 C 0.77381 0.71444 0.89936 0.0
C3655 C 0.76589 0.70319 0.88262 0.0
C3656 C 0.783 0.73246 0.89856 0.0
C3657 C 0.79022 0.7454 0.91579 0.0
C3658 C 0.77871 0.74911 0.9288 0.0
C3659 C 0.7856 0.76114 0.94513 0.0
C3660 C 0.80394 0.76974 0.94851 0.0
C3661 C 0.81541 0.76635 0.93551 0.0
C3662 C 0.8086 0.75426 0.91918 0.0
C3663 C 0.76071 0.74758 0.82162 0.0
C3664 C 0.77618 0.7502 0.81254 0.0
C3665 C 0.76069 0.73996 0.83836 0.0
C3666 C 0.77634 0.73544 0.84657 0.0
C3667 C 0.79199 0.73857 0.83779 0.0
C3668 C 0.79181 0.7456 0.82069 0.0
C3669 C 0.77628 0.72751 0.8644 0.0
C3670 C 0.78438 0.73868 0.88108 0.0
C3671 C 0.76705 0.70949 0.86512 0.0
C3672 C 0.75847 0.69709 0.84781 0.0
C3673 C 0.76866 0.69376 0.83335 0.0
C3674 C 0.76046 0.6823 0.81696 0.0
C3675 C 0.7421 0.67389 0.81494 0.0
C3676 C 0.73192 0.67691 0.82931 0.0
C3677 C 0.74004 0.68843 0.8457 0.0
H3678 H 0.73578 0.665 0.80224 0.0
H3679 H 0.80925 0.77907 0.96115 0.0
H3680 H 0.81642 0.11377 0.05966 0.0
H3681 H 0.84493 0.10435 0.05987 0.0
H3682 H 0.82191 0.06528 0.01118 0.0
H3683 H 0.79332 0.07449 0.01086 0.0
H3684 H 0.83942 0.05175 0.03916 0.0
H3685 H 0.84776 0.10395 0.00631 0.0
H3686 H 0.84945 0.13589 0.00251 0.0
H3687 H 0.89315 0.15232 0.04781 0.0
H3688 H 0.8915 0.12043 0.05214 0.0
H3689 H 0.90294 0.03369 0.98238 0.0
H3690 H 0.8788 0.04144 -0.00128 0.0
H3691 H 0.91854 0.07352 0.0433 0.0
H3692 H 0.94281 0.0656 0.02685 0.0
H3693 H 0.89575 0.09233 0.02698 0.0
H3694 H 0.88772 0.03601 0.05438 0.0
H3695 H 0.88277 0.00315 0.05542 0.0
H3696 H 0.8358 0.99377 0.0141 0.0
H3697 H 0.84052 0.02649 0.01277 0.0
C3698 C 0.81741 0.10307 0.04907 0.0
C3699 C 0.80277 0.09481 0.03515 0.0
C3700 C 0.83368 0.09784 0.0492 0.0
C3701 C 0.83536 0.08434 0.03546 0.0
C3702 C 0.82066 0.07578 0.02187 0.0
C3703 C 0.8044 0.08097 0.02173 0.0
C3704 C 0.85233 0.07872 0.03519 0.0
C3705 C 0.85182 0.06056 0.03653 0.0
C3706 C 0.8684 0.09057 0.03229 0.0
C3707 C 0.86929 0.10978 0.02979 0.0
C3708 C 0.85757 0.11436 0.01565 0.0
C3709 C 0.85855 0.13246 0.01335 0.0
C3710 C 0.87134 0.14613 0.02497 0.0
C3711 C 0.8832 0.14171 0.03887 0.0
C3712 C 0.88224 0.12363 0.04126 0.0
C3713 C 0.90641 0.04217 0.9958 0.0
C3714 C 0.92448 0.04933 0.00338 0.0
C3715 C 0.8927 0.04637 0.00523 0.0
C3716 C 0.89697 0.05782 0.02231 0.0
C3717 C 0.91508 0.06448 0.03023 0.0
C3718 C 0.92883 0.0601 0.02085 0.0
C3719 C 0.88263 0.06498 0.03002 0.0
C3720 C 0.88361 0.08356 0.03022 0.0
C3721 C 0.86664 0.05339 0.03355 0.0
C3722 C 0.86458 0.03367 0.03341 0.0
C3723 C 0.8765 0.0269 0.04535 0.0
C3724 C 0.87367 0.00831 0.04605 0.0
C3725 C 0.859 0.99638 0.03482 0.0
C3726 C 0.84716 0.003 0.02279 0.0
C3727 C 0.84989 0.02156 0.02209 0.0
H3728 H 0.85679 0.982 0.03545 0.0
H3729 H 0.8721 0.16013 0.02315 0.0
H3730 H 0.32556 0.42309 0.01233 0.0
H3731 H 0.35409 0.44435 0.0098 0.0
H3732 H 0.38217 0.41966 0.05107 0.0
H3733 H 0.35393 0.39846 0.0535 0.0
H3734 H 0.39358 0.45581 0.05678 0.0
H3735 H 0.38241 0.40799 0.0059 0.0
H3736 H 0.36593 0.3881 0.97756 0.0
H3737 H 0.36838 0.43392 0.94752 0.0
H3738 H 0.38456 0.45417 0.97582 0.0
H3739 H 0.48491 0.47968 0.04028 0.0
H3740 H 0.45447 0.46296 0.04323 0.0
H3741 H 0.43196 0.49125 0.00148 0.0
H3742 H 0.46235 0.50778 -0.00182 0.0
H3743 H 0.41676 0.45524 0.99548 0.0
H3744 H 0.43059 0.50265 0.04789 0.0
H3745 H 0.44835 0.52064 0.07676 0.0
H3746 H 0.44242 0.47303 0.10431 0.0
H3747 H 0.42488 0.45469 0.07553 0.0
C3748 C 0.33778 0.42251 0.02113 0.0
C3749 C 0.33761 0.40915 0.03308 0.0
C3750 C 0.35406 0.43452 0.01955 0.0
C3751 C 0.37028 0.43341 0.03009 0.0
C3752 C 0.36985 0.42071 0.04276 0.0
C3753 C 0.35372 0.40861 0.04413 0.0
C3754 C 0.38791 0.44492 0.02759 0.0
C3755 C 0.39868 0.45565 0.04339 0.0
C3756 C 0.39447 0.44477 0.01006 0.0
C3757 C 0.38442 0.43265 0.99311 0.0
C3758 C 0.37921 0.41388 0.99334 0.0
C3759 C 0.36996 0.40252 0.97726 0.0
C3760 C 0.36603 0.40975 0.96077 0.0
C3761 C 0.37136 0.42835 0.96033 0.0
C3762 C 0.38055 0.43978 0.97639 0.0
C3763 C 0.47348 0.48237 0.03175 0.0
C3764 C 0.47603 0.4952 0.01915 0.0
C3765 C 0.45609 0.47286 0.03351 0.0
C3766 C 0.44093 0.47605 0.02276 0.0
C3767 C 0.44346 0.48866 0.00998 0.0
C3768 C 0.46084 0.49818 0.00822 0.0
C3769 C 0.42244 0.4661 0.0247 0.0
C3770 C 0.41154 0.45562 0.00881 0.0
C3771 C 0.41586 0.46621 0.04221 0.0
C3772 C 0.42653 0.47726 0.05949 0.0
C3773 C 0.4332 0.49598 0.06004 0.0
C3774 C 0.44321 0.50625 0.0764 0.0
C3775 C 0.44654 0.49798 0.09234 0.0
C3776 C 0.43985 0.47942 0.09196 0.0
C3777 C 0.42987 0.46908 0.07563 0.0
H3778 H 0.45426 0.50596 0.105 0.0
H3779 H 0.35891 0.40093 0.94833 0.0
H3780 H 0.36714 0.5458 0.77735 0.0
H3781 H 0.35398 0.57207 0.77547 0.0
H3782 H 0.39227 0.59318 0.73927 0.0
H3783 H 0.4055 0.56678 0.74095 0.0
H3784 H 0.38837 0.61908 0.76925 0.0
H3785 H 0.3509 0.57673 0.71927 0.0
H3786 H 0.33212 0.54686 0.70535 0.0
H3787 H 0.29537 0.55028 0.74559 0.0
H3788 H 0.31402 0.5801 0.75986 0.0
H3789 H 0.34214 0.69038 0.76683 0.0
H3790 H 0.35547 0.66609 0.7537 0.0
H3791 H 0.31728 0.6272 0.77718 0.0
H3792 H 0.30375 0.6512 0.78952 0.0
H3793 H 0.32322 0.61157 0.74662 0.0
H3794 H 0.36174 0.65004 0.79982 0.0
H3795 H 0.38099 0.67844 0.81697 0.0
H3796 H 0.41607 0.68124 0.77447 0.0
H3797 H 0.39684 0.65299 0.75691 0.0
C3798 C 0.37276 0.55597 0.76893 0.0
C3799 C 0.38734 0.55412 0.75924 0.0
C3800 C 0.36518 0.57097 0.76783 0.0
C3801 C 0.37204 0.58452 0.7571 0.0
C3802 C 0.38673 0.58286 0.74757 0.0
C3803 C 0.39422 0.56773 0.74851 0.0
C3804 C 0.36385 0.60041 0.75615 0.0
C3805 C 0.37423 0.61757 0.76392 0.0
C3806 C 0.34535 0.59836 0.74947 0.0
C3807 C 0.33388 0.58062 0.74065 0.0
C3808 C 0.33884 0.57108 0.72518 0.0
C3809 C 0.32821 0.55416 0.71723 0.0
C3810 C 0.31256 0.54667 0.72459 0.0
C3811 C 0.30748 0.55611 0.73988 0.0
C3812 C 0.31805 0.57304 0.74788 0.0
C3813 C 0.33624 0.67653 0.7685 0.0
C3814 C 0.32193 0.6726 0.77913 0.0
C3815 C 0.344 0.66268 0.76126 0.0
C3816 C 0.33772 0.64478 0.76484 0.0
C3817 C 0.32251 0.64081 0.77424 0.0
C3818 C 0.31473 0.65454 0.7813 0.0
C3819 C 0.34754 0.6303 0.76041 0.0
C3820 C 0.33748 0.6133 0.75157 0.0
C3821 C 0.36628 0.63247 0.76647 0.0
C3822 C 0.37769 0.64957 0.7769 0.0
C3823 C 0.37346 0.65681 0.79404 0.0
C3824 C 0.38438 0.67287 0.80385 0.0
C3825 C 0.3997 0.68169 0.79677 0.0
C3826 C 0.40415 0.67444 0.77989 0.0
C3827 C 0.39324 0.65842 0.76999 0.0
H3828 H 0.40816 0.6941 0.80441 0.0
H3829 H 0.30437 0.53356 0.71843 0.0
H3830 H 0.20896 0.62059 0.53119 0.0
H3831 H 0.1775 0.60691 0.51965 0.0
H3832 H 0.18406 0.55646 0.53805 0.0
H3833 H 0.21626 0.57031 0.54963 0.0
H3834 H 0.16233 0.5558 0.50047 0.0
H3835 H 0.16949 0.5804 0.56587 0.0
H3836 H 0.18184 0.60468 0.59211 0.0
H3837 H 0.15244 0.63939 0.56578 0.0
H3838 H 0.14029 0.61548 0.53908 0.0
H3839 H 0.07606 0.51414 0.51404 0.0
H3840 H 0.10749 0.52766 0.51245 0.0
H3841 H 0.09434 0.57938 0.50786 0.0
H3842 H 0.06295 0.56599 0.51114 0.0
H3843 H 0.11968 0.58158 0.5358 0.0
H3844 H 0.11047 0.55651 0.47151 0.0
H3845 H 0.09826 0.53238 0.44506 0.0
H3846 H 0.1311 0.4992 0.46892 0.0
H3847 H 0.14328 0.52298 0.49566 0.0
C3848 C 0.20372 0.60653 0.53266 0.0
C3849 C 0.21455 0.59643 0.54161 0.0
C3850 C 0.1859 0.59878 0.52598 0.0
C3851 C 0.17873 0.58093 0.52836 0.0
C3852 C 0.18969 0.57037 0.53631 0.0
C3853 C 0.2078 0.57819 0.54298 0.0
C3854 C 0.15937 0.57413 0.52388 0.0
C3855 C 0.15288 0.56117 0.50823 0.0
C3856 C 0.14749 0.58202 0.53377 0.0
C3857 C 0.15411 0.59615 0.55032 0.0
C3858 C 0.16575 0.59324 0.56557 0.0
C3859 C 0.17273 0.60695 0.58054 0.0
C3860 C 0.16797 0.62359 0.58059 0.0
C3861 C 0.15614 0.62651 0.56571 0.0
C3862 C 0.1492 0.61287 0.55064 0.0
C3863 C 0.07982 0.52823 0.51195 0.0
C3864 C 0.06728 0.53904 0.5122 0.0
C3865 C 0.0977 0.53592 0.51092 0.0
C3866 C 0.10308 0.55442 0.50964 0.0
C3867 C 0.09026 0.56501 0.50855 0.0
C3868 C 0.07234 0.55734 0.51004 0.0
C3869 C 0.12237 0.56285 0.5124 0.0
C3870 C 0.12899 0.57629 0.52778 0.0
C3871 C 0.13439 0.55549 0.5022 0.0
C3872 C 0.12783 0.54157 0.48558 0.0
C3873 C 0.11511 0.54408 0.4711 0.0
C3874 C 0.10816 0.53044 0.45607 0.0
C3875 C 0.11393 0.51428 0.4553 0.0
C3876 C 0.12669 0.51175 0.46951 0.0
C3877 C 0.13367 0.52532 0.48458 0.0
H3878 H 0.10852 0.50373 0.44367 0.0
H3879 H 0.17342 0.6342 0.59217 0.0
H3880 H 0.71456 0.00337 0.7733 0.0
H3881 H 0.72579 0.97595 0.77317 0.0
H3882 H 0.69724 0.95658 0.7175 0.0
H3883 H 0.68529 0.9838 0.71782 0.0
H3884 H 0.69262 0.93106 0.74127 0.0
H3885 H 0.74322 0.97304 0.72396 0.0
H3886 H 0.76422 0.00304 0.72858 0.0
H3887 H 0.78441 0.99427 0.78373 0.0
H3888 H 0.76339 0.96432 0.77954 0.0
H3889 H 0.73415 0.85667 0.75077 0.0
H3890 H 0.72628 0.88209 0.73606 0.0
H3891 H 0.75083 0.91822 0.78649 0.0
H3892 H 0.75861 0.89299 0.80101 0.0
H3893 H 0.75814 0.93397 0.75656 0.0
H3894 H 0.70669 0.89819 0.77879 0.0
H3895 H 0.68273 0.87133 0.78055 0.0
H3896 H 0.66166 0.87089 0.72301 0.0
H3897 H 0.68582 0.89751 0.72076 0.0
C3898 C 0.71087 0.9934 0.76094 0.0
C3899 C 0.69923 0.9957 0.74553 0.0
C3900 C 0.7173 0.97777 0.76086 0.0
C3901 C 0.71263 0.96451 0.74514 0.0
C3902 C 0.70108 0.9668 0.72965 0.0
C3903 C 0.69438 0.98233 0.72985 0.0
C3904 C 0.7195 0.94804 0.74534 0.0
C3905 C 0.70696 0.93149 0.74402 0.0
C3906 C 0.73818 0.94894 0.74943 0.0
C3907 C 0.75182 0.96636 0.75137 0.0
C3908 C 0.75223 0.97745 0.73702 0.0
C3909 C 0.76409 0.99449 0.73959 0.0
C3910 C 0.77567 0.00054 0.75642 0.0
C3911 C 0.77549 0.98953 0.77067 0.0
C3912 C 0.76366 0.9725 0.76818 0.0
C3913 C 0.73801 0.87014 0.75848 0.0
C3914 C 0.74668 0.87306 0.77701 0.0
C3915 C 0.73354 0.88456 0.75014 0.0
C3916 C 0.73783 0.90194 0.7603 0.0
C3917 C 0.7474 0.9049 0.77844 0.0
C3918 C 0.75171 0.89054 0.78677 0.0
C3919 C 0.73123 0.91694 0.753 0.0
C3920 C 0.74383 0.93328 0.75298 0.0
C3921 C 0.71253 0.91595 0.74827 0.0
C3922 C 0.69836 0.89958 0.74946 0.0
C3923 C 0.69717 0.89218 0.7664 0.0
C3924 C 0.6835 0.87703 0.76751 0.0
C3925 C 0.67075 0.86933 0.75187 0.0
C3926 C 0.67163 0.87679 0.73508 0.0
C3927 C 0.68534 0.89187 0.73386 0.0
H3928 H 0.66014 0.85765 0.75278 0.0
H3929 H 0.78477 0.01376 0.75842 0.0
H3930 H 0.72107 0.88998 0.49298 0.0
H3931 H 0.6973 0.90625 0.49608 0.0
H3932 H 0.72674 0.93621 0.54805 0.0
H3933 H 0.75047 0.91927 0.54539 0.0
H3934 H 0.68998 0.92779 0.54948 0.0
H3935 H 0.72868 0.95608 0.50808 0.0
H3936 H 0.74645 0.95643 0.48164 0.0
H3937 H 0.69819 0.93183 0.4436 0.0
H3938 H 0.68016 0.93118 0.46983 0.0
H3939 H 0.6342 0.99461 0.52667 0.0
H3940 H 0.65802 0.97978 0.53855 0.0
H3941 H 0.63803 0.93548 0.49414 0.0
H3942 H 0.61469 0.95022 0.48222 0.0
H3943 H 0.67389 0.95671 0.4938 0.0
H3944 H 0.63526 0.92774 0.53588 0.0
H3945 H 0.61811 0.926 0.56274 0.0
H3946 H 0.66654 0.95181 0.60006 0.0
H3947 H 0.68381 0.95431 0.57339 0.0
C3948 C 0.72254 0.89999 0.50511 0.0
C3949 C 0.7378 0.9035 0.51879 0.0
C3950 C 0.70891 0.90931 0.50688 0.0
C3951 C 0.7104 0.92277 0.52208 0.0
C3952 C 0.72534 0.92596 0.53614 0.0
C3953 C 0.73892 0.91635 0.53454 0.0
C3954 C 0.6967 0.93393 0.5224 0.0
C3955 C 0.68664 0.93443 0.53748 0.0
C3956 C 0.69237 0.94265 0.5068 0.0
C3957 C 0.7031 0.94356 0.49092 0.0
C3958 C 0.72187 0.95074 0.49407 0.0
C3959 C 0.73199 0.95097 0.47913 0.0
C3960 C 0.72346 0.94415 0.46096 0.0
C3961 C 0.70478 0.93714 0.45767 0.0
C3962 C 0.6946 0.93688 0.47256 0.0
C3963 C 0.63455 0.98139 0.51993 0.0
C3964 C 0.62275 0.97359 0.50344 0.0
C3965 C 0.64814 0.97296 0.52671 0.0
C3966 C 0.64985 0.95661 0.5171 0.0
C3967 C 0.63698 0.94811 0.50171 0.0
C3968 C 0.62367 0.95655 0.4949 0.0
C3969 C 0.66655 0.94984 0.52043 0.0
C3970 C 0.67737 0.95037 0.506 0.0
C3971 C 0.67149 0.94224 0.53667 0.0
C3972 C 0.6608 0.94149 0.55256 0.0
C3973 C 0.64218 0.93342 0.54975 0.0
C3974 C 0.63243 0.93225 0.56498 0.0
C3975 C 0.64117 0.93889 0.5831 0.0
C3976 C 0.65968 0.94681 0.58603 0.0
C3977 C 0.66947 0.94814 0.57086 0.0
H3978 H 0.63363 0.93775 0.59488 0.0
H3979 H 0.73132 0.94429 0.44941 0.0
H3980 H 0.39607 0.44257 0.72448 0.0
H3981 H 0.37508 0.41455 0.72781 0.0
H3982 H 0.35252 0.44294 0.77036 0.0
H3983 H 0.37377 0.4713 0.76707 0.0
H3984 H 0.3627 0.4116 0.78095 0.0
H3985 H 0.32696 0.42748 0.72933 0.0
H3986 H 0.32258 0.43813 0.69854 0.0
H3987 H 0.33907 0.39242 0.67252 0.0
H3988 H 0.34375 0.38161 0.70321 0.0
H3989 H 0.29265 0.33335 0.78371 0.0
H3990 H 0.31006 0.36369 0.78155 0.0
H3991 H 0.33503 0.34219 0.73655 0.0
H3992 H 0.31763 0.31168 0.73866 0.0
H3993 H 0.32174 0.37134 0.72825 0.0
H3994 H 0.36082 0.35703 0.77783 0.0
H3995 H 0.37022 0.34735 0.80806 0.0
H3996 H 0.35046 0.38927 0.83721 0.0
H3997 H 0.34114 0.39936 0.80712 0.0
C3998 C 0.38634 0.44294 0.73422 0.0
C3999 C 0.38642 0.45909 0.74543 0.0
C4000 C 0.37437 0.42692 0.73614 0.0
C4001 C 0.36222 0.42668 0.74929 0.0
C4002 C 0.36179 0.4429 0.76009 0.0
C4003 C 0.37373 0.45908 0.75805 0.0
C4004 C 0.35076 0.40919 0.75219 0.0
C4005 C 0.35336 0.40295 0.7696 0.0
C4006 C 0.33918 0.39768 0.73714 0.0
C4007 C 0.33575 0.40377 0.71857 0.0
C4008 C 0.32968 0.41972 0.71704 0.0
C4009 C 0.32715 0.42579 0.69961 0.0
C4010 C 0.33056 0.41596 0.68358 0.0
C4011 C 0.33642 0.4 0.68495 0.0
C4012 C 0.33896 0.39387 0.70235 0.0
C4013 C 0.30177 0.33508 0.77327 0.0
C4014 C 0.3036 0.32017 0.76115 0.0
C4015 C 0.31186 0.3524 0.77221 0.0
C4016 C 0.32389 0.35516 0.75897 0.0
C4017 C 0.3258 0.34031 0.74689 0.0
C4018 C 0.31585 0.32293 0.74807 0.0
C4019 C 0.33368 0.37369 0.75702 0.0
C4020 C 0.3308 0.38009 0.73974 0.0
C4021 C 0.34517 0.38523 0.77215 0.0
C4022 C 0.35004 0.37878 0.79021 0.0
C4023 C 0.35829 0.36406 0.79067 0.0
C4024 C 0.36371 0.35857 0.80778 0.0
C4025 C 0.36081 0.36759 0.82454 0.0
C4026 C 0.35262 0.38224 0.82422 0.0
C4027 C 0.34735 0.3879 0.80714 0.0
H4028 H 0.36497 0.36328 0.83777 0.0
H4029 H 0.32865 0.42071 0.67011 0.0
H4030 H 0.20691 0.5854 0.22012 0.0
H4031 H 0.22252 0.6169 0.23035 0.0
H4032 H 0.21784 0.60895 0.2879 0.0
H4033 H 0.20255 0.57731 0.27778 0.0
H4034 H 0.20003 0.637 0.2694 0.0
H4035 H 0.257 0.61771 0.28156 0.0
H4036 H 0.27713 0.59879 0.27065 0.0
H4037 H 0.28193 0.62596 0.22182 0.0
H4038 H 0.26167 0.6449 0.23236 0.0
H4039 H 0.24729 0.73085 0.29533 0.0
H4040 H 0.23474 0.69847 0.29532 0.0
H4041 H 0.249 0.68776 0.23987 0.0
H4042 H 0.26194 0.71953 0.24022 0.0
H4043 H 0.26271 0.66866 0.26378 0.0
H4044 H 0.20691 0.68436 0.24504 0.0
H4045 H 0.18323 0.70143 0.24766 0.0
H4046 H 0.17207 0.6804 0.2989 0.0
H4047 H 0.19596 0.66342 0.29676 0.0
C4048 C 0.21011 0.5902 0.23498 0.0
C4049 C 0.20371 0.57926 0.24824 0.0
C4050 C 0.2187 0.6081 0.24076 0.0
C4051 C 0.2208 0.61495 0.25976 0.0
C4052 C 0.21604 0.60362 0.27319 0.0
C4053 C 0.20772 0.58561 0.26744 0.0
C4054 C 0.22685 0.63427 0.26515 0.0
C4055 C 0.21384 0.6441 0.26882 0.0
C4056 C 0.24457 0.64305 0.26333 0.0
C4057 C 0.25796 0.63279 0.25782 0.0
C4058 C 0.26247 0.61972 0.26857 0.0
C4059 C 0.27384 0.60895 0.26242 0.0
C4060 C 0.28084 0.6112 0.24557 0.0
C4061 C 0.27657 0.6243 0.2349 0.0
C4062 C 0.2652 0.6351 0.241 0.0
C4063 C 0.24752 0.72152 0.28319 0.0
C4064 C 0.25573 0.72748 0.26794 0.0
C4065 C 0.24037 0.70318 0.28315 0.0
C4066 C 0.24122 0.69099 0.26765 0.0
C4067 C 0.24853 0.69711 0.25202 0.0
C4068 C 0.25593 0.71523 0.25226 0.0
C4069 C 0.23591 0.67164 0.268 0.0
C4070 C 0.24905 0.66175 0.26522 0.0
C4071 C 0.21806 0.66289 0.26975 0.0
C4072 C 0.20345 0.67283 0.27091 0.0
C4073 C 0.19955 0.6835 0.25698 0.0
C4074 C 0.18606 0.69314 0.25835 0.0
C4075 C 0.17621 0.69207 0.27348 0.0
C4076 C 0.17976 0.68126 0.28722 0.0
C4077 C 0.19328 0.67162 0.28593 0.0
H4078 H 0.16578 0.69955 0.27454 0.0
H4079 H 0.28954 0.60277 0.24077 0.0
H4080 H 0.52717 0.71697 0.45797 0.0
H4081 H 0.53362 0.68937 0.46878 0.0
H4082 H 0.47664 0.6684 0.46962 0.0
H4083 H 0.4705 0.69649 0.46041 0.0
H4084 H 0.49066 0.65774 0.49641 0.0
H4085 H 0.50677 0.65469 0.43365 0.0
H4086 H 0.52316 0.66526 0.40791 0.0
H4087 H 0.57381 0.66761 0.44135 0.0
H4088 H 0.55772 0.65723 0.46735 0.0
H4089 H 0.49354 0.56335 0.49343 0.0
H4090 H 0.48896 0.59261 0.48525 0.0
H4091 H 0.54541 0.61654 0.50339 0.0
H4092 H 0.54975 0.58758 0.5119 0.0
H4093 H 0.53313 0.62582 0.46825 0.0
H4094 H 0.51614 0.62748 0.53018 0.0
H4095 H 0.49936 0.61683 0.55561 0.0
H4096 H 0.44915 0.61591 0.52206 0.0
H4097 H 0.46564 0.62647 0.49638 0.0
C4098 C 0.51603 0.70645 0.46045 0.0
C4099 C 0.49828 0.70909 0.45823 0.0
C4100 C 0.5197 0.69043 0.4665 0.0
C4101 C 0.50565 0.67613 0.46976 0.0
C4102 C 0.48792 0.67889 0.46741 0.0
C4103 C 0.48436 0.69508 0.46199 0.0
C4104 C 0.50912 0.65851 0.47587 0.0
C4105 C 0.49973 0.65073 0.48986 0.0
C4106 C 0.52137 0.64916 0.46809 0.0
C4107 C 0.53105 0.65537 0.45249 0.0
C4108 C 0.52141 0.65756 0.43553 0.0
C4109 C 0.53064 0.6635 0.4209 0.0
C4110 C 0.54952 0.66716 0.42302 0.0
C4111 C 0.55919 0.66481 0.43974 0.0
C4112 C 0.55002 0.65888 0.45442 0.0
C4113 C 0.50499 0.57482 0.49568 0.0
C4114 C 0.52212 0.57285 0.5034 0.0
C4115 C 0.50233 0.59167 0.49107 0.0
C4116 C 0.51681 0.60705 0.49366 0.0
C4117 C 0.53392 0.60506 0.50119 0.0
C4118 C 0.53643 0.58835 0.5062 0.0
C4119 C 0.51427 0.62504 0.48822 0.0
C4120 C 0.52394 0.63288 0.47454 0.0
C4121 C 0.50209 0.63431 0.49605 0.0
C4122 C 0.49212 0.62756 0.51128 0.0
C4123 C 0.50151 0.62482 0.52815 0.0
C4124 C 0.49205 0.61888 0.54264 0.0
C4125 C 0.4732 0.61565 0.54043 0.0
C4126 C 0.46376 0.6184 0.52374 0.0
C4127 C 0.47315 0.62439 0.50923 0.0
H4128 H 0.4659 0.61106 0.55167 0.0
H4129 H 0.55664 0.67176 0.41167 0.0
H4130 H 0.62264 0.29444 0.61944 0.0
H4131 H 0.64745 0.29352 0.64313 0.0
H4132 H 0.61004 0.28119 0.68287 0.0
H4133 H 0.58485 0.28235 0.65902 0.0
H4134 H 0.64197 0.30466 0.69993 0.0
H4135 H 0.62613 0.24765 0.66116 0.0
H4136 H 0.61889 0.22718 0.63136 0.0
H4137 H 0.67152 0.24906 0.61707 0.0
H4138 H 0.67899 0.26982 0.6467 0.0
H4139 H 0.70566 0.26485 0.75618 0.0
H4140 H 0.67888 0.26904 0.73681 0.0
H4141 H 0.7127 0.29486 0.69907 0.0
H4142 H 0.7396 0.29202 0.71898 0.0
H4143 H 0.68136 0.26364 0.6825 0.0
H4144 H 0.69681 0.32102 0.72119 0.0
H4145 H 0.70381 0.34164 0.75085 0.0
H4146 H 0.6516 0.31877 0.76553 0.0
H4147 H 0.64441 0.29775 0.73607 0.0
C4148 C 0.61956 0.29163 0.63322 0.0
C4149 C 0.60158 0.28832 0.63715 0.0
C4150 C 0.63386 0.29105 0.64682 0.0
C4151 C 0.63074 0.28694 0.66481 0.0
C4152 C 0.6129 0.28432 0.66911 0.0
C4153 C 0.59847 0.28497 0.65543 0.0
C4154 C 0.64612 0.28477 0.6786 0.0
C4155 C 0.65037 0.29545 0.69622 0.0
C4156 C 0.65741 0.27299 0.67382 0.0
C4157 C 0.65307 0.26037 0.65609 0.0
C4158 C 0.63612 0.24816 0.65162 0.0
C4159 C 0.63198 0.2365 0.63476 0.0
C4160 C 0.64472 0.23684 0.62232 0.0
C4161 C 0.66166 0.24881 0.62672 0.0
C4162 C 0.66587 0.26051 0.64356 0.0
C4163 C 0.70755 0.27188 0.74409 0.0
C4164 C 0.72506 0.27825 0.73946 0.0
C4165 C 0.69212 0.27412 0.73288 0.0
C4166 C 0.6937 0.2823 0.71644 0.0
C4167 C 0.71106 0.28854 0.71168 0.0
C4168 C 0.7265 0.28682 0.72314 0.0
C4169 C 0.67728 0.28361 0.70372 0.0
C4170 C 0.67286 0.27273 0.68628 0.0
C4171 C 0.66584 0.29513 0.70874 0.0
C4172 C 0.67019 0.30758 0.72657 0.0
C4173 C 0.68692 0.32019 0.73087 0.0
C4174 C 0.6909 0.332 0.74761 0.0
C4175 C 0.67819 0.33145 0.76011 0.0
C4176 C 0.66145 0.31913 0.75586 0.0
C4177 C 0.65742 0.30726 0.73914 0.0
H4178 H 0.68129 0.34063 0.77306 0.0
H4179 H 0.64149 0.22781 0.60927 0.0
H4180 H 0.00884 0.31847 0.93226 0.0
H4181 H 0.01128 0.35078 0.94087 0.0
H4182 H 0.00779 0.34213 -0.0016 0.0
H4183 H 0.00415 0.30968 0.98951 0.0
H4184 H 0.98853 0.36363 0.99189 0.0
H4185 H 0.04924 0.36483 0.97813 0.0
H4186 H 0.07217 0.35853 0.95857 0.0
H4187 H 0.05212 0.38777 0.91663 0.0
H4188 H 0.02896 0.39409 0.93586 0.0
H4189 H 0.00914 0.45732 0.02904 0.0
H4190 H 0.00862 0.42528 0.02116 0.0
H4191 H 0.01369 0.43363 0.96379 0.0
H4192 H 0.01557 0.46583 0.97203 0.0
H4193 H 0.03264 0.41227 0.9705 0.0
H4194 H 0.97139 0.40994 0.98279 0.0
H4195 H 0.94773 0.41594 0.00139 0.0
H4196 H 0.96825 0.38895 0.0452 0.0
H4197 H 0.992 0.3827 0.02677 0.0
C4198 C 0.00895 0.32349 0.94682 0.0
C4199 C 0.00648 0.31135 0.96019 0.0
C4200 C 0.01041 0.34213 0.95182 0.0
C4201 C 0.01005 0.34938 0.97048 0.0
C4202 C 0.00808 0.33722 0.9839 0.0
C4203 C 0.00616 0.31856 0.97882 0.0
C4204 C 0.01083 0.36928 0.97598 0.0
C4205 C 0.99842 0.37419 0.98739 0.0
C4206 C 0.02325 0.38346 0.96983 0.0
C4207 C 0.03729 0.37981 0.95838 0.0
C4208 C 0.04968 0.36984 0.9647 0.0
C4209 C 0.06271 0.36628 0.95368 0.0
C4210 C 0.06357 0.37272 0.93635 0.0
C4211 C 0.05143 0.38278 0.93004 0.0
C4212 C 0.03837 0.38638 0.94101 0.0
C4213 C 0.01001 0.45229 0.01471 0.0
C4214 C 0.01238 0.46428 0.00121 0.0
C4215 C 0.00957 0.43379 0.0101 0.0
C4216 C 0.01076 0.4265 0.99165 0.0
C4217 C 0.01281 0.43855 0.97814 0.0
C4218 C 0.01377 0.45709 0.98286 0.0
C4219 C 0.01031 0.40661 0.9864 0.0
C4220 C 0.02277 0.4017 0.97504 0.0
C4221 C 0.99788 0.39242 0.99248 0.0
C4222 C 0.98354 0.396 0.00348 0.0
C4223 C 0.97088 0.40534 -0.00358 0.0
C4224 C 0.95745 0.40878 0.00693 0.0
C4225 C 0.95655 0.40293 0.02453 0.0
C4226 C 0.96899 0.39351 0.03159 0.0
C4227 C 0.98239 0.38995 0.02108 0.0
H4228 H 0.94617 0.40566 0.03268 0.0
H4229 H 0.07366 0.36993 0.92783 0.0
H4230 H 0.02105 0.79773 0.17234 0.0
H4231 H 0.99351 0.79391 0.18712 0.0
H4232 H 0.96195 0.76795 0.13462 0.0
H4233 H 0.98958 0.77163 0.11966 0.0
H4234 H 0.94614 0.7933 0.15265 0.0
H4235 H 0.9686 0.7423 0.16758 0.0
H4236 H 0.99063 0.72537 0.1792 0.0
H4237 H 0.99764 0.75583 0.23378 0.0
H4238 H 0.97577 0.77307 0.22243 0.0
H4239 H 0.86675 0.75434 0.19284 0.0
H4240 H 0.89229 0.76366 0.17562 0.0
H4241 H 0.92696 0.78418 0.22796 0.0
H4242 H 0.90142 0.77427 0.24509 0.0
H4243 H 0.94072 0.76139 0.20867 0.0
H4244 H 0.9171 0.81228 0.19302 0.0
H4245 H 0.89453 0.82827 0.18058 0.0
H4246 H 0.8887 0.7969 0.12665 0.0
H4247 H 0.91115 0.78064 0.1388 0.0
C4248 C 0.00829 0.79117 0.16388 0.0
C4249 C 0.00762 0.78497 0.14478 0.0
C4250 C 0.99251 0.78895 0.1724 0.0
C4251 C 0.9756 0.78055 0.16205 0.0
C4252 C 0.97481 0.77448 0.14292 0.0
C4253 C 0.99065 0.77654 0.1344 0.0
C4254 C 0.95887 0.77822 0.17133 0.0
C4255 C 0.94483 0.78614 0.16477 0.0
C4256 C 0.95722 0.76912 0.18733 0.0
C4257 C 0.97071 0.75912 0.1941 0.0
C4258 C 0.975 0.74553 0.18201 0.0
C4259 C 0.98741 0.73584 0.18856 0.0
C4260 C 0.99557 0.73956 0.2072 0.0
C4261 C 0.99133 0.75298 0.21934 0.0
C4262 C 0.97891 0.7627 0.21286 0.0
C4263 C 0.87969 0.76144 0.20057 0.0
C4264 C 0.88209 0.76373 0.22025 0.0
C4265 C 0.89434 0.7668 0.19073 0.0
C4266 C 0.91172 0.77464 0.20041 0.0
C4267 C 0.91376 0.77813 0.2201 0.0
C4268 C 0.89912 0.77267 0.22992 0.0
C4269 C 0.92803 0.77688 0.19036 0.0
C4270 C 0.942 0.76874 0.19667 0.0
C4271 C 0.92949 0.78566 0.17408 0.0
C4272 C 0.91567 0.79512 0.16688 0.0
C4273 C 0.91087 0.80867 0.17856 0.0
C4274 C 0.89814 0.81782 0.17155 0.0
C4275 C 0.89015 0.81357 0.15286 0.0
C4276 C 0.89488 0.80017 0.14113 0.0
C4277 C 0.90763 0.791 0.14806 0.0
H4278 H 0.88032 0.82069 0.14745 0.0
H4279 H 0.00515 0.73202 0.21226 0.0
H4280 H 0.49271 0.27839 0.11402 0.0
H4281 H 0.4966 0.30582 0.09892 0.0
H4282 H 0.53439 0.33482 0.14645 0.0
H4283 H 0.53054 0.30732 0.16174 0.0
H4284 H 0.51041 0.3546 0.13512 0.0
H4285 H 0.54997 0.32348 0.10611 0.0
H4286 H 0.55947 0.29812 0.08938 0.0
H4287 H 0.51906 0.29608 0.04258 0.0
H4288 H 0.50921 0.32134 0.05912 0.0
H4289 H 0.54934 0.43022 0.09058 0.0
H4290 H 0.54035 0.40475 0.10794 0.0
H4291 H 0.50636 0.37458 0.05835 0.0
H4292 H 0.51583 0.40007 0.04086 0.0
H4293 H 0.52789 0.35548 0.07126 0.0
H4294 H 0.48877 0.38778 0.1013 0.0
H4295 H 0.48112 0.41408 0.11847 0.0
H4296 H 0.52271 0.41492 0.16373 0.0
H4297 H 0.5306 0.38862 0.14682 0.0
C4298 C 0.5019 0.29056 0.1213 0.0
C4299 C 0.5113 0.29056 0.13915 0.0
C4300 C 0.50416 0.30627 0.11258 0.0
C4301 C 0.51588 0.32245 0.12144 0.0
C4302 C 0.52525 0.32255 0.1393 0.0
C4303 C 0.52307 0.30677 0.14802 0.0
C4304 C 0.51813 0.33921 0.11207 0.0
C4305 C 0.51441 0.35485 0.12123 0.0
C4306 C 0.52306 0.33956 0.09382 0.0
C4307 C 0.52871 0.32416 0.08395 0.0
C4308 C 0.54299 0.3175 0.09233 0.0
C4309 C 0.54847 0.30318 0.08286 0.0
C4310 C 0.53984 0.29545 0.06495 0.0
C4311 C 0.52572 0.30206 0.05647 0.0
C4312 C 0.52019 0.31639 0.06587 0.0
C4313 C 0.53932 0.41844 0.08364 0.0
C4314 C 0.53302 0.41725 0.06448 0.0
C4315 C 0.5342 0.40379 0.09357 0.0
C4316 C 0.52257 0.38759 0.08458 0.0
C4317 C 0.51532 0.38686 0.06569 0.0
C4318 C 0.52052 0.40153 0.05573 0.0
C4319 C 0.51984 0.37088 0.09411 0.0
C4320 C 0.52364 0.35523 0.08505 0.0
C4321 C 0.51513 0.3706 0.1125 0.0
C4322 C 0.51035 0.38633 0.12274 0.0
C4323 C 0.49633 0.39363 0.11488 0.0
C4324 C 0.49193 0.40851 0.12458 0.0
C4325 C 0.50145 0.41619 0.14216 0.0
C4326 C 0.51534 0.40895 0.15012 0.0
C4327 C 0.51974 0.39402 0.14051 0.0
H4328 H 0.49806 0.42774 0.14963 0.0
H4329 H 0.54412 0.28438 0.05763 0.0
H4330 H 0.98336 0.27236 0.30618 0.0
H4331 H 0.95211 0.2709 0.29158 0.0
H4332 H 0.94791 0.31312 0.33392 0.0
H4333 H 0.97878 0.31498 0.34794 0.0
H4334 H 0.9206 0.28037 0.33124 0.0
H4335 H 0.94787 0.32402 0.29422 0.0
H4336 H 0.96872 0.33593 0.27249 0.0
H4337 H 0.94226 0.29194 0.22997 0.0
H4338 H 0.92141 0.27959 0.2516 0.0
H4339 H 0.8352 0.30204 0.30388 0.0
H4340 H 0.86791 0.30488 0.31212 0.0
H4341 H 0.86663 0.26351 0.26652 0.0
H4342 H 0.83383 0.26011 0.25882 0.0
H4343 H 0.89691 0.29442 0.26935 0.0
H4344 H 0.86832 0.25212 0.30721 0.0
H4345 H 0.8492 0.24026 0.33021 0.0
H4346 H 0.87955 0.28225 0.37283 0.0
H4347 H 0.89863 0.29487 0.34987 0.0
C4348 C 0.97599 0.2818 0.31183 0.0
C4349 C 0.98364 0.29392 0.32812 0.0
C4350 C 0.95806 0.28083 0.30364 0.0
C4351 C 0.94752 0.29179 0.31179 0.0
C4352 C 0.95561 0.30446 0.3274 0.0
C4353 C 0.97337 0.3056 0.33531 0.0
C4354 C 0.92771 0.28936 0.30535 0.0
C4355 C 0.91545 0.2836 0.31776 0.0
C4356 C 0.92088 0.29333 0.28769 0.0
C4357 C 0.93324 0.30074 0.2746 0.0
C4358 C 0.94661 0.31677 0.2803 0.0
C4359 C 0.95841 0.32363 0.268 0.0
C4360 C 0.95686 0.31466 0.24988 0.0
C4361 C 0.94347 0.29885 0.24402 0.0
C4362 C 0.93165 0.29192 0.2563 0.0
C4363 C 0.84194 0.29363 0.29557 0.0
C4364 C 0.83192 0.28081 0.28071 0.0
C4365 C 0.86064 0.29522 0.30031 0.0
C4366 C 0.86988 0.28439 0.28998 0.0
C4367 C 0.85994 0.27203 0.27474 0.0
C4368 C 0.84116 0.27005 0.27037 0.0
C4369 C 0.88973 0.28556 0.29538 0.0
C4370 C 0.90201 0.29112 0.28281 0.0
C4371 C 0.89668 0.28162 0.31306 0.0
C4372 C 0.8847 0.27464 0.3267 0.0
C4373 C 0.87072 0.25907 0.32138 0.0
C4374 C 0.85993 0.25214 0.33446 0.0
C4375 C 0.86309 0.26044 0.35298 0.0
C4376 C 0.87706 0.27584 0.35846 0.0
C4377 C 0.88784 0.28293 0.34539 0.0
H4378 H 0.85475 0.25492 0.36309 0.0
H4379 H 0.96601 0.31999 0.24037 0.0
H4380 H 0.98075 0.69063 0.63505 0.0
H4381 H 0.98176 0.66537 0.6115 0.0
H4382 H 0.03951 0.67533 0.62688 0.0
H4383 H 0.03845 0.7007 0.65007 0.0
H4384 H 0.03199 0.66723 0.59027 0.0
H4385 H 0.00834 0.64036 0.64247 0.0
H4386 H 0.98703 0.63458 0.66553 0.0
H4387 H 0.9431 0.61435 0.62094 0.0
H4388 H 0.96414 0.62018 0.59761 0.0
H4389 H 0.04798 0.58405 0.55055 0.0
H4390 H 0.04537 0.61063 0.57112 0.0
H4391 H 0.98724 0.59459 0.5581 0.0
H4392 H 0.98997 0.56732 0.53859 0.0
H4393 H 0.99372 0.6064 0.59229 0.0
H4394 H 0.01743 0.63197 0.53986 0.0
H4395 H 0.03875 0.63761 0.51679 0.0
H4396 H 0.0822 0.66057 0.56124 0.0
H4397 H 0.06119 0.65486 0.58459 0.0
C4398 C 0.99366 0.68755 0.63315 0.0
C4399 C 0.00955 0.69774 0.64425 0.0
C4400 C 0.99424 0.67298 0.61981 0.0
C4401 C 0.01071 0.66809 0.61744 0.0
C4402 C 0.02661 0.67866 0.62828 0.0
C4403 C 0.02602 0.69321 0.64155 0.0
C4404 C 0.01147 0.65187 0.60405 0.0
C4405 C 0.02371 0.6539 0.59086 0.0
C4406 C 1.00043 0.63442 0.6043 0.0
C4407 C 0.98778 0.63088 0.6183 0.0
C4408 C 0.99412 0.63479 0.63759 0.0
C4409 C 0.98209 0.63148 0.65071 0.0
C4410 C 0.96372 0.62415 0.64471 0.0
C4411 C 0.95734 0.62005 0.62557 0.0
C4412 C 0.9693 0.62334 0.61239 0.0
C4413 C 0.03467 0.58633 0.552 0.0
C4414 C 0.01918 0.57371 0.54285 0.0
C4415 C 0.03314 0.60163 0.56371 0.0
C4416 C 0.01608 0.60514 0.56603 0.0
C4417 C 1.0006 0.59245 0.55671 0.0
C4418 C 0.00214 0.57687 0.54544 0.0
C4419 C 0.01433 0.62167 0.57846 0.0
C4420 C 0.00191 0.61971 0.59153 0.0
C4421 C 0.02516 0.63922 0.57802 0.0
C4422 C 0.03775 0.64287 0.56398 0.0
C4423 C 0.03155 0.63815 0.54472 0.0
C4424 C 0.04358 0.64136 0.53159 0.0
C4425 C 0.06182 0.64941 0.53755 0.0
C4426 C 0.06807 0.65432 0.55664 0.0
C4427 C 0.0561 0.65112 0.56983 0.0
H4428 H 0.07111 0.65187 0.52736 0.0
H4429 H 0.95443 0.6216 0.65488 0.0
H4430 H 0.59441 0.82173 0.80584 0.0
H4431 H 0.62145 0.81429 0.79522 0.0
H4432 H 0.616 0.76982 0.82777 0.0
H4433 H 0.58885 0.77734 0.83863 0.0
H4434 H 0.65064 0.78683 0.83191 0.0
H4435 H 0.60632 0.76378 0.77819 0.0
H4436 H 0.58209 0.76425 0.75292 0.0
H4437 H 0.61757 0.80663 0.7315 0.0
H4438 H 0.64196 0.80657 0.75679 0.0
H4439 H 0.71559 0.74718 0.78578 0.0
H4440 H 0.68657 0.75137 0.79514 0.0
H4441 H 0.69617 0.80389 0.77649 0.0
H4442 H 0.72548 0.80007 0.76799 0.0
H4443 H 0.659 0.78098 0.76482 0.0
H4444 H 0.70281 0.80469 0.8189 0.0
H4445 H 0.72732 0.80404 0.84373 0.0
H4446 H 0.69276 0.76029 0.8642 0.0
H4447 H 0.66812 0.76041 0.83918 0.0
C4448 C 0.59881 0.81027 0.81073 0.0
C4449 C 0.58915 0.80016 0.82315 0.0
C4450 C 0.61438 0.80594 0.8045 0.0
C4451 C 0.62097 0.79128 0.81038 0.0
C4452 C 0.6114 0.78118 0.82286 0.0
C4453 C 0.59572 0.78546 0.82904 0.0
C4454 C 0.63794 0.78686 0.80385 0.0
C4455 C 0.65222 0.78525 0.81719 0.0
C4456 C 0.64057 0.78511 0.78466 0.0
C4457 C 0.62591 0.7853 0.76952 0.0
C4458 C 0.60891 0.77331 0.76819 0.0
C4459 C 0.59516 0.77348 0.75384 0.0
C4460 C 0.59827 0.7855 0.74065 0.0
C4461 C 0.61517 0.79735 0.74175 0.0
C4462 C 0.62897 0.79724 0.75608 0.0
C4463 C 0.71143 0.75955 0.78354 0.0
C4464 C 0.72287 0.77326 0.77604 0.0
C4465 C 0.69483 0.76198 0.78897 0.0
C4466 C 0.68898 0.77798 0.78655 0.0
C4467 C 0.7002 0.79141 0.77852 0.0
C4468 C 0.71701 0.78922 0.77367 0.0
C4469 C 0.67153 0.78102 0.79287 0.0
C4470 C 0.65725 0.78242 0.77951 0.0
C4471 C 0.6689 0.78257 0.812 0.0
C4472 C 0.6837 0.78237 0.82698 0.0
C4473 C 0.7005 0.79475 0.82852 0.0
C4474 C 0.71441 0.79452 0.84267 0.0
C4475 C 0.71162 0.78208 0.85549 0.0
C4476 C 0.69491 0.76987 0.85421 0.0
C4477 C 0.68097 0.77001 0.84004 0.0
H4478 H 0.72239 0.78194 0.86647 0.0
H4479 H 0.58761 0.7856 0.72954 0.0
H4480 H 0.42907 0.523 0.69284 0.0
H4481 H 0.43956 0.52777 0.66247 0.0
H4482 H 0.48911 0.5128 0.68141 0.0
H4483 H 0.47879 0.50796 0.7115 0.0
H4484 H 0.49508 0.54343 0.66476 0.0
H4485 H 0.45722 0.48365 0.65314 0.0
H4486 H 0.42956 0.45951 0.65059 0.0
H4487 H 0.40266 0.48559 0.61018 0.0
H4488 H 0.43008 0.5101 0.61275 0.0
H4489 H 0.53003 0.5158 0.58227 0.0
H4490 H 0.5169 0.51701 0.6115 0.0
H4491 H 0.4747 0.53934 0.58552 0.0
H4492 H 0.48804 0.53875 0.55632 0.0
H4493 H 0.46308 0.50803 0.60469 0.0
H4494 H 0.50356 0.56661 0.61504 0.0
H4495 H 0.53254 0.58893 0.6174 0.0
H4496 H 0.55591 0.56263 0.66012 0.0
H4497 H 0.52713 0.54001 0.65786 0.0
C4498 C 0.44227 0.52094 0.69055 0.0
C4499 C 0.45315 0.51518 0.70456 0.0
C4500 C 0.44816 0.5235 0.67318 0.0
C4501 C 0.46506 0.52053 0.66971 0.0
C4502 C 0.47603 0.51516 0.68382 0.0
C4503 C 0.4701 0.51241 0.70101 0.0
C4504 C 0.47166 0.52319 0.65153 0.0
C4505 C 0.48811 0.53564 0.65162 0.0
C4506 C 0.46236 0.51324 0.63439 0.0
C4507 C 0.44561 0.49892 0.63343 0.0
C4508 C 0.44532 0.48443 0.64397 0.0
C4509 C 0.4297 0.47062 0.64245 0.0
C4510 C 0.41432 0.47106 0.63031 0.0
C4511 C 0.41454 0.48531 0.61965 0.0
C4512 C 0.43011 0.49917 0.62115 0.0
C4513 C 0.5181 0.52122 0.58282 0.0
C4514 C 0.51016 0.52732 0.56701 0.0
C4515 C 0.51063 0.52189 0.59952 0.0
C4516 C 0.49495 0.52839 0.60063 0.0
C4517 C 0.48688 0.53436 0.58489 0.0
C4518 C 0.49452 0.534 0.56825 0.0
C4519 C 0.48656 0.52808 0.61804 0.0
C4520 C 0.46983 0.51605 0.61779 0.0
C4521 C 0.49574 0.53817 0.63511 0.0
C4522 C 0.51322 0.55149 0.63613 0.0
C4523 C 0.51493 0.56544 0.62477 0.0
C4524 C 0.5313 0.57821 0.62616 0.0
C4525 C 0.54607 0.57718 0.63887 0.0
C4526 C 0.54447 0.5634 0.65025 0.0
C4527 C 0.52813 0.55062 0.64894 0.0
H4528 H 0.55873 0.58707 0.63991 0.0
H4529 H 0.40227 0.46033 0.62909 0.0
H4530 H 0.78261 0.16891 0.00538 0.0
H4531 H 0.78609 0.18581 0.97853 0.0
H4532 H 0.73587 0.15218 0.94931 0.0
H4533 H 0.73202 0.13568 0.97657 0.0
H4534 H 0.7689 0.15921 0.92912 0.0
H4535 H 0.73075 0.18656 0.9655 0.0
H4536 H 0.72211 0.20075 0.99413 0.0
H4537 H 0.76884 0.24454 -0.00128 0.0
H4538 H 0.77805 0.23033 0.97035 0.0
H4539 H 0.73072 0.20353 0.86203 0.0
H4540 H 0.74266 0.18642 0.88492 0.0
H4541 H 0.78095 0.23504 0.91162 0.0
H4542 H 0.76824 0.25233 0.88895 0.0
H4543 H 0.76015 0.22183 0.93468 0.0
H4544 H 0.79549 0.19434 0.8941 0.0
H4545 H 0.80264 0.1781 0.86569 0.0
H4546 H 0.75811 0.13352 0.86779 0.0
H4547 H 0.75067 0.14948 0.89612 0.0
C4548 C 0.77249 0.16509 0.99307 0.0
C4549 C 0.75712 0.1512 0.99261 0.0
C4550 C 0.77444 0.17469 0.97794 0.0
C4551 C 0.76119 0.1701 0.96225 0.0
C4552 C 0.74614 0.15572 0.96148 0.0
C4553 C 0.74395 0.14641 0.97686 0.0
C4554 C 0.76282 0.18078 0.94682 0.0
C4555 C 0.76697 0.17291 0.93012 0.0
C4556 C 0.76072 0.19869 0.94876 0.0
C4557 C 0.75531 0.20717 0.96599 0.0
C4558 C 0.73938 0.19904 0.97279 0.0
C4559 C 0.73434 0.20712 0.98894 0.0
C4560 C 0.74498 0.22349 -0.0017 0.0
C4561 C 0.76067 0.23181 0.9915 0.0
C4562 C 0.76582 0.22373 0.9754 0.0
C4563 C 0.74187 0.2104 0.87266 0.0
C4564 C 0.74828 0.22912 0.87436 0.0
C4565 C 0.74898 0.20061 0.88546 0.0
C4566 C 0.7628 0.20944 0.8999 0.0
C4567 C 0.77029 0.22801 0.90055 0.0
C4568 C 0.76295 0.23788 0.88785 0.0
C4569 C 0.76606 0.20028 0.91638 0.0
C4570 C 0.76271 0.20837 0.93356 0.0
C4571 C 0.76854 0.18241 0.91472 0.0
C4572 C 0.7725 0.17317 0.89718 0.0
C4573 C 0.78712 0.18116 0.88838 0.0
C4574 C 0.79127 0.17196 0.87234 0.0
C4575 C 0.78083 0.1548 0.86493 0.0
C4576 C 0.7662 0.1468 0.87353 0.0
C4577 C 0.76205 0.15589 0.88961 0.0
H4578 H 0.78409 0.14769 0.85254 0.0
H4579 H 0.74102 0.22976 0.01077 0.0
H4580 H 0.13168 0.55489 0.19423 0.0
H4581 H 0.10886 0.54327 0.16718 0.0
H4582 H 0.13208 0.49721 0.156 0.0
H4583 H 0.15486 0.50855 0.18384 0.0
H4584 H 0.12837 0.52194 0.12763 0.0
H4585 H 0.09378 0.48584 0.16681 0.0
H4586 H 0.0795 0.47852 0.1948 0.0
H4587 H 0.0479 0.51791 0.18719 0.0
H4588 H 0.06219 0.52574 0.15939 0.0
H4589 H 0.05985 0.49671 0.05226 0.0
H4590 H 0.08043 0.49701 0.08023 0.0
H4591 H 0.06136 0.54038 0.10845 0.0
H4592 H 0.04059 0.54041 0.08019 0.0
H4593 H 0.06192 0.5096 0.12757 0.0
H4594 H 0.10223 0.5546 0.10162 0.0
H4595 H 0.11882 0.56963 0.07807 0.0
H4596 H 0.13964 0.52276 0.06472 0.0
H4597 H 0.12377 0.50773 0.08877 0.0
C4598 C 0.13211 0.54247 0.1858 0.0
C4599 C 0.14491 0.53257 0.19065 0.0
C4600 C 0.11884 0.53562 0.17083 0.0
C4601 C 0.11861 0.51911 0.16047 0.0
C4602 C 0.13195 0.50965 0.16456 0.0
C4603 C 0.14504 0.51629 0.17995 0.0
C4604 C 0.10627 0.51397 0.14339 0.0
C4605 C 0.11378 0.51853 0.12732 0.0
C4606 C 0.08745 0.5107 0.14385 0.0
C4607 C 0.07915 0.50639 0.16096 0.0
C4608 C 0.08394 0.49309 0.1712 0.0
C4609 C 0.0758 0.48882 0.18702 0.0
C4610 C 0.06281 0.49774 0.19277 0.0
C4611 C 0.05795 0.51099 0.18272 0.0
C4612 C 0.06606 0.51533 0.1669 0.0
C4613 C 0.06001 0.50633 0.06439 0.0
C4614 C 0.04871 0.5185 0.06433 0.0
C4615 C 0.07177 0.50652 0.08019 0.0
C4616 C 0.07225 0.51883 0.0959 0.0
C4617 C 0.06092 0.5309 0.09611 0.0
C4618 C 0.04912 0.53079 0.0802 0.0
C4619 C 0.0842 0.51826 0.11237 0.0
C4620 C 0.07649 0.5125 0.1279 0.0
C4621 C 0.10293 0.52152 0.11197 0.0
C4622 C 0.11162 0.52995 0.09674 0.0
C4623 C 0.11018 0.54743 0.0935 0.0
C4624 C 0.11953 0.55599 0.08016 0.0
C4625 C 0.13003 0.54705 0.0697 0.0
C4626 C 0.13141 0.52962 0.07275 0.0
C4627 C 0.12236 0.52113 0.08633 0.0
H4628 H 0.13722 0.55369 0.05934 0.0
H4629 H 0.05649 0.49437 0.20499 0.0
H4630 H 0.79412 0.82115 0.47799 0.0
H4631 H 0.79288 0.81212 0.44468 0.0
H4632 H 0.76512 0.85384 0.43235 0.0
H4633 H 0.76654 0.86334 0.46613 0.0
H4634 H 0.7506 0.81982 0.41034 0.0
H4635 H 0.8075 0.86164 0.42642 0.0
H4636 H 0.8371 0.87545 0.44514 0.0
H4637 H 0.85416 0.8259 0.43425 0.0
H4638 H 0.82456 0.81173 0.41555 0.0
H4639 H 0.76376 0.80997 0.3144 0.0
H4640 H 0.76285 0.82152 0.34681 0.0
H4641 H 0.79533 0.78558 0.36581 0.0
H4642 H 0.79596 0.77361 0.33331 0.0
H4643 H 0.80782 0.81941 0.3842 0.0
H4644 H 0.75007 0.77718 0.36999 0.0
H4645 H 0.71896 0.76243 0.35536 0.0
H4646 H 0.70311 0.81281 0.36438 0.0
H4647 H 0.73415 0.82794 0.37876 0.0
C4648 C 0.78759 0.8284 0.46829 0.0
C4649 C 0.78054 0.84309 0.47476 0.0
C4650 C 0.78703 0.82326 0.44921 0.0
C4651 C 0.77933 0.83259 0.43609 0.0
C4652 C 0.77134 0.84663 0.44234 0.0
C4653 C 0.77202 0.85194 0.4616 0.0
C4654 C 0.77957 0.82724 0.4159 0.0
C4655 C 0.76308 0.82012 0.40445 0.0
C4656 C 0.79591 0.82716 0.40848 0.0
C4657 C 0.81376 0.83558 0.41969 0.0
C4658 C 0.81751 0.85364 0.42813 0.0
C4659 C 0.83431 0.86155 0.43871 0.0
C4660 C 0.84749 0.85155 0.44093 0.0
C4661 C 0.84393 0.83363 0.43252 0.0
C4662 C 0.82715 0.82566 0.42189 0.0
C4663 C 0.77061 0.80438 0.32542 0.0
C4664 C 0.77998 0.79086 0.32115 0.0
C4665 C 0.77004 0.811 0.344 0.0
C4666 C 0.77891 0.80434 0.35878 0.0
C4667 C 0.78838 0.79092 0.35463 0.0
C4668 C 0.78877 0.78413 0.33601 0.0
C4669 C 0.77873 0.81181 0.37852 0.0
C4670 C 0.79529 0.81931 0.38994 0.0
C4671 C 0.76243 0.81231 0.38591 0.0
C4672 C 0.74444 0.8037 0.37531 0.0
C4673 C 0.74004 0.78519 0.36848 0.0
C4674 C 0.72241 0.77674 0.36034 0.0
C4675 C 0.70911 0.78669 0.35909 0.0
C4676 C 0.71345 0.80515 0.36546 0.0
C4677 C 0.73104 0.81366 0.37354 0.0
H4678 H 0.69538 0.7801 0.3534 0.0
H4679 H 0.86049 0.8577 0.44913 0.0
H4680 H 0.43683 0.48891 0.81142 0.0
H4681 H 0.44829 0.49273 0.84473 0.0
H4682 H 0.47707 0.54718 0.84123 0.0
H4683 H 0.46528 0.54337 0.80756 0.0
H4684 H 0.49853 0.52549 0.85776 0.0
H4685 H 0.44198 0.54141 0.86504 0.0
H4686 H 0.40887 0.53716 0.85891 0.0
H4687 H 0.40178 0.48649 0.88101 0.0
H4688 H 0.43485 0.49033 0.88707 0.0
H4689 H 0.52632 0.54357 0.95664 0.0
H4690 H 0.51421 0.54436 0.92396 0.0
H4691 H 0.47912 0.49167 0.92272 0.0
H4692 H 0.49105 0.49113 0.95548 0.0
H4693 H 0.46086 0.51484 0.90884 0.0
H4694 H 0.51516 0.49653 0.90003 0.0
H4695 H 0.5478 0.49763 0.90466 0.0
H4696 H 0.5588 0.54891 0.88381 0.0
H4697 H 0.52621 0.54829 0.87942 0.0
C4698 C 0.44535 0.50181 0.81786 0.0
C4699 C 0.45019 0.51588 0.8071 0.0
C4700 C 0.45184 0.50399 0.83687 0.0
C4701 C 0.46344 0.52026 0.84546 0.0
C4702 C 0.46804 0.53456 0.83483 0.0
C4703 C 0.46126 0.53244 0.81572 0.0
C4704 C 0.47161 0.52157 0.86522 0.0
C4705 C 0.49038 0.52364 0.86906 0.0
C4706 C 0.46082 0.5183 0.87971 0.0
C4707 C 0.44091 0.51613 0.87643 0.0
C4708 C 0.43336 0.52932 0.86851 0.0
C4709 C 0.4146 0.52699 0.86506 0.0
C4710 C 0.40323 0.51156 0.86955 0.0
C4711 C 0.4106 0.49845 0.87755 0.0
C4712 C 0.42936 0.50071 0.88104 0.0
C4713 C 0.51626 0.53207 0.94918 0.0
C4714 C 0.50981 0.51711 0.95823 0.0
C4715 C 0.50934 0.53252 0.9306 0.0
C4716 C 0.49584 0.51802 0.92086 0.0
C4717 C 0.48954 0.50298 0.92995 0.0
C4718 C 0.49648 0.50255 0.94853 0.0
C4719 C 0.48784 0.51885 0.90145 0.0
C4720 C 0.46909 0.51703 0.89765 0.0
C4721 C 0.49862 0.522 0.88691 0.0
C4722 C 0.51825 0.52248 0.88964 0.0
C4723 C 0.52454 0.50815 0.89664 0.0
C4724 C 0.54304 0.50866 0.89918 0.0
C4725 C 0.55537 0.52336 0.89459 0.0
C4726 C 0.54923 0.53755 0.88741 0.0
C4727 C 0.53075 0.53713 0.8849 0.0
H4728 H 0.56969 0.52373 0.89654 0.0
H4729 H 0.38871 0.50976 0.86683 0.0
H4730 H 0.78218 0.18208 0.07732 0.0
H4731 H 0.78995 0.20079 0.10748 0.0
H4732 H 0.77305 0.15373 0.13528 0.0
H4733 H 0.76382 0.13515 0.10463 0.0
H4734 H 0.75512 0.17844 0.14295 0.0
H4735 H 0.8179 0.17879 0.14224 0.0
H4736 H 0.84547 0.18115 0.12704 0.0
H4737 H 0.84485 0.23576 0.11848 0.0
H4738 H 0.81715 0.23364 0.13338 0.0
H4739 H 0.79049 0.22587 0.23245 0.0
H4740 H 0.7873 0.20691 0.20284 0.0
H4741 H 0.7787 0.25099 0.17303 0.0
H4742 H 0.78041 0.26982 0.20263 0.0
H4743 H 0.80874 0.22828 0.16672 0.0
H4744 H 0.74621 0.22796 0.16764 0.0
H4745 H 0.71771 0.22534 0.18112 0.0
H4746 H 0.7171 0.1703 0.18864 0.0
H4747 H 0.74594 0.17272 0.17577 0.0
C4748 C 0.78076 0.17575 0.08997 0.0
C4749 C 0.77242 0.15755 0.08918 0.0
C4750 C 0.78533 0.18632 0.10711 0.0
C4751 C 0.78226 0.17845 0.12343 0.0
C4752 C 0.7755 0.15982 0.12267 0.0
C4753 C 0.77029 0.14934 0.1054 0.0
C4754 C 0.78304 0.19023 0.14059 0.0
C4755 C 0.76698 0.18906 0.14853 0.0
C4756 C 0.79827 0.20445 0.14699 0.0
C4757 C 0.81546 0.20605 0.13892 0.0
C4758 C 0.82366 0.1913 0.13712 0.0
C4759 C 0.83929 0.19259 0.12853 0.0
C4760 C 0.84691 0.20859 0.1218 0.0
C4761 C 0.83897 0.22338 0.12374 0.0
C4762 C 0.82333 0.22217 0.1323 0.0
C4763 C 0.78787 0.23161 0.21965 0.0
C4764 C 0.7854 0.2493 0.21982 0.0
C4765 C 0.78594 0.22074 0.20288 0.0
C4766 C 0.78221 0.22768 0.18626 0.0
C4767 C 0.78114 0.24561 0.1861 0.0
C4768 C 0.78249 0.2564 0.20295 0.0
C4769 C 0.78103 0.21624 0.16907 0.0
C4770 C 0.79699 0.2175 0.16118 0.0
C4771 C 0.76574 0.20206 0.16287 0.0
C4772 C 0.74849 0.20064 0.171 0.0
C4773 C 0.74023 0.21539 0.17248 0.0
C4774 C 0.72395 0.21391 0.17993 0.0
C4775 C 0.71562 0.19766 0.18569 0.0
C4776 C 0.72358 0.18287 0.18412 0.0
C4777 C 0.73993 0.18431 0.1768 0.0
H4778 H 0.70308 0.19656 0.19148 0.0
H4779 H 0.85897 0.20953 0.11507 0.0
H4780 H 0.13802 0.56505 0.29577 0.0
H4781 H 0.12803 0.56237 0.3262 0.0
H4782 H 0.1347 0.50755 0.32295 0.0
H4783 H 0.14445 0.50993 0.29211 0.0
H4784 H 0.10066 0.51213 0.32965 0.0
H4785 H 0.16272 0.53882 0.35505 0.0
H4786 H 0.19124 0.56119 0.3548 0.0
H4787 H 0.16512 0.60436 0.36795 0.0
H4788 H 0.13641 0.58234 0.36797 0.0
H4789 H 0.05827 0.52801 0.41236 0.0
H4790 H 0.07865 0.51742 0.39197 0.0
H4791 H 0.09513 0.57109 0.37717 0.0
H4792 H 0.07547 0.58187 0.39775 0.0
H4793 H 0.12333 0.55729 0.38607 0.0
H4794 H 0.0639 0.53779 0.35031 0.0
H4795 H 0.03236 0.5208 0.34109 0.0
H4796 H 0.04949 0.47083 0.33862 0.0
H4797 H 0.08113 0.48753 0.34839 0.0
C4798 C 0.1375 0.55246 0.30154 0.0
C4799 C 0.14173 0.53762 0.29153 0.0
C4800 C 0.13204 0.55104 0.31901 0.0
C4801 C 0.13105 0.53488 0.32681 0.0
C4802 C 0.13567 0.52015 0.3171 0.0
C4803 C 0.14109 0.52154 0.29953 0.0
C4804 C 0.12295 0.53301 0.34402 0.0
C4805 C 0.10578 0.52148 0.34239 0.0
C4806 C 0.12972 0.54565 0.36017 0.0
C4807 C 0.14741 0.55885 0.36171 0.0
C4808 C 0.16308 0.55307 0.35803 0.0
C4809 C 0.17927 0.56571 0.35784 0.0
C4810 C 0.18 0.58418 0.36141 0.0
C4811 C 0.16457 0.59005 0.36528 0.0
C4812 C 0.14835 0.57749 0.36546 0.0
C4813 C 0.06626 0.53747 0.40468 0.0
C4814 C 0.06533 0.55573 0.40644 0.0
C4815 C 0.07772 0.53138 0.39312 0.0
C4816 C 0.08822 0.54345 0.38323 0.0
C4817 C 0.08712 0.5616 0.38483 0.0
C4818 C 0.07575 0.5677 0.39635 0.0
C4819 C 0.10042 0.53747 0.37099 0.0
C4820 C 0.11847 0.54725 0.37383 0.0
C4821 C 0.09406 0.52397 0.35537 0.0
C4822 C 0.07487 0.51391 0.35069 0.0
C4823 C 0.06092 0.52317 0.3483 0.0
C4824 C 0.04302 0.51359 0.34286 0.0
C4825 C 0.0389 0.49474 0.33943 0.0
C4826 C 0.05268 0.48543 0.34146 0.0
C4827 C 0.07059 0.49494 0.34703 0.0
H4828 H 0.02504 0.48736 0.33508 0.0
H4829 H 0.19251 0.59394 0.36114 0.0
H4830 H 0.80887 0.84056 0.58462 0.0
H4831 H 0.80255 0.82928 0.61385 0.0
H4832 H 0.74943 0.84029 0.60602 0.0
H4833 H 0.75592 0.85225 0.57654 0.0
H4834 H 0.76754 0.84922 0.64361 0.0
H4835 H 0.75366 0.79787 0.59433 0.0
H4836 H 0.76106 0.77956 0.56749 0.0
H4837 H 0.80742 0.77139 0.60169 0.0
H4838 H 0.8004 0.7898 0.62867 0.0
H4839 H 0.74414 0.79781 0.71751 0.0
H4840 H 0.7433 0.80979 0.68733 0.0
H4841 H 0.7918 0.79199 0.6775 0.0
H4842 H 0.7917 0.77883 0.70668 0.0
H4843 H 0.77159 0.78574 0.64719 0.0
H4844 H 0.79013 0.83758 0.69438 0.0
H4845 H 0.78689 0.85704 0.72254 0.0
H4846 H 0.73799 0.86653 0.6945 0.0
H4847 H 0.74078 0.84686 0.66626 0.0
C4848 C 0.79582 0.84064 0.58905 0.0
C4849 C 0.78272 0.84695 0.57813 0.0
C4850 C 0.79226 0.8342 0.6058 0.0
C4851 C 0.77539 0.83356 0.61182 0.0
C4852 C 0.76249 0.84057 0.60144 0.0
C4853 C 0.76616 0.84732 0.58465 0.0
C4854 C 0.77128 0.82482 0.62857 0.0
C4855 C 0.76804 0.83524 0.64436 0.0
C4856 C 0.77261 0.80677 0.62962 0.0
C4857 C 0.7765 0.79524 0.61351 0.0
C4858 C 0.76544 0.79219 0.59611 0.0
C4859 C 0.76958 0.7818 0.58088 0.0
C4860 C 0.7847 0.77432 0.58288 0.0
C4861 C 0.79569 0.77716 0.60016 0.0
C4862 C 0.79161 0.78754 0.61544 0.0
C4863 C 0.75449 0.79644 0.70874 0.0
C4864 C 0.76799 0.78753 0.71428 0.0
C4865 C 0.7541 0.80334 0.69161 0.0
C4866 C 0.76768 0.8021 0.68026 0.0
C4867 C 0.78111 0.79306 0.6859 0.0
C4868 C 0.78108 0.78559 0.70259 0.0
C4869 C 0.7682 0.81022 0.66255 0.0
C4870 C 0.77078 0.79966 0.6465 0.0
C4871 C 0.76693 0.82832 0.66151 0.0
C4872 C 0.76556 0.84061 0.67827 0.0
C4873 C 0.77865 0.84377 0.69424 0.0
C4874 C 0.77689 0.85482 0.71022 0.0
C4875 C 0.76222 0.86298 0.71032 0.0
C4876 C 0.74933 0.86017 0.69441 0.0
C4877 C 0.751 0.84908 0.67841 0.0
H4878 H 0.76085 0.8715 0.72272 0.0
H4879 H 0.7879 0.76632 0.57106 0.0
H4880 H 0.72782 0.41825 0.48887 0.0
H4881 H 0.70281 0.43368 0.48741 0.0
H4882 H 0.73969 0.48345 0.51295 0.0
H4883 H 0.76486 0.46822 0.51382 0.0
H4884 H 0.70876 0.46502 0.53243 0.0
H4885 H 0.72412 0.4878 0.47538 0.0
H4886 H 0.73098 0.48439 0.44293 0.0
H4887 H 0.6782 0.45007 0.42493 0.0
H4888 H 0.67109 0.45308 0.45737 0.0
H4889 H 0.65335 0.52189 0.54746 0.0
H4890 H 0.67714 0.51254 0.5316 0.0
H4891 H 0.63819 0.46588 0.50194 0.0
H4892 H 0.61427 0.47535 0.51784 0.0
H4893 H 0.66937 0.48245 0.48167 0.0
H4894 H 0.65441 0.45796 0.53819 0.0
H4895 H 0.6479 0.45894 0.57079 0.0
H4896 H 0.70045 0.49337 0.58987 0.0
H4897 H 0.70707 0.49302 0.55728 0.0
C4898 C 0.73051 0.43251 0.49405 0.0
C4899 C 0.74796 0.44209 0.50195 0.0
C4900 C 0.71638 0.44132 0.49288 0.0
C4901 C 0.71963 0.45963 0.49991 0.0
C4902 C 0.73717 0.46934 0.50722 0.0
C4903 C 0.75138 0.46065 0.50794 0.0
C4904 C 0.70435 0.46758 0.50308 0.0
C4905 C 0.70031 0.46914 0.52142 0.0
C4906 C 0.69309 0.47209 0.48842 0.0
C4907 C 0.69714 0.47052 0.46884 0.0
C4908 C 0.71402 0.4794 0.46453 0.0
C4909 C 0.71795 0.47758 0.44613 0.0
C4910 C 0.70505 0.46698 0.43188 0.0
C4911 C 0.68817 0.45826 0.436 0.0
C4912 C 0.68418 0.46005 0.45438 0.0
C4913 C 0.64988 0.50992 0.53717 0.0
C4914 C 0.63234 0.49905 0.53395 0.0
C4915 C 0.66333 0.50472 0.52802 0.0
C4916 C 0.65929 0.48852 0.51577 0.0
C4917 C 0.6414 0.47848 0.51129 0.0
C4918 C 0.6279 0.48372 0.52047 0.0
C4919 C 0.67416 0.48037 0.51118 0.0
C4920 C 0.67794 0.47848 0.49266 0.0
C4921 C 0.6852 0.47524 0.52565 0.0
C4922 C 0.6811 0.47573 0.54525 0.0
C4923 C 0.66446 0.466 0.54929 0.0
C4924 C 0.66076 0.4664 0.56778 0.0
C4925 C 0.67372 0.47628 0.58239 0.0
C4926 C 0.69039 0.48579 0.57853 0.0
C4927 C 0.6941 0.48553 0.56005 0.0
H4928 H 0.67087 0.4765 0.5967 0.0
H4929 H 0.70813 0.46555 0.41765 0.0
H4930 H 0.22454 0.12129 0.5176 0.0
H4931 H 0.19605 0.09894 0.51717 0.0
H4932 H 0.17016 0.12453 0.47502 0.0
H4933 H 0.19823 0.1472 0.4761 0.0
H4934 H 0.15224 0.12236 0.50334 0.0
H4935 H 0.17807 0.08101 0.46623 0.0
H4936 H 0.2009 0.0639 0.45905 0.0
H4937 H 0.19407 0.03812 0.50854 0.0
H4938 H 0.17135 0.05523 0.51613 0.0
H4939 H 0.0663 0.06201 0.48378 0.0
H4940 H 0.09648 0.07976 0.48139 0.0
H4941 H 0.11941 0.05344 0.52479 0.0
H4942 H 0.0894 0.03549 0.52706 0.0
H4943 H 0.13921 0.05549 0.49701 0.0
H4944 H 0.11303 0.09676 0.53372 0.0
H4945 H 0.09098 0.11473 0.54133 0.0
H4946 H 0.09885 0.1412 0.49244 0.0
H4947 H 0.12082 0.1233 0.48443 0.0
C4948 C 0.21283 0.1218 0.50797 0.0
C4949 C 0.21337 0.13598 0.49703 0.0
C4950 C 0.1966 0.10904 0.50769 0.0
C4951 C 0.18095 0.11013 0.49612 0.0
C4952 C 0.182 0.12355 0.48419 0.0
C4953 C 0.19801 0.13645 0.48478 0.0
C4954 C 0.16303 0.09883 0.49784 0.0
C4955 C 0.14931 0.10771 0.50163 0.0
C4956 C 0.15943 0.07978 0.49636 0.0
C4957 C 0.17316 0.06955 0.49185 0.0
C4958 C 0.18156 0.07181 0.47567 0.0
C4959 C 0.19445 0.06208 0.4715 0.0
C4960 C 0.19898 0.04997 0.48336 0.0
C4961 C 0.19058 0.04752 0.49938 0.0
C4962 C 0.17768 0.05722 0.50361 0.0
C4963 C 0.0778 0.05997 0.49274 0.0
C4964 C 0.07552 0.04729 0.50551 0.0
C4965 C 0.095 0.07018 0.49145 0.0
C4966 C 0.11014 0.06805 0.50308 0.0
C4967 C 0.1079 0.05526 0.51567 0.0
C4968 C 0.09075 0.04498 0.5169 0.0
C4969 C 0.12836 0.07905 0.50203 0.0
C4970 C 0.14215 0.07014 0.49859 0.0
C4971 C 0.13205 0.09812 0.50379 0.0
C4972 C 0.11843 0.10852 0.50836 0.0
C4973 C 0.10991 0.10625 0.52448 0.0
C4974 C 0.09746 0.11646 0.52889 0.0
C4975 C 0.09346 0.12902 0.51734 0.0
C4976 C 0.10192 0.13143 0.50135 0.0
C4977 C 0.11438 0.12127 0.49688 0.0
H4978 H 0.08385 0.13693 0.5208 0.0
H4979 H 0.20896 0.04245 0.48011 0.0
H4980 H 0.16917 0.99504 0.75971 0.0
H4981 H 0.18643 0.9719 0.75492 0.0
H4982 H 0.16663 0.94791 0.80221 0.0
H4983 H 0.15008 0.97145 0.80756 0.0
H4984 H 0.19973 0.9481 0.80434 0.0
H4985 H 0.15101 0.92988 0.75372 0.0
H4986 H 0.13085 0.93186 0.72536 0.0
H4987 H 0.17627 0.94216 0.69488 0.0
H4988 H 0.19674 0.94057 0.72312 0.0
H4989 H 0.22139 0.86125 0.76999 0.0
H4990 H 0.20715 0.88511 0.7825 0.0
H4991 H 0.23834 0.92269 0.75139 0.0
H4992 H 0.25264 0.89914 0.73914 0.0
H4993 H 0.19855 0.9139 0.74212 0.0
H4994 H 0.24698 0.93225 0.79372 0.0
H4995 H 0.26632 0.92891 0.82208 0.0
H4996 H 0.21974 0.91627 0.85056 0.0
H4997 H 0.20005 0.91919 0.82224 0.0
C4998 C 0.1685 0.98483 0.76908 0.0
C4999 C 0.15825 0.9851 0.78402 0.0
C5000 C 0.17827 0.97149 0.76624 0.0
C5001 C 0.17765 0.95789 0.77801 0.0
C5002 C 0.16739 0.9582 0.79292 0.0
C5003 C 0.15789 0.97168 0.79595 0.0
C5004 C 0.18811 0.9437 0.77524 0.0
C5005 C 0.1992 0.94044 0.79075 0.0
C5006 C 0.18772 0.93379 0.75748 0.0
C5007 C 0.17545 0.93533 0.74064 0.0
C5008 C 0.15673 0.9328 0.74104 0.0
C5009 C 0.14524 0.9338 0.72497 0.0
C5010 C 0.15228 0.93719 0.70835 0.0
C5011 C 0.17083 0.93959 0.70777 0.0
C5012 C 0.18239 0.93865 0.72381 0.0
C5013 C 0.22568 0.8748 0.76646 0.0
C5014 C 0.23793 0.87837 0.75346 0.0
C5015 C 0.21752 0.88837 0.77354 0.0
C5016 C 0.2216 0.90558 0.76768 0.0
C5017 C 0.23497 0.90948 0.756 0.0
C5018 C 0.24313 0.89604 0.74903 0.0
C5019 C 0.21018 0.91862 0.77109 0.0
C5020 C 0.19888 0.92155 0.75568 0.0
C5021 C 0.21023 0.92801 0.78892 0.0
C5022 C 0.222 0.92564 0.80573 0.0
C5023 C 0.24081 0.92845 0.80591 0.0
C5024 C 0.25185 0.92671 0.82202 0.0
C5025 C 0.24426 0.9223 0.83809 0.0
C5026 C 0.2256 0.91962 0.83808 0.0
C5027 C 0.2145 0.9213 0.822 0.0
H5028 H 0.25284 0.92104 0.85057 0.0
H5029 H 0.14335 0.9379 0.69591 0.0
H5030 H 0.33601 0.92651 0.98455 0.0
H5031 H 0.36303 0.94758 0.97897 0.0
H5032 H 0.36314 0.98025 0.03126 0.0
H5033 H 0.33616 0.95853 0.03733 0.0
H5034 H 0.38046 0.99667 0.99522 0.0
H5035 H 0.37829 0.95066 0.03969 0.0
H5036 H 0.36969 0.91969 0.04761 0.0
H5037 H 0.39593 0.90048 0.00285 0.0
H5038 H 0.40389 0.93126 0.99407 0.0
H5039 H 0.47132 0.03283 0.02705 0.0
H5040 H 0.4394 0.01853 0.02706 0.0
H5041 H 0.4464 0.97083 0.99383 0.0
H5042 H 0.47841 0.98487 0.99468 0.0
H5043 H 0.42471 0.96171 0.01698 0.0
H5044 H 0.42938 0.00342 0.97249 0.0
H5045 H 0.43782 0.03219 0.95958 0.0
H5046 H 0.40906 0.05718 -0.00172 0.0
H5047 H 0.4005 0.02857 0.01149 0.0
C5048 C 0.34148 0.93856 0.99454 0.0
C5049 C 0.33487 0.94076 0.01175 0.0
C5050 C 0.35666 0.95064 0.99118 0.0
C5051 C 0.36503 0.96501 0.00495 0.0
C5052 C 0.35666 0.96896 0.02067 0.0
C5053 C 0.34151 0.95659 0.02424 0.0
C5054 C 0.38428 0.97224 0.00559 0.0
C5055 C 0.39025 0.98926 0.00017 0.0
C5056 C 0.39671 0.96184 0.01105 0.0
C5057 C 0.39114 0.9432 0.01585 0.0
C5058 C 0.38172 0.93977 0.03116 0.0
C5059 C 0.37706 0.92225 0.03587 0.0
C5060 C 0.38213 0.90809 0.02565 0.0
C5061 C 0.39184 0.91142 0.01064 0.0
C5062 C 0.39632 0.92888 0.00572 0.0
C5063 C 0.46606 0.01896 0.0206 0.0
C5064 C 0.47688 0.00961 0.01112 0.0
C5065 C 0.44792 0.01102 0.02022 0.0
C5066 C 0.44062 0.99398 0.00988 0.0
C5067 C 0.45188 0.98409 0.00171 0.0
C5068 C 0.47008 0.99192 0.0024 0.0
C5069 C 0.42115 0.98656 0.00724 0.0
C5070 C 0.41506 0.96929 0.01203 0.0
C5071 C 0.4087 0.99648 0.00053 0.0
C5072 C 0.41444 0.01389 0.9931 0.0
C5073 C 0.42502 0.0151 0.97839 0.0
C5074 C 0.42978 0.03137 0.97097 0.0
C5075 C 0.42404 0.04653 0.97813 0.0
C5076 C 0.41353 0.04545 0.99275 0.0
C5077 C 0.40868 0.0292 0.00019 0.0
H5078 H 0.42771 0.05909 0.97232 0.0
H5079 H 0.37866 0.89457 0.02944 0.0
H5080 H 0.83885 0.54117 0.80593 0.0
H5081 H 0.82367 0.56607 0.80297 0.0
H5082 H 0.85455 0.58264 0.75881 0.0
H5083 H 0.8697 0.55802 0.76157 0.0
H5084 H 0.85723 0.60964 0.78893 0.0
H5085 H 0.81374 0.56456 0.74642 0.0
H5086 H 0.79205 0.53525 0.73683 0.0
H5087 H 0.75976 0.54827 0.77879 0.0
H5088 H 0.78144 0.5776 0.78884 0.0
H5089 H 0.81781 0.65994 0.72925 0.0
H5090 H 0.83186 0.64021 0.74733 0.0
H5091 H 0.79198 0.63906 0.78528 0.0
H5092 H 0.77776 0.65881 0.76701 0.0
H5093 H 0.7925 0.60576 0.76742 0.0
H5094 H 0.83701 0.65593 0.80361 0.0
H5095 H 0.86012 0.68464 0.80839 0.0
H5096 H 0.89162 0.66138 0.77142 0.0
H5097 H 0.86871 0.63258 0.7664 0.0
C5098 C 0.84224 0.55005 0.79549 0.0
C5099 C 0.85563 0.54795 0.78421 0.0
C5100 C 0.83357 0.56414 0.79382 0.0
C5101 C 0.83829 0.5761 0.78086 0.0
C5102 C 0.85102 0.57354 0.76903 0.0
C5103 C 0.85963 0.55951 0.77066 0.0
C5104 C 0.83088 0.59207 0.78022 0.0
C5105 C 0.84306 0.60892 0.78434 0.0
C5106 C 0.8124 0.59079 0.77455 0.0
C5107 C 0.79937 0.57314 0.76861 0.0
C5108 C 0.80213 0.56109 0.75377 0.0
C5109 C 0.78981 0.54449 0.7482 0.0
C5110 C 0.77458 0.53986 0.75726 0.0
C5111 C 0.7716 0.55185 0.77184 0.0
C5112 C 0.7839 0.56847 0.77748 0.0
C5113 C 0.81227 0.65567 0.74162 0.0
C5114 C 0.79663 0.66046 0.74666 0.0
C5115 C 0.82043 0.6447 0.7521 0.0
C5116 C 0.813 0.63842 0.7677 0.0
C5117 C 0.79793 0.64401 0.77337 0.0
C5118 C 0.78983 0.65513 0.76294 0.0
C5119 C 0.81897 0.62349 0.77557 0.0
C5120 C 0.80654 0.60667 0.7728 0.0
C5121 C 0.8374 0.62472 0.78177 0.0
C5122 C 0.85112 0.64211 0.78464 0.0
C5123 C 0.84882 0.65698 0.79643 0.0
C5124 C 0.86191 0.67325 0.79921 0.0
C5125 C 0.87732 0.67484 0.79021 0.0
C5126 C 0.8797 0.66014 0.77842 0.0
C5127 C 0.8667 0.64382 0.77566 0.0
H5128 H 0.88743 0.68745 0.79236 0.0
H5129 H 0.76505 0.52701 0.75293 0.0
H5130 H 0.79035 0.60588 0.00273 0.0
H5131 H 0.81652 0.59239 0.00644 0.0
H5132 H 0.85213 0.64431 0.00573 0.0
H5133 H 0.82591 0.65809 0.00245 0.0
H5134 H 0.85928 0.61351 0.98175 0.0
H5135 H 0.85269 0.63238 0.0449 0.0
H5136 H 0.83749 0.63587 0.07289 0.0
H5137 H 0.82261 0.57825 0.07145 0.0
H5138 H 0.83751 0.5744 0.04327 0.0
H5139 H 0.93859 0.58456 0.02227 0.0
H5140 H 0.91532 0.59999 0.0107 0.0
H5141 H 0.87379 0.55392 0.01754 0.0
H5142 H 0.89697 0.53868 0.02921 0.0
H5143 H 0.87172 0.58481 0.03861 0.0
H5144 H 0.87838 0.56611 0.97486 0.0
H5145 H 0.89465 0.56311 0.94759 0.0
H5146 H 0.91048 0.62085 0.95071 0.0
H5147 H 0.89454 0.6242 0.9782 0.0
C5148 C 0.80373 0.61445 0.00332 0.0
C5149 C 0.80607 0.63305 0.00234 0.0
C5150 C 0.81866 0.60673 0.00548 0.0
C5151 C 0.83622 0.61737 0.00639 0.0
C5152 C 0.83866 0.63589 0.00504 0.0
C5153 C 0.8237 0.64373 0.00325 0.0
C5154 C 0.8519 0.60895 0.00899 0.0
C5155 C 0.86224 0.60746 0.99428 0.0
C5156 C 0.85553 0.60089 0.02524 0.0
C5157 C 0.84602 0.6031 0.04181 0.0
C5158 C 0.84595 0.62045 0.05038 0.0
C5159 C 0.83745 0.62249 0.06633 0.0
C5160 C 0.82904 0.60729 0.0739 0.0
C5161 C 0.8291 0.59001 0.06554 0.0
C5162 C 0.83757 0.58789 0.04958 0.0
C5163 C 0.9245 0.57749 0.02049 0.0
C5164 C 0.91946 0.56047 0.02653 0.0
C5165 C 0.91122 0.58631 0.01397 0.0
C5166 C 0.89281 0.57815 0.01343 0.0
C5167 C 0.8879 0.56048 0.01792 0.0
C5168 C 0.90111 0.55173 0.02445 0.0
C5169 C 0.87881 0.58881 0.01114 0.0
C5170 C 0.86884 0.59085 0.02604 0.0
C5171 C 0.87564 0.59739 0.99511 0.0
C5172 C 0.88545 0.5954 0.97875 0.0
C5173 C 0.88551 0.57817 0.96988 0.0
C5174 C 0.89463 0.5764 0.95434 0.0
C5175 C 0.90363 0.59178 0.94745 0.0
C5176 C 0.90352 0.60895 0.95608 0.0
C5177 C 0.89444 0.61079 0.97164 0.0
H5178 H 0.91065 0.59038 0.9354 0.0
H5179 H 0.82252 0.60891 0.08629 0.0
H5180 H 0.14046 0.10238 0.78431 0.0
H5181 H 0.1634 0.12981 0.78454 0.0
H5182 H 0.204 0.09881 0.78067 0.0
H5183 H 0.18082 0.07078 0.78038 0.0
H5184 H 0.21383 0.13323 0.80756 0.0
H5185 H 0.19161 0.11102 0.74279 0.0
H5186 H 0.1677 0.09803 0.7162 0.0
H5187 H 0.14477 0.14427 0.72463 0.0
H5188 H 0.16842 0.15744 0.75143 0.0
H5189 H 0.26802 0.2061 0.76235 0.0
H5190 H 0.25104 0.17623 0.76655 0.0
H5191 H 0.21256 0.20025 0.79294 0.0
H5192 H 0.23028 0.23038 0.79035 0.0
H5193 H 0.20456 0.16777 0.75431 0.0
H5194 H 0.22389 0.18782 0.82125 0.0
H5195 H 0.24681 0.20066 0.84868 0.0
H5196 H 0.27428 0.15824 0.83695 0.0
H5197 H 0.25177 0.14547 0.80905 0.0
C5198 C 0.15424 0.10124 0.78359 0.0
C5199 C 0.15876 0.08432 0.78209 0.0
C5200 C 0.16734 0.11699 0.78377 0.0
C5201 C 0.18527 0.11625 0.78241 0.0
C5202 C 0.19015 0.09955 0.78169 0.0
C5203 C 0.17692 0.08361 0.78146 0.0
C5204 C 0.19839 0.13308 0.78078 0.0
C5205 C 0.21207 0.14065 0.79577 0.0
C5206 C 0.19576 0.14284 0.76555 0.0
C5207 C 0.18174 0.13517 0.74917 0.0
C5208 C 0.18142 0.11838 0.73903 0.0
C5209 C 0.16792 0.11099 0.72391 0.0
C5210 C 0.15471 0.12031 0.71875 0.0
C5211 C 0.15502 0.13707 0.72864 0.0
C5212 C 0.16849 0.14453 0.74377 0.0
C5213 C 0.25642 0.20518 0.76978 0.0
C5214 C 0.25093 0.22076 0.77661 0.0
C5215 C 0.24662 0.18805 0.77196 0.0
C5216 C 0.23088 0.18617 0.78046 0.0
C5217 C 0.225 0.20155 0.78681 0.0
C5218 C 0.23511 0.21873 0.78521 0.0
C5219 C 0.21978 0.16802 0.7812 0.0
C5220 C 0.20649 0.16024 0.76597 0.0
C5221 C 0.22272 0.15816 0.79624 0.0
C5222 C 0.23642 0.16597 0.81279 0.0
C5223 C 0.23504 0.18147 0.82425 0.0
C5224 C 0.24791 0.18868 0.83995 0.0
C5225 C 0.26207 0.18035 0.84448 0.0
C5226 C 0.26337 0.16476 0.83334 0.0
C5227 C 0.25058 0.15755 0.81756 0.0
H5228 H 0.27198 0.18591 0.85668 0.0
H5229 H 0.14425 0.11455 0.70706 0.0
H5230 H 0.35648 0.96387 0.31674 0.0
H5231 H 0.33659 0.93369 0.31247 0.0
H5232 H 0.32877 0.93492 0.25272 0.0
H5233 H 0.34834 0.96516 0.25695 0.0
H5234 H 0.29979 0.91317 0.26698 0.0
H5235 H 0.3668 0.9241 0.27113 0.0
H5236 H 0.39785 0.93579 0.2876 0.0
H5237 H 0.38368 0.90777 0.33417 0.0
H5238 H 0.35255 0.89602 0.31801 0.0
H5239 H 0.27705 0.82045 0.24597 0.0
H5240 H 0.29364 0.85078 0.24238 0.0
H5241 H 0.32393 0.8544 0.29739 0.0
H5242 H 0.30972 0.82335 0.29915 0.0
H5243 H 0.34271 0.87485 0.2822 0.0
H5244 H 0.27771 0.86759 0.28567 0.0
H5245 H 0.24468 0.85926 0.27601 0.0
H5246 H 0.25174 0.88094 0.22423 0.0
H5247 H 0.2848 0.88936 0.23361 0.0
C5248 C 0.34965 0.95803 0.30285 0.0
C5249 C 0.35413 0.96628 0.28708 0.0
C5250 C 0.33845 0.94087 0.30044 0.0
C5251 C 0.33201 0.93213 0.28227 0.0
C5252 C 0.33396 0.9416 0.26681 0.0
C5253 C 0.34501 0.95885 0.26923 0.0
C5254 C 0.32652 0.91254 0.27897 0.0
C5255 C 0.30906 0.90465 0.27026 0.0
C5256 C 0.33878 0.90175 0.28357 0.0
C5257 C 0.35735 0.90933 0.29343 0.0
C5258 C 0.37029 0.92058 0.28494 0.0
C5259 C 0.38791 0.92717 0.2942 0.0
C5260 C 0.39273 0.92255 0.31193 0.0
C5261 C 0.37994 0.91135 0.32045 0.0
C5262 C 0.36232 0.90472 0.31125 0.0
C5263 C 0.2883 0.82736 0.25645 0.0
C5264 C 0.29264 0.81973 0.27256 0.0
C5265 C 0.29731 0.84487 0.25477 0.0
C5266 C 0.30947 0.85518 0.26995 0.0
C5267 C 0.31467 0.84686 0.28539 0.0
C5268 C 0.30652 0.82911 0.28649 0.0
C5269 C 0.31531 0.87495 0.27113 0.0
C5270 C 0.33316 0.88311 0.27903 0.0
C5271 C 0.30308 0.88594 0.26677 0.0
C5272 C 0.28363 0.87884 0.2602 0.0
C5273 C 0.27221 0.87024 0.27209 0.0
C5274 C 0.25352 0.86562 0.26672 0.0
C5275 C 0.24619 0.86961 0.24957 0.0
C5276 C 0.25748 0.87787 0.23752 0.0
C5277 C 0.27617 0.88255 0.24283 0.0
H5278 H 0.23176 0.86647 0.24577 0.0
H5279 H 0.40639 0.92761 0.31904 0.0
H5280 H 0.57792 0.34149 0.56698 0.0
H5281 H 0.5739 0.37098 0.55946 0.0
H5282 H 0.51965 0.35839 0.57331 0.0
H5283 H 0.52382 0.32891 0.58147 0.0
H5284 H 0.52207 0.37329 0.53879 0.0
H5285 H 0.55072 0.38822 0.60228 0.0
H5286 H 0.57383 0.39055 0.62955 0.0
H5287 H 0.61411 0.4207 0.60091 0.0
H5288 H 0.5913 0.41831 0.57335 0.0
H5289 H 0.50667 0.4616 0.5326 0.0
H5290 H 0.50928 0.43239 0.54146 0.0
H5291 H 0.56708 0.44805 0.5427 0.0
H5292 H 0.56441 0.47761 0.53409 0.0
H5293 H 0.56195 0.43106 0.57018 0.0
H5294 H 0.5343 0.41557 0.50624 0.0
H5295 H 0.51164 0.41354 0.47862 0.0
H5296 H 0.47038 0.38428 0.50677 0.0
H5297 H 0.49272 0.3864 0.53468 0.0
C5298 C 0.56509 0.34491 0.56847 0.0
C5299 C 0.55119 0.33257 0.57481 0.0
C5300 C 0.56284 0.36194 0.56422 0.0
C5301 C 0.54647 0.36721 0.56579 0.0
C5302 C 0.53245 0.35485 0.57194 0.0
C5303 C 0.53486 0.33792 0.57665 0.0
C5304 C 0.54401 0.38535 0.56063 0.0
C5305 C 0.53064 0.38593 0.54585 0.0
C5306 C 0.55545 0.40202 0.56935 0.0
C5307 C 0.56933 0.40286 0.58563 0.0
C5308 C 0.56456 0.39511 0.60168 0.0
C5309 C 0.57759 0.39651 0.61722 0.0
C5310 C 0.59544 0.40571 0.61694 0.0
C5311 C 0.60029 0.41353 0.6011 0.0
C5312 C 0.58732 0.41215 0.58551 0.0
C5313 C 0.51991 0.45884 0.53435 0.0
C5314 C 0.5352 0.47215 0.53208 0.0
C5315 C 0.52145 0.4419 0.5395 0.0
C5316 C 0.53838 0.43739 0.54242 0.0
C5317 C 0.55375 0.45079 0.54047 0.0
C5318 C 0.55221 0.46784 0.53544 0.0
C5319 C 0.54013 0.41912 0.54807 0.0
C5320 C 0.55337 0.41847 0.563 0.0
C5321 C 0.52869 0.40237 0.53932 0.0
C5322 C 0.51517 0.40134 0.52265 0.0
C5323 C 0.52036 0.40887 0.50662 0.0
C5324 C 0.50757 0.40767 0.4909 0.0
C5325 C 0.48957 0.39884 0.49097 0.0
C5326 C 0.48432 0.39116 0.50675 0.0
C5327 C 0.49704 0.39236 0.52253 0.0
H5328 H 0.47971 0.39789 0.47877 0.0
H5329 H 0.6055 0.40683 0.62901 0.0
H5330 H 0.45583 0.78376 0.39469 0.0
H5331 H 0.42938 0.78717 0.374 0.0
H5332 H 0.40747 0.72971 0.36829 0.0
H5333 H 0.43373 0.7264 0.3894 0.0
H5334 H 0.40284 0.74345 0.33426 0.0
H5335 H 0.39144 0.75657 0.39701 0.0
H5336 H 0.39825 0.77182 0.4295 0.0
H5337 H 0.39964 0.82305 0.40971 0.0
H5338 H 0.39312 0.80812 0.37702 0.0
H5339 H 0.30988 0.74291 0.30127 0.0
H5340 H 0.33783 0.73917 0.31923 0.0
H5341 H 0.35999 0.79652 0.32407 0.0
H5342 H 0.33236 0.80013 0.30545 0.0
H5343 H 0.36463 0.78289 0.35861 0.0
H5344 H 0.37968 0.77074 0.29663 0.0
H5345 H 0.37755 0.75655 0.26409 0.0
H5346 H 0.37009 0.70419 0.28256 0.0
H5347 H 0.37283 0.71818 0.31535 0.0
C5348 C 0.44558 0.77181 0.38862 0.0
C5349 C 0.44708 0.75475 0.39333 0.0
C5350 C 0.43033 0.77379 0.37696 0.0
C5351 C 0.4162 0.75873 0.36958 0.0
C5352 C 0.41808 0.74157 0.37371 0.0
C5353 C 0.43317 0.73965 0.38569 0.0
C5354 C 0.39931 0.76092 0.35807 0.0
C5355 C 0.39436 0.75186 0.33974 0.0
C5356 C 0.38831 0.77222 0.3649 0.0
C5357 C 0.39199 0.78124 0.38453 0.0
C5358 C 0.39334 0.77111 0.39956 0.0
C5359 C 0.39713 0.77969 0.41802 0.0
C5360 C 0.39943 0.7984 0.42167 0.0
C5361 C 0.39788 0.80855 0.40685 0.0
C5362 C 0.39413 0.80004 0.38835 0.0
C5363 C 0.32075 0.7547 0.30613 0.0
C5364 C 0.31885 0.77182 0.30195 0.0
C5365 C 0.3368 0.75256 0.31635 0.0
C5366 C 0.35124 0.76754 0.3231 0.0
C5367 C 0.34921 0.78469 0.31908 0.0
C5368 C 0.33339 0.78675 0.30839 0.0
C5369 C 0.36814 0.76539 0.33472 0.0
C5370 C 0.37307 0.77443 0.35314 0.0
C5371 C 0.37915 0.75407 0.32801 0.0
C5372 C 0.37609 0.74546 0.30834 0.0
C5373 C 0.37731 0.75618 0.29371 0.0
C5374 C 0.37613 0.74818 0.27524 0.0
C5375 C 0.37337 0.72944 0.2712 0.0
C5376 C 0.37205 0.71868 0.28568 0.0
C5377 C 0.37355 0.72665 0.30422 0.0
H5378 H 0.37241 0.72329 0.25688 0.0
H5379 H 0.40237 0.80502 0.43597 0.0
H5380 H 0.04283 0.72868 0.0409 0.0
H5381 H 0.03838 0.69582 0.03315 0.0
H5382 H 0.03898 0.68966 0.09162 0.0
H5383 H 0.04265 0.72245 0.09936 0.0
H5384 H 0.06263 0.67088 0.07253 0.0
H5385 H 0.00139 0.67489 0.06714 0.0
H5386 H 0.97443 0.68592 0.05679 0.0
H5387 H 0.97786 0.6677 -0.00049 0.0
H5388 H 0.00507 0.65681 0.00951 0.0
H5389 H 0.03095 0.57365 0.0616 0.0
H5390 H 0.03408 0.60624 0.06975 0.0
H5391 H 0.03457 0.61351 0.01163 0.0
H5392 H 0.03213 0.5809 0.00347 0.0
H5393 H 0.00975 0.63148 0.03112 0.0
H5394 H 0.07307 0.63076 0.03691 0.0
H5395 H 0.10066 0.62098 0.0477 0.0
H5396 H 0.09203 0.63197 0.10489 0.0
H5397 H 0.06465 0.64245 0.09441 0.0
C5398 C 0.04168 0.72031 0.0521 0.0
C5399 C 0.04286 0.72832 0.07075 0.0
C5400 C 0.03918 0.70146 0.04764 0.0
C5401 C 0.03834 0.69005 0.06175 0.0
C5402 C 0.03953 0.69802 0.08041 0.0
C5403 C 0.04148 0.71682 0.08481 0.0
C5404 C 0.0367 0.66998 0.05702 0.0
C5405 C 0.05091 0.66229 0.06368 0.0
C5406 C 0.02162 0.65855 0.04521 0.0
C5407 C 0.00543 0.66527 0.03906 0.0
C5408 C 0.99655 0.67344 0.05231 0.0
C5409 C 0.98118 0.67962 0.04652 0.0
C5410 C 0.97447 0.67758 0.0275 0.0
C5411 C 0.9831 0.66932 0.01424 0.0
C5412 C 0.9985 0.66314 0.01996 0.0
C5413 C 0.03185 0.58218 0.05053 0.0
C5414 C 0.03127 0.57454 0.03184 0.0
C5415 C 0.03366 0.60089 0.05523 0.0
C5416 C 0.0345 0.61254 0.04136 0.0
C5417 C 0.03392 0.60494 0.02266 0.0
C5418 C 0.03262 0.58626 0.018 0.0
C5419 C 0.03577 0.6325 0.04645 0.0
C5420 C 0.02145 0.64012 0.03993 0.0
C5421 C 0.05067 0.64387 0.05848 0.0
C5422 C 0.06674 0.63716 0.06488 0.0
C5423 C 0.07698 0.63093 0.05178 0.0
C5424 C 0.0926 0.62531 0.05784 0.0
C5425 C 0.09795 0.62555 0.07695 0.0
C5426 C 0.08781 0.63169 0.09008 0.0
C5427 C 0.07231 0.6376 0.0841 0.0
H5428 H 0.11003 0.62113 0.0816 0.0
H5429 H 0.96255 0.68234 0.02304 0.0
H5430 H 0.0362 0.24253 0.88065 0.0
H5431 H 0.06105 0.24008 0.86245 0.0
H5432 H 0.09307 0.29017 0.89321 0.0
H5433 H 0.06833 0.29294 0.91081 0.0
H5434 H 0.09606 0.29117 0.85886 0.0
H5435 H 0.09932 0.24552 0.89977 0.0
H5436 H 0.08797 0.21764 0.91333 0.0
H5437 H 0.07931 0.1867 0.85885 0.0
H5438 H 0.09037 0.21444 0.84491 0.0
H5439 H 0.18434 0.29486 0.84443 0.0
H5440 H 0.15815 0.2859 0.86076 0.0
H5441 H 0.13071 0.24897 0.81209 0.0
H5442 H 0.15704 0.2581 0.79556 0.0
H5443 H 0.12343 0.2381 0.85164 0.0
H5444 H 0.12131 0.28452 0.81144 0.0
H5445 H 0.13383 0.31268 0.79895 0.0
H5446 H 0.14082 0.34244 0.85389 0.0
H5447 H 0.12872 0.31436 0.86678 0.0
C5448 C 0.04854 0.25302 0.88349 0.0
C5449 C 0.05017 0.26797 0.89721 0.0
C5450 C 0.06284 0.25153 0.87316 0.0
C5451 C 0.07917 0.26485 0.87648 0.0
C5452 C 0.08071 0.27969 0.89022 0.0
C5453 C 0.06646 0.28126 0.90036 0.0
C5454 C 0.09452 0.26406 0.86537 0.0
C5455 C 0.10203 0.27954 0.85749 0.0
C5456 C 0.10218 0.24875 0.86289 0.0
C5457 C 0.09546 0.2321 0.87126 0.0
C5458 C 0.09484 0.2328 0.89065 0.0
C5459 C 0.08849 0.21701 0.89842 0.0
C5460 C 0.08286 0.20042 0.88695 0.0
C5461 C 0.08362 0.19957 0.86771 0.0
C5462 C 0.08994 0.21532 0.85987 0.0
C5463 C 0.17308 0.2842 0.83751 0.0
C5464 C 0.17284 0.27704 0.81878 0.0
C5465 C 0.15804 0.27917 0.84682 0.0
C5466 C 0.14236 0.26686 0.83764 0.0
C5467 C 0.14268 0.2584 0.81952 0.0
C5468 C 0.15777 0.26354 0.81011 0.0
C5469 C 0.12508 0.26539 0.84585 0.0
C5470 C 0.11724 0.24957 0.85301 0.0
C5471 C 0.11708 0.2804 0.84785 0.0
C5472 C 0.1243 0.29731 0.8401 0.0
C5473 C 0.1257 0.29703 0.82089 0.0
C5474 C 0.13269 0.31299 0.81373 0.0
C5475 C 0.13816 0.32934 0.82562 0.0
C5476 C 0.13662 0.32976 0.8447 0.0
C5477 C 0.1297 0.31383 0.85194 0.0
H5478 H 0.14355 0.34168 0.82005 0.0
H5479 H 0.07797 0.18822 0.89299 0.0
H5480 H 0.56348 0.75371 0.88873 0.0
H5481 H 0.5649 0.72603 0.90312 0.0
H5482 H 0.50767 0.71646 0.90643 0.0
H5483 H 0.50637 0.74386 0.89274 0.0
H5484 H 0.52438 0.71411 0.93873 0.0
H5485 H 0.52547 0.69029 0.8748 0.0
H5486 H 0.5377 0.69022 0.84469 0.0
H5487 H 0.58848 0.68434 0.87198 0.0
H5488 H 0.57658 0.68456 0.90232 0.0
H5489 H 0.49218 0.62071 0.94247 0.0
H5490 H 0.50324 0.64609 0.92564 0.0
H5491 H 0.5534 0.65984 0.96312 0.0
H5492 H 0.54217 0.63446 0.98039 0.0
H5493 H 0.54602 0.66124 0.91293 0.0
H5494 H 0.54113 0.68582 0.97861 0.0
H5495 H 0.52505 0.68587 0.00633 0.0
H5496 H 0.47684 0.68968 0.97204 0.0
H5497 H 0.49258 0.6893 0.94408 0.0
C5498 C 0.55123 0.74546 0.89228 0.0
C5499 C 0.53485 0.75099 0.88978 0.0
C5500 C 0.55202 0.72969 0.90053 0.0
C5501 C 0.5364 0.7192 0.90608 0.0
C5502 C 0.51997 0.72438 0.90261 0.0
C5503 C 0.51924 0.74006 0.89467 0.0
C5504 C 0.53681 0.70324 0.91626 0.0
C5505 C 0.5293 0.70266 0.93309 0.0
C5506 C 0.5432 0.68822 0.90907 0.0
C5507 C 0.55021 0.68758 0.89083 0.0
C5508 C 0.53927 0.68904 0.87438 0.0
C5509 C 0.54613 0.68898 0.85728 0.0
C5510 C 0.56387 0.68732 0.85643 0.0
C5511 C 0.57475 0.68564 0.87267 0.0
C5512 C 0.56795 0.6857 0.88981 0.0
C5513 C 0.50579 0.6288 0.94681 0.0
C5514 C 0.51627 0.62565 0.96281 0.0
C5515 C 0.51209 0.64331 0.93717 0.0
C5516 C 0.52906 0.65494 0.94321 0.0
C5517 C 0.54024 0.651 0.95823 0.0
C5518 C 0.53388 0.63645 0.96801 0.0
C5519 C 0.53367 0.6723 0.93531 0.0
C5520 C 0.54176 0.673 0.91881 0.0
C5521 C 0.52747 0.6874 0.94253 0.0
C5522 C 0.51794 0.68721 0.95925 0.0
C5523 C 0.52703 0.68637 0.97696 0.0
C5524 C 0.518 0.68653 0.99272 0.0
C5525 C 0.49991 0.68769 0.99094 0.0
C5526 C 0.49083 0.68871 0.9734 0.0
C5527 C 0.49979 0.6885 0.9576 0.0
H5528 H 0.49297 0.68788 0.00316 0.0
H5529 H 0.56918 0.68731 0.84319 0.0
H5530 H 0.0667 0.73578 0.73558 0.0
H5531 H 0.09927 0.74001 0.74397 0.0
H5532 H 0.10866 0.77273 0.69949 0.0
H5533 H 0.07583 0.76843 0.69089 0.0
H5534 H 0.131 0.7501 0.69965 0.0
H5535 H 0.11757 0.79158 0.74636 0.0
H5536 H 0.10153 0.80221 0.77141 0.0
H5537 H 0.11704 0.76375 0.80528 0.0
H5538 H 0.13299 0.75272 0.78032 0.0
H5539 H 0.22582 0.78189 0.73025 0.0
H5540 H 0.19355 0.77908 0.72162 0.0
H5541 H 0.18217 0.74593 0.76541 0.0
H5542 H 0.21472 0.749 0.77445 0.0
H5543 H 0.16104 0.76954 0.76505 0.0
H5544 H 0.17527 0.72865 0.71712 0.0
H5545 H 0.19179 0.71959 0.69176 0.0
H5546 H 0.17535 0.75888 0.65969 0.0
H5547 H 0.15897 0.76838 0.68499 0.0
C5548 C 0.0756 0.74409 0.72765 0.0
C5549 C 0.06834 0.75186 0.71258 0.0
C5550 C 0.0944 0.74654 0.73252 0.0
C5551 C 0.10679 0.75685 0.72256 0.0
C5552 C 0.09962 0.76471 0.70753 0.0
C5553 C 0.08073 0.76236 0.70269 0.0
C5554 C 0.12703 0.75906 0.72771 0.0
C5555 C 0.13755 0.75461 0.71392 0.0
C5556 C 0.13589 0.76466 0.74636 0.0
C5557 C 0.1263 0.7712 0.76139 0.0
C5558 C 0.11743 0.78528 0.75909 0.0
C5559 C 0.10838 0.7914 0.77328 0.0
C5560 C 0.10822 0.78362 0.7899 0.0
C5561 C 0.11715 0.76974 0.79239 0.0
C5562 C 0.12621 0.76356 0.77823 0.0
C5563 C 0.21656 0.77386 0.73808 0.0
C5564 C 0.22318 0.76552 0.75303 0.0
C5565 C 0.19792 0.7722 0.733 0.0
C5566 C 0.18506 0.76203 0.74256 0.0
C5567 C 0.1916 0.7538 0.75763 0.0
C5568 C 0.21034 0.75548 0.76277 0.0
C5569 C 0.16497 0.76035 0.73706 0.0
C5570 C 0.15448 0.76498 0.75078 0.0
C5571 C 0.15621 0.75509 0.71831 0.0
C5572 C 0.16601 0.74934 0.70304 0.0
C5573 C 0.17529 0.73546 0.70472 0.0
C5574 C 0.18462 0.73023 0.69035 0.0
C5575 C 0.18465 0.73868 0.67414 0.0
C5576 C 0.17533 0.75236 0.67226 0.0
C5577 C 0.16601 0.75766 0.68661 0.0
H5578 H 0.19187 0.7346 0.66303 0.0
H5579 H 0.1012 0.78838 0.80088 0.0
H5580 H 0.05692 0.34509 0.41882 0.0
H5581 H 0.05555 0.37346 0.43712 0.0
H5582 H 0.02627 0.38784 0.38881 0.0
H5583 H 0.02805 0.35961 0.37047 0.0
H5584 H 0.04788 0.41693 0.40661 0.0
H5585 H 0.00486 0.36978 0.42535 0.0
H5586 H 0.99286 0.34101 0.43703 0.0
H5587 H 0.02812 0.35929 0.48899 0.0
H5588 H 0.0405 0.3881 0.47754 0.0
H5589 H 0.00814 0.48072 0.45715 0.0
H5590 H 0.01184 0.45337 0.43879 0.0
H5591 H 0.05152 0.44696 0.48308 0.0
H5592 H 0.04865 0.4751 0.50095 0.0
H5593 H 0.02435 0.41391 0.46761 0.0
H5594 H 0.0662 0.4624 0.44677 0.0
H5595 H 0.07465 0.49123 0.43395 0.0
H5596 H 0.03751 0.46935 0.3839 0.0
H5597 H 0.02844 0.44053 0.39662 0.0
C5598 C 0.05095 0.35472 0.4119 0.0
C5599 C 0.04329 0.35045 0.39297 0.0
C5600 C 0.04976 0.37077 0.4225 0.0
C5601 C 0.04049 0.38281 0.41456 0.0
C5602 C 0.03354 0.37892 0.39537 0.0
C5603 C 0.03483 0.36289 0.38476 0.0
C5604 C 0.03782 0.39924 0.42624 0.0
C5605 C 0.04253 0.41613 0.41984 0.0
C5606 C 0.03093 0.39847 0.44366 0.0
C5607 C 0.02379 0.38102 0.45048 0.0
C5608 C 0.01021 0.36759 0.43919 0.0
C5609 C 0.0033 0.3513 0.44579 0.0
C5610 C 0.00977 0.3483 0.46371 0.0
C5611 C 0.02315 0.36161 0.47509 0.0
C5612 C 0.03011 0.37794 0.46855 0.0
C5613 C 0.01817 0.47396 0.46267 0.0
C5614 C 0.02863 0.48061 0.4802 0.0
C5615 C 0.02 0.45803 0.45232 0.0
C5616 C 0.03211 0.44809 0.4594 0.0
C5617 C 0.04211 0.45434 0.47724 0.0
C5618 C 0.04046 0.47044 0.48746 0.0
C5619 C 0.03459 0.43148 0.44799 0.0
C5620 C 0.02976 0.41459 0.45442 0.0
C5621 C 0.04098 0.43214 0.43039 0.0
C5622 C 0.04647 0.44941 0.42276 0.0
C5623 C 0.05969 0.4638 0.43312 0.0
C5624 C 0.06461 0.48011 0.42586 0.0
C5625 C 0.05654 0.48209 0.40817 0.0
C5626 C 0.04366 0.46777 0.39764 0.0
C5627 C 0.0386 0.45147 0.40487 0.0
H5628 H 0.06021 0.49471 0.40263 0.0
H5629 H 0.00439 0.33568 0.46881 0.0
H5630 H 0.47711 0.26845 0.23248 0.0
H5631 H 0.44771 0.27116 0.24185 0.0
H5632 H 0.42076 0.22751 0.19875 0.0
H5633 H 0.45008 0.22504 0.18936 0.0
H5634 H 0.40208 0.25127 0.1984 0.0
H5635 H 0.42496 0.22294 0.24741 0.0
H5636 H 0.44736 0.21859 0.27268 0.0
H5637 H 0.44524 0.26896 0.30353 0.0
H5638 H 0.42293 0.27371 0.27831 0.0
H5639 H 0.31385 0.23918 0.22757 0.0
H5640 H 0.3432 0.23468 0.22028 0.0
H5641 H 0.37018 0.27846 0.26316 0.0
H5642 H 0.34087 0.28239 0.27104 0.0
H5643 H 0.38931 0.25428 0.26407 0.0
H5644 H 0.36184 0.2784 0.21165 0.0
H5645 H 0.33947 0.27836 0.18462 0.0
H5646 H 0.35072 0.23014 0.1575 0.0
H5647 H 0.37211 0.22905 0.1851 0.0
C5648 C 0.46488 0.25955 0.22491 0.0
C5649 C 0.46602 0.2467 0.20996 0.0
C5650 C 0.44797 0.26095 0.23043 0.0
C5651 C 0.43162 0.24944 0.22125 0.0
C5652 C 0.43289 0.23668 0.2062 0.0
C5653 C 0.44975 0.23527 0.20075 0.0
C5654 C 0.41324 0.25092 0.22679 0.0
C5655 C 0.39928 0.25163 0.21278 0.0
C5656 C 0.40925 0.25161 0.24553 0.0
C5657 C 0.42243 0.24877 0.26089 0.0
C5658 C 0.42935 0.23315 0.25953 0.0
C5659 C 0.44201 0.2306 0.27385 0.0
C5660 C 0.44776 0.24352 0.28968 0.0
C5661 C 0.44079 0.25898 0.29125 0.0
C5662 C 0.42811 0.26159 0.27695 0.0
C5663 C 0.32598 0.24791 0.2355 0.0
C5664 C 0.3246 0.26136 0.24983 0.0
C5665 C 0.34298 0.24538 0.23121 0.0
C5666 C 0.35943 0.25645 0.24076 0.0
C5667 C 0.35804 0.26966 0.25532 0.0
C5668 C 0.34104 0.27202 0.25978 0.0
C5669 C 0.37792 0.25455 0.23554 0.0
C5670 C 0.39201 0.25385 0.24967 0.0
C5671 C 0.38188 0.25317 0.21673 0.0
C5672 C 0.36842 0.25354 0.20056 0.0
C5673 C 0.35932 0.26762 0.20007 0.0
C5674 C 0.34681 0.26779 0.18459 0.0
C5675 C 0.34382 0.25435 0.1692 0.0
C5676 C 0.35305 0.24052 0.16943 0.0
C5677 C 0.3652 0.24 0.18508 0.0
H5678 H 0.33435 0.25447 0.15707 0.0
H5679 H 0.45759 0.24154 0.30074 0.0
H5680 H 0.62508 0.5242 0.33827 0.0
H5681 H 0.61658 0.52226 0.36985 0.0
H5682 H 0.56197 0.52385 0.34879 0.0
H5683 H 0.5706 0.52651 0.31761 0.0
H5684 H 0.57326 0.54693 0.379 0.0
H5685 H 0.57611 0.48439 0.36129 0.0
H5686 H 0.59167 0.4606 0.35151 0.0
H5687 H 0.63103 0.47773 0.40072 0.0
H5688 H 0.61586 0.50179 0.41062 0.0
H5689 H 0.52478 0.52565 0.45284 0.0
H5690 H 0.53662 0.52551 0.4232 0.0
H5691 H 0.58657 0.5163 0.44991 0.0
H5692 H 0.57369 0.51382 0.47916 0.0
H5693 H 0.58118 0.4992 0.4184 0.0
H5694 H 0.57807 0.56026 0.43781 0.0
H5695 H 0.56344 0.58461 0.44818 0.0
H5696 H 0.5266 0.57219 0.39691 0.0
H5697 H 0.54078 0.54756 0.38636 0.0
C5698 C 0.61119 0.52373 0.34037 0.0
C5699 C 0.59846 0.52543 0.3255 0.0
C5700 C 0.60634 0.52268 0.35843 0.0
C5701 C 0.58859 0.52288 0.36176 0.0
C5702 C 0.57577 0.52382 0.34667 0.0
C5703 C 0.58067 0.5252 0.32881 0.0
C5704 C 0.58325 0.52284 0.38093 0.0
C5705 C 0.57484 0.5364 0.38757 0.0
C5706 C 0.58601 0.5096 0.3925 0.0
C5707 C 0.59496 0.495 0.38658 0.0
C5708 C 0.58815 0.48315 0.36995 0.0
C5709 C 0.5969 0.46962 0.36439 0.0
C5710 C 0.61236 0.46769 0.37546 0.0
C5711 C 0.61908 0.47926 0.39214 0.0
C5712 C 0.61041 0.49284 0.39773 0.0
C5713 C 0.53803 0.5229 0.45235 0.0
C5714 C 0.54805 0.51926 0.46841 0.0
C5715 C 0.54505 0.52338 0.43539 0.0
C5716 C 0.56279 0.52149 0.43427 0.0
C5717 C 0.57287 0.51787 0.45029 0.0
C5718 C 0.5655 0.51652 0.46708 0.0
C5719 C 0.57067 0.52303 0.41637 0.0
C5720 C 0.57968 0.50986 0.40999 0.0
C5721 C 0.5687 0.53683 0.40514 0.0
C5722 C 0.56045 0.55197 0.41133 0.0
C5723 C 0.56682 0.56268 0.42876 0.0
C5724 C 0.55859 0.57652 0.43469 0.0
C5725 C 0.54409 0.57993 0.42322 0.0
C5726 C 0.53783 0.56954 0.40578 0.0
C5727 C 0.54597 0.55564 0.39982 0.0
H5728 H 0.53773 0.59064 0.42784 0.0
H5729 H 0.61911 0.45721 0.37113 0.0
H5730 H 0.31498 0.89396 0.04801 0.0
H5731 H 0.31162 0.8936 0.08109 0.0
H5732 H 0.25601 0.86438 0.06572 0.0
H5733 H 0.25913 0.86561 0.03266 0.0
H5734 H 0.26133 0.87917 0.1012 0.0
H5735 H 0.2898 0.84308 0.06099 0.0
H5736 H 0.3117 0.83692 0.04007 0.0
H5737 H 0.35551 0.85979 0.08415 0.0
H5738 H 0.33389 0.86654 0.10518 0.0
H5739 H 0.27731 0.80193 0.1535 0.0
H5740 H 0.26642 0.82024 0.13068 0.0
H5741 H 0.30695 0.86695 0.15758 0.0
H5742 H 0.31781 0.84872 0.18026 0.0
H5743 H 0.30695 0.84394 0.11733 0.0
H5744 H 0.27439 0.87723 0.15808 0.0
H5745 H 0.24976 0.88035 0.17656 0.0
H5746 H 0.21041 0.85639 0.12867 0.0
H5747 H 0.23481 0.85291 0.11 0.0
C5748 C 0.30181 0.88834 0.05183 0.0
C5749 C 0.28744 0.87909 0.03817 0.0
C5750 C 0.29987 0.88821 0.07065 0.0
C5751 C 0.28385 0.87816 0.0756 0.0
C5752 C 0.26858 0.87185 0.06204 0.0
C5753 C 0.27038 0.87242 0.04321 0.0
C5754 C 0.28447 0.87008 0.09309 0.0
C5755 C 0.27134 0.87154 0.10484 0.0
C5756 C 0.2972 0.85958 0.09734 0.0
C5757 C 0.31022 0.85565 0.08456 0.0
C5758 C 0.30411 0.84701 0.06616 0.0
C5759 C 0.31648 0.84339 0.05428 0.0
C5760 C 0.33499 0.84805 0.06074 0.0
C5761 C 0.34117 0.8563 0.07912 0.0
C5762 C 0.32887 0.86007 0.091 0.0
C5763 C 0.28354 0.81621 0.15465 0.0
C5764 C 0.29864 0.82402 0.16802 0.0
C5765 C 0.27711 0.82667 0.14197 0.0
C5766 C 0.28573 0.84494 0.14279 0.0
C5767 C 0.29991 0.85297 0.15712 0.0
C5768 C 0.30633 0.84254 0.16973 0.0
C5769 C 0.28436 0.85372 0.12588 0.0
C5770 C 0.29717 0.8519 0.11391 0.0
C5771 C 0.271 0.86325 0.12122 0.0
C5772 C 0.25642 0.86455 0.13275 0.0
C5773 C 0.26049 0.87233 0.1516 0.0
C5774 C 0.24657 0.87426 0.16207 0.0
C5775 C 0.22853 0.8685 0.15382 0.0
C5776 C 0.22438 0.86079 0.13507 0.0
C5777 C 0.23824 0.85884 0.12455 0.0
H5778 H 0.21778 0.87008 0.16193 0.0
H5779 H 0.34454 0.84521 0.05155 0.0
H5780 H 0.92062 0.54011 0.83688 0.0
H5781 H 0.94073 0.54152 0.86571 0.0
H5782 H 0.90848 0.4909 0.87669 0.0
H5783 H 0.88812 0.48933 0.84785 0.0
H5784 H 0.91927 0.517 0.90689 0.0
H5785 H 0.94472 0.48775 0.85944 0.0
H5786 H 0.95767 0.48055 0.83067 0.0
H5787 H 0.99925 0.52932 0.84453 0.0
H5788 H 0.98644 0.53697 0.87321 0.0
H5789 H 0.99172 0.49415 0.96276 0.0
H5790 H 0.97212 0.49397 0.93377 0.0
H5791 H 0.98478 0.55234 0.94163 0.0
H5792 H 0.00355 0.55256 0.97161 0.0
H5793 H 0.98417 0.52056 0.90204 0.0
H5794 H 0.95375 0.54996 0.94939 0.0
H5795 H 0.94149 0.55241 0.97937 0.0
H5796 H 0.90886 0.49841 0.96526 0.0
H5797 H 0.92143 0.49544 0.93545 0.0
C5798 C 0.91742 0.52962 0.84576 0.0
C5799 C 0.90333 0.51429 0.84001 0.0
C5800 C 0.9291 0.53025 0.86188 0.0
C5801 C 0.92636 0.51581 0.87237 0.0
C5802 C 0.91089 0.50177 0.86813 0.0
C5803 C 0.89921 0.50108 0.85196 0.0
C5804 C 0.93935 0.516 0.88836 0.0
C5805 C 0.93345 0.51764 0.90587 0.0
C5806 C 0.95771 0.51679 0.88659 0.0
C5807 C 0.96437 0.5131 0.86837 0.0
C5808 C 0.95637 0.49716 0.85616 0.0
C5809 C 0.96378 0.49293 0.83991 0.0
C5810 C 0.97922 0.50451 0.83573 0.0
C5811 C 0.98725 0.52039 0.84773 0.0
C5812 C 0.9799 0.52469 0.86397 0.0
C5813 C 0.99032 0.50689 0.95814 0.0
C5814 C 0.99841 0.52338 0.9691 0.0
C5815 C 0.97927 0.50676 0.94182 0.0
C5816 C 0.97696 0.52314 0.93632 0.0
C5817 C 0.98631 0.53971 0.94637 0.0
C5818 C 0.99687 0.53983 0.96317 0.0
C5819 C 0.96413 0.52254 0.92025 0.0
C5820 C 0.97002 0.52031 0.90284 0.0
C5821 C 0.94574 0.52089 0.92204 0.0
C5822 C 0.93893 0.52232 0.94042 0.0
C5823 C 0.94437 0.53843 0.9529 0.0
C5824 C 0.93727 0.53995 0.96982 0.0
C5825 C 0.9245 0.52553 0.97428 0.0
C5826 C 0.91885 0.50953 0.96185 0.0
C5827 C 0.92602 0.5079 0.94498 0.0
H5828 H 0.9189 0.52681 0.98731 0.0
H5829 H 0.98501 0.50114 0.82323 0.0
H5830 H 0.27092 0.22986 0.55685 0.0
H5831 H 0.27439 0.23968 0.59056 0.0
H5832 H 0.27861 0.18633 0.60166 0.0
H5833 H 0.27561 0.17653 0.56781 0.0
H5834 H 0.25178 0.20051 0.6198 0.0
H5835 H 0.31431 0.21669 0.61383 0.0
H5836 H 0.34081 0.2303 0.59935 0.0
H5837 H 0.33001 0.28279 0.61149 0.0
H5838 H 0.30326 0.26944 0.62583 0.0
H5839 H 0.27502 0.22491 0.71901 0.0
H5840 H 0.27537 0.21398 0.68616 0.0
H5841 H 0.27093 0.26597 0.67078 0.0
H5842 H 0.27014 0.27695 0.70373 0.0
H5843 H 0.29918 0.2513 0.65534 0.0
H5844 H 0.23525 0.23467 0.65828 0.0
H5845 H 0.20739 0.22082 0.67039 0.0
H5846 H 0.22094 0.16913 0.66385 0.0
H5847 H 0.24876 0.18263 0.65126 0.0
C5848 C 0.27299 0.22033 0.56648 0.0
C5849 C 0.27311 0.20247 0.55972 0.0
C5850 C 0.27494 0.22595 0.58573 0.0
C5851 C 0.27671 0.21373 0.59861 0.0
C5852 C 0.27727 0.19597 0.59194 0.0
C5853 C 0.27573 0.19044 0.57264 0.0
C5854 C 0.27693 0.2194 0.61891 0.0
C5855 C 0.26234 0.21137 0.62769 0.0
C5856 C 0.29045 0.23387 0.62904 0.0
C5857 C 0.30669 0.24205 0.62076 0.0
C5858 C 0.31751 0.23112 0.6133 0.0
C5859 C 0.33259 0.23879 0.60514 0.0
C5860 C 0.33707 0.25739 0.60446 0.0
C5861 C 0.32651 0.26837 0.61202 0.0
C5862 C 0.3114 0.26077 0.62019 0.0
C5863 C 0.27404 0.23403 0.70865 0.0
C5864 C 0.27261 0.25183 0.71398 0.0
C5865 C 0.27421 0.22773 0.68987 0.0
C5866 C 0.27323 0.23916 0.67603 0.0
C5867 C 0.27175 0.25694 0.68126 0.0
C5868 C 0.27122 0.26316 0.70005 0.0
C5869 C 0.27394 0.23249 0.65617 0.0
C5870 C 0.28871 0.24035 0.64749 0.0
C5871 C 0.26061 0.21782 0.64611 0.0
C5872 C 0.24419 0.2097 0.65408 0.0
C5873 C 0.23239 0.22039 0.65962 0.0
C5874 C 0.21658 0.21259 0.66653 0.0
C5875 C 0.21251 0.19416 0.66817 0.0
C5876 C 0.22416 0.18343 0.66268 0.0
C5877 C 0.2399 0.19113 0.65555 0.0
H5878 H 0.20026 0.18817 0.67355 0.0
H5879 H 0.34873 0.2633 0.59811 0.0
H5880 H 0.56766 0.52872 0.22518 0.0
H5881 H 0.55718 0.52507 0.19156 0.0
H5882 H 0.60931 0.51762 0.17975 0.0
H5883 H 0.61975 0.5208 0.21354 0.0
H5884 H 0.59682 0.54511 0.16158 0.0
H5885 H 0.57704 0.48326 0.16835 0.0
H5886 H 0.56217 0.457 0.18251 0.0
H5887 H 0.51092 0.47067 0.17045 0.0
H5888 H 0.52553 0.49722 0.15645 0.0
H5889 H 0.57091 0.52265 0.06307 0.0
H5890 H 0.58162 0.52213 0.09594 0.0
H5891 H 0.53027 0.52896 0.11093 0.0
H5892 H 0.51941 0.52971 0.07782 0.0
H5893 H 0.54324 0.50045 0.12704 0.0
H5894 H 0.56417 0.56357 0.12191 0.0
H5895 H 0.57983 0.59 0.10857 0.0
H5896 H 0.62971 0.57302 0.11717 0.0
H5897 H 0.61438 0.54653 0.13079 0.0
C5898 C 0.57676 0.52592 0.21542 0.0
C5899 C 0.59449 0.52499 0.22195 0.0
C5900 C 0.57077 0.52384 0.19622 0.0
C5901 C 0.58247 0.5211 0.18317 0.0
C5902 C 0.60006 0.51969 0.18961 0.0
C5903 C 0.60596 0.52138 0.20888 0.0
C5904 C 0.57657 0.52103 0.16292 0.0
C5905 C 0.58531 0.53515 0.15392 0.0
C5906 C 0.56131 0.50827 0.15309 0.0
C5907 C 0.55242 0.49235 0.1615 0.0
C5908 C 0.56262 0.48078 0.16887 0.0
C5909 C 0.55424 0.46582 0.17683 0.0
C5910 C 0.53562 0.46219 0.17741 0.0
C5911 C 0.52534 0.47351 0.17 0.0
C5912 C 0.53367 0.48851 0.16203 0.0
C5913 C 0.56186 0.52412 0.07333 0.0
C5914 C 0.54425 0.52612 0.06781 0.0
C5915 C 0.56805 0.52386 0.09214 0.0
C5916 C 0.55675 0.52547 0.10589 0.0
C5917 C 0.53919 0.52763 0.10051 0.0
C5918 C 0.53304 0.52816 0.08163 0.0
C5919 C 0.56337 0.52466 0.12579 0.0
C5920 C 0.55478 0.51036 0.1347 0.0
C5921 C 0.57886 0.53718 0.13553 0.0
C5922 C 0.58808 0.55296 0.12716 0.0
C5923 C 0.57844 0.56537 0.12079 0.0
C5924 C 0.58726 0.58038 0.1132 0.0
C5925 C 0.6057 0.58309 0.11181 0.0
C5926 C 0.61541 0.57087 0.11818 0.0
C5927 C 0.60668 0.55589 0.12591 0.0
H5928 H 0.61249 0.59472 0.1059 0.0
H5929 H 0.52915 0.45059 0.18357 0.0
H5930 H 0.26187 0.88252 0.94765 0.0
H5931 H 0.25634 0.8647 0.91673 0.0
H5932 H 0.31306 0.88098 0.9114 0.0
H5933 H 0.31876 0.8984 0.94263 0.0
H5934 H 0.28842 0.87873 0.87826 0.0
H5935 H 0.30276 0.84605 0.92821 0.0
H5936 H 0.30159 0.83149 0.95697 0.0
H5937 H 0.24835 0.7998 0.93553 0.0
H5938 H 0.24896 0.81454 0.90685 0.0
H5939 H 0.30365 0.80236 0.82344 0.0
H5940 H 0.30444 0.82291 0.85183 0.0
H5941 H 0.24634 0.8147 0.84172 0.0
H5942 H 0.24557 0.79478 0.81258 0.0
H5943 H 0.27032 0.81286 0.88173 0.0
H5944 H 0.2585 0.84705 0.8301 0.0
H5945 H 0.26446 0.85925 0.80066 0.0
H5946 H 0.31828 0.88639 0.82577 0.0
H5947 H 0.3128 0.87392 0.85524 0.0
C5948 C 0.27296 0.88293 0.93946 0.0
C5949 C 0.29072 0.89152 0.94719 0.0
C5950 C 0.26983 0.87263 0.92206 0.0
C5951 C 0.28442 0.87139 0.91239 0.0
C5952 C 0.3018 0.88181 0.91905 0.0
C5953 C 0.305 0.89179 0.93664 0.0
C5954 C 0.28184 0.85806 0.89609 0.0
C5955 C 0.28444 0.86432 0.87894 0.0
C5956 C 0.27678 0.83936 0.89744 0.0
C5957 C 0.27572 0.83181 0.91552 0.0
C5958 C 0.29058 0.83639 0.92982 0.0
C5959 C 0.29007 0.82798 0.94607 0.0
C5960 C 0.27486 0.81482 0.94814 0.0
C5961 C 0.26007 0.8101 0.93399 0.0
C5962 C 0.26047 0.81853 0.91776 0.0
C5963 C 0.29107 0.80474 0.82755 0.0
C5964 C 0.27455 0.79747 0.81615 0.0
C5965 C 0.29156 0.81645 0.8435 0.0
C5966 C 0.27548 0.82033 0.8482 0.0
C5967 C 0.25879 0.81186 0.83773 0.0
C5968 C 0.25835 0.80059 0.82138 0.0
C5969 C 0.27633 0.83361 0.86401 0.0
C5970 C 0.27377 0.82731 0.88109 0.0
C5971 C 0.28185 0.85219 0.8627 0.0
C5972 C 0.28533 0.85925 0.84478 0.0
C5973 C 0.27173 0.85529 0.82924 0.0
C5974 C 0.27499 0.86233 0.81256 0.0
C5975 C 0.29176 0.87351 0.81131 0.0
C5976 C 0.30531 0.87767 0.82673 0.0
C5977 C 0.30214 0.87059 0.84341 0.0
H5978 H 0.29423 0.87902 0.79841 0.0
H5979 H 0.27457 0.8082 0.96064 0.0
H5980 H 0.88795 0.50271 0.72686 0.0
H5981 H 0.89766 0.51036 0.69688 0.0
H5982 H 0.95177 0.50636 0.71713 0.0
H5983 H 0.942 0.49858 0.74694 0.0
H5984 H 0.94887 0.53949 0.70327 0.0
H5985 H 0.92871 0.4743 0.68921 0.0
H5986 H 0.90503 0.44648 0.688 0.0
H5987 H 0.87084 0.46525 0.64719 0.0
H5988 H 0.8942 0.49347 0.64855 0.0
H5989 H 0.99866 0.50057 0.64302 0.0
H5990 H 0.98136 0.51163 0.66613 0.0
H5991 H 0.95081 0.53212 0.62316 0.0
H5992 H 0.96885 0.52221 0.60023 0.0
H5993 H 0.93315 0.49866 0.6431 0.0
H5994 H 0.96306 0.56224 0.65415 0.0
H5995 H 0.99008 0.5875 0.65937 0.0
H5996 H 0.01018 0.5672 0.70859 0.0
H5997 H 0.98333 0.54185 0.70364 0.0
C5998 C 0.90176 0.50299 0.7245 0.0
C5999 C 0.91435 0.4999 0.73863 0.0
C6000 C 0.90727 0.50754 0.70766 0.0
C6001 C 0.9254 0.50918 0.70521 0.0
C6002 C 0.93776 0.50532 0.71911 0.0
C6003 C 0.93221 0.50062 0.73584 0.0
C6004 C 0.93183 0.51489 0.68816 0.0
C6005 C 0.94525 0.53083 0.68993 0.0
C6006 C 0.92667 0.50354 0.67096 0.0
C6007 C 0.91311 0.48609 0.66912 0.0
C6008 C 0.91612 0.47254 0.68002 0.0
C6009 C 0.90275 0.45671 0.67935 0.0
C6010 C 0.88641 0.45412 0.66757 0.0
C6011 C 0.88349 0.46731 0.65635 0.0
C6012 C 0.89678 0.48323 0.65707 0.0
C6013 C 0.98873 0.50801 0.63863 0.0
C6014 C 0.98431 0.50955 0.61965 0.0
C6015 C 0.97894 0.51439 0.6518 0.0
C6016 C 0.96462 0.5222 0.64605 0.0
C6017 C 0.96174 0.52591 0.62766 0.0
C6018 C 0.97198 0.52008 0.61459 0.0
C6019 C 0.95094 0.52289 0.65847 0.0
C6020 C 0.93603 0.50801 0.65597 0.0
C6021 C 0.9552 0.5348 0.67531 0.0
C6022 C 0.97117 0.55022 0.67854 0.0
C6023 C 0.97326 0.56318 0.66607 0.0
C6024 C 0.98854 0.57751 0.66899 0.0
C6025 C 0.00184 0.57895 0.6843 0.0
C6026 C 0.99985 0.56611 0.69677 0.0
C6027 C 0.98457 0.55181 0.69396 0.0
H6028 H 0.01369 0.59001 0.6865 0.0
H6029 H 0.87604 0.44189 0.66711 0.0
H6030 H 0.29339 0.1891 0.45284 0.0
H6031 H 0.29694 0.19789 0.42137 0.0
H6032 H 0.24719 0.21587 0.4198 0.0
H6033 H 0.24369 0.20749 0.45079 0.0
H6034 H 0.24875 0.19574 0.38707 0.0
H6035 H 0.28568 0.24577 0.42922 0.0
H6036 H 0.30996 0.2602 0.45499 0.0
H6037 H 0.34925 0.24379 0.4233 0.0
H6038 H 0.32511 0.22895 0.39744 0.0
H6039 H 0.25356 0.25939 0.32043 0.0
H6040 H 0.25285 0.24562 0.3496 0.0
H6041 H 0.298 0.22311 0.33754 0.0
H6042 H 0.29833 0.23632 0.308 0.0
H6043 H 0.30065 0.2431 0.37594 0.0
H6044 H 0.26238 0.19337 0.33324 0.0
H6045 H 0.23694 0.17709 0.30938 0.0
H6046 H 0.1993 0.19406 0.34305 0.0
H6047 H 0.22453 0.2104 0.36714 0.0
C6048 C 0.28329 0.19498 0.44576 0.0
C6049 C 0.2684 0.1978 0.45449 0.0
C6050 C 0.28531 0.19998 0.4278 0.0
C6051 C 0.27232 0.20759 0.41823 0.0
C6052 C 0.25736 0.21003 0.42683 0.0
C6053 C 0.25549 0.20534 0.44471 0.0
C6054 C 0.27416 0.21344 0.3994 0.0
C6055 C 0.26009 0.20614 0.38467 0.0
C6056 C 0.289 0.22688 0.39616 0.0
C6057 C 0.30357 0.23604 0.41151 0.0
C6058 C 0.29948 0.2451 0.42781 0.0
C6059 C 0.31321 0.25337 0.44242 0.0
C6060 C 0.33113 0.25285 0.44081 0.0
C6061 C 0.33535 0.24413 0.42454 0.0
C6062 C 0.32165 0.23579 0.4099 0.0
C6063 C 0.26333 0.2515 0.32403 0.0
C6064 C 0.27603 0.24893 0.312 0.0
C6065 C 0.26285 0.24357 0.34062 0.0
C6066 C 0.27535 0.2333 0.34572 0.0
C6067 C 0.28821 0.23093 0.33384 0.0
C6068 C 0.28836 0.23844 0.31698 0.0
C6069 C 0.27518 0.22543 0.36367 0.0
C6070 C 0.28947 0.2325 0.37827 0.0
C6071 C 0.26041 0.21193 0.3669 0.0
C6072 C 0.24534 0.20321 0.3519 0.0
C6073 C 0.24869 0.1938 0.33545 0.0
C6074 C 0.23431 0.18442 0.32197 0.0
C6075 C 0.21651 0.18445 0.32475 0.0
C6076 C 0.21308 0.19398 0.34095 0.0
C6077 C 0.22741 0.20326 0.35454 0.0
H6078 H 0.2054 0.17721 0.31428 0.0
H6079 H 0.34175 0.25925 0.45214 0.0
H6080 H 0.29263 0.57103 0.5156 0.0
H6081 H 0.32106 0.56104 0.51743 0.0
H6082 H 0.34736 0.60875 0.55595 0.0
H6083 H 0.31926 0.6188 0.55436 0.0
H6084 H 0.3628 0.60169 0.52171 0.0
H6085 H 0.34306 0.57398 0.57493 0.0
H6086 H 0.31884 0.5561 0.58966 0.0
H6087 H 0.31488 0.51039 0.5484 0.0
H6088 H 0.33898 0.52808 0.53331 0.0
H6089 H 0.44388 0.57666 0.51965 0.0
H6090 H 0.42026 0.58486 0.53686 0.0
H6091 H 0.38251 0.53605 0.50987 0.0
H6092 H 0.40622 0.52774 0.49311 0.0
H6093 H 0.37463 0.54572 0.54453 0.0
H6094 H 0.38827 0.5721 0.48863 0.0
H6095 H 0.40738 0.58931 0.46833 0.0
H6096 H 0.41784 0.6367 0.50888 0.0
H6097 H 0.39913 0.61961 0.52966 0.0
C6098 C 0.30445 0.57924 0.52455 0.0
C6099 C 0.30388 0.5956 0.53479 0.0
C6100 C 0.32051 0.5735 0.5257 0.0
C6101 C 0.33596 0.58419 0.53698 0.0
C6102 C 0.33537 0.60038 0.54737 0.0
C6103 C 0.31936 0.60603 0.54638 0.0
C6104 C 0.3532 0.5793 0.53651 0.0
C6105 C 0.36576 0.58979 0.52718 0.0
C6106 C 0.35634 0.56347 0.54319 0.0
C6107 C 0.3429 0.55232 0.55306 0.0
C6108 C 0.33709 0.56008 0.56907 0.0
C6109 C 0.32335 0.55 0.57744 0.0
C6110 C 0.31535 0.53211 0.56999 0.0
C6111 C 0.32115 0.52423 0.5542 0.0
C6112 C 0.33491 0.53426 0.54577 0.0
C6113 C 0.43055 0.5677 0.5177 0.0
C6114 C 0.42633 0.55204 0.50473 0.0
C6115 C 0.41726 0.57218 0.52765 0.0
C6116 C 0.3997 0.56113 0.52434 0.0
C6117 C 0.39601 0.54469 0.51255 0.0
C6118 C 0.40934 0.54015 0.50275 0.0
C6119 C 0.3845 0.56825 0.52979 0.0
C6120 C 0.37213 0.55806 0.53978 0.0
C6121 C 0.38121 0.58423 0.52327 0.0
C6122 C 0.39262 0.59448 0.51087 0.0
C6123 C 0.39485 0.58612 0.49334 0.0
C6124 C 0.40558 0.59586 0.48173 0.0
C6125 C 0.4139 0.61407 0.48735 0.0
C6126 C 0.41147 0.62257 0.50459 0.0
C6127 C 0.40085 0.61285 0.51631 0.0
H6128 H 0.42217 0.62161 0.47833 0.0
H6129 H 0.30463 0.52436 0.57642 0.0
H6130 H 0.8253 0.92623 0.51811 0.0
H6131 H 0.85344 0.94816 0.51557 0.0
H6132 H 0.88406 0.91735 0.54733 0.0
H6133 H 0.85636 0.89595 0.55021 0.0
H6134 H 0.89635 0.95153 0.55845 0.0
H6135 H 0.87921 0.91289 0.49952 0.0
H6136 H 0.85993 0.89874 0.46993 0.0
H6137 H 0.86201 0.95099 0.45234 0.0
H6138 H 0.88113 0.96548 0.48198 0.0
H6139 H 0.98538 0.97633 0.53755 0.0
H6140 H 0.95497 0.95929 0.53982 0.0
H6141 H 0.93226 0.99457 0.50633 0.0
H6142 H 0.96254 0.01082 0.50284 0.0
H6143 H 0.91452 0.96124 0.496 0.0
H6144 H 0.93539 0.99851 0.55667 0.0
H6145 H 0.95614 0.00947 0.58617 0.0
H6146 H 0.9485 0.9553 0.6 0.0
H6147 H 0.92789 0.94401 0.57051 0.0
C6148 C 0.83804 0.92448 0.52489 0.0
C6149 C 0.83875 0.90942 0.53427 0.0
C6150 C 0.85406 0.93683 0.52325 0.0
C6151 C 0.8708 0.93418 0.53105 0.0
C6152 C 0.8713 0.91962 0.54118 0.0
C6153 C 0.85546 0.90739 0.54279 0.0
C6154 C 0.88807 0.94616 0.52864 0.0
C6155 C 0.90033 0.95366 0.54478 0.0
C6156 C 0.89315 0.94897 0.51079 0.0
C6157 C 0.88134 0.94029 0.49312 0.0
C6158 C 0.87536 0.92138 0.48946 0.0
C6159 C 0.86451 0.91329 0.47264 0.0
C6160 C 0.85966 0.92396 0.45929 0.0
C6161 C 0.86571 0.94274 0.46272 0.0
C6162 C 0.87655 0.9509 0.47953 0.0
C6163 C 0.97392 0.98048 0.53069 0.0
C6164 C 0.97639 0.99525 0.52044 0.0
C6165 C 0.95654 0.9708 0.53209 0.0
C6166 C 0.94136 0.97601 0.52369 0.0
C6167 C 0.94379 0.99047 0.51312 0.0
C6168 C 0.96114 0.99991 0.51137 0.0
C6169 C 0.92289 0.96638 0.52585 0.0
C6170 C 0.91042 0.95938 0.50966 0.0
C6171 C 0.91773 0.96355 0.54366 0.0
C6172 C 0.93017 0.97043 0.56136 0.0
C6173 C 0.93822 0.98894 0.56597 0.0
C6174 C 0.94994 0.9952 0.58269 0.0
C6175 C 0.95364 0.98309 0.59494 0.0
C6176 C 0.94562 0.96468 0.59051 0.0
C6177 C 0.93391 0.95835 0.57381 0.0
H6178 H 0.9627 0.98797 0.60789 0.0
H6179 H 0.85128 0.91766 0.44627 0.0
H6180 H 0.90015 0.06361 0.23657 0.0
H6181 H 0.88569 0.08917 0.23449 0.0
H6182 H 0.86279 0.07842 0.28508 0.0
H6183 H 0.87711 0.05301 0.28729 0.0
H6184 H 0.83777 0.08234 0.25653 0.0
H6185 H 0.89876 0.11266 0.28516 0.0
H6186 H 0.93184 0.12214 0.28644 0.0
H6187 H 0.92515 0.14775 0.23694 0.0
H6188 H 0.89199 0.13816 0.23519 0.0
H6189 H 0.81344 0.15584 0.30187 0.0
H6190 H 0.82518 0.13053 0.28964 0.0
H6191 H 0.84432 0.15985 0.24521 0.0
H6192 H 0.83281 0.18567 0.25797 0.0
H6193 H 0.87031 0.14654 0.26144 0.0
H6194 H 0.80912 0.11977 0.23559 0.0
H6195 H 0.77605 0.11039 0.23475 0.0
H6196 H 0.78312 0.07817 0.27895 0.0
H6197 H 0.8162 0.08747 0.28018 0.0
C6198 C 0.89202 0.0667 0.24725 0.0
C6199 C 0.88971 0.05621 0.26208 0.0
C6200 C 0.88386 0.08137 0.24608 0.0
C6201 C 0.8732 0.08572 0.25965 0.0
C6202 C 0.87094 0.07528 0.27443 0.0
C6203 C 0.87916 0.06075 0.27569 0.0
C6204 C 0.86373 0.10066 0.2584 0.0
C6205 C 0.84487 0.0964 0.25763 0.0
C6206 C 0.87294 0.11892 0.25896 0.0
C6207 C 0.89288 0.12442 0.25987 0.0
C6208 C 0.90433 0.1201 0.2744 0.0
C6209 C 0.9231 0.12554 0.27524 0.0
C6210 C 0.93059 0.13547 0.26173 0.0
C6211 C 0.91932 0.14 0.24736 0.0
C6212 C 0.90054 0.13456 0.24643 0.0
C6213 C 0.81975 0.1567 0.28922 0.0
C6214 C 0.82216 0.17261 0.2808 0.0
C6215 C 0.8264 0.14218 0.28214 0.0
C6216 C 0.83546 0.14308 0.2663 0.0
C6217 C 0.83728 0.15876 0.25737 0.0
C6218 C 0.83059 0.17342 0.26453 0.0
C6219 C 0.84435 0.12826 0.26051 0.0
C6220 C 0.86309 0.13249 0.25985 0.0
C6221 C 0.83506 0.10988 0.25861 0.0
C6222 C 0.81515 0.10436 0.25799 0.0
C6223 C 0.80362 0.11076 0.2452 0.0
C6224 C 0.78487 0.10544 0.24464 0.0
C6225 C 0.77749 0.0937 0.25679 0.0
C6226 C 0.78884 0.08724 0.26952 0.0
C6227 C 0.80759 0.0925 0.27012 0.0
H6228 H 0.76297 0.0896 0.25633 0.0
H6229 H 0.94513 0.1397 0.26243 0.0
H6230 H 0.71881 0.0718 0.03794 0.0
H6231 H 0.68754 0.05781 0.02333 0.0
H6232 H 0.6758 0.11062 0.02469 0.0
H6233 H 0.70549 0.12415 0.04077 0.0
H6234 H 0.65756 0.0885 0.04667 0.0
H6235 H 0.67231 0.0878 0.98392 0.0
H6236 H 0.6879 0.08042 0.95714 0.0
H6237 H 0.6685 0.02379 0.95967 0.0
H6238 H 0.653 0.03083 0.98665 0.0
H6239 H 0.56493 0.06697 0.01249 0.0
H6240 H 0.59719 0.07957 0.01307 0.0
H6241 H 0.60742 0.02623 0.0133 0.0
H6242 H 0.57516 0.01348 0.01277 0.0
H6243 H 0.62637 0.04808 0.98911 0.0
H6244 H 0.61483 0.05013 0.0546 0.0
H6245 H 0.60235 0.0586 0.08331 0.0
H6246 H 0.61681 0.1145 0.07553 0.0
H6247 H 0.6296 0.10641 0.0469 0.0
C6248 C 0.7094 0.08024 0.03509 0.0
C6249 C 0.71432 0.09889 0.04086 0.0
C6250 C 0.69188 0.07238 0.02639 0.0
C6251 C 0.67972 0.08337 0.02294 0.0
C6252 C 0.68521 0.10208 0.02723 0.0
C6253 C 0.70218 0.10974 0.03664 0.0
C6254 C 0.66046 0.07562 0.01958 0.0
C6255 C 0.65065 0.0799 0.03392 0.0
C6256 C 0.65189 0.06408 0.00323 0.0
C6257 C 0.66171 0.05984 0.98746 0.0
C6258 C 0.67159 0.07377 0.97894 0.0
C6259 C 0.68035 0.06965 0.96368 0.0
C6260 C 0.67926 0.05165 0.95676 0.0
C6261 C 0.66939 0.03773 0.96508 0.0
C6262 C 0.66061 0.04177 0.98035 0.0
C6263 C 0.57402 0.0579 0.01212 0.0
C6264 C 0.56785 0.03934 0.01269 0.0
C6265 C 0.59232 0.06511 0.01265 0.0
C6266 C 0.60433 0.05372 0.01351 0.0
C6267 C 0.59808 0.03505 0.01274 0.0
C6268 C 0.57981 0.02785 0.01239 0.0
C6269 C 0.62357 0.06133 0.01601 0.0
C6270 C 0.63335 0.05687 0.00169 0.0
C6271 C 0.63221 0.07296 0.03234 0.0
C6272 C 0.62281 0.07761 0.04838 0.0
C6273 C 0.615 0.06418 0.05879 0.0
C6274 C 0.60799 0.06893 0.07513 0.0
C6275 C 0.60859 0.08704 0.08114 0.0
C6276 C 0.61623 0.10047 0.07081 0.0
C6277 C 0.62339 0.09581 0.05455 0.0
H6278 H 0.60325 0.09067 0.09385 0.0
H6279 H 0.68601 0.04849 0.94491 0.0
H6280 H 0.22833 0.50656 0.25859 0.0
H6281 H 0.23882 0.47841 0.25707 0.0
H6282 H 0.18472 0.44812 0.23542 0.0
H6283 H 0.17412 0.47588 0.23673 0.0
H6284 H 0.20213 0.43961 0.27025 0.0
H6285 H 0.21096 0.44728 0.2064 0.0
H6286 H 0.22262 0.46656 0.18316 0.0
H6287 H 0.27679 0.47336 0.21065 0.0
H6288 H 0.26541 0.45424 0.2342 0.0
H6289 H 0.21775 0.35548 0.26986 0.0
H6290 H 0.20859 0.37929 0.25361 0.0
H6291 H 0.26371 0.41066 0.26379 0.0
H6292 H 0.27299 0.38644 0.27926 0.0
H6293 H 0.2454 0.41847 0.23196 0.0
H6294 H 0.23762 0.41361 0.29649 0.0
H6295 H 0.22695 0.39901 0.32327 0.0
H6296 H 0.1719 0.39143 0.29801 0.0
H6297 H 0.18227 0.40564 0.27087 0.0
C6298 C 0.21877 0.49391 0.25331 0.0
C6299 C 0.20045 0.49332 0.24796 0.0
C6300 C 0.22478 0.47797 0.25231 0.0
C6301 C 0.21246 0.46146 0.24602 0.0
C6302 C 0.19432 0.46088 0.24016 0.0
C6303 C 0.18834 0.47674 0.24102 0.0
C6304 C 0.21794 0.44456 0.24776 0.0
C6305 C 0.21127 0.4347 0.26164 0.0
C6306 C 0.2303 0.43886 0.23686 0.0
C6307 C 0.23734 0.4493 0.22203 0.0
C6308 C 0.22537 0.45285 0.20746 0.0
C6309 C 0.23192 0.46377 0.19425 0.0
C6310 C 0.25044 0.47117 0.19542 0.0
C6311 C 0.26245 0.46757 0.20973 0.0
C6312 C 0.25597 0.45664 0.22298 0.0
C6313 C 0.2279 0.36726 0.26809 0.0
C6314 C 0.24589 0.36956 0.27606 0.0
C6315 C 0.22275 0.38072 0.25873 0.0
C6316 C 0.23545 0.39681 0.25794 0.0
C6317 C 0.25376 0.39833 0.26433 0.0
C6318 C 0.25898 0.38467 0.27333 0.0
C6319 C 0.22918 0.41311 0.25426 0.0
C6320 C 0.23591 0.42308 0.24027 0.0
C6321 C 0.21698 0.41921 0.26531 0.0
C6322 C 0.21073 0.41041 0.28151 0.0
C6323 C 0.22325 0.40862 0.29654 0.0
C6324 C 0.21726 0.40045 0.3118 0.0
C6325 C 0.19876 0.39423 0.31231 0.0
C6326 C 0.18622 0.39618 0.29756 0.0
C6327 C 0.19215 0.40427 0.28222 0.0
H6328 H 0.19415 0.38795 0.32417 0.0
H6329 H 0.25548 0.47971 0.18524 0.0
H6330 H 0.25666 0.44106 0.01888 0.0
H6331 H 0.22924 0.45232 0.02086 0.0
H6332 H 0.19997 0.39935 0.02876 0.0
H6333 H 0.22734 0.38795 0.02691 0.0
H6334 H 0.18215 0.4153 0.00129 0.0
H6335 H 0.20865 0.43012 0.06562 0.0
H6336 H 0.23326 0.44266 0.09167 0.0
H6337 H 0.23895 0.49526 0.07399 0.0
H6338 H 0.21443 0.48299 0.04777 0.0
H6339 H 0.10501 0.45003 0.00895 0.0
H6340 H 0.129 0.43525 0.01988 0.0
H6341 H 0.16883 0.48477 0.01989 0.0
H6342 H 0.14484 0.49952 0.00936 0.0
H6343 H 0.17938 0.46715 0.0472 0.0
H6344 H 0.15611 0.45242 0.98134 0.0
H6345 H 0.13296 0.44047 0.95385 0.0
H6346 H 0.12267 0.3882 0.97258 0.0
H6347 H 0.1456 0.39993 0.00036 0.0
C6348 C 0.24442 0.4318 0.02108 0.0
C6349 C 0.24422 0.41361 0.02272 0.0
C6350 C 0.22879 0.43828 0.02232 0.0
C6351 C 0.21264 0.4267 0.02515 0.0
C6352 C 0.21232 0.40851 0.02665 0.0
C6353 C 0.22799 0.40204 0.02558 0.0
C6354 C 0.19595 0.43353 0.02571 0.0
C6355 C 0.18133 0.42635 0.01158 0.0
C6356 C 0.19509 0.44816 0.03892 0.0
C6357 C 0.20978 0.45562 0.05469 0.0
C6358 C 0.21523 0.44434 0.06724 0.0
C6359 C 0.22913 0.4514 0.08205 0.0
C6360 C 0.23768 0.46974 0.08447 0.0
C6361 C 0.23231 0.48106 0.07211 0.0
C6362 C 0.21837 0.47407 0.0573 0.0
C6363 C 0.11882 0.4579 0.01214 0.0
C6364 C 0.12316 0.47591 0.00857 0.0
C6365 C 0.13253 0.44942 0.01813 0.0
C6366 C 0.15076 0.45879 0.02031 0.0
C6367 C 0.15489 0.47724 0.01828 0.0
C6368 C 0.1412 0.48571 0.01237 0.0
C6369 C 0.16562 0.44913 0.02256 0.0
C6370 C 0.17996 0.45581 0.03716 0.0
C6371 C 0.16632 0.43413 0.00963 0.0
C6372 C 0.15237 0.42712 0.99307 0.0
C6373 C 0.14878 0.43843 0.9797 0.0
C6374 C 0.13573 0.43169 0.96405 0.0
C6375 C 0.12631 0.4136 0.96151 0.0
C6376 C 0.12994 0.40222 0.9746 0.0
C6377 C 0.14295 0.40891 0.99031 0.0
H6378 H 0.11623 0.4084 0.94936 0.0
H6379 H 0.24846 0.47518 0.09594 0.0
H6380 H 0.86862 0.96904 0.23961 0.0
H6381 H 0.84652 0.94048 0.2406 0.0
H6382 H 0.88904 0.91868 0.26688 0.0
H6383 H 0.91086 0.94657 0.26576 0.0
H6384 H 0.87037 0.89695 0.23616 0.0
H6385 H 0.85892 0.93074 0.29149 0.0
H6386 H 0.84989 0.95551 0.3098 0.0
H6387 H 0.7973 0.94109 0.27713 0.0
H6388 H 0.80613 0.91642 0.25839 0.0
H6389 H 0.82904 0.81519 0.26441 0.0
H6390 H 0.846 0.84519 0.26253 0.0
H6391 H 0.79635 0.86193 0.24831 0.0
H6392 H 0.77921 0.83247 0.25301 0.0
H6393 H 0.81668 0.88713 0.26963 0.0
H6394 H 0.82967 0.85076 0.2153 0.0
H6395 H 0.84077 0.82613 0.19914 0.0
H6396 H 0.89279 0.8454 0.23245 0.0
H6397 H 0.88197 0.86998 0.24894 0.0
C6398 C 0.87312 0.95814 0.24569 0.0
C6399 C 0.89149 0.95987 0.25226 0.0
C6400 C 0.86054 0.94193 0.2463 0.0
C6401 C 0.86625 0.92748 0.25368 0.0
C6402 C 0.88442 0.92958 0.26092 0.0
C6403 C 0.89688 0.94554 0.26019 0.0
C6404 C 0.8539 0.90959 0.25295 0.0
C6405 C 0.85858 0.89473 0.24346 0.0
C6406 C 0.83846 0.90687 0.26227 0.0
C6407 C 0.8333 0.92193 0.27331 0.0
C6408 C 0.84552 0.93301 0.28802 0.0
C6409 C 0.84042 0.947 0.29852 0.0
C6410 C 0.82307 0.94993 0.29457 0.0
C6411 C 0.81077 0.93885 0.28012 0.0
C6412 C 0.81582 0.92488 0.26955 0.0
C6413 C 0.82152 0.82524 0.26132 0.0
C6414 C 0.80247 0.82126 0.25937 0.0
C6415 C 0.83141 0.84244 0.25972 0.0
C6416 C 0.82258 0.85584 0.25467 0.0
C6417 C 0.80358 0.85185 0.25219 0.0
C6418 C 0.79367 0.83486 0.2548 0.0
C6419 C 0.83311 0.87421 0.25284 0.0
C6420 C 0.82816 0.88923 0.2619 0.0
C6421 C 0.84856 0.87708 0.24335 0.0
C6422 C 0.85495 0.86217 0.23341 0.0
C6423 C 0.84344 0.84968 0.21924 0.0
C6424 C 0.8497 0.83574 0.21001 0.0
C6425 C 0.86746 0.83419 0.21478 0.0
C6426 C 0.87903 0.8466 0.22876 0.0
C6427 C 0.87285 0.86055 0.23803 0.0
H6428 H 0.87227 0.82339 0.20762 0.0
H6429 H 0.81913 0.96074 0.30274 0.0
H6430 H 0.70242 0.0812 0.72495 0.0
H6431 H 0.7199 0.1125 0.72878 0.0
H6432 H 0.72248 0.11476 0.78884 0.0
H6433 H 0.70484 0.08361 0.78507 0.0
H6434 H 0.70181 0.13754 0.77003 0.0
H6435 H 0.76001 0.12076 0.77401 0.0
H6436 H 0.77949 0.10223 0.76092 0.0
H6437 H 0.77661 0.12672 0.71027 0.0
H6438 H 0.75688 0.14525 0.723 0.0
H6439 H 0.76827 0.2279 0.79444 0.0
H6440 H 0.75498 0.19564 0.79445 0.0
H6441 H 0.72834 0.19302 0.73822 0.0
H6442 H 0.73902 0.22542 0.73941 0.0
H6443 H 0.76089 0.17054 0.75519 0.0
H6444 H 0.70012 0.18285 0.74698 0.0
H6445 H 0.67802 0.19986 0.75645 0.0
H6446 H 0.68144 0.18097 0.81023 0.0
H6447 H 0.70454 0.16474 0.80142 0.0
C6448 C 0.70758 0.08812 0.73895 0.0
C6449 C 0.7023 0.08042 0.75479 0.0
C6450 C 0.7174 0.10592 0.7411 0.0
C6451 C 0.72207 0.1157 0.75907 0.0
C6452 C 0.71875 0.10722 0.77493 0.0
C6453 C 0.70884 0.08955 0.77278 0.0
C6454 C 0.7274 0.13529 0.76121 0.0
C6455 C 0.71483 0.14482 0.76709 0.0
C6456 C 0.74401 0.14441 0.75655 0.0
C6457 C 0.757 0.13439 0.74946 0.0
C6458 C 0.76359 0.12224 0.76011 0.0
C6459 C 0.77463 0.1117 0.75274 0.0
C6460 C 0.77929 0.1133 0.73478 0.0
C6461 C 0.77302 0.12554 0.7242 0.0
C6462 C 0.76195 0.1361 0.73151 0.0
C6463 C 0.75813 0.22074 0.78297 0.0
C6464 C 0.75367 0.22913 0.76741 0.0
C6465 C 0.75108 0.20231 0.78269 0.0
C6466 C 0.74041 0.19231 0.76648 0.0
C6467 C 0.73587 0.20078 0.7511 0.0
C6468 C 0.74193 0.21921 0.75184 0.0
C6469 C 0.73555 0.17275 0.76466 0.0
C6470 C 0.74803 0.16324 0.75848 0.0
C6471 C 0.71859 0.16357 0.76851 0.0
C6472 C 0.70463 0.17319 0.77381 0.0
C6473 C 0.69667 0.18282 0.76104 0.0
C6474 C 0.68387 0.19225 0.76626 0.0
C6475 C 0.67847 0.19166 0.78402 0.0
C6476 C 0.68582 0.18159 0.79656 0.0
C6477 C 0.69887 0.17239 0.79151 0.0
H6478 H 0.66846 0.19888 0.78799 0.0
H6479 H 0.78775 0.10505 0.72905 0.0
loop_
_geom_bond_atom_site_label_1
_geom_bond_atom_site_label_2
_geom_bond_distance
_geom_bond_site_symmetry_2
_ccdc_geom_bond_type
Zn0 O3 2.031 . S
Zn0 O5 2.049 . S
Zn0 O10 2.055 1_455 S
Zn1 O2 1.962 . S
Zn1 O4 1.986 . S
Zn1 O6 1.996 . S
Zn1 O9 1.943 . S
O2 Zn1 1.962 . S
O2 C7 1.254 . S
O3 Zn0 2.031 . S
O3 C7 1.269 . S
O4 Zn1 1.986 . S
O4 C11 1.262 . S
O5 Zn0 2.049 . S
O5 C13 1.260 . S
O6 Zn1 1.996 . S
O6 C13 1.257 . S
C7 O2 1.254 . S
C7 O3 1.269 . S
C8 O9 1.249 . S
C8 O10 1.251 1_455 S
O9 Zn1 1.943 . S
O9 C8 1.249 . S
O10 Zn0 2.055 1_655 S
O10 C8 1.251 1_655 S
C11 O4 1.262 . S
C11 O12 1.232 . S
O12 C11 1.232 . S
C13 O5 1.260 . S
C13 O6 1.257 . S
Zn14 O17 2.031 1_455 S
Zn14 O19 2.049 . S
Zn14 O24 2.067 . S
Zn15 O16 1.962 1_455 S
Zn15 O18 1.986 . S
Zn15 O20 1.996 . S
Zn15 O23 1.943 . S
O16 Zn15 1.962 1_655 S
O16 C21 1.254 . S
O17 Zn14 2.031 1_655 S
O17 C21 1.269 . S
O18 Zn15 1.986 . S
O18 C25 1.262 . S
O19 Zn14 2.049 . S
O19 C27 1.260 . S
O20 Zn15 1.996 . S
O20 C27 1.257 . S
C21 O16 1.254 . S
C21 O17 1.269 . S
C22 O23 1.249 . S
C22 O24 1.270 . S
O23 Zn15 1.943 . S
O23 C22 1.249 . S
O24 Zn14 2.067 . S
O24 C22 1.270 . S
C25 O18 1.262 . S
C25 O26 1.232 . S
O26 C25 1.232 . S
C27 O19 1.260 . S
C27 O20 1.257 . S
Zn28 O31 2.031 . S
Zn28 O33 2.049 . S
Zn28 O38 2.067 . S
Zn29 O30 1.962 . S
Zn29 O32 1.986 . S
Zn29 O34 1.996 . S
Zn29 O37 1.943 . S
O30 Zn29 1.962 . S
O30 C35 1.254 . S
O31 Zn28 2.031 . S
O31 C35 1.269 . S
O32 Zn29 1.986 . S
O32 C39 1.262 . S
O33 Zn28 2.049 . S
O33 C41 1.260 . S
O34 Zn29 1.996 . S
O34 C41 1.257 . S
C35 O30 1.254 . S
C35 O31 1.269 . S
C36 O37 1.249 . S
C36 O38 1.270 . S
O37 Zn29 1.943 . S
O37 C36 1.249 . S
O38 Zn28 2.067 . S
O38 C36 1.270 . S
C39 O32 1.262 . S
C39 O40 1.232 . S
O40 C39 1.232 . S
C41 O33 1.260 . S
C41 O34 1.257 . S
Zn42 O45 2.031 . S
Zn42 O47 2.049 . S
Zn42 O52 2.067 . S
Zn43 O44 1.962 . S
Zn43 O46 1.986 . S
Zn43 O48 1.996 . S
Zn43 O51 1.943 . S
O44 Zn43 1.962 . S
O44 C49 1.254 . S
O45 Zn42 2.031 . S
O45 C49 1.269 . S
O46 Zn43 1.986 . S
O46 C53 1.262 . S
O47 Zn42 2.049 . S
O47 C55 1.260 . S
O48 Zn43 1.996 . S
O48 C55 1.257 . S
C49 O44 1.254 . S
C49 O45 1.269 . S
C50 O51 1.249 . S
C50 O52 1.270 . S
O51 Zn43 1.943 . S
O51 C50 1.249 . S
O52 Zn42 2.067 . S
O52 C50 1.270 . S
C53 O46 1.262 . S
C53 O54 1.232 . S
O54 C53 1.232 . S
C55 O47 1.260 . S
C55 O48 1.257 . S
Zn56 O59 2.031 . S
Zn56 O61 2.049 . S
Zn56 O66 2.067 . S
Zn57 O58 1.962 . S
Zn57 O60 1.986 . S
Zn57 O62 1.996 . S
Zn57 O65 1.943 . S
O58 Zn57 1.962 . S
O58 C63 1.254 . S
O59 Zn56 2.031 . S
O59 C63 1.269 . S
O60 Zn57 1.986 . S
O60 C67 1.262 . S
O61 Zn56 2.049 . S
O61 C69 1.260 . S
O62 Zn57 1.996 . S
O62 C69 1.257 . S
C63 O58 1.254 . S
C63 O59 1.269 . S
C64 O65 1.249 . S
C64 O66 1.270 . S
O65 Zn57 1.943 . S
O65 C64 1.249 . S
O66 Zn56 2.067 . S
O66 C64 1.270 . S
C67 O60 1.262 . S
C67 O68 1.232 . S
O68 C67 1.232 . S
C69 O61 1.260 . S
C69 O62 1.257 . S
Zn70 O73 2.031 . S
Zn70 O75 2.049 . S
Zn70 O80 2.067 . S
Zn71 O72 1.962 . S
Zn71 O74 1.986 . S
Zn71 O76 1.996 . S
Zn71 O79 1.943 . S
O72 Zn71 1.962 . S
O72 C77 1.254 . S
O73 Zn70 2.031 . S
O73 C77 1.269 . S
O74 Zn71 1.986 . S
O74 C81 1.262 . S
O75 Zn70 2.049 . S
O75 C83 1.260 . S
O76 Zn71 1.996 . S
O76 C83 1.257 . S
C77 O72 1.254 . S
C77 O73 1.269 . S
C78 O79 1.249 . S
C78 O80 1.270 . S
O79 Zn71 1.943 . S
O79 C78 1.249 . S
O80 Zn70 2.067 . S
O80 C78 1.270 . S
C81 O74 1.262 . S
C81 O82 1.232 . S
O82 C81 1.232 . S
C83 O75 1.260 . S
C83 O76 1.257 . S
Zn84 O87 2.031 . S
Zn84 O89 2.049 . S
Zn84 O94 2.067 . S
Zn85 O86 1.962 . S
Zn85 O88 1.986 . S
Zn85 O90 1.996 . S
Zn85 O93 1.943 . S
O86 Zn85 1.962 . S
O86 C91 1.254 . S
O87 Zn84 2.031 . S
O87 C91 1.269 . S
O88 Zn85 1.986 . S
O88 C95 1.262 . S
O89 Zn84 2.049 . S
O89 C97 1.260 . S
O90 Zn85 1.996 . S
O90 C97 1.257 . S
C91 O86 1.254 . S
C91 O87 1.269 . S
C92 O93 1.249 . S
C92 O94 1.270 . S
O93 Zn85 1.943 . S
O93 C92 1.249 . S
O94 Zn84 2.067 . S
O94 C92 1.270 . S
C95 O88 1.262 . S
C95 O96 1.232 . S
O96 C95 1.232 . S
C97 O89 1.260 . S
C97 O90 1.257 . S
Zn98 O101 2.031 . S
Zn98 O103 2.049 . S
Zn98 O108 2.067 . S
Zn99 O100 1.962 . S
Zn99 O102 1.986 . S
Zn99 O104 1.996 . S
Zn99 O107 1.943 1_455 S
O100 Zn99 1.962 . S
O100 C105 1.281 . S
O101 Zn98 2.031 . S
O101 C105 1.244 1_655 S
O102 Zn99 1.986 . S
O102 C109 1.262 . S
O103 Zn98 2.049 . S
O103 C111 1.260 . S
O104 Zn99 1.996 . S
O104 C111 1.257 1_455 S
C105 O100 1.281 . S
C105 O101 1.244 1_455 S
C106 O107 1.249 . S
C106 O108 1.270 . S
O107 Zn99 1.943 1_655 S
O107 C106 1.249 . S
O108 Zn98 2.067 . S
O108 C106 1.270 . S
C109 O102 1.262 . S
C109 O110 1.232 . S
O110 C109 1.232 . S
C111 O103 1.260 . S
C111 O104 1.257 1_655 S
Zn112 O115 2.031 . S
Zn112 O117 2.049 . S
Zn112 O122 2.067 . S
Zn113 O114 1.962 . S
Zn113 O116 1.986 . S
Zn113 O118 1.996 . S
Zn113 O121 1.943 1_545 S
O114 Zn113 1.962 . S
O114 C119 1.254 . S
O115 Zn112 2.031 . S
O115 C119 1.269 1_565 S
O116 Zn113 1.986 . S
O116 C123 1.262 . S
O117 Zn112 2.049 . S
O117 C125 1.260 1_565 S
O118 Zn113 1.996 . S
O118 C125 1.257 . S
C119 O114 1.254 . S
C119 O115 1.269 1_545 S
C120 O121 1.249 . S
C120 O122 1.270 . S
O121 Zn113 1.943 1_565 S
O121 C120 1.249 . S
O122 Zn112 2.067 . S
O122 C120 1.270 . S
C123 O116 1.262 . S
C123 O124 1.232 . S
O124 C123 1.232 . S
C125 O117 1.260 1_545 S
C125 O118 1.257 . S
Zn126 O129 2.031 . S
Zn126 O131 2.049 . S
Zn126 O136 2.067 . S
Zn127 O128 1.962 . S
Zn127 O130 1.986 . S
Zn127 O132 1.996 . S
Zn127 O135 1.943 . S
O128 Zn127 1.962 . S
O128 C133 1.254 . S
O129 Zn126 2.031 . S
O129 C133 1.269 . S
O130 Zn127 1.986 . S
O130 C137 1.262 . S
O131 Zn126 2.049 . S
O131 C139 1.260 . S
O132 Zn127 1.996 . S
O132 C139 1.257 . S
C133 O128 1.254 . S
C133 O129 1.269 . S
C134 O135 1.249 . S
C134 O136 1.270 . S
O135 Zn127 1.943 . S
O135 C134 1.249 . S
O136 Zn126 2.067 . S
O136 C134 1.270 . S
C137 O130 1.262 . S
C137 O138 1.232 . S
O138 C137 1.232 . S
C139 O131 1.260 . S
C139 O132 1.257 . S
Zn140 O143 2.031 . S
Zn140 O145 2.049 . S
Zn140 O150 2.067 . S
Zn141 O142 1.962 . S
Zn141 O144 1.989 1_545 S
Zn141 O146 1.996 . S
Zn141 O149 1.943 . S
O142 Zn141 1.962 . S
O142 C147 1.254 . S
O143 Zn140 2.031 . S
O143 C147 1.269 . S
O144 Zn141 1.989 1_565 S
O144 C151 1.261 . S
O145 Zn140 2.049 . S
O145 C153 1.260 . S
O146 Zn141 1.996 . S
O146 C153 1.257 . S
C147 O142 1.254 . S
C147 O143 1.269 . S
C148 O149 1.249 . S
C148 O150 1.270 . S
O149 Zn141 1.943 . S
O149 C148 1.249 . S
O150 Zn140 2.067 . S
O150 C148 1.270 . S
C151 O144 1.261 . S
C151 O152 1.232 1_565 S
O152 C151 1.232 1_545 S
C153 O145 1.260 . S
C153 O146 1.257 . S
Zn154 O157 2.031 1_554 S
Zn154 O159 2.049 . S
Zn154 O164 2.067 . S
Zn155 O156 1.962 . S
Zn155 O158 1.986 1_556 S
Zn155 O160 1.996 1_556 S
Zn155 O163 1.943 1_556 S
O156 Zn155 1.962 . S
O156 C161 1.254 . S
O157 Zn154 2.031 1_556 S
O157 C161 1.269 . S
O158 Zn155 1.986 1_554 S
O158 C165 1.262 1_554 S
O159 Zn154 2.049 . S
O159 C167 1.260 . S
O160 Zn155 1.996 1_554 S
O160 C167 1.257 . S
C161 O156 1.254 . S
C161 O157 1.269 . S
C162 O163 1.249 . S
C162 O164 1.270 . S
O163 Zn155 1.943 1_554 S
O163 C162 1.249 . S
O164 Zn154 2.067 . S
O164 C162 1.270 . S
C165 O158 1.262 1_556 S
C165 O166 1.232 . S
O166 C165 1.232 . S
C167 O159 1.260 . S
C167 O160 1.257 . S
Zn168 O171 2.031 . S
Zn168 O173 2.049 . S
Zn168 O178 2.067 . S
Zn169 O170 1.962 . S
Zn169 O172 1.986 . S
Zn169 O174 1.996 . S
Zn169 O177 1.943 . S
O170 Zn169 1.962 . S
O170 C175 1.254 . S
O171 Zn168 2.031 . S
O171 C175 1.269 . S
O172 Zn169 1.986 . S
O172 C179 1.262 . S
O173 Zn168 2.049 . S
O173 C181 1.260 . S
O174 Zn169 1.996 . S
O174 C181 1.257 . S
C175 O170 1.254 . S
C175 O171 1.269 . S
C176 O177 1.249 . S
C176 O178 1.270 . S
O177 Zn169 1.943 . S
O177 C176 1.249 . S
O178 Zn168 2.067 . S
O178 C176 1.270 . S
C179 O172 1.262 . S
C179 O180 1.232 . S
O180 C179 1.232 . S
C181 O173 1.260 . S
C181 O174 1.257 . S
Zn182 O185 2.031 . S
Zn182 O187 2.049 . S
Zn182 O192 2.067 . S
Zn183 O184 1.962 . S
Zn183 O186 1.986 . S
Zn183 O188 1.996 . S
Zn183 O191 1.943 . S
O184 Zn183 1.962 . S
O184 C189 1.254 . S
O185 Zn182 2.031 . S
O185 C189 1.269 . S
O186 Zn183 1.986 . S
O186 C193 1.262 . S
O187 Zn182 2.049 . S
O187 C195 1.260 . S
O188 Zn183 1.996 . S
O188 C195 1.257 . S
C189 O184 1.254 . S
C189 O185 1.269 . S
C190 O191 1.249 . S
C190 O192 1.270 . S
O191 Zn183 1.943 . S
O191 C190 1.249 . S
O192 Zn182 2.067 . S
O192 C190 1.270 . S
C193 O186 1.262 . S
C193 O194 1.232 . S
O194 C193 1.232 . S
C195 O187 1.260 . S
C195 O188 1.257 . S
Zn196 O199 2.031 . S
Zn196 O201 2.049 . S
Zn196 O206 2.067 . S
Zn197 O198 1.962 . S
Zn197 O200 1.986 . S
Zn197 O202 1.996 . S
Zn197 O205 1.943 . S
O198 Zn197 1.962 . S
O198 C203 1.254 . S
O199 Zn196 2.031 . S
O199 C203 1.269 . S
O200 Zn197 1.986 . S
O200 C207 1.262 . S
O201 Zn196 2.049 . S
O201 C209 1.260 . S
O202 Zn197 1.996 . S
O202 C209 1.257 . S
C203 O198 1.254 . S
C203 O199 1.269 . S
C204 O205 1.249 . S
C204 O206 1.270 . S
O205 Zn197 1.943 . S
O205 C204 1.249 . S
O206 Zn196 2.067 . S
O206 C204 1.270 . S
C207 O200 1.262 . S
C207 O208 1.232 . S
O208 C207 1.232 . S
C209 O201 1.260 . S
C209 O202 1.257 . S
Zn210 O213 2.031 . S
Zn210 O215 2.049 . S
Zn210 O220 2.067 . S
Zn211 O212 1.962 . S
Zn211 O214 1.986 . S
Zn211 O216 1.996 . S
Zn211 O219 1.943 . S
O212 Zn211 1.962 . S
O212 C217 1.254 . S
O213 Zn210 2.031 . S
O213 C217 1.269 . S
O214 Zn211 1.986 . S
O214 C221 1.262 . S
O215 Zn210 2.049 . S
O215 C223 1.260 . S
O216 Zn211 1.996 . S
O216 C223 1.257 . S
C217 O212 1.254 . S
C217 O213 1.269 . S
C218 O219 1.249 . S
C218 O220 1.270 . S
O219 Zn211 1.943 . S
O219 C218 1.249 . S
O220 Zn210 2.067 . S
O220 C218 1.270 . S
C221 O214 1.262 . S
C221 O222 1.232 . S
O222 C221 1.232 . S
C223 O215 1.260 . S
C223 O216 1.257 . S
Zn224 O227 2.031 . S
Zn224 O229 2.049 . S
Zn224 O234 2.067 . S
Zn225 O226 1.962 . S
Zn225 O228 1.986 . S
Zn225 O230 1.996 . S
Zn225 O233 1.896 1_545 S
O226 Zn225 1.962 . S
O226 C231 1.254 . S
O227 Zn224 2.031 . S
O227 C231 1.269 1_565 S
O228 Zn225 1.986 . S
O228 C235 1.262 . S
O229 Zn224 2.049 . S
O229 C237 1.260 1_565 S
O230 Zn225 1.996 . S
O230 C237 1.257 . S
C231 O226 1.254 . S
C231 O227 1.269 1_545 S
C232 O233 1.313 . S
C232 O234 1.270 . S
O233 Zn225 1.896 1_565 S
O233 C232 1.313 . S
O234 Zn224 2.067 . S
O234 C232 1.270 . S
C235 O228 1.262 . S
C235 O236 1.232 . S
O236 C235 1.232 . S
C237 O229 1.260 1_545 S
C237 O230 1.257 . S
Zn238 O241 2.031 . S
Zn238 O243 2.049 . S
Zn238 O248 2.067 . S
Zn239 O240 1.962 . S
Zn239 O242 1.986 . S
Zn239 O244 1.996 . S
Zn239 O247 1.943 . S
O240 Zn239 1.962 . S
O240 C245 1.254 . S
O241 Zn238 2.031 . S
O241 C245 1.269 . S
O242 Zn239 1.986 . S
O242 C249 1.262 . S
O243 Zn238 2.049 . S
O243 C251 1.260 . S
O244 Zn239 1.996 . S
O244 C251 1.257 . S
C245 O240 1.254 . S
C245 O241 1.269 . S
C246 O247 1.249 . S
C246 O248 1.270 . S
O247 Zn239 1.943 . S
O247 C246 1.249 . S
O248 Zn238 2.067 . S
O248 C246 1.270 . S
C249 O242 1.262 . S
C249 O250 1.232 . S
O250 C249 1.232 . S
C251 O243 1.260 . S
C251 O244 1.257 . S
Zn252 O255 2.031 . S
Zn252 O257 2.049 . S
Zn252 O262 2.067 . S
Zn253 O254 1.962 . S
Zn253 O256 1.986 . S
Zn253 O258 1.996 . S
Zn253 O261 1.943 . S
O254 Zn253 1.962 . S
O254 C259 1.254 . S
O255 Zn252 2.031 . S
O255 C259 1.269 . S
O256 Zn253 1.986 . S
O256 C263 1.262 . S
O257 Zn252 2.049 . S
O257 C265 1.260 . S
O258 Zn253 1.996 . S
O258 C265 1.257 . S
C259 O254 1.254 . S
C259 O255 1.269 . S
C260 O261 1.249 . S
C260 O262 1.270 . S
O261 Zn253 1.943 . S
O261 C260 1.249 . S
O262 Zn252 2.067 . S
O262 C260 1.270 . S
C263 O256 1.262 . S
C263 O264 1.232 . S
O264 C263 1.232 . S
C265 O257 1.260 . S
C265 O258 1.257 . S
Zn266 O269 2.031 . S
Zn266 O271 2.049 . S
Zn266 O276 2.067 . S
Zn267 O268 1.962 . S
Zn267 O270 1.986 . S
Zn267 O272 1.996 . S
Zn267 O275 1.943 . S
O268 Zn267 1.962 . S
O268 C273 1.254 . S
O269 Zn266 2.031 . S
O269 C273 1.269 . S
O270 Zn267 1.986 . S
O270 C277 1.262 . S
O271 Zn266 2.049 . S
O271 C279 1.260 . S
O272 Zn267 1.996 . S
O272 C279 1.257 . S
C273 O268 1.254 . S
C273 O269 1.269 . S
C274 O275 1.249 . S
C274 O276 1.270 . S
O275 Zn267 1.943 . S
O275 C274 1.249 . S
O276 Zn266 2.067 . S
O276 C274 1.270 . S
C277 O270 1.262 . S
C277 O278 1.232 . S
O278 C277 1.232 . S
C279 O271 1.260 . S
C279 O272 1.257 . S
Zn280 O283 2.031 1_554 S
Zn280 O285 2.049 . S
Zn280 O290 2.067 . S
Zn281 O282 1.962 1_554 S
Zn281 O284 1.986 . S
Zn281 O286 1.996 . S
Zn281 O289 1.943 . S
O282 Zn281 1.962 1_556 S
O282 C287 1.254 . S
O283 Zn280 2.031 1_556 S
O283 C287 1.269 . S
O284 Zn281 1.986 . S
O284 C291 1.262 . S
O285 Zn280 2.049 . S
O285 C293 1.260 . S
O286 Zn281 1.996 . S
O286 C293 1.257 . S
C287 O282 1.254 . S
C287 O283 1.269 . S
C288 O289 1.249 . S
C288 O290 1.270 . S
O289 Zn281 1.943 . S
O289 C288 1.249 . S
O290 Zn280 2.067 . S
O290 C288 1.270 . S
C291 O284 1.262 . S
C291 O292 1.232 1_554 S
O292 C291 1.232 1_556 S
C293 O285 1.260 . S
C293 O286 1.257 . S
Zn294 O297 2.031 . S
Zn294 O299 2.049 . S
Zn294 O304 2.067 . S
Zn295 O296 1.962 . S
Zn295 O298 1.986 . S
Zn295 O300 1.996 . S
Zn295 O303 1.943 . S
O296 Zn295 1.962 . S
O296 C301 1.254 . S
O297 Zn294 2.031 . S
O297 C301 1.269 . S
O298 Zn295 1.986 . S
O298 C305 1.262 . S
O299 Zn294 2.049 . S
O299 C307 1.260 . S
O300 Zn295 1.996 . S
O300 C307 1.257 . S
C301 O296 1.254 . S
C301 O297 1.269 . S
C302 O303 1.249 . S
C302 O304 1.270 . S
O303 Zn295 1.943 . S
O303 C302 1.249 . S
O304 Zn294 2.067 . S
O304 C302 1.270 . S
C305 O298 1.262 . S
C305 O306 1.232 . S
O306 C305 1.232 . S
C307 O299 1.260 . S
C307 O300 1.257 . S
Zn308 O311 2.031 . S
Zn308 O313 2.049 . S
Zn308 O318 2.067 . S
Zn309 O310 1.962 . S
Zn309 O312 1.986 . S
Zn309 O314 1.996 . S
Zn309 O317 1.943 . S
O310 Zn309 1.962 . S
O310 C315 1.254 . S
O311 Zn308 2.031 . S
O311 C315 1.269 . S
O312 Zn309 1.986 . S
O312 C319 1.262 . S
O313 Zn308 2.049 . S
O313 C321 1.260 . S
O314 Zn309 1.996 . S
O314 C321 1.257 . S
C315 O310 1.254 . S
C315 O311 1.269 . S
C316 O317 1.249 . S
C316 O318 1.270 . S
O317 Zn309 1.943 . S
O317 C316 1.249 . S
O318 Zn308 2.067 . S
O318 C316 1.270 . S
C319 O312 1.262 . S
C319 O320 1.232 . S
O320 C319 1.232 . S
C321 O313 1.260 . S
C321 O314 1.257 . S
Zn322 O325 2.031 . S
Zn322 O327 2.049 . S
Zn322 O332 2.067 . S
Zn323 O324 1.962 . S
Zn323 O326 1.986 . S
Zn323 O328 1.996 . S
Zn323 O331 1.943 . S
O324 Zn323 1.962 . S
O324 C329 1.254 . S
O325 Zn322 2.031 . S
O325 C329 1.269 . S
O326 Zn323 1.986 . S
O326 C333 1.262 . S
O327 Zn322 2.049 . S
O327 C335 1.260 . S
O328 Zn323 1.996 . S
O328 C335 1.257 . S
C329 O324 1.254 . S
C329 O325 1.269 . S
C330 O331 1.249 . S
C330 O332 1.270 . S
O331 Zn323 1.943 . S
O331 C330 1.249 . S
O332 Zn322 2.067 . S
O332 C330 1.270 . S
C333 O326 1.262 . S
C333 O334 1.232 . S
O334 C333 1.232 . S
C335 O327 1.260 . S
C335 O328 1.257 . S
C336 C338 1.422 1_556 S
C336 C340 1.415 . S
C336 N342 1.369 . S
C337 C338 1.421 . S
C337 C339 1.417 1_554 S
C337 C349 1.422 . S
C338 C336 1.422 1_554 S
C338 C337 1.421 . S
C338 N348 1.359 . S
C339 C337 1.417 1_556 S
C339 C341 1.329 . S
C339 H358 0.930 1_556 S
C340 C336 1.415 . S
C340 C341 1.437 . S
C340 C344 1.413 . S
C341 C339 1.329 . S
C341 C340 1.437 . S
C341 H363 0.929 . S
N342 C336 1.369 . S
N342 C343 1.338 . S
N342 Gd347 2.618 1_666 S
C343 N342 1.338 . S
C343 C345 1.378 . S
C343 H355 0.929 . S
C344 C340 1.413 . S
C344 C345 1.348 . S
C344 H360 0.931 . S
C345 C343 1.378 . S
C345 C344 1.348 . S
C345 H361 0.930 . S
Gd346 N366 2.622 . S
Gd346 N373 2.570 . S
Gd346 O380 2.353 . S
Gd346 O381 2.468 . S
Gd346 O382 2.427 . S
Gd346 O384 2.388 . S
Gd346 O385 2.386 . S
Gd346 O389 2.307 . S
Gd346 C399 2.805 . S
Gd347 N342 2.618 1_444 S
Gd347 N348 2.558 1_445 S
Gd347 O379 2.401 1_545 S
Gd347 O383 2.311 . S
Gd347 O386 2.357 . S
Gd347 O387 2.447 1_455 S
Gd347 O388 2.410 1_454 S
Gd347 O390 2.404 1_554 S
Gd347 C411 2.784 1_455 S
N348 C338 1.359 . S
N348 Gd347 2.558 1_665 S
N348 C350 1.343 . S
C349 C337 1.422 . S
C349 C351 1.321 . S
C349 H357 0.931 . S
C350 N348 1.343 . S
C350 C351 1.390 . S
C350 H352 0.931 . S
C351 C349 1.321 . S
C351 C350 1.390 . S
C351 H353 0.930 . S
H352 C350 0.931 . S
H353 C351 0.930 . S
H354 C377 0.931 . S
H355 C343 0.929 . S
H356 C378 0.930 1_556 S
H357 C349 0.931 . S
H358 C339 0.930 1_554 S
H359 C368 0.929 . S
H360 C344 0.931 . S
H361 C345 0.930 . S
H362 C400 0.930 . S
H363 C341 0.929 . S
H364 C369 0.931 . S
H365 C370 0.930 . S
N366 Gd346 2.622 . S
N366 C367 1.369 . S
N366 C368 1.338 . S
C367 N366 1.369 . S
C367 C371 1.415 . S
C367 C374 1.422 . S
C368 H359 0.929 . S
C368 N366 1.338 . S
C368 C370 1.378 . S
C369 H364 0.931 . S
C369 C370 1.348 . S
C369 C371 1.413 . S
C370 H365 0.930 . S
C370 C368 1.378 . S
C370 C369 1.348 . S
C371 C367 1.415 . S
C371 C369 1.413 . S
C371 C401 1.437 . S
H372 C401 0.929 . S
N373 Gd346 2.570 . S
N373 C374 1.359 . S
N373 C377 1.343 . S
C374 C367 1.422 . S
C374 N373 1.359 . S
C374 C376 1.421 . S
C375 C376 1.422 . S
C375 C378 1.321 . S
C375 H402 0.931 . S
C376 C374 1.421 . S
C376 C375 1.422 . S
C376 C400 1.417 . S
C377 H354 0.931 . S
C377 N373 1.343 . S
C377 C378 1.390 . S
C378 H356 0.930 1_554 S
C378 C375 1.321 . S
C378 C377 1.390 . S
O379 Gd347 2.401 1_565 S
O379 C391 1.265 . S
O380 Gd346 2.353 . S
O380 C391 1.242 1_545 S
O381 Gd346 2.468 . S
O381 C399 1.263 . S
O382 Gd346 2.427 . S
O382 C399 1.252 . S
O383 Gd347 2.311 . S
O383 C392 1.261 . S
O384 Gd346 2.388 . S
O384 C392 1.252 . S
O385 Gd346 2.386 . S
O385 C403 1.265 . S
O386 Gd347 2.357 . S
O386 C403 1.242 . S
O387 Gd347 2.447 1_655 S
O387 C411 1.263 . S
O388 Gd347 2.410 1_656 S
O388 C411 1.252 1_556 S
O389 Gd346 2.307 . S
O389 C404 1.261 1_554 S
O390 Gd347 2.404 1_556 S
O390 C404 1.252 . S
C391 O379 1.265 . S
C391 O380 1.242 1_565 S
C392 O383 1.261 . S
C392 O384 1.252 . S
C393 C396 1.394 . S
C393 C398 1.370 . S
C393 C399 1.500 . S
C394 C397 1.383 . S
C394 C398 1.395 . S
C395 C396 1.396 . S
C395 C397 1.365 . S
C395 H412 0.929 . S
C396 C393 1.394 . S
C396 C395 1.396 . S
C396 H413 0.930 . S
C397 C394 1.383 . S
C397 C395 1.365 . S
C397 H414 0.924 1_545 S
C398 C393 1.370 . S
C398 C394 1.395 . S
C398 H415 0.930 . S
C399 Gd346 2.805 . S
C399 O381 1.263 . S
C399 O382 1.252 . S
C399 C393 1.500 . S
C400 H362 0.930 . S
C400 C376 1.417 . S
C400 C401 1.329 . S
C401 C371 1.437 . S
C401 H372 0.929 . S
C401 C400 1.329 . S
H402 C375 0.931 . S
C403 O385 1.265 . S
C403 O386 1.242 . S
C404 O389 1.261 1_556 S
C404 O390 1.252 . S
C405 C408 1.406 . S
C405 C410 1.359 1_556 S
C405 C411 1.499 1_556 S
C406 C409 1.383 1_554 S
C406 C410 1.395 . S
C407 C408 1.396 . S
C407 C409 1.365 . S
C407 H416 0.929 . S
C408 C405 1.406 . S
C408 C407 1.396 . S
C408 H417 0.930 . S
C409 C406 1.383 1_556 S
C409 C407 1.365 . S
C409 H418 0.931 . S
C410 C405 1.359 1_554 S
C410 C406 1.395 . S
C410 H419 0.930 . S
C411 Gd347 2.784 1_655 S
C411 O387 1.263 . S
C411 O388 1.252 1_554 S
C411 C405 1.499 1_554 S
H412 C395 0.929 . S
H413 C396 0.930 . S
H414 C397 0.924 1_565 S
H415 C398 0.930 . S
H416 C407 0.929 . S
H417 C408 0.930 . S
H418 C409 0.931 . S
H419 C410 0.930 . S
C420 C422 1.422 . S
C420 C424 1.415 . S
C420 N426 1.369 . S
C421 C422 1.421 . S
C421 C423 1.417 . S
C421 C433 1.422 . S
C422 C420 1.422 . S
C422 C421 1.421 . S
C422 N432 1.359 . S
C423 C421 1.417 . S
C423 C425 1.329 . S
C423 H442 0.930 . S
C424 C420 1.415 . S
C424 C425 1.437 . S
C424 C428 1.413 . S
C425 C423 1.329 . S
C425 C424 1.437 . S
C425 H447 0.929 . S
N426 C420 1.369 . S
N426 C427 1.338 . S
N426 Gd431 2.622 . S
C427 N426 1.338 . S
C427 C429 1.378 . S
C427 H439 0.929 . S
C428 C424 1.413 . S
C428 C429 1.348 . S
C428 H444 0.931 . S
C429 C427 1.378 . S
C429 C428 1.348 . S
C429 H445 0.930 . S
Gd430 N450 2.622 . S
Gd430 N457 2.570 . S
Gd430 O464 2.353 . S
Gd430 O465 2.468 . S
Gd430 O466 2.427 . S
Gd430 O468 2.388 . S
Gd430 O469 2.386 . S
Gd430 O473 2.307 . S
Gd430 C483 2.805 . S
Gd431 N426 2.622 . S
Gd431 N432 2.570 . S
Gd431 O463 2.386 . S
Gd431 O467 2.307 . S
Gd431 O470 2.353 . S
Gd431 O471 2.468 . S
Gd431 O472 2.427 . S
Gd431 O474 2.388 . S
Gd431 C495 2.805 . S
N432 C422 1.359 . S
N432 Gd431 2.570 . S
N432 C434 1.343 . S
C433 C421 1.422 . S
C433 C435 1.321 . S
C433 H441 0.931 . S
C434 N432 1.343 . S
C434 C435 1.390 . S
C434 H436 0.931 . S
C435 C433 1.321 . S
C435 C434 1.390 . S
C435 H437 0.930 . S
H436 C434 0.931 . S
H437 C435 0.930 . S
H438 C461 0.931 . S
H439 C427 0.929 . S
H440 C462 0.930 . S
H441 C433 0.931 . S
H442 C423 0.930 . S
H443 C452 0.929 . S
H444 C428 0.931 . S
H445 C429 0.930 . S
H446 C484 0.930 . S
H447 C425 0.929 . S
H448 C453 0.931 . S
H449 C454 0.930 . S
N450 Gd430 2.622 . S
N450 C451 1.369 . S
N450 C452 1.338 . S
C451 N450 1.369 . S
C451 C455 1.415 . S
C451 C458 1.422 . S
C452 H443 0.929 . S
C452 N450 1.338 . S
C452 C454 1.378 . S
C453 H448 0.931 . S
C453 C454 1.348 . S
C453 C455 1.413 . S
C454 H449 0.930 . S
C454 C452 1.378 . S
C454 C453 1.348 . S
C455 C451 1.415 . S
C455 C453 1.413 . S
C455 C485 1.437 . S
H456 C485 0.929 . S
N457 Gd430 2.570 . S
N457 C458 1.359 . S
N457 C461 1.343 . S
C458 C451 1.422 . S
C458 N457 1.359 . S
C458 C460 1.421 . S
C459 C460 1.422 . S
C459 C462 1.321 . S
C459 H486 0.931 . S
C460 C458 1.421 . S
C460 C459 1.422 . S
C460 C484 1.417 . S
C461 H438 0.931 . S
C461 N457 1.343 . S
C461 C462 1.390 . S
C462 H440 0.930 . S
C462 C459 1.321 . S
C462 C461 1.390 . S
O463 Gd431 2.386 . S
O463 C475 1.265 . S
O464 Gd430 2.353 . S
O464 C475 1.242 . S
O465 Gd430 2.468 . S
O465 C483 1.263 . S
O466 Gd430 2.427 . S
O466 C483 1.252 . S
O467 Gd431 2.307 . S
O467 C476 1.261 . S
O468 Gd430 2.388 . S
O468 C476 1.252 . S
O469 Gd430 2.386 . S
O469 C487 1.265 . S
O470 Gd431 2.353 . S
O470 C487 1.242 . S
O471 Gd431 2.468 . S
O471 C495 1.263 . S
O472 Gd431 2.427 . S
O472 C495 1.252 . S
O473 Gd430 2.307 . S
O473 C488 1.261 . S
O474 Gd431 2.388 . S
O474 C488 1.252 . S
C475 O463 1.265 . S
C475 O464 1.242 . S
C476 O467 1.261 . S
C476 O468 1.252 . S
C477 C480 1.394 . S
C477 C482 1.370 . S
C477 C483 1.500 . S
C478 C481 1.383 . S
C478 C482 1.395 . S
C479 C480 1.396 . S
C479 C481 1.365 . S
C479 H496 0.929 . S
C480 C477 1.394 . S
C480 C479 1.396 . S
C480 H497 0.930 . S
C481 C478 1.383 . S
C481 C479 1.365 . S
C481 H498 0.931 . S
C482 C477 1.370 . S
C482 C478 1.395 . S
C482 H499 0.930 . S
C483 Gd430 2.805 . S
C483 O465 1.263 . S
C483 O466 1.252 . S
C483 C477 1.500 . S
C484 H446 0.930 . S
C484 C460 1.417 . S
C484 C485 1.329 . S
C485 C455 1.437 . S
C485 H456 0.929 . S
C485 C484 1.329 . S
H486 C459 0.931 . S
C487 O469 1.265 . S
C487 O470 1.242 . S
C488 O473 1.261 . S
C488 O474 1.252 . S
C489 C492 1.394 . S
C489 C494 1.370 . S
C489 C495 1.500 . S
C490 C493 1.383 . S
C490 C494 1.395 . S
C491 C492 1.396 . S
C491 C493 1.365 . S
C491 H500 0.929 . S
C492 C489 1.394 . S
C492 C491 1.396 . S
C492 H501 0.930 . S
C493 C490 1.383 . S
C493 C491 1.365 . S
C493 H502 0.931 . S
C494 C489 1.370 . S
C494 C490 1.395 . S
C494 H503 0.930 . S
C495 Gd431 2.805 . S
C495 O471 1.263 . S
C495 O472 1.252 . S
C495 C489 1.500 . S
H496 C479 0.929 . S
H497 C480 0.930 . S
H498 C481 0.931 . S
H499 C482 0.930 . S
H500 C491 0.929 . S
H501 C492 0.930 . S
H502 C493 0.931 . S
H503 C494 0.930 . S
C504 C506 1.422 . S
C504 C508 1.415 . S
C504 N510 1.369 . S
C505 C506 1.421 . S
C505 C507 1.417 . S
C505 C517 1.422 . S
C506 C504 1.422 . S
C506 C505 1.421 . S
C506 N516 1.359 . S
C507 C505 1.417 . S
C507 C509 1.329 . S
C507 H526 0.930 . S
C508 C504 1.415 . S
C508 C509 1.437 . S
C508 C512 1.413 . S
C509 C507 1.329 . S
C509 C508 1.437 . S
C509 H531 0.929 . S
N510 C504 1.369 . S
N510 C511 1.338 . S
N510 Gd515 2.622 . S
C511 N510 1.338 . S
C511 C513 1.378 . S
C511 H523 0.929 . S
C512 C508 1.413 . S
C512 C513 1.348 . S
C512 H528 0.931 . S
C513 C511 1.378 . S
C513 C512 1.348 . S
C513 H529 0.930 . S
Gd514 N534 2.622 1_545 S
Gd514 N541 2.570 1_545 S
Gd514 O548 2.353 . S
Gd514 O549 2.468 . S
Gd514 O550 2.427 . S
Gd514 O552 2.388 . S
Gd514 O553 2.386 1_545 S
Gd514 O557 2.307 . S
Gd514 C567 2.805 . S
Gd515 N510 2.622 . S
Gd515 N516 2.570 . S
Gd515 O547 2.386 . S
Gd515 O551 2.307 . S
Gd515 O554 2.353 1_545 S
Gd515 O555 2.468 . S
Gd515 O556 2.427 . S
Gd515 O558 2.388 . S
Gd515 C579 2.805 . S
N516 C506 1.359 . S
N516 Gd515 2.570 . S
N516 C518 1.343 . S
C517 C505 1.422 . S
C517 C519 1.321 . S
C517 H525 0.931 . S
C518 N516 1.343 . S
C518 C519 1.390 . S
C518 H520 0.931 . S
C519 C517 1.321 . S
C519 C518 1.390 . S
C519 H521 0.930 . S
H520 C518 0.931 . S
H521 C519 0.930 . S
H522 C545 0.931 . S
H523 C511 0.929 . S
H524 C546 0.930 . S
H525 C517 0.931 . S
H526 C507 0.930 . S
H527 C536 0.929 1_545 S
H528 C512 0.931 . S
H529 C513 0.930 . S
H530 C568 0.930 . S
H531 C509 0.929 . S
H532 C537 0.931 . S
H533 C538 0.930 . S
N534 Gd514 2.622 1_565 S
N534 C535 1.369 . S
N534 C536 1.338 . S
C535 N534 1.369 . S
C535 C539 1.415 . S
C535 C542 1.422 . S
C536 H527 0.929 1_565 S
C536 N534 1.338 . S
C536 C538 1.378 . S
C537 H532 0.931 . S
C537 C538 1.348 . S
C537 C539 1.413 . S
C538 H533 0.930 . S
C538 C536 1.378 . S
C538 C537 1.348 . S
C539 C535 1.415 . S
C539 C537 1.413 . S
C539 C569 1.437 . S
H540 C569 0.929 . S
N541 Gd514 2.570 1_565 S
N541 C542 1.359 . S
N541 C545 1.343 . S
C542 C535 1.422 . S
C542 N541 1.359 . S
C542 C544 1.421 . S
C543 C544 1.422 . S
C543 C546 1.321 . S
C543 H570 0.931 . S
C544 C542 1.421 . S
C544 C543 1.422 . S
C544 C568 1.417 . S
C545 H522 0.931 . S
C545 N541 1.343 . S
C545 C546 1.390 . S
C546 H524 0.930 . S
C546 C543 1.321 . S
C546 C545 1.390 . S
O547 Gd515 2.386 . S
O547 C559 1.265 . S
O548 Gd514 2.353 . S
O548 C559 1.242 . S
O549 Gd514 2.468 . S
O549 C567 1.263 . S
O550 Gd514 2.427 . S
O550 C567 1.252 . S
O551 Gd515 2.307 . S
O551 C560 1.261 . S
O552 Gd514 2.388 . S
O552 C560 1.252 . S
O553 Gd514 2.386 1_565 S
O553 C571 1.265 . S
O554 Gd515 2.353 1_565 S
O554 C571 1.242 . S
O555 Gd515 2.468 . S
O555 C579 1.263 . S
O556 Gd515 2.427 . S
O556 C579 1.252 . S
O557 Gd514 2.307 . S
O557 C572 1.261 . S
O558 Gd515 2.388 . S
O558 C572 1.252 . S
C559 O547 1.265 . S
C559 O548 1.242 . S
C560 O551 1.261 . S
C560 O552 1.252 . S
C561 C564 1.394 . S
C561 C566 1.370 . S
C561 C567 1.500 . S
C562 C565 1.383 . S
C562 C566 1.395 . S
C563 C564 1.396 . S
C563 C565 1.365 . S
C563 H580 0.929 . S
C564 C561 1.394 . S
C564 C563 1.396 . S
C564 H581 0.930 . S
C565 C562 1.383 . S
C565 C563 1.365 . S
C565 H582 0.931 . S
C566 C561 1.370 . S
C566 C562 1.395 . S
C566 H583 0.930 . S
C567 Gd514 2.805 . S
C567 O549 1.263 . S
C567 O550 1.252 . S
C567 C561 1.500 . S
C568 H530 0.930 . S
C568 C544 1.417 . S
C568 C569 1.329 . S
C569 C539 1.437 . S
C569 H540 0.929 . S
C569 C568 1.329 . S
H570 C543 0.931 . S
C571 O553 1.265 . S
C571 O554 1.242 . S
C572 O557 1.261 . S
C572 O558 1.252 . S
C573 C576 1.394 . S
C573 C578 1.370 . S
C573 C579 1.500 1_565 S
C574 C577 1.383 . S
C574 C578 1.395 . S
C575 C576 1.396 . S
C575 C577 1.365 . S
C575 H584 0.929 . S
C576 C573 1.394 . S
C576 C575 1.396 . S
C576 H585 0.930 . S
C577 C574 1.383 . S
C577 C575 1.365 . S
C577 H586 0.931 . S
C578 C573 1.370 . S
C578 C574 1.395 . S
C578 H587 0.930 . S
C579 Gd515 2.805 . S
C579 O555 1.263 . S
C579 O556 1.252 . S
C579 C573 1.500 1_545 S
H580 C563 0.929 . S
H581 C564 0.930 . S
H582 C565 0.931 . S
H583 C566 0.930 . S
H584 C575 0.929 . S
H585 C576 0.930 . S
H586 C577 0.931 . S
H587 C578 0.930 . S
C588 C590 1.422 . S
C588 C592 1.415 . S
C588 N594 1.369 . S
C589 C590 1.421 . S
C589 C591 1.417 . S
C589 C601 1.422 . S
C590 C588 1.422 . S
C590 C589 1.421 . S
C590 N600 1.359 . S
C591 C589 1.417 . S
C591 C593 1.329 . S
C591 H610 0.930 . S
C592 C588 1.415 . S
C592 C593 1.437 . S
C592 C596 1.413 . S
C593 C591 1.329 . S
C593 C592 1.437 . S
C593 H615 0.929 . S
N594 C588 1.369 . S
N594 C595 1.338 . S
N594 Gd599 2.622 . S
C595 N594 1.338 . S
C595 C597 1.378 . S
C595 H607 0.929 . S
C596 C592 1.413 . S
C596 C597 1.348 . S
C596 H612 0.931 . S
C597 C595 1.378 . S
C597 C596 1.348 . S
C597 H613 0.930 . S
Gd598 N618 2.622 . S
Gd598 N625 2.570 . S
Gd598 O632 2.353 . S
Gd598 O633 2.468 . S
Gd598 O634 2.427 . S
Gd598 O636 2.388 . S
Gd598 O637 2.386 . S
Gd598 O641 2.307 . S
Gd598 C651 2.805 . S
Gd599 N594 2.622 . S
Gd599 N600 2.570 . S
Gd599 O631 2.386 . S
Gd599 O635 2.307 . S
Gd599 O638 2.353 . S
Gd599 O639 2.468 . S
Gd599 O640 2.427 . S
Gd599 O642 2.388 . S
Gd599 C663 2.805 . S
N600 C590 1.359 . S
N600 Gd599 2.570 . S
N600 C602 1.343 . S
C601 C589 1.422 . S
C601 C603 1.321 . S
C601 H609 0.931 . S
C602 N600 1.343 . S
C602 C603 1.390 . S
C602 H604 0.931 . S
C603 C601 1.321 . S
C603 C602 1.390 . S
C603 H605 0.930 . S
H604 C602 0.931 . S
H605 C603 0.930 . S
H606 C629 0.931 . S
H607 C595 0.929 . S
H608 C630 0.930 . S
H609 C601 0.931 . S
H610 C591 0.930 . S
H611 C620 0.929 . S
H612 C596 0.931 . S
H613 C597 0.930 . S
H614 C652 0.930 . S
H615 C593 0.929 . S
H616 C621 0.931 . S
H617 C622 0.930 . S
N618 Gd598 2.622 . S
N618 C619 1.369 . S
N618 C620 1.338 . S
C619 N618 1.369 . S
C619 C623 1.415 . S
C619 C626 1.422 . S
C620 H611 0.929 . S
C620 N618 1.338 . S
C620 C622 1.378 . S
C621 H616 0.931 . S
C621 C622 1.348 . S
C621 C623 1.413 . S
C622 H617 0.930 . S
C622 C620 1.378 . S
C622 C621 1.348 . S
C623 C619 1.415 . S
C623 C621 1.413 . S
C623 C653 1.437 . S
H624 C653 0.929 . S
N625 Gd598 2.570 . S
N625 C626 1.359 . S
N625 C629 1.343 . S
C626 C619 1.422 . S
C626 N625 1.359 . S
C626 C628 1.421 . S
C627 C628 1.422 . S
C627 C630 1.321 . S
C627 H654 0.931 . S
C628 C626 1.421 . S
C628 C627 1.422 . S
C628 C652 1.417 . S
C629 H606 0.931 . S
C629 N625 1.343 . S
C629 C630 1.390 . S
C630 H608 0.930 . S
C630 C627 1.321 . S
C630 C629 1.390 . S
O631 Gd599 2.386 . S
O631 C643 1.265 . S
O632 Gd598 2.353 . S
O632 C643 1.242 . S
O633 Gd598 2.468 . S
O633 C651 1.263 . S
O634 Gd598 2.427 . S
O634 C651 1.252 . S
O635 Gd599 2.307 . S
O635 C644 1.261 . S
O636 Gd598 2.388 . S
O636 C644 1.252 . S
O637 Gd598 2.386 . S
O637 C655 1.265 . S
O638 Gd599 2.353 . S
O638 C655 1.242 . S
O639 Gd599 2.468 . S
O639 C663 1.263 . S
O640 Gd599 2.427 . S
O640 C663 1.252 . S
O641 Gd598 2.307 . S
O641 C656 1.261 . S
O642 Gd599 2.388 . S
O642 C656 1.252 . S
C643 O631 1.265 . S
C643 O632 1.242 . S
C644 O635 1.261 . S
C644 O636 1.252 . S
C645 C648 1.394 . S
C645 C650 1.370 . S
C645 C651 1.500 . S
C646 C649 1.383 . S
C646 C650 1.395 . S
C647 C648 1.396 . S
C647 C649 1.365 . S
C647 H664 0.929 . S
C648 C645 1.394 . S
C648 C647 1.396 . S
C648 H665 0.930 . S
C649 C646 1.383 . S
C649 C647 1.365 . S
C649 H666 0.931 . S
C650 C645 1.370 . S
C650 C646 1.395 . S
C650 H667 0.930 . S
C651 Gd598 2.805 . S
C651 O633 1.263 . S
C651 O634 1.252 . S
C651 C645 1.500 . S
C652 H614 0.930 . S
C652 C628 1.417 . S
C652 C653 1.329 . S
C653 C623 1.437 . S
C653 H624 0.929 . S
C653 C652 1.329 . S
H654 C627 0.931 . S
C655 O637 1.265 . S
C655 O638 1.242 . S
C656 O641 1.261 . S
C656 O642 1.252 . S
C657 C660 1.394 . S
C657 C662 1.370 . S
C657 C663 1.500 . S
C658 C661 1.383 . S
C658 C662 1.395 . S
C659 C660 1.396 . S
C659 C661 1.365 . S
C659 H668 0.929 . S
C660 C657 1.394 . S
C660 C659 1.396 . S
C660 H669 0.930 . S
C661 C658 1.383 . S
C661 C659 1.365 . S
C661 H670 0.931 . S
C662 C657 1.370 . S
C662 C658 1.395 . S
C662 H671 0.930 . S
C663 Gd599 2.805 . S
C663 O639 1.263 . S
C663 O640 1.252 . S
C663 C657 1.500 . S
H664 C647 0.929 . S
H665 C648 0.930 . S
H666 C649 0.931 . S
H667 C650 0.930 . S
H668 C659 0.929 . S
H669 C660 0.930 . S
H670 C661 0.931 . S
H671 C662 0.930 . S
C672 C674 1.422 . S
C672 C676 1.415 1_455 S
C672 N678 1.369 1_455 S
C673 C674 1.421 . S
C673 C675 1.417 . S
C673 C685 1.422 . S
C674 C672 1.422 . S
C674 C673 1.421 . S
C674 N684 1.359 . S
C675 C673 1.417 . S
C675 C677 1.329 . S
C675 H694 0.930 . S
C676 C672 1.415 1_655 S
C676 C677 1.437 1_655 S
C676 C680 1.413 . S
C677 C675 1.329 . S
C677 C676 1.437 1_455 S
C677 H699 0.949 . S
N678 C672 1.369 1_655 S
N678 C679 1.338 . S
N678 Gd683 2.622 1_655 S
C679 N678 1.338 . S
C679 C681 1.378 . S
C679 H691 0.929 . S
C680 C676 1.413 . S
C680 C681 1.348 . S
C680 H696 0.931 . S
C681 C679 1.378 . S
C681 C680 1.348 . S
C681 H697 0.930 . S
Gd682 N702 2.622 . S
Gd682 N709 2.570 . S
Gd682 O716 2.353 1_565 S
Gd682 O717 2.468 . S
Gd682 O718 2.427 . S
Gd682 O720 2.388 1_565 S
Gd682 O721 2.386 1_565 S
Gd682 O725 2.317 . S
Gd682 C735 2.805 . S
Gd683 N678 2.622 1_455 S
Gd683 N684 2.570 . S
Gd683 O715 2.386 . S
Gd683 O719 2.307 . S
Gd683 O722 2.353 . S
Gd683 O723 2.468 . S
Gd683 O724 2.427 1_455 S
Gd683 O726 2.388 1_455 S
Gd683 C747 2.805 . S
N684 C674 1.359 . S
N684 Gd683 2.570 . S
N684 C686 1.343 . S
C685 C673 1.422 . S
C685 C687 1.321 . S
C685 H693 0.931 . S
C686 N684 1.343 . S
C686 C687 1.390 . S
C686 H688 0.931 . S
C687 C685 1.321 . S
C687 C686 1.390 . S
C687 H689 0.930 . S
H688 C686 0.931 . S
H689 C687 0.930 . S
H690 C713 0.963 . S
H691 C679 0.929 . S
H692 C714 0.930 . S
H693 C685 0.931 . S
H694 C675 0.930 . S
H695 C704 0.929 1_545 S
H696 C680 0.931 . S
H697 C681 0.930 . S
H698 C736 0.930 . S
H699 C677 0.949 . S
H700 C705 0.931 . S
H701 C706 0.930 . S
N702 Gd682 2.622 . S
N702 C703 1.369 . S
N702 C704 1.338 . S
C703 N702 1.369 . S
C703 C707 1.415 . S
C703 C710 1.422 . S
C704 H695 0.929 1_565 S
C704 N702 1.338 . S
C704 C706 1.378 . S
C705 H700 0.931 . S
C705 C706 1.348 . S
C705 C707 1.413 . S
C706 H701 0.930 . S
C706 C704 1.378 . S
C706 C705 1.348 . S
C707 C703 1.415 . S
C707 C705 1.413 . S
C707 C737 1.437 . S
H708 C737 0.929 . S
N709 Gd682 2.570 . S
N709 C710 1.359 . S
N709 C713 1.299 1_455 S
C710 C703 1.422 . S
C710 N709 1.359 . S
C710 C712 1.421 . S
C711 C712 1.422 1_655 S
C711 C714 1.321 . S
C711 H738 0.931 . S
C712 C710 1.421 . S
C712 C711 1.422 1_455 S
C712 C736 1.417 . S
C713 H690 0.963 . S
C713 N709 1.299 1_655 S
C713 C714 1.406 . S
C714 H692 0.930 . S
C714 C711 1.321 . S
C714 C713 1.406 . S
O715 Gd683 2.386 . S
O715 C727 1.265 . S
O716 Gd682 2.353 1_545 S
O716 C727 1.242 . S
O717 Gd682 2.468 . S
O717 C735 1.263 . S
O718 Gd682 2.427 . S
O718 C735 1.252 . S
O719 Gd683 2.307 . S
O719 C728 1.261 . S
O720 Gd682 2.388 1_545 S
O720 C728 1.252 . S
O721 Gd682 2.386 1_545 S
O721 C739 1.265 . S
O722 Gd683 2.353 . S
O722 C739 1.242 . S
O723 Gd683 2.468 . S
O723 C747 1.263 . S
O724 Gd683 2.427 1_655 S
O724 C747 1.252 1_655 S
O725 Gd682 2.317 . S
O725 C740 1.246 1_465 S
O726 Gd683 2.388 1_655 S
O726 C740 1.252 . S
C727 O715 1.265 . S
C727 O716 1.242 . S
C728 O719 1.261 . S
C728 O720 1.252 . S
C729 C732 1.394 . S
C729 C734 1.370 . S
C729 C735 1.500 . S
C730 C733 1.383 . S
C730 C734 1.395 . S
C731 C732 1.396 . S
C731 C733 1.365 . S
C731 H748 0.929 . S
C732 C729 1.394 . S
C732 C731 1.396 . S
C732 H749 0.930 . S
C733 C730 1.383 . S
C733 C731 1.365 . S
C733 H750 0.931 . S
C734 C729 1.370 . S
C734 C730 1.395 . S
C734 H751 0.930 . S
C735 Gd682 2.805 . S
C735 O717 1.263 . S
C735 O718 1.252 . S
C735 C729 1.500 . S
C736 H698 0.930 . S
C736 C712 1.417 . S
C736 C737 1.329 . S
C737 C707 1.437 . S
C737 H708 0.929 . S
C737 C736 1.329 . S
H738 C711 0.931 . S
C739 O721 1.265 . S
C739 O722 1.242 . S
C740 O725 1.246 1_645 S
C740 O726 1.252 . S
C741 C744 1.394 1_455 S
C741 C746 1.370 . S
C741 C747 1.500 . S
C742 C745 1.383 . S
C742 C746 1.395 . S
C743 C744 1.396 . S
C743 C745 1.365 1_655 S
C743 H752 0.929 . S
C744 C741 1.394 1_655 S
C744 C743 1.396 . S
C744 H753 0.930 . S
C745 C742 1.383 . S
C745 C743 1.365 1_455 S
C745 H754 0.931 1_455 S
C746 C741 1.370 . S
C746 C742 1.395 . S
C746 H755 0.930 . S
C747 Gd683 2.805 . S
C747 O723 1.263 . S
C747 O724 1.252 1_455 S
C747 C741 1.500 . S
H748 C731 0.929 . S
H749 C732 0.930 . S
H750 C733 0.931 . S
H751 C734 0.930 . S
H752 C743 0.929 . S
H753 C744 0.930 . S
H754 C745 0.931 1_655 S
H755 C746 0.930 . S
C756 C758 1.422 . S
C756 C760 1.415 . S
C756 N762 1.369 . S
C757 C758 1.421 . S
C757 C759 1.417 . S
C757 C769 1.422 . S
C758 C756 1.422 . S
C758 C757 1.421 . S
C758 N768 1.359 . S
C759 C757 1.417 . S
C759 C761 1.329 . S
C759 H778 0.930 . S
C760 C756 1.415 . S
C760 C761 1.437 . S
C760 C764 1.413 . S
C761 C759 1.329 . S
C761 C760 1.437 . S
C761 H783 0.929 . S
N762 C756 1.369 . S
N762 C763 1.338 . S
N762 Gd767 2.622 . S
C763 N762 1.338 . S
C763 C765 1.378 . S
C763 H775 0.929 . S
C764 C760 1.413 . S
C764 C765 1.348 . S
C764 H780 0.931 . S
C765 C763 1.378 . S
C765 C764 1.348 . S
C765 H781 0.930 . S
Gd766 N786 2.622 . S
Gd766 N793 2.570 . S
Gd766 O800 2.353 . S
Gd766 O801 2.468 . S
Gd766 O802 2.427 . S
Gd766 O804 2.388 . S
Gd766 O805 2.386 . S
Gd766 O809 2.307 . S
Gd766 C819 2.805 . S
Gd767 N762 2.622 . S
Gd767 N768 2.570 . S
Gd767 O799 2.386 . S
Gd767 O803 2.307 . S
Gd767 O806 2.353 . S
Gd767 O807 2.468 . S
Gd767 O808 2.427 . S
Gd767 O810 2.388 . S
Gd767 C831 2.805 . S
N768 C758 1.359 . S
N768 Gd767 2.570 . S
N768 C770 1.343 . S
C769 C757 1.422 . S
C769 C771 1.321 . S
C769 H777 0.931 . S
C770 N768 1.343 . S
C770 C771 1.390 . S
C770 H772 0.931 . S
C771 C769 1.321 . S
C771 C770 1.390 . S
C771 H773 0.930 . S
H772 C770 0.931 . S
H773 C771 0.930 . S
H774 C797 0.931 . S
H775 C763 0.929 . S
H776 C798 0.930 . S
H777 C769 0.931 . S
H778 C759 0.930 . S
H779 C788 0.929 . S
H780 C764 0.931 . S
H781 C765 0.930 . S
H782 C820 0.930 . S
H783 C761 0.929 . S
H784 C789 0.931 . S
H785 C790 0.930 . S
N786 Gd766 2.622 . S
N786 C787 1.369 . S
N786 C788 1.338 . S
C787 N786 1.369 . S
C787 C791 1.415 . S
C787 C794 1.422 . S
C788 H779 0.929 . S
C788 N786 1.338 . S
C788 C790 1.378 . S
C789 H784 0.931 . S
C789 C790 1.348 . S
C789 C791 1.413 . S
C790 H785 0.930 . S
C790 C788 1.378 . S
C790 C789 1.348 . S
C791 C787 1.415 . S
C791 C789 1.413 . S
C791 C821 1.437 . S
H792 C821 0.929 . S
N793 Gd766 2.570 . S
N793 C794 1.359 . S
N793 C797 1.343 . S
C794 C787 1.422 . S
C794 N793 1.359 . S
C794 C796 1.421 . S
C795 C796 1.422 . S
C795 C798 1.321 . S
C795 H822 0.931 . S
C796 C794 1.421 . S
C796 C795 1.422 . S
C796 C820 1.417 . S
C797 H774 0.931 . S
C797 N793 1.343 . S
C797 C798 1.390 . S
C798 H776 0.930 . S
C798 C795 1.321 . S
C798 C797 1.390 . S
O799 Gd767 2.386 . S
O799 C811 1.265 . S
O800 Gd766 2.353 . S
O800 C811 1.242 . S
O801 Gd766 2.468 . S
O801 C819 1.263 . S
O802 Gd766 2.427 . S
O802 C819 1.252 . S
O803 Gd767 2.307 . S
O803 C812 1.261 . S
O804 Gd766 2.388 . S
O804 C812 1.252 . S
O805 Gd766 2.386 . S
O805 C823 1.265 . S
O806 Gd767 2.353 . S
O806 C823 1.242 . S
O807 Gd767 2.468 . S
O807 C831 1.263 . S
O808 Gd767 2.427 . S
O808 C831 1.252 . S
O809 Gd766 2.307 . S
O809 C824 1.261 . S
O810 Gd767 2.388 . S
O810 C824 1.252 . S
C811 O799 1.265 . S
C811 O800 1.242 . S
C812 O803 1.261 . S
C812 O804 1.252 . S
C813 C816 1.394 . S
C813 C818 1.370 . S
C813 C819 1.500 . S
C814 C817 1.383 . S
C814 C818 1.395 . S
C815 C816 1.396 . S
C815 C817 1.365 . S
C815 H832 0.929 . S
C816 C813 1.394 . S
C816 C815 1.396 . S
C816 H833 0.930 . S
C817 C814 1.383 . S
C817 C815 1.365 . S
C817 H834 0.931 . S
C818 C813 1.370 . S
C818 C814 1.395 . S
C818 H835 0.930 . S
C819 Gd766 2.805 . S
C819 O801 1.263 . S
C819 O802 1.252 . S
C819 C813 1.500 . S
C820 H782 0.930 . S
C820 C796 1.417 . S
C820 C821 1.329 . S
C821 C791 1.437 . S
C821 H792 0.929 . S
C821 C820 1.329 . S
H822 C795 0.931 . S
C823 O805 1.265 . S
C823 O806 1.242 . S
C824 O809 1.261 . S
C824 O810 1.252 . S
C825 C828 1.394 . S
C825 C830 1.370 . S
C825 C831 1.500 . S
C826 C829 1.383 . S
C826 C830 1.395 . S
C827 C828 1.396 . S
C827 C829 1.365 . S
C827 H836 0.929 . S
C828 C825 1.394 . S
C828 C827 1.396 . S
C828 H837 0.930 . S
C829 C826 1.383 . S
C829 C827 1.365 . S
C829 H838 0.931 . S
C830 C825 1.370 . S
C830 C826 1.395 . S
C830 H839 0.930 . S
C831 Gd767 2.805 . S
C831 O807 1.263 . S
C831 O808 1.252 . S
C831 C825 1.500 . S
H832 C815 0.929 . S
H833 C816 0.930 . S
H834 C817 0.931 . S
H835 C818 0.930 . S
H836 C827 0.929 . S
H837 C828 0.930 . S
H838 C829 0.931 . S
H839 C830 0.930 . S
C840 C842 1.422 . S
C840 C844 1.415 1_545 S
C840 N846 1.369 1_545 S
C841 C842 1.421 . S
C841 C843 1.417 . S
C841 C853 1.422 . S
C842 C840 1.422 . S
C842 C841 1.421 . S
C842 N852 1.359 . S
C843 C841 1.417 . S
C843 C845 1.329 . S
C843 H862 0.930 . S
C844 C840 1.415 1_565 S
C844 C845 1.437 1_565 S
C844 C848 1.413 . S
C845 C843 1.329 . S
C845 C844 1.437 1_545 S
C845 H867 0.929 1_545 S
N846 C840 1.369 1_565 S
N846 C847 1.338 . S
N846 Gd851 2.622 1_565 S
C847 N846 1.338 . S
C847 C849 1.378 . S
C847 H859 0.929 . S
C848 C844 1.413 . S
C848 C849 1.348 . S
C848 H864 0.931 . S
C849 C847 1.378 . S
C849 C848 1.348 . S
C849 H865 0.930 . S
Gd850 N870 2.622 . S
Gd850 N877 2.570 . S
Gd850 O884 2.353 1_556 S
Gd850 O885 2.468 . S
Gd850 O886 2.427 . S
Gd850 O888 2.388 1_556 S
Gd850 O889 2.386 1_556 S
Gd850 O893 2.307 . S
Gd850 C903 2.805 . S
Gd851 N846 2.622 1_545 S
Gd851 N852 2.570 . S
Gd851 O883 2.386 . S
Gd851 O887 2.307 . S
Gd851 O890 2.353 . S
Gd851 O891 2.468 . S
Gd851 O892 2.427 1_545 S
Gd851 O894 2.388 1_545 S
Gd851 C915 2.805 . S
N852 C842 1.359 . S
N852 Gd851 2.570 . S
N852 C854 1.343 . S
C853 C841 1.422 . S
C853 C855 1.321 . S
C853 H861 0.931 . S
C854 N852 1.343 . S
C854 C855 1.390 . S
C854 H856 0.931 . S
C855 C853 1.321 . S
C855 C854 1.390 . S
C855 H857 0.930 . S
H856 C854 0.931 . S
H857 C855 0.930 . S
H858 C881 0.960 . S
H859 C847 0.929 . S
H860 C882 0.930 . S
H861 C853 0.931 . S
H862 C843 0.930 . S
H863 C872 0.929 . S
H864 C848 0.931 . S
H865 C849 0.930 . S
H866 C904 0.930 . S
H867 C845 0.929 1_565 S
H868 C873 0.931 . S
H869 C874 0.930 . S
N870 Gd850 2.622 . S
N870 C871 1.369 . S
N870 C872 1.338 . S
C871 N870 1.369 . S
C871 C875 1.415 . S
C871 C878 1.422 . S
C872 H863 0.929 . S
C872 N870 1.338 . S
C872 C874 1.378 . S
C873 H868 0.931 . S
C873 C874 1.348 . S
C873 C875 1.413 . S
C874 H869 0.930 . S
C874 C872 1.378 . S
C874 C873 1.348 . S
C875 C871 1.415 . S
C875 C873 1.413 . S
C875 C905 1.437 . S
H876 C905 0.929 . S
N877 Gd850 2.570 . S
N877 C878 1.359 . S
N877 C881 1.343 . S
C878 C871 1.422 . S
C878 N877 1.359 . S
C878 C880 1.421 . S
C879 C880 1.422 . S
C879 C882 1.321 1_545 S
C879 H906 0.931 1_545 S
C880 C878 1.421 . S
C880 C879 1.422 . S
C880 C904 1.417 . S
C881 H858 0.960 . S
C881 N877 1.343 . S
C881 C882 1.390 1_545 S
C882 H860 0.930 . S
C882 C879 1.321 1_565 S
C882 C881 1.390 1_565 S
O883 Gd851 2.386 . S
O883 C895 1.265 . S
O884 Gd850 2.353 1_554 S
O884 C895 1.242 . S
O885 Gd850 2.468 . S
O885 C903 1.263 . S
O886 Gd850 2.427 . S
O886 C903 1.252 . S
O887 Gd851 2.307 . S
O887 C896 1.261 . S
O888 Gd850 2.388 1_554 S
O888 C896 1.252 . S
O889 Gd850 2.386 1_554 S
O889 C907 1.265 . S
O890 Gd851 2.353 . S
O890 C907 1.242 . S
O891 Gd851 2.468 . S
O891 C915 1.263 . S
O892 Gd851 2.427 1_565 S
O892 C915 1.252 1_565 S
O893 Gd850 2.307 . S
O893 C908 1.280 1_545 S
O894 Gd851 2.388 1_565 S
O894 C908 1.207 1_554 S
C895 O883 1.265 . S
C895 O884 1.242 . S
C896 O887 1.261 . S
C896 O888 1.252 . S
C897 C900 1.394 . S
C897 C902 1.370 . S
C897 C903 1.500 . S
C898 C901 1.383 . S
C898 C902 1.395 . S
C899 C900 1.396 . S
C899 C901 1.365 . S
C899 H916 0.929 . S
C900 C897 1.394 . S
C900 C899 1.396 . S
C900 H917 0.930 . S
C901 C898 1.383 . S
C901 C899 1.365 . S
C901 H918 0.931 . S
C902 C897 1.370 . S
C902 C898 1.395 . S
C902 H919 0.930 . S
C903 Gd850 2.805 . S
C903 O885 1.263 . S
C903 O886 1.252 . S
C903 C897 1.500 . S
C904 H866 0.930 . S
C904 C880 1.417 . S
C904 C905 1.329 . S
C905 C875 1.437 . S
C905 H876 0.929 . S
C905 C904 1.329 . S
H906 C879 0.931 1_565 S
C907 O889 1.265 . S
C907 O890 1.242 . S
C908 O893 1.280 1_565 S
C908 O894 1.207 1_556 S
C909 C912 1.426 . S
C909 C914 1.346 1_565 S
C909 C915 1.493 1_565 S
C910 C913 1.383 1_545 S
C910 C914 1.395 . S
C911 C912 1.396 . S
C911 C913 1.365 . S
C911 H920 0.929 . S
C912 C909 1.426 . S
C912 C911 1.396 . S
C912 H921 0.930 . S
C913 C910 1.383 1_565 S
C913 C911 1.365 . S
C913 H922 0.931 . S
C914 C909 1.346 1_545 S
C914 C910 1.395 . S
C914 H923 0.930 . S
C915 Gd851 2.805 . S
C915 O891 1.263 . S
C915 O892 1.252 1_545 S
C915 C909 1.493 1_545 S
H916 C899 0.929 . S
H917 C900 0.930 . S
H918 C901 0.931 . S
H919 C902 0.930 . S
H920 C911 0.929 . S
H921 C912 0.930 . S
H922 C913 0.931 . S
H923 C914 0.930 . S
C924 C926 1.422 . S
C924 C928 1.415 . S
C924 N930 1.369 . S
C925 C926 1.421 . S
C925 C927 1.417 . S
C925 C937 1.422 . S
C926 C924 1.422 . S
C926 C925 1.421 . S
C926 N936 1.359 . S
C927 C925 1.417 . S
C927 C929 1.329 . S
C927 H946 0.930 . S
C928 C924 1.415 . S
C928 C929 1.437 . S
C928 C932 1.413 . S
C929 C927 1.329 . S
C929 C928 1.437 . S
C929 H951 0.929 . S
N930 C924 1.369 . S
N930 C931 1.338 . S
N930 Gd935 2.622 . S
C931 N930 1.338 . S
C931 C933 1.378 . S
C931 H943 0.929 . S
C932 C928 1.413 . S
C932 C933 1.348 . S
C932 H948 0.931 . S
C933 C931 1.378 . S
C933 C932 1.348 . S
C933 H949 0.930 . S
Gd934 N954 2.622 . S
Gd934 N961 2.570 . S
Gd934 O968 2.353 . S
Gd934 O969 2.468 . S
Gd934 O970 2.427 . S
Gd934 O972 2.388 . S
Gd934 O973 2.386 . S
Gd934 O977 2.307 . S
Gd934 C987 2.805 . S
Gd935 N930 2.622 . S
Gd935 N936 2.570 . S
Gd935 O967 2.386 . S
Gd935 O971 2.307 . S
Gd935 O974 2.353 . S
Gd935 O975 2.468 . S
Gd935 O976 2.427 . S
Gd935 O978 2.388 . S
Gd935 C999 2.805 . S
N936 C926 1.359 . S
N936 Gd935 2.570 . S
N936 C938 1.343 . S
C937 C925 1.422 . S
C937 C939 1.321 . S
C937 H945 0.931 . S
C938 N936 1.343 . S
C938 C939 1.390 . S
C938 H940 0.931 . S
C939 C937 1.321 . S
C939 C938 1.390 . S
C939 H941 0.930 . S
H940 C938 0.931 . S
H941 C939 0.930 . S
H942 C965 0.931 . S
H943 C931 0.929 . S
H944 C966 0.930 . S
H945 C937 0.931 . S
H946 C927 0.930 . S
H947 C956 0.929 . S
H948 C932 0.931 . S
H949 C933 0.930 . S
H950 C988 0.930 . S
H951 C929 0.929 . S
H952 C957 0.931 . S
H953 C958 0.930 . S
N954 Gd934 2.622 . S
N954 C955 1.369 . S
N954 C956 1.338 . S
C955 N954 1.369 . S
C955 C959 1.415 . S
C955 C962 1.422 . S
C956 H947 0.929 . S
C956 N954 1.338 . S
C956 C958 1.378 . S
C957 H952 0.931 . S
C957 C958 1.348 . S
C957 C959 1.413 . S
C958 H953 0.930 . S
C958 C956 1.378 . S
C958 C957 1.348 . S
C959 C955 1.415 . S
C959 C957 1.413 . S
C959 C989 1.437 . S
H960 C989 0.929 . S
N961 Gd934 2.570 . S
N961 C962 1.359 . S
N961 C965 1.343 . S
C962 C955 1.422 . S
C962 N961 1.359 . S
C962 C964 1.421 . S
C963 C964 1.422 . S
C963 C966 1.321 . S
C963 H990 0.931 . S
C964 C962 1.421 . S
C964 C963 1.422 . S
C964 C988 1.417 . S
C965 H942 0.931 . S
C965 N961 1.343 . S
C965 C966 1.390 . S
C966 H944 0.930 . S
C966 C963 1.321 . S
C966 C965 1.390 . S
O967 Gd935 2.386 . S
O967 C979 1.265 . S
O968 Gd934 2.353 . S
O968 C979 1.242 . S
O969 Gd934 2.468 . S
O969 C987 1.263 . S
O970 Gd934 2.427 . S
O970 C987 1.252 . S
O971 Gd935 2.307 . S
O971 C980 1.261 . S
O972 Gd934 2.388 . S
O972 C980 1.252 . S
O973 Gd934 2.386 . S
O973 C991 1.265 . S
O974 Gd935 2.353 . S
O974 C991 1.242 . S
O975 Gd935 2.468 . S
O975 C999 1.263 . S
O976 Gd935 2.427 . S
O976 C999 1.252 . S
O977 Gd934 2.307 . S
O977 C992 1.261 . S
O978 Gd935 2.388 . S
O978 C992 1.252 . S
C979 O967 1.265 . S
C979 O968 1.242 . S
C980 O971 1.261 . S
C980 O972 1.252 . S
C981 C984 1.394 . S
C981 C986 1.370 . S
C981 C987 1.500 . S
C982 C985 1.383 . S
C982 C986 1.395 . S
C983 C984 1.396 . S
C983 C985 1.365 . S
C983 H1000 0.929 . S
C984 C981 1.394 . S
C984 C983 1.396 . S
C984 H1001 0.930 . S
C985 C982 1.383 . S
C985 C983 1.365 . S
C985 H1002 0.931 . S
C986 C981 1.370 . S
C986 C982 1.395 . S
C986 H1003 0.930 . S
C987 Gd934 2.805 . S
C987 O969 1.263 . S
C987 O970 1.252 . S
C987 C981 1.500 . S
C988 H950 0.930 . S
C988 C964 1.417 . S
C988 C989 1.329 . S
C989 C959 1.437 . S
C989 H960 0.929 . S
C989 C988 1.329 . S
H990 C963 0.931 . S
C991 O973 1.265 . S
C991 O974 1.242 . S
C992 O977 1.261 . S
C992 O978 1.252 . S
C993 C996 1.394 . S
C993 C998 1.370 . S
C993 C999 1.500 . S
C994 C997 1.383 . S
C994 C998 1.395 . S
C995 C996 1.396 . S
C995 C997 1.365 . S
C995 H1004 0.929 . S
C996 C993 1.394 . S
C996 C995 1.396 . S
C996 H1005 0.930 . S
C997 C994 1.383 . S
C997 C995 1.365 . S
C997 H1006 0.931 . S
C998 C993 1.370 . S
C998 C994 1.395 . S
C998 H1007 0.930 . S
C999 Gd935 2.805 . S
C999 O975 1.263 . S
C999 O976 1.252 . S
C999 C993 1.500 . S
H1000 C983 0.929 . S
H1001 C984 0.930 . S
H1002 C985 0.931 . S
H1003 C986 0.930 . S
H1004 C995 0.929 . S
H1005 C996 0.930 . S
H1006 C997 0.931 . S
H1007 C998 0.930 . S
C1008 C1010 1.422 . S
C1008 C1012 1.415 . S
C1008 N1014 1.369 . S
C1009 C1010 1.421 . S
C1009 C1011 1.417 . S
C1009 C1021 1.422 . S
C1010 C1008 1.422 . S
C1010 C1009 1.421 . S
C1010 N1020 1.359 . S
C1011 C1009 1.417 . S
C1011 C1013 1.329 . S
C1011 H1030 0.930 . S
C1012 C1008 1.415 . S
C1012 C1013 1.437 . S
C1012 C1016 1.413 . S
C1013 C1011 1.329 . S
C1013 C1012 1.437 . S
C1013 H1035 0.929 . S
N1014 C1008 1.369 . S
N1014 C1015 1.338 . S
N1014 Gd1019 2.622 . S
C1015 N1014 1.338 . S
C1015 C1017 1.378 . S
C1015 H1027 0.929 . S
C1016 C1012 1.413 . S
C1016 C1017 1.348 . S
C1016 H1032 0.931 . S
C1017 C1015 1.378 . S
C1017 C1016 1.348 . S
C1017 H1033 0.930 . S
Gd1018 N1038 2.622 1_554 S
Gd1018 N1045 2.570 1_554 S
Gd1018 O1052 2.353 . S
Gd1018 O1053 2.468 . S
Gd1018 O1054 2.427 . S
Gd1018 O1056 2.388 . S
Gd1018 O1057 2.386 1_554 S
Gd1018 O1061 2.307 . S
Gd1018 C1071 2.805 . S
Gd1019 N1014 2.622 . S
Gd1019 N1020 2.570 . S
Gd1019 O1051 2.386 . S
Gd1019 O1055 2.307 . S
Gd1019 O1058 2.353 1_554 S
Gd1019 O1059 2.468 . S
Gd1019 O1060 2.427 . S
Gd1019 O1062 2.388 . S
Gd1019 C1083 2.805 . S
N1020 C1010 1.359 . S
N1020 Gd1019 2.570 . S
N1020 C1022 1.343 . S
C1021 C1009 1.422 . S
C1021 C1023 1.321 . S
C1021 H1029 0.931 . S
C1022 N1020 1.343 . S
C1022 C1023 1.390 . S
C1022 H1024 0.931 . S
C1023 C1021 1.321 . S
C1023 C1022 1.390 . S
C1023 H1025 0.930 . S
H1024 C1022 0.931 . S
H1025 C1023 0.930 . S
H1026 C1049 0.931 . S
H1027 C1015 0.929 . S
H1028 C1050 0.930 . S
H1029 C1021 0.931 . S
H1030 C1011 0.930 . S
H1031 C1040 0.929 . S
H1032 C1016 0.931 . S
H1033 C1017 0.930 . S
H1034 C1072 0.930 . S
H1035 C1013 0.929 . S
H1036 C1041 0.931 . S
H1037 C1042 0.930 . S
N1038 Gd1018 2.622 1_556 S
N1038 C1039 1.369 . S
N1038 C1040 1.338 . S
C1039 N1038 1.369 . S
C1039 C1043 1.415 . S
C1039 C1046 1.422 . S
C1040 H1031 0.929 . S
C1040 N1038 1.338 . S
C1040 C1042 1.378 . S
C1041 H1036 0.931 . S
C1041 C1042 1.348 . S
C1041 C1043 1.413 . S
C1042 H1037 0.930 . S
C1042 C1040 1.378 . S
C1042 C1041 1.348 . S
C1043 C1039 1.415 . S
C1043 C1041 1.413 . S
C1043 C1073 1.437 . S
H1044 C1073 0.929 . S
N1045 Gd1018 2.570 1_556 S
N1045 C1046 1.359 . S
N1045 C1049 1.343 . S
C1046 C1039 1.422 . S
C1046 N1045 1.359 . S
C1046 C1048 1.421 . S
C1047 C1048 1.422 . S
C1047 C1050 1.321 . S
C1047 H1074 0.931 . S
C1048 C1046 1.421 . S
C1048 C1047 1.422 . S
C1048 C1072 1.417 . S
C1049 H1026 0.931 . S
C1049 N1045 1.343 . S
C1049 C1050 1.390 . S
C1050 H1028 0.930 . S
C1050 C1047 1.321 . S
C1050 C1049 1.390 . S
O1051 Gd1019 2.386 . S
O1051 C1063 1.265 . S
O1052 Gd1018 2.353 . S
O1052 C1063 1.242 . S
O1053 Gd1018 2.468 . S
O1053 C1071 1.263 . S
O1054 Gd1018 2.427 . S
O1054 C1071 1.252 . S
O1055 Gd1019 2.307 . S
O1055 C1064 1.261 . S
O1056 Gd1018 2.388 . S
O1056 C1064 1.252 . S
O1057 Gd1018 2.386 1_556 S
O1057 C1075 1.265 . S
O1058 Gd1019 2.353 1_556 S
O1058 C1075 1.242 . S
O1059 Gd1019 2.468 . S
O1059 C1083 1.263 . S
O1060 Gd1019 2.427 . S
O1060 C1083 1.252 . S
O1061 Gd1018 2.307 . S
O1061 C1076 1.261 . S
O1062 Gd1019 2.388 . S
O1062 C1076 1.252 . S
C1063 O1051 1.265 . S
C1063 O1052 1.242 . S
C1064 O1055 1.261 . S
C1064 O1056 1.252 . S
C1065 C1068 1.394 . S
C1065 C1070 1.370 . S
C1065 C1071 1.500 . S
C1066 C1069 1.383 . S
C1066 C1070 1.395 . S
C1067 C1068 1.396 . S
C1067 C1069 1.365 . S
C1067 H1084 0.929 . S
C1068 C1065 1.394 . S
C1068 C1067 1.396 . S
C1068 H1085 0.930 . S
C1069 C1066 1.383 . S
C1069 C1067 1.365 . S
C1069 H1086 0.931 . S
C1070 C1065 1.370 . S
C1070 C1066 1.395 . S
C1070 H1087 0.930 . S
C1071 Gd1018 2.805 . S
C1071 O1053 1.263 . S
C1071 O1054 1.252 . S
C1071 C1065 1.500 . S
C1072 H1034 0.930 . S
C1072 C1048 1.417 . S
C1072 C1073 1.329 . S
C1073 C1043 1.437 . S
C1073 H1044 0.929 . S
C1073 C1072 1.329 . S
H1074 C1047 0.931 . S
C1075 O1057 1.265 . S
C1075 O1058 1.242 . S
C1076 O1061 1.261 . S
C1076 O1062 1.252 . S
C1077 C1080 1.394 . S
C1077 C1082 1.370 . S
C1077 C1083 1.500 1_556 S
C1078 C1081 1.383 . S
C1078 C1082 1.395 . S
C1079 C1080 1.396 . S
C1079 C1081 1.365 . S
C1079 H1088 0.929 . S
C1080 C1077 1.394 . S
C1080 C1079 1.396 . S
C1080 H1089 0.930 . S
C1081 C1078 1.383 . S
C1081 C1079 1.365 . S
C1081 H1090 0.931 . S
C1082 C1077 1.370 . S
C1082 C1078 1.395 . S
C1082 H1091 0.930 . S
C1083 Gd1019 2.805 . S
C1083 O1059 1.263 . S
C1083 O1060 1.252 . S
C1083 C1077 1.500 1_554 S
H1084 C1067 0.929 . S
H1085 C1068 0.930 . S
H1086 C1069 0.931 . S
H1087 C1070 0.930 . S
H1088 C1079 0.929 . S
H1089 C1080 0.930 . S
H1090 C1081 0.931 . S
H1091 C1082 0.930 . S
C1092 C1094 1.422 . S
C1092 C1096 1.415 . S
C1092 N1098 1.369 . S
C1093 C1094 1.421 . S
C1093 C1095 1.417 . S
C1093 C1105 1.422 . S
C1094 C1092 1.422 . S
C1094 C1093 1.421 . S
C1094 N1104 1.359 . S
C1095 C1093 1.417 . S
C1095 C1097 1.329 . S
C1095 H1114 0.930 . S
C1096 C1092 1.415 . S
C1096 C1097 1.437 . S
C1096 C1100 1.413 . S
C1097 C1095 1.329 . S
C1097 C1096 1.437 . S
C1097 H1119 0.929 . S
N1098 C1092 1.369 . S
N1098 C1099 1.338 . S
N1098 Gd1103 2.622 . S
C1099 N1098 1.338 . S
C1099 C1101 1.378 . S
C1099 H1111 0.929 . S
C1100 C1096 1.413 . S
C1100 C1101 1.348 . S
C1100 H1116 0.931 . S
C1101 C1099 1.378 . S
C1101 C1100 1.348 . S
C1101 H1117 0.930 . S
Gd1102 N1122 2.622 . S
Gd1102 N1129 2.570 . S
Gd1102 O1136 2.353 . S
Gd1102 O1137 2.468 . S
Gd1102 O1138 2.427 . S
Gd1102 O1140 2.388 . S
Gd1102 O1141 2.386 . S
Gd1102 O1145 2.307 . S
Gd1102 C1155 2.805 . S
Gd1103 N1098 2.622 . S
Gd1103 N1104 2.570 . S
Gd1103 O1135 2.386 . S
Gd1103 O1139 2.307 . S
Gd1103 O1142 2.353 . S
Gd1103 O1143 2.468 . S
Gd1103 O1144 2.427 . S
Gd1103 O1146 2.388 . S
Gd1103 C1167 2.805 . S
N1104 C1094 1.359 . S
N1104 Gd1103 2.570 . S
N1104 C1106 1.343 . S
C1105 C1093 1.422 . S
C1105 C1107 1.321 . S
C1105 H1113 0.931 . S
C1106 N1104 1.343 . S
C1106 C1107 1.390 . S
C1106 H1108 0.931 . S
C1107 C1105 1.321 . S
C1107 C1106 1.390 . S
C1107 H1109 0.930 . S
H1108 C1106 0.931 . S
H1109 C1107 0.930 . S
H1110 C1133 0.931 . S
H1111 C1099 0.929 . S
H1112 C1134 0.930 . S
H1113 C1105 0.931 . S
H1114 C1095 0.930 . S
H1115 C1124 0.929 . S
H1116 C1100 0.931 . S
H1117 C1101 0.930 . S
H1118 C1156 0.930 . S
H1119 C1097 0.929 . S
H1120 C1125 0.931 . S
H1121 C1126 0.930 . S
N1122 Gd1102 2.622 . S
N1122 C1123 1.369 . S
N1122 C1124 1.338 . S
C1123 N1122 1.369 . S
C1123 C1127 1.415 . S
C1123 C1130 1.422 . S
C1124 H1115 0.929 . S
C1124 N1122 1.338 . S
C1124 C1126 1.378 . S
C1125 H1120 0.931 . S
C1125 C1126 1.348 . S
C1125 C1127 1.413 . S
C1126 H1121 0.930 . S
C1126 C1124 1.378 . S
C1126 C1125 1.348 . S
C1127 C1123 1.415 . S
C1127 C1125 1.413 . S
C1127 C1157 1.437 . S
H1128 C1157 0.929 . S
N1129 Gd1102 2.570 . S
N1129 C1130 1.359 . S
N1129 C1133 1.343 . S
C1130 C1123 1.422 . S
C1130 N1129 1.359 . S
C1130 C1132 1.421 . S
C1131 C1132 1.422 . S
C1131 C1134 1.321 . S
C1131 H1158 0.931 . S
C1132 C1130 1.421 . S
C1132 C1131 1.422 . S
C1132 C1156 1.417 . S
C1133 H1110 0.931 . S
C1133 N1129 1.343 . S
C1133 C1134 1.390 . S
C1134 H1112 0.930 . S
C1134 C1131 1.321 . S
C1134 C1133 1.390 . S
O1135 Gd1103 2.386 . S
O1135 C1147 1.265 . S
O1136 Gd1102 2.353 . S
O1136 C1147 1.242 . S
O1137 Gd1102 2.468 . S
O1137 C1155 1.263 . S
O1138 Gd1102 2.427 . S
O1138 C1155 1.252 . S
O1139 Gd1103 2.307 . S
O1139 C1148 1.261 . S
O1140 Gd1102 2.388 . S
O1140 C1148 1.252 . S
O1141 Gd1102 2.386 . S
O1141 C1159 1.265 . S
O1142 Gd1103 2.353 . S
O1142 C1159 1.242 . S
O1143 Gd1103 2.468 . S
O1143 C1167 1.263 . S
O1144 Gd1103 2.427 . S
O1144 C1167 1.252 . S
O1145 Gd1102 2.307 . S
O1145 C1160 1.261 . S
O1146 Gd1103 2.388 . S
O1146 C1160 1.252 . S
C1147 O1135 1.265 . S
C1147 O1136 1.242 . S
C1148 O1139 1.261 . S
C1148 O1140 1.252 . S
C1149 C1152 1.394 . S
C1149 C1154 1.370 . S
C1149 C1155 1.500 . S
C1150 C1153 1.383 . S
C1150 C1154 1.395 . S
C1151 C1152 1.396 . S
C1151 C1153 1.365 . S
C1151 H1168 0.929 . S
C1152 C1149 1.394 . S
C1152 C1151 1.396 . S
C1152 H1169 0.930 . S
C1153 C1150 1.383 . S
C1153 C1151 1.365 . S
C1153 H1170 0.931 . S
C1154 C1149 1.370 . S
C1154 C1150 1.395 . S
C1154 H1171 0.930 . S
C1155 Gd1102 2.805 . S
C1155 O1137 1.263 . S
C1155 O1138 1.252 . S
C1155 C1149 1.500 . S
C1156 H1118 0.930 . S
C1156 C1132 1.417 . S
C1156 C1157 1.329 . S
C1157 C1127 1.437 . S
C1157 H1128 0.929 . S
C1157 C1156 1.329 . S
H1158 C1131 0.931 . S
C1159 O1141 1.265 . S
C1159 O1142 1.242 . S
C1160 O1145 1.261 . S
C1160 O1146 1.252 . S
C1161 C1164 1.394 . S
C1161 C1166 1.370 . S
C1161 C1167 1.500 . S
C1162 C1165 1.383 . S
C1162 C1166 1.395 . S
C1163 C1164 1.396 . S
C1163 C1165 1.365 . S
C1163 H1172 0.929 . S
C1164 C1161 1.394 . S
C1164 C1163 1.396 . S
C1164 H1173 0.930 . S
C1165 C1162 1.383 . S
C1165 C1163 1.365 . S
C1165 H1174 0.931 . S
C1166 C1161 1.370 . S
C1166 C1162 1.395 . S
C1166 H1175 0.930 . S
C1167 Gd1103 2.805 . S
C1167 O1143 1.263 . S
C1167 O1144 1.252 . S
C1167 C1161 1.500 . S
H1168 C1151 0.929 . S
H1169 C1152 0.930 . S
H1170 C1153 0.931 . S
H1171 C1154 0.930 . S
H1172 C1163 0.929 . S
H1173 C1164 0.930 . S
H1174 C1165 0.931 . S
H1175 C1166 0.930 . S
C1176 C1178 1.422 . S
C1176 C1180 1.415 . S
C1176 N1182 1.369 . S
C1177 C1178 1.421 . S
C1177 C1179 1.417 . S
C1177 C1189 1.422 . S
C1178 C1176 1.422 . S
C1178 C1177 1.421 . S
C1178 N1188 1.359 . S
C1179 C1177 1.417 . S
C1179 C1181 1.329 . S
C1179 H1198 0.930 . S
C1180 C1176 1.415 . S
C1180 C1181 1.437 . S
C1180 C1184 1.413 . S
C1181 C1179 1.329 . S
C1181 C1180 1.437 . S
C1181 H1203 0.929 . S
N1182 C1176 1.369 . S
N1182 C1183 1.338 . S
N1182 Gd1187 2.622 . S
C1183 N1182 1.338 . S
C1183 C1185 1.378 . S
C1183 H1195 0.929 . S
C1184 C1180 1.413 . S
C1184 C1185 1.348 . S
C1184 H1200 0.931 . S
C1185 C1183 1.378 . S
C1185 C1184 1.348 . S
C1185 H1201 0.930 . S
Gd1186 N1206 2.622 1_455 S
Gd1186 N1213 2.570 1_455 S
Gd1186 O1220 2.353 . S
Gd1186 O1221 2.468 . S
Gd1186 O1222 2.427 . S
Gd1186 O1224 2.388 . S
Gd1186 O1225 2.386 1_455 S
Gd1186 O1229 2.307 . S
Gd1186 C1239 2.805 . S
Gd1187 N1182 2.622 . S
Gd1187 N1188 2.570 . S
Gd1187 O1219 2.386 . S
Gd1187 O1223 2.307 . S
Gd1187 O1226 2.353 1_455 S
Gd1187 O1227 2.468 . S
Gd1187 O1228 2.427 . S
Gd1187 O1230 2.388 . S
Gd1187 C1251 2.805 . S
N1188 C1178 1.359 . S
N1188 Gd1187 2.570 . S
N1188 C1190 1.343 . S
C1189 C1177 1.422 . S
C1189 C1191 1.321 . S
C1189 H1197 0.931 . S
C1190 N1188 1.343 . S
C1190 C1191 1.390 . S
C1190 H1192 0.931 . S
C1191 C1189 1.321 . S
C1191 C1190 1.390 . S
C1191 H1193 0.930 . S
H1192 C1190 0.931 . S
H1193 C1191 0.930 . S
H1194 C1217 0.889 1_455 S
H1195 C1183 0.929 . S
H1196 C1218 0.930 . S
H1197 C1189 0.931 . S
H1198 C1179 0.930 . S
H1199 C1208 0.929 1_455 S
H1200 C1184 0.931 . S
H1201 C1185 0.930 . S
H1202 C1240 0.930 . S
H1203 C1181 0.929 . S
H1204 C1209 0.931 . S
H1205 C1210 0.930 . S
N1206 Gd1186 2.622 1_655 S
N1206 C1207 1.369 . S
N1206 C1208 1.338 . S
C1207 N1206 1.369 . S
C1207 C1211 1.415 . S
C1207 C1214 1.422 . S
C1208 H1199 0.929 1_655 S
C1208 N1206 1.338 . S
C1208 C1210 1.378 . S
C1209 H1204 0.931 . S
C1209 C1210 1.348 . S
C1209 C1211 1.413 . S
C1210 H1205 0.930 . S
C1210 C1208 1.378 . S
C1210 C1209 1.348 . S
C1211 C1207 1.415 . S
C1211 C1209 1.413 . S
C1211 C1241 1.437 . S
H1212 C1241 0.929 . S
N1213 Gd1186 2.570 1_655 S
N1213 C1214 1.359 . S
N1213 C1217 1.343 . S
C1214 C1207 1.422 . S
C1214 N1213 1.359 . S
C1214 C1216 1.421 . S
C1215 C1216 1.422 . S
C1215 C1218 1.321 . S
C1215 H1242 0.931 . S
C1216 C1214 1.421 . S
C1216 C1215 1.422 . S
C1216 C1240 1.417 . S
C1217 H1194 0.889 1_655 S
C1217 N1213 1.343 . S
C1217 C1218 1.390 . S
C1218 H1196 0.930 . S
C1218 C1215 1.321 . S
C1218 C1217 1.390 . S
O1219 Gd1187 2.386 . S
O1219 C1231 1.265 . S
O1220 Gd1186 2.353 . S
O1220 C1231 1.242 . S
O1221 Gd1186 2.468 . S
O1221 C1239 1.263 . S
O1222 Gd1186 2.427 . S
O1222 C1239 1.252 . S
O1223 Gd1187 2.307 . S
O1223 C1232 1.261 . S
O1224 Gd1186 2.388 . S
O1224 C1232 1.252 . S
O1225 Gd1186 2.386 1_655 S
O1225 C1243 1.265 . S
O1226 Gd1187 2.353 1_655 S
O1226 C1243 1.242 . S
O1227 Gd1187 2.468 . S
O1227 C1251 1.263 . S
O1228 Gd1187 2.427 . S
O1228 C1251 1.252 . S
O1229 Gd1186 2.307 . S
O1229 C1244 1.261 . S
O1230 Gd1187 2.388 . S
O1230 C1244 1.252 . S
C1231 O1219 1.265 . S
C1231 O1220 1.242 . S
C1232 O1223 1.261 . S
C1232 O1224 1.252 . S
C1233 C1236 1.394 . S
C1233 C1238 1.370 . S
C1233 C1239 1.500 . S
C1234 C1237 1.383 . S
C1234 C1238 1.395 . S
C1235 C1236 1.396 . S
C1235 C1237 1.365 . S
C1235 H1252 0.929 . S
C1236 C1233 1.394 . S
C1236 C1235 1.396 . S
C1236 H1253 0.930 . S
C1237 C1234 1.383 . S
C1237 C1235 1.365 . S
C1237 H1254 0.931 . S
C1238 C1233 1.370 . S
C1238 C1234 1.395 . S
C1238 H1255 0.930 . S
C1239 Gd1186 2.805 . S
C1239 O1221 1.263 . S
C1239 O1222 1.252 . S
C1239 C1233 1.500 . S
C1240 H1202 0.930 . S
C1240 C1216 1.417 . S
C1240 C1241 1.329 . S
C1241 C1211 1.437 . S
C1241 H1212 0.929 . S
C1241 C1240 1.329 . S
H1242 C1215 0.931 . S
C1243 O1225 1.265 . S
C1243 O1226 1.242 . S
C1244 O1229 1.261 . S
C1244 O1230 1.252 . S
C1245 C1248 1.394 . S
C1245 C1250 1.370 . S
C1245 C1251 1.500 1_655 S
C1246 C1249 1.383 . S
C1246 C1250 1.395 . S
C1247 C1248 1.396 . S
C1247 C1249 1.365 . S
C1247 H1256 0.929 . S
C1248 C1245 1.394 . S
C1248 C1247 1.396 . S
C1248 H1257 0.930 . S
C1249 C1246 1.383 . S
C1249 C1247 1.365 . S
C1249 H1258 0.931 . S
C1250 C1245 1.370 . S
C1250 C1246 1.395 . S
C1250 H1259 0.930 . S
C1251 Gd1187 2.805 . S
C1251 O1227 1.263 . S
C1251 O1228 1.252 . S
C1251 C1245 1.500 1_455 S
H1252 C1235 0.929 . S
H1253 C1236 0.930 . S
H1254 C1237 0.931 . S
H1255 C1238 0.930 . S
H1256 C1247 0.929 . S
H1257 C1248 0.930 . S
H1258 C1249 0.931 . S
H1259 C1250 0.930 . S
C1260 C1262 1.422 . S
C1260 C1264 1.415 . S
C1260 N1266 1.369 . S
C1261 C1262 1.421 . S
C1261 C1263 1.417 . S
C1261 C1273 1.422 . S
C1262 C1260 1.422 . S
C1262 C1261 1.421 . S
C1262 N1272 1.359 . S
C1263 C1261 1.417 . S
C1263 C1265 1.329 . S
C1263 H1282 0.930 . S
C1264 C1260 1.415 . S
C1264 C1265 1.437 . S
C1264 C1268 1.413 . S
C1265 C1263 1.329 . S
C1265 C1264 1.437 . S
C1265 H1287 0.929 . S
N1266 C1260 1.369 . S
N1266 C1267 1.338 . S
N1266 Gd1271 2.622 . S
C1267 N1266 1.338 . S
C1267 C1269 1.378 . S
C1267 H1279 0.929 . S
C1268 C1264 1.413 . S
C1268 C1269 1.348 . S
C1268 H1284 0.931 . S
C1269 C1267 1.378 . S
C1269 C1268 1.348 . S
C1269 H1285 0.930 . S
Gd1270 N1290 2.622 . S
Gd1270 N1297 2.570 . S
Gd1270 O1304 2.353 . S
Gd1270 O1305 2.468 . S
Gd1270 O1306 2.427 . S
Gd1270 O1308 2.388 . S
Gd1270 O1309 2.386 . S
Gd1270 O1313 2.307 . S
Gd1270 C1323 2.805 . S
Gd1271 N1266 2.622 . S
Gd1271 N1272 2.570 . S
Gd1271 O1303 2.386 . S
Gd1271 O1307 2.307 . S
Gd1271 O1310 2.353 . S
Gd1271 O1311 2.468 . S
Gd1271 O1312 2.427 . S
Gd1271 O1314 2.388 . S
Gd1271 C1335 2.805 . S
N1272 C1262 1.359 . S
N1272 Gd1271 2.570 . S
N1272 C1274 1.343 . S
C1273 C1261 1.422 . S
C1273 C1275 1.321 . S
C1273 H1281 0.931 . S
C1274 N1272 1.343 . S
C1274 C1275 1.390 . S
C1274 H1276 0.931 . S
C1275 C1273 1.321 . S
C1275 C1274 1.390 . S
C1275 H1277 0.930 . S
H1276 C1274 0.931 . S
H1277 C1275 0.930 . S
H1278 C1301 0.931 . S
H1279 C1267 0.929 . S
H1280 C1302 0.930 . S
H1281 C1273 0.931 . S
H1282 C1263 0.930 . S
H1283 C1292 0.929 . S
H1284 C1268 0.931 . S
H1285 C1269 0.930 . S
H1286 C1324 0.930 . S
H1287 C1265 0.929 . S
H1288 C1293 0.931 . S
H1289 C1294 0.930 . S
N1290 Gd1270 2.622 . S
N1290 C1291 1.369 . S
N1290 C1292 1.338 . S
C1291 N1290 1.369 . S
C1291 C1295 1.415 . S
C1291 C1298 1.422 . S
C1292 H1283 0.929 . S
C1292 N1290 1.338 . S
C1292 C1294 1.378 . S
C1293 H1288 0.931 . S
C1293 C1294 1.348 . S
C1293 C1295 1.413 . S
C1294 H1289 0.930 . S
C1294 C1292 1.378 . S
C1294 C1293 1.348 . S
C1295 C1291 1.415 . S
C1295 C1293 1.413 . S
C1295 C1325 1.437 . S
H1296 C1325 0.929 . S
N1297 Gd1270 2.570 . S
N1297 C1298 1.359 . S
N1297 C1301 1.343 . S
C1298 C1291 1.422 . S
C1298 N1297 1.359 . S
C1298 C1300 1.421 . S
C1299 C1300 1.422 . S
C1299 C1302 1.321 . S
C1299 H1326 0.931 . S
C1300 C1298 1.421 . S
C1300 C1299 1.422 . S
C1300 C1324 1.417 . S
C1301 H1278 0.931 . S
C1301 N1297 1.343 . S
C1301 C1302 1.390 . S
C1302 H1280 0.930 . S
C1302 C1299 1.321 . S
C1302 C1301 1.390 . S
O1303 Gd1271 2.386 . S
O1303 C1315 1.265 . S
O1304 Gd1270 2.353 . S
O1304 C1315 1.242 . S
O1305 Gd1270 2.468 . S
O1305 C1323 1.263 . S
O1306 Gd1270 2.427 . S
O1306 C1323 1.252 . S
O1307 Gd1271 2.307 . S
O1307 C1316 1.261 . S
O1308 Gd1270 2.388 . S
O1308 C1316 1.252 . S
O1309 Gd1270 2.386 . S
O1309 C1327 1.265 . S
O1310 Gd1271 2.353 . S
O1310 C1327 1.242 . S
O1311 Gd1271 2.468 . S
O1311 C1335 1.263 . S
O1312 Gd1271 2.427 . S
O1312 C1335 1.252 . S
O1313 Gd1270 2.307 . S
O1313 C1328 1.261 . S
O1314 Gd1271 2.388 . S
O1314 C1328 1.252 . S
C1315 O1303 1.265 . S
C1315 O1304 1.242 . S
C1316 O1307 1.261 . S
C1316 O1308 1.252 . S
C1317 C1320 1.394 . S
C1317 C1322 1.370 . S
C1317 C1323 1.500 . S
C1318 C1321 1.383 . S
C1318 C1322 1.395 . S
C1319 C1320 1.396 . S
C1319 C1321 1.365 . S
C1319 H1336 0.929 . S
C1320 C1317 1.394 . S
C1320 C1319 1.396 . S
C1320 H1337 0.930 . S
C1321 C1318 1.383 . S
C1321 C1319 1.365 . S
C1321 H1338 0.931 . S
C1322 C1317 1.370 . S
C1322 C1318 1.395 . S
C1322 H1339 0.930 . S
C1323 Gd1270 2.805 . S
C1323 O1305 1.263 . S
C1323 O1306 1.252 . S
C1323 C1317 1.500 . S
C1324 H1286 0.930 . S
C1324 C1300 1.417 . S
C1324 C1325 1.329 . S
C1325 C1295 1.437 . S
C1325 H1296 0.929 . S
C1325 C1324 1.329 . S
H1326 C1299 0.931 . S
C1327 O1309 1.265 . S
C1327 O1310 1.242 . S
C1328 O1313 1.261 . S
C1328 O1314 1.252 . S
C1329 C1332 1.394 . S
C1329 C1334 1.370 . S
C1329 C1335 1.500 . S
C1330 C1333 1.383 . S
C1330 C1334 1.395 . S
C1331 C1332 1.396 . S
C1331 C1333 1.365 . S
C1331 H1340 0.929 . S
C1332 C1329 1.394 . S
C1332 C1331 1.396 . S
C1332 H1341 0.930 . S
C1333 C1330 1.383 . S
C1333 C1331 1.365 . S
C1333 H1342 0.931 . S
C1334 C1329 1.370 . S
C1334 C1330 1.395 . S
C1334 H1343 0.930 . S
C1335 Gd1271 2.805 . S
C1335 O1311 1.263 . S
C1335 O1312 1.252 . S
C1335 C1329 1.500 . S
H1336 C1319 0.929 . S
H1337 C1320 0.930 . S
H1338 C1321 0.931 . S
H1339 C1322 0.930 . S
H1340 C1331 0.929 . S
H1341 C1332 0.930 . S
H1342 C1333 0.931 . S
H1343 C1334 0.930 . S
C1344 C1346 1.422 . S
C1344 C1348 1.415 . S
C1344 N1350 1.369 . S
C1345 C1346 1.421 . S
C1345 C1347 1.417 . S
C1345 C1357 1.422 . S
C1346 C1344 1.422 . S
C1346 C1345 1.421 . S
C1346 N1356 1.359 . S
C1347 C1345 1.417 . S
C1347 C1349 1.329 . S
C1347 H1366 0.930 . S
C1348 C1344 1.415 . S
C1348 C1349 1.437 . S
C1348 C1352 1.413 . S
C1349 C1347 1.329 . S
C1349 C1348 1.437 . S
C1349 H1371 0.929 . S
N1350 C1344 1.369 . S
N1350 C1351 1.338 . S
N1350 Gd1355 2.622 . S
C1351 N1350 1.338 . S
C1351 C1353 1.378 . S
C1351 H1363 0.929 . S
C1352 C1348 1.413 . S
C1352 C1353 1.348 . S
C1352 H1368 0.931 . S
C1353 C1351 1.378 . S
C1353 C1352 1.348 . S
C1353 H1369 0.930 . S
Gd1354 N1374 2.622 . S
Gd1354 N1381 2.570 . S
Gd1354 O1388 2.353 . S
Gd1354 O1389 2.468 . S
Gd1354 O1390 2.427 . S
Gd1354 O1392 2.388 . S
Gd1354 O1393 2.386 . S
Gd1354 O1397 2.307 . S
Gd1354 C1407 2.805 . S
Gd1355 N1350 2.622 . S
Gd1355 N1356 2.570 . S
Gd1355 O1387 2.386 . S
Gd1355 O1391 2.307 . S
Gd1355 O1394 2.353 . S
Gd1355 O1395 2.468 . S
Gd1355 O1396 2.427 . S
Gd1355 O1398 2.388 . S
Gd1355 C1419 2.805 . S
N1356 C1346 1.359 . S
N1356 Gd1355 2.570 . S
N1356 C1358 1.343 . S
C1357 C1345 1.422 . S
C1357 C1359 1.321 . S
C1357 H1365 0.931 . S
C1358 N1356 1.343 . S
C1358 C1359 1.390 . S
C1358 H1360 0.931 . S
C1359 C1357 1.321 . S
C1359 C1358 1.390 . S
C1359 H1361 0.930 . S
H1360 C1358 0.931 . S
H1361 C1359 0.930 . S
H1362 C1385 0.931 . S
H1363 C1351 0.929 . S
H1364 C1386 0.930 . S
H1365 C1357 0.931 . S
H1366 C1347 0.930 . S
H1367 C1376 0.929 . S
H1368 C1352 0.931 . S
H1369 C1353 0.930 . S
H1370 C1408 0.930 . S
H1371 C1349 0.929 . S
H1372 C1377 0.931 . S
H1373 C1378 0.930 . S
N1374 Gd1354 2.622 . S
N1374 C1375 1.369 . S
N1374 C1376 1.338 . S
C1375 N1374 1.369 . S
C1375 C1379 1.415 . S
C1375 C1382 1.422 . S
C1376 H1367 0.929 . S
C1376 N1374 1.338 . S
C1376 C1378 1.378 . S
C1377 H1372 0.931 . S
C1377 C1378 1.348 . S
C1377 C1379 1.413 . S
C1378 H1373 0.930 . S
C1378 C1376 1.378 . S
C1378 C1377 1.348 . S
C1379 C1375 1.415 . S
C1379 C1377 1.413 . S
C1379 C1409 1.437 . S
H1380 C1409 0.929 . S
N1381 Gd1354 2.570 . S
N1381 C1382 1.359 . S
N1381 C1385 1.343 . S
C1382 C1375 1.422 . S
C1382 N1381 1.359 . S
C1382 C1384 1.421 . S
C1383 C1384 1.422 . S
C1383 C1386 1.321 . S
C1383 H1410 0.931 . S
C1384 C1382 1.421 . S
C1384 C1383 1.422 . S
C1384 C1408 1.417 . S
C1385 H1362 0.931 . S
C1385 N1381 1.343 . S
C1385 C1386 1.390 . S
C1386 H1364 0.930 . S
C1386 C1383 1.321 . S
C1386 C1385 1.390 . S
O1387 Gd1355 2.386 . S
O1387 C1399 1.265 . S
O1388 Gd1354 2.353 . S
O1388 C1399 1.242 . S
O1389 Gd1354 2.468 . S
O1389 C1407 1.263 . S
O1390 Gd1354 2.427 . S
O1390 C1407 1.252 . S
O1391 Gd1355 2.307 . S
O1391 C1400 1.261 . S
O1392 Gd1354 2.388 . S
O1392 C1400 1.252 . S
O1393 Gd1354 2.386 . S
O1393 C1411 1.265 . S
O1394 Gd1355 2.353 . S
O1394 C1411 1.242 . S
O1395 Gd1355 2.468 . S
O1395 C1419 1.263 . S
O1396 Gd1355 2.427 . S
O1396 C1419 1.252 . S
O1397 Gd1354 2.307 . S
O1397 C1412 1.261 . S
O1398 Gd1355 2.388 . S
O1398 C1412 1.252 . S
C1399 O1387 1.265 . S
C1399 O1388 1.242 . S
C1400 O1391 1.261 . S
C1400 O1392 1.252 . S
C1401 C1404 1.394 . S
C1401 C1406 1.370 . S
C1401 C1407 1.500 . S
C1402 C1405 1.383 . S
C1402 C1406 1.395 . S
C1403 C1404 1.396 . S
C1403 C1405 1.365 . S
C1403 H1420 0.929 . S
C1404 C1401 1.394 . S
C1404 C1403 1.396 . S
C1404 H1421 0.930 . S
C1405 C1402 1.383 . S
C1405 C1403 1.365 . S
C1405 H1422 0.931 . S
C1406 C1401 1.370 . S
C1406 C1402 1.395 . S
C1406 H1423 0.930 . S
C1407 Gd1354 2.805 . S
C1407 O1389 1.263 . S
C1407 O1390 1.252 . S
C1407 C1401 1.500 . S
C1408 H1370 0.930 . S
C1408 C1384 1.417 . S
C1408 C1409 1.329 . S
C1409 C1379 1.437 . S
C1409 H1380 0.929 . S
C1409 C1408 1.329 . S
H1410 C1383 0.931 . S
C1411 O1393 1.265 . S
C1411 O1394 1.242 . S
C1412 O1397 1.261 . S
C1412 O1398 1.252 . S
C1413 C1416 1.394 . S
C1413 C1418 1.370 . S
C1413 C1419 1.500 . S
C1414 C1417 1.383 . S
C1414 C1418 1.395 . S
C1415 C1416 1.396 . S
C1415 C1417 1.365 . S
C1415 H1424 0.929 . S
C1416 C1413 1.394 . S
C1416 C1415 1.396 . S
C1416 H1425 0.930 . S
C1417 C1414 1.383 . S
C1417 C1415 1.365 . S
C1417 H1426 0.931 . S
C1418 C1413 1.370 . S
C1418 C1414 1.395 . S
C1418 H1427 0.930 . S
C1419 Gd1355 2.805 . S
C1419 O1395 1.263 . S
C1419 O1396 1.252 . S
C1419 C1413 1.500 . S
H1420 C1403 0.929 . S
H1421 C1404 0.930 . S
H1422 C1405 0.931 . S
H1423 C1406 0.930 . S
H1424 C1415 0.929 . S
H1425 C1416 0.930 . S
H1426 C1417 0.931 . S
H1427 C1418 0.930 . S
C1428 C1430 1.422 . S
C1428 C1432 1.415 . S
C1428 N1434 1.369 . S
C1429 C1430 1.421 . S
C1429 C1431 1.417 . S
C1429 C1441 1.422 . S
C1430 C1428 1.422 . S
C1430 C1429 1.421 . S
C1430 N1440 1.359 . S
C1431 C1429 1.417 . S
C1431 C1433 1.329 . S
C1431 H1450 0.930 . S
C1432 C1428 1.415 . S
C1432 C1433 1.437 . S
C1432 C1436 1.413 . S
C1433 C1431 1.329 . S
C1433 C1432 1.437 . S
C1433 H1455 0.929 . S
N1434 C1428 1.369 . S
N1434 C1435 1.338 . S
N1434 Gd1439 2.622 . S
C1435 N1434 1.338 . S
C1435 C1437 1.378 . S
C1435 H1447 0.929 . S
C1436 C1432 1.413 . S
C1436 C1437 1.348 . S
C1436 H1452 0.931 . S
C1437 C1435 1.378 . S
C1437 C1436 1.348 . S
C1437 H1453 0.930 . S
Gd1438 N1458 2.622 . S
Gd1438 N1465 2.570 . S
Gd1438 O1472 2.353 . S
Gd1438 O1473 2.468 . S
Gd1438 O1474 2.427 . S
Gd1438 O1476 2.388 . S
Gd1438 O1477 2.386 . S
Gd1438 O1481 2.307 . S
Gd1438 C1491 2.805 . S
Gd1439 N1434 2.622 . S
Gd1439 N1440 2.570 . S
Gd1439 O1471 2.386 . S
Gd1439 O1475 2.307 . S
Gd1439 O1478 2.353 . S
Gd1439 O1479 2.468 . S
Gd1439 O1480 2.427 . S
Gd1439 O1482 2.388 . S
Gd1439 C1503 2.805 . S
N1440 C1430 1.359 . S
N1440 Gd1439 2.570 . S
N1440 C1442 1.343 . S
C1441 C1429 1.422 . S
C1441 C1443 1.321 . S
C1441 H1449 0.931 . S
C1442 N1440 1.343 . S
C1442 C1443 1.390 . S
C1442 H1444 0.931 . S
C1443 C1441 1.321 . S
C1443 C1442 1.390 . S
C1443 H1445 0.930 . S
H1444 C1442 0.931 . S
H1445 C1443 0.930 . S
H1446 C1469 0.931 . S
H1447 C1435 0.929 . S
H1448 C1470 0.930 . S
H1449 C1441 0.931 . S
H1450 C1431 0.930 . S
H1451 C1460 0.929 . S
H1452 C1436 0.931 . S
H1453 C1437 0.930 . S
H1454 C1492 0.930 . S
H1455 C1433 0.929 . S
H1456 C1461 0.931 . S
H1457 C1462 0.930 . S
N1458 Gd1438 2.622 . S
N1458 C1459 1.369 . S
N1458 C1460 1.338 . S
C1459 N1458 1.369 . S
C1459 C1463 1.415 . S
C1459 C1466 1.422 . S
C1460 H1451 0.929 . S
C1460 N1458 1.338 . S
C1460 C1462 1.378 . S
C1461 H1456 0.931 . S
C1461 C1462 1.348 . S
C1461 C1463 1.413 . S
C1462 H1457 0.930 . S
C1462 C1460 1.378 . S
C1462 C1461 1.348 . S
C1463 C1459 1.415 . S
C1463 C1461 1.413 . S
C1463 C1493 1.437 . S
H1464 C1493 0.929 . S
N1465 Gd1438 2.570 . S
N1465 C1466 1.359 . S
N1465 C1469 1.343 . S
C1466 C1459 1.422 . S
C1466 N1465 1.359 . S
C1466 C1468 1.421 . S
C1467 C1468 1.422 . S
C1467 C1470 1.321 . S
C1467 H1494 0.931 . S
C1468 C1466 1.421 . S
C1468 C1467 1.422 . S
C1468 C1492 1.417 . S
C1469 H1446 0.931 . S
C1469 N1465 1.343 . S
C1469 C1470 1.390 . S
C1470 H1448 0.930 . S
C1470 C1467 1.321 . S
C1470 C1469 1.390 . S
O1471 Gd1439 2.386 . S
O1471 C1483 1.265 . S
O1472 Gd1438 2.353 . S
O1472 C1483 1.242 . S
O1473 Gd1438 2.468 . S
O1473 C1491 1.263 . S
O1474 Gd1438 2.427 . S
O1474 C1491 1.252 . S
O1475 Gd1439 2.307 . S
O1475 C1484 1.261 . S
O1476 Gd1438 2.388 . S
O1476 C1484 1.252 . S
O1477 Gd1438 2.386 . S
O1477 C1495 1.265 . S
O1478 Gd1439 2.353 . S
O1478 C1495 1.242 . S
O1479 Gd1439 2.468 . S
O1479 C1503 1.263 . S
O1480 Gd1439 2.427 . S
O1480 C1503 1.252 . S
O1481 Gd1438 2.307 . S
O1481 C1496 1.261 . S
O1482 Gd1439 2.388 . S
O1482 C1496 1.252 . S
C1483 O1471 1.265 . S
C1483 O1472 1.242 . S
C1484 O1475 1.261 . S
C1484 O1476 1.252 . S
C1485 C1488 1.394 . S
C1485 C1490 1.370 . S
C1485 C1491 1.500 . S
C1486 C1489 1.383 . S
C1486 C1490 1.395 . S
C1487 C1488 1.396 . S
C1487 C1489 1.365 . S
C1487 H1504 0.929 . S
C1488 C1485 1.394 . S
C1488 C1487 1.396 . S
C1488 H1505 0.930 . S
C1489 C1486 1.383 . S
C1489 C1487 1.365 . S
C1489 H1506 0.931 . S
C1490 C1485 1.370 . S
C1490 C1486 1.395 . S
C1490 H1507 0.930 . S
C1491 Gd1438 2.805 . S
C1491 O1473 1.263 . S
C1491 O1474 1.252 . S
C1491 C1485 1.500 . S
C1492 H1454 0.930 . S
C1492 C1468 1.417 . S
C1492 C1493 1.329 . S
C1493 C1463 1.437 . S
C1493 H1464 0.929 . S
C1493 C1492 1.329 . S
H1494 C1467 0.931 . S
C1495 O1477 1.265 . S
C1495 O1478 1.242 . S
C1496 O1481 1.261 . S
C1496 O1482 1.252 . S
C1497 C1500 1.394 . S
C1497 C1502 1.370 . S
C1497 C1503 1.500 . S
C1498 C1501 1.383 . S
C1498 C1502 1.395 . S
C1499 C1500 1.396 . S
C1499 C1501 1.365 . S
C1499 H1508 0.929 . S
C1500 C1497 1.394 . S
C1500 C1499 1.396 . S
C1500 H1509 0.930 . S
C1501 C1498 1.383 . S
C1501 C1499 1.365 . S
C1501 H1510 0.931 . S
C1502 C1497 1.370 . S
C1502 C1498 1.395 . S
C1502 H1511 0.930 . S
C1503 Gd1439 2.805 . S
C1503 O1479 1.263 . S
C1503 O1480 1.252 . S
C1503 C1497 1.500 . S
H1504 C1487 0.929 . S
H1505 C1488 0.930 . S
H1506 C1489 0.931 . S
H1507 C1490 0.930 . S
H1508 C1499 0.929 . S
H1509 C1500 0.930 . S
H1510 C1501 0.931 . S
H1511 C1502 0.930 . S
C1512 C1514 1.422 . S
C1512 C1516 1.415 . S
C1512 N1518 1.369 . S
C1513 C1514 1.421 . S
C1513 C1515 1.417 . S
C1513 C1525 1.422 . S
C1514 C1512 1.422 . S
C1514 C1513 1.421 . S
C1514 N1524 1.359 . S
C1515 C1513 1.417 . S
C1515 C1517 1.329 . S
C1515 H1534 0.930 . S
C1516 C1512 1.415 . S
C1516 C1517 1.437 . S
C1516 C1520 1.413 . S
C1517 C1515 1.329 . S
C1517 C1516 1.437 . S
C1517 H1539 0.929 . S
N1518 C1512 1.369 . S
N1518 C1519 1.338 . S
N1518 Gd1523 2.622 . S
C1519 N1518 1.338 . S
C1519 C1521 1.378 . S
C1519 H1531 0.929 . S
C1520 C1516 1.413 . S
C1520 C1521 1.348 . S
C1520 H1536 0.931 . S
C1521 C1519 1.378 . S
C1521 C1520 1.348 . S
C1521 H1537 0.930 . S
Gd1522 N1542 2.622 . S
Gd1522 N1549 2.570 . S
Gd1522 O1556 2.353 . S
Gd1522 O1557 2.468 . S
Gd1522 O1558 2.427 . S
Gd1522 O1560 2.388 . S
Gd1522 O1561 2.386 . S
Gd1522 O1565 2.307 . S
Gd1522 C1575 2.805 . S
Gd1523 N1518 2.622 . S
Gd1523 N1524 2.570 . S
Gd1523 O1555 2.386 . S
Gd1523 O1559 2.307 . S
Gd1523 O1562 2.353 . S
Gd1523 O1563 2.468 . S
Gd1523 O1564 2.427 . S
Gd1523 O1566 2.388 . S
Gd1523 C1587 2.805 . S
N1524 C1514 1.359 . S
N1524 Gd1523 2.570 . S
N1524 C1526 1.343 . S
C1525 C1513 1.422 . S
C1525 C1527 1.321 . S
C1525 H1533 0.931 . S
C1526 N1524 1.343 . S
C1526 C1527 1.390 . S
C1526 H1528 0.931 . S
C1527 C1525 1.321 . S
C1527 C1526 1.390 . S
C1527 H1529 0.930 . S
H1528 C1526 0.931 . S
H1529 C1527 0.930 . S
H1530 C1553 0.931 . S
H1531 C1519 0.929 . S
H1532 C1554 0.930 . S
H1533 C1525 0.931 . S
H1534 C1515 0.930 . S
H1535 C1544 0.929 . S
H1536 C1520 0.931 . S
H1537 C1521 0.930 . S
H1538 C1576 0.930 . S
H1539 C1517 0.929 . S
H1540 C1545 0.931 . S
H1541 C1546 0.930 . S
N1542 Gd1522 2.622 . S
N1542 C1543 1.369 . S
N1542 C1544 1.338 . S
C1543 N1542 1.369 . S
C1543 C1547 1.415 . S
C1543 C1550 1.422 . S
C1544 H1535 0.929 . S
C1544 N1542 1.338 . S
C1544 C1546 1.378 . S
C1545 H1540 0.931 . S
C1545 C1546 1.348 . S
C1545 C1547 1.413 . S
C1546 H1541 0.930 . S
C1546 C1544 1.378 . S
C1546 C1545 1.348 . S
C1547 C1543 1.415 . S
C1547 C1545 1.413 . S
C1547 C1577 1.437 . S
H1548 C1577 0.929 . S
N1549 Gd1522 2.570 . S
N1549 C1550 1.359 . S
N1549 C1553 1.343 . S
C1550 C1543 1.422 . S
C1550 N1549 1.359 . S
C1550 C1552 1.421 . S
C1551 C1552 1.422 . S
C1551 C1554 1.321 . S
C1551 H1578 0.931 . S
C1552 C1550 1.421 . S
C1552 C1551 1.422 . S
C1552 C1576 1.417 . S
C1553 H1530 0.931 . S
C1553 N1549 1.343 . S
C1553 C1554 1.390 . S
C1554 H1532 0.930 . S
C1554 C1551 1.321 . S
C1554 C1553 1.390 . S
O1555 Gd1523 2.386 . S
O1555 C1567 1.265 . S
O1556 Gd1522 2.353 . S
O1556 C1567 1.242 . S
O1557 Gd1522 2.468 . S
O1557 C1575 1.263 . S
O1558 Gd1522 2.427 . S
O1558 C1575 1.252 . S
O1559 Gd1523 2.307 . S
O1559 C1568 1.261 . S
O1560 Gd1522 2.388 . S
O1560 C1568 1.252 . S
O1561 Gd1522 2.386 . S
O1561 C1579 1.265 . S
O1562 Gd1523 2.353 . S
O1562 C1579 1.242 . S
O1563 Gd1523 2.468 . S
O1563 C1587 1.263 . S
O1564 Gd1523 2.427 . S
O1564 C1587 1.252 . S
O1565 Gd1522 2.307 . S
O1565 C1580 1.261 . S
O1566 Gd1523 2.388 . S
O1566 C1580 1.252 . S
C1567 O1555 1.265 . S
C1567 O1556 1.242 . S
C1568 O1559 1.261 . S
C1568 O1560 1.252 . S
C1569 C1572 1.394 . S
C1569 C1574 1.370 . S
C1569 C1575 1.500 . S
C1570 C1573 1.383 . S
C1570 C1574 1.395 . S
C1571 C1572 1.396 . S
C1571 C1573 1.365 . S
C1571 H1588 0.929 . S
C1572 C1569 1.394 . S
C1572 C1571 1.396 . S
C1572 H1589 0.930 . S
C1573 C1570 1.383 . S
C1573 C1571 1.365 . S
C1573 H1590 0.931 . S
C1574 C1569 1.370 . S
C1574 C1570 1.395 . S
C1574 H1591 0.930 . S
C1575 Gd1522 2.805 . S
C1575 O1557 1.263 . S
C1575 O1558 1.252 . S
C1575 C1569 1.500 . S
C1576 H1538 0.930 . S
C1576 C1552 1.417 . S
C1576 C1577 1.329 . S
C1577 C1547 1.437 . S
C1577 H1548 0.929 . S
C1577 C1576 1.329 . S
H1578 C1551 0.931 . S
C1579 O1561 1.265 . S
C1579 O1562 1.242 . S
C1580 O1565 1.261 . S
C1580 O1566 1.252 . S
C1581 C1584 1.394 . S
C1581 C1586 1.370 . S
C1581 C1587 1.500 . S
C1582 C1585 1.383 . S
C1582 C1586 1.395 . S
C1583 C1584 1.396 . S
C1583 C1585 1.365 . S
C1583 H1592 0.929 . S
C1584 C1581 1.394 . S
C1584 C1583 1.396 . S
C1584 H1593 0.930 . S
C1585 C1582 1.383 . S
C1585 C1583 1.365 . S
C1585 H1594 0.931 . S
C1586 C1581 1.370 . S
C1586 C1582 1.395 . S
C1586 H1595 0.930 . S
C1587 Gd1523 2.805 . S
C1587 O1563 1.263 . S
C1587 O1564 1.252 . S
C1587 C1581 1.500 . S
H1588 C1571 0.929 . S
H1589 C1572 0.930 . S
H1590 C1573 0.931 . S
H1591 C1574 0.930 . S
H1592 C1583 0.929 . S
H1593 C1584 0.930 . S
H1594 C1585 0.931 . S
H1595 C1586 0.930 . S
C1596 C1598 1.422 1_556 S
C1596 C1600 1.415 . S
C1596 N1602 1.369 . S
C1597 C1598 1.421 . S
C1597 C1599 1.417 . S
C1597 C1609 1.422 . S
C1598 C1596 1.422 1_554 S
C1598 C1597 1.421 . S
C1598 N1608 1.359 . S
C1599 C1597 1.417 . S
C1599 C1601 1.329 1_554 S
C1599 H1618 0.930 . S
C1600 C1596 1.415 . S
C1600 C1601 1.437 . S
C1600 C1604 1.413 . S
C1601 C1599 1.329 1_556 S
C1601 C1600 1.437 . S
C1601 H1623 0.929 . S
N1602 C1596 1.369 . S
N1602 C1603 1.338 . S
N1602 Gd1607 2.622 1_556 S
C1603 N1602 1.338 . S
C1603 C1605 1.378 . S
C1603 H1615 0.929 . S
C1604 C1600 1.413 . S
C1604 C1605 1.348 . S
C1604 H1620 0.931 . S
C1605 C1603 1.378 . S
C1605 C1604 1.348 . S
C1605 H1621 0.930 . S
Gd1606 N1626 2.622 . S
Gd1606 N1633 2.570 . S
Gd1606 O1640 2.353 1_655 S
Gd1606 O1641 2.468 . S
Gd1606 O1642 2.427 . S
Gd1606 O1644 2.388 1_655 S
Gd1606 O1645 2.386 1_655 S
Gd1606 O1649 2.308 1_655 S
Gd1606 C1659 2.805 . S
Gd1607 N1602 2.622 1_554 S
Gd1607 N1608 2.570 . S
Gd1607 O1639 2.386 . S
Gd1607 O1643 2.307 . S
Gd1607 O1646 2.353 . S
Gd1607 O1647 2.468 . S
Gd1607 O1648 2.427 1_554 S
Gd1607 O1650 2.388 1_554 S
Gd1607 C1671 2.805 . S
N1608 C1598 1.359 . S
N1608 Gd1607 2.570 . S
N1608 C1610 1.343 . S
C1609 C1597 1.422 . S
C1609 C1611 1.321 . S
C1609 H1617 0.931 . S
C1610 N1608 1.343 . S
C1610 C1611 1.390 . S
C1610 H1612 0.931 . S
C1611 C1609 1.321 . S
C1611 C1610 1.390 . S
C1611 H1613 0.930 . S
H1612 C1610 0.931 . S
H1613 C1611 0.930 . S
H1614 C1637 0.931 1_556 S
H1615 C1603 0.929 . S
H1616 C1638 0.930 . S
H1617 C1609 0.931 . S
H1618 C1599 0.930 . S
H1619 C1628 0.929 1_455 S
H1620 C1604 0.931 . S
H1621 C1605 0.930 . S
H1622 C1660 0.930 . S
H1623 C1601 0.929 . S
H1624 C1629 0.931 . S
H1625 C1630 0.930 . S
N1626 Gd1606 2.622 . S
N1626 C1627 1.369 . S
N1626 C1628 1.338 . S
C1627 N1626 1.369 . S
C1627 C1631 1.415 . S
C1627 C1634 1.422 . S
C1628 H1619 0.929 1_655 S
C1628 N1626 1.338 . S
C1628 C1630 1.378 . S
C1629 H1624 0.931 . S
C1629 C1630 1.348 . S
C1629 C1631 1.413 . S
C1630 H1625 0.930 . S
C1630 C1628 1.378 . S
C1630 C1629 1.348 . S
C1631 C1627 1.415 . S
C1631 C1629 1.413 . S
C1631 C1661 1.437 . S
H1632 C1661 0.929 . S
N1633 Gd1606 2.570 . S
N1633 C1634 1.359 . S
N1633 C1637 1.343 . S
C1634 C1627 1.422 . S
C1634 N1633 1.359 . S
C1634 C1636 1.421 . S
C1635 C1636 1.422 . S
C1635 C1638 1.321 1_554 S
C1635 H1662 0.931 . S
C1636 C1634 1.421 . S
C1636 C1635 1.422 . S
C1636 C1660 1.417 . S
C1637 H1614 0.931 1_554 S
C1637 N1633 1.343 . S
C1637 C1638 1.390 1_554 S
C1638 H1616 0.930 . S
C1638 C1635 1.321 1_556 S
C1638 C1637 1.390 1_556 S
O1639 Gd1607 2.386 . S
O1639 C1651 1.265 . S
O1640 Gd1606 2.353 1_455 S
O1640 C1651 1.242 . S
O1641 Gd1606 2.468 . S
O1641 C1659 1.263 . S
O1642 Gd1606 2.427 . S
O1642 C1659 1.252 . S
O1643 Gd1607 2.307 . S
O1643 C1652 1.261 . S
O1644 Gd1606 2.388 1_455 S
O1644 C1652 1.252 . S
O1645 Gd1606 2.386 1_455 S
O1645 C1663 1.265 . S
O1646 Gd1607 2.353 . S
O1646 C1663 1.242 . S
O1647 Gd1607 2.468 . S
O1647 C1671 1.263 . S
O1648 Gd1607 2.427 1_556 S
O1648 C1671 1.252 1_556 S
O1649 Gd1606 2.308 1_455 S
O1649 C1664 1.259 1_554 S
O1650 Gd1607 2.388 1_556 S
O1650 C1664 1.252 . S
C1651 O1639 1.265 . S
C1651 O1640 1.242 . S
C1652 O1643 1.261 . S
C1652 O1644 1.252 . S
C1653 C1656 1.394 . S
C1653 C1658 1.370 . S
C1653 C1659 1.500 . S
C1654 C1657 1.383 . S
C1654 C1658 1.395 . S
C1655 C1656 1.396 . S
C1655 C1657 1.365 . S
C1655 H1672 0.929 . S
C1656 C1653 1.394 . S
C1656 C1655 1.396 . S
C1656 H1673 0.930 . S
C1657 C1654 1.383 . S
C1657 C1655 1.365 . S
C1657 H1674 0.931 . S
C1658 C1653 1.370 . S
C1658 C1654 1.395 . S
C1658 H1675 0.930 . S
C1659 Gd1606 2.805 . S
C1659 O1641 1.263 . S
C1659 O1642 1.252 . S
C1659 C1653 1.500 . S
C1660 H1622 0.930 . S
C1660 C1636 1.417 . S
C1660 C1661 1.329 . S
C1661 C1631 1.437 . S
C1661 H1632 0.929 . S
C1661 C1660 1.329 . S
H1662 C1635 0.931 . S
C1663 O1645 1.265 . S
C1663 O1646 1.242 . S
C1664 O1649 1.259 1_556 S
C1664 O1650 1.252 . S
C1665 C1668 1.394 . S
C1665 C1670 1.370 1_556 S
C1665 C1671 1.500 1_556 S
C1666 C1669 1.383 1_554 S
C1666 C1670 1.395 . S
C1667 C1668 1.396 . S
C1667 C1669 1.365 . S
C1667 H1676 0.929 . S
C1668 C1665 1.394 . S
C1668 C1667 1.396 . S
C1668 H1677 0.930 . S
C1669 C1666 1.383 1_556 S
C1669 C1667 1.365 . S
C1669 H1678 0.931 . S
C1670 C1665 1.370 1_554 S
C1670 C1666 1.395 . S
C1670 H1679 0.930 . S
C1671 Gd1607 2.805 . S
C1671 O1647 1.263 . S
C1671 O1648 1.252 1_554 S
C1671 C1665 1.500 1_554 S
H1672 C1655 0.929 . S
H1673 C1656 0.930 . S
H1674 C1657 0.931 . S
H1675 C1658 0.930 . S
H1676 C1667 0.929 . S
H1677 C1668 0.930 . S
H1678 C1669 0.931 . S
H1679 C1670 0.930 . S
H1680 C1698 0.951 . S
H1681 C1700 0.951 . S
H1682 C1702 0.950 . S
H1683 C1703 0.950 . S
H1684 C1705 0.950 . S
H1685 C1708 0.950 . S
H1686 C1709 0.950 . S
H1687 C1711 0.950 . S
H1688 C1712 0.950 . S
H1689 C1713 0.951 . S
H1690 C1715 0.951 . S
H1691 C1717 0.950 1_655 S
H1692 C1718 0.949 1_656 S
H1693 C1720 0.951 1_554 S
H1694 C1723 0.950 . S
H1695 C1724 0.950 . S
H1696 C1726 0.950 . S
H1697 C1727 0.950 . S
C1698 H1680 0.951 . S
C1698 C1699 1.366 . S
C1698 C1700 1.388 . S
C1699 C1698 1.366 . S
C1699 C1703 1.385 1_655 S
C1700 H1681 0.951 . S
C1700 C1698 1.388 . S
C1700 C1701 1.366 1_655 S
C1701 C1700 1.366 1_455 S
C1701 C1702 1.414 . S
C1701 C1704 1.499 . S
C1702 H1682 0.950 . S
C1702 C1701 1.414 . S
C1702 C1703 1.374 . S
C1703 H1683 0.950 . S
C1703 C1699 1.385 1_455 S
C1703 C1702 1.374 . S
C1704 C1701 1.499 . S
C1704 C1705 1.373 . S
C1704 C1706 1.389 1_455 S
C1705 H1684 0.950 . S
C1705 C1704 1.373 . S
C1705 C1721 1.377 . S
C1706 C1704 1.389 1_655 S
C1706 C1707 1.524 . S
C1706 C1720 1.377 . S
C1707 C1706 1.524 . S
C1707 C1708 1.397 1_556 S
C1707 C1712 1.363 . S
C1708 H1685 0.950 . S
C1708 C1707 1.397 1_554 S
C1708 C1709 1.334 . S
C1709 H1686 0.950 . S
C1709 C1708 1.334 . S
C1709 C1710 1.287 . S
C1710 C1709 1.287 . S
C1710 C1711 1.524 1_554 S
C1710 H1729 0.913 . S
C1711 H1687 0.950 . S
C1711 C1710 1.524 1_556 S
C1711 C1712 1.415 . S
C1712 H1688 0.950 . S
C1712 C1707 1.363 . S
C1712 C1711 1.415 . S
C1713 H1689 0.951 . S
C1713 C1714 1.366 . S
C1713 C1715 1.388 . S
C1714 C1713 1.366 . S
C1714 C1718 1.412 . S
C1715 H1690 0.951 . S
C1715 C1713 1.388 . S
C1715 C1716 1.366 1_554 S
C1716 C1715 1.366 1_556 S
C1716 C1717 1.414 . S
C1716 C1719 1.499 . S
C1717 H1691 0.950 1_455 S
C1717 C1716 1.414 . S
C1717 C1718 1.351 1_556 S
C1718 H1692 0.949 1_454 S
C1718 C1714 1.412 . S
C1718 C1717 1.351 1_554 S
C1719 C1716 1.499 . S
C1719 C1720 1.373 1_455 S
C1719 C1721 1.389 . S
C1720 H1693 0.951 1_556 S
C1720 C1706 1.377 . S
C1720 C1719 1.373 1_655 S
C1721 C1705 1.377 . S
C1721 C1719 1.389 . S
C1721 C1722 1.524 . S
C1722 C1721 1.524 . S
C1722 C1723 1.397 . S
C1722 C1727 1.363 . S
C1723 H1694 0.950 . S
C1723 C1722 1.397 . S
C1723 C1724 1.334 . S
C1724 H1695 0.950 . S
C1724 C1723 1.334 . S
C1724 C1725 1.287 . S
C1725 C1724 1.287 . S
C1725 C1726 1.524 . S
C1725 H1728 0.999 . S
C1726 H1696 0.950 . S
C1726 C1725 1.524 . S
C1726 C1727 1.415 . S
C1727 H1697 0.950 . S
C1727 C1722 1.363 . S
C1727 C1726 1.415 . S
H1728 C1725 0.999 . S
H1729 C1710 0.913 . S
H1730 C1748 0.951 . S
H1731 C1750 0.951 . S
H1732 C1752 0.950 . S
H1733 C1753 0.950 . S
H1734 C1755 0.950 . S
H1735 C1758 0.950 . S
H1736 C1759 0.950 . S
H1737 C1761 0.950 . S
H1738 C1762 0.950 . S
H1739 C1763 0.951 . S
H1740 C1765 0.951 . S
H1741 C1767 0.950 . S
H1742 C1768 0.950 . S
H1743 C1770 0.950 . S
H1744 C1773 0.950 . S
H1745 C1774 0.950 . S
H1746 C1776 0.950 . S
H1747 C1777 0.950 . S
C1748 H1730 0.951 . S
C1748 C1749 1.366 . S
C1748 C1750 1.388 . S
C1749 C1748 1.366 . S
C1749 C1753 1.385 . S
C1750 H1731 0.951 . S
C1750 C1748 1.388 . S
C1750 C1751 1.366 . S
C1751 C1750 1.366 . S
C1751 C1752 1.414 . S
C1751 C1754 1.499 . S
C1752 H1732 0.950 . S
C1752 C1751 1.414 . S
C1752 C1753 1.374 . S
C1753 H1733 0.950 . S
C1753 C1749 1.385 . S
C1753 C1752 1.374 . S
C1754 C1751 1.499 . S
C1754 C1755 1.373 . S
C1754 C1756 1.389 . S
C1755 H1734 0.950 . S
C1755 C1754 1.373 . S
C1755 C1771 1.377 . S
C1756 C1754 1.389 . S
C1756 C1757 1.524 . S
C1756 C1770 1.377 . S
C1757 C1756 1.524 . S
C1757 C1758 1.397 . S
C1757 C1762 1.363 . S
C1758 H1735 0.950 . S
C1758 C1757 1.397 . S
C1758 C1759 1.334 . S
C1759 H1736 0.950 . S
C1759 C1758 1.334 . S
C1759 C1760 1.287 . S
C1760 C1759 1.287 . S
C1760 C1761 1.524 . S
C1760 H1779 0.913 . S
C1761 H1737 0.950 . S
C1761 C1760 1.524 . S
C1761 C1762 1.415 . S
C1762 H1738 0.950 . S
C1762 C1757 1.363 . S
C1762 C1761 1.415 . S
C1763 H1739 0.951 . S
C1763 C1764 1.366 . S
C1763 C1765 1.388 . S
C1764 C1763 1.366 . S
C1764 C1768 1.385 . S
C1765 H1740 0.951 . S
C1765 C1763 1.388 . S
C1765 C1766 1.366 . S
C1766 C1765 1.366 . S
C1766 C1767 1.414 . S
C1766 C1769 1.499 . S
C1767 H1741 0.950 . S
C1767 C1766 1.414 . S
C1767 C1768 1.374 . S
C1768 H1742 0.950 . S
C1768 C1764 1.385 . S
C1768 C1767 1.374 . S
C1769 C1766 1.499 . S
C1769 C1770 1.373 . S
C1769 C1771 1.389 . S
C1770 H1743 0.950 . S
C1770 C1756 1.377 . S
C1770 C1769 1.373 . S
C1771 C1755 1.377 . S
C1771 C1769 1.389 . S
C1771 C1772 1.524 . S
C1772 C1771 1.524 . S
C1772 C1773 1.397 . S
C1772 C1777 1.363 . S
C1773 H1744 0.950 . S
C1773 C1772 1.397 . S
C1773 C1774 1.334 . S
C1774 H1745 0.950 . S
C1774 C1773 1.334 . S
C1774 C1775 1.287 . S
C1775 C1774 1.287 . S
C1775 C1776 1.524 . S
C1775 H1778 0.999 . S
C1776 H1746 0.950 . S
C1776 C1775 1.524 . S
C1776 C1777 1.415 . S
C1777 H1747 0.950 . S
C1777 C1772 1.363 . S
C1777 C1776 1.415 . S
H1778 C1775 0.999 . S
H1779 C1760 0.913 . S
H1780 C1798 0.951 . S
H1781 C1800 0.951 . S
H1782 C1802 0.950 . S
H1783 C1803 0.950 . S
H1784 C1805 0.950 . S
H1785 C1808 0.950 . S
H1786 C1809 0.950 . S
H1787 C1811 0.950 . S
H1788 C1812 0.950 . S
H1789 C1813 0.951 . S
H1790 C1815 0.951 . S
H1791 C1817 0.950 . S
H1792 C1818 0.950 . S
H1793 C1820 0.950 . S
H1794 C1823 0.950 . S
H1795 C1824 0.950 . S
H1796 C1826 0.950 . S
H1797 C1827 0.950 . S
C1798 H1780 0.951 . S
C1798 C1799 1.366 . S
C1798 C1800 1.388 . S
C1799 C1798 1.366 . S
C1799 C1803 1.385 . S
C1800 H1781 0.951 . S
C1800 C1798 1.388 . S
C1800 C1801 1.366 . S
C1801 C1800 1.366 . S
C1801 C1802 1.414 . S
C1801 C1804 1.499 . S
C1802 H1782 0.950 . S
C1802 C1801 1.414 . S
C1802 C1803 1.374 . S
C1803 H1783 0.950 . S
C1803 C1799 1.385 . S
C1803 C1802 1.374 . S
C1804 C1801 1.499 . S
C1804 C1805 1.373 . S
C1804 C1806 1.389 . S
C1805 H1784 0.950 . S
C1805 C1804 1.373 . S
C1805 C1821 1.377 . S
C1806 C1804 1.389 . S
C1806 C1807 1.524 . S
C1806 C1820 1.377 . S
C1807 C1806 1.524 . S
C1807 C1808 1.397 . S
C1807 C1812 1.363 . S
C1808 H1785 0.950 . S
C1808 C1807 1.397 . S
C1808 C1809 1.334 . S
C1809 H1786 0.950 . S
C1809 C1808 1.334 . S
C1809 C1810 1.287 . S
C1810 C1809 1.287 . S
C1810 C1811 1.524 . S
C1810 H1829 0.913 . S
C1811 H1787 0.950 . S
C1811 C1810 1.524 . S
C1811 C1812 1.415 . S
C1812 H1788 0.950 . S
C1812 C1807 1.363 . S
C1812 C1811 1.415 . S
C1813 H1789 0.951 . S
C1813 C1814 1.366 . S
C1813 C1815 1.388 . S
C1814 C1813 1.366 . S
C1814 C1818 1.385 . S
C1815 H1790 0.951 . S
C1815 C1813 1.388 . S
C1815 C1816 1.366 . S
C1816 C1815 1.366 . S
C1816 C1817 1.414 . S
C1816 C1819 1.499 . S
C1817 H1791 0.950 . S
C1817 C1816 1.414 . S
C1817 C1818 1.374 . S
C1818 H1792 0.950 . S
C1818 C1814 1.385 . S
C1818 C1817 1.374 . S
C1819 C1816 1.499 . S
C1819 C1820 1.373 . S
C1819 C1821 1.389 . S
C1820 H1793 0.950 . S
C1820 C1806 1.377 . S
C1820 C1819 1.373 . S
C1821 C1805 1.377 . S
C1821 C1819 1.389 . S
C1821 C1822 1.524 . S
C1822 C1821 1.524 . S
C1822 C1823 1.397 . S
C1822 C1827 1.363 . S
C1823 H1794 0.950 . S
C1823 C1822 1.397 . S
C1823 C1824 1.334 . S
C1824 H1795 0.950 . S
C1824 C1823 1.334 . S
C1824 C1825 1.287 . S
C1825 C1824 1.287 . S
C1825 C1826 1.524 . S
C1825 H1828 0.999 . S
C1826 H1796 0.950 . S
C1826 C1825 1.524 . S
C1826 C1827 1.415 . S
C1827 H1797 0.950 . S
C1827 C1822 1.363 . S
C1827 C1826 1.415 . S
H1828 C1825 0.999 . S
H1829 C1810 0.913 . S
H1830 C1848 0.951 . S
H1831 C1850 0.951 . S
H1832 C1852 0.950 . S
H1833 C1853 0.950 . S
H1834 C1855 0.950 . S
H1835 C1858 0.950 . S
H1836 C1859 0.950 . S
H1837 C1861 0.950 . S
H1838 C1862 0.950 . S
H1839 C1863 0.951 . S
H1840 C1865 0.951 . S
H1841 C1867 0.950 . S
H1842 C1868 0.950 . S
H1843 C1870 0.950 . S
H1844 C1873 0.950 . S
H1845 C1874 0.950 . S
H1846 C1876 0.950 . S
H1847 C1877 0.950 . S
C1848 H1830 0.951 . S
C1848 C1849 1.366 . S
C1848 C1850 1.388 . S
C1849 C1848 1.366 . S
C1849 C1853 1.385 . S
C1850 H1831 0.951 . S
C1850 C1848 1.388 . S
C1850 C1851 1.366 . S
C1851 C1850 1.366 . S
C1851 C1852 1.414 . S
C1851 C1854 1.499 . S
C1852 H1832 0.950 . S
C1852 C1851 1.414 . S
C1852 C1853 1.374 . S
C1853 H1833 0.950 . S
C1853 C1849 1.385 . S
C1853 C1852 1.374 . S
C1854 C1851 1.499 . S
C1854 C1855 1.373 . S
C1854 C1856 1.389 . S
C1855 H1834 0.950 . S
C1855 C1854 1.373 . S
C1855 C1871 1.377 . S
C1856 C1854 1.389 . S
C1856 C1857 1.524 . S
C1856 C1870 1.377 . S
C1857 C1856 1.524 . S
C1857 C1858 1.397 . S
C1857 C1862 1.363 . S
C1858 H1835 0.950 . S
C1858 C1857 1.397 . S
C1858 C1859 1.334 . S
C1859 H1836 0.950 . S
C1859 C1858 1.334 . S
C1859 C1860 1.287 . S
C1860 C1859 1.287 . S
C1860 C1861 1.524 . S
C1860 H1879 0.913 . S
C1861 H1837 0.950 . S
C1861 C1860 1.524 . S
C1861 C1862 1.415 . S
C1862 H1838 0.950 . S
C1862 C1857 1.363 . S
C1862 C1861 1.415 . S
C1863 H1839 0.951 . S
C1863 C1864 1.366 . S
C1863 C1865 1.388 . S
C1864 C1863 1.366 . S
C1864 C1868 1.385 . S
C1865 H1840 0.951 . S
C1865 C1863 1.388 . S
C1865 C1866 1.366 . S
C1866 C1865 1.366 . S
C1866 C1867 1.414 . S
C1866 C1869 1.499 . S
C1867 H1841 0.950 . S
C1867 C1866 1.414 . S
C1867 C1868 1.374 . S
C1868 H1842 0.950 . S
C1868 C1864 1.385 . S
C1868 C1867 1.374 . S
C1869 C1866 1.499 . S
C1869 C1870 1.373 . S
C1869 C1871 1.389 . S
C1870 H1843 0.950 . S
C1870 C1856 1.377 . S
C1870 C1869 1.373 . S
C1871 C1855 1.377 . S
C1871 C1869 1.389 . S
C1871 C1872 1.524 . S
C1872 C1871 1.524 . S
C1872 C1873 1.397 . S
C1872 C1877 1.363 . S
C1873 H1844 0.950 . S
C1873 C1872 1.397 . S
C1873 C1874 1.334 . S
C1874 H1845 0.950 . S
C1874 C1873 1.334 . S
C1874 C1875 1.287 . S
C1875 C1874 1.287 . S
C1875 C1876 1.524 . S
C1875 H1878 0.999 . S
C1876 H1846 0.950 . S
C1876 C1875 1.524 . S
C1876 C1877 1.415 . S
C1877 H1847 0.950 . S
C1877 C1872 1.363 . S
C1877 C1876 1.415 . S
H1878 C1875 0.999 . S
H1879 C1860 0.913 . S
H1880 C1898 0.951 . S
H1881 C1900 0.951 . S
H1882 C1902 0.950 . S
H1883 C1903 0.950 . S
H1884 C1905 0.950 1_655 S
H1885 C1908 0.950 . S
H1886 C1909 0.950 . S
H1887 C1911 0.950 . S
H1888 C1912 0.950 . S
H1889 C1913 0.951 . S
H1890 C1915 0.951 . S
H1891 C1917 0.950 . S
H1892 C1918 0.950 . S
H1893 C1920 0.950 . S
H1894 C1923 0.950 . S
H1895 C1924 0.950 . S
H1896 C1926 0.950 . S
H1897 C1927 0.950 . S
C1898 H1880 0.951 . S
C1898 C1899 1.366 . S
C1898 C1900 1.388 . S
C1899 C1898 1.366 . S
C1899 C1903 1.385 . S
C1900 H1881 0.951 . S
C1900 C1898 1.388 . S
C1900 C1901 1.366 . S
C1901 C1900 1.366 . S
C1901 C1902 1.414 . S
C1901 C1904 1.499 . S
C1902 H1882 0.950 . S
C1902 C1901 1.414 . S
C1902 C1903 1.374 . S
C1903 H1883 0.950 . S
C1903 C1899 1.385 . S
C1903 C1902 1.374 . S
C1904 C1901 1.499 . S
C1904 C1905 1.373 . S
C1904 C1906 1.389 . S
C1905 H1884 0.950 1_455 S
C1905 C1904 1.373 . S
C1905 C1921 1.377 . S
C1906 C1904 1.389 . S
C1906 C1907 1.524 . S
C1906 C1920 1.377 . S
C1907 C1906 1.524 . S
C1907 C1908 1.397 . S
C1907 C1912 1.363 . S
C1908 H1885 0.950 . S
C1908 C1907 1.397 . S
C1908 C1909 1.334 . S
C1909 H1886 0.950 . S
C1909 C1908 1.334 . S
C1909 C1910 1.287 . S
C1910 C1909 1.287 . S
C1910 C1911 1.524 . S
C1910 H1929 0.913 . S
C1911 H1887 0.950 . S
C1911 C1910 1.524 . S
C1911 C1912 1.415 . S
C1912 H1888 0.950 . S
C1912 C1907 1.363 . S
C1912 C1911 1.415 . S
C1913 H1889 0.951 . S
C1913 C1914 1.366 . S
C1913 C1915 1.388 . S
C1914 C1913 1.366 . S
C1914 C1918 1.385 . S
C1915 H1890 0.951 . S
C1915 C1913 1.388 . S
C1915 C1916 1.366 . S
C1916 C1915 1.366 . S
C1916 C1917 1.414 . S
C1916 C1919 1.499 . S
C1917 H1891 0.950 . S
C1917 C1916 1.414 . S
C1917 C1918 1.374 . S
C1918 H1892 0.950 . S
C1918 C1914 1.385 . S
C1918 C1917 1.374 . S
C1919 C1916 1.499 . S
C1919 C1920 1.373 . S
C1919 C1921 1.389 . S
C1920 H1893 0.950 . S
C1920 C1906 1.377 . S
C1920 C1919 1.373 . S
C1921 C1905 1.377 . S
C1921 C1919 1.389 . S
C1921 C1922 1.524 1_455 S
C1922 C1921 1.524 1_655 S
C1922 C1923 1.397 . S
C1922 C1927 1.363 . S
C1923 H1894 0.950 . S
C1923 C1922 1.397 . S
C1923 C1924 1.334 . S
C1924 H1895 0.950 . S
C1924 C1923 1.334 . S
C1924 C1925 1.287 . S
C1925 C1924 1.287 . S
C1925 C1926 1.524 . S
C1925 H1928 0.999 . S
C1926 H1896 0.950 . S
C1926 C1925 1.524 . S
C1926 C1927 1.415 . S
C1927 H1897 0.950 . S
C1927 C1922 1.363 . S
C1927 C1926 1.415 . S
H1928 C1925 0.999 . S
H1929 C1910 0.913 . S
H1930 C1948 0.951 . S
H1931 C1950 0.951 . S
H1932 C1952 0.950 . S
H1933 C1953 0.950 . S
H1934 C1955 0.950 . S
H1935 C1958 0.950 . S
H1936 C1959 0.950 . S
H1937 C1961 0.950 . S
H1938 C1962 0.950 . S
H1939 C1963 0.951 . S
H1940 C1965 0.951 . S
H1941 C1967 0.950 . S
H1942 C1968 0.950 . S
H1943 C1970 0.950 . S
H1944 C1973 0.950 . S
H1945 C1974 0.950 . S
H1946 C1976 0.950 . S
H1947 C1977 0.950 . S
C1948 H1930 0.951 . S
C1948 C1949 1.366 . S
C1948 C1950 1.388 . S
C1949 C1948 1.366 . S
C1949 C1953 1.385 . S
C1950 H1931 0.951 . S
C1950 C1948 1.388 . S
C1950 C1951 1.366 . S
C1951 C1950 1.366 . S
C1951 C1952 1.414 . S
C1951 C1954 1.499 . S
C1952 H1932 0.950 . S
C1952 C1951 1.414 . S
C1952 C1953 1.374 . S
C1953 H1933 0.950 . S
C1953 C1949 1.385 . S
C1953 C1952 1.374 . S
C1954 C1951 1.499 . S
C1954 C1955 1.373 . S
C1954 C1956 1.389 . S
C1955 H1934 0.950 . S
C1955 C1954 1.373 . S
C1955 C1971 1.377 . S
C1956 C1954 1.389 . S
C1956 C1957 1.524 . S
C1956 C1970 1.377 . S
C1957 C1956 1.524 . S
C1957 C1958 1.397 . S
C1957 C1962 1.363 . S
C1958 H1935 0.950 . S
C1958 C1957 1.397 . S
C1958 C1959 1.334 . S
C1959 H1936 0.950 . S
C1959 C1958 1.334 . S
C1959 C1960 1.287 . S
C1960 C1959 1.287 . S
C1960 C1961 1.524 . S
C1960 H1979 0.913 . S
C1961 H1937 0.950 . S
C1961 C1960 1.524 . S
C1961 C1962 1.415 . S
C1962 H1938 0.950 . S
C1962 C1957 1.363 . S
C1962 C1961 1.415 . S
C1963 H1939 0.951 . S
C1963 C1964 1.366 . S
C1963 C1965 1.388 . S
C1964 C1963 1.366 . S
C1964 C1968 1.385 . S
C1965 H1940 0.951 . S
C1965 C1963 1.388 . S
C1965 C1966 1.366 . S
C1966 C1965 1.366 . S
C1966 C1967 1.414 . S
C1966 C1969 1.499 . S
C1967 H1941 0.950 . S
C1967 C1966 1.414 . S
C1967 C1968 1.374 . S
C1968 H1942 0.950 . S
C1968 C1964 1.385 . S
C1968 C1967 1.374 . S
C1969 C1966 1.499 . S
C1969 C1970 1.373 . S
C1969 C1971 1.389 . S
C1970 H1943 0.950 . S
C1970 C1956 1.377 . S
C1970 C1969 1.373 . S
C1971 C1955 1.377 . S
C1971 C1969 1.389 . S
C1971 C1972 1.524 . S
C1972 C1971 1.524 . S
C1972 C1973 1.397 . S
C1972 C1977 1.363 . S
C1973 H1944 0.950 . S
C1973 C1972 1.397 . S
C1973 C1974 1.334 . S
C1974 H1945 0.950 . S
C1974 C1973 1.334 . S
C1974 C1975 1.287 . S
C1975 C1974 1.287 . S
C1975 C1976 1.524 . S
C1975 H1978 0.999 . S
C1976 H1946 0.950 . S
C1976 C1975 1.524 . S
C1976 C1977 1.415 . S
C1977 H1947 0.950 . S
C1977 C1972 1.363 . S
C1977 C1976 1.415 . S
H1978 C1975 0.999 . S
H1979 C1960 0.913 . S
H1980 C1998 0.951 . S
H1981 C2000 0.951 . S
H1982 C2002 0.950 . S
H1983 C2003 0.950 . S
H1984 C2005 0.950 . S
H1985 C2008 0.950 . S
H1986 C2009 0.950 . S
H1987 C2011 0.950 . S
H1988 C2012 0.950 . S
H1989 C2013 0.951 . S
H1990 C2015 0.951 . S
H1991 C2017 0.950 . S
H1992 C2018 0.950 . S
H1993 C2020 0.950 . S
H1994 C2023 0.950 . S
H1995 C2024 0.950 . S
H1996 C2026 0.950 . S
H1997 C2027 0.950 . S
C1998 H1980 0.951 . S
C1998 C1999 1.366 . S
C1998 C2000 1.388 . S
C1999 C1998 1.366 . S
C1999 C2003 1.385 . S
C2000 H1981 0.951 . S
C2000 C1998 1.388 . S
C2000 C2001 1.366 . S
C2001 C2000 1.366 . S
C2001 C2002 1.414 . S
C2001 C2004 1.499 . S
C2002 H1982 0.950 . S
C2002 C2001 1.414 . S
C2002 C2003 1.374 . S
C2003 H1983 0.950 . S
C2003 C1999 1.385 . S
C2003 C2002 1.374 . S
C2004 C2001 1.499 . S
C2004 C2005 1.373 . S
C2004 C2006 1.389 . S
C2005 H1984 0.950 . S
C2005 C2004 1.373 . S
C2005 C2021 1.377 . S
C2006 C2004 1.389 . S
C2006 C2007 1.524 . S
C2006 C2020 1.377 . S
C2007 C2006 1.524 . S
C2007 C2008 1.397 . S
C2007 C2012 1.363 . S
C2008 H1985 0.950 . S
C2008 C2007 1.397 . S
C2008 C2009 1.334 . S
C2009 H1986 0.950 . S
C2009 C2008 1.334 . S
C2009 C2010 1.287 . S
C2010 C2009 1.287 . S
C2010 C2011 1.524 . S
C2010 H2029 0.913 . S
C2011 H1987 0.950 . S
C2011 C2010 1.524 . S
C2011 C2012 1.415 . S
C2012 H1988 0.950 . S
C2012 C2007 1.363 . S
C2012 C2011 1.415 . S
C2013 H1989 0.951 . S
C2013 C2014 1.366 . S
C2013 C2015 1.388 . S
C2014 C2013 1.366 . S
C2014 C2018 1.385 . S
C2015 H1990 0.951 . S
C2015 C2013 1.388 . S
C2015 C2016 1.366 . S
C2016 C2015 1.366 . S
C2016 C2017 1.414 . S
C2016 C2019 1.499 . S
C2017 H1991 0.950 . S
C2017 C2016 1.414 . S
C2017 C2018 1.374 . S
C2018 H1992 0.950 . S
C2018 C2014 1.385 . S
C2018 C2017 1.374 . S
C2019 C2016 1.499 . S
C2019 C2020 1.373 . S
C2019 C2021 1.389 . S
C2020 H1993 0.950 . S
C2020 C2006 1.377 . S
C2020 C2019 1.373 . S
C2021 C2005 1.377 . S
C2021 C2019 1.389 . S
C2021 C2022 1.524 . S
C2022 C2021 1.524 . S
C2022 C2023 1.397 . S
C2022 C2027 1.363 . S
C2023 H1994 0.950 . S
C2023 C2022 1.397 . S
C2023 C2024 1.334 . S
C2024 H1995 0.950 . S
C2024 C2023 1.334 . S
C2024 C2025 1.287 . S
C2025 C2024 1.287 . S
C2025 C2026 1.524 . S
C2025 H2028 0.999 . S
C2026 H1996 0.950 . S
C2026 C2025 1.524 . S
C2026 C2027 1.415 . S
C2027 H1997 0.950 . S
C2027 C2022 1.363 . S
C2027 C2026 1.415 . S
H2028 C2025 0.999 . S
H2029 C2010 0.913 . S
H2030 C2048 0.951 . S
H2031 C2050 0.951 . S
H2032 C2052 0.950 . S
H2033 C2053 0.950 . S
H2034 C2055 0.950 . S
H2035 C2058 0.950 . S
H2036 C2059 0.950 . S
H2037 C2061 0.950 . S
H2038 C2062 0.950 . S
H2039 C2063 0.951 . S
H2040 C2065 0.951 . S
H2041 C2067 0.950 . S
H2042 C2068 0.950 . S
H2043 C2070 0.950 . S
H2044 C2073 0.950 . S
H2045 C2074 0.950 . S
H2046 C2076 0.950 . S
H2047 C2077 0.950 . S
C2048 H2030 0.951 . S
C2048 C2049 1.366 . S
C2048 C2050 1.388 . S
C2049 C2048 1.366 . S
C2049 C2053 1.385 . S
C2050 H2031 0.951 . S
C2050 C2048 1.388 . S
C2050 C2051 1.366 . S
C2051 C2050 1.366 . S
C2051 C2052 1.414 . S
C2051 C2054 1.499 . S
C2052 H2032 0.950 . S
C2052 C2051 1.414 . S
C2052 C2053 1.374 . S
C2053 H2033 0.950 . S
C2053 C2049 1.385 . S
C2053 C2052 1.374 . S
C2054 C2051 1.499 . S
C2054 C2055 1.373 . S
C2054 C2056 1.389 . S
C2055 H2034 0.950 . S
C2055 C2054 1.373 . S
C2055 C2071 1.377 . S
C2056 C2054 1.389 . S
C2056 C2057 1.524 . S
C2056 C2070 1.377 . S
C2057 C2056 1.524 . S
C2057 C2058 1.397 . S
C2057 C2062 1.363 . S
C2058 H2035 0.950 . S
C2058 C2057 1.397 . S
C2058 C2059 1.334 . S
C2059 H2036 0.950 . S
C2059 C2058 1.334 . S
C2059 C2060 1.287 . S
C2060 C2059 1.287 . S
C2060 C2061 1.524 . S
C2060 H2079 0.913 . S
C2061 H2037 0.950 . S
C2061 C2060 1.524 . S
C2061 C2062 1.415 . S
C2062 H2038 0.950 . S
C2062 C2057 1.363 . S
C2062 C2061 1.415 . S
C2063 H2039 0.951 . S
C2063 C2064 1.366 . S
C2063 C2065 1.388 . S
C2064 C2063 1.366 . S
C2064 C2068 1.385 . S
C2065 H2040 0.951 . S
C2065 C2063 1.388 . S
C2065 C2066 1.366 . S
C2066 C2065 1.366 . S
C2066 C2067 1.414 . S
C2066 C2069 1.499 . S
C2067 H2041 0.950 . S
C2067 C2066 1.414 . S
C2067 C2068 1.374 . S
C2068 H2042 0.950 . S
C2068 C2064 1.385 . S
C2068 C2067 1.374 . S
C2069 C2066 1.499 . S
C2069 C2070 1.373 . S
C2069 C2071 1.389 . S
C2070 H2043 0.950 . S
C2070 C2056 1.377 . S
C2070 C2069 1.373 . S
C2071 C2055 1.377 . S
C2071 C2069 1.389 . S
C2071 C2072 1.524 . S
C2072 C2071 1.524 . S
C2072 C2073 1.397 . S
C2072 C2077 1.363 . S
C2073 H2044 0.950 . S
C2073 C2072 1.397 . S
C2073 C2074 1.334 . S
C2074 H2045 0.950 . S
C2074 C2073 1.334 . S
C2074 C2075 1.287 . S
C2075 C2074 1.287 . S
C2075 C2076 1.524 . S
C2075 H2078 0.999 . S
C2076 H2046 0.950 . S
C2076 C2075 1.524 . S
C2076 C2077 1.415 . S
C2077 H2047 0.950 . S
C2077 C2072 1.363 . S
C2077 C2076 1.415 . S
H2078 C2075 0.999 . S
H2079 C2060 0.913 . S
H2080 C2098 0.951 . S
H2081 C2100 0.951 . S
H2082 C2102 0.950 . S
H2083 C2103 0.950 . S
H2084 C2105 0.950 1_565 S
H2085 C2108 0.950 . S
H2086 C2109 0.950 . S
H2087 C2111 0.950 . S
H2088 C2112 0.950 . S
H2089 C2113 0.951 . S
H2090 C2115 0.951 . S
H2091 C2117 0.950 . S
H2092 C2118 0.950 . S
H2093 C2120 0.950 . S
H2094 C2123 0.950 . S
H2095 C2124 0.950 . S
H2096 C2126 0.950 . S
H2097 C2127 0.950 . S
C2098 H2080 0.951 . S
C2098 C2099 1.366 . S
C2098 C2100 1.388 . S
C2099 C2098 1.366 . S
C2099 C2103 1.385 . S
C2100 H2081 0.951 . S
C2100 C2098 1.388 . S
C2100 C2101 1.366 . S
C2101 C2100 1.366 . S
C2101 C2102 1.414 . S
C2101 C2104 1.499 . S
C2102 H2082 0.950 . S
C2102 C2101 1.414 . S
C2102 C2103 1.374 . S
C2103 H2083 0.950 . S
C2103 C2099 1.385 . S
C2103 C2102 1.374 . S
C2104 C2101 1.499 . S
C2104 C2105 1.373 . S
C2104 C2106 1.389 . S
C2105 H2084 0.950 1_545 S
C2105 C2104 1.373 . S
C2105 C2121 1.377 . S
C2106 C2104 1.389 . S
C2106 C2107 1.524 . S
C2106 C2120 1.377 . S
C2107 C2106 1.524 . S
C2107 C2108 1.397 . S
C2107 C2112 1.363 1_655 S
C2108 H2085 0.950 . S
C2108 C2107 1.397 . S
C2108 C2109 1.334 . S
C2109 H2086 0.950 . S
C2109 C2108 1.334 . S
C2109 C2110 1.287 . S
C2110 C2109 1.287 . S
C2110 C2111 1.524 1_655 S
C2110 H2129 0.913 . S
C2111 H2087 0.950 . S
C2111 C2110 1.524 1_455 S
C2111 C2112 1.415 . S
C2112 H2088 0.950 . S
C2112 C2107 1.363 1_455 S
C2112 C2111 1.415 . S
C2113 H2089 0.951 . S
C2113 C2114 1.366 1_655 S
C2113 C2115 1.388 . S
C2114 C2113 1.366 1_455 S
C2114 C2118 1.385 . S
C2115 H2090 0.951 . S
C2115 C2113 1.388 . S
C2115 C2116 1.366 . S
C2116 C2115 1.366 . S
C2116 C2117 1.414 1_655 S
C2116 C2119 1.499 . S
C2117 H2091 0.950 . S
C2117 C2116 1.414 1_455 S
C2117 C2118 1.374 . S
C2118 H2092 0.950 . S
C2118 C2114 1.385 . S
C2118 C2117 1.374 . S
C2119 C2116 1.499 . S
C2119 C2120 1.373 . S
C2119 C2121 1.389 . S
C2120 H2093 0.950 . S
C2120 C2106 1.377 . S
C2120 C2119 1.373 . S
C2121 C2105 1.377 . S
C2121 C2119 1.389 . S
C2121 C2122 1.524 1_545 S
C2122 C2121 1.524 1_565 S
C2122 C2123 1.397 . S
C2122 C2127 1.363 . S
C2123 H2094 0.950 . S
C2123 C2122 1.397 . S
C2123 C2124 1.334 . S
C2124 H2095 0.950 . S
C2124 C2123 1.334 . S
C2124 C2125 1.287 . S
C2125 C2124 1.287 . S
C2125 C2126 1.524 . S
C2125 H2128 0.999 . S
C2126 H2096 0.950 . S
C2126 C2125 1.524 . S
C2126 C2127 1.415 . S
C2127 H2097 0.950 . S
C2127 C2122 1.363 . S
C2127 C2126 1.415 . S
H2128 C2125 0.999 . S
H2129 C2110 0.913 . S
H2130 C2148 0.951 . S
H2131 C2150 0.951 . S
H2132 C2152 0.950 . S
H2133 C2153 0.950 . S
H2134 C2155 0.950 . S
H2135 C2158 0.950 . S
H2136 C2159 0.950 . S
H2137 C2161 0.950 . S
H2138 C2162 0.950 . S
H2139 C2163 0.951 . S
H2140 C2165 0.951 . S
H2141 C2167 0.950 . S
H2142 C2168 0.950 . S
H2143 C2170 0.950 . S
H2144 C2173 0.950 . S
H2145 C2174 0.950 . S
H2146 C2176 0.950 . S
H2147 C2177 0.950 . S
C2148 H2130 0.951 . S
C2148 C2149 1.366 . S
C2148 C2150 1.388 . S
C2149 C2148 1.366 . S
C2149 C2153 1.385 . S
C2150 H2131 0.951 . S
C2150 C2148 1.388 . S
C2150 C2151 1.366 . S
C2151 C2150 1.366 . S
C2151 C2152 1.414 . S
C2151 C2154 1.499 . S
C2152 H2132 0.950 . S
C2152 C2151 1.414 . S
C2152 C2153 1.374 . S
C2153 H2133 0.950 . S
C2153 C2149 1.385 . S
C2153 C2152 1.374 . S
C2154 C2151 1.499 . S
C2154 C2155 1.373 . S
C2154 C2156 1.389 . S
C2155 H2134 0.950 . S
C2155 C2154 1.373 . S
C2155 C2171 1.377 . S
C2156 C2154 1.389 . S
C2156 C2157 1.524 . S
C2156 C2170 1.377 . S
C2157 C2156 1.524 . S
C2157 C2158 1.397 . S
C2157 C2162 1.363 . S
C2158 H2135 0.950 . S
C2158 C2157 1.397 . S
C2158 C2159 1.334 . S
C2159 H2136 0.950 . S
C2159 C2158 1.334 . S
C2159 C2160 1.287 . S
C2160 C2159 1.287 . S
C2160 C2161 1.524 . S
C2160 H2179 0.913 . S
C2161 H2137 0.950 . S
C2161 C2160 1.524 . S
C2161 C2162 1.415 . S
C2162 H2138 0.950 . S
C2162 C2157 1.363 . S
C2162 C2161 1.415 . S
C2163 H2139 0.951 . S
C2163 C2164 1.366 . S
C2163 C2165 1.388 . S
C2164 C2163 1.366 . S
C2164 C2168 1.385 . S
C2165 H2140 0.951 . S
C2165 C2163 1.388 . S
C2165 C2166 1.366 . S
C2166 C2165 1.366 . S
C2166 C2167 1.414 . S
C2166 C2169 1.499 . S
C2167 H2141 0.950 . S
C2167 C2166 1.414 . S
C2167 C2168 1.374 . S
C2168 H2142 0.950 . S
C2168 C2164 1.385 . S
C2168 C2167 1.374 . S
C2169 C2166 1.499 . S
C2169 C2170 1.373 . S
C2169 C2171 1.389 . S
C2170 H2143 0.950 . S
C2170 C2156 1.377 . S
C2170 C2169 1.373 . S
C2171 C2155 1.377 . S
C2171 C2169 1.389 . S
C2171 C2172 1.524 . S
C2172 C2171 1.524 . S
C2172 C2173 1.397 . S
C2172 C2177 1.363 . S
C2173 H2144 0.950 . S
C2173 C2172 1.397 . S
C2173 C2174 1.334 . S
C2174 H2145 0.950 . S
C2174 C2173 1.334 . S
C2174 C2175 1.287 . S
C2175 C2174 1.287 . S
C2175 C2176 1.524 . S
C2175 H2178 0.999 . S
C2176 H2146 0.950 . S
C2176 C2175 1.524 . S
C2176 C2177 1.415 . S
C2177 H2147 0.950 . S
C2177 C2172 1.363 . S
C2177 C2176 1.415 . S
H2178 C2175 0.999 . S
H2179 C2160 0.913 . S
H2180 C2198 0.951 . S
H2181 C2200 0.998 . S
H2182 C2202 0.950 . S
H2183 C2203 0.950 . S
H2184 C2205 0.950 . S
H2185 C2208 0.950 . S
H2186 C2209 0.950 1_545 S
H2187 C2211 0.950 . S
H2188 C2212 0.950 . S
H2189 C2213 0.951 . S
H2190 C2215 0.951 . S
H2191 C2217 0.950 1_565 S
H2192 C2218 0.950 1_565 S
H2193 C2220 0.955 1_565 S
H2194 C2223 0.950 . S
H2195 C2224 0.950 . S
H2196 C2226 0.950 . S
H2197 C2227 0.950 . S
C2198 H2180 0.951 . S
C2198 C2199 1.366 . S
C2198 C2200 1.388 . S
C2199 C2198 1.366 . S
C2199 C2203 1.385 . S
C2200 H2181 0.998 . S
C2200 C2198 1.388 . S
C2200 C2201 1.366 . S
C2201 C2200 1.366 . S
C2201 C2202 1.414 . S
C2201 C2204 1.499 . S
C2202 H2182 0.950 . S
C2202 C2201 1.414 . S
C2202 C2203 1.374 . S
C2203 H2183 0.950 . S
C2203 C2199 1.385 . S
C2203 C2202 1.374 . S
C2204 C2201 1.499 . S
C2204 C2205 1.373 . S
C2204 C2206 1.389 . S
C2205 H2184 0.950 . S
C2205 C2204 1.373 . S
C2205 C2221 1.377 . S
C2206 C2204 1.389 . S
C2206 C2207 1.524 1_545 S
C2206 C2220 1.377 . S
C2207 C2206 1.524 1_565 S
C2207 C2208 1.397 1_565 S
C2207 C2212 1.363 . S
C2208 H2185 0.950 . S
C2208 C2207 1.397 1_545 S
C2208 C2209 1.334 1_545 S
C2209 H2186 0.950 1_565 S
C2209 C2208 1.334 1_565 S
C2209 C2210 1.287 . S
C2210 C2209 1.287 . S
C2210 C2211 1.524 . S
C2210 H2229 0.913 . S
C2211 H2187 0.950 . S
C2211 C2210 1.524 . S
C2211 C2212 1.415 . S
C2212 H2188 0.950 . S
C2212 C2207 1.363 . S
C2212 C2211 1.415 . S
C2213 H2189 0.951 . S
C2213 C2214 1.366 . S
C2213 C2215 1.388 . S
C2214 C2213 1.366 . S
C2214 C2218 1.385 . S
C2215 H2190 0.951 . S
C2215 C2213 1.388 . S
C2215 C2216 1.366 . S
C2216 C2215 1.366 . S
C2216 C2217 1.414 . S
C2216 C2219 1.499 . S
C2217 H2191 0.950 1_545 S
C2217 C2216 1.414 . S
C2217 C2218 1.374 . S
C2218 H2192 0.950 1_545 S
C2218 C2214 1.385 . S
C2218 C2217 1.374 . S
C2219 C2216 1.499 . S
C2219 C2220 1.373 . S
C2219 C2221 1.389 . S
C2220 H2193 0.955 1_545 S
C2220 C2206 1.377 . S
C2220 C2219 1.373 . S
C2221 C2205 1.377 . S
C2221 C2219 1.389 . S
C2221 C2222 1.524 . S
C2222 C2221 1.524 . S
C2222 C2223 1.397 . S
C2222 C2227 1.363 . S
C2223 H2194 0.950 . S
C2223 C2222 1.397 . S
C2223 C2224 1.334 . S
C2224 H2195 0.950 . S
C2224 C2223 1.334 . S
C2224 C2225 1.287 . S
C2225 C2224 1.287 . S
C2225 C2226 1.524 . S
C2225 H2228 0.999 . S
C2226 H2196 0.950 . S
C2226 C2225 1.524 . S
C2226 C2227 1.415 . S
C2227 H2197 0.950 . S
C2227 C2222 1.363 . S
C2227 C2226 1.415 . S
H2228 C2225 0.999 . S
H2229 C2210 0.913 . S
H2230 C2248 0.951 . S
H2231 C2250 0.951 . S
H2232 C2252 0.950 . S
H2233 C2253 0.950 . S
H2234 C2255 0.950 . S
H2235 C2258 0.950 . S
H2236 C2259 0.950 . S
H2237 C2261 0.950 . S
H2238 C2262 0.950 . S
H2239 C2263 0.951 . S
H2240 C2265 0.951 . S
H2241 C2267 0.950 . S
H2242 C2268 0.950 . S
H2243 C2270 0.950 . S
H2244 C2273 0.950 . S
H2245 C2274 0.950 . S
H2246 C2276 0.950 . S
H2247 C2277 0.950 . S
C2248 H2230 0.951 . S
C2248 C2249 1.366 . S
C2248 C2250 1.388 . S
C2249 C2248 1.366 . S
C2249 C2253 1.385 . S
C2250 H2231 0.951 . S
C2250 C2248 1.388 . S
C2250 C2251 1.366 . S
C2251 C2250 1.366 . S
C2251 C2252 1.414 . S
C2251 C2254 1.499 . S
C2252 H2232 0.950 . S
C2252 C2251 1.414 . S
C2252 C2253 1.374 . S
C2253 H2233 0.950 . S
C2253 C2249 1.385 . S
C2253 C2252 1.374 . S
C2254 C2251 1.499 . S
C2254 C2255 1.373 . S
C2254 C2256 1.389 . S
C2255 H2234 0.950 . S
C2255 C2254 1.373 . S
C2255 C2271 1.377 . S
C2256 C2254 1.389 . S
C2256 C2257 1.524 . S
C2256 C2270 1.377 . S
C2257 C2256 1.524 . S
C2257 C2258 1.397 . S
C2257 C2262 1.363 . S
C2258 H2235 0.950 . S
C2258 C2257 1.397 . S
C2258 C2259 1.334 . S
C2259 H2236 0.950 . S
C2259 C2258 1.334 . S
C2259 C2260 1.287 . S
C2260 C2259 1.287 . S
C2260 C2261 1.524 . S
C2260 H2279 0.913 . S
C2261 H2237 0.950 . S
C2261 C2260 1.524 . S
C2261 C2262 1.415 . S
C2262 H2238 0.950 . S
C2262 C2257 1.363 . S
C2262 C2261 1.415 . S
C2263 H2239 0.951 . S
C2263 C2264 1.366 . S
C2263 C2265 1.388 . S
C2264 C2263 1.366 . S
C2264 C2268 1.385 . S
C2265 H2240 0.951 . S
C2265 C2263 1.388 . S
C2265 C2266 1.366 . S
C2266 C2265 1.366 . S
C2266 C2267 1.414 . S
C2266 C2269 1.499 . S
C2267 H2241 0.950 . S
C2267 C2266 1.414 . S
C2267 C2268 1.374 . S
C2268 H2242 0.950 . S
C2268 C2264 1.385 . S
C2268 C2267 1.374 . S
C2269 C2266 1.499 . S
C2269 C2270 1.373 . S
C2269 C2271 1.389 . S
C2270 H2243 0.950 . S
C2270 C2256 1.377 . S
C2270 C2269 1.373 . S
C2271 C2255 1.377 . S
C2271 C2269 1.389 . S
C2271 C2272 1.524 . S
C2272 C2271 1.524 . S
C2272 C2273 1.397 . S
C2272 C2277 1.363 . S
C2273 H2244 0.950 . S
C2273 C2272 1.397 . S
C2273 C2274 1.334 . S
C2274 H2245 0.950 . S
C2274 C2273 1.334 . S
C2274 C2275 1.287 . S
C2275 C2274 1.287 . S
C2275 C2276 1.524 . S
C2275 H2278 0.999 . S
C2276 H2246 0.950 . S
C2276 C2275 1.524 . S
C2276 C2277 1.415 . S
C2277 H2247 0.950 . S
C2277 C2272 1.363 . S
C2277 C2276 1.415 . S
H2278 C2275 0.999 . S
H2279 C2260 0.913 . S
H2280 C2298 0.951 . S
H2281 C2300 0.951 . S
H2282 C2302 0.950 . S
H2283 C2303 0.950 . S
H2284 C2305 0.950 1_565 S
H2285 C2308 0.950 . S
H2286 C2309 0.950 . S
H2287 C2311 0.950 . S
H2288 C2312 0.950 . S
H2289 C2313 0.951 . S
H2290 C2315 0.951 . S
H2291 C2317 0.950 . S
H2292 C2318 0.950 . S
H2293 C2320 0.950 . S
H2294 C2323 0.950 . S
H2295 C2324 0.950 . S
H2296 C2326 0.950 . S
H2297 C2327 0.950 . S
C2298 H2280 0.951 . S
C2298 C2299 1.366 . S
C2298 C2300 1.388 . S
C2299 C2298 1.366 . S
C2299 C2303 1.385 . S
C2300 H2281 0.951 . S
C2300 C2298 1.388 . S
C2300 C2301 1.366 . S
C2301 C2300 1.366 . S
C2301 C2302 1.414 . S
C2301 C2304 1.499 . S
C2302 H2282 0.950 . S
C2302 C2301 1.414 . S
C2302 C2303 1.374 . S
C2303 H2283 0.950 . S
C2303 C2299 1.385 . S
C2303 C2302 1.374 . S
C2304 C2301 1.499 . S
C2304 C2305 1.373 . S
C2304 C2306 1.389 . S
C2305 H2284 0.950 1_545 S
C2305 C2304 1.373 . S
C2305 C2321 1.377 . S
C2306 C2304 1.389 . S
C2306 C2307 1.524 . S
C2306 C2320 1.377 . S
C2307 C2306 1.524 . S
C2307 C2308 1.397 . S
C2307 C2312 1.363 . S
C2308 H2285 0.950 . S
C2308 C2307 1.397 . S
C2308 C2309 1.334 . S
C2309 H2286 0.950 . S
C2309 C2308 1.334 . S
C2309 C2310 1.287 . S
C2310 C2309 1.287 . S
C2310 C2311 1.524 . S
C2310 H2329 0.913 . S
C2311 H2287 0.950 . S
C2311 C2310 1.524 . S
C2311 C2312 1.415 . S
C2312 H2288 0.950 . S
C2312 C2307 1.363 . S
C2312 C2311 1.415 . S
C2313 H2289 0.951 . S
C2313 C2314 1.366 . S
C2313 C2315 1.388 . S
C2314 C2313 1.366 . S
C2314 C2318 1.385 1_455 S
C2315 H2290 0.951 . S
C2315 C2313 1.388 . S
C2315 C2316 1.366 1_455 S
C2316 C2315 1.366 1_655 S
C2316 C2317 1.414 . S
C2316 C2319 1.499 . S
C2317 H2291 0.950 . S
C2317 C2316 1.414 . S
C2317 C2318 1.374 . S
C2318 H2292 0.950 . S
C2318 C2314 1.385 1_655 S
C2318 C2317 1.374 . S
C2319 C2316 1.499 . S
C2319 C2320 1.373 . S
C2319 C2321 1.389 . S
C2320 H2293 0.950 . S
C2320 C2306 1.377 . S
C2320 C2319 1.373 . S
C2321 C2305 1.377 . S
C2321 C2319 1.389 . S
C2321 C2322 1.524 1_545 S
C2322 C2321 1.524 1_565 S
C2322 C2323 1.397 . S
C2322 C2327 1.363 1_655 S
C2323 H2294 0.950 . S
C2323 C2322 1.397 . S
C2323 C2324 1.334 . S
C2324 H2295 0.950 . S
C2324 C2323 1.334 . S
C2324 C2325 1.287 1_655 S
C2325 C2324 1.287 1_455 S
C2325 C2326 1.524 . S
C2325 H2328 0.999 . S
C2326 H2296 0.950 . S
C2326 C2325 1.524 . S
C2326 C2327 1.415 . S
C2327 H2297 0.950 . S
C2327 C2322 1.363 1_455 S
C2327 C2326 1.415 . S
H2328 C2325 0.999 . S
H2329 C2310 0.913 . S
H2330 C2348 0.951 . S
H2331 C2350 0.951 . S
H2332 C2352 0.950 . S
H2333 C2353 0.950 . S
H2334 C2355 0.950 . S
H2335 C2358 0.950 . S
H2336 C2359 0.950 . S
H2337 C2361 0.950 . S
H2338 C2362 0.950 . S
H2339 C2363 0.951 . S
H2340 C2365 0.951 . S
H2341 C2367 0.950 . S
H2342 C2368 0.950 . S
H2343 C2370 0.950 . S
H2344 C2373 0.950 . S
H2345 C2374 0.950 . S
H2346 C2376 0.950 . S
H2347 C2377 0.950 . S
C2348 H2330 0.951 . S
C2348 C2349 1.366 . S
C2348 C2350 1.388 . S
C2349 C2348 1.366 . S
C2349 C2353 1.385 . S
C2350 H2331 0.951 . S
C2350 C2348 1.388 . S
C2350 C2351 1.366 . S
C2351 C2350 1.366 . S
C2351 C2352 1.414 . S
C2351 C2354 1.499 . S
C2352 H2332 0.950 . S
C2352 C2351 1.414 . S
C2352 C2353 1.374 . S
C2353 H2333 0.950 . S
C2353 C2349 1.385 . S
C2353 C2352 1.374 . S
C2354 C2351 1.499 . S
C2354 C2355 1.373 . S
C2354 C2356 1.389 . S
C2355 H2334 0.950 . S
C2355 C2354 1.373 . S
C2355 C2371 1.377 . S
C2356 C2354 1.389 . S
C2356 C2357 1.524 . S
C2356 C2370 1.377 . S
C2357 C2356 1.524 . S
C2357 C2358 1.397 . S
C2357 C2362 1.363 . S
C2358 H2335 0.950 . S
C2358 C2357 1.397 . S
C2358 C2359 1.334 . S
C2359 H2336 0.950 . S
C2359 C2358 1.334 . S
C2359 C2360 1.287 . S
C2360 C2359 1.287 . S
C2360 C2361 1.524 . S
C2360 H2379 0.913 . S
C2361 H2337 0.950 . S
C2361 C2360 1.524 . S
C2361 C2362 1.415 . S
C2362 H2338 0.950 . S
C2362 C2357 1.363 . S
C2362 C2361 1.415 . S
C2363 H2339 0.951 . S
C2363 C2364 1.366 . S
C2363 C2365 1.388 . S
C2364 C2363 1.366 . S
C2364 C2368 1.385 . S
C2365 H2340 0.951 . S
C2365 C2363 1.388 . S
C2365 C2366 1.366 . S
C2366 C2365 1.366 . S
C2366 C2367 1.414 . S
C2366 C2369 1.499 . S
C2367 H2341 0.950 . S
C2367 C2366 1.414 . S
C2367 C2368 1.374 . S
C2368 H2342 0.950 . S
C2368 C2364 1.385 . S
C2368 C2367 1.374 . S
C2369 C2366 1.499 . S
C2369 C2370 1.373 . S
C2369 C2371 1.389 . S
C2370 H2343 0.950 . S
C2370 C2356 1.377 . S
C2370 C2369 1.373 . S
C2371 C2355 1.377 . S
C2371 C2369 1.389 . S
C2371 C2372 1.524 . S
C2372 C2371 1.524 . S
C2372 C2373 1.397 . S
C2372 C2377 1.363 . S
C2373 H2344 0.950 . S
C2373 C2372 1.397 . S
C2373 C2374 1.334 . S
C2374 H2345 0.950 . S
C2374 C2373 1.334 . S
C2374 C2375 1.287 . S
C2375 C2374 1.287 . S
C2375 C2376 1.524 . S
C2375 H2378 0.999 . S
C2376 H2346 0.950 . S
C2376 C2375 1.524 . S
C2376 C2377 1.415 . S
C2377 H2347 0.950 . S
C2377 C2372 1.363 . S
C2377 C2376 1.415 . S
H2378 C2375 0.999 . S
H2379 C2360 0.913 . S
H2380 C2398 0.951 . S
H2381 C2400 0.951 . S
H2382 C2402 0.950 . S
H2383 C2403 0.950 . S
H2384 C2405 0.950 . S
H2385 C2408 0.950 . S
H2386 C2409 0.950 . S
H2387 C2411 0.950 . S
H2388 C2412 0.950 . S
H2389 C2413 0.951 . S
H2390 C2415 0.951 . S
H2391 C2417 0.950 . S
H2392 C2418 0.950 . S
H2393 C2420 0.950 . S
H2394 C2423 0.950 . S
H2395 C2424 0.950 1_565 S
H2396 C2426 0.950 . S
H2397 C2427 0.950 . S
C2398 H2380 0.951 . S
C2398 C2399 1.366 . S
C2398 C2400 1.388 . S
C2399 C2398 1.366 . S
C2399 C2403 1.385 . S
C2400 H2381 0.951 . S
C2400 C2398 1.388 . S
C2400 C2401 1.366 . S
C2401 C2400 1.366 . S
C2401 C2402 1.414 . S
C2401 C2404 1.499 . S
C2402 H2382 0.950 . S
C2402 C2401 1.414 . S
C2402 C2403 1.374 . S
C2403 H2383 0.950 . S
C2403 C2399 1.385 . S
C2403 C2402 1.374 . S
C2404 C2401 1.499 . S
C2404 C2405 1.373 . S
C2404 C2406 1.389 . S
C2405 H2384 0.950 . S
C2405 C2404 1.373 . S
C2405 C2421 1.377 . S
C2406 C2404 1.389 . S
C2406 C2407 1.524 . S
C2406 C2420 1.377 . S
C2407 C2406 1.524 . S
C2407 C2408 1.397 . S
C2407 C2412 1.363 . S
C2408 H2385 0.950 . S
C2408 C2407 1.397 . S
C2408 C2409 1.334 . S
C2409 H2386 0.950 . S
C2409 C2408 1.334 . S
C2409 C2410 1.287 . S
C2410 C2409 1.287 . S
C2410 C2411 1.524 . S
C2410 H2429 0.913 . S
C2411 H2387 0.950 . S
C2411 C2410 1.524 . S
C2411 C2412 1.415 . S
C2412 H2388 0.950 . S
C2412 C2407 1.363 . S
C2412 C2411 1.415 . S
C2413 H2389 0.951 . S
C2413 C2414 1.366 . S
C2413 C2415 1.388 . S
C2414 C2413 1.366 . S
C2414 C2418 1.385 . S
C2415 H2390 0.951 . S
C2415 C2413 1.388 . S
C2415 C2416 1.366 . S
C2416 C2415 1.366 . S
C2416 C2417 1.414 . S
C2416 C2419 1.499 . S
C2417 H2391 0.950 . S
C2417 C2416 1.414 . S
C2417 C2418 1.374 . S
C2418 H2392 0.950 . S
C2418 C2414 1.385 . S
C2418 C2417 1.374 . S
C2419 C2416 1.499 . S
C2419 C2420 1.373 . S
C2419 C2421 1.389 . S
C2420 H2393 0.950 . S
C2420 C2406 1.377 . S
C2420 C2419 1.373 . S
C2421 C2405 1.377 . S
C2421 C2419 1.389 . S
C2421 C2422 1.524 . S
C2422 C2421 1.524 . S
C2422 C2423 1.397 . S
C2422 C2427 1.363 . S
C2423 H2394 0.950 . S
C2423 C2422 1.397 . S
C2423 C2424 1.334 . S
C2424 H2395 0.950 1_545 S
C2424 C2423 1.334 . S
C2424 C2425 1.287 . S
C2425 C2424 1.287 . S
C2425 C2426 1.524 . S
C2425 H2428 0.999 . S
C2426 H2396 0.950 . S
C2426 C2425 1.524 . S
C2426 C2427 1.415 . S
C2427 H2397 0.950 . S
C2427 C2422 1.363 . S
C2427 C2426 1.415 . S
H2428 C2425 0.999 . S
H2429 C2410 0.913 . S
H2430 C2448 0.951 . S
H2431 C2450 0.951 . S
H2432 C2452 0.950 . S
H2433 C2453 0.950 . S
H2434 C2455 0.950 . S
H2435 C2458 0.950 . S
H2436 C2459 0.950 . S
H2437 C2461 0.950 . S
H2438 C2462 0.950 . S
H2439 C2463 0.951 . S
H2440 C2465 0.951 . S
H2441 C2467 0.950 . S
H2442 C2468 0.950 . S
H2443 C2470 0.950 . S
H2444 C2473 0.950 . S
H2445 C2474 0.950 . S
H2446 C2476 0.950 . S
H2447 C2477 0.950 . S
C2448 H2430 0.951 . S
C2448 C2449 1.366 . S
C2448 C2450 1.388 . S
C2449 C2448 1.366 . S
C2449 C2453 1.385 . S
C2450 H2431 0.951 . S
C2450 C2448 1.388 . S
C2450 C2451 1.366 . S
C2451 C2450 1.366 . S
C2451 C2452 1.414 . S
C2451 C2454 1.499 . S
C2452 H2432 0.950 . S
C2452 C2451 1.414 . S
C2452 C2453 1.374 . S
C2453 H2433 0.950 . S
C2453 C2449 1.385 . S
C2453 C2452 1.374 . S
C2454 C2451 1.499 . S
C2454 C2455 1.373 . S
C2454 C2456 1.389 . S
C2455 H2434 0.950 . S
C2455 C2454 1.373 . S
C2455 C2471 1.377 . S
C2456 C2454 1.389 . S
C2456 C2457 1.524 . S
C2456 C2470 1.377 . S
C2457 C2456 1.524 . S
C2457 C2458 1.397 . S
C2457 C2462 1.363 . S
C2458 H2435 0.950 . S
C2458 C2457 1.397 . S
C2458 C2459 1.334 . S
C2459 H2436 0.950 . S
C2459 C2458 1.334 . S
C2459 C2460 1.287 . S
C2460 C2459 1.287 . S
C2460 C2461 1.524 . S
C2460 H2479 0.913 . S
C2461 H2437 0.950 . S
C2461 C2460 1.524 . S
C2461 C2462 1.415 . S
C2462 H2438 0.950 . S
C2462 C2457 1.363 . S
C2462 C2461 1.415 . S
C2463 H2439 0.951 . S
C2463 C2464 1.366 . S
C2463 C2465 1.388 . S
C2464 C2463 1.366 . S
C2464 C2468 1.385 . S
C2465 H2440 0.951 . S
C2465 C2463 1.388 . S
C2465 C2466 1.366 . S
C2466 C2465 1.366 . S
C2466 C2467 1.414 . S
C2466 C2469 1.499 . S
C2467 H2441 0.950 . S
C2467 C2466 1.414 . S
C2467 C2468 1.374 . S
C2468 H2442 0.950 . S
C2468 C2464 1.385 . S
C2468 C2467 1.374 . S
C2469 C2466 1.499 . S
C2469 C2470 1.373 . S
C2469 C2471 1.389 . S
C2470 H2443 0.950 . S
C2470 C2456 1.377 . S
C2470 C2469 1.373 . S
C2471 C2455 1.377 . S
C2471 C2469 1.389 . S
C2471 C2472 1.524 . S
C2472 C2471 1.524 . S
C2472 C2473 1.397 . S
C2472 C2477 1.363 . S
C2473 H2444 0.950 . S
C2473 C2472 1.397 . S
C2473 C2474 1.334 . S
C2474 H2445 0.950 . S
C2474 C2473 1.334 . S
C2474 C2475 1.287 . S
C2475 C2474 1.287 . S
C2475 C2476 1.524 . S
C2475 H2478 0.999 . S
C2476 H2446 0.950 . S
C2476 C2475 1.524 . S
C2476 C2477 1.415 . S
C2477 H2447 0.950 . S
C2477 C2472 1.363 . S
C2477 C2476 1.415 . S
H2478 C2475 0.999 . S
H2479 C2460 0.913 . S
H2480 C2498 0.951 . S
H2481 C2500 0.951 1_556 S
H2482 C2502 0.950 . S
H2483 C2503 0.950 . S
H2484 C2505 0.950 . S
H2485 C2508 0.950 . S
H2486 C2509 0.950 . S
H2487 C2511 0.950 . S
H2488 C2512 0.950 . S
H2489 C2513 0.951 . S
H2490 C2515 0.951 . S
H2491 C2517 0.950 . S
H2492 C2518 0.950 . S
H2493 C2520 0.950 1_556 S
H2494 C2523 0.950 . S
H2495 C2524 0.950 . S
H2496 C2526 0.950 . S
H2497 C2527 0.950 . S
C2498 H2480 0.951 . S
C2498 C2499 1.366 1_556 S
C2498 C2500 1.384 1_556 S
C2499 C2498 1.366 1_554 S
C2499 C2503 1.387 . S
C2500 H2481 0.951 1_554 S
C2500 C2498 1.384 1_554 S
C2500 C2501 1.370 . S
C2501 C2500 1.370 . S
C2501 C2502 1.414 . S
C2501 C2504 1.499 . S
C2502 H2482 0.950 . S
C2502 C2501 1.414 . S
C2502 C2503 1.374 . S
C2503 H2483 0.950 . S
C2503 C2499 1.387 . S
C2503 C2502 1.374 . S
C2504 C2501 1.499 . S
C2504 C2505 1.373 . S
C2504 C2506 1.389 1_554 S
C2505 H2484 0.950 . S
C2505 C2504 1.373 . S
C2505 C2521 1.377 . S
C2506 C2504 1.389 1_556 S
C2506 C2507 1.524 . S
C2506 C2520 1.377 1_556 S
C2507 C2506 1.524 . S
C2507 C2508 1.397 . S
C2507 C2512 1.363 . S
C2508 H2485 0.950 . S
C2508 C2507 1.397 . S
C2508 C2509 1.334 . S
C2509 H2486 0.950 . S
C2509 C2508 1.334 . S
C2509 C2510 1.287 . S
C2510 C2509 1.287 . S
C2510 C2511 1.524 . S
C2510 H2529 0.913 . S
C2511 H2487 0.950 . S
C2511 C2510 1.524 . S
C2511 C2512 1.415 . S
C2512 H2488 0.950 . S
C2512 C2507 1.363 . S
C2512 C2511 1.415 . S
C2513 H2489 0.951 . S
C2513 C2514 1.366 1_545 S
C2513 C2515 1.388 . S
C2514 C2513 1.366 1_565 S
C2514 C2518 1.385 . S
C2515 H2490 0.951 . S
C2515 C2513 1.388 . S
C2515 C2516 1.366 1_545 S
C2516 C2515 1.366 1_565 S
C2516 C2517 1.414 . S
C2516 C2519 1.499 . S
C2517 H2491 0.950 . S
C2517 C2516 1.414 . S
C2517 C2518 1.374 . S
C2518 H2492 0.950 . S
C2518 C2514 1.385 . S
C2518 C2517 1.374 . S
C2519 C2516 1.499 . S
C2519 C2520 1.373 . S
C2519 C2521 1.389 . S
C2520 H2493 0.950 1_554 S
C2520 C2506 1.377 1_554 S
C2520 C2519 1.373 . S
C2521 C2505 1.377 . S
C2521 C2519 1.389 . S
C2521 C2522 1.524 . S
C2522 C2521 1.524 . S
C2522 C2523 1.397 . S
C2522 C2527 1.363 1_565 S
C2523 H2494 0.950 . S
C2523 C2522 1.397 . S
C2523 C2524 1.334 . S
C2524 H2495 0.950 . S
C2524 C2523 1.334 . S
C2524 C2525 1.287 1_565 S
C2525 C2524 1.287 1_545 S
C2525 C2526 1.524 . S
C2525 H2528 0.999 . S
C2526 H2496 0.950 . S
C2526 C2525 1.524 . S
C2526 C2527 1.415 . S
C2527 H2497 0.950 . S
C2527 C2522 1.363 1_545 S
C2527 C2526 1.415 . S
H2528 C2525 0.999 . S
H2529 C2510 0.913 . S
H2530 C2548 0.951 . S
H2531 C2550 0.951 . S
H2532 C2552 0.950 . S
H2533 C2553 0.950 . S
H2534 C2555 0.950 . S
H2535 C2558 0.950 1_556 S
H2536 C2559 0.950 . S
H2537 C2561 0.950 . S
H2538 C2562 0.950 . S
H2539 C2563 0.951 . S
H2540 C2565 0.951 . S
H2541 C2567 0.950 . S
H2542 C2568 0.950 . S
H2543 C2570 0.950 . S
H2544 C2573 0.950 . S
H2545 C2574 0.950 1_554 S
H2546 C2576 0.950 . S
H2547 C2577 0.950 . S
C2548 H2530 0.951 . S
C2548 C2549 1.407 . S
C2548 C2550 1.388 . S
C2549 C2548 1.407 . S
C2549 C2553 1.352 1_554 S
C2550 H2531 0.951 . S
C2550 C2548 1.388 . S
C2550 C2551 1.366 . S
C2551 C2550 1.366 . S
C2551 C2552 1.414 1_554 S
C2551 C2554 1.499 . S
C2552 H2532 0.950 . S
C2552 C2551 1.414 1_556 S
C2552 C2553 1.374 . S
C2553 H2533 0.950 . S
C2553 C2549 1.352 1_556 S
C2553 C2552 1.374 . S
C2554 C2551 1.499 . S
C2554 C2555 1.373 1_554 S
C2554 C2556 1.389 . S
C2555 H2534 0.950 . S
C2555 C2554 1.373 1_556 S
C2555 C2571 1.377 . S
C2556 C2554 1.389 . S
C2556 C2557 1.524 . S
C2556 C2570 1.377 . S
C2557 C2556 1.524 . S
C2557 C2558 1.397 . S
C2557 C2562 1.363 . S
C2558 H2535 0.950 1_554 S
C2558 C2557 1.397 . S
C2558 C2559 1.334 . S
C2559 H2536 0.950 . S
C2559 C2558 1.334 . S
C2559 C2560 1.287 . S
C2560 C2559 1.287 . S
C2560 C2561 1.524 . S
C2560 H2579 0.913 . S
C2561 H2537 0.950 . S
C2561 C2560 1.524 . S
C2561 C2562 1.415 . S
C2562 H2538 0.950 . S
C2562 C2557 1.363 . S
C2562 C2561 1.415 . S
C2563 H2539 0.951 . S
C2563 C2564 1.366 1_556 S
C2563 C2565 1.388 . S
C2564 C2563 1.366 1_554 S
C2564 C2568 1.385 . S
C2565 H2540 0.951 . S
C2565 C2563 1.388 . S
C2565 C2566 1.366 1_556 S
C2566 C2565 1.366 1_554 S
C2566 C2567 1.414 . S
C2566 C2569 1.499 . S
C2567 H2541 0.950 . S
C2567 C2566 1.414 . S
C2567 C2568 1.374 . S
C2568 H2542 0.950 . S
C2568 C2564 1.385 . S
C2568 C2567 1.374 . S
C2569 C2566 1.499 . S
C2569 C2570 1.373 . S
C2569 C2571 1.389 1_554 S
C2570 H2543 0.950 . S
C2570 C2556 1.377 . S
C2570 C2569 1.373 . S
C2571 C2555 1.377 . S
C2571 C2569 1.389 1_556 S
C2571 C2572 1.524 . S
C2572 C2571 1.524 . S
C2572 C2573 1.397 1_556 S
C2572 C2577 1.363 . S
C2573 H2544 0.950 . S
C2573 C2572 1.397 1_554 S
C2573 C2574 1.334 1_554 S
C2574 H2545 0.950 1_556 S
C2574 C2573 1.334 1_556 S
C2574 C2575 1.287 . S
C2575 C2574 1.287 . S
C2575 C2576 1.524 . S
C2575 H2578 0.999 . S
C2576 H2546 0.950 . S
C2576 C2575 1.524 . S
C2576 C2577 1.415 . S
C2577 H2547 0.950 . S
C2577 C2572 1.363 . S
C2577 C2576 1.415 . S
H2578 C2575 0.999 . S
H2579 C2560 0.913 . S
H2580 C2598 0.951 . S
H2581 C2600 0.951 . S
H2582 C2602 0.950 . S
H2583 C2603 0.950 . S
H2584 C2605 0.950 . S
H2585 C2608 0.950 . S
H2586 C2609 0.950 . S
H2587 C2611 0.950 . S
H2588 C2612 0.950 . S
H2589 C2613 0.951 . S
H2590 C2615 0.951 . S
H2591 C2617 0.950 . S
H2592 C2618 0.950 . S
H2593 C2620 0.950 . S
H2594 C2623 0.950 . S
H2595 C2624 0.950 . S
H2596 C2626 0.950 . S
H2597 C2627 0.950 . S
C2598 H2580 0.951 . S
C2598 C2599 1.366 . S
C2598 C2600 1.388 . S
C2599 C2598 1.366 . S
C2599 C2603 1.385 . S
C2600 H2581 0.951 . S
C2600 C2598 1.388 . S
C2600 C2601 1.366 . S
C2601 C2600 1.366 . S
C2601 C2602 1.414 . S
C2601 C2604 1.499 . S
C2602 H2582 0.950 . S
C2602 C2601 1.414 . S
C2602 C2603 1.374 . S
C2603 H2583 0.950 . S
C2603 C2599 1.385 . S
C2603 C2602 1.374 . S
C2604 C2601 1.499 . S
C2604 C2605 1.373 . S
C2604 C2606 1.389 . S
C2605 H2584 0.950 . S
C2605 C2604 1.373 . S
C2605 C2621 1.377 . S
C2606 C2604 1.389 . S
C2606 C2607 1.524 . S
C2606 C2620 1.377 . S
C2607 C2606 1.524 . S
C2607 C2608 1.397 . S
C2607 C2612 1.363 . S
C2608 H2585 0.950 . S
C2608 C2607 1.397 . S
C2608 C2609 1.334 . S
C2609 H2586 0.950 . S
C2609 C2608 1.334 . S
C2609 C2610 1.287 . S
C2610 C2609 1.287 . S
C2610 C2611 1.524 . S
C2610 H2629 0.913 . S
C2611 H2587 0.950 . S
C2611 C2610 1.524 . S
C2611 C2612 1.415 . S
C2612 H2588 0.950 . S
C2612 C2607 1.363 . S
C2612 C2611 1.415 . S
C2613 H2589 0.951 . S
C2613 C2614 1.366 . S
C2613 C2615 1.388 . S
C2614 C2613 1.366 . S
C2614 C2618 1.385 . S
C2615 H2590 0.951 . S
C2615 C2613 1.388 . S
C2615 C2616 1.366 . S
C2616 C2615 1.366 . S
C2616 C2617 1.414 . S
C2616 C2619 1.499 . S
C2617 H2591 0.950 . S
C2617 C2616 1.414 . S
C2617 C2618 1.374 . S
C2618 H2592 0.950 . S
C2618 C2614 1.385 . S
C2618 C2617 1.374 . S
C2619 C2616 1.499 . S
C2619 C2620 1.373 . S
C2619 C2621 1.389 . S
C2620 H2593 0.950 . S
C2620 C2606 1.377 . S
C2620 C2619 1.373 . S
C2621 C2605 1.377 . S
C2621 C2619 1.389 . S
C2621 C2622 1.524 . S
C2622 C2621 1.524 . S
C2622 C2623 1.397 . S
C2622 C2627 1.363 . S
C2623 H2594 0.950 . S
C2623 C2622 1.397 . S
C2623 C2624 1.334 . S
C2624 H2595 0.950 . S
C2624 C2623 1.334 . S
C2624 C2625 1.287 . S
C2625 C2624 1.287 . S
C2625 C2626 1.524 . S
C2625 H2628 0.999 . S
C2626 H2596 0.950 . S
C2626 C2625 1.524 . S
C2626 C2627 1.415 . S
C2627 H2597 0.950 . S
C2627 C2622 1.363 . S
C2627 C2626 1.415 . S
H2628 C2625 0.999 . S
H2629 C2610 0.913 . S
H2630 C2648 0.951 . S
H2631 C2650 0.951 . S
H2632 C2652 0.950 . S
H2633 C2653 0.950 . S
H2634 C2655 0.950 . S
H2635 C2658 0.950 . S
H2636 C2659 0.950 . S
H2637 C2661 0.950 . S
H2638 C2662 0.950 . S
H2639 C2663 0.951 . S
H2640 C2665 0.951 . S
H2641 C2667 0.950 . S
H2642 C2668 0.950 . S
H2643 C2670 0.950 . S
H2644 C2673 0.950 . S
H2645 C2674 0.950 . S
H2646 C2676 0.950 . S
H2647 C2677 0.950 . S
C2648 H2630 0.951 . S
C2648 C2649 1.366 . S
C2648 C2650 1.388 . S
C2649 C2648 1.366 . S
C2649 C2653 1.385 . S
C2650 H2631 0.951 . S
C2650 C2648 1.388 . S
C2650 C2651 1.366 . S
C2651 C2650 1.366 . S
C2651 C2652 1.414 . S
C2651 C2654 1.499 . S
C2652 H2632 0.950 . S
C2652 C2651 1.414 . S
C2652 C2653 1.374 . S
C2653 H2633 0.950 . S
C2653 C2649 1.385 . S
C2653 C2652 1.374 . S
C2654 C2651 1.499 . S
C2654 C2655 1.373 . S
C2654 C2656 1.389 . S
C2655 H2634 0.950 . S
C2655 C2654 1.373 . S
C2655 C2671 1.377 . S
C2656 C2654 1.389 . S
C2656 C2657 1.524 . S
C2656 C2670 1.377 . S
C2657 C2656 1.524 . S
C2657 C2658 1.397 . S
C2657 C2662 1.363 . S
C2658 H2635 0.950 . S
C2658 C2657 1.397 . S
C2658 C2659 1.334 . S
C2659 H2636 0.950 . S
C2659 C2658 1.334 . S
C2659 C2660 1.287 . S
C2660 C2659 1.287 . S
C2660 C2661 1.524 . S
C2660 H2679 0.913 . S
C2661 H2637 0.950 . S
C2661 C2660 1.524 . S
C2661 C2662 1.415 . S
C2662 H2638 0.950 . S
C2662 C2657 1.363 . S
C2662 C2661 1.415 . S
C2663 H2639 0.951 . S
C2663 C2664 1.366 . S
C2663 C2665 1.388 . S
C2664 C2663 1.366 . S
C2664 C2668 1.385 . S
C2665 H2640 0.951 . S
C2665 C2663 1.388 . S
C2665 C2666 1.366 . S
C2666 C2665 1.366 . S
C2666 C2667 1.414 . S
C2666 C2669 1.499 . S
C2667 H2641 0.950 . S
C2667 C2666 1.414 . S
C2667 C2668 1.374 . S
C2668 H2642 0.950 . S
C2668 C2664 1.385 . S
C2668 C2667 1.374 . S
C2669 C2666 1.499 . S
C2669 C2670 1.373 . S
C2669 C2671 1.389 . S
C2670 H2643 0.950 . S
C2670 C2656 1.377 . S
C2670 C2669 1.373 . S
C2671 C2655 1.377 . S
C2671 C2669 1.389 . S
C2671 C2672 1.524 . S
C2672 C2671 1.524 . S
C2672 C2673 1.397 . S
C2672 C2677 1.363 . S
C2673 H2644 0.950 . S
C2673 C2672 1.397 . S
C2673 C2674 1.334 . S
C2674 H2645 0.950 . S
C2674 C2673 1.334 . S
C2674 C2675 1.287 . S
C2675 C2674 1.287 . S
C2675 C2676 1.524 . S
C2675 H2678 0.999 . S
C2676 H2646 0.950 . S
C2676 C2675 1.524 . S
C2676 C2677 1.415 . S
C2677 H2647 0.950 . S
C2677 C2672 1.363 . S
C2677 C2676 1.415 . S
H2678 C2675 0.999 . S
H2679 C2660 0.913 . S
H2680 C2698 0.951 . S
H2681 C2700 0.951 . S
H2682 C2702 0.950 . S
H2683 C2703 0.950 . S
H2684 C2705 0.950 . S
H2685 C2708 0.950 . S
H2686 C2709 0.950 . S
H2687 C2711 0.950 . S
H2688 C2712 0.950 . S
H2689 C2713 0.951 . S
H2690 C2715 0.951 . S
H2691 C2717 0.950 . S
H2692 C2718 0.950 . S
H2693 C2720 0.950 . S
H2694 C2723 0.950 . S
H2695 C2724 0.950 . S
H2696 C2726 0.950 . S
H2697 C2727 0.950 . S
C2698 H2680 0.951 . S
C2698 C2699 1.366 . S
C2698 C2700 1.388 . S
C2699 C2698 1.366 . S
C2699 C2703 1.385 . S
C2700 H2681 0.951 . S
C2700 C2698 1.388 . S
C2700 C2701 1.366 . S
C2701 C2700 1.366 . S
C2701 C2702 1.414 . S
C2701 C2704 1.499 . S
C2702 H2682 0.950 . S
C2702 C2701 1.414 . S
C2702 C2703 1.374 . S
C2703 H2683 0.950 . S
C2703 C2699 1.385 . S
C2703 C2702 1.374 . S
C2704 C2701 1.499 . S
C2704 C2705 1.373 . S
C2704 C2706 1.389 . S
C2705 H2684 0.950 . S
C2705 C2704 1.373 . S
C2705 C2721 1.377 . S
C2706 C2704 1.389 . S
C2706 C2707 1.524 . S
C2706 C2720 1.377 . S
C2707 C2706 1.524 . S
C2707 C2708 1.397 . S
C2707 C2712 1.363 . S
C2708 H2685 0.950 . S
C2708 C2707 1.397 . S
C2708 C2709 1.334 . S
C2709 H2686 0.950 . S
C2709 C2708 1.334 . S
C2709 C2710 1.287 . S
C2710 C2709 1.287 . S
C2710 C2711 1.524 . S
C2710 H2729 0.913 . S
C2711 H2687 0.950 . S
C2711 C2710 1.524 . S
C2711 C2712 1.415 . S
C2712 H2688 0.950 . S
C2712 C2707 1.363 . S
C2712 C2711 1.415 . S
C2713 H2689 0.951 . S
C2713 C2714 1.366 . S
C2713 C2715 1.388 . S
C2714 C2713 1.366 . S
C2714 C2718 1.385 . S
C2715 H2690 0.951 . S
C2715 C2713 1.388 . S
C2715 C2716 1.366 . S
C2716 C2715 1.366 . S
C2716 C2717 1.414 . S
C2716 C2719 1.499 . S
C2717 H2691 0.950 . S
C2717 C2716 1.414 . S
C2717 C2718 1.374 . S
C2718 H2692 0.950 . S
C2718 C2714 1.385 . S
C2718 C2717 1.374 . S
C2719 C2716 1.499 . S
C2719 C2720 1.373 . S
C2719 C2721 1.389 . S
C2720 H2693 0.950 . S
C2720 C2706 1.377 . S
C2720 C2719 1.373 . S
C2721 C2705 1.377 . S
C2721 C2719 1.389 . S
C2721 C2722 1.524 . S
C2722 C2721 1.524 . S
C2722 C2723 1.397 . S
C2722 C2727 1.363 . S
C2723 H2694 0.950 . S
C2723 C2722 1.397 . S
C2723 C2724 1.334 . S
C2724 H2695 0.950 . S
C2724 C2723 1.334 . S
C2724 C2725 1.287 . S
C2725 C2724 1.287 . S
C2725 C2726 1.524 . S
C2725 H2728 0.999 . S
C2726 H2696 0.950 . S
C2726 C2725 1.524 . S
C2726 C2727 1.415 . S
C2727 H2697 0.950 . S
C2727 C2722 1.363 . S
C2727 C2726 1.415 . S
H2728 C2725 0.999 . S
H2729 C2710 0.913 . S
H2730 C2748 0.951 . S
H2731 C2750 0.951 . S
H2732 C2752 0.950 . S
H2733 C2753 0.950 . S
H2734 C2755 0.950 . S
H2735 C2758 0.950 . S
H2736 C2759 0.950 . S
H2737 C2761 0.950 . S
H2738 C2762 0.950 . S
H2739 C2763 0.951 . S
H2740 C2765 0.951 . S
H2741 C2767 0.950 . S
H2742 C2768 0.950 . S
H2743 C2770 0.950 . S
H2744 C2773 0.950 . S
H2745 C2774 0.950 . S
H2746 C2776 0.950 . S
H2747 C2777 0.950 . S
C2748 H2730 0.951 . S
C2748 C2749 1.366 . S
C2748 C2750 1.388 . S
C2749 C2748 1.366 . S
C2749 C2753 1.385 . S
C2750 H2731 0.951 . S
C2750 C2748 1.388 . S
C2750 C2751 1.366 . S
C2751 C2750 1.366 . S
C2751 C2752 1.414 . S
C2751 C2754 1.499 . S
C2752 H2732 0.950 . S
C2752 C2751 1.414 . S
C2752 C2753 1.374 . S
C2753 H2733 0.950 . S
C2753 C2749 1.385 . S
C2753 C2752 1.374 . S
C2754 C2751 1.499 . S
C2754 C2755 1.373 . S
C2754 C2756 1.389 . S
C2755 H2734 0.950 . S
C2755 C2754 1.373 . S
C2755 C2771 1.377 . S
C2756 C2754 1.389 . S
C2756 C2757 1.524 . S
C2756 C2770 1.377 . S
C2757 C2756 1.524 . S
C2757 C2758 1.397 . S
C2757 C2762 1.363 . S
C2758 H2735 0.950 . S
C2758 C2757 1.397 . S
C2758 C2759 1.334 . S
C2759 H2736 0.950 . S
C2759 C2758 1.334 . S
C2759 C2760 1.287 . S
C2760 C2759 1.287 . S
C2760 C2761 1.524 . S
C2760 H2779 0.913 . S
C2761 H2737 0.950 . S
C2761 C2760 1.524 . S
C2761 C2762 1.415 . S
C2762 H2738 0.950 . S
C2762 C2757 1.363 . S
C2762 C2761 1.415 . S
C2763 H2739 0.951 . S
C2763 C2764 1.366 . S
C2763 C2765 1.388 . S
C2764 C2763 1.366 . S
C2764 C2768 1.385 . S
C2765 H2740 0.951 . S
C2765 C2763 1.388 . S
C2765 C2766 1.366 . S
C2766 C2765 1.366 . S
C2766 C2767 1.414 . S
C2766 C2769 1.499 . S
C2767 H2741 0.950 . S
C2767 C2766 1.414 . S
C2767 C2768 1.374 . S
C2768 H2742 0.950 . S
C2768 C2764 1.385 . S
C2768 C2767 1.374 . S
C2769 C2766 1.499 . S
C2769 C2770 1.373 . S
C2769 C2771 1.389 . S
C2770 H2743 0.950 . S
C2770 C2756 1.377 . S
C2770 C2769 1.373 . S
C2771 C2755 1.377 . S
C2771 C2769 1.389 . S
C2771 C2772 1.524 . S
C2772 C2771 1.524 . S
C2772 C2773 1.397 . S
C2772 C2777 1.363 . S
C2773 H2744 0.950 . S
C2773 C2772 1.397 . S
C2773 C2774 1.334 . S
C2774 H2745 0.950 . S
C2774 C2773 1.334 . S
C2774 C2775 1.287 . S
C2775 C2774 1.287 . S
C2775 C2776 1.524 . S
C2775 H2778 0.999 . S
C2776 H2746 0.950 . S
C2776 C2775 1.524 . S
C2776 C2777 1.415 . S
C2777 H2747 0.950 . S
C2777 C2772 1.363 . S
C2777 C2776 1.415 . S
H2778 C2775 0.999 . S
H2779 C2760 0.913 . S
H2780 C2798 0.951 . S
H2781 C2800 0.951 . S
H2782 C2802 0.950 . S
H2783 C2803 0.950 . S
H2784 C2805 0.950 . S
H2785 C2808 0.950 . S
H2786 C2809 0.950 . S
H2787 C2811 0.950 . S
H2788 C2812 0.950 . S
H2789 C2813 0.951 . S
H2790 C2815 0.951 . S
H2791 C2817 0.950 . S
H2792 C2818 0.950 . S
H2793 C2820 0.950 . S
H2794 C2823 0.950 . S
H2795 C2824 0.950 . S
H2796 C2826 0.950 . S
H2797 C2827 0.950 . S
C2798 H2780 0.951 . S
C2798 C2799 1.366 . S
C2798 C2800 1.388 . S
C2799 C2798 1.366 . S
C2799 C2803 1.385 . S
C2800 H2781 0.951 . S
C2800 C2798 1.388 . S
C2800 C2801 1.366 . S
C2801 C2800 1.366 . S
C2801 C2802 1.414 . S
C2801 C2804 1.499 . S
C2802 H2782 0.950 . S
C2802 C2801 1.414 . S
C2802 C2803 1.374 . S
C2803 H2783 0.950 . S
C2803 C2799 1.385 . S
C2803 C2802 1.374 . S
C2804 C2801 1.499 . S
C2804 C2805 1.373 . S
C2804 C2806 1.389 . S
C2805 H2784 0.950 . S
C2805 C2804 1.373 . S
C2805 C2821 1.377 . S
C2806 C2804 1.389 . S
C2806 C2807 1.524 . S
C2806 C2820 1.377 . S
C2807 C2806 1.524 . S
C2807 C2808 1.397 . S
C2807 C2812 1.363 . S
C2808 H2785 0.950 . S
C2808 C2807 1.397 . S
C2808 C2809 1.334 . S
C2809 H2786 0.950 . S
C2809 C2808 1.334 . S
C2809 C2810 1.287 . S
C2810 C2809 1.287 . S
C2810 C2811 1.524 . S
C2810 H2829 0.913 . S
C2811 H2787 0.950 . S
C2811 C2810 1.524 . S
C2811 C2812 1.415 . S
C2812 H2788 0.950 . S
C2812 C2807 1.363 . S
C2812 C2811 1.415 . S
C2813 H2789 0.951 . S
C2813 C2814 1.366 . S
C2813 C2815 1.388 . S
C2814 C2813 1.366 . S
C2814 C2818 1.385 . S
C2815 H2790 0.951 . S
C2815 C2813 1.388 . S
C2815 C2816 1.366 . S
C2816 C2815 1.366 . S
C2816 C2817 1.414 . S
C2816 C2819 1.499 . S
C2817 H2791 0.950 . S
C2817 C2816 1.414 . S
C2817 C2818 1.374 . S
C2818 H2792 0.950 . S
C2818 C2814 1.385 . S
C2818 C2817 1.374 . S
C2819 C2816 1.499 . S
C2819 C2820 1.373 . S
C2819 C2821 1.389 . S
C2820 H2793 0.950 . S
C2820 C2806 1.377 . S
C2820 C2819 1.373 . S
C2821 C2805 1.377 . S
C2821 C2819 1.389 . S
C2821 C2822 1.524 . S
C2822 C2821 1.524 . S
C2822 C2823 1.397 . S
C2822 C2827 1.363 . S
C2823 H2794 0.950 . S
C2823 C2822 1.397 . S
C2823 C2824 1.334 . S
C2824 H2795 0.950 . S
C2824 C2823 1.334 . S
C2824 C2825 1.287 . S
C2825 C2824 1.287 . S
C2825 C2826 1.524 . S
C2825 H2828 0.999 . S
C2826 H2796 0.950 . S
C2826 C2825 1.524 . S
C2826 C2827 1.415 . S
C2827 H2797 0.950 . S
C2827 C2822 1.363 . S
C2827 C2826 1.415 . S
H2828 C2825 0.999 . S
H2829 C2810 0.913 . S
H2830 C2848 0.951 . S
H2831 C2850 0.951 . S
H2832 C2852 0.950 . S
H2833 C2853 0.950 . S
H2834 C2855 0.950 . S
H2835 C2858 0.950 . S
H2836 C2859 0.950 . S
H2837 C2861 0.950 . S
H2838 C2862 0.950 . S
H2839 C2863 0.951 . S
H2840 C2865 0.951 . S
H2841 C2867 0.950 . S
H2842 C2868 0.950 . S
H2843 C2870 0.950 . S
H2844 C2873 0.950 . S
H2845 C2874 0.950 . S
H2846 C2876 0.950 . S
H2847 C2877 0.950 . S
C2848 H2830 0.951 . S
C2848 C2849 1.366 . S
C2848 C2850 1.388 . S
C2849 C2848 1.366 . S
C2849 C2853 1.385 . S
C2850 H2831 0.951 . S
C2850 C2848 1.388 . S
C2850 C2851 1.366 . S
C2851 C2850 1.366 . S
C2851 C2852 1.414 . S
C2851 C2854 1.499 . S
C2852 H2832 0.950 . S
C2852 C2851 1.414 . S
C2852 C2853 1.374 . S
C2853 H2833 0.950 . S
C2853 C2849 1.385 . S
C2853 C2852 1.374 . S
C2854 C2851 1.499 . S
C2854 C2855 1.373 . S
C2854 C2856 1.389 . S
C2855 H2834 0.950 . S
C2855 C2854 1.373 . S
C2855 C2871 1.377 . S
C2856 C2854 1.389 . S
C2856 C2857 1.524 . S
C2856 C2870 1.377 . S
C2857 C2856 1.524 . S
C2857 C2858 1.397 . S
C2857 C2862 1.363 . S
C2858 H2835 0.950 . S
C2858 C2857 1.397 . S
C2858 C2859 1.334 . S
C2859 H2836 0.950 . S
C2859 C2858 1.334 . S
C2859 C2860 1.287 . S
C2860 C2859 1.287 . S
C2860 C2861 1.524 . S
C2860 H2879 0.913 . S
C2861 H2837 0.950 . S
C2861 C2860 1.524 . S
C2861 C2862 1.415 . S
C2862 H2838 0.950 . S
C2862 C2857 1.363 . S
C2862 C2861 1.415 . S
C2863 H2839 0.951 . S
C2863 C2864 1.366 . S
C2863 C2865 1.388 . S
C2864 C2863 1.366 . S
C2864 C2868 1.385 . S
C2865 H2840 0.951 . S
C2865 C2863 1.388 . S
C2865 C2866 1.366 . S
C2866 C2865 1.366 . S
C2866 C2867 1.414 . S
C2866 C2869 1.499 . S
C2867 H2841 0.950 . S
C2867 C2866 1.414 . S
C2867 C2868 1.374 . S
C2868 H2842 0.950 . S
C2868 C2864 1.385 . S
C2868 C2867 1.374 . S
C2869 C2866 1.499 . S
C2869 C2870 1.373 . S
C2869 C2871 1.389 . S
C2870 H2843 0.950 . S
C2870 C2856 1.377 . S
C2870 C2869 1.373 . S
C2871 C2855 1.377 . S
C2871 C2869 1.389 . S
C2871 C2872 1.524 . S
C2872 C2871 1.524 . S
C2872 C2873 1.397 . S
C2872 C2877 1.363 . S
C2873 H2844 0.950 . S
C2873 C2872 1.397 . S
C2873 C2874 1.334 . S
C2874 H2845 0.950 . S
C2874 C2873 1.334 . S
C2874 C2875 1.287 . S
C2875 C2874 1.287 . S
C2875 C2876 1.524 . S
C2875 H2878 0.999 . S
C2876 H2846 0.950 . S
C2876 C2875 1.524 . S
C2876 C2877 1.415 . S
C2877 H2847 0.950 . S
C2877 C2872 1.363 . S
C2877 C2876 1.415 . S
H2878 C2875 0.999 . S
H2879 C2860 0.913 . S
H2880 C2898 0.951 . S
H2881 C2900 0.951 . S
H2882 C2902 0.950 . S
H2883 C2903 0.950 . S
H2884 C2905 0.950 . S
H2885 C2908 0.950 . S
H2886 C2909 0.950 . S
H2887 C2911 0.950 . S
H2888 C2912 0.950 . S
H2889 C2913 0.951 . S
H2890 C2915 0.951 . S
H2891 C2917 0.950 . S
H2892 C2918 0.950 . S
H2893 C2920 0.950 . S
H2894 C2923 0.950 1_455 S
H2895 C2924 0.950 . S
H2896 C2926 0.950 . S
H2897 C2927 0.950 . S
C2898 H2880 0.951 . S
C2898 C2899 1.366 . S
C2898 C2900 1.388 . S
C2899 C2898 1.366 . S
C2899 C2903 1.385 . S
C2900 H2881 0.951 . S
C2900 C2898 1.388 . S
C2900 C2901 1.366 . S
C2901 C2900 1.366 . S
C2901 C2902 1.414 . S
C2901 C2904 1.499 . S
C2902 H2882 0.950 . S
C2902 C2901 1.414 . S
C2902 C2903 1.374 . S
C2903 H2883 0.950 . S
C2903 C2899 1.385 . S
C2903 C2902 1.374 . S
C2904 C2901 1.499 . S
C2904 C2905 1.373 . S
C2904 C2906 1.389 . S
C2905 H2884 0.950 . S
C2905 C2904 1.373 . S
C2905 C2921 1.377 . S
C2906 C2904 1.389 . S
C2906 C2907 1.524 . S
C2906 C2920 1.377 . S
C2907 C2906 1.524 . S
C2907 C2908 1.397 . S
C2907 C2912 1.363 . S
C2908 H2885 0.950 . S
C2908 C2907 1.397 . S
C2908 C2909 1.334 . S
C2909 H2886 0.950 . S
C2909 C2908 1.334 . S
C2909 C2910 1.287 . S
C2910 C2909 1.287 . S
C2910 C2911 1.524 . S
C2910 H2929 0.913 . S
C2911 H2887 0.950 . S
C2911 C2910 1.524 . S
C2911 C2912 1.415 . S
C2912 H2888 0.950 . S
C2912 C2907 1.363 . S
C2912 C2911 1.415 . S
C2913 H2889 0.951 . S
C2913 C2914 1.366 . S
C2913 C2915 1.388 . S
C2914 C2913 1.366 . S
C2914 C2918 1.385 . S
C2915 H2890 0.951 . S
C2915 C2913 1.388 . S
C2915 C2916 1.366 . S
C2916 C2915 1.366 . S
C2916 C2917 1.414 . S
C2916 C2919 1.499 . S
C2917 H2891 0.950 . S
C2917 C2916 1.414 . S
C2917 C2918 1.374 . S
C2918 H2892 0.950 . S
C2918 C2914 1.385 . S
C2918 C2917 1.374 . S
C2919 C2916 1.499 . S
C2919 C2920 1.373 . S
C2919 C2921 1.389 . S
C2920 H2893 0.950 . S
C2920 C2906 1.377 . S
C2920 C2919 1.373 . S
C2921 C2905 1.377 . S
C2921 C2919 1.389 . S
C2921 C2922 1.524 . S
C2922 C2921 1.524 . S
C2922 C2923 1.397 1_455 S
C2922 C2927 1.363 . S
C2923 H2894 0.950 1_655 S
C2923 C2922 1.397 1_655 S
C2923 C2924 1.334 . S
C2924 H2895 0.950 . S
C2924 C2923 1.334 . S
C2924 C2925 1.287 . S
C2925 C2924 1.287 . S
C2925 C2926 1.524 . S
C2925 H2928 0.999 . S
C2926 H2896 0.950 . S
C2926 C2925 1.524 . S
C2926 C2927 1.415 1_655 S
C2927 H2897 0.950 . S
C2927 C2922 1.363 . S
C2927 C2926 1.415 1_455 S
H2928 C2925 0.999 . S
H2929 C2910 0.913 . S
H2930 C2948 0.951 . S
H2931 C2950 0.951 . S
H2932 C2952 0.950 . S
H2933 C2953 0.950 . S
H2934 C2955 0.950 . S
H2935 C2958 0.950 . S
H2936 C2959 0.950 . S
H2937 C2961 0.950 . S
H2938 C2962 0.950 . S
H2939 C2963 0.951 . S
H2940 C2965 0.951 . S
H2941 C2967 0.950 . S
H2942 C2968 0.950 . S
H2943 C2970 0.950 . S
H2944 C2973 0.950 . S
H2945 C2974 0.950 . S
H2946 C2976 0.950 . S
H2947 C2977 0.950 . S
C2948 H2930 0.951 . S
C2948 C2949 1.366 . S
C2948 C2950 1.388 . S
C2949 C2948 1.366 . S
C2949 C2953 1.385 . S
C2950 H2931 0.951 . S
C2950 C2948 1.388 . S
C2950 C2951 1.366 . S
C2951 C2950 1.366 . S
C2951 C2952 1.414 . S
C2951 C2954 1.499 . S
C2952 H2932 0.950 . S
C2952 C2951 1.414 . S
C2952 C2953 1.374 . S
C2953 H2933 0.950 . S
C2953 C2949 1.385 . S
C2953 C2952 1.374 . S
C2954 C2951 1.499 . S
C2954 C2955 1.373 . S
C2954 C2956 1.389 . S
C2955 H2934 0.950 . S
C2955 C2954 1.373 . S
C2955 C2971 1.377 . S
C2956 C2954 1.389 . S
C2956 C2957 1.524 . S
C2956 C2970 1.377 . S
C2957 C2956 1.524 . S
C2957 C2958 1.397 . S
C2957 C2962 1.363 . S
C2958 H2935 0.950 . S
C2958 C2957 1.397 . S
C2958 C2959 1.334 . S
C2959 H2936 0.950 . S
C2959 C2958 1.334 . S
C2959 C2960 1.287 . S
C2960 C2959 1.287 . S
C2960 C2961 1.524 . S
C2960 H2979 0.913 . S
C2961 H2937 0.950 . S
C2961 C2960 1.524 . S
C2961 C2962 1.415 . S
C2962 H2938 0.950 . S
C2962 C2957 1.363 . S
C2962 C2961 1.415 . S
C2963 H2939 0.951 . S
C2963 C2964 1.366 . S
C2963 C2965 1.388 . S
C2964 C2963 1.366 . S
C2964 C2968 1.385 . S
C2965 H2940 0.951 . S
C2965 C2963 1.388 . S
C2965 C2966 1.366 . S
C2966 C2965 1.366 . S
C2966 C2967 1.414 . S
C2966 C2969 1.499 . S
C2967 H2941 0.950 . S
C2967 C2966 1.414 . S
C2967 C2968 1.374 . S
C2968 H2942 0.950 . S
C2968 C2964 1.385 . S
C2968 C2967 1.374 . S
C2969 C2966 1.499 . S
C2969 C2970 1.373 . S
C2969 C2971 1.389 . S
C2970 H2943 0.950 . S
C2970 C2956 1.377 . S
C2970 C2969 1.373 . S
C2971 C2955 1.377 . S
C2971 C2969 1.389 . S
C2971 C2972 1.524 . S
C2972 C2971 1.524 . S
C2972 C2973 1.397 . S
C2972 C2977 1.363 . S
C2973 H2944 0.950 . S
C2973 C2972 1.397 . S
C2973 C2974 1.334 . S
C2974 H2945 0.950 . S
C2974 C2973 1.334 . S
C2974 C2975 1.287 . S
C2975 C2974 1.287 . S
C2975 C2976 1.524 . S
C2975 H2978 0.999 . S
C2976 H2946 0.950 . S
C2976 C2975 1.524 . S
C2976 C2977 1.415 . S
C2977 H2947 0.950 . S
C2977 C2972 1.363 . S
C2977 C2976 1.415 . S
H2978 C2975 0.999 . S
H2979 C2960 0.913 . S
H2980 C2998 0.951 . S
H2981 C3000 0.951 . S
H2982 C3002 0.950 . S
H2983 C3003 0.950 . S
H2984 C3005 0.950 . S
H2985 C3008 0.950 . S
H2986 C3009 0.950 . S
H2987 C3011 0.950 . S
H2988 C3012 0.950 . S
H2989 C3013 0.951 . S
H2990 C3015 0.951 . S
H2991 C3017 0.950 . S
H2992 C3018 0.950 . S
H2993 C3020 0.950 . S
H2994 C3023 0.950 . S
H2995 C3024 0.950 . S
H2996 C3026 0.950 . S
H2997 C3027 0.950 . S
C2998 H2980 0.951 . S
C2998 C2999 1.366 . S
C2998 C3000 1.388 . S
C2999 C2998 1.366 . S
C2999 C3003 1.385 . S
C3000 H2981 0.951 . S
C3000 C2998 1.388 . S
C3000 C3001 1.366 . S
C3001 C3000 1.366 . S
C3001 C3002 1.414 . S
C3001 C3004 1.499 . S
C3002 H2982 0.950 . S
C3002 C3001 1.414 . S
C3002 C3003 1.374 . S
C3003 H2983 0.950 . S
C3003 C2999 1.385 . S
C3003 C3002 1.374 . S
C3004 C3001 1.499 . S
C3004 C3005 1.373 . S
C3004 C3006 1.389 . S
C3005 H2984 0.950 . S
C3005 C3004 1.373 . S
C3005 C3021 1.377 . S
C3006 C3004 1.389 . S
C3006 C3007 1.524 . S
C3006 C3020 1.377 . S
C3007 C3006 1.524 . S
C3007 C3008 1.397 . S
C3007 C3012 1.363 . S
C3008 H2985 0.950 . S
C3008 C3007 1.397 . S
C3008 C3009 1.334 . S
C3009 H2986 0.950 . S
C3009 C3008 1.334 . S
C3009 C3010 1.287 . S
C3010 C3009 1.287 . S
C3010 C3011 1.524 . S
C3010 H3029 0.913 . S
C3011 H2987 0.950 . S
C3011 C3010 1.524 . S
C3011 C3012 1.415 . S
C3012 H2988 0.950 . S
C3012 C3007 1.363 . S
C3012 C3011 1.415 . S
C3013 H2989 0.951 . S
C3013 C3014 1.366 . S
C3013 C3015 1.388 . S
C3014 C3013 1.366 . S
C3014 C3018 1.385 . S
C3015 H2990 0.951 . S
C3015 C3013 1.388 . S
C3015 C3016 1.366 . S
C3016 C3015 1.366 . S
C3016 C3017 1.414 . S
C3016 C3019 1.499 . S
C3017 H2991 0.950 . S
C3017 C3016 1.414 . S
C3017 C3018 1.374 . S
C3018 H2992 0.950 . S
C3018 C3014 1.385 . S
C3018 C3017 1.374 . S
C3019 C3016 1.499 . S
C3019 C3020 1.373 . S
C3019 C3021 1.389 . S
C3020 H2993 0.950 . S
C3020 C3006 1.377 . S
C3020 C3019 1.373 . S
C3021 C3005 1.377 . S
C3021 C3019 1.389 . S
C3021 C3022 1.524 . S
C3022 C3021 1.524 . S
C3022 C3023 1.397 . S
C3022 C3027 1.363 . S
C3023 H2994 0.950 . S
C3023 C3022 1.397 . S
C3023 C3024 1.334 . S
C3024 H2995 0.950 . S
C3024 C3023 1.334 . S
C3024 C3025 1.287 . S
C3025 C3024 1.287 . S
C3025 C3026 1.524 . S
C3025 H3028 0.999 . S
C3026 H2996 0.950 . S
C3026 C3025 1.524 . S
C3026 C3027 1.415 . S
C3027 H2997 0.950 . S
C3027 C3022 1.363 . S
C3027 C3026 1.415 . S
H3028 C3025 0.999 . S
H3029 C3010 0.913 . S
H3030 C3048 0.951 . S
H3031 C3050 0.951 . S
H3032 C3052 0.950 . S
H3033 C3053 0.950 . S
H3034 C3055 0.950 . S
H3035 C3058 0.950 . S
H3036 C3059 0.950 . S
H3037 C3061 0.950 . S
H3038 C3062 0.950 . S
H3039 C3063 0.951 . S
H3040 C3065 0.951 . S
H3041 C3067 0.950 . S
H3042 C3068 0.950 . S
H3043 C3070 0.950 . S
H3044 C3073 0.950 . S
H3045 C3074 0.950 . S
H3046 C3076 0.950 . S
H3047 C3077 0.950 . S
C3048 H3030 0.951 . S
C3048 C3049 1.366 . S
C3048 C3050 1.388 . S
C3049 C3048 1.366 . S
C3049 C3053 1.385 . S
C3050 H3031 0.951 . S
C3050 C3048 1.388 . S
C3050 C3051 1.366 . S
C3051 C3050 1.366 . S
C3051 C3052 1.414 . S
C3051 C3054 1.499 . S
C3052 H3032 0.950 . S
C3052 C3051 1.414 . S
C3052 C3053 1.374 . S
C3053 H3033 0.950 . S
C3053 C3049 1.385 . S
C3053 C3052 1.374 . S
C3054 C3051 1.499 . S
C3054 C3055 1.373 . S
C3054 C3056 1.389 . S
C3055 H3034 0.950 . S
C3055 C3054 1.373 . S
C3055 C3071 1.377 . S
C3056 C3054 1.389 . S
C3056 C3057 1.524 . S
C3056 C3070 1.377 . S
C3057 C3056 1.524 . S
C3057 C3058 1.397 . S
C3057 C3062 1.363 . S
C3058 H3035 0.950 . S
C3058 C3057 1.397 . S
C3058 C3059 1.334 . S
C3059 H3036 0.950 . S
C3059 C3058 1.334 . S
C3059 C3060 1.287 . S
C3060 C3059 1.287 . S
C3060 C3061 1.524 . S
C3060 H3079 0.913 . S
C3061 H3037 0.950 . S
C3061 C3060 1.524 . S
C3061 C3062 1.415 . S
C3062 H3038 0.950 . S
C3062 C3057 1.363 . S
C3062 C3061 1.415 . S
C3063 H3039 0.951 . S
C3063 C3064 1.366 . S
C3063 C3065 1.388 . S
C3064 C3063 1.366 . S
C3064 C3068 1.385 . S
C3065 H3040 0.951 . S
C3065 C3063 1.388 . S
C3065 C3066 1.366 . S
C3066 C3065 1.366 . S
C3066 C3067 1.414 . S
C3066 C3069 1.499 . S
C3067 H3041 0.950 . S
C3067 C3066 1.414 . S
C3067 C3068 1.374 . S
C3068 H3042 0.950 . S
C3068 C3064 1.385 . S
C3068 C3067 1.374 . S
C3069 C3066 1.499 . S
C3069 C3070 1.373 . S
C3069 C3071 1.389 . S
C3070 H3043 0.950 . S
C3070 C3056 1.377 . S
C3070 C3069 1.373 . S
C3071 C3055 1.377 . S
C3071 C3069 1.389 . S
C3071 C3072 1.524 . S
C3072 C3071 1.524 . S
C3072 C3073 1.397 . S
C3072 C3077 1.363 . S
C3073 H3044 0.950 . S
C3073 C3072 1.397 . S
C3073 C3074 1.334 . S
C3074 H3045 0.950 . S
C3074 C3073 1.334 . S
C3074 C3075 1.287 . S
C3075 C3074 1.287 . S
C3075 C3076 1.524 . S
C3075 H3078 0.999 . S
C3076 H3046 0.950 . S
C3076 C3075 1.524 . S
C3076 C3077 1.415 . S
C3077 H3047 0.950 . S
C3077 C3072 1.363 . S
C3077 C3076 1.415 . S
H3078 C3075 0.999 . S
H3079 C3060 0.913 . S
H3080 C3098 0.951 . S
H3081 C3100 0.951 . S
H3082 C3102 0.950 . S
H3083 C3103 0.950 . S
H3084 C3105 0.950 . S
H3085 C3108 0.950 . S
H3086 C3109 0.950 . S
H3087 C3111 0.950 . S
H3088 C3112 0.950 . S
H3089 C3113 0.951 . S
H3090 C3115 0.951 . S
H3091 C3117 0.950 . S
H3092 C3118 0.950 . S
H3093 C3120 0.950 . S
H3094 C3123 0.950 . S
H3095 C3124 0.950 . S
H3096 C3126 0.950 . S
H3097 C3127 0.950 . S
C3098 H3080 0.951 . S
C3098 C3099 1.366 . S
C3098 C3100 1.388 . S
C3099 C3098 1.366 . S
C3099 C3103 1.385 . S
C3100 H3081 0.951 . S
C3100 C3098 1.388 . S
C3100 C3101 1.366 . S
C3101 C3100 1.366 . S
C3101 C3102 1.414 . S
C3101 C3104 1.499 . S
C3102 H3082 0.950 . S
C3102 C3101 1.414 . S
C3102 C3103 1.374 . S
C3103 H3083 0.950 . S
C3103 C3099 1.385 . S
C3103 C3102 1.374 . S
C3104 C3101 1.499 . S
C3104 C3105 1.373 . S
C3104 C3106 1.389 . S
C3105 H3084 0.950 . S
C3105 C3104 1.373 . S
C3105 C3121 1.377 . S
C3106 C3104 1.389 . S
C3106 C3107 1.524 1_455 S
C3106 C3120 1.377 . S
C3107 C3106 1.524 1_655 S
C3107 C3108 1.397 . S
C3107 C3112 1.363 . S
C3108 H3085 0.950 . S
C3108 C3107 1.397 . S
C3108 C3109 1.334 . S
C3109 H3086 0.950 . S
C3109 C3108 1.334 . S
C3109 C3110 1.287 . S
C3110 C3109 1.287 . S
C3110 C3111 1.524 . S
C3110 H3129 0.913 . S
C3111 H3087 0.950 . S
C3111 C3110 1.524 . S
C3111 C3112 1.415 . S
C3112 H3088 0.950 . S
C3112 C3107 1.363 . S
C3112 C3111 1.415 . S
C3113 H3089 0.951 . S
C3113 C3114 1.366 . S
C3113 C3115 1.388 . S
C3114 C3113 1.366 . S
C3114 C3118 1.385 . S
C3115 H3090 0.951 . S
C3115 C3113 1.388 . S
C3115 C3116 1.366 . S
C3116 C3115 1.366 . S
C3116 C3117 1.414 . S
C3116 C3119 1.499 . S
C3117 H3091 0.950 . S
C3117 C3116 1.414 . S
C3117 C3118 1.374 . S
C3118 H3092 0.950 . S
C3118 C3114 1.385 . S
C3118 C3117 1.374 . S
C3119 C3116 1.499 . S
C3119 C3120 1.373 . S
C3119 C3121 1.389 . S
C3120 H3093 0.950 . S
C3120 C3106 1.377 . S
C3120 C3119 1.373 . S
C3121 C3105 1.377 . S
C3121 C3119 1.389 . S
C3121 C3122 1.524 . S
C3122 C3121 1.524 . S
C3122 C3123 1.397 . S
C3122 C3127 1.363 . S
C3123 H3094 0.950 . S
C3123 C3122 1.397 . S
C3123 C3124 1.334 . S
C3124 H3095 0.950 . S
C3124 C3123 1.334 . S
C3124 C3125 1.287 . S
C3125 C3124 1.287 . S
C3125 C3126 1.524 . S
C3125 H3128 0.999 . S
C3126 H3096 0.950 . S
C3126 C3125 1.524 . S
C3126 C3127 1.415 . S
C3127 H3097 0.950 . S
C3127 C3122 1.363 . S
C3127 C3126 1.415 . S
H3128 C3125 0.999 . S
H3129 C3110 0.913 . S
H3130 C3148 0.951 . S
H3131 C3150 0.951 . S
H3132 C3152 0.950 . S
H3133 C3153 0.950 . S
H3134 C3155 0.950 . S
H3135 C3158 0.950 . S
H3136 C3159 0.950 . S
H3137 C3161 0.950 . S
H3138 C3162 0.950 . S
H3139 C3163 0.951 . S
H3140 C3165 0.951 . S
H3141 C3167 0.950 . S
H3142 C3168 0.950 . S
H3143 C3170 0.950 . S
H3144 C3173 0.950 . S
H3145 C3174 0.950 . S
H3146 C3176 0.950 . S
H3147 C3177 0.950 . S
C3148 H3130 0.951 . S
C3148 C3149 1.366 . S
C3148 C3150 1.388 . S
C3149 C3148 1.366 . S
C3149 C3153 1.385 . S
C3150 H3131 0.951 . S
C3150 C3148 1.388 . S
C3150 C3151 1.366 . S
C3151 C3150 1.366 . S
C3151 C3152 1.414 . S
C3151 C3154 1.499 . S
C3152 H3132 0.950 . S
C3152 C3151 1.414 . S
C3152 C3153 1.374 . S
C3153 H3133 0.950 . S
C3153 C3149 1.385 . S
C3153 C3152 1.374 . S
C3154 C3151 1.499 . S
C3154 C3155 1.373 . S
C3154 C3156 1.389 . S
C3155 H3134 0.950 . S
C3155 C3154 1.373 . S
C3155 C3171 1.377 . S
C3156 C3154 1.389 . S
C3156 C3157 1.524 . S
C3156 C3170 1.377 . S
C3157 C3156 1.524 . S
C3157 C3158 1.397 . S
C3157 C3162 1.363 . S
C3158 H3135 0.950 . S
C3158 C3157 1.397 . S
C3158 C3159 1.334 . S
C3159 H3136 0.950 . S
C3159 C3158 1.334 . S
C3159 C3160 1.287 . S
C3160 C3159 1.287 . S
C3160 C3161 1.524 . S
C3160 H3179 0.913 . S
C3161 H3137 0.950 . S
C3161 C3160 1.524 . S
C3161 C3162 1.415 . S
C3162 H3138 0.950 . S
C3162 C3157 1.363 . S
C3162 C3161 1.415 . S
C3163 H3139 0.951 . S
C3163 C3164 1.366 . S
C3163 C3165 1.388 . S
C3164 C3163 1.366 . S
C3164 C3168 1.385 . S
C3165 H3140 0.951 . S
C3165 C3163 1.388 . S
C3165 C3166 1.366 . S
C3166 C3165 1.366 . S
C3166 C3167 1.414 . S
C3166 C3169 1.499 . S
C3167 H3141 0.950 . S
C3167 C3166 1.414 . S
C3167 C3168 1.374 . S
C3168 H3142 0.950 . S
C3168 C3164 1.385 . S
C3168 C3167 1.374 . S
C3169 C3166 1.499 . S
C3169 C3170 1.373 . S
C3169 C3171 1.389 . S
C3170 H3143 0.950 . S
C3170 C3156 1.377 . S
C3170 C3169 1.373 . S
C3171 C3155 1.377 . S
C3171 C3169 1.389 . S
C3171 C3172 1.524 . S
C3172 C3171 1.524 . S
C3172 C3173 1.397 . S
C3172 C3177 1.363 . S
C3173 H3144 0.950 . S
C3173 C3172 1.397 . S
C3173 C3174 1.334 . S
C3174 H3145 0.950 . S
C3174 C3173 1.334 . S
C3174 C3175 1.287 . S
C3175 C3174 1.287 . S
C3175 C3176 1.524 . S
C3175 H3178 0.999 . S
C3176 H3146 0.950 . S
C3176 C3175 1.524 . S
C3176 C3177 1.415 . S
C3177 H3147 0.950 . S
C3177 C3172 1.363 . S
C3177 C3176 1.415 . S
H3178 C3175 0.999 . S
H3179 C3160 0.913 . S
H3180 C3198 0.951 . S
H3181 C3200 0.951 . S
H3182 C3202 0.950 . S
H3183 C3203 0.950 . S
H3184 C3205 0.950 . S
H3185 C3208 0.950 . S
H3186 C3209 0.950 . S
H3187 C3211 0.950 . S
H3188 C3212 0.950 . S
H3189 C3213 0.951 1_554 S
H3190 C3215 0.951 . S
H3191 C3217 0.950 . S
H3192 C3218 0.950 . S
H3193 C3220 0.950 . S
H3194 C3223 0.950 . S
H3195 C3224 0.950 . S
H3196 C3226 0.950 1_554 S
H3197 C3227 0.950 . S
C3198 H3180 0.951 . S
C3198 C3199 1.366 . S
C3198 C3200 1.388 . S
C3199 C3198 1.366 . S
C3199 C3203 1.385 . S
C3200 H3181 0.951 . S
C3200 C3198 1.388 . S
C3200 C3201 1.366 . S
C3201 C3200 1.366 . S
C3201 C3202 1.414 . S
C3201 C3204 1.499 . S
C3202 H3182 0.950 . S
C3202 C3201 1.414 . S
C3202 C3203 1.374 . S
C3203 H3183 0.950 . S
C3203 C3199 1.385 . S
C3203 C3202 1.374 . S
C3204 C3201 1.499 . S
C3204 C3205 1.373 . S
C3204 C3206 1.389 . S
C3205 H3184 0.950 . S
C3205 C3204 1.373 . S
C3205 C3221 1.377 . S
C3206 C3204 1.389 . S
C3206 C3207 1.524 . S
C3206 C3220 1.377 . S
C3207 C3206 1.524 . S
C3207 C3208 1.397 . S
C3207 C3212 1.363 . S
C3208 H3185 0.950 . S
C3208 C3207 1.397 . S
C3208 C3209 1.334 . S
C3209 H3186 0.950 . S
C3209 C3208 1.334 . S
C3209 C3210 1.287 . S
C3210 C3209 1.287 . S
C3210 C3211 1.524 . S
C3210 H3229 0.913 . S
C3211 H3187 0.950 . S
C3211 C3210 1.524 . S
C3211 C3212 1.415 . S
C3212 H3188 0.950 . S
C3212 C3207 1.363 . S
C3212 C3211 1.415 . S
C3213 H3189 0.951 1_556 S
C3213 C3214 1.366 . S
C3213 C3215 1.388 . S
C3214 C3213 1.366 . S
C3214 C3218 1.385 . S
C3215 H3190 0.951 . S
C3215 C3213 1.388 . S
C3215 C3216 1.366 . S
C3216 C3215 1.366 . S
C3216 C3217 1.414 . S
C3216 C3219 1.499 . S
C3217 H3191 0.950 . S
C3217 C3216 1.414 . S
C3217 C3218 1.374 . S
C3218 H3192 0.950 . S
C3218 C3214 1.385 . S
C3218 C3217 1.374 . S
C3219 C3216 1.499 . S
C3219 C3220 1.373 . S
C3219 C3221 1.389 . S
C3220 H3193 0.950 . S
C3220 C3206 1.377 . S
C3220 C3219 1.373 . S
C3221 C3205 1.377 . S
C3221 C3219 1.389 . S
C3221 C3222 1.524 . S
C3222 C3221 1.524 . S
C3222 C3223 1.397 . S
C3222 C3227 1.363 . S
C3223 H3194 0.950 . S
C3223 C3222 1.397 . S
C3223 C3224 1.334 . S
C3224 H3195 0.950 . S
C3224 C3223 1.334 . S
C3224 C3225 1.287 . S
C3225 C3224 1.287 . S
C3225 C3226 1.524 . S
C3225 H3228 0.953 1_556 S
C3226 H3196 0.950 1_556 S
C3226 C3225 1.524 . S
C3226 C3227 1.415 . S
C3227 H3197 0.950 . S
C3227 C3222 1.363 . S
C3227 C3226 1.415 . S
H3228 C3225 0.953 1_554 S
H3229 C3210 0.913 . S
H3230 C3248 0.951 . S
H3231 C3250 0.951 . S
H3232 C3252 0.950 . S
H3233 C3253 0.950 . S
H3234 C3255 0.950 . S
H3235 C3258 0.950 . S
H3236 C3259 0.950 . S
H3237 C3261 0.950 . S
H3238 C3262 0.950 . S
H3239 C3263 0.951 . S
H3240 C3265 0.951 . S
H3241 C3267 0.950 . S
H3242 C3268 0.950 . S
H3243 C3270 0.950 . S
H3244 C3273 0.950 . S
H3245 C3274 0.950 . S
H3246 C3276 0.950 . S
H3247 C3277 0.950 . S
C3248 H3230 0.951 . S
C3248 C3249 1.366 . S
C3248 C3250 1.388 . S
C3249 C3248 1.366 . S
C3249 C3253 1.385 . S
C3250 H3231 0.951 . S
C3250 C3248 1.388 . S
C3250 C3251 1.366 . S
C3251 C3250 1.366 . S
C3251 C3252 1.414 . S
C3251 C3254 1.499 . S
C3252 H3232 0.950 . S
C3252 C3251 1.414 . S
C3252 C3253 1.374 . S
C3253 H3233 0.950 . S
C3253 C3249 1.385 . S
C3253 C3252 1.374 . S
C3254 C3251 1.499 . S
C3254 C3255 1.373 . S
C3254 C3256 1.389 . S
C3255 H3234 0.950 . S
C3255 C3254 1.373 . S
C3255 C3271 1.377 . S
C3256 C3254 1.389 . S
C3256 C3257 1.524 . S
C3256 C3270 1.377 . S
C3257 C3256 1.524 . S
C3257 C3258 1.397 . S
C3257 C3262 1.363 . S
C3258 H3235 0.950 . S
C3258 C3257 1.397 . S
C3258 C3259 1.334 . S
C3259 H3236 0.950 . S
C3259 C3258 1.334 . S
C3259 C3260 1.287 . S
C3260 C3259 1.287 . S
C3260 C3261 1.524 . S
C3260 H3279 0.913 . S
C3261 H3237 0.950 . S
C3261 C3260 1.524 . S
C3261 C3262 1.415 . S
C3262 H3238 0.950 . S
C3262 C3257 1.363 . S
C3262 C3261 1.415 . S
C3263 H3239 0.951 . S
C3263 C3264 1.366 . S
C3263 C3265 1.388 . S
C3264 C3263 1.366 . S
C3264 C3268 1.385 . S
C3265 H3240 0.951 . S
C3265 C3263 1.388 . S
C3265 C3266 1.366 . S
C3266 C3265 1.366 . S
C3266 C3267 1.414 . S
C3266 C3269 1.499 . S
C3267 H3241 0.950 . S
C3267 C3266 1.414 . S
C3267 C3268 1.374 . S
C3268 H3242 0.950 . S
C3268 C3264 1.385 . S
C3268 C3267 1.374 . S
C3269 C3266 1.499 . S
C3269 C3270 1.373 . S
C3269 C3271 1.389 . S
C3270 H3243 0.950 . S
C3270 C3256 1.377 . S
C3270 C3269 1.373 . S
C3271 C3255 1.377 . S
C3271 C3269 1.389 . S
C3271 C3272 1.524 . S
C3272 C3271 1.524 . S
C3272 C3273 1.397 . S
C3272 C3277 1.363 . S
C3273 H3244 0.950 . S
C3273 C3272 1.397 . S
C3273 C3274 1.334 . S
C3274 H3245 0.950 . S
C3274 C3273 1.334 . S
C3274 C3275 1.287 . S
C3275 C3274 1.287 . S
C3275 C3276 1.524 . S
C3275 H3278 0.999 . S
C3276 H3246 0.950 . S
C3276 C3275 1.524 . S
C3276 C3277 1.415 . S
C3277 H3247 0.950 . S
C3277 C3272 1.363 . S
C3277 C3276 1.415 . S
H3278 C3275 0.999 . S
H3279 C3260 0.913 . S
H3280 C3298 0.951 . S
H3281 C3300 0.951 . S
H3282 C3302 0.950 . S
H3283 C3303 0.950 . S
H3284 C3305 0.950 . S
H3285 C3308 0.950 . S
H3286 C3309 0.950 . S
H3287 C3311 0.950 . S
H3288 C3312 0.950 . S
H3289 C3313 0.951 . S
H3290 C3315 0.951 . S
H3291 C3317 0.950 1_565 S
H3292 C3318 0.950 1_565 S
H3293 C3320 0.950 . S
H3294 C3323 0.950 . S
H3295 C3324 0.950 . S
H3296 C3326 0.950 . S
H3297 C3327 0.950 . S
C3298 H3280 0.951 . S
C3298 C3299 1.366 . S
C3298 C3300 1.388 . S
C3299 C3298 1.366 . S
C3299 C3303 1.385 . S
C3300 H3281 0.951 . S
C3300 C3298 1.388 . S
C3300 C3301 1.366 . S
C3301 C3300 1.366 . S
C3301 C3302 1.414 . S
C3301 C3304 1.499 . S
C3302 H3282 0.950 . S
C3302 C3301 1.414 . S
C3302 C3303 1.374 . S
C3303 H3283 0.950 . S
C3303 C3299 1.385 . S
C3303 C3302 1.374 . S
C3304 C3301 1.499 . S
C3304 C3305 1.373 . S
C3304 C3306 1.389 . S
C3305 H3284 0.950 . S
C3305 C3304 1.373 . S
C3305 C3321 1.377 . S
C3306 C3304 1.389 . S
C3306 C3307 1.524 . S
C3306 C3320 1.377 . S
C3307 C3306 1.524 . S
C3307 C3308 1.397 . S
C3307 C3312 1.363 1_545 S
C3308 H3285 0.950 . S
C3308 C3307 1.397 . S
C3308 C3309 1.334 . S
C3309 H3286 0.950 . S
C3309 C3308 1.334 . S
C3309 C3310 1.287 . S
C3310 C3309 1.287 . S
C3310 C3311 1.524 1_545 S
C3310 H3329 0.913 . S
C3311 H3287 0.950 . S
C3311 C3310 1.524 1_565 S
C3311 C3312 1.415 . S
C3312 H3288 0.950 . S
C3312 C3307 1.363 1_565 S
C3312 C3311 1.415 . S
C3313 H3289 0.951 . S
C3313 C3314 1.366 . S
C3313 C3315 1.388 . S
C3314 C3313 1.366 . S
C3314 C3318 1.385 . S
C3315 H3290 0.951 . S
C3315 C3313 1.388 . S
C3315 C3316 1.366 . S
C3316 C3315 1.366 . S
C3316 C3317 1.414 . S
C3316 C3319 1.499 . S
C3317 H3291 0.950 1_545 S
C3317 C3316 1.414 . S
C3317 C3318 1.374 . S
C3318 H3292 0.950 1_545 S
C3318 C3314 1.385 . S
C3318 C3317 1.374 . S
C3319 C3316 1.499 . S
C3319 C3320 1.373 . S
C3319 C3321 1.389 . S
C3320 H3293 0.950 . S
C3320 C3306 1.377 . S
C3320 C3319 1.373 . S
C3321 C3305 1.377 . S
C3321 C3319 1.389 . S
C3321 C3322 1.524 . S
C3322 C3321 1.524 . S
C3322 C3323 1.397 . S
C3322 C3327 1.363 . S
C3323 H3294 0.950 . S
C3323 C3322 1.397 . S
C3323 C3324 1.334 . S
C3324 H3295 0.950 . S
C3324 C3323 1.334 . S
C3324 C3325 1.287 . S
C3325 C3324 1.287 . S
C3325 C3326 1.524 . S
C3325 H3328 0.999 . S
C3326 H3296 0.950 . S
C3326 C3325 1.524 . S
C3326 C3327 1.415 . S
C3327 H3297 0.950 . S
C3327 C3322 1.363 . S
C3327 C3326 1.415 . S
H3328 C3325 0.999 . S
H3329 C3310 0.913 . S
H3330 C3348 0.951 . S
H3331 C3350 0.951 . S
H3332 C3352 0.950 . S
H3333 C3353 0.950 . S
H3334 C3355 0.950 . S
H3335 C3358 0.950 . S
H3336 C3359 0.950 . S
H3337 C3361 0.950 . S
H3338 C3362 0.950 . S
H3339 C3363 0.951 . S
H3340 C3365 0.951 . S
H3341 C3367 0.950 . S
H3342 C3368 0.950 . S
H3343 C3370 0.950 . S
H3344 C3373 0.950 . S
H3345 C3374 0.950 . S
H3346 C3376 0.950 . S
H3347 C3377 0.950 . S
C3348 H3330 0.951 . S
C3348 C3349 1.366 . S
C3348 C3350 1.388 . S
C3349 C3348 1.366 . S
C3349 C3353 1.385 . S
C3350 H3331 0.951 . S
C3350 C3348 1.388 . S
C3350 C3351 1.366 . S
C3351 C3350 1.366 . S
C3351 C3352 1.414 . S
C3351 C3354 1.499 . S
C3352 H3332 0.950 . S
C3352 C3351 1.414 . S
C3352 C3353 1.374 . S
C3353 H3333 0.950 . S
C3353 C3349 1.385 . S
C3353 C3352 1.374 . S
C3354 C3351 1.499 . S
C3354 C3355 1.373 . S
C3354 C3356 1.389 . S
C3355 H3334 0.950 . S
C3355 C3354 1.373 . S
C3355 C3371 1.377 . S
C3356 C3354 1.389 . S
C3356 C3357 1.524 . S
C3356 C3370 1.377 . S
C3357 C3356 1.524 . S
C3357 C3358 1.397 . S
C3357 C3362 1.363 . S
C3358 H3335 0.950 . S
C3358 C3357 1.397 . S
C3358 C3359 1.334 . S
C3359 H3336 0.950 . S
C3359 C3358 1.334 . S
C3359 C3360 1.287 . S
C3360 C3359 1.287 . S
C3360 C3361 1.524 . S
C3360 H3379 0.913 . S
C3361 H3337 0.950 . S
C3361 C3360 1.524 . S
C3361 C3362 1.415 . S
C3362 H3338 0.950 . S
C3362 C3357 1.363 . S
C3362 C3361 1.415 . S
C3363 H3339 0.951 . S
C3363 C3364 1.366 . S
C3363 C3365 1.388 . S
C3364 C3363 1.366 . S
C3364 C3368 1.385 . S
C3365 H3340 0.951 . S
C3365 C3363 1.388 . S
C3365 C3366 1.366 . S
C3366 C3365 1.366 . S
C3366 C3367 1.414 . S
C3366 C3369 1.499 . S
C3367 H3341 0.950 . S
C3367 C3366 1.414 . S
C3367 C3368 1.374 . S
C3368 H3342 0.950 . S
C3368 C3364 1.385 . S
C3368 C3367 1.374 . S
C3369 C3366 1.499 . S
C3369 C3370 1.373 . S
C3369 C3371 1.389 . S
C3370 H3343 0.950 . S
C3370 C3356 1.377 . S
C3370 C3369 1.373 . S
C3371 C3355 1.377 . S
C3371 C3369 1.389 . S
C3371 C3372 1.524 . S
C3372 C3371 1.524 . S
C3372 C3373 1.397 . S
C3372 C3377 1.363 . S
C3373 H3344 0.950 . S
C3373 C3372 1.397 . S
C3373 C3374 1.334 . S
C3374 H3345 0.950 . S
C3374 C3373 1.334 . S
C3374 C3375 1.287 . S
C3375 C3374 1.287 . S
C3375 C3376 1.524 . S
C3375 H3378 0.999 . S
C3376 H3346 0.950 . S
C3376 C3375 1.524 . S
C3376 C3377 1.415 . S
C3377 H3347 0.950 . S
C3377 C3372 1.363 . S
C3377 C3376 1.415 . S
H3378 C3375 0.999 . S
H3379 C3360 0.913 . S
H3380 C3398 0.951 . S
H3381 C3400 0.951 . S
H3382 C3402 0.950 . S
H3383 C3403 0.950 . S
H3384 C3405 0.950 . S
H3385 C3408 0.950 . S
H3386 C3409 0.950 1_545 S
H3387 C3411 0.950 . S
H3388 C3412 0.950 . S
H3389 C3413 0.951 . S
H3390 C3415 0.951 . S
H3391 C3417 0.950 1_565 S
H3392 C3418 0.950 1_565 S
H3393 C3420 0.927 1_565 S
H3394 C3423 0.950 . S
H3395 C3424 0.950 . S
H3396 C3426 0.950 . S
H3397 C3427 0.950 . S
C3398 H3380 0.951 . S
C3398 C3399 1.366 1_565 S
C3398 C3400 1.388 . S
C3399 C3398 1.366 1_545 S
C3399 C3403 1.385 . S
C3400 H3381 0.951 . S
C3400 C3398 1.388 . S
C3400 C3401 1.366 1_565 S
C3401 C3400 1.366 1_545 S
C3401 C3402 1.414 . S
C3401 C3404 1.499 . S
C3402 H3382 0.950 . S
C3402 C3401 1.414 . S
C3402 C3403 1.374 . S
C3403 H3383 0.950 . S
C3403 C3399 1.385 . S
C3403 C3402 1.374 . S
C3404 C3401 1.499 . S
C3404 C3405 1.373 . S
C3404 C3406 1.389 . S
C3405 H3384 0.950 . S
C3405 C3404 1.373 . S
C3405 C3421 1.377 . S
C3406 C3404 1.389 . S
C3406 C3407 1.524 1_545 S
C3406 C3420 1.377 . S
C3407 C3406 1.524 1_565 S
C3407 C3408 1.397 1_565 S
C3407 C3412 1.363 . S
C3408 H3385 0.950 . S
C3408 C3407 1.397 1_545 S
C3408 C3409 1.334 1_545 S
C3409 H3386 0.950 1_565 S
C3409 C3408 1.334 1_565 S
C3409 C3410 1.287 . S
C3410 C3409 1.287 . S
C3410 C3411 1.524 . S
C3410 H3429 0.913 . S
C3411 H3387 0.950 . S
C3411 C3410 1.524 . S
C3411 C3412 1.415 . S
C3412 H3388 0.950 . S
C3412 C3407 1.363 . S
C3412 C3411 1.415 . S
C3413 H3389 0.951 . S
C3413 C3414 1.366 . S
C3413 C3415 1.388 . S
C3414 C3413 1.366 . S
C3414 C3418 1.385 . S
C3415 H3390 0.951 . S
C3415 C3413 1.388 . S
C3415 C3416 1.366 . S
C3416 C3415 1.366 . S
C3416 C3417 1.414 . S
C3416 C3419 1.499 . S
C3417 H3391 0.950 1_545 S
C3417 C3416 1.414 . S
C3417 C3418 1.374 . S
C3418 H3392 0.950 1_545 S
C3418 C3414 1.385 . S
C3418 C3417 1.374 . S
C3419 C3416 1.499 . S
C3419 C3420 1.373 . S
C3419 C3421 1.389 . S
C3420 H3393 0.927 1_545 S
C3420 C3406 1.377 . S
C3420 C3419 1.373 . S
C3421 C3405 1.377 . S
C3421 C3419 1.389 . S
C3421 C3422 1.524 . S
C3422 C3421 1.524 . S
C3422 C3423 1.397 . S
C3422 C3427 1.363 . S
C3423 H3394 0.950 . S
C3423 C3422 1.397 . S
C3423 C3424 1.334 . S
C3424 H3395 0.950 . S
C3424 C3423 1.334 . S
C3424 C3425 1.287 . S
C3425 C3424 1.287 . S
C3425 C3426 1.524 . S
C3425 H3428 0.999 . S
C3426 H3396 0.950 . S
C3426 C3425 1.524 . S
C3426 C3427 1.415 . S
C3427 H3397 0.950 . S
C3427 C3422 1.363 . S
C3427 C3426 1.415 . S
H3428 C3425 0.999 . S
H3429 C3410 0.913 . S
H3430 C3448 0.951 . S
H3431 C3450 0.951 . S
H3432 C3452 0.950 . S
H3433 C3453 0.950 . S
H3434 C3455 0.950 . S
H3435 C3458 0.950 . S
H3436 C3459 0.950 . S
H3437 C3461 0.950 . S
H3438 C3462 0.950 . S
H3439 C3463 0.951 . S
H3440 C3465 0.951 . S
H3441 C3467 0.950 . S
H3442 C3468 0.950 . S
H3443 C3470 0.950 . S
H3444 C3473 0.950 . S
H3445 C3474 0.950 . S
H3446 C3476 0.950 . S
H3447 C3477 0.950 . S
C3448 H3430 0.951 . S
C3448 C3449 1.366 . S
C3448 C3450 1.388 . S
C3449 C3448 1.366 . S
C3449 C3453 1.385 . S
C3450 H3431 0.951 . S
C3450 C3448 1.388 . S
C3450 C3451 1.366 . S
C3451 C3450 1.366 . S
C3451 C3452 1.414 . S
C3451 C3454 1.499 . S
C3452 H3432 0.950 . S
C3452 C3451 1.414 . S
C3452 C3453 1.374 . S
C3453 H3433 0.950 . S
C3453 C3449 1.385 . S
C3453 C3452 1.374 . S
C3454 C3451 1.499 . S
C3454 C3455 1.373 . S
C3454 C3456 1.389 . S
C3455 H3434 0.950 . S
C3455 C3454 1.373 . S
C3455 C3471 1.377 . S
C3456 C3454 1.389 . S
C3456 C3457 1.524 . S
C3456 C3470 1.377 . S
C3457 C3456 1.524 . S
C3457 C3458 1.397 . S
C3457 C3462 1.363 . S
C3458 H3435 0.950 . S
C3458 C3457 1.397 . S
C3458 C3459 1.334 . S
C3459 H3436 0.950 . S
C3459 C3458 1.334 . S
C3459 C3460 1.287 . S
C3460 C3459 1.287 . S
C3460 C3461 1.524 . S
C3460 H3479 0.913 . S
C3461 H3437 0.950 . S
C3461 C3460 1.524 . S
C3461 C3462 1.415 . S
C3462 H3438 0.950 . S
C3462 C3457 1.363 . S
C3462 C3461 1.415 . S
C3463 H3439 0.951 . S
C3463 C3464 1.366 . S
C3463 C3465 1.388 . S
C3464 C3463 1.366 . S
C3464 C3468 1.385 . S
C3465 H3440 0.951 . S
C3465 C3463 1.388 . S
C3465 C3466 1.366 . S
C3466 C3465 1.366 . S
C3466 C3467 1.414 . S
C3466 C3469 1.499 . S
C3467 H3441 0.950 . S
C3467 C3466 1.414 . S
C3467 C3468 1.374 . S
C3468 H3442 0.950 . S
C3468 C3464 1.385 . S
C3468 C3467 1.374 . S
C3469 C3466 1.499 . S
C3469 C3470 1.373 . S
C3469 C3471 1.389 . S
C3470 H3443 0.950 . S
C3470 C3456 1.377 . S
C3470 C3469 1.373 . S
C3471 C3455 1.377 . S
C3471 C3469 1.389 . S
C3471 C3472 1.524 . S
C3472 C3471 1.524 . S
C3472 C3473 1.397 . S
C3472 C3477 1.363 . S
C3473 H3444 0.950 . S
C3473 C3472 1.397 . S
C3473 C3474 1.334 . S
C3474 H3445 0.950 . S
C3474 C3473 1.334 . S
C3474 C3475 1.287 . S
C3475 C3474 1.287 . S
C3475 C3476 1.524 . S
C3475 H3478 0.999 . S
C3476 H3446 0.950 . S
C3476 C3475 1.524 . S
C3476 C3477 1.415 . S
C3477 H3447 0.950 . S
C3477 C3472 1.363 . S
C3477 C3476 1.415 . S
H3478 C3475 0.999 . S
H3479 C3460 0.913 . S
H3480 C3498 0.951 . S
H3481 C3500 0.951 . S
H3482 C3502 0.950 . S
H3483 C3503 0.950 . S
H3484 C3505 0.950 . S
H3485 C3508 0.950 . S
H3486 C3509 0.950 . S
H3487 C3511 0.950 . S
H3488 C3512 0.950 1_545 S
H3489 C3513 0.951 . S
H3490 C3515 0.951 . S
H3491 C3517 0.950 . S
H3492 C3518 0.950 . S
H3493 C3520 0.950 . S
H3494 C3523 0.950 . S
H3495 C3524 0.950 . S
H3496 C3526 0.950 . S
H3497 C3527 0.950 . S
C3498 H3480 0.951 . S
C3498 C3499 1.366 . S
C3498 C3500 1.388 . S
C3499 C3498 1.366 . S
C3499 C3503 1.385 . S
C3500 H3481 0.951 . S
C3500 C3498 1.388 . S
C3500 C3501 1.366 . S
C3501 C3500 1.366 . S
C3501 C3502 1.414 . S
C3501 C3504 1.499 . S
C3502 H3482 0.950 . S
C3502 C3501 1.414 . S
C3502 C3503 1.374 . S
C3503 H3483 0.950 . S
C3503 C3499 1.385 . S
C3503 C3502 1.374 . S
C3504 C3501 1.499 . S
C3504 C3505 1.373 . S
C3504 C3506 1.389 . S
C3505 H3484 0.950 . S
C3505 C3504 1.373 . S
C3505 C3521 1.377 . S
C3506 C3504 1.389 . S
C3506 C3507 1.524 1_545 S
C3506 C3520 1.377 . S
C3507 C3506 1.524 1_565 S
C3507 C3508 1.397 . S
C3507 C3512 1.363 . S
C3508 H3485 0.950 . S
C3508 C3507 1.397 . S
C3508 C3509 1.334 . S
C3509 H3486 0.950 . S
C3509 C3508 1.334 . S
C3509 C3510 1.287 . S
C3510 C3509 1.287 . S
C3510 C3511 1.524 . S
C3510 H3529 0.913 . S
C3511 H3487 0.950 . S
C3511 C3510 1.524 . S
C3511 C3512 1.415 . S
C3512 H3488 0.950 1_565 S
C3512 C3507 1.363 . S
C3512 C3511 1.415 . S
C3513 H3489 0.951 . S
C3513 C3514 1.366 . S
C3513 C3515 1.388 . S
C3514 C3513 1.366 . S
C3514 C3518 1.385 . S
C3515 H3490 0.951 . S
C3515 C3513 1.388 . S
C3515 C3516 1.366 . S
C3516 C3515 1.366 . S
C3516 C3517 1.414 . S
C3516 C3519 1.499 . S
C3517 H3491 0.950 . S
C3517 C3516 1.414 . S
C3517 C3518 1.374 . S
C3518 H3492 0.950 . S
C3518 C3514 1.385 . S
C3518 C3517 1.374 . S
C3519 C3516 1.499 . S
C3519 C3520 1.373 . S
C3519 C3521 1.389 . S
C3520 H3493 0.950 . S
C3520 C3506 1.377 . S
C3520 C3519 1.373 . S
C3521 C3505 1.377 . S
C3521 C3519 1.389 . S
C3521 C3522 1.524 . S
C3522 C3521 1.524 . S
C3522 C3523 1.397 . S
C3522 C3527 1.363 . S
C3523 H3494 0.950 . S
C3523 C3522 1.397 . S
C3523 C3524 1.334 . S
C3524 H3495 0.950 . S
C3524 C3523 1.334 . S
C3524 C3525 1.287 . S
C3525 C3524 1.287 . S
C3525 C3526 1.524 . S
C3525 H3528 0.999 . S
C3526 H3496 0.950 . S
C3526 C3525 1.524 . S
C3526 C3527 1.415 . S
C3527 H3497 0.950 . S
C3527 C3522 1.363 . S
C3527 C3526 1.415 . S
H3528 C3525 0.999 . S
H3529 C3510 0.913 . S
H3530 C3548 0.951 . S
H3531 C3550 0.951 . S
H3532 C3552 0.950 . S
H3533 C3553 0.950 . S
H3534 C3555 0.950 . S
H3535 C3558 0.950 . S
H3536 C3559 0.950 . S
H3537 C3561 0.950 . S
H3538 C3562 0.950 . S
H3539 C3563 0.951 . S
H3540 C3565 0.951 . S
H3541 C3567 0.950 . S
H3542 C3568 0.950 . S
H3543 C3570 0.950 . S
H3544 C3573 0.950 . S
H3545 C3574 0.950 . S
H3546 C3576 0.950 . S
H3547 C3577 0.950 . S
C3548 H3530 0.951 . S
C3548 C3549 1.366 . S
C3548 C3550 1.388 . S
C3549 C3548 1.366 . S
C3549 C3553 1.385 . S
C3550 H3531 0.951 . S
C3550 C3548 1.388 . S
C3550 C3551 1.366 . S
C3551 C3550 1.366 . S
C3551 C3552 1.414 . S
C3551 C3554 1.499 . S
C3552 H3532 0.950 . S
C3552 C3551 1.414 . S
C3552 C3553 1.374 . S
C3553 H3533 0.950 . S
C3553 C3549 1.385 . S
C3553 C3552 1.374 . S
C3554 C3551 1.499 . S
C3554 C3555 1.373 . S
C3554 C3556 1.389 . S
C3555 H3534 0.950 . S
C3555 C3554 1.373 . S
C3555 C3571 1.377 . S
C3556 C3554 1.389 . S
C3556 C3557 1.524 . S
C3556 C3570 1.377 . S
C3557 C3556 1.524 . S
C3557 C3558 1.397 . S
C3557 C3562 1.363 . S
C3558 H3535 0.950 . S
C3558 C3557 1.397 . S
C3558 C3559 1.334 . S
C3559 H3536 0.950 . S
C3559 C3558 1.334 . S
C3559 C3560 1.287 . S
C3560 C3559 1.287 . S
C3560 C3561 1.524 . S
C3560 H3579 0.913 . S
C3561 H3537 0.950 . S
C3561 C3560 1.524 . S
C3561 C3562 1.415 . S
C3562 H3538 0.950 . S
C3562 C3557 1.363 . S
C3562 C3561 1.415 . S
C3563 H3539 0.951 . S
C3563 C3564 1.366 . S
C3563 C3565 1.388 . S
C3564 C3563 1.366 . S
C3564 C3568 1.385 . S
C3565 H3540 0.951 . S
C3565 C3563 1.388 . S
C3565 C3566 1.366 . S
C3566 C3565 1.366 . S
C3566 C3567 1.414 . S
C3566 C3569 1.499 . S
C3567 H3541 0.950 . S
C3567 C3566 1.414 . S
C3567 C3568 1.374 . S
C3568 H3542 0.950 . S
C3568 C3564 1.385 . S
C3568 C3567 1.374 . S
C3569 C3566 1.499 . S
C3569 C3570 1.373 . S
C3569 C3571 1.389 . S
C3570 H3543 0.950 . S
C3570 C3556 1.377 . S
C3570 C3569 1.373 . S
C3571 C3555 1.377 . S
C3571 C3569 1.389 . S
C3571 C3572 1.524 . S
C3572 C3571 1.524 . S
C3572 C3573 1.397 . S
C3572 C3577 1.363 . S
C3573 H3544 0.950 . S
C3573 C3572 1.397 . S
C3573 C3574 1.334 . S
C3574 H3545 0.950 . S
C3574 C3573 1.334 . S
C3574 C3575 1.287 . S
C3575 C3574 1.287 . S
C3575 C3576 1.524 . S
C3575 H3578 0.999 . S
C3576 H3546 0.950 . S
C3576 C3575 1.524 . S
C3576 C3577 1.415 . S
C3577 H3547 0.950 . S
C3577 C3572 1.363 . S
C3577 C3576 1.415 . S
H3578 C3575 0.999 . S
H3579 C3560 0.913 . S
H3580 C3598 0.951 . S
H3581 C3600 0.951 . S
H3582 C3602 0.950 . S
H3583 C3603 0.950 . S
H3584 C3605 0.950 . S
H3585 C3608 0.950 . S
H3586 C3609 0.950 . S
H3587 C3611 0.950 . S
H3588 C3612 0.950 . S
H3589 C3613 0.951 . S
H3590 C3615 0.951 . S
H3591 C3617 0.933 1_565 S
H3592 C3618 0.950 1_565 S
H3593 C3620 0.950 . S
H3594 C3623 0.950 . S
H3595 C3624 0.950 . S
H3596 C3626 0.950 . S
H3597 C3627 0.950 . S
C3598 H3580 0.951 . S
C3598 C3599 1.366 1_565 S
C3598 C3600 1.388 . S
C3599 C3598 1.366 1_545 S
C3599 C3603 1.385 . S
C3600 H3581 0.951 . S
C3600 C3598 1.388 . S
C3600 C3601 1.366 1_565 S
C3601 C3600 1.366 1_545 S
C3601 C3602 1.414 . S
C3601 C3604 1.499 . S
C3602 H3582 0.950 . S
C3602 C3601 1.414 . S
C3602 C3603 1.374 . S
C3603 H3583 0.950 . S
C3603 C3599 1.385 . S
C3603 C3602 1.374 . S
C3604 C3601 1.499 . S
C3604 C3605 1.373 . S
C3604 C3606 1.389 1_545 S
C3605 H3584 0.950 . S
C3605 C3604 1.373 . S
C3605 C3621 1.377 . S
C3606 C3604 1.389 1_565 S
C3606 C3607 1.524 . S
C3606 C3620 1.377 . S
C3607 C3606 1.524 . S
C3607 C3608 1.397 . S
C3607 C3612 1.363 . S
C3608 H3585 0.950 . S
C3608 C3607 1.397 . S
C3608 C3609 1.334 . S
C3609 H3586 0.950 . S
C3609 C3608 1.334 . S
C3609 C3610 1.287 . S
C3610 C3609 1.287 . S
C3610 C3611 1.524 . S
C3610 H3629 0.913 . S
C3611 H3587 0.950 . S
C3611 C3610 1.524 . S
C3611 C3612 1.415 . S
C3612 H3588 0.950 . S
C3612 C3607 1.363 . S
C3612 C3611 1.415 . S
C3613 H3589 0.951 . S
C3613 C3614 1.366 . S
C3613 C3615 1.388 . S
C3614 C3613 1.366 . S
C3614 C3618 1.385 . S
C3615 H3590 0.951 . S
C3615 C3613 1.388 . S
C3615 C3616 1.366 . S
C3616 C3615 1.366 . S
C3616 C3617 1.431 . S
C3616 C3619 1.499 . S
C3617 H3591 0.933 1_545 S
C3617 C3616 1.431 . S
C3617 C3618 1.375 . S
C3618 H3592 0.950 1_545 S
C3618 C3614 1.385 . S
C3618 C3617 1.375 . S
C3619 C3616 1.499 . S
C3619 C3620 1.373 1_545 S
C3619 C3621 1.389 . S
C3620 H3593 0.950 . S
C3620 C3606 1.377 . S
C3620 C3619 1.373 1_565 S
C3621 C3605 1.377 . S
C3621 C3619 1.389 . S
C3621 C3622 1.524 . S
C3622 C3621 1.524 . S
C3622 C3623 1.397 . S
C3622 C3627 1.363 . S
C3623 H3594 0.950 . S
C3623 C3622 1.397 . S
C3623 C3624 1.334 . S
C3624 H3595 0.950 . S
C3624 C3623 1.334 . S
C3624 C3625 1.287 . S
C3625 C3624 1.287 . S
C3625 C3626 1.524 . S
C3625 H3628 0.999 . S
C3626 H3596 0.950 . S
C3626 C3625 1.524 . S
C3626 C3627 1.415 . S
C3627 H3597 0.950 . S
C3627 C3622 1.363 . S
C3627 C3626 1.415 . S
H3628 C3625 0.999 . S
H3629 C3610 0.913 . S
H3630 C3648 0.951 . S
H3631 C3650 0.951 . S
H3632 C3652 0.950 . S
H3633 C3653 0.950 . S
H3634 C3655 0.950 . S
H3635 C3658 0.950 . S
H3636 C3659 0.950 . S
H3637 C3661 0.950 . S
H3638 C3662 0.950 . S
H3639 C3663 0.951 . S
H3640 C3665 0.951 . S
H3641 C3667 0.950 . S
H3642 C3668 0.950 . S
H3643 C3670 0.950 . S
H3644 C3673 0.950 . S
H3645 C3674 0.950 . S
H3646 C3676 0.950 . S
H3647 C3677 0.950 . S
C3648 H3630 0.951 . S
C3648 C3649 1.366 . S
C3648 C3650 1.388 . S
C3649 C3648 1.366 . S
C3649 C3653 1.385 . S
C3650 H3631 0.951 . S
C3650 C3648 1.388 . S
C3650 C3651 1.366 . S
C3651 C3650 1.366 . S
C3651 C3652 1.414 . S
C3651 C3654 1.499 . S
C3652 H3632 0.950 . S
C3652 C3651 1.414 . S
C3652 C3653 1.374 . S
C3653 H3633 0.950 . S
C3653 C3649 1.385 . S
C3653 C3652 1.374 . S
C3654 C3651 1.499 . S
C3654 C3655 1.373 . S
C3654 C3656 1.389 . S
C3655 H3634 0.950 . S
C3655 C3654 1.373 . S
C3655 C3671 1.377 . S
C3656 C3654 1.389 . S
C3656 C3657 1.524 . S
C3656 C3670 1.377 . S
C3657 C3656 1.524 . S
C3657 C3658 1.397 . S
C3657 C3662 1.363 . S
C3658 H3635 0.950 . S
C3658 C3657 1.397 . S
C3658 C3659 1.334 . S
C3659 H3636 0.950 . S
C3659 C3658 1.334 . S
C3659 C3660 1.287 . S
C3660 C3659 1.287 . S
C3660 C3661 1.524 . S
C3660 H3679 0.913 . S
C3661 H3637 0.950 . S
C3661 C3660 1.524 . S
C3661 C3662 1.415 . S
C3662 H3638 0.950 . S
C3662 C3657 1.363 . S
C3662 C3661 1.415 . S
C3663 H3639 0.951 . S
C3663 C3664 1.366 . S
C3663 C3665 1.388 . S
C3664 C3663 1.366 . S
C3664 C3668 1.385 . S
C3665 H3640 0.951 . S
C3665 C3663 1.388 . S
C3665 C3666 1.366 . S
C3666 C3665 1.366 . S
C3666 C3667 1.414 . S
C3666 C3669 1.499 . S
C3667 H3641 0.950 . S
C3667 C3666 1.414 . S
C3667 C3668 1.374 . S
C3668 H3642 0.950 . S
C3668 C3664 1.385 . S
C3668 C3667 1.374 . S
C3669 C3666 1.499 . S
C3669 C3670 1.373 . S
C3669 C3671 1.389 . S
C3670 H3643 0.950 . S
C3670 C3656 1.377 . S
C3670 C3669 1.373 . S
C3671 C3655 1.377 . S
C3671 C3669 1.389 . S
C3671 C3672 1.524 . S
C3672 C3671 1.524 . S
C3672 C3673 1.397 . S
C3672 C3677 1.363 . S
C3673 H3644 0.950 . S
C3673 C3672 1.397 . S
C3673 C3674 1.334 . S
C3674 H3645 0.950 . S
C3674 C3673 1.334 . S
C3674 C3675 1.287 . S
C3675 C3674 1.287 . S
C3675 C3676 1.524 . S
C3675 H3678 0.999 . S
C3676 H3646 0.950 . S
C3676 C3675 1.524 . S
C3676 C3677 1.415 . S
C3677 H3647 0.950 . S
C3677 C3672 1.363 . S
C3677 C3676 1.415 . S
H3678 C3675 0.999 . S
H3679 C3660 0.913 . S
H3680 C3698 0.951 . S
H3681 C3700 0.951 . S
H3682 C3702 0.950 . S
H3683 C3703 0.950 . S
H3684 C3705 0.950 . S
H3685 C3708 0.950 . S
H3686 C3709 0.950 . S
H3687 C3711 0.950 . S
H3688 C3712 0.950 . S
H3689 C3713 0.951 1_556 S
H3690 C3715 0.951 . S
H3691 C3717 0.950 . S
H3692 C3718 0.950 . S
H3693 C3720 0.950 . S
H3694 C3723 0.950 . S
H3695 C3724 0.950 . S
H3696 C3726 0.950 1_565 S
H3697 C3727 0.950 . S
C3698 H3680 0.951 . S
C3698 C3699 1.366 . S
C3698 C3700 1.388 . S
C3699 C3698 1.366 . S
C3699 C3703 1.385 . S
C3700 H3681 0.951 . S
C3700 C3698 1.388 . S
C3700 C3701 1.366 . S
C3701 C3700 1.366 . S
C3701 C3702 1.414 . S
C3701 C3704 1.499 . S
C3702 H3682 0.950 . S
C3702 C3701 1.414 . S
C3702 C3703 1.374 . S
C3703 H3683 0.950 . S
C3703 C3699 1.385 . S
C3703 C3702 1.374 . S
C3704 C3701 1.499 . S
C3704 C3705 1.373 . S
C3704 C3706 1.389 . S
C3705 H3684 0.950 . S
C3705 C3704 1.373 . S
C3705 C3721 1.377 . S
C3706 C3704 1.389 . S
C3706 C3707 1.524 . S
C3706 C3720 1.377 . S
C3707 C3706 1.524 . S
C3707 C3708 1.397 . S
C3707 C3712 1.363 . S
C3708 H3685 0.950 . S
C3708 C3707 1.397 . S
C3708 C3709 1.334 . S
C3709 H3686 0.950 . S
C3709 C3708 1.334 . S
C3709 C3710 1.287 . S
C3710 C3709 1.287 . S
C3710 C3711 1.524 . S
C3710 H3729 0.913 . S
C3711 H3687 0.950 . S
C3711 C3710 1.524 . S
C3711 C3712 1.415 . S
C3712 H3688 0.950 . S
C3712 C3707 1.363 . S
C3712 C3711 1.415 . S
C3713 H3689 0.951 1_554 S
C3713 C3714 1.366 . S
C3713 C3715 1.388 . S
C3714 C3713 1.366 . S
C3714 C3718 1.385 . S
C3715 H3690 0.951 . S
C3715 C3713 1.388 . S
C3715 C3716 1.366 . S
C3716 C3715 1.366 . S
C3716 C3717 1.414 . S
C3716 C3719 1.499 . S
C3717 H3691 0.950 . S
C3717 C3716 1.414 . S
C3717 C3718 1.374 . S
C3718 H3692 0.950 . S
C3718 C3714 1.385 . S
C3718 C3717 1.374 . S
C3719 C3716 1.499 . S
C3719 C3720 1.373 . S
C3719 C3721 1.389 . S
C3720 H3693 0.950 . S
C3720 C3706 1.377 . S
C3720 C3719 1.373 . S
C3721 C3705 1.377 . S
C3721 C3719 1.389 . S
C3721 C3722 1.524 . S
C3722 C3721 1.524 . S
C3722 C3723 1.397 . S
C3722 C3727 1.363 . S
C3723 H3694 0.950 . S
C3723 C3722 1.397 . S
C3723 C3724 1.334 . S
C3724 H3695 0.950 . S
C3724 C3723 1.334 . S
C3724 C3725 1.287 . S
C3725 C3724 1.287 . S
C3725 C3726 1.524 . S
C3725 H3728 0.999 1_545 S
C3726 H3696 0.950 1_545 S
C3726 C3725 1.524 . S
C3726 C3727 1.415 . S
C3727 H3697 0.950 . S
C3727 C3722 1.363 . S
C3727 C3726 1.415 . S
H3728 C3725 0.999 1_565 S
H3729 C3710 0.913 . S
H3730 C3748 0.951 . S
H3731 C3750 0.951 . S
H3732 C3752 0.950 . S
H3733 C3753 0.950 . S
H3734 C3755 0.950 . S
H3735 C3758 0.950 1_554 S
H3736 C3759 0.950 . S
H3737 C3761 0.950 . S
H3738 C3762 0.950 . S
H3739 C3763 0.951 . S
H3740 C3765 0.951 . S
H3741 C3767 0.950 . S
H3742 C3768 0.950 . S
H3743 C3770 0.988 . S
H3744 C3773 0.950 . S
H3745 C3774 0.950 . S
H3746 C3776 0.950 . S
H3747 C3777 0.950 . S
C3748 H3730 0.951 . S
C3748 C3749 1.366 . S
C3748 C3750 1.388 . S
C3749 C3748 1.366 . S
C3749 C3753 1.385 . S
C3750 H3731 0.951 . S
C3750 C3748 1.388 . S
C3750 C3751 1.366 . S
C3751 C3750 1.366 . S
C3751 C3752 1.414 . S
C3751 C3754 1.499 . S
C3752 H3732 0.950 . S
C3752 C3751 1.414 . S
C3752 C3753 1.374 . S
C3753 H3733 0.950 . S
C3753 C3749 1.385 . S
C3753 C3752 1.374 . S
C3754 C3751 1.499 . S
C3754 C3755 1.373 . S
C3754 C3756 1.389 . S
C3755 H3734 0.950 . S
C3755 C3754 1.373 . S
C3755 C3771 1.377 . S
C3756 C3754 1.389 . S
C3756 C3757 1.524 1_554 S
C3756 C3770 1.377 . S
C3757 C3756 1.524 1_556 S
C3757 C3758 1.397 . S
C3757 C3762 1.363 . S
C3758 H3735 0.950 1_556 S
C3758 C3757 1.397 . S
C3758 C3759 1.334 . S
C3759 H3736 0.950 . S
C3759 C3758 1.334 . S
C3759 C3760 1.287 . S
C3760 C3759 1.287 . S
C3760 C3761 1.524 . S
C3760 H3779 0.913 . S
C3761 H3737 0.950 . S
C3761 C3760 1.524 . S
C3761 C3762 1.415 . S
C3762 H3738 0.950 . S
C3762 C3757 1.363 . S
C3762 C3761 1.415 . S
C3763 H3739 0.951 . S
C3763 C3764 1.366 . S
C3763 C3765 1.388 . S
C3764 C3763 1.366 . S
C3764 C3768 1.385 . S
C3765 H3740 0.951 . S
C3765 C3763 1.388 . S
C3765 C3766 1.366 . S
C3766 C3765 1.366 . S
C3766 C3767 1.414 . S
C3766 C3769 1.499 . S
C3767 H3741 0.950 . S
C3767 C3766 1.414 . S
C3767 C3768 1.374 . S
C3768 H3742 0.950 . S
C3768 C3764 1.385 . S
C3768 C3767 1.374 . S
C3769 C3766 1.499 . S
C3769 C3770 1.373 . S
C3769 C3771 1.389 . S
C3770 H3743 0.988 . S
C3770 C3756 1.377 . S
C3770 C3769 1.373 . S
C3771 C3755 1.377 . S
C3771 C3769 1.389 . S
C3771 C3772 1.524 . S
C3772 C3771 1.524 . S
C3772 C3773 1.397 . S
C3772 C3777 1.363 . S
C3773 H3744 0.950 . S
C3773 C3772 1.397 . S
C3773 C3774 1.334 . S
C3774 H3745 0.950 . S
C3774 C3773 1.334 . S
C3774 C3775 1.287 . S
C3775 C3774 1.287 . S
C3775 C3776 1.524 . S
C3775 H3778 0.999 . S
C3776 H3746 0.950 . S
C3776 C3775 1.524 . S
C3776 C3777 1.415 . S
C3777 H3747 0.950 . S
C3777 C3772 1.363 . S
C3777 C3776 1.415 . S
H3778 C3775 0.999 . S
H3779 C3760 0.913 . S
H3780 C3798 0.951 . S
H3781 C3800 0.951 . S
H3782 C3802 0.950 . S
H3783 C3803 0.950 . S
H3784 C3805 0.950 . S
H3785 C3808 0.950 . S
H3786 C3809 0.950 . S
H3787 C3811 0.950 . S
H3788 C3812 0.950 . S
H3789 C3813 0.951 . S
H3790 C3815 0.951 . S
H3791 C3817 0.950 . S
H3792 C3818 0.950 . S
H3793 C3820 0.950 . S
H3794 C3823 0.950 . S
H3795 C3824 0.950 . S
H3796 C3826 0.950 . S
H3797 C3827 0.950 . S
C3798 H3780 0.951 . S
C3798 C3799 1.366 . S
C3798 C3800 1.388 . S
C3799 C3798 1.366 . S
C3799 C3803 1.385 . S
C3800 H3781 0.951 . S
C3800 C3798 1.388 . S
C3800 C3801 1.366 . S
C3801 C3800 1.366 . S
C3801 C3802 1.414 . S
C3801 C3804 1.499 . S
C3802 H3782 0.950 . S
C3802 C3801 1.414 . S
C3802 C3803 1.374 . S
C3803 H3783 0.950 . S
C3803 C3799 1.385 . S
C3803 C3802 1.374 . S
C3804 C3801 1.499 . S
C3804 C3805 1.373 . S
C3804 C3806 1.389 . S
C3805 H3784 0.950 . S
C3805 C3804 1.373 . S
C3805 C3821 1.377 . S
C3806 C3804 1.389 . S
C3806 C3807 1.524 . S
C3806 C3820 1.377 . S
C3807 C3806 1.524 . S
C3807 C3808 1.397 . S
C3807 C3812 1.363 . S
C3808 H3785 0.950 . S
C3808 C3807 1.397 . S
C3808 C3809 1.334 . S
C3809 H3786 0.950 . S
C3809 C3808 1.334 . S
C3809 C3810 1.287 . S
C3810 C3809 1.287 . S
C3810 C3811 1.524 . S
C3810 H3829 0.913 . S
C3811 H3787 0.950 . S
C3811 C3810 1.524 . S
C3811 C3812 1.415 . S
C3812 H3788 0.950 . S
C3812 C3807 1.363 . S
C3812 C3811 1.415 . S
C3813 H3789 0.951 . S
C3813 C3814 1.366 . S
C3813 C3815 1.388 . S
C3814 C3813 1.366 . S
C3814 C3818 1.385 . S
C3815 H3790 0.951 . S
C3815 C3813 1.388 . S
C3815 C3816 1.366 . S
C3816 C3815 1.366 . S
C3816 C3817 1.414 . S
C3816 C3819 1.499 . S
C3817 H3791 0.950 . S
C3817 C3816 1.414 . S
C3817 C3818 1.374 . S
C3818 H3792 0.950 . S
C3818 C3814 1.385 . S
C3818 C3817 1.374 . S
C3819 C3816 1.499 . S
C3819 C3820 1.373 . S
C3819 C3821 1.389 . S
C3820 H3793 0.950 . S
C3820 C3806 1.377 . S
C3820 C3819 1.373 . S
C3821 C3805 1.377 . S
C3821 C3819 1.389 . S
C3821 C3822 1.524 . S
C3822 C3821 1.524 . S
C3822 C3823 1.397 . S
C3822 C3827 1.363 . S
C3823 H3794 0.950 . S
C3823 C3822 1.397 . S
C3823 C3824 1.334 . S
C3824 H3795 0.950 . S
C3824 C3823 1.334 . S
C3824 C3825 1.287 . S
C3825 C3824 1.287 . S
C3825 C3826 1.524 . S
C3825 H3828 0.999 . S
C3826 H3796 0.950 . S
C3826 C3825 1.524 . S
C3826 C3827 1.415 . S
C3827 H3797 0.950 . S
C3827 C3822 1.363 . S
C3827 C3826 1.415 . S
H3828 C3825 0.999 . S
H3829 C3810 0.913 . S
H3830 C3848 0.951 . S
H3831 C3850 0.951 . S
H3832 C3852 0.950 . S
H3833 C3853 0.950 . S
H3834 C3855 0.950 . S
H3835 C3858 0.950 . S
H3836 C3859 0.950 . S
H3837 C3861 0.950 . S
H3838 C3862 0.950 . S
H3839 C3863 0.951 . S
H3840 C3865 0.951 . S
H3841 C3867 0.950 . S
H3842 C3868 0.950 . S
H3843 C3870 0.950 . S
H3844 C3873 0.950 . S
H3845 C3874 0.950 . S
H3846 C3876 0.950 . S
H3847 C3877 0.950 . S
C3848 H3830 0.951 . S
C3848 C3849 1.366 . S
C3848 C3850 1.388 . S
C3849 C3848 1.366 . S
C3849 C3853 1.385 . S
C3850 H3831 0.951 . S
C3850 C3848 1.388 . S
C3850 C3851 1.366 . S
C3851 C3850 1.366 . S
C3851 C3852 1.414 . S
C3851 C3854 1.499 . S
C3852 H3832 0.950 . S
C3852 C3851 1.414 . S
C3852 C3853 1.374 . S
C3853 H3833 0.950 . S
C3853 C3849 1.385 . S
C3853 C3852 1.374 . S
C3854 C3851 1.499 . S
C3854 C3855 1.373 . S
C3854 C3856 1.389 . S
C3855 H3834 0.950 . S
C3855 C3854 1.373 . S
C3855 C3871 1.377 . S
C3856 C3854 1.389 . S
C3856 C3857 1.524 . S
C3856 C3870 1.377 . S
C3857 C3856 1.524 . S
C3857 C3858 1.397 . S
C3857 C3862 1.363 . S
C3858 H3835 0.950 . S
C3858 C3857 1.397 . S
C3858 C3859 1.334 . S
C3859 H3836 0.950 . S
C3859 C3858 1.334 . S
C3859 C3860 1.287 . S
C3860 C3859 1.287 . S
C3860 C3861 1.524 . S
C3860 H3879 0.913 . S
C3861 H3837 0.950 . S
C3861 C3860 1.524 . S
C3861 C3862 1.415 . S
C3862 H3838 0.950 . S
C3862 C3857 1.363 . S
C3862 C3861 1.415 . S
C3863 H3839 0.951 . S
C3863 C3864 1.366 . S
C3863 C3865 1.388 . S
C3864 C3863 1.366 . S
C3864 C3868 1.385 . S
C3865 H3840 0.951 . S
C3865 C3863 1.388 . S
C3865 C3866 1.366 . S
C3866 C3865 1.366 . S
C3866 C3867 1.414 . S
C3866 C3869 1.499 . S
C3867 H3841 0.950 . S
C3867 C3866 1.414 . S
C3867 C3868 1.374 . S
C3868 H3842 0.950 . S
C3868 C3864 1.385 . S
C3868 C3867 1.374 . S
C3869 C3866 1.499 . S
C3869 C3870 1.373 . S
C3869 C3871 1.389 . S
C3870 H3843 0.950 . S
C3870 C3856 1.377 . S
C3870 C3869 1.373 . S
C3871 C3855 1.377 . S
C3871 C3869 1.389 . S
C3871 C3872 1.524 . S
C3872 C3871 1.524 . S
C3872 C3873 1.397 . S
C3872 C3877 1.363 . S
C3873 H3844 0.950 . S
C3873 C3872 1.397 . S
C3873 C3874 1.334 . S
C3874 H3845 0.950 . S
C3874 C3873 1.334 . S
C3874 C3875 1.287 . S
C3875 C3874 1.287 . S
C3875 C3876 1.524 . S
C3875 H3878 0.999 . S
C3876 H3846 0.950 . S
C3876 C3875 1.524 . S
C3876 C3877 1.415 . S
C3877 H3847 0.950 . S
C3877 C3872 1.363 . S
C3877 C3876 1.415 . S
H3878 C3875 0.999 . S
H3879 C3860 0.913 . S
H3880 C3898 0.951 1_545 S
H3881 C3900 0.951 . S
H3882 C3902 0.950 . S
H3883 C3903 0.950 . S
H3884 C3905 0.950 . S
H3885 C3908 0.950 . S
H3886 C3909 0.950 . S
H3887 C3911 0.950 . S
H3888 C3912 0.950 . S
H3889 C3913 0.951 . S
H3890 C3915 0.951 . S
H3891 C3917 0.950 . S
H3892 C3918 0.950 . S
H3893 C3920 0.950 . S
H3894 C3923 0.950 . S
H3895 C3924 0.950 . S
H3896 C3926 0.950 . S
H3897 C3927 0.950 . S
C3898 H3880 0.951 1_565 S
C3898 C3899 1.366 . S
C3898 C3900 1.388 . S
C3899 C3898 1.366 . S
C3899 C3903 1.385 . S
C3900 H3881 0.951 . S
C3900 C3898 1.388 . S
C3900 C3901 1.366 . S
C3901 C3900 1.366 . S
C3901 C3902 1.414 . S
C3901 C3904 1.499 . S
C3902 H3882 0.950 . S
C3902 C3901 1.414 . S
C3902 C3903 1.374 . S
C3903 H3883 0.950 . S
C3903 C3899 1.385 . S
C3903 C3902 1.374 . S
C3904 C3901 1.499 . S
C3904 C3905 1.373 . S
C3904 C3906 1.389 . S
C3905 H3884 0.950 . S
C3905 C3904 1.373 . S
C3905 C3921 1.377 . S
C3906 C3904 1.389 . S
C3906 C3907 1.524 . S
C3906 C3920 1.377 . S
C3907 C3906 1.524 . S
C3907 C3908 1.397 . S
C3907 C3912 1.363 . S
C3908 H3885 0.950 . S
C3908 C3907 1.397 . S
C3908 C3909 1.334 . S
C3909 H3886 0.950 . S
C3909 C3908 1.334 . S
C3909 C3910 1.287 . S
C3910 C3909 1.287 . S
C3910 C3911 1.524 . S
C3910 H3929 0.913 1_565 S
C3911 H3887 0.950 . S
C3911 C3910 1.524 . S
C3911 C3912 1.415 . S
C3912 H3888 0.950 . S
C3912 C3907 1.363 . S
C3912 C3911 1.415 . S
C3913 H3889 0.951 . S
C3913 C3914 1.366 . S
C3913 C3915 1.388 . S
C3914 C3913 1.366 . S
C3914 C3918 1.385 . S
C3915 H3890 0.951 . S
C3915 C3913 1.388 . S
C3915 C3916 1.366 . S
C3916 C3915 1.366 . S
C3916 C3917 1.414 . S
C3916 C3919 1.499 . S
C3917 H3891 0.950 . S
C3917 C3916 1.414 . S
C3917 C3918 1.374 . S
C3918 H3892 0.950 . S
C3918 C3914 1.385 . S
C3918 C3917 1.374 . S
C3919 C3916 1.499 . S
C3919 C3920 1.373 . S
C3919 C3921 1.389 . S
C3920 H3893 0.950 . S
C3920 C3906 1.377 . S
C3920 C3919 1.373 . S
C3921 C3905 1.377 . S
C3921 C3919 1.389 . S
C3921 C3922 1.524 . S
C3922 C3921 1.524 . S
C3922 C3923 1.397 . S
C3922 C3927 1.363 . S
C3923 H3894 0.950 . S
C3923 C3922 1.397 . S
C3923 C3924 1.334 . S
C3924 H3895 0.950 . S
C3924 C3923 1.334 . S
C3924 C3925 1.287 . S
C3925 C3924 1.287 . S
C3925 C3926 1.524 . S
C3925 H3928 0.999 . S
C3926 H3896 0.950 . S
C3926 C3925 1.524 . S
C3926 C3927 1.415 . S
C3927 H3897 0.950 . S
C3927 C3922 1.363 . S
C3927 C3926 1.415 . S
H3928 C3925 0.999 . S
H3929 C3910 0.913 1_545 S
H3930 C3948 0.951 . S
H3931 C3950 0.951 . S
H3932 C3952 0.950 . S
H3933 C3953 0.950 . S
H3934 C3955 0.950 . S
H3935 C3958 0.950 . S
H3936 C3959 0.950 . S
H3937 C3961 0.950 . S
H3938 C3962 0.950 . S
H3939 C3963 0.951 . S
H3940 C3965 0.951 . S
H3941 C3967 0.950 . S
H3942 C3968 0.950 . S
H3943 C3970 0.950 . S
H3944 C3973 0.950 . S
H3945 C3974 0.950 . S
H3946 C3976 0.950 . S
H3947 C3977 0.950 . S
C3948 H3930 0.951 . S
C3948 C3949 1.366 . S
C3948 C3950 1.388 . S
C3949 C3948 1.366 . S
C3949 C3953 1.385 . S
C3950 H3931 0.951 . S
C3950 C3948 1.388 . S
C3950 C3951 1.366 . S
C3951 C3950 1.366 . S
C3951 C3952 1.414 . S
C3951 C3954 1.499 . S
C3952 H3932 0.950 . S
C3952 C3951 1.414 . S
C3952 C3953 1.374 . S
C3953 H3933 0.950 . S
C3953 C3949 1.385 . S
C3953 C3952 1.374 . S
C3954 C3951 1.499 . S
C3954 C3955 1.373 . S
C3954 C3956 1.389 . S
C3955 H3934 0.950 . S
C3955 C3954 1.373 . S
C3955 C3971 1.377 . S
C3956 C3954 1.389 . S
C3956 C3957 1.524 . S
C3956 C3970 1.377 . S
C3957 C3956 1.524 . S
C3957 C3958 1.397 . S
C3957 C3962 1.363 . S
C3958 H3935 0.950 . S
C3958 C3957 1.397 . S
C3958 C3959 1.334 . S
C3959 H3936 0.950 . S
C3959 C3958 1.334 . S
C3959 C3960 1.287 . S
C3960 C3959 1.287 . S
C3960 C3961 1.524 . S
C3960 H3979 0.913 . S
C3961 H3937 0.950 . S
C3961 C3960 1.524 . S
C3961 C3962 1.415 . S
C3962 H3938 0.950 . S
C3962 C3957 1.363 . S
C3962 C3961 1.415 . S
C3963 H3939 0.951 . S
C3963 C3964 1.366 . S
C3963 C3965 1.388 . S
C3964 C3963 1.366 . S
C3964 C3968 1.385 . S
C3965 H3940 0.951 . S
C3965 C3963 1.388 . S
C3965 C3966 1.366 . S
C3966 C3965 1.366 . S
C3966 C3967 1.414 . S
C3966 C3969 1.499 . S
C3967 H3941 0.950 . S
C3967 C3966 1.414 . S
C3967 C3968 1.374 . S
C3968 H3942 0.950 . S
C3968 C3964 1.385 . S
C3968 C3967 1.374 . S
C3969 C3966 1.499 . S
C3969 C3970 1.373 . S
C3969 C3971 1.389 . S
C3970 H3943 0.950 . S
C3970 C3956 1.377 . S
C3970 C3969 1.373 . S
C3971 C3955 1.377 . S
C3971 C3969 1.389 . S
C3971 C3972 1.524 . S
C3972 C3971 1.524 . S
C3972 C3973 1.397 . S
C3972 C3977 1.363 . S
C3973 H3944 0.950 . S
C3973 C3972 1.397 . S
C3973 C3974 1.334 . S
C3974 H3945 0.950 . S
C3974 C3973 1.334 . S
C3974 C3975 1.287 . S
C3975 C3974 1.287 . S
C3975 C3976 1.524 . S
C3975 H3978 0.999 . S
C3976 H3946 0.950 . S
C3976 C3975 1.524 . S
C3976 C3977 1.415 . S
C3977 H3947 0.950 . S
C3977 C3972 1.363 . S
C3977 C3976 1.415 . S
H3978 C3975 0.999 . S
H3979 C3960 0.913 . S
H3980 C3998 0.951 . S
H3981 C4000 0.951 . S
H3982 C4002 0.950 . S
H3983 C4003 0.950 . S
H3984 C4005 0.950 . S
H3985 C4008 0.950 . S
H3986 C4009 0.950 . S
H3987 C4011 0.950 . S
H3988 C4012 0.950 . S
H3989 C4013 0.951 . S
H3990 C4015 0.951 . S
H3991 C4017 0.950 . S
H3992 C4018 0.950 . S
H3993 C4020 0.950 . S
H3994 C4023 0.950 . S
H3995 C4024 0.950 . S
H3996 C4026 0.950 . S
H3997 C4027 0.950 . S
C3998 H3980 0.951 . S
C3998 C3999 1.366 . S
C3998 C4000 1.388 . S
C3999 C3998 1.366 . S
C3999 C4003 1.385 . S
C4000 H3981 0.951 . S
C4000 C3998 1.388 . S
C4000 C4001 1.366 . S
C4001 C4000 1.366 . S
C4001 C4002 1.414 . S
C4001 C4004 1.499 . S
C4002 H3982 0.950 . S
C4002 C4001 1.414 . S
C4002 C4003 1.374 . S
C4003 H3983 0.950 . S
C4003 C3999 1.385 . S
C4003 C4002 1.374 . S
C4004 C4001 1.499 . S
C4004 C4005 1.373 . S
C4004 C4006 1.389 . S
C4005 H3984 0.950 . S
C4005 C4004 1.373 . S
C4005 C4021 1.377 . S
C4006 C4004 1.389 . S
C4006 C4007 1.524 . S
C4006 C4020 1.377 . S
C4007 C4006 1.524 . S
C4007 C4008 1.397 . S
C4007 C4012 1.363 . S
C4008 H3985 0.950 . S
C4008 C4007 1.397 . S
C4008 C4009 1.334 . S
C4009 H3986 0.950 . S
C4009 C4008 1.334 . S
C4009 C4010 1.287 . S
C4010 C4009 1.287 . S
C4010 C4011 1.524 . S
C4010 H4029 0.913 . S
C4011 H3987 0.950 . S
C4011 C4010 1.524 . S
C4011 C4012 1.415 . S
C4012 H3988 0.950 . S
C4012 C4007 1.363 . S
C4012 C4011 1.415 . S
C4013 H3989 0.951 . S
C4013 C4014 1.366 . S
C4013 C4015 1.388 . S
C4014 C4013 1.366 . S
C4014 C4018 1.385 . S
C4015 H3990 0.951 . S
C4015 C4013 1.388 . S
C4015 C4016 1.366 . S
C4016 C4015 1.366 . S
C4016 C4017 1.414 . S
C4016 C4019 1.499 . S
C4017 H3991 0.950 . S
C4017 C4016 1.414 . S
C4017 C4018 1.374 . S
C4018 H3992 0.950 . S
C4018 C4014 1.385 . S
C4018 C4017 1.374 . S
C4019 C4016 1.499 . S
C4019 C4020 1.373 . S
C4019 C4021 1.389 . S
C4020 H3993 0.950 . S
C4020 C4006 1.377 . S
C4020 C4019 1.373 . S
C4021 C4005 1.377 . S
C4021 C4019 1.389 . S
C4021 C4022 1.524 . S
C4022 C4021 1.524 . S
C4022 C4023 1.397 . S
C4022 C4027 1.363 . S
C4023 H3994 0.950 . S
C4023 C4022 1.397 . S
C4023 C4024 1.334 . S
C4024 H3995 0.950 . S
C4024 C4023 1.334 . S
C4024 C4025 1.287 . S
C4025 C4024 1.287 . S
C4025 C4026 1.524 . S
C4025 H4028 0.999 . S
C4026 H3996 0.950 . S
C4026 C4025 1.524 . S
C4026 C4027 1.415 . S
C4027 H3997 0.950 . S
C4027 C4022 1.363 . S
C4027 C4026 1.415 . S
H4028 C4025 0.999 . S
H4029 C4010 0.913 . S
H4030 C4048 0.951 . S
H4031 C4050 0.951 . S
H4032 C4052 0.950 . S
H4033 C4053 0.950 . S
H4034 C4055 0.950 . S
H4035 C4058 0.950 . S
H4036 C4059 0.950 . S
H4037 C4061 0.950 . S
H4038 C4062 0.950 . S
H4039 C4063 0.951 . S
H4040 C4065 0.951 . S
H4041 C4067 0.950 . S
H4042 C4068 0.950 . S
H4043 C4070 0.950 . S
H4044 C4073 0.950 . S
H4045 C4074 0.950 . S
H4046 C4076 0.950 . S
H4047 C4077 0.950 . S
C4048 H4030 0.951 . S
C4048 C4049 1.366 . S
C4048 C4050 1.388 . S
C4049 C4048 1.366 . S
C4049 C4053 1.385 . S
C4050 H4031 0.951 . S
C4050 C4048 1.388 . S
C4050 C4051 1.366 . S
C4051 C4050 1.366 . S
C4051 C4052 1.414 . S
C4051 C4054 1.499 . S
C4052 H4032 0.950 . S
C4052 C4051 1.414 . S
C4052 C4053 1.374 . S
C4053 H4033 0.950 . S
C4053 C4049 1.385 . S
C4053 C4052 1.374 . S
C4054 C4051 1.499 . S
C4054 C4055 1.373 . S
C4054 C4056 1.389 . S
C4055 H4034 0.950 . S
C4055 C4054 1.373 . S
C4055 C4071 1.377 . S
C4056 C4054 1.389 . S
C4056 C4057 1.524 . S
C4056 C4070 1.377 . S
C4057 C4056 1.524 . S
C4057 C4058 1.397 . S
C4057 C4062 1.363 . S
C4058 H4035 0.950 . S
C4058 C4057 1.397 . S
C4058 C4059 1.334 . S
C4059 H4036 0.950 . S
C4059 C4058 1.334 . S
C4059 C4060 1.287 . S
C4060 C4059 1.287 . S
C4060 C4061 1.524 . S
C4060 H4079 0.913 . S
C4061 H4037 0.950 . S
C4061 C4060 1.524 . S
C4061 C4062 1.415 . S
C4062 H4038 0.950 . S
C4062 C4057 1.363 . S
C4062 C4061 1.415 . S
C4063 H4039 0.951 . S
C4063 C4064 1.366 . S
C4063 C4065 1.388 . S
C4064 C4063 1.366 . S
C4064 C4068 1.385 . S
C4065 H4040 0.951 . S
C4065 C4063 1.388 . S
C4065 C4066 1.366 . S
C4066 C4065 1.366 . S
C4066 C4067 1.414 . S
C4066 C4069 1.499 . S
C4067 H4041 0.950 . S
C4067 C4066 1.414 . S
C4067 C4068 1.374 . S
C4068 H4042 0.950 . S
C4068 C4064 1.385 . S
C4068 C4067 1.374 . S
C4069 C4066 1.499 . S
C4069 C4070 1.373 . S
C4069 C4071 1.389 . S
C4070 H4043 0.950 . S
C4070 C4056 1.377 . S
C4070 C4069 1.373 . S
C4071 C4055 1.377 . S
C4071 C4069 1.389 . S
C4071 C4072 1.524 . S
C4072 C4071 1.524 . S
C4072 C4073 1.397 . S
C4072 C4077 1.363 . S
C4073 H4044 0.950 . S
C4073 C4072 1.397 . S
C4073 C4074 1.334 . S
C4074 H4045 0.950 . S
C4074 C4073 1.334 . S
C4074 C4075 1.287 . S
C4075 C4074 1.287 . S
C4075 C4076 1.524 . S
C4075 H4078 0.999 . S
C4076 H4046 0.950 . S
C4076 C4075 1.524 . S
C4076 C4077 1.415 . S
C4077 H4047 0.950 . S
C4077 C4072 1.363 . S
C4077 C4076 1.415 . S
H4078 C4075 0.999 . S
H4079 C4060 0.913 . S
H4080 C4098 0.951 . S
H4081 C4100 0.951 . S
H4082 C4102 0.950 . S
H4083 C4103 0.950 . S
H4084 C4105 0.950 . S
H4085 C4108 0.950 . S
H4086 C4109 0.950 . S
H4087 C4111 0.950 . S
H4088 C4112 0.950 . S
H4089 C4113 0.951 . S
H4090 C4115 0.951 . S
H4091 C4117 0.950 . S
H4092 C4118 0.950 . S
H4093 C4120 0.950 . S
H4094 C4123 0.950 . S
H4095 C4124 0.950 . S
H4096 C4126 0.950 . S
H4097 C4127 0.950 . S
C4098 H4080 0.951 . S
C4098 C4099 1.366 . S
C4098 C4100 1.388 . S
C4099 C4098 1.366 . S
C4099 C4103 1.385 . S
C4100 H4081 0.951 . S
C4100 C4098 1.388 . S
C4100 C4101 1.366 . S
C4101 C4100 1.366 . S
C4101 C4102 1.414 . S
C4101 C4104 1.499 . S
C4102 H4082 0.950 . S
C4102 C4101 1.414 . S
C4102 C4103 1.374 . S
C4103 H4083 0.950 . S
C4103 C4099 1.385 . S
C4103 C4102 1.374 . S
C4104 C4101 1.499 . S
C4104 C4105 1.373 . S
C4104 C4106 1.389 . S
C4105 H4084 0.950 . S
C4105 C4104 1.373 . S
C4105 C4121 1.377 . S
C4106 C4104 1.389 . S
C4106 C4107 1.524 . S
C4106 C4120 1.377 . S
C4107 C4106 1.524 . S
C4107 C4108 1.397 . S
C4107 C4112 1.363 . S
C4108 H4085 0.950 . S
C4108 C4107 1.397 . S
C4108 C4109 1.334 . S
C4109 H4086 0.950 . S
C4109 C4108 1.334 . S
C4109 C4110 1.287 . S
C4110 C4109 1.287 . S
C4110 C4111 1.524 . S
C4110 H4129 0.913 . S
C4111 H4087 0.950 . S
C4111 C4110 1.524 . S
C4111 C4112 1.415 . S
C4112 H4088 0.950 . S
C4112 C4107 1.363 . S
C4112 C4111 1.415 . S
C4113 H4089 0.951 . S
C4113 C4114 1.366 . S
C4113 C4115 1.388 . S
C4114 C4113 1.366 . S
C4114 C4118 1.385 . S
C4115 H4090 0.951 . S
C4115 C4113 1.388 . S
C4115 C4116 1.366 . S
C4116 C4115 1.366 . S
C4116 C4117 1.414 . S
C4116 C4119 1.499 . S
C4117 H4091 0.950 . S
C4117 C4116 1.414 . S
C4117 C4118 1.374 . S
C4118 H4092 0.950 . S
C4118 C4114 1.385 . S
C4118 C4117 1.374 . S
C4119 C4116 1.499 . S
C4119 C4120 1.373 . S
C4119 C4121 1.389 . S
C4120 H4093 0.950 . S
C4120 C4106 1.377 . S
C4120 C4119 1.373 . S
C4121 C4105 1.377 . S
C4121 C4119 1.389 . S
C4121 C4122 1.524 . S
C4122 C4121 1.524 . S
C4122 C4123 1.397 . S
C4122 C4127 1.363 . S
C4123 H4094 0.950 . S
C4123 C4122 1.397 . S
C4123 C4124 1.334 . S
C4124 H4095 0.950 . S
C4124 C4123 1.334 . S
C4124 C4125 1.287 . S
C4125 C4124 1.287 . S
C4125 C4126 1.524 . S
C4125 H4128 0.999 . S
C4126 H4096 0.950 . S
C4126 C4125 1.524 . S
C4126 C4127 1.415 . S
C4127 H4097 0.950 . S
C4127 C4122 1.363 . S
C4127 C4126 1.415 . S
H4128 C4125 0.999 . S
H4129 C4110 0.913 . S
H4130 C4148 0.951 . S
H4131 C4150 0.951 . S
H4132 C4152 0.950 . S
H4133 C4153 0.950 . S
H4134 C4155 0.950 . S
H4135 C4158 0.950 . S
H4136 C4159 0.950 . S
H4137 C4161 0.950 . S
H4138 C4162 0.950 . S
H4139 C4163 0.951 . S
H4140 C4165 0.951 . S
H4141 C4167 0.950 . S
H4142 C4168 0.950 . S
H4143 C4170 0.950 . S
H4144 C4173 0.950 . S
H4145 C4174 0.950 . S
H4146 C4176 0.950 . S
H4147 C4177 0.950 . S
C4148 H4130 0.951 . S
C4148 C4149 1.366 . S
C4148 C4150 1.388 . S
C4149 C4148 1.366 . S
C4149 C4153 1.385 . S
C4150 H4131 0.951 . S
C4150 C4148 1.388 . S
C4150 C4151 1.366 . S
C4151 C4150 1.366 . S
C4151 C4152 1.414 . S
C4151 C4154 1.499 . S
C4152 H4132 0.950 . S
C4152 C4151 1.414 . S
C4152 C4153 1.374 . S
C4153 H4133 0.950 . S
C4153 C4149 1.385 . S
C4153 C4152 1.374 . S
C4154 C4151 1.499 . S
C4154 C4155 1.373 . S
C4154 C4156 1.389 . S
C4155 H4134 0.950 . S
C4155 C4154 1.373 . S
C4155 C4171 1.377 . S
C4156 C4154 1.389 . S
C4156 C4157 1.524 . S
C4156 C4170 1.377 . S
C4157 C4156 1.524 . S
C4157 C4158 1.397 . S
C4157 C4162 1.363 . S
C4158 H4135 0.950 . S
C4158 C4157 1.397 . S
C4158 C4159 1.334 . S
C4159 H4136 0.950 . S
C4159 C4158 1.334 . S
C4159 C4160 1.287 . S
C4160 C4159 1.287 . S
C4160 C4161 1.524 . S
C4160 H4179 0.913 . S
C4161 H4137 0.950 . S
C4161 C4160 1.524 . S
C4161 C4162 1.415 . S
C4162 H4138 0.950 . S
C4162 C4157 1.363 . S
C4162 C4161 1.415 . S
C4163 H4139 0.951 . S
C4163 C4164 1.366 . S
C4163 C4165 1.388 . S
C4164 C4163 1.366 . S
C4164 C4168 1.385 . S
C4165 H4140 0.951 . S
C4165 C4163 1.388 . S
C4165 C4166 1.366 . S
C4166 C4165 1.366 . S
C4166 C4167 1.414 . S
C4166 C4169 1.499 . S
C4167 H4141 0.950 . S
C4167 C4166 1.414 . S
C4167 C4168 1.374 . S
C4168 H4142 0.950 . S
C4168 C4164 1.385 . S
C4168 C4167 1.374 . S
C4169 C4166 1.499 . S
C4169 C4170 1.373 . S
C4169 C4171 1.389 . S
C4170 H4143 0.950 . S
C4170 C4156 1.377 . S
C4170 C4169 1.373 . S
C4171 C4155 1.377 . S
C4171 C4169 1.389 . S
C4171 C4172 1.524 . S
C4172 C4171 1.524 . S
C4172 C4173 1.397 . S
C4172 C4177 1.363 . S
C4173 H4144 0.950 . S
C4173 C4172 1.397 . S
C4173 C4174 1.334 . S
C4174 H4145 0.950 . S
C4174 C4173 1.334 . S
C4174 C4175 1.287 . S
C4175 C4174 1.287 . S
C4175 C4176 1.524 . S
C4175 H4178 0.999 . S
C4176 H4146 0.950 . S
C4176 C4175 1.524 . S
C4176 C4177 1.415 . S
C4177 H4147 0.950 . S
C4177 C4172 1.363 . S
C4177 C4176 1.415 . S
H4178 C4175 0.999 . S
H4179 C4160 0.913 . S
H4180 C4198 0.951 . S
H4181 C4200 0.951 . S
H4182 C4202 1.007 . S
H4183 C4203 0.950 . S
H4184 C4205 0.950 . S
H4185 C4208 0.950 . S
H4186 C4209 0.950 . S
H4187 C4211 0.950 . S
H4188 C4212 0.950 . S
H4189 C4213 0.951 . S
H4190 C4215 0.951 . S
H4191 C4217 0.950 . S
H4192 C4218 0.950 . S
H4193 C4220 0.950 . S
H4194 C4223 0.950 1_556 S
H4195 C4224 0.950 . S
H4196 C4226 0.950 . S
H4197 C4227 0.950 . S
C4198 H4180 0.951 . S
C4198 C4199 1.366 . S
C4198 C4200 1.388 . S
C4199 C4198 1.366 . S
C4199 C4203 1.385 . S
C4200 H4181 0.951 . S
C4200 C4198 1.388 . S
C4200 C4201 1.366 . S
C4201 C4200 1.366 . S
C4201 C4202 1.414 . S
C4201 C4204 1.499 . S
C4202 H4182 1.007 . S
C4202 C4201 1.414 . S
C4202 C4203 1.374 . S
C4203 H4183 0.950 . S
C4203 C4199 1.385 . S
C4203 C4202 1.374 . S
C4204 C4201 1.499 . S
C4204 C4205 1.373 1_455 S
C4204 C4206 1.389 . S
C4205 H4184 0.950 . S
C4205 C4204 1.373 1_655 S
C4205 C4221 1.377 . S
C4206 C4204 1.389 . S
C4206 C4207 1.524 . S
C4206 C4220 1.377 . S
C4207 C4206 1.524 . S
C4207 C4208 1.397 . S
C4207 C4212 1.363 . S
C4208 H4185 0.950 . S
C4208 C4207 1.397 . S
C4208 C4209 1.334 . S
C4209 H4186 0.950 . S
C4209 C4208 1.334 . S
C4209 C4210 1.287 . S
C4210 C4209 1.287 . S
C4210 C4211 1.524 . S
C4210 H4229 0.913 . S
C4211 H4187 0.950 . S
C4211 C4210 1.524 . S
C4211 C4212 1.415 . S
C4212 H4188 0.950 . S
C4212 C4207 1.363 . S
C4212 C4211 1.415 . S
C4213 H4189 0.951 . S
C4213 C4214 1.366 . S
C4213 C4215 1.388 . S
C4214 C4213 1.366 . S
C4214 C4218 1.385 1_554 S
C4215 H4190 0.951 . S
C4215 C4213 1.388 . S
C4215 C4216 1.366 1_554 S
C4216 C4215 1.366 1_556 S
C4216 C4217 1.414 . S
C4216 C4219 1.499 . S
C4217 H4191 0.950 . S
C4217 C4216 1.414 . S
C4217 C4218 1.374 . S
C4218 H4192 0.950 . S
C4218 C4214 1.385 1_556 S
C4218 C4217 1.374 . S
C4219 C4216 1.499 . S
C4219 C4220 1.373 . S
C4219 C4221 1.389 1_455 S
C4220 H4193 0.950 . S
C4220 C4206 1.377 . S
C4220 C4219 1.373 . S
C4221 C4205 1.377 . S
C4221 C4219 1.389 1_655 S
C4221 C4222 1.524 1_556 S
C4222 C4221 1.524 1_554 S
C4222 C4223 1.397 . S
C4222 C4227 1.363 . S
C4223 H4194 0.950 1_554 S
C4223 C4222 1.397 . S
C4223 C4224 1.334 . S
C4224 H4195 0.950 . S
C4224 C4223 1.334 . S
C4224 C4225 1.287 . S
C4225 C4224 1.287 . S
C4225 C4226 1.524 . S
C4225 H4228 0.999 . S
C4226 H4196 0.950 . S
C4226 C4225 1.524 . S
C4226 C4227 1.415 . S
C4227 H4197 0.950 . S
C4227 C4222 1.363 . S
C4227 C4226 1.415 . S
H4228 C4225 0.999 . S
H4229 C4210 0.913 . S
H4230 C4248 0.951 . S
H4231 C4250 0.951 . S
H4232 C4252 0.950 . S
H4233 C4253 0.950 . S
H4234 C4255 0.950 . S
H4235 C4258 0.950 . S
H4236 C4259 0.950 . S
H4237 C4261 0.950 . S
H4238 C4262 0.950 . S
H4239 C4263 0.951 . S
H4240 C4265 0.951 . S
H4241 C4267 0.950 . S
H4242 C4268 0.950 . S
H4243 C4270 0.950 . S
H4244 C4273 0.950 . S
H4245 C4274 0.950 . S
H4246 C4276 0.950 . S
H4247 C4277 0.950 . S
C4248 H4230 0.951 . S
C4248 C4249 1.366 . S
C4248 C4250 1.388 1_455 S
C4249 C4248 1.366 . S
C4249 C4253 1.385 1_455 S
C4250 H4231 0.951 . S
C4250 C4248 1.388 1_655 S
C4250 C4251 1.366 . S
C4251 C4250 1.366 . S
C4251 C4252 1.414 . S
C4251 C4254 1.499 . S
C4252 H4232 0.950 . S
C4252 C4251 1.414 . S
C4252 C4253 1.374 . S
C4253 H4233 0.950 . S
C4253 C4249 1.385 1_655 S
C4253 C4252 1.374 . S
C4254 C4251 1.499 . S
C4254 C4255 1.373 . S
C4254 C4256 1.389 . S
C4255 H4234 0.950 . S
C4255 C4254 1.373 . S
C4255 C4271 1.377 . S
C4256 C4254 1.389 . S
C4256 C4257 1.524 . S
C4256 C4270 1.377 . S
C4257 C4256 1.524 . S
C4257 C4258 1.397 . S
C4257 C4262 1.363 . S
C4258 H4235 0.950 . S
C4258 C4257 1.397 . S
C4258 C4259 1.334 . S
C4259 H4236 0.950 . S
C4259 C4258 1.334 . S
C4259 C4260 1.287 . S
C4260 C4259 1.287 . S
C4260 C4261 1.524 . S
C4260 H4279 0.890 1_655 S
C4261 H4237 0.950 . S
C4261 C4260 1.524 . S
C4261 C4262 1.415 . S
C4262 H4238 0.950 . S
C4262 C4257 1.363 . S
C4262 C4261 1.415 . S
C4263 H4239 0.951 . S
C4263 C4264 1.366 . S
C4263 C4265 1.388 . S
C4264 C4263 1.366 . S
C4264 C4268 1.385 . S
C4265 H4240 0.951 . S
C4265 C4263 1.388 . S
C4265 C4266 1.366 . S
C4266 C4265 1.366 . S
C4266 C4267 1.414 . S
C4266 C4269 1.499 . S
C4267 H4241 0.950 . S
C4267 C4266 1.414 . S
C4267 C4268 1.374 . S
C4268 H4242 0.950 . S
C4268 C4264 1.385 . S
C4268 C4267 1.374 . S
C4269 C4266 1.499 . S
C4269 C4270 1.373 . S
C4269 C4271 1.389 . S
C4270 H4243 0.950 . S
C4270 C4256 1.377 . S
C4270 C4269 1.373 . S
C4271 C4255 1.377 . S
C4271 C4269 1.389 . S
C4271 C4272 1.524 . S
C4272 C4271 1.524 . S
C4272 C4273 1.397 . S
C4272 C4277 1.363 . S
C4273 H4244 0.950 . S
C4273 C4272 1.397 . S
C4273 C4274 1.334 . S
C4274 H4245 0.950 . S
C4274 C4273 1.334 . S
C4274 C4275 1.287 . S
C4275 C4274 1.287 . S
C4275 C4276 1.524 . S
C4275 H4278 0.999 . S
C4276 H4246 0.950 . S
C4276 C4275 1.524 . S
C4276 C4277 1.415 . S
C4277 H4247 0.950 . S
C4277 C4272 1.363 . S
C4277 C4276 1.415 . S
H4278 C4275 0.999 . S
H4279 C4260 0.890 1_455 S
H4280 C4298 0.951 . S
H4281 C4300 0.951 . S
H4282 C4302 0.950 . S
H4283 C4303 0.950 . S
H4284 C4305 0.950 . S
H4285 C4308 0.950 . S
H4286 C4309 0.950 . S
H4287 C4311 0.950 . S
H4288 C4312 0.950 . S
H4289 C4313 0.951 . S
H4290 C4315 0.951 . S
H4291 C4317 0.950 . S
H4292 C4318 0.950 . S
H4293 C4320 0.950 . S
H4294 C4323 0.950 . S
H4295 C4324 0.950 . S
H4296 C4326 0.950 . S
H4297 C4327 0.950 . S
C4298 H4280 0.951 . S
C4298 C4299 1.366 . S
C4298 C4300 1.388 . S
C4299 C4298 1.366 . S
C4299 C4303 1.385 . S
C4300 H4281 0.951 . S
C4300 C4298 1.388 . S
C4300 C4301 1.366 . S
C4301 C4300 1.366 . S
C4301 C4302 1.414 . S
C4301 C4304 1.499 . S
C4302 H4282 0.950 . S
C4302 C4301 1.414 . S
C4302 C4303 1.374 . S
C4303 H4283 0.950 . S
C4303 C4299 1.385 . S
C4303 C4302 1.374 . S
C4304 C4301 1.499 . S
C4304 C4305 1.373 . S
C4304 C4306 1.389 . S
C4305 H4284 0.950 . S
C4305 C4304 1.373 . S
C4305 C4321 1.377 . S
C4306 C4304 1.389 . S
C4306 C4307 1.524 . S
C4306 C4320 1.377 . S
C4307 C4306 1.524 . S
C4307 C4308 1.397 . S
C4307 C4312 1.363 . S
C4308 H4285 0.950 . S
C4308 C4307 1.397 . S
C4308 C4309 1.334 . S
C4309 H4286 0.950 . S
C4309 C4308 1.334 . S
C4309 C4310 1.287 . S
C4310 C4309 1.287 . S
C4310 C4311 1.524 . S
C4310 H4329 0.913 . S
C4311 H4287 0.950 . S
C4311 C4310 1.524 . S
C4311 C4312 1.415 . S
C4312 H4288 0.950 . S
C4312 C4307 1.363 . S
C4312 C4311 1.415 . S
C4313 H4289 0.951 . S
C4313 C4314 1.366 . S
C4313 C4315 1.388 . S
C4314 C4313 1.366 . S
C4314 C4318 1.385 . S
C4315 H4290 0.951 . S
C4315 C4313 1.388 . S
C4315 C4316 1.366 . S
C4316 C4315 1.366 . S
C4316 C4317 1.414 . S
C4316 C4319 1.499 . S
C4317 H4291 0.950 . S
C4317 C4316 1.414 . S
C4317 C4318 1.374 . S
C4318 H4292 0.950 . S
C4318 C4314 1.385 . S
C4318 C4317 1.374 . S
C4319 C4316 1.499 . S
C4319 C4320 1.373 . S
C4319 C4321 1.389 . S
C4320 H4293 0.950 . S
C4320 C4306 1.377 . S
C4320 C4319 1.373 . S
C4321 C4305 1.377 . S
C4321 C4319 1.389 . S
C4321 C4322 1.524 . S
C4322 C4321 1.524 . S
C4322 C4323 1.397 . S
C4322 C4327 1.363 . S
C4323 H4294 0.950 . S
C4323 C4322 1.397 . S
C4323 C4324 1.334 . S
C4324 H4295 0.950 . S
C4324 C4323 1.334 . S
C4324 C4325 1.287 . S
C4325 C4324 1.287 . S
C4325 C4326 1.524 . S
C4325 H4328 0.999 . S
C4326 H4296 0.950 . S
C4326 C4325 1.524 . S
C4326 C4327 1.415 . S
C4327 H4297 0.950 . S
C4327 C4322 1.363 . S
C4327 C4326 1.415 . S
H4328 C4325 0.999 . S
H4329 C4310 0.913 . S
H4330 C4348 0.951 . S
H4331 C4350 0.951 . S
H4332 C4352 0.950 . S
H4333 C4353 0.950 . S
H4334 C4355 0.950 . S
H4335 C4358 0.950 . S
H4336 C4359 0.950 . S
H4337 C4361 0.950 . S
H4338 C4362 0.950 . S
H4339 C4363 0.951 . S
H4340 C4365 0.951 . S
H4341 C4367 0.950 . S
H4342 C4368 0.950 . S
H4343 C4370 0.950 . S
H4344 C4373 0.950 . S
H4345 C4374 0.950 . S
H4346 C4376 0.950 . S
H4347 C4377 0.950 . S
C4348 H4330 0.951 . S
C4348 C4349 1.366 . S
C4348 C4350 1.388 . S
C4349 C4348 1.366 . S
C4349 C4353 1.385 . S
C4350 H4331 0.951 . S
C4350 C4348 1.388 . S
C4350 C4351 1.366 . S
C4351 C4350 1.366 . S
C4351 C4352 1.414 . S
C4351 C4354 1.499 . S
C4352 H4332 0.950 . S
C4352 C4351 1.414 . S
C4352 C4353 1.374 . S
C4353 H4333 0.950 . S
C4353 C4349 1.385 . S
C4353 C4352 1.374 . S
C4354 C4351 1.499 . S
C4354 C4355 1.373 . S
C4354 C4356 1.389 . S
C4355 H4334 0.950 . S
C4355 C4354 1.373 . S
C4355 C4371 1.377 . S
C4356 C4354 1.389 . S
C4356 C4357 1.524 . S
C4356 C4370 1.377 . S
C4357 C4356 1.524 . S
C4357 C4358 1.397 . S
C4357 C4362 1.363 . S
C4358 H4335 0.950 . S
C4358 C4357 1.397 . S
C4358 C4359 1.334 . S
C4359 H4336 0.950 . S
C4359 C4358 1.334 . S
C4359 C4360 1.287 . S
C4360 C4359 1.287 . S
C4360 C4361 1.524 . S
C4360 H4379 0.913 . S
C4361 H4337 0.950 . S
C4361 C4360 1.524 . S
C4361 C4362 1.415 . S
C4362 H4338 0.950 . S
C4362 C4357 1.363 . S
C4362 C4361 1.415 . S
C4363 H4339 0.951 . S
C4363 C4364 1.366 . S
C4363 C4365 1.388 . S
C4364 C4363 1.366 . S
C4364 C4368 1.385 . S
C4365 H4340 0.951 . S
C4365 C4363 1.388 . S
C4365 C4366 1.366 . S
C4366 C4365 1.366 . S
C4366 C4367 1.414 . S
C4366 C4369 1.499 . S
C4367 H4341 0.950 . S
C4367 C4366 1.414 . S
C4367 C4368 1.374 . S
C4368 H4342 0.950 . S
C4368 C4364 1.385 . S
C4368 C4367 1.374 . S
C4369 C4366 1.499 . S
C4369 C4370 1.373 . S
C4369 C4371 1.389 . S
C4370 H4343 0.950 . S
C4370 C4356 1.377 . S
C4370 C4369 1.373 . S
C4371 C4355 1.377 . S
C4371 C4369 1.389 . S
C4371 C4372 1.524 . S
C4372 C4371 1.524 . S
C4372 C4373 1.397 . S
C4372 C4377 1.363 . S
C4373 H4344 0.950 . S
C4373 C4372 1.397 . S
C4373 C4374 1.334 . S
C4374 H4345 0.950 . S
C4374 C4373 1.334 . S
C4374 C4375 1.287 . S
C4375 C4374 1.287 . S
C4375 C4376 1.524 . S
C4375 H4378 0.999 . S
C4376 H4346 0.950 . S
C4376 C4375 1.524 . S
C4376 C4377 1.415 . S
C4377 H4347 0.950 . S
C4377 C4372 1.363 . S
C4377 C4376 1.415 . S
H4378 C4375 0.999 . S
H4379 C4360 0.913 . S
H4380 C4398 0.951 . S
H4381 C4400 0.951 . S
H4382 C4402 0.950 . S
H4383 C4403 0.950 . S
H4384 C4405 0.950 . S
H4385 C4408 0.950 1_455 S
H4386 C4409 0.950 . S
H4387 C4411 0.950 . S
H4388 C4412 0.950 . S
H4389 C4413 0.951 . S
H4390 C4415 0.951 . S
H4391 C4417 0.950 . S
H4392 C4418 0.950 . S
H4393 C4420 0.950 . S
H4394 C4423 0.950 . S
H4395 C4424 0.950 . S
H4396 C4426 0.950 . S
H4397 C4427 0.950 . S
C4398 H4380 0.951 . S
C4398 C4399 1.366 1_655 S
C4398 C4400 1.388 . S
C4399 C4398 1.366 1_455 S
C4399 C4403 1.385 . S
C4400 H4381 0.951 . S
C4400 C4398 1.388 . S
C4400 C4401 1.366 1_655 S
C4401 C4400 1.366 1_455 S
C4401 C4402 1.414 . S
C4401 C4404 1.499 . S
C4402 H4382 0.950 . S
C4402 C4401 1.414 . S
C4402 C4403 1.374 . S
C4403 H4383 0.950 . S
C4403 C4399 1.385 . S
C4403 C4402 1.374 . S
C4404 C4401 1.499 . S
C4404 C4405 1.373 . S
C4404 C4406 1.389 1_455 S
C4405 H4384 0.950 . S
C4405 C4404 1.373 . S
C4405 C4421 1.377 . S
C4406 C4404 1.389 1_655 S
C4406 C4407 1.524 . S
C4406 C4420 1.377 . S
C4407 C4406 1.524 . S
C4407 C4408 1.397 . S
C4407 C4412 1.363 . S
C4408 H4385 0.950 1_655 S
C4408 C4407 1.397 . S
C4408 C4409 1.334 . S
C4409 H4386 0.950 . S
C4409 C4408 1.334 . S
C4409 C4410 1.287 . S
C4410 C4409 1.287 . S
C4410 C4411 1.524 . S
C4410 H4429 0.913 . S
C4411 H4387 0.950 . S
C4411 C4410 1.524 . S
C4411 C4412 1.415 . S
C4412 H4388 0.950 . S
C4412 C4407 1.363 . S
C4412 C4411 1.415 . S
C4413 H4389 0.951 . S
C4413 C4414 1.366 . S
C4413 C4415 1.388 . S
C4414 C4413 1.366 . S
C4414 C4418 1.385 1_455 S
C4415 H4390 0.951 . S
C4415 C4413 1.388 . S
C4415 C4416 1.366 . S
C4416 C4415 1.366 . S
C4416 C4417 1.414 1_455 S
C4416 C4419 1.499 . S
C4417 H4391 0.950 . S
C4417 C4416 1.414 1_655 S
C4417 C4418 1.374 . S
C4418 H4392 0.950 . S
C4418 C4414 1.385 1_655 S
C4418 C4417 1.374 . S
C4419 C4416 1.499 . S
C4419 C4420 1.373 1_455 S
C4419 C4421 1.389 . S
C4420 H4393 0.950 . S
C4420 C4406 1.377 . S
C4420 C4419 1.373 1_655 S
C4421 C4405 1.377 . S
C4421 C4419 1.389 . S
C4421 C4422 1.524 . S
C4422 C4421 1.524 . S
C4422 C4423 1.397 . S
C4422 C4427 1.363 . S
C4423 H4394 0.950 . S
C4423 C4422 1.397 . S
C4423 C4424 1.334 . S
C4424 H4395 0.950 . S
C4424 C4423 1.334 . S
C4424 C4425 1.287 . S
C4425 C4424 1.287 . S
C4425 C4426 1.524 . S
C4425 H4428 0.999 . S
C4426 H4396 0.950 . S
C4426 C4425 1.524 . S
C4426 C4427 1.415 . S
C4427 H4397 0.950 . S
C4427 C4422 1.363 . S
C4427 C4426 1.415 . S
H4428 C4425 0.999 . S
H4429 C4410 0.913 . S
H4430 C4448 0.951 . S
H4431 C4450 0.951 . S
H4432 C4452 0.950 . S
H4433 C4453 0.950 . S
H4434 C4455 0.950 . S
H4435 C4458 0.950 . S
H4436 C4459 0.950 . S
H4437 C4461 0.950 . S
H4438 C4462 0.950 . S
H4439 C4463 0.951 . S
H4440 C4465 0.951 . S
H4441 C4467 0.950 . S
H4442 C4468 0.950 . S
H4443 C4470 0.950 . S
H4444 C4473 0.950 . S
H4445 C4474 0.950 . S
H4446 C4476 0.950 . S
H4447 C4477 0.950 . S
C4448 H4430 0.951 . S
C4448 C4449 1.366 . S
C4448 C4450 1.388 . S
C4449 C4448 1.366 . S
C4449 C4453 1.385 . S
C4450 H4431 0.951 . S
C4450 C4448 1.388 . S
C4450 C4451 1.366 . S
C4451 C4450 1.366 . S
C4451 C4452 1.414 . S
C4451 C4454 1.499 . S
C4452 H4432 0.950 . S
C4452 C4451 1.414 . S
C4452 C4453 1.374 . S
C4453 H4433 0.950 . S
C4453 C4449 1.385 . S
C4453 C4452 1.374 . S
C4454 C4451 1.499 . S
C4454 C4455 1.373 . S
C4454 C4456 1.389 . S
C4455 H4434 0.950 . S
C4455 C4454 1.373 . S
C4455 C4471 1.377 . S
C4456 C4454 1.389 . S
C4456 C4457 1.524 . S
C4456 C4470 1.377 . S
C4457 C4456 1.524 . S
C4457 C4458 1.397 . S
C4457 C4462 1.363 . S
C4458 H4435 0.950 . S
C4458 C4457 1.397 . S
C4458 C4459 1.334 . S
C4459 H4436 0.950 . S
C4459 C4458 1.334 . S
C4459 C4460 1.287 . S
C4460 C4459 1.287 . S
C4460 C4461 1.524 . S
C4460 H4479 0.913 . S
C4461 H4437 0.950 . S
C4461 C4460 1.524 . S
C4461 C4462 1.415 . S
C4462 H4438 0.950 . S
C4462 C4457 1.363 . S
C4462 C4461 1.415 . S
C4463 H4439 0.951 . S
C4463 C4464 1.366 . S
C4463 C4465 1.388 . S
C4464 C4463 1.366 . S
C4464 C4468 1.385 . S
C4465 H4440 0.951 . S
C4465 C4463 1.388 . S
C4465 C4466 1.366 . S
C4466 C4465 1.366 . S
C4466 C4467 1.414 . S
C4466 C4469 1.499 . S
C4467 H4441 0.950 . S
C4467 C4466 1.414 . S
C4467 C4468 1.374 . S
C4468 H4442 0.950 . S
C4468 C4464 1.385 . S
C4468 C4467 1.374 . S
C4469 C4466 1.499 . S
C4469 C4470 1.373 . S
C4469 C4471 1.389 . S
C4470 H4443 0.950 . S
C4470 C4456 1.377 . S
C4470 C4469 1.373 . S
C4471 C4455 1.377 . S
C4471 C4469 1.389 . S
C4471 C4472 1.524 . S
C4472 C4471 1.524 . S
C4472 C4473 1.397 . S
C4472 C4477 1.363 . S
C4473 H4444 0.950 . S
C4473 C4472 1.397 . S
C4473 C4474 1.334 . S
C4474 H4445 0.950 . S
C4474 C4473 1.334 . S
C4474 C4475 1.287 . S
C4475 C4474 1.287 . S
C4475 C4476 1.524 . S
C4475 H4478 0.999 . S
C4476 H4446 0.950 . S
C4476 C4475 1.524 . S
C4476 C4477 1.415 . S
C4477 H4447 0.950 . S
C4477 C4472 1.363 . S
C4477 C4476 1.415 . S
H4478 C4475 0.999 . S
H4479 C4460 0.913 . S
H4480 C4498 0.951 . S
H4481 C4500 0.951 . S
H4482 C4502 0.950 . S
H4483 C4503 0.950 . S
H4484 C4505 0.950 . S
H4485 C4508 0.950 . S
H4486 C4509 0.950 . S
H4487 C4511 0.950 . S
H4488 C4512 0.950 . S
H4489 C4513 0.951 . S
H4490 C4515 0.951 . S
H4491 C4517 0.950 . S
H4492 C4518 0.950 . S
H4493 C4520 0.950 . S
H4494 C4523 0.950 . S
H4495 C4524 0.950 . S
H4496 C4526 0.950 . S
H4497 C4527 0.950 . S
C4498 H4480 0.951 . S
C4498 C4499 1.366 . S
C4498 C4500 1.388 . S
C4499 C4498 1.366 . S
C4499 C4503 1.385 . S
C4500 H4481 0.951 . S
C4500 C4498 1.388 . S
C4500 C4501 1.366 . S
C4501 C4500 1.366 . S
C4501 C4502 1.414 . S
C4501 C4504 1.499 . S
C4502 H4482 0.950 . S
C4502 C4501 1.414 . S
C4502 C4503 1.374 . S
C4503 H4483 0.950 . S
C4503 C4499 1.385 . S
C4503 C4502 1.374 . S
C4504 C4501 1.499 . S
C4504 C4505 1.373 . S
C4504 C4506 1.389 . S
C4505 H4484 0.950 . S
C4505 C4504 1.373 . S
C4505 C4521 1.377 . S
C4506 C4504 1.389 . S
C4506 C4507 1.524 . S
C4506 C4520 1.377 . S
C4507 C4506 1.524 . S
C4507 C4508 1.397 . S
C4507 C4512 1.363 . S
C4508 H4485 0.950 . S
C4508 C4507 1.397 . S
C4508 C4509 1.334 . S
C4509 H4486 0.950 . S
C4509 C4508 1.334 . S
C4509 C4510 1.287 . S
C4510 C4509 1.287 . S
C4510 C4511 1.524 . S
C4510 H4529 0.913 . S
C4511 H4487 0.950 . S
C4511 C4510 1.524 . S
C4511 C4512 1.415 . S
C4512 H4488 0.950 . S
C4512 C4507 1.363 . S
C4512 C4511 1.415 . S
C4513 H4489 0.951 . S
C4513 C4514 1.366 . S
C4513 C4515 1.388 . S
C4514 C4513 1.366 . S
C4514 C4518 1.385 . S
C4515 H4490 0.951 . S
C4515 C4513 1.388 . S
C4515 C4516 1.366 . S
C4516 C4515 1.366 . S
C4516 C4517 1.414 . S
C4516 C4519 1.499 . S
C4517 H4491 0.950 . S
C4517 C4516 1.414 . S
C4517 C4518 1.374 . S
C4518 H4492 0.950 . S
C4518 C4514 1.385 . S
C4518 C4517 1.374 . S
C4519 C4516 1.499 . S
C4519 C4520 1.373 . S
C4519 C4521 1.389 . S
C4520 H4493 0.950 . S
C4520 C4506 1.377 . S
C4520 C4519 1.373 . S
C4521 C4505 1.377 . S
C4521 C4519 1.389 . S
C4521 C4522 1.524 . S
C4522 C4521 1.524 . S
C4522 C4523 1.397 . S
C4522 C4527 1.363 . S
C4523 H4494 0.950 . S
C4523 C4522 1.397 . S
C4523 C4524 1.334 . S
C4524 H4495 0.950 . S
C4524 C4523 1.334 . S
C4524 C4525 1.287 . S
C4525 C4524 1.287 . S
C4525 C4526 1.524 . S
C4525 H4528 0.999 . S
C4526 H4496 0.950 . S
C4526 C4525 1.524 . S
C4526 C4527 1.415 . S
C4527 H4497 0.950 . S
C4527 C4522 1.363 . S
C4527 C4526 1.415 . S
H4528 C4525 0.999 . S
H4529 C4510 0.913 . S
H4530 C4548 0.951 . S
H4531 C4550 0.951 . S
H4532 C4552 0.950 . S
H4533 C4553 0.950 . S
H4534 C4555 0.950 . S
H4535 C4558 0.950 . S
H4536 C4559 0.938 1_554 S
H4537 C4561 0.949 . S
H4538 C4562 0.950 . S
H4539 C4563 0.951 . S
H4540 C4565 0.951 . S
H4541 C4567 0.950 . S
H4542 C4568 0.950 . S
H4543 C4570 0.950 . S
H4544 C4573 0.950 . S
H4545 C4574 0.950 . S
H4546 C4576 0.950 . S
H4547 C4577 0.950 . S
C4548 H4530 0.951 . S
C4548 C4549 1.366 . S
C4548 C4550 1.388 1_554 S
C4549 C4548 1.366 . S
C4549 C4553 1.385 1_554 S
C4550 H4531 0.951 . S
C4550 C4548 1.388 1_556 S
C4550 C4551 1.366 . S
C4551 C4550 1.366 . S
C4551 C4552 1.414 . S
C4551 C4554 1.499 . S
C4552 H4532 0.950 . S
C4552 C4551 1.414 . S
C4552 C4553 1.374 . S
C4553 H4533 0.950 . S
C4553 C4549 1.385 1_556 S
C4553 C4552 1.374 . S
C4554 C4551 1.499 . S
C4554 C4555 1.373 . S
C4554 C4556 1.389 . S
C4555 H4534 0.950 . S
C4555 C4554 1.373 . S
C4555 C4571 1.377 . S
C4556 C4554 1.389 . S
C4556 C4557 1.524 . S
C4556 C4570 1.377 . S
C4557 C4556 1.524 . S
C4557 C4558 1.397 . S
C4557 C4562 1.363 . S
C4558 H4535 0.950 . S
C4558 C4557 1.397 . S
C4558 C4559 1.352 . S
C4559 H4536 0.938 1_556 S
C4559 C4558 1.352 . S
C4559 C4560 1.282 1_556 S
C4560 C4559 1.282 1_554 S
C4560 C4561 1.523 . S
C4560 H4579 0.913 . S
C4561 H4537 0.949 . S
C4561 C4560 1.523 . S
C4561 C4562 1.416 1_554 S
C4562 H4538 0.950 . S
C4562 C4557 1.363 . S
C4562 C4561 1.416 1_556 S
C4563 H4539 0.951 . S
C4563 C4564 1.366 . S
C4563 C4565 1.388 . S
C4564 C4563 1.366 . S
C4564 C4568 1.385 . S
C4565 H4540 0.951 . S
C4565 C4563 1.388 . S
C4565 C4566 1.366 . S
C4566 C4565 1.366 . S
C4566 C4567 1.414 . S
C4566 C4569 1.499 . S
C4567 H4541 0.950 . S
C4567 C4566 1.414 . S
C4567 C4568 1.374 . S
C4568 H4542 0.950 . S
C4568 C4564 1.385 . S
C4568 C4567 1.374 . S
C4569 C4566 1.499 . S
C4569 C4570 1.373 . S
C4569 C4571 1.389 . S
C4570 H4543 0.950 . S
C4570 C4556 1.377 . S
C4570 C4569 1.373 . S
C4571 C4555 1.377 . S
C4571 C4569 1.389 . S
C4571 C4572 1.524 . S
C4572 C4571 1.524 . S
C4572 C4573 1.397 . S
C4572 C4577 1.363 . S
C4573 H4544 0.950 . S
C4573 C4572 1.397 . S
C4573 C4574 1.334 . S
C4574 H4545 0.950 . S
C4574 C4573 1.334 . S
C4574 C4575 1.287 . S
C4575 C4574 1.287 . S
C4575 C4576 1.524 . S
C4575 H4578 0.999 . S
C4576 H4546 0.950 . S
C4576 C4575 1.524 . S
C4576 C4577 1.415 . S
C4577 H4547 0.950 . S
C4577 C4572 1.363 . S
C4577 C4576 1.415 . S
H4578 C4575 0.999 . S
H4579 C4560 0.913 . S
H4580 C4598 0.951 . S
H4581 C4600 0.951 . S
H4582 C4602 0.950 . S
H4583 C4603 0.950 . S
H4584 C4605 0.950 . S
H4585 C4608 0.950 . S
H4586 C4609 0.950 . S
H4587 C4611 0.950 . S
H4588 C4612 0.950 . S
H4589 C4613 0.951 . S
H4590 C4615 0.951 . S
H4591 C4617 0.950 . S
H4592 C4618 0.950 . S
H4593 C4620 0.950 . S
H4594 C4623 0.950 . S
H4595 C4624 0.950 . S
H4596 C4626 0.950 . S
H4597 C4627 0.950 . S
C4598 H4580 0.951 . S
C4598 C4599 1.366 . S
C4598 C4600 1.388 . S
C4599 C4598 1.366 . S
C4599 C4603 1.385 . S
C4600 H4581 0.951 . S
C4600 C4598 1.388 . S
C4600 C4601 1.366 . S
C4601 C4600 1.366 . S
C4601 C4602 1.414 . S
C4601 C4604 1.499 . S
C4602 H4582 0.950 . S
C4602 C4601 1.414 . S
C4602 C4603 1.374 . S
C4603 H4583 0.950 . S
C4603 C4599 1.385 . S
C4603 C4602 1.374 . S
C4604 C4601 1.499 . S
C4604 C4605 1.373 . S
C4604 C4606 1.389 . S
C4605 H4584 0.950 . S
C4605 C4604 1.373 . S
C4605 C4621 1.377 . S
C4606 C4604 1.389 . S
C4606 C4607 1.524 . S
C4606 C4620 1.377 . S
C4607 C4606 1.524 . S
C4607 C4608 1.397 . S
C4607 C4612 1.363 . S
C4608 H4585 0.950 . S
C4608 C4607 1.397 . S
C4608 C4609 1.334 . S
C4609 H4586 0.950 . S
C4609 C4608 1.334 . S
C4609 C4610 1.287 . S
C4610 C4609 1.287 . S
C4610 C4611 1.524 . S
C4610 H4629 0.913 . S
C4611 H4587 0.950 . S
C4611 C4610 1.524 . S
C4611 C4612 1.415 . S
C4612 H4588 0.950 . S
C4612 C4607 1.363 . S
C4612 C4611 1.415 . S
C4613 H4589 0.951 . S
C4613 C4614 1.366 . S
C4613 C4615 1.388 . S
C4614 C4613 1.366 . S
C4614 C4618 1.385 . S
C4615 H4590 0.951 . S
C4615 C4613 1.388 . S
C4615 C4616 1.366 . S
C4616 C4615 1.366 . S
C4616 C4617 1.414 . S
C4616 C4619 1.499 . S
C4617 H4591 0.950 . S
C4617 C4616 1.414 . S
C4617 C4618 1.374 . S
C4618 H4592 0.950 . S
C4618 C4614 1.385 . S
C4618 C4617 1.374 . S
C4619 C4616 1.499 . S
C4619 C4620 1.373 . S
C4619 C4621 1.389 . S
C4620 H4593 0.950 . S
C4620 C4606 1.377 . S
C4620 C4619 1.373 . S
C4621 C4605 1.377 . S
C4621 C4619 1.389 . S
C4621 C4622 1.524 . S
C4622 C4621 1.524 . S
C4622 C4623 1.397 . S
C4622 C4627 1.363 . S
C4623 H4594 0.950 . S
C4623 C4622 1.397 . S
C4623 C4624 1.334 . S
C4624 H4595 0.950 . S
C4624 C4623 1.334 . S
C4624 C4625 1.287 . S
C4625 C4624 1.287 . S
C4625 C4626 1.524 . S
C4625 H4628 0.999 . S
C4626 H4596 0.950 . S
C4626 C4625 1.524 . S
C4626 C4627 1.415 . S
C4627 H4597 0.950 . S
C4627 C4622 1.363 . S
C4627 C4626 1.415 . S
H4628 C4625 0.999 . S
H4629 C4610 0.913 . S
H4630 C4648 0.951 . S
H4631 C4650 0.951 . S
H4632 C4652 0.950 . S
H4633 C4653 0.950 . S
H4634 C4655 0.950 . S
H4635 C4658 0.950 . S
H4636 C4659 0.950 . S
H4637 C4661 0.950 . S
H4638 C4662 0.950 . S
H4639 C4663 0.951 . S
H4640 C4665 0.951 . S
H4641 C4667 0.950 . S
H4642 C4668 0.950 . S
H4643 C4670 0.950 . S
H4644 C4673 0.950 . S
H4645 C4674 0.950 . S
H4646 C4676 0.950 . S
H4647 C4677 0.950 . S
C4648 H4630 0.951 . S
C4648 C4649 1.366 . S
C4648 C4650 1.388 . S
C4649 C4648 1.366 . S
C4649 C4653 1.385 . S
C4650 H4631 0.951 . S
C4650 C4648 1.388 . S
C4650 C4651 1.366 . S
C4651 C4650 1.366 . S
C4651 C4652 1.414 . S
C4651 C4654 1.499 . S
C4652 H4632 0.950 . S
C4652 C4651 1.414 . S
C4652 C4653 1.374 . S
C4653 H4633 0.950 . S
C4653 C4649 1.385 . S
C4653 C4652 1.374 . S
C4654 C4651 1.499 . S
C4654 C4655 1.373 . S
C4654 C4656 1.389 . S
C4655 H4634 0.950 . S
C4655 C4654 1.373 . S
C4655 C4671 1.377 . S
C4656 C4654 1.389 . S
C4656 C4657 1.524 . S
C4656 C4670 1.377 . S
C4657 C4656 1.524 . S
C4657 C4658 1.397 . S
C4657 C4662 1.363 . S
C4658 H4635 0.950 . S
C4658 C4657 1.397 . S
C4658 C4659 1.334 . S
C4659 H4636 0.950 . S
C4659 C4658 1.334 . S
C4659 C4660 1.287 . S
C4660 C4659 1.287 . S
C4660 C4661 1.524 . S
C4660 H4679 0.913 . S
C4661 H4637 0.950 . S
C4661 C4660 1.524 . S
C4661 C4662 1.415 . S
C4662 H4638 0.950 . S
C4662 C4657 1.363 . S
C4662 C4661 1.415 . S
C4663 H4639 0.951 . S
C4663 C4664 1.366 . S
C4663 C4665 1.388 . S
C4664 C4663 1.366 . S
C4664 C4668 1.385 . S
C4665 H4640 0.951 . S
C4665 C4663 1.388 . S
C4665 C4666 1.366 . S
C4666 C4665 1.366 . S
C4666 C4667 1.414 . S
C4666 C4669 1.499 . S
C4667 H4641 0.950 . S
C4667 C4666 1.414 . S
C4667 C4668 1.374 . S
C4668 H4642 0.950 . S
C4668 C4664 1.385 . S
C4668 C4667 1.374 . S
C4669 C4666 1.499 . S
C4669 C4670 1.373 . S
C4669 C4671 1.389 . S
C4670 H4643 0.950 . S
C4670 C4656 1.377 . S
C4670 C4669 1.373 . S
C4671 C4655 1.377 . S
C4671 C4669 1.389 . S
C4671 C4672 1.524 . S
C4672 C4671 1.524 . S
C4672 C4673 1.397 . S
C4672 C4677 1.363 . S
C4673 H4644 0.950 . S
C4673 C4672 1.397 . S
C4673 C4674 1.334 . S
C4674 H4645 0.950 . S
C4674 C4673 1.334 . S
C4674 C4675 1.287 . S
C4675 C4674 1.287 . S
C4675 C4676 1.524 . S
C4675 H4678 0.999 . S
C4676 H4646 0.950 . S
C4676 C4675 1.524 . S
C4676 C4677 1.415 . S
C4677 H4647 0.950 . S
C4677 C4672 1.363 . S
C4677 C4676 1.415 . S
H4678 C4675 0.999 . S
H4679 C4660 0.913 . S
H4680 C4698 0.951 . S
H4681 C4700 0.951 . S
H4682 C4702 0.950 . S
H4683 C4703 0.950 . S
H4684 C4705 0.950 . S
H4685 C4708 0.950 . S
H4686 C4709 0.950 . S
H4687 C4711 0.950 . S
H4688 C4712 0.950 . S
H4689 C4713 0.951 . S
H4690 C4715 0.951 . S
H4691 C4717 0.950 . S
H4692 C4718 0.950 . S
H4693 C4720 0.950 . S
H4694 C4723 0.950 . S
H4695 C4724 0.950 . S
H4696 C4726 0.950 . S
H4697 C4727 0.950 . S
C4698 H4680 0.951 . S
C4698 C4699 1.366 . S
C4698 C4700 1.388 . S
C4699 C4698 1.366 . S
C4699 C4703 1.385 . S
C4700 H4681 0.951 . S
C4700 C4698 1.388 . S
C4700 C4701 1.366 . S
C4701 C4700 1.366 . S
C4701 C4702 1.414 . S
C4701 C4704 1.499 . S
C4702 H4682 0.950 . S
C4702 C4701 1.414 . S
C4702 C4703 1.374 . S
C4703 H4683 0.950 . S
C4703 C4699 1.385 . S
C4703 C4702 1.374 . S
C4704 C4701 1.499 . S
C4704 C4705 1.373 . S
C4704 C4706 1.389 . S
C4705 H4684 0.950 . S
C4705 C4704 1.373 . S
C4705 C4721 1.377 . S
C4706 C4704 1.389 . S
C4706 C4707 1.524 . S
C4706 C4720 1.377 . S
C4707 C4706 1.524 . S
C4707 C4708 1.397 . S
C4707 C4712 1.363 . S
C4708 H4685 0.950 . S
C4708 C4707 1.397 . S
C4708 C4709 1.334 . S
C4709 H4686 0.950 . S
C4709 C4708 1.334 . S
C4709 C4710 1.287 . S
C4710 C4709 1.287 . S
C4710 C4711 1.524 . S
C4710 H4729 0.913 . S
C4711 H4687 0.950 . S
C4711 C4710 1.524 . S
C4711 C4712 1.415 . S
C4712 H4688 0.950 . S
C4712 C4707 1.363 . S
C4712 C4711 1.415 . S
C4713 H4689 0.951 . S
C4713 C4714 1.366 . S
C4713 C4715 1.388 . S
C4714 C4713 1.366 . S
C4714 C4718 1.385 . S
C4715 H4690 0.951 . S
C4715 C4713 1.388 . S
C4715 C4716 1.366 . S
C4716 C4715 1.366 . S
C4716 C4717 1.414 . S
C4716 C4719 1.499 . S
C4717 H4691 0.950 . S
C4717 C4716 1.414 . S
C4717 C4718 1.374 . S
C4718 H4692 0.950 . S
C4718 C4714 1.385 . S
C4718 C4717 1.374 . S
C4719 C4716 1.499 . S
C4719 C4720 1.373 . S
C4719 C4721 1.389 . S
C4720 H4693 0.950 . S
C4720 C4706 1.377 . S
C4720 C4719 1.373 . S
C4721 C4705 1.377 . S
C4721 C4719 1.389 . S
C4721 C4722 1.524 . S
C4722 C4721 1.524 . S
C4722 C4723 1.397 . S
C4722 C4727 1.363 . S
C4723 H4694 0.950 . S
C4723 C4722 1.397 . S
C4723 C4724 1.334 . S
C4724 H4695 0.950 . S
C4724 C4723 1.334 . S
C4724 C4725 1.287 . S
C4725 C4724 1.287 . S
C4725 C4726 1.524 . S
C4725 H4728 0.999 . S
C4726 H4696 0.950 . S
C4726 C4725 1.524 . S
C4726 C4727 1.415 . S
C4727 H4697 0.950 . S
C4727 C4722 1.363 . S
C4727 C4726 1.415 . S
H4728 C4725 0.999 . S
H4729 C4710 0.913 . S
H4730 C4748 0.951 . S
H4731 C4750 0.951 . S
H4732 C4752 0.950 . S
H4733 C4753 0.950 . S
H4734 C4755 0.950 . S
H4735 C4758 0.950 . S
H4736 C4759 0.950 . S
H4737 C4761 0.950 . S
H4738 C4762 0.950 . S
H4739 C4763 0.951 . S
H4740 C4765 0.951 . S
H4741 C4767 0.950 . S
H4742 C4768 0.950 . S
H4743 C4770 0.950 . S
H4744 C4773 0.950 . S
H4745 C4774 0.950 . S
H4746 C4776 0.950 . S
H4747 C4777 0.950 . S
C4748 H4730 0.951 . S
C4748 C4749 1.366 . S
C4748 C4750 1.388 . S
C4749 C4748 1.366 . S
C4749 C4753 1.385 . S
C4750 H4731 0.951 . S
C4750 C4748 1.388 . S
C4750 C4751 1.366 . S
C4751 C4750 1.366 . S
C4751 C4752 1.414 . S
C4751 C4754 1.499 . S
C4752 H4732 0.950 . S
C4752 C4751 1.414 . S
C4752 C4753 1.374 . S
C4753 H4733 0.950 . S
C4753 C4749 1.385 . S
C4753 C4752 1.374 . S
C4754 C4751 1.499 . S
C4754 C4755 1.373 . S
C4754 C4756 1.389 . S
C4755 H4734 0.950 . S
C4755 C4754 1.373 . S
C4755 C4771 1.377 . S
C4756 C4754 1.389 . S
C4756 C4757 1.524 . S
C4756 C4770 1.377 . S
C4757 C4756 1.524 . S
C4757 C4758 1.397 . S
C4757 C4762 1.363 . S
C4758 H4735 0.950 . S
C4758 C4757 1.397 . S
C4758 C4759 1.334 . S
C4759 H4736 0.950 . S
C4759 C4758 1.334 . S
C4759 C4760 1.287 . S
C4760 C4759 1.287 . S
C4760 C4761 1.524 . S
C4760 H4779 0.913 . S
C4761 H4737 0.950 . S
C4761 C4760 1.524 . S
C4761 C4762 1.415 . S
C4762 H4738 0.950 . S
C4762 C4757 1.363 . S
C4762 C4761 1.415 . S
C4763 H4739 0.951 . S
C4763 C4764 1.366 . S
C4763 C4765 1.388 . S
C4764 C4763 1.366 . S
C4764 C4768 1.385 . S
C4765 H4740 0.951 . S
C4765 C4763 1.388 . S
C4765 C4766 1.366 . S
C4766 C4765 1.366 . S
C4766 C4767 1.414 . S
C4766 C4769 1.499 . S
C4767 H4741 0.950 . S
C4767 C4766 1.414 . S
C4767 C4768 1.374 . S
C4768 H4742 0.950 . S
C4768 C4764 1.385 . S
C4768 C4767 1.374 . S
C4769 C4766 1.499 . S
C4769 C4770 1.373 . S
C4769 C4771 1.389 . S
C4770 H4743 0.950 . S
C4770 C4756 1.377 . S
C4770 C4769 1.373 . S
C4771 C4755 1.377 . S
C4771 C4769 1.389 . S
C4771 C4772 1.524 . S
C4772 C4771 1.524 . S
C4772 C4773 1.397 . S
C4772 C4777 1.363 . S
C4773 H4744 0.950 . S
C4773 C4772 1.397 . S
C4773 C4774 1.334 . S
C4774 H4745 0.950 . S
C4774 C4773 1.334 . S
C4774 C4775 1.287 . S
C4775 C4774 1.287 . S
C4775 C4776 1.524 . S
C4775 H4778 0.999 . S
C4776 H4746 0.950 . S
C4776 C4775 1.524 . S
C4776 C4777 1.415 . S
C4777 H4747 0.950 . S
C4777 C4772 1.363 . S
C4777 C4776 1.415 . S
H4778 C4775 0.999 . S
H4779 C4760 0.913 . S
H4780 C4798 0.951 . S
H4781 C4800 0.951 . S
H4782 C4802 0.950 . S
H4783 C4803 0.950 . S
H4784 C4805 0.950 . S
H4785 C4808 0.950 . S
H4786 C4809 0.950 . S
H4787 C4811 0.950 . S
H4788 C4812 0.950 . S
H4789 C4813 0.951 . S
H4790 C4815 0.951 . S
H4791 C4817 0.950 . S
H4792 C4818 0.950 . S
H4793 C4820 0.950 . S
H4794 C4823 0.950 . S
H4795 C4824 0.950 . S
H4796 C4826 0.950 . S
H4797 C4827 0.950 . S
C4798 H4780 0.951 . S
C4798 C4799 1.366 . S
C4798 C4800 1.388 . S
C4799 C4798 1.366 . S
C4799 C4803 1.385 . S
C4800 H4781 0.951 . S
C4800 C4798 1.388 . S
C4800 C4801 1.366 . S
C4801 C4800 1.366 . S
C4801 C4802 1.414 . S
C4801 C4804 1.499 . S
C4802 H4782 0.950 . S
C4802 C4801 1.414 . S
C4802 C4803 1.374 . S
C4803 H4783 0.950 . S
C4803 C4799 1.385 . S
C4803 C4802 1.374 . S
C4804 C4801 1.499 . S
C4804 C4805 1.373 . S
C4804 C4806 1.389 . S
C4805 H4784 0.950 . S
C4805 C4804 1.373 . S
C4805 C4821 1.377 . S
C4806 C4804 1.389 . S
C4806 C4807 1.524 . S
C4806 C4820 1.377 . S
C4807 C4806 1.524 . S
C4807 C4808 1.397 . S
C4807 C4812 1.363 . S
C4808 H4785 0.950 . S
C4808 C4807 1.397 . S
C4808 C4809 1.334 . S
C4809 H4786 0.950 . S
C4809 C4808 1.334 . S
C4809 C4810 1.287 . S
C4810 C4809 1.287 . S
C4810 C4811 1.524 . S
C4810 H4829 0.913 . S
C4811 H4787 0.950 . S
C4811 C4810 1.524 . S
C4811 C4812 1.415 . S
C4812 H4788 0.950 . S
C4812 C4807 1.363 . S
C4812 C4811 1.415 . S
C4813 H4789 0.951 . S
C4813 C4814 1.366 . S
C4813 C4815 1.388 . S
C4814 C4813 1.366 . S
C4814 C4818 1.385 . S
C4815 H4790 0.951 . S
C4815 C4813 1.388 . S
C4815 C4816 1.366 . S
C4816 C4815 1.366 . S
C4816 C4817 1.414 . S
C4816 C4819 1.499 . S
C4817 H4791 0.950 . S
C4817 C4816 1.414 . S
C4817 C4818 1.374 . S
C4818 H4792 0.950 . S
C4818 C4814 1.385 . S
C4818 C4817 1.374 . S
C4819 C4816 1.499 . S
C4819 C4820 1.373 . S
C4819 C4821 1.389 . S
C4820 H4793 0.950 . S
C4820 C4806 1.377 . S
C4820 C4819 1.373 . S
C4821 C4805 1.377 . S
C4821 C4819 1.389 . S
C4821 C4822 1.524 . S
C4822 C4821 1.524 . S
C4822 C4823 1.397 . S
C4822 C4827 1.363 . S
C4823 H4794 0.950 . S
C4823 C4822 1.397 . S
C4823 C4824 1.334 . S
C4824 H4795 0.950 . S
C4824 C4823 1.334 . S
C4824 C4825 1.287 . S
C4825 C4824 1.287 . S
C4825 C4826 1.524 . S
C4825 H4828 0.999 . S
C4826 H4796 0.950 . S
C4826 C4825 1.524 . S
C4826 C4827 1.415 . S
C4827 H4797 0.950 . S
C4827 C4822 1.363 . S
C4827 C4826 1.415 . S
H4828 C4825 0.999 . S
H4829 C4810 0.913 . S
H4830 C4848 0.951 . S
H4831 C4850 0.951 . S
H4832 C4852 0.950 . S
H4833 C4853 0.950 . S
H4834 C4855 0.950 . S
H4835 C4858 0.950 . S
H4836 C4859 0.950 . S
H4837 C4861 0.950 . S
H4838 C4862 0.950 . S
H4839 C4863 0.951 . S
H4840 C4865 0.951 . S
H4841 C4867 0.950 . S
H4842 C4868 0.950 . S
H4843 C4870 0.950 . S
H4844 C4873 0.950 . S
H4845 C4874 0.950 . S
H4846 C4876 0.950 . S
H4847 C4877 0.950 . S
C4848 H4830 0.951 . S
C4848 C4849 1.366 . S
C4848 C4850 1.388 . S
C4849 C4848 1.366 . S
C4849 C4853 1.385 . S
C4850 H4831 0.951 . S
C4850 C4848 1.388 . S
C4850 C4851 1.366 . S
C4851 C4850 1.366 . S
C4851 C4852 1.414 . S
C4851 C4854 1.499 . S
C4852 H4832 0.950 . S
C4852 C4851 1.414 . S
C4852 C4853 1.374 . S
C4853 H4833 0.950 . S
C4853 C4849 1.385 . S
C4853 C4852 1.374 . S
C4854 C4851 1.499 . S
C4854 C4855 1.373 . S
C4854 C4856 1.389 . S
C4855 H4834 0.950 . S
C4855 C4854 1.373 . S
C4855 C4871 1.377 . S
C4856 C4854 1.389 . S
C4856 C4857 1.524 . S
C4856 C4870 1.377 . S
C4857 C4856 1.524 . S
C4857 C4858 1.397 . S
C4857 C4862 1.363 . S
C4858 H4835 0.950 . S
C4858 C4857 1.397 . S
C4858 C4859 1.334 . S
C4859 H4836 0.950 . S
C4859 C4858 1.334 . S
C4859 C4860 1.287 . S
C4860 C4859 1.287 . S
C4860 C4861 1.524 . S
C4860 H4879 0.913 . S
C4861 H4837 0.950 . S
C4861 C4860 1.524 . S
C4861 C4862 1.415 . S
C4862 H4838 0.950 . S
C4862 C4857 1.363 . S
C4862 C4861 1.415 . S
C4863 H4839 0.951 . S
C4863 C4864 1.366 . S
C4863 C4865 1.388 . S
C4864 C4863 1.366 . S
C4864 C4868 1.385 . S
C4865 H4840 0.951 . S
C4865 C4863 1.388 . S
C4865 C4866 1.366 . S
C4866 C4865 1.366 . S
C4866 C4867 1.414 . S
C4866 C4869 1.499 . S
C4867 H4841 0.950 . S
C4867 C4866 1.414 . S
C4867 C4868 1.374 . S
C4868 H4842 0.950 . S
C4868 C4864 1.385 . S
C4868 C4867 1.374 . S
C4869 C4866 1.499 . S
C4869 C4870 1.373 . S
C4869 C4871 1.389 . S
C4870 H4843 0.950 . S
C4870 C4856 1.377 . S
C4870 C4869 1.373 . S
C4871 C4855 1.377 . S
C4871 C4869 1.389 . S
C4871 C4872 1.524 . S
C4872 C4871 1.524 . S
C4872 C4873 1.397 . S
C4872 C4877 1.363 . S
C4873 H4844 0.950 . S
C4873 C4872 1.397 . S
C4873 C4874 1.334 . S
C4874 H4845 0.950 . S
C4874 C4873 1.334 . S
C4874 C4875 1.287 . S
C4875 C4874 1.287 . S
C4875 C4876 1.524 . S
C4875 H4878 0.999 . S
C4876 H4846 0.950 . S
C4876 C4875 1.524 . S
C4876 C4877 1.415 . S
C4877 H4847 0.950 . S
C4877 C4872 1.363 . S
C4877 C4876 1.415 . S
H4878 C4875 0.999 . S
H4879 C4860 0.913 . S
H4880 C4898 0.951 . S
H4881 C4900 0.951 . S
H4882 C4902 0.950 . S
H4883 C4903 0.950 . S
H4884 C4905 0.950 . S
H4885 C4908 0.950 . S
H4886 C4909 0.950 . S
H4887 C4911 0.950 . S
H4888 C4912 0.950 . S
H4889 C4913 0.951 . S
H4890 C4915 0.951 . S
H4891 C4917 0.950 . S
H4892 C4918 0.950 . S
H4893 C4920 0.950 . S
H4894 C4923 0.950 . S
H4895 C4924 0.950 . S
H4896 C4926 0.950 . S
H4897 C4927 0.950 . S
C4898 H4880 0.951 . S
C4898 C4899 1.366 . S
C4898 C4900 1.388 . S
C4899 C4898 1.366 . S
C4899 C4903 1.385 . S
C4900 H4881 0.951 . S
C4900 C4898 1.388 . S
C4900 C4901 1.366 . S
C4901 C4900 1.366 . S
C4901 C4902 1.414 . S
C4901 C4904 1.499 . S
C4902 H4882 0.950 . S
C4902 C4901 1.414 . S
C4902 C4903 1.374 . S
C4903 H4883 0.950 . S
C4903 C4899 1.385 . S
C4903 C4902 1.374 . S
C4904 C4901 1.499 . S
C4904 C4905 1.373 . S
C4904 C4906 1.389 . S
C4905 H4884 0.950 . S
C4905 C4904 1.373 . S
C4905 C4921 1.377 . S
C4906 C4904 1.389 . S
C4906 C4907 1.524 . S
C4906 C4920 1.377 . S
C4907 C4906 1.524 . S
C4907 C4908 1.397 . S
C4907 C4912 1.363 . S
C4908 H4885 0.950 . S
C4908 C4907 1.397 . S
C4908 C4909 1.334 . S
C4909 H4886 0.950 . S
C4909 C4908 1.334 . S
C4909 C4910 1.287 . S
C4910 C4909 1.287 . S
C4910 C4911 1.524 . S
C4910 H4929 0.913 . S
C4911 H4887 0.950 . S
C4911 C4910 1.524 . S
C4911 C4912 1.415 . S
C4912 H4888 0.950 . S
C4912 C4907 1.363 . S
C4912 C4911 1.415 . S
C4913 H4889 0.951 . S
C4913 C4914 1.366 . S
C4913 C4915 1.388 . S
C4914 C4913 1.366 . S
C4914 C4918 1.385 . S
C4915 H4890 0.951 . S
C4915 C4913 1.388 . S
C4915 C4916 1.366 . S
C4916 C4915 1.366 . S
C4916 C4917 1.414 . S
C4916 C4919 1.499 . S
C4917 H4891 0.950 . S
C4917 C4916 1.414 . S
C4917 C4918 1.374 . S
C4918 H4892 0.950 . S
C4918 C4914 1.385 . S
C4918 C4917 1.374 . S
C4919 C4916 1.499 . S
C4919 C4920 1.373 . S
C4919 C4921 1.389 . S
C4920 H4893 0.950 . S
C4920 C4906 1.377 . S
C4920 C4919 1.373 . S
C4921 C4905 1.377 . S
C4921 C4919 1.389 . S
C4921 C4922 1.524 . S
C4922 C4921 1.524 . S
C4922 C4923 1.397 . S
C4922 C4927 1.363 . S
C4923 H4894 0.950 . S
C4923 C4922 1.397 . S
C4923 C4924 1.334 . S
C4924 H4895 0.950 . S
C4924 C4923 1.334 . S
C4924 C4925 1.287 . S
C4925 C4924 1.287 . S
C4925 C4926 1.524 . S
C4925 H4928 0.999 . S
C4926 H4896 0.950 . S
C4926 C4925 1.524 . S
C4926 C4927 1.415 . S
C4927 H4897 0.950 . S
C4927 C4922 1.363 . S
C4927 C4926 1.415 . S
H4928 C4925 0.999 . S
H4929 C4910 0.913 . S
H4930 C4948 0.951 . S
H4931 C4950 0.951 . S
H4932 C4952 0.950 . S
H4933 C4953 0.950 . S
H4934 C4955 0.950 . S
H4935 C4958 0.950 . S
H4936 C4959 0.950 . S
H4937 C4961 0.950 . S
H4938 C4962 0.950 . S
H4939 C4963 0.951 . S
H4940 C4965 0.951 . S
H4941 C4967 0.950 . S
H4942 C4968 0.950 . S
H4943 C4970 0.950 . S
H4944 C4973 0.950 . S
H4945 C4974 0.950 . S
H4946 C4976 0.950 . S
H4947 C4977 0.950 . S
C4948 H4930 0.951 . S
C4948 C4949 1.366 . S
C4948 C4950 1.388 . S
C4949 C4948 1.366 . S
C4949 C4953 1.385 . S
C4950 H4931 0.951 . S
C4950 C4948 1.388 . S
C4950 C4951 1.366 . S
C4951 C4950 1.366 . S
C4951 C4952 1.414 . S
C4951 C4954 1.499 . S
C4952 H4932 0.950 . S
C4952 C4951 1.414 . S
C4952 C4953 1.374 . S
C4953 H4933 0.950 . S
C4953 C4949 1.385 . S
C4953 C4952 1.374 . S
C4954 C4951 1.499 . S
C4954 C4955 1.373 . S
C4954 C4956 1.389 . S
C4955 H4934 0.950 . S
C4955 C4954 1.373 . S
C4955 C4971 1.377 . S
C4956 C4954 1.389 . S
C4956 C4957 1.524 . S
C4956 C4970 1.377 . S
C4957 C4956 1.524 . S
C4957 C4958 1.397 . S
C4957 C4962 1.363 . S
C4958 H4935 0.950 . S
C4958 C4957 1.397 . S
C4958 C4959 1.334 . S
C4959 H4936 0.950 . S
C4959 C4958 1.334 . S
C4959 C4960 1.287 . S
C4960 C4959 1.287 . S
C4960 C4961 1.524 . S
C4960 H4979 0.913 . S
C4961 H4937 0.950 . S
C4961 C4960 1.524 . S
C4961 C4962 1.415 . S
C4962 H4938 0.950 . S
C4962 C4957 1.363 . S
C4962 C4961 1.415 . S
C4963 H4939 0.951 . S
C4963 C4964 1.366 . S
C4963 C4965 1.388 . S
C4964 C4963 1.366 . S
C4964 C4968 1.385 . S
C4965 H4940 0.951 . S
C4965 C4963 1.388 . S
C4965 C4966 1.366 . S
C4966 C4965 1.366 . S
C4966 C4967 1.414 . S
C4966 C4969 1.499 . S
C4967 H4941 0.950 . S
C4967 C4966 1.414 . S
C4967 C4968 1.374 . S
C4968 H4942 0.950 . S
C4968 C4964 1.385 . S
C4968 C4967 1.374 . S
C4969 C4966 1.499 . S
C4969 C4970 1.373 . S
C4969 C4971 1.389 . S
C4970 H4943 0.950 . S
C4970 C4956 1.377 . S
C4970 C4969 1.373 . S
C4971 C4955 1.377 . S
C4971 C4969 1.389 . S
C4971 C4972 1.524 . S
C4972 C4971 1.524 . S
C4972 C4973 1.397 . S
C4972 C4977 1.363 . S
C4973 H4944 0.950 . S
C4973 C4972 1.397 . S
C4973 C4974 1.334 . S
C4974 H4945 0.950 . S
C4974 C4973 1.334 . S
C4974 C4975 1.287 . S
C4975 C4974 1.287 . S
C4975 C4976 1.524 . S
C4975 H4978 0.999 . S
C4976 H4946 0.950 . S
C4976 C4975 1.524 . S
C4976 C4977 1.415 . S
C4977 H4947 0.950 . S
C4977 C4972 1.363 . S
C4977 C4976 1.415 . S
H4978 C4975 0.999 . S
H4979 C4960 0.913 . S
H4980 C4998 0.951 . S
H4981 C5000 0.951 . S
H4982 C5002 0.950 . S
H4983 C5003 0.950 . S
H4984 C5005 0.950 . S
H4985 C5008 0.950 . S
H4986 C5009 0.950 . S
H4987 C5011 0.950 . S
H4988 C5012 0.950 . S
H4989 C5013 0.951 . S
H4990 C5015 0.951 . S
H4991 C5017 0.950 . S
H4992 C5018 0.950 . S
H4993 C5020 0.950 . S
H4994 C5023 0.950 . S
H4995 C5024 0.950 . S
H4996 C5026 0.950 . S
H4997 C5027 0.950 . S
C4998 H4980 0.951 . S
C4998 C4999 1.366 . S
C4998 C5000 1.388 . S
C4999 C4998 1.366 . S
C4999 C5003 1.385 . S
C5000 H4981 0.951 . S
C5000 C4998 1.388 . S
C5000 C5001 1.366 . S
C5001 C5000 1.366 . S
C5001 C5002 1.414 . S
C5001 C5004 1.499 . S
C5002 H4982 0.950 . S
C5002 C5001 1.414 . S
C5002 C5003 1.374 . S
C5003 H4983 0.950 . S
C5003 C4999 1.385 . S
C5003 C5002 1.374 . S
C5004 C5001 1.499 . S
C5004 C5005 1.373 . S
C5004 C5006 1.389 . S
C5005 H4984 0.950 . S
C5005 C5004 1.373 . S
C5005 C5021 1.377 . S
C5006 C5004 1.389 . S
C5006 C5007 1.524 . S
C5006 C5020 1.377 . S
C5007 C5006 1.524 . S
C5007 C5008 1.397 . S
C5007 C5012 1.363 . S
C5008 H4985 0.950 . S
C5008 C5007 1.397 . S
C5008 C5009 1.334 . S
C5009 H4986 0.950 . S
C5009 C5008 1.334 . S
C5009 C5010 1.287 . S
C5010 C5009 1.287 . S
C5010 C5011 1.524 . S
C5010 H5029 0.913 . S
C5011 H4987 0.950 . S
C5011 C5010 1.524 . S
C5011 C5012 1.415 . S
C5012 H4988 0.950 . S
C5012 C5007 1.363 . S
C5012 C5011 1.415 . S
C5013 H4989 0.951 . S
C5013 C5014 1.366 . S
C5013 C5015 1.388 . S
C5014 C5013 1.366 . S
C5014 C5018 1.385 . S
C5015 H4990 0.951 . S
C5015 C5013 1.388 . S
C5015 C5016 1.366 . S
C5016 C5015 1.366 . S
C5016 C5017 1.414 . S
C5016 C5019 1.499 . S
C5017 H4991 0.950 . S
C5017 C5016 1.414 . S
C5017 C5018 1.374 . S
C5018 H4992 0.950 . S
C5018 C5014 1.385 . S
C5018 C5017 1.374 . S
C5019 C5016 1.499 . S
C5019 C5020 1.373 . S
C5019 C5021 1.389 . S
C5020 H4993 0.950 . S
C5020 C5006 1.377 . S
C5020 C5019 1.373 . S
C5021 C5005 1.377 . S
C5021 C5019 1.389 . S
C5021 C5022 1.524 . S
C5022 C5021 1.524 . S
C5022 C5023 1.397 . S
C5022 C5027 1.363 . S
C5023 H4994 0.950 . S
C5023 C5022 1.397 . S
C5023 C5024 1.334 . S
C5024 H4995 0.950 . S
C5024 C5023 1.334 . S
C5024 C5025 1.287 . S
C5025 C5024 1.287 . S
C5025 C5026 1.524 . S
C5025 H5028 0.999 . S
C5026 H4996 0.950 . S
C5026 C5025 1.524 . S
C5026 C5027 1.415 . S
C5027 H4997 0.950 . S
C5027 C5022 1.363 . S
C5027 C5026 1.415 . S
H5028 C5025 0.999 . S
H5029 C5010 0.913 . S
H5030 C5048 0.951 . S
H5031 C5050 0.951 . S
H5032 C5052 0.950 . S
H5033 C5053 0.950 . S
H5034 C5055 0.941 1_556 S
H5035 C5058 0.950 . S
H5036 C5059 0.950 . S
H5037 C5061 0.950 . S
H5038 C5062 0.961 . S
H5039 C5063 0.951 . S
H5040 C5065 0.951 . S
H5041 C5067 0.966 . S
H5042 C5068 0.927 1_556 S
H5043 C5070 0.950 . S
H5044 C5073 0.950 . S
H5045 C5074 0.950 . S
H5046 C5076 0.934 1_554 S
H5047 C5077 0.950 . S
C5048 H5030 0.951 . S
C5048 C5049 1.366 1_556 S
C5048 C5050 1.388 . S
C5049 C5048 1.366 1_554 S
C5049 C5053 1.385 . S
C5050 H5031 0.951 . S
C5050 C5048 1.388 . S
C5050 C5051 1.366 1_556 S
C5051 C5050 1.366 1_554 S
C5051 C5052 1.414 . S
C5051 C5054 1.499 . S
C5052 H5032 0.950 . S
C5052 C5051 1.414 . S
C5052 C5053 1.374 . S
C5053 H5033 0.950 . S
C5053 C5049 1.385 . S
C5053 C5052 1.374 . S
C5054 C5051 1.499 . S
C5054 C5055 1.373 . S
C5054 C5056 1.389 . S
C5055 H5034 0.941 1_554 S
C5055 C5054 1.373 . S
C5055 C5071 1.377 . S
C5056 C5054 1.389 . S
C5056 C5057 1.524 . S
C5056 C5070 1.377 . S
C5057 C5056 1.524 . S
C5057 C5058 1.397 . S
C5057 C5062 1.363 . S
C5058 H5035 0.950 . S
C5058 C5057 1.397 . S
C5058 C5059 1.334 . S
C5059 H5036 0.950 . S
C5059 C5058 1.334 . S
C5059 C5060 1.287 . S
C5060 C5059 1.287 . S
C5060 C5061 1.524 . S
C5060 H5079 0.913 . S
C5061 H5037 0.950 . S
C5061 C5060 1.524 . S
C5061 C5062 1.415 . S
C5062 H5038 0.961 . S
C5062 C5057 1.363 . S
C5062 C5061 1.415 . S
C5063 H5039 0.951 . S
C5063 C5064 1.366 . S
C5063 C5065 1.388 . S
C5064 C5063 1.366 . S
C5064 C5068 1.404 1_545 S
C5065 H5040 0.951 . S
C5065 C5063 1.388 . S
C5065 C5066 1.366 1_545 S
C5066 C5065 1.366 1_565 S
C5066 C5067 1.397 1_554 S
C5066 C5069 1.499 . S
C5067 H5041 0.966 . S
C5067 C5066 1.397 1_556 S
C5067 C5068 1.384 1_556 S
C5068 H5042 0.927 1_554 S
C5068 C5064 1.404 1_565 S
C5068 C5067 1.384 1_554 S
C5069 C5066 1.499 . S
C5069 C5070 1.373 . S
C5069 C5071 1.389 . S
C5070 H5043 0.950 . S
C5070 C5056 1.377 . S
C5070 C5069 1.373 . S
C5071 C5055 1.377 . S
C5071 C5069 1.389 . S
C5071 C5072 1.524 1_564 S
C5072 C5071 1.524 1_546 S
C5072 C5073 1.397 . S
C5072 C5077 1.363 1_556 S
C5073 H5044 0.950 . S
C5073 C5072 1.397 . S
C5073 C5074 1.334 . S
C5074 H5045 0.950 . S
C5074 C5073 1.334 . S
C5074 C5075 1.287 . S
C5075 C5074 1.287 . S
C5075 C5076 1.524 . S
C5075 H5078 0.999 . S
C5076 H5046 0.934 1_556 S
C5076 C5075 1.524 . S
C5076 C5077 1.415 1_556 S
C5077 H5047 0.950 . S
C5077 C5072 1.363 1_554 S
C5077 C5076 1.415 1_554 S
H5078 C5075 0.999 . S
H5079 C5060 0.913 . S
H5080 C5098 0.951 . S
H5081 C5100 0.951 . S
H5082 C5102 0.950 . S
H5083 C5103 0.950 . S
H5084 C5105 0.950 . S
H5085 C5108 0.950 . S
H5086 C5109 0.950 . S
H5087 C5111 0.950 . S
H5088 C5112 0.950 . S
H5089 C5113 0.951 . S
H5090 C5115 0.951 . S
H5091 C5117 0.950 . S
H5092 C5118 0.950 . S
H5093 C5120 0.950 . S
H5094 C5123 0.950 . S
H5095 C5124 0.950 . S
H5096 C5126 0.950 . S
H5097 C5127 0.950 . S
C5098 H5080 0.951 . S
C5098 C5099 1.366 . S
C5098 C5100 1.388 . S
C5099 C5098 1.366 . S
C5099 C5103 1.385 . S
C5100 H5081 0.951 . S
C5100 C5098 1.388 . S
C5100 C5101 1.366 . S
C5101 C5100 1.366 . S
C5101 C5102 1.414 . S
C5101 C5104 1.499 . S
C5102 H5082 0.950 . S
C5102 C5101 1.414 . S
C5102 C5103 1.374 . S
C5103 H5083 0.950 . S
C5103 C5099 1.385 . S
C5103 C5102 1.374 . S
C5104 C5101 1.499 . S
C5104 C5105 1.373 . S
C5104 C5106 1.389 . S
C5105 H5084 0.950 . S
C5105 C5104 1.373 . S
C5105 C5121 1.377 . S
C5106 C5104 1.389 . S
C5106 C5107 1.524 . S
C5106 C5120 1.377 . S
C5107 C5106 1.524 . S
C5107 C5108 1.397 . S
C5107 C5112 1.363 . S
C5108 H5085 0.950 . S
C5108 C5107 1.397 . S
C5108 C5109 1.334 . S
C5109 H5086 0.950 . S
C5109 C5108 1.334 . S
C5109 C5110 1.287 . S
C5110 C5109 1.287 . S
C5110 C5111 1.524 . S
C5110 H5129 0.913 . S
C5111 H5087 0.950 . S
C5111 C5110 1.524 . S
C5111 C5112 1.415 . S
C5112 H5088 0.950 . S
C5112 C5107 1.363 . S
C5112 C5111 1.415 . S
C5113 H5089 0.951 . S
C5113 C5114 1.366 . S
C5113 C5115 1.388 . S
C5114 C5113 1.366 . S
C5114 C5118 1.385 . S
C5115 H5090 0.951 . S
C5115 C5113 1.388 . S
C5115 C5116 1.366 . S
C5116 C5115 1.366 . S
C5116 C5117 1.414 . S
C5116 C5119 1.499 . S
C5117 H5091 0.950 . S
C5117 C5116 1.414 . S
C5117 C5118 1.374 . S
C5118 H5092 0.950 . S
C5118 C5114 1.385 . S
C5118 C5117 1.374 . S
C5119 C5116 1.499 . S
C5119 C5120 1.373 . S
C5119 C5121 1.389 . S
C5120 H5093 0.950 . S
C5120 C5106 1.377 . S
C5120 C5119 1.373 . S
C5121 C5105 1.377 . S
C5121 C5119 1.389 . S
C5121 C5122 1.524 . S
C5122 C5121 1.524 . S
C5122 C5123 1.397 . S
C5122 C5127 1.363 . S
C5123 H5094 0.950 . S
C5123 C5122 1.397 . S
C5123 C5124 1.334 . S
C5124 H5095 0.950 . S
C5124 C5123 1.334 . S
C5124 C5125 1.287 . S
C5125 C5124 1.287 . S
C5125 C5126 1.524 . S
C5125 H5128 0.999 . S
C5126 H5096 0.950 . S
C5126 C5125 1.524 . S
C5126 C5127 1.415 . S
C5127 H5097 0.950 . S
C5127 C5122 1.363 . S
C5127 C5126 1.415 . S
H5128 C5125 0.999 . S
H5129 C5110 0.913 . S
H5130 C5148 0.951 . S
H5131 C5150 0.951 . S
H5132 C5152 0.950 . S
H5133 C5153 0.950 . S
H5134 C5155 0.950 1_556 S
H5135 C5158 0.950 . S
H5136 C5159 0.950 . S
H5137 C5161 0.950 . S
H5138 C5162 0.950 . S
H5139 C5163 0.951 . S
H5140 C5165 0.951 . S
H5141 C5167 0.950 . S
H5142 C5168 0.950 . S
H5143 C5170 0.950 . S
H5144 C5173 0.950 . S
H5145 C5174 0.950 . S
H5146 C5176 0.950 . S
H5147 C5177 0.950 . S
C5148 H5130 0.951 . S
C5148 C5149 1.366 . S
C5148 C5150 1.388 . S
C5149 C5148 1.366 . S
C5149 C5153 1.385 . S
C5150 H5131 0.951 . S
C5150 C5148 1.388 . S
C5150 C5151 1.366 . S
C5151 C5150 1.366 . S
C5151 C5152 1.414 . S
C5151 C5154 1.499 . S
C5152 H5132 0.950 . S
C5152 C5151 1.414 . S
C5152 C5153 1.374 . S
C5153 H5133 0.950 . S
C5153 C5149 1.385 . S
C5153 C5152 1.374 . S
C5154 C5151 1.499 . S
C5154 C5155 1.373 . S
C5154 C5156 1.389 . S
C5155 H5134 0.950 1_554 S
C5155 C5154 1.373 . S
C5155 C5171 1.377 . S
C5156 C5154 1.389 . S
C5156 C5157 1.524 . S
C5156 C5170 1.377 . S
C5157 C5156 1.524 . S
C5157 C5158 1.397 . S
C5157 C5162 1.363 . S
C5158 H5135 0.950 . S
C5158 C5157 1.397 . S
C5158 C5159 1.334 . S
C5159 H5136 0.950 . S
C5159 C5158 1.334 . S
C5159 C5160 1.287 . S
C5160 C5159 1.287 . S
C5160 C5161 1.524 . S
C5160 H5179 0.913 . S
C5161 H5137 0.950 . S
C5161 C5160 1.524 . S
C5161 C5162 1.415 . S
C5162 H5138 0.950 . S
C5162 C5157 1.363 . S
C5162 C5161 1.415 . S
C5163 H5139 0.951 . S
C5163 C5164 1.366 . S
C5163 C5165 1.388 . S
C5164 C5163 1.366 . S
C5164 C5168 1.385 . S
C5165 H5140 0.951 . S
C5165 C5163 1.388 . S
C5165 C5166 1.366 . S
C5166 C5165 1.366 . S
C5166 C5167 1.414 . S
C5166 C5169 1.499 . S
C5167 H5141 0.950 . S
C5167 C5166 1.414 . S
C5167 C5168 1.374 . S
C5168 H5142 0.950 . S
C5168 C5164 1.385 . S
C5168 C5167 1.374 . S
C5169 C5166 1.499 . S
C5169 C5170 1.373 . S
C5169 C5171 1.389 . S
C5170 H5143 0.950 . S
C5170 C5156 1.377 . S
C5170 C5169 1.373 . S
C5171 C5155 1.377 . S
C5171 C5169 1.389 . S
C5171 C5172 1.524 1_554 S
C5172 C5171 1.524 1_556 S
C5172 C5173 1.397 . S
C5172 C5177 1.363 . S
C5173 H5144 0.950 . S
C5173 C5172 1.397 . S
C5173 C5174 1.334 . S
C5174 H5145 0.950 . S
C5174 C5173 1.334 . S
C5174 C5175 1.287 . S
C5175 C5174 1.287 . S
C5175 C5176 1.524 . S
C5175 H5178 0.999 . S
C5176 H5146 0.950 . S
C5176 C5175 1.524 . S
C5176 C5177 1.415 . S
C5177 H5147 0.950 . S
C5177 C5172 1.363 . S
C5177 C5176 1.415 . S
H5178 C5175 0.999 . S
H5179 C5160 0.913 . S
H5180 C5198 0.951 . S
H5181 C5200 0.951 . S
H5182 C5202 0.950 . S
H5183 C5203 0.950 . S
H5184 C5205 0.950 . S
H5185 C5208 0.950 . S
H5186 C5209 0.950 . S
H5187 C5211 0.950 . S
H5188 C5212 0.950 . S
H5189 C5213 0.951 . S
H5190 C5215 0.951 . S
H5191 C5217 0.950 . S
H5192 C5218 0.950 . S
H5193 C5220 0.950 . S
H5194 C5223 0.950 . S
H5195 C5224 0.950 . S
H5196 C5226 0.950 . S
H5197 C5227 0.950 . S
C5198 H5180 0.951 . S
C5198 C5199 1.366 . S
C5198 C5200 1.388 . S
C5199 C5198 1.366 . S
C5199 C5203 1.385 . S
C5200 H5181 0.951 . S
C5200 C5198 1.388 . S
C5200 C5201 1.366 . S
C5201 C5200 1.366 . S
C5201 C5202 1.414 . S
C5201 C5204 1.499 . S
C5202 H5182 0.950 . S
C5202 C5201 1.414 . S
C5202 C5203 1.374 . S
C5203 H5183 0.950 . S
C5203 C5199 1.385 . S
C5203 C5202 1.374 . S
C5204 C5201 1.499 . S
C5204 C5205 1.373 . S
C5204 C5206 1.389 . S
C5205 H5184 0.950 . S
C5205 C5204 1.373 . S
C5205 C5221 1.377 . S
C5206 C5204 1.389 . S
C5206 C5207 1.524 . S
C5206 C5220 1.377 . S
C5207 C5206 1.524 . S
C5207 C5208 1.397 . S
C5207 C5212 1.363 . S
C5208 H5185 0.950 . S
C5208 C5207 1.397 . S
C5208 C5209 1.334 . S
C5209 H5186 0.950 . S
C5209 C5208 1.334 . S
C5209 C5210 1.287 . S
C5210 C5209 1.287 . S
C5210 C5211 1.524 . S
C5210 H5229 0.913 . S
C5211 H5187 0.950 . S
C5211 C5210 1.524 . S
C5211 C5212 1.415 . S
C5212 H5188 0.950 . S
C5212 C5207 1.363 . S
C5212 C5211 1.415 . S
C5213 H5189 0.951 . S
C5213 C5214 1.366 . S
C5213 C5215 1.388 . S
C5214 C5213 1.366 . S
C5214 C5218 1.385 . S
C5215 H5190 0.951 . S
C5215 C5213 1.388 . S
C5215 C5216 1.366 . S
C5216 C5215 1.366 . S
C5216 C5217 1.414 . S
C5216 C5219 1.499 . S
C5217 H5191 0.950 . S
C5217 C5216 1.414 . S
C5217 C5218 1.374 . S
C5218 H5192 0.950 . S
C5218 C5214 1.385 . S
C5218 C5217 1.374 . S
C5219 C5216 1.499 . S
C5219 C5220 1.373 . S
C5219 C5221 1.389 . S
C5220 H5193 0.950 . S
C5220 C5206 1.377 . S
C5220 C5219 1.373 . S
C5221 C5205 1.377 . S
C5221 C5219 1.389 . S
C5221 C5222 1.524 . S
C5222 C5221 1.524 . S
C5222 C5223 1.397 . S
C5222 C5227 1.363 . S
C5223 H5194 0.950 . S
C5223 C5222 1.397 . S
C5223 C5224 1.334 . S
C5224 H5195 0.950 . S
C5224 C5223 1.334 . S
C5224 C5225 1.287 . S
C5225 C5224 1.287 . S
C5225 C5226 1.524 . S
C5225 H5228 0.999 . S
C5226 H5196 0.950 . S
C5226 C5225 1.524 . S
C5226 C5227 1.415 . S
C5227 H5197 0.950 . S
C5227 C5222 1.363 . S
C5227 C5226 1.415 . S
H5228 C5225 0.999 . S
H5229 C5210 0.913 . S
H5230 C5248 0.951 . S
H5231 C5250 0.951 . S
H5232 C5252 0.950 . S
H5233 C5253 0.950 . S
H5234 C5255 0.950 . S
H5235 C5258 0.950 . S
H5236 C5259 0.950 . S
H5237 C5261 0.950 . S
H5238 C5262 0.950 . S
H5239 C5263 0.951 . S
H5240 C5265 0.951 . S
H5241 C5267 0.950 . S
H5242 C5268 0.950 . S
H5243 C5270 0.950 . S
H5244 C5273 0.950 . S
H5245 C5274 0.950 . S
H5246 C5276 0.950 . S
H5247 C5277 0.950 . S
C5248 H5230 0.951 . S
C5248 C5249 1.366 . S
C5248 C5250 1.388 . S
C5249 C5248 1.366 . S
C5249 C5253 1.385 . S
C5250 H5231 0.951 . S
C5250 C5248 1.388 . S
C5250 C5251 1.366 . S
C5251 C5250 1.366 . S
C5251 C5252 1.414 . S
C5251 C5254 1.499 . S
C5252 H5232 0.950 . S
C5252 C5251 1.414 . S
C5252 C5253 1.374 . S
C5253 H5233 0.950 . S
C5253 C5249 1.385 . S
C5253 C5252 1.374 . S
C5254 C5251 1.499 . S
C5254 C5255 1.373 . S
C5254 C5256 1.389 . S
C5255 H5234 0.950 . S
C5255 C5254 1.373 . S
C5255 C5271 1.377 . S
C5256 C5254 1.389 . S
C5256 C5257 1.524 . S
C5256 C5270 1.377 . S
C5257 C5256 1.524 . S
C5257 C5258 1.397 . S
C5257 C5262 1.363 . S
C5258 H5235 0.950 . S
C5258 C5257 1.397 . S
C5258 C5259 1.334 . S
C5259 H5236 0.950 . S
C5259 C5258 1.334 . S
C5259 C5260 1.287 . S
C5260 C5259 1.287 . S
C5260 C5261 1.524 . S
C5260 H5279 0.913 . S
C5261 H5237 0.950 . S
C5261 C5260 1.524 . S
C5261 C5262 1.415 . S
C5262 H5238 0.950 . S
C5262 C5257 1.363 . S
C5262 C5261 1.415 . S
C5263 H5239 0.951 . S
C5263 C5264 1.366 . S
C5263 C5265 1.388 . S
C5264 C5263 1.366 . S
C5264 C5268 1.385 . S
C5265 H5240 0.951 . S
C5265 C5263 1.388 . S
C5265 C5266 1.366 . S
C5266 C5265 1.366 . S
C5266 C5267 1.414 . S
C5266 C5269 1.499 . S
C5267 H5241 0.950 . S
C5267 C5266 1.414 . S
C5267 C5268 1.374 . S
C5268 H5242 0.950 . S
C5268 C5264 1.385 . S
C5268 C5267 1.374 . S
C5269 C5266 1.499 . S
C5269 C5270 1.373 . S
C5269 C5271 1.389 . S
C5270 H5243 0.950 . S
C5270 C5256 1.377 . S
C5270 C5269 1.373 . S
C5271 C5255 1.377 . S
C5271 C5269 1.389 . S
C5271 C5272 1.524 . S
C5272 C5271 1.524 . S
C5272 C5273 1.397 . S
C5272 C5277 1.363 . S
C5273 H5244 0.950 . S
C5273 C5272 1.397 . S
C5273 C5274 1.334 . S
C5274 H5245 0.950 . S
C5274 C5273 1.334 . S
C5274 C5275 1.287 . S
C5275 C5274 1.287 . S
C5275 C5276 1.524 . S
C5275 H5278 0.999 . S
C5276 H5246 0.950 . S
C5276 C5275 1.524 . S
C5276 C5277 1.415 . S
C5277 H5247 0.950 . S
C5277 C5272 1.363 . S
C5277 C5276 1.415 . S
H5278 C5275 0.999 . S
H5279 C5260 0.913 . S
H5280 C5298 0.951 . S
H5281 C5300 0.951 . S
H5282 C5302 0.950 . S
H5283 C5303 0.950 . S
H5284 C5305 0.950 . S
H5285 C5308 0.950 . S
H5286 C5309 0.950 . S
H5287 C5311 0.950 . S
H5288 C5312 0.950 . S
H5289 C5313 0.951 . S
H5290 C5315 0.951 . S
H5291 C5317 0.950 . S
H5292 C5318 0.950 . S
H5293 C5320 0.950 . S
H5294 C5323 0.950 . S
H5295 C5324 0.950 . S
H5296 C5326 0.950 . S
H5297 C5327 0.950 . S
C5298 H5280 0.951 . S
C5298 C5299 1.366 . S
C5298 C5300 1.388 . S
C5299 C5298 1.366 . S
C5299 C5303 1.385 . S
C5300 H5281 0.951 . S
C5300 C5298 1.388 . S
C5300 C5301 1.366 . S
C5301 C5300 1.366 . S
C5301 C5302 1.414 . S
C5301 C5304 1.499 . S
C5302 H5282 0.950 . S
C5302 C5301 1.414 . S
C5302 C5303 1.374 . S
C5303 H5283 0.950 . S
C5303 C5299 1.385 . S
C5303 C5302 1.374 . S
C5304 C5301 1.499 . S
C5304 C5305 1.373 . S
C5304 C5306 1.389 . S
C5305 H5284 0.950 . S
C5305 C5304 1.373 . S
C5305 C5321 1.377 . S
C5306 C5304 1.389 . S
C5306 C5307 1.524 . S
C5306 C5320 1.377 . S
C5307 C5306 1.524 . S
C5307 C5308 1.397 . S
C5307 C5312 1.363 . S
C5308 H5285 0.950 . S
C5308 C5307 1.397 . S
C5308 C5309 1.334 . S
C5309 H5286 0.950 . S
C5309 C5308 1.334 . S
C5309 C5310 1.287 . S
C5310 C5309 1.287 . S
C5310 C5311 1.524 . S
C5310 H5329 0.913 . S
C5311 H5287 0.950 . S
C5311 C5310 1.524 . S
C5311 C5312 1.415 . S
C5312 H5288 0.950 . S
C5312 C5307 1.363 . S
C5312 C5311 1.415 . S
C5313 H5289 0.951 . S
C5313 C5314 1.366 . S
C5313 C5315 1.388 . S
C5314 C5313 1.366 . S
C5314 C5318 1.385 . S
C5315 H5290 0.951 . S
C5315 C5313 1.388 . S
C5315 C5316 1.366 . S
C5316 C5315 1.366 . S
C5316 C5317 1.414 . S
C5316 C5319 1.499 . S
C5317 H5291 0.950 . S
C5317 C5316 1.414 . S
C5317 C5318 1.374 . S
C5318 H5292 0.950 . S
C5318 C5314 1.385 . S
C5318 C5317 1.374 . S
C5319 C5316 1.499 . S
C5319 C5320 1.373 . S
C5319 C5321 1.389 . S
C5320 H5293 0.950 . S
C5320 C5306 1.377 . S
C5320 C5319 1.373 . S
C5321 C5305 1.377 . S
C5321 C5319 1.389 . S
C5321 C5322 1.524 . S
C5322 C5321 1.524 . S
C5322 C5323 1.397 . S
C5322 C5327 1.363 . S
C5323 H5294 0.950 . S
C5323 C5322 1.397 . S
C5323 C5324 1.334 . S
C5324 H5295 0.950 . S
C5324 C5323 1.334 . S
C5324 C5325 1.287 . S
C5325 C5324 1.287 . S
C5325 C5326 1.524 . S
C5325 H5328 0.999 . S
C5326 H5296 0.950 . S
C5326 C5325 1.524 . S
C5326 C5327 1.415 . S
C5327 H5297 0.950 . S
C5327 C5322 1.363 . S
C5327 C5326 1.415 . S
H5328 C5325 0.999 . S
H5329 C5310 0.913 . S
H5330 C5348 0.951 . S
H5331 C5350 0.951 . S
H5332 C5352 0.950 . S
H5333 C5353 0.950 . S
H5334 C5355 0.950 . S
H5335 C5358 0.950 . S
H5336 C5359 0.950 . S
H5337 C5361 0.950 . S
H5338 C5362 0.950 . S
H5339 C5363 0.951 . S
H5340 C5365 0.951 . S
H5341 C5367 0.950 . S
H5342 C5368 0.950 . S
H5343 C5370 0.950 . S
H5344 C5373 0.950 . S
H5345 C5374 0.950 . S
H5346 C5376 0.950 . S
H5347 C5377 0.950 . S
C5348 H5330 0.951 . S
C5348 C5349 1.366 . S
C5348 C5350 1.388 . S
C5349 C5348 1.366 . S
C5349 C5353 1.385 . S
C5350 H5331 0.951 . S
C5350 C5348 1.388 . S
C5350 C5351 1.366 . S
C5351 C5350 1.366 . S
C5351 C5352 1.414 . S
C5351 C5354 1.499 . S
C5352 H5332 0.950 . S
C5352 C5351 1.414 . S
C5352 C5353 1.374 . S
C5353 H5333 0.950 . S
C5353 C5349 1.385 . S
C5353 C5352 1.374 . S
C5354 C5351 1.499 . S
C5354 C5355 1.373 . S
C5354 C5356 1.389 . S
C5355 H5334 0.950 . S
C5355 C5354 1.373 . S
C5355 C5371 1.377 . S
C5356 C5354 1.389 . S
C5356 C5357 1.524 . S
C5356 C5370 1.377 . S
C5357 C5356 1.524 . S
C5357 C5358 1.397 . S
C5357 C5362 1.363 . S
C5358 H5335 0.950 . S
C5358 C5357 1.397 . S
C5358 C5359 1.334 . S
C5359 H5336 0.950 . S
C5359 C5358 1.334 . S
C5359 C5360 1.287 . S
C5360 C5359 1.287 . S
C5360 C5361 1.524 . S
C5360 H5379 0.913 . S
C5361 H5337 0.950 . S
C5361 C5360 1.524 . S
C5361 C5362 1.415 . S
C5362 H5338 0.950 . S
C5362 C5357 1.363 . S
C5362 C5361 1.415 . S
C5363 H5339 0.951 . S
C5363 C5364 1.366 . S
C5363 C5365 1.388 . S
C5364 C5363 1.366 . S
C5364 C5368 1.385 . S
C5365 H5340 0.951 . S
C5365 C5363 1.388 . S
C5365 C5366 1.366 . S
C5366 C5365 1.366 . S
C5366 C5367 1.414 . S
C5366 C5369 1.499 . S
C5367 H5341 0.950 . S
C5367 C5366 1.414 . S
C5367 C5368 1.374 . S
C5368 H5342 0.950 . S
C5368 C5364 1.385 . S
C5368 C5367 1.374 . S
C5369 C5366 1.499 . S
C5369 C5370 1.373 . S
C5369 C5371 1.389 . S
C5370 H5343 0.950 . S
C5370 C5356 1.377 . S
C5370 C5369 1.373 . S
C5371 C5355 1.377 . S
C5371 C5369 1.389 . S
C5371 C5372 1.524 . S
C5372 C5371 1.524 . S
C5372 C5373 1.397 . S
C5372 C5377 1.363 . S
C5373 H5344 0.950 . S
C5373 C5372 1.397 . S
C5373 C5374 1.334 . S
C5374 H5345 0.950 . S
C5374 C5373 1.334 . S
C5374 C5375 1.287 . S
C5375 C5374 1.287 . S
C5375 C5376 1.524 . S
C5375 H5378 0.999 . S
C5376 H5346 0.950 . S
C5376 C5375 1.524 . S
C5376 C5377 1.415 . S
C5377 H5347 0.950 . S
C5377 C5372 1.363 . S
C5377 C5376 1.415 . S
H5378 C5375 0.999 . S
H5379 C5360 0.913 . S
H5380 C5398 0.951 . S
H5381 C5400 0.951 . S
H5382 C5402 0.950 . S
H5383 C5403 0.950 . S
H5384 C5405 0.950 . S
H5385 C5408 0.934 1_455 S
H5386 C5409 0.950 . S
H5387 C5411 0.950 . S
H5388 C5412 0.950 1_455 S
H5389 C5413 0.951 . S
H5390 C5415 0.951 . S
H5391 C5417 0.950 . S
H5392 C5418 0.950 . S
H5393 C5420 0.950 . S
H5394 C5423 0.950 . S
H5395 C5424 0.950 . S
H5396 C5426 0.950 . S
H5397 C5427 0.950 . S
C5398 H5380 0.951 . S
C5398 C5399 1.366 . S
C5398 C5400 1.388 . S
C5399 C5398 1.366 . S
C5399 C5403 1.385 . S
C5400 H5381 0.951 . S
C5400 C5398 1.388 . S
C5400 C5401 1.366 . S
C5401 C5400 1.366 . S
C5401 C5402 1.414 . S
C5401 C5404 1.499 . S
C5402 H5382 0.950 . S
C5402 C5401 1.414 . S
C5402 C5403 1.374 . S
C5403 H5383 0.950 . S
C5403 C5399 1.385 . S
C5403 C5402 1.374 . S
C5404 C5401 1.499 . S
C5404 C5405 1.373 . S
C5404 C5406 1.389 . S
C5405 H5384 0.950 . S
C5405 C5404 1.373 . S
C5405 C5421 1.377 . S
C5406 C5404 1.389 . S
C5406 C5407 1.524 . S
C5406 C5420 1.377 . S
C5407 C5406 1.524 . S
C5407 C5408 1.397 1_455 S
C5407 C5412 1.363 1_455 S
C5408 H5385 0.934 1_655 S
C5408 C5407 1.397 1_655 S
C5408 C5409 1.334 . S
C5409 H5386 0.950 . S
C5409 C5408 1.334 . S
C5409 C5410 1.287 . S
C5410 C5409 1.287 . S
C5410 C5411 1.524 . S
C5410 H5429 0.913 . S
C5411 H5387 0.950 . S
C5411 C5410 1.524 . S
C5411 C5412 1.415 . S
C5412 H5388 0.950 1_655 S
C5412 C5407 1.363 1_655 S
C5412 C5411 1.415 . S
C5413 H5389 0.951 . S
C5413 C5414 1.366 . S
C5413 C5415 1.388 . S
C5414 C5413 1.366 . S
C5414 C5418 1.385 . S
C5415 H5390 0.951 . S
C5415 C5413 1.388 . S
C5415 C5416 1.366 . S
C5416 C5415 1.366 . S
C5416 C5417 1.414 . S
C5416 C5419 1.499 . S
C5417 H5391 0.950 . S
C5417 C5416 1.414 . S
C5417 C5418 1.374 . S
C5418 H5392 0.950 . S
C5418 C5414 1.385 . S
C5418 C5417 1.374 . S
C5419 C5416 1.499 . S
C5419 C5420 1.373 . S
C5419 C5421 1.389 . S
C5420 H5393 0.950 . S
C5420 C5406 1.377 . S
C5420 C5419 1.373 . S
C5421 C5405 1.377 . S
C5421 C5419 1.389 . S
C5421 C5422 1.524 . S
C5422 C5421 1.524 . S
C5422 C5423 1.397 . S
C5422 C5427 1.363 . S
C5423 H5394 0.950 . S
C5423 C5422 1.397 . S
C5423 C5424 1.334 . S
C5424 H5395 0.950 . S
C5424 C5423 1.334 . S
C5424 C5425 1.287 . S
C5425 C5424 1.287 . S
C5425 C5426 1.524 . S
C5425 H5428 0.999 . S
C5426 H5396 0.950 . S
C5426 C5425 1.524 . S
C5426 C5427 1.415 . S
C5427 H5397 0.950 . S
C5427 C5422 1.363 . S
C5427 C5426 1.415 . S
H5428 C5425 0.999 . S
H5429 C5410 0.913 . S
H5430 C5448 0.951 . S
H5431 C5450 0.951 . S
H5432 C5452 0.950 . S
H5433 C5453 0.950 . S
H5434 C5455 0.950 . S
H5435 C5458 0.950 . S
H5436 C5459 0.950 . S
H5437 C5461 0.950 . S
H5438 C5462 0.950 . S
H5439 C5463 0.951 . S
H5440 C5465 0.951 . S
H5441 C5467 0.950 . S
H5442 C5468 0.950 . S
H5443 C5470 0.950 . S
H5444 C5473 0.950 . S
H5445 C5474 0.950 . S
H5446 C5476 0.950 . S
H5447 C5477 0.950 . S
C5448 H5430 0.951 . S
C5448 C5449 1.366 . S
C5448 C5450 1.388 . S
C5449 C5448 1.366 . S
C5449 C5453 1.385 . S
C5450 H5431 0.951 . S
C5450 C5448 1.388 . S
C5450 C5451 1.366 . S
C5451 C5450 1.366 . S
C5451 C5452 1.414 . S
C5451 C5454 1.499 . S
C5452 H5432 0.950 . S
C5452 C5451 1.414 . S
C5452 C5453 1.374 . S
C5453 H5433 0.950 . S
C5453 C5449 1.385 . S
C5453 C5452 1.374 . S
C5454 C5451 1.499 . S
C5454 C5455 1.373 . S
C5454 C5456 1.389 . S
C5455 H5434 0.950 . S
C5455 C5454 1.373 . S
C5455 C5471 1.377 . S
C5456 C5454 1.389 . S
C5456 C5457 1.524 . S
C5456 C5470 1.377 . S
C5457 C5456 1.524 . S
C5457 C5458 1.397 . S
C5457 C5462 1.363 . S
C5458 H5435 0.950 . S
C5458 C5457 1.397 . S
C5458 C5459 1.334 . S
C5459 H5436 0.950 . S
C5459 C5458 1.334 . S
C5459 C5460 1.287 . S
C5460 C5459 1.287 . S
C5460 C5461 1.524 . S
C5460 H5479 0.913 . S
C5461 H5437 0.950 . S
C5461 C5460 1.524 . S
C5461 C5462 1.415 . S
C5462 H5438 0.950 . S
C5462 C5457 1.363 . S
C5462 C5461 1.415 . S
C5463 H5439 0.951 . S
C5463 C5464 1.366 . S
C5463 C5465 1.388 . S
C5464 C5463 1.366 . S
C5464 C5468 1.385 . S
C5465 H5440 0.951 . S
C5465 C5463 1.388 . S
C5465 C5466 1.366 . S
C5466 C5465 1.366 . S
C5466 C5467 1.414 . S
C5466 C5469 1.499 . S
C5467 H5441 0.950 . S
C5467 C5466 1.414 . S
C5467 C5468 1.374 . S
C5468 H5442 0.950 . S
C5468 C5464 1.385 . S
C5468 C5467 1.374 . S
C5469 C5466 1.499 . S
C5469 C5470 1.373 . S
C5469 C5471 1.389 . S
C5470 H5443 0.950 . S
C5470 C5456 1.377 . S
C5470 C5469 1.373 . S
C5471 C5455 1.377 . S
C5471 C5469 1.389 . S
C5471 C5472 1.524 . S
C5472 C5471 1.524 . S
C5472 C5473 1.397 . S
C5472 C5477 1.363 . S
C5473 H5444 0.950 . S
C5473 C5472 1.397 . S
C5473 C5474 1.334 . S
C5474 H5445 0.950 . S
C5474 C5473 1.334 . S
C5474 C5475 1.287 . S
C5475 C5474 1.287 . S
C5475 C5476 1.524 . S
C5475 H5478 0.999 . S
C5476 H5446 0.950 . S
C5476 C5475 1.524 . S
C5476 C5477 1.415 . S
C5477 H5447 0.950 . S
C5477 C5472 1.363 . S
C5477 C5476 1.415 . S
H5478 C5475 0.999 . S
H5479 C5460 0.913 . S
H5480 C5498 0.951 . S
H5481 C5500 0.951 . S
H5482 C5502 0.950 . S
H5483 C5503 0.950 . S
H5484 C5505 0.950 . S
H5485 C5508 0.950 . S
H5486 C5509 0.950 . S
H5487 C5511 0.950 . S
H5488 C5512 0.950 . S
H5489 C5513 0.951 . S
H5490 C5515 0.951 . S
H5491 C5517 0.950 . S
H5492 C5518 0.950 . S
H5493 C5520 0.950 . S
H5494 C5523 0.950 . S
H5495 C5524 0.950 1_554 S
H5496 C5526 0.950 . S
H5497 C5527 0.950 . S
C5498 H5480 0.951 . S
C5498 C5499 1.366 . S
C5498 C5500 1.388 . S
C5499 C5498 1.366 . S
C5499 C5503 1.385 . S
C5500 H5481 0.951 . S
C5500 C5498 1.388 . S
C5500 C5501 1.366 . S
C5501 C5500 1.366 . S
C5501 C5502 1.414 . S
C5501 C5504 1.499 . S
C5502 H5482 0.950 . S
C5502 C5501 1.414 . S
C5502 C5503 1.374 . S
C5503 H5483 0.950 . S
C5503 C5499 1.385 . S
C5503 C5502 1.374 . S
C5504 C5501 1.499 . S
C5504 C5505 1.373 . S
C5504 C5506 1.389 . S
C5505 H5484 0.950 . S
C5505 C5504 1.373 . S
C5505 C5521 1.377 . S
C5506 C5504 1.389 . S
C5506 C5507 1.524 . S
C5506 C5520 1.377 . S
C5507 C5506 1.524 . S
C5507 C5508 1.397 . S
C5507 C5512 1.363 . S
C5508 H5485 0.950 . S
C5508 C5507 1.397 . S
C5508 C5509 1.334 . S
C5509 H5486 0.950 . S
C5509 C5508 1.334 . S
C5509 C5510 1.287 . S
C5510 C5509 1.287 . S
C5510 C5511 1.524 . S
C5510 H5529 0.913 . S
C5511 H5487 0.950 . S
C5511 C5510 1.524 . S
C5511 C5512 1.415 . S
C5512 H5488 0.950 . S
C5512 C5507 1.363 . S
C5512 C5511 1.415 . S
C5513 H5489 0.951 . S
C5513 C5514 1.366 . S
C5513 C5515 1.388 . S
C5514 C5513 1.366 . S
C5514 C5518 1.385 . S
C5515 H5490 0.951 . S
C5515 C5513 1.388 . S
C5515 C5516 1.366 . S
C5516 C5515 1.366 . S
C5516 C5517 1.414 . S
C5516 C5519 1.499 . S
C5517 H5491 0.950 . S
C5517 C5516 1.414 . S
C5517 C5518 1.374 . S
C5518 H5492 0.950 . S
C5518 C5514 1.385 . S
C5518 C5517 1.374 . S
C5519 C5516 1.499 . S
C5519 C5520 1.373 . S
C5519 C5521 1.389 . S
C5520 H5493 0.950 . S
C5520 C5506 1.377 . S
C5520 C5519 1.373 . S
C5521 C5505 1.377 . S
C5521 C5519 1.389 . S
C5521 C5522 1.524 . S
C5522 C5521 1.524 . S
C5522 C5523 1.397 . S
C5522 C5527 1.363 . S
C5523 H5494 0.950 . S
C5523 C5522 1.397 . S
C5523 C5524 1.334 . S
C5524 H5495 0.950 1_556 S
C5524 C5523 1.334 . S
C5524 C5525 1.287 . S
C5525 C5524 1.287 . S
C5525 C5526 1.524 . S
C5525 H5528 0.999 1_556 S
C5526 H5496 0.950 . S
C5526 C5525 1.524 . S
C5526 C5527 1.415 . S
C5527 H5497 0.950 . S
C5527 C5522 1.363 . S
C5527 C5526 1.415 . S
H5528 C5525 0.999 1_554 S
H5529 C5510 0.913 . S
H5530 C5548 0.951 . S
H5531 C5550 0.951 . S
H5532 C5552 0.950 . S
H5533 C5553 0.950 . S
H5534 C5555 0.950 . S
H5535 C5558 0.950 . S
H5536 C5559 0.950 . S
H5537 C5561 0.950 . S
H5538 C5562 0.950 . S
H5539 C5563 0.951 . S
H5540 C5565 0.951 . S
H5541 C5567 0.950 . S
H5542 C5568 0.950 . S
H5543 C5570 0.950 . S
H5544 C5573 0.950 . S
H5545 C5574 0.950 . S
H5546 C5576 0.950 . S
H5547 C5577 0.950 . S
C5548 H5530 0.951 . S
C5548 C5549 1.366 . S
C5548 C5550 1.388 . S
C5549 C5548 1.366 . S
C5549 C5553 1.385 . S
C5550 H5531 0.951 . S
C5550 C5548 1.388 . S
C5550 C5551 1.366 . S
C5551 C5550 1.366 . S
C5551 C5552 1.414 . S
C5551 C5554 1.499 . S
C5552 H5532 0.950 . S
C5552 C5551 1.414 . S
C5552 C5553 1.374 . S
C5553 H5533 0.950 . S
C5553 C5549 1.385 . S
C5553 C5552 1.374 . S
C5554 C5551 1.499 . S
C5554 C5555 1.373 . S
C5554 C5556 1.389 . S
C5555 H5534 0.950 . S
C5555 C5554 1.373 . S
C5555 C5571 1.377 . S
C5556 C5554 1.389 . S
C5556 C5557 1.524 . S
C5556 C5570 1.377 . S
C5557 C5556 1.524 . S
C5557 C5558 1.397 . S
C5557 C5562 1.363 . S
C5558 H5535 0.950 . S
C5558 C5557 1.397 . S
C5558 C5559 1.334 . S
C5559 H5536 0.950 . S
C5559 C5558 1.334 . S
C5559 C5560 1.287 . S
C5560 C5559 1.287 . S
C5560 C5561 1.524 . S
C5560 H5579 0.913 . S
C5561 H5537 0.950 . S
C5561 C5560 1.524 . S
C5561 C5562 1.415 . S
C5562 H5538 0.950 . S
C5562 C5557 1.363 . S
C5562 C5561 1.415 . S
C5563 H5539 0.951 . S
C5563 C5564 1.366 . S
C5563 C5565 1.388 . S
C5564 C5563 1.366 . S
C5564 C5568 1.385 . S
C5565 H5540 0.951 . S
C5565 C5563 1.388 . S
C5565 C5566 1.366 . S
C5566 C5565 1.366 . S
C5566 C5567 1.414 . S
C5566 C5569 1.499 . S
C5567 H5541 0.950 . S
C5567 C5566 1.414 . S
C5567 C5568 1.374 . S
C5568 H5542 0.950 . S
C5568 C5564 1.385 . S
C5568 C5567 1.374 . S
C5569 C5566 1.499 . S
C5569 C5570 1.373 . S
C5569 C5571 1.389 . S
C5570 H5543 0.950 . S
C5570 C5556 1.377 . S
C5570 C5569 1.373 . S
C5571 C5555 1.377 . S
C5571 C5569 1.389 . S
C5571 C5572 1.524 . S
C5572 C5571 1.524 . S
C5572 C5573 1.397 . S
C5572 C5577 1.363 . S
C5573 H5544 0.950 . S
C5573 C5572 1.397 . S
C5573 C5574 1.334 . S
C5574 H5545 0.950 . S
C5574 C5573 1.334 . S
C5574 C5575 1.287 . S
C5575 C5574 1.287 . S
C5575 C5576 1.524 . S
C5575 H5578 0.999 . S
C5576 H5546 0.950 . S
C5576 C5575 1.524 . S
C5576 C5577 1.415 . S
C5577 H5547 0.950 . S
C5577 C5572 1.363 . S
C5577 C5576 1.415 . S
H5578 C5575 0.999 . S
H5579 C5560 0.913 . S
H5580 C5598 0.951 . S
H5581 C5600 0.951 . S
H5582 C5602 0.950 . S
H5583 C5603 0.950 . S
H5584 C5605 0.950 . S
H5585 C5608 0.950 . S
H5586 C5609 0.964 . S
H5587 C5611 0.950 . S
H5588 C5612 0.950 . S
H5589 C5613 0.951 . S
H5590 C5615 0.951 . S
H5591 C5617 0.950 . S
H5592 C5618 0.950 . S
H5593 C5620 0.950 . S
H5594 C5623 0.950 . S
H5595 C5624 0.950 . S
H5596 C5626 0.950 . S
H5597 C5627 0.950 . S
C5598 H5580 0.951 . S
C5598 C5599 1.366 . S
C5598 C5600 1.388 . S
C5599 C5598 1.366 . S
C5599 C5603 1.385 . S
C5600 H5581 0.951 . S
C5600 C5598 1.388 . S
C5600 C5601 1.366 . S
C5601 C5600 1.366 . S
C5601 C5602 1.414 . S
C5601 C5604 1.499 . S
C5602 H5582 0.950 . S
C5602 C5601 1.414 . S
C5602 C5603 1.374 . S
C5603 H5583 0.950 . S
C5603 C5599 1.385 . S
C5603 C5602 1.374 . S
C5604 C5601 1.499 . S
C5604 C5605 1.373 . S
C5604 C5606 1.389 . S
C5605 H5584 0.950 . S
C5605 C5604 1.373 . S
C5605 C5621 1.377 . S
C5606 C5604 1.389 . S
C5606 C5607 1.524 . S
C5606 C5620 1.377 . S
C5607 C5606 1.524 . S
C5607 C5608 1.397 . S
C5607 C5612 1.363 . S
C5608 H5585 0.950 . S
C5608 C5607 1.397 . S
C5608 C5609 1.328 1_455 S
C5609 H5586 0.964 . S
C5609 C5608 1.328 1_655 S
C5609 C5610 1.279 1_655 S
C5610 C5609 1.279 1_455 S
C5610 C5611 1.524 . S
C5610 H5629 0.913 . S
C5611 H5587 0.950 . S
C5611 C5610 1.524 . S
C5611 C5612 1.415 . S
C5612 H5588 0.950 . S
C5612 C5607 1.363 . S
C5612 C5611 1.415 . S
C5613 H5589 0.951 . S
C5613 C5614 1.366 . S
C5613 C5615 1.388 . S
C5614 C5613 1.366 . S
C5614 C5618 1.385 . S
C5615 H5590 0.951 . S
C5615 C5613 1.388 . S
C5615 C5616 1.366 . S
C5616 C5615 1.366 . S
C5616 C5617 1.414 . S
C5616 C5619 1.499 . S
C5617 H5591 0.950 . S
C5617 C5616 1.414 . S
C5617 C5618 1.374 . S
C5618 H5592 0.950 . S
C5618 C5614 1.385 . S
C5618 C5617 1.374 . S
C5619 C5616 1.499 . S
C5619 C5620 1.373 . S
C5619 C5621 1.389 . S
C5620 H5593 0.950 . S
C5620 C5606 1.377 . S
C5620 C5619 1.373 . S
C5621 C5605 1.377 . S
C5621 C5619 1.389 . S
C5621 C5622 1.524 . S
C5622 C5621 1.524 . S
C5622 C5623 1.397 . S
C5622 C5627 1.363 . S
C5623 H5594 0.950 . S
C5623 C5622 1.397 . S
C5623 C5624 1.334 . S
C5624 H5595 0.950 . S
C5624 C5623 1.334 . S
C5624 C5625 1.287 . S
C5625 C5624 1.287 . S
C5625 C5626 1.524 . S
C5625 H5628 0.999 . S
C5626 H5596 0.950 . S
C5626 C5625 1.524 . S
C5626 C5627 1.415 . S
C5627 H5597 0.950 . S
C5627 C5622 1.363 . S
C5627 C5626 1.415 . S
H5628 C5625 0.999 . S
H5629 C5610 0.913 . S
H5630 C5648 0.951 . S
H5631 C5650 0.951 . S
H5632 C5652 0.950 . S
H5633 C5653 0.950 . S
H5634 C5655 0.950 . S
H5635 C5658 0.950 . S
H5636 C5659 0.950 . S
H5637 C5661 0.950 . S
H5638 C5662 0.950 . S
H5639 C5663 0.951 . S
H5640 C5665 0.951 . S
H5641 C5667 0.950 . S
H5642 C5668 0.950 . S
H5643 C5670 0.950 . S
H5644 C5673 0.950 . S
H5645 C5674 0.950 . S
H5646 C5676 0.950 . S
H5647 C5677 0.950 . S
C5648 H5630 0.951 . S
C5648 C5649 1.366 . S
C5648 C5650 1.388 . S
C5649 C5648 1.366 . S
C5649 C5653 1.385 . S
C5650 H5631 0.951 . S
C5650 C5648 1.388 . S
C5650 C5651 1.366 . S
C5651 C5650 1.366 . S
C5651 C5652 1.414 . S
C5651 C5654 1.499 . S
C5652 H5632 0.950 . S
C5652 C5651 1.414 . S
C5652 C5653 1.374 . S
C5653 H5633 0.950 . S
C5653 C5649 1.385 . S
C5653 C5652 1.374 . S
C5654 C5651 1.499 . S
C5654 C5655 1.373 . S
C5654 C5656 1.389 . S
C5655 H5634 0.950 . S
C5655 C5654 1.373 . S
C5655 C5671 1.377 . S
C5656 C5654 1.389 . S
C5656 C5657 1.524 . S
C5656 C5670 1.377 . S
C5657 C5656 1.524 . S
C5657 C5658 1.397 . S
C5657 C5662 1.363 . S
C5658 H5635 0.950 . S
C5658 C5657 1.397 . S
C5658 C5659 1.334 . S
C5659 H5636 0.950 . S
C5659 C5658 1.334 . S
C5659 C5660 1.287 . S
C5660 C5659 1.287 . S
C5660 C5661 1.524 . S
C5660 H5679 0.913 . S
C5661 H5637 0.950 . S
C5661 C5660 1.524 . S
C5661 C5662 1.415 . S
C5662 H5638 0.950 . S
C5662 C5657 1.363 . S
C5662 C5661 1.415 . S
C5663 H5639 0.951 . S
C5663 C5664 1.366 . S
C5663 C5665 1.388 . S
C5664 C5663 1.366 . S
C5664 C5668 1.385 . S
C5665 H5640 0.951 . S
C5665 C5663 1.388 . S
C5665 C5666 1.366 . S
C5666 C5665 1.366 . S
C5666 C5667 1.414 . S
C5666 C5669 1.499 . S
C5667 H5641 0.950 . S
C5667 C5666 1.414 . S
C5667 C5668 1.374 . S
C5668 H5642 0.950 . S
C5668 C5664 1.385 . S
C5668 C5667 1.374 . S
C5669 C5666 1.499 . S
C5669 C5670 1.373 . S
C5669 C5671 1.389 . S
C5670 H5643 0.950 . S
C5670 C5656 1.377 . S
C5670 C5669 1.373 . S
C5671 C5655 1.377 . S
C5671 C5669 1.389 . S
C5671 C5672 1.524 . S
C5672 C5671 1.524 . S
C5672 C5673 1.397 . S
C5672 C5677 1.363 . S
C5673 H5644 0.950 . S
C5673 C5672 1.397 . S
C5673 C5674 1.334 . S
C5674 H5645 0.950 . S
C5674 C5673 1.334 . S
C5674 C5675 1.287 . S
C5675 C5674 1.287 . S
C5675 C5676 1.524 . S
C5675 H5678 0.999 . S
C5676 H5646 0.950 . S
C5676 C5675 1.524 . S
C5676 C5677 1.415 . S
C5677 H5647 0.950 . S
C5677 C5672 1.363 . S
C5677 C5676 1.415 . S
H5678 C5675 0.999 . S
H5679 C5660 0.913 . S
H5680 C5698 0.951 . S
H5681 C5700 0.951 . S
H5682 C5702 0.950 . S
H5683 C5703 0.950 . S
H5684 C5705 0.950 . S
H5685 C5708 0.950 . S
H5686 C5709 0.950 . S
H5687 C5711 0.950 . S
H5688 C5712 0.950 . S
H5689 C5713 0.951 . S
H5690 C5715 0.951 . S
H5691 C5717 0.950 . S
H5692 C5718 0.950 . S
H5693 C5720 0.950 . S
H5694 C5723 0.950 . S
H5695 C5724 0.950 . S
H5696 C5726 0.950 . S
H5697 C5727 0.950 . S
C5698 H5680 0.951 . S
C5698 C5699 1.366 . S
C5698 C5700 1.388 . S
C5699 C5698 1.366 . S
C5699 C5703 1.385 . S
C5700 H5681 0.951 . S
C5700 C5698 1.388 . S
C5700 C5701 1.366 . S
C5701 C5700 1.366 . S
C5701 C5702 1.414 . S
C5701 C5704 1.499 . S
C5702 H5682 0.950 . S
C5702 C5701 1.414 . S
C5702 C5703 1.374 . S
C5703 H5683 0.950 . S
C5703 C5699 1.385 . S
C5703 C5702 1.374 . S
C5704 C5701 1.499 . S
C5704 C5705 1.373 . S
C5704 C5706 1.389 . S
C5705 H5684 0.950 . S
C5705 C5704 1.373 . S
C5705 C5721 1.377 . S
C5706 C5704 1.389 . S
C5706 C5707 1.524 . S
C5706 C5720 1.377 . S
C5707 C5706 1.524 . S
C5707 C5708 1.397 . S
C5707 C5712 1.363 . S
C5708 H5685 0.950 . S
C5708 C5707 1.397 . S
C5708 C5709 1.334 . S
C5709 H5686 0.950 . S
C5709 C5708 1.334 . S
C5709 C5710 1.287 . S
C5710 C5709 1.287 . S
C5710 C5711 1.524 . S
C5710 H5729 0.913 . S
C5711 H5687 0.950 . S
C5711 C5710 1.524 . S
C5711 C5712 1.415 . S
C5712 H5688 0.950 . S
C5712 C5707 1.363 . S
C5712 C5711 1.415 . S
C5713 H5689 0.951 . S
C5713 C5714 1.366 . S
C5713 C5715 1.388 . S
C5714 C5713 1.366 . S
C5714 C5718 1.385 . S
C5715 H5690 0.951 . S
C5715 C5713 1.388 . S
C5715 C5716 1.366 . S
C5716 C5715 1.366 . S
C5716 C5717 1.414 . S
C5716 C5719 1.499 . S
C5717 H5691 0.950 . S
C5717 C5716 1.414 . S
C5717 C5718 1.374 . S
C5718 H5692 0.950 . S
C5718 C5714 1.385 . S
C5718 C5717 1.374 . S
C5719 C5716 1.499 . S
C5719 C5720 1.373 . S
C5719 C5721 1.389 . S
C5720 H5693 0.950 . S
C5720 C5706 1.377 . S
C5720 C5719 1.373 . S
C5721 C5705 1.377 . S
C5721 C5719 1.389 . S
C5721 C5722 1.524 . S
C5722 C5721 1.524 . S
C5722 C5723 1.397 . S
C5722 C5727 1.363 . S
C5723 H5694 0.950 . S
C5723 C5722 1.397 . S
C5723 C5724 1.334 . S
C5724 H5695 0.950 . S
C5724 C5723 1.334 . S
C5724 C5725 1.287 . S
C5725 C5724 1.287 . S
C5725 C5726 1.524 . S
C5725 H5728 0.999 . S
C5726 H5696 0.950 . S
C5726 C5725 1.524 . S
C5726 C5727 1.415 . S
C5727 H5697 0.950 . S
C5727 C5722 1.363 . S
C5727 C5726 1.415 . S
H5728 C5725 0.999 . S
H5729 C5710 0.913 . S
H5730 C5748 0.951 . S
H5731 C5750 0.951 . S
H5732 C5752 0.950 . S
H5733 C5753 0.950 . S
H5734 C5755 0.950 . S
H5735 C5758 0.950 . S
H5736 C5759 0.950 . S
H5737 C5761 0.950 . S
H5738 C5762 0.950 . S
H5739 C5763 0.951 . S
H5740 C5765 0.951 . S
H5741 C5767 0.950 . S
H5742 C5768 0.950 . S
H5743 C5770 0.950 . S
H5744 C5773 0.950 . S
H5745 C5774 0.950 . S
H5746 C5776 0.950 . S
H5747 C5777 0.950 . S
C5748 H5730 0.951 . S
C5748 C5749 1.366 . S
C5748 C5750 1.388 . S
C5749 C5748 1.366 . S
C5749 C5753 1.385 . S
C5750 H5731 0.951 . S
C5750 C5748 1.388 . S
C5750 C5751 1.366 . S
C5751 C5750 1.366 . S
C5751 C5752 1.414 . S
C5751 C5754 1.499 . S
C5752 H5732 0.950 . S
C5752 C5751 1.414 . S
C5752 C5753 1.374 . S
C5753 H5733 0.950 . S
C5753 C5749 1.385 . S
C5753 C5752 1.374 . S
C5754 C5751 1.499 . S
C5754 C5755 1.373 . S
C5754 C5756 1.389 . S
C5755 H5734 0.950 . S
C5755 C5754 1.373 . S
C5755 C5771 1.377 . S
C5756 C5754 1.389 . S
C5756 C5757 1.524 . S
C5756 C5770 1.377 . S
C5757 C5756 1.524 . S
C5757 C5758 1.397 . S
C5757 C5762 1.363 . S
C5758 H5735 0.950 . S
C5758 C5757 1.397 . S
C5758 C5759 1.334 . S
C5759 H5736 0.950 . S
C5759 C5758 1.334 . S
C5759 C5760 1.287 . S
C5760 C5759 1.287 . S
C5760 C5761 1.524 . S
C5760 H5779 0.913 . S
C5761 H5737 0.950 . S
C5761 C5760 1.524 . S
C5761 C5762 1.415 . S
C5762 H5738 0.950 . S
C5762 C5757 1.363 . S
C5762 C5761 1.415 . S
C5763 H5739 0.951 . S
C5763 C5764 1.366 . S
C5763 C5765 1.388 . S
C5764 C5763 1.366 . S
C5764 C5768 1.385 . S
C5765 H5740 0.951 . S
C5765 C5763 1.388 . S
C5765 C5766 1.366 . S
C5766 C5765 1.366 . S
C5766 C5767 1.414 . S
C5766 C5769 1.499 . S
C5767 H5741 0.950 . S
C5767 C5766 1.414 . S
C5767 C5768 1.374 . S
C5768 H5742 0.950 . S
C5768 C5764 1.385 . S
C5768 C5767 1.374 . S
C5769 C5766 1.499 . S
C5769 C5770 1.373 . S
C5769 C5771 1.389 . S
C5770 H5743 0.950 . S
C5770 C5756 1.377 . S
C5770 C5769 1.373 . S
C5771 C5755 1.377 . S
C5771 C5769 1.389 . S
C5771 C5772 1.524 . S
C5772 C5771 1.524 . S
C5772 C5773 1.397 . S
C5772 C5777 1.363 . S
C5773 H5744 0.950 . S
C5773 C5772 1.397 . S
C5773 C5774 1.334 . S
C5774 H5745 0.950 . S
C5774 C5773 1.334 . S
C5774 C5775 1.287 . S
C5775 C5774 1.287 . S
C5775 C5776 1.524 . S
C5775 H5778 0.999 . S
C5776 H5746 0.950 . S
C5776 C5775 1.524 . S
C5776 C5777 1.415 . S
C5777 H5747 0.950 . S
C5777 C5772 1.363 . S
C5777 C5776 1.415 . S
H5778 C5775 0.999 . S
H5779 C5760 0.913 . S
H5780 C5798 0.951 . S
H5781 C5800 0.951 . S
H5782 C5802 0.950 . S
H5783 C5803 0.950 . S
H5784 C5805 0.950 . S
H5785 C5808 0.950 . S
H5786 C5809 0.950 . S
H5787 C5811 0.950 1_455 S
H5788 C5812 0.950 . S
H5789 C5813 0.951 . S
H5790 C5815 0.951 . S
H5791 C5817 0.950 . S
H5792 C5818 0.950 . S
H5793 C5820 0.950 . S
H5794 C5823 0.950 . S
H5795 C5824 0.950 . S
H5796 C5826 0.950 . S
H5797 C5827 0.950 . S
C5798 H5780 0.951 . S
C5798 C5799 1.366 . S
C5798 C5800 1.388 . S
C5799 C5798 1.366 . S
C5799 C5803 1.385 . S
C5800 H5781 0.951 . S
C5800 C5798 1.388 . S
C5800 C5801 1.366 . S
C5801 C5800 1.366 . S
C5801 C5802 1.414 . S
C5801 C5804 1.499 . S
C5802 H5782 0.950 . S
C5802 C5801 1.414 . S
C5802 C5803 1.374 . S
C5803 H5783 0.950 . S
C5803 C5799 1.385 . S
C5803 C5802 1.374 . S
C5804 C5801 1.499 . S
C5804 C5805 1.373 . S
C5804 C5806 1.389 . S
C5805 H5784 0.950 . S
C5805 C5804 1.373 . S
C5805 C5821 1.377 . S
C5806 C5804 1.389 . S
C5806 C5807 1.524 . S
C5806 C5820 1.377 . S
C5807 C5806 1.524 . S
C5807 C5808 1.397 . S
C5807 C5812 1.363 . S
C5808 H5785 0.950 . S
C5808 C5807 1.397 . S
C5808 C5809 1.334 . S
C5809 H5786 0.950 . S
C5809 C5808 1.334 . S
C5809 C5810 1.287 . S
C5810 C5809 1.287 . S
C5810 C5811 1.524 . S
C5810 H5829 0.913 . S
C5811 H5787 0.950 1_655 S
C5811 C5810 1.524 . S
C5811 C5812 1.415 . S
C5812 H5788 0.950 . S
C5812 C5807 1.363 . S
C5812 C5811 1.415 . S
C5813 H5789 0.951 . S
C5813 C5814 1.366 . S
C5813 C5815 1.388 . S
C5814 C5813 1.366 . S
C5814 C5818 1.385 1_655 S
C5815 H5790 0.951 . S
C5815 C5813 1.388 . S
C5815 C5816 1.366 . S
C5816 C5815 1.366 . S
C5816 C5817 1.414 . S
C5816 C5819 1.499 . S
C5817 H5791 0.950 . S
C5817 C5816 1.414 . S
C5817 C5818 1.374 1_655 S
C5818 H5792 0.950 . S
C5818 C5814 1.385 1_455 S
C5818 C5817 1.374 1_455 S
C5819 C5816 1.499 . S
C5819 C5820 1.373 . S
C5819 C5821 1.389 . S
C5820 H5793 0.950 . S
C5820 C5806 1.377 . S
C5820 C5819 1.373 . S
C5821 C5805 1.377 . S
C5821 C5819 1.389 . S
C5821 C5822 1.524 . S
C5822 C5821 1.524 . S
C5822 C5823 1.397 . S
C5822 C5827 1.363 . S
C5823 H5794 0.950 . S
C5823 C5822 1.397 . S
C5823 C5824 1.334 . S
C5824 H5795 0.950 . S
C5824 C5823 1.334 . S
C5824 C5825 1.287 . S
C5825 C5824 1.287 . S
C5825 C5826 1.524 . S
C5825 H5828 0.999 . S
C5826 H5796 0.950 . S
C5826 C5825 1.524 . S
C5826 C5827 1.415 . S
C5827 H5797 0.950 . S
C5827 C5822 1.363 . S
C5827 C5826 1.415 . S
H5828 C5825 0.999 . S
H5829 C5810 0.913 . S
H5830 C5848 0.951 . S
H5831 C5850 0.951 . S
H5832 C5852 0.950 . S
H5833 C5853 0.950 . S
H5834 C5855 0.950 . S
H5835 C5858 0.950 . S
H5836 C5859 0.950 . S
H5837 C5861 0.950 . S
H5838 C5862 0.950 . S
H5839 C5863 0.951 . S
H5840 C5865 0.951 . S
H5841 C5867 0.950 . S
H5842 C5868 0.950 . S
H5843 C5870 0.950 . S
H5844 C5873 0.950 . S
H5845 C5874 0.950 . S
H5846 C5876 0.950 . S
H5847 C5877 0.950 . S
C5848 H5830 0.951 . S
C5848 C5849 1.366 . S
C5848 C5850 1.388 . S
C5849 C5848 1.366 . S
C5849 C5853 1.385 . S
C5850 H5831 0.951 . S
C5850 C5848 1.388 . S
C5850 C5851 1.366 . S
C5851 C5850 1.366 . S
C5851 C5852 1.414 . S
C5851 C5854 1.499 . S
C5852 H5832 0.950 . S
C5852 C5851 1.414 . S
C5852 C5853 1.374 . S
C5853 H5833 0.950 . S
C5853 C5849 1.385 . S
C5853 C5852 1.374 . S
C5854 C5851 1.499 . S
C5854 C5855 1.373 . S
C5854 C5856 1.389 . S
C5855 H5834 0.950 . S
C5855 C5854 1.373 . S
C5855 C5871 1.377 . S
C5856 C5854 1.389 . S
C5856 C5857 1.524 . S
C5856 C5870 1.377 . S
C5857 C5856 1.524 . S
C5857 C5858 1.397 . S
C5857 C5862 1.363 . S
C5858 H5835 0.950 . S
C5858 C5857 1.397 . S
C5858 C5859 1.334 . S
C5859 H5836 0.950 . S
C5859 C5858 1.334 . S
C5859 C5860 1.287 . S
C5860 C5859 1.287 . S
C5860 C5861 1.524 . S
C5860 H5879 0.913 . S
C5861 H5837 0.950 . S
C5861 C5860 1.524 . S
C5861 C5862 1.415 . S
C5862 H5838 0.950 . S
C5862 C5857 1.363 . S
C5862 C5861 1.415 . S
C5863 H5839 0.951 . S
C5863 C5864 1.366 . S
C5863 C5865 1.388 . S
C5864 C5863 1.366 . S
C5864 C5868 1.385 . S
C5865 H5840 0.951 . S
C5865 C5863 1.388 . S
C5865 C5866 1.366 . S
C5866 C5865 1.366 . S
C5866 C5867 1.414 . S
C5866 C5869 1.499 . S
C5867 H5841 0.950 . S
C5867 C5866 1.414 . S
C5867 C5868 1.374 . S
C5868 H5842 0.950 . S
C5868 C5864 1.385 . S
C5868 C5867 1.374 . S
C5869 C5866 1.499 . S
C5869 C5870 1.373 . S
C5869 C5871 1.389 . S
C5870 H5843 0.950 . S
C5870 C5856 1.377 . S
C5870 C5869 1.373 . S
C5871 C5855 1.377 . S
C5871 C5869 1.389 . S
C5871 C5872 1.524 . S
C5872 C5871 1.524 . S
C5872 C5873 1.397 . S
C5872 C5877 1.363 . S
C5873 H5844 0.950 . S
C5873 C5872 1.397 . S
C5873 C5874 1.334 . S
C5874 H5845 0.950 . S
C5874 C5873 1.334 . S
C5874 C5875 1.287 . S
C5875 C5874 1.287 . S
C5875 C5876 1.524 . S
C5875 H5878 0.999 . S
C5876 H5846 0.950 . S
C5876 C5875 1.524 . S
C5876 C5877 1.415 . S
C5877 H5847 0.950 . S
C5877 C5872 1.363 . S
C5877 C5876 1.415 . S
H5878 C5875 0.999 . S
H5879 C5860 0.913 . S
H5880 C5898 0.951 . S
H5881 C5900 0.951 . S
H5882 C5902 0.950 . S
H5883 C5903 0.950 . S
H5884 C5905 0.950 . S
H5885 C5908 0.950 . S
H5886 C5909 0.950 . S
H5887 C5911 0.950 . S
H5888 C5912 0.950 . S
H5889 C5913 0.951 . S
H5890 C5915 0.951 . S
H5891 C5917 0.950 . S
H5892 C5918 0.950 . S
H5893 C5920 0.950 . S
H5894 C5923 0.950 . S
H5895 C5924 0.950 . S
H5896 C5926 0.950 . S
H5897 C5927 0.950 . S
C5898 H5880 0.951 . S
C5898 C5899 1.366 . S
C5898 C5900 1.388 . S
C5899 C5898 1.366 . S
C5899 C5903 1.385 . S
C5900 H5881 0.951 . S
C5900 C5898 1.388 . S
C5900 C5901 1.366 . S
C5901 C5900 1.366 . S
C5901 C5902 1.414 . S
C5901 C5904 1.499 . S
C5902 H5882 0.950 . S
C5902 C5901 1.414 . S
C5902 C5903 1.374 . S
C5903 H5883 0.950 . S
C5903 C5899 1.385 . S
C5903 C5902 1.374 . S
C5904 C5901 1.499 . S
C5904 C5905 1.373 . S
C5904 C5906 1.389 . S
C5905 H5884 0.950 . S
C5905 C5904 1.373 . S
C5905 C5921 1.377 . S
C5906 C5904 1.389 . S
C5906 C5907 1.524 . S
C5906 C5920 1.377 . S
C5907 C5906 1.524 . S
C5907 C5908 1.397 . S
C5907 C5912 1.363 . S
C5908 H5885 0.950 . S
C5908 C5907 1.397 . S
C5908 C5909 1.334 . S
C5909 H5886 0.950 . S
C5909 C5908 1.334 . S
C5909 C5910 1.287 . S
C5910 C5909 1.287 . S
C5910 C5911 1.524 . S
C5910 H5929 0.913 . S
C5911 H5887 0.950 . S
C5911 C5910 1.524 . S
C5911 C5912 1.415 . S
C5912 H5888 0.950 . S
C5912 C5907 1.363 . S
C5912 C5911 1.415 . S
C5913 H5889 0.951 . S
C5913 C5914 1.366 . S
C5913 C5915 1.388 . S
C5914 C5913 1.366 . S
C5914 C5918 1.385 . S
C5915 H5890 0.951 . S
C5915 C5913 1.388 . S
C5915 C5916 1.366 . S
C5916 C5915 1.366 . S
C5916 C5917 1.414 . S
C5916 C5919 1.499 . S
C5917 H5891 0.950 . S
C5917 C5916 1.414 . S
C5917 C5918 1.374 . S
C5918 H5892 0.950 . S
C5918 C5914 1.385 . S
C5918 C5917 1.374 . S
C5919 C5916 1.499 . S
C5919 C5920 1.373 . S
C5919 C5921 1.389 . S
C5920 H5893 0.950 . S
C5920 C5906 1.377 . S
C5920 C5919 1.373 . S
C5921 C5905 1.377 . S
C5921 C5919 1.389 . S
C5921 C5922 1.524 . S
C5922 C5921 1.524 . S
C5922 C5923 1.397 . S
C5922 C5927 1.363 . S
C5923 H5894 0.950 . S
C5923 C5922 1.397 . S
C5923 C5924 1.334 . S
C5924 H5895 0.950 . S
C5924 C5923 1.334 . S
C5924 C5925 1.287 . S
C5925 C5924 1.287 . S
C5925 C5926 1.524 . S
C5925 H5928 0.999 . S
C5926 H5896 0.950 . S
C5926 C5925 1.524 . S
C5926 C5927 1.415 . S
C5927 H5897 0.950 . S
C5927 C5922 1.363 . S
C5927 C5926 1.415 . S
H5928 C5925 0.999 . S
H5929 C5910 0.913 . S
H5930 C5948 0.951 . S
H5931 C5950 0.951 . S
H5932 C5952 0.950 . S
H5933 C5953 0.950 . S
H5934 C5955 0.950 . S
H5935 C5958 0.950 . S
H5936 C5959 0.950 . S
H5937 C5961 0.950 . S
H5938 C5962 0.950 . S
H5939 C5963 0.951 . S
H5940 C5965 0.951 . S
H5941 C5967 0.950 . S
H5942 C5968 0.950 . S
H5943 C5970 0.950 . S
H5944 C5973 0.950 . S
H5945 C5974 0.950 . S
H5946 C5976 0.950 . S
H5947 C5977 0.950 . S
C5948 H5930 0.951 . S
C5948 C5949 1.366 . S
C5948 C5950 1.388 . S
C5949 C5948 1.366 . S
C5949 C5953 1.385 . S
C5950 H5931 0.951 . S
C5950 C5948 1.388 . S
C5950 C5951 1.366 . S
C5951 C5950 1.366 . S
C5951 C5952 1.414 . S
C5951 C5954 1.499 . S
C5952 H5932 0.950 . S
C5952 C5951 1.414 . S
C5952 C5953 1.374 . S
C5953 H5933 0.950 . S
C5953 C5949 1.385 . S
C5953 C5952 1.374 . S
C5954 C5951 1.499 . S
C5954 C5955 1.373 . S
C5954 C5956 1.389 . S
C5955 H5934 0.950 . S
C5955 C5954 1.373 . S
C5955 C5971 1.377 . S
C5956 C5954 1.389 . S
C5956 C5957 1.524 . S
C5956 C5970 1.377 . S
C5957 C5956 1.524 . S
C5957 C5958 1.397 . S
C5957 C5962 1.363 . S
C5958 H5935 0.950 . S
C5958 C5957 1.397 . S
C5958 C5959 1.334 . S
C5959 H5936 0.950 . S
C5959 C5958 1.334 . S
C5959 C5960 1.287 . S
C5960 C5959 1.287 . S
C5960 C5961 1.524 . S
C5960 H5979 0.913 . S
C5961 H5937 0.950 . S
C5961 C5960 1.524 . S
C5961 C5962 1.415 . S
C5962 H5938 0.950 . S
C5962 C5957 1.363 . S
C5962 C5961 1.415 . S
C5963 H5939 0.951 . S
C5963 C5964 1.366 . S
C5963 C5965 1.388 . S
C5964 C5963 1.366 . S
C5964 C5968 1.385 . S
C5965 H5940 0.951 . S
C5965 C5963 1.388 . S
C5965 C5966 1.366 . S
C5966 C5965 1.366 . S
C5966 C5967 1.414 . S
C5966 C5969 1.499 . S
C5967 H5941 0.950 . S
C5967 C5966 1.414 . S
C5967 C5968 1.374 . S
C5968 H5942 0.950 . S
C5968 C5964 1.385 . S
C5968 C5967 1.374 . S
C5969 C5966 1.499 . S
C5969 C5970 1.373 . S
C5969 C5971 1.389 . S
C5970 H5943 0.950 . S
C5970 C5956 1.377 . S
C5970 C5969 1.373 . S
C5971 C5955 1.377 . S
C5971 C5969 1.389 . S
C5971 C5972 1.524 . S
C5972 C5971 1.524 . S
C5972 C5973 1.397 . S
C5972 C5977 1.363 . S
C5973 H5944 0.950 . S
C5973 C5972 1.397 . S
C5973 C5974 1.334 . S
C5974 H5945 0.950 . S
C5974 C5973 1.334 . S
C5974 C5975 1.287 . S
C5975 C5974 1.287 . S
C5975 C5976 1.524 . S
C5975 H5978 0.999 . S
C5976 H5946 0.950 . S
C5976 C5975 1.524 . S
C5976 C5977 1.415 . S
C5977 H5947 0.950 . S
C5977 C5972 1.363 . S
C5977 C5976 1.415 . S
H5978 C5975 0.999 . S
H5979 C5960 0.913 . S
H5980 C5998 0.951 . S
H5981 C6000 0.951 . S
H5982 C6002 0.950 . S
H5983 C6003 0.950 . S
H5984 C6005 0.950 . S
H5985 C6008 0.950 . S
H5986 C6009 0.950 . S
H5987 C6011 0.950 . S
H5988 C6012 0.950 . S
H5989 C6013 0.951 . S
H5990 C6015 0.951 . S
H5991 C6017 0.950 . S
H5992 C6018 0.950 . S
H5993 C6020 0.950 . S
H5994 C6023 0.950 . S
H5995 C6024 0.950 . S
H5996 C6026 0.950 1_455 S
H5997 C6027 0.950 . S
C5998 H5980 0.951 . S
C5998 C5999 1.366 . S
C5998 C6000 1.388 . S
C5999 C5998 1.366 . S
C5999 C6003 1.385 . S
C6000 H5981 0.951 . S
C6000 C5998 1.388 . S
C6000 C6001 1.366 . S
C6001 C6000 1.366 . S
C6001 C6002 1.414 . S
C6001 C6004 1.499 . S
C6002 H5982 0.950 . S
C6002 C6001 1.414 . S
C6002 C6003 1.374 . S
C6003 H5983 0.950 . S
C6003 C5999 1.385 . S
C6003 C6002 1.374 . S
C6004 C6001 1.499 . S
C6004 C6005 1.373 . S
C6004 C6006 1.389 . S
C6005 H5984 0.950 . S
C6005 C6004 1.373 . S
C6005 C6021 1.377 . S
C6006 C6004 1.389 . S
C6006 C6007 1.524 . S
C6006 C6020 1.377 . S
C6007 C6006 1.524 . S
C6007 C6008 1.397 . S
C6007 C6012 1.363 . S
C6008 H5985 0.950 . S
C6008 C6007 1.397 . S
C6008 C6009 1.334 . S
C6009 H5986 0.950 . S
C6009 C6008 1.334 . S
C6009 C6010 1.287 . S
C6010 C6009 1.287 . S
C6010 C6011 1.524 . S
C6010 H6029 0.913 . S
C6011 H5987 0.950 . S
C6011 C6010 1.524 . S
C6011 C6012 1.415 . S
C6012 H5988 0.950 . S
C6012 C6007 1.363 . S
C6012 C6011 1.415 . S
C6013 H5989 0.951 . S
C6013 C6014 1.366 . S
C6013 C6015 1.388 . S
C6014 C6013 1.366 . S
C6014 C6018 1.385 . S
C6015 H5990 0.951 . S
C6015 C6013 1.388 . S
C6015 C6016 1.366 . S
C6016 C6015 1.366 . S
C6016 C6017 1.414 . S
C6016 C6019 1.499 . S
C6017 H5991 0.950 . S
C6017 C6016 1.414 . S
C6017 C6018 1.374 . S
C6018 H5992 0.950 . S
C6018 C6014 1.385 . S
C6018 C6017 1.374 . S
C6019 C6016 1.499 . S
C6019 C6020 1.373 . S
C6019 C6021 1.389 . S
C6020 H5993 0.950 . S
C6020 C6006 1.377 . S
C6020 C6019 1.373 . S
C6021 C6005 1.377 . S
C6021 C6019 1.389 . S
C6021 C6022 1.524 . S
C6022 C6021 1.524 . S
C6022 C6023 1.397 . S
C6022 C6027 1.363 . S
C6023 H5994 0.950 . S
C6023 C6022 1.397 . S
C6023 C6024 1.334 . S
C6024 H5995 0.950 . S
C6024 C6023 1.334 . S
C6024 C6025 1.287 . S
C6025 C6024 1.287 . S
C6025 C6026 1.524 . S
C6025 H6028 0.999 1_655 S
C6026 H5996 0.950 1_655 S
C6026 C6025 1.524 . S
C6026 C6027 1.415 . S
C6027 H5997 0.950 . S
C6027 C6022 1.363 . S
C6027 C6026 1.415 . S
H6028 C6025 0.999 1_455 S
H6029 C6010 0.913 . S
H6030 C6048 0.951 . S
H6031 C6050 0.951 . S
H6032 C6052 0.950 . S
H6033 C6053 0.950 . S
H6034 C6055 0.950 . S
H6035 C6058 0.950 . S
H6036 C6059 0.950 . S
H6037 C6061 0.950 . S
H6038 C6062 0.950 . S
H6039 C6063 0.951 . S
H6040 C6065 0.951 . S
H6041 C6067 0.950 . S
H6042 C6068 0.950 . S
H6043 C6070 0.950 . S
H6044 C6073 0.950 . S
H6045 C6074 0.950 . S
H6046 C6076 0.950 . S
H6047 C6077 0.950 . S
C6048 H6030 0.951 . S
C6048 C6049 1.366 . S
C6048 C6050 1.388 . S
C6049 C6048 1.366 . S
C6049 C6053 1.385 . S
C6050 H6031 0.951 . S
C6050 C6048 1.388 . S
C6050 C6051 1.366 . S
C6051 C6050 1.366 . S
C6051 C6052 1.414 . S
C6051 C6054 1.499 . S
C6052 H6032 0.950 . S
C6052 C6051 1.414 . S
C6052 C6053 1.374 . S
C6053 H6033 0.950 . S
C6053 C6049 1.385 . S
C6053 C6052 1.374 . S
C6054 C6051 1.499 . S
C6054 C6055 1.373 . S
C6054 C6056 1.389 . S
C6055 H6034 0.950 . S
C6055 C6054 1.373 . S
C6055 C6071 1.377 . S
C6056 C6054 1.389 . S
C6056 C6057 1.524 . S
C6056 C6070 1.377 . S
C6057 C6056 1.524 . S
C6057 C6058 1.397 . S
C6057 C6062 1.363 . S
C6058 H6035 0.950 . S
C6058 C6057 1.397 . S
C6058 C6059 1.334 . S
C6059 H6036 0.950 . S
C6059 C6058 1.334 . S
C6059 C6060 1.287 . S
C6060 C6059 1.287 . S
C6060 C6061 1.524 . S
C6060 H6079 0.913 . S
C6061 H6037 0.950 . S
C6061 C6060 1.524 . S
C6061 C6062 1.415 . S
C6062 H6038 0.950 . S
C6062 C6057 1.363 . S
C6062 C6061 1.415 . S
C6063 H6039 0.951 . S
C6063 C6064 1.366 . S
C6063 C6065 1.388 . S
C6064 C6063 1.366 . S
C6064 C6068 1.385 . S
C6065 H6040 0.951 . S
C6065 C6063 1.388 . S
C6065 C6066 1.366 . S
C6066 C6065 1.366 . S
C6066 C6067 1.414 . S
C6066 C6069 1.499 . S
C6067 H6041 0.950 . S
C6067 C6066 1.414 . S
C6067 C6068 1.374 . S
C6068 H6042 0.950 . S
C6068 C6064 1.385 . S
C6068 C6067 1.374 . S
C6069 C6066 1.499 . S
C6069 C6070 1.373 . S
C6069 C6071 1.389 . S
C6070 H6043 0.950 . S
C6070 C6056 1.377 . S
C6070 C6069 1.373 . S
C6071 C6055 1.377 . S
C6071 C6069 1.389 . S
C6071 C6072 1.524 . S
C6072 C6071 1.524 . S
C6072 C6073 1.397 . S
C6072 C6077 1.363 . S
C6073 H6044 0.950 . S
C6073 C6072 1.397 . S
C6073 C6074 1.334 . S
C6074 H6045 0.950 . S
C6074 C6073 1.334 . S
C6074 C6075 1.287 . S
C6075 C6074 1.287 . S
C6075 C6076 1.524 . S
C6075 H6078 0.999 . S
C6076 H6046 0.950 . S
C6076 C6075 1.524 . S
C6076 C6077 1.415 . S
C6077 H6047 0.950 . S
C6077 C6072 1.363 . S
C6077 C6076 1.415 . S
H6078 C6075 0.999 . S
H6079 C6060 0.913 . S
H6080 C6098 0.951 . S
H6081 C6100 0.951 . S
H6082 C6102 0.950 . S
H6083 C6103 0.950 . S
H6084 C6105 0.950 . S
H6085 C6108 0.950 . S
H6086 C6109 0.950 . S
H6087 C6111 0.950 . S
H6088 C6112 0.950 . S
H6089 C6113 0.951 . S
H6090 C6115 0.951 . S
H6091 C6117 0.950 . S
H6092 C6118 0.950 . S
H6093 C6120 0.950 . S
H6094 C6123 0.950 . S
H6095 C6124 0.950 . S
H6096 C6126 0.950 . S
H6097 C6127 0.950 . S
C6098 H6080 0.951 . S
C6098 C6099 1.366 . S
C6098 C6100 1.388 . S
C6099 C6098 1.366 . S
C6099 C6103 1.385 . S
C6100 H6081 0.951 . S
C6100 C6098 1.388 . S
C6100 C6101 1.366 . S
C6101 C6100 1.366 . S
C6101 C6102 1.414 . S
C6101 C6104 1.499 . S
C6102 H6082 0.950 . S
C6102 C6101 1.414 . S
C6102 C6103 1.374 . S
C6103 H6083 0.950 . S
C6103 C6099 1.385 . S
C6103 C6102 1.374 . S
C6104 C6101 1.499 . S
C6104 C6105 1.373 . S
C6104 C6106 1.389 . S
C6105 H6084 0.950 . S
C6105 C6104 1.373 . S
C6105 C6121 1.377 . S
C6106 C6104 1.389 . S
C6106 C6107 1.524 . S
C6106 C6120 1.377 . S
C6107 C6106 1.524 . S
C6107 C6108 1.397 . S
C6107 C6112 1.363 . S
C6108 H6085 0.950 . S
C6108 C6107 1.397 . S
C6108 C6109 1.334 . S
C6109 H6086 0.950 . S
C6109 C6108 1.334 . S
C6109 C6110 1.287 . S
C6110 C6109 1.287 . S
C6110 C6111 1.524 . S
C6110 H6129 0.913 . S
C6111 H6087 0.950 . S
C6111 C6110 1.524 . S
C6111 C6112 1.415 . S
C6112 H6088 0.950 . S
C6112 C6107 1.363 . S
C6112 C6111 1.415 . S
C6113 H6089 0.951 . S
C6113 C6114 1.366 . S
C6113 C6115 1.388 . S
C6114 C6113 1.366 . S
C6114 C6118 1.385 . S
C6115 H6090 0.951 . S
C6115 C6113 1.388 . S
C6115 C6116 1.366 . S
C6116 C6115 1.366 . S
C6116 C6117 1.414 . S
C6116 C6119 1.499 . S
C6117 H6091 0.950 . S
C6117 C6116 1.414 . S
C6117 C6118 1.374 . S
C6118 H6092 0.950 . S
C6118 C6114 1.385 . S
C6118 C6117 1.374 . S
C6119 C6116 1.499 . S
C6119 C6120 1.373 . S
C6119 C6121 1.389 . S
C6120 H6093 0.950 . S
C6120 C6106 1.377 . S
C6120 C6119 1.373 . S
C6121 C6105 1.377 . S
C6121 C6119 1.389 . S
C6121 C6122 1.524 . S
C6122 C6121 1.524 . S
C6122 C6123 1.397 . S
C6122 C6127 1.363 . S
C6123 H6094 0.950 . S
C6123 C6122 1.397 . S
C6123 C6124 1.334 . S
C6124 H6095 0.950 . S
C6124 C6123 1.334 . S
C6124 C6125 1.287 . S
C6125 C6124 1.287 . S
C6125 C6126 1.524 . S
C6125 H6128 0.999 . S
C6126 H6096 0.950 . S
C6126 C6125 1.524 . S
C6126 C6127 1.415 . S
C6127 H6097 0.950 . S
C6127 C6122 1.363 . S
C6127 C6126 1.415 . S
H6128 C6125 0.999 . S
H6129 C6110 0.913 . S
H6130 C6148 0.951 . S
H6131 C6150 0.951 . S
H6132 C6152 0.950 . S
H6133 C6153 0.950 . S
H6134 C6155 0.950 . S
H6135 C6158 0.950 . S
H6136 C6159 0.950 . S
H6137 C6161 0.950 . S
H6138 C6162 0.950 . S
H6139 C6163 0.951 . S
H6140 C6165 0.951 . S
H6141 C6167 0.950 . S
H6142 C6168 0.950 1_545 S
H6143 C6170 0.950 . S
H6144 C6173 0.950 . S
H6145 C6174 0.903 1_545 S
H6146 C6176 0.950 . S
H6147 C6177 0.950 . S
C6148 H6130 0.951 . S
C6148 C6149 1.366 . S
C6148 C6150 1.388 . S
C6149 C6148 1.366 . S
C6149 C6153 1.385 . S
C6150 H6131 0.951 . S
C6150 C6148 1.388 . S
C6150 C6151 1.366 . S
C6151 C6150 1.366 . S
C6151 C6152 1.414 . S
C6151 C6154 1.499 . S
C6152 H6132 0.950 . S
C6152 C6151 1.414 . S
C6152 C6153 1.374 . S
C6153 H6133 0.950 . S
C6153 C6149 1.385 . S
C6153 C6152 1.374 . S
C6154 C6151 1.499 . S
C6154 C6155 1.373 . S
C6154 C6156 1.389 . S
C6155 H6134 0.950 . S
C6155 C6154 1.373 . S
C6155 C6171 1.377 . S
C6156 C6154 1.389 . S
C6156 C6157 1.524 . S
C6156 C6170 1.377 . S
C6157 C6156 1.524 . S
C6157 C6158 1.397 . S
C6157 C6162 1.363 . S
C6158 H6135 0.950 . S
C6158 C6157 1.397 . S
C6158 C6159 1.334 . S
C6159 H6136 0.950 . S
C6159 C6158 1.334 . S
C6159 C6160 1.287 . S
C6160 C6159 1.287 . S
C6160 C6161 1.524 . S
C6160 H6179 0.913 . S
C6161 H6137 0.950 . S
C6161 C6160 1.524 . S
C6161 C6162 1.415 . S
C6162 H6138 0.950 . S
C6162 C6157 1.363 . S
C6162 C6161 1.415 . S
C6163 H6139 0.951 . S
C6163 C6164 1.366 . S
C6163 C6165 1.388 . S
C6164 C6163 1.366 . S
C6164 C6168 1.385 . S
C6165 H6140 0.951 . S
C6165 C6163 1.388 . S
C6165 C6166 1.366 . S
C6166 C6165 1.366 . S
C6166 C6167 1.414 . S
C6166 C6169 1.499 . S
C6167 H6141 0.950 . S
C6167 C6166 1.414 . S
C6167 C6168 1.374 . S
C6168 H6142 0.950 1_565 S
C6168 C6164 1.385 . S
C6168 C6167 1.374 . S
C6169 C6166 1.499 . S
C6169 C6170 1.373 . S
C6169 C6171 1.389 . S
C6170 H6143 0.950 . S
C6170 C6156 1.377 . S
C6170 C6169 1.373 . S
C6171 C6155 1.377 . S
C6171 C6169 1.389 . S
C6171 C6172 1.524 . S
C6172 C6171 1.524 . S
C6172 C6173 1.397 . S
C6172 C6177 1.363 . S
C6173 H6144 0.950 . S
C6173 C6172 1.397 . S
C6173 C6174 1.334 . S
C6174 H6145 0.903 1_565 S
C6174 C6173 1.334 . S
C6174 C6175 1.287 . S
C6175 C6174 1.287 . S
C6175 C6176 1.524 . S
C6175 H6178 0.999 . S
C6176 H6146 0.950 . S
C6176 C6175 1.524 . S
C6176 C6177 1.415 . S
C6177 H6147 0.950 . S
C6177 C6172 1.363 . S
C6177 C6176 1.415 . S
H6178 C6175 0.999 . S
H6179 C6160 0.913 . S
H6180 C6198 0.951 . S
H6181 C6200 0.951 . S
H6182 C6202 0.950 . S
H6183 C6203 0.950 . S
H6184 C6205 0.950 . S
H6185 C6208 0.950 . S
H6186 C6209 0.950 . S
H6187 C6211 0.950 . S
H6188 C6212 0.950 . S
H6189 C6213 0.951 . S
H6190 C6215 0.951 . S
H6191 C6217 0.950 . S
H6192 C6218 0.950 . S
H6193 C6220 0.950 . S
H6194 C6223 0.950 . S
H6195 C6224 0.950 . S
H6196 C6226 0.950 . S
H6197 C6227 0.950 . S
C6198 H6180 0.951 . S
C6198 C6199 1.366 . S
C6198 C6200 1.388 . S
C6199 C6198 1.366 . S
C6199 C6203 1.385 . S
C6200 H6181 0.951 . S
C6200 C6198 1.388 . S
C6200 C6201 1.366 . S
C6201 C6200 1.366 . S
C6201 C6202 1.414 . S
C6201 C6204 1.499 . S
C6202 H6182 0.950 . S
C6202 C6201 1.414 . S
C6202 C6203 1.374 . S
C6203 H6183 0.950 . S
C6203 C6199 1.385 . S
C6203 C6202 1.374 . S
C6204 C6201 1.499 . S
C6204 C6205 1.373 . S
C6204 C6206 1.389 . S
C6205 H6184 0.950 . S
C6205 C6204 1.373 . S
C6205 C6221 1.377 . S
C6206 C6204 1.389 . S
C6206 C6207 1.524 . S
C6206 C6220 1.377 . S
C6207 C6206 1.524 . S
C6207 C6208 1.397 . S
C6207 C6212 1.363 . S
C6208 H6185 0.950 . S
C6208 C6207 1.397 . S
C6208 C6209 1.334 . S
C6209 H6186 0.950 . S
C6209 C6208 1.334 . S
C6209 C6210 1.287 . S
C6210 C6209 1.287 . S
C6210 C6211 1.524 . S
C6210 H6229 0.913 . S
C6211 H6187 0.950 . S
C6211 C6210 1.524 . S
C6211 C6212 1.415 . S
C6212 H6188 0.950 . S
C6212 C6207 1.363 . S
C6212 C6211 1.415 . S
C6213 H6189 0.951 . S
C6213 C6214 1.366 . S
C6213 C6215 1.388 . S
C6214 C6213 1.366 . S
C6214 C6218 1.385 . S
C6215 H6190 0.951 . S
C6215 C6213 1.388 . S
C6215 C6216 1.366 . S
C6216 C6215 1.366 . S
C6216 C6217 1.414 . S
C6216 C6219 1.499 . S
C6217 H6191 0.950 . S
C6217 C6216 1.414 . S
C6217 C6218 1.374 . S
C6218 H6192 0.950 . S
C6218 C6214 1.385 . S
C6218 C6217 1.374 . S
C6219 C6216 1.499 . S
C6219 C6220 1.373 . S
C6219 C6221 1.389 . S
C6220 H6193 0.950 . S
C6220 C6206 1.377 . S
C6220 C6219 1.373 . S
C6221 C6205 1.377 . S
C6221 C6219 1.389 . S
C6221 C6222 1.524 . S
C6222 C6221 1.524 . S
C6222 C6223 1.397 . S
C6222 C6227 1.363 . S
C6223 H6194 0.950 . S
C6223 C6222 1.397 . S
C6223 C6224 1.334 . S
C6224 H6195 0.950 . S
C6224 C6223 1.334 . S
C6224 C6225 1.287 . S
C6225 C6224 1.287 . S
C6225 C6226 1.524 . S
C6225 H6228 0.999 . S
C6226 H6196 0.950 . S
C6226 C6225 1.524 . S
C6226 C6227 1.415 . S
C6227 H6197 0.950 . S
C6227 C6222 1.363 . S
C6227 C6226 1.415 . S
H6228 C6225 0.999 . S
H6229 C6210 0.913 . S
H6230 C6248 0.951 . S
H6231 C6250 0.951 . S
H6232 C6252 0.950 . S
H6233 C6253 0.950 . S
H6234 C6255 0.950 . S
H6235 C6258 0.950 . S
H6236 C6259 0.950 . S
H6237 C6261 0.950 . S
H6238 C6262 0.950 . S
H6239 C6263 0.951 . S
H6240 C6265 0.951 . S
H6241 C6267 0.950 . S
H6242 C6268 0.950 . S
H6243 C6270 0.950 . S
H6244 C6273 0.950 . S
H6245 C6274 0.950 . S
H6246 C6276 0.950 . S
H6247 C6277 0.950 . S
C6248 H6230 0.951 . S
C6248 C6249 1.366 . S
C6248 C6250 1.388 . S
C6249 C6248 1.366 . S
C6249 C6253 1.385 . S
C6250 H6231 0.951 . S
C6250 C6248 1.388 . S
C6250 C6251 1.366 . S
C6251 C6250 1.366 . S
C6251 C6252 1.414 . S
C6251 C6254 1.499 . S
C6252 H6232 0.950 . S
C6252 C6251 1.414 . S
C6252 C6253 1.374 . S
C6253 H6233 0.950 . S
C6253 C6249 1.385 . S
C6253 C6252 1.374 . S
C6254 C6251 1.499 . S
C6254 C6255 1.373 . S
C6254 C6256 1.389 . S
C6255 H6234 0.950 . S
C6255 C6254 1.373 . S
C6255 C6271 1.377 . S
C6256 C6254 1.389 . S
C6256 C6257 1.524 1_554 S
C6256 C6270 1.377 . S
C6257 C6256 1.524 1_556 S
C6257 C6258 1.397 . S
C6257 C6262 1.363 . S
C6258 H6235 0.950 . S
C6258 C6257 1.397 . S
C6258 C6259 1.334 . S
C6259 H6236 0.950 . S
C6259 C6258 1.334 . S
C6259 C6260 1.287 . S
C6260 C6259 1.287 . S
C6260 C6261 1.524 . S
C6260 H6279 0.913 . S
C6261 H6237 0.950 . S
C6261 C6260 1.524 . S
C6261 C6262 1.415 . S
C6262 H6238 0.950 . S
C6262 C6257 1.363 . S
C6262 C6261 1.415 . S
C6263 H6239 0.951 . S
C6263 C6264 1.366 . S
C6263 C6265 1.388 . S
C6264 C6263 1.366 . S
C6264 C6268 1.385 . S
C6265 H6240 0.951 . S
C6265 C6263 1.388 . S
C6265 C6266 1.366 . S
C6266 C6265 1.366 . S
C6266 C6267 1.414 . S
C6266 C6269 1.499 . S
C6267 H6241 0.950 . S
C6267 C6266 1.414 . S
C6267 C6268 1.374 . S
C6268 H6242 0.950 . S
C6268 C6264 1.385 . S
C6268 C6267 1.374 . S
C6269 C6266 1.499 . S
C6269 C6270 1.373 . S
C6269 C6271 1.389 . S
C6270 H6243 0.950 . S
C6270 C6256 1.377 . S
C6270 C6269 1.373 . S
C6271 C6255 1.377 . S
C6271 C6269 1.389 . S
C6271 C6272 1.524 . S
C6272 C6271 1.524 . S
C6272 C6273 1.397 . S
C6272 C6277 1.363 . S
C6273 H6244 0.950 . S
C6273 C6272 1.397 . S
C6273 C6274 1.334 . S
C6274 H6245 0.950 . S
C6274 C6273 1.334 . S
C6274 C6275 1.287 . S
C6275 C6274 1.287 . S
C6275 C6276 1.524 . S
C6275 H6278 0.999 . S
C6276 H6246 0.950 . S
C6276 C6275 1.524 . S
C6276 C6277 1.415 . S
C6277 H6247 0.950 . S
C6277 C6272 1.363 . S
C6277 C6276 1.415 . S
H6278 C6275 0.999 . S
H6279 C6260 0.913 . S
H6280 C6298 0.951 . S
H6281 C6300 0.951 . S
H6282 C6302 0.950 . S
H6283 C6303 0.950 . S
H6284 C6305 0.950 . S
H6285 C6308 0.950 . S
H6286 C6309 0.950 . S
H6287 C6311 0.950 . S
H6288 C6312 0.950 . S
H6289 C6313 0.951 . S
H6290 C6315 0.951 . S
H6291 C6317 0.950 . S
H6292 C6318 0.950 . S
H6293 C6320 0.950 . S
H6294 C6323 0.950 . S
H6295 C6324 0.950 . S
H6296 C6326 0.950 . S
H6297 C6327 0.950 . S
C6298 H6280 0.951 . S
C6298 C6299 1.366 . S
C6298 C6300 1.388 . S
C6299 C6298 1.366 . S
C6299 C6303 1.385 . S
C6300 H6281 0.951 . S
C6300 C6298 1.388 . S
C6300 C6301 1.366 . S
C6301 C6300 1.366 . S
C6301 C6302 1.414 . S
C6301 C6304 1.499 . S
C6302 H6282 0.950 . S
C6302 C6301 1.414 . S
C6302 C6303 1.374 . S
C6303 H6283 0.950 . S
C6303 C6299 1.385 . S
C6303 C6302 1.374 . S
C6304 C6301 1.499 . S
C6304 C6305 1.373 . S
C6304 C6306 1.389 . S
C6305 H6284 0.950 . S
C6305 C6304 1.373 . S
C6305 C6321 1.377 . S
C6306 C6304 1.389 . S
C6306 C6307 1.524 . S
C6306 C6320 1.377 . S
C6307 C6306 1.524 . S
C6307 C6308 1.397 . S
C6307 C6312 1.363 . S
C6308 H6285 0.950 . S
C6308 C6307 1.397 . S
C6308 C6309 1.334 . S
C6309 H6286 0.950 . S
C6309 C6308 1.334 . S
C6309 C6310 1.287 . S
C6310 C6309 1.287 . S
C6310 C6311 1.524 . S
C6310 H6329 0.913 . S
C6311 H6287 0.950 . S
C6311 C6310 1.524 . S
C6311 C6312 1.415 . S
C6312 H6288 0.950 . S
C6312 C6307 1.363 . S
C6312 C6311 1.415 . S
C6313 H6289 0.951 . S
C6313 C6314 1.366 . S
C6313 C6315 1.388 . S
C6314 C6313 1.366 . S
C6314 C6318 1.385 . S
C6315 H6290 0.951 . S
C6315 C6313 1.388 . S
C6315 C6316 1.366 . S
C6316 C6315 1.366 . S
C6316 C6317 1.414 . S
C6316 C6319 1.499 . S
C6317 H6291 0.950 . S
C6317 C6316 1.414 . S
C6317 C6318 1.374 . S
C6318 H6292 0.950 . S
C6318 C6314 1.385 . S
C6318 C6317 1.374 . S
C6319 C6316 1.499 . S
C6319 C6320 1.373 . S
C6319 C6321 1.389 . S
C6320 H6293 0.950 . S
C6320 C6306 1.377 . S
C6320 C6319 1.373 . S
C6321 C6305 1.377 . S
C6321 C6319 1.389 . S
C6321 C6322 1.524 . S
C6322 C6321 1.524 . S
C6322 C6323 1.397 . S
C6322 C6327 1.363 . S
C6323 H6294 0.950 . S
C6323 C6322 1.397 . S
C6323 C6324 1.334 . S
C6324 H6295 0.950 . S
C6324 C6323 1.334 . S
C6324 C6325 1.287 . S
C6325 C6324 1.287 . S
C6325 C6326 1.524 . S
C6325 H6328 0.999 . S
C6326 H6296 0.950 . S
C6326 C6325 1.524 . S
C6326 C6327 1.415 . S
C6327 H6297 0.950 . S
C6327 C6322 1.363 . S
C6327 C6326 1.415 . S
H6328 C6325 0.999 . S
H6329 C6310 0.913 . S
H6330 C6348 0.951 . S
H6331 C6350 0.951 . S
H6332 C6352 0.950 . S
H6333 C6353 0.950 . S
H6334 C6355 0.950 . S
H6335 C6358 0.950 . S
H6336 C6359 0.950 . S
H6337 C6361 0.950 . S
H6338 C6362 0.950 . S
H6339 C6363 0.951 . S
H6340 C6365 0.951 . S
H6341 C6367 0.950 . S
H6342 C6368 0.950 . S
H6343 C6370 0.950 . S
H6344 C6373 0.950 . S
H6345 C6374 0.950 . S
H6346 C6376 0.950 . S
H6347 C6377 0.950 1_554 S
C6348 H6330 0.951 . S
C6348 C6349 1.366 . S
C6348 C6350 1.388 . S
C6349 C6348 1.366 . S
C6349 C6353 1.385 . S
C6350 H6331 0.951 . S
C6350 C6348 1.388 . S
C6350 C6351 1.366 . S
C6351 C6350 1.366 . S
C6351 C6352 1.414 . S
C6351 C6354 1.499 . S
C6352 H6332 0.950 . S
C6352 C6351 1.414 . S
C6352 C6353 1.374 . S
C6353 H6333 0.950 . S
C6353 C6349 1.385 . S
C6353 C6352 1.374 . S
C6354 C6351 1.499 . S
C6354 C6355 1.373 . S
C6354 C6356 1.389 . S
C6355 H6334 0.950 . S
C6355 C6354 1.373 . S
C6355 C6371 1.377 . S
C6356 C6354 1.389 . S
C6356 C6357 1.524 . S
C6356 C6370 1.377 . S
C6357 C6356 1.524 . S
C6357 C6358 1.397 . S
C6357 C6362 1.363 . S
C6358 H6335 0.950 . S
C6358 C6357 1.397 . S
C6358 C6359 1.334 . S
C6359 H6336 0.950 . S
C6359 C6358 1.334 . S
C6359 C6360 1.287 . S
C6360 C6359 1.287 . S
C6360 C6361 1.524 . S
C6360 H6379 0.913 . S
C6361 H6337 0.950 . S
C6361 C6360 1.524 . S
C6361 C6362 1.415 . S
C6362 H6338 0.950 . S
C6362 C6357 1.363 . S
C6362 C6361 1.415 . S
C6363 H6339 0.951 . S
C6363 C6364 1.366 . S
C6363 C6365 1.388 . S
C6364 C6363 1.366 . S
C6364 C6368 1.385 . S
C6365 H6340 0.951 . S
C6365 C6363 1.388 . S
C6365 C6366 1.366 . S
C6366 C6365 1.366 . S
C6366 C6367 1.414 . S
C6366 C6369 1.499 . S
C6367 H6341 0.950 . S
C6367 C6366 1.414 . S
C6367 C6368 1.374 . S
C6368 H6342 0.950 . S
C6368 C6364 1.385 . S
C6368 C6367 1.374 . S
C6369 C6366 1.499 . S
C6369 C6370 1.373 . S
C6369 C6371 1.389 . S
C6370 H6343 0.950 . S
C6370 C6356 1.377 . S
C6370 C6369 1.373 . S
C6371 C6355 1.377 . S
C6371 C6369 1.389 . S
C6371 C6372 1.524 1_554 S
C6372 C6371 1.524 1_556 S
C6372 C6373 1.397 . S
C6372 C6377 1.363 . S
C6373 H6344 0.950 . S
C6373 C6372 1.397 . S
C6373 C6374 1.334 . S
C6374 H6345 0.950 . S
C6374 C6373 1.334 . S
C6374 C6375 1.287 . S
C6375 C6374 1.287 . S
C6375 C6376 1.524 . S
C6375 H6378 0.999 . S
C6376 H6346 0.950 . S
C6376 C6375 1.524 . S
C6376 C6377 1.415 . S
C6377 H6347 0.950 1_556 S
C6377 C6372 1.363 . S
C6377 C6376 1.415 . S
H6378 C6375 0.999 . S
H6379 C6360 0.913 . S
H6380 C6398 0.951 . S
H6381 C6400 0.951 . S
H6382 C6402 0.950 . S
H6383 C6403 0.950 . S
H6384 C6405 0.950 . S
H6385 C6408 0.950 . S
H6386 C6409 0.950 . S
H6387 C6411 0.950 . S
H6388 C6412 0.950 . S
H6389 C6413 0.951 . S
H6390 C6415 0.951 . S
H6391 C6417 0.950 . S
H6392 C6418 0.950 . S
H6393 C6420 0.950 . S
H6394 C6423 0.950 . S
H6395 C6424 0.950 . S
H6396 C6426 0.950 . S
H6397 C6427 0.950 . S
C6398 H6380 0.951 . S
C6398 C6399 1.366 . S
C6398 C6400 1.388 . S
C6399 C6398 1.366 . S
C6399 C6403 1.385 . S
C6400 H6381 0.951 . S
C6400 C6398 1.388 . S
C6400 C6401 1.366 . S
C6401 C6400 1.366 . S
C6401 C6402 1.414 . S
C6401 C6404 1.499 . S
C6402 H6382 0.950 . S
C6402 C6401 1.414 . S
C6402 C6403 1.374 . S
C6403 H6383 0.950 . S
C6403 C6399 1.385 . S
C6403 C6402 1.374 . S
C6404 C6401 1.499 . S
C6404 C6405 1.373 . S
C6404 C6406 1.389 . S
C6405 H6384 0.950 . S
C6405 C6404 1.373 . S
C6405 C6421 1.377 . S
C6406 C6404 1.389 . S
C6406 C6407 1.524 . S
C6406 C6420 1.377 . S
C6407 C6406 1.524 . S
C6407 C6408 1.397 . S
C6407 C6412 1.363 . S
C6408 H6385 0.950 . S
C6408 C6407 1.397 . S
C6408 C6409 1.334 . S
C6409 H6386 0.950 . S
C6409 C6408 1.334 . S
C6409 C6410 1.287 . S
C6410 C6409 1.287 . S
C6410 C6411 1.524 . S
C6410 H6429 0.913 . S
C6411 H6387 0.950 . S
C6411 C6410 1.524 . S
C6411 C6412 1.415 . S
C6412 H6388 0.950 . S
C6412 C6407 1.363 . S
C6412 C6411 1.415 . S
C6413 H6389 0.951 . S
C6413 C6414 1.366 . S
C6413 C6415 1.388 . S
C6414 C6413 1.366 . S
C6414 C6418 1.385 . S
C6415 H6390 0.951 . S
C6415 C6413 1.388 . S
C6415 C6416 1.366 . S
C6416 C6415 1.366 . S
C6416 C6417 1.414 . S
C6416 C6419 1.499 . S
C6417 H6391 0.950 . S
C6417 C6416 1.414 . S
C6417 C6418 1.374 . S
C6418 H6392 0.950 . S
C6418 C6414 1.385 . S
C6418 C6417 1.374 . S
C6419 C6416 1.499 . S
C6419 C6420 1.373 . S
C6419 C6421 1.389 . S
C6420 H6393 0.950 . S
C6420 C6406 1.377 . S
C6420 C6419 1.373 . S
C6421 C6405 1.377 . S
C6421 C6419 1.389 . S
C6421 C6422 1.524 . S
C6422 C6421 1.524 . S
C6422 C6423 1.397 . S
C6422 C6427 1.363 . S
C6423 H6394 0.950 . S
C6423 C6422 1.397 . S
C6423 C6424 1.334 . S
C6424 H6395 0.950 . S
C6424 C6423 1.334 . S
C6424 C6425 1.287 . S
C6425 C6424 1.287 . S
C6425 C6426 1.524 . S
C6425 H6428 0.999 . S
C6426 H6396 0.950 . S
C6426 C6425 1.524 . S
C6426 C6427 1.415 . S
C6427 H6397 0.950 . S
C6427 C6422 1.363 . S
C6427 C6426 1.415 . S
H6428 C6425 0.999 . S
H6429 C6410 0.913 . S
H6430 C6448 0.951 . S
H6431 C6450 0.951 . S
H6432 C6452 0.950 . S
H6433 C6453 0.950 . S
H6434 C6455 0.950 . S
H6435 C6458 0.950 . S
H6436 C6459 0.950 . S
H6437 C6461 0.950 . S
H6438 C6462 0.950 . S
H6439 C6463 0.951 . S
H6440 C6465 0.951 . S
H6441 C6467 0.950 . S
H6442 C6468 0.950 . S
H6443 C6470 0.950 . S
H6444 C6473 0.950 . S
H6445 C6474 0.950 . S
H6446 C6476 0.950 . S
H6447 C6477 0.950 . S
C6448 H6430 0.951 . S
C6448 C6449 1.366 . S
C6448 C6450 1.388 . S
C6449 C6448 1.366 . S
C6449 C6453 1.385 . S
C6450 H6431 0.951 . S
C6450 C6448 1.388 . S
C6450 C6451 1.366 . S
C6451 C6450 1.366 . S
C6451 C6452 1.414 . S
C6451 C6454 1.499 . S
C6452 H6432 0.950 . S
C6452 C6451 1.414 . S
C6452 C6453 1.374 . S
C6453 H6433 0.950 . S
C6453 C6449 1.385 . S
C6453 C6452 1.374 . S
C6454 C6451 1.499 . S
C6454 C6455 1.373 . S
C6454 C6456 1.389 . S
C6455 H6434 0.950 . S
C6455 C6454 1.373 . S
C6455 C6471 1.377 . S
C6456 C6454 1.389 . S
C6456 C6457 1.524 . S
C6456 C6470 1.377 . S
C6457 C6456 1.524 . S
C6457 C6458 1.397 . S
C6457 C6462 1.363 . S
C6458 H6435 0.950 . S
C6458 C6457 1.397 . S
C6458 C6459 1.334 . S
C6459 H6436 0.950 . S
C6459 C6458 1.334 . S
C6459 C6460 1.287 . S
C6460 C6459 1.287 . S
C6460 C6461 1.524 . S
C6460 H6479 0.913 . S
C6461 H6437 0.950 . S
C6461 C6460 1.524 . S
C6461 C6462 1.415 . S
C6462 H6438 0.950 . S
C6462 C6457 1.363 . S
C6462 C6461 1.415 . S
C6463 H6439 0.951 . S
C6463 C6464 1.366 . S
C6463 C6465 1.388 . S
C6464 C6463 1.366 . S
C6464 C6468 1.385 . S
C6465 H6440 0.951 . S
C6465 C6463 1.388 . S
C6465 C6466 1.366 . S
C6466 C6465 1.366 . S
C6466 C6467 1.414 . S
C6466 C6469 1.499 . S
C6467 H6441 0.950 . S
C6467 C6466 1.414 . S
C6467 C6468 1.374 . S
C6468 H6442 0.950 . S
C6468 C6464 1.385 . S
C6468 C6467 1.374 . S
C6469 C6466 1.499 . S
C6469 C6470 1.373 . S
C6469 C6471 1.389 . S
C6470 H6443 0.950 . S
C6470 C6456 1.377 . S
C6470 C6469 1.373 . S
C6471 C6455 1.377 . S
C6471 C6469 1.389 . S
C6471 C6472 1.524 . S
C6472 C6471 1.524 . S
C6472 C6473 1.397 . S
C6472 C6477 1.363 . S
C6473 H6444 0.950 . S
C6473 C6472 1.397 . S
C6473 C6474 1.334 . S
C6474 H6445 0.950 . S
C6474 C6473 1.334 . S
C6474 C6475 1.287 . S
C6475 C6474 1.287 . S
C6475 C6476 1.524 . S
C6475 H6478 0.999 . S
C6476 H6446 0.950 . S
C6476 C6475 1.524 . S
C6476 C6477 1.415 . S
C6477 H6447 0.950 . S
C6477 C6472 1.363 . S
C6477 C6476 1.415 . S
H6478 C6475 0.999 . S
H6479 C6460 0.913 . S
C1699 C111 1.883 . S
C1714 C403 1.909 . S
C1749 C64 1.788 . S
C1764 C476 1.840 . S
C1799 C77 1.675 . S
C1814 C571 1.676 . S
C1864 C646 1.270 . S
C1849 C95 1.376 . S
C1899 C25 1.389 . S
C1914 C730 1.278 . S
C1964 C823 1.773 . S
C1949 C36 1.682 . S
C2014 C896 1.818 . S
C1999 C50 1.768 . S
C2049 C11 1.826 . S
C2064 C991 1.835 . S
C2114 C392 1.432 . S
C2099 C237 1.408 . S
C2149 C245 0.801 . S
C2164 C478 0.791 . S
C2214 C560 0.953 . S
C2199 C279 0.912 . S
C2264 C655 1.494 . S
C2249 C175 1.494 1_556 S
C2299 C231 1.450 . S
C2314 C739 1.449 . S
C2364 C812 0.954 . S
C2349 C251 0.915 . S
C2414 C898 0.818 . S
C2399 C273 0.838 . S
C2464 C980 1.435 . S
C2449 C181 1.411 . S
C2514 C394 0.773 1_565 S
C2499 C165 0.774 1_554 S
C2549 C288 1.623 . S
C2564 C1064 1.664 . S
C2614 C1150 1.216 . S
C2599 C333 1.298 . S
C2664 C1243 0.735 . S
C2649 C316 0.737 . S
C2699 C123 0.746 . S
C2714 C982 0.746 . S
C2749 C137 1.257 . S
C2764 C562 1.179 . S
C2799 C330 1.624 . S
C2814 C1316 1.666 . S
C2864 C1411 0.742 . S
C2849 C302 0.744 . S
C2914 C391 2.076 . S
C2899 C63 2.074 . S
C2964 C1412 1.902 . S
C2949 C106 1.905 . S
C2999 C97 1.714 . S
C3014 C559 1.780 . S
C3049 C81 1.450 . S
C3064 C1330 1.334 . S
C3114 C742 1.401 . S
C3099 C13 1.447 . S
C3149 C55 1.714 . S
C3164 C1147 1.782 . S
C3214 C908 1.836 . S
C3199 C35 1.806 . S
C3264 C1483 2.075 . S
C3249 C21 2.072 . S
C3314 C404 1.594 . S
C3299 C147 1.637 . S
C3364 C1414 0.816 . S
C3349 C321 0.824 . S
C3399 C119 1.034 . S
C3414 C572 1.026 . S
C3449 C293 1.541 . S
C3464 C1315 1.623 . S
C3499 C153 1.541 . S
C3514 C727 1.625 . S
C3564 C1160 1.035 . S
C3549 C315 1.042 . S
C3599 C125 0.833 . S
C3614 C910 0.822 . S
C3649 C287 1.629 . S
C3664 C1496 1.584 . S
C3699 C193 0.851 . S
C3714 C406 0.836 . S
C3749 C176 1.697 . S
C3764 C1076 1.704 . S
C3799 C263 1.271 . S
C3814 C826 1.208 . S
C3849 C246 0.900 . S
C3864 C1231 0.926 . S
C3914 C1498 0.841 . S
C3899 C277 0.856 1_565 S
C3949 C221 1.286 . S
C3964 C574 1.213 . S
C4014 C656 1.727 . S
C3999 C260 1.721 . S
C4064 C475 0.909 . S
C4049 C204 0.883 . S
C4099 C83 1.882 . S
C4114 C1579 1.910 . S
C4164 C1400 1.840 . S
C4149 C92 1.788 . S
C4199 C105 1.671 . S
C4214 C1663 1.676 . S
C4249 C67 1.376 . S
C4264 C1318 1.269 . S
C4299 C53 1.388 . S
C4314 C1066 1.279 . S
C4364 C1159 1.773 . S
C4349 C8 1.681 1_655 S
C4414 C1232 1.819 . S
C4399 C22 1.768 . S
C4464 C1495 1.835 . S
C4449 C39 1.825 . S
C4514 C1568 1.432 . S
C4499 C265 1.409 . S
C4549 C189 0.802 . S
C4564 C1402 0.789 . S
C4614 C1652 0.953 . S
C4599 C209 0.914 . S
C4664 C1327 1.493 . S
C4649 C217 1.493 . S
C4714 C1075 1.450 . S
C4699 C259 1.450 . S
C4749 C195 0.913 . S
C4764 C1148 0.955 . S
C4814 C1234 0.818 . S
C4799 C203 0.837 . S
C4849 C223 1.412 . S
C4864 C1484 1.434 . S
C4914 C1570 0.773 . S
C4899 C319 0.777 . S
C4949 C134 1.622 . S
C4964 C728 1.664 . S
C5014 C814 1.215 . S
C4999 C151 1.297 . S
C5064 C907 0.734 . S
C5049 C162 0.741 . S
C5114 C1486 0.746 . S
C5099 C305 0.745 . S
C5149 C291 1.256 . S
C5164 C1654 1.179 . S
C5214 C644 1.666 . S
C5199 C148 1.625 . S
C5264 C487 0.742 . S
C5249 C120 0.745 . S
C5299 C91 2.074 . S
C5314 C1567 2.076 . S
C5364 C488 1.902 . S
C5349 C78 1.902 . S
C5399 C69 1.714 . S
C5414 C1651 1.780 . S
C5449 C109 1.450 . S
C5464 C658 1.332 . S
C5499 C41 1.445 . S
C5514 C1078 1.402 . S
C5564 C811 1.782 . S
C5549 C27 1.715 . S
C5599 C7 1.807 . S
C5614 C1244 1.810 . S
C5649 C49 2.072 . S
C5664 C979 2.075 . S
C5714 C1580 1.595 . S
C5699 C329 1.637 . S
C5749 C167 0.824 . S
C5764 C490 0.810 . S
C5814 C1664 1.026 1_655 S
C5799 C301 1.035 . S
C5849 C139 1.540 . S
C5864 C643 1.623 . S
C5899 C335 1.540 . S
C5914 C1063 1.625 . S
C5964 C824 1.036 . S
C5949 C161 1.050 . S
C5999 C307 0.832 . S
C6014 C1246 0.822 . S
C6064 C992 1.584 . S
C6049 C133 1.629 . S
C6114 C1582 0.838 . S
C6099 C249 0.849 . S
C6164 C740 1.704 1_565 S
C6149 C218 1.697 . S
C6199 C235 1.271 . S
C6214 C1162 1.207 . S
C6264 C895 0.925 . S
C6249 C190 0.898 . S
C6299 C207 0.856 . S
C6314 C994 0.842 . S
C6349 C179 1.286 . S
C6364 C1666 1.215 . S
C6414 C1328 1.727 . S
C6399 C232 1.721 . S
C6464 C1399 0.909 . S
C6449 C274 0.883 . S
