# Generated by pormake.
# Topology gar, (4,6)-cn, num edge types: 1
# Building blocks:
#     Node 0, Type 0, BuildingBlock: QUQFOY_clean_sbu_3, # of connection points: 4
#     Node 1, Type 0, BuildingBlock: QUQFOY_clean_sbu_3, # of connection points: 4
#     Node 2, Type 0, BuildingBlock: QUQFOY_clean_sbu_3, # of connection points: 4
#     Node 3, Type 0, BuildingBlock: QUQFOY_clean_sbu_3, # of connection points: 4
#     Node 4, Type 0, BuildingBlock: QUQFOY_clean_sbu_3, # of connection points: 4
#     Node 5, Type 0, BuildingBlock: QUQFOY_clean_sbu_3, # of connection points: 4
#     Node 6, Type 0, BuildingBlock: QUQFOY_clean_sbu_3, # of connection points: 4
#     Node 7, Type 0, BuildingBlock: QUQFOY_clean_sbu_3, # of connection points: 4
#     Node 8, Type 0, BuildingBlock: QUQFOY_clean_sbu_3, # of connection points: 4
#     Node 9, Type 0, BuildingBlock: QUQFOY_clean_sbu_3, # of connection points: 4
#     Node 10, Type 0, BuildingBlock: QUQFOY_clean_sbu_3, # of connection points: 4
#     Node 11, Type 0, BuildingBlock: QUQFOY_clean_sbu_3, # of connection points: 4
#     Node 12, Type 0, BuildingBlock: QUQFOY_clean_sbu_3, # of connection points: 4
#     Node 13, Type 0, BuildingBlock: QUQFOY_clean_sbu_3, # of connection points: 4
#     Node 14, Type 0, BuildingBlock: QUQFOY_clean_sbu_3, # of connection points: 4
#     Node 15, Type 0, BuildingBlock: QUQFOY_clean_sbu_3, # of connection points: 4
#     Node 16, Type 0, BuildingBlock: QUQFOY_clean_sbu_3, # of connection points: 4
#     Node 17, Type 0, BuildingBlock: QUQFOY_clean_sbu_3, # of connection points: 4
#     Node 18, Type 0, BuildingBlock: QUQFOY_clean_sbu_3, # of connection points: 4
#     Node 19, Type 0, BuildingBlock: QUQFOY_clean_sbu_3, # of connection points: 4
#     Node 20, Type 0, BuildingBlock: QUQFOY_clean_sbu_3, # of connection points: 4
#     Node 21, Type 0, BuildingBlock: QUQFOY_clean_sbu_3, # of connection points: 4
#     Node 22, Type 0, BuildingBlock: QUQFOY_clean_sbu_3, # of connection points: 4
#     Node 23, Type 0, BuildingBlock: QUQFOY_clean_sbu_3, # of connection points: 4
#     Node 24, Type 1, BuildingBlock: GEDQOX_clean_sbu_0, # of connection points: 6
#     Node 25, Type 1, BuildingBlock: GEDQOX_clean_sbu_0, # of connection points: 6
#     Node 26, Type 1, BuildingBlock: GEDQOX_clean_sbu_0, # of connection points: 6
#     Node 27, Type 1, BuildingBlock: GEDQOX_clean_sbu_0, # of connection points: 6
#     Node 28, Type 1, BuildingBlock: GEDQOX_clean_sbu_0, # of connection points: 6
#     Node 29, Type 1, BuildingBlock: GEDQOX_clean_sbu_0, # of connection points: 6
#     Node 30, Type 1, BuildingBlock: GEDQOX_clean_sbu_0, # of connection points: 6
#     Node 31, Type 1, BuildingBlock: GEDQOX_clean_sbu_0, # of connection points: 6
#     Node 32, Type 1, BuildingBlock: GEDQOX_clean_sbu_0, # of connection points: 6
#     Node 33, Type 1, BuildingBlock: GEDQOX_clean_sbu_0, # of connection points: 6
#     Node 34, Type 1, BuildingBlock: GEDQOX_clean_sbu_0, # of connection points: 6
#     Node 35, Type 1, BuildingBlock: GEDQOX_clean_sbu_0, # of connection points: 6
#     Node 36, Type 1, BuildingBlock: GEDQOX_clean_sbu_0, # of connection points: 6
#     Node 37, Type 1, BuildingBlock: GEDQOX_clean_sbu_0, # of connection points: 6
#     Node 38, Type 1, BuildingBlock: GEDQOX_clean_sbu_0, # of connection points: 6
#     Node 39, Type 1, BuildingBlock: GEDQOX_clean_sbu_0, # of connection points: 6
#     Edge 40, Type (0, 1), BuildingBlock: ZUJKAS_clean_linker_0, # of connection points: 2
#     Edge 41, Type (0, 1), BuildingBlock: ZUJKAS_clean_linker_0, # of connection points: 2
#     Edge 42, Type (0, 1), BuildingBlock: ZUJKAS_clean_linker_0, # of connection points: 2
#     Edge 43, Type (0, 1), BuildingBlock: ZUJKAS_clean_linker_0, # of connection points: 2
#     Edge 44, Type (0, 1), BuildingBlock: ZUJKAS_clean_linker_0, # of connection points: 2
#     Edge 45, Type (0, 1), BuildingBlock: ZUJKAS_clean_linker_0, # of connection points: 2
#     Edge 46, Type (0, 1), BuildingBlock: ZUJKAS_clean_linker_0, # of connection points: 2
#     Edge 47, Type (0, 1), BuildingBlock: ZUJKAS_clean_linker_0, # of connection points: 2
#     Edge 48, Type (0, 1), BuildingBlock: ZUJKAS_clean_linker_0, # of connection points: 2
#     Edge 49, Type (0, 1), BuildingBlock: ZUJKAS_clean_linker_0, # of connection points: 2
#     Edge 50, Type (0, 1), BuildingBlock: ZUJKAS_clean_linker_0, # of connection points: 2
#     Edge 51, Type (0, 1), BuildingBlock: ZUJKAS_clean_linker_0, # of connection points: 2
#     Edge 52, Type (0, 1), BuildingBlock: ZUJKAS_clean_linker_0, # of connection points: 2
#     Edge 53, Type (0, 1), BuildingBlock: ZUJKAS_clean_linker_0, # of connection points: 2
#     Edge 54, Type (0, 1), BuildingBlock: ZUJKAS_clean_linker_0, # of connection points: 2
#     Edge 55, Type (0, 1), BuildingBlock: ZUJKAS_clean_linker_0, # of connection points: 2
#     Edge 56, Type (0, 1), BuildingBlock: ZUJKAS_clean_linker_0, # of connection points: 2
#     Edge 57, Type (0, 1), BuildingBlock: ZUJKAS_clean_linker_0, # of connection points: 2
#     Edge 58, Type (0, 1), BuildingBlock: ZUJKAS_clean_linker_0, # of connection points: 2
#     Edge 59, Type (0, 1), BuildingBlock: ZUJKAS_clean_linker_0, # of connection points: 2
#     Edge 60, Type (0, 1), BuildingBlock: ZUJKAS_clean_linker_0, # of connection points: 2
#     Edge 61, Type (0, 1), BuildingBlock: ZUJKAS_clean_linker_0, # of connection points: 2
#     Edge 62, Type (0, 1), BuildingBlock: ZUJKAS_clean_linker_0, # of connection points: 2
#     Edge 63, Type (0, 1), BuildingBlock: ZUJKAS_clean_linker_0, # of connection points: 2
#     Edge 64, Type (0, 1), BuildingBlock: ZUJKAS_clean_linker_0, # of connection points: 2
#     Edge 65, Type (0, 1), BuildingBlock: ZUJKAS_clean_linker_0, # of connection points: 2
#     Edge 66, Type (0, 1), BuildingBlock: ZUJKAS_clean_linker_0, # of connection points: 2
#     Edge 67, Type (0, 1), BuildingBlock: ZUJKAS_clean_linker_0, # of connection points: 2
#     Edge 68, Type (0, 1), BuildingBlock: ZUJKAS_clean_linker_0, # of connection points: 2
#     Edge 69, Type (0, 1), BuildingBlock: ZUJKAS_clean_linker_0, # of connection points: 2
#     Edge 70, Type (0, 1), BuildingBlock: ZUJKAS_clean_linker_0, # of connection points: 2
#     Edge 71, Type (0, 1), BuildingBlock: ZUJKAS_clean_linker_0, # of connection points: 2
#     Edge 72, Type (0, 1), BuildingBlock: ZUJKAS_clean_linker_0, # of connection points: 2
#     Edge 73, Type (0, 1), BuildingBlock: ZUJKAS_clean_linker_0, # of connection points: 2
#     Edge 74, Type (0, 1), BuildingBlock: ZUJKAS_clean_linker_0, # of connection points: 2
#     Edge 75, Type (0, 1), BuildingBlock: ZUJKAS_clean_linker_0, # of connection points: 2
#     Edge 76, Type (0, 1), BuildingBlock: ZUJKAS_clean_linker_0, # of connection points: 2
#     Edge 77, Type (0, 1), BuildingBlock: ZUJKAS_clean_linker_0, # of connection points: 2
#     Edge 78, Type (0, 1), BuildingBlock: ZUJKAS_clean_linker_0, # of connection points: 2
#     Edge 79, Type (0, 1), BuildingBlock: ZUJKAS_clean_linker_0, # of connection points: 2
#     Edge 80, Type (0, 1), BuildingBlock: ZUJKAS_clean_linker_0, # of connection points: 2
#     Edge 81, Type (0, 1), BuildingBlock: ZUJKAS_clean_linker_0, # of connection points: 2
#     Edge 82, Type (0, 1), BuildingBlock: ZUJKAS_clean_linker_0, # of connection points: 2
#     Edge 83, Type (0, 1), BuildingBlock: ZUJKAS_clean_linker_0, # of connection points: 2
#     Edge 84, Type (0, 1), BuildingBlock: ZUJKAS_clean_linker_0, # of connection points: 2
#     Edge 85, Type (0, 1), BuildingBlock: ZUJKAS_clean_linker_0, # of connection points: 2
#     Edge 86, Type (0, 1), BuildingBlock: ZUJKAS_clean_linker_0, # of connection points: 2
#     Edge 87, Type (0, 1), BuildingBlock: ZUJKAS_clean_linker_0, # of connection points: 2
#     Edge 88, Type (0, 1), BuildingBlock: ZUJKAS_clean_linker_0, # of connection points: 2
#     Edge 89, Type (0, 1), BuildingBlock: ZUJKAS_clean_linker_0, # of connection points: 2
#     Edge 90, Type (0, 1), BuildingBlock: ZUJKAS_clean_linker_0, # of connection points: 2
#     Edge 91, Type (0, 1), BuildingBlock: ZUJKAS_clean_linker_0, # of connection points: 2
#     Edge 92, Type (0, 1), BuildingBlock: ZUJKAS_clean_linker_0, # of connection points: 2
#     Edge 93, Type (0, 1), BuildingBlock: ZUJKAS_clean_linker_0, # of connection points: 2
#     Edge 94, Type (0, 1), BuildingBlock: ZUJKAS_clean_linker_0, # of connection points: 2
#     Edge 95, Type (0, 1), BuildingBlock: ZUJKAS_clean_linker_0, # of connection points: 2
#     Edge 96, Type (0, 1), BuildingBlock: ZUJKAS_clean_linker_0, # of connection points: 2
#     Edge 97, Type (0, 1), BuildingBlock: ZUJKAS_clean_linker_0, # of connection points: 2
#     Edge 98, Type (0, 1), BuildingBlock: ZUJKAS_clean_linker_0, # of connection points: 2
#     Edge 99, Type (0, 1), BuildingBlock: ZUJKAS_clean_linker_0, # of connection points: 2
#     Edge 100, Type (0, 1), BuildingBlock: ZUJKAS_clean_linker_0, # of connection points: 2
#     Edge 101, Type (0, 1), BuildingBlock: ZUJKAS_clean_linker_0, # of connection points: 2
#     Edge 102, Type (0, 1), BuildingBlock: ZUJKAS_clean_linker_0, # of connection points: 2
#     Edge 103, Type (0, 1), BuildingBlock: ZUJKAS_clean_linker_0, # of connection points: 2
#     Edge 104, Type (0, 1), BuildingBlock: ZUJKAS_clean_linker_0, # of connection points: 2
#     Edge 105, Type (0, 1), BuildingBlock: ZUJKAS_clean_linker_0, # of connection points: 2
#     Edge 106, Type (0, 1), BuildingBlock: ZUJKAS_clean_linker_0, # of connection points: 2
#     Edge 107, Type (0, 1), BuildingBlock: ZUJKAS_clean_linker_0, # of connection points: 2
#     Edge 108, Type (0, 1), BuildingBlock: ZUJKAS_clean_linker_0, # of connection points: 2
#     Edge 109, Type (0, 1), BuildingBlock: ZUJKAS_clean_linker_0, # of connection points: 2
#     Edge 110, Type (0, 1), BuildingBlock: ZUJKAS_clean_linker_0, # of connection points: 2
#     Edge 111, Type (0, 1), BuildingBlock: ZUJKAS_clean_linker_0, # of connection points: 2
#     Edge 112, Type (0, 1), BuildingBlock: ZUJKAS_clean_linker_0, # of connection points: 2
#     Edge 113, Type (0, 1), BuildingBlock: ZUJKAS_clean_linker_0, # of connection points: 2
#     Edge 114, Type (0, 1), BuildingBlock: ZUJKAS_clean_linker_0, # of connection points: 2
#     Edge 115, Type (0, 1), BuildingBlock: ZUJKAS_clean_linker_0, # of connection points: 2
#     Edge 116, Type (0, 1), BuildingBlock: ZUJKAS_clean_linker_0, # of connection points: 2
#     Edge 117, Type (0, 1), BuildingBlock: ZUJKAS_clean_linker_0, # of connection points: 2
#     Edge 118, Type (0, 1), BuildingBlock: ZUJKAS_clean_linker_0, # of connection points: 2
#     Edge 119, Type (0, 1), BuildingBlock: ZUJKAS_clean_linker_0, # of connection points: 2
#     Edge 120, Type (0, 1), BuildingBlock: ZUJKAS_clean_linker_0, # of connection points: 2
#     Edge 121, Type (0, 1), BuildingBlock: ZUJKAS_clean_linker_0, # of connection points: 2
#     Edge 122, Type (0, 1), BuildingBlock: ZUJKAS_clean_linker_0, # of connection points: 2
#     Edge 123, Type (0, 1), BuildingBlock: ZUJKAS_clean_linker_0, # of connection points: 2
#     Edge 124, Type (0, 1), BuildingBlock: ZUJKAS_clean_linker_0, # of connection points: 2
#     Edge 125, Type (0, 1), BuildingBlock: ZUJKAS_clean_linker_0, # of connection points: 2
#     Edge 126, Type (0, 1), BuildingBlock: ZUJKAS_clean_linker_0, # of connection points: 2
#     Edge 127, Type (0, 1), BuildingBlock: ZUJKAS_clean_linker_0, # of connection points: 2
#     Edge 128, Type (0, 1), BuildingBlock: ZUJKAS_clean_linker_0, # of connection points: 2
#     Edge 129, Type (0, 1), BuildingBlock: ZUJKAS_clean_linker_0, # of connection points: 2
#     Edge 130, Type (0, 1), BuildingBlock: ZUJKAS_clean_linker_0, # of connection points: 2
#     Edge 131, Type (0, 1), BuildingBlock: ZUJKAS_clean_linker_0, # of connection points: 2
#     Edge 132, Type (0, 1), BuildingBlock: ZUJKAS_clean_linker_0, # of connection points: 2
#     Edge 133, Type (0, 1), BuildingBlock: ZUJKAS_clean_linker_0, # of connection points: 2
#     Edge 134, Type (0, 1), BuildingBlock: ZUJKAS_clean_linker_0, # of connection points: 2
#     Edge 135, Type (0, 1), BuildingBlock: ZUJKAS_clean_linker_0, # of connection points: 2
# Relax obj value: 0.225
# Max RMSD: 0.368
# Mean RMSD: 0.159
data_MOF--net-gar--node1-QUQFOY_clean_sbu_3--node2-GEDQOX_clean_sbu_0--edge1-ZUJKAS_clean_linker_0
_symmetry_space_group_name_H-M    P1
_symmetry_Int_Tables_number       1
_symmetry_cell_setting            triclinic
loop_
_symmetry_equiv_pos_as_xyz
'x, y, z'
_cell_length_a     77.981486
_cell_length_b     76.599178
_cell_length_c     70.137737
_cell_angle_alpha  97.624616
_cell_angle_beta   96.626376
_cell_angle_gamma 100.44449
loop_
_atom_site_label
_atom_site_type_symbol
_atom_site_fract_x
_atom_site_fract_y
_atom_site_fract_z
_atom_type_partial_charge
C0 C 0.0493 0.35689 0.43776 0.0
O1 O 0.06154 0.36821 0.43314 0.0
Cd2 Cd 0.09179 0.36673 0.44083 0.0
O3 O 0.05288 0.34503 0.4479 0.0
Cd4 Cd 0.0788 0.33545 0.46398 0.0
C5 C 0.09542 0.37729 0.48978 0.0
O6 O 0.08868 0.33469 0.43323 0.0
O7 O 0.10691 0.32715 0.45451 0.0
O8 O 0.05585 0.30876 0.46173 0.0
C9 C 0.10233 0.32841 0.43686 0.0
O10 O 0.10042 0.38209 0.47431 0.0
C11 C 0.06207 0.30392 0.47726 0.0
O12 O 0.08672 0.36153 0.48956 0.0
O13 O 0.07639 0.31355 0.48643 0.0
C14 C 0.95775 0.75812 0.67807 0.0
O15 O 0.9687 0.74907 0.68433 0.0
Cd16 Cd 0.9969 0.74924 0.675 0.0
O17 O 0.96082 0.76716 0.66433 0.0
Cd18 Cd 0.98574 0.77172 0.64453 0.0
C19 C 0.98736 0.72877 0.628 0.0
O20 O 0.00748 0.78024 0.67329 0.0
O21 O 0.01829 0.77586 0.64666 0.0
O22 O 0.98171 0.80191 0.63987 0.0
C23 C 0.02086 0.78198 0.66465 0.0
O24 O 0.99464 0.72844 0.64509 0.0
C25 C 0.98292 0.79959 0.62185 0.0
O26 O 0.98125 0.74239 0.6241 0.0
O27 O 0.98385 0.7839 0.6142 0.0
C28 C 0.55061 0.84821 0.92303 0.0
O29 O 0.56201 0.86096 0.91921 0.0
Cd30 Cd 0.59241 0.87212 0.93381 0.0
O31 O 0.55432 0.83906 0.93633 0.0
Cd32 Cd 0.57892 0.83614 0.9604 0.0
C33 C 0.58697 0.88143 0.98203 0.0
O34 O 0.59959 0.84515 0.94045 0.0
O35 O 0.60185 0.81952 0.9477 0.0
O36 O 0.55747 0.80934 0.96127 0.0
C37 C 0.60674 0.83177 0.93785 0.0
O38 O 0.59045 0.88675 0.96617 0.0
C39 C 0.56357 0.80724 0.97825 0.0
O40 O 0.58308 0.86471 0.98323 0.0
O41 O 0.5771 0.81864 0.98698 0.0
C42 C 0.45503 0.2591 0.17946 0.0
O43 O 0.46384 0.24779 0.18486 0.0
Cd44 Cd 0.49059 0.24392 0.17377 0.0
O45 O 0.45949 0.26801 0.16604 0.0
Cd46 Cd 0.4834 0.26883 0.14488 0.0
C47 C 0.47728 0.2248 0.12666 0.0
O48 O 0.50571 0.274 0.17285 0.0
O49 O 0.51526 0.26813 0.14558 0.0
O50 O 0.4836 0.30049 0.14308 0.0
C51 C 0.51867 0.27416 0.1636 0.0
O52 O 0.48419 0.22311 0.14347 0.0
C53 C 0.48368 0.29903 0.12487 0.0
O54 O 0.47409 0.23989 0.12331 0.0
O55 O 0.4824 0.28329 0.11577 0.0
C56 C 0.98625 0.78629 0.24312 0.0
O57 O 0.99522 0.77783 0.25349 0.0
Cd58 Cd 0.02394 0.77277 0.24618 0.0
O59 O 0.99293 0.793 0.22923 0.0
Cd60 Cd 0.02263 0.79453 0.21576 0.0
C61 C 0.01738 0.74932 0.20077 0.0
O62 O 0.04655 0.79921 0.24531 0.0
O63 O 0.05404 0.79264 0.21709 0.0
O64 O 0.02197 0.82579 0.21005 0.0
C65 C 0.05886 0.79718 0.23522 0.0
O66 O 0.02105 0.7485 0.21874 0.0
C67 C 0.02157 0.8225 0.19174 0.0
O68 O 0.0158 0.76429 0.19543 0.0
O69 O 0.02193 0.80644 0.18473 0.0
C70 C 0.49697 0.81478 0.35761 0.0
O71 O 0.50672 0.82403 0.34778 0.0
Cd72 Cd 0.53784 0.83437 0.35915 0.0
O73 O 0.5042 0.80952 0.3726 0.0
Cd74 Cd 0.53671 0.81293 0.38909 0.0
C75 C 0.53855 0.85747 0.40398 0.0
O76 O 0.55554 0.81126 0.36189 0.0
O77 O 0.5692 0.82371 0.3901 0.0
O78 O 0.53276 0.78102 0.39462 0.0
C79 C 0.57024 0.81717 0.37279 0.0
O80 O 0.54089 0.85896 0.38656 0.0
C81 C 0.53683 0.78462 0.41299 0.0
O82 O 0.53583 0.84195 0.40904 0.0
O83 O 0.54046 0.80118 0.42019 0.0
C84 C 0.48649 0.28709 0.74293 0.0
O85 O 0.49557 0.27882 0.75344 0.0
Cd86 Cd 0.5242 0.27347 0.74611 0.0
O87 O 0.49301 0.2935 0.72879 0.0
Cd88 Cd 0.52246 0.29478 0.71487 0.0
C89 C 0.51725 0.24938 0.70087 0.0
O90 O 0.54662 0.29966 0.74419 0.0
O91 O 0.55386 0.29268 0.71592 0.0
O92 O 0.52233 0.32612 0.70913 0.0
C93 C 0.55881 0.29733 0.73403 0.0
O94 O 0.52117 0.24899 0.71891 0.0
C95 C 0.52106 0.3227 0.69073 0.0
O96 O 0.51547 0.26415 0.69513 0.0
O97 O 0.52074 0.30649 0.68361 0.0
C98 C 0.99707 0.31525 0.85616 0.0
O99 O 1.00693 0.3242 0.84618 0.0
Cd100 Cd 0.03794 0.33548 0.85811 0.0
O101 O 1.00412 0.31041 0.87152 0.0
Cd102 Cd 0.03637 0.31359 0.88843 0.0
C103 C 0.03772 0.35828 0.90285 0.0
O104 O 0.05587 0.31271 0.86151 0.0
O105 O 0.06901 0.32219 0.89068 0.0
O106 O 0.03126 0.28174 0.89427 0.0
C107 C 0.07037 0.31725 0.87303 0.0
O108 O 0.04011 0.35986 0.88546 0.0
C109 C 0.0353 0.28553 0.91265 0.0
O110 O 0.03529 0.34276 0.90792 0.0
O111 O 0.03941 0.30213 0.91963 0.0
C112 C 0.45575 0.10527 0.33503 0.0
O113 O 0.46205 0.09579 0.3224 0.0
Cd114 Cd 0.45353 0.08922 0.28816 0.0
O115 O 0.44352 0.11353 0.32977 0.0
Cd116 Cd 0.42683 0.11569 0.29667 0.0
C117 C 0.4106 0.0704 0.28966 0.0
O118 O 0.45149 0.11706 0.27763 0.0
O119 O 0.42595 0.11083 0.26059 0.0
O120 O 0.4234 0.1475 0.30477 0.0
C121 C 0.44251 0.11416 0.26092 0.0
O122 O 0.42529 0.06824 0.28445 0.0
C123 C 0.40681 0.1441 0.29945 0.0
O124 O 0.40817 0.08604 0.29589 0.0
O125 O 0.39971 0.12769 0.29368 0.0
C126 C 0.27368 0.10599 0.49727 0.0
O127 O 0.261 0.09955 0.50579 0.0
Cd128 Cd 0.23263 0.10702 0.50657 0.0
O129 O 0.27228 0.11822 0.4868 0.0
Cd130 Cd 0.24904 0.1357 0.47948 0.0
C131 C 0.24978 0.14976 0.52804 0.0
O132 O 0.22327 0.11163 0.47444 0.0
O133 O 0.21782 0.1382 0.47668 0.0
O134 O 0.25479 0.14329 0.44741 0.0
C135 C 0.21185 0.12142 0.47404 0.0
O136 O 0.23974 0.13509 0.52962 0.0
C137 C 0.25869 0.16012 0.45362 0.0
O138 O 0.25534 0.15217 0.51207 0.0
O139 O 0.25872 0.16507 0.47162 0.0
C140 C 0.13654 0.04593 0.85055 0.0
O141 O 0.12982 0.05497 0.83881 0.0
Cd142 Cd 0.13639 0.06085 0.80747 0.0
O143 O 0.14954 0.03851 0.84605 0.0
Cd144 Cd 0.16768 0.03628 0.81465 0.0
C145 C 0.17978 0.08489 0.81442 0.0
O146 O 0.14016 0.03306 0.79107 0.0
O147 O 0.16346 0.03545 0.7777 0.0
O148 O 0.169 1.00252 0.81468 0.0
C149 C 0.14684 0.03374 0.77551 0.0
O150 O 0.1632 0.08368 0.81048 0.0
C151 C 0.18547 1.0033 0.81498 0.0
O152 O 0.18576 0.07066 0.81769 0.0
O153 O 0.19422 0.01923 0.81578 0.0
C154 C 0.25016 0.94274 0.05037 0.0
O155 O 0.24005 0.94812 0.03786 0.0
Cd156 Cd 0.20948 0.93603 0.02869 0.0
O157 O 0.24425 0.92981 0.05915 0.0
Cd158 Cd 0.21556 0.909 0.05992 0.0
C159 C 0.21458 0.89373 0.01039 0.0
O160 O 0.20172 0.93494 0.06061 0.0
O161 O 0.18316 0.91087 0.06127 0.0
O162 O 0.22924 0.909 0.09354 0.0
C163 C 0.18612 0.92784 0.06206 0.0
O164 O 0.20999 0.90828 0.00703 0.0
C165 C 0.22437 0.89227 0.09368 0.0
O166 O 0.2177 0.89085 0.02787 0.0
O167 O 0.21503 0.8832 0.07826 0.0
C168 C 0.3283 0.5028 0.11158 0.0
O169 O 0.31888 0.511 0.10134 0.0
Cd170 Cd 0.28729 0.50397 0.09255 0.0
O171 O 0.32122 0.48932 0.11883 0.0
Cd172 Cd 0.29112 0.47177 0.11839 0.0
C173 C 0.2837 0.46145 0.06887 0.0
O174 O 0.2749 0.49596 0.12045 0.0
O175 O 0.25909 0.46927 0.11382 0.0
O176 O 0.29455 0.46284 0.15077 0.0
C177 C 0.25965 0.48606 0.11649 0.0
O178 O 0.28105 0.4772 0.06751 0.0
C179 C 0.29322 0.44629 0.1441 0.0
O180 O 0.28861 0.45717 0.08525 0.0
O181 O 0.29114 0.44193 0.12577 0.0
C182 C 0.86063 0.16943 0.05227 0.0
O183 O 0.85029 0.16166 0.06267 0.0
Cd184 Cd 0.82135 0.16604 0.06677 0.0
O185 O 0.85654 0.18232 0.04389 0.0
Cd186 Cd 0.83015 0.19852 0.04319 0.0
C187 C 0.82678 0.20879 0.09203 0.0
O188 O 0.80824 0.17028 0.0359 0.0
O189 O 0.79804 0.19425 0.04254 0.0
O190 O 0.8307 0.20291 0.00897 0.0
C191 C 0.79491 0.17745 0.03693 0.0
O192 O 0.82166 0.1919 0.09096 0.0
C193 C 0.83048 0.21957 0.01158 0.0
O194 O 0.8325 0.21528 0.07752 0.0
O195 O 0.8315 0.22694 0.02911 0.0
C196 C 0.09596 0.50324 0.32758 0.0
O197 O 0.08818 0.5104 0.31468 0.0
Cd198 Cd 0.09558 0.51409 0.28317 0.0
O199 O 0.10911 0.49607 0.32412 0.0
Cd200 Cd 0.12555 0.49087 0.29509 0.0
C201 C 0.13894 0.53608 0.29629 0.0
O202 O 0.10053 0.48603 0.26874 0.0
O203 O 0.12598 0.49063 0.25959 0.0
O204 O 0.12964 0.46027 0.30051 0.0
C205 C 0.10941 0.48762 0.25484 0.0
O206 O 0.12325 0.53613 0.28884 0.0
C207 C 0.14635 0.46385 0.30171 0.0
O208 O 0.14309 0.52177 0.30121 0.0
O209 O 0.15324 0.47982 0.30005 0.0
C210 C 0.82916 1.0034 0.61622 0.0
O211 O 0.81973 0.01153 0.60589 0.0
Cd212 Cd 0.78822 1.00417 0.59677 0.0
O213 O 0.82209 0.98995 0.62352 0.0
Cd214 Cd 0.79195 0.9724 0.62306 0.0
C215 C 0.78556 0.96166 0.57362 0.0
O216 O 0.77564 0.99647 0.6247 0.0
O217 O 0.75988 0.96976 0.61771 0.0
O218 O 0.79496 0.96362 0.65556 0.0
C219 C 0.76042 0.98655 0.62053 0.0
O220 O 0.78281 0.97731 0.57189 0.0
C221 C 0.79379 0.94707 0.64898 0.0
O222 O 0.79008 0.95759 0.5902 0.0
O223 O 0.79198 0.94267 0.63067 0.0
C224 C 0.91914 0.06369 0.32482 0.0
O225 O 0.92537 0.05366 0.31264 0.0
Cd226 Cd 0.91615 0.04494 0.27878 0.0
O227 O 0.90648 0.07132 0.31886 0.0
Cd228 Cd 0.88782 0.07137 0.28425 0.0
C229 C 0.874 0.02272 0.28236 0.0
O230 O 0.91472 0.07248 0.26668 0.0
O231 O 0.89092 0.06777 0.24708 0.0
O232 O 0.88717 0.10527 0.29436 0.0
C233 C 0.90765 0.07045 0.24914 0.0
O234 O 0.88951 0.02239 0.2785 0.0
C235 C 0.8709 0.10495 0.28919 0.0
O236 O 0.86926 0.03808 0.28547 0.0
O237 O 0.86205 0.08929 0.28202 0.0
C238 C 0.36128 0.67234 0.55304 0.0
O239 O 0.35157 0.66488 0.5642 0.0
Cd240 Cd 0.32259 0.66901 0.5686 0.0
O241 O 0.35662 0.68478 0.54429 0.0
Cd242 Cd 0.33035 0.70096 0.54445 0.0
C243 C 0.32802 0.71183 0.59342 0.0
O244 O 0.30838 0.67272 0.53795 0.0
O245 O 0.29848 0.69681 0.54515 0.0
O246 O 0.3297 0.7046 0.50996 0.0
C247 C 0.29519 0.68001 0.53952 0.0
O248 O 0.32301 0.69495 0.59258 0.0
C249 C 0.32987 0.72134 0.51229 0.0
O250 O 0.33346 0.71817 0.5787 0.0
O251 O 0.33156 0.72909 0.52977 0.0
C252 C 0.41951 0.56754 0.82502 0.0
O253 O 0.42776 0.55883 0.81382 0.0
Cd254 Cd 0.41739 0.54773 0.78046 0.0
O255 O 0.40549 0.57261 0.81807 0.0
Cd256 Cd 0.38759 0.57183 0.7831 0.0
C257 C 0.37536 0.52383 0.78346 0.0
O258 O 0.41469 0.57389 0.76582 0.0
O259 O 0.39088 0.566 0.74607 0.0
O260 O 0.38691 0.60573 0.79249 0.0
C261 C 0.40761 0.57021 0.74821 0.0
O262 O 0.39134 0.52421 0.78094 0.0
C263 C 0.37061 0.60537 0.78753 0.0
O264 O 0.36968 0.53873 0.78501 0.0
O265 O 0.36171 0.58967 0.7806 0.0
C266 C 0.59919 1.00505 0.82884 0.0
O267 O 0.59154 0.01233 0.81596 0.0
Cd268 Cd 0.59913 0.01536 0.78441 0.0
O269 O 0.61205 0.99746 0.8252 0.0
Cd270 Cd 0.62808 0.9916 0.79594 0.0
C271 C 0.64268 0.03653 0.79719 0.0
O272 O 0.60291 0.98684 0.76951 0.0
O273 O 0.62847 0.99122 0.76056 0.0
O274 O 0.63145 0.96134 0.80341 0.0
C275 C 0.61193 0.98819 0.75567 0.0
O276 O 0.62705 0.03695 0.78988 0.0
C277 C 0.64789 0.96378 0.80251 0.0
O278 O 0.6465 0.02207 0.80205 0.0
O279 O 0.65498 0.97899 0.79878 0.0
C280 C 0.77921 0.60224 0.99263 0.0
O281 O 0.76676 0.59375 1.00005 0.0
Cd282 Cd 0.7392 0.60168 0.00475 0.0
O283 O 0.77736 0.61618 0.98506 0.0
Cd284 Cd 0.75306 0.63311 0.98016 0.0
C285 C 0.7564 0.64386 0.02931 0.0
O286 O 0.72709 0.60883 0.97465 0.0
O287 O 0.72231 0.63558 0.98094 0.0
O288 O 0.75679 0.64179 0.94806 0.0
C289 C 0.716 0.61889 0.97665 0.0
O290 O 0.74799 0.62815 0.03015 0.0
C291 C 0.76025 0.65855 0.95461 0.0
O292 O 0.76025 0.64826 0.01325 0.0
O293 O 0.76112 0.66305 0.97281 0.0
C294 C 0.9536 0.60168 0.83614 0.0
O295 O 0.95907 0.59132 0.82356 0.0
Cd296 Cd 0.95194 0.58585 0.78907 0.0
O297 O 0.94264 0.61134 0.83085 0.0
Cd298 Cd 0.92631 0.61349 0.79757 0.0
C299 C 0.90884 0.56833 0.7899 0.0
O300 O 0.95123 0.61412 0.77878 0.0
O301 O 0.92571 0.60864 0.7617 0.0
O302 O 0.92273 0.6453 0.80576 0.0
C303 C 0.94226 0.61156 0.76207 0.0
O304 O 0.9232 0.5657 0.78418 0.0
C305 C 0.90626 0.64186 0.79967 0.0
O306 O 0.90713 0.58407 0.7968 0.0
O307 O 0.89933 0.62549 0.79347 0.0
C308 C 0.74829 0.44022 0.55012 0.0
O309 O 0.73822 0.44617 0.53809 0.0
Cd310 Cd 0.7079 0.43384 0.52822 0.0
O311 O 0.74236 0.42671 0.55808 0.0
Cd312 Cd 0.71375 0.40547 0.55835 0.0
C313 C 0.71355 0.39176 0.50875 0.0
O314 O 0.7 0.43134 0.55982 0.0
O315 O 0.68125 0.40714 0.55939 0.0
O316 O 0.7273 0.40567 0.59201 0.0
C317 C 0.68433 0.42418 0.56086 0.0
O318 O 0.70966 0.4068 0.5062 0.0
C319 C 0.72282 0.38891 0.59217 0.0
O320 O 0.71581 0.38783 0.5259 0.0
O321 O 0.71374 0.37965 0.57669 0.0
C322 C 0.63662 0.54569 0.35122 0.0
O323 O 0.62992 0.55472 0.33949 0.0
Cd324 Cd 0.63653 0.55878 0.30772 0.0
O325 O 0.64914 0.53771 0.34634 0.0
Cd326 Cd 0.6667 0.53532 0.31451 0.0
C327 C 0.67918 0.58363 0.31394 0.0
O328 O 0.63921 0.5308 0.29004 0.0
O329 O 0.6632 0.53728 0.27833 0.0
O330 O 0.66772 0.50139 0.31365 0.0
C331 C 0.64651 0.53319 0.2751 0.0
O332 O 0.66261 0.58228 0.30974 0.0
C333 C 0.68418 0.50203 0.31413 0.0
O334 O 0.68516 0.56954 0.31767 0.0
O335 O 0.69308 0.51795 0.31536 0.0
Nd336 Nd 0.03791 0.07209 0.05753 0.0
Nd337 Nd 0.01379 0.03445 0.04752 0.0
C338 C 0.05063 0.10666 0.06998 0.0
C339 C 0.0521 0.12219 0.05918 0.0
C340 C 0.04561 0.13746 0.06596 0.0
C341 C 0.04484 0.15121 0.05467 0.0
C342 C 0.05046 0.14996 0.03623 0.0
C343 C 0.05741 0.13486 0.02974 0.0
C344 C 0.0582 0.12117 0.04103 0.0
C345 C 0.04302 0.05801 0.02012 0.0
C346 C 0.99726 0.06815 0.03523 0.0
C347 C 1.00109 1.00005 0.03433 0.0
C348 C 0.99985 0.98424 0.04467 0.0
C349 C 0.00774 0.96985 0.03824 0.0
C350 C 0.00877 0.95597 0.04925 0.0
C351 C 1.00191 0.95612 0.06698 0.0
C352 C 0.99358 0.9703 0.07311 0.0
C353 C 0.99261 0.98419 0.06214 0.0
C354 C 0.00859 0.04777 0.08501 0.0
C355 C 0.05452 0.03835 0.06953 0.0
O356 O 0.03454 0.09887 0.07132 0.0
O357 O 0.0607 0.09503 0.06626 0.0
O358 O 0.05046 0.07373 0.02939 0.0
O359 O 0.03262 0.05026 0.03062 0.0
O360 O 0.01211 0.07853 0.04414 0.0
O361 O 0.99491 0.05039 0.03285 0.0
O362 O 0.0171 0.00799 0.03288 0.0
O363 O 0.99101 0.01155 0.03857 0.0
O364 O 1.00189 0.03193 0.07555 0.0
O365 O 0.01905 0.05628 0.07496 0.0
O366 O 0.03975 0.02799 0.06035 0.0
O367 O 0.05671 0.05612 0.07237 0.0
H368 H 0.04063 0.13851 0.07978 0.0
H369 H 0.03926 0.16252 0.06011 0.0
H370 H 0.06214 0.13353 0.0158 0.0
H371 H 0.06323 0.10958 0.03528 0.0
H372 H 0.01355 0.9696 0.02492 0.0
H373 H 0.01508 0.94517 0.04393 0.0
H374 H 0.98834 0.97103 0.08677 0.0
H375 H 0.98663 0.99516 0.06768 0.0
Nd376 Nd 0.27764 0.82574 0.3132 0.0
Nd377 Nd 0.27567 0.78504 0.29134 0.0
C378 C 0.27056 0.85733 0.32557 0.0
C379 C 0.27739 0.87545 0.32131 0.0
C380 C 0.27982 0.87802 0.30226 0.0
C381 C 0.28804 0.89472 0.2985 0.0
C382 C 0.29414 0.90921 0.31372 0.0
C383 C 0.29118 0.90679 0.33271 0.0
C384 C 0.28291 0.89003 0.33646 0.0
C385 C 0.31158 0.81961 0.30997 0.0
C386 C 0.27659 0.81797 0.26537 0.0
C387 C 0.28205 0.75317 0.27854 0.0
C388 C 0.27247 0.73487 0.2792 0.0
C389 C 0.28125 0.72041 0.27866 0.0
C390 C 0.2723 0.70329 0.2807 0.0
C391 C 0.25442 0.70042 0.28335 0.0
C392 C 0.24575 0.71501 0.28383 0.0
C393 C 0.25467 0.73201 0.28179 0.0
C394 C 0.24171 0.79107 0.29477 0.0
C395 C 0.27826 0.7934 0.33941 0.0
O396 O 0.26078 0.84591 0.31113 0.0
O397 O 0.28189 0.85011 0.33559 0.0
O398 O 0.30811 0.83479 0.31741 0.0
O399 O 0.29703 0.80893 0.30371 0.0
O400 O 0.27506 0.82902 0.281 0.0
O401 O 0.27895 0.80129 0.26597 0.0
O402 O 0.28931 0.76252 0.29545 0.0
O403 O 0.27403 0.76254 0.26737 0.0
O404 O 0.2452 0.77598 0.28721 0.0
O405 O 0.25626 0.80178 0.30086 0.0
O406 O 0.28001 0.78254 0.32373 0.0
O407 O 0.27499 0.80974 0.33875 0.0
H408 H 0.27573 0.86702 0.29028 0.0
H409 H 0.28986 0.89619 0.28368 0.0
H410 H 0.29587 0.91764 0.34478 0.0
H411 H 0.28128 0.88831 0.35128 0.0
H412 H 0.29505 0.72239 0.27687 0.0
H413 H 0.27934 0.69232 0.28015 0.0
H414 H 0.23212 0.71342 0.28625 0.0
H415 H 0.24768 0.74298 0.28255 0.0
Nd416 Nd 0.54551 0.06326 0.54524 0.0
Nd417 Nd 0.51028 0.04426 0.55569 0.0
C418 C 0.57102 0.07717 0.52707 0.0
C419 C 0.58832 0.07216 0.52588 0.0
C420 C 0.58944 0.05413 0.52026 0.0
C421 C 0.60543 0.04858 0.52392 0.0
C422 C 0.62054 0.06091 0.53339 0.0
C423 C 0.61972 0.07919 0.53756 0.0
C424 C 0.60374 0.08477 0.53378 0.0
C425 C 0.55299 0.04674 0.57738 0.0
C426 C 0.53195 0.01985 0.53166 0.0
C427 C 0.48182 0.03243 0.57085 0.0
C428 C 0.46493 0.03856 0.57052 0.0
C429 C 0.46434 0.05645 0.57779 0.0
C430 C 0.44902 0.06311 0.57366 0.0
C431 C 0.43415 0.05205 0.56204 0.0
C432 C 0.43438 0.03389 0.5559 0.0
C433 C 0.4496 0.02718 0.5602 0.0
C434 C 0.50781 0.05665 0.52041 0.0
C435 C 0.52465 0.08779 0.57227 0.0
O436 O 0.55713 0.06538 0.51806 0.0
O437 O 0.56888 0.08427 0.54448 0.0
O438 O 0.56485 0.0561 0.56937 0.0
O439 O 0.53806 0.04663 0.56841 0.0
O440 O 0.53967 0.03506 0.52661 0.0
O441 O 0.52228 0.01997 0.54593 0.0
O442 O 0.49574 0.04325 0.58105 0.0
O443 O 0.48494 0.02524 0.55395 0.0
O444 O 0.49875 0.04163 0.52348 0.0
O445 O 0.5172 0.06496 0.53593 0.0
O446 O 0.51314 0.07289 0.57271 0.0
O447 O 0.53764 0.08788 0.5617 0.0
H448 H 0.57778 0.04403 0.51425 0.0
H449 H 0.60562 0.03439 0.52064 0.0
H450 H 0.63124 0.08902 0.54464 0.0
H451 H 0.60319 0.09873 0.53825 0.0
H452 H 0.47595 0.06557 0.58579 0.0
H453 H 0.44913 0.07716 0.57857 0.0
H454 H 0.42295 0.02504 0.54715 0.0
H455 H 0.44971 0.01334 0.5545 0.0
Nd456 Nd 0.28518 0.30618 0.82098 0.0
Nd457 Nd 0.26961 0.30446 0.78454 0.0
C458 C 0.29373 0.30387 0.85813 0.0
C459 C 0.2874 0.30964 0.87637 0.0
C460 C 0.26934 0.30854 0.87722 0.0
C461 C 0.2637 0.31635 0.8939 0.0
C462 C 0.27604 0.32534 0.90996 0.0
C463 C 0.29406 0.32557 0.90938 0.0
C464 C 0.29967 0.31779 0.8927 0.0
C465 C 0.29479 0.33949 0.8084 0.0
C466 C 0.24442 0.31327 0.81518 0.0
C467 C 0.26134 0.30729 0.74751 0.0
C468 C 0.26637 0.30019 0.72907 0.0
C469 C 0.25977 0.30563 0.71191 0.0
C470 C 0.26337 0.29783 0.69406 0.0
C471 C 0.27358 0.28445 0.69321 0.0
C472 C 0.28083 0.27966 0.7106 0.0
C473 C 0.27723 0.28748 0.72843 0.0
C474 C 0.26022 0.27097 0.79681 0.0
C475 C 0.31023 0.29711 0.79022 0.0
O476 O 0.28313 0.29114 0.84579 0.0
O477 O 0.30134 0.31677 0.84974 0.0
O478 O 0.30557 0.33077 0.81657 0.0
O479 O 0.27915 0.33025 0.80631 0.0
O480 O 0.25646 0.30798 0.82664 0.0
O481 O 0.24761 0.31585 0.79769 0.0
O482 O 0.27366 0.31868 0.75939 0.0
O483 O 0.25238 0.2955 0.75626 0.0
O484 O 0.24943 0.27948 0.78832 0.0
O485 O 0.27579 0.2804 0.79912 0.0
O486 O 0.29819 0.30239 0.77877 0.0
O487 O 0.30718 0.29475 0.8078 0.0
H488 H 0.25963 0.30215 0.86482 0.0
H489 H 0.24973 0.3158 0.89402 0.0
H490 H 0.30391 0.33261 0.92141 0.0
H491 H 0.31366 0.31879 0.89226 0.0
H492 H 0.25148 0.31556 0.71227 0.0
H493 H 0.25781 0.30193 0.68089 0.0
H494 H 0.28856 0.26924 0.7104 0.0
H495 H 0.28245 0.28321 0.74164 0.0
Nd496 Nd 0.0204 0.07429 0.56637 0.0
Nd497 Nd 0.03087 0.03639 0.54586 0.0
C498 C 1.00463 0.09926 0.58138 0.0
C499 C 1.0046 0.11756 0.57693 0.0
C500 C 0.98894 0.12183 0.56851 0.0
C501 C 0.98938 0.13773 0.56063 0.0
C502 C 1.00549 0.14959 0.56106 0.0
C503 C 0.02093 0.14588 0.57069 0.0
C504 C 0.02051 0.13003 0.57849 0.0
C505 C 0.05018 0.08012 0.54814 0.0
C506 C 0.00729 0.05901 0.51909 0.0
C507 C 0.04584 0.01118 0.52976 0.0
C508 C 0.04386 0.99227 0.53253 0.0
C509 C 0.05835 0.98371 0.53314 0.0
C510 C 0.05682 0.96658 0.53858 0.0
C511 C 0.04088 0.95809 0.54375 0.0
C512 C 0.0263 0.96643 0.54241 0.0
C513 C 0.02775 0.9833 0.53681 0.0
C514 C 1.0012 0.03044 0.56441 0.0
C515 C 0.045 0.05242 0.59266 0.0
O516 O 0.99662 0.08619 0.56743 0.0
O517 O 0.01959 0.09638 0.5898 0.0
O518 O 0.04429 0.09319 0.55732 0.0
O519 O 0.04031 0.06572 0.54946 0.0
O520 O 1.00485 0.06913 0.53513 0.0
O521 O 0.018 0.04729 0.51947 0.0
O522 O 0.05371 0.0229 0.54503 0.0
O523 O 0.03178 0.01564 0.52109 0.0
O524 O 0.00742 0.01744 0.55565 0.0
O525 O 0.01075 0.04491 0.56266 0.0
O526 O 0.04782 0.04292 0.57639 0.0
O527 O 0.03342 0.06329 0.59267 0.0
H528 H 0.97652 0.11242 0.56711 0.0
H529 H 0.97728 0.14026 0.55329 0.0
H530 H 0.03348 0.15497 0.57162 0.0
H531 H 0.03283 0.12722 0.58491 0.0
H532 H 0.07092 0.9905 0.53004 0.0
H533 H 0.06822 0.96032 0.53954 0.0
H534 H 0.01382 0.96 0.54611 0.0
H535 H 0.01637 0.98956 0.53645 0.0
Nd536 Nd 0.29648 0.81587 0.81182 0.0
Nd537 Nd 0.26208 0.79418 0.79862 0.0
C538 C 0.32754 0.83758 0.81567 0.0
C539 C 0.34554 0.83491 0.81467 0.0
C540 C 0.34874 0.81759 0.80944 0.0
C541 C 0.36595 0.8146 0.8117 0.0
C542 C 0.38015 0.8289 0.81915 0.0
C543 C 0.37689 0.84639 0.8233 0.0
C544 C 0.35968 0.84935 0.82112 0.0
C545 C 0.27746 0.81079 0.84227 0.0
C546 C 0.2952 0.77231 0.80743 0.0
C547 C 0.23125 0.77212 0.79502 0.0
C548 C 0.213 0.77442 0.79374 0.0
C549 C 0.19937 0.75946 0.7874 0.0
C550 C 0.18228 0.76185 0.7819 0.0
C551 C 0.17872 0.77926 0.7825 0.0
C552 C 0.19221 0.79416 0.79033 0.0
C553 C 0.20926 0.79174 0.7959 0.0
C554 C 0.28051 0.80001 0.76807 0.0
C555 C 0.26327 0.83767 0.80219 0.0
O556 O 0.31665 0.83349 0.79935 0.0
O557 O 0.32057 0.83172 0.83026 0.0
O558 O 0.29388 0.80948 0.84281 0.0
O559 O 0.27172 0.81419 0.8259 0.0
O560 O 0.30572 0.78825 0.80894 0.0
O561 O 0.27789 0.77153 0.80557 0.0
O562 O 0.24122 0.77814 0.81176 0.0
O563 O 0.23901 0.7764 0.78027 0.0
O564 O 0.26404 0.80107 0.76794 0.0
O565 O 0.2867 0.7963 0.78417 0.0
O566 O 0.25273 0.8217 0.80054 0.0
O567 O 0.28063 0.83854 0.80466 0.0
H568 H 0.33791 0.80629 0.80441 0.0
H569 H 0.36809 0.80102 0.80824 0.0
H570 H 0.38754 0.85765 0.82931 0.0
H571 H 0.35737 0.86276 0.82534 0.0
H572 H 0.20211 0.74601 0.78565 0.0
H573 H 0.17205 0.75013 0.77622 0.0
H574 H 0.18991 0.80773 0.79084 0.0
H575 H 0.21972 0.80343 0.80074 0.0
Nd576 Nd 0.50799 0.04934 0.03923 0.0
Nd577 Nd 0.54508 0.05458 0.06123 0.0
C578 C 0.47528 0.0507 0.0258 0.0
C579 C 0.45779 0.04238 0.03011 0.0
C580 C 0.44835 0.05252 0.04163 0.0
C581 C 0.43227 0.04445 0.04664 0.0
C582 C 0.42525 0.02611 0.0401 0.0
C583 C 0.43456 0.01606 0.02833 0.0
C584 C 0.45061 0.02409 0.02336 0.0
C585 C 0.51689 0.01843 0.04963 0.0
C586 C 0.5147 0.06058 0.08695 0.0
C587 C 0.5777 0.05278 0.0745 0.0
C588 C 0.59463 0.06085 0.06909 0.0
C589 C 0.60986 0.05427 0.07423 0.0
C590 C 0.626 0.06233 0.0693 0.0
C591 C 0.62707 0.07714 0.05925 0.0
C592 C 0.61167 0.08345 0.05385 0.0
C593 C 0.59558 0.07533 0.05865 0.0
C594 C 0.53622 0.08551 0.05071 0.0
C595 C 0.53841 0.0439 0.01342 0.0
O596 O 0.48513 0.06288 0.03948 0.0
O597 O 0.48427 0.03991 0.01723 0.0
O598 O 0.50668 0.01888 0.03387 0.0
O599 O 0.5208 0.03363 0.06007 0.0
O600 O 0.50537 0.06171 0.07035 0.0
O601 O 0.52969 0.0548 0.08724 0.0
O602 O 0.56754 0.04041 0.06129 0.0
O603 O 0.56914 0.06419 0.08272 0.0
O604 O 0.54664 0.08516 0.06636 0.0
O605 O 0.53227 0.07024 0.04044 0.0
O606 O 0.54765 0.04235 0.02993 0.0
O607 O 0.52357 0.04994 0.01339 0.0
H608 H 0.4535 0.06667 0.04693 0.0
H609 H 0.42528 0.05261 0.05551 0.0
H610 H 0.42959 1.00186 0.02322 0.0
H611 H 0.45749 0.01584 0.01445 0.0
H612 H 0.6093 0.04303 0.08219 0.0
H613 H 0.63768 0.05726 0.07371 0.0
H614 H 0.61204 0.09464 0.04585 0.0
H615 H 0.58388 0.08043 0.05434 0.0
Nd616 Nd 0.2619 0.29193 0.28611 0.0
Nd617 Nd 0.29256 0.31733 0.31756 0.0
C618 C 0.23759 0.27447 0.25774 0.0
C619 C 0.21847 0.27394 0.25767 0.0
C620 C 0.21146 0.28911 0.25418 0.0
C621 C 0.19657 0.29246 0.26216 0.0
C622 C 0.18839 0.28068 0.27367 0.0
C623 C 0.19368 0.26415 0.27439 0.0
C624 C 0.20852 0.26075 0.26631 0.0
C625 C 0.2596 0.28903 0.32459 0.0
C626 C 0.25493 0.32989 0.30772 0.0
C627 C 0.31728 0.33095 0.34711 0.0
C628 C 0.33638 0.33357 0.34594 0.0
C629 C 0.34621 0.3219 0.35384 0.0
C630 C 0.36147 0.31878 0.34643 0.0
C631 C 0.36711 0.32727 0.331 0.0
C632 C 0.35864 0.3408 0.32513 0.0
C633 C 0.34349 0.34398 0.33259 0.0
C634 C 0.29533 0.32558 0.28071 0.0
C635 C 0.30063 0.28017 0.29359 0.0
O636 O 0.24722 0.29017 0.25668 0.0
O637 O 0.2449 0.26637 0.27093 0.0
O638 O 0.24601 0.28744 0.31144 0.0
O639 O 0.27342 0.2914 0.31686 0.0
O640 O 0.2517 0.31804 0.29156 0.0
O641 O 0.26828 0.33035 0.32153 0.0
O642 O 0.30914 0.31409 0.34419 0.0
O643 O 0.30844 0.34102 0.33778 0.0
O644 O 0.30641 0.33361 0.29586 0.0
O645 O 0.28428 0.31378 0.28577 0.0
O646 O 0.30615 0.29425 0.3075 0.0
O647 O 0.2849 0.27701 0.28278 0.0
H648 H 0.21851 0.29937 0.24713 0.0
H649 H 0.19243 0.30506 0.26081 0.0
H650 H 0.18759 0.25465 0.28297 0.0
H651 H 0.21334 0.24873 0.26889 0.0
H652 H 0.34112 0.31382 0.36427 0.0
H653 H 0.368 0.30866 0.3517 0.0
H654 H 0.36254 0.34768 0.31332 0.0
H655 H 0.33639 0.35323 0.32629 0.0
Nd656 Nd 0.52187 0.57368 0.06408 0.0
Nd657 Nd 0.53095 0.53477 0.04431 0.0
C658 C 0.50638 0.5994 0.078 0.0
C659 C 0.50443 0.61613 0.07072 0.0
C660 C 0.49997 0.63034 0.08259 0.0
C661 C 0.49948 0.64667 0.07583 0.0
C662 C 0.50341 0.64894 0.0571 0.0
C663 C 0.50743 0.63444 0.04515 0.0
C664 C 0.50799 0.61823 0.05192 0.0
C665 C 0.55131 0.57803 0.04522 0.0
C666 C 0.50789 0.55763 0.01706 0.0
C667 C 0.54589 0.50947 0.02826 0.0
C668 C 0.54635 0.49087 0.03163 0.0
C669 C 0.55901 0.48748 0.0459 0.0
C670 C 0.55767 0.47038 0.0512 0.0
C671 C 0.54367 0.45632 0.04231 0.0
C672 C 0.53179 0.45942 0.02707 0.0
C673 C 0.53316 0.47648 0.02174 0.0
C674 C 0.50164 0.53002 0.06333 0.0
C675 C 0.54535 0.5512 0.09122 0.0
O676 O 0.49778 0.58466 0.06669 0.0
O677 O 0.52259 0.59849 0.08464 0.0
O678 O 0.54599 0.59149 0.05438 0.0
O679 O 0.54099 0.56393 0.04671 0.0
O680 O 0.5068 0.56905 0.03271 0.0
O681 O 0.51726 0.54474 0.01772 0.0
O682 O 0.5544 0.5225 0.04204 0.0
O683 O 0.53054 0.5123 0.02092 0.0
O684 O 0.50754 0.51663 0.05481 0.0
O685 O 0.51139 0.54435 0.06127 0.0
O686 O 0.54682 0.54018 0.07537 0.0
O687 O 0.5354 0.56366 0.09081 0.0
H688 H 0.49723 0.62892 0.09716 0.0
H689 H 0.49627 0.6576 0.08533 0.0
H690 H 0.51087 0.63583 0.03082 0.0
H691 H 0.51165 0.60744 0.04262 0.0
H692 H 0.56954 0.49819 0.05356 0.0
H693 H 0.56725 0.46831 0.06271 0.0
H694 H 0.52079 0.44895 0.01998 0.0
H695 H 0.52335 0.47855 0.01047 0.0
Nd696 Nd 0.79438 0.31446 0.30968 0.0
Nd697 Nd 0.76035 0.29232 0.29694 0.0
C698 C 0.82468 0.33748 0.31355 0.0
C699 C 0.84342 0.3369 0.31568 0.0
C700 C 0.85572 0.35252 0.3152 0.0
C701 C 0.87361 0.35321 0.32082 0.0
C702 C 0.87938 0.3383 0.32716 0.0
C703 C 0.86706 0.32222 0.32625 0.0
C704 C 0.84918 0.32153 0.32052 0.0
C705 C 0.77606 0.30888 0.34048 0.0
C706 C 0.79412 0.27119 0.30613 0.0
C707 C 0.72985 0.26982 0.29359 0.0
C708 C 0.7116 0.27198 0.29327 0.0
C709 C 0.70779 0.28872 0.30007 0.0
C710 C 0.69082 0.29191 0.29572 0.0
C711 C 0.67752 0.27843 0.28437 0.0
C712 C 0.6812 0.26131 0.27879 0.0
C713 C 0.69813 0.25813 0.28322 0.0
C714 C 0.77841 0.29803 0.26605 0.0
C715 C 0.76071 0.33554 0.30017 0.0
O716 O 0.81533 0.3306 0.29665 0.0
O717 O 0.81673 0.33315 0.32814 0.0
O718 O 0.7925 0.30772 0.34056 0.0
O719 O 0.76984 0.3123 0.32428 0.0
O720 O 0.80446 0.28729 0.30787 0.0
O721 O 0.77675 0.27008 0.30381 0.0
O722 O 0.74028 0.27528 0.31013 0.0
O723 O 0.73705 0.27476 0.27875 0.0
O724 O 0.76194 0.29897 0.26608 0.0
O725 O 0.78481 0.2946 0.2822 0.0
O726 O 0.75041 0.31955 0.29924 0.0
O727 O 0.77805 0.33651 0.30185 0.0
H728 H 0.85142 0.36446 0.3114 0.0
H729 H 0.88284 0.36566 0.32102 0.0
H730 H 0.87106 0.31055 0.33116 0.0
H731 H 0.83977 0.30935 0.32093 0.0
H732 H 0.71814 0.29961 0.30778 0.0
H733 H 0.68833 0.30514 0.30044 0.0
H734 H 0.67136 0.2507 0.26981 0.0
H735 H 0.70096 0.24521 0.27771 0.0
Nd736 Nd 1.00531 0.5448 0.53899 0.0
Nd737 Nd 0.04364 0.55598 0.55921 0.0
C738 C 0.97162 0.54157 0.52508 0.0
C739 C 0.95487 0.53858 0.53286 0.0
C740 C 0.95458 0.53674 0.55243 0.0
C741 C 0.93859 0.53181 0.55932 0.0
C742 C 0.92261 0.52839 0.54664 0.0
C743 C 0.92298 0.53078 0.52711 0.0
C744 C 0.939 0.53586 0.5203 0.0
C745 C 0.02051 0.51674 0.54761 0.0
C746 C 0.01207 0.55809 0.5863 0.0
C747 C 0.07575 0.56115 0.57837 0.0
C748 C 0.09365 0.56807 0.57427 0.0
C749 C 0.10027 0.56001 0.55824 0.0
C750 C 0.11689 0.5673 0.55402 0.0
C751 C 0.12721 0.5829 0.56562 0.0
C752 C 0.12062 0.5908 0.58179 0.0
C753 C 0.10405 0.58341 0.5861 0.0
C754 C 0.03187 0.58114 0.53908 0.0
C755 C 0.03634 0.54186 0.51296 0.0
O756 O 0.98224 0.55708 0.53117 0.0
O757 O 0.97979 0.52813 0.52465 0.0
O758 O 0.00966 0.51613 0.53199 0.0
O759 O 0.02255 0.53163 0.55861 0.0
O760 O 1.00043 0.55147 0.57059 0.0
O761 O 0.02924 0.5607 0.58576 0.0
O762 O 0.06745 0.54563 0.5684 0.0
O763 O 0.06557 0.57292 0.58042 0.0
O764 O 0.048 0.57881 0.54064 0.0
O765 O 0.02332 0.5714 0.5492 0.0
O766 O 0.04625 0.54116 0.52935 0.0
O767 O 0.02089 0.54674 0.51309 0.0
H768 H 0.96674 0.5385 0.56223 0.0
H769 H 0.93878 0.53032 0.57448 0.0
H770 H 0.91095 0.52798 0.51686 0.0
H771 H 0.93903 0.53703 0.50507 0.0
H772 H 0.09256 0.54816 0.5488 0.0
H773 H 0.12166 0.56069 0.54166 0.0
H774 H 0.12807 0.60296 0.59088 0.0
H775 H 0.0992 0.58989 0.59849 0.0
Nd776 Nd 0.78437 0.80448 0.31905 0.0
Nd777 Nd 0.76903 0.80338 0.28347 0.0
C778 C 0.79211 0.80262 0.35638 0.0
C779 C 0.78773 0.81218 0.37407 0.0
C780 C 0.78579 0.80359 0.39033 0.0
C781 C 0.78112 0.81255 0.40703 0.0
C782 C 0.77838 0.83027 0.40766 0.0
C783 C 0.78012 0.83868 0.39114 0.0
C784 C 0.78462 0.82967 0.37445 0.0
C785 C 0.79384 0.83845 0.30758 0.0
C786 C 0.74393 0.81181 0.31381 0.0
C787 C 0.76138 0.80569 0.24622 0.0
C788 C 0.76618 0.79657 0.22857 0.0
C789 C 0.7631 0.8028 0.21087 0.0
C790 C 0.76727 0.79367 0.19396 0.0
C791 C 0.77452 0.77817 0.19459 0.0
C792 C 0.77808 0.77239 0.21259 0.0
C793 C 0.77401 0.78157 0.22944 0.0
C794 C 0.75959 0.7694 0.29485 0.0
C795 C 0.80932 0.79536 0.28883 0.0
O796 O 0.7788 0.79206 0.34507 0.0
O797 O 0.8026 0.81218 0.34678 0.0
O798 O 0.80461 0.82955 0.31539 0.0
O799 O 0.77825 0.82914 0.30532 0.0
O800 O 0.75541 0.80502 0.32434 0.0
O801 O 0.74768 0.81588 0.29698 0.0
O802 O 0.7744 0.81641 0.2578 0.0
O803 O 0.75111 0.79554 0.25551 0.0
O804 O 0.7488 0.77821 0.28686 0.0
O805 O 0.77516 0.77876 0.2972 0.0
O806 O 0.79786 0.80197 0.27803 0.0
O807 O 0.80558 0.79173 0.30581 0.0
H808 H 0.78786 0.78995 0.39008 0.0
H809 H 0.77967 0.80563 0.41942 0.0
H810 H 0.77844 0.85241 0.39121 0.0
H811 H 0.78579 0.83642 0.36189 0.0
H812 H 0.75727 0.81454 0.21008 0.0
H813 H 0.7646 0.7986 0.18036 0.0
H814 H 0.78338 0.76037 0.2136 0.0
H815 H 0.77661 0.77672 0.24311 0.0
Nd816 Nd 0.77654 0.32526 0.81389 0.0
Nd817 Nd 0.7759 0.28497 0.79147 0.0
C818 C 0.76841 0.35634 0.82626 0.0
C819 C 0.77473 0.37463 0.82209 0.0
C820 C 0.77573 0.37766 0.80287 0.0
C821 C 0.78365 0.39446 0.79908 0.0
C822 C 0.79082 0.4086 0.81441 0.0
C823 C 0.78919 0.40577 0.8336 0.0
C824 C 0.78123 0.38892 0.83739 0.0
C825 C 0.81089 0.32017 0.81119 0.0
C826 C 0.77615 0.31816 0.76604 0.0
C827 C 0.78357 0.25369 0.77882 0.0
C828 C 0.77506 0.23522 0.78031 0.0
C829 C 0.78467 0.22141 0.77968 0.0
C830 C 0.77683 0.20418 0.78264 0.0
C831 C 0.75927 0.20058 0.78639 0.0
C832 C 0.74969 0.21447 0.78673 0.0
C833 C 0.75752 0.23159 0.78381 0.0
C834 C 0.74154 0.29 0.79451 0.0
C835 C 0.77776 0.29258 0.83955 0.0
O836 O 0.75894 0.34474 0.81178 0.0
O837 O 0.78 0.34948 0.83634 0.0
O838 O 0.80692 0.335 0.81896 0.0
O839 O 0.79656 0.30931 0.80439 0.0
O840 O 0.77419 0.32888 0.78175 0.0
O841 O 0.77902 0.30163 0.76646 0.0
O842 O 0.79113 0.2636 0.79534 0.0
O843 O 0.77446 0.2623 0.76776 0.0
O844 O 0.74543 0.27516 0.78677 0.0
O845 O 0.7559 0.30089 0.80097 0.0
O846 O 0.77978 0.28203 0.82375 0.0
O847 O 0.77412 0.30881 0.83913 0.0
H848 H 0.77083 0.36693 0.79074 0.0
H849 H 0.78443 0.39627 0.78413 0.0
H850 H 0.79472 0.41634 0.84574 0.0
H851 H 0.78069 0.38687 0.85232 0.0
H852 H 0.79831 0.22401 0.77724 0.0
H853 H 0.78462 0.19382 0.78242 0.0
H854 H 0.73606 0.21211 0.78921 0.0
H855 H 0.74988 0.24206 0.78451 0.0
Nd856 Nd 0.76156 0.79076 0.78753 0.0
Nd857 Nd 0.79226 0.81523 0.82001 0.0
C858 C 0.73724 0.7756 0.75825 0.0
C859 C 0.7186 0.7776 0.75733 0.0
C860 C 0.71407 0.79406 0.7541 0.0
C861 C 0.69949 0.79928 0.7613 0.0
C862 C 0.68915 0.78811 0.77177 0.0
C863 C 0.69209 0.77057 0.77226 0.0
C864 C 0.70661 0.76532 0.76497 0.0
C865 C 0.75827 0.78746 0.82573 0.0
C866 C 0.75558 0.82905 0.80984 0.0
C867 C 0.81774 0.82722 0.84909 0.0
C868 C 0.8365 0.82742 0.847 0.0
C869 C 0.84363 0.81226 0.85025 0.0
C870 C 0.85713 0.80786 0.84023 0.0
C871 C 0.86391 0.81877 0.82724 0.0
C872 C 0.85878 0.83527 0.82632 0.0
C873 C 0.84526 0.83968 0.83629 0.0
C874 C 0.79572 0.82393 0.7834 0.0
C875 C 0.79933 0.7775 0.7957 0.0
O876 O 0.74873 0.79024 0.75751 0.0
O877 O 0.74262 0.76664 0.77173 0.0
O878 O 0.74498 0.78623 0.81229 0.0
O879 O 0.77234 0.78963 0.8184 0.0
O880 O 0.75259 0.81756 0.79341 0.0
O881 O 0.76835 0.8288 0.82406 0.0
O882 O 0.8078 0.81116 0.84698 0.0
O883 O 0.8101 0.83812 0.83969 0.0
O884 O 0.80663 0.83173 0.79875 0.0
O885 O 0.78451 0.81217 0.78824 0.0
O886 O 0.80488 0.79146 0.80975 0.0
O887 O 0.78383 0.77477 0.7845 0.0
H888 H 0.72276 0.80374 0.74784 0.0
H889 H 0.69724 0.81266 0.76012 0.0
H890 H 0.68434 0.76152 0.78008 0.0
H891 H 0.70953 0.75242 0.76737 0.0
H892 H 0.83735 0.80264 0.85859 0.0
H893 H 0.86096 0.79504 0.84107 0.0
H894 H 0.86392 0.84386 0.81634 0.0
H895 H 0.84035 0.85163 0.83369 0.0
Nd896 Nd 0.53731 0.56903 0.55589 0.0
Nd897 Nd 0.51409 0.53636 0.54895 0.0
C898 C 0.55816 0.60131 0.56332 0.0
C899 C 0.55835 0.61693 0.55266 0.0
C900 C 0.55483 0.63316 0.56168 0.0
C901 C 0.5535 0.64739 0.55121 0.0
C902 C 0.55574 0.64578 0.53144 0.0
C903 C 0.55955 0.62961 0.52254 0.0
C904 C 0.56079 0.61539 0.53296 0.0
C905 C 0.53659 0.55326 0.51736 0.0
C906 C 0.49788 0.57064 0.53864 0.0
C907 C 0.49353 0.50395 0.54037 0.0
C908 C 0.49517 0.48722 0.54842 0.0
C909 C 0.51139 0.48158 0.55057 0.0
C910 C 0.5135 0.46729 0.56061 0.0
C911 C 0.49946 0.45824 0.5688 0.0
C912 C 0.48308 0.46355 0.56608 0.0
C913 C 0.48099 0.47789 0.55605 0.0
C914 C 0.51477 0.55196 0.58753 0.0
C915 C 0.55319 0.53495 0.5674 0.0
O916 O 0.54457 0.59702 0.57221 0.0
O917 O 0.56271 0.58714 0.5545 0.0
O918 O 0.53388 0.56923 0.52275 0.0
O919 O 0.53704 0.54516 0.53206 0.0
O920 O 0.51239 0.57978 0.54934 0.0
O921 O 0.49609 0.55309 0.53354 0.0
O922 O 0.50528 0.50989 0.52968 0.0
O923 O 0.49024 0.51688 0.55256 0.0
O924 O 0.51727 0.53592 0.582 0.0
O925 O 0.51446 0.5602 0.57291 0.0
O926 O 0.53893 0.52565 0.55634 0.0
O927 O 0.5549 0.55252 0.57223 0.0
H928 H 0.55281 0.63474 0.57679 0.0
H929 H 0.55075 0.65968 0.55863 0.0
H930 H 0.5611 0.62772 0.50731 0.0
H931 H 0.56331 0.60305 0.52539 0.0
H932 H 0.52261 0.48849 0.54492 0.0
H933 H 0.52623 0.46344 0.5621 0.0
H934 H 0.47201 0.45708 0.57232 0.0
H935 H 0.46841 0.48207 0.55481 0.0
Nd936 Nd 0.04461 0.56358 0.04405 0.0
Nd937 Nd 0.00792 0.54416 0.05852 0.0
C938 C 0.06941 0.57721 0.02491 0.0
C939 C 0.08677 0.57229 0.02371 0.0
C940 C 0.08795 0.55448 0.01686 0.0
C941 C 0.10379 0.54865 0.02052 0.0
C942 C 0.11873 0.56047 0.03119 0.0
C943 C 0.11794 0.57862 0.03655 0.0
C944 C 0.10211 0.58449 0.03278 0.0
C945 C 0.05146 0.54757 0.07682 0.0
C946 C 0.02856 0.51993 0.03027 0.0
C947 C 0.98294 0.53139 0.07786 0.0
C948 C 0.96616 0.53748 0.07958 0.0
C949 C 0.96619 0.5556 0.08652 0.0
C950 C 0.95086 0.56245 0.08353 0.0
C951 C 0.93521 0.55139 0.07346 0.0
C952 C 0.93485 0.53297 0.06793 0.0
C953 C 0.95019 0.52608 0.07101 0.0
C954 C 1.00139 0.56024 0.02569 0.0
C955 C 0.02393 0.58768 0.07237 0.0
O956 O 0.05552 0.56512 0.01639 0.0
O957 O 0.0674 0.58486 0.04219 0.0
O958 O 0.06365 0.55624 0.06853 0.0
O959 O 0.03683 0.54795 0.06747 0.0
O960 O 0.03845 0.53486 0.02672 0.0
O961 O 0.01759 0.5199 0.04342 0.0
O962 O 0.99737 0.54266 0.08637 0.0
O963 O 0.98437 0.52374 0.06037 0.0
O964 O 0.98905 0.55138 0.03361 0.0
O965 O 0.01582 0.55993 0.03541 0.0
O966 O 0.01428 0.57271 0.07607 0.0
O967 O 0.03466 0.58776 0.05898 0.0
H968 H 0.07639 0.54468 0.00984 0.0
H969 H 0.10397 0.53457 0.01626 0.0
H970 H 0.12935 0.58809 0.04453 0.0
H971 H 0.10158 0.59828 0.03816 0.0
H972 H 0.97826 0.5648 0.09323 0.0
H973 H 0.95147 0.57661 0.08836 0.0
H974 H 0.92304 0.52408 0.06005 0.0
H975 H 0.94983 0.51211 0.06546 0.0
H976 H 0.02794 0.2488 0.90193 0.0
H977 H 0.02961 0.22583 0.92297 0.0
H978 H 0.04578 0.26732 0.97303 0.0
H979 H 0.04393 0.29028 0.9522 0.0
H980 H 0.05841 0.22064 0.9469 0.0
H981 H 1.00618 0.23401 0.99089 0.0
H982 H 0.00876 0.24285 0.96855 0.0
H983 H 0.0228 0.25354 0.99075 0.0
C984 C 0.0317 0.25303 0.91744 0.0
C985 C 0.0357 0.27142 0.92535 0.0
C986 C 0.03268 0.23987 0.92946 0.0
C987 C 0.03756 0.24477 0.94968 0.0
C988 C 0.04159 0.26312 0.95758 0.0
H989 H 0.05627 0.18675 0.04684 0.0
H990 H 0.05324 0.20949 0.02585 0.0
C991 C 0.04062 0.27627 0.94559 0.0
C992 C 0.03909 0.23077 0.9624 0.0
H993 H 0.0243 0.21449 1.00195 0.0
C994 C 0.05085 0.21922 0.95885 0.0
C995 C 0.02933 0.22894 0.9781 0.0
C996 C 0.01593 0.24037 0.98224 0.0
C997 C 0.05337 0.20619 0.97074 0.0
C998 C 0.0436 0.20434 0.98644 0.0
C999 C 0.03183 0.21589 0.98998 0.0
C1000 C 0.0453 0.19043 0.99923 0.0
C1001 C 0.06683 0.19482 0.96664 0.0
C1002 C 0.04158 0.17208 0.9914 0.0
C1003 C 0.04328 0.15904 0.00337 0.0
C1004 C 0.04863 0.16399 0.02355 0.0
C1005 C 0.05204 0.18239 0.03142 0.0
C1006 C 0.05037 0.19544 0.01941 0.0
H1007 H 0.07653 0.20118 0.95793 0.0
H1008 H 0.07407 0.19245 0.98035 0.0
H1009 H 0.06002 0.1816 0.95821 0.0
H1010 H 0.03717 0.16778 0.97599 0.0
H1011 H 0.04012 0.14502 0.99681 0.0
H1012 H 0.07447 0.80713 0.27375 0.0
H1013 H 0.1056 0.80972 0.28709 0.0
H1014 H 0.11727 0.79354 0.22956 0.0
H1015 H 0.08654 0.79138 0.21622 0.0
H1016 H 0.12652 0.78587 0.28831 0.0
H1017 H 0.15598 0.83662 0.2463 0.0
H1018 H 0.13259 0.83134 0.2471 0.0
H1019 H 0.14252 0.81753 0.23051 0.0
C1020 C 0.0837 0.8043 0.26392 0.0
C1021 C 0.07786 0.79919 0.24383 0.0
C1022 C 0.10157 0.80576 0.27158 0.0
C1023 C 0.11413 0.80224 0.25937 0.0
C1024 C 0.10819 0.79693 0.23936 0.0
H1025 H 0.21147 0.76628 0.28504 0.0
H1026 H 0.18132 0.77059 0.27865 0.0
C1027 C 0.09044 0.79554 0.23172 0.0
C1028 C 0.1332 0.80329 0.26745 0.0
H1029 H 0.1757 0.8196 0.26065 0.0
C1030 C 0.13723 0.79344 0.28236 0.0
C1031 C 0.14745 0.81341 0.26016 0.0
C1032 C 0.14443 0.82547 0.24529 0.0
C1033 C 0.15479 0.79273 0.28941 0.0
C1034 C 0.16897 0.80183 0.28115 0.0
C1035 C 0.16501 0.81239 0.26692 0.0
C1036 C 0.18774 0.79956 0.28612 0.0
C1037 C 0.15793 0.78221 0.30575 0.0
C1038 C 0.20188 0.81439 0.2922 0.0
C1039 C 0.21946 0.81193 0.29587 0.0
C1040 C 0.22331 0.79457 0.29332 0.0
C1041 C 0.20911 0.77985 0.28738 0.0
C1042 C 0.1917 0.78229 0.28379 0.0
H1043 H 0.14713 0.78162 0.31483 0.0
H1044 H 0.1583 0.76821 0.29955 0.0
H1045 H 0.17061 0.78817 0.31524 0.0
H1046 H 0.19934 0.82791 0.29398 0.0
H1047 H 0.23 0.82358 0.30015 0.0
H1048 H 0.53912 0.89189 0.39682 0.0
H1049 H 0.53844 0.91857 0.41994 0.0
H1050 H 0.53727 0.88701 0.46643 0.0
H1051 H 0.53784 0.86015 0.44338 0.0
H1052 H 0.51144 0.92263 0.44544 0.0
H1053 H 0.57899 0.93153 0.48575 0.0
H1054 H 0.5725 0.91858 0.46168 0.0
H1055 H 0.56539 0.90939 0.48234 0.0
C1056 C 0.5388 0.89058 0.41197 0.0
C1057 C 0.53858 0.87381 0.4182 0.0
C1058 C 0.53837 0.90588 0.42517 0.0
C1059 C 0.53794 0.90485 0.44495 0.0
C1060 C 0.53779 0.88818 0.45128 0.0
H1061 H 0.51318 0.98599 0.53259 0.0
H1062 H 0.51457 0.95774 0.51233 0.0
C1063 C 0.53806 0.87281 0.43805 0.0
C1064 C 0.53729 0.92117 0.4588 0.0
H1065 H 0.56126 0.95149 0.49709 0.0
C1066 C 0.52229 0.9289 0.45679 0.0
C1067 C 0.55151 0.92942 0.47351 0.0
C1068 C 0.5681 0.92195 0.47599 0.0
C1069 C 0.52111 0.94458 0.46912 0.0
C1070 C 0.5353 0.95279 0.4839 0.0
C1071 C 0.55034 0.94512 0.48586 0.0
C1072 C 0.53498 0.96973 0.49691 0.0
C1073 C 0.50486 0.95253 0.46602 0.0
C1074 C 0.54624 0.98581 0.49528 0.0
C1075 C 0.54543 1.002 0.50676 0.0
C1076 C 0.53346 1.00244 0.52032 0.0
C1077 C 0.52255 0.98619 0.52232 0.0
C1078 C 0.52326 0.97002 0.51069 0.0
H1079 H 0.49643 0.94637 0.45202 0.0
H1080 H 0.49698 0.95024 0.47798 0.0
H1081 H 0.50855 0.96726 0.46627 0.0
H1082 H 0.55542 0.98591 0.4848 0.0
H1083 H 0.55409 0.0142 0.50485 0.0
H1084 H 0.46123 0.30098 0.72184 0.0
H1085 H 0.43139 0.30306 0.72878 0.0
H1086 H 0.44035 0.27892 0.78016 0.0
H1087 H 0.47002 0.27687 0.77344 0.0
H1088 H 0.40261 0.27601 0.73267 0.0
H1089 H 0.42291 0.32365 0.80161 0.0
H1090 H 0.43806 0.31965 0.78468 0.0
H1091 H 0.43252 0.30403 0.80109 0.0
C1092 C 0.45692 0.29621 0.73469 0.0
C1093 C 0.46827 0.28886 0.7471 0.0
C1094 C 0.43976 0.29736 0.73863 0.0
C1095 C 0.43351 0.29141 0.7552 0.0
C1096 C 0.4448 0.28398 0.7675 0.0
H1097 H 0.33779 0.2859 0.81006 0.0
H1098 H 0.36678 0.28424 0.80065 0.0
C1099 C 0.46185 0.28273 0.76354 0.0
C1100 C 0.4152 0.29263 0.75957 0.0
H1101 H 0.39265 0.30958 0.79453 0.0
C1102 C 0.40046 0.28348 0.74614 0.0
C1103 C 0.41217 0.30229 0.77715 0.0
C1104 C 0.42723 0.31311 0.7919 0.0
C1105 C 0.38299 0.28326 0.75003 0.0
C1106 C 0.37996 0.29282 0.76772 0.0
C1107 C 0.39474 0.30215 0.78101 0.0
C1108 C 0.36171 0.29319 0.77292 0.0
C1109 C 0.36799 0.27218 0.73539 0.0
C1110 C 0.34884 0.2988 0.76063 0.0
C1111 C 0.33207 0.29963 0.76595 0.0
C1112 C 0.32767 0.29507 0.78386 0.0
C1113 C 0.34054 0.28945 0.79612 0.0
C1114 C 0.35725 0.28855 0.79076 0.0
H1115 H 0.37242 0.26161 0.72583 0.0
H1116 H 0.35722 0.26562 0.74267 0.0
H1117 H 0.36261 0.28106 0.726 0.0
H1118 H 0.35187 0.30295 0.74703 0.0
H1119 H 0.32267 0.3042 0.75616 0.0
H1120 H 0.98948 0.79885 0.58437 0.0
H1121 H 1.00114 0.82458 0.56918 0.0
H1122 H 0.99564 0.86068 0.61976 0.0
H1123 H 0.98422 0.83504 0.63522 0.0
H1124 H 0.98868 0.85509 0.56039 0.0
H1125 H 0.04848 0.87323 0.61566 0.0
H1126 H 0.03327 0.85195 0.61273 0.0
H1127 H 0.02832 0.87178 0.62594 0.0
C1128 C 0.99043 0.81227 0.59213 0.0
C1129 C 0.98612 0.81492 0.6111 0.0
C1130 C 0.99716 0.82694 0.58345 0.0
C1131 C 0.9997 0.84446 0.5936 0.0
C1132 C 0.9942 0.8472 0.61193 0.0
H1133 H 0.03097 0.95195 0.57827 0.0
H1134 H 0.02355 0.92295 0.58938 0.0
C1135 C 0.98751 0.83255 0.62065 0.0
C1136 C 0.00868 0.85984 0.58537 0.0
H1137 H 0.04398 0.8949 0.595 0.0
C1138 C 1.00089 0.86368 0.56778 0.0
C1139 C 0.02475 0.87082 0.59497 0.0
C1140 C 0.03431 0.86667 0.61327 0.0
C1141 C 0.00823 0.87885 0.56008 0.0
C1142 C 0.02386 0.89027 0.57014 0.0
C1143 C 0.03202 0.88605 0.58733 0.0
C1144 C 0.03067 0.90773 0.56429 0.0
C1145 C 0.99882 0.88308 0.54174 0.0
C1146 C 0.03775 0.90876 0.54685 0.0
C1147 C 0.0421 0.92538 0.54052 0.0
C1148 C 0.03927 0.94101 0.55155 0.0
C1149 C 0.0331 0.94001 0.56948 0.0
C1150 C 0.02891 0.9235 0.57583 0.0
H1151 H 0.9857 0.87409 0.53707 0.0
H1152 H 0.99703 0.89723 0.54389 0.0
H1153 H 1.00691 0.88148 0.52984 0.0
H1154 H 0.03935 0.89668 0.53788 0.0
H1155 H 0.04683 0.92591 0.52664 0.0
H1156 H 0.53733 0.86533 0.89458 0.0
H1157 H 0.50823 0.85712 0.87498 0.0
H1158 H 0.49489 0.81193 0.9049 0.0
H1159 H 0.52385 0.82015 0.92483 0.0
H1160 H 0.49244 0.82457 0.85012 0.0
H1161 H 0.45448 0.83891 0.91091 0.0
H1162 H 0.47801 0.84664 0.91311 0.0
H1163 H 0.46905 0.82356 0.91433 0.0
C1164 C 0.5282 0.85369 0.89708 0.0
C1165 C 0.53289 0.84347 0.91137 0.0
C1166 C 0.51162 0.84898 0.88581 0.0
C1167 C 0.49941 0.83403 0.88864 0.0
C1168 C 0.50405 0.82369 0.90273 0.0
H1169 H 0.38879 0.80229 0.83829 0.0
H1170 H 0.41815 0.79985 0.85274 0.0
C1171 C 0.52062 0.8284 0.91407 0.0
C1172 C 0.48177 0.82946 0.87688 0.0
H1173 H 0.43823 0.828 0.87993 0.0
C1174 C 0.48055 0.8252 0.85661 0.0
C1175 C 0.46633 0.83019 0.88546 0.0
C1176 C 0.46694 0.8352 0.90712 0.0
C1177 C 0.46425 0.82198 0.84462 0.0
C1178 C 0.44891 0.82331 0.85316 0.0
C1179 C 0.45006 0.82694 0.87346 0.0
C1180 C 0.43174 0.8226 0.84143 0.0
C1181 C 0.46359 0.8173 0.82294 0.0
C1182 C 0.42975 0.83595 0.82992 0.0
C1183 C 0.41301 0.83736 0.82161 0.0
C1184 C 0.39799 0.82548 0.82476 0.0
C1185 C 0.40013 0.81151 0.8354 0.0
C1186 C 0.41687 0.81014 0.84375 0.0
H1187 H 0.47511 0.81155 0.81925 0.0
H1188 H 0.45132 0.80754 0.81639 0.0
H1189 H 0.46383 0.82969 0.81628 0.0
H1190 H 0.44104 0.84588 0.82824 0.0
H1191 H 0.41174 0.84818 0.81339 0.0
H1192 H 0.47117 0.22513 0.08736 0.0
H1193 H 0.47222 0.20074 0.06134 0.0
H1194 H 0.47912 0.16589 0.10395 0.0
H1195 H 0.47784 0.18988 0.12977 0.0
H1196 H 0.50117 0.18718 0.0587 0.0
H1197 H 0.44706 0.13101 0.06125 0.0
H1198 H 0.44689 0.15381 0.07187 0.0
H1199 H 0.45779 0.13956 0.08553 0.0
C1200 C 0.47237 0.21209 0.0911 0.0
C1201 C 0.47459 0.20948 0.11065 0.0
C1202 C 0.47295 0.19817 0.07621 0.0
C1203 C 0.4755 0.1814 0.08064 0.0
C1204 C 0.47666 0.17852 0.10006 0.0
H1205 H 0.54469 0.11895 0.07145 0.0
H1206 H 0.52795 0.14279 0.07046 0.0
C1207 C 0.47615 0.19237 0.11488 0.0
C1208 C 0.48008 0.16789 0.06594 0.0
H1209 H 0.47537 0.12245 0.05472 0.0
C1210 C 0.49513 0.17306 0.0572 0.0
C1211 C 0.47201 0.14949 0.06346 0.0
C1212 C 0.45492 0.14322 0.07088 0.0
C1213 C 0.50361 0.16017 0.04837 0.0
C1214 C 0.49699 0.14178 0.04859 0.0
C1215 C 0.48067 0.1366 0.05493 0.0
C1216 C 0.50837 0.12835 0.04645 0.0
C1217 C 0.52032 0.16639 0.04019 0.0
C1218 C 0.50298 0.11231 0.03318 0.0
C1219 C 0.51268 0.09862 0.03366 0.0
C1220 C 0.52756 0.10068 0.04776 0.0
C1221 C 0.53326 0.117 0.06046 0.0
C1222 C 0.52376 0.13069 0.0598 0.0
H1223 H 0.51996 0.17912 0.03433 0.0
H1224 H 0.53169 0.16903 0.05198 0.0
H1225 H 0.52247 0.15608 0.02848 0.0
H1226 H 0.49103 0.11019 0.02291 0.0
H1227 H 0.5081 0.08617 0.02363 0.0
H1228 H 0.13713 0.32524 0.43868 0.0
H1229 H 0.15282 0.31855 0.41087 0.0
H1230 H 0.10449 0.31224 0.37161 0.0
H1231 H 0.08907 0.31937 0.3989 0.0
H1232 H 0.14801 0.28934 0.38242 0.0
H1233 H 0.13699 0.34857 0.34905 0.0
H1234 H 0.13297 0.3462 0.3735 0.0
H1235 H 0.11666 0.33535 0.35305 0.0
C1236 C 0.12994 0.32239 0.42409 0.0
C1237 C 0.11198 0.32308 0.42089 0.0
C1238 C 0.13888 0.31862 0.40826 0.0
C1239 C 0.1299 0.31543 0.38915 0.0
C1240 C 0.11181 0.31529 0.38614 0.0
H1241 H 0.15867 0.26161 0.28464 0.0
H1242 H 0.14428 0.27062 0.31259 0.0
C1243 C 0.103 0.31926 0.4018 0.0
C1244 C 0.13912 0.31191 0.37217 0.0
H1245 H 0.14513 0.32483 0.32825 0.0
C1246 C 0.14755 0.29719 0.37066 0.0
C1247 C 0.13874 0.32236 0.35696 0.0
C1248 C 0.13102 0.33911 0.3583 0.0
C1249 C 0.15504 0.29224 0.35401 0.0
C1250 C 0.15364 0.302 0.33831 0.0
C1251 C 0.1458 0.31711 0.34013 0.0
C1252 C 0.16086 0.29714 0.32017 0.0
C1253 C 0.16456 0.27674 0.35349 0.0
C1254 C 0.1742 0.30945 0.31456 0.0
C1255 C 0.1823 0.30441 0.29857 0.0
C1256 C 0.17719 0.28697 0.28781 0.0
C1257 C 0.16305 0.27505 0.29276 0.0
C1258 C 0.15491 0.28013 0.30878 0.0
H1259 H 0.16847 0.27386 0.36831 0.0
H1260 H 0.15572 0.26449 0.34503 0.0
H1261 H 0.17656 0.27952 0.34637 0.0
H1262 H 0.1789 0.32269 0.32308 0.0
H1263 H 0.1933 0.31387 0.29541 0.0
H1264 H 0.89633 0.06624 0.20933 0.0
H1265 H 0.9138 0.06483 0.1824 0.0
H1266 H 0.961 0.07117 0.22326 0.0
H1267 H 0.94363 0.07302 0.2502 0.0
H1268 H 0.9689 0.09013 0.19548 0.0
H1269 H 0.93215 0.02361 0.15785 0.0
H1270 H 0.91826 0.03977 0.16054 0.0
H1271 H 0.92867 0.03282 0.18177 0.0
C1272 C 0.91042 0.0673 0.21267 0.0
C1273 C 0.91835 0.06964 0.23223 0.0
C1274 C 0.92052 0.06634 0.19708 0.0
C1275 C 0.93897 0.06748 0.20033 0.0
C1276 C 0.94691 0.07014 0.21992 0.0
H1277 H 0.9998 0.0273 0.11229 0.0
H1278 H 0.98414 0.03338 0.13976 0.0
C1279 C 0.93684 0.07116 0.23549 0.0
C1280 C 0.94997 0.0659 0.18359 0.0
H1281 H 0.953 0.03928 0.14099 0.0
C1282 C 0.96533 0.07896 0.1836 0.0
C1283 C 0.94584 0.0513 0.16788 0.0
C1284 C 0.93045 0.03598 0.16704 0.0
C1285 C 0.9763 0.07793 0.16871 0.0
C1286 C 0.97193 0.06353 0.15278 0.0
C1287 C 0.95659 0.05048 0.15284 0.0
C1288 C 0.98337 0.06094 0.13659 0.0
C1289 C 0.99286 0.09206 0.17062 0.0
C1290 C 0.98901 0.07441 0.12528 0.0
C1291 C 0.99849 0.07096 0.10941 0.0
C1292 C 1.00252 0.05388 0.10419 0.0
C1293 C 0.99726 0.04072 0.11583 0.0
C1294 C 0.98802 0.04415 0.13161 0.0
H1295 H 0.99694 0.09904 0.18584 0.0
H1296 H 1.0039 0.0861 0.1658 0.0
H1297 H 0.99042 0.10229 0.16138 0.0
H1298 H 0.98546 0.08742 0.12815 0.0
H1299 H 1.00174 0.08134 0.10058 0.0
H1300 H 0.32405 0.70717 0.47367 0.0
H1301 H 0.31521 0.72156 0.44606 0.0
H1302 H 0.31842 0.77108 0.48475 0.0
H1303 H 0.32739 0.75676 0.51253 0.0
H1304 H 0.28493 0.73652 0.44091 0.0
H1305 H 0.34545 0.7877 0.44117 0.0
H1306 H 0.34547 0.76872 0.45395 0.0
H1307 H 0.33696 0.78768 0.46393 0.0
C1308 C 0.32317 0.72121 0.47633 0.0
C1309 C 0.32652 0.7308 0.49538 0.0
C1310 C 0.31803 0.72941 0.46049 0.0
C1311 C 0.31624 0.74746 0.46323 0.0
C1312 C 0.31996 0.75723 0.48217 0.0
H1313 H 0.28336 0.81297 0.37636 0.0
H1314 H 0.29129 0.80266 0.4073 0.0
C1315 C 0.32507 0.749 0.49808 0.0
C1316 C 0.30956 0.75559 0.44635 0.0
H1317 H 0.32075 0.78818 0.41846 0.0
C1318 C 0.29277 0.74784 0.43604 0.0
C1319 C 0.31967 0.77048 0.44005 0.0
C1320 C 0.33795 0.7791 0.45021 0.0
C1321 C 0.2859 0.75442 0.4196 0.0
C1322 C 0.29621 0.76897 0.41294 0.0
C1323 C 0.31282 0.77704 0.42353 0.0
C1324 C 0.29046 0.7752 0.39436 0.0
C1325 C 0.26758 0.74577 0.40957 0.0
C1326 C 0.28732 0.76326 0.37676 0.0
C1327 C 0.28276 0.76908 0.35912 0.0
C1328 C 0.28129 0.78707 0.35853 0.0
C1329 C 0.28419 0.799 0.37622 0.0
C1330 C 0.28883 0.79314 0.39393 0.0
H1331 H 0.25954 0.73903 0.4196 0.0
H1332 H 0.26066 0.7558 0.40372 0.0
H1333 H 0.26847 0.73539 0.39729 0.0
H1334 H 0.28881 0.74945 0.37658 0.0
H1335 H 0.28073 0.75946 0.34587 0.0
H1336 H 0.57691 0.98383 0.74107 0.0
H1337 H 0.5643 0.99027 0.70968 0.0
H1338 H 0.6166 0.00569 0.69516 0.0
H1339 H 0.62919 0.99877 0.72607 0.0
H1340 H 0.56778 0.02136 0.69586 0.0
H1341 H 0.59338 0.97355 0.64594 0.0
H1342 H 0.59421 0.97236 0.67154 0.0
H1343 H 0.61082 0.98781 0.66299 0.0
C1344 C 0.5857 0.9883 0.73103 0.0
C1345 C 0.60406 0.99064 0.73606 0.0
C1346 C 0.57847 0.99204 0.7131 0.0
C1347 C 0.58944 0.99818 0.69979 0.0
C1348 C 0.60778 1.00046 0.70482 0.0
H1349 H 0.58512 0.04665 0.59675 0.0
H1350 H 0.59207 0.03379 0.62606 0.0
C1351 C 0.61499 0.99659 0.72262 0.0
C1352 C 0.58189 1.00321 0.68119 0.0
H1353 H 0.58355 0.99781 0.63227 0.0
C1354 C 0.57101 0.016 0.68192 0.0
C1355 C 0.586 0.9962 0.66291 0.0
C1356 C 0.59659 0.98158 0.66075 0.0
C1357 C 0.56488 0.02256 0.66511 0.0
C1358 C 0.5696 0.01605 0.64699 0.0
C1359 C 0.58 1.00288 0.64616 0.0
C1360 C 0.56492 0.02358 0.62898 0.0
C1361 C 0.55404 0.03696 0.66699 0.0
C1362 C 0.54729 0.02199 0.62063 0.0
C1363 C 0.54326 0.02937 0.60375 0.0
C1364 C 0.5568 0.03843 0.59494 0.0
C1365 C 0.57439 0.03979 0.6032 0.0
C1366 C 0.57839 0.03241 0.61997 0.0
H1367 H 0.55439 0.04295 0.68239 0.0
H1368 H 0.55879 0.04784 0.65874 0.0
H1369 H 0.54012 0.03102 0.66086 0.0
H1370 H 0.53667 0.01497 0.62712 0.0
H1371 H 0.52959 0.02805 0.59765 0.0
H1372 H 0.266 0.46224 0.03295 0.0
H1373 H 0.25872 0.43792 0.00505 0.0
H1374 H 0.28645 0.40505 0.03766 0.0
H1375 H 0.29344 0.42895 0.06558 0.0
H1376 H 0.28079 0.42191 0.98449 0.0
H1377 H 0.23969 0.37119 0.01812 0.0
H1378 H 0.24563 0.39464 0.02876 0.0
H1379 H 0.26082 0.37987 0.0325 0.0
C1380 C 0.27054 0.44982 0.03415 0.0
C1381 C 0.28018 0.44746 0.0515 0.0
C1382 C 0.2663 0.43594 0.01826 0.0
C1383 C 0.27163 0.41954 0.01953 0.0
C1384 C 0.28169 0.41737 0.03662 0.0
H1385 H 0.28765 0.32801 0.94876 0.0
H1386 H 0.28291 0.35035 0.97494 0.0
C1387 C 0.28582 0.43113 0.0525 0.0
C1388 C 0.26762 0.40494 1.00269 0.0
H1389 H 0.25142 0.35989 0.98964 0.0
C1390 C 0.27405 0.40842 0.98544 0.0
C1391 C 0.25879 0.38739 0.00403 0.0
C1392 C 0.25068 0.38308 0.0218 0.0
C1393 C 0.27282 0.39457 0.96985 0.0
C1394 C 0.26472 0.37688 0.97155 0.0
C1395 C 0.25764 0.3735 0.98848 0.0
C1396 C 0.26496 0.36157 0.95652 0.0
C1397 C 0.28099 0.3988 0.95208 0.0
C1398 C 0.25583 0.3601 0.93779 0.0
C1399 C 0.25861 0.34747 0.9228 0.0
C1400 C 0.27052 0.33612 0.92641 0.0
C1401 C 0.27862 0.33678 0.94553 0.0
C1402 C 0.27584 0.34942 0.96049 0.0
H1403 H 0.28923 0.41255 0.95442 0.0
H1404 H 0.28928 0.38897 0.94787 0.0
H1405 H 0.2704 0.3978 0.93974 0.0
H1406 H 0.24723 0.36929 0.93458 0.0
H1407 H 0.25225 0.34736 0.9082 0.0
H1408 H 0.9146 0.08683 0.35778 0.0
H1409 H 0.9288 0.08882 0.39165 0.0
H1410 H 0.9548 0.04571 0.37347 0.0
H1411 H 0.94124 0.04384 0.34028 0.0
H1412 H 0.92857 0.06385 0.41794 0.0
H1413 H 0.99636 0.08304 0.4015 0.0
H1414 H 0.9773 0.08376 0.38461 0.0
H1415 H 0.98456 0.06288 0.38608 0.0
C1416 C 0.92338 0.07784 0.36101 0.0
C1417 C 0.92685 0.06537 0.34595 0.0
C1418 C 0.93153 0.07896 0.38044 0.0
C1419 C 0.94336 0.06772 0.38526 0.0
C1420 C 0.94628 0.05498 0.37031 0.0
H1421 H 0.00766 0.04042 0.4826 0.0
H1422 H 0.99182 0.0435 0.45138 0.0
C1423 C 0.93832 0.0539 0.35113 0.0
C1424 C 0.95268 0.0688 0.40567 0.0
H1425 H 0.99357 0.07151 0.43135 0.0
C1426 C 0.9428 0.06581 0.42092 0.0
C1427 C 0.97131 0.07128 0.40982 0.0
C1428 C 0.98301 0.0756 0.39468 0.0
C1429 C 0.95087 0.06443 0.43971 0.0
C1430 C 0.96948 0.06637 0.44366 0.0
C1431 C 0.97935 0.06983 0.42852 0.0
C1432 C 0.97898 0.06447 0.46313 0.0
C1433 C 0.93926 0.06014 0.45492 0.0
C1434 C 0.97743 0.07532 0.48046 0.0
C1435 C 0.98652 0.07355 0.49848 0.0
C1436 C 0.9976 0.06095 0.49979 0.0
C1437 C 0.99929 0.05025 0.48238 0.0
C1438 C 0.99019 0.05202 0.46439 0.0
H1439 H 0.92541 0.05432 0.44833 0.0
H1440 H 0.94416 0.05055 0.4637 0.0
H1441 H 0.93929 0.0727 0.46484 0.0
H1442 H 0.96933 0.08539 0.48008 0.0
H1443 H 0.98489 0.08219 0.5114 0.0
H1444 H 0.31052 0.70212 0.62294 0.0
H1445 H 0.30567 0.72078 0.65171 0.0
H1446 H 0.33644 0.7673 0.63457 0.0
H1447 H 0.3408 0.74855 0.60487 0.0
H1448 H 0.32658 0.73878 0.6817 0.0
H1449 H 0.29412 0.7871 0.64595 0.0
H1450 H 0.29864 0.76712 0.63246 0.0
H1451 H 0.31594 0.78662 0.64042 0.0
C1452 C 0.31634 0.71632 0.62514 0.0
C1453 C 0.32609 0.72376 0.61142 0.0
C1454 C 0.31351 0.72704 0.64174 0.0
C1455 C 0.32045 0.74559 0.64541 0.0
C1456 C 0.33053 0.75312 0.63196 0.0
H1457 H 0.31465 0.79785 0.76437 0.0
H1458 H 0.32633 0.78726 0.73492 0.0
C1459 C 0.33317 0.74236 0.61503 0.0
C1460 C 0.3171 0.75654 0.66349 0.0
H1461 H 0.29858 0.79182 0.68023 0.0
C1462 C 0.32053 0.75044 0.68135 0.0
C1463 C 0.30902 0.77167 0.66317 0.0
C1464 C 0.30404 0.77846 0.64447 0.0
C1465 C 0.31566 0.75855 0.69858 0.0
C1466 C 0.30776 0.77382 0.69833 0.0
C1467 C 0.30474 0.78024 0.68058 0.0
C1468 C 0.30141 0.78248 0.71595 0.0
C1469 C 0.3182 0.74995 0.7166 0.0
C1470 C 0.28379 0.78457 0.71506 0.0
C1471 C 0.27723 0.79115 0.73179 0.0
C1472 C 0.28808 0.79563 0.74991 0.0
C1473 C 0.30591 0.79434 0.75067 0.0
C1474 C 0.31255 0.78808 0.73384 0.0
H1475 H 0.31957 0.73574 0.71301 0.0
H1476 H 0.33045 0.75738 0.72604 0.0
H1477 H 0.30698 0.75026 0.72497 0.0
H1478 H 0.27488 0.7805 0.70151 0.0
H1479 H 0.26344 0.79198 0.73067 0.0
H1480 H 0.57019 0.01699 0.83925 0.0
H1481 H 0.56113 0.02118 0.87132 0.0
H1482 H 0.60516 1.00006 0.89503 0.0
H1483 H 0.61457 0.99596 0.86273 0.0
H1484 H 0.552 0.99653 0.89624 0.0
H1485 H 0.61065 0.0489 0.93005 0.0
H1486 H 0.60537 0.04202 0.90408 0.0
H1487 H 0.61506 0.02796 0.9189 0.0
C1488 C 0.57801 0.01316 0.85121 0.0
C1489 C 0.59324 0.00623 0.84834 0.0
C1490 C 0.57274 0.01555 0.86958 0.0
C1491 C 0.58257 0.0112 0.88567 0.0
C1492 C 0.59753 1.00383 0.88289 0.0
H1493 H 0.56784 0.03003 0.00818 0.0
H1494 H 0.57845 0.02108 0.97763 0.0
C1495 C 0.60282 1.00136 0.86438 0.0
C1496 C 0.57702 0.01466 0.90524 0.0
H1497 H 0.58905 0.0409 0.94989 0.0
C1498 C 0.56015 0.00616 0.90801 0.0
C1499 C 0.58763 0.02723 0.92062 0.0
C1500 C 0.60564 0.0372 0.91833 0.0
C1501 C 0.55357 0.00993 0.92563 0.0
C1502 C 0.56398 0.02288 0.94082 0.0
C1503 C 0.58103 0.03106 0.93823 0.0
C1504 C 0.55736 0.02831 0.95939 0.0
C1505 C 0.53559 0.99986 0.92785 0.0
C1506 C 0.54208 0.03563 0.95942 0.0
C1507 C 0.53592 0.04075 0.97691 0.0
C1508 C 0.54501 0.03881 0.99479 0.0
C1509 C 0.56046 0.03172 0.99472 0.0
C1510 C 0.56658 0.02658 0.97723 0.0
H1511 H 0.53167 0.98702 0.91755 0.0
H1512 H 0.53518 0.99688 0.94288 0.0
H1513 H 0.5257 0.00823 0.9247 0.0
H1514 H 0.53496 0.03752 0.9459 0.0
H1515 H 0.52406 0.04625 0.9764 0.0
H1516 H 0.28842 0.44893 0.18229 0.0
H1517 H 0.28827 0.4255 0.20288 0.0
H1518 H 0.29946 0.38932 0.1554 0.0
H1519 H 0.29885 0.4124 0.13454 0.0
H1520 H 0.27525 0.37216 0.17328 0.0
H1521 H 0.33042 0.41038 0.22839 0.0
H1522 H 0.31268 0.42223 0.22576 0.0
H1523 H 0.3246 0.4179 0.20567 0.0
C1524 C 0.29094 0.43601 0.1763 0.0
C1525 C 0.29377 0.43252 0.15688 0.0
C1526 C 0.29093 0.42265 0.18809 0.0
C1527 C 0.29421 0.40576 0.18079 0.0
C1528 C 0.29695 0.40226 0.16136 0.0
H1529 H 0.3229 0.33754 0.26279 0.0
H1530 H 0.32242 0.35386 0.23513 0.0
C1531 C 0.29666 0.41548 0.14949 0.0
C1532 C 0.2947 0.3917 0.19336 0.0
H1533 H 0.31361 0.38413 0.23694 0.0
C1534 C 0.28376 0.37469 0.18714 0.0
C1535 C 0.30606 0.39488 0.21122 0.0
C1536 C 0.31923 0.41227 0.21806 0.0
C1537 C 0.28361 0.36089 0.1985 0.0
C1538 C 0.29427 0.36442 0.21687 0.0
C1539 C 0.30538 0.38136 0.22289 0.0
C1540 C 0.29403 0.35112 0.23048 0.0
C1541 C 0.27228 0.34266 0.1905 0.0
C1542 C 0.27819 0.34333 0.23649 0.0
C1543 C 0.27845 0.33341 0.25185 0.0
C1544 C 0.29458 0.3317 0.26178 0.0
C1545 C 0.31032 0.33869 0.25524 0.0
C1546 C 0.31004 0.34808 0.23953 0.0
H1547 H 0.27022 0.34035 0.17435 0.0
H1548 H 0.27821 0.33169 0.19563 0.0
H1549 H 0.25914 0.34196 0.19532 0.0
H1550 H 0.26571 0.34584 0.23018 0.0
H1551 H 0.26618 0.32836 0.25695 0.0
H1552 H 0.19042 0.96411 0.0634 0.0
H1553 H 0.1688 0.98315 0.06741 0.0
H1554 H 0.12903 0.93655 0.06928 0.0
H1555 H 0.15085 0.91729 0.06556 0.0
H1556 H 0.1385 0.98351 0.04453 0.0
H1557 H 0.1234 0.96998 0.11715 0.0
H1558 H 0.14195 0.96345 0.10698 0.0
H1559 H 0.12015 0.95017 0.09927 0.0
C1560 C 0.1771 0.95782 0.06473 0.0
C1561 C 0.17245 0.93909 0.06422 0.0
C1562 C 0.1647 0.9688 0.06702 0.0
C1563 C 0.14727 0.96144 0.06897 0.0
C1564 C 0.14247 0.94269 0.06826 0.0
H1565 H 0.05204 1.00357 0.07528 0.0
H1566 H 0.07529 0.98619 0.07649 0.0
C1567 C 0.15493 0.93163 0.06597 0.0
C1568 C 0.1342 0.97348 0.07119 0.0
H1569 H 0.10565 0.98715 0.10091 0.0
C1570 C 0.13141 0.98437 0.05693 0.0
C1571 C 0.1249 0.97472 0.08737 0.0
C1572 C 0.12783 0.9641 0.10368 0.0
C1573 C 0.11937 0.99603 0.05814 0.0
C1574 C 0.11002 0.99722 0.07429 0.0
C1575 C 0.11286 0.9864 0.08859 0.0
C1576 C 0.09637 0.00864 0.07585 0.0
C1577 C 0.11634 0.00652 0.04173 0.0
C1578 C 0.10043 0.02737 0.07596 0.0
C1579 C 0.08703 0.03749 0.07534 0.0
C1580 C 0.06931 0.02907 0.07461 0.0
C1581 C 0.06551 0.01055 0.07573 0.0
C1582 C 0.07883 1.00052 0.07641 0.0
H1583 H 0.12133 1.001 0.02846 0.0
H1584 H 0.10211 0.0065 0.03797 0.0
H1585 H 0.12341 0.02066 0.04629 0.0
H1586 H 0.1139 0.03408 0.07597 0.0
H1587 H 0.09045 0.05166 0.07438 0.0
H1588 H 0.69013 0.63772 0.9826 0.0
H1589 H 0.66111 0.62649 0.99119 0.0
H1590 H 0.6711 0.57265 0.98478 0.0
H1591 H 0.70032 0.58375 0.97617 0.0
H1592 H 0.63286 0.58262 0.96817 0.0
H1593 H 0.66126 0.60332 0.04626 0.0
H1594 H 0.66776 0.61841 0.02957 0.0
H1595 H 0.67438 0.59709 0.02781 0.0
C1596 C 0.68608 0.62344 0.98269 0.0
C1597 C 0.69757 0.61164 0.97888 0.0
C1598 C 0.6695 0.61707 0.98757 0.0
C1599 C 0.66411 0.59881 0.98867 0.0
C1600 C 0.67511 0.58679 0.98393 0.0
H1601 H 0.56367 0.551 0.0249 0.0
H1602 H 0.59109 0.55379 0.01043 0.0
C1603 C 0.69175 0.59316 0.97903 0.0
C1604 C 0.64768 0.59278 0.99651 0.0
H1605 H 0.63031 0.59475 0.03898 0.0
C1606 C 0.63224 0.585 0.98365 0.0
C1607 C 0.64709 0.59596 0.01669 0.0
C1608 C 0.66348 0.60406 0.031 0.0
C1609 C 0.61595 0.58101 0.99048 0.0
C1610 C 0.61528 0.58474 0.01066 0.0
C1611 C 0.63088 0.59193 0.02352 0.0
C1612 C 0.59845 0.58269 0.01875 0.0
C1613 C 0.5995 0.57365 0.97605 0.0
C1614 C 0.59367 0.59794 0.0284 0.0
C1615 C 0.57824 0.59633 0.03682 0.0
C1616 C 0.56732 0.57942 0.03581 0.0
C1617 C 0.57197 0.56415 0.026 0.0
C1618 C 0.5875 0.56576 0.01758 0.0
H1619 H 0.60185 0.57468 0.96088 0.0
H1620 H 0.59484 0.55926 0.97699 0.0
H1621 H 0.58883 0.58089 0.9794 0.0
H1622 H 0.60194 0.61112 0.02946 0.0
H1623 H 0.57492 0.60833 0.04426 0.0
H1624 H 0.71937 0.49858 0.31401 0.0
H1625 H 0.73188 0.47121 0.31129 0.0
H1626 H 0.68017 0.43903 0.30921 0.0
H1627 H 0.66766 0.46623 0.31153 0.0
H1628 H 0.73533 0.4453 0.33215 0.0
H1629 H 0.69343 0.41026 0.26418 0.0
H1630 H 0.69384 0.43349 0.27333 0.0
H1631 H 0.68062 0.41578 0.2829 0.0
C1632 C 0.71056 0.4857 0.3129 0.0
C1633 C 0.69229 0.48503 0.3129 0.0
C1634 C 0.71782 0.46983 0.31134 0.0
C1635 C 0.70718 0.45243 0.30952 0.0
C1636 C 0.68896 0.45184 0.3099 0.0
H1637 H 0.72569 0.33947 0.29942 0.0
H1638 H 0.7135 0.36697 0.30182 0.0
C1639 C 0.68172 0.46767 0.31145 0.0
C1640 C 0.71509 0.43518 0.30765 0.0
H1641 H 0.71035 0.39275 0.28109 0.0
C1642 C 0.72983 0.43393 0.32082 0.0
C1643 C 0.70828 0.41983 0.29305 0.0
C1644 C 0.6933 0.41992 0.27744 0.0
C1645 C 0.73741 0.41821 0.32018 0.0
C1646 C 0.7306 0.40286 0.30559 0.0
C1647 C 0.71587 0.40412 0.2924 0.0
C1648 C 0.73837 0.38553 0.3038 0.0
C1649 C 0.75237 0.41811 0.33582 0.0
C1650 C 0.7566 0.38592 0.30362 0.0
C1651 C 0.76368 0.36998 0.30223 0.0
C1652 C 0.75292 0.35271 0.30074 0.0
C1653 C 0.73464 0.35225 0.30051 0.0
C1654 C 0.72757 0.36821 0.30191 0.0
H1655 H 0.75227 0.42782 0.34905 0.0
H1656 H 0.75175 0.40455 0.33999 0.0
H1657 H 0.76506 0.42215 0.33035 0.0
H1658 H 0.76552 0.39866 0.30438 0.0
H1659 H 0.77775 0.37127 0.30239 0.0
H1660 H 0.76479 0.46875 0.53526 0.0
H1661 H 0.79568 0.48351 0.5422 0.0
H1662 H 0.80541 0.44744 0.58264 0.0
H1663 H 0.77429 0.43229 0.57563 0.0
H1664 H 0.81608 0.50055 0.57868 0.0
H1665 H 0.84138 0.4423 0.54412 0.0
H1666 H 0.8184 0.44359 0.53993 0.0
H1667 H 0.82766 0.43854 0.56269 0.0
C1668 C 0.77342 0.46389 0.54566 0.0
C1669 C 0.76706 0.44924 0.5548 0.0
C1670 C 0.79108 0.47241 0.54966 0.0
C1671 C 0.8028 0.46649 0.56282 0.0
C1672 C 0.79655 0.45206 0.57226 0.0
H1673 H 0.91673 0.5034 0.57089 0.0
H1674 H 0.88856 0.48948 0.57955 0.0
C1675 C 0.77879 0.44346 0.56825 0.0
C1676 C 0.8216 0.47534 0.566 0.0
H1677 H 0.86155 0.46951 0.55401 0.0
C1678 C 0.82612 0.49373 0.57359 0.0
C1679 C 0.83463 0.46634 0.55946 0.0
C1680 C 0.83038 0.44662 0.55098 0.0
C1681 C 0.84322 0.50356 0.57405 0.0
C1682 C 0.85597 0.49481 0.56635 0.0
C1683 C 0.85171 0.4762 0.55982 0.0
C1684 C 0.87324 0.50487 0.56323 0.0
C1685 C 0.84735 0.52328 0.58246 0.0
C1686 C 0.87399 0.51825 0.55132 0.0
C1687 C 0.89009 0.5264 0.54652 0.0
C1688 C 0.90574 0.52115 0.55334 0.0
C1689 C 0.90499 0.508 0.56564 0.0
C1690 C 0.88888 0.49992 0.57051 0.0
H1691 H 0.83876 0.52631 0.59353 0.0
H1692 H 0.86133 0.52771 0.58924 0.0
H1693 H 0.84489 0.53123 0.57067 0.0
H1694 H 0.86204 0.52198 0.54515 0.0
H1695 H 0.89022 0.53658 0.53716 0.0
H1696 H 0.37183 0.14026 0.28591 0.0
H1697 H 0.35462 0.16373 0.28354 0.0
H1698 H 0.40029 0.20394 0.31001 0.0
H1699 H 0.41777 0.18048 0.31196 0.0
H1700 H 0.3461 0.18725 0.3107 0.0
H1701 H 0.38521 0.22518 0.26285 0.0
H1702 H 0.38816 0.20321 0.26742 0.0
H1703 H 0.39806 0.22285 0.28495 0.0
C1704 C 0.37827 0.1541 0.29123 0.0
C1705 C 0.39625 0.15846 0.29905 0.0
C1706 C 0.36838 0.16754 0.28985 0.0
C1707 C 0.37618 0.18572 0.29622 0.0
C1708 C 0.39404 0.1901 0.30447 0.0
H1709 H 0.3355 0.28431 0.30825 0.0
H1710 H 0.35354 0.26127 0.30779 0.0
C1711 C 0.404 0.17664 0.30576 0.0
C1712 C 0.36543 0.1999 0.2946 0.0
H1713 H 0.36324 0.23881 0.27619 0.0
C1714 C 0.34982 0.19844 0.30303 0.0
C1715 C 0.37019 0.21456 0.28457 0.0
C1716 C 0.38622 0.2165 0.27427 0.0
C1717 C 0.33908 0.2113 0.30202 0.0
C1718 C 0.34392 0.22599 0.29212 0.0
C1719 C 0.35951 0.22751 0.28371 0.0
C1720 C 0.3332 0.24017 0.29091 0.0
C1721 C 0.32284 0.20932 0.31198 0.0
C1722 C 0.31588 0.23608 0.28103 0.0
C1723 C 0.30549 0.24925 0.28115 0.0
C1724 C 0.31221 0.26678 0.29121 0.0
C1725 C 0.32982 0.27096 0.30043 0.0
C1726 C 0.34019 0.25782 0.30019 0.0
H1727 H 0.32297 0.19955 0.32236 0.0
H1728 H 0.32162 0.22246 0.31996 0.0
H1729 H 0.31099 0.20443 0.30089 0.0
H1730 H 0.31029 0.22261 0.27351 0.0
H1731 H 0.29202 0.24552 0.2739 0.0
H1732 H 0.28151 0.08265 0.52144 0.0
H1733 H 0.3101 0.07579 0.53137 0.0
H1734 H 0.33338 0.10957 0.49277 0.0
H1735 H 0.30467 0.11704 0.48307 0.0
H1736 H 0.33091 0.05964 0.5105 0.0
H1737 H 0.36589 0.12866 0.54381 0.0
H1738 H 0.34228 0.12281 0.53706 0.0
H1739 H 0.35638 0.12652 0.51883 0.0
C1740 C 0.29264 0.08861 0.51493 0.0
C1741 C 0.29078 0.10045 0.50147 0.0
C1742 C 0.30901 0.08469 0.52069 0.0
C1743 C 0.32392 0.09241 0.51308 0.0
C1744 C 0.3221 0.10381 0.49918 0.0
H1745 H 0.41897 0.0488 0.52471 0.0
H1746 H 0.39321 0.06019 0.51246 0.0
C1747 C 0.30566 0.10789 0.49348 0.0
C1748 C 0.34113 0.08796 0.51955 0.0
H1749 H 0.38287 0.10589 0.54263 0.0
C1750 C 0.34228 0.06977 0.51747 0.0
C1751 C 0.35585 0.1012 0.52894 0.0
C1752 C 0.35507 0.12089 0.53249 0.0
C1753 C 0.35768 0.06438 0.5246 0.0
C1754 C 0.37255 0.0776 0.5335 0.0
C1755 C 0.37147 0.09583 0.53562 0.0
C1756 C 0.38924 0.07255 0.54076 0.0
C1757 C 0.35768 0.04452 0.52301 0.0
C1758 C 0.39599 0.07646 0.56063 0.0
C1759 C 0.41085 0.0701 0.56765 0.0
C1760 C 0.41899 0.05965 0.55487 0.0
C1761 C 0.41262 0.05643 0.53491 0.0
C1762 C 0.39796 0.06295 0.5279 0.0
H1763 H 0.34409 0.03636 0.52081 0.0
H1764 H 0.36411 0.04029 0.51034 0.0
H1765 H 0.36508 0.04146 0.53625 0.0
H1766 H 0.38947 0.08396 0.57076 0.0
H1767 H 0.41565 0.07288 0.58309 0.0
H1768 H 0.66805 0.61499 0.30982 0.0
H1769 H 0.68447 0.64457 0.30801 0.0
H1770 H 0.73309 0.62562 0.31641 0.0
H1771 H 0.71637 0.59524 0.31783 0.0
H1772 H 0.70638 0.66915 0.33215 0.0
H1773 H 0.74303 0.65135 0.27165 0.0
H1774 H 0.72549 0.63542 0.27816 0.0
H1775 H 0.74706 0.64027 0.29225 0.0
C1776 C 0.68226 0.61681 0.31127 0.0
C1777 C 0.69063 0.60217 0.31393 0.0
C1778 C 0.69176 0.63408 0.31024 0.0
C1779 C 0.71025 0.63785 0.31173 0.0
C1780 C 0.71886 0.62338 0.31469 0.0
H1781 H 0.77989 0.74458 0.30587 0.0
H1782 H 0.76945 0.71319 0.31065 0.0
C1783 C 0.70924 0.60587 0.31573 0.0
C1784 C 0.71992 0.65696 0.31055 0.0
H1785 H 0.74866 0.68196 0.28581 0.0
C1786 C 0.71564 0.67177 0.32197 0.0
C1787 C 0.73223 0.661 0.29744 0.0
C1788 C 0.73716 0.64623 0.28403 0.0
C1789 C 0.7229 0.68991 0.32061 0.0
C1790 C 0.73483 0.69395 0.30718 0.0
C1791 C 0.73957 0.67922 0.29612 0.0
C1792 C 0.74166 0.71324 0.30388 0.0
C1793 C 0.71775 0.70467 0.33385 0.0
C1794 C 0.72984 0.72412 0.29816 0.0
C1795 C 0.7358 0.74203 0.29534 0.0
C1796 C 0.75391 0.75 0.29808 0.0
C1797 C 0.76587 0.73913 0.30365 0.0
C1798 C 0.75985 0.72103 0.30635 0.0
H1799 H 0.71319 0.69984 0.34701 0.0
H1800 H 0.72893 0.71628 0.33851 0.0
H1801 H 0.70675 0.70942 0.32597 0.0
H1802 H 0.7158 0.71871 0.2957 0.0
H1803 H 0.72606 0.74971 0.29099 0.0
H1804 H 0.87956 0.56727 0.80826 0.0
H1805 H 0.85786 0.54066 0.81111 0.0
H1806 H 0.8837 0.50753 0.77397 0.0
H1807 H 0.90567 0.53392 0.77142 0.0
H1808 H 0.83423 0.51488 0.78464 0.0
H1809 H 0.8848 0.48421 0.82265 0.0
H1810 H 0.88919 0.50726 0.81858 0.0
H1811 H 0.88961 0.48933 0.79937 0.0
C1812 C 0.88055 0.55434 0.80056 0.0
C1813 C 0.8945 0.55268 0.78983 0.0
C1814 C 0.86813 0.53915 0.80221 0.0
C1815 C 0.86942 0.52207 0.79313 0.0
C1816 C 0.88275 0.52052 0.78153 0.0
H1817 H 0.81461 0.41305 0.78895 0.0
H1818 H 0.83235 0.44109 0.78325 0.0
C1819 C 0.89524 0.53565 0.78001 0.0
C1820 C 0.85724 0.50579 0.79631 0.0
H1821 H 0.85634 0.46581 0.81306 0.0
C1822 C 0.83903 0.50418 0.79094 0.0
C1823 C 0.86354 0.49192 0.80469 0.0
C1824 C 0.88283 0.4933 0.81184 0.0
C1825 C 0.827 0.48882 0.79325 0.0
C1826 C 0.83338 0.47484 0.80126 0.0
C1827 C 0.85153 0.47653 0.8068 0.0
C1828 C 0.82154 0.45814 0.80382 0.0
C1829 C 0.80762 0.48742 0.7867 0.0
C1830 C 0.80957 0.45846 0.81728 0.0
C1831 C 0.79935 0.44242 0.82057 0.0
C1832 C 0.80094 0.42581 0.81041 0.0
C1833 C 0.81283 0.42562 0.79678 0.0
C1834 C 0.82306 0.44161 0.79358 0.0
H1835 H 0.8052 0.49764 0.77739 0.0
H1836 H 0.80163 0.47384 0.77852 0.0
H1837 H 0.80086 0.48955 0.79964 0.0
H1838 H 0.80841 0.47108 0.82555 0.0
H1839 H 0.79026 0.44301 0.83109 0.0
H1840 H 0.01757 0.85722 0.20212 0.0
H1841 H 0.01422 0.87969 0.18086 0.0
H1842 H 0.01974 0.84211 0.13154 0.0
H1843 H 0.02272 0.8195 0.15259 0.0
H1844 H 0.03601 0.89563 0.15762 0.0
H1845 H 0.97441 0.857 0.11243 0.0
H1846 H 0.98315 0.85072 0.13491 0.0
H1847 H 0.99212 0.84496 0.11295 0.0
C1848 C 0.01806 0.85373 0.18675 0.0
C1849 C 0.02029 0.83649 0.17907 0.0
C1850 C 0.01615 0.86661 0.17459 0.0
C1851 C 0.01638 0.86253 0.15449 0.0
C1852 C 0.01905 0.84548 0.14688 0.0
H1853 H 0.03059 0.9405 0.07423 0.0
H1854 H 0.03412 0.91789 0.09516 0.0
C1855 C 0.02088 0.83258 0.15899 0.0
C1856 C 0.01395 0.87615 0.14153 0.0
H1857 H 0.98839 0.88327 0.10137 0.0
C1858 C 0.02557 0.89293 0.14535 0.0
C1859 C 1.00019 0.87278 0.12563 0.0
C1860 C 0.98664 0.85546 0.12131 0.0
C1861 C 0.02397 0.90626 0.1336 0.0
C1862 C 0.01057 0.90266 0.11733 0.0
C1863 C 0.99879 0.88599 0.11368 0.0
C1864 C 0.00831 0.91612 0.10415 0.0
C1865 C 0.03646 0.92424 0.13896 0.0
C1866 C 0.99242 0.92229 0.10166 0.0
C1867 C 0.99027 0.93508 0.0895 0.0
C1868 C 1.00393 0.94194 0.07938 0.0
C1869 C 0.01972 0.93545 0.08162 0.0
C1870 C 0.02186 0.92267 0.09381 0.0
H1871 H 0.0427 0.92652 0.15438 0.0
H1872 H 0.0471 0.92467 0.1297 0.0
H1873 H 0.02954 0.93539 0.13656 0.0
H1874 H 0.98171 0.91734 0.10933 0.0
H1875 H 0.97785 0.93954 0.08794 0.0
H1876 H 0.97883 0.31594 0.82053 0.0
H1877 H 0.94721 0.31343 0.81145 0.0
H1878 H 0.93864 0.30503 0.86944 0.0
H1879 H 0.97043 0.30683 0.87844 0.0
H1880 H 0.91196 0.28473 0.84389 0.0
H1881 H 0.92213 0.35314 0.82459 0.0
H1882 H 0.93327 0.33879 0.81039 0.0
H1883 H 0.93982 0.34442 0.83631 0.0
C1884 C 0.97026 0.3134 0.83139 0.0
C1885 C 0.97738 0.31175 0.85033 0.0
C1886 C 0.95206 0.31213 0.82618 0.0
C1887 C 0.94031 0.30961 0.83984 0.0
C1888 C 0.94727 0.30715 0.85856 0.0
H1889 H 0.83972 0.34295 0.83131 0.0
H1890 H 0.86981 0.33874 0.83764 0.0
C1891 C 0.96553 0.30816 0.86372 0.0
C1892 C 0.92101 0.31009 0.8347 0.0
H1893 H 0.89331 0.33557 0.81593 0.0
C1894 C 0.90791 0.29588 0.83782 0.0
C1895 C 0.91542 0.3247 0.82697 0.0
C1896 C 0.92838 0.3412 0.82456 0.0
C1897 C 0.88967 0.29585 0.83341 0.0
C1898 C 0.88413 0.31023 0.82515 0.0
C1899 C 0.89727 0.32438 0.82201 0.0
C1900 C 0.86501 0.31193 0.82119 0.0
C1901 C 0.87655 0.28067 0.83833 0.0
C1902 C 0.85173 0.29831 0.80968 0.0
C1903 C 0.83407 0.30065 0.80616 0.0
C1904 C 0.82935 0.31678 0.81381 0.0
C1905 C 0.84271 0.33034 0.82505 0.0
C1906 C 0.86011 0.32795 0.82872 0.0
H1907 H 0.88276 0.27344 0.84909 0.0
H1908 H 0.86545 0.28568 0.84428 0.0
H1909 H 0.87114 0.27086 0.82494 0.0
H1910 H 0.855 0.28593 0.8032 0.0
H1911 H 0.82419 0.28993 0.79741 0.0
H1912 H 0.51938 0.21558 0.70836 0.0
H1913 H 0.51958 0.18888 0.68519 0.0
H1914 H 0.51265 0.21854 0.63773 0.0
H1915 H 0.51223 0.2454 0.66086 0.0
H1916 H 0.49182 0.1837 0.63039 0.0
H1917 H 0.56131 0.18223 0.65656 0.0
H1918 H 0.54761 0.18233 0.67544 0.0
H1919 H 0.55159 0.20146 0.66305 0.0
C1920 C 0.5178 0.21648 0.693 0.0
C1921 C 0.51592 0.23277 0.68654 0.0
C1922 C 0.51803 0.20117 0.67975 0.0
C1923 C 0.5165 0.20176 0.65971 0.0
C1924 C 0.51398 0.21778 0.65312 0.0
H1925 H 0.54561 0.1213 0.57548 0.0
H1926 H 0.54305 0.1492 0.59539 0.0
C1927 C 0.51373 0.23314 0.66639 0.0
C1928 C 0.51781 0.18571 0.64576 0.0
H1929 H 0.54498 0.15653 0.63491 0.0
C1930 C 0.50347 0.1778 0.63131 0.0
C1931 C 0.53312 0.17815 0.64673 0.0
C1932 C 0.54936 0.18655 0.66114 0.0
C1933 C 0.50384 0.16229 0.61821 0.0
C1934 C 0.51887 0.1543 0.61973 0.0
C1935 C 0.53338 0.1625 0.63384 0.0
C1936 C 0.51986 0.1374 0.60693 0.0
C1937 C 0.48821 0.15473 0.60271 0.0
C1938 C 0.50776 0.12137 0.60681 0.0
C1939 C 0.50919 0.10536 0.59542 0.0
C1940 C 0.52283 0.10494 0.58394 0.0
C1941 C 0.53491 0.12105 0.58406 0.0
C1942 C 0.53348 0.13705 0.59548 0.0
H1943 H 0.48018 0.16497 0.59998 0.0
H1944 H 0.49246 0.14956 0.58883 0.0
H1945 H 0.47965 0.14341 0.60754 0.0
H1946 H 0.49737 0.12115 0.61583 0.0
H1947 H 0.4997 0.09325 0.59583 0.0
H1948 H 0.60219 0.83877 0.38807 0.0
H1949 H 0.63089 0.83873 0.37729 0.0
H1950 H 0.60723 0.7943 0.33192 0.0
H1951 H 0.57826 0.79521 0.34192 0.0
H1952 H 0.65196 0.81823 0.37689 0.0
H1953 H 0.63465 0.8222 0.29931 0.0
H1954 H 0.61944 0.82477 0.31645 0.0
H1955 H 0.62155 0.80267 0.30562 0.0
C1956 C 0.60304 0.82912 0.37561 0.0
C1957 C 0.58776 0.81712 0.36577 0.0
C1958 C 0.61958 0.82905 0.36945 0.0
C1959 C 0.62158 0.81675 0.3534 0.0
C1960 C 0.6063 0.80447 0.34381 0.0
H1961 H 0.7271 0.79382 0.33986 0.0
H1962 H 0.69797 0.79474 0.34902 0.0
C1963 C 0.58963 0.80486 0.34968 0.0
C1964 C 0.63965 0.81649 0.34739 0.0
H1965 H 0.66227 0.8141 0.30821 0.0
C1966 C 0.65412 0.81747 0.36183 0.0
C1967 C 0.643 0.81585 0.32781 0.0
C1968 C 0.62887 0.81652 0.31146 0.0
C1969 C 0.6714 0.81769 0.3574 0.0
C1970 C 0.67455 0.81595 0.33772 0.0
C1971 C 0.66014 0.81517 0.32329 0.0
C1972 C 0.69256 0.81513 0.33181 0.0
C1973 C 0.68616 0.8205 0.37412 0.0
C1974 C 0.69936 0.82555 0.31821 0.0
C1975 C 0.71595 0.82458 0.31241 0.0
C1976 C 0.72643 0.81335 0.32023 0.0
C1977 C 0.71964 0.80292 0.33378 0.0
C1978 C 0.70291 0.80356 0.3392 0.0
H1979 H 0.68286 0.82797 0.38745 0.0
H1980 H 0.68826 0.80723 0.37752 0.0
H1981 H 0.69865 0.82807 0.37065 0.0
H1982 H 0.69186 0.83457 0.31205 0.0
H1983 H 0.72063 0.83275 0.30187 0.0
H1984 H 0.02968 0.2832 0.46265 0.0
H1985 H 0.014 0.25758 0.47539 0.0
H1986 H 0.05792 0.26315 0.52071 0.0
H1987 H 0.07349 0.28897 0.50836 0.0
H1988 H 0.02285 0.22571 0.47916 0.0
H1989 H 0.01702 0.2607 0.5515 0.0
H1990 H 0.02311 0.27264 0.53199 0.0
H1991 H 0.03945 0.26462 0.54694 0.0
C1992 C 0.03597 0.279 0.47538 0.0
C1993 C 0.05279 0.28814 0.48457 0.0
C1994 C 0.02697 0.2644 0.48265 0.0
C1995 C 0.03462 0.25873 0.49925 0.0
C1996 C 0.05154 0.26764 0.50823 0.0
H1997 H 0.02963 0.15977 0.53764 0.0
H1998 H 0.03274 0.18584 0.52098 0.0
C1999 C 0.0605 0.28229 0.50104 0.0
C2000 C 0.02542 0.24293 0.50669 0.0
H2001 H 0.01471 0.22848 0.54855 0.0
C2002 C 0.02076 0.22636 0.49425 0.0
C2003 C 0.02223 0.24385 0.52622 0.0
C2004 C 0.02553 0.26147 0.53986 0.0
C2005 C 0.01426 0.21049 0.50121 0.0
C2006 C 0.01276 0.2112 0.52119 0.0
C2007 C 0.01612 0.22792 0.53328 0.0
C2008 C 0.00978 0.19475 0.53027 0.0
C2009 C 0.00946 0.19305 0.48719 0.0
C2010 C 0.99604 0.19128 0.54139 0.0
C2011 C 0.99437 0.17644 0.55122 0.0
C2012 C 1.0066 0.16504 0.55028 0.0
C2013 C 0.02018 0.16847 0.53891 0.0
C2014 C 0.0218 0.18321 0.52911 0.0
H2015 H 1.00519 0.19539 0.47223 0.0
H2016 H 0.02122 0.18681 0.48675 0.0
H2017 H 0.99877 0.18345 0.49165 0.0
H2018 H 0.98674 0.20017 0.54261 0.0
H2019 H 0.98382 0.17413 0.55993 0.0
H2020 H 0.54675 0.25839 0.15788 0.0
H2021 H 0.57496 0.26424 0.17949 0.0
H2022 H 0.55932 0.30827 0.21369 0.0
H2023 H 0.53082 0.30175 0.19287 0.0
H2024 H 0.60237 0.29155 0.19188 0.0
H2025 H 0.56663 0.27673 0.25373 0.0
H2026 H 0.55568 0.2731 0.22907 0.0
H2027 H 0.56096 0.29532 0.24311 0.0
C2028 C 0.54951 0.26944 0.16989 0.0
C2029 C 0.53664 0.27943 0.17405 0.0
C2030 C 0.56556 0.27278 0.18219 0.0
C2031 C 0.56896 0.28633 0.19854 0.0
C2032 C 0.55669 0.29734 0.20159 0.0
H2033 H 0.67252 0.30907 0.27033 0.0
H2034 H 0.64593 0.31376 0.25142 0.0
C2035 C 0.54051 0.29369 0.18965 0.0
C2036 C 0.58471 0.28807 0.21312 0.0
H2037 H 0.59749 0.2859 0.26081 0.0
C2038 C 0.60135 0.29039 0.20698 0.0
C2039 C 0.58325 0.28631 0.23276 0.0
C2040 C 0.56567 0.28255 0.24005 0.0
C2041 C 0.61658 0.29069 0.21987 0.0
C2042 C 0.61513 0.2892 0.23955 0.0
C2043 C 0.59854 0.28726 0.24577 0.0
C2044 C 0.63037 0.28783 0.25347 0.0
C2045 C 0.63394 0.29175 0.21205 0.0
C2046 C 0.62998 0.27226 0.26207 0.0
C2047 C 0.64499 0.26974 0.27335 0.0
C2048 C 0.66069 0.28269 0.2761 0.0
C2049 C 0.66064 0.29884 0.2686 0.0
C2050 C 0.64554 0.30144 0.25749 0.0
H2051 H 0.63207 0.28852 0.19594 0.0
H2052 H 0.64182 0.30561 0.21629 0.0
H2053 H 0.64161 0.28238 0.21812 0.0
H2054 H 0.6183 0.26169 0.25935 0.0
H2055 H 0.6445 0.25732 0.27927 0.0
H2056 H 0.58248 0.87651 0.01951 0.0
H2057 H 0.57621 0.89854 0.04517 0.0
H2058 H 0.58134 0.93861 0.00724 0.0
H2059 H 0.58839 0.9172 0.98217 0.0
H2060 H 0.5939 0.95354 0.04376 0.0
H2061 H 0.528 0.90974 0.04177 0.0
H2062 H 0.5471 0.90108 0.04956 0.0
H2063 H 0.54259 0.90444 0.02472 0.0
C2064 C 0.58258 0.89013 0.01682 0.0
C2065 C 0.58565 0.895 0.99866 0.0
C2066 C 0.57888 0.90266 0.03145 0.0
C2067 C 0.57785 0.92012 0.02797 0.0
C2068 C 0.58202 0.92523 0.01031 0.0
H2069 H 0.51161 0.98667 0.02585 0.0
H2070 H 0.52759 0.96245 0.02838 0.0
C2071 C 0.58597 0.91289 0.99589 0.0
C2072 C 0.57077 0.93279 0.0414 0.0
H2073 H 0.53151 0.93988 0.05458 0.0
C2074 C 0.58039 0.95051 0.04662 0.0
C2075 C 0.5532 0.92872 0.04536 0.0
C2076 C 0.54203 0.91002 0.04003 0.0
C2077 C 0.57228 0.96464 0.05331 0.0
C2078 C 0.55423 0.96075 0.05546 0.0
C2079 C 0.54531 0.94276 0.0527 0.0
C2080 C 0.54348 0.97486 0.05588 0.0
C2081 C 0.5826 0.9837 0.05605 0.0
C2082 C 0.5468 0.98979 0.07074 0.0
C2083 C 0.53775 1.00389 0.06916 0.0
C2084 C 0.52517 1.00306 0.05282 0.0
C2085 C 0.52127 0.9877 0.03856 0.0
C2086 C 0.53036 0.9738 0.04005 0.0
H2087 H 0.59594 0.9844 0.05172 0.0
H2088 H 0.57547 0.99196 0.04737 0.0
H2089 H 0.58418 0.98975 0.07158 0.0
H2090 H 0.55664 0.99075 0.08326 0.0
H2091 H 0.5409 0.01559 0.0804 0.0
H2092 H 0.94969 0.74272 0.70957 0.0
H2093 H 0.93013 0.75104 0.73204 0.0
H2094 H 0.91235 0.78644 0.69451 0.0
H2095 H 0.93274 0.77876 0.67213 0.0
H2096 H 0.92222 0.80362 0.72987 0.0
H2097 H 0.8792 0.73936 0.73534 0.0
H2098 H 0.90187 0.73762 0.73959 0.0
H2099 H 0.89262 0.74157 0.71615 0.0
C2100 C 0.94135 0.75197 0.70575 0.0
C2101 C 0.94292 0.76019 0.68906 0.0
C2102 C 0.92999 0.7566 0.71863 0.0
C2103 C 0.91956 0.7692 0.71492 0.0
C2104 C 0.92026 0.77663 0.69766 0.0
H2105 H 0.84747 0.79875 0.79369 0.0
H2106 H 0.8606 0.78653 0.76612 0.0
C2107 C 0.93185 0.77217 0.68483 0.0
C2108 C 0.90974 0.77616 0.73021 0.0
H2109 H 0.88255 0.76307 0.76275 0.0
C2110 C 0.91333 0.79475 0.73684 0.0
C2111 C 0.89804 0.76465 0.73929 0.0
C2112 C 0.89257 0.74472 0.73206 0.0
C2113 C 0.906 0.80209 0.75264 0.0
C2114 C 0.89523 0.79046 0.76246 0.0
C2115 C 0.89114 0.77194 0.75546 0.0
C2116 C 0.88752 0.79733 0.7796 0.0
C2117 C 0.90976 0.82224 0.75851 0.0
C2118 C 0.8983 0.80717 0.79649 0.0
C2119 C 0.89078 0.81409 0.8123 0.0
C2120 C 0.87242 0.81107 0.81139 0.0
C2121 C 0.86169 0.801 0.79468 0.0
C2122 C 0.86916 0.79409 0.77896 0.0
H2123 H 0.91396 0.8293 0.74646 0.0
H2124 H 0.89798 0.82694 0.76309 0.0
H2125 H 0.92058 0.82615 0.77094 0.0
H2126 H 0.91251 0.80952 0.79741 0.0
H2127 H 0.89921 0.82186 0.82511 0.0
H2128 H 0.1054 0.05493 0.85818 0.0
H2129 H 0.0908 0.05358 0.88675 0.0
H2130 H 0.13236 0.03137 0.9142 0.0
H2131 H 0.14746 0.03284 0.88512 0.0
H2132 H 0.07642 0.0267 0.90388 0.0
H2133 H 0.12949 0.07065 0.95786 0.0
H2134 H 0.13011 0.06881 0.93204 0.0
H2135 H 0.13571 0.05142 0.94499 0.0
C2136 C 0.11172 0.04977 0.87019 0.0
C2137 C 0.12795 0.04412 0.86895 0.0
C2138 C 0.10313 0.04896 0.88674 0.0
C2139 C 0.1103 0.04261 0.90317 0.0
C2140 C 0.12647 0.03671 0.9021 0.0
H2141 H 0.07006 0.03973 0.0175 0.0
H2142 H 0.08606 0.0346 0.98967 0.0
C2143 C 0.13512 0.03741 0.88526 0.0
C2144 C 0.10044 0.04213 0.92085 0.0
H2145 H 0.10355 0.05835 0.96963 0.0
C2146 C 0.08249 0.03361 0.91824 0.0
C2147 C 0.10798 0.05105 0.93988 0.0
C2148 C 0.12682 0.06115 0.94396 0.0
C2149 C 0.07213 0.03377 0.93365 0.0
C2150 C 0.07952 0.04304 0.95257 0.0
C2151 C 0.09758 0.05123 0.95533 0.0
C2152 C 0.06873 0.04477 0.96942 0.0
C2153 C 0.05329 0.02362 0.92946 0.0
C2154 C 0.0533 0.05205 0.96782 0.0
C2155 C 0.04401 0.05483 0.98382 0.0
C2156 C 0.04956 0.05021 1.00202 0.0
C2157 C 0.06483 0.04271 0.00358 0.0
C2158 C 0.07422 0.04004 0.98762 0.0
H2159 H 0.05128 0.01279 0.91673 0.0
H2160 H 0.04925 0.01754 0.94217 0.0
H2161 H 0.04453 0.03304 0.92605 0.0
H2162 H 0.04881 0.05639 0.95438 0.0
H2163 H 0.03289 0.06145 0.9822 0.0
H2164 H 0.7394 0.40613 0.62804 0.0
H2165 H 0.74898 0.39279 0.65626 0.0
H2166 H 0.72841 0.33978 0.62387 0.0
H2167 H 0.71871 0.35304 0.59551 0.0
H2168 H 0.72745 0.36844 0.67628 0.0
H2169 H 0.78013 0.33831 0.64583 0.0
H2170 H 0.77123 0.35582 0.63568 0.0
H2171 H 0.75884 0.33316 0.63111 0.0
C2172 C 0.7369 0.39162 0.62687 0.0
C2173 C 0.72829 0.38067 0.60944 0.0
C2174 C 0.7424 0.38401 0.64305 0.0
C2175 C 0.73964 0.36527 0.64217 0.0
C2176 C 0.73095 0.35427 0.62484 0.0
H2177 H 0.76713 0.29841 0.72927 0.0
H2178 H 0.75843 0.30934 0.69894 0.0
C2179 C 0.7253 0.36188 0.60866 0.0
C2180 C 0.7455 0.35737 0.65957 0.0
H2181 H 0.77456 0.33274 0.67709 0.0
C2182 C 0.73775 0.36064 0.67645 0.0
C2183 C 0.75884 0.34705 0.65978 0.0
C2184 C 0.76789 0.34342 0.64222 0.0
C2185 C 0.7429 0.35386 0.69346 0.0
C2186 C 0.75659 0.34392 0.69389 0.0
C2187 C 0.76416 0.34041 0.67688 0.0
C2188 C 0.76332 0.33735 0.71193 0.0
C2189 C 0.7333 0.35711 0.71068 0.0
C2190 C 0.76969 0.34946 0.72923 0.0
C2191 C 0.7746 0.34325 0.74656 0.0
C2192 C 0.77353 0.32477 0.74704 0.0
C2193 C 0.76817 0.31273 0.72947 0.0
C2194 C 0.76311 0.31896 0.71211 0.0
H2195 H 0.72002 0.35983 0.70619 0.0
H2196 H 0.73177 0.34542 0.71859 0.0
H2197 H 0.74091 0.36906 0.72085 0.0
H2198 H 0.77057 0.36375 0.72944 0.0
H2199 H 0.77892 0.35297 0.7597 0.0
H2200 H 0.48249 0.09026 0.34964 0.0
H2201 H 0.49118 0.08672 0.38299 0.0
H2202 H 0.45292 0.11691 0.40184 0.0
H2203 H 0.44358 0.12004 0.36794 0.0
H2204 H 0.50487 0.10904 0.41546 0.0
H2205 H 0.439 0.07165 0.42449 0.0
H2206 H 0.44426 0.07685 0.40126 0.0
H2207 H 0.4394 0.0939 0.41887 0.0
C2208 C 0.47586 0.09626 0.36078 0.0
C2209 C 0.46213 0.10529 0.35594 0.0
C2210 C 0.48095 0.09425 0.37997 0.0
C2211 C 0.47254 0.10124 0.39502 0.0
C2212 C 0.45935 0.111 0.39047 0.0
H2213 H 0.51687 0.09185 0.5149 0.0
H2214 H 0.50831 0.10472 0.48583 0.0
C2215 C 0.45413 0.11294 0.37109 0.0
C2216 C 0.47749 0.09758 0.41513 0.0
H2217 H 0.4616 0.07564 0.4508 0.0
C2218 C 0.49538 0.10188 0.42328 0.0
C2219 C 0.46517 0.08803 0.42529 0.0
C2220 C 0.44591 0.08217 0.41702 0.0
C2221 C 0.50135 0.09641 0.44084 0.0
C2222 C 0.48903 0.0868 0.45095 0.0
C2223 C 0.47107 0.08303 0.44313 0.0
C2224 C 0.4945 0.07932 0.46882 0.0
C2225 C 0.5209 0.1002 0.4478 0.0
C2226 C 0.48936 0.06083 0.46922 0.0
C2227 C 0.49399 0.05355 0.48589 0.0
C2228 C 0.50397 0.06454 0.50257 0.0
C2229 C 0.50932 0.08302 0.50218 0.0
C2230 C 0.50449 0.09037 0.48553 0.0
H2231 H 0.52872 0.10339 0.43598 0.0
H2232 H 0.52426 0.11196 0.45958 0.0
H2233 H 0.52493 0.08854 0.45363 0.0
H2234 H 0.4817 0.05197 0.45659 0.0
H2235 H 0.48966 0.03926 0.48573 0.0
H2236 H 0.76619 0.68008 0.03141 0.0
H2237 H 0.77361 0.70274 0.06045 0.0
H2238 H 0.7664 0.66113 0.09636 0.0
H2239 H 0.75827 0.63829 0.06719 0.0
H2240 H 0.74951 0.68637 0.10713 0.0
H2241 H 0.81695 0.71929 0.09955 0.0
H2242 H 0.80193 0.71907 0.07813 0.0
H2243 H 0.80595 0.69815 0.08498 0.0
C2244 C 0.76636 0.67571 0.04548 0.0
C2245 C 0.76162 0.6574 0.04704 0.0
C2246 C 0.7708 0.68869 0.06209 0.0
C2247 C 0.77098 0.68362 0.08059 0.0
C2248 C 0.76649 0.66532 0.08221 0.0
H2249 H 0.80144 0.76043 0.18832 0.0
H2250 H 0.802 0.73757 0.16059 0.0
C2251 C 0.76179 0.6523 0.06556 0.0
C2252 C 0.7741 0.69753 0.09806 0.0
H2253 H 0.80146 0.73664 0.12052 0.0
C2254 C 0.761 0.6972 0.1102 0.0
C2255 C 0.78922 0.71155 0.10222 0.0
C2256 C 0.80438 0.71193 0.09063 0.0
C2257 C 0.76223 0.71088 0.12592 0.0
C2258 C 0.77668 0.72557 0.12919 0.0
C2259 C 0.7902 0.72554 0.11764 0.0
C2260 C 0.77776 0.74103 0.14455 0.0
C2261 C 0.74802 0.70947 0.13887 0.0
C2262 C 0.76439 0.75105 0.1442 0.0
C2263 C 0.76386 0.76385 0.16009 0.0
C2264 C 0.77685 0.76702 0.17649 0.0
C2265 C 0.79102 0.75797 0.17608 0.0
C2266 C 0.79144 0.74503 0.16023 0.0
H2267 H 0.74094 0.69534 0.13789 0.0
H2268 H 0.75359 0.71474 0.15429 0.0
H2269 H 0.73823 0.71748 0.13422 0.0
H2270 H 0.75392 0.74838 0.13199 0.0
H2271 H 0.75272 0.77049 0.15991 0.0
H2272 H 0.11265 0.03869 0.76895 0.0
H2273 H 0.09563 0.04179 0.7383 0.0
H2274 H 0.1397 0.03499 0.70827 0.0
H2275 H 0.15691 0.03213 0.73894 0.0
H2276 H 0.10602 0.06847 0.71149 0.0
H2277 H 0.0958 0.99727 0.67624 0.0
H2278 H 0.10091 1.0039 0.70229 0.0
H2279 H 0.11786 0.00799 0.68725 0.0
C2280 C 0.11875 0.03776 0.75583 0.0
C2281 C 0.13623 0.03507 0.75656 0.0
C2282 C 0.10897 0.0396 0.73825 0.0
C2283 C 0.11622 0.03851 0.72077 0.0
C2284 C 0.13364 0.03573 0.72142 0.0
H2285 H 0.07454 0.03765 0.59855 0.0
H2286 H 0.09153 0.03502 0.62923 0.0
C2287 C 0.14352 0.03413 0.73905 0.0
C2288 C 0.10571 0.04055 0.702 0.0
H2289 H 0.08556 0.01754 0.65739 0.0
C2290 C 0.1015 0.05731 0.69968 0.0
C2291 C 0.09988 0.02612 0.68641 0.0
C2292 C 0.10368 0.00773 0.68806 0.0
C2293 C 0.09202 0.06011 0.68223 0.0
C2294 C 0.08585 0.04557 0.66666 0.0
C2295 C 0.09009 0.02879 0.66909 0.0
C2296 C 0.07527 0.04746 0.64773 0.0
C2297 C 0.08936 0.0789 0.68052 0.0
C2298 C 0.06012 0.05516 0.64739 0.0
C2299 C 0.05047 0.05695 0.62969 0.0
C2300 C 0.05536 0.05072 0.61166 0.0
C2301 C 0.07027 0.04266 0.61201 0.0
C2302 C 0.08005 0.04111 0.62969 0.0
H2303 H 0.09955 0.08917 0.69044 0.0
H2304 H 0.08979 0.08174 0.66545 0.0
H2305 H 0.07634 0.08041 0.68467 0.0
H2306 H 0.05556 0.05964 0.66084 0.0
H2307 H 0.03898 0.063 0.63017 0.0
H2308 H 0.7111 0.39719 0.47082 0.0
H2309 H 0.72057 0.38014 0.44348 0.0
H2310 H 0.73466 0.34249 0.48005 0.0
H2311 H 0.72522 0.35962 0.50776 0.0
H2312 H 0.75561 0.37372 0.44274 0.0
H2313 H 0.70544 0.31016 0.42974 0.0
H2314 H 0.70188 0.33076 0.44305 0.0
H2315 H 0.71606 0.31792 0.45436 0.0
C2316 C 0.71597 0.38515 0.47312 0.0
C2317 C 0.71734 0.37985 0.49165 0.0
C2318 C 0.72145 0.37542 0.45739 0.0
C2319 C 0.7283 0.35997 0.45959 0.0
C2320 C 0.72924 0.35425 0.47788 0.0
H2321 H 0.79188 0.31328 0.37835 0.0
H2322 H 0.78037 0.32441 0.40776 0.0
C2323 C 0.72383 0.36408 0.49374 0.0
C2324 C 0.73532 0.35063 0.44296 0.0
H2325 H 0.72831 0.31174 0.41026 0.0
C2326 C 0.74969 0.36012 0.43573 0.0
C2327 C 0.72754 0.33295 0.43365 0.0
C2328 C 0.71179 0.3223 0.44042 0.0
C2329 C 0.75646 0.35248 0.41954 0.0
C2330 C 0.74874 0.33477 0.41026 0.0
C2331 C 0.73433 0.32525 0.41744 0.0
C2332 C 0.75513 0.32631 0.39266 0.0
C2333 C 0.77157 0.36358 0.41214 0.0
C2334 C 0.74461 0.32311 0.3744 0.0
C2335 C 0.75118 0.31678 0.35755 0.0
C2336 C 0.76838 0.31335 0.35859 0.0
C2337 C 0.77859 0.31579 0.377 0.0
C2338 C 0.77205 0.32224 0.39383 0.0
H2339 H 0.77392 0.37801 0.41861 0.0
H2340 H 0.78377 0.35849 0.41592 0.0
H2341 H 0.76903 0.36245 0.39607 0.0
H2342 H 0.7315 0.32609 0.3731 0.0
H2343 H 0.74295 0.31504 0.34362 0.0
H2344 H 0.4772 0.11392 0.25825 0.0
H2345 H 0.49033 0.10605 0.22901 0.0
H2346 H 0.43961 0.09849 0.19393 0.0
H2347 H 0.42635 0.10636 0.2231 0.0
H2348 H 0.48013 0.07274 0.20268 0.0
H2349 H 0.47304 0.1313 0.16564 0.0
H2350 H 0.47174 0.13159 0.19123 0.0
H2351 H 0.45329 0.12025 0.17344 0.0
C2352 C 0.46886 0.11079 0.24429 0.0
C2353 C 0.45071 0.1108 0.24302 0.0
C2354 C 0.47639 0.10625 0.2276 0.0
C2355 C 0.466 0.10183 0.20926 0.0
C2356 C 0.44794 0.10211 0.20789 0.0
H2357 H 0.48208 0.06746 0.09129 0.0
H2358 H 0.47102 0.07708 0.12128 0.0
C2359 C 0.44036 0.10656 0.2246 0.0
C2360 C 0.47387 0.0961 0.19171 0.0
H2361 H 0.48194 0.10699 0.14746 0.0
C2362 C 0.48065 0.08027 0.19064 0.0
C2363 C 0.47447 0.10591 0.176 0.0
C2364 C 0.46789 0.12329 0.1766 0.0
C2365 C 0.48755 0.0737 0.17407 0.0
C2366 C 0.48813 0.0835 0.1583 0.0
C2367 C 0.48151 0.09945 0.1595 0.0
C2368 C 0.49504 0.07722 0.14018 0.0
C2369 C 0.49357 0.05601 0.17339 0.0
C2370 C 0.51231 0.07411 0.14069 0.0
C2371 C 0.51866 0.06839 0.12349 0.0
C2372 C 0.50796 0.06593 0.10539 0.0
C2373 C 0.49073 0.06919 0.10494 0.0
C2374 C 0.48436 0.07474 0.12211 0.0
H2375 H 0.48773 0.04791 0.18392 0.0
H2376 H 0.49002 0.04795 0.15862 0.0
H2377 H 0.5081 0.05863 0.17725 0.0
H2378 H 0.52099 0.07635 0.15437 0.0
H2379 H 0.53205 0.06621 0.12436 0.0
H2380 H 0.76995 0.69483 0.96539 0.0
H2381 H 0.76904 0.71797 0.94471 0.0
H2382 H 0.75237 0.67698 0.8942 0.0
H2383 H 0.7535 0.65363 0.91483 0.0
H2384 H 0.77783 0.7052 0.88845 0.0
H2385 H 0.72354 0.73057 0.92051 0.0
H2386 H 0.74215 0.73044 0.9381 0.0
H2387 H 0.72948 0.70954 0.9247 0.0
C2388 C 0.76622 0.6907 0.94986 0.0
C2389 C 0.76168 0.67239 0.94174 0.0
C2390 C 0.76556 0.70396 0.93809 0.0
C2391 C 0.76018 0.69917 0.91802 0.0
C2392 C 0.75636 0.68093 0.90972 0.0
H2393 H 0.72912 0.76616 0.8348 0.0
H2394 H 0.72898 0.74547 0.85866 0.0
C2395 C 0.75708 0.66762 0.9215 0.0
C2396 C 0.75865 0.71323 0.90569 0.0
H2397 H 0.73794 0.74813 0.8992 0.0
C2398 C 0.76907 0.71454 0.89075 0.0
C2399 C 0.74701 0.72523 0.90857 0.0
C2400 C 0.73477 0.72381 0.92371 0.0
C2401 C 0.76844 0.72778 0.87881 0.0
C2402 C 0.75734 0.74025 0.8822 0.0
C2403 C 0.74662 0.73871 0.89686 0.0
C2404 C 0.75656 0.75475 0.87032 0.0
C2405 C 0.77948 0.72809 0.86248 0.0
C2406 C 0.77181 0.76746 0.86981 0.0
C2407 C 0.77195 0.77913 0.85615 0.0
C2408 C 0.75678 0.77849 0.84298 0.0
C2409 C 0.74104 0.76693 0.84475 0.0
C2410 C 0.74095 0.75508 0.85832 0.0
H2411 H 0.78352 0.71502 0.8587 0.0
H2412 H 0.77221 0.7313 0.84924 0.0
H2413 H 0.79162 0.73859 0.86705 0.0
H2414 H 0.78387 0.76773 0.87931 0.0
H2415 H 0.78419 0.78795 0.85523 0.0
H2416 H 0.87722 0.1498 0.07527 0.0
H2417 H 0.90077 0.13393 0.06852 0.0
H2418 H 0.90386 0.15533 0.01495 0.0
H2419 H 0.88002 0.17144 0.02165 0.0
H2420 H 0.90193 0.11624 0.01194 0.0
H2421 H 0.9539 0.15499 0.07065 0.0
H2422 H 0.9331 0.14757 0.07864 0.0
H2423 H 0.93482 0.16356 0.06203 0.0
C2424 C 0.88302 0.15141 0.06215 0.0
C2425 C 0.87671 0.16203 0.04905 0.0
C2426 C 0.89655 0.14229 0.05832 0.0
C2427 C 0.9042 0.14344 0.04127 0.0
C2428 C 0.8982 0.15425 0.02823 0.0
H2429 H 0.9999 0.10238 0.02759 0.0
H2430 H 0.97693 0.1201 0.02623 0.0
C2431 C 0.88468 0.16359 0.03216 0.0
C2432 C 0.91807 0.13288 0.03711 0.0
H2433 H 0.95867 0.12684 0.05579 0.0
C2434 C 0.91443 0.11866 0.02139 0.0
C2435 C 0.93442 0.13602 0.04936 0.0
C2436 C 0.93942 0.15146 0.06602 0.0
C2437 C 0.92647 0.10726 0.01796 0.0
C2438 C 0.94255 0.11001 0.03069 0.0
C2439 C 0.94634 0.12455 0.04607 0.0
C2440 C 0.9558 0.09822 0.02845 0.0
C2441 C 0.92193 0.09246 1.00067 0.0
C2442 C 0.95163 0.07972 0.02953 0.0
C2443 C 0.96485 0.06938 0.03014 0.0
C2444 C 0.98254 0.07741 0.02992 0.0
C2445 C 0.98645 0.0957 0.02782 0.0
C2446 C 0.9733 0.10593 0.02711 0.0
H2447 H 0.91176 0.09512 0.98957 0.0
H2448 H 0.93378 0.09078 0.99379 0.0
H2449 H 0.9166 0.07962 0.00554 0.0
H2450 H 0.93832 0.07345 0.03093 0.0
H2451 H 0.9614 0.05545 0.03206 0.0
H2452 H 0.34797 0.53191 0.10014 0.0
H2453 H 0.37947 0.53721 0.09778 0.0
H2454 H 0.38422 0.49006 0.12375 0.0
H2455 H 0.3527 0.4846 0.12625 0.0
H2456 H 0.41198 0.53887 0.12806 0.0
H2457 H 0.39776 0.4821 0.06624 0.0
H2458 H 0.38083 0.49342 0.07415 0.0
H2459 H 0.38916 0.47817 0.08837 0.0
C2460 C 0.35574 0.52283 0.10569 0.0
C2461 C 0.34775 0.5077 0.11318 0.0
C2462 C 0.37374 0.52592 0.10437 0.0
C2463 C 0.38405 0.51392 0.11041 0.0
C2464 C 0.3764 0.4994 0.11892 0.0
H2465 H 0.48569 0.50066 0.07703 0.0
H2466 H 0.45839 0.49693 0.0915 0.0
C2467 C 0.3584 0.49634 0.12036 0.0
C2468 C 0.40232 0.51566 0.10606 0.0
H2469 H 0.42696 0.49781 0.0744 0.0
C2470 C 0.41537 0.52985 0.11645 0.0
C2471 C 0.40659 0.50381 0.09093 0.0
C2472 C 0.3929 0.48854 0.07914 0.0
C2473 C 0.43269 0.53253 0.11204 0.0
C2474 C 0.43686 0.52101 0.09646 0.0
C2475 C 0.4238 0.50663 0.08635 0.0
C2476 C 0.45437 0.52395 0.08972 0.0
C2477 C 0.44635 0.54756 0.12425 0.0
C2478 C 0.46126 0.54037 0.08397 0.0
C2479 C 0.47697 0.54255 0.07597 0.0
C2480 C 0.48588 0.52829 0.07321 0.0
C2481 C 0.47907 0.5119 0.07904 0.0
C2482 C 0.4635 0.50977 0.08731 0.0
H2483 H 0.44284 0.55087 0.13903 0.0
H2484 H 0.45959 0.54405 0.12566 0.0
H2485 H 0.44703 0.55981 0.11729 0.0
H2486 H 0.4542 0.55131 0.08502 0.0
H2487 H 0.48172 0.55511 0.07117 0.0
H2488 H 0.33537 0.60896 0.78107 0.0
H2489 H 0.32293 0.63637 0.78452 0.0
H2490 H 0.37505 0.66839 0.80261 0.0
H2491 H 0.38747 0.64111 0.79915 0.0
H2492 H 0.3221 0.66274 0.81477 0.0
H2493 H 0.35827 0.69643 0.76217 0.0
H2494 H 0.35772 0.67309 0.76415 0.0
H2495 H 0.37255 0.69051 0.78115 0.0
C2496 C 0.34427 0.6218 0.78572 0.0
C2497 C 0.36262 0.62241 0.78967 0.0
C2498 C 0.33706 0.63768 0.78776 0.0
C2499 C 0.34783 0.65502 0.79354 0.0
C2500 C 0.36615 0.65559 0.79766 0.0
H2501 H 0.33028 0.76823 0.81094 0.0
H2502 H 0.34227 0.74063 0.80812 0.0
C2503 C 0.37334 0.63974 0.79578 0.0
C2504 C 0.34 0.67226 0.79558 0.0
H2505 H 0.34272 0.71411 0.78146 0.0
C2506 C 0.32662 0.67387 0.80733 0.0
C2507 C 0.34562 0.68728 0.78617 0.0
C2508 C 0.3592 0.68676 0.77255 0.0
C2509 C 0.31927 0.68968 0.81025 0.0
C2510 C 0.32481 0.70469 0.80074 0.0
C2511 C 0.33817 0.70303 0.78895 0.0
C2512 C 0.31711 0.72206 0.80281 0.0
C2513 C 0.30606 0.69025 0.8243 0.0
C2514 C 0.29874 0.72169 0.80066 0.0
C2515 C 0.29177 0.7377 0.8025 0.0
C2516 C 0.30278 0.755 0.80633 0.0
C2517 C 0.32114 0.75541 0.80819 0.0
C2518 C 0.3281 0.73939 0.80646 0.0
H2519 H 0.30768 0.68104 0.83505 0.0
H2520 H 0.3073 0.70403 0.83232 0.0
H2521 H 0.29257 0.68581 0.81613 0.0
H2522 H 0.28957 0.70893 0.79717 0.0
H2523 H 0.2776 0.73644 0.80059 0.0
H2524 H 0.28388 0.64424 0.52549 0.0
H2525 H 0.25464 0.62593 0.52526 0.0
H2526 H 0.23718 0.67275 0.5511 0.0
H2527 H 0.26611 0.69119 0.55076 0.0
H2528 H 0.23881 0.61904 0.55546 0.0
H2529 H 0.1967 0.652 0.50897 0.0
H2530 H 0.22038 0.65648 0.51041 0.0
H2531 H 0.20995 0.66793 0.52853 0.0
C2532 C 0.27371 0.65067 0.53084 0.0
C2533 C 0.27726 0.66915 0.53811 0.0
C2534 C 0.25702 0.64019 0.53071 0.0
C2535 C 0.24362 0.64801 0.53788 0.0
C2536 C 0.24713 0.6665 0.54498 0.0
H2537 H 0.15741 0.5986 0.59058 0.0
H2538 H 0.18549 0.61324 0.58245 0.0
C2539 C 0.26373 0.67701 0.54492 0.0
C2540 C 0.22644 0.63665 0.53939 0.0
H2541 H 0.18201 0.63381 0.5301 0.0
C2542 C 0.22639 0.62212 0.54967 0.0
C2543 C 0.21021 0.64045 0.53156 0.0
C2544 C 0.2093 0.65494 0.51907 0.0
C2545 C 0.21059 0.61176 0.55304 0.0
C2546 C 0.19442 0.61641 0.54646 0.0
C2547 C 0.19442 0.63043 0.53544 0.0
C2548 C 0.17741 0.60727 0.55131 0.0
C2549 C 0.21141 0.59593 0.56359 0.0
C2550 C 0.16333 0.59955 0.53655 0.0
C2551 C 0.14708 0.59154 0.54117 0.0
C2552 C 0.1446 0.59108 0.56068 0.0
C2553 C 0.15877 0.59883 0.57542 0.0
C2554 C 0.17495 0.60697 0.57078 0.0
H2555 H 0.22359 0.59065 0.56177 0.0
H2556 H 0.21161 0.60028 0.57936 0.0
H2557 H 0.19984 0.58486 0.55833 0.0
H2558 H 0.16488 0.59979 0.52142 0.0
H2559 H 0.13638 0.58601 0.52945 0.0
H2560 H 0.68008 0.96184 0.79169 0.0
H2561 H 0.69715 0.93844 0.79545 0.0
H2562 H 0.65707 0.91081 0.8245 0.0
H2563 H 0.63949 0.93379 0.81981 0.0
H2564 H 0.71241 0.9278 0.82504 0.0
H2565 H 0.66177 0.8697 0.78639 0.0
H2566 H 0.65904 0.89256 0.78639 0.0
H2567 H 0.65457 0.88141 0.80687 0.0
C2568 C 0.67483 0.95072 0.79878 0.0
C2569 C 0.65833 0.94962 0.80529 0.0
C2570 C 0.68465 0.93733 0.80098 0.0
C2571 C 0.67836 0.92254 0.80996 0.0
C2572 C 0.66205 0.92168 0.81696 0.0
H2573 H 0.75244 0.85226 0.84246 0.0
H2574 H 0.73331 0.87444 0.84459 0.0
C2575 C 0.65204 0.93493 0.81441 0.0
C2576 C 0.68907 0.90832 0.81208 0.0
H2577 H 0.68777 0.86309 0.8021 0.0
C2578 C 0.70698 0.91365 0.82 0.0
C2579 C 0.68214 0.88979 0.80542 0.0
C2580 C 0.66338 0.88302 0.79562 0.0
C2581 C 0.71816 0.90117 0.82107 0.0
C2582 C 0.71117 0.88263 0.81468 0.0
C2583 C 0.69317 0.87725 0.80716 0.0
C2584 C 0.72247 0.86876 0.81405 0.0
C2585 C 0.73752 0.90813 0.82823 0.0
C2586 C 0.72239 0.85768 0.7964 0.0
C2587 C 0.73303 0.84484 0.79524 0.0
C2588 C 0.74421 0.84272 0.81169 0.0
C2589 C 0.74418 0.85366 0.82946 0.0
C2590 C 0.7333 0.86643 0.83066 0.0
H2591 H 0.74147 0.92272 0.82767 0.0
H2592 H 0.7404 0.90615 0.84356 0.0
H2593 H 0.74575 0.90082 0.81947 0.0
H2594 H 0.71418 0.85908 0.78335 0.0
H2595 H 0.73258 0.8367 0.78126 0.0
H2596 H 0.75808 0.02184 0.62253 0.0
H2597 H 0.73368 0.03401 0.60792 0.0
H2598 H 0.70379 0.9802 0.5881 0.0
H2599 H 0.72794 0.96793 0.60299 0.0
H2600 H 0.72042 0.0277 0.56865 0.0
H2601 H 0.66808 1.00536 0.61265 0.0
H2602 H 0.69101 1.00528 0.62016 0.0
H2603 H 0.67795 0.98774 0.60189 0.0
C2604 C 0.74618 0.01261 0.61538 0.0
C2605 C 0.74492 0.99394 0.61394 0.0
C2606 C 0.7323 0.01957 0.60697 0.0
C2607 C 0.7169 0.008 0.59704 0.0
C2608 C 0.71542 0.98937 0.59599 0.0
H2609 H 0.63685 0.03596 0.51501 0.0
H2610 H 0.6607 0.02281 0.52959 0.0
C2611 C 0.72927 0.98238 0.60448 0.0
C2612 C 0.70286 0.01547 0.58688 0.0
H2613 H 0.65961 0.01852 0.58519 0.0
C2614 C 0.70712 0.02571 0.57227 0.0
C2615 C 0.68554 0.01281 0.59164 0.0
C2616 C 0.68035 1.00233 0.60755 0.0
C2617 C 0.69451 0.03345 0.56233 0.0
C2618 C 0.67722 0.03075 0.56707 0.0
C2619 C 0.67291 0.02045 0.58159 0.0
C2620 C 0.66359 0.03924 0.55779 0.0
C2621 C 0.6998 0.04477 0.54713 0.0
C2622 C 0.65749 0.05283 0.56884 0.0
C2623 C 0.64401 0.06038 0.56058 0.0
C2624 C 0.63627 0.05435 0.54115 0.0
C2625 C 0.6426 0.04088 0.53 0.0
C2626 C 0.65621 0.03341 0.53827 0.0
H2627 H 0.71429 0.04776 0.54724 0.0
H2628 H 0.69352 0.03752 0.53254 0.0
H2629 H 0.69514 0.05766 0.54948 0.0
H2630 H 0.66301 0.05742 0.58396 0.0
H2631 H 0.63918 0.07046 0.56966 0.0
H2632 H 0.3392 0.51359 0.78713 0.0
H2633 H 0.32301 0.48365 0.79114 0.0
H2634 H 0.3704 0.46264 0.78864 0.0
H2635 H 0.38639 0.4919 0.78456 0.0
H2636 H 0.31817 0.44721 0.76688 0.0
H2637 H 0.35453 0.44873 0.83984 0.0
H2638 H 0.35415 0.4688 0.82902 0.0
H2639 H 0.36846 0.45393 0.82183 0.0
C2640 C 0.3462 0.50261 0.78738 0.0
C2641 C 0.36433 0.50562 0.78551 0.0
C2642 C 0.33686 0.48534 0.78966 0.0
C2643 C 0.34537 0.47054 0.79048 0.0
C2644 C 0.36334 0.47357 0.7884 0.0
H2645 H 0.32839 0.35864 0.81088 0.0
H2646 H 0.33881 0.38957 0.80619 0.0
C2647 C 0.37254 0.49058 0.78594 0.0
C2648 C 0.33596 0.452 0.79365 0.0
H2649 H 0.33785 0.42043 0.82408 0.0
C2650 C 0.32235 0.44147 0.77953 0.0
C2651 C 0.34127 0.44406 0.80999 0.0
C2652 C 0.35529 0.45447 0.82615 0.0
C2653 C 0.31458 0.42338 0.7809 0.0
C2654 C 0.32007 0.41532 0.79719 0.0
C2655 C 0.33342 0.4261 0.81148 0.0
C2656 C 0.31298 0.3957 0.79943 0.0
C2657 C 0.30113 0.41284 0.76429 0.0
C2658 C 0.29475 0.38802 0.79734 0.0
C2659 C 0.28866 0.36989 0.79987 0.0
C2660 C 0.30055 0.35879 0.80489 0.0
C2661 C 0.31868 0.36653 0.80706 0.0
C2662 C 0.32473 0.38447 0.8044 0.0
H2663 H 0.30219 0.41875 0.75073 0.0
H2664 H 0.30262 0.39863 0.76136 0.0
H2665 H 0.28772 0.41307 0.76804 0.0
H2666 H 0.2851 0.39611 0.7941 0.0
H2667 H 0.27461 0.36467 0.79819 0.0
H2668 H 0.13505 0.56789 0.28457 0.0
H2669 H 0.15758 0.59478 0.28613 0.0
H2670 H 0.19621 0.56944 0.31462 0.0
H2671 H 0.17372 0.54213 0.31274 0.0
H2672 H 0.17828 0.6172 0.31722 0.0
H2673 H 0.21969 0.58523 0.26914 0.0
H2674 H 0.19769 0.57428 0.27151 0.0
H2675 H 0.21567 0.57513 0.29032 0.0
C2676 C 0.14831 0.56796 0.29122 0.0
C2677 C 0.15257 0.55275 0.2984 0.0
C2678 C 0.16119 0.5834 0.29211 0.0
C2679 C 0.17865 0.58404 0.30021 0.0
C2680 C 0.18291 0.5691 0.30792 0.0
H2681 H 0.26634 0.67606 0.30443 0.0
H2682 H 0.24947 0.64741 0.31027 0.0
C2683 C 0.17 0.55355 0.30694 0.0
C2684 C 0.19218 0.60041 0.30028 0.0
H2685 H 0.22895 0.61623 0.28059 0.0
C2686 C 0.18945 0.61695 0.30936 0.0
C2687 C 0.20681 0.60007 0.29007 0.0
C2688 C 0.21015 0.58278 0.27956 0.0
C2689 C 0.20059 0.63318 0.30802 0.0
C2690 C 0.21476 0.63288 0.29719 0.0
C2691 C 0.21803 0.61635 0.28884 0.0
C2692 C 0.22535 0.64969 0.29307 0.0
C2693 C 0.19694 0.6506 0.31787 0.0
C2694 C 0.21746 0.66013 0.28107 0.0
C2695 C 0.22705 0.67631 0.27752 0.0
C2696 C 0.24476 0.68246 0.28598 0.0
C2697 C 0.25278 0.67167 0.29758 0.0
C2698 C 0.24316 0.65537 0.30104 0.0
H2699 H 0.18841 0.64837 0.32931 0.0
H2700 H 0.20942 0.65998 0.32452 0.0
H2701 H 0.19009 0.65712 0.30689 0.0
H2702 H 0.20381 0.65577 0.27451 0.0
H2703 H 0.22055 0.68405 0.26819 0.0
H2704 H 0.54372 0.78872 0.45271 0.0
H2705 H 0.54639 0.76551 0.47308 0.0
H2706 H 0.5352 0.725 0.42197 0.0
H2707 H 0.53217 0.74814 0.40149 0.0
H2708 H 0.51747 0.71407 0.45123 0.0
H2709 H 0.58789 0.7408 0.48026 0.0
H2710 H 0.57409 0.75689 0.48439 0.0
H2711 H 0.57683 0.74856 0.45994 0.0
C2712 C 0.5418 0.77487 0.44577 0.0
C2713 C 0.53783 0.77035 0.42541 0.0
C2714 C 0.54346 0.7616 0.45746 0.0
C2715 C 0.54136 0.74348 0.4491 0.0
C2716 C 0.53699 0.73887 0.42881 0.0
H2717 H 0.57559 0.65761 0.504 0.0
H2718 H 0.57159 0.68097 0.48422 0.0
C2719 C 0.53528 0.75214 0.41709 0.0
C2720 C 0.54366 0.72937 0.46149 0.0
H2721 H 0.57314 0.71718 0.49477 0.0
C2722 C 0.52965 0.71476 0.46073 0.0
C2723 C 0.55963 0.73006 0.47375 0.0
C2724 C 0.57554 0.74481 0.47454 0.0
C2725 C 0.53108 0.70103 0.47201 0.0
C2726 C 0.54688 0.702 0.48468 0.0
C2727 C 0.56096 0.71649 0.48526 0.0
C2728 C 0.54927 0.68787 0.497 0.0
C2729 C 0.51578 0.68538 0.46992 0.0
C2730 C 0.53826 0.68408 0.51107 0.0
C2731 C 0.54047 0.67063 0.52238 0.0
C2732 C 0.5538 0.66066 0.51996 0.0
C2733 C 0.56501 0.66476 0.5061 0.0
C2734 C 0.56281 0.67822 0.49483 0.0
H2735 H 0.50665 0.68426 0.45623 0.0
H2736 H 0.52045 0.67254 0.47014 0.0
H2737 H 0.50824 0.68732 0.48225 0.0
H2738 H 0.52793 0.69154 0.51332 0.0
H2739 H 0.5315 0.66781 0.53279 0.0
H2740 H 0.57448 0.30669 0.77256 0.0
H2741 H 0.60552 0.30868 0.78582 0.0
H2742 H 0.61706 0.29306 0.72811 0.0
H2743 H 0.58639 0.29144 0.71485 0.0
H2744 H 0.62604 0.28418 0.78634 0.0
H2745 H 0.65619 0.33581 0.7457 0.0
H2746 H 0.6328 0.33076 0.74652 0.0
H2747 H 0.64251 0.31704 0.72963 0.0
C2748 C 0.58366 0.30386 0.76267 0.0
C2749 C 0.57779 0.29905 0.74256 0.0
C2750 C 0.60148 0.30496 0.77029 0.0
C2751 C 0.61398 0.3014 0.75802 0.0
C2752 C 0.60803 0.29643 0.73798 0.0
H2753 H 0.7115 0.26499 0.78345 0.0
H2754 H 0.68129 0.26912 0.77667 0.0
C2755 C 0.59031 0.29537 0.73038 0.0
C2756 C 0.63299 0.30212 0.76606 0.0
H2757 H 0.67566 0.31852 0.75989 0.0
C2758 C 0.63684 0.29186 0.78065 0.0
C2759 C 0.64737 0.31236 0.75908 0.0
C2760 C 0.64453 0.32476 0.74453 0.0
C2761 C 0.65435 0.29094 0.78771 0.0
C2762 C 0.66866 0.30026 0.77982 0.0
C2763 C 0.66486 0.31115 0.76588 0.0
C2764 C 0.68741 0.29801 0.78499 0.0
C2765 C 0.6573 0.27997 0.80369 0.0
C2766 C 0.7014 0.31287 0.79171 0.0
C2767 C 0.71898 0.31051 0.79563 0.0
C2768 C 0.72303 0.29325 0.7927 0.0
C2769 C 0.70898 0.2785 0.7861 0.0
C2770 C 0.69154 0.28082 0.78228 0.0
H2771 H 0.64632 0.27898 0.81253 0.0
H2772 H 0.65788 0.26613 0.79713 0.0
H2773 H 0.66984 0.28583 0.81348 0.0
H2774 H 0.69874 0.32633 0.79381 0.0
H2775 H 0.72939 0.32219 0.80043 0.0
H2776 H 0.03532 0.36056 0.94189 0.0
H2777 H 0.03351 0.38713 0.9647 0.0
H2778 H 0.03707 0.41925 0.91877 0.0
H2779 H 0.0389 0.39285 0.89589 0.0
H2780 H 0.05796 0.42131 0.97487 0.0
H2781 H 0.99193 0.42831 0.94149 0.0
H2782 H 1.00024 0.40786 0.93673 0.0
H2783 H 0.00765 0.42664 0.92484 0.0
C2784 C 0.03574 0.37327 0.93662 0.0
C2785 C 0.03719 0.37449 0.91698 0.0
C2786 C 0.03472 0.38846 0.9497 0.0
C2787 C 0.03492 0.40515 0.94341 0.0
C2788 C 0.03661 0.40647 0.92391 0.0
H2789 H 0.05314 0.51341 0.00668 0.0
H2790 H 0.05463 0.48513 0.98683 0.0
C2791 C 0.03775 0.39134 0.91085 0.0
C2792 C 0.03347 0.42122 0.95719 0.0
H2793 H 0.00771 0.45235 0.96565 0.0
C2794 C 0.04694 0.42805 0.97291 0.0
C2795 C 0.01898 0.42991 0.95478 0.0
C2796 C 1.00377 0.42277 0.93866 0.0
C2797 C 0.04655 0.44361 0.98592 0.0
C2798 C 0.03237 0.45263 0.98311 0.0
C2799 C 0.01865 0.44551 0.96773 0.0
C2800 C 0.03169 0.46969 0.99574 0.0
C2801 C 0.06129 0.45024 1.00265 0.0
C2802 C 0.01818 0.47052 0.00725 0.0
C2803 C 0.0173 0.48672 0.01873 0.0
C2804 C 0.02978 0.50251 0.01871 0.0
C2805 C 0.04328 0.50158 0.0071 0.0
C2806 C 0.04423 0.48537 0.99579 0.0
H2807 H 0.06888 0.43967 0.00549 0.0
H2808 H 0.07049 0.46184 0.99915 0.0
H2809 H 0.05608 0.45484 0.01611 0.0
H2810 H 0.0083 0.45862 0.00736 0.0
H2811 H 1.00668 0.4869 0.02738 0.0
H2812 H 0.96139 0.80111 0.22258 0.0
H2813 H 0.93146 0.80303 0.22933 0.0
H2814 H 0.93944 0.7767 0.27927 0.0
H2815 H 0.96921 0.77485 0.27276 0.0
H2816 H 0.90237 0.77612 0.23159 0.0
H2817 H 0.9221 0.8206 0.30265 0.0
H2818 H 0.93754 0.81716 0.2859 0.0
H2819 H 0.93136 0.80075 0.30128 0.0
C2820 C 0.95684 0.79583 0.23508 0.0
C2821 C 0.96796 0.78793 0.24716 0.0
C2822 C 0.93963 0.79689 0.23891 0.0
C2823 C 0.93309 0.79028 0.25504 0.0
C2824 C 0.94413 0.78228 0.26698 0.0
H2825 H 0.8361 0.78243 0.30792 0.0
H2826 H 0.86525 0.78093 0.29883 0.0
C2827 C 0.96124 0.78115 0.26314 0.0
C2828 C 0.91472 0.7914 0.25928 0.0
H2829 H 0.89178 0.80683 0.29468 0.0
C2830 C 0.90009 0.78297 0.24534 0.0
C2831 C 0.9115 0.80026 0.27722 0.0
C2832 C 0.92644 0.81036 0.29256 0.0
C2833 C 0.88256 0.78268 0.24902 0.0
C2834 C 0.87934 0.79142 0.26706 0.0
C2835 C 0.89401 0.80002 0.28089 0.0
C2836 C 0.86101 0.79169 0.27204 0.0
C2837 C 0.86765 0.77241 0.23375 0.0
C2838 C 0.84857 0.79826 0.26017 0.0
C2839 C 0.83173 0.799 0.26531 0.0
C2840 C 0.82682 0.79339 0.28261 0.0
C2841 C 0.83925 0.7868 0.29445 0.0
C2842 C 0.85605 0.786 0.28927 0.0
H2843 H 0.87209 0.76223 0.22366 0.0
H2844 H 0.85665 0.76548 0.24045 0.0
H2845 H 0.86258 0.78192 0.225 0.0
H2846 H 0.85199 0.8032 0.24707 0.0
H2847 H 0.82267 0.80434 0.25587 0.0
H2848 H 0.48331 0.3 0.08599 0.0
H2849 H 0.49337 0.32618 0.07065 0.0
H2850 H 0.50315 0.36013 0.12656 0.0
H2851 H 0.49269 0.33417 0.14192 0.0
H2852 H 0.48788 0.37567 0.09821 0.0
H2853 H 0.54492 0.34933 0.07395 0.0
H2854 H 0.52398 0.33472 0.0651 0.0
H2855 H 0.53187 0.33922 0.09074 0.0
C2856 C 0.48738 0.31309 0.09497 0.0
C2857 C 0.4873 0.31502 0.11518 0.0
C2858 C 0.49329 0.32799 0.08622 0.0
C2859 C 0.49945 0.34499 0.09755 0.0
C2860 C 0.4986 0.34709 0.11758 0.0
H2861 H 0.54678 0.45171 0.0804 0.0
H2862 H 0.53723 0.42416 0.09351 0.0
C2863 C 0.49256 0.33224 0.12632 0.0
C2864 C 0.50697 0.36064 0.08869 0.0
H2865 H 0.54003 0.37651 0.06366 0.0
C2866 C 0.49929 0.37587 0.09068 0.0
C2867 C 0.52191 0.36085 0.07893 0.0
C2868 C 0.53128 0.34523 0.07718 0.0
C2869 C 0.50604 0.39126 0.08303 0.0
C2870 C 0.52098 0.39148 0.07332 0.0
C2871 C 0.52858 0.37623 0.07114 0.0
C2872 C 0.52882 0.40752 0.06538 0.0
C2873 C 0.49703 0.40712 0.08521 0.0
C2874 C 0.52805 0.40702 0.04525 0.0
C2875 C 0.53372 0.42272 0.03767 0.0
C2876 C 0.54029 0.43914 0.05015 0.0
C2877 C 0.54194 0.4393 0.07037 0.0
C2878 C 0.5363 0.42361 0.0779 0.0
H2879 H 0.48356 0.40335 0.08903 0.0
H2880 H 0.50484 0.41763 0.09699 0.0
H2881 H 0.49612 0.41304 0.07159 0.0
H2882 H 0.52246 0.39465 0.03539 0.0
H2883 H 0.53252 0.4221 0.02205 0.0
H2884 H 0.03649 0.38076 0.41714 0.0
H2885 H 1.00694 0.37705 0.39925 0.0
H2886 H 0.99109 0.32718 0.42063 0.0
H2887 H 0.02049 0.33089 0.43885 0.0
H2888 H 0.99188 0.34809 0.37012 0.0
H2889 H 0.95054 0.35313 0.42935 0.0
H2890 H 0.97418 0.36061 0.43357 0.0
H2891 H 0.96464 0.33707 0.43073 0.0
C2892 C 0.02664 0.36917 0.41835 0.0
C2893 C 0.03086 0.35609 0.42938 0.0
C2894 C 0.00979 0.36705 0.40807 0.0
C2895 C 0.99688 0.35188 0.40868 0.0
C2896 C 1.00082 0.33912 0.42022 0.0
H2897 H 0.90128 0.31403 0.32393 0.0
H2898 H 0.93016 0.31627 0.34318 0.0
C2899 C 0.01765 0.34126 0.43059 0.0
C2900 C 0.97971 0.34888 0.39619 0.0
H2901 H 0.93555 0.34466 0.39717 0.0
C2902 C 0.97954 0.34734 0.376 0.0
C2903 C 0.96371 0.34787 0.40399 0.0
C2904 C 0.9632 0.3499 0.4256 0.0
C2905 C 0.96375 0.34504 0.36334 0.0
C2906 C 0.94777 0.34405 0.37114 0.0
C2907 C 0.9479 0.34536 0.3913 0.0
C2908 C 0.93084 0.34279 0.35877 0.0
C2909 C 0.96431 0.34419 0.34181 0.0
C2910 C 0.92178 0.35694 0.36124 0.0
C2911 C 0.90535 0.35567 0.35043 0.0
C2912 C 0.89764 0.34018 0.33694 0.0
C2913 C 0.90689 0.32611 0.33424 0.0
C2914 C 0.92339 0.3274 0.34511 0.0
H2915 H 0.97791 0.34852 0.33856 0.0
H2916 H 0.95923 0.33016 0.33443 0.0
H2917 H 0.9558 0.35279 0.33557 0.0
H2918 H 0.92733 0.36889 0.37179 0.0
H2919 H 0.89842 0.36658 0.35319 0.0
H2920 H 0.97865 0.72713 0.58862 0.0
H2921 H 0.9811 0.70303 0.56288 0.0
H2922 H 0.99868 0.67277 0.60632 0.0
H2923 H 0.99617 0.69649 0.63196 0.0
H2924 H 0.01184 0.69011 0.55622 0.0
H2925 H 0.96018 0.63578 0.57024 0.0
H2926 H 0.96111 0.65917 0.5794 0.0
H2927 H 0.97438 0.64631 0.59227 0.0
C2928 C 0.98276 0.7152 0.59267 0.0
C2929 C 0.98717 0.7137 0.61236 0.0
C2930 C 0.9842 0.7015 0.57795 0.0
C2931 C 0.98983 0.68605 0.58273 0.0
C2932 C 0.99396 0.68443 0.60233 0.0
H2933 H 0.05102 0.61502 0.54996 0.0
H2934 H 0.03896 0.64231 0.55309 0.0
C2935 C 0.9926 0.69807 0.61699 0.0
C2936 C 0.99256 0.67189 0.56753 0.0
H2937 H 0.98455 0.62635 0.55592 0.0
C2938 C 1.00558 0.67617 0.55571 0.0
C2939 C 0.98404 0.6538 0.56645 0.0
C2940 C 0.96901 0.64852 0.57763 0.0
C2941 C 0.01149 0.66261 0.54425 0.0
C2942 C 1.00442 0.64439 0.54504 0.0
C2943 C 0.99021 0.64028 0.55541 0.0
C2944 C 0.01298 0.62946 0.53792 0.0
C2945 C 0.0256 0.66797 0.53196 0.0
C2946 C 1.00266 0.61319 0.52782 0.0
C2947 C 0.00947 0.5975 0.52649 0.0
C2948 C 0.02675 0.59791 0.53494 0.0
C2949 C 0.03769 0.61445 0.54312 0.0
C2950 C 0.0308 0.6301 0.5448 0.0
H2951 H 0.02403 0.68054 0.52628 0.0
H2952 H 0.0387 0.67068 0.54107 0.0
H2953 H 0.02534 0.65728 0.51952 0.0
H2954 H 0.98891 0.61234 0.52233 0.0
H2955 H 1.0009 0.58486 0.51996 0.0
H2956 H 0.61695 0.85569 0.91391 0.0
H2957 H 0.63095 0.85031 0.88484 0.0
H2958 H 0.63461 0.79719 0.8967 0.0
H2959 H 0.62061 0.80246 0.92594 0.0
H2960 H 0.66558 0.8173 0.88463 0.0
H2961 H 0.60381 0.81556 0.83545 0.0
H2962 H 0.61087 0.83513 0.85381 0.0
H2963 H 0.60412 0.8135 0.86084 0.0
C2964 C 0.62095 0.84294 0.9105 0.0
C2965 C 0.61758 0.82943 0.92212 0.0
C2966 C 0.62883 0.83986 0.89382 0.0
C2967 C 0.63345 0.82324 0.88847 0.0
C2968 C 0.63097 0.81006 0.90056 0.0
H2969 H 0.65717 0.77184 0.78055 0.0
H2970 H 0.64291 0.78181 0.80822 0.0
C2971 C 0.62304 0.81311 0.91726 0.0
C2972 C 0.64043 0.81942 0.86997 0.0
H2973 H 0.62932 0.81358 0.82064 0.0
C2974 C 0.6577 0.81652 0.87063 0.0
C2975 C 0.62999 0.81826 0.85177 0.0
C2976 C 0.61111 0.82062 0.8503 0.0
C2977 C 0.6649 0.81257 0.85352 0.0
C2978 C 0.65456 0.8117 0.83532 0.0
C2979 C 0.63723 0.81447 0.83464 0.0
C2980 C 0.6614 0.80712 0.81688 0.0
C2981 C 0.68338 0.80898 0.85504 0.0
C2982 C 0.67595 0.81847 0.8121 0.0
C2983 C 0.68418 0.81278 0.79644 0.0
C2984 C 0.67793 0.79566 0.78517 0.0
C2985 C 0.66246 0.78496 0.78909 0.0
C2986 C 0.65426 0.79067 0.80483 0.0
H2987 H 0.68809 0.80642 0.86979 0.0
H2988 H 0.68409 0.79723 0.84425 0.0
H2989 H 0.69247 0.82086 0.85197 0.0
H2990 H 0.68147 0.83136 0.82107 0.0
H2991 H 0.69615 0.82133 0.79405 0.0
H2992 H 0.39696 0.55586 0.70903 0.0
H2993 H 0.41506 0.55349 0.68267 0.0
H2994 H 0.46113 0.58095 0.72262 0.0
H2995 H 0.44327 0.58256 0.74901 0.0
H2996 H 0.43358 0.57426 0.66356 0.0
H2997 H 0.48209 0.54148 0.70087 0.0
H2998 H 0.46244 0.54492 0.71075 0.0
H2999 H 0.48166 0.56278 0.71462 0.0
C3000 C 0.41097 0.56131 0.71228 0.0
C3001 C 0.4185 0.56925 0.73148 0.0
C3002 C 0.42144 0.55998 0.69704 0.0
C3003 C 0.43988 0.56657 0.70029 0.0
C3004 C 0.44723 0.57502 0.71939 0.0
H3005 H 0.50112 0.58215 0.60026 0.0
H3006 H 0.48376 0.58653 0.62704 0.0
C3007 C 0.43685 0.57613 0.73463 0.0
C3008 C 0.45124 0.56483 0.68387 0.0
H3009 H 0.48978 0.55287 0.67242 0.0
C3010 C 0.44583 0.5695 0.66561 0.0
C3011 C 0.46727 0.55832 0.68583 0.0
C3012 C 0.47361 0.55141 0.70399 0.0
C3013 C 0.45577 0.56811 0.64981 0.0
C3014 C 0.4722 0.56238 0.65208 0.0
C3015 C 0.47749 0.55753 0.67029 0.0
C3016 C 0.48364 0.56037 0.63575 0.0
C3017 C 0.44805 0.57223 0.63059 0.0
C3018 C 0.49053 0.54467 0.63174 0.0
C3019 C 0.50092 0.54237 0.61669 0.0
C3020 C 0.50493 0.55563 0.60476 0.0
C3021 C 0.49839 0.57154 0.60892 0.0
C3022 C 0.48812 0.57394 0.62422 0.0
H3023 H 0.43351 0.57074 0.62937 0.0
H3024 H 0.45361 0.58636 0.62935 0.0
H3025 H 0.45114 0.56326 0.61822 0.0
H3026 H 0.48761 0.53385 0.64009 0.0
H3027 H 0.50555 0.52988 0.61415 0.0
H3028 H 0.82683 0.25472 0.01243 0.0
H3029 H 0.81855 0.26953 0.98481 0.0
H3030 H 0.81812 0.2212 0.94534 0.0
H3031 H 0.82665 0.20645 0.97276 0.0
H3032 H 0.83386 0.2515 0.93217 0.0
H3033 H 0.7694 0.26049 0.95408 0.0
H3034 H 0.78818 0.27036 0.97205 0.0
H3035 H 0.78248 0.24636 0.96517 0.0
C3036 C 0.82515 0.2473 0.99785 0.0
C3037 C 0.82737 0.22934 0.99487 0.0
C3038 C 0.82023 0.25574 0.98206 0.0
C3039 C 0.8173 0.24639 0.96294 0.0
C3040 C 0.82015 0.2287 0.95991 0.0
H3041 H 0.78159 0.25885 0.84553 0.0
H3042 H 0.79102 0.24897 0.87595 0.0
C3043 C 0.82508 0.22027 0.97565 0.0
C3044 C 0.81119 0.25483 0.94603 0.0
H3045 H 0.77705 0.27221 0.92602 0.0
C3046 C 0.82146 0.25606 0.93088 0.0
C3047 C 0.79501 0.26088 0.94428 0.0
C3048 C 0.78302 0.25935 0.95966 0.0
C3049 C 0.81601 0.26302 0.91411 0.0
C3050 C 0.79965 0.26866 0.91216 0.0
C3051 C 0.78956 0.26787 0.92748 0.0
C3052 C 0.79253 0.27458 0.89392 0.0
C3053 C 0.8279 0.26434 0.89862 0.0
C3054 C 0.78938 0.29209 0.89389 0.0
C3055 C 0.78383 0.29784 0.87637 0.0
C3056 C 0.78122 0.28613 0.85855 0.0
C3057 C 0.7836 0.26836 0.85886 0.0
C3058 C 0.78912 0.26267 0.87629 0.0
H3059 H 0.84176 0.26437 0.90453 0.0
H3060 H 0.82335 0.25255 0.88696 0.0
H3061 H 0.82756 0.2767 0.89203 0.0
H3062 H 0.79176 0.30149 0.90734 0.0
H3063 H 0.78217 0.3116 0.87675 0.0
H3064 H 0.07446 0.4858 0.24171 0.0
H3065 H 0.06181 0.4941 0.21134 0.0
H3066 H 0.1135 0.50517 0.19417 0.0
H3067 H 0.12624 0.49692 0.22441 0.0
H3068 H 0.09401 0.53363 0.19272 0.0
H3069 H 0.05458 0.46795 0.15412 0.0
H3070 H 0.05151 0.47438 0.17892 0.0
H3071 H 0.07231 0.46956 0.17369 0.0
C3072 C 0.08311 0.48971 0.23133 0.0
C3073 C 0.10139 0.49067 0.23554 0.0
C3074 C 0.07583 0.49441 0.21393 0.0
C3075 C 0.08668 0.50015 0.20038 0.0
C3076 C 0.10486 0.50073 0.20436 0.0
H3077 H 0.08326 0.54513 0.09481 0.0
H3078 H 0.09017 0.53342 0.1248 0.0
C3079 C 0.11212 0.49596 0.22167 0.0
C3080 C 0.07939 0.5067 0.18267 0.0
H3081 H 0.05296 0.49335 0.13876 0.0
C3082 C 0.085 0.52482 0.18095 0.0
C3083 C 0.06743 0.49528 0.16743 0.0
C3084 C 0.06113 0.47566 0.16844 0.0
C3085 C 0.0792 0.53179 0.16436 0.0
C3086 C 0.0678 0.52023 0.14872 0.0
C3087 C 0.06174 0.50221 0.15067 0.0
C3088 C 0.0631 0.52642 0.12984 0.0
C3089 C 0.0853 0.55155 0.16381 0.0
C3090 C 0.04546 0.52571 0.12209 0.0
C3091 C 0.04141 0.53228 0.10464 0.0
C3092 C 0.05496 0.53961 0.0947 0.0
C3093 C 0.07251 0.53977 0.10222 0.0
C3094 C 0.07651 0.53316 0.11947 0.0
H3095 H 0.08889 0.55941 0.17869 0.0
H3096 H 0.0972 0.55345 0.15644 0.0
H3097 H 0.07498 0.55711 0.15572 0.0
H3098 H 0.03486 0.52039 0.12971 0.0
H3099 H 0.02778 0.53186 0.0991 0.0
H3100 H 0.77056 0.96256 0.53646 0.0
H3101 H 0.76624 0.93874 0.50823 0.0
H3102 H 0.79066 0.90555 0.5436 0.0
H3103 H 0.795 0.92904 0.57179 0.0
H3104 H 0.80393 0.91259 0.50547 0.0
H3105 H 0.73182 0.88638 0.50093 0.0
H3106 H 0.7398 0.91037 0.50462 0.0
H3107 H 0.74524 0.89776 0.52343 0.0
C3108 C 0.775 0.95019 0.53821 0.0
C3109 C 0.78312 0.94768 0.55635 0.0
C3110 C 0.77241 0.93659 0.52215 0.0
C3111 C 0.77798 0.92043 0.52404 0.0
C3112 C 0.78617 0.91793 0.54201 0.0
H3113 H 0.79277 0.82978 0.44502 0.0
H3114 H 0.79059 0.85011 0.4741 0.0
C3115 C 0.78865 0.93139 0.55806 0.0
C3116 C 0.77617 0.90635 0.50709 0.0
H3117 H 0.74658 0.87268 0.47737 0.0
C3118 C 0.79142 0.90385 0.49927 0.0
C3119 C 0.75978 0.89514 0.49917 0.0
C3120 C 0.74316 0.89738 0.50743 0.0
C3121 C 0.79073 0.89038 0.48348 0.0
C3122 C 0.7744 0.87882 0.47577 0.0
C3123 C 0.75908 0.88145 0.4835 0.0
C3124 C 0.77302 0.86438 0.45917 0.0
C3125 C 0.80744 0.88896 0.47495 0.0
C3126 C 0.76283 0.86486 0.44152 0.0
C3127 C 0.7637 0.85298 0.42495 0.0
C3128 C 0.77489 0.84052 0.42577 0.0
C3129 C 0.78403 0.83919 0.44384 0.0
C3130 C 0.78297 0.85095 0.46045 0.0
H3131 H 0.81752 0.90158 0.47913 0.0
H3132 H 0.81309 0.878 0.48047 0.0
H3133 H 0.80478 0.88583 0.45884 0.0
H3134 H 0.75487 0.875 0.44034 0.0
H3135 H 0.7561 0.85399 0.41134 0.0
H3136 H 0.45307 0.58224 0.84173 0.0
H3137 H 0.46677 0.58218 0.87486 0.0
H3138 H 0.4164 0.55833 0.88925 0.0
H3139 H 0.40246 0.55933 0.85615 0.0
H3140 H 0.43413 0.57963 0.92017 0.0
H3141 H 0.48017 0.53909 0.8923 0.0
H3142 H 0.48304 0.56019 0.88354 0.0
H3143 H 0.46248 0.54423 0.87654 0.0
C3144 C 0.44481 0.5774 0.8521 0.0
C3145 C 0.42661 0.57095 0.84625 0.0
C3146 C 0.45274 0.57705 0.87104 0.0
C3147 C 0.44289 0.56958 0.88465 0.0
C3148 C 0.42448 0.564 0.87916 0.0
H3149 H 0.49718 0.5321 0.98421 0.0
H3150 H 0.48067 0.5348 0.95324 0.0
C3151 C 0.41644 0.56471 0.86021 0.0
C3152 C 0.4519 0.56723 0.90421 0.0
H3153 H 0.48673 0.55175 0.92585 0.0
C3154 C 0.44557 0.57343 0.92135 0.0
C3155 C 0.46665 0.55872 0.90611 0.0
C3156 C 0.47335 0.55 0.88863 0.0
C3157 C 0.45368 0.57178 0.94001 0.0
C3158 C 0.46909 0.56428 0.94194 0.0
C3159 C 0.47516 0.55776 0.92475 0.0
C3160 C 0.47893 0.56265 0.96139 0.0
C3161 C 0.44516 0.57764 0.95738 0.0
C3162 C 0.48386 0.57734 0.97667 0.0
C3163 C 0.49303 0.57567 0.99466 0.0
C3164 C 0.49809 0.5594 0.99783 0.0
C3165 C 0.49359 0.54485 0.98241 0.0
C3166 C 0.48409 0.54642 0.96457 0.0
H3167 H 0.43085 0.57702 0.95324 0.0
H3168 H 0.44682 0.56915 0.96885 0.0
H3169 H 0.45129 0.59181 0.96351 0.0
H3170 H 0.48083 0.59027 0.97468 0.0
H3171 H 0.49644 0.58728 0.00601 0.0
H3172 H 0.80934 0.1988 0.12154 0.0
H3173 H 0.80402 0.21735 0.15016 0.0
H3174 H 0.83421 0.2642 0.13302 0.0
H3175 H 0.83904 0.24557 0.1035 0.0
H3176 H 0.8244 0.23582 0.1803 0.0
H3177 H 0.79128 0.28316 0.14363 0.0
H3178 H 0.79627 0.26329 0.13041 0.0
H3179 H 0.81324 0.28309 0.13833 0.0
C3180 C 0.81493 0.21305 0.12371 0.0
C3181 C 0.82465 0.22062 0.11003 0.0
C3182 C 0.81184 0.22371 0.14023 0.0
C3183 C 0.81845 0.24232 0.14383 0.0
C3184 C 0.82853 0.24997 0.13045 0.0
H3185 H 0.81249 0.29587 0.2621 0.0
H3186 H 0.82394 0.28477 0.2327 0.0
C3187 C 0.83145 0.23927 0.11363 0.0
C3188 C 0.81477 0.25325 0.16177 0.0
H3189 H 0.79579 0.28837 0.17794 0.0
C3190 C 0.8182 0.24736 0.17974 0.0
C3191 C 0.80647 0.26823 0.16119 0.0
C3192 C 0.80143 0.27475 0.14235 0.0
C3193 C 0.81323 0.25557 0.19686 0.0
C3194 C 0.80518 0.27074 0.19637 0.0
C3195 C 0.80207 0.27689 0.17848 0.0
C3196 C 0.7989 0.27961 0.21392 0.0
C3197 C 0.81586 0.24723 0.21505 0.0
C3198 C 0.78126 0.28165 0.2131 0.0
C3199 C 0.77482 0.28851 0.22981 0.0
C3200 C 0.78582 0.29335 0.24783 0.0
C3201 C 0.80364 0.2921 0.24849 0.0
C3202 C 0.81016 0.28555 0.23169 0.0
H3203 H 0.81727 0.23302 0.21165 0.0
H3204 H 0.82812 0.25478 0.22438 0.0
H3205 H 0.80467 0.24763 0.22344 0.0
H3206 H 0.77226 0.27734 0.19964 0.0
H3207 H 0.76102 0.28929 0.22876 0.0
H3208 H 0.06494 0.51111 0.33677 0.0
H3209 H 0.05583 0.51613 0.36876 0.0
H3210 H 0.10389 0.50328 0.39478 0.0
H3211 H 0.11312 0.49793 0.36246 0.0
H3212 H 0.07344 0.48852 0.41059 0.0
H3213 H 0.07738 0.56115 0.4083 0.0
H3214 H 0.0637 0.54702 0.38763 0.0
H3215 H 0.08693 0.54708 0.39152 0.0
C3216 C 0.07361 0.50923 0.34923 0.0
C3217 C 0.0899 0.50431 0.34701 0.0
C3218 C 0.06838 0.5122 0.36757 0.0
C3219 C 0.07936 0.51054 0.38425 0.0
C3220 C 0.09528 0.50482 0.38211 0.0
H3221 H 0.06686 0.53022 0.50739 0.0
H3222 H 0.07757 0.52215 0.4767 0.0
C3223 C 0.10052 0.50173 0.36363 0.0
C3224 C 0.07419 0.51521 0.4038 0.0
H3225 H 0.06276 0.5493 0.43316 0.0
C3226 C 0.07127 0.50185 0.41563 0.0
C3227 C 0.07137 0.53262 0.4104 0.0
C3228 C 0.07517 0.54785 0.3989 0.0
C3229 C 0.06501 0.50526 0.43354 0.0
C3230 C 0.06181 0.52258 0.43991 0.0
C3231 C 0.06505 0.536 0.42822 0.0
C3232 C 0.05511 0.52713 0.45862 0.0
C3233 C 0.06134 0.49016 0.44522 0.0
C3234 C 0.03908 0.53305 0.45878 0.0
C3235 C 0.03292 0.5378 0.47636 0.0
C3236 C 0.04275 0.53687 0.4942 0.0
C3237 C 0.05887 0.53105 0.49397 0.0
C3238 C 0.06499 0.52628 0.47639 0.0
H3239 H 0.06021 0.47681 0.43623 0.0
H3240 H 0.07234 0.49181 0.45727 0.0
H3241 H 0.04901 0.49036 0.45166 0.0
H3242 H 0.03129 0.53394 0.44525 0.0
H3243 H 0.02049 0.54224 0.47596 0.0
H3244 H 0.78742 0.94928 0.68665 0.0
H3245 H 0.78698 0.92577 0.70719 0.0
H3246 H 0.80111 0.89059 0.66083 0.0
H3247 H 0.80076 0.9137 0.64 0.0
H3248 H 0.77631 0.8726 0.6772 0.0
H3249 H 0.82872 0.91183 0.735 0.0
H3250 H 0.8105 0.92289 0.73133 0.0
H3251 H 0.82362 0.91942 0.71215 0.0
C3252 C 0.79052 0.93657 0.68092 0.0
C3253 C 0.79424 0.93335 0.66181 0.0
C3254 C 0.79034 0.92317 0.69267 0.0
C3255 C 0.79435 0.90653 0.68568 0.0
C3256 C 0.79801 0.90332 0.66655 0.0
H3257 H 0.82335 0.83745 0.76637 0.0
H3258 H 0.82276 0.85473 0.73949 0.0
C3259 C 0.79787 0.91656 0.6547 0.0
C3260 C 0.79465 0.8924 0.69818 0.0
H3261 H 0.81251 0.88469 0.74218 0.0
C3262 C 0.78434 0.87517 0.69136 0.0
C3263 C 0.80536 0.89567 0.71649 0.0
C3264 C 0.81781 0.9134 0.72408 0.0
C3265 C 0.78425 0.8612 0.70247 0.0
C3266 C 0.79433 0.86473 0.72116 0.0
C3267 C 0.80474 0.88193 0.72786 0.0
C3268 C 0.7943 0.85109 0.73434 0.0
C3269 C 0.77366 0.84276 0.69386 0.0
C3270 C 0.77849 0.84256 0.73981 0.0
C3271 C 0.77883 0.83216 0.75476 0.0
C3272 C 0.795 0.83065 0.76478 0.0
C3273 C 0.81074 0.83842 0.75873 0.0
C3274 C 0.81039 0.84835 0.74348 0.0
H3275 H 0.77189 0.84081 0.67771 0.0
H3276 H 0.78002 0.832 0.69883 0.0
H3277 H 0.76037 0.8413 0.69839 0.0
H3278 H 0.76593 0.84481 0.73339 0.0
H3279 H 0.76655 0.82656 0.75948 0.0
H3280 H 0.64839 0.41346 0.56072 0.0
H3281 H 0.6266 0.43287 0.56411 0.0
H3282 H 0.66796 0.4798 0.57019 0.0
H3283 H 0.68952 0.4607 0.56645 0.0
H3284 H 0.62369 0.45947 0.59391 0.0
H3285 H 0.63343 0.48963 0.52745 0.0
H3286 H 0.64196 0.47006 0.53237 0.0
H3287 H 0.65349 0.49217 0.5438 0.0
C3288 C 0.65279 0.42791 0.56268 0.0
C3289 C 0.67071 0.43546 0.5631 0.0
C3290 C 0.64033 0.43901 0.56466 0.0
C3291 C 0.64552 0.45787 0.56701 0.0
C3292 C 0.66346 0.46535 0.56786 0.0
H3293 H 0.58919 0.54787 0.57523 0.0
H3294 H 0.61231 0.52985 0.57748 0.0
C3295 C 0.67583 0.45433 0.56582 0.0
C3296 C 0.63237 0.46983 0.56884 0.0
H3297 H 0.61659 0.50332 0.54896 0.0
C3298 C 0.62209 0.46899 0.58401 0.0
C3299 C 0.63029 0.48242 0.55605 0.0
C3300 C 0.64025 0.48355 0.53889 0.0
C3301 C 0.61004 0.48045 0.58688 0.0
C3302 C 0.60793 0.49299 0.57405 0.0
C3303 C 0.61828 0.4939 0.55895 0.0
C3304 C 0.59421 0.50436 0.5751 0.0
C3305 C 0.5999 0.4792 0.60388 0.0
C3306 C 0.57636 0.49619 0.57331 0.0
C3307 C 0.56324 0.50643 0.57213 0.0
C3308 C 0.56753 0.52517 0.57255 0.0
C3309 C 0.58543 0.53353 0.57511 0.0
C3310 C 0.59864 0.5232 0.57623 0.0
H3311 H 0.60697 0.47367 0.61562 0.0
H3312 H 0.59753 0.49255 0.60999 0.0
H3313 H 0.58696 0.47001 0.59895 0.0
H3314 H 0.57245 0.48173 0.57198 0.0
H3315 H 0.54962 0.49951 0.57017 0.0
H3316 H 0.18515 0.13985 0.47677 0.0
H3317 H 0.15609 0.12894 0.48552 0.0
H3318 H 0.1677 0.07596 0.48492 0.0
H3319 H 0.19687 0.08675 0.47632 0.0
H3320 H 0.1272 0.09956 0.46844 0.0
H3321 H 0.15881 0.09187 0.54141 0.0
H3322 H 0.17058 0.10441 0.52527 0.0
H3323 H 0.16617 0.08029 0.52085 0.0
C3324 C 0.18142 0.12581 0.4782 0.0
C3325 C 0.19338 0.11421 0.47612 0.0
C3326 C 0.16481 0.1196 0.48317 0.0
C3327 C 0.15992 0.10175 0.48617 0.0
C3328 C 0.17138 0.08986 0.48293 0.0
H3329 H 0.06286 0.05358 0.5277 0.0
H3330 H 0.08915 0.05713 0.51119 0.0
C3331 C 0.188 0.09604 0.47794 0.0
C3332 C 0.14342 0.09606 0.4941 0.0
H3333 H 0.12783 0.08492 0.53535 0.0
C3334 C 0.12729 0.09617 0.48297 0.0
C3335 C 0.14367 0.09181 0.51315 0.0
C3336 C 0.16071 0.09218 0.52599 0.0
C3337 C 0.11138 0.0923 0.49054 0.0
C3338 C 0.11171 0.08834 0.50964 0.0
C3339 C 0.12774 0.08786 0.52063 0.0
C3340 C 0.09568 0.08606 0.51903 0.0
C3341 C 0.0943 0.09286 0.47838 0.0
C3342 C 0.09086 0.10117 0.52886 0.0
C3343 C 0.076 0.09919 0.53833 0.0
C3344 C 0.0658 0.08205 0.5381 0.0
C3345 C 0.0706 0.06691 0.52816 0.0
C3346 C 0.08552 0.06891 0.51871 0.0
H3347 H 0.09612 0.09503 0.46333 0.0
H3348 H 0.08472 0.08009 0.47775 0.0
H3349 H 0.0885 0.10391 0.48525 0.0
H3350 H 0.09867 0.11448 0.52928 0.0
H3351 H 0.07254 0.11106 0.54587 0.0
H3352 H 0.22077 1.00026 0.81504 0.0
H3353 H 0.23362 0.9731 0.81259 0.0
H3354 H 0.18215 0.94042 0.8105 0.0
H3355 H 0.1693 0.96741 0.81262 0.0
H3356 H 0.23709 0.9472 0.83389 0.0
H3357 H 0.19609 0.91204 0.76541 0.0
H3358 H 0.19631 0.93523 0.77451 0.0
H3359 H 0.18304 0.91746 0.78394 0.0
C3360 C 0.21209 0.98731 0.814 0.0
C3361 C 0.19378 0.98644 0.81395 0.0
C3362 C 0.21954 0.97157 0.8126 0.0
C3363 C 0.20908 0.9541 0.81086 0.0
C3364 C 0.19082 0.9533 0.81117 0.0
H3365 H 0.22823 0.84154 0.8005 0.0
H3366 H 0.21599 0.86897 0.8028 0.0
C3367 C 0.18338 0.969 0.8126 0.0
C3368 C 0.21718 0.93699 0.80911 0.0
H3369 H 0.2131 0.89472 0.78246 0.0
C3370 C 0.23181 0.93585 0.8225 0.0
C3371 C 0.21066 0.92167 0.79441 0.0
C3372 C 0.19579 0.92167 0.77864 0.0
C3373 C 0.23954 0.92023 0.82198 0.0
C3374 C 0.23302 0.90489 0.80727 0.0
C3375 C 0.21841 0.90607 0.79386 0.0
C3376 C 0.2409 0.88763 0.80563 0.0
C3377 C 0.25431 0.92019 0.83786 0.0
C3378 C 0.25921 0.88811 0.80599 0.0
C3379 C 0.26634 0.87219 0.80471 0.0
C3380 C 0.25555 0.85487 0.80274 0.0
C3381 C 0.23722 0.85436 0.80196 0.0
C3382 C 0.2301 0.87028 0.8033 0.0
H3383 H 0.25393 0.92981 0.85107 0.0
H3384 H 0.25372 0.90662 0.842 0.0
H3385 H 0.26711 0.9244 0.83267 0.0
H3386 H 0.26815 0.90088 0.8071 0.0
H3387 H 0.28046 0.87351 0.80528 0.0
H3388 H 0.27643 0.93519 0.07581 0.0
H3389 H 0.30772 0.94972 0.08158 0.0
H3390 H 0.2977 0.98444 0.03971 0.0
H3391 H 0.26665 0.97034 0.03408 0.0
H3392 H 0.33099 0.95096 0.05522 0.0
H3393 H 0.32636 0.02007 0.08506 0.0
H3394 H 0.30843 1.00112 0.08357 0.0
H3395 H 0.31166 0.01215 0.06274 0.0
C3396 C 0.28088 0.94605 0.06799 0.0
C3397 C 0.26901 0.95162 0.05451 0.0
C3398 C 0.29874 0.95434 0.07133 0.0
C3399 C 0.30494 0.96841 0.06138 0.0
C3400 C 0.29312 0.97396 0.04797 0.0
H3401 H 0.39832 1.00244 0.01661 0.0
H3402 H 0.37051 0.98773 0.02532 0.0
C3403 C 0.27535 0.96574 0.04464 0.0
C3404 C 0.32394 0.97652 0.06366 0.0
H3405 H 0.35216 0.01708 0.06951 0.0
C3406 C 0.33572 0.96538 0.05875 0.0
C3407 C 0.3302 0.99529 0.06865 0.0
C3408 C 0.31851 0.00781 0.07552 0.0
C3409 C 0.35327 0.97266 0.05725 0.0
C3410 C 0.35903 0.99156 0.06038 0.0
C3411 C 0.34764 1.0026 0.06676 0.0
C3412 C 0.37623 1.00014 0.05553 0.0
C3413 C 0.36535 0.96006 0.05191 0.0
C3414 C 0.38845 0.01245 0.06948 0.0
C3415 C 0.40437 0.02098 0.0645 0.0
C3416 C 0.40826 0.01739 0.04545 0.0
C3417 C 0.39587 1.00522 0.03149 0.0
C3418 C 0.37999 0.99675 0.03646 0.0
H3419 H 0.36113 0.9468 0.05651 0.0
H3420 H 0.36491 0.95777 0.03588 0.0
H3421 H 0.37918 0.96575 0.05864 0.0
H3422 H 0.3857 0.01538 0.08423 0.0
H3423 H 0.41371 0.0302 0.07561 0.0
H3424 H 0.87254 0.63837 0.78185 0.0
H3425 H 0.85518 0.66167 0.77935 0.0
H3426 H 0.89802 0.7009 0.8138 0.0
H3427 H 0.91577 0.67766 0.81575 0.0
H3428 H 0.84294 0.68172 0.80571 0.0
H3429 H 0.88774 0.72736 0.76982 0.0
H3430 H 0.89074 0.7049 0.77221 0.0
H3431 H 0.89818 0.72297 0.79232 0.0
C3432 C 0.87834 0.65197 0.78887 0.0
C3433 C 0.89562 0.65613 0.79895 0.0
C3434 C 0.86836 0.66532 0.7874 0.0
C3435 C 0.87533 0.68321 0.79603 0.0
C3436 C 0.89247 0.68736 0.80648 0.0
H3437 H 0.83193 0.779 0.81568 0.0
H3438 H 0.84999 0.75618 0.81421 0.0
C3439 C 0.90257 0.67401 0.80777 0.0
C3440 C 0.86435 0.69724 0.79456 0.0
H3441 H 0.86379 0.73868 0.78149 0.0
C3442 C 0.84748 0.69409 0.80024 0.0
C3443 C 0.87016 0.71344 0.78737 0.0
C3444 C 0.88761 0.71732 0.77989 0.0
C3445 C 0.8365 0.70674 0.79937 0.0
C3446 C 0.84244 0.72301 0.7925 0.0
C3447 C 0.85924 0.72618 0.78672 0.0
C3448 C 0.83174 0.73725 0.79215 0.0
C3449 C 0.81879 0.70284 0.8063 0.0
C3450 C 0.81557 0.73444 0.77987 0.0
C3451 C 0.8052 0.74765 0.7805 0.0
C3452 C 0.81078 0.76392 0.79349 0.0
C3453 C 0.82718 0.76675 0.80541 0.0
C3454 C 0.83757 0.75367 0.80463 0.0
H3455 H 0.81748 0.69125 0.81439 0.0
H3456 H 0.81662 0.71479 0.81585 0.0
H3457 H 0.80825 0.69965 0.79358 0.0
H3458 H 0.8109 0.72193 0.76994 0.0
H3459 H 0.79267 0.74495 0.77113 0.0
H3460 H 0.81163 0.62287 0.99135 0.0
H3461 H 0.84032 0.61685 0.0039 0.0
H3462 H 0.81488 0.56477 0.01414 0.0
H3463 H 0.78629 0.57062 1.00176 0.0
H3464 H 0.83608 0.58921 0.04775 0.0
H3465 H 0.87165 0.58094 0.98365 0.0
H3466 H 0.86075 0.59972 0.9869 0.0
H3467 H 0.84789 0.57732 0.98115 0.0
C3468 C 0.81221 0.60992 0.99571 0.0
C3469 C 0.79667 0.59726 0.99569 0.0
C3470 C 0.8286 0.60653 1.00292 0.0
C3471 C 0.82964 0.5904 0.01 0.0
C3472 C 0.8143 0.57732 0.0088 0.0
H3473 H 0.90003 0.53764 0.07252 0.0
H3474 H 0.8751 0.54921 0.05823 0.0
C3475 C 0.79798 0.58069 1.00167 0.0
C3476 C 0.84628 0.58767 0.02045 0.0
H3477 H 0.88643 0.57807 0.01394 0.0
C3478 C 0.84715 0.58687 0.0404 0.0
C3479 C 0.86073 0.58492 0.01085 0.0
C3480 C 0.86033 0.58566 0.98943 0.0
C3481 C 0.86196 0.58291 0.05097 0.0
C3482 C 0.87608 0.57924 0.04118 0.0
C3483 C 0.87551 0.58076 0.02137 0.0
C3484 C 0.89114 0.57291 0.05096 0.0
C3485 C 0.86235 0.58271 0.0725 0.0
C3486 C 0.90841 0.5823 0.05144 0.0
C3487 C 0.92268 0.57561 0.05939 0.0
C3488 C 0.91994 0.55934 0.06694 0.0
C3489 C 0.90258 0.55015 0.06676 0.0
C3490 C 0.88833 0.55685 0.05878 0.0
H3491 H 0.85355 0.59116 0.07872 0.0
H3492 H 0.85764 0.56874 0.07496 0.0
H3493 H 0.8759 0.58758 0.08044 0.0
H3494 H 0.91087 0.59465 0.04535 0.0
H3495 H 0.93587 0.58286 0.05894 0.0
H3496 H 0.16871 0.11621 0.80991 0.0
H3497 H 0.18521 0.14583 0.80845 0.0
H3498 H 0.23381 0.127 0.81797 0.0
H3499 H 0.21701 0.09656 0.819 0.0
H3500 H 0.20658 0.17034 0.83299 0.0
H3501 H 0.24484 0.15306 0.77382 0.0
H3502 H 0.22714 0.13699 0.77981 0.0
H3503 H 0.24844 0.14195 0.79447 0.0
C3504 C 0.18293 0.11806 0.81167 0.0
C3505 C 0.19127 0.10343 0.81453 0.0
C3506 C 0.19249 0.13535 0.81085 0.0
C3507 C 0.211 0.13918 0.81277 0.0
C3508 C 0.21957 0.12473 0.81591 0.0
H3509 H 0.2806 0.24641 0.80851 0.0
H3510 H 0.27023 0.21496 0.81316 0.0
C3511 C 0.20989 0.10717 0.81673 0.0
C3512 C 0.2207 0.15834 0.81187 0.0
H3513 H 0.25006 0.18363 0.78802 0.0
C3514 C 0.2161 0.17306 0.82312 0.0
C3515 C 0.23336 0.16252 0.79917 0.0
C3516 C 0.23867 0.14785 0.78598 0.0
C3517 C 0.22337 0.19124 0.82194 0.0
C3518 C 0.23563 0.19543 0.80889 0.0
C3519 C 0.2407 0.18079 0.79804 0.0
C3520 C 0.24245 0.21475 0.80572 0.0
C3521 C 0.21783 0.2059 0.83496 0.0
C3522 C 0.23062 0.22551 0.7997 0.0
C3523 C 0.23655 0.24345 0.79697 0.0
C3524 C 0.25462 0.25158 0.8001 0.0
C3525 C 0.26659 0.24084 0.80599 0.0
C3526 C 0.26061 0.22271 0.80861 0.0
H3527 H 0.21303 0.20099 0.84798 0.0
H3528 H 0.22889 0.21759 0.83985 0.0
H3529 H 0.2069 0.21053 0.82681 0.0
H3530 H 0.21661 0.21998 0.79691 0.0
H3531 H 0.22679 0.25102 0.79235 0.0
H3532 H 0.38043 0.06873 0.30648 0.0
H3533 H 0.35923 0.04174 0.30933 0.0
H3534 H 0.38783 0.00899 0.27544 0.0
H3535 H 0.40929 0.03577 0.27288 0.0
H3536 H 0.33721 0.01483 0.28249 0.0
H3537 H 0.38743 0.98709 0.32507 0.0
H3538 H 0.39142 0.00994 0.3203 0.0
H3539 H 0.39319 0.9918 0.30198 0.0
C3540 C 0.38215 0.0558 0.29951 0.0
C3541 C 0.3967 0.05439 0.28967 0.0
C3542 C 0.37001 0.04039 0.30116 0.0
C3543 C 0.37219 0.02333 0.29299 0.0
C3544 C 0.38617 0.02198 0.28231 0.0
H3545 H 0.31978 0.91363 0.29037 0.0
H3546 H 0.33747 0.94173 0.28476 0.0
C3547 C 0.39838 0.03733 0.28078 0.0
C3548 C 0.36017 0.00691 0.29609 0.0
H3549 H 0.35956 0.96777 0.31455 0.0
C3550 C 0.34206 1.00458 0.28959 0.0
C3551 C 0.36653 0.9936 0.30548 0.0
C3552 C 0.38567 0.99577 0.31379 0.0
C3553 C 0.3302 0.98904 0.29178 0.0
C3554 C 0.33664 0.97564 0.30086 0.0
C3555 C 0.3547 0.97805 0.30751 0.0
C3556 C 0.32498 0.95882 0.30342 0.0
C3557 C 0.31096 0.98686 0.28397 0.0
C3558 C 0.31209 0.95914 0.31581 0.0
C3559 C 0.30189 0.94306 0.31903 0.0
C3560 C 0.30441 0.92641 0.30989 0.0
C3561 C 0.31727 0.92622 0.29738 0.0
C3562 C 0.32748 0.94225 0.29424 0.0
H3563 H 0.30871 0.99654 0.27391 0.0
H3564 H 0.3056 0.97299 0.2762 0.0
H3565 H 0.30347 0.98924 0.29627 0.0
H3566 H 0.31016 0.9718 0.32327 0.0
H3567 H 0.29204 0.94367 0.32866 0.0
H3568 H 0.52107 0.35845 0.70187 0.0
H3569 H 0.51777 0.38121 0.68098 0.0
H3570 H 0.51412 0.34153 0.6302 0.0
H3571 H 0.51766 0.31878 0.65097 0.0
H3572 H 0.53574 0.3735 0.62759 0.0
H3573 H 0.4723 0.38606 0.64914 0.0
H3574 H 0.48959 0.389 0.66924 0.0
H3575 H 0.48145 0.36709 0.65505 0.0
C3576 C 0.51958 0.35456 0.68625 0.0
C3577 C 0.51955 0.33673 0.67813 0.0
C3578 C 0.51757 0.36758 0.67431 0.0
C3579 C 0.51537 0.36306 0.65396 0.0
C3580 C 0.51569 0.34536 0.64583 0.0
H3581 H 0.47654 0.42659 0.56993 0.0
H3582 H 0.48066 0.40347 0.59005 0.0
C3583 C 0.51771 0.33234 0.65776 0.0
C3584 C 0.51287 0.37677 0.64112 0.0
H3585 H 0.48619 0.40586 0.62965 0.0
C3586 C 0.52489 0.38055 0.62803 0.0
C3587 C 0.49856 0.38581 0.64142 0.0
C3588 C 0.48463 0.3817 0.65432 0.0
C3589 C 0.52317 0.39328 0.61553 0.0
C3590 C 0.50919 0.40276 0.61629 0.0
C3591 C 0.497 0.39876 0.62915 0.0
C3592 C 0.50688 0.41679 0.60382 0.0
C3593 C 0.53617 0.3962 0.60135 0.0
C3594 C 0.52015 0.43213 0.60492 0.0
C3595 C 0.51781 0.44541 0.59345 0.0
C3596 C 0.50207 0.44378 0.58066 0.0
C3597 C 0.48876 0.42843 0.57969 0.0
C3598 C 0.49113 0.41514 0.59116 0.0
H3599 H 0.54281 0.38461 0.59876 0.0
H3600 H 0.5296 0.39837 0.58719 0.0
H3601 H 0.54647 0.40831 0.60738 0.0
H3602 H 0.53224 0.434 0.6149 0.0
H3603 H 0.52823 0.45718 0.59495 0.0
H3604 H 0.47836 0.82336 0.32571 0.0
H3605 H 0.44661 0.82048 0.31759 0.0
H3606 H 0.43845 0.79552 0.36824 0.0
H3607 H 0.47047 0.79868 0.37672 0.0
H3608 H 0.41865 0.79266 0.30892 0.0
H3609 H 0.41155 0.83559 0.37661 0.0
H3610 H 0.43278 0.83375 0.36963 0.0
H3611 H 0.42073 0.81627 0.38048 0.0
C3612 C 0.4699 0.81717 0.33518 0.0
C3613 C 0.47723 0.81137 0.35202 0.0
C3614 C 0.4516 0.81549 0.33044 0.0
C3615 C 0.43987 0.80806 0.34239 0.0
C3616 C 0.44707 0.8017 0.35891 0.0
H3617 H 0.32284 0.78684 0.3054 0.0
H3618 H 0.35323 0.7821 0.3129 0.0
C3619 C 0.46547 0.80337 0.36369 0.0
C3620 C 0.42034 0.80747 0.33761 0.0
H3621 H 0.38558 0.82295 0.35492 0.0
C3622 C 0.41142 0.79919 0.31907 0.0
C3623 C 0.41071 0.81613 0.35063 0.0
C3624 C 0.41941 0.82609 0.37038 0.0
C3625 C 0.39347 0.79948 0.31321 0.0
C3626 C 0.38387 0.80813 0.32625 0.0
C3627 C 0.39273 0.81619 0.34486 0.0
C3628 C 0.36519 0.8104 0.32052 0.0
C3629 C 0.38516 0.79113 0.29278 0.0
C3630 C 0.36147 0.82777 0.32224 0.0
C3631 C 0.3442 0.83044 0.31802 0.0
C3632 C 0.3299 0.81586 0.31193 0.0
C3633 C 0.33351 0.7984 0.30978 0.0
C3634 C 0.35096 0.7957 0.31408 0.0
H3635 H 0.39519 0.78864 0.28327 0.0
H3636 H 0.37644 0.77804 0.29315 0.0
H3637 H 0.377 0.79988 0.28623 0.0
H3638 H 0.372 0.83941 0.32706 0.0
H3639 H 0.34203 0.8441 0.31992 0.0
H3640 H 0.01627 0.74708 0.16116 0.0
H3641 H 0.01636 0.72045 0.13748 0.0
H3642 H 0.0157 0.68806 0.18322 0.0
H3643 H 0.01577 0.71454 0.20702 0.0
H3644 H 0.04505 0.69367 0.1464 0.0
H3645 H 0.97301 0.66508 0.13214 0.0
H3646 H 0.98146 0.68903 0.13809 0.0
H3647 H 0.98311 0.67509 0.15653 0.0
C3648 C 0.01597 0.73427 0.16618 0.0
C3649 C 0.01602 0.733 0.18605 0.0
C3650 C 0.01608 0.71908 0.15262 0.0
C3651 C 0.01604 0.70231 0.15862 0.0
C3652 C 0.01571 0.70089 0.17831 0.0
H3653 H 0.00852 0.59263 0.10529 0.0
H3654 H 1.00702 0.62086 0.12505 0.0
C3655 C 0.01575 0.71607 0.19189 0.0
C3656 C 0.01691 0.68632 0.14451 0.0
H3657 H 0.99163 0.64786 0.11774 0.0
C3658 C 0.03339 0.68369 0.13996 0.0
C3659 C 1.00169 0.6733 0.13635 0.0
C3660 C 0.98373 0.67563 0.14088 0.0
C3661 C 0.03513 0.66812 0.1278 0.0
C3662 C 0.01987 0.655 0.11954 0.0
C3663 C 1.00334 0.65785 0.12395 0.0
C3664 C 0.02079 0.63787 0.10707 0.0
C3665 C 0.05339 0.66557 0.12461 0.0
C3666 C 0.02885 0.63787 0.09013 0.0
C3667 C 0.02994 0.62164 0.07885 0.0
C3668 C 0.0227 0.60503 0.08407 0.0
C3669 C 0.01427 0.60511 0.10077 0.0
C3670 C 0.01336 0.6213 0.11212 0.0
H3671 H 0.06365 0.67412 0.13604 0.0
H3672 H 0.05459 0.65133 0.12443 0.0
H3673 H 0.05611 0.66946 0.1104 0.0
H3674 H 0.03425 0.65042 0.08554 0.0
H3675 H 0.03635 0.62213 0.06597 0.0
H3676 H 0.07878 0.31172 0.83563 0.0
H3677 H 0.10798 0.31131 0.82566 0.0
H3678 H 0.1314 0.32132 0.88575 0.0
H3679 H 0.10244 0.3219 0.89578 0.0
H3680 H 0.14023 0.33934 0.83527 0.0
H3681 H 0.14962 0.27646 0.86251 0.0
H3682 H 0.12824 0.28233 0.85832 0.0
H3683 H 0.14342 0.29295 0.87968 0.0
C3684 C 0.09012 0.31379 0.84674 0.0
C3685 C 0.08809 0.31679 0.86655 0.0
C3686 C 0.10688 0.31358 0.841 0.0
C3687 C 0.12204 0.31607 0.8549 0.0
C3688 C 0.12001 0.3191 0.87467 0.0
H3689 H 0.23414 0.31324 0.85165 0.0
H3690 H 0.20503 0.31463 0.86102 0.0
C3691 C 0.10335 0.3195 0.88039 0.0
C3692 C 0.13999 0.31578 0.84889 0.0
H3693 H 0.17416 0.29319 0.85166 0.0
C3694 C 0.14759 0.32917 0.83876 0.0
C3695 C 0.14985 0.30269 0.85355 0.0
C3696 C 0.14238 0.28768 0.86398 0.0
C3697 C 0.16472 0.33006 0.83358 0.0
C3698 C 0.17456 0.31682 0.83802 0.0
C3699 C 0.16687 0.3034 0.84815 0.0
C3700 C 0.19268 0.31654 0.8323 0.0
C3701 C 0.17231 0.34566 0.82401 0.0
C3702 C 0.19583 0.31702 0.81296 0.0
C3703 C 0.21262 0.31645 0.80762 0.0
C3704 C 0.22683 0.31502 0.82133 0.0
C3705 C 0.22366 0.31437 0.84064 0.0
C3706 C 0.20689 0.31513 0.84602 0.0
H3707 H 0.16603 0.35738 0.82754 0.0
H3708 H 0.18674 0.34999 0.82856 0.0
H3709 H 0.16977 0.34157 0.808 0.0
H3710 H 0.18519 0.3175 0.8018 0.0
H3711 H 0.21433 0.31672 0.79255 0.0
H3712 H 0.53521 0.7807 0.96248 0.0
H3713 H 0.52203 0.75515 0.97703 0.0
H3714 H 0.55971 0.77401 0.02901 0.0
H3715 H 0.57319 0.79949 0.01445 0.0
H3716 H 0.55723 0.73823 0.01475 0.0
H3717 H 0.49059 0.75294 0.01964 0.0
H3718 H 0.49703 0.75271 0.99586 0.0
H3719 H 0.50885 0.76957 0.01559 0.0
C3720 C 0.54063 0.77949 0.97707 0.0
C3721 C 0.55527 0.79211 0.98732 0.0
C3722 C 0.53297 0.76496 0.98542 0.0
C3723 C 0.5397 0.76286 0.00422 0.0
C3724 C 0.55424 0.77548 0.01453 0.0
H3725 H 0.51885 0.68184 0.07795 0.0
H3726 H 0.52574 0.71029 0.06553 0.0
C3727 C 0.56194 0.79 0.00618 0.0
C3728 C 0.53239 0.74686 0.01263 0.0
H3729 H 0.49483 0.72402 0.02582 0.0
C3730 C 0.54363 0.73521 0.01732 0.0
C3731 C 0.51459 0.7429 0.01581 0.0
C3732 C 0.50208 0.75526 0.01163 0.0
C3733 C 0.53753 0.71961 0.02493 0.0
C3734 C 0.51978 0.71567 0.02811 0.0
C3735 C 0.50846 0.7272 0.02338 0.0
C3736 C 0.51296 0.69943 0.03626 0.0
C3737 C 0.55001 0.70725 0.02928 0.0
C3738 C 0.50295 0.68417 0.02401 0.0
C3739 C 0.49894 0.6679 0.03106 0.0
C3740 C 0.50488 0.6667 0.05048 0.0
C3741 C 0.51397 0.68234 0.06299 0.0
C3742 C 0.518 0.69858 0.05591 0.0
H3743 H 0.56263 0.71094 0.0235 0.0
H3744 H 0.55296 0.70789 0.04525 0.0
H3745 H 0.54382 0.69313 0.02294 0.0
H3746 H 0.49896 0.68464 0.0088 0.0
H3747 H 0.49173 0.65612 0.02115 0.0
H3748 H 0.02972 0.80337 0.69964 0.0
H3749 H 0.05807 0.80977 0.72065 0.0
H3750 H 0.07989 0.77945 0.67645 0.0
H3751 H 0.0517 0.77363 0.65508 0.0
H3752 H 0.07155 0.78427 0.73447 0.0
H3753 H 0.12034 0.82082 0.69514 0.0
H3754 H 0.0969 0.81841 0.68818 0.0
H3755 H 0.10798 0.80064 0.68021 0.0
C3756 C 0.04071 0.79845 0.69425 0.0
C3757 C 0.03857 0.7879 0.67585 0.0
C3758 C 0.05688 0.80214 0.70623 0.0
C3759 C 0.07112 0.79521 0.70008 0.0
C3760 C 0.06922 0.78533 0.68132 0.0
H3761 H 0.16131 0.7619 0.74743 0.0
H3762 H 0.13504 0.76803 0.72931 0.0
C3763 C 0.05308 0.78188 0.66917 0.0
C3764 C 0.08702 0.79613 0.71416 0.0
H3765 H 0.13192 0.80488 0.71972 0.0
C3766 C 0.08475 0.78916 0.73145 0.0
C3767 C 0.10421 0.80252 0.71019 0.0
C3768 C 0.10749 0.81119 0.6925 0.0
C3769 C 0.09923 0.7875 0.74438 0.0
C3770 C 0.11633 0.79298 0.73985 0.0
C3771 C 0.11869 0.80064 0.72302 0.0
C3772 C 0.13183 0.78923 0.75141 0.0
C3773 C 0.09619 0.77907 0.76228 0.0
C3774 C 0.13846 0.79903 0.76994 0.0
C3775 C 0.15342 0.79544 0.78048 0.0
C3776 C 0.16185 0.78199 0.77258 0.0
C3777 C 0.15491 0.77207 0.75411 0.0
C3778 C 0.14005 0.77569 0.74362 0.0
H3779 H 0.08197 0.77413 0.76281 0.0
H3780 H 0.10312 0.76766 0.76276 0.0
H3781 H 0.1017 0.78914 0.77545 0.0
H3782 H 0.13221 0.80956 0.7761 0.0
H3783 H 0.1585 0.80328 0.79467 0.0
H3784 H 0.07317 0.37723 0.5169 0.0
H3785 H 0.06809 0.4037 0.53701 0.0
H3786 H 0.11472 0.43545 0.52197 0.0
H3787 H 0.11921 0.40912 0.50066 0.0
H3788 H 0.08175 0.43135 0.56563 0.0
H3789 H 0.077 0.45557 0.49408 0.0
H3790 H 0.08026 0.43328 0.49643 0.0
H3791 H 0.09841 0.45219 0.50309 0.0
C3792 C 0.08269 0.38969 0.51832 0.0
C3793 C 0.09629 0.39126 0.50675 0.0
C3794 C 0.07978 0.40486 0.5299 0.0
C3795 C 0.09063 0.42171 0.53038 0.0
C3796 C 0.10581 0.42269 0.52122 0.0
H3797 H 0.04846 0.5171 0.57569 0.0
H3798 H 0.06815 0.49532 0.57531 0.0
C3799 C 0.10843 0.40763 0.50915 0.0
C3800 C 0.08408 0.43817 0.53708 0.0
H3801 H 0.06801 0.47241 0.51959 0.0
C3802 C 0.07898 0.44054 0.5557 0.0
C3803 C 0.08025 0.45001 0.52397 0.0
C3804 C 0.0841 0.44762 0.50324 0.0
C3805 C 0.06938 0.45382 0.56118 0.0
C3806 C 0.06516 0.46517 0.5478 0.0
C3807 C 0.07128 0.46359 0.52976 0.0
C3808 C 0.05242 0.47711 0.55065 0.0
C3809 C 0.0629 0.45493 0.58065 0.0
C3810 C 0.03698 0.47391 0.53724 0.0
C3811 C 0.02622 0.48651 0.53702 0.0
C3812 C 0.03055 0.50251 0.55037 0.0
C3813 C 0.04518 0.5051 0.5649 0.0
C3814 C 0.05625 0.49256 0.56487 0.0
H3815 H 0.06544 0.44368 0.58835 0.0
H3816 H 0.06968 0.46778 0.5899 0.0
H3817 H 0.04854 0.45481 0.57884 0.0
H3818 H 0.03369 0.46199 0.52626 0.0
H3819 H 0.01485 0.48399 0.52586 0.0
H3820 H 0.4414 0.28973 0.18182 0.0
H3821 H 0.42507 0.30058 0.20727 0.0
H3822 H 0.42251 0.25061 0.22973 0.0
H3823 H 0.43881 0.23963 0.20448 0.0
H3824 H 0.38907 0.27203 0.22579 0.0
H3825 H 0.45431 0.30636 0.26781 0.0
H3826 H 0.45024 0.30655 0.24199 0.0
H3827 H 0.45191 0.28592 0.25076 0.0
C3828 C 0.43688 0.28082 0.19178 0.0
C3829 C 0.44154 0.26389 0.19126 0.0
C3830 C 0.42765 0.28708 0.20635 0.0
C3831 C 0.42283 0.27641 0.22039 0.0
C3832 C 0.42621 0.259 0.219 0.0
H3833 H 0.36918 0.29205 0.32111 0.0
H3834 H 0.38379 0.27938 0.2953 0.0
C3835 C 0.43551 0.25277 0.20455 0.0
C3836 C 0.41592 0.28402 0.23765 0.0
H3837 H 0.42919 0.30937 0.28252 0.0
C3838 C 0.39776 0.28022 0.23821 0.0
C3839 C 0.42742 0.2946 0.25374 0.0
C3840 C 0.44709 0.29865 0.25375 0.0
C3841 C 0.3907 0.28699 0.25452 0.0
C3842 C 0.40223 0.29749 0.27075 0.0
C3843 C 0.42042 0.30127 0.2701 0.0
C3844 C 0.39557 0.30513 0.28828 0.0
C3845 C 0.37095 0.28316 0.25403 0.0
C3846 C 0.39842 0.32382 0.29385 0.0
C3847 C 0.39035 0.33116 0.30892 0.0
C3848 C 0.37923 0.31991 0.31863 0.0
C3849 C 0.37761 0.30116 0.314 0.0
C3850 C 0.38575 0.29385 0.29901 0.0
H3851 H 0.36393 0.279 0.23894 0.0
H3852 H 0.36716 0.27204 0.26232 0.0
H3853 H 0.36642 0.29515 0.26078 0.0
H3854 H 0.40623 0.33275 0.28595 0.0
H3855 H 0.3922 0.34564 0.31236 0.0
H3856 H 0.63649 0.52064 0.37767 0.0
H3857 H 0.62022 0.51917 0.40594 0.0
H3858 H 0.60279 0.56784 0.39616 0.0
H3859 H 0.61853 0.56929 0.36834 0.0
H3860 H 0.62011 0.54175 0.44144 0.0
H3861 H 0.55594 0.53548 0.39608 0.0
H3862 H 0.5756 0.53293 0.38566 0.0
H3863 H 0.57135 0.55499 0.39307 0.0
C3864 C 0.62934 0.53112 0.38164 0.0
C3865 C 0.62888 0.54499 0.37024 0.0
C3866 C 0.6199 0.53024 0.39788 0.0
C3867 C 0.60962 0.54312 0.4032 0.0
C3868 C 0.60994 0.55732 0.39234 0.0
H3869 H 0.54057 0.57243 0.48714 0.0
H3870 H 0.55806 0.56867 0.46063 0.0
C3871 C 0.61921 0.55818 0.37629 0.0
C3872 C 0.59838 0.54202 0.41971 0.0
H3873 H 0.55655 0.54353 0.43026 0.0
C3874 C 0.60616 0.5419 0.43888 0.0
C3875 C 0.58003 0.54222 0.41684 0.0
C3876 C 0.57018 0.54123 0.39678 0.0
C3877 C 0.59651 0.54276 0.45497 0.0
C3878 C 0.57826 0.54345 0.45212 0.0
C3879 C 0.57044 0.54314 0.43287 0.0
C3880 C 0.56718 0.54527 0.46872 0.0
C3881 C 0.60626 0.54372 0.47505 0.0
C3882 C 0.56576 0.53324 0.48241 0.0
C3883 C 0.55553 0.53535 0.49778 0.0
C3884 C 0.54623 0.54954 0.50002 0.0
C3885 C 0.54737 0.56128 0.48607 0.0
C3886 C 0.55751 0.55915 0.47076 0.0
H3887 H 0.62072 0.54794 0.47552 0.0
H3888 H 0.60179 0.55327 0.48581 0.0
H3889 H 0.60366 0.53022 0.47948 0.0
H3890 H 0.57252 0.52208 0.48123 0.0
H3891 H 0.55513 0.526 0.5081 0.0
H3892 H 0.2185 0.85639 0.09713 0.0
H3893 H 0.22786 0.84267 0.12527 0.0
H3894 H 0.2519 0.89516 0.15704 0.0
H3895 H 0.24261 0.90895 0.12908 0.0
H3896 H 0.26295 0.84523 0.14532 0.0
H3897 H 0.21962 0.87273 0.19388 0.0
H3898 H 0.21615 0.87216 0.16788 0.0
H3899 H 0.23291 0.88923 0.18294 0.0
C3900 C 0.2257 0.86503 0.11014 0.0
C3901 C 0.22969 0.88381 0.11083 0.0
C3902 C 0.2311 0.85715 0.12621 0.0
C3903 C 0.24043 0.86786 0.1434 0.0
C3904 C 0.24449 0.8866 0.14408 0.0
H3905 H 0.2814 0.85276 0.25877 0.0
H3906 H 0.27348 0.86383 0.22858 0.0
C3907 C 0.2392 0.89447 0.12802 0.0
C3908 C 0.24605 0.85956 0.1606 0.0
H3909 H 0.2414 0.85876 0.20838 0.0
C3910 C 0.25816 0.84808 0.15909 0.0
C3911 C 0.23983 0.86326 0.17858 0.0
C3912 C 0.22629 0.87489 0.18097 0.0
C3913 C 0.26464 0.8407 0.1752 0.0
C3914 C 0.25854 0.84456 0.19328 0.0
C3915 C 0.2462 0.85582 0.19463 0.0
C3916 C 0.26494 0.83748 0.21114 0.0
C3917 C 0.2784 0.82936 0.17285 0.0
C3918 C 0.26314 0.81891 0.21153 0.0
C3919 C 0.26786 0.81249 0.22889 0.0
C3920 C 0.27421 0.82451 0.24631 0.0
C3921 C 0.27644 0.84308 0.24571 0.0
C3922 C 0.27188 0.84946 0.2284 0.0
H3923 H 0.28521 0.83187 0.16012 0.0
H3924 H 0.28842 0.83201 0.18604 0.0
H3925 H 0.27194 0.81495 0.17051 0.0
H3926 H 0.25747 0.80931 0.19859 0.0
H3927 H 0.26574 0.79812 0.22884 0.0
H3928 H 0.95576 0.62773 0.86837 0.0
H3929 H 0.96681 0.62615 0.90236 0.0
H3930 H 0.9744 0.57227 0.88479 0.0
H3931 H 0.96429 0.57407 0.85123 0.0
H3932 H 0.95632 0.60605 0.92778 0.0
H3933 H 0.02132 0.5926 0.91513 0.0
H3934 H 1.00698 0.59947 0.89673 0.0
H3935 H 1.00463 0.57609 0.89949 0.0
C3936 C 0.95993 0.61564 0.87182 0.0
C3937 C 0.95944 0.60118 0.857 0.0
C3938 C 0.96627 0.61473 0.89124 0.0
C3939 C 0.97207 0.59929 0.89617 0.0
C3940 C 0.97082 0.58465 0.88142 0.0
H3941 H 0.97099 0.55448 1.00092 0.0
H3942 H 0.96524 0.56654 0.97093 0.0
C3943 C 0.96485 0.58566 0.86214 0.0
C3944 C 0.97874 0.59786 0.91667 0.0
H3945 H 0.01042 0.58223 0.9436 0.0
C3946 C 0.96831 0.60114 0.93129 0.0
C3947 C 0.99469 0.59199 0.92164 0.0
C3948 C 0.00761 0.59006 0.90743 0.0
C3949 C 0.97276 0.59757 0.95023 0.0
C3950 C 0.98768 0.58983 0.95456 0.0
C3951 C 0.99874 0.58773 0.94032 0.0
C3952 C 0.99142 0.58277 0.9732 0.0
C3953 C 0.96132 0.60217 0.96535 0.0
C3954 C 0.00836 0.58707 0.98422 0.0
C3955 C 0.01182 0.57972 1.00126 0.0
C3956 C 0.99839 0.568 0.00761 0.0
C3957 C 0.98157 0.56363 0.99652 0.0
C3958 C 0.9782 0.57072 0.97944 0.0
H3959 H 0.95543 0.61387 0.9624 0.0
H3960 H 0.95031 0.5906 0.96481 0.0
H3961 H 0.96888 0.60533 0.98022 0.0
H3962 H 0.01889 0.59616 0.97967 0.0
H3963 H 0.02491 0.58331 0.00953 0.0
H3964 H 0.23605 0.15303 0.56225 0.0
H3965 H 0.24454 0.17799 0.58935 0.0
H3966 H 0.2846 0.20395 0.55911 0.0
H3967 H 0.27597 0.17938 0.53182 0.0
H3968 H 0.27647 0.19152 0.61289 0.0
H3969 H 0.2562 0.24271 0.57058 0.0
H3970 H 0.25012 0.21893 0.56162 0.0
H3971 H 0.27195 0.23102 0.56068 0.0
C3972 C 0.24666 0.16405 0.56138 0.0
C3973 C 0.25519 0.16434 0.54482 0.0
C3974 C 0.25152 0.17826 0.57686 0.0
C3975 C 0.26499 0.19292 0.57603 0.0
C3976 C 0.2739 0.19296 0.55981 0.0
H3977 H 0.30276 0.27347 0.68126 0.0
H3978 H 0.30367 0.25276 0.6517 0.0
C3979 C 0.26896 0.17887 0.54426 0.0
C3980 C 0.26949 0.20824 0.59208 0.0
H3981 H 0.26888 0.25283 0.60322 0.0
C3982 C 0.27496 0.20497 0.61081 0.0
C3983 C 0.26744 0.22572 0.5892 0.0
C3984 C 0.26097 0.22985 0.56948 0.0
C3985 C 0.27792 0.21864 0.62691 0.0
C3986 C 0.27567 0.23606 0.62405 0.0
C3987 C 0.27075 0.23946 0.60525 0.0
C3988 C 0.27611 0.25026 0.6406 0.0
C3989 C 0.28256 0.21409 0.64692 0.0
C3990 C 0.26055 0.25626 0.6436 0.0
C3991 C 0.26001 0.26806 0.6603 0.0
C3992 C 0.27506 0.27411 0.67431 0.0
C3993 C 0.29091 0.26881 0.67081 0.0
C3994 C 0.29145 0.25701 0.654 0.0
H3995 H 0.2807 0.19935 0.64685 0.0
H3996 H 0.29658 0.22015 0.65244 0.0
H3997 H 0.27437 0.21967 0.6572 0.0
H3998 H 0.24858 0.25117 0.6334 0.0
H3999 H 0.24755 0.2717 0.66269 0.0
H4000 H 0.61112 0.52054 0.26209 0.0
H4001 H 0.59427 0.52289 0.2311 0.0
H4002 H 0.64129 0.55215 0.21423 0.0
H4003 H 0.65828 0.54893 0.24467 0.0
H4004 H 0.58526 0.54823 0.21502 0.0
H4005 H 0.62608 0.51857 0.16554 0.0
H4006 H 0.62947 0.5181 0.19129 0.0
H4007 H 0.63895 0.53776 0.18163 0.0
C4008 C 0.61794 0.52727 0.25166 0.0
C4009 C 0.63619 0.53432 0.25592 0.0
C4010 C 0.60823 0.52869 0.23386 0.0
C4011 C 0.61638 0.53737 0.21975 0.0
C4012 C 0.63457 0.54476 0.22424 0.0
H4013 H 0.55389 0.57547 0.12543 0.0
H4014 H 0.57086 0.57254 0.15606 0.0
C4015 C 0.64434 0.54304 0.24187 0.0
C4016 C 0.60578 0.53912 0.20076 0.0
H4017 H 0.60547 0.53432 0.15133 0.0
C4018 C 0.5897 0.54505 0.20112 0.0
C4019 C 0.61112 0.53475 0.18229 0.0
C4020 C 0.62724 0.52675 0.18012 0.0
C4021 C 0.57914 0.54691 0.18395 0.0
C4022 C 0.58495 0.54344 0.16558 0.0
C4023 C 0.60091 0.53729 0.16521 0.0
C4024 C 0.57458 0.54555 0.1466 0.0
C4025 C 0.56153 0.552 0.18579 0.0
C4026 C 0.5714 0.5318 0.13037 0.0
C4027 C 0.56204 0.53368 0.11257 0.0
C4028 C 0.55535 0.54932 0.11035 0.0
C4029 C 0.55856 0.56312 0.12653 0.0
C4030 C 0.5682 0.56136 0.14425 0.0
H4031 H 0.55652 0.54823 0.19918 0.0
H4032 H 0.56301 0.56678 0.18675 0.0
H4033 H 0.55153 0.54541 0.1731 0.0
H4034 H 0.57609 0.51945 0.13145 0.0
H4035 H 0.55992 0.5227 0.10056 0.0
H4036 H 0.20279 0.8915 0.97168 0.0
H4037 H 0.21193 0.87432 0.94411 0.0
H4038 H 0.24502 0.85158 0.98352 0.0
H4039 H 0.23539 0.86829 0.01121 0.0
H4040 H 0.24326 0.87762 0.93384 0.0
H4041 H 0.2236 0.80722 0.94591 0.0
H4042 H 0.21616 0.82553 0.95927 0.0
H4043 H 0.23774 0.82118 0.96635 0.0
C4044 C 0.21172 0.88255 0.97453 0.0
C4045 C 0.21825 0.88125 0.99375 0.0
C4046 C 0.21702 0.87275 0.95868 0.0
C4047 C 0.2291 0.86142 0.96153 0.0
C4048 C 0.23535 0.85979 0.98074 0.0
H4049 H 0.29045 0.81086 0.88049 0.0
H4050 H 0.27854 0.8222 0.90962 0.0
C4051 C 0.22986 0.86943 0.99665 0.0
C4052 C 0.23601 0.85254 0.94443 0.0
H4053 H 0.24242 0.81217 0.92181 0.0
C4054 C 0.24292 0.86327 0.93122 0.0
C4055 C 0.23576 0.8338 0.94086 0.0
C4056 C 0.22776 0.82123 0.95374 0.0
C4057 C 0.24958 0.85593 0.91481 0.0
C4058 C 0.24934 0.83726 0.91128 0.0
C4059 C 0.24264 0.82649 0.92451 0.0
C4060 C 0.25575 0.82881 0.89371 0.0
C4061 C 0.25703 0.86827 0.9014 0.0
C4062 C 0.24668 0.82826 0.87506 0.0
C4063 C 0.25338 0.82168 0.85843 0.0
C4064 C 0.26938 0.81556 0.86003 0.0
C4065 C 0.27812 0.81548 0.87873 0.0
C4066 C 0.27133 0.82198 0.8954 0.0
H4067 H 0.25956 0.88263 0.90813 0.0
H4068 H 0.26953 0.86497 0.89724 0.0
H4069 H 0.2475 0.86645 0.88792 0.0
H4070 H 0.23455 0.83327 0.87336 0.0
H4071 H 0.24626 0.8219 0.84428 0.0
H4072 H 0.92565 0.60144 0.72457 0.0
H4073 H 0.93881 0.59337 0.69542 0.0
H4074 H 0.99035 0.60597 0.72961 0.0
H4075 H 0.97726 0.61378 0.75889 0.0
H4076 H 0.96399 0.61283 0.67744 0.0
H4077 H 0.98805 0.55483 0.70303 0.0
H4078 H 0.97263 0.56577 0.71493 0.0
H4079 H 0.99572 0.57578 0.71913 0.0
C4080 C 0.9398 0.60256 0.7259 0.0
C4081 C 0.95038 0.60811 0.74412 0.0
C4082 C 0.94731 0.59794 0.7092 0.0
C4083 C 0.96554 0.5987 0.71035 0.0
C4084 C 0.97621 0.60484 0.72841 0.0
H4085 H 0.0314 0.5706 0.62246 0.0
H4086 H 0.02064 0.58099 0.65258 0.0
C4087 C 0.96871 0.60944 0.74512 0.0
C4088 C 0.97329 0.59296 0.69267 0.0
H4089 H 0.99612 0.56247 0.67324 0.0
C4090 C 0.971 0.60181 0.67652 0.0
C4091 C 0.98249 0.5786 0.69146 0.0
C4092 C 0.98477 0.56806 0.70797 0.0
C4093 C 0.97772 0.59676 0.6593 0.0
C4094 C 0.98673 0.58227 0.65802 0.0
C4095 C 0.98923 0.57358 0.67423 0.0
C4096 C 0.99324 0.57563 0.63981 0.0
C4097 C 0.97532 0.60718 0.6427 0.0
C4098 C 0.9814 0.56879 0.6227 0.0
C4099 C 0.98748 0.56281 0.60548 0.0
C4100 C 1.00558 0.56341 0.60496 0.0
C4101 C 0.01739 0.56993 0.62226 0.0
C4102 C 0.01127 0.57589 0.63951 0.0
H4103 H 0.97258 0.62065 0.64772 0.0
H4104 H 0.9872 0.60894 0.63525 0.0
H4105 H 0.96396 0.59967 0.63193 0.0
H4106 H 0.9674 0.56811 0.62264 0.0
H4107 H 0.97797 0.55796 0.59252 0.0
H4108 H 0.27203 0.19592 0.46393 0.0
H4109 H 0.27264 0.2191 0.44313 0.0
H4110 H 0.25161 0.17844 0.39316 0.0
H4111 H 0.25127 0.15502 0.41389 0.0
H4112 H 0.27792 0.20506 0.38581 0.0
H4113 H 0.22793 0.23484 0.4219 0.0
H4114 H 0.24693 0.23359 0.43835 0.0
H4115 H 0.23268 0.21324 0.42562 0.0
C4116 C 0.26772 0.19187 0.44847 0.0
C4117 C 0.26144 0.17366 0.44054 0.0
C4118 C 0.26794 0.20515 0.43665 0.0
C4119 C 0.26169 0.20051 0.41673 0.0
C4120 C 0.2563 0.18228 0.40857 0.0
H4121 H 0.23062 0.26931 0.33582 0.0
H4122 H 0.23087 0.2486 0.35962 0.0
C4123 C 0.25618 0.16893 0.42039 0.0
C4124 C 0.26052 0.21471 0.40453 0.0
H4125 H 0.24198 0.25131 0.39958 0.0
C4126 C 0.27004 0.21515 0.38877 0.0
C4127 C 0.24999 0.22768 0.40828 0.0
C4128 C 0.23866 0.22726 0.42434 0.0
C4129 C 0.26959 0.22842 0.37685 0.0
C4130 C 0.25962 0.24181 0.38108 0.0
C4131 C 0.24981 0.24118 0.39659 0.0
C4132 C 0.25897 0.25629 0.36916 0.0
C4133 C 0.27956 0.22778 0.35962 0.0
C4134 C 0.27448 0.26815 0.36752 0.0
C4135 C 0.27439 0.27986 0.35392 0.0
C4136 C 0.25874 0.28009 0.34192 0.0
C4137 C 0.2429 0.26939 0.34484 0.0
C4138 C 0.24303 0.25752 0.35837 0.0
H4139 H 0.28262 0.21428 0.35553 0.0
H4140 H 0.27194 0.2313 0.34681 0.0
H4141 H 0.29222 0.23764 0.36337 0.0
H4142 H 0.28684 0.26772 0.37609 0.0
H4143 H 0.28675 0.288 0.35206 0.0
H4144 H 0.37533 0.66804 0.51881 0.0
H4145 H 0.3975 0.64999 0.51138 0.0
H4146 H 0.40515 0.6418 0.57119 0.0
H4147 H 0.38261 0.65902 0.57837 0.0
H4148 H 0.43104 0.65079 0.52217 0.0
H4149 H 0.39416 0.59084 0.54563 0.0
H4150 H 0.38491 0.61051 0.54331 0.0
H4151 H 0.39905 0.60937 0.56517 0.0
C4152 C 0.38197 0.66261 0.53041 0.0
C4153 C 0.37711 0.66487 0.54915 0.0
C4154 C 0.39456 0.65216 0.52613 0.0
C4155 C 0.40262 0.64388 0.54055 0.0
C4156 C 0.39867 0.64732 0.55957 0.0
H4157 H 0.49933 0.60656 0.54753 0.0
H4158 H 0.47564 0.62293 0.54483 0.0
C4159 C 0.38593 0.65742 0.56374 0.0
C4160 C 0.41503 0.63158 0.5359 0.0
H4161 H 0.42477 0.59097 0.54336 0.0
C4162 C 0.42952 0.63763 0.52661 0.0
C4163 C 0.4129 0.61406 0.541 0.0
C4164 C 0.3968 0.60574 0.54911 0.0
C4165 C 0.44235 0.62717 0.52336 0.0
C4166 C 0.44107 0.61038 0.53016 0.0
C4167 C 0.42606 0.60391 0.53841 0.0
C4168 C 0.45573 0.60009 0.53034 0.0
C4169 C 0.4571 0.6343 0.51257 0.0
C4170 C 0.4526 0.58143 0.5236 0.0
C4171 C 0.4663 0.57174 0.52552 0.0
C4172 C 0.48338 0.58052 0.53427 0.0
C4173 C 0.48644 0.59922 0.54058 0.0
C4174 C 0.47283 0.60877 0.53885 0.0
H4175 H 0.45261 0.64266 0.50195 0.0
H4176 H 0.468 0.64302 0.52307 0.0
H4177 H 0.46225 0.62327 0.50466 0.0
H4178 H 0.43951 0.5743 0.51713 0.0
H4179 H 0.4634 0.55737 0.52063 0.0
H4180 H 0.84878 0.03278 0.60524 0.0
H4181 H 0.88015 0.03786 0.60218 0.0
H4182 H 0.88491 0.98999 0.62672 0.0
H4183 H 0.85354 0.98476 0.62997 0.0
H4184 H 0.91374 0.03687 0.63312 0.0
H4185 H 0.89618 0.98484 0.56665 0.0
H4186 H 0.88028 0.99711 0.57559 0.0
H4187 H 0.88711 0.98021 0.58837 0.0
C4188 C 0.85654 0.02351 0.61038 0.0
C4189 C 0.84859 0.00825 0.61768 0.0
C4190 C 0.87447 0.02648 0.60866 0.0
C4191 C 0.88471 0.01423 0.61411 0.0
C4192 C 0.87713 0.99957 0.62244 0.0
H4193 H 0.98355 0.99972 0.57418 0.0
H4194 H 0.95653 0.99573 0.58913 0.0
C4195 C 0.85922 0.99663 0.62429 0.0
C4196 C 0.90275 0.01577 0.60911 0.0
H4197 H 0.92565 0.99973 0.57446 0.0
C4198 C 0.91646 0.02869 0.62041 0.0
C4199 C 0.90614 1.005 0.59257 0.0
C4200 C 0.89171 0.99101 0.57996 0.0
C4201 C 0.93362 0.03117 0.6155 0.0
C4202 C 0.93692 0.02081 0.59851 0.0
C4203 C 0.92317 0.00767 0.58747 0.0
C4204 C 0.95427 0.02368 0.59138 0.0
C4205 C 0.94802 0.04469 0.62872 0.0
C4206 C 0.96209 0.04072 0.58776 0.0
C4207 C 0.97768 0.04304 0.57954 0.0
C4208 C 0.98548 0.02831 0.57433 0.0
C4209 C 0.97776 0.0113 0.57804 0.0
C4210 C 0.96234 0.00902 0.58657 0.0
H4211 H 0.94495 0.04665 0.64384 0.0
H4212 H 0.96093 0.04049 0.62891 0.0
H4213 H 0.94918 0.05787 0.62351 0.0
H4214 H 0.95588 0.05214 0.59074 0.0
H4215 H 0.98333 0.05623 0.57671 0.0
H4216 H 0.83575 0.10851 0.28169 0.0
H4217 H 0.82322 0.13586 0.28472 0.0
H4218 H 0.87506 0.16794 0.30461 0.0
H4219 H 0.88758 0.14071 0.30153 0.0
H4220 H 0.82134 0.16192 0.31456 0.0
H4221 H 0.85965 0.1964 0.26406 0.0
H4222 H 0.85906 0.17305 0.26595 0.0
H4223 H 0.87331 0.19043 0.28354 0.0
C4224 C 0.84458 0.12136 0.28666 0.0
C4225 C 0.86288 0.12199 0.29122 0.0
C4226 C 0.83731 0.1372 0.28845 0.0
C4227 C 0.84798 0.15455 0.2946 0.0
C4228 C 0.86625 0.15514 0.29934 0.0
H4229 H 0.82936 0.26754 0.31115 0.0
H4230 H 0.84168 0.24012 0.30889 0.0
C4231 C 0.8735 0.13931 0.2977 0.0
C4232 C 0.84006 0.17176 0.29635 0.0
H4233 H 0.84328 0.21379 0.28254 0.0
C4234 C 0.82617 0.17316 0.3074 0.0
C4235 C 0.84605 0.18692 0.2873 0.0
C4236 C 0.86021 0.18664 0.27439 0.0
C4237 C 0.81865 0.18889 0.31001 0.0
C4238 C 0.82455 0.20404 0.30084 0.0
C4239 C 0.83845 0.2026 0.28975 0.0
C4240 C 0.81667 0.22131 0.30253 0.0
C4241 C 0.80484 0.18921 0.32335 0.0
C4242 C 0.79827 0.22075 0.29959 0.0
C4243 C 0.79111 0.23664 0.3011 0.0
C4244 C 0.80194 0.25404 0.30537 0.0
C4245 C 0.82035 0.25465 0.30802 0.0
C4246 C 0.8275 0.23873 0.30662 0.0
H4247 H 0.80611 0.17994 0.33412 0.0
H4248 H 0.80573 0.20293 0.33137 0.0
H4249 H 0.79159 0.18468 0.31462 0.0
H4250 H 0.78923 0.20792 0.29571 0.0
H4251 H 0.77693 0.23522 0.29859 0.0
H4252 H 0.78461 0.14116 0.0257 0.0
H4253 H 0.75541 0.12269 0.02529 0.0
H4254 H 0.73579 0.17028 0.04429 0.0
H4255 H 0.7648 0.18885 0.04437 0.0
H4256 H 0.73837 0.11978 0.05692 0.0
H4257 H 0.69741 0.14443 1.0005 0.0
H4258 H 0.72118 0.14902 0.00315 0.0
H4259 H 0.70994 0.16219 0.0188 0.0
C4260 C 0.774 0.14771 0.02951 0.0
C4261 C 0.77699 0.16645 0.0351 0.0
C4262 C 0.75734 0.13715 0.02926 0.0
C4263 C 0.74339 0.14513 0.03451 0.0
C4264 C 0.74626 0.16387 0.03974 0.0
H4265 H 0.64005 0.11319 0.06407 0.0
H4266 H 0.66834 0.12849 0.05683 0.0
C4267 C 0.76288 0.17446 0.03991 0.0
C4268 C 0.72625 0.1338 0.03614 0.0
H4269 H 0.68194 0.12745 0.02179 0.0
C4270 C 0.72604 0.12126 0.04905 0.0
C4271 C 0.7102 0.13582 0.02588 0.0
C4272 C 0.70966 0.14847 0.01116 0.0
C4273 C 0.71015 0.11118 0.05258 0.0
C4274 C 0.69407 0.1135 0.04265 0.0
C4275 C 0.6943 0.12574 0.0294 0.0
C4276 C 0.67684 0.10401 0.04652 0.0
C4277 C 0.71069 0.09869 0.06747 0.0
C4278 C 0.67219 0.08516 0.04294 0.0
C4279 C 0.65605 0.07637 0.04715 0.0
C4280 C 0.64422 0.08631 0.05476 0.0
C4281 C 0.64883 0.10519 0.05804 0.0
C4282 C 0.66498 0.11394 0.05395 0.0
H4283 H 0.72364 0.10158 0.07694 0.0
H4284 H 0.70022 0.09971 0.07679 0.0
H4285 H 0.70843 0.08463 0.05989 0.0
H4286 H 0.68101 0.07726 0.03683 0.0
H4287 H 0.65272 0.06183 0.04422 0.0
H4288 H 0.18198 0.46765 0.30232 0.0
H4289 H 0.2 0.44488 0.30544 0.0
H4290 H 0.15389 0.40607 0.31039 0.0
H4291 H 0.13569 0.42884 0.30727 0.0
H4292 H 0.18521 0.40638 0.33801 0.0
H4293 H 0.19834 0.40204 0.26153 0.0
H4294 H 0.20298 0.42438 0.27513 0.0
H4295 H 0.18069 0.41192 0.26992 0.0
C4296 C 0.17563 0.4543 0.30413 0.0
C4297 C 0.15733 0.45008 0.30442 0.0
C4298 C 0.18597 0.44126 0.30587 0.0
C4299 C 0.17829 0.42369 0.30794 0.0
C4300 C 0.16011 0.41952 0.30875 0.0
H4301 H 0.22366 0.32913 0.28535 0.0
H4302 H 0.20501 0.3514 0.28697 0.0
C4303 C 0.14971 0.43255 0.30692 0.0
C4304 C 0.1892 0.40961 0.30873 0.0
H4305 H 0.21406 0.38631 0.2819 0.0
C4306 C 0.19152 0.40196 0.32575 0.0
C4307 C 0.19727 0.40369 0.29266 0.0
C4308 C 0.19463 0.41078 0.27369 0.0
C4309 C 0.20187 0.38875 0.32721 0.0
C4310 C 0.2103 0.38316 0.31128 0.0
C4311 C 0.20777 0.39068 0.2942 0.0
C4312 C 0.22128 0.36907 0.3116 0.0
C4313 C 0.20339 0.38062 0.34562 0.0
C4314 C 0.23669 0.37138 0.32505 0.0
C4315 C 0.24747 0.3585 0.32425 0.0
C4316 C 0.24314 0.34314 0.30983 0.0
C4317 C 0.22755 0.3408 0.29661 0.0
C4318 C 0.2168 0.35356 0.29749 0.0
H4319 H 0.19284 0.38304 0.35443 0.0
H4320 H 0.20273 0.36591 0.3423 0.0
H4321 H 0.21628 0.38681 0.35456 0.0
H4322 H 0.24065 0.38337 0.33585 0.0
H4323 H 0.2594 0.36082 0.33458 0.0
H4324 H 0.22706 0.46729 0.09956 0.0
H4325 H 0.20288 0.47929 0.08425 0.0
H4326 H 0.23284 0.53324 0.10286 0.0
H4327 H 0.25727 0.52134 0.11785 0.0
H4328 H 0.18273 0.50249 0.09826 0.0
H4329 H 0.22153 0.53121 0.04432 0.0
H4330 H 0.22893 0.51573 0.05915 0.0
H4331 H 0.23167 0.53914 0.069 0.0
C4332 C 0.22845 0.48173 0.10057 0.0
C4333 C 0.24415 0.49338 0.10975 0.0
C4334 C 0.21463 0.48854 0.09177 0.0
C4335 C 0.21626 0.50711 0.09201 0.0
C4336 C 0.23153 0.51883 0.10205 0.0
H4337 H 0.1364 0.56789 0.068 0.0
H4338 H 0.15993 0.55413 0.0817 0.0
C4339 C 0.2454 0.51202 0.11077 0.0
C4340 C 0.20206 0.51421 0.0816 0.0
H4341 H 0.19377 0.5397 0.04647 0.0
C4342 C 0.18512 0.51055 0.08688 0.0
C4343 C 0.20512 0.52437 0.06643 0.0
C4344 C 0.22275 0.52771 0.05922 0.0
C4345 C 0.17129 0.51738 0.07789 0.0
C4346 C 0.17462 0.52835 0.0635 0.0
C4347 C 0.19137 0.53147 0.0577 0.0
C4348 C 0.16098 0.53719 0.05479 0.0
C4349 C 0.15322 0.51278 0.08382 0.0
C4350 C 0.15422 0.53261 0.03497 0.0
C4351 C 0.14082 0.54055 0.02703 0.0
C4352 C 0.13418 0.55336 0.03878 0.0
C4353 C 0.14142 0.55829 0.0585 0.0
C4354 C 0.1547 0.55028 0.06641 0.0
H4355 H 0.15179 0.50077 0.09126 0.0
H4356 H 0.15104 0.52427 0.09402 0.0
H4357 H 0.14282 0.51022 0.07099 0.0
H4358 H 0.15904 0.52261 0.02576 0.0
H4359 H 0.13552 0.53654 0.01179 0.0
H4360 H 0.88375 0.98999 0.28063 0.0
H4361 H 0.86757 0.96098 0.28506 0.0
H4362 H 0.82201 0.98388 0.29342 0.0
H4363 H 0.83847 0.01363 0.28918 0.0
H4364 H 0.85229 0.95136 0.31819 0.0
H4365 H 0.8012 0.93713 0.25303 0.0
H4366 H 0.82126 0.95372 0.25491 0.0
H4367 H 0.80406 0.95851 0.26845 0.0
C4368 C 0.87024 0.98914 0.28329 0.0
C4369 C 0.86264 1.00466 0.28441 0.0
C4370 C 0.86092 0.97225 0.28589 0.0
C4371 C 0.84334 0.96974 0.28947 0.0
C4372 C 0.83545 0.98508 0.29043 0.0
H4373 H 0.77386 0.86471 0.30055 0.0
H4374 H 0.78466 0.89633 0.29698 0.0
C4375 C 0.84495 1.00226 0.28805 0.0
C4376 C 0.83399 0.95121 0.29279 0.0
H4377 H 0.80103 0.91471 0.27298 0.0
C4378 C 0.84101 0.94346 0.3083 0.0
C4379 C 0.8191 0.94057 0.28018 0.0
C4380 C 0.81091 0.94774 0.2631 0.0
C4381 C 0.83383 0.92582 0.3115 0.0
C4382 C 0.81943 0.91476 0.29837 0.0
C4383 C 0.81209 0.92271 0.2831 0.0
C4384 C 0.81234 0.89498 0.3 0.0
C4385 C 0.84166 0.91952 0.32942 0.0
C4386 C 0.82388 0.88295 0.30238 0.0
C4387 C 0.81771 0.86494 0.30471 0.0
C4388 C 0.79962 0.85781 0.30428 0.0
C4389 C 0.78787 0.86953 0.30109 0.0
C4390 C 0.79412 0.88776 0.29902 0.0
H4391 H 0.8474 0.93103 0.34115 0.0
H4392 H 0.83168 0.91008 0.33511 0.0
H4393 H 0.85249 0.91263 0.32581 0.0
H4394 H 0.83786 0.88743 0.30241 0.0
H4395 H 0.82727 0.85648 0.30678 0.0
H4396 H 0.63859 0.07007 0.79098 0.0
H4397 H 0.66153 0.09634 0.79105 0.0
H4398 H 0.7014 0.06659 0.80717 0.0
H4399 H 0.67843 0.0401 0.80737 0.0
H4400 H 0.70775 0.10241 0.8274 0.0
H4401 H 0.69276 0.09979 0.74777 0.0
H4402 H 0.67381 0.10009 0.76001 0.0
H4403 H 0.68466 0.08127 0.75993 0.0
C4404 C 0.65221 0.06906 0.79465 0.0
C4405 C 0.65665 0.05287 0.79896 0.0
C4406 C 0.66532 0.0841 0.7946 0.0
C4407 C 0.68316 0.08328 0.79869 0.0
C4408 C 0.68769 0.06743 0.80381 0.0
H4409 H 0.76177 0.1676 0.76743 0.0
H4410 H 0.74597 0.13803 0.77176 0.0
C4411 C 0.67455 0.05232 0.80392 0.0
C4412 C 0.69695 0.09892 0.79716 0.0
H4413 H 0.71079 0.1269 0.76556 0.0
C4414 C 0.70858 0.10768 0.81385 0.0
C4415 C 0.69823 0.10556 0.77938 0.0
C4416 C 0.68682 0.0961 0.7607 0.0
C4417 C 0.72093 0.12342 0.81342 0.0
C4418 C 0.72143 0.13068 0.7959 0.0
C4419 C 0.71032 0.12144 0.77903 0.0
C4420 C 0.73258 0.14834 0.79485 0.0
C4421 C 0.73327 0.13211 0.83173 0.0
C4422 C 0.73042 0.16395 0.80646 0.0
C4423 C 0.73951 0.18081 0.80412 0.0
C4424 C 0.75082 0.18248 0.78992 0.0
C4425 C 0.7533 0.16679 0.77861 0.0
C4426 C 0.74421 0.14989 0.781 0.0
H4427 H 0.7353 0.12216 0.84151 0.0
H4428 H 0.74628 0.13861 0.82841 0.0
H4429 H 0.72745 0.14256 0.83971 0.0
H4430 H 0.72125 0.16316 0.81694 0.0
H4431 H 0.73748 0.19259 0.81326 0.0
loop_
_geom_bond_atom_site_label_1
_geom_bond_atom_site_label_2
_geom_bond_distance
_geom_bond_site_symmetry_2
_ccdc_geom_bond_type
C0 O1 1.306 . S
C0 O3 1.160 . S
O1 C0 1.306 . S
O1 Cd2 2.228 . S
Cd2 O1 2.228 . S
Cd2 O6 2.273 . S
Cd2 O10 2.277 . S
O3 C0 1.160 . S
O3 Cd4 2.203 . S
Cd4 O3 2.203 . S
Cd4 O6 2.411 . S
Cd4 O7 2.333 . S
Cd4 O8 2.352 . S
Cd4 O12 2.277 . S
Cd4 O13 2.356 . S
C5 O10 1.209 . S
C5 O12 1.226 . S
O6 Cd2 2.273 . S
O6 Cd4 2.411 . S
O6 C9 1.320 . S
O7 Cd4 2.333 . S
O7 C9 1.214 . S
O8 Cd4 2.352 . S
O8 C11 1.258 . S
C9 O6 1.320 . S
C9 O7 1.214 . S
O10 Cd2 2.277 . S
O10 C5 1.209 . S
C11 O8 1.258 . S
C11 O13 1.282 . S
O12 Cd4 2.277 . S
O12 C5 1.226 . S
O13 Cd4 2.356 . S
O13 C11 1.282 . S
C14 O15 1.306 . S
C14 O17 1.160 . S
O15 C14 1.306 . S
O15 Cd16 2.228 1_655 S
Cd16 O15 2.228 1_455 S
Cd16 O20 2.273 . S
Cd16 O24 2.278 1_455 S
O17 C14 1.160 . S
O17 Cd18 2.203 1_655 S
Cd18 O17 2.203 1_455 S
Cd18 O20 2.411 . S
Cd18 O21 2.333 . S
Cd18 O22 2.352 . S
Cd18 O26 2.277 1_455 S
Cd18 O27 2.356 . S
C19 O24 1.212 . S
C19 O26 1.226 . S
O20 Cd16 2.273 . S
O20 Cd18 2.411 . S
O20 C23 1.320 . S
O21 Cd18 2.333 . S
O21 C23 1.214 . S
O22 Cd18 2.352 . S
O22 C25 1.258 . S
C23 O20 1.320 . S
C23 O21 1.214 . S
O24 Cd16 2.278 1_655 S
O24 C19 1.212 . S
C25 O22 1.258 . S
C25 O27 1.282 . S
O26 Cd18 2.277 1_655 S
O26 C19 1.226 . S
O27 Cd18 2.356 . S
O27 C25 1.282 . S
C28 O29 1.306 . S
C28 O31 1.160 . S
O29 C28 1.306 . S
O29 Cd30 2.228 . S
Cd30 O29 2.228 . S
Cd30 O34 2.273 . S
Cd30 O38 2.277 . S
O31 C28 1.160 . S
O31 Cd32 2.203 . S
Cd32 O31 2.203 . S
Cd32 O34 2.411 . S
Cd32 O35 2.333 . S
Cd32 O36 2.352 . S
Cd32 O40 2.277 . S
Cd32 O41 2.356 . S
C33 O38 1.209 . S
C33 O40 1.226 . S
O34 Cd30 2.273 . S
O34 Cd32 2.411 . S
O34 C37 1.320 . S
O35 Cd32 2.333 . S
O35 C37 1.214 . S
O36 Cd32 2.352 . S
O36 C39 1.258 . S
C37 O34 1.320 . S
C37 O35 1.214 . S
O38 Cd30 2.277 . S
O38 C33 1.209 . S
C39 O36 1.258 . S
C39 O41 1.282 . S
O40 Cd32 2.277 . S
O40 C33 1.226 . S
O41 Cd32 2.356 . S
O41 C39 1.282 . S
C42 O43 1.306 . S
C42 O45 1.160 . S
O43 C42 1.306 . S
O43 Cd44 2.228 . S
Cd44 O43 2.228 . S
Cd44 O48 2.273 . S
Cd44 O52 2.277 . S
O45 C42 1.160 . S
O45 Cd46 2.203 . S
Cd46 O45 2.203 . S
Cd46 O48 2.411 . S
Cd46 O49 2.333 . S
Cd46 O50 2.352 . S
Cd46 O54 2.277 . S
Cd46 O55 2.356 . S
C47 O52 1.209 . S
C47 O54 1.226 . S
O48 Cd44 2.273 . S
O48 Cd46 2.411 . S
O48 C51 1.320 . S
O49 Cd46 2.333 . S
O49 C51 1.214 . S
O50 Cd46 2.352 . S
O50 C53 1.258 . S
C51 O48 1.320 . S
C51 O49 1.214 . S
O52 Cd44 2.277 . S
O52 C47 1.209 . S
C53 O50 1.258 . S
C53 O55 1.282 . S
O54 Cd46 2.277 . S
O54 C47 1.226 . S
O55 Cd46 2.356 . S
O55 C53 1.282 . S
C56 O57 1.306 . S
C56 O59 1.160 . S
O57 C56 1.306 . S
O57 Cd58 2.228 1_655 S
Cd58 O57 2.228 1_455 S
Cd58 O62 2.273 . S
Cd58 O66 2.277 . S
O59 C56 1.160 . S
O59 Cd60 2.203 1_655 S
Cd60 O59 2.203 1_455 S
Cd60 O62 2.411 . S
Cd60 O63 2.333 . S
Cd60 O64 2.352 . S
Cd60 O68 2.277 . S
Cd60 O69 2.356 . S
C61 O66 1.209 . S
C61 O68 1.226 . S
O62 Cd58 2.273 . S
O62 Cd60 2.411 . S
O62 C65 1.320 . S
O63 Cd60 2.333 . S
O63 C65 1.214 . S
O64 Cd60 2.352 . S
O64 C67 1.258 . S
C65 O62 1.320 . S
C65 O63 1.214 . S
O66 Cd58 2.277 . S
O66 C61 1.209 . S
C67 O64 1.258 . S
C67 O69 1.282 . S
O68 Cd60 2.277 . S
O68 C61 1.226 . S
O69 Cd60 2.356 . S
O69 C67 1.282 . S
C70 O71 1.306 . S
C70 O73 1.160 . S
O71 C70 1.306 . S
O71 Cd72 2.228 . S
Cd72 O71 2.228 . S
Cd72 O76 2.273 . S
Cd72 O80 2.277 . S
O73 C70 1.160 . S
O73 Cd74 2.203 . S
Cd74 O73 2.203 . S
Cd74 O76 2.411 . S
Cd74 O77 2.333 . S
Cd74 O78 2.352 . S
Cd74 O82 2.277 . S
Cd74 O83 2.356 . S
C75 O80 1.209 . S
C75 O82 1.226 . S
O76 Cd72 2.273 . S
O76 Cd74 2.411 . S
O76 C79 1.320 . S
O77 Cd74 2.333 . S
O77 C79 1.214 . S
O78 Cd74 2.352 . S
O78 C81 1.258 . S
C79 O76 1.320 . S
C79 O77 1.214 . S
O80 Cd72 2.277 . S
O80 C75 1.209 . S
C81 O78 1.258 . S
C81 O83 1.282 . S
O82 Cd74 2.277 . S
O82 C75 1.226 . S
O83 Cd74 2.356 . S
O83 C81 1.282 . S
C84 O85 1.306 . S
C84 O87 1.160 . S
O85 C84 1.306 . S
O85 Cd86 2.228 . S
Cd86 O85 2.228 . S
Cd86 O90 2.273 . S
Cd86 O94 2.277 . S
O87 C84 1.160 . S
O87 Cd88 2.203 . S
Cd88 O87 2.203 . S
Cd88 O90 2.411 . S
Cd88 O91 2.333 . S
Cd88 O92 2.352 . S
Cd88 O96 2.277 . S
Cd88 O97 2.356 . S
C89 O94 1.209 . S
C89 O96 1.226 . S
O90 Cd86 2.273 . S
O90 Cd88 2.411 . S
O90 C93 1.320 . S
O91 Cd88 2.333 . S
O91 C93 1.214 . S
O92 Cd88 2.352 . S
O92 C95 1.258 . S
C93 O90 1.320 . S
C93 O91 1.214 . S
O94 Cd86 2.277 . S
O94 C89 1.209 . S
C95 O92 1.258 . S
C95 O97 1.282 . S
O96 Cd88 2.277 . S
O96 C89 1.226 . S
O97 Cd88 2.356 . S
O97 C95 1.282 . S
C98 O99 1.296 1_655 S
C98 O101 1.160 . S
O99 C98 1.296 1_455 S
O99 Cd100 2.242 . S
Cd100 O99 2.242 . S
Cd100 O104 2.273 . S
Cd100 O108 2.277 . S
O101 C98 1.160 . S
O101 Cd102 2.203 1_655 S
Cd102 O101 2.203 1_455 S
Cd102 O104 2.411 . S
Cd102 O105 2.333 . S
Cd102 O106 2.352 . S
Cd102 O110 2.277 . S
Cd102 O111 2.356 . S
C103 O108 1.209 . S
C103 O110 1.226 . S
O104 Cd100 2.273 . S
O104 Cd102 2.411 . S
O104 C107 1.320 . S
O105 Cd102 2.333 . S
O105 C107 1.214 . S
O106 Cd102 2.352 . S
O106 C109 1.258 . S
C107 O104 1.320 . S
C107 O105 1.214 . S
O108 Cd100 2.277 . S
O108 C103 1.209 . S
C109 O106 1.258 . S
C109 O111 1.282 . S
O110 Cd102 2.277 . S
O110 C103 1.226 . S
O111 Cd102 2.356 . S
O111 C109 1.282 . S
C112 O113 1.306 . S
C112 O115 1.160 . S
O113 C112 1.306 . S
O113 Cd114 2.228 . S
Cd114 O113 2.228 . S
Cd114 O118 2.273 . S
Cd114 O122 2.277 . S
O115 C112 1.160 . S
O115 Cd116 2.203 . S
Cd116 O115 2.203 . S
Cd116 O118 2.411 . S
Cd116 O119 2.333 . S
Cd116 O120 2.352 . S
Cd116 O124 2.277 . S
Cd116 O125 2.356 . S
C117 O122 1.209 . S
C117 O124 1.226 . S
O118 Cd114 2.273 . S
O118 Cd116 2.411 . S
O118 C121 1.320 . S
O119 Cd116 2.333 . S
O119 C121 1.214 . S
O120 Cd116 2.352 . S
O120 C123 1.258 . S
C121 O118 1.320 . S
C121 O119 1.214 . S
O122 Cd114 2.277 . S
O122 C117 1.209 . S
C123 O120 1.258 . S
C123 O125 1.282 . S
O124 Cd116 2.277 . S
O124 C117 1.226 . S
O125 Cd116 2.356 . S
O125 C123 1.282 . S
C126 O127 1.306 . S
C126 O129 1.160 . S
O127 C126 1.306 . S
O127 Cd128 2.228 . S
Cd128 O127 2.228 . S
Cd128 O132 2.273 . S
Cd128 O136 2.277 . S
O129 C126 1.160 . S
O129 Cd130 2.203 . S
Cd130 O129 2.203 . S
Cd130 O132 2.411 . S
Cd130 O133 2.333 . S
Cd130 O134 2.352 . S
Cd130 O138 2.277 . S
Cd130 O139 2.356 . S
C131 O136 1.209 . S
C131 O138 1.226 . S
O132 Cd128 2.273 . S
O132 Cd130 2.411 . S
O132 C135 1.320 . S
O133 Cd130 2.333 . S
O133 C135 1.214 . S
O134 Cd130 2.352 . S
O134 C137 1.258 . S
C135 O132 1.320 . S
C135 O133 1.214 . S
O136 Cd128 2.277 . S
O136 C131 1.209 . S
C137 O134 1.258 . S
C137 O139 1.282 . S
O138 Cd130 2.277 . S
O138 C131 1.226 . S
O139 Cd130 2.356 . S
O139 C137 1.282 . S
C140 O141 1.306 . S
C140 O143 1.160 . S
O141 C140 1.306 . S
O141 Cd142 2.228 . S
Cd142 O141 2.228 . S
Cd142 O146 2.273 . S
Cd142 O150 2.277 . S
O143 C140 1.160 . S
O143 Cd144 2.203 . S
Cd144 O143 2.203 . S
Cd144 O146 2.411 . S
Cd144 O147 2.333 . S
Cd144 O148 2.352 1_545 S
Cd144 O152 2.277 . S
Cd144 O153 2.356 . S
C145 O150 1.209 . S
C145 O152 1.226 . S
O146 Cd142 2.273 . S
O146 Cd144 2.411 . S
O146 C149 1.320 . S
O147 Cd144 2.333 . S
O147 C149 1.214 . S
O148 Cd144 2.352 1_565 S
O148 C151 1.258 . S
C149 O146 1.320 . S
C149 O147 1.214 . S
O150 Cd142 2.277 . S
O150 C145 1.209 . S
C151 O148 1.258 . S
C151 O153 1.282 1_565 S
O152 Cd144 2.277 . S
O152 C145 1.226 . S
O153 Cd144 2.356 . S
O153 C151 1.282 1_545 S
C154 O155 1.306 . S
C154 O157 1.160 . S
O155 C154 1.306 . S
O155 Cd156 2.228 . S
Cd156 O155 2.228 . S
Cd156 O160 2.273 . S
Cd156 O164 2.277 . S
O157 C154 1.160 . S
O157 Cd158 2.203 . S
Cd158 O157 2.203 . S
Cd158 O160 2.411 . S
Cd158 O161 2.333 . S
Cd158 O162 2.352 . S
Cd158 O166 2.277 . S
Cd158 O167 2.356 . S
C159 O164 1.209 . S
C159 O166 1.226 . S
O160 Cd156 2.273 . S
O160 Cd158 2.411 . S
O160 C163 1.320 . S
O161 Cd158 2.333 . S
O161 C163 1.214 . S
O162 Cd158 2.352 . S
O162 C165 1.258 . S
C163 O160 1.320 . S
C163 O161 1.214 . S
O164 Cd156 2.277 . S
O164 C159 1.209 . S
C165 O162 1.258 . S
C165 O167 1.282 . S
O166 Cd158 2.277 . S
O166 C159 1.226 . S
O167 Cd158 2.356 . S
O167 C165 1.282 . S
C168 O169 1.306 . S
C168 O171 1.160 . S
O169 C168 1.306 . S
O169 Cd170 2.228 . S
Cd170 O169 2.228 . S
Cd170 O174 2.273 . S
Cd170 O178 2.277 . S
O171 C168 1.160 . S
O171 Cd172 2.203 . S
Cd172 O171 2.203 . S
Cd172 O174 2.411 . S
Cd172 O175 2.333 . S
Cd172 O176 2.352 . S
Cd172 O180 2.277 . S
Cd172 O181 2.356 . S
C173 O178 1.209 . S
C173 O180 1.226 . S
O174 Cd170 2.273 . S
O174 Cd172 2.411 . S
O174 C177 1.320 . S
O175 Cd172 2.333 . S
O175 C177 1.214 . S
O176 Cd172 2.352 . S
O176 C179 1.258 . S
C177 O174 1.320 . S
C177 O175 1.214 . S
O178 Cd170 2.277 . S
O178 C173 1.209 . S
C179 O176 1.258 . S
C179 O181 1.282 . S
O180 Cd172 2.277 . S
O180 C173 1.226 . S
O181 Cd172 2.356 . S
O181 C179 1.282 . S
C182 O183 1.306 . S
C182 O185 1.160 . S
O183 C182 1.306 . S
O183 Cd184 2.228 . S
Cd184 O183 2.228 . S
Cd184 O188 2.273 . S
Cd184 O192 2.277 . S
O185 C182 1.160 . S
O185 Cd186 2.203 . S
Cd186 O185 2.203 . S
Cd186 O188 2.411 . S
Cd186 O189 2.333 . S
Cd186 O190 2.352 1_554 S
Cd186 O194 2.277 . S
Cd186 O195 2.356 . S
C187 O192 1.209 . S
C187 O194 1.226 . S
O188 Cd184 2.273 . S
O188 Cd186 2.411 . S
O188 C191 1.320 . S
O189 Cd186 2.333 . S
O189 C191 1.214 . S
O190 Cd186 2.352 1_556 S
O190 C193 1.258 . S
C191 O188 1.320 . S
C191 O189 1.214 . S
O192 Cd184 2.277 . S
O192 C187 1.209 . S
C193 O190 1.258 . S
C193 O195 1.282 1_556 S
O194 Cd186 2.277 . S
O194 C187 1.226 . S
O195 Cd186 2.356 . S
O195 C193 1.282 1_554 S
C196 O197 1.306 . S
C196 O199 1.160 . S
O197 C196 1.306 . S
O197 Cd198 2.228 . S
Cd198 O197 2.228 . S
Cd198 O202 2.273 . S
Cd198 O206 2.277 . S
O199 C196 1.160 . S
O199 Cd200 2.203 . S
Cd200 O199 2.203 . S
Cd200 O202 2.411 . S
Cd200 O203 2.333 . S
Cd200 O204 2.352 . S
Cd200 O208 2.277 . S
Cd200 O209 2.356 . S
C201 O206 1.209 . S
C201 O208 1.226 . S
O202 Cd198 2.273 . S
O202 Cd200 2.411 . S
O202 C205 1.320 . S
O203 Cd200 2.333 . S
O203 C205 1.214 . S
O204 Cd200 2.352 . S
O204 C207 1.258 . S
C205 O202 1.320 . S
C205 O203 1.214 . S
O206 Cd198 2.277 . S
O206 C201 1.209 . S
C207 O204 1.258 . S
C207 O209 1.282 . S
O208 Cd200 2.277 . S
O208 C201 1.226 . S
O209 Cd200 2.356 . S
O209 C207 1.282 . S
C210 O211 1.306 . S
C210 O213 1.160 . S
O211 C210 1.306 . S
O211 Cd212 2.228 . S
Cd212 O211 2.228 . S
Cd212 O216 2.273 . S
Cd212 O220 2.277 . S
O213 C210 1.160 . S
O213 Cd214 2.203 . S
Cd214 O213 2.203 . S
Cd214 O216 2.411 . S
Cd214 O217 2.333 . S
Cd214 O218 2.352 . S
Cd214 O222 2.277 . S
Cd214 O223 2.356 . S
C215 O220 1.209 . S
C215 O222 1.226 . S
O216 Cd212 2.273 . S
O216 Cd214 2.411 . S
O216 C219 1.320 . S
O217 Cd214 2.333 . S
O217 C219 1.214 . S
O218 Cd214 2.352 . S
O218 C221 1.258 . S
C219 O216 1.320 . S
C219 O217 1.214 . S
O220 Cd212 2.277 . S
O220 C215 1.209 . S
C221 O218 1.258 . S
C221 O223 1.282 . S
O222 Cd214 2.277 . S
O222 C215 1.226 . S
O223 Cd214 2.356 . S
O223 C221 1.282 . S
C224 O225 1.306 . S
C224 O227 1.160 . S
O225 C224 1.306 . S
O225 Cd226 2.228 . S
Cd226 O225 2.228 . S
Cd226 O230 2.273 . S
Cd226 O234 2.277 . S
O227 C224 1.160 . S
O227 Cd228 2.203 . S
Cd228 O227 2.203 . S
Cd228 O230 2.411 . S
Cd228 O231 2.333 . S
Cd228 O232 2.352 . S
Cd228 O236 2.277 . S
Cd228 O237 2.356 . S
C229 O234 1.209 . S
C229 O236 1.226 . S
O230 Cd226 2.273 . S
O230 Cd228 2.411 . S
O230 C233 1.320 . S
O231 Cd228 2.333 . S
O231 C233 1.214 . S
O232 Cd228 2.352 . S
O232 C235 1.258 . S
C233 O230 1.320 . S
C233 O231 1.214 . S
O234 Cd226 2.277 . S
O234 C229 1.209 . S
C235 O232 1.258 . S
C235 O237 1.282 . S
O236 Cd228 2.277 . S
O236 C229 1.226 . S
O237 Cd228 2.356 . S
O237 C235 1.282 . S
C238 O239 1.306 . S
C238 O241 1.160 . S
O239 C238 1.306 . S
O239 Cd240 2.228 . S
Cd240 O239 2.228 . S
Cd240 O244 2.273 . S
Cd240 O248 2.277 . S
O241 C238 1.160 . S
O241 Cd242 2.203 . S
Cd242 O241 2.203 . S
Cd242 O244 2.411 . S
Cd242 O245 2.333 . S
Cd242 O246 2.352 . S
Cd242 O250 2.277 . S
Cd242 O251 2.356 . S
C243 O248 1.209 . S
C243 O250 1.226 . S
O244 Cd240 2.273 . S
O244 Cd242 2.411 . S
O244 C247 1.320 . S
O245 Cd242 2.333 . S
O245 C247 1.214 . S
O246 Cd242 2.352 . S
O246 C249 1.258 . S
C247 O244 1.320 . S
C247 O245 1.214 . S
O248 Cd240 2.277 . S
O248 C243 1.209 . S
C249 O246 1.258 . S
C249 O251 1.282 . S
O250 Cd242 2.277 . S
O250 C243 1.226 . S
O251 Cd242 2.356 . S
O251 C249 1.282 . S
C252 O253 1.306 . S
C252 O255 1.160 . S
O253 C252 1.306 . S
O253 Cd254 2.228 . S
Cd254 O253 2.228 . S
Cd254 O258 2.273 . S
Cd254 O262 2.277 . S
O255 C252 1.160 . S
O255 Cd256 2.203 . S
Cd256 O255 2.203 . S
Cd256 O258 2.411 . S
Cd256 O259 2.333 . S
Cd256 O260 2.352 . S
Cd256 O264 2.277 . S
Cd256 O265 2.356 . S
C257 O262 1.209 . S
C257 O264 1.226 . S
O258 Cd254 2.273 . S
O258 Cd256 2.411 . S
O258 C261 1.320 . S
O259 Cd256 2.333 . S
O259 C261 1.214 . S
O260 Cd256 2.352 . S
O260 C263 1.258 . S
C261 O258 1.320 . S
C261 O259 1.214 . S
O262 Cd254 2.277 . S
O262 C257 1.209 . S
C263 O260 1.258 . S
C263 O265 1.282 . S
O264 Cd256 2.277 . S
O264 C257 1.226 . S
O265 Cd256 2.356 . S
O265 C263 1.282 . S
C266 O267 1.306 . S
C266 O269 1.160 . S
O267 C266 1.306 . S
O267 Cd268 2.228 . S
Cd268 O267 2.228 . S
Cd268 O272 2.273 1_545 S
Cd268 O276 2.277 . S
O269 C266 1.160 . S
O269 Cd270 2.204 1_545 S
Cd270 O269 2.204 1_565 S
Cd270 O272 2.407 . S
Cd270 O273 2.331 . S
Cd270 O274 2.371 . S
Cd270 O278 2.262 1_565 S
Cd270 O279 2.370 . S
C271 O276 1.209 . S
C271 O278 1.226 . S
O272 Cd268 2.273 1_565 S
O272 Cd270 2.407 . S
O272 C275 1.320 . S
O273 Cd270 2.331 . S
O273 C275 1.214 . S
O274 Cd270 2.371 . S
O274 C277 1.258 . S
C275 O272 1.320 . S
C275 O273 1.214 . S
O276 Cd268 2.277 . S
O276 C271 1.209 . S
C277 O274 1.258 . S
C277 O279 1.282 . S
O278 Cd270 2.262 1_545 S
O278 C271 1.226 . S
O279 Cd270 2.370 . S
O279 C277 1.282 . S
C280 O281 1.306 . S
C280 O283 1.160 1_554 S
O281 C280 1.306 . S
O281 Cd282 2.228 . S
Cd282 O281 2.228 . S
Cd282 O286 2.273 1_554 S
Cd282 O290 2.277 . S
O283 C280 1.160 1_556 S
O283 Cd284 2.203 . S
Cd284 O283 2.203 . S
Cd284 O286 2.411 . S
Cd284 O287 2.333 . S
Cd284 O288 2.352 . S
Cd284 O292 2.277 1_556 S
Cd284 O293 2.356 . S
C285 O290 1.209 . S
C285 O292 1.226 . S
O286 Cd282 2.273 1_556 S
O286 Cd284 2.411 . S
O286 C289 1.320 . S
O287 Cd284 2.333 . S
O287 C289 1.214 . S
O288 Cd284 2.352 . S
O288 C291 1.258 . S
C289 O286 1.320 . S
C289 O287 1.214 . S
O290 Cd282 2.277 . S
O290 C285 1.209 . S
C291 O288 1.258 . S
C291 O293 1.282 . S
O292 Cd284 2.277 1_554 S
O292 C285 1.226 . S
O293 Cd284 2.356 . S
O293 C291 1.282 . S
C294 O295 1.306 . S
C294 O297 1.160 . S
O295 C294 1.306 . S
O295 Cd296 2.228 . S
Cd296 O295 2.228 . S
Cd296 O300 2.273 . S
Cd296 O304 2.277 . S
O297 C294 1.160 . S
O297 Cd298 2.203 . S
Cd298 O297 2.203 . S
Cd298 O300 2.411 . S
Cd298 O301 2.333 . S
Cd298 O302 2.352 . S
Cd298 O306 2.277 . S
Cd298 O307 2.356 . S
C299 O304 1.209 . S
C299 O306 1.226 . S
O300 Cd296 2.273 . S
O300 Cd298 2.411 . S
O300 C303 1.320 . S
O301 Cd298 2.333 . S
O301 C303 1.214 . S
O302 Cd298 2.352 . S
O302 C305 1.258 . S
C303 O300 1.320 . S
C303 O301 1.214 . S
O304 Cd296 2.277 . S
O304 C299 1.209 . S
C305 O302 1.258 . S
C305 O307 1.282 . S
O306 Cd298 2.277 . S
O306 C299 1.226 . S
O307 Cd298 2.356 . S
O307 C305 1.282 . S
C308 O309 1.306 . S
C308 O311 1.160 . S
O309 C308 1.306 . S
O309 Cd310 2.228 . S
Cd310 O309 2.228 . S
Cd310 O314 2.273 . S
Cd310 O318 2.277 . S
O311 C308 1.160 . S
O311 Cd312 2.203 . S
Cd312 O311 2.203 . S
Cd312 O314 2.411 . S
Cd312 O315 2.333 . S
Cd312 O316 2.352 . S
Cd312 O320 2.277 . S
Cd312 O321 2.356 . S
C313 O318 1.209 . S
C313 O320 1.226 . S
O314 Cd310 2.273 . S
O314 Cd312 2.411 . S
O314 C317 1.320 . S
O315 Cd312 2.333 . S
O315 C317 1.214 . S
O316 Cd312 2.352 . S
O316 C319 1.258 . S
C317 O314 1.320 . S
C317 O315 1.214 . S
O318 Cd310 2.277 . S
O318 C313 1.209 . S
C319 O316 1.258 . S
C319 O321 1.282 . S
O320 Cd312 2.277 . S
O320 C313 1.226 . S
O321 Cd312 2.356 . S
O321 C319 1.282 . S
C322 O323 1.306 . S
C322 O325 1.160 . S
O323 C322 1.306 . S
O323 Cd324 2.228 . S
Cd324 O323 2.228 . S
Cd324 O328 2.273 . S
Cd324 O332 2.277 . S
O325 C322 1.160 . S
O325 Cd326 2.203 . S
Cd326 O325 2.203 . S
Cd326 O328 2.411 . S
Cd326 O329 2.333 . S
Cd326 O330 2.352 . S
Cd326 O334 2.277 . S
Cd326 O335 2.356 . S
C327 O332 1.209 . S
C327 O334 1.226 . S
O328 Cd324 2.273 . S
O328 Cd326 2.411 . S
O328 C331 1.320 . S
O329 Cd326 2.333 . S
O329 C331 1.214 . S
O330 Cd326 2.352 . S
O330 C333 1.258 . S
C331 O328 1.320 . S
C331 O329 1.214 . S
O332 Cd324 2.277 . S
O332 C327 1.209 . S
C333 O330 1.258 . S
C333 O335 1.282 . S
O334 Cd326 2.277 . S
O334 C327 1.226 . S
O335 Cd326 2.356 . S
O335 C333 1.282 . S
Nd336 C338 2.836 . S
Nd336 O356 2.500 . S
Nd336 O357 2.492 . S
Nd336 O358 2.487 . S
Nd336 O359 2.682 . S
Nd336 O360 2.410 . S
Nd336 O365 2.414 . S
Nd336 O367 2.424 . S
Nd337 C347 2.836 1_545 S
Nd337 O359 2.414 . S
Nd337 O361 2.424 1_455 S
Nd337 O362 2.500 1_545 S
Nd337 O363 2.495 . S
Nd337 O364 2.487 . S
Nd337 O365 2.682 . S
Nd337 O366 2.410 . S
C338 Nd336 2.836 . S
C338 C339 1.498 . S
C338 O356 1.258 . S
C338 O357 1.239 . S
C339 C338 1.498 . S
C339 C340 1.366 . S
C339 C344 1.407 . S
C340 C339 1.366 . S
C340 C341 1.392 . S
C340 H368 0.930 . S
C341 C340 1.392 . S
C341 C342 1.398 . S
C341 H369 0.929 . S
C342 C341 1.398 . S
C342 C343 1.352 . S
C343 C342 1.352 . S
C343 C344 1.384 . S
C343 H370 0.930 . S
C344 C339 1.407 . S
C344 C343 1.384 . S
C344 H371 0.929 . S
C345 O358 1.241 . S
C345 O359 1.273 . S
C346 O360 1.251 1_655 S
C346 O361 1.268 . S
C347 Nd337 2.836 1_565 S
C347 C348 1.498 . S
C347 O362 1.258 . S
C347 O363 1.237 1_565 S
C348 C347 1.498 . S
C348 C349 1.366 . S
C348 C353 1.407 . S
C349 C348 1.366 . S
C349 C350 1.392 . S
C349 H372 0.930 . S
C350 C349 1.392 . S
C350 C351 1.398 . S
C350 H373 0.929 . S
C351 C350 1.398 . S
C351 C352 1.352 . S
C352 C351 1.352 . S
C352 C353 1.384 . S
C352 H374 0.930 . S
C353 C348 1.407 . S
C353 C352 1.384 . S
C353 H375 0.923 1_455 S
C354 O364 1.241 . S
C354 O365 1.273 . S
C355 O366 1.251 . S
C355 O367 1.268 . S
O356 Nd336 2.500 . S
O356 C338 1.258 . S
O357 Nd336 2.492 . S
O357 C338 1.239 . S
O358 Nd336 2.487 . S
O358 C345 1.241 . S
O359 Nd336 2.682 . S
O359 Nd337 2.414 . S
O359 C345 1.273 . S
O360 Nd336 2.410 . S
O360 C346 1.251 1_455 S
O361 Nd337 2.424 1_655 S
O361 C346 1.268 . S
O362 Nd337 2.500 1_565 S
O362 C347 1.258 . S
O363 Nd337 2.495 . S
O363 C347 1.237 1_545 S
O364 Nd337 2.487 . S
O364 C354 1.241 . S
O365 Nd336 2.414 . S
O365 Nd337 2.682 . S
O365 C354 1.273 . S
O366 Nd337 2.410 . S
O366 C355 1.251 . S
O367 Nd336 2.424 . S
O367 C355 1.268 . S
H368 C340 0.930 . S
H369 C341 0.929 . S
H370 C343 0.930 . S
H371 C344 0.929 . S
H372 C349 0.930 . S
H373 C350 0.929 . S
H374 C352 0.930 . S
H375 C353 0.923 1_655 S
Nd376 C378 2.836 . S
Nd376 O396 2.500 . S
Nd376 O397 2.492 . S
Nd376 O398 2.487 . S
Nd376 O399 2.682 . S
Nd376 O400 2.410 . S
Nd376 O405 2.414 . S
Nd376 O407 2.424 . S
Nd377 C387 2.836 . S
Nd377 O399 2.414 . S
Nd377 O401 2.424 . S
Nd377 O402 2.500 . S
Nd377 O403 2.492 . S
Nd377 O404 2.487 . S
Nd377 O405 2.682 . S
Nd377 O406 2.410 . S
C378 Nd376 2.836 . S
C378 C379 1.498 . S
C378 O396 1.258 . S
C378 O397 1.239 . S
C379 C378 1.498 . S
C379 C380 1.366 . S
C379 C384 1.407 . S
C380 C379 1.366 . S
C380 C381 1.392 . S
C380 H408 0.930 . S
C381 C380 1.392 . S
C381 C382 1.398 . S
C381 H409 0.929 . S
C382 C381 1.398 . S
C382 C383 1.352 . S
C383 C382 1.352 . S
C383 C384 1.384 . S
C383 H410 0.930 . S
C384 C379 1.407 . S
C384 C383 1.384 . S
C384 H411 0.929 . S
C385 O398 1.241 . S
C385 O399 1.273 . S
C386 O400 1.251 . S
C386 O401 1.268 . S
C387 Nd377 2.836 . S
C387 C388 1.498 . S
C387 O402 1.258 . S
C387 O403 1.239 . S
C388 C387 1.498 . S
C388 C389 1.366 . S
C388 C393 1.407 . S
C389 C388 1.366 . S
C389 C390 1.392 . S
C389 H412 0.930 . S
C390 C389 1.392 . S
C390 C391 1.398 . S
C390 H413 0.929 . S
C391 C390 1.398 . S
C391 C392 1.352 . S
C392 C391 1.352 . S
C392 C393 1.384 . S
C392 H414 0.930 . S
C393 C388 1.407 . S
C393 C392 1.384 . S
C393 H415 0.929 . S
C394 O404 1.241 . S
C394 O405 1.273 . S
C395 O406 1.251 . S
C395 O407 1.268 . S
O396 Nd376 2.500 . S
O396 C378 1.258 . S
O397 Nd376 2.492 . S
O397 C378 1.239 . S
O398 Nd376 2.487 . S
O398 C385 1.241 . S
O399 Nd376 2.682 . S
O399 Nd377 2.414 . S
O399 C385 1.273 . S
O400 Nd376 2.410 . S
O400 C386 1.251 . S
O401 Nd377 2.424 . S
O401 C386 1.268 . S
O402 Nd377 2.500 . S
O402 C387 1.258 . S
O403 Nd377 2.492 . S
O403 C387 1.239 . S
O404 Nd377 2.487 . S
O404 C394 1.241 . S
O405 Nd376 2.414 . S
O405 Nd377 2.682 . S
O405 C394 1.273 . S
O406 Nd377 2.410 . S
O406 C395 1.251 . S
O407 Nd376 2.424 . S
O407 C395 1.268 . S
H408 C380 0.930 . S
H409 C381 0.929 . S
H410 C383 0.930 . S
H411 C384 0.929 . S
H412 C389 0.930 . S
H413 C390 0.929 . S
H414 C392 0.930 . S
H415 C393 0.929 . S
Nd416 C418 2.836 . S
Nd416 O436 2.500 . S
Nd416 O437 2.492 . S
Nd416 O438 2.487 . S
Nd416 O439 2.682 . S
Nd416 O440 2.410 . S
Nd416 O445 2.414 . S
Nd416 O447 2.424 . S
Nd417 C427 2.836 . S
Nd417 O439 2.414 . S
Nd417 O441 2.424 . S
Nd417 O442 2.500 . S
Nd417 O443 2.492 . S
Nd417 O444 2.487 . S
Nd417 O445 2.682 . S
Nd417 O446 2.410 . S
C418 Nd416 2.836 . S
C418 C419 1.498 . S
C418 O436 1.258 . S
C418 O437 1.239 . S
C419 C418 1.498 . S
C419 C420 1.366 . S
C419 C424 1.407 . S
C420 C419 1.366 . S
C420 C421 1.392 . S
C420 H448 0.930 . S
C421 C420 1.392 . S
C421 C422 1.398 . S
C421 H449 0.929 . S
C422 C421 1.398 . S
C422 C423 1.352 . S
C423 C422 1.352 . S
C423 C424 1.384 . S
C423 H450 0.930 . S
C424 C419 1.407 . S
C424 C423 1.384 . S
C424 H451 0.929 . S
C425 O438 1.241 . S
C425 O439 1.273 . S
C426 O440 1.251 . S
C426 O441 1.268 . S
C427 Nd417 2.836 . S
C427 C428 1.498 . S
C427 O442 1.258 . S
C427 O443 1.239 . S
C428 C427 1.498 . S
C428 C429 1.366 . S
C428 C433 1.407 . S
C429 C428 1.366 . S
C429 C430 1.392 . S
C429 H452 0.930 . S
C430 C429 1.392 . S
C430 C431 1.398 . S
C430 H453 0.929 . S
C431 C430 1.398 . S
C431 C432 1.352 . S
C432 C431 1.352 . S
C432 C433 1.384 . S
C432 H454 0.930 . S
C433 C428 1.407 . S
C433 C432 1.384 . S
C433 H455 0.929 . S
C434 O444 1.241 . S
C434 O445 1.273 . S
C435 O446 1.251 . S
C435 O447 1.268 . S
O436 Nd416 2.500 . S
O436 C418 1.258 . S
O437 Nd416 2.492 . S
O437 C418 1.239 . S
O438 Nd416 2.487 . S
O438 C425 1.241 . S
O439 Nd416 2.682 . S
O439 Nd417 2.414 . S
O439 C425 1.273 . S
O440 Nd416 2.410 . S
O440 C426 1.251 . S
O441 Nd417 2.424 . S
O441 C426 1.268 . S
O442 Nd417 2.500 . S
O442 C427 1.258 . S
O443 Nd417 2.492 . S
O443 C427 1.239 . S
O444 Nd417 2.487 . S
O444 C434 1.241 . S
O445 Nd416 2.414 . S
O445 Nd417 2.682 . S
O445 C434 1.273 . S
O446 Nd417 2.410 . S
O446 C435 1.251 . S
O447 Nd416 2.424 . S
O447 C435 1.268 . S
H448 C420 0.930 . S
H449 C421 0.929 . S
H450 C423 0.930 . S
H451 C424 0.929 . S
H452 C429 0.930 . S
H453 C430 0.929 . S
H454 C432 0.930 . S
H455 C433 0.929 . S
Nd456 C458 2.836 . S
Nd456 O476 2.500 . S
Nd456 O477 2.492 . S
Nd456 O478 2.487 . S
Nd456 O479 2.682 . S
Nd456 O480 2.410 . S
Nd456 O485 2.414 . S
Nd456 O487 2.424 . S
Nd457 C467 2.836 . S
Nd457 O479 2.414 . S
Nd457 O481 2.424 . S
Nd457 O482 2.500 . S
Nd457 O483 2.492 . S
Nd457 O484 2.487 . S
Nd457 O485 2.682 . S
Nd457 O486 2.410 . S
C458 Nd456 2.836 . S
C458 C459 1.498 . S
C458 O476 1.258 . S
C458 O477 1.239 . S
C459 C458 1.498 . S
C459 C460 1.366 . S
C459 C464 1.407 . S
C460 C459 1.366 . S
C460 C461 1.392 . S
C460 H488 0.930 . S
C461 C460 1.392 . S
C461 C462 1.398 . S
C461 H489 0.929 . S
C462 C461 1.398 . S
C462 C463 1.352 . S
C463 C462 1.352 . S
C463 C464 1.384 . S
C463 H490 0.930 . S
C464 C459 1.407 . S
C464 C463 1.384 . S
C464 H491 0.929 . S
C465 O478 1.241 . S
C465 O479 1.273 . S
C466 O480 1.251 . S
C466 O481 1.268 . S
C467 Nd457 2.836 . S
C467 C468 1.498 . S
C467 O482 1.258 . S
C467 O483 1.239 . S
C468 C467 1.498 . S
C468 C469 1.366 . S
C468 C473 1.407 . S
C469 C468 1.366 . S
C469 C470 1.392 . S
C469 H492 0.930 . S
C470 C469 1.392 . S
C470 C471 1.398 . S
C470 H493 0.929 . S
C471 C470 1.398 . S
C471 C472 1.352 . S
C472 C471 1.352 . S
C472 C473 1.384 . S
C472 H494 0.930 . S
C473 C468 1.407 . S
C473 C472 1.384 . S
C473 H495 0.929 . S
C474 O484 1.241 . S
C474 O485 1.273 . S
C475 O486 1.251 . S
C475 O487 1.268 . S
O476 Nd456 2.500 . S
O476 C458 1.258 . S
O477 Nd456 2.492 . S
O477 C458 1.239 . S
O478 Nd456 2.487 . S
O478 C465 1.241 . S
O479 Nd456 2.682 . S
O479 Nd457 2.414 . S
O479 C465 1.273 . S
O480 Nd456 2.410 . S
O480 C466 1.251 . S
O481 Nd457 2.424 . S
O481 C466 1.268 . S
O482 Nd457 2.500 . S
O482 C467 1.258 . S
O483 Nd457 2.492 . S
O483 C467 1.239 . S
O484 Nd457 2.487 . S
O484 C474 1.241 . S
O485 Nd456 2.414 . S
O485 Nd457 2.682 . S
O485 C474 1.273 . S
O486 Nd457 2.410 . S
O486 C475 1.251 . S
O487 Nd456 2.424 . S
O487 C475 1.268 . S
H488 C460 0.930 . S
H489 C461 0.929 . S
H490 C463 0.930 . S
H491 C464 0.929 . S
H492 C469 0.930 . S
H493 C470 0.929 . S
H494 C472 0.930 . S
H495 C473 0.929 . S
Nd496 C498 2.836 . S
Nd496 O516 2.500 . S
Nd496 O517 2.492 . S
Nd496 O518 2.487 . S
Nd496 O519 2.682 . S
Nd496 O520 2.410 . S
Nd496 O525 2.414 . S
Nd496 O527 2.424 . S
Nd497 C507 2.836 1_545 S
Nd497 O519 2.414 . S
Nd497 O521 2.424 . S
Nd497 O522 2.500 . S
Nd497 O523 2.492 1_545 S
Nd497 O524 2.487 1_455 S
Nd497 O525 2.682 . S
Nd497 O526 2.410 . S
C498 Nd496 2.836 . S
C498 C499 1.498 . S
C498 O516 1.258 . S
C498 O517 1.239 . S
C499 C498 1.498 . S
C499 C500 1.366 1_455 S
C499 C504 1.407 . S
C500 C499 1.366 1_655 S
C500 C501 1.392 . S
C500 H528 0.930 . S
C501 C500 1.392 . S
C501 C502 1.395 1_655 S
C501 H529 0.929 . S
C502 C501 1.395 1_455 S
C502 C503 1.357 . S
C503 C502 1.357 . S
C503 C504 1.384 . S
C503 H530 0.930 . S
C504 C499 1.407 . S
C504 C503 1.384 . S
C504 H531 0.929 . S
C505 O518 1.241 . S
C505 O519 1.273 . S
C506 O520 1.251 . S
C506 O521 1.268 . S
C507 Nd497 2.836 1_565 S
C507 C508 1.498 . S
C507 O522 1.258 1_565 S
C507 O523 1.239 . S
C508 C507 1.498 . S
C508 C509 1.366 . S
C508 C513 1.407 . S
C509 C508 1.366 . S
C509 C510 1.392 . S
C509 H532 0.930 . S
C510 C509 1.392 . S
C510 C511 1.398 . S
C510 H533 0.929 . S
C511 C510 1.398 . S
C511 C512 1.352 . S
C512 C511 1.352 . S
C512 C513 1.384 . S
C512 H534 0.930 . S
C513 C508 1.407 . S
C513 C512 1.384 . S
C513 H535 0.929 . S
C514 O524 1.241 . S
C514 O525 1.273 1_655 S
C515 O526 1.251 . S
C515 O527 1.268 . S
O516 Nd496 2.500 . S
O516 C498 1.258 . S
O517 Nd496 2.492 . S
O517 C498 1.239 . S
O518 Nd496 2.487 . S
O518 C505 1.241 . S
O519 Nd496 2.682 . S
O519 Nd497 2.414 . S
O519 C505 1.273 . S
O520 Nd496 2.410 . S
O520 C506 1.251 . S
O521 Nd497 2.424 . S
O521 C506 1.268 . S
O522 Nd497 2.500 . S
O522 C507 1.258 1_545 S
O523 Nd497 2.492 1_565 S
O523 C507 1.239 . S
O524 Nd497 2.487 1_655 S
O524 C514 1.241 . S
O525 Nd496 2.414 . S
O525 Nd497 2.682 . S
O525 C514 1.273 1_455 S
O526 Nd497 2.410 . S
O526 C515 1.251 . S
O527 Nd496 2.424 . S
O527 C515 1.268 . S
H528 C500 0.930 . S
H529 C501 0.929 . S
H530 C503 0.930 . S
H531 C504 0.929 . S
H532 C509 0.930 . S
H533 C510 0.929 . S
H534 C512 0.930 . S
H535 C513 0.929 . S
Nd536 C538 2.836 . S
Nd536 O556 2.500 . S
Nd536 O557 2.492 . S
Nd536 O558 2.487 . S
Nd536 O559 2.682 . S
Nd536 O560 2.410 . S
Nd536 O565 2.414 . S
Nd536 O567 2.424 . S
Nd537 C547 2.836 . S
Nd537 O559 2.414 . S
Nd537 O561 2.424 . S
Nd537 O562 2.500 . S
Nd537 O563 2.492 . S
Nd537 O564 2.487 . S
Nd537 O565 2.682 . S
Nd537 O566 2.410 . S
C538 Nd536 2.836 . S
C538 C539 1.498 . S
C538 O556 1.258 . S
C538 O557 1.239 . S
C539 C538 1.498 . S
C539 C540 1.366 . S
C539 C544 1.407 . S
C540 C539 1.366 . S
C540 C541 1.392 . S
C540 H568 0.930 . S
C541 C540 1.392 . S
C541 C542 1.398 . S
C541 H569 0.929 . S
C542 C541 1.398 . S
C542 C543 1.352 . S
C543 C542 1.352 . S
C543 C544 1.384 . S
C543 H570 0.930 . S
C544 C539 1.407 . S
C544 C543 1.384 . S
C544 H571 0.929 . S
C545 O558 1.241 . S
C545 O559 1.273 . S
C546 O560 1.251 . S
C546 O561 1.268 . S
C547 Nd537 2.836 . S
C547 C548 1.498 . S
C547 O562 1.258 . S
C547 O563 1.239 . S
C548 C547 1.498 . S
C548 C549 1.366 . S
C548 C553 1.407 . S
C549 C548 1.366 . S
C549 C550 1.392 . S
C549 H572 0.930 . S
C550 C549 1.392 . S
C550 C551 1.398 . S
C550 H573 0.929 . S
C551 C550 1.398 . S
C551 C552 1.352 . S
C552 C551 1.352 . S
C552 C553 1.384 . S
C552 H574 0.930 . S
C553 C548 1.407 . S
C553 C552 1.384 . S
C553 H575 0.929 . S
C554 O564 1.241 . S
C554 O565 1.273 . S
C555 O566 1.251 . S
C555 O567 1.268 . S
O556 Nd536 2.500 . S
O556 C538 1.258 . S
O557 Nd536 2.492 . S
O557 C538 1.239 . S
O558 Nd536 2.487 . S
O558 C545 1.241 . S
O559 Nd536 2.682 . S
O559 Nd537 2.414 . S
O559 C545 1.273 . S
O560 Nd536 2.410 . S
O560 C546 1.251 . S
O561 Nd537 2.424 . S
O561 C546 1.268 . S
O562 Nd537 2.500 . S
O562 C547 1.258 . S
O563 Nd537 2.492 . S
O563 C547 1.239 . S
O564 Nd537 2.487 . S
O564 C554 1.241 . S
O565 Nd536 2.414 . S
O565 Nd537 2.682 . S
O565 C554 1.273 . S
O566 Nd537 2.410 . S
O566 C555 1.251 . S
O567 Nd536 2.424 . S
O567 C555 1.268 . S
H568 C540 0.930 . S
H569 C541 0.929 . S
H570 C543 0.930 . S
H571 C544 0.929 . S
H572 C549 0.930 . S
H573 C550 0.929 . S
H574 C552 0.930 . S
H575 C553 0.929 . S
Nd576 C578 2.836 . S
Nd576 O596 2.500 . S
Nd576 O597 2.492 . S
Nd576 O598 2.487 . S
Nd576 O599 2.682 . S
Nd576 O600 2.410 . S
Nd576 O605 2.414 . S
Nd576 O607 2.424 . S
Nd577 C587 2.836 . S
Nd577 O599 2.414 . S
Nd577 O601 2.424 . S
Nd577 O602 2.500 . S
Nd577 O603 2.492 . S
Nd577 O604 2.487 . S
Nd577 O605 2.682 . S
Nd577 O606 2.410 . S
C578 Nd576 2.836 . S
C578 C579 1.498 . S
C578 O596 1.258 . S
C578 O597 1.239 . S
C579 C578 1.498 . S
C579 C580 1.366 . S
C579 C584 1.407 . S
C580 C579 1.366 . S
C580 C581 1.392 . S
C580 H608 0.930 . S
C581 C580 1.392 . S
C581 C582 1.398 . S
C581 H609 0.929 . S
C582 C581 1.398 . S
C582 C583 1.352 . S
C583 C582 1.352 . S
C583 C584 1.384 . S
C583 H610 0.930 1_545 S
C584 C579 1.407 . S
C584 C583 1.384 . S
C584 H611 0.910 1_545 S
C585 O598 1.241 . S
C585 O599 1.273 . S
C586 O600 1.251 . S
C586 O601 1.268 . S
C587 Nd577 2.836 . S
C587 C588 1.498 . S
C587 O602 1.258 . S
C587 O603 1.239 . S
C588 C587 1.498 . S
C588 C589 1.366 . S
C588 C593 1.407 . S
C589 C588 1.366 . S
C589 C590 1.392 . S
C589 H612 0.930 . S
C590 C589 1.392 . S
C590 C591 1.398 . S
C590 H613 0.929 . S
C591 C590 1.398 . S
C591 C592 1.352 . S
C592 C591 1.352 . S
C592 C593 1.384 . S
C592 H614 0.930 . S
C593 C588 1.407 . S
C593 C592 1.384 . S
C593 H615 0.929 . S
C594 O604 1.241 . S
C594 O605 1.273 . S
C595 O606 1.251 . S
C595 O607 1.268 . S
O596 Nd576 2.500 . S
O596 C578 1.258 . S
O597 Nd576 2.492 . S
O597 C578 1.239 . S
O598 Nd576 2.487 . S
O598 C585 1.241 . S
O599 Nd576 2.682 . S
O599 Nd577 2.414 . S
O599 C585 1.273 . S
O600 Nd576 2.410 . S
O600 C586 1.251 . S
O601 Nd577 2.424 . S
O601 C586 1.268 . S
O602 Nd577 2.500 . S
O602 C587 1.258 . S
O603 Nd577 2.492 . S
O603 C587 1.239 . S
O604 Nd577 2.487 . S
O604 C594 1.241 . S
O605 Nd576 2.414 . S
O605 Nd577 2.682 . S
O605 C594 1.273 . S
O606 Nd577 2.410 . S
O606 C595 1.251 . S
O607 Nd576 2.424 . S
O607 C595 1.268 . S
H608 C580 0.930 . S
H609 C581 0.929 . S
H610 C583 0.930 1_565 S
H611 C584 0.910 1_565 S
H612 C589 0.930 . S
H613 C590 0.929 . S
H614 C592 0.930 . S
H615 C593 0.929 . S
Nd616 C618 2.836 . S
Nd616 O636 2.500 . S
Nd616 O637 2.492 . S
Nd616 O638 2.487 . S
Nd616 O639 2.682 . S
Nd616 O640 2.410 . S
Nd616 O645 2.414 . S
Nd616 O647 2.424 . S
Nd617 C627 2.836 . S
Nd617 O639 2.414 . S
Nd617 O641 2.424 . S
Nd617 O642 2.500 . S
Nd617 O643 2.492 . S
Nd617 O644 2.487 . S
Nd617 O645 2.682 . S
Nd617 O646 2.410 . S
C618 Nd616 2.836 . S
C618 C619 1.498 . S
C618 O636 1.258 . S
C618 O637 1.239 . S
C619 C618 1.498 . S
C619 C620 1.366 . S
C619 C624 1.407 . S
C620 C619 1.366 . S
C620 C621 1.392 . S
C620 H648 0.930 . S
C621 C620 1.392 . S
C621 C622 1.398 . S
C621 H649 0.929 . S
C622 C621 1.398 . S
C622 C623 1.352 . S
C623 C622 1.352 . S
C623 C624 1.384 . S
C623 H650 0.930 . S
C624 C619 1.407 . S
C624 C623 1.384 . S
C624 H651 0.929 . S
C625 O638 1.241 . S
C625 O639 1.273 . S
C626 O640 1.251 . S
C626 O641 1.268 . S
C627 Nd617 2.836 . S
C627 C628 1.498 . S
C627 O642 1.258 . S
C627 O643 1.239 . S
C628 C627 1.498 . S
C628 C629 1.366 . S
C628 C633 1.407 . S
C629 C628 1.366 . S
C629 C630 1.392 . S
C629 H652 0.930 . S
C630 C629 1.392 . S
C630 C631 1.398 . S
C630 H653 0.929 . S
C631 C630 1.398 . S
C631 C632 1.352 . S
C632 C631 1.352 . S
C632 C633 1.384 . S
C632 H654 0.930 . S
C633 C628 1.407 . S
C633 C632 1.384 . S
C633 H655 0.929 . S
C634 O644 1.241 . S
C634 O645 1.273 . S
C635 O646 1.251 . S
C635 O647 1.268 . S
O636 Nd616 2.500 . S
O636 C618 1.258 . S
O637 Nd616 2.492 . S
O637 C618 1.239 . S
O638 Nd616 2.487 . S
O638 C625 1.241 . S
O639 Nd616 2.682 . S
O639 Nd617 2.414 . S
O639 C625 1.273 . S
O640 Nd616 2.410 . S
O640 C626 1.251 . S
O641 Nd617 2.424 . S
O641 C626 1.268 . S
O642 Nd617 2.500 . S
O642 C627 1.258 . S
O643 Nd617 2.492 . S
O643 C627 1.239 . S
O644 Nd617 2.487 . S
O644 C634 1.241 . S
O645 Nd616 2.414 . S
O645 Nd617 2.682 . S
O645 C634 1.273 . S
O646 Nd617 2.410 . S
O646 C635 1.251 . S
O647 Nd616 2.424 . S
O647 C635 1.268 . S
H648 C620 0.930 . S
H649 C621 0.929 . S
H650 C623 0.930 . S
H651 C624 0.929 . S
H652 C629 0.930 . S
H653 C630 0.929 . S
H654 C632 0.930 . S
H655 C633 0.929 . S
Nd656 C658 2.836 . S
Nd656 O676 2.500 . S
Nd656 O677 2.492 . S
Nd656 O678 2.487 . S
Nd656 O679 2.682 . S
Nd656 O680 2.410 . S
Nd656 O685 2.414 . S
Nd656 O687 2.424 . S
Nd657 C667 2.836 . S
Nd657 O679 2.414 . S
Nd657 O681 2.424 . S
Nd657 O682 2.500 . S
Nd657 O683 2.492 . S
Nd657 O684 2.487 . S
Nd657 O685 2.682 . S
Nd657 O686 2.410 . S
C658 Nd656 2.836 . S
C658 C659 1.498 . S
C658 O676 1.258 . S
C658 O677 1.239 . S
C659 C658 1.498 . S
C659 C660 1.366 . S
C659 C664 1.407 . S
C660 C659 1.366 . S
C660 C661 1.392 . S
C660 H688 0.930 . S
C661 C660 1.392 . S
C661 C662 1.398 . S
C661 H689 0.929 . S
C662 C661 1.398 . S
C662 C663 1.352 . S
C663 C662 1.352 . S
C663 C664 1.384 . S
C663 H690 0.930 . S
C664 C659 1.407 . S
C664 C663 1.384 . S
C664 H691 0.929 . S
C665 O678 1.241 . S
C665 O679 1.273 . S
C666 O680 1.251 . S
C666 O681 1.268 . S
C667 Nd657 2.836 . S
C667 C668 1.498 . S
C667 O682 1.258 . S
C667 O683 1.239 . S
C668 C667 1.498 . S
C668 C669 1.366 . S
C668 C673 1.407 . S
C669 C668 1.366 . S
C669 C670 1.392 . S
C669 H692 0.930 . S
C670 C669 1.392 . S
C670 C671 1.398 . S
C670 H693 0.929 . S
C671 C670 1.398 . S
C671 C672 1.352 . S
C672 C671 1.352 . S
C672 C673 1.384 . S
C672 H694 0.930 . S
C673 C668 1.407 . S
C673 C672 1.384 . S
C673 H695 0.929 . S
C674 O684 1.241 . S
C674 O685 1.273 . S
C675 O686 1.251 . S
C675 O687 1.268 . S
O676 Nd656 2.500 . S
O676 C658 1.258 . S
O677 Nd656 2.492 . S
O677 C658 1.239 . S
O678 Nd656 2.487 . S
O678 C665 1.241 . S
O679 Nd656 2.682 . S
O679 Nd657 2.414 . S
O679 C665 1.273 . S
O680 Nd656 2.410 . S
O680 C666 1.251 . S
O681 Nd657 2.424 . S
O681 C666 1.268 . S
O682 Nd657 2.500 . S
O682 C667 1.258 . S
O683 Nd657 2.492 . S
O683 C667 1.239 . S
O684 Nd657 2.487 . S
O684 C674 1.241 . S
O685 Nd656 2.414 . S
O685 Nd657 2.682 . S
O685 C674 1.273 . S
O686 Nd657 2.410 . S
O686 C675 1.251 . S
O687 Nd656 2.424 . S
O687 C675 1.268 . S
H688 C660 0.930 . S
H689 C661 0.929 . S
H690 C663 0.930 . S
H691 C664 0.929 . S
H692 C669 0.930 . S
H693 C670 0.929 . S
H694 C672 0.930 . S
H695 C673 0.929 . S
Nd696 C698 2.836 . S
Nd696 O716 2.500 . S
Nd696 O717 2.492 . S
Nd696 O718 2.487 . S
Nd696 O719 2.682 . S
Nd696 O720 2.410 . S
Nd696 O725 2.414 . S
Nd696 O727 2.424 . S
Nd697 C707 2.836 . S
Nd697 O719 2.414 . S
Nd697 O721 2.424 . S
Nd697 O722 2.500 . S
Nd697 O723 2.492 . S
Nd697 O724 2.487 . S
Nd697 O725 2.682 . S
Nd697 O726 2.410 . S
C698 Nd696 2.836 . S
C698 C699 1.498 . S
C698 O716 1.258 . S
C698 O717 1.239 . S
C699 C698 1.498 . S
C699 C700 1.366 . S
C699 C704 1.407 . S
C700 C699 1.366 . S
C700 C701 1.392 . S
C700 H728 0.930 . S
C701 C700 1.392 . S
C701 C702 1.398 . S
C701 H729 0.929 . S
C702 C701 1.398 . S
C702 C703 1.352 . S
C703 C702 1.352 . S
C703 C704 1.384 . S
C703 H730 0.930 . S
C704 C699 1.407 . S
C704 C703 1.384 . S
C704 H731 0.929 . S
C705 O718 1.241 . S
C705 O719 1.273 . S
C706 O720 1.251 . S
C706 O721 1.268 . S
C707 Nd697 2.836 . S
C707 C708 1.498 . S
C707 O722 1.258 . S
C707 O723 1.239 . S
C708 C707 1.498 . S
C708 C709 1.366 . S
C708 C713 1.407 . S
C709 C708 1.366 . S
C709 C710 1.392 . S
C709 H732 0.930 . S
C710 C709 1.392 . S
C710 C711 1.398 . S
C710 H733 0.929 . S
C711 C710 1.398 . S
C711 C712 1.352 . S
C712 C711 1.352 . S
C712 C713 1.384 . S
C712 H734 0.930 . S
C713 C708 1.407 . S
C713 C712 1.384 . S
C713 H735 0.929 . S
C714 O724 1.241 . S
C714 O725 1.273 . S
C715 O726 1.251 . S
C715 O727 1.268 . S
O716 Nd696 2.500 . S
O716 C698 1.258 . S
O717 Nd696 2.492 . S
O717 C698 1.239 . S
O718 Nd696 2.487 . S
O718 C705 1.241 . S
O719 Nd696 2.682 . S
O719 Nd697 2.414 . S
O719 C705 1.273 . S
O720 Nd696 2.410 . S
O720 C706 1.251 . S
O721 Nd697 2.424 . S
O721 C706 1.268 . S
O722 Nd697 2.500 . S
O722 C707 1.258 . S
O723 Nd697 2.492 . S
O723 C707 1.239 . S
O724 Nd697 2.487 . S
O724 C714 1.241 . S
O725 Nd696 2.414 . S
O725 Nd697 2.682 . S
O725 C714 1.273 . S
O726 Nd697 2.410 . S
O726 C715 1.251 . S
O727 Nd696 2.424 . S
O727 C715 1.268 . S
H728 C700 0.930 . S
H729 C701 0.929 . S
H730 C703 0.930 . S
H731 C704 0.929 . S
H732 C709 0.930 . S
H733 C710 0.929 . S
H734 C712 0.930 . S
H735 C713 0.929 . S
Nd736 C738 2.836 . S
Nd736 O756 2.500 . S
Nd736 O757 2.492 . S
Nd736 O758 2.487 1_655 S
Nd736 O759 2.682 1_655 S
Nd736 O760 2.410 . S
Nd736 O765 2.414 1_655 S
Nd736 O767 2.424 1_655 S
Nd737 C747 2.836 . S
Nd737 O759 2.414 . S
Nd737 O761 2.424 . S
Nd737 O762 2.500 . S
Nd737 O763 2.492 . S
Nd737 O764 2.487 . S
Nd737 O765 2.682 . S
Nd737 O766 2.410 . S
C738 Nd736 2.836 . S
C738 C739 1.498 . S
C738 O756 1.258 . S
C738 O757 1.239 . S
C739 C738 1.498 . S
C739 C740 1.366 . S
C739 C744 1.407 . S
C740 C739 1.366 . S
C740 C741 1.392 . S
C740 H768 0.930 . S
C741 C740 1.392 . S
C741 C742 1.398 . S
C741 H769 0.929 . S
C742 C741 1.398 . S
C742 C743 1.352 . S
C743 C742 1.352 . S
C743 C744 1.384 . S
C743 H770 0.930 . S
C744 C739 1.407 . S
C744 C743 1.384 . S
C744 H771 0.929 . S
C745 O758 1.241 . S
C745 O759 1.273 . S
C746 O760 1.251 1_455 S
C746 O761 1.268 . S
C747 Nd737 2.836 . S
C747 C748 1.498 . S
C747 O762 1.258 . S
C747 O763 1.239 . S
C748 C747 1.498 . S
C748 C749 1.366 . S
C748 C753 1.407 . S
C749 C748 1.366 . S
C749 C750 1.392 . S
C749 H772 0.930 . S
C750 C749 1.392 . S
C750 C751 1.398 . S
C750 H773 0.929 . S
C751 C750 1.398 . S
C751 C752 1.352 . S
C752 C751 1.352 . S
C752 C753 1.384 . S
C752 H774 0.930 . S
C753 C748 1.407 . S
C753 C752 1.384 . S
C753 H775 0.929 . S
C754 O764 1.241 . S
C754 O765 1.273 . S
C755 O766 1.251 . S
C755 O767 1.268 . S
O756 Nd736 2.500 . S
O756 C738 1.258 . S
O757 Nd736 2.492 . S
O757 C738 1.239 . S
O758 Nd736 2.487 1_455 S
O758 C745 1.241 . S
O759 Nd736 2.682 1_455 S
O759 Nd737 2.414 . S
O759 C745 1.273 . S
O760 Nd736 2.410 . S
O760 C746 1.251 1_655 S
O761 Nd737 2.424 . S
O761 C746 1.268 . S
O762 Nd737 2.500 . S
O762 C747 1.258 . S
O763 Nd737 2.492 . S
O763 C747 1.239 . S
O764 Nd737 2.487 . S
O764 C754 1.241 . S
O765 Nd736 2.414 1_455 S
O765 Nd737 2.682 . S
O765 C754 1.273 . S
O766 Nd737 2.410 . S
O766 C755 1.251 . S
O767 Nd736 2.424 1_455 S
O767 C755 1.268 . S
H768 C740 0.930 . S
H769 C741 0.929 . S
H770 C743 0.930 . S
H771 C744 0.929 . S
H772 C749 0.930 . S
H773 C750 0.929 . S
H774 C752 0.930 . S
H775 C753 0.929 . S
Nd776 C778 2.836 . S
Nd776 O796 2.500 . S
Nd776 O797 2.492 . S
Nd776 O798 2.487 . S
Nd776 O799 2.682 . S
Nd776 O800 2.410 . S
Nd776 O805 2.414 . S
Nd776 O807 2.424 . S
Nd777 C787 2.836 . S
Nd777 O799 2.414 . S
Nd777 O801 2.424 . S
Nd777 O802 2.500 . S
Nd777 O803 2.492 . S
Nd777 O804 2.487 . S
Nd777 O805 2.682 . S
Nd777 O806 2.410 . S
C778 Nd776 2.836 . S
C778 C779 1.498 . S
C778 O796 1.258 . S
C778 O797 1.239 . S
C779 C778 1.498 . S
C779 C780 1.366 . S
C779 C784 1.407 . S
C780 C779 1.366 . S
C780 C781 1.392 . S
C780 H808 0.930 . S
C781 C780 1.392 . S
C781 C782 1.398 . S
C781 H809 0.929 . S
C782 C781 1.398 . S
C782 C783 1.352 . S
C783 C782 1.352 . S
C783 C784 1.384 . S
C783 H810 0.930 . S
C784 C779 1.407 . S
C784 C783 1.384 . S
C784 H811 0.929 . S
C785 O798 1.241 . S
C785 O799 1.273 . S
C786 O800 1.251 . S
C786 O801 1.268 . S
C787 Nd777 2.836 . S
C787 C788 1.498 . S
C787 O802 1.258 . S
C787 O803 1.239 . S
C788 C787 1.498 . S
C788 C789 1.366 . S
C788 C793 1.407 . S
C789 C788 1.366 . S
C789 C790 1.392 . S
C789 H812 0.930 . S
C790 C789 1.392 . S
C790 C791 1.398 . S
C790 H813 0.929 . S
C791 C790 1.398 . S
C791 C792 1.352 . S
C792 C791 1.352 . S
C792 C793 1.384 . S
C792 H814 0.930 . S
C793 C788 1.407 . S
C793 C792 1.384 . S
C793 H815 0.929 . S
C794 O804 1.241 . S
C794 O805 1.273 . S
C795 O806 1.251 . S
C795 O807 1.268 . S
O796 Nd776 2.500 . S
O796 C778 1.258 . S
O797 Nd776 2.492 . S
O797 C778 1.239 . S
O798 Nd776 2.487 . S
O798 C785 1.241 . S
O799 Nd776 2.682 . S
O799 Nd777 2.414 . S
O799 C785 1.273 . S
O800 Nd776 2.410 . S
O800 C786 1.251 . S
O801 Nd777 2.424 . S
O801 C786 1.268 . S
O802 Nd777 2.500 . S
O802 C787 1.258 . S
O803 Nd777 2.492 . S
O803 C787 1.239 . S
O804 Nd777 2.487 . S
O804 C794 1.241 . S
O805 Nd776 2.414 . S
O805 Nd777 2.682 . S
O805 C794 1.273 . S
O806 Nd777 2.410 . S
O806 C795 1.251 . S
O807 Nd776 2.424 . S
O807 C795 1.268 . S
H808 C780 0.930 . S
H809 C781 0.929 . S
H810 C783 0.930 . S
H811 C784 0.929 . S
H812 C789 0.930 . S
H813 C790 0.929 . S
H814 C792 0.930 . S
H815 C793 0.929 . S
Nd816 C818 2.836 . S
Nd816 O836 2.500 . S
Nd816 O837 2.492 . S
Nd816 O838 2.487 . S
Nd816 O839 2.682 . S
Nd816 O840 2.410 . S
Nd816 O845 2.414 . S
Nd816 O847 2.424 . S
Nd817 C827 2.836 . S
Nd817 O839 2.414 . S
Nd817 O841 2.424 . S
Nd817 O842 2.500 . S
Nd817 O843 2.492 . S
Nd817 O844 2.487 . S
Nd817 O845 2.682 . S
Nd817 O846 2.410 . S
C818 Nd816 2.836 . S
C818 C819 1.498 . S
C818 O836 1.258 . S
C818 O837 1.239 . S
C819 C818 1.498 . S
C819 C820 1.366 . S
C819 C824 1.407 . S
C820 C819 1.366 . S
C820 C821 1.392 . S
C820 H848 0.930 . S
C821 C820 1.392 . S
C821 C822 1.398 . S
C821 H849 0.929 . S
C822 C821 1.398 . S
C822 C823 1.352 . S
C823 C822 1.352 . S
C823 C824 1.384 . S
C823 H850 0.930 . S
C824 C819 1.407 . S
C824 C823 1.384 . S
C824 H851 0.929 . S
C825 O838 1.241 . S
C825 O839 1.273 . S
C826 O840 1.251 . S
C826 O841 1.268 . S
C827 Nd817 2.836 . S
C827 C828 1.498 . S
C827 O842 1.258 . S
C827 O843 1.239 . S
C828 C827 1.498 . S
C828 C829 1.366 . S
C828 C833 1.407 . S
C829 C828 1.366 . S
C829 C830 1.392 . S
C829 H852 0.930 . S
C830 C829 1.392 . S
C830 C831 1.398 . S
C830 H853 0.929 . S
C831 C830 1.398 . S
C831 C832 1.352 . S
C832 C831 1.352 . S
C832 C833 1.384 . S
C832 H854 0.930 . S
C833 C828 1.407 . S
C833 C832 1.384 . S
C833 H855 0.929 . S
C834 O844 1.241 . S
C834 O845 1.273 . S
C835 O846 1.251 . S
C835 O847 1.268 . S
O836 Nd816 2.500 . S
O836 C818 1.258 . S
O837 Nd816 2.492 . S
O837 C818 1.239 . S
O838 Nd816 2.487 . S
O838 C825 1.241 . S
O839 Nd816 2.682 . S
O839 Nd817 2.414 . S
O839 C825 1.273 . S
O840 Nd816 2.410 . S
O840 C826 1.251 . S
O841 Nd817 2.424 . S
O841 C826 1.268 . S
O842 Nd817 2.500 . S
O842 C827 1.258 . S
O843 Nd817 2.492 . S
O843 C827 1.239 . S
O844 Nd817 2.487 . S
O844 C834 1.241 . S
O845 Nd816 2.414 . S
O845 Nd817 2.682 . S
O845 C834 1.273 . S
O846 Nd817 2.410 . S
O846 C835 1.251 . S
O847 Nd816 2.424 . S
O847 C835 1.268 . S
H848 C820 0.930 . S
H849 C821 0.929 . S
H850 C823 0.930 . S
H851 C824 0.929 . S
H852 C829 0.930 . S
H853 C830 0.929 . S
H854 C832 0.930 . S
H855 C833 0.929 . S
Nd856 C858 2.836 . S
Nd856 O876 2.500 . S
Nd856 O877 2.492 . S
Nd856 O878 2.487 . S
Nd856 O879 2.682 . S
Nd856 O880 2.410 . S
Nd856 O885 2.414 . S
Nd856 O887 2.424 . S
Nd857 C867 2.836 . S
Nd857 O879 2.414 . S
Nd857 O881 2.424 . S
Nd857 O882 2.500 . S
Nd857 O883 2.492 . S
Nd857 O884 2.487 . S
Nd857 O885 2.682 . S
Nd857 O886 2.410 . S
C858 Nd856 2.836 . S
C858 C859 1.498 . S
C858 O876 1.258 . S
C858 O877 1.239 . S
C859 C858 1.498 . S
C859 C860 1.366 . S
C859 C864 1.407 . S
C860 C859 1.366 . S
C860 C861 1.392 . S
C860 H888 0.930 . S
C861 C860 1.392 . S
C861 C862 1.398 . S
C861 H889 0.929 . S
C862 C861 1.398 . S
C862 C863 1.352 . S
C863 C862 1.352 . S
C863 C864 1.384 . S
C863 H890 0.930 . S
C864 C859 1.407 . S
C864 C863 1.384 . S
C864 H891 0.929 . S
C865 O878 1.241 . S
C865 O879 1.273 . S
C866 O880 1.251 . S
C866 O881 1.268 . S
C867 Nd857 2.836 . S
C867 C868 1.498 . S
C867 O882 1.258 . S
C867 O883 1.239 . S
C868 C867 1.498 . S
C868 C869 1.366 . S
C868 C873 1.407 . S
C869 C868 1.366 . S
C869 C870 1.392 . S
C869 H892 0.930 . S
C870 C869 1.392 . S
C870 C871 1.398 . S
C870 H893 0.929 . S
C871 C870 1.398 . S
C871 C872 1.352 . S
C872 C871 1.352 . S
C872 C873 1.384 . S
C872 H894 0.930 . S
C873 C868 1.407 . S
C873 C872 1.384 . S
C873 H895 0.929 . S
C874 O884 1.241 . S
C874 O885 1.273 . S
C875 O886 1.251 . S
C875 O887 1.268 . S
O876 Nd856 2.500 . S
O876 C858 1.258 . S
O877 Nd856 2.492 . S
O877 C858 1.239 . S
O878 Nd856 2.487 . S
O878 C865 1.241 . S
O879 Nd856 2.682 . S
O879 Nd857 2.414 . S
O879 C865 1.273 . S
O880 Nd856 2.410 . S
O880 C866 1.251 . S
O881 Nd857 2.424 . S
O881 C866 1.268 . S
O882 Nd857 2.500 . S
O882 C867 1.258 . S
O883 Nd857 2.492 . S
O883 C867 1.239 . S
O884 Nd857 2.487 . S
O884 C874 1.241 . S
O885 Nd856 2.414 . S
O885 Nd857 2.682 . S
O885 C874 1.273 . S
O886 Nd857 2.410 . S
O886 C875 1.251 . S
O887 Nd856 2.424 . S
O887 C875 1.268 . S
H888 C860 0.930 . S
H889 C861 0.929 . S
H890 C863 0.930 . S
H891 C864 0.929 . S
H892 C869 0.930 . S
H893 C870 0.929 . S
H894 C872 0.930 . S
H895 C873 0.929 . S
Nd896 C898 2.836 . S
Nd896 O916 2.500 . S
Nd896 O917 2.492 . S
Nd896 O918 2.487 . S
Nd896 O919 2.682 . S
Nd896 O920 2.410 . S
Nd896 O925 2.414 . S
Nd896 O927 2.424 . S
Nd897 C907 2.836 . S
Nd897 O919 2.414 . S
Nd897 O921 2.424 . S
Nd897 O922 2.500 . S
Nd897 O923 2.492 . S
Nd897 O924 2.487 . S
Nd897 O925 2.682 . S
Nd897 O926 2.410 . S
C898 Nd896 2.836 . S
C898 C899 1.498 . S
C898 O916 1.258 . S
C898 O917 1.239 . S
C899 C898 1.498 . S
C899 C900 1.366 . S
C899 C904 1.407 . S
C900 C899 1.366 . S
C900 C901 1.392 . S
C900 H928 0.930 . S
C901 C900 1.392 . S
C901 C902 1.398 . S
C901 H929 0.929 . S
C902 C901 1.398 . S
C902 C903 1.352 . S
C903 C902 1.352 . S
C903 C904 1.384 . S
C903 H930 0.930 . S
C904 C899 1.407 . S
C904 C903 1.384 . S
C904 H931 0.929 . S
C905 O918 1.241 . S
C905 O919 1.273 . S
C906 O920 1.251 . S
C906 O921 1.268 . S
C907 Nd897 2.836 . S
C907 C908 1.498 . S
C907 O922 1.258 . S
C907 O923 1.239 . S
C908 C907 1.498 . S
C908 C909 1.366 . S
C908 C913 1.407 . S
C909 C908 1.366 . S
C909 C910 1.392 . S
C909 H932 0.930 . S
C910 C909 1.392 . S
C910 C911 1.398 . S
C910 H933 0.929 . S
C911 C910 1.398 . S
C911 C912 1.352 . S
C912 C911 1.352 . S
C912 C913 1.384 . S
C912 H934 0.930 . S
C913 C908 1.407 . S
C913 C912 1.384 . S
C913 H935 0.929 . S
C914 O924 1.241 . S
C914 O925 1.273 . S
C915 O926 1.251 . S
C915 O927 1.268 . S
O916 Nd896 2.500 . S
O916 C898 1.258 . S
O917 Nd896 2.492 . S
O917 C898 1.239 . S
O918 Nd896 2.487 . S
O918 C905 1.241 . S
O919 Nd896 2.682 . S
O919 Nd897 2.414 . S
O919 C905 1.273 . S
O920 Nd896 2.410 . S
O920 C906 1.251 . S
O921 Nd897 2.424 . S
O921 C906 1.268 . S
O922 Nd897 2.500 . S
O922 C907 1.258 . S
O923 Nd897 2.492 . S
O923 C907 1.239 . S
O924 Nd897 2.487 . S
O924 C914 1.241 . S
O925 Nd896 2.414 . S
O925 Nd897 2.682 . S
O925 C914 1.273 . S
O926 Nd897 2.410 . S
O926 C915 1.251 . S
O927 Nd896 2.424 . S
O927 C915 1.268 . S
H928 C900 0.930 . S
H929 C901 0.929 . S
H930 C903 0.930 . S
H931 C904 0.929 . S
H932 C909 0.930 . S
H933 C910 0.929 . S
H934 C912 0.930 . S
H935 C913 0.929 . S
Nd936 C938 2.836 . S
Nd936 O956 2.500 . S
Nd936 O957 2.492 . S
Nd936 O958 2.487 . S
Nd936 O959 2.682 . S
Nd936 O960 2.410 . S
Nd936 O965 2.414 . S
Nd936 O967 2.424 . S
Nd937 C947 2.836 . S
Nd937 O959 2.414 1_655 S
Nd937 O961 2.424 1_655 S
Nd937 O962 2.500 . S
Nd937 O963 2.492 . S
Nd937 O964 2.487 . S
Nd937 O965 2.682 1_655 S
Nd937 O966 2.410 1_655 S
C938 Nd936 2.836 . S
C938 C939 1.498 . S
C938 O956 1.258 . S
C938 O957 1.239 . S
C939 C938 1.498 . S
C939 C940 1.366 . S
C939 C944 1.407 . S
C940 C939 1.366 . S
C940 C941 1.392 . S
C940 H968 0.930 . S
C941 C940 1.392 . S
C941 C942 1.398 . S
C941 H969 0.929 1_554 S
C942 C941 1.398 . S
C942 C943 1.352 . S
C943 C942 1.352 . S
C943 C944 1.384 . S
C943 H970 0.930 . S
C944 C939 1.407 . S
C944 C943 1.384 . S
C944 H971 0.929 . S
C945 O958 1.241 . S
C945 O959 1.273 . S
C946 O960 1.251 . S
C946 O961 1.268 . S
C947 Nd937 2.836 . S
C947 C948 1.498 . S
C947 O962 1.258 . S
C947 O963 1.239 . S
C948 C947 1.498 . S
C948 C949 1.366 . S
C948 C953 1.407 . S
C949 C948 1.366 . S
C949 C950 1.392 . S
C949 H972 0.930 . S
C950 C949 1.392 . S
C950 C951 1.398 . S
C950 H973 0.929 . S
C951 C950 1.398 . S
C951 C952 1.352 . S
C952 C951 1.352 . S
C952 C953 1.384 . S
C952 H974 0.930 . S
C953 C948 1.407 . S
C953 C952 1.384 . S
C953 H975 0.929 . S
C954 O964 1.241 1_455 S
C954 O965 1.273 . S
C955 O966 1.251 . S
C955 O967 1.268 . S
O956 Nd936 2.500 . S
O956 C938 1.258 . S
O957 Nd936 2.492 . S
O957 C938 1.239 . S
O958 Nd936 2.487 . S
O958 C945 1.241 . S
O959 Nd936 2.682 . S
O959 Nd937 2.414 1_455 S
O959 C945 1.273 . S
O960 Nd936 2.410 . S
O960 C946 1.251 . S
O961 Nd937 2.424 1_455 S
O961 C946 1.268 . S
O962 Nd937 2.500 . S
O962 C947 1.258 . S
O963 Nd937 2.492 . S
O963 C947 1.239 . S
O964 Nd937 2.487 . S
O964 C954 1.241 1_655 S
O965 Nd936 2.414 . S
O965 Nd937 2.682 1_455 S
O965 C954 1.273 . S
O966 Nd937 2.410 1_455 S
O966 C955 1.251 . S
O967 Nd936 2.424 . S
O967 C955 1.268 . S
H968 C940 0.930 . S
H969 C941 0.929 1_556 S
H970 C943 0.930 . S
H971 C944 0.929 . S
H972 C949 0.930 . S
H973 C950 0.929 . S
H974 C952 0.930 . S
H975 C953 0.929 . S
H976 C984 0.929 . S
H977 C986 0.930 . S
H978 C988 0.930 . S
H979 C991 0.929 . S
H980 C994 0.930 . S
H981 C996 0.955 1_654 S
H982 C996 0.960 1_655 S
H983 C996 0.960 . S
C984 H976 0.929 . S
C984 C985 1.377 . S
C984 C986 1.384 . S
C985 C984 1.377 . S
C985 C991 1.390 . S
C986 H977 0.930 . S
C986 C984 1.384 . S
C986 C987 1.372 . S
C987 C986 1.372 . S
C987 C988 1.400 . S
C987 C992 1.490 . S
C988 H978 0.930 . S
C988 C987 1.400 . S
C988 C991 1.386 . S
H989 C1005 0.930 . S
H990 C1006 0.931 . S
C991 H979 0.929 . S
C991 C985 1.390 . S
C991 C988 1.386 . S
C992 C987 1.490 . S
C992 C994 1.395 . S
C992 C995 1.403 . S
H993 C999 0.930 1_554 S
C994 H980 0.930 . S
C994 C992 1.395 . S
C994 C997 1.403 . S
C995 C992 1.403 . S
C995 C996 1.524 . S
C995 C999 1.400 . S
C996 H981 0.955 1_456 S
C996 H982 0.960 1_455 S
C996 H983 0.960 . S
C996 C995 1.524 . S
C997 C994 1.403 . S
C997 C998 1.392 . S
C997 C1001 1.495 . S
C998 C997 1.392 . S
C998 C999 1.385 . S
C998 C1000 1.478 1_556 S
C999 H993 0.930 1_556 S
C999 C995 1.400 . S
C999 C998 1.385 . S
C1000 C998 1.478 1_554 S
C1000 C1002 1.381 1_554 S
C1000 C1006 1.383 . S
C1001 C997 1.495 . S
C1001 H1007 0.959 . S
C1001 H1008 0.961 . S
C1001 H1009 0.960 . S
C1002 C1000 1.381 1_556 S
C1002 C1003 1.394 1_556 S
C1002 H1010 0.930 . S
C1003 C1002 1.394 1_554 S
C1003 C1004 1.383 . S
C1003 H1011 0.929 . S
C1004 C1003 1.383 . S
C1004 C1005 1.377 . S
C1005 H989 0.930 . S
C1005 C1004 1.377 . S
C1005 C1006 1.379 . S
C1006 H990 0.931 . S
C1006 C1000 1.383 . S
C1006 C1005 1.379 . S
H1007 C1001 0.959 . S
H1008 C1001 0.961 . S
H1009 C1001 0.960 . S
H1010 C1002 0.930 . S
H1011 C1003 0.929 . S
H1012 C1020 0.929 . S
H1013 C1022 0.930 . S
H1014 C1024 0.930 . S
H1015 C1027 0.929 . S
H1016 C1030 0.930 . S
H1017 C1032 0.960 . S
H1018 C1032 0.960 . S
H1019 C1032 0.960 . S
C1020 H1012 0.929 . S
C1020 C1021 1.377 . S
C1020 C1022 1.384 . S
C1021 C1020 1.377 . S
C1021 C1027 1.390 . S
C1022 H1013 0.930 . S
C1022 C1020 1.384 . S
C1022 C1023 1.372 . S
C1023 C1022 1.372 . S
C1023 C1024 1.400 . S
C1023 C1028 1.490 . S
C1024 H1014 0.930 . S
C1024 C1023 1.400 . S
C1024 C1027 1.386 . S
H1025 C1041 0.930 . S
H1026 C1042 0.931 . S
C1027 H1015 0.929 . S
C1027 C1021 1.390 . S
C1027 C1024 1.386 . S
C1028 C1023 1.490 . S
C1028 C1030 1.395 . S
C1028 C1031 1.403 . S
H1029 C1035 0.930 . S
C1030 H1016 0.930 . S
C1030 C1028 1.395 . S
C1030 C1033 1.403 . S
C1031 C1028 1.403 . S
C1031 C1032 1.524 . S
C1031 C1035 1.400 . S
C1032 H1017 0.960 . S
C1032 H1018 0.960 . S
C1032 H1019 0.960 . S
C1032 C1031 1.524 . S
C1033 C1030 1.403 . S
C1033 C1034 1.392 . S
C1033 C1037 1.495 . S
C1034 C1033 1.392 . S
C1034 C1035 1.385 . S
C1034 C1036 1.478 . S
C1035 H1029 0.930 . S
C1035 C1031 1.400 . S
C1035 C1034 1.385 . S
C1036 C1034 1.478 . S
C1036 C1038 1.381 . S
C1036 C1042 1.383 . S
C1037 C1033 1.495 . S
C1037 H1043 0.959 . S
C1037 H1044 0.961 . S
C1037 H1045 0.960 . S
C1038 C1036 1.381 . S
C1038 C1039 1.394 . S
C1038 H1046 0.930 . S
C1039 C1038 1.394 . S
C1039 C1040 1.383 . S
C1039 H1047 0.929 . S
C1040 C1039 1.383 . S
C1040 C1041 1.377 . S
C1041 H1025 0.930 . S
C1041 C1040 1.377 . S
C1041 C1042 1.379 . S
C1042 H1026 0.931 . S
C1042 C1036 1.383 . S
C1042 C1041 1.379 . S
H1043 C1037 0.959 . S
H1044 C1037 0.961 . S
H1045 C1037 0.960 . S
H1046 C1038 0.930 . S
H1047 C1039 0.929 . S
H1048 C1056 0.929 . S
H1049 C1058 0.930 . S
H1050 C1060 0.930 . S
H1051 C1063 0.929 . S
H1052 C1066 0.930 . S
H1053 C1068 0.960 . S
H1054 C1068 0.960 . S
H1055 C1068 0.960 . S
C1056 H1048 0.929 . S
C1056 C1057 1.377 . S
C1056 C1058 1.384 . S
C1057 C1056 1.377 . S
C1057 C1063 1.390 . S
C1058 H1049 0.930 . S
C1058 C1056 1.384 . S
C1058 C1059 1.372 . S
C1059 C1058 1.372 . S
C1059 C1060 1.400 . S
C1059 C1064 1.490 . S
C1060 H1050 0.930 . S
C1060 C1059 1.400 . S
C1060 C1063 1.386 . S
H1061 C1077 0.930 . S
H1062 C1078 0.931 . S
C1063 H1051 0.929 . S
C1063 C1057 1.390 . S
C1063 C1060 1.386 . S
C1064 C1059 1.490 . S
C1064 C1066 1.395 . S
C1064 C1067 1.403 . S
H1065 C1071 0.930 . S
C1066 H1052 0.930 . S
C1066 C1064 1.395 . S
C1066 C1069 1.403 . S
C1067 C1064 1.403 . S
C1067 C1068 1.524 . S
C1067 C1071 1.400 . S
C1068 H1053 0.960 . S
C1068 H1054 0.960 . S
C1068 H1055 0.960 . S
C1068 C1067 1.524 . S
C1069 C1066 1.403 . S
C1069 C1070 1.392 . S
C1069 C1073 1.495 . S
C1070 C1069 1.392 . S
C1070 C1071 1.385 . S
C1070 C1072 1.478 . S
C1071 H1065 0.930 . S
C1071 C1067 1.400 . S
C1071 C1070 1.385 . S
C1072 C1070 1.478 . S
C1072 C1074 1.381 . S
C1072 C1078 1.383 . S
C1073 C1069 1.495 . S
C1073 H1079 0.959 . S
C1073 H1080 0.961 . S
C1073 H1081 0.960 . S
C1074 C1072 1.381 . S
C1074 C1075 1.394 . S
C1074 H1082 0.930 . S
C1075 C1074 1.394 . S
C1075 C1076 1.383 . S
C1075 H1083 0.929 1_565 S
C1076 C1075 1.383 . S
C1076 C1077 1.377 . S
C1077 H1061 0.930 . S
C1077 C1076 1.377 . S
C1077 C1078 1.379 . S
C1078 H1062 0.931 . S
C1078 C1072 1.383 . S
C1078 C1077 1.379 . S
H1079 C1073 0.959 . S
H1080 C1073 0.961 . S
H1081 C1073 0.960 . S
H1082 C1074 0.930 . S
H1083 C1075 0.929 1_545 S
H1084 C1092 0.929 . S
H1085 C1094 0.930 . S
H1086 C1096 0.930 . S
H1087 C1099 0.929 . S
H1088 C1102 0.930 . S
H1089 C1104 0.960 . S
H1090 C1104 0.960 . S
H1091 C1104 0.960 . S
C1092 H1084 0.929 . S
C1092 C1093 1.377 . S
C1092 C1094 1.384 . S
C1093 C1092 1.377 . S
C1093 C1099 1.390 . S
C1094 H1085 0.930 . S
C1094 C1092 1.384 . S
C1094 C1095 1.372 . S
C1095 C1094 1.372 . S
C1095 C1096 1.400 . S
C1095 C1100 1.490 . S
C1096 H1086 0.930 . S
C1096 C1095 1.400 . S
C1096 C1099 1.386 . S
H1097 C1113 0.930 . S
H1098 C1114 0.931 . S
C1099 H1087 0.929 . S
C1099 C1093 1.390 . S
C1099 C1096 1.386 . S
C1100 C1095 1.490 . S
C1100 C1102 1.395 . S
C1100 C1103 1.403 . S
H1101 C1107 0.930 . S
C1102 H1088 0.930 . S
C1102 C1100 1.395 . S
C1102 C1105 1.403 . S
C1103 C1100 1.403 . S
C1103 C1104 1.524 . S
C1103 C1107 1.400 . S
C1104 H1089 0.960 . S
C1104 H1090 0.960 . S
C1104 H1091 0.960 . S
C1104 C1103 1.524 . S
C1105 C1102 1.403 . S
C1105 C1106 1.392 . S
C1105 C1109 1.495 . S
C1106 C1105 1.392 . S
C1106 C1107 1.385 . S
C1106 C1108 1.478 . S
C1107 H1101 0.930 . S
C1107 C1103 1.400 . S
C1107 C1106 1.385 . S
C1108 C1106 1.478 . S
C1108 C1110 1.381 . S
C1108 C1114 1.383 . S
C1109 C1105 1.495 . S
C1109 H1115 0.959 . S
C1109 H1116 0.961 . S
C1109 H1117 0.960 . S
C1110 C1108 1.381 . S
C1110 C1111 1.394 . S
C1110 H1118 0.930 . S
C1111 C1110 1.394 . S
C1111 C1112 1.383 . S
C1111 H1119 0.929 . S
C1112 C1111 1.383 . S
C1112 C1113 1.377 . S
C1113 H1097 0.930 . S
C1113 C1112 1.377 . S
C1113 C1114 1.379 . S
C1114 H1098 0.931 . S
C1114 C1108 1.383 . S
C1114 C1113 1.379 . S
H1115 C1109 0.959 . S
H1116 C1109 0.961 . S
H1117 C1109 0.960 . S
H1118 C1110 0.930 . S
H1119 C1111 0.929 . S
H1120 C1128 0.929 . S
H1121 C1130 0.930 . S
H1122 C1132 0.930 . S
H1123 C1135 0.929 1_655 S
H1124 C1138 0.930 . S
H1125 C1140 0.960 . S
H1126 C1140 0.960 . S
H1127 C1140 0.960 . S
C1128 H1120 0.929 . S
C1128 C1129 1.377 . S
C1128 C1130 1.384 . S
C1129 C1128 1.377 . S
C1129 C1135 1.390 . S
C1130 H1121 0.930 . S
C1130 C1128 1.384 . S
C1130 C1131 1.372 . S
C1131 C1130 1.372 . S
C1131 C1132 1.400 . S
C1131 C1136 1.490 . S
C1132 H1122 0.930 . S
C1132 C1131 1.400 . S
C1132 C1135 1.386 . S
H1133 C1149 0.930 . S
H1134 C1150 0.931 . S
C1135 H1123 0.929 1_455 S
C1135 C1129 1.390 . S
C1135 C1132 1.386 . S
C1136 C1131 1.490 . S
C1136 C1138 1.395 . S
C1136 C1139 1.403 . S
H1137 C1143 0.930 . S
C1138 H1124 0.930 . S
C1138 C1136 1.395 . S
C1138 C1141 1.403 . S
C1139 C1136 1.403 . S
C1139 C1140 1.524 . S
C1139 C1143 1.400 . S
C1140 H1125 0.960 . S
C1140 H1126 0.960 . S
C1140 H1127 0.960 . S
C1140 C1139 1.524 . S
C1141 C1138 1.403 . S
C1141 C1142 1.392 . S
C1141 C1145 1.495 . S
C1142 C1141 1.392 . S
C1142 C1143 1.385 . S
C1142 C1144 1.478 . S
C1143 H1137 0.930 . S
C1143 C1139 1.400 . S
C1143 C1142 1.385 . S
C1144 C1142 1.478 . S
C1144 C1146 1.381 . S
C1144 C1150 1.383 . S
C1145 C1141 1.495 . S
C1145 H1151 0.959 1_455 S
C1145 H1152 0.960 1_455 S
C1145 H1153 0.960 . S
C1146 C1144 1.381 . S
C1146 C1147 1.394 . S
C1146 H1154 0.930 . S
C1147 C1146 1.394 . S
C1147 C1148 1.383 . S
C1147 H1155 0.929 . S
C1148 C1147 1.383 . S
C1148 C1149 1.377 . S
C1149 H1133 0.930 . S
C1149 C1148 1.377 . S
C1149 C1150 1.379 . S
C1150 H1134 0.931 . S
C1150 C1144 1.383 . S
C1150 C1149 1.379 . S
H1151 C1145 0.959 1_655 S
H1152 C1145 0.960 1_655 S
H1153 C1145 0.960 . S
H1154 C1146 0.930 . S
H1155 C1147 0.929 . S
H1156 C1164 0.929 . S
H1157 C1166 0.930 . S
H1158 C1168 0.930 . S
H1159 C1171 0.929 . S
H1160 C1174 0.930 . S
H1161 C1176 0.960 . S
H1162 C1176 0.960 . S
H1163 C1176 0.960 . S
C1164 H1156 0.929 . S
C1164 C1165 1.377 . S
C1164 C1166 1.384 . S
C1165 C1164 1.377 . S
C1165 C1171 1.390 . S
C1166 H1157 0.930 . S
C1166 C1164 1.384 . S
C1166 C1167 1.372 . S
C1167 C1166 1.372 . S
C1167 C1168 1.400 . S
C1167 C1172 1.490 . S
C1168 H1158 0.930 . S
C1168 C1167 1.400 . S
C1168 C1171 1.386 . S
H1169 C1185 0.930 . S
H1170 C1186 0.931 . S
C1171 H1159 0.929 . S
C1171 C1165 1.390 . S
C1171 C1168 1.386 . S
C1172 C1167 1.490 . S
C1172 C1174 1.395 . S
C1172 C1175 1.403 . S
H1173 C1179 0.930 . S
C1174 H1160 0.930 . S
C1174 C1172 1.395 . S
C1174 C1177 1.403 . S
C1175 C1172 1.403 . S
C1175 C1176 1.524 . S
C1175 C1179 1.400 . S
C1176 H1161 0.960 . S
C1176 H1162 0.960 . S
C1176 H1163 0.960 . S
C1176 C1175 1.524 . S
C1177 C1174 1.403 . S
C1177 C1178 1.392 . S
C1177 C1181 1.495 . S
C1178 C1177 1.392 . S
C1178 C1179 1.385 . S
C1178 C1180 1.478 . S
C1179 H1173 0.930 . S
C1179 C1175 1.400 . S
C1179 C1178 1.385 . S
C1180 C1178 1.478 . S
C1180 C1182 1.381 . S
C1180 C1186 1.383 . S
C1181 C1177 1.495 . S
C1181 H1187 0.959 . S
C1181 H1188 0.961 . S
C1181 H1189 0.960 . S
C1182 C1180 1.381 . S
C1182 C1183 1.394 . S
C1182 H1190 0.930 . S
C1183 C1182 1.394 . S
C1183 C1184 1.383 . S
C1183 H1191 0.929 . S
C1184 C1183 1.383 . S
C1184 C1185 1.377 . S
C1185 H1169 0.930 . S
C1185 C1184 1.377 . S
C1185 C1186 1.379 . S
C1186 H1170 0.931 . S
C1186 C1180 1.383 . S
C1186 C1185 1.379 . S
H1187 C1181 0.959 . S
H1188 C1181 0.961 . S
H1189 C1181 0.960 . S
H1190 C1182 0.930 . S
H1191 C1183 0.929 . S
H1192 C1200 0.929 . S
H1193 C1202 0.930 . S
H1194 C1204 0.930 . S
H1195 C1207 0.929 . S
H1196 C1210 0.930 . S
H1197 C1212 0.960 . S
H1198 C1212 0.960 . S
H1199 C1212 0.960 . S
C1200 H1192 0.929 . S
C1200 C1201 1.377 . S
C1200 C1202 1.384 . S
C1201 C1200 1.377 . S
C1201 C1207 1.390 . S
C1202 H1193 0.930 . S
C1202 C1200 1.384 . S
C1202 C1203 1.372 . S
C1203 C1202 1.372 . S
C1203 C1204 1.400 . S
C1203 C1208 1.490 . S
C1204 H1194 0.930 . S
C1204 C1203 1.400 . S
C1204 C1207 1.386 . S
H1205 C1221 0.930 . S
H1206 C1222 0.931 . S
C1207 H1195 0.929 . S
C1207 C1201 1.390 . S
C1207 C1204 1.386 . S
C1208 C1203 1.490 . S
C1208 C1210 1.395 . S
C1208 C1211 1.403 . S
H1209 C1215 0.930 . S
C1210 H1196 0.930 . S
C1210 C1208 1.395 . S
C1210 C1213 1.403 . S
C1211 C1208 1.403 . S
C1211 C1212 1.524 . S
C1211 C1215 1.400 . S
C1212 H1197 0.960 . S
C1212 H1198 0.960 . S
C1212 H1199 0.960 . S
C1212 C1211 1.524 . S
C1213 C1210 1.403 . S
C1213 C1214 1.392 . S
C1213 C1217 1.495 . S
C1214 C1213 1.392 . S
C1214 C1215 1.385 . S
C1214 C1216 1.478 . S
C1215 H1209 0.930 . S
C1215 C1211 1.400 . S
C1215 C1214 1.385 . S
C1216 C1214 1.478 . S
C1216 C1218 1.381 . S
C1216 C1222 1.383 . S
C1217 C1213 1.495 . S
C1217 H1223 0.959 . S
C1217 H1224 0.961 . S
C1217 H1225 0.960 . S
C1218 C1216 1.381 . S
C1218 C1219 1.394 . S
C1218 H1226 0.930 . S
C1219 C1218 1.394 . S
C1219 C1220 1.383 . S
C1219 H1227 0.929 . S
C1220 C1219 1.383 . S
C1220 C1221 1.377 . S
C1221 H1205 0.930 . S
C1221 C1220 1.377 . S
C1221 C1222 1.379 . S
C1222 H1206 0.931 . S
C1222 C1216 1.383 . S
C1222 C1221 1.379 . S
H1223 C1217 0.959 . S
H1224 C1217 0.961 . S
H1225 C1217 0.960 . S
H1226 C1218 0.930 . S
H1227 C1219 0.929 . S
H1228 C1236 0.929 . S
H1229 C1238 0.930 . S
H1230 C1240 0.930 . S
H1231 C1243 0.929 . S
H1232 C1246 0.930 . S
H1233 C1248 0.960 . S
H1234 C1248 0.960 . S
H1235 C1248 0.960 . S
C1236 H1228 0.929 . S
C1236 C1237 1.377 . S
C1236 C1238 1.384 . S
C1237 C1236 1.377 . S
C1237 C1243 1.390 . S
C1238 H1229 0.930 . S
C1238 C1236 1.384 . S
C1238 C1239 1.372 . S
C1239 C1238 1.372 . S
C1239 C1240 1.400 . S
C1239 C1244 1.490 . S
C1240 H1230 0.930 . S
C1240 C1239 1.400 . S
C1240 C1243 1.386 . S
H1241 C1257 0.930 . S
H1242 C1258 0.931 . S
C1243 H1231 0.929 . S
C1243 C1237 1.390 . S
C1243 C1240 1.386 . S
C1244 C1239 1.490 . S
C1244 C1246 1.395 . S
C1244 C1247 1.403 . S
H1245 C1251 0.930 . S
C1246 H1232 0.930 . S
C1246 C1244 1.395 . S
C1246 C1249 1.403 . S
C1247 C1244 1.403 . S
C1247 C1248 1.524 . S
C1247 C1251 1.400 . S
C1248 H1233 0.960 . S
C1248 H1234 0.960 . S
C1248 H1235 0.960 . S
C1248 C1247 1.524 . S
C1249 C1246 1.403 . S
C1249 C1250 1.392 . S
C1249 C1253 1.495 . S
C1250 C1249 1.392 . S
C1250 C1251 1.385 . S
C1250 C1252 1.478 . S
C1251 H1245 0.930 . S
C1251 C1247 1.400 . S
C1251 C1250 1.385 . S
C1252 C1250 1.478 . S
C1252 C1254 1.381 . S
C1252 C1258 1.383 . S
C1253 C1249 1.495 . S
C1253 H1259 0.959 . S
C1253 H1260 0.961 . S
C1253 H1261 0.960 . S
C1254 C1252 1.381 . S
C1254 C1255 1.394 . S
C1254 H1262 0.930 . S
C1255 C1254 1.394 . S
C1255 C1256 1.383 . S
C1255 H1263 0.929 . S
C1256 C1255 1.383 . S
C1256 C1257 1.377 . S
C1257 H1241 0.930 . S
C1257 C1256 1.377 . S
C1257 C1258 1.379 . S
C1258 H1242 0.931 . S
C1258 C1252 1.383 . S
C1258 C1257 1.379 . S
H1259 C1253 0.959 . S
H1260 C1253 0.961 . S
H1261 C1253 0.960 . S
H1262 C1254 0.930 . S
H1263 C1255 0.929 . S
H1264 C1272 0.929 . S
H1265 C1274 0.930 . S
H1266 C1276 0.930 . S
H1267 C1279 0.929 . S
H1268 C1282 0.930 . S
H1269 C1284 0.960 . S
H1270 C1284 0.960 . S
H1271 C1284 0.960 . S
C1272 H1264 0.929 . S
C1272 C1273 1.377 . S
C1272 C1274 1.384 . S
C1273 C1272 1.377 . S
C1273 C1279 1.390 . S
C1274 H1265 0.930 . S
C1274 C1272 1.384 . S
C1274 C1275 1.372 . S
C1275 C1274 1.372 . S
C1275 C1276 1.400 . S
C1275 C1280 1.490 . S
C1276 H1266 0.930 . S
C1276 C1275 1.400 . S
C1276 C1279 1.386 . S
H1277 C1293 0.930 . S
H1278 C1294 0.931 . S
C1279 H1267 0.929 . S
C1279 C1273 1.390 . S
C1279 C1276 1.386 . S
C1280 C1275 1.490 . S
C1280 C1282 1.395 . S
C1280 C1283 1.403 . S
H1281 C1287 0.930 . S
C1282 H1268 0.930 . S
C1282 C1280 1.395 . S
C1282 C1285 1.403 . S
C1283 C1280 1.403 . S
C1283 C1284 1.524 . S
C1283 C1287 1.400 . S
C1284 H1269 0.960 . S
C1284 H1270 0.960 . S
C1284 H1271 0.960 . S
C1284 C1283 1.524 . S
C1285 C1282 1.403 . S
C1285 C1286 1.392 . S
C1285 C1289 1.495 . S
C1286 C1285 1.392 . S
C1286 C1287 1.385 . S
C1286 C1288 1.478 . S
C1287 H1281 0.930 . S
C1287 C1283 1.400 . S
C1287 C1286 1.385 . S
C1288 C1286 1.478 . S
C1288 C1290 1.381 . S
C1288 C1294 1.383 . S
C1289 C1285 1.495 . S
C1289 H1295 0.959 . S
C1289 H1296 0.956 . S
C1289 H1297 0.960 . S
C1290 C1288 1.381 . S
C1290 C1291 1.394 . S
C1290 H1298 0.930 . S
C1291 C1290 1.394 . S
C1291 C1292 1.383 1_655 S
C1291 H1299 0.929 . S
C1292 C1291 1.383 1_455 S
C1292 C1293 1.377 . S
C1293 H1277 0.930 . S
C1293 C1292 1.377 . S
C1293 C1294 1.379 1_455 S
C1294 H1278 0.931 . S
C1294 C1288 1.383 . S
C1294 C1293 1.379 1_655 S
H1295 C1289 0.959 . S
H1296 C1289 0.956 . S
H1297 C1289 0.960 . S
H1298 C1290 0.930 . S
H1299 C1291 0.929 . S
H1300 C1308 0.929 . S
H1301 C1310 0.930 . S
H1302 C1312 0.930 . S
H1303 C1315 0.929 . S
H1304 C1318 0.930 . S
H1305 C1320 0.960 . S
H1306 C1320 0.960 . S
H1307 C1320 0.960 . S
C1308 H1300 0.929 . S
C1308 C1309 1.377 . S
C1308 C1310 1.384 . S
C1309 C1308 1.377 . S
C1309 C1315 1.390 . S
C1310 H1301 0.930 . S
C1310 C1308 1.384 . S
C1310 C1311 1.372 . S
C1311 C1310 1.372 . S
C1311 C1312 1.400 . S
C1311 C1316 1.490 . S
C1312 H1302 0.930 . S
C1312 C1311 1.400 . S
C1312 C1315 1.386 . S
H1313 C1329 0.930 . S
H1314 C1330 0.931 . S
C1315 H1303 0.929 . S
C1315 C1309 1.390 . S
C1315 C1312 1.386 . S
C1316 C1311 1.490 . S
C1316 C1318 1.395 . S
C1316 C1319 1.403 . S
H1317 C1323 0.930 . S
C1318 H1304 0.930 . S
C1318 C1316 1.395 . S
C1318 C1321 1.403 . S
C1319 C1316 1.403 . S
C1319 C1320 1.524 . S
C1319 C1323 1.400 . S
C1320 H1305 0.960 . S
C1320 H1306 0.960 . S
C1320 H1307 0.960 . S
C1320 C1319 1.524 . S
C1321 C1318 1.403 . S
C1321 C1322 1.392 . S
C1321 C1325 1.495 . S
C1322 C1321 1.392 . S
C1322 C1323 1.385 . S
C1322 C1324 1.478 . S
C1323 H1317 0.930 . S
C1323 C1319 1.400 . S
C1323 C1322 1.385 . S
C1324 C1322 1.478 . S
C1324 C1326 1.381 . S
C1324 C1330 1.383 . S
C1325 C1321 1.495 . S
C1325 H1331 0.959 . S
C1325 H1332 0.961 . S
C1325 H1333 0.960 . S
C1326 C1324 1.381 . S
C1326 C1327 1.394 . S
C1326 H1334 0.930 . S
C1327 C1326 1.394 . S
C1327 C1328 1.383 . S
C1327 H1335 0.929 . S
C1328 C1327 1.383 . S
C1328 C1329 1.377 . S
C1329 H1313 0.930 . S
C1329 C1328 1.377 . S
C1329 C1330 1.379 . S
C1330 H1314 0.931 . S
C1330 C1324 1.383 . S
C1330 C1329 1.379 . S
H1331 C1325 0.959 . S
H1332 C1325 0.961 . S
H1333 C1325 0.960 . S
H1334 C1326 0.930 . S
H1335 C1327 0.929 . S
H1336 C1344 0.929 . S
H1337 C1346 0.930 . S
H1338 C1348 0.930 . S
H1339 C1351 0.929 . S
H1340 C1354 0.930 1_565 S
H1341 C1356 0.960 . S
H1342 C1356 0.960 . S
H1343 C1356 0.960 . S
C1344 H1336 0.929 . S
C1344 C1345 1.341 1_565 S
C1344 C1346 1.384 . S
C1345 C1344 1.341 1_545 S
C1345 C1351 1.456 . S
C1346 H1337 0.930 . S
C1346 C1344 1.384 . S
C1346 C1347 1.372 1_565 S
C1347 C1346 1.372 1_545 S
C1347 C1348 1.400 . S
C1347 C1352 1.490 . S
C1348 H1338 0.930 . S
C1348 C1347 1.400 . S
C1348 C1351 1.386 . S
H1349 C1365 0.930 . S
H1350 C1366 0.931 . S
C1351 H1339 0.929 . S
C1351 C1345 1.456 . S
C1351 C1348 1.386 . S
C1352 C1347 1.490 . S
C1352 C1354 1.395 . S
C1352 C1355 1.403 . S
H1353 C1359 0.930 . S
C1354 H1340 0.930 1_545 S
C1354 C1352 1.395 . S
C1354 C1357 1.403 . S
C1355 C1352 1.403 . S
C1355 C1356 1.524 . S
C1355 C1359 1.400 . S
C1356 H1341 0.960 . S
C1356 H1342 0.960 . S
C1356 H1343 0.960 . S
C1356 C1355 1.524 . S
C1357 C1354 1.403 . S
C1357 C1358 1.392 . S
C1357 C1361 1.495 1_545 S
C1358 C1357 1.392 . S
C1358 C1359 1.385 . S
C1358 C1360 1.478 . S
C1359 H1353 0.930 . S
C1359 C1355 1.400 . S
C1359 C1358 1.385 . S
C1360 C1358 1.478 . S
C1360 C1362 1.381 . S
C1360 C1366 1.383 . S
C1361 C1357 1.495 1_565 S
C1361 H1367 0.959 . S
C1361 H1368 0.961 1_565 S
C1361 H1369 0.960 . S
C1362 C1360 1.381 . S
C1362 C1363 1.394 . S
C1362 H1370 0.930 . S
C1363 C1362 1.394 . S
C1363 C1364 1.383 . S
C1363 H1371 0.929 . S
C1364 C1363 1.383 . S
C1364 C1365 1.377 . S
C1365 H1349 0.930 . S
C1365 C1364 1.377 . S
C1365 C1366 1.379 . S
C1366 H1350 0.931 . S
C1366 C1360 1.383 . S
C1366 C1365 1.379 . S
H1367 C1361 0.959 . S
H1368 C1361 0.961 1_545 S
H1369 C1361 0.960 . S
H1370 C1362 0.930 . S
H1371 C1363 0.929 . S
H1372 C1380 0.929 . S
H1373 C1382 0.930 . S
H1374 C1384 0.930 . S
H1375 C1387 0.929 . S
H1376 C1390 0.930 . S
H1377 C1392 0.960 . S
H1378 C1392 0.960 . S
H1379 C1392 0.960 . S
C1380 H1372 0.929 . S
C1380 C1381 1.377 . S
C1380 C1382 1.384 . S
C1381 C1380 1.377 . S
C1381 C1387 1.390 . S
C1382 H1373 0.930 . S
C1382 C1380 1.384 . S
C1382 C1383 1.372 . S
C1383 C1382 1.372 . S
C1383 C1384 1.400 . S
C1383 C1388 1.490 . S
C1384 H1374 0.930 . S
C1384 C1383 1.400 . S
C1384 C1387 1.386 . S
H1385 C1401 0.930 . S
H1386 C1402 0.931 . S
C1387 H1375 0.929 . S
C1387 C1381 1.390 . S
C1387 C1384 1.386 . S
C1388 C1383 1.490 . S
C1388 C1390 1.395 1_554 S
C1388 C1391 1.403 . S
H1389 C1395 0.930 . S
C1390 H1376 0.930 . S
C1390 C1388 1.395 1_556 S
C1390 C1393 1.403 . S
C1391 C1388 1.403 . S
C1391 C1392 1.524 . S
C1391 C1395 1.400 1_554 S
C1392 H1377 0.960 . S
C1392 H1378 0.960 . S
C1392 H1379 0.960 . S
C1392 C1391 1.524 . S
C1393 C1390 1.403 . S
C1393 C1394 1.392 . S
C1393 C1397 1.495 . S
C1394 C1393 1.392 . S
C1394 C1395 1.385 . S
C1394 C1396 1.478 . S
C1395 H1389 0.930 . S
C1395 C1391 1.400 1_556 S
C1395 C1394 1.385 . S
C1396 C1394 1.478 . S
C1396 C1398 1.381 . S
C1396 C1402 1.383 . S
C1397 C1393 1.495 . S
C1397 H1403 0.959 . S
C1397 H1404 0.961 . S
C1397 H1405 0.960 . S
C1398 C1396 1.381 . S
C1398 C1399 1.394 . S
C1398 H1406 0.930 . S
C1399 C1398 1.394 . S
C1399 C1400 1.383 . S
C1399 H1407 0.929 . S
C1400 C1399 1.383 . S
C1400 C1401 1.377 . S
C1401 H1385 0.930 . S
C1401 C1400 1.377 . S
C1401 C1402 1.379 . S
C1402 H1386 0.931 . S
C1402 C1396 1.383 . S
C1402 C1401 1.379 . S
H1403 C1397 0.959 . S
H1404 C1397 0.961 . S
H1405 C1397 0.960 . S
H1406 C1398 0.930 . S
H1407 C1399 0.929 . S
H1408 C1416 0.929 . S
H1409 C1418 0.930 . S
H1410 C1420 0.930 . S
H1411 C1423 0.929 . S
H1412 C1426 0.930 . S
H1413 C1428 0.960 . S
H1414 C1428 0.960 . S
H1415 C1428 0.960 . S
C1416 H1408 0.929 . S
C1416 C1417 1.377 . S
C1416 C1418 1.384 . S
C1417 C1416 1.377 . S
C1417 C1423 1.390 . S
C1418 H1409 0.930 . S
C1418 C1416 1.384 . S
C1418 C1419 1.372 . S
C1419 C1418 1.372 . S
C1419 C1420 1.400 . S
C1419 C1424 1.490 . S
C1420 H1410 0.930 . S
C1420 C1419 1.400 . S
C1420 C1423 1.386 . S
H1421 C1437 0.930 . S
H1422 C1438 0.931 . S
C1423 H1411 0.929 . S
C1423 C1417 1.390 . S
C1423 C1420 1.386 . S
C1424 C1419 1.490 . S
C1424 C1426 1.395 . S
C1424 C1427 1.403 . S
H1425 C1431 0.930 . S
C1426 H1412 0.930 . S
C1426 C1424 1.395 . S
C1426 C1429 1.403 . S
C1427 C1424 1.403 . S
C1427 C1428 1.524 . S
C1427 C1431 1.400 . S
C1428 H1413 0.960 . S
C1428 H1414 0.960 . S
C1428 H1415 0.960 . S
C1428 C1427 1.524 . S
C1429 C1426 1.403 . S
C1429 C1430 1.392 . S
C1429 C1433 1.495 . S
C1430 C1429 1.392 . S
C1430 C1431 1.385 . S
C1430 C1432 1.478 . S
C1431 H1425 0.930 . S
C1431 C1427 1.400 . S
C1431 C1430 1.385 . S
C1432 C1430 1.478 . S
C1432 C1434 1.381 . S
C1432 C1438 1.383 . S
C1433 C1429 1.495 . S
C1433 H1439 0.959 . S
C1433 H1440 0.961 . S
C1433 H1441 0.960 . S
C1434 C1432 1.381 . S
C1434 C1435 1.394 1_655 S
C1434 H1442 0.930 . S
C1435 C1434 1.394 1_455 S
C1435 C1436 1.383 1_455 S
C1435 H1443 0.929 . S
C1436 C1435 1.383 1_655 S
C1436 C1437 1.377 . S
C1437 H1421 0.930 . S
C1437 C1436 1.377 . S
C1437 C1438 1.379 . S
C1438 H1422 0.931 . S
C1438 C1432 1.383 . S
C1438 C1437 1.379 . S
H1439 C1433 0.959 . S
H1440 C1433 0.961 . S
H1441 C1433 0.960 . S
H1442 C1434 0.930 . S
H1443 C1435 0.929 . S
H1444 C1452 0.929 . S
H1445 C1454 0.930 . S
H1446 C1456 0.930 . S
H1447 C1459 0.929 . S
H1448 C1462 0.930 . S
H1449 C1464 0.960 . S
H1450 C1464 0.960 . S
H1451 C1464 0.960 . S
C1452 H1444 0.929 . S
C1452 C1453 1.377 . S
C1452 C1454 1.384 . S
C1453 C1452 1.377 . S
C1453 C1459 1.390 . S
C1454 H1445 0.930 . S
C1454 C1452 1.384 . S
C1454 C1455 1.372 . S
C1455 C1454 1.372 . S
C1455 C1456 1.400 . S
C1455 C1460 1.490 . S
C1456 H1446 0.930 . S
C1456 C1455 1.400 . S
C1456 C1459 1.386 . S
H1457 C1473 0.930 . S
H1458 C1474 0.931 . S
C1459 H1447 0.929 . S
C1459 C1453 1.390 . S
C1459 C1456 1.386 . S
C1460 C1455 1.490 . S
C1460 C1462 1.395 . S
C1460 C1463 1.403 . S
H1461 C1467 0.930 . S
C1462 H1448 0.930 . S
C1462 C1460 1.395 . S
C1462 C1465 1.403 . S
C1463 C1460 1.403 . S
C1463 C1464 1.524 . S
C1463 C1467 1.400 . S
C1464 H1449 0.960 . S
C1464 H1450 0.960 . S
C1464 H1451 0.960 . S
C1464 C1463 1.524 . S
C1465 C1462 1.403 . S
C1465 C1466 1.392 . S
C1465 C1469 1.495 . S
C1466 C1465 1.392 . S
C1466 C1467 1.385 . S
C1466 C1468 1.478 . S
C1467 H1461 0.930 . S
C1467 C1463 1.400 . S
C1467 C1466 1.385 . S
C1468 C1466 1.478 . S
C1468 C1470 1.381 . S
C1468 C1474 1.383 . S
C1469 C1465 1.495 . S
C1469 H1475 0.959 . S
C1469 H1476 0.961 . S
C1469 H1477 0.960 . S
C1470 C1468 1.381 . S
C1470 C1471 1.394 . S
C1470 H1478 0.930 . S
C1471 C1470 1.394 . S
C1471 C1472 1.383 . S
C1471 H1479 0.929 . S
C1472 C1471 1.383 . S
C1472 C1473 1.377 . S
C1473 H1457 0.930 . S
C1473 C1472 1.377 . S
C1473 C1474 1.379 . S
C1474 H1458 0.931 . S
C1474 C1468 1.383 . S
C1474 C1473 1.379 . S
H1475 C1469 0.959 . S
H1476 C1469 0.961 . S
H1477 C1469 0.960 . S
H1478 C1470 0.930 . S
H1479 C1471 0.929 . S
H1480 C1488 0.929 . S
H1481 C1490 0.930 . S
H1482 C1492 0.930 1_565 S
H1483 C1495 0.929 . S
H1484 C1498 0.930 . S
H1485 C1500 0.960 . S
H1486 C1500 0.960 . S
H1487 C1500 0.960 . S
C1488 H1480 0.929 . S
C1488 C1489 1.377 . S
C1488 C1490 1.384 . S
C1489 C1488 1.377 . S
C1489 C1495 1.390 1_545 S
C1490 H1481 0.930 . S
C1490 C1488 1.384 . S
C1490 C1491 1.372 . S
C1491 C1490 1.372 . S
C1491 C1492 1.400 . S
C1491 C1496 1.490 . S
C1492 H1482 0.930 1_545 S
C1492 C1491 1.400 . S
C1492 C1495 1.386 1_545 S
H1493 C1509 0.930 1_554 S
H1494 C1510 0.931 . S
C1495 H1483 0.929 . S
C1495 C1489 1.390 1_565 S
C1495 C1492 1.386 1_565 S
C1496 C1491 1.490 . S
C1496 C1498 1.395 . S
C1496 C1499 1.403 . S
H1497 C1503 0.930 . S
C1498 H1484 0.930 . S
C1498 C1496 1.395 . S
C1498 C1501 1.403 . S
C1499 C1496 1.403 . S
C1499 C1500 1.524 . S
C1499 C1503 1.400 . S
C1500 H1485 0.960 . S
C1500 H1486 0.960 . S
C1500 H1487 0.960 . S
C1500 C1499 1.524 . S
C1501 C1498 1.403 . S
C1501 C1502 1.392 . S
C1501 C1505 1.495 . S
C1502 C1501 1.392 . S
C1502 C1503 1.385 . S
C1502 C1504 1.478 . S
C1503 H1497 0.930 . S
C1503 C1499 1.400 . S
C1503 C1502 1.385 . S
C1504 C1502 1.478 . S
C1504 C1506 1.381 . S
C1504 C1510 1.383 . S
C1505 C1501 1.495 . S
C1505 H1511 0.959 . S
C1505 H1512 0.961 . S
C1505 H1513 0.960 . S
C1506 C1504 1.381 . S
C1506 C1507 1.394 . S
C1506 H1514 0.930 . S
C1507 C1506 1.394 . S
C1507 C1508 1.383 . S
C1507 H1515 0.929 . S
C1508 C1507 1.383 . S
C1508 C1509 1.377 . S
C1509 H1493 0.930 1_556 S
C1509 C1508 1.377 . S
C1509 C1510 1.379 . S
C1510 H1494 0.931 . S
C1510 C1504 1.383 . S
C1510 C1509 1.379 . S
H1511 C1505 0.959 . S
H1512 C1505 0.961 . S
H1513 C1505 0.960 . S
H1514 C1506 0.930 . S
H1515 C1507 0.929 . S
H1516 C1524 0.929 . S
H1517 C1526 0.930 . S
H1518 C1528 0.930 . S
H1519 C1531 0.929 . S
H1520 C1534 0.930 . S
H1521 C1536 0.960 . S
H1522 C1536 0.960 . S
H1523 C1536 0.960 . S
C1524 H1516 0.929 . S
C1524 C1525 1.377 . S
C1524 C1526 1.384 . S
C1525 C1524 1.377 . S
C1525 C1531 1.390 . S
C1526 H1517 0.930 . S
C1526 C1524 1.384 . S
C1526 C1527 1.372 . S
C1527 C1526 1.372 . S
C1527 C1528 1.400 . S
C1527 C1532 1.490 . S
C1528 H1518 0.930 . S
C1528 C1527 1.400 . S
C1528 C1531 1.386 . S
H1529 C1545 0.930 . S
H1530 C1546 0.931 . S
C1531 H1519 0.929 . S
C1531 C1525 1.390 . S
C1531 C1528 1.386 . S
C1532 C1527 1.490 . S
C1532 C1534 1.395 . S
C1532 C1535 1.403 . S
H1533 C1539 0.930 . S
C1534 H1520 0.930 . S
C1534 C1532 1.395 . S
C1534 C1537 1.403 . S
C1535 C1532 1.403 . S
C1535 C1536 1.524 . S
C1535 C1539 1.400 . S
C1536 H1521 0.960 . S
C1536 H1522 0.960 . S
C1536 H1523 0.960 . S
C1536 C1535 1.524 . S
C1537 C1534 1.403 . S
C1537 C1538 1.392 . S
C1537 C1541 1.495 . S
C1538 C1537 1.392 . S
C1538 C1539 1.385 . S
C1538 C1540 1.478 . S
C1539 H1533 0.930 . S
C1539 C1535 1.400 . S
C1539 C1538 1.385 . S
C1540 C1538 1.478 . S
C1540 C1542 1.381 . S
C1540 C1546 1.383 . S
C1541 C1537 1.495 . S
C1541 H1547 0.959 . S
C1541 H1548 0.961 . S
C1541 H1549 0.960 . S
C1542 C1540 1.381 . S
C1542 C1543 1.394 . S
C1542 H1550 0.930 . S
C1543 C1542 1.394 . S
C1543 C1544 1.383 . S
C1543 H1551 0.929 . S
C1544 C1543 1.383 . S
C1544 C1545 1.377 . S
C1545 H1529 0.930 . S
C1545 C1544 1.377 . S
C1545 C1546 1.379 . S
C1546 H1530 0.931 . S
C1546 C1540 1.383 . S
C1546 C1545 1.379 . S
H1547 C1541 0.959 . S
H1548 C1541 0.961 . S
H1549 C1541 0.960 . S
H1550 C1542 0.930 . S
H1551 C1543 0.929 . S
H1552 C1560 0.929 . S
H1553 C1562 0.930 . S
H1554 C1564 0.930 . S
H1555 C1567 0.929 . S
H1556 C1570 0.930 . S
H1557 C1572 0.960 . S
H1558 C1572 0.960 . S
H1559 C1572 0.960 . S
C1560 H1552 0.929 . S
C1560 C1561 1.377 . S
C1560 C1562 1.384 . S
C1561 C1560 1.377 . S
C1561 C1567 1.390 . S
C1562 H1553 0.930 . S
C1562 C1560 1.384 . S
C1562 C1563 1.372 . S
C1563 C1562 1.372 . S
C1563 C1564 1.400 . S
C1563 C1568 1.490 . S
C1564 H1554 0.930 . S
C1564 C1563 1.400 . S
C1564 C1567 1.386 . S
H1565 C1581 0.930 1_565 S
H1566 C1582 0.931 . S
C1567 H1555 0.929 . S
C1567 C1561 1.390 . S
C1567 C1564 1.386 . S
C1568 C1563 1.490 . S
C1568 C1570 1.395 . S
C1568 C1571 1.403 . S
H1569 C1575 0.930 . S
C1570 H1556 0.930 . S
C1570 C1568 1.395 . S
C1570 C1573 1.403 . S
C1571 C1568 1.403 . S
C1571 C1572 1.524 . S
C1571 C1575 1.400 . S
C1572 H1557 0.960 . S
C1572 H1558 0.960 . S
C1572 H1559 0.960 . S
C1572 C1571 1.524 . S
C1573 C1570 1.403 . S
C1573 C1574 1.392 . S
C1573 C1577 1.495 1_565 S
C1574 C1573 1.392 . S
C1574 C1575 1.385 . S
C1574 C1576 1.478 1_565 S
C1575 H1569 0.930 . S
C1575 C1571 1.400 . S
C1575 C1574 1.385 . S
C1576 C1574 1.478 1_545 S
C1576 C1578 1.381 . S
C1576 C1582 1.383 1_545 S
C1577 C1573 1.495 1_545 S
C1577 H1583 0.959 . S
C1577 H1584 0.961 . S
C1577 H1585 0.960 . S
C1578 C1576 1.381 . S
C1578 C1579 1.394 . S
C1578 H1586 0.930 . S
C1579 C1578 1.394 . S
C1579 C1580 1.383 . S
C1579 H1587 0.929 . S
C1580 C1579 1.383 . S
C1580 C1581 1.377 . S
C1581 H1565 0.930 1_545 S
C1581 C1580 1.377 . S
C1581 C1582 1.379 1_545 S
C1582 H1566 0.931 . S
C1582 C1576 1.383 1_565 S
C1582 C1581 1.379 1_565 S
H1583 C1577 0.959 . S
H1584 C1577 0.961 . S
H1585 C1577 0.960 . S
H1586 C1578 0.930 . S
H1587 C1579 0.929 . S
H1588 C1596 0.929 . S
H1589 C1598 0.930 . S
H1590 C1600 0.930 . S
H1591 C1603 0.929 . S
H1592 C1606 0.930 . S
H1593 C1608 0.960 . S
H1594 C1608 0.960 . S
H1595 C1608 0.960 . S
C1596 H1588 0.929 . S
C1596 C1597 1.397 . S
C1596 C1598 1.384 . S
C1597 C1596 1.397 . S
C1597 C1603 1.353 1_556 S
C1598 H1589 0.930 . S
C1598 C1596 1.384 . S
C1598 C1599 1.372 1_556 S
C1599 C1598 1.372 1_554 S
C1599 C1600 1.400 . S
C1599 C1604 1.490 . S
C1600 H1590 0.930 . S
C1600 C1599 1.400 . S
C1600 C1603 1.386 . S
H1601 C1617 0.930 . S
H1602 C1618 0.931 . S
C1603 H1591 0.929 . S
C1603 C1597 1.353 1_554 S
C1603 C1600 1.386 . S
C1604 C1599 1.490 . S
C1604 C1606 1.395 1_554 S
C1604 C1607 1.403 . S
H1605 C1611 0.930 . S
C1606 H1592 0.930 . S
C1606 C1604 1.395 1_556 S
C1606 C1609 1.403 1_556 S
C1607 C1604 1.403 . S
C1607 C1608 1.524 . S
C1607 C1611 1.400 . S
C1608 H1593 0.960 . S
C1608 H1594 0.960 . S
C1608 H1595 0.960 . S
C1608 C1607 1.524 . S
C1609 C1606 1.403 1_554 S
C1609 C1610 1.392 . S
C1609 C1613 1.495 1_554 S
C1610 C1609 1.392 . S
C1610 C1611 1.385 . S
C1610 C1612 1.478 . S
C1611 H1605 0.930 . S
C1611 C1607 1.400 . S
C1611 C1610 1.385 . S
C1612 C1610 1.478 . S
C1612 C1614 1.381 . S
C1612 C1618 1.383 . S
C1613 C1609 1.495 1_556 S
C1613 H1619 0.959 . S
C1613 H1620 0.961 . S
C1613 H1621 0.960 . S
C1614 C1612 1.381 . S
C1614 C1615 1.394 . S
C1614 H1622 0.930 . S
C1615 C1614 1.394 . S
C1615 C1616 1.383 . S
C1615 H1623 0.929 . S
C1616 C1615 1.383 . S
C1616 C1617 1.377 . S
C1617 H1601 0.930 . S
C1617 C1616 1.377 . S
C1617 C1618 1.379 . S
C1618 H1602 0.931 . S
C1618 C1612 1.383 . S
C1618 C1617 1.379 . S
H1619 C1613 0.959 . S
H1620 C1613 0.961 . S
H1621 C1613 0.960 . S
H1622 C1614 0.930 . S
H1623 C1615 0.929 . S
H1624 C1632 0.929 . S
H1625 C1634 0.930 . S
H1626 C1636 0.930 . S
H1627 C1639 0.929 . S
H1628 C1642 0.930 . S
H1629 C1644 0.960 . S
H1630 C1644 0.960 . S
H1631 C1644 0.960 . S
C1632 H1624 0.929 . S
C1632 C1633 1.377 . S
C1632 C1634 1.384 . S
C1633 C1632 1.377 . S
C1633 C1639 1.390 . S
C1634 H1625 0.930 . S
C1634 C1632 1.384 . S
C1634 C1635 1.372 . S
C1635 C1634 1.372 . S
C1635 C1636 1.400 . S
C1635 C1640 1.490 . S
C1636 H1626 0.930 . S
C1636 C1635 1.400 . S
C1636 C1639 1.386 . S
H1637 C1653 0.930 . S
H1638 C1654 0.931 . S
C1639 H1627 0.929 . S
C1639 C1633 1.390 . S
C1639 C1636 1.386 . S
C1640 C1635 1.490 . S
C1640 C1642 1.395 . S
C1640 C1643 1.403 . S
H1641 C1647 0.930 . S
C1642 H1628 0.930 . S
C1642 C1640 1.395 . S
C1642 C1645 1.403 . S
C1643 C1640 1.403 . S
C1643 C1644 1.524 . S
C1643 C1647 1.400 . S
C1644 H1629 0.960 . S
C1644 H1630 0.960 . S
C1644 H1631 0.960 . S
C1644 C1643 1.524 . S
C1645 C1642 1.403 . S
C1645 C1646 1.392 . S
C1645 C1649 1.495 . S
C1646 C1645 1.392 . S
C1646 C1647 1.385 . S
C1646 C1648 1.478 . S
C1647 H1641 0.930 . S
C1647 C1643 1.400 . S
C1647 C1646 1.385 . S
C1648 C1646 1.478 . S
C1648 C1650 1.381 . S
C1648 C1654 1.383 . S
C1649 C1645 1.495 . S
C1649 H1655 0.959 . S
C1649 H1656 0.961 . S
C1649 H1657 0.960 . S
C1650 C1648 1.381 . S
C1650 C1651 1.394 . S
C1650 H1658 0.930 . S
C1651 C1650 1.394 . S
C1651 C1652 1.383 . S
C1651 H1659 0.929 . S
C1652 C1651 1.383 . S
C1652 C1653 1.377 . S
C1653 H1637 0.930 . S
C1653 C1652 1.377 . S
C1653 C1654 1.379 . S
C1654 H1638 0.931 . S
C1654 C1648 1.383 . S
C1654 C1653 1.379 . S
H1655 C1649 0.959 . S
H1656 C1649 0.961 . S
H1657 C1649 0.960 . S
H1658 C1650 0.930 . S
H1659 C1651 0.929 . S
H1660 C1668 0.929 . S
H1661 C1670 0.930 . S
H1662 C1672 0.930 . S
H1663 C1675 0.929 . S
H1664 C1678 0.930 . S
H1665 C1680 0.960 . S
H1666 C1680 0.960 . S
H1667 C1680 0.960 . S
C1668 H1660 0.929 . S
C1668 C1669 1.377 . S
C1668 C1670 1.384 . S
C1669 C1668 1.377 . S
C1669 C1675 1.390 . S
C1670 H1661 0.930 . S
C1670 C1668 1.384 . S
C1670 C1671 1.372 . S
C1671 C1670 1.372 . S
C1671 C1672 1.400 . S
C1671 C1676 1.490 . S
C1672 H1662 0.930 . S
C1672 C1671 1.400 . S
C1672 C1675 1.386 . S
H1673 C1689 0.930 . S
H1674 C1690 0.931 . S
C1675 H1663 0.929 . S
C1675 C1669 1.390 . S
C1675 C1672 1.386 . S
C1676 C1671 1.490 . S
C1676 C1678 1.395 . S
C1676 C1679 1.403 . S
H1677 C1683 0.930 . S
C1678 H1664 0.930 . S
C1678 C1676 1.395 . S
C1678 C1681 1.403 . S
C1679 C1676 1.403 . S
C1679 C1680 1.524 . S
C1679 C1683 1.400 . S
C1680 H1665 0.960 . S
C1680 H1666 0.960 . S
C1680 H1667 0.960 . S
C1680 C1679 1.524 . S
C1681 C1678 1.403 . S
C1681 C1682 1.392 . S
C1681 C1685 1.495 . S
C1682 C1681 1.392 . S
C1682 C1683 1.385 . S
C1682 C1684 1.478 . S
C1683 H1677 0.930 . S
C1683 C1679 1.400 . S
C1683 C1682 1.385 . S
C1684 C1682 1.478 . S
C1684 C1686 1.381 . S
C1684 C1690 1.383 . S
C1685 C1681 1.495 . S
C1685 H1691 0.959 . S
C1685 H1692 0.961 . S
C1685 H1693 0.960 . S
C1686 C1684 1.381 . S
C1686 C1687 1.394 . S
C1686 H1694 0.930 . S
C1687 C1686 1.394 . S
C1687 C1688 1.383 . S
C1687 H1695 0.929 . S
C1688 C1687 1.383 . S
C1688 C1689 1.377 . S
C1689 H1673 0.930 . S
C1689 C1688 1.377 . S
C1689 C1690 1.379 . S
C1690 H1674 0.931 . S
C1690 C1684 1.383 . S
C1690 C1689 1.379 . S
H1691 C1685 0.959 . S
H1692 C1685 0.961 . S
H1693 C1685 0.960 . S
H1694 C1686 0.930 . S
H1695 C1687 0.929 . S
H1696 C1704 0.929 . S
H1697 C1706 0.930 . S
H1698 C1708 0.930 . S
H1699 C1711 0.929 . S
H1700 C1714 0.930 . S
H1701 C1716 0.960 . S
H1702 C1716 0.960 . S
H1703 C1716 0.960 . S
C1704 H1696 0.929 . S
C1704 C1705 1.377 . S
C1704 C1706 1.384 . S
C1705 C1704 1.377 . S
C1705 C1711 1.390 . S
C1706 H1697 0.930 . S
C1706 C1704 1.384 . S
C1706 C1707 1.372 . S
C1707 C1706 1.372 . S
C1707 C1708 1.400 . S
C1707 C1712 1.490 . S
C1708 H1698 0.930 . S
C1708 C1707 1.400 . S
C1708 C1711 1.386 . S
H1709 C1725 0.930 . S
H1710 C1726 0.931 . S
C1711 H1699 0.929 . S
C1711 C1705 1.390 . S
C1711 C1708 1.386 . S
C1712 C1707 1.490 . S
C1712 C1714 1.395 . S
C1712 C1715 1.403 . S
H1713 C1719 0.930 . S
C1714 H1700 0.930 . S
C1714 C1712 1.395 . S
C1714 C1717 1.403 . S
C1715 C1712 1.403 . S
C1715 C1716 1.524 . S
C1715 C1719 1.400 . S
C1716 H1701 0.960 . S
C1716 H1702 0.960 . S
C1716 H1703 0.960 . S
C1716 C1715 1.524 . S
C1717 C1714 1.403 . S
C1717 C1718 1.392 . S
C1717 C1721 1.495 . S
C1718 C1717 1.392 . S
C1718 C1719 1.385 . S
C1718 C1720 1.478 . S
C1719 H1713 0.930 . S
C1719 C1715 1.400 . S
C1719 C1718 1.385 . S
C1720 C1718 1.478 . S
C1720 C1722 1.381 . S
C1720 C1726 1.383 . S
C1721 C1717 1.495 . S
C1721 H1727 0.959 . S
C1721 H1728 0.961 . S
C1721 H1729 0.960 . S
C1722 C1720 1.381 . S
C1722 C1723 1.394 . S
C1722 H1730 0.930 . S
C1723 C1722 1.394 . S
C1723 C1724 1.383 . S
C1723 H1731 0.929 . S
C1724 C1723 1.383 . S
C1724 C1725 1.377 . S
C1725 H1709 0.930 . S
C1725 C1724 1.377 . S
C1725 C1726 1.379 . S
C1726 H1710 0.931 . S
C1726 C1720 1.383 . S
C1726 C1725 1.379 . S
H1727 C1721 0.959 . S
H1728 C1721 0.961 . S
H1729 C1721 0.960 . S
H1730 C1722 0.930 . S
H1731 C1723 0.929 . S
H1732 C1740 0.929 . S
H1733 C1742 0.930 . S
H1734 C1744 0.930 . S
H1735 C1747 0.929 . S
H1736 C1750 0.930 . S
H1737 C1752 0.960 . S
H1738 C1752 0.960 . S
H1739 C1752 0.960 . S
C1740 H1732 0.929 . S
C1740 C1741 1.377 . S
C1740 C1742 1.384 . S
C1741 C1740 1.377 . S
C1741 C1747 1.390 . S
C1742 H1733 0.930 . S
C1742 C1740 1.384 . S
C1742 C1743 1.372 . S
C1743 C1742 1.372 . S
C1743 C1744 1.400 . S
C1743 C1748 1.490 . S
C1744 H1734 0.930 . S
C1744 C1743 1.400 . S
C1744 C1747 1.386 . S
H1745 C1761 0.930 . S
H1746 C1762 0.931 . S
C1747 H1735 0.929 . S
C1747 C1741 1.390 . S
C1747 C1744 1.386 . S
C1748 C1743 1.490 . S
C1748 C1750 1.395 . S
C1748 C1751 1.403 . S
H1749 C1755 0.930 . S
C1750 H1736 0.930 . S
C1750 C1748 1.395 . S
C1750 C1753 1.403 . S
C1751 C1748 1.403 . S
C1751 C1752 1.524 . S
C1751 C1755 1.400 . S
C1752 H1737 0.960 . S
C1752 H1738 0.960 . S
C1752 H1739 0.960 . S
C1752 C1751 1.524 . S
C1753 C1750 1.403 . S
C1753 C1754 1.392 . S
C1753 C1757 1.495 . S
C1754 C1753 1.392 . S
C1754 C1755 1.385 . S
C1754 C1756 1.478 . S
C1755 H1749 0.930 . S
C1755 C1751 1.400 . S
C1755 C1754 1.385 . S
C1756 C1754 1.478 . S
C1756 C1758 1.381 . S
C1756 C1762 1.383 . S
C1757 C1753 1.495 . S
C1757 H1763 0.959 . S
C1757 H1764 0.961 . S
C1757 H1765 0.960 . S
C1758 C1756 1.381 . S
C1758 C1759 1.394 . S
C1758 H1766 0.930 . S
C1759 C1758 1.394 . S
C1759 C1760 1.383 . S
C1759 H1767 0.929 . S
C1760 C1759 1.383 . S
C1760 C1761 1.377 . S
C1761 H1745 0.930 . S
C1761 C1760 1.377 . S
C1761 C1762 1.379 . S
C1762 H1746 0.931 . S
C1762 C1756 1.383 . S
C1762 C1761 1.379 . S
H1763 C1757 0.959 . S
H1764 C1757 0.961 . S
H1765 C1757 0.960 . S
H1766 C1758 0.930 . S
H1767 C1759 0.929 . S
H1768 C1776 0.929 . S
H1769 C1778 0.930 . S
H1770 C1780 0.930 . S
H1771 C1783 0.929 . S
H1772 C1786 0.930 . S
H1773 C1788 0.960 . S
H1774 C1788 0.960 . S
H1775 C1788 0.960 . S
C1776 H1768 0.929 . S
C1776 C1777 1.377 . S
C1776 C1778 1.384 . S
C1777 C1776 1.377 . S
C1777 C1783 1.390 . S
C1778 H1769 0.930 . S
C1778 C1776 1.384 . S
C1778 C1779 1.372 . S
C1779 C1778 1.372 . S
C1779 C1780 1.400 . S
C1779 C1784 1.490 . S
C1780 H1770 0.930 . S
C1780 C1779 1.400 . S
C1780 C1783 1.386 . S
H1781 C1797 0.930 . S
H1782 C1798 0.931 . S
C1783 H1771 0.929 . S
C1783 C1777 1.390 . S
C1783 C1780 1.386 . S
C1784 C1779 1.490 . S
C1784 C1786 1.395 . S
C1784 C1787 1.403 . S
H1785 C1791 0.930 . S
C1786 H1772 0.930 . S
C1786 C1784 1.395 . S
C1786 C1789 1.403 . S
C1787 C1784 1.403 . S
C1787 C1788 1.524 . S
C1787 C1791 1.400 . S
C1788 H1773 0.960 . S
C1788 H1774 0.960 . S
C1788 H1775 0.960 . S
C1788 C1787 1.524 . S
C1789 C1786 1.403 . S
C1789 C1790 1.392 . S
C1789 C1793 1.495 . S
C1790 C1789 1.392 . S
C1790 C1791 1.385 . S
C1790 C1792 1.478 . S
C1791 H1785 0.930 . S
C1791 C1787 1.400 . S
C1791 C1790 1.385 . S
C1792 C1790 1.478 . S
C1792 C1794 1.381 . S
C1792 C1798 1.383 . S
C1793 C1789 1.495 . S
C1793 H1799 0.959 . S
C1793 H1800 0.961 . S
C1793 H1801 0.960 . S
C1794 C1792 1.381 . S
C1794 C1795 1.394 . S
C1794 H1802 0.930 . S
C1795 C1794 1.394 . S
C1795 C1796 1.383 . S
C1795 H1803 0.929 . S
C1796 C1795 1.383 . S
C1796 C1797 1.377 . S
C1797 H1781 0.930 . S
C1797 C1796 1.377 . S
C1797 C1798 1.379 . S
C1798 H1782 0.931 . S
C1798 C1792 1.383 . S
C1798 C1797 1.379 . S
H1799 C1793 0.959 . S
H1800 C1793 0.961 . S
H1801 C1793 0.960 . S
H1802 C1794 0.930 . S
H1803 C1795 0.929 . S
H1804 C1812 0.929 . S
H1805 C1814 0.930 . S
H1806 C1816 0.930 . S
H1807 C1819 0.929 . S
H1808 C1822 0.930 . S
H1809 C1824 0.960 . S
H1810 C1824 0.960 . S
H1811 C1824 0.960 . S
C1812 H1804 0.929 . S
C1812 C1813 1.377 . S
C1812 C1814 1.384 . S
C1813 C1812 1.377 . S
C1813 C1819 1.390 . S
C1814 H1805 0.930 . S
C1814 C1812 1.384 . S
C1814 C1815 1.372 . S
C1815 C1814 1.372 . S
C1815 C1816 1.400 . S
C1815 C1820 1.490 . S
C1816 H1806 0.930 . S
C1816 C1815 1.400 . S
C1816 C1819 1.386 . S
H1817 C1833 0.930 . S
H1818 C1834 0.931 . S
C1819 H1807 0.929 . S
C1819 C1813 1.390 . S
C1819 C1816 1.386 . S
C1820 C1815 1.490 . S
C1820 C1822 1.395 . S
C1820 C1823 1.403 . S
H1821 C1827 0.930 . S
C1822 H1808 0.930 . S
C1822 C1820 1.395 . S
C1822 C1825 1.403 . S
C1823 C1820 1.403 . S
C1823 C1824 1.524 . S
C1823 C1827 1.400 . S
C1824 H1809 0.960 . S
C1824 H1810 0.960 . S
C1824 H1811 0.960 . S
C1824 C1823 1.524 . S
C1825 C1822 1.403 . S
C1825 C1826 1.392 . S
C1825 C1829 1.495 . S
C1826 C1825 1.392 . S
C1826 C1827 1.385 . S
C1826 C1828 1.478 . S
C1827 H1821 0.930 . S
C1827 C1823 1.400 . S
C1827 C1826 1.385 . S
C1828 C1826 1.478 . S
C1828 C1830 1.381 . S
C1828 C1834 1.383 . S
C1829 C1825 1.495 . S
C1829 H1835 0.959 . S
C1829 H1836 0.961 . S
C1829 H1837 0.960 . S
C1830 C1828 1.381 . S
C1830 C1831 1.394 . S
C1830 H1838 0.930 . S
C1831 C1830 1.394 . S
C1831 C1832 1.383 . S
C1831 H1839 0.929 . S
C1832 C1831 1.383 . S
C1832 C1833 1.377 . S
C1833 H1817 0.930 . S
C1833 C1832 1.377 . S
C1833 C1834 1.379 . S
C1834 H1818 0.931 . S
C1834 C1828 1.383 . S
C1834 C1833 1.379 . S
H1835 C1829 0.959 . S
H1836 C1829 0.961 . S
H1837 C1829 0.960 . S
H1838 C1830 0.930 . S
H1839 C1831 0.929 . S
H1840 C1848 0.929 1_655 S
H1841 C1850 0.930 1_655 S
H1842 C1852 0.930 . S
H1843 C1855 0.929 . S
H1844 C1858 0.930 . S
H1845 C1860 0.960 . S
H1846 C1860 0.960 . S
H1847 C1860 0.960 . S
C1848 H1840 0.929 1_455 S
C1848 C1849 1.377 . S
C1848 C1850 1.384 . S
C1849 C1848 1.377 . S
C1849 C1855 1.390 . S
C1850 H1841 0.930 1_455 S
C1850 C1848 1.384 . S
C1850 C1851 1.372 . S
C1851 C1850 1.372 . S
C1851 C1852 1.400 . S
C1851 C1856 1.490 . S
C1852 H1842 0.930 . S
C1852 C1851 1.400 . S
C1852 C1855 1.386 . S
H1853 C1869 0.930 . S
H1854 C1870 0.931 . S
C1855 H1843 0.929 . S
C1855 C1849 1.390 . S
C1855 C1852 1.386 . S
C1856 C1851 1.490 . S
C1856 C1858 1.395 . S
C1856 C1859 1.403 . S
H1857 C1863 0.930 . S
C1858 H1844 0.930 . S
C1858 C1856 1.395 . S
C1858 C1861 1.403 . S
C1859 C1856 1.403 . S
C1859 C1860 1.524 . S
C1859 C1863 1.400 . S
C1860 H1845 0.960 . S
C1860 H1846 0.960 . S
C1860 H1847 0.960 . S
C1860 C1859 1.524 . S
C1861 C1858 1.403 . S
C1861 C1862 1.392 . S
C1861 C1865 1.495 . S
C1862 C1861 1.392 . S
C1862 C1863 1.385 . S
C1862 C1864 1.478 . S
C1863 H1857 0.930 . S
C1863 C1859 1.400 . S
C1863 C1862 1.385 . S
C1864 C1862 1.478 . S
C1864 C1866 1.381 . S
C1864 C1870 1.383 . S
C1865 C1861 1.495 . S
C1865 H1871 0.959 . S
C1865 H1872 0.961 . S
C1865 H1873 0.960 . S
C1866 C1864 1.381 . S
C1866 C1867 1.394 . S
C1866 H1874 0.930 1_455 S
C1867 C1866 1.394 . S
C1867 C1868 1.383 . S
C1867 H1875 0.929 1_455 S
C1868 C1867 1.383 . S
C1868 C1869 1.377 . S
C1869 H1853 0.930 . S
C1869 C1868 1.377 . S
C1869 C1870 1.379 . S
C1870 H1854 0.931 . S
C1870 C1864 1.383 . S
C1870 C1869 1.379 . S
H1871 C1865 0.959 . S
H1872 C1865 0.961 . S
H1873 C1865 0.960 . S
H1874 C1866 0.930 1_655 S
H1875 C1867 0.929 1_655 S
H1876 C1884 0.929 . S
H1877 C1886 0.930 . S
H1878 C1888 0.930 . S
H1879 C1891 0.929 . S
H1880 C1894 0.930 . S
H1881 C1896 0.960 . S
H1882 C1896 0.960 . S
H1883 C1896 0.960 . S
C1884 H1876 0.929 . S
C1884 C1885 1.377 . S
C1884 C1886 1.384 . S
C1885 C1884 1.377 . S
C1885 C1891 1.390 . S
C1886 H1877 0.930 . S
C1886 C1884 1.384 . S
C1886 C1887 1.372 . S
C1887 C1886 1.372 . S
C1887 C1888 1.400 . S
C1887 C1892 1.490 . S
C1888 H1878 0.930 . S
C1888 C1887 1.400 . S
C1888 C1891 1.386 . S
H1889 C1905 0.930 . S
H1890 C1906 0.931 . S
C1891 H1879 0.929 . S
C1891 C1885 1.390 . S
C1891 C1888 1.386 . S
C1892 C1887 1.490 . S
C1892 C1894 1.395 . S
C1892 C1895 1.403 . S
H1893 C1899 0.930 . S
C1894 H1880 0.930 . S
C1894 C1892 1.395 . S
C1894 C1897 1.403 . S
C1895 C1892 1.403 . S
C1895 C1896 1.524 . S
C1895 C1899 1.400 . S
C1896 H1881 0.960 . S
C1896 H1882 0.960 . S
C1896 H1883 0.960 . S
C1896 C1895 1.524 . S
C1897 C1894 1.403 . S
C1897 C1898 1.392 . S
C1897 C1901 1.495 . S
C1898 C1897 1.392 . S
C1898 C1899 1.385 . S
C1898 C1900 1.478 . S
C1899 H1893 0.930 . S
C1899 C1895 1.400 . S
C1899 C1898 1.385 . S
C1900 C1898 1.478 . S
C1900 C1902 1.381 . S
C1900 C1906 1.383 . S
C1901 C1897 1.495 . S
C1901 H1907 0.959 . S
C1901 H1908 0.961 . S
C1901 H1909 0.960 . S
C1902 C1900 1.381 . S
C1902 C1903 1.394 . S
C1902 H1910 0.930 . S
C1903 C1902 1.394 . S
C1903 C1904 1.383 . S
C1903 H1911 0.929 . S
C1904 C1903 1.383 . S
C1904 C1905 1.377 . S
C1905 H1889 0.930 . S
C1905 C1904 1.377 . S
C1905 C1906 1.379 . S
C1906 H1890 0.931 . S
C1906 C1900 1.383 . S
C1906 C1905 1.379 . S
H1907 C1901 0.959 . S
H1908 C1901 0.961 . S
H1909 C1901 0.960 . S
H1910 C1902 0.930 . S
H1911 C1903 0.929 . S
H1912 C1920 0.929 . S
H1913 C1922 0.930 . S
H1914 C1924 0.930 . S
H1915 C1927 0.929 . S
H1916 C1930 0.930 . S
H1917 C1932 0.960 . S
H1918 C1932 0.960 . S
H1919 C1932 0.960 . S
C1920 H1912 0.929 . S
C1920 C1921 1.377 . S
C1920 C1922 1.384 . S
C1921 C1920 1.377 . S
C1921 C1927 1.390 . S
C1922 H1913 0.930 . S
C1922 C1920 1.384 . S
C1922 C1923 1.372 . S
C1923 C1922 1.372 . S
C1923 C1924 1.400 . S
C1923 C1928 1.490 . S
C1924 H1914 0.930 . S
C1924 C1923 1.400 . S
C1924 C1927 1.386 . S
H1925 C1941 0.930 . S
H1926 C1942 0.931 . S
C1927 H1915 0.929 . S
C1927 C1921 1.390 . S
C1927 C1924 1.386 . S
C1928 C1923 1.490 . S
C1928 C1930 1.395 . S
C1928 C1931 1.403 . S
H1929 C1935 0.930 . S
C1930 H1916 0.930 . S
C1930 C1928 1.395 . S
C1930 C1933 1.403 . S
C1931 C1928 1.403 . S
C1931 C1932 1.524 . S
C1931 C1935 1.400 . S
C1932 H1917 0.960 . S
C1932 H1918 0.960 . S
C1932 H1919 0.960 . S
C1932 C1931 1.524 . S
C1933 C1930 1.403 . S
C1933 C1934 1.392 . S
C1933 C1937 1.495 . S
C1934 C1933 1.392 . S
C1934 C1935 1.385 . S
C1934 C1936 1.478 . S
C1935 H1929 0.930 . S
C1935 C1931 1.400 . S
C1935 C1934 1.385 . S
C1936 C1934 1.478 . S
C1936 C1938 1.381 . S
C1936 C1942 1.383 . S
C1937 C1933 1.495 . S
C1937 H1943 0.959 . S
C1937 H1944 0.961 . S
C1937 H1945 0.960 . S
C1938 C1936 1.381 . S
C1938 C1939 1.394 . S
C1938 H1946 0.930 . S
C1939 C1938 1.394 . S
C1939 C1940 1.383 . S
C1939 H1947 0.929 . S
C1940 C1939 1.383 . S
C1940 C1941 1.377 . S
C1941 H1925 0.930 . S
C1941 C1940 1.377 . S
C1941 C1942 1.379 . S
C1942 H1926 0.931 . S
C1942 C1936 1.383 . S
C1942 C1941 1.379 . S
H1943 C1937 0.959 . S
H1944 C1937 0.961 . S
H1945 C1937 0.960 . S
H1946 C1938 0.930 . S
H1947 C1939 0.929 . S
H1948 C1956 0.929 . S
H1949 C1958 0.930 . S
H1950 C1960 0.930 . S
H1951 C1963 0.929 . S
H1952 C1966 0.930 . S
H1953 C1968 0.960 . S
H1954 C1968 0.960 . S
H1955 C1968 0.960 . S
C1956 H1948 0.929 . S
C1956 C1957 1.377 . S
C1956 C1958 1.384 . S
C1957 C1956 1.377 . S
C1957 C1963 1.390 . S
C1958 H1949 0.930 . S
C1958 C1956 1.384 . S
C1958 C1959 1.372 . S
C1959 C1958 1.372 . S
C1959 C1960 1.400 . S
C1959 C1964 1.490 . S
C1960 H1950 0.930 . S
C1960 C1959 1.400 . S
C1960 C1963 1.386 . S
H1961 C1977 0.930 . S
H1962 C1978 0.931 . S
C1963 H1951 0.929 . S
C1963 C1957 1.390 . S
C1963 C1960 1.386 . S
C1964 C1959 1.490 . S
C1964 C1966 1.395 . S
C1964 C1967 1.403 . S
H1965 C1971 0.930 . S
C1966 H1952 0.930 . S
C1966 C1964 1.395 . S
C1966 C1969 1.403 . S
C1967 C1964 1.403 . S
C1967 C1968 1.524 . S
C1967 C1971 1.400 . S
C1968 H1953 0.960 . S
C1968 H1954 0.960 . S
C1968 H1955 0.960 . S
C1968 C1967 1.524 . S
C1969 C1966 1.403 . S
C1969 C1970 1.392 . S
C1969 C1973 1.495 . S
C1970 C1969 1.392 . S
C1970 C1971 1.385 . S
C1970 C1972 1.478 . S
C1971 H1965 0.930 . S
C1971 C1967 1.400 . S
C1971 C1970 1.385 . S
C1972 C1970 1.478 . S
C1972 C1974 1.381 . S
C1972 C1978 1.383 . S
C1973 C1969 1.495 . S
C1973 H1979 0.959 . S
C1973 H1980 0.961 . S
C1973 H1981 0.960 . S
C1974 C1972 1.381 . S
C1974 C1975 1.394 . S
C1974 H1982 0.930 . S
C1975 C1974 1.394 . S
C1975 C1976 1.383 . S
C1975 H1983 0.929 . S
C1976 C1975 1.383 . S
C1976 C1977 1.377 . S
C1977 H1961 0.930 . S
C1977 C1976 1.377 . S
C1977 C1978 1.379 . S
C1978 H1962 0.931 . S
C1978 C1972 1.383 . S
C1978 C1977 1.379 . S
H1979 C1973 0.959 . S
H1980 C1973 0.961 . S
H1981 C1973 0.960 . S
H1982 C1974 0.930 . S
H1983 C1975 0.929 . S
H1984 C1992 0.929 . S
H1985 C1994 0.930 . S
H1986 C1996 0.930 . S
H1987 C1999 0.929 . S
H1988 C2002 0.930 . S
H1989 C2004 0.960 . S
H1990 C2004 0.960 . S
H1991 C2004 0.960 . S
C1992 H1984 0.929 . S
C1992 C1993 1.377 . S
C1992 C1994 1.384 . S
C1993 C1992 1.377 . S
C1993 C1999 1.390 . S
C1994 H1985 0.930 . S
C1994 C1992 1.384 . S
C1994 C1995 1.372 . S
C1995 C1994 1.372 . S
C1995 C1996 1.400 . S
C1995 C2000 1.490 . S
C1996 H1986 0.930 . S
C1996 C1995 1.400 . S
C1996 C1999 1.386 . S
H1997 C2013 0.930 . S
H1998 C2014 0.931 . S
C1999 H1987 0.929 . S
C1999 C1993 1.390 . S
C1999 C1996 1.386 . S
C2000 C1995 1.490 . S
C2000 C2002 1.395 . S
C2000 C2003 1.403 . S
H2001 C2007 0.930 . S
C2002 H1988 0.930 . S
C2002 C2000 1.395 . S
C2002 C2005 1.403 . S
C2003 C2000 1.403 . S
C2003 C2004 1.524 . S
C2003 C2007 1.400 . S
C2004 H1989 0.960 . S
C2004 H1990 0.960 . S
C2004 H1991 0.960 . S
C2004 C2003 1.524 . S
C2005 C2002 1.403 . S
C2005 C2006 1.392 . S
C2005 C2009 1.495 1_455 S
C2006 C2005 1.392 . S
C2006 C2007 1.385 . S
C2006 C2008 1.478 . S
C2007 H2001 0.930 . S
C2007 C2003 1.400 . S
C2007 C2006 1.385 . S
C2008 C2006 1.478 . S
C2008 C2010 1.381 1_455 S
C2008 C2014 1.383 . S
C2009 C2005 1.495 1_655 S
C2009 H2015 0.959 . S
C2009 H2016 0.961 1_655 S
C2009 H2017 0.960 . S
C2010 C2008 1.381 1_655 S
C2010 C2011 1.394 . S
C2010 H2018 0.930 . S
C2011 C2010 1.394 . S
C2011 C2012 1.383 . S
C2011 H2019 0.929 . S
C2012 C2011 1.383 . S
C2012 C2013 1.377 1_655 S
C2013 H1997 0.930 . S
C2013 C2012 1.377 1_455 S
C2013 C2014 1.379 . S
C2014 H1998 0.931 . S
C2014 C2008 1.383 . S
C2014 C2013 1.379 . S
H2015 C2009 0.959 . S
H2016 C2009 0.961 1_455 S
H2017 C2009 0.960 . S
H2018 C2010 0.930 . S
H2019 C2011 0.929 . S
H2020 C2028 0.929 . S
H2021 C2030 0.930 . S
H2022 C2032 0.930 . S
H2023 C2035 0.929 . S
H2024 C2038 0.930 . S
H2025 C2040 0.960 . S
H2026 C2040 0.960 . S
H2027 C2040 0.960 . S
C2028 H2020 0.929 . S
C2028 C2029 1.377 . S
C2028 C2030 1.384 . S
C2029 C2028 1.377 . S
C2029 C2035 1.390 . S
C2030 H2021 0.930 . S
C2030 C2028 1.384 . S
C2030 C2031 1.372 . S
C2031 C2030 1.372 . S
C2031 C2032 1.400 . S
C2031 C2036 1.490 . S
C2032 H2022 0.930 . S
C2032 C2031 1.400 . S
C2032 C2035 1.386 . S
H2033 C2049 0.930 . S
H2034 C2050 0.931 . S
C2035 H2023 0.929 . S
C2035 C2029 1.390 . S
C2035 C2032 1.386 . S
C2036 C2031 1.490 . S
C2036 C2038 1.395 . S
C2036 C2039 1.403 . S
H2037 C2043 0.930 . S
C2038 H2024 0.930 . S
C2038 C2036 1.395 . S
C2038 C2041 1.403 . S
C2039 C2036 1.403 . S
C2039 C2040 1.524 . S
C2039 C2043 1.400 . S
C2040 H2025 0.960 . S
C2040 H2026 0.960 . S
C2040 H2027 0.960 . S
C2040 C2039 1.524 . S
C2041 C2038 1.403 . S
C2041 C2042 1.392 . S
C2041 C2045 1.495 . S
C2042 C2041 1.392 . S
C2042 C2043 1.385 . S
C2042 C2044 1.478 . S
C2043 H2037 0.930 . S
C2043 C2039 1.400 . S
C2043 C2042 1.385 . S
C2044 C2042 1.478 . S
C2044 C2046 1.381 . S
C2044 C2050 1.383 . S
C2045 C2041 1.495 . S
C2045 H2051 0.959 . S
C2045 H2052 0.961 . S
C2045 H2053 0.960 . S
C2046 C2044 1.381 . S
C2046 C2047 1.394 . S
C2046 H2054 0.930 . S
C2047 C2046 1.394 . S
C2047 C2048 1.383 . S
C2047 H2055 0.929 . S
C2048 C2047 1.383 . S
C2048 C2049 1.377 . S
C2049 H2033 0.930 . S
C2049 C2048 1.377 . S
C2049 C2050 1.379 . S
C2050 H2034 0.931 . S
C2050 C2044 1.383 . S
C2050 C2049 1.379 . S
H2051 C2045 0.959 . S
H2052 C2045 0.961 . S
H2053 C2045 0.960 . S
H2054 C2046 0.930 . S
H2055 C2047 0.929 . S
H2056 C2064 0.929 1_554 S
H2057 C2066 0.930 . S
H2058 C2068 0.930 . S
H2059 C2071 0.929 . S
H2060 C2074 0.930 . S
H2061 C2076 0.960 . S
H2062 C2076 0.960 . S
H2063 C2076 0.960 . S
C2064 H2056 0.929 1_556 S
C2064 C2065 1.377 . S
C2064 C2066 1.384 1_556 S
C2065 C2064 1.377 . S
C2065 C2071 1.390 . S
C2066 H2057 0.930 . S
C2066 C2064 1.384 1_554 S
C2066 C2067 1.372 1_554 S
C2067 C2066 1.372 1_556 S
C2067 C2068 1.400 . S
C2067 C2072 1.490 1_556 S
C2068 H2058 0.930 . S
C2068 C2067 1.400 . S
C2068 C2071 1.386 . S
H2069 C2085 0.930 . S
H2070 C2086 0.931 . S
C2071 H2059 0.929 . S
C2071 C2065 1.390 . S
C2071 C2068 1.386 . S
C2072 C2067 1.490 1_554 S
C2072 C2074 1.395 . S
C2072 C2075 1.403 1_554 S
H2073 C2079 0.930 . S
C2074 H2060 0.930 . S
C2074 C2072 1.395 . S
C2074 C2077 1.403 . S
C2075 C2072 1.403 1_556 S
C2075 C2076 1.524 . S
C2075 C2079 1.400 1_556 S
C2076 H2061 0.960 . S
C2076 H2062 0.960 . S
C2076 H2063 0.960 . S
C2076 C2075 1.524 . S
C2077 C2074 1.403 . S
C2077 C2078 1.392 . S
C2077 C2081 1.495 . S
C2078 C2077 1.392 . S
C2078 C2079 1.385 . S
C2078 C2080 1.478 . S
C2079 H2073 0.930 . S
C2079 C2075 1.400 1_554 S
C2079 C2078 1.385 . S
C2080 C2078 1.478 . S
C2080 C2082 1.381 . S
C2080 C2086 1.383 . S
C2081 C2077 1.495 . S
C2081 H2087 0.959 . S
C2081 H2088 0.961 . S
C2081 H2089 0.960 . S
C2082 C2080 1.381 . S
C2082 C2083 1.394 1_565 S
C2082 H2090 0.930 . S
C2083 C2082 1.394 1_545 S
C2083 C2084 1.383 . S
C2083 H2091 0.929 . S
C2084 C2083 1.383 . S
C2084 C2085 1.377 . S
C2085 H2069 0.930 . S
C2085 C2084 1.377 . S
C2085 C2086 1.379 1_545 S
C2086 H2070 0.931 . S
C2086 C2080 1.383 . S
C2086 C2085 1.379 1_565 S
H2087 C2081 0.959 . S
H2088 C2081 0.961 . S
H2089 C2081 0.960 . S
H2090 C2082 0.930 . S
H2091 C2083 0.929 . S
H2092 C2100 0.929 . S
H2093 C2102 0.930 . S
H2094 C2104 0.930 . S
H2095 C2107 0.929 . S
H2096 C2110 0.930 . S
H2097 C2112 0.960 . S
H2098 C2112 0.960 . S
H2099 C2112 0.960 . S
C2100 H2092 0.929 . S
C2100 C2101 1.377 . S
C2100 C2102 1.384 . S
C2101 C2100 1.377 . S
C2101 C2107 1.390 . S
C2102 H2093 0.930 . S
C2102 C2100 1.384 . S
C2102 C2103 1.372 . S
C2103 C2102 1.372 . S
C2103 C2104 1.400 . S
C2103 C2108 1.490 . S
C2104 H2094 0.930 . S
C2104 C2103 1.400 . S
C2104 C2107 1.386 . S
H2105 C2121 0.930 . S
H2106 C2122 0.931 . S
C2107 H2095 0.929 . S
C2107 C2101 1.390 . S
C2107 C2104 1.386 . S
C2108 C2103 1.490 . S
C2108 C2110 1.395 . S
C2108 C2111 1.403 . S
H2109 C2115 0.930 . S
C2110 H2096 0.930 . S
C2110 C2108 1.395 . S
C2110 C2113 1.403 . S
C2111 C2108 1.403 . S
C2111 C2112 1.524 . S
C2111 C2115 1.400 . S
C2112 H2097 0.960 . S
C2112 H2098 0.960 . S
C2112 H2099 0.960 . S
C2112 C2111 1.524 . S
C2113 C2110 1.403 . S
C2113 C2114 1.392 . S
C2113 C2117 1.495 . S
C2114 C2113 1.392 . S
C2114 C2115 1.385 . S
C2114 C2116 1.478 . S
C2115 H2109 0.930 . S
C2115 C2111 1.400 . S
C2115 C2114 1.385 . S
C2116 C2114 1.478 . S
C2116 C2118 1.381 . S
C2116 C2122 1.383 . S
C2117 C2113 1.495 . S
C2117 H2123 0.959 . S
C2117 H2124 0.961 . S
C2117 H2125 0.960 . S
C2118 C2116 1.381 . S
C2118 C2119 1.394 . S
C2118 H2126 0.930 . S
C2119 C2118 1.394 . S
C2119 C2120 1.383 . S
C2119 H2127 0.929 . S
C2120 C2119 1.383 . S
C2120 C2121 1.377 . S
C2121 H2105 0.930 . S
C2121 C2120 1.377 . S
C2121 C2122 1.379 . S
C2122 H2106 0.931 . S
C2122 C2116 1.383 . S
C2122 C2121 1.379 . S
H2123 C2117 0.959 . S
H2124 C2117 0.961 . S
H2125 C2117 0.960 . S
H2126 C2118 0.930 . S
H2127 C2119 0.929 . S
H2128 C2136 0.929 . S
H2129 C2138 0.930 . S
H2130 C2140 0.930 . S
H2131 C2143 0.929 . S
H2132 C2146 0.930 . S
H2133 C2148 0.960 . S
H2134 C2148 0.960 . S
H2135 C2148 0.960 . S
C2136 H2128 0.929 . S
C2136 C2137 1.377 . S
C2136 C2138 1.384 . S
C2137 C2136 1.377 . S
C2137 C2143 1.390 . S
C2138 H2129 0.930 . S
C2138 C2136 1.384 . S
C2138 C2139 1.372 . S
C2139 C2138 1.372 . S
C2139 C2140 1.400 . S
C2139 C2144 1.490 . S
C2140 H2130 0.930 . S
C2140 C2139 1.400 . S
C2140 C2143 1.386 . S
H2141 C2157 0.930 1_554 S
H2142 C2158 0.931 . S
C2143 H2131 0.929 . S
C2143 C2137 1.390 . S
C2143 C2140 1.386 . S
C2144 C2139 1.490 . S
C2144 C2146 1.395 . S
C2144 C2147 1.403 . S
H2145 C2151 0.930 . S
C2146 H2132 0.930 . S
C2146 C2144 1.395 . S
C2146 C2149 1.403 . S
C2147 C2144 1.403 . S
C2147 C2148 1.524 . S
C2147 C2151 1.400 . S
C2148 H2133 0.960 . S
C2148 H2134 0.960 . S
C2148 H2135 0.960 . S
C2148 C2147 1.524 . S
C2149 C2146 1.403 . S
C2149 C2150 1.392 . S
C2149 C2153 1.495 . S
C2150 C2149 1.392 . S
C2150 C2151 1.385 . S
C2150 C2152 1.478 . S
C2151 H2145 0.930 . S
C2151 C2147 1.400 . S
C2151 C2150 1.385 . S
C2152 C2150 1.478 . S
C2152 C2154 1.381 . S
C2152 C2158 1.383 . S
C2153 C2149 1.495 . S
C2153 H2159 0.959 1_545 S
C2153 H2160 0.961 1_545 S
C2153 H2161 0.960 . S
C2154 C2152 1.381 . S
C2154 C2155 1.394 . S
C2154 H2162 0.930 . S
C2155 C2154 1.394 . S
C2155 C2156 1.383 . S
C2155 H2163 0.929 . S
C2156 C2155 1.383 . S
C2156 C2157 1.377 . S
C2157 H2141 0.930 1_556 S
C2157 C2156 1.377 . S
C2157 C2158 1.379 . S
C2158 H2142 0.931 . S
C2158 C2152 1.383 . S
C2158 C2157 1.379 . S
H2159 C2153 0.959 1_565 S
H2160 C2153 0.961 1_565 S
H2161 C2153 0.960 . S
H2162 C2154 0.930 . S
H2163 C2155 0.929 . S
H2164 C2172 0.929 . S
H2165 C2174 0.930 . S
H2166 C2176 0.930 . S
H2167 C2179 0.929 . S
H2168 C2182 0.930 . S
H2169 C2184 0.960 . S
H2170 C2184 0.960 . S
H2171 C2184 0.960 . S
C2172 H2164 0.929 . S
C2172 C2173 1.377 . S
C2172 C2174 1.384 . S
C2173 C2172 1.377 . S
C2173 C2179 1.390 . S
C2174 H2165 0.930 . S
C2174 C2172 1.384 . S
C2174 C2175 1.372 . S
C2175 C2174 1.372 . S
C2175 C2176 1.400 . S
C2175 C2180 1.490 . S
C2176 H2166 0.930 . S
C2176 C2175 1.400 . S
C2176 C2179 1.386 . S
H2177 C2193 0.930 . S
H2178 C2194 0.931 . S
C2179 H2167 0.929 . S
C2179 C2173 1.390 . S
C2179 C2176 1.386 . S
C2180 C2175 1.490 . S
C2180 C2182 1.395 . S
C2180 C2183 1.403 . S
H2181 C2187 0.930 . S
C2182 H2168 0.930 . S
C2182 C2180 1.395 . S
C2182 C2185 1.403 . S
C2183 C2180 1.403 . S
C2183 C2184 1.524 . S
C2183 C2187 1.400 . S
C2184 H2169 0.960 . S
C2184 H2170 0.960 . S
C2184 H2171 0.960 . S
C2184 C2183 1.524 . S
C2185 C2182 1.403 . S
C2185 C2186 1.392 . S
C2185 C2189 1.495 . S
C2186 C2185 1.392 . S
C2186 C2187 1.385 . S
C2186 C2188 1.478 . S
C2187 H2181 0.930 . S
C2187 C2183 1.400 . S
C2187 C2186 1.385 . S
C2188 C2186 1.478 . S
C2188 C2190 1.381 . S
C2188 C2194 1.383 . S
C2189 C2185 1.495 . S
C2189 H2195 0.959 . S
C2189 H2196 0.961 . S
C2189 H2197 0.960 . S
C2190 C2188 1.381 . S
C2190 C2191 1.394 . S
C2190 H2198 0.930 . S
C2191 C2190 1.394 . S
C2191 C2192 1.383 . S
C2191 H2199 0.929 . S
C2192 C2191 1.383 . S
C2192 C2193 1.377 . S
C2193 H2177 0.930 . S
C2193 C2192 1.377 . S
C2193 C2194 1.379 . S
C2194 H2178 0.931 . S
C2194 C2188 1.383 . S
C2194 C2193 1.379 . S
H2195 C2189 0.959 . S
H2196 C2189 0.961 . S
H2197 C2189 0.960 . S
H2198 C2190 0.930 . S
H2199 C2191 0.929 . S
H2200 C2208 0.929 . S
H2201 C2210 0.930 . S
H2202 C2212 0.930 . S
H2203 C2215 0.929 . S
H2204 C2218 0.930 . S
H2205 C2220 0.960 . S
H2206 C2220 0.960 . S
H2207 C2220 0.960 . S
C2208 H2200 0.929 . S
C2208 C2209 1.377 . S
C2208 C2210 1.384 . S
C2209 C2208 1.377 . S
C2209 C2215 1.390 . S
C2210 H2201 0.930 . S
C2210 C2208 1.384 . S
C2210 C2211 1.372 . S
C2211 C2210 1.372 . S
C2211 C2212 1.400 . S
C2211 C2216 1.490 . S
C2212 H2202 0.930 . S
C2212 C2211 1.400 . S
C2212 C2215 1.386 . S
H2213 C2229 0.930 . S
H2214 C2230 0.931 . S
C2215 H2203 0.929 . S
C2215 C2209 1.390 . S
C2215 C2212 1.386 . S
C2216 C2211 1.490 . S
C2216 C2218 1.395 . S
C2216 C2219 1.403 . S
H2217 C2223 0.930 . S
C2218 H2204 0.930 . S
C2218 C2216 1.395 . S
C2218 C2221 1.403 . S
C2219 C2216 1.403 . S
C2219 C2220 1.524 . S
C2219 C2223 1.400 . S
C2220 H2205 0.960 . S
C2220 H2206 0.960 . S
C2220 H2207 0.960 . S
C2220 C2219 1.524 . S
C2221 C2218 1.403 . S
C2221 C2222 1.392 . S
C2221 C2225 1.495 . S
C2222 C2221 1.392 . S
C2222 C2223 1.385 . S
C2222 C2224 1.478 . S
C2223 H2217 0.930 . S
C2223 C2219 1.400 . S
C2223 C2222 1.385 . S
C2224 C2222 1.478 . S
C2224 C2226 1.381 . S
C2224 C2230 1.383 . S
C2225 C2221 1.495 . S
C2225 H2231 0.959 . S
C2225 H2232 0.961 . S
C2225 H2233 0.960 . S
C2226 C2224 1.381 . S
C2226 C2227 1.394 . S
C2226 H2234 0.930 . S
C2227 C2226 1.394 . S
C2227 C2228 1.383 . S
C2227 H2235 0.929 . S
C2228 C2227 1.383 . S
C2228 C2229 1.377 . S
C2229 H2213 0.930 . S
C2229 C2228 1.377 . S
C2229 C2230 1.379 . S
C2230 H2214 0.931 . S
C2230 C2224 1.383 . S
C2230 C2229 1.379 . S
H2231 C2225 0.959 . S
H2232 C2225 0.961 . S
H2233 C2225 0.960 . S
H2234 C2226 0.930 . S
H2235 C2227 0.929 . S
H2236 C2244 0.929 . S
H2237 C2246 0.930 . S
H2238 C2248 0.930 . S
H2239 C2251 0.929 . S
H2240 C2254 0.930 . S
H2241 C2256 0.960 . S
H2242 C2256 0.960 . S
H2243 C2256 0.960 . S
C2244 H2236 0.929 . S
C2244 C2245 1.377 . S
C2244 C2246 1.384 . S
C2245 C2244 1.377 . S
C2245 C2251 1.390 . S
C2246 H2237 0.930 . S
C2246 C2244 1.384 . S
C2246 C2247 1.372 . S
C2247 C2246 1.372 . S
C2247 C2248 1.400 . S
C2247 C2252 1.490 . S
C2248 H2238 0.930 . S
C2248 C2247 1.400 . S
C2248 C2251 1.386 . S
H2249 C2265 0.930 . S
H2250 C2266 0.931 . S
C2251 H2239 0.929 . S
C2251 C2245 1.390 . S
C2251 C2248 1.386 . S
C2252 C2247 1.490 . S
C2252 C2254 1.395 . S
C2252 C2255 1.403 . S
H2253 C2259 0.930 . S
C2254 H2240 0.930 . S
C2254 C2252 1.395 . S
C2254 C2257 1.403 . S
C2255 C2252 1.403 . S
C2255 C2256 1.524 . S
C2255 C2259 1.400 . S
C2256 H2241 0.960 . S
C2256 H2242 0.960 . S
C2256 H2243 0.960 . S
C2256 C2255 1.524 . S
C2257 C2254 1.403 . S
C2257 C2258 1.392 . S
C2257 C2261 1.495 . S
C2258 C2257 1.392 . S
C2258 C2259 1.385 . S
C2258 C2260 1.478 . S
C2259 H2253 0.930 . S
C2259 C2255 1.400 . S
C2259 C2258 1.385 . S
C2260 C2258 1.478 . S
C2260 C2262 1.381 . S
C2260 C2266 1.383 . S
C2261 C2257 1.495 . S
C2261 H2267 0.959 . S
C2261 H2268 0.961 . S
C2261 H2269 0.960 . S
C2262 C2260 1.381 . S
C2262 C2263 1.394 . S
C2262 H2270 0.930 . S
C2263 C2262 1.394 . S
C2263 C2264 1.383 . S
C2263 H2271 0.929 . S
C2264 C2263 1.383 . S
C2264 C2265 1.377 . S
C2265 H2249 0.930 . S
C2265 C2264 1.377 . S
C2265 C2266 1.379 . S
C2266 H2250 0.931 . S
C2266 C2260 1.383 . S
C2266 C2265 1.379 . S
H2267 C2261 0.959 . S
H2268 C2261 0.961 . S
H2269 C2261 0.960 . S
H2270 C2262 0.930 . S
H2271 C2263 0.929 . S
H2272 C2280 0.929 . S
H2273 C2282 0.930 . S
H2274 C2284 0.930 . S
H2275 C2287 0.929 . S
H2276 C2290 0.930 . S
H2277 C2292 0.960 . S
H2278 C2292 0.960 1_565 S
H2279 C2292 0.960 . S
C2280 H2272 0.929 . S
C2280 C2281 1.377 . S
C2280 C2282 1.384 . S
C2281 C2280 1.377 . S
C2281 C2287 1.390 . S
C2282 H2273 0.930 . S
C2282 C2280 1.384 . S
C2282 C2283 1.372 . S
C2283 C2282 1.372 . S
C2283 C2284 1.400 . S
C2283 C2288 1.490 . S
C2284 H2274 0.930 . S
C2284 C2283 1.400 . S
C2284 C2287 1.386 . S
H2285 C2301 0.930 . S
H2286 C2302 0.931 . S
C2287 H2275 0.929 . S
C2287 C2281 1.390 . S
C2287 C2284 1.386 . S
C2288 C2283 1.490 . S
C2288 C2290 1.395 . S
C2288 C2291 1.403 . S
H2289 C2295 0.930 . S
C2290 H2276 0.930 . S
C2290 C2288 1.395 . S
C2290 C2293 1.403 . S
C2291 C2288 1.403 . S
C2291 C2292 1.524 . S
C2291 C2295 1.400 . S
C2292 H2277 0.960 . S
C2292 H2278 0.960 1_545 S
C2292 H2279 0.960 . S
C2292 C2291 1.524 . S
C2293 C2290 1.403 . S
C2293 C2294 1.392 . S
C2293 C2297 1.495 . S
C2294 C2293 1.392 . S
C2294 C2295 1.385 . S
C2294 C2296 1.478 . S
C2295 H2289 0.930 . S
C2295 C2291 1.400 . S
C2295 C2294 1.385 . S
C2296 C2294 1.478 . S
C2296 C2298 1.381 . S
C2296 C2302 1.383 . S
C2297 C2293 1.495 . S
C2297 H2303 0.959 . S
C2297 H2304 0.961 . S
C2297 H2305 0.960 . S
C2298 C2296 1.381 . S
C2298 C2299 1.394 . S
C2298 H2306 0.930 . S
C2299 C2298 1.394 . S
C2299 C2300 1.383 . S
C2299 H2307 0.929 . S
C2300 C2299 1.383 . S
C2300 C2301 1.377 . S
C2301 H2285 0.930 . S
C2301 C2300 1.377 . S
C2301 C2302 1.379 . S
C2302 H2286 0.931 . S
C2302 C2296 1.383 . S
C2302 C2301 1.379 . S
H2303 C2297 0.959 . S
H2304 C2297 0.961 . S
H2305 C2297 0.960 . S
H2306 C2298 0.930 . S
H2307 C2299 0.929 . S
H2308 C2316 0.929 . S
H2309 C2318 0.930 . S
H2310 C2320 0.930 . S
H2311 C2323 0.929 . S
H2312 C2326 0.930 . S
H2313 C2328 0.960 . S
H2314 C2328 0.960 . S
H2315 C2328 0.960 . S
C2316 H2308 0.929 . S
C2316 C2317 1.377 . S
C2316 C2318 1.384 . S
C2317 C2316 1.377 . S
C2317 C2323 1.390 . S
C2318 H2309 0.930 . S
C2318 C2316 1.384 . S
C2318 C2319 1.372 . S
C2319 C2318 1.372 . S
C2319 C2320 1.400 . S
C2319 C2324 1.490 . S
C2320 H2310 0.930 . S
C2320 C2319 1.400 . S
C2320 C2323 1.386 . S
H2321 C2337 0.930 . S
H2322 C2338 0.931 . S
C2323 H2311 0.929 . S
C2323 C2317 1.390 . S
C2323 C2320 1.386 . S
C2324 C2319 1.490 . S
C2324 C2326 1.395 . S
C2324 C2327 1.403 . S
H2325 C2331 0.930 . S
C2326 H2312 0.930 . S
C2326 C2324 1.395 . S
C2326 C2329 1.403 . S
C2327 C2324 1.403 . S
C2327 C2328 1.524 . S
C2327 C2331 1.400 . S
C2328 H2313 0.960 . S
C2328 H2314 0.960 . S
C2328 H2315 0.960 . S
C2328 C2327 1.524 . S
C2329 C2326 1.403 . S
C2329 C2330 1.392 . S
C2329 C2333 1.495 . S
C2330 C2329 1.392 . S
C2330 C2331 1.385 . S
C2330 C2332 1.478 . S
C2331 H2325 0.930 . S
C2331 C2327 1.400 . S
C2331 C2330 1.385 . S
C2332 C2330 1.478 . S
C2332 C2334 1.381 . S
C2332 C2338 1.383 . S
C2333 C2329 1.495 . S
C2333 H2339 0.959 . S
C2333 H2340 0.961 . S
C2333 H2341 0.960 . S
C2334 C2332 1.381 . S
C2334 C2335 1.394 . S
C2334 H2342 0.930 . S
C2335 C2334 1.394 . S
C2335 C2336 1.383 . S
C2335 H2343 0.929 . S
C2336 C2335 1.383 . S
C2336 C2337 1.377 . S
C2337 H2321 0.930 . S
C2337 C2336 1.377 . S
C2337 C2338 1.379 . S
C2338 H2322 0.931 . S
C2338 C2332 1.383 . S
C2338 C2337 1.379 . S
H2339 C2333 0.959 . S
H2340 C2333 0.961 . S
H2341 C2333 0.960 . S
H2342 C2334 0.930 . S
H2343 C2335 0.929 . S
H2344 C2352 0.929 . S
H2345 C2354 0.930 . S
H2346 C2356 0.930 . S
H2347 C2359 0.929 . S
H2348 C2362 0.930 . S
H2349 C2364 0.960 . S
H2350 C2364 0.960 . S
H2351 C2364 0.960 . S
C2352 H2344 0.929 . S
C2352 C2353 1.377 . S
C2352 C2354 1.384 . S
C2353 C2352 1.377 . S
C2353 C2359 1.390 . S
C2354 H2345 0.930 . S
C2354 C2352 1.384 . S
C2354 C2355 1.372 . S
C2355 C2354 1.372 . S
C2355 C2356 1.400 . S
C2355 C2360 1.490 . S
C2356 H2346 0.930 . S
C2356 C2355 1.400 . S
C2356 C2359 1.386 . S
H2357 C2373 0.930 . S
H2358 C2374 0.931 . S
C2359 H2347 0.929 . S
C2359 C2353 1.390 . S
C2359 C2356 1.386 . S
C2360 C2355 1.490 . S
C2360 C2362 1.395 . S
C2360 C2363 1.403 . S
H2361 C2367 0.930 . S
C2362 H2348 0.930 . S
C2362 C2360 1.395 . S
C2362 C2365 1.403 . S
C2363 C2360 1.403 . S
C2363 C2364 1.524 . S
C2363 C2367 1.400 . S
C2364 H2349 0.960 . S
C2364 H2350 0.960 . S
C2364 H2351 0.960 . S
C2364 C2363 1.524 . S
C2365 C2362 1.403 . S
C2365 C2366 1.392 . S
C2365 C2369 1.495 . S
C2366 C2365 1.392 . S
C2366 C2367 1.385 . S
C2366 C2368 1.478 . S
C2367 H2361 0.930 . S
C2367 C2363 1.400 . S
C2367 C2366 1.385 . S
C2368 C2366 1.478 . S
C2368 C2370 1.381 . S
C2368 C2374 1.383 . S
C2369 C2365 1.495 . S
C2369 H2375 0.959 . S
C2369 H2376 0.961 . S
C2369 H2377 0.960 . S
C2370 C2368 1.381 . S
C2370 C2371 1.394 . S
C2370 H2378 0.930 . S
C2371 C2370 1.394 . S
C2371 C2372 1.383 . S
C2371 H2379 0.929 . S
C2372 C2371 1.383 . S
C2372 C2373 1.377 . S
C2373 H2357 0.930 . S
C2373 C2372 1.377 . S
C2373 C2374 1.379 . S
C2374 H2358 0.931 . S
C2374 C2368 1.383 . S
C2374 C2373 1.379 . S
H2375 C2369 0.959 . S
H2376 C2369 0.961 . S
H2377 C2369 0.960 . S
H2378 C2370 0.930 . S
H2379 C2371 0.929 . S
H2380 C2388 0.929 . S
H2381 C2390 0.930 . S
H2382 C2392 0.930 . S
H2383 C2395 0.929 . S
H2384 C2398 0.930 . S
H2385 C2400 0.960 . S
H2386 C2400 0.960 . S
H2387 C2400 0.960 . S
C2388 H2380 0.929 . S
C2388 C2389 1.377 . S
C2388 C2390 1.384 . S
C2389 C2388 1.377 . S
C2389 C2395 1.390 . S
C2390 H2381 0.930 . S
C2390 C2388 1.384 . S
C2390 C2391 1.372 . S
C2391 C2390 1.372 . S
C2391 C2392 1.400 . S
C2391 C2396 1.490 . S
C2392 H2382 0.930 . S
C2392 C2391 1.400 . S
C2392 C2395 1.386 . S
H2393 C2409 0.930 . S
H2394 C2410 0.931 . S
C2395 H2383 0.929 . S
C2395 C2389 1.390 . S
C2395 C2392 1.386 . S
C2396 C2391 1.490 . S
C2396 C2398 1.395 . S
C2396 C2399 1.403 . S
H2397 C2403 0.930 . S
C2398 H2384 0.930 . S
C2398 C2396 1.395 . S
C2398 C2401 1.403 . S
C2399 C2396 1.403 . S
C2399 C2400 1.524 . S
C2399 C2403 1.400 . S
C2400 H2385 0.960 . S
C2400 H2386 0.960 . S
C2400 H2387 0.960 . S
C2400 C2399 1.524 . S
C2401 C2398 1.403 . S
C2401 C2402 1.392 . S
C2401 C2405 1.495 . S
C2402 C2401 1.392 . S
C2402 C2403 1.385 . S
C2402 C2404 1.478 . S
C2403 H2397 0.930 . S
C2403 C2399 1.400 . S
C2403 C2402 1.385 . S
C2404 C2402 1.478 . S
C2404 C2406 1.381 . S
C2404 C2410 1.383 . S
C2405 C2401 1.495 . S
C2405 H2411 0.959 . S
C2405 H2412 0.961 . S
C2405 H2413 0.960 . S
C2406 C2404 1.381 . S
C2406 C2407 1.394 . S
C2406 H2414 0.930 . S
C2407 C2406 1.394 . S
C2407 C2408 1.383 . S
C2407 H2415 0.929 . S
C2408 C2407 1.383 . S
C2408 C2409 1.377 . S
C2409 H2393 0.930 . S
C2409 C2408 1.377 . S
C2409 C2410 1.379 . S
C2410 H2394 0.931 . S
C2410 C2404 1.383 . S
C2410 C2409 1.379 . S
H2411 C2405 0.959 . S
H2412 C2405 0.961 . S
H2413 C2405 0.960 . S
H2414 C2406 0.930 . S
H2415 C2407 0.929 . S
H2416 C2424 0.929 . S
H2417 C2426 0.930 . S
H2418 C2428 0.930 . S
H2419 C2431 0.929 . S
H2420 C2434 0.930 . S
H2421 C2436 0.960 . S
H2422 C2436 0.960 . S
H2423 C2436 0.960 . S
C2424 H2416 0.929 . S
C2424 C2425 1.377 . S
C2424 C2426 1.384 . S
C2425 C2424 1.377 . S
C2425 C2431 1.390 . S
C2426 H2417 0.930 . S
C2426 C2424 1.384 . S
C2426 C2427 1.372 . S
C2427 C2426 1.372 . S
C2427 C2428 1.400 . S
C2427 C2432 1.490 . S
C2428 H2418 0.930 . S
C2428 C2427 1.400 . S
C2428 C2431 1.386 . S
H2429 C2445 0.930 . S
H2430 C2446 0.931 . S
C2431 H2419 0.929 . S
C2431 C2425 1.390 . S
C2431 C2428 1.386 . S
C2432 C2427 1.490 . S
C2432 C2434 1.395 . S
C2432 C2435 1.403 . S
H2433 C2439 0.930 . S
C2434 H2420 0.930 . S
C2434 C2432 1.395 . S
C2434 C2437 1.403 . S
C2435 C2432 1.403 . S
C2435 C2436 1.524 . S
C2435 C2439 1.400 . S
C2436 H2421 0.960 . S
C2436 H2422 0.960 . S
C2436 H2423 0.960 . S
C2436 C2435 1.524 . S
C2437 C2434 1.403 . S
C2437 C2438 1.392 . S
C2437 C2441 1.495 . S
C2438 C2437 1.392 . S
C2438 C2439 1.385 . S
C2438 C2440 1.478 . S
C2439 H2433 0.930 . S
C2439 C2435 1.400 . S
C2439 C2438 1.385 . S
C2440 C2438 1.478 . S
C2440 C2442 1.381 . S
C2440 C2446 1.383 . S
C2441 C2437 1.495 . S
C2441 H2447 0.959 1_554 S
C2441 H2448 0.961 1_554 S
C2441 H2449 0.960 . S
C2442 C2440 1.381 . S
C2442 C2443 1.394 . S
C2442 H2450 0.930 . S
C2443 C2442 1.394 . S
C2443 C2444 1.383 . S
C2443 H2451 0.929 . S
C2444 C2443 1.383 . S
C2444 C2445 1.377 . S
C2445 H2429 0.930 . S
C2445 C2444 1.377 . S
C2445 C2446 1.379 . S
C2446 H2430 0.931 . S
C2446 C2440 1.383 . S
C2446 C2445 1.379 . S
H2447 C2441 0.959 1_556 S
H2448 C2441 0.961 1_556 S
H2449 C2441 0.960 . S
H2450 C2442 0.930 . S
H2451 C2443 0.929 . S
H2452 C2460 0.929 . S
H2453 C2462 0.930 . S
H2454 C2464 0.930 . S
H2455 C2467 0.929 . S
H2456 C2470 0.930 . S
H2457 C2472 0.960 . S
H2458 C2472 0.960 . S
H2459 C2472 0.960 . S
C2460 H2452 0.929 . S
C2460 C2461 1.377 . S
C2460 C2462 1.384 . S
C2461 C2460 1.377 . S
C2461 C2467 1.390 . S
C2462 H2453 0.930 . S
C2462 C2460 1.384 . S
C2462 C2463 1.372 . S
C2463 C2462 1.372 . S
C2463 C2464 1.400 . S
C2463 C2468 1.490 . S
C2464 H2454 0.930 . S
C2464 C2463 1.400 . S
C2464 C2467 1.386 . S
H2465 C2481 0.930 . S
H2466 C2482 0.931 . S
C2467 H2455 0.929 . S
C2467 C2461 1.390 . S
C2467 C2464 1.386 . S
C2468 C2463 1.490 . S
C2468 C2470 1.395 . S
C2468 C2471 1.403 . S
H2469 C2475 0.930 . S
C2470 H2456 0.930 . S
C2470 C2468 1.395 . S
C2470 C2473 1.403 . S
C2471 C2468 1.403 . S
C2471 C2472 1.524 . S
C2471 C2475 1.400 . S
C2472 H2457 0.960 . S
C2472 H2458 0.960 . S
C2472 H2459 0.960 . S
C2472 C2471 1.524 . S
C2473 C2470 1.403 . S
C2473 C2474 1.392 . S
C2473 C2477 1.495 . S
C2474 C2473 1.392 . S
C2474 C2475 1.385 . S
C2474 C2476 1.478 . S
C2475 H2469 0.930 . S
C2475 C2471 1.400 . S
C2475 C2474 1.385 . S
C2476 C2474 1.478 . S
C2476 C2478 1.381 . S
C2476 C2482 1.383 . S
C2477 C2473 1.495 . S
C2477 H2483 0.959 . S
C2477 H2484 0.961 . S
C2477 H2485 0.960 . S
C2478 C2476 1.381 . S
C2478 C2479 1.394 . S
C2478 H2486 0.930 . S
C2479 C2478 1.394 . S
C2479 C2480 1.383 . S
C2479 H2487 0.929 . S
C2480 C2479 1.383 . S
C2480 C2481 1.377 . S
C2481 H2465 0.930 . S
C2481 C2480 1.377 . S
C2481 C2482 1.379 . S
C2482 H2466 0.931 . S
C2482 C2476 1.383 . S
C2482 C2481 1.379 . S
H2483 C2477 0.959 . S
H2484 C2477 0.961 . S
H2485 C2477 0.960 . S
H2486 C2478 0.930 . S
H2487 C2479 0.929 . S
H2488 C2496 0.929 . S
H2489 C2498 0.930 . S
H2490 C2500 0.930 . S
H2491 C2503 0.929 . S
H2492 C2506 0.930 . S
H2493 C2508 0.960 . S
H2494 C2508 0.960 . S
H2495 C2508 0.960 . S
C2496 H2488 0.929 . S
C2496 C2497 1.377 . S
C2496 C2498 1.384 . S
C2497 C2496 1.377 . S
C2497 C2503 1.390 . S
C2498 H2489 0.930 . S
C2498 C2496 1.384 . S
C2498 C2499 1.372 . S
C2499 C2498 1.372 . S
C2499 C2500 1.400 . S
C2499 C2504 1.490 . S
C2500 H2490 0.930 . S
C2500 C2499 1.400 . S
C2500 C2503 1.386 . S
H2501 C2517 0.930 . S
H2502 C2518 0.931 . S
C2503 H2491 0.929 . S
C2503 C2497 1.390 . S
C2503 C2500 1.386 . S
C2504 C2499 1.490 . S
C2504 C2506 1.395 . S
C2504 C2507 1.403 . S
H2505 C2511 0.930 . S
C2506 H2492 0.930 . S
C2506 C2504 1.395 . S
C2506 C2509 1.403 . S
C2507 C2504 1.403 . S
C2507 C2508 1.524 . S
C2507 C2511 1.400 . S
C2508 H2493 0.960 . S
C2508 H2494 0.960 . S
C2508 H2495 0.960 . S
C2508 C2507 1.524 . S
C2509 C2506 1.403 . S
C2509 C2510 1.392 . S
C2509 C2513 1.495 . S
C2510 C2509 1.392 . S
C2510 C2511 1.385 . S
C2510 C2512 1.478 . S
C2511 H2505 0.930 . S
C2511 C2507 1.400 . S
C2511 C2510 1.385 . S
C2512 C2510 1.478 . S
C2512 C2514 1.381 . S
C2512 C2518 1.383 . S
C2513 C2509 1.495 . S
C2513 H2519 0.959 . S
C2513 H2520 0.961 . S
C2513 H2521 0.960 . S
C2514 C2512 1.381 . S
C2514 C2515 1.394 . S
C2514 H2522 0.930 . S
C2515 C2514 1.394 . S
C2515 C2516 1.383 . S
C2515 H2523 0.929 . S
C2516 C2515 1.383 . S
C2516 C2517 1.377 . S
C2517 H2501 0.930 . S
C2517 C2516 1.377 . S
C2517 C2518 1.379 . S
C2518 H2502 0.931 . S
C2518 C2512 1.383 . S
C2518 C2517 1.379 . S
H2519 C2513 0.959 . S
H2520 C2513 0.961 . S
H2521 C2513 0.960 . S
H2522 C2514 0.930 . S
H2523 C2515 0.929 . S
H2524 C2532 0.929 . S
H2525 C2534 0.930 . S
H2526 C2536 0.930 . S
H2527 C2539 0.929 . S
H2528 C2542 0.930 . S
H2529 C2544 0.960 . S
H2530 C2544 0.960 . S
H2531 C2544 0.960 . S
C2532 H2524 0.929 . S
C2532 C2533 1.377 . S
C2532 C2534 1.384 . S
C2533 C2532 1.377 . S
C2533 C2539 1.390 . S
C2534 H2525 0.930 . S
C2534 C2532 1.384 . S
C2534 C2535 1.372 . S
C2535 C2534 1.372 . S
C2535 C2536 1.400 . S
C2535 C2540 1.490 . S
C2536 H2526 0.930 . S
C2536 C2535 1.400 . S
C2536 C2539 1.386 . S
H2537 C2553 0.930 . S
H2538 C2554 0.931 . S
C2539 H2527 0.929 . S
C2539 C2533 1.390 . S
C2539 C2536 1.386 . S
C2540 C2535 1.490 . S
C2540 C2542 1.395 . S
C2540 C2543 1.403 . S
H2541 C2547 0.930 . S
C2542 H2528 0.930 . S
C2542 C2540 1.395 . S
C2542 C2545 1.403 . S
C2543 C2540 1.403 . S
C2543 C2544 1.524 . S
C2543 C2547 1.400 . S
C2544 H2529 0.960 . S
C2544 H2530 0.960 . S
C2544 H2531 0.960 . S
C2544 C2543 1.524 . S
C2545 C2542 1.403 . S
C2545 C2546 1.392 . S
C2545 C2549 1.495 . S
C2546 C2545 1.392 . S
C2546 C2547 1.385 . S
C2546 C2548 1.478 . S
C2547 H2541 0.930 . S
C2547 C2543 1.400 . S
C2547 C2546 1.385 . S
C2548 C2546 1.478 . S
C2548 C2550 1.381 . S
C2548 C2554 1.383 . S
C2549 C2545 1.495 . S
C2549 H2555 0.959 . S
C2549 H2556 0.961 . S
C2549 H2557 0.960 . S
C2550 C2548 1.381 . S
C2550 C2551 1.394 . S
C2550 H2558 0.930 . S
C2551 C2550 1.394 . S
C2551 C2552 1.383 . S
C2551 H2559 0.929 . S
C2552 C2551 1.383 . S
C2552 C2553 1.377 . S
C2553 H2537 0.930 . S
C2553 C2552 1.377 . S
C2553 C2554 1.379 . S
C2554 H2538 0.931 . S
C2554 C2548 1.383 . S
C2554 C2553 1.379 . S
H2555 C2549 0.959 . S
H2556 C2549 0.961 . S
H2557 C2549 0.960 . S
H2558 C2550 0.930 . S
H2559 C2551 0.929 . S
H2560 C2568 0.929 . S
H2561 C2570 0.930 . S
H2562 C2572 0.930 . S
H2563 C2575 0.929 . S
H2564 C2578 0.930 . S
H2565 C2580 0.960 . S
H2566 C2580 0.960 . S
H2567 C2580 0.960 . S
C2568 H2560 0.929 . S
C2568 C2569 1.377 . S
C2568 C2570 1.384 . S
C2569 C2568 1.377 . S
C2569 C2575 1.390 . S
C2570 H2561 0.930 . S
C2570 C2568 1.384 . S
C2570 C2571 1.372 . S
C2571 C2570 1.372 . S
C2571 C2572 1.400 . S
C2571 C2576 1.490 . S
C2572 H2562 0.930 . S
C2572 C2571 1.400 . S
C2572 C2575 1.386 . S
H2573 C2589 0.930 . S
H2574 C2590 0.931 . S
C2575 H2563 0.929 . S
C2575 C2569 1.390 . S
C2575 C2572 1.386 . S
C2576 C2571 1.490 . S
C2576 C2578 1.395 . S
C2576 C2579 1.403 . S
H2577 C2583 0.930 . S
C2578 H2564 0.930 . S
C2578 C2576 1.395 . S
C2578 C2581 1.403 . S
C2579 C2576 1.403 . S
C2579 C2580 1.524 . S
C2579 C2583 1.400 . S
C2580 H2565 0.960 . S
C2580 H2566 0.960 . S
C2580 H2567 0.960 . S
C2580 C2579 1.524 . S
C2581 C2578 1.403 . S
C2581 C2582 1.392 . S
C2581 C2585 1.495 . S
C2582 C2581 1.392 . S
C2582 C2583 1.385 . S
C2582 C2584 1.478 . S
C2583 H2577 0.930 . S
C2583 C2579 1.400 . S
C2583 C2582 1.385 . S
C2584 C2582 1.478 . S
C2584 C2586 1.381 . S
C2584 C2590 1.383 . S
C2585 C2581 1.495 . S
C2585 H2591 0.959 . S
C2585 H2592 0.961 . S
C2585 H2593 0.960 . S
C2586 C2584 1.381 . S
C2586 C2587 1.394 . S
C2586 H2594 0.930 . S
C2587 C2586 1.394 . S
C2587 C2588 1.383 . S
C2587 H2595 0.929 . S
C2588 C2587 1.383 . S
C2588 C2589 1.377 . S
C2589 H2573 0.930 . S
C2589 C2588 1.377 . S
C2589 C2590 1.379 . S
C2590 H2574 0.931 . S
C2590 C2584 1.383 . S
C2590 C2589 1.379 . S
H2591 C2585 0.959 . S
H2592 C2585 0.961 . S
H2593 C2585 0.960 . S
H2594 C2586 0.930 . S
H2595 C2587 0.929 . S
H2596 C2604 0.929 . S
H2597 C2606 0.930 . S
H2598 C2608 0.930 . S
H2599 C2611 0.929 . S
H2600 C2614 0.930 . S
H2601 C2616 0.960 . S
H2602 C2616 0.960 . S
H2603 C2616 0.960 . S
C2604 H2596 0.929 . S
C2604 C2605 1.377 . S
C2604 C2606 1.384 . S
C2605 C2604 1.377 . S
C2605 C2611 1.390 . S
C2606 H2597 0.930 . S
C2606 C2604 1.384 . S
C2606 C2607 1.372 . S
C2607 C2606 1.372 . S
C2607 C2608 1.400 . S
C2607 C2612 1.490 . S
C2608 H2598 0.930 . S
C2608 C2607 1.400 . S
C2608 C2611 1.386 . S
H2609 C2625 0.930 . S
H2610 C2626 0.943 . S
C2611 H2599 0.929 . S
C2611 C2605 1.390 . S
C2611 C2608 1.386 . S
C2612 C2607 1.490 . S
C2612 C2614 1.395 1_565 S
C2612 C2615 1.403 . S
H2613 C2619 0.930 . S
C2614 H2600 0.930 . S
C2614 C2612 1.395 1_545 S
C2614 C2617 1.403 . S
C2615 C2612 1.403 . S
C2615 C2616 1.524 . S
C2615 C2619 1.400 . S
C2616 H2601 0.960 . S
C2616 H2602 0.960 . S
C2616 H2603 0.960 . S
C2616 C2615 1.524 . S
C2617 C2614 1.403 . S
C2617 C2618 1.392 1_545 S
C2617 C2621 1.495 . S
C2618 C2617 1.392 1_565 S
C2618 C2619 1.385 . S
C2618 C2620 1.478 1_565 S
C2619 H2613 0.930 . S
C2619 C2615 1.400 . S
C2619 C2618 1.385 . S
C2620 C2618 1.478 1_545 S
C2620 C2622 1.381 . S
C2620 C2626 1.384 1_545 S
C2621 C2617 1.495 . S
C2621 H2627 0.959 . S
C2621 H2628 0.961 . S
C2621 H2629 0.960 . S
C2622 C2620 1.381 . S
C2622 C2623 1.394 . S
C2622 H2630 0.930 . S
C2623 C2622 1.394 . S
C2623 C2624 1.383 . S
C2623 H2631 0.929 . S
C2624 C2623 1.383 . S
C2624 C2625 1.377 . S
C2625 H2609 0.930 . S
C2625 C2624 1.377 . S
C2625 C2626 1.368 1_545 S
C2626 H2610 0.943 . S
C2626 C2620 1.384 1_565 S
C2626 C2625 1.368 1_565 S
H2627 C2621 0.959 . S
H2628 C2621 0.961 . S
H2629 C2621 0.960 . S
H2630 C2622 0.930 . S
H2631 C2623 0.929 . S
H2632 C2640 0.929 . S
H2633 C2642 0.930 . S
H2634 C2644 0.930 . S
H2635 C2647 0.929 . S
H2636 C2650 0.930 . S
H2637 C2652 0.960 . S
H2638 C2652 0.960 . S
H2639 C2652 0.960 . S
C2640 H2632 0.929 . S
C2640 C2641 1.377 . S
C2640 C2642 1.384 . S
C2641 C2640 1.377 . S
C2641 C2647 1.390 . S
C2642 H2633 0.930 . S
C2642 C2640 1.384 . S
C2642 C2643 1.372 . S
C2643 C2642 1.372 . S
C2643 C2644 1.400 . S
C2643 C2648 1.490 . S
C2644 H2634 0.930 . S
C2644 C2643 1.400 . S
C2644 C2647 1.386 . S
H2645 C2661 0.930 . S
H2646 C2662 0.931 . S
C2647 H2635 0.929 . S
C2647 C2641 1.390 . S
C2647 C2644 1.386 . S
C2648 C2643 1.490 . S
C2648 C2650 1.395 . S
C2648 C2651 1.403 . S
H2649 C2655 0.930 . S
C2650 H2636 0.930 . S
C2650 C2648 1.395 . S
C2650 C2653 1.403 . S
C2651 C2648 1.403 . S
C2651 C2652 1.524 . S
C2651 C2655 1.400 . S
C2652 H2637 0.960 . S
C2652 H2638 0.960 . S
C2652 H2639 0.960 . S
C2652 C2651 1.524 . S
C2653 C2650 1.403 . S
C2653 C2654 1.392 . S
C2653 C2657 1.495 . S
C2654 C2653 1.392 . S
C2654 C2655 1.385 . S
C2654 C2656 1.478 . S
C2655 H2649 0.930 . S
C2655 C2651 1.400 . S
C2655 C2654 1.385 . S
C2656 C2654 1.478 . S
C2656 C2658 1.381 . S
C2656 C2662 1.383 . S
C2657 C2653 1.495 . S
C2657 H2663 0.959 . S
C2657 H2664 0.961 . S
C2657 H2665 0.960 . S
C2658 C2656 1.381 . S
C2658 C2659 1.394 . S
C2658 H2666 0.930 . S
C2659 C2658 1.394 . S
C2659 C2660 1.383 . S
C2659 H2667 0.929 . S
C2660 C2659 1.383 . S
C2660 C2661 1.377 . S
C2661 H2645 0.930 . S
C2661 C2660 1.377 . S
C2661 C2662 1.379 . S
C2662 H2646 0.931 . S
C2662 C2656 1.383 . S
C2662 C2661 1.379 . S
H2663 C2657 0.959 . S
H2664 C2657 0.961 . S
H2665 C2657 0.960 . S
H2666 C2658 0.930 . S
H2667 C2659 0.929 . S
H2668 C2676 0.929 . S
H2669 C2678 0.930 . S
H2670 C2680 0.930 . S
H2671 C2683 0.929 . S
H2672 C2686 0.930 . S
H2673 C2688 0.960 . S
H2674 C2688 0.960 . S
H2675 C2688 0.960 . S
C2676 H2668 0.929 . S
C2676 C2677 1.377 . S
C2676 C2678 1.384 . S
C2677 C2676 1.377 . S
C2677 C2683 1.390 . S
C2678 H2669 0.930 . S
C2678 C2676 1.384 . S
C2678 C2679 1.372 . S
C2679 C2678 1.372 . S
C2679 C2680 1.400 . S
C2679 C2684 1.490 . S
C2680 H2670 0.930 . S
C2680 C2679 1.400 . S
C2680 C2683 1.386 . S
H2681 C2697 0.930 . S
H2682 C2698 0.931 . S
C2683 H2671 0.929 . S
C2683 C2677 1.390 . S
C2683 C2680 1.386 . S
C2684 C2679 1.490 . S
C2684 C2686 1.395 . S
C2684 C2687 1.403 . S
H2685 C2691 0.930 . S
C2686 H2672 0.930 . S
C2686 C2684 1.395 . S
C2686 C2689 1.403 . S
C2687 C2684 1.403 . S
C2687 C2688 1.524 . S
C2687 C2691 1.400 . S
C2688 H2673 0.960 . S
C2688 H2674 0.960 . S
C2688 H2675 0.960 . S
C2688 C2687 1.524 . S
C2689 C2686 1.403 . S
C2689 C2690 1.392 . S
C2689 C2693 1.495 . S
C2690 C2689 1.392 . S
C2690 C2691 1.385 . S
C2690 C2692 1.478 . S
C2691 H2685 0.930 . S
C2691 C2687 1.400 . S
C2691 C2690 1.385 . S
C2692 C2690 1.478 . S
C2692 C2694 1.381 . S
C2692 C2698 1.383 . S
C2693 C2689 1.495 . S
C2693 H2699 0.959 . S
C2693 H2700 0.961 . S
C2693 H2701 0.960 . S
C2694 C2692 1.381 . S
C2694 C2695 1.394 . S
C2694 H2702 0.930 . S
C2695 C2694 1.394 . S
C2695 C2696 1.383 . S
C2695 H2703 0.929 . S
C2696 C2695 1.383 . S
C2696 C2697 1.377 . S
C2697 H2681 0.930 . S
C2697 C2696 1.377 . S
C2697 C2698 1.379 . S
C2698 H2682 0.931 . S
C2698 C2692 1.383 . S
C2698 C2697 1.379 . S
H2699 C2693 0.959 . S
H2700 C2693 0.961 . S
H2701 C2693 0.960 . S
H2702 C2694 0.930 . S
H2703 C2695 0.929 . S
H2704 C2712 0.929 . S
H2705 C2714 0.930 . S
H2706 C2716 0.930 . S
H2707 C2719 0.929 . S
H2708 C2722 0.930 . S
H2709 C2724 0.960 . S
H2710 C2724 0.960 . S
H2711 C2724 0.960 . S
C2712 H2704 0.929 . S
C2712 C2713 1.377 . S
C2712 C2714 1.384 . S
C2713 C2712 1.377 . S
C2713 C2719 1.390 . S
C2714 H2705 0.930 . S
C2714 C2712 1.384 . S
C2714 C2715 1.372 . S
C2715 C2714 1.372 . S
C2715 C2716 1.400 . S
C2715 C2720 1.490 . S
C2716 H2706 0.930 . S
C2716 C2715 1.400 . S
C2716 C2719 1.386 . S
H2717 C2733 0.930 . S
H2718 C2734 0.931 . S
C2719 H2707 0.929 . S
C2719 C2713 1.390 . S
C2719 C2716 1.386 . S
C2720 C2715 1.490 . S
C2720 C2722 1.395 . S
C2720 C2723 1.403 . S
H2721 C2727 0.930 . S
C2722 H2708 0.930 . S
C2722 C2720 1.395 . S
C2722 C2725 1.403 . S
C2723 C2720 1.403 . S
C2723 C2724 1.524 . S
C2723 C2727 1.400 . S
C2724 H2709 0.960 . S
C2724 H2710 0.960 . S
C2724 H2711 0.960 . S
C2724 C2723 1.524 . S
C2725 C2722 1.403 . S
C2725 C2726 1.392 . S
C2725 C2729 1.495 . S
C2726 C2725 1.392 . S
C2726 C2727 1.385 . S
C2726 C2728 1.478 . S
C2727 H2721 0.930 . S
C2727 C2723 1.400 . S
C2727 C2726 1.385 . S
C2728 C2726 1.478 . S
C2728 C2730 1.381 . S
C2728 C2734 1.383 . S
C2729 C2725 1.495 . S
C2729 H2735 0.959 . S
C2729 H2736 0.961 . S
C2729 H2737 0.960 . S
C2730 C2728 1.381 . S
C2730 C2731 1.394 . S
C2730 H2738 0.930 . S
C2731 C2730 1.394 . S
C2731 C2732 1.383 . S
C2731 H2739 0.929 . S
C2732 C2731 1.383 . S
C2732 C2733 1.377 . S
C2733 H2717 0.930 . S
C2733 C2732 1.377 . S
C2733 C2734 1.379 . S
C2734 H2718 0.931 . S
C2734 C2728 1.383 . S
C2734 C2733 1.379 . S
H2735 C2729 0.959 . S
H2736 C2729 0.961 . S
H2737 C2729 0.960 . S
H2738 C2730 0.930 . S
H2739 C2731 0.929 . S
H2740 C2748 0.929 . S
H2741 C2750 0.930 . S
H2742 C2752 0.930 . S
H2743 C2755 0.929 . S
H2744 C2758 0.930 . S
H2745 C2760 0.960 . S
H2746 C2760 0.960 . S
H2747 C2760 0.960 . S
C2748 H2740 0.929 . S
C2748 C2749 1.377 . S
C2748 C2750 1.384 . S
C2749 C2748 1.377 . S
C2749 C2755 1.390 . S
C2750 H2741 0.930 . S
C2750 C2748 1.384 . S
C2750 C2751 1.372 . S
C2751 C2750 1.372 . S
C2751 C2752 1.400 . S
C2751 C2756 1.490 . S
C2752 H2742 0.930 . S
C2752 C2751 1.400 . S
C2752 C2755 1.386 . S
H2753 C2769 0.930 . S
H2754 C2770 0.931 . S
C2755 H2743 0.929 . S
C2755 C2749 1.390 . S
C2755 C2752 1.386 . S
C2756 C2751 1.490 . S
C2756 C2758 1.395 . S
C2756 C2759 1.403 . S
H2757 C2763 0.930 . S
C2758 H2744 0.930 . S
C2758 C2756 1.395 . S
C2758 C2761 1.403 . S
C2759 C2756 1.403 . S
C2759 C2760 1.524 . S
C2759 C2763 1.400 . S
C2760 H2745 0.960 . S
C2760 H2746 0.960 . S
C2760 H2747 0.960 . S
C2760 C2759 1.524 . S
C2761 C2758 1.403 . S
C2761 C2762 1.392 . S
C2761 C2765 1.495 . S
C2762 C2761 1.392 . S
C2762 C2763 1.385 . S
C2762 C2764 1.478 . S
C2763 H2757 0.930 . S
C2763 C2759 1.400 . S
C2763 C2762 1.385 . S
C2764 C2762 1.478 . S
C2764 C2766 1.381 . S
C2764 C2770 1.383 . S
C2765 C2761 1.495 . S
C2765 H2771 0.959 . S
C2765 H2772 0.961 . S
C2765 H2773 0.960 . S
C2766 C2764 1.381 . S
C2766 C2767 1.394 . S
C2766 H2774 0.930 . S
C2767 C2766 1.394 . S
C2767 C2768 1.383 . S
C2767 H2775 0.929 . S
C2768 C2767 1.383 . S
C2768 C2769 1.377 . S
C2769 H2753 0.930 . S
C2769 C2768 1.377 . S
C2769 C2770 1.379 . S
C2770 H2754 0.931 . S
C2770 C2764 1.383 . S
C2770 C2769 1.379 . S
H2771 C2765 0.959 . S
H2772 C2765 0.961 . S
H2773 C2765 0.960 . S
H2774 C2766 0.930 . S
H2775 C2767 0.929 . S
H2776 C2784 0.929 . S
H2777 C2786 0.930 . S
H2778 C2788 0.930 . S
H2779 C2791 0.929 . S
H2780 C2794 0.930 . S
H2781 C2796 0.960 . S
H2782 C2796 0.960 1_655 S
H2783 C2796 0.960 . S
C2784 H2776 0.929 . S
C2784 C2785 1.377 . S
C2784 C2786 1.384 . S
C2785 C2784 1.377 . S
C2785 C2791 1.390 . S
C2786 H2777 0.930 . S
C2786 C2784 1.384 . S
C2786 C2787 1.372 . S
C2787 C2786 1.372 . S
C2787 C2788 1.400 . S
C2787 C2792 1.490 . S
C2788 H2778 0.930 . S
C2788 C2787 1.400 . S
C2788 C2791 1.386 . S
H2789 C2805 0.930 . S
H2790 C2806 0.947 . S
C2791 H2779 0.929 . S
C2791 C2785 1.390 . S
C2791 C2788 1.386 . S
C2792 C2787 1.490 . S
C2792 C2794 1.395 . S
C2792 C2795 1.403 . S
H2793 C2799 0.930 . S
C2794 H2780 0.930 . S
C2794 C2792 1.395 . S
C2794 C2797 1.424 . S
C2795 C2792 1.403 . S
C2795 C2796 1.524 . S
C2795 C2799 1.400 . S
C2796 H2781 0.960 . S
C2796 H2782 0.960 1_455 S
C2796 H2783 0.960 . S
C2796 C2795 1.524 . S
C2797 C2794 1.424 . S
C2797 C2798 1.408 . S
C2797 C2801 1.461 1_556 S
C2798 C2797 1.408 . S
C2798 C2799 1.385 . S
C2798 C2800 1.478 1_556 S
C2799 H2793 0.930 . S
C2799 C2795 1.400 . S
C2799 C2798 1.385 . S
C2800 C2798 1.478 1_554 S
C2800 C2802 1.381 . S
C2800 C2806 1.375 1_554 S
C2801 C2797 1.461 1_554 S
C2801 H2807 0.959 . S
C2801 H2808 0.961 . S
C2801 H2809 0.960 . S
C2802 C2800 1.381 . S
C2802 C2803 1.394 . S
C2802 H2810 0.930 . S
C2803 C2802 1.394 . S
C2803 C2804 1.383 . S
C2803 H2811 0.929 . S
C2804 C2803 1.383 . S
C2804 C2805 1.377 . S
C2805 H2789 0.930 . S
C2805 C2804 1.377 . S
C2805 C2806 1.372 1_554 S
C2806 H2790 0.947 . S
C2806 C2800 1.375 1_556 S
C2806 C2805 1.372 1_556 S
H2807 C2801 0.959 . S
H2808 C2801 0.961 . S
H2809 C2801 0.960 . S
H2810 C2802 0.930 . S
H2811 C2803 0.929 . S
H2812 C2820 0.929 . S
H2813 C2822 0.930 . S
H2814 C2824 0.930 . S
H2815 C2827 0.929 . S
H2816 C2830 0.930 . S
H2817 C2832 0.960 . S
H2818 C2832 0.960 . S
H2819 C2832 0.960 . S
C2820 H2812 0.929 . S
C2820 C2821 1.377 . S
C2820 C2822 1.384 . S
C2821 C2820 1.377 . S
C2821 C2827 1.390 . S
C2822 H2813 0.930 . S
C2822 C2820 1.384 . S
C2822 C2823 1.372 . S
C2823 C2822 1.372 . S
C2823 C2824 1.400 . S
C2823 C2828 1.490 . S
C2824 H2814 0.930 . S
C2824 C2823 1.400 . S
C2824 C2827 1.386 . S
H2825 C2841 0.930 . S
H2826 C2842 0.931 . S
C2827 H2815 0.929 . S
C2827 C2821 1.390 . S
C2827 C2824 1.386 . S
C2828 C2823 1.490 . S
C2828 C2830 1.395 . S
C2828 C2831 1.403 . S
H2829 C2835 0.930 . S
C2830 H2816 0.930 . S
C2830 C2828 1.395 . S
C2830 C2833 1.403 . S
C2831 C2828 1.403 . S
C2831 C2832 1.524 . S
C2831 C2835 1.400 . S
C2832 H2817 0.960 . S
C2832 H2818 0.960 . S
C2832 H2819 0.960 . S
C2832 C2831 1.524 . S
C2833 C2830 1.403 . S
C2833 C2834 1.392 . S
C2833 C2837 1.495 . S
C2834 C2833 1.392 . S
C2834 C2835 1.385 . S
C2834 C2836 1.478 . S
C2835 H2829 0.930 . S
C2835 C2831 1.400 . S
C2835 C2834 1.385 . S
C2836 C2834 1.478 . S
C2836 C2838 1.381 . S
C2836 C2842 1.383 . S
C2837 C2833 1.495 . S
C2837 H2843 0.959 . S
C2837 H2844 0.961 . S
C2837 H2845 0.960 . S
C2838 C2836 1.381 . S
C2838 C2839 1.394 . S
C2838 H2846 0.930 . S
C2839 C2838 1.394 . S
C2839 C2840 1.383 . S
C2839 H2847 0.929 . S
C2840 C2839 1.383 . S
C2840 C2841 1.377 . S
C2841 H2825 0.930 . S
C2841 C2840 1.377 . S
C2841 C2842 1.379 . S
C2842 H2826 0.931 . S
C2842 C2836 1.383 . S
C2842 C2841 1.379 . S
H2843 C2837 0.959 . S
H2844 C2837 0.961 . S
H2845 C2837 0.960 . S
H2846 C2838 0.930 . S
H2847 C2839 0.929 . S
H2848 C2856 0.929 . S
H2849 C2858 0.930 . S
H2850 C2860 0.930 . S
H2851 C2863 0.929 . S
H2852 C2866 0.930 . S
H2853 C2868 0.960 . S
H2854 C2868 0.960 . S
H2855 C2868 0.960 . S
C2856 H2848 0.929 . S
C2856 C2857 1.377 . S
C2856 C2858 1.384 . S
C2857 C2856 1.377 . S
C2857 C2863 1.390 . S
C2858 H2849 0.930 . S
C2858 C2856 1.384 . S
C2858 C2859 1.372 . S
C2859 C2858 1.372 . S
C2859 C2860 1.400 . S
C2859 C2864 1.490 . S
C2860 H2850 0.930 . S
C2860 C2859 1.400 . S
C2860 C2863 1.386 . S
H2861 C2877 0.930 . S
H2862 C2878 0.931 . S
C2863 H2851 0.929 . S
C2863 C2857 1.390 . S
C2863 C2860 1.386 . S
C2864 C2859 1.490 . S
C2864 C2866 1.395 . S
C2864 C2867 1.403 . S
H2865 C2871 0.930 . S
C2866 H2852 0.930 . S
C2866 C2864 1.395 . S
C2866 C2869 1.403 . S
C2867 C2864 1.403 . S
C2867 C2868 1.524 . S
C2867 C2871 1.400 . S
C2868 H2853 0.960 . S
C2868 H2854 0.960 . S
C2868 H2855 0.960 . S
C2868 C2867 1.524 . S
C2869 C2866 1.403 . S
C2869 C2870 1.392 . S
C2869 C2873 1.495 . S
C2870 C2869 1.392 . S
C2870 C2871 1.385 . S
C2870 C2872 1.478 . S
C2871 H2865 0.930 . S
C2871 C2867 1.400 . S
C2871 C2870 1.385 . S
C2872 C2870 1.478 . S
C2872 C2874 1.381 . S
C2872 C2878 1.383 . S
C2873 C2869 1.495 . S
C2873 H2879 0.959 . S
C2873 H2880 0.961 . S
C2873 H2881 0.960 . S
C2874 C2872 1.381 . S
C2874 C2875 1.394 . S
C2874 H2882 0.930 . S
C2875 C2874 1.394 . S
C2875 C2876 1.383 . S
C2875 H2883 0.929 . S
C2876 C2875 1.383 . S
C2876 C2877 1.377 . S
C2877 H2861 0.930 . S
C2877 C2876 1.377 . S
C2877 C2878 1.379 . S
C2878 H2862 0.931 . S
C2878 C2872 1.383 . S
C2878 C2877 1.379 . S
H2879 C2873 0.959 . S
H2880 C2873 0.961 . S
H2881 C2873 0.960 . S
H2882 C2874 0.930 . S
H2883 C2875 0.929 . S
H2884 C2892 0.929 . S
H2885 C2894 0.930 . S
H2886 C2896 0.930 . S
H2887 C2899 0.929 . S
H2888 C2902 0.930 . S
H2889 C2904 0.960 . S
H2890 C2904 0.960 . S
H2891 C2904 0.960 . S
C2892 H2884 0.929 . S
C2892 C2893 1.377 1_655 S
C2892 C2894 1.384 . S
C2893 C2892 1.377 1_455 S
C2893 C2899 1.390 . S
C2894 H2885 0.930 . S
C2894 C2892 1.384 . S
C2894 C2895 1.372 . S
C2895 C2894 1.372 . S
C2895 C2896 1.400 . S
C2895 C2900 1.490 . S
C2896 H2886 0.930 . S
C2896 C2895 1.400 . S
C2896 C2899 1.386 1_655 S
H2897 C2913 0.930 . S
H2898 C2914 0.931 . S
C2899 H2887 0.929 . S
C2899 C2893 1.390 . S
C2899 C2896 1.386 1_455 S
C2900 C2895 1.490 . S
C2900 C2902 1.395 . S
C2900 C2903 1.403 . S
H2901 C2907 0.930 . S
C2902 H2888 0.930 . S
C2902 C2900 1.395 . S
C2902 C2905 1.403 . S
C2903 C2900 1.403 . S
C2903 C2904 1.524 . S
C2903 C2907 1.400 . S
C2904 H2889 0.960 . S
C2904 H2890 0.960 . S
C2904 H2891 0.960 . S
C2904 C2903 1.524 . S
C2905 C2902 1.403 . S
C2905 C2906 1.392 . S
C2905 C2909 1.495 . S
C2906 C2905 1.392 . S
C2906 C2907 1.385 . S
C2906 C2908 1.478 . S
C2907 H2901 0.930 . S
C2907 C2903 1.400 . S
C2907 C2906 1.385 . S
C2908 C2906 1.478 . S
C2908 C2910 1.381 . S
C2908 C2914 1.383 . S
C2909 C2905 1.495 . S
C2909 H2915 0.959 . S
C2909 H2916 0.961 . S
C2909 H2917 0.960 . S
C2910 C2908 1.381 . S
C2910 C2911 1.394 . S
C2910 H2918 0.930 . S
C2911 C2910 1.394 . S
C2911 C2912 1.383 . S
C2911 H2919 0.929 . S
C2912 C2911 1.383 . S
C2912 C2913 1.377 . S
C2913 H2897 0.930 . S
C2913 C2912 1.377 . S
C2913 C2914 1.379 . S
C2914 H2898 0.931 . S
C2914 C2908 1.383 . S
C2914 C2913 1.379 . S
H2915 C2909 0.959 . S
H2916 C2909 0.961 . S
H2917 C2909 0.960 . S
H2918 C2910 0.930 . S
H2919 C2911 0.929 . S
H2920 C2928 0.929 . S
H2921 C2930 0.930 . S
H2922 C2932 0.930 . S
H2923 C2935 0.929 . S
H2924 C2938 0.930 . S
H2925 C2940 0.960 . S
H2926 C2940 0.960 . S
H2927 C2940 0.960 . S
C2928 H2920 0.929 . S
C2928 C2929 1.377 . S
C2928 C2930 1.384 . S
C2929 C2928 1.377 . S
C2929 C2935 1.390 1_655 S
C2930 H2921 0.930 . S
C2930 C2928 1.384 . S
C2930 C2931 1.372 . S
C2931 C2930 1.372 . S
C2931 C2932 1.400 1_655 S
C2931 C2936 1.480 1_655 S
C2932 H2922 0.930 . S
C2932 C2931 1.400 1_455 S
C2932 C2935 1.386 . S
H2933 C2949 0.930 . S
H2934 C2950 0.931 . S
C2935 H2923 0.929 . S
C2935 C2929 1.390 1_455 S
C2935 C2932 1.386 . S
C2936 C2931 1.480 1_455 S
C2936 C2938 1.408 . S
C2936 C2939 1.400 1_455 S
H2937 C2943 0.933 . S
C2938 H2924 0.930 . S
C2938 C2936 1.408 . S
C2938 C2941 1.403 . S
C2939 C2936 1.400 1_655 S
C2939 C2940 1.524 . S
C2939 C2943 1.410 . S
C2940 H2925 0.960 . S
C2940 H2926 0.960 . S
C2940 H2927 0.960 . S
C2940 C2939 1.524 . S
C2941 C2938 1.403 . S
C2941 C2942 1.392 . S
C2941 C2945 1.495 . S
C2942 C2941 1.392 . S
C2942 C2943 1.373 1_455 S
C2942 C2944 1.478 . S
C2943 H2937 0.933 . S
C2943 C2939 1.410 . S
C2943 C2942 1.373 1_655 S
C2944 C2942 1.478 . S
C2944 C2946 1.358 1_455 S
C2944 C2950 1.383 . S
C2945 C2941 1.495 . S
C2945 H2951 0.959 . S
C2945 H2952 0.961 . S
C2945 H2953 0.960 . S
C2946 C2944 1.358 1_655 S
C2946 C2947 1.358 1_655 S
C2946 H2954 0.978 . S
C2947 C2946 1.358 1_455 S
C2947 C2948 1.426 . S
C2947 H2955 0.908 1_455 S
C2948 C2947 1.426 . S
C2948 C2949 1.377 . S
C2949 H2933 0.930 . S
C2949 C2948 1.377 . S
C2949 C2950 1.379 . S
C2950 H2934 0.931 . S
C2950 C2944 1.383 . S
C2950 C2949 1.379 . S
H2951 C2945 0.959 . S
H2952 C2945 0.961 . S
H2953 C2945 0.960 . S
H2954 C2946 0.978 . S
H2955 C2947 0.908 1_655 S
H2956 C2964 0.929 . S
H2957 C2966 0.930 . S
H2958 C2968 0.930 . S
H2959 C2971 0.929 . S
H2960 C2974 0.930 . S
H2961 C2976 0.960 . S
H2962 C2976 0.960 . S
H2963 C2976 0.960 . S
C2964 H2956 0.929 . S
C2964 C2965 1.377 . S
C2964 C2966 1.384 . S
C2965 C2964 1.377 . S
C2965 C2971 1.390 . S
C2966 H2957 0.930 . S
C2966 C2964 1.384 . S
C2966 C2967 1.372 . S
C2967 C2966 1.372 . S
C2967 C2968 1.400 . S
C2967 C2972 1.490 . S
C2968 H2958 0.930 . S
C2968 C2967 1.400 . S
C2968 C2971 1.386 . S
H2969 C2985 0.930 . S
H2970 C2986 0.931 . S
C2971 H2959 0.929 . S
C2971 C2965 1.390 . S
C2971 C2968 1.386 . S
C2972 C2967 1.490 . S
C2972 C2974 1.395 . S
C2972 C2975 1.403 . S
H2973 C2979 0.930 . S
C2974 H2960 0.930 . S
C2974 C2972 1.395 . S
C2974 C2977 1.403 . S
C2975 C2972 1.403 . S
C2975 C2976 1.524 . S
C2975 C2979 1.400 . S
C2976 H2961 0.960 . S
C2976 H2962 0.960 . S
C2976 H2963 0.960 . S
C2976 C2975 1.524 . S
C2977 C2974 1.403 . S
C2977 C2978 1.392 . S
C2977 C2981 1.495 . S
C2978 C2977 1.392 . S
C2978 C2979 1.385 . S
C2978 C2980 1.478 . S
C2979 H2973 0.930 . S
C2979 C2975 1.400 . S
C2979 C2978 1.385 . S
C2980 C2978 1.478 . S
C2980 C2982 1.381 . S
C2980 C2986 1.383 . S
C2981 C2977 1.495 . S
C2981 H2987 0.959 . S
C2981 H2988 0.961 . S
C2981 H2989 0.960 . S
C2982 C2980 1.381 . S
C2982 C2983 1.394 . S
C2982 H2990 0.930 . S
C2983 C2982 1.394 . S
C2983 C2984 1.383 . S
C2983 H2991 0.929 . S
C2984 C2983 1.383 . S
C2984 C2985 1.377 . S
C2985 H2969 0.930 . S
C2985 C2984 1.377 . S
C2985 C2986 1.379 . S
C2986 H2970 0.931 . S
C2986 C2980 1.383 . S
C2986 C2985 1.379 . S
H2987 C2981 0.959 . S
H2988 C2981 0.961 . S
H2989 C2981 0.960 . S
H2990 C2982 0.930 . S
H2991 C2983 0.929 . S
H2992 C3000 0.929 . S
H2993 C3002 0.930 . S
H2994 C3004 0.930 . S
H2995 C3007 0.929 . S
H2996 C3010 0.930 . S
H2997 C3012 0.960 . S
H2998 C3012 0.960 . S
H2999 C3012 0.960 . S
C3000 H2992 0.929 . S
C3000 C3001 1.377 . S
C3000 C3002 1.384 . S
C3001 C3000 1.377 . S
C3001 C3007 1.390 . S
C3002 H2993 0.930 . S
C3002 C3000 1.384 . S
C3002 C3003 1.372 . S
C3003 C3002 1.372 . S
C3003 C3004 1.400 . S
C3003 C3008 1.490 . S
C3004 H2994 0.930 . S
C3004 C3003 1.400 . S
C3004 C3007 1.386 . S
H3005 C3021 0.930 . S
H3006 C3022 0.931 . S
C3007 H2995 0.929 . S
C3007 C3001 1.390 . S
C3007 C3004 1.386 . S
C3008 C3003 1.490 . S
C3008 C3010 1.395 . S
C3008 C3011 1.403 . S
H3009 C3015 0.930 . S
C3010 H2996 0.930 . S
C3010 C3008 1.395 . S
C3010 C3013 1.403 . S
C3011 C3008 1.403 . S
C3011 C3012 1.524 . S
C3011 C3015 1.400 . S
C3012 H2997 0.960 . S
C3012 H2998 0.960 . S
C3012 H2999 0.960 . S
C3012 C3011 1.524 . S
C3013 C3010 1.403 . S
C3013 C3014 1.392 . S
C3013 C3017 1.495 . S
C3014 C3013 1.392 . S
C3014 C3015 1.385 . S
C3014 C3016 1.478 . S
C3015 H3009 0.930 . S
C3015 C3011 1.400 . S
C3015 C3014 1.385 . S
C3016 C3014 1.478 . S
C3016 C3018 1.381 . S
C3016 C3022 1.383 . S
C3017 C3013 1.495 . S
C3017 H3023 0.959 . S
C3017 H3024 0.961 . S
C3017 H3025 0.960 . S
C3018 C3016 1.381 . S
C3018 C3019 1.394 . S
C3018 H3026 0.930 . S
C3019 C3018 1.394 . S
C3019 C3020 1.383 . S
C3019 H3027 0.929 . S
C3020 C3019 1.383 . S
C3020 C3021 1.377 . S
C3021 H3005 0.930 . S
C3021 C3020 1.377 . S
C3021 C3022 1.379 . S
C3022 H3006 0.931 . S
C3022 C3016 1.383 . S
C3022 C3021 1.379 . S
H3023 C3017 0.959 . S
H3024 C3017 0.961 . S
H3025 C3017 0.960 . S
H3026 C3018 0.930 . S
H3027 C3019 0.929 . S
H3028 C3036 0.929 . S
H3029 C3038 0.930 . S
H3030 C3040 0.930 . S
H3031 C3043 0.929 . S
H3032 C3046 0.930 . S
H3033 C3048 0.960 . S
H3034 C3048 0.960 . S
H3035 C3048 0.960 . S
C3036 H3028 0.929 . S
C3036 C3037 1.377 . S
C3036 C3038 1.384 . S
C3037 C3036 1.377 . S
C3037 C3043 1.390 . S
C3038 H3029 0.930 . S
C3038 C3036 1.384 . S
C3038 C3039 1.372 . S
C3039 C3038 1.372 . S
C3039 C3040 1.400 . S
C3039 C3044 1.490 . S
C3040 H3030 0.930 . S
C3040 C3039 1.400 . S
C3040 C3043 1.386 . S
H3041 C3057 0.930 . S
H3042 C3058 0.931 . S
C3043 H3031 0.929 . S
C3043 C3037 1.390 . S
C3043 C3040 1.386 . S
C3044 C3039 1.490 . S
C3044 C3046 1.395 . S
C3044 C3047 1.403 . S
H3045 C3051 0.930 . S
C3046 H3032 0.930 . S
C3046 C3044 1.395 . S
C3046 C3049 1.403 . S
C3047 C3044 1.403 . S
C3047 C3048 1.524 . S
C3047 C3051 1.400 . S
C3048 H3033 0.960 . S
C3048 H3034 0.960 . S
C3048 H3035 0.960 . S
C3048 C3047 1.524 . S
C3049 C3046 1.403 . S
C3049 C3050 1.392 . S
C3049 C3053 1.495 . S
C3050 C3049 1.392 . S
C3050 C3051 1.385 . S
C3050 C3052 1.478 . S
C3051 H3045 0.930 . S
C3051 C3047 1.400 . S
C3051 C3050 1.385 . S
C3052 C3050 1.478 . S
C3052 C3054 1.381 . S
C3052 C3058 1.383 . S
C3053 C3049 1.495 . S
C3053 H3059 0.959 . S
C3053 H3060 0.961 . S
C3053 H3061 0.960 . S
C3054 C3052 1.381 . S
C3054 C3055 1.394 . S
C3054 H3062 0.930 . S
C3055 C3054 1.394 . S
C3055 C3056 1.383 . S
C3055 H3063 0.929 . S
C3056 C3055 1.383 . S
C3056 C3057 1.377 . S
C3057 H3041 0.930 . S
C3057 C3056 1.377 . S
C3057 C3058 1.379 . S
C3058 H3042 0.931 . S
C3058 C3052 1.383 . S
C3058 C3057 1.379 . S
H3059 C3053 0.959 . S
H3060 C3053 0.961 . S
H3061 C3053 0.960 . S
H3062 C3054 0.930 . S
H3063 C3055 0.929 . S
H3064 C3072 0.929 . S
H3065 C3074 0.930 . S
H3066 C3076 0.930 . S
H3067 C3079 0.929 . S
H3068 C3082 0.930 . S
H3069 C3084 0.960 . S
H3070 C3084 0.960 . S
H3071 C3084 0.960 . S
C3072 H3064 0.929 . S
C3072 C3073 1.377 . S
C3072 C3074 1.384 . S
C3073 C3072 1.377 . S
C3073 C3079 1.390 . S
C3074 H3065 0.930 . S
C3074 C3072 1.384 . S
C3074 C3075 1.372 . S
C3075 C3074 1.372 . S
C3075 C3076 1.400 . S
C3075 C3080 1.490 . S
C3076 H3066 0.930 . S
C3076 C3075 1.400 . S
C3076 C3079 1.386 . S
H3077 C3093 0.930 . S
H3078 C3094 0.931 . S
C3079 H3067 0.929 . S
C3079 C3073 1.390 . S
C3079 C3076 1.386 . S
C3080 C3075 1.490 . S
C3080 C3082 1.395 . S
C3080 C3083 1.403 . S
H3081 C3087 0.930 . S
C3082 H3068 0.930 . S
C3082 C3080 1.395 . S
C3082 C3085 1.403 . S
C3083 C3080 1.403 . S
C3083 C3084 1.524 . S
C3083 C3087 1.400 . S
C3084 H3069 0.960 . S
C3084 H3070 0.960 . S
C3084 H3071 0.960 . S
C3084 C3083 1.524 . S
C3085 C3082 1.403 . S
C3085 C3086 1.392 . S
C3085 C3089 1.495 . S
C3086 C3085 1.392 . S
C3086 C3087 1.385 . S
C3086 C3088 1.478 . S
C3087 H3081 0.930 . S
C3087 C3083 1.400 . S
C3087 C3086 1.385 . S
C3088 C3086 1.478 . S
C3088 C3090 1.381 . S
C3088 C3094 1.383 . S
C3089 C3085 1.495 . S
C3089 H3095 0.959 . S
C3089 H3096 0.961 . S
C3089 H3097 0.960 . S
C3090 C3088 1.381 . S
C3090 C3091 1.394 . S
C3090 H3098 0.930 . S
C3091 C3090 1.394 . S
C3091 C3092 1.383 . S
C3091 H3099 0.929 . S
C3092 C3091 1.383 . S
C3092 C3093 1.377 . S
C3093 H3077 0.930 . S
C3093 C3092 1.377 . S
C3093 C3094 1.379 . S
C3094 H3078 0.931 . S
C3094 C3088 1.383 . S
C3094 C3093 1.379 . S
H3095 C3089 0.959 . S
H3096 C3089 0.961 . S
H3097 C3089 0.960 . S
H3098 C3090 0.930 . S
H3099 C3091 0.929 . S
H3100 C3108 0.929 . S
H3101 C3110 0.930 . S
H3102 C3112 0.930 . S
H3103 C3115 0.929 . S
H3104 C3118 0.930 . S
H3105 C3120 0.960 . S
H3106 C3120 0.960 . S
H3107 C3120 0.960 . S
C3108 H3100 0.929 . S
C3108 C3109 1.377 . S
C3108 C3110 1.384 . S
C3109 C3108 1.377 . S
C3109 C3115 1.390 . S
C3110 H3101 0.930 . S
C3110 C3108 1.384 . S
C3110 C3111 1.372 . S
C3111 C3110 1.372 . S
C3111 C3112 1.400 . S
C3111 C3116 1.490 . S
C3112 H3102 0.930 . S
C3112 C3111 1.400 . S
C3112 C3115 1.386 . S
H3113 C3129 0.930 . S
H3114 C3130 0.931 . S
C3115 H3103 0.929 . S
C3115 C3109 1.390 . S
C3115 C3112 1.386 . S
C3116 C3111 1.490 . S
C3116 C3118 1.395 . S
C3116 C3119 1.403 . S
H3117 C3123 0.930 . S
C3118 H3104 0.930 . S
C3118 C3116 1.395 . S
C3118 C3121 1.403 . S
C3119 C3116 1.403 . S
C3119 C3120 1.524 . S
C3119 C3123 1.400 . S
C3120 H3105 0.960 . S
C3120 H3106 0.960 . S
C3120 H3107 0.960 . S
C3120 C3119 1.524 . S
C3121 C3118 1.403 . S
C3121 C3122 1.392 . S
C3121 C3125 1.495 . S
C3122 C3121 1.392 . S
C3122 C3123 1.385 . S
C3122 C3124 1.478 . S
C3123 H3117 0.930 . S
C3123 C3119 1.400 . S
C3123 C3122 1.385 . S
C3124 C3122 1.478 . S
C3124 C3126 1.381 . S
C3124 C3130 1.383 . S
C3125 C3121 1.495 . S
C3125 H3131 0.959 . S
C3125 H3132 0.961 . S
C3125 H3133 0.960 . S
C3126 C3124 1.381 . S
C3126 C3127 1.394 . S
C3126 H3134 0.930 . S
C3127 C3126 1.394 . S
C3127 C3128 1.383 . S
C3127 H3135 0.929 . S
C3128 C3127 1.383 . S
C3128 C3129 1.377 . S
C3129 H3113 0.930 . S
C3129 C3128 1.377 . S
C3129 C3130 1.379 . S
C3130 H3114 0.931 . S
C3130 C3124 1.383 . S
C3130 C3129 1.379 . S
H3131 C3125 0.959 . S
H3132 C3125 0.961 . S
H3133 C3125 0.960 . S
H3134 C3126 0.930 . S
H3135 C3127 0.929 . S
H3136 C3144 0.929 . S
H3137 C3146 0.930 . S
H3138 C3148 0.930 . S
H3139 C3151 0.929 . S
H3140 C3154 0.930 . S
H3141 C3156 0.960 . S
H3142 C3156 0.960 . S
H3143 C3156 0.960 . S
C3144 H3136 0.929 . S
C3144 C3145 1.377 . S
C3144 C3146 1.384 . S
C3145 C3144 1.377 . S
C3145 C3151 1.390 . S
C3146 H3137 0.930 . S
C3146 C3144 1.384 . S
C3146 C3147 1.372 . S
C3147 C3146 1.372 . S
C3147 C3148 1.400 . S
C3147 C3152 1.490 . S
C3148 H3138 0.930 . S
C3148 C3147 1.400 . S
C3148 C3151 1.386 . S
H3149 C3165 0.930 . S
H3150 C3166 0.931 . S
C3151 H3139 0.929 . S
C3151 C3145 1.390 . S
C3151 C3148 1.386 . S
C3152 C3147 1.490 . S
C3152 C3154 1.395 . S
C3152 C3155 1.403 . S
H3153 C3159 0.930 . S
C3154 H3140 0.930 . S
C3154 C3152 1.395 . S
C3154 C3157 1.403 . S
C3155 C3152 1.403 . S
C3155 C3156 1.524 . S
C3155 C3159 1.400 . S
C3156 H3141 0.960 . S
C3156 H3142 0.960 . S
C3156 H3143 0.960 . S
C3156 C3155 1.524 . S
C3157 C3154 1.403 . S
C3157 C3158 1.392 . S
C3157 C3161 1.495 . S
C3158 C3157 1.392 . S
C3158 C3159 1.385 . S
C3158 C3160 1.478 . S
C3159 H3153 0.930 . S
C3159 C3155 1.400 . S
C3159 C3158 1.385 . S
C3160 C3158 1.478 . S
C3160 C3162 1.381 . S
C3160 C3166 1.383 . S
C3161 C3157 1.495 . S
C3161 H3167 0.959 . S
C3161 H3168 0.961 . S
C3161 H3169 0.960 . S
C3162 C3160 1.381 . S
C3162 C3163 1.394 . S
C3162 H3170 0.930 . S
C3163 C3162 1.394 . S
C3163 C3164 1.383 . S
C3163 H3171 0.929 . S
C3164 C3163 1.383 . S
C3164 C3165 1.377 . S
C3165 H3149 0.930 . S
C3165 C3164 1.377 . S
C3165 C3166 1.379 . S
C3166 H3150 0.931 . S
C3166 C3160 1.383 . S
C3166 C3165 1.379 . S
H3167 C3161 0.959 . S
H3168 C3161 0.961 . S
H3169 C3161 0.960 . S
H3170 C3162 0.930 . S
H3171 C3163 0.929 . S
H3172 C3180 0.929 . S
H3173 C3182 0.930 . S
H3174 C3184 0.930 . S
H3175 C3187 0.929 . S
H3176 C3190 0.930 . S
H3177 C3192 0.960 . S
H3178 C3192 0.960 . S
H3179 C3192 0.960 . S
C3180 H3172 0.929 . S
C3180 C3181 1.377 . S
C3180 C3182 1.384 . S
C3181 C3180 1.377 . S
C3181 C3187 1.390 . S
C3182 H3173 0.930 . S
C3182 C3180 1.384 . S
C3182 C3183 1.372 . S
C3183 C3182 1.372 . S
C3183 C3184 1.400 . S
C3183 C3188 1.490 . S
C3184 H3174 0.930 . S
C3184 C3183 1.400 . S
C3184 C3187 1.386 . S
H3185 C3201 0.930 . S
H3186 C3202 0.931 . S
C3187 H3175 0.929 . S
C3187 C3181 1.390 . S
C3187 C3184 1.386 . S
C3188 C3183 1.490 . S
C3188 C3190 1.395 . S
C3188 C3191 1.403 . S
H3189 C3195 0.930 . S
C3190 H3176 0.930 . S
C3190 C3188 1.395 . S
C3190 C3193 1.403 . S
C3191 C3188 1.403 . S
C3191 C3192 1.524 . S
C3191 C3195 1.400 . S
C3192 H3177 0.960 . S
C3192 H3178 0.960 . S
C3192 H3179 0.960 . S
C3192 C3191 1.524 . S
C3193 C3190 1.403 . S
C3193 C3194 1.392 . S
C3193 C3197 1.495 . S
C3194 C3193 1.392 . S
C3194 C3195 1.385 . S
C3194 C3196 1.478 . S
C3195 H3189 0.930 . S
C3195 C3191 1.400 . S
C3195 C3194 1.385 . S
C3196 C3194 1.478 . S
C3196 C3198 1.381 . S
C3196 C3202 1.383 . S
C3197 C3193 1.495 . S
C3197 H3203 0.959 . S
C3197 H3204 0.961 . S
C3197 H3205 0.960 . S
C3198 C3196 1.381 . S
C3198 C3199 1.394 . S
C3198 H3206 0.930 . S
C3199 C3198 1.394 . S
C3199 C3200 1.383 . S
C3199 H3207 0.929 . S
C3200 C3199 1.383 . S
C3200 C3201 1.377 . S
C3201 H3185 0.930 . S
C3201 C3200 1.377 . S
C3201 C3202 1.379 . S
C3202 H3186 0.931 . S
C3202 C3196 1.383 . S
C3202 C3201 1.379 . S
H3203 C3197 0.959 . S
H3204 C3197 0.961 . S
H3205 C3197 0.960 . S
H3206 C3198 0.930 . S
H3207 C3199 0.929 . S
H3208 C3216 0.929 . S
H3209 C3218 0.930 . S
H3210 C3220 0.930 . S
H3211 C3223 0.929 . S
H3212 C3226 0.930 . S
H3213 C3228 0.960 . S
H3214 C3228 0.960 . S
H3215 C3228 0.960 . S
C3216 H3208 0.929 . S
C3216 C3217 1.377 . S
C3216 C3218 1.384 . S
C3217 C3216 1.377 . S
C3217 C3223 1.390 . S
C3218 H3209 0.930 . S
C3218 C3216 1.384 . S
C3218 C3219 1.372 . S
C3219 C3218 1.372 . S
C3219 C3220 1.400 . S
C3219 C3224 1.490 . S
C3220 H3210 0.930 . S
C3220 C3219 1.400 . S
C3220 C3223 1.386 . S
H3221 C3237 0.930 . S
H3222 C3238 0.931 . S
C3223 H3211 0.929 . S
C3223 C3217 1.390 . S
C3223 C3220 1.386 . S
C3224 C3219 1.490 . S
C3224 C3226 1.395 . S
C3224 C3227 1.403 . S
H3225 C3231 0.930 . S
C3226 H3212 0.930 . S
C3226 C3224 1.395 . S
C3226 C3229 1.403 . S
C3227 C3224 1.403 . S
C3227 C3228 1.524 . S
C3227 C3231 1.400 . S
C3228 H3213 0.960 . S
C3228 H3214 0.960 . S
C3228 H3215 0.960 . S
C3228 C3227 1.524 . S
C3229 C3226 1.403 . S
C3229 C3230 1.392 . S
C3229 C3233 1.495 . S
C3230 C3229 1.392 . S
C3230 C3231 1.385 . S
C3230 C3232 1.478 . S
C3231 H3225 0.930 . S
C3231 C3227 1.400 . S
C3231 C3230 1.385 . S
C3232 C3230 1.478 . S
C3232 C3234 1.381 . S
C3232 C3238 1.383 . S
C3233 C3229 1.495 . S
C3233 H3239 0.959 . S
C3233 H3240 0.961 . S
C3233 H3241 0.960 . S
C3234 C3232 1.381 . S
C3234 C3235 1.394 . S
C3234 H3242 0.930 . S
C3235 C3234 1.394 . S
C3235 C3236 1.383 . S
C3235 H3243 0.929 . S
C3236 C3235 1.383 . S
C3236 C3237 1.377 . S
C3237 H3221 0.930 . S
C3237 C3236 1.377 . S
C3237 C3238 1.379 . S
C3238 H3222 0.931 . S
C3238 C3232 1.383 . S
C3238 C3237 1.379 . S
H3239 C3233 0.959 . S
H3240 C3233 0.961 . S
H3241 C3233 0.960 . S
H3242 C3234 0.930 . S
H3243 C3235 0.929 . S
H3244 C3252 0.929 . S
H3245 C3254 0.930 . S
H3246 C3256 0.930 . S
H3247 C3259 0.929 . S
H3248 C3262 0.930 . S
H3249 C3264 0.960 . S
H3250 C3264 0.960 . S
H3251 C3264 0.960 . S
C3252 H3244 0.929 . S
C3252 C3253 1.377 . S
C3252 C3254 1.384 . S
C3253 C3252 1.377 . S
C3253 C3259 1.390 . S
C3254 H3245 0.930 . S
C3254 C3252 1.384 . S
C3254 C3255 1.372 . S
C3255 C3254 1.372 . S
C3255 C3256 1.400 . S
C3255 C3260 1.490 . S
C3256 H3246 0.930 . S
C3256 C3255 1.400 . S
C3256 C3259 1.386 . S
H3257 C3273 0.930 . S
H3258 C3274 0.931 . S
C3259 H3247 0.929 . S
C3259 C3253 1.390 . S
C3259 C3256 1.386 . S
C3260 C3255 1.490 . S
C3260 C3262 1.395 . S
C3260 C3263 1.403 . S
H3261 C3267 0.930 . S
C3262 H3248 0.930 . S
C3262 C3260 1.395 . S
C3262 C3265 1.403 . S
C3263 C3260 1.403 . S
C3263 C3264 1.524 . S
C3263 C3267 1.400 . S
C3264 H3249 0.960 . S
C3264 H3250 0.960 . S
C3264 H3251 0.960 . S
C3264 C3263 1.524 . S
C3265 C3262 1.403 . S
C3265 C3266 1.392 . S
C3265 C3269 1.495 . S
C3266 C3265 1.392 . S
C3266 C3267 1.385 . S
C3266 C3268 1.478 . S
C3267 H3261 0.930 . S
C3267 C3263 1.400 . S
C3267 C3266 1.385 . S
C3268 C3266 1.478 . S
C3268 C3270 1.381 . S
C3268 C3274 1.383 . S
C3269 C3265 1.495 . S
C3269 H3275 0.959 . S
C3269 H3276 0.961 . S
C3269 H3277 0.960 . S
C3270 C3268 1.381 . S
C3270 C3271 1.394 . S
C3270 H3278 0.930 . S
C3271 C3270 1.394 . S
C3271 C3272 1.383 . S
C3271 H3279 0.929 . S
C3272 C3271 1.383 . S
C3272 C3273 1.377 . S
C3273 H3257 0.930 . S
C3273 C3272 1.377 . S
C3273 C3274 1.379 . S
C3274 H3258 0.931 . S
C3274 C3268 1.383 . S
C3274 C3273 1.379 . S
H3275 C3269 0.959 . S
H3276 C3269 0.961 . S
H3277 C3269 0.960 . S
H3278 C3270 0.930 . S
H3279 C3271 0.929 . S
H3280 C3288 0.929 . S
H3281 C3290 0.930 . S
H3282 C3292 0.930 . S
H3283 C3295 0.929 . S
H3284 C3298 0.930 . S
H3285 C3300 0.960 . S
H3286 C3300 0.960 . S
H3287 C3300 0.960 . S
C3288 H3280 0.929 . S
C3288 C3289 1.377 . S
C3288 C3290 1.384 . S
C3289 C3288 1.377 . S
C3289 C3295 1.390 . S
C3290 H3281 0.930 . S
C3290 C3288 1.384 . S
C3290 C3291 1.372 . S
C3291 C3290 1.372 . S
C3291 C3292 1.400 . S
C3291 C3296 1.490 . S
C3292 H3282 0.930 . S
C3292 C3291 1.400 . S
C3292 C3295 1.386 . S
H3293 C3309 0.930 . S
H3294 C3310 0.931 . S
C3295 H3283 0.929 . S
C3295 C3289 1.390 . S
C3295 C3292 1.386 . S
C3296 C3291 1.490 . S
C3296 C3298 1.395 . S
C3296 C3299 1.403 . S
H3297 C3303 0.930 . S
C3298 H3284 0.930 . S
C3298 C3296 1.395 . S
C3298 C3301 1.403 . S
C3299 C3296 1.403 . S
C3299 C3300 1.524 . S
C3299 C3303 1.400 . S
C3300 H3285 0.960 . S
C3300 H3286 0.960 . S
C3300 H3287 0.960 . S
C3300 C3299 1.524 . S
C3301 C3298 1.403 . S
C3301 C3302 1.392 . S
C3301 C3305 1.495 . S
C3302 C3301 1.392 . S
C3302 C3303 1.385 . S
C3302 C3304 1.478 . S
C3303 H3297 0.930 . S
C3303 C3299 1.400 . S
C3303 C3302 1.385 . S
C3304 C3302 1.478 . S
C3304 C3306 1.381 . S
C3304 C3310 1.383 . S
C3305 C3301 1.495 . S
C3305 H3311 0.959 . S
C3305 H3312 0.961 . S
C3305 H3313 0.960 . S
C3306 C3304 1.381 . S
C3306 C3307 1.394 . S
C3306 H3314 0.930 . S
C3307 C3306 1.394 . S
C3307 C3308 1.383 . S
C3307 H3315 0.929 . S
C3308 C3307 1.383 . S
C3308 C3309 1.377 . S
C3309 H3293 0.930 . S
C3309 C3308 1.377 . S
C3309 C3310 1.379 . S
C3310 H3294 0.931 . S
C3310 C3304 1.383 . S
C3310 C3309 1.379 . S
H3311 C3305 0.959 . S
H3312 C3305 0.961 . S
H3313 C3305 0.960 . S
H3314 C3306 0.930 . S
H3315 C3307 0.929 . S
H3316 C3324 0.929 . S
H3317 C3326 0.930 . S
H3318 C3328 0.930 . S
H3319 C3331 0.929 . S
H3320 C3334 0.930 . S
H3321 C3336 0.960 . S
H3322 C3336 0.960 . S
H3323 C3336 0.960 . S
C3324 H3316 0.929 . S
C3324 C3325 1.377 . S
C3324 C3326 1.384 . S
C3325 C3324 1.377 . S
C3325 C3331 1.390 . S
C3326 H3317 0.930 . S
C3326 C3324 1.384 . S
C3326 C3327 1.372 . S
C3327 C3326 1.372 . S
C3327 C3328 1.400 . S
C3327 C3332 1.490 . S
C3328 H3318 0.930 . S
C3328 C3327 1.400 . S
C3328 C3331 1.386 . S
H3329 C3345 0.930 . S
H3330 C3346 0.931 . S
C3331 H3319 0.929 . S
C3331 C3325 1.390 . S
C3331 C3328 1.386 . S
C3332 C3327 1.490 . S
C3332 C3334 1.395 . S
C3332 C3335 1.403 . S
H3333 C3339 0.930 . S
C3334 H3320 0.930 . S
C3334 C3332 1.395 . S
C3334 C3337 1.403 . S
C3335 C3332 1.403 . S
C3335 C3336 1.524 . S
C3335 C3339 1.400 . S
C3336 H3321 0.960 . S
C3336 H3322 0.960 . S
C3336 H3323 0.960 . S
C3336 C3335 1.524 . S
C3337 C3334 1.403 . S
C3337 C3338 1.392 . S
C3337 C3341 1.495 . S
C3338 C3337 1.392 . S
C3338 C3339 1.385 . S
C3338 C3340 1.478 . S
C3339 H3333 0.930 . S
C3339 C3335 1.400 . S
C3339 C3338 1.385 . S
C3340 C3338 1.478 . S
C3340 C3342 1.381 . S
C3340 C3346 1.383 . S
C3341 C3337 1.495 . S
C3341 H3347 0.959 . S
C3341 H3348 0.961 . S
C3341 H3349 0.960 . S
C3342 C3340 1.381 . S
C3342 C3343 1.394 . S
C3342 H3350 0.930 . S
C3343 C3342 1.394 . S
C3343 C3344 1.383 . S
C3343 H3351 0.929 . S
C3344 C3343 1.383 . S
C3344 C3345 1.377 . S
C3345 H3329 0.930 . S
C3345 C3344 1.377 . S
C3345 C3346 1.379 . S
C3346 H3330 0.931 . S
C3346 C3340 1.383 . S
C3346 C3345 1.379 . S
H3347 C3341 0.959 . S
H3348 C3341 0.961 . S
H3349 C3341 0.960 . S
H3350 C3342 0.930 . S
H3351 C3343 0.929 . S
H3352 C3360 0.929 . S
H3353 C3362 0.930 . S
H3354 C3364 0.930 . S
H3355 C3367 0.929 . S
H3356 C3370 0.930 . S
H3357 C3372 0.960 . S
H3358 C3372 0.960 . S
H3359 C3372 0.960 . S
C3360 H3352 0.929 . S
C3360 C3361 1.377 . S
C3360 C3362 1.384 . S
C3361 C3360 1.377 . S
C3361 C3367 1.390 . S
C3362 H3353 0.930 . S
C3362 C3360 1.384 . S
C3362 C3363 1.372 . S
C3363 C3362 1.372 . S
C3363 C3364 1.400 . S
C3363 C3368 1.490 . S
C3364 H3354 0.930 . S
C3364 C3363 1.400 . S
C3364 C3367 1.386 . S
H3365 C3381 0.930 . S
H3366 C3382 0.931 . S
C3367 H3355 0.929 . S
C3367 C3361 1.390 . S
C3367 C3364 1.386 . S
C3368 C3363 1.490 . S
C3368 C3370 1.395 . S
C3368 C3371 1.403 . S
H3369 C3375 0.930 . S
C3370 H3356 0.930 . S
C3370 C3368 1.395 . S
C3370 C3373 1.403 . S
C3371 C3368 1.403 . S
C3371 C3372 1.524 . S
C3371 C3375 1.400 . S
C3372 H3357 0.960 . S
C3372 H3358 0.960 . S
C3372 H3359 0.960 . S
C3372 C3371 1.524 . S
C3373 C3370 1.403 . S
C3373 C3374 1.392 . S
C3373 C3377 1.495 . S
C3374 C3373 1.392 . S
C3374 C3375 1.385 . S
C3374 C3376 1.478 . S
C3375 H3369 0.930 . S
C3375 C3371 1.400 . S
C3375 C3374 1.385 . S
C3376 C3374 1.478 . S
C3376 C3378 1.381 . S
C3376 C3382 1.383 . S
C3377 C3373 1.495 . S
C3377 H3383 0.959 . S
C3377 H3384 0.961 . S
C3377 H3385 0.960 . S
C3378 C3376 1.381 . S
C3378 C3379 1.394 . S
C3378 H3386 0.930 . S
C3379 C3378 1.394 . S
C3379 C3380 1.383 . S
C3379 H3387 0.929 . S
C3380 C3379 1.383 . S
C3380 C3381 1.377 . S
C3381 H3365 0.930 . S
C3381 C3380 1.377 . S
C3381 C3382 1.379 . S
C3382 H3366 0.931 . S
C3382 C3376 1.383 . S
C3382 C3381 1.379 . S
H3383 C3377 0.959 . S
H3384 C3377 0.961 . S
H3385 C3377 0.960 . S
H3386 C3378 0.930 . S
H3387 C3379 0.929 . S
H3388 C3396 0.929 . S
H3389 C3398 0.930 . S
H3390 C3400 0.930 . S
H3391 C3403 0.929 . S
H3392 C3406 0.930 . S
H3393 C3408 0.960 . S
H3394 C3408 0.960 . S
H3395 C3408 0.960 . S
C3396 H3388 0.929 . S
C3396 C3397 1.377 . S
C3396 C3398 1.384 . S
C3397 C3396 1.377 . S
C3397 C3403 1.390 . S
C3398 H3389 0.930 . S
C3398 C3396 1.384 . S
C3398 C3399 1.372 . S
C3399 C3398 1.372 . S
C3399 C3400 1.400 . S
C3399 C3404 1.490 . S
C3400 H3390 0.930 . S
C3400 C3399 1.400 . S
C3400 C3403 1.386 . S
H3401 C3417 0.930 . S
H3402 C3418 0.931 . S
C3403 H3391 0.929 . S
C3403 C3397 1.390 . S
C3403 C3400 1.386 . S
C3404 C3399 1.490 . S
C3404 C3406 1.395 . S
C3404 C3407 1.403 . S
H3405 C3411 0.930 . S
C3406 H3392 0.930 . S
C3406 C3404 1.395 . S
C3406 C3409 1.403 . S
C3407 C3404 1.403 . S
C3407 C3408 1.524 . S
C3407 C3411 1.400 . S
C3408 H3393 0.960 . S
C3408 H3394 0.960 . S
C3408 H3395 0.960 . S
C3408 C3407 1.524 . S
C3409 C3406 1.403 . S
C3409 C3410 1.392 . S
C3409 C3413 1.495 . S
C3410 C3409 1.392 . S
C3410 C3411 1.385 . S
C3410 C3412 1.478 . S
C3411 H3405 0.930 . S
C3411 C3407 1.400 . S
C3411 C3410 1.385 . S
C3412 C3410 1.478 . S
C3412 C3414 1.381 . S
C3412 C3418 1.383 . S
C3413 C3409 1.495 . S
C3413 H3419 0.959 . S
C3413 H3420 0.961 . S
C3413 H3421 0.960 . S
C3414 C3412 1.381 . S
C3414 C3415 1.394 1_565 S
C3414 H3422 0.930 . S
C3415 C3414 1.394 1_545 S
C3415 C3416 1.383 . S
C3415 H3423 0.929 . S
C3416 C3415 1.383 . S
C3416 C3417 1.377 . S
C3417 H3401 0.930 . S
C3417 C3416 1.377 . S
C3417 C3418 1.379 1_545 S
C3418 H3402 0.931 . S
C3418 C3412 1.383 . S
C3418 C3417 1.379 1_565 S
H3419 C3413 0.959 . S
H3420 C3413 0.961 . S
H3421 C3413 0.960 . S
H3422 C3414 0.930 . S
H3423 C3415 0.929 . S
H3424 C3432 0.929 . S
H3425 C3434 0.930 . S
H3426 C3436 0.930 . S
H3427 C3439 0.929 . S
H3428 C3442 0.930 . S
H3429 C3444 0.960 . S
H3430 C3444 0.960 . S
H3431 C3444 0.960 . S
C3432 H3424 0.929 . S
C3432 C3433 1.377 . S
C3432 C3434 1.384 . S
C3433 C3432 1.377 . S
C3433 C3439 1.390 . S
C3434 H3425 0.930 . S
C3434 C3432 1.384 . S
C3434 C3435 1.372 . S
C3435 C3434 1.372 . S
C3435 C3436 1.400 . S
C3435 C3440 1.490 . S
C3436 H3426 0.930 . S
C3436 C3435 1.400 . S
C3436 C3439 1.386 . S
H3437 C3453 0.930 . S
H3438 C3454 0.931 . S
C3439 H3427 0.929 . S
C3439 C3433 1.390 . S
C3439 C3436 1.386 . S
C3440 C3435 1.490 . S
C3440 C3442 1.395 . S
C3440 C3443 1.403 . S
H3441 C3447 0.930 . S
C3442 H3428 0.930 . S
C3442 C3440 1.395 . S
C3442 C3445 1.403 . S
C3443 C3440 1.403 . S
C3443 C3444 1.524 . S
C3443 C3447 1.400 . S
C3444 H3429 0.960 . S
C3444 H3430 0.960 . S
C3444 H3431 0.960 . S
C3444 C3443 1.524 . S
C3445 C3442 1.403 . S
C3445 C3446 1.392 . S
C3445 C3449 1.495 . S
C3446 C3445 1.392 . S
C3446 C3447 1.385 . S
C3446 C3448 1.478 . S
C3447 H3441 0.930 . S
C3447 C3443 1.400 . S
C3447 C3446 1.385 . S
C3448 C3446 1.478 . S
C3448 C3450 1.381 . S
C3448 C3454 1.383 . S
C3449 C3445 1.495 . S
C3449 H3455 0.959 . S
C3449 H3456 0.961 . S
C3449 H3457 0.960 . S
C3450 C3448 1.381 . S
C3450 C3451 1.394 . S
C3450 H3458 0.930 . S
C3451 C3450 1.394 . S
C3451 C3452 1.383 . S
C3451 H3459 0.929 . S
C3452 C3451 1.383 . S
C3452 C3453 1.377 . S
C3453 H3437 0.930 . S
C3453 C3452 1.377 . S
C3453 C3454 1.379 . S
C3454 H3438 0.931 . S
C3454 C3448 1.383 . S
C3454 C3453 1.379 . S
H3455 C3449 0.959 . S
H3456 C3449 0.961 . S
H3457 C3449 0.960 . S
H3458 C3450 0.930 . S
H3459 C3451 0.929 . S
H3460 C3468 0.929 . S
H3461 C3470 0.930 . S
H3462 C3472 0.930 1_556 S
H3463 C3475 0.929 . S
H3464 C3478 0.930 . S
H3465 C3480 0.960 . S
H3466 C3480 0.960 . S
H3467 C3480 0.960 1_556 S
C3468 H3460 0.929 . S
C3468 C3469 1.377 . S
C3468 C3470 1.384 . S
C3469 C3468 1.377 . S
C3469 C3475 1.390 1_554 S
C3470 H3461 0.930 . S
C3470 C3468 1.384 . S
C3470 C3471 1.372 . S
C3471 C3470 1.372 . S
C3471 C3472 1.400 . S
C3471 C3476 1.490 . S
C3472 H3462 0.930 1_554 S
C3472 C3471 1.400 . S
C3472 C3475 1.386 1_554 S
H3473 C3489 0.930 . S
H3474 C3490 0.931 . S
C3475 H3463 0.929 . S
C3475 C3469 1.390 1_556 S
C3475 C3472 1.386 1_556 S
C3476 C3471 1.490 . S
C3476 C3478 1.395 . S
C3476 C3479 1.403 . S
H3477 C3483 0.930 . S
C3478 H3464 0.930 . S
C3478 C3476 1.395 . S
C3478 C3481 1.403 . S
C3479 C3476 1.403 . S
C3479 C3480 1.524 . S
C3479 C3483 1.400 . S
C3480 H3465 0.960 . S
C3480 H3466 0.960 . S
C3480 H3467 0.960 1_554 S
C3480 C3479 1.524 . S
C3481 C3478 1.403 . S
C3481 C3482 1.392 . S
C3481 C3485 1.495 . S
C3482 C3481 1.392 . S
C3482 C3483 1.385 . S
C3482 C3484 1.478 . S
C3483 H3477 0.930 . S
C3483 C3479 1.400 . S
C3483 C3482 1.385 . S
C3484 C3482 1.478 . S
C3484 C3486 1.381 . S
C3484 C3490 1.383 . S
C3485 C3481 1.495 . S
C3485 H3491 0.959 . S
C3485 H3492 0.961 . S
C3485 H3493 0.960 . S
C3486 C3484 1.381 . S
C3486 C3487 1.394 . S
C3486 H3494 0.930 . S
C3487 C3486 1.394 . S
C3487 C3488 1.383 . S
C3487 H3495 0.929 . S
C3488 C3487 1.383 . S
C3488 C3489 1.377 . S
C3489 H3473 0.930 . S
C3489 C3488 1.377 . S
C3489 C3490 1.379 . S
C3490 H3474 0.931 . S
C3490 C3484 1.383 . S
C3490 C3489 1.379 . S
H3491 C3485 0.959 . S
H3492 C3485 0.961 . S
H3493 C3485 0.960 . S
H3494 C3486 0.930 . S
H3495 C3487 0.929 . S
H3496 C3504 0.929 . S
H3497 C3506 0.930 . S
H3498 C3508 0.930 . S
H3499 C3511 0.929 . S
H3500 C3514 0.930 . S
H3501 C3516 0.960 . S
H3502 C3516 0.960 . S
H3503 C3516 0.960 . S
C3504 H3496 0.929 . S
C3504 C3505 1.377 . S
C3504 C3506 1.384 . S
C3505 C3504 1.377 . S
C3505 C3511 1.390 . S
C3506 H3497 0.930 . S
C3506 C3504 1.384 . S
C3506 C3507 1.372 . S
C3507 C3506 1.372 . S
C3507 C3508 1.400 . S
C3507 C3512 1.490 . S
C3508 H3498 0.930 . S
C3508 C3507 1.400 . S
C3508 C3511 1.386 . S
H3509 C3525 0.930 . S
H3510 C3526 0.931 . S
C3511 H3499 0.929 . S
C3511 C3505 1.390 . S
C3511 C3508 1.386 . S
C3512 C3507 1.490 . S
C3512 C3514 1.395 . S
C3512 C3515 1.403 . S
H3513 C3519 0.930 . S
C3514 H3500 0.930 . S
C3514 C3512 1.395 . S
C3514 C3517 1.403 . S
C3515 C3512 1.403 . S
C3515 C3516 1.524 . S
C3515 C3519 1.400 . S
C3516 H3501 0.960 . S
C3516 H3502 0.960 . S
C3516 H3503 0.960 . S
C3516 C3515 1.524 . S
C3517 C3514 1.403 . S
C3517 C3518 1.392 . S
C3517 C3521 1.495 . S
C3518 C3517 1.392 . S
C3518 C3519 1.385 . S
C3518 C3520 1.478 . S
C3519 H3513 0.930 . S
C3519 C3515 1.400 . S
C3519 C3518 1.385 . S
C3520 C3518 1.478 . S
C3520 C3522 1.381 . S
C3520 C3526 1.383 . S
C3521 C3517 1.495 . S
C3521 H3527 0.959 . S
C3521 H3528 0.961 . S
C3521 H3529 0.960 . S
C3522 C3520 1.381 . S
C3522 C3523 1.394 . S
C3522 H3530 0.930 . S
C3523 C3522 1.394 . S
C3523 C3524 1.383 . S
C3523 H3531 0.929 . S
C3524 C3523 1.383 . S
C3524 C3525 1.377 . S
C3525 H3509 0.930 . S
C3525 C3524 1.377 . S
C3525 C3526 1.379 . S
C3526 H3510 0.931 . S
C3526 C3520 1.383 . S
C3526 C3525 1.379 . S
H3527 C3521 0.959 . S
H3528 C3521 0.961 . S
H3529 C3521 0.960 . S
H3530 C3522 0.930 . S
H3531 C3523 0.929 . S
H3532 C3540 0.929 . S
H3533 C3542 0.930 . S
H3534 C3544 0.930 . S
H3535 C3547 0.929 . S
H3536 C3550 0.930 . S
H3537 C3552 0.960 . S
H3538 C3552 0.960 . S
H3539 C3552 0.960 . S
C3540 H3532 0.929 . S
C3540 C3541 1.377 . S
C3540 C3542 1.384 . S
C3541 C3540 1.377 . S
C3541 C3547 1.390 . S
C3542 H3533 0.930 . S
C3542 C3540 1.384 . S
C3542 C3543 1.372 . S
C3543 C3542 1.372 . S
C3543 C3544 1.400 . S
C3543 C3548 1.529 . S
C3544 H3534 0.930 . S
C3544 C3543 1.400 . S
C3544 C3547 1.386 . S
H3545 C3561 0.930 . S
H3546 C3562 0.931 . S
C3547 H3535 0.929 . S
C3547 C3541 1.390 . S
C3547 C3544 1.386 . S
C3548 C3543 1.529 . S
C3548 C3550 1.412 . S
C3548 C3551 1.349 1_545 S
H3549 C3555 0.930 . S
C3550 H3536 0.930 . S
C3550 C3548 1.412 . S
C3550 C3553 1.403 1_545 S
C3551 C3548 1.349 1_565 S
C3551 C3552 1.524 . S
C3551 C3555 1.400 . S
C3552 H3537 0.960 . S
C3552 H3538 0.960 . S
C3552 H3539 0.960 . S
C3552 C3551 1.524 . S
C3553 C3550 1.403 1_565 S
C3553 C3554 1.392 . S
C3553 C3557 1.495 . S
C3554 C3553 1.392 . S
C3554 C3555 1.385 . S
C3554 C3556 1.478 . S
C3555 H3549 0.930 . S
C3555 C3551 1.400 . S
C3555 C3554 1.385 . S
C3556 C3554 1.478 . S
C3556 C3558 1.381 . S
C3556 C3562 1.383 . S
C3557 C3553 1.495 . S
C3557 H3563 0.959 1_565 S
C3557 H3564 0.961 . S
C3557 H3565 0.960 . S
C3558 C3556 1.381 . S
C3558 C3559 1.394 . S
C3558 H3566 0.930 . S
C3559 C3558 1.394 . S
C3559 C3560 1.383 . S
C3559 H3567 0.929 . S
C3560 C3559 1.383 . S
C3560 C3561 1.377 . S
C3561 H3545 0.930 . S
C3561 C3560 1.377 . S
C3561 C3562 1.379 . S
C3562 H3546 0.931 . S
C3562 C3556 1.383 . S
C3562 C3561 1.379 . S
H3563 C3557 0.959 1_545 S
H3564 C3557 0.961 . S
H3565 C3557 0.960 . S
H3566 C3558 0.930 . S
H3567 C3559 0.929 . S
H3568 C3576 0.929 . S
H3569 C3578 0.930 . S
H3570 C3580 0.930 . S
H3571 C3583 0.929 . S
H3572 C3586 0.930 . S
H3573 C3588 0.960 . S
H3574 C3588 0.960 . S
H3575 C3588 0.960 . S
C3576 H3568 0.929 . S
C3576 C3577 1.377 . S
C3576 C3578 1.384 . S
C3577 C3576 1.377 . S
C3577 C3583 1.390 . S
C3578 H3569 0.930 . S
C3578 C3576 1.384 . S
C3578 C3579 1.372 . S
C3579 C3578 1.372 . S
C3579 C3580 1.400 . S
C3579 C3584 1.490 . S
C3580 H3570 0.930 . S
C3580 C3579 1.400 . S
C3580 C3583 1.386 . S
H3581 C3597 0.930 . S
H3582 C3598 0.931 . S
C3583 H3571 0.929 . S
C3583 C3577 1.390 . S
C3583 C3580 1.386 . S
C3584 C3579 1.490 . S
C3584 C3586 1.395 . S
C3584 C3587 1.403 . S
H3585 C3591 0.930 . S
C3586 H3572 0.930 . S
C3586 C3584 1.395 . S
C3586 C3589 1.403 . S
C3587 C3584 1.403 . S
C3587 C3588 1.524 . S
C3587 C3591 1.400 . S
C3588 H3573 0.960 . S
C3588 H3574 0.960 . S
C3588 H3575 0.960 . S
C3588 C3587 1.524 . S
C3589 C3586 1.403 . S
C3589 C3590 1.392 . S
C3589 C3593 1.495 . S
C3590 C3589 1.392 . S
C3590 C3591 1.385 . S
C3590 C3592 1.478 . S
C3591 H3585 0.930 . S
C3591 C3587 1.400 . S
C3591 C3590 1.385 . S
C3592 C3590 1.478 . S
C3592 C3594 1.381 . S
C3592 C3598 1.383 . S
C3593 C3589 1.495 . S
C3593 H3599 0.959 . S
C3593 H3600 0.961 . S
C3593 H3601 0.960 . S
C3594 C3592 1.381 . S
C3594 C3595 1.394 . S
C3594 H3602 0.930 . S
C3595 C3594 1.394 . S
C3595 C3596 1.383 . S
C3595 H3603 0.929 . S
C3596 C3595 1.383 . S
C3596 C3597 1.377 . S
C3597 H3581 0.930 . S
C3597 C3596 1.377 . S
C3597 C3598 1.379 . S
C3598 H3582 0.931 . S
C3598 C3592 1.383 . S
C3598 C3597 1.379 . S
H3599 C3593 0.959 . S
H3600 C3593 0.961 . S
H3601 C3593 0.960 . S
H3602 C3594 0.930 . S
H3603 C3595 0.929 . S
H3604 C3612 0.929 . S
H3605 C3614 0.930 . S
H3606 C3616 0.930 . S
H3607 C3619 0.929 . S
H3608 C3622 0.930 . S
H3609 C3624 0.960 . S
H3610 C3624 0.960 . S
H3611 C3624 0.960 . S
C3612 H3604 0.929 . S
C3612 C3613 1.377 . S
C3612 C3614 1.384 . S
C3613 C3612 1.377 . S
C3613 C3619 1.390 . S
C3614 H3605 0.930 . S
C3614 C3612 1.384 . S
C3614 C3615 1.372 . S
C3615 C3614 1.372 . S
C3615 C3616 1.400 . S
C3615 C3620 1.490 . S
C3616 H3606 0.930 . S
C3616 C3615 1.400 . S
C3616 C3619 1.386 . S
H3617 C3633 0.930 . S
H3618 C3634 0.931 . S
C3619 H3607 0.929 . S
C3619 C3613 1.390 . S
C3619 C3616 1.386 . S
C3620 C3615 1.490 . S
C3620 C3622 1.395 . S
C3620 C3623 1.403 . S
H3621 C3627 0.930 . S
C3622 H3608 0.930 . S
C3622 C3620 1.395 . S
C3622 C3625 1.403 . S
C3623 C3620 1.403 . S
C3623 C3624 1.524 . S
C3623 C3627 1.400 . S
C3624 H3609 0.960 . S
C3624 H3610 0.960 . S
C3624 H3611 0.960 . S
C3624 C3623 1.524 . S
C3625 C3622 1.403 . S
C3625 C3626 1.392 . S
C3625 C3629 1.495 . S
C3626 C3625 1.392 . S
C3626 C3627 1.385 . S
C3626 C3628 1.478 . S
C3627 H3621 0.930 . S
C3627 C3623 1.400 . S
C3627 C3626 1.385 . S
C3628 C3626 1.478 . S
C3628 C3630 1.381 . S
C3628 C3634 1.383 . S
C3629 C3625 1.495 . S
C3629 H3635 0.959 . S
C3629 H3636 0.961 . S
C3629 H3637 0.960 . S
C3630 C3628 1.381 . S
C3630 C3631 1.394 . S
C3630 H3638 0.930 . S
C3631 C3630 1.394 . S
C3631 C3632 1.383 . S
C3631 H3639 0.929 . S
C3632 C3631 1.383 . S
C3632 C3633 1.377 . S
C3633 H3617 0.930 . S
C3633 C3632 1.377 . S
C3633 C3634 1.379 . S
C3634 H3618 0.931 . S
C3634 C3628 1.383 . S
C3634 C3633 1.379 . S
H3635 C3629 0.959 . S
H3636 C3629 0.961 . S
H3637 C3629 0.960 . S
H3638 C3630 0.930 . S
H3639 C3631 0.929 . S
H3640 C3648 0.929 . S
H3641 C3650 0.930 . S
H3642 C3652 0.930 . S
H3643 C3655 0.929 . S
H3644 C3658 0.930 . S
H3645 C3660 0.960 . S
H3646 C3660 0.960 . S
H3647 C3660 0.960 . S
C3648 H3640 0.929 . S
C3648 C3649 1.377 . S
C3648 C3650 1.384 . S
C3649 C3648 1.377 . S
C3649 C3655 1.390 . S
C3650 H3641 0.930 . S
C3650 C3648 1.384 . S
C3650 C3651 1.372 . S
C3651 C3650 1.372 . S
C3651 C3652 1.400 . S
C3651 C3656 1.490 . S
C3652 H3642 0.930 . S
C3652 C3651 1.400 . S
C3652 C3655 1.386 . S
H3653 C3669 0.930 . S
H3654 C3670 0.931 . S
C3655 H3643 0.929 . S
C3655 C3649 1.390 . S
C3655 C3652 1.386 . S
C3656 C3651 1.490 . S
C3656 C3658 1.395 . S
C3656 C3659 1.396 1_455 S
H3657 C3663 0.930 1_655 S
C3658 H3644 0.930 . S
C3658 C3656 1.395 . S
C3658 C3661 1.403 . S
C3659 C3656 1.396 1_655 S
C3659 C3660 1.535 . S
C3659 C3663 1.395 1_655 S
C3660 H3645 0.960 . S
C3660 H3646 0.960 . S
C3660 H3647 0.960 . S
C3660 C3659 1.535 . S
C3661 C3658 1.403 . S
C3661 C3662 1.392 . S
C3661 C3665 1.495 . S
C3662 C3661 1.392 . S
C3662 C3663 1.385 . S
C3662 C3664 1.478 . S
C3663 H3657 0.930 1_455 S
C3663 C3659 1.395 1_455 S
C3663 C3662 1.385 . S
C3664 C3662 1.478 . S
C3664 C3666 1.381 . S
C3664 C3670 1.383 . S
C3665 C3661 1.495 . S
C3665 H3671 0.959 . S
C3665 H3672 0.961 . S
C3665 H3673 0.960 . S
C3666 C3664 1.381 . S
C3666 C3667 1.394 . S
C3666 H3674 0.930 . S
C3667 C3666 1.394 . S
C3667 C3668 1.383 . S
C3667 H3675 0.929 . S
C3668 C3667 1.383 . S
C3668 C3669 1.377 . S
C3669 H3653 0.930 . S
C3669 C3668 1.377 . S
C3669 C3670 1.379 . S
C3670 H3654 0.931 . S
C3670 C3664 1.383 . S
C3670 C3669 1.379 . S
H3671 C3665 0.959 . S
H3672 C3665 0.961 . S
H3673 C3665 0.960 . S
H3674 C3666 0.930 . S
H3675 C3667 0.929 . S
H3676 C3684 0.929 . S
H3677 C3686 0.930 . S
H3678 C3688 0.930 . S
H3679 C3691 0.929 . S
H3680 C3694 0.930 . S
H3681 C3696 0.960 . S
H3682 C3696 0.960 . S
H3683 C3696 0.960 . S
C3684 H3676 0.929 . S
C3684 C3685 1.377 . S
C3684 C3686 1.384 . S
C3685 C3684 1.377 . S
C3685 C3691 1.390 . S
C3686 H3677 0.930 . S
C3686 C3684 1.384 . S
C3686 C3687 1.372 . S
C3687 C3686 1.372 . S
C3687 C3688 1.400 . S
C3687 C3692 1.490 . S
C3688 H3678 0.930 . S
C3688 C3687 1.400 . S
C3688 C3691 1.386 . S
H3689 C3705 0.930 . S
H3690 C3706 0.931 . S
C3691 H3679 0.929 . S
C3691 C3685 1.390 . S
C3691 C3688 1.386 . S
C3692 C3687 1.490 . S
C3692 C3694 1.395 . S
C3692 C3695 1.403 . S
H3693 C3699 0.930 . S
C3694 H3680 0.930 . S
C3694 C3692 1.395 . S
C3694 C3697 1.403 . S
C3695 C3692 1.403 . S
C3695 C3696 1.524 . S
C3695 C3699 1.400 . S
C3696 H3681 0.960 . S
C3696 H3682 0.960 . S
C3696 H3683 0.960 . S
C3696 C3695 1.524 . S
C3697 C3694 1.403 . S
C3697 C3698 1.392 . S
C3697 C3701 1.495 . S
C3698 C3697 1.392 . S
C3698 C3699 1.385 . S
C3698 C3700 1.478 . S
C3699 H3693 0.930 . S
C3699 C3695 1.400 . S
C3699 C3698 1.385 . S
C3700 C3698 1.478 . S
C3700 C3702 1.381 . S
C3700 C3706 1.383 . S
C3701 C3697 1.495 . S
C3701 H3707 0.959 . S
C3701 H3708 0.961 . S
C3701 H3709 0.960 . S
C3702 C3700 1.381 . S
C3702 C3703 1.394 . S
C3702 H3710 0.930 . S
C3703 C3702 1.394 . S
C3703 C3704 1.383 . S
C3703 H3711 0.929 . S
C3704 C3703 1.383 . S
C3704 C3705 1.377 . S
C3705 H3689 0.930 . S
C3705 C3704 1.377 . S
C3705 C3706 1.379 . S
C3706 H3690 0.931 . S
C3706 C3700 1.383 . S
C3706 C3705 1.379 . S
H3707 C3701 0.959 . S
H3708 C3701 0.961 . S
H3709 C3701 0.960 . S
H3710 C3702 0.930 . S
H3711 C3703 0.929 . S
H3712 C3720 0.929 . S
H3713 C3722 0.930 . S
H3714 C3724 0.930 1_554 S
H3715 C3727 0.929 . S
H3716 C3730 0.930 . S
H3717 C3732 0.960 . S
H3718 C3732 0.960 . S
H3719 C3732 0.960 . S
C3720 H3712 0.929 . S
C3720 C3721 1.377 . S
C3720 C3722 1.384 . S
C3721 C3720 1.377 . S
C3721 C3727 1.390 . S
C3722 H3713 0.930 . S
C3722 C3720 1.384 . S
C3722 C3723 1.372 . S
C3723 C3722 1.372 . S
C3723 C3724 1.400 . S
C3723 C3728 1.490 . S
C3724 H3714 0.930 1_556 S
C3724 C3723 1.400 . S
C3724 C3727 1.386 . S
H3725 C3741 0.930 . S
H3726 C3742 0.931 . S
C3727 H3715 0.929 . S
C3727 C3721 1.390 . S
C3727 C3724 1.386 . S
C3728 C3723 1.490 . S
C3728 C3730 1.395 . S
C3728 C3731 1.403 . S
H3729 C3735 0.930 . S
C3730 H3716 0.930 . S
C3730 C3728 1.395 . S
C3730 C3733 1.403 1_556 S
C3731 C3728 1.403 . S
C3731 C3732 1.524 . S
C3731 C3735 1.400 . S
C3732 H3717 0.960 . S
C3732 H3718 0.960 . S
C3732 H3719 0.960 . S
C3732 C3731 1.524 . S
C3733 C3730 1.403 1_554 S
C3733 C3734 1.392 1_554 S
C3733 C3737 1.495 . S
C3734 C3733 1.392 1_556 S
C3734 C3735 1.385 . S
C3734 C3736 1.478 1_556 S
C3735 H3729 0.930 . S
C3735 C3731 1.400 . S
C3735 C3734 1.385 . S
C3736 C3734 1.478 1_554 S
C3736 C3738 1.381 1_554 S
C3736 C3742 1.383 . S
C3737 C3733 1.495 . S
C3737 H3743 0.959 . S
C3737 H3744 0.961 . S
C3737 H3745 0.987 . S
C3738 C3736 1.381 1_556 S
C3738 C3739 1.394 . S
C3738 H3746 0.930 . S
C3739 C3738 1.394 . S
C3739 C3740 1.383 1_556 S
C3739 H3747 0.929 . S
C3740 C3739 1.383 1_554 S
C3740 C3741 1.377 . S
C3741 H3725 0.930 . S
C3741 C3740 1.377 . S
C3741 C3742 1.379 . S
C3742 H3726 0.931 . S
C3742 C3736 1.383 . S
C3742 C3741 1.379 . S
H3743 C3737 0.959 . S
H3744 C3737 0.961 . S
H3745 C3737 0.987 . S
H3746 C3738 0.930 . S
H3747 C3739 0.929 . S
H3748 C3756 0.929 . S
H3749 C3758 0.930 . S
H3750 C3760 0.930 . S
H3751 C3763 0.929 . S
H3752 C3766 0.930 . S
H3753 C3768 0.960 . S
H3754 C3768 0.960 . S
H3755 C3768 0.960 . S
C3756 H3748 0.929 . S
C3756 C3757 1.377 . S
C3756 C3758 1.384 . S
C3757 C3756 1.377 . S
C3757 C3763 1.390 . S
C3758 H3749 0.930 . S
C3758 C3756 1.384 . S
C3758 C3759 1.372 . S
C3759 C3758 1.372 . S
C3759 C3760 1.400 . S
C3759 C3764 1.490 . S
C3760 H3750 0.930 . S
C3760 C3759 1.400 . S
C3760 C3763 1.386 . S
H3761 C3777 0.930 . S
H3762 C3778 0.931 . S
C3763 H3751 0.929 . S
C3763 C3757 1.390 . S
C3763 C3760 1.386 . S
C3764 C3759 1.490 . S
C3764 C3766 1.395 . S
C3764 C3767 1.403 . S
H3765 C3771 0.930 . S
C3766 H3752 0.930 . S
C3766 C3764 1.395 . S
C3766 C3769 1.403 . S
C3767 C3764 1.403 . S
C3767 C3768 1.524 . S
C3767 C3771 1.400 . S
C3768 H3753 0.960 . S
C3768 H3754 0.960 . S
C3768 H3755 0.960 . S
C3768 C3767 1.524 . S
C3769 C3766 1.403 . S
C3769 C3770 1.392 . S
C3769 C3773 1.495 . S
C3770 C3769 1.392 . S
C3770 C3771 1.385 . S
C3770 C3772 1.478 . S
C3771 H3765 0.930 . S
C3771 C3767 1.400 . S
C3771 C3770 1.385 . S
C3772 C3770 1.478 . S
C3772 C3774 1.381 . S
C3772 C3778 1.383 . S
C3773 C3769 1.495 . S
C3773 H3779 0.959 . S
C3773 H3780 0.961 . S
C3773 H3781 0.960 . S
C3774 C3772 1.381 . S
C3774 C3775 1.394 . S
C3774 H3782 0.930 . S
C3775 C3774 1.394 . S
C3775 C3776 1.383 . S
C3775 H3783 0.929 . S
C3776 C3775 1.383 . S
C3776 C3777 1.377 . S
C3777 H3761 0.930 . S
C3777 C3776 1.377 . S
C3777 C3778 1.379 . S
C3778 H3762 0.931 . S
C3778 C3772 1.383 . S
C3778 C3777 1.379 . S
H3779 C3773 0.959 . S
H3780 C3773 0.961 . S
H3781 C3773 0.960 . S
H3782 C3774 0.930 . S
H3783 C3775 0.929 . S
H3784 C3792 0.929 . S
H3785 C3794 0.930 . S
H3786 C3796 0.930 . S
H3787 C3799 0.929 . S
H3788 C3802 0.930 . S
H3789 C3804 0.960 . S
H3790 C3804 0.960 . S
H3791 C3804 0.960 . S
C3792 H3784 0.929 . S
C3792 C3793 1.377 . S
C3792 C3794 1.384 . S
C3793 C3792 1.377 . S
C3793 C3799 1.390 . S
C3794 H3785 0.930 . S
C3794 C3792 1.384 . S
C3794 C3795 1.372 . S
C3795 C3794 1.372 . S
C3795 C3796 1.400 . S
C3795 C3800 1.490 . S
C3796 H3786 0.930 . S
C3796 C3795 1.400 . S
C3796 C3799 1.386 . S
H3797 C3813 0.930 . S
H3798 C3814 0.931 . S
C3799 H3787 0.929 . S
C3799 C3793 1.390 . S
C3799 C3796 1.386 . S
C3800 C3795 1.490 . S
C3800 C3802 1.395 . S
C3800 C3803 1.403 . S
H3801 C3807 0.930 . S
C3802 H3788 0.930 . S
C3802 C3800 1.395 . S
C3802 C3805 1.403 . S
C3803 C3800 1.403 . S
C3803 C3804 1.524 . S
C3803 C3807 1.400 . S
C3804 H3789 0.960 . S
C3804 H3790 0.960 . S
C3804 H3791 0.960 . S
C3804 C3803 1.524 . S
C3805 C3802 1.403 . S
C3805 C3806 1.392 . S
C3805 C3809 1.495 . S
C3806 C3805 1.392 . S
C3806 C3807 1.385 . S
C3806 C3808 1.478 . S
C3807 H3801 0.930 . S
C3807 C3803 1.400 . S
C3807 C3806 1.385 . S
C3808 C3806 1.478 . S
C3808 C3810 1.381 . S
C3808 C3814 1.383 . S
C3809 C3805 1.495 . S
C3809 H3815 0.959 . S
C3809 H3816 0.961 . S
C3809 H3817 0.960 . S
C3810 C3808 1.381 . S
C3810 C3811 1.394 . S
C3810 H3818 0.930 . S
C3811 C3810 1.394 . S
C3811 C3812 1.383 . S
C3811 H3819 0.929 . S
C3812 C3811 1.383 . S
C3812 C3813 1.377 . S
C3813 H3797 0.930 . S
C3813 C3812 1.377 . S
C3813 C3814 1.379 . S
C3814 H3798 0.931 . S
C3814 C3808 1.383 . S
C3814 C3813 1.379 . S
H3815 C3809 0.959 . S
H3816 C3809 0.961 . S
H3817 C3809 0.960 . S
H3818 C3810 0.930 . S
H3819 C3811 0.929 . S
H3820 C3828 0.929 . S
H3821 C3830 0.930 . S
H3822 C3832 0.930 . S
H3823 C3835 0.929 . S
H3824 C3838 0.930 . S
H3825 C3840 0.960 . S
H3826 C3840 0.960 . S
H3827 C3840 0.960 . S
C3828 H3820 0.929 . S
C3828 C3829 1.377 . S
C3828 C3830 1.384 . S
C3829 C3828 1.377 . S
C3829 C3835 1.390 . S
C3830 H3821 0.930 . S
C3830 C3828 1.384 . S
C3830 C3831 1.372 . S
C3831 C3830 1.372 . S
C3831 C3832 1.400 . S
C3831 C3836 1.490 . S
C3832 H3822 0.930 . S
C3832 C3831 1.400 . S
C3832 C3835 1.386 . S
H3833 C3849 0.930 . S
H3834 C3850 0.931 . S
C3835 H3823 0.929 . S
C3835 C3829 1.390 . S
C3835 C3832 1.386 . S
C3836 C3831 1.490 . S
C3836 C3838 1.395 . S
C3836 C3839 1.403 . S
H3837 C3843 0.930 . S
C3838 H3824 0.930 . S
C3838 C3836 1.395 . S
C3838 C3841 1.403 . S
C3839 C3836 1.403 . S
C3839 C3840 1.524 . S
C3839 C3843 1.400 . S
C3840 H3825 0.960 . S
C3840 H3826 0.960 . S
C3840 H3827 0.960 . S
C3840 C3839 1.524 . S
C3841 C3838 1.403 . S
C3841 C3842 1.392 . S
C3841 C3845 1.495 . S
C3842 C3841 1.392 . S
C3842 C3843 1.385 . S
C3842 C3844 1.478 . S
C3843 H3837 0.930 . S
C3843 C3839 1.400 . S
C3843 C3842 1.385 . S
C3844 C3842 1.478 . S
C3844 C3846 1.381 . S
C3844 C3850 1.383 . S
C3845 C3841 1.495 . S
C3845 H3851 0.959 . S
C3845 H3852 0.961 . S
C3845 H3853 0.960 . S
C3846 C3844 1.381 . S
C3846 C3847 1.394 . S
C3846 H3854 0.930 . S
C3847 C3846 1.394 . S
C3847 C3848 1.383 . S
C3847 H3855 0.929 . S
C3848 C3847 1.383 . S
C3848 C3849 1.377 . S
C3849 H3833 0.930 . S
C3849 C3848 1.377 . S
C3849 C3850 1.379 . S
C3850 H3834 0.931 . S
C3850 C3844 1.383 . S
C3850 C3849 1.379 . S
H3851 C3845 0.959 . S
H3852 C3845 0.961 . S
H3853 C3845 0.960 . S
H3854 C3846 0.930 . S
H3855 C3847 0.929 . S
H3856 C3864 0.929 . S
H3857 C3866 0.930 . S
H3858 C3868 0.930 . S
H3859 C3871 0.929 . S
H3860 C3874 0.930 . S
H3861 C3876 0.960 . S
H3862 C3876 0.960 . S
H3863 C3876 0.960 . S
C3864 H3856 0.929 . S
C3864 C3865 1.377 . S
C3864 C3866 1.384 . S
C3865 C3864 1.377 . S
C3865 C3871 1.390 . S
C3866 H3857 0.930 . S
C3866 C3864 1.384 . S
C3866 C3867 1.372 . S
C3867 C3866 1.372 . S
C3867 C3868 1.400 . S
C3867 C3872 1.490 . S
C3868 H3858 0.930 . S
C3868 C3867 1.400 . S
C3868 C3871 1.386 . S
H3869 C3885 0.930 . S
H3870 C3886 0.931 . S
C3871 H3859 0.929 . S
C3871 C3865 1.390 . S
C3871 C3868 1.386 . S
C3872 C3867 1.490 . S
C3872 C3874 1.395 . S
C3872 C3875 1.403 . S
H3873 C3879 0.930 . S
C3874 H3860 0.930 . S
C3874 C3872 1.395 . S
C3874 C3877 1.403 . S
C3875 C3872 1.403 . S
C3875 C3876 1.524 . S
C3875 C3879 1.400 . S
C3876 H3861 0.960 . S
C3876 H3862 0.960 . S
C3876 H3863 0.960 . S
C3876 C3875 1.524 . S
C3877 C3874 1.403 . S
C3877 C3878 1.392 . S
C3877 C3881 1.495 . S
C3878 C3877 1.392 . S
C3878 C3879 1.385 . S
C3878 C3880 1.478 . S
C3879 H3873 0.930 . S
C3879 C3875 1.400 . S
C3879 C3878 1.385 . S
C3880 C3878 1.478 . S
C3880 C3882 1.381 . S
C3880 C3886 1.383 . S
C3881 C3877 1.495 . S
C3881 H3887 0.959 . S
C3881 H3888 0.961 . S
C3881 H3889 0.960 . S
C3882 C3880 1.381 . S
C3882 C3883 1.394 . S
C3882 H3890 0.930 . S
C3883 C3882 1.394 . S
C3883 C3884 1.383 . S
C3883 H3891 0.929 . S
C3884 C3883 1.383 . S
C3884 C3885 1.377 . S
C3885 H3869 0.930 . S
C3885 C3884 1.377 . S
C3885 C3886 1.379 . S
C3886 H3870 0.931 . S
C3886 C3880 1.383 . S
C3886 C3885 1.379 . S
H3887 C3881 0.959 . S
H3888 C3881 0.961 . S
H3889 C3881 0.960 . S
H3890 C3882 0.930 . S
H3891 C3883 0.929 . S
H3892 C3900 0.929 . S
H3893 C3902 0.930 . S
H3894 C3904 0.930 . S
H3895 C3907 0.929 . S
H3896 C3910 0.930 . S
H3897 C3912 0.960 . S
H3898 C3912 0.960 . S
H3899 C3912 0.960 . S
C3900 H3892 0.929 . S
C3900 C3901 1.377 . S
C3900 C3902 1.384 . S
C3901 C3900 1.377 . S
C3901 C3907 1.390 . S
C3902 H3893 0.930 . S
C3902 C3900 1.384 . S
C3902 C3903 1.372 . S
C3903 C3902 1.372 . S
C3903 C3904 1.400 . S
C3903 C3908 1.490 . S
C3904 H3894 0.930 . S
C3904 C3903 1.400 . S
C3904 C3907 1.386 . S
H3905 C3921 0.930 . S
H3906 C3922 0.931 . S
C3907 H3895 0.929 . S
C3907 C3901 1.390 . S
C3907 C3904 1.386 . S
C3908 C3903 1.490 . S
C3908 C3910 1.395 . S
C3908 C3911 1.403 . S
H3909 C3915 0.930 . S
C3910 H3896 0.930 . S
C3910 C3908 1.395 . S
C3910 C3913 1.403 . S
C3911 C3908 1.403 . S
C3911 C3912 1.524 . S
C3911 C3915 1.400 . S
C3912 H3897 0.960 . S
C3912 H3898 0.960 . S
C3912 H3899 0.960 . S
C3912 C3911 1.524 . S
C3913 C3910 1.403 . S
C3913 C3914 1.392 . S
C3913 C3917 1.495 . S
C3914 C3913 1.392 . S
C3914 C3915 1.385 . S
C3914 C3916 1.478 . S
C3915 H3909 0.930 . S
C3915 C3911 1.400 . S
C3915 C3914 1.385 . S
C3916 C3914 1.478 . S
C3916 C3918 1.381 . S
C3916 C3922 1.383 . S
C3917 C3913 1.495 . S
C3917 H3923 0.959 . S
C3917 H3924 0.961 . S
C3917 H3925 0.960 . S
C3918 C3916 1.381 . S
C3918 C3919 1.394 . S
C3918 H3926 0.930 . S
C3919 C3918 1.394 . S
C3919 C3920 1.383 . S
C3919 H3927 0.929 . S
C3920 C3919 1.383 . S
C3920 C3921 1.377 . S
C3921 H3905 0.930 . S
C3921 C3920 1.377 . S
C3921 C3922 1.379 . S
C3922 H3906 0.931 . S
C3922 C3916 1.383 . S
C3922 C3921 1.379 . S
H3923 C3917 0.959 . S
H3924 C3917 0.961 . S
H3925 C3917 0.960 . S
H3926 C3918 0.930 . S
H3927 C3919 0.929 . S
H3928 C3936 0.929 . S
H3929 C3938 0.930 . S
H3930 C3940 0.930 . S
H3931 C3943 0.929 . S
H3932 C3946 0.930 . S
H3933 C3948 0.960 . S
H3934 C3948 0.960 . S
H3935 C3948 0.960 . S
C3936 H3928 0.929 . S
C3936 C3937 1.377 . S
C3936 C3938 1.384 . S
C3937 C3936 1.377 . S
C3937 C3943 1.390 . S
C3938 H3929 0.930 . S
C3938 C3936 1.384 . S
C3938 C3939 1.372 . S
C3939 C3938 1.372 . S
C3939 C3940 1.400 . S
C3939 C3944 1.490 . S
C3940 H3930 0.930 . S
C3940 C3939 1.400 . S
C3940 C3943 1.386 . S
H3941 C3957 0.930 . S
H3942 C3958 0.931 . S
C3943 H3931 0.929 . S
C3943 C3937 1.390 . S
C3943 C3940 1.386 . S
C3944 C3939 1.490 . S
C3944 C3946 1.395 . S
C3944 C3947 1.403 . S
H3945 C3951 0.930 . S
C3946 H3932 0.930 . S
C3946 C3944 1.395 . S
C3946 C3949 1.403 . S
C3947 C3944 1.403 . S
C3947 C3948 1.524 . S
C3947 C3951 1.400 . S
C3948 H3933 0.960 . S
C3948 H3934 0.960 . S
C3948 H3935 0.960 . S
C3948 C3947 1.524 . S
C3949 C3946 1.403 . S
C3949 C3950 1.392 . S
C3949 C3953 1.495 . S
C3950 C3949 1.392 . S
C3950 C3951 1.385 . S
C3950 C3952 1.478 . S
C3951 H3945 0.930 . S
C3951 C3947 1.400 . S
C3951 C3950 1.385 . S
C3952 C3950 1.478 . S
C3952 C3954 1.381 1_655 S
C3952 C3958 1.383 . S
C3953 C3949 1.495 . S
C3953 H3959 0.959 . S
C3953 H3960 0.961 . S
C3953 H3961 0.960 . S
C3954 C3952 1.381 1_455 S
C3954 C3955 1.394 . S
C3954 H3962 0.930 . S
C3955 C3954 1.394 . S
C3955 C3956 1.383 . S
C3955 H3963 0.929 . S
C3956 C3955 1.383 . S
C3956 C3957 1.377 1_455 S
C3957 H3941 0.930 . S
C3957 C3956 1.377 1_655 S
C3957 C3958 1.379 . S
C3958 H3942 0.931 . S
C3958 C3952 1.383 . S
C3958 C3957 1.379 . S
H3959 C3953 0.959 . S
H3960 C3953 0.961 . S
H3961 C3953 0.960 . S
H3962 C3954 0.930 . S
H3963 C3955 0.929 . S
H3964 C3972 0.929 . S
H3965 C3974 0.930 . S
H3966 C3976 0.930 . S
H3967 C3979 0.929 . S
H3968 C3982 0.930 . S
H3969 C3984 0.960 . S
H3970 C3984 0.960 . S
H3971 C3984 0.960 . S
C3972 H3964 0.929 . S
C3972 C3973 1.377 . S
C3972 C3974 1.384 . S
C3973 C3972 1.377 . S
C3973 C3979 1.390 . S
C3974 H3965 0.930 . S
C3974 C3972 1.384 . S
C3974 C3975 1.372 . S
C3975 C3974 1.372 . S
C3975 C3976 1.400 . S
C3975 C3980 1.490 . S
C3976 H3966 0.930 . S
C3976 C3975 1.400 . S
C3976 C3979 1.386 . S
H3977 C3993 0.930 . S
H3978 C3994 0.931 . S
C3979 H3967 0.929 . S
C3979 C3973 1.390 . S
C3979 C3976 1.386 . S
C3980 C3975 1.490 . S
C3980 C3982 1.395 . S
C3980 C3983 1.403 . S
H3981 C3987 0.930 . S
C3982 H3968 0.930 . S
C3982 C3980 1.395 . S
C3982 C3985 1.403 . S
C3983 C3980 1.403 . S
C3983 C3984 1.524 . S
C3983 C3987 1.400 . S
C3984 H3969 0.960 . S
C3984 H3970 0.960 . S
C3984 H3971 0.960 . S
C3984 C3983 1.524 . S
C3985 C3982 1.403 . S
C3985 C3986 1.392 . S
C3985 C3989 1.495 . S
C3986 C3985 1.392 . S
C3986 C3987 1.385 . S
C3986 C3988 1.478 . S
C3987 H3981 0.930 . S
C3987 C3983 1.400 . S
C3987 C3986 1.385 . S
C3988 C3986 1.478 . S
C3988 C3990 1.381 . S
C3988 C3994 1.383 . S
C3989 C3985 1.495 . S
C3989 H3995 0.959 . S
C3989 H3996 0.961 . S
C3989 H3997 0.960 . S
C3990 C3988 1.381 . S
C3990 C3991 1.394 . S
C3990 H3998 0.930 . S
C3991 C3990 1.394 . S
C3991 C3992 1.383 . S
C3991 H3999 0.929 . S
C3992 C3991 1.383 . S
C3992 C3993 1.377 . S
C3993 H3977 0.930 . S
C3993 C3992 1.377 . S
C3993 C3994 1.379 . S
C3994 H3978 0.931 . S
C3994 C3988 1.383 . S
C3994 C3993 1.379 . S
H3995 C3989 0.959 . S
H3996 C3989 0.961 . S
H3997 C3989 0.960 . S
H3998 C3990 0.930 . S
H3999 C3991 0.929 . S
H4000 C4008 0.929 . S
H4001 C4010 0.930 . S
H4002 C4012 0.930 . S
H4003 C4015 0.929 . S
H4004 C4018 0.930 . S
H4005 C4020 0.960 . S
H4006 C4020 0.960 . S
H4007 C4020 0.960 . S
C4008 H4000 0.929 . S
C4008 C4009 1.377 . S
C4008 C4010 1.384 . S
C4009 C4008 1.377 . S
C4009 C4015 1.390 . S
C4010 H4001 0.930 . S
C4010 C4008 1.384 . S
C4010 C4011 1.372 . S
C4011 C4010 1.372 . S
C4011 C4012 1.400 . S
C4011 C4016 1.490 . S
C4012 H4002 0.930 . S
C4012 C4011 1.400 . S
C4012 C4015 1.386 . S
H4013 C4029 0.930 . S
H4014 C4030 0.931 . S
C4015 H4003 0.929 . S
C4015 C4009 1.390 . S
C4015 C4012 1.386 . S
C4016 C4011 1.490 . S
C4016 C4018 1.395 . S
C4016 C4019 1.403 . S
H4017 C4023 0.930 . S
C4018 H4004 0.930 . S
C4018 C4016 1.395 . S
C4018 C4021 1.403 . S
C4019 C4016 1.403 . S
C4019 C4020 1.524 . S
C4019 C4023 1.400 . S
C4020 H4005 0.960 . S
C4020 H4006 0.960 . S
C4020 H4007 0.960 . S
C4020 C4019 1.524 . S
C4021 C4018 1.403 . S
C4021 C4022 1.392 . S
C4021 C4025 1.495 . S
C4022 C4021 1.392 . S
C4022 C4023 1.385 . S
C4022 C4024 1.478 . S
C4023 H4017 0.930 . S
C4023 C4019 1.400 . S
C4023 C4022 1.385 . S
C4024 C4022 1.478 . S
C4024 C4026 1.381 . S
C4024 C4030 1.383 . S
C4025 C4021 1.495 . S
C4025 H4031 0.959 . S
C4025 H4032 0.961 . S
C4025 H4033 0.960 . S
C4026 C4024 1.381 . S
C4026 C4027 1.394 . S
C4026 H4034 0.930 . S
C4027 C4026 1.394 . S
C4027 C4028 1.383 . S
C4027 H4035 0.929 . S
C4028 C4027 1.383 . S
C4028 C4029 1.377 . S
C4029 H4013 0.930 . S
C4029 C4028 1.377 . S
C4029 C4030 1.379 . S
C4030 H4014 0.931 . S
C4030 C4024 1.383 . S
C4030 C4029 1.379 . S
H4031 C4025 0.959 . S
H4032 C4025 0.961 . S
H4033 C4025 0.960 . S
H4034 C4026 0.930 . S
H4035 C4027 0.929 . S
H4036 C4044 0.929 . S
H4037 C4046 0.930 . S
H4038 C4048 0.930 . S
H4039 C4051 0.929 1_554 S
H4040 C4054 0.930 . S
H4041 C4056 0.960 . S
H4042 C4056 0.960 . S
H4043 C4056 0.960 . S
C4044 H4036 0.929 . S
C4044 C4045 1.377 . S
C4044 C4046 1.384 . S
C4045 C4044 1.377 . S
C4045 C4051 1.390 . S
C4046 H4037 0.930 . S
C4046 C4044 1.384 . S
C4046 C4047 1.372 . S
C4047 C4046 1.372 . S
C4047 C4048 1.400 . S
C4047 C4052 1.490 . S
C4048 H4038 0.930 . S
C4048 C4047 1.400 . S
C4048 C4051 1.386 . S
H4049 C4065 0.930 . S
H4050 C4066 0.931 . S
C4051 H4039 0.929 1_556 S
C4051 C4045 1.390 . S
C4051 C4048 1.386 . S
C4052 C4047 1.490 . S
C4052 C4054 1.395 . S
C4052 C4055 1.403 . S
H4053 C4059 0.930 . S
C4054 H4040 0.930 . S
C4054 C4052 1.395 . S
C4054 C4057 1.403 . S
C4055 C4052 1.403 . S
C4055 C4056 1.524 . S
C4055 C4059 1.400 . S
C4056 H4041 0.960 . S
C4056 H4042 0.960 . S
C4056 H4043 0.960 . S
C4056 C4055 1.524 . S
C4057 C4054 1.403 . S
C4057 C4058 1.392 . S
C4057 C4061 1.495 . S
C4058 C4057 1.392 . S
C4058 C4059 1.385 . S
C4058 C4060 1.478 . S
C4059 H4053 0.930 . S
C4059 C4055 1.400 . S
C4059 C4058 1.385 . S
C4060 C4058 1.478 . S
C4060 C4062 1.381 . S
C4060 C4066 1.383 . S
C4061 C4057 1.495 . S
C4061 H4067 0.959 . S
C4061 H4068 0.961 . S
C4061 H4069 0.960 . S
C4062 C4060 1.381 . S
C4062 C4063 1.394 . S
C4062 H4070 0.930 . S
C4063 C4062 1.394 . S
C4063 C4064 1.383 . S
C4063 H4071 0.929 . S
C4064 C4063 1.383 . S
C4064 C4065 1.377 . S
C4065 H4049 0.930 . S
C4065 C4064 1.377 . S
C4065 C4066 1.379 . S
C4066 H4050 0.931 . S
C4066 C4060 1.383 . S
C4066 C4065 1.379 . S
H4067 C4061 0.959 . S
H4068 C4061 0.961 . S
H4069 C4061 0.960 . S
H4070 C4062 0.930 . S
H4071 C4063 0.929 . S
H4072 C4080 0.929 . S
H4073 C4082 0.930 . S
H4074 C4084 0.930 . S
H4075 C4087 0.929 . S
H4076 C4090 0.930 . S
H4077 C4092 0.960 . S
H4078 C4092 0.960 . S
H4079 C4092 0.960 . S
C4080 H4072 0.929 . S
C4080 C4081 1.377 . S
C4080 C4082 1.384 . S
C4081 C4080 1.377 . S
C4081 C4087 1.390 . S
C4082 H4073 0.930 . S
C4082 C4080 1.384 . S
C4082 C4083 1.372 . S
C4083 C4082 1.372 . S
C4083 C4084 1.400 . S
C4083 C4088 1.490 . S
C4084 H4074 0.930 . S
C4084 C4083 1.400 . S
C4084 C4087 1.386 . S
H4085 C4101 0.930 . S
H4086 C4102 0.931 1_455 S
C4087 H4075 0.929 . S
C4087 C4081 1.390 . S
C4087 C4084 1.386 . S
C4088 C4083 1.490 . S
C4088 C4090 1.395 . S
C4088 C4091 1.403 . S
H4089 C4095 0.930 . S
C4090 H4076 0.930 . S
C4090 C4088 1.395 . S
C4090 C4093 1.403 . S
C4091 C4088 1.403 . S
C4091 C4092 1.524 . S
C4091 C4095 1.400 . S
C4092 H4077 0.960 . S
C4092 H4078 0.960 . S
C4092 H4079 0.960 . S
C4092 C4091 1.524 . S
C4093 C4090 1.403 . S
C4093 C4094 1.392 . S
C4093 C4097 1.495 . S
C4094 C4093 1.392 . S
C4094 C4095 1.385 . S
C4094 C4096 1.478 . S
C4095 H4089 0.930 . S
C4095 C4091 1.400 . S
C4095 C4094 1.385 . S
C4096 C4094 1.478 . S
C4096 C4098 1.381 . S
C4096 C4102 1.381 . S
C4097 C4093 1.495 . S
C4097 H4103 0.959 . S
C4097 H4104 0.961 . S
C4097 H4105 0.960 . S
C4098 C4096 1.381 . S
C4098 C4099 1.394 . S
C4098 H4106 0.930 . S
C4099 C4098 1.394 . S
C4099 C4100 1.383 . S
C4099 H4107 0.929 . S
C4100 C4099 1.383 . S
C4100 C4101 1.377 1_655 S
C4101 H4085 0.930 . S
C4101 C4100 1.377 1_455 S
C4101 C4102 1.380 1_455 S
C4102 H4086 0.931 1_655 S
C4102 C4096 1.381 . S
C4102 C4101 1.380 1_655 S
H4103 C4097 0.959 . S
H4104 C4097 0.961 . S
H4105 C4097 0.960 . S
H4106 C4098 0.930 . S
H4107 C4099 0.929 . S
H4108 C4116 0.929 . S
H4109 C4118 0.930 . S
H4110 C4120 0.930 . S
H4111 C4123 0.929 . S
H4112 C4126 0.930 . S
H4113 C4128 0.960 . S
H4114 C4128 0.960 . S
H4115 C4128 0.960 . S
C4116 H4108 0.929 . S
C4116 C4117 1.377 . S
C4116 C4118 1.384 . S
C4117 C4116 1.377 . S
C4117 C4123 1.390 . S
C4118 H4109 0.930 . S
C4118 C4116 1.384 . S
C4118 C4119 1.372 . S
C4119 C4118 1.372 . S
C4119 C4120 1.400 . S
C4119 C4124 1.490 . S
C4120 H4110 0.930 . S
C4120 C4119 1.400 . S
C4120 C4123 1.386 . S
H4121 C4137 0.930 . S
H4122 C4138 0.931 . S
C4123 H4111 0.929 . S
C4123 C4117 1.390 . S
C4123 C4120 1.386 . S
C4124 C4119 1.490 . S
C4124 C4126 1.395 . S
C4124 C4127 1.403 . S
H4125 C4131 0.930 . S
C4126 H4112 0.930 . S
C4126 C4124 1.395 . S
C4126 C4129 1.403 . S
C4127 C4124 1.403 . S
C4127 C4128 1.524 . S
C4127 C4131 1.400 . S
C4128 H4113 0.960 . S
C4128 H4114 0.960 . S
C4128 H4115 0.960 . S
C4128 C4127 1.524 . S
C4129 C4126 1.403 . S
C4129 C4130 1.392 . S
C4129 C4133 1.495 . S
C4130 C4129 1.392 . S
C4130 C4131 1.385 . S
C4130 C4132 1.478 . S
C4131 H4125 0.930 . S
C4131 C4127 1.400 . S
C4131 C4130 1.385 . S
C4132 C4130 1.478 . S
C4132 C4134 1.381 . S
C4132 C4138 1.383 . S
C4133 C4129 1.495 . S
C4133 H4139 0.959 . S
C4133 H4140 0.961 . S
C4133 H4141 0.960 . S
C4134 C4132 1.381 . S
C4134 C4135 1.394 . S
C4134 H4142 0.930 . S
C4135 C4134 1.394 . S
C4135 C4136 1.383 . S
C4135 H4143 0.929 . S
C4136 C4135 1.383 . S
C4136 C4137 1.377 . S
C4137 H4121 0.930 . S
C4137 C4136 1.377 . S
C4137 C4138 1.379 . S
C4138 H4122 0.931 . S
C4138 C4132 1.383 . S
C4138 C4137 1.379 . S
H4139 C4133 0.959 . S
H4140 C4133 0.961 . S
H4141 C4133 0.960 . S
H4142 C4134 0.930 . S
H4143 C4135 0.929 . S
H4144 C4152 0.929 . S
H4145 C4154 0.930 . S
H4146 C4156 0.930 . S
H4147 C4159 0.929 . S
H4148 C4162 0.930 . S
H4149 C4164 0.960 . S
H4150 C4164 0.960 . S
H4151 C4164 0.960 . S
C4152 H4144 0.929 . S
C4152 C4153 1.377 . S
C4152 C4154 1.384 . S
C4153 C4152 1.377 . S
C4153 C4159 1.390 . S
C4154 H4145 0.930 . S
C4154 C4152 1.384 . S
C4154 C4155 1.372 . S
C4155 C4154 1.372 . S
C4155 C4156 1.400 . S
C4155 C4160 1.490 . S
C4156 H4146 0.930 . S
C4156 C4155 1.400 . S
C4156 C4159 1.386 . S
H4157 C4173 0.930 . S
H4158 C4174 0.931 . S
C4159 H4147 0.929 . S
C4159 C4153 1.390 . S
C4159 C4156 1.386 . S
C4160 C4155 1.490 . S
C4160 C4162 1.395 . S
C4160 C4163 1.403 . S
H4161 C4167 0.930 . S
C4162 H4148 0.930 . S
C4162 C4160 1.395 . S
C4162 C4165 1.403 . S
C4163 C4160 1.403 . S
C4163 C4164 1.524 . S
C4163 C4167 1.400 . S
C4164 H4149 0.960 . S
C4164 H4150 0.960 . S
C4164 H4151 0.960 . S
C4164 C4163 1.524 . S
C4165 C4162 1.403 . S
C4165 C4166 1.392 . S
C4165 C4169 1.495 . S
C4166 C4165 1.392 . S
C4166 C4167 1.385 . S
C4166 C4168 1.478 . S
C4167 H4161 0.930 . S
C4167 C4163 1.400 . S
C4167 C4166 1.385 . S
C4168 C4166 1.478 . S
C4168 C4170 1.381 . S
C4168 C4174 1.383 . S
C4169 C4165 1.495 . S
C4169 H4175 0.959 . S
C4169 H4176 0.961 . S
C4169 H4177 0.960 . S
C4170 C4168 1.381 . S
C4170 C4171 1.394 . S
C4170 H4178 0.930 . S
C4171 C4170 1.394 . S
C4171 C4172 1.383 . S
C4171 H4179 0.929 . S
C4172 C4171 1.383 . S
C4172 C4173 1.377 . S
C4173 H4157 0.930 . S
C4173 C4172 1.377 . S
C4173 C4174 1.379 . S
C4174 H4158 0.931 . S
C4174 C4168 1.383 . S
C4174 C4173 1.379 . S
H4175 C4169 0.959 . S
H4176 C4169 0.961 . S
H4177 C4169 0.960 . S
H4178 C4170 0.930 . S
H4179 C4171 0.929 . S
H4180 C4188 0.929 . S
H4181 C4190 0.931 1_545 S
H4182 C4192 0.930 . S
H4183 C4195 0.929 . S
H4184 C4198 0.930 . S
H4185 C4200 0.960 . S
H4186 C4200 0.960 . S
H4187 C4200 0.960 . S
C4188 H4180 0.929 . S
C4188 C4189 1.377 . S
C4188 C4190 1.384 . S
C4189 C4188 1.377 . S
C4189 C4195 1.390 . S
C4190 H4181 0.931 1_565 S
C4190 C4188 1.384 . S
C4190 C4191 1.372 . S
C4191 C4190 1.372 . S
C4191 C4192 1.400 . S
C4191 C4196 1.490 1_565 S
C4192 H4182 0.930 . S
C4192 C4191 1.400 . S
C4192 C4195 1.386 . S
H4193 C4209 0.930 . S
H4194 C4210 0.931 . S
C4195 H4183 0.929 . S
C4195 C4189 1.390 . S
C4195 C4192 1.386 . S
C4196 C4191 1.490 1_545 S
C4196 C4198 1.395 . S
C4196 C4199 1.402 1_545 S
H4197 C4203 0.930 . S
C4198 H4184 0.930 . S
C4198 C4196 1.395 . S
C4198 C4201 1.403 . S
C4199 C4196 1.402 1_565 S
C4199 C4200 1.524 . S
C4199 C4203 1.400 . S
C4200 H4185 0.960 . S
C4200 H4186 0.960 . S
C4200 H4187 0.960 . S
C4200 C4199 1.524 . S
C4201 C4198 1.403 . S
C4201 C4202 1.392 . S
C4201 C4205 1.495 . S
C4202 C4201 1.392 . S
C4202 C4203 1.385 1_545 S
C4202 C4204 1.478 . S
C4203 H4197 0.930 . S
C4203 C4199 1.400 . S
C4203 C4202 1.385 1_565 S
C4204 C4202 1.478 . S
C4204 C4206 1.381 . S
C4204 C4210 1.383 . S
C4205 C4201 1.495 . S
C4205 H4211 0.959 . S
C4205 H4212 0.961 . S
C4205 H4213 0.960 . S
C4206 C4204 1.381 . S
C4206 C4207 1.394 . S
C4206 H4214 0.930 . S
C4207 C4206 1.394 . S
C4207 C4208 1.383 . S
C4207 H4215 0.929 . S
C4208 C4207 1.383 . S
C4208 C4209 1.377 . S
C4209 H4193 0.930 . S
C4209 C4208 1.377 . S
C4209 C4210 1.379 . S
C4210 H4194 0.931 . S
C4210 C4204 1.383 . S
C4210 C4209 1.379 . S
H4211 C4205 0.959 . S
H4212 C4205 0.961 . S
H4213 C4205 0.960 . S
H4214 C4206 0.930 . S
H4215 C4207 0.929 . S
H4216 C4224 0.929 . S
H4217 C4226 0.930 . S
H4218 C4228 0.930 . S
H4219 C4231 0.929 . S
H4220 C4234 0.930 . S
H4221 C4236 0.960 . S
H4222 C4236 0.960 . S
H4223 C4236 0.960 . S
C4224 H4216 0.929 . S
C4224 C4225 1.377 . S
C4224 C4226 1.384 . S
C4225 C4224 1.377 . S
C4225 C4231 1.390 . S
C4226 H4217 0.930 . S
C4226 C4224 1.384 . S
C4226 C4227 1.372 . S
C4227 C4226 1.372 . S
C4227 C4228 1.400 . S
C4227 C4232 1.490 . S
C4228 H4218 0.930 . S
C4228 C4227 1.400 . S
C4228 C4231 1.386 . S
H4229 C4245 0.930 . S
H4230 C4246 0.931 . S
C4231 H4219 0.929 . S
C4231 C4225 1.390 . S
C4231 C4228 1.386 . S
C4232 C4227 1.490 . S
C4232 C4234 1.395 . S
C4232 C4235 1.403 . S
H4233 C4239 0.930 . S
C4234 H4220 0.930 . S
C4234 C4232 1.395 . S
C4234 C4237 1.403 . S
C4235 C4232 1.403 . S
C4235 C4236 1.524 . S
C4235 C4239 1.400 . S
C4236 H4221 0.960 . S
C4236 H4222 0.960 . S
C4236 H4223 0.960 . S
C4236 C4235 1.524 . S
C4237 C4234 1.403 . S
C4237 C4238 1.392 . S
C4237 C4241 1.495 . S
C4238 C4237 1.392 . S
C4238 C4239 1.385 . S
C4238 C4240 1.478 . S
C4239 H4233 0.930 . S
C4239 C4235 1.400 . S
C4239 C4238 1.385 . S
C4240 C4238 1.478 . S
C4240 C4242 1.381 . S
C4240 C4246 1.383 . S
C4241 C4237 1.495 . S
C4241 H4247 0.959 . S
C4241 H4248 0.961 . S
C4241 H4249 0.960 . S
C4242 C4240 1.381 . S
C4242 C4243 1.394 . S
C4242 H4250 0.930 . S
C4243 C4242 1.394 . S
C4243 C4244 1.383 . S
C4243 H4251 0.929 . S
C4244 C4243 1.383 . S
C4244 C4245 1.377 . S
C4245 H4229 0.930 . S
C4245 C4244 1.377 . S
C4245 C4246 1.379 . S
C4246 H4230 0.931 . S
C4246 C4240 1.383 . S
C4246 C4245 1.379 . S
H4247 C4241 0.959 . S
H4248 C4241 0.961 . S
H4249 C4241 0.960 . S
H4250 C4242 0.930 . S
H4251 C4243 0.929 . S
H4252 C4260 0.929 . S
H4253 C4262 0.930 . S
H4254 C4264 0.930 . S
H4255 C4267 0.929 . S
H4256 C4270 0.930 . S
H4257 C4272 0.960 . S
H4258 C4272 0.960 . S
H4259 C4272 0.960 . S
C4260 H4252 0.929 . S
C4260 C4261 1.377 . S
C4260 C4262 1.384 . S
C4261 C4260 1.377 . S
C4261 C4267 1.390 . S
C4262 H4253 0.930 . S
C4262 C4260 1.384 . S
C4262 C4263 1.372 . S
C4263 C4262 1.372 . S
C4263 C4264 1.400 . S
C4263 C4268 1.490 . S
C4264 H4254 0.930 . S
C4264 C4263 1.400 . S
C4264 C4267 1.386 . S
H4265 C4281 0.930 . S
H4266 C4282 0.931 . S
C4267 H4255 0.929 . S
C4267 C4261 1.390 . S
C4267 C4264 1.386 . S
C4268 C4263 1.490 . S
C4268 C4270 1.395 . S
C4268 C4271 1.403 . S
H4269 C4275 0.930 . S
C4270 H4256 0.930 . S
C4270 C4268 1.395 . S
C4270 C4273 1.403 . S
C4271 C4268 1.403 . S
C4271 C4272 1.524 . S
C4271 C4275 1.400 . S
C4272 H4257 0.960 . S
C4272 H4258 0.960 . S
C4272 H4259 0.960 . S
C4272 C4271 1.524 . S
C4273 C4270 1.403 . S
C4273 C4274 1.392 . S
C4273 C4277 1.495 . S
C4274 C4273 1.392 . S
C4274 C4275 1.385 . S
C4274 C4276 1.478 . S
C4275 H4269 0.930 . S
C4275 C4271 1.400 . S
C4275 C4274 1.385 . S
C4276 C4274 1.478 . S
C4276 C4278 1.381 . S
C4276 C4282 1.383 . S
C4277 C4273 1.495 . S
C4277 H4283 0.959 . S
C4277 H4284 0.961 . S
C4277 H4285 0.960 . S
C4278 C4276 1.381 . S
C4278 C4279 1.394 . S
C4278 H4286 0.930 . S
C4279 C4278 1.394 . S
C4279 C4280 1.383 . S
C4279 H4287 0.929 . S
C4280 C4279 1.383 . S
C4280 C4281 1.377 . S
C4281 H4265 0.930 . S
C4281 C4280 1.377 . S
C4281 C4282 1.379 . S
C4282 H4266 0.931 . S
C4282 C4276 1.383 . S
C4282 C4281 1.379 . S
H4283 C4277 0.959 . S
H4284 C4277 0.961 . S
H4285 C4277 0.960 . S
H4286 C4278 0.930 . S
H4287 C4279 0.929 . S
H4288 C4296 0.929 . S
H4289 C4298 0.930 . S
H4290 C4300 0.930 . S
H4291 C4303 0.929 . S
H4292 C4306 0.930 . S
H4293 C4308 0.960 . S
H4294 C4308 0.960 . S
H4295 C4308 0.960 . S
C4296 H4288 0.929 . S
C4296 C4297 1.377 . S
C4296 C4298 1.384 . S
C4297 C4296 1.377 . S
C4297 C4303 1.390 . S
C4298 H4289 0.930 . S
C4298 C4296 1.384 . S
C4298 C4299 1.372 . S
C4299 C4298 1.372 . S
C4299 C4300 1.400 . S
C4299 C4304 1.490 . S
C4300 H4290 0.930 . S
C4300 C4299 1.400 . S
C4300 C4303 1.386 . S
H4301 C4317 0.930 . S
H4302 C4318 0.931 . S
C4303 H4291 0.929 . S
C4303 C4297 1.390 . S
C4303 C4300 1.386 . S
C4304 C4299 1.490 . S
C4304 C4306 1.395 . S
C4304 C4307 1.403 . S
H4305 C4311 0.930 . S
C4306 H4292 0.930 . S
C4306 C4304 1.395 . S
C4306 C4309 1.403 . S
C4307 C4304 1.403 . S
C4307 C4308 1.524 . S
C4307 C4311 1.400 . S
C4308 H4293 0.960 . S
C4308 H4294 0.960 . S
C4308 H4295 0.960 . S
C4308 C4307 1.524 . S
C4309 C4306 1.403 . S
C4309 C4310 1.392 . S
C4309 C4313 1.495 . S
C4310 C4309 1.392 . S
C4310 C4311 1.385 . S
C4310 C4312 1.478 . S
C4311 H4305 0.930 . S
C4311 C4307 1.400 . S
C4311 C4310 1.385 . S
C4312 C4310 1.478 . S
C4312 C4314 1.381 . S
C4312 C4318 1.383 . S
C4313 C4309 1.495 . S
C4313 H4319 0.959 . S
C4313 H4320 0.961 . S
C4313 H4321 0.960 . S
C4314 C4312 1.381 . S
C4314 C4315 1.394 . S
C4314 H4322 0.930 . S
C4315 C4314 1.394 . S
C4315 C4316 1.383 . S
C4315 H4323 0.929 . S
C4316 C4315 1.383 . S
C4316 C4317 1.377 . S
C4317 H4301 0.930 . S
C4317 C4316 1.377 . S
C4317 C4318 1.379 . S
C4318 H4302 0.931 . S
C4318 C4312 1.383 . S
C4318 C4317 1.379 . S
H4319 C4313 0.959 . S
H4320 C4313 0.961 . S
H4321 C4313 0.960 . S
H4322 C4314 0.930 . S
H4323 C4315 0.929 . S
H4324 C4332 0.929 . S
H4325 C4334 0.930 . S
H4326 C4336 0.930 . S
H4327 C4339 0.929 . S
H4328 C4342 0.930 . S
H4329 C4344 0.960 . S
H4330 C4344 0.960 . S
H4331 C4344 0.960 . S
C4332 H4324 0.929 . S
C4332 C4333 1.377 . S
C4332 C4334 1.384 . S
C4333 C4332 1.377 . S
C4333 C4339 1.390 . S
C4334 H4325 0.930 . S
C4334 C4332 1.384 . S
C4334 C4335 1.372 . S
C4335 C4334 1.372 . S
C4335 C4336 1.400 . S
C4335 C4340 1.490 . S
C4336 H4326 0.930 . S
C4336 C4335 1.400 . S
C4336 C4339 1.386 . S
H4337 C4353 0.930 . S
H4338 C4354 0.931 . S
C4339 H4327 0.929 . S
C4339 C4333 1.390 . S
C4339 C4336 1.386 . S
C4340 C4335 1.490 . S
C4340 C4342 1.395 . S
C4340 C4343 1.403 . S
H4341 C4347 0.930 . S
C4342 H4328 0.930 . S
C4342 C4340 1.395 . S
C4342 C4345 1.403 . S
C4343 C4340 1.403 . S
C4343 C4344 1.524 . S
C4343 C4347 1.400 . S
C4344 H4329 0.960 . S
C4344 H4330 0.960 . S
C4344 H4331 0.960 . S
C4344 C4343 1.524 . S
C4345 C4342 1.403 . S
C4345 C4346 1.392 . S
C4345 C4349 1.495 . S
C4346 C4345 1.392 . S
C4346 C4347 1.385 . S
C4346 C4348 1.478 . S
C4347 H4341 0.930 . S
C4347 C4343 1.400 . S
C4347 C4346 1.385 . S
C4348 C4346 1.478 . S
C4348 C4350 1.381 . S
C4348 C4354 1.383 . S
C4349 C4345 1.495 . S
C4349 H4355 0.959 . S
C4349 H4356 0.961 . S
C4349 H4357 0.960 . S
C4350 C4348 1.381 . S
C4350 C4351 1.394 . S
C4350 H4358 0.930 . S
C4351 C4350 1.394 . S
C4351 C4352 1.383 . S
C4351 H4359 0.929 1_554 S
C4352 C4351 1.383 . S
C4352 C4353 1.377 . S
C4353 H4337 0.930 . S
C4353 C4352 1.377 . S
C4353 C4354 1.379 . S
C4354 H4338 0.931 . S
C4354 C4348 1.383 . S
C4354 C4353 1.379 . S
H4355 C4349 0.959 . S
H4356 C4349 0.961 . S
H4357 C4349 0.960 . S
H4358 C4350 0.930 . S
H4359 C4351 0.929 1_556 S
H4360 C4368 0.929 . S
H4361 C4370 0.930 . S
H4362 C4372 0.930 . S
H4363 C4375 0.929 1_545 S
H4364 C4378 0.930 . S
H4365 C4380 0.960 . S
H4366 C4380 0.960 . S
H4367 C4380 0.960 . S
C4368 H4360 0.929 . S
C4368 C4369 1.377 1_565 S
C4368 C4370 1.384 . S
C4369 C4368 1.377 1_545 S
C4369 C4375 1.390 1_545 S
C4370 H4361 0.930 . S
C4370 C4368 1.384 . S
C4370 C4371 1.372 . S
C4371 C4370 1.372 . S
C4371 C4372 1.400 . S
C4371 C4376 1.490 . S
C4372 H4362 0.930 . S
C4372 C4371 1.400 . S
C4372 C4375 1.386 . S
H4373 C4389 0.930 . S
H4374 C4390 0.931 . S
C4375 H4363 0.929 1_565 S
C4375 C4369 1.390 1_565 S
C4375 C4372 1.386 . S
C4376 C4371 1.490 . S
C4376 C4378 1.395 . S
C4376 C4379 1.403 . S
H4377 C4383 0.930 . S
C4378 H4364 0.930 . S
C4378 C4376 1.395 . S
C4378 C4381 1.403 . S
C4379 C4376 1.403 . S
C4379 C4380 1.524 . S
C4379 C4383 1.400 . S
C4380 H4365 0.960 . S
C4380 H4366 0.960 . S
C4380 H4367 0.960 . S
C4380 C4379 1.524 . S
C4381 C4378 1.403 . S
C4381 C4382 1.392 . S
C4381 C4385 1.495 . S
C4382 C4381 1.392 . S
C4382 C4383 1.385 . S
C4382 C4384 1.478 . S
C4383 H4377 0.930 . S
C4383 C4379 1.400 . S
C4383 C4382 1.385 . S
C4384 C4382 1.478 . S
C4384 C4386 1.381 . S
C4384 C4390 1.383 . S
C4385 C4381 1.495 . S
C4385 H4391 0.959 . S
C4385 H4392 0.961 . S
C4385 H4393 0.960 . S
C4386 C4384 1.381 . S
C4386 C4387 1.394 . S
C4386 H4394 0.930 . S
C4387 C4386 1.394 . S
C4387 C4388 1.383 . S
C4387 H4395 0.929 . S
C4388 C4387 1.383 . S
C4388 C4389 1.377 . S
C4389 H4373 0.930 . S
C4389 C4388 1.377 . S
C4389 C4390 1.379 . S
C4390 H4374 0.931 . S
C4390 C4384 1.383 . S
C4390 C4389 1.379 . S
H4391 C4385 0.959 . S
H4392 C4385 0.961 . S
H4393 C4385 0.960 . S
H4394 C4386 0.930 . S
H4395 C4387 0.929 . S
H4396 C4404 0.929 . S
H4397 C4406 0.930 . S
H4398 C4408 0.930 . S
H4399 C4411 0.929 . S
H4400 C4414 0.930 . S
H4401 C4416 0.960 . S
H4402 C4416 0.960 . S
H4403 C4416 0.960 . S
C4404 H4396 0.929 . S
C4404 C4405 1.377 . S
C4404 C4406 1.384 . S
C4405 C4404 1.377 . S
C4405 C4411 1.390 . S
C4406 H4397 0.930 . S
C4406 C4404 1.384 . S
C4406 C4407 1.372 . S
C4407 C4406 1.372 . S
C4407 C4408 1.400 . S
C4407 C4412 1.490 . S
C4408 H4398 0.930 . S
C4408 C4407 1.400 . S
C4408 C4411 1.386 . S
H4409 C4425 0.930 . S
H4410 C4426 0.931 . S
C4411 H4399 0.929 . S
C4411 C4405 1.390 . S
C4411 C4408 1.386 . S
C4412 C4407 1.490 . S
C4412 C4414 1.395 . S
C4412 C4415 1.403 . S
H4413 C4419 0.930 . S
C4414 H4400 0.930 . S
C4414 C4412 1.395 . S
C4414 C4417 1.403 . S
C4415 C4412 1.403 . S
C4415 C4416 1.524 . S
C4415 C4419 1.400 . S
C4416 H4401 0.960 . S
C4416 H4402 0.960 . S
C4416 H4403 0.960 . S
C4416 C4415 1.524 . S
C4417 C4414 1.403 . S
C4417 C4418 1.392 . S
C4417 C4421 1.495 . S
C4418 C4417 1.392 . S
C4418 C4419 1.385 . S
C4418 C4420 1.478 . S
C4419 H4413 0.930 . S
C4419 C4415 1.400 . S
C4419 C4418 1.385 . S
C4420 C4418 1.478 . S
C4420 C4422 1.381 . S
C4420 C4426 1.383 . S
C4421 C4417 1.495 . S
C4421 H4427 0.959 . S
C4421 H4428 0.961 . S
C4421 H4429 0.960 . S
C4422 C4420 1.381 . S
C4422 C4423 1.394 . S
C4422 H4430 0.930 . S
C4423 C4422 1.394 . S
C4423 C4424 1.383 . S
C4423 H4431 0.929 . S
C4424 C4423 1.383 . S
C4424 C4425 1.377 . S
C4425 H4409 0.930 . S
C4425 C4424 1.377 . S
C4425 C4426 1.379 . S
C4426 H4410 0.931 . S
C4426 C4420 1.383 . S
C4426 C4425 1.379 . S
H4427 C4421 0.959 . S
H4428 C4421 0.961 . S
H4429 C4421 0.960 . S
H4430 C4422 0.930 . S
H4431 C4423 0.929 . S
C985 C109 1.153 . S
C1004 C342 1.091 . S
C1021 C65 1.916 . S
C1040 C394 1.796 . S
C1057 C75 1.278 . S
C1076 C426 1.273 1_565 S
C1112 C475 2.592 . S
C1093 C84 2.600 . S
C1129 C25 0.832 . S
C1148 C511 0.792 . S
C1184 C542 0.446 . S
C1165 C28 0.256 . S
C1220 C594 0.546 . S
C1201 C47 0.361 . S
C1237 C9 0.989 . S
C1256 C622 0.898 . S
C1292 C354 1.943 . S
C1273 C233 2.074 . S
C1309 C249 1.481 . S
C1328 C395 1.509 . S
C1364 C425 1.951 . S
C1345 C275 2.056 1_545 S
C1400 C462 0.312 . S
C1381 C173 0.205 . S
C1417 C224 1.856 . S
C1436 C506 1.889 1_655 S
C1472 C554 1.979 . S
C1453 C243 2.049 . S
C1508 C595 1.391 1_556 S
C1489 C266 1.372 . S
C1544 C634 1.470 . S
C1525 C179 1.553 . S
C1580 C355 2.288 . S
C1561 C163 2.295 . S
C1597 C289 1.691 . S
C1616 C665 1.593 . S
C1652 C715 2.390 . S
C1633 C333 2.388 . S
C1688 C742 0.948 . S
C1669 C308 0.926 . S
C1705 C123 2.455 . S
C1724 C635 2.471 . S
C1741 C126 0.957 . S
C1760 C431 0.953 . S
C1777 C327 2.551 . S
C1796 C794 2.450 . S
C1832 C822 1.025 . S
C1813 C299 1.008 . S
C1868 C351 1.079 . S
C1849 C67 1.140 . S
C1904 C825 1.829 . S
C1885 C98 1.938 . S
C1921 C89 1.315 . S
C1940 C435 1.318 . S
C1957 C79 2.637 . S
C1976 C786 2.654 . S
C2012 C502 0.855 1_655 S
C1993 C11 0.847 . S
C2029 C51 0.152 . S
C2048 C711 0.242 . S
C2084 C585 0.575 . S
C2065 C33 0.382 . S
C2120 C871 0.884 . S
C2101 C14 0.887 . S
C2156 C345 1.926 1_556 S
C2137 C140 2.026 . S
C2192 C826 1.511 . S
C2173 C319 1.512 . S
C2209 C112 2.064 . S
C2228 C434 1.977 . S
C2245 C285 0.204 . S
C2264 C791 0.255 . S
C2281 C149 1.918 . S
C2300 C515 1.908 . S
C2336 C705 1.996 . S
C2317 C313 2.083 . S
C2353 C121 1.483 . S
C2372 C586 1.476 . S
C2389 C291 1.530 . S
C2408 C865 1.458 . S
C2425 C182 2.287 . S
C2444 C346 2.310 . S
C2461 C168 1.708 . S
C2480 C674 1.665 . S
C2497 C263 2.464 . S
C2516 C546 2.470 . S
C2533 C247 0.994 . S
C2552 C751 1.005 . S
C2588 C866 2.463 . S
C2569 C277 2.448 . S
C2605 C219 1.021 . S
C2624 C422 0.966 . S
C2660 C465 2.496 . S
C2641 C257 2.597 . S
C2696 C391 0.954 . S
C2677 C201 1.009 . S
C2713 C81 1.146 . S
C2732 C902 1.108 . S
C2768 C834 1.796 . S
C2749 C93 1.916 . S
C2785 C103 1.274 . S
C2804 C946 1.280 . S
C2821 C56 2.600 . S
C2840 C795 2.592 . S
C2857 C53 0.837 . S
C2876 C671 0.794 . S
C2912 C702 0.361 . S
C2893 C0 0.274 . S
C2948 C754 0.500 . S
C2929 C19 0.364 . S
C2984 C862 0.903 . S
C2965 C37 0.991 . S
C3020 C914 1.894 . S
C3001 C261 2.074 . S
C3037 C193 1.476 . S
C3056 C835 1.491 . S
C3092 C945 1.902 . S
C3073 C205 2.079 . S
C3128 C782 0.303 . S
C3109 C215 0.233 . S
C3164 C666 1.888 1_556 S
C3145 C252 1.855 . S
C3181 C187 2.049 . S
C3200 C714 1.980 . S
C3236 C755 1.390 . S
C3217 C196 1.375 . S
C3253 C221 1.552 . S
C3272 C874 1.468 . S
C3308 C915 2.288 . S
C3289 C317 2.296 . S
C3325 C135 1.676 . S
C3344 C505 1.576 . S
C3380 C555 2.391 . S
C3361 C151 2.389 . S
C3416 C582 0.902 . S
C3397 C154 0.929 . S
C3452 C875 2.479 . S
C3433 C305 2.457 . S
C3469 C280 0.962 . S
C3488 C951 0.985 . S
C3524 C474 2.440 . S
C3505 C145 2.550 . S
C3560 C382 1.026 . S
C3541 C117 1.008 . S
C3577 C95 1.147 . S
C3596 C911 1.140 . S
C3632 C385 1.833 . S
C3613 C70 1.937 . S
C3649 C61 1.315 . S
C3668 C955 1.311 . S
C3685 C107 2.635 . S
C3704 C466 2.645 . S
C3721 C39 0.847 . S
C3740 C662 0.792 . S
C3776 C551 0.396 . S
C3757 C23 0.128 . S
C3793 C5 0.377 . S
C3812 C745 0.548 . S
C3829 C42 0.889 . S
C3848 C631 0.823 . S
C3884 C905 1.895 . S
C3865 C322 2.027 . S
C3901 C165 1.515 . S
C3920 C386 1.522 . S
C3956 C954 1.931 1_556 S
C3937 C294 2.068 . S
C3973 C131 0.214 . S
C3992 C471 0.299 . S
C4009 C331 1.916 . S
C4028 C675 1.910 . S
C4064 C545 2.020 . S
C4045 C159 2.082 1_556 S
C4081 C303 1.480 . S
C4100 C746 1.466 1_655 S
C4136 C625 1.445 . S
C4117 C137 1.529 . S
C4172 C906 2.308 . S
C4153 C238 2.287 . S
C4208 C514 1.671 . S
C4189 C210 1.709 . S
C4225 C235 2.464 . S
C4244 C706 2.467 . S
C4280 C591 1.006 . S
C4261 C191 0.994 . S
C4297 C207 2.444 . S
C4316 C626 2.467 . S
C4333 C177 1.017 . S
C4352 C942 0.992 . S
C4388 C785 2.469 . S
C4369 C229 2.598 . S
C4424 C831 1.016 . S
C4405 C271 1.016 . S
