# Generated by pormake.
# Topology ssb, (4,4)-cn, num edge types: 1
# Building blocks:
#     Node 0, Type 0, BuildingBlock: ESEHIV_clean_sbu_0, # of connection points: 4
#     Node 1, Type 0, BuildingBlock: ESEHIV_clean_sbu_0, # of connection points: 4
#     Node 2, Type 0, BuildingBlock: ESEHIV_clean_sbu_0, # of connection points: 4
#     Node 3, Type 0, BuildingBlock: ESEHIV_clean_sbu_0, # of connection points: 4
#     Node 4, Type 0, BuildingBlock: ESEHIV_clean_sbu_0, # of connection points: 4
#     Node 5, Type 0, BuildingBlock: ESEHIV_clean_sbu_0, # of connection points: 4
#     Node 6, Type 0, BuildingBlock: ESEHIV_clean_sbu_0, # of connection points: 4
#     Node 7, Type 0, BuildingBlock: ESEHIV_clean_sbu_0, # of connection points: 4
#     Node 8, Type 1, BuildingBlock: KOZSID_clean_sbu_0, # of connection points: 4
#     Node 9, Type 1, BuildingBlock: KOZSID_clean_sbu_0, # of connection points: 4
#     Node 10, Type 1, BuildingBlock: KOZSID_clean_sbu_0, # of connection points: 4
#     Node 11, Type 1, BuildingBlock: KOZSID_clean_sbu_0, # of connection points: 4
#     Node 12, Type 1, BuildingBlock: KOZSID_clean_sbu_0, # of connection points: 4
#     Node 13, Type 1, BuildingBlock: KOZSID_clean_sbu_0, # of connection points: 4
#     Node 14, Type 1, BuildingBlock: KOZSID_clean_sbu_0, # of connection points: 4
#     Node 15, Type 1, BuildingBlock: KOZSID_clean_sbu_0, # of connection points: 4
#     Edge 16, Type (0, 1), BuildingBlock: XIVTED_clean_linker_0, # of connection points: 2
#     Edge 17, Type (0, 1), BuildingBlock: XIVTED_clean_linker_0, # of connection points: 2
#     Edge 18, Type (0, 1), BuildingBlock: XIVTED_clean_linker_0, # of connection points: 2
#     Edge 19, Type (0, 1), BuildingBlock: XIVTED_clean_linker_0, # of connection points: 2
#     Edge 20, Type (0, 1), BuildingBlock: XIVTED_clean_linker_0, # of connection points: 2
#     Edge 21, Type (0, 1), BuildingBlock: XIVTED_clean_linker_0, # of connection points: 2
#     Edge 22, Type (0, 1), BuildingBlock: XIVTED_clean_linker_0, # of connection points: 2
#     Edge 23, Type (0, 1), BuildingBlock: XIVTED_clean_linker_0, # of connection points: 2
#     Edge 24, Type (0, 1), BuildingBlock: XIVTED_clean_linker_0, # of connection points: 2
#     Edge 25, Type (0, 1), BuildingBlock: XIVTED_clean_linker_0, # of connection points: 2
#     Edge 26, Type (0, 1), BuildingBlock: XIVTED_clean_linker_0, # of connection points: 2
#     Edge 27, Type (0, 1), BuildingBlock: XIVTED_clean_linker_0, # of connection points: 2
#     Edge 28, Type (0, 1), BuildingBlock: XIVTED_clean_linker_0, # of connection points: 2
#     Edge 29, Type (0, 1), BuildingBlock: XIVTED_clean_linker_0, # of connection points: 2
#     Edge 30, Type (0, 1), BuildingBlock: XIVTED_clean_linker_0, # of connection points: 2
#     Edge 31, Type (0, 1), BuildingBlock: XIVTED_clean_linker_0, # of connection points: 2
#     Edge 32, Type (0, 1), BuildingBlock: XIVTED_clean_linker_0, # of connection points: 2
#     Edge 33, Type (0, 1), BuildingBlock: XIVTED_clean_linker_0, # of connection points: 2
#     Edge 34, Type (0, 1), BuildingBlock: XIVTED_clean_linker_0, # of connection points: 2
#     Edge 35, Type (0, 1), BuildingBlock: XIVTED_clean_linker_0, # of connection points: 2
#     Edge 36, Type (0, 1), BuildingBlock: XIVTED_clean_linker_0, # of connection points: 2
#     Edge 37, Type (0, 1), BuildingBlock: XIVTED_clean_linker_0, # of connection points: 2
#     Edge 38, Type (0, 1), BuildingBlock: XIVTED_clean_linker_0, # of connection points: 2
#     Edge 39, Type (0, 1), BuildingBlock: XIVTED_clean_linker_0, # of connection points: 2
#     Edge 40, Type (0, 1), BuildingBlock: XIVTED_clean_linker_0, # of connection points: 2
#     Edge 41, Type (0, 1), BuildingBlock: XIVTED_clean_linker_0, # of connection points: 2
#     Edge 42, Type (0, 1), BuildingBlock: XIVTED_clean_linker_0, # of connection points: 2
#     Edge 43, Type (0, 1), BuildingBlock: XIVTED_clean_linker_0, # of connection points: 2
#     Edge 44, Type (0, 1), BuildingBlock: XIVTED_clean_linker_0, # of connection points: 2
#     Edge 45, Type (0, 1), BuildingBlock: XIVTED_clean_linker_0, # of connection points: 2
#     Edge 46, Type (0, 1), BuildingBlock: XIVTED_clean_linker_0, # of connection points: 2
#     Edge 47, Type (0, 1), BuildingBlock: XIVTED_clean_linker_0, # of connection points: 2
# Relax obj value: 0.004
# Max RMSD: 0.112
# Mean RMSD: 0.054
data_MOF--net-ssb--node1-ESEHIV_clean_sbu_0--node2-KOZSID_clean_sbu_0--edge1-XIVTED_clean_linker_0
_symmetry_space_group_name_H-M    P1
_symmetry_Int_Tables_number       1
_symmetry_cell_setting            triclinic
loop_
_symmetry_equiv_pos_as_xyz
'x, y, z'
_cell_length_a     55.746016
_cell_length_b     55.480771
_cell_length_c     40.815164
_cell_angle_alpha  92.53214
_cell_angle_beta   94.90643
_cell_angle_gamma 89.953391
loop_
_atom_site_label
_atom_site_type_symbol
_atom_site_fract_x
_atom_site_fract_y
_atom_site_fract_z
_atom_type_partial_charge
Cu0 Cu 0.27728 0.26282 0.28637 0.0
N1 N 0.27225 0.2289 0.28861 0.0
N2 N 0.27191 0.19222 0.31066 0.0
C3 C 0.27651 0.21616 0.31614 0.0
C4 C 0.26434 0.18993 0.2783 0.0
C5 C 0.26448 0.21242 0.26489 0.0
O6 O 0.26041 0.27644 0.32338 0.0
C7 C 0.3203 0.25557 0.26167 0.0
O8 O 0.30524 0.2419 0.24257 0.0
H9 H 0.28325 0.22433 0.3397 0.0
H10 H 0.25945 0.21638 0.23953 0.0
N11 N 0.26423 0.27797 0.24773 0.0
N12 N 0.25753 0.30709 0.21103 0.0
C13 C 0.2709 0.29997 0.23825 0.0
C14 C 0.24617 0.27084 0.22542 0.0
C15 C 0.24195 0.2887 0.20301 0.0
C16 C 0.23795 0.2713 0.31935 0.0
O17 O 0.23 0.25948 0.29199 0.0
H18 H 0.28487 0.31087 0.25169 0.0
H19 H 0.23636 0.25406 0.22571 0.0
O20 O 0.31215 0.26764 0.28571 0.0
H21 H 0.25882 0.17322 0.26515 0.0
H22 H 0.22839 0.28814 0.18235 0.0
Cu23 Cu 0.80204 0.29207 0.27142 0.0
N24 N 0.78404 0.27466 0.23718 0.0
N25 N 0.75119 0.26387 0.20433 0.0
C26 C 0.7621 0.28141 0.22421 0.0
C27 C 0.7669 0.24536 0.2046 0.0
C28 C 0.78722 0.25211 0.2247 0.0
O29 O 0.79869 0.32596 0.26132 0.0
C30 C 0.79522 0.26081 0.31812 0.0
O31 O 0.80672 0.24802 0.29667 0.0
H32 H 0.75367 0.29831 0.2309 0.0
H33 H 0.80266 0.2409 0.23101 0.0
N34 N 0.83513 0.28452 0.27642 0.0
N35 N 0.87168 0.27958 0.30303 0.0
C36 C 0.84927 0.28872 0.30462 0.0
C37 C 0.84903 0.27233 0.25606 0.0
C38 C 0.87157 0.26935 0.27232 0.0
C39 C 0.80937 0.33141 0.23625 0.0
O40 O 0.82156 0.31452 0.22141 0.0
H41 H 0.84293 0.29797 0.3261 0.0
H42 H 0.84303 0.26551 0.23149 0.0
O43 O 0.78983 0.28263 0.31229 0.0
H44 H 0.76364 0.22798 0.19189 0.0
H45 H 0.88641 0.25964 0.26254 0.0
Cu46 Cu 0.77483 0.79628 0.25785 0.0
N47 N 0.78594 0.77907 0.22024 0.0
N48 N 0.79013 0.74836 0.18257 0.0
C49 C 0.77996 0.75595 0.21036 0.0
C50 C 0.80309 0.76762 0.17491 0.0
C51 C 0.80049 0.78632 0.19791 0.0
O52 O 0.73968 0.79333 0.25011 0.0
C53 C 0.81478 0.78408 0.29532 0.0
O54 O 0.82286 0.79313 0.26916 0.0
H55 H 0.76805 0.74503 0.2232 0.0
H56 H 0.80888 0.80388 0.19834 0.0
N57 N 0.78156 0.83011 0.26431 0.0
N58 N 0.78366 0.86738 0.28973 0.0
C59 C 0.77769 0.84374 0.29188 0.0
C60 C 0.79027 0.8457 0.24395 0.0
C61 C 0.79156 0.86843 0.25936 0.0
C62 C 0.73236 0.80423 0.22417 0.0
O63 O 0.74843 0.81575 0.20898 0.0
H64 H 0.77067 0.8363 0.31318 0.0
H65 H 0.795 0.84107 0.21935 0.0
O66 O 0.792 0.78258 0.29666 0.0
H67 H 0.81406 0.76822 0.15435 0.0
H68 H 0.79751 0.88456 0.24847 0.0
Cu69 Cu 0.25903 0.77584 0.25601 0.0
N70 N 0.27484 0.79292 0.22528 0.0
N71 N 0.30399 0.80225 0.19323 0.0
C72 C 0.29388 0.78477 0.20967 0.0
C73 C 0.29052 0.8221 0.19846 0.0
C74 C 0.27262 0.8163 0.21821 0.0
O75 O 0.26025 0.74197 0.24286 0.0
C76 C 0.29354 0.79506 0.30569 0.0
O77 O 0.30813 0.79602 0.28218 0.0
H78 H 0.30111 0.76677 0.21217 0.0
H79 H 0.25961 0.82853 0.22797 0.0
N80 N 0.22654 0.78414 0.25802 0.0
N81 N 0.19045 0.78645 0.27854 0.0
C82 C 0.2133 0.77818 0.28262 0.0
C83 C 0.21164 0.79667 0.23748 0.0
C84 C 0.1894 0.79815 0.25007 0.0
C85 C 0.24971 0.73693 0.21449 0.0
O86 O 0.23924 0.75445 0.19802 0.0
H87 H 0.22057 0.76826 0.30343 0.0
H88 H 0.21658 0.80417 0.21497 0.0
O89 O 0.27353 0.78404 0.29995 0.0
H90 H 0.2937 0.83974 0.18939 0.0
H91 H 0.17364 0.80695 0.23883 0.0
Cu92 Cu 0.27784 0.77645 0.75699 0.0
N93 N 0.31105 0.77127 0.75617 0.0
N94 N 0.34958 0.77049 0.77714 0.0
C95 C 0.32671 0.77654 0.78247 0.0
C96 C 0.34814 0.76097 0.74592 0.0
C97 C 0.32434 0.76147 0.73306 0.0
O98 O 0.27006 0.76171 0.79886 0.0
C99 C 0.27851 0.81603 0.71866 0.0
O100 O 0.28619 0.79821 0.70005 0.0
H101 H 0.32106 0.78403 0.80548 0.0
H102 H 0.31724 0.7549 0.70881 0.0
N103 N 0.25846 0.76026 0.72289 0.0
N104 N 0.22567 0.75313 0.68814 0.0
C105 C 0.23765 0.76927 0.70915 0.0
C106 C 0.25974 0.73761 0.70983 0.0
C107 C 0.2394 0.7331 0.68856 0.0
C108 C 0.27832 0.74017 0.80172 0.0
O109 O 0.28974 0.73067 0.77748 0.0
H110 H 0.23089 0.787 0.71555 0.0
H111 H 0.27405 0.725 0.71591 0.0
O112 O 0.27343 0.81134 0.74787 0.0
H113 H 0.36312 0.75409 0.73318 0.0
H114 H 0.23491 0.71637 0.67477 0.0
Cu115 Cu 0.30059 0.2921 0.77723 0.0
N116 N 0.30327 0.32554 0.77673 0.0
N117 N 0.30307 0.36361 0.79673 0.0
C118 C 0.3013 0.34014 0.80345 0.0
C119 C 0.30623 0.36379 0.76431 0.0
C120 C 0.30642 0.34019 0.75201 0.0
O121 O 0.32029 0.28219 0.81675 0.0
C122 C 0.25652 0.28964 0.7432 0.0
O123 O 0.26992 0.30072 0.72357 0.0
H124 H 0.29799 0.33355 0.82722 0.0
H125 H 0.30836 0.33421 0.7268 0.0
N126 N 0.31309 0.27649 0.74109 0.0
N127 N 0.31524 0.24754 0.70178 0.0
C128 C 0.30516 0.25469 0.72939 0.0
C129 C 0.32901 0.28347 0.72035 0.0
C130 C 0.33048 0.26548 0.69604 0.0
C131 C 0.34239 0.28831 0.81649 0.0
O132 O 0.34866 0.29997 0.79123 0.0
H133 H 0.29201 0.24438 0.74096 0.0
H134 H 0.33852 0.30052 0.72236 0.0
O135 O 0.266 0.28417 0.77156 0.0
H136 H 0.30829 0.37976 0.75051 0.0
H137 H 0.34139 0.26588 0.67538 0.0
Cu138 Cu 0.779 0.27807 0.78986 0.0
N139 N 0.81245 0.27246 0.79297 0.0
N140 N 0.85024 0.2701 0.77783 0.0
C141 C 0.8265 0.26802 0.768 0.0
C142 C 0.85114 0.27581 0.81042 0.0
C143 C 0.82792 0.27734 0.81959 0.0
O144 O 0.7649 0.25811 0.75092 0.0
C145 C 0.75878 0.32715 0.80254 0.0
O146 O 0.73694 0.31834 0.79646 0.0
H147 H 0.81956 0.26492 0.7427 0.0
H148 H 0.82265 0.28306 0.84361 0.0
N149 N 0.7651 0.26573 0.82608 0.0
N150 N 0.7375 0.25851 0.86144 0.0
C151 C 0.74192 0.26833 0.8328 0.0
C152 C 0.77567 0.25351 0.85113 0.0
C153 C 0.75874 0.24904 0.87294 0.0
C154 C 0.76967 0.25797 0.72077 0.0
O155 O 0.7817 0.27615 0.71061 0.0
H156 H 0.72846 0.27704 0.81679 0.0
H157 H 0.79444 0.24842 0.85364 0.0
O158 O 0.77684 0.31387 0.7966 0.0
H159 H 0.86737 0.27952 0.82634 0.0
H160 H 0.76203 0.24006 0.89589 0.0
Cu161 Cu 0.7531 0.77415 0.74212 0.0
N162 N 0.74913 0.74116 0.73247 0.0
N163 N 0.75011 0.7023 0.74439 0.0
C164 C 0.75761 0.72481 0.75374 0.0
C165 C 0.73634 0.7045 0.71582 0.0
C166 C 0.73589 0.72861 0.70836 0.0
O167 O 0.73886 0.78025 0.78441 0.0
C168 C 0.79438 0.77689 0.71087 0.0
O169 O 0.77824 0.77037 0.68677 0.0
H170 H 0.76786 0.72967 0.77682 0.0
H171 H 0.7258 0.73648 0.6877 0.0
N172 N 0.73671 0.79332 0.71096 0.0
N173 N 0.72919 0.82531 0.68036 0.0
C174 C 0.74498 0.8146 0.70194 0.0
C175 C 0.71483 0.79044 0.69453 0.0
C176 C 0.7101 0.81024 0.67567 0.0
C177 C 0.71767 0.7714 0.78444 0.0
O178 O 0.708 0.7606 0.75722 0.0
H179 H 0.7621 0.82232 0.71164 0.0
H180 H 0.70302 0.7752 0.69629 0.0
O181 O 0.78766 0.78015 0.73991 0.0
H182 H 0.7268 0.6899 0.70186 0.0
H183 H 0.69398 0.81325 0.65965 0.0
C184 C 0.08344 0.29684 0.61035 0.0
C185 C 0.09138 0.31873 0.62519 0.0
C186 C 0.07831 0.33631 0.60961 0.0
C187 C 0.06326 0.32426 0.58613 0.0
N188 N 0.06569 0.29999 0.58594 0.0
Co189 Co 0.04799 0.27579 0.55463 0.0
N190 N 0.03039 0.30183 0.52973 0.0
C191 C 0.03271 0.3259 0.53594 0.0
C192 C 0.01844 0.3394 0.5148 0.0
C193 C 0.00615 0.32301 0.49384 0.0
C194 C 0.01359 0.30033 0.50352 0.0
N195 N 0.03021 0.25155 0.52341 0.0
C196 C 0.01344 0.25474 0.49777 0.0
C197 C 0.0053 0.23284 0.48316 0.0
C198 C 0.01732 0.21521 0.50003 0.0
C199 C 0.03199 0.22724 0.52398 0.0
N200 N 0.06569 0.24975 0.57932 0.0
C201 C 0.06314 0.22566 0.57348 0.0
C202 C 0.07799 0.21222 0.594 0.0
C203 C 0.09107 0.22869 0.61391 0.0
C204 C 0.08348 0.25132 0.60424 0.0
N205 N 0.02145 0.27456 0.58457 0.0
C206 C 0.98365 0.27282 0.62676 0.0
C207 C 0.99313 0.25173 0.61304 0.0
C208 C 0.01186 0.25299 0.59237 0.0
C209 C 0.99346 0.29481 0.61893 0.0
C210 C 0.01206 0.29527 0.59791 0.0
N211 N 0.07453 0.27701 0.52487 0.0
C212 C 0.10175 0.2565 0.4898 0.0
C213 C 0.11256 0.27827 0.48317 0.0
C214 C 0.10415 0.29943 0.49809 0.0
C215 C 0.08515 0.29843 0.51846 0.0
C216 C 0.08309 0.25626 0.51063 0.0
H217 H 0.07928 0.31522 0.52862 0.0
H218 H 0.07587 0.23902 0.51486 0.0
H219 H 0.01825 0.23621 0.58309 0.0
H220 H 0.01845 0.31264 0.59274 0.0
C221 C 0.04799 0.33525 0.56233 0.0
C222 C 0.09426 0.27369 0.61898 0.0
C223 C 0.00411 0.27798 0.48695 0.0
C224 C 0.04744 0.21623 0.54758 0.0
H225 H 0.10557 0.32182 0.64469 0.0
H226 H 0.08014 0.35562 0.61413 0.0
H227 H 0.017 0.35886 0.51479 0.0
H228 H 0.99311 0.32727 0.47375 0.0
H229 H 0.99185 0.22987 0.46265 0.0
H230 H 0.01541 0.1959 0.49558 0.0
H231 H 0.07947 0.19277 0.59404 0.0
H232 H 0.10491 0.22455 0.63307 0.0
H233 H 0.98641 0.23419 0.61859 0.0
H234 H 0.98659 0.31172 0.62856 0.0
H235 H 0.10776 0.23957 0.47909 0.0
H236 H 0.11176 0.31678 0.49344 0.0
C237 C 0.73861 0.09198 0.56015 0.0
C238 C 0.71583 0.10128 0.56371 0.0
C239 C 0.70021 0.08827 0.54219 0.0
C240 C 0.71422 0.07184 0.52659 0.0
N241 N 0.73784 0.07319 0.53729 0.0
Co242 Co 0.7646 0.05407 0.51855 0.0
N243 N 0.742 0.03697 0.48394 0.0
C244 C 0.71789 0.04013 0.47955 0.0
C245 C 0.70682 0.02559 0.45475 0.0
C246 C 0.72484 0.01203 0.4428 0.0
C247 C 0.74601 0.01897 0.46116 0.0
N248 N 0.79146 0.03524 0.49956 0.0
C249 C 0.79103 0.01757 0.47513 0.0
C250 C 0.81396 0.00866 0.47133 0.0
C251 C 0.82932 0.02097 0.49394 0.0
C252 C 0.81506 0.03661 0.51043 0.0
N253 N 0.78719 0.07097 0.55333 0.0
C254 C 0.81113 0.0671 0.55872 0.0
C255 C 0.82223 0.0819 0.58321 0.0
C256 C 0.80443 0.09646 0.59374 0.0
C257 C 0.7834 0.0898 0.57487 0.0
N258 N 0.75981 0.02747 0.54856 0.0
C259 C 0.75345 0.98537 0.58345 0.0
C260 C 0.77625 0.99568 0.58243 0.0
C261 C 0.77899 0.01649 0.565 0.0
C262 C 0.73375 0.99743 0.56831 0.0
C263 C 0.73729 0.01839 0.55154 0.0
N264 N 0.76926 0.08067 0.48875 0.0
C265 C 0.79422 0.11298 0.4728 0.0
C266 C 0.77438 0.12396 0.45619 0.0
C267 C 0.75224 0.11195 0.45451 0.0
C268 C 0.75009 0.09054 0.47082 0.0
C269 C 0.79135 0.09133 0.4882 0.0
H270 H 0.73263 0.08263 0.46917 0.0
H271 H 0.80715 0.08393 0.50039 0.0
H272 H 0.79689 0.02301 0.5647 0.0
H273 H 0.72153 0.02652 0.54048 0.0
C274 C 0.70611 0.0564 0.49989 0.0
C275 C 0.76055 0.10254 0.57759 0.0
C276 C 0.76937 0.00772 0.45605 0.0
C277 C 0.82302 0.05135 0.53788 0.0
H278 H 0.71105 0.11643 0.57943 0.0
H279 H 0.68104 0.09114 0.53747 0.0
H280 H 0.68783 0.02469 0.44664 0.0
H281 H 0.7226 0.99839 0.42299 0.0
H282 H 0.81906 0.99425 0.45462 0.0
H283 H 0.84852 0.01824 0.49858 0.0
H284 H 0.8412 0.08271 0.59146 0.0
H285 H 0.80678 0.11084 0.61255 0.0
H286 H 0.79209 0.98762 0.59468 0.0
H287 H 0.71565 0.99039 0.56827 0.0
H288 H 0.81187 0.1213 0.47491 0.0
H289 H 0.73646 0.11904 0.4409 0.0
C290 C 0.04951 0.79394 0.56629 0.0
C291 C 0.05947 0.81582 0.57843 0.0
C292 C 0.0451 0.8335 0.56532 0.0
C293 C 0.02715 0.82151 0.54616 0.0
N294 N 0.02889 0.7972 0.54667 0.0
Co295 Co 0.00691 0.77299 0.52125 0.0
N296 N 0.98664 0.79905 0.50023 0.0
C297 C 0.98956 0.82313 0.50578 0.0
C298 C 0.97252 0.8366 0.48869 0.0
C299 C 0.95764 0.82016 0.4714 0.0
C300 C 0.96646 0.7975 0.47901 0.0
N301 N 0.98537 0.74875 0.49521 0.0
C302 C 0.96562 0.7519 0.47397 0.0
C303 C 0.95575 0.72997 0.46182 0.0
C304 C 0.96973 0.71237 0.47575 0.0
C305 C 0.98722 0.72447 0.4956 0.0
N306 N 0.02684 0.74693 0.5428 0.0
C307 C 0.023 0.72288 0.53867 0.0
C308 C 0.04027 0.70924 0.55487 0.0
C309 C 0.05628 0.72548 0.57014 0.0
C310 C 0.0477 0.7483 0.56267 0.0
N311 N 0.98503 0.77325 0.5577 0.0
C312 C 0.94855 0.77544 0.6021 0.0
C313 C 0.95566 0.75336 0.58808 0.0
C314 C 0.97385 0.75267 0.56621 0.0
C315 C 0.96123 0.79606 0.59519 0.0
C316 C 0.97925 0.79456 0.57341 0.0
N317 N 0.0286 0.77297 0.48478 0.0
C318 C 0.05398 0.75194 0.44745 0.0
C319 C 0.06163 0.77375 0.43567 0.0
C320 C 0.05205 0.79505 0.44864 0.0
C321 C 0.03576 0.79426 0.47279 0.0
C322 C 0.03751 0.75195 0.47166 0.0
H323 H 0.02946 0.81121 0.48168 0.0
H324 H 0.03235 0.73477 0.47957 0.0
H325 H 0.97811 0.73537 0.55585 0.0
H326 H 0.98777 0.81108 0.56914 0.0
C327 C 0.00861 0.83254 0.52701 0.0
C328 C 0.06057 0.77063 0.57373 0.0
C329 C 0.95507 0.77511 0.46531 0.0
C330 C 0.00468 0.71355 0.51638 0.0
H331 H 0.07561 0.81874 0.5948 0.0
H332 H 0.04762 0.8528 0.569 0.0
H333 H 0.97105 0.85606 0.48886 0.0
H334 H 0.942 0.82437 0.4551 0.0
H335 H 0.93981 0.72696 0.44507 0.0
H336 H 0.96713 0.69306 0.4724 0.0
H337 H 0.04168 0.68977 0.55435 0.0
H338 H 0.07281 0.7208 0.58419 0.0
H339 H 0.94658 0.73678 0.59283 0.0
H340 H 0.95701 0.81352 0.60617 0.0
H341 H 0.06052 0.73486 0.43792 0.0
H342 H 0.0575 0.81248 0.44082 0.0
C343 C 0.30415 0.97669 0.57986 0.0
C344 C 0.32617 0.96831 0.59316 0.0
C345 C 0.34355 0.98062 0.57908 0.0
C346 C 0.33127 0.99565 0.55781 0.0
N347 N 0.30706 0.994 0.55779 0.0
Co348 Co 0.28272 0.01118 0.52783 0.0
N349 N 0.3083 0.02882 0.50635 0.0
C350 C 0.33226 0.02795 0.51482 0.0
C351 C 0.34542 0.04329 0.49788 0.0
C352 C 0.32886 0.05504 0.47778 0.0
C353 C 0.30644 0.0461 0.48349 0.0
N354 N 0.25839 0.02724 0.49672 0.0
C355 C 0.26115 0.0439 0.47378 0.0
C356 C 0.23921 0.05003 0.45766 0.0
C357 C 0.22197 0.03724 0.47127 0.0
C358 C 0.23428 0.02392 0.49468 0.0
N359 N 0.25709 0.99463 0.55041 0.0
C360 C 0.23308 0.99774 0.54461 0.0
C361 C 0.21972 0.98445 0.56401 0.0
C362 C 0.23616 0.97193 0.58324 0.0
C363 C 0.25872 0.97814 0.57425 0.0
N364 N 0.28189 0.03905 0.55991 0.0
C365 C 0.28483 0.08434 0.59375 0.0
C366 C 0.26311 0.07625 0.57727 0.0
C367 C 0.26197 0.05351 0.56092 0.0
C368 C 0.30421 0.06841 0.59576 0.0
C369 C 0.30233 0.04603 0.579 0.0
N370 N 0.28393 0.98342 0.49569 0.0
C371 C 0.26505 0.94906 0.46526 0.0
C372 C 0.28729 0.94114 0.45543 0.0
C373 C 0.30759 0.9552 0.4653 0.0
C374 C 0.3055 0.97611 0.48496 0.0
C375 C 0.26376 0.97018 0.48514 0.0
H376 H 0.32175 0.98577 0.49167 0.0
H377 H 0.24635 0.9753 0.49201 0.0
H378 H 0.24505 0.0484 0.54828 0.0
H379 H 0.31804 0.03515 0.58103 0.0
C380 C 0.34182 0.01207 0.53823 0.0
C381 C 0.281 0.96717 0.58832 0.0
C382 C 0.2839 0.05522 0.46734 0.0
C383 C 0.22365 0.01085 0.51808 0.0
H384 H 0.32939 0.95456 0.61099 0.0
H385 H 0.36286 0.97872 0.58366 0.0
H386 H 0.36476 0.0458 0.50009 0.0
H387 H 0.3328 0.06888 0.46113 0.0
H388 H 0.23595 0.06295 0.4387 0.0
H389 H 0.20267 0.03832 0.46575 0.0
H390 H 0.2003 0.98331 0.56338 0.0
H391 H 0.23198 0.95921 0.60131 0.0
H392 H 0.24739 0.08775 0.57567 0.0
H393 H 0.32107 0.07342 0.60956 0.0
H394 H 0.24868 0.93908 0.45765 0.0
H395 H 0.32529 0.94985 0.45866 0.0
C396 C 0.56172 0.81096 0.07742 0.0
C397 C 0.56798 0.83382 0.09056 0.0
C398 C 0.55594 0.8499 0.07088 0.0
C399 C 0.5429 0.83602 0.0471 0.0
N400 N 0.5456 0.81202 0.05063 0.0
Co401 Co 0.52965 0.78548 0.02169 0.0
N402 N 0.5141 0.80907 0.99057 0.0
C403 C 0.51683 0.83334 0.9925 0.0
C404 C 0.50433 0.84482 0.96739 0.0
C405 C 0.49274 0.82686 0.94836 0.0
C406 C 0.4987 0.80536 0.96319 0.0
N407 N 0.51328 0.75891 0.99308 0.0
C408 C 0.49733 0.75992 0.96605 0.0
C409 C 0.48918 0.73708 0.95504 0.0
C410 C 0.50036 0.72111 0.97567 0.0
C411 C 0.51451 0.735 0.99819 0.0
N412 N 0.54573 0.76186 0.05247 0.0
C413 C 0.54364 0.73755 0.04996 0.0
C414 C 0.55798 0.72591 0.07312 0.0
C415 C 0.57031 0.7438 0.09132 0.0
C416 C 0.56259 0.76547 0.07833 0.0
N417 N 0.501 0.78728 0.04813 0.0
C418 C 0.45844 0.78959 0.0819 0.0
C419 C 0.47078 0.76783 0.07748 0.0
C420 C 0.49174 0.76709 0.06072 0.0
C421 C 0.46822 0.81022 0.06955 0.0
C422 C 0.48928 0.80871 0.05317 0.0
N423 N 0.55811 0.78376 0.99512 0.0
C424 C 0.5867 0.76034 0.9655 0.0
C425 C 0.59768 0.78125 0.95569 0.0
C426 C 0.58876 0.80345 0.96681 0.0
C427 C 0.56923 0.80428 0.98635 0.0
C428 C 0.56716 0.76199 0.9849 0.0
H429 H 0.56331 0.82178 0.99384 0.0
H430 H 0.55959 0.74537 0.99125 0.0
H431 H 0.50002 0.7499 0.05808 0.0
H432 H 0.49551 0.82515 0.04441 0.0
C433 C 0.52987 0.8449 0.01945 0.0
C434 C 0.57258 0.78891 0.0903 0.0
C435 C 0.48867 0.78203 0.9508 0.0
C436 C 0.52887 0.72614 0.02462 0.0
H437 H 0.58048 0.83838 0.11169 0.0
H438 H 0.55721 0.86938 0.07299 0.0
H439 H 0.50333 0.86402 0.96376 0.0
H440 H 0.48091 0.82935 0.92634 0.0
H441 H 0.47617 0.73236 0.93458 0.0
H442 H 0.49814 0.70171 0.9747 0.0
H443 H 0.55979 0.70665 0.07584 0.0
H444 H 0.58385 0.74102 0.11136 0.0
H445 H 0.46443 0.75132 0.08705 0.0
H446 H 0.45943 0.82755 0.07178 0.0
H447 H 0.59312 0.74262 0.95833 0.0
H448 H 0.59636 0.82024 0.95986 0.0
C449 C 0.23892 0.56425 0.07707 0.0
C450 C 0.2154 0.56867 0.08427 0.0
C451 C 0.20092 0.55595 0.06098 0.0
C452 C 0.21639 0.54449 0.0411 0.0
N453 N 0.23988 0.54884 0.05054 0.0
Co454 Co 0.26838 0.53608 0.02865 0.0
N455 N 0.24714 0.52026 0.99166 0.0
C456 C 0.2228 0.52074 0.9877 0.0
C457 C 0.21322 0.50818 0.96001 0.0
C458 C 0.23257 0.49903 0.94541 0.0
C459 C 0.25294 0.50661 0.96513 0.0
N460 N 0.29693 0.52299 0.00711 0.0
C461 C 0.29799 0.50882 0.97939 0.0
C462 C 0.3216 0.50363 0.97316 0.0
C463 C 0.33596 0.51455 0.99818 0.0
C464 C 0.3204 0.5258 0.01806 0.0
N465 N 0.28962 0.55245 0.06522 0.0
C466 C 0.31396 0.55206 0.06922 0.0
C467 C 0.32358 0.56603 0.09558 0.0
C468 C 0.30427 0.57635 0.10896 0.0
C469 C 0.28388 0.56789 0.08999 0.0
N470 N 0.26752 0.50589 0.0544 0.0
C471 C 0.26634 0.4626 0.09021 0.0
C472 C 0.28719 0.47692 0.09103 0.0
C473 C 0.28743 0.49801 0.07305 0.0
C474 C 0.24612 0.47069 0.07086 0.0
C475 C 0.24703 0.49208 0.0537 0.0
N476 N 0.26916 0.5661 1.00287 0.0
C477 C 0.29155 0.59808 0.98008 0.0
C478 C 0.27056 0.6079 0.96446 0.0
C479 C 0.24876 0.5965 0.96935 0.0
C480 C 0.24847 0.57596 0.98845 0.0
C481 C 0.29047 0.57748 0.99881 0.0
H482 H 0.23124 0.5682 0.99103 0.0
H483 H 0.30718 0.57101 0.00976 0.0
H484 H 0.30406 0.50762 0.07467 0.0
H485 H 0.23084 0.49694 0.03983 0.0
C486 C 0.20944 0.53177 0.01157 0.0
C487 C 0.25961 0.57623 0.09498 0.0
C488 C 0.27727 0.49931 0.95864 0.0
C489 C 0.3273 0.53939 0.04683 0.0
H490 H 0.20938 0.58043 0.10378 0.0
H491 H 0.18144 0.55586 0.05811 0.0
H492 H 0.19438 0.50549 0.95186 0.0
H493 H 0.23173 0.48763 0.92313 0.0
H494 H 0.32777 0.4929 0.95275 0.0
H495 H 0.35544 0.51428 1.00152 0.0
H496 H 0.34243 0.56897 0.10349 0.0
H497 H 0.30527 0.58915 0.12979 0.0
H498 H 0.30341 0.47216 0.10578 0.0
H499 H 0.22951 0.46045 0.06835 0.0
H500 H 0.30895 0.60627 0.97812 0.0
H501 H 0.23189 0.60299 0.95789 0.0
C502 C 0.48808 0.29087 0.00964 0.0
C503 C 0.48051 0.31369 1.00066 0.0
C504 C 0.49473 0.32989 0.01948 0.0
C505 C 0.51015 0.31616 0.03879 0.0
N506 N 0.50664 0.29213 0.03352 0.0
Co507 Co 0.52548 0.26591 0.0563 0.0
N508 N 0.54631 0.28978 0.08374 0.0
C509 C 0.54297 0.31387 0.08625 0.0
C510 C 0.55998 0.32566 0.10736 0.0
C511 C 0.5753 0.30805 0.11858 0.0
C512 C 0.56688 0.28648 0.10333 0.0
N513 N 0.54546 0.23971 0.07749 0.0
C514 C 0.56709 0.24108 0.09564 0.0
C515 C 0.57648 0.21827 0.10125 0.0
C516 C 0.56027 0.20201 0.08633 0.0
C517 C 0.54214 0.21567 0.07204 0.0
N518 N 0.50387 0.24197 0.02992 0.0
C519 C 0.50422 0.21776 0.03248 0.0
C520 C 0.48661 0.20589 0.01253 0.0
C521 C 0.47403 0.22359 0.99649 0.0
C522 C 0.48472 0.24535 0.00767 0.0
N523 N 0.5483 0.2658 0.02147 0.0
C524 C 0.58658 0.26401 0.98029 0.0
C525 C 0.57308 0.24338 0.98501 0.0
C526 C 0.55406 0.2447 1.00529 0.0
C527 C 0.5795 0.28587 0.99499 0.0
C528 C 0.56039 0.28638 0.01521 0.0
N529 N 0.50261 0.26593 0.09172 0.0
C530 C 0.4817 0.24446 0.13139 0.0
C531 C 0.46768 0.26465 0.13853 0.0
C532 C 0.47222 0.2858 0.12265 0.0
C533 C 0.48964 0.28609 0.0998 0.0
C534 C 0.49873 0.24544 0.1082 0.0
H535 H 0.49189 0.30286 0.08874 0.0
H536 H 0.50828 0.22917 0.10393 0.0
H537 H 0.54467 0.22828 0.00834 0.0
H538 H 0.55616 0.30346 0.02646 0.0
C539 C 0.52648 0.32515 0.06428 0.0
C540 C 0.47617 0.26867 0.99608 0.0
C541 C 0.57968 0.26357 0.10682 0.0
C542 C 0.52243 0.20662 0.05188 0.0
H543 H 0.4658 0.31819 0.98296 0.0
H544 H 0.49348 0.34937 0.01976 0.0
H545 H 0.56181 0.34491 0.11253 0.0
H546 H 0.59134 0.31089 0.1352 0.0
H547 H 0.59357 0.21365 0.11388 0.0
H548 H 0.56197 0.18256 0.08495 0.0
H549 H 0.48352 0.18663 0.0096 0.0
H550 H 0.45879 0.22076 0.97846 0.0
H551 H 0.57732 0.22614 0.97342 0.0
H552 H 0.58924 0.30241 0.99204 0.0
H553 H 0.47955 0.22773 0.14354 0.0
H554 H 0.46192 0.30201 0.12702 0.0
C555 C 0.75636 0.57192 0.05099 0.0
C556 C 0.73468 0.58027 0.06144 0.0
C557 C 0.71737 0.56413 0.04917 0.0
C558 C 0.7293 0.5469 0.03183 0.0
N559 N 0.75323 0.55097 0.03223 0.0
Co560 Co 0.77686 0.53005 0.00948 0.0
N561 N 0.75091 0.50773 0.98847 0.0
C562 C 0.72708 0.50975 0.99201 0.0
C563 C 0.71338 0.49202 0.97517 0.0
C564 C 0.72933 0.4779 0.95957 0.0
C565 C 0.75201 0.48792 0.96756 0.0
N566 N 0.80063 0.50872 0.98759 0.0
C567 C 0.79733 0.48879 0.9668 0.0
C568 C 0.81915 0.48023 0.95702 0.0
C569 C 0.83673 0.49475 0.97251 0.0
C570 C 0.82484 0.51152 0.99064 0.0
N571 N 0.80272 0.553 0.0293 0.0
C572 C 0.82654 0.55115 0.0256 0.0
C573 C 0.84006 0.56958 0.04111 0.0
C574 C 0.82392 0.58434 0.05531 0.0
C575 C 0.80132 0.5741 0.04756 0.0
N576 N 0.78085 0.50981 0.04879 0.0
C577 C 0.78761 0.4768 0.09966 0.0
C578 C 0.80692 0.48982 0.08957 0.0
C579 C 0.80319 0.50598 0.0644 0.0
C580 C 0.76459 0.48175 0.08518 0.0
C581 C 0.76163 0.49831 0.06021 0.0
N582 N 0.77298 0.55001 0.97027 0.0
C583 C 0.79049 0.56995 0.92657 0.0
C584 C 0.76816 0.57935 0.91544 0.0
C585 C 0.74812 0.57331 0.93184 0.0
C586 C 0.75091 0.55867 0.95897 0.0
C587 C 0.79249 0.55556 0.95379 0.0
H588 H 0.73502 0.55479 0.97061 0.0
H589 H 0.81007 0.54925 0.96111 0.0
H590 H 0.81884 0.51477 0.0577 0.0
H591 H 0.74366 0.50105 0.0501 0.0
C592 C 0.71829 0.52789 0.01258 0.0
C593 C 0.77921 0.58503 0.05864 0.0
C594 C 0.77401 0.47762 0.95508 0.0
C595 C 0.83568 0.53148 0.00806 0.0
H596 H 0.73155 0.5966 0.0759 0.0
H597 H 0.69824 0.56522 0.05177 0.0
H598 H 0.6941 0.48947 0.97464 0.0
H599 H 0.72469 0.46185 0.94434 0.0
H600 H 0.82216 0.46531 0.93992 0.0
H601 H 0.85588 0.49368 0.97 0.0
H602 H 0.85938 0.57196 0.04207 0.0
H603 H 0.82834 0.60076 0.06986 0.0
H604 H 0.82505 0.48731 0.10069 0.0
H605 H 0.74895 0.47228 0.09211 0.0
H606 H 0.80651 0.57364 0.91435 0.0
H607 H 0.73044 0.58028 0.92435 0.0
H608 H 0.24632 0.2886 0.38477 0.0
H609 H 0.11258 0.25468 0.4232 0.0
H610 H 0.18967 0.26483 0.31176 0.0
H611 H 0.15593 0.30302 0.48944 0.0
H612 H 0.14359 0.25498 0.38467 0.0
H613 H 0.21616 0.29196 0.42589 0.0
C614 C 0.22764 0.28433 0.37729 0.0
C615 C 0.22065 0.27621 0.34474 0.0
C616 C 0.14641 0.26561 0.40758 0.0
C617 C 0.18635 0.27964 0.3915 0.0
C618 C 0.12872 0.2653 0.42973 0.0
C619 C 0.13164 0.27879 0.45967 0.0
C620 C 0.1675 0.27931 0.41533 0.0
C621 C 0.1529 0.29247 0.46652 0.0
C622 C 0.21048 0.2862 0.40073 0.0
C623 C 0.19615 0.2709 0.3365 0.0
N624 N 0.17013 0.29228 0.44462 0.0
N625 N 0.18011 0.2725 0.35963 0.0
H626 H 0.82958 0.24484 0.36163 0.0
H627 H 0.74093 0.16064 0.44942 0.0
H628 H 0.75256 0.24978 0.34287 0.0
H629 H 0.81341 0.14188 0.42797 0.0
H630 H 0.74532 0.199 0.42301 0.0
H631 H 0.82429 0.21432 0.40174 0.0
C632 C 0.81151 0.24007 0.36697 0.0
C633 C 0.79145 0.24979 0.34924 0.0
C634 C 0.76025 0.18647 0.42446 0.0
C635 C 0.78526 0.21429 0.39398 0.0
C636 C 0.75773 0.16443 0.43919 0.0
C637 C 0.77679 0.1477 0.44089 0.0
C638 C 0.78209 0.19205 0.41188 0.0
C639 C 0.79831 0.15413 0.42791 0.0
C640 C 0.8085 0.22246 0.38949 0.0
C641 C 0.76841 0.24283 0.35649 0.0
N642 N 0.80033 0.17572 0.41403 0.0
N643 N 0.76588 0.22512 0.37806 0.0
H644 H 0.81128 0.78752 0.3628 0.0
H645 H 0.95346 0.76486 0.39945 0.0
H646 H 0.85971 0.7674 0.28943 0.0
H647 H 0.9082 0.78617 0.47595 0.0
H648 H 0.91814 0.7638 0.3595 0.0
H649 H 0.84498 0.78424 0.40575 0.0
C650 C 0.8288 0.78187 0.35583 0.0
C651 C 0.83273 0.77777 0.32252 0.0
C652 C 0.91578 0.76875 0.38498 0.0
C653 C 0.87129 0.77442 0.37114 0.0
C654 C 0.93598 0.76944 0.40768 0.0
C655 C 0.93364 0.77573 0.44082 0.0
C656 C 0.89293 0.77444 0.3954 0.0
C657 C 0.91063 0.78139 0.45045 0.0
C658 C 0.84808 0.78026 0.38025 0.0
C659 C 0.85588 0.77088 0.31478 0.0
N660 N 0.89111 0.78065 0.42783 0.0
N661 N 0.87419 0.76957 0.33875 0.0
H662 H 0.26551 0.80029 0.35764 0.0
H663 H 0.3166 0.93205 0.40565 0.0
H664 H 0.32823 0.8299 0.31865 0.0
H665 H 0.26344 0.89806 0.45946 0.0
H666 H 0.32148 0.8942 0.37454 0.0
H667 H 0.26555 0.83467 0.39718 0.0
C668 C 0.27959 0.81374 0.35781 0.0
C669 C 0.29671 0.81233 0.33445 0.0
C670 C 0.30884 0.89494 0.39327 0.0
C671 C 0.29654 0.85197 0.37924 0.0
C672 C 0.30605 0.91659 0.41114 0.0
C673 C 0.28961 0.91832 0.43537 0.0
C674 C 0.29494 0.87479 0.39932 0.0
C675 C 0.27608 0.89772 0.44074 0.0
C676 C 0.27952 0.83345 0.38031 0.0
C677 C 0.31456 0.83027 0.33598 0.0
N678 N 0.27898 0.87684 0.42279 0.0
N679 N 0.31378 0.84952 0.35761 0.0
H680 H 0.20974 0.79169 0.65434 0.0
H681 H 0.07288 0.75137 0.63364 0.0
H682 H 0.18818 0.72185 0.68356 0.0
H683 H 0.10351 0.78776 0.5559 0.0
H684 H 0.1135 0.747 0.66135 0.0
H685 H 0.16922 0.79706 0.62637 0.0
C686 C 0.19642 0.77755 0.65483 0.0
C687 C 0.20224 0.75625 0.67102 0.0
C688 C 0.11127 0.75599 0.63827 0.0
C689 C 0.15595 0.7625 0.64007 0.0
C690 C 0.08818 0.75851 0.62252 0.0
C691 C 0.08494 0.76956 0.59218 0.0
C692 C 0.1312 0.76534 0.62418 0.0
C693 C 0.1053 0.77897 0.57914 0.0
C694 C 0.17343 0.78057 0.63888 0.0
C695 C 0.18442 0.7384 0.67103 0.0
N696 N 0.12758 0.77676 0.59527 0.0
N697 N 0.16197 0.74203 0.65613 0.0
H698 H 0.34507 0.22272 0.66334 0.0
H699 H 0.25315 0.11184 0.62759 0.0
H700 H 0.27357 0.22193 0.69627 0.0
H701 H 0.32342 0.11417 0.59084 0.0
H702 H 0.25954 0.15296 0.65099 0.0
H703 H 0.33674 0.18372 0.63423 0.0
C704 C 0.32757 0.21445 0.66422 0.0
C705 C 0.31014 0.22543 0.68264 0.0
C706 C 0.27354 0.14447 0.63774 0.0
C707 C 0.3005 0.18076 0.64972 0.0
C708 C 0.26985 0.12103 0.6243 0.0
C709 C 0.28789 0.10944 0.60759 0.0
C710 C 0.29539 0.15639 0.63437 0.0
C711 C 0.30924 0.12219 0.60419 0.0
C712 C 0.32284 0.19213 0.64776 0.0
C713 C 0.28777 0.21384 0.68306 0.0
N714 N 0.31243 0.14491 0.61756 0.0
N715 N 0.28365 0.1921 0.66702 0.0
H716 H 0.89315 0.29382 0.78884 0.0
H717 H 0.94359 0.24344 0.62079 0.0
H718 H 0.85278 0.24559 0.71889 0.0
H719 H 0.97829 0.29992 0.68376 0.0
H720 H 0.91143 0.24197 0.65794 0.0
H721 H 0.92571 0.29404 0.75249 0.0
C722 C 0.89117 0.28306 0.76601 0.0
C723 C 0.87007 0.26962 0.75705 0.0
C724 C 0.92607 0.2547 0.66363 0.0
C725 C 0.90745 0.27001 0.7149 0.0
C726 C 0.94454 0.25546 0.6425 0.0
C727 C 0.96377 0.27184 0.64907 0.0
C728 C 0.92682 0.27028 0.69179 0.0
C729 C 0.96375 0.28719 0.67742 0.0
C730 C 0.90976 0.28336 0.74508 0.0
C731 C 0.86854 0.25639 0.72674 0.0
N732 N 0.94566 0.28598 0.69771 0.0
N733 N 0.88695 0.25689 0.70684 0.0
H734 H 0.69449 0.85802 0.66395 0.0
H735 H 0.7841 0.94648 0.58511 0.0
H736 H 0.77075 0.84494 0.66409 0.0
H737 H 0.71558 0.97008 0.6169 0.0
H738 H 0.77826 0.90768 0.60906 0.0
H739 H 0.70035 0.89746 0.64082 0.0
C740 C 0.71242 0.8634 0.65891 0.0
C741 C 0.73217 0.84825 0.666 0.0
C742 C 0.76456 0.92141 0.61088 0.0
C743 C 0.73901 0.8932 0.63962 0.0
C744 C 0.76794 0.94371 0.59742 0.0
C745 C 0.75036 0.96183 0.59899 0.0
C746 C 0.7433 0.91691 0.62569 0.0
C747 C 0.7295 0.95668 0.61455 0.0
C748 C 0.71578 0.88595 0.64597 0.0
C749 C 0.75509 0.85619 0.65933 0.0
N750 N 0.72651 0.93469 0.62714 0.0
N751 N 0.75786 0.87806 0.64638 0.0
H752 H 0.83655 0.75698 0.73777 0.0
H753 H 0.91338 0.8098 0.59932 0.0
H754 H 0.80839 0.80454 0.6633 0.0
H755 H 0.93491 0.74571 0.65018 0.0
H756 H 0.87812 0.81293 0.6306 0.0
H757 H 0.87595 0.7577 0.71424 0.0
C758 C 0.83889 0.76811 0.71712 0.0
C759 C 0.81935 0.78092 0.70259 0.0
C760 C 0.89058 0.79822 0.63512 0.0
C761 C 0.86394 0.78158 0.6754 0.0
C762 C 0.91087 0.79649 0.61736 0.0
C763 C 0.92728 0.77747 0.62207 0.0
C764 C 0.88648 0.7809 0.65809 0.0
C765 C 0.92267 0.76056 0.64549 0.0
C766 C 0.86122 0.76827 0.70346 0.0
C767 C 0.82308 0.79455 0.67534 0.0
N768 N 0.90272 0.76266 0.66265 0.0
N769 N 0.84484 0.79451 0.66267 0.0
H770 H 0.2861 0.86283 0.74641 0.0
H771 H 0.26454 0.92203 0.56882 0.0
H772 H 0.26393 0.82378 0.65525 0.0
H773 H 0.29419 0.96288 0.65489 0.0
H774 H 0.26155 0.88669 0.60214 0.0
H775 H 0.28602 0.90052 0.71599 0.0
C776 C 0.28077 0.86222 0.72024 0.0
C777 C 0.27502 0.84001 0.70343 0.0
C778 C 0.26876 0.90331 0.61395 0.0
C779 C 0.27516 0.88295 0.66838 0.0
C780 C 0.27049 0.92349 0.59481 0.0
C781 C 0.27981 0.94537 0.60898 0.0
C782 C 0.27631 0.90479 0.64784 0.0
C783 C 0.28711 0.94627 0.64292 0.0
C784 C 0.28095 0.88369 0.70279 0.0
C785 C 0.26862 0.84035 0.66934 0.0
N786 N 0.28524 0.92632 0.66117 0.0
N787 N 0.26893 0.86125 0.65314 0.0
H788 H 0.21341 0.29078 0.77282 0.0
H789 H 0.13776 0.2605 0.59897 0.0
H790 H 0.24418 0.27155 0.68194 0.0
H791 H 0.10388 0.28478 0.68538 0.0
H792 H 0.17663 0.26025 0.63163 0.0
H793 H 0.17283 0.28421 0.7443 0.0
C794 C 0.21163 0.28469 0.74715 0.0
C795 C 0.23212 0.28183 0.72963 0.0
C796 C 0.16076 0.2656 0.64366 0.0
C797 C 0.1861 0.27455 0.6969 0.0
C798 C 0.1386 0.26572 0.62495 0.0
C799 C 0.11775 0.27291 0.63948 0.0
C800 C 0.16222 0.27279 0.6773 0.0
C801 C 0.1197 0.27937 0.67328 0.0
C802 C 0.18853 0.28115 0.7308 0.0
C803 C 0.22885 0.27419 0.6963 0.0
N804 N 0.14158 0.27932 0.69107 0.0
N805 N 0.20641 0.27096 0.6811 0.0
H806 H 0.74775 0.21491 0.73364 0.0
H807 H 0.77958 0.14629 0.56435 0.0
H808 H 0.78179 0.24954 0.65714 0.0
H809 H 0.74077 0.1124 0.63665 0.0
H810 H 0.78011 0.18426 0.59785 0.0
H811 H 0.74422 0.17768 0.69863 0.0
C812 C 0.75426 0.21486 0.7094 0.0
C813 C 0.76505 0.2357 0.69854 0.0
C814 C 0.77134 0.16861 0.60643 0.0
C815 C 0.76132 0.19261 0.65814 0.0
C816 C 0.77104 0.14691 0.58724 0.0
C817 C 0.75996 0.12615 0.59754 0.0
C818 C 0.76064 0.16973 0.63652 0.0
C819 C 0.74933 0.12799 0.6276 0.0
C820 C 0.75232 0.19347 0.68939 0.0
C821 C 0.77327 0.23417 0.66679 0.0
N822 N 0.74998 0.14927 0.64598 0.0
N823 N 0.77135 0.21314 0.64797 0.0
H824 H 0.91972 0.27301 0.29706 0.0
H825 H 0.95668 0.28896 0.49155 0.0
H826 H 0.86847 0.28618 0.3693 0.0
H827 H 0.00698 0.26891 0.42084 0.0
H828 H 0.92433 0.28968 0.44676 0.0
H829 H 0.95201 0.27275 0.3415 0.0
C830 C 0.91514 0.27578 0.32217 0.0
C831 C 0.89112 0.27967 0.32914 0.0
C832 C 0.94242 0.28513 0.44093 0.0
C833 C 0.92834 0.27963 0.38047 0.0
C834 C 0.96084 0.28476 0.46649 0.0
C835 C 0.98442 0.27885 0.45975 0.0
C836 C 0.94762 0.2796 0.4083 0.0
C837 C 0.98897 0.27352 0.42694 0.0
C838 C 0.93368 0.27573 0.34761 0.0
C839 C 0.88659 0.28346 0.36239 0.0
N840 N 0.97077 0.27403 0.40244 0.0
N841 N 0.90495 0.28334 0.38667 0.0
H842 H 0.80429 0.91234 0.29052 0.0
H843 H 0.75065 0.96181 0.45799 0.0
H844 H 0.75904 0.86906 0.34558 0.0
H845 H 0.79187 1.00529 0.39831 0.0
H846 H 0.7539 0.92748 0.4182 0.0
H847 H 0.80044 0.94584 0.33029 0.0
C848 C 0.7934 0.9097 0.31075 0.0
C849 C 0.78187 0.88741 0.31405 0.0
C850 C 0.76226 0.9445 0.41374 0.0
C851 C 0.77761 0.92648 0.36075 0.0
C852 C 0.76038 0.96413 0.43648 0.0
C853 C 0.77108 0.98651 0.43163 0.0
C854 C 0.77499 0.94709 0.38572 0.0
C855 C 0.78346 0.9884 0.40322 0.0
C856 C 0.7913 0.92904 0.33374 0.0
C857 C 0.76843 0.88558 0.34165 0.0
N858 N 0.7851 0.96907 0.38155 0.0
N859 N 0.76667 0.90472 0.36372 0.0
H860 H 0.18719 0.75258 0.32456 0.0
H861 H 0.06284 0.80409 0.38419 0.0
H862 H 0.14985 0.81366 0.28263 0.0
H863 H 0.10182 0.74532 0.42963 0.0
H864 H 0.09369 0.80674 0.34547 0.0
H865 H 0.15553 0.74871 0.36177 0.0
C866 C 0.17245 0.76529 0.32315 0.0
C867 C 0.17145 0.78359 0.30028 0.0
C868 C 0.0955 0.79321 0.36384 0.0
C869 C 0.13471 0.77899 0.34294 0.0
C870 C 0.0779 0.79174 0.38615 0.0
C871 C 0.07968 0.77453 0.41054 0.0
C872 C 0.1152 0.77737 0.36572 0.0
C873 C 0.09946 0.75874 0.41118 0.0
C874 C 0.15424 0.76295 0.3444 0.0
C875 C 0.15147 0.79914 0.29948 0.0
N876 N 0.11643 0.76061 0.38927 0.0
N877 N 0.13401 0.79652 0.32048 0.0
H878 H 0.27015 0.19587 0.37754 0.0
H879 H 0.29498 0.05435 0.40297 0.0
H880 H 0.27986 0.14427 0.29768 0.0
H881 H 0.2722 0.10274 0.47949 0.0
H882 H 0.29275 0.08776 0.36508 0.0
H883 H 0.27403 0.16304 0.41606 0.0
C884 C 0.27324 0.17772 0.36803 0.0
C885 C 0.27458 0.17303 0.33404 0.0
C886 C 0.28831 0.09117 0.39017 0.0
C887 C 0.27907 0.13504 0.37839 0.0
C888 C 0.28969 0.0721 0.41181 0.0
C889 C 0.28388 0.07581 0.44444 0.0
C890 C 0.28118 0.11431 0.40117 0.0
C891 C 0.27693 0.09915 0.45456 0.0
C892 C 0.27532 0.15889 0.3901 0.0
C893 C 0.27837 0.1489 0.32343 0.0
N894 N 0.27581 0.11746 0.43312 0.0
N895 N 0.28053 0.13098 0.3454 0.0
H896 H 0.68373 0.73934 0.79705 0.0
H897 H 0.63772 0.81093 0.95458 0.0
H898 H 0.7189 0.80434 0.83838 0.0
H899 H 0.60311 0.74838 0.90458 0.0
H900 H 0.6691 0.80832 0.91579 0.0
H901 H 0.65654 0.74132 0.84027 0.0
C902 C 0.68583 0.75407 0.81542 0.0
C903 C 0.70355 0.77184 0.8138 0.0
C904 C 0.65468 0.79513 0.91352 0.0
C905 C 0.67187 0.77439 0.86386 0.0
C906 C 0.63663 0.79666 0.93554 0.0
C907 C 0.61757 0.7798 0.93312 0.0
C908 C 0.65374 0.77661 0.88882 0.0
C909 C 0.61749 0.76157 0.90809 0.0
C910 C 0.67018 0.75519 0.84021 0.0
C911 C 0.70551 0.79025 0.83869 0.0
N912 N 0.63515 0.76053 0.88709 0.0
N913 N 0.68967 0.7912 0.86258 0.0
H914 H 0.24147 0.73563 0.84403 0.0
H915 H 0.30627 0.61991 0.92517 0.0
H916 H 0.31222 0.70958 0.82607 0.0
H917 H 0.23725 0.64499 0.95301 0.0
H918 H 0.30823 0.654 0.89023 0.0
H919 H 0.23915 0.70468 0.88569 0.0
C920 C 0.25667 0.72383 0.84927 0.0
C921 C 0.27707 0.72528 0.83135 0.0
C922 C 0.29262 0.65223 0.90402 0.0
C923 C 0.2744 0.68955 0.87849 0.0
C924 C 0.29156 0.63266 0.92439 0.0
C925 C 0.27164 0.62927 0.94269 0.0
C926 C 0.27359 0.66891 0.90128 0.0
C927 C 0.25293 0.64645 0.93933 0.0
C928 C 0.25526 0.70599 0.87283 0.0
C929 C 0.29604 0.70916 0.83895 0.0
N930 N 0.25434 0.66541 0.91912 0.0
N931 N 0.29418 0.69212 0.86154 0.0
H932 H 0.39063 0.29268 0.81444 0.0
H933 H 0.4281 0.26001 1.00133 0.0
H934 H 0.33784 0.27217 0.87954 0.0
H935 H 0.47777 0.2802 0.93211 0.0
H936 H 0.39466 0.26306 0.95803 0.0
H937 H 0.4223 0.28676 0.85765 0.0
C938 C 0.38561 0.28687 0.8379 0.0
C939 C 0.36135 0.28306 0.84324 0.0
C940 C 0.41287 0.26675 0.95229 0.0
C941 C 0.39814 0.27622 0.89361 0.0
C942 C 0.4319 0.265 0.97693 0.0
C943 C 0.45564 0.26988 0.97012 0.0
C944 C 0.41768 0.27345 0.92067 0.0
C945 C 0.45971 0.27633 0.93829 0.0
C946 C 0.40386 0.28346 0.86272 0.0
C947 C 0.35625 0.27532 0.87427 0.0
N948 N 0.44098 0.27795 0.91485 0.0
N949 N 0.3745 0.27226 0.89837 0.0
H950 H 0.72772 0.36579 0.8046 0.0
H951 H 0.79522 0.43294 0.96297 0.0
H952 H 0.79747 0.3426 0.84499 0.0
H953 H 0.7495 0.47192 0.89335 0.0
H954 H 0.79299 0.39761 0.92417 0.0
H955 H 0.73202 0.40272 0.84026 0.0
C956 C 0.74406 0.36854 0.82068 0.0
C957 C 0.76235 0.351 0.82137 0.0
C958 C 0.7835 0.41391 0.91732 0.0
C959 C 0.76704 0.39314 0.86332 0.0
C960 C 0.78478 0.43412 0.93947 0.0
C961 C 0.77269 0.45563 0.93144 0.0
C962 C 0.76947 0.41477 0.88705 0.0
C963 C 0.7591 0.45581 0.90071 0.0
C964 C 0.74648 0.38966 0.8411 0.0
C965 C 0.78301 0.35563 0.84314 0.0
N966 N 0.75768 0.43574 0.87988 0.0
N967 N 0.78463 0.37598 0.86343 0.0
H968 H 0.7285 0.30026 0.17233 0.0
H969 H 0.59829 0.24188 0.16279 0.0
H970 H 0.71822 0.2279 0.20266 0.0
H971 H 0.61884 0.28583 0.08532 0.0
H972 H 0.64051 0.24144 0.18582 0.0
H973 H 0.6865 0.30038 0.14793 0.0
C974 C 0.71735 0.28444 0.17382 0.0
C975 C 0.7268 0.26399 0.1893 0.0
C976 C 0.63575 0.25108 0.16371 0.0
C977 C 0.67882 0.26418 0.16229 0.0
C978 C 0.61174 0.25127 0.15052 0.0
C979 C 0.60521 0.26341 0.12166 0.0
C980 C 0.65322 0.26386 0.14863 0.0
C981 C 0.62322 0.27603 0.10739 0.0
C982 C 0.69351 0.28447 0.15986 0.0
C983 C 0.71167 0.2439 0.19061 0.0
N984 N 0.64638 0.27606 0.1211 0.0
N985 N 0.68835 0.24458 0.17763 0.0
H986 H 0.79901 0.73756 0.11862 0.0
H987 H 0.76984 0.59542 0.12319 0.0
H988 H 0.77588 0.70487 0.2046 0.0
H989 H 0.79086 0.62968 0.03748 0.0
H990 H 0.77183 0.63486 0.15355 0.0
H991 H 0.7962 0.69831 0.08917 0.0
C992 C 0.79345 0.72221 0.13156 0.0
C993 C 0.78784 0.72493 0.16456 0.0
C994 C 0.77598 0.63383 0.12809 0.0
C995 C 0.78433 0.67918 0.13019 0.0
C996 C 0.7748 0.61128 0.11072 0.0
C997 C 0.78009 0.60918 0.07762 0.0
C998 C 0.78261 0.65464 0.11242 0.0
C999 C 0.78661 0.63039 0.06288 0.0
C1000 C 0.79172 0.69964 0.11448 0.0
C1001 C 0.78029 0.704 0.17929 0.0
N1002 N 0.78768 0.65206 0.08027 0.0
N1003 N 0.77884 0.68217 0.16214 0.0
H1004 H 0.33586 0.83831 0.18546 0.0
H1005 H 0.42226 0.75541 0.08102 0.0
H1006 H 0.32274 0.7625 0.16328 0.0
H1007 H 0.4419 0.82658 0.12158 0.0
H1008 H 0.38484 0.75816 0.1081 0.0
H1009 H 0.3733 0.83507 0.15854 0.0
C1010 C 0.3407 0.821 0.17471 0.0
C1011 C 0.32597 0.80065 0.17666 0.0
C1012 C 0.39737 0.77316 0.11109 0.0
C1013 C 0.36919 0.79677 0.14582 0.0
C1014 C 0.41891 0.77156 0.09577 0.0
C1015 C 0.43554 0.79079 0.09881 0.0
C1016 C 0.39213 0.79421 0.12951 0.0
C1017 C 0.42965 0.81141 0.11785 0.0
C1018 C 0.36225 0.81912 0.15952 0.0
C1019 C 0.33356 0.77862 0.16265 0.0
N1020 N 0.40852 0.81257 0.13231 0.0
N1021 N 0.35455 0.77728 0.14777 0.0
H1022 H 0.22071 0.33122 0.17891 0.0
H1023 H 0.30379 0.4313 0.10899 0.0
H1024 H 0.29718 0.33509 0.20513 0.0
H1025 H 0.22731 0.44054 0.11525 0.0
H1026 H 0.30202 0.39448 0.13943 0.0
H1027 H 0.22305 0.36899 0.15038 0.0
C1028 C 0.23804 0.33993 0.17858 0.0
C1029 C 0.25878 0.32977 0.19454 0.0
C1030 C 0.28565 0.40462 0.13413 0.0
C1031 C 0.26163 0.37334 0.16143 0.0
C1032 C 0.2866 0.42592 0.1168 0.0
C1033 C 0.26566 0.43962 0.10908 0.0
C1034 C 0.26355 0.3964 0.14364 0.0
C1035 C 0.24398 0.43076 0.11963 0.0
C1036 C 0.23934 0.36164 0.16239 0.0
C1037 C 0.28069 0.34224 0.19345 0.0
N1038 N 0.24351 0.40984 0.13603 0.0
N1039 N 0.28156 0.36316 0.17702 0.0
H1040 H 0.35144 0.29489 0.26628 0.0
H1041 H 0.43816 0.22614 0.14647 0.0
H1042 H 0.34591 0.21973 0.235 0.0
H1043 H 0.45139 0.29983 0.18191 0.0
H1044 H 0.40563 0.22376 0.18194 0.0
H1045 H 0.3895 0.29737 0.23967 0.0
C1046 C 0.35853 0.27881 0.25461 0.0
C1047 C 0.34548 0.25708 0.25276 0.0
C1048 C 0.41568 0.24047 0.18224 0.0
C1049 C 0.38851 0.25984 0.22186 0.0
C1050 C 0.43452 0.2418 0.16202 0.0
C1051 C 0.44789 0.26319 0.1611 0.0
C1052 C 0.40967 0.26072 0.20178 0.0
C1053 C 0.44153 0.28302 0.18137 0.0
C1054 C 0.3801 0.28027 0.23914 0.0
C1055 C 0.35527 0.23689 0.23685 0.0
N1056 N 0.42284 0.28135 0.20074 0.0
N1057 N 0.37596 0.23881 0.22192 0.0
H1058 H 0.77506 0.3668 0.2444 0.0
H1059 H 0.82517 0.4451 0.10447 0.0
H1060 H 0.83883 0.35053 0.19481 0.0
H1061 H 0.75952 0.46338 0.14874 0.0
H1062 H 0.83166 0.41241 0.14164 0.0
H1063 H 0.77025 0.40418 0.21403 0.0
C1064 C 0.7882 0.37125 0.22754 0.0
C1065 C 0.80727 0.35545 0.22192 0.0
C1066 C 0.81585 0.42358 0.14348 0.0
C1067 C 0.80185 0.39786 0.18715 0.0
C1068 C 0.81222 0.44249 0.12233 0.0
C1069 C 0.79181 0.45725 0.12345 0.0
C1070 C 0.7989 0.41903 0.16602 0.0
C1071 C 0.7754 0.45236 0.1467 0.0
C1072 C 0.78539 0.39247 0.2101 0.0
C1073 C 0.82371 0.362 0.19969 0.0
N1074 N 0.77926 0.43362 0.16701 0.0
N1075 N 0.82056 0.38255 0.18312 0.0
H1076 H 0.71359 0.83053 0.17399 0.0
H1077 H 0.58084 0.77548 0.15471 0.0
H1078 H 0.69363 0.77564 0.23844 0.0
H1079 H 0.61581 0.80649 0.07633 0.0
H1080 H 0.61894 0.77913 0.19024 0.0
H1081 H 0.67451 0.82669 0.14356 0.0
C1082 C 0.70094 0.81767 0.18197 0.0
C1083 C 0.70717 0.80317 0.20875 0.0
C1084 C 0.61823 0.78502 0.16523 0.0
C1085 C 0.66181 0.7987 0.1734 0.0
C1086 C 0.59659 0.78292 0.145 0.0
C1087 C 0.59534 0.79051 0.1125 0.0
C1088 C 0.6385 0.79528 0.15299 0.0
C1089 C 0.61605 0.80038 0.1012 0.0
C1090 C 0.67854 0.81546 0.16435 0.0
C1091 C 0.68966 0.78713 0.21792 0.0
N1092 N 0.63667 0.80257 0.1214 0.0
N1093 N 0.66771 0.78524 0.20016 0.0
H1094 H 0.26857 0.69528 0.24068 0.0
H1095 H 0.24429 0.61863 0.07057 0.0
H1096 H 0.23121 0.72257 0.15295 0.0
H1097 H 0.26697 0.5857 0.16166 0.0
H1098 H 0.24042 0.65731 0.10079 0.0
H1099 H 0.26946 0.65519 0.21273 0.0
C1100 C 0.2605 0.69284 0.21566 0.0
C1101 C 0.24989 0.71232 0.1991 0.0
C1102 C 0.24615 0.64166 0.1143 0.0
C1103 C 0.25092 0.66674 0.16708 0.0
C1104 C 0.24832 0.61966 0.09705 0.0
C1105 C 0.25614 0.59925 0.11377 0.0
C1106 C 0.252 0.64325 0.14854 0.0
C1107 C 0.26112 0.60126 0.14803 0.0
C1108 C 0.26096 0.66998 0.19977 0.0
C1109 C 0.23965 0.70814 0.16672 0.0
N1110 N 0.25916 0.623 0.16436 0.0
N1111 N 0.24054 0.68589 0.15177 0.0
H1112 H 0.39307 0.74773 0.77495 0.0
H1113 H 0.44326 0.79973 0.95394 0.0
H1114 H 0.3547 0.79904 0.83352 0.0
H1115 H 0.48823 0.76226 0.88782 0.0
H1116 H 0.40984 0.79779 0.91075 0.0
H1117 H 0.42753 0.75117 0.81624 0.0
C1118 C 0.39181 0.75981 0.79625 0.0
C1119 C 0.37061 0.77293 0.80061 0.0
C1120 C 0.427 0.79001 0.90557 0.0
C1121 C 0.41011 0.77668 0.84838 0.0
C1122 C 0.44602 0.79112 0.93021 0.0
C1123 C 0.4684 0.78105 0.92436 0.0
C1124 C 0.43029 0.77857 0.87483 0.0
C1125 C 0.47114 0.77008 0.89326 0.0
C1126 C 0.41154 0.76169 0.81994 0.0
C1127 C 0.37025 0.78813 0.82911 0.0
N1128 N 0.45228 0.76901 0.86968 0.0
N1129 N 0.38956 0.78946 0.85184 0.0
H1130 H 0.31395 0.36464 0.86272 0.0
H1131 H 0.27246 0.50161 0.89157 0.0
H1132 H 0.28771 0.40899 0.78318 0.0
H1133 H 0.29077 0.45322 0.96943 0.0
H1134 H 0.2798 0.46895 0.85089 0.0
H1135 H 0.30786 0.39802 0.90173 0.0
C1136 C 0.30681 0.3814 0.85343 0.0
C1137 C 0.30106 0.3839 0.81961 0.0
C1138 C 0.28218 0.46546 0.87686 0.0
C1139 C 0.29423 0.42245 0.8643 0.0
C1140 C 0.27795 0.48402 0.89992 0.0
C1141 C 0.28095 0.47983 0.9336 0.0
C1142 C 0.28959 0.44273 0.88778 0.0
C1143 C 0.28824 0.45696 0.94355 0.0
C1144 C 0.30342 0.40052 0.87575 0.0
C1145 C 0.29247 0.4063 0.809 0.0
N1146 N 0.29233 0.43925 0.92073 0.0
N1147 N 0.28919 0.42471 0.83131 0.0
H1148 H 0.70111 0.29119 0.85403 0.0
H1149 H 0.62094 0.22852 0.98074 0.0
H1150 H 0.72259 0.2272 0.90514 0.0
H1151 H 0.60233 0.29615 0.93695 0.0
H1152 H 0.65708 0.22665 0.95086 0.0
H1153 H 0.6639 0.29219 0.88169 0.0
C1154 C 0.69797 0.27722 0.87084 0.0
C1155 C 0.71515 0.25905 0.87715 0.0
C1156 C 0.64509 0.24189 0.9477 0.0
C1157 C 0.67244 0.26024 0.90929 0.0
C1158 C 0.62429 0.24289 0.9646 0.0
C1159 C 0.6084 0.2625 0.96137 0.0
C1160 C 0.65017 0.26059 0.9272 0.0
C1161 C 0.6141 0.2808 0.94052 0.0
C1162 C 0.67673 0.2779 0.88683 0.0
C1163 C 0.7101 0.24169 0.8997 0.0
N1164 N 0.63444 0.27937 0.92424 0.0
N1165 N 0.68926 0.2427 0.91486 0.0
H1166 H 0.71916 0.6649 0.74908 0.0
H1167 H 0.79983 0.61461 0.90249 0.0
H1168 H 0.78941 0.69225 0.78462 0.0
H1169 H 0.73191 0.58226 0.86528 0.0
H1170 H 0.79669 0.6418 0.85734 0.0
H1171 H 0.72403 0.63276 0.7886 0.0
C1172 C 0.73576 0.66388 0.76479 0.0
C1173 C 0.75382 0.68139 0.76386 0.0
C1174 C 0.78248 0.6287 0.85884 0.0
C1175 C 0.75937 0.64505 0.8093 0.0
C1176 C 0.78433 0.61302 0.88462 0.0
C1177 C 0.76617 0.59596 0.8877 0.0
C1178 C 0.76222 0.62759 0.83589 0.0
C1179 C 0.74623 0.59527 0.86411 0.0
C1180 C 0.73846 0.64568 0.7875 0.0
C1181 C 0.77487 0.67938 0.78495 0.0
N1182 N 0.74475 0.61091 0.83922 0.0
N1183 N 0.77699 0.6617 0.8069 0.0
loop_
_geom_bond_atom_site_label_1
_geom_bond_atom_site_label_2
_geom_bond_distance
_geom_bond_site_symmetry_2
_ccdc_geom_bond_type
Cu0 N1 1.999 . S
Cu0 O6 1.974 . S
Cu0 N11 1.985 . S
Cu0 O20 1.959 . S
N1 Cu0 1.999 . S
N1 C3 1.263 . S
N1 C5 1.389 . S
N2 C3 1.358 . S
N2 C4 1.400 . S
C3 N1 1.263 . S
C3 N2 1.358 . S
C3 H9 0.930 . S
C4 N2 1.400 . S
C4 C5 1.351 . S
C4 H21 0.930 . S
C5 N1 1.389 . S
C5 C4 1.351 . S
C5 H10 0.930 . S
O6 Cu0 1.974 . S
O6 C16 1.282 . S
C7 O8 1.261 . S
C7 O20 1.251 . S
O8 C7 1.261 . S
H9 C3 0.930 . S
H10 C5 0.930 . S
N11 Cu0 1.985 . S
N11 C13 1.335 . S
N11 C14 1.390 . S
N12 C13 1.345 . S
N12 C15 1.336 . S
C13 N11 1.335 . S
C13 N12 1.345 . S
C13 H18 0.930 . S
C14 N11 1.390 . S
C14 C15 1.346 . S
C14 H19 0.930 . S
C15 N12 1.336 . S
C15 C14 1.346 . S
C15 H22 0.929 . S
C16 O6 1.282 . S
C16 O17 1.216 . S
O17 C16 1.216 . S
H18 C13 0.930 . S
H19 C14 0.930 . S
O20 Cu0 1.959 . S
O20 C7 1.251 . S
H21 C4 0.930 . S
H22 C15 0.929 . S
Cu23 N24 1.999 . S
Cu23 O29 1.974 . S
Cu23 N34 1.985 . S
Cu23 O43 1.959 . S
N24 Cu23 1.999 . S
N24 C26 1.263 . S
N24 C28 1.389 . S
N25 C26 1.358 . S
N25 C27 1.400 . S
C26 N24 1.263 . S
C26 N25 1.358 . S
C26 H32 0.930 . S
C27 N25 1.400 . S
C27 C28 1.351 . S
C27 H44 0.930 . S
C28 N24 1.389 . S
C28 C27 1.351 . S
C28 H33 0.930 . S
O29 Cu23 1.974 . S
O29 C39 1.282 . S
C30 O31 1.261 . S
C30 O43 1.251 . S
O31 C30 1.261 . S
H32 C26 0.930 . S
H33 C28 0.930 . S
N34 Cu23 1.985 . S
N34 C36 1.335 . S
N34 C37 1.390 . S
N35 C36 1.345 . S
N35 C38 1.336 . S
C36 N34 1.335 . S
C36 N35 1.345 . S
C36 H41 0.930 . S
C37 N34 1.390 . S
C37 C38 1.346 . S
C37 H42 0.930 . S
C38 N35 1.336 . S
C38 C37 1.346 . S
C38 H45 0.929 . S
C39 O29 1.282 . S
C39 O40 1.216 . S
O40 C39 1.216 . S
H41 C36 0.930 . S
H42 C37 0.930 . S
O43 Cu23 1.959 . S
O43 C30 1.251 . S
H44 C27 0.930 . S
H45 C38 0.929 . S
Cu46 N47 1.999 . S
Cu46 O52 1.974 . S
Cu46 N57 1.985 . S
Cu46 O66 1.959 . S
N47 Cu46 1.999 . S
N47 C49 1.263 . S
N47 C51 1.389 . S
N48 C49 1.358 . S
N48 C50 1.400 . S
C49 N47 1.263 . S
C49 N48 1.358 . S
C49 H55 0.930 . S
C50 N48 1.400 . S
C50 C51 1.351 . S
C50 H67 0.930 . S
C51 N47 1.389 . S
C51 C50 1.351 . S
C51 H56 0.930 . S
O52 Cu46 1.974 . S
O52 C62 1.282 . S
C53 O54 1.261 . S
C53 O66 1.251 . S
O54 C53 1.261 . S
H55 C49 0.930 . S
H56 C51 0.930 . S
N57 Cu46 1.985 . S
N57 C59 1.335 . S
N57 C60 1.390 . S
N58 C59 1.345 . S
N58 C61 1.336 . S
C59 N57 1.335 . S
C59 N58 1.345 . S
C59 H64 0.930 . S
C60 N57 1.390 . S
C60 C61 1.346 . S
C60 H65 0.930 . S
C61 N58 1.336 . S
C61 C60 1.346 . S
C61 H68 0.929 . S
C62 O52 1.282 . S
C62 O63 1.216 . S
O63 C62 1.216 . S
H64 C59 0.930 . S
H65 C60 0.930 . S
O66 Cu46 1.959 . S
O66 C53 1.251 . S
H67 C50 0.930 . S
H68 C61 0.929 . S
Cu69 N70 1.999 . S
Cu69 O75 1.974 . S
Cu69 N80 1.985 . S
Cu69 O89 1.959 . S
N70 Cu69 1.999 . S
N70 C72 1.263 . S
N70 C74 1.389 . S
N71 C72 1.358 . S
N71 C73 1.400 . S
C72 N70 1.263 . S
C72 N71 1.358 . S
C72 H78 0.930 . S
C73 N71 1.400 . S
C73 C74 1.351 . S
C73 H90 0.930 . S
C74 N70 1.389 . S
C74 C73 1.351 . S
C74 H79 0.930 . S
O75 Cu69 1.974 . S
O75 C85 1.282 . S
C76 O77 1.261 . S
C76 O89 1.251 . S
O77 C76 1.261 . S
H78 C72 0.930 . S
H79 C74 0.930 . S
N80 Cu69 1.985 . S
N80 C82 1.335 . S
N80 C83 1.390 . S
N81 C82 1.345 . S
N81 C84 1.336 . S
C82 N80 1.335 . S
C82 N81 1.345 . S
C82 H87 0.930 . S
C83 N80 1.390 . S
C83 C84 1.346 . S
C83 H88 0.930 . S
C84 N81 1.336 . S
C84 C83 1.346 . S
C84 H91 0.929 . S
C85 O75 1.282 . S
C85 O86 1.216 . S
O86 C85 1.216 . S
H87 C82 0.930 . S
H88 C83 0.930 . S
O89 Cu69 1.959 . S
O89 C76 1.251 . S
H90 C73 0.930 . S
H91 C84 0.929 . S
Cu92 N93 1.999 . S
Cu92 O98 1.974 . S
Cu92 N103 1.985 . S
Cu92 O112 1.959 . S
N93 Cu92 1.999 . S
N93 C95 1.263 . S
N93 C97 1.389 . S
N94 C95 1.358 . S
N94 C96 1.400 . S
C95 N93 1.263 . S
C95 N94 1.358 . S
C95 H101 0.930 . S
C96 N94 1.400 . S
C96 C97 1.351 . S
C96 H113 0.930 . S
C97 N93 1.389 . S
C97 C96 1.351 . S
C97 H102 0.930 . S
O98 Cu92 1.974 . S
O98 C108 1.282 . S
C99 O100 1.261 . S
C99 O112 1.251 . S
O100 C99 1.261 . S
H101 C95 0.930 . S
H102 C97 0.930 . S
N103 Cu92 1.985 . S
N103 C105 1.335 . S
N103 C106 1.390 . S
N104 C105 1.345 . S
N104 C107 1.336 . S
C105 N103 1.335 . S
C105 N104 1.345 . S
C105 H110 0.930 . S
C106 N103 1.390 . S
C106 C107 1.346 . S
C106 H111 0.930 . S
C107 N104 1.336 . S
C107 C106 1.346 . S
C107 H114 0.929 . S
C108 O98 1.282 . S
C108 O109 1.216 . S
O109 C108 1.216 . S
H110 C105 0.930 . S
H111 C106 0.930 . S
O112 Cu92 1.959 . S
O112 C99 1.251 . S
H113 C96 0.930 . S
H114 C107 0.929 . S
Cu115 N116 1.999 . S
Cu115 O121 1.974 . S
Cu115 N126 1.985 . S
Cu115 O135 1.959 . S
N116 Cu115 1.999 . S
N116 C118 1.263 . S
N116 C120 1.389 . S
N117 C118 1.358 . S
N117 C119 1.400 . S
C118 N116 1.263 . S
C118 N117 1.358 . S
C118 H124 0.930 . S
C119 N117 1.400 . S
C119 C120 1.351 . S
C119 H136 0.930 . S
C120 N116 1.389 . S
C120 C119 1.351 . S
C120 H125 0.930 . S
O121 Cu115 1.974 . S
O121 C131 1.282 . S
C122 O123 1.261 . S
C122 O135 1.251 . S
O123 C122 1.261 . S
H124 C118 0.930 . S
H125 C120 0.930 . S
N126 Cu115 1.985 . S
N126 C128 1.335 . S
N126 C129 1.390 . S
N127 C128 1.345 . S
N127 C130 1.336 . S
C128 N126 1.335 . S
C128 N127 1.345 . S
C128 H133 0.930 . S
C129 N126 1.390 . S
C129 C130 1.346 . S
C129 H134 0.930 . S
C130 N127 1.336 . S
C130 C129 1.346 . S
C130 H137 0.929 . S
C131 O121 1.282 . S
C131 O132 1.216 . S
O132 C131 1.216 . S
H133 C128 0.930 . S
H134 C129 0.930 . S
O135 Cu115 1.959 . S
O135 C122 1.251 . S
H136 C119 0.930 . S
H137 C130 0.929 . S
Cu138 N139 1.999 . S
Cu138 O144 1.974 . S
Cu138 N149 1.985 . S
Cu138 O158 1.959 . S
N139 Cu138 1.999 . S
N139 C141 1.263 . S
N139 C143 1.389 . S
N140 C141 1.358 . S
N140 C142 1.400 . S
C141 N139 1.263 . S
C141 N140 1.358 . S
C141 H147 0.930 . S
C142 N140 1.400 . S
C142 C143 1.351 . S
C142 H159 0.930 . S
C143 N139 1.389 . S
C143 C142 1.351 . S
C143 H148 0.930 . S
O144 Cu138 1.974 . S
O144 C154 1.282 . S
C145 O146 1.261 . S
C145 O158 1.251 . S
O146 C145 1.261 . S
H147 C141 0.930 . S
H148 C143 0.930 . S
N149 Cu138 1.985 . S
N149 C151 1.335 . S
N149 C152 1.390 . S
N150 C151 1.345 . S
N150 C153 1.336 . S
C151 N149 1.335 . S
C151 N150 1.345 . S
C151 H156 0.930 . S
C152 N149 1.390 . S
C152 C153 1.346 . S
C152 H157 0.930 . S
C153 N150 1.336 . S
C153 C152 1.346 . S
C153 H160 0.929 . S
C154 O144 1.282 . S
C154 O155 1.216 . S
O155 C154 1.216 . S
H156 C151 0.930 . S
H157 C152 0.930 . S
O158 Cu138 1.959 . S
O158 C145 1.251 . S
H159 C142 0.930 . S
H160 C153 0.929 . S
Cu161 N162 1.999 . S
Cu161 O167 1.974 . S
Cu161 N172 1.985 . S
Cu161 O181 1.959 . S
N162 Cu161 1.999 . S
N162 C164 1.263 . S
N162 C166 1.389 . S
N163 C164 1.358 . S
N163 C165 1.400 . S
C164 N162 1.263 . S
C164 N163 1.358 . S
C164 H170 0.930 . S
C165 N163 1.400 . S
C165 C166 1.351 . S
C165 H182 0.930 . S
C166 N162 1.389 . S
C166 C165 1.351 . S
C166 H171 0.930 . S
O167 Cu161 1.974 . S
O167 C177 1.282 . S
C168 O169 1.261 . S
C168 O181 1.251 . S
O169 C168 1.261 . S
H170 C164 0.930 . S
H171 C166 0.930 . S
N172 Cu161 1.985 . S
N172 C174 1.335 . S
N172 C175 1.390 . S
N173 C174 1.345 . S
N173 C176 1.336 . S
C174 N172 1.335 . S
C174 N173 1.345 . S
C174 H179 0.930 . S
C175 N172 1.390 . S
C175 C176 1.346 . S
C175 H180 0.930 . S
C176 N173 1.336 . S
C176 C175 1.346 . S
C176 H183 0.929 . S
C177 O167 1.282 . S
C177 O178 1.216 . S
O178 C177 1.216 . S
H179 C174 0.930 . S
H180 C175 0.930 . S
O181 Cu161 1.959 . S
O181 C168 1.251 . S
H182 C165 0.930 . S
H183 C176 0.929 . S
C184 C185 1.443 . S
C184 N188 1.376 . S
C184 C222 1.389 . S
C185 C184 1.443 . S
C185 C186 1.340 . S
C185 H225 0.951 . S
C186 C185 1.340 . S
C186 C187 1.439 . S
C186 H226 0.950 . S
C187 C186 1.439 . S
C187 N188 1.374 . S
C187 C221 1.395 . S
N188 C184 1.376 . S
N188 C187 1.374 . S
N188 Co189 2.008 . S
Co189 N188 2.008 . S
Co189 N190 1.995 . S
Co189 N195 2.008 . S
Co189 N200 1.995 . S
Co189 N205 2.282 . S
Co189 N211 2.282 . S
N190 Co189 1.995 . S
N190 C191 1.376 . S
N190 C194 1.383 . S
C191 N190 1.376 . S
C191 C192 1.446 . S
C191 C221 1.391 . S
C192 C191 1.446 . S
C192 C193 1.339 1_455 S
C192 H227 0.949 . S
C193 C192 1.339 1_655 S
C193 C194 1.439 1_655 S
C193 H228 0.950 . S
C194 N190 1.383 . S
C194 C193 1.439 1_455 S
C194 C223 1.392 1_455 S
N195 Co189 2.008 . S
N195 C196 1.376 1_455 S
N195 C199 1.374 . S
C196 N195 1.376 1_655 S
C196 C197 1.443 . S
C196 C223 1.389 . S
C197 C196 1.443 . S
C197 C198 1.340 . S
C197 H229 0.951 . S
C198 C197 1.340 . S
C198 C199 1.439 1_655 S
C198 H230 0.950 . S
C199 N195 1.374 . S
C199 C198 1.439 1_455 S
C199 C224 1.395 . S
N200 Co189 1.995 . S
N200 C201 1.376 . S
N200 C204 1.383 . S
C201 N200 1.376 . S
C201 C202 1.446 . S
C201 C224 1.391 . S
C202 C201 1.446 . S
C202 C203 1.339 . S
C202 H231 0.949 . S
C203 C202 1.339 . S
C203 C204 1.439 . S
C203 H232 0.950 . S
C204 N200 1.383 . S
C204 C203 1.439 . S
C204 C222 1.392 . S
N205 Co189 2.282 . S
N205 C208 1.332 . S
N205 C210 1.332 1_455 S
C206 C207 1.386 . S
C206 C209 1.388 . S
C207 C206 1.386 . S
C207 C208 1.382 1_655 S
C207 H233 0.950 . S
C208 N205 1.332 . S
C208 C207 1.382 1_455 S
C208 H219 0.952 . S
C209 C206 1.388 . S
C209 C210 1.382 . S
C209 H234 0.950 . S
C210 N205 1.332 1_655 S
C210 C209 1.382 . S
C210 H220 0.948 1_655 S
N211 Co189 2.282 . S
N211 C215 1.332 . S
N211 C216 1.332 . S
C212 C213 1.388 . S
C212 C216 1.382 . S
C212 H235 0.950 . S
C213 C212 1.388 . S
C213 C214 1.386 . S
C214 C213 1.386 . S
C214 C215 1.382 . S
C214 H236 0.950 . S
C215 N211 1.332 . S
C215 C214 1.382 . S
C215 H217 0.952 . S
C216 N211 1.332 . S
C216 C212 1.382 . S
C216 H218 0.948 . S
H217 C215 0.952 . S
H218 C216 0.948 . S
H219 C208 0.952 . S
H220 C210 0.948 1_455 S
C221 C187 1.395 . S
C221 C191 1.391 . S
C222 C184 1.389 . S
C222 C204 1.392 . S
C223 C194 1.392 1_655 S
C223 C196 1.389 . S
C224 C199 1.395 . S
C224 C201 1.391 . S
H225 C185 0.951 . S
H226 C186 0.950 . S
H227 C192 0.949 . S
H228 C193 0.950 . S
H229 C197 0.951 . S
H230 C198 0.950 . S
H231 C202 0.949 . S
H232 C203 0.950 . S
H233 C207 0.950 . S
H234 C209 0.950 . S
H235 C212 0.950 . S
H236 C214 0.950 . S
C237 C238 1.443 . S
C237 N241 1.376 . S
C237 C275 1.389 . S
C238 C237 1.443 . S
C238 C239 1.340 . S
C238 H278 0.951 . S
C239 C238 1.340 . S
C239 C240 1.439 . S
C239 H279 0.950 . S
C240 C239 1.439 . S
C240 N241 1.374 . S
C240 C274 1.395 . S
N241 C237 1.376 . S
N241 C240 1.374 . S
N241 Co242 2.008 . S
Co242 N241 2.008 . S
Co242 N243 1.995 . S
Co242 N248 2.008 . S
Co242 N253 1.995 . S
Co242 N258 2.282 . S
Co242 N264 2.282 . S
N243 Co242 1.995 . S
N243 C244 1.376 . S
N243 C247 1.383 . S
C244 N243 1.376 . S
C244 C245 1.446 . S
C244 C274 1.391 . S
C245 C244 1.446 . S
C245 C246 1.339 1_545 S
C245 H280 0.949 . S
C246 C245 1.339 1_565 S
C246 C247 1.439 1_565 S
C246 H281 0.950 . S
C247 N243 1.383 . S
C247 C246 1.439 1_545 S
C247 C276 1.392 1_545 S
N248 Co242 2.008 . S
N248 C249 1.354 1_545 S
N248 C252 1.374 . S
C249 N248 1.354 1_565 S
C249 C250 1.457 . S
C249 C276 1.398 . S
C250 C249 1.457 . S
C250 C251 1.340 . S
C250 H282 0.951 . S
C251 C250 1.340 . S
C251 C252 1.439 1_565 S
C251 H283 0.950 . S
C252 N248 1.374 . S
C252 C251 1.439 1_545 S
C252 C277 1.395 . S
N253 Co242 1.995 . S
N253 C254 1.376 . S
N253 C257 1.383 . S
C254 N253 1.376 . S
C254 C255 1.446 . S
C254 C277 1.391 . S
C255 C254 1.446 . S
C255 C256 1.339 . S
C255 H284 0.949 . S
C256 C255 1.339 . S
C256 C257 1.439 . S
C256 H285 0.950 . S
C257 N253 1.383 . S
C257 C256 1.439 . S
C257 C275 1.392 . S
N258 Co242 2.282 . S
N258 C261 1.332 . S
N258 C263 1.332 1_545 S
C259 C260 1.386 . S
C259 C262 1.388 . S
C260 C259 1.386 . S
C260 C261 1.382 1_565 S
C260 H286 0.950 . S
C261 N258 1.332 . S
C261 C260 1.382 1_545 S
C261 H272 0.952 . S
C262 C259 1.388 . S
C262 C263 1.382 . S
C262 H287 0.950 . S
C263 N258 1.332 1_565 S
C263 C262 1.382 . S
C263 H273 0.948 1_565 S
N264 Co242 2.282 . S
N264 C268 1.332 . S
N264 C269 1.332 . S
C265 C266 1.388 . S
C265 C269 1.382 . S
C265 H288 0.950 . S
C266 C265 1.388 . S
C266 C267 1.386 . S
C267 C266 1.386 . S
C267 C268 1.382 . S
C267 H289 0.950 . S
C268 N264 1.332 . S
C268 C267 1.382 . S
C268 H270 0.952 . S
C269 N264 1.332 . S
C269 C265 1.382 . S
C269 H271 0.948 . S
H270 C268 0.952 . S
H271 C269 0.948 . S
H272 C261 0.952 . S
H273 C263 0.948 1_545 S
C274 C240 1.395 . S
C274 C244 1.391 . S
C275 C237 1.389 . S
C275 C257 1.392 . S
C276 C247 1.392 1_565 S
C276 C249 1.398 . S
C277 C252 1.395 . S
C277 C254 1.391 . S
H278 C238 0.951 . S
H279 C239 0.950 . S
H280 C245 0.949 . S
H281 C246 0.950 . S
H282 C250 0.951 . S
H283 C251 0.950 . S
H284 C255 0.949 . S
H285 C256 0.950 . S
H286 C260 0.950 . S
H287 C262 0.950 . S
H288 C265 0.950 . S
H289 C267 0.950 . S
C290 C291 1.443 . S
C290 N294 1.376 . S
C290 C328 1.389 . S
C291 C290 1.443 . S
C291 C292 1.340 . S
C291 H331 0.951 . S
C292 C291 1.340 . S
C292 C293 1.439 . S
C292 H332 0.950 . S
C293 C292 1.439 . S
C293 N294 1.374 . S
C293 C327 1.395 . S
N294 C290 1.376 . S
N294 C293 1.374 . S
N294 Co295 2.008 . S
Co295 N294 2.008 . S
Co295 N296 1.995 1_455 S
Co295 N301 2.008 1_455 S
Co295 N306 1.995 . S
Co295 N311 2.282 1_455 S
Co295 N317 2.282 . S
N296 Co295 1.995 1_655 S
N296 C297 1.376 . S
N296 C300 1.383 . S
C297 N296 1.376 . S
C297 C298 1.446 . S
C297 C327 1.391 1_655 S
C298 C297 1.446 . S
C298 C299 1.339 . S
C298 H333 0.949 . S
C299 C298 1.339 . S
C299 C300 1.439 . S
C299 H334 0.950 . S
C300 N296 1.383 . S
C300 C299 1.439 . S
C300 C329 1.392 . S
N301 Co295 2.008 1_655 S
N301 C302 1.376 . S
N301 C305 1.374 . S
C302 N301 1.376 . S
C302 C303 1.443 . S
C302 C329 1.389 . S
C303 C302 1.443 . S
C303 C304 1.340 . S
C303 H335 0.951 . S
C304 C303 1.340 . S
C304 C305 1.439 . S
C304 H336 0.950 . S
C305 N301 1.374 . S
C305 C304 1.439 . S
C305 C330 1.395 1_655 S
N306 Co295 1.995 . S
N306 C307 1.376 . S
N306 C310 1.383 . S
C307 N306 1.376 . S
C307 C308 1.446 . S
C307 C330 1.391 . S
C308 C307 1.446 . S
C308 C309 1.339 . S
C308 H337 0.949 . S
C309 C308 1.339 . S
C309 C310 1.439 . S
C309 H338 0.950 . S
C310 N306 1.383 . S
C310 C309 1.439 . S
C310 C328 1.392 . S
N311 Co295 2.282 1_655 S
N311 C314 1.332 . S
N311 C316 1.332 . S
C312 C313 1.386 . S
C312 C315 1.388 . S
C313 C312 1.386 . S
C313 C314 1.382 . S
C313 H339 0.950 . S
C314 N311 1.332 . S
C314 C313 1.382 . S
C314 H325 0.952 . S
C315 C312 1.388 . S
C315 C316 1.382 . S
C315 H340 0.950 . S
C316 N311 1.332 . S
C316 C315 1.382 . S
C316 H326 0.948 . S
N317 Co295 2.282 . S
N317 C321 1.332 . S
N317 C322 1.332 . S
C318 C319 1.388 . S
C318 C322 1.382 . S
C318 H341 0.950 . S
C319 C318 1.388 . S
C319 C320 1.386 . S
C320 C319 1.386 . S
C320 C321 1.382 . S
C320 H342 0.950 . S
C321 N317 1.332 . S
C321 C320 1.382 . S
C321 H323 0.952 . S
C322 N317 1.332 . S
C322 C318 1.382 . S
C322 H324 0.948 . S
H323 C321 0.952 . S
H324 C322 0.948 . S
H325 C314 0.952 . S
H326 C316 0.948 . S
C327 C293 1.395 . S
C327 C297 1.391 1_455 S
C328 C290 1.389 . S
C328 C310 1.392 . S
C329 C300 1.392 . S
C329 C302 1.389 . S
C330 C305 1.395 1_455 S
C330 C307 1.391 . S
H331 C291 0.951 . S
H332 C292 0.950 . S
H333 C298 0.949 . S
H334 C299 0.950 . S
H335 C303 0.951 . S
H336 C304 0.950 . S
H337 C308 0.949 . S
H338 C309 0.950 . S
H339 C313 0.950 . S
H340 C315 0.950 . S
H341 C318 0.950 . S
H342 C320 0.950 . S
C343 C344 1.443 . S
C343 N347 1.376 . S
C343 C381 1.389 . S
C344 C343 1.443 . S
C344 C345 1.340 . S
C344 H384 0.951 . S
C345 C344 1.340 . S
C345 C346 1.439 . S
C345 H385 0.950 . S
C346 C345 1.439 . S
C346 N347 1.374 . S
C346 C380 1.395 1_565 S
N347 C343 1.376 . S
N347 C346 1.374 . S
N347 Co348 2.008 1_565 S
Co348 N347 2.008 1_545 S
Co348 N349 1.995 . S
Co348 N354 2.008 . S
Co348 N359 1.995 1_545 S
Co348 N364 2.282 . S
Co348 N370 2.282 1_545 S
N349 Co348 1.995 . S
N349 C350 1.376 . S
N349 C353 1.383 . S
C350 N349 1.376 . S
C350 C351 1.446 . S
C350 C380 1.391 . S
C351 C350 1.446 . S
C351 C352 1.339 . S
C351 H386 0.949 . S
C352 C351 1.339 . S
C352 C353 1.439 . S
C352 H387 0.950 . S
C353 N349 1.383 . S
C353 C352 1.439 . S
C353 C382 1.392 . S
N354 Co348 2.008 . S
N354 C355 1.376 . S
N354 C358 1.374 . S
C355 N354 1.376 . S
C355 C356 1.443 . S
C355 C382 1.389 . S
C356 C355 1.443 . S
C356 C357 1.340 . S
C356 H388 0.951 . S
C357 C356 1.340 . S
C357 C358 1.439 . S
C357 H389 0.950 . S
C358 N354 1.374 . S
C358 C357 1.439 . S
C358 C383 1.395 . S
N359 Co348 1.995 1_565 S
N359 C360 1.376 . S
N359 C363 1.383 . S
C360 N359 1.376 . S
C360 C361 1.446 . S
C360 C383 1.391 1_565 S
C361 C360 1.446 . S
C361 C362 1.339 . S
C361 H390 0.949 . S
C362 C361 1.339 . S
C362 C363 1.439 . S
C362 H391 0.950 . S
C363 N359 1.383 . S
C363 C362 1.439 . S
C363 C381 1.392 . S
N364 Co348 2.282 . S
N364 C367 1.332 . S
N364 C369 1.332 . S
C365 C366 1.386 . S
C365 C368 1.388 . S
C366 C365 1.386 . S
C366 C367 1.382 . S
C366 H392 0.950 . S
C367 N364 1.332 . S
C367 C366 1.382 . S
C367 H378 0.952 . S
C368 C365 1.388 . S
C368 C369 1.382 . S
C368 H393 0.950 . S
C369 N364 1.332 . S
C369 C368 1.382 . S
C369 H379 0.948 . S
N370 Co348 2.282 1_565 S
N370 C374 1.332 . S
N370 C375 1.332 . S
C371 C372 1.388 . S
C371 C375 1.382 . S
C371 H394 0.950 . S
C372 C371 1.388 . S
C372 C373 1.386 . S
C373 C372 1.386 . S
C373 C374 1.382 . S
C373 H395 0.950 . S
C374 N370 1.332 . S
C374 C373 1.382 . S
C374 H376 0.952 . S
C375 N370 1.332 . S
C375 C371 1.382 . S
C375 H377 0.948 . S
H376 C374 0.952 . S
H377 C375 0.948 . S
H378 C367 0.952 . S
H379 C369 0.948 . S
C380 C346 1.395 1_545 S
C380 C350 1.391 . S
C381 C343 1.389 . S
C381 C363 1.392 . S
C382 C353 1.392 . S
C382 C355 1.389 . S
C383 C358 1.395 . S
C383 C360 1.391 1_545 S
H384 C344 0.951 . S
H385 C345 0.950 . S
H386 C351 0.949 . S
H387 C352 0.950 . S
H388 C356 0.951 . S
H389 C357 0.950 . S
H390 C361 0.949 . S
H391 C362 0.950 . S
H392 C366 0.950 . S
H393 C368 0.950 . S
H394 C371 0.950 . S
H395 C373 0.950 . S
C396 C397 1.443 . S
C396 N400 1.376 . S
C396 C434 1.389 . S
C397 C396 1.443 . S
C397 C398 1.340 . S
C397 H437 0.951 . S
C398 C397 1.340 . S
C398 C399 1.439 . S
C398 H438 0.950 . S
C399 C398 1.439 . S
C399 N400 1.374 . S
C399 C433 1.395 1_554 S
N400 C396 1.376 . S
N400 C399 1.374 . S
N400 Co401 2.008 . S
Co401 N400 2.008 . S
Co401 N402 1.995 1_554 S
Co401 N407 2.008 1_554 S
Co401 N412 1.995 . S
Co401 N417 2.282 . S
Co401 N423 2.282 1_554 S
N402 Co401 1.995 1_556 S
N402 C403 1.376 . S
N402 C406 1.383 . S
C403 N402 1.376 . S
C403 C404 1.446 . S
C403 C433 1.391 . S
C404 C403 1.446 . S
C404 C405 1.339 . S
C404 H439 0.949 . S
C405 C404 1.339 . S
C405 C406 1.439 . S
C405 H440 0.950 . S
C406 N402 1.383 . S
C406 C405 1.439 . S
C406 C435 1.392 . S
N407 Co401 2.008 1_556 S
N407 C408 1.376 . S
N407 C411 1.374 . S
C408 N407 1.376 . S
C408 C409 1.443 . S
C408 C435 1.389 . S
C409 C408 1.443 . S
C409 C410 1.340 . S
C409 H441 0.951 . S
C410 C409 1.340 . S
C410 C411 1.439 . S
C410 H442 0.950 . S
C411 N407 1.374 . S
C411 C410 1.439 . S
C411 C436 1.395 1_556 S
N412 Co401 1.995 . S
N412 C413 1.376 . S
N412 C416 1.383 . S
C413 N412 1.376 . S
C413 C414 1.446 . S
C413 C436 1.391 . S
C414 C413 1.446 . S
C414 C415 1.339 . S
C414 H443 0.949 . S
C415 C414 1.339 . S
C415 C416 1.439 . S
C415 H444 0.950 . S
C416 N412 1.383 . S
C416 C415 1.439 . S
C416 C434 1.392 . S
N417 Co401 2.282 . S
N417 C420 1.332 . S
N417 C422 1.332 . S
C418 C419 1.386 . S
C418 C421 1.388 . S
C419 C418 1.386 . S
C419 C420 1.382 . S
C419 H445 0.950 . S
C420 N417 1.332 . S
C420 C419 1.382 . S
C420 H431 0.952 . S
C421 C418 1.388 . S
C421 C422 1.382 . S
C421 H446 0.950 . S
C422 N417 1.332 . S
C422 C421 1.382 . S
C422 H432 0.948 . S
N423 Co401 2.282 1_556 S
N423 C427 1.332 . S
N423 C428 1.332 . S
C424 C425 1.388 . S
C424 C428 1.382 . S
C424 H447 0.950 . S
C425 C424 1.388 . S
C425 C426 1.386 . S
C426 C425 1.386 . S
C426 C427 1.382 . S
C426 H448 0.950 . S
C427 N423 1.332 . S
C427 C426 1.382 . S
C427 H429 0.952 . S
C428 N423 1.332 . S
C428 C424 1.382 . S
C428 H430 0.948 . S
H429 C427 0.952 . S
H430 C428 0.948 . S
H431 C420 0.952 . S
H432 C422 0.948 . S
C433 C399 1.395 1_556 S
C433 C403 1.391 . S
C434 C396 1.389 . S
C434 C416 1.392 . S
C435 C406 1.392 . S
C435 C408 1.389 . S
C436 C411 1.395 1_554 S
C436 C413 1.391 . S
H437 C397 0.951 . S
H438 C398 0.950 . S
H439 C404 0.949 . S
H440 C405 0.950 . S
H441 C409 0.951 . S
H442 C410 0.950 . S
H443 C414 0.949 . S
H444 C415 0.950 . S
H445 C419 0.950 . S
H446 C421 0.950 . S
H447 C424 0.950 . S
H448 C426 0.950 . S
C449 C450 1.443 . S
C449 N453 1.376 . S
C449 C487 1.389 . S
C450 C449 1.443 . S
C450 C451 1.340 . S
C450 H490 0.951 . S
C451 C450 1.340 . S
C451 C452 1.439 . S
C451 H491 0.950 . S
C452 C451 1.439 . S
C452 N453 1.374 . S
C452 C486 1.393 . S
N453 C449 1.376 . S
N453 C452 1.374 . S
N453 Co454 2.008 . S
Co454 N453 2.008 . S
Co454 N455 1.995 1_554 S
Co454 N460 2.008 1_554 S
Co454 N465 1.995 . S
Co454 N470 2.282 . S
Co454 N476 2.282 1_554 S
N455 Co454 1.995 1_556 S
N455 C456 1.376 . S
N455 C459 1.383 . S
C456 N455 1.376 . S
C456 C457 1.446 . S
C456 C486 1.393 1_556 S
C457 C456 1.446 . S
C457 C458 1.339 . S
C457 H492 0.949 . S
C458 C457 1.339 . S
C458 C459 1.439 . S
C458 H493 0.950 . S
C459 N455 1.383 . S
C459 C458 1.439 . S
C459 C488 1.392 . S
N460 Co454 2.008 1_556 S
N460 C461 1.376 . S
N460 C464 1.374 1_556 S
C461 N460 1.376 . S
C461 C462 1.443 . S
C461 C488 1.389 . S
C462 C461 1.443 . S
C462 C463 1.340 . S
C462 H494 0.951 . S
C463 C462 1.340 . S
C463 C464 1.439 1_556 S
C463 H495 0.950 . S
C464 N460 1.374 1_554 S
C464 C463 1.439 1_554 S
C464 C489 1.395 . S
N465 Co454 1.995 . S
N465 C466 1.376 . S
N465 C469 1.383 . S
C466 N465 1.376 . S
C466 C467 1.446 . S
C466 C489 1.391 . S
C467 C466 1.446 . S
C467 C468 1.339 . S
C467 H496 0.949 . S
C468 C467 1.339 . S
C468 C469 1.439 . S
C468 H497 0.950 . S
C469 N465 1.383 . S
C469 C468 1.439 . S
C469 C487 1.392 . S
N470 Co454 2.282 . S
N470 C473 1.332 . S
N470 C475 1.332 . S
C471 C472 1.386 . S
C471 C474 1.388 . S
C472 C471 1.386 . S
C472 C473 1.382 . S
C472 H498 0.950 . S
C473 N470 1.332 . S
C473 C472 1.382 . S
C473 H484 0.952 . S
C474 C471 1.388 . S
C474 C475 1.382 . S
C474 H499 0.950 . S
C475 N470 1.332 . S
C475 C474 1.382 . S
C475 H485 0.948 . S
N476 Co454 2.282 1_556 S
N476 C480 1.332 . S
N476 C481 1.332 . S
C477 C478 1.388 . S
C477 C481 1.382 . S
C477 H500 0.950 . S
C478 C477 1.388 . S
C478 C479 1.386 . S
C479 C478 1.386 . S
C479 C480 1.382 . S
C479 H501 0.950 . S
C480 N476 1.332 . S
C480 C479 1.382 . S
C480 H482 0.952 . S
C481 N476 1.332 . S
C481 C477 1.382 . S
C481 H483 0.948 . S
H482 C480 0.952 . S
H483 C481 0.948 . S
H484 C473 0.952 . S
H485 C475 0.948 . S
C486 C452 1.393 . S
C486 C456 1.393 1_554 S
C487 C449 1.389 . S
C487 C469 1.392 . S
C488 C459 1.392 . S
C488 C461 1.389 . S
C489 C464 1.395 . S
C489 C466 1.391 . S
H490 C450 0.951 . S
H491 C451 0.950 . S
H492 C457 0.949 . S
H493 C458 0.950 . S
H494 C462 0.951 . S
H495 C463 0.950 . S
H496 C467 0.949 . S
H497 C468 0.950 . S
H498 C472 0.950 . S
H499 C474 0.950 . S
H500 C477 0.950 . S
H501 C479 0.950 . S
C502 C503 1.443 . S
C502 N506 1.376 1_556 S
C502 C540 1.389 . S
C503 C502 1.443 . S
C503 C504 1.340 1_556 S
C503 H543 0.951 . S
C504 C503 1.340 1_554 S
C504 C505 1.439 . S
C504 H544 0.950 . S
C505 C504 1.439 . S
C505 N506 1.374 . S
C505 C539 1.395 . S
N506 C502 1.376 1_554 S
N506 C505 1.374 . S
N506 Co507 2.008 . S
Co507 N506 2.008 . S
Co507 N508 1.995 . S
Co507 N513 2.008 . S
Co507 N518 1.995 . S
Co507 N523 2.282 1_554 S
Co507 N529 2.282 . S
N508 Co507 1.995 . S
N508 C509 1.376 . S
N508 C512 1.383 . S
C509 N508 1.376 . S
C509 C510 1.446 . S
C509 C539 1.391 . S
C510 C509 1.446 . S
C510 C511 1.339 . S
C510 H545 0.949 . S
C511 C510 1.339 . S
C511 C512 1.439 . S
C511 H546 0.950 . S
C512 N508 1.383 . S
C512 C511 1.439 . S
C512 C541 1.392 . S
N513 Co507 2.008 . S
N513 C514 1.376 . S
N513 C517 1.374 . S
C514 N513 1.376 . S
C514 C515 1.443 . S
C514 C541 1.389 . S
C515 C514 1.443 . S
C515 C516 1.340 . S
C515 H547 0.951 . S
C516 C515 1.340 . S
C516 C517 1.439 . S
C516 H548 0.950 . S
C517 N513 1.374 . S
C517 C516 1.439 . S
C517 C542 1.395 . S
N518 Co507 1.995 . S
N518 C519 1.376 . S
N518 C522 1.383 1_554 S
C519 N518 1.376 . S
C519 C520 1.446 1_554 S
C519 C542 1.391 . S
C520 C519 1.446 1_556 S
C520 C521 1.339 . S
C520 H549 0.949 . S
C521 C520 1.339 . S
C521 C522 1.439 . S
C521 H550 0.950 . S
C522 N518 1.383 1_556 S
C522 C521 1.439 . S
C522 C540 1.392 . S
N523 Co507 2.282 1_556 S
N523 C526 1.332 . S
N523 C528 1.332 . S
C524 C525 1.386 . S
C524 C527 1.388 . S
C525 C524 1.386 . S
C525 C526 1.382 . S
C525 H551 0.950 . S
C526 N523 1.332 . S
C526 C525 1.382 . S
C526 H537 0.952 . S
C527 C524 1.388 . S
C527 C528 1.382 . S
C527 H552 0.950 . S
C528 N523 1.332 . S
C528 C527 1.382 . S
C528 H538 0.948 1_556 S
N529 Co507 2.282 . S
N529 C533 1.332 . S
N529 C534 1.332 . S
C530 C531 1.388 . S
C530 C534 1.382 . S
C530 H553 0.950 . S
C531 C530 1.388 . S
C531 C532 1.386 . S
C532 C531 1.386 . S
C532 C533 1.382 . S
C532 H554 0.950 . S
C533 N529 1.332 . S
C533 C532 1.382 . S
C533 H535 0.952 . S
C534 N529 1.332 . S
C534 C530 1.382 . S
C534 H536 0.948 . S
H535 C533 0.952 . S
H536 C534 0.948 . S
H537 C526 0.952 . S
H538 C528 0.948 1_554 S
C539 C505 1.395 . S
C539 C509 1.391 . S
C540 C502 1.389 . S
C540 C522 1.392 . S
C541 C512 1.392 . S
C541 C514 1.389 . S
C542 C517 1.395 . S
C542 C519 1.391 . S
H543 C503 0.951 . S
H544 C504 0.950 . S
H545 C510 0.949 . S
H546 C511 0.950 . S
H547 C515 0.951 . S
H548 C516 0.950 . S
H549 C520 0.949 . S
H550 C521 0.950 . S
H551 C525 0.950 . S
H552 C527 0.950 . S
H553 C530 0.950 . S
H554 C532 0.950 . S
C555 C556 1.443 . S
C555 N559 1.376 . S
C555 C593 1.389 . S
C556 C555 1.443 . S
C556 C557 1.340 . S
C556 H596 0.951 . S
C557 C556 1.340 . S
C557 C558 1.439 . S
C557 H597 0.950 . S
C558 C557 1.439 . S
C558 N559 1.374 . S
C558 C592 1.395 1_554 S
N559 C555 1.376 . S
N559 C558 1.374 . S
N559 Co560 2.008 . S
Co560 N559 2.008 . S
Co560 N561 1.995 1_554 S
Co560 N566 2.008 1_554 S
Co560 N571 1.995 . S
Co560 N576 2.282 . S
Co560 N582 2.282 1_554 S
N561 Co560 1.995 1_556 S
N561 C562 1.376 . S
N561 C565 1.383 . S
C562 N561 1.376 . S
C562 C563 1.446 . S
C562 C592 1.391 . S
C563 C562 1.446 . S
C563 C564 1.339 . S
C563 H598 0.949 . S
C564 C563 1.339 . S
C564 C565 1.439 . S
C564 H599 0.950 . S
C565 N561 1.383 . S
C565 C564 1.439 . S
C565 C594 1.392 . S
N566 Co560 2.008 1_556 S
N566 C567 1.376 . S
N566 C570 1.374 1_556 S
C567 N566 1.376 . S
C567 C568 1.443 . S
C567 C594 1.389 . S
C568 C567 1.443 . S
C568 C569 1.340 . S
C568 H600 0.951 . S
C569 C568 1.340 . S
C569 C570 1.439 1_556 S
C569 H601 0.950 . S
C570 N566 1.374 1_554 S
C570 C569 1.439 1_554 S
C570 C595 1.395 . S
N571 Co560 1.995 . S
N571 C572 1.376 . S
N571 C575 1.383 . S
C572 N571 1.376 . S
C572 C573 1.446 . S
C572 C595 1.391 . S
C573 C572 1.446 . S
C573 C574 1.339 . S
C573 H602 0.949 . S
C574 C573 1.339 . S
C574 C575 1.439 . S
C574 H603 0.950 . S
C575 N571 1.383 . S
C575 C574 1.439 . S
C575 C593 1.392 . S
N576 Co560 2.282 . S
N576 C579 1.332 . S
N576 C581 1.332 . S
C577 C578 1.386 . S
C577 C580 1.388 . S
C578 C577 1.386 . S
C578 C579 1.382 . S
C578 H604 0.950 . S
C579 N576 1.332 . S
C579 C578 1.382 . S
C579 H590 0.952 . S
C580 C577 1.388 . S
C580 C581 1.382 . S
C580 H605 0.950 . S
C581 N576 1.332 . S
C581 C580 1.382 . S
C581 H591 0.948 . S
N582 Co560 2.282 1_556 S
N582 C586 1.332 . S
N582 C587 1.332 . S
C583 C584 1.388 . S
C583 C587 1.382 . S
C583 H606 0.950 . S
C584 C583 1.388 . S
C584 C585 1.386 . S
C585 C584 1.386 . S
C585 C586 1.382 . S
C585 H607 0.950 . S
C586 N582 1.332 . S
C586 C585 1.382 . S
C586 H588 0.952 . S
C587 N582 1.332 . S
C587 C583 1.382 . S
C587 H589 0.948 . S
H588 C586 0.952 . S
H589 C587 0.948 . S
H590 C579 0.952 . S
H591 C581 0.948 . S
C592 C558 1.395 1_556 S
C592 C562 1.391 . S
C593 C555 1.389 . S
C593 C575 1.392 . S
C594 C565 1.392 . S
C594 C567 1.389 . S
C595 C570 1.395 . S
C595 C572 1.391 . S
H596 C556 0.951 . S
H597 C557 0.950 . S
H598 C563 0.949 . S
H599 C564 0.950 . S
H600 C568 0.951 . S
H601 C569 0.950 . S
H602 C573 0.949 . S
H603 C574 0.950 . S
H604 C578 0.950 . S
H605 C580 0.950 . S
H606 C583 0.950 . S
H607 C585 0.950 . S
H608 C614 0.930 . S
H609 C618 0.930 . S
H610 C623 0.929 . S
H611 C621 0.929 . S
H612 C616 0.929 . S
H613 C622 0.929 . S
C614 H608 0.930 . S
C614 C615 1.367 . S
C614 C622 1.378 . S
C615 C614 1.367 . S
C615 C623 1.433 . S
C616 H612 0.929 . S
C616 C618 1.378 . S
C616 C620 1.350 . S
C617 C620 1.463 . S
C617 C622 1.350 . S
C617 N625 1.427 . S
C618 H609 0.930 . S
C618 C616 1.378 . S
C618 C619 1.367 . S
C619 C618 1.367 . S
C619 C621 1.433 . S
C620 C616 1.350 . S
C620 C617 1.463 . S
C620 N624 1.427 . S
C621 H611 0.929 . S
C621 C619 1.433 . S
C621 N624 1.384 . S
C622 H613 0.929 . S
C622 C614 1.378 . S
C622 C617 1.350 . S
C623 H610 0.929 . S
C623 C615 1.433 . S
C623 N625 1.384 . S
N624 C620 1.427 . S
N624 C621 1.384 . S
N625 C617 1.427 . S
N625 C623 1.384 . S
H626 C632 0.930 . S
H627 C636 0.930 . S
H628 C641 0.929 . S
H629 C639 0.929 . S
H630 C634 0.929 . S
H631 C640 0.929 . S
C632 H626 0.930 . S
C632 C633 1.367 . S
C632 C640 1.378 . S
C633 C632 1.367 . S
C633 C641 1.433 . S
C634 H630 0.929 . S
C634 C636 1.378 . S
C634 C638 1.350 . S
C635 C638 1.463 . S
C635 C640 1.350 . S
C635 N643 1.427 . S
C636 H627 0.930 . S
C636 C634 1.378 . S
C636 C637 1.367 . S
C637 C636 1.367 . S
C637 C639 1.433 . S
C638 C634 1.350 . S
C638 C635 1.463 . S
C638 N642 1.427 . S
C639 H629 0.929 . S
C639 C637 1.433 . S
C639 N642 1.384 . S
C640 H631 0.929 . S
C640 C632 1.378 . S
C640 C635 1.350 . S
C641 H628 0.929 . S
C641 C633 1.433 . S
C641 N643 1.384 . S
N642 C638 1.427 . S
N642 C639 1.384 . S
N643 C635 1.427 . S
N643 C641 1.384 . S
H644 C650 0.930 . S
H645 C654 0.930 . S
H646 C659 0.929 . S
H647 C657 0.929 . S
H648 C652 0.929 . S
H649 C658 0.929 . S
C650 H644 0.930 . S
C650 C651 1.367 . S
C650 C658 1.378 . S
C651 C650 1.367 . S
C651 C659 1.433 . S
C652 H648 0.929 . S
C652 C654 1.378 . S
C652 C656 1.350 . S
C653 C656 1.463 . S
C653 C658 1.350 . S
C653 N661 1.427 . S
C654 H645 0.930 . S
C654 C652 1.378 . S
C654 C655 1.367 . S
C655 C654 1.367 . S
C655 C657 1.433 . S
C656 C652 1.350 . S
C656 C653 1.463 . S
C656 N660 1.427 . S
C657 H647 0.929 . S
C657 C655 1.433 . S
C657 N660 1.384 . S
C658 H649 0.929 . S
C658 C650 1.378 . S
C658 C653 1.350 . S
C659 H646 0.929 . S
C659 C651 1.433 . S
C659 N661 1.384 . S
N660 C656 1.427 . S
N660 C657 1.384 . S
N661 C653 1.427 . S
N661 C659 1.384 . S
H662 C668 0.930 . S
H663 C672 0.930 . S
H664 C677 0.929 . S
H665 C675 0.929 . S
H666 C670 0.929 . S
H667 C676 0.929 . S
C668 H662 0.930 . S
C668 C669 1.367 . S
C668 C676 1.378 . S
C669 C668 1.367 . S
C669 C677 1.433 . S
C670 H666 0.929 . S
C670 C672 1.378 . S
C670 C674 1.350 . S
C671 C674 1.463 . S
C671 C676 1.350 . S
C671 N679 1.427 . S
C672 H663 0.930 . S
C672 C670 1.378 . S
C672 C673 1.367 . S
C673 C672 1.367 . S
C673 C675 1.433 . S
C674 C670 1.350 . S
C674 C671 1.463 . S
C674 N678 1.427 . S
C675 H665 0.929 . S
C675 C673 1.433 . S
C675 N678 1.384 . S
C676 H667 0.929 . S
C676 C668 1.378 . S
C676 C671 1.350 . S
C677 H664 0.929 . S
C677 C669 1.433 . S
C677 N679 1.384 . S
N678 C674 1.427 . S
N678 C675 1.384 . S
N679 C671 1.427 . S
N679 C677 1.384 . S
H680 C686 0.930 . S
H681 C690 0.930 . S
H682 C695 0.929 . S
H683 C693 0.929 . S
H684 C688 0.929 . S
H685 C694 0.929 . S
C686 H680 0.930 . S
C686 C687 1.367 . S
C686 C694 1.378 . S
C687 C686 1.367 . S
C687 C695 1.433 . S
C688 H684 0.929 . S
C688 C690 1.378 . S
C688 C692 1.350 . S
C689 C692 1.463 . S
C689 C694 1.350 . S
C689 N697 1.427 . S
C690 H681 0.930 . S
C690 C688 1.378 . S
C690 C691 1.367 . S
C691 C690 1.367 . S
C691 C693 1.433 . S
C692 C688 1.350 . S
C692 C689 1.463 . S
C692 N696 1.427 . S
C693 H683 0.929 . S
C693 C691 1.433 . S
C693 N696 1.384 . S
C694 H685 0.929 . S
C694 C686 1.378 . S
C694 C689 1.350 . S
C695 H682 0.929 . S
C695 C687 1.433 . S
C695 N697 1.384 . S
N696 C692 1.427 . S
N696 C693 1.384 . S
N697 C689 1.427 . S
N697 C695 1.384 . S
H698 C704 0.930 . S
H699 C708 0.930 . S
H700 C713 0.929 . S
H701 C711 0.929 . S
H702 C706 0.929 . S
H703 C712 0.929 . S
C704 H698 0.930 . S
C704 C705 1.367 . S
C704 C712 1.378 . S
C705 C704 1.367 . S
C705 C713 1.433 . S
C706 H702 0.929 . S
C706 C708 1.378 . S
C706 C710 1.350 . S
C707 C710 1.463 . S
C707 C712 1.350 . S
C707 N715 1.427 . S
C708 H699 0.930 . S
C708 C706 1.378 . S
C708 C709 1.367 . S
C709 C708 1.367 . S
C709 C711 1.433 . S
C710 C706 1.350 . S
C710 C707 1.463 . S
C710 N714 1.427 . S
C711 H701 0.929 . S
C711 C709 1.433 . S
C711 N714 1.384 . S
C712 H703 0.929 . S
C712 C704 1.378 . S
C712 C707 1.350 . S
C713 H700 0.929 . S
C713 C705 1.433 . S
C713 N715 1.384 . S
N714 C710 1.427 . S
N714 C711 1.384 . S
N715 C707 1.427 . S
N715 C713 1.384 . S
H716 C722 0.930 . S
H717 C726 0.930 . S
H718 C731 0.929 . S
H719 C729 0.929 . S
H720 C724 0.929 . S
H721 C730 0.929 . S
C722 H716 0.930 . S
C722 C723 1.367 . S
C722 C730 1.378 . S
C723 C722 1.367 . S
C723 C731 1.433 . S
C724 H720 0.929 . S
C724 C726 1.378 . S
C724 C728 1.350 . S
C725 C728 1.463 . S
C725 C730 1.350 . S
C725 N733 1.427 . S
C726 H717 0.930 . S
C726 C724 1.378 . S
C726 C727 1.367 . S
C727 C726 1.367 . S
C727 C729 1.433 . S
C728 C724 1.350 . S
C728 C725 1.463 . S
C728 N732 1.427 . S
C729 H719 0.929 . S
C729 C727 1.433 . S
C729 N732 1.384 . S
C730 H721 0.929 . S
C730 C722 1.378 . S
C730 C725 1.350 . S
C731 H718 0.929 . S
C731 C723 1.433 . S
C731 N733 1.384 . S
N732 C728 1.427 . S
N732 C729 1.384 . S
N733 C725 1.427 . S
N733 C731 1.384 . S
H734 C740 0.930 . S
H735 C744 0.930 . S
H736 C749 0.929 . S
H737 C747 0.929 . S
H738 C742 0.929 . S
H739 C748 0.929 . S
C740 H734 0.930 . S
C740 C741 1.367 . S
C740 C748 1.378 . S
C741 C740 1.367 . S
C741 C749 1.433 . S
C742 H738 0.929 . S
C742 C744 1.378 . S
C742 C746 1.350 . S
C743 C746 1.463 . S
C743 C748 1.350 . S
C743 N751 1.427 . S
C744 H735 0.930 . S
C744 C742 1.378 . S
C744 C745 1.367 . S
C745 C744 1.367 . S
C745 C747 1.433 . S
C746 C742 1.350 . S
C746 C743 1.463 . S
C746 N750 1.427 . S
C747 H737 0.929 . S
C747 C745 1.433 . S
C747 N750 1.384 . S
C748 H739 0.929 . S
C748 C740 1.378 . S
C748 C743 1.350 . S
C749 H736 0.929 . S
C749 C741 1.433 . S
C749 N751 1.384 . S
N750 C746 1.427 . S
N750 C747 1.384 . S
N751 C743 1.427 . S
N751 C749 1.384 . S
H752 C758 0.930 . S
H753 C762 0.930 . S
H754 C767 0.929 . S
H755 C765 0.929 . S
H756 C760 0.929 . S
H757 C766 0.929 . S
C758 H752 0.930 . S
C758 C759 1.367 . S
C758 C766 1.378 . S
C759 C758 1.367 . S
C759 C767 1.433 . S
C760 H756 0.929 . S
C760 C762 1.378 . S
C760 C764 1.350 . S
C761 C764 1.463 . S
C761 C766 1.350 . S
C761 N769 1.427 . S
C762 H753 0.930 . S
C762 C760 1.378 . S
C762 C763 1.367 . S
C763 C762 1.367 . S
C763 C765 1.433 . S
C764 C760 1.350 . S
C764 C761 1.463 . S
C764 N768 1.427 . S
C765 H755 0.929 . S
C765 C763 1.433 . S
C765 N768 1.384 . S
C766 H757 0.929 . S
C766 C758 1.378 . S
C766 C761 1.350 . S
C767 H754 0.929 . S
C767 C759 1.433 . S
C767 N769 1.384 . S
N768 C764 1.427 . S
N768 C765 1.384 . S
N769 C761 1.427 . S
N769 C767 1.384 . S
H770 C776 0.930 . S
H771 C780 0.930 . S
H772 C785 0.929 . S
H773 C783 0.929 . S
H774 C778 0.929 . S
H775 C784 0.929 . S
C776 H770 0.930 . S
C776 C777 1.367 . S
C776 C784 1.378 . S
C777 C776 1.367 . S
C777 C785 1.433 . S
C778 H774 0.929 . S
C778 C780 1.378 . S
C778 C782 1.350 . S
C779 C782 1.463 . S
C779 C784 1.350 . S
C779 N787 1.427 . S
C780 H771 0.930 . S
C780 C778 1.378 . S
C780 C781 1.367 . S
C781 C780 1.367 . S
C781 C783 1.433 . S
C782 C778 1.350 . S
C782 C779 1.463 . S
C782 N786 1.427 . S
C783 H773 0.929 . S
C783 C781 1.433 . S
C783 N786 1.384 . S
C784 H775 0.929 . S
C784 C776 1.378 . S
C784 C779 1.350 . S
C785 H772 0.929 . S
C785 C777 1.433 . S
C785 N787 1.384 . S
N786 C782 1.427 . S
N786 C783 1.384 . S
N787 C779 1.427 . S
N787 C785 1.384 . S
H788 C794 0.930 . S
H789 C798 0.930 . S
H790 C803 0.929 . S
H791 C801 0.929 . S
H792 C796 0.929 . S
H793 C802 0.929 . S
C794 H788 0.930 . S
C794 C795 1.367 . S
C794 C802 1.378 . S
C795 C794 1.367 . S
C795 C803 1.433 . S
C796 H792 0.929 . S
C796 C798 1.378 . S
C796 C800 1.350 . S
C797 C800 1.463 . S
C797 C802 1.350 . S
C797 N805 1.427 . S
C798 H789 0.930 . S
C798 C796 1.378 . S
C798 C799 1.367 . S
C799 C798 1.367 . S
C799 C801 1.433 . S
C800 C796 1.350 . S
C800 C797 1.463 . S
C800 N804 1.427 . S
C801 H791 0.929 . S
C801 C799 1.433 . S
C801 N804 1.384 . S
C802 H793 0.929 . S
C802 C794 1.378 . S
C802 C797 1.350 . S
C803 H790 0.929 . S
C803 C795 1.433 . S
C803 N805 1.384 . S
N804 C800 1.427 . S
N804 C801 1.384 . S
N805 C797 1.427 . S
N805 C803 1.384 . S
H806 C812 0.930 . S
H807 C816 0.930 . S
H808 C821 0.929 . S
H809 C819 0.929 . S
H810 C814 0.929 . S
H811 C820 0.929 . S
C812 H806 0.930 . S
C812 C813 1.367 . S
C812 C820 1.378 . S
C813 C812 1.367 . S
C813 C821 1.433 . S
C814 H810 0.929 . S
C814 C816 1.378 . S
C814 C818 1.350 . S
C815 C818 1.463 . S
C815 C820 1.350 . S
C815 N823 1.427 . S
C816 H807 0.930 . S
C816 C814 1.378 . S
C816 C817 1.367 . S
C817 C816 1.367 . S
C817 C819 1.433 . S
C818 C814 1.350 . S
C818 C815 1.463 . S
C818 N822 1.427 . S
C819 H809 0.929 . S
C819 C817 1.433 . S
C819 N822 1.384 . S
C820 H811 0.929 . S
C820 C812 1.378 . S
C820 C815 1.350 . S
C821 H808 0.929 . S
C821 C813 1.433 . S
C821 N823 1.384 . S
N822 C818 1.427 . S
N822 C819 1.384 . S
N823 C815 1.427 . S
N823 C821 1.384 . S
H824 C830 0.930 . S
H825 C834 0.930 . S
H826 C839 0.929 . S
H827 C837 0.929 . S
H828 C832 0.929 . S
H829 C838 0.929 . S
C830 H824 0.930 . S
C830 C831 1.367 . S
C830 C838 1.378 . S
C831 C830 1.367 . S
C831 C839 1.433 . S
C832 H828 0.929 . S
C832 C834 1.378 . S
C832 C836 1.350 . S
C833 C836 1.463 . S
C833 C838 1.350 . S
C833 N841 1.427 . S
C834 H825 0.930 . S
C834 C832 1.378 . S
C834 C835 1.367 . S
C835 C834 1.367 . S
C835 C837 1.433 . S
C836 C832 1.350 . S
C836 C833 1.463 . S
C836 N840 1.427 . S
C837 H827 0.929 . S
C837 C835 1.433 . S
C837 N840 1.384 . S
C838 H829 0.929 . S
C838 C830 1.378 . S
C838 C833 1.350 . S
C839 H826 0.929 . S
C839 C831 1.433 . S
C839 N841 1.384 . S
N840 C836 1.427 . S
N840 C837 1.384 . S
N841 C833 1.427 . S
N841 C839 1.384 . S
H842 C848 0.930 . S
H843 C852 0.930 . S
H844 C857 0.929 . S
H845 C855 0.929 . S
H846 C850 0.929 . S
H847 C856 0.929 . S
C848 H842 0.930 . S
C848 C849 1.367 . S
C848 C856 1.378 . S
C849 C848 1.367 . S
C849 C857 1.433 . S
C850 H846 0.929 . S
C850 C852 1.378 . S
C850 C854 1.350 . S
C851 C854 1.463 . S
C851 C856 1.350 . S
C851 N859 1.427 . S
C852 H843 0.930 . S
C852 C850 1.378 . S
C852 C853 1.367 . S
C853 C852 1.367 . S
C853 C855 1.433 . S
C854 C850 1.350 . S
C854 C851 1.463 . S
C854 N858 1.427 . S
C855 H845 0.929 . S
C855 C853 1.433 . S
C855 N858 1.384 . S
C856 H847 0.929 . S
C856 C848 1.378 . S
C856 C851 1.350 . S
C857 H844 0.929 . S
C857 C849 1.433 . S
C857 N859 1.384 . S
N858 C854 1.427 . S
N858 C855 1.384 . S
N859 C851 1.427 . S
N859 C857 1.384 . S
H860 C866 0.930 . S
H861 C870 0.930 . S
H862 C875 0.929 . S
H863 C873 0.929 . S
H864 C868 0.929 . S
H865 C874 0.929 . S
C866 H860 0.930 . S
C866 C867 1.367 . S
C866 C874 1.378 . S
C867 C866 1.367 . S
C867 C875 1.433 . S
C868 H864 0.929 . S
C868 C870 1.378 . S
C868 C872 1.350 . S
C869 C872 1.463 . S
C869 C874 1.350 . S
C869 N877 1.427 . S
C870 H861 0.930 . S
C870 C868 1.378 . S
C870 C871 1.367 . S
C871 C870 1.367 . S
C871 C873 1.433 . S
C872 C868 1.350 . S
C872 C869 1.463 . S
C872 N876 1.427 . S
C873 H863 0.929 . S
C873 C871 1.433 . S
C873 N876 1.384 . S
C874 H865 0.929 . S
C874 C866 1.378 . S
C874 C869 1.350 . S
C875 H862 0.929 . S
C875 C867 1.433 . S
C875 N877 1.384 . S
N876 C872 1.427 . S
N876 C873 1.384 . S
N877 C869 1.427 . S
N877 C875 1.384 . S
H878 C884 0.930 . S
H879 C888 0.930 . S
H880 C893 0.929 . S
H881 C891 0.929 . S
H882 C886 0.929 . S
H883 C892 0.929 . S
C884 H878 0.930 . S
C884 C885 1.367 . S
C884 C892 1.378 . S
C885 C884 1.367 . S
C885 C893 1.433 . S
C886 H882 0.929 . S
C886 C888 1.378 . S
C886 C890 1.350 . S
C887 C890 1.463 . S
C887 C892 1.350 . S
C887 N895 1.427 . S
C888 H879 0.930 . S
C888 C886 1.378 . S
C888 C889 1.367 . S
C889 C888 1.367 . S
C889 C891 1.433 . S
C890 C886 1.350 . S
C890 C887 1.463 . S
C890 N894 1.427 . S
C891 H881 0.929 . S
C891 C889 1.433 . S
C891 N894 1.384 . S
C892 H883 0.929 . S
C892 C884 1.378 . S
C892 C887 1.350 . S
C893 H880 0.929 . S
C893 C885 1.433 . S
C893 N895 1.384 . S
N894 C890 1.427 . S
N894 C891 1.384 . S
N895 C887 1.427 . S
N895 C893 1.384 . S
H896 C902 0.930 . S
H897 C906 0.930 . S
H898 C911 0.929 . S
H899 C909 0.929 . S
H900 C904 0.929 . S
H901 C910 0.929 . S
C902 H896 0.930 . S
C902 C903 1.367 . S
C902 C910 1.378 . S
C903 C902 1.367 . S
C903 C911 1.433 . S
C904 H900 0.929 . S
C904 C906 1.378 . S
C904 C908 1.350 . S
C905 C908 1.463 . S
C905 C910 1.350 . S
C905 N913 1.427 . S
C906 H897 0.930 . S
C906 C904 1.378 . S
C906 C907 1.367 . S
C907 C906 1.367 . S
C907 C909 1.433 . S
C908 C904 1.350 . S
C908 C905 1.463 . S
C908 N912 1.427 . S
C909 H899 0.929 . S
C909 C907 1.433 . S
C909 N912 1.384 . S
C910 H901 0.929 . S
C910 C902 1.378 . S
C910 C905 1.350 . S
C911 H898 0.929 . S
C911 C903 1.433 . S
C911 N913 1.384 . S
N912 C908 1.427 . S
N912 C909 1.384 . S
N913 C905 1.427 . S
N913 C911 1.384 . S
H914 C920 0.930 . S
H915 C924 0.930 . S
H916 C929 0.929 . S
H917 C927 0.929 . S
H918 C922 0.929 . S
H919 C928 0.929 . S
C920 H914 0.930 . S
C920 C921 1.367 . S
C920 C928 1.378 . S
C921 C920 1.367 . S
C921 C929 1.433 . S
C922 H918 0.929 . S
C922 C924 1.378 . S
C922 C926 1.350 . S
C923 C926 1.463 . S
C923 C928 1.350 . S
C923 N931 1.427 . S
C924 H915 0.930 . S
C924 C922 1.378 . S
C924 C925 1.367 . S
C925 C924 1.367 . S
C925 C927 1.433 . S
C926 C922 1.350 . S
C926 C923 1.463 . S
C926 N930 1.427 . S
C927 H917 0.929 . S
C927 C925 1.433 . S
C927 N930 1.384 . S
C928 H919 0.929 . S
C928 C920 1.378 . S
C928 C923 1.350 . S
C929 H916 0.929 . S
C929 C921 1.433 . S
C929 N931 1.384 . S
N930 C926 1.427 . S
N930 C927 1.384 . S
N931 C923 1.427 . S
N931 C929 1.384 . S
H932 C938 0.930 . S
H933 C942 0.930 . S
H934 C947 0.929 . S
H935 C945 0.929 . S
H936 C940 0.929 . S
H937 C946 0.929 . S
C938 H932 0.930 . S
C938 C939 1.367 . S
C938 C946 1.378 . S
C939 C938 1.367 . S
C939 C947 1.433 . S
C940 H936 0.929 . S
C940 C942 1.378 . S
C940 C944 1.350 . S
C941 C944 1.463 . S
C941 C946 1.350 . S
C941 N949 1.427 . S
C942 H933 0.930 . S
C942 C940 1.378 . S
C942 C943 1.367 . S
C943 C942 1.367 . S
C943 C945 1.433 . S
C944 C940 1.350 . S
C944 C941 1.463 . S
C944 N948 1.427 . S
C945 H935 0.929 . S
C945 C943 1.433 . S
C945 N948 1.384 . S
C946 H937 0.929 . S
C946 C938 1.378 . S
C946 C941 1.350 . S
C947 H934 0.929 . S
C947 C939 1.433 . S
C947 N949 1.384 . S
N948 C944 1.427 . S
N948 C945 1.384 . S
N949 C941 1.427 . S
N949 C947 1.384 . S
H950 C956 0.930 . S
H951 C960 0.930 . S
H952 C965 0.929 . S
H953 C963 0.929 . S
H954 C958 0.929 . S
H955 C964 0.929 . S
C956 H950 0.930 . S
C956 C957 1.367 . S
C956 C964 1.378 . S
C957 C956 1.367 . S
C957 C965 1.433 . S
C958 H954 0.929 . S
C958 C960 1.378 . S
C958 C962 1.350 . S
C959 C962 1.463 . S
C959 C964 1.350 . S
C959 N967 1.427 . S
C960 H951 0.930 . S
C960 C958 1.378 . S
C960 C961 1.367 . S
C961 C960 1.367 . S
C961 C963 1.433 . S
C962 C958 1.350 . S
C962 C959 1.463 . S
C962 N966 1.427 . S
C963 H953 0.929 . S
C963 C961 1.433 . S
C963 N966 1.384 . S
C964 H955 0.929 . S
C964 C956 1.378 . S
C964 C959 1.350 . S
C965 H952 0.929 . S
C965 C957 1.433 . S
C965 N967 1.384 . S
N966 C962 1.427 . S
N966 C963 1.384 . S
N967 C959 1.427 . S
N967 C965 1.384 . S
H968 C974 0.930 . S
H969 C978 0.930 . S
H970 C983 0.929 . S
H971 C981 0.929 . S
H972 C976 0.929 . S
H973 C982 0.929 . S
C974 H968 0.930 . S
C974 C975 1.367 . S
C974 C982 1.378 . S
C975 C974 1.367 . S
C975 C983 1.433 . S
C976 H972 0.929 . S
C976 C978 1.378 . S
C976 C980 1.350 . S
C977 C980 1.463 . S
C977 C982 1.350 . S
C977 N985 1.427 . S
C978 H969 0.930 . S
C978 C976 1.378 . S
C978 C979 1.367 . S
C979 C978 1.367 . S
C979 C981 1.433 . S
C980 C976 1.350 . S
C980 C977 1.463 . S
C980 N984 1.427 . S
C981 H971 0.929 . S
C981 C979 1.433 . S
C981 N984 1.384 . S
C982 H973 0.929 . S
C982 C974 1.378 . S
C982 C977 1.350 . S
C983 H970 0.929 . S
C983 C975 1.433 . S
C983 N985 1.384 . S
N984 C980 1.427 . S
N984 C981 1.384 . S
N985 C977 1.427 . S
N985 C983 1.384 . S
H986 C992 0.930 . S
H987 C996 0.930 . S
H988 C1001 0.929 . S
H989 C999 0.929 . S
H990 C994 0.929 . S
H991 C1000 0.929 . S
C992 H986 0.930 . S
C992 C993 1.367 . S
C992 C1000 1.378 . S
C993 C992 1.367 . S
C993 C1001 1.433 . S
C994 H990 0.929 . S
C994 C996 1.378 . S
C994 C998 1.350 . S
C995 C998 1.463 . S
C995 C1000 1.350 . S
C995 N1003 1.427 . S
C996 H987 0.930 . S
C996 C994 1.378 . S
C996 C997 1.367 . S
C997 C996 1.367 . S
C997 C999 1.433 . S
C998 C994 1.350 . S
C998 C995 1.463 . S
C998 N1002 1.427 . S
C999 H989 0.929 . S
C999 C997 1.433 . S
C999 N1002 1.384 . S
C1000 H991 0.929 . S
C1000 C992 1.378 . S
C1000 C995 1.350 . S
C1001 H988 0.929 . S
C1001 C993 1.433 . S
C1001 N1003 1.384 . S
N1002 C998 1.427 . S
N1002 C999 1.384 . S
N1003 C995 1.427 . S
N1003 C1001 1.384 . S
H1004 C1010 0.930 . S
H1005 C1014 0.930 . S
H1006 C1019 0.929 . S
H1007 C1017 0.929 . S
H1008 C1012 0.929 . S
H1009 C1018 0.929 . S
C1010 H1004 0.930 . S
C1010 C1011 1.367 . S
C1010 C1018 1.378 . S
C1011 C1010 1.367 . S
C1011 C1019 1.433 . S
C1012 H1008 0.929 . S
C1012 C1014 1.378 . S
C1012 C1016 1.350 . S
C1013 C1016 1.463 . S
C1013 C1018 1.350 . S
C1013 N1021 1.427 . S
C1014 H1005 0.930 . S
C1014 C1012 1.378 . S
C1014 C1015 1.367 . S
C1015 C1014 1.367 . S
C1015 C1017 1.433 . S
C1016 C1012 1.350 . S
C1016 C1013 1.463 . S
C1016 N1020 1.427 . S
C1017 H1007 0.929 . S
C1017 C1015 1.433 . S
C1017 N1020 1.384 . S
C1018 H1009 0.929 . S
C1018 C1010 1.378 . S
C1018 C1013 1.350 . S
C1019 H1006 0.929 . S
C1019 C1011 1.433 . S
C1019 N1021 1.384 . S
N1020 C1016 1.427 . S
N1020 C1017 1.384 . S
N1021 C1013 1.427 . S
N1021 C1019 1.384 . S
H1022 C1028 0.930 . S
H1023 C1032 0.930 . S
H1024 C1037 0.929 . S
H1025 C1035 0.929 . S
H1026 C1030 0.929 . S
H1027 C1036 0.929 . S
C1028 H1022 0.930 . S
C1028 C1029 1.367 . S
C1028 C1036 1.378 . S
C1029 C1028 1.367 . S
C1029 C1037 1.433 . S
C1030 H1026 0.929 . S
C1030 C1032 1.378 . S
C1030 C1034 1.350 . S
C1031 C1034 1.463 . S
C1031 C1036 1.350 . S
C1031 N1039 1.427 . S
C1032 H1023 0.930 . S
C1032 C1030 1.378 . S
C1032 C1033 1.367 . S
C1033 C1032 1.367 . S
C1033 C1035 1.433 . S
C1034 C1030 1.350 . S
C1034 C1031 1.463 . S
C1034 N1038 1.427 . S
C1035 H1025 0.929 . S
C1035 C1033 1.433 . S
C1035 N1038 1.384 . S
C1036 H1027 0.929 . S
C1036 C1028 1.378 . S
C1036 C1031 1.350 . S
C1037 H1024 0.929 . S
C1037 C1029 1.433 . S
C1037 N1039 1.384 . S
N1038 C1034 1.427 . S
N1038 C1035 1.384 . S
N1039 C1031 1.427 . S
N1039 C1037 1.384 . S
H1040 C1046 0.930 . S
H1041 C1050 0.930 . S
H1042 C1055 0.929 . S
H1043 C1053 0.929 . S
H1044 C1048 0.929 . S
H1045 C1054 0.929 . S
C1046 H1040 0.930 . S
C1046 C1047 1.367 . S
C1046 C1054 1.378 . S
C1047 C1046 1.367 . S
C1047 C1055 1.433 . S
C1048 H1044 0.929 . S
C1048 C1050 1.378 . S
C1048 C1052 1.350 . S
C1049 C1052 1.463 . S
C1049 C1054 1.350 . S
C1049 N1057 1.427 . S
C1050 H1041 0.930 . S
C1050 C1048 1.378 . S
C1050 C1051 1.367 . S
C1051 C1050 1.367 . S
C1051 C1053 1.433 . S
C1052 C1048 1.350 . S
C1052 C1049 1.463 . S
C1052 N1056 1.427 . S
C1053 H1043 0.929 . S
C1053 C1051 1.433 . S
C1053 N1056 1.384 . S
C1054 H1045 0.929 . S
C1054 C1046 1.378 . S
C1054 C1049 1.350 . S
C1055 H1042 0.929 . S
C1055 C1047 1.433 . S
C1055 N1057 1.384 . S
N1056 C1052 1.427 . S
N1056 C1053 1.384 . S
N1057 C1049 1.427 . S
N1057 C1055 1.384 . S
H1058 C1064 0.930 . S
H1059 C1068 0.930 . S
H1060 C1073 0.929 . S
H1061 C1071 0.929 . S
H1062 C1066 0.929 . S
H1063 C1072 0.929 . S
C1064 H1058 0.930 . S
C1064 C1065 1.367 . S
C1064 C1072 1.378 . S
C1065 C1064 1.367 . S
C1065 C1073 1.433 . S
C1066 H1062 0.929 . S
C1066 C1068 1.378 . S
C1066 C1070 1.350 . S
C1067 C1070 1.463 . S
C1067 C1072 1.350 . S
C1067 N1075 1.427 . S
C1068 H1059 0.930 . S
C1068 C1066 1.378 . S
C1068 C1069 1.367 . S
C1069 C1068 1.367 . S
C1069 C1071 1.433 . S
C1070 C1066 1.350 . S
C1070 C1067 1.463 . S
C1070 N1074 1.427 . S
C1071 H1061 0.929 . S
C1071 C1069 1.433 . S
C1071 N1074 1.384 . S
C1072 H1063 0.929 . S
C1072 C1064 1.378 . S
C1072 C1067 1.350 . S
C1073 H1060 0.929 . S
C1073 C1065 1.433 . S
C1073 N1075 1.384 . S
N1074 C1070 1.427 . S
N1074 C1071 1.384 . S
N1075 C1067 1.427 . S
N1075 C1073 1.384 . S
H1076 C1082 0.930 . S
H1077 C1086 0.930 . S
H1078 C1091 0.929 . S
H1079 C1089 0.929 . S
H1080 C1084 0.929 . S
H1081 C1090 0.929 . S
C1082 H1076 0.930 . S
C1082 C1083 1.367 . S
C1082 C1090 1.378 . S
C1083 C1082 1.367 . S
C1083 C1091 1.433 . S
C1084 H1080 0.929 . S
C1084 C1086 1.378 . S
C1084 C1088 1.350 . S
C1085 C1088 1.463 . S
C1085 C1090 1.350 . S
C1085 N1093 1.427 . S
C1086 H1077 0.930 . S
C1086 C1084 1.378 . S
C1086 C1087 1.367 . S
C1087 C1086 1.367 . S
C1087 C1089 1.433 . S
C1088 C1084 1.350 . S
C1088 C1085 1.463 . S
C1088 N1092 1.427 . S
C1089 H1079 0.929 . S
C1089 C1087 1.433 . S
C1089 N1092 1.384 . S
C1090 H1081 0.929 . S
C1090 C1082 1.378 . S
C1090 C1085 1.350 . S
C1091 H1078 0.929 . S
C1091 C1083 1.433 . S
C1091 N1093 1.384 . S
N1092 C1088 1.427 . S
N1092 C1089 1.384 . S
N1093 C1085 1.427 . S
N1093 C1091 1.384 . S
H1094 C1100 0.930 . S
H1095 C1104 0.930 . S
H1096 C1109 0.929 . S
H1097 C1107 0.929 . S
H1098 C1102 0.929 . S
H1099 C1108 0.929 . S
C1100 H1094 0.930 . S
C1100 C1101 1.367 . S
C1100 C1108 1.378 . S
C1101 C1100 1.367 . S
C1101 C1109 1.433 . S
C1102 H1098 0.929 . S
C1102 C1104 1.378 . S
C1102 C1106 1.350 . S
C1103 C1106 1.463 . S
C1103 C1108 1.350 . S
C1103 N1111 1.427 . S
C1104 H1095 0.930 . S
C1104 C1102 1.378 . S
C1104 C1105 1.367 . S
C1105 C1104 1.367 . S
C1105 C1107 1.433 . S
C1106 C1102 1.350 . S
C1106 C1103 1.463 . S
C1106 N1110 1.427 . S
C1107 H1097 0.929 . S
C1107 C1105 1.433 . S
C1107 N1110 1.384 . S
C1108 H1099 0.929 . S
C1108 C1100 1.378 . S
C1108 C1103 1.350 . S
C1109 H1096 0.929 . S
C1109 C1101 1.433 . S
C1109 N1111 1.384 . S
N1110 C1106 1.427 . S
N1110 C1107 1.384 . S
N1111 C1103 1.427 . S
N1111 C1109 1.384 . S
H1112 C1118 0.930 . S
H1113 C1122 0.930 . S
H1114 C1127 0.929 . S
H1115 C1125 0.929 . S
H1116 C1120 0.929 . S
H1117 C1126 0.929 . S
C1118 H1112 0.930 . S
C1118 C1119 1.367 . S
C1118 C1126 1.378 . S
C1119 C1118 1.367 . S
C1119 C1127 1.433 . S
C1120 H1116 0.929 . S
C1120 C1122 1.378 . S
C1120 C1124 1.350 . S
C1121 C1124 1.463 . S
C1121 C1126 1.350 . S
C1121 N1129 1.427 . S
C1122 H1113 0.930 . S
C1122 C1120 1.378 . S
C1122 C1123 1.367 . S
C1123 C1122 1.367 . S
C1123 C1125 1.433 . S
C1124 C1120 1.350 . S
C1124 C1121 1.463 . S
C1124 N1128 1.427 . S
C1125 H1115 0.929 . S
C1125 C1123 1.433 . S
C1125 N1128 1.384 . S
C1126 H1117 0.929 . S
C1126 C1118 1.378 . S
C1126 C1121 1.350 . S
C1127 H1114 0.929 . S
C1127 C1119 1.433 . S
C1127 N1129 1.384 . S
N1128 C1124 1.427 . S
N1128 C1125 1.384 . S
N1129 C1121 1.427 . S
N1129 C1127 1.384 . S
H1130 C1136 0.930 . S
H1131 C1140 0.930 . S
H1132 C1145 0.929 . S
H1133 C1143 0.929 . S
H1134 C1138 0.929 . S
H1135 C1144 0.929 . S
C1136 H1130 0.930 . S
C1136 C1137 1.367 . S
C1136 C1144 1.378 . S
C1137 C1136 1.367 . S
C1137 C1145 1.433 . S
C1138 H1134 0.929 . S
C1138 C1140 1.378 . S
C1138 C1142 1.350 . S
C1139 C1142 1.463 . S
C1139 C1144 1.350 . S
C1139 N1147 1.427 . S
C1140 H1131 0.930 . S
C1140 C1138 1.378 . S
C1140 C1141 1.367 . S
C1141 C1140 1.367 . S
C1141 C1143 1.433 . S
C1142 C1138 1.350 . S
C1142 C1139 1.463 . S
C1142 N1146 1.427 . S
C1143 H1133 0.929 . S
C1143 C1141 1.433 . S
C1143 N1146 1.384 . S
C1144 H1135 0.929 . S
C1144 C1136 1.378 . S
C1144 C1139 1.350 . S
C1145 H1132 0.929 . S
C1145 C1137 1.433 . S
C1145 N1147 1.384 . S
N1146 C1142 1.427 . S
N1146 C1143 1.384 . S
N1147 C1139 1.427 . S
N1147 C1145 1.384 . S
H1148 C1154 0.930 . S
H1149 C1158 0.930 . S
H1150 C1163 0.929 . S
H1151 C1161 0.929 . S
H1152 C1156 0.929 . S
H1153 C1162 0.929 . S
C1154 H1148 0.930 . S
C1154 C1155 1.367 . S
C1154 C1162 1.378 . S
C1155 C1154 1.367 . S
C1155 C1163 1.433 . S
C1156 H1152 0.929 . S
C1156 C1158 1.378 . S
C1156 C1160 1.350 . S
C1157 C1160 1.463 . S
C1157 C1162 1.350 . S
C1157 N1165 1.427 . S
C1158 H1149 0.930 . S
C1158 C1156 1.378 . S
C1158 C1159 1.367 . S
C1159 C1158 1.367 . S
C1159 C1161 1.433 . S
C1160 C1156 1.350 . S
C1160 C1157 1.463 . S
C1160 N1164 1.427 . S
C1161 H1151 0.929 . S
C1161 C1159 1.433 . S
C1161 N1164 1.384 . S
C1162 H1153 0.929 . S
C1162 C1154 1.378 . S
C1162 C1157 1.350 . S
C1163 H1150 0.929 . S
C1163 C1155 1.433 . S
C1163 N1165 1.384 . S
N1164 C1160 1.427 . S
N1164 C1161 1.384 . S
N1165 C1157 1.427 . S
N1165 C1163 1.384 . S
H1166 C1172 0.930 . S
H1167 C1176 0.930 . S
H1168 C1181 0.929 . S
H1169 C1179 0.929 . S
H1170 C1174 0.929 . S
H1171 C1180 0.929 . S
C1172 H1166 0.930 . S
C1172 C1173 1.367 . S
C1172 C1180 1.378 . S
C1173 C1172 1.367 . S
C1173 C1181 1.433 . S
C1174 H1170 0.929 . S
C1174 C1176 1.378 . S
C1174 C1178 1.350 . S
C1175 C1178 1.463 . S
C1175 C1180 1.350 . S
C1175 N1183 1.427 . S
C1176 H1167 0.930 . S
C1176 C1174 1.378 . S
C1176 C1177 1.367 . S
C1177 C1176 1.367 . S
C1177 C1179 1.433 . S
C1178 C1174 1.350 . S
C1178 C1175 1.463 . S
C1178 N1182 1.427 . S
C1179 H1169 0.929 . S
C1179 C1177 1.433 . S
C1179 N1182 1.384 . S
C1180 H1171 0.929 . S
C1180 C1172 1.378 . S
C1180 C1175 1.350 . S
C1181 H1168 0.929 . S
C1181 C1173 1.433 . S
C1181 N1183 1.384 . S
N1182 C1178 1.427 . S
N1182 C1179 1.384 . S
N1183 C1175 1.427 . S
N1183 C1181 1.384 . S
C619 C213 1.516 . S
C615 C16 1.521 . S
C637 C266 1.339 . S
C633 C30 1.340 . S
C655 C329 1.602 . S
C651 C53 1.604 . S
C673 C372 1.336 . S
C669 C76 1.339 . S
C687 N104 1.470 . S
C691 C328 1.512 . S
C709 C365 1.327 . S
C705 N127 1.285 . S
C727 C206 1.426 . S
C723 N140 1.385 . S
C745 C259 1.185 . S
C741 N173 1.150 . S
C763 C312 1.515 . S
C759 C168 1.515 . S
C781 C381 1.871 . S
C777 C99 1.866 . S
C799 C222 1.599 . S
C795 C122 1.598 . S
C817 C275 1.749 . S
C813 C154 1.741 . S
C835 C223 1.515 . S
C831 N35 1.472 . S
C853 C276 1.741 . S
C849 N58 1.695 . S
C871 C319 1.442 . S
C867 N81 1.414 . S
C889 C382 1.700 . S
C885 N2 1.671 . S
C907 C425 1.473 . S
C903 C177 1.476 . S
C921 C108 1.730 . S
C925 C478 1.727 . S
C939 C131 1.626 . S
C943 C540 1.631 . S
C957 C145 1.737 . S
C961 C594 1.736 . S
C975 N25 1.445 . S
C979 C541 1.483 . S
C993 N48 1.680 . S
C997 C593 1.722 . S
C1011 N71 1.421 . S
C1015 C418 1.463 . S
C1033 C471 1.573 . S
C1029 N12 1.526 . S
C1051 C531 1.485 . S
C1047 C7 1.485 . S
C1065 C39 1.387 . S
C1069 C577 1.392 . S
C1083 C62 1.624 . S
C1087 C434 1.632 . S
C1101 C85 1.338 . S
C1105 C487 1.342 . S
C1123 C435 1.480 . S
C1119 N94 1.452 . S
C1141 C488 1.369 . S
C1137 N117 1.338 . S
C1155 N150 1.434 . S
C1159 C524 1.467 . S
C1177 C584 1.248 . S
C1173 N163 1.227 . S
