# Generated by pormake.
# Topology ocu, (6,8)-cn, num edge types: 1
# Building blocks:
#     Node 0, Type 0, BuildingBlock: FUNLAD_clean_sbu_0, # of connection points: 6
#     Node 1, Type 0, BuildingBlock: FUNLAD_clean_sbu_0, # of connection points: 6
#     Node 2, Type 0, BuildingBlock: FUNLAD_clean_sbu_0, # of connection points: 6
#     Node 3, Type 0, BuildingBlock: FUNLAD_clean_sbu_0, # of connection points: 6
#     Node 4, Type 0, BuildingBlock: FUNLAD_clean_sbu_0, # of connection points: 6
#     Node 5, Type 0, BuildingBlock: FUNLAD_clean_sbu_0, # of connection points: 6
#     Node 6, Type 0, BuildingBlock: FUNLAD_clean_sbu_0, # of connection points: 6
#     Node 7, Type 0, BuildingBlock: FUNLAD_clean_sbu_0, # of connection points: 6
#     Node 8, Type 1, BuildingBlock: TAGTUT_clean_sbu_1, # of connection points: 8
#     Node 9, Type 1, BuildingBlock: TAGTUT_clean_sbu_1, # of connection points: 8
#     Node 10, Type 1, BuildingBlock: TAGTUT_clean_sbu_1, # of connection points: 8
#     Node 11, Type 1, BuildingBlock: TAGTUT_clean_sbu_1, # of connection points: 8
#     Node 12, Type 1, BuildingBlock: TAGTUT_clean_sbu_1, # of connection points: 8
#     Node 13, Type 1, BuildingBlock: TAGTUT_clean_sbu_1, # of connection points: 8
#     Edge 14, Type (0, 1), BuildingBlock: MIFKUJ_clean_linker_0, # of connection points: 2
#     Edge 15, Type (0, 1), BuildingBlock: MIFKUJ_clean_linker_0, # of connection points: 2
#     Edge 16, Type (0, 1), BuildingBlock: MIFKUJ_clean_linker_0, # of connection points: 2
#     Edge 17, Type (0, 1), BuildingBlock: MIFKUJ_clean_linker_0, # of connection points: 2
#     Edge 18, Type (0, 1), BuildingBlock: MIFKUJ_clean_linker_0, # of connection points: 2
#     Edge 19, Type (0, 1), BuildingBlock: MIFKUJ_clean_linker_0, # of connection points: 2
#     Edge 20, Type (0, 1), BuildingBlock: MIFKUJ_clean_linker_0, # of connection points: 2
#     Edge 21, Type (0, 1), BuildingBlock: MIFKUJ_clean_linker_0, # of connection points: 2
#     Edge 22, Type (0, 1), BuildingBlock: MIFKUJ_clean_linker_0, # of connection points: 2
#     Edge 23, Type (0, 1), BuildingBlock: MIFKUJ_clean_linker_0, # of connection points: 2
#     Edge 24, Type (0, 1), BuildingBlock: MIFKUJ_clean_linker_0, # of connection points: 2
#     Edge 25, Type (0, 1), BuildingBlock: MIFKUJ_clean_linker_0, # of connection points: 2
#     Edge 26, Type (0, 1), BuildingBlock: MIFKUJ_clean_linker_0, # of connection points: 2
#     Edge 27, Type (0, 1), BuildingBlock: MIFKUJ_clean_linker_0, # of connection points: 2
#     Edge 28, Type (0, 1), BuildingBlock: MIFKUJ_clean_linker_0, # of connection points: 2
#     Edge 29, Type (0, 1), BuildingBlock: MIFKUJ_clean_linker_0, # of connection points: 2
#     Edge 30, Type (0, 1), BuildingBlock: MIFKUJ_clean_linker_0, # of connection points: 2
#     Edge 31, Type (0, 1), BuildingBlock: MIFKUJ_clean_linker_0, # of connection points: 2
#     Edge 32, Type (0, 1), BuildingBlock: MIFKUJ_clean_linker_0, # of connection points: 2
#     Edge 33, Type (0, 1), BuildingBlock: MIFKUJ_clean_linker_0, # of connection points: 2
#     Edge 34, Type (0, 1), BuildingBlock: MIFKUJ_clean_linker_0, # of connection points: 2
#     Edge 35, Type (0, 1), BuildingBlock: MIFKUJ_clean_linker_0, # of connection points: 2
#     Edge 36, Type (0, 1), BuildingBlock: MIFKUJ_clean_linker_0, # of connection points: 2
#     Edge 37, Type (0, 1), BuildingBlock: MIFKUJ_clean_linker_0, # of connection points: 2
#     Edge 38, Type (0, 1), BuildingBlock: MIFKUJ_clean_linker_0, # of connection points: 2
#     Edge 39, Type (0, 1), BuildingBlock: MIFKUJ_clean_linker_0, # of connection points: 2
#     Edge 40, Type (0, 1), BuildingBlock: MIFKUJ_clean_linker_0, # of connection points: 2
#     Edge 41, Type (0, 1), BuildingBlock: MIFKUJ_clean_linker_0, # of connection points: 2
#     Edge 42, Type (0, 1), BuildingBlock: MIFKUJ_clean_linker_0, # of connection points: 2
#     Edge 43, Type (0, 1), BuildingBlock: MIFKUJ_clean_linker_0, # of connection points: 2
#     Edge 44, Type (0, 1), BuildingBlock: MIFKUJ_clean_linker_0, # of connection points: 2
#     Edge 45, Type (0, 1), BuildingBlock: MIFKUJ_clean_linker_0, # of connection points: 2
#     Edge 46, Type (0, 1), BuildingBlock: MIFKUJ_clean_linker_0, # of connection points: 2
#     Edge 47, Type (0, 1), BuildingBlock: MIFKUJ_clean_linker_0, # of connection points: 2
#     Edge 48, Type (0, 1), BuildingBlock: MIFKUJ_clean_linker_0, # of connection points: 2
#     Edge 49, Type (0, 1), BuildingBlock: MIFKUJ_clean_linker_0, # of connection points: 2
#     Edge 50, Type (0, 1), BuildingBlock: MIFKUJ_clean_linker_0, # of connection points: 2
#     Edge 51, Type (0, 1), BuildingBlock: MIFKUJ_clean_linker_0, # of connection points: 2
#     Edge 52, Type (0, 1), BuildingBlock: MIFKUJ_clean_linker_0, # of connection points: 2
#     Edge 53, Type (0, 1), BuildingBlock: MIFKUJ_clean_linker_0, # of connection points: 2
#     Edge 54, Type (0, 1), BuildingBlock: MIFKUJ_clean_linker_0, # of connection points: 2
#     Edge 55, Type (0, 1), BuildingBlock: MIFKUJ_clean_linker_0, # of connection points: 2
#     Edge 56, Type (0, 1), BuildingBlock: MIFKUJ_clean_linker_0, # of connection points: 2
#     Edge 57, Type (0, 1), BuildingBlock: MIFKUJ_clean_linker_0, # of connection points: 2
#     Edge 58, Type (0, 1), BuildingBlock: MIFKUJ_clean_linker_0, # of connection points: 2
#     Edge 59, Type (0, 1), BuildingBlock: MIFKUJ_clean_linker_0, # of connection points: 2
#     Edge 60, Type (0, 1), BuildingBlock: MIFKUJ_clean_linker_0, # of connection points: 2
#     Edge 61, Type (0, 1), BuildingBlock: MIFKUJ_clean_linker_0, # of connection points: 2
# Relax obj value: 0.188
# Max RMSD: 0.254
# Mean RMSD: 0.200
data_MOF--net-ocu--node1-FUNLAD_clean_sbu_0--node2-TAGTUT_clean_sbu_1--edge1-MIFKUJ_clean_linker_0
_symmetry_space_group_name_H-M    P1
_symmetry_Int_Tables_number       1
_symmetry_cell_setting            triclinic
loop_
_symmetry_equiv_pos_as_xyz
'x, y, z'
_cell_length_a     49.270597
_cell_length_b     46.40015
_cell_length_c     51.045639
_cell_angle_alpha  86.883096
_cell_angle_beta   88.766762
_cell_angle_gamma 92.735431
loop_
_atom_site_label
_atom_site_type_symbol
_atom_site_fract_x
_atom_site_fract_y
_atom_site_fract_z
_atom_type_partial_charge
C0 C 0.23114 0.2676 0.28545 0.0
N1 N 0.20919 0.19639 0.24238 0.0
C2 C 0.20481 0.18053 0.26536 0.0
C3 C 0.18307 0.16026 0.26814 0.0
C4 C 0.16549 0.1565 0.24716 0.0
C5 C 0.17099 0.17237 0.22334 0.0
C6 C 0.19328 0.19218 0.22129 0.0
Zn7 Zn 0.23799 0.22926 0.24099 0.0
C8 C 0.21731 0.28167 0.21187 0.0
N9 N 0.29671 0.29936 0.23734 0.0
C10 C 0.31217 0.30296 0.25883 0.0
C11 C 0.30244 0.31474 0.21431 0.0
C12 C 0.32533 0.33358 0.21188 0.0
C13 C 0.34261 0.33622 0.23324 0.0
C14 C 0.33558 0.32117 0.25712 0.0
Zn15 Zn 0.26758 0.26678 0.23847 0.0
O16 O 0.22191 0.2442 0.27639 0.0
C17 C 0.28833 0.2144 0.26762 0.0
O18 O 0.25089 0.28166 0.27352 0.0
H19 H 0.29005 0.31128 0.19743 0.0
H20 H 0.21749 0.18448 0.28194 0.0
H21 H 0.30715 0.29058 0.27699 0.0
O22 O 0.26528 0.20304 0.26225 0.0
O23 O 0.29406 0.24056 0.26023 0.0
H24 H 0.19721 0.20501 0.20316 0.0
O25 O 0.28398 0.25137 0.20311 0.0
O26 O 0.25391 0.21488 0.20582 0.0
O27 O 0.24066 0.29276 0.21662 0.0
O28 O 0.21126 0.25569 0.2198 0.0
C29 C 0.27387 0.22845 0.19384 0.0
H30 H 0.1791 0.14893 0.28706 0.0
H31 H 0.15772 0.17013 0.20685 0.0
H32 H 0.33042 0.34452 0.193 0.0
H33 H 0.34855 0.32268 0.27391 0.0
C34 C 0.7122 0.2876 0.22727 0.0
N35 N 0.74502 0.2079 0.21333 0.0
C36 C 0.71862 0.20153 0.20786 0.0
C37 C 0.71187 0.18008 0.19095 0.0
C38 C 0.73236 0.16429 0.17981 0.0
C39 C 0.75959 0.17141 0.18548 0.0
C40 C 0.76552 0.1935 0.20246 0.0
Zn41 Zn 0.75088 0.23926 0.23927 0.0
C42 C 0.79112 0.28548 0.22124 0.0
N43 N 0.75651 0.30473 0.2941 0.0
C44 C 0.73548 0.31816 0.30514 0.0
C45 C 0.78271 0.31198 0.29967 0.0
C46 C 0.78869 0.33356 0.31675 0.0
C47 C 0.76757 0.34824 0.32818 0.0
C48 C 0.74059 0.34013 0.32243 0.0
Zn49 Zn 0.75105 0.27342 0.26796 0.0
O50 O 0.72083 0.26392 0.21982 0.0
C51 C 0.71069 0.2269 0.28566 0.0
O52 O 0.72151 0.29779 0.24806 0.0
H53 H 0.79914 0.30105 0.29075 0.0
H54 H 0.70257 0.21302 0.21676 0.0
H55 H 0.71479 0.312 0.3004 0.0
O56 O 0.72041 0.21715 0.26481 0.0
O57 O 0.71947 0.25156 0.29251 0.0
H58 H 0.78638 0.19894 0.20715 0.0
O59 O 0.78076 0.24839 0.28789 0.0
O60 O 0.781 0.21551 0.25866 0.0
O61 O 0.78236 0.29509 0.24259 0.0
O62 O 0.7814 0.26126 0.21425 0.0
C63 C 0.78991 0.22518 0.27981 0.0
H64 H 0.69066 0.17606 0.1866 0.0
H65 H 0.77601 0.15978 0.17728 0.0
H66 H 0.80977 0.33852 0.32111 0.0
H67 H 0.72373 0.3509 0.33085 0.0
C68 C 0.78436 0.71343 0.28207 0.0
N69 N 0.78216 0.80249 0.26393 0.0
C70 C 0.79057 0.80273 0.28914 0.0
C71 C 0.80156 0.82787 0.29894 0.0
C72 C 0.80416 0.85316 0.28273 0.0
C73 C 0.79677 0.85235 0.25638 0.0
C74 C 0.78546 0.82649 0.24732 0.0
Zn75 Zn 0.75979 0.76598 0.25575 0.0
C76 C 0.77413 0.73811 0.20937 0.0
N77 N 0.71035 0.68932 0.24783 0.0
C78 C 0.70812 0.66508 0.26422 0.0
C79 C 0.69941 0.68971 0.22356 0.0
C80 C 0.68549 0.66543 0.21499 0.0
C81 C 0.68322 0.6401 0.23119 0.0
C82 C 0.69473 0.63983 0.25609 0.0
Zn83 Zn 0.73311 0.72586 0.25571 0.0
O84 O 0.78831 0.74019 0.27575 0.0
C85 C 0.71859 0.75425 0.30194 0.0
O86 O 0.76199 0.70071 0.27635 0.0
H87 H 0.70219 0.70861 0.21031 0.0
H88 H 0.78751 0.78371 0.30224 0.0
H89 H 0.71733 0.66505 0.28327 0.0
O90 O 0.73749 0.77055 0.2911 0.0
O91 O 0.71113 0.73112 0.29127 0.0
H92 H 0.77835 0.82591 0.22745 0.0
O93 O 0.70467 0.75179 0.23565 0.0
O94 O 0.7311 0.79113 0.23521 0.0
O95 O 0.75528 0.72142 0.21997 0.0
O96 O 0.78162 0.76095 0.22046 0.0
C97 C 0.70876 0.77852 0.22932 0.0
H98 H 0.80732 0.82778 0.31932 0.0
H99 H 0.79873 0.87161 0.24339 0.0
H100 H 0.67738 0.66611 0.1954 0.0
H101 H 0.69356 0.62039 0.26888 0.0
C102 C 0.22222 0.80181 0.25865 0.0
N103 N 0.28531 0.75922 0.29371 0.0
C104 C 0.29834 0.78571 0.29444 0.0
C105 C 0.31011 0.79442 0.31736 0.0
C106 C 0.30777 0.77615 0.34007 0.0
C107 C 0.29495 0.74865 0.33893 0.0
C108 C 0.28409 0.74037 0.31519 0.0
Zn109 Zn 0.262 0.7528 0.26158 0.0
C110 C 0.20975 0.71986 0.27659 0.0
N111 N 0.2099 0.74705 0.19654 0.0
C112 C 0.21037 0.76632 0.17539 0.0
C113 C 0.19761 0.72026 0.19552 0.0
C114 C 0.18597 0.71158 0.17253 0.0
C115 C 0.18739 0.73034 0.15004 0.0
C116 C 0.19936 0.75822 0.15164 0.0
Zn117 Zn 0.23321 0.75339 0.22857 0.0
O118 O 0.24155 0.79018 0.27069 0.0
C119 C 0.28588 0.78588 0.21377 0.0
O120 O 0.21318 0.79082 0.23808 0.0
H121 H 0.1983 0.70475 0.21201 0.0
H122 H 0.29822 0.80105 0.27779 0.0
H123 H 0.22049 0.78739 0.17646 0.0
O124 O 0.29066 0.77794 0.23732 0.0
O125 O 0.26288 0.77891 0.20448 0.0
H126 H 0.27347 0.71952 0.3144 0.0
O127 O 0.25357 0.71591 0.21945 0.0
O128 O 0.28236 0.71578 0.2517 0.0
O129 O 0.2041 0.72824 0.25332 0.0
O130 O 0.23299 0.72684 0.28528 0.0
C131 C 0.27339 0.70477 0.2311 0.0
H132 H 0.31944 0.81602 0.31779 0.0
H133 H 0.29271 0.73418 0.3563 0.0
H134 H 0.17748 0.68965 0.17192 0.0
H135 H 0.20087 0.7732 0.13458 0.0
C136 C 0.21255 0.78509 0.72517 0.0
N137 N 0.24712 0.70551 0.71346 0.0
C138 C 0.22117 0.69806 0.70716 0.0
C139 C 0.21571 0.67519 0.69137 0.0
C140 C 0.23704 0.65912 0.6822 0.0
C141 C 0.26381 0.6675 0.6885 0.0
C142 C 0.26843 0.69096 0.70432 0.0
Zn143 Zn 0.25105 0.73793 0.73882 0.0
C144 C 0.29236 0.78408 0.72227 0.0
N145 N 0.25373 0.80416 0.79329 0.0
C146 C 0.23111 0.81327 0.80556 0.0
C147 C 0.27888 0.8157 0.79814 0.0
C148 C 0.28203 0.83725 0.81588 0.0
C149 C 0.25918 0.84655 0.82926 0.0
C150 C 0.23344 0.83435 0.82406 0.0
Zn151 Zn 0.25094 0.77221 0.76748 0.0
O152 O 0.22085 0.76109 0.71815 0.0
C153 C 0.21004 0.72557 0.78435 0.0
O154 O 0.22204 0.79568 0.7457 0.0
H155 H 0.29664 0.80787 0.78857 0.0
H156 H 0.20444 0.70961 0.71474 0.0
H157 H 0.21128 0.80389 0.80132 0.0
O158 O 0.22005 0.71543 0.7638 0.0
O159 O 0.21893 0.75024 0.79096 0.0
H160 H 0.28892 0.6972 0.70966 0.0
O161 O 0.28001 0.74852 0.78912 0.0
O162 O 0.28148 0.7159 0.75958 0.0
O163 O 0.28313 0.79353 0.74349 0.0
O164 O 0.28214 0.76042 0.71443 0.0
C165 C 0.2898 0.72567 0.78093 0.0
H166 H 0.19481 0.67019 0.68642 0.0
H167 H 0.28086 0.65575 0.68179 0.0
H168 H 0.30229 0.84579 0.81985 0.0
H169 H 0.21545 0.84091 0.83428 0.0
C170 C 0.28325 0.21197 0.77965 0.0
N171 N 0.28181 0.30105 0.76131 0.0
C172 C 0.29087 0.30079 0.78632 0.0
C173 C 0.30236 0.32562 0.79625 0.0
C174 C 0.30471 0.3512 0.78044 0.0
C175 C 0.29655 0.35096 0.75428 0.0
C176 C 0.28479 0.32536 0.74505 0.0
Zn177 Zn 0.25882 0.26465 0.75343 0.0
C178 C 0.27214 0.23577 0.70717 0.0
N179 N 0.20832 0.1884 0.7474 0.0
C180 C 0.20584 0.16469 0.76443 0.0
C181 C 0.19664 0.18845 0.72349 0.0
C182 C 0.18164 0.16436 0.71596 0.0
C183 C 0.17906 0.13953 0.73283 0.0
C184 C 0.19141 0.13961 0.75732 0.0
Zn185 Zn 0.23182 0.22469 0.75423 0.0
O186 O 0.2874 0.23864 0.7731 0.0
C187 C 0.21859 0.25373 0.80038 0.0
O188 O 0.26067 0.19945 0.77436 0.0
H189 H 0.19956 0.20693 0.70976 0.0
H190 H 0.28793 0.28164 0.79925 0.0
H191 H 0.21557 0.16496 0.78321 0.0
O192 O 0.23733 0.26979 0.78902 0.0
O193 O 0.21069 0.23055 0.79007 0.0
H194 H 0.27711 0.32524 0.72536 0.0
O195 O 0.20334 0.2507 0.73456 0.0
O196 O 0.22991 0.29 0.73323 0.0
O197 O 0.25325 0.21946 0.7182 0.0
O198 O 0.27994 0.25883 0.7178 0.0
C199 C 0.20736 0.27737 0.72795 0.0
H200 H 0.30871 0.32507 0.81647 0.0
H201 H 0.29827 0.37046 0.74158 0.0
H202 H 0.17293 0.16475 0.69663 0.0
H203 H 0.19006 0.12055 0.7706 0.0
C204 C 0.73187 0.29847 0.76732 0.0
N205 N 0.79705 0.26008 0.80331 0.0
C206 C 0.80726 0.28769 0.80465 0.0
C207 C 0.81901 0.29667 0.82751 0.0
C208 C 0.82002 0.27719 0.84944 0.0
C209 C 0.81035 0.2485 0.84732 0.0
C210 C 0.79902 0.24027 0.82379 0.0
Zn211 Zn 0.77355 0.25176 0.77201 0.0
C212 C 0.72264 0.21679 0.78887 0.0
N213 N 0.72102 0.23914 0.70828 0.0
C214 C 0.71951 0.25714 0.6864 0.0
C215 C 0.70976 0.21175 0.70912 0.0
C216 C 0.69668 0.20135 0.68754 0.0
C217 C 0.69559 0.21894 0.66446 0.0
C218 C 0.707 0.24727 0.66393 0.0
Zn219 Zn 0.74475 0.24848 0.73934 0.0
O220 O 0.75162 0.28856 0.77998 0.0
C221 C 0.7955 0.28333 0.72226 0.0
O222 O 0.72335 0.28576 0.7474 0.0
H223 H 0.71208 0.1972 0.72606 0.0
H224 H 0.8049 0.30332 0.78848 0.0
H225 H 0.72895 0.27869 0.68597 0.0
O226 O 0.80102 0.27783 0.7462 0.0
O227 O 0.77295 0.27366 0.71377 0.0
H228 H 0.79065 0.21846 0.82236 0.0
O229 O 0.76637 0.21117 0.73181 0.0
O230 O 0.7955 0.21541 0.76343 0.0
O231 O 0.71697 0.22381 0.76532 0.0
O232 O 0.74561 0.22518 0.79738 0.0
C233 C 0.78684 0.20213 0.74392 0.0
H234 H 0.82572 0.31915 0.82851 0.0
H235 H 0.81083 0.2329 0.86386 0.0
H236 H 0.68872 0.17913 0.68847 0.0
H237 H 0.70665 0.26132 0.64631 0.0
C238 C 0.72618 0.76779 0.79135 0.0
N239 N 0.70531 0.69644 0.74766 0.0
C240 C 0.70073 0.68093 0.7708 0.0
C241 C 0.68021 0.6592 0.7731 0.0
C242 C 0.66414 0.65339 0.7514 0.0
C243 C 0.66974 0.66922 0.72755 0.0
C244 C 0.69064 0.69071 0.72607 0.0
Zn245 Zn 0.73307 0.73035 0.74623 0.0
C246 C 0.71041 0.78204 0.71785 0.0
N247 N 0.78983 0.80223 0.74239 0.0
C248 C 0.80622 0.80629 0.76314 0.0
C249 C 0.79449 0.81728 0.71901 0.0
C250 C 0.81739 0.83591 0.71529 0.0
C251 C 0.83576 0.83884 0.73575 0.0
C252 C 0.8296 0.82447 0.76017 0.0
Zn253 Zn 0.76166 0.76876 0.74419 0.0
O254 O 0.71683 0.74474 0.78173 0.0
C255 C 0.78398 0.71706 0.77292 0.0
O256 O 0.74552 0.78252 0.77945 0.0
H257 H 0.78138 0.81344 0.70272 0.0
H258 H 0.7125 0.68601 0.78774 0.0
H259 H 0.80207 0.79411 0.78158 0.0
O260 O 0.76104 0.70532 0.76773 0.0
O261 O 0.78937 0.74325 0.76531 0.0
H262 H 0.69469 0.70332 0.70785 0.0
O263 O 0.77805 0.75447 0.70904 0.0
O264 O 0.7498 0.71643 0.71094 0.0
O265 O 0.73335 0.79394 0.72295 0.0
O266 O 0.70536 0.75568 0.72511 0.0
C267 C 0.76942 0.73117 0.6995 0.0
H268 H 0.67623 0.64794 0.79203 0.0
H269 H 0.65783 0.66534 0.71038 0.0
H270 H 0.82167 0.84626 0.69601 0.0
H271 H 0.8433 0.8263 0.77638 0.0
C272 C 0.93782 0.07434 0.54611 0.0
C273 C 0.95551 0.07231 0.46157 0.0
C274 C 0.96233 0.96152 0.47511 0.0
Mg275 Mg 0.99057 0.0743 0.51107 0.0
O276 O 0.98309 0.03446 0.51811 0.0
Mg277 Mg 0.94675 0.01772 0.50853 0.0
Mg278 Mg 0.00624 0.00718 0.50025 0.0
O279 O 0.02952 0.98062 0.48184 0.0
Mg280 Mg 0.02241 0.9405 0.48469 0.0
Mg281 Mg 0.06587 0.99723 0.49168 0.0
C282 C 0.05015 0.05317 0.52436 0.0
C283 C 0.03732 0.04325 0.45206 0.0
O284 O 0.92906 0.05071 0.5364 0.0
O285 O 0.96087 0.08686 0.53931 0.0
O286 O 0.94318 0.04997 0.47291 0.0
O287 O 0.97623 0.0847 0.47172 0.0
O288 O 0.03372 0.07395 0.52222 0.0
O289 O 0.04312 0.0275 0.51819 0.0
C290 C 0.9756 0.97351 0.55004 0.0
O291 O 0.9977 0.9767 0.53631 0.0
O292 O 0.95407 0.98637 0.5435 0.0
O293 O 0.08404 0.96625 0.46199 0.0
O294 O 0.05186 0.93153 0.45488 0.0
O295 O 0.06891 0.96257 0.52588 0.0
C296 C 0.07523 0.94422 0.44982 0.0
O297 O 0.03736 0.92673 0.52266 0.0
O298 O 0.97893 0.94089 0.4751 0.0
C299 C 0.05694 0.9388 0.53475 0.0
O300 O 0.96941 0.98661 0.48266 0.0
O301 O 0.01471 0.03765 0.46449 0.0
O302 O 0.05921 0.03117 0.45872 0.0
C303 C 0.4324 0.07343 0.0185 0.0
C304 C 0.46464 0.06056 0.94253 0.0
C305 C 0.45989 0.94783 0.9752 0.0
Mg306 Mg 0.4906 0.06438 0.99641 0.0
O307 O 0.47948 0.02588 0.00642 0.0
Mg308 Mg 0.44484 0.01063 0.99086 0.0
Mg309 Mg 0.50367 0.99458 0.99674 0.0
O310 O 0.52734 0.96294 0.98721 0.0
Mg311 Mg 0.51523 0.92503 0.99852 0.0
Mg312 Mg 0.5621 0.97764 0.00254 0.0
C313 C 0.54674 0.04174 0.01949 0.0
C314 C 0.54937 0.02116 0.95276 0.0
O315 O 0.42446 0.04863 0.01049 0.0
O316 O 0.45717 0.0833 0.01598 0.0
O317 O 0.45022 0.03942 0.95327 0.0
O318 O 0.48384 0.07291 0.95483 0.0
O319 O 0.53198 0.06273 0.01193 0.0
O320 O 0.53824 0.01511 0.01895 0.0
C321 C 0.45781 0.96588 0.03952 0.0
O322 O 0.48324 0.96747 0.03286 0.0
O323 O 0.44056 0.98106 0.02733 0.0
O324 O 0.5813 0.93862 0.98359 0.0
O325 O 0.54769 0.90459 0.97932 0.0
O326 O 0.55637 0.94982 0.04113 0.0
C327 C 0.57258 0.91381 0.97621 0.0
O328 O 0.52154 0.91764 0.04017 0.0
O329 O 0.47372 0.9266 0.98383 0.0
C330 C 0.54115 0.92948 0.05226 0.0
O331 O 0.46933 0.97417 0.97423 0.0
O332 O 0.52433 0.02141 0.96058 0.0
O333 O 0.56647 0.00567 0.96484 0.0
C334 C 0.93318 0.58519 0.03169 0.0
C335 C 0.95455 0.57021 0.95159 0.0
C336 C 0.95162 0.45867 0.984 0.0
Mg337 Mg 0.9871 0.57462 0.00179 0.0
O338 O 0.97699 0.53627 0.01342 0.0
Mg339 Mg 0.93986 0.52185 0.00271 0.0
Mg340 Mg 0.99881 0.50502 0.99928 0.0
O341 O 0.02055 0.47376 0.98508 0.0
Mg342 Mg 0.01021 0.43572 0.99731 0.0
Mg343 Mg 0.05779 0.48797 0.99557 0.0
C344 C 0.04591 0.55137 0.01485 0.0
C345 C 0.03795 0.53356 0.95019 0.0
O346 O 0.92361 0.5605 0.02478 0.0
O347 O 0.95758 0.59468 0.02577 0.0
O348 O 0.94057 0.54994 0.96425 0.0
O349 O 0.97547 0.58222 0.96148 0.0
O350 O 0.03048 0.5725 0.00981 0.0
O351 O 0.03716 0.52478 0.0163 0.0
C352 C 0.95961 0.47663 0.04843 0.0
O353 O 0.98322 0.47683 0.03696 0.0
O354 O 0.94091 0.4927 0.03992 0.0
O355 O 0.07371 0.44876 0.97343 0.0
O356 O 0.03934 0.41488 0.97379 0.0
O357 O 0.05736 0.46009 0.03412 0.0
C358 C 0.06371 0.4239 0.96727 0.0
O359 O 0.02181 0.42868 0.03757 0.0
O360 O 0.96694 0.43755 0.98933 0.0
C361 C 0.0431 0.4403 0.0471 0.0
O362 O 0.96054 0.48519 0.9822 0.0
O363 O 0.0144 0.53327 0.96177 0.0
O364 O 0.05662 0.51725 0.9584 0.0
C365 C 0.43669 0.57401 0.04158 0.0
C366 C 0.45823 0.57368 0.9586 0.0
C367 C 0.4661 0.46096 0.97267 0.0
Mg368 Mg 0.49129 0.57512 0.00937 0.0
O369 O 0.48449 0.53513 0.01429 0.0
Mg370 Mg 0.44863 0.51776 0.00415 0.0
Mg371 Mg 0.50866 0.50815 0.99708 0.0
O372 O 0.53279 0.48105 0.98022 0.0
Mg373 Mg 0.52599 0.44101 0.98597 0.0
Mg374 Mg 0.56856 0.49867 0.99063 0.0
C375 C 0.55101 0.5552 0.02287 0.0
C376 C 0.54007 0.54101 0.94728 0.0
O377 O 0.42896 0.55043 0.03117 0.0
O378 O 0.46007 0.58667 0.03657 0.0
O379 O 0.44577 0.55065 0.96861 0.0
O380 O 0.47824 0.58591 0.96997 0.0
O381 O 0.53399 0.57546 0.02163 0.0
O382 O 0.54478 0.52992 0.0152 0.0
C383 C 0.47719 0.47401 0.04621 0.0
O384 O 0.49963 0.47825 0.03319 0.0
O385 O 0.45542 0.48629 0.03943 0.0
O386 O 0.58796 0.46601 0.96363 0.0
O387 O 0.55703 0.42954 0.95849 0.0
O388 O 0.57134 0.46638 0.02653 0.0
C389 C 0.58026 0.44247 0.95316 0.0
O390 O 0.53951 0.43058 0.02538 0.0
O391 O 0.48284 0.44046 0.97452 0.0
C392 C 0.55912 0.44341 0.03682 0.0
O393 O 0.47259 0.48662 0.97917 0.0
O394 O 0.51749 0.53722 0.96021 0.0
O395 O 0.56182 0.52954 0.95528 0.0
C396 C 0.94179 0.57856 0.53285 0.0
C397 C 0.96833 0.57191 0.45385 0.0
C398 C 0.95983 0.45688 0.47504 0.0
Mg399 Mg 0.99766 0.56872 0.50646 0.0
O400 O 0.98519 0.5301 0.51333 0.0
Mg401 Mg 0.94885 0.51855 0.49928 0.0
Mg402 Mg 0.00686 0.49871 0.49946 0.0
O403 O 0.02844 0.46734 0.48553 0.0
Mg404 Mg 0.01556 0.42874 0.49294 0.0
Mg405 Mg 0.06467 0.47888 0.50016 0.0
C406 C 0.05329 0.54066 0.52468 0.0
C407 C 0.05119 0.5284 0.45554 0.0
O408 O 0.93218 0.55541 0.52294 0.0
O409 O 0.96685 0.58726 0.52999 0.0
O410 O 0.95308 0.55075 0.46339 0.0
O411 O 0.98872 0.58183 0.46618 0.0
O412 O 0.03935 0.5631 0.51985 0.0
O413 O 0.04359 0.5149 0.52147 0.0
C414 C 0.96326 0.47002 0.54461 0.0
O415 O 0.98765 0.46953 0.53506 0.0
O416 O 0.94596 0.48694 0.53472 0.0
O417 O 0.08144 0.44181 0.47614 0.0
O418 O 0.04659 0.40982 0.46991 0.0
O419 O 0.05919 0.44748 0.53608 0.0
C420 C 0.07162 0.41852 0.46653 0.0
O421 O 0.0235 0.41659 0.53375 0.0
O422 O 0.9736 0.43428 0.47974 0.0
C423 C 0.04372 0.42678 0.54615 0.0
O424 O 0.96996 0.48255 0.47785 0.0
O425 O 0.02629 0.52801 0.46396 0.0
O426 O 0.0682 0.51123 0.46561 0.0
C427 C 0.43002 0.08353 0.52658 0.0
C428 C 0.45702 0.06904 0.44735 0.0
C429 C 0.45127 0.95637 0.48068 0.0
Mg430 Mg 0.48572 0.0729 0.50001 0.0
O431 O 0.47434 0.03448 0.51017 0.0
Mg432 Mg 0.4382 0.02046 0.49694 0.0
Mg433 Mg 0.49699 0.00283 0.49838 0.0
O434 O 0.51982 0.97115 0.4866 0.0
Mg435 Mg 0.50866 0.93348 0.49903 0.0
Mg436 Mg 0.55621 0.98528 0.49934 0.0
C437 C 0.54246 0.04848 0.51873 0.0
C438 C 0.5403 0.03067 0.4518 0.0
O439 O 0.42056 0.05933 0.51837 0.0
O440 O 0.45484 0.09257 0.52243 0.0
O441 O 0.44234 0.04845 0.45869 0.0
O442 O 0.47662 0.08143 0.45905 0.0
O443 O 0.52792 0.0701 0.5127 0.0
O444 O 0.53356 0.02211 0.51823 0.0
C445 C 0.45347 0.97537 0.5446 0.0
O446 O 0.47829 0.97559 0.53589 0.0
O447 O 0.43606 0.99143 0.53366 0.0
O448 O 0.57363 0.94574 0.47844 0.0
O449 O 0.53895 0.91236 0.47737 0.0
O450 O 0.55325 0.95768 0.53809 0.0
C451 C 0.56366 0.92096 0.47195 0.0
O452 O 0.51749 0.9266 0.54013 0.0
O453 O 0.46632 0.93565 0.48801 0.0
C454 C 0.53828 0.93814 0.55061 0.0
O455 O 0.46011 0.98298 0.47843 0.0
O456 O 0.51582 0.03056 0.4614 0.0
O457 O 0.55804 0.01436 0.46188 0.0
H458 H 0.11437 0.17289 0.23653 0.0
H459 H 0.07294 0.15309 0.25941 0.0
H460 H 0.11738 0.08262 0.29272 0.0
H461 H 0.15856 0.10199 0.26955 0.0
H462 H 0.06302 0.06801 0.2921 0.0
H463 H 0.1245 0.14737 0.31929 0.0
H464 H 0.14729 0.19583 0.31253 0.0
H465 H 0.06976 0.23359 0.30477 0.0
H466 H 0.04657 0.1852 0.3111 0.0
H467 H 0.0799 0.07702 0.43196 0.0
H468 H 0.08384 0.10091 0.38824 0.0
H469 H 1.00037 0.07528 0.37383 0.0
H470 H 0.99613 0.05167 0.41799 0.0
H471 H 0.05658 0.14238 0.35802 0.0
H472 H 0.00884 0.04518 0.30821 0.0
H473 H 0.99456 0.99404 0.31865 0.0
H474 H 0.05567 0.9881 0.37717 0.0
H475 H 0.07066 0.03892 0.36665 0.0
C476 C 0.11491 0.15231 0.24755 0.0
C477 C 0.13972 0.13929 0.25194 0.0
C478 C 0.09122 0.14105 0.26063 0.0
C479 C 0.09234 0.1169 0.27831 0.0
C480 C 0.11611 0.10142 0.27932 0.0
C481 C 0.13973 0.11261 0.26626 0.0
C482 C 0.07254 0.1123 0.30047 0.0
C483 C 0.06071 0.0845 0.30614 0.0
C484 C 0.07004 0.13372 0.31904 0.0
C485 C 0.08387 0.16275 0.3153 0.0
C486 C 0.11236 0.16602 0.31599 0.0
C487 C 0.12534 0.19344 0.31224 0.0
C488 C 0.10998 0.21777 0.30816 0.0
C489 C 0.08162 0.21471 0.30785 0.0
C490 C 0.06855 0.18731 0.31148 0.0
C491 C 0.06219 0.07714 0.41973 0.0
C492 C 0.03787 0.06223 0.42808 0.0
C493 C 0.06437 0.09097 0.39488 0.0
C494 C 0.04245 0.08959 0.37783 0.0
C495 C 0.01746 0.07653 0.38677 0.0
C496 C 0.01511 0.06308 0.41193 0.0
C497 C 0.04774 0.09794 0.34988 0.0
C498 C 0.0571 0.12641 0.34327 0.0
C499 C 0.04881 0.07685 0.3309 0.0
C500 C 0.04031 0.0461 0.33714 0.0
C501 C 0.01913 0.03297 0.32337 0.0
C502 C 0.01099 0.00401 0.32923 0.0
C503 C 0.02402 0.98791 0.34874 0.0
C504 C 0.04536 0.00068 0.36229 0.0
C505 C 0.05369 0.02957 0.35637 0.0
H506 H 0.0177 0.9655 0.35323 0.0
H507 H 0.12006 0.23899 0.30532 0.0
H508 H 0.81706 0.1775 0.26662 0.0
H509 H 0.84874 0.1502 0.29349 0.0
H510 H 0.84026 0.20956 0.35492 0.0
H511 H 0.80873 0.23697 0.32829 0.0
H512 H 0.89849 0.1648 0.31663 0.0
H513 H 0.83562 0.16914 0.4131 0.0
H514 H 0.78788 0.17312 0.42753 0.0
H515 H 0.76067 0.13469 0.35747 0.0
H516 H 0.80821 0.13008 0.34283 0.0
H517 H 0.97098 0.12332 0.43376 0.0
H518 H 0.94667 0.14697 0.39774 0.0
H519 H 0.88959 0.07364 0.39805 0.0
H520 H 0.91335 0.05001 0.43389 0.0
H521 H 0.86396 0.12265 0.40307 0.0
H522 H 0.9318 0.08808 0.34645 0.0
H523 H 0.97726 0.08014 0.32796 0.0
H524 H 0.99276 0.1717 0.31522 0.0
H525 H 0.94739 0.18025 0.33382 0.0
C526 C 0.82207 0.18486 0.28579 0.0
C527 C 0.81018 0.20933 0.29536 0.0
C528 C 0.84029 0.16931 0.30105 0.0
C529 C 0.84673 0.17772 0.32628 0.0
C530 C 0.83543 0.20254 0.3356 0.0
C531 C 0.81739 0.21819 0.32031 0.0
C532 C 0.86408 0.15982 0.34348 0.0
C533 C 0.89104 0.15566 0.33559 0.0
C534 C 0.85415 0.14733 0.36794 0.0
C535 C 0.82548 0.14958 0.37676 0.0
C536 C 0.81944 0.16144 0.40084 0.0
C537 C 0.79242 0.16381 0.40904 0.0
C538 C 0.77125 0.15426 0.39339 0.0
C539 C 0.77707 0.14219 0.36954 0.0
C540 C 0.80405 0.13973 0.36126 0.0
C541 C 0.95351 0.11202 0.42587 0.0
C542 C 0.94388 0.08497 0.43712 0.0
C543 C 0.93968 0.12554 0.4052 0.0
C544 C 0.91609 0.11219 0.39538 0.0
C545 C 0.9075 0.08448 0.40552 0.0
C546 C 0.92123 0.07099 0.42606 0.0
C547 C 0.8987 0.12803 0.37656 0.0
C548 C 0.87161 0.13187 0.38419 0.0
C549 C 0.90847 0.13977 0.35176 0.0
C550 C 0.93625 0.13481 0.34174 0.0
C551 C 0.94502 0.10655 0.34003 0.0
C552 C 0.97073 0.10193 0.32941 0.0
C553 C 0.98787 0.1254 0.32039 0.0
C554 C 0.97944 0.15355 0.32219 0.0
C555 C 0.9537 0.15829 0.33273 0.0
H556 H 0.00758 0.12177 0.3118 0.0
H557 H 0.75035 0.15615 0.39976 0.0
H558 H 0.85225 0.88349 0.27265 0.0
H559 H 0.87483 0.9151 0.3034 0.0
H560 H 0.80143 0.91215 0.35133 0.0
H561 H 0.77887 0.88113 0.32046 0.0
H562 H 0.83234 0.962 0.35773 0.0
H563 H 0.84247 0.85895 0.35825 0.0
H564 H 0.85406 0.81386 0.33815 0.0
H565 H 0.9363 0.84702 0.3247 0.0
H566 H 0.92498 0.89273 0.34399 0.0
H567 H 0.92862 0.9133 0.47362 0.0
H568 H 0.89401 0.90442 0.44098 0.0
H569 H 0.90739 0.99212 0.40877 0.0
H570 H 0.94043 0.00144 0.4424 0.0
H571 H 0.90522 0.90221 0.39352 0.0
H572 H 0.85678 0.01166 0.36684 0.0
H573 H 0.84128 0.05427 0.38868 0.0
H574 H 0.83006 0.00359 0.46134 0.0
H575 H 0.8447 0.96047 0.4398 0.0
C576 C 0.84061 0.89095 0.28898 0.0
C577 C 0.81402 0.87985 0.29447 0.0
C578 C 0.8535 0.90884 0.3066 0.0
C579 C 0.83995 0.91534 0.32995 0.0
C580 C 0.81228 0.90734 0.33352 0.0
C581 C 0.79941 0.88959 0.31592 0.0
C582 C 0.85553 0.92445 0.35283 0.0
C583 C 0.84848 0.94921 0.36553 0.0
C584 C 0.87584 0.90705 0.36347 0.0
C585 C 0.8828 0.8794 0.35226 0.0
C586 C 0.86297 0.85673 0.35081 0.0
C587 C 0.86948 0.83107 0.33955 0.0
C588 C 0.89589 0.82758 0.33014 0.0
C589 C 0.91584 0.84977 0.33195 0.0
C590 C 0.90938 0.8756 0.34297 0.0
C591 C 0.92325 0.93094 0.46024 0.0
C592 C 0.93701 0.95805 0.4606 0.0
C593 C 0.90367 0.92585 0.44144 0.0
C594 C 0.89812 0.94752 0.42218 0.0
C595 C 0.91075 0.97515 0.42359 0.0
C596 C 0.9297 0.98048 0.4429 0.0
C597 C 0.88219 0.93999 0.39887 0.0
C598 C 0.88922 0.91536 0.38592 0.0
C599 C 0.86141 0.95716 0.38857 0.0
C600 C 0.85217 0.98287 0.40173 0.0
C601 C 0.85086 0.00954 0.38745 0.0
C602 C 0.8422 0.03379 0.39977 0.0
C603 C 0.83487 0.03168 0.42642 0.0
C604 C 0.8359 0.00524 0.44073 0.0
C605 C 0.84435 0.98087 0.42846 0.0
H606 H 0.82831 0.05052 0.43594 0.0
H607 H 0.9009 0.80765 0.32151 0.0
H608 H 0.24477 0.8396 0.29154 0.0
H609 H 0.22083 0.87131 0.3197 0.0
H610 H 0.14548 0.84896 0.28255 0.0
H611 H 0.16954 0.81743 0.25377 0.0
H612 H 0.14833 0.90614 0.2977 0.0
H613 H 0.16043 0.81094 0.33561 0.0
H614 H 0.18677 0.76861 0.3479 0.0
H615 H 0.23634 0.8202 0.39741 0.0
H616 H 0.21061 0.863 0.38499 0.0
H617 H 0.05705 0.91672 0.4074 0.0
H618 H 0.08392 0.90027 0.37079 0.0
H619 H 0.15742 0.93236 0.40588 0.0
H620 H 0.13054 0.94952 0.44249 0.0
H621 H 0.15646 0.87277 0.39117 0.0
H622 H 0.14031 0.96777 0.35463 0.0
H623 H 0.11357 0.00917 0.34044 0.0
H624 H 0.06881 0.95595 0.28853 0.0
H625 H 0.09514 0.91413 0.30256 0.0
C626 C 0.22322 0.84203 0.28885 0.0
C627 C 0.20891 0.82577 0.27073 0.0
C628 C 0.20958 0.86012 0.30499 0.0
C629 C 0.18132 0.86192 0.3036 0.0
C630 C 0.1673 0.84773 0.28397 0.0
C631 C 0.18105 0.82976 0.26755 0.0
C632 C 0.16626 0.87564 0.32463 0.0
C633 C 0.14987 0.89874 0.31811 0.0
C634 C 0.16854 0.86606 0.35128 0.0
C635 C 0.18377 0.84025 0.35917 0.0
C636 C 0.17707 0.81331 0.34897 0.0
C637 C 0.19189 0.78923 0.35596 0.0
C638 C 0.21325 0.79173 0.37338 0.0
C639 C 0.21981 0.8183 0.38388 0.0
C640 C 0.20512 0.84249 0.37688 0.0
C641 C 0.07894 0.92029 0.40736 0.0
C642 C 0.09175 0.93416 0.42794 0.0
C643 C 0.09421 0.91112 0.38631 0.0
C644 C 0.12257 0.91531 0.38561 0.0
C645 C 0.13549 0.92912 0.40608 0.0
C646 C 0.12016 0.93883 0.42695 0.0
C647 C 0.13869 0.90348 0.3643 0.0
C648 C 0.15511 0.88043 0.37079 0.0
C649 C 0.13604 0.91287 0.33767 0.0
C650 C 0.11959 0.93774 0.3298 0.0
C651 C 0.12457 0.9648 0.3404 0.0
C652 C 0.10958 0.98838 0.33228 0.0
C653 C 0.08958 0.9852 0.31352 0.0
C654 C 0.08438 0.95839 0.30298 0.0
C655 C 0.09937 0.93476 0.31098 0.0
H656 H 0.07809 0.00351 0.30716 0.0
H657 H 0.22466 0.77304 0.37879 0.0
H658 H 0.20088 0.84222 0.72566 0.0
H659 H 0.17047 0.86853 0.69678 0.0
H660 H 0.14831 0.78951 0.65991 0.0
H661 H 0.17954 0.76345 0.68794 0.0
H662 H 0.15755 0.82868 0.62403 0.0
H663 H 0.10479 0.82481 0.70382 0.0
H664 H 0.0946 0.8313 0.75057 0.0
H665 H 0.10963 0.92298 0.738 0.0
H666 H 0.12033 0.917 0.69125 0.0
H667 H 0.04734 0.88245 0.55273 0.0
H668 H 0.06953 0.85695 0.58898 0.0
H669 H 0.11182 0.93635 0.60781 0.0
H670 H 0.09027 0.96194 0.57118 0.0
H671 H 0.09041 0.89732 0.65327 0.0
H672 H 0.1457 0.89874 0.57333 0.0
H673 H 0.15323 0.89092 0.52639 0.0
H674 H 0.12999 0.8009 0.54019 0.0
H675 H 0.12189 0.80832 0.58719 0.0
C676 C 0.18934 0.83043 0.71154 0.0
C677 C 0.19268 0.80076 0.70906 0.0
C678 C 0.17179 0.84547 0.69511 0.0
C679 C 0.15673 0.83104 0.67625 0.0
C680 C 0.15968 0.80125 0.67419 0.0
C681 C 0.17753 0.78633 0.69029 0.0
C682 C 0.13916 0.84711 0.65761 0.0
C683 C 0.14259 0.84327 0.63063 0.0
C684 C 0.1199 0.86675 0.66591 0.0
C685 C 0.11368 0.8704 0.69407 0.0
C686 C 0.10619 0.84633 0.71107 0.0
C687 C 0.10027 0.84992 0.73757 0.0
C688 C 0.10156 0.87752 0.74727 0.0
C689 C 0.1087 0.9016 0.73048 0.0
C690 C 0.11469 0.89812 0.70397 0.0
C691 C 0.06105 0.89461 0.56479 0.0
C692 C 0.06731 0.92417 0.55883 0.0
C693 C 0.07368 0.87999 0.58551 0.0
C694 C 0.09245 0.89474 0.6009 0.0
C695 C 0.09741 0.92459 0.59613 0.0
C696 C 0.08517 0.93913 0.57511 0.0
C697 C 0.10888 0.8785 0.62015 0.0
C698 C 0.1053 0.88248 0.64701 0.0
C699 C 0.12778 0.85869 0.61187 0.0
C700 C 0.1329 0.85415 0.5837 0.0
C701 C 0.14196 0.87733 0.56631 0.0
C702 C 0.14637 0.87297 0.5397 0.0
C703 C 0.14201 0.84544 0.5303 0.0
C704 C 0.13331 0.82222 0.5475 0.0
C705 C 0.12882 0.82649 0.57412 0.0
H706 H 0.14545 0.8421 0.50969 0.0
H707 H 0.09695 0.88026 0.76778 0.0
H708 H 0.20126 0.08861 0.72281 0.0
H709 H 0.18394 0.05514 0.69081 0.0
H710 H 0.10943 0.10026 0.68697 0.0
H711 H 0.12654 0.13325 0.71905 0.0
H712 H 0.10103 0.04412 0.67371 0.0
H713 H 0.1648 0.12773 0.65172 0.0
H714 H 0.20886 0.15411 0.65721 0.0
H715 H 0.25099 0.08035 0.63399 0.0
H716 H 0.20715 0.05344 0.6287 0.0
H717 H 0.06539 0.09991 0.55188 0.0
H718 H 0.09539 0.09936 0.58918 0.0
H719 H 0.12011 0.01461 0.57148 0.0
H720 H 0.08996 0.01475 0.53404 0.0
H721 H 0.15971 0.07422 0.59568 0.0
H722 H 0.09056 0.99323 0.61105 0.0
H723 H 0.04404 0.97337 0.60379 0.0
H724 H 0.01077 0.04649 0.63865 0.0
H725 H 0.05708 0.06702 0.64558 0.0
C726 C 0.1806 0.09024 0.71622 0.0
C727 C 0.16524 0.11353 0.72305 0.0
C728 C 0.17078 0.07125 0.69784 0.0
C729 C 0.14569 0.0757 0.68605 0.0
C730 C 0.12888 0.09647 0.69572 0.0
C731 C 0.13865 0.11536 0.71403 0.0
C732 C 0.13951 0.06425 0.66018 0.0
C733 C 0.11422 0.04989 0.65676 0.0
C734 C 0.15657 0.07202 0.63791 0.0
C735 C 0.18281 0.08854 0.64005 0.0
C736 C 0.18349 0.11718 0.6478 0.0
C737 C 0.20838 0.13219 0.65092 0.0
C738 C 0.23267 0.11886 0.64605 0.0
C739 C 0.23214 0.09059 0.63783 0.0
C740 C 0.20729 0.07546 0.63476 0.0
C741 C 0.07786 0.08153 0.55522 0.0
C742 C 0.07467 0.05702 0.54033 0.0
C743 C 0.09496 0.08125 0.57663 0.0
C744 C 0.10939 0.0567 0.58325 0.0
C745 C 0.10882 0.0336 0.56672 0.0
C746 C 0.09156 0.03377 0.54534 0.0
C747 C 0.12143 0.05408 0.6094 0.0
C748 C 0.14742 0.06657 0.61278 0.0
C749 C 0.10503 0.04463 0.63157 0.0
C750 C 0.07722 0.03173 0.62859 0.0
C751 C 0.07329 0.00513 0.61696 0.0
C752 C 0.047 0.99381 0.61283 0.0
C753 C 0.0245 0.00878 0.62058 0.0
C754 C 0.02823 0.03501 0.63255 0.0
C755 C 0.05449 0.04647 0.6366 0.0
H756 H 0.00418 0.99994 0.61753 0.0
H757 H 0.25188 0.13041 0.64865 0.0
H758 H 0.84097 0.19344 0.74854 0.0
H759 H 0.86848 0.16518 0.71981 0.0
H760 H 0.79578 0.13205 0.68404 0.0
H761 H 0.76818 0.16051 0.71237 0.0
H762 H 0.84109 0.09147 0.68965 0.0
H763 H 0.82071 0.18974 0.65766 0.0
H764 H 0.82068 0.2423 0.66264 0.0
H765 H 0.9074 0.24568 0.67014 0.0
H766 H 0.90785 0.19299 0.66569 0.0
H767 H 0.885 0.06031 0.56189 0.0
H768 H 0.86049 0.07756 0.59969 0.0
H769 H 0.93094 0.13107 0.61778 0.0
H770 H 0.95511 0.11481 0.57965 0.0
H771 H 0.88898 0.15998 0.62413 0.0
H772 H 0.91294 0.06568 0.65269 0.0
H773 H 0.91664 0.013 0.65097 0.0
H774 H 0.82965 0.0011 0.65378 0.0
H775 H 0.82541 0.05378 0.65511 0.0
C776 C 0.83079 0.17931 0.73524 0.0
C777 C 0.80249 0.1794 0.73244 0.0
C778 C 0.84653 0.16325 0.71882 0.0
C779 C 0.8341 0.14685 0.69967 0.0
C780 C 0.80569 0.14458 0.69872 0.0
C781 C 0.78998 0.16093 0.71485 0.0
C782 C 0.8505 0.13614 0.67799 0.0
C783 C 0.85149 0.10632 0.67519 0.0
C784 C 0.86456 0.15564 0.6596 0.0
C785 C 0.86427 0.1874 0.66164 0.0
C786 C 0.83974 0.20166 0.66057 0.0
C787 C 0.83965 0.23148 0.66329 0.0
C788 C 0.86403 0.2473 0.6668 0.0
C789 C 0.88854 0.23337 0.66749 0.0
C790 C 0.88872 0.20354 0.66487 0.0
C791 C 0.89518 0.07592 0.5738 0.0
C792 C 0.92201 0.08618 0.56771 0.0
C793 C 0.88124 0.08558 0.59556 0.0
C794 C 0.89404 0.10521 0.61192 0.0
C795 C 0.92062 0.11589 0.60552 0.0
C796 C 0.93441 0.10658 0.58363 0.0
C797 C 0.8797 0.11506 0.63547 0.0
C798 C 0.87891 0.14488 0.63859 0.0
C799 C 0.86644 0.09547 0.65445 0.0
C800 C 0.86885 0.06373 0.65374 0.0
C801 C 0.89459 0.05186 0.65273 0.0
C802 C 0.89679 0.02199 0.65186 0.0
C803 C 0.87339 0.00372 0.65221 0.0
C804 C 0.84775 0.01529 0.65349 0.0
C805 C 0.84543 0.04515 0.65432 0.0
H806 H 0.87514 0.98061 0.65154 0.0
H807 H 0.86399 0.27036 0.66893 0.0
H808 H 0.84674 0.89132 0.71029 0.0
H809 H 0.89037 0.90856 0.69015 0.0
H810 H 0.92913 0.83636 0.72751 0.0
H811 H 0.88537 0.81867 0.74751 0.0
H812 H 0.95514 0.91136 0.71226 0.0
H813 H 0.93432 0.81128 0.68409 0.0
H814 H 0.90053 0.77201 0.67568 0.0
H815 H 0.85894 0.82949 0.62334 0.0
H816 H 0.89229 0.86918 0.63177 0.0
H817 H 0.00381 0.92547 0.5629 0.0
H818 H 0.00159 0.89671 0.60484 0.0
H819 H 0.94548 0.95561 0.63585 0.0
H820 H 0.94725 0.98383 0.59415 0.0
H821 H 0.9491 0.87227 0.62384 0.0
H822 H 0.96084 0.96461 0.69693 0.0
H823 H 0.9937 0.00473 0.70513 0.0
H824 H 0.05707 0.96105 0.66691 0.0
H825 H 0.02458 0.92085 0.65819 0.0
C826 C 0.86472 0.87965 0.71489 0.0
C827 C 0.86268 0.85351 0.73012 0.0
C828 C 0.88961 0.88959 0.70356 0.0
C829 C 0.91274 0.87353 0.70728 0.0
C830 C 0.91142 0.849 0.72456 0.0
C831 C 0.88644 0.83901 0.73598 0.0
C832 C 0.9359 0.87945 0.68881 0.0
C833 C 0.95457 0.90234 0.69311 0.0
C834 C 0.93545 0.86704 0.66413 0.0
C835 C 0.91567 0.84315 0.65868 0.0
C836 C 0.91787 0.81553 0.6709 0.0
C837 C 0.89882 0.79322 0.66613 0.0
C838 C 0.87756 0.79828 0.64904 0.0
C839 C 0.87538 0.82563 0.63661 0.0
C840 C 0.89436 0.84802 0.64136 0.0
C841 C 0.9914 0.93242 0.57884 0.0
C842 C 0.97545 0.95658 0.57525 0.0
C843 C 0.99027 0.91613 0.60276 0.0
C844 C 0.97375 0.92437 0.62348 0.0
C845 C 0.95876 0.94921 0.62021 0.0
C846 C 0.9594 0.96502 0.59625 0.0
C847 C 0.96773 0.90498 0.64691 0.0
C848 C 0.95149 0.87996 0.6434 0.0
C849 C 0.97092 0.91506 0.67233 0.0
C850 C 0.99026 0.93964 0.67703 0.0
C851 C 0.9818 0.96351 0.69035 0.0
C852 C 1.00035 0.98633 0.69499 0.0
C853 C 0.02747 0.98539 0.68664 0.0
C854 C 0.03606 0.96174 0.67341 0.0
C855 C 0.01754 0.93905 0.66843 0.0
H856 H 0.04181 0.00304 0.69029 0.0
H857 H 0.86282 0.781 0.64538 0.0
H858 H 0.256 0.18087 0.16897 0.0
H859 H 0.27924 0.15716 0.13406 0.0
H860 H 0.34305 0.22429 0.13088 0.0
H861 H 0.31982 0.24837 0.16592 0.0
H862 H 0.32888 0.20516 0.08081 0.0
H863 H 0.35303 0.16573 0.16576 0.0
H864 H 0.3436 0.14435 0.2105 0.0
H865 H 0.30129 0.07147 0.17894 0.0
H866 H 0.31007 0.09269 0.13399 0.0
H867 H 0.43946 0.12952 0.03176 0.0
H868 H 0.40793 0.15763 0.05607 0.0
H869 H 0.34866 0.08598 0.0592 0.0
H870 H 0.38015 0.0575 0.03483 0.0
H871 H 0.358 0.1071 0.10748 0.0
H872 H 0.33655 0.14527 0.02198 0.0
H873 H 0.34595 0.16717 0.97741 0.0
H874 H 0.38429 0.24184 0.00971 0.0
H875 H 0.37512 0.22043 0.05452 0.0
C876 C 0.27478 0.19087 0.16065 0.0
C877 C 0.28625 0.21633 0.17046 0.0
C878 C 0.28801 0.17728 0.14067 0.0
C879 C 0.313 0.18878 0.13018 0.0
C880 C 0.32377 0.21508 0.13879 0.0
C881 C 0.31053 0.22874 0.15885 0.0
C882 C 0.3289 0.17198 0.11198 0.0
C883 C 0.33548 0.18383 0.08664 0.0
C884 C 0.33699 0.14393 0.11953 0.0
C885 C 0.33195 0.13095 0.14653 0.0
C886 C 0.34152 0.14526 0.16837 0.0
C887 C 0.33632 0.13316 0.19376 0.0
C888 C 0.32179 0.10661 0.19756 0.0
C889 C 0.3125 0.09206 0.17597 0.0
C890 C 0.31759 0.10411 0.15053 0.0
C891 C 0.41966 0.11973 0.03741 0.0
C892 C 0.41246 0.09111 0.03158 0.0
C893 C 0.40157 0.13595 0.05114 0.0
C894 C 0.37593 0.12393 0.05931 0.0
C895 C 0.36838 0.09563 0.05302 0.0
C896 C 0.3864 0.07942 0.0391 0.0
C897 C 0.35801 0.14018 0.07619 0.0
C898 C 0.35116 0.12828 0.10144 0.0
C899 C 0.3498 0.16816 0.06853 0.0
C900 C 0.35534 0.18114 0.04162 0.0
C901 C 0.34716 0.16628 0.01959 0.0
C902 C 0.35241 0.17861 0.99428 0.0
C903 C 0.36585 0.20578 0.99073 0.0
C904 C 0.37392 0.22077 0.01249 0.0
C905 C 0.36862 0.20859 0.03786 0.0
H906 H 0.36994 0.21526 0.97111 0.0
H907 H 0.31778 0.09727 0.21724 0.0
H908 H 0.81265 0.33992 0.2286 0.0
H909 H 0.84458 0.36953 0.19999 0.0
H910 H 0.84827 0.30064 0.14687 0.0
H911 H 0.81626 0.27073 0.17549 0.0
H912 H 0.89909 0.3267 0.15376 0.0
H913 H 0.8106 0.35667 0.13172 0.0
H914 H 0.76459 0.37323 0.14028 0.0
H915 H 0.79877 0.45006 0.17252 0.0
H916 H 0.84501 0.43375 0.1645 0.0
H917 H 0.9606 0.418 0.04777 0.0
H918 H 0.93498 0.38284 0.07737 0.0
H919 H 0.91396 0.45138 0.12688 0.0
H920 H 0.93785 0.4866 0.09614 0.0
H921 H 0.87113 0.42271 0.1199 0.0
H922 H 0.95996 0.39056 0.14509 0.0
H923 H 0.00572 0.37332 0.13671 0.0
H924 H 0.97104 0.30121 0.0975 0.0
H925 H 0.925 0.318 0.10583 0.0
C926 C 0.8203 0.33092 0.21091 0.0
C927 C 0.81167 0.30291 0.20435 0.0
C928 C 0.83856 0.34797 0.19449 0.0
C929 C 0.8487 0.33751 0.17105 0.0
C930 C 0.84076 0.30926 0.16479 0.0
C931 C 0.82235 0.2922 0.18116 0.0
C932 C 0.86689 0.35648 0.15285 0.0
C933 C 0.8929 0.3476 0.14615 0.0
C934 C 0.85905 0.38389 0.14299 0.0
C935 C 0.83127 0.39384 0.14773 0.0
C936 C 0.8083 0.37699 0.14082 0.0
C937 C 0.78218 0.38635 0.14554 0.0
C938 C 0.77876 0.41265 0.15699 0.0
C939 C 0.80146 0.42968 0.16368 0.0
C940 C 0.82762 0.42039 0.15903 0.0
C941 C 0.95131 0.42533 0.0655 0.0
C942 C 0.95162 0.45497 0.06994 0.0
C943 C 0.93653 0.40518 0.08248 0.0
C944 C 0.92247 0.41413 0.10475 0.0
C945 C 0.92433 0.44367 0.10989 0.0
C946 C 0.93835 0.46384 0.09252 0.0
C947 C 0.90398 0.39358 0.12148 0.0
C948 C 0.87762 0.402 0.12766 0.0
C949 C 0.91155 0.3658 0.13083 0.0
C950 C 0.93912 0.3556 0.12597 0.0
C951 C 0.96213 0.37108 0.13462 0.0
C952 C 0.98811 0.36136 0.12989 0.0
C953 C 0.99132 0.33622 0.11647 0.0
C954 C 0.96853 0.32067 0.10788 0.0
C955 C 0.94249 0.3302 0.11271 0.0
H956 H 0.01144 0.3287 0.1128 0.0
H957 H 0.75852 0.41986 0.16063 0.0
H958 H 0.65862 0.75764 0.21544 0.0
H959 H 0.62421 0.78309 0.19094 0.0
H960 H 0.67647 0.86056 0.18593 0.0
H961 H 0.71095 0.83533 0.21091 0.0
H962 H 0.62427 0.87275 0.19645 0.0
H963 H 0.67109 0.81685 0.13439 0.0
H964 H 0.68864 0.7723 0.11765 0.0
H965 H 0.6075 0.73427 0.11702 0.0
H966 H 0.58949 0.77848 0.13411 0.0
H967 H 0.58192 0.94922 0.0829 0.0
H968 H 0.60314 0.92269 0.1187 0.0
H969 H 0.54201 0.85354 0.11568 0.0
H970 H 0.52075 0.87968 0.07907 0.0
H971 H 0.59294 0.83432 0.11287 0.0
H972 H 0.5458 0.89432 0.16872 0.0
H973 H 0.52903 0.93918 0.18544 0.0
H974 H 0.61098 0.97036 0.19761 0.0
H975 H 0.62833 0.92598 0.18041 0.0
C976 C 0.66282 0.78014 0.20923 0.0
C977 C 0.68766 0.79439 0.21501 0.0
C978 C 0.64311 0.79464 0.19515 0.0
C979 C 0.64785 0.82365 0.18629 0.0
C980 C 0.67235 0.83817 0.19255 0.0
C981 C 0.6921 0.82368 0.20673 0.0
C982 C 0.62764 0.8386 0.16986 0.0
C983 C 0.61757 0.86453 0.17805 0.0
C984 C 0.61821 0.82735 0.14628 0.0
C985 C 0.62898 0.80084 0.13581 0.0
C986 C 0.65701 0.7989 0.13087 0.0
C987 C 0.66704 0.77373 0.12129 0.0
C988 C 0.64921 0.75043 0.11636 0.0
C989 C 0.62129 0.75231 0.1209 0.0
C990 C 0.61116 0.77743 0.13052 0.0
C991 C 0.57243 0.92873 0.09019 0.0
C992 C 0.54967 0.91654 0.07788 0.0
C993 C 0.58459 0.91366 0.11085 0.0
C994 C 0.57411 0.88629 0.12007 0.0
C995 C 0.55044 0.8747 0.10891 0.0
C996 C 0.53821 0.88976 0.08808 0.0
C997 C 0.58984 0.86884 0.13918 0.0
C998 C 0.59922 0.84241 0.13146 0.0
C999 C 0.59872 0.87978 0.1631 0.0
C1000 C 0.58839 0.9068 0.1731 0.0
C1001 C 0.56029 0.91084 0.1747 0.0
C1002 C 0.55067 0.93618 0.18432 0.0
C1003 C 0.56892 0.95758 0.19263 0.0
C1004 C 0.59686 0.95371 0.19128 0.0
C1005 C 0.6066 0.92847 0.18156 0.0
H1006 H 0.56143 0.97719 0.20006 0.0
H1007 H 0.65701 0.73096 0.10895 0.0
H1008 H 0.13962 0.70188 0.1403 0.0
H1009 H 0.12995 0.67272 0.10288 0.0
H1010 H 0.20608 0.70336 0.06568 0.0
H1011 H 0.2162 0.73236 0.10355 0.0
H1012 H 0.13709 0.69034 0.03938 0.0
H1013 H 0.22534 0.65378 0.06934 0.0
H1014 H 0.2573 0.64373 0.10495 0.0
H1015 H 0.19488 0.59232 0.14809 0.0
H1016 H 0.16249 0.60242 0.11289 0.0
H1017 H 0.08272 0.57381 0.97822 0.0
H1018 H 0.12456 0.60165 0.98752 0.0
H1019 H 0.11343 0.57647 0.06989 0.0
H1020 H 0.07269 0.54727 0.06025 0.0
H1021 H 0.1655 0.59051 0.05974 0.0
H1022 H 0.0778 0.63493 0.04102 0.0
H1023 H 0.03987 0.6424 0.01093 0.0
H1024 H 0.09605 0.6776 0.95076 0.0
H1025 H 0.13439 0.67014 0.98048 0.0
C1026 C 0.15398 0.70296 0.12387 0.0
C1027 C 0.17871 0.71913 0.12485 0.0
C1028 C 0.14846 0.68636 0.10255 0.0
C1029 C 0.16751 0.68569 0.08184 0.0
C1030 C 0.19128 0.70355 0.08165 0.0
C1031 C 0.19688 0.72024 0.10312 0.0
C1032 C 0.1632 0.66366 0.06241 0.0
C1033 C 0.14423 0.66873 0.04287 0.0
C1034 C 0.17201 0.63541 0.06759 0.0
C1035 C 0.1915 0.62903 0.08861 0.0
C1036 C 0.21841 0.64052 0.08652 0.0
C1037 C 0.2366 0.63478 0.1066 0.0
C1038 C 0.2281 0.61744 0.12879 0.0
C1039 C 0.20142 0.60576 0.13091 0.0
C1040 C 0.18316 0.61146 0.1109 0.0
C1041 C 0.09015 0.57305 0.99805 0.0
C1042 C 0.07467 0.55874 0.01864 0.0
C1043 C 0.11393 0.58905 0.00339 0.0
C1044 C 0.12158 0.59196 0.0295 0.0
C1045 C 0.10787 0.57471 0.04959 0.0
C1046 C 0.08454 0.55806 0.04414 0.0
C1047 C 0.13905 0.61703 0.03683 0.0
C1048 C 0.15992 0.61241 0.05462 0.0
C1049 C 0.13181 0.64572 0.03021 0.0
C1050 C 0.10885 0.65194 0.01288 0.0
C1051 C 0.082 0.64445 0.02141 0.0
C1052 C 0.06048 0.64858 0.00441 0.0
C1053 C 0.06559 0.66044 0.97894 0.0
C1054 C 0.0922 0.66841 0.97049 0.0
C1055 C 0.11382 0.66429 0.9874 0.0
H1056 H 0.04894 0.66348 0.96574 0.0
H1057 H 0.24218 0.61301 0.14431 0.0
H1058 H 0.28513 0.89964 0.82542 0.0
H1059 H 0.30541 0.92446 0.86178 0.0
H1060 H 0.26411 0.86271 0.91694 0.0
H1061 H 0.24361 0.83791 0.88054 0.0
H1062 H 0.29389 0.94551 0.91534 0.0
H1063 H 0.31567 0.83187 0.94776 0.0
H1064 H 0.31188 0.78254 0.93181 0.0
H1065 H 0.33081 0.8163 0.85323 0.0
H1066 H 0.33503 0.86574 0.86879 0.0
H1067 H 0.42525 0.90416 0.99506 0.0
H1068 H 0.37887 0.89263 0.98152 0.0
H1069 H 0.38473 0.96581 0.92528 0.0
H1070 H 0.43044 0.97821 0.93977 0.0
H1071 H 0.36405 0.87554 0.93797 0.0
H1072 H 0.32655 0.99046 0.90842 0.0
H1073 H 0.33022 0.0392 0.92533 0.0
H1074 H 0.34226 0.00249 0.00302 0.0
H1075 H 0.33831 0.95351 0.98665 0.0
C1076 C 0.27938 0.89226 0.84536 0.0
C1077 C 0.26323 0.86672 0.85031 0.0
C1078 C 0.29078 0.90655 0.86611 0.0
C1079 C 0.28649 0.89514 0.89194 0.0
C1080 C 0.26757 0.87181 0.89708 0.0
C1081 C 0.25593 0.85765 0.8763 0.0
C1082 C 0.30696 0.90232 0.91154 0.0
C1083 C 0.30916 0.93029 0.92062 0.0
C1084 C 0.32643 0.88211 0.9188 0.0
C1085 C 0.32532 0.85243 0.9094 0.0
C1086 C 0.31913 0.8287 0.92711 0.0
C1087 C 0.31685 0.80076 0.91813 0.0
C1088 C 0.32081 0.79634 0.89148 0.0
C1089 C 0.32747 0.8198 0.87381 0.0
C1090 C 0.32986 0.84776 0.88271 0.0
C1091 C 0.41643 0.91796 0.98003 0.0
C1092 C 0.43143 0.9419 0.96823 0.0
C1093 C 0.38993 0.91142 0.97239 0.0
C1094 C 0.37811 0.92846 0.95254 0.0
C1095 C 0.39299 0.95274 0.94113 0.0
C1096 C 0.41925 0.95967 0.94921 0.0
C1097 C 0.3516 0.91917 0.94169 0.0
C1098 C 0.34839 0.89071 0.93386 0.0
C1099 C 0.33107 0.93885 0.9361 0.0
C1100 C 0.33222 0.96827 0.94624 0.0
C1101 C 0.32969 0.99276 0.92915 0.0
C1102 C 0.33192 0.02046 0.93865 0.0
C1103 C 0.33652 0.02395 0.96524 0.0
C1104 C 0.33876 0.99976 0.98242 0.0
C1105 C 0.33654 0.97203 0.97303 0.0
H1106 H 0.33835 0.04536 0.97261 0.0
H1107 H 0.31893 0.77472 0.88454 0.0
H1108 H 0.16865 0.2359 0.82231 0.0
H1109 H 0.14287 0.26106 0.85513 0.0
H1110 H 0.21156 0.32071 0.86342 0.0
H1111 H 0.23732 0.29592 0.83102 0.0
H1112 H 0.15276 0.27979 0.90887 0.0
H1113 H 0.18558 0.38893 0.85545 0.0
H1114 H 0.20282 0.40719 0.81162 0.0
H1115 H 0.16122 0.33608 0.77664 0.0
H1116 H 0.14291 0.318 0.82008 0.0
H1117 H 0.11568 0.43497 0.94731 0.0
H1118 H 0.14339 0.40269 0.92282 0.0
H1119 H 0.0781 0.33719 0.92881 0.0
H1120 H 0.05047 0.36896 0.95345 0.0
H1121 H 0.13517 0.37988 0.87652 0.0
H1122 H 0.10373 0.27049 0.93242 0.0
H1123 H 0.0915 0.25132 0.97739 0.0
H1124 H 0.13507 0.32333 0.00904 0.0
H1125 H 0.14766 0.34285 0.96431 0.0
C1126 C 0.17847 0.25387 0.83169 0.0
C1127 C 0.20483 0.26421 0.82379 0.0
C1128 C 0.16374 0.26819 0.8504 0.0
C1129 C 0.17523 0.293 0.86127 0.0
C1130 C 0.20227 0.30183 0.85498 0.0
C1131 C 0.21692 0.28762 0.83641 0.0
C1132 C 0.15835 0.31169 0.87682 0.0
C1133 C 0.14848 0.30151 0.90172 0.0
C1134 C 0.15355 0.34029 0.86761 0.0
C1135 C 0.16314 0.35192 0.84113 0.0
C1136 C 0.17987 0.37736 0.83838 0.0
C1137 C 0.18981 0.3877 0.81359 0.0
C1138 C 0.18317 0.37277 0.79137 0.0
C1139 C 0.16637 0.34761 0.79387 0.0
C1140 C 0.15615 0.33736 0.81857 0.0
C1141 C 0.10724 0.41366 0.94351 0.0
C1142 C 0.0808 0.40463 0.95238 0.0
C1143 C 0.1231 0.39525 0.92947 0.0
C1144 C 0.11294 0.36741 0.92422 0.0
C1145 C 0.08657 0.35838 0.933 0.0
C1146 C 0.07071 0.37672 0.94697 0.0
C1147 C 0.12946 0.34808 0.9088 0.0
C1148 C 0.13928 0.35814 0.88378 0.0
C1149 C 0.13439 0.31947 0.91801 0.0
C1150 C 0.12639 0.30826 0.94499 0.0
C1151 C 0.11066 0.28224 0.94898 0.0
C1152 C 0.10366 0.27133 0.97443 0.0
C1153 C 0.11245 0.28614 0.99605 0.0
C1154 C 0.12815 0.31196 0.99227 0.0
C1155 C 0.13515 0.32301 0.96687 0.0
H1156 H 0.10716 0.27753 0.01572 0.0
H1157 H 0.19097 0.38073 0.77221 0.0
H1158 H 0.73013 0.19047 0.83766 0.0
H1159 H 0.69759 0.15866 0.86395 0.0
H1160 H 0.63717 0.17139 0.80507 0.0
H1161 H 0.6697 0.20234 0.77846 0.0
H1162 H 0.65005 0.16329 0.88745 0.0
H1163 H 0.59756 0.11099 0.79995 0.0
H1164 H 0.60841 0.09976 0.75431 0.0
H1165 H 0.69297 0.09667 0.77238 0.0
H1166 H 0.68257 0.10748 0.81819 0.0
H1167 H 0.53617 0.07691 0.9396 0.0
H1168 H 0.5619 0.11187 0.90953 0.0
H1169 H 0.61435 0.04494 0.88756 0.0
H1170 H 0.58875 0.01017 0.91732 0.0
H1171 H 0.6047 0.08036 0.84564 0.0
H1172 H 0.63303 0.08832 0.93425 0.0
H1173 H 0.62598 0.09495 0.98148 0.0
H1174 H 0.5975 0.1797 0.96385 0.0
H1175 H 0.60395 0.17336 0.91644 0.0
C1176 C 0.70989 0.18653 0.83035 0.0
C1177 C 0.70268 0.19875 0.80578 0.0
C1178 C 0.69124 0.16841 0.84546 0.0
C1179 C 0.66495 0.16216 0.83639 0.0
C1180 C 0.65744 0.17527 0.81233 0.0
C1181 C 0.67611 0.19309 0.79713 0.0
C1182 C 0.64569 0.14125 0.85156 0.0
C1183 C 0.64005 0.14529 0.87821 0.0
C1184 C 0.63286 0.11731 0.83982 0.0
C1185 C 0.6393 0.11036 0.81241 0.0
C1186 C 0.61845 0.1078 0.79419 0.0
C1187 C 0.62452 0.10152 0.7683 0.0
C1188 C 0.65137 0.0976 0.76043 0.0
C1189 C 0.6722 0.09982 0.77847 0.0
C1190 C 0.66622 0.10604 0.8044 0.0
C1191 C 0.55257 0.0695 0.92767 0.0
C1192 C 0.56034 0.04077 0.93073 0.0
C1193 C 0.5675 0.08955 0.91073 0.0
C1194 C 0.59033 0.08114 0.8965 0.0
C1195 C 0.59689 0.05201 0.89829 0.0
C1196 C 0.58221 0.03214 0.91533 0.0
C1197 C 0.60875 0.10272 0.88129 0.0
C1198 C 0.61436 0.09868 0.85471 0.0
C1199 C 0.62211 0.12612 0.89329 0.0
C1200 C 0.61869 0.13024 0.92178 0.0
C1201 C 0.62509 0.10829 0.94043 0.0
C1202 C 0.62122 0.112 0.96724 0.0
C1203 C 0.61122 0.13769 0.97566 0.0
C1204 C 0.60519 0.15978 0.95729 0.0
C1205 C 0.60896 0.15615 0.93045 0.0
H1206 H 0.60822 0.14051 0.99641 0.0
H1207 H 0.65604 0.09279 0.74036 0.0
H1208 H 0.83711 0.73324 0.78074 0.0
H1209 H 0.87009 0.70727 0.80689 0.0
H1210 H 0.80972 0.63843 0.82555 0.0
H1211 H 0.77657 0.66421 0.79931 0.0
H1212 H 0.83615 0.65765 0.86925 0.0
H1213 H 0.85963 0.62826 0.78301 0.0
H1214 H 0.8728 0.63604 0.73619 0.0
H1215 H 0.94607 0.68246 0.75671 0.0
H1216 H 0.93314 0.67535 0.80367 0.0
H1217 H 0.91089 0.54942 0.9253 0.0
H1218 H 0.88693 0.5744 0.89037 0.0
H1219 H 0.94914 0.64312 0.88585 0.0
H1220 H 0.97344 0.61833 0.92131 0.0
H1221 H 0.92446 0.62649 0.83477 0.0
H1222 H 0.9014 0.65744 0.92014 0.0
H1223 H 0.88906 0.65038 0.96719 0.0
H1224 H 0.81571 0.60298 0.94841 0.0
H1225 H 0.82788 0.60932 0.90122 0.0
C1226 C 0.83086 0.71249 0.79028 0.0
C1227 C 0.80418 0.70079 0.78798 0.0
C1228 C 0.84979 0.69763 0.80512 0.0
C1229 C 0.84239 0.67086 0.81803 0.0
C1230 C 0.81583 0.65906 0.81569 0.0
C1231 C 0.79694 0.67377 0.80065 0.0
C1232 C 0.86199 0.65571 0.83487 0.0
C1233 C 0.85529 0.65057 0.86161 0.0
C1234 C 0.8874 0.64735 0.82507 0.0
C1235 C 0.89526 0.65155 0.79685 0.0
C1236 C 0.87843 0.64037 0.77753 0.0
C1237 C 0.88588 0.6446 0.75097 0.0
C1238 C 0.91021 0.65981 0.74348 0.0
C1239 C 0.9272 0.67073 0.76255 0.0
C1240 C 0.91983 0.66658 0.78914 0.0
C1241 C 0.91992 0.56954 0.91661 0.0
C1242 C 0.94383 0.58217 0.92655 0.0
C1243 C 0.90615 0.58376 0.89657 0.0
C1244 C 0.91605 0.61077 0.8859 0.0
C1245 C 0.94116 0.6223 0.89398 0.0
C1246 C 0.95497 0.60812 0.91427 0.0
C1247 C 0.89831 0.62815 0.86891 0.0
C1248 C 0.90534 0.63374 0.8423 0.0
C1249 C 0.87327 0.63725 0.8788 0.0
C1250 C 0.8657 0.63359 0.90715 0.0
C1251 C 0.88276 0.64528 0.92605 0.0
C1252 C 0.87578 0.64145 0.95275 0.0
C1253 C 0.85165 0.62619 0.9608 0.0
C1254 C 0.83442 0.61477 0.94215 0.0
C1255 C 0.84134 0.61848 0.91542 0.0
H1256 H 0.84627 0.62327 0.98148 0.0
H1257 H 0.91594 0.66307 0.7229 0.0
H1258 H 0.22266 0.33795 0.19232 0.0
H1259 H 0.1885 0.36579 0.16945 0.0
H1260 H 0.13174 0.29192 0.17708 0.0
H1261 H 0.16578 0.26387 0.19955 0.0
H1262 H 0.13172 0.31617 0.12871 0.0
H1263 H 0.125 0.34907 0.21559 0.0
H1264 H 0.14182 0.36885 0.2564 0.0
H1265 H 0.17036 0.44702 0.21353 0.0
H1266 H 0.15405 0.42754 0.17237 0.0
H1267 H 0.02421 0.39204 0.07686 0.0
H1268 H 0.04879 0.3664 0.11137 0.0
H1269 H 0.11142 0.43465 0.10755 0.0
H1270 H 0.087 0.46067 0.0735 0.0
H1271 H 0.10471 0.4116 0.15702 0.0
H1272 H 0.11602 0.37576 0.0698 0.0
H1273 H 0.09726 0.35708 0.02925 0.0
H1274 H 0.05919 0.28433 0.07369 0.0
H1275 H 0.07737 0.30285 0.11457 0.0
C1276 C 0.20291 0.32764 0.18913 0.0
C1277 C 0.19696 0.2987 0.19778 0.0
C1278 C 0.18334 0.34363 0.1762 0.0
C1279 C 0.15743 0.33104 0.17185 0.0
C1280 C 0.15155 0.3021 0.18028 0.0
C1281 C 0.17107 0.28611 0.19315 0.0
C1282 C 0.13667 0.34777 0.15789 0.0
C1283 C 0.12551 0.33681 0.13518 0.0
C1284 C 0.12877 0.37488 0.16612 0.0
C1285 C 0.13851 0.38673 0.19085 0.0
C1286 C 0.13505 0.37039 0.21482 0.0
C1287 C 0.14446 0.38156 0.23803 0.0
C1288 C 0.15721 0.40915 0.23755 0.0
C1289 C 0.16051 0.42564 0.21387 0.0
C1290 C 0.15116 0.41456 0.1906 0.0
C1291 C 0.04282 0.40201 0.08385 0.0
C1292 C 0.05395 0.42811 0.07196 0.0
C1293 C 0.05684 0.38728 0.10355 0.0
C1294 C 0.08219 0.39829 0.11157 0.0
C1295 C 0.09199 0.42562 0.10154 0.0
C1296 C 0.07801 0.44041 0.08193 0.0
C1297 C 0.10006 0.38008 0.12781 0.0
C1298 C 0.11075 0.3908 0.15082 0.0
C1299 C 0.10757 0.35271 0.11991 0.0
C1300 C 0.09788 0.34078 0.09522 0.0
C1301 C 0.10365 0.35577 0.0709 0.0
C1302 C 0.09307 0.34527 0.04788 0.0
C1303 C 0.07696 0.3196 0.04892 0.0
C1304 C 0.07162 0.30424 0.07294 0.0
C1305 C 0.08206 0.31472 0.09603 0.0
H1306 H 0.06865 0.31159 0.0311 0.0
H1307 H 0.16448 0.41776 0.25554 0.0
H1308 H 0.18168 0.74197 0.82766 0.0
H1309 H 0.1472 0.71348 0.85446 0.0
H1310 H 0.15588 0.64185 0.805 0.0
H1311 H 0.18976 0.67045 0.77776 0.0
H1312 H 0.10438 0.64613 0.81618 0.0
H1313 H 0.18516 0.64498 0.86789 0.0
H1314 H 0.22403 0.66601 0.89122 0.0
H1315 H 0.16941 0.70999 0.9402 0.0
H1316 H 0.13028 0.6897 0.91672 0.0
H1317 H 0.06429 0.52571 0.90405 0.0
H1318 H 0.08717 0.56301 0.87445 0.0
H1319 H 0.05584 0.62917 0.92117 0.0
H1320 H 0.03216 0.59176 0.95043 0.0
H1321 H 0.11432 0.63228 0.91249 0.0
H1322 H 0.03327 0.62763 0.86373 0.0
H1323 H 0.99504 0.60405 0.84143 0.0
H1324 H 0.05087 0.56879 0.7874 0.0
H1325 H 0.08951 0.59181 0.80965 0.0
C1326 C 0.17622 0.72016 0.82244 0.0
C1327 C 0.18867 0.70853 0.80055 0.0
C1328 C 0.15654 0.70379 0.8379 0.0
C1329 C 0.14905 0.67522 0.8321 0.0
C1330 C 0.16117 0.66377 0.81 0.0
C1331 C 0.18069 0.68017 0.79445 0.0
C1332 C 0.12885 0.65708 0.84904 0.0
C1333 C 0.10676 0.64296 0.8372 0.0
C1334 C 0.13127 0.6534 0.87667 0.0
C1335 C 0.15481 0.66597 0.89047 0.0
C1336 C 0.18147 0.65933 0.88349 0.0
C1337 C 0.20355 0.67112 0.89673 0.0
C1338 C 0.19921 0.68937 0.91715 0.0
C1339 C 0.17276 0.69588 0.92436 0.0
C1340 C 0.15063 0.68423 0.91111 0.0
C1341 C 0.06146 0.54823 0.90742 0.0
C1342 C 0.04595 0.55583 0.92918 0.0
C1343 C 0.07469 0.56954 0.89061 0.0
C1344 C 0.07325 0.59892 0.89555 0.0
C1345 C 0.05712 0.60666 0.91687 0.0
C1346 C 0.04329 0.5853 0.93336 0.0
C1347 C 0.09032 0.62104 0.87949 0.0
C1348 C 0.11182 0.6358 0.8915 0.0
C1349 C 0.08749 0.62512 0.85204 0.0
C1350 C 0.06433 0.61127 0.83851 0.0
C1351 C 0.03743 0.61464 0.84724 0.0
C1352 C 0.01567 0.60142 0.83457 0.0
C1353 C 0.02053 0.58488 0.81304 0.0
C1354 C 0.04715 0.58159 0.8041 0.0
C1355 C 0.06899 0.59476 0.81671 0.0
H1356 H 0.00366 0.57466 0.80325 0.0
H1357 H 0.21632 0.69844 0.92741 0.0
H1358 H 0.3357 0.23074 0.7874 0.0
H1359 H 0.37087 0.2051 0.81074 0.0
H1360 H 0.31475 0.1317 0.82639 0.0
H1361 H 0.27936 0.15717 0.80288 0.0
H1362 H 0.34213 0.14878 0.87069 0.0
H1363 H 0.36383 0.12751 0.7814 0.0
H1364 H 0.37475 0.1396 0.73459 0.0
H1365 H 0.44548 0.19015 0.7554 0.0
H1366 H 0.43492 0.1785 0.80237 0.0
H1367 H 0.42484 0.03921 0.91169 0.0
H1368 H 0.39912 0.06666 0.87971 0.0
H1369 H 0.45542 0.14001 0.88458 0.0
H1370 H 0.48117 0.11289 0.91752 0.0
H1371 H 0.43059 0.12622 0.83014 0.0
H1372 H 0.41025 0.14586 0.91944 0.0
H1373 H 0.39959 0.13374 0.96624 0.0
H1374 H 0.32517 0.08942 0.94595 0.0
H1375 H 0.33611 0.09983 0.89895 0.0
C1376 C 0.33081 0.20908 0.79569 0.0
C1377 C 0.30467 0.196 0.7933 0.0
C1378 C 0.35101 0.19443 0.80894 0.0
C1379 C 0.34548 0.16645 0.82017 0.0
C1380 C 0.31944 0.15329 0.81783 0.0
C1381 C 0.29926 0.16784 0.80435 0.0
C1382 C 0.36659 0.15129 0.83511 0.0
C1383 C 0.36134 0.14357 0.86175 0.0
C1384 C 0.39203 0.14541 0.82363 0.0
C1385 C 0.39844 0.15237 0.79541 0.0
C1386 C 0.38159 0.14139 0.77601 0.0
C1387 C 0.38773 0.14813 0.74944 0.0
C1388 C 0.4107 0.16575 0.74203 0.0
C1389 C 0.42766 0.17655 0.76117 0.0
C1390 C 0.42165 0.16984 0.78776 0.0
C1391 C 0.43232 0.06093 0.90558 0.0
C1392 C 0.45481 0.07405 0.91767 0.0
C1393 C 0.41751 0.07657 0.88724 0.0
C1394 C 0.42511 0.10545 0.88021 0.0
C1395 C 0.44921 0.11772 0.88993 0.0
C1396 C 0.46393 0.10216 0.9087 0.0
C1397 C 0.40586 0.12339 0.86553 0.0
C1398 C 0.41144 0.13161 0.83906 0.0
C1399 C 0.38073 0.12998 0.8772 0.0
C1400 C 0.37431 0.12315 0.90554 0.0
C1401 C 0.39194 0.1329 0.92488 0.0
C1402 C 0.38586 0.12631 0.95148 0.0
C1403 C 0.3619 0.11047 0.95906 0.0
C1404 C 0.34393 0.10131 0.94005 0.0
C1405 C 0.35013 0.10744 0.91341 0.0
H1406 H 0.35713 0.10557 0.97968 0.0
H1407 H 0.4154 0.17095 0.72146 0.0
H1408 H 0.79435 0.26818 0.89747 0.0
H1409 H 0.80298 0.29579 0.93645 0.0
H1410 H 0.87264 0.33951 0.89679 0.0
H1411 H 0.86467 0.31164 0.85826 0.0
H1412 H 0.86837 0.31718 0.96201 0.0
H1413 H 0.83338 0.40506 0.89067 0.0
H1414 H 0.79979 0.41101 0.85583 0.0
H1415 H 0.74552 0.34787 0.8967 0.0
H1416 H 0.77836 0.34234 0.93221 0.0
H1417 H 0.92425 0.46106 0.9389 0.0
H1418 H 0.88424 0.43018 0.93053 0.0
H1419 H 0.87435 0.40789 0.01352 0.0
H1420 H 0.91528 0.43773 0.02163 0.0
H1421 H 0.832 0.4138 0.94243 0.0
H1422 H 0.86753 0.33869 0.02162 0.0
H1423 H 0.90552 0.33389 0.05218 0.0
H1424 H 0.96145 0.37062 0.99236 0.0
H1425 H 0.92377 0.37553 0.96151 0.0
C1426 C 0.8121 0.28289 0.8975 0.0
C1427 C 0.82869 0.2881 0.87478 0.0
C1428 C 0.81686 0.29871 0.91967 0.0
C1429 C 0.83814 0.31988 0.91916 0.0
C1430 C 0.85602 0.32329 0.89738 0.0
C1431 C 0.8514 0.30748 0.87538 0.0
C1432 C 0.84022 0.3415 0.93921 0.0
C1433 C 0.8595 0.33799 0.9587 0.0
C1434 C 0.82888 0.36866 0.93449 0.0
C1435 C 0.80843 0.37308 0.91394 0.0
C1436 C 0.81416 0.39268 0.89234 0.0
C1437 C 0.79525 0.39599 0.87249 0.0
C1438 C 0.77057 0.37977 0.87403 0.0
C1439 C 0.76467 0.36036 0.8955 0.0
C1440 C 0.78339 0.35719 0.91552 0.0
C1441 C 0.91271 0.45068 0.95541 0.0
C1442 C 0.92278 0.45132 0.98079 0.0
C1443 C 0.88981 0.43303 0.95068 0.0
C1444 C 0.87682 0.41604 0.97136 0.0
C1445 C 0.88443 0.42035 0.99725 0.0
C1446 C 0.9077 0.43749 0.00189 0.0
C1447 C 0.86067 0.38973 0.96489 0.0
C1448 C 0.83927 0.39254 0.94741 0.0
C1449 C 0.86998 0.36185 0.97156 0.0
C1450 C 0.89291 0.3575 0.98939 0.0
C1451 C 0.88799 0.34548 0.01498 0.0
C1452 C 0.90942 0.34283 0.03235 0.0
C1453 C 0.93587 0.35194 0.02421 0.0
C1454 C 0.94097 0.36355 0.99863 0.0
C1455 C 0.91961 0.36623 0.9812 0.0
H1456 H 0.9524 0.35002 0.03773 0.0
H1457 H 0.75598 0.38234 0.85866 0.0
H1458 H 0.74178 0.81566 0.8171 0.0
H1459 H 0.7185 0.83559 0.85418 0.0
H1460 H 0.65951 0.76364 0.85721 0.0
H1461 H 0.68251 0.74363 0.81989 0.0
H1462 H 0.63604 0.81494 0.85484 0.0
H1463 H 0.70476 0.77068 0.90571 0.0
H1464 H 0.75147 0.75931 0.91747 0.0
H1465 H 0.771 0.8491 0.92774 0.0
H1466 H 0.7245 0.86108 0.91567 0.0
H1467 H 0.56381 0.85758 0.96426 0.0
H1468 H 0.59308 0.82882 0.93814 0.0
H1469 H 0.65335 0.89952 0.93106 0.0
H1470 H 0.6243 0.92851 0.95758 0.0
H1471 H 0.67636 0.84642 0.93749 0.0
H1472 H 0.61018 0.8913 0.88305 0.0
H1473 H 0.5641 0.90402 0.87022 0.0
H1474 H 0.54084 0.81414 0.86533 0.0
H1475 H 0.5867 0.80086 0.87851 0.0
C1476 C 0.72406 0.80385 0.82585 0.0
C1477 C 0.71383 0.7782 0.81543 0.0
C1478 C 0.7109 0.81518 0.84716 0.0
C1479 C 0.6874 0.80098 0.8585 0.0
C1480 C 0.67767 0.77486 0.84872 0.0
C1481 C 0.69083 0.76349 0.82741 0.0
C1482 C 0.67154 0.81485 0.87878 0.0
C1483 C 0.64469 0.82126 0.87317 0.0
C1484 C 0.6832 0.82394 0.90223 0.0
C1485 C 0.71118 0.8168 0.90957 0.0
C1486 C 0.71907 0.78804 0.91026 0.0
C1487 C 0.74551 0.78147 0.91703 0.0
C1488 C 0.76421 0.80347 0.9233 0.0
C1489 C 0.7565 0.83208 0.92287 0.0
C1490 C 0.73009 0.83877 0.91609 0.0
C1491 C 0.58338 0.867 0.95739 0.0
C1492 C 0.59154 0.89552 0.96267 0.0
C1493 C 0.60009 0.85048 0.9425 0.0
C1494 C 0.62512 0.86226 0.93236 0.0
C1495 C 0.63403 0.89012 0.9387 0.0
C1496 C 0.61736 0.90667 0.95376 0.0
C1497 C 0.64092 0.84627 0.91353 0.0
C1498 C 0.66771 0.8397 0.9193 0.0
C1499 C 0.62934 0.83716 0.89006 0.0
C1500 C 0.60177 0.84508 0.88205 0.0
C1501 C 0.59517 0.87424 0.87945 0.0
C1502 C 0.56911 0.88155 0.87208 0.0
C1503 C 0.54953 0.8599 0.86704 0.0
C1504 C 0.55601 0.83089 0.86929 0.0
C1505 C 0.58204 0.82346 0.87669 0.0
H1506 H 0.52937 0.8656 0.86132 0.0
H1507 H 0.78467 0.79835 0.92853 0.0
H1508 H 0.75506 0.70003 0.17474 0.0
H1509 H 0.78069 0.67898 0.13972 0.0
H1510 H 0.85081 0.73388 0.15535 0.0
H1511 H 0.82503 0.75579 0.1902 0.0
H1512 H 0.84337 0.72341 0.10045 0.0
H1513 H 0.84576 0.67062 0.18489 0.0
H1514 H 0.82427 0.6461 0.22467 0.0
H1515 H 0.78227 0.58531 0.17745 0.0
H1516 H 0.80326 0.60972 0.13736 0.0
H1517 H 0.94651 0.6374 0.05184 0.0
H1518 H 0.91767 0.66672 0.07796 0.0
H1519 H 0.85088 0.60396 0.07233 0.0
H1520 H 0.8797 0.5742 0.04649 0.0
H1521 H 0.85571 0.61914 0.12123 0.0
H1522 H 0.85175 0.66877 0.03757 0.0
H1523 H 0.86964 0.69296 0.99616 0.0
H1524 H 0.91092 0.75822 0.03912 0.0
H1525 H 0.89357 0.73417 0.08086 0.0
C1526 C 0.77579 0.70806 0.17044 0.0
C1527 C 0.78821 0.72926 0.18548 0.0
C1528 C 0.79036 0.69595 0.15045 0.0
C1529 C 0.81775 0.70437 0.14543 0.0
C1530 C 0.82969 0.72701 0.15906 0.0
C1531 C 0.81497 0.73946 0.17896 0.0
C1532 C 0.83447 0.68734 0.12809 0.0
C1533 C 0.84641 0.70071 0.10509 0.0
C1534 C 0.83768 0.65751 0.13386 0.0
C1535 C 0.82581 0.64224 0.15808 0.0
C1536 C 0.83182 0.65213 0.18297 0.0
C1537 C 0.81975 0.63823 0.20559 0.0
C1538 C 0.80185 0.61421 0.20359 0.0
C1539 C 0.79613 0.60392 0.17898 0.0
C1540 C 0.80814 0.61776 0.15631 0.0
C1541 C 0.92567 0.62982 0.05604 0.0
C1542 C 0.91548 0.60335 0.04708 0.0
C1543 C 0.90915 0.64673 0.07087 0.0
C1544 C 0.88203 0.63769 0.07688 0.0
C1545 C 0.87175 0.61137 0.0679 0.0
C1546 C 0.88827 0.59439 0.05311 0.0
C1547 C 0.86476 0.65513 0.09345 0.0
C1548 C 0.85272 0.64182 0.11645 0.0
C1549 C 0.86117 0.68486 0.08743 0.0
C1550 C 0.87157 0.6995 0.06238 0.0
C1551 C 0.86482 0.68815 0.03822 0.0
C1552 C 0.87484 0.70186 0.01467 0.0
C1553 C 0.89147 0.72707 0.01501 0.0
C1554 C 0.89806 0.73867 0.0389 0.0
C1555 C 0.88811 0.72502 0.06251 0.0
H1556 H 0.89921 0.73766 0.99676 0.0
H1557 H 0.79247 0.60353 0.22111 0.0
H1558 H 0.28435 0.80377 0.16166 0.0
H1559 H 0.32044 0.82966 0.13484 0.0
H1560 H 0.37226 0.83055 0.20185 0.0
H1561 H 0.33623 0.80504 0.22885 0.0
H1562 H 0.37604 0.88155 0.17649 0.0
H1563 H 0.3833 0.78549 0.15332 0.0
H1564 H 0.36837 0.7372 0.13987 0.0
H1565 H 0.34399 0.77406 0.0656 0.0
H1566 H 0.35808 0.82276 0.07886 0.0
H1567 H 0.48182 0.94165 0.08381 0.0
H1568 H 0.46017 0.90593 0.11647 0.0
H1569 H 0.3874 0.90337 0.07102 0.0
H1570 H 0.40828 0.93881 0.03918 0.0
H1571 H 0.40364 0.84775 0.08975 0.0
H1572 H 0.38927 0.94493 0.12043 0.0
H1573 H 0.40637 0.99203 0.13523 0.0
H1574 H 0.44938 0.94899 0.19706 0.0
H1575 H 0.43271 0.90161 0.18241 0.0
C1576 C 0.3034 0.80952 0.17071 0.0
C1577 C 0.30735 0.80226 0.19741 0.0
C1578 C 0.32412 0.82416 0.15531 0.0
C1579 C 0.34929 0.83174 0.16621 0.0
C1580 C 0.35312 0.82489 0.19295 0.0
C1581 C 0.33244 0.81024 0.20835 0.0
C1582 C 0.37132 0.84731 0.14975 0.0
C1583 C 0.38245 0.87378 0.15778 0.0
C1584 C 0.38006 0.83717 0.12542 0.0
C1585 C 0.37155 0.8079 0.11721 0.0
C1586 C 0.37451 0.78338 0.13421 0.0
C1587 C 0.36621 0.75591 0.12661 0.0
C1588 C 0.35521 0.75256 0.10191 0.0
C1589 C 0.35249 0.77669 0.08475 0.0
C1590 C 0.36061 0.80426 0.09231 0.0
C1591 C 0.46126 0.93333 0.08089 0.0
C1592 C 0.44659 0.9435 0.05921 0.0
C1593 C 0.44895 0.91294 0.09945 0.0
C1594 C 0.42211 0.90204 0.09615 0.0
C1595 C 0.40807 0.91139 0.07398 0.0
C1596 C 0.42002 0.93195 0.0559 0.0
C1597 C 0.40741 0.88226 0.11614 0.0
C1598 C 0.39762 0.85502 0.10876 0.0
C1599 C 0.40031 0.89136 0.14125 0.0
C1600 C 0.41001 0.9198 0.15017 0.0
C1601 C 0.40252 0.94554 0.13707 0.0
C1602 C 0.4121 0.97227 0.14545 0.0
C1603 C 0.42901 0.9735 0.16703 0.0
C1604 C 0.43631 0.948 0.18033 0.0
C1605 C 0.42679 0.92122 0.17201 0.0
H1606 H 0.43642 0.99422 0.17348 0.0
H1607 H 0.34883 0.73125 0.09606 0.0
H1608 H 0.75799 0.14993 0.13402 0.0
H1609 H 0.73963 0.11755 0.10167 0.0
H1610 H 0.66976 0.09615 0.15291 0.0
H1611 H 0.68931 0.12548 0.18593 0.0
H1612 H 0.67548 0.05395 0.12835 0.0
H1613 H 0.67643 0.15663 0.10063 0.0
H1614 H 0.69861 0.20426 0.08771 0.0
H1615 H 0.74244 0.16676 0.02547 0.0
H1616 H 0.72066 0.11884 0.03824 0.0
H1617 H 0.5694 0.09519 0.02762 0.0
H1618 H 0.612 0.10683 0.04847 0.0
H1619 H 0.63036 0.01665 0.05241 0.0
H1620 H 0.58667 0.00457 0.03343 0.0
H1621 H 0.66208 0.1054 0.04228 0.0
H1622 H 0.66431 0.00052 0.11007 0.0
H1623 H 0.63302 0.96224 0.13037 0.0
H1624 H 0.56644 0.01829 0.12256 0.0
H1625 H 0.59755 0.05728 0.10316 0.0
C1626 C 0.7392 0.13746 0.13867 0.0
C1627 C 0.72462 0.14104 0.16217 0.0
C1628 C 0.72852 0.11925 0.12001 0.0
C1629 C 0.70275 0.10515 0.12429 0.0
C1630 C 0.68953 0.10685 0.14877 0.0
C1631 C 0.70054 0.12414 0.1676 0.0
C1632 C 0.68773 0.09115 0.10301 0.0
C1633 C 0.67283 0.06506 0.10938 0.0
C1634 C 0.68409 0.10552 0.0782 0.0
C1635 C 0.69728 0.13418 0.07061 0.0
C1636 C 0.69093 0.15856 0.0843 0.0
C1637 C 0.7034 0.18558 0.077 0.0
C1638 C 0.72201 0.18851 0.05585 0.0
C1639 C 0.7281 0.16443 0.04191 0.0
C1640 C 0.71572 0.13734 0.04917 0.0
C1641 C 0.58248 0.07775 0.03277 0.0
C1642 C 0.57429 0.04884 0.0291 0.0
C1643 C 0.60708 0.08451 0.0445 0.0
C1644 C 0.62431 0.06259 0.05246 0.0
C1645 C 0.61718 0.03391 0.04698 0.0
C1646 C 0.59217 0.02704 0.03589 0.0
C1647 C 0.64807 0.06976 0.06877 0.0
C1648 C 0.66512 0.09399 0.06104 0.0
C1649 C 0.65214 0.05502 0.09332 0.0
C1650 C 0.63316 0.03154 0.10454 0.0
C1651 C 0.64298 0.00463 0.11262 0.0
C1652 C 0.62528 0.98285 0.12407 0.0
C1653 C 0.59768 0.98772 0.12745 0.0
C1654 C 0.58778 0.01449 0.11973 0.0
C1655 C 0.60546 0.03646 0.10856 0.0
H1656 H 0.58393 0.9708 0.1361 0.0
H1657 H 0.73163 0.20945 0.05021 0.0
H1658 H 0.66171 0.60049 0.77731 0.0
H1659 H 0.62105 0.57372 0.79386 0.0
H1660 H 0.57153 0.63191 0.74903 0.0
H1661 H 0.61261 0.65996 0.73359 0.0
H1662 H 0.55603 0.63292 0.79537 0.0
H1663 H 0.56356 0.55378 0.74533 0.0
H1664 H 0.58313 0.5156 0.72021 0.0
H1665 H 0.61366 0.47629 0.79099 0.0
H1666 H 0.59485 0.51449 0.81654 0.0
H1667 H 0.49635 0.55548 0.91747 0.0
H1668 H 0.49724 0.569 0.87023 0.0
H1669 H 0.58478 0.5692 0.86917 0.0
H1670 H 0.58424 0.55652 0.91601 0.0
H1671 H 0.55239 0.53123 0.8308 0.0
H1672 H 0.56284 0.63213 0.86682 0.0
H1673 H 0.54176 0.67052 0.89075 0.0
H1674 H 0.47155 0.66413 0.84256 0.0
H1675 H 0.49227 0.62564 0.81845 0.0
C1676 C 0.6422 0.60717 0.77045 0.0
C1677 C 0.6403 0.63272 0.75475 0.0
C1678 C 0.6188 0.59147 0.77953 0.0
C1679 C 0.59294 0.60064 0.77273 0.0
C1680 C 0.59117 0.62438 0.75463 0.0
C1681 C 0.6147 0.64035 0.74573 0.0
C1682 C 0.56903 0.5898 0.78929 0.0
C1683 C 0.5544 0.61037 0.80227 0.0
C1684 C 0.56581 0.5603 0.79808 0.0
C1685 C 0.57752 0.53708 0.78294 0.0
C1686 C 0.57455 0.53711 0.75558 0.0
C1687 C 0.58554 0.51543 0.74124 0.0
C1688 C 0.59957 0.49351 0.75401 0.0
C1689 C 0.60269 0.49324 0.78115 0.0
C1690 C 0.59176 0.51488 0.79559 0.0
C1691 C 0.5158 0.55917 0.90729 0.0
C1692 C 0.54026 0.55478 0.92049 0.0
C1693 C 0.51619 0.5665 0.88029 0.0
C1694 C 0.54103 0.56925 0.86631 0.0
C1695 C 0.56539 0.56652 0.87969 0.0
C1696 C 0.56505 0.5595 0.9065 0.0
C1697 C 0.54276 0.57488 0.83766 0.0
C1698 C 0.55284 0.55327 0.82251 0.0
C1699 C 0.54131 0.60312 0.82649 0.0
C1700 C 0.52898 0.62607 0.84099 0.0
C1701 C 0.54288 0.63892 0.86143 0.0
C1702 C 0.53103 0.66069 0.87497 0.0
C1703 C 0.50539 0.66984 0.8681 0.0
C1704 C 0.49148 0.65714 0.84776 0.0
C1705 C 0.50325 0.63535 0.83417 0.0
H1706 H 0.49625 0.68671 0.8786 0.0
H1707 H 0.60807 0.47677 0.74287 0.0
H1708 H 0.29671 0.72404 0.83379 0.0
H1709 H 0.33099 0.69907 0.85887 0.0
H1710 H 0.36602 0.67061 0.78697 0.0
H1711 H 0.33035 0.69382 0.76211 0.0
H1712 H 0.3693 0.63004 0.81838 0.0
H1713 H 0.3963 0.72716 0.82532 0.0
H1714 H 0.3945 0.77904 0.83301 0.0
H1715 H 0.37281 0.75862 0.91402 0.0
H1716 H 0.37403 0.70657 0.90676 0.0
H1717 H 0.47777 0.62345 0.9316 0.0
H1718 H 0.45603 0.64999 0.89585 0.0
H1719 H 0.3921 0.58321 0.89578 0.0
H1720 H 0.41374 0.55638 0.93116 0.0
H1721 H 0.41262 0.67484 0.89398 0.0
H1722 H 0.36289 0.57908 0.83608 0.0
H1723 H 0.37603 0.53188 0.82138 0.0
H1724 H 0.46018 0.55605 0.83157 0.0
H1725 H 0.44771 0.60381 0.84523 0.0
C1726 C 0.31173 0.71242 0.82338 0.0
C1727 C 0.31088 0.71086 0.79602 0.0
C1728 C 0.33157 0.69835 0.8377 0.0
C1729 C 0.35171 0.68335 0.82491 0.0
C1730 C 0.35083 0.68191 0.79747 0.0
C1731 C 0.33046 0.69525 0.78322 0.0
C1732 C 0.37296 0.66842 0.84031 0.0
C1733 C 0.37881 0.63993 0.83484 0.0
C1734 C 0.3867 0.68163 0.86102 0.0
C1735 C 0.38512 0.71291 0.86543 0.0
C1736 C 0.39089 0.7337 0.84472 0.0
C1737 C 0.39003 0.76315 0.84902 0.0
C1738 C 0.38364 0.77211 0.874 0.0
C1739 C 0.37787 0.75163 0.8947 0.0
C1740 C 0.37863 0.72215 0.8905 0.0
C1741 C 0.45934 0.61413 0.92367 0.0
C1742 C 0.44743 0.58784 0.93447 0.0
C1743 C 0.44692 0.62938 0.90318 0.0
C1744 C 0.42252 0.6186 0.89282 0.0
C1745 C 0.41115 0.59184 0.90298 0.0
C1746 C 0.42354 0.57654 0.9234 0.0
C1747 C 0.4078 0.63608 0.87281 0.0
C1748 C 0.40326 0.66506 0.87737 0.0
C1749 C 0.39668 0.62391 0.85031 0.0
C1750 C 0.40428 0.59505 0.842 0.0
C1751 C 0.38421 0.57446 0.83503 0.0
C1752 C 0.39156 0.54756 0.82686 0.0
C1753 C 0.41888 0.54085 0.82579 0.0
C1754 C 0.43898 0.56117 0.83257 0.0
C1755 C 0.43179 0.58821 0.84046 0.0
H1756 H 0.42448 0.51996 0.81959 0.0
H1757 H 0.38318 0.79492 0.87733 0.0
H1758 H 0.35302 0.38102 0.77004 0.0
H1759 H 0.37652 0.41189 0.80081 0.0
H1760 H 0.30405 0.40906 0.85004 0.0
H1761 H 0.28054 0.37878 0.81914 0.0
H1762 H 0.33534 0.4589 0.85602 0.0
H1763 H 0.34537 0.35569 0.85737 0.0
H1764 H 0.35622 0.31016 0.83758 0.0
H1765 H 0.43762 0.3438 0.81975 0.0
H1766 H 0.4271 0.38972 0.83912 0.0
H1767 H 0.43386 0.41162 0.9705 0.0
H1768 H 0.39963 0.40172 0.93769 0.0
H1769 H 0.41169 0.48935 0.90492 0.0
H1770 H 0.44412 0.49974 0.93877 0.0
H1771 H 0.40915 0.39918 0.88996 0.0
H1772 H 0.3613 0.50847 0.8643 0.0
H1773 H 0.34842 0.55195 0.88639 0.0
H1774 H 0.33707 0.50175 0.95932 0.0
H1775 H 0.34956 0.45794 0.93753 0.0
C1776 C 0.34178 0.38834 0.7867 0.0
C1777 C 0.31515 0.37753 0.79245 0.0
C1778 C 0.35521 0.40578 0.80435 0.0
C1779 C 0.34218 0.41216 0.828 0.0
C1780 C 0.31451 0.40435 0.83199 0.0
C1781 C 0.3011 0.38704 0.81435 0.0
C1782 C 0.35828 0.42127 0.85058 0.0
C1783 C 0.35164 0.44607 0.86343 0.0
C1784 C 0.37889 0.40393 0.86072 0.0
C1785 C 0.38538 0.37621 0.84943 0.0
C1786 C 0.36553 0.35342 0.84909 0.0
C1787 C 0.37161 0.32756 0.83796 0.0
C1788 C 0.39756 0.32412 0.82735 0.0
C1789 C 0.41751 0.34652 0.82793 0.0
C1790 C 0.41151 0.37246 0.83898 0.0
C1791 C 0.42833 0.42898 0.95689 0.0
C1792 C 0.44144 0.45644 0.95729 0.0
C1793 C 0.40898 0.42331 0.93799 0.0
C1794 C 0.40298 0.44474 0.91867 0.0
C1795 C 0.41528 0.47257 0.91985 0.0
C1796 C 0.43394 0.47849 0.93927 0.0
C1797 C 0.38639 0.43703 0.89581 0.0
C1798 C 0.39296 0.41231 0.88277 0.0
C1799 C 0.36528 0.4541 0.88607 0.0
C1800 C 0.3567 0.48002 0.89929 0.0
C1801 C 0.35596 0.50673 0.88501 0.0
C1802 C 0.34876 0.53142 0.89749 0.0
C1803 C 0.34209 0.52965 0.92428 0.0
C1804 C 0.34238 0.50312 0.93859 0.0
C1805 C 0.34953 0.47835 0.92617 0.0
H1806 H 0.33661 0.54882 0.93394 0.0
H1807 H 0.40223 0.30408 0.81873 0.0
H1808 H 0.67751 0.30753 0.76736 0.0
H1809 H 0.65385 0.34083 0.79442 0.0
H1810 H 0.73102 0.37778 0.81795 0.0
H1811 H 0.75458 0.34347 0.79211 0.0
H1812 H 0.70349 0.36327 0.85902 0.0
H1813 H 0.68371 0.41752 0.78164 0.0
H1814 H 0.66841 0.42913 0.73682 0.0
H1815 H 0.58741 0.39759 0.7591 0.0
H1816 H 0.60229 0.38532 0.80397 0.0
H1817 H 0.63313 0.4593 0.9398 0.0
H1818 H 0.6611 0.44214 0.90417 0.0
H1819 H 0.59536 0.38324 0.88429 0.0
H1820 H 0.56727 0.40008 0.91978 0.0
H1821 H 0.62036 0.41621 0.84039 0.0
H1822 H 0.64638 0.35583 0.91712 0.0
H1823 H 0.6633 0.34987 0.96218 0.0
H1824 H 0.73559 0.40126 0.93931 0.0
H1825 H 0.71886 0.40785 0.89423 0.0
C1826 C 0.68935 0.32335 0.77772 0.0
C1827 C 0.71781 0.32285 0.77784 0.0
C1828 C 0.67584 0.34246 0.79317 0.0
C1829 C 0.69062 0.36181 0.80844 0.0
C1830 C 0.71913 0.36283 0.80672 0.0
C1831 C 0.73259 0.34335 0.7918 0.0
C1832 C 0.6766 0.37801 0.82871 0.0
C1833 C 0.68567 0.37537 0.85465 0.0
C1834 C 0.65317 0.39368 0.82336 0.0
C1835 C 0.64422 0.4002 0.79616 0.0
C1836 C 0.66271 0.41271 0.77693 0.0
C1837 C 0.65409 0.41949 0.75151 0.0
C1838 C 0.62698 0.414 0.74509 0.0
C1839 C 0.60842 0.40176 0.76408 0.0
C1840 C 0.61694 0.3949 0.78952 0.0
C1841 C 0.62465 0.44259 0.92795 0.0
C1842 C 0.59797 0.431 0.93274 0.0
C1843 C 0.64065 0.43287 0.90758 0.0
C1844 C 0.63021 0.41151 0.89162 0.0
C1845 C 0.60368 0.39987 0.89634 0.0
C1846 C 0.58776 0.40938 0.91679 0.0
C1847 C 0.64704 0.40071 0.87024 0.0
C1848 C 0.63844 0.40439 0.84431 0.0
C1849 C 0.67125 0.3866 0.87541 0.0
C1850 C 0.68137 0.38236 0.90239 0.0
C1851 C 0.66583 0.36593 0.92177 0.0
C1852 C 0.67537 0.36246 0.94729 0.0
C1853 C 0.70049 0.3752 0.95361 0.0
C1854 C 0.71612 0.39144 0.93441 0.0
C1855 C 0.70663 0.39502 0.90887 0.0
H1856 H 0.70785 0.37248 0.97338 0.0
H1857 H 0.62033 0.41935 0.72542 0.0
H1858 H 0.68893 0.33888 0.23685 0.0
H1859 H 0.65856 0.36603 0.20831 0.0
H1860 H 0.6606 0.29944 0.15268 0.0
H1861 H 0.69082 0.27232 0.18086 0.0
H1862 H 0.67096 0.35207 0.12909 0.0
H1863 H 0.60527 0.30704 0.19113 0.0
H1864 H 0.58397 0.29491 0.23471 0.0
H1865 H 0.57198 0.38473 0.24478 0.0
H1866 H 0.59364 0.39748 0.20143 0.0
H1867 H 0.54009 0.39399 0.06494 0.0
H1868 H 0.56167 0.36938 0.10208 0.0
H1869 H 0.62375 0.43809 0.10155 0.0
H1870 H 0.60227 0.46302 0.0648 0.0
H1871 H 0.57954 0.38385 0.15368 0.0
H1872 H 0.68444 0.40375 0.10235 0.0
H1873 H 0.70413 0.41371 0.05771 0.0
H1874 H 0.63522 0.36952 0.02518 0.0
H1875 H 0.61534 0.35894 0.06962 0.0
C1876 C 0.68271 0.32991 0.21864 0.0
C1877 C 0.69243 0.30346 0.21112 0.0
C1878 C 0.66527 0.34542 0.2024 0.0
C1879 C 0.65725 0.33475 0.17836 0.0
C1880 C 0.66656 0.30814 0.17109 0.0
C1881 C 0.68383 0.29262 0.18729 0.0
C1882 C 0.6404 0.35183 0.15996 0.0
C1883 C 0.65103 0.35908 0.13459 0.0
C1884 C 0.61427 0.36089 0.16699 0.0
C1885 C 0.60147 0.35325 0.19317 0.0
C1886 C 0.59841 0.32425 0.20276 0.0
C1887 C 0.5862 0.31725 0.2274 0.0
C1888 C 0.57673 0.33904 0.24256 0.0
C1889 C 0.5794 0.36788 0.23306 0.0
C1890 C 0.59165 0.375 0.20846 0.0
C1891 C 0.55797 0.40422 0.07308 0.0
C1892 C 0.56959 0.43034 0.0616 0.0
C1893 C 0.57024 0.39014 0.09437 0.0
C1894 C 0.59452 0.40172 0.10428 0.0
C1895 C 0.60518 0.42864 0.09399 0.0
C1896 C 0.59286 0.44282 0.0729 0.0
C1897 C 0.61038 0.38431 0.12317 0.0
C1898 C 0.5996 0.37704 0.14845 0.0
C1899 C 0.63632 0.37497 0.11609 0.0
C1900 C 0.64828 0.38087 0.08929 0.0
C1901 C 0.67354 0.3961 0.08567 0.0
C1902 C 0.68473 0.40184 0.0604 0.0
C1903 C 0.67089 0.39234 0.03862 0.0
C1904 C 0.64587 0.37697 0.04206 0.0
C1905 C 0.63462 0.37113 0.06728 0.0
H1906 H 0.67958 0.39682 0.01908 0.0
H1907 H 0.56725 0.33357 0.26162 0.0
H1908 H 0.70745 0.59117 0.21834 0.0
H1909 H 0.69061 0.5581 0.18574 0.0
H1910 H 0.61404 0.59956 0.1854 0.0
H1911 H 0.63072 0.63214 0.21802 0.0
H1912 H 0.6072 0.54354 0.17213 0.0
H1913 H 0.66771 0.62925 0.14828 0.0
H1914 H 0.71134 0.65717 0.15147 0.0
H1915 H 0.75433 0.58526 0.12527 0.0
H1916 H 0.71093 0.55682 0.12225 0.0
H1917 H 0.56357 0.59988 0.05374 0.0
H1918 H 0.59414 0.59861 0.09053 0.0
H1919 H 0.62406 0.51804 0.06679 0.0
H1920 H 0.59317 0.51883 0.02981 0.0
H1921 H 0.66143 0.57614 0.09188 0.0
H1922 H 0.59435 0.49547 0.10556 0.0
H1923 H 0.54793 0.47419 0.10077 0.0
H1924 H 0.51557 0.5402 0.14636 0.0
H1925 H 0.56166 0.56245 0.15059 0.0
C1926 C 0.68654 0.59205 0.21232 0.0
C1927 C 0.67033 0.61413 0.22046 0.0
C1928 C 0.677 0.57333 0.19359 0.0
C1929 C 0.65129 0.57681 0.18274 0.0
C1930 C 0.63394 0.59648 0.19344 0.0
C1931 C 0.64345 0.61512 0.21207 0.0
C1932 C 0.64442 0.5652 0.15707 0.0
C1933 C 0.61939 0.54995 0.15464 0.0
C1934 C 0.66029 0.57356 0.13417 0.0
C1935 C 0.68621 0.59088 0.13526 0.0
C1936 C 0.6865 0.61942 0.14324 0.0
C1937 C 0.71115 0.63531 0.14505 0.0
C1938 C 0.73555 0.62295 0.13861 0.0
C1939 C 0.73538 0.59475 0.13027 0.0
C1940 C 0.71079 0.57875 0.12851 0.0
C1941 C 0.57717 0.58227 0.0557 0.0
C1942 C 0.57534 0.55903 0.03914 0.0
C1943 C 0.59458 0.58156 0.07686 0.0
C1944 C 0.61076 0.55791 0.08159 0.0
C1945 C 0.61136 0.53626 0.06355 0.0
C1946 C 0.59368 0.53678 0.04244 0.0
C1947 C 0.62421 0.55483 0.10706 0.0
C1948 C 0.65012 0.56796 0.10943 0.0
C1949 C 0.60907 0.54465 0.12985 0.0
C1950 C 0.58142 0.53081 0.12807 0.0
C1951 C 0.57728 0.50566 0.11422 0.0
C1952 C 0.55104 0.49348 0.11155 0.0
C1953 C 0.52883 0.50597 0.1231 0.0
C1954 C 0.5328 0.53064 0.13733 0.0
C1955 C 0.55897 0.54307 0.13982 0.0
H1956 H 0.50858 0.4964 0.12126 0.0
H1957 H 0.75458 0.63523 0.14003 0.0
H1958 H 0.25415 0.66962 0.19406 0.0
H1959 H 0.28116 0.64263 0.16411 0.0
H1960 H 0.35328 0.66387 0.20687 0.0
H1961 H 0.32634 0.69106 0.23702 0.0
H1962 H 0.35572 0.68133 0.15274 0.0
H1963 H 0.33007 0.59469 0.20755 0.0
H1964 H 0.29636 0.56074 0.23056 0.0
H1965 H 0.25764 0.54571 0.15764 0.0
H1966 H 0.291 0.57975 0.13423 0.0
H1967 H 0.45118 0.60942 0.08026 0.0
H1968 H 0.42199 0.62817 0.11375 0.0
H1969 H 0.35185 0.58616 0.08023 0.0
H1970 H 0.38134 0.56608 0.04731 0.0
H1971 H 0.34646 0.57902 0.12937 0.0
H1972 H 0.36637 0.66239 0.07361 0.0
H1973 H 0.393 0.70015 0.04702 0.0
H1974 H 0.43435 0.72606 0.11574 0.0
H1975 H 0.40821 0.68821 0.1427 0.0
C1976 C 0.27563 0.66782 0.1976 0.0
C1977 C 0.28818 0.68256 0.21782 0.0
C1978 C 0.29101 0.65235 0.18046 0.0
C1979 C 0.31918 0.65134 0.18327 0.0
C1980 C 0.33151 0.66443 0.20445 0.0
C1981 C 0.31608 0.67975 0.22177 0.0
C1982 C 0.33606 0.63961 0.16241 0.0
C1983 C 0.3542 0.65882 0.14792 0.0
C1984 C 0.33265 0.61073 0.15516 0.0
C1985 C 0.31296 0.58983 0.16918 0.0
C1986 C 0.31431 0.58422 0.19645 0.0
C1987 C 0.29528 0.56494 0.20956 0.0
C1988 C 0.27486 0.55108 0.19558 0.0
C1989 C 0.27349 0.55641 0.16844 0.0
C1990 C 0.2925 0.57562 0.15524 0.0
C1991 C 0.42951 0.60433 0.07987 0.0
C1992 C 0.41854 0.58639 0.06104 0.0
C1993 C 0.41278 0.61521 0.09899 0.0
C1994 C 0.38457 0.6091 0.0993 0.0
C1995 C 0.37353 0.59125 0.08043 0.0
C1996 C 0.39038 0.57984 0.06157 0.0
C1997 C 0.36688 0.62061 0.11989 0.0
C1998 C 0.34833 0.6015 0.13419 0.0
C1999 C 0.36916 0.64994 0.12638 0.0
C2000 C 0.38553 0.67222 0.11013 0.0
C2001 C 0.38137 0.67591 0.083 0.0
C2002 C 0.39633 0.69738 0.06787 0.0
C2003 C 0.41543 0.71542 0.07966 0.0
C2004 C 0.41962 0.712 0.10661 0.0
C2005 C 0.40473 0.69055 0.12183 0.0
H2006 H 0.42691 0.73211 0.06793 0.0
H2007 H 0.26012 0.53621 0.20577 0.0
H2008 H 0.35336 0.39093 0.21272 0.0
H2009 H 0.3965 0.40925 0.19231 0.0
H2010 H 0.43524 0.33336 0.22237 0.0
H2011 H 0.39206 0.31498 0.2431 0.0
H2012 H 0.46677 0.40337 0.20726 0.0
H2013 H 0.42749 0.31072 0.1756 0.0
H2014 H 0.38698 0.27813 0.17084 0.0
H2015 H 0.34679 0.34661 0.12992 0.0
H2016 H 0.38698 0.37963 0.13472 0.0
H2017 H 0.49572 0.41993 0.0534 0.0
H2018 H 0.49376 0.38919 0.09426 0.0
H2019 H 0.45619 0.45701 0.13436 0.0
H2020 H 0.45779 0.4874 0.0936 0.0
H2021 H 0.44219 0.37447 0.11821 0.0
H2022 H 0.48107 0.45528 0.19622 0.0
H2023 H 0.52168 0.48712 0.20242 0.0
H2024 H 0.56792 0.43838 0.14975 0.0
H2025 H 0.5277 0.40617 0.14325 0.0
C2026 C 0.37138 0.37886 0.21603 0.0
C2027 C 0.36943 0.35143 0.22906 0.0
C2028 C 0.39604 0.38942 0.2046 0.0
C2029 C 0.41887 0.3725 0.20578 0.0
C2030 C 0.41785 0.34678 0.22154 0.0
C2031 C 0.39315 0.33628 0.23323 0.0
C2032 C 0.4396 0.3775 0.18465 0.0
C2033 C 0.46201 0.39664 0.18781 0.0
C2034 C 0.43379 0.36769 0.15956 0.0
C2035 C 0.41017 0.34756 0.15551 0.0
C2036 C 0.41001 0.31876 0.16556 0.0
C2037 C 0.38711 0.30024 0.1629 0.0
C2038 C 0.36433 0.31029 0.15007 0.0
C2039 C 0.36446 0.33884 0.1398 0.0
C2040 C 0.3873 0.35744 0.14244 0.0
C2041 C 0.48768 0.42837 0.07115 0.0
C2042 C 0.4769 0.45584 0.07059 0.0
C2043 C 0.48665 0.41092 0.09438 0.0
C2044 C 0.4754 0.42113 0.11736 0.0
C2045 C 0.46551 0.44902 0.11693 0.0
C2046 C 0.466 0.46614 0.09364 0.0
C2047 C 0.46887 0.40144 0.14047 0.0
C2048 C 0.44845 0.37988 0.13768 0.0
C2049 C 0.47721 0.40839 0.16579 0.0
C2050 C 0.50127 0.42825 0.16929 0.0
C2051 C 0.49991 0.45122 0.18606 0.0
C2052 C 0.52289 0.46936 0.1896 0.0
C2053 C 0.5474 0.46464 0.17663 0.0
C2054 C 0.54896 0.4419 0.1599 0.0
C2055 C 0.52602 0.42383 0.15614 0.0
H2056 H 0.56514 0.47874 0.17936 0.0
H2057 H 0.34659 0.29597 0.1481 0.0
H2058 H 0.81928 0.74954 0.6793 0.0
H2059 H 0.84681 0.72575 0.64756 0.0
H2060 H 0.78068 0.66326 0.63732 0.0
H2061 H 0.75331 0.68631 0.67001 0.0
H2062 H 0.82583 0.6372 0.64637 0.0
H2063 H 0.80183 0.71708 0.58811 0.0
H2064 H 0.79721 0.76878 0.57599 0.0
H2065 H 0.88325 0.78458 0.58305 0.0
H2066 H 0.88835 0.73302 0.59544 0.0
H2067 H 0.88735 0.56783 0.54276 0.0
H2068 H 0.85678 0.59631 0.56785 0.0
H2069 H 0.9232 0.65689 0.58231 0.0
H2070 H 0.95397 0.62878 0.55692 0.0
H2071 H 0.8775 0.68444 0.56993 0.0
H2072 H 0.90235 0.60744 0.62934 0.0
H2073 H 0.90887 0.55685 0.64423 0.0
H2074 H 0.82335 0.53684 0.63793 0.0
H2075 H 0.81637 0.58726 0.62262 0.0
C2076 C 0.81037 0.73106 0.66994 0.0
C2077 C 0.78415 0.7197 0.6772 0.0
C2078 C 0.82612 0.71755 0.65168 0.0
C2079 C 0.81572 0.69287 0.63987 0.0
C2080 C 0.78909 0.68227 0.64623 0.0
C2081 C 0.77345 0.69551 0.66481 0.0
C2082 C 0.83337 0.67674 0.62262 0.0
C2083 C 0.83666 0.6474 0.62931 0.0
C2084 C 0.84837 0.69036 0.60103 0.0
C2085 C 0.84544 0.72121 0.59281 0.0
C2086 C 0.81975 0.7316 0.58712 0.0
C2087 C 0.81705 0.76087 0.58021 0.0
C2088 C 0.83992 0.77995 0.57877 0.0
C2089 C 0.86556 0.76976 0.58411 0.0
C2090 C 0.86838 0.74051 0.59103 0.0
C2091 C 0.89552 0.58721 0.55123 0.0
C2092 C 0.92319 0.59589 0.54797 0.0
C2093 C 0.878 0.60344 0.56559 0.0
C2094 C 0.88781 0.62852 0.57713 0.0
C2095 C 0.91526 0.63758 0.57354 0.0
C2096 C 0.93282 0.62139 0.55913 0.0
C2097 C 0.86952 0.64487 0.59349 0.0
C2098 C 0.86633 0.67422 0.58677 0.0
C2099 C 0.8548 0.63138 0.61527 0.0
C2100 C 0.85889 0.60105 0.62455 0.0
C2101 C 0.88497 0.5922 0.63091 0.0
C2102 C 0.88874 0.56357 0.63946 0.0
C2103 C 0.86655 0.54362 0.64194 0.0
C2104 C 0.84053 0.5523 0.63595 0.0
C2105 C 0.83665 0.58091 0.62735 0.0
H2106 H 0.86952 0.52146 0.64856 0.0
H2107 H 0.83777 0.80263 0.57351 0.0
H2108 H 0.32249 0.83123 0.73708 0.0
H2109 H 0.35689 0.86072 0.71134 0.0
H2110 H 0.34704 0.80501 0.64696 0.0
H2111 H 0.31287 0.77488 0.67293 0.0
H2112 H 0.40086 0.8241 0.65073 0.0
H2113 H 0.31317 0.86643 0.64811 0.0
H2114 H 0.27158 0.88508 0.66733 0.0
H2115 H 0.3197 0.94845 0.7065 0.0
H2116 H 0.36161 0.92988 0.68778 0.0
H2117 H 0.40088 0.95805 0.55371 0.0
H2118 H 0.38113 0.92399 0.58677 0.0
H2119 H 0.46051 0.91022 0.61793 0.0
H2120 H 0.48107 0.94418 0.58328 0.0
H2121 H 0.37692 0.9262 0.63578 0.0
H2122 H 0.45671 0.84307 0.65283 0.0
H2123 H 0.49708 0.82539 0.63037 0.0
H2124 H 0.46143 0.84338 0.55558 0.0
H2125 H 0.42077 0.86085 0.5776 0.0
C2126 C 0.32775 0.82502 0.71753 0.0
C2127 C 0.31455 0.80084 0.70698 0.0
C2128 C 0.34755 0.84192 0.70282 0.0
C2129 C 0.35444 0.83538 0.67702 0.0
C2130 C 0.34218 0.81053 0.66681 0.0
C2131 C 0.32246 0.79342 0.68163 0.0
C2132 C 0.37223 0.85601 0.65996 0.0
C2133 C 0.39568 0.84645 0.64749 0.0
C2134 C 0.36568 0.88525 0.65564 0.0
C2135 C 0.34051 0.89656 0.6668 0.0
C2136 C 0.31488 0.88421 0.66097 0.0
C2137 C 0.29125 0.89478 0.67176 0.0
C2138 C 0.293 0.91788 0.68819 0.0
C2139 C 0.31838 0.93052 0.69381 0.0
C2140 C 0.34207 0.91999 0.68312 0.0
C2141 C 0.41444 0.94802 0.56752 0.0
C2142 C 0.4427 0.95427 0.56585 0.0
C2143 C 0.40294 0.92838 0.5866 0.0
C2144 C 0.41908 0.91447 0.60517 0.0
C2145 C 0.44749 0.92043 0.60375 0.0
C2146 C 0.45925 0.93996 0.58403 0.0
C2147 C 0.40522 0.89428 0.62573 0.0
C2148 C 0.38244 0.90396 0.63914 0.0
C2149 C 0.41213 0.86514 0.63031 0.0
C2150 C 0.43584 0.85346 0.61687 0.0
C2151 C 0.45743 0.84304 0.6316 0.0
C2152 C 0.48037 0.83311 0.61895 0.0
C2153 C 0.48184 0.83333 0.59157 0.0
C2154 C 0.46029 0.84327 0.57679 0.0
C2155 C 0.4373 0.85318 0.58934 0.0
H2156 H 0.49968 0.82581 0.58182 0.0
H2157 H 0.27469 0.92604 0.69652 0.0
H2158 H 0.20868 0.33424 0.70963 0.0
H2159 H 0.17382 0.35879 0.68466 0.0
H2160 H 0.12259 0.28056 0.68995 0.0
H2161 H 0.15741 0.2558 0.71443 0.0
H2162 H 0.12486 0.30244 0.64137 0.0
H2163 H 0.10588 0.34021 0.72497 0.0
H2164 H 0.11611 0.36378 0.76601 0.0
H2165 H 0.14719 0.44005 0.72175 0.0
H2166 H 0.1369 0.41701 0.68042 0.0
H2167 H 0.02305 0.37587 0.57115 0.0
H2168 H 0.04318 0.34914 0.6081 0.0
H2169 H 0.10394 0.41831 0.61385 0.0
H2170 H 0.08363 0.44549 0.57808 0.0
H2171 H 0.08998 0.39757 0.66121 0.0
H2172 H 0.11487 0.35761 0.57831 0.0
H2173 H 0.10492 0.33472 0.53684 0.0
H2174 H 0.06398 0.26259 0.5798 0.0
H2175 H 0.07343 0.28527 0.62151 0.0
C2176 C 0.18992 0.32233 0.70562 0.0
C2177 C 0.18593 0.29302 0.71394 0.0
C2178 C 0.1699 0.33644 0.6915 0.0
C2179 C 0.1454 0.32161 0.68561 0.0
C2180 C 0.14126 0.29248 0.69425 0.0
C2181 C 0.16124 0.27836 0.70828 0.0
C2182 C 0.12485 0.33589 0.66907 0.0
C2183 C 0.11681 0.32296 0.64603 0.0
C2184 C 0.11456 0.36285 0.67485 0.0
C2185 C 0.12083 0.37678 0.69962 0.0
C2186 C 0.11504 0.36194 0.724 0.0
C2187 C 0.12079 0.37523 0.74731 0.0
C2188 C 0.13247 0.40331 0.7465 0.0
C2189 C 0.1382 0.41827 0.72236 0.0
C2190 C 0.13229 0.40516 0.69898 0.0
C2191 C 0.04025 0.38571 0.58077 0.0
C2192 C 0.0519 0.41267 0.57136 0.0
C2193 C 0.05184 0.37034 0.6018 0.0
C2194 C 0.07525 0.38167 0.61367 0.0
C2195 C 0.08575 0.40929 0.60529 0.0
C2196 C 0.07416 0.4247 0.58457 0.0
C2197 C 0.09049 0.36437 0.63331 0.0
C2198 C 0.09761 0.37676 0.65688 0.0
C2199 C 0.10008 0.33696 0.62797 0.0
C2200 C 0.09459 0.32326 0.60296 0.0
C2201 C 0.10361 0.33695 0.57888 0.0
C2202 C 0.09808 0.32401 0.55535 0.0
C2203 C 0.08376 0.29725 0.55569 0.0
C2204 C 0.07502 0.28334 0.57957 0.0
C2205 C 0.08046 0.29622 0.60315 0.0
H2206 H 0.07949 0.28727 0.53745 0.0
H2207 H 0.13701 0.4135 0.76458 0.0
H2208 H 0.7198 0.21738 0.61585 0.0
H2209 H 0.70598 0.18498 0.58131 0.0
H2210 H 0.63342 0.15803 0.62663 0.0
H2211 H 0.6468 0.19041 0.6607 0.0
H2212 H 0.67248 0.11292 0.61334 0.0
H2213 H 0.62547 0.1968 0.57712 0.0
H2214 H 0.62345 0.24558 0.55582 0.0
H2215 H 0.67237 0.22039 0.49109 0.0
H2216 H 0.67513 0.17157 0.51229 0.0
H2217 H 0.55502 0.05199 0.5691 0.0
H2218 H 0.59629 0.07449 0.58588 0.0
H2219 H 0.63219 0.08119 0.50777 0.0
H2220 H 0.58962 0.06033 0.49059 0.0
H2221 H 0.63055 0.13264 0.52724 0.0
H2222 H 0.66471 0.04487 0.55746 0.0
H2223 H 0.66397 0.99519 0.57726 0.0
H2224 H 0.63934 0.02568 0.65162 0.0
H2225 H 0.63943 0.07546 0.63223 0.0
C2226 C 0.70044 0.20529 0.61786 0.0
C2227 C 0.68439 0.20613 0.64091 0.0
C2228 C 0.69274 0.18668 0.59832 0.0
C2229 C 0.66898 0.16889 0.60179 0.0
C2230 C 0.652 0.17143 0.62384 0.0
C2231 C 0.65956 0.18999 0.64317 0.0
C2232 C 0.66242 0.14562 0.5841 0.0
C2233 C 0.6635 0.11702 0.59437 0.0
C2234 C 0.65213 0.15114 0.55884 0.0
C2235 C 0.65108 0.18075 0.54661 0.0
C2236 C 0.63625 0.20181 0.55861 0.0
C2237 C 0.63485 0.22943 0.54648 0.0
C2238 C 0.64793 0.23615 0.5222 0.0
C2239 C 0.66238 0.21522 0.50997 0.0
C2240 C 0.66391 0.1876 0.52205 0.0
C2241 C 0.57205 0.05754 0.55569 0.0
C2242 C 0.56945 0.0547 0.52873 0.0
C2243 C 0.59574 0.07016 0.56525 0.0
C2244 C 0.61731 0.0797 0.54798 0.0
C2245 C 0.61556 0.0744 0.52124 0.0
C2246 C 0.5915 0.06232 0.51153 0.0
C2247 C 0.63862 0.09992 0.55737 0.0
C2248 C 0.6406 0.12806 0.5456 0.0
C2249 C 0.65179 0.09394 0.58124 0.0
C2250 C 0.65215 0.06404 0.59332 0.0
C2251 C 0.65905 0.04101 0.57802 0.0
C2252 C 0.65872 0.0128 0.58918 0.0
C2253 C 0.65163 0.00728 0.61568 0.0
C2254 C 0.6449 0.02999 0.6311 0.0
C2255 C 0.64516 0.05825 0.62004 0.0
H2256 H 0.65134 0.98542 0.62427 0.0
H2257 H 0.64675 0.25751 0.5128 0.0
H2258 H 0.74235 0.35894 0.37507 0.0
H2259 H 0.75905 0.39187 0.40774 0.0
H2260 H 0.82594 0.42057 0.35508 0.0
H2261 H 0.80823 0.38987 0.32211 0.0
H2262 H 0.79989 0.38804 0.43375 0.0
H2263 H 0.8572 0.47828 0.36391 0.0
H2264 H 0.84597 0.51207 0.32723 0.0
H2265 H 0.76132 0.50157 0.34917 0.0
H2266 H 0.77212 0.46824 0.38633 0.0
H2267 H 0.93239 0.40635 0.46507 0.0
H2268 H 0.88654 0.39971 0.44947 0.0
H2269 H 0.87559 0.49126 0.45257 0.0
H2270 H 0.92235 0.49834 0.46605 0.0
H2271 H 0.85596 0.478 0.41188 0.0
H2272 H 0.83763 0.4377 0.49491 0.0
H2273 H 0.84277 0.4101 0.537 0.0
H2274 H 0.83796 0.33066 0.49762 0.0
H2275 H 0.83323 0.35772 0.45521 0.0
C2276 C 0.76 0.37317 0.37018 0.0
C2277 C 0.77429 0.37143 0.34621 0.0
C2278 C 0.76966 0.39185 0.38894 0.0
C2279 C 0.79376 0.40898 0.38403 0.0
C2280 C 0.80694 0.40838 0.35938 0.0
C2281 C 0.79709 0.39023 0.34061 0.0
C2282 C 0.8079 0.4238 0.40539 0.0
C2283 C 0.81178 0.408 0.42919 0.0
C2284 C 0.82213 0.45086 0.40054 0.0
C2285 C 0.81555 0.47088 0.37807 0.0
C2286 C 0.83625 0.4835 0.36115 0.0
C2287 C 0.82994 0.50248 0.3402 0.0
C2288 C 0.80295 0.509 0.3359 0.0
C2289 C 0.78222 0.4965 0.35252 0.0
C2290 C 0.78843 0.47753 0.37352 0.0
C2291 C 0.92023 0.42511 0.46269 0.0
C2292 C 0.93115 0.45288 0.46718 0.0
C2293 C 0.8937 0.42122 0.45411 0.0
C2294 C 0.87708 0.44485 0.45051 0.0
C2295 C 0.88777 0.47258 0.45542 0.0
C2296 C 0.91459 0.47658 0.46338 0.0
C2297 C 0.8499 0.44062 0.43873 0.0
C2298 C 0.84345 0.45859 0.41695 0.0
C2299 C 0.8322 0.41653 0.44633 0.0
C2300 C 0.83504 0.39984 0.47179 0.0
C2301 C 0.8378 0.41435 0.49517 0.0
C2302 C 0.84064 0.39879 0.51911 0.0
C2303 C 0.84068 0.36865 0.51998 0.0
C2304 C 0.83787 0.35401 0.49691 0.0
C2305 C 0.83503 0.36946 0.47291 0.0
H2306 H 0.84288 0.35665 0.53854 0.0
H2307 H 0.7981 0.5237 0.31967 0.0
H2308 H 0.73638 0.79603 0.33353 0.0
H2309 H 0.71043 0.81904 0.36689 0.0
H2310 H 0.64237 0.75901 0.35672 0.0
H2311 H 0.6683 0.73596 0.32266 0.0
H2312 H 0.6274 0.81378 0.3531 0.0
H2313 H 0.67808 0.75771 0.41405 0.0
H2314 H 0.71911 0.7375 0.43309 0.0
H2315 H 0.75091 0.82297 0.44688 0.0
H2316 H 0.71024 0.84375 0.42758 0.0
H2317 H 0.54859 0.86825 0.45417 0.0
H2318 H 0.57583 0.83642 0.42933 0.0
H2319 H 0.64493 0.89675 0.43173 0.0
H2320 H 0.61772 0.92904 0.45693 0.0
H2321 H 0.65838 0.8392 0.44116 0.0
H2322 H 0.60994 0.89518 0.3775 0.0
H2323 H 0.56959 0.91607 0.35767 0.0
H2324 H 0.53438 0.8309 0.34836 0.0
H2325 H 0.57438 0.80949 0.3685 0.0
C2326 C 0.71605 0.7873 0.33868 0.0
C2327 C 0.70431 0.76424 0.32533 0.0
C2328 C 0.70128 0.80042 0.35793 0.0
C2329 C 0.67448 0.7907 0.36445 0.0
C2330 C 0.66306 0.76683 0.35201 0.0
C2331 C 0.67792 0.75357 0.33269 0.0
C2332 C 0.65779 0.80736 0.38229 0.0
C2333 C 0.63388 0.81876 0.37259 0.0
C2334 C 0.66672 0.81473 0.40737 0.0
C2335 C 0.69116 0.8023 0.41918 0.0
C2336 C 0.6939 0.77222 0.42097 0.0
C2337 C 0.71709 0.76066 0.43184 0.0
C2338 C 0.73763 0.77894 0.44114 0.0
C2339 C 0.73499 0.80883 0.43966 0.0
C2340 C 0.71185 0.82051 0.42879 0.0
C2341 C 0.56959 0.8749 0.44955 0.0
C2342 C 0.58086 0.90144 0.45743 0.0
C2343 C 0.58513 0.85659 0.43528 0.0
C2344 C 0.6123 0.86435 0.42844 0.0
C2345 C 0.62395 0.8904 0.43679 0.0
C2346 C 0.60834 0.90888 0.45109 0.0
C2347 C 0.62811 0.8455 0.41189 0.0
C2348 C 0.65183 0.83386 0.42178 0.0
C2349 C 0.61909 0.83794 0.38692 0.0
C2350 C 0.59502 0.85074 0.37477 0.0
C2351 C 0.59348 0.88091 0.37144 0.0
C2352 C 0.5707 0.89284 0.3601 0.0
C2353 C 0.5494 0.87483 0.35183 0.0
C2354 C 0.55088 0.84483 0.35482 0.0
C2355 C 0.57361 0.83278 0.36618 0.0
H2356 H 0.53178 0.88411 0.34304 0.0
H2357 H 0.75557 0.76995 0.44954 0.0
H2358 H 0.15505 0.71074 0.26918 0.0
H2359 H 0.12242 0.68008 0.29657 0.0
H2360 H 0.18658 0.65706 0.34866 0.0
H2361 H 0.21913 0.68801 0.32181 0.0
H2362 H 0.15345 0.60908 0.3307 0.0
H2363 H 0.14505 0.70192 0.36868 0.0
H2364 H 0.13596 0.75378 0.3668 0.0
H2365 H 0.05548 0.73464 0.33984 0.0
H2366 H 0.06423 0.68264 0.34123 0.0
H2367 H 0.10388 0.54592 0.44714 0.0
H2368 H 0.12386 0.57969 0.41365 0.0
H2369 H 0.04442 0.59527 0.38363 0.0
H2370 H 0.02372 0.56122 0.41821 0.0
H2371 H 0.07825 0.64597 0.38369 0.0
H2372 H 0.08431 0.5526 0.35083 0.0
H2373 H 0.09316 0.50068 0.35262 0.0
H2374 H 0.17717 0.52031 0.36798 0.0
H2375 H 0.16876 0.57233 0.36669 0.0
C2376 C 0.16218 0.69923 0.28653 0.0
C2377 C 0.18973 0.70179 0.29328 0.0
C2378 C 0.14349 0.68179 0.30218 0.0
C2379 C 0.15208 0.66629 0.32464 0.0
C2380 C 0.17953 0.6688 0.33139 0.0
C2381 C 0.1981 0.68658 0.31604 0.0
C2382 C 0.13278 0.64682 0.34093 0.0
C2383 C 0.13705 0.61714 0.34233 0.0
C2384 C 0.11075 0.65723 0.35532 0.0
C2385 C 0.10541 0.68843 0.35473 0.0
C2386 C 0.12551 0.70878 0.36211 0.0
C2387 C 0.12041 0.7382 0.36118 0.0
C2388 C 0.09521 0.74751 0.35309 0.0
C2389 C 0.07502 0.7274 0.34603 0.0
C2390 C 0.08003 0.69795 0.34691 0.0
C2391 C 0.09041 0.55629 0.43346 0.0
C2392 C 0.06212 0.55026 0.43509 0.0
C2393 C 0.10199 0.57574 0.41423 0.0
C2394 C 0.08581 0.58951 0.39562 0.0
C2395 C 0.05737 0.58463 0.39763 0.0
C2396 C 0.04557 0.56514 0.4173 0.0
C2397 C 0.09945 0.60824 0.37407 0.0
C2398 C 0.09423 0.63777 0.37162 0.0
C2399 C 0.12054 0.59769 0.35842 0.0
C2400 C 0.12586 0.5664 0.35875 0.0
C2401 C 0.10465 0.54585 0.35471 0.0
C2402 C 0.10959 0.51639 0.35563 0.0
C2403 C 0.1357 0.5072 0.36043 0.0
C2404 C 0.15695 0.52746 0.36425 0.0
C2405 C 0.15212 0.55695 0.36337 0.0
H2406 H 0.13948 0.48439 0.36118 0.0
H2407 H 0.0913 0.7703 0.35238 0.0
H2408 H 0.28691 0.15608 0.27987 0.0
H2409 H 0.32018 0.12899 0.30473 0.0
H2410 H 0.36828 0.20787 0.31368 0.0
H2411 H 0.33561 0.2349 0.28824 0.0
H2412 H 0.40082 0.16556 0.30497 0.0
H2413 H 0.32483 0.17845 0.36294 0.0
H2414 H 0.2766 0.17569 0.37724 0.0
H2415 H 0.27437 0.08328 0.37437 0.0
H2416 H 0.32251 0.08554 0.35969 0.0
H2417 H 0.46865 0.123 0.42387 0.0
H2418 H 0.44475 0.14536 0.38701 0.0
H2419 H 0.40147 0.06408 0.37591 0.0
H2420 H 0.42493 0.04176 0.41274 0.0
H2421 H 0.36743 0.10623 0.38389 0.0
H2422 H 0.44634 0.09441 0.3295 0.0
H2423 H 0.49518 0.09908 0.31761 0.0
H2424 H 0.49285 0.19152 0.31633 0.0
H2425 H 0.44406 0.18742 0.32862 0.0
C2426 C 0.30461 0.16762 0.28708 0.0
C2427 C 0.30847 0.19767 0.28231 0.0
C2428 C 0.32362 0.15213 0.30129 0.0
C2429 C 0.34658 0.16645 0.3114 0.0
C2430 C 0.35078 0.19633 0.30608 0.0
C2431 C 0.33196 0.21177 0.29166 0.0
C2432 C 0.36556 0.15062 0.32852 0.0
C2433 C 0.39357 0.15274 0.32234 0.0
C2434 C 0.35611 0.13362 0.35104 0.0
C2435 C 0.32718 0.1322 0.35993 0.0
C2436 C 0.31399 0.15757 0.36516 0.0
C2437 C 0.28668 0.15609 0.37336 0.0
C2438 C 0.2724 0.12933 0.37663 0.0
C2439 C 0.28543 0.10399 0.37177 0.0
C2440 C 0.31273 0.10536 0.36353 0.0
C2441 C 0.45467 0.10969 0.41306 0.0
C2442 C 0.44835 0.08074 0.42147 0.0
C2443 C 0.441 0.1225 0.39199 0.0
C2444 C 0.42112 0.10642 0.37887 0.0
C2445 C 0.41653 0.07694 0.3859 0.0
C2446 C 0.43002 0.06421 0.40695 0.0
C2447 C 0.40269 0.12089 0.36027 0.0
C2448 C 0.37472 0.11872 0.36634 0.0
C2449 C 0.41229 0.13805 0.33792 0.0
C2450 C 0.44156 0.14059 0.33021 0.0
C2451 C 0.45627 0.11574 0.32688 0.0
C2452 C 0.48395 0.11828 0.32003 0.0
C2453 C 0.49713 0.14557 0.31628 0.0
C2454 C 0.48262 0.17039 0.31927 0.0
C2455 C 0.45495 0.16797 0.32615 0.0
H2456 H 0.51856 0.1475 0.31101 0.0
H2457 H 0.25126 0.12823 0.38298 0.0
H2458 H 0.71479 0.83768 0.69644 0.0
H2459 H 0.67956 0.86465 0.67436 0.0
H2460 H 0.62291 0.79116 0.68715 0.0
H2461 H 0.65813 0.76388 0.70861 0.0
H2462 H 0.6192 0.81249 0.63918 0.0
H2463 H 0.61905 0.85236 0.72332 0.0
H2464 H 0.63862 0.87495 0.76172 0.0
H2465 H 0.666 0.94948 0.713 0.0
H2466 H 0.64694 0.92716 0.67422 0.0
H2467 H 0.51593 0.89233 0.58182 0.0
H2468 H 0.53795 0.86676 0.61819 0.0
H2469 H 0.60473 0.9306 0.61268 0.0
H2470 H 0.58262 0.95664 0.57725 0.0
H2471 H 0.59725 0.91148 0.66194 0.0
H2472 H 0.60486 0.86685 0.57748 0.0
H2473 H 0.58483 0.84489 0.53891 0.0
H2474 H 0.5426 0.7796 0.58931 0.0
H2475 H 0.56221 0.80137 0.62817 0.0
C2476 C 0.69483 0.82728 0.69456 0.0
C2477 C 0.68931 0.79863 0.7043 0.0
C2478 C 0.67462 0.84279 0.6821 0.0
C2479 C 0.64839 0.83011 0.67943 0.0
C2480 C 0.64292 0.80146 0.68902 0.0
C2481 C 0.66313 0.7859 0.70131 0.0
C2482 C 0.62696 0.84632 0.66577 0.0
C2483 C 0.61406 0.83391 0.64454 0.0
C2484 C 0.62031 0.8744 0.67251 0.0
C2485 C 0.63174 0.88796 0.69581 0.0
C2486 C 0.62941 0.87347 0.72075 0.0
C2487 C 0.64039 0.88625 0.7426 0.0
C2488 C 0.65359 0.9136 0.73979 0.0
C2489 C 0.65579 0.92828 0.71514 0.0
C2490 C 0.64487 0.91558 0.69322 0.0
C2491 C 0.53495 0.9013 0.58881 0.0
C2492 C 0.54782 0.92615 0.57614 0.0
C2493 C 0.54759 0.88659 0.60953 0.0
C2494 C 0.57342 0.89626 0.61764 0.0
C2495 C 0.58496 0.9225 0.60665 0.0
C2496 C 0.57228 0.93733 0.58621 0.0
C2497 C 0.59005 0.87785 0.63513 0.0
C2498 C 0.60209 0.88984 0.65699 0.0
C2499 C 0.59595 0.84937 0.62903 0.0
C2500 C 0.58484 0.8358 0.60567 0.0
C2501 C 0.59129 0.84782 0.5803 0.0
C2502 C 0.58 0.83543 0.5584 0.0
C2503 C 0.56243 0.81088 0.56166 0.0
C2504 C 0.55622 0.7986 0.58681 0.0
C2505 C 0.56743 0.81093 0.60877 0.0
H2506 H 0.55365 0.80136 0.5447 0.0
H2507 H 0.66207 0.92346 0.75673 0.0
H2508 H 0.70174 0.16842 0.28738 0.0
H2509 H 0.66796 0.13871 0.31348 0.0
H2510 H 0.63726 0.21528 0.34556 0.0
H2511 H 0.67244 0.24502 0.32052 0.0
H2512 H 0.63565 0.17778 0.38231 0.0
H2513 H 0.60277 0.17308 0.29629 0.0
H2514 H 0.60406 0.16646 0.24868 0.0
H2515 H 0.62399 0.07799 0.26298 0.0
H2516 H 0.62319 0.08418 0.31067 0.0
H2517 H 0.52649 0.08716 0.44289 0.0
H2518 H 0.54927 0.12408 0.41261 0.0
H2519 H 0.60082 0.0598 0.38353 0.0
H2520 H 0.57794 0.02302 0.41339 0.0
H2521 H 0.58501 0.0961 0.34374 0.0
H2522 H 0.6218 0.10678 0.43164 0.0
H2523 H 0.6198 0.1176 0.47835 0.0
H2524 H 0.58686 0.19962 0.45848 0.0
H2525 H 0.5887 0.18939 0.41154 0.0
C2526 C 0.68777 0.17899 0.29995 0.0
C2527 C 0.68974 0.20916 0.30172 0.0
C2528 C 0.66816 0.16193 0.31476 0.0
C2529 C 0.64924 0.17456 0.33112 0.0
C2530 C 0.65135 0.20478 0.33307 0.0
C2531 C 0.67148 0.22184 0.3187 0.0
C2532 C 0.62804 0.15606 0.34673 0.0
C2533 C 0.62421 0.16034 0.3736 0.0
C2534 C 0.6128 0.13311 0.33575 0.0
C2535 C 0.61311 0.12917 0.30707 0.0
C2536 C 0.60758 0.15226 0.28928 0.0
C2537 C 0.60821 0.14857 0.26227 0.0
C2538 C 0.61416 0.12184 0.25281 0.0
C2539 C 0.61941 0.0987 0.27034 0.0
C2540 C 0.61883 0.10227 0.29737 0.0
C2541 C 0.542 0.08072 0.4294 0.0
C2542 C 0.55005 0.05199 0.43032 0.0
C2543 C 0.55539 0.10198 0.41239 0.0
C2544 C 0.57711 0.09492 0.39592 0.0
C2545 C 0.58422 0.06595 0.39598 0.0
C2546 C 0.57104 0.04486 0.41307 0.0
C2547 C 0.59335 0.11744 0.37926 0.0
C2548 C 0.59619 0.1139 0.35219 0.0
C2549 C 0.60705 0.14155 0.3899 0.0
C2550 C 0.60505 0.14714 0.41815 0.0
C2551 C 0.61384 0.12697 0.43726 0.0
C2552 C 0.6128 0.13303 0.46377 0.0
C2553 C 0.60305 0.15914 0.47145 0.0
C2554 C 0.59433 0.17934 0.45255 0.0
C2555 C 0.5954 0.17346 0.42598 0.0
H2556 H 0.60238 0.16378 0.492 0.0
H2557 H 0.61466 0.11904 0.23189 0.0
H2558 H 0.77948 0.66088 0.30974 0.0
H2559 H 0.81438 0.63735 0.33563 0.0
H2560 H 0.87262 0.70644 0.311 0.0
H2561 H 0.83771 0.73049 0.28609 0.0
H2562 H 0.86093 0.61513 0.32789 0.0
H2563 H 0.91562 0.72166 0.3588 0.0
H2564 H 0.90474 0.77156 0.36799 0.0
H2565 H 0.82146 0.74381 0.38448 0.0
H2566 H 0.8319 0.69372 0.37577 0.0
H2567 H 0.97526 0.57021 0.40016 0.0
H2568 H 0.94864 0.59602 0.3668 0.0
H2569 H 0.90623 0.63745 0.42828 0.0
H2570 H 0.93375 0.61319 0.46096 0.0
H2571 H 0.91171 0.67369 0.39081 0.0
H2572 H 0.88125 0.57315 0.39761 0.0
H2573 H 0.88817 0.52095 0.39608 0.0
H2574 H 0.91285 0.53278 0.31486 0.0
H2575 H 0.90648 0.58515 0.31604 0.0
C2576 C 0.79976 0.67097 0.30981 0.0
C2577 C 0.8057 0.69775 0.29617 0.0
C2578 C 0.81975 0.65745 0.32453 0.0
C2579 C 0.8461 0.67033 0.32572 0.0
C2580 C 0.85233 0.69636 0.31101 0.0
C2581 C 0.83232 0.71007 0.29668 0.0
C2582 C 0.86673 0.65733 0.34316 0.0
C2583 C 0.87206 0.62797 0.34161 0.0
C2584 C 0.88105 0.67382 0.36146 0.0
C2585 C 0.87451 0.704 0.36634 0.0
C2586 C 0.895 0.72622 0.36439 0.0
C2587 C 0.88891 0.75453 0.36954 0.0
C2588 C 0.86242 0.76084 0.37678 0.0
C2589 C 0.84195 0.7389 0.37881 0.0
C2590 C 0.84793 0.71056 0.37373 0.0
C2591 C 0.9608 0.58555 0.40625 0.0
C2592 C 0.95671 0.59018 0.43294 0.0
C2593 C 0.94532 0.59998 0.3873 0.0
C2594 C 0.92495 0.61841 0.39495 0.0
C2595 C 0.92177 0.62358 0.42167 0.0
C2596 C 0.93753 0.60972 0.44039 0.0
C2597 C 0.90585 0.63139 0.37578 0.0
C2598 C 0.90082 0.66086 0.37692 0.0
C2599 C 0.89096 0.61467 0.35802 0.0
C2600 C 0.89373 0.58308 0.357 0.0
C2601 C 0.88823 0.56461 0.37945 0.0
C2602 C 0.8921 0.53502 0.37866 0.0
C2603 C 0.90116 0.52361 0.35544 0.0
C2604 C 0.90601 0.5417 0.33287 0.0
C2605 C 0.90225 0.57133 0.33358 0.0
H2606 H 0.90431 0.50073 0.35489 0.0
H2607 H 0.85778 0.78271 0.38097 0.0
H2608 H 0.35871 0.79342 0.35309 0.0
H2609 H 0.37123 0.82307 0.38957 0.0
H2610 H 0.28801 0.81702 0.41824 0.0
H2611 H 0.27559 0.7867 0.38185 0.0
H2612 H 0.31032 0.87435 0.40971 0.0
H2613 H 0.33098 0.78735 0.45636 0.0
H2614 H 0.35006 0.73941 0.46296 0.0
H2615 H 0.43058 0.77718 0.44829 0.0
H2616 H 0.41197 0.82529 0.44121 0.0
H2617 H 0.41694 0.92595 0.51456 0.0
H2618 H 0.37683 0.89717 0.50265 0.0
H2619 H 0.38305 0.9368 0.42411 0.0
H2620 H 0.42255 0.96659 0.43652 0.0
H2621 H 0.38659 0.85875 0.46983 0.0
H2622 H 0.32669 0.92346 0.39023 0.0
H2623 H 0.30718 0.97124 0.38424 0.0
H2624 H 0.30278 0.97802 0.46775 0.0
H2625 H 0.32187 0.93009 0.4743 0.0
C2626 C 0.34336 0.79761 0.36773 0.0
C2627 C 0.31632 0.78768 0.36502 0.0
C2628 C 0.35044 0.81458 0.38845 0.0
C2629 C 0.3305 0.82218 0.40654 0.0
C2630 C 0.30363 0.81127 0.40449 0.0
C2631 C 0.29664 0.79382 0.38394 0.0
C2632 C 0.33774 0.84366 0.42587 0.0
C2633 C 0.32671 0.87099 0.42323 0.0
C2634 C 0.35863 0.83886 0.44383 0.0
C2635 C 0.37003 0.80996 0.4482 0.0
C2636 C 0.35274 0.78542 0.45439 0.0
C2637 C 0.36348 0.75821 0.45823 0.0
C2638 C 0.39151 0.75525 0.45603 0.0
C2639 C 0.40887 0.77951 0.45001 0.0
C2640 C 0.39824 0.80677 0.44613 0.0
C2641 C 0.40872 0.92967 0.49522 0.0
C2642 C 0.42266 0.94832 0.47638 0.0
C2643 C 0.38593 0.91309 0.48837 0.0
C2644 C 0.37711 0.91449 0.46241 0.0
C2645 C 0.38924 0.93553 0.44435 0.0
C2646 C 0.41184 0.95257 0.4514 0.0
C2647 C 0.36016 0.89015 0.45284 0.0
C2648 C 0.36956 0.86218 0.4571 0.0
C2649 C 0.33768 0.89442 0.43655 0.0
C2650 C 0.32585 0.92316 0.43275 0.0
C2651 C 0.32139 0.93502 0.40734 0.0
C2652 C 0.31044 0.96218 0.40384 0.0
C2653 C 0.30379 0.97768 0.4256 0.0
C2654 C 0.30801 0.96603 0.45091 0.0
C2655 C 0.31894 0.93888 0.45453 0.0
H2656 H 0.29533 0.9987 0.42284 0.0
H2657 H 0.39979 0.73416 0.45901 0.0
H2658 H 0.24537 0.3172 0.30942 0.0
H2659 H 0.21985 0.33989 0.34357 0.0
H2660 H 0.16044 0.2683 0.34711 0.0
H2661 H 0.18567 0.24558 0.3127 0.0
H2662 H 0.1368 0.31908 0.34228 0.0
H2663 H 0.20447 0.27833 0.39716 0.0
H2664 H 0.251 0.26839 0.41068 0.0
H2665 H 0.26904 0.35915 0.41703 0.0
H2666 H 0.22272 0.36969 0.40318 0.0
H2667 H 0.06113 0.36411 0.45005 0.0
H2668 H 0.08988 0.33632 0.42243 0.0
H2669 H 0.15137 0.40589 0.41873 0.0
H2670 H 0.12292 0.4337 0.44692 0.0
H2671 H 0.17408 0.35477 0.4247 0.0
H2672 H 0.10807 0.39602 0.36795 0.0
H2673 H 0.06211 0.40697 0.35337 0.0
H2674 H 0.04169 0.31634 0.34932 0.0
H2675 H 0.08743 0.30482 0.36423 0.0
C2676 C 0.22709 0.30605 0.31772 0.0
C2677 C 0.21753 0.2796 0.30828 0.0
C2678 C 0.21257 0.31901 0.33733 0.0
C2679 C 0.18832 0.30571 0.34802 0.0
C2680 C 0.17913 0.27892 0.33916 0.0
C2681 C 0.19364 0.26592 0.31955 0.0
C2682 C 0.17161 0.32072 0.36705 0.0
C2683 C 0.1448 0.32641 0.36054 0.0
C2684 C 0.18234 0.3311 0.39046 0.0
C2685 C 0.21018 0.32481 0.39891 0.0
C2686 C 0.21842 0.29619 0.40124 0.0
C2687 C 0.24475 0.29044 0.409 0.0
C2688 C 0.26298 0.31313 0.41465 0.0
C2689 C 0.2549 0.34161 0.41262 0.0
C2690 C 0.2286 0.34747 0.40485 0.0
C2691 C 0.08078 0.37355 0.44344 0.0
C2692 C 0.0896 0.40127 0.45055 0.0
C2693 C 0.09719 0.35762 0.42758 0.0
C2694 C 0.12259 0.36921 0.41815 0.0
C2695 C 0.1318 0.39655 0.42574 0.0
C2696 C 0.11548 0.41244 0.44181 0.0
C2697 C 0.13925 0.35303 0.39993 0.0
C2698 C 0.16605 0.34724 0.40653 0.0
C2699 C 0.12859 0.34268 0.37648 0.0
C2700 C 0.10108 0.34955 0.36748 0.0
C2701 C 0.0937 0.37842 0.36415 0.0
C2702 C 0.0677 0.38473 0.3558 0.0
C2703 C 0.04896 0.36236 0.3505 0.0
C2704 C 0.05621 0.33364 0.35348 0.0
C2705 C 0.08217 0.32721 0.36186 0.0
H2706 H 0.02885 0.36729 0.34402 0.0
H2707 H 0.28336 0.30863 0.42065 0.0
H2708 H 0.25336 0.19553 0.67431 0.0
H2709 H 0.27878 0.17372 0.63957 0.0
H2710 H 0.3481 0.23104 0.65215 0.0
H2711 H 0.32252 0.25367 0.68669 0.0
H2712 H 0.34022 0.21993 0.59865 0.0
H2713 H 0.34475 0.16747 0.68214 0.0
H2714 H 0.32511 0.14254 0.72255 0.0
H2715 H 0.28418 0.07952 0.67689 0.0
H2716 H 0.30289 0.10457 0.63613 0.0
H2717 H 0.44289 0.13559 0.54706 0.0
H2718 H 0.41428 0.16406 0.57409 0.0
H2719 H 0.34773 0.10108 0.56829 0.0
H2720 H 0.37643 0.07203 0.54145 0.0
H2721 H 0.35355 0.11558 0.61778 0.0
H2722 H 0.34806 0.16719 0.53459 0.0
H2723 H 0.36557 0.19262 0.49356 0.0
H2724 H 0.40739 0.25635 0.53782 0.0
H2725 H 0.39044 0.23106 0.57915 0.0
C2726 C 0.27386 0.20388 0.66943 0.0
C2727 C 0.28609 0.2261 0.68348 0.0
C2728 C 0.28835 0.19129 0.64965 0.0
C2729 C 0.31547 0.20025 0.64379 0.0
C2730 C 0.3272 0.2237 0.65651 0.0
C2731 C 0.31259 0.23659 0.67623 0.0
C2732 C 0.33205 0.18348 0.62603 0.0
C2733 C 0.34344 0.19721 0.60293 0.0
C2734 C 0.33569 0.15365 0.63142 0.0
C2735 C 0.32497 0.13814 0.65601 0.0
C2736 C 0.33137 0.14845 0.68067 0.0
C2737 C 0.32042 0.13428 0.70366 0.0
C2738 C 0.3034 0.10948 0.70228 0.0
C2739 C 0.29736 0.09874 0.67793 0.0
C2740 C 0.30811 0.11294 0.65487 0.0
C2741 C 0.42213 0.12776 0.55134 0.0
C2742 C 0.41201 0.10142 0.54202 0.0
C2743 C 0.40572 0.14422 0.56673 0.0
C2744 C 0.37874 0.13491 0.573 0.0
C2745 C 0.36848 0.10873 0.56364 0.0
C2746 C 0.38491 0.09218 0.54824 0.0
C2747 C 0.36169 0.15194 0.59021 0.0
C2748 C 0.35028 0.13827 0.61335 0.0
C2749 C 0.35798 0.18176 0.5848 0.0
C2750 C 0.36817 0.19707 0.55998 0.0
C2751 C 0.36117 0.1865 0.53559 0.0
C2752 C 0.37096 0.20091 0.51227 0.0
C2753 C 0.38764 0.22604 0.51308 0.0
C2754 C 0.3945 0.23686 0.53722 0.0
C2755 C 0.38478 0.22251 0.56059 0.0
H2756 H 0.39519 0.23718 0.49501 0.0
H2757 H 0.29493 0.09855 0.7201 0.0
H2758 H 0.84211 0.31339 0.73533 0.0
H2759 H 0.87363 0.34305 0.70629 0.0
H2760 H 0.82593 0.32101 0.6397 0.0
H2761 H 0.79374 0.29239 0.66879 0.0
H2762 H 0.90692 0.3355 0.66822 0.0
H2763 H 0.82907 0.37466 0.59253 0.0
H2764 H 0.7803 0.38411 0.59021 0.0
H2765 H 0.77782 0.39886 0.67254 0.0
H2766 H 0.82665 0.38988 0.67528 0.0
H2767 H 0.97326 0.4125 0.55457 0.0
H2768 H 0.94878 0.37868 0.58661 0.0
H2769 H 0.90604 0.4494 0.61665 0.0
H2770 H 0.92989 0.48278 0.58453 0.0
H2771 H 0.87113 0.40938 0.60603 0.0
H2772 H 0.95456 0.41209 0.65219 0.0
H2773 H 0.00355 0.40734 0.6592 0.0
H2774 H 0.99584 0.3176 0.64281 0.0
H2775 H 0.94683 0.32188 0.63531 0.0
C2776 C 0.83826 0.31492 0.71451 0.0
C2777 C 0.81516 0.30073 0.70448 0.0
C2778 C 0.85645 0.3318 0.69785 0.0
C2779 C 0.85211 0.3348 0.67071 0.0
C2780 C 0.8295 0.31982 0.66058 0.0
C2781 C 0.81109 0.3033 0.67727 0.0
C2782 C 0.87075 0.35422 0.65326 0.0
C2783 C 0.89906 0.35162 0.65458 0.0
C2784 C 0.86076 0.37563 0.63559 0.0
C2785 C 0.83142 0.38123 0.63416 0.0
C2786 C 0.81812 0.37998 0.61013 0.0
C2787 C 0.79047 0.38525 0.60874 0.0
C2788 C 0.77594 0.39196 0.63124 0.0
C2789 C 0.78907 0.39353 0.65516 0.0
C2790 C 0.81672 0.38833 0.65664 0.0
C2791 C 0.95927 0.42086 0.56857 0.0
C2792 C 0.95354 0.45029 0.56707 0.0
C2793 C 0.94514 0.4015 0.58682 0.0
C2794 C 0.9253 0.41136 0.60404 0.0
C2795 C 0.92092 0.44107 0.60346 0.0
C2796 C 0.93472 0.46021 0.58517 0.0
C2797 C 0.90734 0.39095 0.62115 0.0
C2798 C 0.87907 0.39321 0.61959 0.0
C2799 C 0.91748 0.36989 0.63905 0.0
C2800 C 0.94705 0.36738 0.64294 0.0
C2801 C 0.96335 0.39141 0.64979 0.0
C2802 C 0.99111 0.38878 0.65394 0.0
C2803 C 0.00277 0.36217 0.65153 0.0
C2804 C 0.98675 0.33818 0.64474 0.0
C2805 C 0.95898 0.34069 0.64054 0.0
H2806 H 0.02421 0.36014 0.65498 0.0
H2807 H 0.75454 0.39601 0.63013 0.0
H2808 H 0.2649 0.64192 0.63865 0.0
H2809 H 0.24844 0.60688 0.6077 0.0
H2810 H 0.17725 0.58696 0.65749 0.0
H2811 H 0.19484 0.61927 0.68928 0.0
H2812 H 0.18404 0.54339 0.6338 0.0
H2813 H 0.18462 0.64621 0.60412 0.0
H2814 H 0.20722 0.69356 0.59089 0.0
H2815 H 0.25359 0.65429 0.53144 0.0
H2816 H 0.23137 0.60666 0.54453 0.0
H2817 H 0.0785 0.59159 0.53646 0.0
H2818 H 0.12149 0.59913 0.55763 0.0
H2819 H 0.13513 0.50796 0.55658 0.0
H2820 H 0.09097 0.49994 0.53646 0.0
H2821 H 0.17104 0.59461 0.54759 0.0
H2822 H 0.17294 0.48917 0.61278 0.0
H2823 H 0.14218 0.45058 0.63359 0.0
H2824 H 0.07613 0.5077 0.6309 0.0
H2825 H 0.10663 0.54677 0.61067 0.0
C2826 C 0.24625 0.62923 0.64338 0.0
C2827 C 0.23064 0.63417 0.66595 0.0
C2828 C 0.23669 0.60942 0.62552 0.0
C2829 C 0.21102 0.59503 0.62962 0.0
C2830 C 0.19694 0.59789 0.65348 0.0
C2831 C 0.20682 0.61688 0.67155 0.0
C2832 C 0.19658 0.58037 0.6083 0.0
C2833 C 0.18152 0.55435 0.61475 0.0
C2834 C 0.19326 0.59445 0.58331 0.0
C2835 C 0.20669 0.62292 0.57552 0.0
C2836 C 0.19975 0.64771 0.58832 0.0
C2837 C 0.21247 0.67456 0.58085 0.0
C2838 C 0.23191 0.67691 0.5604 0.0
C2839 C 0.23861 0.65241 0.54733 0.0
C2840 C 0.22598 0.62549 0.55477 0.0
C2841 C 0.0906 0.57304 0.54047 0.0
C2842 C 0.08106 0.54509 0.53484 0.0
C2843 C 0.11543 0.57745 0.55247 0.0
C2844 C 0.13163 0.55412 0.5589 0.0
C2845 C 0.12287 0.52628 0.55214 0.0
C2846 C 0.09765 0.52176 0.54047 0.0
C2847 C 0.15647 0.55943 0.57432 0.0
C2848 C 0.17407 0.58312 0.56631 0.0
C2849 C 0.16075 0.54436 0.59866 0.0
C2850 C 0.14194 0.52066 0.60969 0.0
C2851 C 0.15181 0.49341 0.6165 0.0
C2852 C 0.13446 0.47151 0.62831 0.0
C2853 C 0.10719 0.47666 0.63347 0.0
C2854 C 0.09722 0.5037 0.62679 0.0
C2855 C 0.11453 0.52572 0.61515 0.0
H2856 H 0.09381 0.45975 0.64276 0.0
H2857 H 0.24173 0.69772 0.55463 0.0
loop_
_geom_bond_atom_site_label_1
_geom_bond_atom_site_label_2
_geom_bond_distance
_geom_bond_site_symmetry_2
_ccdc_geom_bond_type
C0 O16 1.251 . S
C0 O18 1.254 . S
N1 C2 1.333 . S
N1 C6 1.307 . S
N1 Zn7 2.020 . S
C2 N1 1.333 . S
C2 C3 1.379 . S
C2 H20 0.952 . S
C3 C2 1.379 . S
C3 C4 1.390 . S
C3 H30 0.949 . S
C4 C3 1.390 . S
C4 C5 1.357 . S
C5 C4 1.357 . S
C5 C6 1.370 . S
C5 H31 0.950 . S
C6 N1 1.307 . S
C6 C5 1.370 . S
C6 H24 0.948 . S
Zn7 N1 2.020 . S
Zn7 O16 2.039 . S
Zn7 O22 2.034 . S
Zn7 O26 2.025 . S
Zn7 O28 2.024 . S
C8 O27 1.246 . S
C8 O28 1.249 . S
N9 C10 1.307 . S
N9 C11 1.333 . S
N9 Zn15 2.020 . S
C10 N9 1.307 . S
C10 C14 1.370 . S
C10 H21 0.948 . S
C11 N9 1.333 . S
C11 C12 1.379 . S
C11 H19 0.952 . S
C12 C11 1.379 . S
C12 C13 1.390 . S
C12 H32 0.949 . S
C13 C12 1.390 . S
C13 C14 1.357 . S
C14 C10 1.370 . S
C14 C13 1.357 . S
C14 H33 0.950 . S
Zn15 N9 2.020 . S
Zn15 O18 2.025 . S
Zn15 O23 2.024 . S
Zn15 O25 2.039 . S
Zn15 O27 2.034 . S
O16 C0 1.251 . S
O16 Zn7 2.039 . S
C17 O22 1.246 . S
C17 O23 1.249 . S
O18 C0 1.254 . S
O18 Zn15 2.025 . S
H19 C11 0.952 . S
H20 C2 0.952 . S
H21 C10 0.948 . S
O22 Zn7 2.034 . S
O22 C17 1.246 . S
O23 Zn15 2.024 . S
O23 C17 1.249 . S
H24 C6 0.948 . S
O25 Zn15 2.039 . S
O25 C29 1.251 . S
O26 Zn7 2.025 . S
O26 C29 1.254 . S
O27 C8 1.246 . S
O27 Zn15 2.034 . S
O28 Zn7 2.024 . S
O28 C8 1.249 . S
C29 O25 1.251 . S
C29 O26 1.254 . S
H30 C3 0.949 . S
H31 C5 0.950 . S
H32 C12 0.949 . S
H33 C14 0.950 . S
C34 O50 1.251 . S
C34 O52 1.254 . S
N35 C36 1.333 . S
N35 C40 1.307 . S
N35 Zn41 2.020 . S
C36 N35 1.333 . S
C36 C37 1.379 . S
C36 H54 0.952 . S
C37 C36 1.379 . S
C37 C38 1.390 . S
C37 H64 0.949 . S
C38 C37 1.390 . S
C38 C39 1.357 . S
C39 C38 1.357 . S
C39 C40 1.370 . S
C39 H65 0.950 . S
C40 N35 1.307 . S
C40 C39 1.370 . S
C40 H58 0.948 . S
Zn41 N35 2.020 . S
Zn41 O50 2.039 . S
Zn41 O56 2.034 . S
Zn41 O60 2.025 . S
Zn41 O62 2.024 . S
C42 O61 1.246 . S
C42 O62 1.249 . S
N43 C44 1.307 . S
N43 C45 1.333 . S
N43 Zn49 2.020 . S
C44 N43 1.307 . S
C44 C48 1.370 . S
C44 H55 0.948 . S
C45 N43 1.333 . S
C45 C46 1.379 . S
C45 H53 0.952 . S
C46 C45 1.379 . S
C46 C47 1.390 . S
C46 H66 0.949 . S
C47 C46 1.390 . S
C47 C48 1.357 . S
C48 C44 1.370 . S
C48 C47 1.357 . S
C48 H67 0.950 . S
Zn49 N43 2.020 . S
Zn49 O52 2.025 . S
Zn49 O57 2.024 . S
Zn49 O59 2.039 . S
Zn49 O61 2.034 . S
O50 C34 1.251 . S
O50 Zn41 2.039 . S
C51 O56 1.246 . S
C51 O57 1.249 . S
O52 C34 1.254 . S
O52 Zn49 2.025 . S
H53 C45 0.952 . S
H54 C36 0.952 . S
H55 C44 0.948 . S
O56 Zn41 2.034 . S
O56 C51 1.246 . S
O57 Zn49 2.024 . S
O57 C51 1.249 . S
H58 C40 0.948 . S
O59 Zn49 2.039 . S
O59 C63 1.251 . S
O60 Zn41 2.025 . S
O60 C63 1.254 . S
O61 C42 1.246 . S
O61 Zn49 2.034 . S
O62 Zn41 2.024 . S
O62 C42 1.249 . S
C63 O59 1.251 . S
C63 O60 1.254 . S
H64 C37 0.949 . S
H65 C39 0.950 . S
H66 C46 0.949 . S
H67 C48 0.950 . S
C68 O84 1.251 . S
C68 O86 1.254 . S
N69 C70 1.333 . S
N69 C74 1.307 . S
N69 Zn75 2.020 . S
C70 N69 1.333 . S
C70 C71 1.379 . S
C70 H88 0.952 . S
C71 C70 1.379 . S
C71 C72 1.390 . S
C71 H98 0.949 . S
C72 C71 1.390 . S
C72 C73 1.357 . S
C73 C72 1.357 . S
C73 C74 1.370 . S
C73 H99 0.950 . S
C74 N69 1.307 . S
C74 C73 1.370 . S
C74 H92 0.948 . S
Zn75 N69 2.020 . S
Zn75 O84 2.039 . S
Zn75 O90 2.034 . S
Zn75 O94 2.025 . S
Zn75 O96 2.024 . S
C76 O95 1.246 . S
C76 O96 1.249 . S
N77 C78 1.307 . S
N77 C79 1.333 . S
N77 Zn83 2.020 . S
C78 N77 1.307 . S
C78 C82 1.370 . S
C78 H89 0.948 . S
C79 N77 1.333 . S
C79 C80 1.379 . S
C79 H87 0.952 . S
C80 C79 1.379 . S
C80 C81 1.390 . S
C80 H100 0.949 . S
C81 C80 1.390 . S
C81 C82 1.357 . S
C82 C78 1.370 . S
C82 C81 1.357 . S
C82 H101 0.950 . S
Zn83 N77 2.020 . S
Zn83 O86 2.025 . S
Zn83 O91 2.024 . S
Zn83 O93 2.039 . S
Zn83 O95 2.034 . S
O84 C68 1.251 . S
O84 Zn75 2.039 . S
C85 O90 1.246 . S
C85 O91 1.249 . S
O86 C68 1.254 . S
O86 Zn83 2.025 . S
H87 C79 0.952 . S
H88 C70 0.952 . S
H89 C78 0.948 . S
O90 Zn75 2.034 . S
O90 C85 1.246 . S
O91 Zn83 2.024 . S
O91 C85 1.249 . S
H92 C74 0.948 . S
O93 Zn83 2.039 . S
O93 C97 1.251 . S
O94 Zn75 2.025 . S
O94 C97 1.254 . S
O95 C76 1.246 . S
O95 Zn83 2.034 . S
O96 Zn75 2.024 . S
O96 C76 1.249 . S
C97 O93 1.251 . S
C97 O94 1.254 . S
H98 C71 0.949 . S
H99 C73 0.950 . S
H100 C80 0.949 . S
H101 C82 0.950 . S
C102 O118 1.251 . S
C102 O120 1.254 . S
N103 C104 1.333 . S
N103 C108 1.307 . S
N103 Zn109 2.020 . S
C104 N103 1.333 . S
C104 C105 1.379 . S
C104 H122 0.952 . S
C105 C104 1.379 . S
C105 C106 1.390 . S
C105 H132 0.949 . S
C106 C105 1.390 . S
C106 C107 1.357 . S
C107 C106 1.357 . S
C107 C108 1.370 . S
C107 H133 0.950 . S
C108 N103 1.307 . S
C108 C107 1.370 . S
C108 H126 0.948 . S
Zn109 N103 2.020 . S
Zn109 O118 2.039 . S
Zn109 O124 2.034 . S
Zn109 O128 2.025 . S
Zn109 O130 2.024 . S
C110 O129 1.246 . S
C110 O130 1.249 . S
N111 C112 1.307 . S
N111 C113 1.333 . S
N111 Zn117 2.020 . S
C112 N111 1.307 . S
C112 C116 1.370 . S
C112 H123 0.948 . S
C113 N111 1.333 . S
C113 C114 1.379 . S
C113 H121 0.952 . S
C114 C113 1.379 . S
C114 C115 1.390 . S
C114 H134 0.949 . S
C115 C114 1.390 . S
C115 C116 1.357 . S
C116 C112 1.370 . S
C116 C115 1.357 . S
C116 H135 0.950 . S
Zn117 N111 2.020 . S
Zn117 O120 2.025 . S
Zn117 O125 2.024 . S
Zn117 O127 2.039 . S
Zn117 O129 2.034 . S
O118 C102 1.251 . S
O118 Zn109 2.039 . S
C119 O124 1.246 . S
C119 O125 1.249 . S
O120 C102 1.254 . S
O120 Zn117 2.025 . S
H121 C113 0.952 . S
H122 C104 0.952 . S
H123 C112 0.948 . S
O124 Zn109 2.034 . S
O124 C119 1.246 . S
O125 Zn117 2.024 . S
O125 C119 1.249 . S
H126 C108 0.948 . S
O127 Zn117 2.039 . S
O127 C131 1.251 . S
O128 Zn109 2.025 . S
O128 C131 1.254 . S
O129 C110 1.246 . S
O129 Zn117 2.034 . S
O130 Zn109 2.024 . S
O130 C110 1.249 . S
C131 O127 1.251 . S
C131 O128 1.254 . S
H132 C105 0.949 . S
H133 C107 0.950 . S
H134 C114 0.949 . S
H135 C116 0.950 . S
C136 O152 1.251 . S
C136 O154 1.254 . S
N137 C138 1.333 . S
N137 C142 1.307 . S
N137 Zn143 2.020 . S
C138 N137 1.333 . S
C138 C139 1.379 . S
C138 H156 0.952 . S
C139 C138 1.379 . S
C139 C140 1.390 . S
C139 H166 0.949 . S
C140 C139 1.390 . S
C140 C141 1.357 . S
C141 C140 1.357 . S
C141 C142 1.370 . S
C141 H167 0.950 . S
C142 N137 1.307 . S
C142 C141 1.370 . S
C142 H160 0.948 . S
Zn143 N137 2.020 . S
Zn143 O152 2.039 . S
Zn143 O158 2.034 . S
Zn143 O162 2.025 . S
Zn143 O164 2.024 . S
C144 O163 1.246 . S
C144 O164 1.249 . S
N145 C146 1.307 . S
N145 C147 1.333 . S
N145 Zn151 2.020 . S
C146 N145 1.307 . S
C146 C150 1.370 . S
C146 H157 0.948 . S
C147 N145 1.333 . S
C147 C148 1.379 . S
C147 H155 0.952 . S
C148 C147 1.379 . S
C148 C149 1.390 . S
C148 H168 0.949 . S
C149 C148 1.390 . S
C149 C150 1.357 . S
C150 C146 1.370 . S
C150 C149 1.357 . S
C150 H169 0.950 . S
Zn151 N145 2.020 . S
Zn151 O154 2.025 . S
Zn151 O159 2.024 . S
Zn151 O161 2.039 . S
Zn151 O163 2.034 . S
O152 C136 1.251 . S
O152 Zn143 2.039 . S
C153 O158 1.246 . S
C153 O159 1.249 . S
O154 C136 1.254 . S
O154 Zn151 2.025 . S
H155 C147 0.952 . S
H156 C138 0.952 . S
H157 C146 0.948 . S
O158 Zn143 2.034 . S
O158 C153 1.246 . S
O159 Zn151 2.024 . S
O159 C153 1.249 . S
H160 C142 0.948 . S
O161 Zn151 2.039 . S
O161 C165 1.251 . S
O162 Zn143 2.025 . S
O162 C165 1.254 . S
O163 C144 1.246 . S
O163 Zn151 2.034 . S
O164 Zn143 2.024 . S
O164 C144 1.249 . S
C165 O161 1.251 . S
C165 O162 1.254 . S
H166 C139 0.949 . S
H167 C141 0.950 . S
H168 C148 0.949 . S
H169 C150 0.950 . S
C170 O186 1.251 . S
C170 O188 1.254 . S
N171 C172 1.333 . S
N171 C176 1.307 . S
N171 Zn177 2.020 . S
C172 N171 1.333 . S
C172 C173 1.379 . S
C172 H190 0.952 . S
C173 C172 1.379 . S
C173 C174 1.390 . S
C173 H200 0.949 . S
C174 C173 1.390 . S
C174 C175 1.357 . S
C175 C174 1.357 . S
C175 C176 1.370 . S
C175 H201 0.950 . S
C176 N171 1.307 . S
C176 C175 1.370 . S
C176 H194 0.948 . S
Zn177 N171 2.020 . S
Zn177 O186 2.039 . S
Zn177 O192 2.034 . S
Zn177 O196 2.025 . S
Zn177 O198 2.024 . S
C178 O197 1.246 . S
C178 O198 1.249 . S
N179 C180 1.307 . S
N179 C181 1.333 . S
N179 Zn185 2.020 . S
C180 N179 1.307 . S
C180 C184 1.370 . S
C180 H191 0.948 . S
C181 N179 1.333 . S
C181 C182 1.379 . S
C181 H189 0.952 . S
C182 C181 1.379 . S
C182 C183 1.390 . S
C182 H202 0.949 . S
C183 C182 1.390 . S
C183 C184 1.357 . S
C184 C180 1.370 . S
C184 C183 1.357 . S
C184 H203 0.950 . S
Zn185 N179 2.020 . S
Zn185 O188 2.025 . S
Zn185 O193 2.024 . S
Zn185 O195 2.039 . S
Zn185 O197 2.034 . S
O186 C170 1.251 . S
O186 Zn177 2.039 . S
C187 O192 1.246 . S
C187 O193 1.249 . S
O188 C170 1.254 . S
O188 Zn185 2.025 . S
H189 C181 0.952 . S
H190 C172 0.952 . S
H191 C180 0.948 . S
O192 Zn177 2.034 . S
O192 C187 1.246 . S
O193 Zn185 2.024 . S
O193 C187 1.249 . S
H194 C176 0.948 . S
O195 Zn185 2.039 . S
O195 C199 1.251 . S
O196 Zn177 2.025 . S
O196 C199 1.254 . S
O197 C178 1.246 . S
O197 Zn185 2.034 . S
O198 Zn177 2.024 . S
O198 C178 1.249 . S
C199 O195 1.251 . S
C199 O196 1.254 . S
H200 C173 0.949 . S
H201 C175 0.950 . S
H202 C182 0.949 . S
H203 C184 0.950 . S
C204 O220 1.251 . S
C204 O222 1.254 . S
N205 C206 1.333 . S
N205 C210 1.307 . S
N205 Zn211 2.020 . S
C206 N205 1.333 . S
C206 C207 1.379 . S
C206 H224 0.952 . S
C207 C206 1.379 . S
C207 C208 1.390 . S
C207 H234 0.949 . S
C208 C207 1.390 . S
C208 C209 1.357 . S
C209 C208 1.357 . S
C209 C210 1.370 . S
C209 H235 0.950 . S
C210 N205 1.307 . S
C210 C209 1.370 . S
C210 H228 0.948 . S
Zn211 N205 2.020 . S
Zn211 O220 2.039 . S
Zn211 O226 2.034 . S
Zn211 O230 2.025 . S
Zn211 O232 2.024 . S
C212 O231 1.246 . S
C212 O232 1.249 . S
N213 C214 1.307 . S
N213 C215 1.333 . S
N213 Zn219 2.020 . S
C214 N213 1.307 . S
C214 C218 1.370 . S
C214 H225 0.948 . S
C215 N213 1.333 . S
C215 C216 1.379 . S
C215 H223 0.952 . S
C216 C215 1.379 . S
C216 C217 1.390 . S
C216 H236 0.949 . S
C217 C216 1.390 . S
C217 C218 1.357 . S
C218 C214 1.370 . S
C218 C217 1.357 . S
C218 H237 0.950 . S
Zn219 N213 2.020 . S
Zn219 O222 2.025 . S
Zn219 O227 2.024 . S
Zn219 O229 2.039 . S
Zn219 O231 2.034 . S
O220 C204 1.251 . S
O220 Zn211 2.039 . S
C221 O226 1.246 . S
C221 O227 1.249 . S
O222 C204 1.254 . S
O222 Zn219 2.025 . S
H223 C215 0.952 . S
H224 C206 0.952 . S
H225 C214 0.948 . S
O226 Zn211 2.034 . S
O226 C221 1.246 . S
O227 Zn219 2.024 . S
O227 C221 1.249 . S
H228 C210 0.948 . S
O229 Zn219 2.039 . S
O229 C233 1.251 . S
O230 Zn211 2.025 . S
O230 C233 1.254 . S
O231 C212 1.246 . S
O231 Zn219 2.034 . S
O232 Zn211 2.024 . S
O232 C212 1.249 . S
C233 O229 1.251 . S
C233 O230 1.254 . S
H234 C207 0.949 . S
H235 C209 0.950 . S
H236 C216 0.949 . S
H237 C218 0.950 . S
C238 O254 1.251 . S
C238 O256 1.254 . S
N239 C240 1.333 . S
N239 C244 1.307 . S
N239 Zn245 2.020 . S
C240 N239 1.333 . S
C240 C241 1.379 . S
C240 H258 0.952 . S
C241 C240 1.379 . S
C241 C242 1.390 . S
C241 H268 0.949 . S
C242 C241 1.390 . S
C242 C243 1.357 . S
C243 C242 1.357 . S
C243 C244 1.370 . S
C243 H269 0.950 . S
C244 N239 1.307 . S
C244 C243 1.370 . S
C244 H262 0.948 . S
Zn245 N239 2.020 . S
Zn245 O254 2.039 . S
Zn245 O260 2.034 . S
Zn245 O264 2.025 . S
Zn245 O266 2.024 . S
C246 O265 1.246 . S
C246 O266 1.249 . S
N247 C248 1.307 . S
N247 C249 1.333 . S
N247 Zn253 2.020 . S
C248 N247 1.307 . S
C248 C252 1.370 . S
C248 H259 0.948 . S
C249 N247 1.333 . S
C249 C250 1.379 . S
C249 H257 0.952 . S
C250 C249 1.379 . S
C250 C251 1.390 . S
C250 H270 0.949 . S
C251 C250 1.390 . S
C251 C252 1.357 . S
C252 C248 1.370 . S
C252 C251 1.357 . S
C252 H271 0.950 . S
Zn253 N247 2.020 . S
Zn253 O256 2.025 . S
Zn253 O261 2.024 . S
Zn253 O263 2.039 . S
Zn253 O265 2.034 . S
O254 C238 1.251 . S
O254 Zn245 2.039 . S
C255 O260 1.246 . S
C255 O261 1.249 . S
O256 C238 1.254 . S
O256 Zn253 2.025 . S
H257 C249 0.952 . S
H258 C240 0.952 . S
H259 C248 0.948 . S
O260 Zn245 2.034 . S
O260 C255 1.246 . S
O261 Zn253 2.024 . S
O261 C255 1.249 . S
H262 C244 0.948 . S
O263 Zn253 2.039 . S
O263 C267 1.251 . S
O264 Zn245 2.025 . S
O264 C267 1.254 . S
O265 C246 1.246 . S
O265 Zn253 2.034 . S
O266 Zn245 2.024 . S
O266 C246 1.249 . S
C267 O263 1.251 . S
C267 O264 1.254 . S
H268 C241 0.949 . S
H269 C243 0.950 . S
H270 C250 0.949 . S
H271 C252 0.950 . S
C272 O284 1.241 . S
C272 O285 1.280 . S
C273 O286 1.277 . S
C273 O287 1.245 . S
C274 O298 1.247 . S
C274 O300 1.289 . S
Mg275 O276 1.926 . S
Mg275 O285 1.984 . S
Mg275 O287 1.988 . S
Mg275 O288 2.061 1_655 S
O276 Mg275 1.926 . S
O276 Mg277 1.986 . S
O276 Mg278 1.917 1_655 S
Mg277 O276 1.986 . S
Mg277 O284 2.042 . S
Mg277 O286 2.041 . S
Mg277 O292 2.038 1_545 S
Mg277 O300 2.238 1_545 S
Mg278 O276 1.917 1_455 S
Mg278 O279 1.917 1_545 S
Mg278 O289 2.106 . S
Mg278 O291 2.079 1_445 S
Mg278 O300 2.106 1_445 S
Mg278 O301 2.079 . S
O279 Mg278 1.917 1_565 S
O279 Mg280 1.926 . S
O279 Mg281 1.986 . S
Mg280 O279 1.926 . S
Mg280 O294 1.984 . S
Mg280 O297 1.988 . S
Mg280 O298 2.061 1_455 S
Mg281 O279 1.986 . S
Mg281 O289 2.238 1_565 S
Mg281 O293 2.042 . S
Mg281 O295 2.041 . S
Mg281 O302 2.038 1_565 S
C282 O288 1.247 . S
C282 O289 1.289 . S
C283 O301 1.245 . S
C283 O302 1.274 . S
O284 C272 1.241 . S
O284 Mg277 2.042 . S
O285 C272 1.280 . S
O285 Mg275 1.984 . S
O286 C273 1.277 . S
O286 Mg277 2.041 . S
O287 C273 1.245 . S
O287 Mg275 1.988 . S
O288 Mg275 2.061 1_455 S
O288 C282 1.247 . S
O289 Mg278 2.106 . S
O289 Mg281 2.238 1_545 S
O289 C282 1.289 . S
C290 O291 1.245 . S
C290 O292 1.274 . S
O291 Mg278 2.079 1_665 S
O291 C290 1.245 . S
O292 Mg277 2.038 1_565 S
O292 C290 1.274 . S
O293 Mg281 2.042 . S
O293 C296 1.241 . S
O294 Mg280 1.984 . S
O294 C296 1.280 . S
O295 Mg281 2.041 . S
O295 C299 1.277 . S
C296 O293 1.241 . S
C296 O294 1.280 . S
O297 Mg280 1.988 . S
O297 C299 1.245 . S
O298 C274 1.247 . S
O298 Mg280 2.061 1_655 S
C299 O295 1.277 . S
C299 O297 1.245 . S
O300 C274 1.289 . S
O300 Mg277 2.238 1_565 S
O300 Mg278 2.106 1_665 S
O301 Mg278 2.079 . S
O301 C283 1.245 . S
O302 Mg281 2.038 1_545 S
O302 C283 1.274 . S
C303 O315 1.241 . S
C303 O316 1.280 . S
C304 O317 1.277 . S
C304 O318 1.245 . S
C305 O329 1.247 . S
C305 O331 1.289 . S
Mg306 O307 1.926 . S
Mg306 O316 1.984 . S
Mg306 O318 1.988 1_554 S
Mg306 O319 2.061 . S
O307 Mg306 1.926 . S
O307 Mg308 1.986 . S
O307 Mg309 1.917 . S
Mg308 O307 1.986 . S
Mg308 O315 2.042 . S
Mg308 O317 2.041 1_554 S
Mg308 O323 2.038 1_545 S
Mg308 O331 2.238 1_544 S
Mg309 O307 1.917 . S
Mg309 O310 1.917 1_544 S
Mg309 O320 2.106 . S
Mg309 O322 2.079 1_545 S
Mg309 O331 2.106 1_544 S
Mg309 O332 2.079 1_554 S
O310 Mg309 1.917 1_566 S
O310 Mg311 1.926 . S
O310 Mg312 1.986 . S
Mg311 O310 1.926 . S
Mg311 O325 1.984 . S
Mg311 O328 1.988 1_556 S
Mg311 O329 2.061 . S
Mg312 O310 1.986 . S
Mg312 O320 2.238 1_566 S
Mg312 O324 2.042 . S
Mg312 O326 2.041 1_556 S
Mg312 O333 2.038 1_565 S
C313 O319 1.247 . S
C313 O320 1.289 . S
C314 O332 1.245 . S
C314 O333 1.274 . S
O315 C303 1.241 . S
O315 Mg308 2.042 . S
O316 C303 1.280 . S
O316 Mg306 1.984 . S
O317 C304 1.277 . S
O317 Mg308 2.041 1_556 S
O318 C304 1.245 . S
O318 Mg306 1.988 1_556 S
O319 Mg306 2.061 . S
O319 C313 1.247 . S
O320 Mg309 2.106 . S
O320 Mg312 2.238 1_544 S
O320 C313 1.289 . S
C321 O322 1.245 . S
C321 O323 1.274 . S
O322 Mg309 2.079 1_565 S
O322 C321 1.245 . S
O323 Mg308 2.038 1_565 S
O323 C321 1.274 . S
O324 Mg312 2.042 . S
O324 C327 1.241 . S
O325 Mg311 1.984 . S
O325 C327 1.280 . S
O326 Mg312 2.041 1_554 S
O326 C330 1.277 . S
C327 O324 1.241 . S
C327 O325 1.280 . S
O328 Mg311 1.988 1_554 S
O328 C330 1.245 . S
O329 C305 1.247 . S
O329 Mg311 2.061 . S
C330 O326 1.277 . S
C330 O328 1.245 . S
O331 C305 1.289 . S
O331 Mg308 2.238 1_566 S
O331 Mg309 2.106 1_566 S
O332 Mg309 2.079 1_556 S
O332 C314 1.245 . S
O333 Mg312 2.038 1_545 S
O333 C314 1.274 . S
C334 O346 1.241 . S
C334 O347 1.280 . S
C335 O348 1.277 . S
C335 O349 1.245 . S
C336 O360 1.247 . S
C336 O362 1.289 . S
Mg337 O338 1.926 . S
Mg337 O347 1.984 . S
Mg337 O349 1.988 1_554 S
Mg337 O350 2.061 1_655 S
O338 Mg337 1.926 . S
O338 Mg339 1.986 . S
O338 Mg340 1.917 1_655 S
Mg339 O338 1.986 . S
Mg339 O346 2.042 . S
Mg339 O348 2.041 1_554 S
Mg339 O354 2.038 . S
Mg339 O362 2.238 1_554 S
Mg340 O338 1.917 1_455 S
Mg340 O341 1.917 1_554 S
Mg340 O351 2.106 . S
Mg340 O353 2.079 1_455 S
Mg340 O362 2.106 1_454 S
Mg340 O363 2.079 1_554 S
O341 Mg340 1.917 1_556 S
O341 Mg342 1.926 . S
O341 Mg343 1.986 . S
Mg342 O341 1.926 . S
Mg342 O356 1.984 . S
Mg342 O359 1.988 1_556 S
Mg342 O360 2.061 1_455 S
Mg343 O341 1.986 . S
Mg343 O351 2.238 1_556 S
Mg343 O355 2.042 . S
Mg343 O357 2.041 1_556 S
Mg343 O364 2.038 . S
C344 O350 1.247 . S
C344 O351 1.289 . S
C345 O363 1.245 . S
C345 O364 1.274 . S
O346 C334 1.241 . S
O346 Mg339 2.042 . S
O347 C334 1.280 . S
O347 Mg337 1.984 . S
O348 C335 1.277 . S
O348 Mg339 2.041 1_556 S
O349 C335 1.245 . S
O349 Mg337 1.988 1_556 S
O350 Mg337 2.061 1_455 S
O350 C344 1.247 . S
O351 Mg340 2.106 . S
O351 Mg343 2.238 1_554 S
O351 C344 1.289 . S
C352 O353 1.245 . S
C352 O354 1.274 . S
O353 Mg340 2.079 1_655 S
O353 C352 1.245 . S
O354 Mg339 2.038 . S
O354 C352 1.274 . S
O355 Mg343 2.042 . S
O355 C358 1.241 . S
O356 Mg342 1.984 . S
O356 C358 1.280 . S
O357 Mg343 2.041 1_554 S
O357 C361 1.277 . S
C358 O355 1.241 . S
C358 O356 1.280 . S
O359 Mg342 1.988 1_554 S
O359 C361 1.245 . S
O360 C336 1.247 . S
O360 Mg342 2.061 1_655 S
C361 O357 1.277 . S
C361 O359 1.245 . S
O362 C336 1.289 . S
O362 Mg339 2.238 1_556 S
O362 Mg340 2.106 1_656 S
O363 Mg340 2.079 1_556 S
O363 C345 1.245 . S
O364 Mg343 2.038 . S
O364 C345 1.274 . S
C365 O377 1.241 . S
C365 O378 1.280 . S
C366 O379 1.277 . S
C366 O380 1.245 . S
C367 O391 1.247 . S
C367 O393 1.289 . S
Mg368 O369 1.926 . S
Mg368 O378 1.984 . S
Mg368 O380 1.988 1_554 S
Mg368 O381 2.061 . S
O369 Mg368 1.926 . S
O369 Mg370 1.986 . S
O369 Mg371 1.917 . S
Mg370 O369 1.986 . S
Mg370 O377 2.042 . S
Mg370 O379 2.041 1_554 S
Mg370 O385 2.038 . S
Mg370 O393 2.238 1_554 S
Mg371 O369 1.917 . S
Mg371 O372 1.917 1_554 S
Mg371 O382 2.106 . S
Mg371 O384 2.079 . S
Mg371 O393 2.106 1_554 S
Mg371 O394 2.079 1_554 S
O372 Mg371 1.917 1_556 S
O372 Mg373 1.926 . S
O372 Mg374 1.986 . S
Mg373 O372 1.926 . S
Mg373 O387 1.984 . S
Mg373 O390 1.988 1_556 S
Mg373 O391 2.061 . S
Mg374 O372 1.986 . S
Mg374 O382 2.238 1_556 S
Mg374 O386 2.042 . S
Mg374 O388 2.041 1_556 S
Mg374 O395 2.038 . S
C375 O381 1.247 . S
C375 O382 1.289 . S
C376 O394 1.245 . S
C376 O395 1.274 . S
O377 C365 1.241 . S
O377 Mg370 2.042 . S
O378 C365 1.280 . S
O378 Mg368 1.984 . S
O379 C366 1.277 . S
O379 Mg370 2.041 1_556 S
O380 C366 1.245 . S
O380 Mg368 1.988 1_556 S
O381 Mg368 2.061 . S
O381 C375 1.247 . S
O382 Mg371 2.106 . S
O382 Mg374 2.238 1_554 S
O382 C375 1.289 . S
C383 O384 1.245 . S
C383 O385 1.274 . S
O384 Mg371 2.079 . S
O384 C383 1.245 . S
O385 Mg370 2.038 . S
O385 C383 1.274 . S
O386 Mg374 2.042 . S
O386 C389 1.241 . S
O387 Mg373 1.984 . S
O387 C389 1.280 . S
O388 Mg374 2.041 1_554 S
O388 C392 1.277 . S
C389 O386 1.241 . S
C389 O387 1.280 . S
O390 Mg373 1.988 1_554 S
O390 C392 1.245 . S
O391 C367 1.247 . S
O391 Mg373 2.061 . S
C392 O388 1.277 . S
C392 O390 1.245 . S
O393 C367 1.289 . S
O393 Mg370 2.238 1_556 S
O393 Mg371 2.106 1_556 S
O394 Mg371 2.079 1_556 S
O394 C376 1.245 . S
O395 Mg374 2.038 . S
O395 C376 1.274 . S
C396 O408 1.241 . S
C396 O409 1.280 . S
C397 O410 1.277 . S
C397 O411 1.245 . S
C398 O422 1.247 . S
C398 O424 1.289 . S
Mg399 O400 1.926 . S
Mg399 O409 1.984 . S
Mg399 O411 1.988 . S
Mg399 O412 2.061 1_655 S
O400 Mg399 1.926 . S
O400 Mg401 1.986 . S
O400 Mg402 1.917 1_655 S
Mg401 O400 1.986 . S
Mg401 O408 2.042 . S
Mg401 O410 2.041 . S
Mg401 O416 2.038 . S
Mg401 O424 2.238 . S
Mg402 O400 1.917 1_455 S
Mg402 O403 1.917 . S
Mg402 O413 2.106 . S
Mg402 O415 2.079 1_455 S
Mg402 O424 2.106 1_455 S
Mg402 O425 2.079 . S
O403 Mg402 1.917 . S
O403 Mg404 1.926 . S
O403 Mg405 1.986 . S
Mg404 O403 1.926 . S
Mg404 O418 1.984 . S
Mg404 O421 1.988 . S
Mg404 O422 2.061 1_455 S
Mg405 O403 1.986 . S
Mg405 O413 2.238 . S
Mg405 O417 2.042 . S
Mg405 O419 2.041 . S
Mg405 O426 2.038 . S
C406 O412 1.247 . S
C406 O413 1.289 . S
C407 O425 1.245 . S
C407 O426 1.274 . S
O408 C396 1.241 . S
O408 Mg401 2.042 . S
O409 C396 1.280 . S
O409 Mg399 1.984 . S
O410 C397 1.277 . S
O410 Mg401 2.041 . S
O411 C397 1.245 . S
O411 Mg399 1.988 . S
O412 Mg399 2.061 1_455 S
O412 C406 1.247 . S
O413 Mg402 2.106 . S
O413 Mg405 2.238 . S
O413 C406 1.289 . S
C414 O415 1.245 . S
C414 O416 1.274 . S
O415 Mg402 2.079 1_655 S
O415 C414 1.245 . S
O416 Mg401 2.038 . S
O416 C414 1.274 . S
O417 Mg405 2.042 . S
O417 C420 1.241 . S
O418 Mg404 1.984 . S
O418 C420 1.280 . S
O419 Mg405 2.041 . S
O419 C423 1.277 . S
C420 O417 1.241 . S
C420 O418 1.280 . S
O421 Mg404 1.988 . S
O421 C423 1.245 . S
O422 C398 1.247 . S
O422 Mg404 2.061 1_655 S
C423 O419 1.277 . S
C423 O421 1.245 . S
O424 C398 1.289 . S
O424 Mg401 2.238 . S
O424 Mg402 2.106 1_655 S
O425 Mg402 2.079 . S
O425 C407 1.245 . S
O426 Mg405 2.038 . S
O426 C407 1.274 . S
C427 O439 1.241 . S
C427 O440 1.280 . S
C428 O441 1.277 . S
C428 O442 1.245 . S
C429 O453 1.247 . S
C429 O455 1.289 . S
Mg430 O431 1.926 . S
Mg430 O440 1.984 . S
Mg430 O442 1.988 . S
Mg430 O443 2.061 . S
O431 Mg430 1.926 . S
O431 Mg432 1.986 . S
O431 Mg433 1.917 . S
Mg432 O431 1.986 . S
Mg432 O439 2.042 . S
Mg432 O441 2.041 . S
Mg432 O447 2.038 1_545 S
Mg432 O455 2.238 1_545 S
Mg433 O431 1.917 . S
Mg433 O434 1.917 1_545 S
Mg433 O444 2.106 . S
Mg433 O446 2.079 1_545 S
Mg433 O455 2.106 1_545 S
Mg433 O456 2.079 . S
O434 Mg433 1.917 1_565 S
O434 Mg435 1.926 . S
O434 Mg436 1.986 . S
Mg435 O434 1.926 . S
Mg435 O449 1.984 . S
Mg435 O452 1.988 . S
Mg435 O453 2.061 . S
Mg436 O434 1.986 . S
Mg436 O444 2.238 1_565 S
Mg436 O448 2.042 . S
Mg436 O450 2.041 . S
Mg436 O457 2.038 1_565 S
C437 O443 1.247 . S
C437 O444 1.289 . S
C438 O456 1.245 . S
C438 O457 1.274 . S
O439 C427 1.241 . S
O439 Mg432 2.042 . S
O440 C427 1.280 . S
O440 Mg430 1.984 . S
O441 C428 1.277 . S
O441 Mg432 2.041 . S
O442 C428 1.245 . S
O442 Mg430 1.988 . S
O443 Mg430 2.061 . S
O443 C437 1.247 . S
O444 Mg433 2.106 . S
O444 Mg436 2.238 1_545 S
O444 C437 1.289 . S
C445 O446 1.245 . S
C445 O447 1.274 . S
O446 Mg433 2.079 1_565 S
O446 C445 1.245 . S
O447 Mg432 2.038 1_565 S
O447 C445 1.274 . S
O448 Mg436 2.042 . S
O448 C451 1.241 . S
O449 Mg435 1.984 . S
O449 C451 1.280 . S
O450 Mg436 2.041 . S
O450 C454 1.277 . S
C451 O448 1.241 . S
C451 O449 1.280 . S
O452 Mg435 1.988 . S
O452 C454 1.245 . S
O453 C429 1.247 . S
O453 Mg435 2.061 . S
C454 O450 1.277 . S
C454 O452 1.245 . S
O455 C429 1.289 . S
O455 Mg432 2.238 1_565 S
O455 Mg433 2.106 1_565 S
O456 Mg433 2.079 . S
O456 C438 1.245 . S
O457 Mg436 2.038 1_545 S
O457 C438 1.274 . S
H458 C476 0.951 . S
H459 C478 0.951 . S
H460 C480 0.950 . S
H461 C481 0.950 . S
H462 C483 0.950 . S
H463 C486 0.950 . S
H464 C487 0.950 . S
H465 C489 0.950 . S
H466 C490 0.950 . S
H467 C491 0.951 . S
H468 C493 0.951 . S
H469 C495 0.950 . S
H470 C496 0.990 . S
H471 C498 0.950 . S
H472 C501 0.950 . S
H473 C502 0.950 . S
H474 C504 0.950 . S
H475 C505 0.950 . S
C476 H458 0.951 . S
C476 C477 1.366 . S
C476 C478 1.388 . S
C477 C476 1.366 . S
C477 C481 1.385 . S
C478 H459 0.951 . S
C478 C476 1.388 . S
C478 C479 1.366 . S
C479 C478 1.366 . S
C479 C480 1.414 . S
C479 C482 1.499 . S
C480 H460 0.950 . S
C480 C479 1.414 . S
C480 C481 1.374 . S
C481 H461 0.950 . S
C481 C477 1.385 . S
C481 C480 1.374 . S
C482 C479 1.499 . S
C482 C483 1.373 . S
C482 C484 1.389 . S
C483 H462 0.950 . S
C483 C482 1.373 . S
C483 C499 1.377 . S
C484 C482 1.389 . S
C484 C485 1.524 . S
C484 C498 1.377 . S
C485 C484 1.524 . S
C485 C486 1.397 . S
C485 C490 1.363 . S
C486 H463 0.950 . S
C486 C485 1.397 . S
C486 C487 1.334 . S
C487 H464 0.950 . S
C487 C486 1.334 . S
C487 C488 1.287 . S
C488 C487 1.287 . S
C488 C489 1.524 . S
C488 H507 0.913 . S
C489 H465 0.950 . S
C489 C488 1.524 . S
C489 C490 1.415 . S
C490 H466 0.950 . S
C490 C485 1.363 . S
C490 C489 1.415 . S
C491 H467 0.951 . S
C491 C492 1.366 . S
C491 C493 1.388 . S
C492 C491 1.366 . S
C492 C496 1.385 . S
C493 H468 0.951 . S
C493 C491 1.388 . S
C493 C494 1.366 . S
C494 C493 1.366 . S
C494 C495 1.414 . S
C494 C497 1.499 . S
C495 H469 0.950 . S
C495 C494 1.414 . S
C495 C496 1.374 . S
C496 H470 0.990 . S
C496 C492 1.385 . S
C496 C495 1.374 . S
C497 C494 1.499 . S
C497 C498 1.373 . S
C497 C499 1.389 . S
C498 H471 0.950 . S
C498 C484 1.377 . S
C498 C497 1.373 . S
C499 C483 1.377 . S
C499 C497 1.389 . S
C499 C500 1.524 . S
C500 C499 1.524 . S
C500 C501 1.397 . S
C500 C505 1.363 . S
C501 H472 0.950 . S
C501 C500 1.397 . S
C501 C502 1.334 1_545 S
C502 H473 0.950 . S
C502 C501 1.334 1_565 S
C502 C503 1.287 . S
C503 C502 1.287 . S
C503 C504 1.524 1_565 S
C503 H506 0.999 . S
C504 H474 0.950 . S
C504 C503 1.524 1_545 S
C504 C505 1.415 . S
C505 H475 0.950 . S
C505 C500 1.363 . S
C505 C504 1.415 . S
H506 C503 0.999 . S
H507 C488 0.913 . S
H508 C526 0.951 . S
H509 C528 0.951 . S
H510 C530 0.950 . S
H511 C531 0.950 . S
H512 C533 0.950 . S
H513 C536 0.950 . S
H514 C537 0.950 . S
H515 C539 0.950 . S
H516 C540 0.950 . S
H517 C541 0.951 . S
H518 C543 0.951 . S
H519 C545 0.950 . S
H520 C546 0.950 . S
H521 C548 0.950 . S
H522 C551 0.950 . S
H523 C552 0.950 . S
H524 C554 0.950 . S
H525 C555 0.950 . S
C526 H508 0.951 . S
C526 C527 1.366 . S
C526 C528 1.388 . S
C527 C526 1.366 . S
C527 C531 1.385 . S
C528 H509 0.951 . S
C528 C526 1.388 . S
C528 C529 1.366 . S
C529 C528 1.366 . S
C529 C530 1.414 . S
C529 C532 1.499 . S
C530 H510 0.950 . S
C530 C529 1.414 . S
C530 C531 1.374 . S
C531 H511 0.950 . S
C531 C527 1.385 . S
C531 C530 1.374 . S
C532 C529 1.499 . S
C532 C533 1.373 . S
C532 C534 1.389 . S
C533 H512 0.950 . S
C533 C532 1.373 . S
C533 C549 1.377 . S
C534 C532 1.389 . S
C534 C535 1.524 . S
C534 C548 1.377 . S
C535 C534 1.524 . S
C535 C536 1.397 . S
C535 C540 1.363 . S
C536 H513 0.950 . S
C536 C535 1.397 . S
C536 C537 1.334 . S
C537 H514 0.950 . S
C537 C536 1.334 . S
C537 C538 1.287 . S
C538 C537 1.287 . S
C538 C539 1.524 . S
C538 H557 0.913 . S
C539 H515 0.950 . S
C539 C538 1.524 . S
C539 C540 1.415 . S
C540 H516 0.950 . S
C540 C535 1.363 . S
C540 C539 1.415 . S
C541 H517 0.951 . S
C541 C542 1.366 . S
C541 C543 1.388 . S
C542 C541 1.366 . S
C542 C546 1.385 . S
C543 H518 0.951 . S
C543 C541 1.388 . S
C543 C544 1.366 . S
C544 C543 1.366 . S
C544 C545 1.414 . S
C544 C547 1.499 . S
C545 H519 0.950 . S
C545 C544 1.414 . S
C545 C546 1.374 . S
C546 H520 0.950 . S
C546 C542 1.385 . S
C546 C545 1.374 . S
C547 C544 1.499 . S
C547 C548 1.373 . S
C547 C549 1.389 . S
C548 H521 0.950 . S
C548 C534 1.377 . S
C548 C547 1.373 . S
C549 C533 1.377 . S
C549 C547 1.389 . S
C549 C550 1.524 . S
C550 C549 1.524 . S
C550 C551 1.397 . S
C550 C555 1.363 . S
C551 H522 0.950 . S
C551 C550 1.397 . S
C551 C552 1.334 . S
C552 H523 0.950 . S
C552 C551 1.334 . S
C552 C553 1.287 . S
C553 C552 1.287 . S
C553 C554 1.524 . S
C553 H556 0.999 . S
C554 H524 0.950 . S
C554 C553 1.524 . S
C554 C555 1.415 . S
C555 H525 0.950 . S
C555 C550 1.363 . S
C555 C554 1.415 . S
H556 C553 0.999 . S
H557 C538 0.913 . S
H558 C576 0.951 . S
H559 C578 0.951 . S
H560 C580 0.950 . S
H561 C581 0.950 . S
H562 C583 0.950 . S
H563 C586 0.950 . S
H564 C587 0.950 . S
H565 C589 0.950 . S
H566 C590 0.950 . S
H567 C591 0.951 . S
H568 C593 0.951 . S
H569 C595 0.950 . S
H570 C596 0.950 . S
H571 C598 0.950 . S
H572 C601 0.950 . S
H573 C602 0.950 1_545 S
H574 C604 0.950 . S
H575 C605 0.950 . S
C576 H558 0.951 . S
C576 C577 1.366 . S
C576 C578 1.388 . S
C577 C576 1.366 . S
C577 C581 1.385 . S
C578 H559 0.951 . S
C578 C576 1.388 . S
C578 C579 1.366 . S
C579 C578 1.366 . S
C579 C580 1.414 . S
C579 C582 1.499 . S
C580 H560 0.950 . S
C580 C579 1.414 . S
C580 C581 1.374 . S
C581 H561 0.950 . S
C581 C577 1.385 . S
C581 C580 1.374 . S
C582 C579 1.499 . S
C582 C583 1.373 . S
C582 C584 1.389 . S
C583 H562 0.950 . S
C583 C582 1.373 . S
C583 C599 1.377 . S
C584 C582 1.389 . S
C584 C585 1.524 . S
C584 C598 1.377 . S
C585 C584 1.524 . S
C585 C586 1.397 . S
C585 C590 1.363 . S
C586 H563 0.950 . S
C586 C585 1.397 . S
C586 C587 1.334 . S
C587 H564 0.950 . S
C587 C586 1.334 . S
C587 C588 1.287 . S
C588 C587 1.287 . S
C588 C589 1.524 . S
C588 H607 0.913 . S
C589 H565 0.950 . S
C589 C588 1.524 . S
C589 C590 1.415 . S
C590 H566 0.950 . S
C590 C585 1.363 . S
C590 C589 1.415 . S
C591 H567 0.951 . S
C591 C592 1.366 . S
C591 C593 1.388 . S
C592 C591 1.366 . S
C592 C596 1.385 . S
C593 H568 0.951 . S
C593 C591 1.388 . S
C593 C594 1.366 . S
C594 C593 1.366 . S
C594 C595 1.414 . S
C594 C597 1.499 . S
C595 H569 0.950 . S
C595 C594 1.414 . S
C595 C596 1.374 . S
C596 H570 0.950 . S
C596 C592 1.385 . S
C596 C595 1.374 . S
C597 C594 1.499 . S
C597 C598 1.373 . S
C597 C599 1.389 . S
C598 H571 0.950 . S
C598 C584 1.377 . S
C598 C597 1.373 . S
C599 C583 1.377 . S
C599 C597 1.389 . S
C599 C600 1.524 . S
C600 C599 1.524 . S
C600 C601 1.397 . S
C600 C605 1.363 . S
C601 H572 0.950 . S
C601 C600 1.397 . S
C601 C602 1.334 . S
C602 H573 0.950 1_565 S
C602 C601 1.334 . S
C602 C603 1.287 . S
C603 C602 1.287 . S
C603 C604 1.524 . S
C603 H606 0.999 . S
C604 H574 0.950 . S
C604 C603 1.524 . S
C604 C605 1.415 . S
C605 H575 0.950 . S
C605 C600 1.363 . S
C605 C604 1.415 . S
H606 C603 0.999 . S
H607 C588 0.913 . S
H608 C626 0.951 . S
H609 C628 0.951 . S
H610 C630 0.950 . S
H611 C631 0.950 . S
H612 C633 0.950 . S
H613 C636 0.950 . S
H614 C637 0.950 . S
H615 C639 0.950 . S
H616 C640 0.950 . S
H617 C641 0.951 . S
H618 C643 0.951 . S
H619 C645 0.950 . S
H620 C646 0.950 . S
H621 C648 0.950 . S
H622 C651 0.950 . S
H623 C652 0.950 . S
H624 C654 0.950 . S
H625 C655 0.950 . S
C626 H608 0.951 . S
C626 C627 1.366 . S
C626 C628 1.388 . S
C627 C626 1.366 . S
C627 C631 1.385 . S
C628 H609 0.951 . S
C628 C626 1.388 . S
C628 C629 1.366 . S
C629 C628 1.366 . S
C629 C630 1.414 . S
C629 C632 1.499 . S
C630 H610 0.950 . S
C630 C629 1.414 . S
C630 C631 1.374 . S
C631 H611 0.950 . S
C631 C627 1.385 . S
C631 C630 1.374 . S
C632 C629 1.499 . S
C632 C633 1.373 . S
C632 C634 1.389 . S
C633 H612 0.950 . S
C633 C632 1.373 . S
C633 C649 1.377 . S
C634 C632 1.389 . S
C634 C635 1.524 . S
C634 C648 1.377 . S
C635 C634 1.524 . S
C635 C636 1.397 . S
C635 C640 1.363 . S
C636 H613 0.950 . S
C636 C635 1.397 . S
C636 C637 1.334 . S
C637 H614 0.950 . S
C637 C636 1.334 . S
C637 C638 1.287 . S
C638 C637 1.287 . S
C638 C639 1.524 . S
C638 H657 0.913 . S
C639 H615 0.950 . S
C639 C638 1.524 . S
C639 C640 1.415 . S
C640 H616 0.950 . S
C640 C635 1.363 . S
C640 C639 1.415 . S
C641 H617 0.951 . S
C641 C642 1.366 . S
C641 C643 1.388 . S
C642 C641 1.366 . S
C642 C646 1.385 . S
C643 H618 0.951 . S
C643 C641 1.388 . S
C643 C644 1.366 . S
C644 C643 1.366 . S
C644 C645 1.414 . S
C644 C647 1.499 . S
C645 H619 0.950 . S
C645 C644 1.414 . S
C645 C646 1.374 . S
C646 H620 0.950 . S
C646 C642 1.385 . S
C646 C645 1.374 . S
C647 C644 1.499 . S
C647 C648 1.373 . S
C647 C649 1.389 . S
C648 H621 0.950 . S
C648 C634 1.377 . S
C648 C647 1.373 . S
C649 C633 1.377 . S
C649 C647 1.389 . S
C649 C650 1.524 . S
C650 C649 1.524 . S
C650 C651 1.397 . S
C650 C655 1.363 . S
C651 H622 0.950 . S
C651 C650 1.397 . S
C651 C652 1.334 . S
C652 H623 0.950 . S
C652 C651 1.334 . S
C652 C653 1.287 . S
C653 C652 1.287 . S
C653 C654 1.524 . S
C653 H656 0.999 1_565 S
C654 H624 0.950 . S
C654 C653 1.524 . S
C654 C655 1.415 . S
C655 H625 0.950 . S
C655 C650 1.363 . S
C655 C654 1.415 . S
H656 C653 0.999 1_545 S
H657 C638 0.913 . S
H658 C676 0.951 . S
H659 C678 0.951 . S
H660 C680 0.950 . S
H661 C681 0.950 . S
H662 C683 0.950 . S
H663 C686 0.950 . S
H664 C687 0.950 . S
H665 C689 0.950 . S
H666 C690 0.950 . S
H667 C691 0.951 . S
H668 C693 0.951 . S
H669 C695 0.950 . S
H670 C696 0.950 . S
H671 C698 0.950 . S
H672 C701 0.950 . S
H673 C702 0.950 . S
H674 C704 0.950 . S
H675 C705 0.950 . S
C676 H658 0.951 . S
C676 C677 1.366 . S
C676 C678 1.388 . S
C677 C676 1.366 . S
C677 C681 1.385 . S
C678 H659 0.951 . S
C678 C676 1.388 . S
C678 C679 1.366 . S
C679 C678 1.366 . S
C679 C680 1.414 . S
C679 C682 1.499 . S
C680 H660 0.950 . S
C680 C679 1.414 . S
C680 C681 1.374 . S
C681 H661 0.950 . S
C681 C677 1.385 . S
C681 C680 1.374 . S
C682 C679 1.499 . S
C682 C683 1.373 . S
C682 C684 1.389 . S
C683 H662 0.950 . S
C683 C682 1.373 . S
C683 C699 1.377 . S
C684 C682 1.389 . S
C684 C685 1.524 . S
C684 C698 1.377 . S
C685 C684 1.524 . S
C685 C686 1.397 . S
C685 C690 1.363 . S
C686 H663 0.950 . S
C686 C685 1.397 . S
C686 C687 1.334 . S
C687 H664 0.950 . S
C687 C686 1.334 . S
C687 C688 1.287 . S
C688 C687 1.287 . S
C688 C689 1.524 . S
C688 H707 0.913 . S
C689 H665 0.950 . S
C689 C688 1.524 . S
C689 C690 1.415 . S
C690 H666 0.950 . S
C690 C685 1.363 . S
C690 C689 1.415 . S
C691 H667 0.951 . S
C691 C692 1.366 . S
C691 C693 1.388 . S
C692 C691 1.366 . S
C692 C696 1.385 . S
C693 H668 0.951 . S
C693 C691 1.388 . S
C693 C694 1.366 . S
C694 C693 1.366 . S
C694 C695 1.414 . S
C694 C697 1.499 . S
C695 H669 0.950 . S
C695 C694 1.414 . S
C695 C696 1.374 . S
C696 H670 0.950 . S
C696 C692 1.385 . S
C696 C695 1.374 . S
C697 C694 1.499 . S
C697 C698 1.373 . S
C697 C699 1.389 . S
C698 H671 0.950 . S
C698 C684 1.377 . S
C698 C697 1.373 . S
C699 C683 1.377 . S
C699 C697 1.389 . S
C699 C700 1.524 . S
C700 C699 1.524 . S
C700 C701 1.397 . S
C700 C705 1.363 . S
C701 H672 0.950 . S
C701 C700 1.397 . S
C701 C702 1.334 . S
C702 H673 0.950 . S
C702 C701 1.334 . S
C702 C703 1.287 . S
C703 C702 1.287 . S
C703 C704 1.524 . S
C703 H706 0.999 . S
C704 H674 0.950 . S
C704 C703 1.524 . S
C704 C705 1.415 . S
C705 H675 0.950 . S
C705 C700 1.363 . S
C705 C704 1.415 . S
H706 C703 0.999 . S
H707 C688 0.913 . S
H708 C726 0.951 . S
H709 C728 0.951 . S
H710 C730 0.950 . S
H711 C731 0.950 . S
H712 C733 0.950 . S
H713 C736 0.950 . S
H714 C737 0.950 . S
H715 C739 0.950 . S
H716 C740 0.950 . S
H717 C741 0.951 . S
H718 C743 0.951 . S
H719 C745 0.950 . S
H720 C746 0.950 . S
H721 C748 0.950 . S
H722 C751 0.950 . S
H723 C752 0.950 . S
H724 C754 0.950 . S
H725 C755 0.950 . S
C726 H708 0.951 . S
C726 C727 1.366 . S
C726 C728 1.388 . S
C727 C726 1.366 . S
C727 C731 1.385 . S
C728 H709 0.951 . S
C728 C726 1.388 . S
C728 C729 1.366 . S
C729 C728 1.366 . S
C729 C730 1.414 . S
C729 C732 1.499 . S
C730 H710 0.950 . S
C730 C729 1.414 . S
C730 C731 1.374 . S
C731 H711 0.950 . S
C731 C727 1.385 . S
C731 C730 1.374 . S
C732 C729 1.499 . S
C732 C733 1.373 . S
C732 C734 1.389 . S
C733 H712 0.950 . S
C733 C732 1.373 . S
C733 C749 1.377 . S
C734 C732 1.389 . S
C734 C735 1.524 . S
C734 C748 1.377 . S
C735 C734 1.524 . S
C735 C736 1.397 . S
C735 C740 1.363 . S
C736 H713 0.950 . S
C736 C735 1.397 . S
C736 C737 1.334 . S
C737 H714 0.950 . S
C737 C736 1.334 . S
C737 C738 1.287 . S
C738 C737 1.287 . S
C738 C739 1.524 . S
C738 H757 0.913 . S
C739 H715 0.950 . S
C739 C738 1.524 . S
C739 C740 1.415 . S
C740 H716 0.950 . S
C740 C735 1.363 . S
C740 C739 1.415 . S
C741 H717 0.951 . S
C741 C742 1.366 . S
C741 C743 1.388 . S
C742 C741 1.366 . S
C742 C746 1.385 . S
C743 H718 0.951 . S
C743 C741 1.388 . S
C743 C744 1.366 . S
C744 C743 1.366 . S
C744 C745 1.414 . S
C744 C747 1.499 . S
C745 H719 0.950 . S
C745 C744 1.414 . S
C745 C746 1.374 . S
C746 H720 0.950 . S
C746 C742 1.385 . S
C746 C745 1.374 . S
C747 C744 1.499 . S
C747 C748 1.373 . S
C747 C749 1.389 . S
C748 H721 0.950 . S
C748 C734 1.377 . S
C748 C747 1.373 . S
C749 C733 1.377 . S
C749 C747 1.389 . S
C749 C750 1.524 . S
C750 C749 1.524 . S
C750 C751 1.397 . S
C750 C755 1.363 . S
C751 H722 0.950 . S
C751 C750 1.397 . S
C751 C752 1.334 1_455 S
C752 H723 0.950 . S
C752 C751 1.334 1_655 S
C752 C753 1.287 . S
C753 C752 1.287 . S
C753 C754 1.524 1_655 S
C753 H756 0.999 . S
C754 H724 0.950 . S
C754 C753 1.524 1_455 S
C754 C755 1.415 . S
C755 H725 0.950 . S
C755 C750 1.363 . S
C755 C754 1.415 . S
H756 C753 0.999 . S
H757 C738 0.913 . S
H758 C776 0.951 . S
H759 C778 0.951 . S
H760 C780 0.950 . S
H761 C781 0.950 . S
H762 C783 0.950 . S
H763 C786 0.950 . S
H764 C787 0.950 . S
H765 C789 0.950 . S
H766 C790 0.950 . S
H767 C791 0.951 . S
H768 C793 0.951 . S
H769 C795 0.950 . S
H770 C796 0.950 . S
H771 C798 0.950 . S
H772 C801 0.950 . S
H773 C802 0.950 . S
H774 C804 0.950 . S
H775 C805 0.950 . S
C776 H758 0.951 . S
C776 C777 1.366 . S
C776 C778 1.388 . S
C777 C776 1.366 . S
C777 C781 1.385 . S
C778 H759 0.951 . S
C778 C776 1.388 . S
C778 C779 1.366 . S
C779 C778 1.366 . S
C779 C780 1.414 . S
C779 C782 1.499 . S
C780 H760 0.950 . S
C780 C779 1.414 . S
C780 C781 1.374 . S
C781 H761 0.950 . S
C781 C777 1.385 . S
C781 C780 1.374 . S
C782 C779 1.499 . S
C782 C783 1.373 . S
C782 C784 1.389 . S
C783 H762 0.950 . S
C783 C782 1.373 . S
C783 C799 1.377 . S
C784 C782 1.389 . S
C784 C785 1.524 . S
C784 C798 1.377 . S
C785 C784 1.524 . S
C785 C786 1.397 . S
C785 C790 1.363 . S
C786 H763 0.950 . S
C786 C785 1.397 . S
C786 C787 1.334 . S
C787 H764 0.950 . S
C787 C786 1.334 . S
C787 C788 1.287 . S
C788 C787 1.287 . S
C788 C789 1.524 . S
C788 H807 0.913 . S
C789 H765 0.950 . S
C789 C788 1.524 . S
C789 C790 1.415 . S
C790 H766 0.950 . S
C790 C785 1.363 . S
C790 C789 1.415 . S
C791 H767 0.951 . S
C791 C792 1.366 . S
C791 C793 1.388 . S
C792 C791 1.366 . S
C792 C796 1.385 . S
C793 H768 0.951 . S
C793 C791 1.388 . S
C793 C794 1.366 . S
C794 C793 1.366 . S
C794 C795 1.414 . S
C794 C797 1.499 . S
C795 H769 0.950 . S
C795 C794 1.414 . S
C795 C796 1.374 . S
C796 H770 0.950 . S
C796 C792 1.385 . S
C796 C795 1.374 . S
C797 C794 1.499 . S
C797 C798 1.373 . S
C797 C799 1.389 . S
C798 H771 0.950 . S
C798 C784 1.377 . S
C798 C797 1.373 . S
C799 C783 1.377 . S
C799 C797 1.389 . S
C799 C800 1.524 . S
C800 C799 1.524 . S
C800 C801 1.397 . S
C800 C805 1.363 . S
C801 H772 0.950 . S
C801 C800 1.397 . S
C801 C802 1.334 . S
C802 H773 0.950 . S
C802 C801 1.334 . S
C802 C803 1.287 . S
C803 C802 1.287 . S
C803 C804 1.524 . S
C803 H806 0.999 . S
C804 H774 0.950 . S
C804 C803 1.524 . S
C804 C805 1.415 . S
C805 H775 0.950 . S
C805 C800 1.363 . S
C805 C804 1.415 . S
H806 C803 0.999 . S
H807 C788 0.913 . S
H808 C826 0.951 . S
H809 C828 0.951 . S
H810 C830 0.950 . S
H811 C831 0.950 . S
H812 C833 0.950 . S
H813 C836 0.950 . S
H814 C837 0.950 . S
H815 C839 0.950 . S
H816 C840 0.950 . S
H817 C841 0.954 1_455 S
H818 C843 0.951 . S
H819 C845 0.950 . S
H820 C846 0.950 . S
H821 C848 0.950 . S
H822 C851 0.950 . S
H823 C852 0.950 1_545 S
H824 C854 0.950 1_455 S
H825 C855 0.950 . S
C826 H808 0.951 . S
C826 C827 1.366 . S
C826 C828 1.388 . S
C827 C826 1.366 . S
C827 C831 1.385 . S
C828 H809 0.951 . S
C828 C826 1.388 . S
C828 C829 1.366 . S
C829 C828 1.366 . S
C829 C830 1.414 . S
C829 C832 1.499 . S
C830 H810 0.950 . S
C830 C829 1.414 . S
C830 C831 1.374 . S
C831 H811 0.950 . S
C831 C827 1.385 . S
C831 C830 1.374 . S
C832 C829 1.499 . S
C832 C833 1.373 . S
C832 C834 1.389 . S
C833 H812 0.950 . S
C833 C832 1.373 . S
C833 C849 1.377 . S
C834 C832 1.389 . S
C834 C835 1.524 . S
C834 C848 1.377 . S
C835 C834 1.524 . S
C835 C836 1.397 . S
C835 C840 1.363 . S
C836 H813 0.950 . S
C836 C835 1.397 . S
C836 C837 1.334 . S
C837 H814 0.950 . S
C837 C836 1.334 . S
C837 C838 1.287 . S
C838 C837 1.287 . S
C838 C839 1.524 . S
C838 H857 0.913 . S
C839 H815 0.950 . S
C839 C838 1.524 . S
C839 C840 1.415 . S
C840 H816 0.950 . S
C840 C835 1.363 . S
C840 C839 1.415 . S
C841 H817 0.954 1_655 S
C841 C842 1.366 . S
C841 C843 1.388 . S
C842 C841 1.366 . S
C842 C846 1.385 . S
C843 H818 0.951 . S
C843 C841 1.388 . S
C843 C844 1.366 . S
C844 C843 1.366 . S
C844 C845 1.414 . S
C844 C847 1.499 . S
C845 H819 0.950 . S
C845 C844 1.414 . S
C845 C846 1.374 . S
C846 H820 0.950 . S
C846 C842 1.385 . S
C846 C845 1.374 . S
C847 C844 1.499 . S
C847 C848 1.373 . S
C847 C849 1.389 . S
C848 H821 0.950 . S
C848 C834 1.377 . S
C848 C847 1.373 . S
C849 C833 1.377 . S
C849 C847 1.389 . S
C849 C850 1.524 . S
C850 C849 1.524 . S
C850 C851 1.397 . S
C850 C855 1.363 . S
C851 H822 0.950 . S
C851 C850 1.397 . S
C851 C852 1.334 . S
C852 H823 0.950 1_565 S
C852 C851 1.334 . S
C852 C853 1.287 . S
C853 C852 1.287 . S
C853 C854 1.524 . S
C853 H856 0.999 1_655 S
C854 H824 0.950 1_655 S
C854 C853 1.524 . S
C854 C855 1.415 . S
C855 H825 0.950 . S
C855 C850 1.363 . S
C855 C854 1.415 . S
H856 C853 0.999 1_455 S
H857 C838 0.913 . S
H858 C876 0.951 . S
H859 C878 0.951 . S
H860 C880 0.950 . S
H861 C881 0.950 . S
H862 C883 0.950 . S
H863 C886 0.950 . S
H864 C887 0.950 . S
H865 C889 0.950 . S
H866 C890 0.950 . S
H867 C891 0.951 . S
H868 C893 0.951 . S
H869 C895 0.950 . S
H870 C896 0.950 . S
H871 C898 0.950 . S
H872 C901 0.950 . S
H873 C902 0.950 . S
H874 C904 0.950 . S
H875 C905 0.950 . S
C876 H858 0.951 . S
C876 C877 1.366 . S
C876 C878 1.388 . S
C877 C876 1.366 . S
C877 C881 1.385 . S
C878 H859 0.951 . S
C878 C876 1.388 . S
C878 C879 1.366 . S
C879 C878 1.366 . S
C879 C880 1.414 . S
C879 C882 1.499 . S
C880 H860 0.950 . S
C880 C879 1.414 . S
C880 C881 1.374 . S
C881 H861 0.950 . S
C881 C877 1.385 . S
C881 C880 1.374 . S
C882 C879 1.499 . S
C882 C883 1.373 . S
C882 C884 1.389 . S
C883 H862 0.950 . S
C883 C882 1.373 . S
C883 C899 1.377 . S
C884 C882 1.389 . S
C884 C885 1.524 . S
C884 C898 1.377 . S
C885 C884 1.524 . S
C885 C886 1.397 . S
C885 C890 1.363 . S
C886 H863 0.950 . S
C886 C885 1.397 . S
C886 C887 1.334 . S
C887 H864 0.950 . S
C887 C886 1.334 . S
C887 C888 1.287 . S
C888 C887 1.287 . S
C888 C889 1.524 . S
C888 H907 0.913 . S
C889 H865 0.950 . S
C889 C888 1.524 . S
C889 C890 1.415 . S
C890 H866 0.950 . S
C890 C885 1.363 . S
C890 C889 1.415 . S
C891 H867 0.951 . S
C891 C892 1.366 . S
C891 C893 1.388 . S
C892 C891 1.366 . S
C892 C896 1.385 . S
C893 H868 0.951 . S
C893 C891 1.388 . S
C893 C894 1.366 . S
C894 C893 1.366 . S
C894 C895 1.414 . S
C894 C897 1.499 . S
C895 H869 0.950 . S
C895 C894 1.414 . S
C895 C896 1.374 . S
C896 H870 0.950 . S
C896 C892 1.385 . S
C896 C895 1.374 . S
C897 C894 1.499 . S
C897 C898 1.373 . S
C897 C899 1.389 . S
C898 H871 0.950 . S
C898 C884 1.377 . S
C898 C897 1.373 . S
C899 C883 1.377 . S
C899 C897 1.389 . S
C899 C900 1.524 . S
C900 C899 1.524 . S
C900 C901 1.397 . S
C900 C905 1.363 . S
C901 H872 0.950 . S
C901 C900 1.397 . S
C901 C902 1.334 . S
C902 H873 0.950 . S
C902 C901 1.334 . S
C902 C903 1.287 . S
C903 C902 1.287 . S
C903 C904 1.524 . S
C903 H906 0.999 . S
C904 H874 0.950 . S
C904 C903 1.524 . S
C904 C905 1.415 . S
C905 H875 0.950 . S
C905 C900 1.363 . S
C905 C904 1.415 . S
H906 C903 0.999 . S
H907 C888 0.913 . S
H908 C926 0.951 . S
H909 C928 0.951 . S
H910 C930 0.950 . S
H911 C931 0.950 . S
H912 C933 0.950 . S
H913 C936 0.950 . S
H914 C937 0.950 . S
H915 C939 0.950 . S
H916 C940 0.950 . S
H917 C941 0.951 . S
H918 C943 0.951 . S
H919 C945 0.950 . S
H920 C946 0.950 . S
H921 C948 0.950 . S
H922 C951 0.950 . S
H923 C952 0.950 . S
H924 C954 0.950 . S
H925 C955 0.950 . S
C926 H908 0.951 . S
C926 C927 1.366 . S
C926 C928 1.388 . S
C927 C926 1.366 . S
C927 C931 1.385 . S
C928 H909 0.951 . S
C928 C926 1.388 . S
C928 C929 1.366 . S
C929 C928 1.366 . S
C929 C930 1.414 . S
C929 C932 1.499 . S
C930 H910 0.950 . S
C930 C929 1.414 . S
C930 C931 1.374 . S
C931 H911 0.950 . S
C931 C927 1.385 . S
C931 C930 1.374 . S
C932 C929 1.499 . S
C932 C933 1.373 . S
C932 C934 1.389 . S
C933 H912 0.950 . S
C933 C932 1.373 . S
C933 C949 1.377 . S
C934 C932 1.389 . S
C934 C935 1.524 . S
C934 C948 1.377 . S
C935 C934 1.524 . S
C935 C936 1.397 . S
C935 C940 1.363 . S
C936 H913 0.950 . S
C936 C935 1.397 . S
C936 C937 1.334 . S
C937 H914 0.950 . S
C937 C936 1.334 . S
C937 C938 1.287 . S
C938 C937 1.287 . S
C938 C939 1.524 . S
C938 H957 0.913 . S
C939 H915 0.950 . S
C939 C938 1.524 . S
C939 C940 1.415 . S
C940 H916 0.950 . S
C940 C935 1.363 . S
C940 C939 1.415 . S
C941 H917 0.951 . S
C941 C942 1.366 . S
C941 C943 1.388 . S
C942 C941 1.366 . S
C942 C946 1.385 . S
C943 H918 0.951 . S
C943 C941 1.388 . S
C943 C944 1.366 . S
C944 C943 1.366 . S
C944 C945 1.414 . S
C944 C947 1.499 . S
C945 H919 0.950 . S
C945 C944 1.414 . S
C945 C946 1.374 . S
C946 H920 0.950 . S
C946 C942 1.385 . S
C946 C945 1.374 . S
C947 C944 1.499 . S
C947 C948 1.373 . S
C947 C949 1.389 . S
C948 H921 0.950 . S
C948 C934 1.377 . S
C948 C947 1.373 . S
C949 C933 1.377 . S
C949 C947 1.389 . S
C949 C950 1.524 . S
C950 C949 1.524 . S
C950 C951 1.397 . S
C950 C955 1.363 . S
C951 H922 0.950 . S
C951 C950 1.397 . S
C951 C952 1.334 . S
C952 H923 0.950 . S
C952 C951 1.334 . S
C952 C953 1.287 . S
C953 C952 1.287 . S
C953 C954 1.524 . S
C953 H956 0.999 . S
C954 H924 0.950 . S
C954 C953 1.524 . S
C954 C955 1.415 . S
C955 H925 0.950 . S
C955 C950 1.363 . S
C955 C954 1.415 . S
H956 C953 0.999 . S
H957 C938 0.913 . S
H958 C976 0.951 . S
H959 C978 0.951 . S
H960 C980 0.950 . S
H961 C981 0.950 . S
H962 C983 0.950 . S
H963 C986 0.950 . S
H964 C987 0.950 . S
H965 C989 0.950 . S
H966 C990 0.950 . S
H967 C991 0.951 . S
H968 C993 0.951 . S
H969 C995 0.950 . S
H970 C996 0.950 . S
H971 C998 0.950 . S
H972 C1001 0.950 . S
H973 C1002 0.950 . S
H974 C1004 0.950 . S
H975 C1005 0.950 . S
C976 H958 0.951 . S
C976 C977 1.366 . S
C976 C978 1.388 . S
C977 C976 1.366 . S
C977 C981 1.385 . S
C978 H959 0.951 . S
C978 C976 1.388 . S
C978 C979 1.366 . S
C979 C978 1.366 . S
C979 C980 1.414 . S
C979 C982 1.499 . S
C980 H960 0.950 . S
C980 C979 1.414 . S
C980 C981 1.374 . S
C981 H961 0.950 . S
C981 C977 1.385 . S
C981 C980 1.374 . S
C982 C979 1.499 . S
C982 C983 1.373 . S
C982 C984 1.389 . S
C983 H962 0.950 . S
C983 C982 1.373 . S
C983 C999 1.377 . S
C984 C982 1.389 . S
C984 C985 1.524 . S
C984 C998 1.377 . S
C985 C984 1.524 . S
C985 C986 1.397 . S
C985 C990 1.363 . S
C986 H963 0.950 . S
C986 C985 1.397 . S
C986 C987 1.334 . S
C987 H964 0.950 . S
C987 C986 1.334 . S
C987 C988 1.287 . S
C988 C987 1.287 . S
C988 C989 1.524 . S
C988 H1007 0.913 . S
C989 H965 0.950 . S
C989 C988 1.524 . S
C989 C990 1.415 . S
C990 H966 0.950 . S
C990 C985 1.363 . S
C990 C989 1.415 . S
C991 H967 0.951 . S
C991 C992 1.366 . S
C991 C993 1.388 . S
C992 C991 1.366 . S
C992 C996 1.385 . S
C993 H968 0.951 . S
C993 C991 1.388 . S
C993 C994 1.366 . S
C994 C993 1.366 . S
C994 C995 1.414 . S
C994 C997 1.499 . S
C995 H969 0.950 . S
C995 C994 1.414 . S
C995 C996 1.374 . S
C996 H970 0.950 . S
C996 C992 1.385 . S
C996 C995 1.374 . S
C997 C994 1.499 . S
C997 C998 1.373 . S
C997 C999 1.389 . S
C998 H971 0.950 . S
C998 C984 1.377 . S
C998 C997 1.373 . S
C999 C983 1.377 . S
C999 C997 1.389 . S
C999 C1000 1.524 . S
C1000 C999 1.524 . S
C1000 C1001 1.397 . S
C1000 C1005 1.363 . S
C1001 H972 0.950 . S
C1001 C1000 1.397 . S
C1001 C1002 1.334 . S
C1002 H973 0.950 . S
C1002 C1001 1.334 . S
C1002 C1003 1.287 . S
C1003 C1002 1.287 . S
C1003 C1004 1.524 . S
C1003 H1006 0.999 . S
C1004 H974 0.950 . S
C1004 C1003 1.524 . S
C1004 C1005 1.415 . S
C1005 H975 0.950 . S
C1005 C1000 1.363 . S
C1005 C1004 1.415 . S
H1006 C1003 0.999 . S
H1007 C988 0.913 . S
H1008 C1026 0.951 . S
H1009 C1028 0.951 . S
H1010 C1030 0.950 . S
H1011 C1031 0.950 . S
H1012 C1033 0.950 . S
H1013 C1036 0.950 . S
H1014 C1037 0.950 . S
H1015 C1039 0.950 . S
H1016 C1040 0.950 . S
H1017 C1041 0.951 . S
H1018 C1043 0.951 . S
H1019 C1045 0.950 . S
H1020 C1046 0.950 . S
H1021 C1048 0.950 . S
H1022 C1051 0.950 . S
H1023 C1052 0.950 . S
H1024 C1054 0.950 . S
H1025 C1055 0.950 . S
C1026 H1008 0.951 . S
C1026 C1027 1.366 . S
C1026 C1028 1.388 . S
C1027 C1026 1.366 . S
C1027 C1031 1.385 . S
C1028 H1009 0.951 . S
C1028 C1026 1.388 . S
C1028 C1029 1.366 . S
C1029 C1028 1.366 . S
C1029 C1030 1.414 . S
C1029 C1032 1.499 . S
C1030 H1010 0.950 . S
C1030 C1029 1.414 . S
C1030 C1031 1.374 . S
C1031 H1011 0.950 . S
C1031 C1027 1.385 . S
C1031 C1030 1.374 . S
C1032 C1029 1.499 . S
C1032 C1033 1.373 . S
C1032 C1034 1.389 . S
C1033 H1012 0.950 . S
C1033 C1032 1.373 . S
C1033 C1049 1.377 . S
C1034 C1032 1.389 . S
C1034 C1035 1.524 . S
C1034 C1048 1.377 . S
C1035 C1034 1.524 . S
C1035 C1036 1.397 . S
C1035 C1040 1.363 . S
C1036 H1013 0.950 . S
C1036 C1035 1.397 . S
C1036 C1037 1.334 . S
C1037 H1014 0.950 . S
C1037 C1036 1.334 . S
C1037 C1038 1.287 . S
C1038 C1037 1.287 . S
C1038 C1039 1.524 . S
C1038 H1057 0.913 . S
C1039 H1015 0.950 . S
C1039 C1038 1.524 . S
C1039 C1040 1.415 . S
C1040 H1016 0.950 . S
C1040 C1035 1.363 . S
C1040 C1039 1.415 . S
C1041 H1017 0.951 . S
C1041 C1042 1.366 . S
C1041 C1043 1.388 . S
C1042 C1041 1.366 . S
C1042 C1046 1.385 . S
C1043 H1018 0.951 . S
C1043 C1041 1.388 . S
C1043 C1044 1.366 . S
C1044 C1043 1.366 . S
C1044 C1045 1.414 . S
C1044 C1047 1.499 . S
C1045 H1019 0.950 . S
C1045 C1044 1.414 . S
C1045 C1046 1.374 . S
C1046 H1020 0.950 . S
C1046 C1042 1.385 . S
C1046 C1045 1.374 . S
C1047 C1044 1.499 . S
C1047 C1048 1.373 . S
C1047 C1049 1.389 . S
C1048 H1021 0.950 . S
C1048 C1034 1.377 . S
C1048 C1047 1.373 . S
C1049 C1033 1.377 . S
C1049 C1047 1.389 . S
C1049 C1050 1.524 . S
C1050 C1049 1.524 . S
C1050 C1051 1.397 . S
C1050 C1055 1.363 . S
C1051 H1022 0.950 . S
C1051 C1050 1.397 . S
C1051 C1052 1.334 . S
C1052 H1023 0.950 . S
C1052 C1051 1.334 . S
C1052 C1053 1.287 . S
C1053 C1052 1.287 . S
C1053 C1054 1.524 . S
C1053 H1056 0.999 . S
C1054 H1024 0.950 . S
C1054 C1053 1.524 . S
C1054 C1055 1.415 . S
C1055 H1025 0.950 . S
C1055 C1050 1.363 . S
C1055 C1054 1.415 . S
H1056 C1053 0.999 . S
H1057 C1038 0.913 . S
H1058 C1076 0.951 . S
H1059 C1078 0.951 . S
H1060 C1080 0.950 . S
H1061 C1081 0.950 . S
H1062 C1083 0.950 . S
H1063 C1086 0.950 . S
H1064 C1087 0.950 . S
H1065 C1089 0.950 . S
H1066 C1090 0.950 . S
H1067 C1091 0.951 . S
H1068 C1093 0.951 . S
H1069 C1095 0.950 . S
H1070 C1096 0.950 . S
H1071 C1098 0.950 . S
H1072 C1101 0.950 . S
H1073 C1102 0.950 . S
H1074 C1104 0.950 . S
H1075 C1105 0.950 . S
C1076 H1058 0.951 . S
C1076 C1077 1.366 . S
C1076 C1078 1.388 . S
C1077 C1076 1.366 . S
C1077 C1081 1.385 . S
C1078 H1059 0.951 . S
C1078 C1076 1.388 . S
C1078 C1079 1.366 . S
C1079 C1078 1.366 . S
C1079 C1080 1.414 . S
C1079 C1082 1.499 . S
C1080 H1060 0.950 . S
C1080 C1079 1.414 . S
C1080 C1081 1.374 . S
C1081 H1061 0.950 . S
C1081 C1077 1.385 . S
C1081 C1080 1.374 . S
C1082 C1079 1.499 . S
C1082 C1083 1.373 . S
C1082 C1084 1.389 . S
C1083 H1062 0.950 . S
C1083 C1082 1.373 . S
C1083 C1099 1.377 . S
C1084 C1082 1.389 . S
C1084 C1085 1.524 . S
C1084 C1098 1.377 . S
C1085 C1084 1.524 . S
C1085 C1086 1.397 . S
C1085 C1090 1.363 . S
C1086 H1063 0.950 . S
C1086 C1085 1.397 . S
C1086 C1087 1.334 . S
C1087 H1064 0.950 . S
C1087 C1086 1.334 . S
C1087 C1088 1.287 . S
C1088 C1087 1.287 . S
C1088 C1089 1.524 . S
C1088 H1107 0.913 . S
C1089 H1065 0.950 . S
C1089 C1088 1.524 . S
C1089 C1090 1.415 . S
C1090 H1066 0.950 . S
C1090 C1085 1.363 . S
C1090 C1089 1.415 . S
C1091 H1067 0.951 . S
C1091 C1092 1.366 . S
C1091 C1093 1.388 . S
C1092 C1091 1.366 . S
C1092 C1096 1.385 . S
C1093 H1068 0.951 . S
C1093 C1091 1.388 . S
C1093 C1094 1.366 . S
C1094 C1093 1.366 . S
C1094 C1095 1.414 . S
C1094 C1097 1.499 . S
C1095 H1069 0.950 . S
C1095 C1094 1.414 . S
C1095 C1096 1.374 . S
C1096 H1070 0.950 . S
C1096 C1092 1.385 . S
C1096 C1095 1.374 . S
C1097 C1094 1.499 . S
C1097 C1098 1.373 . S
C1097 C1099 1.389 . S
C1098 H1071 0.950 . S
C1098 C1084 1.377 . S
C1098 C1097 1.373 . S
C1099 C1083 1.377 . S
C1099 C1097 1.389 . S
C1099 C1100 1.524 . S
C1100 C1099 1.524 . S
C1100 C1101 1.397 . S
C1100 C1105 1.363 . S
C1101 H1072 0.950 . S
C1101 C1100 1.397 . S
C1101 C1102 1.334 1_565 S
C1102 H1073 0.950 . S
C1102 C1101 1.334 1_545 S
C1102 C1103 1.287 . S
C1103 C1102 1.287 . S
C1103 C1104 1.524 1_545 S
C1103 H1106 0.999 . S
C1104 H1074 0.950 . S
C1104 C1103 1.524 1_565 S
C1104 C1105 1.415 . S
C1105 H1075 0.950 . S
C1105 C1100 1.363 . S
C1105 C1104 1.415 . S
H1106 C1103 0.999 . S
H1107 C1088 0.913 . S
H1108 C1126 0.951 . S
H1109 C1128 0.951 . S
H1110 C1130 0.950 . S
H1111 C1131 0.950 . S
H1112 C1133 0.950 . S
H1113 C1136 0.950 . S
H1114 C1137 0.950 . S
H1115 C1139 0.950 . S
H1116 C1140 0.950 . S
H1117 C1141 0.951 . S
H1118 C1143 0.951 . S
H1119 C1145 0.950 . S
H1120 C1146 0.950 . S
H1121 C1148 0.950 . S
H1122 C1151 0.950 . S
H1123 C1152 0.950 . S
H1124 C1154 0.950 . S
H1125 C1155 0.950 . S
C1126 H1108 0.951 . S
C1126 C1127 1.366 . S
C1126 C1128 1.388 . S
C1127 C1126 1.366 . S
C1127 C1131 1.385 . S
C1128 H1109 0.951 . S
C1128 C1126 1.388 . S
C1128 C1129 1.366 . S
C1129 C1128 1.366 . S
C1129 C1130 1.414 . S
C1129 C1132 1.499 . S
C1130 H1110 0.950 . S
C1130 C1129 1.414 . S
C1130 C1131 1.374 . S
C1131 H1111 0.950 . S
C1131 C1127 1.385 . S
C1131 C1130 1.374 . S
C1132 C1129 1.499 . S
C1132 C1133 1.373 . S
C1132 C1134 1.389 . S
C1133 H1112 0.950 . S
C1133 C1132 1.373 . S
C1133 C1149 1.377 . S
C1134 C1132 1.389 . S
C1134 C1135 1.524 . S
C1134 C1148 1.377 . S
C1135 C1134 1.524 . S
C1135 C1136 1.397 . S
C1135 C1140 1.363 . S
C1136 H1113 0.950 . S
C1136 C1135 1.397 . S
C1136 C1137 1.334 . S
C1137 H1114 0.950 . S
C1137 C1136 1.334 . S
C1137 C1138 1.287 . S
C1138 C1137 1.287 . S
C1138 C1139 1.524 . S
C1138 H1157 0.913 . S
C1139 H1115 0.950 . S
C1139 C1138 1.524 . S
C1139 C1140 1.415 . S
C1140 H1116 0.950 . S
C1140 C1135 1.363 . S
C1140 C1139 1.415 . S
C1141 H1117 0.951 . S
C1141 C1142 1.366 . S
C1141 C1143 1.388 . S
C1142 C1141 1.366 . S
C1142 C1146 1.385 . S
C1143 H1118 0.951 . S
C1143 C1141 1.388 . S
C1143 C1144 1.366 . S
C1144 C1143 1.366 . S
C1144 C1145 1.414 . S
C1144 C1147 1.499 . S
C1145 H1119 0.950 . S
C1145 C1144 1.414 . S
C1145 C1146 1.374 . S
C1146 H1120 0.950 . S
C1146 C1142 1.385 . S
C1146 C1145 1.374 . S
C1147 C1144 1.499 . S
C1147 C1148 1.373 . S
C1147 C1149 1.389 . S
C1148 H1121 0.950 . S
C1148 C1134 1.377 . S
C1148 C1147 1.373 . S
C1149 C1133 1.377 . S
C1149 C1147 1.389 . S
C1149 C1150 1.524 . S
C1150 C1149 1.524 . S
C1150 C1151 1.397 . S
C1150 C1155 1.363 . S
C1151 H1122 0.950 . S
C1151 C1150 1.397 . S
C1151 C1152 1.334 . S
C1152 H1123 0.950 . S
C1152 C1151 1.334 . S
C1152 C1153 1.287 . S
C1153 C1152 1.287 . S
C1153 C1154 1.524 . S
C1153 H1156 0.999 . S
C1154 H1124 0.950 . S
C1154 C1153 1.524 . S
C1154 C1155 1.415 . S
C1155 H1125 0.950 . S
C1155 C1150 1.363 . S
C1155 C1154 1.415 . S
H1156 C1153 0.999 . S
H1157 C1138 0.913 . S
H1158 C1176 0.951 . S
H1159 C1178 0.951 . S
H1160 C1180 0.950 . S
H1161 C1181 0.950 . S
H1162 C1183 0.950 . S
H1163 C1186 0.950 . S
H1164 C1187 0.950 . S
H1165 C1189 0.950 . S
H1166 C1190 0.950 . S
H1167 C1191 0.951 . S
H1168 C1193 0.951 . S
H1169 C1195 0.950 . S
H1170 C1196 0.950 . S
H1171 C1198 0.950 . S
H1172 C1201 0.950 . S
H1173 C1202 0.950 . S
H1174 C1204 0.950 . S
H1175 C1205 0.950 . S
C1176 H1158 0.951 . S
C1176 C1177 1.366 . S
C1176 C1178 1.388 . S
C1177 C1176 1.366 . S
C1177 C1181 1.385 . S
C1178 H1159 0.951 . S
C1178 C1176 1.388 . S
C1178 C1179 1.366 . S
C1179 C1178 1.366 . S
C1179 C1180 1.414 . S
C1179 C1182 1.499 . S
C1180 H1160 0.950 . S
C1180 C1179 1.414 . S
C1180 C1181 1.374 . S
C1181 H1161 0.950 . S
C1181 C1177 1.385 . S
C1181 C1180 1.374 . S
C1182 C1179 1.499 . S
C1182 C1183 1.373 . S
C1182 C1184 1.389 . S
C1183 H1162 0.950 . S
C1183 C1182 1.373 . S
C1183 C1199 1.377 . S
C1184 C1182 1.389 . S
C1184 C1185 1.524 . S
C1184 C1198 1.377 . S
C1185 C1184 1.524 . S
C1185 C1186 1.397 . S
C1185 C1190 1.363 . S
C1186 H1163 0.950 . S
C1186 C1185 1.397 . S
C1186 C1187 1.334 . S
C1187 H1164 0.950 . S
C1187 C1186 1.334 . S
C1187 C1188 1.287 . S
C1188 C1187 1.287 . S
C1188 C1189 1.524 . S
C1188 H1207 0.913 . S
C1189 H1165 0.950 . S
C1189 C1188 1.524 . S
C1189 C1190 1.415 . S
C1190 H1166 0.950 . S
C1190 C1185 1.363 . S
C1190 C1189 1.415 . S
C1191 H1167 0.951 . S
C1191 C1192 1.366 . S
C1191 C1193 1.388 . S
C1192 C1191 1.366 . S
C1192 C1196 1.385 . S
C1193 H1168 0.951 . S
C1193 C1191 1.388 . S
C1193 C1194 1.366 . S
C1194 C1193 1.366 . S
C1194 C1195 1.414 . S
C1194 C1197 1.499 . S
C1195 H1169 0.950 . S
C1195 C1194 1.414 . S
C1195 C1196 1.374 . S
C1196 H1170 0.950 . S
C1196 C1192 1.385 . S
C1196 C1195 1.374 . S
C1197 C1194 1.499 . S
C1197 C1198 1.373 . S
C1197 C1199 1.389 . S
C1198 H1171 0.950 . S
C1198 C1184 1.377 . S
C1198 C1197 1.373 . S
C1199 C1183 1.377 . S
C1199 C1197 1.389 . S
C1199 C1200 1.524 . S
C1200 C1199 1.524 . S
C1200 C1201 1.397 . S
C1200 C1205 1.363 . S
C1201 H1172 0.950 . S
C1201 C1200 1.397 . S
C1201 C1202 1.334 . S
C1202 H1173 0.950 . S
C1202 C1201 1.334 . S
C1202 C1203 1.287 . S
C1203 C1202 1.287 . S
C1203 C1204 1.524 . S
C1203 H1206 0.999 . S
C1204 H1174 0.950 . S
C1204 C1203 1.524 . S
C1204 C1205 1.415 . S
C1205 H1175 0.950 . S
C1205 C1200 1.363 . S
C1205 C1204 1.415 . S
H1206 C1203 0.999 . S
H1207 C1188 0.913 . S
H1208 C1226 0.951 . S
H1209 C1228 0.951 . S
H1210 C1230 0.950 . S
H1211 C1231 0.950 . S
H1212 C1233 0.950 . S
H1213 C1236 0.950 . S
H1214 C1237 0.950 . S
H1215 C1239 0.950 . S
H1216 C1240 0.950 . S
H1217 C1241 0.951 . S
H1218 C1243 0.951 . S
H1219 C1245 0.950 . S
H1220 C1246 0.950 . S
H1221 C1248 0.950 . S
H1222 C1251 0.950 . S
H1223 C1252 0.950 . S
H1224 C1254 0.950 . S
H1225 C1255 0.950 . S
C1226 H1208 0.951 . S
C1226 C1227 1.366 . S
C1226 C1228 1.388 . S
C1227 C1226 1.366 . S
C1227 C1231 1.385 . S
C1228 H1209 0.951 . S
C1228 C1226 1.388 . S
C1228 C1229 1.366 . S
C1229 C1228 1.366 . S
C1229 C1230 1.414 . S
C1229 C1232 1.499 . S
C1230 H1210 0.950 . S
C1230 C1229 1.414 . S
C1230 C1231 1.374 . S
C1231 H1211 0.950 . S
C1231 C1227 1.385 . S
C1231 C1230 1.374 . S
C1232 C1229 1.499 . S
C1232 C1233 1.373 . S
C1232 C1234 1.389 . S
C1233 H1212 0.950 . S
C1233 C1232 1.373 . S
C1233 C1249 1.377 . S
C1234 C1232 1.389 . S
C1234 C1235 1.524 . S
C1234 C1248 1.377 . S
C1235 C1234 1.524 . S
C1235 C1236 1.397 . S
C1235 C1240 1.363 . S
C1236 H1213 0.950 . S
C1236 C1235 1.397 . S
C1236 C1237 1.334 . S
C1237 H1214 0.950 . S
C1237 C1236 1.334 . S
C1237 C1238 1.287 . S
C1238 C1237 1.287 . S
C1238 C1239 1.524 . S
C1238 H1257 0.913 . S
C1239 H1215 0.950 . S
C1239 C1238 1.524 . S
C1239 C1240 1.415 . S
C1240 H1216 0.950 . S
C1240 C1235 1.363 . S
C1240 C1239 1.415 . S
C1241 H1217 0.951 . S
C1241 C1242 1.366 . S
C1241 C1243 1.388 . S
C1242 C1241 1.366 . S
C1242 C1246 1.385 . S
C1243 H1218 0.951 . S
C1243 C1241 1.388 . S
C1243 C1244 1.366 . S
C1244 C1243 1.366 . S
C1244 C1245 1.414 . S
C1244 C1247 1.499 . S
C1245 H1219 0.950 . S
C1245 C1244 1.414 . S
C1245 C1246 1.374 . S
C1246 H1220 0.950 . S
C1246 C1242 1.385 . S
C1246 C1245 1.374 . S
C1247 C1244 1.499 . S
C1247 C1248 1.373 . S
C1247 C1249 1.389 . S
C1248 H1221 0.950 . S
C1248 C1234 1.377 . S
C1248 C1247 1.373 . S
C1249 C1233 1.377 . S
C1249 C1247 1.389 . S
C1249 C1250 1.524 . S
C1250 C1249 1.524 . S
C1250 C1251 1.397 . S
C1250 C1255 1.363 . S
C1251 H1222 0.950 . S
C1251 C1250 1.397 . S
C1251 C1252 1.334 . S
C1252 H1223 0.950 . S
C1252 C1251 1.334 . S
C1252 C1253 1.287 . S
C1253 C1252 1.287 . S
C1253 C1254 1.524 . S
C1253 H1256 0.999 . S
C1254 H1224 0.950 . S
C1254 C1253 1.524 . S
C1254 C1255 1.415 . S
C1255 H1225 0.950 . S
C1255 C1250 1.363 . S
C1255 C1254 1.415 . S
H1256 C1253 0.999 . S
H1257 C1238 0.913 . S
H1258 C1276 0.951 . S
H1259 C1278 0.951 . S
H1260 C1280 0.950 . S
H1261 C1281 0.950 . S
H1262 C1283 0.950 . S
H1263 C1286 0.950 . S
H1264 C1287 0.950 . S
H1265 C1289 0.950 . S
H1266 C1290 0.950 . S
H1267 C1291 0.951 . S
H1268 C1293 0.951 . S
H1269 C1295 0.950 . S
H1270 C1296 0.950 . S
H1271 C1298 0.950 . S
H1272 C1301 0.950 . S
H1273 C1302 0.950 . S
H1274 C1304 0.950 . S
H1275 C1305 0.950 . S
C1276 H1258 0.951 . S
C1276 C1277 1.366 . S
C1276 C1278 1.388 . S
C1277 C1276 1.366 . S
C1277 C1281 1.385 . S
C1278 H1259 0.951 . S
C1278 C1276 1.388 . S
C1278 C1279 1.366 . S
C1279 C1278 1.366 . S
C1279 C1280 1.414 . S
C1279 C1282 1.499 . S
C1280 H1260 0.950 . S
C1280 C1279 1.414 . S
C1280 C1281 1.374 . S
C1281 H1261 0.950 . S
C1281 C1277 1.385 . S
C1281 C1280 1.374 . S
C1282 C1279 1.499 . S
C1282 C1283 1.373 . S
C1282 C1284 1.389 . S
C1283 H1262 0.950 . S
C1283 C1282 1.373 . S
C1283 C1299 1.377 . S
C1284 C1282 1.389 . S
C1284 C1285 1.524 . S
C1284 C1298 1.377 . S
C1285 C1284 1.524 . S
C1285 C1286 1.397 . S
C1285 C1290 1.363 . S
C1286 H1263 0.950 . S
C1286 C1285 1.397 . S
C1286 C1287 1.334 . S
C1287 H1264 0.950 . S
C1287 C1286 1.334 . S
C1287 C1288 1.287 . S
C1288 C1287 1.287 . S
C1288 C1289 1.524 . S
C1288 H1307 0.913 . S
C1289 H1265 0.950 . S
C1289 C1288 1.524 . S
C1289 C1290 1.415 . S
C1290 H1266 0.950 . S
C1290 C1285 1.363 . S
C1290 C1289 1.415 . S
C1291 H1267 0.951 . S
C1291 C1292 1.366 . S
C1291 C1293 1.388 . S
C1292 C1291 1.366 . S
C1292 C1296 1.385 . S
C1293 H1268 0.951 . S
C1293 C1291 1.388 . S
C1293 C1294 1.366 . S
C1294 C1293 1.366 . S
C1294 C1295 1.414 . S
C1294 C1297 1.499 . S
C1295 H1269 0.950 . S
C1295 C1294 1.414 . S
C1295 C1296 1.374 . S
C1296 H1270 0.950 . S
C1296 C1292 1.385 . S
C1296 C1295 1.374 . S
C1297 C1294 1.499 . S
C1297 C1298 1.373 . S
C1297 C1299 1.389 . S
C1298 H1271 0.950 . S
C1298 C1284 1.377 . S
C1298 C1297 1.373 . S
C1299 C1283 1.377 . S
C1299 C1297 1.389 . S
C1299 C1300 1.524 . S
C1300 C1299 1.524 . S
C1300 C1301 1.397 . S
C1300 C1305 1.363 . S
C1301 H1272 0.950 . S
C1301 C1300 1.397 . S
C1301 C1302 1.334 . S
C1302 H1273 0.950 . S
C1302 C1301 1.334 . S
C1302 C1303 1.287 . S
C1303 C1302 1.287 . S
C1303 C1304 1.524 . S
C1303 H1306 0.999 . S
C1304 H1274 0.950 . S
C1304 C1303 1.524 . S
C1304 C1305 1.415 . S
C1305 H1275 0.950 . S
C1305 C1300 1.363 . S
C1305 C1304 1.415 . S
H1306 C1303 0.999 . S
H1307 C1288 0.913 . S
H1308 C1326 0.951 . S
H1309 C1328 0.951 . S
H1310 C1330 0.950 . S
H1311 C1331 0.950 . S
H1312 C1333 0.950 . S
H1313 C1336 0.950 . S
H1314 C1337 0.950 . S
H1315 C1339 0.950 . S
H1316 C1340 0.950 . S
H1317 C1341 0.951 . S
H1318 C1343 0.951 . S
H1319 C1345 0.950 . S
H1320 C1346 0.950 . S
H1321 C1348 0.950 . S
H1322 C1351 0.950 . S
H1323 C1352 0.950 . S
H1324 C1354 0.950 . S
H1325 C1355 0.950 . S
C1326 H1308 0.951 . S
C1326 C1327 1.366 . S
C1326 C1328 1.388 . S
C1327 C1326 1.366 . S
C1327 C1331 1.385 . S
C1328 H1309 0.951 . S
C1328 C1326 1.388 . S
C1328 C1329 1.366 . S
C1329 C1328 1.366 . S
C1329 C1330 1.414 . S
C1329 C1332 1.499 . S
C1330 H1310 0.950 . S
C1330 C1329 1.414 . S
C1330 C1331 1.374 . S
C1331 H1311 0.950 . S
C1331 C1327 1.385 . S
C1331 C1330 1.374 . S
C1332 C1329 1.499 . S
C1332 C1333 1.373 . S
C1332 C1334 1.389 . S
C1333 H1312 0.950 . S
C1333 C1332 1.373 . S
C1333 C1349 1.377 . S
C1334 C1332 1.389 . S
C1334 C1335 1.524 . S
C1334 C1348 1.377 . S
C1335 C1334 1.524 . S
C1335 C1336 1.397 . S
C1335 C1340 1.363 . S
C1336 H1313 0.950 . S
C1336 C1335 1.397 . S
C1336 C1337 1.334 . S
C1337 H1314 0.950 . S
C1337 C1336 1.334 . S
C1337 C1338 1.287 . S
C1338 C1337 1.287 . S
C1338 C1339 1.524 . S
C1338 H1357 0.913 . S
C1339 H1315 0.950 . S
C1339 C1338 1.524 . S
C1339 C1340 1.415 . S
C1340 H1316 0.950 . S
C1340 C1335 1.363 . S
C1340 C1339 1.415 . S
C1341 H1317 0.951 . S
C1341 C1342 1.366 . S
C1341 C1343 1.388 . S
C1342 C1341 1.366 . S
C1342 C1346 1.385 . S
C1343 H1318 0.951 . S
C1343 C1341 1.388 . S
C1343 C1344 1.366 . S
C1344 C1343 1.366 . S
C1344 C1345 1.414 . S
C1344 C1347 1.499 . S
C1345 H1319 0.950 . S
C1345 C1344 1.414 . S
C1345 C1346 1.374 . S
C1346 H1320 0.950 . S
C1346 C1342 1.385 . S
C1346 C1345 1.374 . S
C1347 C1344 1.499 . S
C1347 C1348 1.373 . S
C1347 C1349 1.389 . S
C1348 H1321 0.950 . S
C1348 C1334 1.377 . S
C1348 C1347 1.373 . S
C1349 C1333 1.377 . S
C1349 C1347 1.389 . S
C1349 C1350 1.524 . S
C1350 C1349 1.524 . S
C1350 C1351 1.397 . S
C1350 C1355 1.363 . S
C1351 H1322 0.950 . S
C1351 C1350 1.397 . S
C1351 C1352 1.334 . S
C1352 H1323 0.950 . S
C1352 C1351 1.334 . S
C1352 C1353 1.287 . S
C1353 C1352 1.287 . S
C1353 C1354 1.524 . S
C1353 H1356 0.999 . S
C1354 H1324 0.950 . S
C1354 C1353 1.524 . S
C1354 C1355 1.415 . S
C1355 H1325 0.950 . S
C1355 C1350 1.363 . S
C1355 C1354 1.415 . S
H1356 C1353 0.999 . S
H1357 C1338 0.913 . S
H1358 C1376 0.951 . S
H1359 C1378 0.951 . S
H1360 C1380 0.950 . S
H1361 C1381 0.950 . S
H1362 C1383 0.950 . S
H1363 C1386 0.950 . S
H1364 C1387 0.950 . S
H1365 C1389 0.950 . S
H1366 C1390 0.950 . S
H1367 C1391 0.951 . S
H1368 C1393 0.951 . S
H1369 C1395 0.950 . S
H1370 C1396 0.950 . S
H1371 C1398 0.950 . S
H1372 C1401 0.950 . S
H1373 C1402 0.950 . S
H1374 C1404 0.950 . S
H1375 C1405 0.950 . S
C1376 H1358 0.951 . S
C1376 C1377 1.366 . S
C1376 C1378 1.388 . S
C1377 C1376 1.366 . S
C1377 C1381 1.385 . S
C1378 H1359 0.951 . S
C1378 C1376 1.388 . S
C1378 C1379 1.366 . S
C1379 C1378 1.366 . S
C1379 C1380 1.414 . S
C1379 C1382 1.499 . S
C1380 H1360 0.950 . S
C1380 C1379 1.414 . S
C1380 C1381 1.374 . S
C1381 H1361 0.950 . S
C1381 C1377 1.385 . S
C1381 C1380 1.374 . S
C1382 C1379 1.499 . S
C1382 C1383 1.373 . S
C1382 C1384 1.389 . S
C1383 H1362 0.950 . S
C1383 C1382 1.373 . S
C1383 C1399 1.377 . S
C1384 C1382 1.389 . S
C1384 C1385 1.524 . S
C1384 C1398 1.377 . S
C1385 C1384 1.524 . S
C1385 C1386 1.397 . S
C1385 C1390 1.363 . S
C1386 H1363 0.950 . S
C1386 C1385 1.397 . S
C1386 C1387 1.334 . S
C1387 H1364 0.950 . S
C1387 C1386 1.334 . S
C1387 C1388 1.287 . S
C1388 C1387 1.287 . S
C1388 C1389 1.524 . S
C1388 H1407 0.913 . S
C1389 H1365 0.950 . S
C1389 C1388 1.524 . S
C1389 C1390 1.415 . S
C1390 H1366 0.950 . S
C1390 C1385 1.363 . S
C1390 C1389 1.415 . S
C1391 H1367 0.951 . S
C1391 C1392 1.366 . S
C1391 C1393 1.388 . S
C1392 C1391 1.366 . S
C1392 C1396 1.385 . S
C1393 H1368 0.951 . S
C1393 C1391 1.388 . S
C1393 C1394 1.366 . S
C1394 C1393 1.366 . S
C1394 C1395 1.414 . S
C1394 C1397 1.499 . S
C1395 H1369 0.950 . S
C1395 C1394 1.414 . S
C1395 C1396 1.374 . S
C1396 H1370 0.950 . S
C1396 C1392 1.385 . S
C1396 C1395 1.374 . S
C1397 C1394 1.499 . S
C1397 C1398 1.373 . S
C1397 C1399 1.389 . S
C1398 H1371 0.950 . S
C1398 C1384 1.377 . S
C1398 C1397 1.373 . S
C1399 C1383 1.377 . S
C1399 C1397 1.389 . S
C1399 C1400 1.524 . S
C1400 C1399 1.524 . S
C1400 C1401 1.397 . S
C1400 C1405 1.363 . S
C1401 H1372 0.950 . S
C1401 C1400 1.397 . S
C1401 C1402 1.334 . S
C1402 H1373 0.950 . S
C1402 C1401 1.334 . S
C1402 C1403 1.287 . S
C1403 C1402 1.287 . S
C1403 C1404 1.524 . S
C1403 H1406 0.999 . S
C1404 H1374 0.950 . S
C1404 C1403 1.524 . S
C1404 C1405 1.415 . S
C1405 H1375 0.950 . S
C1405 C1400 1.363 . S
C1405 C1404 1.415 . S
H1406 C1403 0.999 . S
H1407 C1388 0.913 . S
H1408 C1426 0.951 . S
H1409 C1428 0.951 . S
H1410 C1430 0.950 . S
H1411 C1431 0.950 . S
H1412 C1433 0.950 . S
H1413 C1436 0.950 . S
H1414 C1437 0.950 . S
H1415 C1439 0.950 . S
H1416 C1440 0.950 . S
H1417 C1441 0.951 . S
H1418 C1443 0.951 . S
H1419 C1445 0.950 . S
H1420 C1446 0.950 . S
H1421 C1448 0.950 . S
H1422 C1451 0.950 . S
H1423 C1452 0.950 1_554 S
H1424 C1454 0.950 . S
H1425 C1455 0.950 . S
C1426 H1408 0.951 . S
C1426 C1427 1.366 . S
C1426 C1428 1.388 . S
C1427 C1426 1.366 . S
C1427 C1431 1.385 . S
C1428 H1409 0.951 . S
C1428 C1426 1.388 . S
C1428 C1429 1.366 . S
C1429 C1428 1.366 . S
C1429 C1430 1.414 . S
C1429 C1432 1.499 . S
C1430 H1410 0.950 . S
C1430 C1429 1.414 . S
C1430 C1431 1.374 . S
C1431 H1411 0.950 . S
C1431 C1427 1.385 . S
C1431 C1430 1.374 . S
C1432 C1429 1.499 . S
C1432 C1433 1.373 . S
C1432 C1434 1.389 . S
C1433 H1412 0.950 . S
C1433 C1432 1.373 . S
C1433 C1449 1.377 . S
C1434 C1432 1.389 . S
C1434 C1435 1.524 . S
C1434 C1448 1.377 . S
C1435 C1434 1.524 . S
C1435 C1436 1.397 . S
C1435 C1440 1.363 . S
C1436 H1413 0.950 . S
C1436 C1435 1.397 . S
C1436 C1437 1.334 . S
C1437 H1414 0.950 . S
C1437 C1436 1.334 . S
C1437 C1438 1.287 . S
C1438 C1437 1.287 . S
C1438 C1439 1.524 . S
C1438 H1457 0.913 . S
C1439 H1415 0.950 . S
C1439 C1438 1.524 . S
C1439 C1440 1.415 . S
C1440 H1416 0.950 . S
C1440 C1435 1.363 . S
C1440 C1439 1.415 . S
C1441 H1417 0.951 . S
C1441 C1442 1.366 . S
C1441 C1443 1.388 . S
C1442 C1441 1.366 . S
C1442 C1446 1.385 . S
C1443 H1418 0.951 . S
C1443 C1441 1.388 . S
C1443 C1444 1.366 . S
C1444 C1443 1.366 . S
C1444 C1445 1.414 . S
C1444 C1447 1.499 . S
C1445 H1419 0.950 . S
C1445 C1444 1.414 . S
C1445 C1446 1.374 . S
C1446 H1420 0.950 . S
C1446 C1442 1.385 . S
C1446 C1445 1.374 . S
C1447 C1444 1.499 . S
C1447 C1448 1.373 . S
C1447 C1449 1.389 . S
C1448 H1421 0.950 . S
C1448 C1434 1.377 . S
C1448 C1447 1.373 . S
C1449 C1433 1.377 . S
C1449 C1447 1.389 . S
C1449 C1450 1.524 . S
C1450 C1449 1.524 . S
C1450 C1451 1.397 . S
C1450 C1455 1.363 . S
C1451 H1422 0.950 . S
C1451 C1450 1.397 . S
C1451 C1452 1.334 . S
C1452 H1423 0.950 1_556 S
C1452 C1451 1.334 . S
C1452 C1453 1.287 . S
C1453 C1452 1.287 . S
C1453 C1454 1.524 . S
C1453 H1456 0.999 1_556 S
C1454 H1424 0.950 . S
C1454 C1453 1.524 . S
C1454 C1455 1.415 . S
C1455 H1425 0.950 . S
C1455 C1450 1.363 . S
C1455 C1454 1.415 . S
H1456 C1453 0.999 1_554 S
H1457 C1438 0.913 . S
H1458 C1476 0.951 . S
H1459 C1478 0.951 . S
H1460 C1480 0.950 . S
H1461 C1481 0.950 . S
H1462 C1483 0.950 . S
H1463 C1486 0.950 . S
H1464 C1487 0.950 . S
H1465 C1489 0.950 . S
H1466 C1490 0.950 . S
H1467 C1491 0.951 . S
H1468 C1493 0.951 . S
H1469 C1495 0.950 . S
H1470 C1496 0.950 . S
H1471 C1498 0.950 . S
H1472 C1501 0.950 . S
H1473 C1502 0.950 . S
H1474 C1504 0.950 . S
H1475 C1505 0.950 . S
C1476 H1458 0.951 . S
C1476 C1477 1.366 . S
C1476 C1478 1.388 . S
C1477 C1476 1.366 . S
C1477 C1481 1.385 . S
C1478 H1459 0.951 . S
C1478 C1476 1.388 . S
C1478 C1479 1.366 . S
C1479 C1478 1.366 . S
C1479 C1480 1.414 . S
C1479 C1482 1.499 . S
C1480 H1460 0.950 . S
C1480 C1479 1.414 . S
C1480 C1481 1.374 . S
C1481 H1461 0.950 . S
C1481 C1477 1.385 . S
C1481 C1480 1.374 . S
C1482 C1479 1.499 . S
C1482 C1483 1.373 . S
C1482 C1484 1.389 . S
C1483 H1462 0.950 . S
C1483 C1482 1.373 . S
C1483 C1499 1.377 . S
C1484 C1482 1.389 . S
C1484 C1485 1.524 . S
C1484 C1498 1.377 . S
C1485 C1484 1.524 . S
C1485 C1486 1.397 . S
C1485 C1490 1.363 . S
C1486 H1463 0.950 . S
C1486 C1485 1.397 . S
C1486 C1487 1.334 . S
C1487 H1464 0.950 . S
C1487 C1486 1.334 . S
C1487 C1488 1.287 . S
C1488 C1487 1.287 . S
C1488 C1489 1.524 . S
C1488 H1507 0.913 . S
C1489 H1465 0.950 . S
C1489 C1488 1.524 . S
C1489 C1490 1.415 . S
C1490 H1466 0.950 . S
C1490 C1485 1.363 . S
C1490 C1489 1.415 . S
C1491 H1467 0.951 . S
C1491 C1492 1.366 . S
C1491 C1493 1.388 . S
C1492 C1491 1.366 . S
C1492 C1496 1.385 . S
C1493 H1468 0.951 . S
C1493 C1491 1.388 . S
C1493 C1494 1.366 . S
C1494 C1493 1.366 . S
C1494 C1495 1.414 . S
C1494 C1497 1.499 . S
C1495 H1469 0.950 . S
C1495 C1494 1.414 . S
C1495 C1496 1.374 . S
C1496 H1470 0.950 . S
C1496 C1492 1.385 . S
C1496 C1495 1.374 . S
C1497 C1494 1.499 . S
C1497 C1498 1.373 . S
C1497 C1499 1.389 . S
C1498 H1471 0.950 . S
C1498 C1484 1.377 . S
C1498 C1497 1.373 . S
C1499 C1483 1.377 . S
C1499 C1497 1.389 . S
C1499 C1500 1.524 . S
C1500 C1499 1.524 . S
C1500 C1501 1.397 . S
C1500 C1505 1.363 . S
C1501 H1472 0.950 . S
C1501 C1500 1.397 . S
C1501 C1502 1.334 . S
C1502 H1473 0.950 . S
C1502 C1501 1.334 . S
C1502 C1503 1.287 . S
C1503 C1502 1.287 . S
C1503 C1504 1.524 . S
C1503 H1506 0.999 . S
C1504 H1474 0.950 . S
C1504 C1503 1.524 . S
C1504 C1505 1.415 . S
C1505 H1475 0.950 . S
C1505 C1500 1.363 . S
C1505 C1504 1.415 . S
H1506 C1503 0.999 . S
H1507 C1488 0.913 . S
H1508 C1526 0.951 . S
H1509 C1528 0.951 . S
H1510 C1530 0.950 . S
H1511 C1531 0.950 . S
H1512 C1533 0.950 . S
H1513 C1536 0.950 . S
H1514 C1537 0.950 . S
H1515 C1539 0.950 . S
H1516 C1540 0.950 . S
H1517 C1541 0.951 . S
H1518 C1543 0.951 . S
H1519 C1545 0.950 . S
H1520 C1546 0.950 . S
H1521 C1548 0.950 . S
H1522 C1551 0.950 . S
H1523 C1552 0.950 . S
H1524 C1554 0.950 . S
H1525 C1555 0.950 . S
C1526 H1508 0.951 . S
C1526 C1527 1.366 . S
C1526 C1528 1.388 . S
C1527 C1526 1.366 . S
C1527 C1531 1.385 . S
C1528 H1509 0.951 . S
C1528 C1526 1.388 . S
C1528 C1529 1.366 . S
C1529 C1528 1.366 . S
C1529 C1530 1.414 . S
C1529 C1532 1.499 . S
C1530 H1510 0.950 . S
C1530 C1529 1.414 . S
C1530 C1531 1.374 . S
C1531 H1511 0.950 . S
C1531 C1527 1.385 . S
C1531 C1530 1.374 . S
C1532 C1529 1.499 . S
C1532 C1533 1.373 . S
C1532 C1534 1.389 . S
C1533 H1512 0.950 . S
C1533 C1532 1.373 . S
C1533 C1549 1.377 . S
C1534 C1532 1.389 . S
C1534 C1535 1.524 . S
C1534 C1548 1.377 . S
C1535 C1534 1.524 . S
C1535 C1536 1.397 . S
C1535 C1540 1.363 . S
C1536 H1513 0.950 . S
C1536 C1535 1.397 . S
C1536 C1537 1.334 . S
C1537 H1514 0.950 . S
C1537 C1536 1.334 . S
C1537 C1538 1.287 . S
C1538 C1537 1.287 . S
C1538 C1539 1.524 . S
C1538 H1557 0.913 . S
C1539 H1515 0.950 . S
C1539 C1538 1.524 . S
C1539 C1540 1.415 . S
C1540 H1516 0.950 . S
C1540 C1535 1.363 . S
C1540 C1539 1.415 . S
C1541 H1517 0.951 . S
C1541 C1542 1.366 . S
C1541 C1543 1.388 . S
C1542 C1541 1.366 . S
C1542 C1546 1.385 . S
C1543 H1518 0.951 . S
C1543 C1541 1.388 . S
C1543 C1544 1.366 . S
C1544 C1543 1.366 . S
C1544 C1545 1.414 . S
C1544 C1547 1.499 . S
C1545 H1519 0.950 . S
C1545 C1544 1.414 . S
C1545 C1546 1.374 . S
C1546 H1520 0.950 . S
C1546 C1542 1.385 . S
C1546 C1545 1.374 . S
C1547 C1544 1.499 . S
C1547 C1548 1.373 . S
C1547 C1549 1.389 . S
C1548 H1521 0.950 . S
C1548 C1534 1.377 . S
C1548 C1547 1.373 . S
C1549 C1533 1.377 . S
C1549 C1547 1.389 . S
C1549 C1550 1.524 . S
C1550 C1549 1.524 . S
C1550 C1551 1.397 . S
C1550 C1555 1.363 . S
C1551 H1522 0.950 . S
C1551 C1550 1.397 . S
C1551 C1552 1.334 . S
C1552 H1523 0.950 . S
C1552 C1551 1.334 . S
C1552 C1553 1.287 . S
C1553 C1552 1.287 . S
C1553 C1554 1.524 . S
C1553 H1556 0.999 . S
C1554 H1524 0.950 . S
C1554 C1553 1.524 . S
C1554 C1555 1.415 . S
C1555 H1525 0.950 . S
C1555 C1550 1.363 . S
C1555 C1554 1.415 . S
H1556 C1553 0.999 . S
H1557 C1538 0.913 . S
H1558 C1576 0.951 . S
H1559 C1578 0.951 . S
H1560 C1580 0.950 . S
H1561 C1581 0.950 . S
H1562 C1583 0.950 . S
H1563 C1586 0.950 . S
H1564 C1587 0.950 . S
H1565 C1589 0.950 . S
H1566 C1590 0.950 . S
H1567 C1591 0.951 . S
H1568 C1593 0.951 . S
H1569 C1595 0.950 . S
H1570 C1596 0.950 . S
H1571 C1598 0.950 . S
H1572 C1601 0.950 . S
H1573 C1602 0.950 . S
H1574 C1604 0.950 . S
H1575 C1605 0.950 . S
C1576 H1558 0.951 . S
C1576 C1577 1.366 . S
C1576 C1578 1.388 . S
C1577 C1576 1.366 . S
C1577 C1581 1.385 . S
C1578 H1559 0.951 . S
C1578 C1576 1.388 . S
C1578 C1579 1.366 . S
C1579 C1578 1.366 . S
C1579 C1580 1.414 . S
C1579 C1582 1.499 . S
C1580 H1560 0.950 . S
C1580 C1579 1.414 . S
C1580 C1581 1.374 . S
C1581 H1561 0.950 . S
C1581 C1577 1.385 . S
C1581 C1580 1.374 . S
C1582 C1579 1.499 . S
C1582 C1583 1.373 . S
C1582 C1584 1.389 . S
C1583 H1562 0.950 . S
C1583 C1582 1.373 . S
C1583 C1599 1.377 . S
C1584 C1582 1.389 . S
C1584 C1585 1.524 . S
C1584 C1598 1.377 . S
C1585 C1584 1.524 . S
C1585 C1586 1.397 . S
C1585 C1590 1.363 . S
C1586 H1563 0.950 . S
C1586 C1585 1.397 . S
C1586 C1587 1.334 . S
C1587 H1564 0.950 . S
C1587 C1586 1.334 . S
C1587 C1588 1.287 . S
C1588 C1587 1.287 . S
C1588 C1589 1.524 . S
C1588 H1607 0.913 . S
C1589 H1565 0.950 . S
C1589 C1588 1.524 . S
C1589 C1590 1.415 . S
C1590 H1566 0.950 . S
C1590 C1585 1.363 . S
C1590 C1589 1.415 . S
C1591 H1567 0.951 . S
C1591 C1592 1.366 . S
C1591 C1593 1.388 . S
C1592 C1591 1.366 . S
C1592 C1596 1.385 . S
C1593 H1568 0.951 . S
C1593 C1591 1.388 . S
C1593 C1594 1.366 . S
C1594 C1593 1.366 . S
C1594 C1595 1.414 . S
C1594 C1597 1.499 . S
C1595 H1569 0.950 . S
C1595 C1594 1.414 . S
C1595 C1596 1.374 . S
C1596 H1570 0.950 . S
C1596 C1592 1.385 . S
C1596 C1595 1.374 . S
C1597 C1594 1.499 . S
C1597 C1598 1.373 . S
C1597 C1599 1.389 . S
C1598 H1571 0.950 . S
C1598 C1584 1.377 . S
C1598 C1597 1.373 . S
C1599 C1583 1.377 . S
C1599 C1597 1.389 . S
C1599 C1600 1.524 . S
C1600 C1599 1.524 . S
C1600 C1601 1.397 . S
C1600 C1605 1.363 . S
C1601 H1572 0.950 . S
C1601 C1600 1.397 . S
C1601 C1602 1.334 . S
C1602 H1573 0.950 . S
C1602 C1601 1.334 . S
C1602 C1603 1.287 . S
C1603 C1602 1.287 . S
C1603 C1604 1.524 . S
C1603 H1606 0.999 . S
C1604 H1574 0.950 . S
C1604 C1603 1.524 . S
C1604 C1605 1.415 . S
C1605 H1575 0.950 . S
C1605 C1600 1.363 . S
C1605 C1604 1.415 . S
H1606 C1603 0.999 . S
H1607 C1588 0.913 . S
H1608 C1626 0.951 . S
H1609 C1628 0.951 . S
H1610 C1630 0.950 . S
H1611 C1631 0.950 . S
H1612 C1633 0.950 . S
H1613 C1636 0.950 . S
H1614 C1637 0.950 . S
H1615 C1639 0.950 . S
H1616 C1640 0.950 . S
H1617 C1641 0.951 . S
H1618 C1643 0.951 . S
H1619 C1645 0.950 . S
H1620 C1646 0.950 . S
H1621 C1648 0.950 . S
H1622 C1651 0.950 . S
H1623 C1652 0.950 . S
H1624 C1654 0.950 . S
H1625 C1655 0.950 . S
C1626 H1608 0.951 . S
C1626 C1627 1.366 . S
C1626 C1628 1.388 . S
C1627 C1626 1.366 . S
C1627 C1631 1.385 . S
C1628 H1609 0.951 . S
C1628 C1626 1.388 . S
C1628 C1629 1.366 . S
C1629 C1628 1.366 . S
C1629 C1630 1.414 . S
C1629 C1632 1.499 . S
C1630 H1610 0.950 . S
C1630 C1629 1.414 . S
C1630 C1631 1.374 . S
C1631 H1611 0.950 . S
C1631 C1627 1.385 . S
C1631 C1630 1.374 . S
C1632 C1629 1.499 . S
C1632 C1633 1.373 . S
C1632 C1634 1.389 . S
C1633 H1612 0.950 . S
C1633 C1632 1.373 . S
C1633 C1649 1.377 . S
C1634 C1632 1.389 . S
C1634 C1635 1.524 . S
C1634 C1648 1.377 . S
C1635 C1634 1.524 . S
C1635 C1636 1.397 . S
C1635 C1640 1.363 . S
C1636 H1613 0.950 . S
C1636 C1635 1.397 . S
C1636 C1637 1.334 . S
C1637 H1614 0.950 . S
C1637 C1636 1.334 . S
C1637 C1638 1.287 . S
C1638 C1637 1.287 . S
C1638 C1639 1.524 . S
C1638 H1657 0.913 . S
C1639 H1615 0.950 . S
C1639 C1638 1.524 . S
C1639 C1640 1.415 . S
C1640 H1616 0.950 . S
C1640 C1635 1.363 . S
C1640 C1639 1.415 . S
C1641 H1617 0.951 . S
C1641 C1642 1.366 . S
C1641 C1643 1.388 . S
C1642 C1641 1.366 . S
C1642 C1646 1.385 . S
C1643 H1618 0.951 . S
C1643 C1641 1.388 . S
C1643 C1644 1.366 . S
C1644 C1643 1.366 . S
C1644 C1645 1.414 . S
C1644 C1647 1.499 . S
C1645 H1619 0.950 . S
C1645 C1644 1.414 . S
C1645 C1646 1.374 . S
C1646 H1620 0.950 . S
C1646 C1642 1.385 . S
C1646 C1645 1.374 . S
C1647 C1644 1.499 . S
C1647 C1648 1.373 . S
C1647 C1649 1.389 . S
C1648 H1621 0.950 . S
C1648 C1634 1.377 . S
C1648 C1647 1.373 . S
C1649 C1633 1.377 . S
C1649 C1647 1.389 . S
C1649 C1650 1.524 . S
C1650 C1649 1.524 . S
C1650 C1651 1.397 . S
C1650 C1655 1.363 . S
C1651 H1622 0.950 . S
C1651 C1650 1.397 . S
C1651 C1652 1.334 1_545 S
C1652 H1623 0.950 . S
C1652 C1651 1.334 1_565 S
C1652 C1653 1.287 . S
C1653 C1652 1.287 . S
C1653 C1654 1.524 1_565 S
C1653 H1656 0.999 . S
C1654 H1624 0.950 . S
C1654 C1653 1.524 1_545 S
C1654 C1655 1.415 . S
C1655 H1625 0.950 . S
C1655 C1650 1.363 . S
C1655 C1654 1.415 . S
H1656 C1653 0.999 . S
H1657 C1638 0.913 . S
H1658 C1676 0.951 . S
H1659 C1678 0.951 . S
H1660 C1680 0.950 . S
H1661 C1681 0.950 . S
H1662 C1683 0.950 . S
H1663 C1686 0.950 . S
H1664 C1687 0.950 . S
H1665 C1689 0.950 . S
H1666 C1690 0.950 . S
H1667 C1691 0.951 . S
H1668 C1693 0.951 . S
H1669 C1695 0.950 . S
H1670 C1696 0.950 . S
H1671 C1698 0.950 . S
H1672 C1701 0.950 . S
H1673 C1702 0.950 . S
H1674 C1704 0.950 . S
H1675 C1705 0.950 . S
C1676 H1658 0.951 . S
C1676 C1677 1.366 . S
C1676 C1678 1.388 . S
C1677 C1676 1.366 . S
C1677 C1681 1.385 . S
C1678 H1659 0.951 . S
C1678 C1676 1.388 . S
C1678 C1679 1.366 . S
C1679 C1678 1.366 . S
C1679 C1680 1.414 . S
C1679 C1682 1.499 . S
C1680 H1660 0.950 . S
C1680 C1679 1.414 . S
C1680 C1681 1.374 . S
C1681 H1661 0.950 . S
C1681 C1677 1.385 . S
C1681 C1680 1.374 . S
C1682 C1679 1.499 . S
C1682 C1683 1.373 . S
C1682 C1684 1.389 . S
C1683 H1662 0.950 . S
C1683 C1682 1.373 . S
C1683 C1699 1.377 . S
C1684 C1682 1.389 . S
C1684 C1685 1.524 . S
C1684 C1698 1.377 . S
C1685 C1684 1.524 . S
C1685 C1686 1.397 . S
C1685 C1690 1.363 . S
C1686 H1663 0.950 . S
C1686 C1685 1.397 . S
C1686 C1687 1.334 . S
C1687 H1664 0.950 . S
C1687 C1686 1.334 . S
C1687 C1688 1.287 . S
C1688 C1687 1.287 . S
C1688 C1689 1.524 . S
C1688 H1707 0.913 . S
C1689 H1665 0.950 . S
C1689 C1688 1.524 . S
C1689 C1690 1.415 . S
C1690 H1666 0.950 . S
C1690 C1685 1.363 . S
C1690 C1689 1.415 . S
C1691 H1667 0.951 . S
C1691 C1692 1.366 . S
C1691 C1693 1.388 . S
C1692 C1691 1.366 . S
C1692 C1696 1.385 . S
C1693 H1668 0.951 . S
C1693 C1691 1.388 . S
C1693 C1694 1.366 . S
C1694 C1693 1.366 . S
C1694 C1695 1.414 . S
C1694 C1697 1.499 . S
C1695 H1669 0.950 . S
C1695 C1694 1.414 . S
C1695 C1696 1.374 . S
C1696 H1670 0.950 . S
C1696 C1692 1.385 . S
C1696 C1695 1.374 . S
C1697 C1694 1.499 . S
C1697 C1698 1.373 . S
C1697 C1699 1.389 . S
C1698 H1671 0.950 . S
C1698 C1684 1.377 . S
C1698 C1697 1.373 . S
C1699 C1683 1.377 . S
C1699 C1697 1.389 . S
C1699 C1700 1.524 . S
C1700 C1699 1.524 . S
C1700 C1701 1.397 . S
C1700 C1705 1.363 . S
C1701 H1672 0.950 . S
C1701 C1700 1.397 . S
C1701 C1702 1.334 . S
C1702 H1673 0.950 . S
C1702 C1701 1.334 . S
C1702 C1703 1.287 . S
C1703 C1702 1.287 . S
C1703 C1704 1.524 . S
C1703 H1706 0.999 . S
C1704 H1674 0.950 . S
C1704 C1703 1.524 . S
C1704 C1705 1.415 . S
C1705 H1675 0.950 . S
C1705 C1700 1.363 . S
C1705 C1704 1.415 . S
H1706 C1703 0.999 . S
H1707 C1688 0.913 . S
H1708 C1726 0.951 . S
H1709 C1728 0.951 . S
H1710 C1730 0.950 . S
H1711 C1731 0.950 . S
H1712 C1733 0.950 . S
H1713 C1736 0.950 . S
H1714 C1737 0.950 . S
H1715 C1739 0.950 . S
H1716 C1740 0.950 . S
H1717 C1741 0.951 . S
H1718 C1743 0.951 . S
H1719 C1745 0.950 . S
H1720 C1746 0.950 . S
H1721 C1748 0.950 . S
H1722 C1751 0.950 . S
H1723 C1752 0.950 . S
H1724 C1754 0.950 . S
H1725 C1755 0.950 . S
C1726 H1708 0.951 . S
C1726 C1727 1.366 . S
C1726 C1728 1.388 . S
C1727 C1726 1.366 . S
C1727 C1731 1.385 . S
C1728 H1709 0.951 . S
C1728 C1726 1.388 . S
C1728 C1729 1.366 . S
C1729 C1728 1.366 . S
C1729 C1730 1.414 . S
C1729 C1732 1.499 . S
C1730 H1710 0.950 . S
C1730 C1729 1.414 . S
C1730 C1731 1.374 . S
C1731 H1711 0.950 . S
C1731 C1727 1.385 . S
C1731 C1730 1.374 . S
C1732 C1729 1.499 . S
C1732 C1733 1.373 . S
C1732 C1734 1.389 . S
C1733 H1712 0.950 . S
C1733 C1732 1.373 . S
C1733 C1749 1.377 . S
C1734 C1732 1.389 . S
C1734 C1735 1.524 . S
C1734 C1748 1.377 . S
C1735 C1734 1.524 . S
C1735 C1736 1.397 . S
C1735 C1740 1.363 . S
C1736 H1713 0.950 . S
C1736 C1735 1.397 . S
C1736 C1737 1.334 . S
C1737 H1714 0.950 . S
C1737 C1736 1.334 . S
C1737 C1738 1.287 . S
C1738 C1737 1.287 . S
C1738 C1739 1.524 . S
C1738 H1757 0.913 . S
C1739 H1715 0.950 . S
C1739 C1738 1.524 . S
C1739 C1740 1.415 . S
C1740 H1716 0.950 . S
C1740 C1735 1.363 . S
C1740 C1739 1.415 . S
C1741 H1717 0.951 . S
C1741 C1742 1.366 . S
C1741 C1743 1.388 . S
C1742 C1741 1.366 . S
C1742 C1746 1.385 . S
C1743 H1718 0.951 . S
C1743 C1741 1.388 . S
C1743 C1744 1.366 . S
C1744 C1743 1.366 . S
C1744 C1745 1.414 . S
C1744 C1747 1.499 . S
C1745 H1719 0.950 . S
C1745 C1744 1.414 . S
C1745 C1746 1.374 . S
C1746 H1720 0.950 . S
C1746 C1742 1.385 . S
C1746 C1745 1.374 . S
C1747 C1744 1.499 . S
C1747 C1748 1.373 . S
C1747 C1749 1.389 . S
C1748 H1721 0.950 . S
C1748 C1734 1.377 . S
C1748 C1747 1.373 . S
C1749 C1733 1.377 . S
C1749 C1747 1.389 . S
C1749 C1750 1.524 . S
C1750 C1749 1.524 . S
C1750 C1751 1.397 . S
C1750 C1755 1.363 . S
C1751 H1722 0.950 . S
C1751 C1750 1.397 . S
C1751 C1752 1.334 . S
C1752 H1723 0.950 . S
C1752 C1751 1.334 . S
C1752 C1753 1.287 . S
C1753 C1752 1.287 . S
C1753 C1754 1.524 . S
C1753 H1756 0.999 . S
C1754 H1724 0.950 . S
C1754 C1753 1.524 . S
C1754 C1755 1.415 . S
C1755 H1725 0.950 . S
C1755 C1750 1.363 . S
C1755 C1754 1.415 . S
H1756 C1753 0.999 . S
H1757 C1738 0.913 . S
H1758 C1776 0.951 . S
H1759 C1778 0.951 . S
H1760 C1780 0.950 . S
H1761 C1781 0.950 . S
H1762 C1783 0.950 . S
H1763 C1786 0.950 . S
H1764 C1787 0.950 . S
H1765 C1789 0.950 . S
H1766 C1790 0.950 . S
H1767 C1791 0.951 . S
H1768 C1793 0.951 . S
H1769 C1795 0.950 . S
H1770 C1796 0.950 . S
H1771 C1798 0.950 . S
H1772 C1801 0.950 . S
H1773 C1802 0.950 . S
H1774 C1804 0.950 . S
H1775 C1805 0.950 . S
C1776 H1758 0.951 . S
C1776 C1777 1.366 . S
C1776 C1778 1.388 . S
C1777 C1776 1.366 . S
C1777 C1781 1.385 . S
C1778 H1759 0.951 . S
C1778 C1776 1.388 . S
C1778 C1779 1.366 . S
C1779 C1778 1.366 . S
C1779 C1780 1.414 . S
C1779 C1782 1.499 . S
C1780 H1760 0.950 . S
C1780 C1779 1.414 . S
C1780 C1781 1.374 . S
C1781 H1761 0.950 . S
C1781 C1777 1.385 . S
C1781 C1780 1.374 . S
C1782 C1779 1.499 . S
C1782 C1783 1.373 . S
C1782 C1784 1.389 . S
C1783 H1762 0.950 . S
C1783 C1782 1.373 . S
C1783 C1799 1.377 . S
C1784 C1782 1.389 . S
C1784 C1785 1.524 . S
C1784 C1798 1.377 . S
C1785 C1784 1.524 . S
C1785 C1786 1.397 . S
C1785 C1790 1.363 . S
C1786 H1763 0.950 . S
C1786 C1785 1.397 . S
C1786 C1787 1.334 . S
C1787 H1764 0.950 . S
C1787 C1786 1.334 . S
C1787 C1788 1.287 . S
C1788 C1787 1.287 . S
C1788 C1789 1.524 . S
C1788 H1807 0.913 . S
C1789 H1765 0.950 . S
C1789 C1788 1.524 . S
C1789 C1790 1.415 . S
C1790 H1766 0.950 . S
C1790 C1785 1.363 . S
C1790 C1789 1.415 . S
C1791 H1767 0.951 . S
C1791 C1792 1.366 . S
C1791 C1793 1.388 . S
C1792 C1791 1.366 . S
C1792 C1796 1.385 . S
C1793 H1768 0.951 . S
C1793 C1791 1.388 . S
C1793 C1794 1.366 . S
C1794 C1793 1.366 . S
C1794 C1795 1.414 . S
C1794 C1797 1.499 . S
C1795 H1769 0.950 . S
C1795 C1794 1.414 . S
C1795 C1796 1.374 . S
C1796 H1770 0.950 . S
C1796 C1792 1.385 . S
C1796 C1795 1.374 . S
C1797 C1794 1.499 . S
C1797 C1798 1.373 . S
C1797 C1799 1.389 . S
C1798 H1771 0.950 . S
C1798 C1784 1.377 . S
C1798 C1797 1.373 . S
C1799 C1783 1.377 . S
C1799 C1797 1.389 . S
C1799 C1800 1.524 . S
C1800 C1799 1.524 . S
C1800 C1801 1.397 . S
C1800 C1805 1.363 . S
C1801 H1772 0.950 . S
C1801 C1800 1.397 . S
C1801 C1802 1.334 . S
C1802 H1773 0.950 . S
C1802 C1801 1.334 . S
C1802 C1803 1.287 . S
C1803 C1802 1.287 . S
C1803 C1804 1.524 . S
C1803 H1806 0.999 . S
C1804 H1774 0.950 . S
C1804 C1803 1.524 . S
C1804 C1805 1.415 . S
C1805 H1775 0.950 . S
C1805 C1800 1.363 . S
C1805 C1804 1.415 . S
H1806 C1803 0.999 . S
H1807 C1788 0.913 . S
H1808 C1826 0.951 . S
H1809 C1828 0.951 . S
H1810 C1830 0.950 . S
H1811 C1831 0.950 . S
H1812 C1833 0.950 . S
H1813 C1836 0.950 . S
H1814 C1837 0.950 . S
H1815 C1839 0.950 . S
H1816 C1840 0.950 . S
H1817 C1841 0.951 . S
H1818 C1843 0.951 . S
H1819 C1845 0.950 . S
H1820 C1846 0.950 . S
H1821 C1848 0.950 . S
H1822 C1851 0.950 . S
H1823 C1852 0.950 . S
H1824 C1854 0.950 . S
H1825 C1855 0.950 . S
C1826 H1808 0.951 . S
C1826 C1827 1.366 . S
C1826 C1828 1.388 . S
C1827 C1826 1.366 . S
C1827 C1831 1.385 . S
C1828 H1809 0.951 . S
C1828 C1826 1.388 . S
C1828 C1829 1.366 . S
C1829 C1828 1.366 . S
C1829 C1830 1.414 . S
C1829 C1832 1.499 . S
C1830 H1810 0.950 . S
C1830 C1829 1.414 . S
C1830 C1831 1.374 . S
C1831 H1811 0.950 . S
C1831 C1827 1.385 . S
C1831 C1830 1.374 . S
C1832 C1829 1.499 . S
C1832 C1833 1.373 . S
C1832 C1834 1.389 . S
C1833 H1812 0.950 . S
C1833 C1832 1.373 . S
C1833 C1849 1.377 . S
C1834 C1832 1.389 . S
C1834 C1835 1.524 . S
C1834 C1848 1.377 . S
C1835 C1834 1.524 . S
C1835 C1836 1.397 . S
C1835 C1840 1.363 . S
C1836 H1813 0.950 . S
C1836 C1835 1.397 . S
C1836 C1837 1.334 . S
C1837 H1814 0.950 . S
C1837 C1836 1.334 . S
C1837 C1838 1.287 . S
C1838 C1837 1.287 . S
C1838 C1839 1.524 . S
C1838 H1857 0.913 . S
C1839 H1815 0.950 . S
C1839 C1838 1.524 . S
C1839 C1840 1.415 . S
C1840 H1816 0.950 . S
C1840 C1835 1.363 . S
C1840 C1839 1.415 . S
C1841 H1817 0.951 . S
C1841 C1842 1.366 . S
C1841 C1843 1.388 . S
C1842 C1841 1.366 . S
C1842 C1846 1.385 . S
C1843 H1818 0.951 . S
C1843 C1841 1.388 . S
C1843 C1844 1.366 . S
C1844 C1843 1.366 . S
C1844 C1845 1.414 . S
C1844 C1847 1.499 . S
C1845 H1819 0.950 . S
C1845 C1844 1.414 . S
C1845 C1846 1.374 . S
C1846 H1820 0.950 . S
C1846 C1842 1.385 . S
C1846 C1845 1.374 . S
C1847 C1844 1.499 . S
C1847 C1848 1.373 . S
C1847 C1849 1.389 . S
C1848 H1821 0.950 . S
C1848 C1834 1.377 . S
C1848 C1847 1.373 . S
C1849 C1833 1.377 . S
C1849 C1847 1.389 . S
C1849 C1850 1.524 . S
C1850 C1849 1.524 . S
C1850 C1851 1.397 . S
C1850 C1855 1.363 . S
C1851 H1822 0.950 . S
C1851 C1850 1.397 . S
C1851 C1852 1.334 . S
C1852 H1823 0.950 . S
C1852 C1851 1.334 . S
C1852 C1853 1.287 . S
C1853 C1852 1.287 . S
C1853 C1854 1.524 . S
C1853 H1856 0.999 . S
C1854 H1824 0.950 . S
C1854 C1853 1.524 . S
C1854 C1855 1.415 . S
C1855 H1825 0.950 . S
C1855 C1850 1.363 . S
C1855 C1854 1.415 . S
H1856 C1853 0.999 . S
H1857 C1838 0.913 . S
H1858 C1876 0.951 . S
H1859 C1878 0.951 . S
H1860 C1880 0.950 . S
H1861 C1881 0.950 . S
H1862 C1883 0.950 . S
H1863 C1886 0.950 . S
H1864 C1887 0.950 . S
H1865 C1889 0.950 . S
H1866 C1890 0.950 . S
H1867 C1891 0.951 . S
H1868 C1893 0.951 . S
H1869 C1895 0.950 . S
H1870 C1896 0.950 . S
H1871 C1898 0.950 . S
H1872 C1901 0.950 . S
H1873 C1902 0.950 . S
H1874 C1904 0.950 . S
H1875 C1905 0.950 . S
C1876 H1858 0.951 . S
C1876 C1877 1.366 . S
C1876 C1878 1.388 . S
C1877 C1876 1.366 . S
C1877 C1881 1.385 . S
C1878 H1859 0.951 . S
C1878 C1876 1.388 . S
C1878 C1879 1.366 . S
C1879 C1878 1.366 . S
C1879 C1880 1.414 . S
C1879 C1882 1.499 . S
C1880 H1860 0.950 . S
C1880 C1879 1.414 . S
C1880 C1881 1.374 . S
C1881 H1861 0.950 . S
C1881 C1877 1.385 . S
C1881 C1880 1.374 . S
C1882 C1879 1.499 . S
C1882 C1883 1.373 . S
C1882 C1884 1.389 . S
C1883 H1862 0.950 . S
C1883 C1882 1.373 . S
C1883 C1899 1.377 . S
C1884 C1882 1.389 . S
C1884 C1885 1.524 . S
C1884 C1898 1.377 . S
C1885 C1884 1.524 . S
C1885 C1886 1.397 . S
C1885 C1890 1.363 . S
C1886 H1863 0.950 . S
C1886 C1885 1.397 . S
C1886 C1887 1.334 . S
C1887 H1864 0.950 . S
C1887 C1886 1.334 . S
C1887 C1888 1.287 . S
C1888 C1887 1.287 . S
C1888 C1889 1.524 . S
C1888 H1907 0.913 . S
C1889 H1865 0.950 . S
C1889 C1888 1.524 . S
C1889 C1890 1.415 . S
C1890 H1866 0.950 . S
C1890 C1885 1.363 . S
C1890 C1889 1.415 . S
C1891 H1867 0.951 . S
C1891 C1892 1.366 . S
C1891 C1893 1.388 . S
C1892 C1891 1.366 . S
C1892 C1896 1.385 . S
C1893 H1868 0.951 . S
C1893 C1891 1.388 . S
C1893 C1894 1.366 . S
C1894 C1893 1.366 . S
C1894 C1895 1.414 . S
C1894 C1897 1.499 . S
C1895 H1869 0.950 . S
C1895 C1894 1.414 . S
C1895 C1896 1.374 . S
C1896 H1870 0.950 . S
C1896 C1892 1.385 . S
C1896 C1895 1.374 . S
C1897 C1894 1.499 . S
C1897 C1898 1.373 . S
C1897 C1899 1.389 . S
C1898 H1871 0.950 . S
C1898 C1884 1.377 . S
C1898 C1897 1.373 . S
C1899 C1883 1.377 . S
C1899 C1897 1.389 . S
C1899 C1900 1.524 . S
C1900 C1899 1.524 . S
C1900 C1901 1.397 . S
C1900 C1905 1.363 . S
C1901 H1872 0.950 . S
C1901 C1900 1.397 . S
C1901 C1902 1.334 . S
C1902 H1873 0.950 . S
C1902 C1901 1.334 . S
C1902 C1903 1.287 . S
C1903 C1902 1.287 . S
C1903 C1904 1.524 . S
C1903 H1906 0.999 . S
C1904 H1874 0.950 . S
C1904 C1903 1.524 . S
C1904 C1905 1.415 . S
C1905 H1875 0.950 . S
C1905 C1900 1.363 . S
C1905 C1904 1.415 . S
H1906 C1903 0.999 . S
H1907 C1888 0.913 . S
H1908 C1926 0.951 . S
H1909 C1928 0.951 . S
H1910 C1930 0.950 . S
H1911 C1931 0.950 . S
H1912 C1933 0.950 . S
H1913 C1936 0.950 . S
H1914 C1937 0.950 . S
H1915 C1939 0.950 . S
H1916 C1940 0.950 . S
H1917 C1941 0.951 . S
H1918 C1943 0.951 . S
H1919 C1945 0.950 . S
H1920 C1946 0.950 . S
H1921 C1948 0.950 . S
H1922 C1951 0.950 . S
H1923 C1952 0.950 . S
H1924 C1954 0.950 . S
H1925 C1955 0.950 . S
C1926 H1908 0.951 . S
C1926 C1927 1.366 . S
C1926 C1928 1.388 . S
C1927 C1926 1.366 . S
C1927 C1931 1.385 . S
C1928 H1909 0.951 . S
C1928 C1926 1.388 . S
C1928 C1929 1.366 . S
C1929 C1928 1.366 . S
C1929 C1930 1.414 . S
C1929 C1932 1.499 . S
C1930 H1910 0.950 . S
C1930 C1929 1.414 . S
C1930 C1931 1.374 . S
C1931 H1911 0.950 . S
C1931 C1927 1.385 . S
C1931 C1930 1.374 . S
C1932 C1929 1.499 . S
C1932 C1933 1.373 . S
C1932 C1934 1.389 . S
C1933 H1912 0.950 . S
C1933 C1932 1.373 . S
C1933 C1949 1.377 . S
C1934 C1932 1.389 . S
C1934 C1935 1.524 . S
C1934 C1948 1.377 . S
C1935 C1934 1.524 . S
C1935 C1936 1.397 . S
C1935 C1940 1.363 . S
C1936 H1913 0.950 . S
C1936 C1935 1.397 . S
C1936 C1937 1.334 . S
C1937 H1914 0.950 . S
C1937 C1936 1.334 . S
C1937 C1938 1.287 . S
C1938 C1937 1.287 . S
C1938 C1939 1.524 . S
C1938 H1957 0.913 . S
C1939 H1915 0.950 . S
C1939 C1938 1.524 . S
C1939 C1940 1.415 . S
C1940 H1916 0.950 . S
C1940 C1935 1.363 . S
C1940 C1939 1.415 . S
C1941 H1917 0.951 . S
C1941 C1942 1.366 . S
C1941 C1943 1.388 . S
C1942 C1941 1.366 . S
C1942 C1946 1.385 . S
C1943 H1918 0.951 . S
C1943 C1941 1.388 . S
C1943 C1944 1.366 . S
C1944 C1943 1.366 . S
C1944 C1945 1.414 . S
C1944 C1947 1.499 . S
C1945 H1919 0.950 . S
C1945 C1944 1.414 . S
C1945 C1946 1.374 . S
C1946 H1920 0.950 . S
C1946 C1942 1.385 . S
C1946 C1945 1.374 . S
C1947 C1944 1.499 . S
C1947 C1948 1.373 . S
C1947 C1949 1.389 . S
C1948 H1921 0.950 . S
C1948 C1934 1.377 . S
C1948 C1947 1.373 . S
C1949 C1933 1.377 . S
C1949 C1947 1.389 . S
C1949 C1950 1.524 . S
C1950 C1949 1.524 . S
C1950 C1951 1.397 . S
C1950 C1955 1.363 . S
C1951 H1922 0.950 . S
C1951 C1950 1.397 . S
C1951 C1952 1.334 . S
C1952 H1923 0.950 . S
C1952 C1951 1.334 . S
C1952 C1953 1.287 . S
C1953 C1952 1.287 . S
C1953 C1954 1.524 . S
C1953 H1956 0.999 . S
C1954 H1924 0.950 . S
C1954 C1953 1.524 . S
C1954 C1955 1.415 . S
C1955 H1925 0.950 . S
C1955 C1950 1.363 . S
C1955 C1954 1.415 . S
H1956 C1953 0.999 . S
H1957 C1938 0.913 . S
H1958 C1976 0.951 . S
H1959 C1978 0.951 . S
H1960 C1980 0.950 . S
H1961 C1981 0.950 . S
H1962 C1983 0.950 . S
H1963 C1986 0.950 . S
H1964 C1987 0.950 . S
H1965 C1989 0.950 . S
H1966 C1990 0.950 . S
H1967 C1991 0.951 . S
H1968 C1993 0.951 . S
H1969 C1995 0.950 . S
H1970 C1996 0.950 . S
H1971 C1998 0.950 . S
H1972 C2001 0.950 . S
H1973 C2002 0.950 . S
H1974 C2004 0.950 . S
H1975 C2005 0.950 . S
C1976 H1958 0.951 . S
C1976 C1977 1.366 . S
C1976 C1978 1.388 . S
C1977 C1976 1.366 . S
C1977 C1981 1.385 . S
C1978 H1959 0.951 . S
C1978 C1976 1.388 . S
C1978 C1979 1.366 . S
C1979 C1978 1.366 . S
C1979 C1980 1.414 . S
C1979 C1982 1.499 . S
C1980 H1960 0.950 . S
C1980 C1979 1.414 . S
C1980 C1981 1.374 . S
C1981 H1961 0.950 . S
C1981 C1977 1.385 . S
C1981 C1980 1.374 . S
C1982 C1979 1.499 . S
C1982 C1983 1.373 . S
C1982 C1984 1.389 . S
C1983 H1962 0.950 . S
C1983 C1982 1.373 . S
C1983 C1999 1.377 . S
C1984 C1982 1.389 . S
C1984 C1985 1.524 . S
C1984 C1998 1.377 . S
C1985 C1984 1.524 . S
C1985 C1986 1.397 . S
C1985 C1990 1.363 . S
C1986 H1963 0.950 . S
C1986 C1985 1.397 . S
C1986 C1987 1.334 . S
C1987 H1964 0.950 . S
C1987 C1986 1.334 . S
C1987 C1988 1.287 . S
C1988 C1987 1.287 . S
C1988 C1989 1.524 . S
C1988 H2007 0.913 . S
C1989 H1965 0.950 . S
C1989 C1988 1.524 . S
C1989 C1990 1.415 . S
C1990 H1966 0.950 . S
C1990 C1985 1.363 . S
C1990 C1989 1.415 . S
C1991 H1967 0.951 . S
C1991 C1992 1.366 . S
C1991 C1993 1.388 . S
C1992 C1991 1.366 . S
C1992 C1996 1.385 . S
C1993 H1968 0.951 . S
C1993 C1991 1.388 . S
C1993 C1994 1.366 . S
C1994 C1993 1.366 . S
C1994 C1995 1.414 . S
C1994 C1997 1.499 . S
C1995 H1969 0.950 . S
C1995 C1994 1.414 . S
C1995 C1996 1.374 . S
C1996 H1970 0.950 . S
C1996 C1992 1.385 . S
C1996 C1995 1.374 . S
C1997 C1994 1.499 . S
C1997 C1998 1.373 . S
C1997 C1999 1.389 . S
C1998 H1971 0.950 . S
C1998 C1984 1.377 . S
C1998 C1997 1.373 . S
C1999 C1983 1.377 . S
C1999 C1997 1.389 . S
C1999 C2000 1.524 . S
C2000 C1999 1.524 . S
C2000 C2001 1.397 . S
C2000 C2005 1.363 . S
C2001 H1972 0.950 . S
C2001 C2000 1.397 . S
C2001 C2002 1.334 . S
C2002 H1973 0.950 . S
C2002 C2001 1.334 . S
C2002 C2003 1.287 . S
C2003 C2002 1.287 . S
C2003 C2004 1.524 . S
C2003 H2006 0.999 . S
C2004 H1974 0.950 . S
C2004 C2003 1.524 . S
C2004 C2005 1.415 . S
C2005 H1975 0.950 . S
C2005 C2000 1.363 . S
C2005 C2004 1.415 . S
H2006 C2003 0.999 . S
H2007 C1988 0.913 . S
H2008 C2026 0.951 . S
H2009 C2028 0.951 . S
H2010 C2030 0.950 . S
H2011 C2031 0.950 . S
H2012 C2033 0.950 . S
H2013 C2036 0.950 . S
H2014 C2037 0.950 . S
H2015 C2039 0.950 . S
H2016 C2040 0.950 . S
H2017 C2041 0.951 . S
H2018 C2043 0.951 . S
H2019 C2045 0.950 . S
H2020 C2046 0.950 . S
H2021 C2048 0.950 . S
H2022 C2051 0.950 . S
H2023 C2052 0.950 . S
H2024 C2054 0.950 . S
H2025 C2055 0.950 . S
C2026 H2008 0.951 . S
C2026 C2027 1.366 . S
C2026 C2028 1.388 . S
C2027 C2026 1.366 . S
C2027 C2031 1.385 . S
C2028 H2009 0.951 . S
C2028 C2026 1.388 . S
C2028 C2029 1.366 . S
C2029 C2028 1.366 . S
C2029 C2030 1.414 . S
C2029 C2032 1.499 . S
C2030 H2010 0.950 . S
C2030 C2029 1.414 . S
C2030 C2031 1.374 . S
C2031 H2011 0.950 . S
C2031 C2027 1.385 . S
C2031 C2030 1.374 . S
C2032 C2029 1.499 . S
C2032 C2033 1.373 . S
C2032 C2034 1.389 . S
C2033 H2012 0.950 . S
C2033 C2032 1.373 . S
C2033 C2049 1.377 . S
C2034 C2032 1.389 . S
C2034 C2035 1.524 . S
C2034 C2048 1.377 . S
C2035 C2034 1.524 . S
C2035 C2036 1.397 . S
C2035 C2040 1.363 . S
C2036 H2013 0.950 . S
C2036 C2035 1.397 . S
C2036 C2037 1.334 . S
C2037 H2014 0.950 . S
C2037 C2036 1.334 . S
C2037 C2038 1.287 . S
C2038 C2037 1.287 . S
C2038 C2039 1.524 . S
C2038 H2057 0.913 . S
C2039 H2015 0.950 . S
C2039 C2038 1.524 . S
C2039 C2040 1.415 . S
C2040 H2016 0.950 . S
C2040 C2035 1.363 . S
C2040 C2039 1.415 . S
C2041 H2017 0.951 . S
C2041 C2042 1.366 . S
C2041 C2043 1.388 . S
C2042 C2041 1.366 . S
C2042 C2046 1.385 . S
C2043 H2018 0.951 . S
C2043 C2041 1.388 . S
C2043 C2044 1.366 . S
C2044 C2043 1.366 . S
C2044 C2045 1.414 . S
C2044 C2047 1.499 . S
C2045 H2019 0.950 . S
C2045 C2044 1.414 . S
C2045 C2046 1.374 . S
C2046 H2020 0.950 . S
C2046 C2042 1.385 . S
C2046 C2045 1.374 . S
C2047 C2044 1.499 . S
C2047 C2048 1.373 . S
C2047 C2049 1.389 . S
C2048 H2021 0.950 . S
C2048 C2034 1.377 . S
C2048 C2047 1.373 . S
C2049 C2033 1.377 . S
C2049 C2047 1.389 . S
C2049 C2050 1.524 . S
C2050 C2049 1.524 . S
C2050 C2051 1.397 . S
C2050 C2055 1.363 . S
C2051 H2022 0.950 . S
C2051 C2050 1.397 . S
C2051 C2052 1.334 . S
C2052 H2023 0.950 . S
C2052 C2051 1.334 . S
C2052 C2053 1.287 . S
C2053 C2052 1.287 . S
C2053 C2054 1.524 . S
C2053 H2056 0.999 . S
C2054 H2024 0.950 . S
C2054 C2053 1.524 . S
C2054 C2055 1.415 . S
C2055 H2025 0.950 . S
C2055 C2050 1.363 . S
C2055 C2054 1.415 . S
H2056 C2053 0.999 . S
H2057 C2038 0.913 . S
H2058 C2076 0.951 . S
H2059 C2078 0.951 . S
H2060 C2080 0.950 . S
H2061 C2081 0.950 . S
H2062 C2083 0.950 . S
H2063 C2086 0.950 . S
H2064 C2087 0.950 . S
H2065 C2089 0.950 . S
H2066 C2090 0.950 . S
H2067 C2091 0.951 . S
H2068 C2093 0.951 . S
H2069 C2095 0.950 . S
H2070 C2096 0.950 . S
H2071 C2098 0.950 . S
H2072 C2101 0.950 . S
H2073 C2102 0.950 . S
H2074 C2104 0.950 . S
H2075 C2105 0.950 . S
C2076 H2058 0.951 . S
C2076 C2077 1.366 . S
C2076 C2078 1.388 . S
C2077 C2076 1.366 . S
C2077 C2081 1.385 . S
C2078 H2059 0.951 . S
C2078 C2076 1.388 . S
C2078 C2079 1.366 . S
C2079 C2078 1.366 . S
C2079 C2080 1.414 . S
C2079 C2082 1.499 . S
C2080 H2060 0.950 . S
C2080 C2079 1.414 . S
C2080 C2081 1.374 . S
C2081 H2061 0.950 . S
C2081 C2077 1.385 . S
C2081 C2080 1.374 . S
C2082 C2079 1.499 . S
C2082 C2083 1.373 . S
C2082 C2084 1.389 . S
C2083 H2062 0.950 . S
C2083 C2082 1.373 . S
C2083 C2099 1.377 . S
C2084 C2082 1.389 . S
C2084 C2085 1.524 . S
C2084 C2098 1.377 . S
C2085 C2084 1.524 . S
C2085 C2086 1.397 . S
C2085 C2090 1.363 . S
C2086 H2063 0.950 . S
C2086 C2085 1.397 . S
C2086 C2087 1.334 . S
C2087 H2064 0.950 . S
C2087 C2086 1.334 . S
C2087 C2088 1.287 . S
C2088 C2087 1.287 . S
C2088 C2089 1.524 . S
C2088 H2107 0.913 . S
C2089 H2065 0.950 . S
C2089 C2088 1.524 . S
C2089 C2090 1.415 . S
C2090 H2066 0.950 . S
C2090 C2085 1.363 . S
C2090 C2089 1.415 . S
C2091 H2067 0.951 . S
C2091 C2092 1.366 . S
C2091 C2093 1.388 . S
C2092 C2091 1.366 . S
C2092 C2096 1.385 . S
C2093 H2068 0.951 . S
C2093 C2091 1.388 . S
C2093 C2094 1.366 . S
C2094 C2093 1.366 . S
C2094 C2095 1.414 . S
C2094 C2097 1.499 . S
C2095 H2069 0.950 . S
C2095 C2094 1.414 . S
C2095 C2096 1.374 . S
C2096 H2070 0.950 . S
C2096 C2092 1.385 . S
C2096 C2095 1.374 . S
C2097 C2094 1.499 . S
C2097 C2098 1.373 . S
C2097 C2099 1.389 . S
C2098 H2071 0.950 . S
C2098 C2084 1.377 . S
C2098 C2097 1.373 . S
C2099 C2083 1.377 . S
C2099 C2097 1.389 . S
C2099 C2100 1.524 . S
C2100 C2099 1.524 . S
C2100 C2101 1.397 . S
C2100 C2105 1.363 . S
C2101 H2072 0.950 . S
C2101 C2100 1.397 . S
C2101 C2102 1.334 . S
C2102 H2073 0.950 . S
C2102 C2101 1.334 . S
C2102 C2103 1.287 . S
C2103 C2102 1.287 . S
C2103 C2104 1.524 . S
C2103 H2106 0.999 . S
C2104 H2074 0.950 . S
C2104 C2103 1.524 . S
C2104 C2105 1.415 . S
C2105 H2075 0.950 . S
C2105 C2100 1.363 . S
C2105 C2104 1.415 . S
H2106 C2103 0.999 . S
H2107 C2088 0.913 . S
H2108 C2126 0.951 . S
H2109 C2128 0.951 . S
H2110 C2130 0.950 . S
H2111 C2131 0.950 . S
H2112 C2133 0.950 . S
H2113 C2136 0.950 . S
H2114 C2137 0.950 . S
H2115 C2139 0.950 . S
H2116 C2140 0.950 . S
H2117 C2141 0.951 . S
H2118 C2143 0.951 . S
H2119 C2145 0.950 . S
H2120 C2146 0.950 . S
H2121 C2148 0.950 . S
H2122 C2151 0.950 . S
H2123 C2152 0.950 . S
H2124 C2154 0.950 . S
H2125 C2155 0.950 . S
C2126 H2108 0.951 . S
C2126 C2127 1.366 . S
C2126 C2128 1.388 . S
C2127 C2126 1.366 . S
C2127 C2131 1.385 . S
C2128 H2109 0.951 . S
C2128 C2126 1.388 . S
C2128 C2129 1.366 . S
C2129 C2128 1.366 . S
C2129 C2130 1.414 . S
C2129 C2132 1.499 . S
C2130 H2110 0.950 . S
C2130 C2129 1.414 . S
C2130 C2131 1.374 . S
C2131 H2111 0.950 . S
C2131 C2127 1.385 . S
C2131 C2130 1.374 . S
C2132 C2129 1.499 . S
C2132 C2133 1.373 . S
C2132 C2134 1.389 . S
C2133 H2112 0.950 . S
C2133 C2132 1.373 . S
C2133 C2149 1.377 . S
C2134 C2132 1.389 . S
C2134 C2135 1.524 . S
C2134 C2148 1.377 . S
C2135 C2134 1.524 . S
C2135 C2136 1.397 . S
C2135 C2140 1.363 . S
C2136 H2113 0.950 . S
C2136 C2135 1.397 . S
C2136 C2137 1.334 . S
C2137 H2114 0.950 . S
C2137 C2136 1.334 . S
C2137 C2138 1.287 . S
C2138 C2137 1.287 . S
C2138 C2139 1.524 . S
C2138 H2157 0.913 . S
C2139 H2115 0.950 . S
C2139 C2138 1.524 . S
C2139 C2140 1.415 . S
C2140 H2116 0.950 . S
C2140 C2135 1.363 . S
C2140 C2139 1.415 . S
C2141 H2117 0.951 . S
C2141 C2142 1.366 . S
C2141 C2143 1.388 . S
C2142 C2141 1.366 . S
C2142 C2146 1.385 . S
C2143 H2118 0.951 . S
C2143 C2141 1.388 . S
C2143 C2144 1.366 . S
C2144 C2143 1.366 . S
C2144 C2145 1.414 . S
C2144 C2147 1.499 . S
C2145 H2119 0.950 . S
C2145 C2144 1.414 . S
C2145 C2146 1.374 . S
C2146 H2120 0.950 . S
C2146 C2142 1.385 . S
C2146 C2145 1.374 . S
C2147 C2144 1.499 . S
C2147 C2148 1.373 . S
C2147 C2149 1.389 . S
C2148 H2121 0.950 . S
C2148 C2134 1.377 . S
C2148 C2147 1.373 . S
C2149 C2133 1.377 . S
C2149 C2147 1.389 . S
C2149 C2150 1.524 . S
C2150 C2149 1.524 . S
C2150 C2151 1.397 . S
C2150 C2155 1.363 . S
C2151 H2122 0.950 . S
C2151 C2150 1.397 . S
C2151 C2152 1.334 . S
C2152 H2123 0.950 . S
C2152 C2151 1.334 . S
C2152 C2153 1.287 . S
C2153 C2152 1.287 . S
C2153 C2154 1.524 . S
C2153 H2156 0.999 . S
C2154 H2124 0.950 . S
C2154 C2153 1.524 . S
C2154 C2155 1.415 . S
C2155 H2125 0.950 . S
C2155 C2150 1.363 . S
C2155 C2154 1.415 . S
H2156 C2153 0.999 . S
H2157 C2138 0.913 . S
H2158 C2176 0.951 . S
H2159 C2178 0.951 . S
H2160 C2180 0.950 . S
H2161 C2181 0.950 . S
H2162 C2183 0.950 . S
H2163 C2186 0.950 . S
H2164 C2187 0.950 . S
H2165 C2189 0.950 . S
H2166 C2190 0.950 . S
H2167 C2191 0.951 . S
H2168 C2193 0.951 . S
H2169 C2195 0.950 . S
H2170 C2196 0.950 . S
H2171 C2198 0.950 . S
H2172 C2201 0.950 . S
H2173 C2202 0.950 . S
H2174 C2204 0.950 . S
H2175 C2205 0.950 . S
C2176 H2158 0.951 . S
C2176 C2177 1.366 . S
C2176 C2178 1.388 . S
C2177 C2176 1.366 . S
C2177 C2181 1.385 . S
C2178 H2159 0.951 . S
C2178 C2176 1.388 . S
C2178 C2179 1.366 . S
C2179 C2178 1.366 . S
C2179 C2180 1.414 . S
C2179 C2182 1.499 . S
C2180 H2160 0.950 . S
C2180 C2179 1.414 . S
C2180 C2181 1.374 . S
C2181 H2161 0.950 . S
C2181 C2177 1.385 . S
C2181 C2180 1.374 . S
C2182 C2179 1.499 . S
C2182 C2183 1.373 . S
C2182 C2184 1.389 . S
C2183 H2162 0.950 . S
C2183 C2182 1.373 . S
C2183 C2199 1.377 . S
C2184 C2182 1.389 . S
C2184 C2185 1.524 . S
C2184 C2198 1.377 . S
C2185 C2184 1.524 . S
C2185 C2186 1.397 . S
C2185 C2190 1.363 . S
C2186 H2163 0.950 . S
C2186 C2185 1.397 . S
C2186 C2187 1.334 . S
C2187 H2164 0.950 . S
C2187 C2186 1.334 . S
C2187 C2188 1.287 . S
C2188 C2187 1.287 . S
C2188 C2189 1.524 . S
C2188 H2207 0.913 . S
C2189 H2165 0.950 . S
C2189 C2188 1.524 . S
C2189 C2190 1.415 . S
C2190 H2166 0.950 . S
C2190 C2185 1.363 . S
C2190 C2189 1.415 . S
C2191 H2167 0.951 . S
C2191 C2192 1.366 . S
C2191 C2193 1.388 . S
C2192 C2191 1.366 . S
C2192 C2196 1.385 . S
C2193 H2168 0.951 . S
C2193 C2191 1.388 . S
C2193 C2194 1.366 . S
C2194 C2193 1.366 . S
C2194 C2195 1.414 . S
C2194 C2197 1.499 . S
C2195 H2169 0.950 . S
C2195 C2194 1.414 . S
C2195 C2196 1.374 . S
C2196 H2170 0.950 . S
C2196 C2192 1.385 . S
C2196 C2195 1.374 . S
C2197 C2194 1.499 . S
C2197 C2198 1.373 . S
C2197 C2199 1.389 . S
C2198 H2171 0.950 . S
C2198 C2184 1.377 . S
C2198 C2197 1.373 . S
C2199 C2183 1.377 . S
C2199 C2197 1.389 . S
C2199 C2200 1.524 . S
C2200 C2199 1.524 . S
C2200 C2201 1.397 . S
C2200 C2205 1.363 . S
C2201 H2172 0.950 . S
C2201 C2200 1.397 . S
C2201 C2202 1.334 . S
C2202 H2173 0.950 . S
C2202 C2201 1.334 . S
C2202 C2203 1.287 . S
C2203 C2202 1.287 . S
C2203 C2204 1.524 . S
C2203 H2206 0.999 . S
C2204 H2174 0.950 . S
C2204 C2203 1.524 . S
C2204 C2205 1.415 . S
C2205 H2175 0.950 . S
C2205 C2200 1.363 . S
C2205 C2204 1.415 . S
H2206 C2203 0.999 . S
H2207 C2188 0.913 . S
H2208 C2226 0.951 . S
H2209 C2228 0.951 . S
H2210 C2230 0.950 . S
H2211 C2231 0.950 . S
H2212 C2233 0.950 . S
H2213 C2236 0.950 . S
H2214 C2237 0.950 . S
H2215 C2239 0.950 . S
H2216 C2240 0.950 . S
H2217 C2241 0.951 . S
H2218 C2243 0.951 . S
H2219 C2245 0.950 . S
H2220 C2246 0.950 . S
H2221 C2248 0.950 . S
H2222 C2251 0.950 . S
H2223 C2252 0.950 . S
H2224 C2254 0.950 . S
H2225 C2255 0.950 . S
C2226 H2208 0.951 . S
C2226 C2227 1.366 . S
C2226 C2228 1.388 . S
C2227 C2226 1.366 . S
C2227 C2231 1.385 . S
C2228 H2209 0.951 . S
C2228 C2226 1.388 . S
C2228 C2229 1.366 . S
C2229 C2228 1.366 . S
C2229 C2230 1.414 . S
C2229 C2232 1.499 . S
C2230 H2210 0.950 . S
C2230 C2229 1.414 . S
C2230 C2231 1.374 . S
C2231 H2211 0.950 . S
C2231 C2227 1.385 . S
C2231 C2230 1.374 . S
C2232 C2229 1.499 . S
C2232 C2233 1.373 . S
C2232 C2234 1.389 . S
C2233 H2212 0.950 . S
C2233 C2232 1.373 . S
C2233 C2249 1.377 . S
C2234 C2232 1.389 . S
C2234 C2235 1.524 . S
C2234 C2248 1.377 . S
C2235 C2234 1.524 . S
C2235 C2236 1.397 . S
C2235 C2240 1.363 . S
C2236 H2213 0.950 . S
C2236 C2235 1.397 . S
C2236 C2237 1.334 . S
C2237 H2214 0.950 . S
C2237 C2236 1.334 . S
C2237 C2238 1.287 . S
C2238 C2237 1.287 . S
C2238 C2239 1.524 . S
C2238 H2257 0.913 . S
C2239 H2215 0.950 . S
C2239 C2238 1.524 . S
C2239 C2240 1.415 . S
C2240 H2216 0.950 . S
C2240 C2235 1.363 . S
C2240 C2239 1.415 . S
C2241 H2217 0.951 . S
C2241 C2242 1.366 . S
C2241 C2243 1.388 . S
C2242 C2241 1.366 . S
C2242 C2246 1.385 . S
C2243 H2218 0.951 . S
C2243 C2241 1.388 . S
C2243 C2244 1.366 . S
C2244 C2243 1.366 . S
C2244 C2245 1.414 . S
C2244 C2247 1.499 . S
C2245 H2219 0.950 . S
C2245 C2244 1.414 . S
C2245 C2246 1.374 . S
C2246 H2220 0.950 . S
C2246 C2242 1.385 . S
C2246 C2245 1.374 . S
C2247 C2244 1.499 . S
C2247 C2248 1.373 . S
C2247 C2249 1.389 . S
C2248 H2221 0.950 . S
C2248 C2234 1.377 . S
C2248 C2247 1.373 . S
C2249 C2233 1.377 . S
C2249 C2247 1.389 . S
C2249 C2250 1.524 . S
C2250 C2249 1.524 . S
C2250 C2251 1.397 . S
C2250 C2255 1.363 . S
C2251 H2222 0.950 . S
C2251 C2250 1.397 . S
C2251 C2252 1.334 . S
C2252 H2223 0.950 . S
C2252 C2251 1.334 . S
C2252 C2253 1.287 . S
C2253 C2252 1.287 . S
C2253 C2254 1.524 . S
C2253 H2256 0.999 . S
C2254 H2224 0.950 . S
C2254 C2253 1.524 . S
C2254 C2255 1.415 . S
C2255 H2225 0.950 . S
C2255 C2250 1.363 . S
C2255 C2254 1.415 . S
H2256 C2253 0.999 . S
H2257 C2238 0.913 . S
H2258 C2276 0.951 . S
H2259 C2278 0.951 . S
H2260 C2280 0.950 . S
H2261 C2281 0.950 . S
H2262 C2283 0.950 . S
H2263 C2286 0.950 . S
H2264 C2287 0.950 . S
H2265 C2289 0.950 . S
H2266 C2290 0.950 . S
H2267 C2291 0.951 . S
H2268 C2293 0.951 . S
H2269 C2295 0.950 . S
H2270 C2296 0.950 . S
H2271 C2298 0.950 . S
H2272 C2301 0.950 . S
H2273 C2302 0.950 . S
H2274 C2304 0.950 . S
H2275 C2305 0.950 . S
C2276 H2258 0.951 . S
C2276 C2277 1.366 . S
C2276 C2278 1.388 . S
C2277 C2276 1.366 . S
C2277 C2281 1.385 . S
C2278 H2259 0.951 . S
C2278 C2276 1.388 . S
C2278 C2279 1.366 . S
C2279 C2278 1.366 . S
C2279 C2280 1.414 . S
C2279 C2282 1.499 . S
C2280 H2260 0.950 . S
C2280 C2279 1.414 . S
C2280 C2281 1.374 . S
C2281 H2261 0.950 . S
C2281 C2277 1.385 . S
C2281 C2280 1.374 . S
C2282 C2279 1.499 . S
C2282 C2283 1.373 . S
C2282 C2284 1.389 . S
C2283 H2262 0.950 . S
C2283 C2282 1.373 . S
C2283 C2299 1.377 . S
C2284 C2282 1.389 . S
C2284 C2285 1.524 . S
C2284 C2298 1.377 . S
C2285 C2284 1.524 . S
C2285 C2286 1.397 . S
C2285 C2290 1.363 . S
C2286 H2263 0.950 . S
C2286 C2285 1.397 . S
C2286 C2287 1.334 . S
C2287 H2264 0.950 . S
C2287 C2286 1.334 . S
C2287 C2288 1.287 . S
C2288 C2287 1.287 . S
C2288 C2289 1.524 . S
C2288 H2307 0.913 . S
C2289 H2265 0.950 . S
C2289 C2288 1.524 . S
C2289 C2290 1.415 . S
C2290 H2266 0.950 . S
C2290 C2285 1.363 . S
C2290 C2289 1.415 . S
C2291 H2267 0.951 . S
C2291 C2292 1.366 . S
C2291 C2293 1.388 . S
C2292 C2291 1.366 . S
C2292 C2296 1.385 . S
C2293 H2268 0.951 . S
C2293 C2291 1.388 . S
C2293 C2294 1.366 . S
C2294 C2293 1.366 . S
C2294 C2295 1.414 . S
C2294 C2297 1.499 . S
C2295 H2269 0.950 . S
C2295 C2294 1.414 . S
C2295 C2296 1.374 . S
C2296 H2270 0.950 . S
C2296 C2292 1.385 . S
C2296 C2295 1.374 . S
C2297 C2294 1.499 . S
C2297 C2298 1.373 . S
C2297 C2299 1.389 . S
C2298 H2271 0.950 . S
C2298 C2284 1.377 . S
C2298 C2297 1.373 . S
C2299 C2283 1.377 . S
C2299 C2297 1.389 . S
C2299 C2300 1.524 . S
C2300 C2299 1.524 . S
C2300 C2301 1.397 . S
C2300 C2305 1.363 . S
C2301 H2272 0.950 . S
C2301 C2300 1.397 . S
C2301 C2302 1.334 . S
C2302 H2273 0.950 . S
C2302 C2301 1.334 . S
C2302 C2303 1.287 . S
C2303 C2302 1.287 . S
C2303 C2304 1.524 . S
C2303 H2306 0.999 . S
C2304 H2274 0.950 . S
C2304 C2303 1.524 . S
C2304 C2305 1.415 . S
C2305 H2275 0.950 . S
C2305 C2300 1.363 . S
C2305 C2304 1.415 . S
H2306 C2303 0.999 . S
H2307 C2288 0.913 . S
H2308 C2326 0.951 . S
H2309 C2328 0.951 . S
H2310 C2330 0.950 . S
H2311 C2331 0.950 . S
H2312 C2333 0.950 . S
H2313 C2336 0.950 . S
H2314 C2337 0.950 . S
H2315 C2339 0.950 . S
H2316 C2340 0.950 . S
H2317 C2341 0.951 . S
H2318 C2343 0.951 . S
H2319 C2345 0.950 . S
H2320 C2346 0.950 . S
H2321 C2348 0.950 . S
H2322 C2351 0.950 . S
H2323 C2352 0.950 . S
H2324 C2354 0.950 . S
H2325 C2355 0.950 . S
C2326 H2308 0.951 . S
C2326 C2327 1.366 . S
C2326 C2328 1.388 . S
C2327 C2326 1.366 . S
C2327 C2331 1.385 . S
C2328 H2309 0.951 . S
C2328 C2326 1.388 . S
C2328 C2329 1.366 . S
C2329 C2328 1.366 . S
C2329 C2330 1.414 . S
C2329 C2332 1.499 . S
C2330 H2310 0.950 . S
C2330 C2329 1.414 . S
C2330 C2331 1.374 . S
C2331 H2311 0.950 . S
C2331 C2327 1.385 . S
C2331 C2330 1.374 . S
C2332 C2329 1.499 . S
C2332 C2333 1.373 . S
C2332 C2334 1.389 . S
C2333 H2312 0.950 . S
C2333 C2332 1.373 . S
C2333 C2349 1.377 . S
C2334 C2332 1.389 . S
C2334 C2335 1.524 . S
C2334 C2348 1.377 . S
C2335 C2334 1.524 . S
C2335 C2336 1.397 . S
C2335 C2340 1.363 . S
C2336 H2313 0.950 . S
C2336 C2335 1.397 . S
C2336 C2337 1.334 . S
C2337 H2314 0.950 . S
C2337 C2336 1.334 . S
C2337 C2338 1.287 . S
C2338 C2337 1.287 . S
C2338 C2339 1.524 . S
C2338 H2357 0.913 . S
C2339 H2315 0.950 . S
C2339 C2338 1.524 . S
C2339 C2340 1.415 . S
C2340 H2316 0.950 . S
C2340 C2335 1.363 . S
C2340 C2339 1.415 . S
C2341 H2317 0.951 . S
C2341 C2342 1.366 . S
C2341 C2343 1.388 . S
C2342 C2341 1.366 . S
C2342 C2346 1.385 . S
C2343 H2318 0.951 . S
C2343 C2341 1.388 . S
C2343 C2344 1.366 . S
C2344 C2343 1.366 . S
C2344 C2345 1.414 . S
C2344 C2347 1.499 . S
C2345 H2319 0.950 . S
C2345 C2344 1.414 . S
C2345 C2346 1.374 . S
C2346 H2320 0.950 . S
C2346 C2342 1.385 . S
C2346 C2345 1.374 . S
C2347 C2344 1.499 . S
C2347 C2348 1.373 . S
C2347 C2349 1.389 . S
C2348 H2321 0.950 . S
C2348 C2334 1.377 . S
C2348 C2347 1.373 . S
C2349 C2333 1.377 . S
C2349 C2347 1.389 . S
C2349 C2350 1.524 . S
C2350 C2349 1.524 . S
C2350 C2351 1.397 . S
C2350 C2355 1.363 . S
C2351 H2322 0.950 . S
C2351 C2350 1.397 . S
C2351 C2352 1.334 . S
C2352 H2323 0.950 . S
C2352 C2351 1.334 . S
C2352 C2353 1.287 . S
C2353 C2352 1.287 . S
C2353 C2354 1.524 . S
C2353 H2356 0.999 . S
C2354 H2324 0.950 . S
C2354 C2353 1.524 . S
C2354 C2355 1.415 . S
C2355 H2325 0.950 . S
C2355 C2350 1.363 . S
C2355 C2354 1.415 . S
H2356 C2353 0.999 . S
H2357 C2338 0.913 . S
H2358 C2376 0.951 . S
H2359 C2378 0.951 . S
H2360 C2380 0.950 . S
H2361 C2381 0.950 . S
H2362 C2383 0.950 . S
H2363 C2386 0.950 . S
H2364 C2387 0.950 . S
H2365 C2389 0.950 . S
H2366 C2390 0.950 . S
H2367 C2391 0.951 . S
H2368 C2393 0.951 . S
H2369 C2395 0.950 . S
H2370 C2396 0.950 . S
H2371 C2398 0.950 . S
H2372 C2401 0.950 . S
H2373 C2402 0.950 . S
H2374 C2404 0.950 . S
H2375 C2405 0.950 . S
C2376 H2358 0.951 . S
C2376 C2377 1.366 . S
C2376 C2378 1.388 . S
C2377 C2376 1.366 . S
C2377 C2381 1.385 . S
C2378 H2359 0.951 . S
C2378 C2376 1.388 . S
C2378 C2379 1.366 . S
C2379 C2378 1.366 . S
C2379 C2380 1.414 . S
C2379 C2382 1.499 . S
C2380 H2360 0.950 . S
C2380 C2379 1.414 . S
C2380 C2381 1.374 . S
C2381 H2361 0.950 . S
C2381 C2377 1.385 . S
C2381 C2380 1.374 . S
C2382 C2379 1.499 . S
C2382 C2383 1.373 . S
C2382 C2384 1.389 . S
C2383 H2362 0.950 . S
C2383 C2382 1.373 . S
C2383 C2399 1.377 . S
C2384 C2382 1.389 . S
C2384 C2385 1.524 . S
C2384 C2398 1.377 . S
C2385 C2384 1.524 . S
C2385 C2386 1.397 . S
C2385 C2390 1.363 . S
C2386 H2363 0.950 . S
C2386 C2385 1.397 . S
C2386 C2387 1.334 . S
C2387 H2364 0.950 . S
C2387 C2386 1.334 . S
C2387 C2388 1.287 . S
C2388 C2387 1.287 . S
C2388 C2389 1.524 . S
C2388 H2407 0.913 . S
C2389 H2365 0.950 . S
C2389 C2388 1.524 . S
C2389 C2390 1.415 . S
C2390 H2366 0.950 . S
C2390 C2385 1.363 . S
C2390 C2389 1.415 . S
C2391 H2367 0.951 . S
C2391 C2392 1.366 . S
C2391 C2393 1.388 . S
C2392 C2391 1.366 . S
C2392 C2396 1.385 . S
C2393 H2368 0.951 . S
C2393 C2391 1.388 . S
C2393 C2394 1.366 . S
C2394 C2393 1.366 . S
C2394 C2395 1.414 . S
C2394 C2397 1.499 . S
C2395 H2369 0.950 . S
C2395 C2394 1.414 . S
C2395 C2396 1.374 . S
C2396 H2370 0.950 . S
C2396 C2392 1.385 . S
C2396 C2395 1.374 . S
C2397 C2394 1.499 . S
C2397 C2398 1.373 . S
C2397 C2399 1.389 . S
C2398 H2371 0.950 . S
C2398 C2384 1.377 . S
C2398 C2397 1.373 . S
C2399 C2383 1.377 . S
C2399 C2397 1.389 . S
C2399 C2400 1.524 . S
C2400 C2399 1.524 . S
C2400 C2401 1.397 . S
C2400 C2405 1.363 . S
C2401 H2372 0.950 . S
C2401 C2400 1.397 . S
C2401 C2402 1.334 . S
C2402 H2373 0.950 . S
C2402 C2401 1.334 . S
C2402 C2403 1.287 . S
C2403 C2402 1.287 . S
C2403 C2404 1.524 . S
C2403 H2406 0.999 . S
C2404 H2374 0.950 . S
C2404 C2403 1.524 . S
C2404 C2405 1.415 . S
C2405 H2375 0.950 . S
C2405 C2400 1.363 . S
C2405 C2404 1.415 . S
H2406 C2403 0.999 . S
H2407 C2388 0.913 . S
H2408 C2426 0.951 . S
H2409 C2428 0.951 . S
H2410 C2430 0.950 . S
H2411 C2431 0.950 . S
H2412 C2433 0.950 . S
H2413 C2436 0.950 . S
H2414 C2437 0.950 . S
H2415 C2439 0.950 . S
H2416 C2440 0.950 . S
H2417 C2441 0.951 . S
H2418 C2443 0.951 . S
H2419 C2445 0.950 . S
H2420 C2446 0.950 . S
H2421 C2448 0.950 . S
H2422 C2451 0.950 . S
H2423 C2452 0.950 . S
H2424 C2454 0.950 . S
H2425 C2455 0.950 . S
C2426 H2408 0.951 . S
C2426 C2427 1.366 . S
C2426 C2428 1.388 . S
C2427 C2426 1.366 . S
C2427 C2431 1.385 . S
C2428 H2409 0.951 . S
C2428 C2426 1.388 . S
C2428 C2429 1.366 . S
C2429 C2428 1.366 . S
C2429 C2430 1.414 . S
C2429 C2432 1.499 . S
C2430 H2410 0.950 . S
C2430 C2429 1.414 . S
C2430 C2431 1.374 . S
C2431 H2411 0.950 . S
C2431 C2427 1.385 . S
C2431 C2430 1.374 . S
C2432 C2429 1.499 . S
C2432 C2433 1.373 . S
C2432 C2434 1.389 . S
C2433 H2412 0.950 . S
C2433 C2432 1.373 . S
C2433 C2449 1.377 . S
C2434 C2432 1.389 . S
C2434 C2435 1.524 . S
C2434 C2448 1.377 . S
C2435 C2434 1.524 . S
C2435 C2436 1.397 . S
C2435 C2440 1.363 . S
C2436 H2413 0.950 . S
C2436 C2435 1.397 . S
C2436 C2437 1.334 . S
C2437 H2414 0.950 . S
C2437 C2436 1.334 . S
C2437 C2438 1.287 . S
C2438 C2437 1.287 . S
C2438 C2439 1.524 . S
C2438 H2457 0.913 . S
C2439 H2415 0.950 . S
C2439 C2438 1.524 . S
C2439 C2440 1.415 . S
C2440 H2416 0.950 . S
C2440 C2435 1.363 . S
C2440 C2439 1.415 . S
C2441 H2417 0.951 . S
C2441 C2442 1.366 . S
C2441 C2443 1.388 . S
C2442 C2441 1.366 . S
C2442 C2446 1.385 . S
C2443 H2418 0.951 . S
C2443 C2441 1.388 . S
C2443 C2444 1.366 . S
C2444 C2443 1.366 . S
C2444 C2445 1.414 . S
C2444 C2447 1.499 . S
C2445 H2419 0.950 . S
C2445 C2444 1.414 . S
C2445 C2446 1.374 . S
C2446 H2420 0.950 . S
C2446 C2442 1.385 . S
C2446 C2445 1.374 . S
C2447 C2444 1.499 . S
C2447 C2448 1.373 . S
C2447 C2449 1.389 . S
C2448 H2421 0.950 . S
C2448 C2434 1.377 . S
C2448 C2447 1.373 . S
C2449 C2433 1.377 . S
C2449 C2447 1.389 . S
C2449 C2450 1.524 . S
C2450 C2449 1.524 . S
C2450 C2451 1.397 . S
C2450 C2455 1.363 . S
C2451 H2422 0.950 . S
C2451 C2450 1.397 . S
C2451 C2452 1.334 . S
C2452 H2423 0.950 . S
C2452 C2451 1.334 . S
C2452 C2453 1.287 . S
C2453 C2452 1.287 . S
C2453 C2454 1.524 . S
C2453 H2456 0.999 . S
C2454 H2424 0.950 . S
C2454 C2453 1.524 . S
C2454 C2455 1.415 . S
C2455 H2425 0.950 . S
C2455 C2450 1.363 . S
C2455 C2454 1.415 . S
H2456 C2453 0.999 . S
H2457 C2438 0.913 . S
H2458 C2476 0.951 . S
H2459 C2478 0.951 . S
H2460 C2480 0.950 . S
H2461 C2481 0.950 . S
H2462 C2483 0.950 . S
H2463 C2486 0.950 . S
H2464 C2487 0.950 . S
H2465 C2489 0.950 . S
H2466 C2490 0.950 . S
H2467 C2491 0.951 . S
H2468 C2493 0.951 . S
H2469 C2495 0.950 . S
H2470 C2496 0.950 . S
H2471 C2498 0.950 . S
H2472 C2501 0.950 . S
H2473 C2502 0.950 . S
H2474 C2504 0.950 . S
H2475 C2505 0.950 . S
C2476 H2458 0.951 . S
C2476 C2477 1.366 . S
C2476 C2478 1.388 . S
C2477 C2476 1.366 . S
C2477 C2481 1.385 . S
C2478 H2459 0.951 . S
C2478 C2476 1.388 . S
C2478 C2479 1.366 . S
C2479 C2478 1.366 . S
C2479 C2480 1.414 . S
C2479 C2482 1.499 . S
C2480 H2460 0.950 . S
C2480 C2479 1.414 . S
C2480 C2481 1.374 . S
C2481 H2461 0.950 . S
C2481 C2477 1.385 . S
C2481 C2480 1.374 . S
C2482 C2479 1.499 . S
C2482 C2483 1.373 . S
C2482 C2484 1.389 . S
C2483 H2462 0.950 . S
C2483 C2482 1.373 . S
C2483 C2499 1.377 . S
C2484 C2482 1.389 . S
C2484 C2485 1.524 . S
C2484 C2498 1.377 . S
C2485 C2484 1.524 . S
C2485 C2486 1.397 . S
C2485 C2490 1.363 . S
C2486 H2463 0.950 . S
C2486 C2485 1.397 . S
C2486 C2487 1.334 . S
C2487 H2464 0.950 . S
C2487 C2486 1.334 . S
C2487 C2488 1.287 . S
C2488 C2487 1.287 . S
C2488 C2489 1.524 . S
C2488 H2507 0.913 . S
C2489 H2465 0.950 . S
C2489 C2488 1.524 . S
C2489 C2490 1.415 . S
C2490 H2466 0.950 . S
C2490 C2485 1.363 . S
C2490 C2489 1.415 . S
C2491 H2467 0.951 . S
C2491 C2492 1.366 . S
C2491 C2493 1.388 . S
C2492 C2491 1.366 . S
C2492 C2496 1.385 . S
C2493 H2468 0.951 . S
C2493 C2491 1.388 . S
C2493 C2494 1.366 . S
C2494 C2493 1.366 . S
C2494 C2495 1.414 . S
C2494 C2497 1.499 . S
C2495 H2469 0.950 . S
C2495 C2494 1.414 . S
C2495 C2496 1.374 . S
C2496 H2470 0.950 . S
C2496 C2492 1.385 . S
C2496 C2495 1.374 . S
C2497 C2494 1.499 . S
C2497 C2498 1.373 . S
C2497 C2499 1.389 . S
C2498 H2471 0.950 . S
C2498 C2484 1.377 . S
C2498 C2497 1.373 . S
C2499 C2483 1.377 . S
C2499 C2497 1.389 . S
C2499 C2500 1.524 . S
C2500 C2499 1.524 . S
C2500 C2501 1.397 . S
C2500 C2505 1.363 . S
C2501 H2472 0.950 . S
C2501 C2500 1.397 . S
C2501 C2502 1.334 . S
C2502 H2473 0.950 . S
C2502 C2501 1.334 . S
C2502 C2503 1.287 . S
C2503 C2502 1.287 . S
C2503 C2504 1.524 . S
C2503 H2506 0.999 . S
C2504 H2474 0.950 . S
C2504 C2503 1.524 . S
C2504 C2505 1.415 . S
C2505 H2475 0.950 . S
C2505 C2500 1.363 . S
C2505 C2504 1.415 . S
H2506 C2503 0.999 . S
H2507 C2488 0.913 . S
H2508 C2526 0.951 . S
H2509 C2528 0.951 . S
H2510 C2530 0.950 . S
H2511 C2531 0.950 . S
H2512 C2533 0.950 . S
H2513 C2536 0.950 . S
H2514 C2537 0.950 . S
H2515 C2539 0.950 . S
H2516 C2540 0.950 . S
H2517 C2541 0.951 . S
H2518 C2543 0.951 . S
H2519 C2545 0.950 . S
H2520 C2546 0.950 . S
H2521 C2548 0.950 . S
H2522 C2551 0.950 . S
H2523 C2552 0.950 . S
H2524 C2554 0.950 . S
H2525 C2555 0.950 . S
C2526 H2508 0.951 . S
C2526 C2527 1.366 . S
C2526 C2528 1.388 . S
C2527 C2526 1.366 . S
C2527 C2531 1.385 . S
C2528 H2509 0.951 . S
C2528 C2526 1.388 . S
C2528 C2529 1.366 . S
C2529 C2528 1.366 . S
C2529 C2530 1.414 . S
C2529 C2532 1.499 . S
C2530 H2510 0.950 . S
C2530 C2529 1.414 . S
C2530 C2531 1.374 . S
C2531 H2511 0.950 . S
C2531 C2527 1.385 . S
C2531 C2530 1.374 . S
C2532 C2529 1.499 . S
C2532 C2533 1.373 . S
C2532 C2534 1.389 . S
C2533 H2512 0.950 . S
C2533 C2532 1.373 . S
C2533 C2549 1.377 . S
C2534 C2532 1.389 . S
C2534 C2535 1.524 . S
C2534 C2548 1.377 . S
C2535 C2534 1.524 . S
C2535 C2536 1.397 . S
C2535 C2540 1.363 . S
C2536 H2513 0.950 . S
C2536 C2535 1.397 . S
C2536 C2537 1.334 . S
C2537 H2514 0.950 . S
C2537 C2536 1.334 . S
C2537 C2538 1.287 . S
C2538 C2537 1.287 . S
C2538 C2539 1.524 . S
C2538 H2557 0.913 . S
C2539 H2515 0.950 . S
C2539 C2538 1.524 . S
C2539 C2540 1.415 . S
C2540 H2516 0.950 . S
C2540 C2535 1.363 . S
C2540 C2539 1.415 . S
C2541 H2517 0.951 . S
C2541 C2542 1.366 . S
C2541 C2543 1.388 . S
C2542 C2541 1.366 . S
C2542 C2546 1.385 . S
C2543 H2518 0.951 . S
C2543 C2541 1.388 . S
C2543 C2544 1.366 . S
C2544 C2543 1.366 . S
C2544 C2545 1.414 . S
C2544 C2547 1.499 . S
C2545 H2519 0.950 . S
C2545 C2544 1.414 . S
C2545 C2546 1.374 . S
C2546 H2520 0.950 . S
C2546 C2542 1.385 . S
C2546 C2545 1.374 . S
C2547 C2544 1.499 . S
C2547 C2548 1.373 . S
C2547 C2549 1.389 . S
C2548 H2521 0.950 . S
C2548 C2534 1.377 . S
C2548 C2547 1.373 . S
C2549 C2533 1.377 . S
C2549 C2547 1.389 . S
C2549 C2550 1.524 . S
C2550 C2549 1.524 . S
C2550 C2551 1.397 . S
C2550 C2555 1.363 . S
C2551 H2522 0.950 . S
C2551 C2550 1.397 . S
C2551 C2552 1.334 . S
C2552 H2523 0.950 . S
C2552 C2551 1.334 . S
C2552 C2553 1.287 . S
C2553 C2552 1.287 . S
C2553 C2554 1.524 . S
C2553 H2556 0.999 . S
C2554 H2524 0.950 . S
C2554 C2553 1.524 . S
C2554 C2555 1.415 . S
C2555 H2525 0.950 . S
C2555 C2550 1.363 . S
C2555 C2554 1.415 . S
H2556 C2553 0.999 . S
H2557 C2538 0.913 . S
H2558 C2576 0.951 . S
H2559 C2578 0.951 . S
H2560 C2580 0.950 . S
H2561 C2581 0.950 . S
H2562 C2583 0.950 . S
H2563 C2586 0.950 . S
H2564 C2587 0.950 . S
H2565 C2589 0.950 . S
H2566 C2590 0.950 . S
H2567 C2591 0.951 . S
H2568 C2593 0.951 . S
H2569 C2595 0.950 . S
H2570 C2596 0.950 . S
H2571 C2598 0.950 . S
H2572 C2601 0.950 . S
H2573 C2602 0.950 . S
H2574 C2604 0.950 . S
H2575 C2605 0.950 . S
C2576 H2558 0.951 . S
C2576 C2577 1.366 . S
C2576 C2578 1.388 . S
C2577 C2576 1.366 . S
C2577 C2581 1.385 . S
C2578 H2559 0.951 . S
C2578 C2576 1.388 . S
C2578 C2579 1.366 . S
C2579 C2578 1.366 . S
C2579 C2580 1.414 . S
C2579 C2582 1.499 . S
C2580 H2560 0.950 . S
C2580 C2579 1.414 . S
C2580 C2581 1.374 . S
C2581 H2561 0.950 . S
C2581 C2577 1.385 . S
C2581 C2580 1.374 . S
C2582 C2579 1.499 . S
C2582 C2583 1.373 . S
C2582 C2584 1.389 . S
C2583 H2562 0.950 . S
C2583 C2582 1.373 . S
C2583 C2599 1.377 . S
C2584 C2582 1.389 . S
C2584 C2585 1.524 . S
C2584 C2598 1.377 . S
C2585 C2584 1.524 . S
C2585 C2586 1.397 . S
C2585 C2590 1.363 . S
C2586 H2563 0.950 . S
C2586 C2585 1.397 . S
C2586 C2587 1.334 . S
C2587 H2564 0.950 . S
C2587 C2586 1.334 . S
C2587 C2588 1.287 . S
C2588 C2587 1.287 . S
C2588 C2589 1.524 . S
C2588 H2607 0.913 . S
C2589 H2565 0.950 . S
C2589 C2588 1.524 . S
C2589 C2590 1.415 . S
C2590 H2566 0.950 . S
C2590 C2585 1.363 . S
C2590 C2589 1.415 . S
C2591 H2567 0.951 . S
C2591 C2592 1.366 . S
C2591 C2593 1.388 . S
C2592 C2591 1.366 . S
C2592 C2596 1.385 . S
C2593 H2568 0.951 . S
C2593 C2591 1.388 . S
C2593 C2594 1.366 . S
C2594 C2593 1.366 . S
C2594 C2595 1.414 . S
C2594 C2597 1.499 . S
C2595 H2569 0.950 . S
C2595 C2594 1.414 . S
C2595 C2596 1.374 . S
C2596 H2570 0.950 . S
C2596 C2592 1.385 . S
C2596 C2595 1.374 . S
C2597 C2594 1.499 . S
C2597 C2598 1.373 . S
C2597 C2599 1.389 . S
C2598 H2571 0.950 . S
C2598 C2584 1.377 . S
C2598 C2597 1.373 . S
C2599 C2583 1.377 . S
C2599 C2597 1.389 . S
C2599 C2600 1.524 . S
C2600 C2599 1.524 . S
C2600 C2601 1.397 . S
C2600 C2605 1.363 . S
C2601 H2572 0.950 . S
C2601 C2600 1.397 . S
C2601 C2602 1.334 . S
C2602 H2573 0.950 . S
C2602 C2601 1.334 . S
C2602 C2603 1.287 . S
C2603 C2602 1.287 . S
C2603 C2604 1.524 . S
C2603 H2606 0.999 . S
C2604 H2574 0.950 . S
C2604 C2603 1.524 . S
C2604 C2605 1.415 . S
C2605 H2575 0.950 . S
C2605 C2600 1.363 . S
C2605 C2604 1.415 . S
H2606 C2603 0.999 . S
H2607 C2588 0.913 . S
H2608 C2626 0.951 . S
H2609 C2628 0.951 . S
H2610 C2630 0.950 . S
H2611 C2631 0.950 . S
H2612 C2633 0.950 . S
H2613 C2636 0.950 . S
H2614 C2637 0.950 . S
H2615 C2639 0.950 . S
H2616 C2640 0.950 . S
H2617 C2641 0.951 . S
H2618 C2643 0.951 . S
H2619 C2645 0.950 . S
H2620 C2646 0.950 . S
H2621 C2648 0.950 . S
H2622 C2651 0.950 . S
H2623 C2652 0.950 1_545 S
H2624 C2654 0.950 . S
H2625 C2655 0.950 . S
C2626 H2608 0.951 . S
C2626 C2627 1.366 . S
C2626 C2628 1.388 . S
C2627 C2626 1.366 . S
C2627 C2631 1.385 . S
C2628 H2609 0.951 . S
C2628 C2626 1.388 . S
C2628 C2629 1.366 . S
C2629 C2628 1.366 . S
C2629 C2630 1.414 . S
C2629 C2632 1.499 . S
C2630 H2610 0.950 . S
C2630 C2629 1.414 . S
C2630 C2631 1.374 . S
C2631 H2611 0.950 . S
C2631 C2627 1.385 . S
C2631 C2630 1.374 . S
C2632 C2629 1.499 . S
C2632 C2633 1.373 . S
C2632 C2634 1.389 . S
C2633 H2612 0.950 . S
C2633 C2632 1.373 . S
C2633 C2649 1.377 . S
C2634 C2632 1.389 . S
C2634 C2635 1.524 . S
C2634 C2648 1.377 . S
C2635 C2634 1.524 . S
C2635 C2636 1.397 . S
C2635 C2640 1.363 . S
C2636 H2613 0.950 . S
C2636 C2635 1.397 . S
C2636 C2637 1.334 . S
C2637 H2614 0.950 . S
C2637 C2636 1.334 . S
C2637 C2638 1.287 . S
C2638 C2637 1.287 . S
C2638 C2639 1.524 . S
C2638 H2657 0.913 . S
C2639 H2615 0.950 . S
C2639 C2638 1.524 . S
C2639 C2640 1.415 . S
C2640 H2616 0.950 . S
C2640 C2635 1.363 . S
C2640 C2639 1.415 . S
C2641 H2617 0.951 . S
C2641 C2642 1.366 . S
C2641 C2643 1.388 . S
C2642 C2641 1.366 . S
C2642 C2646 1.385 . S
C2643 H2618 0.951 . S
C2643 C2641 1.388 . S
C2643 C2644 1.366 . S
C2644 C2643 1.366 . S
C2644 C2645 1.414 . S
C2644 C2647 1.499 . S
C2645 H2619 0.950 . S
C2645 C2644 1.414 . S
C2645 C2646 1.374 . S
C2646 H2620 0.950 . S
C2646 C2642 1.385 . S
C2646 C2645 1.374 . S
C2647 C2644 1.499 . S
C2647 C2648 1.373 . S
C2647 C2649 1.389 . S
C2648 H2621 0.950 . S
C2648 C2634 1.377 . S
C2648 C2647 1.373 . S
C2649 C2633 1.377 . S
C2649 C2647 1.389 . S
C2649 C2650 1.524 . S
C2650 C2649 1.524 . S
C2650 C2651 1.397 . S
C2650 C2655 1.363 . S
C2651 H2622 0.950 . S
C2651 C2650 1.397 . S
C2651 C2652 1.334 . S
C2652 H2623 0.950 1_565 S
C2652 C2651 1.334 . S
C2652 C2653 1.287 . S
C2653 C2652 1.287 . S
C2653 C2654 1.524 . S
C2653 H2656 0.999 1_565 S
C2654 H2624 0.950 . S
C2654 C2653 1.524 . S
C2654 C2655 1.415 . S
C2655 H2625 0.950 . S
C2655 C2650 1.363 . S
C2655 C2654 1.415 . S
H2656 C2653 0.999 1_545 S
H2657 C2638 0.913 . S
H2658 C2676 0.951 . S
H2659 C2678 0.951 . S
H2660 C2680 0.950 . S
H2661 C2681 0.950 . S
H2662 C2683 0.950 . S
H2663 C2686 0.950 . S
H2664 C2687 0.950 . S
H2665 C2689 0.950 . S
H2666 C2690 0.950 . S
H2667 C2691 0.951 . S
H2668 C2693 0.951 . S
H2669 C2695 0.950 . S
H2670 C2696 0.950 . S
H2671 C2698 0.950 . S
H2672 C2701 0.950 . S
H2673 C2702 0.950 . S
H2674 C2704 0.950 . S
H2675 C2705 0.950 . S
C2676 H2658 0.951 . S
C2676 C2677 1.366 . S
C2676 C2678 1.388 . S
C2677 C2676 1.366 . S
C2677 C2681 1.385 . S
C2678 H2659 0.951 . S
C2678 C2676 1.388 . S
C2678 C2679 1.366 . S
C2679 C2678 1.366 . S
C2679 C2680 1.414 . S
C2679 C2682 1.499 . S
C2680 H2660 0.950 . S
C2680 C2679 1.414 . S
C2680 C2681 1.374 . S
C2681 H2661 0.950 . S
C2681 C2677 1.385 . S
C2681 C2680 1.374 . S
C2682 C2679 1.499 . S
C2682 C2683 1.373 . S
C2682 C2684 1.389 . S
C2683 H2662 0.950 . S
C2683 C2682 1.373 . S
C2683 C2699 1.377 . S
C2684 C2682 1.389 . S
C2684 C2685 1.524 . S
C2684 C2698 1.377 . S
C2685 C2684 1.524 . S
C2685 C2686 1.397 . S
C2685 C2690 1.363 . S
C2686 H2663 0.950 . S
C2686 C2685 1.397 . S
C2686 C2687 1.334 . S
C2687 H2664 0.950 . S
C2687 C2686 1.334 . S
C2687 C2688 1.287 . S
C2688 C2687 1.287 . S
C2688 C2689 1.524 . S
C2688 H2707 0.913 . S
C2689 H2665 0.950 . S
C2689 C2688 1.524 . S
C2689 C2690 1.415 . S
C2690 H2666 0.950 . S
C2690 C2685 1.363 . S
C2690 C2689 1.415 . S
C2691 H2667 0.951 . S
C2691 C2692 1.366 . S
C2691 C2693 1.388 . S
C2692 C2691 1.366 . S
C2692 C2696 1.385 . S
C2693 H2668 0.951 . S
C2693 C2691 1.388 . S
C2693 C2694 1.366 . S
C2694 C2693 1.366 . S
C2694 C2695 1.414 . S
C2694 C2697 1.499 . S
C2695 H2669 0.950 . S
C2695 C2694 1.414 . S
C2695 C2696 1.374 . S
C2696 H2670 0.950 . S
C2696 C2692 1.385 . S
C2696 C2695 1.374 . S
C2697 C2694 1.499 . S
C2697 C2698 1.373 . S
C2697 C2699 1.389 . S
C2698 H2671 0.950 . S
C2698 C2684 1.377 . S
C2698 C2697 1.373 . S
C2699 C2683 1.377 . S
C2699 C2697 1.389 . S
C2699 C2700 1.524 . S
C2700 C2699 1.524 . S
C2700 C2701 1.397 . S
C2700 C2705 1.363 . S
C2701 H2672 0.950 . S
C2701 C2700 1.397 . S
C2701 C2702 1.334 . S
C2702 H2673 0.950 . S
C2702 C2701 1.334 . S
C2702 C2703 1.287 . S
C2703 C2702 1.287 . S
C2703 C2704 1.524 . S
C2703 H2706 0.999 . S
C2704 H2674 0.950 . S
C2704 C2703 1.524 . S
C2704 C2705 1.415 . S
C2705 H2675 0.950 . S
C2705 C2700 1.363 . S
C2705 C2704 1.415 . S
H2706 C2703 0.999 . S
H2707 C2688 0.913 . S
H2708 C2726 0.951 . S
H2709 C2728 0.951 . S
H2710 C2730 0.950 . S
H2711 C2731 0.950 . S
H2712 C2733 0.950 . S
H2713 C2736 0.950 . S
H2714 C2737 0.950 . S
H2715 C2739 0.950 . S
H2716 C2740 0.950 . S
H2717 C2741 0.951 . S
H2718 C2743 0.951 . S
H2719 C2745 0.950 . S
H2720 C2746 0.950 . S
H2721 C2748 0.950 . S
H2722 C2751 0.950 . S
H2723 C2752 0.950 . S
H2724 C2754 0.950 . S
H2725 C2755 0.950 . S
C2726 H2708 0.951 . S
C2726 C2727 1.366 . S
C2726 C2728 1.388 . S
C2727 C2726 1.366 . S
C2727 C2731 1.385 . S
C2728 H2709 0.951 . S
C2728 C2726 1.388 . S
C2728 C2729 1.366 . S
C2729 C2728 1.366 . S
C2729 C2730 1.414 . S
C2729 C2732 1.499 . S
C2730 H2710 0.950 . S
C2730 C2729 1.414 . S
C2730 C2731 1.374 . S
C2731 H2711 0.950 . S
C2731 C2727 1.385 . S
C2731 C2730 1.374 . S
C2732 C2729 1.499 . S
C2732 C2733 1.373 . S
C2732 C2734 1.389 . S
C2733 H2712 0.950 . S
C2733 C2732 1.373 . S
C2733 C2749 1.377 . S
C2734 C2732 1.389 . S
C2734 C2735 1.524 . S
C2734 C2748 1.377 . S
C2735 C2734 1.524 . S
C2735 C2736 1.397 . S
C2735 C2740 1.363 . S
C2736 H2713 0.950 . S
C2736 C2735 1.397 . S
C2736 C2737 1.334 . S
C2737 H2714 0.950 . S
C2737 C2736 1.334 . S
C2737 C2738 1.287 . S
C2738 C2737 1.287 . S
C2738 C2739 1.524 . S
C2738 H2757 0.913 . S
C2739 H2715 0.950 . S
C2739 C2738 1.524 . S
C2739 C2740 1.415 . S
C2740 H2716 0.950 . S
C2740 C2735 1.363 . S
C2740 C2739 1.415 . S
C2741 H2717 0.951 . S
C2741 C2742 1.366 . S
C2741 C2743 1.388 . S
C2742 C2741 1.366 . S
C2742 C2746 1.385 . S
C2743 H2718 0.951 . S
C2743 C2741 1.388 . S
C2743 C2744 1.366 . S
C2744 C2743 1.366 . S
C2744 C2745 1.414 . S
C2744 C2747 1.499 . S
C2745 H2719 0.950 . S
C2745 C2744 1.414 . S
C2745 C2746 1.374 . S
C2746 H2720 0.950 . S
C2746 C2742 1.385 . S
C2746 C2745 1.374 . S
C2747 C2744 1.499 . S
C2747 C2748 1.373 . S
C2747 C2749 1.389 . S
C2748 H2721 0.950 . S
C2748 C2734 1.377 . S
C2748 C2747 1.373 . S
C2749 C2733 1.377 . S
C2749 C2747 1.389 . S
C2749 C2750 1.524 . S
C2750 C2749 1.524 . S
C2750 C2751 1.397 . S
C2750 C2755 1.363 . S
C2751 H2722 0.950 . S
C2751 C2750 1.397 . S
C2751 C2752 1.334 . S
C2752 H2723 0.950 . S
C2752 C2751 1.334 . S
C2752 C2753 1.287 . S
C2753 C2752 1.287 . S
C2753 C2754 1.524 . S
C2753 H2756 0.999 . S
C2754 H2724 0.950 . S
C2754 C2753 1.524 . S
C2754 C2755 1.415 . S
C2755 H2725 0.950 . S
C2755 C2750 1.363 . S
C2755 C2754 1.415 . S
H2756 C2753 0.999 . S
H2757 C2738 0.913 . S
H2758 C2776 0.951 . S
H2759 C2778 0.951 . S
H2760 C2780 0.950 . S
H2761 C2781 0.950 . S
H2762 C2783 0.950 . S
H2763 C2786 0.950 . S
H2764 C2787 0.950 . S
H2765 C2789 0.950 . S
H2766 C2790 0.950 . S
H2767 C2791 0.951 . S
H2768 C2793 0.951 . S
H2769 C2795 0.950 . S
H2770 C2796 0.950 . S
H2771 C2798 0.950 . S
H2772 C2801 0.950 . S
H2773 C2802 0.950 . S
H2774 C2804 0.950 . S
H2775 C2805 0.950 . S
C2776 H2758 0.951 . S
C2776 C2777 1.366 . S
C2776 C2778 1.388 . S
C2777 C2776 1.366 . S
C2777 C2781 1.385 . S
C2778 H2759 0.951 . S
C2778 C2776 1.388 . S
C2778 C2779 1.366 . S
C2779 C2778 1.366 . S
C2779 C2780 1.414 . S
C2779 C2782 1.499 . S
C2780 H2760 0.950 . S
C2780 C2779 1.414 . S
C2780 C2781 1.374 . S
C2781 H2761 0.950 . S
C2781 C2777 1.385 . S
C2781 C2780 1.374 . S
C2782 C2779 1.499 . S
C2782 C2783 1.373 . S
C2782 C2784 1.389 . S
C2783 H2762 0.950 . S
C2783 C2782 1.373 . S
C2783 C2799 1.377 . S
C2784 C2782 1.389 . S
C2784 C2785 1.524 . S
C2784 C2798 1.377 . S
C2785 C2784 1.524 . S
C2785 C2786 1.397 . S
C2785 C2790 1.363 . S
C2786 H2763 0.950 . S
C2786 C2785 1.397 . S
C2786 C2787 1.334 . S
C2787 H2764 0.950 . S
C2787 C2786 1.334 . S
C2787 C2788 1.287 . S
C2788 C2787 1.287 . S
C2788 C2789 1.524 . S
C2788 H2807 0.913 . S
C2789 H2765 0.950 . S
C2789 C2788 1.524 . S
C2789 C2790 1.415 . S
C2790 H2766 0.950 . S
C2790 C2785 1.363 . S
C2790 C2789 1.415 . S
C2791 H2767 0.951 . S
C2791 C2792 1.366 . S
C2791 C2793 1.388 . S
C2792 C2791 1.366 . S
C2792 C2796 1.385 . S
C2793 H2768 0.951 . S
C2793 C2791 1.388 . S
C2793 C2794 1.366 . S
C2794 C2793 1.366 . S
C2794 C2795 1.414 . S
C2794 C2797 1.499 . S
C2795 H2769 0.950 . S
C2795 C2794 1.414 . S
C2795 C2796 1.374 . S
C2796 H2770 0.950 . S
C2796 C2792 1.385 . S
C2796 C2795 1.374 . S
C2797 C2794 1.499 . S
C2797 C2798 1.373 . S
C2797 C2799 1.389 . S
C2798 H2771 0.950 . S
C2798 C2784 1.377 . S
C2798 C2797 1.373 . S
C2799 C2783 1.377 . S
C2799 C2797 1.389 . S
C2799 C2800 1.524 . S
C2800 C2799 1.524 . S
C2800 C2801 1.397 . S
C2800 C2805 1.363 . S
C2801 H2772 0.950 . S
C2801 C2800 1.397 . S
C2801 C2802 1.334 . S
C2802 H2773 0.950 . S
C2802 C2801 1.334 . S
C2802 C2803 1.287 . S
C2803 C2802 1.287 . S
C2803 C2804 1.524 . S
C2803 H2806 0.999 . S
C2804 H2774 0.950 . S
C2804 C2803 1.524 . S
C2804 C2805 1.415 . S
C2805 H2775 0.950 . S
C2805 C2800 1.363 . S
C2805 C2804 1.415 . S
H2806 C2803 0.999 . S
H2807 C2788 0.913 . S
H2808 C2826 0.951 . S
H2809 C2828 0.951 . S
H2810 C2830 0.950 . S
H2811 C2831 0.950 . S
H2812 C2833 0.950 . S
H2813 C2836 0.950 . S
H2814 C2837 0.950 . S
H2815 C2839 0.950 . S
H2816 C2840 0.950 . S
H2817 C2841 0.951 . S
H2818 C2843 0.951 . S
H2819 C2845 0.950 . S
H2820 C2846 0.950 . S
H2821 C2848 0.950 . S
H2822 C2851 0.950 . S
H2823 C2852 0.950 . S
H2824 C2854 0.950 . S
H2825 C2855 0.950 . S
C2826 H2808 0.951 . S
C2826 C2827 1.366 . S
C2826 C2828 1.388 . S
C2827 C2826 1.366 . S
C2827 C2831 1.385 . S
C2828 H2809 0.951 . S
C2828 C2826 1.388 . S
C2828 C2829 1.366 . S
C2829 C2828 1.366 . S
C2829 C2830 1.414 . S
C2829 C2832 1.499 . S
C2830 H2810 0.950 . S
C2830 C2829 1.414 . S
C2830 C2831 1.374 . S
C2831 H2811 0.950 . S
C2831 C2827 1.385 . S
C2831 C2830 1.374 . S
C2832 C2829 1.499 . S
C2832 C2833 1.373 . S
C2832 C2834 1.389 . S
C2833 H2812 0.950 . S
C2833 C2832 1.373 . S
C2833 C2849 1.377 . S
C2834 C2832 1.389 . S
C2834 C2835 1.524 . S
C2834 C2848 1.377 . S
C2835 C2834 1.524 . S
C2835 C2836 1.397 . S
C2835 C2840 1.363 . S
C2836 H2813 0.950 . S
C2836 C2835 1.397 . S
C2836 C2837 1.334 . S
C2837 H2814 0.950 . S
C2837 C2836 1.334 . S
C2837 C2838 1.287 . S
C2838 C2837 1.287 . S
C2838 C2839 1.524 . S
C2838 H2857 0.913 . S
C2839 H2815 0.950 . S
C2839 C2838 1.524 . S
C2839 C2840 1.415 . S
C2840 H2816 0.950 . S
C2840 C2835 1.363 . S
C2840 C2839 1.415 . S
C2841 H2817 0.951 . S
C2841 C2842 1.366 . S
C2841 C2843 1.388 . S
C2842 C2841 1.366 . S
C2842 C2846 1.385 . S
C2843 H2818 0.951 . S
C2843 C2841 1.388 . S
C2843 C2844 1.366 . S
C2844 C2843 1.366 . S
C2844 C2845 1.414 . S
C2844 C2847 1.499 . S
C2845 H2819 0.950 . S
C2845 C2844 1.414 . S
C2845 C2846 1.374 . S
C2846 H2820 0.950 . S
C2846 C2842 1.385 . S
C2846 C2845 1.374 . S
C2847 C2844 1.499 . S
C2847 C2848 1.373 . S
C2847 C2849 1.389 . S
C2848 H2821 0.950 . S
C2848 C2834 1.377 . S
C2848 C2847 1.373 . S
C2849 C2833 1.377 . S
C2849 C2847 1.389 . S
C2849 C2850 1.524 . S
C2850 C2849 1.524 . S
C2850 C2851 1.397 . S
C2850 C2855 1.363 . S
C2851 H2822 0.950 . S
C2851 C2850 1.397 . S
C2851 C2852 1.334 . S
C2852 H2823 0.950 . S
C2852 C2851 1.334 . S
C2852 C2853 1.287 . S
C2853 C2852 1.287 . S
C2853 C2854 1.524 . S
C2853 H2856 0.999 . S
C2854 H2824 0.950 . S
C2854 C2853 1.524 . S
C2854 C2855 1.415 . S
C2855 H2825 0.950 . S
C2855 C2850 1.363 . S
C2855 C2854 1.415 . S
H2856 C2853 0.999 . S
H2857 C2838 0.913 . S
C492 C283 0.379 . S
C477 C4 0.227 . S
C542 C273 1.695 . S
C527 C63 1.703 . S
C592 C274 0.643 . S
C577 C72 0.643 . S
C627 C102 1.623 . S
C642 C296 1.608 . S
C677 C136 1.702 . S
C692 C299 1.695 . S
C742 C282 0.644 . S
C727 C183 0.636 . S
C777 C233 1.623 . S
C792 C272 1.610 . S
C827 C251 0.232 . S
C842 C290 0.375 . S
C892 C303 1.556 . S
C877 C29 1.586 . S
C927 C42 1.878 . S
C942 C352 1.791 . S
C992 C330 1.677 . S
C977 C97 1.700 . S
C1042 C344 0.633 . S
C1027 C115 0.590 . S
C1077 C149 0.615 . S
C1092 C305 0.632 . S
C1142 C358 1.590 . S
C1127 C187 1.631 . S
C1177 C212 1.890 . S
C1192 C314 1.794 . S
C1227 C255 1.684 . S
C1242 C335 1.655 . S
C1277 C8 1.684 . S
C1292 C361 1.646 . S
C1327 C153 1.878 . S
C1342 C345 1.793 . S
C1392 C304 1.678 . S
C1377 C170 1.701 . S
C1442 C336 0.633 . S
C1427 C208 0.599 . S
C1477 C238 1.589 . S
C1492 C327 1.560 . S
C1527 C76 1.631 . S
C1542 C334 1.589 . S
C1592 C321 1.792 . S
C1577 C119 1.889 . S
C1627 C38 0.615 . S
C1642 C313 0.625 . S
C1677 C242 0.229 . S
C1692 C376 0.381 . S
C1727 C165 1.703 . S
C1742 C366 1.698 . S
C1792 C367 0.643 . S
C1777 C174 0.640 . S
C1842 C389 1.610 . S
C1827 C204 1.625 . S
C1877 C34 1.702 . S
C1892 C392 1.693 . S
C1942 C375 0.643 . S
C1927 C81 0.639 . S
C1977 C131 1.623 . S
C1992 C365 1.607 . S
C2027 C13 0.232 . S
C2042 C383 0.374 . S
C2077 C267 1.589 . S
C2092 C396 1.558 . S
C2142 C445 1.792 . S
C2127 C144 1.880 . S
C2177 C199 1.700 . S
C2192 C423 1.676 . S
C2227 C217 0.593 . S
C2242 C437 0.630 . S
C2292 C398 0.631 . S
C2277 C47 0.616 . S
C2327 C85 1.631 . S
C2342 C451 1.590 . S
C2392 C407 1.792 . S
C2377 C110 1.888 . S
C2442 C428 1.650 . S
C2427 C17 1.682 . S
C2492 C454 1.651 . S
C2477 C246 1.685 . S
C2527 C51 1.878 . S
C2542 C438 1.792 . S
C2577 C68 1.701 . S
C2592 C397 1.679 . S
C2642 C429 0.630 . S
C2627 C106 0.594 . S
C2677 C0 1.589 . S
C2692 C420 1.555 . S
C2727 C178 1.631 . S
C2742 C427 1.589 . S
C2792 C414 1.792 . S
C2777 C221 1.892 . S
C2842 C406 0.628 . S
C2827 C140 0.614 . S
