# Generated by pormake.
# Topology ibd, (4,6)-cn, num edge types: 1
# Building blocks:
#     Node 0, Type 0, BuildingBlock: CEKHIL_clean_sbu_0, # of connection points: 4
#     Node 1, Type 0, BuildingBlock: CEKHIL_clean_sbu_0, # of connection points: 4
#     Node 2, Type 0, BuildingBlock: CEKHIL_clean_sbu_0, # of connection points: 4
#     Node 3, Type 0, BuildingBlock: CEKHIL_clean_sbu_0, # of connection points: 4
#     Node 4, Type 0, BuildingBlock: CEKHIL_clean_sbu_0, # of connection points: 4
#     Node 5, Type 0, BuildingBlock: CEKHIL_clean_sbu_0, # of connection points: 4
#     Node 6, Type 0, BuildingBlock: CEKHIL_clean_sbu_0, # of connection points: 4
#     Node 7, Type 0, BuildingBlock: CEKHIL_clean_sbu_0, # of connection points: 4
#     Node 8, Type 0, BuildingBlock: CEKHIL_clean_sbu_0, # of connection points: 4
#     Node 9, Type 0, BuildingBlock: CEKHIL_clean_sbu_0, # of connection points: 4
#     Node 10, Type 0, BuildingBlock: CEKHIL_clean_sbu_0, # of connection points: 4
#     Node 11, Type 0, BuildingBlock: CEKHIL_clean_sbu_0, # of connection points: 4
#     Node 12, Type 0, BuildingBlock: CEKHIL_clean_sbu_0, # of connection points: 4
#     Node 13, Type 0, BuildingBlock: CEKHIL_clean_sbu_0, # of connection points: 4
#     Node 14, Type 0, BuildingBlock: CEKHIL_clean_sbu_0, # of connection points: 4
#     Node 15, Type 0, BuildingBlock: CEKHIL_clean_sbu_0, # of connection points: 4
#     Node 16, Type 0, BuildingBlock: CEKHIL_clean_sbu_0, # of connection points: 4
#     Node 17, Type 0, BuildingBlock: CEKHIL_clean_sbu_0, # of connection points: 4
#     Node 18, Type 0, BuildingBlock: CEKHIL_clean_sbu_0, # of connection points: 4
#     Node 19, Type 0, BuildingBlock: CEKHIL_clean_sbu_0, # of connection points: 4
#     Node 20, Type 0, BuildingBlock: CEKHIL_clean_sbu_0, # of connection points: 4
#     Node 21, Type 0, BuildingBlock: CEKHIL_clean_sbu_0, # of connection points: 4
#     Node 22, Type 0, BuildingBlock: CEKHIL_clean_sbu_0, # of connection points: 4
#     Node 23, Type 0, BuildingBlock: CEKHIL_clean_sbu_0, # of connection points: 4
#     Node 24, Type 1, BuildingBlock: IZENUY_clean_sbu_0, # of connection points: 6
#     Node 25, Type 1, BuildingBlock: IZENUY_clean_sbu_0, # of connection points: 6
#     Node 26, Type 1, BuildingBlock: IZENUY_clean_sbu_0, # of connection points: 6
#     Node 27, Type 1, BuildingBlock: IZENUY_clean_sbu_0, # of connection points: 6
#     Node 28, Type 1, BuildingBlock: IZENUY_clean_sbu_0, # of connection points: 6
#     Node 29, Type 1, BuildingBlock: IZENUY_clean_sbu_0, # of connection points: 6
#     Node 30, Type 1, BuildingBlock: IZENUY_clean_sbu_0, # of connection points: 6
#     Node 31, Type 1, BuildingBlock: IZENUY_clean_sbu_0, # of connection points: 6
#     Node 32, Type 1, BuildingBlock: IZENUY_clean_sbu_0, # of connection points: 6
#     Node 33, Type 1, BuildingBlock: IZENUY_clean_sbu_0, # of connection points: 6
#     Node 34, Type 1, BuildingBlock: IZENUY_clean_sbu_0, # of connection points: 6
#     Node 35, Type 1, BuildingBlock: IZENUY_clean_sbu_0, # of connection points: 6
#     Node 36, Type 1, BuildingBlock: IZENUY_clean_sbu_0, # of connection points: 6
#     Node 37, Type 1, BuildingBlock: IZENUY_clean_sbu_0, # of connection points: 6
#     Node 38, Type 1, BuildingBlock: IZENUY_clean_sbu_0, # of connection points: 6
#     Node 39, Type 1, BuildingBlock: IZENUY_clean_sbu_0, # of connection points: 6
#     Edge 40, Type (0, 1), BuildingBlock: AJUNOK_clean_linker_0, # of connection points: 2
#     Edge 41, Type (0, 1), BuildingBlock: AJUNOK_clean_linker_0, # of connection points: 2
#     Edge 42, Type (0, 1), BuildingBlock: AJUNOK_clean_linker_0, # of connection points: 2
#     Edge 43, Type (0, 1), BuildingBlock: AJUNOK_clean_linker_0, # of connection points: 2
#     Edge 44, Type (0, 1), BuildingBlock: AJUNOK_clean_linker_0, # of connection points: 2
#     Edge 45, Type (0, 1), BuildingBlock: AJUNOK_clean_linker_0, # of connection points: 2
#     Edge 46, Type (0, 1), BuildingBlock: AJUNOK_clean_linker_0, # of connection points: 2
#     Edge 47, Type (0, 1), BuildingBlock: AJUNOK_clean_linker_0, # of connection points: 2
#     Edge 48, Type (0, 1), BuildingBlock: AJUNOK_clean_linker_0, # of connection points: 2
#     Edge 49, Type (0, 1), BuildingBlock: AJUNOK_clean_linker_0, # of connection points: 2
#     Edge 50, Type (0, 1), BuildingBlock: AJUNOK_clean_linker_0, # of connection points: 2
#     Edge 51, Type (0, 1), BuildingBlock: AJUNOK_clean_linker_0, # of connection points: 2
#     Edge 52, Type (0, 1), BuildingBlock: AJUNOK_clean_linker_0, # of connection points: 2
#     Edge 53, Type (0, 1), BuildingBlock: AJUNOK_clean_linker_0, # of connection points: 2
#     Edge 54, Type (0, 1), BuildingBlock: AJUNOK_clean_linker_0, # of connection points: 2
#     Edge 55, Type (0, 1), BuildingBlock: AJUNOK_clean_linker_0, # of connection points: 2
#     Edge 56, Type (0, 1), BuildingBlock: AJUNOK_clean_linker_0, # of connection points: 2
#     Edge 57, Type (0, 1), BuildingBlock: AJUNOK_clean_linker_0, # of connection points: 2
#     Edge 58, Type (0, 1), BuildingBlock: AJUNOK_clean_linker_0, # of connection points: 2
#     Edge 59, Type (0, 1), BuildingBlock: AJUNOK_clean_linker_0, # of connection points: 2
#     Edge 60, Type (0, 1), BuildingBlock: AJUNOK_clean_linker_0, # of connection points: 2
#     Edge 61, Type (0, 1), BuildingBlock: AJUNOK_clean_linker_0, # of connection points: 2
#     Edge 62, Type (0, 1), BuildingBlock: AJUNOK_clean_linker_0, # of connection points: 2
#     Edge 63, Type (0, 1), BuildingBlock: AJUNOK_clean_linker_0, # of connection points: 2
#     Edge 64, Type (0, 1), BuildingBlock: AJUNOK_clean_linker_0, # of connection points: 2
#     Edge 65, Type (0, 1), BuildingBlock: AJUNOK_clean_linker_0, # of connection points: 2
#     Edge 66, Type (0, 1), BuildingBlock: AJUNOK_clean_linker_0, # of connection points: 2
#     Edge 67, Type (0, 1), BuildingBlock: AJUNOK_clean_linker_0, # of connection points: 2
#     Edge 68, Type (0, 1), BuildingBlock: AJUNOK_clean_linker_0, # of connection points: 2
#     Edge 69, Type (0, 1), BuildingBlock: AJUNOK_clean_linker_0, # of connection points: 2
#     Edge 70, Type (0, 1), BuildingBlock: AJUNOK_clean_linker_0, # of connection points: 2
#     Edge 71, Type (0, 1), BuildingBlock: AJUNOK_clean_linker_0, # of connection points: 2
#     Edge 72, Type (0, 1), BuildingBlock: AJUNOK_clean_linker_0, # of connection points: 2
#     Edge 73, Type (0, 1), BuildingBlock: AJUNOK_clean_linker_0, # of connection points: 2
#     Edge 74, Type (0, 1), BuildingBlock: AJUNOK_clean_linker_0, # of connection points: 2
#     Edge 75, Type (0, 1), BuildingBlock: AJUNOK_clean_linker_0, # of connection points: 2
#     Edge 76, Type (0, 1), BuildingBlock: AJUNOK_clean_linker_0, # of connection points: 2
#     Edge 77, Type (0, 1), BuildingBlock: AJUNOK_clean_linker_0, # of connection points: 2
#     Edge 78, Type (0, 1), BuildingBlock: AJUNOK_clean_linker_0, # of connection points: 2
#     Edge 79, Type (0, 1), BuildingBlock: AJUNOK_clean_linker_0, # of connection points: 2
#     Edge 80, Type (0, 1), BuildingBlock: AJUNOK_clean_linker_0, # of connection points: 2
#     Edge 81, Type (0, 1), BuildingBlock: AJUNOK_clean_linker_0, # of connection points: 2
#     Edge 82, Type (0, 1), BuildingBlock: AJUNOK_clean_linker_0, # of connection points: 2
#     Edge 83, Type (0, 1), BuildingBlock: AJUNOK_clean_linker_0, # of connection points: 2
#     Edge 84, Type (0, 1), BuildingBlock: AJUNOK_clean_linker_0, # of connection points: 2
#     Edge 85, Type (0, 1), BuildingBlock: AJUNOK_clean_linker_0, # of connection points: 2
#     Edge 86, Type (0, 1), BuildingBlock: AJUNOK_clean_linker_0, # of connection points: 2
#     Edge 87, Type (0, 1), BuildingBlock: AJUNOK_clean_linker_0, # of connection points: 2
#     Edge 88, Type (0, 1), BuildingBlock: AJUNOK_clean_linker_0, # of connection points: 2
#     Edge 89, Type (0, 1), BuildingBlock: AJUNOK_clean_linker_0, # of connection points: 2
#     Edge 90, Type (0, 1), BuildingBlock: AJUNOK_clean_linker_0, # of connection points: 2
#     Edge 91, Type (0, 1), BuildingBlock: AJUNOK_clean_linker_0, # of connection points: 2
#     Edge 92, Type (0, 1), BuildingBlock: AJUNOK_clean_linker_0, # of connection points: 2
#     Edge 93, Type (0, 1), BuildingBlock: AJUNOK_clean_linker_0, # of connection points: 2
#     Edge 94, Type (0, 1), BuildingBlock: AJUNOK_clean_linker_0, # of connection points: 2
#     Edge 95, Type (0, 1), BuildingBlock: AJUNOK_clean_linker_0, # of connection points: 2
#     Edge 96, Type (0, 1), BuildingBlock: AJUNOK_clean_linker_0, # of connection points: 2
#     Edge 97, Type (0, 1), BuildingBlock: AJUNOK_clean_linker_0, # of connection points: 2
#     Edge 98, Type (0, 1), BuildingBlock: AJUNOK_clean_linker_0, # of connection points: 2
#     Edge 99, Type (0, 1), BuildingBlock: AJUNOK_clean_linker_0, # of connection points: 2
#     Edge 100, Type (0, 1), BuildingBlock: AJUNOK_clean_linker_0, # of connection points: 2
#     Edge 101, Type (0, 1), BuildingBlock: AJUNOK_clean_linker_0, # of connection points: 2
#     Edge 102, Type (0, 1), BuildingBlock: AJUNOK_clean_linker_0, # of connection points: 2
#     Edge 103, Type (0, 1), BuildingBlock: AJUNOK_clean_linker_0, # of connection points: 2
#     Edge 104, Type (0, 1), BuildingBlock: AJUNOK_clean_linker_0, # of connection points: 2
#     Edge 105, Type (0, 1), BuildingBlock: AJUNOK_clean_linker_0, # of connection points: 2
#     Edge 106, Type (0, 1), BuildingBlock: AJUNOK_clean_linker_0, # of connection points: 2
#     Edge 107, Type (0, 1), BuildingBlock: AJUNOK_clean_linker_0, # of connection points: 2
#     Edge 108, Type (0, 1), BuildingBlock: AJUNOK_clean_linker_0, # of connection points: 2
#     Edge 109, Type (0, 1), BuildingBlock: AJUNOK_clean_linker_0, # of connection points: 2
#     Edge 110, Type (0, 1), BuildingBlock: AJUNOK_clean_linker_0, # of connection points: 2
#     Edge 111, Type (0, 1), BuildingBlock: AJUNOK_clean_linker_0, # of connection points: 2
#     Edge 112, Type (0, 1), BuildingBlock: AJUNOK_clean_linker_0, # of connection points: 2
#     Edge 113, Type (0, 1), BuildingBlock: AJUNOK_clean_linker_0, # of connection points: 2
#     Edge 114, Type (0, 1), BuildingBlock: AJUNOK_clean_linker_0, # of connection points: 2
#     Edge 115, Type (0, 1), BuildingBlock: AJUNOK_clean_linker_0, # of connection points: 2
#     Edge 116, Type (0, 1), BuildingBlock: AJUNOK_clean_linker_0, # of connection points: 2
#     Edge 117, Type (0, 1), BuildingBlock: AJUNOK_clean_linker_0, # of connection points: 2
#     Edge 118, Type (0, 1), BuildingBlock: AJUNOK_clean_linker_0, # of connection points: 2
#     Edge 119, Type (0, 1), BuildingBlock: AJUNOK_clean_linker_0, # of connection points: 2
#     Edge 120, Type (0, 1), BuildingBlock: AJUNOK_clean_linker_0, # of connection points: 2
#     Edge 121, Type (0, 1), BuildingBlock: AJUNOK_clean_linker_0, # of connection points: 2
#     Edge 122, Type (0, 1), BuildingBlock: AJUNOK_clean_linker_0, # of connection points: 2
#     Edge 123, Type (0, 1), BuildingBlock: AJUNOK_clean_linker_0, # of connection points: 2
#     Edge 124, Type (0, 1), BuildingBlock: AJUNOK_clean_linker_0, # of connection points: 2
#     Edge 125, Type (0, 1), BuildingBlock: AJUNOK_clean_linker_0, # of connection points: 2
#     Edge 126, Type (0, 1), BuildingBlock: AJUNOK_clean_linker_0, # of connection points: 2
#     Edge 127, Type (0, 1), BuildingBlock: AJUNOK_clean_linker_0, # of connection points: 2
#     Edge 128, Type (0, 1), BuildingBlock: AJUNOK_clean_linker_0, # of connection points: 2
#     Edge 129, Type (0, 1), BuildingBlock: AJUNOK_clean_linker_0, # of connection points: 2
#     Edge 130, Type (0, 1), BuildingBlock: AJUNOK_clean_linker_0, # of connection points: 2
#     Edge 131, Type (0, 1), BuildingBlock: AJUNOK_clean_linker_0, # of connection points: 2
#     Edge 132, Type (0, 1), BuildingBlock: AJUNOK_clean_linker_0, # of connection points: 2
#     Edge 133, Type (0, 1), BuildingBlock: AJUNOK_clean_linker_0, # of connection points: 2
#     Edge 134, Type (0, 1), BuildingBlock: AJUNOK_clean_linker_0, # of connection points: 2
#     Edge 135, Type (0, 1), BuildingBlock: AJUNOK_clean_linker_0, # of connection points: 2
# Relax obj value: 0.305
# Max RMSD: 0.285
# Mean RMSD: 0.259
data_MOF--net-ibd--node1-CEKHIL_clean_sbu_0--node2-IZENUY_clean_sbu_0--edge1-AJUNOK_clean_linker_0
_symmetry_space_group_name_H-M    P1
_symmetry_Int_Tables_number       1
_symmetry_cell_setting            triclinic
loop_
_symmetry_equiv_pos_as_xyz
'x, y, z'
_cell_length_a     36.277162
_cell_length_b     36.304407
_cell_length_c     36.285478
_cell_angle_alpha  90.403512
_cell_angle_beta   90.423304
_cell_angle_gamma 90.961133
loop_
_atom_site_label
_atom_site_type_symbol
_atom_site_fract_x
_atom_site_fract_y
_atom_site_fract_z
_atom_type_partial_charge
Co0 Co 0.00322 0.26908 0.37077 0.0
O1 O -0.00165 0.30567 0.33285 0.0
O2 O 0.95592 0.26333 0.34667 0.0
C3 C 0.02704 0.3072 0.41465 0.0
O4 O 0.99567 0.22872 0.40829 0.0
Co5 Co 0.07763 0.24704 0.40647 0.0
O6 O 0.04649 0.21919 0.442 0.0
C7 C 0.06016 0.22618 0.32983 0.0
C8 C 0.96584 0.29115 0.32659 0.0
C9 C 0.01235 0.21332 0.43523 0.0
O10 O 0.02609 0.23407 0.33463 0.0
O11 O 0.08563 0.23299 0.35359 0.0
O12 O 0.99157 0.30574 0.4087 0.0
O13 O 0.04653 0.28778 0.39254 0.0
Co14 Co 0.98272 0.74579 0.62635 0.0
O15 O 0.9486 0.73994 0.66707 0.0
O16 O 0.97802 0.79176 0.65259 0.0
C17 C 0.94947 0.71543 0.58277 0.0
O18 O 0.01718 0.7648 0.5866 0.0
Co19 Co 0.02114 0.68083 0.58637 0.0
O20 O 0.03974 0.71882 0.55207 0.0
C21 C 0.04491 0.70246 0.66106 0.0
C22 C 0.95521 0.77463 0.67412 0.0
C23 C 0.03581 0.7529 0.55914 0.0
O24 O 0.02506 0.73153 0.65939 0.0
O25 O 0.04477 0.6775 0.63604 0.0
O26 O 0.94166 0.74925 0.59154 0.0
O27 O 0.97432 0.70019 0.60287 0.0
Co28 Co 0.50508 0.76318 0.87418 0.0
O29 O 0.50516 0.79784 0.83428 0.0
O30 O 0.46081 0.7566 0.84524 0.0
C31 C 0.52351 0.803 0.91856 0.0
O32 O 0.49271 0.72508 0.91274 0.0
Co33 Co 0.5749 0.74305 0.91921 0.0
O34 O 0.53887 0.7202 0.9537 0.0
C35 C 0.56607 0.71756 0.8426 0.0
C36 C 0.47323 0.78349 0.82521 0.0
C37 C 0.50568 0.71365 0.94348 0.0
O38 O 0.5318 0.72624 0.84291 0.0
O39 O 0.58876 0.72534 0.86877 0.0
O40 O 0.48902 0.8015 0.90839 0.0
O41 O 0.5456 0.78287 0.89979 0.0
Co42 Co 0.49379 0.24711 0.1333 0.0
O43 O 0.45549 0.2389 0.16992 0.0
O44 O 0.48468 0.29172 0.15992 0.0
C45 C 0.46587 0.21751 0.08551 0.0
O46 O 0.53135 0.27006 0.09887 0.0
Co47 Co 0.53937 0.18851 0.09282 0.0
O48 O 0.56298 0.22932 0.06563 0.0
C49 C 0.54941 0.2007 0.17221 0.0
C50 C 0.45964 0.27381 0.17801 0.0
C51 C 0.55537 0.26223 0.07444 0.0
O52 O 0.53262 0.23166 0.17003 0.0
O53 O 0.55149 0.17819 0.14513 0.0
O54 O 0.4564 0.2508 0.09457 0.0
O55 O 0.48971 0.20243 0.10689 0.0
Co56 Co 0.00654 0.76053 0.12302 0.0
O57 O 0.01182 0.79625 0.08379 0.0
O58 O 0.96065 0.7652 0.09651 0.0
C59 C 0.03505 0.79383 0.16758 0.0
O60 O 0.98795 0.72402 0.16117 0.0
Co61 Co 0.07174 0.72348 0.16384 0.0
O62 O 0.03367 0.70146 0.19603 0.0
C63 C 0.05474 0.70422 0.08654 0.0
C64 C 0.97711 0.7898 0.07644 0.0
C65 C -0.00036 0.70453 0.18813 0.0
O66 O 0.02335 0.72018 0.08886 0.0
O67 O 0.07896 0.70558 0.11232 0.0
O68 O 0.00091 0.80026 0.15887 0.0
O69 O 0.05147 0.76985 0.14743 0.0
Co70 Co 0.48614 0.74216 0.38393 0.0
O71 O 0.44845 0.74427 0.42087 0.0
O72 O 0.49009 0.78835 0.41009 0.0
C73 C 0.44984 0.71991 0.33796 0.0
O74 O 0.52727 0.75245 0.3477 0.0
Co75 Co 0.51137 0.6699 0.34708 0.0
O76 O 0.53693 0.70309 0.3119 0.0
C77 C 0.53147 0.6856 0.42428 0.0
C78 C 0.46199 0.77678 0.42893 0.0
C79 C 0.54224 0.73703 0.31974 0.0
O80 O 0.5204 0.71883 0.42043 0.0
O81 O 0.52825 0.66097 0.39901 0.0
O82 O 0.45037 0.75494 0.34588 0.0
O83 O 0.4689 0.69946 0.3597 0.0
Co84 Co 0.51115 0.27038 0.6204 0.0
O85 O 0.51578 0.30305 0.57886 0.0
O86 O 0.46568 0.27064 0.59274 0.0
C87 C 0.53667 0.30853 0.66291 0.0
O88 O 0.49367 0.23611 0.66089 0.0
Co89 Co 0.57716 0.24138 0.66654 0.0
O90 O 0.53827 0.23327 0.70395 0.0
C91 C 0.56059 0.2096 0.59278 0.0
C92 C 0.48146 0.29475 0.57153 0.0
C93 C 0.50487 0.22891 0.69361 0.0
O94 O 0.53051 0.22796 0.59059 0.0
O95 O 0.58349 0.21303 0.61962 0.0
O96 O 0.50249 0.31232 0.65274 0.0
O97 O 0.55488 0.28428 0.64476 0.0
Co98 Co 0.97964 0.24342 0.87312 0.0
O99 O 0.94519 0.24005 0.91318 0.0
O100 O 0.98054 0.2889 0.90059 0.0
C101 C 0.94251 0.21938 0.82884 0.0
O102 O 0.0172 0.25885 0.83468 0.0
Co103 Co 0.0085 0.17494 0.83149 0.0
O104 O 0.03243 0.21127 0.79844 0.0
C105 C 0.03231 0.18971 0.9078 0.0
C106 C 0.95595 0.27346 0.92147 0.0
C107 C 0.03431 0.24535 0.80696 0.0
O108 O 0.01855 0.22212 0.90615 0.0
O109 O 0.02888 0.16568 0.882 0.0
O110 O 0.94007 0.25394 0.83813 0.0
O111 O 0.96487 0.20023 0.84847 0.0
Co112 Co 0.3731 0.00512 0.23253 0.0
O113 O 0.41376 0.00599 0.1985 0.0
O114 O 0.39392 0.95688 0.22877 0.0
C115 C 0.33229 0.03658 0.19871 0.0
O116 O 0.33201 0.99162 0.26766 0.0
Co117 Co 0.34113 0.07552 0.26838 0.0
O118 O 0.30224 0.0418 0.28729 0.0
C119 C 0.41231 0.04728 0.29476 0.0
C120 C 0.41711 0.97109 0.20558 0.0
C121 C 0.30581 0.00701 0.28528 0.0
O122 O 0.40781 0.01826 0.27453 0.0
O123 O 0.39013 0.07432 0.29405 0.0
O124 O 0.33754 0.00179 0.1922 0.0
O125 O 0.3546 0.05206 0.22223 0.0
Co126 Co 0.24692 0.12675 0.52241 0.0
O127 O 0.2475 0.08844 0.559 0.0
O128 O 0.29205 0.10005 0.51879 0.0
C129 C 0.22522 0.17077 0.55994 0.0
O130 O 0.2594 0.164 0.48262 0.0
Co131 Co 0.17753 0.16804 0.49621 0.0
O132 O 0.21256 0.20152 0.47054 0.0
C133 C 0.18738 0.08985 0.47692 0.0
C134 C 0.2796 0.08029 0.54573 0.0
C135 C 0.24609 0.1924 0.46679 0.0
O136 O 0.22156 0.09189 0.48673 0.0
O137 O 0.16478 0.11615 0.48137 0.0
O138 O 0.26036 0.16377 0.56005 0.0
O139 O 0.2049 0.15041 0.53864 0.0
Co140 Co 0.12678 0.00446 0.74427 0.0
O141 O 0.16323 0.00501 0.70596 0.0
O142 O 0.15397 0.95936 0.74521 0.0
C143 C 0.08031 0.02619 0.70972 0.0
O144 O 0.09135 0.99151 0.78565 0.0
Co145 Co 0.08855 0.07448 0.77355 0.0
O146 O 0.05588 0.03941 0.80002 0.0
C147 C 0.16753 0.06337 0.78699 0.0
C148 C 0.17241 0.97261 0.71764 0.0
C149 C 0.06419 0.00561 0.80304 0.0
O150 O 0.16351 0.02906 0.77848 0.0
O151 O 0.14161 0.08668 0.78437 0.0
O152 O 0.08821 0.99133 0.70833 0.0
O153 O 0.10193 0.04654 0.72986 0.0
Co154 Co 0.25548 0.87979 0.01245 0.0
O155 O 0.24825 0.84132 0.04804 0.0
O156 O 0.30111 0.85467 0.02071 0.0
C157 C 0.22548 0.92373 0.04318 0.0
O158 O 0.27518 0.91796 0.97666 0.0
Co159 Co 0.19079 0.91697 0.97126 0.0
O160 O 0.22926 0.95113 0.95247 0.0
C161 C 0.21198 0.84134 0.95117 0.0
C162 C 0.28306 0.83446 0.0441 0.0
C163 C 0.26335 0.94451 0.95685 0.0
O164 O 0.24128 0.84447 0.97131 0.0
O165 O 0.18727 0.86606 0.95001 0.0
O166 O 0.25951 0.91658 0.05164 0.0
O167 O 0.20992 0.90238 0.01894 0.0
Co168 Co 0.26081 0.37867 0.99769 0.0
O169 O 0.29793 0.34159 -0.00056 0.0
O170 O 0.25997 0.35109 0.95229 0.0
C171 C 0.29628 0.42484 0.0207 0.0
O172 O 0.22112 0.41479 0.9839 0.0
Co173 Co 0.23214 0.4179 0.06778 0.0
O174 O 0.20783 0.45109 0.03208 0.0
C175 C 0.21332 0.34006 0.05379 0.0
C176 C 0.2868 0.33248 0.96643 0.0
C177 C 0.20485 0.44259 0.99803 0.0
O178 O 0.22406 0.34337 0.02022 0.0
O179 O 0.2178 0.36542 0.07816 0.0
O180 O 0.29816 0.41618 0.9859 0.0
O181 O 0.27548 0.40376 0.04039 0.0
Co182 Co 0.74409 0.11965 0.00427 0.0
O183 O 0.78239 0.08346 0.0115 0.0
O184 O 0.75123 0.09188 0.9598 0.0
C185 C 0.77377 0.16779 0.03112 0.0
O186 O 0.70589 0.15369 0.98274 0.0
Co187 Co 0.7022 0.16082 0.06531 0.0
O188 O 0.67858 0.18893 0.02509 0.0
C189 C 0.6887 0.08151 0.05331 0.0
C190 C 0.7768 0.0743 0.97708 0.0
C191 C 0.68374 0.1793 0.99177 0.0
O192 O 0.70563 0.0832 0.02222 0.0
O193 O 0.68746 0.10869 0.07586 0.0
O194 O 0.78114 0.15851 0.99729 0.0
O195 O 0.75087 0.14665 0.04833 0.0
Co196 Co 0.1234 0.49164 0.2426 0.0
O197 O 0.16376 0.45786 0.23653 0.0
O198 O 0.15 0.48724 0.28811 0.0
C199 C 0.07979 0.45676 0.21381 0.0
O200 O 0.08454 0.52579 0.26251 0.0
Co201 Co 0.0798 0.52883 0.18001 0.0
O202 O 0.04168 0.53367 0.21879 0.0
C203 C 0.15619 0.55352 0.19686 0.0
C204 C 0.17072 0.46381 0.27137 0.0
C205 C 0.05181 0.53404 0.25244 0.0
O206 O 0.15599 0.53413 0.2265 0.0
O207 O 0.12942 0.55318 0.17364 0.0
O208 O 0.08905 0.45013 0.2478 0.0
O209 O 0.09877 0.48232 0.1977 0.0
Co210 Co 0.76896 0.86641 0.49846 0.0
O211 O 0.80821 0.83162 0.4951 0.0
O212 O 0.76456 0.83982 0.45281 0.0
C213 C 0.80453 0.91396 0.51823 0.0
O214 O 0.72611 0.90008 0.48899 0.0
Co215 Co 0.74455 0.90491 0.57003 0.0
O216 O 0.71903 0.93913 0.53623 0.0
C217 C 0.72636 0.82622 0.55806 0.0
C218 C 0.79421 0.82308 0.46298 0.0
C219 C 0.71251 0.92929 0.50302 0.0
O220 O 0.73701 0.82875 0.52435 0.0
O221 O 0.72916 0.85288 0.58125 0.0
O222 O 0.80269 0.90581 0.48328 0.0
O223 O 0.78668 0.89208 0.5399 0.0
Co224 Co 0.8731 0.98171 0.24987 0.0
O225 O 0.90948 0.94374 0.25025 0.0
O226 O 0.89963 0.98354 0.29575 0.0
C227 C 0.82711 0.94593 0.22714 0.0
O228 O 0.83766 0.02244 0.26245 0.0
Co229 Co 0.83416 0.0103 0.18034 0.0
O230 O 0.79873 0.03196 0.21561 0.0
C231 C 0.91257 0.02894 0.19361 0.0
C232 C 0.91778 0.95569 0.28322 0.0
C233 C 0.80806 0.0362 0.24931 0.0
O234 O 0.90977 0.01673 0.22673 0.0
O235 O 0.88615 0.02688 0.17004 0.0
O236 O 0.83486 0.94556 0.26222 0.0
O237 O 0.84829 0.96629 0.20701 0.0
Co238 Co 0.25223 0.62456 0.50404 0.0
O239 O 0.28502 0.58404 0.51362 0.0
O240 O 0.26015 0.59674 0.45951 0.0
C241 C 0.28493 0.66833 0.53459 0.0
O242 O 0.22003 0.66388 0.48126 0.0
Co243 Co 0.21069 0.66801 0.56442 0.0
O244 O 0.20767 0.7056 0.52516 0.0
C245 C 0.18852 0.59145 0.54674 0.0
C246 C 0.28175 0.57603 0.47871 0.0
C247 C 0.21021 0.69618 0.49145 0.0
O248 O 0.20852 0.5925 0.5175 0.0
O249 O 0.18762 0.61788 0.57021 0.0
O250 O 0.29432 0.65844 0.50147 0.0
O251 O 0.25826 0.64959 0.54909 0.0
Co252 Co 0.37552 0.47953 0.75837 0.0
O253 O 0.41224 0.44217 0.76529 0.0
O254 O 0.39879 0.48625 0.80556 0.0
C255 C 0.33027 0.44232 0.73548 0.0
O256 O 0.33974 0.52072 0.76491 0.0
Co257 Co 0.33955 0.50175 0.68428 0.0
O258 O 0.30463 0.53006 0.71519 0.0
C259 C 0.41709 0.5219 0.70028 0.0
C260 C 0.41816 0.45779 0.79728 0.0
C261 C 0.31253 0.53607 0.749 0.0
O262 O 0.41298 0.51335 0.73444 0.0
O263 O 0.39236 0.516 0.67552 0.0
O264 O 0.33629 0.44411 0.7709 0.0
O265 O 0.35315 0.46073 0.71548 0.0
Co266 Co 0.62928 0.99333 0.74101 0.0
O267 O 0.66772 0.95707 0.73541 0.0
O268 O 0.65809 0.9905 0.78544 0.0
C269 C 0.58296 0.95929 0.71651 0.0
O270 O 0.5928 0.03038 0.76069 0.0
Co271 Co 0.58399 0.02806 0.67772 0.0
O272 O 0.55186 0.04692 0.71741 0.0
C273 C 0.66312 0.04643 0.68709 0.0
C274 C 0.67691 0.96505 0.76935 0.0
C275 C 0.56314 0.04638 0.75068 0.0
O276 O 0.66298 0.03263 0.7198 0.0
O277 O 0.63525 0.04461 0.66531 0.0
O278 O 0.59277 0.95446 0.75069 0.0
O279 O 0.60251 0.98243 0.69797 0.0
Co280 Co 0.75185 0.62439 0.01539 0.0
O281 O 0.7489 0.58226 0.04746 0.0
O282 O 0.79843 0.59979 0.01606 0.0
C283 C 0.7238 0.66443 0.05323 0.0
O284 O 0.76748 0.66543 0.98077 0.0
Co285 Co 0.68366 0.66435 0.98404 0.0
O286 O 0.71984 0.6991 0.96187 0.0
C287 C 0.69962 0.58826 0.96163 0.0
C288 C 0.78295 0.57653 0.03831 0.0
C289 C 0.75424 0.6926 0.96285 0.0
O290 O 0.73295 0.59244 0.97363 0.0
O291 O 0.67486 0.61247 0.96652 0.0
O292 O 0.7588 0.65799 0.05751 0.0
O293 O 0.70705 0.64522 0.02811 0.0
Co294 Co 0.87711 0.49271 0.75272 0.0
O295 O 0.91452 0.50434 0.71636 0.0
O296 O 0.90452 0.44972 0.74152 0.0
C297 C 0.83017 0.52165 0.72455 0.0
O298 O 0.84216 0.4663 0.78715 0.0
Co299 Co 0.83345 0.54737 0.80015 0.0
O300 O 0.80155 0.50462 0.81236 0.0
C301 C 0.91278 0.53725 0.81403 0.0
C302 C 0.9226 0.46951 0.71806 0.0
C303 C 0.81331 0.47244 0.80605 0.0
O304 O 0.91224 0.50778 0.79388 0.0
O305 O 0.88488 0.55799 0.81731 0.0
O306 O 0.83992 0.48901 0.71366 0.0
O307 O 0.85014 0.53645 0.75042 0.0
Co308 Co 0.74549 0.36999 0.51508 0.0
O309 O 0.74214 0.33038 0.54979 0.0
O310 O 0.79267 0.34671 0.51975 0.0
C311 C 0.71557 0.41181 0.54869 0.0
O312 O 0.76059 0.40975 0.47879 0.0
Co313 Co 0.67616 0.40405 0.47907 0.0
O314 O 0.7113 0.44376 0.46487 0.0
C315 C 0.70106 0.33076 0.45507 0.0
C316 C 0.77675 0.32476 0.54315 0.0
C317 C 0.74587 0.43822 0.46433 0.0
O318 O 0.73082 0.33512 0.47413 0.0
O319 O 0.67486 0.35397 0.45544 0.0
O320 O 0.75035 0.40601 0.55483 0.0
O321 O 0.6994 0.39013 0.52511 0.0
Co322 Co 0.61919 0.4949 0.23152 0.0
O323 O 0.65595 0.49601 0.19345 0.0
O324 O 0.6452 0.44928 0.23121 0.0
C325 C 0.5736 0.51923 0.19783 0.0
O326 O 0.58322 0.48144 0.27233 0.0
Co327 Co 0.58265 0.56499 0.26298 0.0
O328 O 0.54995 0.53005 0.28961 0.0
C329 C 0.66144 0.55159 0.27552 0.0
C330 C 0.66456 0.46328 0.20464 0.0
C331 C 0.55711 0.49585 0.29105 0.0
O332 O 0.65634 0.51743 0.26681 0.0
O333 O 0.63617 0.57561 0.27276 0.0
O334 O 0.58033 0.48417 0.19495 0.0
O335 O 0.5958 0.53802 0.21871 0.0
Fe336 Fe 0.12472 0.09169 0.15613 0.0
Fe337 Fe 0.08797 0.15777 0.11964 0.0
O338 O 0.12416 0.12565 0.12133 0.0
Fe339 Fe 0.15981 0.12814 0.08832 0.0
O340 O 0.15 0.08186 0.07202 0.0
O341 O 0.14575 0.05643 0.1268 0.0
O342 O 0.0802 0.07327 0.14199 0.0
C343 C 0.05123 0.09184 0.14227 0.0
C344 C 0.19812 0.10789 0.15383 0.0
O345 O 0.05271 0.12652 0.13897 0.0
C346 C 0.15051 0.201 0.10078 0.0
O347 O 0.10396 0.12142 0.19144 0.0
O348 O 0.10025 0.17557 0.16473 0.0
O349 O 0.19605 0.11161 0.11928 0.0
O350 O 0.16945 0.10714 0.1732 0.0
C351 C 0.09499 0.1435 0.0468 0.0
O352 O 0.11606 0.19529 0.10005 0.0
O353 O 0.17243 0.17458 0.10266 0.0
C354 C 0.10132 0.15618 0.19337 0.0
O355 O 0.07396 0.14191 0.07431 0.0
O356 O 0.12975 0.14462 0.05096 0.0
C357 C 0.15066 0.05389 0.09237 0.0
Fe358 Fe 0.09397 0.83999 0.3722 0.0
Fe359 Fe 0.11713 0.91686 0.34666 0.0
O360 O 0.12293 0.87943 0.37668 0.0
Fe361 Fe 0.15771 0.88127 0.41103 0.0
O362 O 0.1792 0.84096 0.39185 0.0
O363 O 0.12877 0.80733 0.38859 0.0
O364 O 0.10915 0.83162 0.32531 0.0
C365 C 0.10345 0.8546 0.29997 0.0
C366 C 0.09712 0.84621 0.44672 0.0
O367 O 0.1013 0.88859 0.30743 0.0
C368 C 0.13454 0.95169 0.4152 0.0
O369 O 0.05375 0.86532 0.35568 0.0
O370 O 0.07035 0.92331 0.36218 0.0
O371 O 0.13134 0.85354 0.44451 0.0
O372 O 0.07676 0.84638 0.41843 0.0
C373 C 0.19169 0.91591 0.34962 0.0
O374 O 0.13179 0.95199 0.38042 0.0
O375 O 0.13859 0.92188 0.43223 0.0
C376 C 0.04545 0.899 0.35769 0.0
O377 O 0.16351 0.91259 0.32931 0.0
O378 O 0.19 0.90949 0.38385 0.0
C379 C 0.16348 0.80982 0.39253 0.0
Fe380 Fe 0.37143 0.9089 0.6643 0.0
Fe381 Fe 0.33821 0.87603 0.59302 0.0
O382 O 0.37261 0.87594 0.62797 0.0
Fe383 Fe 0.4079 0.84278 0.62644 0.0
O384 O 0.39533 0.82475 0.67118 0.0
O385 O 0.3906 0.87828 0.6992 0.0
O386 O 0.32555 0.8938 0.67815 0.0
C387 C 0.29796 0.89626 0.65702 0.0
C388 C 0.44552 0.90737 0.65258 0.0
O389 O 0.30176 0.89368 0.62253 0.0
C390 C 0.40245 0.85624 0.55325 0.0
O391 O 0.35258 0.94558 0.63552 0.0
O392 O 0.35124 0.92247 0.57939 0.0
O393 O 0.44348 0.87301 0.64691 0.0
O394 O 0.41702 0.92673 0.65374 0.0
C395 C 0.34426 0.80216 0.60226 0.0
O396 O 0.36797 0.85866 0.55667 0.0
O397 O 0.42316 0.85806 0.58133 0.0
C398 C 0.35027 0.94993 0.60096 0.0
O399 O 0.32303 0.82938 0.60424 0.0
O400 O 0.37875 0.8065 0.60582 0.0
C401 C 0.39529 0.84385 0.70032 0.0
Fe402 Fe 0.41778 0.16695 0.87976 0.0
Fe403 Fe 0.38304 0.10201 0.83683 0.0
O404 O 0.38246 0.13332 0.8744 0.0
Fe405 Fe 0.3465 0.13117 0.90677 0.0
O406 O 0.33235 0.1773 0.89566 0.0
O407 O 0.38791 0.20167 0.90085 0.0
O408 O 0.40633 0.18685 0.83589 0.0
C409 C 0.40933 0.16975 0.80583 0.0
C410 C 0.40916 0.14934 0.95124 0.0
O411 O 0.40494 0.13495 0.80464 0.0
C412 C 0.35687 0.05826 0.89673 0.0
O413 O 0.45401 0.13875 0.85878 0.0
O414 O 0.42742 0.08464 0.85107 0.0
O415 O 0.37467 0.14806 0.94579 0.0
O416 O 0.43103 0.14904 0.92438 0.0
C417 C 0.30975 0.11543 0.83908 0.0
O418 O 0.36119 0.06385 0.8625 0.0
O419 O 0.35861 0.08475 0.91942 0.0
C420 C 0.45615 0.10467 0.85145 0.0
O421 O 0.33864 0.11708 0.82 0.0
O422 O 0.31151 0.11445 0.87387 0.0
C423 C 0.3532 0.20516 0.89965 0.0
Fe424 Fe 0.58155 0.34144 0.88464 0.0
Fe425 Fe 0.6209 0.40698 0.84799 0.0
O426 O 0.62023 0.37212 0.88182 0.0
Fe427 Fe 0.65836 0.36832 0.9127 0.0
O428 O 0.65437 0.31859 0.91677 0.0
O429 O 0.60989 0.30086 0.87866 0.0
O430 O 0.57219 0.34066 0.83479 0.0
C431 C 0.59139 0.35048 0.80743 0.0
C432 C 0.60123 0.35514 0.95964 0.0
O433 O 0.61761 0.37343 0.81092 0.0
C434 C 0.65072 0.44564 0.90552 0.0
O435 O 0.54949 0.37878 0.89147 0.0
O436 O 0.57136 0.41372 0.84743 0.0
O437 O 0.62942 0.37473 0.9528 0.0
O438 O 0.58428 0.33729 0.93455 0.0
C439 C 0.69496 0.38369 0.84946 0.0
O440 O 0.62435 0.44302 0.88277 0.0
O441 O 0.66925 0.41779 0.91425 0.0
C442 C 0.54616 0.40546 0.86977 0.0
O443 O 0.67048 0.40682 0.84204 0.0
O444 O 0.69067 0.36117 0.87538 0.0
C445 C 0.63737 0.29367 0.89881 0.0
Fe446 Fe 0.83818 0.37362 0.08594 0.0
Fe447 Fe 0.87234 0.40842 0.15564 0.0
O448 O 0.8701 0.37183 0.12306 0.0
Fe449 Fe 0.89985 0.33386 0.12809 0.0
O450 O 0.92003 0.34122 0.08326 0.0
O451 O 0.86826 0.3508 0.0528 0.0
O452 O 0.85725 0.41695 0.07001 0.0
C453 C 0.85623 0.44601 0.08894 0.0
C454 C 0.83308 0.30034 0.10057 0.0
O455 O 0.8574 0.44445 0.1237 0.0
C456 C 0.8858 0.34571 0.20035 0.0
O457 O 0.80242 0.39663 0.11305 0.0
O458 O 0.82524 0.39943 0.16948 0.0
O459 O 0.86709 0.29951 0.1086 0.0
O460 O 0.81647 0.33041 0.09837 0.0
C461 C 0.94529 0.39606 0.14809 0.0
O462 O 0.88731 0.37993 0.19424 0.0
O463 O 0.88199 0.3234 0.17368 0.0
C464 C 0.79806 0.40008 0.14757 0.0
O465 O 0.91984 0.41905 0.14364 0.0
O466 O 0.93824 0.36168 0.14781 0.0
C467 C 0.90217 0.34317 0.0534 0.0
Fe468 Fe 0.83514 0.62918 0.3994 0.0
Fe469 Fe 0.91263 0.65105 0.37481 0.0
O470 O 0.8737 0.62106 0.37145 0.0
Fe471 Fe 0.8739 0.58328 0.34042 0.0
O472 O 0.83296 0.5981 0.31642 0.0
O473 O 0.8012 0.61131 0.36601 0.0
O474 O 0.82914 0.67432 0.37951 0.0
C475 C 0.85287 0.69972 0.38405 0.0
C476 C 0.83755 0.55452 0.40374 0.0
O477 O 0.88644 0.69174 0.38807 0.0
C478 C 0.94512 0.58156 0.35927 0.0
O479 O 0.86227 0.64812 0.43824 0.0
O480 O 0.92006 0.6393 0.42299 0.0
O481 O 0.84651 0.55247 0.37009 0.0
O482 O 0.83857 0.58479 0.42093 0.0
C483 C 0.90726 0.64246 0.30056 0.0
O484 O 0.94662 0.61637 0.36109 0.0
O485 O 0.9145 0.56543 0.36261 0.0
C486 C 0.89605 0.64634 0.44712 0.0
O487 O 0.90662 0.66469 0.32742 0.0
O488 O 0.90106 0.60821 0.30509 0.0
C489 C 0.80262 0.6034 0.33207 0.0
Fe490 Fe 0.91058 0.84619 0.87806 0.0
Fe491 Fe 0.84035 0.87877 0.90985 0.0
O492 O 0.87543 0.87929 0.87657 0.0
Fe493 Fe 0.87523 0.91314 0.84203 0.0
O494 O 0.91898 0.93118 0.8578 0.0
O495 O 0.94701 0.87804 0.86028 0.0
O496 O 0.92471 0.86083 0.92374 0.0
C497 C 0.90406 0.8581 0.95129 0.0
C498 C 0.89934 0.84875 0.80402 0.0
O499 O 0.86929 0.8592 0.94709 0.0
C500 C 0.80216 0.89895 0.84391 0.0
O501 O 0.8799 0.8089 0.89629 0.0
O502 O 0.82514 0.83391 0.89455 0.0
O503 O 0.89691 0.88358 0.8065 0.0
O504 O 0.89903 0.82919 0.83247 0.0
C505 C 0.85159 0.95216 0.90637 0.0
O506 O 0.80473 0.89777 0.87884 0.0
O507 O 0.83081 0.89723 0.82458 0.0
C508 C 0.84483 0.80579 0.89618 0.0
O509 O 0.85375 0.92414 0.92655 0.0
O510 O 0.85389 0.94879 0.87151 0.0
C511 C 0.94817 0.91313 0.85998 0.0
Fe512 Fe 0.87622 0.08863 0.64949 0.0
Fe513 Fe 0.85269 0.12179 0.57623 0.0
O514 O 0.88139 0.12285 0.61565 0.0
Fe515 Fe 0.91507 0.15802 0.62143 0.0
O516 O 0.89464 0.17336 0.66396 0.0
O517 O 0.89105 0.1185 0.68837 0.0
O518 O 0.82961 0.10246 0.65858 0.0
C519 C 0.80445 0.10123 0.63447 0.0
C520 C 0.95068 0.09324 0.64601 0.0
O521 O 0.81251 0.10165 0.60043 0.0
C522 C 0.92258 0.14495 0.5482 0.0
O523 O 0.86063 0.0524 0.6169 0.0
O524 O 0.86908 0.07698 0.56261 0.0
O525 O 0.94819 0.12816 0.64559 0.0
O526 O 0.9224 0.07303 0.64204 0.0
C527 C 0.85318 0.19509 0.59234 0.0
O528 O 0.88771 0.14225 0.54523 0.0
O529 O 0.93768 0.14497 0.57948 0.0
C530 C 0.86465 0.04889 0.58234 0.0
O531 O 0.83439 0.16602 0.58768 0.0
O532 O 0.88773 0.19386 0.59811 0.0
C533 C 0.8915 0.15328 0.69189 0.0
Fe534 Fe 0.62083 0.07817 0.35034 0.0
Fe535 Fe 0.66414 0.11632 0.413 0.0
O536 O 0.62546 0.11394 0.38324 0.0
Fe537 Fe 0.59129 0.14766 0.38669 0.0
O538 O 0.60011 0.16296 0.34065 0.0
O539 O 0.59854 0.10761 0.31553 0.0
O540 O 0.66363 0.09112 0.32905 0.0
C541 C 0.69444 0.09253 0.34496 0.0
C542 C 0.5492 0.08284 0.36934 0.0
O543 O 0.69651 0.09564 0.37978 0.0
C544 C 0.60443 0.13622 0.45889 0.0
O545 O 0.6429 0.04309 0.37987 0.0
O546 O 0.65233 0.07251 0.43238 0.0
O547 O 0.55311 0.11752 0.37101 0.0
O548 O 0.57707 0.06272 0.36881 0.0
C549 C 0.65754 0.18863 0.398 0.0
O550 O 0.63865 0.13687 0.45166 0.0
O551 O 0.58096 0.13395 0.43318 0.0
C552 C 0.64844 0.04292 0.41455 0.0
O553 O 0.67794 0.16101 0.39555 0.0
O554 O 0.6231 0.18447 0.4023 0.0
C555 C 0.59776 0.14253 0.3126 0.0
Fe556 Fe 0.58394 0.82929 0.13087 0.0
Fe557 Fe 0.65153 0.86712 0.09792 0.0
O558 O 0.61832 0.86413 0.13294 0.0
Fe559 Fe 0.61964 0.89589 0.16992 0.0
O560 O 0.57444 0.91198 0.15842 0.0
O561 O 0.54816 0.85725 0.15355 0.0
O562 O 0.56651 0.84611 0.08755 0.0
C563 C 0.58564 0.84832 0.05888 0.0
C564 C 0.60096 0.8277 0.20377 0.0
O565 O 0.62059 0.84903 0.06124 0.0
C566 C 0.69284 0.88472 0.1628 0.0
O567 O 0.61377 0.79515 0.10812 0.0
O568 O 0.66835 0.82206 0.10871 0.0
O569 O 0.60136 0.86274 0.20429 0.0
O570 O 0.59943 0.81038 0.17372 0.0
C571 C 0.63748 0.93947 0.10717 0.0
O572 O 0.68841 0.88593 0.12813 0.0
O573 O 0.66529 0.88189 0.18355 0.0
C574 C 0.64873 0.79318 0.10744 0.0
O575 O 0.63655 0.91235 0.08543 0.0
O576 O 0.63787 0.93448 0.14187 0.0
C577 C 0.54584 0.892 0.157 0.0
Fe578 Fe 0.41045 0.6627 0.13001 0.0
Fe579 Fe 0.34245 0.63319 0.0887 0.0
O580 O 0.37393 0.63035 0.12572 0.0
Fe581 Fe 0.36892 0.5951 0.15851 0.0
O582 O 0.4132 0.57673 0.147 0.0
O583 O 0.4427 0.62986 0.15088 0.0
O584 O 0.42887 0.64907 0.08626 0.0
C585 C 0.41164 0.65166 0.05626 0.0
C586 C 0.39144 0.65727 0.20176 0.0
O587 O 0.3766 0.65237 0.05587 0.0
C588 C 0.29728 0.61299 0.14961 0.0
O589 O 0.38467 0.70117 0.10943 0.0
O590 O 0.32855 0.67827 0.10343 0.0
O591 O 0.38841 0.62262 0.1973 0.0
O592 O 0.39417 0.67809 0.17431 0.0
C593 C 0.35083 0.55923 0.09073 0.0
O594 O 0.3028 0.61472 0.11506 0.0
O595 O 0.32418 0.61143 0.17162 0.0
C596 C 0.35017 0.7056 0.10612 0.0
O597 O 0.35449 0.58805 0.07194 0.0
O598 O 0.34886 0.56126 0.12562 0.0
C599 C 0.44295 0.59488 0.14923 0.0
Fe600 Fe 0.12742 0.59165 0.83888 0.0
Fe601 Fe 0.16775 0.62997 0.90313 0.0
O602 O 0.13086 0.62802 0.87126 0.0
Fe603 Fe 0.09716 0.66235 0.87205 0.0
O604 O 0.10828 0.67635 0.82605 0.0
O605 O 0.10633 0.62021 0.8027 0.0
O606 O 0.17086 0.60448 0.81922 0.0
C607 C 0.20087 0.60551 0.83659 0.0
C608 C 0.05553 0.59702 0.85727 0.0
O609 O 0.20128 0.6085 0.87153 0.0
C610 C 0.10578 0.65133 0.94517 0.0
O611 O 0.14827 0.55682 0.86961 0.0
O612 O 0.15398 0.58659 0.92222 0.0
O613 O 0.05933 0.63177 0.85581 0.0
O614 O 0.08328 0.57675 0.85639 0.0
C615 C 0.16383 0.7023 0.88776 0.0
O616 O 0.14047 0.65119 0.9403 0.0
O617 O 0.0841 0.65006 0.91804 0.0
C618 C 0.15051 0.55689 0.90459 0.0
O619 O 0.18347 0.67412 0.88626 0.0
O620 O 0.12893 0.69915 0.88857 0.0
C621 C 0.10646 0.65497 0.79868 0.0
Fe622 Fe 0.15747 0.37745 0.59524 0.0
Fe623 Fe 0.08791 0.34012 0.62426 0.0
O624 O 0.12177 0.37523 0.62785 0.0
Fe625 Fe 0.11996 0.40786 0.66397 0.0
O626 O 0.16452 0.39469 0.68129 0.0
O627 O 0.19216 0.39707 0.62784 0.0
O628 O 0.17367 0.33284 0.60838 0.0
C629 C 0.15423 0.30391 0.60652 0.0
C630 C 0.1413 0.44969 0.60139 0.0
O631 O 0.11933 0.30583 0.60422 0.0
C632 C 0.04733 0.40268 0.6475 0.0
O633 O 0.12898 0.35827 0.55677 0.0
O634 O 0.07328 0.35612 0.57969 0.0
O635 O 0.1396 0.44595 0.63619 0.0
O636 O 0.14334 0.4221 0.58046 0.0
C637 C 0.09982 0.3401 0.698 0.0
O638 O 0.0506 0.36801 0.64429 0.0
O639 O 0.07553 0.42317 0.64885 0.0
C640 C 0.09416 0.35722 0.55219 0.0
O641 O 0.10089 0.32225 0.66829 0.0
O642 O 0.09963 0.37516 0.69786 0.0
C643 C 0.19368 0.3962 0.66284 0.0
Fe644 Fe 0.6615 0.61538 0.5984 0.0
Fe645 Fe 0.6275 0.58128 0.66743 0.0
O646 O 0.629 0.61682 0.63436 0.0
Fe647 Fe 0.59776 0.65351 0.63765 0.0
O648 O 0.57818 0.64307 0.59285 0.0
O649 O 0.63102 0.63667 0.56407 0.0
O650 O 0.64378 0.57136 0.58221 0.0
C651 C 0.64472 0.54275 0.60145 0.0
C652 C 0.66372 0.68886 0.61265 0.0
O653 O 0.64396 0.54503 0.63622 0.0
C654 C 0.61408 0.64533 0.70987 0.0
O655 O 0.69749 0.59362 0.62684 0.0
O656 O 0.67401 0.59218 0.68266 0.0
O657 O 0.62925 0.68837 0.61802 0.0
O658 O 0.68155 0.65943 0.61157 0.0
C659 C 0.55456 0.59041 0.65593 0.0
O660 O 0.61098 0.6108 0.70522 0.0
O661 O 0.61575 0.66646 0.68258 0.0
C662 C 0.70141 0.59071 0.66152 0.0
O663 O 0.58107 0.56857 0.65363 0.0
O664 O 0.56021 0.625 0.6576 0.0
C665 C 0.59654 0.64198 0.5635 0.0
Fe666 Fe 0.40219 0.34184 0.37481 0.0
Fe667 Fe 0.36884 0.4109 0.34197 0.0
O668 O 0.3687 0.37645 0.37574 0.0
Fe669 Fe 0.33511 0.37674 0.41043 0.0
O670 O 0.31756 0.33253 0.39557 0.0
O671 O 0.37126 0.30562 0.39467 0.0
O672 O 0.38696 0.3261 0.32985 0.0
C673 C 0.38904 0.34617 0.3018 0.0
C674 C 0.40037 0.35518 0.44819 0.0
O675 O 0.38825 0.38107 0.30536 0.0
C676 C 0.34906 0.44984 0.4075 0.0
O677 O 0.43895 0.37222 0.35515 0.0
O678 O 0.41378 0.42682 0.35674 0.0
O679 O 0.36537 0.35619 0.44615 0.0
O680 O 0.41944 0.35568 0.41944 0.0
C681 C 0.29561 0.39831 0.34588 0.0
O682 O 0.34957 0.447 0.37252 0.0
O683 O 0.35071 0.42139 0.42702 0.0
C684 C 0.44204 0.40723 0.35586 0.0
O685 O 0.32368 0.39669 0.32577 0.0
O686 O 0.29898 0.39707 0.38079 0.0
C687 C 0.33619 0.30369 0.39616 0.0
C688 C 0.05718 0.17349 0.28579 0.0
C689 C 0.07086 0.20873 0.29513 0.0
C690 C 0.06828 0.15599 0.25327 0.0
C691 C 0.09262 0.1737 0.22881 0.0
H692 H 0.03815 0.15928 0.30391 0.0
H693 H 0.05698 0.12887 0.24675 0.0
S694 S 0.1357 0.26632 0.24105 0.0
N695 N 0.11014 0.26059 0.27815 0.0
N696 N 0.12996 0.22833 0.21618 0.0
C697 C 0.10624 0.20906 0.23789 0.0
C698 C 0.09563 0.22643 0.27135 0.0
C699 C 0.08879 0.77547 0.52184 0.0
C700 C 0.0524 0.77987 0.53387 0.0
C701 C 0.10406 0.79903 0.49541 0.0
C702 C 0.08301 0.82702 0.47942 0.0
H703 H 0.10534 0.7533 0.53248 0.0
H704 H 0.13181 0.79394 0.48596 0.0
S705 S 0.98672 0.85027 0.50216 0.0
N706 N 0.99622 0.81512 0.5291 0.0
N707 N 0.02448 0.85851 0.47818 0.0
C708 C 0.0469 0.83218 0.49182 0.0
C709 C 0.03169 0.80881 0.51942 0.0
C710 C 0.45507 0.83553 0.78531 0.0
C711 C 0.45146 0.79812 0.79432 0.0
C712 C 0.43505 0.85037 0.75606 0.0
C713 C 0.41129 0.82815 0.73414 0.0
H714 H 0.47352 0.85355 0.80099 0.0
H715 H 0.43943 0.87922 0.74972 0.0
S716 S 0.39169 0.72854 0.7467 0.0
N717 N 0.42149 0.73926 0.7799 0.0
N718 N 0.38475 0.76703 0.72384 0.0
C719 C 0.40711 0.79075 0.74307 0.0
C720 C 0.42693 0.77577 0.77347 0.0
C721 C 0.41836 0.21005 0.03587 0.0
C722 C 0.45142 0.19841 0.05207 0.0
C723 C 0.40407 0.1927 0.00415 0.0
C724 C 0.4228 0.1637 0.98692 0.0
H725 H 0.40333 0.2327 0.04778 0.0
H726 H 0.37874 0.20295 0.99234 0.0
S727 S 0.5097 0.12197 0.01844 0.0
N728 N 0.50161 0.15461 0.0491 0.0
N729 N 0.47543 0.12355 0.98834 0.0
C730 C 0.45565 0.15159 0.00276 0.0
C731 C 0.46976 0.16853 0.03568 0.0
C732 C 0.08096 0.79137 0.21904 0.0
C733 C 0.05343 0.81065 0.20007 0.0
C734 C 0.09789 0.80616 0.25081 0.0
C735 C 0.08864 0.84121 0.2641 0.0
H736 H 0.08883 0.76418 0.20996 0.0
H737 H 0.11804 0.78986 0.26529 0.0
S738 S 0.02002 0.90397 0.22238 0.0
N739 N 0.01861 0.86694 0.19574 0.0
N740 N 0.05116 0.89564 0.25452 0.0
C741 C 0.06209 0.8614 0.24438 0.0
C742 C 0.04424 0.84586 0.21264 0.0
C743 C 0.46937 0.82087 0.48169 0.0
C744 C 0.44624 0.79954 0.45838 0.0
C745 C 0.45494 0.84057 0.51158 0.0
C746 C 0.41681 0.84036 0.51849 0.0
H747 H 0.49894 0.82115 0.4777 0.0
H748 H 0.47386 0.85531 0.52987 0.0
S749 S 0.34455 0.79095 0.46281 0.0
N750 N 0.38367 0.78064 0.44262 0.0
N751 N 0.35602 0.81848 0.49756 0.0
C752 C 0.39329 0.82055 0.49389 0.0
C753 C 0.40817 0.79983 0.4642 0.0
C754 C 0.45599 0.18449 0.71377 0.0
C755 C 0.47777 0.21614 0.72064 0.0
C756 C 0.43214 0.17063 0.7408 0.0
C757 C 0.4287 0.18854 0.77517 0.0
H758 H 0.45858 0.16953 0.688 0.0
H759 H 0.41725 0.14507 0.73518 0.0
S760 S 0.47727 0.27535 0.80406 0.0
N761 N 0.49296 0.26656 0.76241 0.0
N762 N 0.44733 0.24188 0.81283 0.0
C763 C 0.44884 0.22174 0.78114 0.0
C764 C 0.47367 0.23515 0.75398 0.0
C765 C 0.03393 0.18867 0.97611 0.0
C766 C 0.04993 0.17845 0.94252 0.0
C767 C 0.048 0.17609 0.00961 0.0
C768 C 0.07911 0.15349 0.01078 0.0
H769 H 0.00983 0.20588 0.97649 0.0
H770 H 0.03483 0.18485 0.03483 0.0
S771 S 0.13183 0.11995 0.93044 0.0
N772 N 0.09852 0.1446 0.91221 0.0
N773 N 0.12597 0.12198 0.97552 0.0
C774 C 0.09575 0.14353 0.9774 0.0
C775 C 0.08087 0.15569 0.94316 0.0
C776 C 0.29881 0.09161 0.17574 0.0
C777 C 0.29805 0.05474 0.18748 0.0
C778 C 0.26617 0.10938 0.1656 0.0
C779 C 0.23178 0.09135 0.16873 0.0
H780 H 0.32485 0.10645 0.17357 0.0
H781 H 0.26779 0.13725 0.15518 0.0
S782 S 0.21501 0.99531 0.19945 0.0
N783 N 0.26022 0.00098 0.20176 0.0
N784 N 0.19887 0.03492 0.18485 0.0
C785 C 0.2307 0.05485 0.18139 0.0
C786 C 0.26387 0.0364 0.19029 0.0
C787 C 0.18564 0.02128 0.47494 0.0
C788 C 0.17267 0.05493 0.46152 0.0
C789 C 0.17114 0.98772 0.46169 0.0
C790 C 0.14371 0.98673 0.43404 0.0
H791 H 0.2071 0.02087 0.49586 0.0
H792 H 0.18278 0.96244 0.47191 0.0
S793 S 0.09949 0.06719 0.39089 0.0
N794 N 0.12975 0.08531 0.42033 0.0
N795 N 0.10318 0.0221 0.39473 0.0
C796 C 0.12997 0.02017 0.42102 0.0
C797 C 0.14429 0.05432 0.43491 0.0
C798 C 0.22094 0.92446 0.72125 0.0
C799 C 0.2031 0.95209 0.70106 0.0
C800 C 0.25126 0.90583 0.70672 0.0
C801 C 0.2641 0.91349 0.67111 0.0
H802 H 0.21204 0.91781 0.74888 0.0
H803 H 0.26485 0.88548 0.7235 0.0
S804 S 0.22678 0.98334 0.6069 0.0
N805 N 0.2006 0.98625 0.64376 0.0
N806 N 0.25662 0.95078 0.61601 0.0
C807 C 0.24599 0.94062 0.6504 0.0
C808 C 0.21576 0.96006 0.66549 0.0
C809 C 0.32005 0.98417 0.95998 0.0
C810 C 0.29046 0.96918 0.93927 0.0
C811 C 0.34316 0.0116 0.9452 0.0
C812 C 0.33807 0.02406 0.90891 0.0
H813 H 0.32407 0.97616 0.98842 0.0
H814 H 0.36425 0.02414 0.96272 0.0
S815 S 0.2667 0.99016 0.84237 0.0
N816 N 0.25864 0.96661 0.88028 0.0
N817 N 0.30275 0.01705 0.85183 0.0
C818 C 0.31001 0.00733 0.88721 0.0
C819 C 0.28595 0.9802 0.90262 0.0
C820 C 0.26526 0.951 0.28496 0.0
C821 C 0.27829 0.98306 0.30317 0.0
C822 C 0.23767 0.92872 0.30052 0.0
C823 C 0.22331 0.93707 0.33535 0.0
H824 H 0.27561 0.94375 0.25798 0.0
H825 H 0.22727 0.90501 0.28513 0.0
S826 S 0.24923 0.01713 0.39479 0.0
N827 N 0.27522 0.02181 0.35788 0.0
N828 N 0.22443 0.97912 0.38787 0.0
C829 C 0.23694 0.96842 0.35431 0.0
C830 C 0.26419 0.99166 0.33801 0.0
C831 C 0.31113 0.02087 0.53562 0.0
C832 C 0.30059 0.04911 0.55974 0.0
C833 C 0.32895 0.98959 0.54886 0.0
C834 C 0.33739 0.98582 0.58663 0.0
H835 H 0.30428 0.02234 0.50654 0.0
H836 H 0.33502 0.96774 0.52946 0.0
S837 S 0.32036 0.05585 0.65964 0.0
N838 N 0.30257 0.07366 0.62191 0.0
N839 N 0.33723 0.01574 0.64713 0.0
C840 C 0.32897 0.01536 0.61053 0.0
C841 C 0.31016 0.04675 0.59702 0.0
C842 C 0.20704 0.1049 0.82598 0.0
C843 C 0.2041 0.0772 0.79884 0.0
C844 C 0.24154 0.11851 0.83758 0.0
C845 C 0.27416 0.10568 0.82166 0.0
H846 H 0.18256 0.11541 0.83906 0.0
H847 H 0.24277 0.13871 0.85972 0.0
S848 S 0.28105 0.03492 0.74788 0.0
N849 N 0.23639 0.03836 0.75527 0.0
N850 N 0.30135 0.06474 0.77636 0.0
C851 C 0.27152 0.07916 0.79332 0.0
C852 C 0.23642 0.06461 0.78217 0.0
C853 C 0.16917 0.95535 0.06482 0.0
C854 C 0.20699 0.9569 0.05641 0.0
C855 C 0.15066 0.98697 0.07641 0.0
C856 C 0.16919 0.02112 0.07844 0.0
H857 H 0.15398 0.92945 0.0629 0.0
H858 H 0.12176 0.98478 0.08357 0.0
S859 S 0.26784 0.03982 0.05848 0.0
N860 N 0.26221 0.99515 0.05097 0.0
N861 N 0.22711 0.05485 0.07119 0.0
C862 C 0.20683 0.02306 0.06966 0.0
C863 C 0.22586 0.9908 0.05898 0.0
C864 C 0.2033 0.29144 0.10099 0.0
C865 C 0.19605 0.30501 0.06541 0.0
C866 C 0.1884 0.25761 0.11249 0.0
C867 C 0.16499 0.23692 0.08913 0.0
H868 H 0.2213 0.30667 0.1198 0.0
H869 H 0.1951 0.24762 0.13976 0.0
S870 S 0.13647 0.26038 0.99398 0.0
N871 N 0.16376 0.29502 0.0071 0.0
N872 N 0.13474 0.23199 0.02932 0.0
C873 C 0.15693 0.25035 0.05385 0.0
C874 C 0.17277 0.2843 0.04179 0.0
C875 C 0.69137 0.21517 0.9343 0.0
C876 C 0.66791 0.2016 0.96195 0.0
C877 C 0.6796 0.24239 0.90993 0.0
C878 C 0.64365 0.25601 0.91161 0.0
H879 H 0.71993 0.20696 0.93345 0.0
H880 H 0.69961 0.25499 0.89168 0.0
S881 S 0.56978 0.22481 0.97471 0.0
N882 N 0.60599 0.20059 0.98696 0.0
N883 N 0.58342 0.25089 0.9401 0.0
C884 C 0.61888 0.24 0.93669 0.0
C885 C 0.63116 0.21303 0.96225 0.0
C886 C 0.02882 0.45773 0.16699 0.0
C887 C 0.04682 0.43962 0.19606 0.0
C888 C 0.9963 0.4432 0.15111 0.0
C889 C 0.98128 0.4094 0.16284 0.0
H890 H 0.03929 0.48385 0.15698 0.0
H891 H 0.98272 0.4586 0.1296 0.0
S892 S 0.01909 0.34993 0.23652 0.0
N893 N 0.0478 0.38565 0.23524 0.0
N894 N 0.98758 0.35753 0.20453 0.0
C895 C -0.00026 0.39035 0.19103 0.0
C896 C 0.03227 0.40566 0.20785 0.0
C897 C 0.78823 0.7738 0.41535 0.0
C898 C 0.8108 0.79517 0.43906 0.0
C899 C 0.80267 0.74451 0.39513 0.0
C900 C 0.84029 0.73591 0.39761 0.0
H901 H 0.75885 0.77852 0.41377 0.0
H902 H 0.78385 0.72741 0.37889 0.0
S903 S 0.91192 0.78816 0.45128 0.0
N904 N 0.87301 0.80903 0.46073 0.0
N905 N 0.90067 0.75455 0.42225 0.0
C906 C 0.86369 0.75931 0.41887 0.0
C907 C 0.84878 0.78872 0.43988 0.0
C908 C 0.94911 0.07092 0.15269 0.0
C909 C 0.94825 0.04502 0.18144 0.0
C910 C 0.98257 0.08568 0.13983 0.0
C911 C 0.01643 0.07429 0.15449 0.0
H912 H 0.9237 0.08022 0.14028 0.0
H913 H 0.98196 0.10602 0.11813 0.0
S914 S 0.02955 0.00747 0.23027 0.0
N915 N 0.98443 0.00896 0.22442 0.0
N916 N 0.04722 0.03614 0.19974 0.0
C917 C 0.01606 0.04825 0.18305 0.0
C918 C 0.982 0.0338 0.19667 0.0
C919 C 0.27993 0.72199 0.57788 0.0
C920 C 0.30102 0.70129 0.55299 0.0
C921 C 0.29403 0.75457 0.59399 0.0
C922 C 0.33021 0.76672 0.58694 0.0
H923 H 0.252 0.71355 0.58436 0.0
H924 H 0.27655 0.77027 0.61214 0.0
S925 S 0.39772 0.72053 0.52609 0.0
N926 N 0.36012 0.69443 0.52305 0.0
N927 N 0.38753 0.75436 0.55466 0.0
C928 C 0.35208 0.74536 0.5632 0.0
C929 C 0.33726 0.71297 0.5459 0.0
C930 C 0.03586 0.56584 0.31143 0.0
C931 C 0.02506 0.54368 0.28115 0.0
C932 C 0.01028 0.57616 0.33829 0.0
C933 C 0.97342 0.56358 0.33644 0.0
H934 H 0.06389 0.57644 0.3136 0.0
H935 H 0.01908 0.59508 0.35996 0.0
S936 S 0.93252 0.50219 0.26387 0.0
N937 N 0.97595 0.50785 0.25167 0.0
N938 N 0.92812 0.52585 0.30254 0.0
C939 C 0.96297 0.53955 0.30726 0.0
C940 C 0.98872 0.53004 0.27946 0.0
C941 C 0.44939 0.40916 0.83372 0.0
C942 C 0.44766 0.44591 0.82211 0.0
C943 C 0.47988 0.39684 0.85393 0.0
C944 C 0.50973 0.42083 0.86214 0.0
H945 H 0.42785 0.38957 0.82581 0.0
H946 H 0.48162 0.36773 0.86002 0.0
S947 S 0.51588 0.5206 0.84184 0.0
N948 N 0.47587 0.50703 0.82395 0.0
N949 N 0.53385 0.48359 0.86061 0.0
C950 C 0.50685 0.45818 0.85302 0.0
C951 C 0.47559 0.47081 0.83322 0.0
C952 C 0.90279 0.80077 0.71041 0.0
C953 C 0.94058 0.79327 0.70707 0.0
C954 C 0.88938 0.81995 0.74137 0.0
C955 C 0.91336 0.8316 0.76996 0.0
H956 H 0.88366 0.79213 0.68885 0.0
H957 H 0.86014 0.82518 0.74324 0.0
S958 S 0.01409 0.81661 0.77502 0.0
N959 N 0.00141 0.79845 0.73495 0.0
N960 N 0.97609 0.83261 0.79363 0.0
C961 C 0.95096 0.82359 0.76702 0.0
C962 C 0.96462 0.80493 0.73538 0.0
C963 C 0.00552 0.17934 0.49468 0.0
C964 C 0.99016 0.1902 0.46086 0.0
C965 C 0.98382 0.16258 0.52174 0.0
C966 C 0.94571 0.15601 0.51632 0.0
H967 H 0.03423 0.18525 0.50112 0.0
H968 H 0.99692 0.15626 0.54781 0.0
S969 S 0.89322 0.1732 0.43013 0.0
N970 N 0.93532 0.18859 0.42151 0.0
N971 N 0.89459 0.1574 0.47264 0.0
C972 C 0.93055 0.16409 0.48159 0.0
C973 C 0.95271 0.18114 0.45387 0.0
C974 C 0.57585 0.15142 0.21124 0.0
C975 C 0.56505 0.18841 0.20777 0.0
C976 C 0.5873 0.13724 0.24496 0.0
C977 C 0.58874 0.15942 0.27674 0.0
H978 H 0.57446 0.13261 0.18795 0.0
H979 H 0.59438 0.10839 0.24615 0.0
S980 S 0.56718 0.25922 0.28198 0.0
N981 N 0.5591 0.24769 0.23855 0.0
N982 N 0.58107 0.22125 0.3022 0.0
C983 C 0.57975 0.197 0.27347 0.0
C984 C 0.56776 0.21141 0.23898 0.0
C985 C 0.57432 0.82965 0.9567 0.0
C986 C 0.53659 0.82089 0.95294 0.0
C987 C 0.58947 0.84058 0.99064 0.0
C988 C 0.56755 0.8428 0.02237 0.0
H989 H 0.59265 0.82677 0.93345 0.0
H990 H 0.61893 0.84577 0.99221 0.0
S991 S 0.46613 0.82623 0.02613 0.0
N992 N 0.47691 0.81793 0.98276 0.0
N993 N 0.50515 0.83845 0.04691 0.0
C994 C 0.52919 0.83631 0.01844 0.0
C995 C 0.51376 0.82535 0.98363 0.0
C996 C 0.92513 0.16486 0.79016 0.0
C997 C 0.92428 0.20323 0.79574 0.0
C998 C 0.91211 0.14865 0.7574 0.0
C999 C 0.89803 0.17022 0.72868 0.0
H1000 H 0.93701 0.14714 0.81084 0.0
H1001 H 0.91494 0.11917 0.75393 0.0
S1002 S 0.88515 0.27148 0.73135 0.0
N1003 N 0.90473 0.26206 0.77134 0.0
N1004 N 0.88037 0.23163 0.70948 0.0
C1005 C 0.89489 0.20842 0.73477 0.0
C1006 C 0.90798 0.22493 0.76835 0.0
C1007 C 0.5456 0.18001 0.53201 0.0
C1008 C 0.57047 0.18513 0.56158 0.0
C1009 C 0.55603 0.16174 0.49982 0.0
C1010 C 0.59189 0.1481 0.49573 0.0
H1011 H 0.51823 0.19145 0.533 0.0
H1012 H 0.53632 0.16018 0.47727 0.0
S1013 S 0.66553 0.14839 0.56724 0.0
N1014 N 0.63119 0.1705 0.58648 0.0
N1015 N 0.65068 0.13642 0.52569 0.0
C1016 C 0.61611 0.15035 0.52608 0.0
C1017 C 0.60545 0.1688 0.55906 0.0
C1018 C 0.55868 0.7991 0.29428 0.0
C1019 C 0.56367 0.76062 0.29407 0.0
C1020 C 0.5734 0.82148 0.26647 0.0
C1021 C 0.5937 0.80618 0.23751 0.0
H1022 H 0.54146 0.81189 0.31482 0.0
H1023 H 0.56671 0.85045 0.26639 0.0
S1024 S 0.62102 0.70842 0.22818 0.0
N1025 N 0.59496 0.70924 0.26528 0.0
N1026 N 0.62277 0.75125 0.21323 0.0
C1027 C 0.60165 0.76835 0.23878 0.0
C1028 C 0.58657 0.74557 0.26696 0.0
C1029 C 0.97692 0.83146 0.02159 0.0
C1030 C 0.95719 0.80945 0.04663 0.0
C1031 C 0.95914 0.8486 0.99199 0.0
C1032 C 0.92077 0.84478 0.98627 0.0
H1033 H 0.00656 0.83475 0.02423 0.0
H1034 H 0.97586 0.86425 0.97284 0.0
S1035 S 0.85582 0.79241 0.04566 0.0
N1036 N 0.89662 0.78647 0.06496 0.0
N1037 N 0.8633 0.8188 0.00953 0.0
C1038 C 0.90042 0.82415 0.01204 0.0
C1039 C 0.91859 0.8064 0.04206 0.0
C1040 C 0.73248 0.92456 0.76976 0.0
C1041 C 0.70713 0.94611 0.78918 0.0
C1042 C 0.76233 0.90815 0.78788 0.0
C1043 C 0.76771 0.91215 0.82623 0.0
H1044 H 0.72986 0.92111 0.74018 0.0
H1045 H 0.78176 0.89279 0.77156 0.0
S1046 S 0.70797 0.96429 0.89017 0.0
N1047 N 0.68866 0.96941 0.84926 0.0
N1048 N 0.74419 0.93836 0.88317 0.0
C1049 C 0.74175 0.93255 0.84615 0.0
C1050 C 0.71169 0.94962 0.82767 0.0
C1051 C 0.82771 0.95144 0.5713 0.0
C1052 C 0.82385 0.94716 0.53292 0.0
C1053 C 0.84302 0.98356 0.5868 0.0
C1054 C 0.8549 0.01302 0.56461 0.0
H1055 H 0.81806 0.9301 0.58978 0.0
H1056 H 0.84417 0.98572 0.61658 0.0
S1057 S 0.85474 0.01392 0.46217 0.0
N1058 N 0.83603 0.97363 0.47277 0.0
N1059 N 0.86481 0.03438 0.50184 0.0
C1060 C 0.8531 0.00832 0.526 0.0
C1061 C 0.83753 0.97534 0.51018 0.0
C1062 C 0.75204 0.07391 0.26055 0.0
C1063 C 0.78283 0.05565 0.27483 0.0
C1064 C 0.72488 0.08779 0.28377 0.0
C1065 C 0.72717 0.08398 0.32235 0.0
H1066 H 0.74809 0.07645 0.23106 0.0
H1067 H 0.70109 0.10041 0.27117 0.0
S1068 S 0.80378 0.04159 0.37427 0.0
N1069 N 0.81544 0.03714 0.3306 0.0
N1070 N 0.76407 0.06311 0.37404 0.0
C1071 C 0.75884 0.06786 0.33726 0.0
C1072 C 0.78668 0.05369 0.31358 0.0
C1073 C 0.66449 0.04059 0.10294 0.0
C1074 C 0.67169 0.04615 0.06523 0.0
C1075 C 0.65187 0.00653 0.116 0.0
C1076 C 0.64569 0.97655 0.09192 0.0
H1077 H 0.6699 0.06232 0.12297 0.0
H1078 H 0.64811 0.00346 0.14542 0.0
S1079 S 0.65547 0.97809 0.98987 0.0
N1080 N 0.66843 0.01983 0.0035 0.0
N1081 N 0.64423 0.95581 0.02776 0.0
C1082 C 0.6507 0.98232 0.05378 0.0
C1083 C 0.66389 0.01704 0.04054 0.0
C1084 C 0.72405 0.07851 0.69717 0.0
C1085 C 0.69749 0.06351 0.67279 0.0
C1086 C 0.75779 0.09239 0.68423 0.0
C1087 C 0.76652 0.09142 0.64642 0.0
H1088 H 0.71896 0.07913 0.72655 0.0
H1089 H 0.7776 0.10304 0.70427 0.0
S1090 S 0.7062 0.05489 0.57099 0.0
N1091 N 0.68188 0.04893 0.6088 0.0
N1092 N 0.74524 0.07476 0.58463 0.0
C1093 C 0.73971 0.07745 0.62158 0.0
C1094 C 0.70527 0.06349 0.63473 0.0
C1095 C 0.66879 0.98104 0.49473 0.0
C1096 C 0.69052 0.95355 0.47889 0.0
C1097 C 0.65261 0.00809 0.473 0.0
C1098 C 0.65762 0.00891 0.43453 0.0
H1099 H 0.66541 0.98263 0.52434 0.0
H1100 H 0.6376 0.02973 0.48674 0.0
S1101 S 0.70928 0.94148 0.37888 0.0
N1102 N 0.71378 0.92713 0.42174 0.0
N1103 N 0.68348 0.97844 0.38111 0.0
C1104 C 0.6771 0.98025 0.41794 0.0
C1105 C 0.69359 0.95249 0.44008 0.0
C1106 C 0.76442 0.91726 0.23318 0.0
C1107 C 0.79486 0.92619 0.21112 0.0
C1108 C 0.7321 0.90204 0.21758 0.0
C1109 C 0.72914 0.89501 0.17937 0.0
H1110 H 0.76496 0.92345 0.26243 0.0
H1111 H 0.70884 0.89711 0.23553 0.0
S1112 S 0.80378 0.90785 0.11085 0.0
N1113 N 0.82187 0.92306 0.15007 0.0
N1114 N 0.76142 0.89412 0.12074 0.0
C1115 C 0.76044 0.90155 0.1575 0.0
C1116 C 0.7932 0.91729 0.17336 0.0
C1117 C 0.82125 0.0219 0.97834 0.0
C1118 C 0.7982 0.04524 0.95811 0.0
C1119 C 0.8398 0.99286 0.96111 0.0
C1120 C 0.83647 0.98629 0.92288 0.0
H1121 H 0.82422 0.02539 0.00789 0.0
H1122 H 0.85624 0.97488 0.97807 0.0
S1123 S 0.78091 0.04064 0.857 0.0
N1124 N 0.7742 0.06058 0.89734 0.0
N1125 N 0.80922 0.00651 0.86515 0.0
C1126 C 0.8146 0.01032 0.90212 0.0
C1127 C 0.7954 0.03958 0.91968 0.0
C1128 C 0.76581 0.7403 0.91485 0.0
C1129 C 0.77987 0.71743 0.94254 0.0
C1130 C 0.78822 0.76656 0.89756 0.0
C1131 C 0.82566 0.77134 0.90727 0.0
H1132 H 0.73693 0.73871 0.90711 0.0
H1133 H 0.77557 0.78464 0.87765 0.0
S1134 S 0.87716 0.71623 0.97551 0.0
N1135 N 0.83466 0.69925 0.97676 0.0
N1136 N 0.87662 0.74913 0.94433 0.0
C1137 C 0.84081 0.74715 0.93315 0.0
C1138 C 0.81793 0.72016 0.95083 0.0
C1139 C 0.3384 0.79629 0.0574 0.0
C1140 C 0.30116 0.80425 0.06426 0.0
C1141 C 0.3552 0.76565 0.0733 0.0
C1142 C 0.33525 0.74184 0.09645 0.0
H1143 H 0.35442 0.81303 0.03857 0.0
H1144 H 0.38326 0.75943 0.06569 0.0
S1145 S 0.23881 0.75295 0.12722 0.0
N1146 N 0.24617 0.78771 0.09897 0.0
N1147 N 0.27773 0.73007 0.12844 0.0
C1148 C 0.29879 0.75067 0.10526 0.0
C1149 C 0.28173 0.78188 0.08927 0.0
C1150 C 0.9803 0.52974 0.82653 0.0
C1151 C 0.94804 0.55017 0.83126 0.0
C1152 C 0.01486 0.54427 0.83699 0.0
C1153 C 0.01854 0.57994 0.85225 0.0
H1154 H 0.97916 0.50292 0.81326 0.0
H1155 H 0.03899 0.52807 0.83128 0.0
S1156 S 0.94254 0.64263 0.87602 0.0
N1157 N 0.92189 0.60644 0.85676 0.0
N1158 N 0.98693 0.63356 0.87571 0.0
C1159 C 0.98645 0.59966 0.85949 0.0
C1160 C 0.9512 0.58482 0.84923 0.0
C1161 C 0.22889 0.23596 0.58213 0.0
C1162 C 0.20898 0.20272 0.57855 0.0
C1163 C 0.21122 0.26832 0.59283 0.0
C1164 C 0.17304 0.26848 0.60034 0.0
H1165 H 0.25772 0.23745 0.57458 0.0
H1166 H 0.22739 0.29367 0.59358 0.0
S1167 S 0.11052 0.1866 0.60171 0.0
N1168 N 0.15052 0.17051 0.58807 0.0
N1169 N 0.11736 0.23122 0.60841 0.0
C1170 C 0.15362 0.2347 0.59962 0.0
C1171 C 0.17158 0.20185 0.58865 0.0
C1172 C 0.03862 0.94258 0.81718 0.0
C1173 C 0.03961 0.9808 0.82461 0.0
C1174 C 0.01084 0.91961 0.83171 0.0
C1175 C 0.98301 0.93408 0.85399 0.0
H1176 H 0.058 0.9306 0.79815 0.0
H1177 H 0.00975 0.89102 0.82327 0.0
S1178 S 0.97821 0.03021 0.88897 0.0
N1179 N 0.01405 0.03054 0.86119 0.0
N1180 N 0.96192 0.98748 0.88817 0.0
C1181 C 0.98596 0.97137 0.86469 0.0
C1182 C 0.01416 0.99472 0.85002 0.0
C1183 C 0.66281 0.29112 0.41273 0.0
C1184 C 0.69509 0.29588 0.43415 0.0
C1185 C 0.65237 0.25658 0.39865 0.0
C1186 C 0.6739 0.22547 0.40511 0.0
H1187 H 0.64429 0.3138 0.40832 0.0
H1188 H 0.62622 0.25389 0.38414 0.0
S1189 S 0.76387 0.22383 0.45441 0.0
N1190 N 0.75089 0.2671 0.45728 0.0
N1191 N 0.73112 0.20212 0.43056 0.0
C1192 C 0.7079 0.23028 0.42355 0.0
C1193 C 0.71853 0.26552 0.43814 0.0
C1194 C 0.9796 0.47416 0.67991 0.0
C1195 C 0.95118 0.4525 0.69495 0.0
C1196 C 0.00946 0.45778 0.66226 0.0
C1197 C 0.01194 0.4191 0.65885 0.0
H1198 H 0.97973 0.50383 0.68334 0.0
H1199 H 0.03158 0.47561 0.65267 0.0
S1200 S 0.94104 0.35063 0.68791 0.0
N1201 N 0.92471 0.39075 0.70106 0.0
N1202 N 0.98081 0.36003 0.66799 0.0
C1203 C 0.98215 0.39737 0.67118 0.0
C1204 C 0.95184 0.41404 0.6893 0.0
C1205 C 0.53918 0.57587 0.18364 0.0
C1206 C 0.54134 0.53722 0.18124 0.0
C1207 C 0.50793 0.59435 0.1717 0.0
C1208 C 0.47737 0.57496 0.15698 0.0
H1209 H 0.56154 0.59217 0.19568 0.0
H1210 H 0.50734 0.62398 0.17533 0.0
S1211 S 0.47089 0.47389 0.14021 0.0
N1212 N 0.51168 0.48038 0.15994 0.0
N1213 N 0.45258 0.51511 0.13717 0.0
C1214 C 0.47987 0.53641 0.15251 0.0
C1215 C 0.51194 0.51754 0.16469 0.0
C1216 C 0.56352 0.66511 0.79815 0.0
C1217 C 0.58032 0.69817 0.81024 0.0
C1218 C 0.5763 0.64677 0.76677 0.0
C1219 C 0.60545 0.66165 0.74592 0.0
H1220 H 0.54034 0.65345 0.81299 0.0
H1221 H 0.56226 0.62165 0.75793 0.0
S1222 S 0.65918 0.74699 0.76693 0.0
N1223 N 0.62857 0.7442 0.80033 0.0
N1224 N 0.65145 0.71063 0.74018 0.0
C1225 C 0.62281 0.69438 0.75814 0.0
C1226 C 0.61051 0.71244 0.79065 0.0
C1227 C 0.5471 0.31949 0.03871 0.0
C1228 C 0.5709 0.29256 0.05246 0.0
C1229 C 0.55862 0.34363 0.01102 0.0
C1230 C 0.59461 0.34239 0.99723 0.0
H1231 H 0.51847 0.31978 0.04702 0.0
H1232 H 0.53847 0.36129 -0.00173 0.0
S1233 S 0.66922 0.28136 0.0287 0.0
N1234 N 0.63311 0.26882 0.05342 0.0
N1235 N 0.65525 0.31538 0.00233 0.0
C1236 C 0.61973 0.31825 0.01351 0.0
C1237 C 0.60772 0.29291 0.0409 0.0
C1238 C 0.92285 0.28098 0.27323 0.0
C1239 C 0.94146 0.30534 0.29751 0.0
C1240 C 0.90281 0.2942 0.24294 0.0
C1241 C 0.90008 0.33229 0.23637 0.0
H1242 H 0.92529 0.25149 0.27661 0.0
H1243 H 0.89067 0.27439 0.22377 0.0
S1244 S 0.93937 0.40716 0.29623 0.0
N1245 N 0.95312 0.36879 0.3157 0.0
N1246 N 0.91451 0.39413 0.26001 0.0
C1247 C 0.91633 0.35685 0.26249 0.0
C1248 C 0.93738 0.34325 0.29267 0.0
C1249 C 0.95443 0.66893 0.53185 0.0
C1250 C 0.93441 0.69693 0.54934 0.0
C1251 C 0.94167 0.65221 0.4991 0.0
C1252 C 0.90788 0.6621 0.4832 0.0
H1253 H 0.98065 0.66038 0.54295 0.0
H1254 H 0.95845 0.6315 0.48606 0.0
S1255 S 0.84389 0.73246 0.51965 0.0
N1256 N 0.87879 0.7331 0.54905 0.0
N1257 N 0.85387 0.70098 0.4884 0.0
C1258 C 0.88697 0.68929 0.50118 0.0
C1259 C 0.90049 0.70689 0.53398 0.0
C1260 C 0.58775 0.31584 0.70903 0.0
C1261 C 0.55114 0.32319 0.69835 0.0
C1262 C 0.60096 0.3252 0.74432 0.0
C1263 C 0.5778 0.34161 0.77017 0.0
H1264 H 0.60618 0.30205 0.6903 0.0
H1265 H 0.62909 0.31871 0.75173 0.0
S1266 S 0.48157 0.37088 0.75475 0.0
N1267 N 0.49329 0.35121 0.71554 0.0
N1268 N 0.51802 0.36809 0.78205 0.0
C1269 C 0.54177 0.35049 0.75948 0.0
C1270 C 0.52848 0.34153 0.72344 0.0
C1271 C 0.94499 0.27467 0.98881 0.0
C1272 C 0.94268 0.29228 0.95459 0.0
C1273 C 0.93351 0.29233 0.02105 0.0
C1274 C 0.91835 0.32769 0.01985 0.0
H1275 H 0.95603 0.2472 0.99069 0.0
H1276 H 0.9353 0.2777 0.04692 0.0
S1277 S 0.90572 0.38504 0.93686 0.0
N1278 N 0.92484 0.34704 0.92123 0.0
N1279 N 0.90118 0.3795 0.98178 0.0
C1280 C 0.91561 0.34546 0.98576 0.0
C1281 C 0.9284 0.32793 0.95309 0.0
C1282 C 0.97835 0.65108 0.2258 0.0
C1283 C 0.97237 0.68676 0.21242 0.0
C1284 C 0.95493 0.63543 0.2522 0.0
C1285 C 0.92546 0.65542 0.2668 0.0
H1286 H 0.00182 0.63555 0.21649 0.0
H1287 H 0.96141 0.60854 0.26295 0.0
S1288 S 0.89732 0.74915 0.23981 0.0
N1289 N 0.93368 0.74077 0.21414 0.0
N1290 N 0.89056 0.71187 0.26487 0.0
C1291 C 0.91846 0.69054 0.25269 0.0
C1292 C 0.94171 0.7061 0.22518 0.0
C1293 C 0.57535 0.64822 0.46135 0.0
C1294 C 0.54776 0.67497 0.45999 0.0
C1295 C 0.5909 0.63754 0.49501 0.0
C1296 C 0.57869 0.65249 0.52852 0.0
H1297 H 0.58538 0.63583 0.43617 0.0
H1298 H 0.61248 0.61726 0.49483 0.0
S1299 S 0.50645 0.72288 0.53997 0.0
N1300 N 0.50861 0.71594 0.49504 0.0
N1301 N 0.53726 0.69536 0.55832 0.0
C1302 C 0.55072 0.67888 0.52758 0.0
C1303 C 0.53544 0.69029 0.4933 0.0
C1304 C 0.78406 0.52975 0.67394 0.0
C1305 C 0.79806 0.54073 0.7086 0.0
C1306 C 0.75379 0.54734 0.6581 0.0
C1307 C 0.73602 0.57613 0.6766 0.0
H1308 H 0.79653 0.50735 0.65888 0.0
H1309 H 0.74339 0.53732 0.63184 0.0
S1310 S 0.76172 0.61575 0.76768 0.0
N1311 N 0.79215 0.5832 0.76049 0.0
N1312 N 0.73444 0.61512 0.73106 0.0
C1313 C 0.7497 0.58753 0.71111 0.0
C1314 C 0.78097 0.57017 0.72699 0.0
C1315 C 0.65032 0.54429 0.93943 0.0
C1316 C 0.68819 0.55289 0.944 0.0
C1317 C 0.63836 0.50971 0.92636 0.0
C1318 C 0.66377 0.48234 0.91783 0.0
H1319 H 0.62954 0.56403 0.94686 0.0
H1320 H 0.60901 0.50405 0.92388 0.0
S1321 S 0.76574 0.49238 0.91945 0.0
N1322 N 0.75094 0.53227 0.93491 0.0
N1323 N 0.72839 0.46702 0.91101 0.0
C1324 C 0.70165 0.4909 0.92078 0.0
C1325 C 0.71387 0.52625 0.93367 0.0
C1326 C 0.70789 0.45063 0.15329 0.0
C1327 C 0.69669 0.44406 0.18965 0.0
C1328 C 0.73988 0.43478 0.13932 0.0
C1329 C 0.76224 0.41254 0.16156 0.0
H1330 H 0.69205 0.46845 0.1356 0.0
H1331 H 0.74789 0.44125 0.11136 0.0
S1332 S 0.74468 0.38656 0.25856 0.0
N1333 N 0.70982 0.41304 0.24739 0.0
N1334 N 0.7705 0.38401 0.22137 0.0
C1335 C 0.75102 0.40531 0.19779 0.0
C1336 C 0.71807 0.42085 0.21178 0.0
C1337 C 0.75986 0.50387 0.45073 0.0
C1338 C 0.77009 0.4668 0.44819 0.0
C1339 C 0.78273 0.53199 0.43742 0.0
C1340 C 0.81617 0.52404 0.41998 0.0
H1341 H 0.73417 0.51134 0.46361 0.0
H1342 H 0.77363 0.56017 0.43997 0.0
S1343 S 0.85464 0.4315 0.40418 0.0
N1344 N 0.8157 0.42349 0.42633 0.0
N1345 N 0.85794 0.47668 0.3995 0.0
C1346 C 0.82643 0.48714 0.41633 0.0
C1347 C 0.8036 0.45842 0.43094 0.0
C1348 C 0.76147 0.43139 0.7893 0.0
C1349 C 0.78937 0.44099 0.81461 0.0
C1350 C 0.73316 0.40701 0.79909 0.0
C1351 C 0.73169 0.39205 0.8347 0.0
H1352 H 0.76009 0.44484 0.76275 0.0
H1353 H 0.7102 0.40303 0.7801 0.0
S1354 S 0.80382 0.40151 0.90724 0.0
N1355 N 0.81847 0.42838 0.87357 0.0
N1356 N 0.76441 0.38286 0.89266 0.0
C1357 C 0.76209 0.3977 0.85846 0.0
C1358 C 0.79113 0.42251 0.84833 0.0
C1359 C 0.8354 0.54618 0.07029 0.0
C1360 C 0.80232 0.54334 0.04997 0.0
C1361 C 0.8537 0.51445 0.08197 0.0
C1362 C 0.84031 0.47912 0.07219 0.0
H1363 H 0.84654 0.57301 0.07808 0.0
H1364 H 0.8782 0.51752 0.09905 0.0
S1365 S 0.75555 0.45752 0.01764 0.0
N1366 N 0.75712 0.50296 0.02015 0.0
N1367 N 0.79237 0.44339 0.04014 0.0
C1368 C 0.80791 0.47618 0.05066 0.0
C1369 C 0.78869 0.50833 0.04003 0.0
C1370 C 0.70099 0.59648 0.31063 0.0
C1371 C 0.69812 0.56447 0.28861 0.0
C1372 C 0.73523 0.60988 0.32312 0.0
C1373 C 0.76796 0.59226 0.31346 0.0
H1374 H 0.67652 0.61097 0.31898 0.0
H1375 H 0.73604 0.63388 0.34105 0.0
S1376 S 0.77582 0.50842 0.255 0.0
N1377 N 0.73112 0.51609 0.25664 0.0
N1378 N 0.79567 0.54156 0.2799 0.0
C1379 C 0.76571 0.56084 0.29055 0.0
C1380 C 0.73072 0.5468 0.27828 0.0
C1381 C 0.662 0.44305 0.57707 0.0
C1382 C 0.69752 0.44519 0.56188 0.0
C1383 C 0.64431 0.47491 0.58942 0.0
C1384 C 0.66094 0.50978 0.58501 0.0
H1385 H 0.64826 0.41654 0.58025 0.0
H1386 H 0.61762 0.47232 0.60245 0.0
S1387 S 0.75296 0.52996 0.54526 0.0
N1388 N 0.74868 0.48463 0.54329 0.0
N1389 N 0.71421 0.5447 0.56329 0.0
C1390 C 0.69585 0.51223 0.56857 0.0
C1391 C 0.71451 0.47983 0.55779 0.0
C1392 C 0.68634 0.79041 0.60141 0.0
C1393 C 0.71069 0.79077 0.5713 0.0
C1394 C 0.67164 0.75729 0.61507 0.0
C1395 C 0.68152 0.72326 0.59978 0.0
H1396 H 0.67812 0.81599 0.61427 0.0
H1397 H 0.65247 0.75831 0.6378 0.0
S1398 S 0.74388 0.7088 0.52048 0.0
N1399 N 0.74364 0.75393 0.52642 0.0
N1400 N 0.71658 0.69172 0.55255 0.0
C1401 C 0.70605 0.7231 0.5699 0.0
C1402 C 0.72045 0.75684 0.55551 0.0
C1403 C 0.17937 0.71553 0.43293 0.0
C1404 C 0.20243 0.72394 0.4632 0.0
C1405 C 0.16884 0.74311 0.40822 0.0
C1406 C 0.18193 0.77967 0.41241 0.0
H1407 H 0.1679 0.68797 0.42945 0.0
H1408 H 0.14909 0.73614 0.38663 0.0
S1409 S 0.24681 0.81416 0.48518 0.0
N1410 N 0.24049 0.77012 0.49458 0.0
N1411 N 0.22189 0.82174 0.44785 0.0
C1412 C 0.20724 0.78758 0.44123 0.0
C1413 C 0.21712 0.75976 0.46677 0.0
C1414 C 0.51489 0.95016 0.71881 0.0
C1415 C 0.54842 0.94444 0.70076 0.0
C1416 C 0.48133 0.93978 0.70201 0.0
C1417 C 0.48048 0.92264 0.66709 0.0
H1418 H 0.51458 0.96346 0.74562 0.0
H1419 H 0.45596 0.94424 0.71685 0.0
S1420 S 0.56088 0.90108 0.60903 0.0
N1421 N 0.57889 0.92122 0.64614 0.0
N1422 N 0.51583 0.89986 0.61545 0.0
C1423 C 0.51384 0.91639 0.64908 0.0
C1424 C 0.54786 0.92786 0.66569 0.0
C1425 C 0.34082 0.29352 0.95329 0.0
C1426 C 0.30381 0.30196 0.94622 0.0
C1427 C 0.35723 0.26334 0.93627 0.0
C1428 C 0.33691 0.23997 0.91226 0.0
H1429 H 0.35715 0.31013 0.97244 0.0
H1430 H 0.38557 0.2574 0.94334 0.0
S1431 S 0.23946 0.25126 0.88336 0.0
N1432 N 0.24773 0.28586 0.91221 0.0
N1433 N 0.27833 0.22837 0.88086 0.0
C1434 C 0.30014 0.24875 0.90412 0.0
C1435 C 0.28364 0.27996 0.92095 0.0
C1436 C 0.46758 0.56886 0.70891 0.0
C1437 C 0.45188 0.53948 0.68847 0.0
C1438 C 0.49998 0.58666 0.69709 0.0
C1439 C 0.51818 0.57481 0.66515 0.0
H1440 H 0.4545 0.57841 0.73389 0.0
H1441 H 0.51145 0.60906 0.71362 0.0
S1442 S 0.48841 0.49914 0.60219 0.0
N1443 N 0.45648 0.49986 0.63441 0.0
N1444 N 0.51834 0.53224 0.6133 0.0
C1445 C 0.50283 0.54547 0.6446 0.0
C1446 C 0.46939 0.52806 0.65599 0.0
C1447 C 0.80378 0.20075 0.08414 0.0
C1448 C 0.78832 0.20183 0.04849 0.0
C1449 C 0.81791 0.23285 0.1013 0.0
C1450 C 0.8155 0.26719 0.08395 0.0
H1451 H 0.80571 0.17477 0.09848 0.0
H1452 H 0.83071 0.23083 0.12827 0.0
S1453 S 0.77592 0.2847 0.99113 0.0
N1454 N 0.77096 0.23976 0.99662 0.0
N1455 N 0.79593 0.30039 0.0293 0.0
C1456 C 0.7992 0.26866 0.04863 0.0
C1457 C 0.78596 0.23586 0.03077 0.0
C1458 C 0.51965 0.03874 0.8027 0.0
C1459 C 0.53984 0.06224 0.77951 0.0
C1460 C 0.49427 0.05285 0.8279 0.0
C1461 C 0.4888 0.09104 0.83131 0.0
H1462 H 0.52235 0.00914 0.80023 0.0
H1463 H 0.4778 0.03364 0.84382 0.0
S1464 S 0.5389 0.16408 0.77937 0.0
N1465 N 0.5552 0.12512 0.76296 0.0
N1466 N 0.5086 0.1522 0.81108 0.0
C1467 C 0.51088 0.11489 0.80976 0.0
C1468 C 0.53606 0.10033 0.78356 0.0
C1469 C 0.96782 0.96138 0.33015 0.0
C1470 C 0.94737 0.93925 0.30522 0.0
C1471 C -0.00167 0.94744 0.34891 0.0
C1472 C 0.00905 0.9107 0.34387 0.0
H1473 H 0.96124 0.99015 0.33397 0.0
H1474 H 0.01442 0.966 0.36643 0.0
S1475 S 0.96104 0.8402 0.28516 0.0
N1476 N 0.9375 0.87819 0.27884 0.0
N1477 N 0.99426 0.85143 0.31467 0.0
C1478 C 0.98709 0.88758 0.3209 0.0
C1479 C 0.95646 0.90205 0.30129 0.0
C1480 C 0.41832 0.27246 0.23333 0.0
C1481 C 0.43776 0.29278 0.20677 0.0
C1482 C 0.40083 0.29012 0.26286 0.0
C1483 C 0.40182 0.32886 0.26688 0.0
H1484 H 0.41777 0.24263 0.23216 0.0
H1485 H 0.38748 0.27311 0.2834 0.0
S1486 S 0.44565 0.39493 0.20228 0.0
N1487 N 0.45429 0.35401 0.18459 0.0
N1488 N 0.42154 0.38697 0.23984 0.0
C1489 C 0.41937 0.34955 0.23926 0.0
C1490 C 0.43737 0.33158 0.20936 0.0
C1491 C 0.49482 0.67206 0.99709 0.0
C1492 C 0.48038 0.69378 0.96872 0.0
C1493 C 0.47185 0.65642 0.02377 0.0
C1494 C 0.43349 0.66213 0.02347 0.0
H1495 H 0.52424 0.66783 -0.00068 0.0
H1496 H 0.48456 0.64089 0.04571 0.0
S1497 S 0.38151 0.71539 0.95403 0.0
N1498 N 0.42487 0.71876 0.94083 0.0
N1499 N 0.38186 0.68957 0.99127 0.0
C1500 C 0.4184 0.6823 0.99426 0.0
C1501 C 0.4418 0.69814 0.96689 0.0
C1502 C 0.05223 0.7085 0.729 0.0
C1503 C 0.06565 0.69519 0.69529 0.0
C1504 C 0.06686 0.69646 0.76245 0.0
C1505 C 0.09519 0.67054 0.76327 0.0
H1506 H 0.02888 0.72667 0.72969 0.0
H1507 H 0.05459 0.70609 0.78783 0.0
S1508 S 0.14547 0.63362 0.68325 0.0
N1509 N 0.11298 0.65928 0.66493 0.0
N1510 N 0.13984 0.63612 0.7283 0.0
C1511 C 0.1106 0.65895 0.73003 0.0
C1512 C 0.09602 0.67148 0.69587 0.0
C1513 C 0.0225 0.3332 0.47846 0.0
C1514 C 0.04403 0.32502 0.4476 0.0
C1515 C 0.0389 0.3453 0.51159 0.0
C1516 C 0.07753 0.34979 0.51519 0.0
H1517 H 0.9929 0.32874 0.47758 0.0
H1518 H 0.02109 0.34989 0.53495 0.0
S1519 S 0.14559 0.33743 0.44037 0.0
N1520 N 0.10552 0.32617 0.4212 0.0
N1521 N 0.13634 0.3489 0.48337 0.0
C1522 C 0.09911 0.34401 0.48369 0.0
C1523 C 0.08238 0.33157 0.44997 0.0
C1524 C 0.43352 0.66629 0.2972 0.0
C1525 C 0.43114 0.70428 0.30478 0.0
C1526 C 0.41864 0.65085 0.26477 0.0
C1527 C 0.40097 0.67285 0.2385 0.0
H1528 H 0.44787 0.64833 0.31599 0.0
H1529 H 0.42257 0.62177 0.25954 0.0
S1530 S 0.38298 0.77285 0.24722 0.0
N1531 N 0.40649 0.76287 0.28489 0.0
N1532 N 0.37869 0.73385 0.22379 0.0
C1533 C 0.39668 0.71051 0.24656 0.0
C1534 C 0.41172 0.72623 0.27971 0.0
C1535 C 0.10207 0.6752 0.04661 0.0
C1536 C 0.0652 0.68582 0.05162 0.0
C1537 C 0.11452 0.66256 0.01254 0.0
C1538 C 0.09064 0.65976 0.98202 0.0
H1539 H 0.12213 0.678 0.06876 0.0
H1540 H 0.14344 0.65609 0.00992 0.0
S1541 S 0.99007 0.67863 0.98177 0.0
N1542 N 0.00397 0.68886 0.02407 0.0
N1543 N 0.02715 0.6647 0.96 0.0
C1544 C 0.05304 0.66781 0.98719 0.0
C1545 C 0.0404 0.68096 0.02196 0.0
C1546 C 0.04732 0.3085 0.78191 0.0
C1547 C 0.05587 0.27075 0.78321 0.0
C1548 C 0.06405 0.3321 0.75621 0.0
C1549 C 0.09001 0.31873 0.73112 0.0
H1550 H 0.0261 0.31954 0.79949 0.0
H1551 H 0.05475 0.36024 0.75438 0.0
S1552 S 0.12689 0.22401 0.72744 0.0
N1553 N 0.0956 0.22249 0.76023 0.0
N1554 N 0.12707 0.26677 0.71229 0.0
C1555 C 0.10095 0.28185 0.73416 0.0
C1556 C 0.08383 0.25785 0.76005 0.0
C1557 C 0.4231 0.30339 0.5354 0.0
C1558 C 0.4606 0.31268 0.5414 0.0
C1559 C 0.40281 0.31915 0.50662 0.0
C1560 C 0.41935 0.34463 0.48263 0.0
H1561 H 0.40937 0.2832 0.55259 0.0
H1562 H 0.37456 0.30995 0.50207 0.0
S1563 S 0.51547 0.38097 0.48821 0.0
N1564 N 0.51252 0.35117 0.52226 0.0
N1565 N 0.47447 0.38046 0.46815 0.0
C1566 C 0.45631 0.35528 0.48917 0.0
C1567 C 0.47692 0.33938 0.51851 0.0
C1568 C 0.2263 0.42383 0.27194 0.0
C1569 C 0.20056 0.44474 0.29143 0.0
C1570 C 0.25592 0.40733 0.29012 0.0
C1571 C 0.26085 0.41081 0.32857 0.0
H1572 H 0.22419 0.42096 0.24226 0.0
H1573 H 0.27569 0.3925 0.2737 0.0
S1574 S 0.19949 0.46042 0.39282 0.0
N1575 N 0.18069 0.46626 0.35176 0.0
N1576 N 0.23624 0.43523 0.38578 0.0
C1577 C 0.23438 0.4303 0.34862 0.0
C1578 C 0.20435 0.44734 0.33009 0.0
C1579 C 0.31543 0.46164 0.07569 0.0
C1580 C 0.31414 0.45802 0.03708 0.0
C1581 C 0.32897 0.49379 0.09268 0.0
C1582 C 0.34153 0.5239 0.07178 0.0
H1583 H 0.30519 0.43969 0.09312 0.0
H1584 H 0.32835 0.49537 0.12249 0.0
S1585 S 0.34724 0.52702 0.96956 0.0
N1586 N 0.329 0.48606 0.97829 0.0
N1587 N 0.3545 0.54685 0.01012 0.0
C1588 C 0.34203 0.52001 0.03305 0.0
C1589 C 0.32832 0.487 0.01573 0.0
C1590 C 0.25936 0.57858 0.75546 0.0
C1591 C 0.28828 0.5593 0.77199 0.0
C1592 C 0.23288 0.59608 0.77687 0.0
C1593 C 0.23397 0.59479 0.81571 0.0
H1594 H 0.25622 0.579 0.72576 0.0
H1595 H 0.21026 0.60919 0.76271 0.0
S1596 S 0.30662 0.55218 0.87285 0.0
N1597 N 0.31871 0.5435 0.82995 0.0
N1598 N 0.2684 0.57601 0.86987 0.0
C1599 C 0.26419 0.57807 0.83269 0.0
C1600 C 0.2914 0.56034 0.8109 0.0
C1601 C 0.18279 0.52324 0.54065 0.0
C1602 C 0.17017 0.55611 0.55654 0.0
C1603 C 0.17213 0.48897 0.55463 0.0
C1604 C 0.14857 0.48616 0.58514 0.0
H1605 H 0.20269 0.52384 0.51853 0.0
H1606 H 0.18393 0.46456 0.54244 0.0
S1607 S 0.10091 0.56291 0.63119 0.0
N1608 N 0.12775 0.58323 0.60054 0.0
N1609 N 0.10831 0.51833 0.62707 0.0
C1610 C 0.13349 0.51842 0.59955 0.0
C1611 C 0.14406 0.5535 0.58511 0.0
C1612 C 0.19623 0.58454 0.15009 0.0
C1613 C 0.19022 0.57454 0.18706 0.0
C1614 C 0.23024 0.59903 0.13861 0.0
C1615 C 0.2597 0.60433 0.16362 0.0
H1616 H 0.17515 0.57946 0.12928 0.0
H1617 H 0.23387 0.6045 0.10954 0.0
S1618 S 0.25601 0.58911 0.26483 0.0
N1619 N 0.21501 0.57552 0.24951 0.0
N1620 N 0.2788 0.60317 0.22819 0.0
C1621 C 0.25308 0.59728 0.20125 0.0
C1622 C 0.21845 0.58224 0.21288 0.0
C1623 C 0.19245 0.46752 0.93491 0.0
C1624 C 0.18453 0.46736 0.97297 0.0
C1625 C 0.17868 0.49489 0.91165 0.0
C1626 C 0.15646 0.52289 0.92571 0.0
H1627 H 0.21126 0.44775 0.92334 0.0
H1628 H 0.18764 0.49561 0.88324 0.0
S1629 S 0.12158 0.53082 0.0213 0.0
N1630 N 0.14858 0.49467 0.02216 0.0
N1631 N 0.12267 0.54585 0.97849 0.0
C1632 C 0.14565 0.5211 0.96283 0.0
C1633 C 0.15972 0.49344 0.98648 0.0
C1634 C 0.29373 0.42375 0.67984 0.0
C1635 C 0.29647 0.42586 0.71855 0.0
C1636 C 0.26093 0.41264 0.66218 0.0
C1637 C 0.22931 0.40325 0.68244 0.0
H1638 H 0.31689 0.4317 0.66279 0.0
H1639 H 0.26014 0.41265 0.63233 0.0
S1640 S 0.22316 0.40023 0.78472 0.0
N1641 N 0.2657 0.41479 0.77676 0.0
N1642 N 0.20389 0.39368 0.74378 0.0
C1643 C 0.23223 0.40333 0.72132 0.0
C1644 C 0.26582 0.41466 0.73931 0.0
C1645 C 0.29764 0.53875 0.42287 0.0
C1646 C 0.30165 0.5451 0.46107 0.0
C1647 C 0.31481 0.50911 0.40536 0.0
C1648 C 0.33655 0.48437 0.42534 0.0
H1649 H 0.28052 0.55641 0.40627 0.0
H1650 H 0.30965 0.50472 0.37619 0.0
S1651 S 0.35843 0.49025 0.52539 0.0
N1652 N 0.33102 0.52531 0.51792 0.0
N1653 N 0.36309 0.46954 0.48507 0.0
C1654 C 0.34188 0.49111 0.46332 0.0
C1655 C 0.3245 0.52142 0.48115 0.0
C1656 C 0.25597 0.24053 0.41868 0.0
C1657 C 0.27103 0.21623 0.44452 0.0
C1658 C 0.27813 0.26659 0.40066 0.0
C1659 C 0.3163 0.26974 0.40784 0.0
H1660 H 0.22658 0.24031 0.41316 0.0
H1661 H 0.26484 0.28577 0.38228 0.0
S1662 S 0.36999 0.21104 0.4711 0.0
N1663 N 0.32718 0.19532 0.47453 0.0
N1664 N 0.36863 0.24476 0.44085 0.0
C1665 C 0.33219 0.2442 0.43187 0.0
C1666 C 0.30959 0.21742 0.45022 0.0
C1667 C 0.83495 0.29043 0.55517 0.0
C1668 C 0.79658 0.29358 0.5598 0.0
C1669 C 0.85378 0.25942 0.56777 0.0
C1670 C 0.83478 0.23032 0.58502 0.0
H1671 H 0.85046 0.31163 0.5409 0.0
H1672 H 0.88301 0.25746 0.56235 0.0
S1673 S 0.73497 0.22634 0.60688 0.0
N1674 N 0.74084 0.26587 0.58534 0.0
N1675 N 0.77613 0.20775 0.60872 0.0
C1676 C 0.79677 0.23388 0.59133 0.0
C1677 C 0.77769 0.26546 0.57878 0.0
C1678 C 0.44835 0.08065 0.34398 0.0
C1679 C 0.44554 0.05096 0.31883 0.0
C1680 C 0.48131 0.08881 0.36274 0.0
C1681 C 0.51288 0.06759 0.35733 0.0
H1682 H 0.42541 0.0989 0.3481 0.0
H1683 H 0.48258 0.11318 0.38015 0.0
S1684 S 0.51879 0.98353 0.29877 0.0
N1685 N 0.47617 0.99765 0.29279 0.0
N1686 N 0.53816 0.01296 0.32822 0.0
C1687 C 0.50966 0.03591 0.33477 0.0
C1688 C 0.47601 0.02764 0.31544 0.0
C1689 C 0.72442 0.72562 0.08521 0.0
C1690 C 0.70462 0.69461 0.07222 0.0
C1691 C 0.70601 0.75675 0.0981 0.0
C1692 C 0.6671 0.75796 0.09866 0.0
H1693 H 0.75424 0.72657 0.08381 0.0
H1694 H 0.72253 0.78051 0.10653 0.0
S1695 S 0.60289 0.68118 0.07287 0.0
N1696 N 0.64431 0.6651 0.06448 0.0
N1697 N 0.60971 0.72345 0.08885 0.0
C1698 C 0.64713 0.72603 0.0881 0.0
C1699 C 0.66589 0.69443 0.07477 0.0
C1700 C 0.52756 0.43398 0.30277 0.0
C1701 C 0.53274 0.47128 0.31306 0.0
C1702 C 0.50009 0.41188 0.31912 0.0
C1703 C 0.47702 0.42633 0.34641 0.0
H1704 H 0.54325 0.42236 0.28035 0.0
H1705 H 0.49519 0.38426 0.30844 0.0
S1706 S 0.48393 0.51978 0.38819 0.0
N1707 N 0.51585 0.51981 0.35599 0.0
N1708 N 0.46449 0.47835 0.38664 0.0
C1709 C 0.48406 0.46248 0.35912 0.0
C1710 C 0.5118 0.48496 0.34244 0.0
C1711 C 0.17304 0.80415 0.90715 0.0
C1712 C 0.20464 0.80678 0.92996 0.0
C1713 C 0.16142 0.77057 0.89161 0.0
C1714 C 0.18109 0.73822 0.8978 0.0
H1715 H 0.156 0.8279 0.90244 0.0
H1716 H 0.13593 0.76969 0.87584 0.0
S1717 S 0.26844 0.73067 0.95122 0.0
N1718 N 0.25752 0.77449 0.95488 0.0
N1719 N 0.23583 0.71133 0.92526 0.0
C1720 C 0.21434 0.7408 0.9181 0.0
C1721 C 0.22607 0.77508 0.93428 0.0
C1722 C 0.47616 0.96716 0.17107 0.0
C1723 C 0.44732 0.94914 0.1897 0.0
C1724 C 0.50704 0.94794 0.15915 0.0
C1725 C 0.51031 0.90982 0.1651 0.0
H1726 H 0.4756 0.99663 0.1667 0.0
H1727 H 0.52904 0.96337 0.14597 0.0
S1728 S 0.4409 0.84896 0.20954 0.0
N1729 N 0.42274 0.89034 0.2113 0.0
N1730 N 0.48092 0.85426 0.18872 0.0
C1731 C 0.48085 0.89103 0.18198 0.0
C1732 C 0.44938 0.91069 0.1944 0.0
C1733 C 0.04281 0.0806 0.69341 0.0
C1734 C 0.04816 0.04232 0.69085 0.0
C1735 C 0.01206 0.09706 0.67745 0.0
C1736 C 0.98524 0.07588 0.65842 0.0
H1737 H 0.06225 0.09815 0.70841 0.0
H1738 H 0.00876 0.12645 0.68119 0.0
S1739 S 0.98793 0.97497 0.64078 0.0
N1740 N 0.02534 0.98398 0.66566 0.0
N1741 N 0.96737 0.01483 0.63551 0.0
C1742 C 0.99092 0.03771 0.65438 0.0
C1743 C 0.02239 0.02095 0.67064 0.0
loop_
_geom_bond_atom_site_label_1
_geom_bond_atom_site_label_2
_geom_bond_distance
_geom_bond_site_symmetry_2
_ccdc_geom_bond_type
Co0 O1 2.216 1_655 S
Co0 O2 2.091 . S
Co0 O4 2.004 . S
Co0 O10 2.021 1_655 S
Co0 O12 2.140 . S
Co0 O13 2.244 1_655 S
O1 Co0 2.216 1_455 S
O1 C8 1.247 1_455 S
O2 Co0 2.091 . S
O2 C8 1.261 . S
C3 O12 1.226 1_455 S
C3 O13 1.272 . S
O4 Co0 2.004 . S
O4 C9 1.259 . S
Co5 O6 2.061 . S
Co5 O11 2.052 . S
Co5 O13 2.135 . S
O6 Co5 2.061 . S
O6 C9 1.235 1_455 S
C7 O10 1.238 . S
C7 O11 1.241 . S
C8 O1 1.247 1_655 S
C8 O2 1.261 . S
C9 O4 1.259 . S
C9 O6 1.235 1_655 S
O10 Co0 2.021 1_455 S
O10 C7 1.238 . S
O11 Co5 2.052 . S
O11 C7 1.241 . S
O12 Co0 2.140 . S
O12 C3 1.226 1_655 S
O13 Co0 2.244 1_455 S
O13 C3 1.272 . S
O13 Co5 2.135 . S
Co14 O15 2.216 . S
Co14 O16 2.091 . S
Co14 O18 2.004 1_655 S
Co14 O24 2.021 1_655 S
Co14 O26 2.137 . S
Co14 O27 2.244 . S
O15 Co14 2.216 . S
O15 C22 1.247 . S
O16 Co14 2.091 . S
O16 C22 1.261 . S
C17 O26 1.247 . S
C17 O27 1.272 . S
O18 Co14 2.004 1_455 S
O18 C23 1.259 . S
Co19 O20 2.061 . S
Co19 O25 2.052 . S
Co19 O27 2.135 1_455 S
O20 Co19 2.061 . S
O20 C23 1.235 . S
C21 O24 1.238 . S
C21 O25 1.241 . S
C22 O15 1.247 . S
C22 O16 1.261 . S
C23 O18 1.259 . S
C23 O20 1.235 . S
O24 Co14 2.021 1_455 S
O24 C21 1.238 . S
O25 Co19 2.052 . S
O25 C21 1.241 . S
O26 Co14 2.137 . S
O26 C17 1.247 . S
O27 Co14 2.244 . S
O27 C17 1.272 . S
O27 Co19 2.135 1_655 S
Co28 O29 2.216 . S
Co28 O30 2.091 . S
Co28 O32 2.004 . S
Co28 O38 2.021 . S
Co28 O40 2.137 . S
Co28 O41 2.244 . S
O29 Co28 2.216 . S
O29 C36 1.247 . S
O30 Co28 2.091 . S
O30 C36 1.261 . S
C31 O40 1.247 . S
C31 O41 1.272 . S
O32 Co28 2.004 . S
O32 C37 1.259 . S
Co33 O34 2.061 . S
Co33 O39 2.052 . S
Co33 O41 2.135 . S
O34 Co33 2.061 . S
O34 C37 1.235 . S
C35 O38 1.238 . S
C35 O39 1.241 . S
C36 O29 1.247 . S
C36 O30 1.261 . S
C37 O32 1.259 . S
C37 O34 1.235 . S
O38 Co28 2.021 . S
O38 C35 1.238 . S
O39 Co33 2.052 . S
O39 C35 1.241 . S
O40 Co28 2.137 . S
O40 C31 1.247 . S
O41 Co28 2.244 . S
O41 C31 1.272 . S
O41 Co33 2.135 . S
Co42 O43 2.216 . S
Co42 O44 2.091 . S
Co42 O46 2.004 . S
Co42 O52 2.021 . S
Co42 O54 2.137 . S
Co42 O55 2.244 . S
O43 Co42 2.216 . S
O43 C50 1.247 . S
O44 Co42 2.091 . S
O44 C50 1.261 . S
C45 O54 1.247 . S
C45 O55 1.272 . S
O46 Co42 2.004 . S
O46 C51 1.259 . S
Co47 O48 2.061 . S
Co47 O53 2.052 . S
Co47 O55 2.135 . S
O48 Co47 2.061 . S
O48 C51 1.235 . S
C49 O52 1.238 . S
C49 O53 1.241 . S
C50 O43 1.247 . S
C50 O44 1.261 . S
C51 O46 1.259 . S
C51 O48 1.235 . S
O52 Co42 2.021 . S
O52 C49 1.238 . S
O53 Co47 2.052 . S
O53 C49 1.241 . S
O54 Co42 2.137 . S
O54 C45 1.247 . S
O55 Co42 2.244 . S
O55 C45 1.272 . S
O55 Co47 2.135 . S
Co56 O57 2.216 1_655 S
Co56 O58 2.091 . S
Co56 O60 2.004 . S
Co56 O66 2.021 1_655 S
Co56 O68 2.137 . S
Co56 O69 2.244 1_655 S
O57 Co56 2.216 1_455 S
O57 C64 1.247 1_455 S
O58 Co56 2.091 . S
O58 C64 1.261 . S
C59 O68 1.247 1_455 S
C59 O69 1.272 . S
O60 Co56 2.004 . S
O60 C65 1.259 . S
Co61 O62 2.061 . S
Co61 O67 2.052 . S
Co61 O69 2.135 . S
O62 Co61 2.061 . S
O62 C65 1.235 1_455 S
C63 O66 1.238 . S
C63 O67 1.241 . S
C64 O57 1.247 1_655 S
C64 O58 1.261 . S
C65 O60 1.259 . S
C65 O62 1.235 1_655 S
O66 Co56 2.021 1_455 S
O66 C63 1.238 . S
O67 Co61 2.052 . S
O67 C63 1.241 . S
O68 Co56 2.137 . S
O68 C59 1.247 1_655 S
O69 Co56 2.244 1_455 S
O69 C59 1.272 . S
O69 Co61 2.135 . S
Co70 O71 2.216 . S
Co70 O72 2.091 . S
Co70 O74 2.004 . S
Co70 O80 2.021 . S
Co70 O82 2.137 . S
Co70 O83 2.244 . S
O71 Co70 2.216 . S
O71 C78 1.247 . S
O72 Co70 2.091 . S
O72 C78 1.261 . S
C73 O82 1.247 . S
C73 O83 1.272 . S
O74 Co70 2.004 . S
O74 C79 1.259 . S
Co75 O76 2.061 . S
Co75 O81 2.052 . S
Co75 O83 2.135 . S
O76 Co75 2.061 . S
O76 C79 1.235 . S
C77 O80 1.238 . S
C77 O81 1.241 . S
C78 O71 1.247 . S
C78 O72 1.261 . S
C79 O74 1.259 . S
C79 O76 1.235 . S
O80 Co70 2.021 . S
O80 C77 1.238 . S
O81 Co75 2.052 . S
O81 C77 1.241 . S
O82 Co70 2.137 . S
O82 C73 1.247 . S
O83 Co70 2.244 . S
O83 C73 1.272 . S
O83 Co75 2.135 . S
Co84 O85 2.216 . S
Co84 O86 2.091 . S
Co84 O88 2.004 . S
Co84 O94 2.021 . S
Co84 O96 2.137 . S
Co84 O97 2.244 . S
O85 Co84 2.216 . S
O85 C92 1.247 . S
O86 Co84 2.091 . S
O86 C92 1.261 . S
C87 O96 1.247 . S
C87 O97 1.272 . S
O88 Co84 2.004 . S
O88 C93 1.259 . S
Co89 O90 2.061 . S
Co89 O95 2.052 . S
Co89 O97 2.135 . S
O90 Co89 2.061 . S
O90 C93 1.235 . S
C91 O94 1.238 . S
C91 O95 1.241 . S
C92 O85 1.247 . S
C92 O86 1.261 . S
C93 O88 1.259 . S
C93 O90 1.235 . S
O94 Co84 2.021 . S
O94 C91 1.238 . S
O95 Co89 2.052 . S
O95 C91 1.241 . S
O96 Co84 2.137 . S
O96 C87 1.247 . S
O97 Co84 2.244 . S
O97 C87 1.272 . S
O97 Co89 2.135 . S
Co98 O99 2.216 . S
Co98 O100 2.091 . S
Co98 O102 2.004 1_655 S
Co98 O108 2.021 1_655 S
Co98 O110 2.137 . S
Co98 O111 2.244 . S
O99 Co98 2.216 . S
O99 C106 1.247 . S
O100 Co98 2.091 . S
O100 C106 1.261 . S
C101 O110 1.247 . S
C101 O111 1.272 . S
O102 Co98 2.004 1_455 S
O102 C107 1.259 . S
Co103 O104 2.061 . S
Co103 O109 2.052 . S
Co103 O111 2.135 1_455 S
O104 Co103 2.061 . S
O104 C107 1.235 . S
C105 O108 1.238 . S
C105 O109 1.241 . S
C106 O99 1.247 . S
C106 O100 1.261 . S
C107 O102 1.259 . S
C107 O104 1.235 . S
O108 Co98 2.021 1_455 S
O108 C105 1.238 . S
O109 Co103 2.052 . S
O109 C105 1.241 . S
O110 Co98 2.137 . S
O110 C101 1.247 . S
O111 Co98 2.244 . S
O111 C101 1.272 . S
O111 Co103 2.135 1_655 S
Co112 O113 2.216 1_565 S
Co112 O114 2.091 . S
Co112 O116 2.004 . S
Co112 O122 2.021 1_565 S
Co112 O124 2.137 . S
Co112 O125 2.244 1_565 S
O113 Co112 2.216 1_545 S
O113 C120 1.247 1_545 S
O114 Co112 2.091 . S
O114 C120 1.261 . S
C115 O124 1.247 1_545 S
C115 O125 1.272 . S
O116 Co112 2.004 . S
O116 C121 1.259 . S
Co117 O118 2.061 . S
Co117 O123 2.052 . S
Co117 O125 2.135 . S
O118 Co117 2.061 . S
O118 C121 1.235 1_545 S
C119 O122 1.238 . S
C119 O123 1.241 . S
C120 O113 1.247 1_565 S
C120 O114 1.261 . S
C121 O116 1.259 . S
C121 O118 1.235 1_565 S
O122 Co112 2.021 1_545 S
O122 C119 1.238 . S
O123 Co117 2.052 . S
O123 C119 1.241 . S
O124 Co112 2.137 . S
O124 C115 1.247 1_565 S
O125 Co112 2.244 1_545 S
O125 C115 1.272 . S
O125 Co117 2.135 . S
Co126 O127 2.216 . S
Co126 O128 2.091 . S
Co126 O130 2.004 . S
Co126 O136 2.021 . S
Co126 O138 2.137 . S
Co126 O139 2.244 . S
O127 Co126 2.216 . S
O127 C134 1.247 . S
O128 Co126 2.091 . S
O128 C134 1.261 . S
C129 O138 1.247 . S
C129 O139 1.272 . S
O130 Co126 2.004 . S
O130 C135 1.259 . S
Co131 O132 2.061 . S
Co131 O137 2.052 . S
Co131 O139 2.135 . S
O132 Co131 2.061 . S
O132 C135 1.235 . S
C133 O136 1.238 . S
C133 O137 1.241 . S
C134 O127 1.247 . S
C134 O128 1.261 . S
C135 O130 1.259 . S
C135 O132 1.235 . S
O136 Co126 2.021 . S
O136 C133 1.238 . S
O137 Co131 2.052 . S
O137 C133 1.241 . S
O138 Co126 2.137 . S
O138 C129 1.247 . S
O139 Co126 2.244 . S
O139 C129 1.272 . S
O139 Co131 2.135 . S
Co140 O141 2.216 1_565 S
Co140 O142 2.091 . S
Co140 O144 2.004 . S
Co140 O150 2.021 1_565 S
Co140 O152 2.137 . S
Co140 O153 2.244 1_565 S
O141 Co140 2.216 1_545 S
O141 C148 1.247 1_545 S
O142 Co140 2.091 . S
O142 C148 1.261 . S
C143 O152 1.247 1_545 S
C143 O153 1.272 . S
O144 Co140 2.004 . S
O144 C149 1.259 . S
Co145 O146 2.061 . S
Co145 O151 2.052 . S
Co145 O153 2.135 . S
O146 Co145 2.061 . S
O146 C149 1.235 1_545 S
C147 O150 1.238 . S
C147 O151 1.241 . S
C148 O141 1.247 1_565 S
C148 O142 1.261 . S
C149 O144 1.259 . S
C149 O146 1.235 1_565 S
O150 Co140 2.021 1_545 S
O150 C147 1.238 . S
O151 Co145 2.052 . S
O151 C147 1.241 . S
O152 Co140 2.137 . S
O152 C143 1.247 1_565 S
O153 Co140 2.244 1_545 S
O153 C143 1.272 . S
O153 Co145 2.135 . S
Co154 O155 2.216 . S
Co154 O156 2.091 . S
Co154 O158 2.004 1_554 S
Co154 O164 2.021 1_554 S
Co154 O166 2.137 . S
Co154 O167 2.244 . S
O155 Co154 2.216 . S
O155 C162 1.247 . S
O156 Co154 2.091 . S
O156 C162 1.261 . S
C157 O166 1.247 . S
C157 O167 1.272 . S
O158 Co154 2.004 1_556 S
O158 C163 1.259 . S
Co159 O160 2.061 . S
Co159 O165 2.052 . S
Co159 O167 2.135 1_556 S
O160 Co159 2.061 . S
O160 C163 1.235 . S
C161 O164 1.238 . S
C161 O165 1.241 . S
C162 O155 1.247 . S
C162 O156 1.261 . S
C163 O158 1.259 . S
C163 O160 1.235 . S
O164 Co154 2.021 1_556 S
O164 C161 1.238 . S
O165 Co159 2.052 . S
O165 C161 1.241 . S
O166 Co154 2.137 . S
O166 C157 1.247 . S
O167 Co154 2.244 . S
O167 C157 1.272 . S
O167 Co159 2.135 1_554 S
Co168 O169 2.216 1_556 S
Co168 O170 2.091 . S
Co168 O172 2.004 . S
Co168 O178 2.021 1_556 S
Co168 O180 2.137 . S
Co168 O181 2.244 1_556 S
O169 Co168 2.216 1_554 S
O169 C176 1.247 1_554 S
O170 Co168 2.091 . S
O170 C176 1.261 . S
C171 O180 1.247 1_554 S
C171 O181 1.272 . S
O172 Co168 2.004 . S
O172 C177 1.259 . S
Co173 O174 2.061 . S
Co173 O179 2.052 . S
Co173 O181 2.135 . S
O174 Co173 2.061 . S
O174 C177 1.235 1_554 S
C175 O178 1.238 . S
C175 O179 1.241 . S
C176 O169 1.247 1_556 S
C176 O170 1.261 . S
C177 O172 1.259 . S
C177 O174 1.235 1_556 S
O178 Co168 2.021 1_554 S
O178 C175 1.238 . S
O179 Co173 2.052 . S
O179 C175 1.241 . S
O180 Co168 2.137 . S
O180 C171 1.247 1_556 S
O181 Co168 2.244 1_554 S
O181 C171 1.272 . S
O181 Co173 2.135 . S
Co182 O183 2.216 1_556 S
Co182 O184 2.091 . S
Co182 O186 2.004 . S
Co182 O192 2.021 1_556 S
Co182 O194 2.137 . S
Co182 O195 2.244 1_556 S
O183 Co182 2.216 1_554 S
O183 C190 1.247 1_554 S
O184 Co182 2.091 . S
O184 C190 1.261 . S
C185 O194 1.247 1_554 S
C185 O195 1.272 . S
O186 Co182 2.004 . S
O186 C191 1.259 . S
Co187 O188 2.061 . S
Co187 O193 2.052 . S
Co187 O195 2.135 . S
O188 Co187 2.061 . S
O188 C191 1.235 1_554 S
C189 O192 1.238 . S
C189 O193 1.241 . S
C190 O183 1.247 1_556 S
C190 O184 1.261 . S
C191 O186 1.259 . S
C191 O188 1.235 1_556 S
O192 Co182 2.021 1_554 S
O192 C189 1.238 . S
O193 Co187 2.052 . S
O193 C189 1.241 . S
O194 Co182 2.137 . S
O194 C185 1.247 1_556 S
O195 Co182 2.244 1_554 S
O195 C185 1.272 . S
O195 Co187 2.135 . S
Co196 O197 2.216 . S
Co196 O198 2.091 . S
Co196 O200 2.004 . S
Co196 O206 2.021 . S
Co196 O208 2.137 . S
Co196 O209 2.244 . S
O197 Co196 2.216 . S
O197 C204 1.247 . S
O198 Co196 2.091 . S
O198 C204 1.261 . S
C199 O208 1.247 . S
C199 O209 1.272 . S
O200 Co196 2.004 . S
O200 C205 1.259 . S
Co201 O202 2.061 . S
Co201 O207 2.052 . S
Co201 O209 2.135 . S
O202 Co201 2.061 . S
O202 C205 1.235 . S
C203 O206 1.238 . S
C203 O207 1.241 . S
C204 O197 1.247 . S
C204 O198 1.261 . S
C205 O200 1.259 . S
C205 O202 1.235 . S
O206 Co196 2.021 . S
O206 C203 1.238 . S
O207 Co201 2.052 . S
O207 C203 1.241 . S
O208 Co196 2.137 . S
O208 C199 1.247 . S
O209 Co196 2.244 . S
O209 C199 1.272 . S
O209 Co201 2.135 . S
Co210 O211 2.216 . S
Co210 O212 2.091 . S
Co210 O214 2.004 . S
Co210 O220 2.021 . S
Co210 O222 2.137 . S
Co210 O223 2.244 . S
O211 Co210 2.216 . S
O211 C218 1.247 . S
O212 Co210 2.091 . S
O212 C218 1.261 . S
C213 O222 1.247 . S
C213 O223 1.272 . S
O214 Co210 2.004 . S
O214 C219 1.259 . S
Co215 O216 2.061 . S
Co215 O221 2.052 . S
Co215 O223 2.135 . S
O216 Co215 2.061 . S
O216 C219 1.235 . S
C217 O220 1.238 . S
C217 O221 1.241 . S
C218 O211 1.247 . S
C218 O212 1.261 . S
C219 O214 1.259 . S
C219 O216 1.235 . S
O220 Co210 2.021 . S
O220 C217 1.238 . S
O221 Co215 2.052 . S
O221 C217 1.241 . S
O222 Co210 2.137 . S
O222 C213 1.247 . S
O223 Co210 2.244 . S
O223 C213 1.272 . S
O223 Co215 2.135 . S
Co224 O225 2.196 1_545 S
Co224 O226 2.080 1_545 S
Co224 O228 2.023 . S
Co224 O234 2.042 . S
Co224 O236 2.115 1_545 S
Co224 O237 2.241 1_545 S
O225 Co224 2.196 1_565 S
O225 C232 1.247 . S
O226 Co224 2.080 1_565 S
O226 C232 1.261 . S
C227 O236 1.247 . S
C227 O237 1.272 . S
O228 Co224 2.023 . S
O228 C233 1.259 . S
Co229 O230 2.061 . S
Co229 O235 2.052 . S
Co229 O237 2.135 1_545 S
O230 Co229 2.061 . S
O230 C233 1.235 . S
C231 O234 1.238 . S
C231 O235 1.241 . S
C232 O225 1.247 . S
C232 O226 1.261 . S
C233 O228 1.259 . S
C233 O230 1.235 . S
O234 Co224 2.042 . S
O234 C231 1.238 . S
O235 Co229 2.052 . S
O235 C231 1.241 . S
O236 Co224 2.115 1_565 S
O236 C227 1.247 . S
O237 Co224 2.241 1_565 S
O237 C227 1.272 . S
O237 Co229 2.135 1_565 S
Co238 O239 2.216 . S
Co238 O240 2.091 . S
Co238 O242 2.004 . S
Co238 O248 2.021 . S
Co238 O250 2.137 . S
Co238 O251 2.244 . S
O239 Co238 2.216 . S
O239 C246 1.247 . S
O240 Co238 2.091 . S
O240 C246 1.261 . S
C241 O250 1.247 . S
C241 O251 1.272 . S
O242 Co238 2.004 . S
O242 C247 1.259 . S
Co243 O244 2.061 . S
Co243 O249 2.052 . S
Co243 O251 2.135 . S
O244 Co243 2.061 . S
O244 C247 1.235 . S
C245 O248 1.238 . S
C245 O249 1.241 . S
C246 O239 1.247 . S
C246 O240 1.261 . S
C247 O242 1.259 . S
C247 O244 1.235 . S
O248 Co238 2.021 . S
O248 C245 1.238 . S
O249 Co243 2.052 . S
O249 C245 1.241 . S
O250 Co238 2.137 . S
O250 C241 1.247 . S
O251 Co238 2.244 . S
O251 C241 1.272 . S
O251 Co243 2.135 . S
Co252 O253 2.216 . S
Co252 O254 2.091 . S
Co252 O256 2.004 . S
Co252 O262 2.021 . S
Co252 O264 2.137 . S
Co252 O265 2.244 . S
O253 Co252 2.216 . S
O253 C260 1.247 . S
O254 Co252 2.091 . S
O254 C260 1.261 . S
C255 O264 1.247 . S
C255 O265 1.272 . S
O256 Co252 2.004 . S
O256 C261 1.259 . S
Co257 O258 2.061 . S
Co257 O263 2.052 . S
Co257 O265 2.135 . S
O258 Co257 2.061 . S
O258 C261 1.235 . S
C259 O262 1.238 . S
C259 O263 1.241 . S
C260 O253 1.247 . S
C260 O254 1.261 . S
C261 O256 1.259 . S
C261 O258 1.235 . S
O262 Co252 2.021 . S
O262 C259 1.238 . S
O263 Co257 2.052 . S
O263 C259 1.241 . S
O264 Co252 2.137 . S
O264 C255 1.247 . S
O265 Co252 2.244 . S
O265 C255 1.272 . S
O265 Co257 2.135 . S
Co266 O267 2.216 . S
Co266 O268 2.091 . S
Co266 O270 2.004 1_565 S
Co266 O276 2.021 1_565 S
Co266 O278 2.137 . S
Co266 O279 2.244 . S
O267 Co266 2.216 . S
O267 C274 1.247 . S
O268 Co266 2.091 . S
O268 C274 1.261 . S
C269 O278 1.247 . S
C269 O279 1.272 . S
O270 Co266 2.004 1_545 S
O270 C275 1.259 . S
Co271 O272 2.061 . S
Co271 O277 2.052 . S
Co271 O279 2.135 1_545 S
O272 Co271 2.061 . S
O272 C275 1.235 . S
C273 O276 1.238 . S
C273 O277 1.241 . S
C274 O267 1.247 . S
C274 O268 1.261 . S
C275 O270 1.259 . S
C275 O272 1.235 . S
O276 Co266 2.021 1_545 S
O276 C273 1.238 . S
O277 Co271 2.052 . S
O277 C273 1.241 . S
O278 Co266 2.137 . S
O278 C269 1.247 . S
O279 Co266 2.244 . S
O279 C269 1.272 . S
O279 Co271 2.135 1_565 S
Co280 O281 2.216 . S
Co280 O282 2.091 . S
Co280 O284 2.004 1_554 S
Co280 O290 2.021 1_554 S
Co280 O292 2.137 . S
Co280 O293 2.244 . S
O281 Co280 2.216 . S
O281 C288 1.247 . S
O282 Co280 2.091 . S
O282 C288 1.261 . S
C283 O292 1.247 . S
C283 O293 1.272 . S
O284 Co280 2.004 1_556 S
O284 C289 1.259 . S
Co285 O286 2.061 . S
Co285 O291 2.052 . S
Co285 O293 2.135 1_556 S
O286 Co285 2.061 . S
O286 C289 1.235 . S
C287 O290 1.238 . S
C287 O291 1.241 . S
C288 O281 1.247 . S
C288 O282 1.261 . S
C289 O284 1.259 . S
C289 O286 1.235 . S
O290 Co280 2.021 1_556 S
O290 C287 1.238 . S
O291 Co285 2.052 . S
O291 C287 1.241 . S
O292 Co280 2.137 . S
O292 C283 1.247 . S
O293 Co280 2.244 . S
O293 C283 1.272 . S
O293 Co285 2.135 1_554 S
Co294 O295 2.216 . S
Co294 O296 2.091 . S
Co294 O298 2.004 . S
Co294 O304 2.021 . S
Co294 O306 2.137 . S
Co294 O307 2.244 . S
O295 Co294 2.216 . S
O295 C302 1.247 . S
O296 Co294 2.091 . S
O296 C302 1.261 . S
C297 O306 1.247 . S
C297 O307 1.272 . S
O298 Co294 2.004 . S
O298 C303 1.259 . S
Co299 O300 2.061 . S
Co299 O305 2.052 . S
Co299 O307 2.135 . S
O300 Co299 2.061 . S
O300 C303 1.235 . S
C301 O304 1.238 . S
C301 O305 1.241 . S
C302 O295 1.247 . S
C302 O296 1.261 . S
C303 O298 1.259 . S
C303 O300 1.235 . S
O304 Co294 2.021 . S
O304 C301 1.238 . S
O305 Co299 2.052 . S
O305 C301 1.241 . S
O306 Co294 2.137 . S
O306 C297 1.247 . S
O307 Co294 2.244 . S
O307 C297 1.272 . S
O307 Co299 2.135 . S
Co308 O309 2.216 . S
Co308 O310 2.091 . S
Co308 O312 2.004 . S
Co308 O318 2.021 . S
Co308 O320 2.137 . S
Co308 O321 2.244 . S
O309 Co308 2.216 . S
O309 C316 1.247 . S
O310 Co308 2.091 . S
O310 C316 1.261 . S
C311 O320 1.247 . S
C311 O321 1.272 . S
O312 Co308 2.004 . S
O312 C317 1.259 . S
Co313 O314 2.061 . S
Co313 O319 2.052 . S
Co313 O321 2.135 . S
O314 Co313 2.061 . S
O314 C317 1.235 . S
C315 O318 1.238 . S
C315 O319 1.241 . S
C316 O309 1.247 . S
C316 O310 1.261 . S
C317 O312 1.259 . S
C317 O314 1.235 . S
O318 Co308 2.021 . S
O318 C315 1.238 . S
O319 Co313 2.052 . S
O319 C315 1.241 . S
O320 Co308 2.137 . S
O320 C311 1.247 . S
O321 Co308 2.244 . S
O321 C311 1.272 . S
O321 Co313 2.135 . S
Co322 O323 2.216 . S
Co322 O324 2.091 . S
Co322 O326 2.004 . S
Co322 O332 2.021 . S
Co322 O334 2.137 . S
Co322 O335 2.244 . S
O323 Co322 2.216 . S
O323 C330 1.247 . S
O324 Co322 2.091 . S
O324 C330 1.261 . S
C325 O334 1.247 . S
C325 O335 1.272 . S
O326 Co322 2.004 . S
O326 C331 1.259 . S
Co327 O328 2.061 . S
Co327 O333 2.052 . S
Co327 O335 2.135 . S
O328 Co327 2.061 . S
O328 C331 1.235 . S
C329 O332 1.238 . S
C329 O333 1.241 . S
C330 O323 1.247 . S
C330 O324 1.261 . S
C331 O326 1.259 . S
C331 O328 1.235 . S
O332 Co322 2.021 . S
O332 C329 1.238 . S
O333 Co327 2.052 . S
O333 C329 1.241 . S
O334 Co322 2.137 . S
O334 C325 1.247 . S
O335 Co322 2.244 . S
O335 C325 1.272 . S
O335 Co327 2.135 . S
Fe336 O338 1.918 . S
Fe336 O341 1.997 . S
Fe336 O342 2.002 . S
Fe336 O347 1.976 . S
Fe336 O350 1.996 . S
Fe337 O338 1.918 . S
Fe337 O345 1.997 . S
Fe337 O348 1.996 . S
Fe337 O352 1.976 . S
Fe337 O355 2.002 . S
O338 Fe336 1.918 . S
O338 Fe337 1.918 . S
O338 Fe339 1.918 . S
Fe339 O338 1.918 . S
Fe339 O340 2.002 . S
Fe339 O349 1.976 . S
Fe339 O353 1.996 . S
Fe339 O356 1.997 . S
O340 Fe339 2.002 . S
O340 C357 1.295 . S
O341 Fe336 1.997 . S
O341 C357 1.235 . S
O342 Fe336 2.002 . S
O342 C343 1.295 . S
C343 O342 1.295 . S
C343 O345 1.235 . S
C344 O349 1.287 . S
C344 O350 1.255 . S
O345 Fe337 1.997 . S
O345 C343 1.235 . S
C346 O352 1.287 . S
C346 O353 1.255 . S
O347 Fe336 1.976 . S
O347 C354 1.287 . S
O348 Fe337 1.996 . S
O348 C354 1.255 . S
O349 Fe339 1.976 . S
O349 C344 1.287 . S
O350 Fe336 1.996 . S
O350 C344 1.255 . S
C351 O355 1.295 . S
C351 O356 1.235 . S
O352 Fe337 1.976 . S
O352 C346 1.287 . S
O353 Fe339 1.996 . S
O353 C346 1.255 . S
C354 O347 1.287 . S
C354 O348 1.255 . S
O355 Fe337 2.002 . S
O355 C351 1.295 . S
O356 Fe339 1.997 . S
O356 C351 1.235 . S
C357 O340 1.295 . S
C357 O341 1.235 . S
Fe358 O360 1.918 . S
Fe358 O363 1.997 . S
Fe358 O364 2.002 . S
Fe358 O369 1.976 . S
Fe358 O372 1.996 . S
Fe359 O360 1.918 . S
Fe359 O367 1.997 . S
Fe359 O370 1.996 . S
Fe359 O374 1.976 . S
Fe359 O377 2.002 . S
O360 Fe358 1.918 . S
O360 Fe359 1.918 . S
O360 Fe361 1.918 . S
Fe361 O360 1.918 . S
Fe361 O362 2.002 . S
Fe361 O371 1.976 . S
Fe361 O375 1.996 . S
Fe361 O378 1.997 . S
O362 Fe361 2.002 . S
O362 C379 1.295 . S
O363 Fe358 1.997 . S
O363 C379 1.235 . S
O364 Fe358 2.002 . S
O364 C365 1.295 . S
C365 O364 1.295 . S
C365 O367 1.235 . S
C366 O371 1.287 . S
C366 O372 1.255 . S
O367 Fe359 1.997 . S
O367 C365 1.235 . S
C368 O374 1.287 . S
C368 O375 1.255 . S
O369 Fe358 1.976 . S
O369 C376 1.287 . S
O370 Fe359 1.996 . S
O370 C376 1.255 . S
O371 Fe361 1.976 . S
O371 C366 1.287 . S
O372 Fe358 1.996 . S
O372 C366 1.255 . S
C373 O377 1.295 . S
C373 O378 1.235 . S
O374 Fe359 1.976 . S
O374 C368 1.287 . S
O375 Fe361 1.996 . S
O375 C368 1.255 . S
C376 O369 1.287 . S
C376 O370 1.255 . S
O377 Fe359 2.002 . S
O377 C373 1.295 . S
O378 Fe361 1.997 . S
O378 C373 1.235 . S
C379 O362 1.295 . S
C379 O363 1.235 . S
Fe380 O382 1.918 . S
Fe380 O385 1.997 . S
Fe380 O386 2.002 . S
Fe380 O391 1.976 . S
Fe380 O394 1.996 . S
Fe381 O382 1.918 . S
Fe381 O389 1.997 . S
Fe381 O392 1.996 . S
Fe381 O396 1.976 . S
Fe381 O399 2.002 . S
O382 Fe380 1.918 . S
O382 Fe381 1.918 . S
O382 Fe383 1.918 . S
Fe383 O382 1.918 . S
Fe383 O384 2.002 . S
Fe383 O393 1.976 . S
Fe383 O397 1.996 . S
Fe383 O400 1.997 . S
O384 Fe383 2.002 . S
O384 C401 1.295 . S
O385 Fe380 1.997 . S
O385 C401 1.235 . S
O386 Fe380 2.002 . S
O386 C387 1.295 . S
C387 O386 1.295 . S
C387 O389 1.235 . S
C388 O393 1.287 . S
C388 O394 1.255 . S
O389 Fe381 1.997 . S
O389 C387 1.235 . S
C390 O396 1.287 . S
C390 O397 1.255 . S
O391 Fe380 1.976 . S
O391 C398 1.287 . S
O392 Fe381 1.996 . S
O392 C398 1.255 . S
O393 Fe383 1.976 . S
O393 C388 1.287 . S
O394 Fe380 1.996 . S
O394 C388 1.255 . S
C395 O399 1.295 . S
C395 O400 1.235 . S
O396 Fe381 1.976 . S
O396 C390 1.287 . S
O397 Fe383 1.996 . S
O397 C390 1.255 . S
C398 O391 1.287 . S
C398 O392 1.255 . S
O399 Fe381 2.002 . S
O399 C395 1.295 . S
O400 Fe383 1.997 . S
O400 C395 1.235 . S
C401 O384 1.295 . S
C401 O385 1.235 . S
Fe402 O404 1.918 . S
Fe402 O407 1.997 . S
Fe402 O408 2.002 . S
Fe402 O413 1.976 . S
Fe402 O416 1.996 . S
Fe403 O404 1.918 . S
Fe403 O411 1.997 . S
Fe403 O414 1.996 . S
Fe403 O418 1.976 . S
Fe403 O421 2.002 . S
O404 Fe402 1.918 . S
O404 Fe403 1.918 . S
O404 Fe405 1.918 . S
Fe405 O404 1.918 . S
Fe405 O406 2.002 . S
Fe405 O415 1.976 . S
Fe405 O419 1.996 . S
Fe405 O422 1.997 . S
O406 Fe405 2.002 . S
O406 C423 1.295 . S
O407 Fe402 1.997 . S
O407 C423 1.235 . S
O408 Fe402 2.002 . S
O408 C409 1.295 . S
C409 O408 1.295 . S
C409 O411 1.235 . S
C410 O415 1.287 . S
C410 O416 1.255 . S
O411 Fe403 1.997 . S
O411 C409 1.235 . S
C412 O418 1.287 . S
C412 O419 1.255 . S
O413 Fe402 1.976 . S
O413 C420 1.287 . S
O414 Fe403 1.996 . S
O414 C420 1.255 . S
O415 Fe405 1.976 . S
O415 C410 1.287 . S
O416 Fe402 1.996 . S
O416 C410 1.255 . S
C417 O421 1.295 . S
C417 O422 1.235 . S
O418 Fe403 1.976 . S
O418 C412 1.287 . S
O419 Fe405 1.996 . S
O419 C412 1.255 . S
C420 O413 1.287 . S
C420 O414 1.255 . S
O421 Fe403 2.002 . S
O421 C417 1.295 . S
O422 Fe405 1.997 . S
O422 C417 1.235 . S
C423 O406 1.295 . S
C423 O407 1.235 . S
Fe424 O426 1.918 . S
Fe424 O429 1.997 . S
Fe424 O430 2.002 . S
Fe424 O435 1.976 . S
Fe424 O438 1.996 . S
Fe425 O426 1.918 . S
Fe425 O433 1.997 . S
Fe425 O436 1.996 . S
Fe425 O440 1.976 . S
Fe425 O443 2.002 . S
O426 Fe424 1.918 . S
O426 Fe425 1.918 . S
O426 Fe427 1.918 . S
Fe427 O426 1.918 . S
Fe427 O428 2.002 . S
Fe427 O437 1.976 . S
Fe427 O441 1.996 . S
Fe427 O444 1.997 . S
O428 Fe427 2.002 . S
O428 C445 1.295 . S
O429 Fe424 1.997 . S
O429 C445 1.235 . S
O430 Fe424 2.002 . S
O430 C431 1.295 . S
C431 O430 1.295 . S
C431 O433 1.235 . S
C432 O437 1.287 . S
C432 O438 1.255 . S
O433 Fe425 1.997 . S
O433 C431 1.235 . S
C434 O440 1.287 . S
C434 O441 1.255 . S
O435 Fe424 1.976 . S
O435 C442 1.287 . S
O436 Fe425 1.996 . S
O436 C442 1.255 . S
O437 Fe427 1.976 . S
O437 C432 1.287 . S
O438 Fe424 1.996 . S
O438 C432 1.255 . S
C439 O443 1.295 . S
C439 O444 1.235 . S
O440 Fe425 1.976 . S
O440 C434 1.287 . S
O441 Fe427 1.996 . S
O441 C434 1.255 . S
C442 O435 1.287 . S
C442 O436 1.255 . S
O443 Fe425 2.002 . S
O443 C439 1.295 . S
O444 Fe427 1.997 . S
O444 C439 1.235 . S
C445 O428 1.295 . S
C445 O429 1.235 . S
Fe446 O448 1.918 . S
Fe446 O451 1.997 . S
Fe446 O452 2.002 . S
Fe446 O457 1.976 . S
Fe446 O460 1.996 . S
Fe447 O448 1.918 . S
Fe447 O455 1.997 . S
Fe447 O458 1.996 . S
Fe447 O462 1.976 . S
Fe447 O465 2.002 . S
O448 Fe446 1.918 . S
O448 Fe447 1.918 . S
O448 Fe449 1.918 . S
Fe449 O448 1.918 . S
Fe449 O450 2.002 . S
Fe449 O459 1.976 . S
Fe449 O463 1.996 . S
Fe449 O466 1.997 . S
O450 Fe449 2.002 . S
O450 C467 1.295 . S
O451 Fe446 1.997 . S
O451 C467 1.235 . S
O452 Fe446 2.002 . S
O452 C453 1.295 . S
C453 O452 1.295 . S
C453 O455 1.235 . S
C454 O459 1.287 . S
C454 O460 1.255 . S
O455 Fe447 1.997 . S
O455 C453 1.235 . S
C456 O462 1.287 . S
C456 O463 1.255 . S
O457 Fe446 1.976 . S
O457 C464 1.287 . S
O458 Fe447 1.996 . S
O458 C464 1.255 . S
O459 Fe449 1.976 . S
O459 C454 1.287 . S
O460 Fe446 1.996 . S
O460 C454 1.255 . S
C461 O465 1.295 . S
C461 O466 1.235 . S
O462 Fe447 1.976 . S
O462 C456 1.287 . S
O463 Fe449 1.996 . S
O463 C456 1.255 . S
C464 O457 1.287 . S
C464 O458 1.255 . S
O465 Fe447 2.002 . S
O465 C461 1.295 . S
O466 Fe449 1.997 . S
O466 C461 1.235 . S
C467 O450 1.295 . S
C467 O451 1.235 . S
Fe468 O470 1.918 . S
Fe468 O473 1.997 . S
Fe468 O474 2.002 . S
Fe468 O479 1.976 . S
Fe468 O482 1.996 . S
Fe469 O470 1.918 . S
Fe469 O477 1.997 . S
Fe469 O480 1.996 . S
Fe469 O484 1.976 . S
Fe469 O487 2.002 . S
O470 Fe468 1.918 . S
O470 Fe469 1.918 . S
O470 Fe471 1.918 . S
Fe471 O470 1.918 . S
Fe471 O472 2.002 . S
Fe471 O481 1.976 . S
Fe471 O485 1.996 . S
Fe471 O488 1.997 . S
O472 Fe471 2.002 . S
O472 C489 1.295 . S
O473 Fe468 1.997 . S
O473 C489 1.235 . S
O474 Fe468 2.002 . S
O474 C475 1.295 . S
C475 O474 1.295 . S
C475 O477 1.235 . S
C476 O481 1.287 . S
C476 O482 1.255 . S
O477 Fe469 1.997 . S
O477 C475 1.235 . S
C478 O484 1.287 . S
C478 O485 1.255 . S
O479 Fe468 1.976 . S
O479 C486 1.287 . S
O480 Fe469 1.996 . S
O480 C486 1.255 . S
O481 Fe471 1.976 . S
O481 C476 1.287 . S
O482 Fe468 1.996 . S
O482 C476 1.255 . S
C483 O487 1.295 . S
C483 O488 1.235 . S
O484 Fe469 1.976 . S
O484 C478 1.287 . S
O485 Fe471 1.996 . S
O485 C478 1.255 . S
C486 O479 1.287 . S
C486 O480 1.255 . S
O487 Fe469 2.002 . S
O487 C483 1.295 . S
O488 Fe471 1.997 . S
O488 C483 1.235 . S
C489 O472 1.295 . S
C489 O473 1.235 . S
Fe490 O492 1.918 . S
Fe490 O495 1.997 . S
Fe490 O496 2.002 . S
Fe490 O501 1.976 . S
Fe490 O504 1.996 . S
Fe491 O492 1.918 . S
Fe491 O499 1.997 . S
Fe491 O502 1.996 . S
Fe491 O506 1.976 . S
Fe491 O509 2.002 . S
O492 Fe490 1.918 . S
O492 Fe491 1.918 . S
O492 Fe493 1.918 . S
Fe493 O492 1.918 . S
Fe493 O494 2.002 . S
Fe493 O503 1.976 . S
Fe493 O507 1.996 . S
Fe493 O510 1.997 . S
O494 Fe493 2.002 . S
O494 C511 1.295 . S
O495 Fe490 1.997 . S
O495 C511 1.235 . S
O496 Fe490 2.002 . S
O496 C497 1.295 . S
C497 O496 1.295 . S
C497 O499 1.235 . S
C498 O503 1.287 . S
C498 O504 1.255 . S
O499 Fe491 1.997 . S
O499 C497 1.235 . S
C500 O506 1.287 . S
C500 O507 1.255 . S
O501 Fe490 1.976 . S
O501 C508 1.287 . S
O502 Fe491 1.996 . S
O502 C508 1.255 . S
O503 Fe493 1.976 . S
O503 C498 1.287 . S
O504 Fe490 1.996 . S
O504 C498 1.255 . S
C505 O509 1.295 . S
C505 O510 1.235 . S
O506 Fe491 1.976 . S
O506 C500 1.287 . S
O507 Fe493 1.996 . S
O507 C500 1.255 . S
C508 O501 1.287 . S
C508 O502 1.255 . S
O509 Fe491 2.002 . S
O509 C505 1.295 . S
O510 Fe493 1.997 . S
O510 C505 1.235 . S
C511 O494 1.295 . S
C511 O495 1.235 . S
Fe512 O514 1.918 . S
Fe512 O517 1.997 . S
Fe512 O518 2.002 . S
Fe512 O523 1.976 . S
Fe512 O526 1.996 . S
Fe513 O514 1.918 . S
Fe513 O521 1.997 . S
Fe513 O524 1.996 . S
Fe513 O528 1.976 . S
Fe513 O531 2.002 . S
O514 Fe512 1.918 . S
O514 Fe513 1.918 . S
O514 Fe515 1.918 . S
Fe515 O514 1.918 . S
Fe515 O516 2.002 . S
Fe515 O525 1.976 . S
Fe515 O529 1.996 . S
Fe515 O532 1.997 . S
O516 Fe515 2.002 . S
O516 C533 1.295 . S
O517 Fe512 1.997 . S
O517 C533 1.235 . S
O518 Fe512 2.002 . S
O518 C519 1.295 . S
C519 O518 1.295 . S
C519 O521 1.235 . S
C520 O525 1.287 . S
C520 O526 1.255 . S
O521 Fe513 1.997 . S
O521 C519 1.235 . S
C522 O528 1.287 . S
C522 O529 1.255 . S
O523 Fe512 1.976 . S
O523 C530 1.287 . S
O524 Fe513 1.996 . S
O524 C530 1.255 . S
O525 Fe515 1.976 . S
O525 C520 1.287 . S
O526 Fe512 1.996 . S
O526 C520 1.255 . S
C527 O531 1.295 . S
C527 O532 1.235 . S
O528 Fe513 1.976 . S
O528 C522 1.287 . S
O529 Fe515 1.996 . S
O529 C522 1.255 . S
C530 O523 1.287 . S
C530 O524 1.255 . S
O531 Fe513 2.002 . S
O531 C527 1.295 . S
O532 Fe515 1.997 . S
O532 C527 1.235 . S
C533 O516 1.295 . S
C533 O517 1.235 . S
Fe534 O536 1.918 . S
Fe534 O539 1.997 . S
Fe534 O540 2.002 . S
Fe534 O545 1.976 . S
Fe534 O548 1.996 . S
Fe535 O536 1.918 . S
Fe535 O543 1.997 . S
Fe535 O546 1.996 . S
Fe535 O550 1.976 . S
Fe535 O553 2.002 . S
O536 Fe534 1.918 . S
O536 Fe535 1.918 . S
O536 Fe537 1.918 . S
Fe537 O536 1.918 . S
Fe537 O538 2.002 . S
Fe537 O547 1.976 . S
Fe537 O551 1.996 . S
Fe537 O554 1.997 . S
O538 Fe537 2.002 . S
O538 C555 1.295 . S
O539 Fe534 1.997 . S
O539 C555 1.235 . S
O540 Fe534 2.002 . S
O540 C541 1.295 . S
C541 O540 1.295 . S
C541 O543 1.235 . S
C542 O547 1.287 . S
C542 O548 1.255 . S
O543 Fe535 1.997 . S
O543 C541 1.235 . S
C544 O550 1.287 . S
C544 O551 1.255 . S
O545 Fe534 1.976 . S
O545 C552 1.287 . S
O546 Fe535 1.996 . S
O546 C552 1.255 . S
O547 Fe537 1.976 . S
O547 C542 1.287 . S
O548 Fe534 1.996 . S
O548 C542 1.255 . S
C549 O553 1.295 . S
C549 O554 1.235 . S
O550 Fe535 1.976 . S
O550 C544 1.287 . S
O551 Fe537 1.996 . S
O551 C544 1.255 . S
C552 O545 1.287 . S
C552 O546 1.255 . S
O553 Fe535 2.002 . S
O553 C549 1.295 . S
O554 Fe537 1.997 . S
O554 C549 1.235 . S
C555 O538 1.295 . S
C555 O539 1.235 . S
Fe556 O558 1.918 . S
Fe556 O561 1.997 . S
Fe556 O562 2.002 . S
Fe556 O567 1.976 . S
Fe556 O570 1.996 . S
Fe557 O558 1.918 . S
Fe557 O565 1.997 . S
Fe557 O568 1.996 . S
Fe557 O572 1.976 . S
Fe557 O575 2.002 . S
O558 Fe556 1.918 . S
O558 Fe557 1.918 . S
O558 Fe559 1.918 . S
Fe559 O558 1.918 . S
Fe559 O560 2.002 . S
Fe559 O569 1.976 . S
Fe559 O573 1.996 . S
Fe559 O576 1.997 . S
O560 Fe559 2.002 . S
O560 C577 1.295 . S
O561 Fe556 1.997 . S
O561 C577 1.235 . S
O562 Fe556 2.002 . S
O562 C563 1.295 . S
C563 O562 1.295 . S
C563 O565 1.235 . S
C564 O569 1.287 . S
C564 O570 1.255 . S
O565 Fe557 1.997 . S
O565 C563 1.235 . S
C566 O572 1.287 . S
C566 O573 1.255 . S
O567 Fe556 1.976 . S
O567 C574 1.287 . S
O568 Fe557 1.996 . S
O568 C574 1.255 . S
O569 Fe559 1.976 . S
O569 C564 1.287 . S
O570 Fe556 1.996 . S
O570 C564 1.255 . S
C571 O575 1.295 . S
C571 O576 1.235 . S
O572 Fe557 1.976 . S
O572 C566 1.287 . S
O573 Fe559 1.996 . S
O573 C566 1.255 . S
C574 O567 1.287 . S
C574 O568 1.255 . S
O575 Fe557 2.002 . S
O575 C571 1.295 . S
O576 Fe559 1.997 . S
O576 C571 1.235 . S
C577 O560 1.295 . S
C577 O561 1.235 . S
Fe578 O580 1.918 . S
Fe578 O583 1.997 . S
Fe578 O584 2.002 . S
Fe578 O589 1.976 . S
Fe578 O592 1.996 . S
Fe579 O580 1.918 . S
Fe579 O587 1.997 . S
Fe579 O590 1.996 . S
Fe579 O594 1.976 . S
Fe579 O597 2.002 . S
O580 Fe578 1.918 . S
O580 Fe579 1.918 . S
O580 Fe581 1.918 . S
Fe581 O580 1.918 . S
Fe581 O582 2.002 . S
Fe581 O591 1.976 . S
Fe581 O595 1.996 . S
Fe581 O598 1.997 . S
O582 Fe581 2.002 . S
O582 C599 1.295 . S
O583 Fe578 1.997 . S
O583 C599 1.235 . S
O584 Fe578 2.002 . S
O584 C585 1.295 . S
C585 O584 1.295 . S
C585 O587 1.235 . S
C586 O591 1.287 . S
C586 O592 1.255 . S
O587 Fe579 1.997 . S
O587 C585 1.235 . S
C588 O594 1.287 . S
C588 O595 1.255 . S
O589 Fe578 1.976 . S
O589 C596 1.287 . S
O590 Fe579 1.996 . S
O590 C596 1.255 . S
O591 Fe581 1.976 . S
O591 C586 1.287 . S
O592 Fe578 1.996 . S
O592 C586 1.255 . S
C593 O597 1.295 . S
C593 O598 1.235 . S
O594 Fe579 1.976 . S
O594 C588 1.287 . S
O595 Fe581 1.996 . S
O595 C588 1.255 . S
C596 O589 1.287 . S
C596 O590 1.255 . S
O597 Fe579 2.002 . S
O597 C593 1.295 . S
O598 Fe581 1.997 . S
O598 C593 1.235 . S
C599 O582 1.295 . S
C599 O583 1.235 . S
Fe600 O602 1.918 . S
Fe600 O605 1.997 . S
Fe600 O606 2.002 . S
Fe600 O611 1.976 . S
Fe600 O614 1.996 . S
Fe601 O602 1.918 . S
Fe601 O609 1.997 . S
Fe601 O612 1.996 . S
Fe601 O616 1.976 . S
Fe601 O619 2.002 . S
O602 Fe600 1.918 . S
O602 Fe601 1.918 . S
O602 Fe603 1.918 . S
Fe603 O602 1.918 . S
Fe603 O604 2.002 . S
Fe603 O613 1.976 . S
Fe603 O617 1.996 . S
Fe603 O620 1.997 . S
O604 Fe603 2.002 . S
O604 C621 1.295 . S
O605 Fe600 1.997 . S
O605 C621 1.235 . S
O606 Fe600 2.002 . S
O606 C607 1.295 . S
C607 O606 1.295 . S
C607 O609 1.235 . S
C608 O613 1.287 . S
C608 O614 1.255 . S
O609 Fe601 1.997 . S
O609 C607 1.235 . S
C610 O616 1.287 . S
C610 O617 1.255 . S
O611 Fe600 1.976 . S
O611 C618 1.287 . S
O612 Fe601 1.996 . S
O612 C618 1.255 . S
O613 Fe603 1.976 . S
O613 C608 1.287 . S
O614 Fe600 1.996 . S
O614 C608 1.255 . S
C615 O619 1.295 . S
C615 O620 1.235 . S
O616 Fe601 1.976 . S
O616 C610 1.287 . S
O617 Fe603 1.996 . S
O617 C610 1.255 . S
C618 O611 1.287 . S
C618 O612 1.255 . S
O619 Fe601 2.002 . S
O619 C615 1.295 . S
O620 Fe603 1.997 . S
O620 C615 1.235 . S
C621 O604 1.295 . S
C621 O605 1.235 . S
Fe622 O624 1.918 . S
Fe622 O627 1.997 . S
Fe622 O628 2.002 . S
Fe622 O633 1.976 . S
Fe622 O636 1.996 . S
Fe623 O624 1.918 . S
Fe623 O631 1.997 . S
Fe623 O634 1.996 . S
Fe623 O638 1.976 . S
Fe623 O641 2.002 . S
O624 Fe622 1.918 . S
O624 Fe623 1.918 . S
O624 Fe625 1.918 . S
Fe625 O624 1.918 . S
Fe625 O626 2.002 . S
Fe625 O635 1.976 . S
Fe625 O639 1.996 . S
Fe625 O642 1.997 . S
O626 Fe625 2.002 . S
O626 C643 1.295 . S
O627 Fe622 1.997 . S
O627 C643 1.235 . S
O628 Fe622 2.002 . S
O628 C629 1.295 . S
C629 O628 1.295 . S
C629 O631 1.235 . S
C630 O635 1.287 . S
C630 O636 1.255 . S
O631 Fe623 1.997 . S
O631 C629 1.235 . S
C632 O638 1.287 . S
C632 O639 1.255 . S
O633 Fe622 1.976 . S
O633 C640 1.287 . S
O634 Fe623 1.996 . S
O634 C640 1.255 . S
O635 Fe625 1.976 . S
O635 C630 1.287 . S
O636 Fe622 1.996 . S
O636 C630 1.255 . S
C637 O641 1.295 . S
C637 O642 1.235 . S
O638 Fe623 1.976 . S
O638 C632 1.287 . S
O639 Fe625 1.996 . S
O639 C632 1.255 . S
C640 O633 1.287 . S
C640 O634 1.255 . S
O641 Fe623 2.002 . S
O641 C637 1.295 . S
O642 Fe625 1.997 . S
O642 C637 1.235 . S
C643 O626 1.295 . S
C643 O627 1.235 . S
Fe644 O646 1.918 . S
Fe644 O649 1.997 . S
Fe644 O650 2.002 . S
Fe644 O655 1.976 . S
Fe644 O658 1.996 . S
Fe645 O646 1.918 . S
Fe645 O653 1.997 . S
Fe645 O656 1.996 . S
Fe645 O660 1.976 . S
Fe645 O663 2.002 . S
O646 Fe644 1.918 . S
O646 Fe645 1.918 . S
O646 Fe647 1.918 . S
Fe647 O646 1.918 . S
Fe647 O648 2.002 . S
Fe647 O657 1.976 . S
Fe647 O661 1.996 . S
Fe647 O664 1.997 . S
O648 Fe647 2.002 . S
O648 C665 1.295 . S
O649 Fe644 1.997 . S
O649 C665 1.235 . S
O650 Fe644 2.002 . S
O650 C651 1.295 . S
C651 O650 1.295 . S
C651 O653 1.235 . S
C652 O657 1.287 . S
C652 O658 1.255 . S
O653 Fe645 1.997 . S
O653 C651 1.235 . S
C654 O660 1.287 . S
C654 O661 1.255 . S
O655 Fe644 1.976 . S
O655 C662 1.287 . S
O656 Fe645 1.996 . S
O656 C662 1.255 . S
O657 Fe647 1.976 . S
O657 C652 1.287 . S
O658 Fe644 1.996 . S
O658 C652 1.255 . S
C659 O663 1.295 . S
C659 O664 1.235 . S
O660 Fe645 1.976 . S
O660 C654 1.287 . S
O661 Fe647 1.996 . S
O661 C654 1.255 . S
C662 O655 1.287 . S
C662 O656 1.255 . S
O663 Fe645 2.002 . S
O663 C659 1.295 . S
O664 Fe647 1.997 . S
O664 C659 1.235 . S
C665 O648 1.295 . S
C665 O649 1.235 . S
Fe666 O668 1.918 . S
Fe666 O671 1.997 . S
Fe666 O672 2.002 . S
Fe666 O677 1.976 . S
Fe666 O680 1.996 . S
Fe667 O668 1.918 . S
Fe667 O675 1.997 . S
Fe667 O678 1.996 . S
Fe667 O682 1.976 . S
Fe667 O685 2.002 . S
O668 Fe666 1.918 . S
O668 Fe667 1.918 . S
O668 Fe669 1.918 . S
Fe669 O668 1.918 . S
Fe669 O670 2.002 . S
Fe669 O679 1.976 . S
Fe669 O683 1.996 . S
Fe669 O686 1.997 . S
O670 Fe669 2.002 . S
O670 C687 1.295 . S
O671 Fe666 1.997 . S
O671 C687 1.235 . S
O672 Fe666 2.002 . S
O672 C673 1.295 . S
C673 O672 1.295 . S
C673 O675 1.235 . S
C674 O679 1.287 . S
C674 O680 1.255 . S
O675 Fe667 1.997 . S
O675 C673 1.235 . S
C676 O682 1.287 . S
C676 O683 1.255 . S
O677 Fe666 1.976 . S
O677 C684 1.287 . S
O678 Fe667 1.996 . S
O678 C684 1.255 . S
O679 Fe669 1.976 . S
O679 C674 1.287 . S
O680 Fe666 1.996 . S
O680 C674 1.255 . S
C681 O685 1.295 . S
C681 O686 1.235 . S
O682 Fe667 1.976 . S
O682 C676 1.287 . S
O683 Fe669 1.996 . S
O683 C676 1.255 . S
C684 O677 1.287 . S
C684 O678 1.255 . S
O685 Fe667 2.002 . S
O685 C681 1.295 . S
O686 Fe669 1.997 . S
O686 C681 1.235 . S
C687 O670 1.295 . S
C687 O671 1.235 . S
C688 C689 1.369 . S
C688 C690 1.419 . S
C688 H692 0.930 . S
C689 C688 1.369 . S
C689 C698 1.429 . S
C690 C688 1.419 . S
C690 C691 1.363 . S
C690 H693 0.929 . S
C691 C690 1.363 . S
C691 C697 1.428 . S
H692 C688 0.930 . S
H693 C690 0.929 . S
S694 N695 1.613 . S
S694 N696 1.610 . S
N695 S694 1.613 . S
N695 C698 1.350 . S
N696 S694 1.610 . S
N696 C697 1.351 . S
C697 C691 1.428 . S
C697 N696 1.351 . S
C697 C698 1.434 . S
C698 C689 1.429 . S
C698 N695 1.350 . S
C698 C697 1.434 . S
C699 C700 1.369 . S
C699 C701 1.419 . S
C699 H703 0.930 . S
C700 C699 1.369 . S
C700 C709 1.429 . S
C701 C699 1.419 . S
C701 C702 1.363 . S
C701 H704 0.929 . S
C702 C701 1.363 . S
C702 C708 1.428 . S
H703 C699 0.930 . S
H704 C701 0.929 . S
S705 N706 1.613 . S
S705 N707 1.610 . S
N706 S705 1.613 . S
N706 C709 1.350 . S
N707 S705 1.610 . S
N707 C708 1.351 . S
C708 C702 1.428 . S
C708 N707 1.351 . S
C708 C709 1.434 . S
C709 C700 1.429 . S
C709 N706 1.350 . S
C709 C708 1.434 . S
C710 C711 1.369 . S
C710 C712 1.419 . S
C710 H714 0.930 . S
C711 C710 1.369 . S
C711 C720 1.429 . S
C712 C710 1.419 . S
C712 C713 1.363 . S
C712 H715 0.929 . S
C713 C712 1.363 . S
C713 C719 1.428 . S
H714 C710 0.930 . S
H715 C712 0.929 . S
S716 N717 1.613 . S
S716 N718 1.610 . S
N717 S716 1.613 . S
N717 C720 1.350 . S
N718 S716 1.610 . S
N718 C719 1.351 . S
C719 C713 1.428 . S
C719 N718 1.351 . S
C719 C720 1.434 . S
C720 C711 1.429 . S
C720 N717 1.350 . S
C720 C719 1.434 . S
C721 C722 1.369 . S
C721 C723 1.419 . S
C721 H725 0.930 . S
C722 C721 1.369 . S
C722 C731 1.429 . S
C723 C721 1.419 . S
C723 C724 1.363 1_554 S
C723 H726 0.929 . S
C724 C723 1.363 1_556 S
C724 C730 1.428 1_556 S
H725 C721 0.930 . S
H726 C723 0.929 . S
S727 N728 1.613 . S
S727 N729 1.610 1_554 S
N728 S727 1.613 . S
N728 C731 1.350 . S
N729 S727 1.610 1_556 S
N729 C730 1.351 1_556 S
C730 C724 1.428 1_554 S
C730 N729 1.351 1_554 S
C730 C731 1.434 . S
C731 C722 1.429 . S
C731 N728 1.350 . S
C731 C730 1.434 . S
C732 C733 1.369 . S
C732 C734 1.419 . S
C732 H736 0.930 . S
C733 C732 1.369 . S
C733 C742 1.429 . S
C734 C732 1.419 . S
C734 C735 1.363 . S
C734 H737 0.929 . S
C735 C734 1.363 . S
C735 C741 1.428 . S
H736 C732 0.930 . S
H737 C734 0.929 . S
S738 N739 1.613 . S
S738 N740 1.610 . S
N739 S738 1.613 . S
N739 C742 1.350 . S
N740 S738 1.610 . S
N740 C741 1.351 . S
C741 C735 1.428 . S
C741 N740 1.351 . S
C741 C742 1.434 . S
C742 C733 1.429 . S
C742 N739 1.350 . S
C742 C741 1.434 . S
C743 C744 1.369 . S
C743 C745 1.419 . S
C743 H747 0.930 . S
C744 C743 1.369 . S
C744 C753 1.429 . S
C745 C743 1.419 . S
C745 C746 1.363 . S
C745 H748 0.929 . S
C746 C745 1.363 . S
C746 C752 1.428 . S
H747 C743 0.930 . S
H748 C745 0.929 . S
S749 N750 1.613 . S
S749 N751 1.610 . S
N750 S749 1.613 . S
N750 C753 1.350 . S
N751 S749 1.610 . S
N751 C752 1.351 . S
C752 C746 1.428 . S
C752 N751 1.351 . S
C752 C753 1.434 . S
C753 C744 1.429 . S
C753 N750 1.350 . S
C753 C752 1.434 . S
C754 C755 1.369 . S
C754 C756 1.419 . S
C754 H758 0.930 . S
C755 C754 1.369 . S
C755 C764 1.429 . S
C756 C754 1.419 . S
C756 C757 1.363 . S
C756 H759 0.929 . S
C757 C756 1.363 . S
C757 C763 1.428 . S
H758 C754 0.930 . S
H759 C756 0.929 . S
S760 N761 1.613 . S
S760 N762 1.610 . S
N761 S760 1.613 . S
N761 C764 1.350 . S
N762 S760 1.610 . S
N762 C763 1.351 . S
C763 C757 1.428 . S
C763 N762 1.351 . S
C763 C764 1.434 . S
C764 C755 1.429 . S
C764 N761 1.350 . S
C764 C763 1.434 . S
C765 C766 1.369 . S
C765 C767 1.430 . S
C765 H769 0.930 . S
C766 C765 1.369 . S
C766 C775 1.429 . S
C767 C765 1.430 . S
C767 C768 1.358 1_556 S
C767 H770 0.922 1_556 S
C768 C767 1.358 1_554 S
C768 C774 1.428 1_554 S
H769 C765 0.930 . S
H770 C767 0.922 1_554 S
S771 N772 1.613 . S
S771 N773 1.616 . S
N772 S771 1.613 . S
N772 C775 1.350 . S
N773 S771 1.616 . S
N773 C774 1.352 . S
C774 C768 1.428 1_556 S
C774 N773 1.352 . S
C774 C775 1.434 . S
C775 C766 1.429 . S
C775 N772 1.350 . S
C775 C774 1.434 . S
C776 C777 1.369 . S
C776 C778 1.419 . S
C776 H780 0.930 . S
C777 C776 1.369 . S
C777 C786 1.429 . S
C778 C776 1.419 . S
C778 C779 1.363 . S
C778 H781 0.929 . S
C779 C778 1.363 . S
C779 C785 1.428 . S
H780 C776 0.930 . S
H781 C778 0.929 . S
S782 N783 1.613 . S
S782 N784 1.610 . S
N783 S782 1.613 . S
N783 C786 1.350 . S
N784 S782 1.610 . S
N784 C785 1.351 . S
C785 C779 1.428 . S
C785 N784 1.351 . S
C785 C786 1.434 . S
C786 C777 1.429 . S
C786 N783 1.350 . S
C786 C785 1.434 . S
C787 C788 1.369 . S
C787 C789 1.419 1_545 S
C787 H791 0.930 . S
C788 C787 1.369 . S
C788 C797 1.429 . S
C789 C787 1.419 1_565 S
C789 C790 1.363 . S
C789 H792 0.929 . S
C790 C789 1.363 . S
C790 C796 1.428 1_565 S
H791 C787 0.930 . S
H792 C789 0.929 . S
S793 N794 1.613 . S
S793 N795 1.610 . S
N794 S793 1.613 . S
N794 C797 1.350 . S
N795 S793 1.610 . S
N795 C796 1.351 . S
C796 C790 1.428 1_545 S
C796 N795 1.351 . S
C796 C797 1.434 . S
C797 C788 1.429 . S
C797 N794 1.350 . S
C797 C796 1.434 . S
C798 C799 1.369 . S
C798 C800 1.419 . S
C798 H802 0.930 . S
C799 C798 1.369 . S
C799 C808 1.429 . S
C800 C798 1.419 . S
C800 C801 1.363 . S
C800 H803 0.929 . S
C801 C800 1.363 . S
C801 C807 1.428 . S
H802 C798 0.930 . S
H803 C800 0.929 . S
S804 N805 1.613 . S
S804 N806 1.610 1_545 S
N805 S804 1.613 . S
N805 C808 1.350 1_545 S
N806 S804 1.610 1_565 S
N806 C807 1.351 . S
C807 C801 1.428 . S
C807 N806 1.351 . S
C807 C808 1.434 . S
C808 C799 1.429 . S
C808 N805 1.350 1_565 S
C808 C807 1.434 . S
C809 C810 1.369 . S
C809 C811 1.419 . S
C809 H813 0.930 . S
C810 C809 1.369 . S
C810 C819 1.429 . S
C811 C809 1.419 . S
C811 C812 1.363 1_565 S
C811 H814 0.929 . S
C812 C811 1.363 1_545 S
C812 C818 1.428 . S
H813 C809 0.930 . S
H814 C811 0.929 . S
S815 N816 1.613 1_545 S
S815 N817 1.610 . S
N816 S815 1.613 1_565 S
N816 C819 1.350 . S
N817 S815 1.610 . S
N817 C818 1.351 . S
C818 C812 1.428 . S
C818 N817 1.351 . S
C818 C819 1.434 1_545 S
C819 C810 1.429 . S
C819 N816 1.350 . S
C819 C818 1.434 1_565 S
C820 C821 1.369 . S
C820 C822 1.419 . S
C820 H824 0.930 . S
C821 C820 1.369 . S
C821 C830 1.429 . S
C822 C820 1.419 . S
C822 C823 1.363 . S
C822 H825 0.929 . S
C823 C822 1.363 . S
C823 C829 1.428 . S
H824 C820 0.930 . S
H825 C822 0.929 . S
S826 N827 1.614 . S
S826 N828 1.636 . S
N827 S826 1.614 . S
N827 C830 1.350 . S
N828 S826 1.636 . S
N828 C829 1.351 . S
C829 C823 1.428 . S
C829 N828 1.351 . S
C829 C830 1.434 . S
C830 C821 1.429 . S
C830 N827 1.350 . S
C830 C829 1.434 . S
C831 C832 1.369 . S
C831 C833 1.419 1_545 S
C831 H835 0.930 . S
C832 C831 1.369 . S
C832 C841 1.429 . S
C833 C831 1.419 1_565 S
C833 C834 1.363 . S
C833 H836 0.929 . S
C834 C833 1.363 . S
C834 C840 1.428 1_565 S
H835 C831 0.930 . S
H836 C833 0.929 . S
S837 N838 1.613 . S
S837 N839 1.610 . S
N838 S837 1.613 . S
N838 C841 1.350 . S
N839 S837 1.610 . S
N839 C840 1.351 . S
C840 C834 1.428 1_545 S
C840 N839 1.351 . S
C840 C841 1.434 . S
C841 C832 1.429 . S
C841 N838 1.350 . S
C841 C840 1.434 . S
C842 C843 1.369 . S
C842 C844 1.419 . S
C842 H846 0.930 . S
C843 C842 1.369 . S
C843 C852 1.429 . S
C844 C842 1.419 . S
C844 C845 1.363 . S
C844 H847 0.929 . S
C845 C844 1.363 . S
C845 C851 1.428 . S
H846 C842 0.930 . S
H847 C844 0.929 . S
S848 N849 1.615 . S
S848 N850 1.610 1_565 S
N849 S848 1.615 . S
N849 C852 1.332 1_565 S
N850 S848 1.610 1_545 S
N850 C851 1.351 . S
C851 C845 1.428 . S
C851 N850 1.351 . S
C851 C852 1.434 . S
C852 C843 1.429 . S
C852 N849 1.332 1_545 S
C852 C851 1.434 . S
C853 C854 1.369 . S
C853 C855 1.419 . S
C853 H857 0.930 . S
C854 C853 1.369 . S
C854 C863 1.429 . S
C855 C853 1.419 . S
C855 C856 1.363 1_565 S
C855 H858 0.929 . S
C856 C855 1.363 1_545 S
C856 C862 1.428 . S
H857 C853 0.930 . S
H858 C855 0.929 . S
S859 N860 1.613 1_545 S
S859 N861 1.610 . S
N860 S859 1.613 1_565 S
N860 C863 1.350 . S
N861 S859 1.610 . S
N861 C862 1.351 . S
C862 C856 1.428 . S
C862 N861 1.351 . S
C862 C863 1.434 1_545 S
C863 C854 1.429 . S
C863 N860 1.350 . S
C863 C862 1.434 1_565 S
C864 C865 1.369 . S
C864 C866 1.419 . S
C864 H868 0.930 . S
C865 C864 1.369 . S
C865 C874 1.429 . S
C866 C864 1.419 . S
C866 C867 1.363 . S
C866 H869 0.929 . S
C867 C866 1.363 . S
C867 C873 1.428 . S
H868 C864 0.930 . S
H869 C866 0.929 . S
S870 N871 1.613 . S
S870 N872 1.610 . S
N871 S870 1.613 . S
N871 C874 1.350 . S
N872 S870 1.610 . S
N872 C873 1.351 . S
C873 C867 1.428 . S
C873 N872 1.351 . S
C873 C874 1.434 . S
C874 C865 1.429 . S
C874 N871 1.350 . S
C874 C873 1.434 . S
C875 C876 1.369 . S
C875 C877 1.419 . S
C875 H879 0.930 . S
C876 C875 1.369 . S
C876 C885 1.429 . S
C877 C875 1.419 . S
C877 C878 1.363 . S
C877 H880 0.929 . S
C878 C877 1.363 . S
C878 C884 1.428 . S
H879 C875 0.930 . S
H880 C877 0.929 . S
S881 N882 1.613 . S
S881 N883 1.610 . S
N882 S881 1.613 . S
N882 C885 1.350 . S
N883 S881 1.610 . S
N883 C884 1.351 . S
C884 C878 1.428 . S
C884 N883 1.351 . S
C884 C885 1.434 . S
C885 C876 1.429 . S
C885 N882 1.350 . S
C885 C884 1.434 . S
C886 C887 1.369 . S
C886 C888 1.419 . S
C886 H890 0.930 . S
C887 C886 1.369 . S
C887 C896 1.429 . S
C888 C886 1.419 . S
C888 C889 1.363 1_455 S
C888 H891 0.929 . S
C889 C888 1.363 1_655 S
C889 C895 1.428 1_655 S
H890 C886 0.930 . S
H891 C888 0.929 . S
S892 N893 1.613 . S
S892 N894 1.610 1_455 S
N893 S892 1.613 . S
N893 C896 1.350 . S
N894 S892 1.610 1_655 S
N894 C895 1.351 1_655 S
C895 C889 1.428 1_455 S
C895 N894 1.351 1_455 S
C895 C896 1.434 . S
C896 C887 1.429 . S
C896 N893 1.350 . S
C896 C895 1.434 . S
C897 C898 1.369 . S
C897 C899 1.419 . S
C897 H901 0.930 . S
C898 C897 1.369 . S
C898 C907 1.429 . S
C899 C897 1.419 . S
C899 C900 1.363 . S
C899 H902 0.929 . S
C900 C899 1.363 . S
C900 C906 1.428 . S
H901 C897 0.930 . S
H902 C899 0.929 . S
S903 N904 1.613 . S
S903 N905 1.610 . S
N904 S903 1.613 . S
N904 C907 1.350 . S
N905 S903 1.610 . S
N905 C906 1.351 . S
C906 C900 1.428 . S
C906 N905 1.351 . S
C906 C907 1.434 . S
C907 C898 1.429 . S
C907 N904 1.350 . S
C907 C906 1.434 . S
C908 C909 1.369 . S
C908 C910 1.419 . S
C908 H912 0.930 . S
C909 C908 1.369 . S
C909 C918 1.429 . S
C910 C908 1.419 . S
C910 C911 1.363 1_655 S
C910 H913 0.929 . S
C911 C910 1.363 1_455 S
C911 C917 1.428 . S
H912 C908 0.930 . S
H913 C910 0.929 . S
S914 N915 1.613 1_455 S
S914 N916 1.610 . S
N915 S914 1.613 1_655 S
N915 C918 1.350 . S
N916 S914 1.610 . S
N916 C917 1.351 . S
C917 C911 1.428 . S
C917 N916 1.351 . S
C917 C918 1.434 1_455 S
C918 C909 1.429 . S
C918 N915 1.350 . S
C918 C917 1.434 1_655 S
C919 C920 1.369 . S
C919 C921 1.419 . S
C919 H923 0.930 . S
C920 C919 1.369 . S
C920 C929 1.429 . S
C921 C919 1.419 . S
C921 C922 1.363 . S
C921 H924 0.929 . S
C922 C921 1.363 . S
C922 C928 1.428 . S
H923 C919 0.930 . S
H924 C921 0.929 . S
S925 N926 1.613 . S
S925 N927 1.610 . S
N926 S925 1.613 . S
N926 C929 1.350 . S
N927 S925 1.610 . S
N927 C928 1.351 . S
C928 C922 1.428 . S
C928 N927 1.351 . S
C928 C929 1.434 . S
C929 C920 1.429 . S
C929 N926 1.350 . S
C929 C928 1.434 . S
C930 C931 1.369 . S
C930 C932 1.419 . S
C930 H934 0.930 . S
C931 C930 1.369 . S
C931 C940 1.429 . S
C932 C930 1.419 . S
C932 C933 1.363 1_455 S
C932 H935 0.929 . S
C933 C932 1.363 1_655 S
C933 C939 1.428 . S
H934 C930 0.930 . S
H935 C932 0.929 . S
S936 N937 1.613 1_655 S
S936 N938 1.610 . S
N937 S936 1.613 1_455 S
N937 C940 1.350 . S
N938 S936 1.610 . S
N938 C939 1.351 . S
C939 C933 1.428 . S
C939 N938 1.351 . S
C939 C940 1.434 1_655 S
C940 C931 1.429 . S
C940 N937 1.350 . S
C940 C939 1.434 1_455 S
C941 C942 1.369 . S
C941 C943 1.419 . S
C941 H945 0.930 . S
C942 C941 1.369 . S
C942 C951 1.429 . S
C943 C941 1.419 . S
C943 C944 1.363 . S
C943 H946 0.929 . S
C944 C943 1.363 . S
C944 C950 1.428 . S
H945 C941 0.930 . S
H946 C943 0.929 . S
S947 N948 1.613 . S
S947 N949 1.610 . S
N948 S947 1.613 . S
N948 C951 1.350 . S
N949 S947 1.610 . S
N949 C950 1.351 . S
C950 C944 1.428 . S
C950 N949 1.351 . S
C950 C951 1.434 . S
C951 C942 1.429 . S
C951 N948 1.350 . S
C951 C950 1.434 . S
C952 C953 1.369 . S
C952 C954 1.419 . S
C952 H956 0.930 . S
C953 C952 1.369 . S
C953 C962 1.429 . S
C954 C952 1.419 . S
C954 C955 1.363 . S
C954 H957 0.929 . S
C955 C954 1.363 . S
C955 C961 1.428 . S
H956 C952 0.930 . S
H957 C954 0.929 . S
S958 N959 1.613 . S
S958 N960 1.610 . S
N959 S958 1.613 . S
N959 C962 1.350 . S
N960 S958 1.610 . S
N960 C961 1.351 . S
C961 C955 1.428 . S
C961 N960 1.351 . S
C961 C962 1.434 . S
C962 C953 1.429 . S
C962 N959 1.350 . S
C962 C961 1.434 . S
C963 C964 1.369 . S
C963 C965 1.419 . S
C963 H967 0.930 . S
C964 C963 1.369 . S
C964 C973 1.429 . S
C965 C963 1.419 . S
C965 C966 1.363 . S
C965 H968 0.929 . S
C966 C965 1.363 . S
C966 C972 1.428 . S
H967 C963 0.930 . S
H968 C965 0.929 . S
S969 N970 1.613 . S
S969 N971 1.610 . S
N970 S969 1.613 . S
N970 C973 1.350 . S
N971 S969 1.610 . S
N971 C972 1.351 . S
C972 C966 1.428 . S
C972 N971 1.351 . S
C972 C973 1.434 . S
C973 C964 1.429 . S
C973 N970 1.350 . S
C973 C972 1.434 . S
C974 C975 1.369 . S
C974 C976 1.419 . S
C974 H978 0.930 . S
C975 C974 1.369 . S
C975 C984 1.429 . S
C976 C974 1.419 . S
C976 C977 1.363 . S
C976 H979 0.929 . S
C977 C976 1.363 . S
C977 C983 1.428 . S
H978 C974 0.930 . S
H979 C976 0.929 . S
S980 N981 1.613 . S
S980 N982 1.610 . S
N981 S980 1.613 . S
N981 C984 1.350 . S
N982 S980 1.610 . S
N982 C983 1.351 . S
C983 C977 1.428 . S
C983 N982 1.351 . S
C983 C984 1.434 . S
C984 C975 1.429 . S
C984 N981 1.350 . S
C984 C983 1.434 . S
C985 C986 1.369 . S
C985 C987 1.419 . S
C985 H989 0.930 . S
C986 C985 1.369 . S
C986 C995 1.429 . S
C987 C985 1.419 . S
C987 C988 1.363 1_556 S
C987 H990 0.929 . S
C988 C987 1.363 1_554 S
C988 C994 1.428 . S
H989 C985 0.930 . S
H990 C987 0.929 . S
S991 N992 1.613 1_554 S
S991 N993 1.610 . S
N992 S991 1.613 1_556 S
N992 C995 1.350 . S
N993 S991 1.610 . S
N993 C994 1.351 . S
C994 C988 1.428 . S
C994 N993 1.351 . S
C994 C995 1.434 1_554 S
C995 C986 1.429 . S
C995 N992 1.350 . S
C995 C994 1.434 1_556 S
C996 C997 1.369 . S
C996 C998 1.419 . S
C996 H1000 0.930 . S
C997 C996 1.369 . S
C997 C1006 1.429 . S
C998 C996 1.419 . S
C998 C999 1.363 . S
C998 H1001 0.929 . S
C999 C998 1.363 . S
C999 C1005 1.428 . S
H1000 C996 0.930 . S
H1001 C998 0.929 . S
S1002 N1003 1.613 . S
S1002 N1004 1.610 . S
N1003 S1002 1.613 . S
N1003 C1006 1.350 . S
N1004 S1002 1.610 . S
N1004 C1005 1.351 . S
C1005 C999 1.428 . S
C1005 N1004 1.351 . S
C1005 C1006 1.434 . S
C1006 C997 1.429 . S
C1006 N1003 1.350 . S
C1006 C1005 1.434 . S
C1007 C1008 1.369 . S
C1007 C1009 1.419 . S
C1007 H1011 0.930 . S
C1008 C1007 1.369 . S
C1008 C1017 1.429 . S
C1009 C1007 1.419 . S
C1009 C1010 1.363 . S
C1009 H1012 0.929 . S
C1010 C1009 1.363 . S
C1010 C1016 1.428 . S
H1011 C1007 0.930 . S
H1012 C1009 0.929 . S
S1013 N1014 1.613 . S
S1013 N1015 1.610 . S
N1014 S1013 1.613 . S
N1014 C1017 1.350 . S
N1015 S1013 1.610 . S
N1015 C1016 1.351 . S
C1016 C1010 1.428 . S
C1016 N1015 1.351 . S
C1016 C1017 1.434 . S
C1017 C1008 1.429 . S
C1017 N1014 1.350 . S
C1017 C1016 1.434 . S
C1018 C1019 1.369 . S
C1018 C1020 1.419 . S
C1018 H1022 0.930 . S
C1019 C1018 1.369 . S
C1019 C1028 1.429 . S
C1020 C1018 1.419 . S
C1020 C1021 1.363 . S
C1020 H1023 0.929 . S
C1021 C1020 1.363 . S
C1021 C1027 1.428 . S
H1022 C1018 0.930 . S
H1023 C1020 0.929 . S
S1024 N1025 1.613 . S
S1024 N1026 1.610 . S
N1025 S1024 1.613 . S
N1025 C1028 1.350 . S
N1026 S1024 1.610 . S
N1026 C1027 1.351 . S
C1027 C1021 1.428 . S
C1027 N1026 1.351 . S
C1027 C1028 1.434 . S
C1028 C1019 1.429 . S
C1028 N1025 1.350 . S
C1028 C1027 1.434 . S
C1029 C1030 1.369 . S
C1029 C1031 1.419 1_554 S
C1029 H1033 0.930 1_655 S
C1030 C1029 1.369 . S
C1030 C1039 1.429 . S
C1031 C1029 1.419 1_556 S
C1031 C1032 1.363 . S
C1031 H1034 0.929 . S
C1032 C1031 1.363 . S
C1032 C1038 1.428 1_556 S
H1033 C1029 0.930 1_455 S
H1034 C1031 0.929 . S
S1035 N1036 1.613 . S
S1035 N1037 1.610 . S
N1036 S1035 1.613 . S
N1036 C1039 1.350 . S
N1037 S1035 1.610 . S
N1037 C1038 1.351 . S
C1038 C1032 1.428 1_554 S
C1038 N1037 1.351 . S
C1038 C1039 1.434 . S
C1039 C1030 1.429 . S
C1039 N1036 1.350 . S
C1039 C1038 1.434 . S
C1040 C1041 1.369 . S
C1040 C1042 1.419 . S
C1040 H1044 0.930 . S
C1041 C1040 1.369 . S
C1041 C1050 1.429 . S
C1042 C1040 1.419 . S
C1042 C1043 1.363 . S
C1042 H1045 0.929 . S
C1043 C1042 1.363 . S
C1043 C1049 1.428 . S
H1044 C1040 0.930 . S
H1045 C1042 0.929 . S
S1046 N1047 1.613 . S
S1046 N1048 1.610 . S
N1047 S1046 1.613 . S
N1047 C1050 1.350 . S
N1048 S1046 1.610 . S
N1048 C1049 1.351 . S
C1049 C1043 1.428 . S
C1049 N1048 1.351 . S
C1049 C1050 1.434 . S
C1050 C1041 1.429 . S
C1050 N1047 1.350 . S
C1050 C1049 1.434 . S
C1051 C1052 1.369 . S
C1051 C1053 1.419 . S
C1051 H1055 0.930 . S
C1052 C1051 1.369 . S
C1052 C1061 1.429 . S
C1053 C1051 1.419 . S
C1053 C1054 1.363 1_565 S
C1053 H1056 0.929 . S
C1054 C1053 1.363 1_545 S
C1054 C1060 1.428 . S
H1055 C1051 0.930 . S
H1056 C1053 0.929 . S
S1057 N1058 1.613 1_545 S
S1057 N1059 1.610 . S
N1058 S1057 1.613 1_565 S
N1058 C1061 1.350 . S
N1059 S1057 1.610 . S
N1059 C1060 1.351 . S
C1060 C1054 1.428 . S
C1060 N1059 1.351 . S
C1060 C1061 1.434 1_545 S
C1061 C1052 1.429 . S
C1061 N1058 1.350 . S
C1061 C1060 1.434 1_565 S
C1062 C1063 1.369 . S
C1062 C1064 1.419 . S
C1062 H1066 0.930 . S
C1063 C1062 1.369 . S
C1063 C1072 1.429 . S
C1064 C1062 1.419 . S
C1064 C1065 1.363 . S
C1064 H1067 0.929 . S
C1065 C1064 1.363 . S
C1065 C1071 1.428 . S
H1066 C1062 0.930 . S
H1067 C1064 0.929 . S
S1068 N1069 1.613 . S
S1068 N1070 1.610 . S
N1069 S1068 1.613 . S
N1069 C1072 1.350 . S
N1070 S1068 1.610 . S
N1070 C1071 1.351 . S
C1071 C1065 1.428 . S
C1071 N1070 1.351 . S
C1071 C1072 1.434 . S
C1072 C1063 1.429 . S
C1072 N1069 1.350 . S
C1072 C1071 1.434 . S
C1073 C1074 1.369 . S
C1073 C1075 1.419 1_545 S
C1073 H1077 0.930 . S
C1074 C1073 1.369 . S
C1074 C1083 1.429 . S
C1075 C1073 1.419 1_565 S
C1075 C1076 1.363 . S
C1075 H1078 0.929 . S
C1076 C1075 1.363 . S
C1076 C1082 1.428 1_565 S
H1077 C1073 0.930 . S
H1078 C1075 0.929 . S
S1079 N1080 1.613 . S
S1079 N1081 1.610 . S
N1080 S1079 1.613 . S
N1080 C1083 1.350 . S
N1081 S1079 1.610 . S
N1081 C1082 1.351 . S
C1082 C1076 1.428 1_545 S
C1082 N1081 1.351 . S
C1082 C1083 1.434 . S
C1083 C1074 1.429 . S
C1083 N1080 1.350 . S
C1083 C1082 1.434 . S
C1084 C1085 1.369 . S
C1084 C1086 1.419 . S
C1084 H1088 0.930 . S
C1085 C1084 1.369 . S
C1085 C1094 1.429 . S
C1086 C1084 1.419 . S
C1086 C1087 1.363 . S
C1086 H1089 0.929 . S
C1087 C1086 1.363 . S
C1087 C1093 1.428 . S
H1088 C1084 0.930 . S
H1089 C1086 0.929 . S
S1090 N1091 1.613 . S
S1090 N1092 1.610 . S
N1091 S1090 1.613 . S
N1091 C1094 1.350 . S
N1092 S1090 1.610 . S
N1092 C1093 1.351 . S
C1093 C1087 1.428 . S
C1093 N1092 1.351 . S
C1093 C1094 1.434 . S
C1094 C1085 1.429 . S
C1094 N1091 1.350 . S
C1094 C1093 1.434 . S
C1095 C1096 1.369 . S
C1095 C1097 1.419 1_565 S
C1095 H1099 0.930 . S
C1096 C1095 1.369 . S
C1096 C1105 1.429 . S
C1097 C1095 1.419 1_545 S
C1097 C1098 1.363 . S
C1097 H1100 0.929 . S
C1098 C1097 1.363 . S
C1098 C1104 1.428 1_545 S
H1099 C1095 0.930 . S
H1100 C1097 0.929 . S
S1101 N1102 1.613 . S
S1101 N1103 1.610 . S
N1102 S1101 1.613 . S
N1102 C1105 1.350 . S
N1103 S1101 1.610 . S
N1103 C1104 1.351 . S
C1104 C1098 1.428 1_565 S
C1104 N1103 1.351 . S
C1104 C1105 1.434 . S
C1105 C1096 1.429 . S
C1105 N1102 1.350 . S
C1105 C1104 1.434 . S
C1106 C1107 1.369 . S
C1106 C1108 1.419 . S
C1106 H1110 0.930 . S
C1107 C1106 1.369 . S
C1107 C1116 1.429 . S
C1108 C1106 1.419 . S
C1108 C1109 1.363 . S
C1108 H1111 0.929 . S
C1109 C1108 1.363 . S
C1109 C1115 1.428 . S
H1110 C1106 0.930 . S
H1111 C1108 0.929 . S
S1112 N1113 1.613 . S
S1112 N1114 1.610 . S
N1113 S1112 1.613 . S
N1113 C1116 1.350 . S
N1114 S1112 1.610 . S
N1114 C1115 1.351 . S
C1115 C1109 1.428 . S
C1115 N1114 1.351 . S
C1115 C1116 1.434 . S
C1116 C1107 1.429 . S
C1116 N1113 1.350 . S
C1116 C1115 1.434 . S
C1117 C1118 1.369 . S
C1117 C1119 1.419 . S
C1117 H1121 0.930 . S
C1118 C1117 1.369 . S
C1118 C1127 1.429 . S
C1119 C1117 1.419 . S
C1119 C1120 1.363 1_545 S
C1119 H1122 0.929 . S
C1120 C1119 1.363 1_565 S
C1120 C1126 1.428 . S
H1121 C1117 0.930 . S
H1122 C1119 0.929 . S
S1123 N1124 1.613 1_565 S
S1123 N1125 1.610 . S
N1124 S1123 1.613 1_545 S
N1124 C1127 1.350 . S
N1125 S1123 1.610 . S
N1125 C1126 1.351 . S
C1126 C1120 1.428 . S
C1126 N1125 1.351 . S
C1126 C1127 1.434 1_565 S
C1127 C1118 1.429 . S
C1127 N1124 1.350 . S
C1127 C1126 1.434 1_545 S
C1128 C1129 1.369 . S
C1128 C1130 1.419 . S
C1128 H1132 0.930 . S
C1129 C1128 1.369 . S
C1129 C1138 1.429 . S
C1130 C1128 1.419 . S
C1130 C1131 1.363 . S
C1130 H1133 0.929 . S
C1131 C1130 1.363 . S
C1131 C1137 1.428 . S
H1132 C1128 0.930 . S
H1133 C1130 0.929 . S
S1134 N1135 1.613 1_554 S
S1134 N1136 1.610 1_554 S
N1135 S1134 1.613 1_556 S
N1135 C1138 1.350 . S
N1136 S1134 1.610 1_556 S
N1136 C1137 1.351 . S
C1137 C1131 1.428 . S
C1137 N1136 1.351 . S
C1137 C1138 1.434 . S
C1138 C1129 1.429 . S
C1138 N1135 1.350 . S
C1138 C1137 1.434 . S
C1139 C1140 1.369 . S
C1139 C1141 1.419 . S
C1139 H1143 0.930 . S
C1140 C1139 1.369 . S
C1140 C1149 1.429 . S
C1141 C1139 1.419 . S
C1141 C1142 1.363 . S
C1141 H1144 0.929 . S
C1142 C1141 1.363 . S
C1142 C1148 1.428 . S
H1143 C1139 0.930 . S
H1144 C1141 0.929 . S
S1145 N1146 1.613 . S
S1145 N1147 1.610 . S
N1146 S1145 1.613 . S
N1146 C1149 1.350 . S
N1147 S1145 1.610 . S
N1147 C1148 1.351 . S
C1148 C1142 1.428 . S
C1148 N1147 1.351 . S
C1148 C1149 1.434 . S
C1149 C1140 1.429 . S
C1149 N1146 1.350 . S
C1149 C1148 1.434 . S
C1150 C1151 1.369 . S
C1150 C1152 1.419 . S
C1150 H1154 0.930 . S
C1151 C1150 1.369 . S
C1151 C1160 1.429 . S
C1152 C1150 1.419 . S
C1152 C1153 1.363 1_655 S
C1152 H1155 0.929 1_655 S
C1153 C1152 1.363 1_455 S
C1153 C1159 1.428 1_455 S
H1154 C1150 0.930 . S
H1155 C1152 0.929 1_455 S
S1156 N1157 1.613 . S
S1156 N1158 1.610 . S
N1157 S1156 1.613 . S
N1157 C1160 1.350 . S
N1158 S1156 1.610 . S
N1158 C1159 1.351 . S
C1159 C1153 1.428 1_655 S
C1159 N1158 1.351 . S
C1159 C1160 1.434 . S
C1160 C1151 1.429 . S
C1160 N1157 1.350 . S
C1160 C1159 1.434 . S
C1161 C1162 1.369 . S
C1161 C1163 1.419 . S
C1161 H1165 0.930 . S
C1162 C1161 1.369 . S
C1162 C1171 1.429 . S
C1163 C1161 1.419 . S
C1163 C1164 1.363 . S
C1163 H1166 0.929 . S
C1164 C1163 1.363 . S
C1164 C1170 1.428 . S
H1165 C1161 0.930 . S
H1166 C1163 0.929 . S
S1167 N1168 1.613 . S
S1167 N1169 1.610 . S
N1168 S1167 1.613 . S
N1168 C1171 1.350 . S
N1169 S1167 1.610 . S
N1169 C1170 1.351 . S
C1170 C1164 1.428 . S
C1170 N1169 1.351 . S
C1170 C1171 1.434 . S
C1171 C1162 1.429 . S
C1171 N1168 1.350 . S
C1171 C1170 1.434 . S
C1172 C1173 1.369 . S
C1172 C1174 1.419 1_455 S
C1172 H1176 0.930 . S
C1173 C1172 1.369 . S
C1173 C1182 1.429 . S
C1174 C1172 1.419 1_655 S
C1174 C1175 1.363 . S
C1174 H1177 0.929 . S
C1175 C1174 1.363 . S
C1175 C1181 1.428 1_655 S
H1176 C1172 0.930 . S
H1177 C1174 0.929 . S
S1178 N1179 1.613 . S
S1178 N1180 1.610 . S
N1179 S1178 1.613 . S
N1179 C1182 1.350 . S
N1180 S1178 1.610 . S
N1180 C1181 1.351 . S
C1181 C1175 1.428 1_455 S
C1181 N1180 1.351 . S
C1181 C1182 1.434 . S
C1182 C1173 1.429 . S
C1182 N1179 1.350 . S
C1182 C1181 1.434 . S
C1183 C1184 1.369 . S
C1183 C1185 1.419 . S
C1183 H1187 0.930 . S
C1184 C1183 1.369 . S
C1184 C1193 1.429 . S
C1185 C1183 1.419 . S
C1185 C1186 1.363 . S
C1185 H1188 0.929 . S
C1186 C1185 1.363 . S
C1186 C1192 1.428 . S
H1187 C1183 0.930 . S
H1188 C1185 0.929 . S
S1189 N1190 1.613 . S
S1189 N1191 1.610 . S
N1190 S1189 1.613 . S
N1190 C1193 1.350 . S
N1191 S1189 1.610 . S
N1191 C1192 1.351 . S
C1192 C1186 1.428 . S
C1192 N1191 1.351 . S
C1192 C1193 1.434 . S
C1193 C1184 1.429 . S
C1193 N1190 1.350 . S
C1193 C1192 1.434 . S
C1194 C1195 1.369 . S
C1194 C1196 1.419 1_655 S
C1194 H1198 0.930 . S
C1195 C1194 1.369 . S
C1195 C1204 1.429 . S
C1196 C1194 1.419 1_455 S
C1196 C1197 1.363 . S
C1196 H1199 0.929 . S
C1197 C1196 1.363 . S
C1197 C1203 1.428 1_455 S
H1198 C1194 0.930 . S
H1199 C1196 0.929 . S
S1200 N1201 1.613 . S
S1200 N1202 1.618 . S
N1201 S1200 1.613 . S
N1201 C1204 1.350 . S
N1202 S1200 1.618 . S
N1202 C1203 1.353 . S
C1203 C1197 1.428 1_655 S
C1203 N1202 1.353 . S
C1203 C1204 1.434 . S
C1204 C1195 1.429 . S
C1204 N1201 1.350 . S
C1204 C1203 1.434 . S
C1205 C1206 1.369 . S
C1205 C1207 1.419 . S
C1205 H1209 0.930 . S
C1206 C1205 1.369 . S
C1206 C1215 1.429 . S
C1207 C1205 1.419 . S
C1207 C1208 1.363 . S
C1207 H1210 0.929 . S
C1208 C1207 1.363 . S
C1208 C1214 1.428 . S
H1209 C1205 0.930 . S
H1210 C1207 0.929 . S
S1211 N1212 1.613 . S
S1211 N1213 1.610 . S
N1212 S1211 1.613 . S
N1212 C1215 1.350 . S
N1213 S1211 1.610 . S
N1213 C1214 1.351 . S
C1214 C1208 1.428 . S
C1214 N1213 1.351 . S
C1214 C1215 1.434 . S
C1215 C1206 1.429 . S
C1215 N1212 1.350 . S
C1215 C1214 1.434 . S
C1216 C1217 1.369 . S
C1216 C1218 1.419 . S
C1216 H1220 0.930 . S
C1217 C1216 1.369 . S
C1217 C1226 1.429 . S
C1218 C1216 1.419 . S
C1218 C1219 1.363 . S
C1218 H1221 0.929 . S
C1219 C1218 1.363 . S
C1219 C1225 1.428 . S
H1220 C1216 0.930 . S
H1221 C1218 0.929 . S
S1222 N1223 1.613 . S
S1222 N1224 1.610 . S
N1223 S1222 1.613 . S
N1223 C1226 1.350 . S
N1224 S1222 1.610 . S
N1224 C1225 1.351 . S
C1225 C1219 1.428 . S
C1225 N1224 1.351 . S
C1225 C1226 1.434 . S
C1226 C1217 1.429 . S
C1226 N1223 1.350 . S
C1226 C1225 1.434 . S
C1227 C1228 1.369 . S
C1227 C1229 1.419 1_554 S
C1227 H1231 0.930 . S
C1228 C1227 1.369 . S
C1228 C1237 1.429 . S
C1229 C1227 1.419 1_556 S
C1229 C1230 1.363 . S
C1229 H1232 0.929 . S
C1230 C1229 1.363 . S
C1230 C1236 1.428 1_556 S
H1231 C1227 0.930 . S
H1232 C1229 0.929 . S
S1233 N1234 1.613 . S
S1233 N1235 1.610 . S
N1234 S1233 1.613 . S
N1234 C1237 1.350 . S
N1235 S1233 1.610 . S
N1235 C1236 1.351 . S
C1236 C1230 1.428 1_554 S
C1236 N1235 1.351 . S
C1236 C1237 1.434 . S
C1237 C1228 1.429 . S
C1237 N1234 1.350 . S
C1237 C1236 1.434 . S
C1238 C1239 1.369 . S
C1238 C1240 1.419 . S
C1238 H1242 0.930 . S
C1239 C1238 1.369 . S
C1239 C1248 1.429 . S
C1240 C1238 1.419 . S
C1240 C1241 1.363 . S
C1240 H1243 0.929 . S
C1241 C1240 1.363 . S
C1241 C1247 1.428 . S
H1242 C1238 0.930 . S
H1243 C1240 0.929 . S
S1244 N1245 1.613 . S
S1244 N1246 1.610 . S
N1245 S1244 1.613 . S
N1245 C1248 1.350 . S
N1246 S1244 1.610 . S
N1246 C1247 1.351 . S
C1247 C1241 1.428 . S
C1247 N1246 1.351 . S
C1247 C1248 1.434 . S
C1248 C1239 1.429 . S
C1248 N1245 1.350 . S
C1248 C1247 1.434 . S
C1249 C1250 1.369 . S
C1249 C1251 1.419 . S
C1249 H1253 0.930 . S
C1250 C1249 1.369 . S
C1250 C1259 1.429 . S
C1251 C1249 1.419 . S
C1251 C1252 1.363 . S
C1251 H1254 0.929 . S
C1252 C1251 1.363 . S
C1252 C1258 1.428 . S
H1253 C1249 0.930 . S
H1254 C1251 0.929 . S
S1255 N1256 1.613 . S
S1255 N1257 1.610 . S
N1256 S1255 1.613 . S
N1256 C1259 1.350 . S
N1257 S1255 1.610 . S
N1257 C1258 1.351 . S
C1258 C1252 1.428 . S
C1258 N1257 1.351 . S
C1258 C1259 1.434 . S
C1259 C1250 1.429 . S
C1259 N1256 1.350 . S
C1259 C1258 1.434 . S
C1260 C1261 1.369 . S
C1260 C1262 1.419 . S
C1260 H1264 0.930 . S
C1261 C1260 1.369 . S
C1261 C1270 1.429 . S
C1262 C1260 1.419 . S
C1262 C1263 1.363 . S
C1262 H1265 0.929 . S
C1263 C1262 1.363 . S
C1263 C1269 1.428 . S
H1264 C1260 0.930 . S
H1265 C1262 0.929 . S
S1266 N1267 1.613 . S
S1266 N1268 1.610 . S
N1267 S1266 1.613 . S
N1267 C1270 1.350 . S
N1268 S1266 1.610 . S
N1268 C1269 1.351 . S
C1269 C1263 1.428 . S
C1269 N1268 1.351 . S
C1269 C1270 1.434 . S
C1270 C1261 1.429 . S
C1270 N1267 1.350 . S
C1270 C1269 1.434 . S
C1271 C1272 1.369 . S
C1271 C1273 1.419 1_556 S
C1271 H1275 0.930 . S
C1272 C1271 1.369 . S
C1272 C1281 1.429 . S
C1273 C1271 1.419 1_554 S
C1273 C1274 1.363 . S
C1273 H1276 0.929 . S
C1274 C1273 1.363 . S
C1274 C1280 1.428 1_554 S
H1275 C1271 0.930 . S
H1276 C1273 0.929 . S
S1277 N1278 1.613 . S
S1277 N1279 1.610 . S
N1278 S1277 1.613 . S
N1278 C1281 1.350 . S
N1279 S1277 1.610 . S
N1279 C1280 1.351 . S
C1280 C1274 1.428 1_556 S
C1280 N1279 1.351 . S
C1280 C1281 1.434 . S
C1281 C1272 1.429 . S
C1281 N1278 1.350 . S
C1281 C1280 1.434 . S
C1282 C1283 1.369 . S
C1282 C1284 1.419 . S
C1282 H1286 0.930 . S
C1283 C1282 1.369 . S
C1283 C1292 1.429 . S
C1284 C1282 1.419 . S
C1284 C1285 1.363 . S
C1284 H1287 0.929 . S
C1285 C1284 1.363 . S
C1285 C1291 1.428 . S
H1286 C1282 0.930 . S
H1287 C1284 0.929 . S
S1288 N1289 1.613 . S
S1288 N1290 1.610 . S
N1289 S1288 1.613 . S
N1289 C1292 1.350 . S
N1290 S1288 1.610 . S
N1290 C1291 1.351 . S
C1291 C1285 1.428 . S
C1291 N1290 1.351 . S
C1291 C1292 1.434 . S
C1292 C1283 1.429 . S
C1292 N1289 1.350 . S
C1292 C1291 1.434 . S
C1293 C1294 1.369 . S
C1293 C1295 1.419 . S
C1293 H1297 0.930 . S
C1294 C1293 1.369 . S
C1294 C1303 1.429 . S
C1295 C1293 1.419 . S
C1295 C1296 1.363 . S
C1295 H1298 0.929 . S
C1296 C1295 1.363 . S
C1296 C1302 1.428 . S
H1297 C1293 0.930 . S
H1298 C1295 0.929 . S
S1299 N1300 1.613 . S
S1299 N1301 1.610 . S
N1300 S1299 1.613 . S
N1300 C1303 1.350 . S
N1301 S1299 1.610 . S
N1301 C1302 1.351 . S
C1302 C1296 1.428 . S
C1302 N1301 1.351 . S
C1302 C1303 1.434 . S
C1303 C1294 1.429 . S
C1303 N1300 1.350 . S
C1303 C1302 1.434 . S
C1304 C1305 1.369 . S
C1304 C1306 1.419 . S
C1304 H1308 0.930 . S
C1305 C1304 1.369 . S
C1305 C1314 1.429 . S
C1306 C1304 1.419 . S
C1306 C1307 1.363 . S
C1306 H1309 0.929 . S
C1307 C1306 1.363 . S
C1307 C1313 1.428 . S
H1308 C1304 0.930 . S
H1309 C1306 0.929 . S
S1310 N1311 1.613 . S
S1310 N1312 1.610 . S
N1311 S1310 1.613 . S
N1311 C1314 1.350 . S
N1312 S1310 1.610 . S
N1312 C1313 1.351 . S
C1313 C1307 1.428 . S
C1313 N1312 1.351 . S
C1313 C1314 1.434 . S
C1314 C1305 1.429 . S
C1314 N1311 1.350 . S
C1314 C1313 1.434 . S
C1315 C1316 1.369 . S
C1315 C1317 1.419 . S
C1315 H1319 0.930 . S
C1316 C1315 1.369 . S
C1316 C1325 1.429 . S
C1317 C1315 1.419 . S
C1317 C1318 1.363 . S
C1317 H1320 0.929 . S
C1318 C1317 1.363 . S
C1318 C1324 1.428 . S
H1319 C1315 0.930 . S
H1320 C1317 0.929 . S
S1321 N1322 1.613 . S
S1321 N1323 1.610 . S
N1322 S1321 1.613 . S
N1322 C1325 1.350 . S
N1323 S1321 1.610 . S
N1323 C1324 1.351 . S
C1324 C1318 1.428 . S
C1324 N1323 1.351 . S
C1324 C1325 1.434 . S
C1325 C1316 1.429 . S
C1325 N1322 1.350 . S
C1325 C1324 1.434 . S
C1326 C1327 1.369 . S
C1326 C1328 1.419 . S
C1326 H1330 0.930 . S
C1327 C1326 1.369 . S
C1327 C1336 1.429 . S
C1328 C1326 1.419 . S
C1328 C1329 1.363 . S
C1328 H1331 0.929 . S
C1329 C1328 1.363 . S
C1329 C1335 1.428 . S
H1330 C1326 0.930 . S
H1331 C1328 0.929 . S
S1332 N1333 1.613 . S
S1332 N1334 1.610 . S
N1333 S1332 1.613 . S
N1333 C1336 1.350 . S
N1334 S1332 1.610 . S
N1334 C1335 1.351 . S
C1335 C1329 1.428 . S
C1335 N1334 1.351 . S
C1335 C1336 1.434 . S
C1336 C1327 1.429 . S
C1336 N1333 1.350 . S
C1336 C1335 1.434 . S
C1337 C1338 1.369 . S
C1337 C1339 1.419 . S
C1337 H1341 0.930 . S
C1338 C1337 1.369 . S
C1338 C1347 1.429 . S
C1339 C1337 1.419 . S
C1339 C1340 1.363 . S
C1339 H1342 0.929 . S
C1340 C1339 1.363 . S
C1340 C1346 1.428 . S
H1341 C1337 0.930 . S
H1342 C1339 0.929 . S
S1343 N1344 1.613 . S
S1343 N1345 1.610 . S
N1344 S1343 1.613 . S
N1344 C1347 1.350 . S
N1345 S1343 1.610 . S
N1345 C1346 1.351 . S
C1346 C1340 1.428 . S
C1346 N1345 1.351 . S
C1346 C1347 1.434 . S
C1347 C1338 1.429 . S
C1347 N1344 1.350 . S
C1347 C1346 1.434 . S
C1348 C1349 1.369 . S
C1348 C1350 1.419 . S
C1348 H1352 0.930 . S
C1349 C1348 1.369 . S
C1349 C1358 1.429 . S
C1350 C1348 1.419 . S
C1350 C1351 1.363 . S
C1350 H1353 0.929 . S
C1351 C1350 1.363 . S
C1351 C1357 1.428 . S
H1352 C1348 0.930 . S
H1353 C1350 0.929 . S
S1354 N1355 1.613 . S
S1354 N1356 1.610 . S
N1355 S1354 1.613 . S
N1355 C1358 1.350 . S
N1356 S1354 1.610 . S
N1356 C1357 1.351 . S
C1357 C1351 1.428 . S
C1357 N1356 1.351 . S
C1357 C1358 1.434 . S
C1358 C1349 1.429 . S
C1358 N1355 1.350 . S
C1358 C1357 1.434 . S
C1359 C1360 1.369 . S
C1359 C1361 1.419 . S
C1359 H1363 0.930 . S
C1360 C1359 1.369 . S
C1360 C1369 1.429 . S
C1361 C1359 1.419 . S
C1361 C1362 1.363 . S
C1361 H1364 0.929 . S
C1362 C1361 1.363 . S
C1362 C1368 1.428 . S
H1363 C1359 0.930 . S
H1364 C1361 0.929 . S
S1365 N1366 1.613 . S
S1365 N1367 1.610 . S
N1366 S1365 1.613 . S
N1366 C1369 1.350 . S
N1367 S1365 1.610 . S
N1367 C1368 1.351 . S
C1368 C1362 1.428 . S
C1368 N1367 1.351 . S
C1368 C1369 1.434 . S
C1369 C1360 1.429 . S
C1369 N1366 1.350 . S
C1369 C1368 1.434 . S
C1370 C1371 1.369 . S
C1370 C1372 1.419 . S
C1370 H1374 0.930 . S
C1371 C1370 1.369 . S
C1371 C1380 1.429 . S
C1372 C1370 1.419 . S
C1372 C1373 1.363 . S
C1372 H1375 0.929 . S
C1373 C1372 1.363 . S
C1373 C1379 1.428 . S
H1374 C1370 0.930 . S
H1375 C1372 0.929 . S
S1376 N1377 1.613 . S
S1376 N1378 1.610 . S
N1377 S1376 1.613 . S
N1377 C1380 1.350 . S
N1378 S1376 1.610 . S
N1378 C1379 1.351 . S
C1379 C1373 1.428 . S
C1379 N1378 1.351 . S
C1379 C1380 1.434 . S
C1380 C1371 1.429 . S
C1380 N1377 1.350 . S
C1380 C1379 1.434 . S
C1381 C1382 1.369 . S
C1381 C1383 1.419 . S
C1381 H1385 0.930 . S
C1382 C1381 1.369 . S
C1382 C1391 1.429 . S
C1383 C1381 1.419 . S
C1383 C1384 1.363 . S
C1383 H1386 0.929 . S
C1384 C1383 1.363 . S
C1384 C1390 1.428 . S
H1385 C1381 0.930 . S
H1386 C1383 0.929 . S
S1387 N1388 1.613 . S
S1387 N1389 1.610 . S
N1388 S1387 1.613 . S
N1388 C1391 1.350 . S
N1389 S1387 1.610 . S
N1389 C1390 1.351 . S
C1390 C1384 1.428 . S
C1390 N1389 1.351 . S
C1390 C1391 1.434 . S
C1391 C1382 1.429 . S
C1391 N1388 1.350 . S
C1391 C1390 1.434 . S
C1392 C1393 1.369 . S
C1392 C1394 1.419 . S
C1392 H1396 0.930 . S
C1393 C1392 1.369 . S
C1393 C1402 1.429 . S
C1394 C1392 1.419 . S
C1394 C1395 1.363 . S
C1394 H1397 0.929 . S
C1395 C1394 1.363 . S
C1395 C1401 1.428 . S
H1396 C1392 0.930 . S
H1397 C1394 0.929 . S
S1398 N1399 1.613 . S
S1398 N1400 1.610 . S
N1399 S1398 1.613 . S
N1399 C1402 1.350 . S
N1400 S1398 1.610 . S
N1400 C1401 1.351 . S
C1401 C1395 1.428 . S
C1401 N1400 1.351 . S
C1401 C1402 1.434 . S
C1402 C1393 1.429 . S
C1402 N1399 1.350 . S
C1402 C1401 1.434 . S
C1403 C1404 1.369 . S
C1403 C1405 1.419 . S
C1403 H1407 0.930 . S
C1404 C1403 1.369 . S
C1404 C1413 1.429 . S
C1405 C1403 1.419 . S
C1405 C1406 1.363 . S
C1405 H1408 0.929 . S
C1406 C1405 1.363 . S
C1406 C1412 1.428 . S
H1407 C1403 0.930 . S
H1408 C1405 0.929 . S
S1409 N1410 1.613 . S
S1409 N1411 1.610 . S
N1410 S1409 1.613 . S
N1410 C1413 1.350 . S
N1411 S1409 1.610 . S
N1411 C1412 1.351 . S
C1412 C1406 1.428 . S
C1412 N1411 1.351 . S
C1412 C1413 1.434 . S
C1413 C1404 1.429 . S
C1413 N1410 1.350 . S
C1413 C1412 1.434 . S
C1414 C1415 1.369 . S
C1414 C1416 1.419 . S
C1414 H1418 0.930 . S
C1415 C1414 1.369 . S
C1415 C1424 1.429 . S
C1416 C1414 1.419 . S
C1416 C1417 1.363 . S
C1416 H1419 0.929 . S
C1417 C1416 1.363 . S
C1417 C1423 1.428 . S
H1418 C1414 0.930 . S
H1419 C1416 0.929 . S
S1420 N1421 1.613 . S
S1420 N1422 1.610 . S
N1421 S1420 1.613 . S
N1421 C1424 1.350 . S
N1422 S1420 1.610 . S
N1422 C1423 1.351 . S
C1423 C1417 1.428 . S
C1423 N1422 1.351 . S
C1423 C1424 1.434 . S
C1424 C1415 1.429 . S
C1424 N1421 1.350 . S
C1424 C1423 1.434 . S
C1425 C1426 1.369 . S
C1425 C1427 1.419 . S
C1425 H1429 0.930 . S
C1426 C1425 1.369 . S
C1426 C1435 1.429 . S
C1427 C1425 1.419 . S
C1427 C1428 1.363 . S
C1427 H1430 0.929 . S
C1428 C1427 1.363 . S
C1428 C1434 1.428 . S
H1429 C1425 0.930 . S
H1430 C1427 0.929 . S
S1431 N1432 1.613 . S
S1431 N1433 1.610 . S
N1432 S1431 1.613 . S
N1432 C1435 1.350 . S
N1433 S1431 1.610 . S
N1433 C1434 1.351 . S
C1434 C1428 1.428 . S
C1434 N1433 1.351 . S
C1434 C1435 1.434 . S
C1435 C1426 1.429 . S
C1435 N1432 1.350 . S
C1435 C1434 1.434 . S
C1436 C1437 1.369 . S
C1436 C1438 1.419 . S
C1436 H1440 0.930 . S
C1437 C1436 1.369 . S
C1437 C1446 1.429 . S
C1438 C1436 1.419 . S
C1438 C1439 1.363 . S
C1438 H1441 0.929 . S
C1439 C1438 1.363 . S
C1439 C1445 1.428 . S
H1440 C1436 0.930 . S
H1441 C1438 0.929 . S
S1442 N1443 1.613 . S
S1442 N1444 1.610 . S
N1443 S1442 1.613 . S
N1443 C1446 1.350 . S
N1444 S1442 1.610 . S
N1444 C1445 1.351 . S
C1445 C1439 1.428 . S
C1445 N1444 1.351 . S
C1445 C1446 1.434 . S
C1446 C1437 1.429 . S
C1446 N1443 1.350 . S
C1446 C1445 1.434 . S
C1447 C1448 1.369 . S
C1447 C1449 1.419 . S
C1447 H1451 0.930 . S
C1448 C1447 1.369 . S
C1448 C1457 1.429 . S
C1449 C1447 1.419 . S
C1449 C1450 1.363 . S
C1449 H1452 0.929 . S
C1450 C1449 1.363 . S
C1450 C1456 1.428 . S
H1451 C1447 0.930 . S
H1452 C1449 0.929 . S
S1453 N1454 1.613 . S
S1453 N1455 1.610 1_556 S
N1454 S1453 1.613 . S
N1454 C1457 1.350 1_556 S
N1455 S1453 1.610 1_554 S
N1455 C1456 1.351 . S
C1456 C1450 1.428 . S
C1456 N1455 1.351 . S
C1456 C1457 1.434 . S
C1457 C1448 1.429 . S
C1457 N1454 1.350 1_554 S
C1457 C1456 1.434 . S
C1458 C1459 1.369 . S
C1458 C1460 1.419 . S
C1458 H1462 0.930 . S
C1459 C1458 1.369 . S
C1459 C1468 1.429 . S
C1460 C1458 1.419 . S
C1460 C1461 1.363 . S
C1460 H1463 0.929 . S
C1461 C1460 1.363 . S
C1461 C1467 1.428 . S
H1462 C1458 0.930 . S
H1463 C1460 0.929 . S
S1464 N1465 1.613 . S
S1464 N1466 1.610 . S
N1465 S1464 1.613 . S
N1465 C1468 1.350 . S
N1466 S1464 1.610 . S
N1466 C1467 1.351 . S
C1467 C1461 1.428 . S
C1467 N1466 1.351 . S
C1467 C1468 1.434 . S
C1468 C1459 1.429 . S
C1468 N1465 1.350 . S
C1468 C1467 1.434 . S
C1469 C1470 1.369 . S
C1469 C1471 1.419 1_655 S
C1469 H1473 0.930 . S
C1470 C1469 1.369 . S
C1470 C1479 1.429 . S
C1471 C1469 1.419 1_455 S
C1471 C1472 1.363 . S
C1471 H1474 0.929 . S
C1472 C1471 1.363 . S
C1472 C1478 1.428 1_455 S
H1473 C1469 0.930 . S
H1474 C1471 0.929 . S
S1475 N1476 1.613 . S
S1475 N1477 1.610 . S
N1476 S1475 1.613 . S
N1476 C1479 1.350 . S
N1477 S1475 1.610 . S
N1477 C1478 1.351 . S
C1478 C1472 1.428 1_655 S
C1478 N1477 1.351 . S
C1478 C1479 1.434 . S
C1479 C1470 1.429 . S
C1479 N1476 1.350 . S
C1479 C1478 1.434 . S
C1480 C1481 1.369 . S
C1480 C1482 1.419 . S
C1480 H1484 0.930 . S
C1481 C1480 1.369 . S
C1481 C1490 1.429 . S
C1482 C1480 1.419 . S
C1482 C1483 1.363 . S
C1482 H1485 0.929 . S
C1483 C1482 1.363 . S
C1483 C1489 1.428 . S
H1484 C1480 0.930 . S
H1485 C1482 0.929 . S
S1486 N1487 1.613 . S
S1486 N1488 1.610 . S
N1487 S1486 1.613 . S
N1487 C1490 1.350 . S
N1488 S1486 1.610 . S
N1488 C1489 1.351 . S
C1489 C1483 1.428 . S
C1489 N1488 1.351 . S
C1489 C1490 1.434 . S
C1490 C1481 1.429 . S
C1490 N1487 1.350 . S
C1490 C1489 1.434 . S
C1491 C1492 1.369 . S
C1491 C1493 1.419 1_556 S
C1491 H1495 0.930 . S
C1492 C1491 1.369 . S
C1492 C1501 1.429 . S
C1493 C1491 1.419 1_554 S
C1493 C1494 1.363 . S
C1493 H1496 0.929 . S
C1494 C1493 1.363 . S
C1494 C1500 1.428 . S
H1495 C1491 0.930 . S
H1496 C1493 0.929 . S
S1497 N1498 1.613 . S
S1497 N1499 1.610 1_556 S
N1498 S1497 1.613 . S
N1498 C1501 1.350 . S
N1499 S1497 1.610 1_554 S
N1499 C1500 1.351 . S
C1500 C1494 1.428 . S
C1500 N1499 1.351 . S
C1500 C1501 1.434 1_554 S
C1501 C1492 1.429 . S
C1501 N1498 1.350 . S
C1501 C1500 1.434 1_556 S
C1502 C1503 1.369 . S
C1502 C1504 1.419 . S
C1502 H1506 0.930 . S
C1503 C1502 1.369 . S
C1503 C1512 1.429 . S
C1504 C1502 1.419 . S
C1504 C1505 1.363 . S
C1504 H1507 0.929 . S
C1505 C1504 1.363 . S
C1505 C1511 1.428 . S
H1506 C1502 0.930 . S
H1507 C1504 0.929 . S
S1508 N1509 1.613 . S
S1508 N1510 1.610 . S
N1509 S1508 1.613 . S
N1509 C1512 1.350 . S
N1510 S1508 1.610 . S
N1510 C1511 1.351 . S
C1511 C1505 1.428 . S
C1511 N1510 1.351 . S
C1511 C1512 1.434 . S
C1512 C1503 1.429 . S
C1512 N1509 1.350 . S
C1512 C1511 1.434 . S
C1513 C1514 1.369 . S
C1513 C1515 1.419 . S
C1513 H1517 0.930 . S
C1514 C1513 1.369 . S
C1514 C1523 1.429 . S
C1515 C1513 1.419 . S
C1515 C1516 1.363 . S
C1515 H1518 0.929 . S
C1516 C1515 1.363 . S
C1516 C1522 1.428 . S
H1517 C1513 0.930 . S
H1518 C1515 0.929 . S
S1519 N1520 1.613 . S
S1519 N1521 1.610 . S
N1520 S1519 1.613 . S
N1520 C1523 1.350 . S
N1521 S1519 1.610 . S
N1521 C1522 1.351 . S
C1522 C1516 1.428 . S
C1522 N1521 1.351 . S
C1522 C1523 1.434 . S
C1523 C1514 1.429 . S
C1523 N1520 1.350 . S
C1523 C1522 1.434 . S
C1524 C1525 1.369 . S
C1524 C1526 1.419 . S
C1524 H1528 0.930 . S
C1525 C1524 1.369 . S
C1525 C1534 1.429 . S
C1526 C1524 1.419 . S
C1526 C1527 1.363 . S
C1526 H1529 0.929 . S
C1527 C1526 1.363 . S
C1527 C1533 1.428 . S
H1528 C1524 0.930 . S
H1529 C1526 0.929 . S
S1530 N1531 1.613 . S
S1530 N1532 1.610 . S
N1531 S1530 1.613 . S
N1531 C1534 1.350 . S
N1532 S1530 1.610 . S
N1532 C1533 1.351 . S
C1533 C1527 1.428 . S
C1533 N1532 1.351 . S
C1533 C1534 1.434 . S
C1534 C1525 1.429 . S
C1534 N1531 1.350 . S
C1534 C1533 1.434 . S
C1535 C1536 1.369 . S
C1535 C1537 1.419 . S
C1535 H1539 0.930 . S
C1536 C1535 1.369 . S
C1536 C1545 1.429 . S
C1537 C1535 1.419 . S
C1537 C1538 1.363 1_554 S
C1537 H1540 0.929 1_554 S
C1538 C1537 1.363 1_556 S
C1538 C1544 1.428 1_556 S
H1539 C1535 0.930 . S
H1540 C1537 0.929 1_556 S
S1541 N1542 1.613 . S
S1541 N1543 1.610 . S
N1542 S1541 1.613 . S
N1542 C1545 1.350 . S
N1543 S1541 1.610 . S
N1543 C1544 1.351 . S
C1544 C1538 1.428 1_554 S
C1544 N1543 1.351 . S
C1544 C1545 1.434 . S
C1545 C1536 1.429 . S
C1545 N1542 1.350 . S
C1545 C1544 1.434 . S
C1546 C1547 1.369 . S
C1546 C1548 1.419 . S
C1546 H1550 0.930 . S
C1547 C1546 1.369 . S
C1547 C1556 1.429 . S
C1548 C1546 1.419 . S
C1548 C1549 1.363 . S
C1548 H1551 0.929 . S
C1549 C1548 1.363 . S
C1549 C1555 1.428 . S
H1550 C1546 0.930 . S
H1551 C1548 0.929 . S
S1552 N1553 1.613 . S
S1552 N1554 1.610 . S
N1553 S1552 1.613 . S
N1553 C1556 1.350 . S
N1554 S1552 1.610 . S
N1554 C1555 1.351 . S
C1555 C1549 1.428 . S
C1555 N1554 1.351 . S
C1555 C1556 1.434 . S
C1556 C1547 1.429 . S
C1556 N1553 1.350 . S
C1556 C1555 1.434 . S
C1557 C1558 1.369 . S
C1557 C1559 1.419 . S
C1557 H1561 0.930 . S
C1558 C1557 1.369 . S
C1558 C1567 1.429 . S
C1559 C1557 1.419 . S
C1559 C1560 1.363 . S
C1559 H1562 0.929 . S
C1560 C1559 1.363 . S
C1560 C1566 1.428 . S
H1561 C1557 0.930 . S
H1562 C1559 0.929 . S
S1563 N1564 1.613 . S
S1563 N1565 1.610 . S
N1564 S1563 1.613 . S
N1564 C1567 1.350 . S
N1565 S1563 1.610 . S
N1565 C1566 1.351 . S
C1566 C1560 1.428 . S
C1566 N1565 1.351 . S
C1566 C1567 1.434 . S
C1567 C1558 1.429 . S
C1567 N1564 1.350 . S
C1567 C1566 1.434 . S
C1568 C1569 1.369 . S
C1568 C1570 1.419 . S
C1568 H1572 0.930 . S
C1569 C1568 1.369 . S
C1569 C1578 1.429 . S
C1570 C1568 1.419 . S
C1570 C1571 1.363 . S
C1570 H1573 0.929 . S
C1571 C1570 1.363 . S
C1571 C1577 1.428 . S
H1572 C1568 0.930 . S
H1573 C1570 0.929 . S
S1574 N1575 1.613 . S
S1574 N1576 1.610 . S
N1575 S1574 1.613 . S
N1575 C1578 1.350 . S
N1576 S1574 1.610 . S
N1576 C1577 1.351 . S
C1577 C1571 1.428 . S
C1577 N1576 1.351 . S
C1577 C1578 1.434 . S
C1578 C1569 1.429 . S
C1578 N1575 1.350 . S
C1578 C1577 1.434 . S
C1579 C1580 1.369 . S
C1579 C1581 1.419 . S
C1579 H1583 0.930 . S
C1580 C1579 1.369 . S
C1580 C1589 1.429 . S
C1581 C1579 1.419 . S
C1581 C1582 1.363 . S
C1581 H1584 0.929 . S
C1582 C1581 1.363 . S
C1582 C1588 1.428 . S
H1583 C1579 0.930 . S
H1584 C1581 0.929 . S
S1585 N1586 1.613 . S
S1585 N1587 1.610 1_556 S
N1586 S1585 1.613 . S
N1586 C1589 1.350 1_556 S
N1587 S1585 1.610 1_554 S
N1587 C1588 1.351 . S
C1588 C1582 1.428 . S
C1588 N1587 1.351 . S
C1588 C1589 1.434 . S
C1589 C1580 1.429 . S
C1589 N1586 1.350 1_554 S
C1589 C1588 1.434 . S
C1590 C1591 1.369 . S
C1590 C1592 1.419 . S
C1590 H1594 0.930 . S
C1591 C1590 1.369 . S
C1591 C1600 1.429 . S
C1592 C1590 1.419 . S
C1592 C1593 1.363 . S
C1592 H1595 0.929 . S
C1593 C1592 1.363 . S
C1593 C1599 1.428 . S
H1594 C1590 0.930 . S
H1595 C1592 0.929 . S
S1596 N1597 1.613 . S
S1596 N1598 1.610 . S
N1597 S1596 1.613 . S
N1597 C1600 1.350 . S
N1598 S1596 1.610 . S
N1598 C1599 1.351 . S
C1599 C1593 1.428 . S
C1599 N1598 1.351 . S
C1599 C1600 1.434 . S
C1600 C1591 1.429 . S
C1600 N1597 1.350 . S
C1600 C1599 1.434 . S
C1601 C1602 1.369 . S
C1601 C1603 1.419 . S
C1601 H1605 0.930 . S
C1602 C1601 1.369 . S
C1602 C1611 1.429 . S
C1603 C1601 1.419 . S
C1603 C1604 1.363 . S
C1603 H1606 0.929 . S
C1604 C1603 1.363 . S
C1604 C1610 1.428 . S
H1605 C1601 0.930 . S
H1606 C1603 0.929 . S
S1607 N1608 1.613 . S
S1607 N1609 1.610 . S
N1608 S1607 1.613 . S
N1608 C1611 1.350 . S
N1609 S1607 1.610 . S
N1609 C1610 1.351 . S
C1610 C1604 1.428 . S
C1610 N1609 1.351 . S
C1610 C1611 1.434 . S
C1611 C1602 1.429 . S
C1611 N1608 1.350 . S
C1611 C1610 1.434 . S
C1612 C1613 1.369 . S
C1612 C1614 1.419 . S
C1612 H1616 0.930 . S
C1613 C1612 1.369 . S
C1613 C1622 1.429 . S
C1614 C1612 1.419 . S
C1614 C1615 1.363 . S
C1614 H1617 0.929 . S
C1615 C1614 1.363 . S
C1615 C1621 1.428 . S
H1616 C1612 0.930 . S
H1617 C1614 0.929 . S
S1618 N1619 1.613 . S
S1618 N1620 1.610 . S
N1619 S1618 1.613 . S
N1619 C1622 1.350 . S
N1620 S1618 1.610 . S
N1620 C1621 1.351 . S
C1621 C1615 1.428 . S
C1621 N1620 1.351 . S
C1621 C1622 1.434 . S
C1622 C1613 1.429 . S
C1622 N1619 1.350 . S
C1622 C1621 1.434 . S
C1623 C1624 1.369 . S
C1623 C1625 1.419 . S
C1623 H1627 0.930 . S
C1624 C1623 1.369 . S
C1624 C1633 1.429 . S
C1625 C1623 1.419 . S
C1625 C1626 1.363 . S
C1625 H1628 0.929 . S
C1626 C1625 1.363 . S
C1626 C1632 1.428 . S
H1627 C1623 0.930 . S
H1628 C1625 0.929 . S
S1629 N1630 1.613 . S
S1629 N1631 1.610 1_554 S
N1630 S1629 1.613 . S
N1630 C1633 1.350 1_554 S
N1631 S1629 1.610 1_556 S
N1631 C1632 1.351 . S
C1632 C1626 1.428 . S
C1632 N1631 1.351 . S
C1632 C1633 1.434 . S
C1633 C1624 1.429 . S
C1633 N1630 1.350 1_556 S
C1633 C1632 1.434 . S
C1634 C1635 1.369 . S
C1634 C1636 1.419 . S
C1634 H1638 0.930 . S
C1635 C1634 1.369 . S
C1635 C1644 1.429 . S
C1636 C1634 1.419 . S
C1636 C1637 1.363 . S
C1636 H1639 0.929 . S
C1637 C1636 1.363 . S
C1637 C1643 1.428 . S
H1638 C1634 0.930 . S
H1639 C1636 0.929 . S
S1640 N1641 1.613 . S
S1640 N1642 1.610 . S
N1641 S1640 1.613 . S
N1641 C1644 1.350 . S
N1642 S1640 1.610 . S
N1642 C1643 1.351 . S
C1643 C1637 1.428 . S
C1643 N1642 1.351 . S
C1643 C1644 1.434 . S
C1644 C1635 1.429 . S
C1644 N1641 1.350 . S
C1644 C1643 1.434 . S
C1645 C1646 1.369 . S
C1645 C1647 1.419 . S
C1645 H1649 0.930 . S
C1646 C1645 1.369 . S
C1646 C1655 1.429 . S
C1647 C1645 1.419 . S
C1647 C1648 1.363 . S
C1647 H1650 0.929 . S
C1648 C1647 1.363 . S
C1648 C1654 1.428 . S
H1649 C1645 0.930 . S
H1650 C1647 0.929 . S
S1651 N1652 1.613 . S
S1651 N1653 1.610 . S
N1652 S1651 1.613 . S
N1652 C1655 1.350 . S
N1653 S1651 1.610 . S
N1653 C1654 1.351 . S
C1654 C1648 1.428 . S
C1654 N1653 1.351 . S
C1654 C1655 1.434 . S
C1655 C1646 1.429 . S
C1655 N1652 1.350 . S
C1655 C1654 1.434 . S
C1656 C1657 1.369 . S
C1656 C1658 1.419 . S
C1656 H1660 0.930 . S
C1657 C1656 1.369 . S
C1657 C1666 1.429 . S
C1658 C1656 1.419 . S
C1658 C1659 1.363 . S
C1658 H1661 0.929 . S
C1659 C1658 1.363 . S
C1659 C1665 1.428 . S
H1660 C1656 0.930 . S
H1661 C1658 0.929 . S
S1662 N1663 1.613 . S
S1662 N1664 1.610 . S
N1663 S1662 1.613 . S
N1663 C1666 1.350 . S
N1664 S1662 1.610 . S
N1664 C1665 1.351 . S
C1665 C1659 1.428 . S
C1665 N1664 1.351 . S
C1665 C1666 1.434 . S
C1666 C1657 1.429 . S
C1666 N1663 1.350 . S
C1666 C1665 1.434 . S
C1667 C1668 1.369 . S
C1667 C1669 1.419 . S
C1667 H1671 0.930 . S
C1668 C1667 1.369 . S
C1668 C1677 1.429 . S
C1669 C1667 1.419 . S
C1669 C1670 1.363 . S
C1669 H1672 0.929 . S
C1670 C1669 1.363 . S
C1670 C1676 1.428 . S
H1671 C1667 0.930 . S
H1672 C1669 0.929 . S
S1673 N1674 1.613 . S
S1673 N1675 1.610 . S
N1674 S1673 1.613 . S
N1674 C1677 1.350 . S
N1675 S1673 1.610 . S
N1675 C1676 1.351 . S
C1676 C1670 1.428 . S
C1676 N1675 1.351 . S
C1676 C1677 1.434 . S
C1677 C1668 1.429 . S
C1677 N1674 1.350 . S
C1677 C1676 1.434 . S
C1678 C1679 1.369 . S
C1678 C1680 1.419 . S
C1678 H1682 0.930 . S
C1679 C1678 1.369 . S
C1679 C1688 1.429 . S
C1680 C1678 1.419 . S
C1680 C1681 1.363 . S
C1680 H1683 0.929 . S
C1681 C1680 1.363 . S
C1681 C1687 1.428 . S
H1682 C1678 0.930 . S
H1683 C1680 0.929 . S
S1684 N1685 1.613 . S
S1684 N1686 1.610 . S
N1685 S1684 1.613 . S
N1685 C1688 1.350 . S
N1686 S1684 1.610 . S
N1686 C1687 1.351 . S
C1687 C1681 1.428 . S
C1687 N1686 1.351 . S
C1687 C1688 1.434 . S
C1688 C1679 1.429 . S
C1688 N1685 1.350 . S
C1688 C1687 1.434 . S
C1689 C1690 1.369 . S
C1689 C1691 1.419 . S
C1689 H1693 0.930 . S
C1690 C1689 1.369 . S
C1690 C1699 1.429 . S
C1691 C1689 1.419 . S
C1691 C1692 1.363 . S
C1691 H1694 0.929 . S
C1692 C1691 1.363 . S
C1692 C1698 1.428 . S
H1693 C1689 0.930 . S
H1694 C1691 0.929 . S
S1695 N1696 1.613 . S
S1695 N1697 1.610 . S
N1696 S1695 1.613 . S
N1696 C1699 1.350 . S
N1697 S1695 1.610 . S
N1697 C1698 1.351 . S
C1698 C1692 1.428 . S
C1698 N1697 1.351 . S
C1698 C1699 1.434 . S
C1699 C1690 1.429 . S
C1699 N1696 1.350 . S
C1699 C1698 1.434 . S
C1700 C1701 1.369 . S
C1700 C1702 1.419 . S
C1700 H1704 0.930 . S
C1701 C1700 1.369 . S
C1701 C1710 1.429 . S
C1702 C1700 1.419 . S
C1702 C1703 1.363 . S
C1702 H1705 0.929 . S
C1703 C1702 1.363 . S
C1703 C1709 1.428 . S
H1704 C1700 0.930 . S
H1705 C1702 0.929 . S
S1706 N1707 1.613 . S
S1706 N1708 1.610 . S
N1707 S1706 1.613 . S
N1707 C1710 1.350 . S
N1708 S1706 1.610 . S
N1708 C1709 1.351 . S
C1709 C1703 1.428 . S
C1709 N1708 1.351 . S
C1709 C1710 1.434 . S
C1710 C1701 1.429 . S
C1710 N1707 1.350 . S
C1710 C1709 1.434 . S
C1711 C1712 1.369 . S
C1711 C1713 1.419 . S
C1711 H1715 0.930 . S
C1712 C1711 1.369 . S
C1712 C1721 1.429 . S
C1713 C1711 1.419 . S
C1713 C1714 1.363 . S
C1713 H1716 0.929 . S
C1714 C1713 1.363 . S
C1714 C1720 1.428 . S
H1715 C1711 0.930 . S
H1716 C1713 0.929 . S
S1717 N1718 1.613 . S
S1717 N1719 1.610 . S
N1718 S1717 1.613 . S
N1718 C1721 1.350 . S
N1719 S1717 1.610 . S
N1719 C1720 1.351 . S
C1720 C1714 1.428 . S
C1720 N1719 1.351 . S
C1720 C1721 1.434 . S
C1721 C1712 1.429 . S
C1721 N1718 1.350 . S
C1721 C1720 1.434 . S
C1722 C1723 1.369 . S
C1722 C1724 1.419 . S
C1722 H1726 0.930 . S
C1723 C1722 1.369 . S
C1723 C1732 1.429 . S
C1724 C1722 1.419 . S
C1724 C1725 1.363 . S
C1724 H1727 0.929 . S
C1725 C1724 1.363 . S
C1725 C1731 1.428 . S
H1726 C1722 0.930 . S
H1727 C1724 0.929 . S
S1728 N1729 1.613 . S
S1728 N1730 1.610 . S
N1729 S1728 1.613 . S
N1729 C1732 1.350 . S
N1730 S1728 1.610 . S
N1730 C1731 1.351 . S
C1731 C1725 1.428 . S
C1731 N1730 1.351 . S
C1731 C1732 1.434 . S
C1732 C1723 1.429 . S
C1732 N1729 1.350 . S
C1732 C1731 1.434 . S
C1733 C1734 1.369 . S
C1733 C1735 1.419 . S
C1733 H1737 0.930 . S
C1734 C1733 1.369 . S
C1734 C1743 1.429 . S
C1735 C1733 1.419 . S
C1735 C1736 1.363 1_455 S
C1735 H1738 0.929 . S
C1736 C1735 1.363 1_655 S
C1736 C1742 1.428 1_655 S
H1737 C1733 0.930 . S
H1738 C1735 0.929 . S
S1739 N1740 1.613 . S
S1739 N1741 1.610 1_465 S
N1740 S1739 1.613 . S
N1740 C1743 1.350 1_565 S
N1741 S1739 1.610 1_645 S
N1741 C1742 1.351 1_655 S
C1742 C1736 1.428 1_455 S
C1742 N1741 1.351 1_455 S
C1742 C1743 1.434 . S
C1743 C1734 1.429 . S
C1743 N1740 1.350 1_545 S
C1743 C1742 1.434 . S
C691 C354 1.334 . S
C689 C7 1.339 . S
C700 C23 1.299 . S
C702 C366 1.284 . S
C713 C401 1.229 . S
C711 C36 1.258 . S
C724 C410 1.281 . S
C722 C45 1.292 . S
C735 C365 1.282 . S
C733 C59 1.331 . S
C744 C78 1.240 . S
C746 C390 1.227 . S
C757 C409 1.272 . S
C755 C93 1.312 . S
C766 C105 1.394 . S
C768 C351 1.354 . S
C777 C115 1.371 . S
C779 C344 1.352 . S
C790 C368 1.292 . S
C788 C133 1.291 . S
C801 C387 1.257 . S
C799 C148 1.302 . S
C812 C412 1.255 . S
C810 C163 1.278 . S
C823 C373 1.222 . S
C821 C121 1.263 . S
C834 C398 1.257 . S
C832 C134 1.266 . S
C843 C147 1.313 . S
C845 C417 1.269 . S
C856 C357 1.328 . S
C854 C157 1.379 . S
C865 C175 1.340 . S
C867 C346 1.327 . S
C876 C191 1.334 . S
C878 C445 1.297 . S
C889 C461 1.251 . S
C887 C199 1.300 . S
C900 C475 1.228 . S
C898 C218 1.260 . S
C909 C231 1.371 . S
C911 C343 1.325 . S
C920 C241 1.316 . S
C922 C395 1.264 . S
C933 C478 1.302 . S
C931 C205 1.319 . S
C944 C442 1.265 . S
C942 C260 1.271 . S
C955 C498 1.167 . S
C953 C22 1.170 . S
C966 C522 1.292 . S
C964 C9 1.282 . S
C975 C49 1.328 . S
C977 C555 1.309 . S
C986 C31 1.276 . S
C988 C563 1.254 . S
C997 C101 1.277 . S
C999 C533 1.249 . S
C1008 C91 1.315 . S
C1010 C544 1.309 . S
C1021 C564 1.306 . S
C1019 C79 1.296 . S
C1030 C64 1.207 . S
C1032 C497 1.191 . S
C1041 C274 1.169 . S
C1043 C500 1.166 . S
C1054 C530 1.235 . S
C1052 C213 1.244 . S
C1065 C541 1.334 . S
C1063 C233 1.336 . S
C1076 C571 1.307 . S
C1074 C189 1.322 . S
C1087 C519 1.295 . S
C1085 C273 1.312 . S
C1098 C552 1.310 . S
C1096 C219 1.301 . S
C1109 C566 1.240 . S
C1107 C227 1.256 . S
C1118 C190 1.212 . S
C1120 C505 1.187 . S
C1131 C508 1.178 . S
C1129 C289 1.164 . S
C1140 C162 1.295 . S
C1142 C596 1.290 . S
C1153 C608 1.262 . S
C1151 C301 1.266 . S
C1162 C129 1.323 . S
C1164 C629 1.303 . S
C1175 C511 1.231 . S
C1173 C149 1.235 . S
C1186 C549 1.248 . S
C1184 C315 1.275 . S
C1197 C632 1.246 . S
C1195 C302 1.248 . S
C1206 C325 1.305 . S
C1208 C599 1.292 . S
C1217 C35 1.355 . S
C1219 C654 1.351 . S
C1228 C51 1.295 . S
C1230 C432 1.285 . S
C1241 C456 1.211 . S
C1239 C8 1.216 . S
C1250 C17 1.304 . S
C1252 C486 1.285 . S
C1261 C87 1.314 . S
C1263 C431 1.267 . S
C1272 C106 1.258 . S
C1274 C467 1.229 . S
C1285 C483 1.292 . S
C1283 C65 1.330 . S
C1296 C665 1.331 . S
C1294 C77 1.376 . S
C1307 C662 1.336 . S
C1305 C297 1.353 . S
C1318 C434 1.282 . S
C1316 C287 1.296 . S
C1329 C464 1.281 . S
C1327 C330 1.284 . S
C1338 C317 1.290 . S
C1340 C476 1.274 . S
C1351 C439 1.230 . S
C1349 C303 1.274 . S
C1360 C288 1.271 . S
C1362 C453 1.228 . S
C1373 C489 1.265 . S
C1371 C329 1.302 . S
C1382 C311 1.393 . S
C1384 C651 1.343 . S
C1395 C652 1.327 . S
C1393 C217 1.344 . S
C1404 C247 1.330 . S
C1406 C379 1.285 . S
C1417 C388 1.246 . S
C1415 C269 1.257 . S
C1426 C176 1.255 . S
C1428 C423 1.221 . S
C1439 C659 1.327 . S
C1437 C259 1.356 . S
C1450 C454 1.264 . S
C1448 C185 1.285 . S
C1461 C420 1.299 . S
C1459 C275 1.315 . S
C1472 C376 1.246 . S
C1470 C232 1.261 . S
C1481 C50 1.207 . S
C1483 C673 1.192 . S
C1492 C37 1.303 . S
C1494 C585 1.300 . S
C1503 C21 1.327 . S
C1505 C621 1.313 . S
C1516 C640 1.222 . S
C1514 C3 1.232 . S
C1527 C586 1.229 . S
C1525 C73 1.238 . S
C1536 C63 1.322 . S
C1538 C610 1.316 . S
C1549 C637 1.322 . S
C1547 C107 1.324 . S
C1558 C92 1.195 . S
C1560 C674 1.186 . S
C1571 C681 1.200 . S
C1569 C204 1.207 . S
C1580 C171 1.257 . S
C1582 C593 1.235 . S
C1591 C261 1.332 . S
C1593 C607 1.325 . S
C1604 C630 1.293 . S
C1602 C245 1.293 . S
C1615 C588 1.284 . S
C1613 C203 1.293 . S
C1624 C177 1.301 . S
C1626 C618 1.309 . S
C1637 C643 1.246 . S
C1635 C255 1.271 . S
C1648 C676 1.189 . S
C1646 C246 1.194 . S
C1659 C687 1.197 . S
C1657 C135 1.202 . S
C1670 C527 1.313 . S
C1668 C316 1.328 . S
C1679 C119 1.269 . S
C1681 C542 1.262 . S
C1690 C283 1.303 . S
C1692 C574 1.301 . S
C1703 C684 1.218 . S
C1701 C331 1.215 . S
C1714 C615 1.244 . S
C1712 C161 1.270 . S
C1725 C577 1.279 . S
C1723 C120 1.293 . S
C1736 C520 1.289 . S
C1734 C143 1.293 . S
