# Generated by pormake.
# Topology rtl, (3,6)-cn, num edge types: 1
# Building blocks:
#     Node 0, Type 0, BuildingBlock: WUSLED_clean_sbu_0, # of connection points: 3
#     Node 1, Type 0, BuildingBlock: WUSLED_clean_sbu_0, # of connection points: 3
#     Node 2, Type 0, BuildingBlock: WUSLED_clean_sbu_0, # of connection points: 3
#     Node 3, Type 0, BuildingBlock: WUSLED_clean_sbu_0, # of connection points: 3
#     Node 4, Type 1, BuildingBlock: FUNLAD_clean_sbu_0, # of connection points: 6
#     Node 5, Type 1, BuildingBlock: FUNLAD_clean_sbu_0, # of connection points: 6
#     Edge 6, Type (0, 1), BuildingBlock: ZUJKAS_clean_linker_0, # of connection points: 2
#     Edge 7, Type (0, 1), BuildingBlock: ZUJKAS_clean_linker_0, # of connection points: 2
#     Edge 8, Type (0, 1), BuildingBlock: ZUJKAS_clean_linker_0, # of connection points: 2
#     Edge 9, Type (0, 1), BuildingBlock: ZUJKAS_clean_linker_0, # of connection points: 2
#     Edge 10, Type (0, 1), BuildingBlock: ZUJKAS_clean_linker_0, # of connection points: 2
#     Edge 11, Type (0, 1), BuildingBlock: ZUJKAS_clean_linker_0, # of connection points: 2
#     Edge 12, Type (0, 1), BuildingBlock: ZUJKAS_clean_linker_0, # of connection points: 2
#     Edge 13, Type (0, 1), BuildingBlock: ZUJKAS_clean_linker_0, # of connection points: 2
#     Edge 14, Type (0, 1), BuildingBlock: ZUJKAS_clean_linker_0, # of connection points: 2
#     Edge 15, Type (0, 1), BuildingBlock: ZUJKAS_clean_linker_0, # of connection points: 2
#     Edge 16, Type (0, 1), BuildingBlock: ZUJKAS_clean_linker_0, # of connection points: 2
#     Edge 17, Type (0, 1), BuildingBlock: ZUJKAS_clean_linker_0, # of connection points: 2
# Relax obj value: 0.026
# Max RMSD: 0.079
# Mean RMSD: 0.068
data_MOF--net-rtl--node1-WUSLED_clean_sbu_0--node2-FUNLAD_clean_sbu_0--edge1-ZUJKAS_clean_linker_0
_symmetry_space_group_name_H-M    P1
_symmetry_Int_Tables_number       1
_symmetry_cell_setting            triclinic
loop_
_symmetry_equiv_pos_as_xyz
'x, y, z'
_cell_length_a     62.344701
_cell_length_b     51.898381
_cell_length_c     36.999788
_cell_angle_alpha  90.296113
_cell_angle_beta   91.123191
_cell_angle_gamma 90.363585
loop_
_atom_site_label
_atom_site_type_symbol
_atom_site_fract_x
_atom_site_fract_y
_atom_site_fract_z
_atom_type_partial_charge
C0 C 0.14764 0.80551 0.12573 0.0
C1 C 0.13092 0.8226 0.11752 0.0
C2 C 0.1251 0.82979 0.1817 0.0
C3 C 0.11976 0.83464 0.14525 0.0
C4 C 0.14169 0.81232 0.18973 0.0
C5 C 0.15289 0.80031 0.16194 0.0
U6 U 0.15706 0.79624 0.0259 0.0
O7 O 0.18688 0.79603 0.99513 0.0
O8 O 0.16583 0.76197 0.99436 0.0
C9 C 0.18433 0.7719 0.98491 0.0
C10 C 0.15994 0.79364 0.09663 0.0
C11 C 0.20313 0.75535 0.99048 0.0
C12 C 0.22743 0.73143 0.02978 0.0
C13 C 0.20924 0.74686 0.02509 0.0
C14 C 0.23348 0.73291 0.96533 0.0
C15 C 0.23983 0.72439 0.99994 0.0
C16 C 0.2153 0.74824 0.96068 0.0
C17 C 0.11948 0.83144 0.95959 0.0
C18 C 0.12687 0.84032 0.89658 0.0
C19 C 0.09108 0.84653 0.91934 0.0
C20 C 0.09807 0.83847 0.95354 0.0
C21 C 0.10544 0.84779 0.89054 0.0
C22 C 0.13382 0.8321 0.93081 0.0
C23 C 0.12659 0.82424 0.99629 0.0
O24 O 0.14939 0.77658 0.07668 0.0
O25 O 0.17122 0.80989 0.07745 0.0
O26 O 0.14523 0.83373 0.0072 0.0
O27 O 0.12391 0.79991 0.00488 0.0
H28 H 0.12663 0.82677 0.08965 0.0
H29 H 0.10689 0.84771 0.13813 0.0
H30 H 0.14637 0.80837 0.21748 0.0
H31 H 0.1658 0.78722 0.16871 0.0
H32 H 0.232 0.7254 0.05682 0.0
H33 H 0.20003 0.75229 0.04844 0.0
H34 H 0.24247 0.72754 0.94172 0.0
H35 H 0.21077 0.7546 0.93377 0.0
H36 H 0.13825 0.84081 0.87485 0.0
H37 H 0.07455 0.85244 0.91571 0.0
H38 H 0.08679 0.8381 0.97546 0.0
H39 H 0.15041 0.82656 0.93491 0.0
C40 C 0.64386 0.71452 0.63141 0.0
C41 C 0.62184 0.70883 0.62869 0.0
C42 C 0.62292 0.68962 0.68869 0.0
C43 C 0.61144 0.69665 0.65714 0.0
C44 C 0.64496 0.69559 0.69131 0.0
C45 C 0.6553 0.70796 0.66296 0.0
U46 U 0.65056 0.72249 0.53047 0.0
O47 O 0.6591 0.75618 0.4978 0.0
O48 O 0.67956 0.72192 0.49763 0.0
C49 C 0.67718 0.74592 0.48725 0.0
C50 C 0.65532 0.72589 0.60089 0.0
C51 C 0.69634 0.76234 0.4915 0.0
C52 C 0.72251 0.78526 0.5293 0.0
C53 C 0.70397 0.77002 0.52584 0.0
C54 C 0.72585 0.78527 0.46415 0.0
C55 C 0.73374 0.79294 0.49847 0.0
C56 C 0.70732 0.7701 0.46074 0.0
C57 C 0.61196 0.6866 0.46647 0.0
C58 C 0.61875 0.68116 0.40247 0.0
C59 C 0.58515 0.66631 0.42713 0.0
C60 C 0.59178 0.67501 0.4614 0.0
C61 C 0.59867 0.669 0.39735 0.0
C62 C 0.62532 0.68996 0.43675 0.0
C63 C 0.6192 0.69414 0.50304 0.0
O64 O 0.66585 0.7093 0.58112 0.0
O65 O 0.64462 0.74288 0.58153 0.0
O66 O 0.61698 0.71861 0.51139 0.0
O67 O 0.63783 0.68472 0.5134 0.0
H68 H 0.61271 0.71354 0.60442 0.0
H69 H 0.59442 0.69271 0.65432 0.0
H70 H 0.65442 0.6901 0.71486 0.0
H71 H 0.67235 0.71195 0.66539 0.0
H72 H 0.72828 0.79063 0.55612 0.0
H73 H 0.69567 0.76408 0.5499 0.0
H74 H 0.73392 0.79116 0.43985 0.0
H75 H 0.7016 0.76437 0.43403 0.0
H76 H 0.6294 0.68377 0.37999 0.0
H77 H 0.56971 0.65678 0.42418 0.0
H78 H 0.5813 0.67223 0.4841 0.0
H79 H 0.64094 0.69901 0.44019 0.0
C80 C 0.86955 0.2064 0.12015 0.0
C81 C 0.88621 0.18917 0.11306 0.0
C82 C 0.89167 0.18201 0.17759 0.0
C83 C 0.89717 0.17708 0.14151 0.0
C84 C 0.87509 0.19955 0.18451 0.0
C85 C 0.8641 0.21161 0.15598 0.0
U86 U 0.86079 0.21521 0.01972 0.0
O87 O 0.83115 0.21631 0.98658 0.0
O88 O 0.85307 0.24957 0.98751 0.0
C89 C 0.83427 0.24036 0.97692 0.0
C90 C 0.85761 0.21849 0.09019 0.0
C91 C 0.81596 0.25756 0.98223 0.0
C92 C 0.79191 0.28064 0.02172 0.0
C93 C 0.80972 0.26476 0.01707 0.0
C94 C 0.78649 0.28234 0.95674 0.0
C95 C 0.78001 0.28951 0.99158 0.0
C96 C 0.80431 0.26651 0.95215 0.0
C97 C 0.8983 0.17737 0.9577 0.0
C98 C 0.89512 0.17606 0.89214 0.0
C99 C 0.92322 0.15209 0.92287 0.0
C100 C 0.91604 0.16103 0.95612 0.0
C101 C 0.91276 0.1593 0.89047 0.0
C102 C 0.88791 0.185 0.92556 0.0
C103 C 0.89073 0.18562 0.99323 0.0
O104 O 0.86864 0.23503 0.07108 0.0
O105 O 0.84603 0.20248 0.07013 0.0
O106 O 0.87165 0.17707 1.00195 0.0
O107 O 0.8939 0.21002 1.00157 0.0
H108 H 0.89065 0.18498 0.08548 0.0
H109 H 0.91004 0.16397 0.13526 0.0
H110 H 0.8703 0.20356 0.21194 0.0
H111 H 0.85123 0.22482 0.16188 0.0
H112 H 0.78722 0.28556 0.04891 0.0
H113 H 0.81852 0.2579 0.04063 0.0
H114 H 0.77788 0.28911 0.93296 0.0
H115 H 0.80894 0.26116 0.92506 0.0
H116 H 0.88662 0.18182 0.86772 0.0
H117 H 0.93706 0.13959 0.92253 0.0
H118 H 0.92428 0.15505 0.98071 0.0
H119 H 0.87414 0.1976 0.92637 0.0
C120 C 0.37448 0.29989 0.40884 0.0
C121 C 0.39133 0.31719 0.41661 0.0
C122 C 0.39604 0.32468 0.35232 0.0
C123 C 0.40202 0.32949 0.38861 0.0
C124 C 0.37929 0.30702 0.34471 0.0
C125 C 0.36858 0.29476 0.37279 0.0
U126 U 0.36661 0.29087 0.5089 0.0
O127 O 0.33732 0.28987 0.54096 0.0
O128 O 0.35874 0.25646 0.54066 0.0
C129 C 0.34025 0.26583 0.55081 0.0
C130 C 0.36273 0.28774 0.4383 0.0
C131 C 0.32162 0.2487 0.54538 0.0
C132 C 0.2945 0.22864 0.5063 0.0
C133 C 0.31262 0.24448 0.5108 0.0
C134 C 0.29445 0.22088 0.57084 0.0
C135 C 0.28516 0.21672 0.53631 0.0
C136 C 0.31251 0.23674 0.57529 0.0
C137 C 0.40418 0.32756 0.57416 0.0
C138 C 0.3972 0.33386 0.63796 0.0
C139 C 0.43176 0.34578 0.614 0.0
C140 C 0.42492 0.33753 0.57964 0.0
C141 C 0.41791 0.34427 0.64349 0.0
C142 C 0.39041 0.32548 0.60358 0.0
C143 C 0.39704 0.32009 0.53749 0.0
O144 O 0.37379 0.27117 0.45777 0.0
O145 O 0.35152 0.30371 0.45798 0.0
O146 O 0.37818 0.3289 0.52715 0.0
O147 O 0.39995 0.29581 0.52869 0.0
H148 H 0.39611 0.32132 0.44437 0.0
H149 H 0.41503 0.34269 0.39539 0.0
H150 H 0.37414 0.30311 0.31709 0.0
H151 H 0.35555 0.2815 0.36637 0.0
H152 H 0.28788 0.2256 0.47932 0.0
H153 H 0.31954 0.25353 0.48738 0.0
H154 H 0.2875 0.2123 0.59456 0.0
H155 H 0.31925 0.23988 0.60219 0.0
H156 H 0.38626 0.3322 0.66023 0.0
H157 H 0.4477 0.35397 0.61726 0.0
H158 H 0.43573 0.33929 0.5572 0.0
H159 H 0.37436 0.31765 0.59986 0.0
C160 C 0.02566 0.97478 0.46513 0.0
N161 N 0.05126 0.03968 0.51907 0.0
C162 C 0.07042 0.02726 0.5192 0.0
C163 C 0.08963 0.04123 0.51968 0.0
C164 C 0.0892 0.06829 0.52004 0.0
C165 C 0.06918 0.08061 0.51976 0.0
C166 C 0.05033 0.06587 0.51929 0.0
Zn167 Zn 0.02357 0.01821 0.51856 0.0
C168 C 0.99123 0.03736 0.46521 0.0
N169 N 0.96634 0.97231 0.51739 0.0
C170 C 0.96743 0.94614 0.51682 0.0
C171 C 0.94711 0.98456 0.51792 0.0
C172 C 0.92799 0.97042 0.51795 0.0
C173 C 0.9286 0.94336 0.51732 0.0
C174 C 0.94868 0.93123 0.51671 0.0
Zn175 Zn 0.99399 0.99386 0.51781 0.0
O176 O 0.03613 0.99396 0.47793 0.0
C177 C 0.02619 0.97481 0.57142 0.0
O178 O 0.00707 0.9699 0.47699 0.0
H179 H 0.94659 0.00539 0.51826 0.0
H180 H 0.07082 0.00643 0.51891 0.0
H181 H 0.98288 0.93678 0.51655 0.0
O182 O 0.03667 0.99393 0.55941 0.0
O183 O 0.00753 0.97 0.5585 0.0
H184 H 0.03493 0.07536 0.51924 0.0
O185 O 0.98146 0.01812 0.55868 0.0
O186 O 0.01056 0.04214 0.55921 0.0
O187 O 0.98084 0.01815 0.4772 0.0
O188 O 0.00996 0.04215 0.47784 0.0
C189 C 0.99203 0.03728 0.57136 0.0
H190 H 0.10467 0.0309 0.51936 0.0
H191 H 0.06807 0.10142 0.52045 0.0
H192 H 0.91287 0.98058 0.51794 0.0
H193 H 0.94991 0.91043 0.51662 0.0
C194 C 0.4934 0.47541 0.96439 0.0
N195 N 0.55226 0.47281 0.02157 0.0
C196 C 0.55072 0.44668 0.01953 0.0
C197 C 0.56919 0.43159 0.0191 0.0
C198 C 0.58951 0.44346 0.02083 0.0
C199 C 0.59062 0.47047 0.02326 0.0
C200 C 0.57172 0.48483 0.02354 0.0
Zn201 Zn 0.52474 0.49429 0.02083 0.0
C202 C 0.52759 0.53842 0.96973 0.0
N203 N 0.46716 0.5389 0.01849 0.0
C204 C 0.44774 0.52676 0.01738 0.0
C205 C 0.46861 0.56507 0.0194 0.0
C206 C 0.45008 0.58008 0.0192 0.0
C207 C 0.4298 0.56807 0.01814 0.0
C208 C 0.4288 0.54102 0.01724 0.0
Zn209 Zn 0.4947 0.51748 0.01927 0.0
O210 O 0.51197 0.47126 0.9779 0.0
C211 C 0.4919 0.4733 0.07035 0.0
O212 O 0.48229 0.49377 0.97683 0.0
H213 H 0.48419 0.57436 0.02044 0.0
H214 H 0.53511 0.43748 0.01809 0.0
H215 H 0.44693 0.50594 0.01658 0.0
O216 O 0.51076 0.46931 0.05918 0.0
O217 O 0.48138 0.49237 0.05808 0.0
H218 H 0.57261 0.50563 0.02504 0.0
O219 O 0.50763 0.5408 0.06186 0.0
O220 O 0.53701 0.51773 0.06357 0.0
O221 O 0.50857 0.54218 0.98031 0.0
O222 O 0.53824 0.51964 0.9826 0.0
C223 C 0.52607 0.53636 0.07567 0.0
H224 H 0.56755 0.41082 0.0177 0.0
H225 H 0.60592 0.48047 0.02423 0.0
H226 H 0.45163 0.60086 0.02039 0.0
H227 H 0.41353 0.53095 0.01596 0.0
H228 H 0.2762 0.1709 0.56936 0.0
H229 H 0.24319 0.14528 0.5644 0.0
H230 H 0.21673 0.20001 0.48871 0.0
H231 H 0.24963 0.22583 0.49364 0.0
H232 H 0.20197 0.16137 0.5811 0.0
H233 H 0.20598 0.13096 0.43731 0.0
H234 H 0.22887 0.14396 0.46204 0.0
H235 H 0.20846 0.16509 0.4446 0.0
C236 C 0.26336 0.17749 0.55164 0.0
C237 C 0.26556 0.20042 0.53188 0.0
C238 C 0.24456 0.16277 0.54872 0.0
C239 C 0.22762 0.17057 0.52586 0.0
C240 C 0.22979 0.19333 0.5059 0.0
H241 H 0.09843 0.11251 0.483 0.0
H242 H 0.13183 0.13762 0.4851 0.0
C243 C 0.24861 0.20807 0.50876 0.0
C244 C 0.20731 0.15555 0.52434 0.0
H245 H 0.17351 0.12191 0.46739 0.0
C246 C 0.19579 0.15262 0.55629 0.0
C247 C 0.19925 0.14428 0.49188 0.0
C248 C 0.21134 0.14599 0.45704 0.0
C249 C 0.17626 0.13903 0.55659 0.0
C250 C 0.16823 0.12768 0.52418 0.0
C251 C 0.17971 0.13067 0.49218 0.0
C252 C 0.14803 0.11244 0.52304 0.0
C253 C 0.16418 0.13739 0.59146 0.0
C254 C 0.14618 0.08983 0.54338 0.0
C255 C 0.12709 0.07555 0.54245 0.0
C256 C 0.10951 0.08351 0.52094 0.0
C257 C 0.11153 0.10605 0.50027 0.0
C258 C 0.13065 0.12032 0.50122 0.0
H259 H 0.16947 0.15254 0.61106 0.0
H260 H 0.14664 0.13927 0.58647 0.0
H261 H 0.16717 0.11837 0.60408 0.0
H262 H 0.15953 0.08317 0.55993 0.0
H263 H 0.12605 0.05842 0.55893 0.0
H264 H 0.24535 0.68189 0.04288 0.0
H265 H 0.27754 0.6553 0.04964 0.0
H266 H 0.3104 0.70361 0.97381 0.0
H267 H 0.27859 0.7306 0.96758 0.0
H268 H 0.29878 0.6279 0.99473 0.0
H269 H 0.3526 0.70052 0.06026 0.0
H270 H 0.32383 0.70418 0.05781 0.0
H271 H 0.33984 0.71144 0.01924 0.0
C272 C 0.25954 0.68706 0.02804 0.0
C273 C 0.25941 0.7084 0.00472 0.0
C274 C 0.27785 0.67176 0.03177 0.0
C275 C 0.29644 0.67768 0.01259 0.0
C276 C 0.29636 0.69894 0.98933 0.0
H277 H 0.42162 0.61248 0.98077 0.0
H278 H 0.38889 0.63821 0.98066 0.0
C279 C 0.27807 0.71419 0.9855 0.0
C280 C 0.31571 0.66116 0.01581 0.0
H281 H 0.36908 0.66239 0.03839 0.0
C282 C 0.31412 0.63533 0.00458 0.0
C283 C 0.33568 0.67095 0.02862 0.0
C284 C 0.33813 0.69822 0.0425 0.0
C285 C 0.33216 0.61923 0.00473 0.0
C286 C 0.35222 0.62914 0.01707 0.0
C287 C 0.35371 0.65487 0.02881 0.0
C288 C 0.37197 0.61331 0.01735 0.0
C289 C 0.32973 0.59203 0.99057 0.0
C290 C 0.37343 0.59092 0.03834 0.0
C291 C 0.39214 0.57618 0.03851 0.0
C292 C 0.40985 0.58368 0.01792 0.0
C293 C 0.40838 0.60629 0.99722 0.0
C294 C 0.38966 0.62096 0.99701 0.0
H295 H 0.31481 0.58949 0.97399 0.0
H296 H 0.34364 0.58659 0.97393 0.0
H297 H 0.32897 0.57856 0.01371 0.0
H298 H 0.36016 0.58497 0.0549 0.0
H299 H 0.39287 0.55914 0.05525 0.0
H300 H 0.74181 0.83418 0.54353 0.0
H301 H 0.77455 0.86049 0.54794 0.0
H302 H 0.80347 0.81354 0.46592 0.0
H303 H 0.77093 0.78714 0.46143 0.0
H304 H 0.81673 0.84616 0.56497 0.0
H305 H 0.81077 0.88645 0.42662 0.0
H306 H 0.7886 0.87028 0.44773 0.0
H307 H 0.80968 0.85189 0.4277 0.0
C308 C 0.7552 0.82937 0.52659 0.0
C309 C 0.75369 0.80869 0.50189 0.0
C310 C 0.77384 0.84449 0.52903 0.0
C311 C 0.79128 0.83926 0.50676 0.0
C312 C 0.79 0.81832 0.48268 0.0
H313 H 0.91895 0.90023 0.47717 0.0
H314 H 0.88559 0.8751 0.47642 0.0
C315 C 0.77139 0.80325 0.48016 0.0
C316 C 0.81096 0.85544 0.50899 0.0
H317 H 0.84377 0.89339 0.45869 0.0
C318 C 0.82258 0.85666 0.54185 0.0
C319 C 0.81851 0.86914 0.47877 0.0
C320 C 0.80615 0.86963 0.4433 0.0
C321 C 0.8419 0.87064 0.54499 0.0
C322 C 0.84961 0.88399 0.5146 0.0
C323 C 0.83786 0.88301 0.48188 0.0
C324 C 0.86994 0.89894 0.516 0.0
C325 C 0.85422 0.87047 0.58051 0.0
C326 C 0.87213 0.92076 0.53834 0.0
C327 C 0.89119 0.93511 0.53892 0.0
C328 C 0.90842 0.92794 0.51708 0.0
C329 C 0.90612 0.90606 0.49469 0.0
C330 C 0.88703 0.89178 0.49405 0.0
H331 H 0.84875 0.85472 0.59843 0.0
H332 H 0.87167 0.86827 0.57605 0.0
H333 H 0.85177 0.88907 0.59473 0.0
H334 H 0.859 0.92683 0.55508 0.0
H335 H 0.89249 0.95173 0.55666 0.0
H336 H 0.74146 0.28619 0.95515 0.0
H337 H 0.70989 0.31331 0.96246 0.0
H338 H 0.7429 0.35629 0.0469 0.0
H339 H 0.77481 0.32967 0.03912 0.0
H340 H 0.68564 0.32072 0.02543 0.0
H341 H 0.72115 0.41262 0.97744 0.0
H342 H 0.73333 0.38172 0.96919 0.0
H343 H 0.73599 0.39675 0.01291 0.0
C344 C 0.74213 0.30162 0.97498 0.0
C345 C 0.76073 0.30587 0.99638 0.0
C346 C 0.72401 0.31698 0.97928 0.0
C347 C 0.72415 0.33701 0.00488 0.0
C348 C 0.74258 0.34119 0.02657 0.0
H349 H 0.62685 0.45014 0.06039 0.0
H350 H 0.65949 0.4242 0.05809 0.0
C351 C 0.76072 0.32578 0.02234 0.0
C352 C 0.7048 0.35315 0.0092 0.0
H353 H 0.68599 0.41449 0.99998 0.0
C354 C 0.68569 0.34122 0.01987 0.0
C355 C 0.70497 0.3799 1.00209 0.0
C356 C 0.72489 0.39356 0.98948 0.0
C357 C 0.66674 0.35535 0.02374 0.0
C358 C 0.66679 0.38203 0.01601 0.0
C359 C 0.68598 0.39403 0.00585 0.0
C360 C 0.64698 0.39768 0.01747 0.0
C361 C 0.64689 0.34163 0.03656 0.0
C362 C 0.62924 0.39162 0.995 0.0
C363 C 0.61061 0.40642 0.99618 0.0
C364 C 0.60939 0.42775 0.01966 0.0
C365 C 0.62731 0.43398 0.0418 0.0
C366 C 0.64594 0.41912 0.04064 0.0
H367 H 0.65095 0.32352 0.05097 0.0
H368 H 0.63756 0.35412 0.05486 0.0
H369 H 0.63652 0.33653 0.01285 0.0
H370 H 0.62988 0.37557 0.97624 0.0
H371 H 0.59729 0.40139 0.97823 0.0
H372 H 0.11344 0.88049 0.18445 0.0
H373 H 0.09547 0.90308 0.23333 0.0
H374 H 0.09314 0.83267 0.29454 0.0
H375 H 0.11109 0.80986 0.24566 0.0
H376 H 0.05573 0.89412 0.26394 0.0
H377 H 0.12186 0.88353 0.36551 0.0
H378 H 0.12537 0.87722 0.31798 0.0
H379 H 0.11235 0.85378 0.34579 0.0
C380 C 0.10895 0.86973 0.20816 0.0
C381 C 0.11378 0.84337 0.21119 0.0
C382 C 0.09875 0.8827 0.23614 0.0
C383 C 0.09324 0.86965 0.26778 0.0
C384 C 0.09767 0.84325 0.27069 0.0
H385 H 0.00812 0.93193 0.43204 0.0
H386 H 0.02387 0.90547 0.38453 0.0
C387 C 0.10793 0.83025 0.24273 0.0
C388 C 0.08285 0.88379 0.29761 0.0
H389 H 0.08976 0.9023 0.38581 0.0
C390 C 0.06313 0.89587 0.29063 0.0
C391 C 0.09267 0.88628 0.33228 0.0
C392 C 0.11432 0.87473 0.3409 0.0
C393 C 0.05293 0.91038 0.31738 0.0
C394 C 0.06258 0.91252 0.3522 0.0
C395 C 0.08231 0.90044 0.35918 0.0
C396 C 0.05299 0.92819 0.38133 0.0
C397 C 0.03224 0.92389 0.30783 0.0
C398 C 0.06436 0.94936 0.3959 0.0
C399 C 0.05549 0.9644 0.42315 0.0
C400 C 0.03507 0.95852 0.43653 0.0
C401 C 0.02382 0.93709 0.4222 0.0
C402 C 0.03274 0.92202 0.39491 0.0
H403 H 0.02965 0.92532 0.27811 0.0
H404 H 0.0186 0.91287 0.31901 0.0
H405 H 0.03204 0.9436 0.31964 0.0
H406 H 0.08004 0.9544 0.3859 0.0
H407 H 0.06464 0.98071 0.43362 0.0
H408 H 0.62938 0.69502 0.76202 0.0
H409 H 0.61314 0.66987 0.81012 0.0
H410 H 0.57494 0.62799 0.73084 0.0
H411 H 0.59191 0.65197 0.68249 0.0
H412 H 0.5721 0.66467 0.8311 0.0
H413 H 0.60275 0.56999 0.7862 0.0
H414 H 0.61222 0.60001 0.76784 0.0
H415 H 0.58727 0.58605 0.75182 0.0
C416 C 0.61773 0.68023 0.75472 0.0
C417 C 0.61214 0.6754 0.71825 0.0
C418 C 0.60832 0.66602 0.78231 0.0
C419 C 0.59312 0.6467 0.77406 0.0
C420 C 0.58699 0.64238 0.73782 0.0
H421 H 0.50746 0.57467 0.9279 0.0
H422 H 0.52322 0.60149 0.88106 0.0
C423 C 0.59651 0.65642 0.7102 0.0
C424 C 0.5837 0.6311 0.80338 0.0
H425 H 0.57678 0.56931 0.83235 0.0
C426 C 0.57318 0.64382 0.83148 0.0
C427 C 0.58542 0.60393 0.80414 0.0
C428 C 0.59771 0.58919 0.7761 0.0
C429 C 0.56408 0.63009 0.86006 0.0
C430 C 0.56508 0.60284 0.86006 0.0
C431 C 0.57583 0.59017 0.83217 0.0
C432 C 0.55546 0.58702 0.88898 0.0
C433 C 0.55392 0.64497 0.89034 0.0
C434 C 0.56819 0.56945 0.9084 0.0
C435 C 0.55916 0.55379 0.93476 0.0
C436 C 0.53719 0.55543 0.94233 0.0
C437 C 0.52447 0.5731 0.92295 0.0
C438 C 0.53349 0.58859 0.89632 0.0
H439 H 0.56 0.66513 0.89179 0.0
H440 H 0.53632 0.64569 0.88548 0.0
H441 H 0.55701 0.63564 0.91685 0.0
H442 H 0.58516 0.56782 0.90313 0.0
H443 H 0.56941 0.5404 0.9492 0.0
H444 H 0.9053 0.20218 0.24283 0.0
H445 H 0.92363 0.17975 0.29254 0.0
H446 H 0.92173 0.10916 0.23056 0.0
H447 H 0.90337 0.13135 0.18088 0.0
H448 H 0.90975 0.13791 0.33196 0.0
H449 H 0.98484 0.11464 0.26129 0.0
H450 H 0.96581 0.13788 0.24416 0.0
H451 H 0.96109 0.10397 0.23727 0.0
C452 C 0.90874 0.18186 0.23982 0.0
C453 C 0.90298 0.16859 0.20779 0.0
C454 C 0.91929 0.16911 0.26818 0.0
C455 C 0.92437 0.1429 0.265 0.0
C456 C 0.91846 0.12954 0.23324 0.0
H457 H 0.95179 0.03206 0.4323 0.0
H458 H 0.93599 0.05895 0.38492 0.0
C459 C 0.90795 0.14226 0.20487 0.0
C460 C 0.93518 0.12925 0.29535 0.0
H461 H 0.97906 0.093 0.31706 0.0
C462 C 0.92498 0.12825 0.3288 0.0
C463 C 0.9552 0.11696 0.29133 0.0
C464 C 0.9675 0.11859 0.25669 0.0
C465 C 0.93395 0.11462 0.35803 0.0
C466 C 0.95346 0.10131 0.35348 0.0
C467 C 0.96399 0.10298 0.32038 0.0
C468 C 0.96303 0.0852 0.38252 0.0
C469 C 0.92251 0.11473 0.3936 0.0
C470 C 0.9837 0.09065 0.39631 0.0
C471 C 0.99287 0.0752 0.42328 0.0
C472 C 0.98156 0.05389 0.43678 0.0
C473 C 0.9609 0.04839 0.42268 0.0
C474 C 0.95178 0.06385 0.39573 0.0
H475 H 0.91145 0.13135 0.39573 0.0
H476 H 0.91284 0.09681 0.3958 0.0
H477 H 0.93413 0.11548 0.41674 0.0
H478 H 0.99271 0.10696 0.3863 0.0
H479 H 0.00882 0.07994 0.43348 0.0
H480 H 0.45669 0.33776 0.67811 0.0
H481 H 0.4689 0.35687 0.7356 0.0
H482 H 0.40736 0.39316 0.74726 0.0
H483 H 0.39502 0.37403 0.68996 0.0
H484 H 0.47244 0.40812 0.75117 0.0
H485 H 0.41672 0.36177 0.84641 0.0
H486 H 0.42015 0.3501 0.80085 0.0
H487 H 0.40327 0.37738 0.80929 0.0
C488 C 0.44572 0.34969 0.69305 0.0
C489 C 0.42488 0.35436 0.67952 0.0
C490 C 0.45269 0.36051 0.72593 0.0
C491 C 0.43895 0.37615 0.74598 0.0
C492 C 0.41806 0.38063 0.73274 0.0
H493 H 0.45412 0.47827 0.93031 0.0
H494 H 0.44117 0.45318 0.878 0.0
C495 C 0.41104 0.36972 0.69994 0.0
C496 C 0.44696 0.38918 0.77943 0.0
H497 H 0.43707 0.39766 0.8692 0.0
C498 C 0.46483 0.40564 0.77705 0.0
C499 C 0.43696 0.38598 0.81314 0.0
C500 C 0.41834 0.36766 0.81776 0.0
C501 C 0.47268 0.41944 0.80726 0.0
C502 C 0.46254 0.41646 0.84084 0.0
C503 C 0.44476 0.39991 0.84335 0.0
C504 C 0.47008 0.43067 0.87352 0.0
C505 C 0.49143 0.43762 0.80283 0.0
C506 C 0.49047 0.42595 0.88867 0.0
C507 C 0.49793 0.44022 0.91854 0.0
C508 C 0.48509 0.45946 0.93384 0.0
C509 C 0.46445 0.46369 0.91909 0.0
C510 C 0.45699 0.44935 0.88926 0.0
H511 H 0.49437 0.44191 0.77395 0.0
H512 H 0.48871 0.45604 0.8174 0.0
H513 H 0.50612 0.4287 0.8145 0.0
H514 H 0.50067 0.41134 0.87721 0.0
H515 H 0.51385 0.43636 0.92935 0.0
H516 H 0.55937 0.6717 0.36314 0.0
H517 H 0.54815 0.65098 0.30609 0.0
H518 H 0.61199 0.62127 0.29346 0.0
H519 H 0.62327 0.64151 0.3507 0.0
H520 H 0.56664 0.65593 0.23358 0.0
H521 H 0.57115 0.55692 0.29002 0.0
H522 H 0.57005 0.58532 0.31833 0.0
H523 H 0.59461 0.57682 0.29687 0.0
C524 C 0.57101 0.66073 0.34822 0.0
C525 C 0.59218 0.65811 0.36153 0.0
C526 C 0.56461 0.64906 0.31558 0.0
C527 C 0.57919 0.6344 0.29587 0.0
C528 C 0.60046 0.63231 0.30853 0.0
H529 H 0.5658 0.53422 0.10813 0.0
H530 H 0.57922 0.55952 0.15981 0.0
C531 C 0.60691 0.64406 0.34106 0.0
C532 C 0.57201 0.62066 0.2626 0.0
H533 H 0.56325 0.56045 0.22765 0.0
C534 C 0.56586 0.63507 0.23219 0.0
C535 C 0.57108 0.59346 0.261 0.0
C536 C 0.5769 0.57712 0.29332 0.0
C537 C 0.55906 0.62291 0.19989 0.0
C538 C 0.55795 0.59567 0.19837 0.0
C539 C 0.56416 0.58132 0.22883 0.0
C540 C 0.55012 0.58154 0.16569 0.0
C541 C 0.55357 0.63934 0.16752 0.0
C542 C 0.52928 0.58547 0.15187 0.0
C543 C 0.52158 0.57112 0.12221 0.0
C544 C 0.53452 0.55234 0.10608 0.0
C545 C 0.55542 0.54852 0.11992 0.0
C546 C 0.56312 0.56296 0.14945 0.0
H547 H 0.56111 0.65876 0.16973 0.0
H548 H 0.5588 0.63008 0.14208 0.0
H549 H 0.53593 0.64195 0.16579 0.0
H550 H 0.51877 0.59924 0.16449 0.0
H551 H 0.50536 0.57444 0.11236 0.0
H552 H 0.92497 0.11008 0.87497 0.0
H553 H 0.93851 0.09329 0.8181 0.0
H554 H 0.93062 0.16795 0.7692 0.0
H555 H 0.91708 0.18503 0.82629 0.0
H556 H 0.91575 0.1272 0.72526 0.0
H557 H 0.99796 0.10846 0.77789 0.0
H558 H 0.9775 0.0938 0.80454 0.0
H559 H 0.97916 0.12835 0.80168 0.0
C560 C 0.92629 0.12303 0.85225 0.0
C561 C 0.92018 0.14899 0.85531 0.0
C562 C 0.93404 0.11339 0.81976 0.0
C563 C 0.93598 0.1295 0.78966 0.0
C564 C 0.92937 0.15524 0.79221 0.0
H565 H 0.00965 0.08051 0.603 0.0
H566 H 0.99559 0.10553 0.65343 0.0
C567 C 0.92157 0.16493 0.82478 0.0
C568 C 0.94477 0.11924 0.75556 0.0
H569 H 0.98837 0.08885 0.72128 0.0
C570 C 0.9317 0.11903 0.72424 0.0
C571 C 0.96572 0.109 0.75412 0.0
C572 C 0.981 0.11011 0.78625 0.0
C573 C 0.93872 0.10791 0.69187 0.0
C574 C 0.95921 0.09634 0.69106 0.0
C575 C 0.97257 0.09747 0.72201 0.0
C576 C 0.96692 0.08225 0.65884 0.0
C577 C 0.92415 0.10875 0.65887 0.0
C578 C 0.9555 0.06082 0.64515 0.0
C579 C 0.96344 0.04654 0.61626 0.0
C580 C 0.98311 0.05323 0.60072 0.0
C581 C 0.99445 0.07483 0.61433 0.0
C582 C 0.98644 0.08915 0.64315 0.0
H583 H 0.91248 0.12478 0.66059 0.0
H584 H 0.93348 0.11103 0.63381 0.0
H585 H 0.91489 0.09045 0.6568 0.0
H586 H 0.94068 0.05473 0.65737 0.0
H587 H 0.95435 0.02994 0.60661 0.0
H588 H 0.40885 0.30506 0.28729 0.0
H589 H 0.42646 0.32809 0.23831 0.0
H590 H 0.42527 0.39832 0.301 0.0
H591 H 0.40764 0.37554 0.34994 0.0
H592 H 0.41196 0.36986 0.19896 0.0
H593 H 0.48795 0.39418 0.27197 0.0
H594 H 0.46921 0.3705 0.28835 0.0
H595 H 0.46452 0.4043 0.29548 0.0
C596 C 0.4123 0.32543 0.2906 0.0
C597 C 0.40696 0.33843 0.32262 0.0
C598 C 0.42244 0.33852 0.26267 0.0
C599 C 0.4275 0.36481 0.26627 0.0
C600 C 0.42201 0.37789 0.29802 0.0
H601 H 0.45251 0.47722 0.10109 0.0
H602 H 0.43719 0.44955 0.1473 0.0
C603 C 0.41192 0.36483 0.32597 0.0
C604 C 0.43786 0.37882 0.23638 0.0
H605 H 0.48132 0.41611 0.21636 0.0
C606 C 0.4272 0.37982 0.20265 0.0
C607 C 0.45789 0.39149 0.24111 0.0
C608 C 0.47069 0.3899 0.27607 0.0
C609 C 0.43573 0.3938 0.17383 0.0
C610 C 0.45525 0.40748 0.17911 0.0
C611 C 0.46623 0.40583 0.21249 0.0
C612 C 0.46441 0.42393 0.15054 0.0
C613 C 0.42382 0.39364 0.13793 0.0
C614 C 0.48501 0.41906 0.13758 0.0
C615 C 0.49389 0.43497 0.11132 0.0
C616 C 0.48238 0.45615 0.09769 0.0
C617 C 0.46177 0.461 0.11084 0.0
C618 C 0.45292 0.4451 0.13711 0.0
H619 H 0.41282 0.37678 0.13527 0.0
H620 H 0.41401 0.41135 0.13569 0.0
H621 H 0.43513 0.39333 0.11511 0.0
H622 H 0.49419 0.40291 0.14776 0.0
H623 H 0.50982 0.43071 0.10184 0.0
H624 H 0.12633 0.88163 0.84674 0.0
H625 H 0.11316 0.90037 0.78999 0.0
H626 H 0.05505 0.85528 0.7967 0.0
H627 H 0.06807 0.83653 0.85352 0.0
H628 H 0.1004 0.87828 0.72406 0.0
H629 H 0.0326 0.9287 0.78836 0.0
H630 H 0.05429 0.91458 0.81429 0.0
H631 H 0.03304 0.89458 0.79597 0.0
C632 C 0.11085 0.87548 0.83592 0.0
C633 C 0.09815 0.85776 0.85479 0.0
C634 C 0.10332 0.88628 0.80357 0.0
C635 C 0.08296 0.8796 0.7895 0.0
C636 C 0.07058 0.86119 0.80754 0.0
H637 H 0.00719 0.93432 0.60579 0.0
H638 H 0.02153 0.90967 0.65692 0.0
C639 C 0.07805 0.85048 0.83997 0.0
C640 C 0.07452 0.89226 0.75634 0.0
H641 H 0.03396 0.9304 0.72457 0.0
C642 C 0.08589 0.8897 0.72414 0.0
C643 C 0.0556 0.9072 0.75656 0.0
C644 C 0.04325 0.91168 0.79069 0.0
C645 C 0.07869 0.90145 0.69202 0.0
C646 C 0.05981 0.91639 0.6923 0.0
C647 C 0.04839 0.91882 0.72443 0.0
C648 C 0.05181 0.93024 0.65984 0.0
C649 C 0.09118 0.89747 0.65795 0.0
C650 C 0.06408 0.95 0.64457 0.0
C651 C 0.05593 0.96416 0.61539 0.0
C652 C 0.03529 0.95889 0.60103 0.0
C653 C 0.02315 0.93886 0.61614 0.0
C654 C 0.0313 0.92476 0.64537 0.0
H655 H 0.10181 0.88041 0.65994 0.0
H656 H 0.08023 0.89497 0.63415 0.0
H657 H 0.10141 0.91467 0.6533 0.0
H658 H 0.07977 0.95488 0.65577 0.0
H659 H 0.06568 0.97951 0.60449 0.0
loop_
_geom_bond_atom_site_label_1
_geom_bond_atom_site_label_2
_geom_bond_distance
_geom_bond_site_symmetry_2
_ccdc_geom_bond_type
C0 C1 1.264 . S
C0 C5 1.479 . S
C0 C10 1.465 . S
C1 C0 1.264 . S
C1 C3 1.339 . S
C1 H28 0.931 . S
C2 C3 1.395 . S
C2 C4 1.320 . S
C3 C1 1.339 . S
C3 C2 1.395 . S
C3 H29 0.929 . S
C4 C2 1.320 . S
C4 C5 1.405 . S
C4 H30 0.930 . S
C5 C0 1.479 . S
C5 C4 1.405 . S
C5 H31 0.931 . S
U6 O7 2.454 . S
U6 O8 2.458 1_554 S
U6 C9 2.984 . S
U6 C10 2.847 . S
U6 C23 2.882 1_554 S
U6 O24 2.441 . S
U6 O25 2.420 . S
U6 O26 2.455 1_554 S
U6 O27 2.449 1_554 S
O7 U6 2.454 . S
O7 C9 1.353 . S
O8 U6 2.458 1_556 S
O8 C9 1.286 1_556 S
C9 U6 2.984 . S
C9 O7 1.353 . S
C9 O8 1.286 1_554 S
C9 C11 1.363 . S
C10 C0 1.465 . S
C10 U6 2.847 . S
C10 O24 1.249 . S
C10 O25 1.202 . S
C11 C9 1.363 . S
C11 C13 1.408 . S
C11 C16 1.342 1_554 S
C12 C13 1.310 . S
C12 C15 1.461 . S
C12 H32 0.932 . S
C13 C11 1.408 . S
C13 C12 1.310 . S
C13 H33 0.930 . S
C14 C15 1.474 1_556 S
C14 C16 1.285 . S
C14 H34 0.929 . S
C15 C12 1.461 . S
C15 C14 1.474 1_554 S
C16 C11 1.342 1_556 S
C16 C14 1.285 . S
C16 H35 0.930 . S
C17 C20 1.424 . S
C17 C22 1.245 . S
C17 C23 1.428 . S
C18 C21 1.260 . S
C18 C22 1.477 . S
C18 H36 0.932 . S
C19 C20 1.384 . S
C19 C21 1.479 . S
C19 H37 0.929 . S
C20 C17 1.424 . S
C20 C19 1.384 . S
C20 H38 0.928 . S
C21 C18 1.260 . S
C21 C19 1.479 . S
C22 C17 1.245 . S
C22 C18 1.477 . S
C22 H39 0.932 . S
C23 U6 2.882 1_556 S
C23 C17 1.428 . S
C23 O26 1.301 . S
C23 O27 1.282 . S
O24 U6 2.441 . S
O24 C10 1.249 . S
O25 U6 2.420 . S
O25 C10 1.202 . S
O26 U6 2.455 1_556 S
O26 C23 1.301 . S
O27 U6 2.449 1_556 S
O27 C23 1.282 . S
H28 C1 0.931 . S
H29 C3 0.929 . S
H30 C4 0.930 . S
H31 C5 0.931 . S
H32 C12 0.932 . S
H33 C13 0.930 . S
H34 C14 0.929 . S
H35 C16 0.930 . S
H36 C18 0.932 . S
H37 C19 0.929 . S
H38 C20 0.928 . S
H39 C22 0.932 . S
C40 C41 1.264 . S
C40 C45 1.479 . S
C40 C50 1.465 . S
C41 C40 1.264 . S
C41 C43 1.339 . S
C41 H68 0.931 . S
C42 C43 1.395 . S
C42 C44 1.320 . S
C43 C41 1.339 . S
C43 C42 1.395 . S
C43 H69 0.929 . S
C44 C42 1.320 . S
C44 C45 1.405 . S
C44 H70 0.930 . S
C45 C40 1.479 . S
C45 C44 1.405 . S
C45 H71 0.931 . S
U46 O47 2.454 . S
U46 O48 2.458 . S
U46 C49 2.984 . S
U46 C50 2.847 . S
U46 C63 2.882 . S
U46 O64 2.441 . S
U46 O65 2.420 . S
U46 O66 2.455 . S
U46 O67 2.449 . S
O47 U46 2.454 . S
O47 C49 1.353 . S
O48 U46 2.458 . S
O48 C49 1.286 . S
C49 U46 2.984 . S
C49 O47 1.353 . S
C49 O48 1.286 . S
C49 C51 1.363 . S
C50 C40 1.465 . S
C50 U46 2.847 . S
C50 O64 1.249 . S
C50 O65 1.202 . S
C51 C49 1.363 . S
C51 C53 1.408 . S
C51 C56 1.342 . S
C52 C53 1.310 . S
C52 C55 1.461 . S
C52 H72 0.932 . S
C53 C51 1.408 . S
C53 C52 1.310 . S
C53 H73 0.930 . S
C54 C55 1.474 . S
C54 C56 1.285 . S
C54 H74 0.929 . S
C55 C52 1.461 . S
C55 C54 1.474 . S
C56 C51 1.342 . S
C56 C54 1.285 . S
C56 H75 0.930 . S
C57 C60 1.424 . S
C57 C62 1.245 . S
C57 C63 1.428 . S
C58 C61 1.260 . S
C58 C62 1.477 . S
C58 H76 0.932 . S
C59 C60 1.384 . S
C59 C61 1.479 . S
C59 H77 0.929 . S
C60 C57 1.424 . S
C60 C59 1.384 . S
C60 H78 0.928 . S
C61 C58 1.260 . S
C61 C59 1.479 . S
C62 C57 1.245 . S
C62 C58 1.477 . S
C62 H79 0.932 . S
C63 U46 2.882 . S
C63 C57 1.428 . S
C63 O66 1.301 . S
C63 O67 1.282 . S
O64 U46 2.441 . S
O64 C50 1.249 . S
O65 U46 2.420 . S
O65 C50 1.202 . S
O66 U46 2.455 . S
O66 C63 1.301 . S
O67 U46 2.449 . S
O67 C63 1.282 . S
H68 C41 0.931 . S
H69 C43 0.929 . S
H70 C44 0.930 . S
H71 C45 0.931 . S
H72 C52 0.932 . S
H73 C53 0.930 . S
H74 C54 0.929 . S
H75 C56 0.930 . S
H76 C58 0.932 . S
H77 C59 0.929 . S
H78 C60 0.928 . S
H79 C62 0.932 . S
C80 C81 1.264 . S
C80 C85 1.479 . S
C80 C90 1.465 . S
C81 C80 1.264 . S
C81 C83 1.339 . S
C81 H108 0.931 . S
C82 C83 1.395 . S
C82 C84 1.320 . S
C83 C81 1.339 . S
C83 C82 1.395 . S
C83 H109 0.929 . S
C84 C82 1.320 . S
C84 C85 1.405 . S
C84 H110 0.930 . S
C85 C80 1.479 . S
C85 C84 1.405 . S
C85 H111 0.931 . S
U86 O87 2.454 . S
U86 O88 2.458 1_554 S
U86 C89 2.984 . S
U86 C90 2.847 . S
U86 C103 2.882 1_554 S
U86 O104 2.441 . S
U86 O105 2.420 . S
U86 O106 2.455 1_554 S
U86 O107 2.449 1_554 S
O87 U86 2.454 . S
O87 C89 1.353 . S
O88 U86 2.458 1_556 S
O88 C89 1.286 1_556 S
C89 U86 2.984 . S
C89 O87 1.353 . S
C89 O88 1.286 1_554 S
C89 C91 1.363 . S
C90 C80 1.465 . S
C90 U86 2.847 . S
C90 O104 1.249 . S
C90 O105 1.202 . S
C91 C89 1.363 . S
C91 C93 1.408 . S
C91 C96 1.342 1_554 S
C92 C93 1.310 . S
C92 C95 1.461 . S
C92 H112 0.932 . S
C93 C91 1.408 . S
C93 C92 1.310 . S
C93 H113 0.930 . S
C94 C95 1.474 1_556 S
C94 C96 1.285 . S
C94 H114 0.929 . S
C95 C92 1.461 . S
C95 C94 1.474 1_554 S
C96 C91 1.342 1_556 S
C96 C94 1.285 . S
C96 H115 0.930 . S
C97 C100 1.424 . S
C97 C102 1.245 . S
C97 C103 1.428 . S
C98 C101 1.260 . S
C98 C102 1.477 . S
C98 H116 0.932 . S
C99 C100 1.384 . S
C99 C101 1.479 . S
C99 H117 0.929 . S
C100 C97 1.424 . S
C100 C99 1.384 . S
C100 H118 0.928 . S
C101 C98 1.260 . S
C101 C99 1.479 . S
C102 C97 1.245 . S
C102 C98 1.477 . S
C102 H119 0.932 . S
C103 U86 2.882 1_556 S
C103 C97 1.428 . S
C103 O106 1.301 . S
C103 O107 1.282 . S
O104 U86 2.441 . S
O104 C90 1.249 . S
O105 U86 2.420 . S
O105 C90 1.202 . S
O106 U86 2.455 1_556 S
O106 C103 1.301 . S
O107 U86 2.449 1_556 S
O107 C103 1.282 . S
H108 C81 0.931 . S
H109 C83 0.929 . S
H110 C84 0.930 . S
H111 C85 0.931 . S
H112 C92 0.932 . S
H113 C93 0.930 . S
H114 C94 0.929 . S
H115 C96 0.930 . S
H116 C98 0.932 . S
H117 C99 0.929 . S
H118 C100 0.928 . S
H119 C102 0.932 . S
C120 C121 1.264 . S
C120 C125 1.479 . S
C120 C130 1.465 . S
C121 C120 1.264 . S
C121 C123 1.339 . S
C121 H148 0.931 . S
C122 C123 1.395 . S
C122 C124 1.320 . S
C123 C121 1.339 . S
C123 C122 1.395 . S
C123 H149 0.929 . S
C124 C122 1.320 . S
C124 C125 1.405 . S
C124 H150 0.930 . S
C125 C120 1.479 . S
C125 C124 1.405 . S
C125 H151 0.931 . S
U126 O127 2.454 . S
U126 O128 2.458 . S
U126 C129 2.984 . S
U126 C130 2.847 . S
U126 C143 2.882 . S
U126 O144 2.441 . S
U126 O145 2.420 . S
U126 O146 2.455 . S
U126 O147 2.449 . S
O127 U126 2.454 . S
O127 C129 1.353 . S
O128 U126 2.458 . S
O128 C129 1.286 . S
C129 U126 2.984 . S
C129 O127 1.353 . S
C129 O128 1.286 . S
C129 C131 1.363 . S
C130 C120 1.465 . S
C130 U126 2.847 . S
C130 O144 1.249 . S
C130 O145 1.202 . S
C131 C129 1.363 . S
C131 C133 1.408 . S
C131 C136 1.342 . S
C132 C133 1.310 . S
C132 C135 1.461 . S
C132 H152 0.932 . S
C133 C131 1.408 . S
C133 C132 1.310 . S
C133 H153 0.930 . S
C134 C135 1.474 . S
C134 C136 1.285 . S
C134 H154 0.929 . S
C135 C132 1.461 . S
C135 C134 1.474 . S
C136 C131 1.342 . S
C136 C134 1.285 . S
C136 H155 0.930 . S
C137 C140 1.424 . S
C137 C142 1.245 . S
C137 C143 1.428 . S
C138 C141 1.260 . S
C138 C142 1.477 . S
C138 H156 0.932 . S
C139 C140 1.384 . S
C139 C141 1.479 . S
C139 H157 0.929 . S
C140 C137 1.424 . S
C140 C139 1.384 . S
C140 H158 0.928 . S
C141 C138 1.260 . S
C141 C139 1.479 . S
C142 C137 1.245 . S
C142 C138 1.477 . S
C142 H159 0.932 . S
C143 U126 2.882 . S
C143 C137 1.428 . S
C143 O146 1.301 . S
C143 O147 1.282 . S
O144 U126 2.441 . S
O144 C130 1.249 . S
O145 U126 2.420 . S
O145 C130 1.202 . S
O146 U126 2.455 . S
O146 C143 1.301 . S
O147 U126 2.449 . S
O147 C143 1.282 . S
H148 C121 0.931 . S
H149 C123 0.929 . S
H150 C124 0.930 . S
H151 C125 0.931 . S
H152 C132 0.932 . S
H153 C133 0.930 . S
H154 C134 0.929 . S
H155 C136 0.930 . S
H156 C138 0.932 . S
H157 C139 0.929 . S
H158 C140 0.928 . S
H159 C142 0.932 . S
C160 O176 1.251 . S
C160 O178 1.296 . S
N161 C162 1.333 . S
N161 C166 1.307 . S
N161 Zn167 2.020 . S
C162 N161 1.333 . S
C162 C163 1.379 . S
C162 H180 0.952 . S
C163 C162 1.379 . S
C163 C164 1.390 . S
C163 H190 0.949 . S
C164 C163 1.390 . S
C164 C165 1.357 . S
C165 C164 1.357 . S
C165 C166 1.370 . S
C165 H191 0.950 . S
C166 N161 1.307 . S
C166 C165 1.370 . S
C166 H184 0.948 . S
Zn167 N161 2.020 . S
Zn167 O176 2.039 1_545 S
Zn167 O182 2.034 1_545 S
Zn167 O186 2.025 . S
Zn167 O188 2.024 . S
C168 O187 1.246 . S
C168 O188 1.249 1_655 S
N169 C170 1.307 . S
N169 C171 1.333 . S
N169 Zn175 2.020 . S
C170 N169 1.307 . S
C170 C174 1.370 . S
C170 H181 0.948 . S
C171 N169 1.333 . S
C171 C172 1.379 . S
C171 H179 0.986 . S
C172 C171 1.379 . S
C172 C173 1.390 . S
C172 H192 0.949 . S
C173 C172 1.390 . S
C173 C174 1.357 . S
C174 C170 1.370 . S
C174 C173 1.357 . S
C174 H193 0.950 . S
Zn175 N169 2.020 . S
Zn175 O178 2.003 1_655 S
Zn175 O183 2.011 1_655 S
Zn175 O185 2.039 1_565 S
Zn175 O187 2.034 1_565 S
O176 C160 1.251 . S
O176 Zn167 2.039 1_565 S
C177 O182 1.246 . S
C177 O183 1.275 . S
O178 C160 1.296 . S
O178 Zn175 2.003 1_455 S
H179 C171 0.986 . S
H180 C162 0.952 . S
H181 C170 0.948 . S
O182 Zn167 2.034 1_565 S
O182 C177 1.246 . S
O183 Zn175 2.011 1_455 S
O183 C177 1.275 . S
H184 C166 0.948 . S
O185 Zn175 2.039 1_545 S
O185 C189 1.251 . S
O186 Zn167 2.025 . S
O186 C189 1.254 1_455 S
O187 C168 1.246 . S
O187 Zn175 2.034 1_545 S
O188 Zn167 2.024 . S
O188 C168 1.249 1_455 S
C189 O185 1.251 . S
C189 O186 1.254 1_655 S
H190 C163 0.949 . S
H191 C165 0.950 . S
H192 C172 0.949 . S
H193 C174 0.950 . S
C194 O210 1.251 . S
C194 O212 1.254 . S
N195 C196 1.333 . S
N195 C200 1.307 . S
N195 Zn201 2.020 . S
C196 N195 1.333 . S
C196 C197 1.379 . S
C196 H214 0.952 1_554 S
C197 C196 1.379 . S
C197 C198 1.390 . S
C197 H224 0.949 1_554 S
C198 C197 1.390 . S
C198 C199 1.357 . S
C199 C198 1.357 . S
C199 C200 1.370 . S
C199 H225 0.950 . S
C200 N195 1.307 . S
C200 C199 1.370 . S
C200 H218 0.948 . S
Zn201 N195 2.020 . S
Zn201 O210 2.039 1_554 S
Zn201 O216 2.034 . S
Zn201 O220 2.025 . S
Zn201 O222 2.024 1_554 S
C202 O221 1.246 . S
C202 O222 1.249 . S
N203 C204 1.307 . S
N203 C205 1.333 . S
N203 Zn209 2.020 . S
C204 N203 1.307 . S
C204 C208 1.370 . S
C204 H215 0.948 1_554 S
C205 N203 1.333 . S
C205 C206 1.379 . S
C205 H213 0.952 . S
C206 C205 1.379 . S
C206 C207 1.390 . S
C206 H226 0.949 . S
C207 C206 1.390 . S
C207 C208 1.357 . S
C208 C204 1.370 . S
C208 C207 1.357 . S
C208 H227 0.945 1_554 S
Zn209 N203 2.020 . S
Zn209 O212 2.025 1_554 S
Zn209 O217 2.024 . S
Zn209 O219 2.039 . S
Zn209 O221 2.034 1_554 S
O210 C194 1.251 . S
O210 Zn201 2.039 1_556 S
C211 O216 1.246 . S
C211 O217 1.249 . S
O212 C194 1.254 . S
O212 Zn209 2.025 1_556 S
H213 C205 0.952 . S
H214 C196 0.952 1_556 S
H215 C204 0.948 1_556 S
O216 Zn201 2.034 . S
O216 C211 1.246 . S
O217 Zn209 2.024 . S
O217 C211 1.249 . S
H218 C200 0.948 . S
O219 Zn209 2.039 . S
O219 C223 1.251 . S
O220 Zn201 2.025 . S
O220 C223 1.254 . S
O221 C202 1.246 . S
O221 Zn209 2.034 1_556 S
O222 Zn201 2.024 1_556 S
O222 C202 1.249 . S
C223 O219 1.251 . S
C223 O220 1.254 . S
H224 C197 0.949 1_556 S
H225 C199 0.950 . S
H226 C206 0.949 . S
H227 C208 0.945 1_556 S
H228 C236 0.929 . S
H229 C238 0.930 . S
H230 C240 0.930 . S
H231 C243 0.929 . S
H232 C246 0.930 . S
H233 C248 0.960 . S
H234 C248 0.960 . S
H235 C248 0.960 . S
C236 H228 0.929 . S
C236 C237 1.377 . S
C236 C238 1.384 . S
C237 C236 1.377 . S
C237 C243 1.390 . S
C238 H229 0.930 . S
C238 C236 1.384 . S
C238 C239 1.372 . S
C239 C238 1.372 . S
C239 C240 1.400 . S
C239 C244 1.490 . S
C240 H230 0.930 . S
C240 C239 1.400 . S
C240 C243 1.386 . S
H241 C257 0.930 . S
H242 C258 0.931 . S
C243 H231 0.929 . S
C243 C237 1.390 . S
C243 C240 1.386 . S
C244 C239 1.490 . S
C244 C246 1.395 . S
C244 C247 1.403 . S
H245 C251 0.930 . S
C246 H232 0.930 . S
C246 C244 1.395 . S
C246 C249 1.403 . S
C247 C244 1.403 . S
C247 C248 1.524 . S
C247 C251 1.400 . S
C248 H233 0.960 . S
C248 H234 0.960 . S
C248 H235 0.960 . S
C248 C247 1.524 . S
C249 C246 1.403 . S
C249 C250 1.392 . S
C249 C253 1.495 . S
C250 C249 1.392 . S
C250 C251 1.385 . S
C250 C252 1.478 . S
C251 H245 0.930 . S
C251 C247 1.400 . S
C251 C250 1.385 . S
C252 C250 1.478 . S
C252 C254 1.381 . S
C252 C258 1.383 . S
C253 C249 1.495 . S
C253 H259 0.959 . S
C253 H260 0.961 . S
C253 H261 0.960 . S
C254 C252 1.381 . S
C254 C255 1.394 . S
C254 H262 0.930 . S
C255 C254 1.394 . S
C255 C256 1.383 . S
C255 H263 0.929 . S
C256 C255 1.383 . S
C256 C257 1.377 . S
C257 H241 0.930 . S
C257 C256 1.377 . S
C257 C258 1.379 . S
C258 H242 0.931 . S
C258 C252 1.383 . S
C258 C257 1.379 . S
H259 C253 0.959 . S
H260 C253 0.961 . S
H261 C253 0.960 . S
H262 C254 0.930 . S
H263 C255 0.929 . S
H264 C272 0.929 . S
H265 C274 0.930 . S
H266 C276 0.930 . S
H267 C279 0.929 . S
H268 C282 0.930 . S
H269 C284 0.960 . S
H270 C284 0.960 . S
H271 C284 0.960 . S
C272 H264 0.929 . S
C272 C273 1.377 . S
C272 C274 1.384 . S
C273 C272 1.377 . S
C273 C279 1.390 1_554 S
C274 H265 0.930 . S
C274 C272 1.384 . S
C274 C275 1.372 . S
C275 C274 1.372 . S
C275 C276 1.400 1_554 S
C275 C280 1.490 . S
C276 H266 0.930 . S
C276 C275 1.400 1_556 S
C276 C279 1.386 . S
H277 C293 0.930 . S
H278 C294 0.931 . S
C279 H267 0.929 . S
C279 C273 1.390 1_556 S
C279 C276 1.386 . S
C280 C275 1.490 . S
C280 C282 1.395 . S
C280 C283 1.403 . S
H281 C287 0.930 . S
C282 H268 0.930 . S
C282 C280 1.395 . S
C282 C285 1.403 . S
C283 C280 1.403 . S
C283 C284 1.524 . S
C283 C287 1.400 . S
C284 H269 0.960 . S
C284 H270 0.960 . S
C284 H271 0.960 . S
C284 C283 1.524 . S
C285 C282 1.403 . S
C285 C286 1.392 . S
C285 C289 1.495 . S
C286 C285 1.392 . S
C286 C287 1.385 . S
C286 C288 1.478 . S
C287 H281 0.930 . S
C287 C283 1.400 . S
C287 C286 1.385 . S
C288 C286 1.478 . S
C288 C290 1.381 . S
C288 C294 1.383 1_554 S
C289 C285 1.495 . S
C289 H295 0.959 1_554 S
C289 H296 0.964 1_554 S
C289 H297 0.957 . S
C290 C288 1.381 . S
C290 C291 1.394 . S
C290 H298 0.930 . S
C291 C290 1.394 . S
C291 C292 1.383 . S
C291 H299 0.929 . S
C292 C291 1.383 . S
C292 C293 1.377 1_554 S
C293 H277 0.930 . S
C293 C292 1.377 1_556 S
C293 C294 1.379 . S
C294 H278 0.931 . S
C294 C288 1.383 1_556 S
C294 C293 1.379 . S
H295 C289 0.959 1_556 S
H296 C289 0.964 1_556 S
H297 C289 0.957 . S
H298 C290 0.930 . S
H299 C291 0.929 . S
H300 C308 0.929 . S
H301 C310 0.930 . S
H302 C312 0.930 . S
H303 C315 0.929 . S
H304 C318 0.930 . S
H305 C320 0.960 . S
H306 C320 0.960 . S
H307 C320 0.960 . S
C308 H300 0.929 . S
C308 C309 1.377 . S
C308 C310 1.384 . S
C309 C308 1.377 . S
C309 C315 1.390 . S
C310 H301 0.930 . S
C310 C308 1.384 . S
C310 C311 1.372 . S
C311 C310 1.372 . S
C311 C312 1.400 . S
C311 C316 1.490 . S
C312 H302 0.930 . S
C312 C311 1.400 . S
C312 C315 1.386 . S
H313 C329 0.930 . S
H314 C330 0.931 . S
C315 H303 0.929 . S
C315 C309 1.390 . S
C315 C312 1.386 . S
C316 C311 1.490 . S
C316 C318 1.395 . S
C316 C319 1.403 . S
H317 C323 0.930 . S
C318 H304 0.930 . S
C318 C316 1.395 . S
C318 C321 1.403 . S
C319 C316 1.403 . S
C319 C320 1.524 . S
C319 C323 1.400 . S
C320 H305 0.960 . S
C320 H306 0.960 . S
C320 H307 0.960 . S
C320 C319 1.524 . S
C321 C318 1.403 . S
C321 C322 1.392 . S
C321 C325 1.495 . S
C322 C321 1.392 . S
C322 C323 1.385 . S
C322 C324 1.478 . S
C323 H317 0.930 . S
C323 C319 1.400 . S
C323 C322 1.385 . S
C324 C322 1.478 . S
C324 C326 1.381 . S
C324 C330 1.383 . S
C325 C321 1.495 . S
C325 H331 0.959 . S
C325 H332 0.961 . S
C325 H333 0.960 . S
C326 C324 1.381 . S
C326 C327 1.394 . S
C326 H334 0.930 . S
C327 C326 1.394 . S
C327 C328 1.383 . S
C327 H335 0.929 . S
C328 C327 1.383 . S
C328 C329 1.377 . S
C329 H313 0.930 . S
C329 C328 1.377 . S
C329 C330 1.379 . S
C330 H314 0.931 . S
C330 C324 1.383 . S
C330 C329 1.379 . S
H331 C325 0.959 . S
H332 C325 0.961 . S
H333 C325 0.960 . S
H334 C326 0.930 . S
H335 C327 0.929 . S
H336 C344 0.929 . S
H337 C346 0.930 . S
H338 C348 0.930 . S
H339 C351 0.929 . S
H340 C354 0.930 1_556 S
H341 C356 0.960 . S
H342 C356 0.971 . S
H343 C356 0.960 . S
C344 H336 0.929 . S
C344 C345 1.377 1_556 S
C344 C346 1.384 . S
C345 C344 1.377 1_554 S
C345 C351 1.390 . S
C346 H337 0.930 . S
C346 C344 1.384 . S
C346 C347 1.372 1_556 S
C347 C346 1.372 1_554 S
C347 C348 1.400 . S
C347 C352 1.490 . S
C348 H338 0.930 . S
C348 C347 1.400 . S
C348 C351 1.386 . S
H349 C365 0.930 . S
H350 C366 0.931 . S
C351 H339 0.929 . S
C351 C345 1.390 . S
C351 C348 1.386 . S
C352 C347 1.490 . S
C352 C354 1.395 . S
C352 C355 1.403 . S
H353 C359 0.930 . S
C354 H340 0.930 1_554 S
C354 C352 1.395 . S
C354 C357 1.403 . S
C355 C352 1.403 . S
C355 C356 1.524 . S
C355 C359 1.400 . S
C356 H341 0.960 . S
C356 H342 0.971 . S
C356 H343 0.960 . S
C356 C355 1.524 . S
C357 C354 1.403 . S
C357 C358 1.392 . S
C357 C361 1.495 1_554 S
C358 C357 1.392 . S
C358 C359 1.385 . S
C358 C360 1.478 . S
C359 H353 0.930 . S
C359 C355 1.400 . S
C359 C358 1.385 . S
C360 C358 1.478 . S
C360 C362 1.381 1_554 S
C360 C366 1.383 . S
C361 C357 1.495 1_556 S
C361 H367 0.959 . S
C361 H368 0.961 1_556 S
C361 H369 0.960 . S
C362 C360 1.381 1_556 S
C362 C363 1.394 . S
C362 H370 0.930 . S
C363 C362 1.394 . S
C363 C364 1.383 1_556 S
C363 H371 0.929 . S
C364 C363 1.383 1_554 S
C364 C365 1.377 . S
C365 H349 0.930 . S
C365 C364 1.377 . S
C365 C366 1.379 . S
C366 H350 0.931 . S
C366 C360 1.383 . S
C366 C365 1.379 . S
H367 C361 0.959 . S
H368 C361 0.961 1_554 S
H369 C361 0.960 . S
H370 C362 0.930 . S
H371 C363 0.929 . S
H372 C380 0.929 . S
H373 C382 0.930 . S
H374 C384 0.930 . S
H375 C387 0.929 . S
H376 C390 0.930 . S
H377 C392 0.960 . S
H378 C392 0.960 . S
H379 C392 0.960 . S
C380 H372 0.929 . S
C380 C381 1.377 . S
C380 C382 1.384 . S
C381 C380 1.377 . S
C381 C387 1.390 . S
C382 H373 0.930 . S
C382 C380 1.384 . S
C382 C383 1.372 . S
C383 C382 1.372 . S
C383 C384 1.400 . S
C383 C388 1.490 . S
C384 H374 0.930 . S
C384 C383 1.400 . S
C384 C387 1.386 . S
H385 C401 0.930 . S
H386 C402 0.931 . S
C387 H375 0.929 . S
C387 C381 1.390 . S
C387 C384 1.386 . S
C388 C383 1.490 . S
C388 C390 1.395 . S
C388 C391 1.403 . S
H389 C395 0.930 . S
C390 H376 0.930 . S
C390 C388 1.395 . S
C390 C393 1.403 . S
C391 C388 1.403 . S
C391 C392 1.524 . S
C391 C395 1.400 . S
C392 H377 0.960 . S
C392 H378 0.960 . S
C392 H379 0.960 . S
C392 C391 1.524 . S
C393 C390 1.403 . S
C393 C394 1.392 . S
C393 C397 1.495 . S
C394 C393 1.392 . S
C394 C395 1.385 . S
C394 C396 1.478 . S
C395 H389 0.930 . S
C395 C391 1.400 . S
C395 C394 1.385 . S
C396 C394 1.478 . S
C396 C398 1.381 . S
C396 C402 1.383 . S
C397 C393 1.495 . S
C397 H403 0.959 1_455 S
C397 H404 0.961 1_455 S
C397 H405 0.964 . S
C398 C396 1.381 . S
C398 C399 1.394 . S
C398 H406 0.930 . S
C399 C398 1.394 . S
C399 C400 1.383 . S
C399 H407 0.929 . S
C400 C399 1.383 . S
C400 C401 1.377 . S
C401 H385 0.930 . S
C401 C400 1.377 . S
C401 C402 1.379 . S
C402 H386 0.931 . S
C402 C396 1.383 . S
C402 C401 1.379 . S
H403 C397 0.959 1_655 S
H404 C397 0.961 1_655 S
H405 C397 0.964 . S
H406 C398 0.930 . S
H407 C399 0.929 . S
H408 C416 0.929 . S
H409 C418 0.930 . S
H410 C420 0.930 . S
H411 C423 0.929 . S
H412 C426 0.930 . S
H413 C428 0.960 . S
H414 C428 0.960 . S
H415 C428 0.960 . S
C416 H408 0.929 . S
C416 C417 1.377 . S
C416 C418 1.384 . S
C417 C416 1.377 . S
C417 C423 1.390 . S
C418 H409 0.930 . S
C418 C416 1.384 . S
C418 C419 1.372 . S
C419 C418 1.372 . S
C419 C420 1.400 . S
C419 C424 1.490 . S
C420 H410 0.930 . S
C420 C419 1.400 . S
C420 C423 1.386 . S
H421 C437 0.930 . S
H422 C438 0.931 . S
C423 H411 0.929 . S
C423 C417 1.390 . S
C423 C420 1.386 . S
C424 C419 1.490 . S
C424 C426 1.395 . S
C424 C427 1.403 . S
H425 C431 0.930 . S
C426 H412 0.930 . S
C426 C424 1.395 . S
C426 C429 1.403 . S
C427 C424 1.403 . S
C427 C428 1.524 . S
C427 C431 1.400 . S
C428 H413 0.960 . S
C428 H414 0.960 . S
C428 H415 0.960 . S
C428 C427 1.524 . S
C429 C426 1.403 . S
C429 C430 1.392 . S
C429 C433 1.495 . S
C430 C429 1.392 . S
C430 C431 1.385 . S
C430 C432 1.478 . S
C431 H425 0.930 . S
C431 C427 1.400 . S
C431 C430 1.385 . S
C432 C430 1.478 . S
C432 C434 1.381 . S
C432 C438 1.383 . S
C433 C429 1.495 . S
C433 H439 0.959 . S
C433 H440 0.961 . S
C433 H441 0.960 . S
C434 C432 1.381 . S
C434 C435 1.394 . S
C434 H442 0.930 . S
C435 C434 1.394 . S
C435 C436 1.383 . S
C435 H443 0.929 . S
C436 C435 1.383 . S
C436 C437 1.377 . S
C437 H421 0.930 . S
C437 C436 1.377 . S
C437 C438 1.379 . S
C438 H422 0.931 . S
C438 C432 1.383 . S
C438 C437 1.379 . S
H439 C433 0.959 . S
H440 C433 0.961 . S
H441 C433 0.960 . S
H442 C434 0.930 . S
H443 C435 0.929 . S
H444 C452 0.929 . S
H445 C454 0.930 . S
H446 C456 0.930 . S
H447 C459 0.929 . S
H448 C462 0.930 . S
H449 C464 0.960 1_455 S
H450 C464 0.960 . S
H451 C464 0.960 . S
C452 H444 0.929 . S
C452 C453 1.377 . S
C452 C454 1.384 . S
C453 C452 1.377 . S
C453 C459 1.390 . S
C454 H445 0.930 . S
C454 C452 1.384 . S
C454 C455 1.372 . S
C455 C454 1.372 . S
C455 C456 1.400 . S
C455 C460 1.490 . S
C456 H446 0.930 . S
C456 C455 1.400 . S
C456 C459 1.386 . S
H457 C473 0.930 . S
H458 C474 0.931 . S
C459 H447 0.929 . S
C459 C453 1.390 . S
C459 C456 1.386 . S
C460 C455 1.490 . S
C460 C462 1.395 . S
C460 C463 1.403 . S
H461 C467 0.930 . S
C462 H448 0.930 . S
C462 C460 1.395 . S
C462 C465 1.403 . S
C463 C460 1.403 . S
C463 C464 1.524 . S
C463 C467 1.400 . S
C464 H449 0.960 1_655 S
C464 H450 0.960 . S
C464 H451 0.960 . S
C464 C463 1.524 . S
C465 C462 1.403 . S
C465 C466 1.392 . S
C465 C469 1.495 . S
C466 C465 1.392 . S
C466 C467 1.385 . S
C466 C468 1.478 . S
C467 H461 0.930 . S
C467 C463 1.400 . S
C467 C466 1.385 . S
C468 C466 1.478 . S
C468 C470 1.381 . S
C468 C474 1.383 . S
C469 C465 1.495 . S
C469 H475 0.959 . S
C469 H476 0.961 . S
C469 H477 0.960 . S
C470 C468 1.381 . S
C470 C471 1.394 . S
C470 H478 0.930 . S
C471 C470 1.394 . S
C471 C472 1.383 . S
C471 H479 0.929 . S
C472 C471 1.383 . S
C472 C473 1.377 . S
C473 H457 0.930 . S
C473 C472 1.377 . S
C473 C474 1.379 . S
C474 H458 0.931 . S
C474 C468 1.383 . S
C474 C473 1.379 . S
H475 C469 0.959 . S
H476 C469 0.961 . S
H477 C469 0.960 . S
H478 C470 0.930 . S
H479 C471 0.929 . S
H480 C488 0.929 . S
H481 C490 0.930 . S
H482 C492 0.930 . S
H483 C495 0.929 . S
H484 C498 0.930 . S
H485 C500 0.960 . S
H486 C500 0.960 . S
H487 C500 0.960 . S
C488 H480 0.929 . S
C488 C489 1.377 . S
C488 C490 1.384 . S
C489 C488 1.377 . S
C489 C495 1.390 . S
C490 H481 0.930 . S
C490 C488 1.384 . S
C490 C491 1.372 . S
C491 C490 1.372 . S
C491 C492 1.400 . S
C491 C496 1.490 . S
C492 H482 0.930 . S
C492 C491 1.400 . S
C492 C495 1.386 . S
H493 C509 0.930 . S
H494 C510 0.931 . S
C495 H483 0.929 . S
C495 C489 1.390 . S
C495 C492 1.386 . S
C496 C491 1.490 . S
C496 C498 1.395 . S
C496 C499 1.403 . S
H497 C503 0.930 . S
C498 H484 0.930 . S
C498 C496 1.395 . S
C498 C501 1.403 . S
C499 C496 1.403 . S
C499 C500 1.524 . S
C499 C503 1.400 . S
C500 H485 0.960 . S
C500 H486 0.960 . S
C500 H487 0.960 . S
C500 C499 1.524 . S
C501 C498 1.403 . S
C501 C502 1.392 . S
C501 C505 1.495 . S
C502 C501 1.392 . S
C502 C503 1.385 . S
C502 C504 1.478 . S
C503 H497 0.930 . S
C503 C499 1.400 . S
C503 C502 1.385 . S
C504 C502 1.478 . S
C504 C506 1.381 . S
C504 C510 1.383 . S
C505 C501 1.495 . S
C505 H511 0.959 . S
C505 H512 0.961 . S
C505 H513 0.960 . S
C506 C504 1.381 . S
C506 C507 1.394 . S
C506 H514 0.930 . S
C507 C506 1.394 . S
C507 C508 1.383 . S
C507 H515 0.929 . S
C508 C507 1.383 . S
C508 C509 1.377 . S
C509 H493 0.930 . S
C509 C508 1.377 . S
C509 C510 1.379 . S
C510 H494 0.931 . S
C510 C504 1.383 . S
C510 C509 1.379 . S
H511 C505 0.959 . S
H512 C505 0.961 . S
H513 C505 0.960 . S
H514 C506 0.930 . S
H515 C507 0.929 . S
H516 C524 0.929 . S
H517 C526 0.930 . S
H518 C528 0.930 . S
H519 C531 0.929 . S
H520 C534 0.930 . S
H521 C536 0.960 . S
H522 C536 0.960 . S
H523 C536 0.960 . S
C524 H516 0.929 . S
C524 C525 1.377 . S
C524 C526 1.384 . S
C525 C524 1.377 . S
C525 C531 1.390 . S
C526 H517 0.930 . S
C526 C524 1.384 . S
C526 C527 1.372 . S
C527 C526 1.372 . S
C527 C528 1.400 . S
C527 C532 1.490 . S
C528 H518 0.930 . S
C528 C527 1.400 . S
C528 C531 1.386 . S
H529 C545 0.930 . S
H530 C546 0.931 . S
C531 H519 0.929 . S
C531 C525 1.390 . S
C531 C528 1.386 . S
C532 C527 1.490 . S
C532 C534 1.395 . S
C532 C535 1.403 . S
H533 C539 0.930 . S
C534 H520 0.930 . S
C534 C532 1.395 . S
C534 C537 1.403 . S
C535 C532 1.403 . S
C535 C536 1.524 . S
C535 C539 1.400 . S
C536 H521 0.960 . S
C536 H522 0.960 . S
C536 H523 0.960 . S
C536 C535 1.524 . S
C537 C534 1.403 . S
C537 C538 1.392 . S
C537 C541 1.495 . S
C538 C537 1.392 . S
C538 C539 1.385 . S
C538 C540 1.478 . S
C539 H533 0.930 . S
C539 C535 1.400 . S
C539 C538 1.385 . S
C540 C538 1.478 . S
C540 C542 1.381 . S
C540 C546 1.383 . S
C541 C537 1.495 . S
C541 H547 0.959 . S
C541 H548 0.961 . S
C541 H549 0.960 . S
C542 C540 1.381 . S
C542 C543 1.394 . S
C542 H550 0.930 . S
C543 C542 1.394 . S
C543 C544 1.383 . S
C543 H551 0.929 . S
C544 C543 1.383 . S
C544 C545 1.377 . S
C545 H529 0.930 . S
C545 C544 1.377 . S
C545 C546 1.379 . S
C546 H530 0.931 . S
C546 C540 1.383 . S
C546 C545 1.379 . S
H547 C541 0.959 . S
H548 C541 0.961 . S
H549 C541 0.960 . S
H550 C542 0.930 . S
H551 C543 0.929 . S
H552 C560 0.929 . S
H553 C562 0.930 . S
H554 C564 0.930 . S
H555 C567 0.929 . S
H556 C570 0.930 . S
H557 C572 0.960 1_455 S
H558 C572 0.960 . S
H559 C572 0.960 . S
C560 H552 0.929 . S
C560 C561 1.377 . S
C560 C562 1.384 . S
C561 C560 1.377 . S
C561 C567 1.390 . S
C562 H553 0.930 . S
C562 C560 1.384 . S
C562 C563 1.372 . S
C563 C562 1.372 . S
C563 C564 1.400 . S
C563 C568 1.490 . S
C564 H554 0.930 . S
C564 C563 1.400 . S
C564 C567 1.386 . S
H565 C581 0.930 . S
H566 C582 0.931 . S
C567 H555 0.929 . S
C567 C561 1.390 . S
C567 C564 1.386 . S
C568 C563 1.490 . S
C568 C570 1.395 . S
C568 C571 1.403 . S
H569 C575 0.930 . S
C570 H556 0.930 . S
C570 C568 1.395 . S
C570 C573 1.403 . S
C571 C568 1.403 . S
C571 C572 1.524 . S
C571 C575 1.400 . S
C572 H557 0.960 1_655 S
C572 H558 0.960 . S
C572 H559 0.960 . S
C572 C571 1.524 . S
C573 C570 1.403 . S
C573 C574 1.392 . S
C573 C577 1.495 . S
C574 C573 1.392 . S
C574 C575 1.385 . S
C574 C576 1.478 . S
C575 H569 0.930 . S
C575 C571 1.400 . S
C575 C574 1.385 . S
C576 C574 1.478 . S
C576 C578 1.381 . S
C576 C582 1.383 . S
C577 C573 1.495 . S
C577 H583 0.959 . S
C577 H584 0.961 . S
C577 H585 0.960 . S
C578 C576 1.381 . S
C578 C579 1.394 . S
C578 H586 0.930 . S
C579 C578 1.394 . S
C579 C580 1.383 . S
C579 H587 0.929 . S
C580 C579 1.383 . S
C580 C581 1.377 . S
C581 H565 0.930 . S
C581 C580 1.377 . S
C581 C582 1.379 . S
C582 H566 0.931 . S
C582 C576 1.383 . S
C582 C581 1.379 . S
H583 C577 0.959 . S
H584 C577 0.961 . S
H585 C577 0.960 . S
H586 C578 0.930 . S
H587 C579 0.929 . S
H588 C596 0.929 . S
H589 C598 0.930 . S
H590 C600 0.930 . S
H591 C603 0.929 . S
H592 C606 0.930 . S
H593 C608 0.960 . S
H594 C608 0.960 . S
H595 C608 0.960 . S
C596 H588 0.929 . S
C596 C597 1.377 . S
C596 C598 1.384 . S
C597 C596 1.377 . S
C597 C603 1.390 . S
C598 H589 0.930 . S
C598 C596 1.384 . S
C598 C599 1.372 . S
C599 C598 1.372 . S
C599 C600 1.400 . S
C599 C604 1.490 . S
C600 H590 0.930 . S
C600 C599 1.400 . S
C600 C603 1.386 . S
H601 C617 0.930 . S
H602 C618 0.931 . S
C603 H591 0.929 . S
C603 C597 1.390 . S
C603 C600 1.386 . S
C604 C599 1.490 . S
C604 C606 1.395 . S
C604 C607 1.403 . S
H605 C611 0.930 . S
C606 H592 0.930 . S
C606 C604 1.395 . S
C606 C609 1.403 . S
C607 C604 1.403 . S
C607 C608 1.524 . S
C607 C611 1.400 . S
C608 H593 0.960 . S
C608 H594 0.960 . S
C608 H595 0.960 . S
C608 C607 1.524 . S
C609 C606 1.403 . S
C609 C610 1.392 . S
C609 C613 1.495 . S
C610 C609 1.392 . S
C610 C611 1.385 . S
C610 C612 1.478 . S
C611 H605 0.930 . S
C611 C607 1.400 . S
C611 C610 1.385 . S
C612 C610 1.478 . S
C612 C614 1.381 . S
C612 C618 1.383 . S
C613 C609 1.495 . S
C613 H619 0.959 . S
C613 H620 0.961 . S
C613 H621 0.960 . S
C614 C612 1.381 . S
C614 C615 1.394 . S
C614 H622 0.930 . S
C615 C614 1.394 . S
C615 C616 1.383 . S
C615 H623 0.929 . S
C616 C615 1.383 . S
C616 C617 1.377 . S
C617 H601 0.930 . S
C617 C616 1.377 . S
C617 C618 1.379 . S
C618 H602 0.931 . S
C618 C612 1.383 . S
C618 C617 1.379 . S
H619 C613 0.959 . S
H620 C613 0.961 . S
H621 C613 0.960 . S
H622 C614 0.930 . S
H623 C615 0.929 . S
H624 C632 0.929 . S
H625 C634 0.930 . S
H626 C636 0.930 . S
H627 C639 0.929 . S
H628 C642 0.930 . S
H629 C644 0.960 . S
H630 C644 0.960 . S
H631 C644 0.960 . S
C632 H624 0.929 . S
C632 C633 1.377 . S
C632 C634 1.384 . S
C633 C632 1.377 . S
C633 C639 1.390 . S
C634 H625 0.930 . S
C634 C632 1.384 . S
C634 C635 1.372 . S
C635 C634 1.372 . S
C635 C636 1.400 . S
C635 C640 1.490 . S
C636 H626 0.930 . S
C636 C635 1.400 . S
C636 C639 1.386 . S
H637 C653 0.930 . S
H638 C654 0.931 . S
C639 H627 0.929 . S
C639 C633 1.390 . S
C639 C636 1.386 . S
C640 C635 1.490 . S
C640 C642 1.395 . S
C640 C643 1.403 . S
H641 C647 0.930 . S
C642 H628 0.930 . S
C642 C640 1.395 . S
C642 C645 1.403 . S
C643 C640 1.403 . S
C643 C644 1.524 . S
C643 C647 1.400 . S
C644 H629 0.960 . S
C644 H630 0.960 . S
C644 H631 0.960 . S
C644 C643 1.524 . S
C645 C642 1.403 . S
C645 C646 1.392 . S
C645 C649 1.495 . S
C646 C645 1.392 . S
C646 C647 1.385 . S
C646 C648 1.478 . S
C647 H641 0.930 . S
C647 C643 1.400 . S
C647 C646 1.385 . S
C648 C646 1.478 . S
C648 C650 1.381 . S
C648 C654 1.383 . S
C649 C645 1.495 . S
C649 H655 0.959 . S
C649 H656 0.961 . S
C649 H657 0.960 . S
C650 C648 1.381 . S
C650 C651 1.394 . S
C650 H658 0.930 . S
C651 C650 1.394 . S
C651 C652 1.383 . S
C651 H659 0.929 . S
C652 C651 1.383 . S
C652 C653 1.377 . S
C653 H637 0.930 . S
C653 C652 1.377 . S
C653 C654 1.379 . S
C654 H638 0.931 . S
C654 C648 1.383 . S
C654 C653 1.379 . S
H655 C649 0.959 . S
H656 C649 0.961 . S
H657 C649 0.960 . S
H658 C650 0.930 . S
H659 C651 0.929 . S
C256 C164 1.669 . S
C237 C135 1.651 . S
C273 C15 1.567 . S
C292 C207 1.567 . S
C309 C55 1.657 . S
C328 C173 1.677 . S
C345 C95 1.571 . S
C364 C198 1.587 . S
C400 C160 1.610 . S
C381 C2 1.552 . S
C436 C202 1.726 . S
C417 C42 1.733 . S
C453 C82 1.556 . S
C472 C168 1.606 . S
C489 C141 1.643 . S
C508 C194 1.726 . S
C544 C223 1.748 . S
C525 C61 1.746 . S
C580 C189 1.665 . S
C561 C101 1.588 . S
C616 C211 1.759 . S
C597 C122 1.686 . S
C633 C21 1.579 . S
C652 C177 1.646 . S
