# Generated by pormake.
# Topology ant, (3,6)-cn, num edge types: 1
# Building blocks:
#     Node 0, Type 0, BuildingBlock: WUSLED_clean_sbu_0, # of connection points: 3
#     Node 1, Type 0, BuildingBlock: WUSLED_clean_sbu_0, # of connection points: 3
#     Node 2, Type 0, BuildingBlock: WUSLED_clean_sbu_0, # of connection points: 3
#     Node 3, Type 0, BuildingBlock: WUSLED_clean_sbu_0, # of connection points: 3
#     Node 4, Type 0, BuildingBlock: WUSLED_clean_sbu_0, # of connection points: 3
#     Node 5, Type 0, BuildingBlock: WUSLED_clean_sbu_0, # of connection points: 3
#     Node 6, Type 0, BuildingBlock: WUSLED_clean_sbu_0, # of connection points: 3
#     Node 7, Type 0, BuildingBlock: WUSLED_clean_sbu_0, # of connection points: 3
#     Node 8, Type 1, BuildingBlock: MIDCAF_clean_sbu_0, # of connection points: 6
#     Node 9, Type 1, BuildingBlock: MIDCAF_clean_sbu_0, # of connection points: 6
#     Node 10, Type 1, BuildingBlock: MIDCAF_clean_sbu_0, # of connection points: 6
#     Node 11, Type 1, BuildingBlock: MIDCAF_clean_sbu_0, # of connection points: 6
#     Edge 12, Type (0, 1), BuildingBlock: XIVTED_clean_linker_0, # of connection points: 2
#     Edge 13, Type (0, 1), BuildingBlock: XIVTED_clean_linker_0, # of connection points: 2
#     Edge 14, Type (0, 1), BuildingBlock: XIVTED_clean_linker_0, # of connection points: 2
#     Edge 15, Type (0, 1), BuildingBlock: XIVTED_clean_linker_0, # of connection points: 2
#     Edge 16, Type (0, 1), BuildingBlock: XIVTED_clean_linker_0, # of connection points: 2
#     Edge 17, Type (0, 1), BuildingBlock: XIVTED_clean_linker_0, # of connection points: 2
#     Edge 18, Type (0, 1), BuildingBlock: XIVTED_clean_linker_0, # of connection points: 2
#     Edge 19, Type (0, 1), BuildingBlock: XIVTED_clean_linker_0, # of connection points: 2
#     Edge 20, Type (0, 1), BuildingBlock: XIVTED_clean_linker_0, # of connection points: 2
#     Edge 21, Type (0, 1), BuildingBlock: XIVTED_clean_linker_0, # of connection points: 2
#     Edge 22, Type (0, 1), BuildingBlock: XIVTED_clean_linker_0, # of connection points: 2
#     Edge 23, Type (0, 1), BuildingBlock: XIVTED_clean_linker_0, # of connection points: 2
#     Edge 24, Type (0, 1), BuildingBlock: XIVTED_clean_linker_0, # of connection points: 2
#     Edge 25, Type (0, 1), BuildingBlock: XIVTED_clean_linker_0, # of connection points: 2
#     Edge 26, Type (0, 1), BuildingBlock: XIVTED_clean_linker_0, # of connection points: 2
#     Edge 27, Type (0, 1), BuildingBlock: XIVTED_clean_linker_0, # of connection points: 2
#     Edge 28, Type (0, 1), BuildingBlock: XIVTED_clean_linker_0, # of connection points: 2
#     Edge 29, Type (0, 1), BuildingBlock: XIVTED_clean_linker_0, # of connection points: 2
#     Edge 30, Type (0, 1), BuildingBlock: XIVTED_clean_linker_0, # of connection points: 2
#     Edge 31, Type (0, 1), BuildingBlock: XIVTED_clean_linker_0, # of connection points: 2
#     Edge 32, Type (0, 1), BuildingBlock: XIVTED_clean_linker_0, # of connection points: 2
#     Edge 33, Type (0, 1), BuildingBlock: XIVTED_clean_linker_0, # of connection points: 2
#     Edge 34, Type (0, 1), BuildingBlock: XIVTED_clean_linker_0, # of connection points: 2
#     Edge 35, Type (0, 1), BuildingBlock: XIVTED_clean_linker_0, # of connection points: 2
# Relax obj value: 0.097
# Max RMSD: 0.155
# Mean RMSD: 0.100
data_MOF--net-ant--node1-WUSLED_clean_sbu_0--node2-MIDCAF_clean_sbu_0--edge1-XIVTED_clean_linker_0
_symmetry_space_group_name_H-M    P1
_symmetry_Int_Tables_number       1
_symmetry_cell_setting            triclinic
loop_
_symmetry_equiv_pos_as_xyz
'x, y, z'
_cell_length_a     36.443828
_cell_length_b     36.208563
_cell_length_c     99.597987
_cell_angle_alpha  89.694618
_cell_angle_beta   94.993046
_cell_angle_gamma 89.958539
loop_
_atom_site_label
_atom_site_type_symbol
_atom_site_fract_x
_atom_site_fract_y
_atom_site_fract_z
_atom_type_partial_charge
C0 C 0.20952 0.16325 0.09304 0.0
C1 C 0.20254 0.13504 0.08358 0.0
C2 C 0.22509 0.0888 0.10018 0.0
C3 C 0.21013 0.09828 0.0871 0.0
C4 C 0.23179 0.11719 0.1097 0.0
C5 C 0.22416 0.15415 0.10614 0.0
U6 U 0.18442 0.2303 0.065 0.0
O7 O 0.14933 0.27992 0.06307 0.0
O8 O 0.20782 0.2838 0.05954 0.0
C9 C 0.17679 0.30175 0.06055 0.0
C10 C 0.20269 0.20199 0.08895 0.0
C11 C 0.1793 0.33822 0.06736 0.0
C12 C 0.15034 0.38911 0.07849 0.0
C13 C 0.14935 0.35284 0.07362 0.0
C14 C 0.2113 0.3969 0.07105 0.0
C15 C 0.18123 0.41174 0.07716 0.0
C16 C 0.21028 0.36073 0.06617 0.0
C17 C 0.16799 0.18678 0.02988 0.0
C18 C 0.17736 0.21636 0.00852 0.0
C19 C 0.14549 0.15768 0.00878 0.0
C20 C 0.14961 0.15769 0.0229 0.0
C21 C 0.16012 0.18662 0.00147 0.0
C22 C 0.18111 0.21654 0.02259 0.0
C23 C 0.17546 0.18444 0.04462 0.0
O24 O 0.22686 0.21573 0.08124 0.0
O25 O 0.16848 0.20975 0.08452 0.0
O26 O 0.14846 0.19418 0.05179 0.0
O27 O 0.2077 0.19705 0.04947 0.0
H28 H 0.19128 0.1415 0.0734 0.0
H29 H 0.20383 0.0772 0.07958 0.0
H30 H 0.24346 0.11094 0.11983 0.0
H31 H 0.22994 0.17561 0.11355 0.0
H32 H 0.12685 0.39945 0.08328 0.0
H33 H 0.12476 0.33656 0.07453 0.0
H34 H 0.23532 0.41362 0.06965 0.0
H35 H 0.23346 0.35072 0.06112 0.0
H36 H 0.18837 0.23932 0.00312 0.0
H37 H 0.13216 0.13441 0.00361 0.0
H38 H 0.1393 0.13448 0.02836 0.0
H39 H 0.1951 0.23945 0.02777 0.0
C40 C 0.18684 0.80999 0.33893 0.0
C41 C 0.21234 0.80362 0.32943 0.0
C42 C 0.26312 0.82028 0.34588 0.0
C43 C 0.25001 0.80854 0.33287 0.0
C44 C 0.23731 0.82706 0.35533 0.0
C45 C 0.19951 0.82193 0.35187 0.0
U46 U 0.10973 0.79313 0.31193 0.0
O47 O 0.06303 0.75419 0.3107 0.0
O48 O 0.05305 0.81393 0.30859 0.0
C49 C 0.03845 0.78078 0.30905 0.0
C50 C 0.14724 0.80378 0.3353 0.0
C51 C 1.00511 0.77704 0.3163 0.0
C52 C 0.96558 0.79707 0.3333 0.0
C53 C 0.99961 0.79802 0.32776 0.0
C54 C 0.94274 0.75325 0.31628 0.0
C55 C 0.93646 0.77521 0.32746 0.0
C56 C 0.9767 0.75421 0.31078 0.0
C57 C 0.13252 0.78954 0.27558 0.0
C58 C 0.08981 0.76459 0.25781 0.0
C59 C 0.14275 0.8 0.25212 0.0
C60 C 0.15342 0.8049 0.26581 0.0
C61 C 0.11102 0.77949 0.24797 0.0
C62 C 0.10035 0.76976 0.27151 0.0
C63 C 0.14436 0.7945 0.28994 0.0
O64 O 0.13003 0.83052 0.32833 0.0
O65 O 0.13889 0.77081 0.33047 0.0
O66 O 0.14242 0.76489 0.29754 0.0
O67 O 0.13179 0.82438 0.2954 0.0
H68 H 0.20311 0.79438 0.31937 0.0
H69 H 0.26889 0.80229 0.32538 0.0
H70 H 0.24625 0.83649 0.36538 0.0
H71 H 0.18021 0.82715 0.35932 0.0
H72 H 0.9619 0.81385 0.34205 0.0
H73 H 0.02123 0.81579 0.3322 0.0
H74 H 0.92095 0.73643 0.31142 0.0
H75 H 0.98035 0.738 0.30187 0.0
H76 H 0.06509 0.74893 0.25492 0.0
H77 H 0.15994 0.81139 0.24478 0.0
H78 H 0.17823 0.82037 0.26878 0.0
H79 H 0.08358 0.75808 0.27893 0.0
C80 C 0.70708 0.66647 0.59318 0.0
C81 C 0.70014 0.6378 0.5839 0.0
C82 C 0.72274 0.59233 0.60079 0.0
C83 C 0.70775 0.60119 0.58766 0.0
C84 C 0.72952 0.62121 0.61011 0.0
C85 C 0.72182 0.658 0.60631 0.0
U86 U 0.68237 0.73219 0.5647 0.0
O87 O 0.64575 0.78074 0.56223 0.0
O88 O 0.70448 0.78615 0.5592 0.0
C89 C 0.67265 0.80308 0.55959 0.0
C90 C 0.69987 0.70502 0.58888 0.0
C91 C 0.67333 0.83967 0.56606 0.0
C92 C 0.69672 0.88275 0.5834 0.0
C93 C 0.69474 0.84684 0.57816 0.0
C94 C 0.65533 0.90442 0.56468 0.0
C95 C 0.67734 0.91212 0.57664 0.0
C96 C 0.6534 0.86862 0.55946 0.0
C97 C 0.66843 0.68681 0.52978 0.0
C98 C 0.67907 0.71434 0.50818 0.0
C99 C 0.645 0.65704 0.50893 0.0
C100 C 0.64903 0.65794 0.52303 0.0
C101 C 0.66072 0.68482 0.50138 0.0
C102 C 0.68274 0.71544 0.52225 0.0
C103 C 0.6755 0.68537 0.54457 0.0
O104 O 0.72427 0.71897 0.58131 0.0
O105 O 0.66572 0.71211 0.58417 0.0
O106 O 0.64793 0.6946 0.55154 0.0
O107 O 0.70723 0.69902 0.5495 0.0
H108 H 0.68881 0.64377 0.57369 0.0
H109 H 0.70139 0.57976 0.58028 0.0
H110 H 0.74125 0.61547 0.62027 0.0
H111 H 0.72758 0.67981 0.61359 0.0
H112 H 0.7135 0.8875 0.59275 0.0
H113 H 0.71028 0.82486 0.58343 0.0
H114 H 0.64041 0.92625 0.55909 0.0
H115 H 0.63686 0.86368 0.55007 0.0
H116 H 0.69094 0.73645 0.50261 0.0
H117 H 0.63078 0.63397 0.50394 0.0
H118 H 0.63778 0.63561 0.52868 0.0
H119 H 0.69752 0.7382 0.52723 0.0
C120 C 0.68623 0.30975 0.83988 0.0
C121 C 0.71165 0.30277 0.83041 0.0
C122 C 0.76249 0.32071 0.84663 0.0
C123 C 0.74931 0.30804 0.83375 0.0
C124 C 0.73678 0.32796 0.85607 0.0
C125 C 0.69897 0.32251 0.85272 0.0
U126 U 0.61036 0.28949 0.81293 0.0
O127 O 0.56336 0.25101 0.81207 0.0
O128 O 0.55393 0.31045 0.80865 0.0
C129 C 0.53904 0.27756 0.80963 0.0
C130 C 0.64663 0.30349 0.83627 0.0
C131 C 0.50506 0.27512 0.81658 0.0
C132 C 0.46444 0.29704 0.83294 0.0
C133 C 0.49876 0.29759 0.82758 0.0
C134 C 0.44288 0.25088 0.8166 0.0
C135 C 0.43586 0.27408 0.82736 0.0
C136 C 0.47709 0.25144 0.81129 0.0
C137 C 0.63721 0.27865 0.77704 0.0
C138 C 0.5968 0.28614 0.75642 0.0
C139 C 0.65147 0.248 0.75652 0.0
C140 C 0.66013 0.25578 0.77014 0.0
C141 C 0.61977 0.26314 0.7495 0.0
C142 C 0.60529 0.29363 0.77012 0.0
C143 C 0.64693 0.28605 0.79145 0.0
O144 O 0.62994 0.32924 0.82864 0.0
O145 O 0.63811 0.26988 0.83215 0.0
O146 O 0.64363 0.25779 0.79958 0.0
O147 O 0.63454 0.31715 0.79611 0.0
H148 H 0.70237 0.29287 0.82044 0.0
H149 H 0.76814 0.30139 0.82628 0.0
H150 H 0.74581 0.33805 0.86603 0.0
H151 H 0.67972 0.32819 0.86014 0.0
H152 H 0.4602 0.31483 0.84137 0.0
H153 H 0.52003 0.31603 0.83184 0.0
H154 H 0.42151 0.23321 0.81194 0.0
H155 H 0.48137 0.23406 0.80273 0.0
H156 H 0.57209 0.29799 0.75129 0.0
H157 H 0.67 0.23061 0.75141 0.0
H158 H 0.68483 0.24394 0.7753 0.0
H159 H 0.58692 0.31108 0.77527 0.0
C160 C 0.08101 0.83738 0.91467 0.0
C161 C 0.05904 0.85602 0.90457 0.0
C162 C 0.0843 0.91519 0.91246 0.0
C163 C 0.06061 0.89448 0.90348 0.0
C164 C 0.1069 0.89637 0.92244 0.0
C165 C 0.10507 0.85779 0.9236 0.0
U166 U 0.08532 0.7509 0.93659 0.0
O167 O 0.04633 0.70462 0.93736 0.0
O168 O 0.10361 0.69411 0.93313 0.0
C169 C 0.07099 0.67993 0.93462 0.0
C170 C 0.07696 0.79705 0.91615 0.0
C171 C 0.05843 0.64991 0.92546 0.0
C172 C 0.04899 0.62215 0.90325 0.0
C173 C 0.05826 0.65287 0.9114 0.0
C174 C 0.03923 0.58593 0.92314 0.0
C175 C 0.03993 0.58805 0.90905 0.0
C176 C 0.04827 0.61651 0.9312 0.0
C177 C 0.11241 0.75811 0.97421 0.0
C178 C 0.14148 0.71253 0.98981 0.0
C179 C 0.09461 0.75347 0.9971 0.0
C180 C 0.09117 0.77027 0.98441 0.0
C181 C 0.11966 0.72432 0.99993 0.0
C182 C 0.13773 0.72911 0.97703 0.0
C183 C 0.10679 0.77541 0.9607 0.0
O184 O 0.10747 0.7782 0.91921 0.0
O185 O 0.04967 0.78662 0.92309 0.0
O186 O 0.07239 0.77683 0.95553 0.0
O187 O 0.12994 0.76606 0.95188 0.0
H188 H 0.04024 0.84082 0.89761 0.0
H189 H 0.04324 0.90806 0.89555 0.0
H190 H 0.12523 0.91152 0.92957 0.0
H191 H 0.12204 0.84397 0.93158 0.0
H192 H 0.04948 0.62498 0.89244 0.0
H193 H 0.06597 0.67855 0.90679 0.0
H194 H 0.03327 0.56018 0.92807 0.0
H195 H 0.04843 0.61369 0.94205 0.0
H196 H 0.16099 0.69014 0.99172 0.0
H197 H 0.07793 0.76364 0.00478 0.0
H198 H 0.07163 0.79267 0.98253 0.0
H199 H 0.15446 0.719 0.96936 0.0
C200 C 0.58599 0.82221 0.15906 0.0
C201 C 0.56423 0.84136 0.16769 0.0
C202 C 0.50885 0.82836 0.15289 0.0
C203 C 0.52619 0.84461 0.1646 0.0
C204 C 0.53093 0.80992 0.14411 0.0
C205 C 0.56909 0.80692 0.14717 0.0
U206 U 0.66423 0.80374 0.18582 0.0
O207 O 0.71259 0.76707 0.18627 0.0
O208 O 0.72002 0.8267 0.18935 0.0
C209 C 0.7361 0.79455 0.18803 0.0
C210 C 0.62574 0.81622 0.16273 0.0
C211 C 0.76919 0.79401 0.18034 0.0
C212 C 0.81497 0.75967 0.16899 0.0
C213 C 0.78082 0.7613 0.17442 0.0
C214 C 0.82632 0.82349 0.17509 0.0
C215 C 0.83836 0.79062 0.16941 0.0
C216 C 0.79228 0.82511 0.18052 0.0
C217 C 0.64154 0.79455 0.22227 0.0
C218 C 0.68155 0.76549 0.24011 0.0
C219 C 0.6318 0.80542 0.24573 0.0
C220 C 0.62188 0.81152 0.23203 0.0
C221 C 0.66151 0.78205 0.24993 0.0
C222 C 0.67179 0.77187 0.2264 0.0
C223 C 0.63006 0.80074 0.2079 0.0
O224 O 0.64291 0.84243 0.1699 0.0
O225 O 0.63468 0.78284 0.16714 0.0
O226 O 0.63323 0.77222 0.19997 0.0
O227 O 0.64137 0.83183 0.20281 0.0
H228 H 0.57651 0.85328 0.17697 0.0
H229 H 0.51029 0.85953 0.1715 0.0
H230 H 0.51861 0.7966 0.13511 0.0
H231 H 0.58531 0.79183 0.14041 0.0
H232 H 0.82317 0.73404 0.16455 0.0
H233 H 0.76403 0.73662 0.17431 0.0
H234 H 0.8438 0.8477 0.17581 0.0
H235 H 0.78463 0.85047 0.18528 0.0
H236 H 0.70473 0.74759 0.24304 0.0
H237 H 0.61552 0.81818 0.25303 0.0
H238 H 0.59854 0.82919 0.22903 0.0
H239 H 0.68765 0.75884 0.21902 0.0
C240 C 0.58727 0.33328 0.41426 0.0
C241 C 0.60957 0.354 0.42366 0.0
C242 C 0.59076 0.411 0.41184 0.0
C243 C 0.61149 0.39254 0.42241 0.0
C244 C 0.56892 0.38996 0.40236 0.0
C245 C 0.56724 0.35152 0.40357 0.0
U246 U 0.59049 0.24759 0.43651 0.0
O247 O 0.55105 0.20176 0.43741 0.0
O248 O 0.60833 0.19048 0.43336 0.0
C249 C 0.57553 0.17671 0.43483 0.0
C250 C 0.5829 0.29304 0.41586 0.0
C251 C 0.56283 0.14657 0.42575 0.0
C252 C 0.55216 0.11883 0.40358 0.0
C253 C 0.56185 0.14954 0.41168 0.0
C254 C 0.54365 0.08256 0.42357 0.0
C255 C 0.54345 0.08472 0.40946 0.0
C256 C 0.55313 0.11313 0.43159 0.0
C257 C 0.61676 0.25578 0.47417 0.0
C258 C 0.6484 0.21368 0.49051 0.0
C259 C 0.59557 0.24856 0.49651 0.0
C260 C 0.59239 0.26511 0.48378 0.0
C261 C 0.62348 0.22254 0.5 0.0
C262 C 0.64498 0.23 0.47768 0.0
C263 C 0.61167 0.27272 0.46057 0.0
O264 O 0.61324 0.27409 0.4191 0.0
O265 O 0.55537 0.28308 0.42276 0.0
O266 O 0.57741 0.27445 0.45525 0.0
O267 O 0.63495 0.2628 0.45187 0.0
H268 H 0.62499 0.34046 0.43209 0.0
H269 H 0.62836 0.40795 0.42992 0.0
H270 H 0.55304 0.40324 0.39399 0.0
H271 H 0.54982 0.33605 0.39623 0.0
H272 H 0.55198 0.12167 0.39275 0.0
H273 H 0.56919 0.17526 0.407 0.0
H274 H 0.538 0.05679 0.42855 0.0
H275 H 0.5539 0.1103 0.44245 0.0
H276 H 0.6702 0.19378 0.49295 0.0
H277 H 0.57645 0.25659 0.50371 0.0
H278 H 0.57065 0.28514 0.48141 0.0
H279 H 0.66431 0.22222 0.47053 0.0
C280 C 0.09396 0.30889 0.65885 0.0
C281 C 0.06859 0.30294 0.66845 0.0
C282 C 0.01756 0.31892 0.65192 0.0
C283 C 0.03087 0.30773 0.66502 0.0
C284 C 0.04325 0.32532 0.64236 0.0
C285 C 0.08109 0.32032 0.64581 0.0
U286 U 0.17118 0.29281 0.68593 0.0
O287 O 0.2179 0.25376 0.68755 0.0
O288 O 0.22789 0.31354 0.68907 0.0
C289 C 0.24248 0.28032 0.68896 0.0
C290 C 0.13362 0.30276 0.66248 0.0
C291 C 0.27612 0.27599 0.6819 0.0
C292 C 0.3173 0.29585 0.66533 0.0
C293 C 0.28295 0.29757 0.67064 0.0
C294 C 0.33781 0.25017 0.68219 0.0
C295 C 0.34542 0.27261 0.67121 0.0
C296 C 0.30356 0.25189 0.68746 0.0
C297 C 0.14707 0.29046 0.72231 0.0
C298 C 0.18596 0.26284 0.74077 0.0
C299 C 0.13683 0.30469 0.74548 0.0
C300 C 0.12745 0.30922 0.73166 0.0
C301 C 0.16592 0.28114 0.75019 0.0
C302 C 0.17677 0.26764 0.72694 0.0
C303 C 0.13618 0.29495 0.70782 0.0
O304 O 0.15082 0.3297 0.66922 0.0
O305 O 0.1421 0.26994 0.66756 0.0
O306 O 0.13834 0.2651 0.70047 0.0
O307 O 0.149 0.32461 0.7022 0.0
H308 H 0.07796 0.29411 0.67859 0.0
H309 H 0.0121 0.30179 0.6726 0.0
H310 H 0.03416 0.33433 0.63223 0.0
H311 H 0.10029 0.32522 0.63828 0.0
H312 H 0.32196 0.31306 0.65672 0.0
H313 H 0.26215 0.31636 0.66617 0.0
H314 H 0.35879 0.2323 0.68709 0.0
H315 H 0.29892 0.23522 0.69623 0.0
H316 H 0.20868 0.24476 0.74411 0.0
H317 H 0.12056 0.31879 0.75248 0.0
H318 H 0.10456 0.32703 0.72827 0.0
H319 H 0.19259 0.25326 0.71987 0.0
Zn320 Zn 0.20041 0.70419 0.14197 0.0
Zn321 Zn 0.12239 0.78894 0.10833 0.0
Zn322 Zn 0.16333 0.74799 0.12484 0.0
C323 C 0.13073 0.72337 0.09497 0.0
C324 C 0.18862 0.82664 0.11316 0.0
O325 O 0.13417 0.7427 0.14345 0.0
O326 O 0.1653 0.70069 0.15599 0.0
C327 C 0.18954 0.66346 0.11863 0.0
O328 O 0.15243 0.71707 0.10566 0.0
O329 O 0.1119 0.75263 0.09389 0.0
O330 O 0.15913 0.82772 0.10553 0.0
O331 O 0.19509 0.79939 0.12142 0.0
O332 O 0.20645 0.66133 0.13021 0.0
O333 O 0.17165 0.69317 0.11496 0.0
O334 O 0.2171 0.77588 0.13007 0.0
O335 O 0.2429 0.73794 0.14563 0.0
C336 C 0.24409 0.76725 0.13876 0.0
O337 O 0.11021 0.76122 0.13368 0.0
O338 O 0.08185 0.80098 0.1194 0.0
C339 C 0.13882 0.7232 0.15435 0.0
C340 C 0.08255 0.78257 0.13021 0.0
Zn341 Zn 0.57172 0.70958 0.35781 0.0
Zn342 Zn 0.65435 0.79934 0.38844 0.0
Zn343 Zn 0.61137 0.75422 0.37395 0.0
C344 C 0.58877 0.83723 0.38214 0.0
C345 C 0.69312 0.7839 0.36692 0.0
O346 O 0.60475 0.70118 0.38515 0.0
O347 O 0.5683 0.66851 0.37079 0.0
C348 C 0.52842 0.77221 0.36113 0.0
O349 O 0.57977 0.8062 0.37648 0.0
O350 O 0.62035 0.84169 0.38813 0.0
O351 O 0.6962 0.8034 0.3774 0.0
O352 O 0.66368 0.7646 0.36407 0.0
O353 O 0.5285 0.7427 0.35445 0.0
O354 O 0.55665 0.78115 0.36917 0.0
O355 O 0.63803 0.74658 0.35488 0.0
O356 O 0.60475 0.70486 0.34315 0.0
C357 C 0.63176 0.72675 0.3442 0.0
O358 O 0.62469 0.7262 0.39366 0.0
O359 O 0.66073 0.76733 0.40458 0.0
C360 C 0.58635 0.67148 0.38213 0.0
C361 C 0.64466 0.73644 0.4043 0.0
Zn362 Zn 0.62632 0.28933 0.60983 0.0
Zn363 Zn 0.71244 0.20442 0.64119 0.0
Zn364 Zn 0.67038 0.24792 0.62529 0.0
C365 C 0.75307 0.26872 0.63746 0.0
C366 C 0.69698 0.16435 0.61782 0.0
O367 O 0.6184 0.25881 0.63525 0.0
O368 O 0.58694 0.29841 0.62175 0.0
C369 C 0.69172 0.32868 0.61411 0.0
O370 O 0.72408 0.27691 0.62964 0.0
O371 O 0.75457 0.23892 0.64412 0.0
O372 O 0.71662 0.16229 0.62887 0.0
O373 O 0.67791 0.19382 0.61483 0.0
O374 O 0.66119 0.32987 0.6071 0.0
O375 O 0.70014 0.30062 0.6218 0.0
O376 O 0.65805 0.2185 0.60591 0.0
O377 O 0.61593 0.25409 0.59498 0.0
C378 C 0.63548 0.22528 0.59549 0.0
O379 O 0.64373 0.23972 0.64429 0.0
O380 O 0.67948 0.19921 0.65585 0.0
C381 C 0.58973 0.27934 0.63242 0.0
C382 C 0.65127 0.21961 0.6549 0.0
Zn383 Zn 0.07174 0.21283 0.85797 0.0
Zn384 Zn 0.15417 0.30321 0.88832 0.0
Zn385 Zn 0.11122 0.25759 0.874 0.0
C386 C 0.14466 0.24048 0.90436 0.0
C387 C 0.08839 0.34075 0.88197 0.0
O388 O 0.13813 0.24932 0.85503 0.0
O389 O 0.10503 0.20717 0.84345 0.0
C390 C 0.08597 0.17514 0.8824 0.0
O391 O 0.12459 0.22999 0.89377 0.0
O392 O 0.16074 0.27137 0.90452 0.0
O393 O 0.11997 0.3454 0.88795 0.0
O394 O 0.07948 0.30959 0.8764 0.0
O395 O 0.06786 0.17217 0.87107 0.0
O396 O 0.10459 0.20474 0.88535 0.0
O397 O 0.05641 0.28432 0.86917 0.0
O398 O 0.0286 0.24593 0.85435 0.0
C399 C 0.02831 0.27537 0.86107 0.0
O400 O 0.16347 0.26805 0.86408 0.0
O401 O 0.19586 0.30744 0.87721 0.0
C402 C 0.1321 0.22898 0.84446 0.0
C403 C 0.19277 0.28765 0.8668 0.0
H404 H 0.1252 0.46332 0.07537 0.0
H405 H 0.24599 0.61568 0.11687 0.0
H406 H 0.23938 0.44932 0.09 0.0
H407 H 0.13388 0.63561 0.10098 0.0
H408 H 0.24456 0.55623 0.10554 0.0
H409 H 0.12775 0.52708 0.08357 0.0
C410 C 0.15077 0.47354 0.08034 0.0
C411 C 0.18212 0.45071 0.08202 0.0
C412 C 0.22032 0.57364 0.10435 0.0
C413 C 0.18529 0.52392 0.09128 0.0
C414 C 0.22118 0.60771 0.11079 0.0
C415 C 0.19005 0.63067 0.10983 0.0
C416 C 0.18784 0.5619 0.09699 0.0
C417 C 0.15864 0.61896 0.10182 0.0
C418 C 0.15226 0.51008 0.08492 0.0
C419 C 0.21461 0.46582 0.08833 0.0
N420 N 0.15817 0.58513 0.09583 0.0
N421 N 0.21526 0.50127 0.09275 0.0
H422 H 0.90019 0.83581 0.33603 0.0
H423 H 0.71833 0.72575 0.35252 0.0
H424 H 0.88714 0.71838 0.33007 0.0
H425 H 0.74027 0.83969 0.36269 0.0
H426 H 0.77633 0.72357 0.34163 0.0
H427 H 0.83871 0.83845 0.3438 0.0
C428 C 0.88457 0.81046 0.33647 0.0
C429 C 0.89916 0.77676 0.3325 0.0
C430 C 0.76819 0.74913 0.34612 0.0
C431 C 0.82804 0.77971 0.34118 0.0
C432 C 0.73495 0.75047 0.35221 0.0
C433 C 0.72453 0.78296 0.35849 0.0
C434 C 0.791 0.78052 0.34637 0.0
C435 C 0.74738 0.81402 0.35802 0.0
C436 C 0.84923 0.81205 0.3408 0.0
C437 C 0.87701 0.74503 0.33296 0.0
N438 N 0.77952 0.81198 0.35214 0.0
N439 N 0.84262 0.74725 0.33725 0.0
H440 H 0.71212 0.55695 0.62475 0.0
H441 H 0.72109 0.35932 0.59268 0.0
H442 H 0.75087 0.53761 0.58566 0.0
H443 H 0.71138 0.37477 0.63504 0.0
H444 H 0.73986 0.42374 0.59078 0.0
H445 H 0.7181 0.49082 0.62969 0.0
C446 C 0.72246 0.53899 0.61728 0.0
C447 C 0.73032 0.55296 0.60465 0.0
C448 C 0.73465 0.41298 0.6006 0.0
C449 C 0.73682 0.47699 0.61021 0.0
C450 C 0.72432 0.37606 0.60169 0.0
C451 C 0.71505 0.36181 0.61404 0.0
C452 C 0.73451 0.43616 0.61187 0.0
C453 C 0.71881 0.38475 0.62538 0.0
C454 C 0.7258 0.50114 0.62011 0.0
C455 C 0.74343 0.5281 0.59538 0.0
N456 N 0.72743 0.42111 0.62397 0.0
N457 N 0.74577 0.49141 0.59827 0.0
H458 H 0.80286 0.30551 0.87079 0.0
H459 H 0.991 0.29948 0.83805 0.0
H460 H 0.81487 0.34601 0.83056 0.0
H461 H 0.98723 0.29879 0.88115 0.0
H462 H 0.92716 0.32068 0.83542 0.0
H463 H 0.86993 0.30631 0.87536 0.0
C464 C 0.81943 0.31516 0.86298 0.0
C465 C 0.80296 0.32508 0.85016 0.0
C466 C 0.94038 0.31677 0.84549 0.0
C467 C 0.87997 0.32549 0.85531 0.0
C468 C 0.97689 0.30486 0.84698 0.0
C469 C 0.99425 0.29755 0.85982 0.0
C470 C 0.92063 0.32026 0.85691 0.0
C471 C 0.97475 0.30446 0.87108 0.0
C472 C 0.85781 0.31553 0.8656 0.0
C473 C 0.82616 0.33705 0.84045 0.0
N474 N 0.9386 0.31465 0.86937 0.0
N475 N 0.86335 0.33641 0.84316 0.0
H476 H 0.07533 0.56753 0.88695 0.0
H477 H 0.02993 0.3572 0.8963 0.0
H478 H 0.9925 0.52986 0.91231 0.0
H479 H 0.09496 0.39896 0.86552 0.0
H480 H 1.00672 0.41995 0.89957 0.0
H481 H 0.07432 0.50724 0.87627 0.0
C482 C 0.05629 0.54695 0.89011 0.0
C483 C 0.03454 0.55382 0.90079 0.0
C484 C 0.02514 0.41526 0.89179 0.0
C485 C 0.03403 0.48387 0.88878 0.0
C486 C 0.038 0.37938 0.88984 0.0
C487 C 0.06411 0.37316 0.88059 0.0
C488 C 0.0392 0.44493 0.88461 0.0
C489 C 0.07458 0.40281 0.87268 0.0
C490 C 0.0559 0.51226 0.88403 0.0
C491 C 1.01069 0.52559 0.90443 0.0
N492 N 0.06264 0.43751 0.87503 0.0
N493 N 0.01159 0.49171 0.89863 0.0
H494 H 0.88848 0.73342 0.17191 0.0
H495 H 0.03807 0.84181 0.13247 0.0
H496 H 0.87344 0.84338 0.15538 0.0
H497 H 0.05282 0.72873 0.14564 0.0
H498 H 0.98003 0.84403 0.14284 0.0
H499 H 0.9501 0.73173 0.16385 0.0
C500 C 0.89797 0.75711 0.16651 0.0
C501 C 0.87558 0.7886 0.16432 0.0
C502 C 0.996 0.81876 0.14361 0.0
C503 C 0.94639 0.78703 0.15527 0.0
C504 C 0.02926 0.81753 0.13772 0.0
C505 C 0.05036 0.78508 0.13824 0.0
C506 C 0.98334 0.78716 0.14999 0.0
C507 C 0.03762 0.75445 0.14517 0.0
C508 C 0.93329 0.75622 0.16202 0.0
C509 C 0.88974 0.81869 0.15747 0.0
N510 N 1.00473 0.75614 0.1507 0.0
N511 N 0.9241 0.81711 0.15321 0.0
H512 H 0.64988 0.45875 0.41505 0.0
H513 H 0.52771 0.63073 0.38779 0.0
H514 H 0.53187 0.45694 0.40631 0.0
H515 H 0.64523 0.63845 0.39676 0.0
H516 H 0.52864 0.56966 0.39813 0.0
H517 H 0.64903 0.526 0.41149 0.0
C518 C 0.62377 0.47252 0.41253 0.0
C519 C 0.59094 0.45206 0.41075 0.0
C520 C 0.55429 0.58472 0.39807 0.0
C521 C 0.58978 0.52888 0.40671 0.0
C522 C 0.55368 0.61974 0.39223 0.0
C523 C 0.58645 0.63946 0.39137 0.0
C524 C 0.58808 0.5687 0.40284 0.0
C525 C 0.61937 0.62405 0.39727 0.0
C526 C 0.62333 0.51088 0.41049 0.0
C527 C 0.55795 0.47137 0.40748 0.0
N528 N 0.61949 0.58916 0.40255 0.0
N529 N 0.55828 0.50848 0.40549 0.0
H530 H 0.97782 0.30122 0.62794 0.0
H531 H 0.78859 0.29668 0.66009 0.0
H532 H 0.96435 0.34482 0.66748 0.0
H533 H 0.79413 0.29072 0.61715 0.0
H534 H 0.85203 0.31904 0.6626 0.0
H535 H 0.91085 0.30102 0.62318 0.0
C536 C 0.96095 0.31135 0.63556 0.0
C537 C 0.97703 0.32248 0.64825 0.0
C538 C 0.83925 0.31376 0.65257 0.0
C539 C 0.90004 0.3217 0.64288 0.0
C540 C 0.80295 0.30125 0.65114 0.0
C541 C 0.78622 0.29213 0.6384 0.0
C542 C 0.85945 0.31601 0.6412 0.0
C543 C 0.80608 0.29787 0.62713 0.0
C544 C 0.92261 0.31112 0.63282 0.0
C545 C 0.95341 0.33495 0.65771 0.0
N546 N 0.84202 0.30868 0.62881 0.0
N547 N 0.91625 0.33373 0.6549 0.0
H548 H 0.39288 0.21411 0.66875 0.0
H549 H 0.54534 0.33727 0.63685 0.0
H550 H 0.38431 0.33213 0.66289 0.0
H551 H 0.56197 0.22207 0.64672 0.0
H552 H 0.48754 0.33598 0.64744 0.0
H553 H 0.4553 0.21618 0.66148 0.0
C554 C 0.40409 0.24049 0.66599 0.0
C555 C 0.38304 0.27299 0.66638 0.0
C556 C 0.50392 0.31102 0.64747 0.0
C557 C 0.45458 0.27545 0.65797 0.0
C558 C 0.53703 0.31179 0.64146 0.0
C559 C 0.55848 0.27975 0.64094 0.0
C560 C 0.49168 0.27776 0.65285 0.0
C561 C 0.5464 0.24747 0.64704 0.0
C562 C 0.43977 0.24161 0.66182 0.0
C563 C 0.39904 0.30624 0.66252 0.0
N564 N 0.51353 0.24716 0.65262 0.0
N565 N 0.4337 0.30657 0.65847 0.0
H566 H 0.46592 0.83468 0.12864 0.0
H567 H 0.28191 0.78394 0.16243 0.0
H568 H 0.45778 0.82171 0.1714 0.0
H569 H 0.28377 0.79996 0.1196 0.0
H570 H 0.34461 0.80724 0.16579 0.0
H571 H 0.39869 0.82942 0.12493 0.0
C572 C 0.45011 0.83094 0.13726 0.0
C573 C 0.46782 0.82847 0.15037 0.0
C574 C 0.33136 0.80628 0.15564 0.0
C575 C 0.39074 0.82286 0.14617 0.0
C576 C 0.29541 0.79316 0.15374 0.0
C577 C 0.27783 0.78983 0.14072 0.0
C578 C 0.3504 0.81543 0.14442 0.0
C579 C 0.29646 0.8022 0.1298 0.0
C580 C 0.41167 0.82822 0.13513 0.0
C581 C 0.44565 0.82425 0.16113 0.0
N582 N 0.33212 0.81383 0.13186 0.0
N583 N 0.40852 0.82133 0.15877 0.0
H584 H 0.38787 0.21654 0.83067 0.0
H585 H 0.23793 0.3443 0.8616 0.0
H586 H 0.39795 0.33474 0.83509 0.0
H587 H 0.21967 0.22874 0.85327 0.0
H588 H 0.2954 0.34127 0.85086 0.0
H589 H 0.32576 0.22007 0.83817 0.0
C590 C 0.37704 0.24327 0.83316 0.0
C591 C 0.39842 0.27539 0.8323 0.0
C592 C 0.27875 0.31659 0.8512 0.0
C593 C 0.32727 0.27953 0.84096 0.0
C594 C 0.24585 0.31835 0.85731 0.0
C595 C 0.22404 0.28673 0.8583 0.0
C596 C 0.29041 0.28277 0.84621 0.0
C597 C 0.23556 0.25382 0.85259 0.0
C598 C 0.34155 0.24522 0.83745 0.0
C599 C 0.38294 0.30913 0.83583 0.0
N600 N 0.26824 0.25256 0.8469 0.0
N601 N 0.34846 0.31026 0.84001 0.0
H602 H 0.30275 0.80352 0.37005 0.0
H603 H 0.49196 0.7972 0.33809 0.0
H604 H 0.31627 0.84575 0.33015 0.0
H605 H 0.48687 0.7953 0.38113 0.0
H606 H 0.4283 0.81894 0.33529 0.0
H607 H 0.36973 0.80357 0.37487 0.0
C608 C 0.31963 0.8134 0.36236 0.0
C609 C 0.30359 0.82405 0.34956 0.0
C610 C 0.44121 0.81465 0.34539 0.0
C611 C 0.38053 0.82356 0.355 0.0
C612 C 0.47761 0.80243 0.34698 0.0
C613 C 0.49454 0.79464 0.35985 0.0
C614 C 0.42112 0.81796 0.35674 0.0
C615 C 0.47474 0.80135 0.37105 0.0
C616 C 0.35796 0.81333 0.36513 0.0
C617 C 0.3272 0.83623 0.34002 0.0
N618 N 0.43869 0.81186 0.36923 0.0
N619 N 0.36435 0.83515 0.34286 0.0
H620 H 0.73926 0.9469 0.58804 0.0
H621 H 0.63835 0.13902 0.601 0.0
H622 H 0.62373 0.96602 0.57676 0.0
H623 H 0.75068 0.11357 0.61523 0.0
H624 H 0.63382 0.0789 0.58963 0.0
H625 H 0.74487 1.01017 0.59621 0.0
C626 C 0.71496 0.96426 0.58736 0.0
C627 C 0.6809 0.95079 0.58177 0.0
C628 C 0.65959 0.08671 0.5951 0.0
C629 C 0.6873 0.02397 0.59096 0.0
C630 C 0.66231 0.12124 0.60144 0.0
C631 C 0.69499 0.1314 0.60901 0.0
C632 C 0.68978 0.06226 0.59638 0.0
C633 C 0.7249 0.10681 0.60954 0.0
C634 C 0.71825 1.00061 0.59193 0.0
C635 C 0.65063 0.97514 0.58088 0.0
N636 N 0.72151 0.07345 0.6034 0.0
N637 N 0.6545 1.01044 0.58546 0.0
H638 H 0.25419 0.03552 0.08474 0.0
H639 H 0.21267 0.86967 0.13458 0.0
H640 H 0.21402 0.0518 0.12379 0.0
H641 H 0.21589 0.85923 0.09165 0.0
H642 H 0.23277 0.93434 0.13294 0.0
H643 H 0.25881 0.96937 0.0894 0.0
C644 C 0.24649 0.02526 0.09433 0.0
C645 C 0.23283 0.04931 0.10375 0.0
C646 C 0.2301 0.91751 0.12395 0.0
C647 C 0.23871 0.97336 0.10923 0.0
C648 C 0.21915 0.88055 0.12492 0.0
C649 C 0.21265 0.85932 0.11322 0.0
C650 C 0.23489 0.93289 0.11122 0.0
C651 C 0.22066 0.87481 0.10089 0.0
C652 C 0.24941 0.98747 0.09702 0.0
C653 C 0.22452 0.03439 0.11619 0.0
N654 N 0.23099 0.91073 0.10019 0.0
N655 N 0.22712 0.99731 0.11851 0.0
H656 H 0.5774 0.06401 0.38705 0.0
H657 H 0.53122 0.85409 0.39684 0.0
H658 H 0.49591 0.0269 0.41307 0.0
H659 H 0.5947 0.89517 0.36549 0.0
H660 H 0.50858 0.91698 0.40021 0.0
H661 H 0.57536 1.00371 0.37635 0.0
C662 C 0.55843 0.04355 0.39035 0.0
C663 C 0.53738 0.05056 0.40122 0.0
C664 C 0.52651 0.91212 0.39229 0.0
C665 C 0.53568 0.98062 0.38918 0.0
C666 C 0.53905 0.87616 0.39028 0.0
C667 C 0.56457 0.8697 0.38083 0.0
C668 C 0.54035 0.94164 0.38497 0.0
C669 C 0.57476 0.89921 0.37281 0.0
C670 C 0.55745 1.00886 0.38426 0.0
C671 C 0.51358 0.02251 0.40504 0.0
N672 N 0.56318 0.93401 0.37522 0.0
N673 N 0.5139 0.98862 0.39922 0.0
H674 H 0.0252 0.96159 0.90872 0.0
H675 H 0.14434 0.14354 0.89783 0.0
H676 H 0.14392 0.96248 0.91411 0.0
H677 H 0.02759 0.13306 0.88738 0.0
H678 H 0.14451 0.08164 0.90831 0.0
H679 H 0.02551 0.02817 0.90514 0.0
C680 C 0.0514 0.97584 0.90915 0.0
C681 C 0.08459 0.95627 0.91147 0.0
C682 C 0.11878 0.09327 0.90395 0.0
C683 C 0.08523 0.03299 0.9074 0.0
C684 C 0.11864 0.12867 0.8981 0.0
C685 C 0.08593 0.14316 0.89167 0.0
C686 C 0.08592 0.07265 0.90338 0.0
C687 C 0.05343 0.1227 0.89215 0.0
C688 C 0.05158 0.01397 0.90718 0.0
C689 C 0.11768 0.97645 0.91229 0.0
N690 N 0.05432 0.08849 0.89776 0.0
N691 N 0.11721 0.01367 0.91009 0.0
H692 H 0.21679 0.19921 0.98602 0.0
H693 H 0.09152 0.20067 0.91613 0.0
H694 H 0.1016 0.17035 0.98305 0.0
H695 H 0.20609 0.23149 0.9212 0.0
H696 H 0.09617 0.17834 0.93963 0.0
H697 H 0.2148 0.20114 0.96154 0.0
C698 C 0.19101 0.19329 0.98017 0.0
C699 C 0.15916 0.18528 0.98656 0.0
C700 C 0.12044 0.1893 0.93549 0.0
C701 C 0.15654 0.18739 0.9584 0.0
C702 C 0.11786 0.20169 0.92206 0.0
C703 C 0.14839 0.21826 0.91684 0.0
C704 C 0.1538 0.19357 0.94358 0.0
C705 C 0.1818 0.21927 0.92493 0.0
C706 C 0.1899 0.19415 0.96617 0.0
C707 C 0.12672 0.17688 0.97849 0.0
N708 N 0.18349 0.20755 0.9379 0.0
N709 N 0.12607 0.17865 0.96479 0.0
H710 H 0.08959 0.71393 0.23621 0.0
H711 H 0.11105 0.78933 0.16185 0.0
H712 H 0.11112 0.82781 0.22665 0.0
H713 H 0.12025 0.67468 0.17361 0.0
H714 H 0.09158 0.80407 0.18415 0.0
H715 H 0.08212 0.70017 0.21211 0.0
C716 C 0.09204 0.7362 0.22904 0.0
C717 C 0.10153 0.77197 0.23344 0.0
C718 C 0.09703 0.77557 0.18173 0.0
C719 C 0.09325 0.75634 0.20587 0.0
C720 C 0.10775 0.76709 0.16896 0.0
C721 C 0.11751 0.73078 0.16596 0.0
C722 C 0.09613 0.74749 0.19149 0.0
C723 C 0.11327 0.70309 0.1756 0.0
C724 C 0.08794 0.72828 0.21529 0.0
C725 C 0.10456 0.79969 0.22368 0.0
N726 N 0.10334 0.71208 0.18799 0.0
N727 N 0.1008 0.79123 0.21035 0.0
H728 H 0.71762 0.69416 0.48576 0.0
H729 H 0.59115 0.69737 0.41613 0.0
H730 H 0.60144 0.66974 0.48315 0.0
H731 H 0.70626 0.72615 0.42093 0.0
H732 H 0.59579 0.67517 0.43965 0.0
H733 H 0.71531 0.69502 0.46126 0.0
C734 C 0.69157 0.68897 0.47999 0.0
C735 C 0.65955 0.68257 0.48647 0.0
C736 C 0.62017 0.68563 0.43544 0.0
C737 C 0.65654 0.68349 0.4583 0.0
C738 C 0.61759 0.69792 0.42201 0.0
C739 C 0.6483 0.71394 0.41672 0.0
C740 C 0.65372 0.68937 0.44347 0.0
C741 C 0.68185 0.71437 0.42472 0.0
C742 C 0.69025 0.68923 0.46598 0.0
C743 C 0.6267 0.67504 0.47851 0.0
N744 N 0.68355 0.70273 0.43771 0.0
N745 N 0.62589 0.67622 0.4648 0.0
H746 H 0.59837 0.31204 0.72914 0.0
H747 H 0.63713 0.16573 0.67276 0.0
H748 H 0.62253 0.19678 0.7367 0.0
H749 H 0.61959 0.28167 0.66447 0.0
H750 H 0.61735 0.1746 0.69529 0.0
H751 H 0.59272 0.29971 0.70487 0.0
C752 C 0.60185 0.28403 0.7257 0.0
C753 C 0.61155 0.25548 0.73493 0.0
C754 C 0.6171 0.19806 0.6885 0.0
C755 C 0.60531 0.24123 0.70723 0.0
C756 C 0.62822 0.19293 0.67561 0.0
C757 C 0.63027 0.22307 0.66683 0.0
C758 C 0.60869 0.23376 0.69275 0.0
C759 C 0.61832 0.2577 0.67096 0.0
C760 C 0.59874 0.27704 0.71185 0.0
C761 C 0.61583 0.21975 0.72993 0.0
N762 N 0.6087 0.26229 0.68375 0.0
N763 N 0.61304 0.21373 0.71644 0.0
H764 H 0.18289 0.70772 0.01587 0.0
H765 H 0.07126 0.69651 0.08004 0.0
H766 H 0.06451 0.70204 0.01498 0.0
H767 H 0.18972 0.7001 0.08222 0.0
H768 H 0.06974 0.68021 0.05628 0.0
H769 H 0.18739 0.689 0.03965 0.0
C770 C 0.15789 0.70177 0.02061 0.0
C771 C 0.12324 0.70723 0.01355 0.0
C772 C 0.09622 0.68355 0.06197 0.0
C773 C 0.12813 0.686 0.04071 0.0
C774 C 0.09704 0.69246 0.07558 0.0
C775 C 0.13062 0.69999 0.08296 0.0
C776 C 0.1292 0.68336 0.05563 0.0
C777 C 0.16328 0.69456 0.07678 0.0
C778 C 0.16045 0.69114 0.03419 0.0
C779 C 0.09174 0.6991 0.02016 0.0
N780 N 0.16177 0.68761 0.06332 0.0
N781 N 0.09493 0.68941 0.03339 0.0
H782 H 0.67674 0.71463 0.2617 0.0
H783 H 0.66253 0.79113 0.33613 0.0
H784 H 0.66533 0.82993 0.27126 0.0
H785 H 0.64539 0.67733 0.32468 0.0
H786 H 0.6818 0.8045 0.31367 0.0
H787 H 0.68271 0.70004 0.2858 0.0
C788 C 0.67619 0.73697 0.26887 0.0
C789 C 0.67002 0.77351 0.26446 0.0
C790 C 0.67457 0.77644 0.31617 0.0
C791 C 0.67658 0.75695 0.29204 0.0
C792 C 0.66396 0.76871 0.32904 0.0
C793 C 0.65215 0.7331 0.33222 0.0
C794 C 0.67327 0.74836 0.30646 0.0
C795 C 0.654 0.70522 0.32258 0.0
C796 C 0.67941 0.72859 0.28262 0.0
C797 C 0.66932 0.8013 0.27422 0.0
N798 N 0.66388 0.71352 0.31008 0.0
N799 N 0.6722 0.79242 0.28755 0.0
H800 H 0.56864 0.19436 0.51403 0.0
H801 H 0.69428 0.19824 0.58338 0.0
H802 H 0.68595 0.21296 0.51717 0.0
H803 H 0.57574 0.20401 0.57933 0.0
H804 H 0.69316 0.18206 0.55942 0.0
H805 H 0.57281 0.17717 0.53785 0.0
C806 C 0.59536 0.19441 0.51972 0.0
C807 C 0.62686 0.20596 0.51371 0.0
C808 C 0.66737 0.18577 0.56389 0.0
C809 C 0.63187 0.18636 0.541 0.0
C810 C 0.66801 0.1946 0.57757 0.0
C811 C 0.63506 0.20298 0.58319 0.0
C812 C 0.63354 0.1852 0.55593 0.0
C813 C 0.60174 0.19818 0.57527 0.0
C814 C 0.59777 0.18442 0.5333 0.0
C815 C 0.66094 0.20454 0.52145 0.0
N816 N 0.60184 0.1902 0.56199 0.0
N817 N 0.66247 0.19565 0.53478 0.0
H818 H 0.17 0.33142 0.77078 0.0
H819 H 0.14821 0.17772 0.82595 0.0
H820 H 0.17905 0.21482 0.76302 0.0
H821 H 0.16138 0.29316 0.83557 0.0
H822 H 0.16817 0.19016 0.80359 0.0
H823 H 0.17441 0.31817 0.79497 0.0
C824 C 0.17329 0.30306 0.77418 0.0
C825 C 0.17366 0.27414 0.76487 0.0
C826 C 0.16753 0.21271 0.81067 0.0
C827 C 0.17864 0.25871 0.79253 0.0
C828 C 0.15623 0.20556 0.82345 0.0
C829 C 0.15295 0.23449 0.83256 0.0
C830 C 0.17475 0.24923 0.80687 0.0
C831 C 0.16366 0.27005 0.82884 0.0
C832 C 0.17605 0.29551 0.788 0.0
C833 C 0.17864 0.23797 0.76983 0.0
N834 N 0.17338 0.27657 0.81617 0.0
N835 N 0.18034 0.23124 0.78331 0.0
loop_
_geom_bond_atom_site_label_1
_geom_bond_atom_site_label_2
_geom_bond_distance
_geom_bond_site_symmetry_2
_ccdc_geom_bond_type
C0 C1 1.264 . S
C0 C5 1.479 . S
C0 C10 1.465 . S
C1 C0 1.264 . S
C1 C3 1.339 . S
C1 H28 0.931 . S
C2 C3 1.395 . S
C2 C4 1.320 . S
C3 C1 1.339 . S
C3 C2 1.395 . S
C3 H29 0.929 . S
C4 C2 1.320 . S
C4 C5 1.405 . S
C4 H30 0.930 . S
C5 C0 1.479 . S
C5 C4 1.405 . S
C5 H31 0.931 . S
U6 O7 2.454 . S
U6 O8 2.458 . S
U6 C9 2.984 . S
U6 C10 2.847 . S
U6 C23 2.882 . S
U6 O24 2.441 . S
U6 O25 2.420 . S
U6 O26 2.455 . S
U6 O27 2.449 . S
O7 U6 2.454 . S
O7 C9 1.353 . S
O8 U6 2.458 . S
O8 C9 1.286 . S
C9 U6 2.984 . S
C9 O7 1.353 . S
C9 O8 1.286 . S
C9 C11 1.363 . S
C10 C0 1.465 . S
C10 U6 2.847 . S
C10 O24 1.249 . S
C10 O25 1.202 . S
C11 C9 1.363 . S
C11 C13 1.408 . S
C11 C16 1.342 . S
C12 C13 1.310 . S
C12 C15 1.461 . S
C12 H32 0.932 . S
C13 C11 1.408 . S
C13 C12 1.310 . S
C13 H33 0.930 . S
C14 C15 1.474 . S
C14 C16 1.285 . S
C14 H34 0.929 . S
C15 C12 1.461 . S
C15 C14 1.474 . S
C16 C11 1.342 . S
C16 C14 1.285 . S
C16 H35 0.930 . S
C17 C20 1.424 . S
C17 C22 1.245 . S
C17 C23 1.428 . S
C18 C21 1.232 1_554 S
C18 C22 1.477 . S
C18 H36 0.973 . S
C19 C20 1.384 . S
C19 C21 1.450 1_554 S
C19 H37 0.929 . S
C20 C17 1.424 . S
C20 C19 1.384 . S
C20 H38 0.928 . S
C21 C18 1.232 1_556 S
C21 C19 1.450 1_556 S
C22 C17 1.245 . S
C22 C18 1.477 . S
C22 H39 0.932 . S
C23 U6 2.882 . S
C23 C17 1.428 . S
C23 O26 1.301 . S
C23 O27 1.282 . S
O24 U6 2.441 . S
O24 C10 1.249 . S
O25 U6 2.420 . S
O25 C10 1.202 . S
O26 U6 2.455 . S
O26 C23 1.301 . S
O27 U6 2.449 . S
O27 C23 1.282 . S
H28 C1 0.931 . S
H29 C3 0.929 . S
H30 C4 0.930 . S
H31 C5 0.931 . S
H32 C12 0.932 . S
H33 C13 0.930 . S
H34 C14 0.929 . S
H35 C16 0.930 . S
H36 C18 0.973 . S
H37 C19 0.929 . S
H38 C20 0.928 . S
H39 C22 0.932 . S
C40 C41 1.264 . S
C40 C45 1.479 . S
C40 C50 1.465 . S
C41 C40 1.264 . S
C41 C43 1.339 . S
C41 H68 0.931 . S
C42 C43 1.395 . S
C42 C44 1.320 . S
C43 C41 1.339 . S
C43 C42 1.395 . S
C43 H69 0.929 . S
C44 C42 1.320 . S
C44 C45 1.405 . S
C44 H70 0.930 . S
C45 C40 1.479 . S
C45 C44 1.405 . S
C45 H71 0.931 . S
U46 O47 2.454 . S
U46 O48 2.458 . S
U46 C49 2.984 . S
U46 C50 2.847 . S
U46 C63 2.882 . S
U46 O64 2.441 . S
U46 O65 2.420 . S
U46 O66 2.455 . S
U46 O67 2.449 . S
O47 U46 2.454 . S
O47 C49 1.353 . S
O48 U46 2.458 . S
O48 C49 1.286 . S
C49 U46 2.984 . S
C49 O47 1.353 . S
C49 O48 1.286 . S
C49 C51 1.363 . S
C50 C40 1.465 . S
C50 U46 2.847 . S
C50 O64 1.249 . S
C50 O65 1.202 . S
C51 C49 1.363 . S
C51 C53 1.408 . S
C51 C56 1.342 1_455 S
C52 C53 1.310 1_655 S
C52 C55 1.461 . S
C52 H72 0.932 . S
C53 C51 1.408 . S
C53 C52 1.310 1_455 S
C53 H73 0.930 . S
C54 C55 1.474 . S
C54 C56 1.285 . S
C54 H74 0.929 . S
C55 C52 1.461 . S
C55 C54 1.474 . S
C56 C51 1.342 1_655 S
C56 C54 1.285 . S
C56 H75 0.930 . S
C57 C60 1.424 . S
C57 C62 1.245 . S
C57 C63 1.428 . S
C58 C61 1.260 . S
C58 C62 1.477 . S
C58 H76 0.932 . S
C59 C60 1.384 . S
C59 C61 1.479 . S
C59 H77 0.929 . S
C60 C57 1.424 . S
C60 C59 1.384 . S
C60 H78 0.928 . S
C61 C58 1.260 . S
C61 C59 1.479 . S
C62 C57 1.245 . S
C62 C58 1.477 . S
C62 H79 0.932 . S
C63 U46 2.882 . S
C63 C57 1.428 . S
C63 O66 1.301 . S
C63 O67 1.282 . S
O64 U46 2.441 . S
O64 C50 1.249 . S
O65 U46 2.420 . S
O65 C50 1.202 . S
O66 U46 2.455 . S
O66 C63 1.301 . S
O67 U46 2.449 . S
O67 C63 1.282 . S
H68 C41 0.931 . S
H69 C43 0.929 . S
H70 C44 0.930 . S
H71 C45 0.931 . S
H72 C52 0.932 . S
H73 C53 0.930 . S
H74 C54 0.929 . S
H75 C56 0.930 . S
H76 C58 0.932 . S
H77 C59 0.929 . S
H78 C60 0.928 . S
H79 C62 0.932 . S
C80 C81 1.264 . S
C80 C85 1.479 . S
C80 C90 1.465 . S
C81 C80 1.264 . S
C81 C83 1.339 . S
C81 H108 0.931 . S
C82 C83 1.395 . S
C82 C84 1.320 . S
C83 C81 1.339 . S
C83 C82 1.395 . S
C83 H109 0.929 . S
C84 C82 1.320 . S
C84 C85 1.405 . S
C84 H110 0.930 . S
C85 C80 1.479 . S
C85 C84 1.405 . S
C85 H111 0.931 . S
U86 O87 2.454 . S
U86 O88 2.458 . S
U86 C89 2.984 . S
U86 C90 2.847 . S
U86 C103 2.882 . S
U86 O104 2.441 . S
U86 O105 2.420 . S
U86 O106 2.455 . S
U86 O107 2.449 . S
O87 U86 2.454 . S
O87 C89 1.353 . S
O88 U86 2.458 . S
O88 C89 1.286 . S
C89 U86 2.984 . S
C89 O87 1.353 . S
C89 O88 1.286 . S
C89 C91 1.363 . S
C90 C80 1.465 . S
C90 U86 2.847 . S
C90 O104 1.249 . S
C90 O105 1.202 . S
C91 C89 1.363 . S
C91 C93 1.408 . S
C91 C96 1.342 . S
C92 C93 1.310 . S
C92 C95 1.461 . S
C92 H112 0.932 . S
C93 C91 1.408 . S
C93 C92 1.310 . S
C93 H113 0.930 . S
C94 C95 1.474 . S
C94 C96 1.285 . S
C94 H114 0.929 . S
C95 C92 1.461 . S
C95 C94 1.474 . S
C96 C91 1.342 . S
C96 C94 1.285 . S
C96 H115 0.930 . S
C97 C100 1.424 . S
C97 C102 1.245 . S
C97 C103 1.428 . S
C98 C101 1.260 . S
C98 C102 1.477 . S
C98 H116 0.932 . S
C99 C100 1.384 . S
C99 C101 1.479 . S
C99 H117 0.929 . S
C100 C97 1.424 . S
C100 C99 1.384 . S
C100 H118 0.928 . S
C101 C98 1.260 . S
C101 C99 1.479 . S
C102 C97 1.245 . S
C102 C98 1.477 . S
C102 H119 0.932 . S
C103 U86 2.882 . S
C103 C97 1.428 . S
C103 O106 1.301 . S
C103 O107 1.282 . S
O104 U86 2.441 . S
O104 C90 1.249 . S
O105 U86 2.420 . S
O105 C90 1.202 . S
O106 U86 2.455 . S
O106 C103 1.301 . S
O107 U86 2.449 . S
O107 C103 1.282 . S
H108 C81 0.931 . S
H109 C83 0.929 . S
H110 C84 0.930 . S
H111 C85 0.931 . S
H112 C92 0.932 . S
H113 C93 0.930 . S
H114 C94 0.929 . S
H115 C96 0.930 . S
H116 C98 0.932 . S
H117 C99 0.929 . S
H118 C100 0.928 . S
H119 C102 0.932 . S
C120 C121 1.264 . S
C120 C125 1.479 . S
C120 C130 1.465 . S
C121 C120 1.264 . S
C121 C123 1.339 . S
C121 H148 0.931 . S
C122 C123 1.395 . S
C122 C124 1.320 . S
C123 C121 1.339 . S
C123 C122 1.395 . S
C123 H149 0.929 . S
C124 C122 1.320 . S
C124 C125 1.405 . S
C124 H150 0.930 . S
C125 C120 1.479 . S
C125 C124 1.405 . S
C125 H151 0.931 . S
U126 O127 2.454 . S
U126 O128 2.458 . S
U126 C129 2.984 . S
U126 C130 2.847 . S
U126 C143 2.882 . S
U126 O144 2.441 . S
U126 O145 2.420 . S
U126 O146 2.455 . S
U126 O147 2.449 . S
O127 U126 2.454 . S
O127 C129 1.353 . S
O128 U126 2.458 . S
O128 C129 1.286 . S
C129 U126 2.984 . S
C129 O127 1.353 . S
C129 O128 1.286 . S
C129 C131 1.363 . S
C130 C120 1.465 . S
C130 U126 2.847 . S
C130 O144 1.249 . S
C130 O145 1.202 . S
C131 C129 1.363 . S
C131 C133 1.408 . S
C131 C136 1.342 . S
C132 C133 1.310 . S
C132 C135 1.461 . S
C132 H152 0.932 . S
C133 C131 1.408 . S
C133 C132 1.310 . S
C133 H153 0.930 . S
C134 C135 1.474 . S
C134 C136 1.285 . S
C134 H154 0.929 . S
C135 C132 1.461 . S
C135 C134 1.474 . S
C136 C131 1.342 . S
C136 C134 1.285 . S
C136 H155 0.930 . S
C137 C140 1.424 . S
C137 C142 1.245 . S
C137 C143 1.428 . S
C138 C141 1.260 . S
C138 C142 1.477 . S
C138 H156 0.932 . S
C139 C140 1.384 . S
C139 C141 1.479 . S
C139 H157 0.929 . S
C140 C137 1.424 . S
C140 C139 1.384 . S
C140 H158 0.928 . S
C141 C138 1.260 . S
C141 C139 1.479 . S
C142 C137 1.245 . S
C142 C138 1.477 . S
C142 H159 0.932 . S
C143 U126 2.882 . S
C143 C137 1.428 . S
C143 O146 1.301 . S
C143 O147 1.282 . S
O144 U126 2.441 . S
O144 C130 1.249 . S
O145 U126 2.420 . S
O145 C130 1.202 . S
O146 U126 2.455 . S
O146 C143 1.301 . S
O147 U126 2.449 . S
O147 C143 1.282 . S
H148 C121 0.931 . S
H149 C123 0.929 . S
H150 C124 0.930 . S
H151 C125 0.931 . S
H152 C132 0.932 . S
H153 C133 0.930 . S
H154 C134 0.929 . S
H155 C136 0.930 . S
H156 C138 0.932 . S
H157 C139 0.929 . S
H158 C140 0.928 . S
H159 C142 0.932 . S
C160 C161 1.264 . S
C160 C165 1.479 . S
C160 C170 1.465 . S
C161 C160 1.264 . S
C161 C163 1.339 . S
C161 H188 0.931 . S
C162 C163 1.395 . S
C162 C164 1.320 . S
C163 C161 1.339 . S
C163 C162 1.395 . S
C163 H189 0.929 . S
C164 C162 1.320 . S
C164 C165 1.405 . S
C164 H190 0.930 . S
C165 C160 1.479 . S
C165 C164 1.405 . S
C165 H191 0.931 . S
U166 O167 2.454 . S
U166 O168 2.458 . S
U166 C169 2.984 . S
U166 C170 2.847 . S
U166 C183 2.882 . S
U166 O184 2.441 . S
U166 O185 2.420 . S
U166 O186 2.455 . S
U166 O187 2.449 . S
O167 U166 2.454 . S
O167 C169 1.353 . S
O168 U166 2.458 . S
O168 C169 1.286 . S
C169 U166 2.984 . S
C169 O167 1.353 . S
C169 O168 1.286 . S
C169 C171 1.363 . S
C170 C160 1.465 . S
C170 U166 2.847 . S
C170 O184 1.249 . S
C170 O185 1.202 . S
C171 C169 1.363 . S
C171 C173 1.408 . S
C171 C176 1.342 . S
C172 C173 1.310 . S
C172 C175 1.461 . S
C172 H192 0.932 . S
C173 C171 1.408 . S
C173 C172 1.310 . S
C173 H193 0.930 . S
C174 C175 1.474 . S
C174 C176 1.285 . S
C174 H194 0.929 . S
C175 C172 1.461 . S
C175 C174 1.474 . S
C176 C171 1.342 . S
C176 C174 1.285 . S
C176 H195 0.930 . S
C177 C180 1.424 . S
C177 C182 1.245 . S
C177 C183 1.428 . S
C178 C181 1.260 . S
C178 C182 1.477 . S
C178 H196 0.932 . S
C179 C180 1.384 . S
C179 C181 1.479 . S
C179 H197 0.929 . S
C180 C177 1.424 . S
C180 C179 1.384 . S
C180 H198 0.928 . S
C181 C178 1.260 . S
C181 C179 1.479 . S
C182 C177 1.245 . S
C182 C178 1.477 . S
C182 H199 0.932 . S
C183 U166 2.882 . S
C183 C177 1.428 . S
C183 O186 1.301 . S
C183 O187 1.282 . S
O184 U166 2.441 . S
O184 C170 1.249 . S
O185 U166 2.420 . S
O185 C170 1.202 . S
O186 U166 2.455 . S
O186 C183 1.301 . S
O187 U166 2.449 . S
O187 C183 1.282 . S
H188 C161 0.931 . S
H189 C163 0.929 . S
H190 C164 0.930 . S
H191 C165 0.931 . S
H192 C172 0.932 . S
H193 C173 0.930 . S
H194 C174 0.929 . S
H195 C176 0.930 . S
H196 C178 0.932 . S
H197 C179 0.929 . S
H198 C180 0.928 . S
H199 C182 0.932 . S
C200 C201 1.264 . S
C200 C205 1.479 . S
C200 C210 1.465 . S
C201 C200 1.264 . S
C201 C203 1.339 . S
C201 H228 0.931 . S
C202 C203 1.395 . S
C202 C204 1.320 . S
C203 C201 1.339 . S
C203 C202 1.395 . S
C203 H229 0.929 . S
C204 C202 1.320 . S
C204 C205 1.405 . S
C204 H230 0.930 . S
C205 C200 1.479 . S
C205 C204 1.405 . S
C205 H231 0.931 . S
U206 O207 2.454 . S
U206 O208 2.458 . S
U206 C209 2.984 . S
U206 C210 2.847 . S
U206 C223 2.882 . S
U206 O224 2.441 . S
U206 O225 2.420 . S
U206 O226 2.455 . S
U206 O227 2.449 . S
O207 U206 2.454 . S
O207 C209 1.353 . S
O208 U206 2.458 . S
O208 C209 1.286 . S
C209 U206 2.984 . S
C209 O207 1.353 . S
C209 O208 1.286 . S
C209 C211 1.363 . S
C210 C200 1.465 . S
C210 U206 2.847 . S
C210 O224 1.249 . S
C210 O225 1.202 . S
C211 C209 1.363 . S
C211 C213 1.408 . S
C211 C216 1.342 . S
C212 C213 1.310 . S
C212 C215 1.461 . S
C212 H232 0.932 . S
C213 C211 1.408 . S
C213 C212 1.310 . S
C213 H233 0.930 . S
C214 C215 1.474 . S
C214 C216 1.285 . S
C214 H234 0.929 . S
C215 C212 1.461 . S
C215 C214 1.474 . S
C216 C211 1.342 . S
C216 C214 1.285 . S
C216 H235 0.930 . S
C217 C220 1.424 . S
C217 C222 1.245 . S
C217 C223 1.428 . S
C218 C221 1.260 . S
C218 C222 1.477 . S
C218 H236 0.932 . S
C219 C220 1.384 . S
C219 C221 1.479 . S
C219 H237 0.929 . S
C220 C217 1.424 . S
C220 C219 1.384 . S
C220 H238 0.928 . S
C221 C218 1.260 . S
C221 C219 1.479 . S
C222 C217 1.245 . S
C222 C218 1.477 . S
C222 H239 0.932 . S
C223 U206 2.882 . S
C223 C217 1.428 . S
C223 O226 1.301 . S
C223 O227 1.282 . S
O224 U206 2.441 . S
O224 C210 1.249 . S
O225 U206 2.420 . S
O225 C210 1.202 . S
O226 U206 2.455 . S
O226 C223 1.301 . S
O227 U206 2.449 . S
O227 C223 1.282 . S
H228 C201 0.931 . S
H229 C203 0.929 . S
H230 C204 0.930 . S
H231 C205 0.931 . S
H232 C212 0.932 . S
H233 C213 0.930 . S
H234 C214 0.929 . S
H235 C216 0.930 . S
H236 C218 0.932 . S
H237 C219 0.929 . S
H238 C220 0.928 . S
H239 C222 0.932 . S
C240 C241 1.264 . S
C240 C245 1.479 . S
C240 C250 1.465 . S
C241 C240 1.264 . S
C241 C243 1.339 . S
C241 H268 0.931 . S
C242 C243 1.395 . S
C242 C244 1.320 . S
C243 C241 1.339 . S
C243 C242 1.395 . S
C243 H269 0.929 . S
C244 C242 1.320 . S
C244 C245 1.405 . S
C244 H270 0.930 . S
C245 C240 1.479 . S
C245 C244 1.405 . S
C245 H271 0.931 . S
U246 O247 2.454 . S
U246 O248 2.458 . S
U246 C249 2.984 . S
U246 C250 2.847 . S
U246 C263 2.882 . S
U246 O264 2.441 . S
U246 O265 2.420 . S
U246 O266 2.455 . S
U246 O267 2.449 . S
O247 U246 2.454 . S
O247 C249 1.353 . S
O248 U246 2.458 . S
O248 C249 1.286 . S
C249 U246 2.984 . S
C249 O247 1.353 . S
C249 O248 1.286 . S
C249 C251 1.363 . S
C250 C240 1.465 . S
C250 U246 2.847 . S
C250 O264 1.249 . S
C250 O265 1.202 . S
C251 C249 1.363 . S
C251 C253 1.408 . S
C251 C256 1.342 . S
C252 C253 1.310 . S
C252 C255 1.461 . S
C252 H272 0.932 . S
C253 C251 1.408 . S
C253 C252 1.310 . S
C253 H273 0.930 . S
C254 C255 1.474 . S
C254 C256 1.285 . S
C254 H274 0.929 . S
C255 C252 1.461 . S
C255 C254 1.474 . S
C256 C251 1.342 . S
C256 C254 1.285 . S
C256 H275 0.930 . S
C257 C260 1.424 . S
C257 C262 1.245 . S
C257 C263 1.428 . S
C258 C261 1.260 . S
C258 C262 1.477 . S
C258 H276 0.932 . S
C259 C260 1.384 . S
C259 C261 1.479 . S
C259 H277 0.929 . S
C260 C257 1.424 . S
C260 C259 1.384 . S
C260 H278 0.928 . S
C261 C258 1.260 . S
C261 C259 1.479 . S
C262 C257 1.245 . S
C262 C258 1.477 . S
C262 H279 0.932 . S
C263 U246 2.882 . S
C263 C257 1.428 . S
C263 O266 1.301 . S
C263 O267 1.282 . S
O264 U246 2.441 . S
O264 C250 1.249 . S
O265 U246 2.420 . S
O265 C250 1.202 . S
O266 U246 2.455 . S
O266 C263 1.301 . S
O267 U246 2.449 . S
O267 C263 1.282 . S
H268 C241 0.931 . S
H269 C243 0.929 . S
H270 C244 0.930 . S
H271 C245 0.931 . S
H272 C252 0.932 . S
H273 C253 0.930 . S
H274 C254 0.929 . S
H275 C256 0.930 . S
H276 C258 0.932 . S
H277 C259 0.929 . S
H278 C260 0.928 . S
H279 C262 0.932 . S
C280 C281 1.264 . S
C280 C285 1.479 . S
C280 C290 1.465 . S
C281 C280 1.264 . S
C281 C283 1.339 1_455 S
C281 H308 0.931 . S
C282 C283 1.395 . S
C282 C284 1.320 1_655 S
C283 C281 1.339 1_655 S
C283 C282 1.395 . S
C283 H309 0.929 . S
C284 C282 1.320 1_455 S
C284 C285 1.405 . S
C284 H310 0.930 1_455 S
C285 C280 1.479 . S
C285 C284 1.405 . S
C285 H311 0.931 . S
U286 O287 2.454 . S
U286 O288 2.458 . S
U286 C289 2.984 . S
U286 C290 2.847 . S
U286 C303 2.882 . S
U286 O304 2.441 . S
U286 O305 2.420 . S
U286 O306 2.455 . S
U286 O307 2.449 . S
O287 U286 2.454 . S
O287 C289 1.353 . S
O288 U286 2.458 . S
O288 C289 1.286 . S
C289 U286 2.984 . S
C289 O287 1.353 . S
C289 O288 1.286 . S
C289 C291 1.363 . S
C290 C280 1.465 . S
C290 U286 2.847 . S
C290 O304 1.249 . S
C290 O305 1.202 . S
C291 C289 1.363 . S
C291 C293 1.408 . S
C291 C296 1.342 . S
C292 C293 1.310 . S
C292 C295 1.461 . S
C292 H312 0.932 . S
C293 C291 1.408 . S
C293 C292 1.310 . S
C293 H313 0.930 . S
C294 C295 1.474 . S
C294 C296 1.285 . S
C294 H314 0.929 . S
C295 C292 1.461 . S
C295 C294 1.474 . S
C296 C291 1.342 . S
C296 C294 1.285 . S
C296 H315 0.930 . S
C297 C300 1.424 . S
C297 C302 1.245 . S
C297 C303 1.428 . S
C298 C301 1.260 . S
C298 C302 1.477 . S
C298 H316 0.932 . S
C299 C300 1.384 . S
C299 C301 1.479 . S
C299 H317 0.929 . S
C300 C297 1.424 . S
C300 C299 1.384 . S
C300 H318 0.928 . S
C301 C298 1.260 . S
C301 C299 1.479 . S
C302 C297 1.245 . S
C302 C298 1.477 . S
C302 H319 0.932 . S
C303 U286 2.882 . S
C303 C297 1.428 . S
C303 O306 1.301 . S
C303 O307 1.282 . S
O304 U286 2.441 . S
O304 C290 1.249 . S
O305 U286 2.420 . S
O305 C290 1.202 . S
O306 U286 2.455 . S
O306 C303 1.301 . S
O307 U286 2.449 . S
O307 C303 1.282 . S
H308 C281 0.931 . S
H309 C283 0.929 . S
H310 C284 0.930 1_655 S
H311 C285 0.931 . S
H312 C292 0.932 . S
H313 C293 0.930 . S
H314 C294 0.929 . S
H315 C296 0.930 . S
H316 C298 0.932 . S
H317 C299 0.929 . S
H318 C300 0.928 . S
H319 C302 0.932 . S
Zn320 O326 1.920 . S
Zn320 O332 1.898 . S
Zn320 O335 1.905 . S
Zn321 O329 1.905 . S
Zn321 O330 1.898 . S
Zn321 O338 1.920 . S
Zn322 O325 2.080 . S
Zn322 O328 2.114 . S
Zn322 O331 2.120 . S
Zn322 O333 2.120 . S
Zn322 O334 2.114 . S
Zn322 O337 2.080 . S
C323 O328 1.166 . S
C323 O329 1.182 . S
C324 O330 1.167 . S
C324 O331 1.299 . S
O325 Zn322 2.080 . S
O325 C339 1.305 . S
O326 Zn320 1.920 . S
O326 C339 1.234 . S
C327 O332 1.167 . S
C327 O333 1.299 . S
O328 Zn322 2.114 . S
O328 C323 1.166 . S
O329 Zn321 1.905 . S
O329 C323 1.182 . S
O330 Zn321 1.898 . S
O330 C324 1.167 . S
O331 Zn322 2.120 . S
O331 C324 1.299 . S
O332 Zn320 1.898 . S
O332 C327 1.167 . S
O333 Zn322 2.120 . S
O333 C327 1.299 . S
O334 Zn322 2.114 . S
O334 C336 1.166 . S
O335 Zn320 1.905 . S
O335 C336 1.182 . S
C336 O334 1.166 . S
C336 O335 1.182 . S
O337 Zn322 2.080 . S
O337 C340 1.305 . S
O338 Zn321 1.920 . S
O338 C340 1.234 . S
C339 O325 1.305 . S
C339 O326 1.234 . S
C340 O337 1.305 . S
C340 O338 1.234 . S
Zn341 O347 1.920 . S
Zn341 O353 1.898 . S
Zn341 O356 1.905 . S
Zn342 O350 1.905 . S
Zn342 O351 1.898 . S
Zn342 O359 1.920 . S
Zn343 O346 2.080 . S
Zn343 O349 2.114 . S
Zn343 O352 2.120 . S
Zn343 O354 2.120 . S
Zn343 O355 2.114 . S
Zn343 O358 2.080 . S
C344 O349 1.166 . S
C344 O350 1.182 . S
C345 O351 1.167 . S
C345 O352 1.299 . S
O346 Zn343 2.080 . S
O346 C360 1.305 . S
O347 Zn341 1.920 . S
O347 C360 1.234 . S
C348 O353 1.167 . S
C348 O354 1.299 . S
O349 Zn343 2.114 . S
O349 C344 1.166 . S
O350 Zn342 1.905 . S
O350 C344 1.182 . S
O351 Zn342 1.898 . S
O351 C345 1.167 . S
O352 Zn343 2.120 . S
O352 C345 1.299 . S
O353 Zn341 1.898 . S
O353 C348 1.167 . S
O354 Zn343 2.120 . S
O354 C348 1.299 . S
O355 Zn343 2.114 . S
O355 C357 1.166 . S
O356 Zn341 1.905 . S
O356 C357 1.182 . S
C357 O355 1.166 . S
C357 O356 1.182 . S
O358 Zn343 2.080 . S
O358 C361 1.305 . S
O359 Zn342 1.920 . S
O359 C361 1.234 . S
C360 O346 1.305 . S
C360 O347 1.234 . S
C361 O358 1.305 . S
C361 O359 1.234 . S
Zn362 O368 1.920 . S
Zn362 O374 1.898 . S
Zn362 O377 1.905 . S
Zn363 O371 1.905 . S
Zn363 O372 1.898 . S
Zn363 O380 1.920 . S
Zn364 O367 2.080 . S
Zn364 O370 2.114 . S
Zn364 O373 2.120 . S
Zn364 O375 2.120 . S
Zn364 O376 2.114 . S
Zn364 O379 2.080 . S
C365 O370 1.166 . S
C365 O371 1.182 . S
C366 O372 1.167 . S
C366 O373 1.299 . S
O367 Zn364 2.080 . S
O367 C381 1.305 . S
O368 Zn362 1.920 . S
O368 C381 1.234 . S
C369 O374 1.167 . S
C369 O375 1.299 . S
O370 Zn364 2.114 . S
O370 C365 1.166 . S
O371 Zn363 1.905 . S
O371 C365 1.182 . S
O372 Zn363 1.898 . S
O372 C366 1.167 . S
O373 Zn364 2.120 . S
O373 C366 1.299 . S
O374 Zn362 1.898 . S
O374 C369 1.167 . S
O375 Zn364 2.120 . S
O375 C369 1.299 . S
O376 Zn364 2.114 . S
O376 C378 1.166 . S
O377 Zn362 1.905 . S
O377 C378 1.182 . S
C378 O376 1.166 . S
C378 O377 1.182 . S
O379 Zn364 2.080 . S
O379 C382 1.305 . S
O380 Zn363 1.920 . S
O380 C382 1.234 . S
C381 O367 1.305 . S
C381 O368 1.234 . S
C382 O379 1.305 . S
C382 O380 1.234 . S
Zn383 O389 1.920 . S
Zn383 O395 1.898 . S
Zn383 O398 1.905 . S
Zn384 O392 1.905 . S
Zn384 O393 1.898 . S
Zn384 O401 1.920 . S
Zn385 O388 2.080 . S
Zn385 O391 2.114 . S
Zn385 O394 2.120 . S
Zn385 O396 2.120 . S
Zn385 O397 2.114 . S
Zn385 O400 2.080 . S
C386 O391 1.166 . S
C386 O392 1.182 . S
C387 O393 1.167 . S
C387 O394 1.299 . S
O388 Zn385 2.080 . S
O388 C402 1.305 . S
O389 Zn383 1.920 . S
O389 C402 1.234 . S
C390 O395 1.167 . S
C390 O396 1.299 . S
O391 Zn385 2.114 . S
O391 C386 1.166 . S
O392 Zn384 1.905 . S
O392 C386 1.182 . S
O393 Zn384 1.898 . S
O393 C387 1.167 . S
O394 Zn385 2.120 . S
O394 C387 1.299 . S
O395 Zn383 1.898 . S
O395 C390 1.167 . S
O396 Zn385 2.120 . S
O396 C390 1.299 . S
O397 Zn385 2.114 . S
O397 C399 1.166 . S
O398 Zn383 1.905 . S
O398 C399 1.182 . S
C399 O397 1.166 . S
C399 O398 1.182 . S
O400 Zn385 2.080 . S
O400 C403 1.305 . S
O401 Zn384 1.920 . S
O401 C403 1.234 . S
C402 O388 1.305 . S
C402 O389 1.234 . S
C403 O400 1.305 . S
C403 O401 1.234 . S
H404 C410 0.930 . S
H405 C414 0.930 . S
H406 C419 0.929 . S
H407 C417 0.929 . S
H408 C412 0.929 . S
H409 C418 0.929 . S
C410 H404 0.930 . S
C410 C411 1.367 . S
C410 C418 1.378 . S
C411 C410 1.367 . S
C411 C419 1.433 . S
C412 H408 0.929 . S
C412 C414 1.378 . S
C412 C416 1.350 . S
C413 C416 1.463 . S
C413 C418 1.350 . S
C413 N421 1.427 . S
C414 H405 0.930 . S
C414 C412 1.378 . S
C414 C415 1.367 . S
C415 C414 1.367 . S
C415 C417 1.433 . S
C416 C412 1.350 . S
C416 C413 1.463 . S
C416 N420 1.427 . S
C417 H407 0.929 . S
C417 C415 1.433 . S
C417 N420 1.384 . S
C418 H409 0.929 . S
C418 C410 1.378 . S
C418 C413 1.350 . S
C419 H406 0.929 . S
C419 C411 1.433 . S
C419 N421 1.384 . S
N420 C416 1.427 . S
N420 C417 1.384 . S
N421 C413 1.427 . S
N421 C419 1.384 . S
H422 C428 0.930 . S
H423 C432 0.930 . S
H424 C437 0.929 . S
H425 C435 0.929 . S
H426 C430 0.929 . S
H427 C436 0.929 . S
C428 H422 0.930 . S
C428 C429 1.367 . S
C428 C436 1.378 . S
C429 C428 1.367 . S
C429 C437 1.433 . S
C430 H426 0.929 . S
C430 C432 1.378 . S
C430 C434 1.350 . S
C431 C434 1.463 . S
C431 C436 1.350 . S
C431 N439 1.427 . S
C432 H423 0.930 . S
C432 C430 1.378 . S
C432 C433 1.367 . S
C433 C432 1.367 . S
C433 C435 1.433 . S
C434 C430 1.350 . S
C434 C431 1.463 . S
C434 N438 1.427 . S
C435 H425 0.929 . S
C435 C433 1.433 . S
C435 N438 1.384 . S
C436 H427 0.929 . S
C436 C428 1.378 . S
C436 C431 1.350 . S
C437 H424 0.929 . S
C437 C429 1.433 . S
C437 N439 1.384 . S
N438 C434 1.427 . S
N438 C435 1.384 . S
N439 C431 1.427 . S
N439 C437 1.384 . S
H440 C446 0.930 . S
H441 C450 0.930 . S
H442 C455 0.929 . S
H443 C453 0.929 . S
H444 C448 0.929 . S
H445 C454 0.929 . S
C446 H440 0.930 . S
C446 C447 1.367 . S
C446 C454 1.378 . S
C447 C446 1.367 . S
C447 C455 1.433 . S
C448 H444 0.929 . S
C448 C450 1.378 . S
C448 C452 1.350 . S
C449 C452 1.463 . S
C449 C454 1.350 . S
C449 N457 1.427 . S
C450 H441 0.930 . S
C450 C448 1.378 . S
C450 C451 1.367 . S
C451 C450 1.367 . S
C451 C453 1.433 . S
C452 C448 1.350 . S
C452 C449 1.463 . S
C452 N456 1.427 . S
C453 H443 0.929 . S
C453 C451 1.433 . S
C453 N456 1.384 . S
C454 H445 0.929 . S
C454 C446 1.378 . S
C454 C449 1.350 . S
C455 H442 0.929 . S
C455 C447 1.433 . S
C455 N457 1.384 . S
N456 C452 1.427 . S
N456 C453 1.384 . S
N457 C449 1.427 . S
N457 C455 1.384 . S
H458 C464 0.930 . S
H459 C468 0.930 1_455 S
H460 C473 0.929 . S
H461 C471 0.921 1_455 S
H462 C466 0.929 . S
H463 C472 0.929 . S
C464 H458 0.930 . S
C464 C465 1.367 . S
C464 C472 1.378 . S
C465 C464 1.367 . S
C465 C473 1.433 . S
C466 H462 0.929 . S
C466 C468 1.378 . S
C466 C470 1.350 . S
C467 C470 1.463 . S
C467 C472 1.350 . S
C467 N475 1.427 . S
C468 H459 0.930 1_655 S
C468 C466 1.378 . S
C468 C469 1.367 1_655 S
C469 C468 1.367 1_455 S
C469 C471 1.433 1_455 S
C470 C466 1.350 . S
C470 C467 1.463 . S
C470 N474 1.427 . S
C471 H461 0.921 1_655 S
C471 C469 1.433 1_655 S
C471 N474 1.384 . S
C472 H463 0.929 . S
C472 C464 1.378 . S
C472 C467 1.350 . S
C473 H460 0.929 . S
C473 C465 1.433 . S
C473 N475 1.384 . S
N474 C470 1.427 . S
N474 C471 1.384 . S
N475 C467 1.427 . S
N475 C473 1.384 . S
H476 C482 0.930 . S
H477 C486 0.930 . S
H478 C491 0.929 . S
H479 C489 0.929 . S
H480 C484 0.929 . S
H481 C490 0.929 . S
C482 H476 0.930 . S
C482 C483 1.367 . S
C482 C490 1.378 . S
C483 C482 1.367 . S
C483 C491 1.433 . S
C484 H480 0.929 . S
C484 C486 1.378 . S
C484 C488 1.350 . S
C485 C488 1.463 . S
C485 C490 1.350 . S
C485 N493 1.427 . S
C486 H477 0.930 . S
C486 C484 1.378 . S
C486 C487 1.367 . S
C487 C486 1.367 . S
C487 C489 1.433 . S
C488 C484 1.350 . S
C488 C485 1.463 . S
C488 N492 1.427 . S
C489 H479 0.929 . S
C489 C487 1.433 . S
C489 N492 1.384 . S
C490 H481 0.929 . S
C490 C482 1.378 . S
C490 C485 1.350 . S
C491 H478 0.929 . S
C491 C483 1.433 . S
C491 N493 1.384 . S
N492 C488 1.427 . S
N492 C489 1.384 . S
N493 C485 1.427 . S
N493 C491 1.384 . S
H494 C500 0.930 . S
H495 C504 0.930 . S
H496 C509 0.929 . S
H497 C507 0.929 1_455 S
H498 C502 0.929 . S
H499 C508 0.929 . S
C500 H494 0.930 . S
C500 C501 1.367 . S
C500 C508 1.378 . S
C501 C500 1.367 . S
C501 C509 1.433 . S
C502 H498 0.929 . S
C502 C504 1.378 1_655 S
C502 C506 1.350 . S
C503 C506 1.463 . S
C503 C508 1.350 . S
C503 N511 1.427 . S
C504 H495 0.930 . S
C504 C502 1.378 1_455 S
C504 C505 1.367 . S
C505 C504 1.367 . S
C505 C507 1.433 1_455 S
C506 C502 1.350 . S
C506 C503 1.463 . S
C506 N510 1.427 . S
C507 H497 0.929 1_655 S
C507 C505 1.433 1_655 S
C507 N510 1.384 . S
C508 H499 0.929 . S
C508 C500 1.378 . S
C508 C503 1.350 . S
C509 H496 0.929 . S
C509 C501 1.433 . S
C509 N511 1.384 . S
N510 C506 1.427 . S
N510 C507 1.384 . S
N511 C503 1.427 . S
N511 C509 1.384 . S
H512 C518 0.930 . S
H513 C522 0.930 . S
H514 C527 0.929 . S
H515 C525 0.929 . S
H516 C520 0.929 . S
H517 C526 0.929 . S
C518 H512 0.930 . S
C518 C519 1.367 . S
C518 C526 1.378 . S
C519 C518 1.367 . S
C519 C527 1.433 . S
C520 H516 0.929 . S
C520 C522 1.378 . S
C520 C524 1.350 . S
C521 C524 1.463 . S
C521 C526 1.350 . S
C521 N529 1.427 . S
C522 H513 0.930 . S
C522 C520 1.378 . S
C522 C523 1.367 . S
C523 C522 1.367 . S
C523 C525 1.433 . S
C524 C520 1.350 . S
C524 C521 1.463 . S
C524 N528 1.427 . S
C525 H515 0.929 . S
C525 C523 1.433 . S
C525 N528 1.384 . S
C526 H517 0.929 . S
C526 C518 1.378 . S
C526 C521 1.350 . S
C527 H514 0.929 . S
C527 C519 1.433 . S
C527 N529 1.384 . S
N528 C524 1.427 . S
N528 C525 1.384 . S
N529 C521 1.427 . S
N529 C527 1.384 . S
H530 C536 0.930 . S
H531 C540 0.930 . S
H532 C545 0.929 . S
H533 C543 0.929 . S
H534 C538 0.929 . S
H535 C544 0.929 . S
C536 H530 0.930 . S
C536 C537 1.367 . S
C536 C544 1.378 . S
C537 C536 1.367 . S
C537 C545 1.433 . S
C538 H534 0.929 . S
C538 C540 1.378 . S
C538 C542 1.350 . S
C539 C542 1.463 . S
C539 C544 1.350 . S
C539 N547 1.427 . S
C540 H531 0.930 . S
C540 C538 1.378 . S
C540 C541 1.367 . S
C541 C540 1.367 . S
C541 C543 1.433 . S
C542 C538 1.350 . S
C542 C539 1.463 . S
C542 N546 1.427 . S
C543 H533 0.929 . S
C543 C541 1.433 . S
C543 N546 1.384 . S
C544 H535 0.929 . S
C544 C536 1.378 . S
C544 C539 1.350 . S
C545 H532 0.929 . S
C545 C537 1.433 . S
C545 N547 1.384 . S
N546 C542 1.427 . S
N546 C543 1.384 . S
N547 C539 1.427 . S
N547 C545 1.384 . S
H548 C554 0.930 . S
H549 C558 0.930 . S
H550 C563 0.929 . S
H551 C561 0.929 . S
H552 C556 0.929 . S
H553 C562 0.929 . S
C554 H548 0.930 . S
C554 C555 1.367 . S
C554 C562 1.378 . S
C555 C554 1.367 . S
C555 C563 1.433 . S
C556 H552 0.929 . S
C556 C558 1.378 . S
C556 C560 1.350 . S
C557 C560 1.463 . S
C557 C562 1.350 . S
C557 N565 1.427 . S
C558 H549 0.930 . S
C558 C556 1.378 . S
C558 C559 1.367 . S
C559 C558 1.367 . S
C559 C561 1.433 . S
C560 C556 1.350 . S
C560 C557 1.463 . S
C560 N564 1.427 . S
C561 H551 0.929 . S
C561 C559 1.433 . S
C561 N564 1.384 . S
C562 H553 0.929 . S
C562 C554 1.378 . S
C562 C557 1.350 . S
C563 H550 0.929 . S
C563 C555 1.433 . S
C563 N565 1.384 . S
N564 C560 1.427 . S
N564 C561 1.384 . S
N565 C557 1.427 . S
N565 C563 1.384 . S
H566 C572 0.930 . S
H567 C576 0.930 . S
H568 C581 0.929 . S
H569 C579 0.929 . S
H570 C574 0.929 . S
H571 C580 0.929 . S
C572 H566 0.930 . S
C572 C573 1.367 . S
C572 C580 1.378 . S
C573 C572 1.367 . S
C573 C581 1.433 . S
C574 H570 0.929 . S
C574 C576 1.378 . S
C574 C578 1.350 . S
C575 C578 1.463 . S
C575 C580 1.350 . S
C575 N583 1.427 . S
C576 H567 0.930 . S
C576 C574 1.378 . S
C576 C577 1.367 . S
C577 C576 1.367 . S
C577 C579 1.433 . S
C578 C574 1.350 . S
C578 C575 1.463 . S
C578 N582 1.427 . S
C579 H569 0.929 . S
C579 C577 1.433 . S
C579 N582 1.384 . S
C580 H571 0.929 . S
C580 C572 1.378 . S
C580 C575 1.350 . S
C581 H568 0.929 . S
C581 C573 1.433 . S
C581 N583 1.384 . S
N582 C578 1.427 . S
N582 C579 1.384 . S
N583 C575 1.427 . S
N583 C581 1.384 . S
H584 C590 0.930 . S
H585 C594 0.930 . S
H586 C599 0.929 . S
H587 C597 0.929 . S
H588 C592 0.929 . S
H589 C598 0.929 . S
C590 H584 0.930 . S
C590 C591 1.367 . S
C590 C598 1.378 . S
C591 C590 1.367 . S
C591 C599 1.433 . S
C592 H588 0.929 . S
C592 C594 1.378 . S
C592 C596 1.350 . S
C593 C596 1.463 . S
C593 C598 1.350 . S
C593 N601 1.427 . S
C594 H585 0.930 . S
C594 C592 1.378 . S
C594 C595 1.367 . S
C595 C594 1.367 . S
C595 C597 1.433 . S
C596 C592 1.350 . S
C596 C593 1.463 . S
C596 N600 1.427 . S
C597 H587 0.929 . S
C597 C595 1.433 . S
C597 N600 1.384 . S
C598 H589 0.929 . S
C598 C590 1.378 . S
C598 C593 1.350 . S
C599 H586 0.929 . S
C599 C591 1.433 . S
C599 N601 1.384 . S
N600 C596 1.427 . S
N600 C597 1.384 . S
N601 C593 1.427 . S
N601 C599 1.384 . S
H602 C608 0.930 . S
H603 C612 0.930 . S
H604 C617 0.929 . S
H605 C615 0.929 . S
H606 C610 0.929 . S
H607 C616 0.929 . S
C608 H602 0.930 . S
C608 C609 1.367 . S
C608 C616 1.378 . S
C609 C608 1.367 . S
C609 C617 1.433 . S
C610 H606 0.929 . S
C610 C612 1.378 . S
C610 C614 1.350 . S
C611 C614 1.463 . S
C611 C616 1.350 . S
C611 N619 1.427 . S
C612 H603 0.930 . S
C612 C610 1.378 . S
C612 C613 1.367 . S
C613 C612 1.367 . S
C613 C615 1.433 . S
C614 C610 1.350 . S
C614 C611 1.463 . S
C614 N618 1.427 . S
C615 H605 0.929 . S
C615 C613 1.433 . S
C615 N618 1.384 . S
C616 H607 0.929 . S
C616 C608 1.378 . S
C616 C611 1.350 . S
C617 H604 0.929 . S
C617 C609 1.433 . S
C617 N619 1.384 . S
N618 C614 1.427 . S
N618 C615 1.384 . S
N619 C611 1.427 . S
N619 C617 1.384 . S
H620 C626 0.930 . S
H621 C630 0.930 . S
H622 C635 0.929 . S
H623 C633 0.929 . S
H624 C628 0.929 . S
H625 C634 0.929 1_545 S
C626 H620 0.930 . S
C626 C627 1.367 . S
C626 C634 1.378 . S
C627 C626 1.367 . S
C627 C635 1.433 . S
C628 H624 0.929 . S
C628 C630 1.378 . S
C628 C632 1.350 . S
C629 C632 1.463 . S
C629 C634 1.350 1_545 S
C629 N637 1.427 1_545 S
C630 H621 0.930 . S
C630 C628 1.378 . S
C630 C631 1.367 . S
C631 C630 1.367 . S
C631 C633 1.433 . S
C632 C628 1.350 . S
C632 C629 1.463 . S
C632 N636 1.427 . S
C633 H623 0.929 . S
C633 C631 1.433 . S
C633 N636 1.384 . S
C634 H625 0.929 1_565 S
C634 C626 1.378 . S
C634 C629 1.350 1_565 S
C635 H622 0.929 . S
C635 C627 1.433 . S
C635 N637 1.384 . S
N636 C632 1.427 . S
N636 C633 1.384 . S
N637 C629 1.427 1_565 S
N637 C635 1.384 . S
H638 C644 0.930 . S
H639 C648 0.930 . S
H640 C653 0.929 . S
H641 C651 0.929 . S
H642 C646 0.929 . S
H643 C652 0.929 . S
C644 H638 0.930 . S
C644 C645 1.367 . S
C644 C652 1.378 1_545 S
C645 C644 1.367 . S
C645 C653 1.433 . S
C646 H642 0.929 . S
C646 C648 1.378 . S
C646 C650 1.350 . S
C647 C650 1.463 . S
C647 C652 1.350 . S
C647 N655 1.427 . S
C648 H639 0.930 . S
C648 C646 1.378 . S
C648 C649 1.367 . S
C649 C648 1.367 . S
C649 C651 1.433 . S
C650 C646 1.350 . S
C650 C647 1.463 . S
C650 N654 1.427 . S
C651 H641 0.929 . S
C651 C649 1.433 . S
C651 N654 1.384 . S
C652 H643 0.929 . S
C652 C644 1.378 1_565 S
C652 C647 1.350 . S
C653 H640 0.929 . S
C653 C645 1.433 . S
C653 N655 1.384 1_545 S
N654 C650 1.427 . S
N654 C651 1.384 . S
N655 C647 1.427 . S
N655 C653 1.384 1_565 S
H656 C662 0.930 . S
H657 C666 0.930 . S
H658 C671 0.929 . S
H659 C669 0.929 . S
H660 C664 0.929 . S
H661 C670 0.929 . S
C662 H656 0.930 . S
C662 C663 1.367 . S
C662 C670 1.378 1_545 S
C663 C662 1.367 . S
C663 C671 1.433 . S
C664 H660 0.929 . S
C664 C666 1.378 . S
C664 C668 1.350 . S
C665 C668 1.463 . S
C665 C670 1.350 . S
C665 N673 1.427 . S
C666 H657 0.930 . S
C666 C664 1.378 . S
C666 C667 1.367 . S
C667 C666 1.367 . S
C667 C669 1.433 . S
C668 C664 1.350 . S
C668 C665 1.463 . S
C668 N672 1.427 . S
C669 H659 0.929 . S
C669 C667 1.433 . S
C669 N672 1.384 . S
C670 H661 0.929 . S
C670 C662 1.378 1_565 S
C670 C665 1.350 . S
C671 H658 0.929 . S
C671 C663 1.433 . S
C671 N673 1.384 1_545 S
N672 C668 1.427 . S
N672 C669 1.384 . S
N673 C665 1.427 . S
N673 C671 1.384 1_565 S
H674 C680 0.930 . S
H675 C684 0.930 . S
H676 C689 0.929 . S
H677 C687 0.929 . S
H678 C682 0.929 . S
H679 C688 0.916 1_545 S
C680 H674 0.930 . S
C680 C681 1.367 . S
C680 C688 1.403 . S
C681 C680 1.367 . S
C681 C689 1.433 . S
C682 H678 0.929 . S
C682 C684 1.378 . S
C682 C686 1.350 . S
C683 C686 1.463 . S
C683 C688 1.339 1_545 S
C683 N691 1.427 1_545 S
C684 H675 0.930 . S
C684 C682 1.378 . S
C684 C685 1.367 . S
C685 C684 1.367 . S
C685 C687 1.433 . S
C686 C682 1.350 . S
C686 C683 1.463 . S
C686 N690 1.427 . S
C687 H677 0.929 . S
C687 C685 1.433 . S
C687 N690 1.384 . S
C688 H679 0.916 1_565 S
C688 C680 1.403 . S
C688 C683 1.339 1_565 S
C689 H676 0.929 . S
C689 C681 1.433 . S
C689 N691 1.384 . S
N690 C686 1.427 . S
N690 C687 1.384 . S
N691 C683 1.427 1_565 S
N691 C689 1.384 . S
H692 C698 0.930 . S
H693 C702 0.930 . S
H694 C707 0.929 . S
H695 C705 0.929 . S
H696 C700 0.929 . S
H697 C706 0.929 . S
C698 H692 0.930 . S
C698 C699 1.367 . S
C698 C706 1.378 . S
C699 C698 1.367 . S
C699 C707 1.433 . S
C700 H696 0.929 . S
C700 C702 1.378 . S
C700 C704 1.350 . S
C701 C704 1.463 . S
C701 C706 1.350 . S
C701 N709 1.427 . S
C702 H693 0.930 . S
C702 C700 1.378 . S
C702 C703 1.367 . S
C703 C702 1.367 . S
C703 C705 1.433 . S
C704 C700 1.350 . S
C704 C701 1.463 . S
C704 N708 1.427 . S
C705 H695 0.929 . S
C705 C703 1.433 . S
C705 N708 1.384 . S
C706 H697 0.929 . S
C706 C698 1.378 . S
C706 C701 1.350 . S
C707 H694 0.929 . S
C707 C699 1.433 . S
C707 N709 1.384 . S
N708 C704 1.427 . S
N708 C705 1.384 . S
N709 C701 1.427 . S
N709 C707 1.384 . S
H710 C716 0.930 . S
H711 C720 0.930 . S
H712 C725 0.929 . S
H713 C723 0.929 . S
H714 C718 0.929 . S
H715 C724 0.929 . S
C716 H710 0.930 . S
C716 C717 1.367 . S
C716 C724 1.378 . S
C717 C716 1.367 . S
C717 C725 1.433 . S
C718 H714 0.929 . S
C718 C720 1.378 . S
C718 C722 1.350 . S
C719 C722 1.463 . S
C719 C724 1.350 . S
C719 N727 1.427 . S
C720 H711 0.930 . S
C720 C718 1.378 . S
C720 C721 1.367 . S
C721 C720 1.367 . S
C721 C723 1.433 . S
C722 C718 1.350 . S
C722 C719 1.463 . S
C722 N726 1.427 . S
C723 H713 0.929 . S
C723 C721 1.433 . S
C723 N726 1.384 . S
C724 H715 0.929 . S
C724 C716 1.378 . S
C724 C719 1.350 . S
C725 H712 0.929 . S
C725 C717 1.433 . S
C725 N727 1.384 . S
N726 C722 1.427 . S
N726 C723 1.384 . S
N727 C719 1.427 . S
N727 C725 1.384 . S
H728 C734 0.930 . S
H729 C738 0.930 . S
H730 C743 0.929 . S
H731 C741 0.929 . S
H732 C736 0.929 . S
H733 C742 0.929 . S
C734 H728 0.930 . S
C734 C735 1.367 . S
C734 C742 1.378 . S
C735 C734 1.367 . S
C735 C743 1.433 . S
C736 H732 0.929 . S
C736 C738 1.378 . S
C736 C740 1.350 . S
C737 C740 1.463 . S
C737 C742 1.350 . S
C737 N745 1.427 . S
C738 H729 0.930 . S
C738 C736 1.378 . S
C738 C739 1.367 . S
C739 C738 1.367 . S
C739 C741 1.433 . S
C740 C736 1.350 . S
C740 C737 1.463 . S
C740 N744 1.427 . S
C741 H731 0.929 . S
C741 C739 1.433 . S
C741 N744 1.384 . S
C742 H733 0.929 . S
C742 C734 1.378 . S
C742 C737 1.350 . S
C743 H730 0.929 . S
C743 C735 1.433 . S
C743 N745 1.384 . S
N744 C740 1.427 . S
N744 C741 1.384 . S
N745 C737 1.427 . S
N745 C743 1.384 . S
H746 C752 0.930 . S
H747 C756 0.930 . S
H748 C761 0.929 . S
H749 C759 0.929 . S
H750 C754 0.929 . S
H751 C760 0.929 . S
C752 H746 0.930 . S
C752 C753 1.367 . S
C752 C760 1.378 . S
C753 C752 1.367 . S
C753 C761 1.433 . S
C754 H750 0.929 . S
C754 C756 1.378 . S
C754 C758 1.350 . S
C755 C758 1.463 . S
C755 C760 1.350 . S
C755 N763 1.427 . S
C756 H747 0.930 . S
C756 C754 1.378 . S
C756 C757 1.367 . S
C757 C756 1.367 . S
C757 C759 1.433 . S
C758 C754 1.350 . S
C758 C755 1.463 . S
C758 N762 1.427 . S
C759 H749 0.929 . S
C759 C757 1.433 . S
C759 N762 1.384 . S
C760 H751 0.929 . S
C760 C752 1.378 . S
C760 C755 1.350 . S
C761 H748 0.929 . S
C761 C753 1.433 . S
C761 N763 1.384 . S
N762 C758 1.427 . S
N762 C759 1.384 . S
N763 C755 1.427 . S
N763 C761 1.384 . S
H764 C770 0.930 . S
H765 C774 0.930 . S
H766 C779 0.929 . S
H767 C777 0.929 . S
H768 C772 0.929 . S
H769 C778 0.929 . S
C770 H764 0.930 . S
C770 C771 1.367 . S
C770 C778 1.378 . S
C771 C770 1.367 . S
C771 C779 1.433 . S
C772 H768 0.929 . S
C772 C774 1.378 . S
C772 C776 1.350 . S
C773 C776 1.463 . S
C773 C778 1.350 . S
C773 N781 1.427 . S
C774 H765 0.930 . S
C774 C772 1.378 . S
C774 C775 1.367 . S
C775 C774 1.367 . S
C775 C777 1.433 . S
C776 C772 1.350 . S
C776 C773 1.463 . S
C776 N780 1.427 . S
C777 H767 0.929 . S
C777 C775 1.433 . S
C777 N780 1.384 . S
C778 H769 0.929 . S
C778 C770 1.378 . S
C778 C773 1.350 . S
C779 H766 0.929 . S
C779 C771 1.433 . S
C779 N781 1.384 . S
N780 C776 1.427 . S
N780 C777 1.384 . S
N781 C773 1.427 . S
N781 C779 1.384 . S
H782 C788 0.930 . S
H783 C792 0.930 . S
H784 C797 0.929 . S
H785 C795 0.929 . S
H786 C790 0.929 . S
H787 C796 0.929 . S
C788 H782 0.930 . S
C788 C789 1.367 . S
C788 C796 1.378 . S
C789 C788 1.367 . S
C789 C797 1.433 . S
C790 H786 0.929 . S
C790 C792 1.378 . S
C790 C794 1.350 . S
C791 C794 1.463 . S
C791 C796 1.350 . S
C791 N799 1.427 . S
C792 H783 0.930 . S
C792 C790 1.378 . S
C792 C793 1.367 . S
C793 C792 1.367 . S
C793 C795 1.433 . S
C794 C790 1.350 . S
C794 C791 1.463 . S
C794 N798 1.427 . S
C795 H785 0.929 . S
C795 C793 1.433 . S
C795 N798 1.384 . S
C796 H787 0.929 . S
C796 C788 1.378 . S
C796 C791 1.350 . S
C797 H784 0.929 . S
C797 C789 1.433 . S
C797 N799 1.384 . S
N798 C794 1.427 . S
N798 C795 1.384 . S
N799 C791 1.427 . S
N799 C797 1.384 . S
H800 C806 0.930 . S
H801 C810 0.930 . S
H802 C815 0.929 . S
H803 C813 0.929 . S
H804 C808 0.929 . S
H805 C814 0.929 . S
C806 H800 0.930 . S
C806 C807 1.367 . S
C806 C814 1.378 . S
C807 C806 1.367 . S
C807 C815 1.433 . S
C808 H804 0.929 . S
C808 C810 1.378 . S
C808 C812 1.350 . S
C809 C812 1.463 . S
C809 C814 1.350 . S
C809 N817 1.427 . S
C810 H801 0.930 . S
C810 C808 1.378 . S
C810 C811 1.367 . S
C811 C810 1.367 . S
C811 C813 1.433 . S
C812 C808 1.350 . S
C812 C809 1.463 . S
C812 N816 1.427 . S
C813 H803 0.929 . S
C813 C811 1.433 . S
C813 N816 1.384 . S
C814 H805 0.929 . S
C814 C806 1.378 . S
C814 C809 1.350 . S
C815 H802 0.929 . S
C815 C807 1.433 . S
C815 N817 1.384 . S
N816 C812 1.427 . S
N816 C813 1.384 . S
N817 C809 1.427 . S
N817 C815 1.384 . S
H818 C824 0.930 . S
H819 C828 0.930 . S
H820 C833 0.929 . S
H821 C831 0.929 . S
H822 C826 0.929 . S
H823 C832 0.929 . S
C824 H818 0.930 . S
C824 C825 1.367 . S
C824 C832 1.378 . S
C825 C824 1.367 . S
C825 C833 1.433 . S
C826 H822 0.929 . S
C826 C828 1.378 . S
C826 C830 1.350 . S
C827 C830 1.463 . S
C827 C832 1.350 . S
C827 N835 1.427 . S
C828 H819 0.930 . S
C828 C826 1.378 . S
C828 C829 1.367 . S
C829 C828 1.367 . S
C829 C831 1.433 . S
C830 C826 1.350 . S
C830 C827 1.463 . S
C830 N834 1.427 . S
C831 H821 0.929 . S
C831 C829 1.433 . S
C831 N834 1.384 . S
C832 H823 0.929 . S
C832 C824 1.378 . S
C832 C827 1.350 . S
C833 H820 0.929 . S
C833 C825 1.433 . S
C833 N835 1.384 . S
N834 C830 1.427 . S
N834 C831 1.384 . S
N835 C827 1.427 . S
N835 C833 1.384 . S
C415 C327 1.543 . S
C411 C15 1.701 . S
C433 C345 1.329 . S
C429 C55 1.424 . S
C447 C82 1.405 . S
C451 C369 1.354 . S
C469 C399 1.362 . S
C465 C122 1.486 . S
C487 C387 1.387 . S
C483 C175 1.449 . S
C501 C215 1.430 . S
C505 C340 1.333 . S
C519 C242 1.709 . S
C523 C360 1.523 . S
C537 C282 1.484 . S
C541 C365 1.359 . S
C555 C295 1.417 . S
C559 C381 1.317 . S
C573 C202 1.488 . S
C577 C336 1.341 . S
C595 C403 1.317 . S
C591 C135 1.417 . S
C613 C348 1.367 . S
C609 C42 1.480 . S
C627 C95 1.709 . S
C631 C366 1.561 . S
C645 C2 1.415 . S
C649 C324 1.370 . S
C667 C344 1.368 . S
C663 C255 1.439 . S
C685 C390 1.531 . S
C681 C162 1.727 . S
C703 C386 1.353 . S
C699 C21 1.541 . S
C721 C339 1.353 . S
C717 C61 1.417 . S
C735 C101 1.471 . S
C739 C361 1.330 . S
C753 C141 1.444 . S
C757 C382 1.365 . S
C775 C323 1.327 . S
C771 C181 1.534 1_554 S
C789 C221 1.461 . S
C793 C357 1.403 . S
C811 C378 1.365 . S
C807 C261 1.547 . S
C829 C402 1.381 . S
C825 C301 1.447 . S
