# Generated by pormake.
# Topology dag, (6,3)-cn, num edge types: 1
# Building blocks:
#     Node 0, Type 0, BuildingBlock: OJICUG_clean_sbu_0, # of connection points: 6
#     Node 1, Type 0, BuildingBlock: OJICUG_clean_sbu_0, # of connection points: 6
#     Node 2, Type 0, BuildingBlock: OJICUG_clean_sbu_0, # of connection points: 6
#     Node 3, Type 0, BuildingBlock: OJICUG_clean_sbu_0, # of connection points: 6
#     Node 4, Type 1, BuildingBlock: WUSLED_clean_sbu_0, # of connection points: 3
#     Node 5, Type 1, BuildingBlock: WUSLED_clean_sbu_0, # of connection points: 3
#     Node 6, Type 1, BuildingBlock: WUSLED_clean_sbu_0, # of connection points: 3
#     Node 7, Type 1, BuildingBlock: WUSLED_clean_sbu_0, # of connection points: 3
#     Node 8, Type 1, BuildingBlock: WUSLED_clean_sbu_0, # of connection points: 3
#     Node 9, Type 1, BuildingBlock: WUSLED_clean_sbu_0, # of connection points: 3
#     Node 10, Type 1, BuildingBlock: WUSLED_clean_sbu_0, # of connection points: 3
#     Node 11, Type 1, BuildingBlock: WUSLED_clean_sbu_0, # of connection points: 3
#     Edge 12, Type (0, 1), BuildingBlock: XIVTED_clean_linker_0, # of connection points: 2
#     Edge 13, Type (0, 1), BuildingBlock: XIVTED_clean_linker_0, # of connection points: 2
#     Edge 14, Type (0, 1), BuildingBlock: XIVTED_clean_linker_0, # of connection points: 2
#     Edge 15, Type (0, 1), BuildingBlock: XIVTED_clean_linker_0, # of connection points: 2
#     Edge 16, Type (0, 1), BuildingBlock: XIVTED_clean_linker_0, # of connection points: 2
#     Edge 17, Type (0, 1), BuildingBlock: XIVTED_clean_linker_0, # of connection points: 2
#     Edge 18, Type (0, 1), BuildingBlock: XIVTED_clean_linker_0, # of connection points: 2
#     Edge 19, Type (0, 1), BuildingBlock: XIVTED_clean_linker_0, # of connection points: 2
#     Edge 20, Type (0, 1), BuildingBlock: XIVTED_clean_linker_0, # of connection points: 2
#     Edge 21, Type (0, 1), BuildingBlock: XIVTED_clean_linker_0, # of connection points: 2
#     Edge 22, Type (0, 1), BuildingBlock: XIVTED_clean_linker_0, # of connection points: 2
#     Edge 23, Type (0, 1), BuildingBlock: XIVTED_clean_linker_0, # of connection points: 2
#     Edge 24, Type (0, 1), BuildingBlock: XIVTED_clean_linker_0, # of connection points: 2
#     Edge 25, Type (0, 1), BuildingBlock: XIVTED_clean_linker_0, # of connection points: 2
#     Edge 26, Type (0, 1), BuildingBlock: XIVTED_clean_linker_0, # of connection points: 2
#     Edge 27, Type (0, 1), BuildingBlock: XIVTED_clean_linker_0, # of connection points: 2
#     Edge 28, Type (0, 1), BuildingBlock: XIVTED_clean_linker_0, # of connection points: 2
#     Edge 29, Type (0, 1), BuildingBlock: XIVTED_clean_linker_0, # of connection points: 2
#     Edge 30, Type (0, 1), BuildingBlock: XIVTED_clean_linker_0, # of connection points: 2
#     Edge 31, Type (0, 1), BuildingBlock: XIVTED_clean_linker_0, # of connection points: 2
#     Edge 32, Type (0, 1), BuildingBlock: XIVTED_clean_linker_0, # of connection points: 2
#     Edge 33, Type (0, 1), BuildingBlock: XIVTED_clean_linker_0, # of connection points: 2
#     Edge 34, Type (0, 1), BuildingBlock: XIVTED_clean_linker_0, # of connection points: 2
#     Edge 35, Type (0, 1), BuildingBlock: XIVTED_clean_linker_0, # of connection points: 2
# Relax obj value: 0.245
# Max RMSD: 0.197
# Mean RMSD: 0.163
data_MOF--net-dag--node1-OJICUG_clean_sbu_0--node2-WUSLED_clean_sbu_0--edge1-XIVTED_clean_linker_0
_symmetry_space_group_name_H-M    P1
_symmetry_Int_Tables_number       1
_symmetry_cell_setting            triclinic
loop_
_symmetry_equiv_pos_as_xyz
'x, y, z'
_cell_length_a     47.190643
_cell_length_b     49.453516
_cell_length_c     48.51014
_cell_angle_alpha  95.027188
_cell_angle_beta   90.293376
_cell_angle_gamma 90.180366
loop_
_atom_site_label
_atom_site_type_symbol
_atom_site_fract_x
_atom_site_fract_y
_atom_site_fract_z
_atom_type_partial_charge
Sc0 Sc 0.13291 0.85558 0.0362 0.0
Sc1 Sc 0.14544 0.78591 0.04112 0.0
Sc2 Sc 0.19317 0.83578 0.07159 0.0
O3 O 0.15719 0.82568 0.04965 0.0
C4 C 0.1945 0.87805 0.02525 0.0
C5 C 0.12877 0.81064 0.98487 0.0
C6 C 0.21249 0.78452 0.03135 0.0
C7 C 0.08665 0.81486 0.0571 0.0
C8 C 0.15145 0.88176 0.09618 0.0
C9 C 0.16922 0.78626 0.10288 0.0
O10 O 0.16839 0.87533 0.0192 0.0
O11 O 0.13503 0.79049 0.99825 0.0
O12 O 0.21761 0.80638 0.04645 0.0
O13 O 0.09513 0.83838 0.05211 0.0
O14 O 0.17222 0.86596 0.09908 0.0
O15 O 0.15421 0.77588 0.08281 0.0
O16 O 0.13632 0.88087 0.0744 0.0
O17 O 0.10199 0.79372 0.05348 0.0
O18 O 0.18426 0.80742 0.10148 0.0
O19 O 0.127 0.8347 0.99608 0.0
O20 O 0.2063 0.86609 0.04445 0.0
O21 O 0.18767 0.77457 0.02781 0.0
Sc22 Sc 0.69459 0.6587 0.47895 0.0
Sc23 Sc 0.64803 0.71065 0.50608 0.0
Sc24 Sc 0.63151 0.64161 0.51103 0.0
O25 O 0.65807 0.67039 0.49869 0.0
C26 C 0.65142 0.61422 0.45237 0.0
C27 C 0.67433 0.70827 0.44542 0.0
C28 C 0.58831 0.684 0.48811 0.0
C29 C 0.71464 0.71009 0.51891 0.0
C30 C 0.69128 0.61658 0.5254 0.0
C31 C 0.62811 0.68716 0.56188 0.0
O32 O 0.67356 0.6287 0.45084 0.0
O33 O 0.65883 0.71939 0.46454 0.0
O34 O 0.59534 0.66028 0.49364 0.0
O35 O 0.71926 0.68764 0.50481 0.0
O36 O 0.66489 0.61995 0.52929 0.0
O37 O 0.63583 0.70692 0.54856 0.0
O38 O 0.70499 0.62869 0.50754 0.0
O39 O 0.69025 0.72102 0.52089 0.0
O40 O 0.62552 0.66305 0.55086 0.0
O41 O 0.68845 0.68678 0.44801 0.0
O42 O 0.63488 0.61626 0.47298 0.0
O43 O 0.60465 0.70451 0.49209 0.0
Sc44 Sc 0.85709 0.21034 0.0097 0.0
Sc45 Sc 0.80824 0.15982 0.98353 0.0
Sc46 Sc 0.87297 0.14105 0.01224 0.0
O47 O 0.84607 0.17046 0.00183 0.0
C48 C 0.91667 0.18483 0.99205 0.0
C49 C 0.82812 0.2095 0.95003 0.0
C50 C 0.8511 0.11695 0.95298 0.0
C51 C 0.79115 0.2111 0.02465 0.0
C52 C 0.87714 0.18415 0.06477 0.0
C53 C 0.81301 0.11497 0.02631 0.0
O54 O 0.89937 0.20451 0.99357 0.0
O55 O 0.81408 0.18786 0.9525 0.0
O56 O 0.8702 0.1197 0.97164 0.0
O57 O 0.81607 0.22098 0.02643 0.0
O58 O 0.87761 0.15992 0.05358 0.0
O59 O 0.7981 0.13012 0.01218 0.0
O60 O 0.87135 0.20455 0.05142 0.0
O61 O 0.78505 0.1892 0.01006 0.0
O62 O 0.83986 0.11649 0.02732 0.0
O63 O 0.84418 0.22041 0.96904 0.0
O64 O 0.91014 0.1614 0.99886 0.0
O65 O 0.82749 0.12935 0.95499 0.0
Sc66 Sc 0.37263 0.35977 0.54708 0.0
Sc67 Sc 0.30616 0.33912 0.5701 0.0
Sc68 Sc 0.35674 0.2901 0.54508 0.0
O69 O 0.34512 0.32962 0.55405 0.0
C70 C 0.38069 0.31811 0.49322 0.0
C71 C 0.31395 0.3846 0.52799 0.0
C72 C 0.29127 0.28871 0.52703 0.0
C73 C 0.34583 0.38224 0.60483 0.0
C74 C 0.41473 0.31627 0.56905 0.0
C75 C 0.32524 0.2885 0.60293 0.0
O76 O 0.38285 0.3414 0.50648 0.0
O77 O 0.29829 0.37018 0.54221 0.0
O78 O 0.31607 0.27878 0.52722 0.0
O79 O 0.36547 0.38109 0.58695 0.0
O80 O 0.39915 0.29584 0.56179 0.0
O81 O 0.31003 0.30926 0.59978 0.0
O82 O 0.40753 0.34044 0.56569 0.0
O83 O 0.323 0.36859 0.60153 0.0
O84 O 0.34338 0.27933 0.58517 0.0
O85 O 0.3408 0.38282 0.52793 0.0
O86 O 0.37116 0.29741 0.5041 0.0
O87 O 0.28464 0.31082 0.54078 0.0
C88 C -0.00012 0.18399 0.29592 0.0
C89 C 0.98707 0.16187 0.28054 0.0
C90 C 0.96029 0.19254 0.25376 0.0
C91 C 0.96747 0.16608 0.25976 0.0
C92 C 0.97237 0.21471 0.26998 0.0
C93 C 0.99208 0.21044 0.29086 0.0
U94 U 0.05752 0.13697 0.31229 0.0
O95 O 0.10336 0.14301 0.31827 0.0
O96 O 0.07801 0.12587 0.35049 0.0
C97 C 0.10305 0.13446 0.34316 0.0
C98 C 0.02415 0.17922 0.31397 0.0
C99 C 0.1193 0.15093 0.36434 0.0
C100 C 0.12384 0.18842 0.39997 0.0
C101 C 0.10744 0.17328 0.37994 0.0
C102 C 0.16392 0.15907 0.3886 0.0
C103 C 0.15227 0.18138 0.40458 0.0
C104 C 0.14756 0.144 0.36877 0.0
C105 C 0.0612 0.07087 0.2658 0.0
C106 C 0.10404 0.04733 0.25006 0.0
C107 C 0.05847 0.02476 0.24414 0.0
C108 C 0.04519 0.04777 0.25691 0.0
C109 C 0.08789 0.02473 0.23981 0.0
C110 C 0.09084 0.07014 0.26319 0.0
C111 C 0.04667 0.09619 0.27551 0.0
O112 O 0.0209 0.15956 0.33033 0.0
O113 O 0.04853 0.17816 0.30098 0.0
O114 O 0.05949 0.11858 0.26963 0.0
O115 O 0.03648 0.09759 0.30076 0.0
H116 H 0.99324 0.14127 0.2837 0.0
H117 H 0.95915 0.1485 0.24742 0.0
H118 H 0.96714 0.23534 0.26606 0.0
H119 H 0.00203 0.22776 0.3023 0.0
H120 H 0.11419 0.20539 0.41202 0.0
H121 H 0.0856 0.17894 0.37667 0.0
H122 H 0.18588 0.15342 0.39112 0.0
H123 H 0.15708 0.12691 0.35673 0.0
H124 H 0.12677 0.04767 0.24709 0.0
H125 H 0.04557 0.00762 0.23621 0.0
H126 H 0.02233 0.04794 0.25882 0.0
H127 H 0.10368 0.08762 0.27022 0.0
C128 C 0.38953 0.566 0.80231 0.0
C129 C 0.40843 0.55923 0.78062 0.0
C130 C 0.38034 0.51916 0.76588 0.0
C131 C 0.40389 0.53608 0.76258 0.0
C132 C 0.36168 0.5258 0.78801 0.0
C133 C 0.36625 0.5491 0.80608 0.0
U134 U 0.43073 0.63051 0.81649 0.0
O135 O 0.41704 0.67277 0.82553 0.0
O136 O 0.44444 0.65378 0.855 0.0
C137 C 0.42852 0.67471 0.85036 0.0
C138 C 0.39345 0.59154 0.81972 0.0
C139 C 0.40904 0.68383 0.8727 0.0
C140 C 0.36993 0.67463 0.90285 0.0
C141 C 0.38994 0.6655 0.88309 0.0
C142 C 0.38814 0.72047 0.90226 0.0
C143 C 0.36853 0.70229 0.9124 0.0
C144 C 0.40821 0.71128 0.88255 0.0
C145 C 0.49232 0.63907 0.76564 0.0
C146 C 0.5125 0.6801 0.74948 0.0
C147 C 0.53542 0.63673 0.73859 0.0
C148 C 0.51467 0.62404 0.7533 0.0
C149 C 0.53425 0.66482 0.7359 0.0
C150 C 0.4917 0.66733 0.76428 0.0
C151 C 0.46879 0.62432 0.77729 0.0
O152 O 0.41699 0.59326 0.83441 0.0
O153 O 0.38843 0.61338 0.80693 0.0
O154 O 0.44328 0.63398 0.77351 0.0
O155 O 0.47277 0.61617 0.80209 0.0
H156 H 0.4264 0.57223 0.77728 0.0
H157 H 0.41839 0.53195 0.74551 0.0
H158 H 0.3435 0.51307 0.79128 0.0
H159 H 0.35143 0.55413 0.82271 0.0
H160 H 0.35542 0.66004 0.91049 0.0
H161 H 0.39022 0.64421 0.87557 0.0
H162 H 0.38741 0.74194 0.90887 0.0
H163 H 0.42267 0.72571 0.87452 0.0
H164 H 0.51116 0.70179 0.74805 0.0
H165 H 0.55151 0.62419 0.72807 0.0
H166 H 0.51542 0.60221 0.75403 0.0
H167 H 0.47464 0.67933 0.77382 0.0
C168 C 0.71846 0.91012 0.14202 0.0
C169 C 0.73349 0.9077 0.11702 0.0
C170 C 0.73026 0.95636 0.11392 0.0
C171 C 0.73923 0.93055 0.10308 0.0
C172 C 0.71355 0.95858 0.13793 0.0
C173 C 0.70783 0.93558 0.152 0.0
U174 U 0.75793 0.85051 0.16216 0.0
O175 O 0.77008 0.83662 0.20228 0.0
O176 O 0.74664 0.8092 0.17202 0.0
C177 C 0.75768 0.81286 0.19701 0.0
C178 C 0.7186 0.88733 0.15963 0.0
C179 C 0.74092 0.80305 0.21954 0.0
C180 C 0.70851 0.81034 0.25825 0.0
C181 C 0.72214 0.81991 0.23538 0.0
C182 C 0.73183 0.76692 0.24903 0.0
C183 C 0.71347 0.78379 0.26552 0.0
C184 C 0.74534 0.77646 0.2263 0.0
C185 C 0.82858 0.83956 0.12386 0.0
C186 C 0.8733 0.82333 0.14106 0.0
C187 C 0.86646 0.8262 0.09186 0.0
C188 C 0.8389 0.83565 0.09677 0.0
C189 C 0.88422 0.82077 0.11405 0.0
C190 C 0.84564 0.83251 0.14592 0.0
C191 C 0.80121 0.85331 0.12882 0.0
O192 O 0.71649 0.86295 0.14647 0.0
O193 O 0.73878 0.88911 0.17848 0.0
O194 O 0.79897 0.86811 0.15255 0.0
O195 O 0.77832 0.83901 0.12197 0.0
H196 H 0.74227 0.88838 0.10905 0.0
H197 H 0.7519 0.92822 0.08446 0.0
H198 H 0.70653 0.97828 0.14679 0.0
H199 H 0.69654 0.93792 0.17145 0.0
H200 H 0.69431 0.82376 0.27035 0.0
H201 H 0.71846 0.84055 0.23039 0.0
H202 H 0.73664 0.74658 0.25424 0.0
H203 H 0.75991 0.76324 0.21438 0.0
H204 H 0.88646 0.81902 0.1585 0.0
H205 H 0.87439 0.82464 0.07087 0.0
H206 H 0.82605 0.84099 0.07949 0.0
H207 H 0.83803 0.83509 0.16702 0.0
C208 C 0.78196 0.41349 0.64558 0.0
C209 C 0.76323 0.41209 0.62292 0.0
C210 C 0.77086 0.45993 0.61764 0.0
C211 C 0.75776 0.43506 0.6091 0.0
C212 C 0.79095 0.46101 0.63922 0.0
C213 C 0.79632 0.43791 0.65328 0.0
U214 U 0.744 0.35314 0.66623 0.0
O215 O 0.75624 0.31216 0.6763 0.0
O216 O 0.73278 0.33922 0.70649 0.0
C217 C 0.74536 0.31565 0.70125 0.0
C218 C 0.78263 0.3908 0.66326 0.0
C219 C 0.76216 0.30587 0.72389 0.0
C220 C 0.79378 0.31331 0.76358 0.0
C221 C 0.78039 0.32293 0.7405 0.0
C222 C 0.77131 0.26946 0.75305 0.0
C223 C 0.78909 0.28651 0.77031 0.0
C224 C 0.75808 0.27905 0.7301 0.0
C225 C 0.67306 0.33988 0.6286 0.0
C226 C 0.63064 0.31999 0.64672 0.0
C227 C 0.63377 0.32646 0.59788 0.0
C228 C 0.66105 0.33716 0.60203 0.0
C229 C 0.61797 0.31853 0.62033 0.0
C230 C 0.65804 0.33045 0.65081 0.0
C231 C 0.70006 0.35458 0.63309 0.0
O232 O 0.7628 0.39218 0.68224 0.0
O233 O 0.78481 0.36648 0.65006 0.0
O234 O 0.72317 0.3409 0.62621 0.0
O235 O 0.70239 0.36961 0.65671 0.0
H236 H 0.75165 0.39356 0.61681 0.0
H237 H 0.74232 0.43367 0.59242 0.0
H238 H 0.80116 0.48004 0.64627 0.0
H239 H 0.81056 0.43945 0.67094 0.0
H240 H 0.80754 0.32689 0.77626 0.0
H241 H 0.78378 0.34376 0.73597 0.0
H242 H 0.76669 0.24892 0.75781 0.0
H243 H 0.74389 0.26567 0.71762 0.0
H244 H 0.61904 0.31378 0.66433 0.0
H245 H 0.62446 0.32583 0.57737 0.0
H246 H 0.67234 0.34431 0.58467 0.0
H247 H 0.66705 0.33211 0.67148 0.0
C248 C 0.50009 0.30903 0.25735 0.0
C249 C 0.47752 0.32741 0.26136 0.0
C250 C 0.46232 0.30558 0.30194 0.0
C251 C 0.45874 0.32557 0.28329 0.0
C252 C 0.4836 0.28597 0.29662 0.0
C253 C 0.50224 0.28766 0.27449 0.0
U254 U 0.55619 0.35749 0.23862 0.0
O255 O 0.60205 0.35253 0.2324 0.0
O256 O 0.57557 0.36796 0.19981 0.0
C257 C 0.60098 0.36034 0.20722 0.0
C258 C 0.52386 0.31446 0.23881 0.0
C259 C 0.61739 0.34396 0.18632 0.0
C260 C 0.62186 0.30755 0.14958 0.0
C261 C 0.60538 0.32224 0.16962 0.0
C262 C 0.66237 0.33599 0.1632 0.0
C263 C 0.65053 0.31443 0.14603 0.0
C264 C 0.64594 0.3506 0.18305 0.0
C265 C 0.55971 0.42466 0.2833 0.0
C266 C 0.60278 0.44919 0.29748 0.0
C267 C 0.55707 0.4707 0.30508 0.0
C268 C 0.54366 0.44738 0.29276 0.0
C269 C 0.58666 0.47138 0.30839 0.0
C270 C 0.58944 0.4261 0.2848 0.0
C271 C 0.54533 0.3989 0.27443 0.0
O272 O 0.51978 0.33331 0.22163 0.0
O273 O 0.54863 0.31653 0.25134 0.0
O274 O 0.55869 0.37702 0.28082 0.0
O275 O 0.53461 0.39659 0.24927 0.0
H276 H 0.47518 0.34412 0.24853 0.0
H277 H 0.44215 0.34061 0.28636 0.0
H278 H 0.48711 0.27037 0.31057 0.0
H279 H 0.5195 0.27328 0.27188 0.0
H280 H 0.61209 0.29113 0.13662 0.0
H281 H 0.58332 0.31679 0.17197 0.0
H282 H 0.68449 0.34146 0.16152 0.0
H283 H 0.65558 0.3672 0.19592 0.0
H284 H 0.62564 0.44935 0.29971 0.0
H285 H 0.54421 0.48751 0.31353 0.0
H286 H 0.52073 0.44666 0.29172 0.0
H287 H 0.60229 0.4089 0.27733 0.0
C288 C 0.16632 0.19523 0.89181 0.0
C289 C 0.15597 0.17467 0.9072 0.0
C290 C 0.11316 0.20074 0.91802 0.0
C291 C 0.12963 0.1773 0.92001 0.0
C292 C 0.12393 0.2216 0.90298 0.0
C293 C 0.15031 0.21881 0.88992 0.0
U294 U 0.23312 0.15501 0.88099 0.0
O295 O 0.25377 0.13763 0.84307 0.0
O296 O 0.27697 0.16655 0.87185 0.0
C297 C 0.27644 0.15297 0.84728 0.0
C298 C 0.19336 0.1914 0.87716 0.0
C299 C 0.28382 0.16874 0.82408 0.0
C300 C 0.27087 0.2017 0.79204 0.0
C301 C 0.26459 0.18763 0.81498 0.0
C302 C 0.316 0.17853 0.78735 0.0
C303 C 0.29659 0.19722 0.77781 0.0
C304 C 0.30962 0.16438 0.8103 0.0
C305 C 0.23964 0.09539 0.92755 0.0
C306 C 0.25792 0.04967 0.91795 0.0
C307 C 0.24432 0.06574 0.96461 0.0
C308 C 0.23732 0.09092 0.95556 0.0
C309 C 0.25367 0.04448 0.94571 0.0
C310 C 0.25098 0.07495 0.90893 0.0
C311 C 0.22655 0.11987 0.91794 0.0
O312 O 0.21618 0.19592 0.89255 0.0
O313 O 0.19478 0.16887 0.86073 0.0
O314 O 0.21495 0.11707 0.89316 0.0
O315 O 0.24025 0.14295 0.92324 0.0
H316 H 0.16805 0.15628 0.90885 0.0
H317 H 0.12191 0.16056 0.93087 0.0
H318 H 0.11201 0.24005 0.90128 0.0
H319 H 0.15808 0.23492 0.87817 0.0
H320 H 0.25523 0.21559 0.78506 0.0
H321 H 0.24449 0.19116 0.82537 0.0
H322 H 0.33614 0.17486 0.77713 0.0
H323 H 0.32471 0.14987 0.81714 0.0
H324 H 0.26544 0.03381 0.90298 0.0
H325 H 0.24049 0.06242 0.98604 0.0
H326 H 0.22853 0.10643 0.97022 0.0
H327 H 0.25313 0.07802 0.8872 0.0
C328 C 0.22199 0.58545 0.40478 0.0
C329 C 0.2401 0.5872 0.42791 0.0
C330 C 0.23352 0.53914 0.43279 0.0
C331 C 0.24574 0.56432 0.4418 0.0
C332 C 0.21408 0.53766 0.41062 0.0
C333 C 0.20849 0.5607 0.39656 0.0
U334 U 0.25936 0.64616 0.38411 0.0
O335 O 0.26982 0.66039 0.34379 0.0
O336 O 0.24645 0.68705 0.37441 0.0
C337 C 0.25664 0.68363 0.34917 0.0
C338 C 0.22109 0.60821 0.38722 0.0
C339 C 0.23848 0.69242 0.32699 0.0
C340 C 0.20596 0.68297 0.28829 0.0
C341 C 0.2209 0.67423 0.31091 0.0
C342 C 0.22543 0.72819 0.29834 0.0
C343 C 0.20835 0.71002 0.28156 0.0
C344 C 0.24029 0.71946 0.3208 0.0
C345 C 0.33079 0.65941 0.42139 0.0
C346 C 0.37441 0.67732 0.40363 0.0
C347 C 0.36936 0.67343 0.45281 0.0
C348 C 0.34192 0.66322 0.44829 0.0
C349 C 0.38619 0.67976 0.43042 0.0
C350 C 0.34687 0.66736 0.39915 0.0
C351 C 0.30371 0.64482 0.41676 0.0
O352 O 0.21885 0.63246 0.40055 0.0
O353 O 0.2408 0.607 0.36813 0.0
O354 O 0.30124 0.62996 0.39304 0.0
O355 O 0.28061 0.65838 0.42395 0.0
H356 H 0.25103 0.606 0.43443 0.0
H357 H 0.26058 0.56608 0.45899 0.0
H358 H 0.20451 0.51843 0.40321 0.0
H359 H 0.19476 0.55889 0.37853 0.0
H360 H 0.1928 0.66854 0.27594 0.0
H361 H 0.21922 0.65323 0.31547 0.0
H362 H 0.22825 0.749 0.29353 0.0
H363 H 0.25388 0.73372 0.33292 0.0
H364 H 0.38684 0.6823 0.38605 0.0
H365 H 0.37795 0.67486 0.47364 0.0
H366 H 0.32983 0.65721 0.46569 0.0
H367 H 0.3386 0.66484 0.37821 0.0
C368 C 0.89197 0.93791 0.74912 0.0
C369 C 0.91566 0.95167 0.7611 0.0
C370 C 0.88487 0.98227 0.78916 0.0
C371 C 0.91215 0.97374 0.78076 0.0
C372 C 0.86118 0.96899 0.77638 0.0
C373 C 0.86473 0.94699 0.75653 0.0
U374 U 0.93348 0.87403 0.73251 0.0
O375 O 0.92017 0.83154 0.72432 0.0
O376 O 0.94473 0.85103 0.69315 0.0
C377 C 0.92978 0.82975 0.69883 0.0
C378 C 0.8955 0.91241 0.73146 0.0
C379 C 0.90917 0.81977 0.67752 0.0
C380 C 0.86145 0.81919 0.65853 0.0
C381 C 0.88132 0.82963 0.67811 0.0
C382 C 0.89735 0.78961 0.6369 0.0
C383 C 0.86914 0.79888 0.63779 0.0
C384 C 0.91715 0.79994 0.65667 0.0
C385 C 0.99766 0.86547 0.78054 0.0
C386 C 0.01789 0.82368 0.79471 0.0
C387 C 0.04063 0.86686 0.8082 0.0
C388 C 0.01993 0.88015 0.79389 0.0
C389 C 0.03943 0.83855 0.80947 0.0
C390 C 0.99716 0.83705 0.7803 0.0
C391 C 0.97379 0.88055 0.76991 0.0
O392 O 0.91793 0.91103 0.71539 0.0
O393 O 0.89159 0.89043 0.74435 0.0
O394 O 0.97636 0.88854 0.7449 0.0
O395 O 0.94848 0.87102 0.77491 0.0
H396 H 0.93693 0.94485 0.75591 0.0
H397 H 0.93086 0.98377 0.78979 0.0
H398 H 0.83987 0.97478 0.78256 0.0
H399 H 0.84619 0.93642 0.74775 0.0
H400 H 0.8399 0.82657 0.66013 0.0
H401 H 0.8748 0.84508 0.69402 0.0
H402 H 0.90416 0.77436 0.62096 0.0
H403 H 0.93864 0.79228 0.6558 0.0
H404 H 0.01656 0.80185 0.79502 0.0
H405 H 0.05658 0.87906 0.81964 0.0
H406 H 0.02056 0.9021 0.79439 0.0
H407 H 0.98014 0.82535 0.76997 0.0
H408 H 0.13395 0.93315 0.09084 0.0
H409 H 0.08489 0.96963 0.24338 0.0
H410 H 0.15365 0.87795 0.15227 0.0
H411 H 0.12004 0.03021 0.19453 0.0
H412 H 0.10353 0.93395 0.20966 0.0
H413 H 0.12154 0.96782 0.12782 0.0
C414 C 0.13564 0.92838 0.11216 0.0
C415 C 0.14483 0.90276 0.11862 0.0
C416 C 0.10743 0.95508 0.20667 0.0
C417 C 0.13027 0.94206 0.16083 0.0
C418 C 0.09677 0.97533 0.22573 0.0
C419 C 0.10109 0.00278 0.22166 0.0
C420 C 0.12165 0.96252 0.18313 0.0
C421 C 0.11652 0.00926 0.1985 0.0
C422 C 0.12872 0.94816 0.13319 0.0
C423 C 0.14679 0.89758 0.14656 0.0
N424 N 0.12588 0.98928 0.17986 0.0
N425 N 0.13917 0.91702 0.16677 0.0
H426 H 0.59722 0.72867 0.58798 0.0
H427 H 0.59094 0.65465 0.7279 0.0
H428 H 0.64277 0.65581 0.60262 0.0
H429 H 0.52227 0.70275 0.69942 0.0
H430 H 0.61953 0.667 0.68904 0.0
H431 H 0.57903 0.73065 0.63564 0.0
C432 C 0.60393 0.71354 0.60147 0.0
C433 C 0.62119 0.69187 0.59146 0.0
C434 C 0.59838 0.67523 0.69164 0.0
C435 C 0.60089 0.69413 0.64555 0.0
C436 C 0.582 0.66814 0.71374 0.0
C437 C 0.55388 0.67711 0.71657 0.0
C438 C 0.58665 0.69152 0.67227 0.0
C439 C 0.54377 0.69522 0.69804 0.0
C440 C 0.59349 0.7146 0.62851 0.0
C441 C 0.6292 0.67265 0.60957 0.0
N442 N 0.56 0.70151 0.67639 0.0
N443 N 0.61887 0.67414 0.63569 0.0
H444 H 0.75581 0.10389 0.03097 0.0
H445 H 0.7848 0.96667 0.1011 0.0
H446 H 0.83845 0.0773 0.05597 0.0
H447 H 0.70129 0.00178 0.10011 0.0
H448 H 0.80387 0.00635 0.08131 0.0
H449 H 0.73438 0.06632 0.05365 0.0
C450 C 0.76944 0.09033 0.04131 0.0
C451 C 0.79904 0.09373 0.04134 0.0
C452 C 0.78136 0.00552 0.08541 0.0
C453 C 0.77468 0.05075 0.06704 0.0
C454 C 0.77042 0.98274 0.0965 0.0
C455 C 0.74137 0.98082 0.10195 0.0
C456 C 0.76316 0.02666 0.07943 0.0
C457 C 0.72382 0.00252 0.09615 0.0
C458 C 0.75717 0.06895 0.05426 0.0
C459 C 0.81558 0.07555 0.05517 0.0
N460 N 0.73496 0.02454 0.08496 0.0
N461 N 0.8032 0.05484 0.06722 0.0
H462 H 0.4423 0.34963 0.60785 0.0
H463 H 0.59239 0.28498 0.57928 0.0
H464 H 0.45132 0.27379 0.55759 0.0
H465 H 0.57413 0.33756 0.65271 0.0
H466 H 0.54131 0.28001 0.57031 0.0
H467 H 0.49097 0.3455 0.62416 0.0
C468 C 0.45451 0.33196 0.60045 0.0
C469 C 0.44291 0.3121 0.58123 0.0
C470 C 0.54853 0.29221 0.58864 0.0
C471 C 0.49875 0.30743 0.59947 0.0
C472 C 0.57762 0.29515 0.59369 0.0
C473 C 0.58747 0.31181 0.61669 0.0
C474 C 0.5293 0.3065 0.60642 0.0
C475 C 0.56747 0.32439 0.63483 0.0
C476 C 0.48223 0.32955 0.60985 0.0
C477 C 0.45954 0.28951 0.57245 0.0
N478 N 0.53936 0.32182 0.62907 0.0
N479 N 0.48688 0.288 0.58128 0.0
H480 H 0.63272 0.56316 0.45739 0.0
H481 H 0.58316 0.52649 0.3051 0.0
H482 H 0.6549 0.61789 0.39635 0.0
H483 H 0.62008 0.46604 0.35307 0.0
H484 H 0.60236 0.56224 0.33882 0.0
H485 H 0.62019 0.52854 0.42014 0.0
C486 C 0.63494 0.56783 0.43609 0.0
C487 C 0.64486 0.59328 0.4298 0.0
C488 C 0.60653 0.54112 0.34159 0.0
C489 C 0.63011 0.55411 0.38732 0.0
C490 C 0.59557 0.52084 0.32253 0.0
C491 C 0.60022 0.49341 0.32638 0.0
C492 C 0.62136 0.53371 0.3649 0.0
C493 C 0.61629 0.48698 0.34929 0.0
C494 C 0.62794 0.54809 0.41493 0.0
C495 C 0.64747 0.59836 0.40191 0.0
N496 N 0.6259 0.50698 0.36795 0.0
N497 N 0.63971 0.579 0.38154 0.0
H498 H 0.96387 0.15584 0.00276 0.0
H499 H 0.06458 0.22319 0.89805 0.0
H500 H 0.93607 0.22383 0.95962 0.0
H501 H 0.09616 0.18264 0.96727 0.0
H502 H 0.01689 0.22203 0.91756 0.0
H503 H 0.01197 0.16266 0.98652 0.0
C504 C 0.96788 0.1722 0.98982 0.0
C505 C 0.94589 0.18925 0.98246 0.0
C506 C 0.03437 0.21361 0.92852 0.0
C507 C 0.00099 0.19708 0.9637 0.0
C508 C 0.06166 0.21438 0.9175 0.0
C509 C 0.08452 0.20268 0.93081 0.0
C510 C 0.02986 0.20075 0.95278 0.0
C511 C 0.07919 0.19126 0.95581 0.0
C512 C 0.99539 0.17619 0.98072 0.0
C513 C 0.95242 0.21027 0.96582 0.0
N514 N 0.05242 0.1903 0.96578 0.0
N515 N 0.97938 0.21345 0.95675 0.0
H516 H 0.34057 0.41731 0.49365 0.0
H517 H 0.20198 0.49763 0.45187 0.0
H518 H 0.25748 0.39861 0.52399 0.0
H519 H 0.28795 0.52421 0.44061 0.0
H520 H 0.22035 0.4577 0.47321 0.0
H521 H 0.31992 0.45274 0.46853 0.0
C522 C 0.31792 0.42056 0.49503 0.0
C523 C 0.30083 0.40504 0.5113 0.0
C524 C 0.2351 0.47231 0.466 0.0
C525 C 0.27691 0.44598 0.48236 0.0
C526 C 0.22466 0.49496 0.45379 0.0
C527 C 0.24351 0.51435 0.44484 0.0
C528 C 0.26453 0.46897 0.46879 0.0
C529 C 0.27268 0.51001 0.4477 0.0
C530 C 0.30612 0.44091 0.48064 0.0
C531 C 0.27152 0.41017 0.51188 0.0
N532 N 0.28224 0.48785 0.45939 0.0
N533 N 0.26047 0.43033 0.49771 0.0
H534 H 0.09738 0.77017 0.95687 0.0
H535 H 0.096 0.84858 0.81959 0.0
H536 H 0.14583 0.84234 0.94534 0.0
H537 H 0.02648 0.799 0.84376 0.0
H538 H 0.12366 0.83472 0.85865 0.0
H539 H 0.08051 0.76952 0.90867 0.0
C540 C 0.105 0.78541 0.94396 0.0
C541 C 0.12267 0.80653 0.955 0.0
C542 C 0.10253 0.8265 0.85505 0.0
C543 C 0.10383 0.80582 0.90031 0.0
C544 C 0.08669 0.83445 0.83283 0.0
C545 C 0.0586 0.82548 0.82875 0.0
C546 C 0.09026 0.80938 0.87331 0.0
C547 C 0.04799 0.80655 0.84612 0.0
C548 C 0.0953 0.78512 0.91661 0.0
C549 C 0.13189 0.82593 0.9376 0.0
N550 N 0.06366 0.79946 0.86794 0.0
N551 N 0.12222 0.82521 0.91118 0.0
H552 H 0.81832 0.10875 0.90599 0.0
H553 H 0.91646 0.99042 0.83673 0.0
H554 H 0.8962 0.08276 0.94254 0.0
H555 H 0.84471 0.0227 0.79496 0.0
H556 H 0.90926 0.0243 0.87553 0.0
H557 H 0.82727 0.07732 0.86529 0.0
C558 C 0.83731 0.09647 0.90551 0.0
C559 C 0.85647 0.09837 0.92788 0.0
C560 C 0.89516 0.0241 0.85783 0.0
C561 C 0.8668 0.06231 0.88123 0.0
C562 C 0.89939 0.00485 0.83551 0.0
C563 C 0.88123 0.00369 0.81239 0.0
C564 C 0.87248 0.04234 0.85726 0.0
C565 C 0.85904 0.02258 0.81244 0.0
C566 C 0.84242 0.07857 0.88219 0.0
C567 C 0.88078 0.08202 0.92589 0.0
N568 N 0.85524 0.04106 0.83455 0.0
N569 N 0.88517 0.06463 0.90306 0.0
H570 H 0.38554 0.27142 0.45799 0.0
H571 H 0.44774 0.35107 0.33481 0.0
H572 H 0.39687 0.35837 0.46137 0.0
H573 H 0.44093 0.26368 0.32993 0.0
H574 H 0.42516 0.3537 0.37979 0.0
H575 H 0.40245 0.26778 0.41011 0.0
C576 C 0.39146 0.28974 0.4487 0.0
C577 C 0.38993 0.31524 0.4639 0.0
C578 C 0.42838 0.3339 0.36887 0.0
C579 C 0.4092 0.31117 0.40912 0.0
C580 C 0.44105 0.33238 0.34293 0.0
C581 C 0.44621 0.30709 0.32835 0.0
C582 C 0.42084 0.30998 0.38064 0.0
C583 C 0.43766 0.28361 0.3405 0.0
C584 C 0.40111 0.28763 0.42136 0.0
C585 C 0.39784 0.33825 0.45068 0.0
N586 N 0.4255 0.28561 0.36599 0.0
N587 N 0.40716 0.33563 0.42418 0.0
H588 H 0.18627 0.8907 0.97239 0.0
H589 H 0.27458 0.02693 0.9942 0.0
H590 H 0.2399 0.90958 0.04382 0.0
H591 H 0.23452 0.998 0.91696 0.0
H592 H 0.26699 0.98226 0.01112 0.0
H593 H 0.20831 0.92755 0.94997 0.0
C594 C 0.20299 0.90245 0.98321 0.0
C595 C 0.21104 0.89733 0.01012 0.0
C596 C 0.26039 0.98554 0.99027 0.0
C597 C 0.23612 0.93995 0.98474 0.0
C598 C 0.26464 0.01106 0.98063 0.0
C599 C 0.25486 0.01636 0.95423 0.0
C600 C 0.24596 0.9653 0.97351 0.0
C601 C 0.24251 0.99491 0.9374 0.0
C602 C 0.21564 0.92347 0.97037 0.0
C603 C 0.23303 0.91294 0.02307 0.0
N604 N 0.23801 0.97052 0.94748 0.0
N605 N 0.24447 0.93393 0.01045 0.0
H606 H 0.55297 0.72804 0.49579 0.0
H607 H 0.4303 0.65767 0.40042 0.0
H608 H 0.55884 0.64767 0.45382 0.0
H609 H 0.41171 0.71458 0.47051 0.0
H610 H 0.48077 0.66239 0.41127 0.0
H611 H 0.50398 0.73111 0.47857 0.0
C612 C 0.54407 0.71124 0.48269 0.0
C613 C 0.55978 0.68747 0.47639 0.0
C614 C 0.46565 0.6741 0.42405 0.0
C615 C 0.50441 0.69102 0.45643 0.0
C616 C 0.43688 0.67161 0.41775 0.0
C617 C 0.4168 0.68567 0.43468 0.0
C618 C 0.47448 0.69095 0.4473 0.0
C619 C 0.42654 0.70318 0.45713 0.0
C620 C 0.51619 0.71296 0.47301 0.0
C621 C 0.54731 0.66622 0.45943 0.0
N622 N 0.45476 0.70527 0.46289 0.0
N623 N 0.52039 0.66852 0.45 0.0
H624 H 0.30582 0.4013 0.64266 0.0
H625 H 0.41889 0.4836 0.74104 0.0
H626 H 0.39555 0.40387 0.62594 0.0
H627 H 0.32924 0.50076 0.74389 0.0
H628 H 0.41013 0.44826 0.70363 0.0
H629 H 0.31366 0.43207 0.68448 0.0
C630 C 0.32716 0.40821 0.64782 0.0
C631 C 0.35003 0.40018 0.63062 0.0
C632 C 0.39236 0.45967 0.71255 0.0
C633 C 0.3591 0.43508 0.67846 0.0
C634 C 0.39734 0.47992 0.73387 0.0
C635 C 0.37483 0.49551 0.74542 0.0
C636 C 0.36463 0.45476 0.70273 0.0
C637 C 0.34725 0.48923 0.73573 0.0
C638 C 0.33158 0.42579 0.67164 0.0
C639 C 0.37722 0.40975 0.63837 0.0
N640 N 0.34294 0.46945 0.71482 0.0
N641 N 0.38098 0.42666 0.66169 0.0
H642 H 0.05018 0.77135 0.04984 0.0
H643 H 0.92879 0.84475 0.1425 0.0
H644 H 0.05728 0.85287 0.08906 0.0
H645 H 0.9091 0.7855 0.0744 0.0
H646 H 0.97905 0.84036 0.13122 0.0
H647 H 0.00101 0.76942 0.06633 0.0
C648 C 0.04148 0.78869 0.06211 0.0
C649 C 0.05766 0.8124 0.06792 0.0
C650 C 0.96374 0.82811 0.11893 0.0
C651 C 0.00204 0.81013 0.08707 0.0
C652 C 0.93511 0.83042 0.12549 0.0
C653 C 0.91478 0.81551 0.1093 0.0
C654 C 0.97219 0.81058 0.09618 0.0
C655 C 0.92414 0.79752 0.08723 0.0
C656 C 0.0135 0.7876 0.07138 0.0
C657 C 0.04542 0.83433 0.08384 0.0
N658 N 0.95224 0.79557 0.08125 0.0
N659 N 0.0184 0.83263 0.09292 0.0
H660 H 0.74699 0.59917 0.52216 0.0
H661 H 0.71668 0.47689 0.61421 0.0
H662 H 0.66871 0.58795 0.56562 0.0
H663 H 0.80211 0.49976 0.59506 0.0
H664 H 0.69909 0.5169 0.59391 0.0
H665 H 0.76833 0.56271 0.54663 0.0
C666 C 0.73436 0.58928 0.53695 0.0
C667 C 0.70586 0.59651 0.54154 0.0
C668 C 0.72172 0.51337 0.59418 0.0
C669 C 0.73006 0.55481 0.56931 0.0
C670 C 0.73174 0.49042 0.60563 0.0
C671 C 0.76083 0.48495 0.60605 0.0
C672 C 0.74085 0.531 0.58271 0.0
C673 C 0.77949 0.50334 0.59505 0.0
C674 C 0.74658 0.56851 0.5509 0.0
C675 C 0.69061 0.58301 0.56105 0.0
N676 N 0.76916 0.5255 0.58351 0.0
N677 N 0.70281 0.56276 0.57394 0.0
H678 H 0.87111 0.14822 0.10382 0.0
H679 H 0.9665 0.23063 0.21614 0.0
H680 H 0.89938 0.2298 0.09357 0.0
H681 H 0.91348 0.16332 0.23468 0.0
H682 H 0.94163 0.232 0.17196 0.0
H683 H 0.88642 0.15386 0.15205 0.0
C684 C 0.88042 0.16741 0.11178 0.0
C685 C 0.88421 0.1885 0.09458 0.0
C686 C 0.93518 0.2172 0.1859 0.0
C687 C 0.90203 0.19503 0.14986 0.0
C688 C 0.94925 0.2165 0.21126 0.0
C689 C 0.94238 0.19656 0.22909 0.0
C690 C 0.91433 0.19764 0.17818 0.0
C691 C 0.92003 0.1786 0.22135 0.0
C692 C 0.88902 0.17067 0.13939 0.0
C693 C 0.89611 0.21302 0.10612 0.0
N694 N 0.90712 0.17932 0.19634 0.0
N695 N 0.905 0.21548 0.13297 0.0
H696 H 0.16112 0.73254 0.11143 0.0
H697 H 0.18283 0.75882 0.27518 0.0
H698 H 0.17725 0.81121 0.15452 0.0
H699 H 0.20313 0.68222 0.23009 0.0
H700 H 0.16815 0.77633 0.23184 0.0
H701 H 0.16473 0.71212 0.15579 0.0
C702 C 0.1651 0.74551 0.13023 0.0
C703 C 0.16923 0.77354 0.12932 0.0
C704 C 0.17555 0.75559 0.23151 0.0
C705 C 0.17289 0.75051 0.17981 0.0
C706 C 0.18401 0.74559 0.25621 0.0
C707 C 0.19482 0.71917 0.25625 0.0
C708 C 0.17766 0.73905 0.20661 0.0
C709 C 0.19499 0.70271 0.23109 0.0
C710 C 0.16722 0.73386 0.15543 0.0
C711 C 0.17434 0.78946 0.15424 0.0
N712 N 0.18683 0.71301 0.20719 0.0
N713 N 0.17602 0.77772 0.17844 0.0
H714 H 0.76713 0.68933 0.52881 0.0
H715 H 0.82516 0.82443 0.61326 0.0
H716 H 0.71698 0.76197 0.54421 0.0
H717 H 0.86369 0.74568 0.61682 0.0
H718 H 0.78827 0.80349 0.58288 0.0
H719 H 0.80581 0.71153 0.55574 0.0
C720 C 0.76426 0.71 0.5377 0.0
C721 C 0.73865 0.72375 0.5343 0.0
C722 C 0.80488 0.79085 0.59027 0.0
C723 C 0.78298 0.74927 0.56516 0.0
C724 C 0.8259 0.80275 0.60773 0.0
C725 C 0.84756 0.78681 0.61784 0.0
C726 C 0.80559 0.76283 0.58265 0.0
C727 C 0.84769 0.7589 0.60935 0.0
C728 C 0.78636 0.72262 0.55316 0.0
C729 C 0.73624 0.7505 0.5464 0.0
N730 N 0.82701 0.74781 0.59231 0.0
N731 N 0.75812 0.76239 0.56129 0.0
H732 H 0.73916 0.19187 0.03946 0.0
H733 H 0.69009 0.33507 0.1125 0.0
H734 H 0.79111 0.26421 0.04549 0.0
H735 H 0.65166 0.25941 0.1309 0.0
H736 H 0.72263 0.30991 0.08107 0.0
H737 H 0.70249 0.21697 0.06663 0.0
C738 C 0.7428 0.21303 0.04634 0.0
C739 C 0.76832 0.22592 0.04031 0.0
C740 C 0.70704 0.2988 0.09192 0.0
C741 C 0.72646 0.25467 0.07108 0.0
C742 C 0.68849 0.31314 0.10997 0.0
C743 C 0.6684 0.29932 0.12479 0.0
C744 C 0.70544 0.27038 0.0884 0.0
C745 C 0.66678 0.27092 0.11992 0.0
C746 C 0.72192 0.22727 0.06189 0.0
C747 C 0.77191 0.25335 0.04982 0.0
N748 N 0.68521 0.25734 0.10224 0.0
N749 N 0.75122 0.26679 0.06466 0.0
H750 H 0.34786 0.23987 0.61546 0.0
H751 H 0.28472 0.25005 0.76879 0.0
H752 H 0.29537 0.3059 0.64941 0.0
H753 H 0.32222 0.17706 0.72959 0.0
H754 H 0.29228 0.27233 0.7265 0.0
H755 H 0.34238 0.21801 0.65843 0.0
C756 C 0.33519 0.2498 0.6319 0.0
C757 C 0.32198 0.27476 0.6287 0.0
C758 C 0.29889 0.25145 0.72716 0.0
C759 C 0.31578 0.24987 0.67802 0.0
C760 C 0.29449 0.23865 0.75128 0.0
C761 C 0.30265 0.21153 0.75276 0.0
C762 C 0.3117 0.23711 0.70427 0.0
C763 C 0.31582 0.19805 0.72955 0.0
C764 C 0.33206 0.23727 0.65642 0.0
C765 C 0.30583 0.28662 0.6508 0.0
N766 N 0.31986 0.21096 0.70626 0.0
N767 N 0.30324 0.2741 0.67449 0.0
H768 H 0.66503 0.76132 0.43507 0.0
H769 H 0.69288 0.73297 0.27273 0.0
H770 H 0.68689 0.68288 0.39486 0.0
H771 H 0.70598 0.81191 0.31649 0.0
H772 H 0.67957 0.71521 0.31622 0.0
H773 H 0.6697 0.78089 0.39044 0.0
C774 C 0.67061 0.74821 0.41685 0.0
C775 C 0.67586 0.72049 0.41871 0.0
C776 C 0.68516 0.73647 0.31624 0.0
C777 C 0.68077 0.74259 0.3678 0.0
C778 C 0.69283 0.74664 0.29144 0.0
C779 C 0.70112 0.77389 0.29097 0.0
C780 C 0.68548 0.75367 0.34081 0.0
C781 C 0.69976 0.79079 0.3158 0.0
C782 C 0.67332 0.75939 0.39148 0.0
C783 C 0.68301 0.70441 0.39447 0.0
N784 N 0.69233 0.78035 0.33979 0.0
N785 N 0.6852 0.71569 0.37005 0.0
H786 H 0.83727 0.26277 0.94026 0.0
H787 H 0.80988 0.23584 0.77754 0.0
H788 H 0.81439 0.18466 0.89934 0.0
H789 H 0.79559 0.31421 0.82177 0.0
H790 H 0.82261 0.21778 0.82113 0.0
H791 H 0.83223 0.28278 0.89586 0.0
C792 C 0.83136 0.24983 0.92195 0.0
C793 C 0.82598 0.22206 0.92352 0.0
C794 C 0.81688 0.23898 0.82123 0.0
C795 C 0.8207 0.24466 0.87287 0.0
C796 C 0.80953 0.24932 0.79637 0.0
C797 C 0.80108 0.2765 0.79597 0.0
C798 C 0.81613 0.25595 0.84594 0.0
C799 C 0.80196 0.29316 0.821 0.0
C800 C 0.82844 0.26126 0.89671 0.0
C801 C 0.81839 0.20622 0.89916 0.0
N802 N 0.80913 0.28256 0.84504 0.0
N803 N 0.81606 0.21772 0.87487 0.0
H804 H 0.24008 0.30733 0.50925 0.0
H805 H 0.19126 0.1621 0.43991 0.0
H806 H 0.29189 0.23535 0.50701 0.0
H807 H 0.15402 0.23676 0.41734 0.0
H808 H 0.22376 0.18838 0.471 0.0
H809 H 0.20406 0.28137 0.48142 0.0
C810 C 0.24386 0.28608 0.503 0.0
C811 C 0.26912 0.27352 0.51037 0.0
C812 C 0.20844 0.19902 0.45929 0.0
C813 C 0.22795 0.24379 0.47889 0.0
C814 C 0.18991 0.18404 0.44144 0.0
C815 C 0.17014 0.19723 0.42558 0.0
C816 C 0.20713 0.22745 0.46158 0.0
C817 C 0.16885 0.22571 0.42917 0.0
C818 C 0.22333 0.27134 0.48709 0.0
C819 C 0.27288 0.24595 0.50165 0.0
N820 N 0.18722 0.23991 0.44671 0.0
N821 N 0.2525 0.23202 0.48647 0.0
H822 H 0.26902 0.79788 0.03426 0.0
H823 H 0.3128 0.68655 0.91266 0.0
H824 H 0.21053 0.73957 0.99391 0.0
H825 H 0.3726 0.74115 0.95641 0.0
H826 H 0.27549 0.70458 0.94353 0.0
H827 H 0.30752 0.77639 0.00716 0.0
C828 C 0.26424 0.78048 0.01983 0.0
C829 C 0.23637 0.77064 0.01632 0.0
C830 C 0.29679 0.71254 0.94649 0.0
C831 C 0.28049 0.74599 0.98508 0.0
C832 C 0.31819 0.70212 0.92896 0.0
C833 C 0.34595 0.71234 0.93189 0.0
C834 C 0.30307 0.73345 0.9671 0.0
C835 C 0.35146 0.73291 0.95311 0.0
C836 C 0.28628 0.76821 0.00434 0.0
C837 C 0.2316 0.74795 0.99732 0.0
N838 N 0.3302 0.74284 0.96983 0.0
N839 N 0.2534 0.73651 0.98234 0.0
loop_
_geom_bond_atom_site_label_1
_geom_bond_atom_site_label_2
_geom_bond_distance
_geom_bond_site_symmetry_2
_ccdc_geom_bond_type
Sc0 O3 2.025 . S
Sc0 O10 2.105 . S
Sc0 O13 2.105 . S
Sc0 O16 2.105 . S
Sc0 O19 2.105 . S
Sc1 O3 2.025 . S
Sc1 O11 2.104 1_554 S
Sc1 O15 2.105 . S
Sc1 O17 2.105 . S
Sc1 O21 2.105 . S
Sc2 O3 2.025 . S
Sc2 O12 2.105 . S
Sc2 O14 2.105 . S
Sc2 O18 2.105 . S
Sc2 O20 2.105 . S
O3 Sc0 2.025 . S
O3 Sc1 2.025 . S
O3 Sc2 2.025 . S
C4 O10 1.268 . S
C4 O20 1.268 . S
C5 O11 1.269 . S
C5 O19 1.268 1_556 S
C6 O12 1.268 . S
C6 O21 1.268 . S
C7 O13 1.268 . S
C7 O17 1.268 . S
C8 O14 1.268 . S
C8 O16 1.268 . S
C9 O15 1.268 . S
C9 O18 1.268 . S
O10 Sc0 2.105 . S
O10 C4 1.268 . S
O11 Sc1 2.104 1_556 S
O11 C5 1.269 . S
O12 Sc2 2.105 . S
O12 C6 1.268 . S
O13 Sc0 2.105 . S
O13 C7 1.268 . S
O14 Sc2 2.105 . S
O14 C8 1.268 . S
O15 Sc1 2.105 . S
O15 C9 1.268 . S
O16 Sc0 2.105 . S
O16 C8 1.268 . S
O17 Sc1 2.105 . S
O17 C7 1.268 . S
O18 Sc2 2.105 . S
O18 C9 1.268 . S
O19 Sc0 2.105 . S
O19 C5 1.268 1_554 S
O20 Sc2 2.105 . S
O20 C4 1.268 . S
O21 Sc1 2.105 . S
O21 C6 1.268 . S
Sc22 O25 2.025 . S
Sc22 O32 2.105 . S
Sc22 O35 2.105 . S
Sc22 O38 2.105 . S
Sc22 O41 2.105 . S
Sc23 O25 2.025 . S
Sc23 O33 2.105 . S
Sc23 O37 2.105 . S
Sc23 O39 2.105 . S
Sc23 O43 2.105 . S
Sc24 O25 2.025 . S
Sc24 O34 2.105 . S
Sc24 O36 2.105 . S
Sc24 O40 2.105 . S
Sc24 O42 2.105 . S
O25 Sc22 2.025 . S
O25 Sc23 2.025 . S
O25 Sc24 2.025 . S
C26 O32 1.268 . S
C26 O42 1.268 . S
C27 O33 1.268 . S
C27 O41 1.268 . S
C28 O34 1.268 . S
C28 O43 1.268 . S
C29 O35 1.268 . S
C29 O39 1.268 . S
C30 O36 1.268 . S
C30 O38 1.268 . S
C31 O37 1.268 . S
C31 O40 1.268 . S
O32 Sc22 2.105 . S
O32 C26 1.268 . S
O33 Sc23 2.105 . S
O33 C27 1.268 . S
O34 Sc24 2.105 . S
O34 C28 1.268 . S
O35 Sc22 2.105 . S
O35 C29 1.268 . S
O36 Sc24 2.105 . S
O36 C30 1.268 . S
O37 Sc23 2.105 . S
O37 C31 1.268 . S
O38 Sc22 2.105 . S
O38 C30 1.268 . S
O39 Sc23 2.105 . S
O39 C29 1.268 . S
O40 Sc24 2.105 . S
O40 C31 1.268 . S
O41 Sc22 2.105 . S
O41 C27 1.268 . S
O42 Sc24 2.105 . S
O42 C26 1.268 . S
O43 Sc23 2.105 . S
O43 C28 1.268 . S
Sc44 O47 2.025 . S
Sc44 O54 2.105 1_554 S
Sc44 O57 2.105 . S
Sc44 O60 2.105 . S
Sc44 O63 2.105 1_554 S
Sc45 O47 2.025 1_556 S
Sc45 O55 2.105 . S
Sc45 O59 2.105 1_556 S
Sc45 O61 2.105 1_556 S
Sc45 O65 2.105 . S
Sc46 O47 2.025 . S
Sc46 O56 2.105 1_554 S
Sc46 O58 2.105 . S
Sc46 O62 2.105 . S
Sc46 O64 2.105 1_554 S
O47 Sc44 2.025 . S
O47 Sc45 2.025 1_554 S
O47 Sc46 2.025 . S
C48 O54 1.268 . S
C48 O64 1.268 . S
C49 O55 1.268 . S
C49 O63 1.268 . S
C50 O56 1.268 . S
C50 O65 1.268 . S
C51 O57 1.268 . S
C51 O61 1.268 . S
C52 O58 1.268 . S
C52 O60 1.268 . S
C53 O59 1.268 . S
C53 O62 1.268 . S
O54 Sc44 2.105 1_556 S
O54 C48 1.268 . S
O55 Sc45 2.105 . S
O55 C49 1.268 . S
O56 Sc46 2.105 1_556 S
O56 C50 1.268 . S
O57 Sc44 2.105 . S
O57 C51 1.268 . S
O58 Sc46 2.105 . S
O58 C52 1.268 . S
O59 Sc45 2.105 1_554 S
O59 C53 1.268 . S
O60 Sc44 2.105 . S
O60 C52 1.268 . S
O61 Sc45 2.105 1_554 S
O61 C51 1.268 . S
O62 Sc46 2.105 . S
O62 C53 1.268 . S
O63 Sc44 2.105 1_556 S
O63 C49 1.268 . S
O64 Sc46 2.105 1_556 S
O64 C48 1.268 . S
O65 Sc45 2.105 . S
O65 C50 1.268 . S
Sc66 O69 2.025 . S
Sc66 O76 2.105 . S
Sc66 O79 2.105 . S
Sc66 O82 2.105 . S
Sc66 O85 2.105 . S
Sc67 O69 2.025 . S
Sc67 O77 2.105 . S
Sc67 O81 2.105 . S
Sc67 O83 2.105 . S
Sc67 O87 2.105 . S
Sc68 O69 2.025 . S
Sc68 O78 2.105 . S
Sc68 O80 2.105 . S
Sc68 O84 2.105 . S
Sc68 O86 2.105 . S
O69 Sc66 2.025 . S
O69 Sc67 2.025 . S
O69 Sc68 2.025 . S
C70 O76 1.268 . S
C70 O86 1.268 . S
C71 O77 1.268 . S
C71 O85 1.268 . S
C72 O78 1.268 . S
C72 O87 1.268 . S
C73 O79 1.268 . S
C73 O83 1.268 . S
C74 O80 1.268 . S
C74 O82 1.268 . S
C75 O81 1.268 . S
C75 O84 1.268 . S
O76 Sc66 2.105 . S
O76 C70 1.268 . S
O77 Sc67 2.105 . S
O77 C71 1.268 . S
O78 Sc68 2.105 . S
O78 C72 1.268 . S
O79 Sc66 2.105 . S
O79 C73 1.268 . S
O80 Sc68 2.105 . S
O80 C74 1.268 . S
O81 Sc67 2.105 . S
O81 C75 1.268 . S
O82 Sc66 2.105 . S
O82 C74 1.268 . S
O83 Sc67 2.105 . S
O83 C73 1.268 . S
O84 Sc68 2.105 . S
O84 C75 1.268 . S
O85 Sc66 2.105 . S
O85 C71 1.268 . S
O86 Sc68 2.105 . S
O86 C70 1.268 . S
O87 Sc67 2.105 . S
O87 C72 1.268 . S
C88 C89 1.264 . S
C88 C93 1.479 . S
C88 C98 1.465 1_655 S
C89 C88 1.264 . S
C89 C91 1.339 . S
C89 H116 0.931 . S
C90 C91 1.395 . S
C90 C92 1.320 . S
C91 C89 1.339 . S
C91 C90 1.395 . S
C91 H117 0.929 . S
C92 C90 1.320 . S
C92 C93 1.405 . S
C92 H118 0.930 . S
C93 C88 1.479 . S
C93 C92 1.405 . S
C93 H119 0.931 . S
U94 O95 2.454 . S
U94 O96 2.458 . S
U94 C97 2.984 . S
U94 C98 2.847 . S
U94 C111 2.882 . S
U94 O112 2.441 . S
U94 O113 2.420 . S
U94 O114 2.455 . S
U94 O115 2.449 . S
O95 U94 2.454 . S
O95 C97 1.353 . S
O96 U94 2.458 . S
O96 C97 1.286 . S
C97 U94 2.984 . S
C97 O95 1.353 . S
C97 O96 1.286 . S
C97 C99 1.363 . S
C98 C88 1.465 1_455 S
C98 U94 2.847 . S
C98 O112 1.249 . S
C98 O113 1.202 . S
C99 C97 1.363 . S
C99 C101 1.408 . S
C99 C104 1.342 . S
C100 C101 1.310 . S
C100 C103 1.461 . S
C100 H120 0.932 . S
C101 C99 1.408 . S
C101 C100 1.310 . S
C101 H121 0.930 . S
C102 C103 1.474 . S
C102 C104 1.285 . S
C102 H122 0.929 . S
C103 C100 1.461 . S
C103 C102 1.474 . S
C104 C99 1.342 . S
C104 C102 1.285 . S
C104 H123 0.930 . S
C105 C108 1.424 . S
C105 C110 1.245 . S
C105 C111 1.428 . S
C106 C109 1.260 1_545 S
C106 C110 1.477 . S
C106 H124 0.945 . S
C107 C108 1.384 . S
C107 C109 1.479 1_545 S
C107 H125 0.945 . S
C108 C105 1.424 . S
C108 C107 1.384 . S
C108 H126 0.928 . S
C109 C106 1.260 1_565 S
C109 C107 1.479 1_565 S
C110 C105 1.245 . S
C110 C106 1.477 . S
C110 H127 0.932 . S
C111 U94 2.882 . S
C111 C105 1.428 . S
C111 O114 1.301 . S
C111 O115 1.282 . S
O112 U94 2.441 . S
O112 C98 1.249 . S
O113 U94 2.420 . S
O113 C98 1.202 . S
O114 U94 2.455 . S
O114 C111 1.301 . S
O115 U94 2.449 . S
O115 C111 1.282 . S
H116 C89 0.931 . S
H117 C91 0.929 . S
H118 C92 0.930 . S
H119 C93 0.931 . S
H120 C100 0.932 . S
H121 C101 0.930 . S
H122 C102 0.929 . S
H123 C104 0.930 . S
H124 C106 0.945 . S
H125 C107 0.945 . S
H126 C108 0.928 . S
H127 C110 0.932 . S
C128 C129 1.264 . S
C128 C133 1.479 . S
C128 C138 1.465 . S
C129 C128 1.264 . S
C129 C131 1.339 . S
C129 H156 0.931 . S
C130 C131 1.395 . S
C130 C132 1.320 . S
C131 C129 1.339 . S
C131 C130 1.395 . S
C131 H157 0.929 . S
C132 C130 1.320 . S
C132 C133 1.405 . S
C132 H158 0.930 . S
C133 C128 1.479 . S
C133 C132 1.405 . S
C133 H159 0.931 . S
U134 O135 2.454 . S
U134 O136 2.458 . S
U134 C137 2.984 . S
U134 C138 2.847 . S
U134 C151 2.882 . S
U134 O152 2.441 . S
U134 O153 2.420 . S
U134 O154 2.455 . S
U134 O155 2.449 . S
O135 U134 2.454 . S
O135 C137 1.353 . S
O136 U134 2.458 . S
O136 C137 1.286 . S
C137 U134 2.984 . S
C137 O135 1.353 . S
C137 O136 1.286 . S
C137 C139 1.363 . S
C138 C128 1.465 . S
C138 U134 2.847 . S
C138 O152 1.249 . S
C138 O153 1.202 . S
C139 C137 1.363 . S
C139 C141 1.408 . S
C139 C144 1.342 . S
C140 C141 1.310 . S
C140 C143 1.461 . S
C140 H160 0.932 . S
C141 C139 1.408 . S
C141 C140 1.310 . S
C141 H161 0.930 . S
C142 C143 1.474 . S
C142 C144 1.285 . S
C142 H162 0.929 . S
C143 C140 1.461 . S
C143 C142 1.474 . S
C144 C139 1.342 . S
C144 C142 1.285 . S
C144 H163 0.930 . S
C145 C148 1.424 . S
C145 C150 1.245 . S
C145 C151 1.428 . S
C146 C149 1.260 . S
C146 C150 1.477 . S
C146 H164 0.932 . S
C147 C148 1.384 . S
C147 C149 1.479 . S
C147 H165 0.929 . S
C148 C145 1.424 . S
C148 C147 1.384 . S
C148 H166 0.928 . S
C149 C146 1.260 . S
C149 C147 1.479 . S
C150 C145 1.245 . S
C150 C146 1.477 . S
C150 H167 0.932 . S
C151 U134 2.882 . S
C151 C145 1.428 . S
C151 O154 1.301 . S
C151 O155 1.282 . S
O152 U134 2.441 . S
O152 C138 1.249 . S
O153 U134 2.420 . S
O153 C138 1.202 . S
O154 U134 2.455 . S
O154 C151 1.301 . S
O155 U134 2.449 . S
O155 C151 1.282 . S
H156 C129 0.931 . S
H157 C131 0.929 . S
H158 C132 0.930 . S
H159 C133 0.931 . S
H160 C140 0.932 . S
H161 C141 0.930 . S
H162 C142 0.929 . S
H163 C144 0.930 . S
H164 C146 0.932 . S
H165 C147 0.929 . S
H166 C148 0.928 . S
H167 C150 0.932 . S
C168 C169 1.264 . S
C168 C173 1.479 . S
C168 C178 1.465 . S
C169 C168 1.264 . S
C169 C171 1.339 . S
C169 H196 0.931 . S
C170 C171 1.395 . S
C170 C172 1.320 . S
C171 C169 1.339 . S
C171 C170 1.395 . S
C171 H197 0.929 . S
C172 C170 1.320 . S
C172 C173 1.405 . S
C172 H198 0.930 . S
C173 C168 1.479 . S
C173 C172 1.405 . S
C173 H199 0.931 . S
U174 O175 2.454 . S
U174 O176 2.458 . S
U174 C177 2.984 . S
U174 C178 2.847 . S
U174 C191 2.882 . S
U174 O192 2.441 . S
U174 O193 2.420 . S
U174 O194 2.455 . S
U174 O195 2.449 . S
O175 U174 2.454 . S
O175 C177 1.353 . S
O176 U174 2.458 . S
O176 C177 1.286 . S
C177 U174 2.984 . S
C177 O175 1.353 . S
C177 O176 1.286 . S
C177 C179 1.363 . S
C178 C168 1.465 . S
C178 U174 2.847 . S
C178 O192 1.249 . S
C178 O193 1.202 . S
C179 C177 1.363 . S
C179 C181 1.408 . S
C179 C184 1.342 . S
C180 C181 1.310 . S
C180 C183 1.461 . S
C180 H200 0.932 . S
C181 C179 1.408 . S
C181 C180 1.310 . S
C181 H201 0.930 . S
C182 C183 1.474 . S
C182 C184 1.285 . S
C182 H202 0.929 . S
C183 C180 1.461 . S
C183 C182 1.474 . S
C184 C179 1.342 . S
C184 C182 1.285 . S
C184 H203 0.930 . S
C185 C188 1.424 . S
C185 C190 1.245 . S
C185 C191 1.428 . S
C186 C189 1.260 . S
C186 C190 1.477 . S
C186 H204 0.932 . S
C187 C188 1.384 . S
C187 C189 1.479 . S
C187 H205 0.929 . S
C188 C185 1.424 . S
C188 C187 1.384 . S
C188 H206 0.928 . S
C189 C186 1.260 . S
C189 C187 1.479 . S
C190 C185 1.245 . S
C190 C186 1.477 . S
C190 H207 0.932 . S
C191 U174 2.882 . S
C191 C185 1.428 . S
C191 O194 1.301 . S
C191 O195 1.282 . S
O192 U174 2.441 . S
O192 C178 1.249 . S
O193 U174 2.420 . S
O193 C178 1.202 . S
O194 U174 2.455 . S
O194 C191 1.301 . S
O195 U174 2.449 . S
O195 C191 1.282 . S
H196 C169 0.931 . S
H197 C171 0.929 . S
H198 C172 0.930 . S
H199 C173 0.931 . S
H200 C180 0.932 . S
H201 C181 0.930 . S
H202 C182 0.929 . S
H203 C184 0.930 . S
H204 C186 0.932 . S
H205 C187 0.929 . S
H206 C188 0.928 . S
H207 C190 0.932 . S
C208 C209 1.264 . S
C208 C213 1.479 . S
C208 C218 1.465 . S
C209 C208 1.264 . S
C209 C211 1.339 . S
C209 H236 0.931 . S
C210 C211 1.395 . S
C210 C212 1.320 . S
C211 C209 1.339 . S
C211 C210 1.395 . S
C211 H237 0.929 . S
C212 C210 1.320 . S
C212 C213 1.405 . S
C212 H238 0.930 . S
C213 C208 1.479 . S
C213 C212 1.405 . S
C213 H239 0.931 . S
U214 O215 2.454 . S
U214 O216 2.458 . S
U214 C217 2.984 . S
U214 C218 2.847 . S
U214 C231 2.882 . S
U214 O232 2.441 . S
U214 O233 2.420 . S
U214 O234 2.455 . S
U214 O235 2.449 . S
O215 U214 2.454 . S
O215 C217 1.353 . S
O216 U214 2.458 . S
O216 C217 1.286 . S
C217 U214 2.984 . S
C217 O215 1.353 . S
C217 O216 1.286 . S
C217 C219 1.363 . S
C218 C208 1.465 . S
C218 U214 2.847 . S
C218 O232 1.249 . S
C218 O233 1.202 . S
C219 C217 1.363 . S
C219 C221 1.408 . S
C219 C224 1.342 . S
C220 C221 1.310 . S
C220 C223 1.461 . S
C220 H240 0.932 . S
C221 C219 1.408 . S
C221 C220 1.310 . S
C221 H241 0.930 . S
C222 C223 1.474 . S
C222 C224 1.285 . S
C222 H242 0.929 . S
C223 C220 1.461 . S
C223 C222 1.474 . S
C224 C219 1.342 . S
C224 C222 1.285 . S
C224 H243 0.930 . S
C225 C228 1.424 . S
C225 C230 1.245 . S
C225 C231 1.428 . S
C226 C229 1.260 . S
C226 C230 1.477 . S
C226 H244 0.932 . S
C227 C228 1.384 . S
C227 C229 1.479 . S
C227 H245 0.929 . S
C228 C225 1.424 . S
C228 C227 1.384 . S
C228 H246 0.928 . S
C229 C226 1.260 . S
C229 C227 1.479 . S
C230 C225 1.245 . S
C230 C226 1.477 . S
C230 H247 0.932 . S
C231 U214 2.882 . S
C231 C225 1.428 . S
C231 O234 1.301 . S
C231 O235 1.282 . S
O232 U214 2.441 . S
O232 C218 1.249 . S
O233 U214 2.420 . S
O233 C218 1.202 . S
O234 U214 2.455 . S
O234 C231 1.301 . S
O235 U214 2.449 . S
O235 C231 1.282 . S
H236 C209 0.931 . S
H237 C211 0.929 . S
H238 C212 0.930 . S
H239 C213 0.931 . S
H240 C220 0.932 . S
H241 C221 0.930 . S
H242 C222 0.929 . S
H243 C224 0.930 . S
H244 C226 0.932 . S
H245 C227 0.929 . S
H246 C228 0.928 . S
H247 C230 0.932 . S
C248 C249 1.264 . S
C248 C253 1.479 . S
C248 C258 1.465 . S
C249 C248 1.264 . S
C249 C251 1.339 . S
C249 H276 0.931 . S
C250 C251 1.395 . S
C250 C252 1.320 . S
C251 C249 1.339 . S
C251 C250 1.395 . S
C251 H277 0.929 . S
C252 C250 1.320 . S
C252 C253 1.405 . S
C252 H278 0.930 . S
C253 C248 1.479 . S
C253 C252 1.405 . S
C253 H279 0.931 . S
U254 O255 2.454 . S
U254 O256 2.458 . S
U254 C257 2.984 . S
U254 C258 2.847 . S
U254 C271 2.882 . S
U254 O272 2.441 . S
U254 O273 2.420 . S
U254 O274 2.455 . S
U254 O275 2.449 . S
O255 U254 2.454 . S
O255 C257 1.353 . S
O256 U254 2.458 . S
O256 C257 1.286 . S
C257 U254 2.984 . S
C257 O255 1.353 . S
C257 O256 1.286 . S
C257 C259 1.363 . S
C258 C248 1.465 . S
C258 U254 2.847 . S
C258 O272 1.249 . S
C258 O273 1.202 . S
C259 C257 1.363 . S
C259 C261 1.408 . S
C259 C264 1.342 . S
C260 C261 1.310 . S
C260 C263 1.461 . S
C260 H280 0.932 . S
C261 C259 1.408 . S
C261 C260 1.310 . S
C261 H281 0.930 . S
C262 C263 1.474 . S
C262 C264 1.285 . S
C262 H282 0.929 . S
C263 C260 1.461 . S
C263 C262 1.474 . S
C264 C259 1.342 . S
C264 C262 1.285 . S
C264 H283 0.930 . S
C265 C268 1.424 . S
C265 C270 1.245 . S
C265 C271 1.428 . S
C266 C269 1.260 . S
C266 C270 1.477 . S
C266 H284 0.932 . S
C267 C268 1.384 . S
C267 C269 1.479 . S
C267 H285 0.929 . S
C268 C265 1.424 . S
C268 C267 1.384 . S
C268 H286 0.928 . S
C269 C266 1.260 . S
C269 C267 1.479 . S
C270 C265 1.245 . S
C270 C266 1.477 . S
C270 H287 0.932 . S
C271 U254 2.882 . S
C271 C265 1.428 . S
C271 O274 1.301 . S
C271 O275 1.282 . S
O272 U254 2.441 . S
O272 C258 1.249 . S
O273 U254 2.420 . S
O273 C258 1.202 . S
O274 U254 2.455 . S
O274 C271 1.301 . S
O275 U254 2.449 . S
O275 C271 1.282 . S
H276 C249 0.931 . S
H277 C251 0.929 . S
H278 C252 0.930 . S
H279 C253 0.931 . S
H280 C260 0.932 . S
H281 C261 0.930 . S
H282 C262 0.929 . S
H283 C264 0.930 . S
H284 C266 0.932 . S
H285 C267 0.929 . S
H286 C268 0.928 . S
H287 C270 0.932 . S
C288 C289 1.264 . S
C288 C293 1.479 . S
C288 C298 1.465 . S
C289 C288 1.264 . S
C289 C291 1.339 . S
C289 H316 0.931 . S
C290 C291 1.395 . S
C290 C292 1.320 . S
C291 C289 1.339 . S
C291 C290 1.395 . S
C291 H317 0.929 . S
C292 C290 1.320 . S
C292 C293 1.405 . S
C292 H318 0.930 . S
C293 C288 1.479 . S
C293 C292 1.405 . S
C293 H319 0.931 . S
U294 O295 2.454 . S
U294 O296 2.458 . S
U294 C297 2.984 . S
U294 C298 2.847 . S
U294 C311 2.882 . S
U294 O312 2.441 . S
U294 O313 2.420 . S
U294 O314 2.455 . S
U294 O315 2.449 . S
O295 U294 2.454 . S
O295 C297 1.353 . S
O296 U294 2.458 . S
O296 C297 1.286 . S
C297 U294 2.984 . S
C297 O295 1.353 . S
C297 O296 1.286 . S
C297 C299 1.363 . S
C298 C288 1.465 . S
C298 U294 2.847 . S
C298 O312 1.249 . S
C298 O313 1.202 . S
C299 C297 1.363 . S
C299 C301 1.408 . S
C299 C304 1.342 . S
C300 C301 1.310 . S
C300 C303 1.461 . S
C300 H320 0.932 . S
C301 C299 1.408 . S
C301 C300 1.310 . S
C301 H321 0.930 . S
C302 C303 1.474 . S
C302 C304 1.285 . S
C302 H322 0.929 . S
C303 C300 1.461 . S
C303 C302 1.474 . S
C304 C299 1.342 . S
C304 C302 1.285 . S
C304 H323 0.930 . S
C305 C308 1.424 . S
C305 C310 1.245 . S
C305 C311 1.428 . S
C306 C309 1.260 . S
C306 C310 1.477 . S
C306 H324 0.932 . S
C307 C308 1.384 . S
C307 C309 1.479 . S
C307 H325 0.929 . S
C308 C305 1.424 . S
C308 C307 1.384 . S
C308 H326 0.928 . S
C309 C306 1.260 . S
C309 C307 1.479 . S
C310 C305 1.245 . S
C310 C306 1.477 . S
C310 H327 0.932 . S
C311 U294 2.882 . S
C311 C305 1.428 . S
C311 O314 1.301 . S
C311 O315 1.282 . S
O312 U294 2.441 . S
O312 C298 1.249 . S
O313 U294 2.420 . S
O313 C298 1.202 . S
O314 U294 2.455 . S
O314 C311 1.301 . S
O315 U294 2.449 . S
O315 C311 1.282 . S
H316 C289 0.931 . S
H317 C291 0.929 . S
H318 C292 0.930 . S
H319 C293 0.931 . S
H320 C300 0.932 . S
H321 C301 0.930 . S
H322 C302 0.929 . S
H323 C304 0.930 . S
H324 C306 0.932 . S
H325 C307 0.929 . S
H326 C308 0.928 . S
H327 C310 0.932 . S
C328 C329 1.264 . S
C328 C333 1.479 . S
C328 C338 1.465 . S
C329 C328 1.264 . S
C329 C331 1.339 . S
C329 H356 0.931 . S
C330 C331 1.395 . S
C330 C332 1.320 . S
C331 C329 1.339 . S
C331 C330 1.395 . S
C331 H357 0.929 . S
C332 C330 1.320 . S
C332 C333 1.405 . S
C332 H358 0.930 . S
C333 C328 1.479 . S
C333 C332 1.405 . S
C333 H359 0.931 . S
U334 O335 2.454 . S
U334 O336 2.458 . S
U334 C337 2.984 . S
U334 C338 2.847 . S
U334 C351 2.882 . S
U334 O352 2.441 . S
U334 O353 2.420 . S
U334 O354 2.455 . S
U334 O355 2.449 . S
O335 U334 2.454 . S
O335 C337 1.353 . S
O336 U334 2.458 . S
O336 C337 1.286 . S
C337 U334 2.984 . S
C337 O335 1.353 . S
C337 O336 1.286 . S
C337 C339 1.363 . S
C338 C328 1.465 . S
C338 U334 2.847 . S
C338 O352 1.249 . S
C338 O353 1.202 . S
C339 C337 1.363 . S
C339 C341 1.408 . S
C339 C344 1.342 . S
C340 C341 1.310 . S
C340 C343 1.461 . S
C340 H360 0.932 . S
C341 C339 1.408 . S
C341 C340 1.310 . S
C341 H361 0.930 . S
C342 C343 1.474 . S
C342 C344 1.285 . S
C342 H362 0.929 . S
C343 C340 1.461 . S
C343 C342 1.474 . S
C344 C339 1.342 . S
C344 C342 1.285 . S
C344 H363 0.930 . S
C345 C348 1.424 . S
C345 C350 1.245 . S
C345 C351 1.428 . S
C346 C349 1.260 . S
C346 C350 1.477 . S
C346 H364 0.932 . S
C347 C348 1.384 . S
C347 C349 1.479 . S
C347 H365 0.929 . S
C348 C345 1.424 . S
C348 C347 1.384 . S
C348 H366 0.928 . S
C349 C346 1.260 . S
C349 C347 1.479 . S
C350 C345 1.245 . S
C350 C346 1.477 . S
C350 H367 0.932 . S
C351 U334 2.882 . S
C351 C345 1.428 . S
C351 O354 1.301 . S
C351 O355 1.282 . S
O352 U334 2.441 . S
O352 C338 1.249 . S
O353 U334 2.420 . S
O353 C338 1.202 . S
O354 U334 2.455 . S
O354 C351 1.301 . S
O355 U334 2.449 . S
O355 C351 1.282 . S
H356 C329 0.931 . S
H357 C331 0.929 . S
H358 C332 0.930 . S
H359 C333 0.931 . S
H360 C340 0.932 . S
H361 C341 0.930 . S
H362 C342 0.929 . S
H363 C344 0.930 . S
H364 C346 0.932 . S
H365 C347 0.929 . S
H366 C348 0.928 . S
H367 C350 0.932 . S
C368 C369 1.264 . S
C368 C373 1.479 . S
C368 C378 1.465 . S
C369 C368 1.264 . S
C369 C371 1.339 . S
C369 H396 0.931 . S
C370 C371 1.395 1_545 S
C370 C372 1.320 1_545 S
C371 C369 1.339 . S
C371 C370 1.395 1_565 S
C371 H397 0.929 1_565 S
C372 C370 1.320 1_565 S
C372 C373 1.405 . S
C372 H398 0.930 1_565 S
C373 C368 1.479 . S
C373 C372 1.405 . S
C373 H399 0.931 . S
U374 O375 2.454 . S
U374 O376 2.458 . S
U374 C377 2.984 . S
U374 C378 2.847 . S
U374 C391 2.882 . S
U374 O392 2.441 . S
U374 O393 2.420 . S
U374 O394 2.455 . S
U374 O395 2.449 . S
O375 U374 2.454 . S
O375 C377 1.353 . S
O376 U374 2.458 . S
O376 C377 1.286 . S
C377 U374 2.984 . S
C377 O375 1.353 . S
C377 O376 1.286 . S
C377 C379 1.363 . S
C378 C368 1.465 . S
C378 U374 2.847 . S
C378 O392 1.249 . S
C378 O393 1.202 . S
C379 C377 1.363 . S
C379 C381 1.408 . S
C379 C384 1.342 . S
C380 C381 1.310 . S
C380 C383 1.461 . S
C380 H400 0.932 . S
C381 C379 1.408 . S
C381 C380 1.310 . S
C381 H401 0.930 . S
C382 C383 1.474 . S
C382 C384 1.285 . S
C382 H402 0.929 . S
C383 C380 1.461 . S
C383 C382 1.474 . S
C384 C379 1.342 . S
C384 C382 1.285 . S
C384 H403 0.930 . S
C385 C388 1.424 1_655 S
C385 C390 1.245 1_655 S
C385 C391 1.428 . S
C386 C389 1.260 . S
C386 C390 1.477 . S
C386 H404 0.932 . S
C387 C388 1.384 . S
C387 C389 1.479 . S
C387 H405 0.929 . S
C388 C385 1.424 1_455 S
C388 C387 1.384 . S
C388 H406 0.928 . S
C389 C386 1.260 . S
C389 C387 1.479 . S
C390 C385 1.245 1_455 S
C390 C386 1.477 . S
C390 H407 0.932 1_455 S
C391 U374 2.882 . S
C391 C385 1.428 . S
C391 O394 1.301 . S
C391 O395 1.282 . S
O392 U374 2.441 . S
O392 C378 1.249 . S
O393 U374 2.420 . S
O393 C378 1.202 . S
O394 U374 2.455 . S
O394 C391 1.301 . S
O395 U374 2.449 . S
O395 C391 1.282 . S
H396 C369 0.931 . S
H397 C371 0.929 1_545 S
H398 C372 0.930 1_545 S
H399 C373 0.931 . S
H400 C380 0.932 . S
H401 C381 0.930 . S
H402 C382 0.929 . S
H403 C384 0.930 . S
H404 C386 0.932 . S
H405 C387 0.929 . S
H406 C388 0.928 . S
H407 C390 0.932 1_655 S
H408 C414 0.930 . S
H409 C418 0.930 . S
H410 C423 0.929 . S
H411 C421 0.929 . S
H412 C416 0.929 . S
H413 C422 0.929 . S
C414 H408 0.930 . S
C414 C415 1.367 . S
C414 C422 1.378 . S
C415 C414 1.367 . S
C415 C423 1.433 . S
C416 H412 0.929 . S
C416 C418 1.378 . S
C416 C420 1.350 . S
C417 C420 1.463 . S
C417 C422 1.350 . S
C417 N425 1.427 . S
C418 H409 0.930 . S
C418 C416 1.378 . S
C418 C419 1.367 . S
C419 C418 1.367 . S
C419 C421 1.433 . S
C420 C416 1.350 . S
C420 C417 1.463 . S
C420 N424 1.427 . S
C421 H411 0.929 . S
C421 C419 1.433 . S
C421 N424 1.384 . S
C422 H413 0.929 . S
C422 C414 1.378 . S
C422 C417 1.350 . S
C423 H410 0.929 . S
C423 C415 1.433 . S
C423 N425 1.384 . S
N424 C420 1.427 . S
N424 C421 1.384 . S
N425 C417 1.427 . S
N425 C423 1.384 . S
H426 C432 0.930 . S
H427 C436 0.930 . S
H428 C441 0.929 . S
H429 C439 0.929 . S
H430 C434 0.929 . S
H431 C440 0.929 . S
C432 H426 0.930 . S
C432 C433 1.367 . S
C432 C440 1.378 . S
C433 C432 1.367 . S
C433 C441 1.433 . S
C434 H430 0.929 . S
C434 C436 1.378 . S
C434 C438 1.350 . S
C435 C438 1.463 . S
C435 C440 1.350 . S
C435 N443 1.427 . S
C436 H427 0.930 . S
C436 C434 1.378 . S
C436 C437 1.367 . S
C437 C436 1.367 . S
C437 C439 1.433 . S
C438 C434 1.350 . S
C438 C435 1.463 . S
C438 N442 1.427 . S
C439 H429 0.929 . S
C439 C437 1.433 . S
C439 N442 1.384 . S
C440 H431 0.929 . S
C440 C432 1.378 . S
C440 C435 1.350 . S
C441 H428 0.929 . S
C441 C433 1.433 . S
C441 N443 1.384 . S
N442 C438 1.427 . S
N442 C439 1.384 . S
N443 C435 1.427 . S
N443 C441 1.384 . S
H444 C450 0.930 . S
H445 C454 0.930 . S
H446 C459 0.929 . S
H447 C457 0.929 . S
H448 C452 0.929 . S
H449 C458 0.929 . S
C450 H444 0.930 . S
C450 C451 1.367 . S
C450 C458 1.378 . S
C451 C450 1.367 . S
C451 C459 1.433 . S
C452 H448 0.929 . S
C452 C454 1.378 1_545 S
C452 C456 1.350 . S
C453 C456 1.463 . S
C453 C458 1.350 . S
C453 N461 1.427 . S
C454 H445 0.930 . S
C454 C452 1.378 1_565 S
C454 C455 1.367 . S
C455 C454 1.367 . S
C455 C457 1.433 1_565 S
C456 C452 1.350 . S
C456 C453 1.463 . S
C456 N460 1.427 . S
C457 H447 0.929 . S
C457 C455 1.433 1_545 S
C457 N460 1.384 . S
C458 H449 0.929 . S
C458 C450 1.378 . S
C458 C453 1.350 . S
C459 H446 0.929 . S
C459 C451 1.433 . S
C459 N461 1.384 . S
N460 C456 1.427 . S
N460 C457 1.384 . S
N461 C453 1.427 . S
N461 C459 1.384 . S
H462 C468 0.930 . S
H463 C472 0.930 . S
H464 C477 0.929 . S
H465 C475 0.929 . S
H466 C470 0.929 . S
H467 C476 0.929 . S
C468 H462 0.930 . S
C468 C469 1.367 . S
C468 C476 1.378 . S
C469 C468 1.367 . S
C469 C477 1.433 . S
C470 H466 0.929 . S
C470 C472 1.378 . S
C470 C474 1.350 . S
C471 C474 1.463 . S
C471 C476 1.350 . S
C471 N479 1.427 . S
C472 H463 0.930 . S
C472 C470 1.378 . S
C472 C473 1.367 . S
C473 C472 1.367 . S
C473 C475 1.433 . S
C474 C470 1.350 . S
C474 C471 1.463 . S
C474 N478 1.427 . S
C475 H465 0.929 . S
C475 C473 1.433 . S
C475 N478 1.384 . S
C476 H467 0.929 . S
C476 C468 1.378 . S
C476 C471 1.350 . S
C477 H464 0.929 . S
C477 C469 1.433 . S
C477 N479 1.384 . S
N478 C474 1.427 . S
N478 C475 1.384 . S
N479 C471 1.427 . S
N479 C477 1.384 . S
H480 C486 0.930 . S
H481 C490 0.930 . S
H482 C495 0.929 . S
H483 C493 0.929 . S
H484 C488 0.929 . S
H485 C494 0.929 . S
C486 H480 0.930 . S
C486 C487 1.367 . S
C486 C494 1.378 . S
C487 C486 1.367 . S
C487 C495 1.433 . S
C488 H484 0.929 . S
C488 C490 1.378 . S
C488 C492 1.350 . S
C489 C492 1.463 . S
C489 C494 1.350 . S
C489 N497 1.427 . S
C490 H481 0.930 . S
C490 C488 1.378 . S
C490 C491 1.367 . S
C491 C490 1.367 . S
C491 C493 1.433 . S
C492 C488 1.350 . S
C492 C489 1.463 . S
C492 N496 1.427 . S
C493 H483 0.929 . S
C493 C491 1.433 . S
C493 N496 1.384 . S
C494 H485 0.929 . S
C494 C486 1.378 . S
C494 C489 1.350 . S
C495 H482 0.929 . S
C495 C487 1.433 . S
C495 N497 1.384 . S
N496 C492 1.427 . S
N496 C493 1.384 . S
N497 C489 1.427 . S
N497 C495 1.384 . S
H498 C504 0.930 . S
H499 C508 0.930 . S
H500 C513 0.929 . S
H501 C511 0.929 . S
H502 C506 0.929 . S
H503 C512 0.929 1_455 S
C504 H498 0.930 . S
C504 C505 1.367 . S
C504 C512 1.378 . S
C505 C504 1.367 . S
C505 C513 1.433 . S
C506 H502 0.929 . S
C506 C508 1.378 . S
C506 C510 1.350 . S
C507 C510 1.463 1_655 S
C507 C512 1.350 . S
C507 N515 1.427 . S
C508 H499 0.930 . S
C508 C506 1.378 . S
C508 C509 1.367 . S
C509 C508 1.367 . S
C509 C511 1.433 . S
C510 C506 1.350 . S
C510 C507 1.463 1_455 S
C510 N514 1.427 . S
C511 H501 0.929 . S
C511 C509 1.433 . S
C511 N514 1.384 . S
C512 H503 0.929 1_655 S
C512 C504 1.378 . S
C512 C507 1.350 . S
C513 H500 0.929 . S
C513 C505 1.433 . S
C513 N515 1.384 . S
N514 C510 1.427 . S
N514 C511 1.384 . S
N515 C507 1.427 . S
N515 C513 1.384 . S
H516 C522 0.930 . S
H517 C526 0.930 . S
H518 C531 0.929 . S
H519 C529 0.929 . S
H520 C524 0.929 . S
H521 C530 0.929 . S
C522 H516 0.930 . S
C522 C523 1.367 . S
C522 C530 1.378 . S
C523 C522 1.367 . S
C523 C531 1.433 . S
C524 H520 0.929 . S
C524 C526 1.378 . S
C524 C528 1.350 . S
C525 C528 1.463 . S
C525 C530 1.350 . S
C525 N533 1.427 . S
C526 H517 0.930 . S
C526 C524 1.378 . S
C526 C527 1.367 . S
C527 C526 1.367 . S
C527 C529 1.433 . S
C528 C524 1.350 . S
C528 C525 1.463 . S
C528 N532 1.427 . S
C529 H519 0.929 . S
C529 C527 1.433 . S
C529 N532 1.384 . S
C530 H521 0.929 . S
C530 C522 1.378 . S
C530 C525 1.350 . S
C531 H518 0.929 . S
C531 C523 1.433 . S
C531 N533 1.384 . S
N532 C528 1.427 . S
N532 C529 1.384 . S
N533 C525 1.427 . S
N533 C531 1.384 . S
H534 C540 0.930 . S
H535 C544 0.930 . S
H536 C549 0.929 . S
H537 C547 0.929 . S
H538 C542 0.929 . S
H539 C548 0.929 . S
C540 H534 0.930 . S
C540 C541 1.367 . S
C540 C548 1.378 . S
C541 C540 1.367 . S
C541 C549 1.433 . S
C542 H538 0.929 . S
C542 C544 1.378 . S
C542 C546 1.350 . S
C543 C546 1.463 . S
C543 C548 1.350 . S
C543 N551 1.427 . S
C544 H535 0.930 . S
C544 C542 1.378 . S
C544 C545 1.367 . S
C545 C544 1.367 . S
C545 C547 1.433 . S
C546 C542 1.350 . S
C546 C543 1.463 . S
C546 N550 1.427 . S
C547 H537 0.929 . S
C547 C545 1.433 . S
C547 N550 1.384 . S
C548 H539 0.929 . S
C548 C540 1.378 . S
C548 C543 1.350 . S
C549 H536 0.929 . S
C549 C541 1.433 . S
C549 N551 1.384 . S
N550 C546 1.427 . S
N550 C547 1.384 . S
N551 C543 1.427 . S
N551 C549 1.384 . S
H552 C558 0.930 . S
H553 C562 0.930 . S
H554 C567 0.929 . S
H555 C565 0.929 . S
H556 C560 0.929 . S
H557 C566 0.929 . S
C558 H552 0.930 . S
C558 C559 1.367 . S
C558 C566 1.378 . S
C559 C558 1.367 . S
C559 C567 1.433 . S
C560 H556 0.929 . S
C560 C562 1.378 . S
C560 C564 1.350 . S
C561 C564 1.463 . S
C561 C566 1.350 . S
C561 N569 1.427 . S
C562 H553 0.930 . S
C562 C560 1.378 . S
C562 C563 1.367 . S
C563 C562 1.367 . S
C563 C565 1.433 . S
C564 C560 1.350 . S
C564 C561 1.463 . S
C564 N568 1.427 . S
C565 H555 0.929 . S
C565 C563 1.433 . S
C565 N568 1.384 . S
C566 H557 0.929 . S
C566 C558 1.378 . S
C566 C561 1.350 . S
C567 H554 0.929 . S
C567 C559 1.433 . S
C567 N569 1.384 . S
N568 C564 1.427 . S
N568 C565 1.384 . S
N569 C561 1.427 . S
N569 C567 1.384 . S
H570 C576 0.930 . S
H571 C580 0.930 . S
H572 C585 0.929 . S
H573 C583 0.929 . S
H574 C578 0.929 . S
H575 C584 0.929 . S
C576 H570 0.930 . S
C576 C577 1.367 . S
C576 C584 1.378 . S
C577 C576 1.367 . S
C577 C585 1.433 . S
C578 H574 0.929 . S
C578 C580 1.378 . S
C578 C582 1.350 . S
C579 C582 1.463 . S
C579 C584 1.350 . S
C579 N587 1.427 . S
C580 H571 0.930 . S
C580 C578 1.378 . S
C580 C581 1.367 . S
C581 C580 1.367 . S
C581 C583 1.433 . S
C582 C578 1.350 . S
C582 C579 1.463 . S
C582 N586 1.427 . S
C583 H573 0.929 . S
C583 C581 1.433 . S
C583 N586 1.384 . S
C584 H575 0.929 . S
C584 C576 1.378 . S
C584 C579 1.350 . S
C585 H572 0.929 . S
C585 C577 1.433 . S
C585 N587 1.384 . S
N586 C582 1.427 . S
N586 C583 1.384 . S
N587 C579 1.427 . S
N587 C585 1.384 . S
H588 C594 0.930 . S
H589 C598 0.953 . S
H590 C603 0.929 . S
H591 C601 0.926 1_545 S
H592 C596 0.929 1_554 S
H593 C602 0.929 . S
C594 H588 0.930 . S
C594 C595 1.367 1_556 S
C594 C602 1.378 . S
C595 C594 1.367 1_554 S
C595 C603 1.433 . S
C596 H592 0.929 1_556 S
C596 C598 1.378 1_565 S
C596 C600 1.350 . S
C597 C600 1.463 . S
C597 C602 1.350 . S
C597 N605 1.427 1_556 S
C598 H589 0.953 . S
C598 C596 1.378 1_545 S
C598 C599 1.367 . S
C599 C598 1.367 . S
C599 C601 1.433 1_545 S
C600 C596 1.350 . S
C600 C597 1.463 . S
C600 N604 1.427 . S
C601 H591 0.926 1_565 S
C601 C599 1.433 1_565 S
C601 N604 1.384 . S
C602 H593 0.929 . S
C602 C594 1.378 . S
C602 C597 1.350 . S
C603 H590 0.929 . S
C603 C595 1.433 . S
C603 N605 1.384 . S
N604 C600 1.427 . S
N604 C601 1.384 . S
N605 C597 1.427 1_554 S
N605 C603 1.384 . S
H606 C612 0.930 . S
H607 C616 0.930 . S
H608 C621 0.929 . S
H609 C619 0.929 . S
H610 C614 0.929 . S
H611 C620 0.929 . S
C612 H606 0.930 . S
C612 C613 1.367 . S
C612 C620 1.378 . S
C613 C612 1.367 . S
C613 C621 1.433 . S
C614 H610 0.929 . S
C614 C616 1.378 . S
C614 C618 1.350 . S
C615 C618 1.463 . S
C615 C620 1.350 . S
C615 N623 1.427 . S
C616 H607 0.930 . S
C616 C614 1.378 . S
C616 C617 1.367 . S
C617 C616 1.367 . S
C617 C619 1.433 . S
C618 C614 1.350 . S
C618 C615 1.463 . S
C618 N622 1.427 . S
C619 H609 0.929 . S
C619 C617 1.433 . S
C619 N622 1.384 . S
C620 H611 0.929 . S
C620 C612 1.378 . S
C620 C615 1.350 . S
C621 H608 0.929 . S
C621 C613 1.433 . S
C621 N623 1.384 . S
N622 C618 1.427 . S
N622 C619 1.384 . S
N623 C615 1.427 . S
N623 C621 1.384 . S
H624 C630 0.930 . S
H625 C634 0.930 . S
H626 C639 0.929 . S
H627 C637 0.929 . S
H628 C632 0.929 . S
H629 C638 0.929 . S
C630 H624 0.930 . S
C630 C631 1.367 . S
C630 C638 1.378 . S
C631 C630 1.367 . S
C631 C639 1.433 . S
C632 H628 0.929 . S
C632 C634 1.378 . S
C632 C636 1.350 . S
C633 C636 1.463 . S
C633 C638 1.350 . S
C633 N641 1.427 . S
C634 H625 0.930 . S
C634 C632 1.378 . S
C634 C635 1.367 . S
C635 C634 1.367 . S
C635 C637 1.433 . S
C636 C632 1.350 . S
C636 C633 1.463 . S
C636 N640 1.427 . S
C637 H627 0.929 . S
C637 C635 1.433 . S
C637 N640 1.384 . S
C638 H629 0.929 . S
C638 C630 1.378 . S
C638 C633 1.350 . S
C639 H626 0.929 . S
C639 C631 1.433 . S
C639 N641 1.384 . S
N640 C636 1.427 . S
N640 C637 1.384 . S
N641 C633 1.427 . S
N641 C639 1.384 . S
H642 C648 0.930 . S
H643 C652 0.930 . S
H644 C657 0.929 . S
H645 C655 0.929 . S
H646 C650 0.929 . S
H647 C656 0.929 . S
C648 H642 0.930 . S
C648 C649 1.367 . S
C648 C656 1.378 . S
C649 C648 1.367 . S
C649 C657 1.433 . S
C650 H646 0.929 . S
C650 C652 1.378 . S
C650 C654 1.350 . S
C651 C654 1.427 1_455 S
C651 C656 1.373 . S
C651 N659 1.438 . S
C652 H643 0.930 . S
C652 C650 1.378 . S
C652 C653 1.367 . S
C653 C652 1.367 . S
C653 C655 1.433 . S
C654 C650 1.350 . S
C654 C651 1.427 1_655 S
C654 N658 1.427 . S
C655 H645 0.929 . S
C655 C653 1.433 . S
C655 N658 1.384 . S
C656 H647 0.929 . S
C656 C648 1.378 . S
C656 C651 1.373 . S
C657 H644 0.929 . S
C657 C649 1.433 . S
C657 N659 1.384 . S
N658 C654 1.427 . S
N658 C655 1.384 . S
N659 C651 1.438 . S
N659 C657 1.384 . S
H660 C666 0.930 . S
H661 C670 0.930 . S
H662 C675 0.929 . S
H663 C673 0.929 . S
H664 C668 0.929 . S
H665 C674 0.929 . S
C666 H660 0.930 . S
C666 C667 1.367 . S
C666 C674 1.378 . S
C667 C666 1.367 . S
C667 C675 1.433 . S
C668 H664 0.929 . S
C668 C670 1.378 . S
C668 C672 1.350 . S
C669 C672 1.463 . S
C669 C674 1.350 . S
C669 N677 1.427 . S
C670 H661 0.930 . S
C670 C668 1.378 . S
C670 C671 1.367 . S
C671 C670 1.367 . S
C671 C673 1.433 . S
C672 C668 1.350 . S
C672 C669 1.463 . S
C672 N676 1.427 . S
C673 H663 0.929 . S
C673 C671 1.433 . S
C673 N676 1.384 . S
C674 H665 0.929 . S
C674 C666 1.378 . S
C674 C669 1.350 . S
C675 H662 0.929 . S
C675 C667 1.433 . S
C675 N677 1.384 . S
N676 C672 1.427 . S
N676 C673 1.384 . S
N677 C669 1.427 . S
N677 C675 1.384 . S
H678 C684 0.930 . S
H679 C688 0.930 . S
H680 C693 0.929 . S
H681 C691 0.929 . S
H682 C686 0.929 . S
H683 C692 0.929 . S
C684 H678 0.930 . S
C684 C685 1.367 . S
C684 C692 1.378 . S
C685 C684 1.367 . S
C685 C693 1.433 . S
C686 H682 0.929 . S
C686 C688 1.378 . S
C686 C690 1.350 . S
C687 C690 1.463 . S
C687 C692 1.350 . S
C687 N695 1.427 . S
C688 H679 0.930 . S
C688 C686 1.378 . S
C688 C689 1.367 . S
C689 C688 1.367 . S
C689 C691 1.433 . S
C690 C686 1.350 . S
C690 C687 1.463 . S
C690 N694 1.427 . S
C691 H681 0.929 . S
C691 C689 1.433 . S
C691 N694 1.384 . S
C692 H683 0.929 . S
C692 C684 1.378 . S
C692 C687 1.350 . S
C693 H680 0.929 . S
C693 C685 1.433 . S
C693 N695 1.384 . S
N694 C690 1.427 . S
N694 C691 1.384 . S
N695 C687 1.427 . S
N695 C693 1.384 . S
H696 C702 0.930 . S
H697 C706 0.930 . S
H698 C711 0.929 . S
H699 C709 0.929 . S
H700 C704 0.929 . S
H701 C710 0.929 . S
C702 H696 0.930 . S
C702 C703 1.367 . S
C702 C710 1.378 . S
C703 C702 1.367 . S
C703 C711 1.433 . S
C704 H700 0.929 . S
C704 C706 1.378 . S
C704 C708 1.350 . S
C705 C708 1.463 . S
C705 C710 1.350 . S
C705 N713 1.427 . S
C706 H697 0.930 . S
C706 C704 1.378 . S
C706 C707 1.367 . S
C707 C706 1.367 . S
C707 C709 1.433 . S
C708 C704 1.350 . S
C708 C705 1.463 . S
C708 N712 1.427 . S
C709 H699 0.929 . S
C709 C707 1.433 . S
C709 N712 1.384 . S
C710 H701 0.929 . S
C710 C702 1.378 . S
C710 C705 1.350 . S
C711 H698 0.929 . S
C711 C703 1.433 . S
C711 N713 1.384 . S
N712 C708 1.427 . S
N712 C709 1.384 . S
N713 C705 1.427 . S
N713 C711 1.384 . S
H714 C720 0.930 . S
H715 C724 0.930 . S
H716 C729 0.929 . S
H717 C727 0.929 . S
H718 C722 0.929 . S
H719 C728 0.929 . S
C720 H714 0.930 . S
C720 C721 1.367 . S
C720 C728 1.378 . S
C721 C720 1.367 . S
C721 C729 1.433 . S
C722 H718 0.929 . S
C722 C724 1.378 . S
C722 C726 1.350 . S
C723 C726 1.463 . S
C723 C728 1.350 . S
C723 N731 1.427 . S
C724 H715 0.930 . S
C724 C722 1.378 . S
C724 C725 1.367 . S
C725 C724 1.367 . S
C725 C727 1.433 . S
C726 C722 1.350 . S
C726 C723 1.463 . S
C726 N730 1.427 . S
C727 H717 0.929 . S
C727 C725 1.433 . S
C727 N730 1.384 . S
C728 H719 0.929 . S
C728 C720 1.378 . S
C728 C723 1.350 . S
C729 H716 0.929 . S
C729 C721 1.433 . S
C729 N731 1.384 . S
N730 C726 1.427 . S
N730 C727 1.384 . S
N731 C723 1.427 . S
N731 C729 1.384 . S
H732 C738 0.930 . S
H733 C742 0.930 . S
H734 C747 0.929 . S
H735 C745 0.929 . S
H736 C740 0.929 . S
H737 C746 0.929 . S
C738 H732 0.930 . S
C738 C739 1.367 . S
C738 C746 1.378 . S
C739 C738 1.367 . S
C739 C747 1.433 . S
C740 H736 0.929 . S
C740 C742 1.378 . S
C740 C744 1.350 . S
C741 C744 1.463 . S
C741 C746 1.350 . S
C741 N749 1.427 . S
C742 H733 0.930 . S
C742 C740 1.378 . S
C742 C743 1.367 . S
C743 C742 1.367 . S
C743 C745 1.433 . S
C744 C740 1.350 . S
C744 C741 1.463 . S
C744 N748 1.427 . S
C745 H735 0.929 . S
C745 C743 1.433 . S
C745 N748 1.384 . S
C746 H737 0.929 . S
C746 C738 1.378 . S
C746 C741 1.350 . S
C747 H734 0.929 . S
C747 C739 1.433 . S
C747 N749 1.384 . S
N748 C744 1.427 . S
N748 C745 1.384 . S
N749 C741 1.427 . S
N749 C747 1.384 . S
H750 C756 0.930 . S
H751 C760 0.930 . S
H752 C765 0.929 . S
H753 C763 0.929 . S
H754 C758 0.929 . S
H755 C764 0.929 . S
C756 H750 0.930 . S
C756 C757 1.367 . S
C756 C764 1.378 . S
C757 C756 1.367 . S
C757 C765 1.433 . S
C758 H754 0.929 . S
C758 C760 1.378 . S
C758 C762 1.350 . S
C759 C762 1.463 . S
C759 C764 1.350 . S
C759 N767 1.427 . S
C760 H751 0.930 . S
C760 C758 1.378 . S
C760 C761 1.367 . S
C761 C760 1.367 . S
C761 C763 1.433 . S
C762 C758 1.350 . S
C762 C759 1.463 . S
C762 N766 1.427 . S
C763 H753 0.929 . S
C763 C761 1.433 . S
C763 N766 1.384 . S
C764 H755 0.929 . S
C764 C756 1.378 . S
C764 C759 1.350 . S
C765 H752 0.929 . S
C765 C757 1.433 . S
C765 N767 1.384 . S
N766 C762 1.427 . S
N766 C763 1.384 . S
N767 C759 1.427 . S
N767 C765 1.384 . S
H768 C774 0.930 . S
H769 C778 0.930 . S
H770 C783 0.929 . S
H771 C781 0.929 . S
H772 C776 0.929 . S
H773 C782 0.929 . S
C774 H768 0.930 . S
C774 C775 1.367 . S
C774 C782 1.378 . S
C775 C774 1.367 . S
C775 C783 1.433 . S
C776 H772 0.929 . S
C776 C778 1.378 . S
C776 C780 1.350 . S
C777 C780 1.463 . S
C777 C782 1.350 . S
C777 N785 1.427 . S
C778 H769 0.930 . S
C778 C776 1.378 . S
C778 C779 1.367 . S
C779 C778 1.367 . S
C779 C781 1.433 . S
C780 C776 1.350 . S
C780 C777 1.463 . S
C780 N784 1.427 . S
C781 H771 0.929 . S
C781 C779 1.433 . S
C781 N784 1.384 . S
C782 H773 0.929 . S
C782 C774 1.378 . S
C782 C777 1.350 . S
C783 H770 0.929 . S
C783 C775 1.433 . S
C783 N785 1.384 . S
N784 C780 1.427 . S
N784 C781 1.384 . S
N785 C777 1.427 . S
N785 C783 1.384 . S
H786 C792 0.930 . S
H787 C796 0.930 . S
H788 C801 0.929 . S
H789 C799 0.929 . S
H790 C794 0.929 . S
H791 C800 0.929 . S
C792 H786 0.930 . S
C792 C793 1.367 . S
C792 C800 1.378 . S
C793 C792 1.367 . S
C793 C801 1.433 . S
C794 H790 0.929 . S
C794 C796 1.378 . S
C794 C798 1.350 . S
C795 C798 1.463 . S
C795 C800 1.350 . S
C795 N803 1.427 . S
C796 H787 0.930 . S
C796 C794 1.378 . S
C796 C797 1.367 . S
C797 C796 1.367 . S
C797 C799 1.433 . S
C798 C794 1.350 . S
C798 C795 1.463 . S
C798 N802 1.427 . S
C799 H789 0.929 . S
C799 C797 1.433 . S
C799 N802 1.384 . S
C800 H791 0.929 . S
C800 C792 1.378 . S
C800 C795 1.350 . S
C801 H788 0.929 . S
C801 C793 1.433 . S
C801 N803 1.384 . S
N802 C798 1.427 . S
N802 C799 1.384 . S
N803 C795 1.427 . S
N803 C801 1.384 . S
H804 C810 0.930 . S
H805 C814 0.930 . S
H806 C819 0.929 . S
H807 C817 0.929 . S
H808 C812 0.929 . S
H809 C818 0.929 . S
C810 H804 0.930 . S
C810 C811 1.367 . S
C810 C818 1.378 . S
C811 C810 1.367 . S
C811 C819 1.433 . S
C812 H808 0.929 . S
C812 C814 1.378 . S
C812 C816 1.350 . S
C813 C816 1.463 . S
C813 C818 1.350 . S
C813 N821 1.427 . S
C814 H805 0.930 . S
C814 C812 1.378 . S
C814 C815 1.367 . S
C815 C814 1.367 . S
C815 C817 1.433 . S
C816 C812 1.350 . S
C816 C813 1.463 . S
C816 N820 1.427 . S
C817 H807 0.929 . S
C817 C815 1.433 . S
C817 N820 1.384 . S
C818 H809 0.929 . S
C818 C810 1.378 . S
C818 C813 1.350 . S
C819 H806 0.929 . S
C819 C811 1.433 . S
C819 N821 1.384 . S
N820 C816 1.427 . S
N820 C817 1.384 . S
N821 C813 1.427 . S
N821 C819 1.384 . S
H822 C828 0.930 . S
H823 C832 0.930 . S
H824 C837 0.929 . S
H825 C835 0.929 . S
H826 C830 0.929 . S
H827 C836 0.929 1_554 S
C828 H822 0.930 . S
C828 C829 1.367 . S
C828 C836 1.378 1_554 S
C829 C828 1.367 . S
C829 C837 1.433 1_554 S
C830 H826 0.929 . S
C830 C832 1.378 . S
C830 C834 1.350 . S
C831 C834 1.463 . S
C831 C836 1.350 . S
C831 N839 1.427 . S
C832 H823 0.930 . S
C832 C830 1.378 . S
C832 C833 1.367 . S
C833 C832 1.367 . S
C833 C835 1.433 . S
C834 C830 1.350 . S
C834 C831 1.463 . S
C834 N838 1.427 . S
C835 H825 0.929 . S
C835 C833 1.433 . S
C835 N838 1.384 . S
C836 H827 0.929 1_556 S
C836 C828 1.378 1_556 S
C836 C831 1.350 . S
C837 H824 0.929 . S
C837 C829 1.433 1_556 S
C837 N839 1.384 . S
N838 C834 1.427 . S
N838 C835 1.384 . S
N839 C831 1.427 . S
N839 C837 1.384 . S
C415 C8 1.727 . S
C419 C109 1.572 . S
C433 C31 1.693 . S
C437 C149 1.483 . S
C451 C53 1.929 . S
C455 C170 1.772 . S
C473 C229 1.502 . S
C469 C74 1.492 . S
C491 C269 1.560 . S
C487 C26 1.708 . S
C505 C48 1.482 . S
C509 C290 1.439 . S
C523 C71 1.973 . S
C527 C330 1.825 . S
C541 C5 1.700 . S
C545 C389 1.475 . S
C559 C50 1.675 . S
C563 C370 1.533 . S
C581 C250 1.443 . S
C577 C70 1.615 . S
C599 C309 1.777 . S
C595 C4 1.989 . S
C613 C28 1.486 . S
C617 C349 1.416 . S
C635 C130 1.540 . S
C631 C73 1.653 . S
C649 C7 1.558 . S
C653 C189 1.467 . S
C671 C210 1.874 . S
C667 C30 1.938 . S
C689 C90 1.477 . S
C685 C52 1.632 . S
C707 C343 1.558 . S
C703 C9 1.629 . S
C725 C383 1.440 . S
C721 C29 1.463 . S
C739 C51 1.404 . S
C743 C263 1.384 . S
C761 C303 1.567 . S
C757 C75 1.657 . S
C779 C183 1.569 . S
C775 C27 1.643 . S
C793 C49 1.604 . S
C797 C223 1.530 . S
C815 C103 1.410 . S
C811 C72 1.431 . S
C833 C143 1.420 . S
C829 C6 1.445 . S
