# Generated by pormake.
# Topology ant, (3,6)-cn, num edge types: 1
# Building blocks:
#     Node 0, Type 0, BuildingBlock: WUSLED_clean_sbu_0, # of connection points: 3
#     Node 1, Type 0, BuildingBlock: WUSLED_clean_sbu_0, # of connection points: 3
#     Node 2, Type 0, BuildingBlock: WUSLED_clean_sbu_0, # of connection points: 3
#     Node 3, Type 0, BuildingBlock: WUSLED_clean_sbu_0, # of connection points: 3
#     Node 4, Type 0, BuildingBlock: WUSLED_clean_sbu_0, # of connection points: 3
#     Node 5, Type 0, BuildingBlock: WUSLED_clean_sbu_0, # of connection points: 3
#     Node 6, Type 0, BuildingBlock: WUSLED_clean_sbu_0, # of connection points: 3
#     Node 7, Type 0, BuildingBlock: WUSLED_clean_sbu_0, # of connection points: 3
#     Node 8, Type 1, BuildingBlock: MIDCAF_clean_sbu_0, # of connection points: 6
#     Node 9, Type 1, BuildingBlock: MIDCAF_clean_sbu_0, # of connection points: 6
#     Node 10, Type 1, BuildingBlock: MIDCAF_clean_sbu_0, # of connection points: 6
#     Node 11, Type 1, BuildingBlock: MIDCAF_clean_sbu_0, # of connection points: 6
#     Edge 12, Type (0, 1), BuildingBlock: ZUJKAS_clean_linker_0, # of connection points: 2
#     Edge 13, Type (0, 1), BuildingBlock: ZUJKAS_clean_linker_0, # of connection points: 2
#     Edge 14, Type (0, 1), BuildingBlock: ZUJKAS_clean_linker_0, # of connection points: 2
#     Edge 15, Type (0, 1), BuildingBlock: ZUJKAS_clean_linker_0, # of connection points: 2
#     Edge 16, Type (0, 1), BuildingBlock: ZUJKAS_clean_linker_0, # of connection points: 2
#     Edge 17, Type (0, 1), BuildingBlock: ZUJKAS_clean_linker_0, # of connection points: 2
#     Edge 18, Type (0, 1), BuildingBlock: ZUJKAS_clean_linker_0, # of connection points: 2
#     Edge 19, Type (0, 1), BuildingBlock: ZUJKAS_clean_linker_0, # of connection points: 2
#     Edge 20, Type (0, 1), BuildingBlock: ZUJKAS_clean_linker_0, # of connection points: 2
#     Edge 21, Type (0, 1), BuildingBlock: ZUJKAS_clean_linker_0, # of connection points: 2
#     Edge 22, Type (0, 1), BuildingBlock: ZUJKAS_clean_linker_0, # of connection points: 2
#     Edge 23, Type (0, 1), BuildingBlock: ZUJKAS_clean_linker_0, # of connection points: 2
#     Edge 24, Type (0, 1), BuildingBlock: ZUJKAS_clean_linker_0, # of connection points: 2
#     Edge 25, Type (0, 1), BuildingBlock: ZUJKAS_clean_linker_0, # of connection points: 2
#     Edge 26, Type (0, 1), BuildingBlock: ZUJKAS_clean_linker_0, # of connection points: 2
#     Edge 27, Type (0, 1), BuildingBlock: ZUJKAS_clean_linker_0, # of connection points: 2
#     Edge 28, Type (0, 1), BuildingBlock: ZUJKAS_clean_linker_0, # of connection points: 2
#     Edge 29, Type (0, 1), BuildingBlock: ZUJKAS_clean_linker_0, # of connection points: 2
#     Edge 30, Type (0, 1), BuildingBlock: ZUJKAS_clean_linker_0, # of connection points: 2
#     Edge 31, Type (0, 1), BuildingBlock: ZUJKAS_clean_linker_0, # of connection points: 2
#     Edge 32, Type (0, 1), BuildingBlock: ZUJKAS_clean_linker_0, # of connection points: 2
#     Edge 33, Type (0, 1), BuildingBlock: ZUJKAS_clean_linker_0, # of connection points: 2
#     Edge 34, Type (0, 1), BuildingBlock: ZUJKAS_clean_linker_0, # of connection points: 2
#     Edge 35, Type (0, 1), BuildingBlock: ZUJKAS_clean_linker_0, # of connection points: 2
# Relax obj value: 0.097
# Max RMSD: 0.155
# Mean RMSD: 0.099
data_MOF--net-ant--node1-WUSLED_clean_sbu_0--node2-MIDCAF_clean_sbu_0--edge1-ZUJKAS_clean_linker_0
_symmetry_space_group_name_H-M    P1
_symmetry_Int_Tables_number       1
_symmetry_cell_setting            triclinic
loop_
_symmetry_equiv_pos_as_xyz
'x, y, z'
_cell_length_a     44.819626
_cell_length_b     44.525722
_cell_length_c     121.61022
_cell_angle_alpha  89.899431
_cell_angle_beta   94.116956
_cell_angle_gamma 89.930602
loop_
_atom_site_label
_atom_site_type_symbol
_atom_site_fract_x
_atom_site_fract_y
_atom_site_fract_z
_atom_type_partial_charge
C0 C 0.20298 0.18536 0.09185 0.0
C1 C 0.19428 0.16093 0.08509 0.0
C2 C 0.2116 0.12569 0.09958 0.0
C3 C 0.19844 0.13146 0.08891 0.0
C4 C 0.22036 0.15034 0.10632 0.0
C5 C 0.21609 0.17987 0.10248 0.0
U6 U 0.18661 0.23745 0.06772 0.0
O7 O 0.1584 0.27773 0.06534 0.0
O8 O 0.20648 0.28049 0.06298 0.0
C9 C 0.18096 0.29503 0.0631 0.0
C10 C 0.1989 0.2164 0.08771 0.0
C11 C 0.18192 0.32557 0.06786 0.0
C12 C 0.16989 0.36198 0.08182 0.0
C13 C 0.17119 0.33211 0.07816 0.0
C14 C 0.19054 0.37889 0.06503 0.0
C15 C 0.1791 0.38579 0.0752 0.0
C16 C 0.19192 0.34917 0.06142 0.0
C17 C 0.17417 0.19851 0.03953 0.0
C18 C 0.15556 0.22297 0.02251 0.0
C19 C 0.17599 0.17262 0.02203 0.0
C20 C 0.18153 0.17315 0.03348 0.0
C21 C 0.16287 0.19749 0.01638 0.0
C22 C 0.16122 0.2235 0.03399 0.0
C23 C 0.18034 0.1983 0.05157 0.0
O24 O 0.21957 0.22585 0.08139 0.0
O25 O 0.17163 0.22319 0.08376 0.0
O26 O 0.15824 0.20676 0.0574 0.0
O27 O 0.20631 0.20945 0.0552 0.0
H28 H 0.18419 0.16467 0.07683 0.0
H29 H 0.19093 0.1132 0.08354 0.0
H30 H 0.23091 0.14684 0.11451 0.0
H31 H 0.22315 0.19842 0.1078 0.0
H32 H 0.16083 0.36649 0.08967 0.0
H33 H 0.16325 0.31428 0.08327 0.0
H34 H 0.19834 0.39653 0.05981 0.0
H35 H 0.20025 0.34466 0.05344 0.0
H36 H 0.14516 0.24239 0.01846 0.0
H37 H 0.18242 0.15286 0.01759 0.0
H38 H 0.19171 0.15373 0.03763 0.0
H39 H 0.15544 0.24332 0.03853 0.0
C40 C 0.17604 0.80217 0.3377 0.0
C41 C 0.19629 0.81022 0.32992 0.0
C42 C 0.23781 0.8077 0.34404 0.0
C43 C 0.22682 0.81305 0.33306 0.0
C44 C 0.21731 0.79967 0.3518 0.0
C45 C 0.18674 0.79696 0.34865 0.0
U46 U 0.1132 0.79386 0.31526 0.0
O47 O 0.07305 0.76537 0.31409 0.0
O48 O 0.06842 0.81445 0.31315 0.0
C49 C 0.05463 0.78843 0.31342 0.0
C50 C 0.14389 0.79879 0.3344 0.0
C51 C 0.02751 0.78694 0.31971 0.0
C52 C 0.99288 0.75862 0.33031 0.0
C53 C 0.02084 0.76147 0.32594 0.0
C54 C 0.97808 0.80697 0.3226 0.0
C55 C 0.97094 0.78111 0.32852 0.0
C56 C 1.00595 0.80978 0.31822 0.0
C57 C 0.13273 0.79204 0.28526 0.0
C58 C 0.097 0.80044 0.26952 0.0
C59 C 0.14435 0.77605 0.26697 0.0
C60 C 0.15232 0.77864 0.27825 0.0
C61 C 0.11662 0.78696 0.26247 0.0
C62 C 0.1049 0.8028 0.28084 0.0
C63 C 0.14158 0.79426 0.29713 0.0
O64 O 0.13128 0.82177 0.32908 0.0
O65 O 0.13612 0.7728 0.32996 0.0
O66 O 0.13765 0.76979 0.30289 0.0
O67 O 0.13328 0.81884 0.30205 0.0
H68 H 0.18848 0.8143 0.32141 0.0
H69 H 0.24178 0.81966 0.32689 0.0
H70 H 0.22492 0.79493 0.36028 0.0
H71 H 0.17146 0.79056 0.35475 0.0
H72 H 0.98828 0.73859 0.33495 0.0
H73 H 0.03683 0.7433 0.32717 0.0
H74 H 0.96167 0.82456 0.32091 0.0
H75 H 0.01022 0.8294 0.31329 0.0
H76 H 0.07538 0.80879 0.26631 0.0
H77 H 0.1601 0.76587 0.26174 0.0
H78 H 0.17386 0.77018 0.28151 0.0
H79 H 0.08929 0.81297 0.28613 0.0
C80 C 0.69778 0.67832 0.59215 0.0
C81 C 0.68529 0.65404 0.5861 0.0
C82 C 0.70925 0.61857 0.59927 0.0
C83 C 0.6908 0.62454 0.58964 0.0
C84 C 0.7217 0.64305 0.60533 0.0
C85 C 0.716 0.67263 0.60179 0.0
U86 U 0.67826 0.73142 0.56851 0.0
O87 O 0.64912 0.77119 0.56683 0.0
O88 O 0.69678 0.77521 0.56402 0.0
C89 C 0.67124 0.78935 0.56484 0.0
C90 C 0.6927 0.7094 0.58821 0.0
C91 C 0.67234 0.81895 0.5705 0.0
C92 C 0.64701 0.85968 0.5795 0.0
C93 C 0.64736 0.83013 0.57558 0.0
C94 C 0.69682 0.86741 0.57359 0.0
C95 C 0.67156 0.87886 0.57841 0.0
C96 C 0.69714 0.8379 0.56965 0.0
C97 C 0.66382 0.69443 0.54005 0.0
C98 C 0.66367 0.72012 0.5224 0.0
C99 C 0.64711 0.66842 0.52318 0.0
C100 C 0.65259 0.66863 0.53464 0.0
C101 C 0.65291 0.69405 0.51691 0.0
C102 C 0.669 0.72034 0.53388 0.0
C103 C 0.67099 0.69341 0.55204 0.0
O104 O 0.71259 0.71956 0.5817 0.0
O105 O 0.66503 0.71588 0.58464 0.0
O106 O 0.64931 0.70107 0.5582 0.0
O107 O 0.69708 0.70462 0.55553 0.0
H108 H 0.67129 0.6579 0.57859 0.0
H109 H 0.68036 0.60642 0.58486 0.0
H110 H 0.73629 0.63938 0.61269 0.0
H111 H 0.72607 0.69106 0.60652 0.0
H112 H 0.62734 0.86761 0.58329 0.0
H113 H 0.62768 0.81635 0.57627 0.0
H114 H 0.71597 0.88162 0.57247 0.0
H115 H 0.7165 0.83026 0.56559 0.0
H116 H 0.66798 0.74034 0.51782 0.0
H117 H 0.63913 0.64791 0.51921 0.0
H118 H 0.64851 0.64842 0.53928 0.0
H119 H 0.67752 0.74056 0.53793 0.0
C120 C 0.67551 0.29905 0.8386 0.0
C121 C 0.69507 0.31142 0.8313 0.0
C122 C 0.73713 0.30552 0.84504 0.0
C123 C 0.7255 0.31475 0.8345 0.0
C124 C 0.71731 0.29328 0.85234 0.0
C125 C 0.68682 0.29011 0.84914 0.0
U126 U 0.61446 0.28961 0.8157 0.0
O127 O 0.57602 0.25875 0.8138 0.0
O128 O 0.56875 0.30757 0.81333 0.0
C129 C 0.55644 0.28078 0.81288 0.0
C130 C 0.64363 0.29441 0.83511 0.0
C131 C 0.52881 0.27704 0.81856 0.0
C132 C 0.49984 0.28095 0.83466 0.0
C133 C 0.52728 0.28316 0.82983 0.0
C134 C 0.47561 0.2662 0.81705 0.0
C135 C 0.47361 0.27284 0.82827 0.0
C136 C 0.50291 0.26828 0.81227 0.0
C137 C 0.63493 0.29149 0.78598 0.0
C138 C 0.60261 0.27171 0.77078 0.0
C139 C 0.64283 0.30582 0.76713 0.0
C140 C 0.65089 0.30763 0.77844 0.0
C141 C 0.61874 0.28765 0.76318 0.0
C142 C 0.61051 0.27376 0.78209 0.0
C143 C 0.64378 0.29352 0.79785 0.0
O144 O 0.63004 0.31717 0.82997 0.0
O145 O 0.63735 0.26844 0.83037 0.0
O146 O 0.64156 0.26849 0.80349 0.0
O147 O 0.63361 0.31712 0.80287 0.0
H148 H 0.68683 0.31834 0.82309 0.0
H149 H 0.73989 0.32466 0.8287 0.0
H150 H 0.72545 0.28549 0.86045 0.0
H151 H 0.67212 0.28028 0.85486 0.0
H152 H 0.49899 0.28633 0.84332 0.0
H153 H 0.54711 0.29003 0.8348 0.0
H154 H 0.45601 0.25937 0.81194 0.0
H155 H 0.5037 0.26341 0.80357 0.0
H156 H 0.58378 0.25778 0.76799 0.0
H157 H 0.65585 0.31812 0.76146 0.0
H158 H 0.66971 0.32152 0.78129 0.0
H159 H 0.59763 0.2614 0.78779 0.0
C160 C 0.08881 0.81408 0.91808 0.0
C161 C 0.10136 0.83144 0.92686 0.0
C162 C 0.09416 0.87696 0.91582 0.0
C163 C 0.10414 0.86258 0.92572 0.0
C164 C 0.08157 0.85941 0.90706 0.0
C165 C 0.07897 0.82826 0.90818 0.0
U166 U 0.08624 0.74508 0.93629 0.0
O167 O 0.05678 0.70555 0.9354 0.0
O168 O 0.10531 0.69984 0.93478 0.0
C169 C 0.07892 0.6868 0.93403 0.0
C170 C 0.08536 0.78137 0.91924 0.0
C171 C 0.07396 0.66309 0.92555 0.0
C172 C 0.04011 0.63152 0.91403 0.0
C173 C 0.04516 0.65684 0.92073 0.0
C174 C 0.09264 0.61872 0.91657 0.0
C175 C 0.0637 0.61184 0.91204 0.0
C176 C 0.09767 0.64394 0.92326 0.0
C177 C 0.09675 0.75485 0.96739 0.0
C178 C 0.09401 0.71246 0.9799 0.0
C179 C 0.10502 0.76224 0.98712 0.0
C180 C 0.10322 0.7738 0.97641 0.0
C181 C 0.10032 0.73145 0.98901 0.0
C182 C 0.09222 0.72408 0.96917 0.0
C183 C 0.09484 0.76745 0.9562 0.0
O184 O 0.10946 0.76682 0.92308 0.0
O185 O 0.06103 0.77275 0.92378 0.0
O186 O 0.06837 0.76578 0.95084 0.0
O187 O 0.11682 0.76004 0.95015 0.0
H188 H 0.10886 0.8209 0.93461 0.0
H189 H 0.11361 0.87547 0.93267 0.0
H190 H 0.07398 0.86974 0.89928 0.0
H191 H 0.06919 0.81523 0.90132 0.0
H192 H 0.0176 0.62704 0.91059 0.0
H193 H 0.02629 0.67091 0.92239 0.0
H194 H 0.11125 0.60384 0.91537 0.0
H195 H 0.12 0.64778 0.92701 0.0
H196 H 0.09005 0.68872 0.98107 0.0
H197 H 0.11046 0.77741 0.99392 0.0
H198 H 0.10693 0.79757 0.97516 0.0
H199 H 0.08721 0.70914 0.96226 0.0
C200 C 0.60103 0.80496 0.16418 0.0
C201 C 0.58059 0.81597 0.17143 0.0
C202 C 0.53938 0.80866 0.15748 0.0
C203 C 0.5501 0.81794 0.1681 0.0
C204 C 0.56001 0.79778 0.15024 0.0
C205 C 0.59054 0.796 0.15356 0.0
U206 U 0.66242 0.79598 0.1871 0.0
O207 O 0.70277 0.7677 0.18851 0.0
O208 O 0.70693 0.81678 0.18984 0.0
C209 C 0.72093 0.79085 0.18965 0.0
C210 C 0.63306 0.80178 0.16775 0.0
C211 C 0.74859 0.78995 0.18377 0.0
C212 C 0.7789 0.77013 0.16961 0.0
C213 C 0.75121 0.77266 0.17423 0.0
C214 C 0.80136 0.80255 0.18387 0.0
C215 C 0.8044 0.78483 0.17445 0.0
C216 C 0.77379 0.80505 0.18845 0.0
C217 C 0.64125 0.79272 0.21698 0.0
C218 C 0.65527 0.76239 0.23323 0.0
C219 C 0.64847 0.81602 0.23508 0.0
C220 C 0.64139 0.81833 0.22372 0.0
C221 C 0.65532 0.78799 0.23999 0.0
C222 C 0.64829 0.7647 0.22187 0.0
C223 C 0.633 0.7954 0.20498 0.0
O224 O 0.64515 0.82457 0.1733 0.0
O225 O 0.64085 0.77559 0.17206 0.0
O226 O 0.6369 0.77136 0.19898 0.0
O227 O 0.64128 0.8203 0.20024 0.0
H228 H 0.58817 0.8227 0.17973 0.0
H229 H 0.5348 0.826 0.17394 0.0
H230 H 0.55254 0.79067 0.14198 0.0
H231 H 0.60593 0.78737 0.14786 0.0
H232 H 0.78036 0.7566 0.16228 0.0
H233 H 0.73206 0.76074 0.17047 0.0
H234 H 0.82051 0.8138 0.18793 0.0
H235 H 0.77235 0.81824 0.19588 0.0
H236 H 0.65986 0.74036 0.23675 0.0
H237 H 0.64855 0.83625 0.24001 0.0
H238 H 0.63586 0.8402 0.22022 0.0
H239 H 0.64811 0.74442 0.21696 0.0
C240 C 0.59638 0.31821 0.42017 0.0
C241 C 0.60979 0.33471 0.42903 0.0
C242 C 0.60281 0.38118 0.41849 0.0
C243 C 0.61306 0.3659 0.42818 0.0
C244 C 0.58954 0.36442 0.40963 0.0
C245 C 0.58637 0.33324 0.41047 0.0
U246 U 0.59757 0.24728 0.43756 0.0
O247 O 0.56582 0.20945 0.4377 0.0
O248 O 0.61278 0.20137 0.43445 0.0
C249 C 0.586 0.18973 0.43509 0.0
C250 C 0.592 0.28554 0.42109 0.0
C251 C 0.57636 0.16637 0.42696 0.0
C252 C 0.58644 0.13395 0.41154 0.0
C253 C 0.59296 0.15966 0.41789 0.0
C254 C 0.54573 0.12213 0.42285 0.0
C255 C 0.56326 0.11441 0.41414 0.0
C256 C 0.55227 0.14776 0.42919 0.0
C257 C 0.62035 0.25234 0.46826 0.0
C258 C 0.60834 0.21468 0.48175 0.0
C259 C 0.64746 0.25106 0.48627 0.0
C260 C 0.64247 0.26391 0.4758 0.0
C261 C 0.63026 0.22649 0.4894 0.0
C262 C 0.60355 0.22738 0.47124 0.0
C263 C 0.6151 0.26653 0.45734 0.0
O264 O 0.61638 0.26966 0.42346 0.0
O265 O 0.56954 0.2774 0.4268 0.0
O266 O 0.5871 0.26745 0.4533 0.0
O267 O 0.63385 0.25877 0.45002 0.0
H268 H 0.61747 0.32349 0.43662 0.0
H269 H 0.62307 0.37812 0.4352 0.0
H270 H 0.58176 0.37537 0.40199 0.0
H271 H 0.57596 0.32088 0.40355 0.0
H272 H 0.60012 0.1289 0.40479 0.0
H273 H 0.61169 0.17356 0.41595 0.0
H274 H 0.52796 0.10749 0.42518 0.0
H275 H 0.53934 0.15224 0.4362 0.0
H276 H 0.59494 0.1956 0.4839 0.0
H277 H 0.66426 0.26086 0.49203 0.0
H278 H 0.65571 0.28309 0.47363 0.0
H279 H 0.58658 0.21784 0.46549 0.0
C280 C 0.09597 0.3003 0.66201 0.0
C281 C 0.07383 0.29278 0.66913 0.0
C282 C 0.03467 0.3073 0.65513 0.0
C283 C 0.04352 0.29612 0.66571 0.0
C284 C 0.05706 0.31501 0.64806 0.0
C285 C 0.08739 0.31151 0.65148 0.0
U286 U 0.15732 0.29031 0.68489 0.0
O287 O 0.19737 0.26156 0.68627 0.0
O288 O 0.20205 0.31056 0.68753 0.0
C289 C 0.21584 0.28452 0.68719 0.0
C290 C 0.12794 0.29675 0.66556 0.0
C291 C 0.24321 0.28328 0.68103 0.0
C292 C 0.27975 0.25457 0.67146 0.0
C293 C 0.25157 0.2569 0.67568 0.0
C294 C 0.29147 0.30515 0.67757 0.0
C295 C 0.30026 0.27847 0.67253 0.0
C296 C 0.26336 0.30746 0.6818 0.0
C297 C 0.13609 0.28741 0.71463 0.0
C298 C 0.16923 0.26908 0.7299 0.0
C299 C 0.1259 0.29915 0.73349 0.0
C300 C 0.11832 0.3013 0.72216 0.0
C301 C 0.15138 0.28292 0.73749 0.0
C302 C 0.16176 0.27146 0.71856 0.0
C303 C 0.12776 0.29015 0.70274 0.0
O304 O 0.14005 0.31937 0.67119 0.0
O305 O 0.1356 0.27045 0.66983 0.0
O306 O 0.13171 0.26598 0.69682 0.0
O307 O 0.13668 0.3149 0.69809 0.0
H308 H 0.07999 0.28415 0.67732 0.0
H309 H 0.02703 0.28948 0.67133 0.0
H310 H 0.05118 0.32407 0.63993 0.0
H311 H 0.10417 0.31763 0.6459 0.0
H312 H 0.28565 0.23383 0.6675 0.0
H313 H 0.23676 0.23769 0.67504 0.0
H314 H 0.30679 0.32387 0.67868 0.0
H315 H 0.25786 0.32786 0.68606 0.0
H316 H 0.18913 0.25666 0.73273 0.0
H317 H 0.1115 0.30974 0.73912 0.0
H318 H 0.09849 0.31377 0.71928 0.0
H319 H 0.17599 0.26083 0.71286 0.0
Zn320 Zn 0.18481 0.71277 0.13834 0.0
Zn321 Zn 0.12939 0.7905 0.11356 0.0
Zn322 Zn 0.15963 0.75245 0.12596 0.0
C323 C 0.14139 0.7421 0.10019 0.0
C324 C 0.1814 0.82012 0.12093 0.0
O325 O 0.13614 0.74987 0.14152 0.0
O326 O 0.16603 0.72103 0.15221 0.0
C327 C 0.16526 0.68102 0.12023 0.0
O328 O 0.15067 0.73085 0.1096 0.0
O329 O 0.13236 0.76892 0.09951 0.0
O330 O 0.156 0.82522 0.11615 0.0
O331 O 0.18808 0.7937 0.12476 0.0
O332 O 0.17255 0.67591 0.13026 0.0
O333 O 0.16174 0.70838 0.1168 0.0
O334 O 0.20534 0.77038 0.12989 0.0
O335 O 0.22582 0.72853 0.13668 0.0
C336 C 0.22865 0.7553 0.13344 0.0
O337 O 0.11627 0.76183 0.13334 0.0
O338 O 0.09111 0.78955 0.12074 0.0
C339 C 0.14344 0.73797 0.15102 0.0
C340 C 0.092 0.77545 0.12977 0.0
Zn341 Zn 0.58557 0.71144 0.36442 0.0
Zn342 Zn 0.65058 0.78933 0.38835 0.0
Zn343 Zn 0.61532 0.7511 0.37688 0.0
C344 C 0.59582 0.81855 0.3827 0.0
C345 C 0.68221 0.77465 0.37074 0.0
O346 O 0.61182 0.70847 0.38654 0.0
O347 O 0.58541 0.67822 0.37519 0.0
C348 C 0.54768 0.76155 0.36661 0.0
O349 O 0.58841 0.79263 0.37867 0.0
O350 O 0.62181 0.82311 0.38707 0.0
O351 O 0.68525 0.79077 0.37927 0.0
O352 O 0.65789 0.7595 0.36864 0.0
O353 O 0.54897 0.73628 0.36196 0.0
O354 O 0.57032 0.77136 0.37271 0.0
O355 O 0.63742 0.74439 0.36126 0.0
O356 O 0.61193 0.70882 0.35207 0.0
C357 C 0.63303 0.72762 0.35265 0.0
O358 O 0.62539 0.7308 0.39338 0.0
O359 O 0.65378 0.76512 0.40212 0.0
C360 C 0.59931 0.68281 0.38443 0.0
C361 C 0.6404 0.74017 0.40215 0.0
Zn362 Zn 0.62236 0.28074 0.61333 0.0
Zn363 Zn 0.68972 0.21198 0.64042 0.0
Zn364 Zn 0.65816 0.2477 0.62654 0.0
C365 C 0.72516 0.2629 0.63631 0.0
C366 C 0.677 0.17814 0.62148 0.0
O367 O 0.61521 0.25698 0.63428 0.0
O368 O 0.58841 0.28628 0.62265 0.0
C369 C 0.67607 0.3129 0.61741 0.0
O370 O 0.70198 0.27044 0.63001 0.0
O371 O 0.72519 0.23876 0.64179 0.0
O372 O 0.69087 0.17606 0.63086 0.0
O373 O 0.66382 0.20297 0.6185 0.0
O374 O 0.65101 0.31413 0.61197 0.0
O375 O 0.68309 0.28981 0.62348 0.0
O376 O 0.64966 0.22301 0.61076 0.0
O377 O 0.61763 0.25206 0.60097 0.0
C378 C 0.6333 0.22849 0.60181 0.0
O379 O 0.63584 0.24397 0.64224 0.0
O380 O 0.66313 0.21222 0.65275 0.0
C381 C 0.59105 0.27196 0.63163 0.0
C382 C 0.64102 0.22977 0.65145 0.0
Zn383 Zn 0.08536 0.21297 0.86195 0.0
Zn384 Zn 0.14694 0.28118 0.88717 0.0
Zn385 Zn 0.11549 0.24938 0.87532 0.0
C386 C 0.12668 0.23996 0.90109 0.0
C387 C 0.10332 0.31835 0.87849 0.0
O388 O 0.13854 0.24541 0.85972 0.0
O389 O 0.11181 0.21243 0.84961 0.0
C390 C 0.09781 0.18043 0.8812 0.0
O391 O 0.12261 0.22679 0.89167 0.0
O392 O 0.13347 0.26742 0.90151 0.0
O393 O 0.13096 0.32002 0.88122 0.0
O394 O 0.09093 0.29236 0.87714 0.0
O395 O 0.08439 0.1777 0.87178 0.0
O396 O 0.11065 0.20547 0.88405 0.0
O397 O 0.07107 0.27123 0.87166 0.0
O398 O 0.04899 0.23844 0.8601 0.0
C399 C 0.04817 0.26274 0.86541 0.0
O400 O 0.15934 0.25675 0.86797 0.0
O401 O 0.18704 0.26797 0.88311 0.0
C402 C 0.13352 0.23046 0.85068 0.0
C403 C 0.18528 0.26096 0.87305 0.0
H404 H 0.15973 0.43385 0.0625 0.0
H405 H 0.1563 0.48653 0.06798 0.0
H406 H 0.18762 0.46299 0.10122 0.0
H407 H 0.19168 0.41024 0.09576 0.0
H408 H 0.12245 0.51251 0.08424 0.0
H409 H 0.24405 0.5317 0.09321 0.0
H410 H 0.2295 0.49983 0.08538 0.0
H411 H 0.22972 0.49975 0.10016 0.0
C412 C 0.16621 0.43988 0.07096 0.0
C413 C 0.17627 0.41778 0.07867 0.0
C414 C 0.16404 0.47001 0.07409 0.0
C415 C 0.17213 0.47882 0.08496 0.0
C416 C 0.18175 0.4568 0.09273 0.0
H417 H 0.13563 0.62993 0.1242 0.0
H418 H 0.13533 0.58307 0.11378 0.0
C419 C 0.18377 0.4266 0.08963 0.0
C420 C 0.17004 0.51093 0.08822 0.0
H421 H 0.21128 0.56961 0.09918 0.0
C422 C 0.14192 0.52507 0.08741 0.0
C423 C 0.19549 0.52754 0.09217 0.0
C424 C 0.22647 0.51409 0.0927 0.0
C425 C 0.13842 0.55488 0.09092 0.0
C426 C 0.16364 0.57094 0.0954 0.0
C427 C 0.19194 0.55727 0.09576 0.0
C428 C 0.16077 0.60069 0.10076 0.0
C429 C 0.1077 0.56892 0.08995 0.0
C430 C 0.17493 0.62638 0.09685 0.0
C431 C 0.17488 0.65343 0.10279 0.0
C432 C 0.16101 0.65494 0.11277 0.0
C433 C 0.14623 0.62943 0.11647 0.0
C434 C 0.14598 0.60266 0.11051 0.0
H435 H 0.0925 0.5571 0.08377 0.0
H436 H 0.09781 0.56753 0.09804 0.0
H437 H 0.10892 0.59299 0.08761 0.0
H438 H 0.18668 0.62526 0.08938 0.0
H439 H 0.18688 0.67263 0.09988 0.0
H440 H 0.9353 0.82341 0.33748 0.0
H441 H 0.88387 0.81756 0.34262 0.0
H442 H 0.88536 0.72427 0.33325 0.0
H443 H 0.93673 0.72996 0.32796 0.0
H444 H 0.83308 0.79867 0.32885 0.0
H445 H 0.85635 0.72206 0.36466 0.0
H446 H 0.88537 0.74366 0.3588 0.0
H447 H 0.87086 0.71055 0.35192 0.0
C448 C 0.92472 0.80163 0.33649 0.0
C449 C 0.94026 0.77715 0.33232 0.0
C450 C 0.89533 0.79832 0.33946 0.0
C451 C 0.88084 0.77044 0.3384 0.0
C452 C 0.89626 0.74588 0.33431 0.0
H453 H 0.70186 0.72585 0.35953 0.0
H454 H 0.74789 0.72238 0.34972 0.0
C455 C 0.92569 0.74916 0.33133 0.0
C456 C 0.84943 0.76741 0.34141 0.0
H457 H 0.80601 0.73494 0.36011 0.0
C458 C 0.82713 0.78459 0.33564 0.0
C459 C 0.84162 0.74877 0.3502 0.0
C460 C 0.86476 0.73033 0.35683 0.0
C461 C 0.79736 0.78414 0.33857 0.0
C462 C 0.78982 0.76647 0.34763 0.0
C463 C 0.81185 0.74841 0.35314 0.0
C464 C 0.7602 0.76896 0.3523 0.0
C465 C 0.77424 0.80277 0.33201 0.0
C466 C 0.75177 0.79628 0.35689 0.0
C467 C 0.7257 0.79826 0.36247 0.0
C468 C 0.70738 0.77299 0.36354 0.0
C469 C 0.71528 0.74581 0.35865 0.0
C470 C 0.74162 0.74376 0.35312 0.0
H471 H 0.78114 0.80758 0.32359 0.0
H472 H 0.7522 0.79126 0.33131 0.0
H473 H 0.7715 0.82454 0.33624 0.0
H474 H 0.76601 0.81586 0.35654 0.0
H475 H 0.72025 0.81945 0.36622 0.0
H476 H 0.7141 0.59594 0.62042 0.0
H477 H 0.72211 0.54371 0.6262 0.0
H478 H 0.72436 0.51709 0.59219 0.0
H479 H 0.71804 0.56922 0.5864 0.0
H480 H 0.6865 0.49753 0.62192 0.0
H481 H 0.79467 0.47098 0.60528 0.0
H482 H 0.78121 0.50904 0.60627 0.0
H483 H 0.76903 0.48585 0.59466 0.0
C484 C 0.71703 0.5791 0.61418 0.0
C485 C 0.71536 0.58694 0.60292 0.0
C486 C 0.72145 0.54917 0.6175 0.0
C487 C 0.72442 0.52641 0.60966 0.0
C488 C 0.72299 0.53422 0.59844 0.0
H489 H 0.68613 0.34653 0.59958 0.0
H490 H 0.70562 0.39769 0.59954 0.0
C491 C 0.71879 0.5641 0.59512 0.0
C492 C 0.72626 0.49423 0.61305 0.0
H493 H 0.76238 0.42829 0.60831 0.0
C494 C 0.70356 0.48254 0.61919 0.0
C495 C 0.7486 0.47457 0.60956 0.0
C496 C 0.77491 0.48586 0.60368 0.0
C497 C 0.70138 0.45158 0.62125 0.0
C498 C 0.72256 0.43176 0.61711 0.0
C499 C 0.74618 0.44354 0.61148 0.0
C500 C 0.7176 0.39881 0.61708 0.0
C501 C 0.6753 0.44003 0.62721 0.0
C502 C 0.7194 0.38187 0.62688 0.0
C503 C 0.70857 0.35227 0.62689 0.0
C504 C 0.69553 0.33959 0.61712 0.0
C505 C 0.69605 0.35582 0.60722 0.0
C506 C 0.70716 0.38506 0.60719 0.0
H507 H 0.65941 0.45818 0.62908 0.0
H508 H 0.66298 0.42264 0.62217 0.0
H509 H 0.68371 0.42939 0.63509 0.0
H510 H 0.72756 0.39208 0.63459 0.0
H511 H 0.7082 0.3403 0.63464 0.0
H512 H 0.76464 0.32051 0.86528 0.0
H513 H 0.81838 0.32292 0.87055 0.0
H514 H 0.83746 0.2987 0.83748 0.0
H515 H 0.78402 0.29556 0.83219 0.0
H516 H 0.86071 0.27594 0.86928 0.0
H517 H 0.89012 0.37337 0.84386 0.0
H518 H 0.85214 0.36528 0.84697 0.0
H519 H 0.869 0.34512 0.83621 0.0
C520 C 0.78024 0.31559 0.85912 0.0
C521 C 0.76984 0.30796 0.84827 0.0
C522 C 0.81096 0.3172 0.86214 0.0
C523 C 0.83194 0.31154 0.85436 0.0
C524 C 0.82169 0.30392 0.84356 0.0
H525 H 0.01257 0.27266 0.84691 0.0
H526 H 0.96082 0.29014 0.84565 0.0
C527 C 0.79105 0.30216 0.84054 0.0
C528 C 0.86456 0.31182 0.85761 0.0
H529 H 0.93078 0.34186 0.85069 0.0
C530 C 0.87606 0.29071 0.86539 0.0
C531 C 0.88448 0.33117 0.85253 0.0
C532 C 0.87334 0.35523 0.8445 0.0
C533 C 0.90706 0.2871 0.8677 0.0
C534 C 0.92709 0.30564 0.86226 0.0
C535 C 0.91547 0.32771 0.85487 0.0
C536 C 0.95989 0.29984 0.86305 0.0
C537 C 0.91806 0.26223 0.87541 0.0
C538 C 0.97712 0.30068 0.87319 0.0
C539 C 1.00689 0.29058 0.87392 0.0
C540 C 0.01986 0.27989 0.8645 0.0
C541 C 1.00315 0.28094 0.85429 0.0
C542 C 0.97356 0.29093 0.85356 0.0
H543 H 0.89986 0.24649 0.87727 0.0
H544 H 0.93615 0.24921 0.87184 0.0
H545 H 0.92727 0.27212 0.88331 0.0
H546 H 0.96719 0.30788 0.8806 0.0
H547 H 0.01898 0.28915 0.88193 0.0
H548 H 0.01682 0.57293 0.91357 0.0
H549 H 0.01047 0.52323 0.90518 0.0
H550 H 0.09179 0.53539 0.88881 0.0
H551 H 0.09787 0.58549 0.89689 0.0
H552 H 0.0437 0.50704 0.87552 0.0
H553 H 0.06518 0.45367 0.9168 0.0
H554 H 0.03529 0.48066 0.91545 0.0
H555 H 0.07318 0.49272 0.91437 0.0
C556 C 0.03301 0.56536 0.90799 0.0
C557 C 0.05801 0.58314 0.90598 0.0
C558 C 0.02948 0.53681 0.90328 0.0
C559 C 0.0509 0.52546 0.89652 0.0
C560 C 0.07507 0.54368 0.89406 0.0
H561 H 0.12013 0.3703 0.86934 0.0
H562 H 0.09938 0.42007 0.87214 0.0
C563 C 0.07863 0.57221 0.89875 0.0
C564 C 0.04947 0.49393 0.89259 0.0
H565 H 0.05907 0.42167 0.90158 0.0
C566 C 0.04667 0.48831 0.88121 0.0
C567 C 0.05316 0.46951 0.90004 0.0
C568 C 0.05709 0.47426 0.91235 0.0
C569 C 0.04835 0.45895 0.87706 0.0
C570 C 0.05355 0.43468 0.88449 0.0
C571 C 0.05491 0.44022 0.89588 0.0
C572 C 0.06182 0.4042 0.88077 0.0
C573 C 0.04499 0.45429 0.86476 0.0
C574 C 0.04748 0.37846 0.88456 0.0
C575 C 0.0595 0.34983 0.88299 0.0
C576 C 0.08609 0.3466 0.87768 0.0
C577 C 0.09938 0.37217 0.87335 0.0
C578 C 0.08739 0.40066 0.87488 0.0
H579 H 0.03041 0.47183 0.86067 0.0
H580 H 0.06729 0.45603 0.86139 0.0
H581 H 0.03547 0.43186 0.86262 0.0
H582 H 0.02797 0.38067 0.88926 0.0
H583 H 0.04947 0.33064 0.88673 0.0
H584 H 0.84754 0.82773 0.17249 0.0
H585 H 0.89752 0.8213 0.16601 0.0
H586 H 0.87923 0.72766 0.15969 0.0
H587 H 0.82927 0.73368 0.16637 0.0
H588 H 0.9444 0.77913 0.17425 0.0
H589 H 0.9064 0.76251 0.13006 0.0
H590 H 0.88263 0.77901 0.13981 0.0
H591 H 0.88927 0.73926 0.13995 0.0
C592 C 0.85415 0.80568 0.1698 0.0
C593 C 0.8343 0.78122 0.16996 0.0
C594 C 0.88273 0.80208 0.16608 0.0
C595 C 0.89204 0.77404 0.16236 0.0
C596 C 0.87236 0.74956 0.16244 0.0
H597 H 0.07555 0.73314 0.14474 0.0
H598 H 0.02817 0.73068 0.15369 0.0
C599 C 0.84374 0.75311 0.16619 0.0
C600 C 0.92225 0.77075 0.15825 0.0
H601 H 0.95823 0.76096 0.1347 0.0
C602 C 0.94751 0.77487 0.16563 0.0
C603 C 0.92613 0.76533 0.14699 0.0
C604 C 0.89976 0.76145 0.13868 0.0
C605 C 0.9766 0.77416 0.16199 0.0
C606 C 0.98039 0.76924 0.1507 0.0
C607 C 0.95517 0.76458 0.14337 0.0
C608 C 0.01005 0.77139 0.14609 0.0
C609 C 1.00304 0.77972 0.17012 0.0
C610 C 0.01557 0.79513 0.13894 0.0
C611 C 0.04256 0.79674 0.13394 0.0
C612 C 0.06466 0.77456 0.13594 0.0
C613 C 0.05928 0.75092 0.14323 0.0
C614 C 0.03218 0.7494 0.1483 0.0
H615 H 0.9961 0.78677 0.17831 0.0
H616 H 0.01648 0.75883 0.1712 0.0
H617 H 0.01773 0.79732 0.16694 0.0
H618 H 0.99876 0.8123 0.13713 0.0
H619 H 0.04596 0.81525 0.12837 0.0
H620 H 0.5613 0.42105 0.40954 0.0
H621 H 0.5662 0.47544 0.40761 0.0
H622 H 0.65483 0.47146 0.42385 0.0
H623 H 0.6504 0.4168 0.4256 0.0
H624 H 0.57854 0.52025 0.42446 0.0
H625 H 0.66639 0.51525 0.39433 0.0
H626 H 0.64383 0.48308 0.3973 0.0
H627 H 0.67344 0.49489 0.40704 0.0
C628 C 0.58196 0.43166 0.41262 0.0
C629 C 0.60556 0.41447 0.41763 0.0
C630 C 0.58462 0.4628 0.4116 0.0
C631 C 0.61097 0.47748 0.41549 0.0
C632 C 0.63442 0.46055 0.42067 0.0
H633 H 0.64742 0.66619 0.39843 0.0
H634 H 0.65308 0.61879 0.40885 0.0
C635 C 0.63175 0.42934 0.42174 0.0
C636 C 0.61378 0.51041 0.41387 0.0
H637 H 0.64792 0.56283 0.39853 0.0
C638 C 0.59399 0.52962 0.4189 0.0
C639 C 0.63417 0.52268 0.40672 0.0
C640 C 0.6556 0.50302 0.40095 0.0
C641 C 0.59324 0.56059 0.41664 0.0
C642 C 0.61237 0.57257 0.40898 0.0
C643 C 0.63331 0.55365 0.40442 0.0
C644 C 0.60807 0.60332 0.40435 0.0
C645 C 0.57152 0.58012 0.4223 0.0
C646 C 0.58084 0.61057 0.39854 0.0
C647 C 0.57765 0.63738 0.39263 0.0
C648 C 0.60158 0.65765 0.3924 0.0
C649 C 0.62848 0.65117 0.39862 0.0
C650 C 0.63176 0.62406 0.4045 0.0
H651 H 0.5666 0.57056 0.43042 0.0
H652 H 0.58029 0.60327 0.42356 0.0
H653 H 0.55013 0.58137 0.41713 0.0
H654 H 0.56247 0.59473 0.39808 0.0
H655 H 0.55673 0.64172 0.38786 0.0
H656 H 1.00701 0.29613 0.63462 0.0
H657 H 0.95372 0.29949 0.62888 0.0
H658 H 0.93531 0.32713 0.66169 0.0
H659 H 0.9886 0.32536 0.66733 0.0
H660 H 0.90999 0.26719 0.6362 0.0
H661 H 0.8848 0.38644 0.6439 0.0
H662 H 0.92263 0.37256 0.64372 0.0
H663 H 0.90249 0.36896 0.65596 0.0
C664 C 0.99176 0.30366 0.64056 0.0
C665 C 1.00227 0.31049 0.65146 0.0
C666 C 0.96121 0.3054 0.63727 0.0
C667 C 0.94042 0.31409 0.64478 0.0
C668 C 0.95086 0.32115 0.65563 0.0
H669 H 0.76302 0.27129 0.65433 0.0
H670 H 0.81439 0.28968 0.65484 0.0
C671 C 0.9814 0.31959 0.65891 0.0
C672 C 0.9077 0.31316 0.64159 0.0
H673 H 0.84241 0.35247 0.64304 0.0
C674 C 0.89535 0.2861 0.63746 0.0
C675 C 0.88845 0.33784 0.64317 0.0
C676 C 0.90034 0.36817 0.64682 0.0
C677 C 0.86431 0.28254 0.63548 0.0
C678 C 0.84506 0.30659 0.6377 0.0
C679 C 0.8573 0.33408 0.64135 0.0
C680 C 0.81235 0.30183 0.63759 0.0
C681 C 0.85204 0.25258 0.63155 0.0
C682 C 0.7938 0.30378 0.62779 0.0
C683 C 0.76412 0.29352 0.6275 0.0
C684 C 0.75297 0.28083 0.63697 0.0
C685 C 0.77108 0.28088 0.6469 0.0
C686 C 0.80041 0.2914 0.64722 0.0
H687 H 0.87 0.23662 0.62962 0.0
H688 H 0.83889 0.24247 0.63801 0.0
H689 H 0.83668 0.25573 0.62406 0.0
H690 H 0.80275 0.31168 0.62027 0.0
H691 H 0.75072 0.29349 0.61972 0.0
H692 H 0.3335 0.32019 0.66215 0.0
H693 H 0.38527 0.31564 0.65721 0.0
H694 H 0.38911 0.22517 0.66992 0.0
H695 H 0.33743 0.22958 0.67499 0.0
H696 H 0.43687 0.30311 0.67139 0.0
H697 H 0.41844 0.21613 0.63884 0.0
H698 H 0.38812 0.2375 0.64395 0.0
H699 H 0.40471 0.20708 0.65196 0.0
C700 C 0.34534 0.29932 0.66391 0.0
C701 C 0.33121 0.27521 0.66893 0.0
C702 C 0.37491 0.29674 0.66106 0.0
C703 C 0.39097 0.26998 0.6631 0.0
C704 C 0.37698 0.24584 0.66808 0.0
H705 H 0.57214 0.22602 0.64445 0.0
H706 H 0.52571 0.22415 0.65404 0.0
C707 C 0.34738 0.24838 0.67094 0.0
C708 C 0.42251 0.26772 0.66019 0.0
H709 H 0.4681 0.2319 0.64306 0.0
C710 C 0.44373 0.28745 0.66523 0.0
C711 C 0.43151 0.24705 0.65223 0.0
C712 C 0.40953 0.22585 0.64635 0.0
C713 C 0.47358 0.28742 0.6624 0.0
C714 C 0.4823 0.2675 0.65417 0.0
C715 C 0.46136 0.24708 0.64939 0.0
C716 C 0.51209 0.26949 0.64962 0.0
C717 C 0.49552 0.30881 0.66819 0.0
C718 C 0.51993 0.29564 0.64406 0.0
C719 C 0.54629 0.29674 0.63863 0.0
C720 C 0.56546 0.27174 0.63866 0.0
C721 C 0.55808 0.2458 0.64448 0.0
C722 C 0.5315 0.24465 0.64988 0.0
H723 H 0.48811 0.31573 0.67634 0.0
H724 H 0.51812 0.29855 0.66942 0.0
H725 H 0.49724 0.32933 0.66309 0.0
H726 H 0.50504 0.31486 0.64356 0.0
H727 H 0.55132 0.31694 0.63415 0.0
H728 H 0.50608 0.76535 0.14644 0.0
H729 H 0.45206 0.76509 0.14174 0.0
H730 H 0.44443 0.85252 0.15641 0.0
H731 H 0.49866 0.85313 0.1611 0.0
H732 H 0.40728 0.7777 0.16037 0.0
H733 H 0.39761 0.85128 0.12314 0.0
H734 H 0.43091 0.82921 0.12649 0.0
H735 H 0.42293 0.86094 0.13482 0.0
C736 C 0.49305 0.78477 0.14851 0.0
C737 C 0.50673 0.80928 0.15414 0.0
C738 C 0.46217 0.78452 0.14586 0.0
C739 C 0.44437 0.80887 0.14866 0.0
C740 C 0.45788 0.83362 0.15411 0.0
H741 H 0.2465 0.81408 0.13716 0.0
H742 H 0.29836 0.83194 0.14084 0.0
C743 C 0.48879 0.83382 0.15685 0.0
C744 C 0.41144 0.80717 0.14654 0.0
H745 H 0.35361 0.82716 0.12809 0.0
C746 C 0.39547 0.7888 0.1534 0.0
C747 C 0.39612 0.82197 0.13751 0.0
C748 C 0.41257 0.84201 0.13 0.0
C749 C 0.36468 0.784 0.15126 0.0
C750 C 0.34957 0.79738 0.14186 0.0
C751 C 0.36525 0.81688 0.13527 0.0
C752 C 0.31848 0.78853 0.13826 0.0
C753 C 0.34865 0.76403 0.15896 0.0
C754 C 0.3128 0.75869 0.13515 0.0
C755 C 0.28355 0.74858 0.13309 0.0
C756 C 0.25919 0.76815 0.13396 0.0
C757 C 0.26483 0.79859 0.13636 0.0
C758 C 0.29439 0.80874 0.13851 0.0
H759 H 0.3608 0.76273 0.16724 0.0
H760 H 0.32556 0.77222 0.15991 0.0
H761 H 0.3472 0.74097 0.15552 0.0
H762 H 0.33106 0.74287 0.13471 0.0
H763 H 0.27997 0.72508 0.13112 0.0
H764 H 0.42009 0.29413 0.81927 0.0
H765 H 0.37104 0.29065 0.82674 0.0
H766 H 0.4108 0.24527 0.85554 0.0
H767 H 0.46012 0.24883 0.84812 0.0
H768 H 0.33934 0.24071 0.83194 0.0
H769 H 0.36301 0.31132 0.86908 0.0
H770 H 0.3875 0.31017 0.85795 0.0
H771 H 0.38863 0.28061 0.86807 0.0
C772 C 0.41842 0.28337 0.8272 0.0
C773 C 0.44403 0.27172 0.8331 0.0
C774 C 0.39036 0.28147 0.83146 0.0
C775 C 0.38723 0.26799 0.84175 0.0
C776 C 0.41274 0.25634 0.84769 0.0
H777 H 0.23677 0.23451 0.88104 0.0
H778 H 0.28514 0.23431 0.87286 0.0
C779 C 0.44091 0.25837 0.84344 0.0
C780 C 0.35714 0.26561 0.84609 0.0
H781 H 0.31687 0.2851 0.86779 0.0
C782 C 0.33438 0.2505 0.83976 0.0
C783 C 0.35066 0.27847 0.85629 0.0
C784 C 0.37363 0.2963 0.8632 0.0
C785 C 0.3055 0.24743 0.84344 0.0
C786 C 0.29912 0.26011 0.85367 0.0
C787 C 0.32185 0.27526 0.85998 0.0
C788 C 0.26909 0.25797 0.85804 0.0
C789 C 0.28224 0.23015 0.83646 0.0
C790 C 0.24391 0.27122 0.85241 0.0
C791 C 0.21623 0.27126 0.85708 0.0
C792 C 0.21326 0.25804 0.86742 0.0
C793 C 0.23839 0.24456 0.87298 0.0
C794 C 0.266 0.24447 0.86833 0.0
H795 H 0.29254 0.21563 0.83034 0.0
H796 H 0.2686 0.2159 0.84167 0.0
H797 H 0.26701 0.24621 0.83187 0.0
H798 H 0.24593 0.28257 0.84461 0.0
H799 H 0.1977 0.28318 0.85294 0.0
H800 H 0.26521 0.83006 0.36332 0.0
H801 H 0.3189 0.83271 0.36869 0.0
H802 H 0.33817 0.79335 0.33762 0.0
H803 H 0.28476 0.79008 0.33227 0.0
H804 H 0.36041 0.7853 0.37066 0.0
H805 H 0.39237 0.86765 0.33948 0.0
H806 H 0.35408 0.86219 0.34278 0.0
H807 H 0.37107 0.83683 0.33355 0.0
C808 C 0.28084 0.82185 0.35763 0.0
C809 C 0.27052 0.80999 0.34732 0.0
C810 C 0.31155 0.82358 0.3607 0.0
C811 C 0.33259 0.81378 0.35348 0.0
C812 C 0.3224 0.80181 0.34322 0.0
H813 H 0.50962 0.76201 0.34837 0.0
H814 H 0.4586 0.78113 0.34648 0.0
C815 C 0.29177 0.79997 0.34016 0.0
C816 C 0.36519 0.81452 0.35679 0.0
H817 H 0.43221 0.83771 0.34808 0.0
C818 C 0.37613 0.79724 0.36588 0.0
C819 C 0.38565 0.83028 0.35058 0.0
C820 C 0.37521 0.85054 0.34112 0.0
C821 C 0.40704 0.79357 0.36844 0.0
C822 C 0.42755 0.80804 0.36185 0.0
C823 C 0.41653 0.82665 0.35314 0.0
C824 C 0.46 0.80058 0.3628 0.0
C825 C 0.41749 0.77268 0.37772 0.0
C826 C 0.47833 0.80615 0.37247 0.0
C827 C 0.50782 0.79517 0.37357 0.0
C828 C 0.51926 0.77851 0.36501 0.0
C829 C 0.50138 0.77463 0.35514 0.0
C830 C 0.47219 0.78561 0.35403 0.0
H831 H 0.39874 0.75979 0.38092 0.0
H832 H 0.43429 0.75656 0.37494 0.0
H833 H 0.42827 0.78598 0.38461 0.0
H834 H 0.46952 0.81806 0.37929 0.0
H835 H 0.52094 0.79812 0.38131 0.0
H836 H 0.62432 0.91811 0.57565 0.0
H837 H 0.62295 0.97116 0.58082 0.0
H838 H 0.71462 0.96556 0.59407 0.0
H839 H 0.71618 0.91252 0.58896 0.0
H840 H 0.63162 0.99788 0.60113 0.0
H841 H 0.71685 0.03816 0.57382 0.0
H842 H 0.69989 1.0015 0.57235 0.0
H843 H 0.7301 1.0079 0.58264 0.0
C844 C 0.64415 0.92807 0.57974 0.0
C845 C 0.67041 0.91099 0.58185 0.0
C846 C 0.64337 0.95849 0.58263 0.0
C847 C 0.66885 0.97256 0.58763 0.0
C848 C 0.69493 0.95546 0.58994 0.0
H849 H 0.71948 0.1352 0.62025 0.0
H850 H 0.71524 0.08713 0.61063 0.0
C851 C 0.69575 0.92507 0.58703 0.0
C852 C 0.66796 1.00484 0.59077 0.0
H853 H 0.70377 0.0719 0.58801 0.0
C854 C 0.64711 0.01418 0.59815 0.0
C855 C 0.68805 0.02616 0.58682 0.0
C856 C 0.70979 0.01804 0.57838 0.0
C857 C 0.64679 0.04384 0.6021 0.0
C858 C 0.6676 0.06486 0.59845 0.0
C859 C 0.68782 0.05578 0.5908 0.0
C860 C 0.67063 0.09547 0.60327 0.0
C861 C 0.62511 0.05209 0.61055 0.0
C862 C 0.64725 0.11659 0.60208 0.0
C863 C 0.64964 0.14424 0.6076 0.0
C864 C 0.67552 0.1512 0.61433 0.0
C865 C 0.69926 0.13047 0.61513 0.0
C866 C 0.6969 0.103 0.60962 0.0
H867 H 0.61422 0.03201 0.61392 0.0
H868 H 0.63669 0.06466 0.61748 0.0
H869 H 0.60736 0.06682 0.60665 0.0
H870 H 0.62689 0.11138 0.59712 0.0
H871 H 0.63079 0.15952 0.60699 0.0
H872 H 0.22814 0.07614 0.08799 0.0
H873 H 0.23172 0.02402 0.09426 0.0
H874 H 0.20995 0.05138 0.12672 0.0
H875 H 0.20494 0.10342 0.1204 0.0
H876 H 0.26696 0.99537 0.11067 0.0
H877 H 0.14698 0.98809 0.11909 0.0
H878 H 0.16182 0.01902 0.11162 0.0
H879 H 0.16718 0.01755 0.1264 0.0
C880 C 0.2238 0.07112 0.09644 0.0
C881 C 0.21582 0.09411 0.10363 0.0
C882 C 0.22618 0.04128 0.10005 0.0
C883 C 0.22064 0.03363 0.11092 0.0
C884 C 0.21377 0.0566 0.11824 0.0
H885 H 0.19215 0.85592 0.13876 0.0
H886 H 0.20862 0.9084 0.13803 0.0
C887 C 0.21124 0.08646 0.11462 0.0
C888 C 0.22111 1.00152 0.11442 0.0
H889 H 0.1767 0.94555 0.12339 0.0
C890 C 0.24727 0.98451 0.11351 0.0
C891 C 0.19543 0.98727 0.11814 0.0
C892 C 0.16616 1.00378 0.11879 0.0
C893 C 0.24835 0.95367 0.11612 0.0
C894 C 0.22251 0.93937 0.11964 0.0
C895 C 0.19663 0.95656 0.12081 0.0
C896 C 0.2205 0.90623 0.12111 0.0
C897 C 0.2771 0.93665 0.11506 0.0
C898 C 0.22301 0.88714 0.11203 0.0
C899 C 0.21381 0.85717 0.11249 0.0
C900 C 0.20212 0.8457 0.12204 0.0
C901 C 0.20192 0.86401 0.13142 0.0
C902 C 0.211 0.89408 0.13095 0.0
H903 H 0.29677 0.95188 0.11576 0.0
H904 H 0.2802 0.91885 0.12146 0.0
H905 H 0.27641 0.9258 0.10684 0.0
H906 H 0.22959 0.89603 0.10427 0.0
H907 H 0.21327 0.84375 0.10505 0.0
H908 H 0.5106 0.08565 0.40757 0.0
H909 H 0.50455 0.03417 0.40058 0.0
H910 H 0.60034 0.0247 0.40106 0.0
H911 H 0.60665 0.0756 0.40826 0.0
H912 H 0.52692 1.00372 0.38136 0.0
H913 H 0.57199 0.95654 0.42141 0.0
H914 H 0.55925 0.99491 0.41989 0.0
H915 H 0.59563 0.98443 0.41584 0.0
C916 C 0.53037 0.07264 0.40614 0.0
C917 C 0.55913 0.08476 0.40855 0.0
C918 C 0.52685 0.04331 0.40209 0.0
C919 C 0.552 0.02552 0.40046 0.0
C920 C 0.58064 0.03797 0.40238 0.0
H921 H 0.5971 0.86583 0.36898 0.0
H922 H 0.57737 0.91577 0.37243 0.0
C923 C 0.58419 0.06722 0.4064 0.0
C924 C 0.54868 0.99346 0.39729 0.0
H925 H 0.56869 0.92307 0.40613 0.0
C926 C 0.53566 0.98597 0.38681 0.0
C927 C 0.55946 0.97031 0.4045 0.0
C928 C 0.57211 0.97683 0.41608 0.0
C929 C 0.53475 0.956 0.38312 0.0
C930 C 0.54748 0.93308 0.39006 0.0
C931 C 0.55895 0.94052 0.40076 0.0
C932 C 0.55232 0.9019 0.38615 0.0
C933 C 0.52047 0.94927 0.37179 0.0
C934 C 0.54419 0.87711 0.39247 0.0
C935 C 0.55564 0.84848 0.3905 0.0
C936 C 0.57517 0.84424 0.38213 0.0
C937 C 0.58136 0.86846 0.37527 0.0
C938 C 0.57005 0.89705 0.37725 0.0
H939 H 0.5027 0.96589 0.36935 0.0
H940 H 0.53771 0.95073 0.3657 0.0
H941 H 0.51062 0.92639 0.37138 0.0
H942 H 0.53077 0.88031 0.39944 0.0
H943 H 0.5513 0.8303 0.3961 0.0
H944 H 0.14161 0.91313 0.92242 0.0
H945 H 0.14569 0.96769 0.92014 0.0
H946 H 0.05676 0.97016 0.9041 0.0
H947 H 0.05231 0.91586 0.9065 0.0
H948 H 0.14068 0.99964 0.89984 0.0
H949 H 0.05511 0.03691 0.92756 0.0
H950 H 0.07135 0.99972 0.92826 0.0
H951 H 0.04197 1.00856 0.91791 0.0
C952 C 0.12278 0.92537 0.91854 0.0
C953 C 0.09662 0.91014 0.91464 0.0
C954 C 0.1252 0.9565 0.91721 0.0
C955 C 0.10137 0.97304 0.9121 0.0
C956 C 0.07522 0.95793 0.90825 0.0
H957 H 0.05396 0.13969 0.88341 0.0
H958 H 0.05791 0.09133 0.89288 0.0
C959 C 0.07285 0.92683 0.90951 0.0
C960 C 0.10425 1.00582 0.9102 0.0
H961 H 0.07026 0.07307 0.91445 0.0
C962 C 0.12568 0.01584 0.90318 0.0
C963 C 0.08469 0.02685 0.9146 0.0
C964 C 0.06216 0.01756 0.92259 0.0
C965 C 0.12685 0.04607 0.89988 0.0
C966 C 0.10642 0.06694 0.90392 0.0
C967 C 0.08592 0.0571 0.91136 0.0
C968 C 0.10353 0.09803 0.8995 0.0
C969 C 0.14871 0.05498 0.89157 0.0
C970 C 0.12755 0.1184 0.90036 0.0
C971 C 0.12534 0.14613 0.89486 0.0
C972 C 0.09898 0.154 0.88858 0.0
C973 C 0.07453 0.13422 0.88822 0.0
C974 C 0.07675 0.10661 0.89366 0.0
H975 H 0.15882 0.03515 0.88773 0.0
H976 H 0.13756 0.06907 0.88494 0.0
H977 H 0.16706 0.06834 0.89575 0.0
H978 H 0.14833 0.11243 0.90494 0.0
H979 H 0.14476 0.16054 0.89495 0.0
H980 H 0.14252 0.15043 0.00336 0.0
H981 H 0.13541 0.14891 0.98324 0.0
H982 H 0.16195 0.24176 0.98161 0.0
H983 H 0.17033 0.24317 1.00167 0.0
H984 H 0.09823 0.18115 0.96884 0.0
H985 H 0.21624 0.20213 0.9606 0.0
H986 H 0.20509 0.19236 0.97412 0.0
H987 H 0.20169 0.23048 0.96922 0.0
C988 C 0.14723 0.17045 0.99872 0.0
C989 C 0.15728 0.19686 0.00416 0.0
C990 C 0.14294 0.16957 0.98722 0.0
C991 C 0.14869 0.19503 0.9809 0.0
C992 C 0.15802 0.22163 0.9863 0.0
H993 H 0.08995 0.25416 0.91685 0.0
H994 H 0.09334 0.2365 0.93593 0.0
C995 C 0.16241 0.22251 0.99779 0.0
C996 C 0.14452 0.19405 0.96868 0.0
H997 H 0.1799 0.20918 0.94537 0.0
C998 C 0.11618 0.18691 0.9637 0.0
C999 C 0.16809 0.20084 0.96195 0.0
C1000 C 0.19956 0.20656 0.96674 0.0
C1001 C 0.1104 0.18798 0.95219 0.0
C1002 C 0.13342 0.19693 0.94552 0.0
C1003 C 0.16214 0.20252 0.95047 0.0
C1004 C 0.12777 0.20344 0.93356 0.0
C1005 C 0.07961 0.17974 0.94731 0.0
C1006 C 0.14588 0.19071 0.92581 0.0
C1007 C 0.14402 0.20098 0.91489 0.0
C1008 C 0.12395 0.22399 0.91156 0.0
C1009 C 0.10507 0.23585 0.91919 0.0
C1010 C 0.10692 0.22566 0.93008 0.0
H1011 H 0.06851 0.16367 0.95269 0.0
H1012 H 0.06557 0.20028 0.94655 0.0
H1013 H 0.08052 0.16963 0.939 0.0
H1014 H 0.16247 0.1739 0.92835 0.0
H1015 H 0.1598 0.19258 0.9093 0.0
H1016 H 0.09166 0.8299 0.24848 0.0
H1017 H 0.08151 0.82639 0.22842 0.0
H1018 H 0.11373 0.73506 0.22928 0.0
H1019 H 0.12351 0.73826 0.24927 0.0
H1020 H 0.12526 0.81458 0.21367 0.0
H1021 H 0.03575 0.72919 0.2095 0.0
H1022 H 0.04466 0.74954 0.22216 0.0
H1023 H 0.06667 0.71751 0.21872 0.0
C1024 C 0.09602 0.8089 0.2444 0.0
C1025 C 0.10846 0.78437 0.25045 0.0
C1026 C 0.09028 0.80696 0.23295 0.0
C1027 C 0.09642 0.78032 0.22738 0.0
C1028 C 0.10822 0.75563 0.23344 0.0
H1029 H 0.13981 0.70325 0.16918 0.0
H1030 H 0.12063 0.71736 0.18668 0.0
C1031 C 0.11416 0.75761 0.24484 0.0
C1032 C 0.09344 0.77895 0.21516 0.0
H1033 H 0.06534 0.73541 0.19379 0.0
C1034 C 0.11161 0.7978 0.20925 0.0
C1035 C 0.07547 0.75714 0.20944 0.0
C1036 C 0.0543 0.73739 0.21527 0.0
C1037 C 0.11425 0.79375 0.19791 0.0
C1038 C 0.09776 0.77058 0.19231 0.0
C1039 C 0.07799 0.75312 0.19809 0.0
C1040 C 0.10452 0.76099 0.18108 0.0
C1041 C 0.13637 0.81279 0.19222 0.0
C1042 C 0.10082 0.7804 0.17195 0.0
C1043 C 0.1121 0.77244 0.16189 0.0
C1044 C 0.12691 0.74484 0.16082 0.0
C1045 C 0.12873 0.72477 0.16977 0.0
C1046 C 0.11761 0.73273 0.17977 0.0
H1047 H 0.15042 0.82673 0.19812 0.0
H1048 H 0.15131 0.79842 0.18756 0.0
H1049 H 0.12408 0.82807 0.18626 0.0
H1050 H 0.09032 0.80213 0.17273 0.0
H1051 H 0.11053 0.78844 0.15516 0.0
H1052 H 0.69006 0.71646 0.50204 0.0
H1053 H 0.68356 0.71452 0.4819 0.0
H1054 H 0.60033 0.66707 0.4839 0.0
H1055 H 0.60638 0.66937 0.50409 0.0
H1056 H 0.67558 0.66055 0.46814 0.0
H1057 H 0.57983 0.74061 0.46326 0.0
H1058 H 0.60416 0.73873 0.47574 0.0
H1059 H 0.57692 0.70986 0.47275 0.0
C1060 C 0.67019 0.70592 0.4982 0.0
C1061 C 0.64864 0.69324 0.50467 0.0
C1062 C 0.66665 0.7046 0.48671 0.0
C1063 C 0.6414 0.6908 0.48143 0.0
C1064 C 0.61986 0.67803 0.48782 0.0
H1065 H 0.59612 0.70533 0.40998 0.0
H1066 H 0.59461 0.68522 0.42877 0.0
C1067 C 0.62345 0.67921 0.49934 0.0
C1068 C 0.63783 0.69007 0.46923 0.0
H1069 H 0.59884 0.72224 0.4471 0.0
C1070 C 0.65859 0.67373 0.46352 0.0
C1071 C 0.61541 0.70699 0.46324 0.0
C1072 C 0.59283 0.72523 0.469 0.0
C1073 C 0.65818 0.67474 0.45197 0.0
C1074 C 0.63686 0.69307 0.44601 0.0
C1075 C 0.61513 0.70815 0.45168 0.0
C1076 C 0.63918 0.70026 0.43418 0.0
C1077 C 0.68094 0.65661 0.44626 0.0
C1078 C 0.66486 0.71485 0.43095 0.0
C1079 C 0.66575 0.7262 0.42029 0.0
C1080 C 0.64098 0.72324 0.41262 0.0
C1081 C 0.61571 0.70746 0.41567 0.0
C1082 C 0.61477 0.69616 0.42641 0.0
H1083 H 0.68806 0.63646 0.45118 0.0
H1084 H 0.67197 0.64928 0.43795 0.0
H1085 H 0.70108 0.67059 0.44532 0.0
H1086 H 0.68369 0.71891 0.43685 0.0
H1087 H 0.68546 0.7384 0.41818 0.0
H1088 H 0.61381 0.33231 0.74766 0.0
H1089 H 0.60467 0.32684 0.72767 0.0
H1090 H 0.59848 0.23075 0.73154 0.0
H1091 H 0.60699 0.23618 0.7515 0.0
H1092 H 0.63964 0.29895 0.71453 0.0
H1093 H 0.52863 0.24494 0.70972 0.0
H1094 H 0.54274 0.2621 0.72249 0.0
H1095 H 0.55357 0.22439 0.71915 0.0
C1096 C 0.61015 0.31007 0.74424 0.0
C1097 C 0.6111 0.28468 0.75114 0.0
C1098 C 0.60478 0.30697 0.73283 0.0
C1099 C 0.60032 0.27843 0.72808 0.0
C1100 C 0.60086 0.25309 0.73499 0.0
H1101 H 0.63084 0.19262 0.66854 0.0
H1102 H 0.61387 0.20725 0.68644 0.0
C1103 C 0.60593 0.2562 0.74641 0.0
C1104 C 0.59846 0.2748 0.71591 0.0
H1105 H 0.56001 0.23907 0.69443 0.0
C1106 C 0.62186 0.28643 0.71011 0.0
C1107 C 0.57526 0.25845 0.71011 0.0
C1108 C 0.54848 0.24705 0.71568 0.0
C1109 C 0.62358 0.28079 0.69883 0.0
C1110 C 0.60115 0.26325 0.69316 0.0
C1111 C 0.57713 0.25252 0.69882 0.0
C1112 C 0.60441 0.2533 0.6817 0.0
C1113 C 0.65024 0.29232 0.69318 0.0
C1114 C 0.60333 0.27404 0.67298 0.0
C1115 C 0.61309 0.26574 0.66273 0.0
C1116 C 0.62391 0.23655 0.66109 0.0
C1117 C 0.62267 0.21527 0.66959 0.0
C1118 C 0.61288 0.22356 0.6798 0.0
H1119 H 0.66758 0.30213 0.6991 0.0
H1120 H 0.66056 0.27391 0.6886 0.0
H1121 H 0.6428 0.30997 0.68714 0.0
H1122 H 0.59672 0.29709 0.6743 0.0
H1123 H 0.61415 0.28273 0.65639 0.0
H1124 H 0.12625 0.67882 0.99675 0.0
H1125 H 0.13188 0.66109 0.01588 0.0
H1126 H 0.08551 0.73992 0.02627 0.0
H1127 H 0.07874 0.75703 0.00724 0.0
H1128 H 0.16255 0.68741 0.03261 0.0
H1129 H 0.04623 0.67672 0.04369 0.0
H1130 H 0.05567 0.6795 0.02953 0.0
H1131 H 0.05119 0.7129 0.03763 0.0
C1132 C 0.11661 0.69198 0.00308 0.0
C1133 C 0.10213 0.71942 1.00046 0.0
C1134 C 0.11995 0.68186 0.01402 0.0
C1135 C 0.10864 0.69886 0.02251 0.0
C1136 C 0.09372 0.72594 0.01986 0.0
H1137 H 0.16674 0.76066 0.08213 0.0
H1138 H 0.16179 0.73862 0.06381 0.0
C1139 C 0.09031 0.736 0.00897 0.0
C1140 C 0.11504 0.69041 0.03427 0.0
H1141 H 0.08283 0.69106 0.05883 0.0
C1142 C 0.14503 0.68731 0.03832 0.0
C1143 C 0.09228 0.68928 0.04174 0.0
C1144 C 0.05954 0.68942 0.03788 0.0
C1145 C 0.15294 0.68654 0.04969 0.0
C1146 C 0.13037 0.68965 0.05717 0.0
C1147 C 0.10025 0.68925 0.05312 0.0
C1148 C 0.13749 0.69934 0.06872 0.0
C1149 C 0.18556 0.68405 0.05358 0.0
C1150 C 0.12544 0.68467 0.07765 0.0
C1151 C 0.12823 0.69748 0.08822 0.0
C1152 C 0.14282 0.72515 0.08989 0.0
C1153 C 0.15569 0.73912 0.08104 0.0
C1154 C 0.15308 0.72637 0.07059 0.0
H1155 H 0.19778 0.66993 0.04786 0.0
H1156 H 0.19582 0.70673 0.05369 0.0
H1157 H 0.18859 0.67428 0.062 0.0
H1158 H 0.11296 0.66401 0.07636 0.0
H1159 H 0.11766 0.68666 0.09491 0.0
H1160 H 0.62667 0.81709 0.25601 0.0
H1161 H 0.63319 0.80966 0.27591 0.0
H1162 H 0.70209 0.74399 0.27152 0.0
H1163 H 0.69656 0.75214 0.25157 0.0
H1164 H 0.62262 0.75601 0.28564 0.0
H1165 H 0.73857 0.79336 0.29753 0.0
H1166 H 0.71897 0.80358 0.28456 0.0
H1167 H 0.73547 0.76695 0.28635 0.0
C1168 C 0.64381 0.80166 0.25926 0.0
C1169 C 0.66106 0.78518 0.25216 0.0
C1170 C 0.64741 0.79734 0.27065 0.0
C1171 C 0.66834 0.77651 0.27522 0.0
C1172 C 0.6862 0.76058 0.26821 0.0
H1173 H 0.64521 0.68695 0.33692 0.0
H1174 H 0.66009 0.69816 0.31839 0.0
C1175 C 0.68268 0.76496 0.25679 0.0
C1176 C 0.66894 0.76916 0.28713 0.0
H1177 H 0.71334 0.76696 0.31121 0.0
C1178 C 0.64245 0.75851 0.29122 0.0
C1179 C 0.69481 0.77256 0.29442 0.0
C1180 C 0.72353 0.78499 0.29054 0.0
C1181 C 0.64109 0.75099 0.30235 0.0
C1182 C 0.66711 0.75358 0.30959 0.0
C1183 C 0.69359 0.76459 0.30559 0.0
C1184 C 0.66633 0.74567 0.32139 0.0
C1185 C 0.61158 0.74072 0.30631 0.0
C1186 C 0.66687 0.76838 0.32939 0.0
C1187 C 0.65851 0.762 0.34001 0.0
C1188 C 0.64957 0.73282 0.34274 0.0
C1189 C 0.6518 0.70966 0.33501 0.0
C1190 C 0.6603 0.71602 0.32443 0.0
H1191 H 0.59249 0.74624 0.30031 0.0
H1192 H 0.61212 0.71599 0.30746 0.0
H1193 H 0.6075 0.75119 0.31435 0.0
H1194 H 0.6715 0.7914 0.32718 0.0
H1195 H 0.65675 0.78034 0.34576 0.0
H1196 H 0.6828 0.21353 0.50137 0.0
H1197 H 0.68936 0.19762 0.52069 0.0
H1198 H 0.59357 0.19697 0.52248 0.0
H1199 H 0.58693 0.21227 0.50318 0.0
H1200 H 0.67386 0.22927 0.53753 0.0
H1201 H 0.61481 0.12086 0.53875 0.0
H1202 H 0.62467 0.13769 0.52598 0.0
H1203 H 0.59107 0.14899 0.53218 0.0
C1204 C 0.66316 0.20955 0.50586 0.0
C1205 C 0.63435 0.21414 0.50076 0.0
C1206 C 0.66693 0.20031 0.51687 0.0
C1207 C 0.64197 0.19553 0.52301 0.0
C1208 C 0.61317 0.1995 0.51785 0.0
H1209 H 0.58905 0.21801 0.58594 0.0
H1210 H 0.59532 0.20086 0.5672 0.0
C1211 C 0.60939 0.20846 0.50682 0.0
C1212 C 0.64591 0.1902 0.5351 0.0
H1213 H 0.61936 0.14886 0.55599 0.0
C1214 C 0.66262 0.21119 0.54155 0.0
C1215 C 0.6313 0.16657 0.54037 0.0
C1216 C 0.61474 0.14209 0.53393 0.0
C1217 C 0.66333 0.21054 0.5531 0.0
C1218 C 0.64716 0.18804 0.55835 0.0
C1219 C 0.63179 0.16604 0.55194 0.0
C1220 C 0.64228 0.19018 0.57024 0.0
C1221 C 0.67965 0.23522 0.55955 0.0
C1222 C 0.6662 0.18811 0.57833 0.0
C1223 C 0.66264 0.19791 0.58911 0.0
C1224 C 0.63511 0.20986 0.59185 0.0
C1225 C 0.61054 0.20904 0.58401 0.0
C1226 C 0.61408 0.19917 0.57331 0.0
H1227 H 0.68788 0.25303 0.55413 0.0
H1228 H 0.66477 0.24575 0.56538 0.0
H1229 H 0.69918 0.22556 0.56446 0.0
H1230 H 0.68809 0.18093 0.57613 0.0
H1231 H 0.68197 0.19843 0.59498 0.0
H1232 H 0.1508 0.32685 0.75315 0.0
H1233 H 0.1588 0.32111 0.77316 0.0
H1234 H 0.17581 0.22655 0.7691 0.0
H1235 H 0.16817 0.23223 0.74909 0.0
H1236 H 0.12483 0.28716 0.78547 0.0
H1237 H 0.24228 0.24855 0.79189 0.0
H1238 H 0.22732 0.26504 0.77907 0.0
H1239 H 0.22051 0.22614 0.78204 0.0
C1240 C 0.15655 0.3049 0.75652 0.0
C1241 C 0.15877 0.27997 0.74955 0.0
C1242 C 0.16128 0.30168 0.76795 0.0
C1243 C 0.16833 0.27349 0.77264 0.0
C1244 C 0.17122 0.24868 0.76568 0.0
H1245 H 0.15157 0.19119 0.83537 0.0
H1246 H 0.16558 0.20381 0.8168 0.0
C1247 C 0.16669 0.25192 0.75424 0.0
C1248 C 0.16938 0.26948 0.78479 0.0
H1249 H 0.21146 0.24137 0.80705 0.0
C1250 C 0.14397 0.27758 0.7902 0.0
C1251 C 0.1943 0.25679 0.79096 0.0
C1252 C 0.22276 0.2489 0.78571 0.0
C1253 C 0.14233 0.27249 0.80152 0.0
C1254 C 0.167 0.25932 0.80766 0.0
C1255 C 0.19266 0.25158 0.80232 0.0
C1256 C 0.16537 0.25182 0.81947 0.0
C1257 C 0.11372 0.2802 0.80674 0.0
C1258 C 0.16197 0.2746 0.82725 0.0
C1259 C 0.15388 0.26742 0.83783 0.0
C1260 C 0.14963 0.23737 0.84084 0.0
C1261 C 0.15514 0.21452 0.83329 0.0
C1262 C 0.16314 0.22169 0.8227 0.0
H1263 H 0.09495 0.28468 0.80048 0.0
H1264 H 0.10709 0.26169 0.81218 0.0
H1265 H 0.11727 0.30066 0.81186 0.0
H1266 H 0.16369 0.29798 0.82491 0.0
H1267 H 0.14885 0.28547 0.84337 0.0
loop_
_geom_bond_atom_site_label_1
_geom_bond_atom_site_label_2
_geom_bond_distance
_geom_bond_site_symmetry_2
_ccdc_geom_bond_type
C0 C1 1.264 . S
C0 C5 1.479 . S
C0 C10 1.465 . S
C1 C0 1.264 . S
C1 C3 1.339 . S
C1 H28 0.931 . S
C2 C3 1.395 . S
C2 C4 1.320 . S
C3 C1 1.339 . S
C3 C2 1.395 . S
C3 H29 0.929 . S
C4 C2 1.320 . S
C4 C5 1.405 . S
C4 H30 0.930 . S
C5 C0 1.479 . S
C5 C4 1.405 . S
C5 H31 0.931 . S
U6 O7 2.454 . S
U6 O8 2.458 . S
U6 C9 2.984 . S
U6 C10 2.847 . S
U6 C23 2.882 . S
U6 O24 2.441 . S
U6 O25 2.420 . S
U6 O26 2.455 . S
U6 O27 2.449 . S
O7 U6 2.454 . S
O7 C9 1.353 . S
O8 U6 2.458 . S
O8 C9 1.286 . S
C9 U6 2.984 . S
C9 O7 1.353 . S
C9 O8 1.286 . S
C9 C11 1.363 . S
C10 C0 1.465 . S
C10 U6 2.847 . S
C10 O24 1.249 . S
C10 O25 1.202 . S
C11 C9 1.363 . S
C11 C13 1.408 . S
C11 C16 1.342 . S
C12 C13 1.310 . S
C12 C15 1.461 . S
C12 H32 0.932 . S
C13 C11 1.408 . S
C13 C12 1.310 . S
C13 H33 0.930 . S
C14 C15 1.474 . S
C14 C16 1.285 . S
C14 H34 0.929 . S
C15 C12 1.461 . S
C15 C14 1.474 . S
C16 C11 1.342 . S
C16 C14 1.285 . S
C16 H35 0.930 . S
C17 C20 1.424 . S
C17 C22 1.245 . S
C17 C23 1.428 . S
C18 C21 1.260 . S
C18 C22 1.477 . S
C18 H36 0.932 . S
C19 C20 1.384 . S
C19 C21 1.479 . S
C19 H37 0.929 . S
C20 C17 1.424 . S
C20 C19 1.384 . S
C20 H38 0.928 . S
C21 C18 1.260 . S
C21 C19 1.479 . S
C22 C17 1.245 . S
C22 C18 1.477 . S
C22 H39 0.932 . S
C23 U6 2.882 . S
C23 C17 1.428 . S
C23 O26 1.301 . S
C23 O27 1.282 . S
O24 U6 2.441 . S
O24 C10 1.249 . S
O25 U6 2.420 . S
O25 C10 1.202 . S
O26 U6 2.455 . S
O26 C23 1.301 . S
O27 U6 2.449 . S
O27 C23 1.282 . S
H28 C1 0.931 . S
H29 C3 0.929 . S
H30 C4 0.930 . S
H31 C5 0.931 . S
H32 C12 0.932 . S
H33 C13 0.930 . S
H34 C14 0.929 . S
H35 C16 0.930 . S
H36 C18 0.932 . S
H37 C19 0.929 . S
H38 C20 0.928 . S
H39 C22 0.932 . S
C40 C41 1.264 . S
C40 C45 1.479 . S
C40 C50 1.465 . S
C41 C40 1.264 . S
C41 C43 1.339 . S
C41 H68 0.931 . S
C42 C43 1.395 . S
C42 C44 1.320 . S
C43 C41 1.339 . S
C43 C42 1.395 . S
C43 H69 0.929 . S
C44 C42 1.320 . S
C44 C45 1.405 . S
C44 H70 0.930 . S
C45 C40 1.479 . S
C45 C44 1.405 . S
C45 H71 0.931 . S
U46 O47 2.454 . S
U46 O48 2.458 . S
U46 C49 2.984 . S
U46 C50 2.847 . S
U46 C63 2.882 . S
U46 O64 2.441 . S
U46 O65 2.420 . S
U46 O66 2.455 . S
U46 O67 2.449 . S
O47 U46 2.454 . S
O47 C49 1.353 . S
O48 U46 2.458 . S
O48 C49 1.286 . S
C49 U46 2.984 . S
C49 O47 1.353 . S
C49 O48 1.286 . S
C49 C51 1.363 . S
C50 C40 1.465 . S
C50 U46 2.847 . S
C50 O64 1.249 . S
C50 O65 1.202 . S
C51 C49 1.363 . S
C51 C53 1.408 . S
C51 C56 1.342 . S
C52 C53 1.310 . S
C52 C55 1.461 1_455 S
C52 H72 0.932 . S
C53 C51 1.408 . S
C53 C52 1.310 . S
C53 H73 0.930 . S
C54 C55 1.474 . S
C54 C56 1.285 1_655 S
C54 H74 0.929 . S
C55 C52 1.461 1_655 S
C55 C54 1.474 . S
C56 C51 1.342 . S
C56 C54 1.285 1_455 S
C56 H75 0.930 . S
C57 C60 1.424 . S
C57 C62 1.245 . S
C57 C63 1.428 . S
C58 C61 1.260 . S
C58 C62 1.477 . S
C58 H76 0.932 . S
C59 C60 1.384 . S
C59 C61 1.479 . S
C59 H77 0.929 . S
C60 C57 1.424 . S
C60 C59 1.384 . S
C60 H78 0.928 . S
C61 C58 1.260 . S
C61 C59 1.479 . S
C62 C57 1.245 . S
C62 C58 1.477 . S
C62 H79 0.932 . S
C63 U46 2.882 . S
C63 C57 1.428 . S
C63 O66 1.301 . S
C63 O67 1.282 . S
O64 U46 2.441 . S
O64 C50 1.249 . S
O65 U46 2.420 . S
O65 C50 1.202 . S
O66 U46 2.455 . S
O66 C63 1.301 . S
O67 U46 2.449 . S
O67 C63 1.282 . S
H68 C41 0.931 . S
H69 C43 0.929 . S
H70 C44 0.930 . S
H71 C45 0.931 . S
H72 C52 0.932 . S
H73 C53 0.930 . S
H74 C54 0.929 . S
H75 C56 0.930 . S
H76 C58 0.932 . S
H77 C59 0.929 . S
H78 C60 0.928 . S
H79 C62 0.932 . S
C80 C81 1.264 . S
C80 C85 1.479 . S
C80 C90 1.465 . S
C81 C80 1.264 . S
C81 C83 1.339 . S
C81 H108 0.931 . S
C82 C83 1.395 . S
C82 C84 1.320 . S
C83 C81 1.339 . S
C83 C82 1.395 . S
C83 H109 0.929 . S
C84 C82 1.320 . S
C84 C85 1.405 . S
C84 H110 0.930 . S
C85 C80 1.479 . S
C85 C84 1.405 . S
C85 H111 0.931 . S
U86 O87 2.454 . S
U86 O88 2.458 . S
U86 C89 2.984 . S
U86 C90 2.847 . S
U86 C103 2.882 . S
U86 O104 2.441 . S
U86 O105 2.420 . S
U86 O106 2.455 . S
U86 O107 2.449 . S
O87 U86 2.454 . S
O87 C89 1.353 . S
O88 U86 2.458 . S
O88 C89 1.286 . S
C89 U86 2.984 . S
C89 O87 1.353 . S
C89 O88 1.286 . S
C89 C91 1.363 . S
C90 C80 1.465 . S
C90 U86 2.847 . S
C90 O104 1.249 . S
C90 O105 1.202 . S
C91 C89 1.363 . S
C91 C93 1.408 . S
C91 C96 1.342 . S
C92 C93 1.310 . S
C92 C95 1.461 . S
C92 H112 0.932 . S
C93 C91 1.408 . S
C93 C92 1.310 . S
C93 H113 0.930 . S
C94 C95 1.474 . S
C94 C96 1.285 . S
C94 H114 0.929 . S
C95 C92 1.461 . S
C95 C94 1.474 . S
C96 C91 1.342 . S
C96 C94 1.285 . S
C96 H115 0.930 . S
C97 C100 1.424 . S
C97 C102 1.245 . S
C97 C103 1.428 . S
C98 C101 1.260 . S
C98 C102 1.477 . S
C98 H116 0.932 . S
C99 C100 1.384 . S
C99 C101 1.479 . S
C99 H117 0.929 . S
C100 C97 1.424 . S
C100 C99 1.384 . S
C100 H118 0.928 . S
C101 C98 1.260 . S
C101 C99 1.479 . S
C102 C97 1.245 . S
C102 C98 1.477 . S
C102 H119 0.932 . S
C103 U86 2.882 . S
C103 C97 1.428 . S
C103 O106 1.301 . S
C103 O107 1.282 . S
O104 U86 2.441 . S
O104 C90 1.249 . S
O105 U86 2.420 . S
O105 C90 1.202 . S
O106 U86 2.455 . S
O106 C103 1.301 . S
O107 U86 2.449 . S
O107 C103 1.282 . S
H108 C81 0.931 . S
H109 C83 0.929 . S
H110 C84 0.930 . S
H111 C85 0.931 . S
H112 C92 0.932 . S
H113 C93 0.930 . S
H114 C94 0.929 . S
H115 C96 0.930 . S
H116 C98 0.932 . S
H117 C99 0.929 . S
H118 C100 0.928 . S
H119 C102 0.932 . S
C120 C121 1.264 . S
C120 C125 1.479 . S
C120 C130 1.465 . S
C121 C120 1.264 . S
C121 C123 1.339 . S
C121 H148 0.931 . S
C122 C123 1.395 . S
C122 C124 1.320 . S
C123 C121 1.339 . S
C123 C122 1.395 . S
C123 H149 0.929 . S
C124 C122 1.320 . S
C124 C125 1.405 . S
C124 H150 0.930 . S
C125 C120 1.479 . S
C125 C124 1.405 . S
C125 H151 0.931 . S
U126 O127 2.454 . S
U126 O128 2.458 . S
U126 C129 2.984 . S
U126 C130 2.847 . S
U126 C143 2.882 . S
U126 O144 2.441 . S
U126 O145 2.420 . S
U126 O146 2.455 . S
U126 O147 2.449 . S
O127 U126 2.454 . S
O127 C129 1.353 . S
O128 U126 2.458 . S
O128 C129 1.286 . S
C129 U126 2.984 . S
C129 O127 1.353 . S
C129 O128 1.286 . S
C129 C131 1.363 . S
C130 C120 1.465 . S
C130 U126 2.847 . S
C130 O144 1.249 . S
C130 O145 1.202 . S
C131 C129 1.363 . S
C131 C133 1.408 . S
C131 C136 1.342 . S
C132 C133 1.310 . S
C132 C135 1.461 . S
C132 H152 0.932 . S
C133 C131 1.408 . S
C133 C132 1.310 . S
C133 H153 0.930 . S
C134 C135 1.474 . S
C134 C136 1.285 . S
C134 H154 0.929 . S
C135 C132 1.461 . S
C135 C134 1.474 . S
C136 C131 1.342 . S
C136 C134 1.285 . S
C136 H155 0.930 . S
C137 C140 1.424 . S
C137 C142 1.245 . S
C137 C143 1.428 . S
C138 C141 1.260 . S
C138 C142 1.477 . S
C138 H156 0.932 . S
C139 C140 1.384 . S
C139 C141 1.479 . S
C139 H157 0.929 . S
C140 C137 1.424 . S
C140 C139 1.384 . S
C140 H158 0.928 . S
C141 C138 1.260 . S
C141 C139 1.479 . S
C142 C137 1.245 . S
C142 C138 1.477 . S
C142 H159 0.932 . S
C143 U126 2.882 . S
C143 C137 1.428 . S
C143 O146 1.301 . S
C143 O147 1.282 . S
O144 U126 2.441 . S
O144 C130 1.249 . S
O145 U126 2.420 . S
O145 C130 1.202 . S
O146 U126 2.455 . S
O146 C143 1.301 . S
O147 U126 2.449 . S
O147 C143 1.282 . S
H148 C121 0.931 . S
H149 C123 0.929 . S
H150 C124 0.930 . S
H151 C125 0.931 . S
H152 C132 0.932 . S
H153 C133 0.930 . S
H154 C134 0.929 . S
H155 C136 0.930 . S
H156 C138 0.932 . S
H157 C139 0.929 . S
H158 C140 0.928 . S
H159 C142 0.932 . S
C160 C161 1.264 . S
C160 C165 1.479 . S
C160 C170 1.465 . S
C161 C160 1.264 . S
C161 C163 1.339 . S
C161 H188 0.931 . S
C162 C163 1.395 . S
C162 C164 1.320 . S
C163 C161 1.339 . S
C163 C162 1.395 . S
C163 H189 0.929 . S
C164 C162 1.320 . S
C164 C165 1.405 . S
C164 H190 0.930 . S
C165 C160 1.479 . S
C165 C164 1.405 . S
C165 H191 0.931 . S
U166 O167 2.454 . S
U166 O168 2.458 . S
U166 C169 2.984 . S
U166 C170 2.847 . S
U166 C183 2.882 . S
U166 O184 2.441 . S
U166 O185 2.420 . S
U166 O186 2.455 . S
U166 O187 2.449 . S
O167 U166 2.454 . S
O167 C169 1.353 . S
O168 U166 2.458 . S
O168 C169 1.286 . S
C169 U166 2.984 . S
C169 O167 1.353 . S
C169 O168 1.286 . S
C169 C171 1.363 . S
C170 C160 1.465 . S
C170 U166 2.847 . S
C170 O184 1.249 . S
C170 O185 1.202 . S
C171 C169 1.363 . S
C171 C173 1.408 . S
C171 C176 1.342 . S
C172 C173 1.310 . S
C172 C175 1.461 . S
C172 H192 0.932 . S
C173 C171 1.408 . S
C173 C172 1.310 . S
C173 H193 0.930 . S
C174 C175 1.474 . S
C174 C176 1.285 . S
C174 H194 0.929 . S
C175 C172 1.461 . S
C175 C174 1.474 . S
C176 C171 1.342 . S
C176 C174 1.285 . S
C176 H195 0.930 . S
C177 C180 1.424 . S
C177 C182 1.245 . S
C177 C183 1.428 . S
C178 C181 1.260 . S
C178 C182 1.477 . S
C178 H196 0.932 . S
C179 C180 1.384 . S
C179 C181 1.479 . S
C179 H197 0.929 . S
C180 C177 1.424 . S
C180 C179 1.384 . S
C180 H198 0.928 . S
C181 C178 1.260 . S
C181 C179 1.479 . S
C182 C177 1.245 . S
C182 C178 1.477 . S
C182 H199 0.932 . S
C183 U166 2.882 . S
C183 C177 1.428 . S
C183 O186 1.301 . S
C183 O187 1.282 . S
O184 U166 2.441 . S
O184 C170 1.249 . S
O185 U166 2.420 . S
O185 C170 1.202 . S
O186 U166 2.455 . S
O186 C183 1.301 . S
O187 U166 2.449 . S
O187 C183 1.282 . S
H188 C161 0.931 . S
H189 C163 0.929 . S
H190 C164 0.930 . S
H191 C165 0.931 . S
H192 C172 0.932 . S
H193 C173 0.930 . S
H194 C174 0.929 . S
H195 C176 0.930 . S
H196 C178 0.932 . S
H197 C179 0.929 . S
H198 C180 0.928 . S
H199 C182 0.932 . S
C200 C201 1.264 . S
C200 C205 1.479 . S
C200 C210 1.465 . S
C201 C200 1.264 . S
C201 C203 1.339 . S
C201 H228 0.931 . S
C202 C203 1.395 . S
C202 C204 1.320 . S
C203 C201 1.339 . S
C203 C202 1.395 . S
C203 H229 0.929 . S
C204 C202 1.320 . S
C204 C205 1.405 . S
C204 H230 0.930 . S
C205 C200 1.479 . S
C205 C204 1.405 . S
C205 H231 0.931 . S
U206 O207 2.454 . S
U206 O208 2.458 . S
U206 C209 2.984 . S
U206 C210 2.847 . S
U206 C223 2.882 . S
U206 O224 2.441 . S
U206 O225 2.420 . S
U206 O226 2.455 . S
U206 O227 2.449 . S
O207 U206 2.454 . S
O207 C209 1.353 . S
O208 U206 2.458 . S
O208 C209 1.286 . S
C209 U206 2.984 . S
C209 O207 1.353 . S
C209 O208 1.286 . S
C209 C211 1.363 . S
C210 C200 1.465 . S
C210 U206 2.847 . S
C210 O224 1.249 . S
C210 O225 1.202 . S
C211 C209 1.363 . S
C211 C213 1.408 . S
C211 C216 1.342 . S
C212 C213 1.310 . S
C212 C215 1.461 . S
C212 H232 0.932 . S
C213 C211 1.408 . S
C213 C212 1.310 . S
C213 H233 0.930 . S
C214 C215 1.474 . S
C214 C216 1.285 . S
C214 H234 0.929 . S
C215 C212 1.461 . S
C215 C214 1.474 . S
C216 C211 1.342 . S
C216 C214 1.285 . S
C216 H235 0.930 . S
C217 C220 1.424 . S
C217 C222 1.245 . S
C217 C223 1.428 . S
C218 C221 1.260 . S
C218 C222 1.477 . S
C218 H236 0.932 . S
C219 C220 1.384 . S
C219 C221 1.479 . S
C219 H237 0.929 . S
C220 C217 1.424 . S
C220 C219 1.384 . S
C220 H238 0.928 . S
C221 C218 1.260 . S
C221 C219 1.479 . S
C222 C217 1.245 . S
C222 C218 1.477 . S
C222 H239 0.932 . S
C223 U206 2.882 . S
C223 C217 1.428 . S
C223 O226 1.301 . S
C223 O227 1.282 . S
O224 U206 2.441 . S
O224 C210 1.249 . S
O225 U206 2.420 . S
O225 C210 1.202 . S
O226 U206 2.455 . S
O226 C223 1.301 . S
O227 U206 2.449 . S
O227 C223 1.282 . S
H228 C201 0.931 . S
H229 C203 0.929 . S
H230 C204 0.930 . S
H231 C205 0.931 . S
H232 C212 0.932 . S
H233 C213 0.930 . S
H234 C214 0.929 . S
H235 C216 0.930 . S
H236 C218 0.932 . S
H237 C219 0.929 . S
H238 C220 0.928 . S
H239 C222 0.932 . S
C240 C241 1.264 . S
C240 C245 1.479 . S
C240 C250 1.465 . S
C241 C240 1.264 . S
C241 C243 1.339 . S
C241 H268 0.931 . S
C242 C243 1.395 . S
C242 C244 1.320 . S
C243 C241 1.339 . S
C243 C242 1.395 . S
C243 H269 0.929 . S
C244 C242 1.320 . S
C244 C245 1.405 . S
C244 H270 0.930 . S
C245 C240 1.479 . S
C245 C244 1.405 . S
C245 H271 0.931 . S
U246 O247 2.454 . S
U246 O248 2.458 . S
U246 C249 2.984 . S
U246 C250 2.847 . S
U246 C263 2.882 . S
U246 O264 2.441 . S
U246 O265 2.420 . S
U246 O266 2.455 . S
U246 O267 2.449 . S
O247 U246 2.454 . S
O247 C249 1.353 . S
O248 U246 2.458 . S
O248 C249 1.286 . S
C249 U246 2.984 . S
C249 O247 1.353 . S
C249 O248 1.286 . S
C249 C251 1.363 . S
C250 C240 1.465 . S
C250 U246 2.847 . S
C250 O264 1.249 . S
C250 O265 1.202 . S
C251 C249 1.363 . S
C251 C253 1.408 . S
C251 C256 1.342 . S
C252 C253 1.310 . S
C252 C255 1.461 . S
C252 H272 0.932 . S
C253 C251 1.408 . S
C253 C252 1.310 . S
C253 H273 0.930 . S
C254 C255 1.474 . S
C254 C256 1.285 . S
C254 H274 0.929 . S
C255 C252 1.461 . S
C255 C254 1.474 . S
C256 C251 1.342 . S
C256 C254 1.285 . S
C256 H275 0.930 . S
C257 C260 1.424 . S
C257 C262 1.245 . S
C257 C263 1.428 . S
C258 C261 1.260 . S
C258 C262 1.477 . S
C258 H276 0.932 . S
C259 C260 1.384 . S
C259 C261 1.479 . S
C259 H277 0.929 . S
C260 C257 1.424 . S
C260 C259 1.384 . S
C260 H278 0.928 . S
C261 C258 1.260 . S
C261 C259 1.479 . S
C262 C257 1.245 . S
C262 C258 1.477 . S
C262 H279 0.932 . S
C263 U246 2.882 . S
C263 C257 1.428 . S
C263 O266 1.301 . S
C263 O267 1.282 . S
O264 U246 2.441 . S
O264 C250 1.249 . S
O265 U246 2.420 . S
O265 C250 1.202 . S
O266 U246 2.455 . S
O266 C263 1.301 . S
O267 U246 2.449 . S
O267 C263 1.282 . S
H268 C241 0.931 . S
H269 C243 0.929 . S
H270 C244 0.930 . S
H271 C245 0.931 . S
H272 C252 0.932 . S
H273 C253 0.930 . S
H274 C254 0.929 . S
H275 C256 0.930 . S
H276 C258 0.932 . S
H277 C259 0.929 . S
H278 C260 0.928 . S
H279 C262 0.932 . S
C280 C281 1.264 . S
C280 C285 1.479 . S
C280 C290 1.465 . S
C281 C280 1.264 . S
C281 C283 1.339 . S
C281 H308 0.931 . S
C282 C283 1.395 . S
C282 C284 1.320 . S
C283 C281 1.339 . S
C283 C282 1.395 . S
C283 H309 0.929 1_455 S
C284 C282 1.320 . S
C284 C285 1.405 . S
C284 H310 0.930 . S
C285 C280 1.479 . S
C285 C284 1.405 . S
C285 H311 0.931 . S
U286 O287 2.454 . S
U286 O288 2.458 . S
U286 C289 2.984 . S
U286 C290 2.847 . S
U286 C303 2.882 . S
U286 O304 2.441 . S
U286 O305 2.420 . S
U286 O306 2.455 . S
U286 O307 2.449 . S
O287 U286 2.454 . S
O287 C289 1.353 . S
O288 U286 2.458 . S
O288 C289 1.286 . S
C289 U286 2.984 . S
C289 O287 1.353 . S
C289 O288 1.286 . S
C289 C291 1.363 . S
C290 C280 1.465 . S
C290 U286 2.847 . S
C290 O304 1.249 . S
C290 O305 1.202 . S
C291 C289 1.363 . S
C291 C293 1.408 . S
C291 C296 1.342 . S
C292 C293 1.310 . S
C292 C295 1.461 . S
C292 H312 0.932 . S
C293 C291 1.408 . S
C293 C292 1.310 . S
C293 H313 0.930 . S
C294 C295 1.474 . S
C294 C296 1.285 . S
C294 H314 0.929 . S
C295 C292 1.461 . S
C295 C294 1.474 . S
C296 C291 1.342 . S
C296 C294 1.285 . S
C296 H315 0.930 . S
C297 C300 1.424 . S
C297 C302 1.245 . S
C297 C303 1.428 . S
C298 C301 1.260 . S
C298 C302 1.477 . S
C298 H316 0.932 . S
C299 C300 1.384 . S
C299 C301 1.479 . S
C299 H317 0.929 . S
C300 C297 1.424 . S
C300 C299 1.384 . S
C300 H318 0.928 . S
C301 C298 1.260 . S
C301 C299 1.479 . S
C302 C297 1.245 . S
C302 C298 1.477 . S
C302 H319 0.932 . S
C303 U286 2.882 . S
C303 C297 1.428 . S
C303 O306 1.301 . S
C303 O307 1.282 . S
O304 U286 2.441 . S
O304 C290 1.249 . S
O305 U286 2.420 . S
O305 C290 1.202 . S
O306 U286 2.455 . S
O306 C303 1.301 . S
O307 U286 2.449 . S
O307 C303 1.282 . S
H308 C281 0.931 . S
H309 C283 0.929 1_655 S
H310 C284 0.930 . S
H311 C285 0.931 . S
H312 C292 0.932 . S
H313 C293 0.930 . S
H314 C294 0.929 . S
H315 C296 0.930 . S
H316 C298 0.932 . S
H317 C299 0.929 . S
H318 C300 0.928 . S
H319 C302 0.932 . S
Zn320 O326 1.920 . S
Zn320 O332 1.898 . S
Zn320 O335 1.905 . S
Zn321 O329 1.905 . S
Zn321 O330 1.898 . S
Zn321 O338 1.920 . S
Zn322 O325 2.080 . S
Zn322 O328 2.114 . S
Zn322 O331 2.120 . S
Zn322 O333 2.120 . S
Zn322 O334 2.114 . S
Zn322 O337 2.080 . S
C323 O328 1.166 . S
C323 O329 1.182 . S
C324 O330 1.167 . S
C324 O331 1.299 . S
O325 Zn322 2.080 . S
O325 C339 1.305 . S
O326 Zn320 1.920 . S
O326 C339 1.234 . S
C327 O332 1.167 . S
C327 O333 1.299 . S
O328 Zn322 2.114 . S
O328 C323 1.166 . S
O329 Zn321 1.905 . S
O329 C323 1.182 . S
O330 Zn321 1.898 . S
O330 C324 1.167 . S
O331 Zn322 2.120 . S
O331 C324 1.299 . S
O332 Zn320 1.898 . S
O332 C327 1.167 . S
O333 Zn322 2.120 . S
O333 C327 1.299 . S
O334 Zn322 2.114 . S
O334 C336 1.166 . S
O335 Zn320 1.905 . S
O335 C336 1.182 . S
C336 O334 1.166 . S
C336 O335 1.182 . S
O337 Zn322 2.080 . S
O337 C340 1.305 . S
O338 Zn321 1.920 . S
O338 C340 1.234 . S
C339 O325 1.305 . S
C339 O326 1.234 . S
C340 O337 1.305 . S
C340 O338 1.234 . S
Zn341 O347 1.920 . S
Zn341 O353 1.898 . S
Zn341 O356 1.905 . S
Zn342 O350 1.905 . S
Zn342 O351 1.898 . S
Zn342 O359 1.920 . S
Zn343 O346 2.080 . S
Zn343 O349 2.114 . S
Zn343 O352 2.120 . S
Zn343 O354 2.120 . S
Zn343 O355 2.114 . S
Zn343 O358 2.080 . S
C344 O349 1.166 . S
C344 O350 1.182 . S
C345 O351 1.167 . S
C345 O352 1.299 . S
O346 Zn343 2.080 . S
O346 C360 1.305 . S
O347 Zn341 1.920 . S
O347 C360 1.234 . S
C348 O353 1.167 . S
C348 O354 1.299 . S
O349 Zn343 2.114 . S
O349 C344 1.166 . S
O350 Zn342 1.905 . S
O350 C344 1.182 . S
O351 Zn342 1.898 . S
O351 C345 1.167 . S
O352 Zn343 2.120 . S
O352 C345 1.299 . S
O353 Zn341 1.898 . S
O353 C348 1.167 . S
O354 Zn343 2.120 . S
O354 C348 1.299 . S
O355 Zn343 2.114 . S
O355 C357 1.166 . S
O356 Zn341 1.905 . S
O356 C357 1.182 . S
C357 O355 1.166 . S
C357 O356 1.182 . S
O358 Zn343 2.080 . S
O358 C361 1.305 . S
O359 Zn342 1.920 . S
O359 C361 1.234 . S
C360 O346 1.305 . S
C360 O347 1.234 . S
C361 O358 1.305 . S
C361 O359 1.234 . S
Zn362 O368 1.920 . S
Zn362 O374 1.898 . S
Zn362 O377 1.905 . S
Zn363 O371 1.905 . S
Zn363 O372 1.898 . S
Zn363 O380 1.920 . S
Zn364 O367 2.080 . S
Zn364 O370 2.114 . S
Zn364 O373 2.120 . S
Zn364 O375 2.120 . S
Zn364 O376 2.114 . S
Zn364 O379 2.080 . S
C365 O370 1.166 . S
C365 O371 1.182 . S
C366 O372 1.167 . S
C366 O373 1.299 . S
O367 Zn364 2.080 . S
O367 C381 1.305 . S
O368 Zn362 1.920 . S
O368 C381 1.234 . S
C369 O374 1.167 . S
C369 O375 1.299 . S
O370 Zn364 2.114 . S
O370 C365 1.166 . S
O371 Zn363 1.905 . S
O371 C365 1.182 . S
O372 Zn363 1.898 . S
O372 C366 1.167 . S
O373 Zn364 2.120 . S
O373 C366 1.299 . S
O374 Zn362 1.898 . S
O374 C369 1.167 . S
O375 Zn364 2.120 . S
O375 C369 1.299 . S
O376 Zn364 2.114 . S
O376 C378 1.166 . S
O377 Zn362 1.905 . S
O377 C378 1.182 . S
C378 O376 1.166 . S
C378 O377 1.182 . S
O379 Zn364 2.080 . S
O379 C382 1.305 . S
O380 Zn363 1.920 . S
O380 C382 1.234 . S
C381 O367 1.305 . S
C381 O368 1.234 . S
C382 O379 1.305 . S
C382 O380 1.234 . S
Zn383 O389 1.920 . S
Zn383 O395 1.898 . S
Zn383 O398 1.905 . S
Zn384 O392 1.905 . S
Zn384 O393 1.898 . S
Zn384 O401 1.920 . S
Zn385 O388 2.080 . S
Zn385 O391 2.114 . S
Zn385 O394 2.120 . S
Zn385 O396 2.120 . S
Zn385 O397 2.114 . S
Zn385 O400 2.080 . S
C386 O391 1.166 . S
C386 O392 1.182 . S
C387 O393 1.167 . S
C387 O394 1.299 . S
O388 Zn385 2.080 . S
O388 C402 1.305 . S
O389 Zn383 1.920 . S
O389 C402 1.234 . S
C390 O395 1.167 . S
C390 O396 1.299 . S
O391 Zn385 2.114 . S
O391 C386 1.166 . S
O392 Zn384 1.905 . S
O392 C386 1.182 . S
O393 Zn384 1.898 . S
O393 C387 1.167 . S
O394 Zn385 2.120 . S
O394 C387 1.299 . S
O395 Zn383 1.898 . S
O395 C390 1.167 . S
O396 Zn385 2.120 . S
O396 C390 1.299 . S
O397 Zn385 2.114 . S
O397 C399 1.166 . S
O398 Zn383 1.905 . S
O398 C399 1.182 . S
C399 O397 1.166 . S
C399 O398 1.182 . S
O400 Zn385 2.080 . S
O400 C403 1.305 . S
O401 Zn384 1.920 . S
O401 C403 1.234 . S
C402 O388 1.305 . S
C402 O389 1.234 . S
C403 O400 1.305 . S
C403 O401 1.234 . S
H404 C412 0.929 . S
H405 C414 0.930 . S
H406 C416 0.930 . S
H407 C419 0.929 . S
H408 C422 0.930 . S
H409 C424 0.960 . S
H410 C424 0.960 . S
H411 C424 0.960 . S
C412 H404 0.929 . S
C412 C413 1.377 . S
C412 C414 1.384 . S
C413 C412 1.377 . S
C413 C419 1.390 . S
C414 H405 0.930 . S
C414 C412 1.384 . S
C414 C415 1.372 . S
C415 C414 1.372 . S
C415 C416 1.400 . S
C415 C420 1.490 . S
C416 H406 0.930 . S
C416 C415 1.400 . S
C416 C419 1.386 . S
H417 C433 0.930 . S
H418 C434 0.931 . S
C419 H407 0.929 . S
C419 C413 1.390 . S
C419 C416 1.386 . S
C420 C415 1.490 . S
C420 C422 1.395 . S
C420 C423 1.403 . S
H421 C427 0.930 . S
C422 H408 0.930 . S
C422 C420 1.395 . S
C422 C425 1.403 . S
C423 C420 1.403 . S
C423 C424 1.524 . S
C423 C427 1.400 . S
C424 H409 0.960 . S
C424 H410 0.960 . S
C424 H411 0.960 . S
C424 C423 1.524 . S
C425 C422 1.403 . S
C425 C426 1.392 . S
C425 C429 1.495 . S
C426 C425 1.392 . S
C426 C427 1.385 . S
C426 C428 1.478 . S
C427 H421 0.930 . S
C427 C423 1.400 . S
C427 C426 1.385 . S
C428 C426 1.478 . S
C428 C430 1.381 . S
C428 C434 1.383 . S
C429 C425 1.495 . S
C429 H435 0.959 . S
C429 H436 0.961 . S
C429 H437 0.960 . S
C430 C428 1.381 . S
C430 C431 1.394 . S
C430 H438 0.930 . S
C431 C430 1.394 . S
C431 C432 1.383 . S
C431 H439 0.929 . S
C432 C431 1.383 . S
C432 C433 1.377 . S
C433 H417 0.930 . S
C433 C432 1.377 . S
C433 C434 1.379 . S
C434 H418 0.931 . S
C434 C428 1.383 . S
C434 C433 1.379 . S
H435 C429 0.959 . S
H436 C429 0.961 . S
H437 C429 0.960 . S
H438 C430 0.930 . S
H439 C431 0.929 . S
H440 C448 0.929 . S
H441 C450 0.930 . S
H442 C452 0.930 . S
H443 C455 0.929 . S
H444 C458 0.930 . S
H445 C460 0.960 . S
H446 C460 0.960 . S
H447 C460 0.960 . S
C448 H440 0.929 . S
C448 C449 1.377 . S
C448 C450 1.384 . S
C449 C448 1.377 . S
C449 C455 1.390 . S
C450 H441 0.930 . S
C450 C448 1.384 . S
C450 C451 1.372 . S
C451 C450 1.372 . S
C451 C452 1.400 . S
C451 C456 1.490 . S
C452 H442 0.930 . S
C452 C451 1.400 . S
C452 C455 1.386 . S
H453 C469 0.930 . S
H454 C470 0.931 . S
C455 H443 0.929 . S
C455 C449 1.390 . S
C455 C452 1.386 . S
C456 C451 1.490 . S
C456 C458 1.395 . S
C456 C459 1.403 . S
H457 C463 0.930 . S
C458 H444 0.930 . S
C458 C456 1.395 . S
C458 C461 1.403 . S
C459 C456 1.403 . S
C459 C460 1.524 . S
C459 C463 1.400 . S
C460 H445 0.960 . S
C460 H446 0.960 . S
C460 H447 0.960 . S
C460 C459 1.524 . S
C461 C458 1.403 . S
C461 C462 1.392 . S
C461 C465 1.495 . S
C462 C461 1.392 . S
C462 C463 1.385 . S
C462 C464 1.478 . S
C463 H457 0.930 . S
C463 C459 1.400 . S
C463 C462 1.385 . S
C464 C462 1.478 . S
C464 C466 1.381 . S
C464 C470 1.383 . S
C465 C461 1.495 . S
C465 H471 0.959 . S
C465 H472 0.961 . S
C465 H473 0.960 . S
C466 C464 1.381 . S
C466 C467 1.394 . S
C466 H474 0.930 . S
C467 C466 1.394 . S
C467 C468 1.383 . S
C467 H475 0.929 . S
C468 C467 1.383 . S
C468 C469 1.377 . S
C469 H453 0.930 . S
C469 C468 1.377 . S
C469 C470 1.379 . S
C470 H454 0.931 . S
C470 C464 1.383 . S
C470 C469 1.379 . S
H471 C465 0.959 . S
H472 C465 0.961 . S
H473 C465 0.960 . S
H474 C466 0.930 . S
H475 C467 0.929 . S
H476 C484 0.929 . S
H477 C486 0.930 . S
H478 C488 0.930 . S
H479 C491 0.929 . S
H480 C494 0.930 . S
H481 C496 0.960 . S
H482 C496 0.960 . S
H483 C496 0.960 . S
C484 H476 0.929 . S
C484 C485 1.377 . S
C484 C486 1.384 . S
C485 C484 1.377 . S
C485 C491 1.390 . S
C486 H477 0.930 . S
C486 C484 1.384 . S
C486 C487 1.372 . S
C487 C486 1.372 . S
C487 C488 1.400 . S
C487 C492 1.490 . S
C488 H478 0.930 . S
C488 C487 1.400 . S
C488 C491 1.386 . S
H489 C505 0.930 . S
H490 C506 0.931 . S
C491 H479 0.929 . S
C491 C485 1.390 . S
C491 C488 1.386 . S
C492 C487 1.490 . S
C492 C494 1.395 . S
C492 C495 1.403 . S
H493 C499 0.930 . S
C494 H480 0.930 . S
C494 C492 1.395 . S
C494 C497 1.403 . S
C495 C492 1.403 . S
C495 C496 1.524 . S
C495 C499 1.400 . S
C496 H481 0.960 . S
C496 H482 0.960 . S
C496 H483 0.960 . S
C496 C495 1.524 . S
C497 C494 1.403 . S
C497 C498 1.392 . S
C497 C501 1.495 . S
C498 C497 1.392 . S
C498 C499 1.385 . S
C498 C500 1.478 . S
C499 H493 0.930 . S
C499 C495 1.400 . S
C499 C498 1.385 . S
C500 C498 1.478 . S
C500 C502 1.381 . S
C500 C506 1.383 . S
C501 C497 1.495 . S
C501 H507 0.959 . S
C501 H508 0.961 . S
C501 H509 0.960 . S
C502 C500 1.381 . S
C502 C503 1.394 . S
C502 H510 0.930 . S
C503 C502 1.394 . S
C503 C504 1.383 . S
C503 H511 0.929 . S
C504 C503 1.383 . S
C504 C505 1.377 . S
C505 H489 0.930 . S
C505 C504 1.377 . S
C505 C506 1.379 . S
C506 H490 0.931 . S
C506 C500 1.383 . S
C506 C505 1.379 . S
H507 C501 0.959 . S
H508 C501 0.961 . S
H509 C501 0.960 . S
H510 C502 0.930 . S
H511 C503 0.929 . S
H512 C520 0.929 . S
H513 C522 0.930 . S
H514 C524 0.930 . S
H515 C527 0.929 . S
H516 C530 0.930 . S
H517 C532 0.960 . S
H518 C532 0.960 . S
H519 C532 0.960 . S
C520 H512 0.929 . S
C520 C521 1.377 . S
C520 C522 1.384 . S
C521 C520 1.377 . S
C521 C527 1.390 . S
C522 H513 0.930 . S
C522 C520 1.384 . S
C522 C523 1.372 . S
C523 C522 1.372 . S
C523 C524 1.400 . S
C523 C528 1.490 . S
C524 H514 0.930 . S
C524 C523 1.400 . S
C524 C527 1.386 . S
H525 C541 0.930 . S
H526 C542 0.931 . S
C527 H515 0.929 . S
C527 C521 1.390 . S
C527 C524 1.386 . S
C528 C523 1.490 . S
C528 C530 1.395 . S
C528 C531 1.403 . S
H529 C535 0.930 . S
C530 H516 0.930 . S
C530 C528 1.395 . S
C530 C533 1.403 . S
C531 C528 1.403 . S
C531 C532 1.524 . S
C531 C535 1.400 . S
C532 H517 0.960 . S
C532 H518 0.960 . S
C532 H519 0.960 . S
C532 C531 1.524 . S
C533 C530 1.403 . S
C533 C534 1.392 . S
C533 C537 1.495 . S
C534 C533 1.392 . S
C534 C535 1.385 . S
C534 C536 1.478 . S
C535 H529 0.930 . S
C535 C531 1.400 . S
C535 C534 1.385 . S
C536 C534 1.478 . S
C536 C538 1.381 . S
C536 C542 1.383 . S
C537 C533 1.495 . S
C537 H543 0.959 . S
C537 H544 0.961 . S
C537 H545 0.960 . S
C538 C536 1.381 . S
C538 C539 1.394 1_655 S
C538 H546 0.930 . S
C539 C538 1.394 1_455 S
C539 C540 1.383 . S
C539 H547 0.929 . S
C540 C539 1.383 . S
C540 C541 1.377 . S
C541 H525 0.930 . S
C541 C540 1.377 . S
C541 C542 1.379 1_455 S
C542 H526 0.931 . S
C542 C536 1.383 . S
C542 C541 1.379 1_655 S
H543 C537 0.959 . S
H544 C537 0.961 . S
H545 C537 0.960 . S
H546 C538 0.930 . S
H547 C539 0.929 . S
H548 C556 0.929 . S
H549 C558 0.930 . S
H550 C560 0.930 . S
H551 C563 0.929 . S
H552 C566 0.930 . S
H553 C568 0.960 . S
H554 C568 0.960 . S
H555 C568 0.960 . S
C556 H548 0.929 . S
C556 C557 1.377 . S
C556 C558 1.384 . S
C557 C556 1.377 . S
C557 C563 1.390 . S
C558 H549 0.930 . S
C558 C556 1.384 . S
C558 C559 1.372 . S
C559 C558 1.372 . S
C559 C560 1.400 . S
C559 C564 1.490 . S
C560 H550 0.930 . S
C560 C559 1.400 . S
C560 C563 1.386 . S
H561 C577 0.930 . S
H562 C578 0.931 . S
C563 H551 0.929 . S
C563 C557 1.390 . S
C563 C560 1.386 . S
C564 C559 1.490 . S
C564 C566 1.395 . S
C564 C567 1.403 . S
H565 C571 0.930 . S
C566 H552 0.930 . S
C566 C564 1.395 . S
C566 C569 1.403 . S
C567 C564 1.403 . S
C567 C568 1.524 . S
C567 C571 1.400 . S
C568 H553 0.960 . S
C568 H554 0.960 . S
C568 H555 0.960 . S
C568 C567 1.524 . S
C569 C566 1.403 . S
C569 C570 1.392 . S
C569 C573 1.495 . S
C570 C569 1.392 . S
C570 C571 1.385 . S
C570 C572 1.478 . S
C571 H565 0.930 . S
C571 C567 1.400 . S
C571 C570 1.385 . S
C572 C570 1.478 . S
C572 C574 1.381 . S
C572 C578 1.383 . S
C573 C569 1.495 . S
C573 H579 0.959 . S
C573 H580 0.961 . S
C573 H581 0.960 . S
C574 C572 1.381 . S
C574 C575 1.394 . S
C574 H582 0.930 . S
C575 C574 1.394 . S
C575 C576 1.383 . S
C575 H583 0.929 . S
C576 C575 1.383 . S
C576 C577 1.377 . S
C577 H561 0.930 . S
C577 C576 1.377 . S
C577 C578 1.379 . S
C578 H562 0.931 . S
C578 C572 1.383 . S
C578 C577 1.379 . S
H579 C573 0.959 . S
H580 C573 0.961 . S
H581 C573 0.960 . S
H582 C574 0.930 . S
H583 C575 0.929 . S
H584 C592 0.929 . S
H585 C594 0.930 . S
H586 C596 0.930 . S
H587 C599 0.929 . S
H588 C602 0.930 . S
H589 C604 0.960 . S
H590 C604 0.960 . S
H591 C604 0.960 . S
C592 H584 0.929 . S
C592 C593 1.377 . S
C592 C594 1.384 . S
C593 C592 1.377 . S
C593 C599 1.390 . S
C594 H585 0.930 . S
C594 C592 1.384 . S
C594 C595 1.372 . S
C595 C594 1.372 . S
C595 C596 1.400 . S
C595 C600 1.490 . S
C596 H586 0.930 . S
C596 C595 1.400 . S
C596 C599 1.386 . S
H597 C613 0.930 . S
H598 C614 0.931 . S
C599 H587 0.929 . S
C599 C593 1.390 . S
C599 C596 1.386 . S
C600 C595 1.490 . S
C600 C602 1.395 . S
C600 C603 1.403 . S
H601 C607 0.930 . S
C602 H588 0.930 . S
C602 C600 1.395 . S
C602 C605 1.403 . S
C603 C600 1.403 . S
C603 C604 1.524 . S
C603 C607 1.400 . S
C604 H589 0.960 . S
C604 H590 0.960 . S
C604 H591 0.960 . S
C604 C603 1.524 . S
C605 C602 1.403 . S
C605 C606 1.392 . S
C605 C609 1.495 . S
C606 C605 1.392 . S
C606 C607 1.385 . S
C606 C608 1.478 . S
C607 H601 0.930 . S
C607 C603 1.400 . S
C607 C606 1.385 . S
C608 C606 1.478 . S
C608 C610 1.381 1_655 S
C608 C614 1.383 . S
C609 C605 1.495 . S
C609 H615 0.959 . S
C609 H616 0.961 . S
C609 H617 0.960 . S
C610 C608 1.381 1_455 S
C610 C611 1.394 . S
C610 H618 0.930 1_455 S
C611 C610 1.394 . S
C611 C612 1.383 . S
C611 H619 0.929 . S
C612 C611 1.383 . S
C612 C613 1.377 . S
C613 H597 0.930 . S
C613 C612 1.377 . S
C613 C614 1.379 1_455 S
C614 H598 0.931 . S
C614 C608 1.383 . S
C614 C613 1.379 1_655 S
H615 C609 0.959 . S
H616 C609 0.961 . S
H617 C609 0.960 . S
H618 C610 0.930 1_655 S
H619 C611 0.929 . S
H620 C628 0.929 . S
H621 C630 0.930 . S
H622 C632 0.930 . S
H623 C635 0.929 . S
H624 C638 0.930 . S
H625 C640 0.960 . S
H626 C640 0.960 . S
H627 C640 0.960 . S
C628 H620 0.929 . S
C628 C629 1.377 . S
C628 C630 1.384 . S
C629 C628 1.377 . S
C629 C635 1.390 . S
C630 H621 0.930 . S
C630 C628 1.384 . S
C630 C631 1.372 . S
C631 C630 1.372 . S
C631 C632 1.400 . S
C631 C636 1.490 . S
C632 H622 0.930 . S
C632 C631 1.400 . S
C632 C635 1.386 . S
H633 C649 0.930 . S
H634 C650 0.931 . S
C635 H623 0.929 . S
C635 C629 1.390 . S
C635 C632 1.386 . S
C636 C631 1.490 . S
C636 C638 1.395 . S
C636 C639 1.403 . S
H637 C643 0.930 . S
C638 H624 0.930 . S
C638 C636 1.395 . S
C638 C641 1.403 . S
C639 C636 1.403 . S
C639 C640 1.524 . S
C639 C643 1.400 . S
C640 H625 0.960 . S
C640 H626 0.960 . S
C640 H627 0.960 . S
C640 C639 1.524 . S
C641 C638 1.403 . S
C641 C642 1.392 . S
C641 C645 1.495 . S
C642 C641 1.392 . S
C642 C643 1.385 . S
C642 C644 1.478 . S
C643 H637 0.930 . S
C643 C639 1.400 . S
C643 C642 1.385 . S
C644 C642 1.478 . S
C644 C646 1.381 . S
C644 C650 1.383 . S
C645 C641 1.495 . S
C645 H651 0.959 . S
C645 H652 0.961 . S
C645 H653 0.960 . S
C646 C644 1.381 . S
C646 C647 1.394 . S
C646 H654 0.930 . S
C647 C646 1.394 . S
C647 C648 1.383 . S
C647 H655 0.929 . S
C648 C647 1.383 . S
C648 C649 1.377 . S
C649 H633 0.930 . S
C649 C648 1.377 . S
C649 C650 1.379 . S
C650 H634 0.931 . S
C650 C644 1.383 . S
C650 C649 1.379 . S
H651 C645 0.959 . S
H652 C645 0.961 . S
H653 C645 0.960 . S
H654 C646 0.930 . S
H655 C647 0.929 . S
H656 C664 0.929 . S
H657 C666 0.930 . S
H658 C668 0.930 . S
H659 C671 0.929 . S
H660 C674 0.930 . S
H661 C676 0.960 . S
H662 C676 0.960 . S
H663 C676 0.960 . S
C664 H656 0.929 . S
C664 C665 1.377 . S
C664 C666 1.384 . S
C665 C664 1.377 . S
C665 C671 1.390 . S
C666 H657 0.930 . S
C666 C664 1.384 . S
C666 C667 1.372 . S
C667 C666 1.372 . S
C667 C668 1.400 . S
C667 C672 1.490 . S
C668 H658 0.930 . S
C668 C667 1.400 . S
C668 C671 1.386 . S
H669 C685 0.930 . S
H670 C686 0.931 . S
C671 H659 0.929 . S
C671 C665 1.390 . S
C671 C668 1.386 . S
C672 C667 1.490 . S
C672 C674 1.395 . S
C672 C675 1.403 . S
H673 C679 0.930 . S
C674 H660 0.930 . S
C674 C672 1.395 . S
C674 C677 1.403 . S
C675 C672 1.403 . S
C675 C676 1.524 . S
C675 C679 1.400 . S
C676 H661 0.960 . S
C676 H662 0.960 . S
C676 H663 0.960 . S
C676 C675 1.524 . S
C677 C674 1.403 . S
C677 C678 1.392 . S
C677 C681 1.495 . S
C678 C677 1.392 . S
C678 C679 1.385 . S
C678 C680 1.478 . S
C679 H673 0.930 . S
C679 C675 1.400 . S
C679 C678 1.385 . S
C680 C678 1.478 . S
C680 C682 1.381 . S
C680 C686 1.383 . S
C681 C677 1.495 . S
C681 H687 0.959 . S
C681 H688 0.961 . S
C681 H689 0.960 . S
C682 C680 1.381 . S
C682 C683 1.394 . S
C682 H690 0.930 . S
C683 C682 1.394 . S
C683 C684 1.383 . S
C683 H691 0.929 . S
C684 C683 1.383 . S
C684 C685 1.377 . S
C685 H669 0.930 . S
C685 C684 1.377 . S
C685 C686 1.379 . S
C686 H670 0.931 . S
C686 C680 1.383 . S
C686 C685 1.379 . S
H687 C681 0.959 . S
H688 C681 0.961 . S
H689 C681 0.960 . S
H690 C682 0.930 . S
H691 C683 0.929 . S
H692 C700 0.929 . S
H693 C702 0.930 . S
H694 C704 0.930 . S
H695 C707 0.929 . S
H696 C710 0.930 . S
H697 C712 0.960 . S
H698 C712 0.960 . S
H699 C712 0.960 . S
C700 H692 0.929 . S
C700 C701 1.377 . S
C700 C702 1.384 . S
C701 C700 1.377 . S
C701 C707 1.390 . S
C702 H693 0.930 . S
C702 C700 1.384 . S
C702 C703 1.372 . S
C703 C702 1.372 . S
C703 C704 1.400 . S
C703 C708 1.490 . S
C704 H694 0.930 . S
C704 C703 1.400 . S
C704 C707 1.386 . S
H705 C721 0.930 . S
H706 C722 0.931 . S
C707 H695 0.929 . S
C707 C701 1.390 . S
C707 C704 1.386 . S
C708 C703 1.490 . S
C708 C710 1.395 . S
C708 C711 1.403 . S
H709 C715 0.930 . S
C710 H696 0.930 . S
C710 C708 1.395 . S
C710 C713 1.403 . S
C711 C708 1.403 . S
C711 C712 1.524 . S
C711 C715 1.400 . S
C712 H697 0.960 . S
C712 H698 0.960 . S
C712 H699 0.960 . S
C712 C711 1.524 . S
C713 C710 1.403 . S
C713 C714 1.392 . S
C713 C717 1.495 . S
C714 C713 1.392 . S
C714 C715 1.385 . S
C714 C716 1.478 . S
C715 H709 0.930 . S
C715 C711 1.400 . S
C715 C714 1.385 . S
C716 C714 1.478 . S
C716 C718 1.381 . S
C716 C722 1.383 . S
C717 C713 1.495 . S
C717 H723 0.959 . S
C717 H724 0.961 . S
C717 H725 0.960 . S
C718 C716 1.381 . S
C718 C719 1.394 . S
C718 H726 0.930 . S
C719 C718 1.394 . S
C719 C720 1.383 . S
C719 H727 0.929 . S
C720 C719 1.383 . S
C720 C721 1.377 . S
C721 H705 0.930 . S
C721 C720 1.377 . S
C721 C722 1.379 . S
C722 H706 0.931 . S
C722 C716 1.383 . S
C722 C721 1.379 . S
H723 C717 0.959 . S
H724 C717 0.961 . S
H725 C717 0.960 . S
H726 C718 0.930 . S
H727 C719 0.929 . S
H728 C736 0.929 . S
H729 C738 0.930 . S
H730 C740 0.930 . S
H731 C743 0.929 . S
H732 C746 0.930 . S
H733 C748 0.960 . S
H734 C748 0.960 . S
H735 C748 0.960 . S
C736 H728 0.929 . S
C736 C737 1.377 . S
C736 C738 1.384 . S
C737 C736 1.377 . S
C737 C743 1.390 . S
C738 H729 0.930 . S
C738 C736 1.384 . S
C738 C739 1.372 . S
C739 C738 1.372 . S
C739 C740 1.400 . S
C739 C744 1.490 . S
C740 H730 0.930 . S
C740 C739 1.400 . S
C740 C743 1.386 . S
H741 C757 0.930 . S
H742 C758 0.931 . S
C743 H731 0.929 . S
C743 C737 1.390 . S
C743 C740 1.386 . S
C744 C739 1.490 . S
C744 C746 1.395 . S
C744 C747 1.403 . S
H745 C751 0.930 . S
C746 H732 0.930 . S
C746 C744 1.395 . S
C746 C749 1.403 . S
C747 C744 1.403 . S
C747 C748 1.524 . S
C747 C751 1.400 . S
C748 H733 0.960 . S
C748 H734 0.960 . S
C748 H735 0.960 . S
C748 C747 1.524 . S
C749 C746 1.403 . S
C749 C750 1.392 . S
C749 C753 1.495 . S
C750 C749 1.392 . S
C750 C751 1.385 . S
C750 C752 1.478 . S
C751 H745 0.930 . S
C751 C747 1.400 . S
C751 C750 1.385 . S
C752 C750 1.478 . S
C752 C754 1.381 . S
C752 C758 1.383 . S
C753 C749 1.495 . S
C753 H759 0.959 . S
C753 H760 0.961 . S
C753 H761 0.960 . S
C754 C752 1.381 . S
C754 C755 1.394 . S
C754 H762 0.930 . S
C755 C754 1.394 . S
C755 C756 1.383 . S
C755 H763 0.929 . S
C756 C755 1.383 . S
C756 C757 1.377 . S
C757 H741 0.930 . S
C757 C756 1.377 . S
C757 C758 1.379 . S
C758 H742 0.931 . S
C758 C752 1.383 . S
C758 C757 1.379 . S
H759 C753 0.959 . S
H760 C753 0.961 . S
H761 C753 0.960 . S
H762 C754 0.930 . S
H763 C755 0.929 . S
H764 C772 0.929 . S
H765 C774 0.930 . S
H766 C776 0.930 . S
H767 C779 0.929 . S
H768 C782 0.930 . S
H769 C784 0.960 . S
H770 C784 0.960 . S
H771 C784 0.960 . S
C772 H764 0.929 . S
C772 C773 1.377 . S
C772 C774 1.384 . S
C773 C772 1.377 . S
C773 C779 1.390 . S
C774 H765 0.930 . S
C774 C772 1.384 . S
C774 C775 1.372 . S
C775 C774 1.372 . S
C775 C776 1.400 . S
C775 C780 1.490 . S
C776 H766 0.930 . S
C776 C775 1.400 . S
C776 C779 1.386 . S
H777 C793 0.930 . S
H778 C794 0.931 . S
C779 H767 0.929 . S
C779 C773 1.390 . S
C779 C776 1.386 . S
C780 C775 1.490 . S
C780 C782 1.395 . S
C780 C783 1.403 . S
H781 C787 0.930 . S
C782 H768 0.930 . S
C782 C780 1.395 . S
C782 C785 1.403 . S
C783 C780 1.403 . S
C783 C784 1.524 . S
C783 C787 1.400 . S
C784 H769 0.960 . S
C784 H770 0.960 . S
C784 H771 0.960 . S
C784 C783 1.524 . S
C785 C782 1.403 . S
C785 C786 1.392 . S
C785 C789 1.495 . S
C786 C785 1.392 . S
C786 C787 1.385 . S
C786 C788 1.478 . S
C787 H781 0.930 . S
C787 C783 1.400 . S
C787 C786 1.385 . S
C788 C786 1.478 . S
C788 C790 1.381 . S
C788 C794 1.383 . S
C789 C785 1.495 . S
C789 H795 0.959 . S
C789 H796 0.961 . S
C789 H797 0.960 . S
C790 C788 1.381 . S
C790 C791 1.394 . S
C790 H798 0.930 . S
C791 C790 1.394 . S
C791 C792 1.383 . S
C791 H799 0.929 . S
C792 C791 1.383 . S
C792 C793 1.377 . S
C793 H777 0.930 . S
C793 C792 1.377 . S
C793 C794 1.379 . S
C794 H778 0.931 . S
C794 C788 1.383 . S
C794 C793 1.379 . S
H795 C789 0.959 . S
H796 C789 0.961 . S
H797 C789 0.960 . S
H798 C790 0.930 . S
H799 C791 0.929 . S
H800 C808 0.929 . S
H801 C810 0.930 . S
H802 C812 0.930 . S
H803 C815 0.929 . S
H804 C818 0.930 . S
H805 C820 0.960 . S
H806 C820 0.960 . S
H807 C820 0.960 . S
C808 H800 0.929 . S
C808 C809 1.377 . S
C808 C810 1.384 . S
C809 C808 1.377 . S
C809 C815 1.390 . S
C810 H801 0.930 . S
C810 C808 1.384 . S
C810 C811 1.372 . S
C811 C810 1.372 . S
C811 C812 1.400 . S
C811 C816 1.490 . S
C812 H802 0.930 . S
C812 C811 1.400 . S
C812 C815 1.386 . S
H813 C829 0.930 . S
H814 C830 0.931 . S
C815 H803 0.929 . S
C815 C809 1.390 . S
C815 C812 1.386 . S
C816 C811 1.490 . S
C816 C818 1.395 . S
C816 C819 1.403 . S
H817 C823 0.930 . S
C818 H804 0.930 . S
C818 C816 1.395 . S
C818 C821 1.403 . S
C819 C816 1.403 . S
C819 C820 1.524 . S
C819 C823 1.400 . S
C820 H805 0.960 . S
C820 H806 0.960 . S
C820 H807 0.960 . S
C820 C819 1.524 . S
C821 C818 1.403 . S
C821 C822 1.392 . S
C821 C825 1.495 . S
C822 C821 1.392 . S
C822 C823 1.385 . S
C822 C824 1.478 . S
C823 H817 0.930 . S
C823 C819 1.400 . S
C823 C822 1.385 . S
C824 C822 1.478 . S
C824 C826 1.381 . S
C824 C830 1.383 . S
C825 C821 1.495 . S
C825 H831 0.959 . S
C825 H832 0.961 . S
C825 H833 0.960 . S
C826 C824 1.381 . S
C826 C827 1.394 . S
C826 H834 0.930 . S
C827 C826 1.394 . S
C827 C828 1.383 . S
C827 H835 0.929 . S
C828 C827 1.383 . S
C828 C829 1.377 . S
C829 H813 0.930 . S
C829 C828 1.377 . S
C829 C830 1.379 . S
C830 H814 0.931 . S
C830 C824 1.383 . S
C830 C829 1.379 . S
H831 C825 0.959 . S
H832 C825 0.961 . S
H833 C825 0.960 . S
H834 C826 0.930 . S
H835 C827 0.929 . S
H836 C844 0.929 . S
H837 C846 0.930 . S
H838 C848 0.930 . S
H839 C851 0.929 . S
H840 C854 0.930 1_565 S
H841 C856 0.960 . S
H842 C856 0.960 . S
H843 C856 0.960 . S
C844 H836 0.929 . S
C844 C845 1.377 . S
C844 C846 1.384 . S
C845 C844 1.377 . S
C845 C851 1.390 . S
C846 H837 0.930 . S
C846 C844 1.384 . S
C846 C847 1.372 . S
C847 C846 1.372 . S
C847 C848 1.400 . S
C847 C852 1.490 . S
C848 H838 0.930 . S
C848 C847 1.400 . S
C848 C851 1.386 . S
H849 C865 0.930 . S
H850 C866 0.931 . S
C851 H839 0.929 . S
C851 C845 1.390 . S
C851 C848 1.386 . S
C852 C847 1.490 . S
C852 C854 1.395 1_565 S
C852 C855 1.403 1_565 S
H853 C859 0.930 . S
C854 H840 0.930 1_545 S
C854 C852 1.395 1_545 S
C854 C857 1.403 . S
C855 C852 1.403 1_545 S
C855 C856 1.524 . S
C855 C859 1.400 . S
C856 H841 0.960 . S
C856 H842 0.960 . S
C856 H843 0.960 . S
C856 C855 1.524 . S
C857 C854 1.403 . S
C857 C858 1.392 . S
C857 C861 1.495 . S
C858 C857 1.392 . S
C858 C859 1.385 . S
C858 C860 1.478 . S
C859 H853 0.930 . S
C859 C855 1.400 . S
C859 C858 1.385 . S
C860 C858 1.478 . S
C860 C862 1.381 . S
C860 C866 1.383 . S
C861 C857 1.495 . S
C861 H867 0.959 . S
C861 H868 0.961 . S
C861 H869 0.960 . S
C862 C860 1.381 . S
C862 C863 1.394 . S
C862 H870 0.930 . S
C863 C862 1.394 . S
C863 C864 1.383 . S
C863 H871 0.929 . S
C864 C863 1.383 . S
C864 C865 1.377 . S
C865 H849 0.930 . S
C865 C864 1.377 . S
C865 C866 1.379 . S
C866 H850 0.931 . S
C866 C860 1.383 . S
C866 C865 1.379 . S
H867 C861 0.959 . S
H868 C861 0.961 . S
H869 C861 0.960 . S
H870 C862 0.930 . S
H871 C863 0.929 . S
H872 C880 0.929 . S
H873 C882 0.930 . S
H874 C884 0.930 . S
H875 C887 0.929 . S
H876 C890 0.930 . S
H877 C892 0.960 . S
H878 C892 0.960 1_545 S
H879 C892 0.960 1_545 S
C880 H872 0.929 . S
C880 C881 1.377 . S
C880 C882 1.384 . S
C881 C880 1.377 . S
C881 C887 1.390 . S
C882 H873 0.930 . S
C882 C880 1.384 . S
C882 C883 1.372 . S
C883 C882 1.372 . S
C883 C884 1.400 . S
C883 C888 1.490 1_545 S
C884 H874 0.930 . S
C884 C883 1.400 . S
C884 C887 1.386 . S
H885 C901 0.930 . S
H886 C902 0.931 . S
C887 H875 0.929 . S
C887 C881 1.390 . S
C887 C884 1.386 . S
C888 C883 1.490 1_565 S
C888 C890 1.395 . S
C888 C891 1.403 . S
H889 C895 0.930 . S
C890 H876 0.930 . S
C890 C888 1.395 . S
C890 C893 1.403 . S
C891 C888 1.403 . S
C891 C892 1.524 . S
C891 C895 1.400 . S
C892 H877 0.960 . S
C892 H878 0.960 1_565 S
C892 H879 0.960 1_565 S
C892 C891 1.524 . S
C893 C890 1.403 . S
C893 C894 1.392 . S
C893 C897 1.495 . S
C894 C893 1.392 . S
C894 C895 1.385 . S
C894 C896 1.478 . S
C895 H889 0.930 . S
C895 C891 1.400 . S
C895 C894 1.385 . S
C896 C894 1.478 . S
C896 C898 1.381 . S
C896 C902 1.383 . S
C897 C893 1.495 . S
C897 H903 0.959 . S
C897 H904 0.961 . S
C897 H905 0.960 . S
C898 C896 1.381 . S
C898 C899 1.394 . S
C898 H906 0.930 . S
C899 C898 1.394 . S
C899 C900 1.383 . S
C899 H907 0.929 . S
C900 C899 1.383 . S
C900 C901 1.377 . S
C901 H885 0.930 . S
C901 C900 1.377 . S
C901 C902 1.379 . S
C902 H886 0.931 . S
C902 C896 1.383 . S
C902 C901 1.379 . S
H903 C897 0.959 . S
H904 C897 0.961 . S
H905 C897 0.960 . S
H906 C898 0.930 . S
H907 C899 0.929 . S
H908 C916 0.929 . S
H909 C918 0.930 . S
H910 C920 0.930 . S
H911 C923 0.929 . S
H912 C926 0.930 . S
H913 C928 0.960 . S
H914 C928 0.960 . S
H915 C928 0.960 . S
C916 H908 0.929 . S
C916 C917 1.377 . S
C916 C918 1.384 . S
C917 C916 1.377 . S
C917 C923 1.390 . S
C918 H909 0.930 . S
C918 C916 1.384 . S
C918 C919 1.372 . S
C919 C918 1.372 . S
C919 C920 1.400 . S
C919 C924 1.490 1_545 S
C920 H910 0.930 . S
C920 C919 1.400 . S
C920 C923 1.386 . S
H921 C937 0.930 . S
H922 C938 0.931 . S
C923 H911 0.929 . S
C923 C917 1.390 . S
C923 C920 1.386 . S
C924 C919 1.490 1_565 S
C924 C926 1.395 . S
C924 C927 1.403 . S
H925 C931 0.930 . S
C926 H912 0.930 . S
C926 C924 1.395 . S
C926 C929 1.403 . S
C927 C924 1.403 . S
C927 C928 1.524 . S
C927 C931 1.400 . S
C928 H913 0.960 . S
C928 H914 0.960 . S
C928 H915 0.960 . S
C928 C927 1.524 . S
C929 C926 1.403 . S
C929 C930 1.392 . S
C929 C933 1.495 . S
C930 C929 1.392 . S
C930 C931 1.385 . S
C930 C932 1.478 . S
C931 H925 0.930 . S
C931 C927 1.400 . S
C931 C930 1.385 . S
C932 C930 1.478 . S
C932 C934 1.381 . S
C932 C938 1.383 . S
C933 C929 1.495 . S
C933 H939 0.959 . S
C933 H940 0.961 . S
C933 H941 0.960 . S
C934 C932 1.381 . S
C934 C935 1.394 . S
C934 H942 0.930 . S
C935 C934 1.394 . S
C935 C936 1.383 . S
C935 H943 0.929 . S
C936 C935 1.383 . S
C936 C937 1.377 . S
C937 H921 0.930 . S
C937 C936 1.377 . S
C937 C938 1.379 . S
C938 H922 0.931 . S
C938 C932 1.383 . S
C938 C937 1.379 . S
H939 C933 0.959 . S
H940 C933 0.961 . S
H941 C933 0.960 . S
H942 C934 0.930 . S
H943 C935 0.929 . S
H944 C952 0.929 . S
H945 C954 0.930 . S
H946 C956 0.930 . S
H947 C959 0.929 . S
H948 C962 0.930 1_565 S
H949 C964 0.960 . S
H950 C964 0.960 . S
H951 C964 0.960 . S
C952 H944 0.929 . S
C952 C953 1.377 . S
C952 C954 1.384 . S
C953 C952 1.377 . S
C953 C959 1.390 . S
C954 H945 0.930 . S
C954 C952 1.384 . S
C954 C955 1.372 . S
C955 C954 1.372 . S
C955 C956 1.400 . S
C955 C960 1.490 . S
C956 H946 0.930 . S
C956 C955 1.400 . S
C956 C959 1.386 . S
H957 C973 0.930 . S
H958 C974 0.931 . S
C959 H947 0.929 . S
C959 C953 1.390 . S
C959 C956 1.386 . S
C960 C955 1.490 . S
C960 C962 1.395 1_565 S
C960 C963 1.403 1_565 S
H961 C967 0.930 . S
C962 H948 0.930 1_545 S
C962 C960 1.395 1_545 S
C962 C965 1.403 . S
C963 C960 1.403 1_545 S
C963 C964 1.524 . S
C963 C967 1.400 . S
C964 H949 0.960 . S
C964 H950 0.960 . S
C964 H951 0.960 . S
C964 C963 1.524 . S
C965 C962 1.403 . S
C965 C966 1.392 . S
C965 C969 1.495 . S
C966 C965 1.392 . S
C966 C967 1.385 . S
C966 C968 1.478 . S
C967 H961 0.930 . S
C967 C963 1.400 . S
C967 C966 1.385 . S
C968 C966 1.478 . S
C968 C970 1.381 . S
C968 C974 1.383 . S
C969 C965 1.495 . S
C969 H975 0.959 . S
C969 H976 0.961 . S
C969 H977 0.960 . S
C970 C968 1.381 . S
C970 C971 1.394 . S
C970 H978 0.930 . S
C971 C970 1.394 . S
C971 C972 1.383 . S
C971 H979 0.929 . S
C972 C971 1.383 . S
C972 C973 1.377 . S
C973 H957 0.930 . S
C973 C972 1.377 . S
C973 C974 1.379 . S
C974 H958 0.931 . S
C974 C968 1.383 . S
C974 C973 1.379 . S
H975 C969 0.959 . S
H976 C969 0.961 . S
H977 C969 0.960 . S
H978 C970 0.930 . S
H979 C971 0.929 . S
H980 C988 0.929 . S
H981 C990 0.930 . S
H982 C992 0.930 . S
H983 C995 0.929 . S
H984 C998 0.930 . S
H985 C1000 0.960 . S
H986 C1000 0.960 . S
H987 C1000 0.960 . S
C988 H980 0.929 . S
C988 C989 1.359 1_556 S
C988 C990 1.384 . S
C989 C988 1.359 1_554 S
C989 C995 1.370 1_554 S
C990 H981 0.930 . S
C990 C988 1.384 . S
C990 C991 1.372 . S
C991 C990 1.372 . S
C991 C992 1.400 . S
C991 C996 1.490 . S
C992 H982 0.930 . S
C992 C991 1.400 . S
C992 C995 1.386 . S
H993 C1009 0.930 . S
H994 C1010 0.931 . S
C995 H983 0.929 . S
C995 C989 1.370 1_556 S
C995 C992 1.386 . S
C996 C991 1.490 . S
C996 C998 1.395 . S
C996 C999 1.403 . S
H997 C1003 0.930 . S
C998 H984 0.930 . S
C998 C996 1.395 . S
C998 C1001 1.403 . S
C999 C996 1.403 . S
C999 C1000 1.524 . S
C999 C1003 1.400 . S
C1000 H985 0.960 . S
C1000 H986 0.960 . S
C1000 H987 0.960 . S
C1000 C999 1.524 . S
C1001 C998 1.403 . S
C1001 C1002 1.392 . S
C1001 C1005 1.495 . S
C1002 C1001 1.392 . S
C1002 C1003 1.385 . S
C1002 C1004 1.478 . S
C1003 H997 0.930 . S
C1003 C999 1.400 . S
C1003 C1002 1.385 . S
C1004 C1002 1.478 . S
C1004 C1006 1.381 . S
C1004 C1010 1.383 . S
C1005 C1001 1.495 . S
C1005 H1011 0.959 . S
C1005 H1012 0.961 . S
C1005 H1013 0.960 . S
C1006 C1004 1.381 . S
C1006 C1007 1.394 . S
C1006 H1014 0.930 . S
C1007 C1006 1.394 . S
C1007 C1008 1.383 . S
C1007 H1015 0.929 . S
C1008 C1007 1.383 . S
C1008 C1009 1.377 . S
C1009 H993 0.930 . S
C1009 C1008 1.377 . S
C1009 C1010 1.379 . S
C1010 H994 0.931 . S
C1010 C1004 1.383 . S
C1010 C1009 1.379 . S
H1011 C1005 0.959 . S
H1012 C1005 0.961 . S
H1013 C1005 0.960 . S
H1014 C1006 0.930 . S
H1015 C1007 0.929 . S
H1016 C1024 0.929 . S
H1017 C1026 0.930 . S
H1018 C1028 0.930 . S
H1019 C1031 0.929 . S
H1020 C1034 0.930 . S
H1021 C1036 0.960 . S
H1022 C1036 0.960 . S
H1023 C1036 0.960 . S
C1024 H1016 0.929 . S
C1024 C1025 1.377 . S
C1024 C1026 1.384 . S
C1025 C1024 1.377 . S
C1025 C1031 1.390 . S
C1026 H1017 0.930 . S
C1026 C1024 1.384 . S
C1026 C1027 1.372 . S
C1027 C1026 1.372 . S
C1027 C1028 1.400 . S
C1027 C1032 1.490 . S
C1028 H1018 0.930 . S
C1028 C1027 1.400 . S
C1028 C1031 1.386 . S
H1029 C1045 0.930 . S
H1030 C1046 0.931 . S
C1031 H1019 0.929 . S
C1031 C1025 1.390 . S
C1031 C1028 1.386 . S
C1032 C1027 1.490 . S
C1032 C1034 1.395 . S
C1032 C1035 1.403 . S
H1033 C1039 0.930 . S
C1034 H1020 0.930 . S
C1034 C1032 1.395 . S
C1034 C1037 1.403 . S
C1035 C1032 1.403 . S
C1035 C1036 1.524 . S
C1035 C1039 1.400 . S
C1036 H1021 0.960 . S
C1036 H1022 0.960 . S
C1036 H1023 0.960 . S
C1036 C1035 1.524 . S
C1037 C1034 1.403 . S
C1037 C1038 1.392 . S
C1037 C1041 1.495 . S
C1038 C1037 1.392 . S
C1038 C1039 1.385 . S
C1038 C1040 1.478 . S
C1039 H1033 0.930 . S
C1039 C1035 1.400 . S
C1039 C1038 1.385 . S
C1040 C1038 1.478 . S
C1040 C1042 1.381 . S
C1040 C1046 1.383 . S
C1041 C1037 1.495 . S
C1041 H1047 0.959 . S
C1041 H1048 0.961 . S
C1041 H1049 0.960 . S
C1042 C1040 1.381 . S
C1042 C1043 1.394 . S
C1042 H1050 0.930 . S
C1043 C1042 1.394 . S
C1043 C1044 1.383 . S
C1043 H1051 0.929 . S
C1044 C1043 1.383 . S
C1044 C1045 1.377 . S
C1045 H1029 0.930 . S
C1045 C1044 1.377 . S
C1045 C1046 1.379 . S
C1046 H1030 0.931 . S
C1046 C1040 1.383 . S
C1046 C1045 1.379 . S
H1047 C1041 0.959 . S
H1048 C1041 0.961 . S
H1049 C1041 0.960 . S
H1050 C1042 0.930 . S
H1051 C1043 0.929 . S
H1052 C1060 0.929 . S
H1053 C1062 0.930 . S
H1054 C1064 0.930 . S
H1055 C1067 0.929 . S
H1056 C1070 0.930 . S
H1057 C1072 0.960 . S
H1058 C1072 0.960 . S
H1059 C1072 0.960 . S
C1060 H1052 0.929 . S
C1060 C1061 1.377 . S
C1060 C1062 1.384 . S
C1061 C1060 1.377 . S
C1061 C1067 1.390 . S
C1062 H1053 0.930 . S
C1062 C1060 1.384 . S
C1062 C1063 1.372 . S
C1063 C1062 1.372 . S
C1063 C1064 1.400 . S
C1063 C1068 1.490 . S
C1064 H1054 0.930 . S
C1064 C1063 1.400 . S
C1064 C1067 1.386 . S
H1065 C1081 0.930 . S
H1066 C1082 0.931 . S
C1067 H1055 0.929 . S
C1067 C1061 1.390 . S
C1067 C1064 1.386 . S
C1068 C1063 1.490 . S
C1068 C1070 1.395 . S
C1068 C1071 1.403 . S
H1069 C1075 0.930 . S
C1070 H1056 0.930 . S
C1070 C1068 1.395 . S
C1070 C1073 1.403 . S
C1071 C1068 1.403 . S
C1071 C1072 1.524 . S
C1071 C1075 1.400 . S
C1072 H1057 0.960 . S
C1072 H1058 0.960 . S
C1072 H1059 0.960 . S
C1072 C1071 1.524 . S
C1073 C1070 1.403 . S
C1073 C1074 1.392 . S
C1073 C1077 1.495 . S
C1074 C1073 1.392 . S
C1074 C1075 1.385 . S
C1074 C1076 1.478 . S
C1075 H1069 0.930 . S
C1075 C1071 1.400 . S
C1075 C1074 1.385 . S
C1076 C1074 1.478 . S
C1076 C1078 1.381 . S
C1076 C1082 1.383 . S
C1077 C1073 1.495 . S
C1077 H1083 0.959 . S
C1077 H1084 0.961 . S
C1077 H1085 0.960 . S
C1078 C1076 1.381 . S
C1078 C1079 1.394 . S
C1078 H1086 0.930 . S
C1079 C1078 1.394 . S
C1079 C1080 1.383 . S
C1079 H1087 0.929 . S
C1080 C1079 1.383 . S
C1080 C1081 1.377 . S
C1081 H1065 0.930 . S
C1081 C1080 1.377 . S
C1081 C1082 1.379 . S
C1082 H1066 0.931 . S
C1082 C1076 1.383 . S
C1082 C1081 1.379 . S
H1083 C1077 0.959 . S
H1084 C1077 0.961 . S
H1085 C1077 0.960 . S
H1086 C1078 0.930 . S
H1087 C1079 0.929 . S
H1088 C1096 0.929 . S
H1089 C1098 0.930 . S
H1090 C1100 0.930 . S
H1091 C1103 0.929 . S
H1092 C1106 0.930 . S
H1093 C1108 0.960 . S
H1094 C1108 0.960 . S
H1095 C1108 0.960 . S
C1096 H1088 0.929 . S
C1096 C1097 1.377 . S
C1096 C1098 1.384 . S
C1097 C1096 1.377 . S
C1097 C1103 1.390 . S
C1098 H1089 0.930 . S
C1098 C1096 1.384 . S
C1098 C1099 1.372 . S
C1099 C1098 1.372 . S
C1099 C1100 1.400 . S
C1099 C1104 1.490 . S
C1100 H1090 0.930 . S
C1100 C1099 1.400 . S
C1100 C1103 1.386 . S
H1101 C1117 0.930 . S
H1102 C1118 0.931 . S
C1103 H1091 0.929 . S
C1103 C1097 1.390 . S
C1103 C1100 1.386 . S
C1104 C1099 1.490 . S
C1104 C1106 1.395 . S
C1104 C1107 1.403 . S
H1105 C1111 0.930 . S
C1106 H1092 0.930 . S
C1106 C1104 1.395 . S
C1106 C1109 1.403 . S
C1107 C1104 1.403 . S
C1107 C1108 1.524 . S
C1107 C1111 1.400 . S
C1108 H1093 0.960 . S
C1108 H1094 0.960 . S
C1108 H1095 0.960 . S
C1108 C1107 1.524 . S
C1109 C1106 1.403 . S
C1109 C1110 1.392 . S
C1109 C1113 1.495 . S
C1110 C1109 1.392 . S
C1110 C1111 1.385 . S
C1110 C1112 1.478 . S
C1111 H1105 0.930 . S
C1111 C1107 1.400 . S
C1111 C1110 1.385 . S
C1112 C1110 1.478 . S
C1112 C1114 1.381 . S
C1112 C1118 1.383 . S
C1113 C1109 1.495 . S
C1113 H1119 0.959 . S
C1113 H1120 0.961 . S
C1113 H1121 0.960 . S
C1114 C1112 1.381 . S
C1114 C1115 1.394 . S
C1114 H1122 0.930 . S
C1115 C1114 1.394 . S
C1115 C1116 1.383 . S
C1115 H1123 0.929 . S
C1116 C1115 1.383 . S
C1116 C1117 1.377 . S
C1117 H1101 0.930 . S
C1117 C1116 1.377 . S
C1117 C1118 1.379 . S
C1118 H1102 0.931 . S
C1118 C1112 1.383 . S
C1118 C1117 1.379 . S
H1119 C1113 0.959 . S
H1120 C1113 0.961 . S
H1121 C1113 0.960 . S
H1122 C1114 0.930 . S
H1123 C1115 0.929 . S
H1124 C1132 0.929 1_556 S
H1125 C1134 0.930 . S
H1126 C1136 0.930 . S
H1127 C1139 0.929 . S
H1128 C1142 0.930 . S
H1129 C1144 0.960 . S
H1130 C1144 0.960 . S
H1131 C1144 0.960 . S
C1132 H1124 0.929 1_554 S
C1132 C1133 1.377 1_554 S
C1132 C1134 1.384 . S
C1133 C1132 1.377 1_556 S
C1133 C1139 1.390 1_556 S
C1134 H1125 0.930 . S
C1134 C1132 1.384 . S
C1134 C1135 1.372 . S
C1135 C1134 1.372 . S
C1135 C1136 1.400 . S
C1135 C1140 1.490 . S
C1136 H1126 0.930 . S
C1136 C1135 1.400 . S
C1136 C1139 1.386 . S
H1137 C1153 0.930 . S
H1138 C1154 0.931 . S
C1139 H1127 0.929 . S
C1139 C1133 1.390 1_554 S
C1139 C1136 1.386 . S
C1140 C1135 1.490 . S
C1140 C1142 1.395 . S
C1140 C1143 1.403 . S
H1141 C1147 0.930 . S
C1142 H1128 0.930 . S
C1142 C1140 1.395 . S
C1142 C1145 1.403 . S
C1143 C1140 1.403 . S
C1143 C1144 1.524 . S
C1143 C1147 1.400 . S
C1144 H1129 0.960 . S
C1144 H1130 0.960 . S
C1144 H1131 0.960 . S
C1144 C1143 1.524 . S
C1145 C1142 1.403 . S
C1145 C1146 1.392 . S
C1145 C1149 1.495 . S
C1146 C1145 1.392 . S
C1146 C1147 1.385 . S
C1146 C1148 1.478 . S
C1147 H1141 0.930 . S
C1147 C1143 1.400 . S
C1147 C1146 1.385 . S
C1148 C1146 1.478 . S
C1148 C1150 1.381 . S
C1148 C1154 1.383 . S
C1149 C1145 1.495 . S
C1149 H1155 0.959 . S
C1149 H1156 0.961 . S
C1149 H1157 0.960 . S
C1150 C1148 1.381 . S
C1150 C1151 1.394 . S
C1150 H1158 0.930 . S
C1151 C1150 1.394 . S
C1151 C1152 1.383 . S
C1151 H1159 0.929 . S
C1152 C1151 1.383 . S
C1152 C1153 1.377 . S
C1153 H1137 0.930 . S
C1153 C1152 1.377 . S
C1153 C1154 1.379 . S
C1154 H1138 0.931 . S
C1154 C1148 1.383 . S
C1154 C1153 1.379 . S
H1155 C1149 0.959 . S
H1156 C1149 0.961 . S
H1157 C1149 0.960 . S
H1158 C1150 0.930 . S
H1159 C1151 0.929 . S
H1160 C1168 0.929 . S
H1161 C1170 0.930 . S
H1162 C1172 0.930 . S
H1163 C1175 0.929 . S
H1164 C1178 0.930 . S
H1165 C1180 0.960 . S
H1166 C1180 0.960 . S
H1167 C1180 0.960 . S
C1168 H1160 0.929 . S
C1168 C1169 1.377 . S
C1168 C1170 1.384 . S
C1169 C1168 1.377 . S
C1169 C1175 1.390 . S
C1170 H1161 0.930 . S
C1170 C1168 1.384 . S
C1170 C1171 1.372 . S
C1171 C1170 1.372 . S
C1171 C1172 1.400 . S
C1171 C1176 1.490 . S
C1172 H1162 0.930 . S
C1172 C1171 1.400 . S
C1172 C1175 1.386 . S
H1173 C1189 0.930 . S
H1174 C1190 0.931 . S
C1175 H1163 0.929 . S
C1175 C1169 1.390 . S
C1175 C1172 1.386 . S
C1176 C1171 1.490 . S
C1176 C1178 1.395 . S
C1176 C1179 1.403 . S
H1177 C1183 0.930 . S
C1178 H1164 0.930 . S
C1178 C1176 1.395 . S
C1178 C1181 1.403 . S
C1179 C1176 1.403 . S
C1179 C1180 1.524 . S
C1179 C1183 1.400 . S
C1180 H1165 0.960 . S
C1180 H1166 0.960 . S
C1180 H1167 0.960 . S
C1180 C1179 1.524 . S
C1181 C1178 1.403 . S
C1181 C1182 1.392 . S
C1181 C1185 1.495 . S
C1182 C1181 1.392 . S
C1182 C1183 1.385 . S
C1182 C1184 1.478 . S
C1183 H1177 0.930 . S
C1183 C1179 1.400 . S
C1183 C1182 1.385 . S
C1184 C1182 1.478 . S
C1184 C1186 1.381 . S
C1184 C1190 1.383 . S
C1185 C1181 1.495 . S
C1185 H1191 0.959 . S
C1185 H1192 0.961 . S
C1185 H1193 0.960 . S
C1186 C1184 1.381 . S
C1186 C1187 1.394 . S
C1186 H1194 0.930 . S
C1187 C1186 1.394 . S
C1187 C1188 1.383 . S
C1187 H1195 0.929 . S
C1188 C1187 1.383 . S
C1188 C1189 1.377 . S
C1189 H1173 0.930 . S
C1189 C1188 1.377 . S
C1189 C1190 1.379 . S
C1190 H1174 0.931 . S
C1190 C1184 1.383 . S
C1190 C1189 1.379 . S
H1191 C1185 0.959 . S
H1192 C1185 0.961 . S
H1193 C1185 0.960 . S
H1194 C1186 0.930 . S
H1195 C1187 0.929 . S
H1196 C1204 0.929 . S
H1197 C1206 0.930 . S
H1198 C1208 0.930 . S
H1199 C1211 0.929 . S
H1200 C1214 0.930 . S
H1201 C1216 0.960 . S
H1202 C1216 0.960 . S
H1203 C1216 0.960 . S
C1204 H1196 0.929 . S
C1204 C1205 1.377 . S
C1204 C1206 1.384 . S
C1205 C1204 1.377 . S
C1205 C1211 1.390 . S
C1206 H1197 0.930 . S
C1206 C1204 1.384 . S
C1206 C1207 1.372 . S
C1207 C1206 1.372 . S
C1207 C1208 1.400 . S
C1207 C1212 1.490 . S
C1208 H1198 0.930 . S
C1208 C1207 1.400 . S
C1208 C1211 1.386 . S
H1209 C1225 0.930 . S
H1210 C1226 0.931 . S
C1211 H1199 0.929 . S
C1211 C1205 1.390 . S
C1211 C1208 1.386 . S
C1212 C1207 1.490 . S
C1212 C1214 1.395 . S
C1212 C1215 1.403 . S
H1213 C1219 0.930 . S
C1214 H1200 0.930 . S
C1214 C1212 1.395 . S
C1214 C1217 1.403 . S
C1215 C1212 1.403 . S
C1215 C1216 1.524 . S
C1215 C1219 1.400 . S
C1216 H1201 0.960 . S
C1216 H1202 0.960 . S
C1216 H1203 0.960 . S
C1216 C1215 1.524 . S
C1217 C1214 1.403 . S
C1217 C1218 1.392 . S
C1217 C1221 1.495 . S
C1218 C1217 1.392 . S
C1218 C1219 1.385 . S
C1218 C1220 1.478 . S
C1219 H1213 0.930 . S
C1219 C1215 1.400 . S
C1219 C1218 1.385 . S
C1220 C1218 1.478 . S
C1220 C1222 1.381 . S
C1220 C1226 1.383 . S
C1221 C1217 1.495 . S
C1221 H1227 0.959 . S
C1221 H1228 0.961 . S
C1221 H1229 0.960 . S
C1222 C1220 1.381 . S
C1222 C1223 1.394 . S
C1222 H1230 0.930 . S
C1223 C1222 1.394 . S
C1223 C1224 1.383 . S
C1223 H1231 0.929 . S
C1224 C1223 1.383 . S
C1224 C1225 1.377 . S
C1225 H1209 0.930 . S
C1225 C1224 1.377 . S
C1225 C1226 1.379 . S
C1226 H1210 0.931 . S
C1226 C1220 1.383 . S
C1226 C1225 1.379 . S
H1227 C1221 0.959 . S
H1228 C1221 0.961 . S
H1229 C1221 0.960 . S
H1230 C1222 0.930 . S
H1231 C1223 0.929 . S
H1232 C1240 0.929 . S
H1233 C1242 0.930 . S
H1234 C1244 0.930 . S
H1235 C1247 0.929 . S
H1236 C1250 0.930 . S
H1237 C1252 0.960 . S
H1238 C1252 0.960 . S
H1239 C1252 0.960 . S
C1240 H1232 0.929 . S
C1240 C1241 1.377 . S
C1240 C1242 1.384 . S
C1241 C1240 1.377 . S
C1241 C1247 1.390 . S
C1242 H1233 0.930 . S
C1242 C1240 1.384 . S
C1242 C1243 1.372 . S
C1243 C1242 1.372 . S
C1243 C1244 1.400 . S
C1243 C1248 1.490 . S
C1244 H1234 0.930 . S
C1244 C1243 1.400 . S
C1244 C1247 1.386 . S
H1245 C1261 0.930 . S
H1246 C1262 0.931 . S
C1247 H1235 0.929 . S
C1247 C1241 1.390 . S
C1247 C1244 1.386 . S
C1248 C1243 1.490 . S
C1248 C1250 1.395 . S
C1248 C1251 1.403 . S
H1249 C1255 0.930 . S
C1250 H1236 0.930 . S
C1250 C1248 1.395 . S
C1250 C1253 1.403 . S
C1251 C1248 1.403 . S
C1251 C1252 1.524 . S
C1251 C1255 1.400 . S
C1252 H1237 0.960 . S
C1252 H1238 0.960 . S
C1252 H1239 0.960 . S
C1252 C1251 1.524 . S
C1253 C1250 1.403 . S
C1253 C1254 1.392 . S
C1253 C1257 1.495 . S
C1254 C1253 1.392 . S
C1254 C1255 1.385 . S
C1254 C1256 1.478 . S
C1255 H1249 0.930 . S
C1255 C1251 1.400 . S
C1255 C1254 1.385 . S
C1256 C1254 1.478 . S
C1256 C1258 1.381 . S
C1256 C1262 1.383 . S
C1257 C1253 1.495 . S
C1257 H1263 0.959 . S
C1257 H1264 0.961 . S
C1257 H1265 0.960 . S
C1258 C1256 1.381 . S
C1258 C1259 1.394 . S
C1258 H1266 0.930 . S
C1259 C1258 1.394 . S
C1259 C1260 1.383 . S
C1259 H1267 0.929 . S
C1260 C1259 1.383 . S
C1260 C1261 1.377 . S
C1261 H1245 0.930 . S
C1261 C1260 1.377 . S
C1261 C1262 1.379 . S
C1262 H1246 0.931 . S
C1262 C1256 1.383 . S
C1262 C1261 1.379 . S
H1263 C1257 0.959 . S
H1264 C1257 0.961 . S
H1265 C1257 0.960 . S
H1266 C1258 0.930 . S
H1267 C1259 0.929 . S
C432 C327 1.580 . S
C413 C15 1.693 . S
C468 C345 1.319 . S
C449 C55 1.373 . S
C485 C82 1.340 . S
C504 C369 1.242 . S
C540 C399 1.276 . S
C521 C122 1.433 . S
C576 C387 1.299 . S
C557 C175 1.383 . S
C593 C215 1.382 . S
C612 C340 1.333 . S
C629 C242 1.687 . S
C648 C360 1.520 . S
C665 C282 1.429 1_655 S
C684 C365 1.245 . S
C701 C295 1.372 . S
C720 C381 1.309 . S
C737 C202 1.428 . S
C756 C336 1.243 . S
C792 C403 1.323 . S
C773 C135 1.369 . S
C828 C348 1.285 . S
C809 C42 1.438 . S
C845 C95 1.686 . S
C864 C366 1.550 . S
C881 C2 1.344 . S
C900 C324 1.307 . S
C936 C344 1.311 . S
C917 C255 1.358 . S
C972 C390 1.533 . S
C953 C162 1.708 . S
C1008 C386 1.364 . S
C989 C21 1.509 . S
C1044 C339 1.296 . S
C1025 C61 1.393 . S
C1061 C101 1.446 . S
C1080 C361 1.301 . S
C1097 C141 1.420 . S
C1116 C382 1.302 . S
C1152 C323 1.350 . S
C1133 C181 1.508 . S
C1169 C221 1.447 . S
C1188 C357 1.343 . S
C1224 C378 1.300 . S
C1205 C261 1.524 . S
C1260 C402 1.306 . S
C1241 C301 1.423 . S
