# Generated by pormake.
# Topology pyr, (3,6)-cn, num edge types: 1
# Building blocks:
#     Node 0, Type 0, BuildingBlock: OLANEW_clean_sbu_2, # of connection points: 3
#     Node 1, Type 0, BuildingBlock: OLANEW_clean_sbu_2, # of connection points: 3
#     Node 2, Type 0, BuildingBlock: OLANEW_clean_sbu_2, # of connection points: 3
#     Node 3, Type 0, BuildingBlock: OLANEW_clean_sbu_2, # of connection points: 3
#     Node 4, Type 0, BuildingBlock: OLANEW_clean_sbu_2, # of connection points: 3
#     Node 5, Type 0, BuildingBlock: OLANEW_clean_sbu_2, # of connection points: 3
#     Node 6, Type 0, BuildingBlock: OLANEW_clean_sbu_2, # of connection points: 3
#     Node 7, Type 0, BuildingBlock: OLANEW_clean_sbu_2, # of connection points: 3
#     Node 8, Type 1, BuildingBlock: BETDIP_clean_sbu_0, # of connection points: 6
#     Node 9, Type 1, BuildingBlock: BETDIP_clean_sbu_0, # of connection points: 6
#     Node 10, Type 1, BuildingBlock: BETDIP_clean_sbu_0, # of connection points: 6
#     Node 11, Type 1, BuildingBlock: BETDIP_clean_sbu_0, # of connection points: 6
#     Edge 12, Type (0, 1), BuildingBlock: XIVTED_clean_linker_0, # of connection points: 2
#     Edge 13, Type (0, 1), BuildingBlock: XIVTED_clean_linker_0, # of connection points: 2
#     Edge 14, Type (0, 1), BuildingBlock: XIVTED_clean_linker_0, # of connection points: 2
#     Edge 15, Type (0, 1), BuildingBlock: XIVTED_clean_linker_0, # of connection points: 2
#     Edge 16, Type (0, 1), BuildingBlock: XIVTED_clean_linker_0, # of connection points: 2
#     Edge 17, Type (0, 1), BuildingBlock: XIVTED_clean_linker_0, # of connection points: 2
#     Edge 18, Type (0, 1), BuildingBlock: XIVTED_clean_linker_0, # of connection points: 2
#     Edge 19, Type (0, 1), BuildingBlock: XIVTED_clean_linker_0, # of connection points: 2
#     Edge 20, Type (0, 1), BuildingBlock: XIVTED_clean_linker_0, # of connection points: 2
#     Edge 21, Type (0, 1), BuildingBlock: XIVTED_clean_linker_0, # of connection points: 2
#     Edge 22, Type (0, 1), BuildingBlock: XIVTED_clean_linker_0, # of connection points: 2
#     Edge 23, Type (0, 1), BuildingBlock: XIVTED_clean_linker_0, # of connection points: 2
#     Edge 24, Type (0, 1), BuildingBlock: XIVTED_clean_linker_0, # of connection points: 2
#     Edge 25, Type (0, 1), BuildingBlock: XIVTED_clean_linker_0, # of connection points: 2
#     Edge 26, Type (0, 1), BuildingBlock: XIVTED_clean_linker_0, # of connection points: 2
#     Edge 27, Type (0, 1), BuildingBlock: XIVTED_clean_linker_0, # of connection points: 2
#     Edge 28, Type (0, 1), BuildingBlock: XIVTED_clean_linker_0, # of connection points: 2
#     Edge 29, Type (0, 1), BuildingBlock: XIVTED_clean_linker_0, # of connection points: 2
#     Edge 30, Type (0, 1), BuildingBlock: XIVTED_clean_linker_0, # of connection points: 2
#     Edge 31, Type (0, 1), BuildingBlock: XIVTED_clean_linker_0, # of connection points: 2
#     Edge 32, Type (0, 1), BuildingBlock: XIVTED_clean_linker_0, # of connection points: 2
#     Edge 33, Type (0, 1), BuildingBlock: XIVTED_clean_linker_0, # of connection points: 2
#     Edge 34, Type (0, 1), BuildingBlock: XIVTED_clean_linker_0, # of connection points: 2
#     Edge 35, Type (0, 1), BuildingBlock: XIVTED_clean_linker_0, # of connection points: 2
# Relax obj value: 0.160
# Max RMSD: 0.234
# Mean RMSD: 0.144
data_MOF--net-pyr--node1-OLANEW_clean_sbu_2--node2-BETDIP_clean_sbu_0--edge1-XIVTED_clean_linker_0
_symmetry_space_group_name_H-M    P1
_symmetry_Int_Tables_number       1
_symmetry_cell_setting            triclinic
loop_
_symmetry_equiv_pos_as_xyz
'x, y, z'
_cell_length_a     37.788125
_cell_length_b     43.979163
_cell_length_c     42.488135
_cell_angle_alpha  92.0503
_cell_angle_beta   93.035715
_cell_angle_gamma 107.55141
loop_
_atom_site_label
_atom_site_type_symbol
_atom_site_fract_x
_atom_site_fract_y
_atom_site_fract_z
_atom_type_partial_charge
O0 O 0.41187 0.27578 0.15318 0.0
Cd1 Cd 0.39936 0.32625 0.16498 0.0
O2 O 0.36626 0.25176 0.18173 0.0
Cd3 Cd 0.33323 0.21414 0.20946 0.0
O4 O 0.30014 0.19045 0.24677 0.0
C5 C 0.31672 0.18762 0.27276 0.0
O6 O 0.35325 0.19777 0.27569 0.0
C7 C 0.39313 0.25055 0.16549 0.0
C8 C 0.33239 0.33305 0.14039 0.0
O9 O 0.33418 0.31985 0.16661 0.0
O10 O 0.36195 0.34193 0.12526 0.0
O11 O 0.17464 0.74633 0.79384 0.0
Cd12 Cd 0.1404 0.72038 0.74505 0.0
O13 O 0.13983 0.77799 0.7995 0.0
Cd14 Cd 0.10598 0.76397 0.75539 0.0
O15 O 0.08427 0.78888 0.71952 0.0
C16 C 0.10654 0.81597 0.71416 0.0
O17 O 0.13989 0.82498 0.72872 0.0
C18 C 0.16663 0.76827 0.80941 0.0
C19 C 0.18916 0.7025 0.70694 0.0
O20 O 0.18438 0.73006 0.70538 0.0
O21 O 0.17029 0.68315 0.72613 0.0
O22 O 0.7004 0.41413 0.86164 0.0
Cd23 Cd 0.64088 0.39852 0.82824 0.0
O24 O 0.68637 0.37408 0.89341 0.0
Cd25 Cd 0.64646 0.32853 0.90695 0.0
O26 O 0.61159 0.2829 0.92492 0.0
C27 C 0.62694 0.26184 0.93246 0.0
O28 O 0.66263 0.26771 0.92871 0.0
C29 C 0.70906 0.40021 0.88544 0.0
C30 C 0.63233 0.43472 0.77603 0.0
O31 O 0.62955 0.44443 0.80433 0.0
O32 O 0.64052 0.40863 0.77228 0.0
O33 O 0.93711 0.76825 0.3335 0.0
Cd34 Cd 0.91025 0.71468 0.30367 0.0
O35 O 0.89305 0.75683 0.3675 0.0
Cd36 Cd 0.85776 0.70755 0.35769 0.0
O37 O 0.81119 0.67586 0.38125 0.0
C38 C 0.79658 0.69053 0.40057 0.0
O39 O 0.8097 0.72184 0.40375 0.0
C40 C 0.92176 0.77639 0.35723 0.0
C41 C 0.93791 0.68865 0.25121 0.0
O42 O 0.91696 0.70654 0.24713 0.0
O43 O 0.9479 0.68485 0.27976 0.0
O44 O 0.68165 0.75526 0.79339 0.0
Cd45 Cd 0.64728 0.72351 0.83399 0.0
O46 O 0.67258 0.79709 0.81625 0.0
Cd47 Cd 0.67288 0.8453 0.83033 0.0
O48 O 0.65344 0.87685 0.86081 0.0
C49 C 0.62132 0.8651 0.87088 0.0
O50 O 0.60184 0.83571 0.86161 0.0
C51 C 0.68701 0.7852 0.79448 0.0
C52 C 0.69567 0.69711 0.86644 0.0
O53 O 0.67576 0.68267 0.84184 0.0
O54 O 0.69186 0.72373 0.87636 0.0
O55 O 0.85566 0.26982 0.3647 0.0
Cd56 Cd 0.89084 0.28785 0.41472 0.0
O57 O 0.85527 0.3144 0.34282 0.0
Cd58 Cd 0.87372 0.34373 0.38628 0.0
O59 O 0.8421 0.36938 0.4118 0.0
C60 C 0.82388 0.38304 0.39428 0.0
O61 O 0.82795 0.38263 0.36376 0.0
C62 C 0.84743 0.2842 0.34136 0.0
C63 C 0.91286 0.23556 0.43229 0.0
O64 O 0.93417 0.2578 0.41718 0.0
O65 O 0.88193 0.2388 0.44032 0.0
O66 O 0.43446 0.77833 0.25479 0.0
Cd67 Cd 0.40991 0.72354 0.27604 0.0
O68 O 0.38702 0.76984 0.21912 0.0
Cd69 Cd 0.35375 0.71983 0.22209 0.0
O70 O 0.30827 0.68146 0.19718 0.0
C71 C 0.30938 0.67846 0.16737 0.0
O72 O 0.33801 0.69702 0.15396 0.0
C73 C 0.41719 0.78824 0.23258 0.0
C74 C 0.4393 0.69879 0.3292 0.0
O75 O 0.45187 0.69797 0.30181 0.0
O76 O 0.41458 0.71309 0.33223 0.0
O77 O 0.14713 0.39585 0.77505 0.0
Cd78 Cd 0.16413 0.37345 0.72585 0.0
O79 O 0.11104 0.3505 0.79182 0.0
Cd80 Cd 0.11473 0.31533 0.75386 0.0
O81 O 0.10555 0.27106 0.72284 0.0
C82 C 0.07237 0.25588 0.71259 0.0
O83 O 0.0455 0.26735 0.72038 0.0
C84 C 0.12578 0.38077 0.7954 0.0
C85 C 0.22672 0.40998 0.69567 0.0
O86 O 0.19525 0.41528 0.69204 0.0
O87 O 0.22912 0.38833 0.71437 0.0
Tb88 Tb 0.96424 0.99389 0.54734 0.0
Tb89 Tb 0.0476 0.0283 0.53736 0.0
C90 C 0.90163 0.95393 0.55232 0.0
C91 C 0.88144 0.93744 0.57847 0.0
C92 C 0.85652 0.9067 0.57276 0.0
C93 C 0.83668 0.89075 0.59719 0.0
C94 C 0.84137 0.90539 0.62774 0.0
C95 C 0.86654 0.93621 0.63344 0.0
C96 C 0.88661 0.95206 0.60902 0.0
C97 C 0.99436 0.04827 0.5809 0.0
C98 C 0.02816 0.97386 0.58559 0.0
C99 C 0.11027 0.06894 0.53766 0.0
C100 C 0.13168 0.08357 0.51151 0.0
C101 C 0.16789 0.10426 0.51716 0.0
C102 C 0.18855 0.1172 0.49186 0.0
C103 C 0.17322 0.10943 0.46061 0.0
C104 C 0.13668 0.08881 0.45523 0.0
C105 C 0.11608 0.07608 0.48048 0.0
C106 C 0.01796 0.98097 0.49307 0.0
C107 C 0.98328 0.04632 0.4991 0.0
O108 O 0.93099 0.94594 0.54509 0.0
O109 O 0.90736 0.9848 0.55263 0.0
O110 O 0.01061 0.0279 0.57404 0.0
O111 O 0.95945 0.03651 0.57203 0.0
O112 O 0.99218 0.96838 0.57819 0.0
O113 O 0.05431 0.99777 0.57471 0.0
O114 O 0.07954 0.07641 0.54109 0.0
O115 O 0.10543 0.03825 0.53936 0.0
O116 O 0.00321 0.99133 0.51503 0.0
O117 O 0.05234 0.99869 0.4951 0.0
O118 O 0.01754 0.05617 0.5124 0.0
O119 O 0.95939 0.01839 0.50464 0.0
H120 H 0.85226 0.89507 0.54934 0.0
H121 H 0.81722 0.86713 0.59204 0.0
H122 H 0.87104 0.94789 0.65683 0.0
H123 H 0.90606 0.97572 0.61398 0.0
H124 H 0.18021 0.11026 0.54106 0.0
H125 H 0.21643 0.13334 0.49679 0.0
H126 H 0.12422 0.08191 0.43149 0.0
H127 H 0.08808 0.06005 0.47577 0.0
Tb128 Tb 0.54616 0.04197 0.08727 0.0
Tb129 Tb 0.46698 0.00782 0.06772 0.0
C130 C 0.60859 0.08315 0.09787 0.0
C131 C 0.62927 0.10592 0.12314 0.0
C132 C 0.65804 0.1325 0.11538 0.0
C133 C 0.68005 0.15344 0.13912 0.0
C134 C 0.67357 0.14794 0.17096 0.0
C135 C 0.64381 0.1218 0.17862 0.0
C136 C 0.62167 0.10094 0.15481 0.0
C137 C 0.51723 0.99028 0.11858 0.0
C138 C 0.4817 0.06407 0.11712 0.0
C139 C 0.40511 0.96622 0.0558 0.0
C140 C 0.38539 0.94424 0.02926 0.0
C141 C 0.36744 0.91221 0.03487 0.0
C142 C 0.34578 0.89151 0.01068 0.0
C143 C 0.34151 0.90267 0.9806 0.0
C144 C 0.36058 0.93447 0.97472 0.0
C145 C 0.3825 0.95507 0.9988 0.0
C146 C 0.4971 0.05951 0.03665 0.0
C147 C 0.53147 0.98886 0.03396 0.0
O148 O 0.57975 0.08925 0.08444 0.0
O149 O 0.60205 0.05293 0.10328 0.0
O150 O 0.5008 0.01008 0.11016 0.0
O151 O 0.5517 1.00095 0.11216 0.0
O152 O 0.51714 0.07146 0.11094 0.0
O153 O 0.45754 0.03652 0.10699 0.0
O154 O 0.43382 0.96014 0.06963 0.0
O155 O 0.41102 0.99671 0.05207 0.0
O156 O 0.51218 0.03919 0.04549 0.0
O157 O 0.46229 0.04948 0.04228 0.0
O158 O 0.49613 0.97998 0.04083 0.0
O159 O 0.55507 0.01584 0.04605 0.0
H160 H 0.66406 0.13662 0.09096 0.0
H161 H 0.70299 0.17322 0.13258 0.0
H162 H 0.63796 0.1173 0.203 0.0
H163 H 0.5992 0.08062 0.1611 0.0
H164 H 0.36938 0.90343 0.0582 0.0
H165 H 0.33118 0.86714 0.01584 0.0
H166 H 0.35809 0.94352 0.95159 0.0
H167 H 0.39642 0.97961 0.99375 0.0
Tb168 Tb 0.51478 0.58224 0.56688 0.0
Tb169 Tb 0.51625 0.521 0.53562 0.0
C170 C 0.4993 0.63132 0.58509 0.0
C171 C 0.46495 0.63876 0.59109 0.0
C172 C 0.43009 0.61749 0.58076 0.0
C173 C 0.39754 0.62369 0.58904 0.0
C174 C 0.39945 0.65137 0.60754 0.0
C175 C 0.43451 0.67295 0.6171 0.0
C176 C 0.46699 0.6666 0.60901 0.0
C177 C 0.55427 0.55153 0.59896 0.0
C178 C 0.44604 0.52024 0.57328 0.0
C179 C 0.5229 0.46729 0.52173 0.0
C180 C 0.54833 0.45681 0.5023 0.0
C181 C 0.55265 0.42667 0.50626 0.0
C182 C 0.58159 0.41852 0.49264 0.0
C183 C 0.60679 0.44053 0.47496 0.0
C184 C 0.60131 0.47027 0.46989 0.0
C185 C 0.57235 0.4784 0.48358 0.0
C186 C 0.50006 0.56139 0.4967 0.0
C187 C 0.58343 0.58209 0.52935 0.0
O188 O 0.504 0.62471 0.55557 0.0
O189 O 0.50771 0.61159 0.60431 0.0
O190 O 0.52377 0.53952 0.58318 0.0
O191 O 0.56319 0.58232 0.59798 0.0
O192 O 0.46061 0.55142 0.57903 0.0
O193 O 0.46283 0.50338 0.55656 0.0
O194 O 0.53954 0.48513 0.54675 0.0
O195 O 0.49848 0.47853 0.50699 0.0
O196 O 0.48906 0.55619 0.52415 0.0
O197 O 0.51885 0.54217 0.48969 0.0
O198 O 0.5736 0.55087 0.53232 0.0
O199 O 0.56179 0.59915 0.53789 0.0
H200 H 0.42804 0.59594 0.56668 0.0
H201 H 0.37091 0.60681 0.58108 0.0
H202 H 0.43687 0.69427 0.63169 0.0
H203 H 0.49374 0.68312 0.6173 0.0
H204 H 0.53458 0.40992 0.52098 0.0
H205 H 0.5848 0.39527 0.49658 0.0
H206 H 0.62045 0.48785 0.45666 0.0
H207 H 0.56974 0.50204 0.48076 0.0
Tb208 Tb 0.01808 0.55192 1.00039 0.0
Tb209 Tb 0.01745 0.50051 0.04409 0.0
C210 C 1.00174 0.59064 0.96459 0.0
C211 C 0.97231 0.60565 0.96002 0.0
C212 C 0.94381 0.60139 0.98087 0.0
C213 C 0.91358 0.61266 0.97369 0.0
C214 C 0.91137 0.62783 0.94541 0.0
C215 C 0.94068 0.63295 0.92526 0.0
C216 C 0.97093 0.62198 0.93257 0.0
C217 C 0.08305 0.55808 0.03082 0.0
C218 C 0.99138 0.55687 0.06995 0.0
C219 C 0.03395 0.46144 0.07953 0.0
C220 C 0.06045 0.44295 0.08105 0.0
C221 C 0.08055 0.43934 0.0551 0.0
C222 C 0.10746 0.42346 0.05792 0.0
C223 C 0.11492 0.41116 0.08683 0.0
C224 C 0.0942 0.41455 0.11259 0.0
C225 C 0.06723 0.43026 0.10967 0.0
C226 C 0.9519 0.49517 0.01498 0.0
C227 C 0.04746 0.49741 0.97514 0.0
O228 O 0.99121 0.55974 0.95867 0.0
O229 O 0.02393 0.59949 0.99017 0.0
O230 O 0.05141 0.54839 0.0414 0.0
O231 O 0.07912 0.56697 1.00245 0.0
O232 O 0.9885 0.56428 0.04011 0.0
O233 O 0.00543 0.53385 0.0777 0.0
O234 O 0.04876 0.4924 0.0832 0.0
O235 O 0.0075 0.45313 0.05687 0.0
O236 O 0.98315 0.50404 1.00329 0.0
O237 O 0.95675 0.48712 0.04357 0.0
O238 O 0.04685 0.48801 1.00446 0.0
O239 O 0.03472 0.52107 0.96719 0.0
H240 H 0.94431 0.58848 1.00203 0.0
H241 H 0.89119 0.60826 0.98948 0.0
H242 H 0.93979 0.64485 0.90348 0.0
H243 H 0.99268 0.6253 0.91622 0.0
H244 H 0.07587 0.44913 0.03286 0.0
H245 H 0.12253 0.42098 0.03748 0.0
H246 H 0.09957 0.40594 0.13536 0.0
H247 H 0.0522 0.43313 0.13003 0.0
H248 H 0.24129 0.17098 0.27668 0.0
H249 H 0.2473 0.11768 0.45407 0.0
H250 H 0.34307 0.1758 0.33078 0.0
H251 H 0.14954 0.12982 0.40544 0.0
H252 H 0.28251 0.13662 0.40838 0.0
H253 H 0.20651 0.15241 0.32266 0.0
C254 C 0.25633 0.168 0.29818 0.0
C255 C 0.29517 0.175 0.29992 0.0
C256 C 0.25337 0.13519 0.40777 0.0
C257 C 0.25553 0.15386 0.35262 0.0
C258 C 0.2333 0.1246 0.43393 0.0
C259 C 0.19535 0.12208 0.43359 0.0
C260 C 0.23534 0.14316 0.38102 0.0
C261 C 0.17856 0.13085 0.40657 0.0
C262 C 0.23645 0.15753 0.32446 0.0
C263 C 0.31316 0.17075 0.32842 0.0
N264 N 0.19864 0.1409 0.38133 0.0
N265 N 0.29317 0.16044 0.35367 0.0
H266 H 0.22585 0.75414 0.83903 0.0
H267 H 0.28891 0.91755 0.94353 0.0
H268 H 0.16176 0.82044 0.84337 0.0
H269 H 0.33447 0.84056 0.96221 0.0
H270 H 0.24498 0.88305 0.90357 0.0
H271 H 0.26819 0.78575 0.88213 0.0
C272 C 0.22045 0.7751 0.84922 0.0
C273 C 0.19029 0.78472 0.83748 0.0
C274 C 0.2645 0.87362 0.91643 0.0
C275 C 0.23874 0.82102 0.88626 0.0
C276 C 0.28979 0.89339 0.93901 0.0
C277 C 0.31542 0.88188 0.95599 0.0
C278 C 0.265 0.84215 0.91055 0.0
C279 C 0.31498 0.85023 0.94963 0.0
C280 C 0.24462 0.7931 0.87376 0.0
C281 C 0.18464 0.81209 0.85156 0.0
N282 N 0.29024 0.83143 0.92721 0.0
N283 N 0.20882 0.82941 0.87499 0.0
H284 H 0.61218 0.41177 0.71472 0.0
H285 H 0.60724 0.57757 0.647 0.0
H286 H 0.634 0.49752 0.77467 0.0
H287 H 0.53495 0.48712 0.60744 0.0
H288 H 0.6286 0.54957 0.6895 0.0
H289 H 0.59521 0.44016 0.67047 0.0
C290 C 0.61381 0.43665 0.71852 0.0
C291 C 0.6245 0.45226 0.74852 0.0
C292 C 0.60831 0.53589 0.67131 0.0
C293 C 0.60549 0.48493 0.69785 0.0
C294 C 0.59623 0.5518 0.64698 0.0
C295 C 0.56947 0.53465 0.62342 0.0
C296 C 0.59412 0.5025 0.67179 0.0
C297 C 0.55599 0.50128 0.62477 0.0
C298 C 0.60391 0.45275 0.69329 0.0
C299 C 0.62581 0.4845 0.75203 0.0
N300 N 0.56857 0.48628 0.64843 0.0
N301 N 0.61662 0.4998 0.72699 0.0
H302 H 0.97653 0.64485 0.25287 0.0
H303 H 0.96057 0.60637 0.06528 0.0
H304 H 0.92165 0.69149 0.18739 0.0
H305 H 1.00043 0.55216 0.13381 0.0
H306 H 0.9484 0.63948 0.10872 0.0
H307 H 0.98874 0.61314 0.20873 0.0
C308 C 0.96729 0.64868 0.22919 0.0
C309 C 0.94805 0.67105 0.22402 0.0
C310 C 0.95967 0.62024 0.11419 0.0
C311 C 0.9618 0.63434 0.17296 0.0
C312 C 0.96655 0.60124 0.08937 0.0
C313 C 0.98143 0.57621 0.09573 0.0
C314 C 0.96799 0.61443 0.14567 0.0
C315 C 0.98879 0.57098 0.12756 0.0
C316 C 0.97413 0.63037 0.20392 0.0
C317 C 0.93664 0.67464 0.19263 0.0
N318 N 0.98215 0.58989 0.15115 0.0
N319 N 0.94365 0.65651 0.16836 0.0
H320 H 0.34958 0.1876 0.16378 0.0
H321 H 0.52353 0.12239 0.14281 0.0
H322 H 0.46306 0.24726 0.16013 0.0
H323 H 0.40964 0.06276 0.12553 0.0
H324 H 0.50133 0.1667 0.15891 0.0
H325 H 0.3707 0.1402 0.15825 0.0
C326 C 0.37896 0.19072 0.16235 0.0
C327 C 0.40467 0.22138 0.16269 0.0
C328 C 0.48114 0.14384 0.15191 0.0
C329 C 0.4289 0.16749 0.15611 0.0
C330 C 0.49381 0.11842 0.14287 0.0
C331 C 0.46842 0.08885 0.13253 0.0
C332 C 0.44278 0.13977 0.15058 0.0
C333 C 0.43022 0.08517 0.13327 0.0
C334 C 0.39095 0.1637 0.15895 0.0
C335 C 0.44228 0.22407 0.15983 0.0
N336 N 0.41852 0.11047 0.14182 0.0
N337 N 0.45324 0.19752 0.15671 0.0
H338 H 0.03695 0.80873 0.68651 0.0
H339 H 0.09838 0.97875 0.60988 0.0
H340 H 0.14859 0.87409 0.69643 0.0
H341 H 0.9843 0.9185 0.60823 0.0
H342 H 0.11734 0.94002 0.64076 0.0
H343 H 0.01732 0.84767 0.65602 0.0
C344 C 0.05737 0.83117 0.68213 0.0
C345 C 0.09446 0.83819 0.69407 0.0
C346 C 0.08814 0.93534 0.63377 0.0
C347 C 0.07217 0.88285 0.65943 0.0
C348 C 0.07725 0.9575 0.61617 0.0
C349 C 0.03967 0.9519 0.60642 0.0
C350 C 0.06131 0.90726 0.64155 0.0
C351 C 0.01358 0.92388 0.61528 0.0
C352 C 0.04611 0.85344 0.66486 0.0
C353 C 0.1197 0.86767 0.68775 0.0
N354 N 0.02493 0.90252 0.63223 0.0
N355 N 0.10808 0.88891 0.67089 0.0
H356 H 0.76955 0.44839 0.86902 0.0
H357 H 0.88447 0.46256 0.03554 0.0
H358 H 0.73128 0.38596 0.94442 0.0
H359 H 0.93639 0.50167 0.95187 0.0
H360 H 0.8255 0.44013 1.00413 0.0
H361 H 0.82825 0.47318 0.90037 0.0
C362 C 0.77343 0.43984 0.89215 0.0
C363 C 0.74529 0.4149 0.90399 0.0
C364 C 0.84974 0.45368 0.99261 0.0
C365 C 0.81251 0.44359 0.94022 0.0
C366 C 0.88342 0.46664 0.01057 0.0
C367 C 0.91552 0.48392 0.99631 0.0
C368 C 0.84783 0.45823 0.96009 0.0
C369 C 0.91237 0.48851 0.96384 0.0
C370 C 0.80703 0.45402 0.91001 0.0
C371 C 0.75211 0.40493 0.93417 0.0
N372 N 0.87915 0.47575 0.94682 0.0
N373 N 0.78484 0.41939 0.95125 0.0
H374 H 0.76511 0.62548 0.40441 0.0
H375 H 0.61597 0.64602 0.52407 0.0
H376 H 0.75813 0.71627 0.44078 0.0
H377 H 0.62803 0.55424 0.49716 0.0
H378 H 0.66835 0.6717 0.49337 0.0
H379 H 0.71479 0.59839 0.43738 0.0
C380 C 0.75302 0.63971 0.41925 0.0
C381 C 0.76589 0.67323 0.41977 0.0
C382 C 0.65976 0.64595 0.49429 0.0
C383 C 0.70847 0.64244 0.45753 0.0
C384 C 0.62982 0.63124 0.51191 0.0
C385 C 0.61751 0.5979 0.51326 0.0
C386 C 0.67756 0.62726 0.47758 0.0
C387 C 0.63664 0.58004 0.49692 0.0
C388 C 0.72439 0.62424 0.43813 0.0
C389 C 0.74922 0.69042 0.43953 0.0
N390 N 0.66558 0.59493 0.47958 0.0
N391 N 0.72144 0.67487 0.4575 0.0
H392 H 0.2636 0.31325 0.1642 0.0
H393 H 0.18321 0.4288 0.06167 0.0
H394 H 0.32287 0.36874 0.09099 0.0
H395 H 0.11614 0.35952 0.12109 0.0
H396 H 0.23412 0.40626 0.07124 0.0
H397 H 0.20887 0.32908 0.14818 0.0
C398 C 0.26502 0.32853 0.14457 0.0
C399 C 0.29795 0.33981 0.12901 0.0
C400 C 0.20817 0.39582 0.08199 0.0
C401 C 0.2355 0.35829 0.11076 0.0
C402 C 0.17892 0.40857 0.07638 0.0
C403 C 0.14525 0.39619 0.0907 0.0
C404 C 0.20395 0.37063 0.10228 0.0
C405 C 0.14177 0.37029 0.11001 0.0
C406 C 0.23374 0.33756 0.13543 0.0
C407 C 0.29811 0.3595 0.10369 0.0
N408 N 0.17082 0.35855 0.11542 0.0
N409 N 0.26751 0.36835 0.09556 0.0
H410 H 0.5526 0.2409 0.94521 0.0
H411 H 0.5684 0.07915 0.01854 0.0
H412 H 0.65317 0.21357 0.95161 0.0
H413 H 0.46785 0.10629 0.01746 0.0
H414 H 0.59897 0.12787 0.99243 0.0
H415 H 0.51998 0.19131 0.96976 0.0
C416 C 0.56783 0.22452 0.95168 0.0
C417 C 0.60581 0.23159 0.94637 0.0
C418 C 0.5702 0.12326 0.99783 0.0
C419 C 0.56863 0.1748 0.97452 0.0
C420 C 0.55275 0.09542 0.01281 0.0
C421 C 0.51558 0.08874 0.0203 0.0
C422 C 0.55037 0.14469 0.99011 0.0
C423 C 0.49658 0.11058 0.0121 0.0
C424 C 0.54918 0.19622 0.96573 0.0
C425 C 0.62397 0.20933 0.95523 0.0
N426 N 0.51416 0.13759 0.99747 0.0
N427 N 0.6053 0.18213 0.96884 0.0
H428 H 0.98998 0.82324 0.35392 0.0
H429 H 0.9462 0.93992 0.48685 0.0
H430 H 0.8868 0.80301 0.39984 0.0
H431 H 0.05397 0.95666 0.44979 0.0
H432 H 0.92274 0.89132 0.45214 0.0
H433 H 0.01295 0.87419 0.3856 0.0
C434 C 0.97208 0.82951 0.37039 0.0
C435 C 0.93645 0.80854 0.3742 0.0
C436 C 0.95155 0.90562 0.45157 0.0
C437 C 0.9625 0.86678 0.41056 0.0
C438 C 0.96492 0.93331 0.47151 0.0
C439 C 1.00216 0.95213 0.47152 0.0
C440 C 0.97555 0.89675 0.4313 0.0
C441 C 0.02506 0.94272 0.45065 0.0
C442 C 0.98522 0.85855 0.38858 0.0
C443 C 0.91457 0.81808 0.39609 0.0
N444 N 0.01148 0.91574 0.43148 0.0
N445 N 0.9279 0.84627 0.41332 0.0
H446 H 0.23745 0.74 0.66804 0.0
H447 H 0.33886 0.60853 0.63034 0.0
H448 H 0.20403 0.6453 0.70319 0.0
H449 H 0.38223 0.70754 0.60878 0.0
H450 H 0.28455 0.61957 0.65099 0.0
H451 H 0.28603 0.72644 0.64022 0.0
C452 C 0.24014 0.71627 0.66973 0.0
C453 C 0.2168 0.69381 0.68815 0.0
C454 C 0.30586 0.63884 0.64159 0.0
C455 C 0.2724 0.67818 0.65641 0.0
C456 C 0.33673 0.63251 0.6296 0.0
C457 C 0.36518 0.65721 0.61799 0.0
C458 C 0.30336 0.67006 0.64183 0.0
C459 C 0.36118 0.68791 0.61794 0.0
C460 C 0.26794 0.70857 0.65389 0.0
C461 C 0.22153 0.66341 0.68941 0.0
N462 N 0.33091 0.69349 0.62977 0.0
N463 N 0.24891 0.65652 0.67386 0.0
H464 H 0.69549 0.84805 0.78017 0.0
H465 H 0.82896 0.84306 0.64151 0.0
H466 H 0.73167 0.76671 0.75493 0.0
H467 H 0.80538 0.92902 0.6725 0.0
H468 H 0.79214 0.81473 0.6828 0.0
H469 H 0.73467 0.87838 0.74098 0.0
C470 C 0.71188 0.83663 0.7668 0.0
C471 C 0.71041 0.80479 0.7712 0.0
C472 C 0.79503 0.83981 0.68069 0.0
C473 C 0.75478 0.8392 0.72583 0.0
C474 C 0.81591 0.85594 0.65699 0.0
C475 C 0.82007 0.88838 0.65349 0.0
C476 C 0.77794 0.85615 0.70101 0.0
C477 C 0.80306 0.90404 0.67455 0.0
C478 C 0.73412 0.85394 0.74423 0.0
C479 C 0.73173 0.79114 0.75241 0.0
N480 N 0.78254 0.88773 0.69736 0.0
N481 N 0.75291 0.80836 0.7306 0.0
H482 H 0.81812 0.3055 0.28916 0.0
H483 H 0.70338 0.12888 0.2236 0.0
H484 H 0.82662 0.21953 0.33075 0.0
H485 H 0.70262 0.21316 0.17487 0.0
H486 H 0.74791 0.1624 0.2637 0.0
H487 H 0.7763 0.27263 0.24667 0.0
C488 C 0.81155 0.27977 0.28918 0.0
C489 C 0.82572 0.26523 0.31363 0.0
C490 C 0.73805 0.17363 0.24426 0.0
C491 C 0.7777 0.22762 0.26544 0.0
C492 C 0.71234 0.15451 0.22155 0.0
C493 C 0.69921 0.16833 0.19603 0.0
C494 C 0.75065 0.20682 0.24149 0.0
C495 C 0.7123 0.2016 0.19413 0.0
C496 C 0.78759 0.26104 0.265 0.0
C497 C 0.81622 0.23179 0.3125 0.0
N498 N 0.73731 0.21979 0.21665 0.0
N499 N 0.79262 0.21414 0.28893 0.0
H500 H 0.49154 0.6669 0.32993 0.0
H501 H 0.4531 0.59898 0.50251 0.0
H502 H 0.41356 0.69109 0.38904 0.0
H503 H 0.52838 0.57561 0.43994 0.0
H504 H 0.43977 0.63475 0.46322 0.0
H505 H 0.50715 0.6356 0.37174 0.0
C506 C 0.47786 0.66588 0.3518 0.0
C507 C 0.45116 0.68181 0.35579 0.0
C508 C 0.45928 0.62184 0.45819 0.0
C509 C 0.46879 0.64539 0.40416 0.0
C510 C 0.46694 0.60148 0.48064 0.0
C511 C 0.4918 0.58417 0.47447 0.0
C512 C 0.4767 0.62492 0.42943 0.0
C513 C 0.50885 0.58829 0.44569 0.0
C514 C 0.48674 0.64784 0.37575 0.0
C515 C 0.43438 0.67934 0.38483 0.0
N516 N 0.50097 0.60806 0.42437 0.0
N517 N 0.44332 0.66141 0.40778 0.0
H518 H 0.13838 0.44552 0.80444 0.0
H519 H 0.05734 0.43784 0.9757 0.0
H520 H 0.09259 0.35695 0.84933 0.0
H521 H 0.06993 0.51812 0.91719 0.0
H522 H 0.07807 0.40967 0.93296 0.0
H523 H 0.12129 0.47414 0.84876 0.0
C524 C 0.12496 0.43205 0.82367 0.0
C525 C 0.11691 0.39866 0.82296 0.0
C526 C 0.0764 0.4335 0.92955 0.0
C527 C 0.09736 0.43152 0.87409 0.0
C528 C 0.0648 0.44972 0.95404 0.0
C529 C 0.06188 0.48049 0.95016 0.0
C530 C 0.08567 0.44826 0.90102 0.0
C531 C 0.07158 0.49442 0.9213 0.0
C532 C 0.11506 0.44845 0.84895 0.0
C533 C 0.09928 0.38264 0.84867 0.0
N534 N 0.08311 0.47829 0.89797 0.0
N535 N 0.09023 0.39918 0.87315 0.0
H536 H 0.55303 0.84756 0.89545 0.0
H537 H 0.60035 1.00344 0.01127 0.0
H538 H 0.65647 0.92438 0.89883 0.0
H539 H 0.49212 0.93245 1.0018 0.0
H540 H 0.62153 0.97369 0.97105 0.0
H541 H 0.53034 0.87746 0.935 0.0
C542 C 0.57094 0.87076 0.90442 0.0
C543 C 0.60674 0.88349 0.89384 0.0
C544 C 0.59314 0.96458 0.97769 0.0
C545 C 0.58097 0.91769 0.93916 0.0
C546 C 0.58097 0.98153 1.00076 0.0
C547 C 0.54434 0.97039 0.00993 0.0
C548 C 0.56859 0.93618 0.96367 0.0
C549 C 0.52058 0.94187 0.99543 0.0
C550 C 0.55794 0.8878 0.92699 0.0
C551 C 0.62869 0.91364 0.90628 0.0
N552 N 0.53316 0.92568 0.97297 0.0
N553 N 0.61548 0.92967 0.92836 0.0
H554 H 0.97827 0.22323 0.42215 0.0
H555 H 0.91186 0.04804 0.4878 0.0
H556 H 0.87012 0.18123 0.45737 0.0
H557 H 0.02584 0.09818 0.47095 0.0
H558 H 0.89332 0.09293 0.46786 0.0
H559 H 0.99374 0.17429 0.43256 0.0
C560 C 0.9578 0.20374 0.43212 0.0
C561 C 0.92297 0.20642 0.43917 0.0
C562 C 0.92231 0.09387 0.46817 0.0
C563 C 0.94033 0.15024 0.45077 0.0
C564 C 0.93284 0.06813 0.47921 0.0
C565 C 0.97046 0.06953 0.4812 0.0
C566 C 0.94961 0.121 0.45895 0.0
C567 C 0.99655 0.09627 0.47007 0.0
C568 C 0.96661 0.17579 0.43797 0.0
C569 C 0.89743 0.18031 0.45185 0.0
N570 N 0.98567 0.12106 0.45965 0.0
N571 N 0.90664 0.1533 0.45727 0.0
H572 H 0.30438 0.66675 0.10344 0.0
H573 H 0.09206 0.55644 0.09498 0.0
H574 H 0.24246 0.64006 0.18589 0.0
H575 H 0.15298 0.58823 0.01315 0.0
H576 H 0.14847 0.58213 0.1288 0.0
H577 H 0.251 0.63369 0.07038 0.0
C578 C 0.27963 0.65378 0.11467 0.0
C579 C 0.27791 0.6564 0.14755 0.0
C580 C 0.14962 0.58326 0.10345 0.0
C581 C 0.21634 0.6184 0.10961 0.0
C582 C 0.11746 0.56846 0.08411 0.0
C583 C 0.11784 0.57032 0.05121 0.0
C584 C 0.18243 0.60006 0.08978 0.0
C585 C 0.15145 0.58634 0.03841 0.0
C586 C 0.24908 0.63487 0.09571 0.0
C587 C 0.24504 0.63885 0.16066 0.0
N588 N 0.18231 0.60075 0.05772 0.0
N589 N 0.2155 0.62075 0.14165 0.0
H590 H 0.23686 0.46576 0.66525 0.0
H591 H 0.41958 0.45661 0.58423 0.0
H592 H 0.28946 0.39334 0.68472 0.0
H593 H 0.39439 0.54539 0.59796 0.0
H594 H 0.36606 0.43004 0.61386 0.0
H595 H 0.28912 0.49264 0.63411 0.0
C596 C 0.2594 0.45554 0.66304 0.0
C597 C 0.25881 0.4273 0.67776 0.0
C598 C 0.37216 0.4553 0.61024 0.0
C599 C 0.3183 0.45762 0.64165 0.0
C600 C 0.40254 0.47047 0.59309 0.0
C601 C 0.41155 0.50334 0.58851 0.0
C602 C 0.35015 0.47294 0.62254 0.0
C603 C 0.38857 0.52005 0.60091 0.0
C604 C 0.28921 0.47091 0.64529 0.0
C605 C 0.28882 0.41515 0.674 0.0
N606 N 0.35888 0.50466 0.61724 0.0
N607 N 0.31714 0.43021 0.65616 0.0
H608 H 0.73897 0.71908 0.9214 0.0
H609 H 0.87193 0.61349 0.88873 0.0
H610 H 0.71711 0.64637 0.8457 0.0
H611 H 0.87391 0.6609 0.97974 0.0
H612 H 0.81693 0.62816 0.87168 0.0
H613 H 0.78975 0.70039 0.9429 0.0
C614 C 0.74461 0.69902 0.90947 0.0
C615 C 0.72392 0.68436 0.8816 0.0
C616 C 0.82921 0.63527 0.89545 0.0
C617 C 0.78204 0.66322 0.90583 0.0
C618 C 0.86076 0.62712 0.90508 0.0
C619 C 0.87757 0.63626 0.93556 0.0
C620 C 0.8145 0.65304 0.91629 0.0
C621 C 0.86166 0.65342 0.95603 0.0
C622 C 0.77353 0.68838 0.92178 0.0
C623 C 0.73236 0.65845 0.86717 0.0
N624 N 0.83111 0.66156 0.94592 0.0
N625 N 0.761 0.64893 0.87927 0.0
H626 H 0.37793 0.82236 0.20187 0.0
H627 H 0.55588 0.95433 0.14657 0.0
H628 H 0.48986 0.82833 0.23491 0.0
H629 H 0.44515 0.96255 0.13511 0.0
H630 H 0.53228 0.90761 0.17762 0.0
H631 H 0.4018 0.87279 0.17661 0.0
C632 C 0.4076 0.83442 0.20408 0.0
C633 C 0.43191 0.82088 0.22059 0.0
C634 C 0.51311 0.91964 0.16848 0.0
C635 C 0.45959 0.87888 0.19106 0.0
C636 C 0.52653 0.94632 0.15063 0.0
C637 C 0.50243 0.96236 0.13806 0.0
C638 C 0.47507 0.90844 0.1736 0.0
C639 C 0.46469 0.95086 0.14418 0.0
C640 C 0.42118 0.86332 0.1896 0.0
C641 C 0.47004 0.83784 0.22263 0.0
N642 N 0.45214 0.92447 0.16129 0.0
N643 N 0.48272 0.86572 0.20773 0.0
H644 H 0.00493 0.22203 0.68448 0.0
H645 H 0.06582 0.07682 0.60897 0.0
H646 H 0.1186 0.22046 0.6947 0.0
H647 H 0.95778 0.09029 0.59494 0.0
H648 H 0.08734 0.1281 0.64078 0.0
H649 H 0.98857 0.17254 0.65243 0.0
C650 C 0.02661 0.21131 0.67998 0.0
C651 C 0.06327 0.22566 0.69244 0.0
C652 C 0.05899 0.11972 0.63061 0.0
C653 C 0.04447 0.16809 0.65524 0.0
C654 C 0.04675 0.09054 0.61247 0.0
C655 C 0.0099 0.0792 0.59938 0.0
C656 C 0.03407 0.13741 0.63561 0.0
C657 C 0.98635 0.09789 0.60464 0.0
C658 C 0.0172 0.18286 0.66151 0.0
C659 C 0.08998 0.21033 0.68556 0.0
N660 N 0.99876 0.12579 0.62228 0.0
N661 N 0.08006 0.18231 0.66748 0.0
H662 H 0.78111 0.41412 0.3631 0.0
H663 H 0.65241 0.41247 0.50671 0.0
H664 H 0.80081 0.38025 0.45455 0.0
H665 H 0.63704 0.45253 0.41762 0.0
H666 H 0.70729 0.4011 0.48811 0.0
H667 H 0.72952 0.4299 0.38308 0.0
C668 C 0.77481 0.41024 0.38748 0.0
C669 C 0.79521 0.39567 0.40714 0.0
C670 C 0.69197 0.4124 0.47261 0.0
C671 C 0.7359 0.41345 0.43007 0.0
C672 C 0.66042 0.41864 0.4831 0.0
C673 C 0.6399 0.43322 0.46357 0.0
C674 C 0.70315 0.4207 0.44228 0.0
C675 C 0.65212 0.44138 0.4335 0.0
C676 C 0.74528 0.41922 0.39885 0.0
C677 C 0.78581 0.39134 0.43853 0.0
N678 N 0.68287 0.43488 0.42372 0.0
N679 N 0.75666 0.39998 0.44896 0.0
loop_
_geom_bond_atom_site_label_1
_geom_bond_atom_site_label_2
_geom_bond_distance
_geom_bond_site_symmetry_2
_ccdc_geom_bond_type
O0 Cd1 2.300 . S
O0 C7 1.275 . S
Cd1 O0 2.300 . S
Cd1 O9 2.381 . S
Cd1 O10 2.378 . S
O2 Cd3 2.385 . S
O2 C7 1.255 . S
Cd3 O2 2.385 . S
Cd3 O4 2.317 . S
O4 Cd3 2.317 . S
O4 C5 1.232 . S
C5 O4 1.232 . S
C5 O6 1.218 . S
O6 C5 1.218 . S
C7 O0 1.275 . S
C7 O2 1.255 . S
C8 O9 1.258 . S
C8 O10 1.256 . S
O9 Cd1 2.381 . S
O9 C8 1.258 . S
O10 Cd1 2.378 . S
O10 C8 1.256 . S
O11 Cd12 2.300 . S
O11 C18 1.275 . S
Cd12 O11 2.300 . S
Cd12 O20 2.381 . S
Cd12 O21 2.378 . S
O13 Cd14 2.385 . S
O13 C18 1.255 . S
Cd14 O13 2.385 . S
Cd14 O15 2.317 . S
O15 Cd14 2.317 . S
O15 C16 1.232 . S
C16 O15 1.232 . S
C16 O17 1.218 . S
O17 C16 1.218 . S
C18 O11 1.275 . S
C18 O13 1.255 . S
C19 O20 1.258 . S
C19 O21 1.256 . S
O20 Cd12 2.381 . S
O20 C19 1.258 . S
O21 Cd12 2.378 . S
O21 C19 1.256 . S
O22 Cd23 2.300 . S
O22 C29 1.275 . S
Cd23 O22 2.300 . S
Cd23 O31 2.381 . S
Cd23 O32 2.378 . S
O24 Cd25 2.385 . S
O24 C29 1.255 . S
Cd25 O24 2.385 . S
Cd25 O26 2.317 . S
O26 Cd25 2.317 . S
O26 C27 1.232 . S
C27 O26 1.232 . S
C27 O28 1.218 . S
O28 C27 1.218 . S
C29 O22 1.275 . S
C29 O24 1.255 . S
C30 O31 1.258 . S
C30 O32 1.256 . S
O31 Cd23 2.381 . S
O31 C30 1.258 . S
O32 Cd23 2.378 . S
O32 C30 1.256 . S
O33 Cd34 2.300 . S
O33 C40 1.275 . S
Cd34 O33 2.300 . S
Cd34 O42 2.381 . S
Cd34 O43 2.378 . S
O35 Cd36 2.385 . S
O35 C40 1.255 . S
Cd36 O35 2.385 . S
Cd36 O37 2.317 . S
O37 Cd36 2.317 . S
O37 C38 1.232 . S
C38 O37 1.232 . S
C38 O39 1.218 . S
O39 C38 1.218 . S
C40 O33 1.275 . S
C40 O35 1.255 . S
C41 O42 1.258 . S
C41 O43 1.256 . S
O42 Cd34 2.381 . S
O42 C41 1.258 . S
O43 Cd34 2.378 . S
O43 C41 1.256 . S
O44 Cd45 2.300 . S
O44 C51 1.275 . S
Cd45 O44 2.300 . S
Cd45 O53 2.381 . S
Cd45 O54 2.378 . S
O46 Cd47 2.385 . S
O46 C51 1.255 . S
Cd47 O46 2.385 . S
Cd47 O48 2.317 . S
O48 Cd47 2.317 . S
O48 C49 1.232 . S
C49 O48 1.232 . S
C49 O50 1.218 . S
O50 C49 1.218 . S
C51 O44 1.275 . S
C51 O46 1.255 . S
C52 O53 1.258 . S
C52 O54 1.256 . S
O53 Cd45 2.381 . S
O53 C52 1.258 . S
O54 Cd45 2.378 . S
O54 C52 1.256 . S
O55 Cd56 2.300 . S
O55 C62 1.275 . S
Cd56 O55 2.300 . S
Cd56 O64 2.381 . S
Cd56 O65 2.378 . S
O57 Cd58 2.385 . S
O57 C62 1.255 . S
Cd58 O57 2.385 . S
Cd58 O59 2.317 . S
O59 Cd58 2.317 . S
O59 C60 1.232 . S
C60 O59 1.232 . S
C60 O61 1.218 . S
O61 C60 1.218 . S
C62 O55 1.275 . S
C62 O57 1.255 . S
C63 O64 1.258 . S
C63 O65 1.256 . S
O64 Cd56 2.381 . S
O64 C63 1.258 . S
O65 Cd56 2.378 . S
O65 C63 1.256 . S
O66 Cd67 2.300 . S
O66 C73 1.275 . S
Cd67 O66 2.300 . S
Cd67 O75 2.381 . S
Cd67 O76 2.378 . S
O68 Cd69 2.385 . S
O68 C73 1.255 . S
Cd69 O68 2.385 . S
Cd69 O70 2.317 . S
O70 Cd69 2.317 . S
O70 C71 1.232 . S
C71 O70 1.232 . S
C71 O72 1.218 . S
O72 C71 1.218 . S
C73 O66 1.275 . S
C73 O68 1.255 . S
C74 O75 1.258 . S
C74 O76 1.256 . S
O75 Cd67 2.381 . S
O75 C74 1.258 . S
O76 Cd67 2.378 . S
O76 C74 1.256 . S
O77 Cd78 2.300 . S
O77 C84 1.275 . S
Cd78 O77 2.300 . S
Cd78 O86 2.381 . S
Cd78 O87 2.378 . S
O79 Cd80 2.385 . S
O79 C84 1.255 . S
Cd80 O79 2.385 . S
Cd80 O81 2.317 . S
O81 Cd80 2.317 . S
O81 C82 1.232 . S
C82 O81 1.232 . S
C82 O83 1.218 . S
O83 C82 1.218 . S
C84 O77 1.275 . S
C84 O79 1.255 . S
C85 O86 1.258 . S
C85 O87 1.256 . S
O86 Cd78 2.381 . S
O86 C85 1.258 . S
O87 Cd78 2.378 . S
O87 C85 1.256 . S
Tb88 C90 2.809 1_545 S
Tb88 O108 2.484 1_545 S
Tb88 O109 2.440 1_545 S
Tb88 O110 2.658 1_655 S
Tb88 O111 2.409 . S
Tb88 O112 2.378 1_645 S
Tb88 O116 2.325 1_545 S
Tb88 O119 2.341 . S
Tb89 C99 2.809 . S
Tb89 O110 2.325 . S
Tb89 O113 2.341 1_545 S
Tb89 O114 2.484 . S
Tb89 O115 2.440 . S
Tb89 O116 2.658 1_445 S
Tb89 O117 2.409 1_545 S
Tb89 O118 2.378 1_455 S
C90 Tb88 2.809 1_565 S
C90 C91 1.514 . S
C90 O108 1.248 . S
C90 O109 1.266 . S
C91 C90 1.514 . S
C91 C92 1.359 . S
C91 C96 1.348 . S
C92 C91 1.359 . S
C92 C93 1.380 . S
C92 H120 0.929 . S
C93 C92 1.380 . S
C93 C94 1.347 . S
C93 H121 0.931 . S
C94 C93 1.347 . S
C94 C95 1.369 . S
C95 C94 1.369 . S
C95 C96 1.408 . S
C95 H122 0.930 . S
C96 C91 1.348 . S
C96 C95 1.408 . S
C96 H123 0.930 . S
C97 O110 1.281 . S
C97 O111 1.254 1_455 S
C98 O112 1.236 . S
C98 O113 1.266 . S
C99 Tb89 2.809 . S
C99 C100 1.514 . S
C99 O114 1.248 . S
C99 O115 1.266 . S
C100 C99 1.514 . S
C100 C101 1.359 . S
C100 C105 1.348 . S
C101 C100 1.359 . S
C101 C102 1.380 . S
C101 H124 0.929 . S
C102 C101 1.380 . S
C102 C103 1.347 . S
C102 H125 0.931 . S
C103 C102 1.347 . S
C103 C104 1.369 . S
C104 C103 1.369 . S
C104 C105 1.408 . S
C104 H126 0.930 . S
C105 C100 1.348 . S
C105 C104 1.408 . S
C105 H127 0.930 . S
C106 O116 1.281 . S
C106 O117 1.254 1_655 S
C107 O118 1.236 . S
C107 O119 1.266 . S
O108 Tb88 2.484 1_565 S
O108 C90 1.248 . S
O109 Tb88 2.440 1_565 S
O109 C90 1.266 . S
O110 Tb88 2.658 1_455 S
O110 Tb89 2.325 . S
O110 C97 1.281 . S
O111 Tb88 2.409 . S
O111 C97 1.254 1_655 S
O112 Tb88 2.378 1_465 S
O112 C98 1.236 . S
O113 Tb89 2.341 1_565 S
O113 C98 1.266 . S
O114 Tb89 2.484 . S
O114 C99 1.248 . S
O115 Tb89 2.440 . S
O115 C99 1.266 . S
O116 Tb88 2.325 1_565 S
O116 Tb89 2.658 1_665 S
O116 C106 1.281 . S
O117 Tb89 2.409 1_565 S
O117 C106 1.254 1_455 S
O118 Tb89 2.378 1_655 S
O118 C107 1.236 . S
O119 Tb88 2.341 . S
O119 C107 1.266 . S
H120 C92 0.929 . S
H121 C93 0.931 . S
H122 C95 0.930 . S
H123 C96 0.930 . S
H124 C101 0.929 . S
H125 C102 0.931 . S
H126 C104 0.930 . S
H127 C105 0.930 . S
Tb128 C130 2.809 . S
Tb128 O148 2.484 . S
Tb128 O149 2.440 . S
Tb128 O150 2.660 . S
Tb128 O151 2.409 1_545 S
Tb128 O152 2.378 . S
Tb128 O156 2.325 . S
Tb128 O159 2.341 . S
Tb129 C139 2.809 1_544 S
Tb129 O150 2.327 . S
Tb129 O153 2.341 . S
Tb129 O154 2.484 1_545 S
Tb129 O155 2.440 1_554 S
Tb129 O156 2.658 . S
Tb129 O157 2.409 1_554 S
Tb129 O158 2.378 1_554 S
C130 Tb128 2.809 . S
C130 C131 1.514 . S
C130 O148 1.248 . S
C130 O149 1.266 . S
C131 C130 1.514 . S
C131 C132 1.359 . S
C131 C136 1.348 . S
C132 C131 1.359 . S
C132 C133 1.380 . S
C132 H160 0.929 . S
C133 C132 1.380 . S
C133 C134 1.347 . S
C133 H161 0.931 . S
C134 C133 1.347 . S
C134 C135 1.369 . S
C135 C134 1.369 . S
C135 C136 1.408 . S
C135 H162 0.930 . S
C136 C131 1.348 . S
C136 C135 1.408 . S
C136 H163 0.930 . S
C137 O150 1.279 1_565 S
C137 O151 1.254 . S
C138 O152 1.236 . S
C138 O153 1.266 . S
C139 Tb129 2.809 1_566 S
C139 C140 1.514 . S
C139 O154 1.248 1_556 S
C139 O155 1.266 1_565 S
C140 C139 1.514 . S
C140 C141 1.359 . S
C140 C145 1.348 . S
C141 C140 1.359 . S
C141 C142 1.380 . S
C141 H164 0.929 . S
C142 C141 1.380 . S
C142 C143 1.347 . S
C142 H165 0.931 . S
C143 C142 1.347 . S
C143 C144 1.369 . S
C144 C143 1.369 . S
C144 C145 1.408 . S
C144 H166 0.930 . S
C145 C140 1.348 . S
C145 C144 1.408 . S
C145 H167 0.930 . S
C146 O156 1.281 . S
C146 O157 1.254 1_554 S
C147 O158 1.236 1_564 S
C147 O159 1.266 1_565 S
O148 Tb128 2.484 . S
O148 C130 1.248 . S
O149 Tb128 2.440 . S
O149 C130 1.266 . S
O150 Tb128 2.660 . S
O150 Tb129 2.327 . S
O150 C137 1.279 1_545 S
O151 Tb128 2.409 1_565 S
O151 C137 1.254 . S
O152 Tb128 2.378 . S
O152 C138 1.236 . S
O153 Tb129 2.341 . S
O153 C138 1.266 . S
O154 Tb129 2.484 1_565 S
O154 C139 1.248 1_554 S
O155 Tb129 2.440 1_556 S
O155 C139 1.266 1_545 S
O156 Tb128 2.325 . S
O156 Tb129 2.658 . S
O156 C146 1.281 . S
O157 Tb129 2.409 1_556 S
O157 C146 1.254 1_556 S
O158 Tb129 2.378 1_556 S
O158 C147 1.236 1_546 S
O159 Tb128 2.341 . S
O159 C147 1.266 1_545 S
H160 C132 0.929 . S
H161 C133 0.931 . S
H162 C135 0.930 . S
H163 C136 0.930 . S
H164 C141 0.929 . S
H165 C142 0.931 . S
H166 C144 0.930 . S
H167 C145 0.930 . S
Tb168 C170 2.809 . S
Tb168 O188 2.484 . S
Tb168 O189 2.440 . S
Tb168 O190 2.658 . S
Tb168 O191 2.409 . S
Tb168 O192 2.378 . S
Tb168 O196 2.325 . S
Tb168 O199 2.341 . S
Tb169 C179 2.809 . S
Tb169 O190 2.325 . S
Tb169 O193 2.341 . S
Tb169 O194 2.484 . S
Tb169 O195 2.440 . S
Tb169 O196 2.658 . S
Tb169 O197 2.409 . S
Tb169 O198 2.378 . S
C170 Tb168 2.809 . S
C170 C171 1.514 . S
C170 O188 1.248 . S
C170 O189 1.266 . S
C171 C170 1.514 . S
C171 C172 1.359 . S
C171 C176 1.348 . S
C172 C171 1.359 . S
C172 C173 1.380 . S
C172 H200 0.929 . S
C173 C172 1.380 . S
C173 C174 1.347 . S
C173 H201 0.931 . S
C174 C173 1.347 . S
C174 C175 1.369 . S
C175 C174 1.369 . S
C175 C176 1.408 . S
C175 H202 0.930 . S
C176 C171 1.348 . S
C176 C175 1.408 . S
C176 H203 0.930 . S
C177 O190 1.281 . S
C177 O191 1.254 . S
C178 O192 1.236 . S
C178 O193 1.266 . S
C179 Tb169 2.809 . S
C179 C180 1.514 . S
C179 O194 1.248 . S
C179 O195 1.266 . S
C180 C179 1.514 . S
C180 C181 1.359 . S
C180 C185 1.348 . S
C181 C180 1.359 . S
C181 C182 1.380 . S
C181 H204 0.929 . S
C182 C181 1.380 . S
C182 C183 1.347 . S
C182 H205 0.931 . S
C183 C182 1.347 . S
C183 C184 1.369 . S
C184 C183 1.369 . S
C184 C185 1.408 . S
C184 H206 0.930 . S
C185 C180 1.348 . S
C185 C184 1.408 . S
C185 H207 0.930 . S
C186 O196 1.281 . S
C186 O197 1.254 . S
C187 O198 1.236 . S
C187 O199 1.266 . S
O188 Tb168 2.484 . S
O188 C170 1.248 . S
O189 Tb168 2.440 . S
O189 C170 1.266 . S
O190 Tb168 2.658 . S
O190 Tb169 2.325 . S
O190 C177 1.281 . S
O191 Tb168 2.409 . S
O191 C177 1.254 . S
O192 Tb168 2.378 . S
O192 C178 1.236 . S
O193 Tb169 2.341 . S
O193 C178 1.266 . S
O194 Tb169 2.484 . S
O194 C179 1.248 . S
O195 Tb169 2.440 . S
O195 C179 1.266 . S
O196 Tb168 2.325 . S
O196 Tb169 2.658 . S
O196 C186 1.281 . S
O197 Tb169 2.409 . S
O197 C186 1.254 . S
O198 Tb169 2.378 . S
O198 C187 1.236 . S
O199 Tb168 2.341 . S
O199 C187 1.266 . S
H200 C172 0.929 . S
H201 C173 0.931 . S
H202 C175 0.930 . S
H203 C176 0.930 . S
H204 C181 0.929 . S
H205 C182 0.931 . S
H206 C184 0.930 . S
H207 C185 0.930 . S
Tb208 C210 2.809 1_455 S
Tb208 O228 2.484 1_455 S
Tb208 O229 2.440 . S
Tb208 O230 2.658 1_556 S
Tb208 O231 2.409 1_556 S
Tb208 O232 2.387 1_556 S
Tb208 O236 2.325 1_455 S
Tb208 O239 2.341 . S
Tb209 C219 2.809 . S
Tb209 O230 2.325 . S
Tb209 O233 2.341 1_455 S
Tb209 O234 2.484 . S
Tb209 O235 2.440 . S
Tb209 O236 2.658 1_454 S
Tb209 O237 2.409 1_455 S
Tb209 O238 2.378 1_554 S
C210 Tb208 2.809 1_655 S
C210 C211 1.514 . S
C210 O228 1.248 . S
C210 O229 1.266 1_655 S
C211 C210 1.514 . S
C211 C212 1.359 . S
C211 C216 1.348 . S
C212 C211 1.359 . S
C212 C213 1.380 . S
C212 H240 0.929 . S
C213 C212 1.380 . S
C213 C214 1.347 . S
C213 H241 0.931 . S
C214 C213 1.347 . S
C214 C215 1.369 . S
C215 C214 1.369 . S
C215 C216 1.408 . S
C215 H242 0.930 . S
C216 C211 1.348 . S
C216 C215 1.408 . S
C216 H243 0.930 1_655 S
C217 O230 1.281 . S
C217 O231 1.254 . S
C218 O232 1.229 1_655 S
C218 O233 1.266 . S
C219 Tb209 2.809 . S
C219 C220 1.514 . S
C219 O234 1.248 . S
C219 O235 1.266 . S
C220 C219 1.514 . S
C220 C221 1.359 . S
C220 C225 1.348 . S
C221 C220 1.359 . S
C221 C222 1.380 . S
C221 H244 0.929 . S
C222 C221 1.380 . S
C222 C223 1.347 . S
C222 H245 0.931 . S
C223 C222 1.347 . S
C223 C224 1.369 . S
C224 C223 1.369 . S
C224 C225 1.408 . S
C224 H246 0.930 . S
C225 C220 1.348 . S
C225 C224 1.408 . S
C225 H247 0.930 . S
C226 O236 1.281 . S
C226 O237 1.254 1_556 S
C227 O238 1.236 . S
C227 O239 1.266 . S
O228 Tb208 2.484 1_655 S
O228 C210 1.248 . S
O229 Tb208 2.440 . S
O229 C210 1.266 1_455 S
O230 Tb208 2.658 1_554 S
O230 Tb209 2.325 . S
O230 C217 1.281 . S
O231 Tb208 2.409 1_554 S
O231 C217 1.254 . S
O232 Tb208 2.387 1_554 S
O232 C218 1.229 1_455 S
O233 Tb209 2.341 1_655 S
O233 C218 1.266 . S
O234 Tb209 2.484 . S
O234 C219 1.248 . S
O235 Tb209 2.440 . S
O235 C219 1.266 . S
O236 Tb208 2.325 1_655 S
O236 Tb209 2.658 1_656 S
O236 C226 1.281 . S
O237 Tb209 2.409 1_655 S
O237 C226 1.254 1_554 S
O238 Tb209 2.378 1_556 S
O238 C227 1.236 . S
O239 Tb208 2.341 . S
O239 C227 1.266 . S
H240 C212 0.929 . S
H241 C213 0.931 . S
H242 C215 0.930 . S
H243 C216 0.930 1_455 S
H244 C221 0.929 . S
H245 C222 0.931 . S
H246 C224 0.930 . S
H247 C225 0.930 . S
H248 C254 0.930 . S
H249 C258 0.930 . S
H250 C263 0.929 . S
H251 C261 0.929 . S
H252 C256 0.929 . S
H253 C262 0.929 . S
C254 H248 0.930 . S
C254 C255 1.367 . S
C254 C262 1.378 . S
C255 C254 1.367 . S
C255 C263 1.433 . S
C256 H252 0.929 . S
C256 C258 1.378 . S
C256 C260 1.350 . S
C257 C260 1.463 . S
C257 C262 1.350 . S
C257 N265 1.427 . S
C258 H249 0.930 . S
C258 C256 1.378 . S
C258 C259 1.367 . S
C259 C258 1.367 . S
C259 C261 1.433 . S
C260 C256 1.350 . S
C260 C257 1.463 . S
C260 N264 1.427 . S
C261 H251 0.929 . S
C261 C259 1.433 . S
C261 N264 1.384 . S
C262 H253 0.929 . S
C262 C254 1.378 . S
C262 C257 1.350 . S
C263 H250 0.929 . S
C263 C255 1.433 . S
C263 N265 1.384 . S
N264 C260 1.427 . S
N264 C261 1.384 . S
N265 C257 1.427 . S
N265 C263 1.384 . S
H266 C272 0.930 . S
H267 C276 0.930 . S
H268 C281 0.929 . S
H269 C279 0.929 . S
H270 C274 0.929 . S
H271 C280 0.929 . S
C272 H266 0.930 . S
C272 C273 1.367 . S
C272 C280 1.378 . S
C273 C272 1.367 . S
C273 C281 1.433 . S
C274 H270 0.929 . S
C274 C276 1.378 . S
C274 C278 1.350 . S
C275 C278 1.463 . S
C275 C280 1.350 . S
C275 N283 1.427 . S
C276 H267 0.930 . S
C276 C274 1.378 . S
C276 C277 1.367 . S
C277 C276 1.367 . S
C277 C279 1.433 . S
C278 C274 1.350 . S
C278 C275 1.463 . S
C278 N282 1.427 . S
C279 H269 0.929 . S
C279 C277 1.433 . S
C279 N282 1.384 . S
C280 H271 0.929 . S
C280 C272 1.378 . S
C280 C275 1.350 . S
C281 H268 0.929 . S
C281 C273 1.433 . S
C281 N283 1.384 . S
N282 C278 1.427 . S
N282 C279 1.384 . S
N283 C275 1.427 . S
N283 C281 1.384 . S
H284 C290 0.930 . S
H285 C294 0.930 . S
H286 C299 0.929 . S
H287 C297 0.929 . S
H288 C292 0.929 . S
H289 C298 0.929 . S
C290 H284 0.930 . S
C290 C291 1.367 . S
C290 C298 1.378 . S
C291 C290 1.367 . S
C291 C299 1.433 . S
C292 H288 0.929 . S
C292 C294 1.378 . S
C292 C296 1.350 . S
C293 C296 1.463 . S
C293 C298 1.350 . S
C293 N301 1.427 . S
C294 H285 0.930 . S
C294 C292 1.378 . S
C294 C295 1.367 . S
C295 C294 1.367 . S
C295 C297 1.433 . S
C296 C292 1.350 . S
C296 C293 1.463 . S
C296 N300 1.427 . S
C297 H287 0.929 . S
C297 C295 1.433 . S
C297 N300 1.384 . S
C298 H289 0.929 . S
C298 C290 1.378 . S
C298 C293 1.350 . S
C299 H286 0.929 . S
C299 C291 1.433 . S
C299 N301 1.384 . S
N300 C296 1.427 . S
N300 C297 1.384 . S
N301 C293 1.427 . S
N301 C299 1.384 . S
H302 C308 0.930 . S
H303 C312 0.930 . S
H304 C317 0.929 . S
H305 C315 0.929 . S
H306 C310 0.929 . S
H307 C316 0.929 . S
C308 H302 0.930 . S
C308 C309 1.367 . S
C308 C316 1.378 . S
C309 C308 1.367 . S
C309 C317 1.433 . S
C310 H306 0.929 . S
C310 C312 1.378 . S
C310 C314 1.350 . S
C311 C314 1.463 . S
C311 C316 1.350 . S
C311 N319 1.427 . S
C312 H303 0.930 . S
C312 C310 1.378 . S
C312 C313 1.367 . S
C313 C312 1.367 . S
C313 C315 1.433 . S
C314 C310 1.350 . S
C314 C311 1.463 . S
C314 N318 1.427 . S
C315 H305 0.929 . S
C315 C313 1.433 . S
C315 N318 1.384 . S
C316 H307 0.929 . S
C316 C308 1.378 . S
C316 C311 1.350 . S
C317 H304 0.929 . S
C317 C309 1.433 . S
C317 N319 1.384 . S
N318 C314 1.427 . S
N318 C315 1.384 . S
N319 C311 1.427 . S
N319 C317 1.384 . S
H320 C326 0.930 . S
H321 C330 0.930 . S
H322 C335 0.929 . S
H323 C333 0.929 . S
H324 C328 0.929 . S
H325 C334 0.929 . S
C326 H320 0.930 . S
C326 C327 1.367 . S
C326 C334 1.378 . S
C327 C326 1.367 . S
C327 C335 1.433 . S
C328 H324 0.929 . S
C328 C330 1.378 . S
C328 C332 1.350 . S
C329 C332 1.463 . S
C329 C334 1.350 . S
C329 N337 1.427 . S
C330 H321 0.930 . S
C330 C328 1.378 . S
C330 C331 1.367 . S
C331 C330 1.367 . S
C331 C333 1.433 . S
C332 C328 1.350 . S
C332 C329 1.463 . S
C332 N336 1.427 . S
C333 H323 0.929 . S
C333 C331 1.433 . S
C333 N336 1.384 . S
C334 H325 0.929 . S
C334 C326 1.378 . S
C334 C329 1.350 . S
C335 H322 0.929 . S
C335 C327 1.433 . S
C335 N337 1.384 . S
N336 C332 1.427 . S
N336 C333 1.384 . S
N337 C329 1.427 . S
N337 C335 1.384 . S
H338 C344 0.930 . S
H339 C348 0.930 . S
H340 C353 0.929 . S
H341 C351 0.929 1_655 S
H342 C346 0.929 . S
H343 C352 0.950 . S
C344 H338 0.930 . S
C344 C345 1.367 . S
C344 C352 1.378 . S
C345 C344 1.367 . S
C345 C353 1.433 . S
C346 H342 0.929 . S
C346 C348 1.378 . S
C346 C350 1.350 . S
C347 C350 1.463 . S
C347 C352 1.350 . S
C347 N355 1.427 . S
C348 H339 0.930 . S
C348 C346 1.378 . S
C348 C349 1.367 . S
C349 C348 1.367 . S
C349 C351 1.433 . S
C350 C346 1.350 . S
C350 C347 1.463 . S
C350 N354 1.427 . S
C351 H341 0.929 1_455 S
C351 C349 1.433 . S
C351 N354 1.384 . S
C352 H343 0.950 . S
C352 C344 1.378 . S
C352 C347 1.350 . S
C353 H340 0.929 . S
C353 C345 1.433 . S
C353 N355 1.384 . S
N354 C350 1.427 . S
N354 C351 1.384 . S
N355 C347 1.427 . S
N355 C353 1.384 . S
H356 C362 0.930 . S
H357 C366 0.930 . S
H358 C371 0.929 . S
H359 C369 0.929 . S
H360 C364 0.929 . S
H361 C370 0.929 . S
C362 H356 0.930 . S
C362 C363 1.367 . S
C362 C370 1.378 . S
C363 C362 1.367 . S
C363 C371 1.433 . S
C364 H360 0.929 . S
C364 C366 1.378 . S
C364 C368 1.350 . S
C365 C368 1.463 . S
C365 C370 1.350 . S
C365 N373 1.427 . S
C366 H357 0.930 . S
C366 C364 1.378 . S
C366 C367 1.367 . S
C367 C366 1.367 . S
C367 C369 1.433 . S
C368 C364 1.350 . S
C368 C365 1.463 . S
C368 N372 1.427 . S
C369 H359 0.929 . S
C369 C367 1.433 . S
C369 N372 1.384 . S
C370 H361 0.929 . S
C370 C362 1.378 . S
C370 C365 1.350 . S
C371 H358 0.929 . S
C371 C363 1.433 . S
C371 N373 1.384 . S
N372 C368 1.427 . S
N372 C369 1.384 . S
N373 C365 1.427 . S
N373 C371 1.384 . S
H374 C380 0.930 . S
H375 C384 0.930 . S
H376 C389 0.929 . S
H377 C387 0.929 . S
H378 C382 0.929 . S
H379 C388 0.929 . S
C380 H374 0.930 . S
C380 C381 1.367 . S
C380 C388 1.378 . S
C381 C380 1.367 . S
C381 C389 1.433 . S
C382 H378 0.929 . S
C382 C384 1.378 . S
C382 C386 1.350 . S
C383 C386 1.463 . S
C383 C388 1.350 . S
C383 N391 1.427 . S
C384 H375 0.930 . S
C384 C382 1.378 . S
C384 C385 1.367 . S
C385 C384 1.367 . S
C385 C387 1.433 . S
C386 C382 1.350 . S
C386 C383 1.463 . S
C386 N390 1.427 . S
C387 H377 0.929 . S
C387 C385 1.433 . S
C387 N390 1.384 . S
C388 H379 0.929 . S
C388 C380 1.378 . S
C388 C383 1.350 . S
C389 H376 0.929 . S
C389 C381 1.433 . S
C389 N391 1.384 . S
N390 C386 1.427 . S
N390 C387 1.384 . S
N391 C383 1.427 . S
N391 C389 1.384 . S
H392 C398 0.930 . S
H393 C402 0.930 . S
H394 C407 0.929 . S
H395 C405 0.929 . S
H396 C400 0.929 . S
H397 C406 0.929 . S
C398 H392 0.930 . S
C398 C399 1.367 . S
C398 C406 1.378 . S
C399 C398 1.367 . S
C399 C407 1.433 . S
C400 H396 0.929 . S
C400 C402 1.378 . S
C400 C404 1.350 . S
C401 C404 1.463 . S
C401 C406 1.350 . S
C401 N409 1.427 . S
C402 H393 0.930 . S
C402 C400 1.378 . S
C402 C403 1.367 . S
C403 C402 1.367 . S
C403 C405 1.433 . S
C404 C400 1.350 . S
C404 C401 1.463 . S
C404 N408 1.427 . S
C405 H395 0.929 . S
C405 C403 1.433 . S
C405 N408 1.384 . S
C406 H397 0.929 . S
C406 C398 1.378 . S
C406 C401 1.350 . S
C407 H394 0.929 . S
C407 C399 1.433 . S
C407 N409 1.384 . S
N408 C404 1.427 . S
N408 C405 1.384 . S
N409 C401 1.427 . S
N409 C407 1.384 . S
H410 C416 0.930 . S
H411 C420 0.930 1_554 S
H412 C425 0.929 . S
H413 C423 0.929 . S
H414 C418 0.929 . S
H415 C424 0.929 . S
C416 H410 0.930 . S
C416 C417 1.367 . S
C416 C424 1.378 . S
C417 C416 1.367 . S
C417 C425 1.433 . S
C418 H414 0.929 . S
C418 C420 1.378 . S
C418 C422 1.350 . S
C419 C422 1.463 . S
C419 C424 1.350 . S
C419 N427 1.427 . S
C420 H411 0.930 1_556 S
C420 C418 1.378 . S
C420 C421 1.367 . S
C421 C420 1.367 . S
C421 C423 1.433 . S
C422 C418 1.350 . S
C422 C419 1.463 . S
C422 N426 1.427 . S
C423 H413 0.929 . S
C423 C421 1.433 . S
C423 N426 1.384 . S
C424 H415 0.929 . S
C424 C416 1.378 . S
C424 C419 1.350 . S
C425 H412 0.929 . S
C425 C417 1.433 . S
C425 N427 1.384 . S
N426 C422 1.427 . S
N426 C423 1.384 . S
N427 C419 1.427 . S
N427 C425 1.384 . S
H428 C434 0.930 . S
H429 C438 0.930 . S
H430 C443 0.929 . S
H431 C441 0.929 . S
H432 C436 0.929 . S
H433 C442 0.929 . S
C434 H428 0.930 . S
C434 C435 1.367 . S
C434 C442 1.378 . S
C435 C434 1.367 . S
C435 C443 1.433 . S
C436 H432 0.929 . S
C436 C438 1.378 . S
C436 C440 1.350 . S
C437 C440 1.463 . S
C437 C442 1.350 . S
C437 N445 1.427 . S
C438 H429 0.930 . S
C438 C436 1.378 . S
C438 C439 1.367 . S
C439 C438 1.367 . S
C439 C441 1.433 . S
C440 C436 1.350 . S
C440 C437 1.463 . S
C440 N444 1.427 . S
C441 H431 0.929 . S
C441 C439 1.433 . S
C441 N444 1.384 . S
C442 H433 0.929 . S
C442 C434 1.378 . S
C442 C437 1.350 . S
C443 H430 0.929 . S
C443 C435 1.433 . S
C443 N445 1.384 . S
N444 C440 1.427 . S
N444 C441 1.384 . S
N445 C437 1.427 . S
N445 C443 1.384 . S
H446 C452 0.930 . S
H447 C456 0.930 . S
H448 C461 0.929 . S
H449 C459 0.929 . S
H450 C454 0.929 . S
H451 C460 0.929 . S
C452 H446 0.930 . S
C452 C453 1.367 . S
C452 C460 1.378 . S
C453 C452 1.367 . S
C453 C461 1.433 . S
C454 H450 0.929 . S
C454 C456 1.378 . S
C454 C458 1.350 . S
C455 C458 1.463 . S
C455 C460 1.350 . S
C455 N463 1.427 . S
C456 H447 0.930 . S
C456 C454 1.378 . S
C456 C457 1.367 . S
C457 C456 1.367 . S
C457 C459 1.433 . S
C458 C454 1.350 . S
C458 C455 1.463 . S
C458 N462 1.427 . S
C459 H449 0.929 . S
C459 C457 1.433 . S
C459 N462 1.384 . S
C460 H451 0.929 . S
C460 C452 1.378 . S
C460 C455 1.350 . S
C461 H448 0.929 . S
C461 C453 1.433 . S
C461 N463 1.384 . S
N462 C458 1.427 . S
N462 C459 1.384 . S
N463 C455 1.427 . S
N463 C461 1.384 . S
H464 C470 0.930 . S
H465 C474 0.930 . S
H466 C479 0.929 . S
H467 C477 0.929 . S
H468 C472 0.929 . S
H469 C478 0.929 . S
C470 H464 0.930 . S
C470 C471 1.367 . S
C470 C478 1.378 . S
C471 C470 1.367 . S
C471 C479 1.433 . S
C472 H468 0.929 . S
C472 C474 1.378 . S
C472 C476 1.350 . S
C473 C476 1.463 . S
C473 C478 1.350 . S
C473 N481 1.427 . S
C474 H465 0.930 . S
C474 C472 1.378 . S
C474 C475 1.367 . S
C475 C474 1.367 . S
C475 C477 1.433 . S
C476 C472 1.350 . S
C476 C473 1.463 . S
C476 N480 1.427 . S
C477 H467 0.929 . S
C477 C475 1.433 . S
C477 N480 1.384 . S
C478 H469 0.929 . S
C478 C470 1.378 . S
C478 C473 1.350 . S
C479 H466 0.929 . S
C479 C471 1.433 . S
C479 N481 1.384 . S
N480 C476 1.427 . S
N480 C477 1.384 . S
N481 C473 1.427 . S
N481 C479 1.384 . S
H482 C488 0.930 . S
H483 C492 0.930 . S
H484 C497 0.929 . S
H485 C495 0.929 . S
H486 C490 0.929 . S
H487 C496 0.929 . S
C488 H482 0.930 . S
C488 C489 1.367 . S
C488 C496 1.378 . S
C489 C488 1.367 . S
C489 C497 1.433 . S
C490 H486 0.929 . S
C490 C492 1.378 . S
C490 C494 1.350 . S
C491 C494 1.463 . S
C491 C496 1.350 . S
C491 N499 1.427 . S
C492 H483 0.930 . S
C492 C490 1.378 . S
C492 C493 1.367 . S
C493 C492 1.367 . S
C493 C495 1.433 . S
C494 C490 1.350 . S
C494 C491 1.463 . S
C494 N498 1.427 . S
C495 H485 0.929 . S
C495 C493 1.433 . S
C495 N498 1.384 . S
C496 H487 0.929 . S
C496 C488 1.378 . S
C496 C491 1.350 . S
C497 H484 0.929 . S
C497 C489 1.433 . S
C497 N499 1.384 . S
N498 C494 1.427 . S
N498 C495 1.384 . S
N499 C491 1.427 . S
N499 C497 1.384 . S
H500 C506 0.930 . S
H501 C510 0.930 . S
H502 C515 0.929 . S
H503 C513 0.929 . S
H504 C508 0.929 . S
H505 C514 0.929 . S
C506 H500 0.930 . S
C506 C507 1.367 . S
C506 C514 1.378 . S
C507 C506 1.367 . S
C507 C515 1.433 . S
C508 H504 0.929 . S
C508 C510 1.378 . S
C508 C512 1.350 . S
C509 C512 1.463 . S
C509 C514 1.350 . S
C509 N517 1.427 . S
C510 H501 0.930 . S
C510 C508 1.378 . S
C510 C511 1.367 . S
C511 C510 1.367 . S
C511 C513 1.433 . S
C512 C508 1.350 . S
C512 C509 1.463 . S
C512 N516 1.427 . S
C513 H503 0.929 . S
C513 C511 1.433 . S
C513 N516 1.384 . S
C514 H505 0.929 . S
C514 C506 1.378 . S
C514 C509 1.350 . S
C515 H502 0.929 . S
C515 C507 1.433 . S
C515 N517 1.384 . S
N516 C512 1.427 . S
N516 C513 1.384 . S
N517 C509 1.427 . S
N517 C515 1.384 . S
H518 C524 0.930 . S
H519 C528 0.930 . S
H520 C533 0.929 . S
H521 C531 0.929 . S
H522 C526 0.929 . S
H523 C532 0.929 . S
C524 H518 0.930 . S
C524 C525 1.367 . S
C524 C532 1.378 . S
C525 C524 1.367 . S
C525 C533 1.433 . S
C526 H522 0.929 . S
C526 C528 1.378 . S
C526 C530 1.350 . S
C527 C530 1.463 . S
C527 C532 1.350 . S
C527 N535 1.427 . S
C528 H519 0.930 . S
C528 C526 1.378 . S
C528 C529 1.367 . S
C529 C528 1.367 . S
C529 C531 1.433 . S
C530 C526 1.350 . S
C530 C527 1.463 . S
C530 N534 1.427 . S
C531 H521 0.929 . S
C531 C529 1.433 . S
C531 N534 1.384 . S
C532 H523 0.929 . S
C532 C524 1.378 . S
C532 C527 1.350 . S
C533 H520 0.929 . S
C533 C525 1.433 . S
C533 N535 1.384 . S
N534 C530 1.427 . S
N534 C531 1.384 . S
N535 C527 1.427 . S
N535 C533 1.384 . S
H536 C542 0.930 . S
H537 C546 0.930 . S
H538 C551 0.929 . S
H539 C549 0.929 . S
H540 C544 0.929 . S
H541 C550 0.929 . S
C542 H536 0.930 . S
C542 C543 1.367 . S
C542 C550 1.378 . S
C543 C542 1.367 . S
C543 C551 1.433 . S
C544 H540 0.929 . S
C544 C546 1.378 . S
C544 C548 1.350 . S
C545 C548 1.463 . S
C545 C550 1.350 . S
C545 N553 1.427 . S
C546 H537 0.930 . S
C546 C544 1.378 . S
C546 C547 1.367 . S
C547 C546 1.367 . S
C547 C549 1.433 . S
C548 C544 1.350 . S
C548 C545 1.463 . S
C548 N552 1.427 . S
C549 H539 0.929 . S
C549 C547 1.433 . S
C549 N552 1.384 . S
C550 H541 0.929 . S
C550 C542 1.378 . S
C550 C545 1.350 . S
C551 H538 0.929 . S
C551 C543 1.433 . S
C551 N553 1.384 . S
N552 C548 1.427 . S
N552 C549 1.384 . S
N553 C545 1.427 . S
N553 C551 1.384 . S
H554 C560 0.930 . S
H555 C564 0.930 . S
H556 C569 0.929 . S
H557 C567 0.929 . S
H558 C562 0.929 . S
H559 C568 0.929 . S
C560 H554 0.930 . S
C560 C561 1.367 . S
C560 C568 1.378 . S
C561 C560 1.367 . S
C561 C569 1.433 . S
C562 H558 0.929 . S
C562 C564 1.378 . S
C562 C566 1.350 . S
C563 C566 1.463 . S
C563 C568 1.350 . S
C563 N571 1.427 . S
C564 H555 0.930 . S
C564 C562 1.378 . S
C564 C565 1.367 . S
C565 C564 1.367 . S
C565 C567 1.433 . S
C566 C562 1.350 . S
C566 C563 1.463 . S
C566 N570 1.427 . S
C567 H557 0.929 . S
C567 C565 1.433 . S
C567 N570 1.384 . S
C568 H559 0.929 . S
C568 C560 1.378 . S
C568 C563 1.350 . S
C569 H556 0.929 . S
C569 C561 1.433 . S
C569 N571 1.384 . S
N570 C566 1.427 . S
N570 C567 1.384 . S
N571 C563 1.427 . S
N571 C569 1.384 . S
H572 C578 0.930 . S
H573 C582 0.930 . S
H574 C587 0.929 . S
H575 C585 0.929 . S
H576 C580 0.929 . S
H577 C586 0.929 . S
C578 H572 0.930 . S
C578 C579 1.367 . S
C578 C586 1.378 . S
C579 C578 1.367 . S
C579 C587 1.433 . S
C580 H576 0.929 . S
C580 C582 1.378 . S
C580 C584 1.350 . S
C581 C584 1.463 . S
C581 C586 1.350 . S
C581 N589 1.427 . S
C582 H573 0.930 . S
C582 C580 1.378 . S
C582 C583 1.367 . S
C583 C582 1.367 . S
C583 C585 1.433 . S
C584 C580 1.350 . S
C584 C581 1.463 . S
C584 N588 1.427 . S
C585 H575 0.929 . S
C585 C583 1.433 . S
C585 N588 1.384 . S
C586 H577 0.929 . S
C586 C578 1.378 . S
C586 C581 1.350 . S
C587 H574 0.929 . S
C587 C579 1.433 . S
C587 N589 1.384 . S
N588 C584 1.427 . S
N588 C585 1.384 . S
N589 C581 1.427 . S
N589 C587 1.384 . S
H590 C596 0.930 . S
H591 C600 0.930 . S
H592 C605 0.929 . S
H593 C603 0.929 . S
H594 C598 0.929 . S
H595 C604 0.929 . S
C596 H590 0.930 . S
C596 C597 1.367 . S
C596 C604 1.378 . S
C597 C596 1.367 . S
C597 C605 1.433 . S
C598 H594 0.929 . S
C598 C600 1.378 . S
C598 C602 1.350 . S
C599 C602 1.463 . S
C599 C604 1.350 . S
C599 N607 1.427 . S
C600 H591 0.930 . S
C600 C598 1.378 . S
C600 C601 1.367 . S
C601 C600 1.367 . S
C601 C603 1.433 . S
C602 C598 1.350 . S
C602 C599 1.463 . S
C602 N606 1.427 . S
C603 H593 0.929 . S
C603 C601 1.433 . S
C603 N606 1.384 . S
C604 H595 0.929 . S
C604 C596 1.378 . S
C604 C599 1.350 . S
C605 H592 0.929 . S
C605 C597 1.433 . S
C605 N607 1.384 . S
N606 C602 1.427 . S
N606 C603 1.384 . S
N607 C599 1.427 . S
N607 C605 1.384 . S
H608 C614 0.930 . S
H609 C618 0.930 . S
H610 C623 0.929 . S
H611 C621 0.929 . S
H612 C616 0.929 . S
H613 C622 0.929 . S
C614 H608 0.930 . S
C614 C615 1.367 . S
C614 C622 1.378 . S
C615 C614 1.367 . S
C615 C623 1.433 . S
C616 H612 0.929 . S
C616 C618 1.378 . S
C616 C620 1.350 . S
C617 C620 1.463 . S
C617 C622 1.350 . S
C617 N625 1.427 . S
C618 H609 0.930 . S
C618 C616 1.378 . S
C618 C619 1.367 . S
C619 C618 1.367 . S
C619 C621 1.433 . S
C620 C616 1.350 . S
C620 C617 1.463 . S
C620 N624 1.427 . S
C621 H611 0.929 . S
C621 C619 1.433 . S
C621 N624 1.384 . S
C622 H613 0.929 . S
C622 C614 1.378 . S
C622 C617 1.350 . S
C623 H610 0.929 . S
C623 C615 1.433 . S
C623 N625 1.384 . S
N624 C620 1.427 . S
N624 C621 1.384 . S
N625 C617 1.427 . S
N625 C623 1.384 . S
H626 C632 0.930 . S
H627 C636 0.930 . S
H628 C641 0.929 . S
H629 C639 0.929 . S
H630 C634 0.929 . S
H631 C640 0.929 . S
C632 H626 0.930 . S
C632 C633 1.367 . S
C632 C640 1.378 . S
C633 C632 1.367 . S
C633 C641 1.433 . S
C634 H630 0.929 . S
C634 C636 1.378 . S
C634 C638 1.350 . S
C635 C638 1.463 . S
C635 C640 1.350 . S
C635 N643 1.427 . S
C636 H627 0.930 . S
C636 C634 1.378 . S
C636 C637 1.367 . S
C637 C636 1.367 . S
C637 C639 1.433 . S
C638 C634 1.350 . S
C638 C635 1.463 . S
C638 N642 1.427 . S
C639 H629 0.929 . S
C639 C637 1.433 . S
C639 N642 1.384 . S
C640 H631 0.929 . S
C640 C632 1.378 . S
C640 C635 1.350 . S
C641 H628 0.929 . S
C641 C633 1.433 . S
C641 N643 1.384 . S
N642 C638 1.427 . S
N642 C639 1.384 . S
N643 C635 1.427 . S
N643 C641 1.384 . S
H644 C650 0.930 . S
H645 C654 0.930 . S
H646 C659 0.929 . S
H647 C657 0.929 . S
H648 C652 0.929 . S
H649 C658 0.929 . S
C650 H644 0.930 . S
C650 C651 1.367 . S
C650 C658 1.378 . S
C651 C650 1.367 . S
C651 C659 1.433 . S
C652 H648 0.929 . S
C652 C654 1.378 . S
C652 C656 1.350 . S
C653 C656 1.463 . S
C653 C658 1.350 . S
C653 N661 1.427 . S
C654 H645 0.930 . S
C654 C652 1.378 . S
C654 C655 1.367 . S
C655 C654 1.367 . S
C655 C657 1.433 . S
C656 C652 1.350 . S
C656 C653 1.463 . S
C656 N660 1.427 . S
C657 H647 0.929 . S
C657 C655 1.433 . S
C657 N660 1.384 . S
C658 H649 0.929 . S
C658 C650 1.378 . S
C658 C653 1.350 . S
C659 H646 0.929 . S
C659 C651 1.433 . S
C659 N661 1.384 . S
N660 C656 1.427 . S
N660 C657 1.384 . S
N661 C653 1.427 . S
N661 C659 1.384 . S
H662 C668 0.930 . S
H663 C672 0.930 . S
H664 C677 0.929 . S
H665 C675 0.929 . S
H666 C670 0.929 . S
H667 C676 0.929 . S
C668 H662 0.930 . S
C668 C669 1.367 . S
C668 C676 1.378 . S
C669 C668 1.367 . S
C669 C677 1.433 . S
C670 H666 0.929 . S
C670 C672 1.378 . S
C670 C674 1.350 . S
C671 C674 1.463 . S
C671 C676 1.350 . S
C671 N679 1.427 . S
C672 H663 0.930 . S
C672 C670 1.378 . S
C672 C673 1.367 . S
C673 C672 1.367 . S
C673 C675 1.433 . S
C674 C670 1.350 . S
C674 C671 1.463 . S
C674 N678 1.427 . S
C675 H665 0.929 . S
C675 C673 1.433 . S
C675 N678 1.384 . S
C676 H667 0.929 . S
C676 C668 1.378 . S
C676 C671 1.350 . S
C677 H664 0.929 . S
C677 C669 1.433 . S
C677 N679 1.384 . S
N678 C674 1.427 . S
N678 C675 1.384 . S
N679 C671 1.427 . S
N679 C677 1.384 . S
C255 C5 1.107 . S
C259 C103 1.317 . S
C273 C18 1.098 . S
C277 C143 1.139 . S
C295 C177 2.122 . S
C291 C30 2.137 . S
C309 C41 2.343 . S
C313 C218 2.308 . S
C331 C138 1.490 . S
C327 C7 1.383 . S
C349 C98 2.171 . S
C345 C16 2.105 . S
C367 C226 1.629 . S
C363 C29 1.617 . S
C385 C187 1.447 . S
C381 C38 1.212 . S
C399 C8 1.303 . S
C403 C223 1.356 . S
C421 C146 2.210 1_556 S
C417 C27 2.060 . S
C435 C40 2.464 . S
C439 C106 2.416 . S
C453 C19 1.405 . S
C457 C174 1.419 . S
C475 C94 1.345 . S
C471 C51 1.199 . S
C489 C62 1.486 . S
C493 C134 1.426 . S
C507 C74 2.297 . S
C511 C186 2.299 . S
C525 C84 2.303 . S
C529 C227 2.346 . S
C543 C49 1.464 . S
C547 C147 1.851 1_556 S
C565 C107 2.146 . S
C561 C63 2.094 . S
C583 C217 1.495 . S
C579 C71 1.370 . S
C601 C178 1.607 . S
C597 C85 1.685 . S
C615 C52 1.282 . S
C619 C214 1.360 . S
C637 C137 2.264 . S
C633 C73 2.331 . S
C655 C97 2.053 . S
C651 C82 1.994 . S
C669 C60 1.488 . S
C673 C183 1.580 . S
