# Generated by pormake.
# Topology zzz, (3,6)-cn, num edge types: 1
# Building blocks:
#     Node 0, Type 0, BuildingBlock: OLANEW_clean_sbu_2, # of connection points: 3
#     Node 1, Type 0, BuildingBlock: OLANEW_clean_sbu_2, # of connection points: 3
#     Node 2, Type 0, BuildingBlock: OLANEW_clean_sbu_2, # of connection points: 3
#     Node 3, Type 0, BuildingBlock: OLANEW_clean_sbu_2, # of connection points: 3
#     Node 4, Type 0, BuildingBlock: OLANEW_clean_sbu_2, # of connection points: 3
#     Node 5, Type 0, BuildingBlock: OLANEW_clean_sbu_2, # of connection points: 3
#     Node 6, Type 0, BuildingBlock: OLANEW_clean_sbu_2, # of connection points: 3
#     Node 7, Type 0, BuildingBlock: OLANEW_clean_sbu_2, # of connection points: 3
#     Node 8, Type 1, BuildingBlock: KUMJIN_clean_sbu_1, # of connection points: 6
#     Node 9, Type 1, BuildingBlock: KUMJIN_clean_sbu_1, # of connection points: 6
#     Node 10, Type 1, BuildingBlock: KUMJIN_clean_sbu_1, # of connection points: 6
#     Node 11, Type 1, BuildingBlock: KUMJIN_clean_sbu_1, # of connection points: 6
#     Edge 12, Type (0, 1), BuildingBlock: AJUNOK_clean_linker_0, # of connection points: 2
#     Edge 13, Type (0, 1), BuildingBlock: AJUNOK_clean_linker_0, # of connection points: 2
#     Edge 14, Type (0, 1), BuildingBlock: AJUNOK_clean_linker_0, # of connection points: 2
#     Edge 15, Type (0, 1), BuildingBlock: AJUNOK_clean_linker_0, # of connection points: 2
#     Edge 16, Type (0, 1), BuildingBlock: AJUNOK_clean_linker_0, # of connection points: 2
#     Edge 17, Type (0, 1), BuildingBlock: AJUNOK_clean_linker_0, # of connection points: 2
#     Edge 18, Type (0, 1), BuildingBlock: AJUNOK_clean_linker_0, # of connection points: 2
#     Edge 19, Type (0, 1), BuildingBlock: AJUNOK_clean_linker_0, # of connection points: 2
#     Edge 20, Type (0, 1), BuildingBlock: AJUNOK_clean_linker_0, # of connection points: 2
#     Edge 21, Type (0, 1), BuildingBlock: AJUNOK_clean_linker_0, # of connection points: 2
#     Edge 22, Type (0, 1), BuildingBlock: AJUNOK_clean_linker_0, # of connection points: 2
#     Edge 23, Type (0, 1), BuildingBlock: AJUNOK_clean_linker_0, # of connection points: 2
#     Edge 24, Type (0, 1), BuildingBlock: AJUNOK_clean_linker_0, # of connection points: 2
#     Edge 25, Type (0, 1), BuildingBlock: AJUNOK_clean_linker_0, # of connection points: 2
#     Edge 26, Type (0, 1), BuildingBlock: AJUNOK_clean_linker_0, # of connection points: 2
#     Edge 27, Type (0, 1), BuildingBlock: AJUNOK_clean_linker_0, # of connection points: 2
#     Edge 28, Type (0, 1), BuildingBlock: AJUNOK_clean_linker_0, # of connection points: 2
#     Edge 29, Type (0, 1), BuildingBlock: AJUNOK_clean_linker_0, # of connection points: 2
#     Edge 30, Type (0, 1), BuildingBlock: AJUNOK_clean_linker_0, # of connection points: 2
#     Edge 31, Type (0, 1), BuildingBlock: AJUNOK_clean_linker_0, # of connection points: 2
#     Edge 32, Type (0, 1), BuildingBlock: AJUNOK_clean_linker_0, # of connection points: 2
#     Edge 33, Type (0, 1), BuildingBlock: AJUNOK_clean_linker_0, # of connection points: 2
#     Edge 34, Type (0, 1), BuildingBlock: AJUNOK_clean_linker_0, # of connection points: 2
#     Edge 35, Type (0, 1), BuildingBlock: AJUNOK_clean_linker_0, # of connection points: 2
# Relax obj value: 0.186
# Max RMSD: 0.117
# Mean RMSD: 0.089
data_MOF--net-zzz--node1-OLANEW_clean_sbu_2--node2-KUMJIN_clean_sbu_1--edge1-AJUNOK_clean_linker_0
_symmetry_space_group_name_H-M    P1
_symmetry_Int_Tables_number       1
_symmetry_cell_setting            triclinic
loop_
_symmetry_equiv_pos_as_xyz
'x, y, z'
_cell_length_a     41.370138
_cell_length_b     41.229189
_cell_length_c     13.694751
_cell_angle_alpha  89.210323
_cell_angle_beta   90.108068
_cell_angle_gamma 90.890532
loop_
_atom_site_label
_atom_site_type_symbol
_atom_site_fract_x
_atom_site_fract_y
_atom_site_fract_z
_atom_type_partial_charge
O0 O 0.73479 0.55139 0.18459 0.0
Cd1 Cd 0.6818 0.56093 0.24968 0.0
O2 O 0.73562 0.52546 0.32297 0.0
Cd3 Cd 0.75128 0.49946 0.45253 0.0
O4 O 0.80034 0.50264 0.50053 0.0
C5 C 0.81055 0.51286 0.58188 0.0
O6 O 0.78987 0.51903 0.65166 0.0
C7 C 0.74965 0.5327 0.24254 0.0
C8 C 0.64057 0.53696 0.10925 0.0
O9 O 0.65032 0.5666 0.10899 0.0
O10 O 0.64873 0.51849 0.18092 0.0
O11 O 0.95187 0.73381 0.18405 0.0
Cd12 Cd 0.9555 0.6828 0.26906 0.0
O13 O 0.98593 0.74548 0.29916 0.0
Cd14 Cd 0.02021 0.77256 0.38659 0.0
O15 O 0.00812 0.81491 0.46794 0.0
C16 C 0.00539 0.81789 0.5595 0.0
O17 O 0.01437 0.79449 0.61916 0.0
C18 C 0.97159 0.75392 0.22071 0.0
C19 C 0.9758 0.64162 0.12565 0.0
O20 O 0.94594 0.6479 0.13909 0.0
O21 O -0.00326 0.65384 0.18424 0.0
O22 O 0.76146 0.95523 0.16463 0.0
Cd23 Cd 0.81292 0.94854 0.24239 0.0
O24 O 0.76404 0.99113 0.28003 0.0
Cd25 Cd 0.73925 0.0236 0.37669 0.0
O26 O 0.69311 0.02028 0.45055 0.0
C27 C 0.68868 0.00376 0.52861 0.0
O28 O 0.71354 0.99066 0.57304 0.0
C29 C 0.74906 0.9789 0.20782 0.0
C30 C 0.85786 0.969 0.10636 0.0
O31 O 0.85098 0.93887 0.12013 0.0
O32 O 0.84415 0.98994 0.16001 0.0
O33 O 0.55572 0.77547 0.18398 0.0
Cd34 Cd 0.56836 0.82844 0.25523 0.0
O35 O 0.52412 0.7747 0.31091 0.0
Cd36 Cd 0.49133 0.75096 0.41261 0.0
O37 O 0.49276 0.7012 0.4614 0.0
C38 C 0.50771 0.69425 0.53965 0.0
O39 O 0.51883 0.71784 0.59447 0.0
C40 C 0.53399 0.76097 0.23405 0.0
C41 C 0.5424 0.87631 0.1353 0.0
O42 O 0.5728 0.87087 0.13492 0.0
O43 O 0.52436 0.85992 0.19433 0.0
O44 O 0.26559 0.4747 0.16295 0.0
Cd45 Cd 0.32018 0.47407 0.10458 0.0
O46 O 0.22902 0.45782 0.05572 0.0
Cd47 Cd 0.25159 0.45008 0.91454 0.0
O48 O 0.21058 0.46258 0.8191 0.0
C49 C 0.18332 0.4533 0.85324 0.0
O50 O 0.18238 0.43558 0.9335 0.0
C51 C 0.23661 0.46758 0.14035 0.0
C52 C 0.35974 0.48564 0.26701 0.0
O53 O 0.35275 0.50876 0.20748 0.0
O54 O 0.3487 0.45722 0.24813 0.0
O55 O 0.03837 0.27648 0.21698 0.0
Cd56 Cd 0.06003 0.32662 0.15397 0.0
O57 O 0.07081 0.26038 0.1045 0.0
Cd58 Cd 0.08721 0.22967 0.99239 0.0
O59 O 0.06154 0.19049 0.92953 0.0
C60 C 0.05174 0.18919 0.84209 0.0
O61 O 0.05958 0.21251 0.77979 0.0
C62 C 0.04913 0.25354 0.16732 0.0
C63 C 0.03722 0.36943 0.2846 0.0
O64 O 0.0205 0.36319 0.20806 0.0
O65 O 0.06537 0.35719 0.29372 0.0
O66 O 0.23602 0.03797 0.21332 0.0
Cd67 Cd 0.18648 0.05326 0.13187 0.0
O68 O 0.25951 0.06612 0.0968 0.0
Cd69 Cd 0.30029 0.07464 -0.00074 0.0
O70 O 0.2917 0.07642 0.83537 0.0
C71 C 0.30556 0.06051 0.76808 0.0
O72 O 0.29085 0.07715 0.83422 0.0
C73 C 0.26159 0.04762 0.17102 0.0
C74 C 0.13925 0.04101 0.26864 0.0
O75 O 0.1472 0.01885 0.2089 0.0
O76 O 0.15245 0.06917 0.25864 0.0
O77 O 0.46103 0.23125 0.16149 0.0
Cd78 Cd 0.44596 0.17802 0.09862 0.0
O79 O 0.45145 0.27152 0.05718 0.0
Cd80 Cd 0.43557 0.24935 0.92105 0.0
O81 O 0.44323 0.29916 0.86677 0.0
C82 C 0.45488 0.31071 0.78753 0.0
O83 O 0.46268 0.29093 0.71728 0.0
C84 C 0.46092 0.26138 0.14039 0.0
C85 C 0.46189 0.13344 0.24677 0.0
O86 O 0.48096 0.13817 0.17414 0.0
O87 O 0.43509 0.14856 0.24702 0.0
Eu88 Eu 0.96794 0.02595 0.58127 0.0
C89 C 0.0856 0.03208 0.8928 0.0
N90 N 0.08207 0.01336 0.81232 0.0
C91 C 0.13816 0.02061 0.77377 0.0
C92 C 0.11592 0.04595 0.91658 0.0
C93 C 0.10772 0.00718 0.75334 0.0
C94 C 0.1423 0.04009 0.85565 0.0
C95 C 0.06222 0.05553 0.03808 0.0
C96 C 0.05887 0.03713 0.95247 0.0
C97 C 0.09236 0.06954 0.06136 0.0
C98 C 0.11906 0.06489 0.00063 0.0
Eu99 Eu 0.03071 0.98936 0.79174 0.0
N100 N 0.02974 0.02376 0.92739 0.0
C101 C 0.03529 0.05879 0.0988 0.0
C102 C 0.00379 0.0258 0.98804 0.0
C103 C 0.00606 0.04356 0.07418 0.0
H104 H 0.10499 0.99116 0.69205 0.0
H105 H 0.98536 0.04522 0.12199 0.0
H106 H 0.89156 0.02717 0.66127 0.0
H107 H 0.01749 0.97611 0.24716 0.0
H108 H 0.98159 0.01314 0.97174 0.0
H109 H 0.03698 0.0725 0.16563 0.0
H110 H 0.01826 0.0079 0.39829 0.0
H111 H 0.15852 0.01557 0.72712 0.0
H112 H 0.09532 0.08387 0.12661 0.0
H113 H 0.14213 0.07586 0.01971 0.0
H114 H 0.83854 0.00263 0.61852 0.0
H115 H 0.16602 0.0502 0.87176 0.0
H116 H 0.96716 0.94762 0.19683 0.0
N117 N 0.91618 0.00549 0.54384 0.0
C118 C 0.91397 0.98693 0.4629 0.0
C119 C 0.85961 -0.00216 0.57455 0.0
C120 C 0.88431 0.9724 0.43578 0.0
C121 C 0.88963 0.01153 0.59902 0.0
C122 C 0.85698 0.97793 0.49305 0.0
N123 N 0.97009 0.99553 0.43723 0.0
C124 C -0.0032 0.99445 0.37946 0.0
C125 C 0.93978 0.96399 0.321 0.0
C126 C 0.94156 0.98224 0.40721 0.0
C127 C 0.96762 0.96125 0.26394 0.0
C128 C -0.00387 0.97703 0.29254 0.0
H129 H 0.83372 0.96724 0.47441 0.0
H130 H 0.86076 0.94025 0.33351 0.0
H131 H 0.90888 0.93384 0.23106 0.0
O132 O 0.98371 0.06445 0.47859 0.0
O133 O 0.96585 0.97072 0.60256 0.0
O134 O 0.01746 0.96341 0.65426 0.0
O135 O 0.93518 0.06527 0.54257 0.0
O136 O 0.02252 0.03292 0.56794 0.0
O137 O 0.04814 0.98817 0.6351 0.0
O138 O 0.01956 0.9531 0.90547 0.0
O139 O 0.02994 0.04371 0.76853 0.0
O140 O 0.97768 0.05209 0.72093 0.0
O141 O 0.06725 0.95514 0.84016 0.0
O142 O 0.97699 0.98084 0.80957 0.0
O143 O 0.9478 0.02253 0.73654 0.0
C144 C 0.9888 0.95158 0.63474 0.0
C145 C 0.94967 0.11031 0.43233 0.0
C146 C 0.96708 0.15539 0.32371 0.0
C147 C 0.94009 0.17283 0.35623 0.0
C148 C 0.92273 0.12821 0.45999 0.0
C149 C 0.91801 0.15918 0.42199 0.0
C150 C 0.97149 0.12366 0.36228 0.0
C151 C 0.04716 0.01324 0.57446 0.0
C152 C 0.95648 0.0797 0.48596 0.0
C153 C 0.88293 0.95275 0.35299 0.0
C154 C 0.91042 0.94894 0.29496 0.0
C155 C 0.00632 0.06303 0.74436 0.0
C156 C 0.05289 0.90633 0.92749 0.0
C157 C 0.03517 0.85618 0.00876 0.0
C158 C 0.06537 0.84264 0.98994 0.0
C159 C 0.08302 0.89224 0.90957 0.0
C160 C 0.02889 0.88809 0.97787 0.0
C161 C 0.08913 0.86059 0.94059 0.0
C162 C 0.95128 -0.00089 0.80282 0.0
C163 C 0.04856 0.94115 0.90518 0.0
H164 H 0.9362 0.19767 0.33301 0.0
H165 H 0.9058 0.11875 0.51395 0.0
H166 H 0.89759 0.17311 0.44585 0.0
H167 H 0.99186 0.10949 0.3396 0.0
H168 H 0.07056 0.81809 0.01389 0.0
H169 H 0.10221 0.90593 0.87352 0.0
H170 H 0.0057 0.89864 0.99411 0.0
H171 H 0.11248 0.85006 0.92724 0.0
Eu172 Eu 0.51505 0.03541 0.80216 0.0
C173 C 0.48836 0.89747 0.55944 0.0
N174 N 0.50527 0.92515 0.53797 0.0
C175 C 0.5431 0.89519 0.44383 0.0
C176 C 0.4981 0.86738 0.52252 0.0
C177 C 0.53244 0.92449 0.48164 0.0
C178 C 0.52579 0.86652 0.46399 0.0
C179 C 0.44296 0.87091 0.64141 0.0
C180 C 0.46119 0.8992 0.61858 0.0
C181 C 0.45233 0.84098 0.60363 0.0
C182 C 0.47985 0.83921 0.54455 0.0
Eu183 Eu 0.48189 0.97359 0.5912 0.0
N184 N 0.45295 0.9284 0.65533 0.0
C185 C 0.41593 0.87351 0.70206 0.0
C186 C 0.42754 0.93082 0.71788 0.0
C187 C 0.40837 0.90357 0.74117 0.0
H188 H 0.54517 0.94672 0.46246 0.0
H189 H 0.3881 0.90567 0.79042 0.0
H190 H 0.46097 0.06861 0.9512 0.0
H191 H 0.60832 0.09367 0.57405 0.0
H192 H 0.42237 0.95353 0.75168 0.0
H193 H 0.40125 0.85237 0.72103 0.0
H194 H 0.57693 0.04819 0.64434 0.0
H195 H 0.56434 0.8948 0.39787 0.0
H196 H 0.43858 0.81902 0.62024 0.0
H197 H 0.48684 0.81591 0.51631 0.0
H198 H 0.44274 0.12316 0.99657 0.0
H199 H 0.53393 0.84391 0.43378 0.0
H200 H 0.59435 0.14995 0.61519 0.0
N201 N 0.49621 0.0864 0.85074 0.0
C202 C 0.51182 0.11282 0.81219 0.0
C203 C 0.46211 0.12063 0.94434 0.0
C204 C 0.50315 0.14443 0.83914 0.0
C205 C 0.47203 0.08979 0.91719 0.0
C206 C 0.47771 0.14809 0.90507 0.0
N207 N 0.54443 0.07756 0.7209 0.0
C208 C 0.56999 0.07225 0.66091 0.0
C209 C 0.55437 0.13531 0.70854 0.0
C210 C 0.53689 0.1083 0.7466 0.0
C211 C 0.58017 0.12989 0.64523 0.0
C212 C 0.58807 0.09819 0.62163 0.0
H213 H 0.47022 0.17199 0.92686 0.0
H214 H 0.51406 0.19575 0.82089 0.0
H215 H 0.55916 0.18774 0.70752 0.0
O216 O 0.56204 0.02914 0.87319 0.0
O217 O 0.49526 0.05903 0.66411 0.0
O218 O 0.50866 0.02038 0.55629 0.0
O219 O 0.52021 0.04411 0.9589 0.0
O220 O 0.5486 0.99697 0.74061 0.0
O221 O 0.53343 0.99099 0.58083 0.0
O222 O 0.43899 0.98882 0.50729 0.0
O223 O 0.49824 0.9494 0.73368 0.0
O224 O 0.48743 0.9896 0.84244 0.0
O225 O 0.47785 0.96193 0.43765 0.0
O226 O 0.44438 0.00395 0.66645 0.0
O227 O 0.46036 0.02621 0.8156 0.0
C228 C 0.49662 0.0488 0.57402 0.0
C229 C 0.57128 0.03869 0.04645 0.0
C230 C 0.62204 0.02819 0.13093 0.0
C231 C 0.60942 0.04186 0.2157 0.0
C232 C 0.559 0.05199 0.13234 0.0
C233 C 0.57798 0.05348 0.21649 0.0
C234 C 0.60291 0.02649 0.04625 0.0
C235 C 0.55527 0.98914 0.6502 0.0
C236 C 0.5509 0.03752 0.95809 0.0
C237 C 0.52027 0.17132 0.80048 0.0
C238 C 0.54593 0.16676 0.73582 0.0
C239 C 0.49682 0.96017 0.82369 0.0
C240 C 0.43381 0.97753 0.33229 0.0
C241 C 0.38691 0.99144 0.23282 0.0
C242 C 0.40539 0.98636 0.14827 0.0
C243 C 0.45137 0.97152 0.24689 0.0
C244 C 0.40143 0.98705 0.32502 0.0
C245 C 0.43718 0.97596 0.15549 0.0
C246 C 0.43811 0.01863 0.74914 0.0
C247 C 0.45029 0.9763 0.42747 0.0
H248 H 0.62393 0.04339 0.28142 0.0
H249 H 0.53478 0.06143 0.13416 0.0
H250 H 0.56832 0.06378 0.2824 0.0
H251 H 0.61273 0.01596 0.98079 0.0
H252 H 0.39556 0.9911 0.07623 0.0
H253 H 0.47642 0.96432 0.2505 0.0
H254 H 0.38773 0.99139 0.39084 0.0
H255 H 0.45111 0.97204 0.08997 0.0
Eu256 Eu 0.53108 0.48374 0.58965 0.0
C257 C 0.41453 0.4894 0.90475 0.0
N258 N 0.41937 0.50615 0.81979 0.0
C259 C 0.36447 0.49598 0.77194 0.0
C260 C 0.38451 0.4742 0.92496 0.0
C261 C 0.39475 0.51048 0.75479 0.0
C262 C 0.35944 0.47739 0.85679 0.0
C263 C 0.43517 0.47103 0.06182 0.0
C264 C 0.43991 0.48696 0.97109 0.0
C265 C 0.40548 0.45539 0.08138 0.0
C266 C 0.3806 0.45616 0.01189 0.0
Eu267 Eu 0.47209 0.52669 0.79446 0.0
N268 N 0.4693 0.49972 0.9465 0.0
C269 C 0.46092 0.47003 0.12824 0.0
C270 C 0.494 0.50018 0.01234 0.0
C271 C 0.49041 0.4849 0.10357 0.0
H272 H 0.39826 0.52523 0.6899 0.0
H273 H 0.5103 0.48482 0.15502 0.0
H274 H 0.60689 0.48219 0.67612 0.0
H275 H 0.48433 0.53871 0.25315 0.0
H276 H 0.51615 0.51311 0.99584 0.0
H277 H 0.45825 0.45798 0.19866 0.0
H278 H 0.48299 0.50296 0.39896 0.0
H279 H 0.34506 0.49914 0.71972 0.0
H280 H 0.40198 0.44165 0.1486 0.0
H281 H 0.35848 0.44258 0.02589 0.0
H282 H 0.66007 0.50771 0.63892 0.0
H283 H 0.33599 0.46607 0.86973 0.0
H284 H 0.53435 0.56959 0.21187 0.0
N285 N 0.58301 0.50564 0.55796 0.0
C286 C 0.58577 0.52562 0.47843 0.0
C287 C 0.63933 0.51307 0.59354 0.0
C288 C 0.61546 0.54105 0.45539 0.0
C289 C 0.60922 0.49873 0.61457 0.0
C290 C 0.6424 0.5346 0.51426 0.0
N291 N 0.53001 0.51642 0.44639 0.0
C292 C 0.50412 0.51774 0.385 0.0
C293 C 0.56084 0.55121 0.33696 0.0
C294 C 0.55856 0.53107 0.42088 0.0
C295 C 0.53356 0.55449 0.27725 0.0
C296 C 0.50521 0.53728 0.30068 0.0
H297 H 0.66569 0.54588 0.49866 0.0
H298 H 0.63955 0.57545 0.35827 0.0
H299 H 0.59225 0.58327 0.25202 0.0
O300 O 0.51753 0.44579 0.48589 0.0
O301 O 0.53901 0.53779 0.61609 0.0
O302 O 0.4874 0.54981 0.65307 0.0
O303 O 0.56578 0.44639 0.55242 0.0
O304 O 0.47624 0.48096 0.56907 0.0
O305 O 0.45513 0.52749 0.6361 0.0
O306 O 0.48796 0.56731 0.88865 0.0
O307 O 0.4664 0.47142 0.7798 0.0
O308 O 0.51632 0.45595 0.72551 0.0
O309 O 0.43939 0.56603 0.82527 0.0
O310 O 0.52639 0.5262 0.81939 0.0
O311 O 0.54917 0.4811 0.74633 0.0
C312 C 0.51703 0.5591 0.63634 0.0
C313 C 0.55414 0.40299 0.43851 0.0
C314 C 0.53846 0.35358 0.35355 0.0
C315 C 0.57129 0.34648 0.34105 0.0
C316 C 0.5868 0.39533 0.42567 0.0
C317 C 0.59526 0.36731 0.37667 0.0
C318 C 0.52992 0.3822 0.40106 0.0
C319 C 0.45303 0.50225 0.57807 0.0
C320 C 0.54566 0.43215 0.49309 0.0
C321 C 0.61729 0.56246 0.3749 0.0
C322 C 0.59021 0.56721 0.31511 0.0
C323 C 0.48673 0.44887 0.75288 0.0
C324 C 0.45217 0.61302 0.92497 0.0
C325 C 0.46437 0.65953 0.03124 0.0
C326 C 0.43629 0.67445 0.99442 0.0
C327 C 0.42408 0.62863 0.89296 0.0
C328 C 0.47225 0.6284 0.99553 0.0
C329 C 0.4163 0.659 0.92742 0.0
C330 C 0.54873 0.50396 0.81287 0.0
C331 C 0.46023 0.58162 0.87945 0.0
H332 H 0.57837 0.32484 0.30302 0.0
H333 H 0.60583 0.41106 0.45336 0.0
H334 H 0.62048 0.36164 0.36657 0.0
H335 H 0.50462 0.38776 0.41094 0.0
H336 H 0.42981 0.69866 0.01601 0.0
H337 H 0.40825 0.61764 0.83924 0.0
H338 H 0.4936 0.61621 0.02195 0.0
H339 H 0.39486 0.67096 0.90067 0.0
Eu340 Eu 0.02226 0.54029 0.59297 0.0
C341 C 0.01733 0.42 0.90319 0.0
N342 N -0.00344 0.42366 0.82714 0.0
C343 C -0.00059 0.367 0.79249 0.0
C344 C 0.0309 0.38961 0.92482 0.0
C345 C 0.98705 0.39777 0.77261 0.0
C346 C 0.0218 0.36297 0.86805 0.0
C347 C 0.04531 0.44343 0.04187 0.0
C348 C 0.02483 0.44675 0.96004 0.0
C349 C 0.05985 0.41348 0.06151 0.0
C350 C 0.0529 0.38675 0.00246 0.0
Eu351 Eu 0.97915 0.47672 0.79424 0.0
N352 N 0.01126 0.47572 0.93718 0.0
C353 C 0.05004 0.47014 0.10251 0.0
C354 C 0.01393 0.50105 -0.00032 0.0
C355 C 0.03374 0.49887 0.08234 0.0
H356 H 0.97019 0.40095 0.71295 0.0
H357 H 0.03603 0.51917 0.13124 0.0
H358 H 0.01965 0.61393 0.69304 0.0
H359 H 0.98158 0.50198 0.23148 0.0
H360 H 8e-05 0.52258 0.98807 0.0
H361 H 0.06531 0.4685 0.16672 0.0
H362 H 0.01326 0.49848 0.38404 0.0
H363 H 0.99205 0.34653 0.74861 0.0
H364 H 0.07614 0.41061 0.12297 0.0
H365 H 0.06434 0.36386 0.01802 0.0
H366 H 0.99133 0.66572 0.66519 0.0
H367 H 0.03162 0.33918 0.88262 0.0
H368 H 0.94691 0.54941 0.19994 0.0
N369 N -0.00052 0.59167 0.56756 0.0
C370 C 0.98062 0.59506 0.48672 0.0
C371 C 0.98788 0.64591 0.615 0.0
C372 C 0.96319 0.62364 0.46972 0.0
C373 C 0.00386 0.61663 0.63065 0.0
C374 C 0.96707 0.64928 0.535 0.0
N375 N -0.00558 0.54172 0.44222 0.0
C376 C -0.00282 0.51849 0.37301 0.0
C377 C 0.95962 0.57257 0.3361 0.0
C378 C 0.97819 0.56944 0.42201 0.0
C379 C 0.96057 0.54778 0.26738 0.0
C380 C 0.97994 0.52088 0.28521 0.0
H381 H 0.95435 0.6718 0.52389 0.0
H382 H 0.92716 0.64647 0.37805 0.0
H383 H 0.92482 0.60215 0.25926 0.0
O384 O 0.06232 0.52705 0.50174 0.0
O385 O 0.96822 0.54622 0.61835 0.0
O386 O 0.95736 0.49381 0.65434 0.0
O387 O 0.06027 0.57673 0.55734 0.0
O388 O 0.02088 0.48643 0.55746 0.0
O389 O 0.9788 0.45864 0.63862 0.0
O390 O 0.93973 0.49111 0.89303 0.0
O391 O 0.03271 0.46948 0.76317 0.0
O392 O 0.04744 0.52171 0.72822 0.0
O393 O 0.93825 0.44416 0.82044 0.0
O394 O 0.97908 0.53112 0.81979 0.0
O395 O 0.02545 0.5546 0.7517 0.0
C396 C 0.94751 0.5232 0.6418 0.0
C397 C 0.1064 0.56271 0.4548 0.0
C398 C 0.15239 0.54328 0.36423 0.0
C399 C 0.16614 0.57458 0.36426 0.0
C400 C 0.12019 0.59404 0.45416 0.0
C401 C 0.14996 0.5999 0.40873 0.0
C402 C 0.12253 0.53743 0.40866 0.0
C403 C 0.00178 0.46091 0.57197 0.0
C404 C 0.07586 0.55573 0.50567 0.0
C405 C 0.9422 0.62549 0.38921 0.0
C406 C 0.94067 0.60017 0.32199 0.0
C407 C 0.05502 0.49136 0.74136 0.0
C408 C 0.89209 0.45579 0.922 0.0
C409 C 0.84722 0.46675 0.03233 0.0
C410 C 0.83062 0.43953 0.99529 0.0
C411 C 0.87499 0.42852 0.8876 0.0
C412 C 0.87793 0.4752 0.99419 0.0
C413 C 0.84446 0.42059 0.92382 0.0
C414 C 0.0011 0.55445 0.81339 0.0
C415 C 0.92373 0.46416 0.87771 0.0
H416 H 0.18928 0.57937 0.32956 0.0
H417 H 0.10811 0.61388 0.48916 0.0
H418 H 0.1606 0.62405 0.40844 0.0
H419 H 0.11227 0.51305 0.40836 0.0
H420 H 0.80653 0.43315 0.02068 0.0
H421 H 0.88499 0.41347 0.83125 0.0
H422 H 0.89062 0.49656 0.02057 0.0
H423 H 0.83132 0.3998 0.89574 0.0
C424 C 0.10302 0.00251 0.36147 0.0
C425 C 0.11667 0.03388 0.3498 0.0
C426 C 0.08203 0.99511 0.43903 0.0
C427 C 0.07363 0.01903 0.50578 0.0
H428 H 0.10829 0.98361 0.30997 0.0
H429 H 0.07105 0.9711 0.44394 0.0
S430 S 0.10516 0.10331 0.51566 0.0
N431 N 0.12216 0.08804 0.41792 0.0
N432 N 0.08207 0.07395 0.5618 0.0
C433 C 0.08777 0.04994 0.49732 0.0
C434 C 0.1094 0.05746 0.41953 0.0
C435 C 0.48758 0.0833 0.31553 0.0
C436 C 0.47107 0.11235 0.33039 0.0
C437 C 0.49592 0.06293 0.39453 0.0
C438 C 0.48851 0.07117 0.49158 0.0
H439 H 0.49338 0.07593 0.24221 0.0
H440 H 0.50818 0.04054 0.37914 0.0
S441 S 0.44736 0.14602 0.56906 0.0
N442 N 0.44877 0.14907 0.44883 0.0
N443 N 0.46465 0.11133 0.59721 0.0
C444 C 0.47261 0.10062 0.50709 0.0
C445 C 0.4638 0.12104 0.42659 0.0
C446 C 0.40029 0.5196 0.35825 0.0
C447 C 0.38087 0.49128 0.35308 0.0
C448 C 0.42229 0.52415 0.43529 0.0
C449 C 0.42608 0.50017 0.50813 0.0
H450 H 0.39928 0.53793 0.30093 0.0
H451 H 0.43767 0.54567 0.43491 0.0
S452 S 0.37743 0.42478 0.53886 0.0
N453 N 0.36386 0.44127 0.43637 0.0
N454 N 0.40634 0.44942 0.57802 0.0
C455 C 0.40576 0.47277 0.50704 0.0
C456 C 0.38291 0.46837 0.4301 0.0
C457 C 0.00152 0.41367 0.34003 0.0
C458 C 0.02446 0.38982 0.36174 0.0
C459 C 0.99197 0.4354 0.41167 0.0
C460 C 0.0056 0.43405 0.5055 0.0
H461 H 0.9919 0.41637 0.26675 0.0
H462 H 0.97487 0.45406 0.39258 0.0
S463 S 0.06042 0.37163 0.60427 0.0
N464 N 0.05558 0.36232 0.48829 0.0
N465 N 0.03901 0.40456 0.62073 0.0
C466 C 0.02637 0.40884 0.52998 0.0
C467 C 0.03559 0.38637 0.45822 0.0
C468 C 0.90634 0.95737 0.00969 0.0
C469 C 0.88141 0.97869 0.03091 0.0
C470 C 0.92821 0.96427 0.93508 0.0
C471 C 0.92612 0.99283 0.87777 0.0
H472 H 0.90904 0.93497 0.05101 0.0
H473 H 0.94694 0.94673 0.9226 0.0
S474 S 0.86459 0.0567 0.90412 0.0
N475 N 0.85518 0.02945 0.98942 0.0
N476 N 0.89693 0.04292 0.84862 0.0
C477 C 0.90126 0.01462 0.89849 0.0
C478 C 0.87884 0.0075 0.97547 0.0
C479 C 0.54094 0.92998 0.0492 0.0
C480 C 0.5283 0.89845 0.06239 0.0
C481 C 0.5297 0.95006 0.97333 0.0
C482 C 0.5064 0.93894 0.90628 0.0
H483 H 0.55979 0.93903 0.09714 0.0
H484 H 0.54031 0.97394 0.96479 0.0
S485 S 0.46607 0.85804 0.91003 0.0
N486 N 0.49071 0.85717 0.00494 0.0
N487 N 0.47114 0.89429 0.85905 0.0
C488 C 0.49364 0.90745 0.91921 0.0
C489 C 0.50418 0.8874 -0.00163 0.0
C490 C 0.59877 0.49863 0.04188 0.0
C491 C 0.62061 0.52481 0.02798 0.0
C492 C 0.57697 0.48983 0.96777 0.0
C493 C 0.57629 0.50727 0.87896 0.0
H494 H 0.59744 0.48595 0.11161 0.0
H495 H 0.55932 0.47067 0.98214 0.0
S496 S 0.63208 0.57348 0.80038 0.0
N497 N 0.64353 0.56432 0.91282 0.0
N498 N 0.60106 0.54915 0.77699 0.0
C499 C 0.59928 0.53186 0.86206 0.0
C500 C 0.62186 0.54032 0.93596 0.0
C501 C 0.96242 0.6168 0.96698 0.0
C502 C 0.98516 0.62167 0.04209 0.0
C503 C 0.96884 0.59645 0.88939 0.0
C504 C -0.0016 0.58066 0.88313 0.0
H505 H 0.93902 0.6282 0.969 0.0
H506 H 0.95011 0.59219 0.83536 0.0
S507 S 0.06687 0.58585 0.05693 0.0
N508 N 0.03907 0.6095 0.10348 0.0
N509 N 0.05138 0.57174 0.95434 0.0
C510 C 0.0222 0.58643 0.95414 0.0
C511 C 0.01549 0.60682 0.03475 0.0
C512 C -0.00076 0.22071 0.1518 0.0
C513 C 0.0323 0.2218 0.1741 0.0
C514 C 0.97903 0.19615 0.18992 0.0
C515 C 0.99074 0.17243 0.25588 0.0
H516 H 0.98841 0.24046 0.11092 0.0
H517 H 0.95343 0.19755 0.17403 0.0
S518 S 0.07782 0.15908 0.30955 0.0
N519 N 0.07756 0.19315 0.24468 0.0
N520 N 0.03968 0.14693 0.31832 0.0
C521 C 0.02472 0.17058 0.26628 0.0
C522 C 0.04544 0.19554 0.22571 0.0
C523 C 0.31232 0.04273 0.26766 0.0
C524 C 0.29202 0.03169 0.19274 0.0
C525 C 0.34264 0.02874 0.28292 0.0
C526 C 0.35326 0.0032 0.22397 0.0
H527 H 0.30515 0.06281 0.31256 0.0
H528 H 0.35828 0.03885 0.33864 0.0
S529 S 0.3061 0.96351 0.02645 0.0
N530 N 0.28277 0.99292 0.06415 0.0
N531 N 0.33893 0.96536 0.09506 0.0
C532 C 0.33199 0.99095 0.15249 0.0
C533 C 0.30154 0.00556 0.13626 0.0
C534 C 0.47344 0.31863 0.18962 0.0
C535 C 0.4755 0.28504 0.20927 0.0
C536 C 0.49216 0.34122 0.2417 0.0
C537 C 0.51365 0.33091 0.31489 0.0
H538 H 0.45841 0.32747 0.13056 0.0
H539 H 0.49129 0.36661 0.22049 0.0
S540 S 0.5237 0.24684 0.40785 0.0
N541 N 0.49744 0.24339 0.31756 0.0
N542 N 0.53266 0.28591 0.41426 0.0
C543 C 0.51385 0.29789 0.34111 0.0
C544 C 0.4947 0.27492 0.28879 0.0
C545 C 0.18158 0.48897 0.16641 0.0
C546 C 0.21074 0.47762 0.20654 0.0
C547 C 0.16124 0.50857 0.22075 0.0
C548 C 0.16937 0.51688 0.31671 0.0
H549 H 0.17587 0.48523 0.09019 0.0
H550 H 0.14031 0.51907 0.18549 0.0
S551 S 0.23774 0.48595 0.46337 0.0
N552 N 0.24304 0.47061 0.35383 0.0
N553 N 0.20449 0.50754 0.45597 0.0
C554 C 0.19614 0.50251 0.36132 0.0
C555 C 0.21691 0.48266 0.30616 0.0
C556 C 0.99287 0.8114 0.21404 0.0
C557 C 0.98047 0.78399 0.16585 0.0
C558 C 0.00806 0.83692 0.16181 0.0
C559 C 0.01074 0.83587 0.05967 0.0
H560 H 0.99189 0.81262 0.29248 0.0
H561 H 0.01954 0.85645 0.20181 0.0
S562 S 0.97712 0.77285 0.89719 0.0
N563 N 0.96806 0.75978 0.00848 0.0
N564 N -0.00374 0.8079 0.91122 0.0
C565 C -0.00442 0.81038 0.01007 0.0
C566 C 0.98033 0.78441 0.06291 0.0
C567 C 0.69124 0.97007 0.16077 0.0
C568 C 0.71747 0.99137 0.17741 0.0
C569 C 0.6604 0.9821 0.13963 0.0
C570 C 0.65522 0.01569 0.1334 0.0
H571 H 0.69428 0.9441 0.16827 0.0
H572 H 0.64026 0.96518 0.13244 0.0
S573 S 0.71734 0.08093 0.15225 0.0
N574 N 0.73727 0.04714 0.17335 0.0
N575 N 0.67936 0.06971 0.13319 0.0
C576 C 0.68173 0.03699 0.1431 0.0
C577 C 0.71292 0.02482 0.16524 0.0
C578 C 0.48557 0.72457 0.21448 0.0
C579 C 0.51877 0.7302 0.19963 0.0
C580 C 0.46916 0.69891 0.16913 0.0
C581 C 0.48476 0.67845 0.10272 0.0
H582 H 0.47141 0.74144 0.25562 0.0
H583 H 0.44334 0.69664 0.18088 0.0
S584 S 0.57341 0.67797 0.05883 0.0
N585 N 0.5681 0.7095 0.12977 0.0
N586 N 0.53713 0.66166 0.04218 0.0
C587 C 0.5187 0.68164 0.09579 0.0
C588 C 0.5356 0.70768 0.14351 0.0
C589 C 0.79883 0.53492 0.13646 0.0
C590 C 0.78092 0.51882 0.21089 0.0
C591 C 0.82317 0.51909 0.08477 0.0
C592 C 0.83059 0.48664 0.10616 0.0
H593 H 0.79244 0.5592 0.11308 0.0
H594 H 0.83421 0.5314 0.02258 0.0
S595 S 0.79532 0.43527 0.30398 0.0
N596 N 0.77507 0.46938 0.30847 0.0
N597 N 0.82222 0.44075 0.21629 0.0
C598 C 0.81558 0.4716 0.18727 0.0
C599 C 0.79035 0.48737 0.23843 0.0
C600 C 0.02319 0.1379 0.88529 0.0
C601 C 0.03408 0.15979 0.81212 0.0
C602 C 0.01184 0.10707 0.86179 0.0
C603 C 0.01082 0.09723 0.76477 0.0
H604 H 0.02476 0.14398 0.96192 0.0
H605 H 0.00507 0.09046 0.92011 0.0
S606 S 0.0302 0.14693 0.54549 0.0
N607 N 0.03849 0.17101 0.63772 0.0
N608 N 0.01732 0.11226 0.59416 0.0
C609 C 0.01885 0.1195 0.69036 0.0
C610 C 0.03037 0.15114 0.71397 0.0
C611 C 0.36164 0.05938 0.84199 0.0
C612 C 0.33739 0.04556 0.78274 0.0
C613 C 0.39398 0.04944 0.83472 0.0
C614 C 0.40322 0.02565 0.76754 0.0
H615 H 0.35606 0.07931 0.88951 0.0
H616 H 0.41191 0.06179 0.8782 0.0
S617 S 0.34668 0.97873 0.60824 0.0
N618 N 0.3234 0.00436 0.66558 0.0
N619 N 0.38357 0.98622 0.64857 0.0
C620 C 0.37832 0.01032 0.71309 0.0
C621 C 0.34561 0.02015 0.72175 0.0
C622 C 0.4756 0.35964 0.69279 0.0
C623 C 0.46177 0.34625 0.77854 0.0
C624 C 0.48349 0.39289 0.68538 0.0
C625 C 0.4776 0.41409 0.76282 0.0
H626 H 0.48069 0.34436 0.63114 0.0
H627 H 0.49414 0.40208 0.61823 0.0
S628 S 0.4454 0.39092 0.0063 0.0
N629 N 0.44443 0.35692 0.94464 0.0
N630 N 0.45984 0.41886 0.93002 0.0
C631 C 0.46436 0.40102 0.84901 0.0
C632 C 0.45632 0.36728 0.85699 0.0
C633 C 0.13512 0.48748 0.87279 0.0
C634 C 0.15287 0.46623 0.81484 0.0
C635 C 0.10366 0.49631 0.8468 0.0
C636 C 0.08884 0.48366 0.76301 0.0
H637 H 0.14536 0.49672 0.9399 0.0
H638 H 0.09046 0.51225 0.89416 0.0
S639 S 0.12619 0.42978 0.58231 0.0
N640 N 0.15435 0.43462 0.66687 0.0
N641 N 0.09498 0.45121 0.61782 0.0
C642 C 0.10675 0.46347 0.70245 0.0
C643 C 0.13893 0.45475 0.72842 0.0
C644 C 0.01079 0.86419 0.67257 0.0
C645 C -0.00568 0.84906 0.59595 0.0
C646 C 0.00668 0.89724 0.68906 0.0
C647 C 0.98568 0.91595 0.63083 0.0
H648 H 0.02888 0.85125 0.7144 0.0
H649 H 0.02165 0.90866 0.74375 0.0
S650 S 0.93069 0.88465 0.43899 0.0
N651 N 0.95202 0.85299 0.47337 0.0
N652 N 0.94347 0.91504 0.50709 0.0
C653 C 0.96606 0.89996 0.56257 0.0
C654 C 0.97068 0.86644 0.54439 0.0
C655 C 0.62984 0.00026 0.49485 0.0
C656 C 0.65528 0.99696 0.56215 0.0
C657 C 0.59775 0.99555 0.52304 0.0
C658 C 0.5896 0.98771 0.62036 0.0
H659 H 0.63466 0.00689 0.41944 0.0
H660 H 0.57921 -0.0003 0.46853 0.0
S661 S 0.6473 0.97238 0.82291 0.0
N662 N 0.67048 0.98232 0.72868 0.0
N663 N 0.6097 0.97385 0.78245 0.0
C664 C 0.61481 0.98268 0.68769 0.0
C665 C 0.64775 0.98719 0.65846 0.0
C666 C 0.51106 0.63631 0.49161 0.0
C667 C 0.51404 0.65997 0.56446 0.0
C668 C 0.51485 0.60339 0.51388 0.0
C669 C 0.52219 0.59311 0.60913 0.0
H670 H 0.50486 0.6431 0.41728 0.0
H671 H 0.51024 0.58581 0.45751 0.0
S672 S 0.53472 0.64482 0.82404 0.0
N673 N 0.52626 0.67064 0.73489 0.0
N674 N 0.53393 0.60845 0.77544 0.0
C675 C 0.52673 0.61635 0.68145 0.0
C676 C 0.52263 0.64992 0.65935 0.0
C677 C 0.85838 0.52585 0.68754 0.0
C678 C 0.84556 0.51896 0.59469 0.0
C679 C 0.89178 0.52974 0.70125 0.0
C680 C 0.91318 0.52722 0.6225 0.0
H681 H 0.8427 0.52715 0.75058 0.0
H682 H 0.90102 0.53338 0.77445 0.0
S683 S 0.89238 0.51016 0.36522 0.0
N684 N 0.8573 0.51111 0.42193 0.0
N685 N 0.91989 0.51728 0.44999 0.0
C686 C 0.90082 0.5212 0.52939 0.0
C687 C 0.86698 0.51741 0.51486 0.0
loop_
_geom_bond_atom_site_label_1
_geom_bond_atom_site_label_2
_geom_bond_distance
_geom_bond_site_symmetry_2
_ccdc_geom_bond_type
O0 Cd1 2.300 . S
O0 C7 1.275 . S
Cd1 O0 2.300 . S
Cd1 O9 2.381 . S
Cd1 O10 2.378 . S
O2 Cd3 2.385 . S
O2 C7 1.255 . S
Cd3 O2 2.385 . S
Cd3 O4 2.317 . S
O4 Cd3 2.317 . S
O4 C5 1.232 . S
C5 O4 1.232 . S
C5 O6 1.218 . S
O6 C5 1.218 . S
C7 O0 1.275 . S
C7 O2 1.255 . S
C8 O9 1.258 . S
C8 O10 1.256 . S
O9 Cd1 2.381 . S
O9 C8 1.258 . S
O10 Cd1 2.378 . S
O10 C8 1.256 . S
O11 Cd12 2.299 1_655 S
O11 C18 1.275 . S
Cd12 O11 2.299 1_455 S
Cd12 O20 2.380 1_455 S
Cd12 O21 2.378 . S
O13 Cd14 2.385 . S
O13 C18 1.255 1_455 S
Cd14 O13 2.385 . S
Cd14 O15 2.317 . S
O15 Cd14 2.317 . S
O15 C16 1.232 1_455 S
C16 O15 1.232 1_655 S
C16 O17 1.218 1_655 S
O17 C16 1.218 1_455 S
C18 O11 1.275 . S
C18 O13 1.255 1_655 S
C19 O20 1.258 . S
C19 O21 1.256 1_655 S
O20 Cd12 2.380 1_655 S
O20 C19 1.258 . S
O21 Cd12 2.378 . S
O21 C19 1.256 1_455 S
O22 Cd23 2.300 1_565 S
O22 C29 1.275 . S
Cd23 O22 2.300 1_545 S
Cd23 O31 2.381 1_545 S
Cd23 O32 2.378 . S
O24 Cd25 2.385 . S
O24 C29 1.255 1_545 S
Cd25 O24 2.385 . S
Cd25 O26 2.317 . S
O26 Cd25 2.317 . S
O26 C27 1.232 1_545 S
C27 O26 1.232 1_565 S
C27 O28 1.218 1_565 S
O28 C27 1.218 1_545 S
C29 O22 1.275 . S
C29 O24 1.255 1_565 S
C30 O31 1.258 . S
C30 O32 1.256 1_565 S
O31 Cd23 2.381 1_565 S
O31 C30 1.258 . S
O32 Cd23 2.378 . S
O32 C30 1.256 1_545 S
O33 Cd34 2.300 . S
O33 C40 1.275 . S
Cd34 O33 2.300 . S
Cd34 O42 2.381 . S
Cd34 O43 2.378 . S
O35 Cd36 2.385 . S
O35 C40 1.255 . S
Cd36 O35 2.385 . S
Cd36 O37 2.317 . S
O37 Cd36 2.317 . S
O37 C38 1.232 . S
C38 O37 1.232 . S
C38 O39 1.218 . S
O39 C38 1.218 . S
C40 O33 1.275 . S
C40 O35 1.255 . S
C41 O42 1.258 . S
C41 O43 1.256 . S
O42 Cd34 2.381 . S
O42 C41 1.258 . S
O43 Cd34 2.378 . S
O43 C41 1.256 . S
O44 Cd45 2.300 . S
O44 C51 1.275 . S
Cd45 O44 2.300 . S
Cd45 O53 2.381 . S
Cd45 O54 2.378 . S
O46 Cd47 2.385 1_554 S
O46 C51 1.255 . S
Cd47 O46 2.385 1_556 S
Cd47 O48 2.317 . S
O48 Cd47 2.317 . S
O48 C49 1.232 . S
C49 O48 1.232 . S
C49 O50 1.218 . S
O50 C49 1.218 . S
C51 O44 1.275 . S
C51 O46 1.255 . S
C52 O53 1.258 . S
C52 O54 1.256 . S
O53 Cd45 2.381 . S
O53 C52 1.258 . S
O54 Cd45 2.378 . S
O54 C52 1.256 . S
O55 Cd56 2.300 . S
O55 C62 1.275 . S
Cd56 O55 2.300 . S
Cd56 O64 2.381 . S
Cd56 O65 2.378 . S
O57 Cd58 2.385 1_554 S
O57 C62 1.255 . S
Cd58 O57 2.385 1_556 S
Cd58 O59 2.317 . S
O59 Cd58 2.317 . S
O59 C60 1.232 . S
C60 O59 1.232 . S
C60 O61 1.218 . S
O61 C60 1.218 . S
C62 O55 1.275 . S
C62 O57 1.255 . S
C63 O64 1.258 . S
C63 O65 1.256 . S
O64 Cd56 2.381 . S
O64 C63 1.258 . S
O65 Cd56 2.378 . S
O65 C63 1.256 . S
O66 Cd67 2.300 . S
O66 C73 1.275 . S
Cd67 O66 2.300 . S
Cd67 O75 2.381 . S
Cd67 O76 2.378 . S
O68 Cd69 2.385 1_554 S
O68 C73 1.255 . S
Cd69 O68 2.385 1_556 S
Cd69 O70 2.317 . S
O70 Cd69 2.317 . S
O70 C71 1.232 . S
C71 O70 1.232 . S
C71 O72 1.218 . S
O72 C71 1.218 . S
C73 O66 1.275 . S
C73 O68 1.255 . S
C74 O75 1.258 . S
C74 O76 1.256 . S
O75 Cd67 2.381 . S
O75 C74 1.258 . S
O76 Cd67 2.378 . S
O76 C74 1.256 . S
O77 Cd78 2.300 . S
O77 C84 1.275 . S
Cd78 O77 2.300 . S
Cd78 O86 2.381 . S
Cd78 O87 2.378 . S
O79 Cd80 2.385 1_554 S
O79 C84 1.255 . S
Cd80 O79 2.385 1_556 S
Cd80 O81 2.317 . S
O81 Cd80 2.317 . S
O81 C82 1.232 . S
C82 O81 1.232 . S
C82 O83 1.218 . S
O83 C82 1.218 . S
C84 O77 1.275 . S
C84 O79 1.255 . S
C85 O86 1.258 . S
C85 O87 1.256 . S
O86 Cd78 2.381 . S
O86 C85 1.258 . S
O87 Cd78 2.378 . S
O87 C85 1.256 . S
Eu88 N117 2.600 . S
Eu88 N123 2.562 . S
Eu88 O132 2.462 . S
Eu88 O133 2.373 1_545 S
Eu88 O135 2.432 . S
Eu88 O136 2.291 1_655 S
Eu88 O140 2.335 1_655 S
Eu88 O143 2.372 . S
Eu88 C152 2.787 . S
C89 N90 1.365 . S
C89 C92 1.405 . S
C89 C96 1.448 1_556 S
N90 C89 1.365 . S
N90 C93 1.319 . S
N90 Eu99 2.600 1_545 S
C91 C93 1.397 . S
C91 C94 1.367 . S
C91 H111 0.931 . S
C92 C89 1.405 . S
C92 C94 1.403 . S
C92 C98 1.439 1_556 S
C93 N90 1.319 . S
C93 C91 1.397 . S
C93 H104 0.929 1_545 S
C94 C91 1.367 . S
C94 C92 1.403 . S
C94 H115 0.929 . S
C95 C96 1.430 . S
C95 C97 1.387 . S
C95 C101 1.404 . S
C96 C89 1.448 1_554 S
C96 C95 1.430 . S
C96 N100 1.351 1_554 S
C97 C95 1.387 . S
C97 C98 1.374 . S
C97 H112 0.931 . S
C98 C92 1.439 1_554 S
C98 C97 1.374 . S
C98 H113 0.931 . S
Eu99 N90 2.600 1_565 S
Eu99 N100 2.562 1_565 S
Eu99 O134 2.335 . S
Eu99 O137 2.372 . S
Eu99 O138 2.462 . S
Eu99 O139 2.373 1_565 S
Eu99 O141 2.432 . S
Eu99 O142 2.291 1_465 S
Eu99 C163 2.787 . S
N100 C96 1.351 1_556 S
N100 Eu99 2.562 1_545 S
N100 C102 1.325 1_556 S
C101 C95 1.404 . S
C101 C103 1.366 . S
C101 H109 0.930 . S
C102 N100 1.325 1_554 S
C102 C103 1.416 . S
C102 H108 0.929 1_455 S
C103 C101 1.366 . S
C103 C102 1.416 . S
C103 H105 0.928 . S
H104 C93 0.929 1_565 S
H105 C103 0.928 . S
H106 C121 0.930 . S
H107 C128 0.930 1_455 S
H108 C102 0.929 1_655 S
H109 C101 0.930 . S
H110 C124 0.929 1_455 S
H111 C91 0.931 . S
H112 C97 0.931 . S
H113 C98 0.931 . S
H114 C119 0.931 . S
H115 C94 0.929 . S
H116 C127 0.930 . S
N117 Eu88 2.600 . S
N117 C118 1.372 . S
N117 C121 1.319 . S
C118 N117 1.372 . S
C118 C120 1.400 1_545 S
C118 C126 1.446 1_545 S
C119 H114 0.931 . S
C119 C121 1.397 . S
C119 C122 1.367 1_545 S
C120 C118 1.400 1_565 S
C120 C122 1.403 . S
C120 C153 1.439 . S
C121 H106 0.930 . S
C121 N117 1.319 . S
C121 C119 1.397 . S
C122 C119 1.367 1_565 S
C122 C120 1.403 . S
C122 H129 0.929 . S
N123 Eu88 2.562 . S
N123 C124 1.325 . S
N123 C126 1.351 1_545 S
C124 H110 0.929 1_655 S
C124 N123 1.325 . S
C124 C128 1.416 1_545 S
C125 C126 1.430 . S
C125 C127 1.404 . S
C125 C154 1.387 . S
C126 C118 1.446 1_565 S
C126 N123 1.351 1_565 S
C126 C125 1.430 . S
C127 H116 0.930 . S
C127 C125 1.404 . S
C127 C128 1.366 . S
C128 H107 0.930 1_655 S
C128 C124 1.416 1_565 S
C128 C127 1.366 . S
H129 C122 0.929 . S
H130 C153 0.931 . S
H131 C154 0.931 . S
O132 Eu88 2.462 . S
O132 C152 1.252 . S
O133 Eu88 2.373 1_565 S
O133 C144 1.249 . S
O134 Eu99 2.335 . S
O134 C144 1.264 1_455 S
O135 Eu88 2.432 . S
O135 C152 1.268 . S
O136 Eu88 2.291 1_455 S
O136 C151 1.255 . S
O137 Eu99 2.372 . S
O137 C151 1.257 1_565 S
O138 Eu99 2.462 . S
O138 C163 1.252 . S
O139 Eu99 2.373 1_545 S
O139 C155 1.249 . S
O140 Eu88 2.335 1_455 S
O140 C155 1.264 . S
O141 Eu99 2.432 . S
O141 C163 1.268 . S
O142 Eu99 2.291 1_645 S
O142 C162 1.255 . S
O143 Eu88 2.372 . S
O143 C162 1.257 . S
C144 O133 1.249 . S
C144 O134 1.264 1_655 S
C145 C148 1.382 . S
C145 C150 1.390 . S
C145 C152 1.506 . S
C146 C147 1.398 . S
C146 C150 1.392 . S
C147 C146 1.398 . S
C147 C149 1.372 . S
C147 H164 0.931 . S
C148 C145 1.382 . S
C148 C149 1.390 . S
C148 H165 0.931 . S
C149 C147 1.372 . S
C149 C148 1.390 . S
C149 H166 0.929 . S
C150 C145 1.390 . S
C150 C146 1.392 . S
C150 H167 0.930 1_655 S
C151 O136 1.255 . S
C151 O137 1.257 1_545 S
C152 Eu88 2.787 . S
C152 O132 1.252 . S
C152 O135 1.268 . S
C152 C145 1.506 . S
C153 C120 1.439 . S
C153 H130 0.931 . S
C153 C154 1.374 . S
C154 C125 1.387 . S
C154 H131 0.931 . S
C154 C153 1.374 . S
C155 O139 1.249 . S
C155 O140 1.264 . S
C156 C159 1.382 . S
C156 C160 1.388 1_556 S
C156 C163 1.506 . S
C157 C158 1.398 . S
C157 C160 1.393 . S
C158 C157 1.398 . S
C158 C161 1.372 1_554 S
C158 H168 0.931 . S
C159 C156 1.382 . S
C159 C161 1.390 . S
C159 H169 0.931 . S
C160 C156 1.388 1_554 S
C160 C157 1.393 . S
C160 H170 0.930 . S
C161 C158 1.372 1_556 S
C161 C159 1.390 . S
C161 H171 0.929 . S
C162 O142 1.255 . S
C162 O143 1.257 . S
C163 Eu99 2.787 . S
C163 O138 1.252 . S
C163 O141 1.268 . S
C163 C156 1.506 . S
H164 C147 0.931 . S
H165 C148 0.931 . S
H166 C149 0.929 . S
H167 C150 0.930 1_455 S
H168 C158 0.931 . S
H169 C159 0.931 . S
H170 C160 0.930 . S
H171 C161 0.929 . S
Eu172 N201 2.600 . S
Eu172 N207 2.562 . S
Eu172 O216 2.462 . S
Eu172 O217 2.373 . S
Eu172 O219 2.432 . S
Eu172 O220 2.291 . S
Eu172 O224 2.335 1_545 S
Eu172 O227 2.372 . S
Eu172 C236 2.787 . S
C173 N174 1.365 . S
C173 C176 1.405 . S
C173 C180 1.448 . S
N174 C173 1.365 . S
N174 C177 1.319 . S
N174 Eu183 2.600 . S
C175 C177 1.397 . S
C175 C178 1.367 . S
C175 H195 0.931 . S
C176 C173 1.405 . S
C176 C178 1.403 . S
C176 C182 1.439 . S
C177 N174 1.319 . S
C177 C175 1.397 . S
C177 H188 0.930 . S
C178 C175 1.367 . S
C178 C176 1.403 . S
C178 H199 0.929 . S
C179 C180 1.430 . S
C179 C181 1.387 . S
C179 C185 1.404 . S
C180 C173 1.448 . S
C180 C179 1.430 . S
C180 N184 1.351 . S
C181 C179 1.387 . S
C181 C182 1.374 . S
C181 H196 0.931 . S
C182 C176 1.439 . S
C182 C181 1.374 . S
C182 H197 0.931 . S
Eu183 N174 2.600 . S
Eu183 N184 2.562 . S
Eu183 O218 2.335 1_565 S
Eu183 O221 2.372 . S
Eu183 O222 2.462 . S
Eu183 O223 2.373 . S
Eu183 O225 2.432 . S
Eu183 O226 2.291 1_565 S
Eu183 C247 2.787 . S
N184 C180 1.351 . S
N184 Eu183 2.562 . S
N184 C186 1.325 . S
C185 C179 1.404 . S
C185 C187 1.366 . S
C185 H193 0.930 . S
C186 N184 1.325 . S
C186 C187 1.416 . S
C186 H192 0.929 . S
C187 C185 1.366 . S
C187 C186 1.416 . S
C187 H189 0.930 . S
H188 C177 0.930 . S
H189 C187 0.930 . S
H190 C205 0.930 . S
H191 C212 0.930 . S
H192 C186 0.929 . S
H193 C185 0.930 . S
H194 C208 0.929 . S
H195 C175 0.931 . S
H196 C181 0.931 . S
H197 C182 0.931 . S
H198 C203 0.931 . S
H199 C178 0.929 . S
H200 C211 0.930 . S
N201 Eu172 2.600 . S
N201 C202 1.365 . S
N201 C205 1.319 . S
C202 N201 1.365 . S
C202 C204 1.405 . S
C202 C210 1.448 . S
C203 H198 0.931 . S
C203 C205 1.397 . S
C203 C206 1.367 . S
C204 C202 1.405 . S
C204 C206 1.403 . S
C204 C237 1.439 . S
C205 H190 0.930 . S
C205 N201 1.319 . S
C205 C203 1.397 . S
C206 C203 1.367 . S
C206 C204 1.403 . S
C206 H213 0.929 . S
N207 Eu172 2.562 . S
N207 C208 1.325 . S
N207 C210 1.351 . S
C208 H194 0.929 . S
C208 N207 1.325 . S
C208 C212 1.416 . S
C209 C210 1.430 . S
C209 C211 1.404 . S
C209 C238 1.387 . S
C210 C202 1.448 . S
C210 N207 1.351 . S
C210 C209 1.430 . S
C211 H200 0.930 . S
C211 C209 1.404 . S
C211 C212 1.366 . S
C212 H191 0.930 . S
C212 C208 1.416 . S
C212 C211 1.366 . S
H213 C206 0.929 . S
H214 C237 0.931 . S
H215 C238 0.931 . S
O216 Eu172 2.462 . S
O216 C236 1.252 . S
O217 Eu172 2.373 . S
O217 C228 1.249 . S
O218 Eu183 2.335 1_545 S
O218 C228 1.264 . S
O219 Eu172 2.432 . S
O219 C236 1.268 . S
O220 Eu172 2.291 . S
O220 C235 1.255 1_545 S
O221 Eu183 2.372 . S
O221 C235 1.257 . S
O222 Eu183 2.462 . S
O222 C247 1.252 . S
O223 Eu183 2.373 . S
O223 C239 1.249 . S
O224 Eu172 2.335 1_565 S
O224 C239 1.264 . S
O225 Eu183 2.432 . S
O225 C247 1.268 . S
O226 Eu183 2.291 1_545 S
O226 C246 1.255 . S
O227 Eu172 2.372 . S
O227 C246 1.257 . S
C228 O217 1.249 . S
C228 O218 1.264 . S
C229 C232 1.382 . S
C229 C234 1.390 . S
C229 C236 1.506 1_554 S
C230 C231 1.398 . S
C230 C234 1.392 . S
C231 C230 1.398 . S
C231 C233 1.372 . S
C231 H248 0.931 . S
C232 C229 1.382 . S
C232 C233 1.390 . S
C232 H249 0.931 . S
C233 C231 1.372 . S
C233 C232 1.390 . S
C233 H250 0.929 . S
C234 C229 1.390 . S
C234 C230 1.392 . S
C234 H251 0.930 1_554 S
C235 O220 1.255 1_565 S
C235 O221 1.257 . S
C236 Eu172 2.787 . S
C236 O216 1.252 . S
C236 O219 1.268 . S
C236 C229 1.506 1_556 S
C237 C204 1.439 . S
C237 H214 0.931 . S
C237 C238 1.374 . S
C238 C209 1.387 . S
C238 H215 0.931 . S
C238 C237 1.374 . S
C239 O223 1.249 . S
C239 O224 1.264 . S
C240 C243 1.382 . S
C240 C244 1.390 . S
C240 C247 1.506 . S
C241 C242 1.398 . S
C241 C244 1.392 . S
C242 C241 1.398 . S
C242 C245 1.372 . S
C242 H252 0.931 . S
C243 C240 1.382 . S
C243 C245 1.390 . S
C243 H253 0.931 . S
C244 C240 1.390 . S
C244 C241 1.392 . S
C244 H254 0.930 1_565 S
C245 C242 1.372 . S
C245 C243 1.390 . S
C245 H255 0.929 . S
C246 O226 1.255 . S
C246 O227 1.257 . S
C247 Eu183 2.787 . S
C247 O222 1.252 . S
C247 O225 1.268 . S
C247 C240 1.506 . S
H248 C231 0.931 . S
H249 C232 0.931 . S
H250 C233 0.929 . S
H251 C234 0.930 1_556 S
H252 C242 0.931 . S
H253 C243 0.931 . S
H254 C244 0.930 1_545 S
H255 C245 0.929 . S
Eu256 N285 2.600 . S
Eu256 N291 2.562 . S
Eu256 O300 2.462 . S
Eu256 O301 2.373 . S
Eu256 O303 2.432 . S
Eu256 O304 2.291 . S
Eu256 O308 2.335 . S
Eu256 O311 2.372 . S
Eu256 C320 2.787 . S
C257 N258 1.365 . S
C257 C260 1.405 . S
C257 C264 1.448 1_556 S
N258 C257 1.365 . S
N258 C261 1.319 . S
N258 Eu267 2.600 . S
C259 C261 1.397 . S
C259 C262 1.367 . S
C259 H279 0.931 . S
C260 C257 1.405 . S
C260 C262 1.403 . S
C260 C266 1.439 1_556 S
C261 N258 1.319 . S
C261 C259 1.397 . S
C261 H272 0.930 . S
C262 C259 1.367 . S
C262 C260 1.403 . S
C262 H283 0.929 . S
C263 C264 1.430 . S
C263 C265 1.387 . S
C263 C269 1.404 . S
C264 C257 1.448 1_554 S
C264 C263 1.430 . S
C264 N268 1.351 1_554 S
C265 C263 1.387 . S
C265 C266 1.374 . S
C265 H280 0.931 . S
C266 C260 1.439 1_554 S
C266 C265 1.374 . S
C266 H281 0.931 . S
Eu267 N258 2.600 . S
Eu267 N268 2.562 . S
Eu267 O302 2.335 . S
Eu267 O305 2.372 . S
Eu267 O306 2.462 . S
Eu267 O307 2.373 . S
Eu267 O309 2.432 . S
Eu267 O310 2.291 . S
Eu267 C331 2.787 . S
N268 C264 1.351 1_556 S
N268 Eu267 2.562 . S
N268 C270 1.325 1_556 S
C269 C263 1.404 . S
C269 C271 1.366 . S
C269 H277 0.930 . S
C270 N268 1.325 1_554 S
C270 C271 1.416 . S
C270 H276 0.929 . S
C271 C269 1.366 . S
C271 C270 1.416 . S
C271 H273 0.930 . S
H272 C261 0.930 . S
H273 C271 0.930 . S
H274 C289 0.930 . S
H275 C296 0.930 . S
H276 C270 0.929 . S
H277 C269 0.930 . S
H278 C292 0.929 . S
H279 C259 0.931 . S
H280 C265 0.931 . S
H281 C266 0.931 . S
H282 C287 0.931 . S
H283 C262 0.929 . S
H284 C295 0.930 . S
N285 Eu256 2.600 . S
N285 C286 1.365 . S
N285 C289 1.319 . S
C286 N285 1.365 . S
C286 C288 1.405 . S
C286 C294 1.448 . S
C287 H282 0.931 . S
C287 C289 1.397 . S
C287 C290 1.367 . S
C288 C286 1.405 . S
C288 C290 1.403 . S
C288 C321 1.439 . S
C289 H274 0.930 . S
C289 N285 1.319 . S
C289 C287 1.397 . S
C290 C287 1.367 . S
C290 C288 1.403 . S
C290 H297 0.929 . S
N291 Eu256 2.562 . S
N291 C292 1.325 . S
N291 C294 1.351 . S
C292 H278 0.929 . S
C292 N291 1.325 . S
C292 C296 1.416 . S
C293 C294 1.430 . S
C293 C295 1.404 . S
C293 C322 1.387 . S
C294 C286 1.448 . S
C294 N291 1.351 . S
C294 C293 1.430 . S
C295 H284 0.930 . S
C295 C293 1.404 . S
C295 C296 1.366 . S
C296 H275 0.930 . S
C296 C292 1.416 . S
C296 C295 1.366 . S
H297 C290 0.929 . S
H298 C321 0.931 . S
H299 C322 0.931 . S
O300 Eu256 2.462 . S
O300 C320 1.252 . S
O301 Eu256 2.373 . S
O301 C312 1.249 . S
O302 Eu267 2.335 . S
O302 C312 1.264 . S
O303 Eu256 2.432 . S
O303 C320 1.268 . S
O304 Eu256 2.291 . S
O304 C319 1.255 . S
O305 Eu267 2.372 . S
O305 C319 1.257 . S
O306 Eu267 2.462 . S
O306 C331 1.252 . S
O307 Eu267 2.373 . S
O307 C323 1.249 . S
O308 Eu256 2.335 . S
O308 C323 1.264 . S
O309 Eu267 2.432 . S
O309 C331 1.268 . S
O310 Eu267 2.291 . S
O310 C330 1.255 . S
O311 Eu256 2.372 . S
O311 C330 1.257 . S
C312 O301 1.249 . S
C312 O302 1.264 . S
C313 C316 1.382 . S
C313 C318 1.390 . S
C313 C320 1.506 . S
C314 C315 1.398 . S
C314 C318 1.392 . S
C315 C314 1.398 . S
C315 C317 1.372 . S
C315 H332 0.931 . S
C316 C313 1.382 . S
C316 C317 1.390 . S
C316 H333 0.931 . S
C317 C315 1.372 . S
C317 C316 1.390 . S
C317 H334 0.929 . S
C318 C313 1.390 . S
C318 C314 1.392 . S
C318 H335 0.930 . S
C319 O304 1.255 . S
C319 O305 1.257 . S
C320 Eu256 2.787 . S
C320 O300 1.252 . S
C320 O303 1.268 . S
C320 C313 1.506 . S
C321 C288 1.439 . S
C321 H298 0.931 . S
C321 C322 1.374 . S
C322 C293 1.387 . S
C322 H299 0.931 . S
C322 C321 1.374 . S
C323 O307 1.249 . S
C323 O308 1.264 . S
C324 C327 1.382 . S
C324 C328 1.390 1_556 S
C324 C331 1.506 . S
C325 C326 1.398 . S
C325 C328 1.392 . S
C326 C325 1.398 . S
C326 C329 1.372 1_554 S
C326 H336 0.931 . S
C327 C324 1.382 . S
C327 C329 1.390 . S
C327 H337 0.931 . S
C328 C324 1.390 1_554 S
C328 C325 1.392 . S
C328 H338 0.930 . S
C329 C326 1.372 1_556 S
C329 C327 1.390 . S
C329 H339 0.929 . S
C330 O310 1.255 . S
C330 O311 1.257 . S
C331 Eu267 2.787 . S
C331 O306 1.252 . S
C331 O309 1.268 . S
C331 C324 1.506 . S
H332 C315 0.931 . S
H333 C316 0.931 . S
H334 C317 0.929 . S
H335 C318 0.930 . S
H336 C326 0.931 . S
H337 C327 0.931 . S
H338 C328 0.930 . S
H339 C329 0.929 . S
Eu340 N369 2.600 . S
Eu340 N375 2.562 . S
Eu340 O384 2.462 . S
Eu340 O385 2.373 1_455 S
Eu340 O387 2.432 . S
Eu340 O388 2.291 . S
Eu340 O392 2.335 . S
Eu340 O395 2.372 . S
Eu340 C404 2.787 . S
C341 N342 1.371 . S
C341 C344 1.405 . S
C341 C348 1.448 1_556 S
N342 C341 1.371 . S
N342 C345 1.317 1_455 S
N342 Eu351 2.597 1_455 S
C343 C345 1.397 1_455 S
C343 C346 1.367 . S
C343 H363 0.931 . S
C344 C341 1.405 . S
C344 C346 1.403 . S
C344 C350 1.439 1_556 S
C345 N342 1.317 1_655 S
C345 C343 1.397 1_655 S
C345 H356 0.930 . S
C346 C343 1.367 . S
C346 C344 1.403 . S
C346 H367 0.929 . S
C347 C348 1.430 . S
C347 C349 1.387 . S
C347 C353 1.404 . S
C348 C341 1.448 1_554 S
C348 C347 1.430 . S
C348 N352 1.351 1_554 S
C349 C347 1.387 . S
C349 C350 1.374 . S
C349 H364 0.931 . S
C350 C344 1.439 1_554 S
C350 C349 1.374 . S
C350 H365 0.931 . S
Eu351 N342 2.597 1_655 S
Eu351 N352 2.562 1_655 S
Eu351 O386 2.335 . S
Eu351 O389 2.372 . S
Eu351 O390 2.462 . S
Eu351 O391 2.373 1_655 S
Eu351 O393 2.432 . S
Eu351 O394 2.286 1_655 S
Eu351 C415 2.787 . S
N352 C348 1.351 1_556 S
N352 Eu351 2.562 1_455 S
N352 C354 1.325 1_556 S
C353 C347 1.404 . S
C353 C355 1.366 . S
C353 H361 0.930 . S
C354 N352 1.325 1_554 S
C354 C355 1.416 . S
C354 H360 0.929 . S
C355 C353 1.366 . S
C355 C354 1.416 . S
C355 H357 0.930 . S
H356 C345 0.930 . S
H357 C355 0.930 . S
H358 C373 0.930 . S
H359 C380 0.930 . S
H360 C354 0.929 . S
H361 C353 0.930 . S
H362 C376 0.929 . S
H363 C343 0.931 . S
H364 C349 0.931 . S
H365 C350 0.931 . S
H366 C371 0.931 . S
H367 C346 0.929 . S
H368 C379 0.930 . S
N369 Eu340 2.600 . S
N369 C370 1.360 1_455 S
N369 C373 1.319 . S
C370 N369 1.360 1_655 S
C370 C372 1.409 . S
C370 C378 1.449 . S
C371 H366 0.931 . S
C371 C373 1.397 . S
C371 C374 1.367 1_455 S
C372 C370 1.409 . S
C372 C374 1.403 . S
C372 C405 1.439 . S
C373 H358 0.930 . S
C373 N369 1.319 . S
C373 C371 1.397 . S
C374 C371 1.367 1_655 S
C374 C372 1.403 . S
C374 H381 0.929 . S
N375 Eu340 2.562 . S
N375 C376 1.325 . S
N375 C378 1.351 1_455 S
C376 H362 0.929 . S
C376 N375 1.325 . S
C376 C380 1.416 1_455 S
C377 C378 1.430 . S
C377 C379 1.404 . S
C377 C406 1.387 . S
C378 C370 1.449 . S
C378 N375 1.351 1_655 S
C378 C377 1.430 . S
C379 H368 0.930 . S
C379 C377 1.404 . S
C379 C380 1.366 . S
C380 H359 0.930 . S
C380 C376 1.416 1_655 S
C380 C379 1.366 . S
H381 C374 0.929 . S
H382 C405 0.931 . S
H383 C406 0.931 . S
O384 Eu340 2.462 . S
O384 C404 1.252 . S
O385 Eu340 2.373 1_655 S
O385 C396 1.249 . S
O386 Eu351 2.335 . S
O386 C396 1.264 . S
O387 Eu340 2.432 . S
O387 C404 1.268 . S
O388 Eu340 2.291 . S
O388 C403 1.255 . S
O389 Eu351 2.372 . S
O389 C403 1.257 1_655 S
O390 Eu351 2.462 . S
O390 C415 1.252 . S
O391 Eu351 2.373 1_455 S
O391 C407 1.249 . S
O392 Eu340 2.335 . S
O392 C407 1.264 . S
O393 Eu351 2.432 . S
O393 C415 1.268 . S
O394 Eu351 2.286 1_455 S
O394 C414 1.259 . S
O395 Eu340 2.372 . S
O395 C414 1.257 . S
C396 O385 1.249 . S
C396 O386 1.264 . S
C397 C400 1.382 . S
C397 C402 1.390 . S
C397 C404 1.506 . S
C398 C399 1.398 . S
C398 C402 1.392 . S
C399 C398 1.398 . S
C399 C401 1.372 . S
C399 H416 0.931 . S
C400 C397 1.382 . S
C400 C401 1.390 . S
C400 H417 0.931 . S
C401 C399 1.372 . S
C401 C400 1.390 . S
C401 H418 0.929 . S
C402 C397 1.390 . S
C402 C398 1.392 . S
C402 H419 0.930 . S
C403 O388 1.255 . S
C403 O389 1.257 1_455 S
C404 Eu340 2.787 . S
C404 O384 1.252 . S
C404 O387 1.268 . S
C404 C397 1.506 . S
C405 C372 1.439 . S
C405 H382 0.931 . S
C405 C406 1.374 . S
C406 C377 1.387 . S
C406 H383 0.931 . S
C406 C405 1.374 . S
C407 O391 1.249 . S
C407 O392 1.264 . S
C408 C411 1.382 . S
C408 C412 1.390 1_556 S
C408 C415 1.506 . S
C409 C410 1.398 . S
C409 C412 1.392 . S
C410 C409 1.398 . S
C410 C413 1.372 1_554 S
C410 H420 0.931 . S
C411 C408 1.382 . S
C411 C413 1.390 . S
C411 H421 0.931 . S
C412 C408 1.390 1_554 S
C412 C409 1.392 . S
C412 H422 0.930 . S
C413 C410 1.372 1_556 S
C413 C411 1.390 . S
C413 H423 0.929 . S
C414 O394 1.259 . S
C414 O395 1.257 . S
C415 Eu351 2.787 . S
C415 O390 1.252 . S
C415 O393 1.268 . S
C415 C408 1.506 . S
H416 C399 0.931 . S
H417 C400 0.931 . S
H418 C401 0.929 . S
H419 C402 0.930 . S
H420 C410 0.931 . S
H421 C411 0.931 . S
H422 C412 0.930 . S
H423 C413 0.929 . S
C424 C425 1.369 . S
C424 C426 1.419 . S
C424 H428 0.930 1_545 S
C425 C424 1.369 . S
C425 C434 1.429 . S
C426 C424 1.419 . S
C426 C427 1.366 . S
C426 H429 0.925 1_545 S
C427 C426 1.366 . S
C427 C433 1.428 . S
H428 C424 0.930 1_565 S
H429 C426 0.925 1_565 S
S430 N431 1.613 . S
S430 N432 1.610 . S
N431 S430 1.613 . S
N431 C434 1.350 . S
N432 S430 1.610 . S
N432 C433 1.351 . S
C433 C427 1.428 . S
C433 N432 1.351 . S
C433 C434 1.434 . S
C434 C425 1.429 . S
C434 N431 1.350 . S
C434 C433 1.434 . S
C435 C436 1.369 . S
C435 C437 1.419 . S
C435 H439 0.930 . S
C436 C435 1.369 . S
C436 C445 1.429 . S
C437 C435 1.419 . S
C437 C438 1.363 . S
C437 H440 0.929 . S
C438 C437 1.363 . S
C438 C444 1.428 . S
H439 C435 0.930 . S
H440 C437 0.929 . S
S441 N442 1.613 . S
S441 N443 1.610 . S
N442 S441 1.613 . S
N442 C445 1.350 . S
N443 S441 1.610 . S
N443 C444 1.351 . S
C444 C438 1.428 . S
C444 N443 1.351 . S
C444 C445 1.434 . S
C445 C436 1.429 . S
C445 N442 1.350 . S
C445 C444 1.434 . S
C446 C447 1.369 . S
C446 C448 1.419 . S
C446 H450 0.930 . S
C447 C446 1.369 . S
C447 C456 1.429 . S
C448 C446 1.419 . S
C448 C449 1.363 . S
C448 H451 0.929 . S
C449 C448 1.363 . S
C449 C455 1.428 . S
H450 C446 0.930 . S
H451 C448 0.929 . S
S452 N453 1.613 . S
S452 N454 1.610 . S
N453 S452 1.613 . S
N453 C456 1.350 . S
N454 S452 1.610 . S
N454 C455 1.351 . S
C455 C449 1.428 . S
C455 N454 1.351 . S
C455 C456 1.434 . S
C456 C447 1.429 . S
C456 N453 1.350 . S
C456 C455 1.434 . S
C457 C458 1.369 . S
C457 C459 1.419 . S
C457 H461 0.930 . S
C458 C457 1.369 . S
C458 C467 1.429 . S
C459 C457 1.419 . S
C459 C460 1.363 . S
C459 H462 0.929 . S
C460 C459 1.363 . S
C460 C466 1.428 . S
H461 C457 0.930 . S
H462 C459 0.929 . S
S463 N464 1.613 . S
S463 N465 1.610 . S
N464 S463 1.613 . S
N464 C467 1.350 . S
N465 S463 1.610 . S
N465 C466 1.351 . S
C466 C460 1.428 . S
C466 N465 1.351 . S
C466 C467 1.434 . S
C467 C458 1.429 . S
C467 N464 1.350 . S
C467 C466 1.434 . S
C468 C469 1.369 . S
C468 C470 1.419 . S
C468 H472 0.930 . S
C469 C468 1.369 . S
C469 C478 1.429 1_565 S
C470 C468 1.419 . S
C470 C471 1.363 1_554 S
C470 H473 0.929 1_554 S
C471 C470 1.363 1_556 S
C471 C477 1.428 1_565 S
H472 C468 0.930 . S
H473 C470 0.929 1_556 S
S474 N475 1.613 1_556 S
S474 N476 1.610 . S
N475 S474 1.613 1_554 S
N475 C478 1.350 . S
N476 S474 1.610 . S
N476 C477 1.351 . S
C477 C471 1.428 1_545 S
C477 N476 1.351 . S
C477 C478 1.434 1_556 S
C478 C469 1.429 1_545 S
C478 N475 1.350 . S
C478 C477 1.434 1_554 S
C479 C480 1.369 . S
C479 C481 1.410 1_554 S
C479 H483 0.930 . S
C480 C479 1.369 . S
C480 C489 1.429 . S
C481 C479 1.410 1_556 S
C481 C482 1.369 . S
C481 H484 0.932 . S
C482 C481 1.369 . S
C482 C488 1.428 . S
H483 C479 0.930 . S
H484 C481 0.932 . S
S485 N486 1.613 1_556 S
S485 N487 1.610 . S
N486 S485 1.613 1_554 S
N486 C489 1.350 . S
N487 S485 1.610 . S
N487 C488 1.351 . S
C488 C482 1.428 . S
C488 N487 1.351 . S
C488 C489 1.434 1_556 S
C489 C480 1.429 . S
C489 N486 1.350 . S
C489 C488 1.434 1_554 S
C490 C491 1.369 . S
C490 C492 1.419 . S
C490 H494 0.930 . S
C491 C490 1.369 . S
C491 C500 1.429 . S
C492 C490 1.419 . S
C492 C493 1.363 1_554 S
C492 H495 0.929 . S
C493 C492 1.363 1_556 S
C493 C499 1.428 . S
H494 C490 0.930 . S
H495 C492 0.929 . S
S496 N497 1.613 1_556 S
S496 N498 1.610 . S
N497 S496 1.613 1_554 S
N497 C500 1.350 . S
N498 S496 1.610 . S
N498 C499 1.351 . S
C499 C493 1.428 . S
C499 N498 1.351 . S
C499 C500 1.434 1_556 S
C500 C491 1.429 . S
C500 N497 1.350 . S
C500 C499 1.434 1_554 S
C501 C502 1.369 . S
C501 C503 1.419 1_554 S
C501 H505 0.930 . S
C502 C501 1.369 . S
C502 C511 1.429 1_655 S
C503 C501 1.419 1_556 S
C503 C504 1.363 . S
C503 H506 0.929 . S
C504 C503 1.363 . S
C504 C510 1.428 1_656 S
H505 C501 0.930 . S
H506 C503 0.929 . S
S507 N508 1.613 . S
S507 N509 1.610 . S
N508 S507 1.613 . S
N508 C511 1.350 . S
N509 S507 1.610 . S
N509 C510 1.351 . S
C510 C504 1.428 1_454 S
C510 N509 1.351 . S
C510 C511 1.434 . S
C511 C502 1.429 1_455 S
C511 N508 1.350 . S
C511 C510 1.434 . S
C512 C513 1.369 . S
C512 C514 1.419 1_455 S
C512 H516 0.930 1_455 S
C513 C512 1.369 . S
C513 C522 1.429 . S
C514 C512 1.419 1_655 S
C514 C515 1.363 1_655 S
C514 H517 0.929 . S
C515 C514 1.363 1_455 S
C515 C521 1.428 . S
H516 C512 0.930 1_655 S
H517 C514 0.929 . S
S518 N519 1.613 . S
S518 N520 1.610 . S
N519 S518 1.613 . S
N519 C522 1.350 . S
N520 S518 1.610 . S
N520 C521 1.351 . S
C521 C515 1.428 . S
C521 N520 1.351 . S
C521 C522 1.434 . S
C522 C513 1.429 . S
C522 N519 1.350 . S
C522 C521 1.434 . S
C523 C524 1.369 . S
C523 C525 1.419 . S
C523 H527 0.930 . S
C524 C523 1.369 . S
C524 C533 1.429 . S
C525 C523 1.419 . S
C525 C526 1.363 . S
C525 H528 0.929 . S
C526 C525 1.363 . S
C526 C532 1.425 1_545 S
H527 C523 0.930 . S
H528 C525 0.929 . S
S529 N530 1.613 1_565 S
S529 N531 1.610 . S
N530 S529 1.613 1_545 S
N530 C533 1.350 . S
N531 S529 1.610 . S
N531 C532 1.368 . S
C532 C526 1.425 1_565 S
C532 N531 1.368 . S
C532 C533 1.421 1_565 S
C533 C524 1.429 . S
C533 N530 1.350 . S
C533 C532 1.421 1_545 S
C534 C535 1.369 . S
C534 C536 1.419 . S
C534 H538 0.930 . S
C535 C534 1.369 . S
C535 C544 1.429 . S
C536 C534 1.419 . S
C536 C537 1.363 . S
C536 H539 0.929 . S
C537 C536 1.363 . S
C537 C543 1.428 . S
H538 C534 0.930 . S
H539 C536 0.929 . S
S540 N541 1.613 . S
S540 N542 1.610 . S
N541 S540 1.613 . S
N541 C544 1.350 . S
N542 S540 1.610 . S
N542 C543 1.351 . S
C543 C537 1.428 . S
C543 N542 1.351 . S
C543 C544 1.434 . S
C544 C535 1.429 . S
C544 N541 1.350 . S
C544 C543 1.434 . S
C545 C546 1.369 . S
C545 C547 1.419 . S
C545 H549 0.930 . S
C546 C545 1.369 . S
C546 C555 1.429 . S
C547 C545 1.419 . S
C547 C548 1.363 . S
C547 H550 0.929 . S
C548 C547 1.363 . S
C548 C554 1.428 . S
H549 C545 0.930 . S
H550 C547 0.929 . S
S551 N552 1.613 . S
S551 N553 1.610 . S
N552 S551 1.613 . S
N552 C555 1.350 . S
N553 S551 1.610 . S
N553 C554 1.351 . S
C554 C548 1.428 . S
C554 N553 1.351 . S
C554 C555 1.434 . S
C555 C546 1.429 . S
C555 N552 1.350 . S
C555 C554 1.434 . S
C556 C557 1.369 . S
C556 C558 1.419 1_655 S
C556 H560 0.930 . S
C557 C556 1.369 . S
C557 C566 1.429 . S
C558 C556 1.419 1_455 S
C558 C559 1.363 . S
C558 H561 0.929 . S
C559 C558 1.363 . S
C559 C565 1.428 . S
H560 C556 0.930 . S
H561 C558 0.929 . S
S562 N563 1.613 1_556 S
S562 N564 1.610 1_655 S
N563 S562 1.613 1_554 S
N563 C566 1.350 . S
N564 S562 1.610 1_455 S
N564 C565 1.351 1_556 S
C565 C559 1.428 . S
C565 N564 1.351 1_554 S
C565 C566 1.434 1_455 S
C566 C557 1.429 . S
C566 N563 1.350 . S
C566 C565 1.434 1_655 S
C567 C568 1.369 . S
C567 C569 1.419 . S
C567 H571 0.930 . S
C568 C567 1.369 . S
C568 C577 1.429 1_565 S
C569 C567 1.419 . S
C569 C570 1.363 1_565 S
C569 H572 0.929 . S
C570 C569 1.363 1_545 S
C570 C576 1.428 . S
H571 C567 0.930 . S
H572 C569 0.929 . S
S573 N574 1.613 . S
S573 N575 1.610 . S
N574 S573 1.613 . S
N574 C577 1.350 . S
N575 S573 1.610 . S
N575 C576 1.351 . S
C576 C570 1.428 . S
C576 N575 1.351 . S
C576 C577 1.434 . S
C577 C568 1.429 1_545 S
C577 N574 1.350 . S
C577 C576 1.434 . S
C578 C579 1.369 . S
C578 C580 1.419 . S
C578 H582 0.930 . S
C579 C578 1.369 . S
C579 C588 1.429 . S
C580 C578 1.419 . S
C580 C581 1.363 . S
C580 H583 0.929 . S
C581 C580 1.363 . S
C581 C587 1.428 . S
H582 C578 0.930 . S
H583 C580 0.929 . S
S584 N585 1.613 . S
S584 N586 1.610 . S
N585 S584 1.613 . S
N585 C588 1.350 . S
N586 S584 1.610 . S
N586 C587 1.351 . S
C587 C581 1.428 . S
C587 N586 1.351 . S
C587 C588 1.434 . S
C588 C579 1.429 . S
C588 N585 1.350 . S
C588 C587 1.434 . S
C589 C590 1.369 . S
C589 C591 1.419 . S
C589 H593 0.930 . S
C590 C589 1.369 . S
C590 C599 1.429 . S
C591 C589 1.419 . S
C591 C592 1.363 . S
C591 H594 0.929 . S
C592 C591 1.363 . S
C592 C598 1.428 . S
H593 C589 0.930 . S
H594 C591 0.929 . S
S595 N596 1.613 . S
S595 N597 1.610 . S
N596 S595 1.613 . S
N596 C599 1.350 . S
N597 S595 1.610 . S
N597 C598 1.351 . S
C598 C592 1.428 . S
C598 N597 1.351 . S
C598 C599 1.434 . S
C599 C590 1.429 . S
C599 N596 1.350 . S
C599 C598 1.434 . S
C600 C601 1.369 . S
C600 C602 1.419 . S
C600 H604 0.930 . S
C601 C600 1.369 . S
C601 C610 1.429 . S
C602 C600 1.419 . S
C602 C603 1.363 . S
C602 H605 0.929 . S
C603 C602 1.363 . S
C603 C609 1.428 . S
H604 C600 0.930 . S
H605 C602 0.929 . S
S606 N607 1.613 . S
S606 N608 1.610 . S
N607 S606 1.613 . S
N607 C610 1.350 . S
N608 S606 1.610 . S
N608 C609 1.351 . S
C609 C603 1.428 . S
C609 N608 1.351 . S
C609 C610 1.434 . S
C610 C601 1.429 . S
C610 N607 1.350 . S
C610 C609 1.434 . S
C611 C612 1.369 . S
C611 C613 1.419 . S
C611 H615 0.930 . S
C612 C611 1.369 . S
C612 C621 1.429 . S
C613 C611 1.419 . S
C613 C614 1.363 . S
C613 H616 0.929 . S
C614 C613 1.363 . S
C614 C620 1.428 . S
H615 C611 0.930 . S
H616 C613 0.929 . S
S617 N618 1.613 . S
S617 N619 1.610 . S
N618 S617 1.613 . S
N618 C621 1.350 1_565 S
N619 S617 1.610 . S
N619 C620 1.351 1_565 S
C620 C614 1.428 . S
C620 N619 1.351 1_545 S
C620 C621 1.434 . S
C621 C612 1.429 . S
C621 N618 1.350 1_545 S
C621 C620 1.434 . S
C622 C623 1.369 . S
C622 C624 1.419 . S
C622 H626 0.930 . S
C623 C622 1.369 . S
C623 C632 1.429 . S
C624 C622 1.419 . S
C624 C625 1.363 . S
C624 H627 0.929 . S
C625 C624 1.363 . S
C625 C631 1.428 . S
H626 C622 0.930 . S
H627 C624 0.929 . S
S628 N629 1.613 1_554 S
S628 N630 1.610 1_554 S
N629 S628 1.613 1_556 S
N629 C632 1.350 . S
N630 S628 1.610 1_556 S
N630 C631 1.351 . S
C631 C625 1.428 . S
C631 N630 1.351 . S
C631 C632 1.434 . S
C632 C623 1.429 . S
C632 N629 1.350 . S
C632 C631 1.434 . S
C633 C634 1.369 . S
C633 C635 1.419 . S
C633 H637 0.930 . S
C634 C633 1.369 . S
C634 C643 1.429 . S
C635 C633 1.419 . S
C635 C636 1.363 . S
C635 H638 0.929 . S
C636 C635 1.363 . S
C636 C642 1.428 . S
H637 C633 0.930 . S
H638 C635 0.929 . S
S639 N640 1.613 . S
S639 N641 1.610 . S
N640 S639 1.613 . S
N640 C643 1.350 . S
N641 S639 1.610 . S
N641 C642 1.351 . S
C642 C636 1.428 . S
C642 N641 1.351 . S
C642 C643 1.434 . S
C643 C634 1.429 . S
C643 N640 1.350 . S
C643 C642 1.434 . S
C644 C645 1.380 . S
C644 C646 1.417 1_655 S
C644 H648 0.921 1_655 S
C645 C644 1.380 . S
C645 C654 1.429 . S
C646 C644 1.417 1_455 S
C646 C647 1.363 1_455 S
C646 H649 0.929 . S
C647 C646 1.363 1_655 S
C647 C653 1.428 . S
H648 C644 0.921 1_455 S
H649 C646 0.929 . S
S650 N651 1.613 . S
S650 N652 1.610 . S
N651 S650 1.613 . S
N651 C654 1.350 . S
N652 S650 1.610 . S
N652 C653 1.351 . S
C653 C647 1.428 . S
C653 N652 1.351 . S
C653 C654 1.434 . S
C654 C645 1.429 . S
C654 N651 1.350 . S
C654 C653 1.434 . S
C655 C656 1.369 . S
C655 C657 1.419 . S
C655 H659 0.930 . S
C656 C655 1.369 . S
C656 C665 1.429 . S
C657 C655 1.419 . S
C657 C658 1.363 . S
C657 H660 0.929 1_565 S
C658 C657 1.363 . S
C658 C664 1.428 . S
H659 C655 0.930 . S
H660 C657 0.929 1_545 S
S661 N662 1.613 . S
S661 N663 1.610 . S
N662 S661 1.613 . S
N662 C665 1.350 . S
N663 S661 1.610 . S
N663 C664 1.351 . S
C664 C658 1.428 . S
C664 N663 1.351 . S
C664 C665 1.434 . S
C665 C656 1.429 . S
C665 N662 1.350 . S
C665 C664 1.434 . S
C666 C667 1.369 . S
C666 C668 1.419 . S
C666 H670 0.930 . S
C667 C666 1.369 . S
C667 C676 1.429 . S
C668 C666 1.419 . S
C668 C669 1.363 . S
C668 H671 0.929 . S
C669 C668 1.363 . S
C669 C675 1.428 . S
H670 C666 0.930 . S
H671 C668 0.929 . S
S672 N673 1.613 . S
S672 N674 1.610 . S
N673 S672 1.613 . S
N673 C676 1.350 . S
N674 S672 1.610 . S
N674 C675 1.351 . S
C675 C669 1.428 . S
C675 N674 1.351 . S
C675 C676 1.434 . S
C676 C667 1.429 . S
C676 N673 1.350 . S
C676 C675 1.434 . S
C677 C678 1.369 . S
C677 C679 1.419 . S
C677 H681 0.930 . S
C678 C677 1.369 . S
C678 C687 1.429 . S
C679 C677 1.419 . S
C679 C680 1.363 . S
C679 H682 0.929 . S
C680 C679 1.363 . S
C680 C686 1.428 . S
H681 C677 0.930 . S
H682 C679 0.929 . S
S683 N684 1.613 . S
S683 N685 1.610 . S
N684 S683 1.613 . S
N684 C687 1.350 . S
N685 S683 1.610 . S
N685 C686 1.351 . S
C686 C680 1.428 . S
C686 N685 1.351 . S
C686 C687 1.434 . S
C687 C678 1.429 . S
C687 N684 1.350 . S
C687 C686 1.434 . S
C425 C74 1.974 . S
C427 C151 2.115 . S
C438 C228 2.115 . S
C436 C85 1.971 . S
C449 C319 2.115 . S
C447 C52 1.971 . S
C460 C403 2.101 . S
C458 C63 1.961 . S
C471 C162 2.114 1_565 S
C469 C30 1.939 . S
C480 C41 1.937 . S
C482 C239 2.115 . S
C491 C8 1.941 . S
C493 C330 2.115 . S
C502 C19 1.934 . S
C504 C414 2.098 1_655 S
C515 C146 0.850 1_455 S
C513 C62 0.855 . S
C526 C241 0.816 1_545 S
C524 C73 0.833 . S
C537 C314 0.847 . S
C535 C84 0.852 . S
C546 C51 0.834 . S
C548 C398 0.830 . S
C557 C18 0.815 . S
C559 C157 0.841 . S
C570 C230 0.820 . S
C568 C29 0.798 . S
C581 C325 0.854 . S
C579 C40 0.835 . S
C590 C7 0.803 . S
C592 C409 0.830 . S
C601 C60 1.812 . S
C603 C155 2.268 . S
C612 C71 1.828 . S
C614 C246 2.330 . S
C625 C323 2.287 . S
C623 C82 1.815 . S
C636 C407 2.288 . S
C634 C49 1.826 . S
C645 C16 1.715 . S
C647 C144 2.272 . S
C658 C235 2.331 . S
C656 C27 1.730 . S
C669 C312 2.283 . S
C667 C38 1.733 . S
C678 C5 1.728 . S
C680 C396 2.291 . S
