# Generated by pormake.
# Topology gar, (4,6)-cn, num edge types: 1
# Building blocks:
#     Node 0, Type 0, BuildingBlock: QUQFOY_clean_sbu_1, # of connection points: 4
#     Node 1, Type 0, BuildingBlock: QUQFOY_clean_sbu_1, # of connection points: 4
#     Node 2, Type 0, BuildingBlock: QUQFOY_clean_sbu_1, # of connection points: 4
#     Node 3, Type 0, BuildingBlock: QUQFOY_clean_sbu_1, # of connection points: 4
#     Node 4, Type 0, BuildingBlock: QUQFOY_clean_sbu_1, # of connection points: 4
#     Node 5, Type 0, BuildingBlock: QUQFOY_clean_sbu_1, # of connection points: 4
#     Node 6, Type 0, BuildingBlock: QUQFOY_clean_sbu_1, # of connection points: 4
#     Node 7, Type 0, BuildingBlock: QUQFOY_clean_sbu_1, # of connection points: 4
#     Node 8, Type 0, BuildingBlock: QUQFOY_clean_sbu_1, # of connection points: 4
#     Node 9, Type 0, BuildingBlock: QUQFOY_clean_sbu_1, # of connection points: 4
#     Node 10, Type 0, BuildingBlock: QUQFOY_clean_sbu_1, # of connection points: 4
#     Node 11, Type 0, BuildingBlock: QUQFOY_clean_sbu_1, # of connection points: 4
#     Node 12, Type 0, BuildingBlock: QUQFOY_clean_sbu_1, # of connection points: 4
#     Node 13, Type 0, BuildingBlock: QUQFOY_clean_sbu_1, # of connection points: 4
#     Node 14, Type 0, BuildingBlock: QUQFOY_clean_sbu_1, # of connection points: 4
#     Node 15, Type 0, BuildingBlock: QUQFOY_clean_sbu_1, # of connection points: 4
#     Node 16, Type 0, BuildingBlock: QUQFOY_clean_sbu_1, # of connection points: 4
#     Node 17, Type 0, BuildingBlock: QUQFOY_clean_sbu_1, # of connection points: 4
#     Node 18, Type 0, BuildingBlock: QUQFOY_clean_sbu_1, # of connection points: 4
#     Node 19, Type 0, BuildingBlock: QUQFOY_clean_sbu_1, # of connection points: 4
#     Node 20, Type 0, BuildingBlock: QUQFOY_clean_sbu_1, # of connection points: 4
#     Node 21, Type 0, BuildingBlock: QUQFOY_clean_sbu_1, # of connection points: 4
#     Node 22, Type 0, BuildingBlock: QUQFOY_clean_sbu_1, # of connection points: 4
#     Node 23, Type 0, BuildingBlock: QUQFOY_clean_sbu_1, # of connection points: 4
#     Node 24, Type 1, BuildingBlock: BETFEN_clean_sbu_0, # of connection points: 6
#     Node 25, Type 1, BuildingBlock: BETFEN_clean_sbu_0, # of connection points: 6
#     Node 26, Type 1, BuildingBlock: BETFEN_clean_sbu_0, # of connection points: 6
#     Node 27, Type 1, BuildingBlock: BETFEN_clean_sbu_0, # of connection points: 6
#     Node 28, Type 1, BuildingBlock: BETFEN_clean_sbu_0, # of connection points: 6
#     Node 29, Type 1, BuildingBlock: BETFEN_clean_sbu_0, # of connection points: 6
#     Node 30, Type 1, BuildingBlock: BETFEN_clean_sbu_0, # of connection points: 6
#     Node 31, Type 1, BuildingBlock: BETFEN_clean_sbu_0, # of connection points: 6
#     Node 32, Type 1, BuildingBlock: BETFEN_clean_sbu_0, # of connection points: 6
#     Node 33, Type 1, BuildingBlock: BETFEN_clean_sbu_0, # of connection points: 6
#     Node 34, Type 1, BuildingBlock: BETFEN_clean_sbu_0, # of connection points: 6
#     Node 35, Type 1, BuildingBlock: BETFEN_clean_sbu_0, # of connection points: 6
#     Node 36, Type 1, BuildingBlock: BETFEN_clean_sbu_0, # of connection points: 6
#     Node 37, Type 1, BuildingBlock: BETFEN_clean_sbu_0, # of connection points: 6
#     Node 38, Type 1, BuildingBlock: BETFEN_clean_sbu_0, # of connection points: 6
#     Node 39, Type 1, BuildingBlock: BETFEN_clean_sbu_0, # of connection points: 6
#     Edge 40, Type (0, 1), BuildingBlock: UVAHIK_clean_linker_0, # of connection points: 2
#     Edge 41, Type (0, 1), BuildingBlock: UVAHIK_clean_linker_0, # of connection points: 2
#     Edge 42, Type (0, 1), BuildingBlock: UVAHIK_clean_linker_0, # of connection points: 2
#     Edge 43, Type (0, 1), BuildingBlock: UVAHIK_clean_linker_0, # of connection points: 2
#     Edge 44, Type (0, 1), BuildingBlock: UVAHIK_clean_linker_0, # of connection points: 2
#     Edge 45, Type (0, 1), BuildingBlock: UVAHIK_clean_linker_0, # of connection points: 2
#     Edge 46, Type (0, 1), BuildingBlock: UVAHIK_clean_linker_0, # of connection points: 2
#     Edge 47, Type (0, 1), BuildingBlock: UVAHIK_clean_linker_0, # of connection points: 2
#     Edge 48, Type (0, 1), BuildingBlock: UVAHIK_clean_linker_0, # of connection points: 2
#     Edge 49, Type (0, 1), BuildingBlock: UVAHIK_clean_linker_0, # of connection points: 2
#     Edge 50, Type (0, 1), BuildingBlock: UVAHIK_clean_linker_0, # of connection points: 2
#     Edge 51, Type (0, 1), BuildingBlock: UVAHIK_clean_linker_0, # of connection points: 2
#     Edge 52, Type (0, 1), BuildingBlock: UVAHIK_clean_linker_0, # of connection points: 2
#     Edge 53, Type (0, 1), BuildingBlock: UVAHIK_clean_linker_0, # of connection points: 2
#     Edge 54, Type (0, 1), BuildingBlock: UVAHIK_clean_linker_0, # of connection points: 2
#     Edge 55, Type (0, 1), BuildingBlock: UVAHIK_clean_linker_0, # of connection points: 2
#     Edge 56, Type (0, 1), BuildingBlock: UVAHIK_clean_linker_0, # of connection points: 2
#     Edge 57, Type (0, 1), BuildingBlock: UVAHIK_clean_linker_0, # of connection points: 2
#     Edge 58, Type (0, 1), BuildingBlock: UVAHIK_clean_linker_0, # of connection points: 2
#     Edge 59, Type (0, 1), BuildingBlock: UVAHIK_clean_linker_0, # of connection points: 2
#     Edge 60, Type (0, 1), BuildingBlock: UVAHIK_clean_linker_0, # of connection points: 2
#     Edge 61, Type (0, 1), BuildingBlock: UVAHIK_clean_linker_0, # of connection points: 2
#     Edge 62, Type (0, 1), BuildingBlock: UVAHIK_clean_linker_0, # of connection points: 2
#     Edge 63, Type (0, 1), BuildingBlock: UVAHIK_clean_linker_0, # of connection points: 2
#     Edge 64, Type (0, 1), BuildingBlock: UVAHIK_clean_linker_0, # of connection points: 2
#     Edge 65, Type (0, 1), BuildingBlock: UVAHIK_clean_linker_0, # of connection points: 2
#     Edge 66, Type (0, 1), BuildingBlock: UVAHIK_clean_linker_0, # of connection points: 2
#     Edge 67, Type (0, 1), BuildingBlock: UVAHIK_clean_linker_0, # of connection points: 2
#     Edge 68, Type (0, 1), BuildingBlock: UVAHIK_clean_linker_0, # of connection points: 2
#     Edge 69, Type (0, 1), BuildingBlock: UVAHIK_clean_linker_0, # of connection points: 2
#     Edge 70, Type (0, 1), BuildingBlock: UVAHIK_clean_linker_0, # of connection points: 2
#     Edge 71, Type (0, 1), BuildingBlock: UVAHIK_clean_linker_0, # of connection points: 2
#     Edge 72, Type (0, 1), BuildingBlock: UVAHIK_clean_linker_0, # of connection points: 2
#     Edge 73, Type (0, 1), BuildingBlock: UVAHIK_clean_linker_0, # of connection points: 2
#     Edge 74, Type (0, 1), BuildingBlock: UVAHIK_clean_linker_0, # of connection points: 2
#     Edge 75, Type (0, 1), BuildingBlock: UVAHIK_clean_linker_0, # of connection points: 2
#     Edge 76, Type (0, 1), BuildingBlock: UVAHIK_clean_linker_0, # of connection points: 2
#     Edge 77, Type (0, 1), BuildingBlock: UVAHIK_clean_linker_0, # of connection points: 2
#     Edge 78, Type (0, 1), BuildingBlock: UVAHIK_clean_linker_0, # of connection points: 2
#     Edge 79, Type (0, 1), BuildingBlock: UVAHIK_clean_linker_0, # of connection points: 2
#     Edge 80, Type (0, 1), BuildingBlock: UVAHIK_clean_linker_0, # of connection points: 2
#     Edge 81, Type (0, 1), BuildingBlock: UVAHIK_clean_linker_0, # of connection points: 2
#     Edge 82, Type (0, 1), BuildingBlock: UVAHIK_clean_linker_0, # of connection points: 2
#     Edge 83, Type (0, 1), BuildingBlock: UVAHIK_clean_linker_0, # of connection points: 2
#     Edge 84, Type (0, 1), BuildingBlock: UVAHIK_clean_linker_0, # of connection points: 2
#     Edge 85, Type (0, 1), BuildingBlock: UVAHIK_clean_linker_0, # of connection points: 2
#     Edge 86, Type (0, 1), BuildingBlock: UVAHIK_clean_linker_0, # of connection points: 2
#     Edge 87, Type (0, 1), BuildingBlock: UVAHIK_clean_linker_0, # of connection points: 2
#     Edge 88, Type (0, 1), BuildingBlock: UVAHIK_clean_linker_0, # of connection points: 2
#     Edge 89, Type (0, 1), BuildingBlock: UVAHIK_clean_linker_0, # of connection points: 2
#     Edge 90, Type (0, 1), BuildingBlock: UVAHIK_clean_linker_0, # of connection points: 2
#     Edge 91, Type (0, 1), BuildingBlock: UVAHIK_clean_linker_0, # of connection points: 2
#     Edge 92, Type (0, 1), BuildingBlock: UVAHIK_clean_linker_0, # of connection points: 2
#     Edge 93, Type (0, 1), BuildingBlock: UVAHIK_clean_linker_0, # of connection points: 2
#     Edge 94, Type (0, 1), BuildingBlock: UVAHIK_clean_linker_0, # of connection points: 2
#     Edge 95, Type (0, 1), BuildingBlock: UVAHIK_clean_linker_0, # of connection points: 2
#     Edge 96, Type (0, 1), BuildingBlock: UVAHIK_clean_linker_0, # of connection points: 2
#     Edge 97, Type (0, 1), BuildingBlock: UVAHIK_clean_linker_0, # of connection points: 2
#     Edge 98, Type (0, 1), BuildingBlock: UVAHIK_clean_linker_0, # of connection points: 2
#     Edge 99, Type (0, 1), BuildingBlock: UVAHIK_clean_linker_0, # of connection points: 2
#     Edge 100, Type (0, 1), BuildingBlock: UVAHIK_clean_linker_0, # of connection points: 2
#     Edge 101, Type (0, 1), BuildingBlock: UVAHIK_clean_linker_0, # of connection points: 2
#     Edge 102, Type (0, 1), BuildingBlock: UVAHIK_clean_linker_0, # of connection points: 2
#     Edge 103, Type (0, 1), BuildingBlock: UVAHIK_clean_linker_0, # of connection points: 2
#     Edge 104, Type (0, 1), BuildingBlock: UVAHIK_clean_linker_0, # of connection points: 2
#     Edge 105, Type (0, 1), BuildingBlock: UVAHIK_clean_linker_0, # of connection points: 2
#     Edge 106, Type (0, 1), BuildingBlock: UVAHIK_clean_linker_0, # of connection points: 2
#     Edge 107, Type (0, 1), BuildingBlock: UVAHIK_clean_linker_0, # of connection points: 2
#     Edge 108, Type (0, 1), BuildingBlock: UVAHIK_clean_linker_0, # of connection points: 2
#     Edge 109, Type (0, 1), BuildingBlock: UVAHIK_clean_linker_0, # of connection points: 2
#     Edge 110, Type (0, 1), BuildingBlock: UVAHIK_clean_linker_0, # of connection points: 2
#     Edge 111, Type (0, 1), BuildingBlock: UVAHIK_clean_linker_0, # of connection points: 2
#     Edge 112, Type (0, 1), BuildingBlock: UVAHIK_clean_linker_0, # of connection points: 2
#     Edge 113, Type (0, 1), BuildingBlock: UVAHIK_clean_linker_0, # of connection points: 2
#     Edge 114, Type (0, 1), BuildingBlock: UVAHIK_clean_linker_0, # of connection points: 2
#     Edge 115, Type (0, 1), BuildingBlock: UVAHIK_clean_linker_0, # of connection points: 2
#     Edge 116, Type (0, 1), BuildingBlock: UVAHIK_clean_linker_0, # of connection points: 2
#     Edge 117, Type (0, 1), BuildingBlock: UVAHIK_clean_linker_0, # of connection points: 2
#     Edge 118, Type (0, 1), BuildingBlock: UVAHIK_clean_linker_0, # of connection points: 2
#     Edge 119, Type (0, 1), BuildingBlock: UVAHIK_clean_linker_0, # of connection points: 2
#     Edge 120, Type (0, 1), BuildingBlock: UVAHIK_clean_linker_0, # of connection points: 2
#     Edge 121, Type (0, 1), BuildingBlock: UVAHIK_clean_linker_0, # of connection points: 2
#     Edge 122, Type (0, 1), BuildingBlock: UVAHIK_clean_linker_0, # of connection points: 2
#     Edge 123, Type (0, 1), BuildingBlock: UVAHIK_clean_linker_0, # of connection points: 2
#     Edge 124, Type (0, 1), BuildingBlock: UVAHIK_clean_linker_0, # of connection points: 2
#     Edge 125, Type (0, 1), BuildingBlock: UVAHIK_clean_linker_0, # of connection points: 2
#     Edge 126, Type (0, 1), BuildingBlock: UVAHIK_clean_linker_0, # of connection points: 2
#     Edge 127, Type (0, 1), BuildingBlock: UVAHIK_clean_linker_0, # of connection points: 2
#     Edge 128, Type (0, 1), BuildingBlock: UVAHIK_clean_linker_0, # of connection points: 2
#     Edge 129, Type (0, 1), BuildingBlock: UVAHIK_clean_linker_0, # of connection points: 2
#     Edge 130, Type (0, 1), BuildingBlock: UVAHIK_clean_linker_0, # of connection points: 2
#     Edge 131, Type (0, 1), BuildingBlock: UVAHIK_clean_linker_0, # of connection points: 2
#     Edge 132, Type (0, 1), BuildingBlock: UVAHIK_clean_linker_0, # of connection points: 2
#     Edge 133, Type (0, 1), BuildingBlock: UVAHIK_clean_linker_0, # of connection points: 2
#     Edge 134, Type (0, 1), BuildingBlock: UVAHIK_clean_linker_0, # of connection points: 2
#     Edge 135, Type (0, 1), BuildingBlock: UVAHIK_clean_linker_0, # of connection points: 2
# Relax obj value: 0.180
# Max RMSD: 0.296
# Mean RMSD: 0.184
data_MOF--net-gar--node1-QUQFOY_clean_sbu_1--node2-BETFEN_clean_sbu_0--edge1-UVAHIK_clean_linker_0
_symmetry_space_group_name_H-M    P1
_symmetry_Int_Tables_number       1
_symmetry_cell_setting            triclinic
loop_
_symmetry_equiv_pos_as_xyz
'x, y, z'
_cell_length_a     81.014586
_cell_length_b     73.714276
_cell_length_c     74.040258
_cell_angle_alpha  94.987452
_cell_angle_beta   98.452515
_cell_angle_gamma 104.5175
loop_
_atom_site_label
_atom_site_type_symbol
_atom_site_fract_x
_atom_site_fract_y
_atom_site_fract_z
_atom_type_partial_charge
O0 O 0.02302 0.26887 0.41886 0.0
Cd1 Cd 0.02389 0.2885 0.40042 0.0
Cd2 Cd 0.01234 0.30648 0.43314 0.0
O3 O 0.01667 0.28213 0.44405 0.0
O4 O 0.03313 0.27676 0.38002 0.0
O5 O 0.04698 0.3044 0.39599 0.0
C6 C 0.04645 0.29117 0.38311 0.0
C7 C 0.01951 0.33704 0.45013 0.0
C8 C 0.02033 0.26828 0.43535 0.0
C9 C 0.98936 0.2978 0.39451 0.0
O10 O 0.99169 0.30303 0.41174 0.0
O11 O 1.00082 0.29216 0.38733 0.0
O12 O 0.00633 0.32388 0.45224 0.0
O13 O 0.02947 0.33259 0.43936 0.0
O14 O 0.04902 0.79213 0.6454 0.0
Cd15 Cd 0.05378 0.81735 0.66261 0.0
Cd16 Cd 0.06703 0.8313 0.6328 0.0
O17 O 0.05591 0.80349 0.62006 0.0
O18 O 0.04101 0.8105 0.68337 0.0
O19 O 0.03499 0.83069 0.6648 0.0
C20 C 0.03174 0.82176 0.67869 0.0
C21 C 0.06284 0.85886 0.6207 0.0
C22 C 0.05051 0.78941 0.62856 0.0
C23 C 0.09224 0.83313 0.6675 0.0
O24 O 0.09017 0.83433 0.65032 0.0
O25 O 0.07923 0.82843 0.6755 0.0
O26 O 0.07176 0.8488 0.61353 0.0
O27 O 0.05564 0.85289 0.63432 0.0
O28 O 0.552 0.79821 0.9152 0.0
Cd29 Cd 0.53502 0.79534 0.93398 0.0
Cd30 Cd 0.5141 0.8057 0.90295 0.0
O31 O 0.5336 0.79948 0.89037 0.0
O32 O 0.54314 0.77978 0.95286 0.0
O33 O 0.51896 0.76889 0.93264 0.0
C34 C 0.52988 0.76587 0.94585 0.0
C35 C 0.48742 0.80227 0.88378 0.0
C36 C 0.54841 0.79831 0.89787 0.0
C37 C 0.52624 0.83278 0.93947 0.0
O38 O 0.51969 0.82925 0.92245 0.0
O39 O 0.5322 0.82053 0.94753 0.0
O40 O 0.50093 0.81553 0.88296 0.0
O41 O 0.48906 0.79017 0.89504 0.0
O42 O 0.5512 0.28236 0.14266 0.0
Cd43 Cd 0.55534 0.30648 0.16117 0.0
Cd44 Cd 0.57162 0.32272 0.13342 0.0
O45 O 0.56252 0.29482 0.11967 0.0
O46 O 0.54039 0.29833 0.17993 0.0
O47 O 0.53706 0.32064 0.16285 0.0
C48 C 0.53214 0.31057 0.17549 0.0
C49 C 0.56734 0.35043 0.12128 0.0
C50 C 0.55517 0.28034 0.12673 0.0
C51 C 0.59393 0.32298 0.17025 0.0
O52 O 0.59326 0.32662 0.1537 0.0
O53 O 0.5801 0.31593 0.17626 0.0
O54 O 0.5784 0.34207 0.11609 0.0
O55 O 0.55806 0.34259 0.13274 0.0
O56 O 0.05298 0.79846 0.14316 0.0
Cd57 Cd 0.05706 0.82224 0.16169 0.0
Cd58 Cd 0.07055 0.83771 0.13238 0.0
O59 O 0.05995 0.81063 0.11826 0.0
O60 O 0.04326 0.81123 0.18037 0.0
O61 O 0.03683 0.83323 0.16448 0.0
C62 C 0.03287 0.82145 0.1761 0.0
C63 C 0.06454 0.86462 0.12031 0.0
C64 C 0.0544 0.79631 0.12631 0.0
C65 C 0.09557 0.83766 0.16743 0.0
O66 O 0.09353 0.83999 0.15046 0.0
O67 O 0.08252 0.8327 0.17539 0.0
O68 O 0.07479 0.85598 0.11367 0.0
O69 O 0.05761 0.858 0.13386 0.0
O70 O 0.54732 0.80465 0.41488 0.0
Cd71 Cd 0.53074 0.8006 0.43366 0.0
Cd72 Cd 0.51005 0.81238 0.40044 0.0
O73 O 0.53125 0.80842 0.38919 0.0
O74 O 0.54373 0.78981 0.45345 0.0
O75 O 0.51814 0.77408 0.43773 0.0
C76 C 0.5313 0.7745 0.4501 0.0
C77 C 0.48267 0.80826 0.38166 0.0
C78 C 0.54553 0.80691 0.39793 0.0
C79 C 0.52106 0.83726 0.43857 0.0
O80 O 0.51487 0.83436 0.42144 0.0
O81 O 0.52706 0.82501 0.44647 0.0
O82 O 0.49582 0.82194 0.38065 0.0
O83 O 0.4852 0.79611 0.39259 0.0
O84 O 0.55994 0.29515 0.64246 0.0
Cd85 Cd 0.56375 0.31765 0.6624 0.0
Cd86 Cd 0.57907 0.33602 0.63538 0.0
O87 O 0.56994 0.30952 0.61982 0.0
O88 O 0.54895 0.30541 0.67974 0.0
O89 O 0.54356 0.32868 0.66514 0.0
C90 C 0.53889 0.31607 0.67579 0.0
C91 C 0.57234 0.36275 0.62381 0.0
C92 C 0.56304 0.29447 0.62614 0.0
C93 C 0.60248 0.33406 0.67092 0.0
O94 O 0.60137 0.33862 0.65463 0.0
O95 O 0.58883 0.32703 0.67732 0.0
O96 O 0.58358 0.35529 0.61768 0.0
O97 O 0.56492 0.35514 0.63666 0.0
O98 O 0.02358 0.27242 0.92184 0.0
Cd99 Cd 0.02381 0.29386 0.90492 0.0
Cd100 Cd 0.01226 0.3087 0.93453 0.0
O101 O 0.01918 0.28706 0.94721 0.0
O102 O 0.0365 0.28676 0.88535 0.0
O103 O 0.0471 0.31265 0.90521 0.0
C104 C 0.04907 0.30157 0.89165 0.0
C105 C 0.02189 0.33995 0.94836 0.0
C106 C 0.02252 0.27293 0.93888 0.0
C107 C 0.98783 0.30021 0.89852 0.0
O108 O 0.98932 0.3027 0.91595 0.0
O109 O 1.00057 0.29791 0.89116 0.0
O110 O 0.01007 0.32781 0.95416 0.0
O111 O 0.02885 0.33427 0.93508 0.0
O112 O 0.45271 0.14409 0.28056 0.0
Cd113 Cd 0.43992 0.14814 0.30207 0.0
Cd114 Cd 0.46733 0.13648 0.31617 0.0
O115 O 0.47893 0.14757 0.29558 0.0
O116 O 0.41939 0.15198 0.2866 0.0
O117 O 0.43529 0.17326 0.30942 0.0
C118 C 0.42222 0.16817 0.29612 0.0
C119 C 0.48272 0.13583 0.34488 0.0
C120 C 0.46865 0.14563 0.28046 0.0
C121 C 0.4329 0.10978 0.30973 0.0
O122 O 0.44849 0.11157 0.3079 0.0
O123 O 0.42752 0.12437 0.31213 0.0
O124 O 0.48502 0.12671 0.33026 0.0
O125 O 0.47261 0.14685 0.34305 0.0
O126 O 0.29241 0.20737 0.54971 0.0
Cd127 Cd 0.28818 0.18659 0.52781 0.0
Cd128 Cd 0.2753 0.2151 0.51073 0.0
O129 O 0.28557 0.23092 0.53659 0.0
O130 O 0.3008 0.1691 0.53949 0.0
O131 O 0.30881 0.1836 0.51618 0.0
C132 C 0.31181 0.17295 0.52855 0.0
C133 C 0.28027 0.22762 0.48279 0.0
C134 C 0.29101 0.2242 0.55091 0.0
C135 C 0.24953 0.17782 0.51446 0.0
O136 O 0.25218 0.19474 0.5106 0.0
O137 O 0.26224 0.1711 0.51978 0.0
O138 O 0.27044 0.23329 0.49296 0.0
O139 O 0.28761 0.21501 0.48855 0.0
O140 O 0.1727 0.06685 0.81012 0.0
Cd141 Cd 0.18786 0.06942 0.83552 0.0
Cd142 Cd 0.16058 0.07201 0.84372 0.0
O143 O 0.14904 0.05409 0.82031 0.0
O144 O 0.20616 0.05909 0.82837 0.0
O145 O 0.18701 0.04476 0.84485 0.0
C146 C 0.19888 0.04413 0.83507 0.0
C147 C 0.14881 0.06965 0.86973 0.0
C148 C 0.157 0.05722 0.80695 0.0
C149 C 0.18877 0.10674 0.84568 0.0
O150 O 0.17265 0.09929 0.84082 0.0
O151 O 0.19881 0.0962 0.84864 0.0
O152 O 0.14176 0.07598 0.85576 0.0
O153 O 0.1623 0.06355 0.86859 0.0
O154 O 0.28996 0.91876 0.06242 0.0
Cd155 Cd 0.28993 0.93893 0.04512 0.0
Cd156 Cd 0.3007 0.90774 0.02337 0.0
O157 O 0.29545 0.89445 0.04699 0.0
O158 O 0.2816 0.95762 0.06042 0.0
O159 O 0.26745 0.94364 0.03304 0.0
C160 C 0.2683 0.95498 0.04767 0.0
C161 C 0.29419 0.89277 0.99231 0.0
C162 C 0.29225 0.9023 0.06171 0.0
C163 C 0.32557 0.94765 0.03486 0.0
O164 O 0.32249 0.9305 0.0278 0.0
O165 O 0.31418 0.95387 0.04162 0.0
O166 O 0.30545 0.88886 0.00449 0.0
O167 O 0.28569 0.90419 0.99794 0.0
O168 O 0.30028 0.41776 0.07493 0.0
Cd169 Cd 0.30229 0.43551 0.05435 0.0
Cd170 Cd 0.30958 0.40417 0.03626 0.0
O171 O 0.30182 0.39166 0.05906 0.0
O172 O 0.2909 0.4555 0.06219 0.0
O173 O 0.28021 0.43534 0.03692 0.0
C174 C 0.27875 0.44913 0.04807 0.0
C175 C 0.30015 0.38852 0.00603 0.0
C176 C 0.29963 0.40024 0.07387 0.0
C177 C 0.33816 0.44097 0.04422 0.0
O178 O 0.33383 0.42318 0.03949 0.0
O179 O 0.32722 0.44903 0.04972 0.0
O180 O 0.31065 0.3831 0.01785 0.0
O181 O 0.29413 0.40227 0.01163 0.0
O182 O 0.78656 0.20411 0.05031 0.0
Cd183 Cd 0.78279 0.18602 0.02588 0.0
Cd184 Cd 0.76911 0.2136 0.01284 0.0
O185 O 0.77833 0.22804 0.03945 0.0
O186 O 0.79716 0.16819 0.03201 0.0
O187 O 0.80167 0.1867 0.01039 0.0
C188 C 0.80602 0.17397 0.01953 0.0
C189 C 0.77389 0.22633 0.98541 0.0
C190 C 0.78411 0.22048 0.05303 0.0
C191 C 0.74465 0.175 0.01248 0.0
O192 O 0.74655 0.19233 0.01058 0.0
O193 O 0.75779 0.1689 0.01725 0.0
O194 O 0.76281 0.23058 0.99471 0.0
O195 O 0.78301 0.2156 0.99209 0.0
O196 O 0.13774 0.4843 0.23738 0.0
Cd197 Cd 0.15116 0.4839 0.26322 0.0
Cd198 Cd 0.12355 0.49076 0.2699 0.0
O199 O 0.11181 0.47662 0.24452 0.0
O200 O 0.17092 0.47498 0.25729 0.0
O201 O 0.15211 0.45974 0.27336 0.0
C202 C 0.16578 0.46084 0.26601 0.0
C203 C 0.11156 0.48981 0.29623 0.0
C204 C 0.12141 0.47953 0.23242 0.0
C205 C 0.15472 0.52234 0.27634 0.0
O206 O 0.13869 0.51758 0.26968 0.0
O207 O 0.16266 0.50971 0.27852 0.0
O208 O 0.12418 0.48224 0.2949 0.0
O209 O 0.10477 0.49583 0.28188 0.0
O210 O 0.80393 0.92007 0.58224 0.0
Cd211 Cd 0.80513 0.93611 0.56032 0.0
Cd212 Cd 0.8118 0.90489 0.54365 0.0
O213 O 0.80339 0.89301 0.56661 0.0
O214 O 0.79308 0.95607 0.56618 0.0
O215 O 0.78283 0.93377 0.54245 0.0
C216 C 0.78101 0.94827 0.55229 0.0
C217 C 0.8007 0.89064 0.51317 0.0
C218 C 0.80225 0.90235 0.58148 0.0
C219 C 0.84065 0.94108 0.54981 0.0
O220 O 0.83655 0.92312 0.5465 0.0
O221 O 0.82955 0.94936 0.55445 0.0
O222 O 0.81064 0.88367 0.52418 0.0
O223 O 0.79618 0.90513 0.51974 0.0
O224 O 0.90376 0.04436 0.1858 0.0
Cd225 Cd 0.88684 0.04117 0.20424 0.0
Cd226 Cd 0.9125 0.0356 0.22616 0.0
O227 O 0.92609 0.04885 0.20828 0.0
O228 O 0.8727 0.0596 0.20244 0.0
O229 O 0.89436 0.06147 0.22533 0.0
C230 C 0.88247 0.06851 0.21764 0.0
C231 C 0.92526 0.04142 0.2568 0.0
C232 C 0.91999 0.04911 0.19159 0.0
C233 C 0.8829 0.00295 0.214 0.0
O234 O 0.8992 0.00844 0.21809 0.0
O235 O 0.87423 0.01463 0.20983 0.0
O236 O 0.93088 0.03191 0.24483 0.0
O237 O 0.91236 0.04803 0.25133 0.0
O238 O 0.28739 0.70345 0.54576 0.0
Cd239 Cd 0.28332 0.6844 0.52209 0.0
Cd240 Cd 0.26908 0.71192 0.50765 0.0
O241 O 0.27816 0.72655 0.53425 0.0
O242 O 0.2973 0.66647 0.52951 0.0
O243 O 0.30234 0.68358 0.50699 0.0
C244 C 0.30642 0.67133 0.51701 0.0
C245 C 0.27278 0.72555 0.48023 0.0
C246 C 0.28442 0.7196 0.54804 0.0
C247 C 0.24487 0.67337 0.50903 0.0
O248 O 0.24675 0.69033 0.50567 0.0
O249 O 0.25803 0.66759 0.51465 0.0
O250 O 0.26204 0.72929 0.49029 0.0
O251 O 0.28216 0.71474 0.48617 0.0
O252 O 0.40475 0.54581 0.69076 0.0
Cd253 Cd 0.38829 0.54283 0.70966 0.0
Cd254 Cd 0.41366 0.53594 0.72985 0.0
O255 O 0.42695 0.55257 0.71347 0.0
O256 O 0.37371 0.56061 0.70728 0.0
O257 O 0.39531 0.56346 0.73056 0.0
C258 C 0.38314 0.56992 0.72249 0.0
C259 C 0.42596 0.54003 0.76051 0.0
C260 C 0.42085 0.55262 0.69674 0.0
C261 C 0.38357 0.50428 0.71732 0.0
O262 O 0.39993 0.50886 0.71982 0.0
O263 O 0.37546 0.51679 0.71531 0.0
O264 O 0.43194 0.53151 0.74809 0.0
O265 O 0.41283 0.54648 0.7555 0.0
O266 O 0.63286 0.98268 0.73144 0.0
Cd267 Cd 0.64732 0.98375 0.75707 0.0
Cd268 Cd 0.62113 0.99223 0.76557 0.0
O269 O 0.6078 0.97891 0.74059 0.0
O270 O 0.6663 0.97347 0.75103 0.0
O271 O 0.64811 0.96044 0.76884 0.0
C272 C 0.66133 0.96037 0.76101 0.0
C273 C 0.61157 0.98913 0.7931 0.0
C274 C 0.61651 0.97948 0.72767 0.0
C275 C 0.65234 0.0231 0.77064 0.0
O276 O 0.63609 0.01913 0.76545 0.0
O277 O 0.65986 0.00998 0.77124 0.0
O278 O 0.62405 0.98208 0.78969 0.0
O279 O 0.60367 0.99608 0.78014 0.0
O280 O 0.79059 0.71279 0.05613 0.0
Cd281 Cd 0.7873 0.69207 0.03436 0.0
Cd282 Cd 0.77314 0.71975 0.01667 0.0
O283 O 0.78263 0.73558 0.04261 0.0
O284 O 0.80026 0.67492 0.04622 0.0
O285 O 0.80843 0.68995 0.02328 0.0
C286 C 0.81144 0.67919 0.03553 0.0
C287 C 0.77849 0.73273 0.98904 0.0
C288 C 0.78837 0.72928 0.05707 0.0
C289 C 0.74857 0.68161 0.02001 0.0
O290 O 0.75049 0.69846 0.0161 0.0
O291 O 0.76171 0.67571 0.0257 0.0
O292 O 0.76826 0.738 0.99892 0.0
O293 O 0.78594 0.72022 0.99485 0.0
O294 O 0.95262 0.6491 0.78718 0.0
Cd295 Cd 0.93887 0.65251 0.8079 0.0
Cd296 Cd 0.96595 0.63972 0.82416 0.0
O297 O 0.97777 0.64883 0.80286 0.0
O298 O 0.91921 0.65769 0.79199 0.0
O299 O 0.93418 0.67737 0.81635 0.0
C300 C 0.92159 0.67317 0.80254 0.0
C301 C 0.9817 0.63925 0.85288 0.0
C302 C 0.96825 0.64874 0.78761 0.0
C303 C 0.93062 0.61357 0.81597 0.0
O304 O 0.94666 0.61509 0.81712 0.0
O305 O 0.92504 0.62813 0.8156 0.0
O306 O 0.98333 0.62949 0.83832 0.0
O307 O 0.97213 0.6508 0.85096 0.0
O308 O 0.79257 0.4165 0.56762 0.0
Cd309 Cd 0.79149 0.43592 0.54939 0.0
Cd310 Cd 0.80338 0.40516 0.5292 0.0
O311 O 0.79762 0.39181 0.55237 0.0
O312 O 0.78339 0.45487 0.56464 0.0
O313 O 0.76841 0.43981 0.53798 0.0
C314 C 0.76965 0.45163 0.55237 0.0
C315 C 0.79729 0.39022 0.49822 0.0
C316 C 0.79474 0.39997 0.56708 0.0
C317 C 0.82742 0.44522 0.53976 0.0
O318 O 0.82527 0.42772 0.53463 0.0
O319 O 0.8151 0.4514 0.54439 0.0
O320 O 0.8083 0.3862 0.51059 0.0
O321 O 0.78889 0.40188 0.50356 0.0
O322 O 0.67421 0.57155 0.31671 0.0
Cd323 Cd 0.69038 0.56972 0.3401 0.0
Cd324 Cd 0.66491 0.57421 0.35229 0.0
O325 O 0.65098 0.55936 0.32789 0.0
O326 O 0.70651 0.55836 0.32904 0.0
O327 O 0.68904 0.54379 0.34691 0.0
C328 C 0.69986 0.54322 0.33579 0.0
C329 C 0.653 0.57068 0.37826 0.0
C330 C 0.65812 0.56361 0.31419 0.0
C331 C 0.69579 0.60695 0.35466 0.0
O332 O 0.67938 0.60133 0.35171 0.0
O333 O 0.70446 0.59484 0.35468 0.0
O334 O 0.64733 0.57963 0.36562 0.0
O335 O 0.66526 0.56289 0.37584 0.0
Pr336 Pr 0.02306 0.06621 0.03207 0.0
Pr337 Pr 0.06412 0.08178 0.04653 0.0
C338 C 0.98866 0.06263 0.02485 0.0
C339 C 0.97656 0.07464 0.02135 0.0
C340 C 0.96527 0.07172 0.00437 0.0
C341 C 0.95275 0.08183 0.00153 0.0
C342 C 0.95114 0.09491 0.01572 0.0
C343 C 0.96289 0.09834 0.03243 0.0
C344 C 0.97545 0.08838 0.03521 0.0
C345 C 0.04422 0.0627 0.007 0.0
C346 C 0.04407 0.11237 0.0313 0.0
C347 C 0.09837 0.0848 0.05166 0.0
C348 C 0.10987 0.0722 0.05496 0.0
C349 C 0.12529 0.07847 0.06788 0.0
C350 C 0.13694 0.06727 0.07007 0.0
C351 C 0.13344 0.0496 0.05928 0.0
C352 C 0.11761 0.04304 0.04692 0.0
C353 C 0.10595 0.05417 0.04481 0.0
C354 C 0.04308 0.08467 0.07212 0.0
C355 C 0.04306 0.0355 0.04741 0.0
O356 O 0.99756 0.06479 0.04151 0.0
O357 O 0.99756 0.05968 0.012 0.0
O358 O 0.04634 0.07678 0.01873 0.0
O359 O 0.0301 0.04955 0.00713 0.0
O360 O 0.05938 0.10878 0.03464 0.0
O361 O 0.02949 0.09954 0.03223 0.0
O362 O 0.08858 0.08191 0.03537 0.0
O363 O 0.0905 0.0889 0.06509 0.0
O364 O 0.04091 0.07114 0.05974 0.0
O365 O 0.05766 0.09746 0.07274 0.0
O366 O 0.02767 0.03892 0.04369 0.0
O367 O 0.05767 0.04854 0.04704 0.0
H368 H 0.96583 0.06123 0.99344 0.0
H369 H 0.94387 0.07882 0.98853 0.0
H370 H 0.96218 0.10855 0.04353 0.0
H371 H 0.98401 0.09118 0.04841 0.0
H372 H 0.12853 0.09226 0.07595 0.0
H373 H 0.149 0.0728 0.07968 0.0
H374 H 0.11431 0.02935 0.03867 0.0
H375 H 0.09402 0.04881 0.03495 0.0
Pr376 Pr 0.29651 0.83827 0.28415 0.0
Pr377 Pr 0.27935 0.79514 0.26075 0.0
C378 C 0.31894 0.8702 0.30104 0.0
C379 C 0.32253 0.88946 0.29629 0.0
C380 C 0.30909 0.89654 0.28804 0.0
C381 C 0.31289 0.91412 0.28166 0.0
C382 C 0.33017 0.92464 0.28317 0.0
C383 C 0.34354 0.91746 0.29143 0.0
C384 C 0.33974 0.9 0.29795 0.0
C385 C 0.26195 0.83357 0.26722 0.0
C386 C 0.2956 0.8314 0.2383 0.0
C387 C 0.25706 0.76385 0.2422 0.0
C388 C 0.25157 0.74415 0.24569 0.0
C389 C 0.26357 0.73351 0.24951 0.0
C390 C 0.25812 0.71537 0.25442 0.0
C391 C 0.24067 0.70772 0.25554 0.0
C392 C 0.22875 0.71839 0.25167 0.0
C393 C 0.23415 0.73641 0.24671 0.0
C394 C 0.3134 0.79979 0.27948 0.0
C395 C 0.28083 0.80152 0.30645 0.0
O396 O 0.32322 0.85822 0.28967 0.0
O397 O 0.30393 0.86348 0.3061 0.0
O398 O 0.27085 0.82182 0.26668 0.0
O399 O 0.27115 0.84886 0.27781 0.0
O400 O 0.28672 0.81351 0.23739 0.0
O401 O 0.30138 0.84295 0.25401 0.0
O402 O 0.25236 0.77597 0.25305 0.0
O403 O 0.27286 0.76999 0.23885 0.0
O404 O 0.30474 0.81171 0.27808 0.0
O405 O 0.30404 0.78383 0.27011 0.0
O406 O 0.29083 0.81902 0.30748 0.0
O407 O 0.27352 0.79071 0.29055 0.0
H408 H 0.29569 0.88838 0.28625 0.0
H409 H 0.30237 0.91939 0.27536 0.0
H410 H 0.35697 0.92547 0.29311 0.0
H411 H 0.35024 0.89458 0.304 0.0
H412 H 0.27715 0.73926 0.24901 0.0
H413 H 0.2675 0.70733 0.25728 0.0
H414 H 0.21527 0.71291 0.25278 0.0
H415 H 0.22477 0.74449 0.24408 0.0
Pr416 Pr 0.56851 0.06802 0.54189 0.0
Pr417 Pr 0.52882 0.06166 0.54217 0.0
C418 C 0.60127 0.06497 0.54352 0.0
C419 C 0.61167 0.05154 0.53947 0.0
C420 C 0.62066 0.05337 0.52457 0.0
C421 C 0.63202 0.04231 0.52166 0.0
C422 C 0.63492 0.0292 0.53369 0.0
C423 C 0.6254 0.02686 0.54821 0.0
C424 C 0.61394 0.03788 0.55107 0.0
C425 C 0.54984 0.07929 0.51259 0.0
C426 C 0.54046 0.02573 0.52562 0.0
C427 C 0.49589 0.06427 0.5394 0.0
C428 C 0.48545 0.07755 0.54344 0.0
C429 C 0.47115 0.07154 0.55217 0.0
C430 C 0.45996 0.08296 0.55444 0.0
C431 C 0.46276 0.10069 0.54796 0.0
C432 C 0.47754 0.10703 0.53989 0.0
C433 C 0.48877 0.0956 0.53767 0.0
C434 C 0.54734 0.05045 0.57152 0.0
C435 C 0.5569 0.10415 0.55861 0.0
O436 O 0.59294 0.06298 0.55743 0.0
O437 O 0.59283 0.07047 0.52951 0.0
O438 O 0.54486 0.06411 0.51922 0.0
O439 O 0.56528 0.08903 0.52057 0.0
O440 O 0.52743 0.03357 0.5243 0.0
O441 O 0.5563 0.0352 0.53381 0.0
O442 O 0.50502 0.06735 0.52623 0.0
O443 O 0.50366 0.05801 0.55335 0.0
O444 O 0.55242 0.06561 0.5649 0.0
O445 O 0.53201 0.04053 0.56334 0.0
O446 O 0.57036 0.09712 0.55834 0.0
O447 O 0.54082 0.09413 0.55196 0.0
H448 H 0.61925 0.06376 0.51538 0.0
H449 H 0.63877 0.0443 0.5101 0.0
H450 H 0.62731 0.01707 0.55789 0.0
H451 H 0.60728 0.03608 0.56271 0.0
H452 H 0.4683 0.05769 0.55674 0.0
H453 H 0.44867 0.07748 0.56056 0.0
H454 H 0.4803 0.12072 0.53503 0.0
H455 H 0.4998 0.10072 0.53105 0.0
Pr456 Pr 0.27152 0.3009 0.77478 0.0
Pr457 Pr 0.31097 0.30149 0.78247 0.0
C458 C 0.23799 0.29865 0.77653 0.0
C459 C 0.22672 0.30217 0.78987 0.0
C460 C 0.22066 0.31848 0.79011 0.0
C461 C 0.20875 0.32111 0.80137 0.0
C462 C 0.20245 0.3074 0.81254 0.0
C463 C 0.20897 0.2914 0.81278 0.0
C464 C 0.22094 0.28881 0.80159 0.0
C465 C 0.29491 0.33289 0.76813 0.0
C466 C 0.29485 0.31496 0.81751 0.0
C467 C 0.3448 0.30651 0.78079 0.0
C468 C 0.35599 0.3015 0.76816 0.0
C469 C 0.36949 0.29381 0.77492 0.0
C470 C 0.38116 0.29038 0.76373 0.0
C471 C 0.37962 0.29466 0.7455 0.0
C472 C 0.36564 0.30165 0.73851 0.0
C473 C 0.35392 0.305 0.7497 0.0
C474 C 0.28859 0.26937 0.79008 0.0
C475 C 0.28711 0.28693 0.73953 0.0
O476 O 0.24467 0.28426 0.77786 0.0
O477 O 0.24856 0.3134 0.77197 0.0
O478 O 0.29676 0.32436 0.78191 0.0
O479 O 0.28022 0.32536 0.75719 0.0
O480 O 0.30941 0.3173 0.81079 0.0
O481 O 0.2796 0.30679 0.80708 0.0
O482 O 0.33619 0.31874 0.77608 0.0
O483 O 0.336 0.29283 0.78853 0.0
O484 O 0.2857 0.27769 0.77622 0.0
O485 O 0.30394 0.27682 0.7998 0.0
O486 O 0.27253 0.28675 0.74564 0.0
O487 O 0.30249 0.29283 0.75034 0.0
H488 H 0.22474 0.32899 0.78117 0.0
H489 H 0.2039 0.3335 0.80069 0.0
H490 H 0.20457 0.28067 0.8214 0.0
H491 H 0.22532 0.27609 0.80183 0.0
H492 H 0.37131 0.29093 0.78908 0.0
H493 H 0.39182 0.28515 0.76964 0.0
H494 H 0.36391 0.30481 0.72445 0.0
H495 H 0.34348 0.31069 0.74401 0.0
Pr496 Pr 0.03789 0.05152 0.50966 0.0
Pr497 Pr 0.04795 0.07775 0.55023 0.0
C498 C 0.0206 0.03073 0.47824 0.0
C499 C 0.01965 0.03578 0.45945 0.0
C500 C 0.03456 0.04041 0.45129 0.0
C501 C 0.03418 0.04891 0.43516 0.0
C502 C 0.01901 0.05314 0.4273 0.0
C503 C 0.00398 0.04779 0.43499 0.0
C504 C 0.00425 0.03902 0.45084 0.0
C505 C 0.07281 0.07271 0.51614 0.0
C506 C 0.03601 0.0971 0.5128 0.0
C507 C 0.06613 0.09934 0.58102 0.0
C508 C 0.07093 0.09457 0.59958 0.0
C509 C 0.06203 0.09863 0.61367 0.0
C510 C 0.06511 0.09207 0.63062 0.0
C511 C 0.07712 0.08139 0.63366 0.0
C512 C 0.08634 0.07778 0.61977 0.0
C513 C 0.08331 0.08433 0.60291 0.0
C514 C 0.01327 0.05545 0.54396 0.0
C515 C 0.04945 0.03233 0.54742 0.0
O516 O 0.0133 0.04017 0.48906 0.0
O517 O 0.03552 0.02875 0.48623 0.0
O518 O 0.06166 0.07276 0.52637 0.0
O519 O 0.06573 0.06068 0.50148 0.0
O520 O 0.04234 0.09956 0.53065 0.0
O521 O 0.03261 0.08054 0.50232 0.0
O522 O 0.07343 0.09274 0.56818 0.0
O523 O 0.04964 0.09792 0.57564 0.0
O524 O 0.02437 0.0561 0.53359 0.0
O525 O 0.02016 0.06754 0.55866 0.0
O526 O 0.04218 0.02962 0.52979 0.0
O527 O 0.05389 0.04914 0.55763 0.0
H528 H 0.04668 0.03816 0.45767 0.0
H529 H 0.04579 0.05266 0.42914 0.0
H530 H 0.992 0.05048 0.42876 0.0
H531 H 0.99262 0.03558 0.45687 0.0
H532 H 0.0524 0.10646 0.61143 0.0
H533 H 0.05792 0.09507 0.64123 0.0
H534 H 0.09599 0.06997 0.62198 0.0
H535 H 0.09047 0.08101 0.59239 0.0
Pr536 Pr 0.28208 0.78825 0.77038 0.0
Pr537 Pr 0.29722 0.83338 0.76604 0.0
C538 C 0.27547 0.75055 0.76585 0.0
C539 C 0.28732 0.73845 0.76586 0.0
C540 C 0.28459 0.72248 0.77519 0.0
C541 C 0.29655 0.71168 0.77634 0.0
C542 C 0.31128 0.71679 0.76811 0.0
C543 C 0.31417 0.73293 0.75909 0.0
C544 C 0.30237 0.74381 0.75812 0.0
C545 C 0.28329 0.81099 0.80357 0.0
C546 C 0.32495 0.80953 0.78047 0.0
C547 C 0.30423 0.87105 0.76948 0.0
C548 C 0.29223 0.88272 0.77091 0.0
C549 C 0.29458 0.89972 0.76323 0.0
C550 C 0.2821 0.90984 0.76322 0.0
C551 C 0.26724 0.90291 0.77086 0.0
C552 C 0.26472 0.88559 0.77794 0.0
C553 C 0.2771 0.87557 0.77796 0.0
C554 C 0.2951 0.81017 0.73287 0.0
C555 C 0.25441 0.81234 0.7571 0.0
O556 O 0.27427 0.7603 0.75194 0.0
O557 O 0.2765 0.76034 0.78175 0.0
O558 O 0.28761 0.8167 0.78885 0.0
O559 O 0.27736 0.79273 0.80083 0.0
O560 O 0.32251 0.82646 0.77897 0.0
O561 O 0.3123 0.79366 0.77629 0.0
O562 O 0.30716 0.8619 0.78353 0.0
O563 O 0.30132 0.86063 0.75357 0.0
O564 O 0.29144 0.8051 0.74795 0.0
O565 O 0.30081 0.82842 0.73498 0.0
O566 O 0.25693 0.79529 0.75708 0.0
O567 O 0.267 0.82817 0.76216 0.0
H568 H 0.27325 0.71842 0.7816 0.0
H569 H 0.29412 0.69914 0.78323 0.0
H570 H 0.3255 0.737 0.75265 0.0
H571 H 0.30503 0.75642 0.75137 0.0
H572 H 0.30598 0.90509 0.75724 0.0
H573 H 0.28424 0.92323 0.75775 0.0
H574 H 0.25323 0.87994 0.7837 0.0
H575 H 0.2748 0.86218 0.78342 0.0
Pr576 Pr 0.546 0.05246 0.05907 0.0
Pr577 Pr 0.53444 0.05767 0.01521 0.0
C578 C 0.55195 0.05654 0.09593 0.0
C579 C 0.54039 0.05475 0.10952 0.0
C580 C 0.54338 0.04498 0.12454 0.0
C581 C 0.53233 0.04306 0.13746 0.0
C582 C 0.5182 0.05104 0.13561 0.0
C583 C 0.51489 0.06015 0.12008 0.0
C584 C 0.52581 0.06186 0.10709 0.0
C585 C 0.54323 0.01905 0.03561 0.0
C586 C 0.50391 0.04165 0.0396 0.0
C587 C 0.52932 0.05439 0.97851 0.0
C588 C 0.54196 0.05944 0.96623 0.0
C589 C 0.53957 0.07153 0.95306 0.0
C590 C 0.5519 0.07686 0.9418 0.0
C591 C 0.56672 0.07002 0.94345 0.0
C592 C 0.56933 0.05851 0.9572 0.0
C593 C 0.55715 0.05339 0.96853 0.0
C594 C 0.53905 0.09155 0.0388 0.0
C595 C 0.57633 0.06851 0.03425 0.0
O596 O 0.55279 0.07091 0.08651 0.0
O597 O 0.55119 0.04078 0.08591 0.0
O598 O 0.5405 0.03432 0.03105 0.0
O599 O 0.54826 0.02121 0.05331 0.0
O600 O 0.50795 0.04349 0.02304 0.0
O601 O 0.51558 0.04586 0.055 0.0
O602 O 0.53035 0.04014 0.98762 0.0
O603 O 0.52684 0.06866 0.98851 0.0
O604 O 0.54044 0.07577 0.04316 0.0
O605 O 0.53488 0.08995 0.02102 0.0
O606 O 0.57258 0.06735 0.05103 0.0
O607 O 0.56457 0.06355 0.019 0.0
H608 H 0.55434 0.03897 0.12635 0.0
H609 H 0.53506 0.0357 0.14911 0.0
H610 H 0.5043 0.0667 0.1183 0.0
H611 H 0.523 0.06905 0.09533 0.0
H612 H 0.52815 0.07677 0.95144 0.0
H613 H 0.54963 0.08598 0.93154 0.0
H614 H 0.5804 0.05269 0.95872 0.0
H615 H 0.55958 0.04446 0.97893 0.0
Pr616 Pr 0.26747 0.29173 0.26874 0.0
Pr617 Pr 0.30376 0.31619 0.27654 0.0
C618 C 0.23385 0.27401 0.26855 0.0
C619 C 0.21887 0.27799 0.27569 0.0
C620 C 0.20205 0.26837 0.26682 0.0
C621 C 0.18767 0.27134 0.27382 0.0
C622 C 0.1898 0.28396 0.28994 0.0
C623 C 0.20675 0.29394 0.29854 0.0
C624 C 0.22113 0.29101 0.29146 0.0
C625 C 0.27886 0.30637 0.23749 0.0
C626 C 0.27476 0.33669 0.28456 0.0
C627 C 0.33746 0.33329 0.27646 0.0
C628 C 0.35236 0.32959 0.26868 0.0
C629 C 0.36756 0.32956 0.28057 0.0
C630 C 0.38206 0.32694 0.27353 0.0
C631 C 0.38173 0.32445 0.25442 0.0
C632 C 0.36638 0.32414 0.24253 0.0
C633 C 0.35186 0.32664 0.24956 0.0
C634 C 0.29247 0.30228 0.30802 0.0
C635 C 0.29649 0.27121 0.26178 0.0
O636 O 0.24664 0.2724 0.28072 0.0
O637 O 0.23908 0.28327 0.25529 0.0
O638 O 0.28136 0.31552 0.25333 0.0
O639 O 0.27041 0.28884 0.23741 0.0
O640 O 0.28979 0.3399 0.27897 0.0
O641 O 0.26565 0.31938 0.28544 0.0
O642 O 0.32465 0.33611 0.2651 0.0
O643 O 0.33226 0.32335 0.28932 0.0
O644 O 0.28987 0.29268 0.29234 0.0
O645 O 0.30098 0.3197 0.30771 0.0
O646 O 0.28176 0.26831 0.26786 0.0
O647 O 0.30511 0.28832 0.25965 0.0
H648 H 0.20003 0.25839 0.25454 0.0
H649 H 0.17486 0.26369 0.26658 0.0
H650 H 0.20897 0.30364 0.31104 0.0
H651 H 0.23402 0.29868 0.29849 0.0
H652 H 0.36832 0.33184 0.29536 0.0
H653 H 0.39369 0.3274 0.28308 0.0
H654 H 0.36559 0.32197 0.22774 0.0
H655 H 0.34032 0.32644 0.23999 0.0
Pr656 Pr 0.53977 0.54375 0.0119 0.0
Pr657 Pr 0.55047 0.57 0.0525 0.0
C658 C 0.52248 0.52318 0.98036 0.0
C659 C 0.52145 0.52837 0.9616 0.0
C660 C 0.5362 0.53247 0.95312 0.0
C661 C 0.53584 0.54107 0.93704 0.0
C662 C 0.52088 0.54594 0.92955 0.0
C663 C 0.50598 0.54109 0.93755 0.0
C664 C 0.50621 0.53221 0.95333 0.0
C665 C 0.57474 0.56517 0.01817 0.0
C666 C 0.53859 0.58949 0.01499 0.0
C667 C 0.56939 0.59156 0.08298 0.0
C668 C 0.57453 0.58728 0.10164 0.0
C669 C 0.56245 0.58286 0.11352 0.0
C670 C 0.56714 0.57652 0.13024 0.0
C671 C 0.58392 0.57452 0.13526 0.0
C672 C 0.59599 0.57918 0.12347 0.0
C673 C 0.59139 0.58567 0.10692 0.0
C674 C 0.51546 0.54886 0.04646 0.0
C675 C 0.55095 0.52419 0.0496 0.0
O676 O 0.51519 0.5325 0.9913 0.0
O677 O 0.53742 0.52119 0.98827 0.0
O678 O 0.56359 0.5649 0.02839 0.0
O679 O 0.5677 0.55311 0.00352 0.0
O680 O 0.54551 0.59198 0.03271 0.0
O681 O 0.53439 0.57276 0.00466 0.0
O682 O 0.57623 0.58402 0.07027 0.0
O683 O 0.553 0.59076 0.07771 0.0
O684 O 0.52637 0.54889 0.03591 0.0
O685 O 0.52283 0.56076 0.06118 0.0
O686 O 0.54334 0.5216 0.03209 0.0
O687 O 0.55613 0.54112 0.05966 0.0
H688 H 0.54818 0.52972 0.95922 0.0
H689 H 0.54734 0.54442 0.93078 0.0
H690 H 0.49415 0.54427 0.93161 0.0
H691 H 0.49469 0.52916 0.95957 0.0
H692 H 0.54933 0.58392 0.10979 0.0
H693 H 0.5577 0.57325 0.13924 0.0
H694 H 0.60895 0.57751 0.12691 0.0
H695 H 0.60089 0.58887 0.09797 0.0
Pr696 Pr 0.78737 0.28621 0.27622 0.0
Pr697 Pr 0.80049 0.33226 0.2737 0.0
C698 C 0.78271 0.24885 0.27022 0.0
C699 C 0.79489 0.23728 0.27433 0.0
C700 C 0.79296 0.22549 0.2882 0.0
C701 C 0.80488 0.21511 0.2927 0.0
C702 C 0.81885 0.21612 0.28321 0.0
C703 C 0.82091 0.22825 0.26958 0.0
C704 C 0.80914 0.23876 0.26525 0.0
C705 C 0.78898 0.30738 0.31049 0.0
C706 C 0.82955 0.30978 0.28822 0.0
C707 C 0.80555 0.36972 0.27867 0.0
C708 C 0.7931 0.38087 0.27477 0.0
C709 C 0.79768 0.39751 0.26674 0.0
C710 C 0.7858 0.40818 0.26334 0.0
C711 C 0.76922 0.40234 0.26801 0.0
C712 C 0.76441 0.38507 0.27506 0.0
C713 C 0.77622 0.37443 0.27838 0.0
C714 C 0.79799 0.31064 0.23937 0.0
C715 C 0.75813 0.309 0.26312 0.0
O716 O 0.78557 0.25982 0.25739 0.0
O717 O 0.77829 0.25699 0.28448 0.0
O718 O 0.79256 0.31371 0.29577 0.0
O719 O 0.78391 0.28906 0.30735 0.0
O720 O 0.82612 0.32636 0.28738 0.0
O721 O 0.81778 0.29334 0.28295 0.0
O722 O 0.80324 0.35929 0.29199 0.0
O723 O 0.80913 0.361 0.26422 0.0
O724 O 0.79507 0.30481 0.25441 0.0
O725 O 0.80294 0.32896 0.24208 0.0
O726 O 0.76151 0.29231 0.26327 0.0
O727 O 0.77014 0.32529 0.26828 0.0
H728 H 0.78222 0.22433 0.2956 0.0
H729 H 0.80301 0.2061 0.30343 0.0
H730 H 0.83126 0.22915 0.26168 0.0
H731 H 0.81117 0.2479 0.25464 0.0
H732 H 0.81051 0.40241 0.26343 0.0
H733 H 0.78977 0.42132 0.25765 0.0
H734 H 0.75186 0.38024 0.27906 0.0
H735 H 0.77227 0.36142 0.28427 0.0
Pr736 Pr 0.04385 0.5596 0.55957 0.0
Pr737 Pr 0.03271 0.56609 0.5203 0.0
C738 C 0.04779 0.55543 0.59553 0.0
C739 C 0.03697 0.55593 0.60965 0.0
C740 C 0.03915 0.54629 0.62492 0.0
C741 C 0.02892 0.54683 0.63848 0.0
C742 C 0.01639 0.5571 0.63695 0.0
C743 C 0.01387 0.56618 0.62123 0.0
C744 C 0.02404 0.56554 0.60766 0.0
C745 C 0.04351 0.52993 0.53315 0.0
C746 C 1.00153 0.55256 0.54309 0.0
C747 C 0.02771 0.56235 0.48347 0.0
C748 C 0.04006 0.56711 0.47082 0.0
C749 C 0.0369 0.57794 0.45672 0.0
C750 C 0.04851 0.58211 0.44448 0.0
C751 C 0.06336 0.57531 0.44607 0.0
C752 C 0.06686 0.56527 0.46083 0.0
C753 C 0.0554 0.56132 0.47312 0.0
C754 C 0.03734 0.60089 0.54199 0.0
C755 C 0.07459 0.57764 0.53762 0.0
O756 O 0.05394 0.57148 0.58947 0.0
O757 O 0.0419 0.5412 0.58245 0.0
O758 O 0.03179 0.53853 0.53322 0.0
O759 O 0.05627 0.53721 0.5467 0.0
O760 O 0.00523 0.5545 0.52654 0.0
O761 O 0.01377 0.55549 0.55778 0.0
O762 O 0.02914 0.54845 0.4929 0.0
O763 O 0.02507 0.57664 0.49326 0.0
O764 O 0.03966 0.58611 0.54824 0.0
O765 O 0.03237 0.59781 0.52432 0.0
O766 O 0.07056 0.57733 0.55423 0.0
O767 O 0.06267 0.57116 0.52278 0.0
H768 H 0.04888 0.53851 0.62644 0.0
H769 H 0.03099 0.53947 0.65029 0.0
H770 H 0.00453 0.57443 0.61971 0.0
H771 H 0.02202 0.57284 0.59578 0.0
H772 H 0.02534 0.58292 0.455 0.0
H773 H 0.04558 0.59017 0.43346 0.0
H774 H 0.07798 0.55955 0.46241 0.0
H775 H 0.05839 0.55329 0.48415 0.0
Pr776 Pr 0.768 0.80777 0.28061 0.0
Pr777 Pr 0.80659 0.80641 0.28778 0.0
C778 C 0.73492 0.80828 0.28136 0.0
C779 C 0.72268 0.80938 0.29421 0.0
C780 C 0.71871 0.82657 0.29868 0.0
C781 C 0.70593 0.82742 0.30929 0.0
C782 C 0.69666 0.81103 0.31544 0.0
C783 C 0.701 0.79398 0.31149 0.0
C784 C 0.71388 0.79315 0.30101 0.0
C785 C 0.79203 0.83878 0.27315 0.0
C786 C 0.79115 0.81976 0.32311 0.0
C787 C 0.84032 0.81008 0.28627 0.0
C788 C 0.85151 0.80555 0.2734 0.0
C789 C 0.86451 0.79688 0.27947 0.0
C790 C 0.87635 0.79413 0.2682 0.0
C791 C 0.87549 0.80007 0.25061 0.0
C792 C 0.86194 0.80799 0.24424 0.0
C793 C 0.85006 0.81067 0.25549 0.0
C794 C 0.78334 0.77469 0.29514 0.0
C795 C 0.7828 0.79306 0.24495 0.0
O796 O 0.73964 0.79264 0.27885 0.0
O797 O 0.74744 0.82347 0.28147 0.0
O798 O 0.79383 0.8305 0.28714 0.0
O799 O 0.7772 0.83138 0.26247 0.0
O800 O 0.80547 0.82261 0.31597 0.0
O801 O 0.77581 0.81124 0.31301 0.0
O802 O 0.83247 0.82318 0.28257 0.0
O803 O 0.83081 0.796 0.2929 0.0
O804 O 0.78067 0.78329 0.28146 0.0
O805 O 0.79878 0.7816 0.30483 0.0
O806 O 0.76842 0.79361 0.25119 0.0
O807 O 0.7982 0.79838 0.25568 0.0
H808 H 0.72515 0.8393 0.29351 0.0
H809 H 0.70275 0.84072 0.31198 0.0
H810 H 0.69417 0.78116 0.31623 0.0
H811 H 0.71659 0.77968 0.29785 0.0
H812 H 0.86586 0.79275 0.29319 0.0
H813 H 0.88665 0.78811 0.27364 0.0
H814 H 0.86069 0.81241 0.23065 0.0
H815 H 0.84002 0.81716 0.25032 0.0
Pr816 Pr 0.80083 0.33379 0.78793 0.0
Pr817 Pr 0.79143 0.29502 0.76699 0.0
C818 C 0.81528 0.36964 0.80313 0.0
C819 C 0.81911 0.38816 0.79634 0.0
C820 C 0.80795 0.39982 0.79777 0.0
C821 C 0.81213 0.41786 0.79248 0.0
C822 C 0.82762 0.42457 0.78586 0.0
C823 C 0.83834 0.41258 0.78354 0.0
C824 C 0.83415 0.39454 0.78879 0.0
C825 C 0.76607 0.32112 0.77115 0.0
C826 C 0.80612 0.32984 0.74372 0.0
C827 C 0.77198 0.26191 0.74883 0.0
C828 C 0.76657 0.2429 0.75411 0.0
C829 C 0.76913 0.22748 0.74351 0.0
C830 C 0.76368 0.20931 0.74829 0.0
C831 C 0.75559 0.20638 0.76374 0.0
C832 C 0.75353 0.22193 0.77464 0.0
C833 C 0.75903 0.24004 0.76992 0.0
C834 C 0.82476 0.29972 0.78717 0.0
C835 C 0.78913 0.29909 0.81147 0.0
O836 O 0.82432 0.35816 0.79837 0.0
O837 O 0.79897 0.36113 0.80274 0.0
O838 O 0.77885 0.31958 0.76376 0.0
O839 O 0.77109 0.32882 0.7882 0.0
O840 O 0.80045 0.31137 0.74306 0.0
O841 O 0.80767 0.34127 0.75903 0.0
O842 O 0.76545 0.27459 0.75648 0.0
O843 O 0.78841 0.26824 0.7479 0.0
O844 O 0.81628 0.31196 0.78751 0.0
O845 O 0.81627 0.28483 0.77577 0.0
O846 O 0.79925 0.31632 0.81258 0.0
O847 O 0.78204 0.28908 0.79525 0.0
H848 H 0.79622 0.39522 0.80343 0.0
H849 H 0.80361 0.42684 0.79425 0.0
H850 H 0.85046 0.41752 0.7787 0.0
H851 H 0.843 0.38586 0.78745 0.0
H852 H 0.77516 0.22948 0.73144 0.0
H853 H 0.76555 0.19752 0.73979 0.0
H854 H 0.74711 0.22005 0.78645 0.0
H855 H 0.7571 0.25173 0.77851 0.0
Pr856 Pr 0.76801 0.79952 0.7796 0.0
Pr857 Pr 0.80486 0.82406 0.78396 0.0
C858 C 0.73526 0.7822 0.78336 0.0
C859 C 0.71988 0.78632 0.78973 0.0
C860 C 0.70387 0.78131 0.77774 0.0
C861 C 0.68893 0.78384 0.78386 0.0
C862 C 0.6896 0.7913 0.80222 0.0
C863 C 0.70576 0.7966 0.8141 0.0
C864 C 0.72071 0.79421 0.80793 0.0
C865 C 0.77695 0.81326 0.74706 0.0
C866 C 0.77633 0.84516 0.79306 0.0
C867 C 0.83728 0.84175 0.7795 0.0
C868 C 0.85332 0.83787 0.7748 0.0
C869 C 0.86943 0.8484 0.78488 0.0
C870 C 0.88484 0.84621 0.77971 0.0
C871 C 0.88451 0.83352 0.76421 0.0
C872 C 0.8683 0.82258 0.75445 0.0
C873 C 0.85289 0.82469 0.7597 0.0
C874 C 0.79608 0.81084 0.81673 0.0
C875 C 0.79673 0.77796 0.77207 0.0
O876 O 0.74888 0.78358 0.79582 0.0
O877 O 0.73921 0.78815 0.76801 0.0
O878 O 0.78071 0.82265 0.76288 0.0
O879 O 0.76808 0.79599 0.74756 0.0
O880 O 0.79064 0.84761 0.78606 0.0
O881 O 0.76746 0.82821 0.79546 0.0
O882 O 0.82375 0.8377 0.76636 0.0
O883 O 0.83334 0.83808 0.79554 0.0
O884 O 0.79223 0.80118 0.801 0.0
O885 O 0.80508 0.82798 0.81596 0.0
O886 O 0.78201 0.77577 0.77817 0.0
O887 O 0.80602 0.79476 0.76977 0.0
H888 H 0.70286 0.77517 0.76365 0.0
H889 H 0.67686 0.7799 0.77416 0.0
H890 H 0.70687 0.8021 0.82839 0.0
H891 H 0.73283 0.79821 0.81757 0.0
H892 H 0.8701 0.85861 0.79659 0.0
H893 H 0.89702 0.85462 0.78781 0.0
H894 H 0.86744 0.81281 0.74234 0.0
H895 H 0.84064 0.81634 0.75167 0.0
Pr896 Pr 0.52468 0.56288 0.53859 0.0
Pr897 Pr 0.5658 0.57855 0.55252 0.0
C898 C 0.49031 0.55965 0.53282 0.0
C899 C 0.47802 0.57146 0.5289 0.0
C900 C 0.46844 0.57007 0.51111 0.0
C901 C 0.45578 0.57995 0.50781 0.0
C902 C 0.45226 0.59128 0.52228 0.0
C903 C 0.46226 0.59316 0.5399 0.0
C904 C 0.47493 0.58339 0.54318 0.0
C905 C 0.54543 0.55966 0.51296 0.0
C906 C 0.54565 0.60909 0.53745 0.0
C907 C 0.60013 0.58193 0.55768 0.0
C908 C 0.61182 0.56954 0.56094 0.0
C909 C 0.62753 0.57623 0.57336 0.0
C910 C 0.6393 0.56516 0.57554 0.0
C911 C 0.63561 0.54719 0.56526 0.0
C912 C 0.61952 0.54025 0.5534 0.0
C913 C 0.60775 0.55127 0.55128 0.0
C914 C 0.54505 0.58107 0.57853 0.0
C915 C 0.54515 0.53215 0.55285 0.0
O916 O 0.49997 0.56303 0.54921 0.0
O917 O 0.49845 0.55533 0.51971 0.0
O918 O 0.54772 0.57362 0.52492 0.0
O919 O 0.53123 0.54659 0.51306 0.0
O920 O 0.56103 0.6057 0.54107 0.0
O921 O 0.53109 0.59609 0.53802 0.0
O922 O 0.59035 0.57902 0.54138 0.0
O923 O 0.59216 0.58575 0.5711 0.0
O924 O 0.54279 0.56755 0.5661 0.0
O925 O 0.55943 0.59404 0.57884 0.0
O926 O 0.52969 0.53551 0.54976 0.0
O927 O 0.5596 0.5453 0.55223 0.0
H928 H 0.47044 0.56095 0.49981 0.0
H929 H 0.44828 0.57813 0.49409 0.0
H930 H 0.46012 0.60201 0.55131 0.0
H931 H 0.48202 0.5849 0.55706 0.0
H932 H 0.63089 0.59022 0.58105 0.0
H933 H 0.65156 0.57099 0.58476 0.0
H934 H 0.61608 0.52633 0.54555 0.0
H935 H 0.59561 0.5456 0.54182 0.0
Pr936 Pr 0.06596 0.56945 0.04986 0.0
Pr937 Pr 0.02649 0.56437 0.04965 0.0
C938 C 0.09851 0.56585 0.05048 0.0
C939 C 0.10895 0.55214 0.04758 0.0
C940 C 0.1163 0.55125 0.03154 0.0
C941 C 0.12779 0.5401 0.02948 0.0
C942 C 0.13241 0.52966 0.04351 0.0
C943 C 0.12457 0.53002 0.05927 0.0
C944 C 0.11302 0.54112 0.0613 0.0
C945 C 0.0479 0.58115 0.02031 0.0
C946 C 0.03766 0.5277 0.03393 0.0
C947 C 0.99386 0.56811 0.04567 0.0
C948 C 0.98307 0.58058 0.05099 0.0
C949 C 0.96831 0.5729 0.0585 0.0
C950 C 0.95643 0.58336 0.06112 0.0
C951 C 0.95913 0.60181 0.05643 0.0
C952 C 0.97442 0.60997 0.04997 0.0
C953 C 0.98627 0.59942 0.04718 0.0
C954 C 0.04347 0.55236 0.07965 0.0
C955 C 0.05529 0.60638 0.06633 0.0
O956 O 0.09122 0.56596 0.06516 0.0
O957 O 0.08909 0.56937 0.03599 0.0
O958 O 0.04263 0.56599 0.02686 0.0
O959 O 0.0632 0.5908 0.02873 0.0
O960 O 0.02504 0.53614 0.03165 0.0
O961 O 0.05326 0.53675 0.04303 0.0
O962 O 0.00444 0.57367 0.03424 0.0
O963 O 1.00006 0.55901 0.05826 0.0
O964 O 0.04973 0.56725 0.07294 0.0
O965 O 0.0277 0.54389 0.07159 0.0
O966 O 0.06854 0.59906 0.06573 0.0
O967 O 0.03905 0.5966 0.06024 0.0
H968 H 0.11359 0.55968 0.02077 0.0
H969 H 0.13366 0.54036 0.01724 0.0
H970 H 0.1276 0.52196 0.07025 0.0
H971 H 0.10765 0.54143 0.07384 0.0
H972 H 0.96556 0.55847 0.06163 0.0
H973 H 0.94479 0.57679 0.06622 0.0
H974 H 0.97674 0.62412 0.04613 0.0
H975 H 0.99756 0.60577 0.04142 0.0
C976 C 0.02861 0.24104 0.94005 0.0
C977 C 0.02528 0.25701 0.94909 0.0
C978 C 0.03122 0.22612 0.94968 0.0
C979 C 0.02357 0.20506 0.99278 0.0
H980 H 0.05661 0.17806 0.98054 0.0
C981 C 0.02663 0.13446 0.02036 0.0
C982 C 0.04281 0.13054 0.02445 0.0
C983 C 0.02506 0.15052 0.01213 0.0
C984 C 0.04745 0.18554 0.98431 0.0
H985 H 0.02228 0.26973 0.97552 0.0
H986 H 0.02703 0.24396 0.99228 0.0
H987 H 0.05308 0.2047 0.96448 0.0
H988 H 0.07013 0.14092 0.02337 0.0
H989 H 0.06744 0.16904 0.00935 0.0
H990 H 0.01817 0.18616 0.01285 0.0
C991 C 0.02735 0.24276 0.97766 0.0
C992 C 0.04524 0.20071 0.97488 0.0
C993 C 0.02471 0.25765 0.96804 0.0
C994 C 0.05745 0.14343 0.02049 0.0
C995 C 0.05588 0.15951 0.01224 0.0
C996 C 0.02579 0.18991 0.00222 0.0
C997 C 0.03061 0.22672 0.96864 0.0
C998 C 0.0332 0.21067 0.9789 0.0
C999 C 0.03961 0.16319 0.00773 0.0
C1000 C 0.03771 0.17984 0.99809 0.0
H1001 H 0.02913 0.23998 0.92548 0.0
H1002 H 0.03344 0.21395 0.94213 0.0
H1003 H 0.01403 0.21217 0.99619 0.0
H1004 H 0.01501 0.12488 0.02309 0.0
H1005 H 0.01228 0.15265 0.00871 0.0
C1006 C 0.11823 0.8445 0.19617 0.0
C1007 C 0.11305 0.83805 0.17725 0.0
C1008 C 0.1343 0.8435 0.20551 0.0
C1009 C 0.16662 0.81682 0.20589 0.0
H1010 H 0.19902 0.86223 0.23299 0.0
C1011 C 0.23668 0.81832 0.24147 0.0
C1012 C 0.24404 0.83129 0.25742 0.0
C1013 C 0.22048 0.81819 0.23137 0.0
C1014 C 0.19007 0.84926 0.22585 0.0
H1015 H 0.12043 0.82496 0.15345 0.0
H1016 H 0.1482 0.82261 0.16993 0.0
H1017 H 0.17124 0.86389 0.21658 0.0
H1018 H 0.23986 0.85356 0.27578 0.0
H1019 H 0.2116 0.85273 0.25901 0.0
H1020 H 0.18513 0.802 0.21562 0.0
C1021 C 0.14001 0.82883 0.1774 0.0
C1022 C 0.17415 0.85031 0.21631 0.0
C1023 C 0.1242 0.83037 0.16795 0.0
C1024 C 0.23461 0.8435 0.26345 0.0
C1025 C 0.21842 0.84317 0.25362 0.0
C1026 C 0.18246 0.81567 0.21576 0.0
C1027 C 0.14527 0.83543 0.19627 0.0
C1028 C 0.16222 0.83413 0.20627 0.0
C1029 C 0.21122 0.83089 0.23714 0.0
C1030 C 0.19441 0.83188 0.22604 0.0
H1031 H 0.10985 0.85033 0.20372 0.0
H1032 H 0.13802 0.84867 0.22006 0.0
H1033 H 0.15763 0.80409 0.19828 0.0
H1034 H 0.24372 0.80881 0.23642 0.0
H1035 H 0.21552 0.80855 0.21874 0.0
C1036 C 0.53201 0.86155 0.46669 0.0
C1037 C 0.52192 0.85567 0.44901 0.0
C1038 C 0.53365 0.87955 0.4758 0.0
C1039 C 0.5125 0.91819 0.4774 0.0
H1040 H 0.55836 0.95006 0.49827 0.0
C1041 C 0.52411 0.99749 0.50286 0.0
C1042 C 0.53748 0.00582 0.51779 0.0
C1043 C 0.52196 0.97892 0.49495 0.0
C1044 C 0.5454 0.94129 0.49284 0.0
H1045 H 0.50542 0.86403 0.42722 0.0
H1046 H 0.50817 0.89519 0.4432 0.0
H1047 H 0.55496 0.91791 0.48428 0.0
H1048 H 0.55872 1.00109 0.53658 0.0
H1049 H 0.55446 0.96852 0.52349 0.0
H1050 H 0.50281 0.94127 0.48619 0.0
C1051 C 0.51477 0.88589 0.45001 0.0
C1052 C 0.54349 0.92286 0.48476 0.0
C1053 C 0.51326 0.86804 0.44084 0.0
C1054 C 0.54839 0.9951 0.52495 0.0
C1055 C 0.54602 0.97643 0.51731 0.0
C1056 C 0.51436 0.93652 0.48571 0.0
C1057 C 0.52507 0.8919 0.46751 0.0
C1058 C 0.52704 0.91116 0.47685 0.0
C1059 C 0.53292 0.96812 0.50204 0.0
C1060 C 0.53086 0.9484 0.49346 0.0
H1061 H 0.5389 0.85242 0.47333 0.0
H1062 H 0.5416 0.8838 0.48935 0.0
H1063 H 0.49963 0.90941 0.47154 0.0
H1064 H 0.51561 0.0055 0.49696 0.0
H1065 H 0.51191 0.97321 0.48302 0.0
C1066 C 0.51592 0.29673 0.69079 0.0
C1067 C 0.52197 0.3128 0.68221 0.0
C1068 C 0.49952 0.29274 0.69578 0.0
C1069 C 0.45715 0.30458 0.68725 0.0
H1070 H 0.45156 0.28495 0.73352 0.0
C1071 C 0.39965 0.30777 0.72408 0.0
C1072 C 0.39335 0.29325 0.73445 0.0
C1073 C 0.41393 0.30778 0.71551 0.0
C1074 C 0.45277 0.29011 0.7204 0.0
H1075 H 0.51549 0.33737 0.67225 0.0
H1076 H 0.48706 0.33079 0.6815 0.0
H1077 H 0.47942 0.29013 0.72348 0.0
H1078 H 0.39648 0.26669 0.74286 0.0
H1079 H 0.42141 0.26669 0.72787 0.0
H1080 H 0.43052 0.30494 0.68444 0.0
C1081 C 0.49486 0.32099 0.68401 0.0
C1082 C 0.46882 0.29313 0.71462 0.0
C1083 C 0.51125 0.3249 0.67888 0.0
C1084 C 0.4012 0.27827 0.73528 0.0
C1085 C 0.41549 0.27828 0.72669 0.0
C1086 C 0.4411 0.30162 0.69306 0.0
C1087 C 0.48873 0.30481 0.69247 0.0
C1088 C 0.47132 0.30068 0.6981 0.0
C1089 C 0.4223 0.29327 0.71706 0.0
C1090 C 0.43877 0.29462 0.70986 0.0
H1091 H 0.52373 0.28694 0.69335 0.0
H1092 H 0.4952 0.28 0.70197 0.0
H1093 H 0.45844 0.30998 0.67424 0.0
H1094 H 0.39409 0.31965 0.72331 0.0
H1095 H 0.41891 0.31967 0.70841 0.0
C1096 C 0.06424 0.88023 0.59592 0.0
C1097 C 0.06147 0.87695 0.6138 0.0
C1098 C 0.06334 0.89736 0.58946 0.0
C1099 C 0.06785 0.94765 0.60384 0.0
H1100 H 0.03927 0.94547 0.55649 0.0
C1101 C 0.05528 0.01547 0.57516 0.0
C1102 C 0.05237 0.01548 0.55595 0.0
C1103 C 0.05693 0.99906 0.58284 0.0
C1104 C 0.04762 0.9465 0.56958 0.0
H1105 H 0.05602 0.88943 0.6391 0.0
H1106 H 0.05488 0.91959 0.62795 0.0
H1107 H 0.04142 0.91634 0.5685 0.0
H1108 H 0.04982 0.99834 0.52984 0.0
H1109 H 0.05335 0.97032 0.54302 0.0
H1110 H 0.07452 0.97781 0.60472 0.0
C1111 C 0.05752 0.90874 0.61885 0.0
C1112 C 0.04873 0.92968 0.57652 0.0
C1113 C 0.05803 0.8914 0.62518 0.0
C1114 C 0.05176 0.99886 0.54468 0.0
C1115 C 0.05365 0.98261 0.55231 0.0
C1116 C 0.06699 0.96455 0.59674 0.0
C1117 C 0.06003 0.91187 0.60085 0.0
C1118 C 0.05885 0.92999 0.59372 0.0
C1119 C 0.05593 0.98224 0.57151 0.0
C1120 C 0.05688 0.96428 0.57942 0.0
H1121 H 0.06699 0.86947 0.58681 0.0
H1122 H 0.06544 0.89935 0.57557 0.0
H1123 H 0.07587 0.94838 0.61709 0.0
H1124 H 0.05583 0.028 0.58429 0.0
H1125 H 0.05855 0.99947 0.59765 0.0
C1126 C 0.46762 0.81881 0.86757 0.0
C1127 C 0.47057 0.80186 0.87272 0.0
C1128 C 0.45193 0.81892 0.85699 0.0
C1129 C 0.40651 0.79015 0.84085 0.0
H1130 H 0.4076 0.82605 0.8054 0.0
C1131 C 0.34576 0.79047 0.78945 0.0
C1132 C 0.34247 0.80821 0.78824 0.0
C1133 C 0.36171 0.78912 0.79853 0.0
C1134 C 0.40708 0.81601 0.8153 0.0
H1135 H 0.45942 0.7717 0.87098 0.0
H1136 H 0.43213 0.77167 0.85167 0.0
H1137 H 0.43453 0.82436 0.82375 0.0
H1138 H 0.35365 0.8385 0.79505 0.0
H1139 H 0.38145 0.8361 0.81087 0.0
H1140 H 0.37899 0.7817 0.83209 0.0
C1141 C 0.44179 0.785 0.85623 0.0
C1142 C 0.42252 0.81508 0.82591 0.0
C1143 C 0.45744 0.78496 0.8672 0.0
C1144 C 0.35574 0.8246 0.79569 0.0
C1145 C 0.3717 0.82324 0.80473 0.0
C1146 C 0.39108 0.79096 0.83007 0.0
C1147 C 0.43889 0.80201 0.85089 0.0
C1148 C 0.42244 0.80229 0.839 0.0
C1149 C 0.37473 0.80548 0.80653 0.0
C1150 C 0.3912 0.80402 0.81731 0.0
H1151 H 0.47739 0.83212 0.87194 0.0
H1152 H 0.45004 0.83237 0.85371 0.0
H1153 H 0.40587 0.78032 0.85093 0.0
H1154 H 0.33591 0.77754 0.78373 0.0
H1155 H 0.3638 0.77525 0.79943 0.0
C1156 C 0.55922 0.25725 0.1013 0.0
C1157 C 0.55265 0.26068 0.11746 0.0
C1158 C 0.55834 0.23869 0.09392 0.0
C1159 C 0.53649 0.1876 0.09619 0.0
H1160 H 0.57418 0.17886 0.07305 0.0
C1161 C 0.53986 0.11165 0.06884 0.0
C1162 C 0.54331 0.11 0.05079 0.0
C1163 C 0.542 0.12965 0.07864 0.0
C1164 C 0.5635 0.18103 0.07944 0.0
H1165 H 0.53971 0.24691 0.13826 0.0
H1166 H 0.53837 0.21498 0.12566 0.0
H1167 H 0.57528 0.2108 0.08596 0.0
H1168 H 0.55236 0.12586 0.02923 0.0
H1169 H 0.55651 0.15683 0.04626 0.0
H1170 H 0.5248 0.15771 0.08967 0.0
C1171 C 0.54401 0.22649 0.11843 0.0
C1172 C 0.56407 0.19945 0.08675 0.0
C1173 C 0.54485 0.24496 0.12575 0.0
C1174 C 0.54958 0.12662 0.04311 0.0
C1175 C 0.55204 0.14445 0.05294 0.0
C1176 C 0.536 0.16914 0.08899 0.0
C1177 C 0.55088 0.22299 0.10249 0.0
C1178 C 0.55045 0.20313 0.09504 0.0
C1179 C 0.54801 0.14631 0.07071 0.0
C1180 C 0.54938 0.16561 0.08025 0.0
H1181 H 0.56539 0.26891 0.09454 0.0
H1182 H 0.56353 0.2367 0.08146 0.0
H1183 H 0.52562 0.18972 0.10223 0.0
H1184 H 0.53485 0.0991 0.07506 0.0
H1185 H 0.53884 0.13053 0.09234 0.0
C1186 C 0.07432 0.3086 0.37395 0.0
C1187 C 0.06072 0.29209 0.3724 0.0
C1188 C 0.08785 0.30911 0.364 0.0
C1189 C 0.09998 0.28306 0.32451 0.0
H1190 H 0.14686 0.3096 0.34806 0.0
C1191 C 0.16025 0.27053 0.29771 0.0
C1192 C 0.17446 0.28622 0.29804 0.0
C1193 C 0.14609 0.27241 0.30577 0.0
C1194 C 0.13383 0.30231 0.34118 0.0
H1195 H 0.05072 0.26314 0.35918 0.0
H1196 H 0.07439 0.26383 0.34235 0.0
H1197 H 0.12281 0.31078 0.364 0.0
H1198 H 0.18455 0.31636 0.30684 0.0
H1199 H 0.15994 0.31954 0.32113 0.0
H1200 H 0.1111 0.27422 0.30188 0.0
C1201 C 0.07449 0.27659 0.35084 0.0
C1202 C 0.11999 0.30301 0.35032 0.0
C1203 C 0.06093 0.27615 0.36064 0.0
C1204 C 0.17401 0.30389 0.30657 0.0
C1205 C 0.15987 0.30574 0.31474 0.0
C1206 C 0.11382 0.28225 0.31544 0.0
C1207 C 0.08819 0.29306 0.35237 0.0
C1208 C 0.10287 0.29323 0.3422 0.0
C1209 C 0.14576 0.29 0.31451 0.0
C1210 C 0.13094 0.29172 0.32373 0.0
H1211 H 0.0745 0.32116 0.38282 0.0
H1212 H 0.09801 0.32214 0.36536 0.0
H1213 H 0.08699 0.27568 0.31759 0.0
H1214 H 0.16021 0.25662 0.29161 0.0
H1215 H 0.13558 0.25993 0.30558 0.0
C1216 C 0.93116 0.06623 0.16649 0.0
C1217 C 0.93224 0.05325 0.17904 0.0
C1218 C 0.94423 0.07129 0.15606 0.0
C1219 C 0.97779 0.05334 0.13871 0.0
H1220 H 0.99705 0.10527 0.13096 0.0
C1221 C 0.01642 0.06882 0.08251 0.0
C1222 C 0.03136 0.08397 0.08543 0.0
C1223 C 0.00519 0.0669 0.09495 0.0
C1224 C 0.99195 0.09078 0.13328 0.0
H1225 H 0.94711 0.03498 0.1905 0.0
H1226 H 0.96974 0.04357 0.17224 0.0
H1227 H 0.97511 0.09813 0.15074 0.0
H1228 H 0.04655 0.10897 0.10378 0.0
H1229 H 0.02701 0.10501 0.12656 0.0
H1230 H 0.99477 0.04586 0.12187 0.0
C1231 C 0.95902 0.04994 0.17039 0.0
C1232 C 0.97925 0.08668 0.1443 0.0
C1233 C 0.94614 0.04506 0.18084 0.0
C1234 C 0.03498 0.09726 0.10121 0.0
C1235 C 0.02382 0.09504 0.11411 0.0
C1236 C 0.99055 0.05743 0.12799 0.0
C1237 C 0.95826 0.06316 0.158 0.0
C1238 C 0.97192 0.06788 0.14682 0.0
C1239 C 0.00897 0.07963 0.11112 0.0
C1240 C 0.99738 0.07609 0.12472 0.0
H1241 H 0.92056 0.0728 0.16517 0.0
H1242 H 0.94334 0.0814 0.14643 0.0
H1243 H 0.97228 0.03871 0.14034 0.0
H1244 H 0.0135 0.05807 0.07073 0.0
H1245 H 0.99362 0.05517 0.09199 0.0
C1246 C 0.25995 0.73928 0.45341 0.0
C1247 C 0.27363 0.73278 0.4621 0.0
C1248 C 0.26034 0.74563 0.43613 0.0
C1249 C 0.29027 0.76603 0.40584 0.0
H1250 H 0.24937 0.75175 0.36771 0.0
C1251 C 0.28579 0.8044 0.34112 0.0
C1252 C 0.27854 0.79333 0.32398 0.0
C1253 C 0.28475 0.79649 0.35759 0.0
C1254 C 0.26094 0.75581 0.37815 0.0
H1255 H 0.29846 0.72787 0.45931 0.0
H1256 H 0.29936 0.73947 0.42932 0.0
H1257 H 0.24866 0.7385 0.39686 0.0
H1258 H 0.26418 0.76515 0.31095 0.0
H1259 H 0.26239 0.75138 0.33968 0.0
H1260 H 0.30256 0.78338 0.38725 0.0
C1261 C 0.28827 0.73953 0.43589 0.0
C1262 C 0.26049 0.74833 0.39494 0.0
C1263 C 0.28775 0.73285 0.45306 0.0
C1264 C 0.26987 0.77418 0.32384 0.0
C1265 C 0.2688 0.76626 0.34035 0.0
C1266 C 0.29067 0.77367 0.38917 0.0
C1267 C 0.27454 0.74597 0.42718 0.0
C1268 C 0.27514 0.75339 0.40903 0.0
C1269 C 0.27642 0.77726 0.35746 0.0
C1270 C 0.27599 0.76875 0.3751 0.0
H1271 H 0.2488 0.73927 0.45988 0.0
H1272 H 0.24961 0.7506 0.42992 0.0
H1273 H 0.30175 0.77035 0.41642 0.0
H1274 H 0.29248 0.81922 0.34187 0.0
H1275 H 0.29049 0.8055 0.37048 0.0
C1276 C 0.61683 0.97906 0.69403 0.0
C1277 C 0.60856 0.9816 0.7091 0.0
C1278 C 0.61179 0.98552 0.67746 0.0
C1279 C 0.59992 0.02317 0.65994 0.0
H1280 H 0.56994 0.99175 0.61697 0.0
C1281 C 0.56307 0.05395 0.60342 0.0
C1282 C 0.55808 0.04394 0.58571 0.0
C1283 C 0.57187 0.04668 0.61746 0.0
C1284 C 0.5787 1.00077 0.6286 0.0
H1285 H 0.58819 0.99226 0.71851 0.0
H1286 H 0.57962 0.00372 0.68958 0.0
H1287 H 0.5799 0.97711 0.64319 0.0
H1288 H 0.55925 0.01956 0.56802 0.0
H1289 H 0.57574 0.00741 0.59212 0.0
H1290 H 0.59905 0.04687 0.64552 0.0
C1291 C 0.58983 0.99658 0.69064 0.0
C1292 C 0.58423 0.99232 0.64363 0.0
C1293 C 0.59461 0.98982 0.70705 0.0
C1294 C 0.56283 0.02726 0.58177 0.0
C1295 C 0.57213 0.02029 0.59561 0.0
C1296 C 0.59469 0.03165 0.64477 0.0
C1297 C 0.59866 0.99483 0.67597 0.0
C1298 C 0.59453 0.00351 0.65945 0.0
C1299 C 0.57623 0.02954 0.61379 0.0
C1300 C 0.58365 0.02057 0.62906 0.0
H1301 H 0.6277 0.9729 0.69534 0.0
H1302 H 0.61863 0.98403 0.66613 0.0
H1303 H 0.60795 0.03196 0.67215 0.0
H1304 H 0.55944 0.0669 0.60659 0.0
H1305 H 0.57455 0.05411 0.63128 0.0
C1306 C 0.29895 0.36227 0.98162 0.0
C1307 C 0.2964 0.38011 0.98643 0.0
C1308 C 0.29745 0.35512 0.96314 0.0
C1309 C 0.30218 0.37042 0.91797 0.0
H1310 H 0.27898 0.31798 0.89942 0.0
C1311 C 0.31036 0.33382 0.84812 0.0
C1312 C 0.29517 0.32215 0.837 0.0
C1313 C 0.31015 0.34113 0.86622 0.0
C1314 C 0.28546 0.33269 0.90434 0.0
H1315 H 0.29001 0.40434 0.97556 0.0
H1316 H 0.28766 0.39194 0.94318 0.0
H1317 H 0.2781 0.33028 0.93086 0.0
H1318 H 0.26789 0.30892 0.8364 0.0
H1319 H 0.26761 0.32152 0.86774 0.0
H1320 H 0.30962 0.37278 0.89144 0.0
C1321 C 0.29074 0.38347 0.95377 0.0
C1322 C 0.28503 0.3397 0.9224 0.0
C1323 C 0.29192 0.39048 0.97229 0.0
C1324 C 0.27987 0.31782 0.84451 0.0
C1325 C 0.2797 0.32499 0.86256 0.0
C1326 C 0.30276 0.36335 0.89994 0.0
C1327 C 0.29367 0.36578 0.949 0.0
C1328 C 0.29342 0.35863 0.92947 0.0
C1329 C 0.2948 0.33678 0.87365 0.0
C1330 C 0.29441 0.34438 0.8929 0.0
H1331 H 0.30243 0.35394 0.99218 0.0
H1332 H 0.29989 0.34151 0.95996 0.0
H1333 H 0.3089 0.38503 0.92306 0.0
H1334 H 0.32235 0.33749 0.84279 0.0
H1335 H 0.32205 0.35004 0.87446 0.0
C1336 C 0.93275 0.0607 0.28768 0.0
C1337 C 0.93413 0.04533 0.27595 0.0
C1338 C 0.94355 0.06613 0.30483 0.0
C1339 C 0.9863 0.06456 0.32614 0.0
H1340 H 0.97194 0.07338 0.37302 0.0
C1341 C 0.02072 0.05279 0.39423 0.0
C1342 C 0.01812 0.06211 0.41043 0.0
C1343 C 0.0143 0.05741 0.37726 0.0
C1344 C 0.97627 0.07157 0.35998 0.0
H1345 H 0.94631 0.02236 0.27347 0.0
H1346 H 0.96498 0.03174 0.30344 0.0
H1347 H 0.95055 0.06633 0.3448 0.0
H1348 H 0.00938 0.08523 0.42214 0.0
H1349 H 0.99841 0.09363 0.39237 0.0
H1350 H 0.01187 0.06908 0.34127 0.0
C1351 C 0.95603 0.03994 0.29917 0.0
C1352 C 0.96397 0.06737 0.3439 0.0
C1353 C 0.94534 0.03456 0.28211 0.0
C1354 C 0.01123 0.07773 0.40966 0.0
C1355 C 0.00493 0.08246 0.3927 0.0
C1356 C 0.99861 0.06887 0.34218 0.0
C1357 C 0.95572 0.0562 0.31029 0.0
C1358 C 0.96883 0.06316 0.32699 0.0
C1359 C 0.00534 0.07147 0.37641 0.0
C1360 C 0.99359 0.07173 0.3593 0.0
H1361 H 0.92406 0.0691 0.28323 0.0
H1362 H 0.94302 0.0786 0.31337 0.0
H1363 H 0.99032 0.06171 0.3131 0.0
H1364 H 0.02602 0.04068 0.39462 0.0
H1365 H 0.01478 0.04863 0.36493 0.0
C1366 C 0.29158 0.72035 0.58243 0.0
C1367 C 0.28661 0.72924 0.56723 0.0
C1368 C 0.29189 0.72814 0.60048 0.0
C1369 C 0.27479 0.7628 0.62713 0.0
H1370 H 0.30878 0.75723 0.66749 0.0
C1371 C 0.28885 0.80708 0.69867 0.0
C1372 C 0.29169 0.79844 0.71462 0.0
C1373 C 0.28684 0.79723 0.68113 0.0
C1374 C 0.29903 0.75867 0.65643 0.0
H1375 H 0.27846 0.75371 0.55939 0.0
H1376 H 0.27951 0.76763 0.59083 0.0
H1377 H 0.30904 0.74402 0.63619 0.0
H1378 H 0.29447 0.77247 0.72462 0.0
H1379 H 0.29133 0.75514 0.69372 0.0
H1380 H 0.26515 0.77797 0.6474 0.0
C1381 C 0.28279 0.75432 0.5888 0.0
C1382 C 0.29917 0.75109 0.63838 0.0
C1383 C 0.28238 0.74645 0.57069 0.0
C1384 C 0.2922 0.77946 0.71259 0.0
C1385 C 0.29052 0.76962 0.69491 0.0
C1386 C 0.27477 0.77052 0.64513 0.0
C1387 C 0.28734 0.74517 0.60401 0.0
C1388 C 0.28712 0.75314 0.62338 0.0
C1389 C 0.2879 0.77846 0.67894 0.0
C1390 C 0.28698 0.76872 0.66003 0.0
H1391 H 0.29481 0.70701 0.58042 0.0
H1392 H 0.29522 0.72043 0.61164 0.0
H1393 H 0.265 0.76433 0.61616 0.0
H1394 H 0.28834 0.82168 0.69972 0.0
H1395 H 0.28501 0.80458 0.66926 0.0
C1396 C 0.62272 0.9971 0.82676 0.0
C1397 C 0.60873 0.99317 0.812 0.0
C1398 C 0.62223 0.00783 0.84311 0.0
C1399 C 0.6037 0.04576 0.85569 0.0
H1400 H 0.61186 0.03588 0.90631 0.0
C1401 C 0.57052 0.07016 0.91069 0.0
C1402 C 0.57805 0.07227 0.92935 0.0
C1403 C 0.57976 0.06644 0.89705 0.0
C1404 C 0.6101 0.03917 0.8923 0.0
H1405 H 0.5825 0.99503 0.80352 0.0
H1406 H 0.58156 0.01342 0.83212 0.0
H1407 H 0.61605 0.01393 0.88177 0.0
H1408 H 0.60202 0.07512 0.94822 0.0
H1409 H 0.61805 0.06802 0.92423 0.0
H1410 H 0.59711 0.07055 0.86598 0.0
C1411 C 0.59304 0.00873 0.83088 0.0
C1412 C 0.61233 0.02649 0.87829 0.0
C1413 C 0.59351 0.99805 0.81463 0.0
C1414 C 0.5957 0.07294 0.93396 0.0
C1415 C 0.6049 0.06897 0.92027 0.0
C1416 C 0.60161 0.05847 0.86964 0.0
C1417 C 0.60775 0.01463 0.84476 0.0
C1418 C 0.60832 0.02927 0.85986 0.0
C1419 C 0.59666 0.06463 0.90179 0.0
C1420 C 0.60395 0.0548 0.88798 0.0
H1421 H 0.63464 0.99357 0.82504 0.0
H1422 H 0.63363 0.01208 0.85379 0.0
H1423 H 0.60099 0.04841 0.84153 0.0
H1424 H 0.55697 0.06948 0.90657 0.0
H1425 H 0.57299 0.06308 0.88293 0.0
C1426 C 0.29419 0.37026 0.08902 0.0
C1427 C 0.29676 0.38997 0.09021 0.0
C1428 C 0.29186 0.3608 0.10453 0.0
C1429 C 0.2818 0.36719 0.1524 0.0
H1430 H 0.29996 0.32379 0.15854 0.0
C1431 C 0.28662 0.33528 0.22142 0.0
C1432 C 0.28156 0.31547 0.22053 0.0
C1433 C 0.2883 0.34396 0.20539 0.0
C1434 C 0.29467 0.33579 0.15699 0.0
H1435 H 0.2989 0.41509 0.10894 0.0
H1436 H 0.29536 0.39885 0.13588 0.0
H1437 H 0.30306 0.33954 0.13111 0.0
H1438 H 0.27465 0.28927 0.20205 0.0
H1439 H 0.27783 0.30439 0.17409 0.0
H1440 H 0.27376 0.36362 0.17851 0.0
C1441 C 0.29469 0.39049 0.1229 0.0
C1442 C 0.29639 0.34484 0.14115 0.0
C1443 C 0.29687 0.3999 0.10737 0.0
C1444 C 0.27856 0.30456 0.20323 0.0
C1445 C 0.28045 0.31324 0.1872 0.0
C1446 C 0.28025 0.35826 0.1683 0.0
C1447 C 0.29216 0.37076 0.1218 0.0
C1448 C 0.29002 0.36076 0.13858 0.0
C1449 C 0.28518 0.33309 0.18802 0.0
C1450 C 0.2867 0.34245 0.17088 0.0
H1451 H 0.29393 0.36208 0.07605 0.0
H1452 H 0.28966 0.3456 0.10289 0.0
H1453 H 0.27633 0.37906 0.15091 0.0
H1454 H 0.28904 0.34413 0.23451 0.0
H1455 H 0.29218 0.35924 0.20664 0.0
C1456 C 0.25341 0.97264 0.06763 0.0
C1457 C 0.2543 0.96422 0.05012 0.0
C1458 C 0.23996 0.98088 0.07016 0.0
C1459 C 0.19603 0.98218 0.04735 0.0
H1460 H 0.20517 0.02836 0.08091 0.0
C1461 C 0.14962 0.02981 0.04362 0.0
C1462 C 0.1466 0.03855 0.06001 0.0
C1463 C 0.16222 0.01985 0.04394 0.0
C1464 C 0.20233 0.01533 0.07166 0.0
H1465 H 0.24186 0.95812 0.0215 0.0
H1466 H 0.21878 0.973 0.0257 0.0
H1467 H 0.22828 0.01298 0.0784 0.0
H1468 H 0.1545 0.04345 0.08969 0.0
H1469 H 0.1766 0.02599 0.09025 0.0
H1470 H 0.17021 0.98476 0.04033 0.0
C1471 C 0.22816 0.9728 0.03765 0.0
C1472 C 0.21561 0.00647 0.0702 0.0
C1473 C 0.24151 0.96438 0.03518 0.0
C1474 C 0.15658 0.03703 0.07679 0.0
C1475 C 0.16924 0.02703 0.07712 0.0
C1476 C 0.18283 0.99108 0.04873 0.0
C1477 C 0.22711 0.98108 0.0552 0.0
C1478 C 0.21273 0.98994 0.05775 0.0
C1479 C 0.17221 0.01831 0.06066 0.0
C1480 C 0.18588 0.00797 0.06063 0.0
H1481 H 0.26298 0.97262 0.0795 0.0
H1482 H 0.23951 0.98683 0.08391 0.0
H1483 H 0.1931 0.9692 0.03802 0.0
H1484 H 0.14251 0.03103 0.03041 0.0
H1485 H 0.16439 0.0137 0.03097 0.0
C1486 C 0.71726 0.67765 0.02248 0.0
C1487 C 0.73076 0.66941 0.01972 0.0
C1488 C 0.70078 0.66641 0.02371 0.0
C1489 C 0.67104 0.61978 0.00853 0.0
H1490 H 0.64833 0.62949 0.04952 0.0
C1491 C 0.60539 0.56955 0.01392 0.0
C1492 C 0.59314 0.57659 0.02178 0.0
C1493 C 0.62242 0.5806 0.01526 0.0
C1494 C 0.65426 0.62667 0.03778 0.0
H1495 H 0.73736 0.64278 0.01592 0.0
H1496 H 0.70832 0.6231 0.01719 0.0
H1497 H 0.67715 0.64936 0.04824 0.0
H1498 H 0.58924 0.6008 0.03755 0.0
H1499 H 0.61879 0.62064 0.03919 0.0
H1500 H 0.64816 0.59789 0.99739 0.0
C1501 C 0.71064 0.63832 0.0187 0.0
C1502 C 0.6709 0.63805 0.03715 0.0
C1503 C 0.72726 0.64959 0.01794 0.0
C1504 C 0.59845 0.59492 0.03147 0.0
C1505 C 0.61548 0.60628 0.03242 0.0
C1506 C 0.65432 0.60869 0.00892 0.0
C1507 C 0.69724 0.64661 0.02177 0.0
C1508 C 0.67954 0.63463 0.02257 0.0
C1509 C 0.62771 0.59942 0.024 0.0
C1510 C 0.64563 0.61173 0.02365 0.0
H1511 H 0.71953 0.69286 0.02416 0.0
H1512 H 0.69073 0.67322 0.02597 0.0
H1513 H 0.67721 0.61697 0.99695 0.0
H1514 H 0.60175 0.55539 0.00653 0.0
H1515 H 0.63137 0.5743 0.00922 0.0
C1516 C 0.70616 0.52317 0.31069 0.0
C1517 C 0.70272 0.52528 0.32868 0.0
C1518 C 0.70816 0.50615 0.30307 0.0
C1519 C 0.72538 0.46872 0.31615 0.0
H1520 H 0.7083 0.44757 0.26488 0.0
C1521 C 0.76565 0.43435 0.27625 0.0
C1522 C 0.75808 0.41542 0.26868 0.0
C1523 C 0.7554 0.44559 0.28178 0.0
C1524 C 0.71296 0.45319 0.27926 0.0
H1525 H 0.69819 0.51124 0.35271 0.0
H1526 H 0.70271 0.48137 0.33957 0.0
H1527 H 0.69485 0.46995 0.27959 0.0
H1528 H 0.73371 0.39412 0.2589 0.0
H1529 H 0.71571 0.41404 0.26874 0.0
H1530 H 0.74408 0.45285 0.31561 0.0
C1531 C 0.70346 0.49292 0.33135 0.0
C1532 C 0.70531 0.46589 0.28765 0.0
C1533 C 0.70104 0.50994 0.33888 0.0
C1534 C 0.7399 0.40857 0.26502 0.0
C1535 C 0.72961 0.41991 0.27057 0.0
C1536 C 0.73311 0.45623 0.30774 0.0
C1537 C 0.70706 0.49096 0.31338 0.0
C1538 C 0.7119 0.47423 0.30596 0.0
C1539 C 0.73744 0.43815 0.27983 0.0
C1540 C 0.72739 0.44896 0.28906 0.0
H1541 H 0.70715 0.53466 0.30238 0.0
H1542 H 0.71122 0.5051 0.28932 0.0
H1543 H 0.73078 0.47509 0.33022 0.0
H1544 H 0.77958 0.44008 0.27935 0.0
H1545 H 0.76163 0.45982 0.28856 0.0
C1546 C 0.84719 0.47807 0.5431 0.0
C1547 C 0.84483 0.45839 0.54124 0.0
C1548 C 0.86379 0.49035 0.54498 0.0
C1549 C 0.91003 0.49278 0.55876 0.0
H1550 H 0.91801 0.53355 0.52866 0.0
C1551 C 0.97831 0.54256 0.56212 0.0
C1552 C 0.98309 0.54566 0.54491 0.0
C1553 C 0.96103 0.53428 0.56337 0.0
C1554 C 0.91599 0.52225 0.53718 0.0
H1555 H 0.85809 0.43622 0.54008 0.0
H1556 H 0.88692 0.45761 0.5434 0.0
H1557 H 0.8886 0.51397 0.52746 0.0
H1558 H 0.97331 0.54302 0.5156 0.0
H1559 H 0.94344 0.52847 0.51778 0.0
H1560 H 0.93744 0.50057 0.56799 0.0
C1561 C 0.87597 0.46355 0.54346 0.0
C1562 C 0.89913 0.51115 0.53662 0.0
C1563 C 0.85941 0.45129 0.54137 0.0
C1564 C 0.97013 0.5409 0.5291 0.0
C1565 C 0.95292 0.53264 0.53035 0.0
C1566 C 0.92688 0.50391 0.55938 0.0
C1567 C 0.87836 0.48321 0.54529 0.0
C1568 C 0.89601 0.49607 0.54713 0.0
C1569 C 0.94818 0.52896 0.54744 0.0
C1570 C 0.9301 0.51855 0.54833 0.0
H1571 H 0.83622 0.48398 0.54308 0.0
H1572 H 0.86525 0.50545 0.54643 0.0
H1573 H 0.90799 0.48139 0.56719 0.0
H1574 H 0.98795 0.54612 0.57459 0.0
H1575 H 0.95775 0.53183 0.57678 0.0
C1576 C 0.39954 0.17623 0.27454 0.0
C1577 C 0.41043 0.18003 0.29178 0.0
C1578 C 0.38729 0.18621 0.27056 0.0
C1579 C 0.37448 0.22889 0.28608 0.0
H1580 H 0.32948 0.20025 0.25868 0.0
C1581 C 0.31393 0.2559 0.28186 0.0
C1582 C 0.30641 0.25738 0.26395 0.0
C1583 C 0.32624 0.2458 0.28464 0.0
C1584 C 0.34204 0.20836 0.2662 0.0
H1585 H 0.41742 0.19746 0.31828 0.0
H1586 H 0.39555 0.21468 0.31154 0.0
H1587 H 0.35239 0.18446 0.2653 0.0
H1588 H 0.3052 0.24942 0.23489 0.0
H1589 H 0.32637 0.23064 0.23978 0.0
H1590 H 0.36372 0.2526 0.28752 0.0
C1591 C 0.39672 0.20421 0.30095 0.0
C1592 C 0.35518 0.19942 0.26994 0.0
C1593 C 0.4092 0.19434 0.30485 0.0
C1594 C 0.31074 0.24807 0.24878 0.0
C1595 C 0.32281 0.23751 0.25158 0.0
C1596 C 0.36124 0.23773 0.28257 0.0
C1597 C 0.38547 0.20003 0.28383 0.0
C1598 C 0.37156 0.2096 0.2799 0.0
C1599 C 0.33095 0.2368 0.26953 0.0
C1600 C 0.34496 0.2275 0.27264 0.0
H1601 H 0.40036 0.1654 0.2641 0.0
H1602 H 0.37916 0.18298 0.25708 0.0
H1603 H 0.38701 0.23718 0.2935 0.0
H1604 H 0.31095 0.2634 0.29369 0.0
H1605 H 0.33236 0.24534 0.29856 0.0
C1606 C 0.33242 0.15839 0.54706 0.0
C1607 C 0.32788 0.1664 0.53112 0.0
C1608 C 0.34794 0.15312 0.55024 0.0
C1609 C 0.39096 0.15951 0.53517 0.0
H1610 H 0.39112 0.11419 0.55804 0.0
C1611 C 0.44497 0.12084 0.53327 0.0
C1612 C 0.44965 0.11179 0.54844 0.0
C1613 C 0.43141 0.12953 0.53276 0.0
C1614 C 0.39143 0.12705 0.5519 0.0
H1615 H 0.33621 0.17512 0.50599 0.0
H1616 H 0.36301 0.1653 0.51115 0.0
H1617 H 0.36489 0.12476 0.55357 0.0
H1618 H 0.44427 0.10588 0.57549 0.0
H1619 H 0.42062 0.121 0.57459 0.0
H1620 H 0.41748 0.16145 0.53316 0.0
C1621 C 0.35475 0.16347 0.52146 0.0
C1622 C 0.37631 0.13316 0.54931 0.0
C1623 C 0.33927 0.16893 0.51838 0.0
C1624 C 0.44083 0.11237 0.56342 0.0
C1625 C 0.42724 0.12104 0.5629 0.0
C1626 C 0.40608 0.15333 0.53768 0.0
C1627 C 0.35935 0.15549 0.53747 0.0
C1628 C 0.37576 0.14939 0.54075 0.0
C1629 C 0.4221 0.12941 0.54739 0.0
C1630 C 0.40647 0.1369 0.54592 0.0
H1631 H 0.32412 0.15648 0.55734 0.0
H1632 H 0.35109 0.14742 0.5629 0.0
H1633 H 0.39124 0.1723 0.52891 0.0
H1634 H 0.45127 0.12051 0.52137 0.0
H1635 H 0.42774 0.13562 0.5205 0.0
C1636 C 0.72165 0.63215 0.35125 0.0
C1637 C 0.70412 0.62674 0.35294 0.0
C1638 C 0.72827 0.64883 0.34419 0.0
C1639 C 0.72059 0.69381 0.33264 0.0
H1640 H 0.74906 0.68712 0.29607 0.0
C1641 C 0.75372 0.7534 0.29302 0.0
C1642 C 0.77173 0.75691 0.29798 0.0
C1643 C 0.74276 0.73694 0.29705 0.0
C1644 C 0.74094 0.68905 0.30607 0.0
H1645 H 0.68029 0.63553 0.35058 0.0
H1646 H 0.69193 0.66464 0.33819 0.0
H1647 H 0.73554 0.66013 0.31065 0.0
H1648 H 0.79261 0.74583 0.30997 0.0
H1649 H 0.77352 0.71673 0.31635 0.0
H1650 H 0.72636 0.72291 0.32817 0.0
C1651 C 0.70046 0.65591 0.34214 0.0
C1652 C 0.73341 0.67376 0.31457 0.0
C1653 C 0.69383 0.63924 0.34927 0.0
C1654 C 0.77873 0.74346 0.3062 0.0
C1655 C 0.76786 0.72682 0.30971 0.0
C1656 C 0.72805 0.70913 0.324 0.0
C1657 C 0.71749 0.66034 0.33873 0.0
C1658 C 0.72376 0.67618 0.32846 0.0
C1659 C 0.74983 0.72362 0.30546 0.0
C1660 C 0.73877 0.70693 0.31119 0.0
H1661 H 0.72994 0.62291 0.35414 0.0
H1662 H 0.74164 0.65229 0.34223 0.0
H1663 H 0.71309 0.69599 0.34321 0.0
H1664 H 0.74814 0.76357 0.28658 0.0
H1665 H 0.72886 0.73467 0.29375 0.0
C1666 C 0.90067 0.59275 0.80617 0.0
C1667 C 0.9183 0.59473 0.81255 0.0
C1668 C 0.88933 0.5749 0.80053 0.0
C1669 C 0.88877 0.52531 0.78617 0.0
H1670 H 0.84239 0.51492 0.7976 0.0
C1671 C 0.8421 0.45078 0.76941 0.0
C1672 C 0.83392 0.44478 0.78414 0.0
C1673 C 0.85033 0.46988 0.76955 0.0
C1674 C 0.8553 0.5176 0.79429 0.0
H1675 H 0.93779 0.5796 0.81882 0.0
H1676 H 0.91782 0.54835 0.80974 0.0
H1677 H 0.86171 0.54643 0.80606 0.0
H1678 H 0.82769 0.45389 0.81035 0.0
H1679 H 0.84213 0.48686 0.81077 0.0
H1680 H 0.88273 0.49605 0.77566 0.0
C1681 C 0.91287 0.56061 0.80845 0.0
C1682 C 0.86632 0.53572 0.79896 0.0
C1683 C 0.92427 0.5785 0.81388 0.0
C1684 C 0.83353 0.45818 0.79861 0.0
C1685 C 0.84183 0.47712 0.79882 0.0
C1686 C 0.87781 0.50706 0.78177 0.0
C1687 C 0.89533 0.55864 0.80143 0.0
C1688 C 0.88329 0.53969 0.79529 0.0
C1689 C 0.85058 0.48316 0.78449 0.0
C1690 C 0.86111 0.50294 0.78621 0.0
H1691 H 0.89571 0.60502 0.80485 0.0
H1692 H 0.87594 0.57389 0.79502 0.0
H1693 H 0.90164 0.52804 0.78277 0.0
H1694 H 0.84251 0.44066 0.75808 0.0
H1695 H 0.85683 0.47416 0.75822 0.0
C1696 C 0.05492 0.89467 0.12298 0.0
C1697 C 0.06101 0.88161 0.11261 0.0
C1698 C 0.05221 0.91097 0.11587 0.0
C1699 C 0.04344 0.93096 0.07254 0.0
H1700 H 0.06325 0.97975 0.10221 0.0
C1701 C 0.02973 0.00152 0.05183 0.0
C1702 C 0.04437 0.01709 0.05373 0.0
C1703 C 0.0311 0.98463 0.05867 0.0
C1704 C 0.05761 0.96624 0.09375 0.0
H1705 H 0.06864 0.87534 0.08641 0.0
H1706 H 0.06343 0.90343 0.07384 0.0
H1707 H 0.06659 0.95102 0.11487 0.0
H1708 H 0.07196 0.02688 0.06443 0.0
H1709 H 0.07419 0.99773 0.07655 0.0
H1710 H 0.03436 0.94621 0.05146 0.0
C1711 C 0.06092 0.90116 0.08756 0.0
C1712 C 0.05943 0.94975 0.10105 0.0
C1713 C 0.06399 0.8851 0.09481 0.0
C1714 C 0.06038 0.01525 0.0626 0.0
C1715 C 0.06167 0.99853 0.0697 0.0
C1716 C 0.04133 0.94743 0.06535 0.0
C1717 C 0.05514 0.91441 0.09803 0.0
C1718 C 0.05252 0.9319 0.09049 0.0
C1719 C 0.04705 0.98301 0.0679 0.0
C1720 C 0.04856 0.96532 0.07578 0.0
H1721 H 0.05253 0.89247 0.13675 0.0
H1722 H 0.04768 0.92083 0.12428 0.0
H1723 H 0.03787 0.91744 0.06407 0.0
H1724 H 0.01719 0.0024 0.04512 0.0
H1725 H 0.01957 0.97297 0.0571 0.0
C1726 C 0.97087 0.30669 0.86946 0.0
C1727 C 0.97125 0.30055 0.88695 0.0
C1728 C 0.95526 0.3079 0.85913 0.0
C1729 C 0.90817 0.28757 0.85261 0.0
H1730 H 0.90457 0.3317 0.82895 0.0
C1731 C 0.8493 0.28609 0.79772 0.0
C1732 C 0.84191 0.30141 0.79869 0.0
C1733 C 0.86511 0.28694 0.80878 0.0
C1734 C 0.90534 0.31932 0.83555 0.0
H1735 H 0.95543 0.2907 0.90717 0.0
H1736 H 0.9282 0.29214 0.88892 0.0
H1737 H 0.93219 0.33129 0.84751 0.0
H1738 H 0.84553 0.32982 0.812 0.0
H1739 H 0.87342 0.33142 0.83135 0.0
H1740 H 0.8815 0.27546 0.84058 0.0
C1741 C 0.93999 0.29625 0.88327 0.0
C1742 C 0.9212 0.31902 0.84604 0.0
C1743 C 0.95561 0.29546 0.89375 0.0
C1744 C 0.8509 0.31779 0.81089 0.0
C1745 C 0.86689 0.31871 0.82192 0.0
C1746 C 0.89244 0.28776 0.84193 0.0
C1747 C 0.93959 0.30257 0.86586 0.0
C1748 C 0.92281 0.30311 0.85469 0.0
C1749 C 0.87411 0.30319 0.82113 0.0
C1750 C 0.8908 0.30358 0.83316 0.0
H1751 H 0.98271 0.31092 0.86391 0.0
H1752 H 0.95539 0.31273 0.84573 0.0
H1753 H 0.90895 0.27507 0.859 0.0
H1754 H 0.84278 0.27327 0.78845 0.0
H1755 H 0.87036 0.27484 0.80757 0.0
C1756 C 0.54961 0.25962 0.62099 0.0
C1757 C 0.56021 0.27565 0.61549 0.0
C1758 C 0.54895 0.24149 0.61313 0.0
C1759 C 0.57534 0.21531 0.59197 0.0
H1760 H 0.53238 0.17564 0.57902 0.0
C1761 C 0.57243 0.13859 0.5622 0.0
C1762 C 0.55941 0.12391 0.56646 0.0
C1763 C 0.57302 0.15748 0.56766 0.0
C1764 C 0.54456 0.18643 0.58285 0.0
H1765 H 0.57796 0.2852 0.5969 0.0
H1766 H 0.57683 0.25334 0.58315 0.0
H1767 H 0.53166 0.20783 0.58834 0.0
H1768 H 0.53753 0.11718 0.5806 0.0
H1769 H 0.53914 0.14985 0.59108 0.0
H1770 H 0.58832 0.19385 0.58713 0.0
C1771 C 0.5691 0.25493 0.59364 0.0
C1772 C 0.5441 0.20494 0.58804 0.0
C1773 C 0.5696 0.27314 0.60137 0.0
C1774 C 0.54758 0.12831 0.577 0.0
C1775 C 0.54841 0.14707 0.5828 0.0
C1776 C 0.57584 0.19671 0.587 0.0
C1777 C 0.559 0.23892 0.59969 0.0
C1778 C 0.55947 0.21956 0.59279 0.0
C1779 C 0.56079 0.16197 0.57775 0.0
C1780 C 0.56045 0.18196 0.58256 0.0
H1781 H 0.5422 0.26104 0.63184 0.0
H1782 H 0.54113 0.22945 0.61817 0.0
H1783 H 0.58743 0.22627 0.59579 0.0
H1784 H 0.58158 0.13549 0.5539 0.0
H1785 H 0.58267 0.16851 0.56337 0.0
C1786 C 0.55921 0.80181 0.3702 0.0
C1787 C 0.56083 0.80882 0.38881 0.0
C1788 C 0.57402 0.80291 0.36219 0.0
C1789 C 0.6186 0.82899 0.36398 0.0
H1790 H 0.62651 0.78147 0.34603 0.0
C1791 C 0.68264 0.82547 0.33909 0.0
C1792 C 0.68161 0.81134 0.32462 0.0
C1793 C 0.66816 0.8257 0.34733 0.0
C1794 C 0.62443 0.79494 0.3506 0.0
H1795 H 0.57906 0.82325 0.41337 0.0
H1796 H 0.6048 0.82576 0.39914 0.0
H1797 H 0.60025 0.78148 0.3583 0.0
H1798 H 0.66451 0.78685 0.307 0.0
H1799 H 0.63925 0.78758 0.32071 0.0
H1800 H 0.64241 0.8426 0.35574 0.0
C1801 C 0.59216 0.81912 0.3909 0.0
C1802 C 0.60938 0.79487 0.35773 0.0
C1803 C 0.57744 0.81756 0.39904 0.0
C1804 C 0.6658 0.79766 0.31839 0.0
C1805 C 0.6513 0.79806 0.32637 0.0
C1806 C 0.63351 0.82911 0.35645 0.0
C1807 C 0.5906 0.81155 0.37251 0.0
C1808 C 0.60632 0.81187 0.36445 0.0
C1809 C 0.65225 0.81198 0.34106 0.0
C1810 C 0.63663 0.81205 0.34959 0.0
H1811 H 0.54658 0.79501 0.36203 0.0
H1812 H 0.57256 0.79699 0.34795 0.0
H1813 H 0.6165 0.84228 0.36916 0.0
H1814 H 0.6947 0.83619 0.34418 0.0
H1815 H 0.66955 0.83651 0.35874 0.0
C1816 C 0.02287 0.23489 0.43299 0.0
C1817 C 0.02125 0.25078 0.44391 0.0
C1818 C 0.0238 0.21831 0.44046 0.0
C1819 C 0.01559 0.19265 0.48113 0.0
H1820 H 0.04426 0.16334 0.46188 0.0
C1821 C 0.03262 0.13023 0.51575 0.0
C1822 C 0.03289 0.11396 0.5044 0.0
C1823 C 0.03041 0.14645 0.50824 0.0
C1824 C 0.03602 0.1712 0.46728 0.0
H1825 H 0.01925 0.26136 0.4715 0.0
H1826 H 0.0213 0.2325 0.48475 0.0
H1827 H 0.04254 0.19263 0.44987 0.0
H1828 H 0.03084 0.10218 0.47604 0.0
H1829 H 0.02714 0.13061 0.46292 0.0
H1830 H 0.00943 0.17128 0.49884 0.0
C1831 C 0.02157 0.23281 0.47021 0.0
C1832 C 0.03499 0.18809 0.46036 0.0
C1833 C 0.0205 0.24947 0.46264 0.0
C1834 C 0.03069 0.11438 0.48524 0.0
C1835 C 0.02868 0.13076 0.47772 0.0
C1836 C 0.01675 0.17581 0.48816 0.0
C1837 C 0.02332 0.21696 0.45923 0.0
C1838 C 0.0247 0.1991 0.46709 0.0
C1839 C 0.02856 0.14707 0.48913 0.0
C1840 C 0.02695 0.16481 0.48132 0.0
H1841 H 0.0233 0.23514 0.41846 0.0
H1842 H 0.02468 0.20642 0.43135 0.0
H1843 H 0.00731 0.20043 0.48652 0.0
H1844 H 0.03421 0.13051 0.53056 0.0
H1845 H 0.03057 0.15873 0.51751 0.0
C1846 C 0.61197 0.32015 0.20001 0.0
C1847 C 0.61098 0.3248 0.18191 0.0
C1848 C 0.62771 0.31918 0.21005 0.0
C1849 C 0.66919 0.31068 0.20272 0.0
H1850 H 0.68427 0.32888 0.25477 0.0
C1851 C 0.72823 0.29415 0.2451 0.0
C1852 C 0.74022 0.30973 0.25615 0.0
C1853 C 0.71188 0.29556 0.23715 0.0
C1854 C 0.68023 0.32374 0.24023 0.0
H1855 H 0.62604 0.33299 0.16057 0.0
H1856 H 0.65344 0.33142 0.17813 0.0
H1857 H 0.65738 0.33361 0.23864 0.0
H1858 H 0.74411 0.33873 0.26818 0.0
H1859 H 0.71567 0.34112 0.25442 0.0
H1860 H 0.69209 0.30098 0.20422 0.0
C1861 C 0.64197 0.32823 0.18443 0.0
C1862 C 0.66478 0.32635 0.23103 0.0
C1863 C 0.62627 0.3293 0.17443 0.0
C1864 C 0.73526 0.32649 0.25964 0.0
C1865 C 0.71889 0.32783 0.25185 0.0
C1866 C 0.68454 0.30794 0.21194 0.0
C1867 C 0.6428 0.32276 0.2022 0.0
C1868 C 0.65916 0.31999 0.21212 0.0
C1869 C 0.70712 0.3125 0.24025 0.0
C1870 C 0.69031 0.31455 0.23077 0.0
H1871 H 0.60047 0.3166 0.20622 0.0
H1872 H 0.6279 0.31487 0.22367 0.0
H1873 H 0.6651 0.30536 0.18823 0.0
H1874 H 0.73163 0.28104 0.24212 0.0
H1875 H 0.70302 0.28343 0.22843 0.0
C1876 C 0.51951 0.86439 0.9403 0.0
C1877 C 0.52725 0.85176 0.94939 0.0
C1878 C 0.52105 0.88262 0.94883 0.0
C1879 C 0.54824 0.91917 0.98673 0.0
H1880 H 0.51006 0.94219 0.97911 0.0
C1881 C 0.54879 0.98736 0.0314 0.0
C1882 C 0.54177 1.00113 0.02363 0.0
C1883 C 0.54718 0.96991 0.02129 0.0
C1884 C 0.52096 0.93612 0.98118 0.0
H1885 H 0.54248 0.84863 0.97495 0.0
H1886 H 0.54506 0.88041 0.98997 0.0
H1887 H 0.50658 0.91012 0.96449 0.0
H1888 H 0.52712 0.00697 0.999 0.0
H1889 H 0.52438 0.97629 0.98101 0.0
H1890 H 0.5626 0.94507 0.00345 0.0
C1891 C 0.53795 0.87623 0.97604 0.0
C1892 C 0.51896 0.91763 0.97281 0.0
C1893 C 0.53636 0.85789 0.96748 0.0
C1894 C 0.53296 0.99686 0.0053 0.0
C1895 C 0.53124 0.97917 0.99509 0.0
C1896 C 0.55024 0.93761 0.99506 0.0
C1897 C 0.53041 0.88894 0.96679 0.0
C1898 C 0.53252 0.90877 0.9756 0.0
C1899 C 0.53839 0.96544 0.00298 0.0
C1900 C 0.53657 0.94632 0.99265 0.0
H1901 H 0.51237 0.86031 0.92636 0.0
H1902 H 0.51522 0.89192 0.94111 0.0
H1903 H 0.55915 0.91313 0.98889 0.0
H1904 H 0.55551 0.99 0.04554 0.0
H1905 H 0.55254 0.9597 0.02808 0.0
C1906 C 0.0163 0.81658 0.70558 0.0
C1907 C 0.01771 0.82401 0.68883 0.0
C1908 C 1.00284 0.81817 0.71497 0.0
C1909 C 0.9689 0.84412 0.71735 0.0
H1910 H 0.94824 0.80253 0.74256 0.0
C1911 C 0.91469 0.84865 0.75886 0.0
C1912 C 0.90092 0.83232 0.75775 0.0
C1913 C 0.92968 0.8478 0.75192 0.0
C1914 C 0.95374 0.81423 0.73547 0.0
H1915 H 0.00605 0.83897 0.66885 0.0
H1916 H 0.98229 0.84128 0.68488 0.0
H1917 H 0.97241 0.80076 0.72713 0.0
H1918 H 0.89261 0.8021 0.74896 0.0
H1919 H 0.91839 0.80073 0.73627 0.0
H1920 H 0.94976 0.85721 0.72496 0.0
C1921 C 0.99181 0.8346 0.69106 0.0
C1922 C 0.96782 0.81334 0.72681 0.0
C1923 C 0.0054 0.83318 0.68176 0.0
C1924 C 0.90277 0.81504 0.74982 0.0
C1925 C 0.91773 0.81421 0.74275 0.0
C1926 C 0.95474 0.84494 0.72588 0.0
C1927 C 0.99029 0.82706 0.70778 0.0
C1928 C 0.97556 0.82823 0.71751 0.0
C1929 C 0.93133 0.83062 0.7435 0.0
C1930 C 0.94687 0.82997 0.73499 0.0
H1931 H 0.02565 0.80955 0.7115 0.0
H1932 H 1.00236 0.8125 0.72795 0.0
H1933 H 0.97463 0.85602 0.71063 0.0
H1934 H 0.91375 0.86227 0.76467 0.0
H1935 H 0.93996 0.8607 0.75308 0.0
C1936 C 0.14197 0.05611 0.89827 0.0
C1937 C 0.14168 0.07009 0.88666 0.0
C1938 C 0.13315 0.05562 0.91312 0.0
C1939 C 0.09652 0.07113 0.92614 0.0
H1940 H 0.11033 0.05552 0.97348 0.0
C1941 C 0.06459 0.07973 0.98882 0.0
C1942 C 0.05583 0.06248 0.99383 0.0
C1943 C 0.07601 0.08007 0.97656 0.0
C1944 C 0.1064 0.05973 0.96021 0.0
H1945 H 0.13368 0.09555 0.88219 0.0
H1946 H 0.11895 0.09518 0.90846 0.0
H1947 H 0.13009 0.0588 0.95108 0.0
H1948 H 0.05222 0.03219 0.99071 0.0
H1949 H 0.07285 0.03286 0.96923 0.0
H1950 H 0.07314 0.07267 0.93553 0.0
C1951 C 0.12521 0.0841 0.90574 0.0
C1952 C 0.1176 0.06161 0.94746 0.0
C1953 C 0.13367 0.08435 0.89077 0.0
C1954 C 0.05878 0.04556 0.98675 0.0
C1955 C 0.07058 0.04596 0.97473 0.0
C1956 C 0.08551 0.06951 0.93893 0.0
C1957 C 0.12425 0.06931 0.91659 0.0
C1958 C 0.11276 0.06742 0.93036 0.0
C1959 C 0.07906 0.06322 0.96953 0.0
C1960 C 0.09041 0.06382 0.95596 0.0
H1961 H 0.14821 0.04507 0.89531 0.0
H1962 H 0.13258 0.04405 0.92128 0.0
H1963 H 0.09224 0.07516 0.91289 0.0
H1964 H 0.06243 0.09294 0.99419 0.0
H1965 H 0.08245 0.09347 0.97253 0.0
C1966 C 0.79892 0.37369 0.5859 0.0
C1967 C 0.79538 0.39132 0.58461 0.0
C1968 C 0.80085 0.36676 0.603 0.0
C1969 C 0.79203 0.37457 0.6511 0.0
H1970 H 0.8257 0.34629 0.66297 0.0
C1971 C 0.80926 0.35694 0.72485 0.0
C1972 C 0.80874 0.3379 0.72626 0.0
C1973 C 0.80911 0.36378 0.70775 0.0
C1974 C 0.8162 0.35413 0.65982 0.0
H1975 H 0.79112 0.41539 0.60057 0.0
H1976 H 0.79487 0.40372 0.6299 0.0
H1977 H 0.82174 0.35684 0.63259 0.0
H1978 H 0.80866 0.31145 0.71086 0.0
H1979 H 0.80866 0.32347 0.68117 0.0
H1980 H 0.7867 0.37213 0.6784 0.0
C1981 C 0.79574 0.39488 0.6178 0.0
C1982 C 0.81383 0.36008 0.64234 0.0
C1983 C 0.79367 0.40167 0.60082 0.0
C1984 C 0.80901 0.32617 0.71031 0.0
C1985 C 0.80907 0.33308 0.69326 0.0
C1986 C 0.79455 0.36883 0.66859 0.0
C1987 C 0.79937 0.37733 0.61925 0.0
C1988 C 0.8017 0.37042 0.6377 0.0
C1989 C 0.80866 0.35183 0.69167 0.0
C1990 C 0.80664 0.35853 0.6732 0.0
H1991 H 0.80041 0.36536 0.57376 0.0
H1992 H 0.80344 0.35308 0.60345 0.0
H1993 H 0.78227 0.38209 0.64805 0.0
H1994 H 0.80906 0.3664 0.73681 0.0
H1995 H 0.80903 0.37838 0.70705 0.0
C1996 C 0.48941 0.14276 0.37937 0.0
C1997 C 0.4898 0.13174 0.36307 0.0
C1998 C 0.49473 0.13743 0.3965 0.0
C1999 C 0.51916 0.10575 0.41763 0.0
H2000 H 0.49617 0.11358 0.45892 0.0
C2001 C 0.52756 0.07155 0.48417 0.0
C2002 C 0.53948 0.08515 0.49744 0.0
C2003 C 0.51907 0.07713 0.4687 0.0
C2004 C 0.50254 0.11127 0.44738 0.0
H2005 H 0.49574 0.10636 0.35188 0.0
H2006 H 0.50422 0.09675 0.38135 0.0
H2007 H 0.48683 0.12399 0.42944 0.0
H2008 H 0.55096 0.11509 0.50601 0.0
H2009 H 0.53565 0.12489 0.47904 0.0
H2010 H 0.53447 0.09254 0.43548 0.0
C2011 C 0.50054 0.10988 0.38116 0.0
C2012 C 0.4974 0.11739 0.43063 0.0
C2013 C 0.49559 0.11539 0.36418 0.0
C2014 C 0.54196 0.10441 0.49575 0.0
C2015 C 0.53314 0.11 0.48052 0.0
C2016 C 0.52401 0.09933 0.43419 0.0
C2017 C 0.50024 0.12082 0.39756 0.0
C2018 C 0.5057 0.11472 0.41555 0.0
C2019 C 0.52204 0.09637 0.46671 0.0
C2020 C 0.51579 0.10212 0.44912 0.0
H2021 H 0.48489 0.15538 0.37888 0.0
H2022 H 0.49456 0.14632 0.40886 0.0
H2023 H 0.52617 0.10385 0.40655 0.0
H2024 H 0.52547 0.05661 0.48529 0.0
H2025 H 0.51066 0.06647 0.45799 0.0
C2026 C 0.79976 0.73455 0.09096 0.0
C2027 C 0.79062 0.74001 0.07563 0.0
C2028 C 0.79959 0.74222 0.10886 0.0
C2029 C 0.7725 0.76265 0.13561 0.0
H2030 H 0.81319 0.77553 0.17386 0.0
C2031 C 0.77073 0.79069 0.21123 0.0
C2032 C 0.7821 0.7863 0.22535 0.0
C2033 C 0.77161 0.78587 0.19269 0.0
C2034 C 0.80159 0.77171 0.16347 0.0
H2035 H 0.77471 0.75848 0.06716 0.0
H2036 H 0.77441 0.77192 0.09855 0.0
H2037 H 0.81584 0.76671 0.14223 0.0
H2038 H 0.80262 0.77255 0.2312 0.0
H2039 H 0.80351 0.76321 0.19916 0.0
H2040 H 0.75809 0.76699 0.15687 0.0
C2041 C 0.78161 0.76156 0.09662 0.0
C2042 C 0.80318 0.76679 0.14525 0.0
C2043 C 0.78194 0.75401 0.07864 0.0
C2044 C 0.79383 0.77633 0.2206 0.0
C2045 C 0.79446 0.77116 0.20216 0.0
C2046 C 0.77085 0.76735 0.15391 0.0
C2047 C 0.79016 0.75547 0.11194 0.0
C2048 C 0.78865 0.76206 0.1311 0.0
C2049 C 0.78367 0.77624 0.18787 0.0
C2050 C 0.78535 0.77177 0.16817 0.0
H2051 H 0.80659 0.72381 0.08918 0.0
H2052 H 0.80623 0.73712 0.12032 0.0
H2053 H 0.761 0.75885 0.12506 0.0
H2054 H 0.76166 0.79852 0.21453 0.0
H2055 H 0.76318 0.79023 0.18218 0.0
C2056 C 0.15685 0.05445 0.77328 0.0
C2057 C 0.14767 0.05189 0.78793 0.0
C2058 C 0.14801 0.05291 0.7554 0.0
C2059 C 0.1054 0.03874 0.72518 0.0
H2060 H 0.12335 0.08533 0.70536 0.0
C2061 C 0.08254 0.05626 0.65233 0.0
C2062 C 0.08082 0.07469 0.65155 0.0
C2063 C 0.08871 0.05088 0.66903 0.0
C2064 C 0.11817 0.07231 0.7108 0.0
H2065 H 0.1221 0.04393 0.79531 0.0
H2066 H 0.10664 0.04152 0.76398 0.0
H2067 H 0.13901 0.0788 0.73357 0.0
H2068 H 0.08312 0.10157 0.66751 0.0
H2069 H 0.09387 0.0921 0.69678 0.0
H2070 H 0.08438 0.0325 0.70232 0.0
C2071 C 0.12064 0.04462 0.76634 0.0
C2072 C 0.12725 0.06843 0.72674 0.0
C2073 C 0.12949 0.04612 0.78425 0.0
C2074 C 0.0843 0.08727 0.66781 0.0
C2075 C 0.09055 0.08192 0.68447 0.0
C2076 C 0.09636 0.04256 0.70905 0.0
C2077 C 0.12988 0.04882 0.75195 0.0
C2078 C 0.12089 0.05169 0.73413 0.0
C2079 C 0.0933 0.06391 0.68506 0.0
C2080 C 0.1026 0.05951 0.70195 0.0
H2081 H 0.17089 0.05857 0.77571 0.0
H2082 H 0.15537 0.0559 0.74441 0.0
H2083 H 0.10028 0.02577 0.73072 0.0
H2084 H 0.07972 0.04627 0.63993 0.0
H2085 H 0.09079 0.03694 0.66922 0.0
C2086 C 0.79638 0.36414 0.47343 0.0
C2087 C 0.79525 0.38257 0.47845 0.0
C2088 C 0.7953 0.35722 0.45488 0.0
C2089 C 0.80393 0.3707 0.41016 0.0
H2090 H 0.76981 0.32373 0.38957 0.0
C2091 C 0.79492 0.33786 0.33269 0.0
C2092 C 0.79011 0.31802 0.329 0.0
C2093 C 0.79548 0.34696 0.35047 0.0
C2094 C 0.77967 0.3367 0.39506 0.0
H2095 H 0.79265 0.40839 0.4679 0.0
H2096 H 0.79148 0.39654 0.43551 0.0
H2097 H 0.77135 0.33681 0.42129 0.0
H2098 H 0.78259 0.29231 0.34144 0.0
H2099 H 0.78401 0.30778 0.37193 0.0
H2100 H 0.81275 0.37025 0.38417 0.0
C2101 C 0.79278 0.38732 0.44593 0.0
C2102 C 0.78043 0.34427 0.4133 0.0
C2103 C 0.79329 0.39403 0.46446 0.0
C2104 C 0.78618 0.30761 0.34359 0.0
C2105 C 0.78683 0.31658 0.36121 0.0
C2106 C 0.8034 0.36293 0.39193 0.0
C2107 C 0.79367 0.36877 0.4409 0.0
C2108 C 0.79263 0.36128 0.42117 0.0
C2109 C 0.79126 0.33642 0.36503 0.0
C2110 C 0.79137 0.34563 0.38411 0.0
H2111 H 0.79798 0.355 0.48387 0.0
H2112 H 0.79606 0.3429 0.45147 0.0
H2113 H 0.81353 0.38382 0.41584 0.0
H2114 H 0.79812 0.34633 0.32187 0.0
H2115 H 0.79893 0.36225 0.3527 0.0
C2116 C 0.48936 0.13415 0.26371 0.0
C2117 C 0.47371 0.1392 0.26318 0.0
C2118 C 0.49173 0.12243 0.24905 0.0
C2119 C 0.4755 0.10234 0.20062 0.0
H2120 H 0.49424 0.06141 0.21587 0.0
C2121 C 0.49069 0.05172 0.14714 0.0
C2122 C 0.50834 0.05219 0.15081 0.0
C2123 C 0.48264 0.05761 0.16113 0.0
C2124 C 0.48887 0.07267 0.21143 0.0
H2125 H 0.44912 0.13774 0.246 0.0
H2126 H 0.45337 0.11741 0.2204 0.0
H2127 H 0.48922 0.08407 0.23907 0.0
H2128 H 0.53084 0.05734 0.17242 0.0
H2129 H 0.51682 0.06723 0.19667 0.0
H2130 H 0.47571 0.09135 0.17301 0.0
C2131 C 0.46367 0.12227 0.23224 0.0
C2132 C 0.48616 0.08573 0.22467 0.0
C2133 C 0.46129 0.13399 0.2469 0.0
C2134 C 0.51722 0.05667 0.16908 0.0
C2135 C 0.50915 0.06238 0.18305 0.0
C2136 C 0.47824 0.08928 0.18736 0.0
C2137 C 0.47856 0.11568 0.23357 0.0
C2138 C 0.48 0.10104 0.2194 0.0
C2139 C 0.49208 0.06384 0.17902 0.0
C2140 C 0.48548 0.0747 0.19268 0.0
H2141 H 0.49924 0.13801 0.27598 0.0
H2142 H 0.50357 0.11799 0.25015 0.0
H2143 H 0.47066 0.11395 0.19619 0.0
H2144 H 0.48337 0.04786 0.13326 0.0
H2145 H 0.46935 0.05829 0.15776 0.0
C2146 C 0.78165 0.75961 0.96989 0.0
C2147 C 0.78129 0.74064 0.97151 0.0
C2148 C 0.78384 0.76703 0.95327 0.0
C2149 C 0.77524 0.75458 0.90352 0.0
H2150 H 0.8119 0.79951 0.90218 0.0
C2151 C 0.78717 0.78313 0.83423 0.0
C2152 C 0.79393 0.80266 0.83426 0.0
C2153 C 0.78578 0.77539 0.85082 0.0
C2154 C 0.80134 0.78716 0.90222 0.0
H2155 H 0.78267 0.71452 0.95679 0.0
H2156 H 0.78566 0.72725 0.92746 0.0
H2157 H 0.8091 0.78665 0.93119 0.0
H2158 H 0.80424 0.8294 0.85182 0.0
H2159 H 0.8013 0.81618 0.88058 0.0
H2160 H 0.7669 0.75537 0.87486 0.0
C2161 C 0.78464 0.73648 0.93922 0.0
C2162 C 0.79986 0.7797 0.91893 0.0
C2163 C 0.78302 0.72922 0.95603 0.0
C2164 C 0.79904 0.81428 0.85128 0.0
C2165 C 0.79749 0.80659 0.86786 0.0
C2166 C 0.77648 0.76224 0.88687 0.0
C2167 C 0.78514 0.7555 0.93766 0.0
C2168 C 0.78682 0.76329 0.91979 0.0
C2169 C 0.79095 0.78696 0.86799 0.0
C2170 C 0.78958 0.77868 0.88587 0.0
H2171 H 0.78039 0.76879 0.98155 0.0
H2172 H 0.78413 0.78171 0.95251 0.0
H2173 H 0.76493 0.74203 0.90376 0.0
H2174 H 0.78316 0.77374 0.82137 0.0
H2175 H 0.78094 0.76022 0.85011 0.0
C2176 C 0.83005 0.17136 0.00195 0.0
C2177 C 0.82091 0.16645 0.01637 0.0
C2178 C 0.84449 0.1646 0.99974 0.0
C2179 C 0.87847 0.1488 0.02695 0.0
H2180 H 0.88428 0.12264 0.98156 0.0
C2181 C 0.92705 0.10449 0.02812 0.0
C2182 C 0.93659 0.104 0.0138 0.0
C2183 C 0.91349 0.11309 0.02683 0.0
C2184 C 0.88302 0.13018 0.99427 0.0
H2185 H 0.81959 0.15019 0.03944 0.0
H2186 H 0.8447 0.13876 0.03573 0.0
H2187 H 0.8595 0.13613 0.98189 0.0
H2188 H 0.93909 0.11192 0.98662 0.0
H2189 H 0.91546 0.12741 0.98447 0.0
H2190 H 0.90183 0.1432 0.03943 0.0
C2191 C 0.8408 0.14787 0.02618 0.0
C2192 C 0.8688 0.13786 0.99445 0.0
C2193 C 0.82634 0.15439 0.02825 0.0
C2194 C 0.93198 0.11208 0.99791 0.0
C2195 C 0.91841 0.12091 0.99666 0.0
C2196 C 0.89268 0.14136 0.02675 0.0
C2197 C 0.85018 0.15305 0.01207 0.0
C2198 C 0.86614 0.14678 0.01095 0.0
C2199 C 0.90911 0.1217 0.01124 0.0
C2200 C 0.89491 0.13142 0.01058 0.0
H2201 H 0.82615 0.18055 0.9925 0.0
H2202 H 0.85149 0.16882 0.98873 0.0
H2203 H 0.87698 0.15596 0.03978 0.0
H2204 H 0.92996 0.09798 0.04034 0.0
H2205 H 0.90633 0.11282 0.03809 0.0
C2206 C 0.36729 0.44358 0.03478 0.0
C2207 C 0.35609 0.45217 0.04312 0.0
C2208 C 0.3842 0.45384 0.03383 0.0
C2209 C 0.41886 0.4959 0.05664 0.0
H2210 H 0.439 0.49074 0.01272 0.0
C2211 C 0.4854 0.54476 0.05254 0.0
C2212 C 0.49689 0.53795 0.04311 0.0
C2213 C 0.4682 0.53427 0.05121 0.0
C2214 C 0.43373 0.49221 0.02521 0.0
H2215 H 0.3541 0.47854 0.05683 0.0
H2216 H 0.38362 0.49637 0.05533 0.0
H2217 H 0.40928 0.4727 0.01306 0.0
H2218 H 0.49919 0.51475 0.02452 0.0
H2219 H 0.46914 0.49587 0.02264 0.0
H2220 H 0.44322 0.51484 0.06909 0.0
C2221 C 0.3793 0.48161 0.04958 0.0
C2222 C 0.4166 0.48187 0.02538 0.0
C2223 C 0.36231 0.47139 0.05037 0.0
C2224 C 0.4906 0.52043 0.03188 0.0
C2225 C 0.47333 0.50964 0.0308 0.0
C2226 C 0.43599 0.50602 0.05656 0.0
C2227 C 0.39053 0.47297 0.04135 0.0
C2228 C 0.40885 0.48373 0.04105 0.0
C2229 C 0.46191 0.51628 0.04075 0.0
C2230 C 0.4437 0.50461 0.04078 0.0
H2231 H 0.36302 0.42883 0.02897 0.0
H2232 H 0.39245 0.44663 0.02754 0.0
H2233 H 0.41355 0.49739 0.06911 0.0
H2234 H 0.48975 0.55831 0.06113 0.0
H2235 H 0.45986 0.54035 0.05856 0.0
C2236 C 0.38888 0.59665 0.74786 0.0
C2237 C 0.38034 0.58776 0.73018 0.0
C2238 C 0.38615 0.61366 0.75496 0.0
C2239 C 0.37157 0.65414 0.7406 0.0
H2240 H 0.3522 0.65523 0.78547 0.0
C2241 C 0.32223 0.69428 0.74996 0.0
C2242 C 0.32268 0.70429 0.76702 0.0
C2243 C 0.33331 0.68284 0.74823 0.0
C2244 C 0.35799 0.65537 0.77318 0.0
H2245 H 0.36249 0.58973 0.70599 0.0
H2246 H 0.35783 0.61933 0.71832 0.0
H2247 H 0.36519 0.62973 0.77719 0.0
H2248 H 0.3347 0.71041 0.79576 0.0
H2249 H 0.35449 0.69021 0.79274 0.0
H2250 H 0.36377 0.67921 0.7361 0.0
C2251 C 0.36668 0.61324 0.72665 0.0
C2252 C 0.3654 0.64081 0.76845 0.0
C2253 C 0.36922 0.59622 0.71967 0.0
C2254 C 0.33423 0.70265 0.7825 0.0
C2255 C 0.34547 0.69119 0.78075 0.0
C2256 C 0.3643 0.66869 0.74536 0.0
C2257 C 0.37509 0.6221 0.74433 0.0
C2258 C 0.37142 0.63962 0.75166 0.0
C2259 C 0.3452 0.68135 0.76352 0.0
C2260 C 0.35662 0.66887 0.76117 0.0
H2261 H 0.39756 0.59043 0.75626 0.0
H2262 H 0.39272 0.62025 0.76866 0.0
H2263 H 0.37643 0.65366 0.72774 0.0
H2264 H 0.31324 0.69529 0.73795 0.0
H2265 H 0.33243 0.67497 0.73491 0.0
C2266 C 0.22447 0.64292 0.51388 0.0
C2267 C 0.22711 0.66118 0.50861 0.0
C2268 C 0.20797 0.63268 0.51612 0.0
C2269 C 0.16739 0.64059 0.52724 0.0
H2270 H 0.14811 0.58693 0.51125 0.0
C2271 C 0.10511 0.59738 0.54943 0.0
C2272 C 0.09272 0.58553 0.53516 0.0
C2273 C 0.12184 0.60583 0.54641 0.0
C2274 C 0.15333 0.60193 0.51579 0.0
H2275 H 0.21419 0.6825 0.50063 0.0
H2276 H 0.18558 0.66465 0.50452 0.0
H2277 H 0.1763 0.60304 0.50425 0.0
H2278 H 0.08837 0.57282 0.5067 0.0
H2279 H 0.11746 0.58737 0.50155 0.0
H2280 H 0.14441 0.63954 0.53867 0.0
C2281 C 0.1963 0.65837 0.50717 0.0
C2282 C 0.16951 0.61112 0.51188 0.0
C2283 C 0.21271 0.66854 0.5048 0.0
C2284 C 0.09757 0.58192 0.518 0.0
C2285 C 0.11429 0.59017 0.51506 0.0
C2286 C 0.15131 0.63137 0.53131 0.0
C2287 C 0.1938 0.64052 0.51327 0.0
C2288 C 0.17666 0.63059 0.51744 0.0
C2289 C 0.12658 0.60239 0.52914 0.0
C2290 C 0.14404 0.61196 0.52554 0.0
H2291 H 0.23524 0.63681 0.51692 0.0
H2292 H 0.20647 0.61896 0.52086 0.0
H2293 H 0.17264 0.65555 0.53193 0.0
H2294 H 0.10178 0.60049 0.56278 0.0
H2295 H 0.13108 0.61508 0.55758 0.0
C2296 C 0.66976 0.93577 0.77877 0.0
C2297 C 0.67127 0.9464 0.76396 0.0
C2298 C 0.681 0.9245 0.78284 0.0
C2299 C 0.7246 0.92263 0.77776 0.0
H2300 H 0.71091 0.87167 0.79026 0.0
C2301 C 0.77023 0.87421 0.78251 0.0
C2302 C 0.768 0.86059 0.79468 0.0
C2303 C 0.75914 0.8859 0.7806 0.0
C2304 C 0.71499 0.88604 0.78716 0.0
H2305 H 0.68469 0.95255 0.74099 0.0
H2306 H 0.70411 0.93277 0.748 0.0
H2307 H 0.68889 0.88831 0.78226 0.0
H2308 H 0.75352 0.84946 0.8155 0.0
H2309 H 0.73467 0.87055 0.81288 0.0
H2310 H 0.75065 0.92056 0.78277 0.0
C2311 C 0.69459 0.93349 0.75671 0.0
C2312 C 0.70236 0.89547 0.78247 0.0
C2313 C 0.68344 0.94474 0.75268 0.0
C2314 C 0.75543 0.85984 0.80596 0.0
C2315 C 0.74452 0.87174 0.80429 0.0
C2316 C 0.73723 0.91329 0.78262 0.0
C2317 C 0.69382 0.92374 0.77213 0.0
C2318 C 0.70706 0.91375 0.77753 0.0
C2319 C 0.74581 0.88437 0.79107 0.0
C2320 C 0.73257 0.89483 0.78722 0.0
H2321 H 0.66047 0.93682 0.78767 0.0
H2322 H 0.68018 0.91709 0.79482 0.0
H2323 H 0.72857 0.93688 0.77431 0.0
H2324 H 0.77966 0.87488 0.77343 0.0
H2325 H 0.76038 0.89532 0.77015 0.0
C2326 C 0.76327 0.97023 0.56038 0.0
C2327 C 0.76544 0.95557 0.54826 0.0
C2328 C 0.74866 0.97712 0.55705 0.0
C2329 C 0.70364 0.96599 0.53078 0.0
H2330 H 0.71036 0.01972 0.54388 0.0
C2331 C 0.64673 1.00051 0.5363 0.0
C2332 C 0.64865 0.01907 0.5319 0.0
C2333 C 0.66029 0.99181 0.5361 0.0
C2334 C 0.70817 0.00471 0.53988 0.0
H2335 H 0.75367 0.93654 0.5231 0.0
H2336 H 0.72823 0.94885 0.51706 0.0
H2337 H 0.73511 0.00669 0.5473 0.0
H2338 H 0.66644 0.04266 0.5233 0.0
H2339 H 0.6896 0.02738 0.52235 0.0
H2340 H 0.6766 0.96419 0.52304 0.0
C2341 C 0.7378 0.95487 0.52931 0.0
C2342 C 0.72243 0.99715 0.54213 0.0
C2343 C 0.75247 0.94789 0.5327 0.0
C2344 C 0.66429 0.02833 0.52663 0.0
C2345 C 0.67777 0.01963 0.52636 0.0
C2346 C 0.6893 0.9736 0.52847 0.0
C2347 C 0.73575 0.96969 0.5414 0.0
C2348 C 0.72041 0.97765 0.53787 0.0
C2349 C 0.67616 1.00141 0.53151 0.0
C2350 C 0.69135 0.99309 0.53312 0.0
H2351 H 0.77284 0.97637 0.57261 0.0
H2352 H 0.74743 0.9882 0.56694 0.0
H2353 H 0.70151 0.95089 0.52741 0.0
H2354 H 0.6348 0.99274 0.54012 0.0
H2355 H 0.65851 0.97779 0.54019 0.0
C2356 C 0.37474 0.46927 0.71209 0.0
C2357 C 0.37505 0.48617 0.72245 0.0
C2358 C 0.36887 0.45211 0.71876 0.0
C2359 C 0.34424 0.43164 0.75404 0.0
H2360 H 0.36076 0.38828 0.74002 0.0
C2361 C 0.32102 0.35962 0.77889 0.0
C2362 C 0.30847 0.34854 0.76434 0.0
C2363 C 0.33312 0.3755 0.77555 0.0
C2364 C 0.35632 0.40043 0.74421 0.0
H2365 H 0.37068 0.49902 0.74808 0.0
H2366 H 0.36135 0.46935 0.76028 0.0
H2367 H 0.37417 0.41905 0.73112 0.0
H2368 H 0.29939 0.34412 0.73487 0.0
H2369 H 0.32088 0.37189 0.72897 0.0
H2370 H 0.32662 0.41296 0.76734 0.0
C2371 C 0.36456 0.46893 0.74659 0.0
C2372 C 0.36375 0.41794 0.73893 0.0
C2373 C 0.36985 0.48594 0.73964 0.0
C2374 C 0.30883 0.35271 0.74628 0.0
C2375 C 0.32119 0.36833 0.74289 0.0
C2376 C 0.33721 0.41433 0.75969 0.0
C2377 C 0.36387 0.45177 0.73621 0.0
C2378 C 0.35742 0.43362 0.74334 0.0
C2379 C 0.33303 0.38004 0.75757 0.0
C2380 C 0.3429 0.3986 0.75441 0.0
H2381 H 0.37915 0.46938 0.69896 0.0
H2382 H 0.36823 0.43919 0.71022 0.0
H2383 H 0.33874 0.44318 0.75741 0.0
H2384 H 0.32098 0.3565 0.79292 0.0
H2385 H 0.34208 0.38463 0.78701 0.0
C2386 C 0.15763 0.55547 0.27046 0.0
C2387 C 0.16425 0.54241 0.27985 0.0
C2388 C 0.16709 0.57427 0.27248 0.0
C2389 C 0.21158 0.60429 0.28462 0.0
H2390 H 0.18771 0.64352 0.27927 0.0
C2391 C 0.24328 0.68317 0.27636 0.0
C2392 C 0.23461 0.68868 0.26077 0.0
C2393 C 0.23623 0.66583 0.28227 0.0
C2394 C 0.19455 0.63272 0.28097 0.0
H2395 H 0.1856 0.53873 0.29925 0.0
H2396 H 0.20204 0.57199 0.30329 0.0
H2397 H 0.17186 0.61235 0.28468 0.0
H2398 H 0.21259 0.68011 0.23846 0.0
H2399 H 0.20027 0.64999 0.24882 0.0
H2400 H 0.23423 0.62487 0.28056 0.0
C2401 C 0.18969 0.56754 0.29403 0.0
C2402 C 0.1855 0.61488 0.28397 0.0
C2403 C 0.18029 0.54857 0.29177 0.0
C2404 C 0.2193 0.67632 0.25074 0.0
C2405 C 0.21226 0.65917 0.25666 0.0
C2406 C 0.22072 0.62229 0.28185 0.0
C2407 C 0.18327 0.58052 0.28421 0.0
C2408 C 0.19372 0.60024 0.28498 0.0
C2409 C 0.22044 0.65399 0.27268 0.0
C2410 C 0.21203 0.63633 0.27923 0.0
H2411 H 0.1454 0.55103 0.26099 0.0
H2412 H 0.16196 0.58375 0.26431 0.0
H2413 H 0.21827 0.59329 0.28529 0.0
H2414 H 0.25509 0.69254 0.28435 0.0
H2415 H 0.24274 0.66197 0.29462 0.0
C2416 C 0.54829 0.75749 0.47039 0.0
C2417 C 0.5325 0.75788 0.45981 0.0
C2418 C 0.54975 0.74173 0.47916 0.0
C2419 C 0.52751 0.69063 0.47925 0.0
H2420 H 0.55847 0.69747 0.52601 0.0
C2421 C 0.52808 0.62961 0.52332 0.0
C2422 C 0.54434 0.62723 0.53064 0.0
C2423 C 0.52677 0.64577 0.5152 0.0
C2424 C 0.54987 0.69531 0.51289 0.0
H2425 H 0.50578 0.74197 0.45035 0.0
H2426 H 0.5081 0.71475 0.46613 0.0
H2427 H 0.55559 0.72497 0.51103 0.0
H2428 H 0.572 0.64044 0.5355 0.0
H2429 H 0.56967 0.66881 0.52157 0.0
H2430 H 0.52156 0.66096 0.4814 0.0
C2431 C 0.51955 0.72642 0.46731 0.0
C2432 C 0.54823 0.7111 0.50421 0.0
C2433 C 0.51815 0.74213 0.45834 0.0
C2434 C 0.55925 0.64177 0.53008 0.0
C2435 C 0.55792 0.65807 0.52211 0.0
C2436 C 0.529 0.67488 0.48804 0.0
C2437 C 0.53541 0.72592 0.47781 0.0
C2438 C 0.53704 0.70903 0.48722 0.0
C2439 C 0.54167 0.66014 0.51431 0.0
C2440 C 0.5402 0.677 0.50498 0.0
H2441 H 0.55967 0.76928 0.4717 0.0
H2442 H 0.56228 0.74187 0.48674 0.0
H2443 H 0.51905 0.68829 0.46603 0.0
H2444 H 0.51628 0.61876 0.52343 0.0
H2445 H 0.51404 0.64701 0.50957 0.0
C2446 C 0.62186 0.33282 0.7005 0.0
C2447 C 0.61975 0.3346 0.6816 0.0
C2448 C 0.63761 0.33112 0.71002 0.0
C2449 C 0.68431 0.33652 0.70591 0.0
H2450 H 0.68315 0.30578 0.74585 0.0
C2451 C 0.74557 0.31736 0.74116 0.0
C2452 C 0.74865 0.31989 0.76053 0.0
C2453 C 0.72965 0.31809 0.7312 0.0
C2454 C 0.68372 0.31449 0.73478 0.0
H2455 H 0.6327 0.33595 0.65793 0.0
H2456 H 0.65979 0.33241 0.67423 0.0
H2457 H 0.65619 0.30967 0.72934 0.0
H2458 H 0.73718 0.32446 0.78459 0.0
H2459 H 0.70937 0.32546 0.76727 0.0
H2460 H 0.71188 0.34096 0.7112 0.0
C2461 C 0.64954 0.3329 0.68198 0.0
C2462 C 0.66822 0.31685 0.72534 0.0
C2463 C 0.63391 0.33492 0.67255 0.0
C2464 C 0.73523 0.32247 0.76968 0.0
C2465 C 0.71925 0.32298 0.75974 0.0
C2466 C 0.69978 0.33395 0.71521 0.0
C2467 C 0.65164 0.33081 0.70086 0.0
C2468 C 0.66824 0.32806 0.71083 0.0
C2469 C 0.71634 0.32112 0.74037 0.0
C2470 C 0.69972 0.32304 0.72988 0.0
H2471 H 0.61125 0.33252 0.70793 0.0
H2472 H 0.6387 0.33 0.7246 0.0
H2473 H 0.68508 0.3455 0.69508 0.0
H2474 H 0.75563 0.31533 0.73367 0.0
H2475 H 0.72779 0.31637 0.7163 0.0
C2476 C 0.01664 0.37152 0.94694 0.0
C2477 C 0.02591 0.36004 0.9556 0.0
C2478 C 0.01845 0.38994 0.95499 0.0
C2479 C 0.03221 0.41968 1.00052 0.0
H2480 H 0.02811 0.46019 0.97152 0.0
C2481 C 0.04636 0.49751 0.03228 0.0
C2482 C 0.03486 0.50788 0.02573 0.0
C2483 C 0.04482 0.47934 0.02383 0.0
C2484 C 0.02909 0.44895 0.97977 0.0
H2485 H 0.04461 0.35862 0.97909 0.0
H2486 H 0.04841 0.39113 0.99296 0.0
H2487 H 0.02784 0.42943 0.95614 0.0
H2488 H 0.01252 0.50718 0.00533 0.0
H2489 H 0.00992 0.47532 0.99035 0.0
H2490 H 0.03381 0.4394 0.02416 0.0
C2491 C 0.03941 0.38587 0.98016 0.0
C2492 C 0.02895 0.4313 0.97098 0.0
C2493 C 0.03743 0.36735 0.97216 0.0
C2494 C 0.02153 0.49951 0.01072 0.0
C2495 C 0.02014 0.48136 0.00207 0.0
C2496 C 0.03253 0.43738 0.0093 0.0
C2497 C 0.02965 0.3973 0.97189 0.0
C2498 C 0.03046 0.41638 0.98123 0.0
C2499 C 0.03186 0.47115 0.00848 0.0
C2500 C 0.03094 0.45219 0.99903 0.0
H2501 H 0.00749 0.36598 0.93426 0.0
H2502 H 0.01052 0.39811 0.94831 0.0
H2503 H 0.03302 0.4085 0.00889 0.0
H2504 H 0.05674 0.50351 0.04386 0.0
H2505 H 0.05411 0.4719 0.02901 0.0
C2506 C 0.0059 0.83106 0.18077 0.0
C2507 C 0.01632 0.81854 0.18326 0.0
C2508 C 0.98985 0.82752 0.18667 0.0
C2509 C 0.96425 0.79909 0.21749 0.0
H2510 H 0.92612 0.81348 0.18981 0.0
C2511 C 0.89688 0.78407 0.23924 0.0
C2512 C 0.88943 0.79938 0.23963 0.0
C2513 C 0.91116 0.78446 0.23049 0.0
C2514 C 0.93666 0.80943 0.19773 0.0
H2515 H 0.01789 0.7923 0.19368 0.0
H2516 H 0.98988 0.7859 0.20348 0.0
H2517 H 0.95353 0.81823 0.1786 0.0
H2518 H 0.89101 0.82693 0.2307 0.0
H2519 H 0.91573 0.82757 0.21546 0.0
H2520 H 0.94735 0.79031 0.23662 0.0
C2521 C 0.99421 0.79875 0.19746 0.0
C2522 C 0.95244 0.81225 0.19136 0.0
C2523 C 0.01032 0.80241 0.19178 0.0
C2524 C 0.89621 0.81475 0.23046 0.0
C2525 C 0.91044 0.81513 0.2217 0.0
C2526 C 0.94844 0.79617 0.2238 0.0
C2527 C 0.98371 0.81124 0.19501 0.0
C2528 C 0.96657 0.8074 0.2013 0.0
C2529 C 0.91831 0.80016 0.2219 0.0
C2530 C 0.93453 0.80159 0.21417 0.0
H2531 H 0.01014 0.8436 0.17425 0.0
H2532 H 0.98233 0.83767 0.18482 0.0
H2533 H 0.97482 0.79536 0.22569 0.0
H2534 H 0.89182 0.77186 0.2459 0.0
H2535 H 0.91672 0.77254 0.23063 0.0
C2536 C 0.55214 0.37641 0.11809 0.0
C2537 C 0.56585 0.36875 0.11479 0.0
C2538 C 0.55093 0.39373 0.11216 0.0
C2539 C 0.57654 0.43806 0.09803 0.0
H2540 H 0.53183 0.44162 0.07398 0.0
C2541 C 0.56342 0.50862 0.07578 0.0
C2542 C 0.55339 0.50711 0.05818 0.0
C2543 C 0.56547 0.49235 0.08354 0.0
C2544 C 0.54444 0.44091 0.08065 0.0
H2545 H 0.58926 0.37375 0.10292 0.0
H2546 H 0.58723 0.40394 0.09277 0.0
H2547 H 0.53443 0.4124 0.08581 0.0
H2548 H 0.53772 0.48698 0.03509 0.0
H2549 H 0.54115 0.45897 0.04859 0.0
H2550 H 0.58653 0.46664 0.09273 0.0
C2551 C 0.57736 0.39652 0.09991 0.0
C2552 C 0.5459 0.42415 0.08759 0.0
C2553 C 0.57844 0.37908 0.10561 0.0
C2554 C 0.54552 0.48887 0.04865 0.0
C2555 C 0.5474 0.47269 0.05647 0.0
C2556 C 0.57503 0.45496 0.09128 0.0
C2557 C 0.56353 0.40407 0.10298 0.0
C2558 C 0.56199 0.42236 0.09623 0.0
C2559 C 0.55735 0.47412 0.07405 0.0
C2560 C 0.55898 0.45656 0.08227 0.0
H2561 H 0.54226 0.36897 0.1252 0.0
H2562 H 0.54018 0.39914 0.11495 0.0
H2563 H 0.58912 0.43731 0.10473 0.0
H2564 H 0.56973 0.52237 0.08356 0.0
H2565 H 0.57317 0.49403 0.09714 0.0
C2566 C 0.96893 0.29064 0.36409 0.0
C2567 C 0.97313 0.29861 0.38269 0.0
C2568 C 0.95362 0.29154 0.35306 0.0
C2569 C 0.91086 0.3011 0.35635 0.0
H2570 H 0.90968 0.30692 0.30464 0.0
C2571 C 0.85627 0.32313 0.31178 0.0
C2572 C 0.84712 0.30951 0.29684 0.0
C2573 C 0.87201 0.32179 0.32141 0.0
C2574 C 0.90987 0.30522 0.31905 0.0
H2575 H 0.96455 0.31404 0.40415 0.0
H2576 H 0.93833 0.31616 0.38493 0.0
H2577 H 0.93642 0.30462 0.32336 0.0
H2578 H 0.84753 0.28429 0.27974 0.0
H2579 H 0.8756 0.28245 0.29617 0.0
H2580 H 0.88447 0.30248 0.35205 0.0
C2581 C 0.94653 0.30869 0.37889 0.0
C2582 C 0.92513 0.30377 0.32978 0.0
C2583 C 0.9617 0.3076 0.38994 0.0
C2584 C 0.85434 0.29496 0.29122 0.0
C2585 C 0.87036 0.29392 0.30056 0.0
C2586 C 0.89577 0.30292 0.3457 0.0
C2587 C 0.94219 0.30061 0.3603 0.0
C2588 C 0.92586 0.30174 0.34863 0.0
C2589 C 0.87912 0.3071 0.31596 0.0
C2590 C 0.89516 0.30503 0.327 0.0
H2591 H 0.9774 0.28355 0.35806 0.0
H2592 H 0.95066 0.2849 0.33892 0.0
H2593 H 0.91069 0.29907 0.37063 0.0
H2594 H 0.85091 0.33438 0.31653 0.0
H2595 H 0.87857 0.3321 0.33325 0.0
C2596 C 0.04317 0.75424 0.6296 0.0
C2597 C 0.04772 0.76963 0.61961 0.0
C2598 C 0.04244 0.73584 0.62216 0.0
C2599 C 0.05794 0.70966 0.58541 0.0
H2600 H 0.02418 0.66621 0.59605 0.0
C2601 C 0.04251 0.63584 0.54354 0.0
C2602 C 0.04025 0.61976 0.55279 0.0
C2603 C 0.04453 0.65377 0.55294 0.0
C2604 C 0.03385 0.67817 0.59315 0.0
H2605 H 0.05466 0.77738 0.59361 0.0
H2606 H 0.05292 0.74531 0.58043 0.0
H2607 H 0.02462 0.69794 0.60914 0.0
H2608 H 0.03841 0.60996 0.57934 0.0
H2609 H 0.04154 0.64149 0.59587 0.0
H2610 H 0.06683 0.68986 0.56902 0.0
C2611 C 0.05027 0.7475 0.59425 0.0
C2612 C 0.03412 0.69644 0.60066 0.0
C2613 C 0.05107 0.76595 0.60173 0.0
C2614 C 0.04018 0.62209 0.57184 0.0
C2615 C 0.04188 0.64011 0.58125 0.0
C2616 C 0.05756 0.69143 0.5778 0.0
C2617 C 0.04618 0.73216 0.60444 0.0
C2618 C 0.04606 0.71253 0.59675 0.0
C2619 C 0.04407 0.65619 0.57187 0.0
C2620 C 0.0454 0.67543 0.58138 0.0
H2621 H 0.04061 0.75644 0.64346 0.0
H2622 H 0.03944 0.72458 0.6306 0.0
H2623 H 0.06766 0.72152 0.58243 0.0
H2624 H 0.04267 0.63458 0.52888 0.0
H2625 H 0.046 0.66572 0.54521 0.0
C2626 C 0.57935 0.8054 0.89344 0.0
C2627 C 0.56169 0.79746 0.88626 0.0
C2628 C 0.59188 0.8052 0.88233 0.0
C2629 C 0.60234 0.77898 0.84457 0.0
H2630 H 0.63408 0.82608 0.83836 0.0
C2631 C 0.65754 0.77948 0.80276 0.0
C2632 C 0.67351 0.79302 0.80915 0.0
C2633 C 0.64273 0.78054 0.81003 0.0
C2634 C 0.62555 0.81274 0.84014 0.0
H2635 H 0.54334 0.78275 0.86191 0.0
H2636 H 0.56542 0.78167 0.8427 0.0
H2637 H 0.61079 0.82659 0.85568 0.0
H2638 H 0.68599 0.8188 0.82781 0.0
H2639 H 0.6607 0.82002 0.84115 0.0
H2640 H 0.61751 0.76494 0.83006 0.0
C2641 C 0.56945 0.78837 0.85683 0.0
C2642 C 0.6121 0.81309 0.84995 0.0
C2643 C 0.55685 0.78903 0.8678 0.0
C2644 C 0.67409 0.80786 0.82274 0.0
C2645 C 0.65937 0.80875 0.8302 0.0
C2646 C 0.61603 0.77857 0.8351 0.0
C2647 C 0.58706 0.79662 0.86396 0.0
C2648 C 0.6005 0.79622 0.85243 0.0
C2649 C 0.64346 0.79502 0.82411 0.0
C2650 C 0.62802 0.79545 0.83294 0.0
H2651 H 0.58345 0.81209 0.90757 0.0
H2652 H 0.6054 0.81157 0.88815 0.0
H2653 H 0.59359 0.76577 0.84638 0.0
H2654 H 0.6565 0.76772 0.79244 0.0
H2655 H 0.63072 0.76987 0.80465 0.0
C2656 C 0.42948 0.55147 0.66591 0.0
C2657 C 0.43287 0.55948 0.68438 0.0
C2658 C 0.44224 0.55591 0.65506 0.0
C2659 C 0.4807 0.58961 0.64837 0.0
H2660 H 0.49484 0.54586 0.63039 0.0
C2661 C 0.53675 0.59487 0.60687 0.0
C2662 C 0.53345 0.58059 0.59197 0.0
C2663 C 0.52551 0.59353 0.61964 0.0
C2664 C 0.49093 0.55821 0.63513 0.0
H2665 H 0.45155 0.57923 0.7058 0.0
H2666 H 0.4737 0.58735 0.68656 0.0
H2667 H 0.47177 0.54186 0.64854 0.0
H2668 H 0.51611 0.55375 0.57872 0.0
H2669 H 0.49615 0.55205 0.59999 0.0
H2670 H 0.49933 0.60589 0.6343 0.0
C2671 C 0.46132 0.57754 0.68062 0.0
C2672 C 0.47778 0.55588 0.64551 0.0
C2673 C 0.44871 0.57283 0.69156 0.0
C2674 C 0.51886 0.56512 0.58994 0.0
C2675 C 0.50755 0.56396 0.60235 0.0
C2676 C 0.49368 0.59192 0.63763 0.0
C2677 C 0.45831 0.56869 0.66251 0.0
C2678 C 0.47242 0.5715 0.65191 0.0
C2679 C 0.51083 0.57798 0.61748 0.0
C2680 C 0.49865 0.57616 0.63061 0.0
H2681 H 0.41739 0.54105 0.66016 0.0
H2682 H 0.43978 0.549 0.64104 0.0
H2683 H 0.47675 0.60182 0.65343 0.0
H2684 H 0.54804 0.60686 0.60874 0.0
H2685 H 0.5284 0.60448 0.63126 0.0
C2686 C 0.79063 0.24426 0.96362 0.0
C2687 C 0.77516 0.23261 0.9671 0.0
C2688 C 0.79135 0.25085 0.94644 0.0
C2689 C 0.77355 0.24067 0.89765 0.0
H2690 H 0.78578 0.29487 0.89701 0.0
C2691 C 0.77375 0.27372 0.82879 0.0
C2692 C 0.78622 0.29089 0.82881 0.0
C2693 C 0.77138 0.26619 0.84533 0.0
C2694 C 0.78265 0.27969 0.89683 0.0
H2695 H 0.74854 0.21811 0.95532 0.0
H2696 H 0.75004 0.22889 0.92496 0.0
H2697 H 0.78459 0.28218 0.92621 0.0
H2698 H 0.80614 0.31338 0.84633 0.0
H2699 H 0.80255 0.30011 0.87469 0.0
H2700 H 0.7723 0.23803 0.8684 0.0
C2701 C 0.76146 0.23326 0.93561 0.0
C2702 C 0.78186 0.27245 0.91364 0.0
C2703 C 0.76059 0.22717 0.95296 0.0
C2704 C 0.79628 0.30023 0.84573 0.0
C2705 C 0.79409 0.29263 0.86214 0.0
C2706 C 0.7747 0.2479 0.8808 0.0
C2707 C 0.77678 0.2454 0.93226 0.0
C2708 C 0.7774 0.25289 0.91426 0.0
C2709 C 0.78156 0.27553 0.86231 0.0
C2710 C 0.77943 0.26757 0.88012 0.0
H2711 H 0.802 0.24866 0.97432 0.0
H2712 H 0.80332 0.26017 0.94419 0.0
H2713 H 0.77006 0.2255 0.89775 0.0
H2714 H 0.76574 0.26614 0.81602 0.0
H2715 H 0.76144 0.25314 0.84477 0.0
C2716 C 0.09597 0.47774 0.208 0.0
C2717 C 0.114 0.48237 0.21379 0.0
C2718 C 0.08899 0.48433 0.1923 0.0
C2719 C 0.09831 0.52428 0.16683 0.0
H2720 H 0.0621 0.49319 0.12834 0.0
C2721 C 0.07002 0.5533 0.10226 0.0
C2722 C 0.05225 0.54573 0.09555 0.0
C2723 C 0.07827 0.54576 0.11657 0.0
C2724 C 0.07204 0.50213 0.13911 0.0
H2725 H 0.13884 0.49667 0.20709 0.0
H2726 H 0.12655 0.50827 0.17987 0.0
H2727 H 0.07494 0.47853 0.15301 0.0
H2728 H 0.02896 0.52521 0.09907 0.0
H2729 H 0.04308 0.51265 0.12437 0.0
H2730 H 0.09504 0.548 0.15334 0.0
C2731 C 0.1179 0.49961 0.18751 0.0
C2732 C 0.07943 0.49369 0.15314 0.0
C2733 C 0.12489 0.49277 0.20299 0.0
C2734 C 0.04274 0.53112 0.1038 0.0
C2735 C 0.05087 0.52381 0.11821 0.0
C2736 C 0.09074 0.5328 0.15292 0.0
C2737 C 0.09991 0.49584 0.18232 0.0
C2738 C 0.09256 0.50468 0.16712 0.0
C2739 C 0.06879 0.53071 0.12449 0.0
C2740 C 0.07741 0.52182 0.13898 0.0
H2741 H 0.08727 0.46982 0.21607 0.0
H2742 H 0.07504 0.48126 0.18851 0.0
H2743 H 0.10832 0.53306 0.17764 0.0
H2744 H 0.07757 0.56471 0.09621 0.0
H2745 H 0.09211 0.55137 0.12106 0.0
C2746 C 0.79439 0.86407 0.48745 0.0
C2747 C 0.7961 0.88322 0.4933 0.0
C2748 C 0.79219 0.8575 0.46869 0.0
C2749 C 0.80663 0.86907 0.42796 0.0
H2750 H 0.76494 0.83481 0.39914 0.0
C2751 C 0.80332 0.84432 0.35064 0.0
C2752 C 0.79201 0.82682 0.34266 0.0
C2753 C 0.80317 0.85167 0.36871 0.0
C2754 C 0.77687 0.84406 0.40697 0.0
H2755 H 0.79671 0.91045 0.4841 0.0
H2756 H 0.79355 0.89902 0.45126 0.0
H2757 H 0.76527 0.84633 0.43111 0.0
H2758 H 0.77212 0.80295 0.34746 0.0
H2759 H 0.7727 0.81488 0.37929 0.0
H2760 H 0.81875 0.86611 0.40458 0.0
C2761 C 0.79351 0.8891 0.46123 0.0
C2762 C 0.77691 0.85083 0.42527 0.0
C2763 C 0.79521 0.89558 0.47997 0.0
C2764 C 0.78089 0.81656 0.35325 0.0
C2765 C 0.78111 0.8236 0.37151 0.0
C2766 C 0.80677 0.86193 0.40983 0.0
C2767 C 0.79215 0.87004 0.45547 0.0
C2768 C 0.79178 0.86341 0.43589 0.0
C2769 C 0.79206 0.84144 0.37952 0.0
C2770 C 0.79189 0.84926 0.39896 0.0
H2771 H 0.79507 0.85425 0.49742 0.0
H2772 H 0.7912 0.84275 0.46453 0.0
H2773 H 0.81831 0.87864 0.43598 0.0
H2774 H 0.81186 0.85266 0.34268 0.0
H2775 H 0.81155 0.8656 0.37396 0.0
C2776 C 0.43399 0.5585 0.79185 0.0
C2777 C 0.43481 0.54318 0.77968 0.0
C2778 C 0.44507 0.5634 0.80888 0.0
C2779 C 0.48765 0.55991 0.82917 0.0
H2780 H 0.47438 0.56907 0.87658 0.0
C2781 C 0.52195 0.54567 0.89633 0.0
C2782 C 0.52003 0.55512 0.9128 0.0
C2783 C 0.51552 0.55076 0.87958 0.0
C2784 C 0.47843 0.56714 0.8634 0.0
H2785 H 0.44628 0.51975 0.77629 0.0
H2786 H 0.46537 0.52813 0.80606 0.0
H2787 H 0.45271 0.56326 0.84867 0.0
H2788 H 0.51248 0.57882 0.92518 0.0
H2789 H 0.50151 0.58801 0.8958 0.0
H2790 H 0.51318 0.56304 0.84384 0.0
C2791 C 0.45668 0.53673 0.80224 0.0
C2792 C 0.46597 0.56366 0.84749 0.0
C2793 C 0.44572 0.5319 0.78529 0.0
C2794 C 0.5138 0.57123 0.91249 0.0
C2795 C 0.50749 0.57641 0.89575 0.0
C2796 C 0.50011 0.56348 0.84504 0.0
C2797 C 0.45697 0.55296 0.81378 0.0
C2798 C 0.47038 0.55931 0.83036 0.0
C2799 C 0.50722 0.5654 0.87922 0.0
C2800 C 0.49548 0.56643 0.86235 0.0
H2801 H 0.42557 0.56732 0.7878 0.0
H2802 H 0.44498 0.57586 0.81774 0.0
H2803 H 0.49137 0.55697 0.81598 0.0
H2804 H 0.52672 0.5332 0.89637 0.0
H2805 H 0.51546 0.54196 0.86706 0.0
C2806 C 0.78385 0.24783 0.07614 0.0
C2807 C 0.78654 0.22985 0.07238 0.0
C2808 C 0.78476 0.25578 0.09435 0.0
C2809 C 0.80022 0.251 0.14373 0.0
H2810 H 0.76926 0.28171 0.15329 0.0
C2811 C 0.79559 0.28049 0.2184 0.0
C2812 C 0.79508 0.29946 0.22085 0.0
C2813 C 0.79377 0.27091 0.20058 0.0
C2814 C 0.77809 0.27326 0.1509 0.0
H2815 H 0.79243 0.20626 0.08514 0.0
H2816 H 0.79371 0.21988 0.11657 0.0
H2817 H 0.76812 0.26774 0.12195 0.0
H2818 H 0.79212 0.32312 0.20645 0.0
H2819 H 0.78887 0.30661 0.17573 0.0
H2820 H 0.81007 0.2565 0.17279 0.0
C2821 C 0.79122 0.22809 0.10556 0.0
C2822 C 0.7775 0.26529 0.13282 0.0
C2823 C 0.79041 0.22021 0.0874 0.0
C2824 C 0.79252 0.30849 0.20511 0.0
C2825 C 0.79053 0.29895 0.1874 0.0
C2826 C 0.80072 0.2589 0.16185 0.0
C2827 C 0.78828 0.24597 0.10937 0.0
C2828 C 0.78869 0.25418 0.12885 0.0
C2829 C 0.79123 0.28005 0.1848 0.0
C2830 C 0.78981 0.27036 0.16569 0.0
H2831 H 0.78083 0.25571 0.065 0.0
H2832 H 0.78273 0.26971 0.0966 0.0
H2833 H 0.80921 0.24276 0.14136 0.0
H2834 H 0.79792 0.27325 0.2302 0.0
H2835 H 0.79434 0.25635 0.19915 0.0
C2836 C 0.09221 0.50116 0.31478 0.0
C2837 C 0.10737 0.49534 0.31422 0.0
C2838 C 0.09058 0.51216 0.33032 0.0
C2839 C 0.10745 0.52917 0.37913 0.0
H2840 H 0.09011 0.57187 0.36665 0.0
C2841 C 0.09148 0.5768 0.43494 0.0
C2842 C 0.07375 0.57601 0.4311 0.0
C2843 C 0.09995 0.57194 0.42089 0.0
C2844 C 0.09515 0.56014 0.37034 0.0
H2845 H 0.13201 0.49495 0.33004 0.0
H2846 H 0.12902 0.51413 0.35741 0.0
H2847 H 0.09513 0.55049 0.34228 0.0
H2848 H 0.05164 0.57167 0.40913 0.0
H2849 H 0.06646 0.56382 0.38479 0.0
H2850 H 0.10679 0.53841 0.40714 0.0
C2851 C 0.1185 0.51025 0.34575 0.0
C2852 C 0.09786 0.54781 0.35642 0.0
C2853 C 0.12012 0.49914 0.33015 0.0
C2854 C 0.0653 0.57255 0.41267 0.0
C2855 C 0.07382 0.56797 0.39864 0.0
C2856 C 0.10472 0.54152 0.39308 0.0
C2857 C 0.10408 0.51761 0.34557 0.0
C2858 C 0.10338 0.5318 0.36063 0.0
C2859 C 0.09091 0.56661 0.40275 0.0
C2860 C 0.09791 0.5567 0.38873 0.0
H2861 H 0.08213 0.49831 0.30273 0.0
H2862 H 0.07906 0.51716 0.33007 0.0
H2863 H 0.11181 0.517 0.38273 0.0
H2864 H 0.09851 0.57996 0.44896 0.0
H2865 H 0.11325 0.57132 0.42434 0.0
C2866 C 0.79135 0.87325 0.59671 0.0
C2867 C 0.79926 0.89276 0.59818 0.0
C2868 C 0.78856 0.86441 0.61252 0.0
C2869 C 0.80473 0.86958 0.66273 0.0
H2870 H 0.76098 0.83388 0.66447 0.0
C2871 C 0.78932 0.84074 0.73069 0.0
C2872 C 0.77963 0.82186 0.72982 0.0
C2873 C 0.7916 0.84908 0.71457 0.0
C2874 C 0.77339 0.8436 0.66419 0.0
H2875 H 0.81056 0.91818 0.61758 0.0
H2876 H 0.80611 0.90275 0.64503 0.0
H2877 H 0.76514 0.84869 0.63659 0.0
H2878 H 0.76467 0.797 0.71119 0.0
H2879 H 0.7687 0.81142 0.68307 0.0
H2880 H 0.81314 0.86438 0.69013 0.0
C2881 C 0.80192 0.89426 0.63167 0.0
C2882 C 0.77575 0.85214 0.64816 0.0
C2883 C 0.80439 0.90315 0.61588 0.0
C2884 C 0.77225 0.81155 0.71238 0.0
C2885 C 0.77447 0.81992 0.69622 0.0
C2886 C 0.80243 0.86094 0.67869 0.0
C2887 C 0.79394 0.87476 0.63025 0.0
C2888 C 0.79143 0.86534 0.64722 0.0
C2889 C 0.78421 0.83884 0.69703 0.0
C2890 C 0.78669 0.84786 0.67976 0.0
H2891 H 0.78715 0.86481 0.58332 0.0
H2892 H 0.78245 0.84936 0.61087 0.0
H2893 H 0.81708 0.87943 0.66245 0.0
H2894 H 0.79512 0.84915 0.74389 0.0
H2895 H 0.79896 0.86373 0.71592 0.0
C2896 C 0.75545 0.47002 0.5725 0.0
C2897 C 0.75568 0.46083 0.55509 0.0
C2898 C 0.74213 0.47838 0.57526 0.0
C2899 C 0.69756 0.47898 0.55377 0.0
H2900 H 0.70785 0.52648 0.58562 0.0
C2901 C 0.65133 0.52678 0.54968 0.0
C2902 C 0.64882 0.53618 0.56599 0.0
C2903 C 0.6639 0.51679 0.54999 0.0
C2904 C 0.7047 0.51309 0.57687 0.0
H2905 H 0.74214 0.45346 0.52689 0.0
H2906 H 0.71926 0.46854 0.53147 0.0
H2907 H 0.73072 0.51078 0.58288 0.0
H2908 H 0.65764 0.54227 0.59553 0.0
H2909 H 0.67971 0.52477 0.59606 0.0
H2910 H 0.67166 0.48152 0.54745 0.0
C2911 C 0.72909 0.46886 0.54319 0.0
C2912 C 0.71783 0.50405 0.57528 0.0
C2913 C 0.74231 0.46032 0.54049 0.0
C2914 C 0.6593 0.53533 0.58268 0.0
C2915 C 0.67195 0.5253 0.58299 0.0
C2916 C 0.6845 0.48806 0.55527 0.0
C2917 C 0.72873 0.47795 0.56064 0.0
C2918 C 0.71453 0.48703 0.56342 0.0
C2919 C 0.67438 0.51588 0.56662 0.0
C2920 C 0.68796 0.50542 0.56655 0.0
H2921 H 0.76547 0.47053 0.58411 0.0
H2922 H 0.74222 0.48496 0.58895 0.0
H2923 H 0.69432 0.46564 0.54494 0.0
H2924 H 0.64382 0.52748 0.53652 0.0
H2925 H 0.66565 0.51009 0.53707 0.0
C2926 C 0.22705 0.14684 0.51383 0.0
C2927 C 0.23143 0.16665 0.51461 0.0
C2928 C 0.21016 0.13666 0.51505 0.0
C2929 C 0.17097 0.1406 0.533 0.0
H2930 H 0.14685 0.09834 0.49581 0.0
C2931 C 0.09743 0.10198 0.52835 0.0
C2932 C 0.09148 0.08311 0.52003 0.0
C2933 C 0.11479 0.11225 0.52904 0.0
C2934 C 0.15339 0.10979 0.50665 0.0
H2935 H 0.22144 0.19123 0.5177 0.0
H2936 H 0.19221 0.17351 0.52024 0.0
H2937 H 0.17637 0.11544 0.49459 0.0
H2938 H 0.09921 0.05986 0.50711 0.0
H2939 H 0.12933 0.07696 0.50947 0.0
H2940 H 0.14823 0.13471 0.54545 0.0
C2941 C 0.20178 0.16585 0.51846 0.0
C2942 C 0.17039 0.11971 0.5058 0.0
C2943 C 0.21851 0.17598 0.51681 0.0
C2944 C 0.10337 0.07445 0.51342 0.0
C2945 C 0.12069 0.08445 0.51455 0.0
C2946 C 0.15403 0.13042 0.5341 0.0
C2947 C 0.19736 0.14606 0.51756 0.0
C2948 C 0.17939 0.13528 0.5189 0.0
C2949 C 0.12666 0.10373 0.52175 0.0
C2950 C 0.1449 0.11478 0.52092 0.0
H2951 H 0.23668 0.13921 0.51226 0.0
H2952 H 0.20719 0.12142 0.51435 0.0
H2953 H 0.1776 0.1525 0.54338 0.0
H2954 H 0.0885 0.10907 0.53342 0.0
H2955 H 0.11866 0.12703 0.53464 0.0
C2956 C 0.19576 0.02235 0.80723 0.0
C2957 C 0.19995 0.02602 0.82649 0.0
C2958 C 0.1971 0.0057 0.79808 0.0
C2959 C 0.2035 0.9587 0.80402 0.0
H2960 H 0.23193 0.96923 0.76631 0.0
C2961 C 0.25166 0.91811 0.79108 0.0
C2962 C 0.25517 0.91441 0.77338 0.0
C2963 C 0.24022 0.92876 0.79407 0.0
C2964 C 0.22357 0.96586 0.77639 0.0
H2965 H 0.20769 0.01504 0.85158 0.0
H2966 H 0.21095 0.98586 0.83544 0.0
H2967 H 0.2199 0.99355 0.77895 0.0
H2968 H 0.24965 0.91876 0.74481 0.0
H2969 H 0.22928 0.93765 0.75004 0.0
H2970 H 0.20782 0.93123 0.80195 0.0
C2971 C 0.2063 0.99577 0.82745 0.0
C2972 C 0.21673 0.97981 0.78371 0.0
C2973 C 0.20466 0.01244 0.83668 0.0
C2974 C 0.24708 0.92155 0.75858 0.0
C2975 C 0.23545 0.93221 0.76157 0.0
C2976 C 0.21024 0.94469 0.7966 0.0
C2977 C 0.20292 0.99253 0.80804 0.0
C2978 C 0.20727 0.97661 0.79814 0.0
C2979 C 0.23193 0.93586 0.77938 0.0
C2980 C 0.22106 0.9485 0.7834 0.0
H2981 H 0.19155 0.03251 0.79921 0.0
H2982 H 0.19406 0.00336 0.78318 0.0
H2983 H 0.19593 0.95578 0.81485 0.0
H2984 H 0.25804 0.91301 0.80273 0.0
H2985 H 0.23828 0.93189 0.80805 0.0
C2986 C 0.3525 0.95841 0.02178 0.0
C2987 C 0.34308 0.96024 0.03599 0.0
C2988 C 0.3695 0.96947 0.02331 0.0
C2989 C 0.40829 0.9912 0.05556 0.0
H2990 H 0.42191 0.02242 0.01791 0.0
C2991 C 0.4796 0.03361 0.05769 0.0
C2992 C 0.48536 0.03415 0.04068 0.0
C2993 C 0.46201 0.0263 0.05836 0.0
C2994 C 0.4184 0.01361 0.02845 0.0
H2995 H 0.34396 0.97482 0.06297 0.0
H2996 H 0.3741 0.99375 0.06591 0.0
H2997 H 0.39146 0.00624 0.01648 0.0
H2998 H 0.47712 0.02711 0.01106 0.0
H2999 H 0.44688 0.01403 0.01227 0.0
H3000 H 0.43525 0.99767 0.06704 0.0
C3001 C 0.36813 0.98402 0.05349 0.0
C3002 C 0.40095 0.00449 0.02766 0.0
C3003 C 0.35093 0.97333 0.05175 0.0
C3004 C 0.47318 0.02714 0.02443 0.0
C3005 C 0.45572 0.01973 0.0251 0.0
C3006 C 0.42583 1.00007 0.05618 0.0
C3007 C 0.37752 0.98216 0.03927 0.0
C3008 C 0.39578 0.99304 0.04107 0.0
C3009 C 0.44984 0.01929 0.04204 0.0
C3010 C 0.43113 0.01115 0.04244 0.0
H3011 H 0.34673 0.9484 0.00952 0.0
H3012 H 0.37656 0.96777 0.01221 0.0
H3013 H 0.40456 0.9823 0.06597 0.0
H3014 H 0.48863 0.0389 0.07048 0.0
H3015 H 0.45794 0.02631 0.07165 0.0
C3016 C 0.90856 0.69896 0.8126 0.0
C3017 C 0.9096 0.685 0.799 0.0
C3018 C 0.89585 0.70868 0.80953 0.0
C3019 C 0.85353 0.70413 0.78001 0.0
H3020 H 0.86251 0.75728 0.79794 0.0
C3021 C 0.80992 0.75369 0.75925 0.0
C3022 C 0.80596 0.76351 0.77436 0.0
C3023 C 0.82154 0.74261 0.76214 0.0
C3024 C 0.85988 0.7424 0.79294 0.0
H3025 H 0.89878 0.67083 0.77127 0.0
H3026 H 0.87713 0.68812 0.76573 0.0
H3027 H 0.88576 0.74171 0.80319 0.0
H3028 H 0.81063 0.76978 0.80408 0.0
H3029 H 0.83131 0.75084 0.8091 0.0
H3030 H 0.82773 0.70512 0.76932 0.0
C3031 C 0.88566 0.6912 0.77896 0.0
C3032 C 0.87312 0.73347 0.79603 0.0
C3033 C 0.89819 0.68141 0.78209 0.0
C3034 C 0.81333 0.76192 0.7923 0.0
C3035 C 0.82522 0.7513 0.79516 0.0
C3036 C 0.84038 0.71315 0.77669 0.0
C3037 C 0.88411 0.70468 0.79275 0.0
C3038 C 0.87008 0.71423 0.78961 0.0
C3039 C 0.82962 0.74185 0.7801 0.0
C3040 C 0.84347 0.7323 0.78322 0.0
H3041 H 0.91716 0.70191 0.82579 0.0
H3042 H 0.89491 0.7189 0.82048 0.0
H3043 H 0.85066 0.68919 0.77521 0.0
H3044 H 0.8045 0.75509 0.74534 0.0
H3045 H 0.82487 0.73542 0.75037 0.0
C3046 C 0.83995 0.67744 0.02656 0.0
C3047 C 0.82756 0.6727 0.03803 0.0
C3048 C 0.85534 0.67179 0.02944 0.0
C3049 C 0.8841 0.65475 0.06425 0.0
H3050 H 0.89864 0.63355 0.02146 0.0
C3051 C 0.94771 0.62957 0.06567 0.0
C3052 C 0.94503 0.61145 0.05609 0.0
C3053 C 0.93423 0.63852 0.06457 0.0
C3054 C 0.89478 0.63948 0.03356 0.0
H3055 H 0.82187 0.6585 0.06176 0.0
H3056 H 0.84852 0.64855 0.06663 0.0
H3057 H 0.87367 0.64656 0.01741 0.0
H3058 H 0.92633 0.5886 0.03783 0.0
H3059 H 0.90307 0.60431 0.03553 0.0
H3060 H 0.90519 0.6473 0.08036 0.0
C3061 C 0.84644 0.65677 0.05549 0.0
C3062 C 0.88054 0.64709 0.03123 0.0
C3063 C 0.83104 0.66233 0.05256 0.0
C3064 C 0.92871 0.6025 0.04544 0.0
C3065 C 0.91544 0.61156 0.04403 0.0
C3066 C 0.89852 0.6473 0.06657 0.0
C3067 C 0.85878 0.66134 0.04393 0.0
C3068 C 0.8748 0.65455 0.04654 0.0
C3069 C 0.91803 0.6297 0.05347 0.0
C3070 C 0.9038 0.63926 0.05123 0.0
H3071 H 0.8378 0.68559 0.01538 0.0
H3072 H 0.86462 0.67574 0.02038 0.0
H3073 H 0.88017 0.66057 0.07635 0.0
H3074 H 0.96018 0.63674 0.07401 0.0
H3075 H 0.9366 0.6525 0.07201 0.0
C3076 C 0.21329 0.13597 0.85109 0.0
C3077 C 0.19582 0.12683 0.84424 0.0
C3078 C 0.22054 0.15396 0.84679 0.0
C3079 C 0.21771 0.18046 0.80929 0.0
H3080 H 0.2471 0.22297 0.84355 0.0
C3081 C 0.25898 0.24724 0.78554 0.0
C3082 C 0.27587 0.25394 0.79559 0.0
C3083 C 0.24676 0.23333 0.79176 0.0
C3084 C 0.23896 0.21118 0.83382 0.0
H3085 H 0.17197 0.12963 0.82836 0.0
H3086 H 0.18487 0.16085 0.82052 0.0
H3087 H 0.22998 0.19579 0.8553 0.0
H3088 H 0.29357 0.25101 0.81946 0.0
H3089 H 0.2726 0.22636 0.82989 0.0
H3090 H 0.22748 0.1952 0.78783 0.0
C3091 C 0.19282 0.15414 0.82931 0.0
C3092 C 0.22915 0.19577 0.84056 0.0
C3093 C 0.18549 0.13635 0.83388 0.0
C3094 C 0.28055 0.24621 0.81157 0.0
C3095 C 0.26848 0.23225 0.81766 0.0
C3096 C 0.22773 0.19578 0.80254 0.0
C3097 C 0.21045 0.16283 0.83539 0.0
C3098 C 0.21879 0.18017 0.82835 0.0
C3099 C 0.2514 0.22587 0.80801 0.0
C3100 C 0.23883 0.21102 0.81479 0.0
H3101 H 0.2215 0.12893 0.85911 0.0
H3102 H 0.23425 0.16047 0.8515 0.0
H3103 H 0.20985 0.16841 0.79968 0.0
H3104 H 0.25518 0.25286 0.77302 0.0
H3105 H 0.23369 0.22861 0.78402 0.0
C3106 C 0.42496 0.07556 0.29774 0.0
C3107 C 0.42057 0.09095 0.30649 0.0
C3108 C 0.41263 0.05824 0.29254 0.0
C3109 C 0.37256 0.02943 0.30275 0.0
H3110 H 0.36733 0.00364 0.25342 0.0
C3111 C 0.32614 0.95705 0.28356 0.0
C3112 C 0.33448 0.94371 0.27755 0.0
C3113 C 0.33315 0.97617 0.28262 0.0
C3114 C 0.36861 0.01074 0.26719 0.0
H3115 H 0.40014 0.10011 0.31738 0.0
H3116 H 0.37864 0.0696 0.3086 0.0
H3117 H 0.38794 0.03478 0.2625 0.0
H3118 H 0.35506 0.93931 0.26346 0.0
H3119 H 0.36761 0.97271 0.26225 0.0
H3120 H 0.35395 0.00523 0.30786 0.0
C3121 C 0.39157 0.07109 0.3056 0.0
C3122 C 0.38042 0.02845 0.2724 0.0
C3123 C 0.40384 0.08849 0.31061 0.0
C3124 C 0.34867 0.94946 0.26859 0.0
C3125 C 0.35573 0.96857 0.26772 0.0
C3126 C 0.36086 0.01173 0.2976 0.0
C3127 C 0.39578 0.05596 0.29621 0.0
C3128 C 0.38265 0.03777 0.29031 0.0
C3129 C 0.34862 0.98215 0.27574 0.0
C3130 C 0.35893 0.00208 0.27986 0.0
H3131 H 0.43776 0.07705 0.29435 0.0
H3132 H 0.41624 0.04664 0.28559 0.0
H3133 H 0.37422 0.03627 0.3167 0.0
H3134 H 0.31509 0.95294 0.2904 0.0
H3135 H 0.32721 0.98637 0.28851 0.0
C3136 C 0.56157 0.39199 0.6267 0.0
C3137 C 0.56815 0.37948 0.61623 0.0
C3138 C 0.5582 0.40807 0.61968 0.0
C3139 C 0.54795 0.42785 0.57677 0.0
H3140 H 0.56782 0.47683 0.60609 0.0
C3141 C 0.53234 0.49809 0.55741 0.0
C3142 C 0.54684 0.51371 0.55873 0.0
C3143 C 0.53416 0.48121 0.56395 0.0
C3144 C 0.56215 0.46325 0.59774 0.0
H3145 H 0.5759 0.37384 0.58997 0.0
H3146 H 0.56947 0.4015 0.57753 0.0
H3147 H 0.57216 0.44833 0.61853 0.0
H3148 H 0.57468 0.52357 0.56798 0.0
H3149 H 0.57768 0.49446 0.57958 0.0
H3150 H 0.53782 0.44281 0.55603 0.0
C3151 C 0.56715 0.39902 0.59126 0.0
C3152 C 0.56455 0.44692 0.60492 0.0
C3153 C 0.57092 0.38322 0.59844 0.0
C3154 C 0.56318 0.51191 0.56664 0.0
C3155 C 0.56492 0.49522 0.57344 0.0
C3156 C 0.54524 0.44418 0.56973 0.0
C3157 C 0.5609 0.41175 0.60185 0.0
C3158 C 0.55764 0.42902 0.59446 0.0
C3159 C 0.55045 0.47967 0.5723 0.0
C3160 C 0.55249 0.46212 0.58004 0.0
H3161 H 0.55934 0.38956 0.64047 0.0
H3162 H 0.55335 0.41756 0.62817 0.0
H3163 H 0.54239 0.41427 0.5684 0.0
H3164 H 0.51957 0.49894 0.55143 0.0
H3165 H 0.52274 0.4695 0.5629 0.0
C3166 C 0.46243 0.82234 0.36185 0.0
C3167 C 0.46514 0.80734 0.37141 0.0
C3168 C 0.44584 0.82213 0.35299 0.0
C3169 C 0.40333 0.78984 0.33258 0.0
H3170 H 0.38653 0.83461 0.33671 0.0
C3171 C 0.33356 0.78631 0.29947 0.0
C3172 C 0.3301 0.80206 0.29193 0.0
C3173 C 0.34954 0.78765 0.31042 0.0
C3174 C 0.39104 0.82202 0.33515 0.0
H3175 H 0.45237 0.78032 0.37908 0.0
H3176 H 0.42346 0.77979 0.36335 0.0
H3177 H 0.41529 0.83548 0.35296 0.0
H3178 H 0.34062 0.83171 0.29013 0.0
H3179 H 0.36894 0.83402 0.30857 0.0
H3180 H 0.37961 0.77648 0.31432 0.0
C3181 C 0.43423 0.79173 0.36272 0.0
C3182 C 0.40755 0.82252 0.34457 0.0
C3183 C 0.45081 0.79204 0.37175 0.0
C3184 C 0.3429 0.81937 0.29587 0.0
C3185 C 0.35914 0.82065 0.30653 0.0
C3186 C 0.38697 0.78941 0.32297 0.0
C3187 C 0.43151 0.80681 0.35328 0.0
C3188 C 0.41388 0.8064 0.34345 0.0
C3189 C 0.36281 0.8047 0.31376 0.0
C3190 C 0.38045 0.80544 0.32414 0.0
H3191 H 0.47313 0.83441 0.36135 0.0
H3192 H 0.44428 0.83387 0.3457 0.0
H3193 H 0.40788 0.77726 0.33114 0.0
H3194 H 0.32383 0.77284 0.29691 0.0
H3195 H 0.35144 0.77518 0.31617 0.0
C3196 C 0.05792 0.77335 0.10078 0.0
C3197 C 0.05162 0.77679 0.1171 0.0
C3198 C 0.05815 0.75498 0.09424 0.0
C3199 C 0.05948 0.71003 0.11215 0.0
H3200 H 0.05016 0.68877 0.06076 0.0
C3201 C 0.05044 0.63104 0.08837 0.0
C3202 C 0.05824 0.62634 0.07359 0.0
C3203 C 0.05085 0.64982 0.09367 0.0
C3204 C 0.05302 0.69464 0.07515 0.0
H3205 H 0.03937 0.76337 0.13851 0.0
H3206 H 0.03956 0.73159 0.12701 0.0
H3207 H 0.04706 0.72048 0.06912 0.0
H3208 H 0.0724 0.63729 0.05253 0.0
H3209 H 0.07294 0.67035 0.06162 0.0
H3210 H 0.06521 0.68416 0.11822 0.0
C3211 C 0.04477 0.74306 0.11951 0.0
C3212 C 0.05121 0.71277 0.07994 0.0
C3213 C 0.04453 0.76132 0.12602 0.0
C3214 C 0.06664 0.64071 0.06424 0.0
C3215 C 0.06674 0.65953 0.06929 0.0
C3216 C 0.06121 0.69193 0.10738 0.0
C3217 C 0.05211 0.73973 0.10391 0.0
C3218 C 0.05426 0.72061 0.09852 0.0
C3219 C 0.0587 0.66424 0.08397 0.0
C3220 C 0.05788 0.68396 0.08885 0.0
H3221 H 0.06348 0.78493 0.09359 0.0
H3222 H 0.06387 0.75289 0.08215 0.0
H3223 H 0.06235 0.71578 0.12657 0.0
H3224 H 0.04367 0.62008 0.09556 0.0
H3225 H 0.04441 0.65297 0.10491 0.0
C3226 C 0.06771 0.29109 0.87109 0.0
C3227 C 0.06539 0.30502 0.88393 0.0
C3228 C 0.08309 0.29361 0.86405 0.0
C3229 C 0.12937 0.32123 0.87221 0.0
H3230 H 0.12596 0.29936 0.82179 0.0
C3231 C 0.18778 0.3263 0.83207 0.0
C3232 C 0.18811 0.30896 0.82266 0.0
C3233 C 0.17361 0.32772 0.84047 0.0
C3234 C 0.12716 0.3055 0.83592 0.0
H3235 H 0.07762 0.33263 0.8995 0.0
H3236 H 0.10448 0.33729 0.88679 0.0
H3237 H 0.09974 0.29906 0.83412 0.0
H3238 H 0.17377 0.27957 0.81488 0.0
H3239 H 0.14921 0.28207 0.82937 0.0
H3240 H 0.15702 0.32785 0.87367 0.0
C3241 C 0.0944 0.32424 0.88237 0.0
C3242 C 0.11209 0.30526 0.84306 0.0
C3243 C 0.07895 0.32164 0.88956 0.0
C3244 C 0.17408 0.29308 0.82214 0.0
C3245 C 0.1599 0.29456 0.8303 0.0
C3246 C 0.14454 0.32167 0.86493 0.0
C3247 C 0.09664 0.31025 0.86942 0.0
C3248 C 0.11292 0.31261 0.86147 0.0
C3249 C 0.15936 0.31191 0.83936 0.0
C3250 C 0.14356 0.31334 0.84683 0.0
H3251 H 0.0577 0.27799 0.86659 0.0
H3252 H 0.0844 0.28225 0.85454 0.0
H3253 H 0.13058 0.32701 0.88644 0.0
H3254 H 0.19843 0.33878 0.83283 0.0
H3255 H 0.17355 0.34128 0.84735 0.0
C3256 C 0.51965 0.73018 0.94017 0.0
C3257 C 0.52791 0.74689 0.95225 0.0
C3258 C 0.51923 0.71234 0.94584 0.0
C3259 C 0.522 0.68779 0.9872 0.0
H3260 H 0.53724 0.65117 0.95768 0.0
C3261 C 0.53882 0.62388 0.01775 0.0
C3262 C 0.53568 0.60648 0.00658 0.0
C3263 C 0.5365 0.64004 0.01022 0.0
C3264 C 0.53266 0.66103 0.966 0.0
H3265 H 0.54178 0.75784 0.97989 0.0
H3266 H 0.54043 0.72686 0.98999 0.0
H3267 H 0.53522 0.68085 0.94622 0.0
H3268 H 0.52754 0.59272 0.97842 0.0
H3269 H 0.52327 0.62092 0.96527 0.0
H3270 H 0.51914 0.66811 0.00686 0.0
C3271 C 0.53449 0.7275 0.97605 0.0
C3272 C 0.53155 0.67812 0.95941 0.0
C3273 C 0.5353 0.74529 0.97025 0.0
C3274 C 0.53007 0.6058 0.98752 0.0
C3275 C 0.52773 0.62208 0.97994 0.0
C3276 C 0.52289 0.67067 0.99367 0.0
C3277 C 0.52664 0.71077 0.96389 0.0
C3278 C 0.52651 0.69189 0.97009 0.0
C3279 C 0.53088 0.63949 0.9912 0.0
C3280 C 0.52859 0.65712 0.98339 0.0
H3281 H 0.51398 0.73089 0.92615 0.0
H3282 H 0.51302 0.69976 0.93614 0.0
H3283 H 0.51777 0.69789 0.99565 0.0
H3284 H 0.5432 0.62514 0.03246 0.0
H3285 H 0.53946 0.65312 0.01941 0.0
C3286 C 0.11355 0.83907 0.69701 0.0
C3287 C 0.1097 0.83454 0.67774 0.0
C3288 C 0.12928 0.83784 0.70685 0.0
C3289 C 0.15823 0.81007 0.7094 0.0
H3290 H 0.19705 0.85294 0.73038 0.0
C3291 C 0.22559 0.80056 0.73652 0.0
C3292 C 0.23683 0.81399 0.75045 0.0
C3293 C 0.20963 0.80311 0.72889 0.0
C3294 C 0.18625 0.84076 0.725 0.0
H3295 H 0.11936 0.82538 0.65368 0.0
H3296 H 0.14663 0.82274 0.67102 0.0
H3297 H 0.1702 0.85819 0.71493 0.0
H3298 H 0.2399 0.84009 0.76804 0.0
H3299 H 0.21166 0.84402 0.7556 0.0
H3300 H 0.17374 0.79251 0.71982 0.0
C3301 C 0.13757 0.82756 0.67836 0.0
C3302 C 0.17096 0.84385 0.71602 0.0
C3303 C 0.12205 0.8292 0.66848 0.0
C3304 C 0.23153 0.82962 0.75716 0.0
C3305 C 0.21538 0.83193 0.74987 0.0
C3306 C 0.17336 0.80695 0.71871 0.0
C3307 C 0.14118 0.83165 0.69759 0.0
C3308 C 0.15697 0.82852 0.70797 0.0
C3309 C 0.20433 0.81894 0.73532 0.0
C3310 C 0.18773 0.82224 0.72643 0.0
H3311 H 0.10425 0.84318 0.70449 0.0
H3312 H 0.13191 0.84106 0.72172 0.0
H3313 H 0.14746 0.79807 0.70332 0.0
H3314 H 0.22945 0.78848 0.73096 0.0
H3315 H 0.20175 0.79294 0.71752 0.0
C3316 C 0.0389 0.36907 0.46453 0.0
C3317 C 0.02221 0.35689 0.45863 0.0
C3318 C 0.04117 0.38786 0.47219 0.0
C3319 C 0.02051 0.42695 0.47246 0.0
H3320 H 0.05021 0.44604 0.51977 0.0
C3321 C 0.02532 0.50109 0.51147 0.0
C3322 C 0.04116 0.51098 0.52266 0.0
C3323 C 0.02292 0.48254 0.503 0.0
C3324 C 0.04211 0.44117 0.50638 0.0
H3325 H 0.99481 0.35508 0.45562 0.0
H3326 H 0.99878 0.38802 0.46829 0.0
H3327 H 0.04663 0.41367 0.50619 0.0
H3328 H 0.06708 0.50933 0.53313 0.0
H3329 H 0.06316 0.47753 0.5181 0.0
H3330 H 0.01629 0.45452 0.47232 0.0
C3331 C 0.01011 0.38295 0.46738 0.0
C3332 C 0.04 0.42249 0.49864 0.0
C3333 C 0.00785 0.36403 0.46025 0.0
C3334 C 0.05466 0.5021 0.52471 0.0
C3335 C 0.05232 0.48368 0.51619 0.0
C3336 C 0.02283 0.44577 0.48005 0.0
C3337 C 0.0268 0.39508 0.47356 0.0
C3338 C 0.02917 0.41511 0.48161 0.0
C3339 C 0.03632 0.4734 0.50543 0.0
C3340 C 0.03369 0.45323 0.49717 0.0
H3341 H 0.05021 0.364 0.46341 0.0
H3342 H 0.05419 0.39686 0.47678 0.0
H3343 H 0.01216 0.42173 0.45924 0.0
H3344 H 0.01463 0.5075 0.50963 0.0
H3345 H 0.01035 0.4752 0.49499 0.0
C3346 C 0.51277 0.30203 0.19876 0.0
C3347 C 0.51736 0.31267 0.1845 0.0
C3348 C 0.49855 0.30349 0.20693 0.0
C3349 C 0.45754 0.31712 0.1978 0.0
H3350 H 0.45916 0.31835 0.25051 0.0
C3351 C 0.40223 0.33257 0.23213 0.0
C3352 C 0.39748 0.32282 0.24687 0.0
C3353 C 0.41702 0.33126 0.22501 0.0
C3354 C 0.45838 0.31777 0.23573 0.0
H3355 H 0.51071 0.33347 0.1679 0.0
H3356 H 0.48591 0.33605 0.18216 0.0
H3357 H 0.48472 0.31648 0.23736 0.0
H3358 H 0.4046 0.30397 0.26563 0.0
H3359 H 0.4303 0.30144 0.25304 0.0
H3360 H 0.43122 0.31816 0.19605 0.0
C3361 C 0.49322 0.3264 0.18689 0.0
C3362 C 0.47308 0.31675 0.22819 0.0
C3363 C 0.5075 0.325 0.17878 0.0
C3364 C 0.40797 0.31178 0.25437 0.0
C3365 C 0.42275 0.31038 0.24717 0.0
C3366 C 0.44285 0.31805 0.2053 0.0
C3367 C 0.48848 0.31556 0.20099 0.0
C3368 C 0.47287 0.31654 0.20913 0.0
C3369 C 0.42745 0.32007 0.23233 0.0
C3370 C 0.44307 0.31853 0.22439 0.0
H3371 H 0.52009 0.2924 0.20354 0.0
H3372 H 0.4952 0.29482 0.21762 0.0
H3373 H 0.45678 0.31659 0.18303 0.0
H3374 H 0.39467 0.3415 0.22625 0.0
H3375 H 0.42039 0.33928 0.21389 0.0
C3376 C 0.63844 0.58437 0.40068 0.0
C3377 C 0.6455 0.56977 0.395 0.0
C3378 C 0.62936 0.58287 0.41519 0.0
C3379 C 0.61868 0.55606 0.45353 0.0
H3380 H 0.57623 0.57159 0.4431 0.0
C3381 C 0.55852 0.54199 0.4914 0.0
C3382 C 0.55731 0.55917 0.50007 0.0
C3383 C 0.57034 0.54202 0.47945 0.0
C3384 C 0.58802 0.56713 0.44604 0.0
H3385 H 0.64968 0.54273 0.40045 0.0
H3386 H 0.63307 0.53969 0.42567 0.0
H3387 H 0.59578 0.57463 0.42086 0.0
H3388 H 0.56718 0.58972 0.50333 0.0
H3389 H 0.58731 0.58969 0.48191 0.0
H3390 H 0.61046 0.54833 0.47873 0.0
C3391 C 0.63482 0.55242 0.41906 0.0
C3392 C 0.59928 0.56904 0.43351 0.0
C3393 C 0.64423 0.55409 0.40465 0.0
C3394 C 0.56794 0.5763 0.49676 0.0
C3395 C 0.57944 0.57633 0.48462 0.0
C3396 C 0.60723 0.55393 0.46602 0.0
C3397 C 0.62686 0.56655 0.42401 0.0
C3398 C 0.61486 0.56383 0.43726 0.0
C3399 C 0.58066 0.55922 0.47594 0.0
C3400 C 0.59199 0.55967 0.46234 0.0
H3401 H 0.63961 0.5968 0.39364 0.0
H3402 H 0.62381 0.59424 0.41911 0.0
H3403 H 0.63065 0.55204 0.45676 0.0
H3404 H 0.5505 0.52867 0.49399 0.0
H3405 H 0.57118 0.52874 0.47266 0.0
C3406 C 0.29463 0.87519 0.08029 0.0
C3407 C 0.29256 0.89348 0.07918 0.0
C3408 C 0.29575 0.86797 0.09734 0.0
C3409 C 0.2869 0.87725 0.14534 0.0
H3410 H 0.31623 0.84427 0.15747 0.0
C3411 C 0.30112 0.85834 0.21925 0.0
C3412 C 0.29831 0.83893 0.22061 0.0
C3413 C 0.30174 0.86504 0.20212 0.0
C3414 C 0.30796 0.85345 0.15425 0.0
H3415 H 0.29043 0.91854 0.09548 0.0
H3416 H 0.2929 0.90644 0.12456 0.0
H3417 H 0.31412 0.85519 0.12713 0.0
H3418 H 0.29487 0.8115 0.20509 0.0
H3419 H 0.29629 0.82325 0.17536 0.0
H3420 H 0.28104 0.87583 0.17256 0.0
C3421 C 0.29306 0.89724 0.11241 0.0
C3422 C 0.30663 0.85962 0.13678 0.0
C3423 C 0.29174 0.90428 0.09553 0.0
C3424 C 0.29694 0.82653 0.20455 0.0
C3425 C 0.29786 0.83326 0.1875 0.0
C3426 C 0.28843 0.87133 0.16282 0.0
C3427 C 0.29496 0.87893 0.11368 0.0
C3428 C 0.29609 0.87167 0.13205 0.0
C3429 C 0.29987 0.85254 0.18598 0.0
C3430 C 0.29895 0.85935 0.16753 0.0
H3431 H 0.29543 0.8665 0.06806 0.0
H3432 H 0.29707 0.85375 0.09765 0.0
H3433 H 0.27828 0.88608 0.14224 0.0
H3434 H 0.3022 0.8683 0.2313 0.0
H3435 H 0.30346 0.88001 0.20145 0.0
C3436 C 0.98812 0.64612 0.88741 0.0
C3437 C 0.98888 0.6353 0.87113 0.0
C3438 C 0.99342 0.64081 0.90457 0.0
C3439 C 0.01862 0.60995 0.92596 0.0
H3440 H 0.99437 0.61585 0.96663 0.0
C3441 C 0.02586 0.57407 0.99169 0.0
C3442 C 0.03776 0.58739 0.00523 0.0
C3443 C 0.01757 0.58002 0.97632 0.0
C3444 C 1.00111 0.6141 0.95527 0.0
H3445 H 0.99556 0.61035 0.86004 0.0
H3446 H 0.00408 0.60083 0.88954 0.0
H3447 H 0.98522 0.62657 0.93723 0.0
H3448 H 0.0494 0.61721 0.01433 0.0
H3449 H 0.03448 0.62765 0.98752 0.0
H3450 H 0.03411 0.59699 0.94388 0.0
C3451 C 1.00006 0.61376 0.88932 0.0
C3452 C 0.99606 0.62039 0.93856 0.0
C3453 C 0.99509 0.61922 0.87231 0.0
C3454 C 0.04043 0.60673 0.00387 0.0
C3455 C 0.03182 0.61269 0.98872 0.0
C3456 C 0.0234 0.6034 0.94247 0.0
C3457 C 0.99934 0.62447 0.90569 0.0
C3458 C 0.00478 0.61837 0.9237 0.0
C3459 C 0.02073 0.59934 0.97467 0.0
C3460 C 0.01471 0.60546 0.95717 0.0
H3461 H 0.98327 0.65852 0.8869 0.0
H3462 H 0.99289 0.64951 0.91692 0.0
H3463 H 0.02592 0.60855 0.91504 0.0
H3464 H 0.02363 0.55907 0.99254 0.0
H3465 H 0.00919 0.56957 0.96542 0.0
C3466 C 0.30239 0.22848 0.58476 0.0
C3467 C 0.29388 0.23486 0.56961 0.0
C3468 C 0.30266 0.23615 0.60277 0.0
C3469 C 0.27729 0.25877 0.62998 0.0
H3470 H 0.31755 0.26805 0.66839 0.0
C3471 C 0.27591 0.28583 0.70586 0.0
C3472 C 0.28664 0.2805 0.71992 0.0
C3473 C 0.27695 0.2813 0.68732 0.0
C3474 C 0.30605 0.26524 0.65796 0.0
H3475 H 0.27963 0.255 0.56162 0.0
H3476 H 0.28012 0.26848 0.59323 0.0
H3477 H 0.31992 0.25931 0.63664 0.0
H3478 H 0.30627 0.26558 0.72571 0.0
H3479 H 0.30731 0.25658 0.69359 0.0
H3480 H 0.2632 0.26396 0.65126 0.0
C3481 C 0.28647 0.25737 0.59105 0.0
C3482 C 0.30749 0.26037 0.63967 0.0
C3483 C 0.28634 0.24979 0.57295 0.0
C3484 C 0.29795 0.27 0.71512 0.0
C3485 C 0.29867 0.26505 0.69664 0.0
C3486 C 0.27577 0.26339 0.64833 0.0
C3487 C 0.29433 0.25036 0.60618 0.0
C3488 C 0.29311 0.25695 0.62546 0.0
C3489 C 0.28847 0.27096 0.68241 0.0
C3490 C 0.29009 0.26654 0.66267 0.0
H3491 H 0.30835 0.21701 0.58274 0.0
H3492 H 0.30874 0.23033 0.61407 0.0
H3493 H 0.26589 0.25598 0.61939 0.0
H3494 H 0.26724 0.29415 0.70923 0.0
H3495 H 0.26903 0.28639 0.67692 0.0
C3496 C 0.65469 0.56998 0.28184 0.0
C3497 C 0.64805 0.55982 0.29551 0.0
C3498 C 0.64574 0.56616 0.26389 0.0
C3499 C 0.60346 0.54792 0.23579 0.0
H3500 H 0.63108 0.54854 0.19712 0.0
C3501 C 0.57832 0.55262 0.15907 0.0
C3502 C 0.58916 0.56803 0.15291 0.0
C3503 C 0.58378 0.54641 0.17565 0.0
C3504 C 0.62315 0.54805 0.20775 0.0
H3505 H 0.62678 0.53797 0.3014 0.0
H3506 H 0.61102 0.53112 0.26955 0.0
H3507 H 0.64398 0.54713 0.22864 0.0
H3508 H 0.61381 0.58938 0.15936 0.0
H3509 H 0.62334 0.57848 0.18805 0.0
H3510 H 0.58291 0.54991 0.21489 0.0
C3511 C 0.62315 0.54206 0.27291 0.0
C3512 C 0.63052 0.5473 0.22573 0.0
C3513 C 0.63212 0.54598 0.29103 0.0
C3514 C 0.60537 0.57721 0.16359 0.0
C3515 C 0.61084 0.57095 0.17997 0.0
C3516 C 0.59605 0.54864 0.21771 0.0
C3517 C 0.63006 0.55197 0.2592 0.0
C3518 C 0.621 0.54819 0.23999 0.0
C3519 C 0.60016 0.55545 0.18606 0.0
C3520 C 0.60616 0.54966 0.20379 0.0
H3521 H 0.6668 0.58097 0.28502 0.0
H3522 H 0.65106 0.57441 0.25366 0.0
H3523 H 0.59589 0.5486 0.24662 0.0
H3524 H 0.56579 0.54524 0.15097 0.0
H3525 H 0.57535 0.53448 0.18023 0.0
C3526 C 0.29493 0.86775 0.96716 0.0
C3527 C 0.29205 0.88535 0.97242 0.0
C3528 C 0.29379 0.86115 0.9485 0.0
C3529 C 0.29879 0.87543 0.90305 0.0
H3530 H 0.26815 0.82596 0.88401 0.0
C3531 C 0.28855 0.84181 0.82525 0.0
C3532 C 0.28536 0.82203 0.8221 0.0
C3533 C 0.28944 0.85101 0.84314 0.0
C3534 C 0.27706 0.83967 0.88903 0.0
H3535 H 0.28623 0.91005 0.96207 0.0
H3536 H 0.28485 0.89878 0.92948 0.0
H3537 H 0.27005 0.83873 0.91585 0.0
H3538 H 0.2815 0.79667 0.83555 0.0
H3539 H 0.28367 0.81235 0.86604 0.0
H3540 H 0.30634 0.87607 0.87638 0.0
C3541 C 0.28763 0.88994 0.93984 0.0
C3542 C 0.27801 0.84705 0.90737 0.0
C3543 C 0.28827 0.89631 0.9585 0.0
C3544 C 0.28367 0.81188 0.83727 0.0
C3545 C 0.28476 0.82095 0.85492 0.0
C3546 C 0.2981 0.86787 0.88468 0.0
C3547 C 0.29028 0.87222 0.93459 0.0
C3548 C 0.28897 0.86494 0.91472 0.0
C3549 C 0.28727 0.84062 0.85825 0.0
C3550 C 0.28738 0.84969 0.87741 0.0
H3551 H 0.29798 0.859 0.9775 0.0
H3552 H 0.29592 0.84745 0.94495 0.0
H3553 H 0.3074 0.88927 0.9083 0.0
H3554 H 0.28996 0.85008 0.81391 0.0
H3555 H 0.29143 0.86618 0.845 0.0
C3556 C 0.98902 0.63749 0.77067 0.0
C3557 C 0.97353 0.64287 0.77024 0.0
C3558 C 0.99163 0.6267 0.75545 0.0
C3559 C 0.97633 0.61028 0.70595 0.0
H3560 H 0.99479 0.5682 0.71793 0.0
C3561 C 0.99005 0.56121 0.64922 0.0
C3562 C 0.00729 0.56009 0.65246 0.0
C3563 C 0.98269 0.56759 0.66362 0.0
C3564 C 0.98956 0.57984 0.71438 0.0
H3565 H 0.9494 0.64272 0.75286 0.0
H3566 H 0.95403 0.62394 0.72639 0.0
H3567 H 0.98962 0.58917 0.74255 0.0
H3568 H 0.02989 0.56353 0.67356 0.0
H3569 H 0.01707 0.57441 0.69852 0.0
H3570 H 0.97668 0.60125 0.67783 0.0
C3571 C 0.96407 0.62792 0.73851 0.0
C3572 C 0.98674 0.59193 0.72846 0.0
C3573 C 0.96147 0.63876 0.7537 0.0
C3574 C 0.01652 0.56402 0.67059 0.0
C3575 C 0.00916 0.57029 0.68494 0.0
C3576 C 0.97916 0.59819 0.69186 0.0
C3577 C 0.97885 0.62114 0.73952 0.0
C3578 C 0.9806 0.6076 0.72442 0.0
C3579 C 0.99242 0.57282 0.68149 0.0
C3580 C 0.98628 0.58318 0.69599 0.0
H3581 H 0.99862 0.6405 0.78314 0.0
H3582 H 1.00339 0.62211 0.7564 0.0
H3583 H 0.97153 0.62221 0.70243 0.0
H3584 H 0.98248 0.55788 0.63545 0.0
H3585 H 0.96965 0.56912 0.66064 0.0
C3586 C 0.28722 0.22461 0.45061 0.0
C3587 C 0.28265 0.23514 0.46495 0.0
C3588 C 0.28848 0.23136 0.43351 0.0
C3589 C 0.29638 0.27486 0.4114 0.0
H3590 H 0.27122 0.24301 0.3664 0.0
C3591 C 0.2918 0.30568 0.34195 0.0
C3592 C 0.29036 0.29395 0.32548 0.0
C3593 C 0.29076 0.29816 0.35866 0.0
C3594 C 0.27864 0.25209 0.37871 0.0
H3595 H 0.27626 0.26127 0.47259 0.0
H3596 H 0.27908 0.2733 0.4431 0.0
H3597 H 0.27053 0.23061 0.39586 0.0
H3598 H 0.28662 0.26499 0.31368 0.0
H3599 H 0.28555 0.25192 0.34278 0.0
H3600 H 0.30509 0.29613 0.39452 0.0
C3601 C 0.28144 0.2597 0.44497 0.0
C3602 C 0.27814 0.24493 0.39568 0.0
C3603 C 0.27977 0.25276 0.46187 0.0
C3604 C 0.28769 0.27443 0.32611 0.0
C3605 C 0.28698 0.26692 0.3429 0.0
C3606 C 0.29719 0.28191 0.39444 0.0
C3607 C 0.28563 0.24902 0.43048 0.0
C3608 C 0.28684 0.25629 0.41228 0.0
C3609 C 0.28859 0.27866 0.35956 0.0
C3610 C 0.28814 0.27077 0.37774 0.0
H3611 H 0.28945 0.21095 0.45246 0.0
H3612 H 0.29181 0.22282 0.42269 0.0
H3613 H 0.30343 0.28393 0.42389 0.0
H3614 H 0.29372 0.32076 0.34194 0.0
H3615 H 0.29157 0.30777 0.37086 0.0
C3616 C 0.33148 0.66827 0.50119 0.0
C3617 C 0.32135 0.66343 0.51486 0.0
C3618 C 0.34602 0.66131 0.50008 0.0
C3619 C 0.37789 0.64387 0.5295 0.0
H3620 H 0.38743 0.62073 0.48451 0.0
C3621 C 0.42656 0.59941 0.53257 0.0
C3622 C 0.43758 0.60022 0.5195 0.0
C3623 C 0.41296 0.60797 0.53056 0.0
C3624 C 0.38511 0.62739 0.49716 0.0
H3625 H 0.31838 0.64703 0.5377 0.0
H3626 H 0.34354 0.63515 0.53583 0.0
H3627 H 0.36259 0.63429 0.48338 0.0
H3628 H 0.4426 0.61043 0.49373 0.0
H3629 H 0.41886 0.62572 0.4903 0.0
H3630 H 0.40025 0.63726 0.54337 0.0
C3631 C 0.34041 0.64443 0.52607 0.0
C3632 C 0.37085 0.63514 0.4965 0.0
C3633 C 0.3259 0.65121 0.52708 0.0
C3634 C 0.43435 0.60953 0.50406 0.0
C3635 C 0.42072 0.61826 0.50209 0.0
C3636 C 0.39212 0.63632 0.53015 0.0
C3637 C 0.35082 0.64957 0.51275 0.0
C3638 C 0.36684 0.64302 0.51276 0.0
C3639 C 0.40996 0.61779 0.51547 0.0
C3640 C 0.3957 0.62749 0.5141 0.0
H3641 H 0.32832 0.67761 0.49152 0.0
H3642 H 0.35378 0.66554 0.48967 0.0
H3643 H 0.37543 0.65025 0.54222 0.0
H3644 H 0.42834 0.59195 0.54437 0.0
H3645 H 0.40469 0.60673 0.54087 0.0
C3646 C 0.87037 0.94332 0.54191 0.0
C3647 C 0.8583 0.95233 0.54778 0.0
C3648 C 0.8868 0.95382 0.5396 0.0
C3649 C 0.91185 0.00308 0.53489 0.0
H3650 H 0.95178 0.98348 0.54656 0.0
C3651 C 0.98252 0.04999 0.54831 0.0
C3652 C 0.99508 0.04343 0.54051 0.0
C3653 C 0.96564 0.03846 0.54686 0.0
C3654 C 0.94073 0.98905 0.543 0.0
H3655 H 0.85436 0.97969 0.55586 0.0
H3656 H 0.88299 0.99792 0.55228 0.0
H3657 H 0.92307 0.96448 0.54933 0.0
H3658 H 0.99976 0.01949 0.52502 0.0
H3659 H 0.97021 0.99892 0.52298 0.0
H3660 H 0.9297 0.02795 0.52926 0.0
C3661 C 0.87969 0.9827 0.54907 0.0
C3662 C 0.92418 0.97813 0.54457 0.0
C3663 C 0.86323 0.97219 0.55131 0.0
C3664 C 0.9903 0.025 0.53101 0.0
C3665 C 0.97344 0.01321 0.52997 0.0
C3666 C 0.9284 0.01406 0.53356 0.0
C3667 C 0.89178 0.97371 0.54312 0.0
C3668 C 0.90945 0.98504 0.54074 0.0
C3669 C 0.9609 0.01979 0.53796 0.0
C3670 C 0.94311 0.00731 0.53778 0.0
H3671 H 0.86709 0.92807 0.53894 0.0
H3672 H 0.8955 0.94626 0.53475 0.0
H3673 H 0.90092 0.00881 0.53131 0.0
H3674 H 0.9858 0.06409 0.55576 0.0
H3675 H 0.95642 0.04398 0.55329 0.0
C3676 C 0.88809 0.09367 0.24438 0.0
C3677 C 0.88002 0.08619 0.22618 0.0
C3678 C 0.88462 0.1096 0.25294 0.0
C3679 C 0.84942 0.13227 0.25002 0.0
H3680 H 0.88151 0.1727 0.28468 0.0
C3681 C 0.82248 0.18407 0.28781 0.0
C3682 C 0.82995 0.20296 0.28568 0.0
C3683 C 0.83142 0.17047 0.28526 0.0
C3684 C 0.87245 0.16144 0.27506 0.0
H3685 H 0.86321 0.09035 0.20217 0.0
H3686 H 0.85739 0.11831 0.21699 0.0
H3687 H 0.89234 0.1488 0.26848 0.0
H3688 H 0.85366 0.22283 0.28202 0.0
H3689 H 0.86888 0.19882 0.27651 0.0
H3690 H 0.82963 0.14492 0.25591 0.0
C3691 C 0.86598 0.11155 0.22482 0.0
C3692 C 0.87861 0.14779 0.26585 0.0
C3693 C 0.8693 0.09556 0.21634 0.0
C3694 C 0.84731 0.20827 0.28309 0.0
C3695 C 0.85615 0.19456 0.2802 0.0
C3696 C 0.84331 0.1458 0.25914 0.0
C3697 C 0.87312 0.11833 0.24339 0.0
C3698 C 0.86712 0.13316 0.25314 0.0
C3699 C 0.84783 0.1754 0.28016 0.0
C3700 C 0.8547 0.16051 0.27178 0.0
H3701 H 0.89658 0.08682 0.25223 0.0
H3702 H 0.89027 0.11449 0.26728 0.0
H3703 H 0.84018 0.12099 0.24058 0.0
H3704 H 0.8092 0.17939 0.28987 0.0
H3705 H 0.8249 0.15584 0.28585 0.0
C3706 C 0.72376 0.14271 0.00887 0.0
C3707 C 0.72694 0.16248 0.01106 0.0
C3708 C 0.70723 0.13116 0.00933 0.0
C3709 C 0.66111 0.13262 0.00924 0.0
H3710 H 0.65843 0.0873 0.03293 0.0
C3711 C 0.60452 0.09309 0.04389 0.0
C3712 C 0.59439 0.07687 0.0322 0.0
C3713 C 0.62084 0.10245 0.04049 0.0
C3714 C 0.65908 0.09991 0.02625 0.0
H3715 H 0.71523 0.18559 0.01521 0.0
H3716 H 0.68692 0.16575 0.01687 0.0
H3717 H 0.68646 0.10578 0.02759 0.0
H3718 H 0.59346 0.05733 0.00821 0.0
H3719 H 0.62245 0.07333 0.00279 0.0
H3720 H 0.63374 0.12702 0.00886 0.0
C3721 C 0.69683 0.15893 0.01413 0.0
C3722 C 0.67507 0.11043 0.02299 0.0
C3723 C 0.71319 0.17041 0.01329 0.0
C3724 C 0.60108 0.06978 0.01745 0.0
C3725 C 0.61757 0.07888 0.01434 0.0
C3726 C 0.64521 0.12227 0.01282 0.0
C3727 C 0.69361 0.13913 0.01236 0.0
C3728 C 0.67637 0.12708 0.01459 0.0
C3729 C 0.6274 0.09545 0.02564 0.0
C3730 C 0.64413 0.10595 0.02145 0.0
H3731 H 0.73407 0.13618 0.007 0.0
H3732 H 0.70523 0.11599 0.00747 0.0
H3733 H 0.66139 0.14502 0.00234 0.0
H3734 H 0.59951 0.099 0.05515 0.0
H3735 H 0.62824 0.11531 0.04928 0.0
C3736 C 0.18886 0.44694 0.2573 0.0
C3737 C 0.17575 0.44674 0.26781 0.0
C3738 C 0.19945 0.43485 0.25991 0.0
C3739 C 0.20348 0.39156 0.27862 0.0
H3740 H 0.25274 0.41499 0.28327 0.0
C3741 C 0.25305 0.34998 0.29746 0.0
C3742 C 0.26648 0.35205 0.28717 0.0
C3743 C 0.24269 0.36248 0.2969 0.0
C3744 C 0.23903 0.40819 0.28185 0.0
H3745 H 0.16292 0.43323 0.28876 0.0
H3746 H 0.18166 0.41203 0.29346 0.0
H3747 H 0.23229 0.43391 0.2776 0.0
H3748 H 0.28012 0.36911 0.26878 0.0
H3749 H 0.26181 0.39074 0.26745 0.0
H3750 H 0.21014 0.36573 0.28242 0.0
C3751 C 0.18363 0.42155 0.28315 0.0
C3752 C 0.22733 0.41902 0.27861 0.0
C3753 C 0.17296 0.43368 0.2805 0.0
C3754 C 0.27 0.36739 0.27707 0.0
C3755 C 0.25947 0.37975 0.27629 0.0
C3756 C 0.21518 0.38067 0.28173 0.0
C3757 C 0.19719 0.42235 0.27313 0.0
C3758 C 0.20946 0.41079 0.27688 0.0
C3759 C 0.24543 0.37712 0.28582 0.0
C3760 C 0.23309 0.38887 0.28333 0.0
H3761 H 0.19116 0.45667 0.24721 0.0
H3762 H 0.20957 0.43544 0.25172 0.0
H3763 H 0.18974 0.38486 0.27715 0.0
H3764 H 0.25014 0.33826 0.30541 0.0
H3765 H 0.23224 0.36035 0.30474 0.0
C3766 C 0.26118 0.46994 0.05933 0.0
C3767 C 0.26341 0.45703 0.04538 0.0
C3768 C 0.24669 0.47714 0.05743 0.0
C3769 C 0.20195 0.46926 0.03077 0.0
H3770 H 0.20807 0.52041 0.0536 0.0
C3771 C 0.14753 0.50964 0.02569 0.0
C3772 C 0.14627 0.51963 0.04234 0.0
C3773 C 0.16121 0.50123 0.02462 0.0
C3774 C 0.20608 0.50605 0.04724 0.0
H3775 H 0.2519 0.44155 0.01835 0.0
H3776 H 0.22673 0.45456 0.01475 0.0
H3777 H 0.23302 0.50776 0.05382 0.0
H3778 H 0.15858 0.52845 0.07089 0.0
H3779 H 0.1822 0.51387 0.06903 0.0
H3780 H 0.17486 0.46791 0.02396 0.0
C3781 C 0.23612 0.45889 0.02737 0.0
C3782 C 0.22043 0.49871 0.04742 0.0
C3783 C 0.25065 0.45152 0.02937 0.0
C3784 C 0.15894 0.52074 0.05789 0.0
C3785 C 0.17264 0.51254 0.05677 0.0
C3786 C 0.18754 0.47673 0.03041 0.0
C3787 C 0.23395 0.47189 0.04138 0.0
C3788 C 0.2186 0.48004 0.0396 0.0
C3789 C 0.1741 0.50285 0.0401 0.0
C3790 C 0.18939 0.49511 0.03902 0.0
H3791 H 0.27057 0.47435 0.07197 0.0
H3792 H 0.24538 0.48667 0.06878 0.0
H3793 H 0.19991 0.45482 0.02464 0.0
H3794 H 0.13796 0.50837 0.01345 0.0
H3795 H 0.16195 0.4939 0.01156 0.0
C3796 C 0.85965 0.98053 0.2255 0.0
C3797 C 0.87463 0.98388 0.21758 0.0
C3798 C 0.85435 0.96388 0.2332 0.0
C3799 C 0.85711 0.91539 0.23138 0.0
H3800 H 0.84129 0.91798 0.2783 0.0
C3801 C 0.80436 0.85838 0.25049 0.0
C3802 C 0.8058 0.85358 0.26842 0.0
C3803 C 0.81712 0.8728 0.24593 0.0
C3804 C 0.84605 0.91708 0.26541 0.0
H3805 H 0.89543 0.9724 0.21068 0.0
H3806 H 0.88587 0.9431 0.2237 0.0
H3807 H 0.85481 0.94715 0.26672 0.0
H3808 H 0.82171 0.85943 0.2956 0.0
H3809 H 0.84401 0.88531 0.28765 0.0
H3810 H 0.84768 0.88537 0.22971 0.0
C3811 C 0.87835 0.95334 0.22413 0.0
C3812 C 0.85352 0.93371 0.25868 0.0
C3813 C 0.88371 0.97 0.21658 0.0
C3814 C 0.82037 0.86305 0.28168 0.0
C3815 C 0.83307 0.87772 0.27717 0.0
C3816 C 0.84957 0.89879 0.23806 0.0
C3817 C 0.86387 0.95036 0.23287 0.0
C3818 C 0.85844 0.93296 0.24128 0.0
C3819 C 0.83142 0.88276 0.25929 0.0
C3820 C 0.84334 0.89958 0.25473 0.0
H3821 H 0.85266 0.9912 0.22674 0.0
H3822 H 0.84294 0.96168 0.23962 0.0
H3823 H 0.8609 0.91447 0.21797 0.0
H3824 H 0.79328 0.85114 0.24002 0.0
H3825 H 0.81543 0.87669 0.23213 0.0
C3826 C 0.67755 0.04823 0.78815 0.0
C3827 C 0.66255 0.04285 0.77465 0.0
C3828 C 0.68782 0.06685 0.79104 0.0
C3829 C 0.68871 0.11491 0.77801 0.0
H3830 H 0.73838 0.12134 0.7856 0.0
C3831 C 0.73755 0.17351 0.7532 0.0
C3832 C 0.74782 0.18712 0.7676 0.0
C3833 C 0.7281 0.15617 0.75701 0.0
C3834 C 0.72454 0.11968 0.78371 0.0
H3835 H 0.64632 0.05235 0.75366 0.0
H3836 H 0.66468 0.08446 0.75779 0.0
H3837 H 0.71905 0.09051 0.7873 0.0
H3838 H 0.75707 0.19301 0.7971 0.0
H3839 H 0.74053 0.16227 0.80368 0.0
H3840 H 0.69439 0.14384 0.77305 0.0
C3841 C 0.66825 0.07475 0.76681 0.0
C3842 C 0.71344 0.10213 0.7848 0.0
C3843 C 0.65777 0.0563 0.76429 0.0
C3844 C 0.74915 0.18275 0.78579 0.0
C3845 C 0.7398 0.16528 0.78956 0.0
C3846 C 0.69979 0.1323 0.77656 0.0
C3847 C 0.6835 0.08023 0.7801 0.0
C3848 C 0.69536 0.09942 0.78151 0.0
C3849 C 0.72896 0.15215 0.7752 0.0
C3850 C 0.71769 0.13462 0.77906 0.0
H3851 H 0.68133 0.03804 0.79642 0.0
H3852 H 0.69926 0.07066 0.80165 0.0
H3853 H 0.67491 0.1135 0.77588 0.0
H3854 H 0.73613 0.1766 0.73911 0.0
H3855 H 0.71977 0.14606 0.7458 0.0
loop_
_geom_bond_atom_site_label_1
_geom_bond_atom_site_label_2
_geom_bond_distance
_geom_bond_site_symmetry_2
_ccdc_geom_bond_type
O0 Cd1 2.223 1_655 S
O0 C8 1.315 1_655 S
Cd1 O0 2.223 1_455 S
Cd1 O4 2.297 . S
Cd1 O5 2.439 . S
Cd1 O11 2.240 1_455 S
Cd2 O3 2.240 . S
Cd2 O10 2.223 1_455 S
Cd2 O12 2.297 1_455 S
Cd2 O13 2.439 . S
O3 Cd2 2.240 . S
O3 C8 1.279 . S
O4 Cd1 2.297 . S
O4 C6 1.247 . S
O5 Cd1 2.439 . S
O5 C6 1.208 . S
C6 O4 1.247 . S
C6 O5 1.208 . S
C7 O12 1.247 1_455 S
C7 O13 1.208 . S
C8 O0 1.315 1_455 S
C8 O3 1.279 . S
C9 O10 1.315 . S
C9 O11 1.279 . S
O10 Cd2 2.223 1_655 S
O10 C9 1.315 . S
O11 Cd1 2.240 1_655 S
O11 C9 1.279 . S
O12 Cd2 2.297 1_655 S
O12 C7 1.247 1_655 S
O13 Cd2 2.439 . S
O13 C7 1.208 . S
O14 Cd15 2.223 . S
O14 C22 1.315 . S
Cd15 O14 2.223 . S
Cd15 O18 2.297 . S
Cd15 O19 2.439 . S
Cd15 O25 2.240 . S
Cd16 O17 2.240 . S
Cd16 O24 2.223 . S
Cd16 O26 2.297 . S
Cd16 O27 2.439 . S
O17 Cd16 2.240 . S
O17 C22 1.279 . S
O18 Cd15 2.297 . S
O18 C20 1.247 . S
O19 Cd15 2.439 . S
O19 C20 1.208 . S
C20 O18 1.247 . S
C20 O19 1.208 . S
C21 O26 1.247 . S
C21 O27 1.208 . S
C22 O14 1.315 . S
C22 O17 1.279 . S
C23 O24 1.315 . S
C23 O25 1.279 . S
O24 Cd16 2.223 . S
O24 C23 1.315 . S
O25 Cd15 2.240 . S
O25 C23 1.279 . S
O26 Cd16 2.297 . S
O26 C21 1.247 . S
O27 Cd16 2.439 . S
O27 C21 1.208 . S
O28 Cd29 2.223 . S
O28 C36 1.315 . S
Cd29 O28 2.223 . S
Cd29 O32 2.297 . S
Cd29 O33 2.439 . S
Cd29 O39 2.240 . S
Cd30 O31 2.240 . S
Cd30 O38 2.223 . S
Cd30 O40 2.297 . S
Cd30 O41 2.439 . S
O31 Cd30 2.240 . S
O31 C36 1.279 . S
O32 Cd29 2.297 . S
O32 C34 1.247 . S
O33 Cd29 2.439 . S
O33 C34 1.208 . S
C34 O32 1.247 . S
C34 O33 1.208 . S
C35 O40 1.247 . S
C35 O41 1.208 . S
C36 O28 1.315 . S
C36 O31 1.279 . S
C37 O38 1.315 . S
C37 O39 1.279 . S
O38 Cd30 2.223 . S
O38 C37 1.315 . S
O39 Cd29 2.240 . S
O39 C37 1.279 . S
O40 Cd30 2.297 . S
O40 C35 1.247 . S
O41 Cd30 2.439 . S
O41 C35 1.208 . S
O42 Cd43 2.223 . S
O42 C50 1.315 . S
Cd43 O42 2.223 . S
Cd43 O46 2.297 . S
Cd43 O47 2.439 . S
Cd43 O53 2.240 . S
Cd44 O45 2.240 . S
Cd44 O52 2.223 . S
Cd44 O54 2.297 . S
Cd44 O55 2.439 . S
O45 Cd44 2.240 . S
O45 C50 1.279 . S
O46 Cd43 2.297 . S
O46 C48 1.247 . S
O47 Cd43 2.439 . S
O47 C48 1.208 . S
C48 O46 1.247 . S
C48 O47 1.208 . S
C49 O54 1.247 . S
C49 O55 1.208 . S
C50 O42 1.315 . S
C50 O45 1.279 . S
C51 O52 1.315 . S
C51 O53 1.279 . S
O52 Cd44 2.223 . S
O52 C51 1.315 . S
O53 Cd43 2.240 . S
O53 C51 1.279 . S
O54 Cd44 2.297 . S
O54 C49 1.247 . S
O55 Cd44 2.439 . S
O55 C49 1.208 . S
O56 Cd57 2.223 . S
O56 C64 1.315 . S
Cd57 O56 2.223 . S
Cd57 O60 2.297 . S
Cd57 O61 2.439 . S
Cd57 O67 2.240 . S
Cd58 O59 2.240 . S
Cd58 O66 2.223 . S
Cd58 O68 2.297 . S
Cd58 O69 2.439 . S
O59 Cd58 2.240 . S
O59 C64 1.279 . S
O60 Cd57 2.297 . S
O60 C62 1.247 . S
O61 Cd57 2.439 . S
O61 C62 1.208 . S
C62 O60 1.247 . S
C62 O61 1.208 . S
C63 O68 1.247 . S
C63 O69 1.208 . S
C64 O56 1.315 . S
C64 O59 1.279 . S
C65 O66 1.315 . S
C65 O67 1.279 . S
O66 Cd58 2.223 . S
O66 C65 1.315 . S
O67 Cd57 2.240 . S
O67 C65 1.279 . S
O68 Cd58 2.297 . S
O68 C63 1.247 . S
O69 Cd58 2.439 . S
O69 C63 1.208 . S
O70 Cd71 2.223 . S
O70 C78 1.315 . S
Cd71 O70 2.223 . S
Cd71 O74 2.297 . S
Cd71 O75 2.439 . S
Cd71 O81 2.240 . S
Cd72 O73 2.240 . S
Cd72 O80 2.223 . S
Cd72 O82 2.297 . S
Cd72 O83 2.439 . S
O73 Cd72 2.240 . S
O73 C78 1.279 . S
O74 Cd71 2.297 . S
O74 C76 1.247 . S
O75 Cd71 2.439 . S
O75 C76 1.208 . S
C76 O74 1.247 . S
C76 O75 1.208 . S
C77 O82 1.247 . S
C77 O83 1.208 . S
C78 O70 1.315 . S
C78 O73 1.279 . S
C79 O80 1.315 . S
C79 O81 1.279 . S
O80 Cd72 2.223 . S
O80 C79 1.315 . S
O81 Cd71 2.240 . S
O81 C79 1.279 . S
O82 Cd72 2.297 . S
O82 C77 1.247 . S
O83 Cd72 2.439 . S
O83 C77 1.208 . S
O84 Cd85 2.223 . S
O84 C92 1.315 . S
Cd85 O84 2.223 . S
Cd85 O88 2.297 . S
Cd85 O89 2.439 . S
Cd85 O95 2.240 . S
Cd86 O87 2.240 . S
Cd86 O94 2.223 . S
Cd86 O96 2.297 . S
Cd86 O97 2.439 . S
O87 Cd86 2.240 . S
O87 C92 1.279 . S
O88 Cd85 2.297 . S
O88 C90 1.247 . S
O89 Cd85 2.439 . S
O89 C90 1.208 . S
C90 O88 1.247 . S
C90 O89 1.208 . S
C91 O96 1.247 . S
C91 O97 1.208 . S
C92 O84 1.315 . S
C92 O87 1.279 . S
C93 O94 1.315 . S
C93 O95 1.279 . S
O94 Cd86 2.223 . S
O94 C93 1.315 . S
O95 Cd85 2.240 . S
O95 C93 1.279 . S
O96 Cd86 2.297 . S
O96 C91 1.247 . S
O97 Cd86 2.439 . S
O97 C91 1.208 . S
O98 Cd99 2.223 . S
O98 C106 1.315 . S
Cd99 O98 2.223 . S
Cd99 O102 2.297 . S
Cd99 O103 2.439 . S
Cd99 O109 2.240 . S
Cd100 O101 2.240 . S
Cd100 O108 2.223 1_455 S
Cd100 O110 2.297 . S
Cd100 O111 2.439 . S
O101 Cd100 2.240 . S
O101 C106 1.279 . S
O102 Cd99 2.297 . S
O102 C104 1.247 . S
O103 Cd99 2.439 . S
O103 C104 1.208 . S
C104 O102 1.247 . S
C104 O103 1.208 . S
C105 O110 1.247 . S
C105 O111 1.208 . S
C106 O98 1.315 . S
C106 O101 1.279 . S
C107 O108 1.315 . S
C107 O109 1.279 1_655 S
O108 Cd100 2.223 1_655 S
O108 C107 1.315 . S
O109 Cd99 2.240 . S
O109 C107 1.279 1_455 S
O110 Cd100 2.297 . S
O110 C105 1.247 . S
O111 Cd100 2.439 . S
O111 C105 1.208 . S
O112 Cd113 2.223 . S
O112 C120 1.315 . S
Cd113 O112 2.223 . S
Cd113 O116 2.297 . S
Cd113 O117 2.439 . S
Cd113 O123 2.240 . S
Cd114 O115 2.240 . S
Cd114 O122 2.223 . S
Cd114 O124 2.297 . S
Cd114 O125 2.439 . S
O115 Cd114 2.240 . S
O115 C120 1.279 . S
O116 Cd113 2.297 . S
O116 C118 1.247 . S
O117 Cd113 2.439 . S
O117 C118 1.208 . S
C118 O116 1.247 . S
C118 O117 1.208 . S
C119 O124 1.247 . S
C119 O125 1.208 . S
C120 O112 1.315 . S
C120 O115 1.279 . S
C121 O122 1.315 . S
C121 O123 1.279 . S
O122 Cd114 2.223 . S
O122 C121 1.315 . S
O123 Cd113 2.240 . S
O123 C121 1.279 . S
O124 Cd114 2.297 . S
O124 C119 1.247 . S
O125 Cd114 2.439 . S
O125 C119 1.208 . S
O126 Cd127 2.223 . S
O126 C134 1.315 . S
Cd127 O126 2.223 . S
Cd127 O130 2.297 . S
Cd127 O131 2.439 . S
Cd127 O137 2.240 . S
Cd128 O129 2.240 . S
Cd128 O136 2.223 . S
Cd128 O138 2.297 . S
Cd128 O139 2.439 . S
O129 Cd128 2.240 . S
O129 C134 1.279 . S
O130 Cd127 2.297 . S
O130 C132 1.247 . S
O131 Cd127 2.439 . S
O131 C132 1.208 . S
C132 O130 1.247 . S
C132 O131 1.208 . S
C133 O138 1.247 . S
C133 O139 1.208 . S
C134 O126 1.315 . S
C134 O129 1.279 . S
C135 O136 1.315 . S
C135 O137 1.279 . S
O136 Cd128 2.223 . S
O136 C135 1.315 . S
O137 Cd127 2.240 . S
O137 C135 1.279 . S
O138 Cd128 2.297 . S
O138 C133 1.247 . S
O139 Cd128 2.439 . S
O139 C133 1.208 . S
O140 Cd141 2.223 . S
O140 C148 1.315 . S
Cd141 O140 2.223 . S
Cd141 O144 2.297 . S
Cd141 O145 2.439 . S
Cd141 O151 2.240 . S
Cd142 O143 2.240 . S
Cd142 O150 2.223 . S
Cd142 O152 2.297 . S
Cd142 O153 2.439 . S
O143 Cd142 2.240 . S
O143 C148 1.279 . S
O144 Cd141 2.297 . S
O144 C146 1.247 . S
O145 Cd141 2.439 . S
O145 C146 1.208 . S
C146 O144 1.247 . S
C146 O145 1.208 . S
C147 O152 1.247 . S
C147 O153 1.208 . S
C148 O140 1.315 . S
C148 O143 1.279 . S
C149 O150 1.315 . S
C149 O151 1.279 . S
O150 Cd142 2.223 . S
O150 C149 1.315 . S
O151 Cd141 2.240 . S
O151 C149 1.279 . S
O152 Cd142 2.297 . S
O152 C147 1.247 . S
O153 Cd142 2.439 . S
O153 C147 1.208 . S
O154 Cd155 2.223 . S
O154 C162 1.315 . S
Cd155 O154 2.223 . S
Cd155 O158 2.297 . S
Cd155 O159 2.439 . S
Cd155 O165 2.240 . S
Cd156 O157 2.240 . S
Cd156 O164 2.223 . S
Cd156 O166 2.297 . S
Cd156 O167 2.439 . S
O157 Cd156 2.240 . S
O157 C162 1.279 . S
O158 Cd155 2.297 . S
O158 C160 1.247 . S
O159 Cd155 2.439 . S
O159 C160 1.208 . S
C160 O158 1.247 . S
C160 O159 1.208 . S
C161 O166 1.247 . S
C161 O167 1.208 . S
C162 O154 1.315 . S
C162 O157 1.279 . S
C163 O164 1.315 . S
C163 O165 1.279 . S
O164 Cd156 2.223 . S
O164 C163 1.315 . S
O165 Cd155 2.240 . S
O165 C163 1.279 . S
O166 Cd156 2.297 . S
O166 C161 1.247 . S
O167 Cd156 2.439 . S
O167 C161 1.208 . S
O168 Cd169 2.223 . S
O168 C176 1.315 . S
Cd169 O168 2.223 . S
Cd169 O172 2.297 . S
Cd169 O173 2.439 . S
Cd169 O179 2.240 . S
Cd170 O171 2.240 . S
Cd170 O178 2.223 . S
Cd170 O180 2.297 1_554 S
Cd170 O181 2.439 1_554 S
O171 Cd170 2.240 . S
O171 C176 1.279 . S
O172 Cd169 2.297 . S
O172 C174 1.247 . S
O173 Cd169 2.439 . S
O173 C174 1.208 . S
C174 O172 1.247 . S
C174 O173 1.208 . S
C175 O180 1.247 . S
C175 O181 1.208 . S
C176 O168 1.315 . S
C176 O171 1.279 . S
C177 O178 1.315 . S
C177 O179 1.279 . S
O178 Cd170 2.223 . S
O178 C177 1.315 . S
O179 Cd169 2.240 . S
O179 C177 1.279 . S
O180 Cd170 2.297 1_556 S
O180 C175 1.247 . S
O181 Cd170 2.439 1_556 S
O181 C175 1.208 . S
O182 Cd183 2.223 . S
O182 C190 1.315 . S
Cd183 O182 2.223 . S
Cd183 O186 2.297 . S
Cd183 O187 2.439 1_554 S
Cd183 O193 2.240 1_554 S
Cd184 O185 2.240 1_556 S
Cd184 O192 2.223 1_556 S
Cd184 O194 2.297 . S
Cd184 O195 2.439 . S
O185 Cd184 2.240 1_554 S
O185 C190 1.279 . S
O186 Cd183 2.297 . S
O186 C188 1.247 . S
O187 Cd183 2.439 1_556 S
O187 C188 1.208 1_556 S
C188 O186 1.247 . S
C188 O187 1.208 1_554 S
C189 O194 1.247 . S
C189 O195 1.208 . S
C190 O182 1.315 . S
C190 O185 1.279 . S
C191 O192 1.315 1_556 S
C191 O193 1.279 . S
O192 Cd184 2.223 1_554 S
O192 C191 1.315 1_554 S
O193 Cd183 2.240 1_556 S
O193 C191 1.279 . S
O194 Cd184 2.297 . S
O194 C189 1.247 . S
O195 Cd184 2.439 . S
O195 C189 1.208 . S
O196 Cd197 2.223 . S
O196 C204 1.315 . S
Cd197 O196 2.223 . S
Cd197 O200 2.297 . S
Cd197 O201 2.439 . S
Cd197 O207 2.240 . S
Cd198 O199 2.240 . S
Cd198 O206 2.223 . S
Cd198 O208 2.297 . S
Cd198 O209 2.439 . S
O199 Cd198 2.240 . S
O199 C204 1.279 . S
O200 Cd197 2.297 . S
O200 C202 1.247 . S
O201 Cd197 2.439 . S
O201 C202 1.208 . S
C202 O200 1.247 . S
C202 O201 1.208 . S
C203 O208 1.247 . S
C203 O209 1.208 . S
C204 O196 1.315 . S
C204 O199 1.279 . S
C205 O206 1.315 . S
C205 O207 1.279 . S
O206 Cd198 2.223 . S
O206 C205 1.315 . S
O207 Cd197 2.240 . S
O207 C205 1.279 . S
O208 Cd198 2.297 . S
O208 C203 1.247 . S
O209 Cd198 2.439 . S
O209 C203 1.208 . S
O210 Cd211 2.223 . S
O210 C218 1.315 . S
Cd211 O210 2.223 . S
Cd211 O214 2.297 . S
Cd211 O215 2.439 . S
Cd211 O221 2.240 . S
Cd212 O213 2.240 . S
Cd212 O220 2.223 . S
Cd212 O222 2.297 . S
Cd212 O223 2.439 . S
O213 Cd212 2.240 . S
O213 C218 1.279 . S
O214 Cd211 2.297 . S
O214 C216 1.247 . S
O215 Cd211 2.439 . S
O215 C216 1.208 . S
C216 O214 1.247 . S
C216 O215 1.208 . S
C217 O222 1.247 . S
C217 O223 1.208 . S
C218 O210 1.315 . S
C218 O213 1.279 . S
C219 O220 1.315 . S
C219 O221 1.279 . S
O220 Cd212 2.223 . S
O220 C219 1.315 . S
O221 Cd211 2.240 . S
O221 C219 1.279 . S
O222 Cd212 2.297 . S
O222 C217 1.247 . S
O223 Cd212 2.439 . S
O223 C217 1.208 . S
O224 Cd225 2.223 . S
O224 C232 1.315 . S
Cd225 O224 2.223 . S
Cd225 O228 2.297 . S
Cd225 O229 2.439 . S
Cd225 O235 2.240 . S
Cd226 O227 2.240 . S
Cd226 O234 2.223 . S
Cd226 O236 2.297 . S
Cd226 O237 2.439 . S
O227 Cd226 2.240 . S
O227 C232 1.279 . S
O228 Cd225 2.297 . S
O228 C230 1.247 . S
O229 Cd225 2.439 . S
O229 C230 1.208 . S
C230 O228 1.247 . S
C230 O229 1.208 . S
C231 O236 1.247 . S
C231 O237 1.208 . S
C232 O224 1.315 . S
C232 O227 1.279 . S
C233 O234 1.315 . S
C233 O235 1.279 . S
O234 Cd226 2.223 . S
O234 C233 1.315 . S
O235 Cd225 2.240 . S
O235 C233 1.279 . S
O236 Cd226 2.297 . S
O236 C231 1.247 . S
O237 Cd226 2.439 . S
O237 C231 1.208 . S
O238 Cd239 2.223 . S
O238 C246 1.315 . S
Cd239 O238 2.223 . S
Cd239 O242 2.297 . S
Cd239 O243 2.439 . S
Cd239 O249 2.240 . S
Cd240 O241 2.240 . S
Cd240 O248 2.223 . S
Cd240 O250 2.297 . S
Cd240 O251 2.439 . S
O241 Cd240 2.240 . S
O241 C246 1.279 . S
O242 Cd239 2.297 . S
O242 C244 1.247 . S
O243 Cd239 2.439 . S
O243 C244 1.208 . S
C244 O242 1.247 . S
C244 O243 1.208 . S
C245 O250 1.247 . S
C245 O251 1.208 . S
C246 O238 1.315 . S
C246 O241 1.279 . S
C247 O248 1.315 . S
C247 O249 1.279 . S
O248 Cd240 2.223 . S
O248 C247 1.315 . S
O249 Cd239 2.240 . S
O249 C247 1.279 . S
O250 Cd240 2.297 . S
O250 C245 1.247 . S
O251 Cd240 2.439 . S
O251 C245 1.208 . S
O252 Cd253 2.223 . S
O252 C260 1.315 . S
Cd253 O252 2.223 . S
Cd253 O256 2.297 . S
Cd253 O257 2.439 . S
Cd253 O263 2.240 . S
Cd254 O255 2.240 . S
Cd254 O262 2.223 . S
Cd254 O264 2.297 . S
Cd254 O265 2.439 . S
O255 Cd254 2.240 . S
O255 C260 1.279 . S
O256 Cd253 2.297 . S
O256 C258 1.247 . S
O257 Cd253 2.439 . S
O257 C258 1.208 . S
C258 O256 1.247 . S
C258 O257 1.208 . S
C259 O264 1.247 . S
C259 O265 1.208 . S
C260 O252 1.315 . S
C260 O255 1.279 . S
C261 O262 1.315 . S
C261 O263 1.279 . S
O262 Cd254 2.223 . S
O262 C261 1.315 . S
O263 Cd253 2.240 . S
O263 C261 1.279 . S
O264 Cd254 2.297 . S
O264 C259 1.247 . S
O265 Cd254 2.439 . S
O265 C259 1.208 . S
O266 Cd267 2.223 1_545 S
O266 C274 1.315 1_545 S
Cd267 O266 2.223 1_565 S
Cd267 O270 2.297 . S
Cd267 O271 2.439 . S
Cd267 O277 2.240 1_565 S
Cd268 O269 2.240 1_545 S
Cd268 O276 2.223 . S
Cd268 O278 2.297 . S
Cd268 O279 2.439 1_545 S
O269 Cd268 2.240 1_565 S
O269 C274 1.279 . S
O270 Cd267 2.297 . S
O270 C272 1.247 . S
O271 Cd267 2.439 . S
O271 C272 1.208 . S
C272 O270 1.247 . S
C272 O271 1.208 . S
C273 O278 1.247 . S
C273 O279 1.208 1_545 S
C274 O266 1.315 1_565 S
C274 O269 1.279 . S
C275 O276 1.315 . S
C275 O277 1.279 . S
O276 Cd268 2.223 . S
O276 C275 1.315 . S
O277 Cd267 2.240 1_545 S
O277 C275 1.279 . S
O278 Cd268 2.297 . S
O278 C273 1.247 . S
O279 Cd268 2.439 1_565 S
O279 C273 1.208 1_565 S
O280 Cd281 2.223 . S
O280 C288 1.315 . S
Cd281 O280 2.223 . S
Cd281 O284 2.297 . S
Cd281 O285 2.439 . S
Cd281 O291 2.240 . S
Cd282 O283 2.240 . S
Cd282 O290 2.223 . S
Cd282 O292 2.297 1_554 S
Cd282 O293 2.434 1_554 S
O283 Cd282 2.240 . S
O283 C288 1.279 . S
O284 Cd281 2.297 . S
O284 C286 1.247 . S
O285 Cd281 2.439 . S
O285 C286 1.208 . S
C286 O284 1.247 . S
C286 O285 1.208 . S
C287 O292 1.247 . S
C287 O293 1.211 . S
C288 O280 1.315 . S
C288 O283 1.279 . S
C289 O290 1.315 . S
C289 O291 1.279 . S
O290 Cd282 2.223 . S
O290 C289 1.315 . S
O291 Cd281 2.240 . S
O291 C289 1.279 . S
O292 Cd282 2.297 1_556 S
O292 C287 1.247 . S
O293 Cd282 2.434 1_556 S
O293 C287 1.211 . S
O294 Cd295 2.223 . S
O294 C302 1.315 . S
Cd295 O294 2.223 . S
Cd295 O298 2.297 . S
Cd295 O299 2.439 . S
Cd295 O305 2.240 . S
Cd296 O297 2.240 . S
Cd296 O304 2.223 . S
Cd296 O306 2.297 . S
Cd296 O307 2.439 . S
O297 Cd296 2.240 . S
O297 C302 1.279 . S
O298 Cd295 2.297 . S
O298 C300 1.247 . S
O299 Cd295 2.439 . S
O299 C300 1.208 . S
C300 O298 1.247 . S
C300 O299 1.208 . S
C301 O306 1.247 . S
C301 O307 1.208 . S
C302 O294 1.315 . S
C302 O297 1.279 . S
C303 O304 1.315 . S
C303 O305 1.279 . S
O304 Cd296 2.223 . S
O304 C303 1.315 . S
O305 Cd295 2.240 . S
O305 C303 1.279 . S
O306 Cd296 2.297 . S
O306 C301 1.247 . S
O307 Cd296 2.439 . S
O307 C301 1.208 . S
O308 Cd309 2.223 . S
O308 C316 1.315 . S
Cd309 O308 2.223 . S
Cd309 O312 2.297 . S
Cd309 O313 2.439 . S
Cd309 O319 2.240 . S
Cd310 O311 2.240 . S
Cd310 O318 2.223 . S
Cd310 O320 2.297 . S
Cd310 O321 2.439 . S
O311 Cd310 2.240 . S
O311 C316 1.279 . S
O312 Cd309 2.297 . S
O312 C314 1.247 . S
O313 Cd309 2.439 . S
O313 C314 1.208 . S
C314 O312 1.247 . S
C314 O313 1.208 . S
C315 O320 1.247 . S
C315 O321 1.208 . S
C316 O308 1.315 . S
C316 O311 1.279 . S
C317 O318 1.315 . S
C317 O319 1.279 . S
O318 Cd310 2.223 . S
O318 C317 1.315 . S
O319 Cd309 2.240 . S
O319 C317 1.279 . S
O320 Cd310 2.297 . S
O320 C315 1.247 . S
O321 Cd310 2.439 . S
O321 C315 1.208 . S
O322 Cd323 2.223 . S
O322 C330 1.315 . S
Cd323 O322 2.223 . S
Cd323 O326 2.297 . S
Cd323 O327 2.439 . S
Cd323 O333 2.240 . S
Cd324 O325 2.240 . S
Cd324 O332 2.223 . S
Cd324 O334 2.297 . S
Cd324 O335 2.439 . S
O325 Cd324 2.240 . S
O325 C330 1.279 . S
O326 Cd323 2.297 . S
O326 C328 1.247 . S
O327 Cd323 2.439 . S
O327 C328 1.208 . S
C328 O326 1.247 . S
C328 O327 1.208 . S
C329 O334 1.247 . S
C329 O335 1.208 . S
C330 O322 1.315 . S
C330 O325 1.279 . S
C331 O332 1.315 . S
C331 O333 1.279 . S
O332 Cd324 2.223 . S
O332 C331 1.315 . S
O333 Cd323 2.240 . S
O333 C331 1.279 . S
O334 Cd324 2.297 . S
O334 C329 1.247 . S
O335 Cd324 2.439 . S
O335 C329 1.208 . S
Pr336 C338 2.880 1_455 S
Pr336 O356 2.562 1_455 S
Pr336 O357 2.490 1_455 S
Pr336 O358 2.695 . S
Pr336 O359 2.512 1_554 S
Pr336 O361 2.437 . S
Pr336 O364 2.436 . S
Pr336 O366 2.438 . S
Pr337 C347 2.880 . S
Pr337 O358 2.436 . S
Pr337 O360 2.438 . S
Pr337 O362 2.562 . S
Pr337 O363 2.490 . S
Pr337 O364 2.695 . S
Pr337 O365 2.512 . S
Pr337 O367 2.437 . S
C338 Pr336 2.880 1_655 S
C338 C339 1.491 . S
C338 O356 1.254 . S
C338 O357 1.225 . S
C339 C338 1.491 . S
C339 C340 1.392 1_554 S
C339 C344 1.356 . S
C340 C339 1.392 1_556 S
C340 C341 1.368 . S
C340 H368 0.929 . S
C341 C340 1.368 . S
C341 C342 1.386 . S
C341 H369 0.929 . S
C342 C341 1.386 . S
C342 C343 1.373 1_556 S
C343 C342 1.373 1_554 S
C343 C344 1.409 . S
C343 H370 0.931 . S
C344 C339 1.356 . S
C344 C343 1.409 . S
C344 H371 0.930 . S
C345 O358 1.270 . S
C345 O359 1.248 1_554 S
C346 O360 1.267 . S
C346 O361 1.278 . S
C347 Pr337 2.880 . S
C347 C348 1.491 . S
C347 O362 1.254 . S
C347 O363 1.225 . S
C348 C347 1.491 . S
C348 C349 1.392 . S
C348 C353 1.356 . S
C349 C348 1.392 . S
C349 C350 1.368 . S
C349 H372 0.929 . S
C350 C349 1.368 . S
C350 C351 1.386 . S
C350 H373 0.929 . S
C351 C350 1.386 . S
C351 C352 1.373 . S
C352 C351 1.373 . S
C352 C353 1.409 . S
C352 H374 0.931 . S
C353 C348 1.356 . S
C353 C352 1.409 . S
C353 H375 0.930 . S
C354 O364 1.270 . S
C354 O365 1.248 . S
C355 O366 1.267 . S
C355 O367 1.278 . S
O356 Pr336 2.562 1_655 S
O356 C338 1.254 . S
O357 Pr336 2.490 1_655 S
O357 C338 1.225 . S
O358 Pr336 2.695 . S
O358 Pr337 2.436 . S
O358 C345 1.270 . S
O359 Pr336 2.512 1_556 S
O359 C345 1.248 1_556 S
O360 Pr337 2.438 . S
O360 C346 1.267 . S
O361 Pr336 2.437 . S
O361 C346 1.278 . S
O362 Pr337 2.562 . S
O362 C347 1.254 . S
O363 Pr337 2.490 . S
O363 C347 1.225 . S
O364 Pr336 2.436 . S
O364 Pr337 2.695 . S
O364 C354 1.270 . S
O365 Pr337 2.512 . S
O365 C354 1.248 . S
O366 Pr336 2.438 . S
O366 C355 1.267 . S
O367 Pr337 2.437 . S
O367 C355 1.278 . S
H368 C340 0.929 . S
H369 C341 0.929 . S
H370 C343 0.931 . S
H371 C344 0.930 . S
H372 C349 0.929 . S
H373 C350 0.929 . S
H374 C352 0.931 . S
H375 C353 0.930 . S
Pr376 C378 2.880 . S
Pr376 O396 2.562 . S
Pr376 O397 2.490 . S
Pr376 O398 2.695 . S
Pr376 O399 2.512 . S
Pr376 O401 2.437 . S
Pr376 O404 2.436 . S
Pr376 O406 2.438 . S
Pr377 C387 2.880 . S
Pr377 O398 2.436 . S
Pr377 O400 2.438 . S
Pr377 O402 2.562 . S
Pr377 O403 2.490 . S
Pr377 O404 2.695 . S
Pr377 O405 2.512 . S
Pr377 O407 2.437 . S
C378 Pr376 2.880 . S
C378 C379 1.491 . S
C378 O396 1.254 . S
C378 O397 1.225 . S
C379 C378 1.491 . S
C379 C380 1.392 . S
C379 C384 1.356 . S
C380 C379 1.392 . S
C380 C381 1.368 . S
C380 H408 0.929 . S
C381 C380 1.368 . S
C381 C382 1.386 . S
C381 H409 0.929 . S
C382 C381 1.386 . S
C382 C383 1.373 . S
C383 C382 1.373 . S
C383 C384 1.409 . S
C383 H410 0.931 . S
C384 C379 1.356 . S
C384 C383 1.409 . S
C384 H411 0.930 . S
C385 O398 1.270 . S
C385 O399 1.248 . S
C386 O400 1.267 . S
C386 O401 1.278 . S
C387 Pr377 2.880 . S
C387 C388 1.491 . S
C387 O402 1.254 . S
C387 O403 1.225 . S
C388 C387 1.491 . S
C388 C389 1.392 . S
C388 C393 1.356 . S
C389 C388 1.392 . S
C389 C390 1.368 . S
C389 H412 0.929 . S
C390 C389 1.368 . S
C390 C391 1.386 . S
C390 H413 0.929 . S
C391 C390 1.386 . S
C391 C392 1.373 . S
C392 C391 1.373 . S
C392 C393 1.409 . S
C392 H414 0.931 . S
C393 C388 1.356 . S
C393 C392 1.409 . S
C393 H415 0.930 . S
C394 O404 1.270 . S
C394 O405 1.248 . S
C395 O406 1.267 . S
C395 O407 1.278 . S
O396 Pr376 2.562 . S
O396 C378 1.254 . S
O397 Pr376 2.490 . S
O397 C378 1.225 . S
O398 Pr376 2.695 . S
O398 Pr377 2.436 . S
O398 C385 1.270 . S
O399 Pr376 2.512 . S
O399 C385 1.248 . S
O400 Pr377 2.438 . S
O400 C386 1.267 . S
O401 Pr376 2.437 . S
O401 C386 1.278 . S
O402 Pr377 2.562 . S
O402 C387 1.254 . S
O403 Pr377 2.490 . S
O403 C387 1.225 . S
O404 Pr376 2.436 . S
O404 Pr377 2.695 . S
O404 C394 1.270 . S
O405 Pr377 2.512 . S
O405 C394 1.248 . S
O406 Pr376 2.438 . S
O406 C395 1.267 . S
O407 Pr377 2.437 . S
O407 C395 1.278 . S
H408 C380 0.929 . S
H409 C381 0.929 . S
H410 C383 0.931 . S
H411 C384 0.930 . S
H412 C389 0.929 . S
H413 C390 0.929 . S
H414 C392 0.931 . S
H415 C393 0.930 . S
Pr416 C418 2.880 . S
Pr416 O436 2.562 . S
Pr416 O437 2.490 . S
Pr416 O438 2.695 . S
Pr416 O439 2.512 . S
Pr416 O441 2.437 . S
Pr416 O444 2.436 . S
Pr416 O446 2.438 . S
Pr417 C427 2.880 . S
Pr417 O438 2.436 . S
Pr417 O440 2.438 . S
Pr417 O442 2.562 . S
Pr417 O443 2.490 . S
Pr417 O444 2.695 . S
Pr417 O445 2.512 . S
Pr417 O447 2.437 . S
C418 Pr416 2.880 . S
C418 C419 1.491 . S
C418 O436 1.254 . S
C418 O437 1.225 . S
C419 C418 1.491 . S
C419 C420 1.392 . S
C419 C424 1.356 . S
C420 C419 1.392 . S
C420 C421 1.368 . S
C420 H448 0.929 . S
C421 C420 1.368 . S
C421 C422 1.386 . S
C421 H449 0.929 . S
C422 C421 1.386 . S
C422 C423 1.373 . S
C423 C422 1.373 . S
C423 C424 1.409 . S
C423 H450 0.931 . S
C424 C419 1.356 . S
C424 C423 1.409 . S
C424 H451 0.930 . S
C425 O438 1.270 . S
C425 O439 1.248 . S
C426 O440 1.267 . S
C426 O441 1.278 . S
C427 Pr417 2.880 . S
C427 C428 1.491 . S
C427 O442 1.254 . S
C427 O443 1.225 . S
C428 C427 1.491 . S
C428 C429 1.392 . S
C428 C433 1.356 . S
C429 C428 1.392 . S
C429 C430 1.368 . S
C429 H452 0.929 . S
C430 C429 1.368 . S
C430 C431 1.386 . S
C430 H453 0.929 . S
C431 C430 1.386 . S
C431 C432 1.373 . S
C432 C431 1.373 . S
C432 C433 1.409 . S
C432 H454 0.931 . S
C433 C428 1.356 . S
C433 C432 1.409 . S
C433 H455 0.930 . S
C434 O444 1.270 . S
C434 O445 1.248 . S
C435 O446 1.267 . S
C435 O447 1.278 . S
O436 Pr416 2.562 . S
O436 C418 1.254 . S
O437 Pr416 2.490 . S
O437 C418 1.225 . S
O438 Pr416 2.695 . S
O438 Pr417 2.436 . S
O438 C425 1.270 . S
O439 Pr416 2.512 . S
O439 C425 1.248 . S
O440 Pr417 2.438 . S
O440 C426 1.267 . S
O441 Pr416 2.437 . S
O441 C426 1.278 . S
O442 Pr417 2.562 . S
O442 C427 1.254 . S
O443 Pr417 2.490 . S
O443 C427 1.225 . S
O444 Pr416 2.436 . S
O444 Pr417 2.695 . S
O444 C434 1.270 . S
O445 Pr417 2.512 . S
O445 C434 1.248 . S
O446 Pr416 2.438 . S
O446 C435 1.267 . S
O447 Pr417 2.437 . S
O447 C435 1.278 . S
H448 C420 0.929 . S
H449 C421 0.929 . S
H450 C423 0.931 . S
H451 C424 0.930 . S
H452 C429 0.929 . S
H453 C430 0.929 . S
H454 C432 0.931 . S
H455 C433 0.930 . S
Pr456 C458 2.880 . S
Pr456 O476 2.562 . S
Pr456 O477 2.490 . S
Pr456 O478 2.695 . S
Pr456 O479 2.512 . S
Pr456 O481 2.437 . S
Pr456 O484 2.436 . S
Pr456 O486 2.438 . S
Pr457 C467 2.880 . S
Pr457 O478 2.436 . S
Pr457 O480 2.438 . S
Pr457 O482 2.562 . S
Pr457 O483 2.490 . S
Pr457 O484 2.695 . S
Pr457 O485 2.512 . S
Pr457 O487 2.437 . S
C458 Pr456 2.880 . S
C458 C459 1.491 . S
C458 O476 1.254 . S
C458 O477 1.225 . S
C459 C458 1.491 . S
C459 C460 1.392 . S
C459 C464 1.356 . S
C460 C459 1.392 . S
C460 C461 1.368 . S
C460 H488 0.929 . S
C461 C460 1.368 . S
C461 C462 1.386 . S
C461 H489 0.929 . S
C462 C461 1.386 . S
C462 C463 1.373 . S
C463 C462 1.373 . S
C463 C464 1.409 . S
C463 H490 0.931 . S
C464 C459 1.356 . S
C464 C463 1.409 . S
C464 H491 0.930 . S
C465 O478 1.270 . S
C465 O479 1.248 . S
C466 O480 1.267 . S
C466 O481 1.278 . S
C467 Pr457 2.880 . S
C467 C468 1.491 . S
C467 O482 1.254 . S
C467 O483 1.225 . S
C468 C467 1.491 . S
C468 C469 1.392 . S
C468 C473 1.356 . S
C469 C468 1.392 . S
C469 C470 1.368 . S
C469 H492 0.929 . S
C470 C469 1.368 . S
C470 C471 1.386 . S
C470 H493 0.929 . S
C471 C470 1.386 . S
C471 C472 1.373 . S
C472 C471 1.373 . S
C472 C473 1.409 . S
C472 H494 0.931 . S
C473 C468 1.356 . S
C473 C472 1.409 . S
C473 H495 0.930 . S
C474 O484 1.270 . S
C474 O485 1.248 . S
C475 O486 1.267 . S
C475 O487 1.278 . S
O476 Pr456 2.562 . S
O476 C458 1.254 . S
O477 Pr456 2.490 . S
O477 C458 1.225 . S
O478 Pr456 2.695 . S
O478 Pr457 2.436 . S
O478 C465 1.270 . S
O479 Pr456 2.512 . S
O479 C465 1.248 . S
O480 Pr457 2.438 . S
O480 C466 1.267 . S
O481 Pr456 2.437 . S
O481 C466 1.278 . S
O482 Pr457 2.562 . S
O482 C467 1.254 . S
O483 Pr457 2.490 . S
O483 C467 1.225 . S
O484 Pr456 2.436 . S
O484 Pr457 2.695 . S
O484 C474 1.270 . S
O485 Pr457 2.512 . S
O485 C474 1.248 . S
O486 Pr456 2.438 . S
O486 C475 1.267 . S
O487 Pr457 2.437 . S
O487 C475 1.278 . S
H488 C460 0.929 . S
H489 C461 0.929 . S
H490 C463 0.931 . S
H491 C464 0.930 . S
H492 C469 0.929 . S
H493 C470 0.929 . S
H494 C472 0.931 . S
H495 C473 0.930 . S
Pr496 C498 2.880 . S
Pr496 O516 2.562 . S
Pr496 O517 2.490 . S
Pr496 O518 2.695 . S
Pr496 O519 2.512 . S
Pr496 O521 2.437 . S
Pr496 O524 2.436 . S
Pr496 O526 2.438 . S
Pr497 C507 2.880 . S
Pr497 O518 2.436 . S
Pr497 O520 2.438 . S
Pr497 O522 2.562 . S
Pr497 O523 2.490 . S
Pr497 O524 2.695 . S
Pr497 O525 2.512 . S
Pr497 O527 2.437 . S
C498 Pr496 2.880 . S
C498 C499 1.491 . S
C498 O516 1.254 . S
C498 O517 1.225 . S
C499 C498 1.491 . S
C499 C500 1.392 . S
C499 C504 1.356 . S
C500 C499 1.392 . S
C500 C501 1.368 . S
C500 H528 0.929 . S
C501 C500 1.368 . S
C501 C502 1.386 . S
C501 H529 0.929 . S
C502 C501 1.386 . S
C502 C503 1.373 1_455 S
C503 C502 1.373 1_655 S
C503 C504 1.409 1_655 S
C503 H530 0.931 . S
C504 C499 1.356 . S
C504 C503 1.409 1_455 S
C504 H531 0.930 1_455 S
C505 O518 1.270 . S
C505 O519 1.248 . S
C506 O520 1.267 . S
C506 O521 1.278 . S
C507 Pr497 2.880 . S
C507 C508 1.491 . S
C507 O522 1.254 . S
C507 O523 1.225 . S
C508 C507 1.491 . S
C508 C509 1.392 . S
C508 C513 1.356 . S
C509 C508 1.392 . S
C509 C510 1.368 . S
C509 H532 0.929 . S
C510 C509 1.368 . S
C510 C511 1.386 . S
C510 H533 0.929 . S
C511 C510 1.386 . S
C511 C512 1.373 . S
C512 C511 1.373 . S
C512 C513 1.409 . S
C512 H534 0.931 . S
C513 C508 1.356 . S
C513 C512 1.409 . S
C513 H535 0.930 . S
C514 O524 1.270 . S
C514 O525 1.248 . S
C515 O526 1.267 . S
C515 O527 1.278 . S
O516 Pr496 2.562 . S
O516 C498 1.254 . S
O517 Pr496 2.490 . S
O517 C498 1.225 . S
O518 Pr496 2.695 . S
O518 Pr497 2.436 . S
O518 C505 1.270 . S
O519 Pr496 2.512 . S
O519 C505 1.248 . S
O520 Pr497 2.438 . S
O520 C506 1.267 . S
O521 Pr496 2.437 . S
O521 C506 1.278 . S
O522 Pr497 2.562 . S
O522 C507 1.254 . S
O523 Pr497 2.490 . S
O523 C507 1.225 . S
O524 Pr496 2.436 . S
O524 Pr497 2.695 . S
O524 C514 1.270 . S
O525 Pr497 2.512 . S
O525 C514 1.248 . S
O526 Pr496 2.438 . S
O526 C515 1.267 . S
O527 Pr497 2.437 . S
O527 C515 1.278 . S
H528 C500 0.929 . S
H529 C501 0.929 . S
H530 C503 0.931 . S
H531 C504 0.930 1_655 S
H532 C509 0.929 . S
H533 C510 0.929 . S
H534 C512 0.931 . S
H535 C513 0.930 . S
Pr536 C538 2.880 . S
Pr536 O556 2.562 . S
Pr536 O557 2.490 . S
Pr536 O558 2.695 . S
Pr536 O559 2.512 . S
Pr536 O561 2.437 . S
Pr536 O564 2.436 . S
Pr536 O566 2.438 . S
Pr537 C547 2.880 . S
Pr537 O558 2.436 . S
Pr537 O560 2.438 . S
Pr537 O562 2.562 . S
Pr537 O563 2.490 . S
Pr537 O564 2.695 . S
Pr537 O565 2.512 . S
Pr537 O567 2.437 . S
C538 Pr536 2.880 . S
C538 C539 1.491 . S
C538 O556 1.254 . S
C538 O557 1.225 . S
C539 C538 1.491 . S
C539 C540 1.392 . S
C539 C544 1.356 . S
C540 C539 1.392 . S
C540 C541 1.368 . S
C540 H568 0.929 . S
C541 C540 1.368 . S
C541 C542 1.386 . S
C541 H569 0.929 . S
C542 C541 1.386 . S
C542 C543 1.373 . S
C543 C542 1.373 . S
C543 C544 1.409 . S
C543 H570 0.931 . S
C544 C539 1.356 . S
C544 C543 1.409 . S
C544 H571 0.930 . S
C545 O558 1.270 . S
C545 O559 1.248 . S
C546 O560 1.267 . S
C546 O561 1.278 . S
C547 Pr537 2.880 . S
C547 C548 1.491 . S
C547 O562 1.254 . S
C547 O563 1.225 . S
C548 C547 1.491 . S
C548 C549 1.392 . S
C548 C553 1.356 . S
C549 C548 1.392 . S
C549 C550 1.368 . S
C549 H572 0.929 . S
C550 C549 1.368 . S
C550 C551 1.386 . S
C550 H573 0.929 . S
C551 C550 1.386 . S
C551 C552 1.373 . S
C552 C551 1.373 . S
C552 C553 1.409 . S
C552 H574 0.931 . S
C553 C548 1.356 . S
C553 C552 1.409 . S
C553 H575 0.930 . S
C554 O564 1.270 . S
C554 O565 1.248 . S
C555 O566 1.267 . S
C555 O567 1.278 . S
O556 Pr536 2.562 . S
O556 C538 1.254 . S
O557 Pr536 2.490 . S
O557 C538 1.225 . S
O558 Pr536 2.695 . S
O558 Pr537 2.436 . S
O558 C545 1.270 . S
O559 Pr536 2.512 . S
O559 C545 1.248 . S
O560 Pr537 2.438 . S
O560 C546 1.267 . S
O561 Pr536 2.437 . S
O561 C546 1.278 . S
O562 Pr537 2.562 . S
O562 C547 1.254 . S
O563 Pr537 2.490 . S
O563 C547 1.225 . S
O564 Pr536 2.436 . S
O564 Pr537 2.695 . S
O564 C554 1.270 . S
O565 Pr537 2.512 . S
O565 C554 1.248 . S
O566 Pr536 2.438 . S
O566 C555 1.267 . S
O567 Pr537 2.437 . S
O567 C555 1.278 . S
H568 C540 0.929 . S
H569 C541 0.929 . S
H570 C543 0.931 . S
H571 C544 0.930 . S
H572 C549 0.929 . S
H573 C550 0.929 . S
H574 C552 0.931 . S
H575 C553 0.930 . S
Pr576 C578 2.880 . S
Pr576 O596 2.562 . S
Pr576 O597 2.490 . S
Pr576 O598 2.695 . S
Pr576 O599 2.512 . S
Pr576 O601 2.437 . S
Pr576 O604 2.436 . S
Pr576 O606 2.438 . S
Pr577 C587 2.880 1_554 S
Pr577 O598 2.436 . S
Pr577 O600 2.438 . S
Pr577 O602 2.562 1_554 S
Pr577 O603 2.490 1_554 S
Pr577 O604 2.695 . S
Pr577 O605 2.512 . S
Pr577 O607 2.437 . S
C578 Pr576 2.880 . S
C578 C579 1.491 . S
C578 O596 1.254 . S
C578 O597 1.225 . S
C579 C578 1.491 . S
C579 C580 1.392 . S
C579 C584 1.356 . S
C580 C579 1.392 . S
C580 C581 1.368 . S
C580 H608 0.929 . S
C581 C580 1.368 . S
C581 C582 1.386 . S
C581 H609 0.929 . S
C582 C581 1.386 . S
C582 C583 1.373 . S
C583 C582 1.373 . S
C583 C584 1.409 . S
C583 H610 0.931 . S
C584 C579 1.356 . S
C584 C583 1.409 . S
C584 H611 0.930 . S
C585 O598 1.270 . S
C585 O599 1.248 . S
C586 O600 1.267 . S
C586 O601 1.278 . S
C587 Pr577 2.880 1_556 S
C587 C588 1.491 . S
C587 O602 1.254 . S
C587 O603 1.225 . S
C588 C587 1.491 . S
C588 C589 1.392 . S
C588 C593 1.356 . S
C589 C588 1.392 . S
C589 C590 1.368 . S
C589 H612 0.929 . S
C590 C589 1.368 . S
C590 C591 1.386 . S
C590 H613 0.929 . S
C591 C590 1.386 . S
C591 C592 1.373 . S
C592 C591 1.373 . S
C592 C593 1.409 . S
C592 H614 0.931 . S
C593 C588 1.356 . S
C593 C592 1.409 . S
C593 H615 0.930 . S
C594 O604 1.270 . S
C594 O605 1.248 . S
C595 O606 1.267 . S
C595 O607 1.278 . S
O596 Pr576 2.562 . S
O596 C578 1.254 . S
O597 Pr576 2.490 . S
O597 C578 1.225 . S
O598 Pr576 2.695 . S
O598 Pr577 2.436 . S
O598 C585 1.270 . S
O599 Pr576 2.512 . S
O599 C585 1.248 . S
O600 Pr577 2.438 . S
O600 C586 1.267 . S
O601 Pr576 2.437 . S
O601 C586 1.278 . S
O602 Pr577 2.562 1_556 S
O602 C587 1.254 . S
O603 Pr577 2.490 1_556 S
O603 C587 1.225 . S
O604 Pr576 2.436 . S
O604 Pr577 2.695 . S
O604 C594 1.270 . S
O605 Pr577 2.512 . S
O605 C594 1.248 . S
O606 Pr576 2.438 . S
O606 C595 1.267 . S
O607 Pr577 2.437 . S
O607 C595 1.278 . S
H608 C580 0.929 . S
H609 C581 0.929 . S
H610 C583 0.931 . S
H611 C584 0.930 . S
H612 C589 0.929 . S
H613 C590 0.929 . S
H614 C592 0.931 . S
H615 C593 0.930 . S
Pr616 C618 2.880 . S
Pr616 O636 2.562 . S
Pr616 O637 2.490 . S
Pr616 O638 2.695 . S
Pr616 O639 2.512 . S
Pr616 O641 2.437 . S
Pr616 O644 2.436 . S
Pr616 O646 2.438 . S
Pr617 C627 2.880 . S
Pr617 O638 2.436 . S
Pr617 O640 2.438 . S
Pr617 O642 2.562 . S
Pr617 O643 2.490 . S
Pr617 O644 2.695 . S
Pr617 O645 2.512 . S
Pr617 O647 2.437 . S
C618 Pr616 2.880 . S
C618 C619 1.491 . S
C618 O636 1.254 . S
C618 O637 1.225 . S
C619 C618 1.491 . S
C619 C620 1.392 . S
C619 C624 1.356 . S
C620 C619 1.392 . S
C620 C621 1.368 . S
C620 H648 0.929 . S
C621 C620 1.368 . S
C621 C622 1.386 . S
C621 H649 0.929 . S
C622 C621 1.386 . S
C622 C623 1.373 . S
C623 C622 1.373 . S
C623 C624 1.409 . S
C623 H650 0.931 . S
C624 C619 1.356 . S
C624 C623 1.409 . S
C624 H651 0.930 . S
C625 O638 1.270 . S
C625 O639 1.248 . S
C626 O640 1.267 . S
C626 O641 1.278 . S
C627 Pr617 2.880 . S
C627 C628 1.491 . S
C627 O642 1.254 . S
C627 O643 1.225 . S
C628 C627 1.491 . S
C628 C629 1.392 . S
C628 C633 1.356 . S
C629 C628 1.392 . S
C629 C630 1.368 . S
C629 H652 0.929 . S
C630 C629 1.368 . S
C630 C631 1.386 . S
C630 H653 0.929 . S
C631 C630 1.386 . S
C631 C632 1.373 . S
C632 C631 1.373 . S
C632 C633 1.409 . S
C632 H654 0.931 . S
C633 C628 1.356 . S
C633 C632 1.409 . S
C633 H655 0.930 . S
C634 O644 1.270 . S
C634 O645 1.248 . S
C635 O646 1.267 . S
C635 O647 1.278 . S
O636 Pr616 2.562 . S
O636 C618 1.254 . S
O637 Pr616 2.490 . S
O637 C618 1.225 . S
O638 Pr616 2.695 . S
O638 Pr617 2.436 . S
O638 C625 1.270 . S
O639 Pr616 2.512 . S
O639 C625 1.248 . S
O640 Pr617 2.438 . S
O640 C626 1.267 . S
O641 Pr616 2.437 . S
O641 C626 1.278 . S
O642 Pr617 2.562 . S
O642 C627 1.254 . S
O643 Pr617 2.490 . S
O643 C627 1.225 . S
O644 Pr616 2.436 . S
O644 Pr617 2.695 . S
O644 C634 1.270 . S
O645 Pr617 2.512 . S
O645 C634 1.248 . S
O646 Pr616 2.438 . S
O646 C635 1.267 . S
O647 Pr617 2.437 . S
O647 C635 1.278 . S
H648 C620 0.929 . S
H649 C621 0.929 . S
H650 C623 0.931 . S
H651 C624 0.930 . S
H652 C629 0.929 . S
H653 C630 0.929 . S
H654 C632 0.931 . S
H655 C633 0.930 . S
Pr656 C658 2.880 1_554 S
Pr656 O676 2.562 1_554 S
Pr656 O677 2.490 1_554 S
Pr656 O678 2.695 . S
Pr656 O679 2.512 . S
Pr656 O681 2.437 . S
Pr656 O684 2.436 . S
Pr656 O686 2.438 . S
Pr657 C667 2.880 . S
Pr657 O678 2.436 . S
Pr657 O680 2.438 . S
Pr657 O682 2.562 . S
Pr657 O683 2.490 . S
Pr657 O684 2.695 . S
Pr657 O685 2.512 . S
Pr657 O687 2.437 . S
C658 Pr656 2.880 1_556 S
C658 C659 1.491 . S
C658 O676 1.254 . S
C658 O677 1.225 . S
C659 C658 1.491 . S
C659 C660 1.392 . S
C659 C664 1.356 . S
C660 C659 1.392 . S
C660 C661 1.368 . S
C660 H688 0.929 . S
C661 C660 1.368 . S
C661 C662 1.386 . S
C661 H689 0.929 . S
C662 C661 1.386 . S
C662 C663 1.373 . S
C663 C662 1.373 . S
C663 C664 1.409 . S
C663 H690 0.931 . S
C664 C659 1.356 . S
C664 C663 1.409 . S
C664 H691 0.930 . S
C665 O678 1.270 . S
C665 O679 1.248 . S
C666 O680 1.267 . S
C666 O681 1.278 . S
C667 Pr657 2.880 . S
C667 C668 1.491 . S
C667 O682 1.254 . S
C667 O683 1.225 . S
C668 C667 1.491 . S
C668 C669 1.392 . S
C668 C673 1.356 . S
C669 C668 1.392 . S
C669 C670 1.368 . S
C669 H692 0.929 . S
C670 C669 1.368 . S
C670 C671 1.386 . S
C670 H693 0.929 . S
C671 C670 1.386 . S
C671 C672 1.373 . S
C672 C671 1.373 . S
C672 C673 1.409 . S
C672 H694 0.931 . S
C673 C668 1.356 . S
C673 C672 1.409 . S
C673 H695 0.930 . S
C674 O684 1.270 . S
C674 O685 1.248 . S
C675 O686 1.267 . S
C675 O687 1.278 . S
O676 Pr656 2.562 1_556 S
O676 C658 1.254 . S
O677 Pr656 2.490 1_556 S
O677 C658 1.225 . S
O678 Pr656 2.695 . S
O678 Pr657 2.436 . S
O678 C665 1.270 . S
O679 Pr656 2.512 . S
O679 C665 1.248 . S
O680 Pr657 2.438 . S
O680 C666 1.267 . S
O681 Pr656 2.437 . S
O681 C666 1.278 . S
O682 Pr657 2.562 . S
O682 C667 1.254 . S
O683 Pr657 2.490 . S
O683 C667 1.225 . S
O684 Pr656 2.436 . S
O684 Pr657 2.695 . S
O684 C674 1.270 . S
O685 Pr657 2.512 . S
O685 C674 1.248 . S
O686 Pr656 2.438 . S
O686 C675 1.267 . S
O687 Pr657 2.437 . S
O687 C675 1.278 . S
H688 C660 0.929 . S
H689 C661 0.929 . S
H690 C663 0.931 . S
H691 C664 0.930 . S
H692 C669 0.929 . S
H693 C670 0.929 . S
H694 C672 0.931 . S
H695 C673 0.930 . S
Pr696 C698 2.880 . S
Pr696 O716 2.562 . S
Pr696 O717 2.490 . S
Pr696 O718 2.695 . S
Pr696 O719 2.512 . S
Pr696 O721 2.437 . S
Pr696 O724 2.436 . S
Pr696 O726 2.438 . S
Pr697 C707 2.880 . S
Pr697 O718 2.436 . S
Pr697 O720 2.438 . S
Pr697 O722 2.562 . S
Pr697 O723 2.490 . S
Pr697 O724 2.695 . S
Pr697 O725 2.512 . S
Pr697 O727 2.437 . S
C698 Pr696 2.880 . S
C698 C699 1.491 . S
C698 O716 1.254 . S
C698 O717 1.225 . S
C699 C698 1.491 . S
C699 C700 1.392 . S
C699 C704 1.356 . S
C700 C699 1.392 . S
C700 C701 1.368 . S
C700 H728 0.929 . S
C701 C700 1.368 . S
C701 C702 1.386 . S
C701 H729 0.929 . S
C702 C701 1.386 . S
C702 C703 1.373 . S
C703 C702 1.373 . S
C703 C704 1.409 . S
C703 H730 0.931 . S
C704 C699 1.356 . S
C704 C703 1.409 . S
C704 H731 0.930 . S
C705 O718 1.270 . S
C705 O719 1.248 . S
C706 O720 1.267 . S
C706 O721 1.278 . S
C707 Pr697 2.880 . S
C707 C708 1.491 . S
C707 O722 1.254 . S
C707 O723 1.225 . S
C708 C707 1.491 . S
C708 C709 1.392 . S
C708 C713 1.356 . S
C709 C708 1.392 . S
C709 C710 1.368 . S
C709 H732 0.929 . S
C710 C709 1.368 . S
C710 C711 1.386 . S
C710 H733 0.929 . S
C711 C710 1.386 . S
C711 C712 1.373 . S
C712 C711 1.373 . S
C712 C713 1.409 . S
C712 H734 0.931 . S
C713 C708 1.356 . S
C713 C712 1.409 . S
C713 H735 0.930 . S
C714 O724 1.270 . S
C714 O725 1.248 . S
C715 O726 1.267 . S
C715 O727 1.278 . S
O716 Pr696 2.562 . S
O716 C698 1.254 . S
O717 Pr696 2.490 . S
O717 C698 1.225 . S
O718 Pr696 2.695 . S
O718 Pr697 2.436 . S
O718 C705 1.270 . S
O719 Pr696 2.512 . S
O719 C705 1.248 . S
O720 Pr697 2.438 . S
O720 C706 1.267 . S
O721 Pr696 2.437 . S
O721 C706 1.278 . S
O722 Pr697 2.562 . S
O722 C707 1.254 . S
O723 Pr697 2.490 . S
O723 C707 1.225 . S
O724 Pr696 2.436 . S
O724 Pr697 2.695 . S
O724 C714 1.270 . S
O725 Pr697 2.512 . S
O725 C714 1.248 . S
O726 Pr696 2.438 . S
O726 C715 1.267 . S
O727 Pr697 2.437 . S
O727 C715 1.278 . S
H728 C700 0.929 . S
H729 C701 0.929 . S
H730 C703 0.931 . S
H731 C704 0.930 . S
H732 C709 0.929 . S
H733 C710 0.929 . S
H734 C712 0.931 . S
H735 C713 0.930 . S
Pr736 C738 2.880 . S
Pr736 O756 2.562 . S
Pr736 O757 2.490 . S
Pr736 O758 2.695 . S
Pr736 O759 2.512 . S
Pr736 O761 2.437 . S
Pr736 O764 2.436 . S
Pr736 O766 2.438 . S
Pr737 C747 2.880 . S
Pr737 O758 2.436 . S
Pr737 O760 2.425 1_455 S
Pr737 O762 2.562 . S
Pr737 O763 2.490 . S
Pr737 O764 2.695 . S
Pr737 O765 2.512 . S
Pr737 O767 2.437 . S
C738 Pr736 2.880 . S
C738 C739 1.491 . S
C738 O756 1.254 . S
C738 O757 1.225 . S
C739 C738 1.491 . S
C739 C740 1.392 . S
C739 C744 1.356 . S
C740 C739 1.392 . S
C740 C741 1.368 . S
C740 H768 0.929 . S
C741 C740 1.368 . S
C741 C742 1.386 1_455 S
C741 H769 0.929 . S
C742 C741 1.386 1_655 S
C742 C743 1.373 . S
C743 C742 1.373 . S
C743 C744 1.409 1_655 S
C743 H770 0.931 . S
C744 C739 1.356 . S
C744 C743 1.409 1_455 S
C744 H771 0.930 . S
C745 O758 1.270 . S
C745 O759 1.248 . S
C746 O760 1.270 . S
C746 O761 1.278 1_655 S
C747 Pr737 2.880 . S
C747 C748 1.491 . S
C747 O762 1.254 . S
C747 O763 1.225 . S
C748 C747 1.491 . S
C748 C749 1.392 . S
C748 C753 1.356 . S
C749 C748 1.392 . S
C749 C750 1.368 . S
C749 H772 0.929 . S
C750 C749 1.368 . S
C750 C751 1.386 . S
C750 H773 0.929 . S
C751 C750 1.386 . S
C751 C752 1.373 . S
C752 C751 1.373 . S
C752 C753 1.409 . S
C752 H774 0.931 . S
C753 C748 1.356 . S
C753 C752 1.409 . S
C753 H775 0.930 . S
C754 O764 1.270 . S
C754 O765 1.248 . S
C755 O766 1.267 . S
C755 O767 1.278 . S
O756 Pr736 2.562 . S
O756 C738 1.254 . S
O757 Pr736 2.490 . S
O757 C738 1.225 . S
O758 Pr736 2.695 . S
O758 Pr737 2.436 . S
O758 C745 1.270 . S
O759 Pr736 2.512 . S
O759 C745 1.248 . S
O760 Pr737 2.425 1_655 S
O760 C746 1.270 . S
O761 Pr736 2.437 . S
O761 C746 1.278 1_455 S
O762 Pr737 2.562 . S
O762 C747 1.254 . S
O763 Pr737 2.490 . S
O763 C747 1.225 . S
O764 Pr736 2.436 . S
O764 Pr737 2.695 . S
O764 C754 1.270 . S
O765 Pr737 2.512 . S
O765 C754 1.248 . S
O766 Pr736 2.438 . S
O766 C755 1.267 . S
O767 Pr737 2.437 . S
O767 C755 1.278 . S
H768 C740 0.929 . S
H769 C741 0.929 . S
H770 C743 0.931 . S
H771 C744 0.930 . S
H772 C749 0.929 . S
H773 C750 0.929 . S
H774 C752 0.931 . S
H775 C753 0.930 . S
Pr776 C778 2.880 . S
Pr776 O796 2.562 . S
Pr776 O797 2.490 . S
Pr776 O798 2.695 . S
Pr776 O799 2.512 . S
Pr776 O801 2.437 . S
Pr776 O804 2.436 . S
Pr776 O806 2.438 . S
Pr777 C787 2.880 . S
Pr777 O798 2.436 . S
Pr777 O800 2.438 . S
Pr777 O802 2.562 . S
Pr777 O803 2.490 . S
Pr777 O804 2.695 . S
Pr777 O805 2.512 . S
Pr777 O807 2.437 . S
C778 Pr776 2.880 . S
C778 C779 1.491 . S
C778 O796 1.254 . S
C778 O797 1.225 . S
C779 C778 1.491 . S
C779 C780 1.392 . S
C779 C784 1.356 . S
C780 C779 1.392 . S
C780 C781 1.368 . S
C780 H808 0.929 . S
C781 C780 1.368 . S
C781 C782 1.386 . S
C781 H809 0.929 . S
C782 C781 1.386 . S
C782 C783 1.373 . S
C783 C782 1.373 . S
C783 C784 1.409 . S
C783 H810 0.931 . S
C784 C779 1.356 . S
C784 C783 1.409 . S
C784 H811 0.930 . S
C785 O798 1.270 . S
C785 O799 1.248 . S
C786 O800 1.267 . S
C786 O801 1.278 . S
C787 Pr777 2.880 . S
C787 C788 1.491 . S
C787 O802 1.254 . S
C787 O803 1.225 . S
C788 C787 1.491 . S
C788 C789 1.392 . S
C788 C793 1.356 . S
C789 C788 1.392 . S
C789 C790 1.368 . S
C789 H812 0.929 . S
C790 C789 1.368 . S
C790 C791 1.386 . S
C790 H813 0.929 . S
C791 C790 1.386 . S
C791 C792 1.373 . S
C792 C791 1.373 . S
C792 C793 1.409 . S
C792 H814 0.931 . S
C793 C788 1.356 . S
C793 C792 1.409 . S
C793 H815 0.930 . S
C794 O804 1.270 . S
C794 O805 1.248 . S
C795 O806 1.267 . S
C795 O807 1.278 . S
O796 Pr776 2.562 . S
O796 C778 1.254 . S
O797 Pr776 2.490 . S
O797 C778 1.225 . S
O798 Pr776 2.695 . S
O798 Pr777 2.436 . S
O798 C785 1.270 . S
O799 Pr776 2.512 . S
O799 C785 1.248 . S
O800 Pr777 2.438 . S
O800 C786 1.267 . S
O801 Pr776 2.437 . S
O801 C786 1.278 . S
O802 Pr777 2.562 . S
O802 C787 1.254 . S
O803 Pr777 2.490 . S
O803 C787 1.225 . S
O804 Pr776 2.436 . S
O804 Pr777 2.695 . S
O804 C794 1.270 . S
O805 Pr777 2.512 . S
O805 C794 1.248 . S
O806 Pr776 2.438 . S
O806 C795 1.267 . S
O807 Pr777 2.437 . S
O807 C795 1.278 . S
H808 C780 0.929 . S
H809 C781 0.929 . S
H810 C783 0.931 . S
H811 C784 0.930 . S
H812 C789 0.929 . S
H813 C790 0.929 . S
H814 C792 0.931 . S
H815 C793 0.930 . S
Pr816 C818 2.880 . S
Pr816 O836 2.562 . S
Pr816 O837 2.490 . S
Pr816 O838 2.695 . S
Pr816 O839 2.512 . S
Pr816 O841 2.437 . S
Pr816 O844 2.436 . S
Pr816 O846 2.438 . S
Pr817 C827 2.880 . S
Pr817 O838 2.436 . S
Pr817 O840 2.438 . S
Pr817 O842 2.562 . S
Pr817 O843 2.490 . S
Pr817 O844 2.695 . S
Pr817 O845 2.512 . S
Pr817 O847 2.437 . S
C818 Pr816 2.880 . S
C818 C819 1.491 . S
C818 O836 1.254 . S
C818 O837 1.225 . S
C819 C818 1.491 . S
C819 C820 1.392 . S
C819 C824 1.356 . S
C820 C819 1.392 . S
C820 C821 1.368 . S
C820 H848 0.929 . S
C821 C820 1.368 . S
C821 C822 1.386 . S
C821 H849 0.929 . S
C822 C821 1.386 . S
C822 C823 1.373 . S
C823 C822 1.373 . S
C823 C824 1.409 . S
C823 H850 0.931 . S
C824 C819 1.356 . S
C824 C823 1.409 . S
C824 H851 0.930 . S
C825 O838 1.270 . S
C825 O839 1.248 . S
C826 O840 1.267 . S
C826 O841 1.278 . S
C827 Pr817 2.880 . S
C827 C828 1.491 . S
C827 O842 1.254 . S
C827 O843 1.225 . S
C828 C827 1.491 . S
C828 C829 1.392 . S
C828 C833 1.356 . S
C829 C828 1.392 . S
C829 C830 1.368 . S
C829 H852 0.929 . S
C830 C829 1.368 . S
C830 C831 1.386 . S
C830 H853 0.929 . S
C831 C830 1.386 . S
C831 C832 1.373 . S
C832 C831 1.373 . S
C832 C833 1.409 . S
C832 H854 0.931 . S
C833 C828 1.356 . S
C833 C832 1.409 . S
C833 H855 0.930 . S
C834 O844 1.270 . S
C834 O845 1.248 . S
C835 O846 1.267 . S
C835 O847 1.278 . S
O836 Pr816 2.562 . S
O836 C818 1.254 . S
O837 Pr816 2.490 . S
O837 C818 1.225 . S
O838 Pr816 2.695 . S
O838 Pr817 2.436 . S
O838 C825 1.270 . S
O839 Pr816 2.512 . S
O839 C825 1.248 . S
O840 Pr817 2.438 . S
O840 C826 1.267 . S
O841 Pr816 2.437 . S
O841 C826 1.278 . S
O842 Pr817 2.562 . S
O842 C827 1.254 . S
O843 Pr817 2.490 . S
O843 C827 1.225 . S
O844 Pr816 2.436 . S
O844 Pr817 2.695 . S
O844 C834 1.270 . S
O845 Pr817 2.512 . S
O845 C834 1.248 . S
O846 Pr816 2.438 . S
O846 C835 1.267 . S
O847 Pr817 2.437 . S
O847 C835 1.278 . S
H848 C820 0.929 . S
H849 C821 0.929 . S
H850 C823 0.931 . S
H851 C824 0.930 . S
H852 C829 0.929 . S
H853 C830 0.929 . S
H854 C832 0.931 . S
H855 C833 0.930 . S
Pr856 C858 2.880 . S
Pr856 O876 2.562 . S
Pr856 O877 2.490 . S
Pr856 O878 2.695 . S
Pr856 O879 2.512 . S
Pr856 O881 2.437 . S
Pr856 O884 2.436 . S
Pr856 O886 2.438 . S
Pr857 C867 2.880 . S
Pr857 O878 2.436 . S
Pr857 O880 2.438 . S
Pr857 O882 2.562 . S
Pr857 O883 2.490 . S
Pr857 O884 2.695 . S
Pr857 O885 2.512 . S
Pr857 O887 2.437 . S
C858 Pr856 2.880 . S
C858 C859 1.491 . S
C858 O876 1.254 . S
C858 O877 1.225 . S
C859 C858 1.491 . S
C859 C860 1.392 . S
C859 C864 1.356 . S
C860 C859 1.392 . S
C860 C861 1.368 . S
C860 H888 0.929 . S
C861 C860 1.368 . S
C861 C862 1.386 . S
C861 H889 0.929 . S
C862 C861 1.386 . S
C862 C863 1.373 . S
C863 C862 1.373 . S
C863 C864 1.409 . S
C863 H890 0.931 . S
C864 C859 1.356 . S
C864 C863 1.409 . S
C864 H891 0.930 . S
C865 O878 1.270 . S
C865 O879 1.248 . S
C866 O880 1.267 . S
C866 O881 1.278 . S
C867 Pr857 2.880 . S
C867 C868 1.491 . S
C867 O882 1.254 . S
C867 O883 1.225 . S
C868 C867 1.491 . S
C868 C869 1.392 . S
C868 C873 1.356 . S
C869 C868 1.392 . S
C869 C870 1.368 . S
C869 H892 0.929 . S
C870 C869 1.368 . S
C870 C871 1.386 . S
C870 H893 0.929 . S
C871 C870 1.386 . S
C871 C872 1.373 . S
C872 C871 1.373 . S
C872 C873 1.409 . S
C872 H894 0.931 . S
C873 C868 1.356 . S
C873 C872 1.409 . S
C873 H895 0.930 . S
C874 O884 1.270 . S
C874 O885 1.248 . S
C875 O886 1.267 . S
C875 O887 1.278 . S
O876 Pr856 2.562 . S
O876 C858 1.254 . S
O877 Pr856 2.490 . S
O877 C858 1.225 . S
O878 Pr856 2.695 . S
O878 Pr857 2.436 . S
O878 C865 1.270 . S
O879 Pr856 2.512 . S
O879 C865 1.248 . S
O880 Pr857 2.438 . S
O880 C866 1.267 . S
O881 Pr856 2.437 . S
O881 C866 1.278 . S
O882 Pr857 2.562 . S
O882 C867 1.254 . S
O883 Pr857 2.490 . S
O883 C867 1.225 . S
O884 Pr856 2.436 . S
O884 Pr857 2.695 . S
O884 C874 1.270 . S
O885 Pr857 2.512 . S
O885 C874 1.248 . S
O886 Pr856 2.438 . S
O886 C875 1.267 . S
O887 Pr857 2.437 . S
O887 C875 1.278 . S
H888 C860 0.929 . S
H889 C861 0.929 . S
H890 C863 0.931 . S
H891 C864 0.930 . S
H892 C869 0.929 . S
H893 C870 0.929 . S
H894 C872 0.931 . S
H895 C873 0.930 . S
Pr896 C898 2.880 . S
Pr896 O916 2.562 . S
Pr896 O917 2.490 . S
Pr896 O918 2.695 . S
Pr896 O919 2.512 . S
Pr896 O921 2.437 . S
Pr896 O924 2.436 . S
Pr896 O926 2.438 . S
Pr897 C907 2.880 . S
Pr897 O918 2.436 . S
Pr897 O920 2.438 . S
Pr897 O922 2.562 . S
Pr897 O923 2.490 . S
Pr897 O924 2.695 . S
Pr897 O925 2.512 . S
Pr897 O927 2.437 . S
C898 Pr896 2.880 . S
C898 C899 1.491 . S
C898 O916 1.254 . S
C898 O917 1.225 . S
C899 C898 1.491 . S
C899 C900 1.392 . S
C899 C904 1.356 . S
C900 C899 1.392 . S
C900 C901 1.368 . S
C900 H928 0.929 . S
C901 C900 1.368 . S
C901 C902 1.386 . S
C901 H929 0.929 . S
C902 C901 1.386 . S
C902 C903 1.373 . S
C903 C902 1.373 . S
C903 C904 1.409 . S
C903 H930 0.931 . S
C904 C899 1.356 . S
C904 C903 1.409 . S
C904 H931 0.930 . S
C905 O918 1.270 . S
C905 O919 1.248 . S
C906 O920 1.267 . S
C906 O921 1.278 . S
C907 Pr897 2.880 . S
C907 C908 1.491 . S
C907 O922 1.254 . S
C907 O923 1.225 . S
C908 C907 1.491 . S
C908 C909 1.392 . S
C908 C913 1.356 . S
C909 C908 1.392 . S
C909 C910 1.368 . S
C909 H932 0.929 . S
C910 C909 1.368 . S
C910 C911 1.386 . S
C910 H933 0.929 . S
C911 C910 1.386 . S
C911 C912 1.373 . S
C912 C911 1.373 . S
C912 C913 1.409 . S
C912 H934 0.931 . S
C913 C908 1.356 . S
C913 C912 1.409 . S
C913 H935 0.930 . S
C914 O924 1.270 . S
C914 O925 1.248 . S
C915 O926 1.267 . S
C915 O927 1.278 . S
O916 Pr896 2.562 . S
O916 C898 1.254 . S
O917 Pr896 2.490 . S
O917 C898 1.225 . S
O918 Pr896 2.695 . S
O918 Pr897 2.436 . S
O918 C905 1.270 . S
O919 Pr896 2.512 . S
O919 C905 1.248 . S
O920 Pr897 2.438 . S
O920 C906 1.267 . S
O921 Pr896 2.437 . S
O921 C906 1.278 . S
O922 Pr897 2.562 . S
O922 C907 1.254 . S
O923 Pr897 2.490 . S
O923 C907 1.225 . S
O924 Pr896 2.436 . S
O924 Pr897 2.695 . S
O924 C914 1.270 . S
O925 Pr897 2.512 . S
O925 C914 1.248 . S
O926 Pr896 2.438 . S
O926 C915 1.267 . S
O927 Pr897 2.437 . S
O927 C915 1.278 . S
H928 C900 0.929 . S
H929 C901 0.929 . S
H930 C903 0.931 . S
H931 C904 0.930 . S
H932 C909 0.929 . S
H933 C910 0.929 . S
H934 C912 0.931 . S
H935 C913 0.930 . S
Pr936 C938 2.880 . S
Pr936 O956 2.562 . S
Pr936 O957 2.490 . S
Pr936 O958 2.695 . S
Pr936 O959 2.512 . S
Pr936 O961 2.437 . S
Pr936 O964 2.436 . S
Pr936 O966 2.438 . S
Pr937 C947 2.880 1_455 S
Pr937 O958 2.436 . S
Pr937 O960 2.438 . S
Pr937 O962 2.562 1_455 S
Pr937 O963 2.490 1_455 S
Pr937 O964 2.695 . S
Pr937 O965 2.512 . S
Pr937 O967 2.437 . S
C938 Pr936 2.880 . S
C938 C939 1.491 . S
C938 O956 1.254 . S
C938 O957 1.225 . S
C939 C938 1.491 . S
C939 C940 1.392 . S
C939 C944 1.356 . S
C940 C939 1.392 . S
C940 C941 1.368 . S
C940 H968 0.929 . S
C941 C940 1.368 . S
C941 C942 1.386 . S
C941 H969 0.929 . S
C942 C941 1.386 . S
C942 C943 1.373 . S
C943 C942 1.373 . S
C943 C944 1.409 . S
C943 H970 0.931 . S
C944 C939 1.356 . S
C944 C943 1.409 . S
C944 H971 0.930 . S
C945 O958 1.270 . S
C945 O959 1.248 . S
C946 O960 1.267 . S
C946 O961 1.278 . S
C947 Pr937 2.880 1_655 S
C947 C948 1.491 . S
C947 O962 1.254 . S
C947 O963 1.225 . S
C948 C947 1.491 . S
C948 C949 1.392 . S
C948 C953 1.356 . S
C949 C948 1.392 . S
C949 C950 1.368 . S
C949 H972 0.929 . S
C950 C949 1.368 . S
C950 C951 1.386 . S
C950 H973 0.929 . S
C951 C950 1.386 . S
C951 C952 1.373 . S
C952 C951 1.373 . S
C952 C953 1.409 . S
C952 H974 0.931 . S
C953 C948 1.356 . S
C953 C952 1.409 . S
C953 H975 0.930 . S
C954 O964 1.270 . S
C954 O965 1.248 . S
C955 O966 1.267 . S
C955 O967 1.278 . S
O956 Pr936 2.562 . S
O956 C938 1.254 . S
O957 Pr936 2.490 . S
O957 C938 1.225 . S
O958 Pr936 2.695 . S
O958 Pr937 2.436 . S
O958 C945 1.270 . S
O959 Pr936 2.512 . S
O959 C945 1.248 . S
O960 Pr937 2.438 . S
O960 C946 1.267 . S
O961 Pr936 2.437 . S
O961 C946 1.278 . S
O962 Pr937 2.562 1_655 S
O962 C947 1.254 . S
O963 Pr937 2.490 1_655 S
O963 C947 1.225 . S
O964 Pr936 2.436 . S
O964 Pr937 2.695 . S
O964 C954 1.270 . S
O965 Pr937 2.512 . S
O965 C954 1.248 . S
O966 Pr936 2.438 . S
O966 C955 1.267 . S
O967 Pr937 2.437 . S
O967 C955 1.278 . S
H968 C940 0.929 . S
H969 C941 0.929 . S
H970 C943 0.931 . S
H971 C944 0.930 . S
H972 C949 0.929 . S
H973 C950 0.929 . S
H974 C952 0.931 . S
H975 C953 0.930 . S
C976 C977 1.349 . S
C976 C978 1.327 . S
C976 H1001 0.950 . S
C977 C976 1.349 . S
C977 C993 1.349 . S
C978 C976 1.327 . S
C978 C997 1.429 . S
C978 H1002 0.950 . S
C979 C996 1.574 . S
C979 C998 1.368 . S
C979 H1003 0.949 . S
H980 C984 0.949 . S
C981 C982 1.349 . S
C981 C983 1.327 . S
C981 H1004 0.950 . S
C982 C981 1.349 . S
C982 C994 1.349 . S
C983 C981 1.327 . S
C983 C999 1.429 . S
C983 H1005 0.950 . S
C984 H980 0.949 . S
C984 C992 1.574 . S
C984 C1000 1.368 . S
H985 C993 0.950 1_655 S
H986 C991 0.950 . S
H987 C992 0.949 . S
H988 C994 0.950 . S
H989 C995 0.950 . S
H990 C996 0.949 1_554 S
C991 H986 0.950 . S
C991 C993 1.327 . S
C991 C997 1.429 . S
C992 C984 1.574 . S
C992 H987 0.949 . S
C992 C998 1.368 . S
C993 C977 1.349 . S
C993 H985 0.950 1_455 S
C993 C991 1.327 . S
C994 C982 1.349 . S
C994 H988 0.950 . S
C994 C995 1.327 1_554 S
C995 H989 0.950 . S
C995 C994 1.327 1_556 S
C995 C999 1.429 1_556 S
C996 C979 1.574 . S
C996 H990 0.949 1_556 S
C996 C1000 1.368 . S
C997 C978 1.429 . S
C997 C991 1.429 . S
C997 C998 1.523 . S
C998 C979 1.368 . S
C998 C992 1.368 . S
C998 C997 1.523 . S
C999 C983 1.429 . S
C999 C995 1.429 1_554 S
C999 C1000 1.523 1_554 S
C1000 C984 1.368 . S
C1000 C996 1.368 . S
C1000 C999 1.523 1_556 S
H1001 C976 0.950 . S
H1002 C978 0.950 . S
H1003 C979 0.949 . S
H1004 C981 0.950 . S
H1005 C983 0.950 . S
C1006 C1007 1.349 . S
C1006 C1008 1.327 . S
C1006 H1031 0.950 . S
C1007 C1006 1.349 . S
C1007 C1023 1.349 . S
C1008 C1006 1.327 . S
C1008 C1027 1.429 . S
C1008 H1032 0.950 . S
C1009 C1026 1.574 . S
C1009 C1028 1.368 . S
C1009 H1033 0.949 . S
H1010 C1014 0.949 . S
C1011 C1012 1.349 . S
C1011 C1013 1.327 . S
C1011 H1034 0.950 . S
C1012 C1011 1.349 . S
C1012 C1024 1.349 . S
C1013 C1011 1.327 . S
C1013 C1029 1.429 . S
C1013 H1035 0.950 . S
C1014 H1010 0.949 . S
C1014 C1022 1.574 . S
C1014 C1030 1.368 . S
H1015 C1023 0.950 . S
H1016 C1021 0.950 . S
H1017 C1022 0.949 . S
H1018 C1024 0.950 . S
H1019 C1025 0.950 . S
H1020 C1026 0.949 . S
C1021 H1016 0.950 . S
C1021 C1023 1.327 . S
C1021 C1027 1.429 . S
C1022 C1014 1.574 . S
C1022 H1017 0.949 . S
C1022 C1028 1.368 . S
C1023 C1007 1.349 . S
C1023 H1015 0.950 . S
C1023 C1021 1.327 . S
C1024 C1012 1.349 . S
C1024 H1018 0.950 . S
C1024 C1025 1.327 . S
C1025 H1019 0.950 . S
C1025 C1024 1.327 . S
C1025 C1029 1.429 . S
C1026 C1009 1.574 . S
C1026 H1020 0.949 . S
C1026 C1030 1.368 . S
C1027 C1008 1.429 . S
C1027 C1021 1.429 . S
C1027 C1028 1.523 . S
C1028 C1009 1.368 . S
C1028 C1022 1.368 . S
C1028 C1027 1.523 . S
C1029 C1013 1.429 . S
C1029 C1025 1.429 . S
C1029 C1030 1.523 . S
C1030 C1014 1.368 . S
C1030 C1026 1.368 . S
C1030 C1029 1.523 . S
H1031 C1006 0.950 . S
H1032 C1008 0.950 . S
H1033 C1009 0.949 . S
H1034 C1011 0.950 . S
H1035 C1013 0.950 . S
C1036 C1037 1.349 . S
C1036 C1038 1.327 . S
C1036 H1061 0.950 . S
C1037 C1036 1.349 . S
C1037 C1053 1.349 . S
C1038 C1036 1.327 . S
C1038 C1057 1.429 . S
C1038 H1062 0.950 . S
C1039 C1056 1.574 . S
C1039 C1058 1.368 . S
C1039 H1063 0.949 . S
H1040 C1044 0.949 . S
C1041 C1042 1.347 1_565 S
C1041 C1043 1.358 . S
C1041 H1064 0.921 1_565 S
C1042 C1041 1.347 1_545 S
C1042 C1054 1.349 1_545 S
C1043 C1041 1.358 . S
C1043 C1059 1.429 . S
C1043 H1065 0.950 . S
C1044 H1040 0.949 . S
C1044 C1052 1.574 . S
C1044 C1060 1.368 . S
H1045 C1053 0.950 . S
H1046 C1051 0.950 . S
H1047 C1052 0.949 . S
H1048 C1054 0.950 . S
H1049 C1055 0.950 . S
H1050 C1056 0.949 . S
C1051 H1046 0.950 . S
C1051 C1053 1.327 . S
C1051 C1057 1.429 . S
C1052 C1044 1.574 . S
C1052 H1047 0.949 . S
C1052 C1058 1.368 . S
C1053 C1037 1.349 . S
C1053 H1045 0.950 . S
C1053 C1051 1.327 . S
C1054 C1042 1.349 1_565 S
C1054 H1048 0.950 . S
C1054 C1055 1.327 . S
C1055 H1049 0.950 . S
C1055 C1054 1.327 . S
C1055 C1059 1.429 . S
C1056 C1039 1.574 . S
C1056 H1050 0.949 . S
C1056 C1060 1.368 . S
C1057 C1038 1.429 . S
C1057 C1051 1.429 . S
C1057 C1058 1.523 . S
C1058 C1039 1.368 . S
C1058 C1052 1.368 . S
C1058 C1057 1.523 . S
C1059 C1043 1.429 . S
C1059 C1055 1.429 . S
C1059 C1060 1.523 . S
C1060 C1044 1.368 . S
C1060 C1056 1.368 . S
C1060 C1059 1.523 . S
H1061 C1036 0.950 . S
H1062 C1038 0.950 . S
H1063 C1039 0.949 . S
H1064 C1041 0.921 1_545 S
H1065 C1043 0.950 . S
C1066 C1067 1.349 . S
C1066 C1068 1.327 . S
C1066 H1091 0.950 . S
C1067 C1066 1.349 . S
C1067 C1083 1.349 . S
C1068 C1066 1.327 . S
C1068 C1087 1.429 . S
C1068 H1092 0.950 . S
C1069 C1086 1.574 . S
C1069 C1088 1.368 . S
C1069 H1093 0.949 . S
H1070 C1074 0.949 . S
C1071 C1072 1.349 . S
C1071 C1073 1.327 . S
C1071 H1094 0.950 . S
C1072 C1071 1.349 . S
C1072 C1084 1.349 . S
C1073 C1071 1.327 . S
C1073 C1089 1.429 . S
C1073 H1095 0.950 . S
C1074 H1070 0.949 . S
C1074 C1082 1.574 . S
C1074 C1090 1.368 . S
H1075 C1083 0.950 . S
H1076 C1081 0.950 . S
H1077 C1082 0.949 . S
H1078 C1084 0.950 . S
H1079 C1085 0.950 . S
H1080 C1086 0.949 . S
C1081 H1076 0.950 . S
C1081 C1083 1.327 . S
C1081 C1087 1.429 . S
C1082 C1074 1.574 . S
C1082 H1077 0.949 . S
C1082 C1088 1.368 . S
C1083 C1067 1.349 . S
C1083 H1075 0.950 . S
C1083 C1081 1.327 . S
C1084 C1072 1.349 . S
C1084 H1078 0.950 . S
C1084 C1085 1.327 . S
C1085 H1079 0.950 . S
C1085 C1084 1.327 . S
C1085 C1089 1.429 . S
C1086 C1069 1.574 . S
C1086 H1080 0.949 . S
C1086 C1090 1.368 . S
C1087 C1068 1.429 . S
C1087 C1081 1.429 . S
C1087 C1088 1.523 . S
C1088 C1069 1.368 . S
C1088 C1082 1.368 . S
C1088 C1087 1.523 . S
C1089 C1073 1.429 . S
C1089 C1085 1.429 . S
C1089 C1090 1.523 . S
C1090 C1074 1.368 . S
C1090 C1086 1.368 . S
C1090 C1089 1.523 . S
H1091 C1066 0.950 . S
H1092 C1068 0.950 . S
H1093 C1069 0.949 . S
H1094 C1071 0.950 . S
H1095 C1073 0.950 . S
C1096 C1097 1.349 . S
C1096 C1098 1.327 . S
C1096 H1121 0.950 . S
C1097 C1096 1.349 . S
C1097 C1113 1.349 . S
C1098 C1096 1.327 . S
C1098 C1117 1.429 . S
C1098 H1122 0.950 . S
C1099 C1116 1.574 . S
C1099 C1118 1.368 . S
C1099 H1123 0.949 . S
H1100 C1104 0.949 . S
C1101 C1102 1.349 . S
C1101 C1103 1.383 . S
C1101 H1124 0.950 . S
C1102 C1101 1.349 . S
C1102 C1114 1.349 1_545 S
C1103 C1101 1.383 . S
C1103 C1119 1.376 1_545 S
C1103 H1125 0.950 . S
C1104 H1100 0.949 . S
C1104 C1112 1.574 . S
C1104 C1120 1.368 . S
H1105 C1113 0.950 . S
H1106 C1111 0.950 . S
H1107 C1112 0.949 . S
H1108 C1114 0.950 . S
H1109 C1115 0.950 . S
H1110 C1116 0.949 . S
C1111 H1106 0.950 . S
C1111 C1113 1.327 . S
C1111 C1117 1.429 . S
C1112 C1104 1.574 . S
C1112 H1107 0.949 . S
C1112 C1118 1.368 . S
C1113 C1097 1.349 . S
C1113 H1105 0.950 . S
C1113 C1111 1.327 . S
C1114 C1102 1.349 1_565 S
C1114 H1108 0.950 . S
C1114 C1115 1.327 . S
C1115 H1109 0.950 . S
C1115 C1114 1.327 . S
C1115 C1119 1.429 . S
C1116 C1099 1.574 . S
C1116 H1110 0.949 . S
C1116 C1120 1.368 . S
C1117 C1098 1.429 . S
C1117 C1111 1.429 . S
C1117 C1118 1.523 . S
C1118 C1099 1.368 . S
C1118 C1112 1.368 . S
C1118 C1117 1.523 . S
C1119 C1103 1.376 1_565 S
C1119 C1115 1.429 . S
C1119 C1120 1.523 . S
C1120 C1104 1.368 . S
C1120 C1116 1.368 . S
C1120 C1119 1.523 . S
H1121 C1096 0.950 . S
H1122 C1098 0.950 . S
H1123 C1099 0.949 . S
H1124 C1101 0.950 . S
H1125 C1103 0.950 . S
C1126 C1127 1.349 . S
C1126 C1128 1.327 . S
C1126 H1151 0.950 . S
C1127 C1126 1.349 . S
C1127 C1143 1.349 . S
C1128 C1126 1.327 . S
C1128 C1147 1.429 . S
C1128 H1152 0.950 . S
C1129 C1146 1.574 . S
C1129 C1148 1.368 . S
C1129 H1153 0.949 . S
H1130 C1134 0.949 . S
C1131 C1132 1.349 . S
C1131 C1133 1.327 . S
C1131 H1154 0.950 . S
C1132 C1131 1.349 . S
C1132 C1144 1.349 . S
C1133 C1131 1.327 . S
C1133 C1149 1.429 . S
C1133 H1155 0.950 . S
C1134 H1130 0.949 . S
C1134 C1142 1.574 . S
C1134 C1150 1.368 . S
H1135 C1143 0.950 . S
H1136 C1141 0.950 . S
H1137 C1142 0.949 . S
H1138 C1144 0.950 . S
H1139 C1145 0.950 . S
H1140 C1146 0.949 . S
C1141 H1136 0.950 . S
C1141 C1143 1.327 . S
C1141 C1147 1.429 . S
C1142 C1134 1.574 . S
C1142 H1137 0.949 . S
C1142 C1148 1.368 . S
C1143 C1127 1.349 . S
C1143 H1135 0.950 . S
C1143 C1141 1.327 . S
C1144 C1132 1.349 . S
C1144 H1138 0.950 . S
C1144 C1145 1.327 . S
C1145 H1139 0.950 . S
C1145 C1144 1.327 . S
C1145 C1149 1.429 . S
C1146 C1129 1.574 . S
C1146 H1140 0.949 . S
C1146 C1150 1.368 . S
C1147 C1128 1.429 . S
C1147 C1141 1.429 . S
C1147 C1148 1.523 . S
C1148 C1129 1.368 . S
C1148 C1142 1.368 . S
C1148 C1147 1.523 . S
C1149 C1133 1.429 . S
C1149 C1145 1.429 . S
C1149 C1150 1.523 . S
C1150 C1134 1.368 . S
C1150 C1146 1.368 . S
C1150 C1149 1.523 . S
H1151 C1126 0.950 . S
H1152 C1128 0.950 . S
H1153 C1129 0.949 . S
H1154 C1131 0.950 . S
H1155 C1133 0.950 . S
C1156 C1157 1.349 . S
C1156 C1158 1.327 . S
C1156 H1181 0.950 . S
C1157 C1156 1.349 . S
C1157 C1173 1.349 . S
C1158 C1156 1.327 . S
C1158 C1177 1.429 . S
C1158 H1182 0.950 . S
C1159 C1176 1.574 . S
C1159 C1178 1.368 . S
C1159 H1183 0.949 . S
H1160 C1164 0.949 . S
C1161 C1162 1.349 . S
C1161 C1163 1.327 . S
C1161 H1184 0.950 . S
C1162 C1161 1.349 . S
C1162 C1174 1.349 . S
C1163 C1161 1.327 . S
C1163 C1179 1.429 . S
C1163 H1185 0.950 . S
C1164 H1160 0.949 . S
C1164 C1172 1.574 . S
C1164 C1180 1.368 . S
H1165 C1173 0.950 . S
H1166 C1171 0.950 . S
H1167 C1172 0.949 . S
H1168 C1174 0.950 . S
H1169 C1175 0.950 . S
H1170 C1176 0.949 . S
C1171 H1166 0.950 . S
C1171 C1173 1.327 . S
C1171 C1177 1.429 . S
C1172 C1164 1.574 . S
C1172 H1167 0.949 . S
C1172 C1178 1.368 . S
C1173 C1157 1.349 . S
C1173 H1165 0.950 . S
C1173 C1171 1.327 . S
C1174 C1162 1.349 . S
C1174 H1168 0.950 . S
C1174 C1175 1.327 . S
C1175 H1169 0.950 . S
C1175 C1174 1.327 . S
C1175 C1179 1.429 . S
C1176 C1159 1.574 . S
C1176 H1170 0.949 . S
C1176 C1180 1.368 . S
C1177 C1158 1.429 . S
C1177 C1171 1.429 . S
C1177 C1178 1.523 . S
C1178 C1159 1.368 . S
C1178 C1172 1.368 . S
C1178 C1177 1.523 . S
C1179 C1163 1.429 . S
C1179 C1175 1.429 . S
C1179 C1180 1.523 . S
C1180 C1164 1.368 . S
C1180 C1176 1.368 . S
C1180 C1179 1.523 . S
H1181 C1156 0.950 . S
H1182 C1158 0.950 . S
H1183 C1159 0.949 . S
H1184 C1161 0.950 . S
H1185 C1163 0.950 . S
C1186 C1187 1.349 . S
C1186 C1188 1.327 . S
C1186 H1211 0.950 . S
C1187 C1186 1.349 . S
C1187 C1203 1.349 . S
C1188 C1186 1.327 . S
C1188 C1207 1.429 . S
C1188 H1212 0.950 . S
C1189 C1206 1.574 . S
C1189 C1208 1.368 . S
C1189 H1213 0.949 . S
H1190 C1194 0.949 . S
C1191 C1192 1.349 . S
C1191 C1193 1.327 . S
C1191 H1214 0.950 . S
C1192 C1191 1.349 . S
C1192 C1204 1.349 . S
C1193 C1191 1.327 . S
C1193 C1209 1.429 . S
C1193 H1215 0.950 . S
C1194 H1190 0.949 . S
C1194 C1202 1.574 . S
C1194 C1210 1.368 . S
H1195 C1203 0.950 . S
H1196 C1201 0.950 . S
H1197 C1202 0.949 . S
H1198 C1204 0.950 . S
H1199 C1205 0.950 . S
H1200 C1206 0.949 . S
C1201 H1196 0.950 . S
C1201 C1203 1.327 . S
C1201 C1207 1.429 . S
C1202 C1194 1.574 . S
C1202 H1197 0.949 . S
C1202 C1208 1.368 . S
C1203 C1187 1.349 . S
C1203 H1195 0.950 . S
C1203 C1201 1.327 . S
C1204 C1192 1.349 . S
C1204 H1198 0.950 . S
C1204 C1205 1.327 . S
C1205 H1199 0.950 . S
C1205 C1204 1.327 . S
C1205 C1209 1.429 . S
C1206 C1189 1.574 . S
C1206 H1200 0.949 . S
C1206 C1210 1.368 . S
C1207 C1188 1.429 . S
C1207 C1201 1.429 . S
C1207 C1208 1.523 . S
C1208 C1189 1.368 . S
C1208 C1202 1.368 . S
C1208 C1207 1.523 . S
C1209 C1193 1.429 . S
C1209 C1205 1.429 . S
C1209 C1210 1.523 . S
C1210 C1194 1.368 . S
C1210 C1206 1.368 . S
C1210 C1209 1.523 . S
H1211 C1186 0.950 . S
H1212 C1188 0.950 . S
H1213 C1189 0.949 . S
H1214 C1191 0.950 . S
H1215 C1193 0.950 . S
C1216 C1217 1.349 . S
C1216 C1218 1.327 . S
C1216 H1241 0.950 . S
C1217 C1216 1.349 . S
C1217 C1233 1.349 . S
C1218 C1216 1.327 . S
C1218 C1237 1.429 . S
C1218 H1242 0.950 . S
C1219 C1236 1.574 . S
C1219 C1238 1.368 . S
C1219 H1243 0.949 . S
H1220 C1224 0.949 . S
C1221 C1222 1.349 . S
C1221 C1223 1.307 1_455 S
C1221 H1244 0.950 . S
C1222 C1221 1.349 . S
C1222 C1234 1.349 . S
C1223 C1221 1.307 1_655 S
C1223 C1239 1.439 . S
C1223 H1245 0.960 . S
C1224 H1220 0.949 . S
C1224 C1232 1.574 . S
C1224 C1240 1.368 . S
H1225 C1233 0.950 . S
H1226 C1231 0.950 . S
H1227 C1232 0.949 . S
H1228 C1234 0.950 . S
H1229 C1235 0.950 . S
H1230 C1236 0.949 . S
C1231 H1226 0.950 . S
C1231 C1233 1.327 . S
C1231 C1237 1.429 . S
C1232 C1224 1.574 . S
C1232 H1227 0.949 . S
C1232 C1238 1.368 . S
C1233 C1217 1.349 . S
C1233 H1225 0.950 . S
C1233 C1231 1.327 . S
C1234 C1222 1.349 . S
C1234 H1228 0.950 . S
C1234 C1235 1.327 . S
C1235 H1229 0.950 . S
C1235 C1234 1.327 . S
C1235 C1239 1.429 1_455 S
C1236 C1219 1.574 . S
C1236 H1230 0.949 . S
C1236 C1240 1.368 . S
C1237 C1218 1.429 . S
C1237 C1231 1.429 . S
C1237 C1238 1.523 . S
C1238 C1219 1.368 . S
C1238 C1232 1.368 . S
C1238 C1237 1.523 . S
C1239 C1223 1.439 . S
C1239 C1235 1.429 1_655 S
C1239 C1240 1.523 . S
C1240 C1224 1.368 . S
C1240 C1236 1.368 . S
C1240 C1239 1.523 . S
H1241 C1216 0.950 . S
H1242 C1218 0.950 . S
H1243 C1219 0.949 . S
H1244 C1221 0.950 . S
H1245 C1223 0.960 . S
C1246 C1247 1.349 . S
C1246 C1248 1.327 . S
C1246 H1271 0.950 . S
C1247 C1246 1.349 . S
C1247 C1263 1.349 . S
C1248 C1246 1.327 . S
C1248 C1267 1.429 . S
C1248 H1272 0.950 . S
C1249 C1266 1.574 . S
C1249 C1268 1.368 . S
C1249 H1273 0.949 . S
H1250 C1254 0.949 . S
C1251 C1252 1.349 . S
C1251 C1253 1.327 . S
C1251 H1274 0.950 . S
C1252 C1251 1.349 . S
C1252 C1264 1.349 . S
C1253 C1251 1.327 . S
C1253 C1269 1.429 . S
C1253 H1275 0.950 . S
C1254 H1250 0.949 . S
C1254 C1262 1.574 . S
C1254 C1270 1.368 . S
H1255 C1263 0.950 . S
H1256 C1261 0.950 . S
H1257 C1262 0.949 . S
H1258 C1264 0.950 . S
H1259 C1265 0.950 . S
H1260 C1266 0.949 . S
C1261 H1256 0.950 . S
C1261 C1263 1.327 . S
C1261 C1267 1.429 . S
C1262 C1254 1.574 . S
C1262 H1257 0.949 . S
C1262 C1268 1.368 . S
C1263 C1247 1.349 . S
C1263 H1255 0.950 . S
C1263 C1261 1.327 . S
C1264 C1252 1.349 . S
C1264 H1258 0.950 . S
C1264 C1265 1.327 . S
C1265 H1259 0.950 . S
C1265 C1264 1.327 . S
C1265 C1269 1.429 . S
C1266 C1249 1.574 . S
C1266 H1260 0.949 . S
C1266 C1270 1.368 . S
C1267 C1248 1.429 . S
C1267 C1261 1.429 . S
C1267 C1268 1.523 . S
C1268 C1249 1.368 . S
C1268 C1262 1.368 . S
C1268 C1267 1.523 . S
C1269 C1253 1.429 . S
C1269 C1265 1.429 . S
C1269 C1270 1.523 . S
C1270 C1254 1.368 . S
C1270 C1266 1.368 . S
C1270 C1269 1.523 . S
H1271 C1246 0.950 . S
H1272 C1248 0.950 . S
H1273 C1249 0.949 . S
H1274 C1251 0.950 . S
H1275 C1253 0.950 . S
C1276 C1277 1.349 1_565 S
C1276 C1278 1.327 . S
C1276 H1301 0.950 . S
C1277 C1276 1.349 1_545 S
C1277 C1293 1.349 . S
C1278 C1276 1.327 . S
C1278 C1297 1.429 1_565 S
C1278 H1302 0.950 . S
C1279 C1296 1.574 . S
C1279 C1298 1.368 . S
C1279 H1303 0.949 . S
H1280 C1284 0.949 . S
C1281 C1282 1.349 . S
C1281 C1283 1.327 . S
C1281 H1304 0.950 . S
C1282 C1281 1.349 . S
C1282 C1294 1.349 . S
C1283 C1281 1.327 . S
C1283 C1299 1.429 . S
C1283 H1305 0.950 . S
C1284 H1280 0.949 . S
C1284 C1292 1.574 . S
C1284 C1300 1.368 . S
H1285 C1293 0.950 . S
H1286 C1291 0.950 . S
H1287 C1292 0.949 1_565 S
H1288 C1294 0.950 . S
H1289 C1295 0.950 . S
H1290 C1296 0.949 . S
C1291 H1286 0.950 . S
C1291 C1293 1.327 . S
C1291 C1297 1.429 . S
C1292 C1284 1.574 . S
C1292 H1287 0.949 1_545 S
C1292 C1298 1.368 . S
C1293 C1277 1.349 . S
C1293 H1285 0.950 . S
C1293 C1291 1.327 . S
C1294 C1282 1.349 . S
C1294 H1288 0.950 . S
C1294 C1295 1.327 . S
C1295 H1289 0.950 . S
C1295 C1294 1.327 . S
C1295 C1299 1.429 . S
C1296 C1279 1.574 . S
C1296 H1290 0.949 . S
C1296 C1300 1.368 . S
C1297 C1278 1.429 1_545 S
C1297 C1291 1.429 . S
C1297 C1298 1.523 . S
C1298 C1279 1.368 . S
C1298 C1292 1.368 . S
C1298 C1297 1.523 . S
C1299 C1283 1.429 . S
C1299 C1295 1.429 . S
C1299 C1300 1.523 . S
C1300 C1284 1.368 . S
C1300 C1296 1.368 . S
C1300 C1299 1.523 . S
H1301 C1276 0.950 . S
H1302 C1278 0.950 . S
H1303 C1279 0.949 . S
H1304 C1281 0.950 . S
H1305 C1283 0.950 . S
C1306 C1307 1.349 . S
C1306 C1308 1.327 . S
C1306 H1331 0.950 . S
C1307 C1306 1.349 . S
C1307 C1323 1.349 . S
C1308 C1306 1.327 . S
C1308 C1327 1.429 . S
C1308 H1332 0.950 . S
C1309 C1326 1.574 . S
C1309 C1328 1.368 . S
C1309 H1333 0.949 . S
H1310 C1314 0.949 . S
C1311 C1312 1.349 . S
C1311 C1313 1.327 . S
C1311 H1334 0.950 . S
C1312 C1311 1.349 . S
C1312 C1324 1.349 . S
C1313 C1311 1.327 . S
C1313 C1329 1.429 . S
C1313 H1335 0.950 . S
C1314 H1310 0.949 . S
C1314 C1322 1.574 . S
C1314 C1330 1.368 . S
H1315 C1323 0.950 . S
H1316 C1321 0.950 . S
H1317 C1322 0.949 . S
H1318 C1324 0.950 . S
H1319 C1325 0.950 . S
H1320 C1326 0.949 . S
C1321 H1316 0.950 . S
C1321 C1323 1.327 . S
C1321 C1327 1.429 . S
C1322 C1314 1.574 . S
C1322 H1317 0.949 . S
C1322 C1328 1.368 . S
C1323 C1307 1.349 . S
C1323 H1315 0.950 . S
C1323 C1321 1.327 . S
C1324 C1312 1.349 . S
C1324 H1318 0.950 . S
C1324 C1325 1.327 . S
C1325 H1319 0.950 . S
C1325 C1324 1.327 . S
C1325 C1329 1.429 . S
C1326 C1309 1.574 . S
C1326 H1320 0.949 . S
C1326 C1330 1.368 . S
C1327 C1308 1.429 . S
C1327 C1321 1.429 . S
C1327 C1328 1.523 . S
C1328 C1309 1.368 . S
C1328 C1322 1.368 . S
C1328 C1327 1.523 . S
C1329 C1313 1.429 . S
C1329 C1325 1.429 . S
C1329 C1330 1.523 . S
C1330 C1314 1.368 . S
C1330 C1326 1.368 . S
C1330 C1329 1.523 . S
H1331 C1306 0.950 . S
H1332 C1308 0.950 . S
H1333 C1309 0.949 . S
H1334 C1311 0.950 . S
H1335 C1313 0.950 . S
C1336 C1337 1.349 . S
C1336 C1338 1.327 . S
C1336 H1361 0.950 . S
C1337 C1336 1.349 . S
C1337 C1353 1.349 . S
C1338 C1336 1.327 . S
C1338 C1357 1.429 . S
C1338 H1362 0.950 . S
C1339 C1356 1.574 . S
C1339 C1358 1.368 . S
C1339 H1363 0.949 . S
H1340 C1344 0.949 . S
C1341 C1342 1.349 . S
C1341 C1343 1.327 . S
C1341 H1364 0.950 . S
C1342 C1341 1.349 . S
C1342 C1354 1.385 . S
C1343 C1341 1.327 . S
C1343 C1359 1.429 1_455 S
C1343 H1365 0.950 . S
C1344 H1340 0.949 . S
C1344 C1352 1.574 . S
C1344 C1360 1.368 . S
H1345 C1353 0.950 . S
H1346 C1351 0.950 . S
H1347 C1352 0.949 . S
H1348 C1354 0.947 . S
H1349 C1355 0.950 . S
H1350 C1356 0.949 . S
C1351 H1346 0.950 . S
C1351 C1353 1.327 . S
C1351 C1357 1.429 . S
C1352 C1344 1.574 . S
C1352 H1347 0.949 . S
C1352 C1358 1.368 . S
C1353 C1337 1.349 . S
C1353 H1345 0.950 . S
C1353 C1351 1.327 . S
C1354 C1342 1.385 . S
C1354 H1348 0.947 . S
C1354 C1355 1.307 1_455 S
C1355 H1349 0.950 . S
C1355 C1354 1.307 1_655 S
C1355 C1359 1.429 . S
C1356 C1339 1.574 . S
C1356 H1350 0.949 . S
C1356 C1360 1.368 . S
C1357 C1338 1.429 . S
C1357 C1351 1.429 . S
C1357 C1358 1.523 . S
C1358 C1339 1.368 . S
C1358 C1352 1.368 . S
C1358 C1357 1.523 . S
C1359 C1343 1.429 1_655 S
C1359 C1355 1.429 . S
C1359 C1360 1.523 . S
C1360 C1344 1.368 . S
C1360 C1356 1.368 . S
C1360 C1359 1.523 . S
H1361 C1336 0.950 . S
H1362 C1338 0.950 . S
H1363 C1339 0.949 . S
H1364 C1341 0.950 . S
H1365 C1343 0.950 . S
C1366 C1367 1.349 . S
C1366 C1368 1.327 . S
C1366 H1391 0.950 . S
C1367 C1366 1.349 . S
C1367 C1383 1.349 . S
C1368 C1366 1.327 . S
C1368 C1387 1.429 . S
C1368 H1392 0.950 . S
C1369 C1386 1.574 . S
C1369 C1388 1.368 . S
C1369 H1393 0.949 . S
H1370 C1374 0.949 . S
C1371 C1372 1.349 . S
C1371 C1373 1.327 . S
C1371 H1394 0.950 . S
C1372 C1371 1.349 . S
C1372 C1384 1.349 . S
C1373 C1371 1.327 . S
C1373 C1389 1.429 . S
C1373 H1395 0.950 . S
C1374 H1370 0.949 . S
C1374 C1382 1.574 . S
C1374 C1390 1.368 . S
H1375 C1383 0.950 . S
H1376 C1381 0.950 . S
H1377 C1382 0.949 . S
H1378 C1384 0.950 . S
H1379 C1385 0.950 . S
H1380 C1386 0.949 . S
C1381 H1376 0.950 . S
C1381 C1383 1.327 . S
C1381 C1387 1.429 . S
C1382 C1374 1.574 . S
C1382 H1377 0.949 . S
C1382 C1388 1.368 . S
C1383 C1367 1.349 . S
C1383 H1375 0.950 . S
C1383 C1381 1.327 . S
C1384 C1372 1.349 . S
C1384 H1378 0.950 . S
C1384 C1385 1.327 . S
C1385 H1379 0.950 . S
C1385 C1384 1.327 . S
C1385 C1389 1.429 . S
C1386 C1369 1.574 . S
C1386 H1380 0.949 . S
C1386 C1390 1.368 . S
C1387 C1368 1.429 . S
C1387 C1381 1.429 . S
C1387 C1388 1.523 . S
C1388 C1369 1.368 . S
C1388 C1382 1.368 . S
C1388 C1387 1.523 . S
C1389 C1373 1.429 . S
C1389 C1385 1.429 . S
C1389 C1390 1.523 . S
C1390 C1374 1.368 . S
C1390 C1386 1.368 . S
C1390 C1389 1.523 . S
H1391 C1366 0.950 . S
H1392 C1368 0.950 . S
H1393 C1369 0.949 . S
H1394 C1371 0.950 . S
H1395 C1373 0.950 . S
C1396 C1397 1.349 . S
C1396 C1398 1.327 . S
C1396 H1421 0.950 1_545 S
C1397 C1396 1.349 . S
C1397 C1413 1.349 . S
C1398 C1396 1.327 . S
C1398 C1417 1.429 . S
C1398 H1422 0.950 . S
C1399 C1416 1.574 . S
C1399 C1418 1.368 . S
C1399 H1423 0.949 . S
H1400 C1404 0.949 . S
C1401 C1402 1.349 . S
C1401 C1403 1.327 . S
C1401 H1424 0.950 . S
C1402 C1401 1.349 . S
C1402 C1414 1.349 . S
C1403 C1401 1.327 . S
C1403 C1419 1.429 . S
C1403 H1425 0.950 . S
C1404 H1400 0.949 . S
C1404 C1412 1.574 . S
C1404 C1420 1.368 . S
H1405 C1413 0.950 . S
H1406 C1411 0.950 . S
H1407 C1412 0.949 . S
H1408 C1414 0.950 . S
H1409 C1415 0.950 . S
H1410 C1416 0.949 . S
C1411 H1406 0.950 . S
C1411 C1413 1.327 . S
C1411 C1417 1.429 . S
C1412 C1404 1.574 . S
C1412 H1407 0.949 . S
C1412 C1418 1.368 . S
C1413 C1397 1.349 . S
C1413 H1405 0.950 . S
C1413 C1411 1.327 . S
C1414 C1402 1.349 . S
C1414 H1408 0.950 . S
C1414 C1415 1.327 . S
C1415 H1409 0.950 . S
C1415 C1414 1.327 . S
C1415 C1419 1.429 . S
C1416 C1399 1.574 . S
C1416 H1410 0.949 . S
C1416 C1420 1.368 . S
C1417 C1398 1.429 . S
C1417 C1411 1.429 . S
C1417 C1418 1.523 . S
C1418 C1399 1.368 . S
C1418 C1412 1.368 . S
C1418 C1417 1.523 . S
C1419 C1403 1.429 . S
C1419 C1415 1.429 . S
C1419 C1420 1.523 . S
C1420 C1404 1.368 . S
C1420 C1416 1.368 . S
C1420 C1419 1.523 . S
H1421 C1396 0.950 1_565 S
H1422 C1398 0.950 . S
H1423 C1399 0.949 . S
H1424 C1401 0.950 . S
H1425 C1403 0.950 . S
C1426 C1427 1.349 . S
C1426 C1428 1.327 . S
C1426 H1451 0.950 . S
C1427 C1426 1.349 . S
C1427 C1443 1.349 . S
C1428 C1426 1.327 . S
C1428 C1447 1.429 . S
C1428 H1452 0.950 . S
C1429 C1446 1.574 . S
C1429 C1448 1.368 . S
C1429 H1453 0.949 . S
H1430 C1434 0.949 . S
C1431 C1432 1.349 . S
C1431 C1433 1.327 . S
C1431 H1454 0.950 . S
C1432 C1431 1.349 . S
C1432 C1444 1.349 . S
C1433 C1431 1.327 . S
C1433 C1449 1.429 . S
C1433 H1455 0.950 . S
C1434 H1430 0.949 . S
C1434 C1442 1.574 . S
C1434 C1450 1.368 . S
H1435 C1443 0.950 . S
H1436 C1441 0.950 . S
H1437 C1442 0.949 . S
H1438 C1444 0.950 . S
H1439 C1445 0.950 . S
H1440 C1446 0.949 . S
C1441 H1436 0.950 . S
C1441 C1443 1.327 . S
C1441 C1447 1.429 . S
C1442 C1434 1.574 . S
C1442 H1437 0.949 . S
C1442 C1448 1.368 . S
C1443 C1427 1.349 . S
C1443 H1435 0.950 . S
C1443 C1441 1.327 . S
C1444 C1432 1.349 . S
C1444 H1438 0.950 . S
C1444 C1445 1.327 . S
C1445 H1439 0.950 . S
C1445 C1444 1.327 . S
C1445 C1449 1.429 . S
C1446 C1429 1.574 . S
C1446 H1440 0.949 . S
C1446 C1450 1.368 . S
C1447 C1428 1.429 . S
C1447 C1441 1.429 . S
C1447 C1448 1.523 . S
C1448 C1429 1.368 . S
C1448 C1442 1.368 . S
C1448 C1447 1.523 . S
C1449 C1433 1.429 . S
C1449 C1445 1.429 . S
C1449 C1450 1.523 . S
C1450 C1434 1.368 . S
C1450 C1446 1.368 . S
C1450 C1449 1.523 . S
H1451 C1426 0.950 . S
H1452 C1428 0.950 . S
H1453 C1429 0.949 . S
H1454 C1431 0.950 . S
H1455 C1433 0.950 . S
C1456 C1457 1.349 . S
C1456 C1458 1.327 . S
C1456 H1481 0.950 . S
C1457 C1456 1.349 . S
C1457 C1473 1.349 . S
C1458 C1456 1.327 . S
C1458 C1477 1.429 . S
C1458 H1482 0.950 . S
C1459 C1476 1.574 . S
C1459 C1478 1.368 . S
C1459 H1483 0.949 . S
H1460 C1464 0.949 1_545 S
C1461 C1462 1.349 . S
C1461 C1463 1.327 . S
C1461 H1484 0.950 . S
C1462 C1461 1.349 . S
C1462 C1474 1.349 . S
C1463 C1461 1.327 . S
C1463 C1479 1.429 . S
C1463 H1485 0.950 . S
C1464 H1460 0.949 1_565 S
C1464 C1472 1.574 . S
C1464 C1480 1.368 1_565 S
H1465 C1473 0.950 . S
H1466 C1471 0.950 . S
H1467 C1472 0.949 . S
H1468 C1474 0.950 . S
H1469 C1475 0.950 . S
H1470 C1476 0.949 1_545 S
C1471 H1466 0.950 . S
C1471 C1473 1.327 . S
C1471 C1477 1.429 . S
C1472 C1464 1.574 . S
C1472 H1467 0.949 . S
C1472 C1478 1.368 . S
C1473 C1457 1.349 . S
C1473 H1465 0.950 . S
C1473 C1471 1.327 . S
C1474 C1462 1.349 . S
C1474 H1468 0.950 . S
C1474 C1475 1.327 . S
C1475 H1469 0.950 . S
C1475 C1474 1.327 . S
C1475 C1479 1.429 . S
C1476 C1459 1.574 . S
C1476 H1470 0.949 1_565 S
C1476 C1480 1.368 1_565 S
C1477 C1458 1.429 . S
C1477 C1471 1.429 . S
C1477 C1478 1.523 . S
C1478 C1459 1.368 . S
C1478 C1472 1.368 . S
C1478 C1477 1.523 . S
C1479 C1463 1.429 . S
C1479 C1475 1.429 . S
C1479 C1480 1.523 . S
C1480 C1464 1.368 1_545 S
C1480 C1476 1.368 1_545 S
C1480 C1479 1.523 . S
H1481 C1456 0.950 . S
H1482 C1458 0.950 . S
H1483 C1459 0.949 . S
H1484 C1461 0.950 . S
H1485 C1463 0.950 . S
C1486 C1487 1.349 . S
C1486 C1488 1.327 . S
C1486 H1511 0.950 . S
C1487 C1486 1.349 . S
C1487 C1503 1.349 . S
C1488 C1486 1.327 . S
C1488 C1507 1.429 . S
C1488 H1512 0.950 . S
C1489 C1506 1.574 . S
C1489 C1508 1.368 . S
C1489 H1513 0.949 . S
H1490 C1494 0.949 . S
C1491 C1492 1.349 . S
C1491 C1493 1.327 . S
C1491 H1514 0.950 . S
C1492 C1491 1.349 . S
C1492 C1504 1.349 . S
C1493 C1491 1.327 . S
C1493 C1509 1.429 . S
C1493 H1515 0.950 . S
C1494 H1490 0.949 . S
C1494 C1502 1.574 . S
C1494 C1510 1.368 . S
H1495 C1503 0.950 . S
H1496 C1501 0.950 . S
H1497 C1502 0.949 . S
H1498 C1504 0.950 . S
H1499 C1505 0.950 . S
H1500 C1506 0.949 . S
C1501 H1496 0.950 . S
C1501 C1503 1.327 . S
C1501 C1507 1.429 . S
C1502 C1494 1.574 . S
C1502 H1497 0.949 . S
C1502 C1508 1.368 . S
C1503 C1487 1.349 . S
C1503 H1495 0.950 . S
C1503 C1501 1.327 . S
C1504 C1492 1.349 . S
C1504 H1498 0.950 . S
C1504 C1505 1.327 . S
C1505 H1499 0.950 . S
C1505 C1504 1.327 . S
C1505 C1509 1.429 . S
C1506 C1489 1.574 . S
C1506 H1500 0.949 . S
C1506 C1510 1.368 . S
C1507 C1488 1.429 . S
C1507 C1501 1.429 . S
C1507 C1508 1.523 . S
C1508 C1489 1.368 . S
C1508 C1502 1.368 . S
C1508 C1507 1.523 . S
C1509 C1493 1.429 . S
C1509 C1505 1.429 . S
C1509 C1510 1.523 . S
C1510 C1494 1.368 . S
C1510 C1506 1.368 . S
C1510 C1509 1.523 . S
H1511 C1486 0.950 . S
H1512 C1488 0.950 . S
H1513 C1489 0.949 . S
H1514 C1491 0.950 . S
H1515 C1493 0.950 . S
C1516 C1517 1.349 . S
C1516 C1518 1.327 . S
C1516 H1541 0.950 . S
C1517 C1516 1.349 . S
C1517 C1533 1.349 . S
C1518 C1516 1.327 . S
C1518 C1537 1.429 . S
C1518 H1542 0.950 . S
C1519 C1536 1.574 . S
C1519 C1538 1.368 . S
C1519 H1543 0.949 . S
H1520 C1524 0.949 . S
C1521 C1522 1.349 . S
C1521 C1523 1.327 . S
C1521 H1544 0.950 . S
C1522 C1521 1.349 . S
C1522 C1534 1.349 . S
C1523 C1521 1.327 . S
C1523 C1539 1.429 . S
C1523 H1545 0.950 . S
C1524 H1520 0.949 . S
C1524 C1532 1.574 . S
C1524 C1540 1.368 . S
H1525 C1533 0.950 . S
H1526 C1531 0.950 . S
H1527 C1532 0.949 . S
H1528 C1534 0.950 . S
H1529 C1535 0.950 . S
H1530 C1536 0.949 . S
C1531 H1526 0.950 . S
C1531 C1533 1.327 . S
C1531 C1537 1.429 . S
C1532 C1524 1.574 . S
C1532 H1527 0.949 . S
C1532 C1538 1.368 . S
C1533 C1517 1.349 . S
C1533 H1525 0.950 . S
C1533 C1531 1.327 . S
C1534 C1522 1.349 . S
C1534 H1528 0.950 . S
C1534 C1535 1.327 . S
C1535 H1529 0.950 . S
C1535 C1534 1.327 . S
C1535 C1539 1.429 . S
C1536 C1519 1.574 . S
C1536 H1530 0.949 . S
C1536 C1540 1.368 . S
C1537 C1518 1.429 . S
C1537 C1531 1.429 . S
C1537 C1538 1.523 . S
C1538 C1519 1.368 . S
C1538 C1532 1.368 . S
C1538 C1537 1.523 . S
C1539 C1523 1.429 . S
C1539 C1535 1.429 . S
C1539 C1540 1.523 . S
C1540 C1524 1.368 . S
C1540 C1536 1.368 . S
C1540 C1539 1.523 . S
H1541 C1516 0.950 . S
H1542 C1518 0.950 . S
H1543 C1519 0.949 . S
H1544 C1521 0.950 . S
H1545 C1523 0.950 . S
C1546 C1547 1.349 . S
C1546 C1548 1.327 . S
C1546 H1571 0.950 . S
C1547 C1546 1.349 . S
C1547 C1563 1.349 . S
C1548 C1546 1.327 . S
C1548 C1567 1.429 . S
C1548 H1572 0.950 . S
C1549 C1566 1.574 . S
C1549 C1568 1.368 . S
C1549 H1573 0.949 . S
H1550 C1554 0.949 . S
C1551 C1552 1.349 . S
C1551 C1553 1.327 . S
C1551 H1574 0.950 . S
C1552 C1551 1.349 . S
C1552 C1564 1.349 . S
C1553 C1551 1.327 . S
C1553 C1569 1.429 . S
C1553 H1575 0.950 . S
C1554 H1550 0.949 . S
C1554 C1562 1.574 . S
C1554 C1570 1.368 . S
H1555 C1563 0.950 . S
H1556 C1561 0.950 . S
H1557 C1562 0.949 . S
H1558 C1564 0.950 . S
H1559 C1565 0.950 . S
H1560 C1566 0.949 . S
C1561 H1556 0.950 . S
C1561 C1563 1.327 . S
C1561 C1567 1.429 . S
C1562 C1554 1.574 . S
C1562 H1557 0.949 . S
C1562 C1568 1.368 . S
C1563 C1547 1.349 . S
C1563 H1555 0.950 . S
C1563 C1561 1.327 . S
C1564 C1552 1.349 . S
C1564 H1558 0.950 . S
C1564 C1565 1.327 . S
C1565 H1559 0.950 . S
C1565 C1564 1.327 . S
C1565 C1569 1.429 . S
C1566 C1549 1.574 . S
C1566 H1560 0.949 . S
C1566 C1570 1.368 . S
C1567 C1548 1.429 . S
C1567 C1561 1.429 . S
C1567 C1568 1.523 . S
C1568 C1549 1.368 . S
C1568 C1562 1.368 . S
C1568 C1567 1.523 . S
C1569 C1553 1.429 . S
C1569 C1565 1.429 . S
C1569 C1570 1.523 . S
C1570 C1554 1.368 . S
C1570 C1566 1.368 . S
C1570 C1569 1.523 . S
H1571 C1546 0.950 . S
H1572 C1548 0.950 . S
H1573 C1549 0.949 . S
H1574 C1551 0.950 . S
H1575 C1553 0.950 . S
C1576 C1577 1.349 . S
C1576 C1578 1.327 . S
C1576 H1601 0.950 . S
C1577 C1576 1.349 . S
C1577 C1593 1.349 . S
C1578 C1576 1.327 . S
C1578 C1597 1.429 . S
C1578 H1602 0.950 . S
C1579 C1596 1.574 . S
C1579 C1598 1.368 . S
C1579 H1603 0.949 . S
H1580 C1584 0.949 . S
C1581 C1582 1.349 . S
C1581 C1583 1.327 . S
C1581 H1604 0.950 . S
C1582 C1581 1.349 . S
C1582 C1594 1.349 . S
C1583 C1581 1.327 . S
C1583 C1599 1.429 . S
C1583 H1605 0.950 . S
C1584 H1580 0.949 . S
C1584 C1592 1.574 . S
C1584 C1600 1.368 . S
H1585 C1593 0.950 . S
H1586 C1591 0.950 . S
H1587 C1592 0.949 . S
H1588 C1594 0.950 . S
H1589 C1595 0.950 . S
H1590 C1596 0.949 . S
C1591 H1586 0.950 . S
C1591 C1593 1.327 . S
C1591 C1597 1.429 . S
C1592 C1584 1.574 . S
C1592 H1587 0.949 . S
C1592 C1598 1.368 . S
C1593 C1577 1.349 . S
C1593 H1585 0.950 . S
C1593 C1591 1.327 . S
C1594 C1582 1.349 . S
C1594 H1588 0.950 . S
C1594 C1595 1.327 . S
C1595 H1589 0.950 . S
C1595 C1594 1.327 . S
C1595 C1599 1.429 . S
C1596 C1579 1.574 . S
C1596 H1590 0.949 . S
C1596 C1600 1.368 . S
C1597 C1578 1.429 . S
C1597 C1591 1.429 . S
C1597 C1598 1.523 . S
C1598 C1579 1.368 . S
C1598 C1592 1.368 . S
C1598 C1597 1.523 . S
C1599 C1583 1.429 . S
C1599 C1595 1.429 . S
C1599 C1600 1.523 . S
C1600 C1584 1.368 . S
C1600 C1596 1.368 . S
C1600 C1599 1.523 . S
H1601 C1576 0.950 . S
H1602 C1578 0.950 . S
H1603 C1579 0.949 . S
H1604 C1581 0.950 . S
H1605 C1583 0.950 . S
C1606 C1607 1.349 . S
C1606 C1608 1.327 . S
C1606 H1631 0.950 . S
C1607 C1606 1.349 . S
C1607 C1623 1.349 . S
C1608 C1606 1.327 . S
C1608 C1627 1.429 . S
C1608 H1632 0.950 . S
C1609 C1626 1.574 . S
C1609 C1628 1.368 . S
C1609 H1633 0.949 . S
H1610 C1614 0.949 . S
C1611 C1612 1.349 . S
C1611 C1613 1.327 . S
C1611 H1634 0.950 . S
C1612 C1611 1.349 . S
C1612 C1624 1.349 . S
C1613 C1611 1.327 . S
C1613 C1629 1.429 . S
C1613 H1635 0.950 . S
C1614 H1610 0.949 . S
C1614 C1622 1.574 . S
C1614 C1630 1.368 . S
H1615 C1623 0.950 . S
H1616 C1621 0.950 . S
H1617 C1622 0.949 . S
H1618 C1624 0.950 . S
H1619 C1625 0.950 . S
H1620 C1626 0.949 . S
C1621 H1616 0.950 . S
C1621 C1623 1.327 . S
C1621 C1627 1.429 . S
C1622 C1614 1.574 . S
C1622 H1617 0.949 . S
C1622 C1628 1.368 . S
C1623 C1607 1.349 . S
C1623 H1615 0.950 . S
C1623 C1621 1.327 . S
C1624 C1612 1.349 . S
C1624 H1618 0.950 . S
C1624 C1625 1.327 . S
C1625 H1619 0.950 . S
C1625 C1624 1.327 . S
C1625 C1629 1.429 . S
C1626 C1609 1.574 . S
C1626 H1620 0.949 . S
C1626 C1630 1.368 . S
C1627 C1608 1.429 . S
C1627 C1621 1.429 . S
C1627 C1628 1.523 . S
C1628 C1609 1.368 . S
C1628 C1622 1.368 . S
C1628 C1627 1.523 . S
C1629 C1613 1.429 . S
C1629 C1625 1.429 . S
C1629 C1630 1.523 . S
C1630 C1614 1.368 . S
C1630 C1626 1.368 . S
C1630 C1629 1.523 . S
H1631 C1606 0.950 . S
H1632 C1608 0.950 . S
H1633 C1609 0.949 . S
H1634 C1611 0.950 . S
H1635 C1613 0.950 . S
C1636 C1637 1.349 . S
C1636 C1638 1.327 . S
C1636 H1661 0.950 . S
C1637 C1636 1.349 . S
C1637 C1653 1.349 . S
C1638 C1636 1.327 . S
C1638 C1657 1.429 . S
C1638 H1662 0.950 . S
C1639 C1656 1.574 . S
C1639 C1658 1.368 . S
C1639 H1663 0.949 . S
H1640 C1644 0.949 . S
C1641 C1642 1.349 . S
C1641 C1643 1.327 . S
C1641 H1664 0.950 . S
C1642 C1641 1.349 . S
C1642 C1654 1.349 . S
C1643 C1641 1.327 . S
C1643 C1659 1.429 . S
C1643 H1665 0.950 . S
C1644 H1640 0.949 . S
C1644 C1652 1.574 . S
C1644 C1660 1.368 . S
H1645 C1653 0.950 . S
H1646 C1651 0.950 . S
H1647 C1652 0.949 . S
H1648 C1654 0.950 . S
H1649 C1655 0.950 . S
H1650 C1656 0.949 . S
C1651 H1646 0.950 . S
C1651 C1653 1.327 . S
C1651 C1657 1.429 . S
C1652 C1644 1.574 . S
C1652 H1647 0.949 . S
C1652 C1658 1.368 . S
C1653 C1637 1.349 . S
C1653 H1645 0.950 . S
C1653 C1651 1.327 . S
C1654 C1642 1.349 . S
C1654 H1648 0.950 . S
C1654 C1655 1.327 . S
C1655 H1649 0.950 . S
C1655 C1654 1.327 . S
C1655 C1659 1.429 . S
C1656 C1639 1.574 . S
C1656 H1650 0.949 . S
C1656 C1660 1.368 . S
C1657 C1638 1.429 . S
C1657 C1651 1.429 . S
C1657 C1658 1.523 . S
C1658 C1639 1.368 . S
C1658 C1652 1.368 . S
C1658 C1657 1.523 . S
C1659 C1643 1.429 . S
C1659 C1655 1.429 . S
C1659 C1660 1.523 . S
C1660 C1644 1.368 . S
C1660 C1656 1.368 . S
C1660 C1659 1.523 . S
H1661 C1636 0.950 . S
H1662 C1638 0.950 . S
H1663 C1639 0.949 . S
H1664 C1641 0.950 . S
H1665 C1643 0.950 . S
C1666 C1667 1.349 . S
C1666 C1668 1.327 . S
C1666 H1691 0.950 . S
C1667 C1666 1.349 . S
C1667 C1683 1.349 . S
C1668 C1666 1.327 . S
C1668 C1687 1.429 . S
C1668 H1692 0.950 . S
C1669 C1686 1.574 . S
C1669 C1688 1.368 . S
C1669 H1693 0.949 . S
H1670 C1674 0.949 . S
C1671 C1672 1.349 . S
C1671 C1673 1.327 . S
C1671 H1694 0.950 . S
C1672 C1671 1.349 . S
C1672 C1684 1.349 . S
C1673 C1671 1.327 . S
C1673 C1689 1.429 . S
C1673 H1695 0.950 . S
C1674 H1670 0.949 . S
C1674 C1682 1.574 . S
C1674 C1690 1.368 . S
H1675 C1683 0.950 . S
H1676 C1681 0.950 . S
H1677 C1682 0.949 . S
H1678 C1684 0.950 . S
H1679 C1685 0.950 . S
H1680 C1686 0.949 . S
C1681 H1676 0.950 . S
C1681 C1683 1.327 . S
C1681 C1687 1.429 . S
C1682 C1674 1.574 . S
C1682 H1677 0.949 . S
C1682 C1688 1.368 . S
C1683 C1667 1.349 . S
C1683 H1675 0.950 . S
C1683 C1681 1.327 . S
C1684 C1672 1.349 . S
C1684 H1678 0.950 . S
C1684 C1685 1.327 . S
C1685 H1679 0.950 . S
C1685 C1684 1.327 . S
C1685 C1689 1.429 . S
C1686 C1669 1.574 . S
C1686 H1680 0.949 . S
C1686 C1690 1.368 . S
C1687 C1668 1.429 . S
C1687 C1681 1.429 . S
C1687 C1688 1.523 . S
C1688 C1669 1.368 . S
C1688 C1682 1.368 . S
C1688 C1687 1.523 . S
C1689 C1673 1.429 . S
C1689 C1685 1.429 . S
C1689 C1690 1.523 . S
C1690 C1674 1.368 . S
C1690 C1686 1.368 . S
C1690 C1689 1.523 . S
H1691 C1666 0.950 . S
H1692 C1668 0.950 . S
H1693 C1669 0.949 . S
H1694 C1671 0.950 . S
H1695 C1673 0.950 . S
C1696 C1697 1.349 . S
C1696 C1698 1.327 . S
C1696 H1721 0.950 . S
C1697 C1696 1.349 . S
C1697 C1713 1.349 . S
C1698 C1696 1.327 . S
C1698 C1717 1.429 . S
C1698 H1722 0.950 . S
C1699 C1716 1.574 . S
C1699 C1718 1.368 . S
C1699 H1723 0.949 . S
H1700 C1704 0.949 . S
C1701 C1702 1.349 1_565 S
C1701 C1703 1.327 . S
C1701 H1724 0.950 . S
C1702 C1701 1.349 1_545 S
C1702 C1714 1.349 . S
C1703 C1701 1.327 . S
C1703 C1719 1.429 . S
C1703 H1725 0.950 . S
C1704 H1700 0.949 . S
C1704 C1712 1.574 . S
C1704 C1720 1.368 . S
H1705 C1713 0.950 . S
H1706 C1711 0.950 . S
H1707 C1712 0.949 . S
H1708 C1714 0.950 . S
H1709 C1715 0.953 1_545 S
H1710 C1716 0.949 . S
C1711 H1706 0.950 . S
C1711 C1713 1.327 . S
C1711 C1717 1.429 . S
C1712 C1704 1.574 . S
C1712 H1707 0.949 . S
C1712 C1718 1.368 . S
C1713 C1697 1.349 . S
C1713 H1705 0.950 . S
C1713 C1711 1.327 . S
C1714 C1702 1.349 . S
C1714 H1708 0.950 . S
C1714 C1715 1.291 1_545 S
C1715 H1709 0.953 1_565 S
C1715 C1714 1.291 1_565 S
C1715 C1719 1.463 . S
C1716 C1699 1.574 . S
C1716 H1710 0.949 . S
C1716 C1720 1.368 . S
C1717 C1698 1.429 . S
C1717 C1711 1.429 . S
C1717 C1718 1.523 . S
C1718 C1699 1.368 . S
C1718 C1712 1.368 . S
C1718 C1717 1.523 . S
C1719 C1703 1.429 . S
C1719 C1715 1.463 . S
C1719 C1720 1.523 . S
C1720 C1704 1.368 . S
C1720 C1716 1.368 . S
C1720 C1719 1.523 . S
H1721 C1696 0.950 . S
H1722 C1698 0.950 . S
H1723 C1699 0.949 . S
H1724 C1701 0.950 . S
H1725 C1703 0.950 . S
C1726 C1727 1.349 . S
C1726 C1728 1.327 . S
C1726 H1751 0.950 . S
C1727 C1726 1.349 . S
C1727 C1743 1.349 . S
C1728 C1726 1.327 . S
C1728 C1747 1.429 . S
C1728 H1752 0.950 . S
C1729 C1746 1.574 . S
C1729 C1748 1.368 . S
C1729 H1753 0.949 . S
H1730 C1734 0.949 . S
C1731 C1732 1.349 . S
C1731 C1733 1.327 . S
C1731 H1754 0.950 . S
C1732 C1731 1.349 . S
C1732 C1744 1.349 . S
C1733 C1731 1.327 . S
C1733 C1749 1.429 . S
C1733 H1755 0.950 . S
C1734 H1730 0.949 . S
C1734 C1742 1.574 . S
C1734 C1750 1.368 . S
H1735 C1743 0.950 . S
H1736 C1741 0.950 . S
H1737 C1742 0.949 . S
H1738 C1744 0.950 . S
H1739 C1745 0.950 . S
H1740 C1746 0.949 . S
C1741 H1736 0.950 . S
C1741 C1743 1.327 . S
C1741 C1747 1.429 . S
C1742 C1734 1.574 . S
C1742 H1737 0.949 . S
C1742 C1748 1.368 . S
C1743 C1727 1.349 . S
C1743 H1735 0.950 . S
C1743 C1741 1.327 . S
C1744 C1732 1.349 . S
C1744 H1738 0.950 . S
C1744 C1745 1.327 . S
C1745 H1739 0.950 . S
C1745 C1744 1.327 . S
C1745 C1749 1.429 . S
C1746 C1729 1.574 . S
C1746 H1740 0.949 . S
C1746 C1750 1.368 . S
C1747 C1728 1.429 . S
C1747 C1741 1.429 . S
C1747 C1748 1.523 . S
C1748 C1729 1.368 . S
C1748 C1742 1.368 . S
C1748 C1747 1.523 . S
C1749 C1733 1.429 . S
C1749 C1745 1.429 . S
C1749 C1750 1.523 . S
C1750 C1734 1.368 . S
C1750 C1746 1.368 . S
C1750 C1749 1.523 . S
H1751 C1726 0.950 . S
H1752 C1728 0.950 . S
H1753 C1729 0.949 . S
H1754 C1731 0.950 . S
H1755 C1733 0.950 . S
C1756 C1757 1.349 . S
C1756 C1758 1.327 . S
C1756 H1781 0.950 . S
C1757 C1756 1.349 . S
C1757 C1773 1.349 . S
C1758 C1756 1.327 . S
C1758 C1777 1.429 . S
C1758 H1782 0.950 . S
C1759 C1776 1.574 . S
C1759 C1778 1.368 . S
C1759 H1783 0.949 . S
H1760 C1764 0.949 . S
C1761 C1762 1.349 . S
C1761 C1763 1.327 . S
C1761 H1784 0.950 . S
C1762 C1761 1.349 . S
C1762 C1774 1.349 . S
C1763 C1761 1.327 . S
C1763 C1779 1.429 . S
C1763 H1785 0.950 . S
C1764 H1760 0.949 . S
C1764 C1772 1.574 . S
C1764 C1780 1.368 . S
H1765 C1773 0.950 . S
H1766 C1771 0.950 . S
H1767 C1772 0.949 . S
H1768 C1774 0.950 . S
H1769 C1775 0.950 . S
H1770 C1776 0.949 . S
C1771 H1766 0.950 . S
C1771 C1773 1.327 . S
C1771 C1777 1.429 . S
C1772 C1764 1.574 . S
C1772 H1767 0.949 . S
C1772 C1778 1.368 . S
C1773 C1757 1.349 . S
C1773 H1765 0.950 . S
C1773 C1771 1.327 . S
C1774 C1762 1.349 . S
C1774 H1768 0.950 . S
C1774 C1775 1.327 . S
C1775 H1769 0.950 . S
C1775 C1774 1.327 . S
C1775 C1779 1.429 . S
C1776 C1759 1.574 . S
C1776 H1770 0.949 . S
C1776 C1780 1.368 . S
C1777 C1758 1.429 . S
C1777 C1771 1.429 . S
C1777 C1778 1.523 . S
C1778 C1759 1.368 . S
C1778 C1772 1.368 . S
C1778 C1777 1.523 . S
C1779 C1763 1.429 . S
C1779 C1775 1.429 . S
C1779 C1780 1.523 . S
C1780 C1764 1.368 . S
C1780 C1776 1.368 . S
C1780 C1779 1.523 . S
H1781 C1756 0.950 . S
H1782 C1758 0.950 . S
H1783 C1759 0.949 . S
H1784 C1761 0.950 . S
H1785 C1763 0.950 . S
C1786 C1787 1.349 . S
C1786 C1788 1.327 . S
C1786 H1811 0.950 . S
C1787 C1786 1.349 . S
C1787 C1803 1.349 . S
C1788 C1786 1.327 . S
C1788 C1807 1.429 . S
C1788 H1812 0.950 . S
C1789 C1806 1.574 . S
C1789 C1808 1.368 . S
C1789 H1813 0.949 . S
H1790 C1794 0.949 . S
C1791 C1792 1.349 . S
C1791 C1793 1.327 . S
C1791 H1814 0.950 . S
C1792 C1791 1.349 . S
C1792 C1804 1.349 . S
C1793 C1791 1.327 . S
C1793 C1809 1.429 . S
C1793 H1815 0.950 . S
C1794 H1790 0.949 . S
C1794 C1802 1.574 . S
C1794 C1810 1.368 . S
H1795 C1803 0.950 . S
H1796 C1801 0.950 . S
H1797 C1802 0.949 . S
H1798 C1804 0.950 . S
H1799 C1805 0.950 . S
H1800 C1806 0.949 . S
C1801 H1796 0.950 . S
C1801 C1803 1.327 . S
C1801 C1807 1.429 . S
C1802 C1794 1.574 . S
C1802 H1797 0.949 . S
C1802 C1808 1.368 . S
C1803 C1787 1.349 . S
C1803 H1795 0.950 . S
C1803 C1801 1.327 . S
C1804 C1792 1.349 . S
C1804 H1798 0.950 . S
C1804 C1805 1.327 . S
C1805 H1799 0.950 . S
C1805 C1804 1.327 . S
C1805 C1809 1.429 . S
C1806 C1789 1.574 . S
C1806 H1800 0.949 . S
C1806 C1810 1.368 . S
C1807 C1788 1.429 . S
C1807 C1801 1.429 . S
C1807 C1808 1.523 . S
C1808 C1789 1.368 . S
C1808 C1802 1.368 . S
C1808 C1807 1.523 . S
C1809 C1793 1.429 . S
C1809 C1805 1.429 . S
C1809 C1810 1.523 . S
C1810 C1794 1.368 . S
C1810 C1806 1.368 . S
C1810 C1809 1.523 . S
H1811 C1786 0.950 . S
H1812 C1788 0.950 . S
H1813 C1789 0.949 . S
H1814 C1791 0.950 . S
H1815 C1793 0.950 . S
C1816 C1817 1.349 . S
C1816 C1818 1.327 . S
C1816 H1841 0.950 . S
C1817 C1816 1.349 . S
C1817 C1833 1.349 . S
C1818 C1816 1.327 . S
C1818 C1837 1.429 . S
C1818 H1842 0.950 . S
C1819 C1836 1.574 . S
C1819 C1838 1.368 . S
C1819 H1843 0.949 . S
H1820 C1824 0.949 . S
C1821 C1822 1.349 . S
C1821 C1823 1.327 . S
C1821 H1844 0.950 . S
C1822 C1821 1.349 . S
C1822 C1834 1.349 . S
C1823 C1821 1.327 . S
C1823 C1839 1.429 . S
C1823 H1845 0.950 . S
C1824 H1820 0.949 . S
C1824 C1832 1.574 . S
C1824 C1840 1.368 . S
H1825 C1833 0.950 1_655 S
H1826 C1831 0.950 . S
H1827 C1832 0.949 . S
H1828 C1834 0.950 . S
H1829 C1835 0.950 . S
H1830 C1836 0.949 . S
C1831 H1826 0.950 . S
C1831 C1833 1.327 . S
C1831 C1837 1.429 . S
C1832 C1824 1.574 . S
C1832 H1827 0.949 . S
C1832 C1838 1.368 . S
C1833 C1817 1.349 . S
C1833 H1825 0.950 1_455 S
C1833 C1831 1.327 . S
C1834 C1822 1.349 . S
C1834 H1828 0.950 . S
C1834 C1835 1.327 . S
C1835 H1829 0.950 . S
C1835 C1834 1.327 . S
C1835 C1839 1.429 . S
C1836 C1819 1.574 . S
C1836 H1830 0.949 . S
C1836 C1840 1.368 . S
C1837 C1818 1.429 . S
C1837 C1831 1.429 . S
C1837 C1838 1.523 . S
C1838 C1819 1.368 . S
C1838 C1832 1.368 . S
C1838 C1837 1.523 . S
C1839 C1823 1.429 . S
C1839 C1835 1.429 . S
C1839 C1840 1.523 . S
C1840 C1824 1.368 . S
C1840 C1836 1.368 . S
C1840 C1839 1.523 . S
H1841 C1816 0.950 . S
H1842 C1818 0.950 . S
H1843 C1819 0.949 . S
H1844 C1821 0.950 . S
H1845 C1823 0.950 . S
C1846 C1847 1.349 . S
C1846 C1848 1.327 . S
C1846 H1871 0.950 . S
C1847 C1846 1.349 . S
C1847 C1863 1.349 . S
C1848 C1846 1.327 . S
C1848 C1867 1.429 . S
C1848 H1872 0.950 . S
C1849 C1866 1.574 . S
C1849 C1868 1.368 . S
C1849 H1873 0.949 . S
H1850 C1854 0.949 . S
C1851 C1852 1.349 . S
C1851 C1853 1.327 . S
C1851 H1874 0.950 . S
C1852 C1851 1.349 . S
C1852 C1864 1.349 . S
C1853 C1851 1.327 . S
C1853 C1869 1.429 . S
C1853 H1875 0.950 . S
C1854 H1850 0.949 . S
C1854 C1862 1.574 . S
C1854 C1870 1.368 . S
H1855 C1863 0.950 . S
H1856 C1861 0.950 . S
H1857 C1862 0.949 . S
H1858 C1864 0.950 . S
H1859 C1865 0.950 . S
H1860 C1866 0.949 . S
C1861 H1856 0.950 . S
C1861 C1863 1.327 . S
C1861 C1867 1.429 . S
C1862 C1854 1.574 . S
C1862 H1857 0.949 . S
C1862 C1868 1.368 . S
C1863 C1847 1.349 . S
C1863 H1855 0.950 . S
C1863 C1861 1.327 . S
C1864 C1852 1.349 . S
C1864 H1858 0.950 . S
C1864 C1865 1.327 . S
C1865 H1859 0.950 . S
C1865 C1864 1.327 . S
C1865 C1869 1.429 . S
C1866 C1849 1.574 . S
C1866 H1860 0.949 . S
C1866 C1870 1.368 . S
C1867 C1848 1.429 . S
C1867 C1861 1.429 . S
C1867 C1868 1.523 . S
C1868 C1849 1.368 . S
C1868 C1862 1.368 . S
C1868 C1867 1.523 . S
C1869 C1853 1.429 . S
C1869 C1865 1.429 . S
C1869 C1870 1.523 . S
C1870 C1854 1.368 . S
C1870 C1866 1.368 . S
C1870 C1869 1.523 . S
H1871 C1846 0.950 . S
H1872 C1848 0.950 . S
H1873 C1849 0.949 . S
H1874 C1851 0.950 . S
H1875 C1853 0.950 . S
C1876 C1877 1.349 . S
C1876 C1878 1.327 . S
C1876 H1901 0.950 . S
C1877 C1876 1.349 . S
C1877 C1893 1.349 . S
C1878 C1876 1.327 . S
C1878 C1897 1.429 . S
C1878 H1902 0.950 . S
C1879 C1896 1.574 . S
C1879 C1898 1.368 . S
C1879 H1903 0.949 . S
H1880 C1884 0.949 . S
C1881 C1882 1.349 . S
C1881 C1883 1.327 . S
C1881 H1904 0.950 . S
C1882 C1881 1.349 . S
C1882 C1894 1.381 . S
C1883 C1881 1.327 . S
C1883 C1899 1.429 1_554 S
C1883 H1905 0.950 . S
C1884 H1880 0.949 . S
C1884 C1892 1.574 . S
C1884 C1900 1.368 . S
H1885 C1893 0.950 . S
H1886 C1891 0.950 . S
H1887 C1892 0.949 . S
H1888 C1894 0.940 1_556 S
H1889 C1895 0.950 . S
H1890 C1896 0.949 1_554 S
C1891 H1886 0.950 . S
C1891 C1893 1.327 . S
C1891 C1897 1.429 . S
C1892 C1884 1.574 . S
C1892 H1887 0.949 . S
C1892 C1898 1.368 . S
C1893 C1877 1.349 . S
C1893 H1885 0.950 . S
C1893 C1891 1.327 . S
C1894 C1882 1.381 . S
C1894 H1888 0.940 1_554 S
C1894 C1895 1.306 1_554 S
C1895 H1889 0.950 . S
C1895 C1894 1.306 1_556 S
C1895 C1899 1.429 . S
C1896 C1879 1.574 . S
C1896 H1890 0.949 1_556 S
C1896 C1900 1.368 . S
C1897 C1878 1.429 . S
C1897 C1891 1.429 . S
C1897 C1898 1.523 . S
C1898 C1879 1.368 . S
C1898 C1892 1.368 . S
C1898 C1897 1.523 . S
C1899 C1883 1.429 1_556 S
C1899 C1895 1.429 . S
C1899 C1900 1.523 . S
C1900 C1884 1.368 . S
C1900 C1896 1.368 . S
C1900 C1899 1.523 . S
H1901 C1876 0.950 . S
H1902 C1878 0.950 . S
H1903 C1879 0.949 . S
H1904 C1881 0.950 . S
H1905 C1883 0.950 . S
C1906 C1907 1.349 . S
C1906 C1908 1.327 1_455 S
C1906 H1931 0.950 . S
C1907 C1906 1.349 . S
C1907 C1923 1.349 . S
C1908 C1906 1.327 1_655 S
C1908 C1927 1.429 . S
C1908 H1932 0.950 . S
C1909 C1926 1.574 . S
C1909 C1928 1.368 . S
C1909 H1933 0.949 . S
H1910 C1914 0.949 . S
C1911 C1912 1.349 . S
C1911 C1913 1.327 . S
C1911 H1934 0.950 . S
C1912 C1911 1.349 . S
C1912 C1924 1.349 . S
C1913 C1911 1.327 . S
C1913 C1929 1.429 . S
C1913 H1935 0.950 . S
C1914 H1910 0.949 . S
C1914 C1922 1.574 . S
C1914 C1930 1.368 . S
H1915 C1923 0.950 . S
H1916 C1921 0.950 . S
H1917 C1922 0.949 . S
H1918 C1924 0.950 . S
H1919 C1925 0.950 . S
H1920 C1926 0.949 . S
C1921 H1916 0.950 . S
C1921 C1923 1.327 1_655 S
C1921 C1927 1.429 . S
C1922 C1914 1.574 . S
C1922 H1917 0.949 . S
C1922 C1928 1.368 . S
C1923 C1907 1.349 . S
C1923 H1915 0.950 . S
C1923 C1921 1.327 1_455 S
C1924 C1912 1.349 . S
C1924 H1918 0.950 . S
C1924 C1925 1.327 . S
C1925 H1919 0.950 . S
C1925 C1924 1.327 . S
C1925 C1929 1.429 . S
C1926 C1909 1.574 . S
C1926 H1920 0.949 . S
C1926 C1930 1.368 . S
C1927 C1908 1.429 . S
C1927 C1921 1.429 . S
C1927 C1928 1.523 . S
C1928 C1909 1.368 . S
C1928 C1922 1.368 . S
C1928 C1927 1.523 . S
C1929 C1913 1.429 . S
C1929 C1925 1.429 . S
C1929 C1930 1.523 . S
C1930 C1914 1.368 . S
C1930 C1926 1.368 . S
C1930 C1929 1.523 . S
H1931 C1906 0.950 . S
H1932 C1908 0.950 . S
H1933 C1909 0.949 . S
H1934 C1911 0.950 . S
H1935 C1913 0.950 . S
C1936 C1937 1.349 . S
C1936 C1938 1.327 . S
C1936 H1961 0.950 . S
C1937 C1936 1.349 . S
C1937 C1953 1.349 . S
C1938 C1936 1.327 . S
C1938 C1957 1.429 . S
C1938 H1962 0.950 . S
C1939 C1956 1.574 . S
C1939 C1958 1.368 . S
C1939 H1963 0.949 . S
H1940 C1944 0.949 . S
C1941 C1942 1.349 . S
C1941 C1943 1.327 . S
C1941 H1964 0.950 . S
C1942 C1941 1.349 . S
C1942 C1954 1.349 . S
C1943 C1941 1.327 . S
C1943 C1959 1.429 . S
C1943 H1965 0.950 . S
C1944 H1940 0.949 . S
C1944 C1952 1.574 . S
C1944 C1960 1.368 . S
H1945 C1953 0.950 . S
H1946 C1951 0.950 . S
H1947 C1952 0.949 . S
H1948 C1954 0.950 1_554 S
H1949 C1955 0.950 . S
H1950 C1956 0.949 . S
C1951 H1946 0.950 . S
C1951 C1953 1.327 . S
C1951 C1957 1.429 . S
C1952 C1944 1.574 . S
C1952 H1947 0.949 . S
C1952 C1958 1.368 . S
C1953 C1937 1.349 . S
C1953 H1945 0.950 . S
C1953 C1951 1.327 . S
C1954 C1942 1.349 . S
C1954 H1948 0.950 1_556 S
C1954 C1955 1.327 . S
C1955 H1949 0.950 . S
C1955 C1954 1.327 . S
C1955 C1959 1.429 . S
C1956 C1939 1.574 . S
C1956 H1950 0.949 . S
C1956 C1960 1.368 . S
C1957 C1938 1.429 . S
C1957 C1951 1.429 . S
C1957 C1958 1.523 . S
C1958 C1939 1.368 . S
C1958 C1952 1.368 . S
C1958 C1957 1.523 . S
C1959 C1943 1.429 . S
C1959 C1955 1.429 . S
C1959 C1960 1.523 . S
C1960 C1944 1.368 . S
C1960 C1956 1.368 . S
C1960 C1959 1.523 . S
H1961 C1936 0.950 . S
H1962 C1938 0.950 . S
H1963 C1939 0.949 . S
H1964 C1941 0.950 . S
H1965 C1943 0.950 . S
C1966 C1967 1.349 . S
C1966 C1968 1.327 . S
C1966 H1991 0.950 . S
C1967 C1966 1.349 . S
C1967 C1983 1.349 . S
C1968 C1966 1.327 . S
C1968 C1987 1.429 . S
C1968 H1992 0.950 . S
C1969 C1986 1.574 . S
C1969 C1988 1.368 . S
C1969 H1993 0.949 . S
H1970 C1974 0.949 . S
C1971 C1972 1.349 . S
C1971 C1973 1.327 . S
C1971 H1994 0.950 . S
C1972 C1971 1.349 . S
C1972 C1984 1.349 . S
C1973 C1971 1.327 . S
C1973 C1989 1.429 . S
C1973 H1995 0.950 . S
C1974 H1970 0.949 . S
C1974 C1982 1.574 . S
C1974 C1990 1.368 . S
H1975 C1983 0.950 . S
H1976 C1981 0.950 . S
H1977 C1982 0.949 . S
H1978 C1984 0.950 . S
H1979 C1985 0.950 . S
H1980 C1986 0.949 . S
C1981 H1976 0.950 . S
C1981 C1983 1.327 . S
C1981 C1987 1.429 . S
C1982 C1974 1.574 . S
C1982 H1977 0.949 . S
C1982 C1988 1.368 . S
C1983 C1967 1.349 . S
C1983 H1975 0.950 . S
C1983 C1981 1.327 . S
C1984 C1972 1.349 . S
C1984 H1978 0.950 . S
C1984 C1985 1.327 . S
C1985 H1979 0.950 . S
C1985 C1984 1.327 . S
C1985 C1989 1.429 . S
C1986 C1969 1.574 . S
C1986 H1980 0.949 . S
C1986 C1990 1.368 . S
C1987 C1968 1.429 . S
C1987 C1981 1.429 . S
C1987 C1988 1.523 . S
C1988 C1969 1.368 . S
C1988 C1982 1.368 . S
C1988 C1987 1.523 . S
C1989 C1973 1.429 . S
C1989 C1985 1.429 . S
C1989 C1990 1.523 . S
C1990 C1974 1.368 . S
C1990 C1986 1.368 . S
C1990 C1989 1.523 . S
H1991 C1966 0.950 . S
H1992 C1968 0.950 . S
H1993 C1969 0.949 . S
H1994 C1971 0.950 . S
H1995 C1973 0.950 . S
C1996 C1997 1.349 . S
C1996 C1998 1.327 . S
C1996 H2021 0.950 . S
C1997 C1996 1.349 . S
C1997 C2013 1.349 . S
C1998 C1996 1.327 . S
C1998 C2017 1.429 . S
C1998 H2022 0.950 . S
C1999 C2016 1.574 . S
C1999 C2018 1.368 . S
C1999 H2023 0.949 . S
H2000 C2004 0.949 . S
C2001 C2002 1.349 . S
C2001 C2003 1.327 . S
C2001 H2024 0.950 . S
C2002 C2001 1.349 . S
C2002 C2014 1.349 . S
C2003 C2001 1.327 . S
C2003 C2019 1.429 . S
C2003 H2025 0.950 . S
C2004 H2000 0.949 . S
C2004 C2012 1.574 . S
C2004 C2020 1.368 . S
H2005 C2013 0.950 . S
H2006 C2011 0.950 . S
H2007 C2012 0.949 . S
H2008 C2014 0.950 . S
H2009 C2015 0.950 . S
H2010 C2016 0.949 . S
C2011 H2006 0.950 . S
C2011 C2013 1.327 . S
C2011 C2017 1.429 . S
C2012 C2004 1.574 . S
C2012 H2007 0.949 . S
C2012 C2018 1.368 . S
C2013 C1997 1.349 . S
C2013 H2005 0.950 . S
C2013 C2011 1.327 . S
C2014 C2002 1.349 . S
C2014 H2008 0.950 . S
C2014 C2015 1.327 . S
C2015 H2009 0.950 . S
C2015 C2014 1.327 . S
C2015 C2019 1.429 . S
C2016 C1999 1.574 . S
C2016 H2010 0.949 . S
C2016 C2020 1.368 . S
C2017 C1998 1.429 . S
C2017 C2011 1.429 . S
C2017 C2018 1.523 . S
C2018 C1999 1.368 . S
C2018 C2012 1.368 . S
C2018 C2017 1.523 . S
C2019 C2003 1.429 . S
C2019 C2015 1.429 . S
C2019 C2020 1.523 . S
C2020 C2004 1.368 . S
C2020 C2016 1.368 . S
C2020 C2019 1.523 . S
H2021 C1996 0.950 . S
H2022 C1998 0.950 . S
H2023 C1999 0.949 . S
H2024 C2001 0.950 . S
H2025 C2003 0.950 . S
C2026 C2027 1.349 . S
C2026 C2028 1.327 . S
C2026 H2051 0.950 . S
C2027 C2026 1.349 . S
C2027 C2043 1.349 . S
C2028 C2026 1.327 . S
C2028 C2047 1.429 . S
C2028 H2052 0.950 . S
C2029 C2046 1.574 . S
C2029 C2048 1.368 . S
C2029 H2053 0.949 . S
H2030 C2034 0.949 . S
C2031 C2032 1.349 . S
C2031 C2033 1.327 . S
C2031 H2054 0.950 . S
C2032 C2031 1.349 . S
C2032 C2044 1.349 . S
C2033 C2031 1.327 . S
C2033 C2049 1.429 . S
C2033 H2055 0.950 . S
C2034 H2030 0.949 . S
C2034 C2042 1.574 . S
C2034 C2050 1.368 . S
H2035 C2043 0.950 . S
H2036 C2041 0.950 . S
H2037 C2042 0.949 . S
H2038 C2044 0.950 . S
H2039 C2045 0.950 . S
H2040 C2046 0.949 . S
C2041 H2036 0.950 . S
C2041 C2043 1.327 . S
C2041 C2047 1.429 . S
C2042 C2034 1.574 . S
C2042 H2037 0.949 . S
C2042 C2048 1.368 . S
C2043 C2027 1.349 . S
C2043 H2035 0.950 . S
C2043 C2041 1.327 . S
C2044 C2032 1.349 . S
C2044 H2038 0.950 . S
C2044 C2045 1.327 . S
C2045 H2039 0.950 . S
C2045 C2044 1.327 . S
C2045 C2049 1.429 . S
C2046 C2029 1.574 . S
C2046 H2040 0.949 . S
C2046 C2050 1.368 . S
C2047 C2028 1.429 . S
C2047 C2041 1.429 . S
C2047 C2048 1.523 . S
C2048 C2029 1.368 . S
C2048 C2042 1.368 . S
C2048 C2047 1.523 . S
C2049 C2033 1.429 . S
C2049 C2045 1.429 . S
C2049 C2050 1.523 . S
C2050 C2034 1.368 . S
C2050 C2046 1.368 . S
C2050 C2049 1.523 . S
H2051 C2026 0.950 . S
H2052 C2028 0.950 . S
H2053 C2029 0.949 . S
H2054 C2031 0.950 . S
H2055 C2033 0.950 . S
C2056 C2057 1.349 . S
C2056 C2058 1.327 . S
C2056 H2081 0.950 . S
C2057 C2056 1.349 . S
C2057 C2073 1.349 . S
C2058 C2056 1.327 . S
C2058 C2077 1.429 . S
C2058 H2082 0.950 . S
C2059 C2076 1.574 . S
C2059 C2078 1.368 . S
C2059 H2083 0.949 . S
H2060 C2064 0.949 . S
C2061 C2062 1.349 . S
C2061 C2063 1.327 . S
C2061 H2084 0.950 . S
C2062 C2061 1.349 . S
C2062 C2074 1.349 . S
C2063 C2061 1.327 . S
C2063 C2079 1.429 . S
C2063 H2085 0.950 . S
C2064 H2060 0.949 . S
C2064 C2072 1.574 . S
C2064 C2080 1.368 . S
H2065 C2073 0.950 . S
H2066 C2071 0.950 . S
H2067 C2072 0.949 . S
H2068 C2074 0.950 . S
H2069 C2075 0.950 . S
H2070 C2076 0.949 . S
C2071 H2066 0.950 . S
C2071 C2073 1.327 . S
C2071 C2077 1.429 . S
C2072 C2064 1.574 . S
C2072 H2067 0.949 . S
C2072 C2078 1.368 . S
C2073 C2057 1.349 . S
C2073 H2065 0.950 . S
C2073 C2071 1.327 . S
C2074 C2062 1.349 . S
C2074 H2068 0.950 . S
C2074 C2075 1.327 . S
C2075 H2069 0.950 . S
C2075 C2074 1.327 . S
C2075 C2079 1.429 . S
C2076 C2059 1.574 . S
C2076 H2070 0.949 . S
C2076 C2080 1.368 . S
C2077 C2058 1.429 . S
C2077 C2071 1.429 . S
C2077 C2078 1.523 . S
C2078 C2059 1.368 . S
C2078 C2072 1.368 . S
C2078 C2077 1.523 . S
C2079 C2063 1.429 . S
C2079 C2075 1.429 . S
C2079 C2080 1.523 . S
C2080 C2064 1.368 . S
C2080 C2076 1.368 . S
C2080 C2079 1.523 . S
H2081 C2056 0.950 . S
H2082 C2058 0.950 . S
H2083 C2059 0.949 . S
H2084 C2061 0.950 . S
H2085 C2063 0.950 . S
C2086 C2087 1.349 . S
C2086 C2088 1.327 . S
C2086 H2111 0.950 . S
C2087 C2086 1.349 . S
C2087 C2103 1.349 . S
C2088 C2086 1.327 . S
C2088 C2107 1.429 . S
C2088 H2112 0.950 . S
C2089 C2106 1.574 . S
C2089 C2108 1.368 . S
C2089 H2113 0.949 . S
H2090 C2094 0.949 . S
C2091 C2092 1.349 . S
C2091 C2093 1.327 . S
C2091 H2114 0.950 . S
C2092 C2091 1.349 . S
C2092 C2104 1.349 . S
C2093 C2091 1.327 . S
C2093 C2109 1.429 . S
C2093 H2115 0.950 . S
C2094 H2090 0.949 . S
C2094 C2102 1.574 . S
C2094 C2110 1.368 . S
H2095 C2103 0.950 . S
H2096 C2101 0.950 . S
H2097 C2102 0.949 . S
H2098 C2104 0.950 . S
H2099 C2105 0.950 . S
H2100 C2106 0.949 . S
C2101 H2096 0.950 . S
C2101 C2103 1.327 . S
C2101 C2107 1.429 . S
C2102 C2094 1.574 . S
C2102 H2097 0.949 . S
C2102 C2108 1.368 . S
C2103 C2087 1.349 . S
C2103 H2095 0.950 . S
C2103 C2101 1.327 . S
C2104 C2092 1.349 . S
C2104 H2098 0.950 . S
C2104 C2105 1.327 . S
C2105 H2099 0.950 . S
C2105 C2104 1.327 . S
C2105 C2109 1.429 . S
C2106 C2089 1.574 . S
C2106 H2100 0.949 . S
C2106 C2110 1.368 . S
C2107 C2088 1.429 . S
C2107 C2101 1.429 . S
C2107 C2108 1.523 . S
C2108 C2089 1.368 . S
C2108 C2102 1.368 . S
C2108 C2107 1.523 . S
C2109 C2093 1.429 . S
C2109 C2105 1.429 . S
C2109 C2110 1.523 . S
C2110 C2094 1.368 . S
C2110 C2106 1.368 . S
C2110 C2109 1.523 . S
H2111 C2086 0.950 . S
H2112 C2088 0.950 . S
H2113 C2089 0.949 . S
H2114 C2091 0.950 . S
H2115 C2093 0.950 . S
C2116 C2117 1.349 . S
C2116 C2118 1.327 . S
C2116 H2141 0.950 . S
C2117 C2116 1.349 . S
C2117 C2133 1.349 . S
C2118 C2116 1.327 . S
C2118 C2137 1.429 . S
C2118 H2142 0.950 . S
C2119 C2136 1.574 . S
C2119 C2138 1.368 . S
C2119 H2143 0.949 . S
H2120 C2124 0.949 . S
C2121 C2122 1.349 . S
C2121 C2123 1.327 . S
C2121 H2144 0.950 . S
C2122 C2121 1.349 . S
C2122 C2134 1.349 . S
C2123 C2121 1.327 . S
C2123 C2139 1.429 . S
C2123 H2145 0.950 . S
C2124 H2120 0.949 . S
C2124 C2132 1.574 . S
C2124 C2140 1.368 . S
H2125 C2133 0.950 . S
H2126 C2131 0.950 . S
H2127 C2132 0.949 . S
H2128 C2134 0.950 . S
H2129 C2135 0.950 . S
H2130 C2136 0.949 . S
C2131 H2126 0.950 . S
C2131 C2133 1.327 . S
C2131 C2137 1.429 . S
C2132 C2124 1.574 . S
C2132 H2127 0.949 . S
C2132 C2138 1.368 . S
C2133 C2117 1.349 . S
C2133 H2125 0.950 . S
C2133 C2131 1.327 . S
C2134 C2122 1.349 . S
C2134 H2128 0.950 . S
C2134 C2135 1.327 . S
C2135 H2129 0.950 . S
C2135 C2134 1.327 . S
C2135 C2139 1.429 . S
C2136 C2119 1.574 . S
C2136 H2130 0.949 . S
C2136 C2140 1.368 . S
C2137 C2118 1.429 . S
C2137 C2131 1.429 . S
C2137 C2138 1.523 . S
C2138 C2119 1.368 . S
C2138 C2132 1.368 . S
C2138 C2137 1.523 . S
C2139 C2123 1.429 . S
C2139 C2135 1.429 . S
C2139 C2140 1.523 . S
C2140 C2124 1.368 . S
C2140 C2136 1.368 . S
C2140 C2139 1.523 . S
H2141 C2116 0.950 . S
H2142 C2118 0.950 . S
H2143 C2119 0.949 . S
H2144 C2121 0.950 . S
H2145 C2123 0.950 . S
C2146 C2147 1.349 . S
C2146 C2148 1.327 . S
C2146 H2171 0.950 . S
C2147 C2146 1.349 . S
C2147 C2163 1.349 . S
C2148 C2146 1.327 . S
C2148 C2167 1.429 . S
C2148 H2172 0.950 . S
C2149 C2166 1.574 . S
C2149 C2168 1.368 . S
C2149 H2173 0.949 . S
H2150 C2154 0.949 . S
C2151 C2152 1.349 . S
C2151 C2153 1.327 . S
C2151 H2174 0.950 . S
C2152 C2151 1.349 . S
C2152 C2164 1.349 . S
C2153 C2151 1.327 . S
C2153 C2169 1.429 . S
C2153 H2175 0.950 . S
C2154 H2150 0.949 . S
C2154 C2162 1.574 . S
C2154 C2170 1.368 . S
H2155 C2163 0.950 . S
H2156 C2161 0.950 . S
H2157 C2162 0.949 . S
H2158 C2164 0.950 . S
H2159 C2165 0.950 . S
H2160 C2166 0.949 . S
C2161 H2156 0.950 . S
C2161 C2163 1.327 . S
C2161 C2167 1.429 . S
C2162 C2154 1.574 . S
C2162 H2157 0.949 . S
C2162 C2168 1.368 . S
C2163 C2147 1.349 . S
C2163 H2155 0.950 . S
C2163 C2161 1.327 . S
C2164 C2152 1.349 . S
C2164 H2158 0.950 . S
C2164 C2165 1.327 . S
C2165 H2159 0.950 . S
C2165 C2164 1.327 . S
C2165 C2169 1.429 . S
C2166 C2149 1.574 . S
C2166 H2160 0.949 . S
C2166 C2170 1.368 . S
C2167 C2148 1.429 . S
C2167 C2161 1.429 . S
C2167 C2168 1.523 . S
C2168 C2149 1.368 . S
C2168 C2162 1.368 . S
C2168 C2167 1.523 . S
C2169 C2153 1.429 . S
C2169 C2165 1.429 . S
C2169 C2170 1.523 . S
C2170 C2154 1.368 . S
C2170 C2166 1.368 . S
C2170 C2169 1.523 . S
H2171 C2146 0.950 . S
H2172 C2148 0.950 . S
H2173 C2149 0.949 . S
H2174 C2151 0.950 . S
H2175 C2153 0.950 . S
C2176 C2177 1.349 1_556 S
C2176 C2178 1.327 . S
C2176 H2201 0.950 . S
C2177 C2176 1.349 1_554 S
C2177 C2193 1.349 . S
C2178 C2176 1.327 . S
C2178 C2197 1.429 1_556 S
C2178 H2202 0.950 . S
C2179 C2196 1.574 . S
C2179 C2198 1.368 . S
C2179 H2203 0.949 . S
H2180 C2184 0.949 . S
C2181 C2182 1.349 1_554 S
C2181 C2183 1.327 . S
C2181 H2204 0.950 . S
C2182 C2181 1.349 1_556 S
C2182 C2194 1.349 . S
C2183 C2181 1.327 . S
C2183 C2199 1.429 1_554 S
C2183 H2205 0.950 . S
C2184 H2180 0.949 . S
C2184 C2192 1.574 . S
C2184 C2200 1.411 . S
H2185 C2193 0.950 . S
H2186 C2191 0.950 . S
H2187 C2192 0.949 . S
H2188 C2194 0.950 . S
H2189 C2195 0.950 . S
H2190 C2196 0.949 . S
C2191 H2186 0.950 . S
C2191 C2193 1.327 . S
C2191 C2197 1.429 . S
C2192 C2184 1.574 . S
C2192 H2187 0.949 . S
C2192 C2198 1.368 1_556 S
C2193 C2177 1.349 . S
C2193 H2185 0.950 . S
C2193 C2191 1.327 . S
C2194 C2182 1.349 . S
C2194 H2188 0.950 . S
C2194 C2195 1.327 . S
C2195 H2189 0.950 . S
C2195 C2194 1.327 . S
C2195 C2199 1.429 . S
C2196 C2179 1.574 . S
C2196 H2190 0.949 . S
C2196 C2200 1.318 1_554 S
C2197 C2178 1.429 1_554 S
C2197 C2191 1.429 . S
C2197 C2198 1.523 . S
C2198 C2179 1.368 . S
C2198 C2192 1.368 1_554 S
C2198 C2197 1.523 . S
C2199 C2183 1.429 1_556 S
C2199 C2195 1.429 . S
C2199 C2200 1.533 . S
C2200 C2184 1.411 . S
C2200 C2196 1.318 1_556 S
C2200 C2199 1.533 . S
H2201 C2176 0.950 . S
H2202 C2178 0.950 . S
H2203 C2179 0.949 . S
H2204 C2181 0.950 . S
H2205 C2183 0.950 . S
C2206 C2207 1.349 . S
C2206 C2208 1.327 . S
C2206 H2231 0.950 . S
C2207 C2206 1.349 . S
C2207 C2223 1.349 . S
C2208 C2206 1.327 . S
C2208 C2227 1.429 . S
C2208 H2232 0.950 . S
C2209 C2226 1.574 . S
C2209 C2228 1.368 . S
C2209 H2233 0.949 . S
H2210 C2214 0.949 . S
C2211 C2212 1.349 . S
C2211 C2213 1.327 . S
C2211 H2234 0.950 . S
C2212 C2211 1.349 . S
C2212 C2224 1.349 . S
C2213 C2211 1.327 . S
C2213 C2229 1.429 . S
C2213 H2235 0.950 . S
C2214 H2210 0.949 . S
C2214 C2222 1.574 . S
C2214 C2230 1.368 . S
H2215 C2223 0.950 . S
H2216 C2221 0.950 . S
H2217 C2222 0.949 . S
H2218 C2224 0.950 . S
H2219 C2225 0.950 . S
H2220 C2226 0.949 . S
C2221 H2216 0.950 . S
C2221 C2223 1.327 . S
C2221 C2227 1.429 . S
C2222 C2214 1.574 . S
C2222 H2217 0.949 . S
C2222 C2228 1.368 . S
C2223 C2207 1.349 . S
C2223 H2215 0.950 . S
C2223 C2221 1.327 . S
C2224 C2212 1.349 . S
C2224 H2218 0.950 . S
C2224 C2225 1.327 . S
C2225 H2219 0.950 . S
C2225 C2224 1.327 . S
C2225 C2229 1.429 . S
C2226 C2209 1.574 . S
C2226 H2220 0.949 . S
C2226 C2230 1.368 . S
C2227 C2208 1.429 . S
C2227 C2221 1.429 . S
C2227 C2228 1.523 . S
C2228 C2209 1.368 . S
C2228 C2222 1.368 . S
C2228 C2227 1.523 . S
C2229 C2213 1.429 . S
C2229 C2225 1.429 . S
C2229 C2230 1.523 . S
C2230 C2214 1.368 . S
C2230 C2226 1.368 . S
C2230 C2229 1.523 . S
H2231 C2206 0.950 . S
H2232 C2208 0.950 . S
H2233 C2209 0.949 . S
H2234 C2211 0.950 . S
H2235 C2213 0.950 . S
C2236 C2237 1.349 . S
C2236 C2238 1.327 . S
C2236 H2261 0.950 . S
C2237 C2236 1.349 . S
C2237 C2253 1.349 . S
C2238 C2236 1.327 . S
C2238 C2257 1.429 . S
C2238 H2262 0.950 . S
C2239 C2256 1.574 . S
C2239 C2258 1.368 . S
C2239 H2263 0.949 . S
H2240 C2244 0.949 . S
C2241 C2242 1.349 . S
C2241 C2243 1.327 . S
C2241 H2264 0.950 . S
C2242 C2241 1.349 . S
C2242 C2254 1.349 . S
C2243 C2241 1.327 . S
C2243 C2259 1.429 . S
C2243 H2265 0.950 . S
C2244 H2240 0.949 . S
C2244 C2252 1.574 . S
C2244 C2260 1.368 . S
H2245 C2253 0.950 . S
H2246 C2251 0.950 . S
H2247 C2252 0.949 . S
H2248 C2254 0.950 . S
H2249 C2255 0.950 . S
H2250 C2256 0.949 . S
C2251 H2246 0.950 . S
C2251 C2253 1.327 . S
C2251 C2257 1.429 . S
C2252 C2244 1.574 . S
C2252 H2247 0.949 . S
C2252 C2258 1.368 . S
C2253 C2237 1.349 . S
C2253 H2245 0.950 . S
C2253 C2251 1.327 . S
C2254 C2242 1.349 . S
C2254 H2248 0.950 . S
C2254 C2255 1.327 . S
C2255 H2249 0.950 . S
C2255 C2254 1.327 . S
C2255 C2259 1.429 . S
C2256 C2239 1.574 . S
C2256 H2250 0.949 . S
C2256 C2260 1.368 . S
C2257 C2238 1.429 . S
C2257 C2251 1.429 . S
C2257 C2258 1.523 . S
C2258 C2239 1.368 . S
C2258 C2252 1.368 . S
C2258 C2257 1.523 . S
C2259 C2243 1.429 . S
C2259 C2255 1.429 . S
C2259 C2260 1.523 . S
C2260 C2244 1.368 . S
C2260 C2256 1.368 . S
C2260 C2259 1.523 . S
H2261 C2236 0.950 . S
H2262 C2238 0.950 . S
H2263 C2239 0.949 . S
H2264 C2241 0.950 . S
H2265 C2243 0.950 . S
C2266 C2267 1.349 . S
C2266 C2268 1.327 . S
C2266 H2291 0.950 . S
C2267 C2266 1.349 . S
C2267 C2283 1.349 . S
C2268 C2266 1.327 . S
C2268 C2287 1.429 . S
C2268 H2292 0.950 . S
C2269 C2286 1.574 . S
C2269 C2288 1.368 . S
C2269 H2293 0.949 . S
H2270 C2274 0.949 . S
C2271 C2272 1.349 . S
C2271 C2273 1.327 . S
C2271 H2294 0.950 . S
C2272 C2271 1.349 . S
C2272 C2284 1.349 . S
C2273 C2271 1.327 . S
C2273 C2289 1.429 . S
C2273 H2295 0.950 . S
C2274 H2270 0.949 . S
C2274 C2282 1.574 . S
C2274 C2290 1.368 . S
H2275 C2283 0.950 . S
H2276 C2281 0.950 . S
H2277 C2282 0.949 . S
H2278 C2284 0.950 . S
H2279 C2285 0.950 . S
H2280 C2286 0.949 . S
C2281 H2276 0.950 . S
C2281 C2283 1.327 . S
C2281 C2287 1.429 . S
C2282 C2274 1.574 . S
C2282 H2277 0.949 . S
C2282 C2288 1.368 . S
C2283 C2267 1.349 . S
C2283 H2275 0.950 . S
C2283 C2281 1.327 . S
C2284 C2272 1.349 . S
C2284 H2278 0.950 . S
C2284 C2285 1.327 . S
C2285 H2279 0.950 . S
C2285 C2284 1.327 . S
C2285 C2289 1.429 . S
C2286 C2269 1.574 . S
C2286 H2280 0.949 . S
C2286 C2290 1.368 . S
C2287 C2268 1.429 . S
C2287 C2281 1.429 . S
C2287 C2288 1.523 . S
C2288 C2269 1.368 . S
C2288 C2282 1.368 . S
C2288 C2287 1.523 . S
C2289 C2273 1.429 . S
C2289 C2285 1.429 . S
C2289 C2290 1.523 . S
C2290 C2274 1.368 . S
C2290 C2286 1.368 . S
C2290 C2289 1.523 . S
H2291 C2266 0.950 . S
H2292 C2268 0.950 . S
H2293 C2269 0.949 . S
H2294 C2271 0.950 . S
H2295 C2273 0.950 . S
C2296 C2297 1.349 . S
C2296 C2298 1.327 . S
C2296 H2321 0.950 . S
C2297 C2296 1.349 . S
C2297 C2313 1.349 . S
C2298 C2296 1.327 . S
C2298 C2317 1.429 . S
C2298 H2322 0.950 . S
C2299 C2316 1.574 . S
C2299 C2318 1.368 . S
C2299 H2323 0.949 . S
H2300 C2304 0.949 . S
C2301 C2302 1.349 . S
C2301 C2303 1.327 . S
C2301 H2324 0.950 . S
C2302 C2301 1.349 . S
C2302 C2314 1.349 . S
C2303 C2301 1.327 . S
C2303 C2319 1.429 . S
C2303 H2325 0.950 . S
C2304 H2300 0.949 . S
C2304 C2312 1.574 . S
C2304 C2320 1.368 . S
H2305 C2313 0.950 . S
H2306 C2311 0.950 . S
H2307 C2312 0.949 . S
H2308 C2314 0.950 . S
H2309 C2315 0.950 . S
H2310 C2316 0.949 . S
C2311 H2306 0.950 . S
C2311 C2313 1.327 . S
C2311 C2317 1.429 . S
C2312 C2304 1.574 . S
C2312 H2307 0.949 . S
C2312 C2318 1.368 . S
C2313 C2297 1.349 . S
C2313 H2305 0.950 . S
C2313 C2311 1.327 . S
C2314 C2302 1.349 . S
C2314 H2308 0.950 . S
C2314 C2315 1.327 . S
C2315 H2309 0.950 . S
C2315 C2314 1.327 . S
C2315 C2319 1.429 . S
C2316 C2299 1.574 . S
C2316 H2310 0.949 . S
C2316 C2320 1.368 . S
C2317 C2298 1.429 . S
C2317 C2311 1.429 . S
C2317 C2318 1.523 . S
C2318 C2299 1.368 . S
C2318 C2312 1.368 . S
C2318 C2317 1.523 . S
C2319 C2303 1.429 . S
C2319 C2315 1.429 . S
C2319 C2320 1.523 . S
C2320 C2304 1.368 . S
C2320 C2316 1.368 . S
C2320 C2319 1.523 . S
H2321 C2296 0.950 . S
H2322 C2298 0.950 . S
H2323 C2299 0.949 . S
H2324 C2301 0.950 . S
H2325 C2303 0.950 . S
C2326 C2327 1.349 . S
C2326 C2328 1.327 . S
C2326 H2351 0.950 . S
C2327 C2326 1.349 . S
C2327 C2343 1.349 . S
C2328 C2326 1.327 . S
C2328 C2347 1.429 . S
C2328 H2352 0.950 . S
C2329 C2346 1.574 . S
C2329 C2348 1.368 . S
C2329 H2353 0.949 . S
H2330 C2334 0.949 1_545 S
C2331 C2332 1.349 1_565 S
C2331 C2333 1.327 . S
C2331 H2354 0.950 . S
C2332 C2331 1.349 1_545 S
C2332 C2344 1.349 . S
C2333 C2331 1.327 . S
C2333 C2349 1.429 . S
C2333 H2355 0.950 . S
C2334 H2330 0.949 1_565 S
C2334 C2342 1.574 . S
C2334 C2350 1.368 . S
H2335 C2343 0.950 . S
H2336 C2341 0.950 . S
H2337 C2342 0.949 . S
H2338 C2344 0.950 . S
H2339 C2345 0.950 . S
H2340 C2346 0.949 . S
C2341 H2336 0.950 . S
C2341 C2343 1.327 . S
C2341 C2347 1.429 . S
C2342 C2334 1.574 . S
C2342 H2337 0.949 . S
C2342 C2348 1.368 . S
C2343 C2327 1.349 . S
C2343 H2335 0.950 . S
C2343 C2341 1.327 . S
C2344 C2332 1.349 . S
C2344 H2338 0.950 . S
C2344 C2345 1.327 . S
C2345 H2339 0.950 . S
C2345 C2344 1.327 . S
C2345 C2349 1.429 1_545 S
C2346 C2329 1.574 . S
C2346 H2340 0.949 . S
C2346 C2350 1.368 . S
C2347 C2328 1.429 . S
C2347 C2341 1.429 . S
C2347 C2348 1.523 . S
C2348 C2329 1.368 . S
C2348 C2342 1.368 . S
C2348 C2347 1.523 . S
C2349 C2333 1.429 . S
C2349 C2345 1.429 1_565 S
C2349 C2350 1.523 . S
C2350 C2334 1.368 . S
C2350 C2346 1.368 . S
C2350 C2349 1.523 . S
H2351 C2326 0.950 . S
H2352 C2328 0.950 . S
H2353 C2329 0.949 . S
H2354 C2331 0.950 . S
H2355 C2333 0.950 . S
C2356 C2357 1.349 . S
C2356 C2358 1.327 . S
C2356 H2381 0.950 . S
C2357 C2356 1.349 . S
C2357 C2373 1.349 . S
C2358 C2356 1.327 . S
C2358 C2377 1.429 . S
C2358 H2382 0.950 . S
C2359 C2376 1.574 . S
C2359 C2378 1.368 . S
C2359 H2383 0.949 . S
H2360 C2364 0.949 . S
C2361 C2362 1.349 . S
C2361 C2363 1.327 . S
C2361 H2384 0.950 . S
C2362 C2361 1.349 . S
C2362 C2374 1.349 . S
C2363 C2361 1.327 . S
C2363 C2379 1.429 . S
C2363 H2385 0.950 . S
C2364 H2360 0.949 . S
C2364 C2372 1.574 . S
C2364 C2380 1.368 . S
H2365 C2373 0.950 . S
H2366 C2371 0.950 . S
H2367 C2372 0.949 . S
H2368 C2374 0.950 . S
H2369 C2375 0.950 . S
H2370 C2376 0.949 . S
C2371 H2366 0.950 . S
C2371 C2373 1.327 . S
C2371 C2377 1.429 . S
C2372 C2364 1.574 . S
C2372 H2367 0.949 . S
C2372 C2378 1.368 . S
C2373 C2357 1.349 . S
C2373 H2365 0.950 . S
C2373 C2371 1.327 . S
C2374 C2362 1.349 . S
C2374 H2368 0.950 . S
C2374 C2375 1.327 . S
C2375 H2369 0.950 . S
C2375 C2374 1.327 . S
C2375 C2379 1.429 . S
C2376 C2359 1.574 . S
C2376 H2370 0.949 . S
C2376 C2380 1.368 . S
C2377 C2358 1.429 . S
C2377 C2371 1.429 . S
C2377 C2378 1.523 . S
C2378 C2359 1.368 . S
C2378 C2372 1.368 . S
C2378 C2377 1.523 . S
C2379 C2363 1.429 . S
C2379 C2375 1.429 . S
C2379 C2380 1.523 . S
C2380 C2364 1.368 . S
C2380 C2376 1.368 . S
C2380 C2379 1.523 . S
H2381 C2356 0.950 . S
H2382 C2358 0.950 . S
H2383 C2359 0.949 . S
H2384 C2361 0.950 . S
H2385 C2363 0.950 . S
C2386 C2387 1.349 . S
C2386 C2388 1.327 . S
C2386 H2411 0.950 . S
C2387 C2386 1.349 . S
C2387 C2403 1.349 . S
C2388 C2386 1.327 . S
C2388 C2407 1.429 . S
C2388 H2412 0.950 . S
C2389 C2406 1.574 . S
C2389 C2408 1.368 . S
C2389 H2413 0.949 . S
H2390 C2394 0.949 . S
C2391 C2392 1.349 . S
C2391 C2393 1.327 . S
C2391 H2414 0.950 . S
C2392 C2391 1.349 . S
C2392 C2404 1.349 . S
C2393 C2391 1.327 . S
C2393 C2409 1.429 . S
C2393 H2415 0.950 . S
C2394 H2390 0.949 . S
C2394 C2402 1.574 . S
C2394 C2410 1.368 . S
H2395 C2403 0.950 . S
H2396 C2401 0.950 . S
H2397 C2402 0.949 . S
H2398 C2404 0.950 . S
H2399 C2405 0.950 . S
H2400 C2406 0.949 . S
C2401 H2396 0.950 . S
C2401 C2403 1.327 . S
C2401 C2407 1.429 . S
C2402 C2394 1.574 . S
C2402 H2397 0.949 . S
C2402 C2408 1.368 . S
C2403 C2387 1.349 . S
C2403 H2395 0.950 . S
C2403 C2401 1.327 . S
C2404 C2392 1.349 . S
C2404 H2398 0.950 . S
C2404 C2405 1.327 . S
C2405 H2399 0.950 . S
C2405 C2404 1.327 . S
C2405 C2409 1.429 . S
C2406 C2389 1.574 . S
C2406 H2400 0.949 . S
C2406 C2410 1.368 . S
C2407 C2388 1.429 . S
C2407 C2401 1.429 . S
C2407 C2408 1.523 . S
C2408 C2389 1.368 . S
C2408 C2402 1.368 . S
C2408 C2407 1.523 . S
C2409 C2393 1.429 . S
C2409 C2405 1.429 . S
C2409 C2410 1.523 . S
C2410 C2394 1.368 . S
C2410 C2406 1.368 . S
C2410 C2409 1.523 . S
H2411 C2386 0.950 . S
H2412 C2388 0.950 . S
H2413 C2389 0.949 . S
H2414 C2391 0.950 . S
H2415 C2393 0.950 . S
C2416 C2417 1.349 . S
C2416 C2418 1.327 . S
C2416 H2441 0.950 . S
C2417 C2416 1.349 . S
C2417 C2433 1.349 . S
C2418 C2416 1.327 . S
C2418 C2437 1.429 . S
C2418 H2442 0.950 . S
C2419 C2436 1.574 . S
C2419 C2438 1.368 . S
C2419 H2443 0.949 . S
H2420 C2424 0.949 . S
C2421 C2422 1.349 . S
C2421 C2423 1.327 . S
C2421 H2444 0.950 . S
C2422 C2421 1.349 . S
C2422 C2434 1.349 . S
C2423 C2421 1.327 . S
C2423 C2439 1.429 . S
C2423 H2445 0.950 . S
C2424 H2420 0.949 . S
C2424 C2432 1.574 . S
C2424 C2440 1.368 . S
H2425 C2433 0.950 . S
H2426 C2431 0.950 . S
H2427 C2432 0.949 . S
H2428 C2434 0.950 . S
H2429 C2435 0.950 . S
H2430 C2436 0.949 . S
C2431 H2426 0.950 . S
C2431 C2433 1.327 . S
C2431 C2437 1.429 . S
C2432 C2424 1.574 . S
C2432 H2427 0.949 . S
C2432 C2438 1.368 . S
C2433 C2417 1.349 . S
C2433 H2425 0.950 . S
C2433 C2431 1.327 . S
C2434 C2422 1.349 . S
C2434 H2428 0.950 . S
C2434 C2435 1.327 . S
C2435 H2429 0.950 . S
C2435 C2434 1.327 . S
C2435 C2439 1.429 . S
C2436 C2419 1.574 . S
C2436 H2430 0.949 . S
C2436 C2440 1.368 . S
C2437 C2418 1.429 . S
C2437 C2431 1.429 . S
C2437 C2438 1.523 . S
C2438 C2419 1.368 . S
C2438 C2432 1.368 . S
C2438 C2437 1.523 . S
C2439 C2423 1.429 . S
C2439 C2435 1.429 . S
C2439 C2440 1.523 . S
C2440 C2424 1.368 . S
C2440 C2436 1.368 . S
C2440 C2439 1.523 . S
H2441 C2416 0.950 . S
H2442 C2418 0.950 . S
H2443 C2419 0.949 . S
H2444 C2421 0.950 . S
H2445 C2423 0.950 . S
C2446 C2447 1.349 . S
C2446 C2448 1.327 . S
C2446 H2471 0.950 . S
C2447 C2446 1.349 . S
C2447 C2463 1.349 . S
C2448 C2446 1.327 . S
C2448 C2467 1.429 . S
C2448 H2472 0.950 . S
C2449 C2466 1.574 . S
C2449 C2468 1.368 . S
C2449 H2473 0.949 . S
H2450 C2454 0.949 . S
C2451 C2452 1.349 . S
C2451 C2453 1.327 . S
C2451 H2474 0.950 . S
C2452 C2451 1.349 . S
C2452 C2464 1.349 . S
C2453 C2451 1.327 . S
C2453 C2469 1.429 . S
C2453 H2475 0.950 . S
C2454 H2450 0.949 . S
C2454 C2462 1.574 . S
C2454 C2470 1.368 . S
H2455 C2463 0.950 . S
H2456 C2461 0.950 . S
H2457 C2462 0.949 . S
H2458 C2464 0.950 . S
H2459 C2465 0.950 . S
H2460 C2466 0.949 . S
C2461 H2456 0.950 . S
C2461 C2463 1.327 . S
C2461 C2467 1.429 . S
C2462 C2454 1.574 . S
C2462 H2457 0.949 . S
C2462 C2468 1.368 . S
C2463 C2447 1.349 . S
C2463 H2455 0.950 . S
C2463 C2461 1.327 . S
C2464 C2452 1.349 . S
C2464 H2458 0.950 . S
C2464 C2465 1.327 . S
C2465 H2459 0.950 . S
C2465 C2464 1.327 . S
C2465 C2469 1.429 . S
C2466 C2449 1.574 . S
C2466 H2460 0.949 . S
C2466 C2470 1.368 . S
C2467 C2448 1.429 . S
C2467 C2461 1.429 . S
C2467 C2468 1.523 . S
C2468 C2449 1.368 . S
C2468 C2462 1.368 . S
C2468 C2467 1.523 . S
C2469 C2453 1.429 . S
C2469 C2465 1.429 . S
C2469 C2470 1.523 . S
C2470 C2454 1.368 . S
C2470 C2466 1.368 . S
C2470 C2469 1.523 . S
H2471 C2446 0.950 . S
H2472 C2448 0.950 . S
H2473 C2449 0.949 . S
H2474 C2451 0.950 . S
H2475 C2453 0.950 . S
C2476 C2477 1.349 . S
C2476 C2478 1.327 . S
C2476 H2501 0.950 . S
C2477 C2476 1.349 . S
C2477 C2493 1.349 . S
C2478 C2476 1.327 . S
C2478 C2497 1.429 . S
C2478 H2502 0.950 . S
C2479 C2496 1.574 1_556 S
C2479 C2498 1.368 . S
C2479 H2503 0.949 1_556 S
H2480 C2484 0.949 . S
C2481 C2482 1.349 . S
C2481 C2483 1.327 . S
C2481 H2504 0.950 . S
C2482 C2481 1.349 . S
C2482 C2494 1.349 . S
C2483 C2481 1.327 . S
C2483 C2499 1.429 . S
C2483 H2505 0.950 . S
C2484 H2480 0.949 . S
C2484 C2492 1.574 . S
C2484 C2500 1.368 . S
H2485 C2493 0.950 . S
H2486 C2491 0.950 . S
H2487 C2492 0.949 . S
H2488 C2494 0.950 . S
H2489 C2495 0.950 1_556 S
H2490 C2496 0.949 . S
C2491 H2486 0.950 . S
C2491 C2493 1.327 . S
C2491 C2497 1.429 . S
C2492 C2484 1.574 . S
C2492 H2487 0.949 . S
C2492 C2498 1.368 . S
C2493 C2477 1.349 . S
C2493 H2485 0.950 . S
C2493 C2491 1.327 . S
C2494 C2482 1.349 . S
C2494 H2488 0.950 . S
C2494 C2495 1.327 . S
C2495 H2489 0.950 1_554 S
C2495 C2494 1.327 . S
C2495 C2499 1.429 . S
C2496 C2479 1.574 1_554 S
C2496 H2490 0.949 . S
C2496 C2500 1.368 1_554 S
C2497 C2478 1.429 . S
C2497 C2491 1.429 . S
C2497 C2498 1.523 . S
C2498 C2479 1.368 . S
C2498 C2492 1.368 . S
C2498 C2497 1.523 . S
C2499 C2483 1.429 . S
C2499 C2495 1.429 . S
C2499 C2500 1.523 1_554 S
C2500 C2484 1.368 . S
C2500 C2496 1.368 1_556 S
C2500 C2499 1.523 1_556 S
H2501 C2476 0.950 . S
H2502 C2478 0.950 . S
H2503 C2479 0.949 1_554 S
H2504 C2481 0.950 . S
H2505 C2483 0.950 . S
C2506 C2507 1.349 1_655 S
C2506 C2508 1.327 . S
C2506 H2531 0.950 1_655 S
C2507 C2506 1.349 1_455 S
C2507 C2523 1.349 1_455 S
C2508 C2506 1.327 . S
C2508 C2527 1.429 . S
C2508 H2532 0.950 . S
C2509 C2526 1.574 . S
C2509 C2528 1.368 . S
C2509 H2533 0.949 . S
H2510 C2514 0.949 . S
C2511 C2512 1.349 . S
C2511 C2513 1.327 . S
C2511 H2534 0.950 . S
C2512 C2511 1.349 . S
C2512 C2524 1.349 . S
C2513 C2511 1.327 . S
C2513 C2529 1.429 . S
C2513 H2535 0.950 . S
C2514 H2510 0.949 . S
C2514 C2522 1.574 . S
C2514 C2530 1.368 . S
H2515 C2523 0.950 1_455 S
H2516 C2521 0.950 . S
H2517 C2522 0.949 . S
H2518 C2524 0.950 . S
H2519 C2525 0.950 . S
H2520 C2526 0.949 . S
C2521 H2516 0.950 . S
C2521 C2523 1.327 . S
C2521 C2527 1.429 . S
C2522 C2514 1.574 . S
C2522 H2517 0.949 . S
C2522 C2528 1.368 . S
C2523 C2507 1.349 1_655 S
C2523 H2515 0.950 1_655 S
C2523 C2521 1.327 . S
C2524 C2512 1.349 . S
C2524 H2518 0.950 . S
C2524 C2525 1.327 . S
C2525 H2519 0.950 . S
C2525 C2524 1.327 . S
C2525 C2529 1.429 . S
C2526 C2509 1.574 . S
C2526 H2520 0.949 . S
C2526 C2530 1.368 . S
C2527 C2508 1.429 . S
C2527 C2521 1.429 . S
C2527 C2528 1.523 . S
C2528 C2509 1.368 . S
C2528 C2522 1.368 . S
C2528 C2527 1.523 . S
C2529 C2513 1.429 . S
C2529 C2525 1.429 . S
C2529 C2530 1.523 . S
C2530 C2514 1.368 . S
C2530 C2526 1.368 . S
C2530 C2529 1.523 . S
H2531 C2506 0.950 1_455 S
H2532 C2508 0.950 . S
H2533 C2509 0.949 . S
H2534 C2511 0.950 . S
H2535 C2513 0.950 . S
C2536 C2537 1.349 . S
C2536 C2538 1.327 . S
C2536 H2561 0.950 . S
C2537 C2536 1.349 . S
C2537 C2553 1.349 . S
C2538 C2536 1.327 . S
C2538 C2557 1.429 . S
C2538 H2562 0.950 . S
C2539 C2556 1.574 . S
C2539 C2558 1.368 . S
C2539 H2563 0.949 . S
H2540 C2544 0.949 . S
C2541 C2542 1.349 . S
C2541 C2543 1.327 . S
C2541 H2564 0.950 . S
C2542 C2541 1.349 . S
C2542 C2554 1.349 . S
C2543 C2541 1.327 . S
C2543 C2559 1.429 . S
C2543 H2565 0.950 . S
C2544 H2540 0.949 . S
C2544 C2552 1.574 . S
C2544 C2560 1.368 . S
H2545 C2553 0.950 . S
H2546 C2551 0.950 . S
H2547 C2552 0.949 . S
H2548 C2554 0.950 . S
H2549 C2555 0.950 . S
H2550 C2556 0.949 . S
C2551 H2546 0.950 . S
C2551 C2553 1.327 . S
C2551 C2557 1.429 . S
C2552 C2544 1.574 . S
C2552 H2547 0.949 . S
C2552 C2558 1.368 . S
C2553 C2537 1.349 . S
C2553 H2545 0.950 . S
C2553 C2551 1.327 . S
C2554 C2542 1.349 . S
C2554 H2548 0.950 . S
C2554 C2555 1.327 . S
C2555 H2549 0.950 . S
C2555 C2554 1.327 . S
C2555 C2559 1.429 . S
C2556 C2539 1.574 . S
C2556 H2550 0.949 . S
C2556 C2560 1.368 . S
C2557 C2538 1.429 . S
C2557 C2551 1.429 . S
C2557 C2558 1.523 . S
C2558 C2539 1.368 . S
C2558 C2552 1.368 . S
C2558 C2557 1.523 . S
C2559 C2543 1.429 . S
C2559 C2555 1.429 . S
C2559 C2560 1.523 . S
C2560 C2544 1.368 . S
C2560 C2556 1.368 . S
C2560 C2559 1.523 . S
H2561 C2536 0.950 . S
H2562 C2538 0.950 . S
H2563 C2539 0.949 . S
H2564 C2541 0.950 . S
H2565 C2543 0.950 . S
C2566 C2567 1.349 . S
C2566 C2568 1.327 . S
C2566 H2591 0.950 . S
C2567 C2566 1.349 . S
C2567 C2583 1.349 . S
C2568 C2566 1.327 . S
C2568 C2587 1.429 . S
C2568 H2592 0.950 . S
C2569 C2586 1.574 . S
C2569 C2588 1.368 . S
C2569 H2593 0.949 . S
H2570 C2574 0.949 . S
C2571 C2572 1.349 . S
C2571 C2573 1.327 . S
C2571 H2594 0.950 . S
C2572 C2571 1.349 . S
C2572 C2584 1.349 . S
C2573 C2571 1.327 . S
C2573 C2589 1.429 . S
C2573 H2595 0.950 . S
C2574 H2570 0.949 . S
C2574 C2582 1.574 . S
C2574 C2590 1.368 . S
H2575 C2583 0.950 . S
H2576 C2581 0.950 . S
H2577 C2582 0.949 . S
H2578 C2584 0.950 . S
H2579 C2585 0.950 . S
H2580 C2586 0.949 . S
C2581 H2576 0.950 . S
C2581 C2583 1.327 . S
C2581 C2587 1.429 . S
C2582 C2574 1.574 . S
C2582 H2577 0.949 . S
C2582 C2588 1.368 . S
C2583 C2567 1.349 . S
C2583 H2575 0.950 . S
C2583 C2581 1.327 . S
C2584 C2572 1.349 . S
C2584 H2578 0.950 . S
C2584 C2585 1.327 . S
C2585 H2579 0.950 . S
C2585 C2584 1.327 . S
C2585 C2589 1.429 . S
C2586 C2569 1.574 . S
C2586 H2580 0.949 . S
C2586 C2590 1.368 . S
C2587 C2568 1.429 . S
C2587 C2581 1.429 . S
C2587 C2588 1.523 . S
C2588 C2569 1.368 . S
C2588 C2582 1.368 . S
C2588 C2587 1.523 . S
C2589 C2573 1.429 . S
C2589 C2585 1.429 . S
C2589 C2590 1.523 . S
C2590 C2574 1.368 . S
C2590 C2586 1.368 . S
C2590 C2589 1.523 . S
H2591 C2566 0.950 . S
H2592 C2568 0.950 . S
H2593 C2569 0.949 . S
H2594 C2571 0.950 . S
H2595 C2573 0.950 . S
C2596 C2597 1.349 . S
C2596 C2598 1.327 . S
C2596 H2621 0.950 . S
C2597 C2596 1.349 . S
C2597 C2613 1.349 . S
C2598 C2596 1.327 . S
C2598 C2617 1.429 . S
C2598 H2622 0.950 . S
C2599 C2616 1.574 . S
C2599 C2618 1.368 . S
C2599 H2623 0.949 . S
H2600 C2604 0.949 . S
C2601 C2602 1.349 . S
C2601 C2603 1.327 . S
C2601 H2624 0.950 . S
C2602 C2601 1.349 . S
C2602 C2614 1.349 . S
C2603 C2601 1.327 . S
C2603 C2619 1.429 . S
C2603 H2625 0.950 . S
C2604 H2600 0.949 . S
C2604 C2612 1.574 . S
C2604 C2620 1.368 . S
H2605 C2613 0.950 . S
H2606 C2611 0.950 . S
H2607 C2612 0.949 . S
H2608 C2614 0.950 . S
H2609 C2615 0.950 . S
H2610 C2616 0.949 . S
C2611 H2606 0.950 . S
C2611 C2613 1.327 . S
C2611 C2617 1.429 . S
C2612 C2604 1.574 . S
C2612 H2607 0.949 . S
C2612 C2618 1.368 . S
C2613 C2597 1.349 . S
C2613 H2605 0.950 . S
C2613 C2611 1.327 . S
C2614 C2602 1.349 . S
C2614 H2608 0.950 . S
C2614 C2615 1.327 . S
C2615 H2609 0.950 . S
C2615 C2614 1.327 . S
C2615 C2619 1.429 . S
C2616 C2599 1.574 . S
C2616 H2610 0.949 . S
C2616 C2620 1.368 . S
C2617 C2598 1.429 . S
C2617 C2611 1.429 . S
C2617 C2618 1.523 . S
C2618 C2599 1.368 . S
C2618 C2612 1.368 . S
C2618 C2617 1.523 . S
C2619 C2603 1.429 . S
C2619 C2615 1.429 . S
C2619 C2620 1.523 . S
C2620 C2604 1.368 . S
C2620 C2616 1.368 . S
C2620 C2619 1.523 . S
H2621 C2596 0.950 . S
H2622 C2598 0.950 . S
H2623 C2599 0.949 . S
H2624 C2601 0.950 . S
H2625 C2603 0.950 . S
C2626 C2627 1.349 . S
C2626 C2628 1.327 . S
C2626 H2651 0.950 . S
C2627 C2626 1.349 . S
C2627 C2643 1.349 . S
C2628 C2626 1.327 . S
C2628 C2647 1.429 . S
C2628 H2652 0.950 . S
C2629 C2646 1.574 . S
C2629 C2648 1.368 . S
C2629 H2653 0.949 . S
H2630 C2634 0.949 . S
C2631 C2632 1.349 . S
C2631 C2633 1.327 . S
C2631 H2654 0.950 . S
C2632 C2631 1.349 . S
C2632 C2644 1.349 . S
C2633 C2631 1.327 . S
C2633 C2649 1.429 . S
C2633 H2655 0.950 . S
C2634 H2630 0.949 . S
C2634 C2642 1.574 . S
C2634 C2650 1.368 . S
H2635 C2643 0.950 . S
H2636 C2641 0.950 . S
H2637 C2642 0.949 . S
H2638 C2644 0.950 . S
H2639 C2645 0.950 . S
H2640 C2646 0.949 . S
C2641 H2636 0.950 . S
C2641 C2643 1.327 . S
C2641 C2647 1.429 . S
C2642 C2634 1.574 . S
C2642 H2637 0.949 . S
C2642 C2648 1.368 . S
C2643 C2627 1.349 . S
C2643 H2635 0.950 . S
C2643 C2641 1.327 . S
C2644 C2632 1.349 . S
C2644 H2638 0.950 . S
C2644 C2645 1.327 . S
C2645 H2639 0.950 . S
C2645 C2644 1.327 . S
C2645 C2649 1.429 . S
C2646 C2629 1.574 . S
C2646 H2640 0.949 . S
C2646 C2650 1.368 . S
C2647 C2628 1.429 . S
C2647 C2641 1.429 . S
C2647 C2648 1.523 . S
C2648 C2629 1.368 . S
C2648 C2642 1.368 . S
C2648 C2647 1.523 . S
C2649 C2633 1.429 . S
C2649 C2645 1.429 . S
C2649 C2650 1.523 . S
C2650 C2634 1.368 . S
C2650 C2646 1.368 . S
C2650 C2649 1.523 . S
H2651 C2626 0.950 . S
H2652 C2628 0.950 . S
H2653 C2629 0.949 . S
H2654 C2631 0.950 . S
H2655 C2633 0.950 . S
C2656 C2657 1.349 . S
C2656 C2658 1.327 . S
C2656 H2681 0.950 . S
C2657 C2656 1.349 . S
C2657 C2673 1.349 . S
C2658 C2656 1.327 . S
C2658 C2677 1.429 . S
C2658 H2682 0.950 . S
C2659 C2676 1.574 . S
C2659 C2678 1.368 . S
C2659 H2683 0.949 . S
H2660 C2664 0.949 . S
C2661 C2662 1.349 . S
C2661 C2663 1.327 . S
C2661 H2684 0.950 . S
C2662 C2661 1.349 . S
C2662 C2674 1.349 . S
C2663 C2661 1.327 . S
C2663 C2679 1.429 . S
C2663 H2685 0.950 . S
C2664 H2660 0.949 . S
C2664 C2672 1.574 . S
C2664 C2680 1.368 . S
H2665 C2673 0.950 . S
H2666 C2671 0.950 . S
H2667 C2672 0.949 . S
H2668 C2674 0.950 . S
H2669 C2675 0.950 . S
H2670 C2676 0.949 . S
C2671 H2666 0.950 . S
C2671 C2673 1.327 . S
C2671 C2677 1.429 . S
C2672 C2664 1.574 . S
C2672 H2667 0.949 . S
C2672 C2678 1.368 . S
C2673 C2657 1.349 . S
C2673 H2665 0.950 . S
C2673 C2671 1.327 . S
C2674 C2662 1.349 . S
C2674 H2668 0.950 . S
C2674 C2675 1.327 . S
C2675 H2669 0.950 . S
C2675 C2674 1.327 . S
C2675 C2679 1.429 . S
C2676 C2659 1.574 . S
C2676 H2670 0.949 . S
C2676 C2680 1.368 . S
C2677 C2658 1.429 . S
C2677 C2671 1.429 . S
C2677 C2678 1.523 . S
C2678 C2659 1.368 . S
C2678 C2672 1.368 . S
C2678 C2677 1.523 . S
C2679 C2663 1.429 . S
C2679 C2675 1.429 . S
C2679 C2680 1.523 . S
C2680 C2664 1.368 . S
C2680 C2676 1.368 . S
C2680 C2679 1.523 . S
H2681 C2656 0.950 . S
H2682 C2658 0.950 . S
H2683 C2659 0.949 . S
H2684 C2661 0.950 . S
H2685 C2663 0.950 . S
C2686 C2687 1.349 . S
C2686 C2688 1.327 . S
C2686 H2711 0.950 . S
C2687 C2686 1.349 . S
C2687 C2703 1.349 . S
C2688 C2686 1.327 . S
C2688 C2707 1.429 . S
C2688 H2712 0.950 . S
C2689 C2706 1.574 . S
C2689 C2708 1.368 . S
C2689 H2713 0.949 . S
H2690 C2694 0.949 . S
C2691 C2692 1.349 . S
C2691 C2693 1.327 . S
C2691 H2714 0.950 . S
C2692 C2691 1.349 . S
C2692 C2704 1.349 . S
C2693 C2691 1.327 . S
C2693 C2709 1.429 . S
C2693 H2715 0.950 . S
C2694 H2690 0.949 . S
C2694 C2702 1.574 . S
C2694 C2710 1.368 . S
H2695 C2703 0.950 . S
H2696 C2701 0.950 . S
H2697 C2702 0.949 . S
H2698 C2704 0.950 . S
H2699 C2705 0.950 . S
H2700 C2706 0.949 . S
C2701 H2696 0.950 . S
C2701 C2703 1.327 . S
C2701 C2707 1.429 . S
C2702 C2694 1.574 . S
C2702 H2697 0.949 . S
C2702 C2708 1.368 . S
C2703 C2687 1.349 . S
C2703 H2695 0.950 . S
C2703 C2701 1.327 . S
C2704 C2692 1.349 . S
C2704 H2698 0.950 . S
C2704 C2705 1.327 . S
C2705 H2699 0.950 . S
C2705 C2704 1.327 . S
C2705 C2709 1.429 . S
C2706 C2689 1.574 . S
C2706 H2700 0.949 . S
C2706 C2710 1.368 . S
C2707 C2688 1.429 . S
C2707 C2701 1.429 . S
C2707 C2708 1.523 . S
C2708 C2689 1.368 . S
C2708 C2702 1.368 . S
C2708 C2707 1.523 . S
C2709 C2693 1.429 . S
C2709 C2705 1.429 . S
C2709 C2710 1.523 . S
C2710 C2694 1.368 . S
C2710 C2706 1.368 . S
C2710 C2709 1.523 . S
H2711 C2686 0.950 . S
H2712 C2688 0.950 . S
H2713 C2689 0.949 . S
H2714 C2691 0.950 . S
H2715 C2693 0.950 . S
C2716 C2717 1.349 . S
C2716 C2718 1.327 . S
C2716 H2741 0.950 . S
C2717 C2716 1.349 . S
C2717 C2733 1.349 . S
C2718 C2716 1.327 . S
C2718 C2737 1.429 . S
C2718 H2742 0.950 . S
C2719 C2736 1.574 . S
C2719 C2738 1.368 . S
C2719 H2743 0.949 . S
H2720 C2724 0.949 . S
C2721 C2722 1.349 . S
C2721 C2723 1.327 . S
C2721 H2744 0.950 . S
C2722 C2721 1.349 . S
C2722 C2734 1.349 . S
C2723 C2721 1.327 . S
C2723 C2739 1.429 . S
C2723 H2745 0.950 . S
C2724 H2720 0.949 . S
C2724 C2732 1.574 . S
C2724 C2740 1.368 . S
H2725 C2733 0.950 . S
H2726 C2731 0.950 . S
H2727 C2732 0.949 . S
H2728 C2734 0.950 . S
H2729 C2735 0.950 . S
H2730 C2736 0.949 . S
C2731 H2726 0.950 . S
C2731 C2733 1.327 . S
C2731 C2737 1.429 . S
C2732 C2724 1.574 . S
C2732 H2727 0.949 . S
C2732 C2738 1.368 . S
C2733 C2717 1.349 . S
C2733 H2725 0.950 . S
C2733 C2731 1.327 . S
C2734 C2722 1.349 . S
C2734 H2728 0.950 . S
C2734 C2735 1.327 . S
C2735 H2729 0.950 . S
C2735 C2734 1.327 . S
C2735 C2739 1.429 . S
C2736 C2719 1.574 . S
C2736 H2730 0.949 . S
C2736 C2740 1.368 . S
C2737 C2718 1.429 . S
C2737 C2731 1.429 . S
C2737 C2738 1.523 . S
C2738 C2719 1.368 . S
C2738 C2732 1.368 . S
C2738 C2737 1.523 . S
C2739 C2723 1.429 . S
C2739 C2735 1.429 . S
C2739 C2740 1.523 . S
C2740 C2724 1.368 . S
C2740 C2736 1.368 . S
C2740 C2739 1.523 . S
H2741 C2716 0.950 . S
H2742 C2718 0.950 . S
H2743 C2719 0.949 . S
H2744 C2721 0.950 . S
H2745 C2723 0.950 . S
C2746 C2747 1.349 . S
C2746 C2748 1.327 . S
C2746 H2771 0.950 . S
C2747 C2746 1.349 . S
C2747 C2763 1.349 . S
C2748 C2746 1.327 . S
C2748 C2767 1.429 . S
C2748 H2772 0.950 . S
C2749 C2766 1.574 . S
C2749 C2768 1.368 . S
C2749 H2773 0.949 . S
H2750 C2754 0.949 . S
C2751 C2752 1.349 . S
C2751 C2753 1.327 . S
C2751 H2774 0.950 . S
C2752 C2751 1.349 . S
C2752 C2764 1.349 . S
C2753 C2751 1.327 . S
C2753 C2769 1.429 . S
C2753 H2775 0.950 . S
C2754 H2750 0.949 . S
C2754 C2762 1.574 . S
C2754 C2770 1.368 . S
H2755 C2763 0.950 . S
H2756 C2761 0.950 . S
H2757 C2762 0.949 . S
H2758 C2764 0.950 . S
H2759 C2765 0.950 . S
H2760 C2766 0.949 . S
C2761 H2756 0.950 . S
C2761 C2763 1.327 . S
C2761 C2767 1.429 . S
C2762 C2754 1.574 . S
C2762 H2757 0.949 . S
C2762 C2768 1.368 . S
C2763 C2747 1.349 . S
C2763 H2755 0.950 . S
C2763 C2761 1.327 . S
C2764 C2752 1.349 . S
C2764 H2758 0.950 . S
C2764 C2765 1.327 . S
C2765 H2759 0.950 . S
C2765 C2764 1.327 . S
C2765 C2769 1.429 . S
C2766 C2749 1.574 . S
C2766 H2760 0.949 . S
C2766 C2770 1.368 . S
C2767 C2748 1.429 . S
C2767 C2761 1.429 . S
C2767 C2768 1.523 . S
C2768 C2749 1.368 . S
C2768 C2762 1.368 . S
C2768 C2767 1.523 . S
C2769 C2753 1.429 . S
C2769 C2765 1.429 . S
C2769 C2770 1.523 . S
C2770 C2754 1.368 . S
C2770 C2766 1.368 . S
C2770 C2769 1.523 . S
H2771 C2746 0.950 . S
H2772 C2748 0.950 . S
H2773 C2749 0.949 . S
H2774 C2751 0.950 . S
H2775 C2753 0.950 . S
C2776 C2777 1.349 . S
C2776 C2778 1.327 . S
C2776 H2801 0.950 . S
C2777 C2776 1.349 . S
C2777 C2793 1.349 . S
C2778 C2776 1.327 . S
C2778 C2797 1.429 . S
C2778 H2802 0.950 . S
C2779 C2796 1.574 . S
C2779 C2798 1.368 . S
C2779 H2803 0.949 . S
H2780 C2784 0.949 . S
C2781 C2782 1.349 . S
C2781 C2783 1.327 . S
C2781 H2804 0.950 . S
C2782 C2781 1.349 . S
C2782 C2794 1.349 . S
C2783 C2781 1.327 . S
C2783 C2799 1.429 . S
C2783 H2805 0.950 . S
C2784 H2780 0.949 . S
C2784 C2792 1.574 . S
C2784 C2800 1.368 . S
H2785 C2793 0.950 . S
H2786 C2791 0.950 . S
H2787 C2792 0.949 . S
H2788 C2794 0.950 . S
H2789 C2795 0.950 . S
H2790 C2796 0.949 . S
C2791 H2786 0.950 . S
C2791 C2793 1.327 . S
C2791 C2797 1.429 . S
C2792 C2784 1.574 . S
C2792 H2787 0.949 . S
C2792 C2798 1.368 . S
C2793 C2777 1.349 . S
C2793 H2785 0.950 . S
C2793 C2791 1.327 . S
C2794 C2782 1.349 . S
C2794 H2788 0.950 . S
C2794 C2795 1.327 . S
C2795 H2789 0.950 . S
C2795 C2794 1.327 . S
C2795 C2799 1.429 . S
C2796 C2779 1.574 . S
C2796 H2790 0.949 . S
C2796 C2800 1.368 . S
C2797 C2778 1.429 . S
C2797 C2791 1.429 . S
C2797 C2798 1.523 . S
C2798 C2779 1.368 . S
C2798 C2792 1.368 . S
C2798 C2797 1.523 . S
C2799 C2783 1.429 . S
C2799 C2795 1.429 . S
C2799 C2800 1.523 . S
C2800 C2784 1.368 . S
C2800 C2796 1.368 . S
C2800 C2799 1.523 . S
H2801 C2776 0.950 . S
H2802 C2778 0.950 . S
H2803 C2779 0.949 . S
H2804 C2781 0.950 . S
H2805 C2783 0.950 . S
C2806 C2807 1.349 . S
C2806 C2808 1.327 . S
C2806 H2831 0.950 . S
C2807 C2806 1.349 . S
C2807 C2823 1.349 . S
C2808 C2806 1.327 . S
C2808 C2827 1.429 . S
C2808 H2832 0.950 . S
C2809 C2826 1.574 . S
C2809 C2828 1.368 . S
C2809 H2833 0.949 . S
H2810 C2814 0.949 . S
C2811 C2812 1.349 . S
C2811 C2813 1.327 . S
C2811 H2834 0.950 . S
C2812 C2811 1.349 . S
C2812 C2824 1.349 . S
C2813 C2811 1.327 . S
C2813 C2829 1.429 . S
C2813 H2835 0.950 . S
C2814 H2810 0.949 . S
C2814 C2822 1.574 . S
C2814 C2830 1.368 . S
H2815 C2823 0.950 . S
H2816 C2821 0.950 . S
H2817 C2822 0.949 . S
H2818 C2824 0.950 . S
H2819 C2825 0.950 . S
H2820 C2826 0.949 . S
C2821 H2816 0.950 . S
C2821 C2823 1.327 . S
C2821 C2827 1.429 . S
C2822 C2814 1.574 . S
C2822 H2817 0.949 . S
C2822 C2828 1.368 . S
C2823 C2807 1.349 . S
C2823 H2815 0.950 . S
C2823 C2821 1.327 . S
C2824 C2812 1.349 . S
C2824 H2818 0.950 . S
C2824 C2825 1.327 . S
C2825 H2819 0.950 . S
C2825 C2824 1.327 . S
C2825 C2829 1.429 . S
C2826 C2809 1.574 . S
C2826 H2820 0.949 . S
C2826 C2830 1.368 . S
C2827 C2808 1.429 . S
C2827 C2821 1.429 . S
C2827 C2828 1.523 . S
C2828 C2809 1.368 . S
C2828 C2822 1.368 . S
C2828 C2827 1.523 . S
C2829 C2813 1.429 . S
C2829 C2825 1.429 . S
C2829 C2830 1.523 . S
C2830 C2814 1.368 . S
C2830 C2826 1.368 . S
C2830 C2829 1.523 . S
H2831 C2806 0.950 . S
H2832 C2808 0.950 . S
H2833 C2809 0.949 . S
H2834 C2811 0.950 . S
H2835 C2813 0.950 . S
C2836 C2837 1.349 . S
C2836 C2838 1.327 . S
C2836 H2861 0.950 . S
C2837 C2836 1.349 . S
C2837 C2853 1.349 . S
C2838 C2836 1.327 . S
C2838 C2857 1.429 . S
C2838 H2862 0.950 . S
C2839 C2856 1.574 . S
C2839 C2858 1.368 . S
C2839 H2863 0.949 . S
H2840 C2844 0.949 . S
C2841 C2842 1.349 . S
C2841 C2843 1.327 . S
C2841 H2864 0.950 . S
C2842 C2841 1.349 . S
C2842 C2854 1.349 . S
C2843 C2841 1.327 . S
C2843 C2859 1.429 . S
C2843 H2865 0.950 . S
C2844 H2840 0.949 . S
C2844 C2852 1.574 . S
C2844 C2860 1.368 . S
H2845 C2853 0.950 . S
H2846 C2851 0.950 . S
H2847 C2852 0.949 . S
H2848 C2854 0.950 . S
H2849 C2855 0.950 . S
H2850 C2856 0.949 . S
C2851 H2846 0.950 . S
C2851 C2853 1.327 . S
C2851 C2857 1.429 . S
C2852 C2844 1.574 . S
C2852 H2847 0.949 . S
C2852 C2858 1.368 . S
C2853 C2837 1.349 . S
C2853 H2845 0.950 . S
C2853 C2851 1.327 . S
C2854 C2842 1.349 . S
C2854 H2848 0.950 . S
C2854 C2855 1.327 . S
C2855 H2849 0.950 . S
C2855 C2854 1.327 . S
C2855 C2859 1.429 . S
C2856 C2839 1.574 . S
C2856 H2850 0.949 . S
C2856 C2860 1.368 . S
C2857 C2838 1.429 . S
C2857 C2851 1.429 . S
C2857 C2858 1.523 . S
C2858 C2839 1.368 . S
C2858 C2852 1.368 . S
C2858 C2857 1.523 . S
C2859 C2843 1.429 . S
C2859 C2855 1.429 . S
C2859 C2860 1.523 . S
C2860 C2844 1.368 . S
C2860 C2856 1.368 . S
C2860 C2859 1.523 . S
H2861 C2836 0.950 . S
H2862 C2838 0.950 . S
H2863 C2839 0.949 . S
H2864 C2841 0.950 . S
H2865 C2843 0.950 . S
C2866 C2867 1.349 . S
C2866 C2868 1.327 . S
C2866 H2891 0.950 . S
C2867 C2866 1.349 . S
C2867 C2883 1.349 . S
C2868 C2866 1.327 . S
C2868 C2887 1.429 . S
C2868 H2892 0.950 . S
C2869 C2886 1.574 . S
C2869 C2888 1.368 . S
C2869 H2893 0.949 . S
H2870 C2874 0.949 . S
C2871 C2872 1.349 . S
C2871 C2873 1.327 . S
C2871 H2894 0.950 . S
C2872 C2871 1.349 . S
C2872 C2884 1.349 . S
C2873 C2871 1.327 . S
C2873 C2889 1.429 . S
C2873 H2895 0.950 . S
C2874 H2870 0.949 . S
C2874 C2882 1.574 . S
C2874 C2890 1.368 . S
H2875 C2883 0.950 . S
H2876 C2881 0.950 . S
H2877 C2882 0.949 . S
H2878 C2884 0.950 . S
H2879 C2885 0.950 . S
H2880 C2886 0.949 . S
C2881 H2876 0.950 . S
C2881 C2883 1.327 . S
C2881 C2887 1.429 . S
C2882 C2874 1.574 . S
C2882 H2877 0.949 . S
C2882 C2888 1.368 . S
C2883 C2867 1.349 . S
C2883 H2875 0.950 . S
C2883 C2881 1.327 . S
C2884 C2872 1.349 . S
C2884 H2878 0.950 . S
C2884 C2885 1.327 . S
C2885 H2879 0.950 . S
C2885 C2884 1.327 . S
C2885 C2889 1.429 . S
C2886 C2869 1.574 . S
C2886 H2880 0.949 . S
C2886 C2890 1.368 . S
C2887 C2868 1.429 . S
C2887 C2881 1.429 . S
C2887 C2888 1.523 . S
C2888 C2869 1.368 . S
C2888 C2882 1.368 . S
C2888 C2887 1.523 . S
C2889 C2873 1.429 . S
C2889 C2885 1.429 . S
C2889 C2890 1.523 . S
C2890 C2874 1.368 . S
C2890 C2886 1.368 . S
C2890 C2889 1.523 . S
H2891 C2866 0.950 . S
H2892 C2868 0.950 . S
H2893 C2869 0.949 . S
H2894 C2871 0.950 . S
H2895 C2873 0.950 . S
C2896 C2897 1.349 . S
C2896 C2898 1.327 . S
C2896 H2921 0.950 . S
C2897 C2896 1.349 . S
C2897 C2913 1.349 . S
C2898 C2896 1.327 . S
C2898 C2917 1.429 . S
C2898 H2922 0.950 . S
C2899 C2916 1.574 . S
C2899 C2918 1.368 . S
C2899 H2923 0.949 . S
H2900 C2904 0.949 . S
C2901 C2902 1.349 . S
C2901 C2903 1.327 . S
C2901 H2924 0.950 . S
C2902 C2901 1.349 . S
C2902 C2914 1.349 . S
C2903 C2901 1.327 . S
C2903 C2919 1.429 . S
C2903 H2925 0.950 . S
C2904 H2900 0.949 . S
C2904 C2912 1.574 . S
C2904 C2920 1.368 . S
H2905 C2913 0.950 . S
H2906 C2911 0.950 . S
H2907 C2912 0.949 . S
H2908 C2914 0.950 . S
H2909 C2915 0.950 . S
H2910 C2916 0.949 . S
C2911 H2906 0.950 . S
C2911 C2913 1.327 . S
C2911 C2917 1.429 . S
C2912 C2904 1.574 . S
C2912 H2907 0.949 . S
C2912 C2918 1.368 . S
C2913 C2897 1.349 . S
C2913 H2905 0.950 . S
C2913 C2911 1.327 . S
C2914 C2902 1.349 . S
C2914 H2908 0.950 . S
C2914 C2915 1.327 . S
C2915 H2909 0.950 . S
C2915 C2914 1.327 . S
C2915 C2919 1.429 . S
C2916 C2899 1.574 . S
C2916 H2910 0.949 . S
C2916 C2920 1.368 . S
C2917 C2898 1.429 . S
C2917 C2911 1.429 . S
C2917 C2918 1.523 . S
C2918 C2899 1.368 . S
C2918 C2912 1.368 . S
C2918 C2917 1.523 . S
C2919 C2903 1.429 . S
C2919 C2915 1.429 . S
C2919 C2920 1.523 . S
C2920 C2904 1.368 . S
C2920 C2916 1.368 . S
C2920 C2919 1.523 . S
H2921 C2896 0.950 . S
H2922 C2898 0.950 . S
H2923 C2899 0.949 . S
H2924 C2901 0.950 . S
H2925 C2903 0.950 . S
C2926 C2927 1.349 . S
C2926 C2928 1.327 . S
C2926 H2951 0.950 . S
C2927 C2926 1.349 . S
C2927 C2943 1.349 . S
C2928 C2926 1.327 . S
C2928 C2947 1.429 . S
C2928 H2952 0.950 . S
C2929 C2946 1.574 . S
C2929 C2948 1.368 . S
C2929 H2953 0.949 . S
H2930 C2934 0.949 . S
C2931 C2932 1.349 . S
C2931 C2933 1.327 . S
C2931 H2954 0.950 . S
C2932 C2931 1.349 . S
C2932 C2944 1.349 . S
C2933 C2931 1.327 . S
C2933 C2949 1.429 . S
C2933 H2955 0.950 . S
C2934 H2930 0.949 . S
C2934 C2942 1.574 . S
C2934 C2950 1.368 . S
H2935 C2943 0.950 . S
H2936 C2941 0.950 . S
H2937 C2942 0.949 . S
H2938 C2944 0.950 . S
H2939 C2945 0.950 . S
H2940 C2946 0.949 . S
C2941 H2936 0.950 . S
C2941 C2943 1.327 . S
C2941 C2947 1.429 . S
C2942 C2934 1.574 . S
C2942 H2937 0.949 . S
C2942 C2948 1.368 . S
C2943 C2927 1.349 . S
C2943 H2935 0.950 . S
C2943 C2941 1.327 . S
C2944 C2932 1.349 . S
C2944 H2938 0.950 . S
C2944 C2945 1.327 . S
C2945 H2939 0.950 . S
C2945 C2944 1.327 . S
C2945 C2949 1.429 . S
C2946 C2929 1.574 . S
C2946 H2940 0.949 . S
C2946 C2950 1.368 . S
C2947 C2928 1.429 . S
C2947 C2941 1.429 . S
C2947 C2948 1.523 . S
C2948 C2929 1.368 . S
C2948 C2942 1.368 . S
C2948 C2947 1.523 . S
C2949 C2933 1.429 . S
C2949 C2945 1.429 . S
C2949 C2950 1.523 . S
C2950 C2934 1.368 . S
C2950 C2946 1.368 . S
C2950 C2949 1.523 . S
H2951 C2926 0.950 . S
H2952 C2928 0.950 . S
H2953 C2929 0.949 . S
H2954 C2931 0.950 . S
H2955 C2933 0.950 . S
C2956 C2957 1.349 . S
C2956 C2958 1.327 . S
C2956 H2981 0.950 . S
C2957 C2956 1.349 . S
C2957 C2973 1.349 . S
C2958 C2956 1.327 . S
C2958 C2977 1.429 1_545 S
C2958 H2982 0.950 . S
C2959 C2976 1.574 . S
C2959 C2978 1.368 . S
C2959 H2983 0.949 . S
H2960 C2964 0.949 . S
C2961 C2962 1.349 . S
C2961 C2963 1.327 . S
C2961 H2984 0.950 . S
C2962 C2961 1.349 . S
C2962 C2974 1.349 . S
C2963 C2961 1.327 . S
C2963 C2979 1.429 . S
C2963 H2985 0.950 . S
C2964 H2960 0.949 . S
C2964 C2972 1.574 . S
C2964 C2980 1.368 . S
H2965 C2973 0.950 . S
H2966 C2971 0.950 . S
H2967 C2972 0.949 . S
H2968 C2974 0.950 . S
H2969 C2975 0.950 . S
H2970 C2976 0.949 . S
C2971 H2966 0.950 . S
C2971 C2973 1.327 1_565 S
C2971 C2977 1.429 . S
C2972 C2964 1.574 . S
C2972 H2967 0.949 . S
C2972 C2978 1.368 . S
C2973 C2957 1.349 . S
C2973 H2965 0.950 . S
C2973 C2971 1.327 1_545 S
C2974 C2962 1.349 . S
C2974 H2968 0.950 . S
C2974 C2975 1.327 . S
C2975 H2969 0.950 . S
C2975 C2974 1.327 . S
C2975 C2979 1.429 . S
C2976 C2959 1.574 . S
C2976 H2970 0.949 . S
C2976 C2980 1.368 . S
C2977 C2958 1.429 1_565 S
C2977 C2971 1.429 . S
C2977 C2978 1.523 . S
C2978 C2959 1.368 . S
C2978 C2972 1.368 . S
C2978 C2977 1.523 . S
C2979 C2963 1.429 . S
C2979 C2975 1.429 . S
C2979 C2980 1.523 . S
C2980 C2964 1.368 . S
C2980 C2976 1.368 . S
C2980 C2979 1.523 . S
H2981 C2956 0.950 . S
H2982 C2958 0.950 . S
H2983 C2959 0.949 . S
H2984 C2961 0.950 . S
H2985 C2963 0.950 . S
C2986 C2987 1.349 . S
C2986 C2988 1.327 . S
C2986 H3011 0.950 . S
C2987 C2986 1.349 . S
C2987 C3003 1.349 . S
C2988 C2986 1.327 . S
C2988 C3007 1.429 . S
C2988 H3012 0.950 . S
C2989 C3006 1.574 . S
C2989 C3008 1.368 . S
C2989 H3013 0.949 . S
H2990 C2994 0.949 . S
C2991 C2992 1.349 . S
C2991 C2993 1.327 . S
C2991 H3014 0.950 . S
C2992 C2991 1.349 . S
C2992 C3004 1.349 . S
C2993 C2991 1.327 . S
C2993 C3009 1.429 . S
C2993 H3015 0.950 . S
C2994 H2990 0.949 . S
C2994 C3002 1.574 1_545 S
C2994 C3010 1.368 . S
H2995 C3003 0.950 . S
H2996 C3001 0.950 . S
H2997 C3002 0.949 . S
H2998 C3004 0.950 . S
H2999 C3005 0.950 . S
H3000 C3006 0.949 1_545 S
C3001 H2996 0.950 . S
C3001 C3003 1.327 . S
C3001 C3007 1.429 . S
C3002 C2994 1.574 1_565 S
C3002 H2997 0.949 . S
C3002 C3008 1.368 . S
C3003 C2987 1.349 . S
C3003 H2995 0.950 . S
C3003 C3001 1.327 . S
C3004 C2992 1.349 . S
C3004 H2998 0.950 . S
C3004 C3005 1.327 . S
C3005 H2999 0.950 . S
C3005 C3004 1.327 . S
C3005 C3009 1.429 . S
C3006 C2989 1.574 . S
C3006 H3000 0.949 1_565 S
C3006 C3010 1.368 1_565 S
C3007 C2988 1.429 . S
C3007 C3001 1.429 . S
C3007 C3008 1.523 . S
C3008 C2989 1.368 . S
C3008 C3002 1.368 . S
C3008 C3007 1.523 . S
C3009 C2993 1.429 . S
C3009 C3005 1.429 . S
C3009 C3010 1.523 . S
C3010 C2994 1.368 . S
C3010 C3006 1.368 1_545 S
C3010 C3009 1.523 . S
H3011 C2986 0.950 . S
H3012 C2988 0.950 . S
H3013 C2989 0.949 . S
H3014 C2991 0.950 . S
H3015 C2993 0.950 . S
C3016 C3017 1.349 . S
C3016 C3018 1.327 . S
C3016 H3041 0.950 . S
C3017 C3016 1.349 . S
C3017 C3033 1.349 . S
C3018 C3016 1.327 . S
C3018 C3037 1.429 . S
C3018 H3042 0.950 . S
C3019 C3036 1.574 . S
C3019 C3038 1.368 . S
C3019 H3043 0.949 . S
H3020 C3024 0.949 . S
C3021 C3022 1.349 . S
C3021 C3023 1.327 . S
C3021 H3044 0.950 . S
C3022 C3021 1.349 . S
C3022 C3034 1.349 . S
C3023 C3021 1.327 . S
C3023 C3039 1.429 . S
C3023 H3045 0.950 . S
C3024 H3020 0.949 . S
C3024 C3032 1.574 . S
C3024 C3040 1.368 . S
H3025 C3033 0.950 . S
H3026 C3031 0.950 . S
H3027 C3032 0.949 . S
H3028 C3034 0.950 . S
H3029 C3035 0.950 . S
H3030 C3036 0.949 . S
C3031 H3026 0.950 . S
C3031 C3033 1.327 . S
C3031 C3037 1.429 . S
C3032 C3024 1.574 . S
C3032 H3027 0.949 . S
C3032 C3038 1.368 . S
C3033 C3017 1.349 . S
C3033 H3025 0.950 . S
C3033 C3031 1.327 . S
C3034 C3022 1.349 . S
C3034 H3028 0.950 . S
C3034 C3035 1.327 . S
C3035 H3029 0.950 . S
C3035 C3034 1.327 . S
C3035 C3039 1.429 . S
C3036 C3019 1.574 . S
C3036 H3030 0.949 . S
C3036 C3040 1.368 . S
C3037 C3018 1.429 . S
C3037 C3031 1.429 . S
C3037 C3038 1.523 . S
C3038 C3019 1.368 . S
C3038 C3032 1.368 . S
C3038 C3037 1.523 . S
C3039 C3023 1.429 . S
C3039 C3035 1.429 . S
C3039 C3040 1.523 . S
C3040 C3024 1.368 . S
C3040 C3036 1.368 . S
C3040 C3039 1.523 . S
H3041 C3016 0.950 . S
H3042 C3018 0.950 . S
H3043 C3019 0.949 . S
H3044 C3021 0.950 . S
H3045 C3023 0.950 . S
C3046 C3047 1.349 . S
C3046 C3048 1.327 . S
C3046 H3071 0.950 . S
C3047 C3046 1.349 . S
C3047 C3063 1.349 . S
C3048 C3046 1.327 . S
C3048 C3067 1.429 . S
C3048 H3072 0.950 . S
C3049 C3066 1.574 . S
C3049 C3068 1.368 . S
C3049 H3073 0.949 . S
H3050 C3054 0.949 . S
C3051 C3052 1.349 . S
C3051 C3053 1.327 . S
C3051 H3074 0.950 . S
C3052 C3051 1.349 . S
C3052 C3064 1.349 . S
C3053 C3051 1.327 . S
C3053 C3069 1.429 . S
C3053 H3075 0.950 . S
C3054 H3050 0.949 . S
C3054 C3062 1.574 . S
C3054 C3070 1.368 . S
H3055 C3063 0.950 . S
H3056 C3061 0.950 . S
H3057 C3062 0.949 . S
H3058 C3064 0.950 . S
H3059 C3065 0.950 . S
H3060 C3066 0.949 . S
C3061 H3056 0.950 . S
C3061 C3063 1.327 . S
C3061 C3067 1.429 . S
C3062 C3054 1.574 . S
C3062 H3057 0.949 . S
C3062 C3068 1.368 . S
C3063 C3047 1.349 . S
C3063 H3055 0.950 . S
C3063 C3061 1.327 . S
C3064 C3052 1.349 . S
C3064 H3058 0.950 . S
C3064 C3065 1.327 . S
C3065 H3059 0.950 . S
C3065 C3064 1.327 . S
C3065 C3069 1.429 . S
C3066 C3049 1.574 . S
C3066 H3060 0.949 . S
C3066 C3070 1.368 . S
C3067 C3048 1.429 . S
C3067 C3061 1.429 . S
C3067 C3068 1.523 . S
C3068 C3049 1.368 . S
C3068 C3062 1.368 . S
C3068 C3067 1.523 . S
C3069 C3053 1.429 . S
C3069 C3065 1.429 . S
C3069 C3070 1.523 . S
C3070 C3054 1.368 . S
C3070 C3066 1.368 . S
C3070 C3069 1.523 . S
H3071 C3046 0.950 . S
H3072 C3048 0.950 . S
H3073 C3049 0.949 . S
H3074 C3051 0.950 . S
H3075 C3053 0.950 . S
C3076 C3077 1.349 . S
C3076 C3078 1.327 . S
C3076 H3101 0.950 . S
C3077 C3076 1.349 . S
C3077 C3093 1.349 . S
C3078 C3076 1.327 . S
C3078 C3097 1.429 . S
C3078 H3102 0.950 . S
C3079 C3096 1.574 . S
C3079 C3098 1.368 . S
C3079 H3103 0.949 . S
H3080 C3084 0.949 . S
C3081 C3082 1.349 . S
C3081 C3083 1.327 . S
C3081 H3104 0.950 . S
C3082 C3081 1.349 . S
C3082 C3094 1.349 . S
C3083 C3081 1.327 . S
C3083 C3099 1.429 . S
C3083 H3105 0.950 . S
C3084 H3080 0.949 . S
C3084 C3092 1.574 . S
C3084 C3100 1.368 . S
H3085 C3093 0.950 . S
H3086 C3091 0.950 . S
H3087 C3092 0.949 . S
H3088 C3094 0.950 . S
H3089 C3095 0.950 . S
H3090 C3096 0.949 . S
C3091 H3086 0.950 . S
C3091 C3093 1.327 . S
C3091 C3097 1.429 . S
C3092 C3084 1.574 . S
C3092 H3087 0.949 . S
C3092 C3098 1.368 . S
C3093 C3077 1.349 . S
C3093 H3085 0.950 . S
C3093 C3091 1.327 . S
C3094 C3082 1.349 . S
C3094 H3088 0.950 . S
C3094 C3095 1.327 . S
C3095 H3089 0.950 . S
C3095 C3094 1.327 . S
C3095 C3099 1.429 . S
C3096 C3079 1.574 . S
C3096 H3090 0.949 . S
C3096 C3100 1.368 . S
C3097 C3078 1.429 . S
C3097 C3091 1.429 . S
C3097 C3098 1.523 . S
C3098 C3079 1.368 . S
C3098 C3092 1.368 . S
C3098 C3097 1.523 . S
C3099 C3083 1.429 . S
C3099 C3095 1.429 . S
C3099 C3100 1.523 . S
C3100 C3084 1.368 . S
C3100 C3096 1.368 . S
C3100 C3099 1.523 . S
H3101 C3076 0.950 . S
H3102 C3078 0.950 . S
H3103 C3079 0.949 . S
H3104 C3081 0.950 . S
H3105 C3083 0.950 . S
C3106 C3107 1.349 . S
C3106 C3108 1.327 . S
C3106 H3131 0.950 . S
C3107 C3106 1.349 . S
C3107 C3123 1.349 . S
C3108 C3106 1.327 . S
C3108 C3127 1.429 . S
C3108 H3132 0.950 . S
C3109 C3126 1.574 . S
C3109 C3128 1.368 . S
C3109 H3133 0.949 . S
H3110 C3114 0.919 1_565 S
C3111 C3112 1.349 . S
C3111 C3113 1.327 . S
C3111 H3134 0.950 . S
C3112 C3111 1.349 . S
C3112 C3124 1.349 . S
C3113 C3111 1.327 . S
C3113 C3129 1.429 . S
C3113 H3135 0.950 . S
C3114 H3110 0.919 1_545 S
C3114 C3122 1.612 . S
C3114 C3130 1.366 1_545 S
H3115 C3123 0.950 . S
H3116 C3121 0.950 . S
H3117 C3122 0.949 . S
H3118 C3124 0.950 . S
H3119 C3125 0.950 . S
H3120 C3126 0.949 . S
C3121 H3116 0.950 . S
C3121 C3123 1.327 . S
C3121 C3127 1.429 . S
C3122 C3114 1.612 . S
C3122 H3117 0.949 . S
C3122 C3128 1.368 . S
C3123 C3107 1.349 . S
C3123 H3115 0.950 . S
C3123 C3121 1.327 . S
C3124 C3112 1.349 . S
C3124 H3118 0.950 . S
C3124 C3125 1.327 . S
C3125 H3119 0.950 . S
C3125 C3124 1.327 . S
C3125 C3129 1.429 . S
C3126 C3109 1.574 . S
C3126 H3120 0.949 . S
C3126 C3130 1.368 1_545 S
C3127 C3108 1.429 . S
C3127 C3121 1.429 . S
C3127 C3128 1.523 . S
C3128 C3109 1.368 . S
C3128 C3122 1.368 . S
C3128 C3127 1.523 . S
C3129 C3113 1.429 . S
C3129 C3125 1.429 . S
C3129 C3130 1.523 . S
C3130 C3114 1.366 1_565 S
C3130 C3126 1.368 1_565 S
C3130 C3129 1.523 . S
H3131 C3106 0.950 . S
H3132 C3108 0.950 . S
H3133 C3109 0.949 . S
H3134 C3111 0.950 . S
H3135 C3113 0.950 . S
C3136 C3137 1.349 . S
C3136 C3138 1.327 . S
C3136 H3161 0.950 . S
C3137 C3136 1.349 . S
C3137 C3153 1.349 . S
C3138 C3136 1.327 . S
C3138 C3157 1.429 . S
C3138 H3162 0.950 . S
C3139 C3156 1.574 . S
C3139 C3158 1.368 . S
C3139 H3163 0.949 . S
H3140 C3144 0.949 . S
C3141 C3142 1.349 . S
C3141 C3143 1.327 . S
C3141 H3164 0.950 . S
C3142 C3141 1.349 . S
C3142 C3154 1.349 . S
C3143 C3141 1.327 . S
C3143 C3159 1.429 . S
C3143 H3165 0.950 . S
C3144 H3140 0.949 . S
C3144 C3152 1.574 . S
C3144 C3160 1.368 . S
H3145 C3153 0.950 . S
H3146 C3151 0.950 . S
H3147 C3152 0.949 . S
H3148 C3154 0.950 . S
H3149 C3155 0.950 . S
H3150 C3156 0.949 . S
C3151 H3146 0.950 . S
C3151 C3153 1.327 . S
C3151 C3157 1.429 . S
C3152 C3144 1.574 . S
C3152 H3147 0.949 . S
C3152 C3158 1.368 . S
C3153 C3137 1.349 . S
C3153 H3145 0.950 . S
C3153 C3151 1.327 . S
C3154 C3142 1.349 . S
C3154 H3148 0.950 . S
C3154 C3155 1.327 . S
C3155 H3149 0.950 . S
C3155 C3154 1.327 . S
C3155 C3159 1.429 . S
C3156 C3139 1.574 . S
C3156 H3150 0.949 . S
C3156 C3160 1.368 . S
C3157 C3138 1.429 . S
C3157 C3151 1.429 . S
C3157 C3158 1.523 . S
C3158 C3139 1.368 . S
C3158 C3152 1.368 . S
C3158 C3157 1.523 . S
C3159 C3143 1.429 . S
C3159 C3155 1.429 . S
C3159 C3160 1.523 . S
C3160 C3144 1.368 . S
C3160 C3156 1.368 . S
C3160 C3159 1.523 . S
H3161 C3136 0.950 . S
H3162 C3138 0.950 . S
H3163 C3139 0.949 . S
H3164 C3141 0.950 . S
H3165 C3143 0.950 . S
C3166 C3167 1.349 . S
C3166 C3168 1.327 . S
C3166 H3191 0.950 . S
C3167 C3166 1.349 . S
C3167 C3183 1.349 . S
C3168 C3166 1.327 . S
C3168 C3187 1.429 . S
C3168 H3192 0.950 . S
C3169 C3186 1.574 . S
C3169 C3188 1.368 . S
C3169 H3193 0.949 . S
H3170 C3174 0.949 . S
C3171 C3172 1.349 . S
C3171 C3173 1.327 . S
C3171 H3194 0.950 . S
C3172 C3171 1.349 . S
C3172 C3184 1.349 . S
C3173 C3171 1.327 . S
C3173 C3189 1.429 . S
C3173 H3195 0.950 . S
C3174 H3170 0.949 . S
C3174 C3182 1.574 . S
C3174 C3190 1.368 . S
H3175 C3183 0.950 . S
H3176 C3181 0.950 . S
H3177 C3182 0.949 . S
H3178 C3184 0.950 . S
H3179 C3185 0.950 . S
H3180 C3186 0.949 . S
C3181 H3176 0.950 . S
C3181 C3183 1.327 . S
C3181 C3187 1.429 . S
C3182 C3174 1.574 . S
C3182 H3177 0.949 . S
C3182 C3188 1.368 . S
C3183 C3167 1.349 . S
C3183 H3175 0.950 . S
C3183 C3181 1.327 . S
C3184 C3172 1.349 . S
C3184 H3178 0.950 . S
C3184 C3185 1.327 . S
C3185 H3179 0.950 . S
C3185 C3184 1.327 . S
C3185 C3189 1.429 . S
C3186 C3169 1.574 . S
C3186 H3180 0.949 . S
C3186 C3190 1.368 . S
C3187 C3168 1.429 . S
C3187 C3181 1.429 . S
C3187 C3188 1.523 . S
C3188 C3169 1.368 . S
C3188 C3182 1.368 . S
C3188 C3187 1.523 . S
C3189 C3173 1.429 . S
C3189 C3185 1.429 . S
C3189 C3190 1.523 . S
C3190 C3174 1.368 . S
C3190 C3186 1.368 . S
C3190 C3189 1.523 . S
H3191 C3166 0.950 . S
H3192 C3168 0.950 . S
H3193 C3169 0.949 . S
H3194 C3171 0.950 . S
H3195 C3173 0.950 . S
C3196 C3197 1.349 . S
C3196 C3198 1.327 . S
C3196 H3221 0.950 . S
C3197 C3196 1.349 . S
C3197 C3213 1.349 . S
C3198 C3196 1.327 . S
C3198 C3217 1.429 . S
C3198 H3222 0.950 . S
C3199 C3216 1.574 . S
C3199 C3218 1.368 . S
C3199 H3223 0.949 . S
H3200 C3204 0.949 . S
C3201 C3202 1.349 . S
C3201 C3203 1.327 . S
C3201 H3224 0.950 . S
C3202 C3201 1.349 . S
C3202 C3214 1.349 . S
C3203 C3201 1.327 . S
C3203 C3219 1.429 . S
C3203 H3225 0.950 . S
C3204 H3200 0.949 . S
C3204 C3212 1.574 . S
C3204 C3220 1.368 . S
H3205 C3213 0.950 . S
H3206 C3211 0.950 . S
H3207 C3212 0.949 . S
H3208 C3214 0.950 . S
H3209 C3215 0.950 . S
H3210 C3216 0.949 . S
C3211 H3206 0.950 . S
C3211 C3213 1.327 . S
C3211 C3217 1.429 . S
C3212 C3204 1.574 . S
C3212 H3207 0.949 . S
C3212 C3218 1.368 . S
C3213 C3197 1.349 . S
C3213 H3205 0.950 . S
C3213 C3211 1.327 . S
C3214 C3202 1.349 . S
C3214 H3208 0.950 . S
C3214 C3215 1.327 . S
C3215 H3209 0.950 . S
C3215 C3214 1.327 . S
C3215 C3219 1.429 . S
C3216 C3199 1.574 . S
C3216 H3210 0.949 . S
C3216 C3220 1.368 . S
C3217 C3198 1.429 . S
C3217 C3211 1.429 . S
C3217 C3218 1.523 . S
C3218 C3199 1.368 . S
C3218 C3212 1.368 . S
C3218 C3217 1.523 . S
C3219 C3203 1.429 . S
C3219 C3215 1.429 . S
C3219 C3220 1.523 . S
C3220 C3204 1.368 . S
C3220 C3216 1.368 . S
C3220 C3219 1.523 . S
H3221 C3196 0.950 . S
H3222 C3198 0.950 . S
H3223 C3199 0.949 . S
H3224 C3201 0.950 . S
H3225 C3203 0.950 . S
C3226 C3227 1.349 . S
C3226 C3228 1.327 . S
C3226 H3251 0.950 . S
C3227 C3226 1.349 . S
C3227 C3243 1.349 . S
C3228 C3226 1.327 . S
C3228 C3247 1.429 . S
C3228 H3252 0.950 . S
C3229 C3246 1.574 . S
C3229 C3248 1.368 . S
C3229 H3253 0.949 . S
H3230 C3234 0.949 . S
C3231 C3232 1.349 . S
C3231 C3233 1.327 . S
C3231 H3254 0.950 . S
C3232 C3231 1.349 . S
C3232 C3244 1.349 . S
C3233 C3231 1.327 . S
C3233 C3249 1.429 . S
C3233 H3255 0.950 . S
C3234 H3230 0.949 . S
C3234 C3242 1.574 . S
C3234 C3250 1.368 . S
H3235 C3243 0.950 . S
H3236 C3241 0.950 . S
H3237 C3242 0.949 . S
H3238 C3244 0.950 . S
H3239 C3245 0.950 . S
H3240 C3246 0.949 . S
C3241 H3236 0.950 . S
C3241 C3243 1.327 . S
C3241 C3247 1.429 . S
C3242 C3234 1.574 . S
C3242 H3237 0.949 . S
C3242 C3248 1.368 . S
C3243 C3227 1.349 . S
C3243 H3235 0.950 . S
C3243 C3241 1.327 . S
C3244 C3232 1.349 . S
C3244 H3238 0.950 . S
C3244 C3245 1.327 . S
C3245 H3239 0.950 . S
C3245 C3244 1.327 . S
C3245 C3249 1.429 . S
C3246 C3229 1.574 . S
C3246 H3240 0.949 . S
C3246 C3250 1.368 . S
C3247 C3228 1.429 . S
C3247 C3241 1.429 . S
C3247 C3248 1.523 . S
C3248 C3229 1.368 . S
C3248 C3242 1.368 . S
C3248 C3247 1.523 . S
C3249 C3233 1.429 . S
C3249 C3245 1.429 . S
C3249 C3250 1.523 . S
C3250 C3234 1.368 . S
C3250 C3246 1.368 . S
C3250 C3249 1.523 . S
H3251 C3226 0.950 . S
H3252 C3228 0.950 . S
H3253 C3229 0.949 . S
H3254 C3231 0.950 . S
H3255 C3233 0.950 . S
C3256 C3257 1.349 . S
C3256 C3258 1.327 . S
C3256 H3281 0.950 . S
C3257 C3256 1.349 . S
C3257 C3273 1.349 . S
C3258 C3256 1.327 . S
C3258 C3277 1.429 . S
C3258 H3282 0.950 . S
C3259 C3276 1.574 . S
C3259 C3278 1.368 . S
C3259 H3283 0.949 . S
H3260 C3264 0.949 . S
C3261 C3262 1.349 . S
C3261 C3263 1.327 . S
C3261 H3284 0.950 . S
C3262 C3261 1.349 . S
C3262 C3274 1.349 1_554 S
C3263 C3261 1.327 . S
C3263 C3279 1.429 1_554 S
C3263 H3285 0.950 . S
C3264 H3260 0.949 . S
C3264 C3272 1.574 . S
C3264 C3280 1.368 . S
H3265 C3273 0.950 . S
H3266 C3271 0.950 . S
H3267 C3272 0.949 . S
H3268 C3274 0.950 . S
H3269 C3275 0.950 . S
H3270 C3276 0.956 1_554 S
C3271 H3266 0.950 . S
C3271 C3273 1.327 . S
C3271 C3277 1.429 . S
C3272 C3264 1.574 . S
C3272 H3267 0.949 . S
C3272 C3278 1.368 . S
C3273 C3257 1.349 . S
C3273 H3265 0.950 . S
C3273 C3271 1.327 . S
C3274 C3262 1.349 1_556 S
C3274 H3268 0.950 . S
C3274 C3275 1.327 . S
C3275 H3269 0.950 . S
C3275 C3274 1.327 . S
C3275 C3279 1.429 . S
C3276 C3259 1.574 . S
C3276 H3270 0.956 1_556 S
C3276 C3280 1.368 . S
C3277 C3258 1.429 . S
C3277 C3271 1.429 . S
C3277 C3278 1.523 . S
C3278 C3259 1.368 . S
C3278 C3272 1.368 . S
C3278 C3277 1.523 . S
C3279 C3263 1.429 1_556 S
C3279 C3275 1.429 . S
C3279 C3280 1.523 . S
C3280 C3264 1.368 . S
C3280 C3276 1.368 . S
C3280 C3279 1.523 . S
H3281 C3256 0.950 . S
H3282 C3258 0.950 . S
H3283 C3259 0.949 . S
H3284 C3261 0.950 . S
H3285 C3263 0.950 . S
C3286 C3287 1.349 . S
C3286 C3288 1.327 . S
C3286 H3311 0.950 . S
C3287 C3286 1.349 . S
C3287 C3303 1.349 . S
C3288 C3286 1.327 . S
C3288 C3307 1.429 . S
C3288 H3312 0.950 . S
C3289 C3306 1.574 . S
C3289 C3308 1.368 . S
C3289 H3313 0.949 . S
H3290 C3294 0.949 . S
C3291 C3292 1.349 . S
C3291 C3293 1.327 . S
C3291 H3314 0.950 . S
C3292 C3291 1.349 . S
C3292 C3304 1.349 . S
C3293 C3291 1.327 . S
C3293 C3309 1.429 . S
C3293 H3315 0.950 . S
C3294 H3290 0.949 . S
C3294 C3302 1.574 . S
C3294 C3310 1.368 . S
H3295 C3303 0.950 . S
H3296 C3301 0.950 . S
H3297 C3302 0.949 . S
H3298 C3304 0.950 . S
H3299 C3305 0.950 . S
H3300 C3306 0.949 . S
C3301 H3296 0.950 . S
C3301 C3303 1.327 . S
C3301 C3307 1.429 . S
C3302 C3294 1.574 . S
C3302 H3297 0.949 . S
C3302 C3308 1.368 . S
C3303 C3287 1.349 . S
C3303 H3295 0.950 . S
C3303 C3301 1.327 . S
C3304 C3292 1.349 . S
C3304 H3298 0.950 . S
C3304 C3305 1.327 . S
C3305 H3299 0.950 . S
C3305 C3304 1.327 . S
C3305 C3309 1.429 . S
C3306 C3289 1.574 . S
C3306 H3300 0.949 . S
C3306 C3310 1.368 . S
C3307 C3288 1.429 . S
C3307 C3301 1.429 . S
C3307 C3308 1.523 . S
C3308 C3289 1.368 . S
C3308 C3302 1.368 . S
C3308 C3307 1.523 . S
C3309 C3293 1.429 . S
C3309 C3305 1.429 . S
C3309 C3310 1.523 . S
C3310 C3294 1.368 . S
C3310 C3306 1.368 . S
C3310 C3309 1.523 . S
H3311 C3286 0.950 . S
H3312 C3288 0.950 . S
H3313 C3289 0.949 . S
H3314 C3291 0.950 . S
H3315 C3293 0.950 . S
C3316 C3317 1.349 . S
C3316 C3318 1.327 . S
C3316 H3341 0.950 . S
C3317 C3316 1.349 . S
C3317 C3333 1.349 . S
C3318 C3316 1.327 . S
C3318 C3337 1.429 . S
C3318 H3342 0.950 . S
C3319 C3336 1.574 . S
C3319 C3338 1.368 . S
C3319 H3343 0.949 . S
H3320 C3324 0.949 . S
C3321 C3322 1.349 . S
C3321 C3323 1.327 . S
C3321 H3344 0.950 . S
C3322 C3321 1.349 . S
C3322 C3334 1.349 . S
C3323 C3321 1.327 . S
C3323 C3339 1.429 . S
C3323 H3345 0.950 . S
C3324 H3320 0.949 . S
C3324 C3332 1.574 . S
C3324 C3340 1.368 . S
H3325 C3333 0.950 1_655 S
H3326 C3331 0.981 . S
H3327 C3332 0.949 . S
H3328 C3334 0.950 . S
H3329 C3335 0.950 . S
H3330 C3336 0.949 . S
C3331 H3326 0.981 . S
C3331 C3333 1.327 . S
C3331 C3337 1.429 . S
C3332 C3324 1.574 . S
C3332 H3327 0.949 . S
C3332 C3338 1.368 . S
C3333 C3317 1.349 . S
C3333 H3325 0.950 1_455 S
C3333 C3331 1.327 . S
C3334 C3322 1.349 . S
C3334 H3328 0.950 . S
C3334 C3335 1.327 . S
C3335 H3329 0.950 . S
C3335 C3334 1.327 . S
C3335 C3339 1.429 . S
C3336 C3319 1.574 . S
C3336 H3330 0.949 . S
C3336 C3340 1.368 . S
C3337 C3318 1.429 . S
C3337 C3331 1.429 . S
C3337 C3338 1.523 . S
C3338 C3319 1.368 . S
C3338 C3332 1.368 . S
C3338 C3337 1.523 . S
C3339 C3323 1.429 . S
C3339 C3335 1.429 . S
C3339 C3340 1.523 . S
C3340 C3324 1.368 . S
C3340 C3336 1.368 . S
C3340 C3339 1.523 . S
H3341 C3316 0.950 . S
H3342 C3318 0.950 . S
H3343 C3319 0.949 . S
H3344 C3321 0.950 . S
H3345 C3323 0.950 . S
C3346 C3347 1.349 . S
C3346 C3348 1.327 . S
C3346 H3371 0.950 . S
C3347 C3346 1.349 . S
C3347 C3363 1.349 . S
C3348 C3346 1.327 . S
C3348 C3367 1.429 . S
C3348 H3372 0.950 . S
C3349 C3366 1.574 . S
C3349 C3368 1.368 . S
C3349 H3373 0.949 . S
H3350 C3354 0.949 . S
C3351 C3352 1.349 . S
C3351 C3353 1.327 . S
C3351 H3374 0.950 . S
C3352 C3351 1.349 . S
C3352 C3364 1.349 . S
C3353 C3351 1.327 . S
C3353 C3369 1.429 . S
C3353 H3375 0.950 . S
C3354 H3350 0.949 . S
C3354 C3362 1.574 . S
C3354 C3370 1.368 . S
H3355 C3363 0.950 . S
H3356 C3361 0.950 . S
H3357 C3362 0.949 . S
H3358 C3364 0.950 . S
H3359 C3365 0.950 . S
H3360 C3366 0.949 . S
C3361 H3356 0.950 . S
C3361 C3363 1.327 . S
C3361 C3367 1.429 . S
C3362 C3354 1.574 . S
C3362 H3357 0.949 . S
C3362 C3368 1.368 . S
C3363 C3347 1.349 . S
C3363 H3355 0.950 . S
C3363 C3361 1.327 . S
C3364 C3352 1.349 . S
C3364 H3358 0.950 . S
C3364 C3365 1.327 . S
C3365 H3359 0.950 . S
C3365 C3364 1.327 . S
C3365 C3369 1.429 . S
C3366 C3349 1.574 . S
C3366 H3360 0.949 . S
C3366 C3370 1.368 . S
C3367 C3348 1.429 . S
C3367 C3361 1.429 . S
C3367 C3368 1.523 . S
C3368 C3349 1.368 . S
C3368 C3362 1.368 . S
C3368 C3367 1.523 . S
C3369 C3353 1.429 . S
C3369 C3365 1.429 . S
C3369 C3370 1.523 . S
C3370 C3354 1.368 . S
C3370 C3366 1.368 . S
C3370 C3369 1.523 . S
H3371 C3346 0.950 . S
H3372 C3348 0.950 . S
H3373 C3349 0.949 . S
H3374 C3351 0.950 . S
H3375 C3353 0.950 . S
C3376 C3377 1.349 . S
C3376 C3378 1.327 . S
C3376 H3401 0.950 . S
C3377 C3376 1.349 . S
C3377 C3393 1.349 . S
C3378 C3376 1.327 . S
C3378 C3397 1.429 . S
C3378 H3402 0.950 . S
C3379 C3396 1.574 . S
C3379 C3398 1.368 . S
C3379 H3403 0.949 . S
H3380 C3384 0.949 . S
C3381 C3382 1.349 . S
C3381 C3383 1.327 . S
C3381 H3404 0.950 . S
C3382 C3381 1.349 . S
C3382 C3394 1.349 . S
C3383 C3381 1.327 . S
C3383 C3399 1.429 . S
C3383 H3405 0.950 . S
C3384 H3380 0.949 . S
C3384 C3392 1.574 . S
C3384 C3400 1.368 . S
H3385 C3393 0.950 . S
H3386 C3391 0.950 . S
H3387 C3392 0.949 . S
H3388 C3394 0.950 . S
H3389 C3395 0.950 . S
H3390 C3396 0.949 . S
C3391 H3386 0.950 . S
C3391 C3393 1.327 . S
C3391 C3397 1.429 . S
C3392 C3384 1.574 . S
C3392 H3387 0.949 . S
C3392 C3398 1.368 . S
C3393 C3377 1.349 . S
C3393 H3385 0.950 . S
C3393 C3391 1.327 . S
C3394 C3382 1.349 . S
C3394 H3388 0.950 . S
C3394 C3395 1.327 . S
C3395 H3389 0.950 . S
C3395 C3394 1.327 . S
C3395 C3399 1.429 . S
C3396 C3379 1.574 . S
C3396 H3390 0.949 . S
C3396 C3400 1.368 . S
C3397 C3378 1.429 . S
C3397 C3391 1.429 . S
C3397 C3398 1.523 . S
C3398 C3379 1.368 . S
C3398 C3392 1.368 . S
C3398 C3397 1.523 . S
C3399 C3383 1.429 . S
C3399 C3395 1.429 . S
C3399 C3400 1.523 . S
C3400 C3384 1.368 . S
C3400 C3396 1.368 . S
C3400 C3399 1.523 . S
H3401 C3376 0.950 . S
H3402 C3378 0.950 . S
H3403 C3379 0.949 . S
H3404 C3381 0.950 . S
H3405 C3383 0.950 . S
C3406 C3407 1.349 . S
C3406 C3408 1.327 . S
C3406 H3431 0.950 . S
C3407 C3406 1.349 . S
C3407 C3423 1.349 . S
C3408 C3406 1.327 . S
C3408 C3427 1.429 . S
C3408 H3432 0.950 . S
C3409 C3426 1.574 . S
C3409 C3428 1.368 . S
C3409 H3433 0.949 . S
H3410 C3414 0.949 . S
C3411 C3412 1.349 . S
C3411 C3413 1.327 . S
C3411 H3434 0.950 . S
C3412 C3411 1.349 . S
C3412 C3424 1.349 . S
C3413 C3411 1.327 . S
C3413 C3429 1.429 . S
C3413 H3435 0.950 . S
C3414 H3410 0.949 . S
C3414 C3422 1.574 . S
C3414 C3430 1.368 . S
H3415 C3423 0.950 . S
H3416 C3421 0.950 . S
H3417 C3422 0.949 . S
H3418 C3424 0.950 . S
H3419 C3425 0.950 . S
H3420 C3426 0.949 . S
C3421 H3416 0.950 . S
C3421 C3423 1.327 . S
C3421 C3427 1.429 . S
C3422 C3414 1.574 . S
C3422 H3417 0.949 . S
C3422 C3428 1.368 . S
C3423 C3407 1.349 . S
C3423 H3415 0.950 . S
C3423 C3421 1.327 . S
C3424 C3412 1.349 . S
C3424 H3418 0.950 . S
C3424 C3425 1.327 . S
C3425 H3419 0.950 . S
C3425 C3424 1.327 . S
C3425 C3429 1.429 . S
C3426 C3409 1.574 . S
C3426 H3420 0.949 . S
C3426 C3430 1.368 . S
C3427 C3408 1.429 . S
C3427 C3421 1.429 . S
C3427 C3428 1.523 . S
C3428 C3409 1.368 . S
C3428 C3422 1.368 . S
C3428 C3427 1.523 . S
C3429 C3413 1.429 . S
C3429 C3425 1.429 . S
C3429 C3430 1.523 . S
C3430 C3414 1.368 . S
C3430 C3426 1.368 . S
C3430 C3429 1.523 . S
H3431 C3406 0.950 . S
H3432 C3408 0.950 . S
H3433 C3409 0.949 . S
H3434 C3411 0.950 . S
H3435 C3413 0.950 . S
C3436 C3437 1.349 . S
C3436 C3438 1.327 . S
C3436 H3461 0.950 . S
C3437 C3436 1.349 . S
C3437 C3453 1.349 . S
C3438 C3436 1.327 . S
C3438 C3457 1.429 . S
C3438 H3462 0.950 . S
C3439 C3456 1.552 1_655 S
C3439 C3458 1.413 . S
C3439 H3463 0.926 1_655 S
H3440 C3444 0.949 . S
C3441 C3442 1.349 1_556 S
C3441 C3443 1.327 . S
C3441 H3464 0.950 . S
C3442 C3441 1.349 1_554 S
C3442 C3454 1.349 . S
C3443 C3441 1.327 . S
C3443 C3459 1.429 . S
C3443 H3465 0.950 . S
C3444 H3440 0.949 . S
C3444 C3452 1.574 . S
C3444 C3460 1.368 1_655 S
H3445 C3453 0.950 . S
H3446 C3451 0.950 . S
H3447 C3452 0.949 . S
H3448 C3454 0.950 . S
H3449 C3455 0.950 . S
H3450 C3456 0.949 . S
C3451 H3446 0.950 . S
C3451 C3453 1.327 . S
C3451 C3457 1.429 . S
C3452 C3444 1.574 . S
C3452 H3447 0.949 . S
C3452 C3458 1.368 . S
C3453 C3437 1.349 . S
C3453 H3445 0.950 . S
C3453 C3451 1.327 . S
C3454 C3442 1.349 . S
C3454 H3448 0.950 . S
C3454 C3455 1.327 1_554 S
C3455 H3449 0.950 . S
C3455 C3454 1.327 1_556 S
C3455 C3459 1.429 . S
C3456 C3439 1.552 1_455 S
C3456 H3450 0.949 . S
C3456 C3460 1.368 . S
C3457 C3438 1.429 . S
C3457 C3451 1.429 . S
C3457 C3458 1.523 . S
C3458 C3439 1.413 . S
C3458 C3452 1.368 . S
C3458 C3457 1.523 . S
C3459 C3443 1.429 . S
C3459 C3455 1.429 . S
C3459 C3460 1.523 . S
C3460 C3444 1.368 1_455 S
C3460 C3456 1.368 . S
C3460 C3459 1.523 . S
H3461 C3436 0.950 . S
H3462 C3438 0.950 . S
H3463 C3439 0.926 1_455 S
H3464 C3441 0.950 . S
H3465 C3443 0.950 . S
C3466 C3467 1.349 . S
C3466 C3468 1.327 . S
C3466 H3491 0.950 . S
C3467 C3466 1.349 . S
C3467 C3483 1.349 . S
C3468 C3466 1.327 . S
C3468 C3487 1.429 . S
C3468 H3492 0.950 . S
C3469 C3486 1.574 . S
C3469 C3488 1.368 . S
C3469 H3493 0.949 . S
H3470 C3474 0.949 . S
C3471 C3472 1.349 . S
C3471 C3473 1.327 . S
C3471 H3494 0.950 . S
C3472 C3471 1.349 . S
C3472 C3484 1.349 . S
C3473 C3471 1.327 . S
C3473 C3489 1.429 . S
C3473 H3495 0.950 . S
C3474 H3470 0.949 . S
C3474 C3482 1.574 . S
C3474 C3490 1.368 . S
H3475 C3483 0.950 . S
H3476 C3481 0.950 . S
H3477 C3482 0.949 . S
H3478 C3484 0.950 . S
H3479 C3485 0.950 . S
H3480 C3486 0.949 . S
C3481 H3476 0.950 . S
C3481 C3483 1.327 . S
C3481 C3487 1.429 . S
C3482 C3474 1.574 . S
C3482 H3477 0.949 . S
C3482 C3488 1.368 . S
C3483 C3467 1.349 . S
C3483 H3475 0.950 . S
C3483 C3481 1.327 . S
C3484 C3472 1.349 . S
C3484 H3478 0.950 . S
C3484 C3485 1.327 . S
C3485 H3479 0.950 . S
C3485 C3484 1.327 . S
C3485 C3489 1.429 . S
C3486 C3469 1.574 . S
C3486 H3480 0.949 . S
C3486 C3490 1.368 . S
C3487 C3468 1.429 . S
C3487 C3481 1.429 . S
C3487 C3488 1.523 . S
C3488 C3469 1.368 . S
C3488 C3482 1.368 . S
C3488 C3487 1.523 . S
C3489 C3473 1.429 . S
C3489 C3485 1.429 . S
C3489 C3490 1.523 . S
C3490 C3474 1.368 . S
C3490 C3486 1.368 . S
C3490 C3489 1.523 . S
H3491 C3466 0.950 . S
H3492 C3468 0.950 . S
H3493 C3469 0.949 . S
H3494 C3471 0.950 . S
H3495 C3473 0.950 . S
C3496 C3497 1.349 . S
C3496 C3498 1.327 . S
C3496 H3521 0.950 . S
C3497 C3496 1.349 . S
C3497 C3513 1.349 . S
C3498 C3496 1.327 . S
C3498 C3517 1.429 . S
C3498 H3522 0.950 . S
C3499 C3516 1.574 . S
C3499 C3518 1.368 . S
C3499 H3523 0.949 . S
H3500 C3504 0.949 . S
C3501 C3502 1.349 . S
C3501 C3503 1.327 . S
C3501 H3524 0.950 . S
C3502 C3501 1.349 . S
C3502 C3514 1.349 . S
C3503 C3501 1.327 . S
C3503 C3519 1.429 . S
C3503 H3525 0.950 . S
C3504 H3500 0.949 . S
C3504 C3512 1.574 . S
C3504 C3520 1.368 . S
H3505 C3513 0.950 . S
H3506 C3511 0.950 . S
H3507 C3512 0.949 . S
H3508 C3514 0.950 . S
H3509 C3515 0.950 . S
H3510 C3516 0.949 . S
C3511 H3506 0.950 . S
C3511 C3513 1.327 . S
C3511 C3517 1.429 . S
C3512 C3504 1.574 . S
C3512 H3507 0.949 . S
C3512 C3518 1.368 . S
C3513 C3497 1.349 . S
C3513 H3505 0.950 . S
C3513 C3511 1.327 . S
C3514 C3502 1.349 . S
C3514 H3508 0.950 . S
C3514 C3515 1.327 . S
C3515 H3509 0.950 . S
C3515 C3514 1.327 . S
C3515 C3519 1.429 . S
C3516 C3499 1.574 . S
C3516 H3510 0.949 . S
C3516 C3520 1.368 . S
C3517 C3498 1.429 . S
C3517 C3511 1.429 . S
C3517 C3518 1.523 . S
C3518 C3499 1.368 . S
C3518 C3512 1.368 . S
C3518 C3517 1.523 . S
C3519 C3503 1.429 . S
C3519 C3515 1.429 . S
C3519 C3520 1.523 . S
C3520 C3504 1.368 . S
C3520 C3516 1.368 . S
C3520 C3519 1.523 . S
H3521 C3496 0.950 . S
H3522 C3498 0.950 . S
H3523 C3499 0.949 . S
H3524 C3501 0.950 . S
H3525 C3503 0.950 . S
C3526 C3527 1.349 . S
C3526 C3528 1.327 . S
C3526 H3551 0.950 . S
C3527 C3526 1.349 . S
C3527 C3543 1.349 . S
C3528 C3526 1.327 . S
C3528 C3547 1.429 . S
C3528 H3552 0.950 . S
C3529 C3546 1.574 . S
C3529 C3548 1.368 . S
C3529 H3553 0.949 . S
H3530 C3534 0.949 . S
C3531 C3532 1.349 . S
C3531 C3533 1.327 . S
C3531 H3554 0.950 . S
C3532 C3531 1.349 . S
C3532 C3544 1.349 . S
C3533 C3531 1.327 . S
C3533 C3549 1.429 . S
C3533 H3555 0.950 . S
C3534 H3530 0.949 . S
C3534 C3542 1.574 . S
C3534 C3550 1.368 . S
H3535 C3543 0.950 . S
H3536 C3541 0.950 . S
H3537 C3542 0.949 . S
H3538 C3544 0.950 . S
H3539 C3545 0.950 . S
H3540 C3546 0.949 . S
C3541 H3536 0.950 . S
C3541 C3543 1.327 . S
C3541 C3547 1.429 . S
C3542 C3534 1.574 . S
C3542 H3537 0.949 . S
C3542 C3548 1.368 . S
C3543 C3527 1.349 . S
C3543 H3535 0.950 . S
C3543 C3541 1.327 . S
C3544 C3532 1.349 . S
C3544 H3538 0.950 . S
C3544 C3545 1.327 . S
C3545 H3539 0.950 . S
C3545 C3544 1.327 . S
C3545 C3549 1.429 . S
C3546 C3529 1.574 . S
C3546 H3540 0.949 . S
C3546 C3550 1.368 . S
C3547 C3528 1.429 . S
C3547 C3541 1.429 . S
C3547 C3548 1.523 . S
C3548 C3529 1.368 . S
C3548 C3542 1.368 . S
C3548 C3547 1.523 . S
C3549 C3533 1.429 . S
C3549 C3545 1.429 . S
C3549 C3550 1.523 . S
C3550 C3534 1.368 . S
C3550 C3546 1.368 . S
C3550 C3549 1.523 . S
H3551 C3526 0.950 . S
H3552 C3528 0.950 . S
H3553 C3529 0.949 . S
H3554 C3531 0.950 . S
H3555 C3533 0.950 . S
C3556 C3557 1.349 . S
C3556 C3558 1.327 . S
C3556 H3581 0.950 . S
C3557 C3556 1.349 . S
C3557 C3573 1.349 . S
C3558 C3556 1.327 . S
C3558 C3577 1.429 . S
C3558 H3582 0.950 . S
C3559 C3576 1.574 . S
C3559 C3578 1.368 . S
C3559 H3583 0.949 . S
H3560 C3564 0.965 . S
C3561 C3562 1.349 . S
C3561 C3563 1.327 . S
C3561 H3584 0.950 . S
C3562 C3561 1.349 . S
C3562 C3574 1.349 1_655 S
C3563 C3561 1.327 . S
C3563 C3579 1.429 . S
C3563 H3585 0.950 . S
C3564 H3560 0.965 . S
C3564 C3572 1.574 . S
C3564 C3580 1.368 . S
H3565 C3573 0.950 . S
H3566 C3571 0.950 . S
H3567 C3572 0.949 . S
H3568 C3574 0.950 . S
H3569 C3575 0.950 1_455 S
H3570 C3576 0.949 . S
C3571 H3566 0.950 . S
C3571 C3573 1.327 . S
C3571 C3577 1.429 . S
C3572 C3564 1.574 . S
C3572 H3567 0.949 . S
C3572 C3578 1.368 . S
C3573 C3557 1.349 . S
C3573 H3565 0.950 . S
C3573 C3571 1.327 . S
C3574 C3562 1.349 1_455 S
C3574 H3568 0.950 . S
C3574 C3575 1.327 1_455 S
C3575 H3569 0.950 1_655 S
C3575 C3574 1.327 1_655 S
C3575 C3579 1.429 . S
C3576 C3559 1.574 . S
C3576 H3570 0.949 . S
C3576 C3580 1.368 . S
C3577 C3558 1.429 . S
C3577 C3571 1.429 . S
C3577 C3578 1.523 . S
C3578 C3559 1.368 . S
C3578 C3572 1.368 . S
C3578 C3577 1.523 . S
C3579 C3563 1.429 . S
C3579 C3575 1.429 . S
C3579 C3580 1.523 . S
C3580 C3564 1.368 . S
C3580 C3576 1.368 . S
C3580 C3579 1.523 . S
H3581 C3556 0.950 . S
H3582 C3558 0.950 . S
H3583 C3559 0.949 . S
H3584 C3561 0.950 . S
H3585 C3563 0.950 . S
C3586 C3587 1.349 . S
C3586 C3588 1.327 . S
C3586 H3611 0.950 . S
C3587 C3586 1.349 . S
C3587 C3603 1.349 . S
C3588 C3586 1.327 . S
C3588 C3607 1.429 . S
C3588 H3612 0.950 . S
C3589 C3606 1.574 . S
C3589 C3608 1.368 . S
C3589 H3613 0.949 . S
H3590 C3594 0.949 . S
C3591 C3592 1.349 . S
C3591 C3593 1.327 . S
C3591 H3614 0.950 . S
C3592 C3591 1.349 . S
C3592 C3604 1.349 . S
C3593 C3591 1.327 . S
C3593 C3609 1.429 . S
C3593 H3615 0.950 . S
C3594 H3590 0.949 . S
C3594 C3602 1.574 . S
C3594 C3610 1.368 . S
H3595 C3603 0.950 . S
H3596 C3601 0.950 . S
H3597 C3602 0.949 . S
H3598 C3604 0.950 . S
H3599 C3605 0.950 . S
H3600 C3606 0.949 . S
C3601 H3596 0.950 . S
C3601 C3603 1.327 . S
C3601 C3607 1.429 . S
C3602 C3594 1.574 . S
C3602 H3597 0.949 . S
C3602 C3608 1.368 . S
C3603 C3587 1.349 . S
C3603 H3595 0.950 . S
C3603 C3601 1.327 . S
C3604 C3592 1.349 . S
C3604 H3598 0.950 . S
C3604 C3605 1.327 . S
C3605 H3599 0.950 . S
C3605 C3604 1.327 . S
C3605 C3609 1.429 . S
C3606 C3589 1.574 . S
C3606 H3600 0.949 . S
C3606 C3610 1.368 . S
C3607 C3588 1.429 . S
C3607 C3601 1.429 . S
C3607 C3608 1.523 . S
C3608 C3589 1.368 . S
C3608 C3602 1.368 . S
C3608 C3607 1.523 . S
C3609 C3593 1.429 . S
C3609 C3605 1.429 . S
C3609 C3610 1.523 . S
C3610 C3594 1.368 . S
C3610 C3606 1.368 . S
C3610 C3609 1.523 . S
H3611 C3586 0.950 . S
H3612 C3588 0.950 . S
H3613 C3589 0.949 . S
H3614 C3591 0.950 . S
H3615 C3593 0.950 . S
C3616 C3617 1.349 . S
C3616 C3618 1.327 . S
C3616 H3641 0.950 . S
C3617 C3616 1.349 . S
C3617 C3633 1.349 . S
C3618 C3616 1.327 . S
C3618 C3637 1.429 . S
C3618 H3642 0.950 . S
C3619 C3636 1.574 . S
C3619 C3638 1.368 . S
C3619 H3643 0.949 . S
H3620 C3624 0.949 . S
C3621 C3622 1.349 . S
C3621 C3623 1.327 . S
C3621 H3644 0.950 . S
C3622 C3621 1.349 . S
C3622 C3634 1.349 . S
C3623 C3621 1.327 . S
C3623 C3639 1.429 . S
C3623 H3645 0.950 . S
C3624 H3620 0.949 . S
C3624 C3632 1.574 . S
C3624 C3640 1.368 . S
H3625 C3633 0.950 . S
H3626 C3631 0.950 . S
H3627 C3632 0.949 . S
H3628 C3634 0.950 . S
H3629 C3635 0.950 . S
H3630 C3636 0.949 . S
C3631 H3626 0.950 . S
C3631 C3633 1.327 . S
C3631 C3637 1.429 . S
C3632 C3624 1.574 . S
C3632 H3627 0.949 . S
C3632 C3638 1.368 . S
C3633 C3617 1.349 . S
C3633 H3625 0.950 . S
C3633 C3631 1.327 . S
C3634 C3622 1.349 . S
C3634 H3628 0.950 . S
C3634 C3635 1.327 . S
C3635 H3629 0.950 . S
C3635 C3634 1.327 . S
C3635 C3639 1.429 . S
C3636 C3619 1.574 . S
C3636 H3630 0.949 . S
C3636 C3640 1.368 . S
C3637 C3618 1.429 . S
C3637 C3631 1.429 . S
C3637 C3638 1.523 . S
C3638 C3619 1.368 . S
C3638 C3632 1.368 . S
C3638 C3637 1.523 . S
C3639 C3623 1.429 . S
C3639 C3635 1.429 . S
C3639 C3640 1.523 . S
C3640 C3624 1.368 . S
C3640 C3636 1.368 . S
C3640 C3639 1.523 . S
H3641 C3616 0.950 . S
H3642 C3618 0.950 . S
H3643 C3619 0.949 . S
H3644 C3621 0.950 . S
H3645 C3623 0.950 . S
C3646 C3647 1.349 . S
C3646 C3648 1.327 . S
C3646 H3671 0.950 . S
C3647 C3646 1.349 . S
C3647 C3663 1.349 . S
C3648 C3646 1.327 . S
C3648 C3667 1.429 . S
C3648 H3672 0.950 . S
C3649 C3666 1.574 1_565 S
C3649 C3668 1.368 . S
C3649 H3673 0.948 . S
H3650 C3654 0.949 . S
C3651 C3652 1.349 . S
C3651 C3653 1.327 . S
C3651 H3674 0.950 . S
C3652 C3651 1.349 . S
C3652 C3664 1.349 . S
C3653 C3651 1.327 . S
C3653 C3669 1.429 . S
C3653 H3675 0.950 . S
C3654 H3650 0.949 . S
C3654 C3662 1.574 . S
C3654 C3670 1.368 . S
H3655 C3663 0.950 . S
H3656 C3661 0.950 . S
H3657 C3662 0.949 . S
H3658 C3664 0.950 . S
H3659 C3665 0.950 1_565 S
H3660 C3666 0.949 . S
C3661 H3656 0.950 . S
C3661 C3663 1.327 . S
C3661 C3667 1.429 . S
C3662 C3654 1.574 . S
C3662 H3657 0.949 . S
C3662 C3668 1.368 . S
C3663 C3647 1.349 . S
C3663 H3655 0.950 . S
C3663 C3661 1.327 . S
C3664 C3652 1.349 . S
C3664 H3658 0.950 . S
C3664 C3665 1.327 . S
C3665 H3659 0.950 1_545 S
C3665 C3664 1.327 . S
C3665 C3669 1.429 . S
C3666 C3649 1.574 1_545 S
C3666 H3660 0.949 . S
C3666 C3670 1.368 1_545 S
C3667 C3648 1.429 . S
C3667 C3661 1.429 . S
C3667 C3668 1.523 . S
C3668 C3649 1.368 . S
C3668 C3662 1.368 . S
C3668 C3667 1.523 . S
C3669 C3653 1.429 . S
C3669 C3665 1.429 . S
C3669 C3670 1.523 1_545 S
C3670 C3654 1.368 . S
C3670 C3666 1.368 1_565 S
C3670 C3669 1.523 1_565 S
H3671 C3646 0.950 . S
H3672 C3648 0.950 . S
H3673 C3649 0.948 . S
H3674 C3651 0.950 . S
H3675 C3653 0.950 . S
C3676 C3677 1.349 . S
C3676 C3678 1.327 . S
C3676 H3701 0.950 . S
C3677 C3676 1.349 . S
C3677 C3693 1.349 . S
C3678 C3676 1.327 . S
C3678 C3697 1.429 . S
C3678 H3702 0.950 . S
C3679 C3696 1.574 . S
C3679 C3698 1.368 . S
C3679 H3703 0.949 . S
H3680 C3684 0.949 . S
C3681 C3682 1.349 . S
C3681 C3683 1.327 . S
C3681 H3704 0.950 . S
C3682 C3681 1.349 . S
C3682 C3694 1.349 . S
C3683 C3681 1.327 . S
C3683 C3699 1.429 . S
C3683 H3705 0.950 . S
C3684 H3680 0.949 . S
C3684 C3692 1.574 . S
C3684 C3700 1.368 . S
H3685 C3693 0.950 . S
H3686 C3691 0.950 . S
H3687 C3692 0.949 . S
H3688 C3694 0.950 . S
H3689 C3695 0.950 . S
H3690 C3696 0.949 . S
C3691 H3686 0.950 . S
C3691 C3693 1.327 . S
C3691 C3697 1.429 . S
C3692 C3684 1.574 . S
C3692 H3687 0.949 . S
C3692 C3698 1.368 . S
C3693 C3677 1.349 . S
C3693 H3685 0.950 . S
C3693 C3691 1.327 . S
C3694 C3682 1.349 . S
C3694 H3688 0.950 . S
C3694 C3695 1.327 . S
C3695 H3689 0.950 . S
C3695 C3694 1.327 . S
C3695 C3699 1.429 . S
C3696 C3679 1.574 . S
C3696 H3690 0.949 . S
C3696 C3700 1.368 . S
C3697 C3678 1.429 . S
C3697 C3691 1.429 . S
C3697 C3698 1.523 . S
C3698 C3679 1.368 . S
C3698 C3692 1.368 . S
C3698 C3697 1.523 . S
C3699 C3683 1.429 . S
C3699 C3695 1.429 . S
C3699 C3700 1.523 . S
C3700 C3684 1.368 . S
C3700 C3696 1.368 . S
C3700 C3699 1.523 . S
H3701 C3676 0.950 . S
H3702 C3678 0.950 . S
H3703 C3679 0.949 . S
H3704 C3681 0.950 . S
H3705 C3683 0.950 . S
C3706 C3707 1.347 . S
C3706 C3708 1.341 . S
C3706 H3731 0.939 1_554 S
C3707 C3706 1.347 . S
C3707 C3723 1.349 . S
C3708 C3706 1.341 . S
C3708 C3727 1.429 . S
C3708 H3732 0.950 . S
C3709 C3726 1.574 . S
C3709 C3728 1.368 . S
C3709 H3733 0.949 . S
H3710 C3714 0.949 . S
C3711 C3712 1.349 . S
C3711 C3713 1.327 . S
C3711 H3734 0.950 . S
C3712 C3711 1.349 . S
C3712 C3724 1.349 . S
C3713 C3711 1.327 . S
C3713 C3729 1.429 . S
C3713 H3735 0.950 . S
C3714 H3710 0.949 . S
C3714 C3722 1.574 . S
C3714 C3730 1.368 . S
H3715 C3723 0.950 . S
H3716 C3721 0.950 . S
H3717 C3722 0.949 . S
H3718 C3724 0.950 . S
H3719 C3725 0.950 . S
H3720 C3726 0.949 . S
C3721 H3716 0.950 . S
C3721 C3723 1.327 . S
C3721 C3727 1.429 . S
C3722 C3714 1.574 . S
C3722 H3717 0.949 . S
C3722 C3728 1.368 . S
C3723 C3707 1.349 . S
C3723 H3715 0.950 . S
C3723 C3721 1.327 . S
C3724 C3712 1.349 . S
C3724 H3718 0.950 . S
C3724 C3725 1.327 . S
C3725 H3719 0.950 . S
C3725 C3724 1.327 . S
C3725 C3729 1.429 . S
C3726 C3709 1.574 . S
C3726 H3720 0.949 . S
C3726 C3730 1.368 . S
C3727 C3708 1.429 . S
C3727 C3721 1.429 . S
C3727 C3728 1.523 . S
C3728 C3709 1.368 . S
C3728 C3722 1.368 . S
C3728 C3727 1.523 . S
C3729 C3713 1.429 . S
C3729 C3725 1.429 . S
C3729 C3730 1.523 . S
C3730 C3714 1.368 . S
C3730 C3726 1.368 . S
C3730 C3729 1.523 . S
H3731 C3706 0.939 1_556 S
H3732 C3708 0.950 . S
H3733 C3709 0.949 . S
H3734 C3711 0.950 . S
H3735 C3713 0.950 . S
C3736 C3737 1.349 . S
C3736 C3738 1.327 . S
C3736 H3761 0.950 . S
C3737 C3736 1.349 . S
C3737 C3753 1.349 . S
C3738 C3736 1.327 . S
C3738 C3757 1.429 . S
C3738 H3762 0.950 . S
C3739 C3756 1.574 . S
C3739 C3758 1.368 . S
C3739 H3763 0.949 . S
H3740 C3744 0.949 . S
C3741 C3742 1.349 . S
C3741 C3743 1.327 . S
C3741 H3764 0.950 . S
C3742 C3741 1.349 . S
C3742 C3754 1.349 . S
C3743 C3741 1.327 . S
C3743 C3759 1.429 . S
C3743 H3765 0.950 . S
C3744 H3740 0.949 . S
C3744 C3752 1.574 . S
C3744 C3760 1.368 . S
H3745 C3753 0.950 . S
H3746 C3751 0.950 . S
H3747 C3752 0.949 . S
H3748 C3754 0.950 . S
H3749 C3755 0.950 . S
H3750 C3756 0.949 . S
C3751 H3746 0.950 . S
C3751 C3753 1.327 . S
C3751 C3757 1.429 . S
C3752 C3744 1.574 . S
C3752 H3747 0.949 . S
C3752 C3758 1.368 . S
C3753 C3737 1.349 . S
C3753 H3745 0.950 . S
C3753 C3751 1.327 . S
C3754 C3742 1.349 . S
C3754 H3748 0.950 . S
C3754 C3755 1.327 . S
C3755 H3749 0.950 . S
C3755 C3754 1.327 . S
C3755 C3759 1.429 . S
C3756 C3739 1.574 . S
C3756 H3750 0.949 . S
C3756 C3760 1.368 . S
C3757 C3738 1.429 . S
C3757 C3751 1.429 . S
C3757 C3758 1.523 . S
C3758 C3739 1.368 . S
C3758 C3752 1.368 . S
C3758 C3757 1.523 . S
C3759 C3743 1.429 . S
C3759 C3755 1.429 . S
C3759 C3760 1.523 . S
C3760 C3744 1.368 . S
C3760 C3756 1.368 . S
C3760 C3759 1.523 . S
H3761 C3736 0.950 . S
H3762 C3738 0.950 . S
H3763 C3739 0.949 . S
H3764 C3741 0.950 . S
H3765 C3743 0.950 . S
C3766 C3767 1.349 . S
C3766 C3768 1.327 . S
C3766 H3791 0.950 . S
C3767 C3766 1.349 . S
C3767 C3783 1.349 . S
C3768 C3766 1.327 . S
C3768 C3787 1.429 . S
C3768 H3792 0.950 . S
C3769 C3786 1.574 . S
C3769 C3788 1.368 . S
C3769 H3793 0.949 . S
H3770 C3774 0.949 . S
C3771 C3772 1.349 . S
C3771 C3773 1.327 . S
C3771 H3794 0.950 . S
C3772 C3771 1.349 . S
C3772 C3784 1.349 . S
C3773 C3771 1.327 . S
C3773 C3789 1.429 . S
C3773 H3795 0.950 . S
C3774 H3770 0.949 . S
C3774 C3782 1.574 . S
C3774 C3790 1.368 . S
H3775 C3783 0.950 . S
H3776 C3781 0.950 . S
H3777 C3782 0.949 . S
H3778 C3784 0.950 . S
H3779 C3785 0.950 . S
H3780 C3786 0.949 . S
C3781 H3776 0.950 . S
C3781 C3783 1.327 . S
C3781 C3787 1.429 . S
C3782 C3774 1.574 . S
C3782 H3777 0.949 . S
C3782 C3788 1.368 . S
C3783 C3767 1.349 . S
C3783 H3775 0.950 . S
C3783 C3781 1.327 . S
C3784 C3772 1.349 . S
C3784 H3778 0.950 . S
C3784 C3785 1.327 . S
C3785 H3779 0.950 . S
C3785 C3784 1.327 . S
C3785 C3789 1.429 . S
C3786 C3769 1.574 . S
C3786 H3780 0.949 . S
C3786 C3790 1.368 . S
C3787 C3768 1.429 . S
C3787 C3781 1.429 . S
C3787 C3788 1.523 . S
C3788 C3769 1.368 . S
C3788 C3782 1.368 . S
C3788 C3787 1.523 . S
C3789 C3773 1.429 . S
C3789 C3785 1.429 . S
C3789 C3790 1.523 . S
C3790 C3774 1.368 . S
C3790 C3786 1.368 . S
C3790 C3789 1.523 . S
H3791 C3766 0.950 . S
H3792 C3768 0.950 . S
H3793 C3769 0.949 . S
H3794 C3771 0.950 . S
H3795 C3773 0.950 . S
C3796 C3797 1.349 . S
C3796 C3798 1.327 . S
C3796 H3821 0.906 1_565 S
C3797 C3796 1.349 . S
C3797 C3813 1.349 . S
C3798 C3796 1.327 . S
C3798 C3817 1.429 . S
C3798 H3822 0.950 . S
C3799 C3816 1.574 . S
C3799 C3818 1.368 . S
C3799 H3823 0.949 . S
H3800 C3804 0.949 . S
C3801 C3802 1.349 . S
C3801 C3803 1.327 . S
C3801 H3824 0.950 . S
C3802 C3801 1.349 . S
C3802 C3814 1.349 . S
C3803 C3801 1.327 . S
C3803 C3819 1.429 . S
C3803 H3825 0.950 . S
C3804 H3800 0.949 . S
C3804 C3812 1.574 . S
C3804 C3820 1.368 . S
H3805 C3813 0.950 . S
H3806 C3811 0.950 . S
H3807 C3812 0.949 . S
H3808 C3814 0.950 . S
H3809 C3815 0.950 . S
H3810 C3816 0.949 . S
C3811 H3806 0.950 . S
C3811 C3813 1.327 . S
C3811 C3817 1.429 . S
C3812 C3804 1.574 . S
C3812 H3807 0.949 . S
C3812 C3818 1.368 . S
C3813 C3797 1.349 . S
C3813 H3805 0.950 . S
C3813 C3811 1.327 . S
C3814 C3802 1.349 . S
C3814 H3808 0.950 . S
C3814 C3815 1.327 . S
C3815 H3809 0.950 . S
C3815 C3814 1.327 . S
C3815 C3819 1.429 . S
C3816 C3799 1.574 . S
C3816 H3810 0.949 . S
C3816 C3820 1.368 . S
C3817 C3798 1.429 . S
C3817 C3811 1.429 . S
C3817 C3818 1.523 . S
C3818 C3799 1.368 . S
C3818 C3812 1.368 . S
C3818 C3817 1.523 . S
C3819 C3803 1.429 . S
C3819 C3815 1.429 . S
C3819 C3820 1.523 . S
C3820 C3804 1.368 . S
C3820 C3816 1.368 . S
C3820 C3819 1.523 . S
H3821 C3796 0.906 1_545 S
H3822 C3798 0.950 . S
H3823 C3799 0.949 . S
H3824 C3801 0.950 . S
H3825 C3803 0.950 . S
C3826 C3827 1.349 . S
C3826 C3828 1.327 . S
C3826 H3851 0.950 . S
C3827 C3826 1.349 . S
C3827 C3843 1.349 . S
C3828 C3826 1.327 . S
C3828 C3847 1.429 . S
C3828 H3852 0.950 . S
C3829 C3846 1.574 . S
C3829 C3848 1.368 . S
C3829 H3853 0.949 . S
H3830 C3834 0.949 . S
C3831 C3832 1.349 . S
C3831 C3833 1.327 . S
C3831 H3854 0.950 . S
C3832 C3831 1.349 . S
C3832 C3844 1.349 . S
C3833 C3831 1.327 . S
C3833 C3849 1.429 . S
C3833 H3855 0.950 . S
C3834 H3830 0.949 . S
C3834 C3842 1.574 . S
C3834 C3850 1.368 . S
H3835 C3843 0.950 . S
H3836 C3841 0.950 . S
H3837 C3842 0.949 . S
H3838 C3844 0.950 . S
H3839 C3845 0.950 . S
H3840 C3846 0.949 . S
C3841 H3836 0.950 . S
C3841 C3843 1.327 . S
C3841 C3847 1.429 . S
C3842 C3834 1.574 . S
C3842 H3837 0.949 . S
C3842 C3848 1.368 . S
C3843 C3827 1.349 . S
C3843 H3835 0.950 . S
C3843 C3841 1.327 . S
C3844 C3832 1.349 . S
C3844 H3838 0.950 . S
C3844 C3845 1.327 . S
C3845 H3839 0.950 . S
C3845 C3844 1.327 . S
C3845 C3849 1.429 . S
C3846 C3829 1.574 . S
C3846 H3840 0.949 . S
C3846 C3850 1.368 . S
C3847 C3828 1.429 . S
C3847 C3841 1.429 . S
C3847 C3848 1.523 . S
C3848 C3829 1.368 . S
C3848 C3842 1.368 . S
C3848 C3847 1.523 . S
C3849 C3833 1.429 . S
C3849 C3845 1.429 . S
C3849 C3850 1.523 . S
C3850 C3834 1.368 . S
C3850 C3846 1.368 . S
C3850 C3849 1.523 . S
H3851 C3826 0.950 . S
H3852 C3828 0.950 . S
H3853 C3829 0.949 . S
H3854 C3831 0.950 . S
H3855 C3833 0.950 . S
C977 C106 2.480 . S
C982 C346 2.434 . S
C1007 C65 1.681 . S
C1012 C385 1.638 . S
C1037 C79 1.664 . S
C1042 C426 1.651 . S
C1072 C471 1.182 . S
C1067 C90 1.177 . S
C1097 C21 1.731 . S
C1102 C515 1.740 . S
C1132 C546 1.257 . S
C1127 C35 1.250 . S
C1162 C594 1.998 . S
C1157 C50 1.993 . S
C1187 C6 1.629 . S
C1192 C622 1.655 . S
C1222 C354 1.647 . S
C1217 C232 1.633 . S
C1247 C245 1.340 . S
C1252 C395 1.337 . S
C1282 C434 1.439 . S
C1277 C274 1.437 1_545 S
C1312 C466 1.299 . S
C1307 C175 1.287 . S
C1337 C231 0.452 . S
C1342 C502 0.292 . S
C1372 C554 2.226 . S
C1367 C246 2.220 . S
C1402 C591 0.528 . S
C1397 C273 0.563 . S
C1432 C625 2.132 . S
C1427 C176 2.123 . S
C1462 C351 1.848 . S
C1457 C160 1.846 . S
C1487 C289 1.946 . S
C1492 C665 1.904 . S
C1522 C711 1.132 . S
C1517 C328 1.096 . S
C1552 C746 1.419 . S
C1547 C317 1.453 . S
C1577 C118 1.784 . S
C1582 C635 1.840 . S
C1607 C132 1.341 . S
C1612 C431 1.359 . S
C1637 C331 1.398 . S
C1642 C794 1.387 . S
C1672 C822 0.563 . S
C1667 C303 0.555 . S
C1702 C355 2.010 . S
C1697 C63 2.031 . S
C1732 C834 2.142 . S
C1727 C107 2.162 . S
C1757 C92 1.354 . S
C1762 C435 1.355 . S
C1787 C78 1.684 . S
C1792 C782 1.687 . S
C1822 C506 2.496 . S
C1817 C8 2.472 . S
C1847 C51 1.354 . S
C1852 C715 1.317 . S
C1882 C585 2.305 1_565 S
C1877 C37 2.290 . S
C1912 C871 1.525 . S
C1907 C20 1.520 . S
C1942 C345 1.335 1_556 S
C1937 C147 1.288 . S
C1972 C826 1.494 . S
C1967 C316 1.530 . S
C1997 C119 1.409 . S
C2002 C425 1.475 . S
C2027 C288 1.461 . S
C2032 C795 1.464 . S
C2057 C148 0.218 . S
C2062 C511 0.148 . S
C2092 C705 2.241 . S
C2087 C315 2.223 . S
C2117 C120 0.953 . S
C2122 C582 0.931 . S
C2147 C287 1.885 . S
C2152 C874 1.897 . S
C2177 C188 1.631 . S
C2182 C342 1.622 . S
C2207 C177 2.300 . S
C2212 C674 2.283 . S
C2237 C258 1.065 . S
C2242 C542 1.079 . S
C2267 C247 1.714 . S
C2272 C755 1.670 . S
C2302 C866 1.666 . S
C2297 C272 1.647 . S
C2327 C216 1.176 . S
C2332 C422 1.190 . S
C2362 C465 1.673 . S
C2357 C261 1.630 . S
C2392 C391 0.477 . S
C2387 C205 0.478 . S
C2417 C76 2.046 . S
C2422 C906 2.039 . S
C2452 C825 1.730 . S
C2447 C93 1.775 . S
C2477 C105 1.214 . S
C2482 C946 1.224 . S
C2507 C62 1.202 . S
C2512 C791 1.209 . S
C2537 C49 1.702 . S
C2542 C675 1.709 . S
C2572 C706 1.663 . S
C2567 C9 1.697 . S
C2602 C754 1.932 . S
C2597 C22 1.928 . S
C2632 C862 1.954 . S
C2627 C36 1.986 . S
C2662 C914 1.542 . S
C2657 C260 1.529 . S
C2687 C189 1.214 . S
C2692 C835 1.211 . S
C2722 C954 1.355 . S
C2717 C204 1.355 . S
C2752 C786 1.096 . S
C2747 C217 1.092 . S
C2782 C662 0.213 . S
C2777 C259 0.412 . S
C2807 C190 2.340 . S
C2812 C714 2.347 . S
C2842 C751 0.687 . S
C2837 C203 0.695 . S
C2867 C218 2.180 . S
C2872 C865 2.194 . S
C2902 C911 1.813 . S
C2897 C314 1.808 . S
C2927 C135 1.991 . S
C2932 C505 1.950 . S
C2962 C551 1.099 . S
C2957 C146 1.062 . S
C2992 C586 1.510 . S
C2987 C163 1.535 . S
C3022 C875 1.903 . S
C3017 C300 1.853 . S
C3047 C286 1.292 . S
C3052 C951 1.313 . S
C3082 C474 1.287 . S
C3077 C149 1.295 . S
C3112 C382 0.547 . S
C3107 C121 0.533 . S
C3137 C91 2.013 . S
C3142 C915 1.999 . S
C3172 C394 1.709 . S
C3167 C77 1.689 . S
C3197 C64 1.324 . S
C3202 C955 1.329 . S
C3227 C104 1.331 . S
C3232 C462 1.352 . S
C3257 C34 2.037 . S
C3262 C666 2.079 . S
C3292 C555 1.281 . S
C3287 C23 1.310 . S
C3317 C7 1.798 . S
C3322 C745 1.841 . S
C3347 C48 1.444 . S
C3352 C631 1.454 . S
C3382 C905 1.312 . S
C3377 C329 1.270 . S
C3407 C162 1.533 . S
C3412 C386 1.504 . S
C3442 C945 1.474 . S
C3437 C301 1.417 . S
C3467 C134 1.456 . S
C3472 C475 1.462 . S
C3497 C330 0.241 . S
C3502 C671 0.178 . S
C3532 C545 2.230 . S
C3527 C161 2.218 1_556 S
C3557 C302 0.910 . S
C3562 C742 0.894 . S
C3592 C634 1.887 . S
C3587 C133 1.881 . S
C3622 C902 1.820 . S
C3617 C244 1.826 . S
C3652 C514 2.270 1_655 S
C3647 C219 2.289 . S
C3677 C230 0.904 . S
C3682 C702 0.911 . S
C3712 C595 1.590 . S
C3707 C191 1.649 1_554 S
C3737 C202 1.934 . S
C3742 C626 1.967 . S
C3767 C174 1.401 . S
C3772 C942 1.424 . S
C3802 C785 1.638 . S
C3797 C233 1.588 1_565 S
C3832 C831 0.507 . S
C3827 C275 0.497 . S
