# Generated by pormake.
# Topology gar, (4,6)-cn, num edge types: 1
# Building blocks:
#     Node 0, Type 0, BuildingBlock: CEKHIL_clean_sbu_0, # of connection points: 4
#     Node 1, Type 0, BuildingBlock: CEKHIL_clean_sbu_0, # of connection points: 4
#     Node 2, Type 0, BuildingBlock: CEKHIL_clean_sbu_0, # of connection points: 4
#     Node 3, Type 0, BuildingBlock: CEKHIL_clean_sbu_0, # of connection points: 4
#     Node 4, Type 0, BuildingBlock: CEKHIL_clean_sbu_0, # of connection points: 4
#     Node 5, Type 0, BuildingBlock: CEKHIL_clean_sbu_0, # of connection points: 4
#     Node 6, Type 0, BuildingBlock: CEKHIL_clean_sbu_0, # of connection points: 4
#     Node 7, Type 0, BuildingBlock: CEKHIL_clean_sbu_0, # of connection points: 4
#     Node 8, Type 0, BuildingBlock: CEKHIL_clean_sbu_0, # of connection points: 4
#     Node 9, Type 0, BuildingBlock: CEKHIL_clean_sbu_0, # of connection points: 4
#     Node 10, Type 0, BuildingBlock: CEKHIL_clean_sbu_0, # of connection points: 4
#     Node 11, Type 0, BuildingBlock: CEKHIL_clean_sbu_0, # of connection points: 4
#     Node 12, Type 0, BuildingBlock: CEKHIL_clean_sbu_0, # of connection points: 4
#     Node 13, Type 0, BuildingBlock: CEKHIL_clean_sbu_0, # of connection points: 4
#     Node 14, Type 0, BuildingBlock: CEKHIL_clean_sbu_0, # of connection points: 4
#     Node 15, Type 0, BuildingBlock: CEKHIL_clean_sbu_0, # of connection points: 4
#     Node 16, Type 0, BuildingBlock: CEKHIL_clean_sbu_0, # of connection points: 4
#     Node 17, Type 0, BuildingBlock: CEKHIL_clean_sbu_0, # of connection points: 4
#     Node 18, Type 0, BuildingBlock: CEKHIL_clean_sbu_0, # of connection points: 4
#     Node 19, Type 0, BuildingBlock: CEKHIL_clean_sbu_0, # of connection points: 4
#     Node 20, Type 0, BuildingBlock: CEKHIL_clean_sbu_0, # of connection points: 4
#     Node 21, Type 0, BuildingBlock: CEKHIL_clean_sbu_0, # of connection points: 4
#     Node 22, Type 0, BuildingBlock: CEKHIL_clean_sbu_0, # of connection points: 4
#     Node 23, Type 0, BuildingBlock: CEKHIL_clean_sbu_0, # of connection points: 4
#     Node 24, Type 1, BuildingBlock: HISSIN_clean_sbu_0, # of connection points: 6
#     Node 25, Type 1, BuildingBlock: HISSIN_clean_sbu_0, # of connection points: 6
#     Node 26, Type 1, BuildingBlock: HISSIN_clean_sbu_0, # of connection points: 6
#     Node 27, Type 1, BuildingBlock: HISSIN_clean_sbu_0, # of connection points: 6
#     Node 28, Type 1, BuildingBlock: HISSIN_clean_sbu_0, # of connection points: 6
#     Node 29, Type 1, BuildingBlock: HISSIN_clean_sbu_0, # of connection points: 6
#     Node 30, Type 1, BuildingBlock: HISSIN_clean_sbu_0, # of connection points: 6
#     Node 31, Type 1, BuildingBlock: HISSIN_clean_sbu_0, # of connection points: 6
#     Node 32, Type 1, BuildingBlock: HISSIN_clean_sbu_0, # of connection points: 6
#     Node 33, Type 1, BuildingBlock: HISSIN_clean_sbu_0, # of connection points: 6
#     Node 34, Type 1, BuildingBlock: HISSIN_clean_sbu_0, # of connection points: 6
#     Node 35, Type 1, BuildingBlock: HISSIN_clean_sbu_0, # of connection points: 6
#     Node 36, Type 1, BuildingBlock: HISSIN_clean_sbu_0, # of connection points: 6
#     Node 37, Type 1, BuildingBlock: HISSIN_clean_sbu_0, # of connection points: 6
#     Node 38, Type 1, BuildingBlock: HISSIN_clean_sbu_0, # of connection points: 6
#     Node 39, Type 1, BuildingBlock: HISSIN_clean_sbu_0, # of connection points: 6
#     Edge 40, Type (0, 1), BuildingBlock: AJUNOK_clean_linker_0, # of connection points: 2
#     Edge 41, Type (0, 1), BuildingBlock: AJUNOK_clean_linker_0, # of connection points: 2
#     Edge 42, Type (0, 1), BuildingBlock: AJUNOK_clean_linker_0, # of connection points: 2
#     Edge 43, Type (0, 1), BuildingBlock: AJUNOK_clean_linker_0, # of connection points: 2
#     Edge 44, Type (0, 1), BuildingBlock: AJUNOK_clean_linker_0, # of connection points: 2
#     Edge 45, Type (0, 1), BuildingBlock: AJUNOK_clean_linker_0, # of connection points: 2
#     Edge 46, Type (0, 1), BuildingBlock: AJUNOK_clean_linker_0, # of connection points: 2
#     Edge 47, Type (0, 1), BuildingBlock: AJUNOK_clean_linker_0, # of connection points: 2
#     Edge 48, Type (0, 1), BuildingBlock: AJUNOK_clean_linker_0, # of connection points: 2
#     Edge 49, Type (0, 1), BuildingBlock: AJUNOK_clean_linker_0, # of connection points: 2
#     Edge 50, Type (0, 1), BuildingBlock: AJUNOK_clean_linker_0, # of connection points: 2
#     Edge 51, Type (0, 1), BuildingBlock: AJUNOK_clean_linker_0, # of connection points: 2
#     Edge 52, Type (0, 1), BuildingBlock: AJUNOK_clean_linker_0, # of connection points: 2
#     Edge 53, Type (0, 1), BuildingBlock: AJUNOK_clean_linker_0, # of connection points: 2
#     Edge 54, Type (0, 1), BuildingBlock: AJUNOK_clean_linker_0, # of connection points: 2
#     Edge 55, Type (0, 1), BuildingBlock: AJUNOK_clean_linker_0, # of connection points: 2
#     Edge 56, Type (0, 1), BuildingBlock: AJUNOK_clean_linker_0, # of connection points: 2
#     Edge 57, Type (0, 1), BuildingBlock: AJUNOK_clean_linker_0, # of connection points: 2
#     Edge 58, Type (0, 1), BuildingBlock: AJUNOK_clean_linker_0, # of connection points: 2
#     Edge 59, Type (0, 1), BuildingBlock: AJUNOK_clean_linker_0, # of connection points: 2
#     Edge 60, Type (0, 1), BuildingBlock: AJUNOK_clean_linker_0, # of connection points: 2
#     Edge 61, Type (0, 1), BuildingBlock: AJUNOK_clean_linker_0, # of connection points: 2
#     Edge 62, Type (0, 1), BuildingBlock: AJUNOK_clean_linker_0, # of connection points: 2
#     Edge 63, Type (0, 1), BuildingBlock: AJUNOK_clean_linker_0, # of connection points: 2
#     Edge 64, Type (0, 1), BuildingBlock: AJUNOK_clean_linker_0, # of connection points: 2
#     Edge 65, Type (0, 1), BuildingBlock: AJUNOK_clean_linker_0, # of connection points: 2
#     Edge 66, Type (0, 1), BuildingBlock: AJUNOK_clean_linker_0, # of connection points: 2
#     Edge 67, Type (0, 1), BuildingBlock: AJUNOK_clean_linker_0, # of connection points: 2
#     Edge 68, Type (0, 1), BuildingBlock: AJUNOK_clean_linker_0, # of connection points: 2
#     Edge 69, Type (0, 1), BuildingBlock: AJUNOK_clean_linker_0, # of connection points: 2
#     Edge 70, Type (0, 1), BuildingBlock: AJUNOK_clean_linker_0, # of connection points: 2
#     Edge 71, Type (0, 1), BuildingBlock: AJUNOK_clean_linker_0, # of connection points: 2
#     Edge 72, Type (0, 1), BuildingBlock: AJUNOK_clean_linker_0, # of connection points: 2
#     Edge 73, Type (0, 1), BuildingBlock: AJUNOK_clean_linker_0, # of connection points: 2
#     Edge 74, Type (0, 1), BuildingBlock: AJUNOK_clean_linker_0, # of connection points: 2
#     Edge 75, Type (0, 1), BuildingBlock: AJUNOK_clean_linker_0, # of connection points: 2
#     Edge 76, Type (0, 1), BuildingBlock: AJUNOK_clean_linker_0, # of connection points: 2
#     Edge 77, Type (0, 1), BuildingBlock: AJUNOK_clean_linker_0, # of connection points: 2
#     Edge 78, Type (0, 1), BuildingBlock: AJUNOK_clean_linker_0, # of connection points: 2
#     Edge 79, Type (0, 1), BuildingBlock: AJUNOK_clean_linker_0, # of connection points: 2
#     Edge 80, Type (0, 1), BuildingBlock: AJUNOK_clean_linker_0, # of connection points: 2
#     Edge 81, Type (0, 1), BuildingBlock: AJUNOK_clean_linker_0, # of connection points: 2
#     Edge 82, Type (0, 1), BuildingBlock: AJUNOK_clean_linker_0, # of connection points: 2
#     Edge 83, Type (0, 1), BuildingBlock: AJUNOK_clean_linker_0, # of connection points: 2
#     Edge 84, Type (0, 1), BuildingBlock: AJUNOK_clean_linker_0, # of connection points: 2
#     Edge 85, Type (0, 1), BuildingBlock: AJUNOK_clean_linker_0, # of connection points: 2
#     Edge 86, Type (0, 1), BuildingBlock: AJUNOK_clean_linker_0, # of connection points: 2
#     Edge 87, Type (0, 1), BuildingBlock: AJUNOK_clean_linker_0, # of connection points: 2
#     Edge 88, Type (0, 1), BuildingBlock: AJUNOK_clean_linker_0, # of connection points: 2
#     Edge 89, Type (0, 1), BuildingBlock: AJUNOK_clean_linker_0, # of connection points: 2
#     Edge 90, Type (0, 1), BuildingBlock: AJUNOK_clean_linker_0, # of connection points: 2
#     Edge 91, Type (0, 1), BuildingBlock: AJUNOK_clean_linker_0, # of connection points: 2
#     Edge 92, Type (0, 1), BuildingBlock: AJUNOK_clean_linker_0, # of connection points: 2
#     Edge 93, Type (0, 1), BuildingBlock: AJUNOK_clean_linker_0, # of connection points: 2
#     Edge 94, Type (0, 1), BuildingBlock: AJUNOK_clean_linker_0, # of connection points: 2
#     Edge 95, Type (0, 1), BuildingBlock: AJUNOK_clean_linker_0, # of connection points: 2
#     Edge 96, Type (0, 1), BuildingBlock: AJUNOK_clean_linker_0, # of connection points: 2
#     Edge 97, Type (0, 1), BuildingBlock: AJUNOK_clean_linker_0, # of connection points: 2
#     Edge 98, Type (0, 1), BuildingBlock: AJUNOK_clean_linker_0, # of connection points: 2
#     Edge 99, Type (0, 1), BuildingBlock: AJUNOK_clean_linker_0, # of connection points: 2
#     Edge 100, Type (0, 1), BuildingBlock: AJUNOK_clean_linker_0, # of connection points: 2
#     Edge 101, Type (0, 1), BuildingBlock: AJUNOK_clean_linker_0, # of connection points: 2
#     Edge 102, Type (0, 1), BuildingBlock: AJUNOK_clean_linker_0, # of connection points: 2
#     Edge 103, Type (0, 1), BuildingBlock: AJUNOK_clean_linker_0, # of connection points: 2
#     Edge 104, Type (0, 1), BuildingBlock: AJUNOK_clean_linker_0, # of connection points: 2
#     Edge 105, Type (0, 1), BuildingBlock: AJUNOK_clean_linker_0, # of connection points: 2
#     Edge 106, Type (0, 1), BuildingBlock: AJUNOK_clean_linker_0, # of connection points: 2
#     Edge 107, Type (0, 1), BuildingBlock: AJUNOK_clean_linker_0, # of connection points: 2
#     Edge 108, Type (0, 1), BuildingBlock: AJUNOK_clean_linker_0, # of connection points: 2
#     Edge 109, Type (0, 1), BuildingBlock: AJUNOK_clean_linker_0, # of connection points: 2
#     Edge 110, Type (0, 1), BuildingBlock: AJUNOK_clean_linker_0, # of connection points: 2
#     Edge 111, Type (0, 1), BuildingBlock: AJUNOK_clean_linker_0, # of connection points: 2
#     Edge 112, Type (0, 1), BuildingBlock: AJUNOK_clean_linker_0, # of connection points: 2
#     Edge 113, Type (0, 1), BuildingBlock: AJUNOK_clean_linker_0, # of connection points: 2
#     Edge 114, Type (0, 1), BuildingBlock: AJUNOK_clean_linker_0, # of connection points: 2
#     Edge 115, Type (0, 1), BuildingBlock: AJUNOK_clean_linker_0, # of connection points: 2
#     Edge 116, Type (0, 1), BuildingBlock: AJUNOK_clean_linker_0, # of connection points: 2
#     Edge 117, Type (0, 1), BuildingBlock: AJUNOK_clean_linker_0, # of connection points: 2
#     Edge 118, Type (0, 1), BuildingBlock: AJUNOK_clean_linker_0, # of connection points: 2
#     Edge 119, Type (0, 1), BuildingBlock: AJUNOK_clean_linker_0, # of connection points: 2
#     Edge 120, Type (0, 1), BuildingBlock: AJUNOK_clean_linker_0, # of connection points: 2
#     Edge 121, Type (0, 1), BuildingBlock: AJUNOK_clean_linker_0, # of connection points: 2
#     Edge 122, Type (0, 1), BuildingBlock: AJUNOK_clean_linker_0, # of connection points: 2
#     Edge 123, Type (0, 1), BuildingBlock: AJUNOK_clean_linker_0, # of connection points: 2
#     Edge 124, Type (0, 1), BuildingBlock: AJUNOK_clean_linker_0, # of connection points: 2
#     Edge 125, Type (0, 1), BuildingBlock: AJUNOK_clean_linker_0, # of connection points: 2
#     Edge 126, Type (0, 1), BuildingBlock: AJUNOK_clean_linker_0, # of connection points: 2
#     Edge 127, Type (0, 1), BuildingBlock: AJUNOK_clean_linker_0, # of connection points: 2
#     Edge 128, Type (0, 1), BuildingBlock: AJUNOK_clean_linker_0, # of connection points: 2
#     Edge 129, Type (0, 1), BuildingBlock: AJUNOK_clean_linker_0, # of connection points: 2
#     Edge 130, Type (0, 1), BuildingBlock: AJUNOK_clean_linker_0, # of connection points: 2
#     Edge 131, Type (0, 1), BuildingBlock: AJUNOK_clean_linker_0, # of connection points: 2
#     Edge 132, Type (0, 1), BuildingBlock: AJUNOK_clean_linker_0, # of connection points: 2
#     Edge 133, Type (0, 1), BuildingBlock: AJUNOK_clean_linker_0, # of connection points: 2
#     Edge 134, Type (0, 1), BuildingBlock: AJUNOK_clean_linker_0, # of connection points: 2
#     Edge 135, Type (0, 1), BuildingBlock: AJUNOK_clean_linker_0, # of connection points: 2
# Relax obj value: 0.233
# Max RMSD: 0.325
# Mean RMSD: 0.156
data_MOF--net-gar--node1-CEKHIL_clean_sbu_0--node2-HISSIN_clean_sbu_0--edge1-AJUNOK_clean_linker_0
_symmetry_space_group_name_H-M    P1
_symmetry_Int_Tables_number       1
_symmetry_cell_setting            triclinic
loop_
_symmetry_equiv_pos_as_xyz
'x, y, z'
_cell_length_a     44.788184
_cell_length_b     44.241259
_cell_length_c     41.998594
_cell_angle_alpha  101.62456
_cell_angle_beta   92.470221
_cell_angle_gamma 100.13939
loop_
_atom_site_label
_atom_site_type_symbol
_atom_site_fract_x
_atom_site_fract_y
_atom_site_fract_z
_atom_type_partial_charge
Co0 Co 0.17567 0.3742 0.43123 0.0
O1 O 0.21556 0.36637 0.42139 0.0
O2 O 0.17278 0.34448 0.39029 0.0
C3 C 0.18685 0.4271 0.44491 0.0
O4 O 0.13145 0.37744 0.43171 0.0
Co5 Co 0.16118 0.40676 0.50032 0.0
O6 O 0.1237 0.41206 0.4763 0.0
C7 C 0.16453 0.33939 0.48665 0.0
C8 C 0.20219 0.3483 0.39441 0.0
C9 C 0.11483 0.39457 0.4483 0.0
O10 O 0.16804 0.33932 0.45631 0.0
O11 O 0.16404 0.36418 0.50828 0.0
O12 O 0.18337 0.41274 0.41445 0.0
O13 O 0.18792 0.40915 0.46554 0.0
Co14 Co 1.04119 0.80587 0.66341 0.0
O15 O 0.9976 0.79489 0.6649 0.0
O16 O 1.03164 0.80485 0.70745 0.0
C17 C 1.04157 0.842 0.6322 0.0
O18 O 0.08637 0.81852 0.67369 0.0
Co19 Co 0.07663 0.79888 0.60087 0.0
O20 O 0.11398 0.81807 0.63049 0.0
C21 C 0.05218 0.74312 0.62756 0.0
C22 C 1.00334 0.79769 0.69616 0.0
C23 C 0.11186 0.82318 0.66118 0.0
O24 O 0.04501 0.76004 0.65382 0.0
O25 O 0.0618 0.75408 0.60314 0.0
O26 O 1.03878 0.84966 0.66335 0.0
O27 O 1.04185 0.81283 0.62074 0.0
Co28 Co 0.67762 0.88419 0.93581 0.0
O29 O 0.71804 0.87592 0.93018 0.0
O30 O 0.67807 0.85637 0.89428 0.0
C31 C 0.68992 0.9367 0.95275 0.0
O32 O 0.63384 0.88944 0.93098 0.0
Co33 Co 0.65671 0.91322 1.00297 0.0
O34 O 0.62185 0.92032 0.9763 0.0
C35 C 0.66051 0.84624 0.98789 0.0
C36 C 0.70716 0.85991 0.9013 0.0
C37 C 0.61624 0.90615 0.94653 0.0
O38 O 0.66582 0.84753 0.95814 0.0
O39 O 0.65934 0.87043 1.01003 0.0
O40 O 0.68935 0.92385 0.92202 0.0
O41 O 0.68751 0.91731 0.9722 0.0
Co42 Co 0.53741 0.30103 0.1601 0.0
O43 O 0.49392 0.29482 0.1623 0.0
O44 O 0.52797 0.30041 0.20417 0.0
C45 C 0.54101 0.33773 0.12943 0.0
O46 O 0.58277 0.30951 0.16926 0.0
Co47 Co 0.57072 0.29026 0.09625 0.0
O48 O 0.60896 0.3078 0.1249 0.0
C49 C 0.5444 0.23644 0.12517 0.0
C50 C 0.49976 0.29692 0.19338 0.0
C51 C 0.60786 0.31252 0.15573 0.0
O52 O 0.53731 0.25444 0.15065 0.0
O53 O 0.55497 0.24613 0.10043 0.0
O54 O 0.53901 0.3456 0.16071 0.0
O55 O 0.53849 0.30815 0.11751 0.0
Co56 Co 0.15084 0.79943 0.14968 0.0
O57 O 0.11096 0.77521 0.13523 0.0
O58 O 0.13386 0.78174 0.1846 0.0
C59 C 0.14259 0.84036 0.12918 0.0
O60 O 0.1903 0.82351 0.17435 0.0
Co61 Co 0.19692 0.82059 0.10261 0.0
O62 O 0.22005 0.84807 0.14231 0.0
C63 C 0.18392 0.75448 0.10845 0.0
C64 C 0.10949 0.77079 0.16478 0.0
C65 C 0.21405 0.84273 0.17023 0.0
O66 O 0.1696 0.7621 0.13379 0.0
O67 O 0.19403 0.77372 0.09063 0.0
O68 O 0.13397 0.83727 0.15767 0.0
O69 O 0.15498 0.81814 0.11348 0.0
Co70 Co 0.54463 0.83962 0.46384 0.0
O71 O 0.58744 0.85829 0.47242 0.0
O72 O 0.56751 0.8197 0.43081 0.0
C73 C 0.52892 0.8858 0.47329 0.0
O74 O 0.50308 0.81552 0.44437 0.0
Co75 Co 0.4957 0.84643 0.51278 0.0
O76 O 0.46708 0.83452 0.47309 0.0
C77 C 0.54342 0.81022 0.52185 0.0
C78 C 0.59144 0.83927 0.44567 0.0
C79 C 0.47566 0.81987 0.44686 0.0
O80 O 0.54963 0.80917 0.49204 0.0
O81 O 0.52417 0.8258 0.53539 0.0
O82 O 0.53789 0.87467 0.44495 0.0
O83 O 0.53018 0.8689 0.49487 0.0
Co84 Co 0.65433 0.3177 0.64382 0.0
O85 O 0.61325 0.29738 0.62717 0.0
O86 O 0.63111 0.30986 0.67934 0.0
C87 C 0.65753 0.35355 0.61272 0.0
O88 O 0.69276 0.33936 0.67162 0.0
Co89 Co 0.70955 0.32174 0.60409 0.0
O90 O 0.73291 0.34983 0.64348 0.0
C91 C 0.68067 0.26111 0.6175 0.0
C92 C 0.60855 0.29754 0.65753 0.0
C93 C 0.72058 0.35167 0.67036 0.0
O94 O 0.66661 0.27607 0.63952 0.0
O95 O 0.69719 0.27474 0.59846 0.0
O96 O 0.64502 0.35791 0.64028 0.0
O97 O 0.66728 0.32746 0.60443 0.0
Co98 Co 0.04277 0.34537 0.96149 0.0
O99 O 0.08509 0.36585 0.96908 0.0
O100 O 0.0658 0.32599 0.92837 0.0
C101 C 1.02473 0.39037 0.9702 0.0
O102 O 1.00184 0.31911 0.94338 0.0
Co103 Co 0.99517 0.34996 1.01152 0.0
O104 O 0.96558 0.33689 0.97242 0.0
C105 C 0.04509 0.31638 1.01973 0.0
C106 C 0.08938 0.34638 0.94279 0.0
C107 C 0.9742 0.32242 0.94612 0.0
O108 O 0.05024 0.31591 0.98982 0.0
O109 O 1.02519 0.33061 0.03392 0.0
O110 O 1.03352 0.37904 0.94184 0.0
O111 O 1.0276 0.37436 0.9924 0.0
Co112 Co 0.46859 0.04202 0.3397 0.0
O113 O 0.47616 0.07482 0.3153 0.0
O114 O 0.43082 0.0481 0.32157 0.0
C115 C 0.50078 0.06694 0.38321 0.0
O116 O 0.45028 1.00825 0.36272 0.0
Co117 Co 0.5154 1.00525 0.36119 0.0
O118 O 0.48321 0.9845 0.385 0.0
C119 C 0.49476 0.99684 0.29144 0.0
C120 C 0.44675 0.06949 0.30896 0.0
C121 C 0.45623 0.98883 0.37987 0.0
O122 O 0.47221 1.01021 0.29956 0.0
O123 O 0.51567 0.99474 0.31226 0.0
O124 O 0.47353 0.07318 0.38059 0.0
O125 O 0.50791 0.04703 0.35919 0.0
Co126 Co 0.32806 0.22764 0.52615 0.0
O127 O 0.37214 0.23479 0.53402 0.0
O128 O 0.33996 0.1929 0.54041 0.0
C129 C 0.32783 0.24257 0.47664 0.0
O130 O 0.28287 0.20789 0.52015 0.0
Co131 Co 0.28924 0.2747 0.52298 0.0
O132 O 0.25252 0.24057 0.51169 0.0
C133 C 0.31699 0.27415 0.58745 0.0
C134 C 0.36783 0.20763 0.54241 0.0
C135 C 0.2562 0.21326 0.5141 0.0
O136 O 0.32549 0.24872 0.57355 0.0
O137 O 0.30339 0.28983 0.57096 0.0
O138 O 0.33093 0.21454 0.47937 0.0
O139 O 0.32575 0.26167 0.50412 0.0
Co140 Co 0.23384 0.054 0.79957 0.0
O141 O 0.23049 1.00496 0.79545 0.0
O142 O 0.27167 1.03237 0.78885 0.0
C143 C 0.20833 0.06271 0.8523 0.0
O144 O 0.25394 0.10447 0.80326 0.0
Co145 Co 0.18695 0.09565 0.80608 0.0
O146 O 0.21858 0.13447 0.81232 0.0
C147 C 0.19272 0.0639 0.7375 0.0
C148 C 0.25895 1.00398 0.79062 0.0
C149 C 0.24621 0.1327 0.80802 0.0
O150 O 0.21525 0.0513 0.74872 0.0
O151 O 0.17825 0.0802 0.75785 0.0
O152 O 0.23656 0.05937 0.85016 0.0
O153 O 0.19628 0.06042 0.82324 0.0
Co154 Co 0.33627 0.99959 1.01693 0.0
O155 O 0.29131 0.98894 1.01906 0.0
O156 O 0.31515 0.03695 0.02753 0.0
C157 C 0.33784 0.96264 0.96935 0.0
O158 O 0.38367 1.01899 1.0166 0.0
Co159 Co 0.37637 0.94785 1.01766 0.0
O160 O 0.41038 0.97942 1.00887 0.0
C161 C 0.3557 0.98087 0.0793 0.0
C162 C 0.28891 1.01818 1.02627 0.0
C163 C 0.40932 1.00847 1.01244 0.0
O164 O 0.34344 0.9995 0.06506 0.0
O165 O 0.36733 0.95814 0.0643 0.0
O166 O 0.33141 0.98999 0.96814 0.0
O167 O 0.34089 0.95803 0.99836 0.0
Co168 Co 0.37937 0.41448 0.0642 0.0
O169 O 0.33576 0.40233 0.05638 0.0
O170 O 0.36012 0.44934 0.08188 0.0
C171 C 0.38666 0.39442 1.01089 0.0
O172 O 0.42364 0.43858 0.07446 0.0
Co173 Co 0.42138 0.37037 0.0595 0.0
O174 O 0.45452 0.4058 0.05657 0.0
C175 C 0.385 0.37503 0.11599 0.0
C176 C 0.3345 0.43119 0.06945 0.0
C177 C 0.45013 0.43361 0.0666 0.0
O178 O 0.37736 0.39915 0.10723 0.0
O179 O 0.40149 0.35842 0.09866 0.0
O180 O 0.38147 0.42252 1.02074 0.0
O181 O 0.38712 0.3781 0.03348 0.0
Co182 Co 0.87932 0.15941 0.04921 0.0
O183 O 0.92415 0.1689 0.04564 0.0
O184 O 0.90365 0.12767 0.06142 0.0
C185 C 0.86871 0.16665 0.99813 0.0
O186 O 0.83109 0.14408 0.05283 0.0
Co187 Co 0.84605 0.21473 0.04151 0.0
O188 O 0.80899 0.1824 0.03909 0.0
C189 C 0.88032 0.21801 0.1038 0.0
C190 C 0.92869 0.14348 0.05355 0.0
C191 C 0.8066 0.15547 0.04635 0.0
O192 O 0.88366 0.1888 0.09515 0.0
O193 O 0.87019 0.23296 0.08396 0.0
O194 O 0.87297 0.13941 1.00207 0.0
O195 O 0.87326 0.18824 1.02403 0.0
Co196 Co 0.26237 0.60651 0.2557 0.0
O197 O 0.25374 0.56855 0.27174 0.0
O198 O 0.29177 0.58085 0.24179 0.0
C199 C 0.25751 0.63821 0.30355 0.0
O200 O 0.28034 0.64374 0.23682 0.0
Co201 Co 0.2156 0.65019 0.25478 0.0
O202 O 0.24969 0.67925 0.24232 0.0
C203 C 0.20518 0.58768 0.21144 0.0
C204 C 0.27813 0.56172 0.25868 0.0
C205 C 0.27459 0.67069 0.23466 0.0
O206 O 0.23359 0.5865 0.21573 0.0
O207 O 0.19314 0.60928 0.22807 0.0
O208 O 0.28293 0.62846 0.29822 0.0
O209 O 0.23579 0.62719 0.28082 0.0
Co210 Co 0.87955 0.91421 0.56164 0.0
O211 O 0.83581 0.90385 0.55421 0.0
O212 O 0.86205 0.94975 0.58069 0.0
C213 C 0.88636 0.8946 0.50822 0.0
O214 O 0.924 0.93696 0.57205 0.0
Co215 Co 0.92037 0.86859 0.55565 0.0
O216 O 0.95459 0.90381 0.55445 0.0
C217 C 0.88288 0.87235 0.61116 0.0
C218 C 0.83589 0.93281 0.56834 0.0
C219 C 0.95047 0.93172 0.56471 0.0
O220 O 0.87714 0.89785 0.6039 0.0
O221 O 0.89834 0.85508 0.59309 0.0
O222 O 0.8819 0.92295 0.51847 0.0
O223 O 0.88636 0.87787 0.53047 0.0
Co224 Co 0.97586 0.10209 0.29818 0.0
O225 O 0.98111 0.1516 0.30533 0.0
O226 O 0.93877 0.1233 0.28848 0.0
C227 C 1.0023 0.09816 0.35035 0.0
O228 O 0.95405 0.05135 0.29092 0.0
Co229 Co 1.02233 0.05899 0.29352 0.0
O230 O 0.98987 1.02328 0.29801 0.0
C231 C 1.01624 0.0856 0.23481 0.0
C232 C 0.9528 0.15246 0.29714 0.0
C233 C 0.96172 1.02403 0.29363 0.0
O234 O 0.99331 0.09788 0.24876 0.0
O235 O 1.03118 0.07011 0.25018 0.0
O236 O 0.97523 0.10506 0.34807 0.0
O237 O 1.01325 0.09635 0.32217 0.0
Co238 Co 0.38017 0.65762 0.55356 0.0
O239 O 0.42515 0.66695 0.55074 0.0
O240 O 0.40336 0.62526 0.56541 0.0
C241 C 0.36966 0.66637 0.50307 0.0
O242 O 0.33219 0.64111 0.55631 0.0
Co243 Co 0.34521 0.71225 0.54776 0.0
O244 O 0.3085 0.6795 0.54529 0.0
C245 C 0.38056 0.71516 0.60915 0.0
C246 C 0.42877 0.64092 0.5581 0.0
C247 C 0.30723 0.65193 0.55062 0.0
O248 O 0.38392 0.68599 0.60007 0.0
O249 O 0.36999 0.73032 0.58982 0.0
O250 O 0.37448 0.63903 0.50611 0.0
O251 O 0.37357 0.68732 0.52952 0.0
Co252 Co 0.47532 0.6034 0.79955 0.0
O253 O 0.48065 0.65282 0.80648 0.0
O254 O 0.43811 0.62452 0.79031 0.0
C255 C 0.50223 0.59955 0.85139 0.0
O256 O 0.45383 0.55281 0.79262 0.0
Co257 Co 0.52253 0.56086 0.79418 0.0
O258 O 0.49012 0.52492 0.79849 0.0
C259 C 0.51559 0.5879 0.73609 0.0
C260 C 0.45226 0.65366 0.79868 0.0
C261 C 0.46187 0.52559 0.79483 0.0
O262 O 0.49193 0.59881 0.74986 0.0
O263 O 0.53183 0.57373 0.75168 0.0
O264 O 0.47516 0.60649 0.84945 0.0
O265 O 0.51294 0.5978 0.82309 0.0
Co266 Co 0.76096 0.10993 0.76028 0.0
O267 O 0.75513 0.07404 0.78011 0.0
O268 O 0.79297 0.08636 0.74997 0.0
C269 C 0.75301 0.1439 0.80531 0.0
O270 O 0.77609 0.14608 0.73828 0.0
Co271 Co 0.70939 0.14751 0.75385 0.0
O272 O 0.7416 0.17756 0.73995 0.0
C273 C 0.70492 0.08357 0.71498 0.0
C274 C 0.78053 0.06844 0.7687 0.0
C275 C 0.76763 0.17123 0.73348 0.0
O276 O 0.73381 0.08526 0.72026 0.0
O277 O 0.69068 0.10419 0.72977 0.0
O278 O 0.77951 0.13606 0.80215 0.0
O279 O 0.73213 0.12943 0.78269 0.0
Co280 Co 0.83004 0.72769 1.02134 0.0
O281 O 0.87417 0.73534 0.02795 0.0
O282 O 0.84309 0.69306 0.03522 0.0
C283 C 0.82825 0.74241 0.9715 0.0
O284 O 0.78484 0.70764 1.0162 0.0
Co285 Co 0.79129 0.77498 1.01982 0.0
O286 O 0.75434 0.74114 1.01082 0.0
C287 C 0.81935 0.77375 0.08382 0.0
C288 C 0.87075 0.70822 0.0363 0.0
C289 C 0.75808 0.71352 1.01185 0.0
O290 O 0.82825 0.7487 0.06927 0.0
O291 O 0.8054 0.78951 0.06777 0.0
O292 O 0.83186 0.71454 0.97424 0.0
O293 O 0.8269 0.76159 0.99916 0.0
Co294 Co 0.95283 0.55243 0.84816 0.0
O295 O 0.95542 0.5867 0.82562 0.0
O296 O 0.91279 0.55777 0.8361 0.0
C297 C 0.98917 0.57666 0.88816 0.0
O298 O 0.93947 0.51649 0.8706 0.0
Co299 Co 1.00424 0.51692 0.86111 0.0
O300 O 0.97636 0.49398 0.88736 0.0
C301 C 0.97554 0.50985 0.79422 0.0
C302 C 0.92578 0.58023 0.82286 0.0
C303 C 0.94856 0.49661 0.88536 0.0
O304 O 0.9535 0.52269 0.80546 0.0
O305 O 0.99853 0.50759 0.81222 0.0
O306 O 0.96159 0.58212 0.89032 0.0
O307 O 0.99379 0.55796 0.8619 0.0
Co308 Co 0.83549 0.49744 0.51472 0.0
O309 O 0.79041 0.48788 0.51419 0.0
O310 O 0.81565 0.53561 0.52531 0.0
C311 C 0.83787 0.46059 0.46745 0.0
O312 O 0.88344 0.51535 0.51703 0.0
Co313 Co 0.8719 0.44326 0.51833 0.0
O314 O 0.90857 0.47493 0.51608 0.0
C315 C 0.84471 0.47358 0.5761 0.0
C316 C 0.78893 0.5173 0.52222 0.0
C317 C 0.90874 0.50399 0.51725 0.0
O318 O 0.83976 0.49611 0.56258 0.0
O319 O 0.85307 0.44877 0.5609 0.0
O320 O 0.83289 0.48841 0.46584 0.0
O321 O 0.83925 0.45587 0.49648 0.0
Co322 Co 0.73297 0.55231 0.29915 0.0
O323 O 0.72972 0.50321 0.29447 0.0
O324 O 0.7708 0.53077 0.2879 0.0
C325 C 0.70774 0.56005 0.35229 0.0
O326 O 0.75272 0.60304 0.30323 0.0
Co327 Co 0.6854 0.59292 0.3064 0.0
O328 O 0.71664 0.63196 0.31242 0.0
C329 C 0.69168 0.56294 0.23748 0.0
C330 C 0.75813 0.50229 0.28943 0.0
C331 C 0.74441 0.63102 0.30813 0.0
O332 O 0.71425 0.55023 0.24845 0.0
O333 O 0.67694 0.57865 0.25805 0.0
O334 O 0.73602 0.55707 0.34975 0.0
O335 O 0.69546 0.55792 0.32336 0.0
Eu336 Eu 0.127 0.11592 0.0552 0.0
Eu337 Eu 0.09247 0.04783 0.02892 0.0
C338 C 0.13673 0.07976 0.9778 0.0
C339 C 0.14415 0.20159 0.09376 0.0
C340 C 0.11327 0.19932 0.09936 0.0
C341 C 0.14833 0.25695 0.09503 0.0
C342 C 0.09942 0.22517 0.09954 0.0
C343 C 0.16215 0.23097 0.09439 0.0
C344 C 0.11644 0.25309 0.09384 0.0
C345 C 0.15479 0.1734 0.07806 0.0
O346 O 0.14106 0.03941 0.04141 0.0
O347 O 0.16679 0.08971 0.05789 0.0
C348 C 0.16729 0.05949 0.04908 0.0
O349 O 0.09886 0.10818 0.1 0.0
O350 O 0.09145 1.00097 0.9993 0.0
O351 O 0.05262 1.01041 1.02505 0.0
O352 O 0.08026 0.05586 0.08414 0.0
C353 C 0.08168 0.08261 0.10619 0.0
O354 O 0.07773 0.12408 0.04479 0.0
O355 O 0.05256 0.07374 1.02545 0.0
O356 O 0.11127 0.05988 0.98032 0.0
O357 O 0.15399 0.15123 0.09461 0.0
O358 O 0.14374 0.1627 0.04769 0.0
O359 O 0.14695 0.10242 1.004 0.0
C360 C 0.06969 0.96384 0.02733 0.0
C361 C 0.0764 0.97169 0.06127 0.0
C362 C 0.08199 0.91252 1.02612 0.0
C363 C 0.08661 0.95054 0.07738 0.0
C364 C 0.07187 0.93391 1.00987 0.0
C365 C 0.09033 0.92115 0.05985 0.0
C366 C 0.06646 0.98884 1.01019 0.0
C367 C 0.0517 0.10375 0.03588 0.0
H368 H 0.09914 0.17674 0.09927 0.0
H369 H 0.16197 0.27871 0.0917 0.0
H370 H 0.07489 0.22188 0.09956 0.0
H371 H 0.18611 0.23307 0.09042 0.0
H372 H 0.0754 0.99484 0.07519 0.0
H373 H 0.08414 0.88966 1.01226 0.0
H374 H 0.09304 0.95779 0.10334 0.0
H375 H 0.06717 0.92769 0.98361 0.0
Eu376 Eu 0.37691 0.8558 0.28713 0.0
Eu377 Eu 0.3232 0.82114 0.32722 0.0
C378 C 0.30616 0.85772 0.27326 0.0
C379 C 0.40742 0.91479 0.23875 0.0
C380 C 0.38387 0.93148 0.24702 0.0
C381 C 0.41435 0.93846 0.19165 0.0
C382 C 0.37534 0.95121 0.22742 0.0
C383 C 0.42302 0.91903 0.21138 0.0
C384 C 0.38987 0.95421 0.19888 0.0
C385 C 0.41324 0.89025 0.25605 0.0
O386 O 0.32084 0.79443 0.27559 0.0
O387 O 0.37109 0.80383 0.26563 0.0
C388 C 0.34374 0.78636 0.25976 0.0
O389 O 0.40209 0.84049 0.32644 0.0
O390 O 0.28595 0.78192 0.32671 0.0
O391 O 0.30146 0.81522 0.37194 0.0
O392 O 0.36469 0.80012 0.33373 0.0
C393 C 0.39295 0.81545 0.33836 0.0
O394 O 0.35636 0.88993 0.32252 0.0
O395 O 0.35232 0.86234 0.36194 0.0
O396 O 0.29965 0.85259 0.30233 0.0
O397 O 0.41244 0.89671 0.28773 0.0
O398 O 0.39876 0.86191 0.24282 0.0
O399 O 0.33188 0.85299 0.2613 0.0
C400 C 0.29301 0.7614 0.37339 0.0
C401 C 0.31351 0.74273 0.35956 0.0
C402 C 0.29212 0.73615 0.41976 0.0
C403 C 0.32387 0.72171 0.3761 0.0
C404 C 0.28176 0.75734 0.4032 0.0
C405 C 0.31411 0.71903 0.40687 0.0
C406 C 0.28638 0.78721 0.35839 0.0
C407 C 0.3589 0.88936 0.35345 0.0
H408 H 0.37135 0.92839 0.26801 0.0
H409 H 0.42595 0.93985 0.16974 0.0
H410 H 0.35691 0.96345 0.23421 0.0
H411 H 0.44106 0.90622 0.20442 0.0
H412 H 0.32256 0.74531 0.33654 0.0
H413 H 0.28426 0.73448 0.44349 0.0
H414 H 0.34047 0.70845 0.36543 0.0
H415 H 0.26604 0.77152 0.41432 0.0
Eu416 Eu 0.62895 0.0616 0.53166 0.0
Eu417 Eu 0.57333 0.07967 0.57708 0.0
C418 C 0.62656 0.04845 0.60345 0.0
C419 C 0.696 1.02547 0.51065 0.0
C420 C 0.6876 1.00346 0.53014 0.0
C421 C 0.74784 1.01662 0.51458 0.0
C422 C 0.70907 0.98806 0.54161 0.0
C423 C 0.72626 1.03199 0.50298 0.0
C424 C 0.73936 0.99446 0.53391 0.0
C425 C 0.67355 0.04293 0.50034 0.0
O426 O 0.6033 0.12409 0.57187 0.0
O427 O 0.64801 0.1062 0.56813 0.0
C428 C 0.63301 0.12908 0.57601 0.0
O429 O 0.60523 0.09041 0.50398 0.0
O430 O 0.55845 0.11062 0.61817 0.0
O431 O 0.52603 0.0719 0.58875 0.0
O432 O 0.5591 0.08371 0.52642 0.0
C433 C 0.57584 0.09071 0.503 0.0
O434 O 0.58539 1.029 0.51048 0.0
O435 O 0.56309 1.02748 0.55802 0.0
O436 O 0.6084 0.06871 0.61064 0.0
O437 O 0.64556 1.02757 0.4951 0.0
O438 O 0.67543 0.07151 0.51712 0.0
O439 O 0.63165 0.03714 0.57333 0.0
C440 C 0.50959 0.11944 0.6056 0.0
C441 C 0.51245 0.13377 0.57865 0.0
C442 C 0.46488 0.14189 0.61851 0.0
C443 C 0.49111 0.15132 0.57112 0.0
C444 C 0.48617 0.1242 0.62595 0.0
C445 C 0.46661 0.15471 0.59042 0.0
C446 C 0.52979 0.09789 0.61087 0.0
C447 C 0.56519 1.01534 0.52722 0.0
H448 H 0.66446 0.99833 0.53683 0.0
H449 H 0.77112 1.02187 0.5083 0.0
H450 H 0.70209 0.97147 0.55687 0.0
H451 H 0.73323 0.04913 0.48831 0.0
H452 H 0.53054 0.13039 0.56276 0.0
H453 H 0.44644 0.14465 0.63407 0.0
H454 H 0.49291 0.16087 0.54932 0.0
H455 H 0.4838 0.11346 0.64695 0.0
Eu456 Eu 0.32159 0.34198 0.80271 0.0
Eu457 Eu 0.38387 0.31605 0.79759 0.0
C458 C 0.32054 0.26487 0.8048 0.0
C459 C 0.2454 0.35912 0.83093 0.0
C460 C 0.23965 0.33378 0.84667 0.0
C461 C 0.20482 0.38096 0.85802 0.0
C462 C 0.21632 0.33186 0.86767 0.0
C463 C 0.22799 0.38275 0.83687 0.0
C464 C 0.19874 0.35547 0.87356 0.0
C465 C 0.26998 0.36173 0.80905 0.0
O466 O 0.36603 0.30644 0.74439 0.0
O467 O 0.32558 0.33186 0.74811 0.0
C468 C 0.34338 0.31574 0.73054 0.0
O469 O 0.35564 0.38821 0.79955 0.0
O470 O 0.40785 0.27714 0.78526 0.0
O471 O 0.43348 0.3238 0.80538 0.0
O472 O 0.39934 0.36858 0.79232 0.0
C473 C 0.38524 0.39315 0.79517 0.0
O474 O 0.33793 0.34846 0.85572 0.0
O475 O 0.38283 0.33044 0.85247 0.0
O476 O 0.35047 0.27072 0.80311 0.0
O477 O 0.29604 0.37821 0.82255 0.0
O478 O 0.27301 0.33601 0.78902 0.0
O479 O 0.30565 0.28862 0.80528 0.0
C480 C 0.45714 0.28961 0.76877 0.0
C481 C 0.44882 0.28236 0.73507 0.0
C482 C 0.50936 0.28729 0.75803 0.0
C483 C 0.47079 0.27745 0.71292 0.0
C484 C 0.48743 0.29196 0.78007 0.0
C485 C 0.50126 0.27978 0.72425 0.0
C486 C 0.43471 0.29473 0.79262 0.0
C487 C 0.36269 0.3431 0.8697 0.0
H488 H 0.25312 0.31547 0.84265 0.0
H489 H 0.19121 0.39915 0.86168 0.0
H490 H 0.212 0.31198 0.87934 0.0
H491 H 0.23224 0.40252 0.82502 0.0
H492 H 0.42545 0.28064 0.72592 0.0
H493 H 0.53283 0.29039 0.76748 0.0
H494 H 0.46406 0.27203 0.68701 0.0
H495 H 0.4942 0.29776 0.806 0.0
Eu496 Eu 0.08889 0.10301 0.5572 0.0
Eu497 Eu 0.11552 0.04541 0.51987 0.0
C498 C 0.15174 0.11437 0.52034 0.0
C499 C 0.08294 0.18567 0.57054 0.0
C500 C 0.07938 0.18291 0.53659 0.0
C501 C 0.11084 0.23906 0.57591 0.0
C502 C 0.09209 0.20762 0.52241 0.0
C503 C 0.09808 0.21424 0.59016 0.0
C504 C 0.10903 0.23554 0.54175 0.0
C505 C 0.07682 0.1572 0.58425 0.0
O506 O 0.13822 0.05037 0.5727 0.0
O507 O 0.11545 0.08877 0.60032 0.0
C508 C 0.13416 0.06837 0.60098 0.0
O509 O 0.05103 0.06351 0.56284 0.0
O510 O 0.14944 1.01577 0.50716 0.0
O511 O 0.1031 0.99964 0.48625 0.0
O512 O 0.07641 1.02365 0.54518 0.0
C513 C 0.05259 1.03356 0.55744 0.0
O514 O 0.06431 0.09648 0.50528 0.0
O515 O 0.09064 0.06176 0.47664 0.0
O516 O 0.15443 0.08505 0.51843 0.0
O517 O 0.05594 0.13403 0.56825 0.0
O518 O 0.10131 0.14755 0.59254 0.0
O519 O 0.12659 0.12388 0.52903 0.0
C520 C 0.12432 0.96519 0.51167 0.0
C521 C 0.12968 0.97236 0.54575 0.0
C522 C 0.09698 0.9134 0.51512 0.0
C523 C 0.11708 0.9515 0.56444 0.0
C524 C 0.1086 0.9351 0.49637 0.0
C525 C 0.09963 0.922 0.54957 0.0
C526 C 0.12845 0.99135 0.4942 0.0
C527 C 0.07012 0.08052 0.4766 0.0
H528 H 0.06825 0.16102 0.52072 0.0
H529 H 0.12273 0.26071 0.59162 0.0
H530 H 0.08997 0.20413 0.49608 0.0
H531 H 0.10136 0.21682 0.61634 0.0
H532 H 0.14193 0.99508 0.55831 0.0
H533 H 0.08525 0.89032 0.5025 0.0
H534 H 0.11983 0.95942 0.59069 0.0
H535 H 0.10405 0.9289 0.47009 0.0
Eu536 Eu 0.38898 0.85085 0.78942 0.0
Eu537 Eu 0.32775 0.80959 0.79719 0.0
C538 C 0.35909 0.86525 0.85869 0.0
C539 C 0.46876 0.89712 0.8088 0.0
C540 C 0.46448 0.91209 0.84068 0.0
C541 C 0.52133 0.89807 0.82559 0.0
C542 C 0.48846 0.91951 0.86502 0.0
C543 C 0.49754 0.89106 0.80125 0.0
C544 C 0.51679 0.91151 0.85792 0.0
C545 C 0.44282 0.88319 0.78472 0.0
O546 O 0.31109 0.85648 0.78757 0.0
O547 O 0.35646 0.88814 0.78621 0.0
C548 C 0.32616 0.88545 0.78672 0.0
O549 O 0.37272 0.82691 0.73736 0.0
O550 O 0.28965 0.78745 0.821 0.0
O551 O 0.2885 0.78016 0.76816 0.0
O552 O 0.34712 0.78441 0.75242 0.0
C553 C 0.36224 0.79662 0.73071 0.0
O554 O 0.40447 0.80261 0.7971 0.0
O555 O 0.35989 0.77386 0.80714 0.0
O556 O 0.33592 0.8423 0.84722 0.0
O557 O 0.43634 0.85271 0.77868 0.0
O558 O 0.41852 0.89546 0.78787 0.0
O559 O 0.38363 0.86911 0.84281 0.0
C560 C 0.24322 0.78516 0.78985 0.0
C561 C 0.24103 0.81709 0.79631 0.0
C562 C 0.19807 0.77316 0.7525 0.0
C563 C 0.21853 0.82718 0.77925 0.0
C564 C 0.22041 0.76309 0.76961 0.0
C565 C 0.19821 0.8054 0.75569 0.0
C566 C 0.27309 0.77664 0.79322 0.0
C567 C 0.38961 0.77505 0.80267 0.0
H568 H 0.44234 0.91683 0.84713 0.0
H569 H 0.54285 0.89143 0.81939 0.0
H570 H 0.48455 0.93056 0.88954 0.0
H571 H 0.50116 0.87924 0.77689 0.0
H572 H 0.25856 0.83451 0.81174 0.0
H573 H 0.18213 0.75593 0.73487 0.0
H574 H 0.21871 0.85209 0.78233 0.0
H575 H 0.22193 0.73842 0.76407 0.0
Eu576 Eu 0.60858 0.06227 0.06304 0.0
Eu577 Eu 0.60482 0.10233 1.00652 0.0
C578 C 0.58304 0.12586 0.07849 0.0
C579 C 0.58783 1.01305 0.12613 0.0
C580 C 0.55629 1.00555 0.11759 0.0
C581 C 0.57921 1.0 0.17864 0.0
C582 C 0.53631 0.99551 0.13963 0.0
C583 C 0.59915 1.0097 0.15652 0.0
C584 C 0.54757 0.99333 0.17066 0.0
C585 C 0.60912 1.02522 0.1041 0.0
O586 O 0.65352 0.12009 0.03143 0.0
O587 O 0.6594 0.08018 0.05691 0.0
C588 C 0.67159 0.10493 0.0455 0.0
O589 O 0.60682 1.03107 1.01367 0.0
O590 O 0.60739 0.14815 0.99439 0.0
O591 O 0.59777 0.10605 0.95576 0.0
O592 O 0.63274 0.066 0.98777 0.0
C593 C 0.62638 0.03756 0.99279 0.0
O594 O 0.55707 0.05926 0.0523 0.0
O595 O 0.55743 0.06992 1.00104 0.0
O596 O 0.5796 0.12435 0.04707 0.0
O597 O 0.60116 1.01533 0.07304 0.0
O598 O 0.62046 0.05525 0.11175 0.0
O599 O 0.59929 0.10847 0.09087 0.0
C600 C 0.63018 0.15031 0.9455 0.0
C601 C 0.66026 0.15639 0.95941 0.0
C602 C 0.64874 0.16323 0.89561 0.0
C603 C 0.68446 0.16498 0.9413 0.0
C604 C 0.62446 0.15463 0.91385 0.0
C605 C 0.67894 0.16751 0.90891 0.0
C606 C 0.60532 0.13674 0.963 0.0
C607 C 0.54215 0.06008 1.02462 0.0
H608 H 0.54706 1.00795 0.09415 0.0
H609 H 0.58854 0.99893 0.20253 0.0
H610 H 0.51208 0.99011 0.13268 0.0
H611 H 0.6234 1.01538 0.16347 0.0
H612 H 0.6651 0.15308 0.98377 0.0
H613 H 0.64392 0.16434 0.87042 0.0
H614 H 0.70754 0.16792 0.95196 0.0
H615 H 0.60138 0.14988 0.90271 0.0
Eu616 Eu 0.35639 0.348 0.31677 0.0
Eu617 Eu 0.33803 0.27474 0.2754 0.0
C618 C 0.34881 0.33521 0.23756 0.0
C619 C 0.36612 0.43475 0.34014 0.0
C620 C 0.37201 0.43794 0.30827 0.0
C621 C 0.33952 0.47844 0.34598 0.0
C622 C 0.36068 0.4605 0.29498 0.0
C623 C 0.35109 0.45609 0.35941 0.0
C624 C 0.34281 0.47958 0.3131 0.0
C625 C 0.36884 0.40556 0.3504 0.0
O626 O 0.38873 0.28352 0.28523 0.0
O627 O 0.39833 0.33698 0.29322 0.0
C628 C 0.4065 0.30985 0.28351 0.0
O629 O 0.3504 0.31801 0.35524 0.0
O630 O 0.34174 0.24042 0.23121 0.0
O631 O 0.31242 0.22661 0.26721 0.0
O632 O 0.34861 0.26777 0.32631 0.0
C633 C 0.34866 0.28776 0.35415 0.0
O634 O 0.30747 0.34012 0.29819 0.0
O635 O 0.29562 0.28784 0.2968 0.0
O636 O 0.34107 0.30479 0.23675 0.0
O637 O 0.34283 0.3868 0.34984 0.0
O638 O 0.38965 0.39063 0.3378 0.0
O639 O 0.35407 0.35624 0.26525 0.0
C640 C 0.34458 0.19291 0.24541 0.0
C641 C 0.369 0.20076 0.26943 0.0
C642 C 0.35649 0.14089 0.2289 0.0
C643 C 0.38709 0.17908 0.27314 0.0
C644 C 0.3384 0.16294 0.22496 0.0
C645 C 0.3811 0.14899 0.25293 0.0
C646 C 0.32684 0.217 0.24194 0.0
C647 C 0.28798 0.31554 0.30164 0.0
H648 H 0.3834 0.4216 0.29281 0.0
H649 H 0.32657 0.49366 0.36072 0.0
H650 H 0.36408 0.46151 0.26985 0.0
H651 H 0.34623 0.45387 0.38398 0.0
H652 H 0.37398 0.2237 0.28558 0.0
H653 H 0.35127 0.11759 0.21338 0.0
H654 H 0.40529 0.18557 0.2925 0.0
H655 H 0.31966 0.1566 0.20624 0.0
Eu656 Eu 0.58886 0.6048 0.05845 0.0
Eu657 Eu 0.61574 0.54723 1.02012 0.0
C658 C 0.65318 0.61604 1.02138 0.0
C659 C 0.58344 0.68642 0.066 0.0
C660 C 0.59059 0.6809 0.03331 0.0
C661 C 0.60052 0.74239 0.06967 0.0
C662 C 0.60308 0.70566 1.01912 0.0
C663 C 0.58827 0.7174 0.08405 0.0
C664 C 0.60845 0.73674 0.03712 0.0
C665 C 0.57545 0.65935 0.08161 0.0
O666 O 0.63973 0.55542 0.07318 0.0
O667 O 0.61302 0.58944 0.10211 0.0
C668 C 0.63356 0.57085 0.10203 0.0
O669 O 0.55245 0.56575 0.06791 0.0
O670 O 0.64979 0.51712 1.01177 0.0
O671 O 0.60489 0.50107 0.98698 0.0
O672 O 0.57321 0.52546 0.04043 0.0
C673 C 0.55174 0.53555 0.0575 0.0
O674 O 0.56512 0.59719 1.00568 0.0
O675 O 0.59128 0.56269 0.97644 0.0
O676 O 0.65172 0.58589 1.01018 0.0
O677 O 0.5555 0.63577 0.06485 0.0
O678 O 0.59883 0.64998 0.09324 0.0
O679 O 0.63222 0.62647 0.03909 0.0
C680 C 0.62316 0.46735 1.01585 0.0
C681 C 0.61983 0.47587 0.04935 0.0
C682 C 0.60387 0.4129 1.01803 0.0
C683 C 0.60806 0.4537 0.06684 0.0
C684 C 0.61546 0.43553 1.00026 0.0
C685 C 0.59926 0.42201 0.0514 0.0
C686 C 0.62932 0.49272 0.99758 0.0
C687 C 0.57082 0.58144 0.9768 0.0
H688 H 0.58781 0.6572 1.01903 0.0
H689 H 0.60423 0.76611 0.08419 0.0
H690 H 0.60973 0.70022 0.99444 0.0
H691 H 0.58342 0.72218 0.10943 0.0
H692 H 0.62468 0.50005 0.06193 0.0
H693 H 0.59799 0.38848 1.00554 0.0
H694 H 0.60448 0.4618 0.09225 0.0
H695 H 0.61739 0.42837 0.97433 0.0
Eu696 Eu 0.88839 0.3496 0.28755 0.0
Eu697 Eu 0.82756 0.3077 0.29487 0.0
C698 C 0.85727 0.36236 0.35692 0.0
C699 C 0.96588 0.39025 0.31517 0.0
C700 C 0.95921 0.3774 0.34256 0.0
C701 C 1.01681 0.4129 0.33997 0.0
C702 C 0.98123 0.38172 0.36815 0.0
C703 C 0.99453 0.40863 0.31418 0.0
C704 C 1.01039 0.39871 0.36662 0.0
C705 C 0.94275 0.38267 0.28772 0.0
O706 O 0.81077 0.35511 0.28696 0.0
O707 O 0.85561 0.38604 0.28186 0.0
C708 C 0.82551 0.38369 0.28426 0.0
O709 O 0.87297 0.32654 0.23508 0.0
O710 O 0.78922 0.28453 0.31759 0.0
O711 O 0.78897 0.27814 0.26487 0.0
O712 O 0.84788 0.28377 0.25017 0.0
C713 C 0.86252 0.29622 0.22831 0.0
O714 O 0.90433 0.30159 0.29586 0.0
O715 O 0.85971 0.27194 0.30443 0.0
O716 O 0.83531 0.33806 0.34594 0.0
O717 O 0.93535 0.3529 0.27446 0.0
O718 O 0.91883 0.39512 0.29332 0.0
O719 O 0.88086 0.36825 0.34022 0.0
C720 C 0.743 0.28106 0.2857 0.0
C721 C 0.73999 0.31272 0.29044 0.0
C722 C 0.69764 0.26625 0.24854 0.0
C723 C 0.71711 0.32124 0.2724 0.0
C724 C 0.72049 0.25777 0.2665 0.0
C725 C 0.6972 0.2981 0.24969 0.0
C726 C 0.77325 0.27366 0.28948 0.0
C727 C 0.88959 0.27365 0.30071 0.0
H728 H 0.93727 0.36292 0.34359 0.0
H729 H 1.0394 0.42586 0.33837 0.0
H730 H 0.97597 0.37054 0.38847 0.0
H731 H 0.99992 0.4187 0.29318 0.0
H732 H 0.75722 0.33102 0.3052 0.0
H733 H 0.68184 0.24803 0.23176 0.0
H734 H 0.71669 0.3459 0.27401 0.0
H735 H 0.72259 0.23327 0.26239 0.0
Eu736 Eu 0.10998 0.56424 0.57159 0.0
Eu737 Eu 0.10449 0.59473 0.50812 0.0
C738 C 0.0861 0.62769 0.57881 0.0
C739 C 0.08008 0.52754 0.64005 0.0
C740 C 0.07297 0.55134 0.66445 0.0
C741 C 1.03801 0.49064 0.65364 0.0
C742 C 0.04879 0.54481 0.68333 0.0
C743 C 0.06238 0.49712 0.63484 0.0
C744 C 1.03098 0.51445 0.67806 0.0
C745 C 0.10485 0.53439 0.61899 0.0
O746 O 0.15515 0.6078 0.52678 0.0
O747 O 0.16102 0.5837 0.56942 0.0
C748 C 0.17308 0.60045 0.54878 0.0
O749 O 0.13122 0.53415 0.53309 0.0
O750 O 0.11454 0.63989 0.49381 0.0
O751 O 0.09443 0.59776 0.45778 0.0
O752 O 0.12006 0.55002 0.4859 0.0
C753 C 0.13218 0.53176 0.50157 0.0
O754 O 0.05831 0.55452 0.5549 0.0
O755 O 0.05559 0.56803 0.50509 0.0
O756 O 0.07966 0.62042 0.54719 0.0
O757 O 0.0991 0.52046 0.58829 0.0
O758 O 0.11877 0.56365 0.62292 0.0
O759 O 0.10444 0.61354 0.59295 0.0
C760 C 0.13389 0.6339 0.44251 0.0
C761 C 0.14799 0.60969 0.42679 0.0
C762 C 0.17194 0.67201 0.42469 0.0
C763 C 0.17355 0.61651 0.40995 0.0
C764 C 0.14606 0.66512 0.44136 0.0
C765 C 0.18607 0.64775 0.40903 0.0
C766 C 0.10865 0.62703 0.46283 0.0
C767 C 0.04199 0.55639 0.52843 0.0
H768 H 0.08616 0.57501 0.66918 0.0
H769 H 1.02489 0.46696 0.64937 0.0
H770 H 0.04467 0.56337 0.7028 0.0
H771 H 0.06738 0.47833 0.61618 0.0
H772 H 0.13943 0.5854 0.42761 0.0
H773 H 0.18097 0.69626 0.42411 0.0
H774 H 0.18318 0.59716 0.39713 0.0
H775 H 0.13579 0.68418 0.45375 0.0
Eu776 Eu 0.82043 0.84042 0.29997 0.0
Eu777 Eu 0.88246 0.81381 0.29562 0.0
C778 C 0.81872 0.76328 0.30287 0.0
C779 C 0.74437 0.85614 0.32922 0.0
C780 C 0.73933 0.83032 0.34434 0.0
C781 C 0.70438 0.87714 0.35853 0.0
C782 C 0.7166 0.82767 0.36598 0.0
C783 C 0.7269 0.87961 0.33663 0.0
C784 C 0.69895 0.85109 0.37333 0.0
C785 C 0.76839 0.85936 0.30659 0.0
O786 O 0.86612 0.8049 0.24197 0.0
O787 O 0.82451 0.82876 0.24519 0.0
C788 C 0.8431 0.81343 0.22782 0.0
O789 O 0.85432 0.88627 0.29547 0.0
O790 O 0.90613 0.77422 0.28792 0.0
O791 O 0.93206 0.82154 0.30183 0.0
O792 O 0.89849 0.86696 0.29197 0.0
C793 C 0.88428 0.89137 0.29306 0.0
O794 O 0.83828 0.8504 0.35288 0.0
O795 O 0.88016 0.82724 0.35035 0.0
O796 O 0.84816 0.76797 0.29829 0.0
O797 O 0.79441 0.87643 0.31943 0.0
O798 O 0.7717 0.8338 0.28647 0.0
O799 O 0.8048 0.78795 0.30566 0.0
C800 C 0.95522 0.7827 0.27029 0.0
C801 C 0.96434 0.80013 0.24682 0.0
C802 C 0.98959 0.74742 0.25149 0.0
C803 C 0.98643 0.79157 0.22621 0.0
C804 C 0.96765 0.75612 0.27224 0.0
C805 C 0.99936 0.76523 0.22847 0.0
C806 C 0.93307 0.79178 0.29324 0.0
C807 C 0.86165 0.84283 0.36719 0.0
H808 H 0.75293 0.81222 0.33936 0.0
H809 H 0.69074 0.89525 0.36334 0.0
H810 H 0.71284 0.80736 0.37705 0.0
H811 H 0.73061 0.89981 0.32537 0.0
H812 H 0.9549 0.82068 0.24488 0.0
H813 H 0.9993 0.72712 0.25378 0.0
H814 H 0.99415 0.80626 0.20931 0.0
H815 H 0.96068 0.74234 0.29018 0.0
Eu816 Eu 0.87581 0.35515 0.78642 0.0
Eu817 Eu 0.82216 0.32271 0.82769 0.0
C818 C 0.80624 0.36369 0.77719 0.0
C819 C 0.9051 0.40541 0.72974 0.0
C820 C 0.89008 0.3911 0.69891 0.0
C821 C 0.89792 0.45638 0.72009 0.0
C822 C 0.87839 0.40896 0.67944 0.0
C823 C 0.90952 0.43837 0.73986 0.0
C824 C 0.88158 0.44162 0.69004 0.0
C825 C 0.91257 0.38566 0.75249 0.0
O826 O 0.81546 0.29907 0.77483 0.0
O827 O 0.86512 0.30307 0.76419 0.0
C828 C 0.83671 0.28856 0.75799 0.0
O829 O 0.90065 0.34017 0.82589 0.0
O830 O 0.78386 0.28429 0.82622 0.0
O831 O 0.80023 0.31605 0.87213 0.0
O832 O 0.8629 0.29995 0.83233 0.0
C833 C 0.89127 0.31496 0.83734 0.0
O834 O 0.86043 0.39164 0.82419 0.0
O835 O 0.85182 0.36305 0.86306 0.0
O836 O 0.80057 0.35744 0.80606 0.0
O837 O 0.90975 0.39638 0.7833 0.0
O838 O 0.90143 0.35562 0.74356 0.0
O839 O 0.83107 0.3584 0.76331 0.0
C840 C 0.79 0.26184 0.87157 0.0
C841 C 0.81146 0.2443 0.85811 0.0
C842 C 0.78659 0.23339 0.91553 0.0
C843 C 0.82124 0.22246 0.87383 0.0
C844 C 0.77692 0.25556 0.89985 0.0
C845 C 0.80964 0.21752 0.90322 0.0
C846 C 0.78427 0.28867 0.85785 0.0
C847 C 0.86077 0.39 0.85494 0.0
H848 H 0.88641 0.36588 0.69007 0.0
H849 H 0.90101 0.48161 0.72862 0.0
H850 H 0.86663 0.39709 0.65597 0.0
H851 H 0.92106 0.45008 0.76347 0.0
H852 H 0.82179 0.24851 0.83617 0.0
H853 H 0.77749 0.23016 0.93835 0.0
H854 H 0.83896 0.21048 0.86384 0.0
H855 H 0.76033 0.26879 0.91059 0.0
Eu856 Eu 0.86202 0.84561 0.81078 0.0
Eu857 Eu 0.82684 0.77551 0.76997 0.0
C858 C 0.84607 0.83252 0.73187 0.0
C859 C 0.87023 0.93066 0.83015 0.0
C860 C 0.85063 0.9245 0.80169 0.0
C861 C 0.86402 0.98513 0.84037 0.0
C862 C 0.83811 0.94831 0.79236 0.0
C863 C 0.87694 0.96113 0.84955 0.0
C864 C 0.84452 0.97875 0.81165 0.0
C865 C 0.88139 0.90417 0.8396 0.0
O866 O 0.87572 0.77821 0.7609 0.0
O867 O 0.90109 0.81978 0.80021 0.0
C868 C 0.901 0.79595 0.77557 0.0
O869 O 0.85037 0.81757 0.84983 0.0
O870 O 0.82055 0.73786 0.72638 0.0
O871 O 0.79283 0.73273 0.76625 0.0
O872 O 0.84379 0.76738 0.8192 0.0
C873 C 0.84601 0.787 0.84785 0.0
O874 O 0.81297 0.84742 0.79867 0.0
O875 O 0.79158 0.7968 0.79765 0.0
O876 O 0.82586 0.80714 0.73306 0.0
O877 O 0.86102 0.88525 0.85104 0.0
O878 O 0.89619 0.88878 0.81783 0.0
O879 O 0.86376 0.84847 0.75772 0.0
C880 C 0.81424 0.6892 0.74249 0.0
C881 C 0.80607 0.67405 0.76807 0.0
C882 C 0.85397 0.65832 0.73154 0.0
C883 C 0.82277 0.65262 0.77641 0.0
C884 C 0.83728 0.67983 0.72319 0.0
C885 C 0.84783 0.6458 0.75924 0.0
C886 C 0.80305 0.71823 0.74 0.0
C887 C 0.79031 0.82658 0.80426 0.0
H888 H 0.84455 0.90096 0.78693 0.0
H889 H 0.86909 1.00854 0.85566 0.0
H890 H 0.82272 0.94275 0.77049 0.0
H891 H 0.89169 0.96621 0.87185 0.0
H892 H 0.78819 0.6804 0.78318 0.0
H893 H 0.87256 0.65261 0.71724 0.0
H894 H 0.8173 0.64299 0.79766 0.0
H895 H 0.8438 0.69063 0.70293 0.0
Eu896 Eu 0.62665 0.61046 0.55655 0.0
Eu897 Eu 0.59027 0.54329 0.52887 0.0
C898 C 0.63642 0.57411 0.47833 0.0
C899 C 0.64406 0.69621 0.59323 0.0
C900 C 0.61341 0.69343 0.5999 0.0
C901 C 0.64703 0.75142 0.5946 0.0
C902 C 0.59893 0.71889 0.60072 0.0
C903 C 0.66139 0.72572 0.59311 0.0
C904 C 0.61521 0.7473 0.59524 0.0
C905 C 0.6548 0.66814 0.57751 0.0
O906 O 0.64063 0.53608 0.53282 0.0
O907 O 0.66522 0.5835 0.5621 0.0
C908 C 0.66641 0.55496 0.54613 0.0
O909 O 0.60242 0.60267 0.60359 0.0
O910 O 0.56527 0.50363 0.4918 0.0
O911 O 0.57355 0.49887 0.54174 0.0
O912 O 0.57175 0.55592 0.58136 0.0
C913 C 0.57927 0.58035 0.60664 0.0
O914 O 0.57661 0.61881 0.54991 0.0
O915 O 0.55113 0.56976 0.52529 0.0
O916 O 0.61182 0.55305 0.48075 0.0
O917 O 0.65484 0.64643 0.59447 0.0
O918 O 0.64292 0.65682 0.54754 0.0
O919 O 0.6458 0.59723 0.50452 0.0
C920 C 0.57566 0.45548 0.50199 0.0
C921 C 0.56039 0.42842 0.511 0.0
C922 C 0.62299 0.43639 0.50421 0.0
C923 C 0.57687 0.40667 0.51905 0.0
C924 C 0.60641 0.4579 0.49571 0.0
C925 C 0.6086 0.41209 0.51816 0.0
C926 C 0.56389 0.48441 0.51186 0.0
C927 C 0.55049 0.59923 0.53877 0.0
H928 H 0.59981 0.67068 0.6002 0.0
H929 H 0.66007 0.77331 0.59085 0.0
H930 H 0.57439 0.71489 0.60109 0.0
H931 H 0.68513 0.72814 0.58811 0.0
H932 H 0.53671 0.42634 0.51623 0.0
H933 H 0.64748 0.44088 0.50374 0.0
H934 H 0.56551 0.38809 0.53006 0.0
H935 H 0.61838 0.4787 0.48871 0.0
Eu936 Eu 0.13025 0.55663 1.02028 0.0
Eu937 Eu 0.08121 0.58434 0.06997 0.0
C938 C 0.13033 0.54809 0.09476 0.0
C939 C 0.19326 0.51445 0.99821 0.0
C940 C 0.18437 0.49412 1.01931 0.0
C941 C 0.24494 0.50557 1.0043 0.0
C942 C 0.2056 0.47955 0.03269 0.0
C943 C 0.22363 0.5199 0.99063 0.0
C944 C 0.23612 0.48545 1.0256 0.0
C945 C 0.17203 0.53316 0.98788 0.0
O946 O 0.12846 0.61207 0.08465 0.0
O947 O 0.14303 0.60916 0.03332 0.0
C948 C 0.14563 0.62367 0.06395 0.0
O949 O 0.09595 0.56873 0.98712 0.0
O950 O 0.06948 0.62653 0.09916 0.0
O951 O 1.04181 0.58097 0.09889 0.0
O952 O 0.0753 0.6032 1.02454 0.0
C953 C 0.07845 0.58969 0.99432 0.0
O954 O 0.09343 0.51677 1.02524 0.0
O955 O 0.05381 0.54305 0.03438 0.0
O956 O 0.10187 0.55192 0.09578 0.0
O957 O 0.14328 0.51993 0.98343 0.0
O958 O 0.17624 0.56207 1.00437 0.0
O959 O 0.14633 0.55396 0.07058 0.0
C960 C 1.01684 0.62452 0.10013 0.0
C961 C 0.99227 0.60656 0.0786 0.0
C962 C 0.9929 0.67023 0.10381 0.0
C963 C 0.96837 0.62042 0.06962 0.0
C964 C 1.01663 0.65632 0.11312 0.0
C965 C 0.96891 0.65259 0.0814 0.0
C966 C 0.04402 0.61148 0.10693 0.0
C967 C 0.06427 0.51748 1.0233 0.0
H968 H 0.16119 0.49016 1.02619 0.0
H969 H 0.26839 0.51035 0.99841 0.0
H970 H 0.19836 0.46443 0.04934 0.0
H971 H 0.23103 0.53593 0.97491 0.0
H972 H 0.99188 0.58205 0.06795 0.0
H973 H 0.99335 0.6948 0.11398 0.0
H974 H 0.95003 0.60627 0.05243 0.0
H975 H 1.03528 0.67064 0.12981 0.0
C976 C 0.05708 0.29777 0.07058 0.0
C977 C 0.06404 0.30105 0.03888 0.0
C978 C 0.07499 0.28364 0.08919 0.0
C979 C 0.10071 0.27275 0.07693 0.0
H980 H 1.03738 0.3057 0.08099 0.0
H981 H 0.06836 0.28063 0.11303 0.0
S982 S 0.12895 0.27554 0.99545 0.0
N983 N 0.09892 0.29242 0.99635 0.0
N984 N 0.13202 0.26552 0.03102 0.0
C985 C 0.10817 0.27623 0.04549 0.0
C986 C 0.08998 0.29043 1.02654 0.0
C987 C 0.22933 0.85247 0.22991 0.0
C988 C 0.23712 0.85513 0.19825 0.0
C989 C 0.25178 0.8563 0.25545 0.0
C990 C 0.28274 0.86306 0.25017 0.0
H991 H 0.2058 0.84532 0.23454 0.0
H992 H 0.24484 0.85159 0.27864 0.0
S993 S 0.31503 0.8772 0.17314 0.0
N994 N 0.27791 0.86842 0.16416 0.0
N995 N 0.31992 0.87703 0.2122 0.0
C996 C 0.29064 0.86929 0.21959 0.0
C997 C 0.26787 0.86495 0.19356 0.0
C998 C 0.52596 0.93136 0.51752 0.0
C999 C 0.52783 0.91938 0.48409 0.0
C1000 C 0.53571 0.96329 0.53116 0.0
C1001 C 0.54735 0.9842 0.5117 0.0
H1002 H 0.51957 0.9157 0.53389 0.0
H1003 H 0.53644 0.97104 0.5574 0.0
S1004 S 0.54709 0.96627 0.42142 0.0
N1005 N 0.5351 0.93191 0.43081 0.0
N1006 N 0.553 0.99224 0.45638 0.0
C1007 C 0.54499 0.9733 0.47762 0.0
C1008 C 0.53518 0.94072 0.46375 0.0
C1009 C 0.55378 0.29945 0.66036 0.0
C1010 C 0.57865 0.28603 0.66775 0.0
C1011 C 0.52746 0.2953 0.67709 0.0
C1012 C 0.52533 0.27737 0.70134 0.0
H1013 H 0.55562 0.31525 0.6436 0.0
H1014 H 0.50973 0.30811 0.67273 0.0
S1015 S 0.58191 0.23166 0.72367 0.0
N1016 N 0.59814 0.25058 0.6969 0.0
N1017 N 0.54815 0.24156 0.72739 0.0
C1018 C 0.54889 0.26116 0.70621 0.0
C1019 C 0.57578 0.26585 0.68965 0.0
C1020 C 0.08242 0.88408 0.6225 0.0
C1021 C 0.05365 0.86514 0.61306 0.0
C1022 C 0.0973 0.90156 0.6015 0.0
C1023 C 0.08369 0.90146 0.57044 0.0
H1024 H 0.09417 0.88422 0.64565 0.0
H1025 H 0.12 0.91475 0.60958 0.0
S1026 S 1.00735 0.85599 0.53537 0.0
N1027 N 1.01183 0.84672 0.57121 0.0
N1028 N 1.0385 0.88116 0.53237 0.0
C1029 C 0.05439 0.88287 0.56118 0.0
C1030 C 1.03969 0.86443 0.58235 0.0
C1031 C 0.5956 0.92394 0.89973 0.0
C1032 C 0.59023 0.91144 0.92756 0.0
C1033 C 0.57151 0.92592 0.87852 0.0
C1034 C 0.54119 0.91478 0.88403 0.0
H1035 H 0.61868 0.93149 0.89387 0.0
H1036 H 0.57672 0.93512 0.85696 0.0
S1037 S 0.51547 0.8807 0.95436 0.0
N1038 N 0.55294 0.8893 0.96081 0.0
N1039 N 0.50722 0.89155 0.92012 0.0
C1040 C 0.53553 0.90332 0.91262 0.0
C1041 C 0.56021 0.90192 0.93458 0.0
C1042 C 0.5728 0.19755 0.13899 0.0
C1043 C 0.54579 0.20365 0.12528 0.0
C1044 C 0.58356 0.16997 0.12622 0.0
C1045 C 0.56749 0.14802 0.09945 0.0
H1046 H 0.58754 0.21583 0.1568 0.0
H1047 H 0.60597 0.16757 0.13492 0.0
S1048 S 0.49199 0.14966 0.06069 0.0
N1049 N 0.50075 0.18316 0.08788 0.0
N1050 N 0.52044 0.13104 0.06427 0.0
C1051 C 0.53849 0.15194 0.08876 0.0
C1052 C 0.52771 0.17992 0.10164 0.0
C1053 C 0.23117 0.30946 0.36518 0.0
C1054 C 0.22007 0.33744 0.36743 0.0
C1055 C 0.25128 0.30108 0.34166 0.0
C1056 C 0.26125 0.32075 0.32008 0.0
H1057 H 0.22516 0.29459 0.38239 0.0
H1058 H 0.26054 0.28008 0.34187 0.0
S1059 S 0.23629 0.39536 0.31494 0.0
N1060 N 0.21831 0.38364 0.34511 0.0
N1061 N 0.25649 0.36832 0.30123 0.0
C1062 C 0.24898 0.34806 0.32127 0.0
C1063 C 0.22832 0.35634 0.34495 0.0
C1064 C 1.03227 0.05824 0.17812 0.0
C1065 C 1.02755 0.0865 0.19931 0.0
C1066 C 0.04868 0.05713 0.14895 0.0
C1067 C 0.06323 0.08431 0.1383 0.0
H1068 H 1.02356 0.03605 0.18461 0.0
H1069 H 0.05057 1.03426 0.13494 0.0
S1070 S 0.05988 0.16544 0.18391 0.0
N1071 N 1.04039 0.14309 0.20597 0.0
N1072 N 0.07071 0.14135 0.15304 0.0
C1073 C 0.05874 0.1129 0.15914 0.0
C1074 C 1.04149 0.11394 0.18869 0.0
C1075 C 0.32587 0.66472 0.46404 0.0
C1076 C 0.35726 0.67317 0.4729 0.0
C1077 C 0.31196 0.67902 0.44194 0.0
C1078 C 0.32925 0.70127 0.42708 0.0
H1079 H 0.31183 0.64844 0.47581 0.0
H1080 H 0.28746 0.67347 0.43725 0.0
S1081 S 0.41277 0.72969 0.4409 0.0
N1082 N 0.4054 0.70428 0.46475 0.0
N1083 N 0.37978 0.72996 0.42191 0.0
C1084 C 0.361 0.70844 0.43441 0.0
C1085 C 0.3749 0.6946 0.45761 0.0
C1086 C 0.69839 0.05761 0.65618 0.0
C1087 C 0.68719 0.06078 0.68719 0.0
C1088 C 0.67823 0.04914 0.62792 0.0
C1089 C 0.64651 0.04397 0.63018 0.0
H1090 H 0.72236 0.06537 0.65381 0.0
H1091 H 0.68744 0.05035 0.60466 0.0
S1092 S 0.60667 0.04023 0.70502 0.0
N1093 N 0.64309 0.05076 0.71798 0.0
N1094 N 0.6053 0.03582 0.66495 0.0
C1095 C 0.63546 0.04255 0.66061 0.0
C1096 C 0.65587 0.05061 0.68917 0.0
C1097 C 0.3614 0.39137 0.95566 0.0
C1098 C 0.38106 0.37967 0.97525 0.0
C1099 C 0.35521 0.37878 0.92209 0.0
C1100 C 0.36881 0.35419 0.90602 0.0
H1101 H 0.35034 0.41044 0.96639 0.0
H1102 H 0.34002 0.38904 0.9085 0.0
S1103 S 0.42196 0.31475 0.94594 0.0
N1104 N 0.41367 0.34144 0.97614 0.0
N1105 N 0.40289 0.31829 0.91272 0.0
C1106 C 0.38856 0.34212 0.92525 0.0
C1107 C 0.39439 0.35463 0.95985 0.0
C1108 C 1.01061 0.10249 0.41452 0.0
C1109 C 1.01956 0.09297 0.38234 0.0
C1110 C 1.02668 0.09863 0.44379 0.0
C1111 C 0.05296 0.08427 0.44384 0.0
H1112 H 0.99092 0.1136 0.41738 0.0
H1113 H 1.01805 0.10703 0.46696 0.0
S1114 S 0.0868 0.0543 0.36677 0.0
N1115 N 0.05776 0.06817 0.35362 0.0
N1116 N 0.08648 0.06034 0.40687 0.0
C1117 C 0.06195 0.07434 0.41179 0.0
C1118 C 0.04591 0.07878 0.38202 0.0
C1119 C 0.3638 0.72185 0.66591 0.0
C1120 C 0.38392 0.73242 0.64394 0.0
C1121 C 0.35729 0.74264 0.69388 0.0
C1122 C 0.37033 0.77508 0.70104 0.0
H1123 H 0.35122 0.69789 0.66021 0.0
H1124 H 0.34095 0.73331 0.70939 0.0
S1125 S 0.42734 0.81375 0.65309 0.0
N1126 N 0.41882 0.77688 0.63275 0.0
N1127 N 0.40688 0.81569 0.68497 0.0
C1128 C 0.39188 0.78545 0.68022 0.0
C1129 C 0.39859 0.76424 0.65192 0.0
C1130 C 0.74127 0.13959 0.86057 0.0
C1131 C 0.74357 0.15786 0.83685 0.0
C1132 C 0.72147 0.14432 0.8851 0.0
C1133 C 0.70406 0.16806 0.88727 0.0
H1134 H 0.75243 0.11949 0.85826 0.0
H1135 H 0.71823 0.12783 0.9011 0.0
S1136 S 0.70577 0.22525 0.83366 0.0
N1137 N 0.7293 0.20225 0.81834 0.0
N1138 N 0.69308 0.21237 0.86581 0.0
C1139 C 0.70821 0.18825 0.86531 0.0
C1140 C 0.72791 0.18294 0.83982 0.0
C1141 C 0.37659 0.33553 0.15248 0.0
C1142 C 0.3743 0.36555 0.14695 0.0
C1143 C 0.36714 0.32573 0.18102 0.0
C1144 C 0.35536 0.34555 0.20603 0.0
H1145 H 0.38589 0.31925 0.13457 0.0
H1146 H 0.37013 0.30264 0.18395 0.0
S1147 S 0.34277 0.42583 0.20357 0.0
N1148 N 0.35766 0.41449 0.16886 0.0
N1149 N 0.34089 0.39645 0.22269 0.0
C1150 C 0.35258 0.3755 0.20084 0.0
C1151 C 0.3617 0.38533 0.17137 0.0
C1152 C 0.25496 0.0606 0.04157 0.0
C1153 C 0.25789 1.02861 0.03291 0.0
C1154 C 0.22631 0.07011 0.04757 0.0
C1155 C 0.19834 0.0484 0.04534 0.0
H1156 H 0.27507 0.0787 0.04358 0.0
H1157 H 0.22613 0.09505 0.0535 0.0
S1158 S 0.1924 0.96157 1.02396 0.0
N1159 N 0.22907 0.97515 1.02299 0.0
N1160 N 0.17647 0.99274 0.03381 0.0
C1161 C 0.201 1.01636 0.0369 0.0
C1162 C 0.23013 1.00666 0.03089 0.0
C1163 C 0.70263 0.69537 1.01906 0.0
C1164 C 0.73095 0.68787 1.01065 0.0
C1165 C 0.67769 0.67197 1.02164 0.0
C1166 C 0.67955 0.63979 1.0154 0.0
H1167 H 0.69991 0.71968 1.02491 0.0
H1168 H 0.65687 0.67937 0.02923 0.0
S1169 S 0.74782 0.60719 0.98986 0.0
N1170 N 0.75886 0.64553 0.99432 0.0
N1171 N 0.71195 0.60171 0.99866 0.0
C1172 C 0.70736 0.63181 1.00563 0.0
C1173 C 0.73298 0.65574 1.00342 0.0
C1174 C 0.76076 0.44048 0.28958 0.0
C1175 C 0.77526 0.47173 0.28716 0.0
C1176 C 0.77617 0.41338 0.28833 0.0
C1177 C 0.80816 0.41384 0.2845 0.0
H1178 H 0.73663 0.43662 0.29272 0.0
H1179 H 0.76237 0.39141 0.29072 0.0
S1180 S 0.85894 0.48876 0.27729 0.0
N1181 N 0.82558 0.49964 0.2808 0.0
N1182 N 0.8532 0.45114 0.27865 0.0
C1183 C 0.8229 0.44495 0.28212 0.0
C1184 C 0.80721 0.47252 0.28335 0.0
C1185 C 0.96035 0.52306 0.54886 0.0
C1186 C 0.94068 0.52406 0.5219 0.0
C1187 C 0.99234 0.5339 0.55089 0.0
C1188 C 1.00712 0.54601 0.52575 0.0
H1189 H 0.95097 0.51254 0.5683 0.0
H1190 H 1.00569 0.53192 0.57224 0.0
S1191 S 0.96657 0.554 0.44934 0.0
N1192 N 0.93891 0.53848 0.4693 0.0
N1193 N 0.99837 0.55886 0.47281 0.0
C1194 C 0.98762 0.54778 0.49882 0.0
C1195 C 0.95484 0.53682 0.49692 0.0
C1196 C 0.39961 0.07919 0.28243 0.0
C1197 C 0.43144 0.08731 0.28925 0.0
C1198 C 0.38358 0.09801 0.26798 0.0
C1199 C 0.39881 0.1256 0.25988 0.0
H1200 H 0.3867 0.05889 0.2896 0.0
H1201 H 0.35895 0.09202 0.26515 0.0
S1202 S 0.48222 0.15443 0.26716 0.0
N1203 N 0.47792 0.12266 0.28275 0.0
N1204 N 0.44757 0.15809 0.25553 0.0
C1205 C 0.43077 0.13266 0.26406 0.0
C1206 C 0.44716 0.11347 0.27874 0.0
C1207 C 0.42321 0.21065 0.55851 0.0
C1208 C 0.39295 0.1941 0.55469 0.0
C1209 C 0.44702 0.19806 0.57047 0.0
C1210 C 0.44133 0.16865 0.57931 0.0
H1211 H 0.42857 0.23345 0.5522 0.0
H1212 H 0.47003 0.21143 0.57292 0.0
S1213 S 0.3666 0.11516 0.57267 0.0
N1214 N 0.35896 0.14615 0.56005 0.0
N1215 N 0.40365 0.12278 0.58221 0.0
C1216 C 0.4113 0.15184 0.57546 0.0
C1217 C 0.38715 0.16448 0.56323 0.0
C1218 C 0.79595 0.66993 0.29931 0.0
C1219 C 0.76526 0.66444 0.30803 0.0
C1220 C 0.81289 0.70097 0.29798 0.0
C1221 C 0.80069 0.72934 0.30496 0.0
H1222 H 0.80713 0.65 0.29304 0.0
H1223 H 0.83599 0.70258 0.29095 0.0
S1224 S 0.72209 0.73027 0.3302 0.0
N1225 N 0.72452 0.69285 0.32485 0.0
N1226 N 0.75524 0.74836 0.32171 0.0
C1227 C 0.77033 0.72414 0.31389 0.0
C1228 C 0.75323 0.69297 0.31555 0.0
C1229 C 0.89394 0.47368 0.88663 0.0
C1230 C 0.92469 0.4718 0.89297 0.0
C1231 C 0.8714 0.44658 0.87871 0.0
C1232 C 0.87863 0.41698 0.87823 0.0
H1233 H 0.88769 0.49561 0.88376 0.0
H1234 H 0.84897 0.44848 0.8695 0.0
S1235 S 0.95306 0.40036 0.90422 0.0
N1236 N 0.95948 0.43868 0.9063 0.0
N1237 N 0.91653 0.38784 0.89247 0.0
C1238 C 0.90787 0.41536 0.89037 0.0
C1239 C 0.93113 0.44289 0.89771 0.0
C1240 C 0.10742 0.8769 0.12432 0.0
C1241 C 0.13174 0.86296 0.11245 0.0
C1242 C 0.09385 0.89525 0.10681 0.0
C1243 C 0.10427 0.9005 0.07696 0.0
H1244 H 0.09809 0.87286 0.1468 0.0
H1245 H 0.0748 0.90512 0.11652 0.0
S1246 S 0.16928 0.87197 0.037 0.0
N1247 N 0.16693 0.85711 0.07006 0.0
N1248 N 0.14174 0.89238 0.03741 0.0
C1249 C 0.12917 0.88753 0.06527 0.0
C1250 C 0.1429 0.86863 0.08302 0.0
C1251 C 0.92137 0.30618 0.91891 0.0
C1252 C 0.95297 0.31248 0.91648 0.0
C1253 C 0.90097 0.30334 0.89174 0.0
C1254 C 0.91168 0.30753 0.86164 0.0
H1255 H 0.91238 0.30504 0.94227 0.0
H1256 H 0.87685 0.30059 0.89508 0.0
S1257 S 0.99186 0.3206 0.84136 0.0
N1258 N 0.99376 0.31928 0.88037 0.0
N1259 N 0.95525 0.31494 0.82986 0.0
C1260 C 0.94298 0.31144 0.85825 0.0
C1261 C 0.96372 0.31367 0.88559 0.0
C1262 C 0.64726 0.21208 0.62405 0.0
C1263 C 0.6733 0.2264 0.61117 0.0
C1264 C 0.63527 0.1802 0.61338 0.0
C1265 C 0.64913 0.16118 0.58998 0.0
H1266 H 0.63477 0.22582 0.64109 0.0
H1267 H 0.61434 0.17058 0.62281 0.0
S1268 S 0.72038 0.18552 0.55252 0.0
N1269 N 0.71457 0.21815 0.57642 0.0
N1270 N 0.69206 0.15758 0.55687 0.0
C1271 C 0.67655 0.17431 0.57889 0.0
C1272 C 0.68863 0.20712 0.58937 0.0
C1273 C 0.62526 0.8171 0.40508 0.0
C1274 C 0.62098 0.84143 0.43079 0.0
C1275 C 0.65116 0.81996 0.38754 0.0
C1276 C 0.67362 0.84743 0.39474 0.0
H1277 H 0.60809 0.79591 0.39784 0.0
H1278 H 0.65301 0.80102 0.36732 0.0
S1279 S 0.67474 0.91703 0.46127 0.0
N1280 N 0.64255 0.89318 0.46389 0.0
N1281 N 0.69111 0.89855 0.43065 0.0
C1282 C 0.67029 0.87146 0.42114 0.0
C1283 C 0.64404 0.86843 0.43929 0.0
C1284 C 0.1249 0.29241 0.48476 0.0
C1285 C 0.15414 0.30943 0.49645 0.0
C1286 C 0.11062 0.26846 0.49937 0.0
C1287 C 0.12519 0.26043 0.52604 0.0
H1288 H 0.11222 0.29893 0.46546 0.0
H1289 H 0.08755 0.25694 0.4904 0.0
S1290 S 0.204 0.29508 0.56224 0.0
N1291 N 0.19826 0.31533 0.53424 0.0
N1292 N 0.17231 0.26905 0.56066 0.0
C1293 C 0.15528 0.27615 0.5366 0.0
C1294 C 0.16953 0.30095 0.52206 0.0
C1295 C 0.63554 0.33014 0.2107 0.0
C1296 C 0.63564 0.31626 0.17738 0.0
C1297 C 0.6566 0.32561 0.23406 0.0
C1298 C 0.67822 0.30688 0.22479 0.0
H1299 H 0.61783 0.34293 0.21905 0.0
H1300 H 0.65479 0.33522 0.2596 0.0
S1301 S 0.69169 0.27006 0.14051 0.0
N1302 N 0.66186 0.28653 0.13608 0.0
N1303 N 0.70164 0.27825 0.18007 0.0
C1304 C 0.68038 0.29529 0.19141 0.0
C1305 C 0.65909 0.30005 0.16761 0.0
C1306 C 0.66761 0.98127 0.93976 0.0
C1307 C 0.68092 0.96753 0.96298 0.0
C1308 C 0.65083 1.00509 0.94944 0.0
C1309 C 0.6467 1.01543 0.98248 0.0
H1310 H 0.66842 0.97224 0.91392 0.0
H1311 H 0.6397 1.01415 0.93097 0.0
S1312 S 0.6821 0.99196 0.05289 0.0
N1313 N 0.69318 0.97011 1.02055 0.0
N1314 N 0.66069 1.01376 0.03854 0.0
C1315 C 0.66196 1.00381 1.00592 0.0
C1316 C 0.67949 0.98022 0.99619 0.0
C1317 C 0.9807 0.81551 0.74846 0.0
C1318 C 0.97885 0.79423 0.71829 0.0
C1319 C 0.95623 0.81468 0.76834 0.0
C1320 C 0.92934 0.79204 0.75908 0.0
H1321 H 1.00057 0.83396 0.75595 0.0
H1322 H 0.9579 0.83284 0.79026 0.0
S1323 S 0.91625 0.72712 0.68504 0.0
N1324 N 0.95 0.74782 0.6818 0.0
N1325 N 0.90469 0.74471 0.71952 0.0
C1326 C 0.92859 0.76886 0.73016 0.0
C1327 C 0.95311 0.77041 0.70961 0.0
C1328 C 0.15797 0.06089 0.88425 0.0
C1329 C 0.19052 0.06754 0.88474 0.0
C1330 C 0.14115 0.06441 0.91326 0.0
C1331 C 0.15511 0.07604 0.94573 0.0
H1332 H 0.14498 0.05223 0.86085 0.0
H1333 H 0.11657 0.0582 0.90997 0.0
S1334 S 0.23964 0.09693 0.96284 0.0
N1335 N 0.23552 0.08581 0.92264 0.0
N1336 N 0.20495 0.09363 0.9753 0.0
C1337 C 0.18762 0.08302 0.94656 0.0
C1338 C 0.20476 0.07855 0.91709 0.0
C1339 C 0.82827 0.45726 0.62622 0.0
C1340 C 0.84778 0.47801 0.61169 0.0
C1341 C 0.83832 0.44836 0.6544 0.0
C1342 C 0.86839 0.45948 0.66849 0.0
H1343 H 0.80642 0.44523 0.6138 0.0
H1344 H 0.82348 0.43033 0.66335 0.0
S1345 S 0.92668 0.51741 0.6417 0.0
N1346 N 0.89681 0.51253 0.61549 0.0
N1347 N 0.91617 0.49515 0.66799 0.0
C1348 C 0.88686 0.4829 0.65627 0.0
C1349 C 0.87637 0.49235 0.62789 0.0
C1350 C 0.51022 0.08956 0.44302 0.0
C1351 C 0.52161 0.07913 0.41298 0.0
C1352 C 0.52884 0.09602 0.47217 0.0
C1353 C 0.55953 0.09249 0.47222 0.0
H1354 H 0.48638 0.09095 0.44426 0.0
H1355 H 0.5186 0.10214 0.49492 0.0
S1356 S 0.60147 0.07134 0.39912 0.0
N1357 N 0.56633 0.06974 0.38444 0.0
N1358 N 0.60134 0.0819 0.4391 0.0
C1359 C 0.57183 0.08489 0.44203 0.0
C1360 C 0.55281 0.07809 0.41242 0.0
C1361 C 0.84586 0.77201 0.13817 0.0
C1362 C 0.82533 0.78464 0.12051 0.0
C1363 C 0.85183 0.78181 0.17242 0.0
C1364 C 0.83735 0.80453 0.19103 0.0
H1365 H 0.85761 0.75436 0.12544 0.0
H1366 H 0.8677 0.77103 0.18444 0.0
S1367 S 0.7817 0.84543 0.15711 0.0
N1368 N 0.79069 0.82167 0.12485 0.0
N1369 N 0.80162 0.83966 0.18859 0.0
C1370 C 0.81684 0.81745 0.17369 0.0
C1371 C 0.81095 0.80768 0.13878 0.0
C1372 C 0.16178 0.08515 0.69537 0.0
C1373 C 0.18082 0.06329 0.70071 0.0
C1374 C 0.14764 0.08634 0.66433 0.0
C1375 C 0.15089 0.06591 0.63455 0.0
H1376 H 0.15723 0.10231 0.71596 0.0
H1377 H 0.1337 0.10394 0.66393 0.0
S1378 S 0.19835 1.00366 0.63126 0.0
N1379 N 0.20183 1.02018 0.67057 0.0
N1380 N 0.17629 1.02257 0.61317 0.0
C1381 C 0.17025 0.04399 0.63883 0.0
C1382 C 0.18475 0.04268 0.67101 0.0
C1383 C 0.85783 0.44287 0.4124 0.0
C1384 C 0.84221 0.43554 0.43902 0.0
C1385 C 0.86363 0.41898 0.38683 0.0
C1386 C 0.85344 0.38669 0.38631 0.0
H1387 H 0.86612 0.4672 0.41157 0.0
H1388 H 0.87557 0.42595 0.36681 0.0
S1389 S 0.81068 0.35499 0.44977 0.0
N1390 N 0.81663 0.39348 0.46318 0.0
N1391 N 0.82639 0.34907 0.41473 0.0
C1392 C 0.83742 0.37915 0.41255 0.0
C1393 C 0.83218 0.40339 0.43895 0.0
C1394 C 0.51999 0.96802 0.24642 0.0
C1395 C 0.49991 0.98854 0.25648 0.0
C1396 C 0.53315 0.96735 0.21675 0.0
C1397 C 0.52689 0.98736 0.19625 0.0
H1398 H 0.52732 0.95405 0.26263 0.0
H1399 H 0.55003 0.95273 0.21093 0.0
S1400 S 0.47216 0.04184 0.20902 0.0
N1401 N 0.47093 1.02595 0.24137 0.0
N1402 N 0.49649 1.02546 0.18614 0.0
C1403 C 0.50442 1.00552 0.20437 0.0
C1404 C 0.49067 1.00589 0.23441 0.0
C1405 C 0.83514 0.78508 0.93828 0.0
C1406 C 0.83187 0.75305 0.93949 0.0
C1407 C 0.84015 0.79564 0.90893 0.0
C1408 C 0.84205 0.77478 0.87902 0.0
H1409 H 0.83412 0.80235 0.9603 0.0
H1410 H 0.84233 0.82057 0.90982 0.0
S1411 S 0.83451 0.68821 0.86836 0.0
N1412 N 0.83064 0.70039 0.90753 0.0
N1413 N 0.83978 0.72006 0.85292 0.0
C1414 C 0.83859 0.74261 0.87984 0.0
C1415 C 0.8336 0.73186 0.90978 0.0
C1416 C 0.96437 0.10189 0.04748 0.0
C1417 C 0.96029 0.13342 0.05072 0.0
C1418 C 0.99327 0.09266 0.04201 0.0
C1419 C 1.02037 0.11428 0.03977 0.0
H1420 H 0.94488 0.08388 0.04859 0.0
H1421 H 0.99436 0.06809 0.03989 0.0
S1422 S 1.02314 0.19994 0.04664 0.0
N1423 N 0.98711 0.1863 0.05095 0.0
N1424 N 1.04021 0.16933 0.04172 0.0
C1425 C 1.01664 0.14589 0.04337 0.0
C1426 C 0.98722 0.15522 0.04844 0.0
C1427 C 0.50473 0.45472 0.05854 0.0
C1428 C 0.47615 0.46076 0.06801 0.0
C1429 C 0.52885 0.47906 0.05632 0.0
C1430 C 0.52601 0.51097 0.06358 0.0
H1431 H 0.50849 0.43082 0.05195 0.0
H1432 H 0.54987 0.47249 0.04813 0.0
S1433 S 0.45677 0.54023 0.09166 0.0
N1434 N 0.44698 0.50166 0.0863 0.0
N1435 N 0.49241 0.54728 0.08226 0.0
C1436 C 0.49797 0.51761 0.07429 0.0
C1437 C 0.47317 0.49262 0.07643 0.0
C1438 C 0.40447 0.6848 0.7981 0.0
C1439 C 0.4368 0.68514 0.79992 0.0
C1440 C 0.39017 0.71261 0.79958 0.0
C1441 C 0.40622 0.74447 0.80253 0.0
H1442 H 0.38945 0.66231 0.79565 0.0
H1443 H 0.36556 0.70869 0.79793 0.0
S1444 S 0.49152 0.76135 0.80792 0.0
N1445 N 0.48404 0.72293 0.80516 0.0
N1446 N 0.45834 0.77273 0.80681 0.0
C1447 C 0.43858 0.74515 0.80406 0.0
C1448 C 0.45318 0.71687 0.80312 0.0
C1449 C 0.26204 0.61566 0.57066 0.0
C1450 C 0.27426 0.63344 0.54805 0.0
C1451 C 0.22979 0.60476 0.57091 0.0
C1452 C 0.20789 0.61124 0.54881 0.0
H1453 H 0.27727 0.6112 0.58916 0.0
H1454 H 0.22198 0.59165 0.58909 0.0
S1455 S 0.22767 0.65609 0.48404 0.0
N1456 N 0.26084 0.65564 0.50219 0.0
N1457 N 0.20224 0.63629 0.50303 0.0
C1458 C 0.22015 0.6283 0.52576 0.0
C1459 C 0.2525 0.63898 0.52532 0.0
C1460 C 0.81723 1.03151 0.7604 0.0
C1461 C 0.79635 0.04532 0.77978 0.0
C1462 C 0.83321 1.01038 0.77115 0.0
C1463 C 0.82945 1.00305 0.80199 0.0
H1464 H 0.82097 0.03677 0.73662 0.0
H1465 H 0.84859 0.99963 0.75524 0.0
S1466 S 0.77859 1.0338 0.8626 0.0
N1467 N 0.77332 0.05063 0.83163 0.0
N1468 N 0.80382 1.01134 0.85187 0.0
C1469 C 0.80913 1.0171 0.82183 0.0
C1470 C 0.79243 0.03811 0.81069 0.0
C1471 C 0.81261 0.98048 0.57192 0.0
C1472 C 0.80899 0.94748 0.56475 0.0
C1473 C 0.7897 0.99549 0.56251 0.0
C1474 C 0.76218 0.97807 0.54597 0.0
H1475 H 0.83386 0.99499 0.58349 0.0
H1476 H 0.79378 1.02094 0.56763 0.0
S1477 S 0.74008 0.89123 0.52376 0.0
N1478 N 0.77474 0.89784 0.54195 0.0
N1479 N 0.7317 0.92621 0.52442 0.0
C1480 C 0.75753 0.94512 0.54019 0.0
C1481 C 0.78093 0.92978 0.54958 0.0
C1482 C 0.40914 0.48689 0.80076 0.0
C1483 C 0.43995 0.49223 0.79235 0.0
C1484 C 0.39174 0.45579 0.80126 0.0
C1485 C 0.40352 0.4272 0.79354 0.0
H1486 H 0.39836 0.50701 0.80787 0.0
H1487 H 0.36868 0.45433 0.8084 0.0
S1488 S 0.48187 0.42601 0.7674 0.0
N1489 N 0.48003 0.46364 0.77411 0.0
N1490 N 0.4486 0.4079 0.77562 0.0
C1491 C 0.4339 0.43229 0.78448 0.0
C1492 C 0.45144 0.46356 0.78377 0.0
C1493 C 0.29248 0.71776 0.21217 0.0
C1494 C 0.29946 0.69485 0.22854 0.0
C1495 C 0.31153 0.74723 0.21713 0.0
C1496 C 0.33762 0.75476 0.23914 0.0
H1497 H 0.27068 0.71411 0.19834 0.0
H1498 H 0.30342 0.76559 0.20757 0.0
S1499 S 0.36907 0.70079 0.28223 0.0
N1500 N 0.33714 0.67954 0.26246 0.0
N1501 N 0.37243 0.73549 0.27243 0.0
C1502 C 0.3472 0.7306 0.25151 0.0
C1503 C 0.32802 0.7004 0.2462 0.0
C1504 C 0.58833 0.78631 0.53082 0.0
C1505 C 0.5613 0.79496 0.54204 0.0
C1506 C 0.60655 0.77285 0.54944 0.0
C1507 C 0.59857 0.76743 0.5801 0.0
H1508 H 0.59559 0.7898 0.50733 0.0
H1509 H 0.6264 0.76536 0.53893 0.0
S1510 S 0.5309 0.7869 0.62151 0.0
N1511 N 0.52783 0.79803 0.58645 0.0
N1512 N 0.56258 0.77265 0.62158 0.0
C1513 C 0.57205 0.77658 0.59212 0.0
C1514 C 0.55333 0.79039 0.57309 0.0
C1515 C 0.77015 0.37853 0.70129 0.0
C1516 C 0.73981 0.36362 0.70154 0.0
C1517 C 0.791 0.38221 0.72814 0.0
C1518 C 0.78237 0.37072 0.75602 0.0
H1519 H 0.77843 0.38541 0.67945 0.0
H1520 H 0.81465 0.3917 0.72584 0.0
S1521 S 0.70418 0.33695 0.77207 0.0
N1522 N 0.70084 0.34306 0.7347 0.0
N1523 N 0.7405 0.34929 0.7847 0.0
C1524 C 0.75143 0.35953 0.75828 0.0
C1525 C 0.73001 0.35605 0.73104 0.0
C1526 C 1.02015 0.43628 1.01338 0.0
C1527 C 1.02312 0.42396 0.98023 0.0
C1528 C 1.03053 0.46817 0.02706 0.0
C1529 C 0.04348 0.48855 1.00776 0.0
H1530 H 1.01278 0.42078 0.02964 0.0
H1531 H 1.03107 0.47624 0.05325 0.0
S1532 S 0.04818 0.47023 0.91843 0.0
N1533 N 1.03377 0.43618 0.92732 0.0
N1534 N 0.05321 0.49627 0.95335 0.0
C1535 C 0.04254 0.47759 0.97398 0.0
C1536 C 1.03207 0.44515 0.95999 0.0
C1537 C 0.07933 0.75642 0.20968 0.0
C1538 C 0.07999 0.76023 0.17727 0.0
C1539 C 0.05241 0.75558 0.22543 0.0
C1540 C 1.02526 0.75858 0.20929 0.0
H1541 H 0.10015 0.75631 0.22376 0.0
H1542 H 0.05343 0.75496 0.25111 0.0
S1543 S 1.01361 0.76357 0.12279 0.0
N1544 N 0.05014 0.7627 0.12824 0.0
N1545 N 0.99954 0.76096 0.15802 0.0
C1546 C 1.02493 0.75931 0.17603 0.0
C1547 C 0.0523 0.76004 0.1599 0.0
C1548 C 0.58003 0.38293 0.12268 0.0
C1549 C 0.55385 0.36046 0.11019 0.0
C1550 C 0.5951 0.40188 0.10309 0.0
C1551 C 0.5842 0.39951 0.07046 0.0
H1552 H 0.58957 0.3851 0.14737 0.0
H1553 H 0.6156 0.41846 0.11361 0.0
S1554 S 0.51496 0.34539 0.02732 0.0
N1555 N 0.51717 0.3369 0.06379 0.0
N1556 N 0.54435 0.37381 0.0274 0.0
C1557 C 0.5576 0.37739 0.05798 0.0
C1558 C 0.54269 0.35761 0.07777 0.0
C1559 C 0.07619 0.4238 0.43179 0.0
C1560 C 0.08517 0.39503 0.43249 0.0
C1561 C 0.05157 0.42507 0.41061 0.0
C1562 C 1.03496 0.39749 0.39037 0.0
H1563 H 0.08925 0.44553 0.44628 0.0
H1564 H 0.04584 0.44767 0.4096 0.0
S1565 S 0.04773 0.31622 0.38558 0.0
N1566 N 0.07449 0.33834 0.41288 0.0
N1567 N 1.02792 0.34065 0.37361 0.0
C1568 C 0.04275 0.36851 0.39222 0.0
C1569 C 0.06793 0.36728 0.41327 0.0
C1570 C 0.07972 0.70225 0.63855 0.0
C1571 C 0.05328 0.70985 0.62537 0.0
C1572 C 0.08916 0.67404 0.62518 0.0
C1573 C 0.07253 0.65292 0.59807 0.0
H1574 H 0.09481 0.71958 0.65694 0.0
H1575 H 0.11088 0.67014 0.63423 0.0
S1576 S 0.99834 0.65918 0.55959 0.0
N1577 N 1.00833 0.6921 0.58745 0.0
N1578 N 1.02559 0.63891 0.56256 0.0
C1579 C 0.04432 0.65875 0.58725 0.0
C1580 C 1.0348 0.68732 0.60089 0.0
C1581 C 0.75625 0.86985 0.87622 0.0
C1582 C 0.72755 0.85074 0.87588 0.0
C1583 C 0.77551 0.86317 0.85141 0.0
C1584 C 0.76708 0.8367 0.82574 0.0
H1585 H 0.76381 0.89036 0.89566 0.0
H1586 H 0.7977 0.87812 0.85318 0.0
S1587 S 0.69396 0.77977 0.81309 0.0
N1588 N 0.69102 0.80511 0.84702 0.0
N1589 N 0.72781 0.79172 0.80099 0.0
C1590 C 0.73825 0.81765 0.82485 0.0
C1591 C 0.71834 0.82488 0.84976 0.0
C1592 C 0.55499 0.60987 0.69737 0.0
C1593 C 0.52687 0.59016 0.70097 0.0
C1594 C 0.57087 0.60702 0.66775 0.0
C1595 C 0.56096 0.58333 0.63883 0.0
H1596 H 0.56566 0.62751 0.7184 0.0
H1597 H 0.59196 0.62339 0.66801 0.0
S1598 S 0.48943 0.52386 0.63358 0.0
N1599 N 0.49075 0.54491 0.67107 0.0
N1600 N 0.51965 0.53946 0.61712 0.0
C1601 C 0.53286 0.56338 0.64199 0.0
C1602 C 0.51649 0.56659 0.67211 0.0
C1603 C 0.87121 0.19656 0.95448 0.0
C1604 C 0.85531 0.17262 0.96808 0.0
C1605 C 0.85646 0.20961 0.93202 0.0
C1606 C 0.82502 0.1999 0.9233 0.0
H1607 H 0.89489 0.20636 0.96251 0.0
H1608 H 0.86938 0.22877 0.92296 0.0
S1609 S 0.77356 0.13705 0.9514 0.0
N1610 N 0.80719 0.13812 0.96978 0.0
N1611 N 0.77883 0.16423 0.92931 0.0
C1612 C 0.80911 0.17533 0.93608 0.0
C1613 C 0.82444 0.16122 0.95801 0.0
C1614 C 0.15383 0.56388 0.18385 0.0
C1615 C 0.18565 0.56641 0.18372 0.0
C1616 C 0.13494 0.55366 0.15494 0.0
C1617 C 0.14726 0.54566 0.1249 0.0
H1618 H 0.14367 0.57249 0.20603 0.0
H1619 H 0.11112 0.55523 0.15596 0.0
S1620 S 0.22748 0.53772 0.113 0.0
N1621 N 0.22751 0.55257 0.15238 0.0
N1622 N 0.19189 0.53279 0.09788 0.0
C1623 C 0.17822 0.54305 0.12522 0.0
C1624 C 0.19752 0.5536 0.15474 0.0
C1625 C 0.86404 0.8941 0.45231 0.0
C1626 C 0.88107 0.88028 0.47246 0.0
C1627 C 0.85753 0.88137 0.41879 0.0
C1628 C 0.86821 0.85445 0.40337 0.0
H1629 H 0.85515 0.91489 0.46254 0.0
H1630 H 0.84435 0.8932 0.40475 0.0
S1631 S 0.9141 0.80915 0.4448 0.0
N1632 N 0.90832 0.83779 0.47447 0.0
N1633 N 0.89695 0.8143 0.41118 0.0
C1634 C 0.88551 0.84039 0.42311 0.0
C1635 C 0.89164 0.85311 0.45762 0.0
C1636 C 0.5108 0.60345 0.91541 0.0
C1637 C 0.51971 0.59426 0.88316 0.0
C1638 C 0.52704 0.59948 0.94451 0.0
C1639 C 0.55345 0.58533 0.94427 0.0
H1640 H 0.491 0.61437 0.91845 0.0
H1641 H 0.51843 0.60762 0.96776 0.0
S1642 S 0.58729 0.5563 0.8669 0.0
N1643 N 0.55803 0.57003 0.85404 0.0
N1644 N 0.58708 0.56199 0.90699 0.0
C1645 C 0.56241 0.57574 0.91214 0.0
C1646 C 0.54619 0.58029 0.88255 0.0
C1647 C 0.89247 0.26862 0.1453 0.0
C1648 C 0.88332 0.23553 0.13859 0.0
C1649 C 0.88617 0.28788 0.1743 0.0
C1650 C 0.87023 0.2751 0.19813 0.0
H1651 H 0.90313 0.27996 0.12699 0.0
H1652 H 0.89301 0.3131 0.17748 0.0
S1653 S 0.84417 0.18958 0.19443 0.0
N1654 N 0.8596 0.19078 0.15959 0.0
N1655 N 0.84808 0.22648 0.21422 0.0
C1656 C 0.86264 0.24185 0.19269 0.0
C1657 C 0.86919 0.22224 0.16306 0.0
C1658 C 0.22771 0.67059 0.33921 0.0
C1659 C 0.24965 0.6513 0.33634 0.0
C1660 C 0.20918 0.6722 0.36523 0.0
C1661 C 0.21184 0.65418 0.38887 0.0
H1662 H 0.22271 0.68188 0.3195 0.0
H1663 H 0.19065 0.68492 0.36481 0.0
S1664 S 0.2704 0.60551 0.39583 0.0
N1665 N 0.27682 0.61848 0.36207 0.0
N1666 N 0.24173 0.62105 0.41089 0.0
C1667 C 0.23632 0.63806 0.38842 0.0
C1668 C 0.25547 0.63686 0.36216 0.0
C1669 C 0.86524 0.8305 0.64338 0.0
C1670 C 0.87142 0.86256 0.64153 0.0
C1671 C 0.85518 0.82076 0.67187 0.0
C1672 C 0.85148 0.84266 0.70015 0.0
H1673 H 0.86833 0.81267 0.62262 0.0
H1674 H 0.85157 0.79596 0.67218 0.0
S1675 S 0.86399 0.92926 0.70839 0.0
N1676 N 0.87198 0.916 0.6707 0.0
N1677 N 0.85433 0.89791 0.72407 0.0
C1678 C 0.85725 0.87468 0.6985 0.0
C1679 C 0.8668 0.88454 0.66933 0.0
C1680 C 0.75453 0.55442 0.55174 0.0
C1681 C 0.75812 0.52808 0.52761 0.0
C1682 C 0.72533 0.56252 0.55799 0.0
C1683 C 0.69769 0.54495 0.5405 0.0
H1684 H 0.77444 0.56866 0.56646 0.0
H1685 H 0.72449 0.58292 0.5769 0.0
S1686 S 0.69468 0.4768 0.47112 0.0
N1687 N 0.73104 0.48626 0.4843 0.0
N1688 N 0.67758 0.50167 0.49506 0.0
C1689 C 0.70134 0.51932 0.51555 0.0
C1690 C 0.73089 0.51092 0.50945 0.0
C1691 C 0.23294 0.15977 0.52339 0.0
C1692 C 0.2293 0.18717 0.51238 0.0
C1693 C 0.20798 0.13579 0.5245 0.0
C1694 C 0.17815 0.1381 0.51485 0.0
H1695 H 0.25521 0.15708 0.53215 0.0
H1696 H 0.21202 0.11584 0.53423 0.0
S1697 S 0.15653 0.20192 0.4787 0.0
N1698 N 0.19356 0.21308 0.48794 0.0
N1699 N 0.1468 0.16826 0.49033 0.0
C1700 C 0.17425 0.16456 0.50236 0.0
C1701 C 0.19972 0.18895 0.50104 0.0
C1702 C 0.26131 0.94197 0.78986 0.0
C1703 C 0.27609 0.97349 0.7888 0.0
C1704 C 0.27672 0.9149 0.7889 0.0
C1705 C 0.30894 0.91567 0.7868 0.0
H1706 H 0.23696 0.93782 0.79162 0.0
H1707 H 0.26273 0.8927 0.79012 0.0
S1708 S 0.36058 0.99151 0.78419 0.0
N1709 N 0.327 1.00209 0.78594 0.0
N1710 N 0.35458 0.95362 0.78438 0.0
C1711 C 0.32399 0.94709 0.78593 0.0
C1712 C 0.30832 0.97462 0.78681 0.0
C1713 C 0.45804 0.03882 0.04556 0.0
C1714 C 0.44058 1.0295 1.01513 0.0
C1715 C 0.49023 0.04903 0.04829 0.0
C1716 C 0.50723 0.05049 1.02073 0.0
H1717 H 0.4469 0.03652 0.06757 0.0
H1718 H 0.50201 0.05517 0.07244 0.0
S1719 S 0.47296 1.02817 0.93498 0.0
N1720 N 0.44342 1.02198 0.95666 0.0
N1721 N 0.50299 0.04177 0.96155 0.0
C1722 C 0.48991 0.04201 0.99015 0.0
C1723 C 0.45712 1.03129 0.98743 0.0
C1724 C 0.87564 0.58491 0.7984 0.0
C1725 C 0.90714 0.5966 0.80468 0.0
C1726 C 0.85683 0.60024 0.78248 0.0
C1727 C 0.86874 0.62788 0.77219 0.0
H1728 H 0.86522 0.56386 0.80614 0.0
H1729 H 0.83266 0.59064 0.77865 0.0
S1730 S 0.94972 0.66803 0.78211 0.0
N1731 N 0.94958 0.63707 0.7985 0.0
N1732 N 0.91403 0.66634 0.76909 0.0
C1733 C 0.90031 0.63949 0.77756 0.0
C1734 C 0.91955 0.62376 0.7937 0.0
C1735 C 0.89042 0.66762 0.06029 0.0
C1736 C 0.89657 0.69501 0.04754 0.0
C1737 C 0.91391 0.6542 0.07125 0.0
C1738 C 0.94454 0.66764 0.07001 0.0
H1739 H 0.8672 0.65637 0.062 0.0
H1740 H 0.90803 0.63324 0.08102 0.0
S1741 S 0.97319 0.73814 0.03712 0.0
N1742 N 0.93579 0.73451 0.03341 0.0
N1743 N 0.97999 0.70894 0.05369 0.0
C1744 C 0.95115 0.69483 0.0571 0.0
C1745 C 0.92718 0.70858 0.04593 0.0
C1746 C 0.25482 0.19349 0.81149 0.0
C1747 C 0.26759 0.16552 0.80762 0.0
C1748 C 0.27156 0.22423 0.81065 0.0
C1749 C 0.30308 0.23056 0.80602 0.0
H1750 H 0.23086 0.19186 0.81513 0.0
H1751 H 0.25926 0.24348 0.81372 0.0
S1752 S 0.34959 0.16725 0.7944 0.0
N1753 N 0.31542 0.14785 0.79868 0.0
N1754 N 0.34646 0.20438 0.79741 0.0
C1755 C 0.31654 0.203 0.80223 0.0
C1756 C 0.29923 0.17134 0.80292 0.0
C1757 C 0.43357 0.9365 0.39097 0.0
C1758 C 0.42995 0.96667 0.38742 0.0
C1759 C 0.40868 0.91134 0.38465 0.0
C1760 C 0.37973 0.91577 0.37449 0.0
H1761 H 0.45606 0.93145 0.39501 0.0
H1762 H 0.41292 0.88785 0.38393 0.0
S1763 S 0.35666 0.99137 0.37126 0.0
N1764 N 0.39367 1.0007 0.38136 0.0
N1765 N 0.34749 0.95297 0.36785 0.0
C1766 C 0.37507 0.94636 0.37558 0.0
C1767 C 0.40011 0.97203 0.38263 0.0
C1768 C 0.64735 0.35642 0.55472 0.0
C1769 C 0.65147 0.3715 0.58801 0.0
C1770 C 0.6347 0.37019 0.5314 0.0
C1771 C 0.62652 0.39962 0.54074 0.0
H1772 H 0.652 0.33296 0.54689 0.0
H1773 H 0.6301 0.35726 0.50636 0.0
S1774 S 0.6364 0.45053 0.62356 0.0
N1775 N 0.64896 0.41866 0.62832 0.0
N1776 N 0.6258 0.44479 0.58432 0.0
C1777 C 0.63256 0.41589 0.57336 0.0
C1778 C 0.64497 0.40178 0.59709 0.0
C1779 C 0.42293 0.80555 0.41962 0.0
C1780 C 0.45454 0.81095 0.41713 0.0
C1781 C 0.40268 0.8037 0.39266 0.0
C1782 C 0.41351 0.8082 0.3627 0.0
H1783 H 0.41385 0.80424 0.44291 0.0
H1784 H 0.37858 0.8013 0.39606 0.0
S1785 S 0.49369 0.8194 0.34228 0.0
N1786 N 0.49542 0.81729 0.3811 0.0
N1787 N 0.45717 0.81512 0.33095 0.0
C1788 C 0.44477 0.81149 0.35924 0.0
C1789 C 0.46538 0.81253 0.38637 0.0
C1790 C 0.17909 0.70757 0.06343 0.0
C1791 C 0.18414 0.72089 0.097 0.0
C1792 C 0.16915 0.67517 0.0524 0.0
C1793 C 0.16409 0.65536 0.07468 0.0
H1794 H 0.18002 0.72242 0.04576 0.0
H1795 H 0.16294 0.6661 1.02657 0.0
S1796 S 0.1827 0.67783 0.16423 0.0
N1797 N 0.18967 0.71131 0.15178 0.0
N1798 N 0.17118 0.65029 0.13103 0.0
C1799 C 0.17289 0.66793 0.1079 0.0
C1800 C 0.18292 0.70083 0.1191 0.0
C1801 C 0.12385 0.32312 0.90385 0.0
C1802 C 0.1191 0.34818 0.92845 0.0
C1803 C 0.15028 0.32523 0.88716 0.0
C1804 C 0.17282 0.3526 0.89419 0.0
H1805 H 0.10671 0.30188 0.89688 0.0
H1806 H 0.15252 0.30573 0.86772 0.0
S1807 S 0.1728 0.4239 0.95807 0.0
N1808 N 0.14022 0.40055 0.9604 0.0
N1809 N 0.18989 0.40444 0.92878 0.0
C1810 C 0.169 0.37738 0.91953 0.0
C1811 C 0.14217 0.37516 0.93678 0.0
C1812 C 0.66025 0.81219 0.02848 0.0
C1813 C 0.65138 0.81551 0.99701 0.0
C1814 C 0.64679 0.78634 0.04086 0.0
C1815 C 0.62349 0.76298 1.02248 0.0
H1816 H 0.67711 0.83029 0.0441 0.0
H1817 H 0.65436 0.78496 0.06528 0.0
S1818 S 0.5919 0.7609 0.93861 0.0
N1819 N 0.61842 0.79305 0.94741 0.0
N1820 N 0.59231 0.74491 0.97089 0.0
C1821 C 0.61499 0.7656 0.99055 0.0
C1822 C 0.62913 0.79173 0.97777 0.0
C1823 C 0.16192 0.81038 0.67451 0.0
C1824 C 0.13916 0.82776 0.68372 0.0
C1825 C 0.18183 0.80446 0.69809 0.0
C1826 C 0.17982 0.81598 0.73156 0.0
H1827 H 0.16266 0.79892 0.64927 0.0
H1828 H 0.19803 0.78952 0.69017 0.0
S1829 S 0.12805 0.86773 0.76774 0.0
N1830 N 0.11859 0.86026 0.7281 0.0
N1831 N 0.15626 0.84908 0.77245 0.0
C1832 C 0.15929 0.83601 0.74087 0.0
C1833 C 0.13891 0.84196 0.71688 0.0
C1834 C 0.18458 0.47289 0.4889 0.0
C1835 C 0.17833 0.45815 0.45585 0.0
C1836 C 0.1703 0.49737 0.50285 0.0
C1837 C 0.14914 0.50831 0.48436 0.0
H1838 H 0.19941 0.4643 0.50463 0.0
H1839 H 0.17531 0.50712 0.52873 0.0
S1840 S 0.12808 0.48074 0.39554 0.0
N1841 N 0.15201 0.45841 0.40394 0.0
N1842 N 0.12529 0.50495 0.43032 0.0
C1843 C 0.14454 0.49561 0.45064 0.0
C1844 C 0.15913 0.47041 0.43633 0.0
C1845 C 0.46997 0.27926 0.23745 0.0
C1846 C 0.47614 0.30006 0.21629 0.0
C1847 C 0.44797 0.28298 0.26006 0.0
C1848 C 0.43253 0.30841 0.2631 0.0
H1849 H 0.48175 0.25969 0.23601 0.0
H1850 H 0.44285 0.26578 0.27508 0.0
S1851 S 0.44263 0.37044 0.21431 0.0
N1852 N 0.46612 0.34707 0.20001 0.0
N1853 N 0.42605 0.35531 0.2434 0.0
C1854 C 0.43954 0.32997 0.24268 0.0
C1855 C 0.46104 0.32546 0.21902 0.0
C1856 C 0.65752 0.55845 0.38457 0.0
C1857 C 0.69007 0.56406 0.38495 0.0
C1858 C 0.64079 0.56126 0.41369 0.0
C1859 C 0.65486 0.57108 0.44625 0.0
H1860 H 0.64442 0.55122 0.36115 0.0
H1861 H 0.61618 0.556 0.4104 0.0
S1862 S 0.7394 0.58794 0.46323 0.0
N1863 N 0.73516 0.5789 0.42293 0.0
N1864 N 0.70477 0.58545 0.4758 0.0
C1865 C 0.68737 0.57686 0.44703 0.0
C1866 C 0.70441 0.5731 0.4174 0.0
C1867 C 0.39077 0.99587 0.12869 0.0
C1868 C 0.36052 0.98682 0.11504 0.0
C1869 C 0.39957 0.98819 0.15799 0.0
C1870 C 0.37847 0.97107 0.17475 0.0
H1871 H 0.40834 1.00599 0.1149 0.0
H1872 H 0.42356 0.99331 0.16604 0.0
S1873 S 0.29503 0.94882 0.1527 0.0
N1874 N 0.30857 0.96483 0.12273 0.0
N1875 N 0.32467 0.95104 0.17848 0.0
C1876 C 0.34741 0.96573 0.16349 0.0
C1877 C 0.33854 0.97336 0.13336 0.0
C1878 C 1.04185 0.57835 0.90969 0.0
C1879 C 1.01333 0.58675 0.91518 0.0
C1880 C 0.06387 0.58205 0.93529 0.0
C1881 C 0.0584 0.59438 0.96754 0.0
H1882 H 0.04684 0.56732 0.88556 0.0
H1883 H 0.0847 0.57348 0.92984 0.0
S1884 S 0.99022 0.62696 0.99381 0.0
N1885 N 0.98268 0.61291 0.95422 0.0
N1886 N 1.0243 0.62008 1.0029 0.0
C1887 C 1.03124 0.60601 0.97302 0.0
C1888 C 1.00861 0.60209 0.94669 0.0
C1889 C 0.34459 0.27343 0.64126 0.0
C1890 C 0.3235 0.28564 0.62388 0.0
C1891 C 0.35126 0.28373 0.6753 0.0
C1892 C 0.33699 0.30657 0.69393 0.0
H1893 H 0.35625 0.25574 0.62846 0.0
H1894 H 0.36752 0.27324 0.68713 0.0
S1895 S 0.28002 0.3464 0.66061 0.0
N1896 N 0.28853 0.3223 0.62835 0.0
N1897 N 0.30078 0.34133 0.69187 0.0
C1898 C 0.31593 0.3191 0.67686 0.0
C1899 C 0.30931 0.30878 0.64212 0.0
C1900 C 0.66204 0.58616 0.19607 0.0
C1901 C 0.68014 0.56333 0.20084 0.0
C1902 C 0.64787 0.58811 0.16531 0.0
C1903 C 0.65027 0.56764 0.13528 0.0
H1904 H 0.65826 0.60348 0.21692 0.0
H1905 H 0.63465 0.60638 0.16531 0.0
S1906 S 0.69454 0.50267 0.13054 0.0
N1907 N 0.699 0.51905 0.16991 0.0
N1908 N 0.67343 0.52285 0.113 0.0
C1909 C 0.66865 0.54472 0.13896 0.0
C1910 C 0.68311 0.54257 0.17086 0.0
C1911 C 0.33518 0.90619 0.94068 0.0
C1912 C 0.34328 0.93852 0.9405 0.0
C1913 C 0.3406 0.88261 0.91458 0.0
C1914 C 0.35559 0.89025 0.88768 0.0
H1915 H 0.32403 0.89897 0.96105 0.0
H1916 H 0.33312 0.85819 0.91559 0.0
S1917 S 0.38193 0.97127 0.87519 0.0
N1918 N 0.36684 0.97671 0.91063 0.0
N1919 N 0.3782 0.93285 0.86247 0.0
C1920 C 0.36422 0.92253 0.88742 0.0
C1921 C 0.3578 0.94649 0.91351 0.0
C1922 C 0.9951 0.48055 0.74546 0.0
C1923 C 0.97834 0.50341 0.75882 0.0
C1924 C 1.00957 0.48228 0.71686 0.0
C1925 C 1.00793 0.50711 0.70097 0.0
H1926 H 0.99953 0.46308 0.75888 0.0
H1927 H 1.02461 0.46598 0.70918 0.0
S1928 S 0.96092 0.56836 0.72192 0.0
N1929 N 0.95599 0.54784 0.75067 0.0
N1930 N 0.98374 0.55149 0.69717 0.0
C1931 C 0.98804 0.52763 0.71176 0.0
C1932 C 0.97291 0.52556 0.7406 0.0
C1933 C 0.33442 0.28534 0.44366 0.0
C1934 C 0.33261 0.25347 0.44502 0.0
C1935 C 0.34022 0.29618 0.41463 0.0
C1936 C 0.34452 0.27576 0.38532 0.0
H1937 H 0.33145 0.30222 0.46529 0.0
H1938 H 0.34103 0.3209 0.41523 0.0
S1939 S 0.34206 0.18987 0.3754 0.0
N1940 N 0.33563 0.20151 0.41394 0.0
N1941 N 0.34646 0.2217 0.35997 0.0
C1942 C 0.34277 0.24379 0.38637 0.0
C1943 C 0.33685 0.23276 0.41592 0.0
C1944 C 0.48704 0.65095 0.55261 0.0
C1945 C 0.45977 0.62973 0.5551 0.0
C1946 C 0.51577 0.64138 0.54763 0.0
C1947 C 0.51927 0.60963 0.5437 0.0
H1948 H 0.48627 0.67558 0.55455 0.0
H1949 H 0.53542 0.65917 0.54639 0.0
S1950 S 0.45598 0.54411 0.54923 0.0
N1951 N 0.43936 0.57505 0.55428 0.0
N1952 N 0.492 0.5571 0.54418 0.0
C1953 C 0.49223 0.58818 0.54637 0.0
C1954 C 0.46313 0.59809 0.55217 0.0
C1955 C 1.00602 0.95314 0.56094 0.0
C1956 C 0.97659 0.95889 0.56689 0.0
C1957 C 1.03035 0.9775 0.55925 0.0
C1958 C 1.02672 1.00911 0.56344 0.0
H1959 H 1.01027 0.92944 0.55684 0.0
H1960 H 0.05216 0.97114 0.55382 0.0
S1961 S 0.95493 0.03769 0.58208 0.0
N1962 N 0.94573 0.99933 0.5789 0.0
N1963 N 0.99139 0.04493 0.57573 0.0
C1964 C 0.99774 1.01553 0.57077 0.0
C1965 C 0.97282 0.99055 0.57249 0.0
C1966 C 0.90493 0.18336 0.29493 0.0
C1967 C 0.93726 0.18394 0.29825 0.0
C1968 C 0.8905 0.21108 0.29628 0.0
C1969 C 0.90642 0.24317 0.30062 0.0
H1970 H 0.88996 0.16069 0.29132 0.0
H1971 H 0.86589 0.20691 0.29337 0.0
S1972 S 0.99171 0.26089 0.31046 0.0
N1973 N 0.98437 0.22231 0.30649 0.0
N1974 N 0.95848 0.27198 0.308 0.0
C1975 C 0.9388 0.24415 0.30368 0.0
C1976 C 0.95352 0.21592 0.30284 0.0
C1977 C 0.74985 0.1537 0.03454 0.0
C1978 C 0.77286 0.13925 0.04642 0.0
C1979 C 0.7183 0.14269 0.03498 0.0
C1980 C 0.70649 0.11593 0.04702 0.0
H1981 H 0.75601 0.17444 1.02452 0.0
H1982 H 0.70296 0.15578 1.02566 0.0
S1983 S 0.75512 0.06735 0.08044 0.0
N1984 N 0.78029 0.09535 0.0705 0.0
N1985 N 0.72112 0.07428 0.07085 0.0
C1986 C 0.72882 0.10054 0.05871 0.0
C1987 C 0.76158 0.11209 0.05846 0.0
C1988 C 0.32388 0.5376 0.26377 0.0
C1989 C 0.29275 0.53698 0.26785 0.0
C1990 C 0.33994 0.51863 0.27806 0.0
C1991 C 0.3254 0.49846 0.29691 0.0
H1992 H 0.33635 0.55391 0.25077 0.0
H1993 H 0.36409 0.52054 0.27528 0.0
S1994 S 0.24325 0.48416 0.31042 0.0
N1995 N 0.2473 0.51186 0.28898 0.0
N1996 N 0.27745 0.47592 0.31545 0.0
C1997 C 0.29392 0.49613 0.29943 0.0
C1998 C 0.27758 0.51543 0.28493 0.0
C1999 C 0.30897 0.47702 0.06944 0.0
C2000 C 0.30681 0.44421 0.06409 0.0
C2001 C 0.28558 0.49019 0.05775 0.0
C2002 C 0.25901 0.47108 0.04065 0.0
H2003 H 0.32955 0.49273 0.0812 0.0
H2004 H 0.28863 0.51553 0.06136 0.0
S2005 S 0.2405 0.38407 1.02289 0.0
N2006 N 0.27466 0.39298 0.0426 0.0
N2007 N 0.23076 0.41796 1.02082 0.0
C2008 C 0.25565 0.43838 0.03685 0.0
C2009 C 0.27952 0.42489 0.04856 0.0
C2010 C 0.90846 0.98517 0.29812 0.0
C2011 C 0.93964 0.99061 0.29088 0.0
C2012 C 0.89089 0.95404 0.2984 0.0
C2013 C 0.90281 0.92547 0.29165 0.0
H2014 H 0.89747 1.00524 0.30447 0.0
H2015 H 0.86755 0.95257 0.30461 0.0
S2016 S 0.98213 0.92438 0.26863 0.0
N2017 N 0.98022 0.96197 0.27467 0.0
N2018 N 0.94848 0.90627 0.27585 0.0
C2019 C 0.93357 0.93063 0.28375 0.0
C2020 C 0.95128 0.96191 0.28323 0.0
C2021 C 0.82042 0.20219 0.74084 0.0
C2022 C 0.79056 0.19665 0.72603 0.0
C2023 C 0.83878 0.23222 0.74637 0.0
C2024 C 0.82768 0.25718 0.73706 0.0
H2025 H 0.82821 0.18456 0.7519 0.0
H2026 H 0.85975 0.23679 0.76188 0.0
S2027 S 0.75523 0.2523 0.68871 0.0
N2028 N 0.7539 0.21654 0.69536 0.0
N2029 N 0.78842 0.27291 0.70591 0.0
C2030 C 0.80017 0.25052 0.71748 0.0
C2031 C 0.78147 0.22016 0.71197 0.0
loop_
_geom_bond_atom_site_label_1
_geom_bond_atom_site_label_2
_geom_bond_distance
_geom_bond_site_symmetry_2
_ccdc_geom_bond_type
Co0 O1 2.216 . S
Co0 O2 2.091 . S
Co0 O4 2.004 . S
Co0 O10 2.021 . S
Co0 O12 2.137 . S
Co0 O13 2.244 . S
O1 Co0 2.216 . S
O1 C8 1.247 . S
O2 Co0 2.091 . S
O2 C8 1.261 . S
C3 O12 1.247 . S
C3 O13 1.272 . S
O4 Co0 2.004 . S
O4 C9 1.259 . S
Co5 O6 2.061 . S
Co5 O11 2.052 . S
Co5 O13 2.135 . S
O6 Co5 2.061 . S
O6 C9 1.235 . S
C7 O10 1.238 . S
C7 O11 1.241 . S
C8 O1 1.247 . S
C8 O2 1.261 . S
C9 O4 1.259 . S
C9 O6 1.235 . S
O10 Co0 2.021 . S
O10 C7 1.238 . S
O11 Co5 2.052 . S
O11 C7 1.241 . S
O12 Co0 2.137 . S
O12 C3 1.247 . S
O13 Co0 2.244 . S
O13 C3 1.272 . S
O13 Co5 2.135 . S
Co14 O15 2.216 . S
Co14 O16 2.091 . S
Co14 O18 2.004 1_655 S
Co14 O24 2.021 . S
Co14 O26 2.137 . S
Co14 O27 2.244 1_655 S
O15 Co14 2.216 . S
O15 C22 1.247 . S
O16 Co14 2.091 . S
O16 C22 1.261 . S
C17 O26 1.247 1_455 S
C17 O27 1.272 . S
O18 Co14 2.004 1_455 S
O18 C23 1.259 . S
Co19 O20 2.061 . S
Co19 O25 2.052 . S
Co19 O27 2.135 . S
O20 Co19 2.061 . S
O20 C23 1.235 . S
C21 O24 1.238 . S
C21 O25 1.241 1_655 S
C22 O15 1.247 . S
C22 O16 1.261 . S
C23 O18 1.259 . S
C23 O20 1.235 . S
O24 Co14 2.021 . S
O24 C21 1.238 . S
O25 Co19 2.052 . S
O25 C21 1.241 1_455 S
O26 Co14 2.137 . S
O26 C17 1.247 1_655 S
O27 Co14 2.244 1_455 S
O27 C17 1.272 . S
O27 Co19 2.135 . S
Co28 O29 2.216 . S
Co28 O30 2.091 . S
Co28 O32 2.004 . S
Co28 O38 2.021 . S
Co28 O40 2.137 . S
Co28 O41 2.244 . S
O29 Co28 2.216 . S
O29 C36 1.247 . S
O30 Co28 2.091 . S
O30 C36 1.261 . S
C31 O40 1.247 . S
C31 O41 1.272 . S
O32 Co28 2.004 . S
O32 C37 1.259 . S
Co33 O34 2.061 . S
Co33 O39 2.052 . S
Co33 O41 2.135 . S
O34 Co33 2.061 . S
O34 C37 1.235 . S
C35 O38 1.238 . S
C35 O39 1.241 . S
C36 O29 1.247 . S
C36 O30 1.261 . S
C37 O32 1.259 . S
C37 O34 1.235 . S
O38 Co28 2.021 . S
O38 C35 1.238 . S
O39 Co33 2.052 . S
O39 C35 1.241 . S
O40 Co28 2.137 . S
O40 C31 1.247 . S
O41 Co28 2.244 . S
O41 C31 1.272 . S
O41 Co33 2.135 . S
Co42 O43 2.216 . S
Co42 O44 2.091 . S
Co42 O46 2.004 . S
Co42 O52 2.021 . S
Co42 O54 2.137 . S
Co42 O55 2.244 . S
O43 Co42 2.216 . S
O43 C50 1.247 . S
O44 Co42 2.091 . S
O44 C50 1.261 . S
C45 O54 1.247 . S
C45 O55 1.272 . S
O46 Co42 2.004 . S
O46 C51 1.259 . S
Co47 O48 2.061 . S
Co47 O53 2.052 . S
Co47 O55 2.135 . S
O48 Co47 2.061 . S
O48 C51 1.235 . S
C49 O52 1.238 . S
C49 O53 1.241 . S
C50 O43 1.247 . S
C50 O44 1.261 . S
C51 O46 1.259 . S
C51 O48 1.235 . S
O52 Co42 2.021 . S
O52 C49 1.238 . S
O53 Co47 2.052 . S
O53 C49 1.241 . S
O54 Co42 2.137 . S
O54 C45 1.247 . S
O55 Co42 2.244 . S
O55 C45 1.272 . S
O55 Co47 2.135 . S
Co56 O57 2.216 . S
Co56 O58 2.091 . S
Co56 O60 2.004 . S
Co56 O66 2.021 . S
Co56 O68 2.137 . S
Co56 O69 2.244 . S
O57 Co56 2.216 . S
O57 C64 1.247 . S
O58 Co56 2.091 . S
O58 C64 1.261 . S
C59 O68 1.247 . S
C59 O69 1.272 . S
O60 Co56 2.004 . S
O60 C65 1.259 . S
Co61 O62 2.061 . S
Co61 O67 2.052 . S
Co61 O69 2.135 . S
O62 Co61 2.061 . S
O62 C65 1.235 . S
C63 O66 1.238 . S
C63 O67 1.241 . S
C64 O57 1.247 . S
C64 O58 1.261 . S
C65 O60 1.259 . S
C65 O62 1.235 . S
O66 Co56 2.021 . S
O66 C63 1.238 . S
O67 Co61 2.052 . S
O67 C63 1.241 . S
O68 Co56 2.137 . S
O68 C59 1.247 . S
O69 Co56 2.244 . S
O69 C59 1.272 . S
O69 Co61 2.135 . S
Co70 O71 2.216 . S
Co70 O72 2.091 . S
Co70 O74 2.004 . S
Co70 O80 2.021 . S
Co70 O82 2.137 . S
Co70 O83 2.244 . S
O71 Co70 2.216 . S
O71 C78 1.247 . S
O72 Co70 2.091 . S
O72 C78 1.261 . S
C73 O82 1.247 . S
C73 O83 1.272 . S
O74 Co70 2.004 . S
O74 C79 1.259 . S
Co75 O76 2.061 . S
Co75 O81 2.052 . S
Co75 O83 2.135 . S
O76 Co75 2.061 . S
O76 C79 1.235 . S
C77 O80 1.238 . S
C77 O81 1.241 . S
C78 O71 1.247 . S
C78 O72 1.261 . S
C79 O74 1.259 . S
C79 O76 1.235 . S
O80 Co70 2.021 . S
O80 C77 1.238 . S
O81 Co75 2.052 . S
O81 C77 1.241 . S
O82 Co70 2.137 . S
O82 C73 1.247 . S
O83 Co70 2.244 . S
O83 C73 1.272 . S
O83 Co75 2.135 . S
Co84 O85 2.216 . S
Co84 O86 2.091 . S
Co84 O88 2.004 . S
Co84 O94 2.021 . S
Co84 O96 2.137 . S
Co84 O97 2.244 . S
O85 Co84 2.216 . S
O85 C92 1.247 . S
O86 Co84 2.091 . S
O86 C92 1.261 . S
C87 O96 1.247 . S
C87 O97 1.272 . S
O88 Co84 2.004 . S
O88 C93 1.259 . S
Co89 O90 2.061 . S
Co89 O95 2.052 . S
Co89 O97 2.135 . S
O90 Co89 2.061 . S
O90 C93 1.235 . S
C91 O94 1.238 . S
C91 O95 1.241 . S
C92 O85 1.247 . S
C92 O86 1.261 . S
C93 O88 1.259 . S
C93 O90 1.235 . S
O94 Co84 2.021 . S
O94 C91 1.238 . S
O95 Co89 2.052 . S
O95 C91 1.241 . S
O96 Co84 2.137 . S
O96 C87 1.247 . S
O97 Co84 2.244 . S
O97 C87 1.272 . S
O97 Co89 2.135 . S
Co98 O99 2.216 . S
Co98 O100 2.091 . S
Co98 O102 2.004 1_455 S
Co98 O108 2.021 . S
Co98 O110 2.137 . S
Co98 O111 2.244 . S
O99 Co98 2.216 . S
O99 C106 1.247 . S
O100 Co98 2.091 . S
O100 C106 1.261 . S
C101 O110 1.247 . S
C101 O111 1.272 . S
O102 Co98 2.004 1_655 S
O102 C107 1.259 . S
Co103 O104 2.061 . S
Co103 O109 2.052 1_655 S
Co103 O111 2.135 1_655 S
O104 Co103 2.061 . S
O104 C107 1.235 . S
C105 O108 1.238 . S
C105 O109 1.241 . S
C106 O99 1.247 . S
C106 O100 1.261 . S
C107 O102 1.259 . S
C107 O104 1.235 . S
O108 Co98 2.021 . S
O108 C105 1.238 . S
O109 Co103 2.052 1_455 S
O109 C105 1.241 . S
O110 Co98 2.137 . S
O110 C101 1.247 . S
O111 Co98 2.244 . S
O111 C101 1.272 . S
O111 Co103 2.135 1_455 S
Co112 O113 2.216 . S
Co112 O114 2.091 . S
Co112 O116 2.004 1_545 S
Co112 O122 2.022 1_545 S
Co112 O124 2.137 . S
Co112 O125 2.244 . S
O113 Co112 2.216 . S
O113 C120 1.247 . S
O114 Co112 2.091 . S
O114 C120 1.261 . S
C115 O124 1.247 . S
C115 O125 1.271 . S
O116 Co112 2.004 1_565 S
O116 C121 1.259 . S
Co117 O118 2.061 . S
Co117 O123 2.052 . S
Co117 O125 2.135 1_565 S
O118 Co117 2.061 . S
O118 C121 1.235 . S
C119 O122 1.251 . S
C119 O123 1.241 . S
C120 O113 1.247 . S
C120 O114 1.261 . S
C121 O116 1.259 . S
C121 O118 1.235 . S
O122 Co112 2.022 1_565 S
O122 C119 1.251 . S
O123 Co117 2.052 . S
O123 C119 1.241 . S
O124 Co112 2.137 . S
O124 C115 1.247 . S
O125 Co112 2.244 . S
O125 C115 1.271 . S
O125 Co117 2.135 1_545 S
Co126 O127 2.216 . S
Co126 O128 2.091 . S
Co126 O130 2.004 . S
Co126 O136 2.021 . S
Co126 O138 2.137 . S
Co126 O139 2.244 . S
O127 Co126 2.216 . S
O127 C134 1.247 . S
O128 Co126 2.091 . S
O128 C134 1.261 . S
C129 O138 1.247 . S
C129 O139 1.272 . S
O130 Co126 2.004 . S
O130 C135 1.259 . S
Co131 O132 2.061 . S
Co131 O137 2.052 . S
Co131 O139 2.135 . S
O132 Co131 2.061 . S
O132 C135 1.235 . S
C133 O136 1.238 . S
C133 O137 1.241 . S
C134 O127 1.247 . S
C134 O128 1.261 . S
C135 O130 1.259 . S
C135 O132 1.235 . S
O136 Co126 2.021 . S
O136 C133 1.238 . S
O137 Co131 2.052 . S
O137 C133 1.241 . S
O138 Co126 2.137 . S
O138 C129 1.247 . S
O139 Co126 2.244 . S
O139 C129 1.272 . S
O139 Co131 2.135 . S
Co140 O141 2.216 1_545 S
Co140 O142 2.091 1_545 S
Co140 O144 2.004 . S
Co140 O150 2.021 . S
Co140 O152 2.137 . S
Co140 O153 2.244 . S
O141 Co140 2.216 1_565 S
O141 C148 1.247 . S
O142 Co140 2.091 1_565 S
O142 C148 1.261 . S
C143 O152 1.247 . S
C143 O153 1.272 . S
O144 Co140 2.004 . S
O144 C149 1.259 . S
Co145 O146 2.061 . S
Co145 O151 2.052 . S
Co145 O153 2.135 . S
O146 Co145 2.061 . S
O146 C149 1.235 . S
C147 O150 1.238 . S
C147 O151 1.241 . S
C148 O141 1.247 . S
C148 O142 1.261 . S
C149 O144 1.259 . S
C149 O146 1.235 . S
O150 Co140 2.021 . S
O150 C147 1.238 . S
O151 Co145 2.052 . S
O151 C147 1.241 . S
O152 Co140 2.137 . S
O152 C143 1.247 . S
O153 Co140 2.244 . S
O153 C143 1.272 . S
O153 Co145 2.135 . S
Co154 O155 2.214 . S
Co154 O156 2.119 1_556 S
Co154 O158 2.006 1_556 S
Co154 O164 2.002 1_556 S
Co154 O166 2.156 . S
Co154 O167 2.251 . S
O155 Co154 2.214 . S
O155 C162 1.247 1_556 S
O156 Co154 2.119 1_554 S
O156 C162 1.280 . S
C157 O166 1.247 . S
C157 O167 1.272 . S
O158 Co154 2.006 1_554 S
O158 C163 1.259 . S
Co159 O160 2.061 1_556 S
Co159 O165 2.052 1_556 S
Co159 O167 2.135 . S
O160 Co159 2.061 1_554 S
O160 C163 1.235 . S
C161 O164 1.238 . S
C161 O165 1.241 . S
C162 O155 1.247 1_554 S
C162 O156 1.280 . S
C163 O158 1.259 . S
C163 O160 1.235 . S
O164 Co154 2.002 1_554 S
O164 C161 1.238 . S
O165 Co159 2.052 1_554 S
O165 C161 1.241 . S
O166 Co154 2.156 . S
O166 C157 1.247 . S
O167 Co154 2.251 . S
O167 C157 1.272 . S
O167 Co159 2.135 . S
Co168 O169 2.216 . S
Co168 O170 2.091 . S
Co168 O172 2.004 . S
Co168 O178 2.021 . S
Co168 O180 2.137 1_554 S
Co168 O181 2.244 1_554 S
O169 Co168 2.216 . S
O169 C176 1.247 . S
O170 Co168 2.091 . S
O170 C176 1.261 . S
C171 O180 1.247 . S
C171 O181 1.272 . S
O172 Co168 2.004 . S
O172 C177 1.259 . S
Co173 O174 2.061 . S
Co173 O179 2.052 . S
Co173 O181 2.135 1_554 S
O174 Co173 2.061 . S
O174 C177 1.235 . S
C175 O178 1.238 . S
C175 O179 1.241 . S
C176 O169 1.247 . S
C176 O170 1.261 . S
C177 O172 1.259 . S
C177 O174 1.235 . S
O178 Co168 2.021 . S
O178 C175 1.238 . S
O179 Co173 2.052 . S
O179 C175 1.241 . S
O180 Co168 2.137 1_556 S
O180 C171 1.247 . S
O181 Co168 2.244 1_556 S
O181 C171 1.272 . S
O181 Co173 2.135 1_556 S
Co182 O183 2.216 . S
Co182 O184 2.091 . S
Co182 O186 2.004 . S
Co182 O192 2.021 . S
Co182 O194 2.137 1_554 S
Co182 O195 2.244 . S
O183 Co182 2.216 . S
O183 C190 1.247 . S
O184 Co182 2.091 . S
O184 C190 1.261 . S
C185 O194 1.247 . S
C185 O195 1.272 1_556 S
O186 Co182 2.004 . S
O186 C191 1.259 . S
Co187 O188 2.061 . S
Co187 O193 2.052 . S
Co187 O195 2.135 . S
O188 Co187 2.061 . S
O188 C191 1.235 . S
C189 O192 1.238 . S
C189 O193 1.241 . S
C190 O183 1.247 . S
C190 O184 1.261 . S
C191 O186 1.259 . S
C191 O188 1.235 . S
O192 Co182 2.021 . S
O192 C189 1.238 . S
O193 Co187 2.052 . S
O193 C189 1.241 . S
O194 Co182 2.137 1_556 S
O194 C185 1.247 . S
O195 Co182 2.244 . S
O195 C185 1.272 1_554 S
O195 Co187 2.135 . S
Co196 O197 2.216 . S
Co196 O198 2.091 . S
Co196 O200 2.004 . S
Co196 O206 2.021 . S
Co196 O208 2.137 . S
Co196 O209 2.244 . S
O197 Co196 2.216 . S
O197 C204 1.247 . S
O198 Co196 2.091 . S
O198 C204 1.261 . S
C199 O208 1.247 . S
C199 O209 1.272 . S
O200 Co196 2.004 . S
O200 C205 1.259 . S
Co201 O202 2.061 . S
Co201 O207 2.052 . S
Co201 O209 2.135 . S
O202 Co201 2.061 . S
O202 C205 1.235 . S
C203 O206 1.238 . S
C203 O207 1.241 . S
C204 O197 1.247 . S
C204 O198 1.261 . S
C205 O200 1.259 . S
C205 O202 1.235 . S
O206 Co196 2.021 . S
O206 C203 1.238 . S
O207 Co201 2.052 . S
O207 C203 1.241 . S
O208 Co196 2.137 . S
O208 C199 1.247 . S
O209 Co196 2.244 . S
O209 C199 1.272 . S
O209 Co201 2.135 . S
Co210 O211 2.216 . S
Co210 O212 2.091 . S
Co210 O214 2.004 . S
Co210 O220 2.021 . S
Co210 O222 2.137 . S
Co210 O223 2.244 . S
O211 Co210 2.216 . S
O211 C218 1.247 . S
O212 Co210 2.091 . S
O212 C218 1.261 . S
C213 O222 1.247 . S
C213 O223 1.272 . S
O214 Co210 2.004 . S
O214 C219 1.259 . S
Co215 O216 2.061 . S
Co215 O221 2.052 . S
Co215 O223 2.135 . S
O216 Co215 2.061 . S
O216 C219 1.235 . S
C217 O220 1.238 . S
C217 O221 1.241 . S
C218 O211 1.247 . S
C218 O212 1.261 . S
C219 O214 1.259 . S
C219 O216 1.235 . S
O220 Co210 2.021 . S
O220 C217 1.238 . S
O221 Co215 2.052 . S
O221 C217 1.241 . S
O222 Co210 2.137 . S
O222 C213 1.247 . S
O223 Co210 2.244 . S
O223 C213 1.272 . S
O223 Co215 2.135 . S
Co224 O225 2.216 . S
Co224 O226 2.091 . S
Co224 O228 2.004 . S
Co224 O234 2.021 . S
Co224 O236 2.137 . S
Co224 O237 2.244 . S
O225 Co224 2.216 . S
O225 C232 1.247 . S
O226 Co224 2.091 . S
O226 C232 1.261 . S
C227 O236 1.247 . S
C227 O237 1.272 . S
O228 Co224 2.004 . S
O228 C233 1.259 . S
Co229 O230 2.061 . S
Co229 O235 2.052 . S
Co229 O237 2.135 . S
O230 Co229 2.061 . S
O230 C233 1.235 . S
C231 O234 1.238 . S
C231 O235 1.241 . S
C232 O225 1.247 . S
C232 O226 1.261 . S
C233 O228 1.259 . S
C233 O230 1.235 . S
O234 Co224 2.021 . S
O234 C231 1.238 . S
O235 Co229 2.052 . S
O235 C231 1.241 . S
O236 Co224 2.137 . S
O236 C227 1.247 . S
O237 Co224 2.244 . S
O237 C227 1.272 . S
O237 Co229 2.135 . S
Co238 O239 2.216 . S
Co238 O240 2.091 . S
Co238 O242 2.004 . S
Co238 O248 2.021 . S
Co238 O250 2.137 . S
Co238 O251 2.244 . S
O239 Co238 2.216 . S
O239 C246 1.247 . S
O240 Co238 2.091 . S
O240 C246 1.261 . S
C241 O250 1.247 . S
C241 O251 1.272 . S
O242 Co238 2.004 . S
O242 C247 1.259 . S
Co243 O244 2.061 . S
Co243 O249 2.052 . S
Co243 O251 2.135 . S
O244 Co243 2.061 . S
O244 C247 1.235 . S
C245 O248 1.238 . S
C245 O249 1.241 . S
C246 O239 1.247 . S
C246 O240 1.261 . S
C247 O242 1.259 . S
C247 O244 1.235 . S
O248 Co238 2.021 . S
O248 C245 1.238 . S
O249 Co243 2.052 . S
O249 C245 1.241 . S
O250 Co238 2.137 . S
O250 C241 1.247 . S
O251 Co238 2.244 . S
O251 C241 1.272 . S
O251 Co243 2.135 . S
Co252 O253 2.216 . S
Co252 O254 2.091 . S
Co252 O256 2.004 . S
Co252 O262 2.021 . S
Co252 O264 2.137 . S
Co252 O265 2.244 . S
O253 Co252 2.216 . S
O253 C260 1.247 . S
O254 Co252 2.091 . S
O254 C260 1.261 . S
C255 O264 1.247 . S
C255 O265 1.272 . S
O256 Co252 2.004 . S
O256 C261 1.259 . S
Co257 O258 2.061 . S
Co257 O263 2.052 . S
Co257 O265 2.135 . S
O258 Co257 2.061 . S
O258 C261 1.235 . S
C259 O262 1.238 . S
C259 O263 1.241 . S
C260 O253 1.247 . S
C260 O254 1.261 . S
C261 O256 1.259 . S
C261 O258 1.235 . S
O262 Co252 2.021 . S
O262 C259 1.238 . S
O263 Co257 2.052 . S
O263 C259 1.241 . S
O264 Co252 2.137 . S
O264 C255 1.247 . S
O265 Co252 2.244 . S
O265 C255 1.272 . S
O265 Co257 2.135 . S
Co266 O267 2.216 . S
Co266 O268 2.091 . S
Co266 O270 2.004 . S
Co266 O276 2.021 . S
Co266 O278 2.137 . S
Co266 O279 2.244 . S
O267 Co266 2.216 . S
O267 C274 1.247 . S
O268 Co266 2.091 . S
O268 C274 1.261 . S
C269 O278 1.247 . S
C269 O279 1.272 . S
O270 Co266 2.004 . S
O270 C275 1.259 . S
Co271 O272 2.061 . S
Co271 O277 2.052 . S
Co271 O279 2.135 . S
O272 Co271 2.061 . S
O272 C275 1.235 . S
C273 O276 1.238 . S
C273 O277 1.241 . S
C274 O267 1.247 . S
C274 O268 1.261 . S
C275 O270 1.259 . S
C275 O272 1.235 . S
O276 Co266 2.021 . S
O276 C273 1.238 . S
O277 Co271 2.052 . S
O277 C273 1.241 . S
O278 Co266 2.137 . S
O278 C269 1.247 . S
O279 Co266 2.244 . S
O279 C269 1.272 . S
O279 Co271 2.135 . S
Co280 O281 2.216 . S
Co280 O282 2.091 . S
Co280 O284 2.004 1_554 S
Co280 O290 2.021 . S
Co280 O292 2.137 1_554 S
Co280 O293 2.244 1_554 S
O281 Co280 2.216 . S
O281 C288 1.247 . S
O282 Co280 2.091 . S
O282 C288 1.261 . S
C283 O292 1.247 . S
C283 O293 1.272 . S
O284 Co280 2.004 1_556 S
O284 C289 1.259 1_556 S
Co285 O286 2.061 . S
Co285 O291 2.052 . S
Co285 O293 2.135 1_554 S
O286 Co285 2.061 . S
O286 C289 1.235 . S
C287 O290 1.238 . S
C287 O291 1.241 . S
C288 O281 1.247 . S
C288 O282 1.261 . S
C289 O284 1.259 1_554 S
C289 O286 1.235 . S
O290 Co280 2.021 . S
O290 C287 1.238 . S
O291 Co285 2.052 . S
O291 C287 1.241 . S
O292 Co280 2.137 1_556 S
O292 C283 1.247 . S
O293 Co280 2.244 1_556 S
O293 C283 1.272 . S
O293 Co285 2.135 1_556 S
Co294 O295 2.216 . S
Co294 O296 2.091 . S
Co294 O298 2.004 . S
Co294 O304 2.021 . S
Co294 O306 2.137 . S
Co294 O307 2.244 . S
O295 Co294 2.216 . S
O295 C302 1.247 . S
O296 Co294 2.091 . S
O296 C302 1.261 . S
C297 O306 1.247 . S
C297 O307 1.272 . S
O298 Co294 2.004 . S
O298 C303 1.259 . S
Co299 O300 2.061 . S
Co299 O305 2.052 . S
Co299 O307 2.135 . S
O300 Co299 2.061 . S
O300 C303 1.235 . S
C301 O304 1.238 . S
C301 O305 1.241 . S
C302 O295 1.247 . S
C302 O296 1.261 . S
C303 O298 1.259 . S
C303 O300 1.235 . S
O304 Co294 2.021 . S
O304 C301 1.238 . S
O305 Co299 2.052 . S
O305 C301 1.241 . S
O306 Co294 2.137 . S
O306 C297 1.247 . S
O307 Co294 2.244 . S
O307 C297 1.272 . S
O307 Co299 2.135 . S
Co308 O309 2.216 . S
Co308 O310 2.091 . S
Co308 O312 2.004 . S
Co308 O318 2.021 . S
Co308 O320 2.137 . S
Co308 O321 2.244 . S
O309 Co308 2.216 . S
O309 C316 1.247 . S
O310 Co308 2.091 . S
O310 C316 1.261 . S
C311 O320 1.247 . S
C311 O321 1.272 . S
O312 Co308 2.004 . S
O312 C317 1.259 . S
Co313 O314 2.061 . S
Co313 O319 2.052 . S
Co313 O321 2.135 . S
O314 Co313 2.061 . S
O314 C317 1.235 . S
C315 O318 1.238 . S
C315 O319 1.241 . S
C316 O309 1.247 . S
C316 O310 1.261 . S
C317 O312 1.259 . S
C317 O314 1.235 . S
O318 Co308 2.021 . S
O318 C315 1.238 . S
O319 Co313 2.052 . S
O319 C315 1.241 . S
O320 Co308 2.137 . S
O320 C311 1.247 . S
O321 Co308 2.244 . S
O321 C311 1.272 . S
O321 Co313 2.135 . S
Co322 O323 2.216 . S
Co322 O324 2.091 . S
Co322 O326 2.004 . S
Co322 O332 2.021 . S
Co322 O334 2.137 . S
Co322 O335 2.244 . S
O323 Co322 2.216 . S
O323 C330 1.247 . S
O324 Co322 2.091 . S
O324 C330 1.261 . S
C325 O334 1.247 . S
C325 O335 1.272 . S
O326 Co322 2.004 . S
O326 C331 1.259 . S
Co327 O328 2.061 . S
Co327 O333 2.052 . S
Co327 O335 2.135 . S
O328 Co327 2.061 . S
O328 C331 1.235 . S
C329 O332 1.238 . S
C329 O333 1.241 . S
C330 O323 1.247 . S
C330 O324 1.261 . S
C331 O326 1.259 . S
C331 O328 1.235 . S
O332 Co322 2.021 . S
O332 C329 1.238 . S
O333 Co327 2.052 . S
O333 C329 1.241 . S
O334 Co322 2.137 . S
O334 C325 1.247 . S
O335 Co322 2.244 . S
O335 C325 1.272 . S
O335 Co327 2.135 . S
Eu336 C345 2.828 . S
Eu336 O347 2.392 . S
Eu336 O349 2.418 . S
Eu336 O354 2.373 . S
Eu336 O357 2.488 . S
Eu336 O358 2.471 1_554 S
Eu336 O359 2.349 1_554 S
Eu337 O346 2.372 . S
Eu337 O350 2.467 1_544 S
Eu337 O351 2.453 1_545 S
Eu337 O352 2.362 . S
Eu337 O355 2.400 1_554 S
Eu337 O356 2.422 1_554 S
Eu337 C366 2.806 1_545 S
C338 O356 1.244 . S
C338 O359 1.265 . S
C339 C340 1.379 1_554 S
C339 C343 1.373 . S
C339 C345 1.505 . S
C340 C339 1.379 1_556 S
C340 C342 1.369 . S
C340 H368 0.930 . S
C341 C343 1.383 . S
C341 C344 1.382 1_554 S
C341 H369 0.930 . S
C342 C340 1.369 . S
C342 C344 1.392 . S
C342 H370 0.930 . S
C343 C339 1.373 . S
C343 C341 1.383 . S
C343 H371 0.931 . S
C344 C341 1.382 1_556 S
C344 C342 1.392 . S
C345 Eu336 2.828 . S
C345 C339 1.505 . S
C345 O357 1.249 . S
C345 O358 1.244 1_554 S
O346 Eu337 2.372 . S
O346 C348 1.258 . S
O347 Eu336 2.392 . S
O347 C348 1.242 . S
C348 O346 1.258 . S
C348 O347 1.242 . S
O349 Eu336 2.418 . S
O349 C353 1.244 . S
O350 Eu337 2.467 1_566 S
O350 C366 1.249 1_556 S
O351 Eu337 2.453 1_565 S
O351 C366 1.244 . S
O352 Eu337 2.362 . S
O352 C353 1.265 . S
C353 O349 1.244 . S
C353 O352 1.265 . S
O354 Eu336 2.373 . S
O354 C367 1.258 . S
O355 Eu337 2.400 1_556 S
O355 C367 1.241 1_556 S
O356 Eu337 2.422 1_556 S
O356 C338 1.244 . S
O357 Eu336 2.488 . S
O357 C345 1.249 . S
O358 Eu336 2.471 1_556 S
O358 C345 1.244 1_556 S
O359 Eu336 2.349 1_556 S
O359 C338 1.265 . S
C360 C361 1.379 . S
C360 C364 1.373 . S
C360 C366 1.505 . S
C361 C360 1.379 . S
C361 C363 1.369 . S
C361 H372 0.930 . S
C362 C364 1.383 . S
C362 C365 1.382 . S
C362 H373 0.930 . S
C363 C361 1.369 . S
C363 C365 1.392 . S
C363 H374 0.930 . S
C364 C360 1.373 . S
C364 C362 1.383 . S
C364 H375 0.931 1_554 S
C365 C362 1.382 . S
C365 C363 1.392 . S
C366 Eu337 2.806 1_565 S
C366 O350 1.249 1_554 S
C366 O351 1.244 . S
C366 C360 1.505 . S
C367 O354 1.258 . S
C367 O355 1.241 1_554 S
H368 C340 0.930 . S
H369 C341 0.930 . S
H370 C342 0.930 . S
H371 C343 0.931 . S
H372 C361 0.930 . S
H373 C362 0.930 . S
H374 C363 0.930 . S
H375 C364 0.931 1_556 S
Eu376 C385 2.828 . S
Eu376 O387 2.392 . S
Eu376 O389 2.418 . S
Eu376 O394 2.373 . S
Eu376 O397 2.488 . S
Eu376 O398 2.471 . S
Eu376 O399 2.349 . S
Eu377 O386 2.373 . S
Eu377 O390 2.488 . S
Eu377 O391 2.471 . S
Eu377 O392 2.349 . S
Eu377 O395 2.392 . S
Eu377 O396 2.418 . S
Eu377 C406 2.828 . S
C378 O396 1.244 . S
C378 O399 1.265 . S
C379 C380 1.379 . S
C379 C383 1.373 . S
C379 C385 1.505 . S
C380 C379 1.379 . S
C380 C382 1.369 . S
C380 H408 0.930 . S
C381 C383 1.383 . S
C381 C384 1.382 . S
C381 H409 0.930 . S
C382 C380 1.369 . S
C382 C384 1.392 . S
C382 H410 0.930 . S
C383 C379 1.373 . S
C383 C381 1.383 . S
C383 H411 0.931 . S
C384 C381 1.382 . S
C384 C382 1.392 . S
C385 Eu376 2.828 . S
C385 C379 1.505 . S
C385 O397 1.249 . S
C385 O398 1.244 . S
O386 Eu377 2.373 . S
O386 C388 1.258 . S
O387 Eu376 2.392 . S
O387 C388 1.242 . S
C388 O386 1.258 . S
C388 O387 1.242 . S
O389 Eu376 2.418 . S
O389 C393 1.244 . S
O390 Eu377 2.488 . S
O390 C406 1.249 . S
O391 Eu377 2.471 . S
O391 C406 1.244 . S
O392 Eu377 2.349 . S
O392 C393 1.265 . S
C393 O389 1.244 . S
C393 O392 1.265 . S
O394 Eu376 2.373 . S
O394 C407 1.258 . S
O395 Eu377 2.392 . S
O395 C407 1.242 . S
O396 Eu377 2.418 . S
O396 C378 1.244 . S
O397 Eu376 2.488 . S
O397 C385 1.249 . S
O398 Eu376 2.471 . S
O398 C385 1.244 . S
O399 Eu376 2.349 . S
O399 C378 1.265 . S
C400 C401 1.379 . S
C400 C404 1.373 . S
C400 C406 1.505 . S
C401 C400 1.379 . S
C401 C403 1.369 . S
C401 H412 0.930 . S
C402 C404 1.383 . S
C402 C405 1.382 . S
C402 H413 0.930 . S
C403 C401 1.369 . S
C403 C405 1.392 . S
C403 H414 0.930 . S
C404 C400 1.373 . S
C404 C402 1.383 . S
C404 H415 0.931 . S
C405 C402 1.382 . S
C405 C403 1.392 . S
C406 Eu377 2.828 . S
C406 O390 1.249 . S
C406 O391 1.244 . S
C406 C400 1.505 . S
C407 O394 1.258 . S
C407 O395 1.242 . S
H408 C380 0.930 . S
H409 C381 0.930 . S
H410 C382 0.930 . S
H411 C383 0.931 . S
H412 C401 0.930 . S
H413 C402 0.930 . S
H414 C403 0.930 . S
H415 C404 0.931 . S
Eu416 C425 2.828 . S
Eu416 O427 2.392 . S
Eu416 O429 2.418 . S
Eu416 O434 2.373 1_545 S
Eu416 O437 2.488 . S
Eu416 O438 2.471 . S
Eu416 O439 2.349 . S
Eu417 O426 2.373 . S
Eu417 O430 2.488 . S
Eu417 O431 2.471 . S
Eu417 O432 2.349 . S
Eu417 O435 2.392 1_545 S
Eu417 O436 2.418 . S
Eu417 C446 2.828 . S
C418 O436 1.244 . S
C418 O439 1.265 . S
C419 C420 1.379 . S
C419 C423 1.373 . S
C419 C425 1.505 1_565 S
C420 C419 1.379 . S
C420 C422 1.369 . S
C420 H448 0.930 . S
C421 C423 1.383 . S
C421 C424 1.382 . S
C421 H449 0.930 . S
C422 C420 1.369 . S
C422 C424 1.392 . S
C422 H450 0.930 . S
C423 C419 1.373 . S
C423 C421 1.383 . S
C423 H451 0.931 . S
C424 C421 1.382 . S
C424 C422 1.392 . S
C425 Eu416 2.828 . S
C425 C419 1.505 1_545 S
C425 O437 1.249 . S
C425 O438 1.244 . S
O426 Eu417 2.373 . S
O426 C428 1.258 . S
O427 Eu416 2.392 . S
O427 C428 1.242 . S
C428 O426 1.258 . S
C428 O427 1.242 . S
O429 Eu416 2.418 . S
O429 C433 1.244 . S
O430 Eu417 2.488 . S
O430 C446 1.249 . S
O431 Eu417 2.471 . S
O431 C446 1.244 . S
O432 Eu417 2.349 . S
O432 C433 1.265 . S
C433 O429 1.244 . S
C433 O432 1.265 . S
O434 Eu416 2.373 1_565 S
O434 C447 1.258 . S
O435 Eu417 2.392 1_565 S
O435 C447 1.242 . S
O436 Eu417 2.418 . S
O436 C418 1.244 . S
O437 Eu416 2.488 . S
O437 C425 1.249 . S
O438 Eu416 2.471 . S
O438 C425 1.244 . S
O439 Eu416 2.349 . S
O439 C418 1.265 . S
C440 C441 1.379 . S
C440 C444 1.373 . S
C440 C446 1.505 . S
C441 C440 1.379 . S
C441 C443 1.369 . S
C441 H452 0.930 . S
C442 C444 1.383 . S
C442 C445 1.382 . S
C442 H453 0.930 . S
C443 C441 1.369 . S
C443 C445 1.392 . S
C443 H454 0.930 . S
C444 C440 1.373 . S
C444 C442 1.383 . S
C444 H455 0.931 . S
C445 C442 1.382 . S
C445 C443 1.392 . S
C446 Eu417 2.828 . S
C446 O430 1.249 . S
C446 O431 1.244 . S
C446 C440 1.505 . S
C447 O434 1.258 . S
C447 O435 1.242 . S
H448 C420 0.930 . S
H449 C421 0.930 . S
H450 C422 0.930 . S
H451 C423 0.931 . S
H452 C441 0.930 . S
H453 C442 0.930 . S
H454 C443 0.930 . S
H455 C444 0.931 . S
Eu456 C465 2.828 . S
Eu456 O467 2.392 . S
Eu456 O469 2.418 . S
Eu456 O474 2.373 . S
Eu456 O477 2.488 . S
Eu456 O478 2.471 . S
Eu456 O479 2.349 . S
Eu457 O466 2.373 . S
Eu457 O470 2.488 . S
Eu457 O471 2.471 . S
Eu457 O472 2.349 . S
Eu457 O475 2.392 . S
Eu457 O476 2.418 . S
Eu457 C486 2.828 . S
C458 O476 1.244 . S
C458 O479 1.265 . S
C459 C460 1.379 . S
C459 C463 1.373 . S
C459 C465 1.505 . S
C460 C459 1.379 . S
C460 C462 1.369 . S
C460 H488 0.930 . S
C461 C463 1.383 . S
C461 C464 1.382 . S
C461 H489 0.930 . S
C462 C460 1.369 . S
C462 C464 1.392 . S
C462 H490 0.930 . S
C463 C459 1.373 . S
C463 C461 1.383 . S
C463 H491 0.931 . S
C464 C461 1.382 . S
C464 C462 1.392 . S
C465 Eu456 2.828 . S
C465 C459 1.505 . S
C465 O477 1.249 . S
C465 O478 1.244 . S
O466 Eu457 2.373 . S
O466 C468 1.258 . S
O467 Eu456 2.392 . S
O467 C468 1.242 . S
C468 O466 1.258 . S
C468 O467 1.242 . S
O469 Eu456 2.418 . S
O469 C473 1.244 . S
O470 Eu457 2.488 . S
O470 C486 1.249 . S
O471 Eu457 2.471 . S
O471 C486 1.244 . S
O472 Eu457 2.349 . S
O472 C473 1.265 . S
C473 O469 1.244 . S
C473 O472 1.265 . S
O474 Eu456 2.373 . S
O474 C487 1.258 . S
O475 Eu457 2.392 . S
O475 C487 1.242 . S
O476 Eu457 2.418 . S
O476 C458 1.244 . S
O477 Eu456 2.488 . S
O477 C465 1.249 . S
O478 Eu456 2.471 . S
O478 C465 1.244 . S
O479 Eu456 2.349 . S
O479 C458 1.265 . S
C480 C481 1.379 . S
C480 C484 1.373 . S
C480 C486 1.505 . S
C481 C480 1.379 . S
C481 C483 1.369 . S
C481 H492 0.930 . S
C482 C484 1.383 . S
C482 C485 1.382 . S
C482 H493 0.930 . S
C483 C481 1.369 . S
C483 C485 1.392 . S
C483 H494 0.930 . S
C484 C480 1.373 . S
C484 C482 1.383 . S
C484 H495 0.931 . S
C485 C482 1.382 . S
C485 C483 1.392 . S
C486 Eu457 2.828 . S
C486 O470 1.249 . S
C486 O471 1.244 . S
C486 C480 1.505 . S
C487 O474 1.258 . S
C487 O475 1.242 . S
H488 C460 0.930 . S
H489 C461 0.930 . S
H490 C462 0.930 . S
H491 C463 0.931 . S
H492 C481 0.930 . S
H493 C482 0.930 . S
H494 C483 0.930 . S
H495 C484 0.931 . S
Eu496 C505 2.828 . S
Eu496 O507 2.392 . S
Eu496 O509 2.418 . S
Eu496 O514 2.373 . S
Eu496 O517 2.488 . S
Eu496 O518 2.471 . S
Eu496 O519 2.349 . S
Eu497 O506 2.373 . S
Eu497 O510 2.488 1_545 S
Eu497 O511 2.471 1_545 S
Eu497 O512 2.349 . S
Eu497 O515 2.392 . S
Eu497 O516 2.418 . S
Eu497 C526 2.828 1_545 S
C498 O516 1.244 . S
C498 O519 1.265 . S
C499 C500 1.379 . S
C499 C503 1.373 . S
C499 C505 1.505 . S
C500 C499 1.379 . S
C500 C502 1.369 . S
C500 H528 0.930 . S
C501 C503 1.383 . S
C501 C504 1.382 . S
C501 H529 0.930 . S
C502 C500 1.369 . S
C502 C504 1.392 . S
C502 H530 0.930 . S
C503 C499 1.373 . S
C503 C501 1.383 . S
C503 H531 0.931 . S
C504 C501 1.382 . S
C504 C502 1.392 . S
C505 Eu496 2.828 . S
C505 C499 1.505 . S
C505 O517 1.249 . S
C505 O518 1.244 . S
O506 Eu497 2.373 . S
O506 C508 1.258 . S
O507 Eu496 2.392 . S
O507 C508 1.242 . S
C508 O506 1.258 . S
C508 O507 1.242 . S
O509 Eu496 2.418 . S
O509 C513 1.244 . S
O510 Eu497 2.488 1_565 S
O510 C526 1.249 . S
O511 Eu497 2.471 1_565 S
O511 C526 1.244 . S
O512 Eu497 2.349 . S
O512 C513 1.265 . S
C513 O509 1.244 . S
C513 O512 1.265 . S
O514 Eu496 2.373 . S
O514 C527 1.258 . S
O515 Eu497 2.392 . S
O515 C527 1.242 . S
O516 Eu497 2.418 . S
O516 C498 1.244 . S
O517 Eu496 2.488 . S
O517 C505 1.249 . S
O518 Eu496 2.471 . S
O518 C505 1.244 . S
O519 Eu496 2.349 . S
O519 C498 1.265 . S
C520 C521 1.379 . S
C520 C524 1.373 . S
C520 C526 1.505 . S
C521 C520 1.379 . S
C521 C523 1.369 . S
C521 H532 0.930 . S
C522 C524 1.383 . S
C522 C525 1.382 . S
C522 H533 0.930 . S
C523 C521 1.369 . S
C523 C525 1.392 . S
C523 H534 0.930 . S
C524 C520 1.373 . S
C524 C522 1.383 . S
C524 H535 0.931 . S
C525 C522 1.382 . S
C525 C523 1.392 . S
C526 Eu497 2.828 1_565 S
C526 O510 1.249 . S
C526 O511 1.244 . S
C526 C520 1.505 . S
C527 O514 1.258 . S
C527 O515 1.242 . S
H528 C500 0.930 . S
H529 C501 0.930 . S
H530 C502 0.930 . S
H531 C503 0.931 . S
H532 C521 0.930 . S
H533 C522 0.930 . S
H534 C523 0.930 . S
H535 C524 0.931 . S
Eu536 C545 2.828 . S
Eu536 O547 2.392 . S
Eu536 O549 2.418 . S
Eu536 O554 2.373 . S
Eu536 O557 2.488 . S
Eu536 O558 2.471 . S
Eu536 O559 2.349 . S
Eu537 O546 2.373 . S
Eu537 O550 2.488 . S
Eu537 O551 2.471 . S
Eu537 O552 2.349 . S
Eu537 O555 2.392 . S
Eu537 O556 2.418 . S
Eu537 C566 2.828 . S
C538 O556 1.244 . S
C538 O559 1.265 . S
C539 C540 1.379 . S
C539 C543 1.373 . S
C539 C545 1.505 . S
C540 C539 1.379 . S
C540 C542 1.369 . S
C540 H568 0.930 . S
C541 C543 1.383 . S
C541 C544 1.382 . S
C541 H569 0.930 . S
C542 C540 1.369 . S
C542 C544 1.392 . S
C542 H570 0.930 . S
C543 C539 1.373 . S
C543 C541 1.383 . S
C543 H571 0.931 . S
C544 C541 1.382 . S
C544 C542 1.392 . S
C545 Eu536 2.828 . S
C545 C539 1.505 . S
C545 O557 1.249 . S
C545 O558 1.244 . S
O546 Eu537 2.373 . S
O546 C548 1.258 . S
O547 Eu536 2.392 . S
O547 C548 1.242 . S
C548 O546 1.258 . S
C548 O547 1.242 . S
O549 Eu536 2.418 . S
O549 C553 1.244 . S
O550 Eu537 2.488 . S
O550 C566 1.249 . S
O551 Eu537 2.471 . S
O551 C566 1.244 . S
O552 Eu537 2.349 . S
O552 C553 1.265 . S
C553 O549 1.244 . S
C553 O552 1.265 . S
O554 Eu536 2.373 . S
O554 C567 1.258 . S
O555 Eu537 2.392 . S
O555 C567 1.242 . S
O556 Eu537 2.418 . S
O556 C538 1.244 . S
O557 Eu536 2.488 . S
O557 C545 1.249 . S
O558 Eu536 2.471 . S
O558 C545 1.244 . S
O559 Eu536 2.349 . S
O559 C538 1.265 . S
C560 C561 1.379 . S
C560 C564 1.373 . S
C560 C566 1.505 . S
C561 C560 1.379 . S
C561 C563 1.369 . S
C561 H572 0.930 . S
C562 C564 1.383 . S
C562 C565 1.382 . S
C562 H573 0.930 . S
C563 C561 1.369 . S
C563 C565 1.392 . S
C563 H574 0.930 . S
C564 C560 1.373 . S
C564 C562 1.383 . S
C564 H575 0.931 . S
C565 C562 1.382 . S
C565 C563 1.392 . S
C566 Eu537 2.828 . S
C566 O550 1.249 . S
C566 O551 1.244 . S
C566 C560 1.505 . S
C567 O554 1.258 . S
C567 O555 1.242 . S
H568 C540 0.930 . S
H569 C541 0.930 . S
H570 C542 0.930 . S
H571 C543 0.931 . S
H572 C561 0.930 . S
H573 C562 0.930 . S
H574 C563 0.930 . S
H575 C564 0.931 . S
Eu576 C585 2.828 . S
Eu576 O587 2.392 . S
Eu576 O589 2.418 1_545 S
Eu576 O594 2.373 . S
Eu576 O597 2.488 . S
Eu576 O598 2.471 . S
Eu576 O599 2.349 . S
Eu577 O586 2.373 1_556 S
Eu577 O590 2.488 . S
Eu577 O591 2.471 . S
Eu577 O592 2.349 . S
Eu577 O595 2.392 . S
Eu577 O596 2.418 1_556 S
Eu577 C606 2.828 . S
C578 O596 1.244 . S
C578 O599 1.265 . S
C579 C580 1.379 . S
C579 C583 1.373 1_545 S
C579 C585 1.505 . S
C580 C579 1.379 . S
C580 C582 1.369 . S
C580 H608 0.930 . S
C581 C583 1.383 . S
C581 C584 1.388 . S
C581 H609 0.930 . S
C582 C580 1.369 . S
C582 C584 1.384 1_545 S
C582 H610 0.930 . S
C583 C579 1.373 1_565 S
C583 C581 1.383 . S
C583 H611 0.931 . S
C584 C581 1.388 . S
C584 C582 1.384 1_565 S
C585 Eu576 2.828 . S
C585 C579 1.505 . S
C585 O597 1.249 . S
C585 O598 1.244 . S
O586 Eu577 2.373 1_554 S
O586 C588 1.258 . S
O587 Eu576 2.392 . S
O587 C588 1.242 . S
C588 O586 1.258 . S
C588 O587 1.242 . S
O589 Eu576 2.418 1_565 S
O589 C593 1.244 . S
O590 Eu577 2.488 . S
O590 C606 1.249 . S
O591 Eu577 2.471 . S
O591 C606 1.244 . S
O592 Eu577 2.349 . S
O592 C593 1.265 1_546 S
C593 O589 1.244 . S
C593 O592 1.265 1_564 S
O594 Eu576 2.373 . S
O594 C607 1.258 . S
O595 Eu577 2.392 . S
O595 C607 1.242 1_556 S
O596 Eu577 2.418 1_554 S
O596 C578 1.244 . S
O597 Eu576 2.488 . S
O597 C585 1.249 . S
O598 Eu576 2.471 . S
O598 C585 1.244 . S
O599 Eu576 2.349 . S
O599 C578 1.265 . S
C600 C601 1.379 . S
C600 C604 1.373 . S
C600 C606 1.505 . S
C601 C600 1.379 . S
C601 C603 1.369 . S
C601 H612 0.930 . S
C602 C604 1.383 . S
C602 C605 1.382 . S
C602 H613 0.930 . S
C603 C601 1.369 . S
C603 C605 1.392 . S
C603 H614 0.930 . S
C604 C600 1.373 . S
C604 C602 1.383 . S
C604 H615 0.931 . S
C605 C602 1.382 . S
C605 C603 1.392 . S
C606 Eu577 2.828 . S
C606 O590 1.249 . S
C606 O591 1.244 . S
C606 C600 1.505 . S
C607 O594 1.258 . S
C607 O595 1.242 1_554 S
H608 C580 0.930 . S
H609 C581 0.930 . S
H610 C582 0.930 . S
H611 C583 0.931 . S
H612 C601 0.930 . S
H613 C602 0.930 . S
H614 C603 0.930 . S
H615 C604 0.931 . S
Eu616 C625 2.828 . S
Eu616 O627 2.392 . S
Eu616 O629 2.418 . S
Eu616 O634 2.373 . S
Eu616 O637 2.488 . S
Eu616 O638 2.471 . S
Eu616 O639 2.349 . S
Eu617 O626 2.373 . S
Eu617 O630 2.488 . S
Eu617 O631 2.471 . S
Eu617 O632 2.349 . S
Eu617 O635 2.392 . S
Eu617 O636 2.418 . S
Eu617 C646 2.828 . S
C618 O636 1.244 . S
C618 O639 1.265 . S
C619 C620 1.379 . S
C619 C623 1.373 . S
C619 C625 1.505 . S
C620 C619 1.379 . S
C620 C622 1.369 . S
C620 H648 0.930 . S
C621 C623 1.383 . S
C621 C624 1.382 . S
C621 H649 0.930 . S
C622 C620 1.369 . S
C622 C624 1.392 . S
C622 H650 0.930 . S
C623 C619 1.373 . S
C623 C621 1.383 . S
C623 H651 0.931 . S
C624 C621 1.382 . S
C624 C622 1.392 . S
C625 Eu616 2.828 . S
C625 C619 1.505 . S
C625 O637 1.249 . S
C625 O638 1.244 . S
O626 Eu617 2.373 . S
O626 C628 1.258 . S
O627 Eu616 2.392 . S
O627 C628 1.242 . S
C628 O626 1.258 . S
C628 O627 1.242 . S
O629 Eu616 2.418 . S
O629 C633 1.244 . S
O630 Eu617 2.488 . S
O630 C646 1.249 . S
O631 Eu617 2.471 . S
O631 C646 1.244 . S
O632 Eu617 2.349 . S
O632 C633 1.265 . S
C633 O629 1.244 . S
C633 O632 1.265 . S
O634 Eu616 2.373 . S
O634 C647 1.258 . S
O635 Eu617 2.392 . S
O635 C647 1.242 . S
O636 Eu617 2.418 . S
O636 C618 1.244 . S
O637 Eu616 2.488 . S
O637 C625 1.249 . S
O638 Eu616 2.471 . S
O638 C625 1.244 . S
O639 Eu616 2.349 . S
O639 C618 1.265 . S
C640 C641 1.379 . S
C640 C644 1.373 . S
C640 C646 1.505 . S
C641 C640 1.379 . S
C641 C643 1.369 . S
C641 H652 0.930 . S
C642 C644 1.383 . S
C642 C645 1.382 . S
C642 H653 0.930 . S
C643 C641 1.369 . S
C643 C645 1.392 . S
C643 H654 0.930 . S
C644 C640 1.373 . S
C644 C642 1.383 . S
C644 H655 0.931 . S
C645 C642 1.382 . S
C645 C643 1.392 . S
C646 Eu617 2.828 . S
C646 O630 1.249 . S
C646 O631 1.244 . S
C646 C640 1.505 . S
C647 O634 1.258 . S
C647 O635 1.242 . S
H648 C620 0.930 . S
H649 C621 0.930 . S
H650 C622 0.930 . S
H651 C623 0.931 . S
H652 C641 0.930 . S
H653 C642 0.930 . S
H654 C643 0.930 . S
H655 C644 0.931 . S
Eu656 C665 2.828 . S
Eu656 O667 2.392 . S
Eu656 O669 2.418 . S
Eu656 O674 2.373 1_554 S
Eu656 O677 2.488 . S
Eu656 O678 2.471 . S
Eu656 O679 2.349 . S
Eu657 O666 2.392 . S
Eu657 O670 2.495 . S
Eu657 O671 2.484 . S
Eu657 O672 2.357 . S
Eu657 O675 2.376 1_554 S
Eu657 O676 2.415 . S
Eu657 C686 2.839 . S
C658 O676 1.244 . S
C658 O679 1.265 . S
C659 C660 1.379 1_554 S
C659 C663 1.373 . S
C659 C665 1.505 . S
C660 C659 1.379 1_556 S
C660 C662 1.369 . S
C660 H688 0.930 . S
C661 C663 1.383 1_556 S
C661 C664 1.382 . S
C661 H689 0.930 . S
C662 C660 1.369 . S
C662 C664 1.392 . S
C662 H690 0.930 . S
C663 C659 1.373 . S
C663 C661 1.383 1_554 S
C663 H691 0.931 . S
C664 C661 1.382 . S
C664 C662 1.392 . S
C665 Eu656 2.828 . S
C665 C659 1.505 . S
C665 O677 1.249 . S
C665 O678 1.244 . S
O666 Eu657 2.392 . S
O666 C668 1.258 . S
O667 Eu656 2.392 . S
O667 C668 1.242 . S
C668 O666 1.258 . S
C668 O667 1.242 . S
O669 Eu656 2.418 . S
O669 C673 1.244 . S
O670 Eu657 2.495 . S
O670 C686 1.249 . S
O671 Eu657 2.484 . S
O671 C686 1.244 . S
O672 Eu657 2.357 . S
O672 C673 1.265 . S
C673 O669 1.244 . S
C673 O672 1.265 . S
O674 Eu656 2.373 1_556 S
O674 C687 1.258 . S
O675 Eu657 2.376 1_556 S
O675 C687 1.242 . S
O676 Eu657 2.415 . S
O676 C658 1.244 . S
O677 Eu656 2.488 . S
O677 C665 1.249 . S
O678 Eu656 2.471 . S
O678 C665 1.244 . S
O679 Eu656 2.349 . S
O679 C658 1.265 . S
C680 C681 1.379 . S
C680 C684 1.373 . S
C680 C686 1.505 . S
C681 C680 1.379 . S
C681 C683 1.369 . S
C681 H692 0.930 . S
C682 C684 1.383 . S
C682 C685 1.382 . S
C682 H693 0.930 . S
C683 C681 1.369 . S
C683 C685 1.392 . S
C683 H694 0.930 . S
C684 C680 1.373 . S
C684 C682 1.383 . S
C684 H695 0.931 . S
C685 C682 1.382 . S
C685 C683 1.392 . S
C686 Eu657 2.839 . S
C686 O670 1.249 . S
C686 O671 1.244 . S
C686 C680 1.505 . S
C687 O674 1.258 . S
C687 O675 1.242 . S
H688 C660 0.930 . S
H689 C661 0.930 . S
H690 C662 0.930 . S
H691 C663 0.931 . S
H692 C681 0.930 . S
H693 C682 0.930 . S
H694 C683 0.930 . S
H695 C684 0.931 . S
Eu696 C705 2.828 . S
Eu696 O707 2.392 . S
Eu696 O709 2.418 . S
Eu696 O714 2.373 . S
Eu696 O717 2.488 . S
Eu696 O718 2.471 . S
Eu696 O719 2.349 . S
Eu697 O706 2.373 . S
Eu697 O710 2.488 . S
Eu697 O711 2.471 . S
Eu697 O712 2.349 . S
Eu697 O715 2.392 . S
Eu697 O716 2.418 . S
Eu697 C726 2.828 . S
C698 O716 1.244 . S
C698 O719 1.265 . S
C699 C700 1.379 . S
C699 C703 1.373 . S
C699 C705 1.505 . S
C700 C699 1.379 . S
C700 C702 1.369 . S
C700 H728 0.930 . S
C701 C703 1.383 . S
C701 C704 1.382 . S
C701 H729 0.930 1_655 S
C702 C700 1.369 . S
C702 C704 1.392 . S
C702 H730 0.930 . S
C703 C699 1.373 . S
C703 C701 1.383 . S
C703 H731 0.931 . S
C704 C701 1.382 . S
C704 C702 1.392 . S
C705 Eu696 2.828 . S
C705 C699 1.505 . S
C705 O717 1.249 . S
C705 O718 1.244 . S
O706 Eu697 2.373 . S
O706 C708 1.258 . S
O707 Eu696 2.392 . S
O707 C708 1.242 . S
C708 O706 1.258 . S
C708 O707 1.242 . S
O709 Eu696 2.418 . S
O709 C713 1.244 . S
O710 Eu697 2.488 . S
O710 C726 1.249 . S
O711 Eu697 2.471 . S
O711 C726 1.244 . S
O712 Eu697 2.349 . S
O712 C713 1.265 . S
C713 O709 1.244 . S
C713 O712 1.265 . S
O714 Eu696 2.373 . S
O714 C727 1.258 . S
O715 Eu697 2.392 . S
O715 C727 1.242 . S
O716 Eu697 2.418 . S
O716 C698 1.244 . S
O717 Eu696 2.488 . S
O717 C705 1.249 . S
O718 Eu696 2.471 . S
O718 C705 1.244 . S
O719 Eu696 2.349 . S
O719 C698 1.265 . S
C720 C721 1.379 . S
C720 C724 1.373 . S
C720 C726 1.505 . S
C721 C720 1.379 . S
C721 C723 1.369 . S
C721 H732 0.930 . S
C722 C724 1.383 . S
C722 C725 1.382 . S
C722 H733 0.930 . S
C723 C721 1.369 . S
C723 C725 1.392 . S
C723 H734 0.930 . S
C724 C720 1.373 . S
C724 C722 1.383 . S
C724 H735 0.931 . S
C725 C722 1.382 . S
C725 C723 1.392 . S
C726 Eu697 2.828 . S
C726 O710 1.249 . S
C726 O711 1.244 . S
C726 C720 1.505 . S
C727 O714 1.258 . S
C727 O715 1.242 . S
H728 C700 0.930 . S
H729 C701 0.930 1_455 S
H730 C702 0.930 . S
H731 C703 0.931 . S
H732 C721 0.930 . S
H733 C722 0.930 . S
H734 C723 0.930 . S
H735 C724 0.931 . S
Eu736 C745 2.828 . S
Eu736 O747 2.392 . S
Eu736 O749 2.418 . S
Eu736 O754 2.373 . S
Eu736 O757 2.488 . S
Eu736 O758 2.471 . S
Eu736 O759 2.349 . S
Eu737 O746 2.373 . S
Eu737 O750 2.488 . S
Eu737 O751 2.471 . S
Eu737 O752 2.349 . S
Eu737 O755 2.392 . S
Eu737 O756 2.418 . S
Eu737 C766 2.828 . S
C738 O756 1.244 . S
C738 O759 1.265 . S
C739 C740 1.379 1_455 S
C739 C743 1.373 . S
C739 C745 1.505 . S
C740 C739 1.379 1_655 S
C740 C742 1.369 . S
C740 H768 0.930 . S
C741 C743 1.404 . S
C741 C744 1.356 1_455 S
C741 H769 0.937 . S
C742 C740 1.369 . S
C742 C744 1.392 . S
C742 H770 0.930 . S
C743 C739 1.373 . S
C743 C741 1.404 . S
C743 H771 0.931 . S
C744 C741 1.356 1_655 S
C744 C742 1.392 . S
C745 Eu736 2.828 . S
C745 C739 1.505 . S
C745 O757 1.249 . S
C745 O758 1.244 . S
O746 Eu737 2.373 . S
O746 C748 1.258 . S
O747 Eu736 2.392 . S
O747 C748 1.242 . S
C748 O746 1.258 . S
C748 O747 1.242 . S
O749 Eu736 2.418 . S
O749 C753 1.244 . S
O750 Eu737 2.488 . S
O750 C766 1.249 . S
O751 Eu737 2.471 . S
O751 C766 1.244 . S
O752 Eu737 2.349 . S
O752 C753 1.265 . S
C753 O749 1.244 . S
C753 O752 1.265 . S
O754 Eu736 2.373 . S
O754 C767 1.258 . S
O755 Eu737 2.392 . S
O755 C767 1.242 . S
O756 Eu737 2.418 . S
O756 C738 1.244 . S
O757 Eu736 2.488 . S
O757 C745 1.249 . S
O758 Eu736 2.471 . S
O758 C745 1.244 . S
O759 Eu736 2.349 . S
O759 C738 1.265 . S
C760 C761 1.379 . S
C760 C764 1.373 . S
C760 C766 1.505 . S
C761 C760 1.379 . S
C761 C763 1.369 . S
C761 H772 0.930 . S
C762 C764 1.383 . S
C762 C765 1.382 . S
C762 H773 0.930 . S
C763 C761 1.369 . S
C763 C765 1.392 . S
C763 H774 0.930 . S
C764 C760 1.373 . S
C764 C762 1.383 . S
C764 H775 0.931 . S
C765 C762 1.382 . S
C765 C763 1.392 . S
C766 Eu737 2.828 . S
C766 O750 1.249 . S
C766 O751 1.244 . S
C766 C760 1.505 . S
C767 O754 1.258 . S
C767 O755 1.242 . S
H768 C740 0.930 . S
H769 C741 0.937 . S
H770 C742 0.930 . S
H771 C743 0.931 . S
H772 C761 0.930 . S
H773 C762 0.930 . S
H774 C763 0.930 . S
H775 C764 0.931 . S
Eu776 C785 2.828 . S
Eu776 O787 2.392 . S
Eu776 O789 2.418 . S
Eu776 O794 2.373 . S
Eu776 O797 2.488 . S
Eu776 O798 2.471 . S
Eu776 O799 2.349 . S
Eu777 O786 2.373 . S
Eu777 O790 2.488 . S
Eu777 O791 2.471 . S
Eu777 O792 2.349 . S
Eu777 O795 2.392 . S
Eu777 O796 2.418 . S
Eu777 C806 2.828 . S
C778 O796 1.244 . S
C778 O799 1.265 . S
C779 C780 1.379 . S
C779 C783 1.373 . S
C779 C785 1.505 . S
C780 C779 1.379 . S
C780 C782 1.369 . S
C780 H808 0.930 . S
C781 C783 1.383 . S
C781 C784 1.382 . S
C781 H809 0.930 . S
C782 C780 1.369 . S
C782 C784 1.392 . S
C782 H810 0.930 . S
C783 C779 1.373 . S
C783 C781 1.383 . S
C783 H811 0.931 . S
C784 C781 1.382 . S
C784 C782 1.392 . S
C785 Eu776 2.828 . S
C785 C779 1.505 . S
C785 O797 1.249 . S
C785 O798 1.244 . S
O786 Eu777 2.373 . S
O786 C788 1.258 . S
O787 Eu776 2.392 . S
O787 C788 1.242 . S
C788 O786 1.258 . S
C788 O787 1.242 . S
O789 Eu776 2.418 . S
O789 C793 1.244 . S
O790 Eu777 2.488 . S
O790 C806 1.249 . S
O791 Eu777 2.471 . S
O791 C806 1.244 . S
O792 Eu777 2.349 . S
O792 C793 1.265 . S
C793 O789 1.244 . S
C793 O792 1.265 . S
O794 Eu776 2.373 . S
O794 C807 1.258 . S
O795 Eu777 2.392 . S
O795 C807 1.242 . S
O796 Eu777 2.418 . S
O796 C778 1.244 . S
O797 Eu776 2.488 . S
O797 C785 1.249 . S
O798 Eu776 2.471 . S
O798 C785 1.244 . S
O799 Eu776 2.349 . S
O799 C778 1.265 . S
C800 C801 1.379 . S
C800 C804 1.373 . S
C800 C806 1.505 . S
C801 C800 1.379 . S
C801 C803 1.369 . S
C801 H812 0.930 . S
C802 C804 1.383 . S
C802 C805 1.382 . S
C802 H813 0.930 . S
C803 C801 1.369 . S
C803 C805 1.392 . S
C803 H814 0.930 . S
C804 C800 1.373 . S
C804 C802 1.383 . S
C804 H815 0.931 . S
C805 C802 1.382 . S
C805 C803 1.392 . S
C806 Eu777 2.828 . S
C806 O790 1.249 . S
C806 O791 1.244 . S
C806 C800 1.505 . S
C807 O794 1.258 . S
C807 O795 1.242 . S
H808 C780 0.930 . S
H809 C781 0.930 . S
H810 C782 0.930 . S
H811 C783 0.931 . S
H812 C801 0.930 . S
H813 C802 0.930 . S
H814 C803 0.930 . S
H815 C804 0.931 . S
Eu816 C825 2.828 . S
Eu816 O827 2.392 . S
Eu816 O829 2.418 . S
Eu816 O834 2.373 . S
Eu816 O837 2.488 . S
Eu816 O838 2.471 . S
Eu816 O839 2.349 . S
Eu817 O826 2.373 . S
Eu817 O830 2.488 . S
Eu817 O831 2.471 . S
Eu817 O832 2.349 . S
Eu817 O835 2.392 . S
Eu817 O836 2.418 . S
Eu817 C846 2.828 . S
C818 O836 1.244 . S
C818 O839 1.265 . S
C819 C820 1.379 . S
C819 C823 1.373 . S
C819 C825 1.505 . S
C820 C819 1.379 . S
C820 C822 1.369 . S
C820 H848 0.930 . S
C821 C823 1.383 . S
C821 C824 1.382 . S
C821 H849 0.930 . S
C822 C820 1.369 . S
C822 C824 1.392 . S
C822 H850 0.930 . S
C823 C819 1.373 . S
C823 C821 1.383 . S
C823 H851 0.931 . S
C824 C821 1.382 . S
C824 C822 1.392 . S
C825 Eu816 2.828 . S
C825 C819 1.505 . S
C825 O837 1.249 . S
C825 O838 1.244 . S
O826 Eu817 2.373 . S
O826 C828 1.258 . S
O827 Eu816 2.392 . S
O827 C828 1.242 . S
C828 O826 1.258 . S
C828 O827 1.242 . S
O829 Eu816 2.418 . S
O829 C833 1.244 . S
O830 Eu817 2.488 . S
O830 C846 1.249 . S
O831 Eu817 2.471 . S
O831 C846 1.244 . S
O832 Eu817 2.349 . S
O832 C833 1.265 . S
C833 O829 1.244 . S
C833 O832 1.265 . S
O834 Eu816 2.373 . S
O834 C847 1.258 . S
O835 Eu817 2.392 . S
O835 C847 1.242 . S
O836 Eu817 2.418 . S
O836 C818 1.244 . S
O837 Eu816 2.488 . S
O837 C825 1.249 . S
O838 Eu816 2.471 . S
O838 C825 1.244 . S
O839 Eu816 2.349 . S
O839 C818 1.265 . S
C840 C841 1.379 . S
C840 C844 1.373 . S
C840 C846 1.505 . S
C841 C840 1.379 . S
C841 C843 1.369 . S
C841 H852 0.930 . S
C842 C844 1.383 . S
C842 C845 1.382 . S
C842 H853 0.930 . S
C843 C841 1.369 . S
C843 C845 1.392 . S
C843 H854 0.930 . S
C844 C840 1.373 . S
C844 C842 1.383 . S
C844 H855 0.931 . S
C845 C842 1.382 . S
C845 C843 1.392 . S
C846 Eu817 2.828 . S
C846 O830 1.249 . S
C846 O831 1.244 . S
C846 C840 1.505 . S
C847 O834 1.258 . S
C847 O835 1.242 . S
H848 C820 0.930 . S
H849 C821 0.930 . S
H850 C822 0.930 . S
H851 C823 0.931 . S
H852 C841 0.930 . S
H853 C842 0.930 . S
H854 C843 0.930 . S
H855 C844 0.931 . S
Eu856 C865 2.828 . S
Eu856 O867 2.392 . S
Eu856 O869 2.418 . S
Eu856 O874 2.373 . S
Eu856 O877 2.488 . S
Eu856 O878 2.471 . S
Eu856 O879 2.349 . S
Eu857 O866 2.373 . S
Eu857 O870 2.488 . S
Eu857 O871 2.471 . S
Eu857 O872 2.349 . S
Eu857 O875 2.392 . S
Eu857 O876 2.418 . S
Eu857 C886 2.828 . S
C858 O876 1.244 . S
C858 O879 1.265 . S
C859 C860 1.379 . S
C859 C863 1.373 . S
C859 C865 1.505 . S
C860 C859 1.379 . S
C860 C862 1.369 . S
C860 H888 0.930 . S
C861 C863 1.383 . S
C861 C864 1.382 . S
C861 H889 0.930 . S
C862 C860 1.369 . S
C862 C864 1.392 . S
C862 H890 0.930 . S
C863 C859 1.373 . S
C863 C861 1.383 . S
C863 H891 0.931 . S
C864 C861 1.382 . S
C864 C862 1.392 . S
C865 Eu856 2.828 . S
C865 C859 1.505 . S
C865 O877 1.249 . S
C865 O878 1.244 . S
O866 Eu857 2.373 . S
O866 C868 1.258 . S
O867 Eu856 2.392 . S
O867 C868 1.242 . S
C868 O866 1.258 . S
C868 O867 1.242 . S
O869 Eu856 2.418 . S
O869 C873 1.244 . S
O870 Eu857 2.488 . S
O870 C886 1.249 . S
O871 Eu857 2.471 . S
O871 C886 1.244 . S
O872 Eu857 2.349 . S
O872 C873 1.265 . S
C873 O869 1.244 . S
C873 O872 1.265 . S
O874 Eu856 2.373 . S
O874 C887 1.258 . S
O875 Eu857 2.392 . S
O875 C887 1.242 . S
O876 Eu857 2.418 . S
O876 C858 1.244 . S
O877 Eu856 2.488 . S
O877 C865 1.249 . S
O878 Eu856 2.471 . S
O878 C865 1.244 . S
O879 Eu856 2.349 . S
O879 C858 1.265 . S
C880 C881 1.379 . S
C880 C884 1.373 . S
C880 C886 1.505 . S
C881 C880 1.379 . S
C881 C883 1.369 . S
C881 H892 0.930 . S
C882 C884 1.383 . S
C882 C885 1.382 . S
C882 H893 0.930 . S
C883 C881 1.369 . S
C883 C885 1.392 . S
C883 H894 0.930 . S
C884 C880 1.373 . S
C884 C882 1.383 . S
C884 H895 0.931 . S
C885 C882 1.382 . S
C885 C883 1.392 . S
C886 Eu857 2.828 . S
C886 O870 1.249 . S
C886 O871 1.244 . S
C886 C880 1.505 . S
C887 O874 1.258 . S
C887 O875 1.242 . S
H888 C860 0.930 . S
H889 C861 0.930 . S
H890 C862 0.930 . S
H891 C863 0.931 . S
H892 C881 0.930 . S
H893 C882 0.930 . S
H894 C883 0.930 . S
H895 C884 0.931 . S
Eu896 C905 2.828 . S
Eu896 O907 2.392 . S
Eu896 O909 2.418 . S
Eu896 O914 2.373 . S
Eu896 O917 2.488 . S
Eu896 O918 2.471 . S
Eu896 O919 2.349 . S
Eu897 O906 2.373 . S
Eu897 O910 2.488 . S
Eu897 O911 2.471 . S
Eu897 O912 2.349 . S
Eu897 O915 2.392 . S
Eu897 O916 2.418 . S
Eu897 C926 2.828 . S
C898 O916 1.244 . S
C898 O919 1.265 . S
C899 C900 1.379 . S
C899 C903 1.373 . S
C899 C905 1.505 . S
C900 C899 1.379 . S
C900 C902 1.369 . S
C900 H928 0.930 . S
C901 C903 1.383 . S
C901 C904 1.382 . S
C901 H929 0.930 . S
C902 C900 1.369 . S
C902 C904 1.392 . S
C902 H930 0.930 . S
C903 C899 1.373 . S
C903 C901 1.383 . S
C903 H931 0.931 . S
C904 C901 1.382 . S
C904 C902 1.392 . S
C905 Eu896 2.828 . S
C905 C899 1.505 . S
C905 O917 1.249 . S
C905 O918 1.244 . S
O906 Eu897 2.373 . S
O906 C908 1.258 . S
O907 Eu896 2.392 . S
O907 C908 1.242 . S
C908 O906 1.258 . S
C908 O907 1.242 . S
O909 Eu896 2.418 . S
O909 C913 1.244 . S
O910 Eu897 2.488 . S
O910 C926 1.249 . S
O911 Eu897 2.471 . S
O911 C926 1.244 . S
O912 Eu897 2.349 . S
O912 C913 1.265 . S
C913 O909 1.244 . S
C913 O912 1.265 . S
O914 Eu896 2.373 . S
O914 C927 1.258 . S
O915 Eu897 2.392 . S
O915 C927 1.242 . S
O916 Eu897 2.418 . S
O916 C898 1.244 . S
O917 Eu896 2.488 . S
O917 C905 1.249 . S
O918 Eu896 2.471 . S
O918 C905 1.244 . S
O919 Eu896 2.349 . S
O919 C898 1.265 . S
C920 C921 1.379 . S
C920 C924 1.373 . S
C920 C926 1.505 . S
C921 C920 1.379 . S
C921 C923 1.369 . S
C921 H932 0.930 . S
C922 C924 1.383 . S
C922 C925 1.382 . S
C922 H933 0.930 . S
C923 C921 1.369 . S
C923 C925 1.392 . S
C923 H934 0.930 . S
C924 C920 1.373 . S
C924 C922 1.383 . S
C924 H935 0.931 . S
C925 C922 1.382 . S
C925 C923 1.392 . S
C926 Eu897 2.828 . S
C926 O910 1.249 . S
C926 O911 1.244 . S
C926 C920 1.505 . S
C927 O914 1.258 . S
C927 O915 1.242 . S
H928 C900 0.930 . S
H929 C901 0.930 . S
H930 C902 0.930 . S
H931 C903 0.931 . S
H932 C921 0.930 . S
H933 C922 0.930 . S
H934 C923 0.930 . S
H935 C924 0.931 . S
Eu936 C945 2.828 1_554 S
Eu936 O947 2.392 . S
Eu936 O949 2.418 1_554 S
Eu936 O954 2.373 1_554 S
Eu936 O957 2.488 1_554 S
Eu936 O958 2.471 . S
Eu936 O959 2.349 . S
Eu937 O946 2.373 . S
Eu937 O950 2.488 1_455 S
Eu937 O951 2.471 1_455 S
Eu937 O952 2.349 1_554 S
Eu937 O955 2.392 . S
Eu937 O956 2.418 . S
Eu937 C966 2.828 1_455 S
C938 O956 1.244 . S
C938 O959 1.265 . S
C939 C940 1.379 1_556 S
C939 C943 1.373 . S
C939 C945 1.505 . S
C940 C939 1.379 1_554 S
C940 C942 1.369 . S
C940 H968 0.930 . S
C941 C943 1.383 . S
C941 C944 1.382 . S
C941 H969 0.930 . S
C942 C940 1.369 . S
C942 C944 1.392 1_554 S
C942 H970 0.930 . S
C943 C939 1.373 . S
C943 C941 1.383 . S
C943 H971 0.931 . S
C944 C941 1.382 . S
C944 C942 1.392 1_556 S
C945 Eu936 2.828 1_556 S
C945 C939 1.505 . S
C945 O957 1.249 . S
C945 O958 1.244 1_556 S
O946 Eu937 2.373 . S
O946 C948 1.258 . S
O947 Eu936 2.392 . S
O947 C948 1.242 . S
C948 O946 1.258 . S
C948 O947 1.242 . S
O949 Eu936 2.418 1_556 S
O949 C953 1.244 . S
O950 Eu937 2.488 1_655 S
O950 C966 1.249 . S
O951 Eu937 2.471 1_655 S
O951 C966 1.244 . S
O952 Eu937 2.349 1_556 S
O952 C953 1.265 . S
C953 O949 1.244 . S
C953 O952 1.265 . S
O954 Eu936 2.373 1_556 S
O954 C967 1.258 1_556 S
O955 Eu937 2.392 . S
O955 C967 1.242 . S
O956 Eu937 2.418 . S
O956 C938 1.244 . S
O957 Eu936 2.488 1_556 S
O957 C945 1.249 . S
O958 Eu936 2.471 . S
O958 C945 1.244 1_554 S
O959 Eu936 2.349 . S
O959 C938 1.265 . S
C960 C961 1.379 . S
C960 C964 1.373 . S
C960 C966 1.505 . S
C961 C960 1.379 . S
C961 C963 1.369 . S
C961 H972 0.930 . S
C962 C964 1.383 . S
C962 C965 1.382 . S
C962 H973 0.930 . S
C963 C961 1.369 . S
C963 C965 1.392 . S
C963 H974 0.930 . S
C964 C960 1.373 . S
C964 C962 1.383 . S
C964 H975 0.931 . S
C965 C962 1.382 . S
C965 C963 1.392 . S
C966 Eu937 2.828 1_655 S
C966 O950 1.249 . S
C966 O951 1.244 . S
C966 C960 1.505 . S
C967 O954 1.258 1_554 S
C967 O955 1.242 . S
H968 C940 0.930 . S
H969 C941 0.930 . S
H970 C942 0.930 . S
H971 C943 0.931 . S
H972 C961 0.930 . S
H973 C962 0.930 . S
H974 C963 0.930 . S
H975 C964 0.931 . S
C976 C977 1.369 . S
C976 C978 1.419 . S
C976 H980 0.930 1_455 S
C977 C976 1.369 . S
C977 C986 1.429 . S
C978 C976 1.419 . S
C978 C979 1.363 . S
C978 H981 0.929 1_556 S
C979 C978 1.363 . S
C979 C985 1.428 . S
H980 C976 0.930 1_655 S
H981 C978 0.929 1_554 S
S982 N983 1.613 . S
S982 N984 1.610 . S
N983 S982 1.613 . S
N983 C986 1.350 . S
N984 S982 1.610 . S
N984 C985 1.351 . S
C985 C979 1.428 . S
C985 N984 1.351 . S
C985 C986 1.434 . S
C986 C977 1.429 . S
C986 N983 1.350 . S
C986 C985 1.434 . S
C987 C988 1.369 . S
C987 C989 1.419 . S
C987 H991 0.930 . S
C988 C987 1.369 . S
C988 C997 1.429 . S
C989 C987 1.419 . S
C989 C990 1.363 . S
C989 H992 0.929 . S
C990 C989 1.363 . S
C990 C996 1.428 . S
H991 C987 0.930 . S
H992 C989 0.929 . S
S993 N994 1.613 . S
S993 N995 1.610 . S
N994 S993 1.613 . S
N994 C997 1.350 . S
N995 S993 1.610 . S
N995 C996 1.351 . S
C996 C990 1.428 . S
C996 N995 1.351 . S
C996 C997 1.434 . S
C997 C988 1.429 . S
C997 N994 1.350 . S
C997 C996 1.434 . S
C998 C999 1.369 . S
C998 C1000 1.419 . S
C998 H1002 0.930 . S
C999 C998 1.369 . S
C999 C1008 1.429 . S
C1000 C998 1.419 . S
C1000 C1001 1.363 . S
C1000 H1003 0.929 . S
C1001 C1000 1.363 . S
C1001 C1007 1.428 . S
H1002 C998 0.930 . S
H1003 C1000 0.929 . S
S1004 N1005 1.613 . S
S1004 N1006 1.610 . S
N1005 S1004 1.613 . S
N1005 C1008 1.350 . S
N1006 S1004 1.610 . S
N1006 C1007 1.351 . S
C1007 C1001 1.428 . S
C1007 N1006 1.351 . S
C1007 C1008 1.434 . S
C1008 C999 1.429 . S
C1008 N1005 1.350 . S
C1008 C1007 1.434 . S
C1009 C1010 1.369 . S
C1009 C1011 1.419 . S
C1009 H1013 0.930 . S
C1010 C1009 1.369 . S
C1010 C1019 1.429 . S
C1011 C1009 1.419 . S
C1011 C1012 1.363 . S
C1011 H1014 0.929 . S
C1012 C1011 1.363 . S
C1012 C1018 1.428 . S
H1013 C1009 0.930 . S
H1014 C1011 0.929 . S
S1015 N1016 1.613 . S
S1015 N1017 1.610 . S
N1016 S1015 1.613 . S
N1016 C1019 1.350 . S
N1017 S1015 1.610 . S
N1017 C1018 1.351 . S
C1018 C1012 1.428 . S
C1018 N1017 1.351 . S
C1018 C1019 1.434 . S
C1019 C1010 1.429 . S
C1019 N1016 1.350 . S
C1019 C1018 1.434 . S
C1020 C1021 1.369 . S
C1020 C1022 1.419 . S
C1020 H1024 0.930 . S
C1021 C1020 1.369 . S
C1021 C1030 1.429 . S
C1022 C1020 1.419 . S
C1022 C1023 1.363 . S
C1022 H1025 0.929 . S
C1023 C1022 1.363 . S
C1023 C1029 1.428 . S
H1024 C1020 0.930 . S
H1025 C1022 0.929 . S
S1026 N1027 1.613 . S
S1026 N1028 1.610 . S
N1027 S1026 1.613 . S
N1027 C1030 1.350 . S
N1028 S1026 1.610 . S
N1028 C1029 1.351 . S
C1029 C1023 1.428 . S
C1029 N1028 1.351 . S
C1029 C1030 1.434 . S
C1030 C1021 1.429 . S
C1030 N1027 1.350 . S
C1030 C1029 1.434 . S
C1031 C1032 1.369 . S
C1031 C1033 1.419 . S
C1031 H1035 0.930 . S
C1032 C1031 1.369 . S
C1032 C1041 1.429 . S
C1033 C1031 1.419 . S
C1033 C1034 1.363 . S
C1033 H1036 0.929 . S
C1034 C1033 1.363 . S
C1034 C1040 1.428 . S
H1035 C1031 0.930 . S
H1036 C1033 0.929 . S
S1037 N1038 1.613 . S
S1037 N1039 1.610 . S
N1038 S1037 1.613 . S
N1038 C1041 1.350 . S
N1039 S1037 1.610 . S
N1039 C1040 1.351 . S
C1040 C1034 1.428 . S
C1040 N1039 1.351 . S
C1040 C1041 1.434 . S
C1041 C1032 1.429 . S
C1041 N1038 1.350 . S
C1041 C1040 1.434 . S
C1042 C1043 1.369 . S
C1042 C1044 1.419 . S
C1042 H1046 0.930 . S
C1043 C1042 1.369 . S
C1043 C1052 1.429 . S
C1044 C1042 1.419 . S
C1044 C1045 1.363 . S
C1044 H1047 0.929 . S
C1045 C1044 1.363 . S
C1045 C1051 1.428 . S
H1046 C1042 0.930 . S
H1047 C1044 0.929 . S
S1048 N1049 1.613 . S
S1048 N1050 1.610 . S
N1049 S1048 1.613 . S
N1049 C1052 1.350 . S
N1050 S1048 1.610 . S
N1050 C1051 1.351 . S
C1051 C1045 1.428 . S
C1051 N1050 1.351 . S
C1051 C1052 1.434 . S
C1052 C1043 1.429 . S
C1052 N1049 1.350 . S
C1052 C1051 1.434 . S
C1053 C1054 1.369 . S
C1053 C1055 1.419 . S
C1053 H1057 0.930 . S
C1054 C1053 1.369 . S
C1054 C1063 1.429 . S
C1055 C1053 1.419 . S
C1055 C1056 1.363 . S
C1055 H1058 0.929 . S
C1056 C1055 1.363 . S
C1056 C1062 1.428 . S
H1057 C1053 0.930 . S
H1058 C1055 0.929 . S
S1059 N1060 1.613 . S
S1059 N1061 1.610 . S
N1060 S1059 1.613 . S
N1060 C1063 1.350 . S
N1061 S1059 1.610 . S
N1061 C1062 1.351 . S
C1062 C1056 1.428 . S
C1062 N1061 1.351 . S
C1062 C1063 1.434 . S
C1063 C1054 1.429 . S
C1063 N1060 1.350 . S
C1063 C1062 1.434 . S
C1064 C1065 1.369 . S
C1064 C1066 1.419 1_655 S
C1064 H1068 0.930 . S
C1065 C1064 1.369 . S
C1065 C1074 1.429 1_655 S
C1066 C1064 1.419 1_455 S
C1066 C1067 1.363 . S
C1066 H1069 0.929 1_455 S
C1067 C1066 1.363 . S
C1067 C1073 1.428 . S
H1068 C1064 0.930 . S
H1069 C1066 0.929 1_655 S
S1070 N1071 1.613 . S
S1070 N1072 1.610 . S
N1071 S1070 1.613 . S
N1071 C1074 1.350 . S
N1072 S1070 1.610 . S
N1072 C1073 1.351 . S
C1073 C1067 1.428 . S
C1073 N1072 1.351 . S
C1073 C1074 1.434 . S
C1074 C1065 1.429 1_455 S
C1074 N1071 1.350 . S
C1074 C1073 1.434 . S
C1075 C1076 1.369 . S
C1075 C1077 1.419 . S
C1075 H1079 0.930 . S
C1076 C1075 1.369 . S
C1076 C1085 1.429 . S
C1077 C1075 1.419 . S
C1077 C1078 1.363 . S
C1077 H1080 0.929 . S
C1078 C1077 1.363 . S
C1078 C1084 1.428 . S
H1079 C1075 0.930 . S
H1080 C1077 0.929 . S
S1081 N1082 1.613 . S
S1081 N1083 1.610 . S
N1082 S1081 1.613 . S
N1082 C1085 1.350 . S
N1083 S1081 1.610 . S
N1083 C1084 1.351 . S
C1084 C1078 1.428 . S
C1084 N1083 1.351 . S
C1084 C1085 1.434 . S
C1085 C1076 1.429 . S
C1085 N1082 1.350 . S
C1085 C1084 1.434 . S
C1086 C1087 1.369 . S
C1086 C1088 1.419 . S
C1086 H1090 0.930 . S
C1087 C1086 1.369 . S
C1087 C1096 1.429 . S
C1088 C1086 1.419 . S
C1088 C1089 1.363 . S
C1088 H1091 0.929 . S
C1089 C1088 1.363 . S
C1089 C1095 1.428 . S
H1090 C1086 0.930 . S
H1091 C1088 0.929 . S
S1092 N1093 1.613 1_565 S
S1092 N1094 1.610 1_565 S
N1093 S1092 1.613 1_545 S
N1093 C1096 1.350 . S
N1094 S1092 1.610 1_545 S
N1094 C1095 1.351 . S
C1095 C1089 1.428 . S
C1095 N1094 1.351 . S
C1095 C1096 1.434 . S
C1096 C1087 1.429 . S
C1096 N1093 1.350 . S
C1096 C1095 1.434 . S
C1097 C1098 1.369 . S
C1097 C1099 1.419 . S
C1097 H1101 0.930 . S
C1098 C1097 1.369 . S
C1098 C1107 1.429 . S
C1099 C1097 1.419 . S
C1099 C1100 1.363 . S
C1099 H1102 0.929 . S
C1100 C1099 1.363 . S
C1100 C1106 1.428 . S
H1101 C1097 0.930 . S
H1102 C1099 0.929 . S
S1103 N1104 1.613 . S
S1103 N1105 1.610 . S
N1104 S1103 1.613 . S
N1104 C1107 1.350 . S
N1105 S1103 1.610 . S
N1105 C1106 1.351 . S
C1106 C1100 1.428 . S
C1106 N1105 1.351 . S
C1106 C1107 1.434 . S
C1107 C1098 1.429 . S
C1107 N1104 1.350 . S
C1107 C1106 1.434 . S
C1108 C1109 1.369 . S
C1108 C1110 1.419 1_655 S
C1108 H1112 0.930 . S
C1109 C1108 1.369 . S
C1109 C1118 1.429 1_655 S
C1110 C1108 1.419 1_455 S
C1110 C1111 1.363 . S
C1110 H1113 0.929 . S
C1111 C1110 1.363 . S
C1111 C1117 1.428 . S
H1112 C1108 0.930 . S
H1113 C1110 0.929 . S
S1114 N1115 1.613 . S
S1114 N1116 1.610 . S
N1115 S1114 1.613 . S
N1115 C1118 1.350 . S
N1116 S1114 1.610 . S
N1116 C1117 1.351 . S
C1117 C1111 1.428 . S
C1117 N1116 1.351 . S
C1117 C1118 1.434 . S
C1118 C1109 1.429 1_455 S
C1118 N1115 1.350 . S
C1118 C1117 1.434 . S
C1119 C1120 1.369 . S
C1119 C1121 1.419 . S
C1119 H1123 0.930 . S
C1120 C1119 1.369 . S
C1120 C1129 1.429 . S
C1121 C1119 1.419 . S
C1121 C1122 1.363 . S
C1121 H1124 0.929 . S
C1122 C1121 1.363 . S
C1122 C1128 1.428 . S
H1123 C1119 0.930 . S
H1124 C1121 0.929 . S
S1125 N1126 1.613 . S
S1125 N1127 1.610 . S
N1126 S1125 1.613 . S
N1126 C1129 1.350 . S
N1127 S1125 1.610 . S
N1127 C1128 1.351 . S
C1128 C1122 1.428 . S
C1128 N1127 1.351 . S
C1128 C1129 1.434 . S
C1129 C1120 1.429 . S
C1129 N1126 1.350 . S
C1129 C1128 1.434 . S
C1130 C1131 1.369 . S
C1130 C1132 1.419 . S
C1130 H1134 0.930 . S
C1131 C1130 1.369 . S
C1131 C1140 1.429 . S
C1132 C1130 1.419 . S
C1132 C1133 1.363 . S
C1132 H1135 0.929 . S
C1133 C1132 1.363 . S
C1133 C1139 1.428 . S
H1134 C1130 0.930 . S
H1135 C1132 0.929 . S
S1136 N1137 1.613 . S
S1136 N1138 1.610 . S
N1137 S1136 1.613 . S
N1137 C1140 1.350 . S
N1138 S1136 1.610 . S
N1138 C1139 1.351 . S
C1139 C1133 1.428 . S
C1139 N1138 1.351 . S
C1139 C1140 1.434 . S
C1140 C1131 1.429 . S
C1140 N1137 1.350 . S
C1140 C1139 1.434 . S
C1141 C1142 1.369 . S
C1141 C1143 1.419 . S
C1141 H1145 0.930 . S
C1142 C1141 1.369 . S
C1142 C1151 1.429 . S
C1143 C1141 1.419 . S
C1143 C1144 1.363 . S
C1143 H1146 0.929 . S
C1144 C1143 1.363 . S
C1144 C1150 1.428 . S
H1145 C1141 0.930 . S
H1146 C1143 0.929 . S
S1147 N1148 1.613 . S
S1147 N1149 1.610 . S
N1148 S1147 1.613 . S
N1148 C1151 1.350 . S
N1149 S1147 1.610 . S
N1149 C1150 1.351 . S
C1150 C1144 1.428 . S
C1150 N1149 1.351 . S
C1150 C1151 1.434 . S
C1151 C1142 1.429 . S
C1151 N1148 1.350 . S
C1151 C1150 1.434 . S
C1152 C1153 1.354 1_546 S
C1152 C1154 1.413 1_556 S
C1152 H1156 0.952 . S
C1153 C1152 1.354 1_564 S
C1153 C1162 1.429 . S
C1154 C1152 1.413 1_554 S
C1154 C1155 1.363 . S
C1154 H1157 0.929 1_554 S
C1155 C1154 1.363 . S
C1155 C1161 1.428 1_545 S
H1156 C1152 0.952 . S
H1157 C1154 0.929 1_556 S
S1158 N1159 1.613 . S
S1158 N1160 1.610 . S
N1159 S1158 1.613 . S
N1159 C1162 1.350 . S
N1160 S1158 1.610 . S
N1160 C1161 1.351 . S
C1161 C1155 1.428 1_565 S
C1161 N1160 1.351 . S
C1161 C1162 1.434 . S
C1162 C1153 1.429 . S
C1162 N1159 1.350 . S
C1162 C1161 1.434 . S
C1163 C1164 1.369 . S
C1163 C1165 1.419 . S
C1163 H1167 0.930 . S
C1164 C1163 1.369 . S
C1164 C1173 1.429 1_554 S
C1165 C1163 1.419 . S
C1165 C1166 1.363 . S
C1165 H1168 0.929 . S
C1166 C1165 1.363 . S
C1166 C1172 1.428 1_554 S
H1167 C1163 0.930 . S
H1168 C1165 0.929 . S
S1169 N1170 1.613 . S
S1169 N1171 1.610 . S
N1170 S1169 1.613 . S
N1170 C1173 1.350 . S
N1171 S1169 1.610 . S
N1171 C1172 1.351 . S
C1172 C1166 1.428 1_556 S
C1172 N1171 1.351 . S
C1172 C1173 1.434 . S
C1173 C1164 1.429 1_556 S
C1173 N1170 1.350 . S
C1173 C1172 1.434 . S
C1174 C1175 1.369 . S
C1174 C1176 1.419 . S
C1174 H1178 0.930 . S
C1175 C1174 1.369 . S
C1175 C1184 1.429 . S
C1176 C1174 1.419 . S
C1176 C1177 1.363 . S
C1176 H1179 0.929 . S
C1177 C1176 1.363 . S
C1177 C1183 1.428 . S
H1178 C1174 0.930 . S
H1179 C1176 0.929 . S
S1180 N1181 1.613 . S
S1180 N1182 1.610 . S
N1181 S1180 1.613 . S
N1181 C1184 1.350 . S
N1182 S1180 1.610 . S
N1182 C1183 1.351 . S
C1183 C1177 1.428 . S
C1183 N1182 1.351 . S
C1183 C1184 1.434 . S
C1184 C1175 1.429 . S
C1184 N1181 1.350 . S
C1184 C1183 1.434 . S
C1185 C1186 1.369 . S
C1185 C1187 1.419 . S
C1185 H1189 0.930 . S
C1186 C1185 1.369 . S
C1186 C1195 1.429 . S
C1187 C1185 1.419 . S
C1187 C1188 1.363 . S
C1187 H1190 0.929 . S
C1188 C1187 1.363 . S
C1188 C1194 1.428 . S
H1189 C1185 0.930 . S
H1190 C1187 0.929 . S
S1191 N1192 1.613 . S
S1191 N1193 1.610 . S
N1192 S1191 1.613 . S
N1192 C1195 1.350 . S
N1193 S1191 1.610 . S
N1193 C1194 1.351 . S
C1194 C1188 1.428 . S
C1194 N1193 1.351 . S
C1194 C1195 1.434 . S
C1195 C1186 1.429 . S
C1195 N1192 1.350 . S
C1195 C1194 1.434 . S
C1196 C1197 1.369 . S
C1196 C1198 1.419 . S
C1196 H1200 0.930 . S
C1197 C1196 1.369 . S
C1197 C1206 1.429 . S
C1198 C1196 1.419 . S
C1198 C1199 1.363 . S
C1198 H1201 0.929 . S
C1199 C1198 1.363 . S
C1199 C1205 1.428 . S
H1200 C1196 0.930 . S
H1201 C1198 0.929 . S
S1202 N1203 1.613 . S
S1202 N1204 1.610 . S
N1203 S1202 1.613 . S
N1203 C1206 1.350 . S
N1204 S1202 1.610 . S
N1204 C1205 1.351 . S
C1205 C1199 1.428 . S
C1205 N1204 1.351 . S
C1205 C1206 1.434 . S
C1206 C1197 1.429 . S
C1206 N1203 1.350 . S
C1206 C1205 1.434 . S
C1207 C1208 1.369 . S
C1207 C1209 1.419 . S
C1207 H1211 0.930 . S
C1208 C1207 1.369 . S
C1208 C1217 1.429 . S
C1209 C1207 1.419 . S
C1209 C1210 1.363 . S
C1209 H1212 0.929 . S
C1210 C1209 1.363 . S
C1210 C1216 1.428 . S
H1211 C1207 0.930 . S
H1212 C1209 0.929 . S
S1213 N1214 1.613 . S
S1213 N1215 1.610 . S
N1214 S1213 1.613 . S
N1214 C1217 1.350 . S
N1215 S1213 1.610 . S
N1215 C1216 1.351 . S
C1216 C1210 1.428 . S
C1216 N1215 1.351 . S
C1216 C1217 1.434 . S
C1217 C1208 1.429 . S
C1217 N1214 1.350 . S
C1217 C1216 1.434 . S
C1218 C1219 1.369 . S
C1218 C1220 1.419 . S
C1218 H1222 0.930 . S
C1219 C1218 1.369 . S
C1219 C1228 1.429 . S
C1220 C1218 1.419 . S
C1220 C1221 1.363 . S
C1220 H1223 0.929 . S
C1221 C1220 1.363 . S
C1221 C1227 1.428 . S
H1222 C1218 0.930 . S
H1223 C1220 0.929 . S
S1224 N1225 1.613 . S
S1224 N1226 1.610 . S
N1225 S1224 1.613 . S
N1225 C1228 1.350 . S
N1226 S1224 1.610 . S
N1226 C1227 1.351 . S
C1227 C1221 1.428 . S
C1227 N1226 1.351 . S
C1227 C1228 1.434 . S
C1228 C1219 1.429 . S
C1228 N1225 1.350 . S
C1228 C1227 1.434 . S
C1229 C1230 1.369 . S
C1229 C1231 1.419 . S
C1229 H1233 0.930 . S
C1230 C1229 1.369 . S
C1230 C1239 1.429 . S
C1231 C1229 1.419 . S
C1231 C1232 1.363 . S
C1231 H1234 0.929 . S
C1232 C1231 1.363 . S
C1232 C1238 1.428 . S
H1233 C1229 0.930 . S
H1234 C1231 0.929 . S
S1235 N1236 1.613 . S
S1235 N1237 1.610 . S
N1236 S1235 1.613 . S
N1236 C1239 1.350 . S
N1237 S1235 1.610 . S
N1237 C1238 1.351 . S
C1238 C1232 1.428 . S
C1238 N1237 1.351 . S
C1238 C1239 1.434 . S
C1239 C1230 1.429 . S
C1239 N1236 1.350 . S
C1239 C1238 1.434 . S
C1240 C1241 1.369 . S
C1240 C1242 1.419 . S
C1240 H1244 0.930 . S
C1241 C1240 1.369 . S
C1241 C1250 1.429 . S
C1242 C1240 1.419 . S
C1242 C1243 1.363 . S
C1242 H1245 0.929 . S
C1243 C1242 1.363 . S
C1243 C1249 1.428 . S
H1244 C1240 0.930 . S
H1245 C1242 0.929 . S
S1246 N1247 1.613 . S
S1246 N1248 1.610 . S
N1247 S1246 1.613 . S
N1247 C1250 1.350 . S
N1248 S1246 1.610 . S
N1248 C1249 1.351 . S
C1249 C1243 1.428 . S
C1249 N1248 1.351 . S
C1249 C1250 1.434 . S
C1250 C1241 1.429 . S
C1250 N1247 1.350 . S
C1250 C1249 1.434 . S
C1251 C1252 1.369 . S
C1251 C1253 1.419 . S
C1251 H1255 0.930 . S
C1252 C1251 1.369 . S
C1252 C1261 1.429 . S
C1253 C1251 1.419 . S
C1253 C1254 1.363 . S
C1253 H1256 0.929 . S
C1254 C1253 1.363 . S
C1254 C1260 1.428 . S
H1255 C1251 0.930 . S
H1256 C1253 0.929 . S
S1257 N1258 1.613 . S
S1257 N1259 1.610 . S
N1258 S1257 1.613 . S
N1258 C1261 1.350 . S
N1259 S1257 1.610 . S
N1259 C1260 1.351 . S
C1260 C1254 1.428 . S
C1260 N1259 1.351 . S
C1260 C1261 1.434 . S
C1261 C1252 1.429 . S
C1261 N1258 1.350 . S
C1261 C1260 1.434 . S
C1262 C1263 1.369 . S
C1262 C1264 1.419 . S
C1262 H1266 0.930 . S
C1263 C1262 1.369 . S
C1263 C1272 1.429 . S
C1264 C1262 1.419 . S
C1264 C1265 1.363 . S
C1264 H1267 0.929 . S
C1265 C1264 1.363 . S
C1265 C1271 1.428 . S
H1266 C1262 0.930 . S
H1267 C1264 0.929 . S
S1268 N1269 1.613 . S
S1268 N1270 1.610 . S
N1269 S1268 1.613 . S
N1269 C1272 1.350 . S
N1270 S1268 1.610 . S
N1270 C1271 1.351 . S
C1271 C1265 1.428 . S
C1271 N1270 1.351 . S
C1271 C1272 1.434 . S
C1272 C1263 1.429 . S
C1272 N1269 1.350 . S
C1272 C1271 1.434 . S
C1273 C1274 1.369 . S
C1273 C1275 1.419 . S
C1273 H1277 0.930 . S
C1274 C1273 1.369 . S
C1274 C1283 1.429 . S
C1275 C1273 1.419 . S
C1275 C1276 1.363 . S
C1275 H1278 0.929 . S
C1276 C1275 1.363 . S
C1276 C1282 1.428 . S
H1277 C1273 0.930 . S
H1278 C1275 0.929 . S
S1279 N1280 1.613 . S
S1279 N1281 1.610 . S
N1280 S1279 1.613 . S
N1280 C1283 1.350 . S
N1281 S1279 1.610 . S
N1281 C1282 1.351 . S
C1282 C1276 1.428 . S
C1282 N1281 1.351 . S
C1282 C1283 1.434 . S
C1283 C1274 1.429 . S
C1283 N1280 1.350 . S
C1283 C1282 1.434 . S
C1284 C1285 1.369 . S
C1284 C1286 1.419 . S
C1284 H1288 0.930 . S
C1285 C1284 1.369 . S
C1285 C1294 1.429 . S
C1286 C1284 1.419 . S
C1286 C1287 1.363 . S
C1286 H1289 0.929 . S
C1287 C1286 1.363 . S
C1287 C1293 1.428 . S
H1288 C1284 0.930 . S
H1289 C1286 0.929 . S
S1290 N1291 1.613 . S
S1290 N1292 1.610 . S
N1291 S1290 1.613 . S
N1291 C1294 1.350 . S
N1292 S1290 1.610 . S
N1292 C1293 1.351 . S
C1293 C1287 1.428 . S
C1293 N1292 1.351 . S
C1293 C1294 1.434 . S
C1294 C1285 1.429 . S
C1294 N1291 1.350 . S
C1294 C1293 1.434 . S
C1295 C1296 1.369 . S
C1295 C1297 1.419 . S
C1295 H1299 0.930 . S
C1296 C1295 1.369 . S
C1296 C1305 1.429 . S
C1297 C1295 1.419 . S
C1297 C1298 1.363 . S
C1297 H1300 0.929 . S
C1298 C1297 1.363 . S
C1298 C1304 1.428 . S
H1299 C1295 0.930 . S
H1300 C1297 0.929 . S
S1301 N1302 1.613 . S
S1301 N1303 1.610 . S
N1302 S1301 1.613 . S
N1302 C1305 1.350 . S
N1303 S1301 1.610 . S
N1303 C1304 1.351 . S
C1304 C1298 1.428 . S
C1304 N1303 1.351 . S
C1304 C1305 1.434 . S
C1305 C1296 1.429 . S
C1305 N1302 1.350 . S
C1305 C1304 1.434 . S
C1306 C1307 1.369 . S
C1306 C1308 1.419 . S
C1306 H1310 0.930 . S
C1307 C1306 1.369 . S
C1307 C1316 1.429 . S
C1308 C1306 1.419 . S
C1308 C1309 1.363 . S
C1308 H1311 0.929 . S
C1309 C1308 1.363 . S
C1309 C1315 1.428 . S
H1310 C1306 0.930 . S
H1311 C1308 0.929 . S
S1312 N1313 1.613 1_554 S
S1312 N1314 1.610 . S
N1313 S1312 1.613 1_556 S
N1313 C1316 1.350 . S
N1314 S1312 1.610 . S
N1314 C1315 1.351 1_554 S
C1315 C1309 1.428 . S
C1315 N1314 1.351 1_556 S
C1315 C1316 1.434 . S
C1316 C1307 1.429 . S
C1316 N1313 1.350 . S
C1316 C1315 1.434 . S
C1317 C1318 1.369 . S
C1317 C1319 1.419 . S
C1317 H1321 0.930 . S
C1318 C1317 1.369 . S
C1318 C1327 1.429 . S
C1319 C1317 1.419 . S
C1319 C1320 1.363 . S
C1319 H1322 0.929 . S
C1320 C1319 1.363 . S
C1320 C1326 1.428 . S
H1321 C1317 0.930 . S
H1322 C1319 0.929 . S
S1323 N1324 1.613 . S
S1323 N1325 1.610 . S
N1324 S1323 1.613 . S
N1324 C1327 1.350 . S
N1325 S1323 1.610 . S
N1325 C1326 1.351 . S
C1326 C1320 1.428 . S
C1326 N1325 1.351 . S
C1326 C1327 1.434 . S
C1327 C1318 1.429 . S
C1327 N1324 1.350 . S
C1327 C1326 1.434 . S
C1328 C1329 1.369 . S
C1328 C1330 1.419 . S
C1328 H1332 0.930 1_545 S
C1329 C1328 1.369 . S
C1329 C1338 1.429 . S
C1330 C1328 1.419 . S
C1330 C1331 1.363 . S
C1330 H1333 0.929 1_545 S
C1331 C1330 1.363 . S
C1331 C1337 1.428 . S
H1332 C1328 0.930 1_565 S
H1333 C1330 0.929 1_565 S
S1334 N1335 1.613 . S
S1334 N1336 1.610 . S
N1335 S1334 1.613 . S
N1335 C1338 1.350 . S
N1336 S1334 1.610 . S
N1336 C1337 1.351 . S
C1337 C1331 1.428 . S
C1337 N1336 1.351 . S
C1337 C1338 1.434 . S
C1338 C1329 1.429 . S
C1338 N1335 1.350 . S
C1338 C1337 1.434 . S
C1339 C1340 1.369 . S
C1339 C1341 1.419 . S
C1339 H1343 0.930 . S
C1340 C1339 1.369 . S
C1340 C1349 1.429 . S
C1341 C1339 1.419 . S
C1341 C1342 1.363 . S
C1341 H1344 0.929 . S
C1342 C1341 1.363 . S
C1342 C1348 1.428 . S
H1343 C1339 0.930 . S
H1344 C1341 0.929 . S
S1345 N1346 1.613 . S
S1345 N1347 1.610 . S
N1346 S1345 1.613 . S
N1346 C1349 1.350 . S
N1347 S1345 1.610 . S
N1347 C1348 1.351 . S
C1348 C1342 1.428 . S
C1348 N1347 1.351 . S
C1348 C1349 1.434 . S
C1349 C1340 1.429 . S
C1349 N1346 1.350 . S
C1349 C1348 1.434 . S
C1350 C1351 1.369 1_565 S
C1350 C1352 1.419 1_565 S
C1350 H1354 0.930 . S
C1351 C1350 1.369 1_545 S
C1351 C1360 1.429 . S
C1352 C1350 1.419 1_545 S
C1352 C1353 1.363 . S
C1352 H1355 0.929 1_545 S
C1353 C1352 1.363 . S
C1353 C1359 1.428 . S
H1354 C1350 0.930 . S
H1355 C1352 0.929 1_565 S
S1356 N1357 1.613 . S
S1356 N1358 1.610 . S
N1357 S1356 1.613 . S
N1357 C1360 1.350 . S
N1358 S1356 1.610 . S
N1358 C1359 1.351 . S
C1359 C1353 1.428 . S
C1359 N1358 1.351 . S
C1359 C1360 1.434 . S
C1360 C1351 1.429 . S
C1360 N1357 1.350 . S
C1360 C1359 1.434 . S
C1361 C1362 1.369 . S
C1361 C1363 1.419 . S
C1361 H1365 0.930 . S
C1362 C1361 1.369 . S
C1362 C1371 1.429 . S
C1363 C1361 1.419 . S
C1363 C1364 1.363 . S
C1363 H1366 0.929 . S
C1364 C1363 1.363 . S
C1364 C1370 1.428 . S
H1365 C1361 0.930 . S
H1366 C1363 0.929 . S
S1367 N1368 1.613 . S
S1367 N1369 1.610 . S
N1368 S1367 1.613 . S
N1368 C1371 1.350 . S
N1369 S1367 1.610 . S
N1369 C1370 1.351 . S
C1370 C1364 1.428 . S
C1370 N1369 1.351 . S
C1370 C1371 1.434 . S
C1371 C1362 1.429 . S
C1371 N1368 1.350 . S
C1371 C1370 1.434 . S
C1372 C1373 1.369 . S
C1372 C1374 1.419 . S
C1372 H1376 0.930 . S
C1373 C1372 1.369 . S
C1373 C1382 1.429 1_545 S
C1374 C1372 1.419 . S
C1374 C1375 1.363 . S
C1374 H1377 0.929 . S
C1375 C1374 1.363 . S
C1375 C1381 1.428 . S
H1376 C1372 0.930 . S
H1377 C1374 0.929 . S
S1378 N1379 1.613 . S
S1378 N1380 1.610 . S
N1379 S1378 1.613 . S
N1379 C1382 1.350 . S
N1380 S1378 1.610 . S
N1380 C1381 1.351 1_565 S
C1381 C1375 1.428 . S
C1381 N1380 1.351 1_545 S
C1381 C1382 1.434 1_545 S
C1382 C1373 1.429 1_565 S
C1382 N1379 1.350 . S
C1382 C1381 1.434 1_565 S
C1383 C1384 1.369 . S
C1383 C1385 1.419 . S
C1383 H1387 0.930 . S
C1384 C1383 1.369 . S
C1384 C1393 1.429 . S
C1385 C1383 1.419 . S
C1385 C1386 1.363 . S
C1385 H1388 0.929 . S
C1386 C1385 1.363 . S
C1386 C1392 1.428 . S
H1387 C1383 0.930 . S
H1388 C1385 0.929 . S
S1389 N1390 1.613 . S
S1389 N1391 1.610 . S
N1390 S1389 1.613 . S
N1390 C1393 1.350 . S
N1391 S1389 1.610 . S
N1391 C1392 1.351 . S
C1392 C1386 1.428 . S
C1392 N1391 1.351 . S
C1392 C1393 1.434 . S
C1393 C1384 1.429 . S
C1393 N1390 1.350 . S
C1393 C1392 1.434 . S
C1394 C1395 1.369 . S
C1394 C1396 1.419 . S
C1394 H1398 0.930 . S
C1395 C1394 1.369 . S
C1395 C1404 1.429 1_565 S
C1396 C1394 1.419 . S
C1396 C1397 1.363 . S
C1396 H1399 0.929 . S
C1397 C1396 1.363 . S
C1397 C1403 1.428 1_565 S
H1398 C1394 0.930 . S
H1399 C1396 0.929 . S
S1400 N1401 1.613 . S
S1400 N1402 1.610 . S
N1401 S1400 1.613 . S
N1401 C1404 1.350 . S
N1402 S1400 1.610 . S
N1402 C1403 1.351 . S
C1403 C1397 1.428 1_545 S
C1403 N1402 1.351 . S
C1403 C1404 1.434 . S
C1404 C1395 1.429 1_545 S
C1404 N1401 1.350 . S
C1404 C1403 1.434 . S
C1405 C1406 1.369 . S
C1405 C1407 1.419 . S
C1405 H1409 0.930 . S
C1406 C1405 1.369 . S
C1406 C1415 1.429 . S
C1407 C1405 1.419 . S
C1407 C1408 1.363 . S
C1407 H1410 0.929 . S
C1408 C1407 1.363 . S
C1408 C1414 1.428 . S
H1409 C1405 0.930 . S
H1410 C1407 0.929 . S
S1411 N1412 1.613 . S
S1411 N1413 1.610 . S
N1412 S1411 1.613 . S
N1412 C1415 1.350 . S
N1413 S1411 1.610 . S
N1413 C1414 1.351 . S
C1414 C1408 1.428 . S
C1414 N1413 1.351 . S
C1414 C1415 1.434 . S
C1415 C1406 1.429 . S
C1415 N1412 1.350 . S
C1415 C1414 1.434 . S
C1416 C1417 1.341 1_556 S
C1416 C1418 1.427 . S
C1416 H1420 0.951 . S
C1417 C1416 1.341 1_554 S
C1417 C1426 1.429 . S
C1418 C1416 1.427 . S
C1418 C1419 1.363 1_556 S
C1418 H1421 0.929 . S
C1419 C1418 1.363 1_554 S
C1419 C1425 1.428 . S
H1420 C1416 0.951 . S
H1421 C1418 0.929 . S
S1422 N1423 1.613 . S
S1422 N1424 1.610 . S
N1423 S1422 1.613 . S
N1423 C1426 1.350 . S
N1424 S1422 1.610 . S
N1424 C1425 1.351 . S
C1425 C1419 1.428 . S
C1425 N1424 1.351 . S
C1425 C1426 1.434 . S
C1426 C1417 1.429 . S
C1426 N1423 1.350 . S
C1426 C1425 1.434 . S
C1427 C1428 1.369 . S
C1427 C1429 1.419 . S
C1427 H1431 0.930 . S
C1428 C1427 1.369 . S
C1428 C1437 1.429 . S
C1429 C1427 1.419 . S
C1429 C1430 1.363 . S
C1429 H1432 0.929 . S
C1430 C1429 1.363 . S
C1430 C1436 1.428 . S
H1431 C1427 0.930 . S
H1432 C1429 0.929 . S
S1433 N1434 1.613 . S
S1433 N1435 1.610 . S
N1434 S1433 1.613 . S
N1434 C1437 1.350 . S
N1435 S1433 1.610 . S
N1435 C1436 1.351 . S
C1436 C1430 1.428 . S
C1436 N1435 1.351 . S
C1436 C1437 1.434 . S
C1437 C1428 1.429 . S
C1437 N1434 1.350 . S
C1437 C1436 1.434 . S
C1438 C1439 1.369 . S
C1438 C1440 1.419 . S
C1438 H1442 0.930 . S
C1439 C1438 1.369 . S
C1439 C1448 1.429 . S
C1440 C1438 1.419 . S
C1440 C1441 1.363 . S
C1440 H1443 0.929 . S
C1441 C1440 1.363 . S
C1441 C1447 1.428 . S
H1442 C1438 0.930 . S
H1443 C1440 0.929 . S
S1444 N1445 1.613 . S
S1444 N1446 1.610 . S
N1445 S1444 1.613 . S
N1445 C1448 1.350 . S
N1446 S1444 1.610 . S
N1446 C1447 1.351 . S
C1447 C1441 1.428 . S
C1447 N1446 1.351 . S
C1447 C1448 1.434 . S
C1448 C1439 1.429 . S
C1448 N1445 1.350 . S
C1448 C1447 1.434 . S
C1449 C1450 1.369 . S
C1449 C1451 1.419 . S
C1449 H1453 0.930 . S
C1450 C1449 1.369 . S
C1450 C1459 1.429 . S
C1451 C1449 1.419 . S
C1451 C1452 1.363 . S
C1451 H1454 0.929 . S
C1452 C1451 1.363 . S
C1452 C1458 1.428 . S
H1453 C1449 0.930 . S
H1454 C1451 0.929 . S
S1455 N1456 1.613 . S
S1455 N1457 1.610 . S
N1456 S1455 1.613 . S
N1456 C1459 1.350 . S
N1457 S1455 1.610 . S
N1457 C1458 1.351 . S
C1458 C1452 1.428 . S
C1458 N1457 1.351 . S
C1458 C1459 1.434 . S
C1459 C1450 1.429 . S
C1459 N1456 1.350 . S
C1459 C1458 1.434 . S
C1460 C1461 1.369 1_565 S
C1460 C1462 1.419 . S
C1460 H1464 0.930 . S
C1461 C1460 1.369 1_545 S
C1461 C1470 1.429 . S
C1462 C1460 1.419 . S
C1462 C1463 1.363 . S
C1462 H1465 0.929 . S
C1463 C1462 1.363 . S
C1463 C1469 1.428 1_565 S
H1464 C1460 0.930 . S
H1465 C1462 0.929 . S
S1466 N1467 1.613 . S
S1466 N1468 1.610 . S
N1467 S1466 1.613 . S
N1467 C1470 1.350 . S
N1468 S1466 1.610 . S
N1468 C1469 1.351 . S
C1469 C1463 1.428 1_545 S
C1469 N1468 1.351 . S
C1469 C1470 1.434 . S
C1470 C1461 1.429 . S
C1470 N1467 1.350 . S
C1470 C1469 1.434 . S
C1471 C1472 1.369 . S
C1471 C1473 1.419 . S
C1471 H1475 0.930 . S
C1472 C1471 1.369 . S
C1472 C1481 1.429 . S
C1473 C1471 1.419 . S
C1473 C1474 1.363 . S
C1473 H1476 0.929 . S
C1474 C1473 1.363 . S
C1474 C1480 1.428 . S
H1475 C1471 0.930 . S
H1476 C1473 0.929 . S
S1477 N1478 1.613 . S
S1477 N1479 1.610 . S
N1478 S1477 1.613 . S
N1478 C1481 1.350 . S
N1479 S1477 1.610 . S
N1479 C1480 1.351 . S
C1480 C1474 1.428 . S
C1480 N1479 1.351 . S
C1480 C1481 1.434 . S
C1481 C1472 1.429 . S
C1481 N1478 1.350 . S
C1481 C1480 1.434 . S
C1482 C1483 1.369 . S
C1482 C1484 1.419 . S
C1482 H1486 0.930 . S
C1483 C1482 1.369 . S
C1483 C1492 1.429 . S
C1484 C1482 1.419 . S
C1484 C1485 1.363 . S
C1484 H1487 0.929 . S
C1485 C1484 1.363 . S
C1485 C1491 1.428 . S
H1486 C1482 0.930 . S
H1487 C1484 0.929 . S
S1488 N1489 1.613 . S
S1488 N1490 1.610 . S
N1489 S1488 1.613 . S
N1489 C1492 1.350 . S
N1490 S1488 1.610 . S
N1490 C1491 1.351 . S
C1491 C1485 1.428 . S
C1491 N1490 1.351 . S
C1491 C1492 1.434 . S
C1492 C1483 1.429 . S
C1492 N1489 1.350 . S
C1492 C1491 1.434 . S
C1493 C1494 1.369 . S
C1493 C1495 1.419 . S
C1493 H1497 0.930 . S
C1494 C1493 1.369 . S
C1494 C1503 1.429 . S
C1495 C1493 1.419 . S
C1495 C1496 1.363 . S
C1495 H1498 0.929 . S
C1496 C1495 1.363 . S
C1496 C1502 1.428 . S
H1497 C1493 0.930 . S
H1498 C1495 0.929 . S
S1499 N1500 1.613 . S
S1499 N1501 1.610 . S
N1500 S1499 1.613 . S
N1500 C1503 1.350 . S
N1501 S1499 1.610 . S
N1501 C1502 1.351 . S
C1502 C1496 1.428 . S
C1502 N1501 1.351 . S
C1502 C1503 1.434 . S
C1503 C1494 1.429 . S
C1503 N1500 1.350 . S
C1503 C1502 1.434 . S
C1504 C1505 1.369 . S
C1504 C1506 1.419 . S
C1504 H1508 0.930 . S
C1505 C1504 1.369 . S
C1505 C1514 1.429 . S
C1506 C1504 1.419 . S
C1506 C1507 1.363 . S
C1506 H1509 0.929 . S
C1507 C1506 1.363 . S
C1507 C1513 1.428 . S
H1508 C1504 0.930 . S
H1509 C1506 0.929 . S
S1510 N1511 1.613 . S
S1510 N1512 1.610 . S
N1511 S1510 1.613 . S
N1511 C1514 1.350 . S
N1512 S1510 1.610 . S
N1512 C1513 1.351 . S
C1513 C1507 1.428 . S
C1513 N1512 1.351 . S
C1513 C1514 1.434 . S
C1514 C1505 1.429 . S
C1514 N1511 1.350 . S
C1514 C1513 1.434 . S
C1515 C1516 1.369 . S
C1515 C1517 1.419 . S
C1515 H1519 0.930 . S
C1516 C1515 1.369 . S
C1516 C1525 1.429 . S
C1517 C1515 1.419 . S
C1517 C1518 1.363 . S
C1517 H1520 0.929 . S
C1518 C1517 1.363 . S
C1518 C1524 1.428 . S
H1519 C1515 0.930 . S
H1520 C1517 0.929 . S
S1521 N1522 1.613 . S
S1521 N1523 1.610 . S
N1522 S1521 1.613 . S
N1522 C1525 1.350 . S
N1523 S1521 1.610 . S
N1523 C1524 1.351 . S
C1524 C1518 1.428 . S
C1524 N1523 1.351 . S
C1524 C1525 1.434 . S
C1525 C1516 1.429 . S
C1525 N1522 1.350 . S
C1525 C1524 1.434 . S
C1526 C1527 1.369 . S
C1526 C1528 1.419 1_556 S
C1526 H1530 0.930 . S
C1527 C1526 1.369 . S
C1527 C1536 1.429 . S
C1528 C1526 1.419 1_554 S
C1528 C1529 1.363 . S
C1528 H1531 0.929 . S
C1529 C1528 1.363 . S
C1529 C1535 1.428 1_554 S
H1530 C1526 0.930 . S
H1531 C1528 0.929 . S
S1532 N1533 1.613 . S
S1532 N1534 1.610 . S
N1533 S1532 1.613 . S
N1533 C1536 1.350 . S
N1534 S1532 1.610 . S
N1534 C1535 1.351 . S
C1535 C1529 1.428 1_556 S
C1535 N1534 1.351 . S
C1535 C1536 1.434 . S
C1536 C1527 1.429 . S
C1536 N1533 1.350 . S
C1536 C1535 1.434 . S
C1537 C1538 1.369 . S
C1537 C1539 1.428 . S
C1537 H1541 0.930 . S
C1538 C1537 1.369 . S
C1538 C1547 1.429 . S
C1539 C1537 1.428 . S
C1539 C1540 1.357 1_455 S
C1539 H1542 0.926 1_455 S
C1540 C1539 1.357 1_655 S
C1540 C1546 1.428 . S
H1541 C1537 0.930 . S
H1542 C1539 0.926 1_655 S
S1543 N1544 1.613 1_655 S
S1543 N1545 1.610 . S
N1544 S1543 1.613 1_455 S
N1544 C1547 1.350 . S
N1545 S1543 1.610 . S
N1545 C1546 1.351 . S
C1546 C1540 1.428 . S
C1546 N1545 1.351 . S
C1546 C1547 1.434 1_655 S
C1547 C1538 1.429 . S
C1547 N1544 1.350 . S
C1547 C1546 1.434 1_455 S
C1548 C1549 1.369 . S
C1548 C1550 1.419 . S
C1548 H1552 0.930 . S
C1549 C1548 1.369 . S
C1549 C1558 1.429 . S
C1550 C1548 1.419 . S
C1550 C1551 1.363 . S
C1550 H1553 0.929 . S
C1551 C1550 1.363 . S
C1551 C1557 1.428 . S
H1552 C1548 0.930 . S
H1553 C1550 0.929 . S
S1554 N1555 1.613 . S
S1554 N1556 1.610 . S
N1555 S1554 1.613 . S
N1555 C1558 1.350 . S
N1556 S1554 1.610 . S
N1556 C1557 1.351 . S
C1557 C1551 1.428 . S
C1557 N1556 1.351 . S
C1557 C1558 1.434 . S
C1558 C1549 1.429 . S
C1558 N1555 1.350 . S
C1558 C1557 1.434 . S
C1559 C1560 1.369 . S
C1559 C1561 1.419 . S
C1559 H1563 0.930 . S
C1560 C1559 1.369 . S
C1560 C1569 1.429 . S
C1561 C1559 1.419 . S
C1561 C1562 1.363 . S
C1561 H1564 0.929 . S
C1562 C1561 1.363 . S
C1562 C1568 1.428 . S
H1563 C1559 0.930 . S
H1564 C1561 0.929 . S
S1565 N1566 1.593 1_655 S
S1565 N1567 1.620 . S
N1566 S1565 1.593 1_455 S
N1566 C1569 1.350 . S
N1567 S1565 1.620 . S
N1567 C1568 1.351 1_655 S
C1568 C1562 1.428 . S
C1568 N1567 1.351 1_455 S
C1568 C1569 1.434 . S
C1569 C1560 1.429 . S
C1569 N1566 1.350 . S
C1569 C1568 1.434 . S
C1570 C1571 1.369 . S
C1570 C1572 1.419 . S
C1570 H1574 0.930 . S
C1571 C1570 1.369 . S
C1571 C1580 1.429 . S
C1572 C1570 1.419 . S
C1572 C1573 1.363 . S
C1572 H1575 0.929 . S
C1573 C1572 1.363 . S
C1573 C1579 1.428 . S
H1574 C1570 0.930 . S
H1575 C1572 0.929 . S
S1576 N1577 1.613 . S
S1576 N1578 1.610 1_655 S
N1577 S1576 1.613 . S
N1577 C1580 1.350 1_655 S
N1578 S1576 1.610 1_455 S
N1578 C1579 1.351 . S
C1579 C1573 1.428 . S
C1579 N1578 1.351 . S
C1579 C1580 1.434 . S
C1580 C1571 1.429 . S
C1580 N1577 1.350 1_455 S
C1580 C1579 1.434 . S
C1581 C1582 1.369 . S
C1581 C1583 1.419 . S
C1581 H1585 0.930 . S
C1582 C1581 1.369 . S
C1582 C1591 1.429 . S
C1583 C1581 1.419 . S
C1583 C1584 1.363 . S
C1583 H1586 0.929 . S
C1584 C1583 1.363 . S
C1584 C1590 1.428 . S
H1585 C1581 0.930 . S
H1586 C1583 0.929 . S
S1587 N1588 1.613 . S
S1587 N1589 1.610 . S
N1588 S1587 1.613 . S
N1588 C1591 1.350 . S
N1589 S1587 1.610 . S
N1589 C1590 1.351 . S
C1590 C1584 1.428 . S
C1590 N1589 1.351 . S
C1590 C1591 1.434 . S
C1591 C1582 1.429 . S
C1591 N1588 1.350 . S
C1591 C1590 1.434 . S
C1592 C1593 1.369 . S
C1592 C1594 1.419 . S
C1592 H1596 0.930 . S
C1593 C1592 1.369 . S
C1593 C1602 1.429 . S
C1594 C1592 1.419 . S
C1594 C1595 1.363 . S
C1594 H1597 0.929 . S
C1595 C1594 1.363 . S
C1595 C1601 1.428 . S
H1596 C1592 0.930 . S
H1597 C1594 0.929 . S
S1598 N1599 1.613 . S
S1598 N1600 1.610 . S
N1599 S1598 1.613 . S
N1599 C1602 1.350 . S
N1600 S1598 1.610 . S
N1600 C1601 1.351 . S
C1601 C1595 1.428 . S
C1601 N1600 1.351 . S
C1601 C1602 1.434 . S
C1602 C1593 1.429 . S
C1602 N1599 1.350 . S
C1602 C1601 1.434 . S
C1603 C1604 1.369 . S
C1603 C1605 1.419 . S
C1603 H1607 0.930 . S
C1604 C1603 1.369 . S
C1604 C1613 1.429 . S
C1605 C1603 1.419 . S
C1605 C1606 1.363 . S
C1605 H1608 0.929 . S
C1606 C1605 1.363 . S
C1606 C1612 1.428 . S
H1607 C1603 0.930 . S
H1608 C1605 0.929 . S
S1609 N1610 1.613 . S
S1609 N1611 1.610 . S
N1610 S1609 1.613 . S
N1610 C1613 1.350 . S
N1611 S1609 1.610 . S
N1611 C1612 1.351 . S
C1612 C1606 1.428 . S
C1612 N1611 1.351 . S
C1612 C1613 1.434 . S
C1613 C1604 1.429 . S
C1613 N1610 1.350 . S
C1613 C1612 1.434 . S
C1614 C1615 1.369 . S
C1614 C1616 1.419 . S
C1614 H1618 0.930 . S
C1615 C1614 1.369 . S
C1615 C1624 1.429 . S
C1616 C1614 1.419 . S
C1616 C1617 1.363 . S
C1616 H1619 0.929 . S
C1617 C1616 1.363 . S
C1617 C1623 1.428 . S
H1618 C1614 0.930 . S
H1619 C1616 0.929 . S
S1620 N1621 1.613 . S
S1620 N1622 1.610 . S
N1621 S1620 1.613 . S
N1621 C1624 1.350 . S
N1622 S1620 1.610 . S
N1622 C1623 1.351 . S
C1623 C1617 1.428 . S
C1623 N1622 1.351 . S
C1623 C1624 1.434 . S
C1624 C1615 1.429 . S
C1624 N1621 1.350 . S
C1624 C1623 1.434 . S
C1625 C1626 1.369 . S
C1625 C1627 1.419 . S
C1625 H1629 0.930 . S
C1626 C1625 1.369 . S
C1626 C1635 1.429 . S
C1627 C1625 1.419 . S
C1627 C1628 1.363 . S
C1627 H1630 0.929 . S
C1628 C1627 1.363 . S
C1628 C1634 1.428 . S
H1629 C1625 0.930 . S
H1630 C1627 0.929 . S
S1631 N1632 1.613 . S
S1631 N1633 1.610 . S
N1632 S1631 1.613 . S
N1632 C1635 1.350 . S
N1633 S1631 1.610 . S
N1633 C1634 1.351 . S
C1634 C1628 1.428 . S
C1634 N1633 1.351 . S
C1634 C1635 1.434 . S
C1635 C1626 1.429 . S
C1635 N1632 1.350 . S
C1635 C1634 1.434 . S
C1636 C1637 1.369 . S
C1636 C1638 1.419 . S
C1636 H1640 0.930 . S
C1637 C1636 1.369 . S
C1637 C1646 1.429 . S
C1638 C1636 1.419 . S
C1638 C1639 1.363 . S
C1638 H1641 0.929 . S
C1639 C1638 1.363 . S
C1639 C1645 1.428 . S
H1640 C1636 0.930 . S
H1641 C1638 0.929 . S
S1642 N1643 1.613 . S
S1642 N1644 1.610 . S
N1643 S1642 1.613 . S
N1643 C1646 1.350 . S
N1644 S1642 1.610 . S
N1644 C1645 1.351 . S
C1645 C1639 1.428 . S
C1645 N1644 1.351 . S
C1645 C1646 1.434 . S
C1646 C1637 1.429 . S
C1646 N1643 1.350 . S
C1646 C1645 1.434 . S
C1647 C1648 1.369 . S
C1647 C1649 1.419 . S
C1647 H1651 0.930 . S
C1648 C1647 1.369 . S
C1648 C1657 1.429 . S
C1649 C1647 1.419 . S
C1649 C1650 1.363 . S
C1649 H1652 0.929 . S
C1650 C1649 1.363 . S
C1650 C1656 1.428 . S
H1651 C1647 0.930 . S
H1652 C1649 0.929 . S
S1653 N1654 1.613 . S
S1653 N1655 1.610 . S
N1654 S1653 1.613 . S
N1654 C1657 1.350 . S
N1655 S1653 1.610 . S
N1655 C1656 1.351 . S
C1656 C1650 1.428 . S
C1656 N1655 1.351 . S
C1656 C1657 1.434 . S
C1657 C1648 1.429 . S
C1657 N1654 1.350 . S
C1657 C1656 1.434 . S
C1658 C1659 1.369 . S
C1658 C1660 1.419 . S
C1658 H1662 0.930 . S
C1659 C1658 1.369 . S
C1659 C1668 1.429 . S
C1660 C1658 1.419 . S
C1660 C1661 1.363 . S
C1660 H1663 0.929 . S
C1661 C1660 1.363 . S
C1661 C1667 1.428 . S
H1662 C1658 0.930 . S
H1663 C1660 0.929 . S
S1664 N1665 1.613 . S
S1664 N1666 1.610 . S
N1665 S1664 1.613 . S
N1665 C1668 1.350 . S
N1666 S1664 1.610 . S
N1666 C1667 1.351 . S
C1667 C1661 1.428 . S
C1667 N1666 1.351 . S
C1667 C1668 1.434 . S
C1668 C1659 1.429 . S
C1668 N1665 1.350 . S
C1668 C1667 1.434 . S
C1669 C1670 1.369 . S
C1669 C1671 1.419 . S
C1669 H1673 0.930 . S
C1670 C1669 1.369 . S
C1670 C1679 1.429 . S
C1671 C1669 1.419 . S
C1671 C1672 1.363 . S
C1671 H1674 0.929 . S
C1672 C1671 1.363 . S
C1672 C1678 1.428 . S
H1673 C1669 0.930 . S
H1674 C1671 0.929 . S
S1675 N1676 1.613 . S
S1675 N1677 1.610 . S
N1676 S1675 1.613 . S
N1676 C1679 1.350 . S
N1677 S1675 1.610 . S
N1677 C1678 1.351 . S
C1678 C1672 1.428 . S
C1678 N1677 1.351 . S
C1678 C1679 1.434 . S
C1679 C1670 1.429 . S
C1679 N1676 1.350 . S
C1679 C1678 1.434 . S
C1680 C1681 1.369 . S
C1680 C1682 1.419 . S
C1680 H1684 0.930 . S
C1681 C1680 1.369 . S
C1681 C1690 1.429 . S
C1682 C1680 1.419 . S
C1682 C1683 1.363 . S
C1682 H1685 0.929 . S
C1683 C1682 1.363 . S
C1683 C1689 1.428 . S
H1684 C1680 0.930 . S
H1685 C1682 0.929 . S
S1686 N1687 1.613 . S
S1686 N1688 1.610 . S
N1687 S1686 1.613 . S
N1687 C1690 1.350 . S
N1688 S1686 1.610 . S
N1688 C1689 1.351 . S
C1689 C1683 1.428 . S
C1689 N1688 1.351 . S
C1689 C1690 1.434 . S
C1690 C1681 1.429 . S
C1690 N1687 1.350 . S
C1690 C1689 1.434 . S
C1691 C1692 1.369 . S
C1691 C1693 1.419 . S
C1691 H1695 0.930 . S
C1692 C1691 1.369 . S
C1692 C1701 1.429 . S
C1693 C1691 1.419 . S
C1693 C1694 1.363 . S
C1693 H1696 0.929 . S
C1694 C1693 1.363 . S
C1694 C1700 1.428 . S
H1695 C1691 0.930 . S
H1696 C1693 0.929 . S
S1697 N1698 1.613 . S
S1697 N1699 1.610 . S
N1698 S1697 1.613 . S
N1698 C1701 1.350 . S
N1699 S1697 1.610 . S
N1699 C1700 1.351 . S
C1700 C1694 1.428 . S
C1700 N1699 1.351 . S
C1700 C1701 1.434 . S
C1701 C1692 1.429 . S
C1701 N1698 1.350 . S
C1701 C1700 1.434 . S
C1702 C1703 1.369 . S
C1702 C1704 1.419 . S
C1702 H1706 0.930 . S
C1703 C1702 1.369 . S
C1703 C1712 1.429 . S
C1704 C1702 1.419 . S
C1704 C1705 1.363 . S
C1704 H1707 0.929 . S
C1705 C1704 1.363 . S
C1705 C1711 1.428 . S
H1706 C1702 0.930 . S
H1707 C1704 0.929 . S
S1708 N1709 1.613 . S
S1708 N1710 1.610 . S
N1709 S1708 1.613 . S
N1709 C1712 1.350 . S
N1710 S1708 1.610 . S
N1710 C1711 1.351 . S
C1711 C1705 1.428 . S
C1711 N1710 1.351 . S
C1711 C1712 1.434 . S
C1712 C1703 1.429 . S
C1712 N1709 1.350 . S
C1712 C1711 1.434 . S
C1713 C1714 1.363 . S
C1713 C1715 1.420 1_565 S
C1713 H1717 0.935 . S
C1714 C1713 1.363 . S
C1714 C1723 1.427 1_564 S
C1715 C1713 1.420 1_545 S
C1715 C1716 1.363 . S
C1715 H1718 0.929 . S
C1716 C1715 1.363 . S
C1716 C1722 1.428 1_554 S
H1717 C1713 0.935 . S
H1718 C1715 0.929 . S
S1719 N1720 1.613 1_545 S
S1719 N1721 1.610 . S
N1720 S1719 1.613 1_565 S
N1720 C1723 1.351 1_565 S
N1721 S1719 1.610 . S
N1721 C1722 1.351 . S
C1722 C1716 1.428 1_556 S
C1722 N1721 1.351 . S
C1722 C1723 1.434 . S
C1723 C1714 1.427 1_546 S
C1723 N1720 1.351 1_545 S
C1723 C1722 1.434 . S
C1724 C1725 1.369 . S
C1724 C1726 1.419 . S
C1724 H1728 0.930 . S
C1725 C1724 1.369 . S
C1725 C1734 1.429 . S
C1726 C1724 1.419 . S
C1726 C1727 1.363 . S
C1726 H1729 0.929 . S
C1727 C1726 1.363 . S
C1727 C1733 1.428 . S
H1728 C1724 0.930 . S
H1729 C1726 0.929 . S
S1730 N1731 1.613 . S
S1730 N1732 1.610 . S
N1731 S1730 1.613 . S
N1731 C1734 1.350 . S
N1732 S1730 1.610 . S
N1732 C1733 1.351 . S
C1733 C1727 1.428 . S
C1733 N1732 1.351 . S
C1733 C1734 1.434 . S
C1734 C1725 1.429 . S
C1734 N1731 1.350 . S
C1734 C1733 1.434 . S
C1735 C1736 1.369 . S
C1735 C1737 1.419 . S
C1735 H1739 0.930 . S
C1736 C1735 1.369 . S
C1736 C1745 1.429 . S
C1737 C1735 1.419 . S
C1737 C1738 1.363 . S
C1737 H1740 0.929 . S
C1738 C1737 1.363 . S
C1738 C1744 1.428 . S
H1739 C1735 0.930 . S
H1740 C1737 0.929 . S
S1741 N1742 1.613 . S
S1741 N1743 1.610 1_556 S
N1742 S1741 1.613 . S
N1742 C1745 1.350 1_556 S
N1743 S1741 1.610 1_554 S
N1743 C1744 1.351 . S
C1744 C1738 1.428 . S
C1744 N1743 1.351 . S
C1744 C1745 1.434 . S
C1745 C1736 1.429 . S
C1745 N1742 1.350 1_554 S
C1745 C1744 1.434 . S
C1746 C1747 1.369 . S
C1746 C1748 1.419 . S
C1746 H1750 0.930 . S
C1747 C1746 1.369 . S
C1747 C1756 1.429 . S
C1748 C1746 1.419 . S
C1748 C1749 1.363 . S
C1748 H1751 0.929 . S
C1749 C1748 1.363 . S
C1749 C1755 1.428 . S
H1750 C1746 0.930 . S
H1751 C1748 0.929 . S
S1752 N1753 1.613 . S
S1752 N1754 1.610 . S
N1753 S1752 1.613 . S
N1753 C1756 1.350 . S
N1754 S1752 1.610 . S
N1754 C1755 1.351 . S
C1755 C1749 1.428 . S
C1755 N1754 1.351 . S
C1755 C1756 1.434 . S
C1756 C1747 1.429 . S
C1756 N1753 1.350 . S
C1756 C1755 1.434 . S
C1757 C1758 1.369 . S
C1757 C1759 1.419 . S
C1757 H1761 0.930 . S
C1758 C1757 1.369 . S
C1758 C1767 1.429 . S
C1759 C1757 1.419 . S
C1759 C1760 1.363 . S
C1759 H1762 0.929 . S
C1760 C1759 1.363 . S
C1760 C1766 1.428 . S
H1761 C1757 0.930 . S
H1762 C1759 0.929 . S
S1763 N1764 1.613 . S
S1763 N1765 1.610 . S
N1764 S1763 1.613 . S
N1764 C1767 1.350 . S
N1765 S1763 1.610 . S
N1765 C1766 1.351 . S
C1766 C1760 1.428 . S
C1766 N1765 1.351 . S
C1766 C1767 1.434 . S
C1767 C1758 1.429 . S
C1767 N1764 1.350 . S
C1767 C1766 1.434 . S
C1768 C1769 1.369 . S
C1768 C1770 1.419 . S
C1768 H1772 0.930 . S
C1769 C1768 1.369 . S
C1769 C1778 1.429 . S
C1770 C1768 1.419 . S
C1770 C1771 1.363 . S
C1770 H1773 0.929 . S
C1771 C1770 1.363 . S
C1771 C1777 1.428 . S
H1772 C1768 0.930 . S
H1773 C1770 0.929 . S
S1774 N1775 1.613 . S
S1774 N1776 1.610 . S
N1775 S1774 1.613 . S
N1775 C1778 1.350 . S
N1776 S1774 1.610 . S
N1776 C1777 1.351 . S
C1777 C1771 1.428 . S
C1777 N1776 1.351 . S
C1777 C1778 1.434 . S
C1778 C1769 1.429 . S
C1778 N1775 1.350 . S
C1778 C1777 1.434 . S
C1779 C1780 1.369 . S
C1779 C1781 1.419 . S
C1779 H1783 0.930 . S
C1780 C1779 1.369 . S
C1780 C1789 1.429 . S
C1781 C1779 1.419 . S
C1781 C1782 1.363 . S
C1781 H1784 0.929 . S
C1782 C1781 1.363 . S
C1782 C1788 1.428 . S
H1783 C1779 0.930 . S
H1784 C1781 0.929 . S
S1785 N1786 1.613 . S
S1785 N1787 1.610 . S
N1786 S1785 1.613 . S
N1786 C1789 1.350 . S
N1787 S1785 1.610 . S
N1787 C1788 1.351 . S
C1788 C1782 1.428 . S
C1788 N1787 1.351 . S
C1788 C1789 1.434 . S
C1789 C1780 1.429 . S
C1789 N1786 1.350 . S
C1789 C1788 1.434 . S
C1790 C1791 1.369 . S
C1790 C1792 1.419 . S
C1790 H1794 0.930 . S
C1791 C1790 1.369 . S
C1791 C1800 1.429 . S
C1792 C1790 1.419 . S
C1792 C1793 1.363 . S
C1792 H1795 0.929 . S
C1793 C1792 1.363 . S
C1793 C1799 1.428 . S
H1794 C1790 0.930 . S
H1795 C1792 0.929 . S
S1796 N1797 1.613 . S
S1796 N1798 1.610 . S
N1797 S1796 1.613 . S
N1797 C1800 1.350 . S
N1798 S1796 1.610 . S
N1798 C1799 1.351 . S
C1799 C1793 1.428 . S
C1799 N1798 1.351 . S
C1799 C1800 1.434 . S
C1800 C1791 1.429 . S
C1800 N1797 1.350 . S
C1800 C1799 1.434 . S
C1801 C1802 1.369 . S
C1801 C1803 1.419 . S
C1801 H1805 0.930 . S
C1802 C1801 1.369 . S
C1802 C1811 1.429 . S
C1803 C1801 1.419 . S
C1803 C1804 1.363 . S
C1803 H1806 0.929 . S
C1804 C1803 1.363 . S
C1804 C1810 1.428 . S
H1805 C1801 0.930 . S
H1806 C1803 0.929 . S
S1807 N1808 1.613 . S
S1807 N1809 1.610 . S
N1808 S1807 1.613 . S
N1808 C1811 1.350 . S
N1809 S1807 1.610 . S
N1809 C1810 1.351 . S
C1810 C1804 1.428 . S
C1810 N1809 1.351 . S
C1810 C1811 1.434 . S
C1811 C1802 1.429 . S
C1811 N1808 1.350 . S
C1811 C1810 1.434 . S
C1812 C1813 1.369 . S
C1812 C1814 1.419 . S
C1812 H1816 0.930 . S
C1813 C1812 1.369 . S
C1813 C1822 1.429 . S
C1814 C1812 1.419 . S
C1814 C1815 1.363 . S
C1814 H1817 0.929 . S
C1815 C1814 1.363 . S
C1815 C1821 1.428 . S
H1816 C1812 0.930 . S
H1817 C1814 0.929 . S
S1818 N1819 1.613 . S
S1818 N1820 1.610 . S
N1819 S1818 1.613 . S
N1819 C1822 1.350 . S
N1820 S1818 1.610 . S
N1820 C1821 1.351 . S
C1821 C1815 1.428 . S
C1821 N1820 1.351 . S
C1821 C1822 1.434 . S
C1822 C1813 1.429 . S
C1822 N1819 1.350 . S
C1822 C1821 1.434 . S
C1823 C1824 1.369 . S
C1823 C1825 1.419 . S
C1823 H1827 0.930 . S
C1824 C1823 1.369 . S
C1824 C1833 1.429 . S
C1825 C1823 1.419 . S
C1825 C1826 1.363 . S
C1825 H1828 0.929 . S
C1826 C1825 1.363 . S
C1826 C1832 1.428 . S
H1827 C1823 0.930 . S
H1828 C1825 0.929 . S
S1829 N1830 1.613 . S
S1829 N1831 1.610 . S
N1830 S1829 1.613 . S
N1830 C1833 1.350 . S
N1831 S1829 1.610 . S
N1831 C1832 1.351 . S
C1832 C1826 1.428 . S
C1832 N1831 1.351 . S
C1832 C1833 1.434 . S
C1833 C1824 1.429 . S
C1833 N1830 1.350 . S
C1833 C1832 1.434 . S
C1834 C1835 1.369 . S
C1834 C1836 1.419 . S
C1834 H1838 0.930 . S
C1835 C1834 1.369 . S
C1835 C1844 1.429 . S
C1836 C1834 1.419 . S
C1836 C1837 1.363 . S
C1836 H1839 0.929 . S
C1837 C1836 1.363 . S
C1837 C1843 1.428 . S
H1838 C1834 0.930 . S
H1839 C1836 0.929 . S
S1840 N1841 1.613 . S
S1840 N1842 1.610 . S
N1841 S1840 1.613 . S
N1841 C1844 1.350 . S
N1842 S1840 1.610 . S
N1842 C1843 1.351 . S
C1843 C1837 1.428 . S
C1843 N1842 1.351 . S
C1843 C1844 1.434 . S
C1844 C1835 1.429 . S
C1844 N1841 1.350 . S
C1844 C1843 1.434 . S
C1845 C1846 1.369 . S
C1845 C1847 1.419 . S
C1845 H1849 0.930 . S
C1846 C1845 1.369 . S
C1846 C1855 1.429 . S
C1847 C1845 1.419 . S
C1847 C1848 1.363 . S
C1847 H1850 0.929 . S
C1848 C1847 1.363 . S
C1848 C1854 1.428 . S
H1849 C1845 0.930 . S
H1850 C1847 0.929 . S
S1851 N1852 1.613 . S
S1851 N1853 1.610 . S
N1852 S1851 1.613 . S
N1852 C1855 1.350 . S
N1853 S1851 1.610 . S
N1853 C1854 1.351 . S
C1854 C1848 1.428 . S
C1854 N1853 1.351 . S
C1854 C1855 1.434 . S
C1855 C1846 1.429 . S
C1855 N1852 1.350 . S
C1855 C1854 1.434 . S
C1856 C1857 1.369 . S
C1856 C1858 1.419 . S
C1856 H1860 0.930 . S
C1857 C1856 1.369 . S
C1857 C1866 1.429 . S
C1858 C1856 1.419 . S
C1858 C1859 1.363 . S
C1858 H1861 0.929 . S
C1859 C1858 1.363 . S
C1859 C1865 1.428 . S
H1860 C1856 0.930 . S
H1861 C1858 0.929 . S
S1862 N1863 1.613 . S
S1862 N1864 1.610 . S
N1863 S1862 1.613 . S
N1863 C1866 1.350 . S
N1864 S1862 1.610 . S
N1864 C1865 1.351 . S
C1865 C1859 1.428 . S
C1865 N1864 1.351 . S
C1865 C1866 1.434 . S
C1866 C1857 1.429 . S
C1866 N1863 1.350 . S
C1866 C1865 1.434 . S
C1867 C1868 1.369 . S
C1867 C1869 1.419 . S
C1867 H1871 0.930 . S
C1868 C1867 1.369 . S
C1868 C1877 1.429 . S
C1869 C1867 1.419 . S
C1869 C1870 1.363 . S
C1869 H1872 0.929 . S
C1870 C1869 1.363 . S
C1870 C1876 1.428 . S
H1871 C1867 0.930 . S
H1872 C1869 0.929 . S
S1873 N1874 1.613 . S
S1873 N1875 1.610 . S
N1874 S1873 1.613 . S
N1874 C1877 1.350 . S
N1875 S1873 1.610 . S
N1875 C1876 1.351 . S
C1876 C1870 1.428 . S
C1876 N1875 1.351 . S
C1876 C1877 1.434 . S
C1877 C1868 1.429 . S
C1877 N1874 1.350 . S
C1877 C1876 1.434 . S
C1878 C1879 1.369 . S
C1878 C1880 1.419 1_655 S
C1878 H1882 0.930 . S
C1879 C1878 1.369 . S
C1879 C1888 1.429 . S
C1880 C1878 1.419 1_455 S
C1880 C1881 1.363 . S
C1880 H1883 0.929 . S
C1881 C1880 1.363 . S
C1881 C1887 1.428 . S
H1882 C1878 0.930 . S
H1883 C1880 0.929 . S
S1884 N1885 1.613 . S
S1884 N1886 1.610 1_655 S
N1885 S1884 1.613 . S
N1885 C1888 1.350 . S
N1886 S1884 1.610 1_455 S
N1886 C1887 1.351 . S
C1887 C1881 1.428 . S
C1887 N1886 1.351 . S
C1887 C1888 1.434 1_455 S
C1888 C1879 1.429 . S
C1888 N1885 1.350 . S
C1888 C1887 1.434 1_655 S
C1889 C1890 1.369 . S
C1889 C1891 1.419 . S
C1889 H1893 0.930 . S
C1890 C1889 1.369 . S
C1890 C1899 1.429 . S
C1891 C1889 1.419 . S
C1891 C1892 1.363 . S
C1891 H1894 0.929 . S
C1892 C1891 1.363 . S
C1892 C1898 1.428 . S
H1893 C1889 0.930 . S
H1894 C1891 0.929 . S
S1895 N1896 1.613 . S
S1895 N1897 1.610 . S
N1896 S1895 1.613 . S
N1896 C1899 1.350 . S
N1897 S1895 1.610 . S
N1897 C1898 1.351 . S
C1898 C1892 1.428 . S
C1898 N1897 1.351 . S
C1898 C1899 1.434 . S
C1899 C1890 1.429 . S
C1899 N1896 1.350 . S
C1899 C1898 1.434 . S
C1900 C1901 1.369 . S
C1900 C1902 1.419 . S
C1900 H1904 0.930 . S
C1901 C1900 1.369 . S
C1901 C1910 1.429 . S
C1902 C1900 1.419 . S
C1902 C1903 1.363 . S
C1902 H1905 0.929 . S
C1903 C1902 1.363 . S
C1903 C1909 1.428 . S
H1904 C1900 0.930 . S
H1905 C1902 0.929 . S
S1906 N1907 1.613 . S
S1906 N1908 1.610 . S
N1907 S1906 1.613 . S
N1907 C1910 1.350 . S
N1908 S1906 1.610 . S
N1908 C1909 1.351 . S
C1909 C1903 1.428 . S
C1909 N1908 1.351 . S
C1909 C1910 1.434 . S
C1910 C1901 1.429 . S
C1910 N1907 1.350 . S
C1910 C1909 1.434 . S
C1911 C1912 1.369 . S
C1911 C1913 1.419 . S
C1911 H1915 0.930 . S
C1912 C1911 1.369 . S
C1912 C1921 1.429 . S
C1913 C1911 1.419 . S
C1913 C1914 1.363 . S
C1913 H1916 0.929 . S
C1914 C1913 1.363 . S
C1914 C1920 1.428 . S
H1915 C1911 0.930 . S
H1916 C1913 0.929 . S
S1917 N1918 1.613 . S
S1917 N1919 1.610 . S
N1918 S1917 1.613 . S
N1918 C1921 1.350 . S
N1919 S1917 1.610 . S
N1919 C1920 1.351 . S
C1920 C1914 1.428 . S
C1920 N1919 1.351 . S
C1920 C1921 1.434 . S
C1921 C1912 1.429 . S
C1921 N1918 1.350 . S
C1921 C1920 1.434 . S
C1922 C1923 1.369 . S
C1922 C1924 1.419 . S
C1922 H1926 0.930 . S
C1923 C1922 1.369 . S
C1923 C1932 1.429 . S
C1924 C1922 1.419 . S
C1924 C1925 1.363 . S
C1924 H1927 0.929 . S
C1925 C1924 1.363 . S
C1925 C1931 1.428 . S
H1926 C1922 0.930 . S
H1927 C1924 0.929 . S
S1928 N1929 1.613 . S
S1928 N1930 1.610 . S
N1929 S1928 1.613 . S
N1929 C1932 1.350 . S
N1930 S1928 1.610 . S
N1930 C1931 1.351 . S
C1931 C1925 1.428 . S
C1931 N1930 1.351 . S
C1931 C1932 1.434 . S
C1932 C1923 1.429 . S
C1932 N1929 1.350 . S
C1932 C1931 1.434 . S
C1933 C1934 1.369 . S
C1933 C1935 1.419 . S
C1933 H1937 0.930 . S
C1934 C1933 1.369 . S
C1934 C1943 1.429 . S
C1935 C1933 1.419 . S
C1935 C1936 1.363 . S
C1935 H1938 0.929 . S
C1936 C1935 1.363 . S
C1936 C1942 1.428 . S
H1937 C1933 0.930 . S
H1938 C1935 0.929 . S
S1939 N1940 1.613 . S
S1939 N1941 1.610 . S
N1940 S1939 1.613 . S
N1940 C1943 1.350 . S
N1941 S1939 1.610 . S
N1941 C1942 1.351 . S
C1942 C1936 1.428 . S
C1942 N1941 1.351 . S
C1942 C1943 1.434 . S
C1943 C1934 1.429 . S
C1943 N1940 1.350 . S
C1943 C1942 1.434 . S
C1944 C1945 1.369 . S
C1944 C1946 1.419 . S
C1944 H1948 0.930 . S
C1945 C1944 1.369 . S
C1945 C1954 1.429 . S
C1946 C1944 1.419 . S
C1946 C1947 1.363 . S
C1946 H1949 0.929 . S
C1947 C1946 1.363 . S
C1947 C1953 1.428 . S
H1948 C1944 0.930 . S
H1949 C1946 0.929 . S
S1950 N1951 1.613 . S
S1950 N1952 1.610 . S
N1951 S1950 1.613 . S
N1951 C1954 1.350 . S
N1952 S1950 1.610 . S
N1952 C1953 1.351 . S
C1953 C1947 1.428 . S
C1953 N1952 1.351 . S
C1953 C1954 1.434 . S
C1954 C1945 1.429 . S
C1954 N1951 1.350 . S
C1954 C1953 1.434 . S
C1955 C1956 1.369 . S
C1955 C1957 1.419 . S
C1955 H1959 0.930 . S
C1956 C1955 1.369 . S
C1956 C1965 1.429 . S
C1957 C1955 1.419 . S
C1957 C1958 1.363 . S
C1957 H1960 0.929 . S
C1958 C1957 1.363 . S
C1958 C1964 1.428 . S
H1959 C1955 0.930 . S
H1960 C1957 0.929 . S
S1961 N1962 1.613 1_545 S
S1961 N1963 1.610 . S
N1962 S1961 1.613 1_565 S
N1962 C1965 1.350 . S
N1963 S1961 1.610 . S
N1963 C1964 1.351 1_545 S
C1964 C1958 1.428 . S
C1964 N1963 1.351 1_565 S
C1964 C1965 1.434 . S
C1965 C1956 1.429 . S
C1965 N1962 1.350 . S
C1965 C1964 1.434 . S
C1966 C1967 1.369 . S
C1966 C1968 1.419 . S
C1966 H1970 0.930 . S
C1967 C1966 1.369 . S
C1967 C1976 1.429 . S
C1968 C1966 1.419 . S
C1968 C1969 1.363 . S
C1968 H1971 0.929 . S
C1969 C1968 1.363 . S
C1969 C1975 1.428 . S
H1970 C1966 0.930 . S
H1971 C1968 0.929 . S
S1972 N1973 1.613 . S
S1972 N1974 1.610 . S
N1973 S1972 1.613 . S
N1973 C1976 1.350 . S
N1974 S1972 1.610 . S
N1974 C1975 1.351 . S
C1975 C1969 1.428 . S
C1975 N1974 1.351 . S
C1975 C1976 1.434 . S
C1976 C1967 1.429 . S
C1976 N1973 1.350 . S
C1976 C1975 1.434 . S
C1977 C1978 1.369 . S
C1977 C1979 1.419 . S
C1977 H1981 0.930 . S
C1978 C1977 1.369 . S
C1978 C1987 1.429 . S
C1979 C1977 1.419 . S
C1979 C1980 1.363 . S
C1979 H1982 0.929 . S
C1980 C1979 1.363 . S
C1980 C1986 1.428 . S
H1981 C1977 0.930 . S
H1982 C1979 0.929 . S
S1983 N1984 1.613 1_556 S
S1983 N1985 1.608 1_556 S
N1984 S1983 1.613 1_554 S
N1984 C1987 1.350 . S
N1985 S1983 1.608 1_554 S
N1985 C1986 1.353 . S
C1986 C1980 1.428 . S
C1986 N1985 1.353 . S
C1986 C1987 1.434 . S
C1987 C1978 1.429 . S
C1987 N1984 1.350 . S
C1987 C1986 1.434 . S
C1988 C1989 1.369 . S
C1988 C1990 1.419 . S
C1988 H1992 0.930 . S
C1989 C1988 1.369 . S
C1989 C1998 1.429 . S
C1990 C1988 1.419 . S
C1990 C1991 1.363 . S
C1990 H1993 0.929 . S
C1991 C1990 1.363 . S
C1991 C1997 1.428 . S
H1992 C1988 0.930 . S
H1993 C1990 0.929 . S
S1994 N1995 1.613 . S
S1994 N1996 1.610 . S
N1995 S1994 1.613 . S
N1995 C1998 1.350 . S
N1996 S1994 1.610 . S
N1996 C1997 1.351 . S
C1997 C1991 1.428 . S
C1997 N1996 1.351 . S
C1997 C1998 1.434 . S
C1998 C1989 1.429 . S
C1998 N1995 1.350 . S
C1998 C1997 1.434 . S
C1999 C2000 1.369 . S
C1999 C2001 1.419 . S
C1999 H2003 0.930 . S
C2000 C1999 1.369 . S
C2000 C2009 1.429 1_554 S
C2001 C1999 1.419 . S
C2001 C2002 1.363 1_554 S
C2001 H2004 0.929 . S
C2002 C2001 1.363 1_556 S
C2002 C2008 1.428 . S
H2003 C1999 0.930 . S
H2004 C2001 0.929 . S
S2005 N2006 1.613 . S
S2005 N2007 1.610 . S
N2006 S2005 1.613 . S
N2006 C2009 1.350 . S
N2007 S2005 1.610 . S
N2007 C2008 1.351 . S
C2008 C2002 1.428 . S
C2008 N2007 1.351 . S
C2008 C2009 1.434 . S
C2009 C2000 1.429 1_556 S
C2009 N2006 1.350 . S
C2009 C2008 1.434 . S
C2010 C2011 1.369 . S
C2010 C2012 1.419 . S
C2010 H2014 0.930 . S
C2011 C2010 1.369 . S
C2011 C2020 1.429 . S
C2012 C2010 1.419 . S
C2012 C2013 1.363 . S
C2012 H2015 0.929 . S
C2013 C2012 1.363 . S
C2013 C2019 1.428 . S
H2014 C2010 0.930 . S
H2015 C2012 0.929 . S
S2016 N2017 1.613 . S
S2016 N2018 1.610 . S
N2017 S2016 1.613 . S
N2017 C2020 1.350 . S
N2018 S2016 1.610 . S
N2018 C2019 1.351 . S
C2019 C2013 1.428 . S
C2019 N2018 1.351 . S
C2019 C2020 1.434 . S
C2020 C2011 1.429 . S
C2020 N2017 1.350 . S
C2020 C2019 1.434 . S
C2021 C2022 1.369 . S
C2021 C2023 1.419 . S
C2021 H2025 0.930 . S
C2022 C2021 1.369 . S
C2022 C2031 1.429 . S
C2023 C2021 1.419 . S
C2023 C2024 1.363 . S
C2023 H2026 0.929 . S
C2024 C2023 1.363 . S
C2024 C2030 1.428 . S
H2025 C2021 0.930 . S
H2026 C2023 0.929 . S
S2027 N2028 1.613 . S
S2027 N2029 1.610 . S
N2028 S2027 1.613 . S
N2028 C2031 1.350 . S
N2029 S2027 1.610 . S
N2029 C2030 1.351 . S
C2030 C2024 1.428 . S
C2030 N2029 1.351 . S
C2030 C2031 1.434 . S
C2031 C2022 1.429 . S
C2031 N2028 1.350 . S
C2031 C2030 1.434 . S
C977 C105 1.190 . S
C979 C344 1.199 . S
C988 C65 1.595 . S
C990 C378 1.586 . S
C999 C73 0.824 . S
C1001 C447 0.811 . S
C1012 C485 0.951 . S
C1010 C92 0.963 . S
C1021 C17 1.806 . S
C1023 C525 1.726 . S
C1034 C544 0.597 . S
C1032 C37 0.585 . S
C1045 C578 1.522 . S
C1043 C49 1.337 . S
C1054 C8 1.891 . S
C1056 C647 1.881 . S
C1067 C353 2.518 . S
C1065 C231 2.496 . S
C1076 C241 1.402 . S
C1078 C405 1.353 . S
C1089 C418 1.427 . S
C1087 C273 1.368 . S
C1100 C487 1.569 . S
C1098 C171 1.552 . S
C1109 C227 2.090 . S
C1111 C527 2.105 . S
C1122 C553 1.921 . S
C1120 C245 1.812 . S
C1133 C605 0.527 . S
C1131 C269 0.501 . S
C1144 C618 2.358 . S
C1142 C175 2.367 . S
C1155 C348 2.479 . S
C1153 C162 2.531 . S
C1164 C289 2.061 . S
C1166 C658 2.072 . S
C1177 C708 2.716 . S
C1175 C330 2.728 . S
C1188 C767 1.744 1_655 S
C1186 C317 1.681 . S
C1197 C120 1.850 . S
C1199 C645 1.804 . S
C1208 C134 1.610 . S
C1210 C445 1.580 . S
C1219 C331 2.437 . S
C1221 C778 2.422 . S
C1232 C847 0.990 . S
C1230 C303 1.046 . S
C1243 C365 1.198 . S
C1241 C59 1.186 . S
C1254 C833 1.586 . S
C1252 C107 1.595 . S
C1263 C91 0.837 . S
C1265 C428 0.828 . S
C1274 C78 0.997 . S
C1276 C784 0.984 . S
C1287 C504 1.722 . S
C1285 C7 1.658 . S
C1296 C51 0.586 . S
C1298 C725 0.592 . S
C1309 C593 1.572 1_556 S
C1307 C31 1.527 . S
C1320 C868 1.859 . S
C1318 C22 1.858 . S
C1331 C338 2.516 . S
C1329 C143 2.568 . S
C1342 C824 1.331 . S
C1340 C315 1.221 . S
C1351 C115 1.435 . S
C1353 C433 1.440 . S
C1362 C287 1.605 . S
C1364 C788 1.604 . S
C1373 C147 2.007 . S
C1375 C508 2.131 . S
C1386 C698 1.922 . S
C1384 C311 1.965 . S
C1395 C119 0.530 . S
C1397 C584 0.553 . S
C1406 C283 2.366 . S
C1408 C873 2.366 . S
C1417 C190 2.548 . S
C1419 C367 2.509 1_655 S
C1428 C177 2.069 . S
C1430 C673 2.092 . S
C1439 C260 2.757 . S
C1441 C567 2.742 . S
C1450 C247 1.728 . S
C1452 C748 1.796 . S
C1463 C864 1.784 . S
C1461 C274 1.762 . S
C1472 C218 1.569 . S
C1474 C424 1.560 . S
C1485 C473 2.466 . S
C1483 C261 2.472 . S
C1496 C388 1.000 . S
C1494 C205 1.035 . S
C1505 C77 1.182 . S
C1507 C904 1.204 . S
C1518 C818 1.587 . S
C1516 C93 1.592 . S
C1527 C101 0.818 . S
C1529 C967 0.811 . S
C1538 C64 0.960 . S
C1540 C805 0.954 . S
C1549 C45 1.805 . S
C1551 C685 1.729 . S
C1562 C704 0.599 1_455 S
C1560 C9 0.585 . S
C1573 C738 1.522 . S
C1571 C21 1.330 1_455 S
C1584 C887 1.877 . S
C1582 C36 1.894 . S
C1595 C913 2.517 . S
C1593 C259 2.497 . S
C1604 C185 1.401 . S
C1606 C845 1.358 . S
C1617 C938 1.424 . S
C1615 C203 1.368 . S
C1628 C807 1.569 . S
C1626 C213 1.552 . S
C1639 C687 2.103 . S
C1637 C255 2.091 . S
C1648 C189 1.812 . S
C1650 C713 1.922 . S
C1661 C765 0.524 . S
C1659 C199 0.494 . S
C1670 C217 2.367 . S
C1672 C858 2.357 . S
C1683 C908 2.477 . S
C1681 C316 2.532 . S
C1692 C135 2.061 . S
C1694 C498 2.072 . S
C1705 C548 2.716 . S
C1703 C148 2.729 . S
C1716 C607 1.743 . S
C1714 C163 1.682 . S
C1727 C885 1.799 . S
C1725 C302 1.854 . S
C1736 C288 1.619 . S
C1738 C965 1.574 . S
C1749 C458 2.422 . S
C1747 C149 2.437 . S
C1760 C407 0.996 . S
C1758 C121 1.043 . S
C1769 C87 1.184 . S
C1771 C925 1.195 . S
C1782 C393 1.586 . S
C1780 C79 1.595 . S
C1791 C63 0.842 . S
C1793 C948 0.827 . S
C1802 C106 0.999 . S
C1804 C464 0.982 . S
C1813 C35 1.645 . S
C1815 C664 1.731 . S
C1826 C565 0.601 . S
C1824 C23 0.581 . S
C1835 C3 1.530 . S
C1837 C753 1.574 . S
C1846 C50 1.848 . S
C1848 C628 1.862 . S
C1859 C898 2.514 . S
C1857 C325 2.568 . S
C1868 C161 1.232 . S
C1870 C384 1.325 . S
C1881 C953 1.440 . S
C1879 C297 1.435 . S
C1890 C133 1.606 . S
C1892 C468 1.604 . S
C1901 C329 2.007 . S
C1903 C668 2.131 . S
C1914 C538 1.921 . S
C1912 C157 1.968 . S
C1923 C301 0.527 . S
C1925 C744 0.562 . S
C1936 C633 2.366 . S
C1934 C129 2.367 . S
C1947 C927 2.509 . S
C1945 C246 2.548 . S
C1958 C513 2.092 1_665 S
C1956 C219 2.069 . S
C1967 C232 2.756 . S
C1969 C727 2.743 . S
C1980 C588 1.793 . S
C1978 C191 1.735 . S
C1989 C204 1.763 . S
C1991 C624 1.783 . S
C2000 C176 1.562 . S
C2002 C944 1.566 . S
C2013 C793 2.464 . S
C2011 C233 2.474 1_565 S
C2024 C828 0.990 . S
C2022 C275 1.040 . S
