# Generated by pormake.
# Topology pth, (4,4)-cn, num edge types: 1
# Building blocks:
#     Node 0, Type 0, BuildingBlock: CEKHIL_clean_sbu_0, # of connection points: 4
#     Node 1, Type 0, BuildingBlock: CEKHIL_clean_sbu_0, # of connection points: 4
#     Node 2, Type 0, BuildingBlock: CEKHIL_clean_sbu_0, # of connection points: 4
#     Node 3, Type 1, BuildingBlock: KOZSID_clean_sbu_0, # of connection points: 4
#     Node 4, Type 1, BuildingBlock: KOZSID_clean_sbu_0, # of connection points: 4
#     Node 5, Type 1, BuildingBlock: KOZSID_clean_sbu_0, # of connection points: 4
#     Edge 6, Type (0, 1), BuildingBlock: MIFKUJ_clean_linker_0, # of connection points: 2
#     Edge 7, Type (0, 1), BuildingBlock: MIFKUJ_clean_linker_0, # of connection points: 2
#     Edge 8, Type (0, 1), BuildingBlock: MIFKUJ_clean_linker_0, # of connection points: 2
#     Edge 9, Type (0, 1), BuildingBlock: MIFKUJ_clean_linker_0, # of connection points: 2
#     Edge 10, Type (0, 1), BuildingBlock: MIFKUJ_clean_linker_0, # of connection points: 2
#     Edge 11, Type (0, 1), BuildingBlock: MIFKUJ_clean_linker_0, # of connection points: 2
#     Edge 12, Type (0, 1), BuildingBlock: MIFKUJ_clean_linker_0, # of connection points: 2
#     Edge 13, Type (0, 1), BuildingBlock: MIFKUJ_clean_linker_0, # of connection points: 2
#     Edge 14, Type (0, 1), BuildingBlock: MIFKUJ_clean_linker_0, # of connection points: 2
#     Edge 15, Type (0, 1), BuildingBlock: MIFKUJ_clean_linker_0, # of connection points: 2
#     Edge 16, Type (0, 1), BuildingBlock: MIFKUJ_clean_linker_0, # of connection points: 2
#     Edge 17, Type (0, 1), BuildingBlock: MIFKUJ_clean_linker_0, # of connection points: 2
# Relax obj value: 0.006
# Max RMSD: 0.053
# Mean RMSD: 0.039
data_MOF--net-pth--node1-CEKHIL_clean_sbu_0--node2-KOZSID_clean_sbu_0--edge1-MIFKUJ_clean_linker_0
_symmetry_space_group_name_H-M    P1
_symmetry_Int_Tables_number       1
_symmetry_cell_setting            triclinic
loop_
_symmetry_equiv_pos_as_xyz
'x, y, z'
_cell_length_a     33.324033
_cell_length_b     33.442726
_cell_length_c     77.756897
_cell_angle_alpha  88.784659
_cell_angle_beta   87.813495
_cell_angle_gamma 120.38946
loop_
_atom_site_label
_atom_site_type_symbol
_atom_site_fract_x
_atom_site_fract_y
_atom_site_fract_z
_atom_type_partial_charge
Co0 Co 0.04503 0.04816 0.05547 0.0
O1 O 0.0132 1.00033 0.07352 0.0
O2 O 0.0729 0.0094 0.057 0.0
C3 C 0.05071 0.10673 0.07137 0.0
O4 O 0.08881 0.09484 0.03625 0.0
Co5 Co 1.00194 0.10344 0.04056 0.0
O6 O 0.06694 0.1476 0.03196 0.0
C7 C 0.96772 0.00744 0.03002 0.0
C8 C 0.04258 0.98677 0.06974 0.0
C9 C 0.09625 0.1341 0.02984 0.0
O10 O 0.99996 0.00616 0.03826 0.0
O11 O 0.96124 0.04207 0.03018 0.0
O12 O 0.08055 0.09282 0.07263 0.0
O13 O 0.0168 0.08285 0.06159 0.0
Co14 Co 0.03507 0.07707 0.37557 0.0
O15 O 0.00686 0.09474 0.35802 0.0
O16 O 0.06497 0.14423 0.37313 0.0
C17 C 0.04145 0.02381 0.36 0.0
O18 O 0.07527 0.07224 0.39398 0.0
Co19 Co 0.98567 0.9773 0.39187 0.0
O20 O 0.04662 0.99702 0.40156 0.0
C21 C 0.95488 0.04165 0.40316 0.0
C22 C 0.03649 0.13756 0.36106 0.0
C23 C 0.07798 0.03962 0.40207 0.0
O24 O 0.98821 0.07467 0.39365 0.0
O25 O 0.94667 0.99988 0.40363 0.0
O26 O 0.07238 0.06767 0.3579 0.0
O27 O 0.00597 0.01396 0.37031 0.0
Co28 Co 0.0439 0.05206 0.70948 0.0
O29 O 0.09343 0.08493 0.69195 0.0
O30 O 0.08096 0.02243 0.70695 0.0
C31 C 0.98723 0.05092 0.69393 0.0
O32 O 0.99456 0.00655 0.72775 0.0
Co33 Co 0.99141 0.09642 0.72618 0.0
O34 O 0.94454 0.03149 0.73345 0.0
C35 C 0.08586 0.12494 0.73681 0.0
C36 C 0.10543 0.05419 0.69491 0.0
C37 C 0.95545 1.00012 0.73436 0.0
O38 O 0.08611 0.0936 0.72751 0.0
O39 O 0.05213 0.13297 0.73747 0.0
O40 O 0.99995 0.02041 0.69177 0.0
O41 O 0.01142 0.08311 0.70435 0.0
C42 C 0.09531 0.64963 0.18865 0.0
C43 C 0.13849 0.68605 0.18254 0.0
C44 C 0.17123 0.68147 0.19093 0.0
C45 C 0.14638 0.64302 0.20178 0.0
N46 N 0.09969 0.62231 0.20073 0.0
Co47 Co 0.05092 0.56826 0.21561 0.0
N48 N 0.09925 0.56266 0.22839 0.0
C49 C 0.14592 0.58795 0.2251 0.0
C50 C 0.17037 0.57419 0.23496 0.0
C51 C 0.13738 0.53758 0.24508 0.0
C52 C 0.09445 0.53137 0.24094 0.0
N53 N 1.00214 0.51572 0.23099 0.0
C54 C 0.00645 0.4907 0.24402 0.0
C55 C 0.9634 0.45886 0.25192 0.0
C56 C 0.9307 0.46309 0.24334 0.0
C57 C 0.9555 0.49749 0.23087 0.0
N58 N 1.00257 0.5725 0.20236 0.0
C59 C 0.9559 0.54377 0.20429 0.0
C60 C 0.93143 0.55409 0.19303 0.0
C61 C 0.96439 0.59189 0.18336 0.0
C62 C 0.00726 0.6028 0.18944 0.0
N63 N 0.05044 0.52349 0.19894 0.0
C64 C 0.05071 0.45772 0.17673 0.0
C65 C 0.00982 0.4492 0.1857 0.0
C66 C 0.01035 0.48239 0.1965 0.0
C67 C 0.09127 0.50013 0.1788 0.0
C68 C 0.09044 0.53211 0.18992 0.0
N69 N 0.05143 0.61288 0.23226 0.0
C70 C 0.01102 0.64437 0.24845 0.0
C71 C 0.05257 0.67821 0.25506 0.0
C72 C 0.09346 0.67832 0.25018 0.0
C73 C 0.09212 0.64564 0.23891 0.0
C74 C 0.01122 0.61236 0.2372 0.0
H75 H 0.12451 0.64769 0.2357 0.0
H76 H 0.97843 0.58778 0.23253 0.0
H77 H 0.97786 0.47374 0.20282 0.0
H78 H 0.12278 0.56331 0.19112 0.0
C79 C 0.1658 0.6251 0.21295 0.0
C80 C 0.05119 0.64307 0.18286 0.0
C81 C 0.05015 0.49464 0.24899 0.0
C82 C 0.93597 0.51063 0.21794 0.0
H83 H 0.14577 0.71351 0.17313 0.0
H84 H 0.20869 0.7038 0.18943 0.0
H85 H 0.20774 0.58885 0.23473 0.0
H86 H 0.14433 0.51752 0.25432 0.0
H87 H 0.95625 0.43448 0.2626 0.0
H88 H 0.89325 0.44274 0.24565 0.0
H89 H 0.894 0.53703 0.19227 0.0
H90 H 0.95756 0.6099 0.1732 0.0
H91 H 0.97733 0.41711 0.18431 0.0
H92 H 0.1239 0.50823 0.17218 0.0
H93 H 0.97843 0.64303 0.25164 0.0
H94 H 0.12649 0.70331 0.25512 0.0
C95 C 0.4599 0.0256 0.57384 0.0
C96 C 0.42284 0.98152 0.57849 0.0
C97 C 0.42871 0.95119 0.5688 0.0
C98 C 0.46854 0.97825 0.55868 0.0
N99 N 0.48882 0.02414 0.56138 0.0
Co100 Co 0.54522 0.07579 0.54833 0.0
N101 N 0.55335 0.03091 0.53393 0.0
C102 C 0.5265 0.98408 0.53494 0.0
C103 C 0.54104 0.96234 0.52372 0.0
C104 C 0.57997 0.99727 0.51516 0.0
C105 C 0.58706 0.03852 0.52175 0.0
N106 N 0.60089 0.12748 0.53498 0.0
C107 C 0.62969 0.12608 0.52246 0.0
C108 C 0.66474 0.17034 0.51689 0.0
C109 C 0.65791 0.20074 0.52617 0.0
C110 C 0.61935 0.17352 0.53689 0.0
N111 N 0.53788 0.12058 0.56304 0.0
C112 C 0.56587 0.16727 0.56246 0.0
C113 C 0.55315 0.18889 0.57442 0.0
C114 C 0.51451 0.154 0.58313 0.0
C115 C 0.50555 0.11293 0.57584 0.0
N116 N 0.58665 0.07215 0.56532 0.0
C117 C 0.64761 0.0667 0.58838 0.0
C118 C 0.65478 0.10957 0.58224 0.0
C119 C 0.62419 0.11148 0.57085 0.0
C120 C 0.60887 0.02663 0.58294 0.0
C121 C 0.57912 0.03011 0.57157 0.0
N122 N 0.50367 0.07938 0.53131 0.0
C123 C 0.47482 0.12312 0.51616 0.0
C124 C 0.44103 0.08321 0.5086 0.0
C125 C 0.44014 0.04165 0.51231 0.0
C126 C 0.47131 0.04051 0.52356 0.0
C127 C 0.50557 0.12048 0.5273 0.0
H128 H 0.4682 0.0076 0.52587 0.0
H129 H 0.5302 0.15211 0.53268 0.0
H130 H 0.63197 0.14522 0.56655 0.0
H131 H 0.55037 0.99824 0.56793 0.0
C132 C 0.48758 0.96159 0.54647 0.0
C133 C 0.46533 0.06777 0.58129 0.0
C134 C 0.62659 0.08388 0.51608 0.0
C135 C 0.60237 0.18997 0.54994 0.0
H136 H 0.39408 0.97211 0.58776 0.0
H137 H 0.40624 0.91387 0.56894 0.0
H138 H 0.52533 0.92546 0.52201 0.0
H139 H 0.60089 0.99284 0.50524 0.0
H140 H 0.69308 0.17979 0.50741 0.0
H141 H 0.67945 0.2382 0.5256 0.0
H142 H 0.56963 0.22571 0.5764 0.0
H143 H 0.49486 0.15841 0.59357 0.0
H144 H 0.68449 0.14169 0.58588 0.0
H145 H 0.60122 0.99254 0.58752 0.0
H146 H 0.47698 0.15622 0.51385 0.0
H147 H 0.41548 0.00984 0.50653 0.0
C148 C 0.65098 0.58892 0.86045 0.0
C149 C 0.6932 0.58997 0.85975 0.0
C150 C 0.68511 0.54894 0.86704 0.0
C151 C 0.63934 0.52639 0.87288 0.0
N152 N 0.61832 0.55139 0.87026 0.0
Co153 Co 0.5578 0.53914 0.88177 0.0
N154 N 0.54662 0.48021 0.89368 0.0
C155 C 0.57576 0.46317 0.89318 0.0
C156 C 0.56007 0.42325 0.90313 0.0
C157 C 0.51833 0.41414 0.9105 0.0
C158 C 0.51068 0.449 0.90446 0.0
N159 N 0.49658 0.52631 0.89269 0.0
C160 C 0.46406 0.48955 0.90276 0.0
C161 C 0.42465 0.49284 0.90628 0.0
C162 C 0.43297 0.53349 0.89851 0.0
C163 C 0.47648 0.55238 0.89051 0.0
N164 N 0.56988 0.59886 0.87044 0.0
C165 C 0.54512 0.62004 0.87357 0.0
C166 C 0.56803 0.66585 0.86812 0.0
C167 C 0.60946 0.67402 0.86072 0.0
C168 C 0.60826 0.63187 0.86113 0.0
N169 N 0.52419 0.50398 0.86174 0.0
C170 C 0.4653 0.44513 0.83696 0.0
C171 C 0.46447 0.48503 0.84146 0.0
C172 C 0.49413 0.51388 0.8537 0.0
C173 C 0.49841 0.43705 0.84431 0.0
C174 C 0.52768 0.467 0.85642 0.0
N175 N 0.59146 0.57476 0.90205 0.0
C176 C 0.60605 0.63393 0.92246 0.0
C177 C 0.64709 0.63596 0.92715 0.0
C178 C 0.65788 0.60436 0.91996 0.0
C179 C 0.62962 0.57407 0.90773 0.0
C180 C 0.5788 0.60305 0.9102 0.0
H181 H 0.63992 0.55092 0.903 0.0
H182 H 0.54786 0.60319 0.90748 0.0
H183 H 0.49142 0.54342 0.85685 0.0
H184 H 0.55232 0.45919 0.86161 0.0
C185 C 0.61781 0.48572 0.88333 0.0
C186 C 0.6424 0.62342 0.85174 0.0
C187 C 0.46923 0.45136 0.90959 0.0
C188 C 0.50103 0.59621 0.88209 0.0
H189 H 0.72719 0.61837 0.85544 0.0
H190 H 0.71047 0.53836 0.86901 0.0
H191 H 0.57716 0.40337 0.90495 0.0
H192 H 0.49634 0.38527 0.91945 0.0
H193 H 0.39325 0.46863 0.91384 0.0
H194 H 0.41032 0.54792 0.8989 0.0
H195 H 0.55638 0.69054 0.86961 0.0
H196 H 0.637 0.70717 0.8553 0.0
H197 H 0.43978 0.49313 0.83607 0.0
H198 H 0.50149 0.40747 0.84086 0.0
H199 H 0.59492 0.65625 0.92817 0.0
H200 H 0.68885 0.6038 0.92331 0.0
H201 H 0.10878 0.1522 0.097 0.0
H202 H 0.10973 0.21243 0.1146 0.0
H203 H 1.00183 0.2107 0.0851 0.0
H204 H 0.99968 0.14938 0.06787 0.0
H205 H 0.12854 0.2969 0.10955 0.0
H206 H 0.93091 0.2327 0.10996 0.0
H207 H 0.85632 0.15939 0.10806 0.0
H208 H 0.91778 0.08283 0.12761 0.0
H209 H 0.99252 0.1557 0.12984 0.0
H210 H 0.09111 0.47084 0.14418 0.0
H211 H 0.09214 0.41255 0.12594 0.0
H212 H 0.01355 0.30665 0.166 0.0
H213 H 0.01135 0.36462 0.18403 0.0
H214 H 0.98088 0.27298 0.13718 0.0
H215 H 0.1348 0.35533 0.15721 0.0
H216 H 0.2108 0.42386 0.16248 0.0
H217 H 0.2394 0.45559 0.10803 0.0
H218 H 0.16325 0.38755 0.10244 0.0
C219 C 0.08538 0.16479 0.09423 0.0
C220 C 0.05386 0.14573 0.08114 0.0
C221 C 0.08602 0.19934 0.10428 0.0
C222 C 0.05532 0.21574 0.10142 0.0
C223 C 0.02511 0.19798 0.08787 0.0
C224 C 0.02408 0.16305 0.07795 0.0
C225 C 0.0543 0.25065 0.11281 0.0
C226 C 0.09621 0.29167 0.11555 0.0
C227 C 0.01236 0.24362 0.12102 0.0
C228 C 0.96742 0.19963 0.11989 0.0
C229 C 0.92844 0.20023 0.11391 0.0
C230 C 0.88615 0.15875 0.11276 0.0
C231 C 0.88236 0.11647 0.11765 0.0
C232 C 0.92081 0.11559 0.12376 0.0
C233 C 0.96315 0.15696 0.12495 0.0
C234 C 0.07419 0.43513 0.1491 0.0
C235 C 0.05121 0.42235 0.16555 0.0
C236 C 0.0749 0.4018 0.13868 0.0
C237 C 0.0535 0.35511 0.14464 0.0
C238 C 0.03025 0.34231 0.16104 0.0
C239 C 0.02898 0.3755 0.17135 0.0
C240 C 0.05505 0.31952 0.13379 0.0
C241 C 0.01322 0.27835 0.13113 0.0
C242 C 0.09726 0.32578 0.12612 0.0
C243 C 0.14314 0.3666 0.12942 0.0
C244 C 0.15716 0.3771 0.14636 0.0
C245 C 0.20028 0.41583 0.14941 0.0
C246 C 0.22986 0.44413 0.1356 0.0
C247 C 0.21642 0.43367 0.11871 0.0
C248 C 0.17331 0.39501 0.1156 0.0
H249 H 0.26323 0.47409 0.13798 0.0
H250 H 0.8496 0.0844 0.11674 0.0
H251 H 0.92165 0.09999 0.39609 0.0
H252 H 0.86668 0.1116 0.41409 0.0
H253 H 0.86733 0.01995 0.45393 0.0
H254 H 0.91931 0.00586 0.43547 0.0
H255 H 0.78503 0.99942 0.45193 0.0
H256 H 0.92651 0.14865 0.45446 0.0
H257 H 0.99429 0.2208 0.44195 0.0
H258 H 0.90289 0.25696 0.41745 0.0
H259 H 0.83458 0.18481 0.42971 0.0
H260 H 0.68852 0.05627 0.52297 0.0
H261 H 0.74666 0.05504 0.50297 0.0
H262 H 0.70697 0.11601 0.46245 0.0
H263 H 0.64837 0.11679 0.48249 0.0
H264 H 0.80572 0.15394 0.46335 0.0
H265 H 0.6646 0.00571 0.46283 0.0
H266 H 0.59798 0.93462 0.47646 0.0
H267 H 0.69171 0.89747 0.49835 0.0
H268 H 0.75897 0.96884 0.4851 0.0
C269 C 0.91015 0.08262 0.40875 0.0
C270 C 0.92466 0.05199 0.41439 0.0
C271 C 0.87892 0.08947 0.41911 0.0
C272 C 0.86304 0.06723 0.4356 0.0
C273 C 0.87857 0.03741 0.44129 0.0
C274 C 0.90851 0.02948 0.43075 0.0
C275 C 0.8291 0.07327 0.4468 0.0
C276 C 0.79021 0.0334 0.45457 0.0
C277 C 0.83449 0.11736 0.44994 0.0
C278 C 0.87549 0.16116 0.44287 0.0
C279 C 0.9209 0.17192 0.44636 0.0
C280 C 0.9594 0.21282 0.43931 0.0
C281 C 0.9529 0.24338 0.42887 0.0
C282 C 0.90788 0.23324 0.42552 0.0
C283 C 0.86926 0.1924 0.43254 0.0
C284 C 0.69261 0.06974 0.50983 0.0
C285 C 0.66417 0.08659 0.5042 0.0
C286 C 0.72572 0.06905 0.49843 0.0
C287 C 0.73098 0.08522 0.48119 0.0
C288 C 0.7036 0.10353 0.4757 0.0
C289 C 0.67017 0.10388 0.4871 0.0
C290 C 0.76307 0.08031 0.46874 0.0
C291 C 0.80107 0.12019 0.46068 0.0
C292 C 0.75728 0.03632 0.46544 0.0
C293 C 0.71684 0.99282 0.47308 0.0
C294 C 0.67102 0.98253 0.47063 0.0
C295 C 0.63314 0.94217 0.47829 0.0
C296 C 0.64061 0.91159 0.48829 0.0
C297 C 0.68598 0.92122 0.49061 0.0
C298 C 0.724 0.9616 0.48302 0.0
H299 H 0.61124 0.88038 0.49422 0.0
H300 H 0.98275 0.27496 0.42339 0.0
H301 H 0.86528 0.97025 0.74493 0.0
H302 H 0.81053 0.89985 0.76166 0.0
H303 H 0.9131 0.85755 0.76231 0.0
H304 H 0.96854 0.92833 0.74515 0.0
H305 H 0.8253 0.78348 0.75779 0.0
H306 H 0.89415 0.90547 0.7972 0.0
H307 H 0.91938 0.98284 0.8082 0.0
H308 H 0.77764 0.95238 0.81118 0.0
H309 H 0.75163 0.87503 0.79996 0.0
H310 H 0.71305 0.62176 0.82947 0.0
H311 H 0.76453 0.68103 0.80849 0.0
H312 H 0.67 0.73283 0.8071 0.0
H313 H 0.61902 0.67413 0.82873 0.0
H314 H 0.75736 0.80326 0.81258 0.0
H315 H 0.68838 0.67992 0.77367 0.0
H316 H 0.66375 0.60249 0.76287 0.0
H317 H 0.80601 0.63464 0.75945 0.0
H318 H 0.83146 0.71208 0.77046 0.0
C319 C 0.87649 0.94613 0.74856 0.0
C320 C 0.92179 0.95551 0.74385 0.0
C321 C 0.84496 0.90573 0.75817 0.0
C322 C 0.85784 0.87367 0.76356 0.0
C323 C 0.90239 0.88187 0.75838 0.0
C324 C 0.93412 0.92243 0.74862 0.0
C325 C 0.82506 0.83278 0.77509 0.0
C326 C 0.81094 0.78776 0.7699 0.0
C327 C 0.80552 0.8382 0.79075 0.0
C328 C 0.821 0.8846 0.7976 0.0
C329 C 0.8684 0.91539 0.80008 0.0
C330 C 0.88283 0.95922 0.80637 0.0
C331 C 0.85015 0.97255 0.81035 0.0
C332 C 0.80293 0.94202 0.80808 0.0
C333 C 0.78832 0.89816 0.80177 0.0
C334 C 0.70475 0.64799 0.82633 0.0
C335 C 0.66675 0.64944 0.83448 0.0
C336 C 0.7335 0.68084 0.81329 0.0
C337 C 0.72307 0.71387 0.80696 0.0
C338 C 0.68075 0.70993 0.81261 0.0
C339 C 0.65224 0.67704 0.82565 0.0
C340 C 0.75698 0.75373 0.79524 0.0
C341 C 0.77156 0.79878 0.80046 0.0
C342 C 0.77696 0.74816 0.7797 0.0
C343 C 0.76177 0.70166 0.77305 0.0
C344 C 0.71438 0.67035 0.77075 0.0
C345 C 0.70028 0.62648 0.76457 0.0
C346 C 0.73328 0.61361 0.76052 0.0
C347 C 0.78048 0.64464 0.76261 0.0
C348 C 0.79477 0.68855 0.7688 0.0
H349 H 0.72229 0.57963 0.75573 0.0
H350 H 0.86139 0.00651 0.81521 0.0
H351 H 0.99408 0.94604 0.10023 0.0
H352 H 0.99706 0.88715 0.11837 0.0
H353 H 0.09381 0.88266 0.08117 0.0
H354 H 0.0915 0.94234 0.06294 0.0
H355 H 0.0194 0.79268 0.09462 0.0
H356 H 0.13672 0.93909 0.11493 0.0
H357 H 0.16668 0.01772 0.12546 0.0
H358 H 0.06796 0.96156 0.169 0.0
H359 H 0.03691 0.88262 0.15858 0.0
H360 H 0.08476 0.66389 0.14922 0.0
H361 H 0.08467 0.7216 0.12923 0.0
H362 H 0.01425 0.75623 0.16875 0.0
H363 H 0.01633 0.69995 0.1889 0.0
H364 H 0.07791 0.83205 0.15321 0.0
H365 H 0.95796 0.68765 0.13367 0.0
H366 H 0.92335 0.60805 0.12361 0.0
H367 H 0.02002 0.65802 0.07943 0.0
H368 H 0.05569 0.73789 0.08936 0.0
C369 C 0.01584 0.93242 0.09581 0.0
C370 C 0.04268 0.94903 0.08013 0.0
C371 C 0.01758 0.89881 0.10625 0.0
C372 C 0.04591 0.88073 0.1012 0.0
C373 C 0.07176 0.89619 0.08532 0.0
C374 C 0.07049 0.93035 0.07494 0.0
C375 C 0.04913 0.84654 0.11277 0.0
C376 C 0.03286 0.80139 0.10734 0.0
C377 C 0.06541 0.85756 0.12954 0.0
C378 C 0.08419 0.90498 0.13588 0.0
C379 C 0.12112 0.94354 0.12667 0.0
C380 C 0.13835 0.98816 0.13263 0.0
C381 C 0.11916 0.99465 0.14786 0.0
C382 C 0.08276 0.95649 0.15719 0.0
C383 C 0.06535 0.9118 0.15126 0.0
C384 C 0.06951 0.68409 0.15359 0.0
C385 C 0.05072 0.67776 0.17057 0.0
C386 C 0.06907 0.71677 0.14214 0.0
C387 C 0.04887 0.74304 0.14734 0.0
C388 C 0.03007 0.73656 0.16436 0.0
C389 C 0.03104 0.7043 0.17586 0.0
C390 C 0.04783 0.7777 0.13518 0.0
C391 C 0.06454 0.82311 0.14049 0.0
C392 C 0.03127 0.76665 0.11839 0.0
C393 C 0.00982 0.71869 0.11235 0.0
C394 C 0.97208 0.68162 0.12187 0.0
C395 C 0.95223 0.63646 0.11619 0.0
C396 C 0.96956 0.62796 0.10092 0.0
C397 C 0.00669 0.66465 0.09127 0.0
C398 C 0.02672 0.70988 0.09692 0.0
H399 H 0.95413 0.59297 0.09653 0.0
H400 H 0.13255 0.02922 0.15246 0.0
H401 H 0.16234 0.12173 0.40248 0.0
H402 H 0.22807 0.13827 0.42027 0.0
H403 H 0.14961 1.00018 0.44386 0.0
H404 H 0.08448 0.98337 0.42631 0.0
H405 H 0.19211 0.0667 0.46773 0.0
H406 H 0.23232 0.02501 0.41304 0.0
H407 H 0.2491 0.03371 0.38158 0.0
H408 H 0.3624 0.17266 0.38661 0.0
H409 H 0.34584 0.16497 0.41811 0.0
H410 H 0.34873 0.01746 0.50674 0.0
H411 H 0.29199 0.01878 0.48829 0.0
H412 H 0.39637 0.1537 0.46684 0.0
H413 H 0.45428 0.1517 0.48476 0.0
H414 H 0.34546 0.10129 0.44194 0.0
H415 H 0.3112 0.1416 0.4966 0.0
H416 H 0.29534 0.13434 0.52808 0.0
H417 H 0.17197 1.00178 0.52338 0.0
H418 H 0.1874 0.00793 0.49186 0.0
C419 C 0.1591 0.09498 0.4115 0.0
C420 C 0.11807 0.05117 0.41288 0.0
C421 C 0.19673 0.10443 0.42161 0.0
C422 C 0.19381 0.07038 0.43337 0.0
C423 C 0.15269 0.02702 0.43492 0.0
C424 C 0.11547 0.01743 0.42476 0.0
C425 C 0.23327 0.07902 0.4441 0.0
C426 C 0.22558 0.07407 0.46209 0.0
C427 C 0.27746 0.09006 0.43679 0.0
C428 C 0.28748 0.09462 0.41789 0.0
C429 C 0.26054 0.05756 0.40742 0.0
C430 C 0.27006 0.06228 0.38958 0.0
C431 C 0.30669 0.10377 0.38209 0.0
C432 C 0.33397 0.14058 0.39243 0.0
C433 C 0.32454 0.13606 0.41027 0.0
C434 C 0.36 0.04725 0.49797 0.0
C435 C 0.40632 0.08447 0.4973 0.0
C436 C 0.32722 0.04821 0.48754 0.0
C437 C 0.33956 0.0867 0.47634 0.0
C438 C 0.38586 0.12373 0.47544 0.0
C439 C 0.41885 0.1227 0.48583 0.0
C440 C 0.30391 0.08781 0.4656 0.0
C441 C 0.31229 0.09463 0.44763 0.0
C442 C 0.26038 0.07883 0.47293 0.0
C443 C 0.25063 0.07512 0.49187 0.0
C444 C 0.28083 0.11077 0.50228 0.0
C445 C 0.2719 0.10687 0.52013 0.0
C446 C 0.23271 0.0676 0.52772 0.0
C447 C 0.20231 0.03217 0.51747 0.0
C448 C 0.21109 0.03588 0.49961 0.0
H449 H 0.22585 0.06471 0.54152 0.0
H450 H 0.31402 0.10735 0.36829 0.0
H451 H 0.17816 0.1573 0.72836 0.0
H452 H 0.24531 0.21102 0.74425 0.0
H453 H 0.15224 0.20982 0.78474 0.0
H454 H 0.08553 0.15895 0.76828 0.0
H455 H 0.21537 0.29133 0.78024 0.0
H456 H 0.22054 0.15013 0.78663 0.0
H457 H 0.22386 0.08256 0.77629 0.0
H458 H 0.35389 0.17351 0.74826 0.0
H459 H 0.35103 0.24157 0.75826 0.0
H460 H 0.41768 0.35012 0.84031 0.0
H461 H 0.35665 0.29486 0.82256 0.0
H462 H 0.37325 0.40795 0.78944 0.0
H463 H 0.43402 0.46344 0.80726 0.0
H464 H 0.34969 0.27028 0.79039 0.0
H465 H 0.26899 0.38416 0.77545 0.0
H466 H 0.26137 0.44694 0.78838 0.0
H467 H 0.27416 0.40075 0.83874 0.0
H468 H 0.2812 0.33736 0.82614 0.0
C469 C 0.17217 0.16829 0.74072 0.0
C470 C 0.12659 0.15388 0.74708 0.0
C471 C 0.21063 0.19888 0.74989 0.0
C472 C 0.20429 0.21435 0.76593 0.0
C473 C 0.15851 0.19892 0.7724 0.0
C474 C 0.12024 0.16955 0.76302 0.0
C475 C 0.24485 0.24775 0.77579 0.0
C476 C 0.24461 0.28646 0.78242 0.0
C477 C 0.2833 0.24182 0.77888 0.0
C478 C 0.28535 0.20091 0.77307 0.0
C479 C 0.24971 0.15568 0.7782 0.0
C480 C 0.25152 0.1173 0.77239 0.0
C481 C 0.28898 0.12372 0.76157 0.0
C482 C 0.32483 0.16855 0.7566 0.0
C483 C 0.32317 0.20704 0.76235 0.0
C484 C 0.40883 0.36326 0.82911 0.0
C485 C 0.43065 0.41135 0.82531 0.0
C486 C 0.37379 0.33154 0.81896 0.0
C487 C 0.35968 0.34708 0.80475 0.0
C488 C 0.3827 0.39499 0.80052 0.0
C489 C 0.41749 0.42676 0.81074 0.0
C490 C 0.31975 0.31335 0.79483 0.0
C491 C 0.32031 0.27488 0.78816 0.0
C492 C 0.2809 0.31869 0.79209 0.0
C493 C 0.27615 0.35637 0.79982 0.0
C494 C 0.27002 0.38734 0.78929 0.0
C495 C 0.26582 0.42302 0.79656 0.0
C496 C 0.26745 0.42793 0.81436 0.0
C497 C 0.27309 0.39703 0.82494 0.0
C498 C 0.27723 0.36125 0.81774 0.0
H499 H 0.26424 0.45561 0.81996 0.0
H500 H 0.29028 0.09397 0.75707 0.0
H501 H 0.95247 0.10943 0.6965 0.0
H502 H 0.89268 0.11053 0.67945 0.0
H503 H 0.87666 0.99228 0.65254 0.0
H504 H 0.93656 0.99119 0.66945 0.0
H505 H 0.88353 0.05894 0.63037 0.0
H506 H 0.79501 0.98075 0.68277 0.0
H507 H 0.77728 0.97064 0.71418 0.0
H508 H 0.76829 0.09429 0.71367 0.0
H509 H 0.78674 0.10557 0.68228 0.0
H510 H 0.67909 0.00511 0.58803 0.0
H511 H 0.7341 1.00111 0.60685 0.0
H512 H 0.74738 0.11833 0.63374 0.0
H513 H 0.69111 0.12163 0.6153 0.0
H514 H 0.74179 0.05264 0.65613 0.0
H515 H 0.83116 0.13142 0.60391 0.0
H516 H 0.84964 0.1422 0.57254 0.0
H517 H 0.85769 0.01804 0.5728 0.0
H518 H 0.83859 0.00615 0.60415 0.0
C519 C 0.93599 0.08348 0.68703 0.0
C520 C 0.94927 0.05023 0.68433 0.0
C521 C 0.9017 0.08405 0.67732 0.0
C522 C 0.87992 0.05132 0.66475 0.0
C523 C 0.89296 0.01791 0.66214 0.0
C524 C 0.9271 0.01723 0.67187 0.0
C525 C 0.84447 0.05258 0.65401 0.0
C526 C 0.85222 0.0569 0.63601 0.0
C527 C 0.80415 0.05112 0.66134 0.0
C528 C 0.79273 0.04425 0.68019 0.0
C529 C 0.78963 0.006 0.68938 0.0
C530 C 0.77939 1.00002 0.70717 0.0
C531 C 0.77177 0.03186 0.71592 0.0
C532 C 0.77426 0.06969 0.70688 0.0
C533 C 0.78458 0.07587 0.68908 0.0
C534 C 0.69321 0.02973 0.59807 0.0
C535 C 0.68066 0.0638 0.60008 0.0
C536 C 0.72507 0.02767 0.60874 0.0
C537 C 0.74542 0.0598 0.6216 0.0
C538 C 0.73232 0.09327 0.62388 0.0
C539 C 0.70044 0.09537 0.6132 0.0
C540 C 0.78079 0.0588 0.63249 0.0
C541 C 0.77309 0.05463 0.6505 0.0
C542 C 0.82124 0.06047 0.62518 0.0
C543 C 0.83299 0.06765 0.60635 0.0
C544 C 0.83652 0.10622 0.59725 0.0
C545 C 0.84716 0.11256 0.57948 0.0
C546 C 0.85471 0.08075 0.57068 0.0
C547 C 0.85177 0.04261 0.57963 0.0
C548 C 0.84107 0.03607 0.59741 0.0
H549 H 0.86295 0.08572 0.55692 0.0
H550 H 0.76384 0.02717 0.7297 0.0
H551 H 0.90991 0.00467 0.00549 0.0
H552 H 0.85626 0.93878 0.98938 0.0
H553 H 0.89898 0.85237 0.0154 0.0
H554 H 0.95412 0.91895 0.03133 0.0
H555 H 0.88926 0.83328 0.98247 0.0
H556 H 0.79364 0.8467 0.02663 0.0
H557 H 0.76255 0.88643 0.04426 0.0
H558 H 0.71247 0.91923 0.99914 0.0
H559 H 0.74382 0.88022 0.98119 0.0
H560 H 0.69682 0.626 0.95274 0.0
H561 H 0.75105 0.68558 0.97128 0.0
H562 H 0.72382 0.78593 0.94699 0.0
H563 H 0.66989 0.72681 0.92838 0.0
H564 H 0.72426 0.79306 0.98118 0.0
H565 H 0.82407 0.78279 0.93698 0.0
H566 H 0.85492 0.74243 0.91959 0.0
H567 H 0.89614 0.70218 0.96543 0.0
H568 H 0.86494 0.74181 0.98311 0.0
C569 C 0.90804 0.97172 0.00784 0.0
C570 C 0.93619 0.96716 0.01986 0.0
C571 C 0.87706 0.93388 0.99864 0.0
C572 C 0.87264 0.89016 1.00142 0.0
C573 C 0.90147 0.88563 0.01309 0.0
C574 C 0.93298 0.92375 0.02221 0.0
C575 C 0.8379 0.84951 0.99207 0.0
C576 C 0.85301 0.82402 0.98244 0.0
C577 C 0.79061 0.83761 0.99177 0.0
C578 C 0.7714 0.86082 1.00255 0.0
C579 C 0.77626 0.86263 0.02045 0.0
C580 C 0.75855 0.88499 0.0305 0.0
C581 C 0.73563 0.90542 0.02282 0.0
C582 C 0.73026 0.90341 0.00507 0.0
C583 C 0.74794 0.88113 0.99495 0.0
C584 C 0.70255 0.66081 0.95126 0.0
C585 C 0.6789 0.6715 0.93901 0.0
C586 C 0.73359 0.69487 0.9619 0.0
C587 C 0.74198 0.74047 0.96044 0.0
C588 C 0.7179 0.75102 0.94842 0.0
C589 C 0.68685 0.71704 0.93781 0.0
C590 C 0.77579 0.77741 0.97136 0.0
C591 C 0.76045 0.80214 0.98132 0.0
C592 C 0.82273 0.78841 0.97201 0.0
C593 C 0.84173 0.76484 0.96138 0.0
C594 C 0.8394 0.76504 0.94336 0.0
C595 C 0.857 0.74235 0.93345 0.0
C596 C 0.87736 0.71964 0.9414 0.0
C597 C 0.88029 0.71972 0.95928 0.0
C598 C 0.86269 0.74231 0.96925 0.0
H599 H 0.89096 0.70209 0.93371 0.0
H600 H 0.72197 0.92273 0.03062 0.0
H601 H 0.98103 0.92998 0.3618 0.0
H602 H 0.98546 0.87134 0.34486 0.0
H603 H 0.115 0.97753 0.31976 0.0
H604 H 0.11048 0.03639 0.33652 0.0
H605 H 0.05751 0.92149 0.29669 0.0
H606 H 0.11268 0.90116 0.35026 0.0
H607 H 0.11004 0.88841 0.38173 0.0
H608 H 0.98398 0.75686 0.37926 0.0
H609 H 0.98548 0.76914 0.34778 0.0
H610 H 0.11808 0.77087 0.25541 0.0
H611 H 0.11847 0.82879 0.27415 0.0
H612 H 0.98862 0.72405 0.29949 0.0
H613 H 0.98876 0.66552 0.28118 0.0
H614 H 0.04753 0.77967 0.3226 0.0
H615 H 0.99154 0.80095 0.26916 0.0
H616 H 0.99398 0.81386 0.2377 0.0
H617 H 0.12171 0.94398 0.24002 0.0
H618 H 0.12037 0.93153 0.27148 0.0
C619 C 0.01063 0.9408 0.35276 0.0
C620 C 0.0454 0.98785 0.35051 0.0
C621 C 0.01321 0.9072 0.34312 0.0
C622 C 0.05075 0.91991 0.33109 0.0
C623 C 0.08569 0.96685 0.32894 0.0
C624 C 0.08314 1.00045 0.33858 0.0
C625 C 0.05287 0.88451 0.32039 0.0
C626 C 0.05605 0.89084 0.30238 0.0
C627 C 0.04983 0.84389 0.32776 0.0
C628 C 0.04896 0.83628 0.34668 0.0
C629 C 0.08419 0.86967 0.35644 0.0
C630 C 0.08294 0.8625 0.37428 0.0
C631 C 0.0468 0.8219 0.38249 0.0
C632 C 0.01191 0.78832 0.37288 0.0
C633 C 0.01297 0.79535 0.35504 0.0
C634 C 0.08986 0.75994 0.26511 0.0
C635 C 0.05329 0.71344 0.26671 0.0
C636 C 0.08991 0.79326 0.27571 0.0
C637 C 0.05325 0.78097 0.2881 0.0
C638 C 0.01719 0.73444 0.28999 0.0
C639 C 0.01711 0.70108 0.27939 0.0
C640 C 0.05221 0.81671 0.29891 0.0
C641 C 0.04914 0.8104 0.31694 0.0
C642 C 0.05535 0.85739 0.29156 0.0
C643 C 0.05609 0.86508 0.27265 0.0
C644 C 0.02033 0.83215 0.26295 0.0
C645 C 0.02148 0.83941 0.24512 0.0
C646 C 0.05804 0.87966 0.23686 0.0
C647 C 0.09345 0.91279 0.24643 0.0
C648 C 0.0925 0.90567 0.26426 0.0
H649 H 0.05887 0.88522 0.22306 0.0
H650 H 0.04589 0.81641 0.3963 0.0
H651 H 0.14804 0.00332 0.70061 0.0
H652 H 0.21014 0.00333 0.68249 0.0
H653 H 0.21086 0.10527 0.6474 0.0
H654 H 0.14957 0.10591 0.66543 0.0
H655 H 0.20697 0.02874 0.63113 0.0
H656 H 0.29491 0.13873 0.67382 0.0
H657 H 0.31496 0.16239 0.70357 0.0
H658 H 0.34899 0.05573 0.71144 0.0
H659 H 0.32841 0.03095 0.68181 0.0
H660 H 0.40839 0.10315 0.57697 0.0
H661 H 0.34852 0.09919 0.59738 0.0
H662 H 0.37934 0.02099 0.63403 0.0
H663 H 0.44096 0.02714 0.61384 0.0
H664 H 0.36491 0.07892 0.65066 0.0
H665 H 0.28253 0.9706 0.60832 0.0
H666 H 0.25929 0.94198 0.57932 0.0
H667 H 0.2098 0.03687 0.57164 0.0
H668 H 0.23405 0.06708 0.60035 0.0
C669 C 0.16163 0.02588 0.68907 0.0
C670 C 0.14391 0.05465 0.68447 0.0
C671 C 0.19713 0.0259 0.67876 0.0
C672 C 0.21515 0.05436 0.6636 0.0
C673 C 0.19744 0.08301 0.65902 0.0
C674 C 0.1625 0.08344 0.6694 0.0
C675 C 0.25194 0.05404 0.65225 0.0
C676 C 0.24169 0.04014 0.63531 0.0
C677 C 0.29664 0.06731 0.65794 0.0
C678 C 0.30962 0.08265 0.67566 0.0
C679 C 0.3063 0.12008 0.68194 0.0
C680 C 0.31782 0.13373 0.69877 0.0
C681 C 0.33309 0.11048 0.7094 0.0
C682 C 0.33706 0.07365 0.7032 0.0
C683 C 0.32551 0.0598 0.68639 0.0
C684 C 0.40238 0.08532 0.58943 0.0
C685 C 0.42885 0.06509 0.59382 0.0
C686 C 0.36796 0.08272 0.60105 0.0
C687 C 0.35851 0.05889 0.61718 0.0
C688 C 0.38564 0.03936 0.62168 0.0
C689 C 0.42061 0.04259 0.61013 0.0
C690 C 0.32037 0.05442 0.62928 0.0
C691 C 0.33022 0.06725 0.64641 0.0
C692 C 0.27493 0.03943 0.62384 0.0
C693 C 0.26059 0.02147 0.60646 0.0
C694 C 0.26719 0.98576 0.60038 0.0
C695 C 0.25386 0.96927 0.58397 0.0
C696 C 0.23334 0.98779 0.57358 0.0
C697 C 0.22602 0.02278 0.57962 0.0
C698 C 0.23958 0.03963 0.59596 0.0
H699 H 0.22294 0.97492 0.5609 0.0
H700 H 0.34196 0.12106 0.72243 0.0
H701 H 0.14384 0.10868 0.00721 0.0
H702 H 0.20912 0.1597 0.98687 0.0
H703 H 0.21157 0.27925 0.008 0.0
H704 H 0.14484 0.22825 0.02749 0.0
H705 H 0.21933 0.29242 0.97622 0.0
H706 H 0.29785 0.24448 0.0146 0.0
H707 H 0.31224 0.18948 0.03101 0.0
H708 H 0.3278 0.13273 0.9839 0.0
H709 H 0.31291 0.18704 0.9672 0.0
H710 H 0.44467 0.46605 0.94167 0.0
H711 H 0.38343 0.40922 0.96226 0.0
H712 H 0.35267 0.30072 0.92704 0.0
H713 H 0.4129 0.3579 0.90616 0.0
H714 H 0.3602 0.28042 0.96467 0.0
H715 H 0.28344 0.33472 0.92699 0.0
H716 H 0.27562 0.39619 0.91222 0.0
H717 H 0.26289 0.44757 0.96105 0.0
H718 H 0.27157 0.38691 0.97611 0.0
C719 C 0.15878 0.14589 0.00761 0.0
C720 C 0.1392 0.16447 0.01892 0.0
C721 C 0.19629 0.17517 0.99601 0.0
C722 C 0.21593 0.22371 0.99587 0.0
C723 C 0.19712 0.2421 0.00763 0.0
C724 C 0.15903 0.21289 0.01887 0.0
C725 C 0.25447 0.25548 0.98308 0.0
C726 C 0.25028 0.2899 0.97396 0.0
C727 C 0.29485 0.25219 0.97967 0.0
C728 C 0.30376 0.21948 0.98967 0.0
C729 C 0.30398 0.22003 0.00775 0.0
C730 C 0.31229 0.18903 0.0171 0.0
C731 C 0.32079 0.15754 0.00851 0.0
C732 C 0.32112 0.15708 0.99054 0.0
C733 C 0.31279 0.18799 0.98112 0.0
C734 C 0.42479 0.43004 0.93837 0.0
C735 C 0.43332 0.41626 0.92235 0.0
C736 C 0.39003 0.39765 0.95012 0.0
C737 C 0.36361 0.35076 0.94618 0.0
C738 C 0.37287 0.33667 0.93037 0.0
C739 C 0.4071 0.36926 0.91846 0.0
C740 C 0.32483 0.31707 0.95825 0.0
C741 C 0.32902 0.28248 0.96709 0.0
C742 C 0.28491 0.32074 0.96171 0.0
C743 C 0.27859 0.35654 0.95267 0.0
C744 C 0.27934 0.35934 0.93458 0.0
C745 C 0.27471 0.39402 0.92615 0.0
C746 C 0.26887 0.42584 0.93568 0.0
C747 C 0.26748 0.42294 0.95367 0.0
C748 C 0.27222 0.3884 0.96216 0.0
H749 H 0.26531 0.45267 0.92914 0.0
H750 H 0.32722 0.13357 0.01577 0.0
H751 H 0.08668 0.23105 0.36648 0.0
H752 H 0.0906 0.29452 0.34859 0.0
H753 H 0.99522 0.19515 0.3143 0.0
H754 H 0.99082 0.13185 0.33209 0.0
H755 H 0.07371 0.26929 0.2971 0.0
H756 H 0.95709 0.24398 0.34182 0.0
H757 H 0.92832 0.23786 0.37202 0.0
H758 H 0.03551 0.37856 0.3789 0.0
H759 H 0.06538 0.38529 0.3488 0.0
H760 H 0.0121 0.4019 0.24507 0.0
H761 H 0.0104 0.34382 0.26527 0.0
H762 H 0.08572 0.45058 0.30097 0.0
H763 H 0.08518 0.50828 0.28102 0.0
H764 H 0.02302 0.3765 0.3184 0.0
H765 H 0.13941 0.40487 0.27453 0.0
H766 H 0.1724 0.41313 0.24486 0.0
H767 H 0.07264 0.27039 0.23699 0.0
H768 H 0.03857 0.26144 0.26654 0.0
C769 C 0.06641 0.22277 0.35517 0.0
C770 C 0.03839 0.17639 0.35073 0.0
C771 C 0.06861 0.25905 0.34498 0.0
C772 C 0.04311 0.24956 0.33011 0.0
C773 C 0.01524 0.20331 0.32568 0.0
C774 C 0.01264 0.16713 0.33593 0.0
C775 C 0.04569 0.28759 0.31894 0.0
C776 C 0.0622 0.29247 0.3017 0.0
C777 C 0.03216 0.3188 0.3251 0.0
C778 C 0.01378 0.31497 0.34311 0.0
C779 C 0.97475 0.2735 0.34981 0.0
C780 C 0.9582 0.26994 0.3669 0.0
C781 C 0.98016 0.30775 0.37739 0.0
C782 C 0.01859 0.34927 0.37077 0.0
C783 C 0.03532 0.35299 0.3537 0.0
C784 C 0.02804 0.41277 0.25728 0.0
C785 C 0.04918 0.45951 0.26146 0.0
C786 C 0.02741 0.3797 0.26878 0.0
C787 C 0.04887 0.39281 0.28456 0.0
C788 C 0.06915 0.43949 0.28888 0.0
C789 C 0.06913 0.47248 0.27746 0.0
C790 C 0.05039 0.35786 0.29639 0.0
C791 C 0.0348 0.35358 0.31377 0.0
C792 C 0.06545 0.32753 0.29044 0.0
C793 C 0.0862 0.3326 0.27271 0.0
C794 C 0.12432 0.37531 0.26644 0.0
C795 C 0.14323 0.38011 0.24965 0.0
C796 C 0.12456 0.34233 0.23904 0.0
C797 C 0.08703 0.29963 0.24522 0.0
C798 C 0.06794 0.29466 0.262 0.0
H799 H 0.13923 0.34612 0.22603 0.0
H800 H 0.96732 0.30492 0.39062 0.0
loop_
_geom_bond_atom_site_label_1
_geom_bond_atom_site_label_2
_geom_bond_distance
_geom_bond_site_symmetry_2
_ccdc_geom_bond_type
Co0 O1 2.216 1_545 S
Co0 O2 2.091 . S
Co0 O4 2.004 . S
Co0 O10 2.021 . S
Co0 O12 2.137 . S
Co0 O13 2.244 . S
O1 Co0 2.216 1_565 S
O1 C8 1.247 . S
O2 Co0 2.091 . S
O2 C8 1.261 1_545 S
C3 O12 1.247 . S
C3 O13 1.272 . S
O4 Co0 2.004 . S
O4 C9 1.259 . S
Co5 O6 2.061 . S
Co5 O11 2.052 1_455 S
Co5 O13 2.135 . S
O6 Co5 2.061 . S
O6 C9 1.235 . S
C7 O10 1.238 1_655 S
C7 O11 1.241 . S
C8 O1 1.247 . S
C8 O2 1.261 1_565 S
C9 O4 1.259 . S
C9 O6 1.235 . S
O10 Co0 2.021 . S
O10 C7 1.238 1_455 S
O11 Co5 2.052 1_655 S
O11 C7 1.241 . S
O12 Co0 2.137 . S
O12 C3 1.247 . S
O13 Co0 2.244 . S
O13 C3 1.272 . S
O13 Co5 2.135 . S
Co14 O15 2.216 . S
Co14 O16 2.091 . S
Co14 O18 2.004 . S
Co14 O24 2.021 . S
Co14 O26 2.137 . S
Co14 O27 2.244 . S
O15 Co14 2.216 . S
O15 C22 1.247 . S
O16 Co14 2.091 . S
O16 C22 1.261 . S
C17 O26 1.247 . S
C17 O27 1.272 . S
O18 Co14 2.004 . S
O18 C23 1.259 . S
Co19 O20 2.061 1_665 S
Co19 O25 2.052 1_565 S
Co19 O27 2.135 1_665 S
O20 Co19 2.061 1_445 S
O20 C23 1.235 . S
C21 O24 1.238 1_655 S
C21 O25 1.241 . S
C22 O15 1.247 . S
C22 O16 1.261 . S
C23 O18 1.259 . S
C23 O20 1.235 . S
O24 Co14 2.021 . S
O24 C21 1.238 1_455 S
O25 Co19 2.052 1_545 S
O25 C21 1.241 . S
O26 Co14 2.137 . S
O26 C17 1.247 . S
O27 Co14 2.244 . S
O27 C17 1.272 . S
O27 Co19 2.135 1_445 S
Co28 O29 2.216 . S
Co28 O30 2.091 . S
Co28 O32 2.004 1_545 S
Co28 O38 2.021 . S
Co28 O40 2.137 . S
Co28 O41 2.244 . S
O29 Co28 2.216 . S
O29 C36 1.247 . S
O30 Co28 2.091 . S
O30 C36 1.261 . S
C31 O40 1.247 1_655 S
C31 O41 1.272 1_655 S
O32 Co28 2.004 1_565 S
O32 C37 1.259 1_455 S
Co33 O34 2.061 . S
Co33 O39 2.052 1_655 S
Co33 O41 2.135 1_655 S
O34 Co33 2.061 . S
O34 C37 1.235 1_545 S
C35 O38 1.238 . S
C35 O39 1.241 . S
C36 O29 1.247 . S
C36 O30 1.261 . S
C37 O32 1.259 1_655 S
C37 O34 1.235 1_565 S
O38 Co28 2.021 . S
O38 C35 1.238 . S
O39 Co33 2.052 1_455 S
O39 C35 1.241 . S
O40 Co28 2.137 . S
O40 C31 1.247 1_455 S
O41 Co28 2.244 . S
O41 C31 1.272 1_455 S
O41 Co33 2.135 1_455 S
C42 C43 1.443 . S
C42 N46 1.376 . S
C42 C80 1.389 . S
C43 C42 1.443 . S
C43 C44 1.340 . S
C43 H83 0.951 . S
C44 C43 1.340 . S
C44 C45 1.439 . S
C44 H84 0.950 . S
C45 C44 1.439 . S
C45 N46 1.374 . S
C45 C79 1.395 . S
N46 C42 1.376 . S
N46 C45 1.374 . S
N46 Co47 2.008 . S
Co47 N46 2.008 . S
Co47 N48 1.995 . S
Co47 N53 2.008 1_455 S
Co47 N58 1.995 1_455 S
Co47 N63 2.282 . S
Co47 N69 2.282 . S
N48 Co47 1.995 . S
N48 C49 1.376 . S
N48 C52 1.383 . S
C49 N48 1.376 . S
C49 C50 1.446 . S
C49 C79 1.391 . S
C50 C49 1.446 . S
C50 C51 1.339 . S
C50 H85 0.949 . S
C51 C50 1.339 . S
C51 C52 1.439 . S
C51 H86 0.950 . S
C52 N48 1.383 . S
C52 C51 1.439 . S
C52 C81 1.392 . S
N53 Co47 2.008 1_655 S
N53 C54 1.376 . S
N53 C57 1.374 . S
C54 N53 1.376 . S
C54 C55 1.443 . S
C54 C81 1.389 1_655 S
C55 C54 1.443 . S
C55 C56 1.340 . S
C55 H87 0.951 . S
C56 C55 1.340 . S
C56 C57 1.439 . S
C56 H88 0.950 . S
C57 N53 1.374 . S
C57 C56 1.439 . S
C57 C82 1.395 . S
N58 Co47 1.995 1_655 S
N58 C59 1.376 . S
N58 C62 1.383 . S
C59 N58 1.376 . S
C59 C60 1.446 . S
C59 C82 1.391 . S
C60 C59 1.446 . S
C60 C61 1.339 . S
C60 H89 0.949 . S
C61 C60 1.339 . S
C61 C62 1.439 . S
C61 H90 0.950 . S
C62 N58 1.383 . S
C62 C61 1.439 . S
C62 C80 1.392 1_655 S
N63 Co47 2.282 . S
N63 C66 1.332 1_455 S
N63 C68 1.332 . S
C64 C65 1.386 1_455 S
C64 C67 1.388 . S
C65 C64 1.386 1_655 S
C65 C66 1.382 . S
C65 H91 0.950 . S
C66 N63 1.332 1_655 S
C66 C65 1.382 . S
C66 H77 0.952 . S
C67 C64 1.388 . S
C67 C68 1.382 . S
C67 H92 0.950 . S
C68 N63 1.332 . S
C68 C67 1.382 . S
C68 H78 0.948 . S
N69 Co47 2.282 . S
N69 C73 1.332 . S
N69 C74 1.332 1_455 S
C70 C71 1.388 1_655 S
C70 C74 1.382 . S
C70 H93 0.950 . S
C71 C70 1.388 1_455 S
C71 C72 1.386 . S
C72 C71 1.386 . S
C72 C73 1.382 . S
C72 H94 0.950 . S
C73 N69 1.332 . S
C73 C72 1.382 . S
C73 H75 0.952 . S
C74 N69 1.332 1_655 S
C74 C70 1.382 . S
C74 H76 0.948 . S
H75 C73 0.952 . S
H76 C74 0.948 . S
H77 C66 0.952 . S
H78 C68 0.948 . S
C79 C45 1.395 . S
C79 C49 1.391 . S
C80 C42 1.389 . S
C80 C62 1.392 1_455 S
C81 C52 1.392 . S
C81 C54 1.389 1_455 S
C82 C57 1.395 . S
C82 C59 1.391 . S
H83 C43 0.951 . S
H84 C44 0.950 . S
H85 C50 0.949 . S
H86 C51 0.950 . S
H87 C55 0.951 . S
H88 C56 0.950 . S
H89 C60 0.949 . S
H90 C61 0.950 . S
H91 C65 0.950 . S
H92 C67 0.950 . S
H93 C70 0.950 . S
H94 C72 0.950 . S
C95 C96 1.443 1_545 S
C95 N99 1.376 . S
C95 C133 1.389 . S
C96 C95 1.443 1_565 S
C96 C97 1.340 . S
C96 H136 0.951 . S
C97 C96 1.340 . S
C97 C98 1.439 . S
C97 H137 0.950 . S
C98 C97 1.439 . S
C98 N99 1.374 1_565 S
C98 C132 1.395 . S
N99 C95 1.376 . S
N99 C98 1.374 1_545 S
N99 Co100 2.008 . S
Co100 N99 2.008 . S
Co100 N101 1.995 . S
Co100 N106 2.008 . S
Co100 N111 1.995 . S
Co100 N116 2.282 . S
Co100 N122 2.282 . S
N101 Co100 1.995 . S
N101 C102 1.376 1_545 S
N101 C105 1.383 . S
C102 N101 1.376 1_565 S
C102 C103 1.446 . S
C102 C132 1.391 . S
C103 C102 1.446 . S
C103 C104 1.339 . S
C103 H138 0.949 . S
C104 C103 1.339 . S
C104 C105 1.439 1_565 S
C104 H139 0.950 . S
C105 N101 1.383 . S
C105 C104 1.439 1_545 S
C105 C134 1.392 . S
N106 Co100 2.008 . S
N106 C107 1.376 . S
N106 C110 1.374 . S
C107 N106 1.376 . S
C107 C108 1.443 . S
C107 C134 1.389 . S
C108 C107 1.443 . S
C108 C109 1.340 . S
C108 H140 0.951 . S
C109 C108 1.340 . S
C109 C110 1.439 . S
C109 H141 0.950 . S
C110 N106 1.374 . S
C110 C109 1.439 . S
C110 C135 1.395 . S
N111 Co100 1.995 . S
N111 C112 1.376 . S
N111 C115 1.383 . S
C112 N111 1.376 . S
C112 C113 1.446 . S
C112 C135 1.391 . S
C113 C112 1.446 . S
C113 C114 1.339 . S
C113 H142 0.949 . S
C114 C113 1.339 . S
C114 C115 1.439 . S
C114 H143 0.950 . S
C115 N111 1.383 . S
C115 C114 1.439 . S
C115 C133 1.392 . S
N116 Co100 2.282 . S
N116 C119 1.332 . S
N116 C121 1.332 . S
C117 C118 1.386 . S
C117 C120 1.388 . S
C118 C117 1.386 . S
C118 C119 1.382 . S
C118 H144 0.950 . S
C119 N116 1.332 . S
C119 C118 1.382 . S
C119 H130 0.952 . S
C120 C117 1.388 . S
C120 C121 1.382 . S
C120 H145 0.950 1_545 S
C121 N116 1.332 . S
C121 C120 1.382 . S
C121 H131 0.948 1_545 S
N122 Co100 2.282 . S
N122 C126 1.332 . S
N122 C127 1.332 . S
C123 C124 1.388 . S
C123 C127 1.382 . S
C123 H146 0.950 . S
C124 C123 1.388 . S
C124 C125 1.386 . S
C125 C124 1.386 . S
C125 C126 1.382 . S
C125 H147 0.950 . S
C126 N122 1.332 . S
C126 C125 1.382 . S
C126 H128 0.952 . S
C127 N122 1.332 . S
C127 C123 1.382 . S
C127 H129 0.948 . S
H128 C126 0.952 . S
H129 C127 0.948 . S
H130 C119 0.952 . S
H131 C121 0.948 1_565 S
C132 C98 1.395 . S
C132 C102 1.391 . S
C133 C95 1.389 . S
C133 C115 1.392 . S
C134 C105 1.392 . S
C134 C107 1.389 . S
C135 C110 1.395 . S
C135 C112 1.391 . S
H136 C96 0.951 . S
H137 C97 0.950 . S
H138 C103 0.949 . S
H139 C104 0.950 . S
H140 C108 0.951 . S
H141 C109 0.950 . S
H142 C113 0.949 . S
H143 C114 0.950 . S
H144 C118 0.950 . S
H145 C120 0.950 1_565 S
H146 C123 0.950 . S
H147 C125 0.950 . S
C148 C149 1.443 . S
C148 N152 1.376 . S
C148 C186 1.389 . S
C149 C148 1.443 . S
C149 C150 1.340 . S
C149 H189 0.951 . S
C150 C149 1.340 . S
C150 C151 1.439 . S
C150 H190 0.950 . S
C151 C150 1.439 . S
C151 N152 1.374 . S
C151 C185 1.395 . S
N152 C148 1.376 . S
N152 C151 1.374 . S
N152 Co153 2.008 . S
Co153 N152 2.008 . S
Co153 N154 1.995 . S
Co153 N159 2.008 . S
Co153 N164 1.995 . S
Co153 N169 2.282 . S
Co153 N175 2.282 . S
N154 Co153 1.995 . S
N154 C155 1.376 . S
N154 C158 1.383 . S
C155 N154 1.376 . S
C155 C156 1.446 . S
C155 C185 1.391 . S
C156 C155 1.446 . S
C156 C157 1.339 . S
C156 H191 0.949 . S
C157 C156 1.339 . S
C157 C158 1.439 . S
C157 H192 0.950 . S
C158 N154 1.383 . S
C158 C157 1.439 . S
C158 C187 1.392 . S
N159 Co153 2.008 . S
N159 C160 1.376 . S
N159 C163 1.374 . S
C160 N159 1.376 . S
C160 C161 1.443 . S
C160 C187 1.389 . S
C161 C160 1.443 . S
C161 C162 1.340 . S
C161 H193 0.951 . S
C162 C161 1.340 . S
C162 C163 1.439 . S
C162 H194 0.950 . S
C163 N159 1.374 . S
C163 C162 1.439 . S
C163 C188 1.395 . S
N164 Co153 1.995 . S
N164 C165 1.376 . S
N164 C168 1.383 . S
C165 N164 1.376 . S
C165 C166 1.446 . S
C165 C188 1.391 . S
C166 C165 1.446 . S
C166 C167 1.339 . S
C166 H195 0.949 . S
C167 C166 1.339 . S
C167 C168 1.439 . S
C167 H196 0.950 . S
C168 N164 1.383 . S
C168 C167 1.439 . S
C168 C186 1.392 . S
N169 Co153 2.282 . S
N169 C172 1.332 . S
N169 C174 1.332 . S
C170 C171 1.386 . S
C170 C173 1.388 . S
C171 C170 1.386 . S
C171 C172 1.382 . S
C171 H197 0.950 . S
C172 N169 1.332 . S
C172 C171 1.382 . S
C172 H183 0.952 . S
C173 C170 1.388 . S
C173 C174 1.382 . S
C173 H198 0.950 . S
C174 N169 1.332 . S
C174 C173 1.382 . S
C174 H184 0.948 . S
N175 Co153 2.282 . S
N175 C179 1.332 . S
N175 C180 1.332 . S
C176 C177 1.388 . S
C176 C180 1.382 . S
C176 H199 0.950 . S
C177 C176 1.388 . S
C177 C178 1.386 . S
C178 C177 1.386 . S
C178 C179 1.382 . S
C178 H200 0.950 . S
C179 N175 1.332 . S
C179 C178 1.382 . S
C179 H181 0.952 . S
C180 N175 1.332 . S
C180 C176 1.382 . S
C180 H182 0.948 . S
H181 C179 0.952 . S
H182 C180 0.948 . S
H183 C172 0.952 . S
H184 C174 0.948 . S
C185 C151 1.395 . S
C185 C155 1.391 . S
C186 C148 1.389 . S
C186 C168 1.392 . S
C187 C158 1.392 . S
C187 C160 1.389 . S
C188 C163 1.395 . S
C188 C165 1.391 . S
H189 C149 0.951 . S
H190 C150 0.950 . S
H191 C156 0.949 . S
H192 C157 0.950 . S
H193 C161 0.951 . S
H194 C162 0.950 . S
H195 C166 0.949 . S
H196 C167 0.950 . S
H197 C171 0.950 . S
H198 C173 0.950 . S
H199 C176 0.950 . S
H200 C178 0.950 . S
H201 C219 0.951 . S
H202 C221 0.951 . S
H203 C223 0.950 . S
H204 C224 0.950 . S
H205 C226 0.950 . S
H206 C229 0.950 . S
H207 C230 0.950 . S
H208 C232 0.950 . S
H209 C233 0.950 . S
H210 C234 0.951 . S
H211 C236 0.951 . S
H212 C238 0.950 . S
H213 C239 0.950 . S
H214 C241 0.950 1_655 S
H215 C244 0.950 . S
H216 C245 0.950 . S
H217 C247 0.950 . S
H218 C248 0.950 . S
C219 H201 0.951 . S
C219 C220 1.366 . S
C219 C221 1.388 . S
C220 C219 1.366 . S
C220 C224 1.385 . S
C221 H202 0.951 . S
C221 C219 1.388 . S
C221 C222 1.366 . S
C222 C221 1.366 . S
C222 C223 1.414 . S
C222 C225 1.499 . S
C223 H203 0.950 . S
C223 C222 1.414 . S
C223 C224 1.374 . S
C224 H204 0.950 . S
C224 C220 1.385 . S
C224 C223 1.374 . S
C225 C222 1.499 . S
C225 C226 1.373 . S
C225 C227 1.389 . S
C226 H205 0.950 . S
C226 C225 1.373 . S
C226 C242 1.377 . S
C227 C225 1.389 . S
C227 C228 1.524 1_455 S
C227 C241 1.377 . S
C228 C227 1.524 1_655 S
C228 C229 1.397 . S
C228 C233 1.363 . S
C229 H206 0.950 . S
C229 C228 1.397 . S
C229 C230 1.334 . S
C230 H207 0.950 . S
C230 C229 1.334 . S
C230 C231 1.287 . S
C231 C230 1.287 . S
C231 C232 1.524 . S
C231 H250 0.913 . S
C232 H208 0.950 . S
C232 C231 1.524 . S
C232 C233 1.415 . S
C233 H209 0.950 . S
C233 C228 1.363 . S
C233 C232 1.415 . S
C234 H210 0.951 . S
C234 C235 1.366 . S
C234 C236 1.388 . S
C235 C234 1.366 . S
C235 C239 1.385 . S
C236 H211 0.951 . S
C236 C234 1.388 . S
C236 C237 1.366 . S
C237 C236 1.366 . S
C237 C238 1.414 . S
C237 C240 1.499 . S
C238 H212 0.950 . S
C238 C237 1.414 . S
C238 C239 1.374 . S
C239 H213 0.950 . S
C239 C235 1.385 . S
C239 C238 1.374 . S
C240 C237 1.499 . S
C240 C241 1.373 . S
C240 C242 1.389 . S
C241 H214 0.950 1_455 S
C241 C227 1.377 . S
C241 C240 1.373 . S
C242 C226 1.377 . S
C242 C240 1.389 . S
C242 C243 1.524 . S
C243 C242 1.524 . S
C243 C244 1.397 . S
C243 C248 1.363 . S
C244 H215 0.950 . S
C244 C243 1.397 . S
C244 C245 1.334 . S
C245 H216 0.950 . S
C245 C244 1.334 . S
C245 C246 1.287 . S
C246 C245 1.287 . S
C246 C247 1.524 . S
C246 H249 0.999 . S
C247 H217 0.950 . S
C247 C246 1.524 . S
C247 C248 1.415 . S
C248 H218 0.950 . S
C248 C243 1.363 . S
C248 C247 1.415 . S
H249 C246 0.999 . S
H250 C231 0.913 . S
H251 C269 0.951 . S
H252 C271 0.951 . S
H253 C273 0.950 . S
H254 C274 0.950 . S
H255 C276 0.950 . S
H256 C279 0.950 . S
H257 C280 0.950 . S
H258 C282 0.950 . S
H259 C283 0.950 . S
H260 C284 0.951 . S
H261 C286 0.951 . S
H262 C288 0.950 . S
H263 C289 0.950 . S
H264 C291 0.950 . S
H265 C294 0.950 . S
H266 C295 0.950 . S
H267 C297 0.950 . S
H268 C298 0.950 1_545 S
C269 H251 0.951 . S
C269 C270 1.366 . S
C269 C271 1.388 . S
C270 C269 1.366 . S
C270 C274 1.385 . S
C271 H252 0.951 . S
C271 C269 1.388 . S
C271 C272 1.366 . S
C272 C271 1.366 . S
C272 C273 1.414 . S
C272 C275 1.499 . S
C273 H253 0.950 . S
C273 C272 1.414 . S
C273 C274 1.374 . S
C274 H254 0.950 . S
C274 C270 1.385 . S
C274 C273 1.374 . S
C275 C272 1.499 . S
C275 C276 1.373 . S
C275 C277 1.389 . S
C276 H255 0.950 . S
C276 C275 1.373 . S
C276 C292 1.377 . S
C277 C275 1.389 . S
C277 C278 1.524 . S
C277 C291 1.377 . S
C278 C277 1.524 . S
C278 C279 1.397 . S
C278 C283 1.363 . S
C279 H256 0.950 . S
C279 C278 1.397 . S
C279 C280 1.334 . S
C280 H257 0.950 . S
C280 C279 1.334 . S
C280 C281 1.287 . S
C281 C280 1.287 . S
C281 C282 1.524 . S
C281 H300 0.913 . S
C282 H258 0.950 . S
C282 C281 1.524 . S
C282 C283 1.415 . S
C283 H259 0.950 . S
C283 C278 1.363 . S
C283 C282 1.415 . S
C284 H260 0.951 . S
C284 C285 1.366 . S
C284 C286 1.388 . S
C285 C284 1.366 . S
C285 C289 1.385 . S
C286 H261 0.951 . S
C286 C284 1.388 . S
C286 C287 1.366 . S
C287 C286 1.366 . S
C287 C288 1.414 . S
C287 C290 1.499 . S
C288 H262 0.950 . S
C288 C287 1.414 . S
C288 C289 1.374 . S
C289 H263 0.950 . S
C289 C285 1.385 . S
C289 C288 1.374 . S
C290 C287 1.499 . S
C290 C291 1.373 . S
C290 C292 1.389 . S
C291 H264 0.950 . S
C291 C277 1.377 . S
C291 C290 1.373 . S
C292 C276 1.377 . S
C292 C290 1.389 . S
C292 C293 1.524 . S
C293 C292 1.524 . S
C293 C294 1.397 1_545 S
C293 C298 1.363 1_545 S
C294 H265 0.950 . S
C294 C293 1.397 1_565 S
C294 C295 1.334 . S
C295 H266 0.950 . S
C295 C294 1.334 . S
C295 C296 1.287 . S
C296 C295 1.287 . S
C296 C297 1.524 . S
C296 H299 0.999 . S
C297 H267 0.950 . S
C297 C296 1.524 . S
C297 C298 1.415 . S
C298 H268 0.950 1_565 S
C298 C293 1.363 1_565 S
C298 C297 1.415 . S
H299 C296 0.999 . S
H300 C281 0.913 . S
H301 C319 0.951 . S
H302 C321 0.951 . S
H303 C323 0.950 . S
H304 C324 0.950 . S
H305 C326 0.950 . S
H306 C329 0.950 . S
H307 C330 0.950 . S
H308 C332 0.950 . S
H309 C333 0.950 . S
H310 C334 0.951 . S
H311 C336 0.951 . S
H312 C338 0.950 . S
H313 C339 0.950 . S
H314 C341 0.950 . S
H315 C344 0.950 . S
H316 C345 0.950 . S
H317 C347 0.950 . S
H318 C348 0.950 . S
C319 H301 0.951 . S
C319 C320 1.366 . S
C319 C321 1.388 . S
C320 C319 1.366 . S
C320 C324 1.385 . S
C321 H302 0.951 . S
C321 C319 1.388 . S
C321 C322 1.366 . S
C322 C321 1.366 . S
C322 C323 1.414 . S
C322 C325 1.499 . S
C323 H303 0.950 . S
C323 C322 1.414 . S
C323 C324 1.374 . S
C324 H304 0.950 . S
C324 C320 1.385 . S
C324 C323 1.374 . S
C325 C322 1.499 . S
C325 C326 1.373 . S
C325 C327 1.389 . S
C326 H305 0.950 . S
C326 C325 1.373 . S
C326 C342 1.377 . S
C327 C325 1.389 . S
C327 C328 1.524 . S
C327 C341 1.377 . S
C328 C327 1.524 . S
C328 C329 1.397 . S
C328 C333 1.363 . S
C329 H306 0.950 . S
C329 C328 1.397 . S
C329 C330 1.334 . S
C330 H307 0.950 . S
C330 C329 1.334 . S
C330 C331 1.287 . S
C331 C330 1.287 . S
C331 C332 1.524 . S
C331 H350 0.913 1_565 S
C332 H308 0.950 . S
C332 C331 1.524 . S
C332 C333 1.415 . S
C333 H309 0.950 . S
C333 C328 1.363 . S
C333 C332 1.415 . S
C334 H310 0.951 . S
C334 C335 1.366 . S
C334 C336 1.388 . S
C335 C334 1.366 . S
C335 C339 1.385 . S
C336 H311 0.951 . S
C336 C334 1.388 . S
C336 C337 1.366 . S
C337 C336 1.366 . S
C337 C338 1.414 . S
C337 C340 1.499 . S
C338 H312 0.950 . S
C338 C337 1.414 . S
C338 C339 1.374 . S
C339 H313 0.950 . S
C339 C335 1.385 . S
C339 C338 1.374 . S
C340 C337 1.499 . S
C340 C341 1.373 . S
C340 C342 1.389 . S
C341 H314 0.950 . S
C341 C327 1.377 . S
C341 C340 1.373 . S
C342 C326 1.377 . S
C342 C340 1.389 . S
C342 C343 1.524 . S
C343 C342 1.524 . S
C343 C344 1.397 . S
C343 C348 1.363 . S
C344 H315 0.950 . S
C344 C343 1.397 . S
C344 C345 1.334 . S
C345 H316 0.950 . S
C345 C344 1.334 . S
C345 C346 1.287 . S
C346 C345 1.287 . S
C346 C347 1.524 . S
C346 H349 0.999 . S
C347 H317 0.950 . S
C347 C346 1.524 . S
C347 C348 1.415 . S
C348 H318 0.950 . S
C348 C343 1.363 . S
C348 C347 1.415 . S
H349 C346 0.999 . S
H350 C331 0.913 1_545 S
H351 C369 0.951 . S
H352 C371 0.951 . S
H353 C373 0.950 . S
H354 C374 0.950 . S
H355 C376 0.950 1_655 S
H356 C379 0.950 . S
H357 C380 0.950 . S
H358 C382 0.950 . S
H359 C383 0.950 . S
H360 C384 0.951 . S
H361 C386 0.951 . S
H362 C388 0.950 . S
H363 C389 0.950 . S
H364 C391 0.950 . S
H365 C394 0.950 . S
H366 C395 0.950 . S
H367 C397 0.950 . S
H368 C398 0.950 . S
C369 H351 0.951 . S
C369 C370 1.366 . S
C369 C371 1.388 . S
C370 C369 1.366 . S
C370 C374 1.385 . S
C371 H352 0.951 . S
C371 C369 1.388 . S
C371 C372 1.366 . S
C372 C371 1.366 . S
C372 C373 1.414 . S
C372 C375 1.499 . S
C373 H353 0.950 . S
C373 C372 1.414 . S
C373 C374 1.374 . S
C374 H354 0.950 . S
C374 C370 1.385 . S
C374 C373 1.374 . S
C375 C372 1.499 . S
C375 C376 1.373 . S
C375 C377 1.389 . S
C376 H355 0.950 1_455 S
C376 C375 1.373 . S
C376 C392 1.377 . S
C377 C375 1.389 . S
C377 C378 1.524 . S
C377 C391 1.377 . S
C378 C377 1.524 . S
C378 C379 1.397 . S
C378 C383 1.363 . S
C379 H356 0.950 . S
C379 C378 1.397 . S
C379 C380 1.334 . S
C380 H357 0.950 . S
C380 C379 1.334 . S
C380 C381 1.287 . S
C381 C380 1.287 . S
C381 C382 1.524 . S
C381 H400 0.913 1_565 S
C382 H358 0.950 . S
C382 C381 1.524 . S
C382 C383 1.415 . S
C383 H359 0.950 . S
C383 C378 1.363 . S
C383 C382 1.415 . S
C384 H360 0.951 . S
C384 C385 1.366 . S
C384 C386 1.388 . S
C385 C384 1.366 . S
C385 C389 1.385 . S
C386 H361 0.951 . S
C386 C384 1.388 . S
C386 C387 1.366 . S
C387 C386 1.366 . S
C387 C388 1.414 . S
C387 C390 1.499 . S
C388 H362 0.950 . S
C388 C387 1.414 . S
C388 C389 1.374 . S
C389 H363 0.950 . S
C389 C385 1.385 . S
C389 C388 1.374 . S
C390 C387 1.499 . S
C390 C391 1.373 . S
C390 C392 1.389 . S
C391 H364 0.950 . S
C391 C377 1.377 . S
C391 C390 1.373 . S
C392 C376 1.377 . S
C392 C390 1.389 . S
C392 C393 1.524 1_455 S
C393 C392 1.524 1_655 S
C393 C394 1.397 . S
C393 C398 1.363 . S
C394 H365 0.950 . S
C394 C393 1.397 . S
C394 C395 1.334 . S
C395 H366 0.950 . S
C395 C394 1.334 . S
C395 C396 1.287 . S
C396 C395 1.287 . S
C396 C397 1.524 . S
C396 H399 0.999 . S
C397 H367 0.950 . S
C397 C396 1.524 . S
C397 C398 1.415 . S
C398 H368 0.950 . S
C398 C393 1.363 . S
C398 C397 1.415 . S
H399 C396 0.999 . S
H400 C381 0.913 1_545 S
H401 C419 0.951 . S
H402 C421 0.951 . S
H403 C423 0.950 . S
H404 C424 0.950 . S
H405 C426 0.950 . S
H406 C429 0.950 . S
H407 C430 0.950 . S
H408 C432 0.950 . S
H409 C433 0.950 . S
H410 C434 0.951 . S
H411 C436 0.951 . S
H412 C438 0.950 . S
H413 C439 0.950 . S
H414 C441 0.950 . S
H415 C444 0.950 . S
H416 C445 0.950 . S
H417 C447 0.950 . S
H418 C448 0.950 . S
C419 H401 0.951 . S
C419 C420 1.366 . S
C419 C421 1.388 . S
C420 C419 1.366 . S
C420 C424 1.385 . S
C421 H402 0.951 . S
C421 C419 1.388 . S
C421 C422 1.366 . S
C422 C421 1.366 . S
C422 C423 1.414 . S
C422 C425 1.499 . S
C423 H403 0.950 . S
C423 C422 1.414 . S
C423 C424 1.374 . S
C424 H404 0.950 . S
C424 C420 1.385 . S
C424 C423 1.374 . S
C425 C422 1.499 . S
C425 C426 1.373 . S
C425 C427 1.389 . S
C426 H405 0.950 . S
C426 C425 1.373 . S
C426 C442 1.377 . S
C427 C425 1.389 . S
C427 C428 1.524 . S
C427 C441 1.377 . S
C428 C427 1.524 . S
C428 C429 1.397 . S
C428 C433 1.363 . S
C429 H406 0.950 . S
C429 C428 1.397 . S
C429 C430 1.334 . S
C430 H407 0.950 . S
C430 C429 1.334 . S
C430 C431 1.287 . S
C431 C430 1.287 . S
C431 C432 1.524 . S
C431 H450 0.913 . S
C432 H408 0.950 . S
C432 C431 1.524 . S
C432 C433 1.415 . S
C433 H409 0.950 . S
C433 C428 1.363 . S
C433 C432 1.415 . S
C434 H410 0.951 . S
C434 C435 1.366 . S
C434 C436 1.388 . S
C435 C434 1.366 . S
C435 C439 1.385 . S
C436 H411 0.951 . S
C436 C434 1.388 . S
C436 C437 1.366 . S
C437 C436 1.366 . S
C437 C438 1.414 . S
C437 C440 1.499 . S
C438 H412 0.950 . S
C438 C437 1.414 . S
C438 C439 1.374 . S
C439 H413 0.950 . S
C439 C435 1.385 . S
C439 C438 1.374 . S
C440 C437 1.499 . S
C440 C441 1.373 . S
C440 C442 1.389 . S
C441 H414 0.950 . S
C441 C427 1.377 . S
C441 C440 1.373 . S
C442 C426 1.377 . S
C442 C440 1.389 . S
C442 C443 1.524 . S
C443 C442 1.524 . S
C443 C444 1.397 . S
C443 C448 1.363 1_545 S
C444 H415 0.950 . S
C444 C443 1.397 . S
C444 C445 1.334 . S
C445 H416 0.950 . S
C445 C444 1.334 . S
C445 C446 1.287 . S
C446 C445 1.287 . S
C446 C447 1.524 1_545 S
C446 H449 0.999 . S
C447 H417 0.950 . S
C447 C446 1.524 1_565 S
C447 C448 1.415 . S
C448 H418 0.950 . S
C448 C443 1.363 1_565 S
C448 C447 1.415 . S
H449 C446 0.999 . S
H450 C431 0.913 . S
H451 C469 0.951 . S
H452 C471 0.951 . S
H453 C473 0.950 . S
H454 C474 0.950 . S
H455 C476 0.950 . S
H456 C479 0.950 . S
H457 C480 0.950 . S
H458 C482 0.950 . S
H459 C483 0.950 . S
H460 C484 0.951 . S
H461 C486 0.951 . S
H462 C488 0.950 . S
H463 C489 0.950 . S
H464 C491 0.950 . S
H465 C494 0.950 . S
H466 C495 0.950 . S
H467 C497 0.950 . S
H468 C498 0.950 . S
C469 H451 0.951 . S
C469 C470 1.366 . S
C469 C471 1.388 . S
C470 C469 1.366 . S
C470 C474 1.385 . S
C471 H452 0.951 . S
C471 C469 1.388 . S
C471 C472 1.366 . S
C472 C471 1.366 . S
C472 C473 1.414 . S
C472 C475 1.499 . S
C473 H453 0.950 . S
C473 C472 1.414 . S
C473 C474 1.374 . S
C474 H454 0.950 . S
C474 C470 1.385 . S
C474 C473 1.374 . S
C475 C472 1.499 . S
C475 C476 1.373 . S
C475 C477 1.389 . S
C476 H455 0.950 . S
C476 C475 1.373 . S
C476 C492 1.377 . S
C477 C475 1.389 . S
C477 C478 1.524 . S
C477 C491 1.377 . S
C478 C477 1.524 . S
C478 C479 1.397 . S
C478 C483 1.363 . S
C479 H456 0.950 . S
C479 C478 1.397 . S
C479 C480 1.334 . S
C480 H457 0.950 . S
C480 C479 1.334 . S
C480 C481 1.287 . S
C481 C480 1.287 . S
C481 C482 1.524 . S
C481 H500 0.913 . S
C482 H458 0.950 . S
C482 C481 1.524 . S
C482 C483 1.415 . S
C483 H459 0.950 . S
C483 C478 1.363 . S
C483 C482 1.415 . S
C484 H460 0.951 . S
C484 C485 1.366 . S
C484 C486 1.388 . S
C485 C484 1.366 . S
C485 C489 1.385 . S
C486 H461 0.951 . S
C486 C484 1.388 . S
C486 C487 1.366 . S
C487 C486 1.366 . S
C487 C488 1.414 . S
C487 C490 1.499 . S
C488 H462 0.950 . S
C488 C487 1.414 . S
C488 C489 1.374 . S
C489 H463 0.950 . S
C489 C485 1.385 . S
C489 C488 1.374 . S
C490 C487 1.499 . S
C490 C491 1.373 . S
C490 C492 1.389 . S
C491 H464 0.950 . S
C491 C477 1.377 . S
C491 C490 1.373 . S
C492 C476 1.377 . S
C492 C490 1.389 . S
C492 C493 1.524 . S
C493 C492 1.524 . S
C493 C494 1.397 . S
C493 C498 1.363 . S
C494 H465 0.950 . S
C494 C493 1.397 . S
C494 C495 1.334 . S
C495 H466 0.950 . S
C495 C494 1.334 . S
C495 C496 1.287 . S
C496 C495 1.287 . S
C496 C497 1.524 . S
C496 H499 0.999 . S
C497 H467 0.950 . S
C497 C496 1.524 . S
C497 C498 1.415 . S
C498 H468 0.950 . S
C498 C493 1.363 . S
C498 C497 1.415 . S
H499 C496 0.999 . S
H500 C481 0.913 . S
H501 C519 0.951 . S
H502 C521 0.951 . S
H503 C523 0.950 . S
H504 C524 0.950 . S
H505 C526 0.950 . S
H506 C529 0.950 . S
H507 C530 0.950 . S
H508 C532 0.950 . S
H509 C533 0.950 . S
H510 C534 0.951 . S
H511 C536 0.951 . S
H512 C538 0.950 . S
H513 C539 0.950 . S
H514 C541 0.950 . S
H515 C544 0.950 . S
H516 C545 0.950 . S
H517 C547 0.950 . S
H518 C548 0.950 . S
C519 H501 0.951 . S
C519 C520 1.366 . S
C519 C521 1.388 . S
C520 C519 1.366 . S
C520 C524 1.385 . S
C521 H502 0.951 . S
C521 C519 1.388 . S
C521 C522 1.366 . S
C522 C521 1.366 . S
C522 C523 1.414 . S
C522 C525 1.499 . S
C523 H503 0.950 . S
C523 C522 1.414 . S
C523 C524 1.374 . S
C524 H504 0.950 . S
C524 C520 1.385 . S
C524 C523 1.374 . S
C525 C522 1.499 . S
C525 C526 1.373 . S
C525 C527 1.389 . S
C526 H505 0.950 . S
C526 C525 1.373 . S
C526 C542 1.377 . S
C527 C525 1.389 . S
C527 C528 1.524 1_545 S
C527 C541 1.377 . S
C528 C527 1.524 1_565 S
C528 C529 1.397 . S
C528 C533 1.363 . S
C529 H506 0.950 . S
C529 C528 1.397 . S
C529 C530 1.334 . S
C530 H507 0.950 . S
C530 C529 1.334 . S
C530 C531 1.287 . S
C531 C530 1.287 . S
C531 C532 1.524 . S
C531 H550 0.913 . S
C532 H508 0.950 . S
C532 C531 1.524 . S
C532 C533 1.415 . S
C533 H509 0.950 . S
C533 C528 1.363 . S
C533 C532 1.415 . S
C534 H510 0.951 . S
C534 C535 1.366 . S
C534 C536 1.388 . S
C535 C534 1.366 . S
C535 C539 1.385 . S
C536 H511 0.951 . S
C536 C534 1.388 . S
C536 C537 1.366 . S
C537 C536 1.366 . S
C537 C538 1.414 . S
C537 C540 1.499 . S
C538 H512 0.950 . S
C538 C537 1.414 . S
C538 C539 1.374 . S
C539 H513 0.950 . S
C539 C535 1.385 . S
C539 C538 1.374 . S
C540 C537 1.499 . S
C540 C541 1.373 . S
C540 C542 1.389 . S
C541 H514 0.950 . S
C541 C527 1.377 . S
C541 C540 1.373 . S
C542 C526 1.377 . S
C542 C540 1.389 . S
C542 C543 1.524 . S
C543 C542 1.524 . S
C543 C544 1.397 . S
C543 C548 1.363 . S
C544 H515 0.950 . S
C544 C543 1.397 . S
C544 C545 1.334 . S
C545 H516 0.950 . S
C545 C544 1.334 . S
C545 C546 1.287 . S
C546 C545 1.287 . S
C546 C547 1.524 . S
C546 H549 0.999 . S
C547 H517 0.950 . S
C547 C546 1.524 . S
C547 C548 1.415 . S
C548 H518 0.950 . S
C548 C543 1.363 . S
C548 C547 1.415 . S
H549 C546 0.999 . S
H550 C531 0.913 . S
H551 C569 0.951 . S
H552 C571 0.951 . S
H553 C573 0.950 . S
H554 C574 0.950 . S
H555 C576 0.950 . S
H556 C579 0.950 . S
H557 C580 0.950 1_545 S
H558 C582 0.948 1_545 S
H559 C583 0.950 . S
H560 C584 0.951 . S
H561 C586 0.951 . S
H562 C588 0.950 . S
H563 C589 0.950 . S
H564 C591 0.950 . S
H565 C594 0.950 . S
H566 C595 0.950 . S
H567 C597 0.950 1_554 S
H568 C598 0.950 1_554 S
C569 H551 0.951 . S
C569 C570 1.366 1_556 S
C569 C571 1.388 . S
C570 C569 1.366 1_554 S
C570 C574 1.385 . S
C571 H552 0.951 . S
C571 C569 1.388 . S
C571 C572 1.366 . S
C572 C571 1.366 . S
C572 C573 1.414 1_556 S
C572 C575 1.499 . S
C573 H553 0.950 . S
C573 C572 1.414 1_554 S
C573 C574 1.374 . S
C574 H554 0.950 . S
C574 C570 1.385 . S
C574 C573 1.374 . S
C575 C572 1.499 . S
C575 C576 1.373 . S
C575 C577 1.389 . S
C576 H555 0.950 . S
C576 C575 1.373 . S
C576 C592 1.377 . S
C577 C575 1.389 . S
C577 C578 1.524 . S
C577 C591 1.377 . S
C578 C577 1.524 . S
C578 C579 1.397 . S
C578 C583 1.363 . S
C579 H556 0.950 . S
C579 C578 1.397 . S
C579 C580 1.334 . S
C580 H557 0.950 1_565 S
C580 C579 1.334 . S
C580 C581 1.287 1_565 S
C581 C580 1.287 1_545 S
C581 C582 1.521 1_545 S
C581 H600 0.913 . S
C582 H558 0.948 1_565 S
C582 C581 1.521 1_565 S
C582 C583 1.420 . S
C583 H559 0.950 . S
C583 C578 1.363 . S
C583 C582 1.420 . S
C584 H560 0.951 . S
C584 C585 1.366 . S
C584 C586 1.388 . S
C585 C584 1.366 . S
C585 C589 1.385 . S
C586 H561 0.951 . S
C586 C584 1.388 . S
C586 C587 1.366 . S
C587 C586 1.366 . S
C587 C588 1.414 . S
C587 C590 1.499 . S
C588 H562 0.950 . S
C588 C587 1.414 . S
C588 C589 1.374 . S
C589 H563 0.950 . S
C589 C585 1.385 . S
C589 C588 1.374 . S
C590 C587 1.499 . S
C590 C591 1.373 . S
C590 C592 1.389 . S
C591 H564 0.950 . S
C591 C577 1.377 . S
C591 C590 1.373 . S
C592 C576 1.377 . S
C592 C590 1.389 . S
C592 C593 1.524 . S
C593 C592 1.524 . S
C593 C594 1.397 . S
C593 C598 1.363 . S
C594 H565 0.950 . S
C594 C593 1.397 . S
C594 C595 1.334 . S
C595 H566 0.950 . S
C595 C594 1.334 . S
C595 C596 1.287 . S
C596 C595 1.287 . S
C596 C597 1.524 . S
C596 H599 0.999 . S
C597 H567 0.950 1_556 S
C597 C596 1.524 . S
C597 C598 1.415 . S
C598 H568 0.950 1_556 S
C598 C593 1.363 . S
C598 C597 1.415 . S
H599 C596 0.999 . S
H600 C581 0.913 . S
H601 C619 0.951 . S
H602 C621 0.951 . S
H603 C623 0.950 . S
H604 C624 0.950 1_545 S
H605 C626 0.950 . S
H606 C629 0.950 . S
H607 C630 0.950 . S
H608 C632 0.950 . S
H609 C633 0.950 . S
H610 C634 0.951 . S
H611 C636 0.951 . S
H612 C638 0.950 . S
H613 C639 0.950 . S
H614 C641 0.950 1_655 S
H615 C644 0.950 1_655 S
H616 C645 0.950 . S
H617 C647 0.950 . S
H618 C648 0.950 . S
C619 H601 0.951 . S
C619 C620 1.366 1_655 S
C619 C621 1.388 . S
C620 C619 1.366 1_455 S
C620 C624 1.385 . S
C621 H602 0.951 . S
C621 C619 1.388 . S
C621 C622 1.366 1_655 S
C622 C621 1.366 1_455 S
C622 C623 1.414 . S
C622 C625 1.499 . S
C623 H603 0.950 . S
C623 C622 1.414 . S
C623 C624 1.374 . S
C624 H604 0.950 1_565 S
C624 C620 1.385 . S
C624 C623 1.374 . S
C625 C622 1.499 . S
C625 C626 1.373 . S
C625 C627 1.389 . S
C626 H605 0.950 . S
C626 C625 1.373 . S
C626 C642 1.377 . S
C627 C625 1.389 . S
C627 C628 1.524 1_455 S
C627 C641 1.377 . S
C628 C627 1.524 1_655 S
C628 C629 1.397 1_655 S
C628 C633 1.363 . S
C629 H606 0.950 . S
C629 C628 1.397 1_455 S
C629 C630 1.334 . S
C630 H607 0.950 . S
C630 C629 1.334 . S
C630 C631 1.287 1_455 S
C631 C630 1.287 1_655 S
C631 C632 1.524 . S
C631 H650 0.913 . S
C632 H608 0.950 . S
C632 C631 1.524 . S
C632 C633 1.415 . S
C633 H609 0.950 . S
C633 C628 1.363 . S
C633 C632 1.415 . S
C634 H610 0.951 . S
C634 C635 1.366 . S
C634 C636 1.388 . S
C635 C634 1.366 . S
C635 C639 1.385 1_455 S
C636 H611 0.951 . S
C636 C634 1.388 . S
C636 C637 1.366 . S
C637 C636 1.366 . S
C637 C638 1.414 1_455 S
C637 C640 1.499 . S
C638 H612 0.950 . S
C638 C637 1.414 1_655 S
C638 C639 1.374 . S
C639 H613 0.950 . S
C639 C635 1.385 1_655 S
C639 C638 1.374 . S
C640 C637 1.499 . S
C640 C641 1.373 . S
C640 C642 1.389 . S
C641 H614 0.950 1_455 S
C641 C627 1.377 . S
C641 C640 1.373 . S
C642 C626 1.377 . S
C642 C640 1.389 . S
C642 C643 1.524 . S
C643 C642 1.524 . S
C643 C644 1.397 . S
C643 C648 1.363 . S
C644 H615 0.950 1_455 S
C644 C643 1.397 . S
C644 C645 1.334 . S
C645 H616 0.950 . S
C645 C644 1.334 . S
C645 C646 1.287 . S
C646 C645 1.287 . S
C646 C647 1.524 . S
C646 H649 0.999 . S
C647 H617 0.950 . S
C647 C646 1.524 . S
C647 C648 1.415 . S
C648 H618 0.950 . S
C648 C643 1.363 . S
C648 C647 1.415 . S
H649 C646 0.999 . S
H650 C631 0.913 . S
H651 C669 0.951 . S
H652 C671 0.951 . S
H653 C673 0.950 . S
H654 C674 0.950 . S
H655 C676 0.950 1_565 S
H656 C679 0.950 . S
H657 C680 0.950 . S
H658 C682 0.950 . S
H659 C683 0.950 . S
H660 C684 0.951 . S
H661 C686 0.951 . S
H662 C688 0.950 . S
H663 C689 0.950 . S
H664 C691 0.950 . S
H665 C694 0.950 . S
H666 C695 0.950 . S
H667 C697 0.950 . S
H668 C698 0.950 . S
C669 H651 0.951 . S
C669 C670 1.366 . S
C669 C671 1.388 . S
C670 C669 1.366 . S
C670 C674 1.385 . S
C671 H652 0.951 . S
C671 C669 1.388 . S
C671 C672 1.366 . S
C672 C671 1.366 . S
C672 C673 1.414 . S
C672 C675 1.499 . S
C673 H653 0.950 . S
C673 C672 1.414 . S
C673 C674 1.374 . S
C674 H654 0.950 . S
C674 C670 1.385 . S
C674 C673 1.374 . S
C675 C672 1.499 . S
C675 C676 1.373 . S
C675 C677 1.389 . S
C676 H655 0.950 1_545 S
C676 C675 1.373 . S
C676 C692 1.377 . S
C677 C675 1.389 . S
C677 C678 1.524 . S
C677 C691 1.377 . S
C678 C677 1.524 . S
C678 C679 1.397 . S
C678 C683 1.363 . S
C679 H656 0.950 . S
C679 C678 1.397 . S
C679 C680 1.334 . S
C680 H657 0.950 . S
C680 C679 1.334 . S
C680 C681 1.287 . S
C681 C680 1.287 . S
C681 C682 1.524 . S
C681 H700 0.913 . S
C682 H658 0.950 . S
C682 C681 1.524 . S
C682 C683 1.415 . S
C683 H659 0.950 . S
C683 C678 1.363 . S
C683 C682 1.415 . S
C684 H660 0.951 . S
C684 C685 1.366 . S
C684 C686 1.388 . S
C685 C684 1.366 . S
C685 C689 1.385 . S
C686 H661 0.951 . S
C686 C684 1.388 . S
C686 C687 1.366 . S
C687 C686 1.366 . S
C687 C688 1.414 . S
C687 C690 1.499 . S
C688 H662 0.950 . S
C688 C687 1.414 . S
C688 C689 1.374 . S
C689 H663 0.950 . S
C689 C685 1.385 . S
C689 C688 1.374 . S
C690 C687 1.499 . S
C690 C691 1.373 . S
C690 C692 1.389 . S
C691 H664 0.950 . S
C691 C677 1.377 . S
C691 C690 1.373 . S
C692 C676 1.377 . S
C692 C690 1.389 . S
C692 C693 1.524 1_545 S
C693 C692 1.524 1_565 S
C693 C694 1.397 . S
C693 C698 1.363 . S
C694 H665 0.950 . S
C694 C693 1.397 . S
C694 C695 1.334 . S
C695 H666 0.950 . S
C695 C694 1.334 . S
C695 C696 1.287 . S
C696 C695 1.287 . S
C696 C697 1.524 . S
C696 H699 0.999 . S
C697 H667 0.950 . S
C697 C696 1.524 . S
C697 C698 1.415 . S
C698 H668 0.950 . S
C698 C693 1.363 . S
C698 C697 1.415 . S
H699 C696 0.999 . S
H700 C681 0.913 . S
H701 C719 0.951 . S
H702 C721 0.951 . S
H703 C723 0.950 . S
H704 C724 0.950 . S
H705 C726 0.950 . S
H706 C729 0.950 1_554 S
H707 C730 0.950 . S
H708 C732 0.950 . S
H709 C733 0.950 . S
H710 C734 0.951 . S
H711 C736 0.951 . S
H712 C738 0.950 . S
H713 C739 0.950 . S
H714 C741 0.950 . S
H715 C744 0.950 . S
H716 C745 0.950 . S
H717 C747 0.950 . S
H718 C748 0.950 . S
C719 H701 0.951 . S
C719 C720 1.366 1_556 S
C719 C721 1.388 . S
C720 C719 1.366 1_554 S
C720 C724 1.385 . S
C721 H702 0.951 . S
C721 C719 1.388 . S
C721 C722 1.366 . S
C722 C721 1.366 . S
C722 C723 1.414 1_556 S
C722 C725 1.499 . S
C723 H703 0.950 . S
C723 C722 1.414 1_554 S
C723 C724 1.374 . S
C724 H704 0.950 . S
C724 C720 1.385 . S
C724 C723 1.374 . S
C725 C722 1.499 . S
C725 C726 1.373 . S
C725 C727 1.389 . S
C726 H705 0.950 . S
C726 C725 1.373 . S
C726 C742 1.377 . S
C727 C725 1.389 . S
C727 C728 1.524 . S
C727 C741 1.377 . S
C728 C727 1.524 . S
C728 C729 1.397 . S
C728 C733 1.363 . S
C729 H706 0.950 1_556 S
C729 C728 1.397 . S
C729 C730 1.334 1_556 S
C730 H707 0.950 . S
C730 C729 1.334 1_554 S
C730 C731 1.287 1_554 S
C731 C730 1.287 1_556 S
C731 C732 1.524 . S
C731 H750 0.913 1_556 S
C732 H708 0.950 . S
C732 C731 1.524 . S
C732 C733 1.415 . S
C733 H709 0.950 . S
C733 C728 1.363 . S
C733 C732 1.415 . S
C734 H710 0.951 . S
C734 C735 1.366 . S
C734 C736 1.388 . S
C735 C734 1.366 . S
C735 C739 1.385 . S
C736 H711 0.951 . S
C736 C734 1.388 . S
C736 C737 1.366 . S
C737 C736 1.366 . S
C737 C738 1.414 . S
C737 C740 1.499 . S
C738 H712 0.950 . S
C738 C737 1.414 . S
C738 C739 1.374 . S
C739 H713 0.950 . S
C739 C735 1.385 . S
C739 C738 1.374 . S
C740 C737 1.499 . S
C740 C741 1.373 . S
C740 C742 1.389 . S
C741 H714 0.950 . S
C741 C727 1.377 . S
C741 C740 1.373 . S
C742 C726 1.377 . S
C742 C740 1.389 . S
C742 C743 1.524 . S
C743 C742 1.524 . S
C743 C744 1.397 . S
C743 C748 1.363 . S
C744 H715 0.950 . S
C744 C743 1.397 . S
C744 C745 1.334 . S
C745 H716 0.950 . S
C745 C744 1.334 . S
C745 C746 1.287 . S
C746 C745 1.287 . S
C746 C747 1.524 . S
C746 H749 0.999 . S
C747 H717 0.950 . S
C747 C746 1.524 . S
C747 C748 1.415 . S
C748 H718 0.950 . S
C748 C743 1.363 . S
C748 C747 1.415 . S
H749 C746 0.999 . S
H750 C731 0.913 1_554 S
H751 C769 0.951 . S
H752 C771 0.951 . S
H753 C773 0.950 . S
H754 C774 0.950 1_655 S
H755 C776 0.950 . S
H756 C779 0.950 1_655 S
H757 C780 0.950 . S
H758 C782 0.950 . S
H759 C783 0.950 . S
H760 C784 0.951 . S
H761 C786 0.951 . S
H762 C788 0.950 . S
H763 C789 0.950 . S
H764 C791 0.950 . S
H765 C794 0.950 . S
H766 C795 0.950 . S
H767 C797 0.950 . S
H768 C798 0.950 . S
C769 H751 0.951 . S
C769 C770 1.366 . S
C769 C771 1.388 . S
C770 C769 1.366 . S
C770 C774 1.385 . S
C771 H752 0.951 . S
C771 C769 1.388 . S
C771 C772 1.366 . S
C772 C771 1.366 . S
C772 C773 1.414 1_455 S
C772 C775 1.499 . S
C773 H753 0.950 . S
C773 C772 1.414 1_655 S
C773 C774 1.374 1_655 S
C774 H754 0.950 1_455 S
C774 C770 1.385 . S
C774 C773 1.374 1_455 S
C775 C772 1.499 . S
C775 C776 1.373 . S
C775 C777 1.389 . S
C776 H755 0.950 . S
C776 C775 1.373 . S
C776 C792 1.377 . S
C777 C775 1.389 . S
C777 C778 1.524 . S
C777 C791 1.377 . S
C778 C777 1.524 . S
C778 C779 1.397 . S
C778 C783 1.363 . S
C779 H756 0.950 1_455 S
C779 C778 1.397 . S
C779 C780 1.334 . S
C780 H757 0.950 . S
C780 C779 1.334 . S
C780 C781 1.287 . S
C781 C780 1.287 . S
C781 C782 1.524 . S
C781 H800 0.913 . S
C782 H758 0.950 . S
C782 C781 1.524 . S
C782 C783 1.415 . S
C783 H759 0.950 . S
C783 C778 1.363 . S
C783 C782 1.415 . S
C784 H760 0.951 . S
C784 C785 1.366 1_655 S
C784 C786 1.388 . S
C785 C784 1.366 1_455 S
C785 C789 1.385 . S
C786 H761 0.951 . S
C786 C784 1.388 . S
C786 C787 1.366 1_655 S
C787 C786 1.366 1_455 S
C787 C788 1.414 . S
C787 C790 1.499 . S
C788 H762 0.950 . S
C788 C787 1.414 . S
C788 C789 1.374 . S
C789 H763 0.950 . S
C789 C785 1.385 . S
C789 C788 1.374 . S
C790 C787 1.499 . S
C790 C791 1.373 . S
C790 C792 1.389 . S
C791 H764 0.950 . S
C791 C777 1.377 . S
C791 C790 1.373 . S
C792 C776 1.377 . S
C792 C790 1.389 . S
C792 C793 1.524 . S
C793 C792 1.524 . S
C793 C794 1.397 . S
C793 C798 1.363 1_455 S
C794 H765 0.950 . S
C794 C793 1.397 . S
C794 C795 1.334 . S
C795 H766 0.950 . S
C795 C794 1.334 . S
C795 C796 1.287 . S
C796 C795 1.287 . S
C796 C797 1.524 1_455 S
C796 H799 0.999 1_455 S
C797 H767 0.950 . S
C797 C796 1.524 1_655 S
C797 C798 1.415 . S
C798 H768 0.950 . S
C798 C793 1.363 1_655 S
C798 C797 1.415 . S
H799 C796 0.999 1_655 S
H800 C781 0.913 . S
C235 C64 1.494 . S
C220 C3 1.492 . S
C270 C21 1.510 . S
C285 C134 1.528 . S
C320 C37 1.486 . S
C335 C186 1.505 . S
C370 C8 1.501 . S
C385 C80 1.499 . S
C435 C124 1.509 . S
C420 C23 1.491 . S
C470 C35 1.479 . S
C485 C170 1.501 . S
C535 C117 1.483 . S
C520 C31 1.480 . S
C570 C7 1.480 1_565 S
C585 C177 1.501 . S
C635 C71 1.494 . S
C620 C17 1.492 1_565 S
C685 C133 1.471 . S
C670 C36 1.472 . S
C735 C187 1.505 . S
C720 C9 1.486 . S
C770 C22 1.501 . S
C785 C81 1.500 . S
