# Generated by pormake.
# Topology gar, (4,6)-cn, num edge types: 1
# Building blocks:
#     Node 0, Type 0, BuildingBlock: QUQFOY_clean_sbu_3, # of connection points: 4
#     Node 1, Type 0, BuildingBlock: QUQFOY_clean_sbu_3, # of connection points: 4
#     Node 2, Type 0, BuildingBlock: QUQFOY_clean_sbu_3, # of connection points: 4
#     Node 3, Type 0, BuildingBlock: QUQFOY_clean_sbu_3, # of connection points: 4
#     Node 4, Type 0, BuildingBlock: QUQFOY_clean_sbu_3, # of connection points: 4
#     Node 5, Type 0, BuildingBlock: QUQFOY_clean_sbu_3, # of connection points: 4
#     Node 6, Type 0, BuildingBlock: QUQFOY_clean_sbu_3, # of connection points: 4
#     Node 7, Type 0, BuildingBlock: QUQFOY_clean_sbu_3, # of connection points: 4
#     Node 8, Type 0, BuildingBlock: QUQFOY_clean_sbu_3, # of connection points: 4
#     Node 9, Type 0, BuildingBlock: QUQFOY_clean_sbu_3, # of connection points: 4
#     Node 10, Type 0, BuildingBlock: QUQFOY_clean_sbu_3, # of connection points: 4
#     Node 11, Type 0, BuildingBlock: QUQFOY_clean_sbu_3, # of connection points: 4
#     Node 12, Type 0, BuildingBlock: QUQFOY_clean_sbu_3, # of connection points: 4
#     Node 13, Type 0, BuildingBlock: QUQFOY_clean_sbu_3, # of connection points: 4
#     Node 14, Type 0, BuildingBlock: QUQFOY_clean_sbu_3, # of connection points: 4
#     Node 15, Type 0, BuildingBlock: QUQFOY_clean_sbu_3, # of connection points: 4
#     Node 16, Type 0, BuildingBlock: QUQFOY_clean_sbu_3, # of connection points: 4
#     Node 17, Type 0, BuildingBlock: QUQFOY_clean_sbu_3, # of connection points: 4
#     Node 18, Type 0, BuildingBlock: QUQFOY_clean_sbu_3, # of connection points: 4
#     Node 19, Type 0, BuildingBlock: QUQFOY_clean_sbu_3, # of connection points: 4
#     Node 20, Type 0, BuildingBlock: QUQFOY_clean_sbu_3, # of connection points: 4
#     Node 21, Type 0, BuildingBlock: QUQFOY_clean_sbu_3, # of connection points: 4
#     Node 22, Type 0, BuildingBlock: QUQFOY_clean_sbu_3, # of connection points: 4
#     Node 23, Type 0, BuildingBlock: QUQFOY_clean_sbu_3, # of connection points: 4
#     Node 24, Type 1, BuildingBlock: BETFEN_clean_sbu_0, # of connection points: 6
#     Node 25, Type 1, BuildingBlock: BETFEN_clean_sbu_0, # of connection points: 6
#     Node 26, Type 1, BuildingBlock: BETFEN_clean_sbu_0, # of connection points: 6
#     Node 27, Type 1, BuildingBlock: BETFEN_clean_sbu_0, # of connection points: 6
#     Node 28, Type 1, BuildingBlock: BETFEN_clean_sbu_0, # of connection points: 6
#     Node 29, Type 1, BuildingBlock: BETFEN_clean_sbu_0, # of connection points: 6
#     Node 30, Type 1, BuildingBlock: BETFEN_clean_sbu_0, # of connection points: 6
#     Node 31, Type 1, BuildingBlock: BETFEN_clean_sbu_0, # of connection points: 6
#     Node 32, Type 1, BuildingBlock: BETFEN_clean_sbu_0, # of connection points: 6
#     Node 33, Type 1, BuildingBlock: BETFEN_clean_sbu_0, # of connection points: 6
#     Node 34, Type 1, BuildingBlock: BETFEN_clean_sbu_0, # of connection points: 6
#     Node 35, Type 1, BuildingBlock: BETFEN_clean_sbu_0, # of connection points: 6
#     Node 36, Type 1, BuildingBlock: BETFEN_clean_sbu_0, # of connection points: 6
#     Node 37, Type 1, BuildingBlock: BETFEN_clean_sbu_0, # of connection points: 6
#     Node 38, Type 1, BuildingBlock: BETFEN_clean_sbu_0, # of connection points: 6
#     Node 39, Type 1, BuildingBlock: BETFEN_clean_sbu_0, # of connection points: 6
#     Edge 40, Type (0, 1), BuildingBlock: XIVTED_clean_linker_0, # of connection points: 2
#     Edge 41, Type (0, 1), BuildingBlock: XIVTED_clean_linker_0, # of connection points: 2
#     Edge 42, Type (0, 1), BuildingBlock: XIVTED_clean_linker_0, # of connection points: 2
#     Edge 43, Type (0, 1), BuildingBlock: XIVTED_clean_linker_0, # of connection points: 2
#     Edge 44, Type (0, 1), BuildingBlock: XIVTED_clean_linker_0, # of connection points: 2
#     Edge 45, Type (0, 1), BuildingBlock: XIVTED_clean_linker_0, # of connection points: 2
#     Edge 46, Type (0, 1), BuildingBlock: XIVTED_clean_linker_0, # of connection points: 2
#     Edge 47, Type (0, 1), BuildingBlock: XIVTED_clean_linker_0, # of connection points: 2
#     Edge 48, Type (0, 1), BuildingBlock: XIVTED_clean_linker_0, # of connection points: 2
#     Edge 49, Type (0, 1), BuildingBlock: XIVTED_clean_linker_0, # of connection points: 2
#     Edge 50, Type (0, 1), BuildingBlock: XIVTED_clean_linker_0, # of connection points: 2
#     Edge 51, Type (0, 1), BuildingBlock: XIVTED_clean_linker_0, # of connection points: 2
#     Edge 52, Type (0, 1), BuildingBlock: XIVTED_clean_linker_0, # of connection points: 2
#     Edge 53, Type (0, 1), BuildingBlock: XIVTED_clean_linker_0, # of connection points: 2
#     Edge 54, Type (0, 1), BuildingBlock: XIVTED_clean_linker_0, # of connection points: 2
#     Edge 55, Type (0, 1), BuildingBlock: XIVTED_clean_linker_0, # of connection points: 2
#     Edge 56, Type (0, 1), BuildingBlock: XIVTED_clean_linker_0, # of connection points: 2
#     Edge 57, Type (0, 1), BuildingBlock: XIVTED_clean_linker_0, # of connection points: 2
#     Edge 58, Type (0, 1), BuildingBlock: XIVTED_clean_linker_0, # of connection points: 2
#     Edge 59, Type (0, 1), BuildingBlock: XIVTED_clean_linker_0, # of connection points: 2
#     Edge 60, Type (0, 1), BuildingBlock: XIVTED_clean_linker_0, # of connection points: 2
#     Edge 61, Type (0, 1), BuildingBlock: XIVTED_clean_linker_0, # of connection points: 2
#     Edge 62, Type (0, 1), BuildingBlock: XIVTED_clean_linker_0, # of connection points: 2
#     Edge 63, Type (0, 1), BuildingBlock: XIVTED_clean_linker_0, # of connection points: 2
#     Edge 64, Type (0, 1), BuildingBlock: XIVTED_clean_linker_0, # of connection points: 2
#     Edge 65, Type (0, 1), BuildingBlock: XIVTED_clean_linker_0, # of connection points: 2
#     Edge 66, Type (0, 1), BuildingBlock: XIVTED_clean_linker_0, # of connection points: 2
#     Edge 67, Type (0, 1), BuildingBlock: XIVTED_clean_linker_0, # of connection points: 2
#     Edge 68, Type (0, 1), BuildingBlock: XIVTED_clean_linker_0, # of connection points: 2
#     Edge 69, Type (0, 1), BuildingBlock: XIVTED_clean_linker_0, # of connection points: 2
#     Edge 70, Type (0, 1), BuildingBlock: XIVTED_clean_linker_0, # of connection points: 2
#     Edge 71, Type (0, 1), BuildingBlock: XIVTED_clean_linker_0, # of connection points: 2
#     Edge 72, Type (0, 1), BuildingBlock: XIVTED_clean_linker_0, # of connection points: 2
#     Edge 73, Type (0, 1), BuildingBlock: XIVTED_clean_linker_0, # of connection points: 2
#     Edge 74, Type (0, 1), BuildingBlock: XIVTED_clean_linker_0, # of connection points: 2
#     Edge 75, Type (0, 1), BuildingBlock: XIVTED_clean_linker_0, # of connection points: 2
#     Edge 76, Type (0, 1), BuildingBlock: XIVTED_clean_linker_0, # of connection points: 2
#     Edge 77, Type (0, 1), BuildingBlock: XIVTED_clean_linker_0, # of connection points: 2
#     Edge 78, Type (0, 1), BuildingBlock: XIVTED_clean_linker_0, # of connection points: 2
#     Edge 79, Type (0, 1), BuildingBlock: XIVTED_clean_linker_0, # of connection points: 2
#     Edge 80, Type (0, 1), BuildingBlock: XIVTED_clean_linker_0, # of connection points: 2
#     Edge 81, Type (0, 1), BuildingBlock: XIVTED_clean_linker_0, # of connection points: 2
#     Edge 82, Type (0, 1), BuildingBlock: XIVTED_clean_linker_0, # of connection points: 2
#     Edge 83, Type (0, 1), BuildingBlock: XIVTED_clean_linker_0, # of connection points: 2
#     Edge 84, Type (0, 1), BuildingBlock: XIVTED_clean_linker_0, # of connection points: 2
#     Edge 85, Type (0, 1), BuildingBlock: XIVTED_clean_linker_0, # of connection points: 2
#     Edge 86, Type (0, 1), BuildingBlock: XIVTED_clean_linker_0, # of connection points: 2
#     Edge 87, Type (0, 1), BuildingBlock: XIVTED_clean_linker_0, # of connection points: 2
#     Edge 88, Type (0, 1), BuildingBlock: XIVTED_clean_linker_0, # of connection points: 2
#     Edge 89, Type (0, 1), BuildingBlock: XIVTED_clean_linker_0, # of connection points: 2
#     Edge 90, Type (0, 1), BuildingBlock: XIVTED_clean_linker_0, # of connection points: 2
#     Edge 91, Type (0, 1), BuildingBlock: XIVTED_clean_linker_0, # of connection points: 2
#     Edge 92, Type (0, 1), BuildingBlock: XIVTED_clean_linker_0, # of connection points: 2
#     Edge 93, Type (0, 1), BuildingBlock: XIVTED_clean_linker_0, # of connection points: 2
#     Edge 94, Type (0, 1), BuildingBlock: XIVTED_clean_linker_0, # of connection points: 2
#     Edge 95, Type (0, 1), BuildingBlock: XIVTED_clean_linker_0, # of connection points: 2
#     Edge 96, Type (0, 1), BuildingBlock: XIVTED_clean_linker_0, # of connection points: 2
#     Edge 97, Type (0, 1), BuildingBlock: XIVTED_clean_linker_0, # of connection points: 2
#     Edge 98, Type (0, 1), BuildingBlock: XIVTED_clean_linker_0, # of connection points: 2
#     Edge 99, Type (0, 1), BuildingBlock: XIVTED_clean_linker_0, # of connection points: 2
#     Edge 100, Type (0, 1), BuildingBlock: XIVTED_clean_linker_0, # of connection points: 2
#     Edge 101, Type (0, 1), BuildingBlock: XIVTED_clean_linker_0, # of connection points: 2
#     Edge 102, Type (0, 1), BuildingBlock: XIVTED_clean_linker_0, # of connection points: 2
#     Edge 103, Type (0, 1), BuildingBlock: XIVTED_clean_linker_0, # of connection points: 2
#     Edge 104, Type (0, 1), BuildingBlock: XIVTED_clean_linker_0, # of connection points: 2
#     Edge 105, Type (0, 1), BuildingBlock: XIVTED_clean_linker_0, # of connection points: 2
#     Edge 106, Type (0, 1), BuildingBlock: XIVTED_clean_linker_0, # of connection points: 2
#     Edge 107, Type (0, 1), BuildingBlock: XIVTED_clean_linker_0, # of connection points: 2
#     Edge 108, Type (0, 1), BuildingBlock: XIVTED_clean_linker_0, # of connection points: 2
#     Edge 109, Type (0, 1), BuildingBlock: XIVTED_clean_linker_0, # of connection points: 2
#     Edge 110, Type (0, 1), BuildingBlock: XIVTED_clean_linker_0, # of connection points: 2
#     Edge 111, Type (0, 1), BuildingBlock: XIVTED_clean_linker_0, # of connection points: 2
#     Edge 112, Type (0, 1), BuildingBlock: XIVTED_clean_linker_0, # of connection points: 2
#     Edge 113, Type (0, 1), BuildingBlock: XIVTED_clean_linker_0, # of connection points: 2
#     Edge 114, Type (0, 1), BuildingBlock: XIVTED_clean_linker_0, # of connection points: 2
#     Edge 115, Type (0, 1), BuildingBlock: XIVTED_clean_linker_0, # of connection points: 2
#     Edge 116, Type (0, 1), BuildingBlock: XIVTED_clean_linker_0, # of connection points: 2
#     Edge 117, Type (0, 1), BuildingBlock: XIVTED_clean_linker_0, # of connection points: 2
#     Edge 118, Type (0, 1), BuildingBlock: XIVTED_clean_linker_0, # of connection points: 2
#     Edge 119, Type (0, 1), BuildingBlock: XIVTED_clean_linker_0, # of connection points: 2
#     Edge 120, Type (0, 1), BuildingBlock: XIVTED_clean_linker_0, # of connection points: 2
#     Edge 121, Type (0, 1), BuildingBlock: XIVTED_clean_linker_0, # of connection points: 2
#     Edge 122, Type (0, 1), BuildingBlock: XIVTED_clean_linker_0, # of connection points: 2
#     Edge 123, Type (0, 1), BuildingBlock: XIVTED_clean_linker_0, # of connection points: 2
#     Edge 124, Type (0, 1), BuildingBlock: XIVTED_clean_linker_0, # of connection points: 2
#     Edge 125, Type (0, 1), BuildingBlock: XIVTED_clean_linker_0, # of connection points: 2
#     Edge 126, Type (0, 1), BuildingBlock: XIVTED_clean_linker_0, # of connection points: 2
#     Edge 127, Type (0, 1), BuildingBlock: XIVTED_clean_linker_0, # of connection points: 2
#     Edge 128, Type (0, 1), BuildingBlock: XIVTED_clean_linker_0, # of connection points: 2
#     Edge 129, Type (0, 1), BuildingBlock: XIVTED_clean_linker_0, # of connection points: 2
#     Edge 130, Type (0, 1), BuildingBlock: XIVTED_clean_linker_0, # of connection points: 2
#     Edge 131, Type (0, 1), BuildingBlock: XIVTED_clean_linker_0, # of connection points: 2
#     Edge 132, Type (0, 1), BuildingBlock: XIVTED_clean_linker_0, # of connection points: 2
#     Edge 133, Type (0, 1), BuildingBlock: XIVTED_clean_linker_0, # of connection points: 2
#     Edge 134, Type (0, 1), BuildingBlock: XIVTED_clean_linker_0, # of connection points: 2
#     Edge 135, Type (0, 1), BuildingBlock: XIVTED_clean_linker_0, # of connection points: 2
# Relax obj value: 0.188
# Max RMSD: 0.316
# Mean RMSD: 0.161
data_MOF--net-gar--node1-QUQFOY_clean_sbu_3--node2-BETFEN_clean_sbu_0--edge1-XIVTED_clean_linker_0
_symmetry_space_group_name_H-M    P1
_symmetry_Int_Tables_number       1
_symmetry_cell_setting            triclinic
loop_
_symmetry_equiv_pos_as_xyz
'x, y, z'
_cell_length_a     64.581528
_cell_length_b     58.26698
_cell_length_c     57.961707
_cell_angle_alpha  95.371521
_cell_angle_beta   98.869051
_cell_angle_gamma 102.65255
loop_
_atom_site_label
_atom_site_type_symbol
_atom_site_fract_x
_atom_site_fract_y
_atom_site_fract_z
_atom_type_partial_charge
C0 C 0.98375 0.31625 0.37713 0.0
O1 O 0.99617 0.3269 0.36452 0.0
Cd2 Cd 0.03408 0.34143 0.37656 0.0
O3 O 0.99141 0.31056 0.39694 0.0
Cd4 Cd 0.02907 0.31169 0.41981 0.0
C5 C 0.03749 0.37246 0.43175 0.0
O6 O 0.04651 0.30713 0.38534 0.0
O7 O 0.06817 0.31727 0.41863 0.0
O8 O 0.01601 0.26917 0.42333 0.0
C9 C 0.06559 0.31088 0.39666 0.0
O10 O 0.03888 0.37228 0.41005 0.0
C11 C 0.02415 0.27023 0.4449 0.0
O12 O 0.03358 0.35296 0.44057 0.0
O13 O 0.03362 0.29085 0.45551 0.0
C14 C 0.03323 0.82769 0.67514 0.0
O15 O 0.04424 0.81556 0.68663 0.0
Cd16 Cd 0.07804 0.8093 0.67904 0.0
O17 O 0.03963 0.83708 0.65764 0.0
Cd18 Cd 0.07099 0.8394 0.63588 0.0
C19 C 0.06354 0.77834 0.62296 0.0
O20 O 0.09846 0.84634 0.67159 0.0
O21 O 0.10988 0.83907 0.63939 0.0
O22 O 0.07185 0.88166 0.63492 0.0
C23 C 0.11425 0.84462 0.6616 0.0
O24 O 0.07043 0.77928 0.6449 0.0
C25 C 0.06905 0.88156 0.61278 0.0
O26 O 0.06056 0.7971 0.61434 0.0
O27 O 0.06697 0.86157 0.60059 0.0
C28 C 0.48867 0.82254 0.87529 0.0
O29 O 0.50294 0.83453 0.86552 0.0
Cd30 Cd 0.54067 0.84423 0.87821 0.0
O31 O 0.49416 0.81333 0.89384 0.0
Cd32 Cd 0.53043 0.81252 0.91886 0.0
C33 C 0.54157 0.87351 0.93308 0.0
O34 O 0.54873 0.80736 0.88553 0.0
O35 O 0.56986 0.81706 0.91912 0.0
O36 O 0.516 0.76993 0.92124 0.0
C37 C 0.56748 0.81007 0.89729 0.0
O38 O 0.54539 0.87405 0.91221 0.0
C39 C 0.5233 0.77051 0.94296 0.0
O40 O 0.53526 0.85362 0.94057 0.0
O41 O 0.53277 0.7909 0.9541 0.0
C42 C 0.53319 0.32873 0.17589 0.0
O43 O 0.54435 0.31678 0.18753 0.0
Cd44 Cd 0.57806 0.30901 0.18105 0.0
O45 O 0.53941 0.33792 0.15817 0.0
Cd46 Cd 0.57089 0.34123 0.13629 0.0
C47 C 0.56429 0.27976 0.12376 0.0
O48 O 0.59644 0.34613 0.17264 0.0
O49 O 0.61124 0.34692 0.14196 0.0
O50 O 0.56883 0.38269 0.13429 0.0
C51 C 0.61354 0.34784 0.16419 0.0
O52 O 0.5703 0.28018 0.14582 0.0
C53 C 0.56704 0.38226 0.11215 0.0
O54 O 0.56196 0.29879 0.11523 0.0
O55 O 0.56678 0.36248 0.10057 0.0
C56 C 0.0553 0.84642 0.18587 0.0
O57 O 0.06776 0.83769 0.19976 0.0
Cd58 Cd 0.10013 0.82844 0.19171 0.0
O59 O 0.0603 0.85227 0.16637 0.0
Cd60 Cd 0.09142 0.85419 0.14443 0.0
C61 C 0.08238 0.79354 0.13729 0.0
O62 O 0.11925 0.86354 0.17941 0.0
O63 O 0.13051 0.85375 0.14777 0.0
O64 O 0.09311 0.8955 0.13768 0.0
C65 C 0.13494 0.86061 0.1698 0.0
O66 O 0.08839 0.79562 0.15953 0.0
C67 C 0.08601 0.89144 0.11568 0.0
O68 O 0.0817 0.81173 0.12674 0.0
O69 O 0.08176 0.86989 0.10641 0.0
C70 C 0.47272 0.80681 0.37672 0.0
O71 O 0.48594 0.8186 0.36562 0.0
Cd72 Cd 0.52396 0.82959 0.37614 0.0
O73 O 0.47936 0.79892 0.39569 0.0
Cd74 Cd 0.5165 0.80163 0.42033 0.0
C75 C 0.52603 0.86221 0.42958 0.0
O76 O 0.53551 0.79583 0.38799 0.0
O77 O 0.55612 0.81032 0.42131 0.0
O78 O 0.51032 0.75968 0.42578 0.0
C79 C 0.5544 0.80169 0.39999 0.0
O80 O 0.52867 0.86107 0.40823 0.0
C81 C 0.51364 0.76263 0.44811 0.0
O82 O 0.52094 0.84335 0.43913 0.0
O83 O 0.51692 0.78384 0.45804 0.0
C84 C 0.55138 0.33609 0.68649 0.0
O85 O 0.56319 0.3254 0.69898 0.0
Cd86 Cd 0.59716 0.31881 0.69282 0.0
O87 O 0.55752 0.34539 0.66881 0.0
Cd88 Cd 0.58914 0.35082 0.64752 0.0
C89 C 0.58111 0.28998 0.63552 0.0
O90 O 0.61515 0.35563 0.68324 0.0
O91 O 0.6291 0.35563 0.6519 0.0
O92 O 0.58871 0.39239 0.64408 0.0
C93 C 0.63188 0.35671 0.67418 0.0
O94 O 0.58659 0.28986 0.65757 0.0
C95 C 0.58344 0.38997 0.62181 0.0
O96 O 0.58055 0.30928 0.62686 0.0
O97 O 0.58089 0.36923 0.61103 0.0
C98 C 0.97488 0.30998 0.87158 0.0
O99 O 0.98924 0.32219 0.86209 0.0
Cd100 Cd 0.02645 0.33621 0.87631 0.0
O101 O 0.98002 0.30243 0.89126 0.0
Cd102 Cd 0.01581 0.30505 0.91907 0.0
C103 C 0.02297 0.36537 0.93005 0.0
O104 O 0.03663 0.3022 0.88833 0.0
O105 O 0.05598 0.31367 0.92276 0.0
O106 O 0.00926 0.26252 0.92177 0.0
C107 C 0.05513 0.30721 0.90106 0.0
O108 O 0.02678 0.36539 0.90915 0.0
C109 C 0.01206 0.26402 0.94406 0.0
O110 O 0.01825 0.34597 0.93884 0.0
O111 O 0.01489 0.28465 0.95521 0.0
C112 C 0.50393 0.16103 0.35046 0.0
O113 O 0.51282 0.15493 0.33355 0.0
Cd114 Cd 0.50549 0.15933 0.29283 0.0
O115 O 0.48818 0.17101 0.34716 0.0
Cd116 Cd 0.46655 0.17962 0.31097 0.0
C117 C 0.45614 0.12174 0.28506 0.0
O118 O 0.49605 0.19657 0.29217 0.0
O119 O 0.46476 0.18992 0.2706 0.0
O120 O 0.45478 0.21365 0.32758 0.0
C121 C 0.48492 0.19794 0.27263 0.0
O122 O 0.47475 0.12544 0.27937 0.0
C123 C 0.43482 0.20349 0.32175 0.0
O124 O 0.45047 0.13794 0.29709 0.0
O125 O 0.43003 0.18195 0.31254 0.0
C126 C 0.30142 0.17558 0.51765 0.0
O127 O 0.28662 0.16273 0.52607 0.0
Cd128 Cd 0.25186 0.16906 0.52845 0.0
O129 O 0.29835 0.19408 0.50873 0.0
Cd130 Cd 0.26765 0.21498 0.50258 0.0
C131 C 0.26811 0.22443 0.56186 0.0
O132 O 0.23787 0.17959 0.49183 0.0
O133 O 0.22821 0.21151 0.50179 0.0
O134 O 0.27275 0.22072 0.46207 0.0
C135 C 0.22261 0.18948 0.49427 0.0
O136 O 0.25865 0.2025 0.55919 0.0
C137 C 0.27656 0.2432 0.46483 0.0
O138 O 0.27498 0.23408 0.54467 0.0
O139 O 0.27648 0.25303 0.48535 0.0
C140 C 0.15743 0.10168 0.87606 0.0
O141 O 0.14948 0.10637 0.85613 0.0
Cd142 Cd 0.16816 0.11211 0.82414 0.0
O143 O 0.17693 0.09987 0.88053 0.0
Cd144 Cd 0.20786 0.10085 0.85971 0.0
C145 C 0.21379 0.15689 0.8478 0.0
O146 O 0.18525 0.08006 0.82347 0.0
O147 O 0.21821 0.09378 0.82064 0.0
O148 O 0.21392 0.06804 0.88028 0.0
C149 C 0.19949 0.08226 0.81064 0.0
O150 O 0.19616 0.14894 0.83322 0.0
C151 C 0.23425 0.07547 0.88571 0.0
O152 O 0.22118 0.14367 0.86163 0.0
O153 O 0.24239 0.09556 0.88 0.0
C154 C 0.35006 0.9834 0.0323 0.0
O155 O 0.33692 0.99324 0.02068 0.0
Cd156 Cd 0.29903 0.98092 0.01227 0.0
O157 O 0.34321 0.96476 0.04165 0.0
Cd158 Cd 0.30618 0.93907 0.04389 0.0
C159 C 0.29614 0.92545 0.98321 0.0
O160 O 0.29126 0.97328 0.04992 0.0
O161 O 0.2674 0.94039 0.04381 0.0
O162 O 0.3214 0.93556 0.08486 0.0
C163 C 0.27187 0.96273 0.0492 0.0
O164 O 0.29384 0.94656 0.98277 0.0
C165 C 0.31256 0.91374 0.0843 0.0
O166 O 0.30093 0.91778 0.00283 0.0
O167 O 0.30148 0.90318 0.06461 0.0
C168 C 0.3632 0.47582 0.04438 0.0
O169 O 0.35038 0.48666 0.03374 0.0
Cd170 Cd 0.31229 0.47469 0.02536 0.0
O171 O 0.35599 0.45662 0.0527 0.0
Cd172 Cd 0.31837 0.43077 0.05327 0.0
C173 C 0.30999 0.42112 0.99278 0.0
O174 O 0.3008 0.46314 0.06045 0.0
O175 O 0.27894 0.4292 0.0484 0.0
O176 O 0.32937 0.4261 0.09493 0.0
C177 C 0.28156 0.45086 0.05636 0.0
O178 O 0.30747 0.44224 0.99415 0.0
C179 C 0.32203 0.4038 0.09292 0.0
O180 O 0.31467 0.4118 0.01145 0.0
O181 O 0.31403 0.39346 0.07212 0.0
C182 C 0.81994 0.17967 0.03677 0.0
O183 O 0.80744 0.16877 0.0492 0.0
Cd184 Cd 0.77309 0.17434 0.05532 0.0
O185 O 0.8152 0.19668 0.02619 0.0
Cd186 Cd 0.78511 0.21859 0.02243 0.0
C187 C 0.78876 0.23233 0.08318 0.0
O188 O 0.75775 0.18209 0.01813 0.0
O189 O 0.7452 0.21331 0.01805 0.0
O190 O 0.7876 0.21957 0.98067 0.0
C191 C 0.74145 0.19089 0.01668 0.0
O192 O 0.78115 0.21021 0.08295 0.0
C193 C 0.7897 0.2417 0.98048 0.0
O194 O 0.79301 0.24064 0.06424 0.0
O195 O 0.79063 0.25386 1.00021 0.0
C196 C 0.08575 0.46721 0.24916 0.0
O197 O 0.07385 0.47216 0.23163 0.0
Cd198 Cd 0.08535 0.48347 0.19596 0.0
O199 O 0.10526 0.46664 0.24846 0.0
Cd200 Cd 0.13169 0.47135 0.22164 0.0
C201 C 0.12908 0.52919 0.22179 0.0
O202 O 0.10646 0.45683 0.18592 0.0
O203 O 0.13844 0.47239 0.1809 0.0
O204 O 0.14574 0.43907 0.23643 0.0
C205 C 0.11877 0.46394 0.17173 0.0
O206 O 0.11052 0.52255 0.2086 0.0
C207 C 0.16505 0.45138 0.24251 0.0
O208 O 0.13906 0.51415 0.22966 0.0
O209 O 0.16879 0.47276 0.23827 0.0
C210 C 0.86844 0.9795 0.54743 0.0
O211 O 0.85634 0.99067 0.53613 0.0
Cd212 Cd 0.8183 0.97905 0.52565 0.0
O213 O 0.86045 0.96019 0.5551 0.0
Cd214 Cd 0.82229 0.93477 0.55349 0.0
C215 C 0.81607 0.92555 0.49313 0.0
O216 O 0.80477 0.96741 0.55982 0.0
O217 O 0.783 0.93351 0.54711 0.0
O218 O 0.83172 0.92951 0.59519 0.0
C219 C 0.78551 0.95516 0.55501 0.0
O220 O 0.81422 0.94691 0.49428 0.0
C221 C 0.82409 0.90723 0.59275 0.0
O222 O 0.8196 0.91597 0.51187 0.0
O223 O 0.81664 0.8972 0.57174 0.0
C224 C 0.93251 0.03453 0.22263 0.0
O225 O 0.94366 0.02742 0.20848 0.0
Cd226 Cd 0.92972 0.02022 0.16763 0.0
O227 O 0.91466 0.03958 0.21493 0.0
Cd228 Cd 0.89162 0.0427 0.17724 0.0
C229 C 0.88077 0.98332 0.17003 0.0
O230 O 0.92267 0.05861 0.16185 0.0
O231 O 0.89336 0.04986 0.13587 0.0
O232 O 0.88722 0.07739 0.20004 0.0
C233 C 0.91315 0.06043 0.14162 0.0
O234 O 0.9003 0.98522 0.16762 0.0
C235 C 0.86736 0.0746 0.19174 0.0
O236 O 0.87331 1.0016 0.17277 0.0
O237 O 0.85852 0.05665 0.17647 0.0
C238 C 0.31303 0.67602 0.5336 0.0
O239 O 0.29829 0.665 0.54342 0.0
Cd240 Cd 0.26584 0.67554 0.54879 0.0
O241 O 0.31128 0.69518 0.52513 0.0
Cd242 Cd 0.28265 0.71936 0.52095 0.0
C243 C 0.2854 0.73137 0.58101 0.0
O244 O 0.25216 0.68508 0.51156 0.0
O245 O 0.24366 0.71792 0.52057 0.0
O246 O 0.2862 0.72106 0.47958 0.0
C247 C 0.23742 0.69591 0.5132 0.0
O248 O 0.27557 0.70963 0.57922 0.0
C249 C 0.28887 0.74329 0.47972 0.0
O250 O 0.29145 0.74014 0.56298 0.0
O251 O 0.28973 0.75523 0.49954 0.0
C252 C 0.42824 0.54149 0.72077 0.0
O253 O 0.43176 0.52819 0.70377 0.0
Cd254 Cd 0.41071 0.5134 0.66405 0.0
O255 O 0.41197 0.55064 0.71841 0.0
Cd256 Cd 0.38424 0.54962 0.68496 0.0
C257 C 0.3676 0.48739 0.68298 0.0
O258 O 0.39647 0.54468 0.64807 0.0
O259 O 0.40913 0.57888 0.66943 0.0
O260 O 0.36922 0.57654 0.7076 0.0
C261 C 0.40864 0.56545 0.65072 0.0
O262 O 0.38154 0.48233 0.6714 0.0
C263 C 0.35238 0.57445 0.69223 0.0
O264 O 0.36721 0.50887 0.68863 0.0
O265 O 0.35044 0.56093 0.67312 0.0
C266 C 0.58814 0.96789 0.75257 0.0
O267 O 0.57609 0.97293 0.73524 0.0
Cd268 Cd 0.5876 0.98565 0.70012 0.0
O269 O 0.60774 0.96781 0.75177 0.0
Cd270 Cd 0.6341 0.97348 0.72486 0.0
C271 C 0.63112 0.03128 0.72709 0.0
O272 O 0.60879 0.95949 0.68906 0.0
O273 O 0.64052 0.97623 0.68416 0.0
O274 O 0.64797 0.94058 0.73844 0.0
C275 C 0.62093 0.96732 0.67497 0.0
O276 O 0.61249 0.02471 0.71404 0.0
C277 C 0.66737 0.95262 0.74451 0.0
O278 O 0.64138 0.01618 0.73423 0.0
O279 O 0.67126 0.97417 0.74083 0.0
C280 C 0.80059 0.67927 0.01994 0.0
O281 O 0.7863 0.6663 0.02893 0.0
Cd282 Cd 0.75099 0.67153 0.03058 0.0
O283 O 0.79668 0.69712 0.01034 0.0
Cd284 Cd 0.7653 0.71671 0.00346 0.0
C285 C 0.7655 0.72741 0.06257 0.0
O286 O 0.73661 0.68034 0.9932 0.0
O287 O 0.72557 0.7117 0.00171 0.0
O288 O 0.77203 0.72163 0.96343 0.0
C289 C 0.7208 0.68957 0.99481 0.0
O290 O 0.75637 0.70542 0.06051 0.0
C291 C 0.774 0.7439 0.96499 0.0
O292 O 0.77236 0.73661 0.04516 0.0
O293 O 0.7721 0.75407 0.98469 0.0
C294 C 0.00464 0.67146 0.86121 0.0
O295 O 0.0173 0.66767 0.84732 0.0
Cd296 Cd 0.0089 0.66108 0.80536 0.0
O297 O 0.98593 0.67436 0.85339 0.0
Cd298 Cd 0.96549 0.67675 0.81388 0.0
C299 C 0.96202 0.61799 0.79939 0.0
O300 O 0.99507 0.69397 0.79474 0.0
O301 O 0.96445 0.67924 0.77203 0.0
O302 O 0.95164 0.71123 0.82415 0.0
C303 C 0.98393 0.69049 0.77419 0.0
O304 O 0.9817 0.62306 0.7969 0.0
C305 C 0.93197 0.70029 0.81746 0.0
O306 O 0.95295 0.63413 0.80599 0.0
O307 O 0.92806 0.67812 0.81096 0.0
C308 C 0.84842 0.48191 0.53078 0.0
O309 O 0.83523 0.49203 0.51965 0.0
Cd310 Cd 0.79734 0.48024 0.51243 0.0
O311 O 0.84169 0.46339 0.54036 0.0
Cd312 Cd 0.80482 0.43814 0.54376 0.0
C313 C 0.79426 0.42479 0.48306 0.0
O314 O 0.79039 0.47263 0.55036 0.0
O315 O 0.76629 0.43995 0.54465 0.0
O316 O 0.82116 0.4347 0.58439 0.0
C317 C 0.77103 0.46229 0.5501 0.0
O318 O 0.792 0.44593 0.48289 0.0
C319 C 0.8118 0.41312 0.58432 0.0
O320 O 0.7991 0.41688 0.50255 0.0
O321 O 0.79997 0.40259 0.56499 0.0
C322 C 0.6571 0.6063 0.38773 0.0
O323 O 0.64774 0.61378 0.37006 0.0
Cd324 Cd 0.65961 0.61694 0.33337 0.0
O325 O 0.6753 0.60116 0.38791 0.0
Cd326 Cd 0.70225 0.6022 0.36177 0.0
C327 C 0.70718 0.65947 0.35166 0.0
O328 O 0.67488 0.5837 0.32835 0.0
O329 O 0.70679 0.59322 0.32051 0.0
O330 O 0.71057 0.56887 0.37998 0.0
C331 C 0.68689 0.58418 0.31307 0.0
O332 O 0.68827 0.6527 0.33939 0.0
C333 C 0.73091 0.5763 0.38298 0.0
O334 O 0.71562 0.64524 0.36325 0.0
O335 O 0.73809 0.5965 0.37689 0.0
Pr336 Pr 0.0248 0.064 0.01442 0.0
Pr337 Pr 0.07142 0.08967 0.04244 0.0
C338 C 0.98195 0.05466 0.99874 0.0
C339 C 0.96605 0.06877 0.00223 0.0
C340 C 0.94593 0.06368 0.98726 0.0
C341 C 0.93109 0.07751 0.99049 0.0
C342 C 0.93611 0.09652 0.00888 0.0
C343 C 0.95637 0.10158 0.02374 0.0
C344 C 0.97123 0.088 0.0203 0.0
C345 C 0.05772 0.06313 0.98904 0.0
C346 C 0.04323 0.12333 0.01814 0.0
C347 C 0.11372 0.10036 0.06118 0.0
C348 C 0.1301 0.08641 0.06034 0.0
C349 C 0.14925 0.09231 0.07698 0.0
C350 C 0.16436 0.07837 0.07666 0.0
C351 C 0.1605 0.0582 0.05973 0.0
C352 C 0.14124 0.05243 0.04307 0.0
C353 C 0.12621 0.06639 0.04338 0.0
C354 C 0.03734 0.08977 0.06635 0.0
C355 C 0.05393 0.03005 0.03755 0.0
O356 O 0.9905 0.04689 0.01753 0.0
O357 O 0.99616 0.06319 0.98601 0.0
O358 O 0.05665 0.08036 0.00329 0.0
O359 O 0.04016 0.04625 0.98547 0.0
O360 O 0.06328 0.12135 0.02417 0.0
O361 O 0.02652 0.10537 0.01786 0.0
O362 O 0.10617 0.10685 0.0412 0.0
O363 O 0.09864 0.09247 0.07312 0.0
O364 O 0.03998 0.0728 0.05311 0.0
O365 O 0.0536 0.10812 0.06898 0.0
O366 O 0.03375 0.03124 0.03042 0.0
O367 O 0.07031 0.0487 0.03916 0.0
H368 H 0.9417 0.04905 0.9731 0.0
H369 H 0.91556 0.07308 0.97885 0.0
H370 H 0.96084 0.11627 0.03787 0.0
H371 H 0.98685 0.09257 0.03172 0.0
H372 H 0.15243 0.10757 0.09034 0.0
H373 H 0.1789 0.08317 0.08991 0.0
H374 H 0.13786 0.03726 0.02959 0.0
H375 H 0.11149 0.06149 0.03038 0.0
Pr376 Pr 0.31484 0.85571 0.29615 0.0
Pr377 Pr 0.28386 0.80238 0.26729 0.0
C378 C 0.34879 0.89106 0.31583 0.0
C379 C 0.35776 0.91508 0.31101 0.0
C380 C 0.34516 0.92665 0.29641 0.0
C381 C 0.35439 0.94867 0.29014 0.0
C382 C 0.3764 0.95924 0.29818 0.0
C383 C 0.38887 0.94763 0.31301 0.0
C384 C 0.3796 0.92571 0.31937 0.0
C385 C 0.27271 0.8572 0.27571 0.0
C386 C 0.30805 0.84439 0.23702 0.0
C387 C 0.24905 0.7695 0.24482 0.0
C388 C 0.23647 0.74527 0.24492 0.0
C389 C 0.24642 0.72638 0.24803 0.0
C390 C 0.23388 0.70338 0.24716 0.0
C391 C 0.21121 0.69895 0.24329 0.0
C392 C 0.2014 0.71806 0.24066 0.0
C393 C 0.21393 0.74099 0.24142 0.0
C394 C 0.32571 0.80067 0.28808 0.0
C395 C 0.29218 0.81324 0.32672 0.0
O396 O 0.3499 0.87408 0.29985 0.0
O397 O 0.33034 0.88755 0.32345 0.0
O398 O 0.28128 0.83993 0.27652 0.0
O399 O 0.28645 0.87588 0.28771 0.0
O400 O 0.29353 0.82421 0.23667 0.0
O401 O 0.31928 0.85764 0.25677 0.0
O402 O 0.24825 0.78548 0.26202 0.0
O403 O 0.26808 0.77204 0.23857 0.0
O404 O 0.31751 0.81818 0.28619 0.0
O405 O 0.31169 0.7817 0.27688 0.0
O406 O 0.30659 0.83348 0.32687 0.0
O407 O 0.2803 0.80013 0.30708 0.0
H408 H 0.32832 0.91844 0.28949 0.0
H409 H 0.34446 0.95712 0.27854 0.0
H410 H 0.4058 0.95553 0.31971 0.0
H411 H 0.38956 0.91685 0.33047 0.0
H412 H 0.26382 0.72932 0.25085 0.0
H413 H 0.24193 0.68902 0.249 0.0
H414 H 0.18402 0.71534 0.23806 0.0
H415 H 0.20599 0.7554 0.2391 0.0
Pr416 Pr 0.57522 0.08055 0.53488 0.0
Pr417 Pr 0.52486 0.07222 0.52661 0.0
C418 C 0.61745 0.08052 0.54376 0.0
C419 C 0.63327 0.06578 0.54617 0.0
C420 C 0.65395 0.07513 0.54175 0.0
C421 C 0.66968 0.06207 0.54425 0.0
C422 C 0.66509 0.03931 0.55126 0.0
C423 C 0.64416 0.02976 0.55536 0.0
C424 C 0.62835 0.04295 0.55288 0.0
C425 C 0.55667 0.09949 0.4969 0.0
C426 C 0.54427 0.02848 0.50775 0.0
C427 C 0.48304 0.07306 0.51412 0.0
C428 C 0.46689 0.08721 0.51633 0.0
C429 C 0.44685 0.07599 0.52126 0.0
C430 C 0.43075 0.08836 0.52251 0.0
C431 C 0.43428 0.11234 0.51885 0.0
C432 C 0.45443 0.12364 0.51392 0.0
C433 C 0.47064 0.1112 0.51273 0.0
C434 C 0.54276 0.05188 0.56398 0.0
C435 C 0.55603 0.12427 0.55539 0.0
O436 O 0.60588 0.08168 0.5603 0.0
O437 O 0.60679 0.08028 0.52259 0.0
O438 O 0.54951 0.07921 0.50231 0.0
O439 O 0.57454 0.11058 0.51073 0.0
O440 O 0.52823 0.03902 0.50303 0.0
O441 O 0.56254 0.03945 0.52198 0.0
O442 O 0.49769 0.07999 0.5013 0.0
O443 O 0.49034 0.06428 0.53284 0.0
O444 O 0.55047 0.07226 0.55893 0.0
O445 O 0.52421 0.04209 0.55066 0.0
O446 O 0.57327 0.11539 0.55672 0.0
O447 O 0.53675 0.11212 0.54416 0.0
H448 H 0.65799 0.09266 0.53641 0.0
H449 H 0.68546 0.06979 0.5405 0.0
H450 H 0.64013 0.01233 0.56088 0.0
H451 H 0.61241 0.03541 0.55632 0.0
H452 H 0.44353 0.05745 0.52387 0.0
H453 H 0.41533 0.07894 0.52591 0.0
H454 H 0.45774 0.14213 0.51118 0.0
H455 H 0.486 0.12029 0.5089 0.0
Pr456 Pr 0.27133 0.31704 0.77523 0.0
Pr457 Pr 0.32077 0.33668 0.77913 0.0
C458 C 0.23119 0.29648 0.78109 0.0
C459 C 0.21485 0.30043 0.79534 0.0
C460 C 0.20216 0.31663 0.78992 0.0
C461 C 0.18596 0.31924 0.80266 0.0
C462 C 0.18206 0.30571 0.82106 0.0
C463 C 0.19502 0.28986 0.82679 0.0
C464 C 0.21118 0.28716 0.81397 0.0
C465 C 0.28349 0.36062 0.75916 0.0
C466 C 0.30054 0.34861 0.82569 0.0
C467 C 0.36099 0.3579 0.77398 0.0
C468 C 0.37784 0.35464 0.76046 0.0
C469 C 0.3793 0.33192 0.75157 0.0
C470 C 0.39639 0.32917 0.74023 0.0
C471 C 0.41221 0.34909 0.73748 0.0
C472 C 0.4102 0.37185 0.74571 0.0
C473 C 0.39317 0.37456 0.75712 0.0
C474 C 0.30771 0.29197 0.79332 0.0
C475 C 0.29141 0.30449 0.72873 0.0
O476 O 0.24852 0.2913 0.79206 0.0
O477 O 0.23512 0.31044 0.76504 0.0
O478 O 0.29262 0.35463 0.77769 0.0
O479 O 0.26651 0.34441 0.74902 0.0
O480 O 0.31588 0.3569 0.81386 0.0
O481 O 0.28339 0.33171 0.81567 0.0
O482 O 0.34368 0.3626 0.76242 0.0
O483 O 0.35693 0.34335 0.78949 0.0
O484 O 0.29938 0.29935 0.77536 0.0
O485 O 0.32457 0.30775 0.80466 0.0
O486 O 0.27613 0.29657 0.74076 0.0
O487 O 0.30881 0.32128 0.73858 0.0
H488 H 0.20451 0.32711 0.77565 0.0
H489 H 0.17638 0.33178 0.798 0.0
H490 H 0.19222 0.27898 0.84068 0.0
H491 H 0.22057 0.27437 0.81839 0.0
H492 H 0.36747 0.31632 0.75378 0.0
H493 H 0.39733 0.31143 0.7338 0.0
H494 H 0.42221 0.38752 0.7441 0.0
H495 H 0.39224 0.39223 0.76385 0.0
Pr496 Pr 0.03538 0.06135 0.50277 0.0
Pr497 Pr 0.06383 0.09257 0.5549 0.0
C498 C 0.00325 0.03686 0.46864 0.0
C499 C 0.99656 0.03724 0.44348 0.0
C500 C 0.01039 0.05093 0.4309 0.0
C501 C 0.00382 0.05152 0.40693 0.0
C502 C 0.98328 0.03853 0.3953 0.0
C503 C 0.96946 0.02493 0.40808 0.0
C504 C 0.97609 0.02429 0.43204 0.0
C505 C 0.07778 0.08476 0.50007 0.0
C506 C 0.03965 0.12049 0.51394 0.0
C507 C 0.09793 0.11544 0.58752 0.0
C508 C 0.10952 0.11098 0.60987 0.0
C509 C 0.09841 0.10131 0.62702 0.0
C510 C 0.10972 0.09546 0.64729 0.0
C511 C 0.1323 0.09889 0.65063 0.0
C512 C 0.14333 0.10873 0.63343 0.0
C513 C 0.13203 0.11478 0.61328 0.0
C514 C 0.02159 0.06831 0.55751 0.0
C515 C 0.05767 0.0332 0.54499 0.0
O516 O 1.00153 0.05528 0.48245 0.0
O517 O 0.02119 0.03004 0.47468 0.0
O518 O 0.06834 0.08414 0.51742 0.0
O519 O 0.06477 0.0713 0.48203 0.0
O520 O 0.05375 0.12227 0.53375 0.0
O521 O 0.02954 0.09985 0.50094 0.0
O522 O 0.09953 0.10184 0.56884 0.0
O523 O 0.07857 0.11928 0.58728 0.0
O524 O 0.03098 0.06969 0.54014 0.0
O525 O 0.03463 0.0813 0.57586 0.0
O526 O 0.0436 0.03174 0.52526 0.0
O527 O 0.06855 0.05375 0.55763 0.0
H528 H 0.02621 0.06121 0.43965 0.0
H529 H 0.01469 0.06237 0.39758 0.0
H530 H 0.95363 0.01457 0.39948 0.0
H531 H 0.96525 0.0137 0.44163 0.0
H532 H 0.08099 0.09799 0.62466 0.0
H533 H 0.10075 0.08832 0.66037 0.0
H534 H 0.16065 0.11131 0.63525 0.0
H535 H 0.14084 0.12196 0.60007 0.0
Pr536 Pr 0.28455 0.80079 0.78393 0.0
Pr537 Pr 0.30483 0.85782 0.78136 0.0
C538 C 0.26899 0.75358 0.77519 0.0
C539 C 0.26831 0.73313 0.75821 0.0
C540 C 0.25342 0.71173 0.75837 0.0
C541 C 0.25469 0.69107 0.74498 0.0
C542 C 0.27084 0.69166 0.7312 0.0
C543 C 0.28478 0.71352 0.72984 0.0
C544 C 0.28361 0.73411 0.74339 0.0
C545 C 0.2827 0.82934 0.82548 0.0
C546 C 0.33725 0.8239 0.80191 0.0
C547 C 0.3174 0.90502 0.79367 0.0
C548 C 0.3116 0.92122 0.81105 0.0
C549 C 0.32296 0.94498 0.81626 0.0
C550 C 0.31738 0.96019 0.83311 0.0
C551 C 0.30067 0.95169 0.84547 0.0
C552 C 0.2898 0.92754 0.84045 0.0
C553 C 0.29484 0.91269 0.82299 0.0
C554 C 0.30683 0.82962 0.73977 0.0
C555 C 0.25376 0.83376 0.75908 0.0
O556 O 0.25771 0.76858 0.76816 0.0
O557 O 0.28792 0.76374 0.78803 0.0
O558 O 0.2895 0.8358 0.8074 0.0
O559 O 0.27516 0.80654 0.82188 0.0
O560 O 0.33393 0.84548 0.80118 0.0
O561 O 0.32198 0.80429 0.79387 0.0
O562 O 0.32817 0.89029 0.80249 0.0
O563 O 0.30199 0.89493 0.77582 0.0
O564 O 0.29985 0.82283 0.75773 0.0
O565 O 0.3141 0.85257 0.74339 0.0
O566 O 0.25818 0.81261 0.75842 0.0
O567 O 0.26736 0.85304 0.77111 0.0
H568 H 0.24149 0.71076 0.76973 0.0
H569 H 0.24373 0.67445 0.74624 0.0
H570 H 0.29759 0.71442 0.71964 0.0
H571 H 0.29538 0.75048 0.74329 0.0
H572 H 0.3359 0.95184 0.80705 0.0
H573 H 0.32584 0.97871 0.8359 0.0
H574 H 0.27722 0.91999 0.84979 0.0
H575 H 0.28565 0.89444 0.81882 0.0
Pr576 Pr 0.55779 0.07539 0.0558 0.0
Pr577 Pr 0.542 0.07747 0.99851 0.0
C578 C 0.56772 0.08928 0.10234 0.0
C579 C 0.56055 0.10675 0.117 0.0
C580 C 0.57095 0.11466 0.14029 0.0
C581 C 0.56411 0.13168 0.15391 0.0
C582 C 0.54696 0.14126 0.14426 0.0
C583 C 0.53697 0.13352 0.12065 0.0
C584 C 0.5435 0.11618 0.10729 0.0
C585 C 0.55783 0.03275 0.02841 0.0
C586 C 0.5055 0.05853 0.03166 0.0
C587 C 0.5308 0.06511 0.95168 0.0
C588 C 0.53573 0.04852 0.93396 0.0
C589 C 0.52282 0.04292 0.91157 0.0
C590 C 0.52746 0.02725 0.89448 0.0
C591 C 0.54499 0.01667 0.89962 0.0
C592 C 0.55761 0.02203 0.92238 0.0
C593 C 0.55316 0.03804 0.9393 0.0
C594 C 0.54188 0.12003 0.02621 0.0
C595 C 0.59423 0.09421 0.02238 0.0
O596 O 0.57986 0.09813 0.08765 0.0
O597 O 0.55275 0.07026 0.09281 0.0
O598 O 0.55321 0.05117 0.02143 0.0
O599 O 0.56369 0.03646 0.05124 0.0
O600 O 0.51037 0.05889 0.01033 0.0
O601 O 0.51995 0.06645 0.05123 0.0
O602 O 0.51938 0.05544 0.96661 0.0
O603 O 0.54669 0.08315 0.96151 0.0
O604 O 0.54657 0.10155 0.03287 0.0
O605 O 0.53586 0.11643 0.00343 0.0
O606 O 0.58971 0.09354 0.04386 0.0
O607 O 0.57965 0.08637 0.00292 0.0
H608 H 0.58417 0.10752 0.14799 0.0
H609 H 0.57191 0.13682 0.17215 0.0
H610 H 0.52402 0.14075 0.11244 0.0
H611 H 0.53532 0.11023 0.08925 0.0
H612 H 0.50932 0.05094 0.9072 0.0
H613 H 0.51767 0.02401 0.87704 0.0
H614 H 0.57103 0.01402 0.9271 0.0
H615 H 0.56338 0.04232 0.95654 0.0
Pr616 Pr 0.27868 0.30959 0.27589 0.0
Pr617 Pr 0.3228 0.35264 0.28946 0.0
C618 C 0.23897 0.28281 0.27556 0.0
C619 C 0.22072 0.28568 0.28748 0.0
C620 C 0.21487 0.27121 0.30464 0.0
C621 C 0.19815 0.27423 0.31654 0.0
C622 C 0.18674 0.29166 0.31141 0.0
C623 C 0.19252 0.30604 0.29415 0.0
C624 C 0.20933 0.30315 0.28237 0.0
C625 C 0.29685 0.32682 0.23806 0.0
C626 C 0.27718 0.36676 0.29226 0.0
C627 C 0.36011 0.38117 0.28398 0.0
C628 C 0.37746 0.3781 0.27083 0.0
C629 C 0.39899 0.38449 0.28256 0.0
C630 C 0.41549 0.37973 0.27119 0.0
C631 C 0.41086 0.36859 0.24775 0.0
C632 C 0.38934 0.36281 0.23578 0.0
C633 C 0.37279 0.36736 0.24725 0.0
C634 C 0.31054 0.33393 0.32992 0.0
C635 C 0.32495 0.29609 0.28214 0.0
O636 O 0.25626 0.27986 0.28891 0.0
O637 O 0.24341 0.29653 0.25944 0.0
O638 O 0.29587 0.33894 0.25692 0.0
O639 O 0.28708 0.30462 0.23766 0.0
O640 O 0.2977 0.37548 0.29127 0.0
O641 O 0.26817 0.34371 0.28976 0.0
O642 O 0.34137 0.3814 0.27167 0.0
O643 O 0.35845 0.36916 0.30186 0.0
O644 O 0.30175 0.32796 0.30872 0.0
O645 O 0.32672 0.35214 0.33125 0.0
O646 O 0.30481 0.28856 0.28509 0.0
O647 O 0.33242 0.31763 0.27693 0.0
H648 H 0.22331 0.25759 0.30893 0.0
H649 H 0.19396 0.26269 0.32957 0.0
H650 H 0.18426 0.31984 0.28998 0.0
H651 H 0.21347 0.31477 0.26941 0.0
H652 H 0.403 0.39271 0.30074 0.0
H653 H 0.43192 0.38465 0.28083 0.0
H654 H 0.38521 0.35401 0.21781 0.0
H655 H 0.3563 0.36195 0.23782 0.0
Pr656 Pr 0.53309 0.55932 0.99806 0.0
Pr657 Pr 0.55805 0.59123 0.0508 0.0
C658 C 0.50407 0.53423 0.96139 0.0
C659 C 0.49921 0.53509 0.93589 0.0
C660 C 0.51524 0.53611 0.92186 0.0
C661 C 0.51052 0.53853 0.89799 0.0
C662 C 0.48982 0.54029 0.8879 0.0
C663 C 0.47375 0.53886 0.90188 0.0
C664 C 0.47839 0.5362 0.92564 0.0
C665 C 0.57576 0.58402 0.99798 0.0
C666 C 0.53521 0.6181 0.00813 0.0
C667 C 0.58945 0.61544 0.08578 0.0
C668 C 0.59841 0.61046 0.10896 0.0
C669 C 0.58986 0.58888 0.11671 0.0
C670 C 0.59935 0.58325 0.13805 0.0
C671 C 0.61755 0.59911 0.15193 0.0
C672 C 0.62588 0.62086 0.14415 0.0
C673 C 0.61637 0.62647 0.12277 0.0
C674 C 0.51566 0.56583 0.0513 0.0
C675 C 0.55407 0.53233 0.04206 0.0
O676 O 0.50029 0.5517 0.97487 0.0
O677 O 0.5219 0.52801 0.96951 0.0
O678 O 0.56523 0.58319 0.01443 0.0
O679 O 0.56387 0.57014 0.97956 0.0
O680 O 0.54844 0.6203 0.02862 0.0
O681 O 0.52614 0.59728 0.99495 0.0
O682 O 0.593 0.60203 0.06804 0.0
O683 O 0.56971 0.61852 0.0832 0.0
O684 O 0.52579 0.56722 0.03445 0.0
O685 O 0.52792 0.57913 0.06992 0.0
O686 O 0.54071 0.53021 0.02166 0.0
O687 O 0.56407 0.55318 0.05463 0.0
H688 H 0.53151 0.53549 0.92939 0.0
H689 H 0.5232 0.53969 0.88758 0.0
H690 H 0.45756 0.53983 0.89443 0.0
H691 H 0.46581 0.53542 0.93614 0.0
H692 H 0.57609 0.57624 0.10603 0.0
H693 H 0.59272 0.56626 0.14343 0.0
H694 H 0.63969 0.63358 0.15464 0.0
H695 H 0.62317 0.64314 0.11688 0.0
Pr696 Pr 0.78225 0.30111 0.28332 0.0
Pr697 Pr 0.80575 0.35825 0.28329 0.0
C698 C 0.76694 0.25427 0.2707 0.0
C699 C 0.77536 0.23566 0.25952 0.0
C700 C 0.76317 0.21217 0.25511 0.0
C701 C 0.77209 0.19415 0.24625 0.0
C702 C 0.7933 0.19955 0.24182 0.0
C703 C 0.80511 0.2233 0.24549 0.0
C704 C 0.79623 0.2412 0.25438 0.0
C705 C 0.78052 0.32895 0.32518 0.0
C706 C 0.83451 0.32166 0.30519 0.0
C707 C 0.82029 0.40522 0.29649 0.0
C708 C 0.81489 0.42185 0.31379 0.0
C709 C 0.82574 0.44581 0.31774 0.0
C710 C 0.81975 0.46164 0.33365 0.0
C711 C 0.80315 0.45359 0.34629 0.0
C712 C 0.79302 0.42922 0.34279 0.0
C713 C 0.79839 0.41373 0.3262 0.0
C714 C 0.80845 0.33008 0.24195 0.0
C715 C 0.75255 0.33755 0.26281 0.0
O716 O 0.76214 0.26997 0.25731 0.0
O717 O 0.77742 0.26362 0.29187 0.0
O718 O 0.78823 0.33575 0.30762 0.0
O719 O 0.77203 0.30627 0.32079 0.0
O720 O 0.83195 0.34366 0.3062 0.0
O721 O 0.81939 0.30306 0.29393 0.0
O722 O 0.83001 0.38961 0.30525 0.0
O723 O 0.80491 0.39602 0.27838 0.0
O724 O 0.80032 0.32364 0.25935 0.0
O725 O 0.81682 0.35282 0.24614 0.0
O726 O 0.75401 0.31543 0.26438 0.0
O727 O 0.76882 0.35629 0.27073 0.0
H728 H 0.74703 0.2077 0.2591 0.0
H729 H 0.76272 0.17597 0.24373 0.0
H730 H 0.82136 0.228 0.24187 0.0
H731 H 0.80585 0.25931 0.2578 0.0
H732 H 0.83841 0.45238 0.30807 0.0
H733 H 0.82768 0.48027 0.33531 0.0
H734 H 0.78057 0.42201 0.35245 0.0
H735 H 0.78938 0.3954 0.32272 0.0
Pr736 Pr 0.0558 0.57506 0.55402 0.0
Pr737 Pr 0.0401 0.57667 0.49663 0.0
C738 C 0.06555 0.58783 0.60076 0.0
C739 C 0.06032 0.60653 0.61584 0.0
C740 C 0.07098 0.61318 0.6392 0.0
C741 C 0.06529 0.63056 0.65358 0.0
C742 C 0.04903 0.64172 0.64463 0.0
C743 C 0.03906 0.63554 0.62085 0.0
C744 C 0.0444 0.61783 0.60674 0.0
C745 C 0.05751 0.53297 0.52649 0.0
C746 C 0.0039 0.55618 0.52958 0.0
C747 C 0.02961 0.56464 0.44973 0.0
C748 C 0.03426 0.54797 0.43185 0.0
C749 C 0.0214 0.54292 0.40942 0.0
C750 C 0.02585 0.52736 0.39208 0.0
C751 C 0.04311 0.51635 0.39698 0.0
C752 C 0.05564 0.52112 0.41978 0.0
C753 C 0.05139 0.53701 0.43699 0.0
C754 C 0.0387 0.61889 0.52414 0.0
C755 C 0.09107 0.59827 0.52141 0.0
O756 O 0.07884 0.59523 0.5866 0.0
O757 O 0.04903 0.57065 0.59055 0.0
O758 O 0.05236 0.55116 0.51968 0.0
O759 O 0.06337 0.53676 0.54929 0.0
O760 O 0.00902 0.55617 0.50833 0.0
O761 O 0.018 0.56534 0.54914 0.0
O762 O 0.01769 0.55515 0.46433 0.0
O763 O 0.04579 0.58222 0.45992 0.0
O764 O 0.04375 0.60064 0.53092 0.0
O765 O 0.03288 0.61517 0.50134 0.0
O766 O 0.08542 0.59891 0.54241 0.0
O767 O 0.0779 0.58657 0.50206 0.0
H768 H 0.08331 0.60457 0.64645 0.0
H769 H 0.07305 0.63455 0.6719 0.0
H770 H 0.02678 0.64401 0.61321 0.0
H771 H 0.03591 0.61273 0.58872 0.0
H772 H 0.00814 0.55132 0.4052 0.0
H773 H 0.01612 0.52458 0.37463 0.0
H774 H 0.06887 0.51277 0.42432 0.0
H775 H 0.06157 0.54087 0.45424 0.0
Pr776 Pr 0.77205 0.83082 0.27338 0.0
Pr777 Pr 0.82164 0.835 0.27967 0.0
C778 C 0.72955 0.82435 0.27409 0.0
C779 C 0.71311 0.82036 0.28908 0.0
C780 C 0.69225 0.82213 0.27995 0.0
C781 C 0.67608 0.81837 0.29352 0.0
C782 C 0.68044 0.81272 0.31657 0.0
C783 C 0.70152 0.81118 0.32581 0.0
C784 C 0.71776 0.81492 0.31211 0.0
C785 C 0.79437 0.86683 0.25186 0.0
C786 C 0.80329 0.85414 0.32533 0.0
C787 C 0.86408 0.84228 0.27834 0.0
C788 C 0.88099 0.84766 0.26383 0.0
C789 C 0.8815 0.8321 0.24396 0.0
C790 C 0.89951 0.83575 0.23284 0.0
C791 C 0.91734 0.85493 0.24146 0.0
C792 C 0.91617 0.87122 0.26043 0.0
C793 C 0.89822 0.86757 0.27152 0.0
C794 C 0.79847 0.79743 0.29875 0.0
C795 C 0.79006 0.80987 0.22835 0.0
O796 O 0.73867 0.80692 0.26939 0.0
O797 O 0.74289 0.8453 0.27758 0.0
O798 O 0.80106 0.86162 0.27189 0.0
O799 O 0.77493 0.85465 0.24329 0.0
O800 O 0.82012 0.85765 0.31459 0.0
O801 O 0.78406 0.84172 0.31431 0.0
O802 O 0.85508 0.85931 0.28477 0.0
O803 O 0.85082 0.82124 0.2741 0.0
O804 O 0.79265 0.80404 0.27926 0.0
O805 O 0.8177 0.80937 0.30869 0.0
O806 O 0.77339 0.80687 0.23936 0.0
O807 O 0.80936 0.8227 0.23886 0.0
H808 H 0.68845 0.82646 0.26224 0.0
H809 H 0.66017 0.82015 0.28602 0.0
H810 H 0.70535 0.80675 0.34345 0.0
H811 H 0.73385 0.81351 0.3194 0.0
H812 H 0.86841 0.8166 0.23758 0.0
H813 H 0.89996 0.82282 0.21834 0.0
H814 H 0.92948 0.88639 0.26724 0.0
H815 H 0.8982 0.87984 0.28677 0.0
Pr816 Pr 0.81381 0.35024 0.79393 0.0
Pr817 Pr 0.78285 0.30371 0.76933 0.0
C818 C 0.84512 0.38591 0.81916 0.0
C819 C 0.85724 0.40886 0.81461 0.0
C820 C 0.8765 0.42049 0.82975 0.0
C821 C 0.88834 0.44219 0.82527 0.0
C822 C 0.88102 0.45258 0.80559 0.0
C823 C 0.86173 0.44072 0.79037 0.0
C824 C 0.84998 0.41896 0.7948 0.0
C825 C 0.77286 0.35475 0.77453 0.0
C826 C 0.80707 0.34315 0.73676 0.0
C827 C 0.75143 0.26926 0.74236 0.0
C828 C 0.73805 0.24582 0.74355 0.0
C829 C 0.73977 0.23537 0.76437 0.0
C830 C 0.72675 0.21297 0.76515 0.0
C831 C 0.71182 0.20079 0.74512 0.0
C832 C 0.71019 0.21149 0.72435 0.0
C833 C 0.72321 0.23384 0.72361 0.0
C834 C 0.82428 0.29971 0.78749 0.0
C835 C 0.79072 0.31027 0.82671 0.0
O836 O 0.84903 0.36729 0.80781 0.0
O837 O 0.8246 0.38404 0.81954 0.0
O838 O 0.77666 0.33816 0.78585 0.0
O839 O 0.79045 0.37052 0.77423 0.0
O840 O 0.79062 0.32538 0.7378 0.0
O841 O 0.82067 0.35421 0.75596 0.0
O842 O 0.74765 0.28706 0.75521 0.0
O843 O 0.77197 0.27067 0.74263 0.0
O844 O 0.81976 0.31614 0.77644 0.0
O845 O 0.80706 0.28357 0.78831 0.0
O846 O 0.80654 0.3287 0.8256 0.0
O847 O 0.77721 0.29872 0.80759 0.0
H848 H 0.88234 0.4128 0.84504 0.0
H849 H 0.90301 0.45106 0.83743 0.0
H850 H 0.85584 0.44817 0.77494 0.0
H851 H 0.83524 0.40999 0.78276 0.0
H852 H 0.75114 0.24454 0.77996 0.0
H853 H 0.72824 0.20528 0.78144 0.0
H854 H 0.69913 0.20242 0.70853 0.0
H855 H 0.72175 0.24173 0.70741 0.0
Pr856 Pr 0.7793 0.81015 0.77458 0.0
Pr857 Pr 0.8217 0.84852 0.78775 0.0
C858 C 0.7394 0.78335 0.77366 0.0
C859 C 0.72177 0.7849 0.78691 0.0
C860 C 0.70145 0.78565 0.77474 0.0
C861 C 0.68481 0.78803 0.78697 0.0
C862 C 0.68804 0.78955 0.81172 0.0
C863 C 0.70844 0.78867 0.82386 0.0
C864 C 0.72513 0.78647 0.81163 0.0
C865 C 0.79506 0.82841 0.73588 0.0
C866 C 0.77854 0.86571 0.79263 0.0
C867 C 0.86126 0.87539 0.78679 0.0
C868 C 0.87812 0.87189 0.77322 0.0
C869 C 0.89891 0.88682 0.77886 0.0
C870 C 0.91503 0.88284 0.76639 0.0
C871 C 0.91066 0.86364 0.74828 0.0
C872 C 0.88971 0.84893 0.74253 0.0
C873 C 0.87358 0.85313 0.75474 0.0
C874 C 0.80639 0.82975 0.82647 0.0
C875 C 0.82253 0.79228 0.77286 0.0
O876 O 0.75687 0.77886 0.78511 0.0
O877 O 0.74349 0.79926 0.75945 0.0
O878 O 0.79494 0.84028 0.75519 0.0
O879 O 0.78578 0.80613 0.73552 0.0
O880 O 0.79797 0.87314 0.7878 0.0
O881 O 0.77047 0.84306 0.79372 0.0
O882 O 0.84355 0.87846 0.77453 0.0
O883 O 0.85754 0.86099 0.80247 0.0
O884 O 0.80631 0.81823 0.80693 0.0
O885 O 0.81588 0.85206 0.82719 0.0
O886 O 0.8028 0.78528 0.77699 0.0
O887 O 0.83065 0.81465 0.77068 0.0
H888 H 0.69849 0.78467 0.75571 0.0
H889 H 0.66951 0.78908 0.77698 0.0
H890 H 0.71151 0.78945 0.84285 0.0
H891 H 0.74066 0.7861 0.82158 0.0
H892 H 0.90272 0.90141 0.79304 0.0
H893 H 0.93106 0.89439 0.7713 0.0
H894 H 0.88577 0.8342 0.72848 0.0
H895 H 0.85756 0.84162 0.74981 0.0
Pr896 Pr 0.52524 0.56643 0.52689 0.0
Pr897 Pr 0.5728 0.59263 0.55337 0.0
C898 C 0.48209 0.55563 0.51295 0.0
C899 C 0.46549 0.56936 0.51345 0.0
C900 C 0.44457 0.55995 0.50074 0.0
C901 C 0.42864 0.57272 0.50162 0.0
C902 C 0.4334 0.59522 0.51514 0.0
C903 C 0.45451 0.60473 0.52759 0.0
C904 C 0.47037 0.59185 0.52686 0.0
C905 C 0.55768 0.56855 0.50039 0.0
C906 C 0.54324 0.62612 0.53041 0.0
C907 C 0.61586 0.60295 0.56704 0.0
C908 C 0.6315 0.58795 0.56681 0.0
C909 C 0.65139 0.59446 0.58224 0.0
C910 C 0.66616 0.5801 0.58188 0.0
C911 C 0.66126 0.55892 0.5661 0.0
C912 C 0.64117 0.55242 0.55082 0.0
C913 C 0.62647 0.56677 0.55118 0.0
C914 C 0.54013 0.59136 0.57934 0.0
C915 C 0.55516 0.53253 0.54861 0.0
O916 O 0.49154 0.55208 0.53351 0.0
O917 O 0.49557 0.56121 0.49853 0.0
O918 O 0.55575 0.58467 0.51523 0.0
O919 O 0.54127 0.55023 0.49716 0.0
O920 O 0.56339 0.62457 0.53674 0.0
O921 O 0.52663 0.60782 0.52955 0.0
O922 O 0.60644 0.60613 0.5463 0.0
O923 O 0.60252 0.59884 0.58189 0.0
O924 O 0.54227 0.5748 0.5651 0.0
O925 O 0.55632 0.60988 0.58202 0.0
O926 O 0.53497 0.53341 0.54111 0.0
O927 O 0.57144 0.5515 0.55122 0.0
H928 H 0.44052 0.54264 0.49027 0.0
H929 H 0.41257 0.565 0.4917 0.0
H930 H 0.45862 0.62184 0.53841 0.0
H931 H 0.48636 0.59933 0.53703 0.0
H932 H 0.65549 0.61064 0.59453 0.0
H933 H 0.68136 0.5855 0.59409 0.0
H934 H 0.63695 0.53647 0.53821 0.0
H935 H 0.61121 0.5614 0.53906 0.0
Pr936 Pr 0.07415 0.58155 0.03773 0.0
Pr937 Pr 0.02383 0.57558 0.0306 0.0
C938 C 0.11587 0.57932 0.04574 0.0
C939 C 0.13124 0.56404 0.04823 0.0
C940 C 0.15189 0.57265 0.04337 0.0
C941 C 0.16728 0.55917 0.046 0.0
C942 C 0.16237 0.5367 0.0536 0.0
C943 C 0.14146 0.52785 0.05811 0.0
C944 C 0.12599 0.54148 0.05551 0.0
C945 C 0.05689 0.60442 0.00212 0.0
C946 C 0.04108 0.53074 0.00977 0.0
C947 C 0.98238 0.57861 0.02059 0.0
C948 C 0.96798 0.59518 0.02045 0.0
C949 C 0.96712 0.60945 0.04106 0.0
C950 C 0.95152 0.62277 0.0411 0.0
C951 C 0.93652 0.62218 0.02054 0.0
C952 C 0.93808 0.60875 0.9997 0.0
C953 C 0.9536 0.59533 0.9997 0.0
C954 C 0.04112 0.55223 0.06584 0.0
C955 C 0.05704 0.62612 0.06006 0.0
O956 O 0.10484 0.58164 0.06263 0.0
O957 O 0.10493 0.57889 0.02467 0.0
O958 O 0.04839 0.58393 0.00626 0.0
O959 O 0.07557 0.61307 0.01546 0.0
O960 O 0.02527 0.54181 0.0063 0.0
O961 O 0.05993 0.54106 0.02326 0.0
O962 O 0.99493 0.57952 0.00483 0.0
O963 O 0.99137 0.57423 0.04103 0.0
O964 O 0.04948 0.5728 0.06176 0.0
O965 O 0.02224 0.54381 0.05271 0.0
O966 O 0.07357 0.61605 0.06126 0.0
O967 O 0.03758 0.61525 0.04827 0.0
H968 H 0.15619 0.58996 0.0376 0.0
H969 H 0.18304 0.56634 0.04193 0.0
H970 H 0.13721 0.51065 0.06407 0.0
H971 H 0.11007 0.5345 0.0593 0.0
H972 H 0.97809 0.60985 0.05732 0.0
H973 H 0.95094 0.6332 0.05737 0.0
H974 H 0.92667 0.6077 0.98362 0.0
H975 H 0.95389 0.58441 0.98361 0.0
H976 H 0.00472 0.25467 0.98843 0.0
H977 H 0.0686 0.15424 0.99562 0.0
H978 H 0.02617 0.22622 0.9274 0.0
H979 H 0.0084 0.14275 0.02131 0.0
H980 H 0.06008 0.18871 0.97839 0.0
H981 H 0.01194 0.2207 0.00825 0.0
C982 C 0.01081 0.24127 0.97919 0.0
C983 C 0.01467 0.24316 0.95615 0.0
C984 C 0.04889 0.17875 0.98804 0.0
C985 C 0.02367 0.20509 0.97893 0.0
C986 C 0.05378 0.15921 0.998 0.0
C987 C 0.03919 0.1456 0.00991 0.0
C988 C 0.02956 0.18518 0.99053 0.0
C989 C 0.02007 0.15274 0.0122 0.0
C990 C 0.01491 0.22198 0.99047 0.0
C991 C 0.02272 0.22536 0.94503 0.0
N992 N 0.01584 0.17217 0.00273 0.0
N993 N 0.02725 0.20732 0.95663 0.0
H994 H 0.16658 0.839 0.1585 0.0
H995 H 0.249 0.89032 0.27906 0.0
H996 H 0.15122 0.88288 0.2145 0.0
H997 H 0.24976 0.82498 0.23801 0.0
H998 H 0.21576 0.89173 0.25283 0.0
H999 H 0.20013 0.83777 0.18447 0.0
C1000 C 0.17037 0.84857 0.17614 0.0
C1001 C 0.15609 0.86106 0.18436 0.0
C1002 C 0.22314 0.87702 0.24965 0.0
C1003 C 0.19438 0.8598 0.21404 0.0
C1004 C 0.24207 0.8762 0.2646 0.0
C1005 C 0.25197 0.85738 0.26083 0.0
C1006 C 0.2143 0.85915 0.23045 0.0
C1007 C 0.24245 0.83963 0.24172 0.0
C1008 C 0.18941 0.84771 0.19099 0.0
C1009 C 0.16174 0.87299 0.20746 0.0
N1010 N 0.22423 0.84103 0.22711 0.0
N1011 N 0.18045 0.87216 0.22143 0.0
H1012 H 0.51669 0.90032 0.41073 0.0
H1013 H 0.56567 0.99553 0.52365 0.0
H1014 H 0.53911 0.87838 0.47726 0.0
H1015 H 0.51614 0.00442 0.46844 0.0
H1016 H 0.56029 0.9541 0.50605 0.0
H1017 H 0.52052 0.94014 0.4306 0.0
C1018 C 0.52245 0.9039 0.42959 0.0
C1019 C 0.52765 0.88599 0.44236 0.0
C1020 C 0.55058 0.96516 0.49791 0.0
C1021 C 0.5323 0.93185 0.46523 0.0
C1022 C 0.55374 0.98881 0.50779 0.0
C1023 C 0.54141 0.0035 0.49739 0.0
C1024 C 0.53532 0.95632 0.47723 0.0
C1025 C 0.52601 0.99378 0.47704 0.0
C1026 C 0.52453 0.92664 0.44092 0.0
C1027 C 0.53486 0.89166 0.46679 0.0
N1028 N 0.52356 0.97092 0.46752 0.0
N1029 N 0.53723 0.91424 0.47745 0.0
H1030 H 0.53099 0.31238 0.71818 0.0
H1031 H 0.43223 0.37508 0.7064 0.0
H1032 H 0.52329 0.36238 0.66889 0.0
H1033 H 0.43631 0.31664 0.74608 0.0
H1034 H 0.46554 0.37145 0.69259 0.0
H1035 H 0.49646 0.31456 0.72884 0.0
C1036 C 0.52205 0.32387 0.70956 0.0
C1037 C 0.53016 0.3373 0.69264 0.0
C1038 C 0.45903 0.35933 0.70417 0.0
C1039 C 0.49035 0.33988 0.70489 0.0
C1040 C 0.44008 0.36144 0.71214 0.0
C1041 C 0.43146 0.34615 0.72745 0.0
C1042 C 0.46954 0.34194 0.71175 0.0
C1043 C 0.44219 0.32865 0.7341 0.0
C1044 C 0.50223 0.32503 0.71563 0.0
C1045 C 0.51769 0.35173 0.68203 0.0
N1046 N 0.4607 0.32714 0.72634 0.0
N1047 N 0.49844 0.35274 0.68842 0.0
H1048 H 0.07926 0.92694 0.63544 0.0
H1049 H 0.04309 0.98741 0.52219 0.0
H1050 H 0.05717 0.88727 0.56604 0.0
H1051 H 0.0787 0.02715 0.58831 0.0
H1052 H 0.04659 0.95056 0.53788 0.0
H1053 H 0.07753 0.96348 0.6186 0.0
C1054 C 0.07404 0.92586 0.61661 0.0
C1055 C 0.06833 0.90385 0.60218 0.0
C1056 C 0.05373 0.96735 0.5489 0.0
C1057 C 0.06618 0.946 0.58266 0.0
C1058 C 0.05172 0.98847 0.53997 0.0
C1059 C 0.06061 0.01061 0.55389 0.0
C1060 C 0.06448 0.96818 0.57208 0.0
C1061 C 0.07162 0.01064 0.57682 0.0
C1062 C 0.07311 0.94683 0.60698 0.0
C1063 C 0.06175 0.90377 0.57787 0.0
N1064 N 0.0731 0.98984 0.58519 0.0
N1065 N 0.06074 0.92446 0.56891 0.0
H1066 H 0.45146 0.7923 0.88358 0.0
H1067 H 0.37453 0.85788 0.80707 0.0
H1068 H 0.47335 0.84875 0.84341 0.0
H1069 H 0.35026 0.7863 0.82082 0.0
H1070 H 0.41053 0.85628 0.82536 0.0
H1071 H 0.41387 0.79097 0.86544 0.0
C1072 C 0.44842 0.80436 0.87103 0.0
C1073 C 0.46567 0.82064 0.86504 0.0
C1074 C 0.3974 0.84083 0.82435 0.0
C1075 C 0.42298 0.81935 0.84456 0.0
C1076 C 0.37675 0.84175 0.81393 0.0
C1077 C 0.35928 0.82217 0.81231 0.0
C1078 C 0.40082 0.82027 0.8336 0.0
C1079 C 0.36331 0.80174 0.82153 0.0
C1080 C 0.42703 0.80351 0.86064 0.0
C1081 C 0.46074 0.8358 0.84861 0.0
N1082 N 0.38368 0.80135 0.83195 0.0
N1083 N 0.44 0.83486 0.83914 0.0
H1084 H 0.54706 0.26782 0.07597 0.0
H1085 H 0.56425 0.1349 0.0713 0.0
H1086 H 0.57264 0.23826 0.13661 0.0
H1087 H 0.5266 0.1583 0.01424 0.0
H1088 H 0.56895 0.1735 0.09491 0.0
H1089 H 0.54109 0.22888 0.05217 0.0
C1090 C 0.55144 0.25326 0.0843 0.0
C1091 C 0.56037 0.25652 0.10841 0.0
C1092 C 0.55952 0.17019 0.07728 0.0
C1093 C 0.55367 0.21186 0.08123 0.0
C1094 C 0.55664 0.14802 0.06393 0.0
C1095 C 0.54454 0.14312 0.04105 0.0
C1096 C 0.55057 0.18788 0.06752 0.0
C1097 C 0.53586 0.16122 0.03193 0.0
C1098 C 0.54798 0.23099 0.07071 0.0
C1099 C 0.56568 0.23681 0.11815 0.0
N1100 N 0.53905 0.18276 0.04513 0.0
N1101 N 0.56232 0.21553 0.10459 0.0
H1102 H 0.10749 0.31276 0.41656 0.0
H1103 H 0.14726 0.29864 0.29273 0.0
H1104 H 0.06538 0.3039 0.34926 0.0
H1105 H 0.18538 0.29189 0.35863 0.0
H1106 H 0.11808 0.3039 0.31354 0.0
H1107 H 0.13717 0.30835 0.39606 0.0
C1108 C 0.1045 0.30996 0.39748 0.0
C1109 C 0.08389 0.30867 0.38462 0.0
C1110 C 0.13282 0.30124 0.32347 0.0
C1111 C 0.11782 0.30368 0.36103 0.0
C1112 C 0.14954 0.29838 0.31161 0.0
C1113 C 0.16883 0.29481 0.32393 0.0
C1114 C 0.13538 0.30076 0.34792 0.0
C1115 C 0.17073 0.29434 0.34836 0.0
C1116 C 0.12143 0.30737 0.38579 0.0
C1117 C 0.08096 0.30495 0.35991 0.0
N1118 N 0.15427 0.29737 0.35955 0.0
N1119 N 0.09771 0.30266 0.34896 0.0
H1120 H 0.94488 0.10051 0.15147 0.0
H1121 H 0.00436 0.05156 0.06291 0.0
H1122 H 0.91064 0.04561 0.09489 0.0
H1123 H 0.02366 0.12654 0.08796 0.0
H1124 H 0.96946 0.04999 0.07415 0.0
H1125 H 0.97261 0.11296 0.12789 0.0
C1126 C 0.94294 0.09156 0.13374 0.0
C1127 C 0.92581 0.07177 0.12513 0.0
C1128 C 0.98113 0.0669 0.07684 0.0
C1129 C 0.95755 0.08542 0.09854 0.0
C1130 C 1.00112 0.0678 0.07057 0.0
C1131 C 0.01679 0.08926 0.07436 0.0
C1132 C 0.97701 0.08743 0.08786 0.0
C1133 C 0.01197 0.10963 0.08488 0.0
C1134 C 0.95869 0.09871 0.12031 0.0
C1135 C 0.92378 0.06082 0.10212 0.0
N1136 N 0.99251 0.10816 0.09167 0.0
N1137 N 0.93989 0.06736 0.08979 0.0
H1138 H 0.28088 0.72043 0.43478 0.0
H1139 H 0.30773 0.83698 0.37159 0.0
H1140 H 0.29845 0.7908 0.47359 0.0
H1141 H 0.27286 0.76834 0.33459 0.0
H1142 H 0.30685 0.82066 0.409 0.0
H1143 H 0.28075 0.73778 0.39805 0.0
C1144 C 0.28484 0.73958 0.43563 0.0
C1145 C 0.28973 0.75415 0.45744 0.0
C1146 C 0.29928 0.80923 0.3927 0.0
C1147 C 0.28959 0.77425 0.41508 0.0
C1148 C 0.29977 0.81852 0.37127 0.0
C1149 C 0.29032 0.80408 0.34974 0.0
C1150 C 0.28957 0.78517 0.39272 0.0
C1151 C 0.28026 0.78027 0.35062 0.0
C1152 C 0.28464 0.74948 0.41457 0.0
C1153 C 0.2946 0.77886 0.45725 0.0
N1154 N 0.28031 0.77157 0.37166 0.0
N1155 N 0.2945 0.78812 0.43644 0.0
H1156 H 0.58048 0.94998 0.64922 0.0
H1157 H 0.58267 0.06799 0.59165 0.0
H1158 H 0.63936 1.00298 0.65161 0.0
H1159 H 0.53111 0.00517 0.56947 0.0
H1160 H 0.60372 0.04457 0.61408 0.0
H1161 H 0.56215 0.9692 0.61931 0.0
C1162 C 0.58967 0.96533 0.64303 0.0
C1163 C 0.61141 0.975 0.65305 0.0
C1164 C 0.58787 0.03588 0.60415 0.0
C1165 C 0.59043 0.99746 0.61939 0.0
C1166 C 0.57587 0.04925 0.5914 0.0
C1167 C 0.55523 0.03846 0.57864 0.0
C1168 C 0.57892 0.01167 0.60447 0.0
C1169 C 0.54695 0.01421 0.5792 0.0
C1170 C 0.57918 0.97637 0.62605 0.0
C1171 C 0.62256 0.99494 0.64441 0.0
N1172 N 0.55877 1.00165 0.59204 0.0
N1173 N 0.61183 0.0058 0.62839 0.0
H1174 H 0.29954 0.37274 0.97709 0.0
H1175 H 0.32603 0.39086 0.84877 0.0
H1176 H 0.31855 0.44129 0.95395 0.0
H1177 H 0.27983 0.32896 0.8598 0.0
H1178 H 0.32899 0.40721 0.88989 0.0
H1179 H 0.29746 0.35392 0.93649 0.0
C1180 C 0.30336 0.38379 0.96357 0.0
C1181 C 0.30906 0.40863 0.96891 0.0
C1182 C 0.31822 0.39003 0.88332 0.0
C1183 C 0.30709 0.38733 0.92282 0.0
C1184 C 0.31655 0.38065 0.85984 0.0
C1185 C 0.30254 0.35858 0.85072 0.0
C1186 C 0.30608 0.37712 0.89804 0.0
C1187 C 0.29068 0.34617 0.86602 0.0
C1188 C 0.30208 0.37308 0.94045 0.0
C1189 C 0.31384 0.4221 0.95068 0.0
N1190 N 0.29277 0.35555 0.88896 0.0
N1191 N 0.31287 0.41132 0.92861 0.0
H1192 H 0.91157 0.04546 0.25831 0.0
H1193 H 0.00664 0.03529 0.36015 0.0
H1194 H 0.9709 0.02837 0.2453 0.0
H1195 H 0.94421 0.04301 0.37273 0.0
H1196 H 0.99478 0.0358 0.31815 0.0
H1197 H 0.92423 0.04762 0.30056 0.0
C1198 C 0.92728 0.04224 0.26432 0.0
C1199 C 0.94017 0.03664 0.24824 0.0
C1200 C 0.98367 0.0374 0.33009 0.0
C1201 C 0.95472 0.03908 0.29652 0.0
C1202 C 0.99047 0.03724 0.35406 0.0
C1203 C 0.97636 0.03907 0.36988 0.0
C1204 C 0.96262 0.03948 0.32191 0.0
C1205 C 0.9555 0.04126 0.36105 0.0
C1206 C 0.93447 0.04343 0.28844 0.0
C1207 C 0.96039 0.03265 0.25704 0.0
N1208 N 0.94925 0.04142 0.33762 0.0
N1209 N 0.96703 0.03393 0.2806 0.0
H1210 H 0.27325 0.71732 0.62162 0.0
H1211 H 0.32411 0.84287 0.70164 0.0
H1212 H 0.30671 0.77877 0.59463 0.0
H1213 H 0.28505 0.78307 0.72555 0.0
H1214 H 0.3197 0.81935 0.66315 0.0
H1215 H 0.27921 0.74061 0.6601 0.0
C1216 C 0.2819 0.73575 0.6237 0.0
C1217 C 0.28945 0.74601 0.60459 0.0
C1218 C 0.31219 0.81127 0.67682 0.0
C1219 C 0.29637 0.77303 0.64923 0.0
C1220 C 0.31474 0.82467 0.69885 0.0
C1221 C 0.30512 0.8148 0.71695 0.0
C1222 C 0.29988 0.78773 0.67272 0.0
C1223 C 0.29306 0.79121 0.71226 0.0
C1224 C 0.28528 0.74908 0.64583 0.0
C1225 C 0.30056 0.77004 0.60871 0.0
N1226 N 0.29077 0.7785 0.69064 0.0
N1227 N 0.30367 0.78271 0.63054 0.0
H1228 H 0.54655 0.96182 0.76014 0.0
H1229 H 0.58557 0.01412 0.89266 0.0
H1230 H 0.61174 0.96864 0.79621 0.0
H1231 H 0.51815 0.98493 0.86332 0.0
H1232 H 0.59514 0.99389 0.85874 0.0
H1233 H 0.53515 0.96626 0.79822 0.0
C1234 C 0.55839 0.96381 0.77606 0.0
C1235 C 0.58021 0.96536 0.77499 0.0
C1236 C 0.57824 0.99156 0.85989 0.0
C1237 C 0.56733 0.97079 0.81858 0.0
C1238 C 0.57272 1.00306 0.87938 0.0
C1239 C 0.55096 1.00162 0.88077 0.0
C1240 C 0.56193 0.97887 0.84138 0.0
C1241 C 0.53513 0.9872 0.86271 0.0
C1242 C 0.55186 0.96629 0.79781 0.0
C1243 C 0.59479 0.96764 0.79618 0.0
N1244 N 0.54092 0.97674 0.84355 0.0
N1245 N 0.58817 0.97079 0.81712 0.0
H1246 H 0.30717 0.35594 0.09491 0.0
H1247 H 0.31127 0.37381 0.23431 0.0
H1248 H 0.33465 0.42268 0.13938 0.0
H1249 H 0.29613 0.30452 0.19372 0.0
H1250 H 0.31988 0.3917 0.1995 0.0
H1251 H 0.30299 0.33644 0.13028 0.0
C1252 C 0.31253 0.36647 0.11208 0.0
C1253 C 0.32126 0.39105 0.11408 0.0
C1254 C 0.31487 0.37256 0.19816 0.0
C1255 C 0.31624 0.36884 0.15471 0.0
C1256 C 0.31006 0.3623 0.21815 0.0
C1257 C 0.3032 0.33758 0.2171 0.0
C1258 C 0.31248 0.3581 0.17664 0.0
C1259 C 0.30144 0.32365 0.1954 0.0
C1260 C 0.31011 0.35531 0.13229 0.0
C1261 C 0.32784 0.40373 0.13686 0.0
N1262 N 0.3059 0.33409 0.17601 0.0
N1263 N 0.32505 0.39256 0.15616 0.0
H1264 H 0.27826 0.01054 0.05989 0.0
H1265 H 0.15309 0.00955 0.05145 0.0
H1266 H 0.2278 0.94611 0.04449 0.0
H1267 H 0.20462 0.07304 0.06671 0.0
H1268 H 0.17983 0.98578 0.04948 0.0
H1269 H 0.25124 0.03335 0.06331 0.0
C1270 C 0.26145 1.00115 0.05725 0.0
C1271 C 0.25529 0.97634 0.05182 0.0
C1272 C 0.18528 0.00491 0.05332 0.0
C1273 C 0.2241 1.00252 0.05571 0.0
C1274 C 0.17001 0.01852 0.05432 0.0
C1275 C 0.17658 0.04339 0.0592 0.0
C1276 C 0.20731 0.01621 0.05716 0.0
C1277 C 0.19877 0.05395 0.06317 0.0
C1278 C 0.246 0.01423 0.05922 0.0
C1279 C 0.23327 0.9652 0.04867 0.0
N1280 N 0.21328 0.04033 0.06199 0.0
N1281 N 0.21844 0.97838 0.0506 0.0
H1282 H 0.70461 0.64373 0.97415 0.0
H1283 H 0.59671 0.62408 0.02854 0.0
H1284 H 0.68727 0.70078 0.01392 0.0
H1285 H 0.60356 0.57933 0.968 0.0
H1286 H 0.63183 0.65039 0.02734 0.0
H1287 H 0.66936 0.61798 0.97511 0.0
C1288 C 0.69333 0.65088 0.98298 0.0
C1289 C 0.69888 0.67448 0.99389 0.0
C1290 C 0.62566 0.63477 0.01438 0.0
C1291 C 0.65862 0.64492 0.99545 0.0
C1292 C 0.60575 0.61964 0.01521 0.0
C1293 C 0.59737 0.59941 0.99848 0.0
C1294 C 0.63737 0.6294 0.99689 0.0
C1295 C 0.60951 0.59473 0.98127 0.0
C1296 C 0.67322 0.63617 0.98352 0.0
C1297 C 0.68362 0.68276 0.00513 0.0
N1298 N 0.62893 0.60951 0.981 0.0
N1299 N 0.66427 0.66795 0.0058 0.0
H1300 H 0.77456 0.58404 0.38423 0.0
H1301 H 0.76177 0.44971 0.35462 0.0
H1302 H 0.71965 0.53233 0.39638 0.0
H1303 H 0.82539 0.497 0.37184 0.0
H1304 H 0.74752 0.47948 0.37418 0.0
H1305 H 0.79522 0.5535 0.38445 0.0
C1306 C 0.76703 0.56645 0.3876 0.0
C1307 C 0.74518 0.5605 0.38961 0.0
C1308 C 0.76469 0.48325 0.37409 0.0
C1309 C 0.76855 0.52557 0.38955 0.0
C1310 C 0.773 0.46606 0.36296 0.0
C1311 C 0.79495 0.4707 0.36114 0.0
C1312 C 0.77816 0.50566 0.38291 0.0
C1313 C 0.80826 0.49275 0.37199 0.0
C1314 C 0.77884 0.54903 0.38772 0.0
C1315 C 0.73631 0.53754 0.39418 0.0
N1316 N 0.79956 0.50963 0.38194 0.0
N1317 N 0.74788 0.52076 0.39345 0.0
H1318 H 0.86609 0.5087 0.4999 0.0
H1319 H 0.9875 0.54102 0.56826 0.0
H1320 H 0.88378 0.47764 0.56258 0.0
H1321 H 0.96875 0.54585 0.49441 0.0
H1322 H 0.94981 0.52162 0.56939 0.0
H1323 H 0.90383 0.52639 0.50055 0.0
C1324 C 0.87795 0.50559 0.51389 0.0
C1325 C 0.87171 0.49168 0.53127 0.0
C1326 C 0.95407 0.52691 0.55299 0.0
C1327 C 0.91532 0.51215 0.53212 0.0
C1328 C 0.97549 0.53812 0.55234 0.0
C1329 C 0.9813 0.54513 0.5312 0.0
C1330 C 0.9384 0.5231 0.53245 0.0
C1331 C 0.96512 0.54075 0.51109 0.0
C1332 C 0.89958 0.51566 0.51417 0.0
C1333 C 0.88792 0.48817 0.5488 0.0
N1334 N 0.94448 0.53017 0.51227 0.0
N1335 N 0.90907 0.49853 0.54891 0.0
H1336 H 0.39119 0.18581 0.31499 0.0
H1337 H 0.36832 0.30814 0.28293 0.0
H1338 H 0.44004 0.25156 0.32759 0.0
H1339 H 0.31729 0.25066 0.29384 0.0
H1340 H 0.39459 0.28594 0.29633 0.0
H1341 H 0.36353 0.20806 0.30622 0.0
C1342 C 0.39605 0.20497 0.31638 0.0
C1343 C 0.41795 0.21688 0.32183 0.0
C1344 C 0.37765 0.27817 0.29581 0.0
C1345 C 0.38653 0.24223 0.31127 0.0
C1346 C 0.36256 0.29072 0.28789 0.0
C1347 C 0.3405 0.28125 0.28724 0.0
C1348 C 0.3707 0.25584 0.30291 0.0
C1349 C 0.33412 0.25862 0.29401 0.0
C1350 C 0.38028 0.21762 0.31128 0.0
C1351 C 0.42337 0.24168 0.32342 0.0
N1352 N 0.34919 0.24662 0.30155 0.0
N1353 N 0.40777 0.25352 0.31778 0.0
H1354 H 0.31596 0.14483 0.54487 0.0
H1355 H 0.42189 0.14395 0.49003 0.0
H1356 H 0.33474 0.19062 0.4935 0.0
H1357 H 0.40662 0.10993 0.55033 0.0
H1358 H 0.39086 0.16187 0.49063 0.0
H1359 H 0.3494 0.13209 0.54637 0.0
C1360 C 0.32714 0.15226 0.53385 0.0
C1361 C 0.32239 0.16875 0.5189 0.0
C1362 C 0.39444 0.15061 0.5038 0.0
C1363 C 0.36109 0.15403 0.52054 0.0
C1364 C 0.4122 0.14045 0.50355 0.0
C1365 C 0.41675 0.12513 0.51998 0.0
C1366 C 0.38113 0.14535 0.52057 0.0
C1367 C 0.40351 0.12115 0.53698 0.0
C1368 C 0.34636 0.145 0.5348 0.0
C1369 C 0.33772 0.17786 0.50526 0.0
N1370 N 0.38631 0.13103 0.53671 0.0
N1371 N 0.35634 0.17022 0.50625 0.0
H1372 H 0.75005 0.6792 0.37014 0.0
H1373 H 0.75733 0.77336 0.28083 0.0
H1374 H 0.6941 0.69395 0.32857 0.0
H1375 H 0.80852 0.77967 0.34009 0.0
H1376 H 0.73436 0.74317 0.29798 0.0
H1377 H 0.7723 0.71548 0.36025 0.0
C1378 C 0.74237 0.69023 0.35931 0.0
C1379 C 0.72022 0.68328 0.34984 0.0
C1380 C 0.75054 0.75128 0.30741 0.0
C1381 C 0.74556 0.72443 0.33825 0.0
C1382 C 0.76365 0.76852 0.29759 0.0
C1383 C 0.78475 0.77909 0.30915 0.0
C1384 C 0.75875 0.74413 0.32871 0.0
C1385 C 0.7923 0.77186 0.33065 0.0
C1386 C 0.75508 0.7109 0.35366 0.0
C1387 C 0.71114 0.69835 0.33599 0.0
N1388 N 0.77935 0.75458 0.33968 0.0
N1389 N 0.72389 0.71798 0.33033 0.0
H1390 H 0.91845 0.6014 0.79449 0.0
H1391 H 0.92469 0.46831 0.80855 0.0
H1392 H 0.97748 0.5777 0.79679 0.0
H1393 H 0.86493 0.49018 0.7931 0.0
H1394 H 0.94443 0.50798 0.80367 0.0
H1395 H 0.89857 0.56045 0.79291 0.0
C1396 C 0.92722 0.58755 0.79449 0.0
C1397 C 0.9497 0.593 0.79597 0.0
C1398 C 0.92699 0.50403 0.80115 0.0
C1399 C 0.92701 0.54601 0.79436 0.0
C1400 C 0.91574 0.48146 0.80408 0.0
C1401 C 0.89316 0.47601 0.80135 0.0
C1402 C 0.91558 0.52132 0.79568 0.0
C1403 C 0.88233 0.49358 0.79522 0.0
C1404 C 0.91584 0.56414 0.79355 0.0
C1405 C 0.96017 0.57429 0.7957 0.0
N1406 N 0.89365 0.51549 0.79279 0.0
N1407 N 0.94876 0.55162 0.7952 0.0
H1408 H 0.10564 0.9385 0.12638 0.0
H1409 H 0.02697 0.98508 0.03267 0.0
H1410 H 0.05779 0.88909 0.07413 0.0
H1411 H 0.092 0.02465 0.06174 0.0
H1412 H 0.03531 0.95024 0.04967 0.0
H1413 H 0.09826 0.9711 0.10531 0.0
C1414 C 0.09362 0.93449 0.1104 0.0
C1415 C 0.08238 0.911 0.10198 0.0
C1416 C 0.04774 0.96654 0.05207 0.0
C1417 C 0.07351 0.94843 0.07794 0.0
C1418 C 0.043 0.98644 0.04242 0.0
C1419 C 0.05876 0.00794 0.04575 0.0
C1420 C 0.06822 0.96832 0.06558 0.0
C1421 C 0.07927 0.00857 0.05861 0.0
C1422 C 0.08945 0.95313 0.09834 0.0
C1423 C 0.06695 0.90692 0.08114 0.0
N1424 N 0.08328 0.98923 0.06823 0.0
N1425 N 0.06277 0.92548 0.06997 0.0
H1426 H 0.93723 0.28537 0.88451 0.0
H1427 H 0.86213 0.32839 0.78236 0.0
H1428 H 0.96034 0.32563 0.83085 0.0
H1429 H 0.83623 0.27185 0.8204 0.0
H1430 H 0.89828 0.32963 0.80309 0.0
H1431 H 0.89994 0.2816 0.86403 0.0
C1432 C 0.93454 0.29329 0.86847 0.0
C1433 C 0.95205 0.30591 0.85952 0.0
C1434 C 0.88475 0.31683 0.8069 0.0
C1435 C 0.90965 0.30188 0.83627 0.0
C1436 C 0.8641 0.31618 0.79507 0.0
C1437 C 0.84622 0.29993 0.79959 0.0
C1438 C 0.88764 0.30126 0.8236 0.0
C1439 C 0.84968 0.28453 0.81629 0.0
C1440 C 0.91329 0.29113 0.85681 0.0
C1441 C 0.94754 0.3158 0.83862 0.0
N1442 N 0.87001 0.28562 0.82782 0.0
N1443 N 0.92692 0.31368 0.8279 0.0
H1444 H 0.59558 0.27745 0.59514 0.0
H1445 H 0.52592 0.14385 0.573 0.0
H1446 H 0.55337 0.25002 0.64207 0.0
H1447 H 0.59161 0.16121 0.56131 0.0
H1448 H 0.53043 0.18518 0.59023 0.0
H1449 H 0.58868 0.23701 0.57385 0.0
C1450 C 0.58453 0.26301 0.6006 0.0
C1451 C 0.57499 0.26692 0.6203 0.0
C1452 C 0.54379 0.17988 0.5838 0.0
C1453 C 0.56694 0.22112 0.59614 0.0
C1454 C 0.54126 0.15636 0.57401 0.0
C1455 C 0.55851 0.14906 0.566 0.0
C1456 C 0.5635 0.19633 0.58497 0.0
C1457 C 0.57801 0.16604 0.56761 0.0
C1458 C 0.58076 0.24002 0.58864 0.0
C1459 C 0.56103 0.24763 0.62695 0.0
N1460 N 0.57995 0.18896 0.57678 0.0
N1461 N 0.55734 0.22558 0.61484 0.0
H1462 H 0.55468 0.78303 0.35518 0.0
H1463 H 0.68223 0.82818 0.36338 0.0
H1464 H 0.59738 0.81919 0.41914 0.0
H1465 H 0.6386 0.78788 0.3018 0.0
H1466 H 0.65208 0.82367 0.38498 0.0
H1467 H 0.58578 0.78357 0.33607 0.0
C1468 C 0.57063 0.79105 0.36525 0.0
C1469 C 0.57341 0.8012 0.38876 0.0
C1470 C 0.64916 0.81572 0.36678 0.0
C1471 C 0.60927 0.80195 0.3669 0.0
C1472 C 0.66638 0.81817 0.35448 0.0
C1473 C 0.6629 0.80862 0.33065 0.0
C1474 C 0.62834 0.80361 0.35515 0.0
C1475 C 0.64198 0.79597 0.31998 0.0
C1476 C 0.58843 0.79133 0.35432 0.0
C1477 C 0.59451 0.81122 0.40095 0.0
N1478 N 0.62553 0.79396 0.33225 0.0
N1479 N 0.61164 0.81147 0.38983 0.0
H1480 H 0.00401 0.22422 0.42645 0.0
H1481 H 0.05654 0.16676 0.53485 0.0
H1482 H 0.04422 0.26592 0.48936 0.0
H1483 H 0.01385 0.12559 0.47305 0.0
H1484 H 0.05131 0.20311 0.51929 0.0
H1485 H 0.00637 0.18809 0.44398 0.0
C1486 C 0.0132 0.22584 0.44406 0.0
C1487 C 0.02393 0.24828 0.4564 0.0
C1488 C 0.04299 0.18612 0.50918 0.0
C1489 C 0.0269 0.20666 0.47663 0.0
C1490 C 0.04596 0.16527 0.51808 0.0
C1491 C 0.03566 0.14286 0.50531 0.0
C1492 C 0.02967 0.18476 0.48724 0.0
C1493 C 0.02217 0.14231 0.48363 0.0
C1494 C 0.01458 0.20512 0.45406 0.0
C1495 C 0.03563 0.24909 0.47916 0.0
N1496 N 0.01966 0.16285 0.4753 0.0
N1497 N 0.03689 0.22864 0.48845 0.0
H1498 H 0.65457 0.36283 0.1551 0.0
H1499 H 0.71198 0.31073 0.26175 0.0
H1500 H 0.61993 0.33331 0.20758 0.0
H1501 H 0.74608 0.37205 0.23526 0.0
H1502 H 0.67818 0.31466 0.23848 0.0
H1503 H 0.68869 0.36233 0.18053 0.0
C1504 C 0.65415 0.35625 0.17193 0.0
C1505 C 0.63439 0.34811 0.17924 0.0
C1506 C 0.69304 0.32736 0.23791 0.0
C1507 C 0.67319 0.34716 0.20811 0.0
C1508 C 0.71232 0.32512 0.25115 0.0
C1509 C 0.73184 0.34117 0.25053 0.0
C1510 C 0.69332 0.34536 0.22339 0.0
C1511 C 0.73135 0.35945 0.23642 0.0
C1512 C 0.67358 0.35609 0.18645 0.0
C1513 C 0.63478 0.33984 0.20127 0.0
N1514 N 0.71243 0.36088 0.22314 0.0
N1515 N 0.65382 0.33932 0.21478 0.0
H1516 H 0.54454 0.88288 0.98141 0.0
H1517 H 0.54211 0.01995 0.98102 0.0
H1518 H 0.54318 0.917 0.91842 0.0
H1519 H 0.56698 0.99238 0.04308 0.0
H1520 H 0.53818 0.98118 0.95778 0.0
H1521 H 0.54832 0.92164 0.00463 0.0
C1522 C 0.54499 0.89843 0.97245 0.0
C1523 C 0.54366 0.89658 0.9479 0.0
C1524 C 0.5446 0.98365 0.97648 0.0
C1525 C 0.54771 0.94096 0.97433 0.0
C1526 C 0.547 0.00584 0.98964 0.0
C1527 C 0.55533 0.00958 0.01385 0.0
C1528 C 0.5501 0.96486 0.98774 0.0
C1529 C 0.56069 0.99038 0.0244 0.0
C1530 C 0.5472 0.92057 0.98571 0.0
C1531 C 0.54432 0.91747 0.9373 0.0
N1532 N 0.55791 0.96888 0.01134 0.0
N1533 N 0.54618 0.93865 0.9505 0.0
H1534 H 0.00824 0.80038 0.70095 0.0
H1535 H 0.94026 0.89464 0.72971 0.0
H1536 H 0.01342 0.86444 0.66821 0.0
H1537 H 0.92048 0.82085 0.73863 0.0
H1538 H 0.96895 0.88543 0.70975 0.0
H1539 H 0.97761 0.80882 0.71725 0.0
C1540 C 0.00284 0.81617 0.69706 0.0
C1541 C 0.01344 0.83174 0.68319 0.0
C1542 C 0.95823 0.87127 0.71596 0.0
C1543 C 0.9785 0.84171 0.70218 0.0
C1544 C 0.94198 0.87653 0.72749 0.0
C1545 C 0.92797 0.85848 0.73584 0.0
C1546 C 0.96074 0.84787 0.71316 0.0
C1547 C 0.9308 0.83528 0.73231 0.0
C1548 C 0.98532 0.82095 0.70635 0.0
C1549 C 0.00566 0.8519 0.67871 0.0
N1550 N 0.94694 0.83068 0.72143 0.0
N1551 N 0.98881 0.85646 0.68841 0.0
H1552 H 0.11358 0.08748 0.86737 0.0
H1553 H 0.09866 0.08993 0.99916 0.0
H1554 H 0.16881 0.10157 0.92361 0.0
H1555 H 0.05319 0.04192 0.94384 0.0
H1556 H 0.12411 0.09781 0.97214 0.0
H1557 H 0.09012 0.07497 0.89538 0.0
C1558 C 0.12076 0.08815 0.88566 0.0
C1559 C 0.14317 0.09571 0.89325 0.0
C1560 C 0.10868 0.08532 0.96601 0.0
C1561 C 0.11642 0.08133 0.92521 0.0
C1562 C 0.0942 0.08084 0.98141 0.0
C1563 C 0.0739 0.06534 0.97368 0.0
C1564 C 0.1025 0.07469 0.94254 0.0
C1565 C 0.06876 0.05397 0.95045 0.0
C1566 C 0.10738 0.08074 0.90153 0.0
C1567 C 0.15161 0.09591 0.91708 0.0
N1568 N 0.08288 0.05919 0.93549 0.0
N1569 N 0.13818 0.08901 0.93233 0.0
H1570 H 0.83726 0.43094 0.62747 0.0
H1571 H 0.78352 0.32386 0.69289 0.0
H1572 H 0.78978 0.36893 0.59126 0.0
H1573 H 0.83559 0.38248 0.72768 0.0
H1574 H 0.78607 0.33961 0.65551 0.0
H1575 H 0.83749 0.41306 0.66403 0.0
C1576 C 0.827 0.41346 0.62713 0.0
C1577 C 0.81345 0.40147 0.60616 0.0
C1578 C 0.79703 0.34897 0.67128 0.0
C1579 C 0.81348 0.38089 0.64825 0.0
C1580 C 0.7956 0.33997 0.69271 0.0
C1581 C 0.80936 0.3518 0.71362 0.0
C1582 C 0.81226 0.37012 0.67061 0.0
C1583 C 0.82465 0.37265 0.7121 0.0
C1584 C 0.82712 0.40326 0.64808 0.0
C1585 C 0.8005 0.37886 0.60693 0.0
N1586 N 0.8256 0.38116 0.69107 0.0
N1587 N 0.80074 0.3694 0.6276 0.0
H1588 H 0.50716 0.18445 0.39492 0.0
H1589 H 0.52697 0.07495 0.45938 0.0
H1590 H 0.51462 0.11984 0.35788 0.0
H1591 H 0.56284 0.14578 0.48914 0.0
H1592 H 0.51194 0.09089 0.42461 0.0
H1593 H 0.51821 0.17003 0.43262 0.0
C1594 C 0.51104 0.16728 0.39477 0.0
C1595 C 0.51029 0.15339 0.37342 0.0
C1596 C 0.52295 0.10291 0.4389 0.0
C1597 C 0.52203 0.13671 0.41583 0.0
C1598 C 0.53149 0.09388 0.45866 0.0
C1599 C 0.54637 0.1091 0.47684 0.0
C1600 C 0.52901 0.12732 0.43763 0.0
C1601 C 0.55163 0.1335 0.47522 0.0
C1602 C 0.51732 0.15914 0.41613 0.0
C1603 C 0.51534 0.13122 0.374 0.0
N1604 N 0.54293 0.14195 0.45585 0.0
N1605 N 0.52083 0.12347 0.39487 0.0
H1606 H 0.74172 0.71803 0.09681 0.0
H1607 H 0.81772 0.81776 0.19656 0.0
H1608 H 0.79561 0.76911 0.08177 0.0
H1609 H 0.75477 0.77745 0.20303 0.0
H1610 H 0.81142 0.79955 0.15534 0.0
H1611 H 0.74756 0.73905 0.13638 0.0
C1612 C 0.75478 0.73379 0.10181 0.0
C1613 C 0.76824 0.74175 0.0859 0.0
C1614 C 0.799 0.7948 0.16581 0.0
C1615 C 0.7752 0.76596 0.13165 0.0
C1616 C 0.80261 0.80507 0.18938 0.0
C1617 C 0.78679 0.79906 0.20339 0.0
C1618 C 0.77952 0.77822 0.15625 0.0
C1619 C 0.76747 0.78265 0.19302 0.0
C1620 C 0.75808 0.74584 0.12447 0.0
C1621 C 0.7848 0.7624 0.09342 0.0
N1622 N 0.76446 0.77276 0.17021 0.0
N1623 N 0.78796 0.77369 0.11587 0.0
H1624 H 0.22217 0.10156 0.77805 0.0
H1625 H 0.12019 0.06035 0.67362 0.0
H1626 H 0.16192 0.05518 0.78459 0.0
H1627 H 0.17186 0.12237 0.6764 0.0
H1628 H 0.139 0.0516 0.71044 0.0
H1629 H 0.20781 0.10179 0.73647 0.0
C1630 C 0.20611 0.091 0.77061 0.0
C1631 C 0.19306 0.07861 0.78481 0.0
C1632 C 0.14628 0.067 0.70283 0.0
C1633 C 0.17657 0.07894 0.73749 0.0
C1634 C 0.13548 0.07214 0.68193 0.0
C1635 C 0.14427 0.09236 0.67204 0.0
C1636 C 0.16609 0.08208 0.71387 0.0
C1637 C 0.16448 0.10655 0.68326 0.0
C1638 C 0.19789 0.09128 0.74695 0.0
C1639 C 0.17239 0.06521 0.77428 0.0
N1640 N 0.17462 0.10122 0.70367 0.0
N1641 N 0.16468 0.06592 0.75129 0.0
H1642 H 0.80155 0.44079 0.44166 0.0
H1643 H 0.75836 0.31726 0.36033 0.0
H1644 H 0.78349 0.37592 0.47175 0.0
H1645 H 0.80839 0.37187 0.3436 0.0
H1646 H 0.76236 0.33988 0.39929 0.0
H1647 H 0.79891 0.41749 0.40353 0.0
C1648 C 0.79694 0.42161 0.44026 0.0
C1649 C 0.79267 0.41029 0.46001 0.0
C1650 C 0.77233 0.34701 0.38701 0.0
C1651 C 0.78943 0.38354 0.41615 0.0
C1652 C 0.77 0.3342 0.36474 0.0
C1653 C 0.78255 0.34316 0.34838 0.0
C1654 C 0.78714 0.3691 0.39292 0.0
C1655 C 0.79767 0.36494 0.35523 0.0
C1656 C 0.79559 0.40836 0.41849 0.0
C1657 C 0.78697 0.38538 0.45706 0.0
N1658 N 0.79938 0.37734 0.37687 0.0
N1659 N 0.78527 0.37282 0.43546 0.0
H1660 H 0.52792 0.21032 0.27075 0.0
H1661 H 0.50487 0.14379 0.14272 0.0
H1662 H 0.4649 0.19125 0.22654 0.0
H1663 H 0.56943 0.17648 0.18013 0.0
H1664 H 0.49061 0.16699 0.17051 0.0
H1665 H 0.5441 0.20462 0.23592 0.0
C1666 C 0.51751 0.20545 0.25364 0.0
C1667 C 0.495 0.20057 0.25158 0.0
C1668 C 0.50793 0.16943 0.17247 0.0
C1669 C 0.51335 0.19371 0.21177 0.0
C1670 C 0.51616 0.15621 0.15645 0.0
C1671 C 0.53844 0.1578 0.15924 0.0
C1672 C 0.52199 0.18402 0.19177 0.0
C1673 C 0.5521 0.17407 0.17769 0.0
C1674 C 0.52677 0.20219 0.23375 0.0
C1675 C 0.48232 0.1947 0.22898 0.0
N1676 N 0.54363 0.18622 0.19352 0.0
N1677 N 0.49165 0.19091 0.20999 0.0
H1678 H 0.77476 0.72536 0.92013 0.0
H1679 H 0.80835 0.85046 0.87178 0.0
H1680 H 0.78272 0.79228 0.96322 0.0
H1681 H 0.79093 0.78259 0.8282 0.0
H1682 H 0.79983 0.83018 0.90573 0.0
H1683 H 0.78166 0.74654 0.88672 0.0
C1684 C 0.77797 0.74456 0.92261 0.0
C1685 C 0.77816 0.75701 0.94463 0.0
C1686 C 0.79781 0.81976 0.88871 0.0
C1687 C 0.78619 0.78159 0.90613 0.0
C1688 C 0.80267 0.83133 0.86933 0.0
C1689 C 0.80045 0.81821 0.84713 0.0
C1690 C 0.79078 0.79486 0.88589 0.0
C1691 C 0.79297 0.79345 0.84498 0.0
C1692 C 0.78188 0.75668 0.90344 0.0
C1693 C 0.78239 0.78192 0.94661 0.0
N1694 N 0.78852 0.78264 0.86406 0.0
N1695 N 0.78631 0.79338 0.92766 0.0
H1696 H 0.84241 0.15743 0.06739 0.0
H1697 H 0.9111 0.115 0.9762 0.0
H1698 H 0.8418 0.18209 0.99945 0.0
H1699 H 0.92498 0.11066 0.05067 0.0
H1700 H 0.88462 0.13808 0.9834 0.0
H1701 H 0.87194 0.13918 0.06094 0.0
C1702 C 0.84864 0.15919 0.05117 0.0
C1703 C 0.83958 0.17127 0.0339 0.0
C1704 C 0.89358 0.1322 0.99816 0.0
C1705 C 0.87328 0.14997 0.02621 0.0
C1706 C 0.90855 0.11888 0.99404 0.0
C1707 C 0.92023 0.11084 0.01285 0.0
C1708 C 0.89002 0.13722 0.0212 0.0
C1709 C 0.91647 0.11663 0.03566 0.0
C1710 C 0.86554 0.14876 0.0475 0.0
C1711 C 0.84839 0.17304 0.01326 0.0
N1712 N 0.9016 0.12927 0.03915 0.0
N1713 N 0.86458 0.16222 0.00984 0.0
H1714 H 0.38214 0.49371 0.00945 0.0
H1715 H 0.49548 0.55569 0.08856 0.0
H1716 H 0.39729 0.48015 0.08122 0.0
H1717 H 0.48671 0.54063 0.01303 0.0
H1718 H 0.45923 0.53068 0.08728 0.0
H1719 H 0.4199 0.51333 0.01115 0.0
C1720 C 0.39352 0.49473 0.02557 0.0
C1721 C 0.38659 0.48532 0.04525 0.0
C1722 C 0.46532 0.53275 0.07102 0.0
C1723 C 0.42992 0.50826 0.04747 0.0
C1724 C 0.48592 0.54712 0.0717 0.0
C1725 C 0.49401 0.55042 0.05079 0.0
C1726 C 0.45258 0.52196 0.04923 0.0
C1727 C 0.48104 0.53875 0.02949 0.0
C1728 C 0.41509 0.5059 0.02649 0.0
C1729 C 0.40202 0.48707 0.06563 0.0
N1730 N 0.46091 0.52527 0.02922 0.0
N1731 N 0.42298 0.49869 0.06636 0.0
H1732 H 0.34388 0.59012 0.73451 0.0
H1733 H 0.27997 0.67998 0.68749 0.0
H1734 H 0.32375 0.58824 0.65969 0.0
H1735 H 0.27356 0.65332 0.75368 0.0
H1736 H 0.29558 0.6468 0.6759 0.0
H1737 H 0.31838 0.61411 0.7417 0.0
C1738 C 0.33397 0.59468 0.7196 0.0
C1739 C 0.33597 0.58744 0.6965 0.0
C1740 C 0.29024 0.64795 0.6927 0.0
C1741 C 0.30698 0.61497 0.70455 0.0
C1742 C 0.28141 0.66685 0.69931 0.0
C1743 C 0.27564 0.66942 0.7216 0.0
C1744 C 0.2937 0.63199 0.70875 0.0
C1745 C 0.27772 0.65193 0.73628 0.0
C1746 C 0.31932 0.60819 0.72369 0.0
C1747 C 0.32264 0.59358 0.67777 0.0
N1748 N 0.28699 0.6342 0.72979 0.0
N1749 N 0.30891 0.60742 0.6822 0.0
H1750 H 0.21831 0.65167 0.48994 0.0
H1751 H 0.11607 0.63608 0.55195 0.0
H1752 H 0.20546 0.70946 0.53325 0.0
H1753 H 0.11471 0.59362 0.48633 0.0
H1754 H 0.15083 0.66082 0.54816 0.0
H1755 H 0.18205 0.62804 0.49058 0.0
C1756 C 0.20778 0.65944 0.49942 0.0
C1757 C 0.21488 0.68253 0.5116 0.0
C1758 C 0.1429 0.64611 0.53458 0.0
C1759 C 0.17365 0.65547 0.51275 0.0
C1760 C 0.12315 0.63183 0.53681 0.0
C1761 C 0.11251 0.61265 0.51947 0.0
C1762 C 0.15234 0.64098 0.51508 0.0
C1763 C 0.12237 0.60821 0.5001 0.0
C1764 C 0.18711 0.64597 0.49974 0.0
C1765 C 0.20059 0.69176 0.52357 0.0
N1766 N 0.14185 0.62217 0.49852 0.0
N1767 N 0.18074 0.67808 0.5241 0.0
H1768 H 0.71084 0.97221 0.7544 0.0
H1769 H 0.7381 0.85662 0.80349 0.0
H1770 H 0.66308 0.90936 0.76019 0.0
H1771 H 0.78563 0.91174 0.78303 0.0
H1772 H 0.7115 0.88013 0.79602 0.0
H1773 H 0.73916 0.95399 0.77203 0.0
C1774 C 0.70631 0.95462 0.75946 0.0
C1775 C 0.6846 0.94214 0.75559 0.0
C1776 C 0.72782 0.88723 0.79346 0.0
C1777 C 0.71684 0.9214 0.77596 0.0
C1778 C 0.74309 0.87388 0.79785 0.0
C1779 C 0.76406 0.88205 0.79347 0.0
C1780 C 0.73353 0.9089 0.78461 0.0
C1781 C 0.7696 0.90466 0.78642 0.0
C1782 C 0.72247 0.94428 0.76956 0.0
C1783 C 0.67963 0.91949 0.76262 0.0
N1784 N 0.75431 0.91718 0.78187 0.0
N1785 N 0.69564 0.90982 0.7724 0.0
H1786 H 0.74216 0.93459 0.54137 0.0
H1787 H 0.70748 0.05634 0.57172 0.0
H1788 H 0.7868 1.00113 0.57099 0.0
H1789 H 0.662 0.99183 0.53783 0.0
H1790 H 0.73625 0.03527 0.57397 0.0
H1791 H 0.7122 0.95409 0.54216 0.0
C1792 C 0.74566 0.95326 0.54811 0.0
C1793 C 0.76705 0.96627 0.55603 0.0
C1794 C 0.71999 0.02563 0.56608 0.0
C1795 C 0.73286 0.98866 0.55702 0.0
C1796 C 0.70354 0.03771 0.56471 0.0
C1797 C 0.68229 0.02593 0.5543 0.0
C1798 C 0.71531 1.0015 0.55699 0.0
C1799 C 0.67811 1.00161 0.54605 0.0
C1800 C 0.72855 0.96438 0.54855 0.0
C1801 C 0.77061 0.9904 0.56462 0.0
N1802 N 0.6945 0.99023 0.54742 0.0
N1803 N 0.75374 1.00078 0.56483 0.0
H1804 H 0.34899 0.49287 0.72138 0.0
H1805 H 0.28009 0.36151 0.71185 0.0
H1806 H 0.35399 0.43955 0.66689 0.0
H1807 H 0.31166 0.4022 0.77892 0.0
H1808 H 0.29998 0.39228 0.6919 0.0
H1809 H 0.32764 0.46196 0.73943 0.0
C1810 C 0.34536 0.47468 0.71301 0.0
C1811 C 0.35327 0.46873 0.69257 0.0
C1812 C 0.30241 0.39443 0.71096 0.0
C1813 C 0.32874 0.43344 0.71313 0.0
C1814 C 0.29099 0.37709 0.72233 0.0
C1815 C 0.29419 0.37958 0.74701 0.0
C1816 C 0.31661 0.41456 0.72444 0.0
C1817 C 0.30873 0.3998 0.75985 0.0
C1818 C 0.33333 0.45709 0.72345 0.0
C1819 C 0.34823 0.44483 0.68267 0.0
N1820 N 0.31929 0.41669 0.74838 0.0
N1821 N 0.33611 0.42797 0.693 0.0
H1822 H 0.16618 0.55 0.25307 0.0
H1823 H 0.1735 0.67827 0.21267 0.0
H1824 H 0.11665 0.56653 0.20277 0.0
H1825 H 0.21839 0.66369 0.26955 0.0
H1826 H 0.15213 0.63763 0.20922 0.0
H1827 H 0.18519 0.59172 0.25977 0.0
C1828 C 0.15922 0.56242 0.24351 0.0
C1829 C 0.13983 0.5547 0.22722 0.0
C1830 C 0.16659 0.64335 0.22254 0.0
C1831 C 0.16164 0.60255 0.23474 0.0
C1832 C 0.17877 0.6666 0.22461 0.0
C1833 C 0.19781 0.67443 0.24143 0.0
C1834 C 0.17354 0.62771 0.23729 0.0
C1835 C 0.20401 0.65835 0.2561 0.0
C1836 C 0.1701 0.58626 0.24737 0.0
C1837 C 0.13156 0.57166 0.21547 0.0
N1838 N 0.19195 0.63574 0.25363 0.0
N1839 N 0.1426 0.59477 0.21934 0.0
H1840 H 0.50629 0.75642 0.49315 0.0
H1841 H 0.5694 0.65672 0.50853 0.0
H1842 H 0.5271 0.72353 0.43387 0.0
H1843 H 0.50762 0.645 0.53084 0.0
H1844 H 0.56113 0.69025 0.48946 0.0
H1845 H 0.51283 0.72355 0.51518 0.0
C1846 C 0.51212 0.74229 0.48477 0.0
C1847 C 0.51601 0.7426 0.46159 0.0
C1848 C 0.54954 0.68048 0.4988 0.0
C1849 C 0.52417 0.70577 0.48683 0.0
C1850 C 0.55428 0.66147 0.50984 0.0
C1851 C 0.53919 0.64804 0.52134 0.0
C1852 C 0.52984 0.68659 0.49978 0.0
C1853 C 0.51969 0.65487 0.52213 0.0
C1854 C 0.51579 0.72362 0.4973 0.0
C1855 C 0.52367 0.7239 0.45159 0.0
N1856 N 0.51559 0.67381 0.51159 0.0
N1857 N 0.52781 0.70649 0.46436 0.0
H1858 H 0.67218 0.36795 0.66256 0.0
H1859 H 0.73269 0.32881 0.77778 0.0
H1860 H 0.63927 0.34448 0.71858 0.0
H1861 H 0.76528 0.38006 0.7383 0.0
H1862 H 0.69813 0.32894 0.7531 0.0
H1863 H 0.70658 0.36716 0.68701 0.0
C1864 C 0.67219 0.3626 0.67997 0.0
C1865 C 0.65286 0.35639 0.68859 0.0
C1866 C 0.71287 0.34019 0.74992 0.0
C1867 C 0.69202 0.35511 0.71645 0.0
C1868 C 0.73254 0.34008 0.76395 0.0
C1869 C 0.75179 0.3546 0.76018 0.0
C1870 C 0.71256 0.35454 0.73173 0.0
C1871 C 0.75076 0.36879 0.74195 0.0
C1872 C 0.6918 0.36221 0.69391 0.0
C1873 C 0.65381 0.34957 0.71129 0.0
N1874 N 0.73151 0.36831 0.72831 0.0
N1875 N 0.67303 0.34897 0.72437 0.0
H1876 H 0.01042 0.40246 0.91222 0.0
H1877 H 0.06211 0.49726 0.02464 0.0
H1878 H 0.03633 0.38108 0.9777 0.0
H1879 H 0.01137 0.50691 0.97131 0.0
H1880 H 0.05586 0.45585 0.00689 0.0
H1881 H 0.01335 0.4419 0.93264 0.0
C1882 C 0.01665 0.40607 0.93098 0.0
C1883 C 0.02319 0.38848 0.94328 0.0
C1884 C 0.04604 0.46703 0.99918 0.0
C1885 C 0.02693 0.43388 0.96674 0.0
C1886 C 0.04971 0.4907 0.00915 0.0
C1887 C 0.03736 0.50564 0.99929 0.0
C1888 C 0.03021 0.45835 0.97895 0.0
C1889 C 0.0213 0.49608 0.97945 0.0
C1890 C 0.01824 0.42858 0.94263 0.0
C1891 C 0.03102 0.39411 0.9676 0.0
N1892 N 0.01836 0.47314 0.96978 0.0
N1893 N 0.03298 0.41649 0.97852 0.0
H1894 H 0.01893 0.85309 0.15801 0.0
H1895 H 0.95804 0.86514 0.26713 0.0
H1896 H 0.04538 0.84764 0.22982 0.0
H1897 H 0.92351 0.84804 0.19543 0.0
H1898 H 0.99162 0.86541 0.25295 0.0
H1899 H 0.9851 0.85719 0.17072 0.0
C1900 C 0.01768 0.8529 0.17641 0.0
C1901 C 0.03497 0.84989 0.19286 0.0
C1902 C 0.97674 0.86171 0.24026 0.0
C1903 C 0.99659 0.85476 0.20744 0.0
C1904 C 0.95754 0.86178 0.24833 0.0
C1905 C 0.93789 0.85663 0.23244 0.0
C1906 C 0.97645 0.85651 0.21606 0.0
C1907 C 0.93828 0.85192 0.20829 0.0
C1908 C 0.99839 0.85514 0.18361 0.0
C1909 C 0.03246 0.84972 0.21647 0.0
N1910 N 0.95728 0.85196 0.2008 0.0
N1911 N 0.01371 0.85216 0.22302 0.0
H1912 H 0.55716 0.38648 0.06481 0.0
H1913 H 0.57364 0.52807 0.08658 0.0
H1914 H 0.57361 0.42776 0.13362 0.0
H1915 H 0.54163 0.486 0.02023 0.0
H1916 H 0.57724 0.49172 0.10299 0.0
H1917 H 0.55464 0.4228 0.04717 0.0
C1918 C 0.56029 0.40314 0.07621 0.0
C1919 C 0.56555 0.40396 0.10078 0.0
C1920 C 0.56947 0.49041 0.08482 0.0
C1921 C 0.56287 0.4457 0.08067 0.0
C1922 C 0.56747 0.51124 0.07535 0.0
C1923 C 0.55727 0.51026 0.0519 0.0
C1924 C 0.56141 0.46826 0.07078 0.0
C1925 C 0.54955 0.48774 0.03839 0.0
C1926 C 0.5588 0.42387 0.06613 0.0
C1927 C 0.56941 0.42614 0.11463 0.0
N1928 N 0.55181 0.4677 0.04798 0.0
N1929 N 0.56807 0.44602 0.10442 0.0
H1930 H 0.96211 0.2978 0.33301 0.0
H1931 H 0.86066 0.34797 0.34463 0.0
H1932 H 0.9522 0.32494 0.40115 0.0
H1933 H 0.85546 0.28695 0.29395 0.0
H1934 H 0.8955 0.34278 0.36415 0.0
H1935 H 0.92429 0.29587 0.31679 0.0
C1936 C 0.95182 0.30297 0.34463 0.0
C1937 C 0.9602 0.31139 0.36848 0.0
C1938 C 0.88664 0.33041 0.34889 0.0
C1939 C 0.91718 0.31003 0.34986 0.0
C1940 C 0.86685 0.33346 0.33762 0.0
C1941 C 0.85519 0.31794 0.31754 0.0
C1942 C 0.89517 0.31211 0.33967 0.0
C1943 C 0.86391 0.29931 0.30937 0.0
C1944 C 0.93028 0.30187 0.33537 0.0
C1945 C 0.94627 0.31809 0.38274 0.0
N1946 N 0.88354 0.29713 0.32024 0.0
N1947 N 0.92552 0.31771 0.37311 0.0
H1948 H 0.07254 0.73727 0.63622 0.0
H1949 H 0.02151 0.65604 0.51259 0.0
H1950 H 0.04503 0.76536 0.57551 0.0
H1951 H 0.06292 0.63515 0.56824 0.0
H1952 H 0.02713 0.69496 0.53601 0.0
H1953 H 0.06605 0.69884 0.61254 0.0
C1954 C 0.06511 0.73545 0.61786 0.0
C1955 C 0.05938 0.75486 0.60794 0.0
C1956 C 0.03485 0.68182 0.5432 0.0
C1957 C 0.05185 0.71027 0.58046 0.0
C1958 C 0.03161 0.65956 0.52989 0.0
C1959 C 0.04132 0.64207 0.53877 0.0
C1960 C 0.04794 0.68673 0.56564 0.0
C1961 C 0.0545 0.64776 0.5611 0.0
C1962 C 0.06146 0.71337 0.6043 0.0
C1963 C 0.04979 0.75106 0.58397 0.0
N1964 N 0.05735 0.6695 0.57378 0.0
N1965 N 0.04629 0.72922 0.57109 0.0
H1966 H 0.61089 0.82189 0.91589 0.0
H1967 H 0.64462 0.76915 0.79843 0.0
H1968 H 0.5656 0.79115 0.85194 0.0
H1969 H 0.69062 0.81553 0.85486 0.0
H1970 H 0.61565 0.77413 0.81943 0.0
H1971 H 0.64053 0.81669 0.89553 0.0
C1972 C 0.60718 0.81402 0.89761 0.0
C1973 C 0.58573 0.807 0.88559 0.0
C1974 C 0.63209 0.78324 0.82722 0.0
C1975 C 0.6195 0.80087 0.86227 0.0
C1976 C 0.64869 0.78052 0.81515 0.0
C1977 C 0.67022 0.79204 0.82472 0.0
C1978 C 0.63692 0.79744 0.8492 0.0
C1979 C 0.67437 0.80604 0.84683 0.0
C1980 C 0.62409 0.81112 0.88599 0.0
C1981 C 0.58187 0.79691 0.8619 0.0
N1982 N 0.6579 0.80834 0.8583 0.0
N1983 N 0.59855 0.7941 0.85107 0.0
H1984 H 0.41578 0.53818 0.61318 0.0
H1985 H 0.52592 0.62745 0.60141 0.0
H1986 H 0.43876 0.60734 0.65448 0.0
H1987 H 0.50931 0.55191 0.57923 0.0
H1988 H 0.49126 0.62346 0.61534 0.0
H1989 H 0.44664 0.54669 0.59321 0.0
C1990 C 0.42715 0.55527 0.61782 0.0
C1991 C 0.42496 0.57188 0.6358 0.0
C1992 C 0.49527 0.60786 0.6073 0.0
C1993 C 0.46042 0.58162 0.6133 0.0
C1994 C 0.51502 0.6101 0.59955 0.0
C1995 C 0.52033 0.58998 0.58915 0.0
C1996 C 0.48093 0.58539 0.60439 0.0
C1997 C 0.5057 0.56792 0.58694 0.0
C1998 C 0.44483 0.56009 0.60651 0.0
C1999 C 0.44006 0.59388 0.64093 0.0
N2000 N 0.48667 0.56622 0.59442 0.0
N2001 N 0.45736 0.59804 0.62992 0.0
H2002 H 0.77966 0.21843 0.93558 0.0
H2003 H 0.80955 0.33335 0.87105 0.0
H2004 H 0.80006 0.28901 0.97394 0.0
H2005 H 0.76908 0.26661 0.83531 0.0
H2006 H 0.80907 0.31734 0.90866 0.0
H2007 H 0.77893 0.23548 0.89861 0.0
C2008 C 0.78411 0.23755 0.93627 0.0
C2009 C 0.78997 0.25228 0.95802 0.0
C2010 C 0.80019 0.30627 0.89261 0.0
C2011 C 0.78921 0.27201 0.91545 0.0
C2012 C 0.80045 0.31538 0.87108 0.0
C2013 C 0.78929 0.30136 0.84987 0.0
C2014 C 0.789 0.28278 0.893 0.0
C2015 C 0.77782 0.27817 0.85113 0.0
C2016 C 0.78356 0.24728 0.91509 0.0
C2017 C 0.79543 0.27695 0.95765 0.0
N2018 N 0.77813 0.26958 0.87224 0.0
N2019 N 0.79504 0.28603 0.93674 0.0
H2020 H 0.13858 0.49795 0.14742 0.0
H2021 H 0.02803 0.5049 0.06811 0.0
H2022 H 0.07786 0.44854 0.14657 0.0
H2023 H 0.08144 0.56545 0.09294 0.0
H2024 H 0.04852 0.47992 0.08882 0.0
H2025 H 0.12039 0.51785 0.11799 0.0
C2026 C 0.12155 0.49086 0.14058 0.0
C2027 C 0.10961 0.47175 0.1497 0.0
C2028 C 0.05579 0.49865 0.08958 0.0
C2029 C 0.08879 0.4946 0.11634 0.0
C2030 C 0.04409 0.51293 0.07792 0.0
C2031 C 0.05311 0.53728 0.07889 0.0
C2032 C 0.0767 0.50876 0.10211 0.0
C2033 C 0.07403 0.54672 0.09161 0.0
C2034 C 0.11117 0.5024 0.12399 0.0
C2035 C 0.0876 0.46336 0.14018 0.0
N2036 N 0.08515 0.53243 0.10276 0.0
N2037 N 0.07782 0.47501 0.12419 0.0
H2038 H 0.79977 0.87791 0.476 0.0
H2039 H 0.83501 0.89091 0.35061 0.0
H2040 H 0.83094 0.94467 0.4563 0.0
H2041 H 0.77828 0.83889 0.35776 0.0
H2042 H 0.83921 0.90673 0.39217 0.0
H2043 H 0.79713 0.85913 0.43526 0.0
C2044 C 0.80624 0.88851 0.46322 0.0
C2045 C 0.81546 0.9129 0.46948 0.0
C2046 C 0.82588 0.89181 0.38464 0.0
C2047 C 0.81281 0.89162 0.42328 0.0
C2048 C 0.82349 0.88274 0.36093 0.0
C2049 C 0.80616 0.86369 0.3506 0.0
C2050 C 0.81111 0.88148 0.39834 0.0
C2051 C 0.79174 0.8538 0.36493 0.0
C2052 C 0.80462 0.87787 0.44002 0.0
C2053 C 0.82352 0.92587 0.4522 0.0
N2054 N 0.79458 0.86273 0.3881 0.0
N2055 N 0.82211 0.91509 0.43002 0.0
H2056 H 0.45916 0.51789 0.73616 0.0
H2057 H 0.46915 0.57246 0.87003 0.0
H2058 H 0.42893 0.57314 0.7588 0.0
H2059 H 0.49943 0.5167 0.84925 0.0
H2060 H 0.45832 0.57632 0.82867 0.0
H2061 H 0.47823 0.52069 0.77664 0.0
C2062 C 0.45676 0.53084 0.74955 0.0
C2063 C 0.44217 0.54505 0.74417 0.0
C2064 C 0.46745 0.56333 0.83308 0.0
C2065 C 0.46381 0.54825 0.7904 0.0
C2066 C 0.47354 0.56106 0.85668 0.0
C2067 C 0.48488 0.54399 0.86297 0.0
C2068 C 0.47255 0.54826 0.81556 0.0
C2069 C 0.49061 0.53003 0.84506 0.0
C2070 C 0.46761 0.53238 0.77264 0.0
C2071 C 0.43975 0.56157 0.76218 0.0
N2072 N 0.48415 0.53226 0.82209 0.0
N2073 N 0.45029 0.56254 0.78449 0.0
H2074 H 0.80725 0.2808 0.09449 0.0
H2075 H 0.78981 0.2826 0.22924 0.0
H2076 H 0.77878 0.21921 0.12485 0.0
H2077 H 0.82288 0.34408 0.20238 0.0
H2078 H 0.78566 0.25923 0.19073 0.0
H2079 H 0.81295 0.30473 0.1333 0.0
C2080 C 0.80219 0.27229 0.10919 0.0
C2081 C 0.79252 0.24787 0.10621 0.0
C2082 C 0.79391 0.27783 0.19321 0.0
C2083 C 0.79898 0.27514 0.1507 0.0
C2084 C 0.79632 0.29112 0.21528 0.0
C2085 C 0.80674 0.31525 0.2191 0.0
C2086 C 0.80186 0.28878 0.17462 0.0
C2087 C 0.81476 0.32547 0.20023 0.0
C2088 C 0.80548 0.28595 0.13137 0.0
C2089 C 0.78633 0.2379 0.12606 0.0
N2090 N 0.81209 0.31225 0.17883 0.0
N2091 N 0.78963 0.25149 0.14726 0.0
H2092 H 0.04426 0.46256 0.25674 0.0
H2093 H 0.08354 0.51333 0.38987 0.0
H2094 H 0.10915 0.46781 0.29287 0.0
H2095 H 0.01601 0.4855 0.3602 0.0
H2096 H 0.09289 0.49343 0.35559 0.0
H2097 H 0.03291 0.4674 0.29483 0.0
C2098 C 0.05604 0.46431 0.27267 0.0
C2099 C 0.07777 0.46525 0.27162 0.0
C2100 C 0.07601 0.49134 0.35673 0.0
C2101 C 0.06495 0.47111 0.31521 0.0
C2102 C 0.07062 0.50264 0.37643 0.0
C2103 C 0.0489 0.50147 0.37785 0.0
C2104 C 0.05962 0.47912 0.33808 0.0
C2105 C 0.03297 0.48754 0.35958 0.0
C2106 C 0.04954 0.46703 0.29442 0.0
C2107 C 0.09227 0.46727 0.29282 0.0
N2108 N 0.03865 0.47726 0.34026 0.0
N2109 N 0.08569 0.47062 0.31376 0.0
H2110 H 0.80724 0.8596 0.59372 0.0
H2111 H 0.81365 0.87488 0.73387 0.0
H2112 H 0.83675 0.92516 0.63946 0.0
H2113 H 0.79083 0.80702 0.69042 0.0
H2114 H 0.82276 0.8932 0.69937 0.0
H2115 H 0.80176 0.83962 0.62853 0.0
C2116 C 0.81277 0.86976 0.61106 0.0
C2117 C 0.82246 0.89416 0.61358 0.0
C2118 C 0.81586 0.87428 0.69732 0.0
C2119 C 0.816 0.8714 0.65359 0.0
C2120 C 0.81067 0.86378 0.71707 0.0
C2121 C 0.80144 0.83936 0.71507 0.0
C2122 C 0.81165 0.86035 0.67519 0.0
C2123 C 0.79789 0.82592 0.69278 0.0
C2124 C 0.80958 0.85834 0.63095 0.0
C2125 C 0.8292 0.90636 0.63656 0.0
N2126 N 0.80287 0.8366 0.6737 0.0
N2127 N 0.82573 0.89493 0.65556 0.0
H2128 H 0.77783 0.51024 0.56006 0.0
H2129 H 0.65377 0.51015 0.56009 0.0
H2130 H 0.72719 0.44602 0.54782 0.0
H2131 H 0.70515 0.57351 0.56956 0.0
H2132 H 0.68014 0.48614 0.55674 0.0
H2133 H 0.75127 0.53333 0.56493 0.0
C2134 C 0.76108 0.50095 0.55841 0.0
C2135 C 0.75473 0.47612 0.55345 0.0
C2136 C 0.68564 0.50529 0.55962 0.0
C2137 C 0.72406 0.50263 0.55904 0.0
C2138 C 0.67057 0.51904 0.56143 0.0
C2139 C 0.67719 0.54396 0.56507 0.0
C2140 C 0.70752 0.51649 0.56144 0.0
C2141 C 0.69927 0.55441 0.56706 0.0
C2142 C 0.74589 0.5142 0.56121 0.0
C2143 C 0.73279 0.46513 0.55159 0.0
N2144 N 0.71357 0.54066 0.56515 0.0
N2145 N 0.71822 0.47846 0.55434 0.0
H2146 H 0.19027 0.20198 0.51471 0.0
H2147 H 0.10372 0.07925 0.46812 0.0
H2148 H 0.2047 0.14397 0.47328 0.0
H2149 H 0.1004 0.12474 0.52983 0.0
H2150 H 0.13867 0.10513 0.46595 0.0
H2151 H 0.15496 0.17646 0.51637 0.0
C2152 C 0.18593 0.18397 0.50575 0.0
C2153 C 0.20048 0.17509 0.49383 0.0
C2154 C 0.13036 0.10938 0.48005 0.0
C2155 C 0.1601 0.14586 0.49564 0.0
C2156 C 0.11044 0.09463 0.4813 0.0
C2157 C 0.09933 0.09971 0.49937 0.0
C2158 C 0.13905 0.12967 0.49671 0.0
C2159 C 0.10865 0.11996 0.51588 0.0
C2160 C 0.16585 0.16938 0.50686 0.0
C2161 C 0.19402 0.15154 0.4827 0.0
N2162 N 0.12791 0.13431 0.51408 0.0
N2163 N 0.17432 0.13779 0.4838 0.0
H2164 H 0.27813 0.08215 0.89014 0.0
H2165 H 0.25975 0.94859 0.85503 0.0
H2166 H 0.22105 0.032 0.89958 0.0
H2167 H 0.32459 0.99296 0.87364 0.0
H2168 H 0.24701 0.97806 0.87711 0.0
H2169 H 0.29752 0.05054 0.89075 0.0
C2170 C 0.26986 0.06468 0.89312 0.0
C2171 C 0.24775 0.05945 0.89399 0.0
C2172 C 0.26412 0.98123 0.87679 0.0
C2173 C 0.26967 0.02327 0.89429 0.0
C2174 C 0.27155 0.9642 0.86416 0.0
C2175 C 0.29337 0.96824 0.8619 0.0
C2176 C 0.27837 1.00292 0.88667 0.0
C2177 C 0.3075 0.98932 0.87401 0.0
C2178 C 0.28095 0.04662 0.89343 0.0
C2179 C 0.23794 0.03663 0.89816 0.0
N2180 N 0.29966 0.00614 0.88537 0.0
N2181 N 0.2488 0.01921 0.89752 0.0
H2182 H 0.38501 0.97598 0.06266 0.0
H2183 H 0.47017 0.05399 0.99784 0.0
H2184 H 0.36845 0.01485 0.00543 0.0
H2185 H 0.48893 0.03951 0.06876 0.0
H2186 H 0.43293 0.0353 0.99907 0.0
H2187 H 0.42346 0.99483 0.06408 0.0
C2188 C 0.38941 0.98837 0.05042 0.0
C2189 C 0.37344 0.99383 0.03393 0.0
C2190 C 0.44512 0.03626 0.01446 0.0
C2191 C 0.41707 0.01517 0.03537 0.0
C2192 C 0.46645 0.04692 0.01375 0.0
C2193 C 0.48272 0.04837 0.03324 0.0
C2194 C 0.43985 0.02664 0.03471 0.0
C2195 C 0.47683 0.03891 0.0534 0.0
C2196 C 0.41128 0.99918 0.05133 0.0
C2197 C 0.38006 0.01009 0.01854 0.0
N2198 N 0.45583 0.02825 0.05358 0.0
N2199 N 0.40125 0.02002 0.01959 0.0
H2200 H 0.88832 0.68176 0.80777 0.0
H2201 H 0.86479 0.80185 0.7679 0.0
H2202 H 0.93646 0.74791 0.81762 0.0
H2203 H 0.81431 0.74652 0.78342 0.0
H2204 H 0.89091 0.77889 0.77974 0.0
H2205 H 0.86054 0.70277 0.79467 0.0
C2206 C 0.89299 0.70075 0.80754 0.0
C2207 C 0.91472 0.71314 0.81378 0.0
C2208 C 0.8741 0.77171 0.78041 0.0
C2209 C 0.88324 0.73698 0.79821 0.0
C2210 C 0.85909 0.78469 0.77341 0.0
C2211 C 0.83731 0.77623 0.77492 0.0
C2212 C 0.86731 0.75001 0.7888 0.0
C2213 C 0.83095 0.75377 0.78208 0.0
C2214 C 0.87717 0.71266 0.79994 0.0
C2215 C 0.91991 0.73768 0.81306 0.0
N2216 N 0.84594 0.74145 0.78893 0.0
N2217 N 0.90431 0.74875 0.80513 0.0
H2218 H 0.81755 0.65134 0.04896 0.0
H2219 H 0.91949 0.64782 0.98796 0.0
H2220 H 0.83217 0.69342 0.99351 0.0
H2221 H 0.91161 0.6228 0.05456 0.0
H2222 H 0.88743 0.66394 0.98841 0.0
H2223 H 0.85164 0.63987 0.04999 0.0
C2224 C 0.82796 0.65822 0.03697 0.0
C2225 C 0.82189 0.67331 0.02103 0.0
C2226 C 0.89288 0.65513 0.00301 0.0
C2227 C 0.86119 0.66004 0.02207 0.0
C2228 C 0.91111 0.64583 0.00273 0.0
C2229 C 0.91828 0.63392 0.02126 0.0
C2230 C 0.88158 0.65219 0.0218 0.0
C2231 C 0.90688 0.63206 0.04002 0.0
C2232 C 0.84753 0.65172 0.03765 0.0
C2233 C 0.83621 0.68178 0.00609 0.0
N2234 N 0.88906 0.64089 0.0397 0.0
N2235 N 0.85513 0.67485 0.00681 0.0
H2236 H 0.25543 0.17791 0.87039 0.0
H2237 H 0.27299 0.25852 0.77053 0.0
H2238 H 0.2033 0.18911 0.81968 0.0
H2239 H 0.31525 0.27943 0.8381 0.0
H2240 H 0.24991 0.22819 0.7873 0.0
H2241 H 0.27964 0.2122 0.85921 0.0
C2242 C 0.24895 0.18782 0.85731 0.0
C2243 C 0.22736 0.18033 0.84564 0.0
C2244 C 0.26423 0.23938 0.7985 0.0
C2245 C 0.25499 0.21894 0.83258 0.0
C2246 C 0.27753 0.25655 0.7889 0.0
C2247 C 0.2959 0.27164 0.80304 0.0
C2248 C 0.2695 0.23687 0.82236 0.0
C2249 C 0.30114 0.26813 0.82667 0.0
C2250 C 0.2628 0.20729 0.85093 0.0
C2251 C 0.21985 0.19391 0.8289 0.0
N2252 N 0.28794 0.251 0.83569 0.0
N2253 N 0.23373 0.21226 0.82259 0.0
H2254 H 0.41389 0.10839 0.28991 0.0
H2255 H 0.41507 0.97177 0.28346 0.0
H2256 H 0.46579 0.08012 0.26937 0.0
H2257 H 0.36049 0.99905 0.2968 0.0
H2258 H 0.43257 0.01076 0.27469 0.0
H2259 H 0.3925 0.06803 0.2883 0.0
C2260 C 0.42069 0.09369 0.28474 0.0
C2261 C 0.4418 0.09765 0.28011 0.0
C2262 C 0.41668 0.00819 0.27931 0.0
C2263 C 0.41746 0.05137 0.27851 0.0
C2264 C 0.40677 0.98599 0.28449 0.0
C2265 C 0.38643 0.98229 0.29116 0.0
C2266 C 0.40628 0.02691 0.28103 0.0
C2267 C 0.37617 1.00115 0.29172 0.0
C2268 C 0.40845 0.07063 0.28384 0.0
C2269 C 0.44966 0.07792 0.27325 0.0
N2270 N 0.38631 0.02273 0.28698 0.0
N2271 N 0.4376 0.05562 0.273 0.0
H2272 H 0.60073 0.437 0.63701 0.0
H2273 H 0.52905 0.48709 0.53965 0.0
H2274 H 0.55885 0.38969 0.57842 0.0
H2275 H 0.59204 0.5271 0.57552 0.0
H2276 H 0.53664 0.45155 0.5557 0.0
H2277 H 0.59464 0.47087 0.61724 0.0
C2278 C 0.59026 0.43373 0.61995 0.0
C2279 C 0.58032 0.41046 0.60934 0.0
C2280 C 0.54881 0.46811 0.55983 0.0
C2281 C 0.57297 0.44927 0.58675 0.0
C2282 C 0.5445 0.4884 0.55072 0.0
C2283 C 0.55989 0.51021 0.55624 0.0
C2284 C 0.56844 0.46976 0.575 0.0
C2285 C 0.57965 0.51077 0.5707 0.0
C2286 C 0.58686 0.45308 0.60864 0.0
C2287 C 0.56693 0.40733 0.58717 0.0
N2288 N 0.58321 0.49099 0.57979 0.0
N2289 N 0.56343 0.42652 0.57671 0.0
H2290 H 0.43923 0.76659 0.3677 0.0
H2291 H 0.35221 0.83747 0.31867 0.0
H2292 H 0.45388 0.84203 0.36522 0.0
H2293 H 0.34563 0.76391 0.29328 0.0
H2294 H 0.3868 0.83817 0.34304 0.0
H2295 H 0.40192 0.76397 0.34768 0.0
C2296 C 0.43445 0.78259 0.36337 0.0
C2297 C 0.44954 0.80455 0.36804 0.0
C2298 C 0.37784 0.82187 0.3321 0.0
C2299 C 0.4073 0.80176 0.34544 0.0
C2300 C 0.3582 0.82156 0.31799 0.0
C2301 C 0.34639 0.80088 0.30336 0.0
C2302 C 0.38565 0.80118 0.33192 0.0
C2303 C 0.35444 0.78036 0.30404 0.0
C2304 C 0.41331 0.78108 0.35181 0.0
C2305 C 0.44271 0.82475 0.36184 0.0
N2306 N 0.37364 0.78102 0.31804 0.0
N2307 N 0.42215 0.82288 0.35093 0.0
H2308 H 0.05734 0.75388 0.14871 0.0
H2309 H 0.09341 0.66194 0.0653 0.0
H2310 H 0.09446 0.77831 0.09626 0.0
H2311 H 0.02852 0.64684 0.07954 0.0
H2312 H 0.09831 0.7035 0.0822 0.0
H2313 H 0.05022 0.7131 0.12886 0.0
C2314 C 0.06383 0.75063 0.13289 0.0
C2315 C 0.07636 0.76943 0.12397 0.0
C2316 C 0.08303 0.69103 0.08158 0.0
C2317 C 0.06892 0.72288 0.10175 0.0
C2318 C 0.08028 0.66733 0.07218 0.0
C2319 C 0.06057 0.65093 0.07117 0.0
C2320 C 0.06616 0.69819 0.09061 0.0
C2321 C 0.04398 0.65892 0.08003 0.0
C2322 C 0.05976 0.72743 0.12161 0.0
C2323 C 0.08452 0.7643 0.1035 0.0
N2324 N 0.04724 0.68192 0.08967 0.0
N2325 N 0.08096 0.74141 0.09326 0.0
H2326 H 0.09741 0.31486 0.92328 0.0
H2327 H 0.14124 0.30722 0.8015 0.0
H2328 H 0.05708 0.3013 0.85443 0.0
H2329 H 0.18117 0.30742 0.86851 0.0
H2330 H 0.11097 0.30876 0.82148 0.0
H2331 H 0.12905 0.31549 0.90437 0.0
C2332 C 0.09523 0.31207 0.90423 0.0
C2333 C 0.0746 0.308 0.89041 0.0
C2334 C 0.12634 0.30851 0.83188 0.0
C2335 C 0.11054 0.30877 0.86876 0.0
C2336 C 0.14369 0.30781 0.82048 0.0
C2337 C 0.16379 0.30725 0.83336 0.0
C2338 C 0.12902 0.30873 0.85642 0.0
C2339 C 0.16589 0.30762 0.85789 0.0
C2340 C 0.11325 0.31239 0.89347 0.0
C2341 C 0.07265 0.30445 0.86581 0.0
N2342 N 0.14871 0.30837 0.86866 0.0
N2343 N 0.09036 0.30496 0.85582 0.0
H2344 H 0.54041 0.76558 0.98827 0.0
H2345 H 0.51142 0.62288 0.96572 0.0
H2346 H 0.50459 0.72454 0.9229 0.0
H2347 H 0.54978 0.66422 0.02988 0.0
H2348 H 0.50666 0.65967 0.95075 0.0
H2349 H 0.54173 0.72861 0.0048 0.0
C2350 C 0.53261 0.74882 0.97745 0.0
C2351 C 0.52239 0.74828 0.95411 0.0
C2352 C 0.51604 0.66069 0.96815 0.0
C2353 C 0.52401 0.70566 0.97293 0.0
C2354 C 0.51875 0.63962 0.97677 0.0
C2355 C 0.53108 0.64026 0.99916 0.0
C2356 C 0.5257 0.68273 0.98196 0.0
C2357 C 0.54017 0.66267 0.01252 0.0
C2358 C 0.53345 0.72766 0.98688 0.0
C2359 C 0.51267 0.72592 0.94096 0.0
N2360 N 0.53735 0.68289 0.00372 0.0
N2361 N 0.5138 0.7056 0.95049 0.0
H2362 H 0.13084 0.86503 0.70701 0.0
H2363 H 0.22957 0.80389 0.72062 0.0
H2364 H 0.14621 0.82511 0.64815 0.0
H2365 H 0.23154 0.86862 0.76458 0.0
H2366 H 0.19638 0.80789 0.69635 0.0
H2367 H 0.16533 0.86352 0.73074 0.0
C2368 C 0.14152 0.85605 0.69905 0.0
C2369 C 0.13566 0.84519 0.67556 0.0
C2370 C 0.20409 0.82123 0.71129 0.0
C2371 C 0.17487 0.84302 0.70273 0.0
C2372 C 0.22295 0.81888 0.72528 0.0
C2373 C 0.23333 0.83591 0.74474 0.0
C2374 C 0.19523 0.84049 0.71701 0.0
C2375 C 0.22409 0.85509 0.74973 0.0
C2376 C 0.16119 0.85525 0.71258 0.0
C2377 C 0.15012 0.83381 0.66614 0.0
N2378 N 0.20544 0.85676 0.73608 0.0
N2379 N 0.16893 0.83278 0.67983 0.0
H2380 H 0.04461 0.38316 0.4803 0.0
H2381 H 0.04017 0.51973 0.47951 0.0
H2382 H 0.03648 0.41533 0.41644 0.0
H2383 H 0.06817 0.49305 0.54066 0.0
H2384 H 0.03548 0.48077 0.45633 0.0
H2385 H 0.04967 0.42229 0.50325 0.0
C2386 C 0.04381 0.39836 0.47109 0.0
C2387 C 0.04018 0.39583 0.44635 0.0
C2388 C 0.04278 0.48348 0.47479 0.0
C2389 C 0.04581 0.44072 0.47253 0.0
C2390 C 0.04563 0.50578 0.48792 0.0
C2391 C 0.055 0.50981 0.51187 0.0
C2392 C 0.04891 0.46485 0.48584 0.0
C2393 C 0.06106 0.49082 0.52218 0.0
C2394 C 0.04679 0.42073 0.4842 0.0
C2395 C 0.03936 0.41632 0.43544 0.0
N2396 N 0.05784 0.4692 0.50917 0.0
N2397 N 0.04205 0.43776 0.44854 0.0
H2398 H 0.50429 0.3536 0.15673 0.0
H2399 H 0.44278 0.34829 0.26665 0.0
H2400 H 0.51745 0.3143 0.21465 0.0
H2401 H 0.41859 0.37379 0.2028 0.0
H2402 H 0.47147 0.33778 0.24814 0.0
H2403 H 0.47371 0.36273 0.17322 0.0
C2404 C 0.50071 0.34675 0.17277 0.0
C2405 C 0.51359 0.3332 0.1843 0.0
C2406 C 0.4599 0.34564 0.2381 0.0
C2407 C 0.47879 0.34381 0.20338 0.0
C2408 C 0.44359 0.35182 0.24875 0.0
C2409 C 0.42831 0.36209 0.23633 0.0
C2410 C 0.4612 0.34989 0.21483 0.0
C2411 C 0.42997 0.36582 0.21299 0.0
C2412 C 0.48326 0.35199 0.18218 0.0
C2413 C 0.50812 0.32484 0.20508 0.0
N2414 N 0.4462 0.35987 0.20303 0.0
N2415 N 0.4913 0.3304 0.21396 0.0
H2416 H 0.6332 0.63333 0.4067 0.0
H2417 H 0.56925 0.53618 0.47012 0.0
H2418 H 0.6545 0.56859 0.41255 0.0
H2419 H 0.58445 0.61046 0.49797 0.0
H2420 H 0.59663 0.54537 0.44479 0.0
H2421 H 0.61081 0.62335 0.43644 0.0
C2422 C 0.63329 0.61715 0.41449 0.0
C2423 C 0.64571 0.6018 0.40744 0.0
C2424 C 0.594 0.55947 0.45671 0.0
C2425 C 0.61983 0.58999 0.44068 0.0
C2426 C 0.57839 0.55429 0.47096 0.0
C2427 C 0.57454 0.57262 0.4859 0.0
C2428 C 0.60523 0.58312 0.45724 0.0
C2429 C 0.58685 0.5958 0.4866 0.0
C2430 C 0.62058 0.61147 0.43138 0.0
C2431 C 0.64526 0.58094 0.41785 0.0
N2432 N 0.60142 0.60045 0.47221 0.0
N2433 N 0.63218 0.57538 0.43378 0.0
H2434 H 0.2924 0.86829 0.08975 0.0
H2435 H 0.3346 0.8859 0.22958 0.0
H2436 H 0.33565 0.93207 0.12847 0.0
H2437 H 0.288 0.82373 0.19203 0.0
H2438 H 0.33727 0.90163 0.19227 0.0
H2439 H 0.29273 0.85034 0.12637 0.0
C2440 C 0.30213 0.87846 0.10589 0.0
C2441 C 0.31398 0.90178 0.10595 0.0
C2442 C 0.32654 0.88448 0.19214 0.0
C2443 C 0.31434 0.88132 0.14811 0.0
C2444 C 0.32503 0.87541 0.21351 0.0
C2445 C 0.31101 0.85338 0.21413 0.0
C2446 C 0.31396 0.87153 0.17105 0.0
C2447 C 0.29903 0.84076 0.19257 0.0
C2448 C 0.30225 0.86821 0.12684 0.0
C2449 C 0.32622 0.91407 0.1275 0.0
N2450 N 0.30073 0.85003 0.172 0.0
N2451 N 0.32602 0.90376 0.14763 0.0
H2452 H 0.04465 0.68506 0.88832 0.0
H2453 H 0.01806 0.58949 0.97196 0.0
H2454 H 0.97875 0.65042 0.89002 0.0
H2455 H 0.07404 0.64809 0.99126 0.0
H2456 H 0.00324 0.61081 0.94137 0.0
H2457 H 0.05601 0.67196 0.9261 0.0
C2458 C 0.03254 0.67517 0.89698 0.0
C2459 C 0.01078 0.66875 0.88613 0.0
C2460 C 0.01861 0.61911 0.95256 0.0
C2461 C 0.02367 0.65304 0.92877 0.0
C2462 C 0.02707 0.60695 0.96995 0.0
C2463 C 0.04726 0.61707 0.98409 0.0
C2464 C 0.03071 0.64125 0.94904 0.0
C2465 C 0.05846 0.6396 0.98059 0.0
C2466 C 0.039 0.66767 0.91848 0.0
C2467 C 0.99568 0.65583 0.89795 0.0
N2468 N 0.05016 0.65082 0.9632 0.0
N2469 N 0.00248 0.6479 0.91845 0.0
H2470 H 0.24644 0.21241 0.5972 0.0
H2471 H 0.31664 0.31803 0.69553 0.0
H2472 H 0.29666 0.26744 0.58099 0.0
H2473 H 0.26003 0.26696 0.70474 0.0
H2474 H 0.31097 0.30012 0.65418 0.0
H2475 H 0.25236 0.23258 0.63698 0.0
C2476 C 0.25874 0.22884 0.60198 0.0
C2477 C 0.27113 0.23814 0.58562 0.0
C2478 C 0.29982 0.29293 0.66531 0.0
C2479 C 0.27815 0.26154 0.63177 0.0
C2480 C 0.30308 0.30306 0.68894 0.0
C2481 C 0.28884 0.29396 0.70376 0.0
C2482 C 0.28226 0.27351 0.65651 0.0
C2483 C 0.27149 0.27464 0.69415 0.0
C2484 C 0.26211 0.24043 0.62482 0.0
C2485 C 0.2867 0.25964 0.59298 0.0
N2486 N 0.26877 0.26511 0.67129 0.0
N2487 N 0.28989 0.27056 0.6156 0.0
H2488 H 0.70789 0.59288 0.27601 0.0
H2489 H 0.59772 0.57811 0.18564 0.0
H2490 H 0.64462 0.56761 0.29265 0.0
H2491 H 0.66067 0.60609 0.16939 0.0
H2492 H 0.61491 0.56944 0.22327 0.0
H2493 H 0.6912 0.59273 0.23514 0.0
C2494 C 0.69052 0.58696 0.27098 0.0
C2495 C 0.67758 0.58056 0.28778 0.0
C2496 C 0.62498 0.57735 0.21142 0.0
C2497 C 0.65841 0.58056 0.24122 0.0
C2498 C 0.61518 0.58223 0.1899 0.0
C2499 C 0.62779 0.59302 0.17445 0.0
C2500 C 0.64758 0.58335 0.21759 0.0
C2501 C 0.65034 0.59818 0.18098 0.0
C2502 C 0.68099 0.58697 0.24768 0.0
C2503 C 0.65518 0.57293 0.28031 0.0
N2504 N 0.65952 0.59341 0.20213 0.0
N2505 N 0.64628 0.57338 0.25763 0.0
H2506 H 0.28661 0.87656 0.97325 0.0
H2507 H 0.30819 0.87406 0.84126 0.0
H2508 H 0.30174 0.9405 0.94092 0.0
H2509 H 0.26316 0.81737 0.86249 0.0
H2510 H 0.31129 0.89771 0.87966 0.0
H2511 H 0.2834 0.85308 0.9347 0.0
C2512 C 0.28932 0.88565 0.95812 0.0
C2513 C 0.29431 0.91053 0.96034 0.0
C2514 C 0.30059 0.88016 0.8758 0.0
C2515 C 0.29106 0.88386 0.91639 0.0
C2516 C 0.2986 0.86686 0.85379 0.0
C2517 C 0.28476 0.84417 0.84835 0.0
C2518 C 0.28922 0.87032 0.89277 0.0
C2519 C 0.27373 0.83499 0.86581 0.0
C2520 C 0.28742 0.87227 0.93615 0.0
C2521 C 0.29766 0.92136 0.94006 0.0
N2522 N 0.27624 0.84803 0.88724 0.0
N2523 N 0.29613 0.908 0.91905 0.0
H2524 H 0.96412 0.68484 0.72825 0.0
H2525 H 0.072 0.67466 0.68227 0.0
H2526 H 0.02707 0.70269 0.7726 0.0
H2527 H 0.00732 0.64513 0.64362 0.0
H2528 H 0.05702 0.69526 0.71204 0.0
H2529 H 0.98118 0.6815 0.69375 0.0
C2530 C 0.98159 0.68845 0.7307 0.0
C2531 C 0.9942 0.69342 0.75333 0.0
C2532 C 0.0462 0.68461 0.69677 0.0
C2533 C 0.01375 0.68934 0.714 0.0
C2534 C 0.05471 0.67272 0.67986 0.0
C2535 C 0.04091 0.65773 0.66059 0.0
C2536 C 0.02376 0.6815 0.69434 0.0
C2537 C 0.01869 0.65647 0.65805 0.0
C2538 C 0.9913 0.68652 0.711 0.0
C2539 C 0.01673 0.69839 0.75548 0.0
N2540 N 0.01082 0.66792 0.67488 0.0
N2541 N 0.02581 0.69575 0.73605 0.0
H2542 H 0.27012 0.22645 0.41794 0.0
H2543 H 0.32336 0.34982 0.37707 0.0
H2544 H 0.29251 0.29139 0.46619 0.0
H2545 H 0.28383 0.29011 0.32872 0.0
H2546 H 0.31436 0.32844 0.41013 0.0
H2547 H 0.27724 0.24897 0.38531 0.0
C2548 C 0.27656 0.24547 0.42171 0.0
C2549 C 0.28073 0.257 0.44493 0.0
C2550 C 0.30751 0.32009 0.39229 0.0
C2551 C 0.28909 0.28299 0.40744 0.0
C2552 C 0.31265 0.33228 0.37341 0.0
C2553 C 0.30418 0.32179 0.35008 0.0
C2554 C 0.29409 0.29704 0.38784 0.0
C2555 C 0.29048 0.29897 0.34639 0.0
C2556 C 0.28055 0.25834 0.40301 0.0
C2557 C 0.28901 0.28173 0.44861 0.0
N2558 N 0.286 0.28731 0.36501 0.0
N2559 N 0.29305 0.29386 0.43012 0.0
H2560 H 0.31813 0.63318 0.54529 0.0
H2561 H 0.43523 0.6427 0.51307 0.0
H2562 H 0.35036 0.6941 0.5165 0.0
H2563 H 0.39235 0.57736 0.52191 0.0
H2564 H 0.40649 0.66352 0.51746 0.0
H2565 H 0.34745 0.61446 0.54048 0.0
C2566 C 0.33143 0.64276 0.538 0.0
C2567 C 0.33165 0.66535 0.53125 0.0
C2568 C 0.4034 0.64461 0.51831 0.0
C2569 C 0.36562 0.64365 0.52563 0.0
C2570 C 0.41979 0.63275 0.51593 0.0
C2571 C 0.41616 0.60821 0.51706 0.0
C2572 C 0.38339 0.6319 0.5222 0.0
C2573 C 0.39582 0.59618 0.52063 0.0
C2574 C 0.34819 0.63191 0.53516 0.0
C2575 C 0.34946 0.67667 0.5219 0.0
N2576 N 0.38031 0.60815 0.52319 0.0
N2577 N 0.36579 0.66572 0.51941 0.0
H2578 H 0.88966 0.99266 0.51253 0.0
H2579 H 0.99946 0.06277 0.5943 0.0
H2580 H 0.90048 0.98778 0.58697 0.0
H2581 H 0.99457 0.03888 0.52063 0.0
H2582 H 0.96295 0.03807 0.59291 0.0
H2583 H 0.92766 0.01216 0.51568 0.0
C2584 C 0.90018 0.99551 0.52954 0.0
C2585 C 0.89199 0.98854 0.5495 0.0
C2586 C 0.96996 0.03821 0.5771 0.0
C2587 C 0.93553 0.01147 0.5534 0.0
C2588 C 0.9907 0.05238 0.57783 0.0
C2589 C 0.99986 0.05324 0.55738 0.0
C2590 C 0.95827 0.0251 0.55568 0.0
C2591 C 0.98794 0.03922 0.53661 0.0
C2592 C 0.92187 0.00664 0.53134 0.0
C2593 C 0.90627 0.99271 0.57114 0.0
N2594 N 0.96773 0.02596 0.53623 0.0
N2595 N 0.92737 0.00426 0.57261 0.0
H2596 H 0.82518 0.07506 0.17588 0.0
H2597 H 0.83382 0.19558 0.25895 0.0
H2598 H 0.88231 0.1133 0.22498 0.0
H2599 H 0.77633 0.15999 0.20908 0.0
H2600 H 0.85124 0.16452 0.24717 0.0
H2601 H 0.80626 0.10487 0.18842 0.0
C2602 C 0.8337 0.08967 0.18933 0.0
C2603 C 0.85535 0.09179 0.19937 0.0
C2604 C 0.83482 0.16344 0.23874 0.0
C2605 C 0.83392 0.12579 0.2137 0.0
C2606 C 0.82492 0.18127 0.24536 0.0
C2607 C 0.8037 0.18046 0.23477 0.0
C2608 C 0.82345 0.14458 0.22139 0.0
C2609 C 0.79272 0.1612 0.2177 0.0
C2610 C 0.82292 0.10665 0.19645 0.0
C2611 C 0.86565 0.11101 0.21672 0.0
N2612 N 0.80277 0.144 0.21144 0.0
N2613 N 0.85484 0.12727 0.22329 0.0
H2614 H 0.70245 0.20017 1.00027 0.0
H2615 H 0.63189 0.09628 0.05238 0.0
H2616 H 0.73103 0.14782 0.03223 0.0
H2617 H 0.60681 0.11953 0.98756 0.0
H2618 H 0.66811 0.11902 0.04991 0.0
H2619 H 0.66648 0.17496 1.00011 0.0
C2620 C 0.70113 0.18341 0.00727 0.0
C2621 C 0.71967 0.17601 0.01624 0.0
C2622 C 0.65466 0.11893 0.03616 0.0
C2623 C 0.67885 0.14748 0.01647 0.0
C2624 C 0.63405 0.10602 0.03756 0.0
C2625 C 0.6164 0.10595 0.02008 0.0
C2626 C 0.65748 0.1324 0.01754 0.0
C2627 C 0.62005 0.11894 0.00127 0.0
C2628 C 0.68068 0.16904 0.00705 0.0
C2629 C 0.71712 0.15411 0.02505 0.0
N2630 N 0.64015 0.13194 1.00066 0.0
N2631 N 0.69707 0.14072 0.0252 0.0
H2632 H 0.20837 0.47173 0.253 0.0
H2633 H 0.23657 0.35684 0.30246 0.0
H2634 H 0.16113 0.40847 0.25888 0.0
H2635 H 0.28411 0.41316 0.28374 0.0
H2636 H 0.20967 0.37991 0.2949 0.0
H2637 H 0.23689 0.45424 0.27139 0.0
C2638 C 0.20399 0.45421 0.25825 0.0
C2639 C 0.18238 0.44139 0.25416 0.0
C2640 C 0.22605 0.38739 0.29274 0.0
C2641 C 0.21485 0.42146 0.27538 0.0
C2642 C 0.24147 0.37426 0.29715 0.0
C2643 C 0.26254 0.3829 0.29327 0.0
C2644 C 0.23168 0.40929 0.28431 0.0
C2645 C 0.26802 0.40575 0.28677 0.0
C2646 C 0.22027 0.44429 0.26878 0.0
C2647 C 0.1776 0.41885 0.26145 0.0
N2648 N 0.25256 0.41804 0.28211 0.0
N2649 N 0.19372 0.40957 0.27162 0.0
H2650 H 0.23805 0.43052 0.04342 0.0
H2651 H 0.20485 0.55319 0.0738 0.0
H2652 H 0.28322 0.49683 0.07262 0.0
H2653 H 0.15855 0.48892 0.04081 0.0
H2654 H 0.23325 0.5316 0.07606 0.0
H2655 H 0.2083 0.45034 0.04469 0.0
C2656 C 0.24171 0.4492 0.05019 0.0
C2657 C 0.26318 0.46206 0.05782 0.0
C2658 C 0.21689 0.52212 0.06837 0.0
C2659 C 0.22926 0.48481 0.05935 0.0
C2660 C 0.20065 0.53449 0.06701 0.0
C2661 C 0.17929 0.52295 0.05682 0.0
C2662 C 0.21189 0.49791 0.05947 0.0
C2663 C 0.17477 0.49853 0.04884 0.0
C2664 C 0.22473 0.46049 0.0509 0.0
C2665 C 0.26696 0.48621 0.06645 0.0
N2666 N 0.19096 0.48686 0.05016 0.0
N2667 N 0.25022 0.49676 0.06691 0.0
H2668 H 0.83702 0.96717 0.16042 0.0
H2669 H 0.83746 0.8887 0.2631 0.0
H2670 H 0.89528 0.94907 0.19209 0.0
H2671 H 0.78128 0.87919 0.20898 0.0
H2672 H 0.85904 0.91246 0.23855 0.0
H2673 H 0.81591 0.93558 0.17812 0.0
C2674 C 0.8453 0.95609 0.17057 0.0
C2675 C 0.86788 0.96069 0.17482 0.0
C2676 C 0.84202 0.90496 0.232 0.0
C2677 C 0.844 0.92528 0.19583 0.0
C2678 C 0.82973 0.89152 0.24604 0.0
C2679 C 0.80763 0.88197 0.23802 0.0
C2680 C 0.83196 0.90926 0.21009 0.0
C2681 C 0.79829 0.88634 0.21586 0.0
C2682 C 0.83328 0.93818 0.18077 0.0
C2683 C 0.87787 0.94597 0.18826 0.0
N2684 N 0.81045 0.89988 0.20275 0.0
N2685 N 0.86588 0.92923 0.19877 0.0
H2686 H 0.67005 0.0517 0.75544 0.0
H2687 H 0.66914 0.18275 0.72579 0.0
H2688 H 0.61628 0.06918 0.71245 0.0
H2689 H 0.72397 0.16397 0.76525 0.0
H2690 H 0.64819 0.14205 0.72394 0.0
H2691 H 0.68854 0.09357 0.76263 0.0
C2692 C 0.66204 0.06435 0.74761 0.0
C2693 C 0.64163 0.05684 0.73312 0.0
C2694 C 0.66476 0.14687 0.73314 0.0
C2695 C 0.66283 0.10492 0.74126 0.0
C2696 C 0.67676 0.17007 0.7341 0.0
C2697 C 0.69841 0.17672 0.74551 0.0
C2698 C 0.67447 0.13016 0.74361 0.0
C2699 C 0.70731 0.15968 0.7564 0.0
C2700 C 0.67264 0.08829 0.75174 0.0
C2701 C 0.63204 0.07411 0.72363 0.0
N2702 N 0.69535 0.13715 0.75503 0.0
N2703 N 0.64279 0.09733 0.72773 0.0
loop_
_geom_bond_atom_site_label_1
_geom_bond_atom_site_label_2
_geom_bond_distance
_geom_bond_site_symmetry_2
_ccdc_geom_bond_type
C0 O1 1.306 . S
C0 O3 1.160 . S
O1 C0 1.306 . S
O1 Cd2 2.228 1_655 S
Cd2 O1 2.228 1_455 S
Cd2 O6 2.273 . S
Cd2 O10 2.277 . S
O3 C0 1.160 . S
O3 Cd4 2.203 1_655 S
Cd4 O3 2.203 1_455 S
Cd4 O6 2.411 . S
Cd4 O7 2.333 . S
Cd4 O8 2.352 . S
Cd4 O12 2.277 . S
Cd4 O13 2.356 . S
C5 O10 1.209 . S
C5 O12 1.226 . S
O6 Cd2 2.273 . S
O6 Cd4 2.411 . S
O6 C9 1.320 . S
O7 Cd4 2.333 . S
O7 C9 1.214 . S
O8 Cd4 2.352 . S
O8 C11 1.258 . S
C9 O6 1.320 . S
C9 O7 1.214 . S
O10 Cd2 2.277 . S
O10 C5 1.209 . S
C11 O8 1.258 . S
C11 O13 1.282 . S
O12 Cd4 2.277 . S
O12 C5 1.226 . S
O13 Cd4 2.356 . S
O13 C11 1.282 . S
C14 O15 1.306 . S
C14 O17 1.160 . S
O15 C14 1.306 . S
O15 Cd16 2.228 . S
Cd16 O15 2.228 . S
Cd16 O20 2.273 . S
Cd16 O24 2.277 . S
O17 C14 1.160 . S
O17 Cd18 2.203 . S
Cd18 O17 2.203 . S
Cd18 O20 2.411 . S
Cd18 O21 2.333 . S
Cd18 O22 2.352 . S
Cd18 O26 2.277 . S
Cd18 O27 2.356 . S
C19 O24 1.209 . S
C19 O26 1.226 . S
O20 Cd16 2.273 . S
O20 Cd18 2.411 . S
O20 C23 1.320 . S
O21 Cd18 2.333 . S
O21 C23 1.214 . S
O22 Cd18 2.352 . S
O22 C25 1.258 . S
C23 O20 1.320 . S
C23 O21 1.214 . S
O24 Cd16 2.277 . S
O24 C19 1.209 . S
C25 O22 1.258 . S
C25 O27 1.282 . S
O26 Cd18 2.277 . S
O26 C19 1.226 . S
O27 Cd18 2.356 . S
O27 C25 1.282 . S
C28 O29 1.306 . S
C28 O31 1.160 . S
O29 C28 1.306 . S
O29 Cd30 2.228 . S
Cd30 O29 2.228 . S
Cd30 O34 2.273 . S
Cd30 O38 2.277 . S
O31 C28 1.160 . S
O31 Cd32 2.203 . S
Cd32 O31 2.203 . S
Cd32 O34 2.411 . S
Cd32 O35 2.333 . S
Cd32 O36 2.352 . S
Cd32 O40 2.277 . S
Cd32 O41 2.356 . S
C33 O38 1.209 . S
C33 O40 1.226 . S
O34 Cd30 2.273 . S
O34 Cd32 2.411 . S
O34 C37 1.320 . S
O35 Cd32 2.333 . S
O35 C37 1.214 . S
O36 Cd32 2.352 . S
O36 C39 1.258 . S
C37 O34 1.320 . S
C37 O35 1.214 . S
O38 Cd30 2.277 . S
O38 C33 1.209 . S
C39 O36 1.258 . S
C39 O41 1.282 . S
O40 Cd32 2.277 . S
O40 C33 1.226 . S
O41 Cd32 2.356 . S
O41 C39 1.282 . S
C42 O43 1.306 . S
C42 O45 1.160 . S
O43 C42 1.306 . S
O43 Cd44 2.228 . S
Cd44 O43 2.228 . S
Cd44 O48 2.273 . S
Cd44 O52 2.277 . S
O45 C42 1.160 . S
O45 Cd46 2.203 . S
Cd46 O45 2.203 . S
Cd46 O48 2.411 . S
Cd46 O49 2.333 . S
Cd46 O50 2.352 . S
Cd46 O54 2.277 . S
Cd46 O55 2.356 . S
C47 O52 1.209 . S
C47 O54 1.226 . S
O48 Cd44 2.273 . S
O48 Cd46 2.411 . S
O48 C51 1.320 . S
O49 Cd46 2.333 . S
O49 C51 1.214 . S
O50 Cd46 2.352 . S
O50 C53 1.258 . S
C51 O48 1.320 . S
C51 O49 1.214 . S
O52 Cd44 2.277 . S
O52 C47 1.209 . S
C53 O50 1.258 . S
C53 O55 1.282 . S
O54 Cd46 2.277 . S
O54 C47 1.226 . S
O55 Cd46 2.356 . S
O55 C53 1.282 . S
C56 O57 1.306 . S
C56 O59 1.160 . S
O57 C56 1.306 . S
O57 Cd58 2.228 . S
Cd58 O57 2.228 . S
Cd58 O62 2.273 . S
Cd58 O66 2.277 . S
O59 C56 1.160 . S
O59 Cd60 2.203 . S
Cd60 O59 2.203 . S
Cd60 O62 2.411 . S
Cd60 O63 2.333 . S
Cd60 O64 2.352 . S
Cd60 O68 2.277 . S
Cd60 O69 2.356 . S
C61 O66 1.209 . S
C61 O68 1.226 . S
O62 Cd58 2.273 . S
O62 Cd60 2.411 . S
O62 C65 1.320 . S
O63 Cd60 2.333 . S
O63 C65 1.214 . S
O64 Cd60 2.352 . S
O64 C67 1.258 . S
C65 O62 1.320 . S
C65 O63 1.214 . S
O66 Cd58 2.277 . S
O66 C61 1.209 . S
C67 O64 1.258 . S
C67 O69 1.282 . S
O68 Cd60 2.277 . S
O68 C61 1.226 . S
O69 Cd60 2.356 . S
O69 C67 1.282 . S
C70 O71 1.306 . S
C70 O73 1.160 . S
O71 C70 1.306 . S
O71 Cd72 2.228 . S
Cd72 O71 2.228 . S
Cd72 O76 2.273 . S
Cd72 O80 2.277 . S
O73 C70 1.160 . S
O73 Cd74 2.203 . S
Cd74 O73 2.203 . S
Cd74 O76 2.411 . S
Cd74 O77 2.333 . S
Cd74 O78 2.352 . S
Cd74 O82 2.277 . S
Cd74 O83 2.356 . S
C75 O80 1.209 . S
C75 O82 1.226 . S
O76 Cd72 2.273 . S
O76 Cd74 2.411 . S
O76 C79 1.320 . S
O77 Cd74 2.333 . S
O77 C79 1.214 . S
O78 Cd74 2.352 . S
O78 C81 1.258 . S
C79 O76 1.320 . S
C79 O77 1.214 . S
O80 Cd72 2.277 . S
O80 C75 1.209 . S
C81 O78 1.258 . S
C81 O83 1.282 . S
O82 Cd74 2.277 . S
O82 C75 1.226 . S
O83 Cd74 2.356 . S
O83 C81 1.282 . S
C84 O85 1.306 . S
C84 O87 1.160 . S
O85 C84 1.306 . S
O85 Cd86 2.228 . S
Cd86 O85 2.228 . S
Cd86 O90 2.273 . S
Cd86 O94 2.277 . S
O87 C84 1.160 . S
O87 Cd88 2.203 . S
Cd88 O87 2.203 . S
Cd88 O90 2.411 . S
Cd88 O91 2.333 . S
Cd88 O92 2.352 . S
Cd88 O96 2.277 . S
Cd88 O97 2.356 . S
C89 O94 1.209 . S
C89 O96 1.226 . S
O90 Cd86 2.273 . S
O90 Cd88 2.411 . S
O90 C93 1.320 . S
O91 Cd88 2.333 . S
O91 C93 1.214 . S
O92 Cd88 2.352 . S
O92 C95 1.258 . S
C93 O90 1.320 . S
C93 O91 1.214 . S
O94 Cd86 2.277 . S
O94 C89 1.209 . S
C95 O92 1.258 . S
C95 O97 1.282 . S
O96 Cd88 2.277 . S
O96 C89 1.226 . S
O97 Cd88 2.356 . S
O97 C95 1.282 . S
C98 O99 1.306 . S
C98 O101 1.160 . S
O99 C98 1.306 . S
O99 Cd100 2.228 1_655 S
Cd100 O99 2.228 1_455 S
Cd100 O104 2.273 . S
Cd100 O108 2.277 . S
O101 C98 1.160 . S
O101 Cd102 2.203 1_655 S
Cd102 O101 2.203 1_455 S
Cd102 O104 2.411 . S
Cd102 O105 2.333 . S
Cd102 O106 2.352 . S
Cd102 O110 2.277 . S
Cd102 O111 2.356 . S
C103 O108 1.209 . S
C103 O110 1.226 . S
O104 Cd100 2.273 . S
O104 Cd102 2.411 . S
O104 C107 1.320 . S
O105 Cd102 2.333 . S
O105 C107 1.214 . S
O106 Cd102 2.352 . S
O106 C109 1.258 . S
C107 O104 1.320 . S
C107 O105 1.214 . S
O108 Cd100 2.277 . S
O108 C103 1.209 . S
C109 O106 1.258 . S
C109 O111 1.282 . S
O110 Cd102 2.277 . S
O110 C103 1.226 . S
O111 Cd102 2.356 . S
O111 C109 1.282 . S
C112 O113 1.306 . S
C112 O115 1.160 . S
O113 C112 1.306 . S
O113 Cd114 2.228 . S
Cd114 O113 2.228 . S
Cd114 O118 2.273 . S
Cd114 O122 2.277 . S
O115 C112 1.160 . S
O115 Cd116 2.203 . S
Cd116 O115 2.203 . S
Cd116 O118 2.411 . S
Cd116 O119 2.333 . S
Cd116 O120 2.352 . S
Cd116 O124 2.277 . S
Cd116 O125 2.356 . S
C117 O122 1.209 . S
C117 O124 1.226 . S
O118 Cd114 2.273 . S
O118 Cd116 2.411 . S
O118 C121 1.320 . S
O119 Cd116 2.333 . S
O119 C121 1.214 . S
O120 Cd116 2.352 . S
O120 C123 1.258 . S
C121 O118 1.320 . S
C121 O119 1.214 . S
O122 Cd114 2.277 . S
O122 C117 1.209 . S
C123 O120 1.258 . S
C123 O125 1.282 . S
O124 Cd116 2.277 . S
O124 C117 1.226 . S
O125 Cd116 2.356 . S
O125 C123 1.282 . S
C126 O127 1.306 . S
C126 O129 1.160 . S
O127 C126 1.306 . S
O127 Cd128 2.228 . S
Cd128 O127 2.228 . S
Cd128 O132 2.273 . S
Cd128 O136 2.277 . S
O129 C126 1.160 . S
O129 Cd130 2.203 . S
Cd130 O129 2.203 . S
Cd130 O132 2.411 . S
Cd130 O133 2.333 . S
Cd130 O134 2.352 . S
Cd130 O138 2.277 . S
Cd130 O139 2.356 . S
C131 O136 1.209 . S
C131 O138 1.226 . S
O132 Cd128 2.273 . S
O132 Cd130 2.411 . S
O132 C135 1.320 . S
O133 Cd130 2.333 . S
O133 C135 1.214 . S
O134 Cd130 2.352 . S
O134 C137 1.258 . S
C135 O132 1.320 . S
C135 O133 1.214 . S
O136 Cd128 2.277 . S
O136 C131 1.209 . S
C137 O134 1.258 . S
C137 O139 1.282 . S
O138 Cd130 2.277 . S
O138 C131 1.226 . S
O139 Cd130 2.356 . S
O139 C137 1.282 . S
C140 O141 1.306 . S
C140 O143 1.160 . S
O141 C140 1.306 . S
O141 Cd142 2.228 . S
Cd142 O141 2.228 . S
Cd142 O146 2.273 . S
Cd142 O150 2.277 . S
O143 C140 1.160 . S
O143 Cd144 2.203 . S
Cd144 O143 2.203 . S
Cd144 O146 2.411 . S
Cd144 O147 2.333 . S
Cd144 O148 2.352 . S
Cd144 O152 2.277 . S
Cd144 O153 2.356 . S
C145 O150 1.209 . S
C145 O152 1.226 . S
O146 Cd142 2.273 . S
O146 Cd144 2.411 . S
O146 C149 1.320 . S
O147 Cd144 2.333 . S
O147 C149 1.214 . S
O148 Cd144 2.352 . S
O148 C151 1.258 . S
C149 O146 1.320 . S
C149 O147 1.214 . S
O150 Cd142 2.277 . S
O150 C145 1.209 . S
C151 O148 1.258 . S
C151 O153 1.282 . S
O152 Cd144 2.277 . S
O152 C145 1.226 . S
O153 Cd144 2.356 . S
O153 C151 1.282 . S
C154 O155 1.306 . S
C154 O157 1.160 . S
O155 C154 1.306 . S
O155 Cd156 2.228 . S
Cd156 O155 2.228 . S
Cd156 O160 2.273 . S
Cd156 O164 2.277 . S
O157 C154 1.160 . S
O157 Cd158 2.203 . S
Cd158 O157 2.203 . S
Cd158 O160 2.411 . S
Cd158 O161 2.333 . S
Cd158 O162 2.352 . S
Cd158 O166 2.277 . S
Cd158 O167 2.356 . S
C159 O164 1.209 . S
C159 O166 1.226 . S
O160 Cd156 2.273 . S
O160 Cd158 2.411 . S
O160 C163 1.320 . S
O161 Cd158 2.333 . S
O161 C163 1.214 . S
O162 Cd158 2.352 . S
O162 C165 1.258 . S
C163 O160 1.320 . S
C163 O161 1.214 . S
O164 Cd156 2.277 . S
O164 C159 1.209 . S
C165 O162 1.258 . S
C165 O167 1.282 . S
O166 Cd158 2.277 . S
O166 C159 1.226 . S
O167 Cd158 2.356 . S
O167 C165 1.282 . S
C168 O169 1.306 . S
C168 O171 1.160 . S
O169 C168 1.306 . S
O169 Cd170 2.228 . S
Cd170 O169 2.228 . S
Cd170 O174 2.273 . S
Cd170 O178 2.277 1_554 S
O171 C168 1.160 . S
O171 Cd172 2.203 . S
Cd172 O171 2.203 . S
Cd172 O174 2.411 . S
Cd172 O175 2.333 . S
Cd172 O176 2.352 . S
Cd172 O180 2.277 . S
Cd172 O181 2.356 . S
C173 O178 1.209 . S
C173 O180 1.226 1_556 S
O174 Cd170 2.273 . S
O174 Cd172 2.411 . S
O174 C177 1.320 . S
O175 Cd172 2.333 . S
O175 C177 1.214 . S
O176 Cd172 2.352 . S
O176 C179 1.258 . S
C177 O174 1.320 . S
C177 O175 1.214 . S
O178 Cd170 2.277 1_556 S
O178 C173 1.209 . S
C179 O176 1.258 . S
C179 O181 1.282 . S
O180 Cd172 2.277 . S
O180 C173 1.226 1_554 S
O181 Cd172 2.356 . S
O181 C179 1.282 . S
C182 O183 1.306 . S
C182 O185 1.169 . S
O183 C182 1.306 . S
O183 Cd184 2.228 . S
Cd184 O183 2.228 . S
Cd184 O188 2.273 1_554 S
Cd184 O192 2.277 . S
O185 C182 1.169 . S
O185 Cd186 2.204 1_554 S
Cd186 O185 2.204 1_556 S
Cd186 O188 2.411 . S
Cd186 O189 2.333 . S
Cd186 O190 2.352 . S
Cd186 O194 2.277 1_556 S
Cd186 O195 2.356 . S
C187 O192 1.209 . S
C187 O194 1.226 . S
O188 Cd184 2.273 1_556 S
O188 Cd186 2.411 . S
O188 C191 1.320 . S
O189 Cd186 2.333 . S
O189 C191 1.214 . S
O190 Cd186 2.352 . S
O190 C193 1.258 . S
C191 O188 1.320 . S
C191 O189 1.214 . S
O192 Cd184 2.277 . S
O192 C187 1.209 . S
C193 O190 1.258 . S
C193 O195 1.282 . S
O194 Cd186 2.277 1_554 S
O194 C187 1.226 . S
O195 Cd186 2.356 . S
O195 C193 1.282 . S
C196 O197 1.306 . S
C196 O199 1.160 . S
O197 C196 1.306 . S
O197 Cd198 2.228 . S
Cd198 O197 2.228 . S
Cd198 O202 2.273 . S
Cd198 O206 2.277 . S
O199 C196 1.160 . S
O199 Cd200 2.203 . S
Cd200 O199 2.203 . S
Cd200 O202 2.411 . S
Cd200 O203 2.333 . S
Cd200 O204 2.352 . S
Cd200 O208 2.277 . S
Cd200 O209 2.356 . S
C201 O206 1.209 . S
C201 O208 1.226 . S
O202 Cd198 2.273 . S
O202 Cd200 2.411 . S
O202 C205 1.320 . S
O203 Cd200 2.333 . S
O203 C205 1.214 . S
O204 Cd200 2.352 . S
O204 C207 1.258 . S
C205 O202 1.320 . S
C205 O203 1.214 . S
O206 Cd198 2.277 . S
O206 C201 1.209 . S
C207 O204 1.258 . S
C207 O209 1.282 . S
O208 Cd200 2.277 . S
O208 C201 1.226 . S
O209 Cd200 2.356 . S
O209 C207 1.282 . S
C210 O211 1.306 . S
C210 O213 1.160 . S
O211 C210 1.306 . S
O211 Cd212 2.228 . S
Cd212 O211 2.228 . S
Cd212 O216 2.273 . S
Cd212 O220 2.277 . S
O213 C210 1.160 . S
O213 Cd214 2.203 . S
Cd214 O213 2.203 . S
Cd214 O216 2.411 . S
Cd214 O217 2.333 . S
Cd214 O218 2.352 . S
Cd214 O222 2.277 . S
Cd214 O223 2.356 . S
C215 O220 1.209 . S
C215 O222 1.226 . S
O216 Cd212 2.273 . S
O216 Cd214 2.411 . S
O216 C219 1.320 . S
O217 Cd214 2.333 . S
O217 C219 1.214 . S
O218 Cd214 2.352 . S
O218 C221 1.258 . S
C219 O216 1.320 . S
C219 O217 1.214 . S
O220 Cd212 2.277 . S
O220 C215 1.209 . S
C221 O218 1.258 . S
C221 O223 1.282 . S
O222 Cd214 2.277 . S
O222 C215 1.226 . S
O223 Cd214 2.356 . S
O223 C221 1.282 . S
C224 O225 1.306 . S
C224 O227 1.160 . S
O225 C224 1.306 . S
O225 Cd226 2.228 . S
Cd226 O225 2.228 . S
Cd226 O230 2.273 . S
Cd226 O234 2.274 1_545 S
O227 C224 1.160 . S
O227 Cd228 2.203 . S
Cd228 O227 2.203 . S
Cd228 O230 2.411 . S
Cd228 O231 2.333 . S
Cd228 O232 2.352 . S
Cd228 O236 2.277 . S
Cd228 O237 2.356 . S
C229 O234 1.209 . S
C229 O236 1.226 1_565 S
O230 Cd226 2.273 . S
O230 Cd228 2.411 . S
O230 C233 1.320 . S
O231 Cd228 2.333 . S
O231 C233 1.214 . S
O232 Cd228 2.352 . S
O232 C235 1.258 . S
C233 O230 1.320 . S
C233 O231 1.214 . S
O234 Cd226 2.274 1_565 S
O234 C229 1.209 . S
C235 O232 1.258 . S
C235 O237 1.282 . S
O236 Cd228 2.277 . S
O236 C229 1.226 1_545 S
O237 Cd228 2.356 . S
O237 C235 1.282 . S
C238 O239 1.306 . S
C238 O241 1.160 . S
O239 C238 1.306 . S
O239 Cd240 2.228 . S
Cd240 O239 2.228 . S
Cd240 O244 2.273 . S
Cd240 O248 2.277 . S
O241 C238 1.160 . S
O241 Cd242 2.203 . S
Cd242 O241 2.203 . S
Cd242 O244 2.411 . S
Cd242 O245 2.333 . S
Cd242 O246 2.352 . S
Cd242 O250 2.277 . S
Cd242 O251 2.356 . S
C243 O248 1.209 . S
C243 O250 1.226 . S
O244 Cd240 2.273 . S
O244 Cd242 2.411 . S
O244 C247 1.320 . S
O245 Cd242 2.333 . S
O245 C247 1.214 . S
O246 Cd242 2.352 . S
O246 C249 1.258 . S
C247 O244 1.320 . S
C247 O245 1.214 . S
O248 Cd240 2.277 . S
O248 C243 1.209 . S
C249 O246 1.258 . S
C249 O251 1.282 . S
O250 Cd242 2.277 . S
O250 C243 1.226 . S
O251 Cd242 2.356 . S
O251 C249 1.282 . S
C252 O253 1.306 . S
C252 O255 1.160 . S
O253 C252 1.306 . S
O253 Cd254 2.228 . S
Cd254 O253 2.228 . S
Cd254 O258 2.273 . S
Cd254 O262 2.277 . S
O255 C252 1.160 . S
O255 Cd256 2.203 . S
Cd256 O255 2.203 . S
Cd256 O258 2.411 . S
Cd256 O259 2.333 . S
Cd256 O260 2.352 . S
Cd256 O264 2.277 . S
Cd256 O265 2.356 . S
C257 O262 1.209 . S
C257 O264 1.226 . S
O258 Cd254 2.273 . S
O258 Cd256 2.411 . S
O258 C261 1.320 . S
O259 Cd256 2.333 . S
O259 C261 1.214 . S
O260 Cd256 2.352 . S
O260 C263 1.258 . S
C261 O258 1.320 . S
C261 O259 1.214 . S
O262 Cd254 2.277 . S
O262 C257 1.209 . S
C263 O260 1.258 . S
C263 O265 1.282 . S
O264 Cd256 2.277 . S
O264 C257 1.226 . S
O265 Cd256 2.356 . S
O265 C263 1.282 . S
C266 O267 1.306 . S
C266 O269 1.164 . S
O267 C266 1.306 . S
O267 Cd268 2.228 . S
Cd268 O267 2.228 . S
Cd268 O272 2.273 1_545 S
Cd268 O276 2.277 . S
O269 C266 1.164 . S
O269 Cd270 2.203 1_545 S
Cd270 O269 2.203 1_565 S
Cd270 O272 2.411 . S
Cd270 O273 2.333 . S
Cd270 O274 2.352 . S
Cd270 O278 2.277 1_565 S
Cd270 O279 2.356 . S
C271 O276 1.209 . S
C271 O278 1.226 . S
O272 Cd268 2.273 1_565 S
O272 Cd270 2.411 . S
O272 C275 1.320 . S
O273 Cd270 2.333 . S
O273 C275 1.214 . S
O274 Cd270 2.352 . S
O274 C277 1.258 . S
C275 O272 1.320 . S
C275 O273 1.214 . S
O276 Cd268 2.277 . S
O276 C271 1.209 . S
C277 O274 1.258 . S
C277 O279 1.282 . S
O278 Cd270 2.277 1_545 S
O278 C271 1.226 . S
O279 Cd270 2.356 . S
O279 C277 1.282 . S
C280 O281 1.306 . S
C280 O283 1.160 . S
O281 C280 1.306 . S
O281 Cd282 2.228 . S
Cd282 O281 2.228 . S
Cd282 O286 2.273 . S
Cd282 O290 2.277 . S
O283 C280 1.160 . S
O283 Cd284 2.203 . S
Cd284 O283 2.203 . S
Cd284 O286 2.411 . S
Cd284 O287 2.333 . S
Cd284 O288 2.352 1_554 S
Cd284 O292 2.277 . S
Cd284 O293 2.356 1_554 S
C285 O290 1.209 . S
C285 O292 1.226 . S
O286 Cd282 2.273 . S
O286 Cd284 2.411 . S
O286 C289 1.320 . S
O287 Cd284 2.333 . S
O287 C289 1.214 . S
O288 Cd284 2.352 1_556 S
O288 C291 1.258 . S
C289 O286 1.320 . S
C289 O287 1.214 . S
O290 Cd282 2.277 . S
O290 C285 1.209 . S
C291 O288 1.258 . S
C291 O293 1.282 . S
O292 Cd284 2.277 . S
O292 C285 1.226 . S
O293 Cd284 2.356 1_556 S
O293 C291 1.282 . S
C294 O295 1.306 . S
C294 O297 1.160 . S
O295 C294 1.306 . S
O295 Cd296 2.228 . S
Cd296 O295 2.228 . S
Cd296 O300 2.273 . S
Cd296 O304 2.277 . S
O297 C294 1.160 . S
O297 Cd298 2.203 . S
Cd298 O297 2.203 . S
Cd298 O300 2.411 . S
Cd298 O301 2.333 . S
Cd298 O302 2.352 . S
Cd298 O306 2.277 . S
Cd298 O307 2.356 . S
C299 O304 1.209 . S
C299 O306 1.226 . S
O300 Cd296 2.273 . S
O300 Cd298 2.411 . S
O300 C303 1.320 . S
O301 Cd298 2.333 . S
O301 C303 1.214 . S
O302 Cd298 2.352 . S
O302 C305 1.258 . S
C303 O300 1.320 . S
C303 O301 1.214 . S
O304 Cd296 2.277 . S
O304 C299 1.209 . S
C305 O302 1.258 . S
C305 O307 1.282 . S
O306 Cd298 2.277 . S
O306 C299 1.226 . S
O307 Cd298 2.356 . S
O307 C305 1.282 . S
C308 O309 1.306 . S
C308 O311 1.160 . S
O309 C308 1.306 . S
O309 Cd310 2.228 . S
Cd310 O309 2.228 . S
Cd310 O314 2.273 . S
Cd310 O318 2.277 . S
O311 C308 1.160 . S
O311 Cd312 2.203 . S
Cd312 O311 2.203 . S
Cd312 O314 2.411 . S
Cd312 O315 2.333 . S
Cd312 O316 2.352 . S
Cd312 O320 2.277 . S
Cd312 O321 2.356 . S
C313 O318 1.209 . S
C313 O320 1.226 . S
O314 Cd310 2.273 . S
O314 Cd312 2.411 . S
O314 C317 1.320 . S
O315 Cd312 2.333 . S
O315 C317 1.214 . S
O316 Cd312 2.352 . S
O316 C319 1.258 . S
C317 O314 1.320 . S
C317 O315 1.214 . S
O318 Cd310 2.277 . S
O318 C313 1.209 . S
C319 O316 1.258 . S
C319 O321 1.282 . S
O320 Cd312 2.277 . S
O320 C313 1.226 . S
O321 Cd312 2.356 . S
O321 C319 1.282 . S
C322 O323 1.306 . S
C322 O325 1.160 . S
O323 C322 1.306 . S
O323 Cd324 2.228 . S
Cd324 O323 2.228 . S
Cd324 O328 2.273 . S
Cd324 O332 2.277 . S
O325 C322 1.160 . S
O325 Cd326 2.203 . S
Cd326 O325 2.203 . S
Cd326 O328 2.411 . S
Cd326 O329 2.333 . S
Cd326 O330 2.352 . S
Cd326 O334 2.277 . S
Cd326 O335 2.356 . S
C327 O332 1.209 . S
C327 O334 1.226 . S
O328 Cd324 2.273 . S
O328 Cd326 2.411 . S
O328 C331 1.320 . S
O329 Cd326 2.333 . S
O329 C331 1.214 . S
O330 Cd326 2.352 . S
O330 C333 1.258 . S
C331 O328 1.320 . S
C331 O329 1.214 . S
O332 Cd324 2.277 . S
O332 C327 1.209 . S
C333 O330 1.258 . S
C333 O335 1.282 . S
O334 Cd326 2.277 . S
O334 C327 1.226 . S
O335 Cd326 2.356 . S
O335 C333 1.282 . S
Pr336 C338 2.880 1_454 S
Pr336 O356 2.562 1_455 S
Pr336 O357 2.490 1_454 S
Pr336 O358 2.695 . S
Pr336 O359 2.512 1_554 S
Pr336 O361 2.437 . S
Pr336 O364 2.436 . S
Pr336 O366 2.438 . S
Pr337 C347 2.880 . S
Pr337 O358 2.436 . S
Pr337 O360 2.438 . S
Pr337 O362 2.562 . S
Pr337 O363 2.490 . S
Pr337 O364 2.695 . S
Pr337 O365 2.512 . S
Pr337 O367 2.437 . S
C338 Pr336 2.880 1_656 S
C338 C339 1.491 . S
C338 O356 1.254 1_556 S
C338 O357 1.225 . S
C339 C338 1.491 . S
C339 C340 1.392 . S
C339 C344 1.329 1_556 S
C340 C339 1.392 . S
C340 C341 1.368 . S
C340 H368 0.929 . S
C341 C340 1.368 . S
C341 C342 1.386 . S
C341 H369 0.929 . S
C342 C341 1.386 . S
C342 C343 1.373 . S
C343 C342 1.373 . S
C343 C344 1.399 1_556 S
C343 H370 0.931 1_556 S
C344 C339 1.329 1_554 S
C344 C343 1.399 1_554 S
C344 H371 0.969 . S
C345 O358 1.270 1_556 S
C345 O359 1.248 . S
C346 O360 1.267 . S
C346 O361 1.278 . S
C347 Pr337 2.880 . S
C347 C348 1.491 . S
C347 O362 1.254 . S
C347 O363 1.225 . S
C348 C347 1.491 . S
C348 C349 1.392 . S
C348 C353 1.356 . S
C349 C348 1.392 . S
C349 C350 1.368 . S
C349 H372 0.929 . S
C350 C349 1.368 . S
C350 C351 1.386 . S
C350 H373 0.929 . S
C351 C350 1.386 . S
C351 C352 1.373 . S
C352 C351 1.373 . S
C352 C353 1.409 . S
C352 H374 0.931 . S
C353 C348 1.356 . S
C353 C352 1.409 . S
C353 H375 0.930 . S
C354 O364 1.270 . S
C354 O365 1.248 . S
C355 O366 1.267 . S
C355 O367 1.278 . S
O356 Pr336 2.562 1_655 S
O356 C338 1.254 1_554 S
O357 Pr336 2.490 1_656 S
O357 C338 1.225 . S
O358 Pr336 2.695 . S
O358 Pr337 2.436 . S
O358 C345 1.270 1_554 S
O359 Pr336 2.512 1_556 S
O359 C345 1.248 . S
O360 Pr337 2.438 . S
O360 C346 1.267 . S
O361 Pr336 2.437 . S
O361 C346 1.278 . S
O362 Pr337 2.562 . S
O362 C347 1.254 . S
O363 Pr337 2.490 . S
O363 C347 1.225 . S
O364 Pr336 2.436 . S
O364 Pr337 2.695 . S
O364 C354 1.270 . S
O365 Pr337 2.512 . S
O365 C354 1.248 . S
O366 Pr336 2.438 . S
O366 C355 1.267 . S
O367 Pr337 2.437 . S
O367 C355 1.278 . S
H368 C340 0.929 . S
H369 C341 0.929 . S
H370 C343 0.931 1_554 S
H371 C344 0.969 . S
H372 C349 0.929 . S
H373 C350 0.929 . S
H374 C352 0.931 . S
H375 C353 0.930 . S
Pr376 C378 2.880 . S
Pr376 O396 2.562 . S
Pr376 O397 2.490 . S
Pr376 O398 2.695 . S
Pr376 O399 2.512 . S
Pr376 O401 2.437 . S
Pr376 O404 2.436 . S
Pr376 O406 2.438 . S
Pr377 C387 2.880 . S
Pr377 O398 2.436 . S
Pr377 O400 2.438 . S
Pr377 O402 2.562 . S
Pr377 O403 2.490 . S
Pr377 O404 2.695 . S
Pr377 O405 2.512 . S
Pr377 O407 2.437 . S
C378 Pr376 2.880 . S
C378 C379 1.491 . S
C378 O396 1.254 . S
C378 O397 1.225 . S
C379 C378 1.491 . S
C379 C380 1.392 . S
C379 C384 1.356 . S
C380 C379 1.392 . S
C380 C381 1.368 . S
C380 H408 0.929 . S
C381 C380 1.368 . S
C381 C382 1.386 . S
C381 H409 0.929 . S
C382 C381 1.386 . S
C382 C383 1.373 . S
C383 C382 1.373 . S
C383 C384 1.409 . S
C383 H410 0.931 . S
C384 C379 1.356 . S
C384 C383 1.409 . S
C384 H411 0.930 . S
C385 O398 1.270 . S
C385 O399 1.248 . S
C386 O400 1.267 . S
C386 O401 1.278 . S
C387 Pr377 2.880 . S
C387 C388 1.491 . S
C387 O402 1.254 . S
C387 O403 1.225 . S
C388 C387 1.491 . S
C388 C389 1.392 . S
C388 C393 1.356 . S
C389 C388 1.392 . S
C389 C390 1.368 . S
C389 H412 0.929 . S
C390 C389 1.368 . S
C390 C391 1.386 . S
C390 H413 0.929 . S
C391 C390 1.386 . S
C391 C392 1.373 . S
C392 C391 1.373 . S
C392 C393 1.409 . S
C392 H414 0.931 . S
C393 C388 1.356 . S
C393 C392 1.409 . S
C393 H415 0.930 . S
C394 O404 1.270 . S
C394 O405 1.248 . S
C395 O406 1.267 . S
C395 O407 1.278 . S
O396 Pr376 2.562 . S
O396 C378 1.254 . S
O397 Pr376 2.490 . S
O397 C378 1.225 . S
O398 Pr376 2.695 . S
O398 Pr377 2.436 . S
O398 C385 1.270 . S
O399 Pr376 2.512 . S
O399 C385 1.248 . S
O400 Pr377 2.438 . S
O400 C386 1.267 . S
O401 Pr376 2.437 . S
O401 C386 1.278 . S
O402 Pr377 2.562 . S
O402 C387 1.254 . S
O403 Pr377 2.490 . S
O403 C387 1.225 . S
O404 Pr376 2.436 . S
O404 Pr377 2.695 . S
O404 C394 1.270 . S
O405 Pr377 2.512 . S
O405 C394 1.248 . S
O406 Pr376 2.438 . S
O406 C395 1.267 . S
O407 Pr377 2.437 . S
O407 C395 1.278 . S
H408 C380 0.929 . S
H409 C381 0.929 . S
H410 C383 0.931 . S
H411 C384 0.930 . S
H412 C389 0.929 . S
H413 C390 0.929 . S
H414 C392 0.931 . S
H415 C393 0.930 . S
Pr416 C418 2.880 . S
Pr416 O436 2.562 . S
Pr416 O437 2.490 . S
Pr416 O438 2.695 . S
Pr416 O439 2.512 . S
Pr416 O441 2.437 . S
Pr416 O444 2.436 . S
Pr416 O446 2.438 . S
Pr417 C427 2.880 . S
Pr417 O438 2.436 . S
Pr417 O440 2.438 . S
Pr417 O442 2.562 . S
Pr417 O443 2.490 . S
Pr417 O444 2.695 . S
Pr417 O445 2.512 . S
Pr417 O447 2.437 . S
C418 Pr416 2.880 . S
C418 C419 1.491 . S
C418 O436 1.254 . S
C418 O437 1.225 . S
C419 C418 1.491 . S
C419 C420 1.392 . S
C419 C424 1.356 . S
C420 C419 1.392 . S
C420 C421 1.368 . S
C420 H448 0.929 . S
C421 C420 1.368 . S
C421 C422 1.386 . S
C421 H449 0.929 . S
C422 C421 1.386 . S
C422 C423 1.373 . S
C423 C422 1.373 . S
C423 C424 1.409 . S
C423 H450 0.891 1_545 S
C424 C419 1.356 . S
C424 C423 1.409 . S
C424 H451 0.930 . S
C425 O438 1.270 . S
C425 O439 1.248 . S
C426 O440 1.267 . S
C426 O441 1.278 . S
C427 Pr417 2.880 . S
C427 C428 1.491 . S
C427 O442 1.254 . S
C427 O443 1.225 . S
C428 C427 1.491 . S
C428 C429 1.392 . S
C428 C433 1.356 . S
C429 C428 1.392 . S
C429 C430 1.368 . S
C429 H452 0.929 . S
C430 C429 1.368 . S
C430 C431 1.386 . S
C430 H453 0.929 . S
C431 C430 1.386 . S
C431 C432 1.373 . S
C432 C431 1.373 . S
C432 C433 1.409 . S
C432 H454 0.931 . S
C433 C428 1.356 . S
C433 C432 1.409 . S
C433 H455 0.930 . S
C434 O444 1.270 . S
C434 O445 1.248 . S
C435 O446 1.267 . S
C435 O447 1.278 . S
O436 Pr416 2.562 . S
O436 C418 1.254 . S
O437 Pr416 2.490 . S
O437 C418 1.225 . S
O438 Pr416 2.695 . S
O438 Pr417 2.436 . S
O438 C425 1.270 . S
O439 Pr416 2.512 . S
O439 C425 1.248 . S
O440 Pr417 2.438 . S
O440 C426 1.267 . S
O441 Pr416 2.437 . S
O441 C426 1.278 . S
O442 Pr417 2.562 . S
O442 C427 1.254 . S
O443 Pr417 2.490 . S
O443 C427 1.225 . S
O444 Pr416 2.436 . S
O444 Pr417 2.695 . S
O444 C434 1.270 . S
O445 Pr417 2.512 . S
O445 C434 1.248 . S
O446 Pr416 2.438 . S
O446 C435 1.267 . S
O447 Pr417 2.437 . S
O447 C435 1.278 . S
H448 C420 0.929 . S
H449 C421 0.929 . S
H450 C423 0.891 1_565 S
H451 C424 0.930 . S
H452 C429 0.929 . S
H453 C430 0.929 . S
H454 C432 0.931 . S
H455 C433 0.930 . S
Pr456 C458 2.880 . S
Pr456 O476 2.562 . S
Pr456 O477 2.490 . S
Pr456 O478 2.695 . S
Pr456 O479 2.512 . S
Pr456 O481 2.437 . S
Pr456 O484 2.436 . S
Pr456 O486 2.438 . S
Pr457 C467 2.880 . S
Pr457 O478 2.436 . S
Pr457 O480 2.438 . S
Pr457 O482 2.562 . S
Pr457 O483 2.490 . S
Pr457 O484 2.695 . S
Pr457 O485 2.512 . S
Pr457 O487 2.437 . S
C458 Pr456 2.880 . S
C458 C459 1.491 . S
C458 O476 1.254 . S
C458 O477 1.225 . S
C459 C458 1.491 . S
C459 C460 1.392 . S
C459 C464 1.356 . S
C460 C459 1.392 . S
C460 C461 1.368 . S
C460 H488 0.929 . S
C461 C460 1.368 . S
C461 C462 1.386 . S
C461 H489 0.929 . S
C462 C461 1.386 . S
C462 C463 1.373 . S
C463 C462 1.373 . S
C463 C464 1.409 . S
C463 H490 0.931 . S
C464 C459 1.356 . S
C464 C463 1.409 . S
C464 H491 0.930 . S
C465 O478 1.270 . S
C465 O479 1.248 . S
C466 O480 1.267 . S
C466 O481 1.278 . S
C467 Pr457 2.880 . S
C467 C468 1.491 . S
C467 O482 1.254 . S
C467 O483 1.225 . S
C468 C467 1.491 . S
C468 C469 1.392 . S
C468 C473 1.356 . S
C469 C468 1.392 . S
C469 C470 1.368 . S
C469 H492 0.929 . S
C470 C469 1.368 . S
C470 C471 1.386 . S
C470 H493 0.929 . S
C471 C470 1.386 . S
C471 C472 1.373 . S
C472 C471 1.373 . S
C472 C473 1.409 . S
C472 H494 0.931 . S
C473 C468 1.356 . S
C473 C472 1.409 . S
C473 H495 0.930 . S
C474 O484 1.270 . S
C474 O485 1.248 . S
C475 O486 1.267 . S
C475 O487 1.278 . S
O476 Pr456 2.562 . S
O476 C458 1.254 . S
O477 Pr456 2.490 . S
O477 C458 1.225 . S
O478 Pr456 2.695 . S
O478 Pr457 2.436 . S
O478 C465 1.270 . S
O479 Pr456 2.512 . S
O479 C465 1.248 . S
O480 Pr457 2.438 . S
O480 C466 1.267 . S
O481 Pr456 2.437 . S
O481 C466 1.278 . S
O482 Pr457 2.562 . S
O482 C467 1.254 . S
O483 Pr457 2.490 . S
O483 C467 1.225 . S
O484 Pr456 2.436 . S
O484 Pr457 2.695 . S
O484 C474 1.270 . S
O485 Pr457 2.512 . S
O485 C474 1.248 . S
O486 Pr456 2.438 . S
O486 C475 1.267 . S
O487 Pr457 2.437 . S
O487 C475 1.278 . S
H488 C460 0.929 . S
H489 C461 0.929 . S
H490 C463 0.931 . S
H491 C464 0.930 . S
H492 C469 0.929 . S
H493 C470 0.929 . S
H494 C472 0.931 . S
H495 C473 0.930 . S
Pr496 C498 2.880 . S
Pr496 O516 2.562 . S
Pr496 O517 2.490 . S
Pr496 O518 2.695 . S
Pr496 O519 2.512 . S
Pr496 O521 2.437 . S
Pr496 O524 2.436 . S
Pr496 O526 2.438 . S
Pr497 C507 2.880 . S
Pr497 O518 2.436 . S
Pr497 O520 2.438 . S
Pr497 O522 2.562 . S
Pr497 O523 2.490 . S
Pr497 O524 2.695 . S
Pr497 O525 2.512 . S
Pr497 O527 2.437 . S
C498 Pr496 2.880 . S
C498 C499 1.491 . S
C498 O516 1.254 . S
C498 O517 1.225 . S
C499 C498 1.491 . S
C499 C500 1.392 . S
C499 C504 1.356 1_455 S
C500 C499 1.392 . S
C500 C501 1.368 . S
C500 H528 0.929 . S
C501 C500 1.368 . S
C501 C502 1.396 . S
C501 H529 0.929 . S
C502 C501 1.396 . S
C502 C503 1.366 1_455 S
C503 C502 1.366 1_655 S
C503 C504 1.409 . S
C503 H530 0.931 . S
C504 C499 1.356 1_655 S
C504 C503 1.409 . S
C504 H531 0.930 . S
C505 O518 1.270 . S
C505 O519 1.248 . S
C506 O520 1.267 . S
C506 O521 1.278 . S
C507 Pr497 2.880 . S
C507 C508 1.491 . S
C507 O522 1.254 . S
C507 O523 1.225 . S
C508 C507 1.491 . S
C508 C509 1.392 . S
C508 C513 1.356 . S
C509 C508 1.392 . S
C509 C510 1.368 . S
C509 H532 0.929 . S
C510 C509 1.368 . S
C510 C511 1.386 . S
C510 H533 0.929 . S
C511 C510 1.386 . S
C511 C512 1.373 . S
C512 C511 1.373 . S
C512 C513 1.409 . S
C512 H534 0.931 . S
C513 C508 1.356 . S
C513 C512 1.409 . S
C513 H535 0.930 . S
C514 O524 1.270 . S
C514 O525 1.248 . S
C515 O526 1.267 . S
C515 O527 1.278 . S
O516 Pr496 2.562 . S
O516 C498 1.254 . S
O517 Pr496 2.490 . S
O517 C498 1.225 . S
O518 Pr496 2.695 . S
O518 Pr497 2.436 . S
O518 C505 1.270 . S
O519 Pr496 2.512 . S
O519 C505 1.248 . S
O520 Pr497 2.438 . S
O520 C506 1.267 . S
O521 Pr496 2.437 . S
O521 C506 1.278 . S
O522 Pr497 2.562 . S
O522 C507 1.254 . S
O523 Pr497 2.490 . S
O523 C507 1.225 . S
O524 Pr496 2.436 . S
O524 Pr497 2.695 . S
O524 C514 1.270 . S
O525 Pr497 2.512 . S
O525 C514 1.248 . S
O526 Pr496 2.438 . S
O526 C515 1.267 . S
O527 Pr497 2.437 . S
O527 C515 1.278 . S
H528 C500 0.929 . S
H529 C501 0.929 . S
H530 C503 0.931 . S
H531 C504 0.930 . S
H532 C509 0.929 . S
H533 C510 0.929 . S
H534 C512 0.931 . S
H535 C513 0.930 . S
Pr536 C538 2.880 . S
Pr536 O556 2.562 . S
Pr536 O557 2.490 . S
Pr536 O558 2.695 . S
Pr536 O559 2.512 . S
Pr536 O561 2.437 . S
Pr536 O564 2.436 . S
Pr536 O566 2.438 . S
Pr537 C547 2.880 . S
Pr537 O558 2.436 . S
Pr537 O560 2.438 . S
Pr537 O562 2.562 . S
Pr537 O563 2.490 . S
Pr537 O564 2.695 . S
Pr537 O565 2.512 . S
Pr537 O567 2.437 . S
C538 Pr536 2.880 . S
C538 C539 1.491 . S
C538 O556 1.254 . S
C538 O557 1.225 . S
C539 C538 1.491 . S
C539 C540 1.392 . S
C539 C544 1.356 . S
C540 C539 1.392 . S
C540 C541 1.368 . S
C540 H568 0.929 . S
C541 C540 1.368 . S
C541 C542 1.386 . S
C541 H569 0.929 . S
C542 C541 1.386 . S
C542 C543 1.373 . S
C543 C542 1.373 . S
C543 C544 1.409 . S
C543 H570 0.931 . S
C544 C539 1.356 . S
C544 C543 1.409 . S
C544 H571 0.930 . S
C545 O558 1.270 . S
C545 O559 1.248 . S
C546 O560 1.267 . S
C546 O561 1.278 . S
C547 Pr537 2.880 . S
C547 C548 1.491 . S
C547 O562 1.254 . S
C547 O563 1.225 . S
C548 C547 1.491 . S
C548 C549 1.392 . S
C548 C553 1.356 . S
C549 C548 1.392 . S
C549 C550 1.368 . S
C549 H572 0.929 . S
C550 C549 1.368 . S
C550 C551 1.386 . S
C550 H573 0.929 . S
C551 C550 1.386 . S
C551 C552 1.373 . S
C552 C551 1.373 . S
C552 C553 1.409 . S
C552 H574 0.931 . S
C553 C548 1.356 . S
C553 C552 1.409 . S
C553 H575 0.930 . S
C554 O564 1.270 . S
C554 O565 1.248 . S
C555 O566 1.267 . S
C555 O567 1.278 . S
O556 Pr536 2.562 . S
O556 C538 1.254 . S
O557 Pr536 2.490 . S
O557 C538 1.225 . S
O558 Pr536 2.695 . S
O558 Pr537 2.436 . S
O558 C545 1.270 . S
O559 Pr536 2.512 . S
O559 C545 1.248 . S
O560 Pr537 2.438 . S
O560 C546 1.267 . S
O561 Pr536 2.437 . S
O561 C546 1.278 . S
O562 Pr537 2.562 . S
O562 C547 1.254 . S
O563 Pr537 2.490 . S
O563 C547 1.225 . S
O564 Pr536 2.436 . S
O564 Pr537 2.695 . S
O564 C554 1.270 . S
O565 Pr537 2.512 . S
O565 C554 1.248 . S
O566 Pr536 2.438 . S
O566 C555 1.267 . S
O567 Pr537 2.437 . S
O567 C555 1.278 . S
H568 C540 0.929 . S
H569 C541 0.929 . S
H570 C543 0.931 . S
H571 C544 0.930 . S
H572 C549 0.929 . S
H573 C550 0.929 . S
H574 C552 0.931 . S
H575 C553 0.930 . S
Pr576 C578 2.880 . S
Pr576 O596 2.562 . S
Pr576 O597 2.490 . S
Pr576 O598 2.695 . S
Pr576 O599 2.512 . S
Pr576 O601 2.437 . S
Pr576 O604 2.436 . S
Pr576 O606 2.438 . S
Pr577 C587 2.880 . S
Pr577 O598 2.436 1_556 S
Pr577 O600 2.438 1_556 S
Pr577 O602 2.562 . S
Pr577 O603 2.490 . S
Pr577 O604 2.695 1_556 S
Pr577 O605 2.512 1_556 S
Pr577 O607 2.437 1_556 S
C578 Pr576 2.880 . S
C578 C579 1.491 . S
C578 O596 1.254 . S
C578 O597 1.225 . S
C579 C578 1.491 . S
C579 C580 1.392 . S
C579 C584 1.356 . S
C580 C579 1.392 . S
C580 C581 1.368 . S
C580 H608 0.929 . S
C581 C580 1.368 . S
C581 C582 1.386 . S
C581 H609 0.929 . S
C582 C581 1.386 . S
C582 C583 1.373 . S
C583 C582 1.373 . S
C583 C584 1.409 . S
C583 H610 0.931 . S
C584 C579 1.356 . S
C584 C583 1.409 . S
C584 H611 0.930 . S
C585 O598 1.270 . S
C585 O599 1.248 . S
C586 O600 1.267 . S
C586 O601 1.278 . S
C587 Pr577 2.880 . S
C587 C588 1.491 . S
C587 O602 1.254 . S
C587 O603 1.225 . S
C588 C587 1.491 . S
C588 C589 1.392 . S
C588 C593 1.356 . S
C589 C588 1.392 . S
C589 C590 1.368 . S
C589 H612 0.929 . S
C590 C589 1.368 . S
C590 C591 1.386 . S
C590 H613 0.929 . S
C591 C590 1.386 . S
C591 C592 1.373 . S
C592 C591 1.373 . S
C592 C593 1.409 . S
C592 H614 0.931 . S
C593 C588 1.356 . S
C593 C592 1.409 . S
C593 H615 0.930 . S
C594 O604 1.270 . S
C594 O605 1.248 . S
C595 O606 1.267 . S
C595 O607 1.278 . S
O596 Pr576 2.562 . S
O596 C578 1.254 . S
O597 Pr576 2.490 . S
O597 C578 1.225 . S
O598 Pr576 2.695 . S
O598 Pr577 2.436 1_554 S
O598 C585 1.270 . S
O599 Pr576 2.512 . S
O599 C585 1.248 . S
O600 Pr577 2.438 1_554 S
O600 C586 1.267 . S
O601 Pr576 2.437 . S
O601 C586 1.278 . S
O602 Pr577 2.562 . S
O602 C587 1.254 . S
O603 Pr577 2.490 . S
O603 C587 1.225 . S
O604 Pr576 2.436 . S
O604 Pr577 2.695 1_554 S
O604 C594 1.270 . S
O605 Pr577 2.512 1_554 S
O605 C594 1.248 . S
O606 Pr576 2.438 . S
O606 C595 1.267 . S
O607 Pr577 2.437 1_554 S
O607 C595 1.278 . S
H608 C580 0.929 . S
H609 C581 0.929 . S
H610 C583 0.931 . S
H611 C584 0.930 . S
H612 C589 0.929 . S
H613 C590 0.929 . S
H614 C592 0.931 . S
H615 C593 0.930 . S
Pr616 C618 2.880 . S
Pr616 O636 2.562 . S
Pr616 O637 2.490 . S
Pr616 O638 2.695 . S
Pr616 O639 2.512 . S
Pr616 O641 2.437 . S
Pr616 O644 2.436 . S
Pr616 O646 2.438 . S
Pr617 C627 2.880 . S
Pr617 O638 2.436 . S
Pr617 O640 2.438 . S
Pr617 O642 2.562 . S
Pr617 O643 2.490 . S
Pr617 O644 2.695 . S
Pr617 O645 2.512 . S
Pr617 O647 2.437 . S
C618 Pr616 2.880 . S
C618 C619 1.491 . S
C618 O636 1.254 . S
C618 O637 1.225 . S
C619 C618 1.491 . S
C619 C620 1.392 . S
C619 C624 1.356 . S
C620 C619 1.392 . S
C620 C621 1.368 . S
C620 H648 0.929 . S
C621 C620 1.368 . S
C621 C622 1.386 . S
C621 H649 0.929 . S
C622 C621 1.386 . S
C622 C623 1.373 . S
C623 C622 1.373 . S
C623 C624 1.409 . S
C623 H650 0.931 . S
C624 C619 1.356 . S
C624 C623 1.409 . S
C624 H651 0.930 . S
C625 O638 1.270 . S
C625 O639 1.248 . S
C626 O640 1.267 . S
C626 O641 1.278 . S
C627 Pr617 2.880 . S
C627 C628 1.491 . S
C627 O642 1.254 . S
C627 O643 1.225 . S
C628 C627 1.491 . S
C628 C629 1.392 . S
C628 C633 1.356 . S
C629 C628 1.392 . S
C629 C630 1.368 . S
C629 H652 0.929 . S
C630 C629 1.368 . S
C630 C631 1.386 . S
C630 H653 0.929 . S
C631 C630 1.386 . S
C631 C632 1.373 . S
C632 C631 1.373 . S
C632 C633 1.409 . S
C632 H654 0.931 . S
C633 C628 1.356 . S
C633 C632 1.409 . S
C633 H655 0.930 . S
C634 O644 1.270 . S
C634 O645 1.248 . S
C635 O646 1.267 . S
C635 O647 1.278 . S
O636 Pr616 2.562 . S
O636 C618 1.254 . S
O637 Pr616 2.490 . S
O637 C618 1.225 . S
O638 Pr616 2.695 . S
O638 Pr617 2.436 . S
O638 C625 1.270 . S
O639 Pr616 2.512 . S
O639 C625 1.248 . S
O640 Pr617 2.438 . S
O640 C626 1.267 . S
O641 Pr616 2.437 . S
O641 C626 1.278 . S
O642 Pr617 2.562 . S
O642 C627 1.254 . S
O643 Pr617 2.490 . S
O643 C627 1.225 . S
O644 Pr616 2.436 . S
O644 Pr617 2.695 . S
O644 C634 1.270 . S
O645 Pr617 2.512 . S
O645 C634 1.248 . S
O646 Pr616 2.438 . S
O646 C635 1.267 . S
O647 Pr617 2.437 . S
O647 C635 1.278 . S
H648 C620 0.929 . S
H649 C621 0.929 . S
H650 C623 0.931 . S
H651 C624 0.930 . S
H652 C629 0.929 . S
H653 C630 0.929 . S
H654 C632 0.931 . S
H655 C633 0.930 . S
Pr656 C658 2.880 . S
Pr656 O676 2.562 . S
Pr656 O677 2.490 . S
Pr656 O678 2.695 1_556 S
Pr656 O679 2.512 . S
Pr656 O681 2.437 . S
Pr656 O684 2.436 1_556 S
Pr656 O686 2.438 1_556 S
Pr657 C667 2.880 . S
Pr657 O678 2.436 . S
Pr657 O680 2.438 . S
Pr657 O682 2.562 . S
Pr657 O683 2.490 . S
Pr657 O684 2.695 . S
Pr657 O685 2.512 . S
Pr657 O687 2.437 . S
C658 Pr656 2.880 . S
C658 C659 1.491 . S
C658 O676 1.254 . S
C658 O677 1.225 . S
C659 C658 1.491 . S
C659 C660 1.392 . S
C659 C664 1.356 . S
C660 C659 1.392 . S
C660 C661 1.368 . S
C660 H688 0.929 . S
C661 C660 1.368 . S
C661 C662 1.386 . S
C661 H689 0.929 . S
C662 C661 1.386 . S
C662 C663 1.373 . S
C663 C662 1.373 . S
C663 C664 1.409 . S
C663 H690 0.931 . S
C664 C659 1.356 . S
C664 C663 1.409 . S
C664 H691 0.930 . S
C665 O678 1.270 . S
C665 O679 1.248 1_554 S
C666 O680 1.267 . S
C666 O681 1.278 1_554 S
C667 Pr657 2.880 . S
C667 C668 1.491 . S
C667 O682 1.254 . S
C667 O683 1.225 . S
C668 C667 1.491 . S
C668 C669 1.392 . S
C668 C673 1.356 . S
C669 C668 1.392 . S
C669 C670 1.368 . S
C669 H692 0.929 . S
C670 C669 1.368 . S
C670 C671 1.386 . S
C670 H693 0.929 . S
C671 C670 1.386 . S
C671 C672 1.373 . S
C672 C671 1.373 . S
C672 C673 1.409 . S
C672 H694 0.931 . S
C673 C668 1.356 . S
C673 C672 1.409 . S
C673 H695 0.930 . S
C674 O684 1.270 . S
C674 O685 1.248 . S
C675 O686 1.267 . S
C675 O687 1.278 . S
O676 Pr656 2.562 . S
O676 C658 1.254 . S
O677 Pr656 2.490 . S
O677 C658 1.225 . S
O678 Pr656 2.695 1_554 S
O678 Pr657 2.436 . S
O678 C665 1.270 . S
O679 Pr656 2.512 . S
O679 C665 1.248 1_556 S
O680 Pr657 2.438 . S
O680 C666 1.267 . S
O681 Pr656 2.437 . S
O681 C666 1.278 1_556 S
O682 Pr657 2.562 . S
O682 C667 1.254 . S
O683 Pr657 2.490 . S
O683 C667 1.225 . S
O684 Pr656 2.436 1_554 S
O684 Pr657 2.695 . S
O684 C674 1.270 . S
O685 Pr657 2.512 . S
O685 C674 1.248 . S
O686 Pr656 2.438 1_554 S
O686 C675 1.267 . S
O687 Pr657 2.437 . S
O687 C675 1.278 . S
H688 C660 0.929 . S
H689 C661 0.929 . S
H690 C663 0.931 . S
H691 C664 0.930 . S
H692 C669 0.929 . S
H693 C670 0.929 . S
H694 C672 0.931 . S
H695 C673 0.930 . S
Pr696 C698 2.880 . S
Pr696 O716 2.562 . S
Pr696 O717 2.490 . S
Pr696 O718 2.695 . S
Pr696 O719 2.512 . S
Pr696 O721 2.437 . S
Pr696 O724 2.436 . S
Pr696 O726 2.438 . S
Pr697 C707 2.880 . S
Pr697 O718 2.436 . S
Pr697 O720 2.438 . S
Pr697 O722 2.562 . S
Pr697 O723 2.490 . S
Pr697 O724 2.695 . S
Pr697 O725 2.512 . S
Pr697 O727 2.437 . S
C698 Pr696 2.880 . S
C698 C699 1.491 . S
C698 O716 1.254 . S
C698 O717 1.225 . S
C699 C698 1.491 . S
C699 C700 1.392 . S
C699 C704 1.356 . S
C700 C699 1.392 . S
C700 C701 1.368 . S
C700 H728 0.929 . S
C701 C700 1.368 . S
C701 C702 1.386 . S
C701 H729 0.929 . S
C702 C701 1.386 . S
C702 C703 1.373 . S
C703 C702 1.373 . S
C703 C704 1.409 . S
C703 H730 0.931 . S
C704 C699 1.356 . S
C704 C703 1.409 . S
C704 H731 0.930 . S
C705 O718 1.270 . S
C705 O719 1.248 . S
C706 O720 1.267 . S
C706 O721 1.278 . S
C707 Pr697 2.880 . S
C707 C708 1.491 . S
C707 O722 1.254 . S
C707 O723 1.225 . S
C708 C707 1.491 . S
C708 C709 1.392 . S
C708 C713 1.356 . S
C709 C708 1.392 . S
C709 C710 1.368 . S
C709 H732 0.929 . S
C710 C709 1.368 . S
C710 C711 1.386 . S
C710 H733 0.929 . S
C711 C710 1.386 . S
C711 C712 1.373 . S
C712 C711 1.373 . S
C712 C713 1.409 . S
C712 H734 0.931 . S
C713 C708 1.356 . S
C713 C712 1.409 . S
C713 H735 0.930 . S
C714 O724 1.270 . S
C714 O725 1.248 . S
C715 O726 1.267 . S
C715 O727 1.278 . S
O716 Pr696 2.562 . S
O716 C698 1.254 . S
O717 Pr696 2.490 . S
O717 C698 1.225 . S
O718 Pr696 2.695 . S
O718 Pr697 2.436 . S
O718 C705 1.270 . S
O719 Pr696 2.512 . S
O719 C705 1.248 . S
O720 Pr697 2.438 . S
O720 C706 1.267 . S
O721 Pr696 2.437 . S
O721 C706 1.278 . S
O722 Pr697 2.562 . S
O722 C707 1.254 . S
O723 Pr697 2.490 . S
O723 C707 1.225 . S
O724 Pr696 2.436 . S
O724 Pr697 2.695 . S
O724 C714 1.270 . S
O725 Pr697 2.512 . S
O725 C714 1.248 . S
O726 Pr696 2.438 . S
O726 C715 1.267 . S
O727 Pr697 2.437 . S
O727 C715 1.278 . S
H728 C700 0.929 . S
H729 C701 0.929 . S
H730 C703 0.931 . S
H731 C704 0.930 . S
H732 C709 0.929 . S
H733 C710 0.929 . S
H734 C712 0.931 . S
H735 C713 0.930 . S
Pr736 C738 2.880 . S
Pr736 O756 2.562 . S
Pr736 O757 2.490 . S
Pr736 O758 2.695 . S
Pr736 O759 2.512 . S
Pr736 O761 2.437 . S
Pr736 O764 2.436 . S
Pr736 O766 2.438 . S
Pr737 C747 2.880 . S
Pr737 O758 2.436 . S
Pr737 O760 2.438 . S
Pr737 O762 2.562 . S
Pr737 O763 2.490 . S
Pr737 O764 2.695 . S
Pr737 O765 2.512 . S
Pr737 O767 2.437 . S
C738 Pr736 2.880 . S
C738 C739 1.491 . S
C738 O756 1.254 . S
C738 O757 1.225 . S
C739 C738 1.491 . S
C739 C740 1.392 . S
C739 C744 1.356 . S
C740 C739 1.392 . S
C740 C741 1.368 . S
C740 H768 0.929 . S
C741 C740 1.368 . S
C741 C742 1.386 . S
C741 H769 0.929 . S
C742 C741 1.386 . S
C742 C743 1.373 . S
C743 C742 1.373 . S
C743 C744 1.409 . S
C743 H770 0.931 1_455 S
C744 C739 1.356 . S
C744 C743 1.409 . S
C744 H771 0.930 . S
C745 O758 1.270 . S
C745 O759 1.248 . S
C746 O760 1.267 . S
C746 O761 1.278 . S
C747 Pr737 2.880 . S
C747 C748 1.491 . S
C747 O762 1.254 . S
C747 O763 1.225 . S
C748 C747 1.491 . S
C748 C749 1.392 . S
C748 C753 1.356 . S
C749 C748 1.392 . S
C749 C750 1.368 . S
C749 H772 0.929 . S
C750 C749 1.368 . S
C750 C751 1.386 . S
C750 H773 0.929 . S
C751 C750 1.386 . S
C751 C752 1.373 . S
C752 C751 1.373 . S
C752 C753 1.409 . S
C752 H774 0.931 . S
C753 C748 1.356 . S
C753 C752 1.409 . S
C753 H775 0.930 . S
C754 O764 1.270 . S
C754 O765 1.248 . S
C755 O766 1.267 . S
C755 O767 1.278 . S
O756 Pr736 2.562 . S
O756 C738 1.254 . S
O757 Pr736 2.490 . S
O757 C738 1.225 . S
O758 Pr736 2.695 . S
O758 Pr737 2.436 . S
O758 C745 1.270 . S
O759 Pr736 2.512 . S
O759 C745 1.248 . S
O760 Pr737 2.438 . S
O760 C746 1.267 . S
O761 Pr736 2.437 . S
O761 C746 1.278 . S
O762 Pr737 2.562 . S
O762 C747 1.254 . S
O763 Pr737 2.490 . S
O763 C747 1.225 . S
O764 Pr736 2.436 . S
O764 Pr737 2.695 . S
O764 C754 1.270 . S
O765 Pr737 2.512 . S
O765 C754 1.248 . S
O766 Pr736 2.438 . S
O766 C755 1.267 . S
O767 Pr737 2.437 . S
O767 C755 1.278 . S
H768 C740 0.929 . S
H769 C741 0.929 . S
H770 C743 0.931 1_655 S
H771 C744 0.930 . S
H772 C749 0.929 . S
H773 C750 0.929 . S
H774 C752 0.931 . S
H775 C753 0.930 . S
Pr776 C778 2.880 . S
Pr776 O796 2.562 . S
Pr776 O797 2.490 . S
Pr776 O798 2.695 . S
Pr776 O799 2.512 . S
Pr776 O801 2.437 . S
Pr776 O804 2.436 . S
Pr776 O806 2.438 . S
Pr777 C787 2.880 . S
Pr777 O798 2.436 . S
Pr777 O800 2.438 . S
Pr777 O802 2.562 . S
Pr777 O803 2.490 . S
Pr777 O804 2.695 . S
Pr777 O805 2.512 . S
Pr777 O807 2.437 . S
C778 Pr776 2.880 . S
C778 C779 1.491 . S
C778 O796 1.254 . S
C778 O797 1.225 . S
C779 C778 1.491 . S
C779 C780 1.392 . S
C779 C784 1.356 . S
C780 C779 1.392 . S
C780 C781 1.368 . S
C780 H808 0.929 . S
C781 C780 1.368 . S
C781 C782 1.386 . S
C781 H809 0.929 . S
C782 C781 1.386 . S
C782 C783 1.373 . S
C783 C782 1.373 . S
C783 C784 1.409 . S
C783 H810 0.931 . S
C784 C779 1.356 . S
C784 C783 1.409 . S
C784 H811 0.930 . S
C785 O798 1.270 . S
C785 O799 1.248 . S
C786 O800 1.267 . S
C786 O801 1.278 . S
C787 Pr777 2.880 . S
C787 C788 1.491 . S
C787 O802 1.254 . S
C787 O803 1.225 . S
C788 C787 1.491 . S
C788 C789 1.392 . S
C788 C793 1.356 . S
C789 C788 1.392 . S
C789 C790 1.368 . S
C789 H812 0.929 . S
C790 C789 1.368 . S
C790 C791 1.386 . S
C790 H813 0.929 . S
C791 C790 1.386 . S
C791 C792 1.373 . S
C792 C791 1.373 . S
C792 C793 1.409 . S
C792 H814 0.931 . S
C793 C788 1.356 . S
C793 C792 1.409 . S
C793 H815 0.930 . S
C794 O804 1.270 . S
C794 O805 1.248 . S
C795 O806 1.267 . S
C795 O807 1.278 . S
O796 Pr776 2.562 . S
O796 C778 1.254 . S
O797 Pr776 2.490 . S
O797 C778 1.225 . S
O798 Pr776 2.695 . S
O798 Pr777 2.436 . S
O798 C785 1.270 . S
O799 Pr776 2.512 . S
O799 C785 1.248 . S
O800 Pr777 2.438 . S
O800 C786 1.267 . S
O801 Pr776 2.437 . S
O801 C786 1.278 . S
O802 Pr777 2.562 . S
O802 C787 1.254 . S
O803 Pr777 2.490 . S
O803 C787 1.225 . S
O804 Pr776 2.436 . S
O804 Pr777 2.695 . S
O804 C794 1.270 . S
O805 Pr777 2.512 . S
O805 C794 1.248 . S
O806 Pr776 2.438 . S
O806 C795 1.267 . S
O807 Pr777 2.437 . S
O807 C795 1.278 . S
H808 C780 0.929 . S
H809 C781 0.929 . S
H810 C783 0.931 . S
H811 C784 0.930 . S
H812 C789 0.929 . S
H813 C790 0.929 . S
H814 C792 0.931 . S
H815 C793 0.930 . S
Pr816 C818 2.880 . S
Pr816 O836 2.562 . S
Pr816 O837 2.490 . S
Pr816 O838 2.695 . S
Pr816 O839 2.512 . S
Pr816 O841 2.437 . S
Pr816 O844 2.436 . S
Pr816 O846 2.438 . S
Pr817 C827 2.880 . S
Pr817 O838 2.436 . S
Pr817 O840 2.438 . S
Pr817 O842 2.562 . S
Pr817 O843 2.490 . S
Pr817 O844 2.695 . S
Pr817 O845 2.512 . S
Pr817 O847 2.437 . S
C818 Pr816 2.880 . S
C818 C819 1.491 . S
C818 O836 1.254 . S
C818 O837 1.225 . S
C819 C818 1.491 . S
C819 C820 1.392 . S
C819 C824 1.356 . S
C820 C819 1.392 . S
C820 C821 1.368 . S
C820 H848 0.929 . S
C821 C820 1.368 . S
C821 C822 1.386 . S
C821 H849 0.929 . S
C822 C821 1.386 . S
C822 C823 1.373 . S
C823 C822 1.373 . S
C823 C824 1.409 . S
C823 H850 0.931 . S
C824 C819 1.356 . S
C824 C823 1.409 . S
C824 H851 0.930 . S
C825 O838 1.270 . S
C825 O839 1.248 . S
C826 O840 1.267 . S
C826 O841 1.278 . S
C827 Pr817 2.880 . S
C827 C828 1.491 . S
C827 O842 1.254 . S
C827 O843 1.225 . S
C828 C827 1.491 . S
C828 C829 1.392 . S
C828 C833 1.356 . S
C829 C828 1.392 . S
C829 C830 1.368 . S
C829 H852 0.929 . S
C830 C829 1.368 . S
C830 C831 1.386 . S
C830 H853 0.929 . S
C831 C830 1.386 . S
C831 C832 1.373 . S
C832 C831 1.373 . S
C832 C833 1.409 . S
C832 H854 0.931 . S
C833 C828 1.356 . S
C833 C832 1.409 . S
C833 H855 0.930 . S
C834 O844 1.270 . S
C834 O845 1.248 . S
C835 O846 1.267 . S
C835 O847 1.278 . S
O836 Pr816 2.562 . S
O836 C818 1.254 . S
O837 Pr816 2.490 . S
O837 C818 1.225 . S
O838 Pr816 2.695 . S
O838 Pr817 2.436 . S
O838 C825 1.270 . S
O839 Pr816 2.512 . S
O839 C825 1.248 . S
O840 Pr817 2.438 . S
O840 C826 1.267 . S
O841 Pr816 2.437 . S
O841 C826 1.278 . S
O842 Pr817 2.562 . S
O842 C827 1.254 . S
O843 Pr817 2.490 . S
O843 C827 1.225 . S
O844 Pr816 2.436 . S
O844 Pr817 2.695 . S
O844 C834 1.270 . S
O845 Pr817 2.512 . S
O845 C834 1.248 . S
O846 Pr816 2.438 . S
O846 C835 1.267 . S
O847 Pr817 2.437 . S
O847 C835 1.278 . S
H848 C820 0.929 . S
H849 C821 0.929 . S
H850 C823 0.931 . S
H851 C824 0.930 . S
H852 C829 0.929 . S
H853 C830 0.929 . S
H854 C832 0.931 . S
H855 C833 0.930 . S
Pr856 C858 2.880 . S
Pr856 O876 2.562 . S
Pr856 O877 2.490 . S
Pr856 O878 2.695 . S
Pr856 O879 2.512 . S
Pr856 O881 2.437 . S
Pr856 O884 2.436 . S
Pr856 O886 2.438 . S
Pr857 C867 2.880 . S
Pr857 O878 2.436 . S
Pr857 O880 2.438 . S
Pr857 O882 2.562 . S
Pr857 O883 2.490 . S
Pr857 O884 2.695 . S
Pr857 O885 2.512 . S
Pr857 O887 2.437 . S
C858 Pr856 2.880 . S
C858 C859 1.491 . S
C858 O876 1.254 . S
C858 O877 1.225 . S
C859 C858 1.491 . S
C859 C860 1.392 . S
C859 C864 1.356 . S
C860 C859 1.392 . S
C860 C861 1.368 . S
C860 H888 0.929 . S
C861 C860 1.368 . S
C861 C862 1.386 . S
C861 H889 0.929 . S
C862 C861 1.386 . S
C862 C863 1.373 . S
C863 C862 1.373 . S
C863 C864 1.409 . S
C863 H890 0.931 . S
C864 C859 1.356 . S
C864 C863 1.409 . S
C864 H891 0.930 . S
C865 O878 1.270 . S
C865 O879 1.248 . S
C866 O880 1.267 . S
C866 O881 1.278 . S
C867 Pr857 2.880 . S
C867 C868 1.491 . S
C867 O882 1.254 . S
C867 O883 1.225 . S
C868 C867 1.491 . S
C868 C869 1.392 . S
C868 C873 1.356 . S
C869 C868 1.392 . S
C869 C870 1.368 . S
C869 H892 0.929 . S
C870 C869 1.368 . S
C870 C871 1.386 . S
C870 H893 0.929 . S
C871 C870 1.386 . S
C871 C872 1.373 . S
C872 C871 1.373 . S
C872 C873 1.409 . S
C872 H894 0.931 . S
C873 C868 1.356 . S
C873 C872 1.409 . S
C873 H895 0.930 . S
C874 O884 1.270 . S
C874 O885 1.248 . S
C875 O886 1.267 . S
C875 O887 1.278 . S
O876 Pr856 2.562 . S
O876 C858 1.254 . S
O877 Pr856 2.490 . S
O877 C858 1.225 . S
O878 Pr856 2.695 . S
O878 Pr857 2.436 . S
O878 C865 1.270 . S
O879 Pr856 2.512 . S
O879 C865 1.248 . S
O880 Pr857 2.438 . S
O880 C866 1.267 . S
O881 Pr856 2.437 . S
O881 C866 1.278 . S
O882 Pr857 2.562 . S
O882 C867 1.254 . S
O883 Pr857 2.490 . S
O883 C867 1.225 . S
O884 Pr856 2.436 . S
O884 Pr857 2.695 . S
O884 C874 1.270 . S
O885 Pr857 2.512 . S
O885 C874 1.248 . S
O886 Pr856 2.438 . S
O886 C875 1.267 . S
O887 Pr857 2.437 . S
O887 C875 1.278 . S
H888 C860 0.929 . S
H889 C861 0.929 . S
H890 C863 0.931 . S
H891 C864 0.930 . S
H892 C869 0.929 . S
H893 C870 0.929 . S
H894 C872 0.931 . S
H895 C873 0.930 . S
Pr896 C898 2.880 . S
Pr896 O916 2.562 . S
Pr896 O917 2.490 . S
Pr896 O918 2.695 . S
Pr896 O919 2.512 . S
Pr896 O921 2.437 . S
Pr896 O924 2.436 . S
Pr896 O926 2.438 . S
Pr897 C907 2.880 . S
Pr897 O918 2.436 . S
Pr897 O920 2.438 . S
Pr897 O922 2.562 . S
Pr897 O923 2.490 . S
Pr897 O924 2.695 . S
Pr897 O925 2.512 . S
Pr897 O927 2.437 . S
C898 Pr896 2.880 . S
C898 C899 1.491 . S
C898 O916 1.254 . S
C898 O917 1.225 . S
C899 C898 1.491 . S
C899 C900 1.392 . S
C899 C904 1.356 . S
C900 C899 1.392 . S
C900 C901 1.368 . S
C900 H928 0.929 . S
C901 C900 1.368 . S
C901 C902 1.386 . S
C901 H929 0.929 . S
C902 C901 1.386 . S
C902 C903 1.373 . S
C903 C902 1.373 . S
C903 C904 1.409 . S
C903 H930 0.931 . S
C904 C899 1.356 . S
C904 C903 1.409 . S
C904 H931 0.930 . S
C905 O918 1.270 . S
C905 O919 1.248 . S
C906 O920 1.267 . S
C906 O921 1.278 . S
C907 Pr897 2.880 . S
C907 C908 1.491 . S
C907 O922 1.254 . S
C907 O923 1.225 . S
C908 C907 1.491 . S
C908 C909 1.392 . S
C908 C913 1.356 . S
C909 C908 1.392 . S
C909 C910 1.368 . S
C909 H932 0.929 . S
C910 C909 1.368 . S
C910 C911 1.386 . S
C910 H933 0.929 . S
C911 C910 1.386 . S
C911 C912 1.373 . S
C912 C911 1.373 . S
C912 C913 1.409 . S
C912 H934 0.931 . S
C913 C908 1.356 . S
C913 C912 1.409 . S
C913 H935 0.930 . S
C914 O924 1.270 . S
C914 O925 1.248 . S
C915 O926 1.267 . S
C915 O927 1.278 . S
O916 Pr896 2.562 . S
O916 C898 1.254 . S
O917 Pr896 2.490 . S
O917 C898 1.225 . S
O918 Pr896 2.695 . S
O918 Pr897 2.436 . S
O918 C905 1.270 . S
O919 Pr896 2.512 . S
O919 C905 1.248 . S
O920 Pr897 2.438 . S
O920 C906 1.267 . S
O921 Pr896 2.437 . S
O921 C906 1.278 . S
O922 Pr897 2.562 . S
O922 C907 1.254 . S
O923 Pr897 2.490 . S
O923 C907 1.225 . S
O924 Pr896 2.436 . S
O924 Pr897 2.695 . S
O924 C914 1.270 . S
O925 Pr897 2.512 . S
O925 C914 1.248 . S
O926 Pr896 2.438 . S
O926 C915 1.267 . S
O927 Pr897 2.437 . S
O927 C915 1.278 . S
H928 C900 0.929 . S
H929 C901 0.929 . S
H930 C903 0.931 . S
H931 C904 0.930 . S
H932 C909 0.929 . S
H933 C910 0.929 . S
H934 C912 0.931 . S
H935 C913 0.930 . S
Pr936 C938 2.880 . S
Pr936 O956 2.562 . S
Pr936 O957 2.490 . S
Pr936 O958 2.695 . S
Pr936 O959 2.512 1_554 S
Pr936 O961 2.437 . S
Pr936 O964 2.436 . S
Pr936 O966 2.438 . S
Pr937 C947 2.880 1_455 S
Pr937 O958 2.436 . S
Pr937 O960 2.438 . S
Pr937 O962 2.562 1_455 S
Pr937 O963 2.490 1_455 S
Pr937 O964 2.695 . S
Pr937 O965 2.512 . S
Pr937 O967 2.437 . S
C938 Pr936 2.880 . S
C938 C939 1.491 . S
C938 O956 1.254 . S
C938 O957 1.225 . S
C939 C938 1.491 . S
C939 C940 1.392 1_554 S
C939 C944 1.356 . S
C940 C939 1.392 1_556 S
C940 C941 1.368 . S
C940 H968 0.929 . S
C941 C940 1.368 . S
C941 C942 1.386 . S
C941 H969 0.929 . S
C942 C941 1.386 . S
C942 C943 1.373 1_556 S
C943 C942 1.373 1_554 S
C943 C944 1.409 . S
C943 H970 0.931 . S
C944 C939 1.356 . S
C944 C943 1.409 . S
C944 H971 0.930 . S
C945 O958 1.270 1_556 S
C945 O959 1.248 . S
C946 O960 1.267 . S
C946 O961 1.278 . S
C947 Pr937 2.880 1_655 S
C947 C948 1.491 . S
C947 O962 1.254 . S
C947 O963 1.225 . S
C948 C947 1.491 . S
C948 C949 1.392 . S
C948 C953 1.356 . S
C949 C948 1.392 . S
C949 C950 1.368 . S
C949 H972 0.929 . S
C950 C949 1.368 . S
C950 C951 1.386 . S
C950 H973 0.929 . S
C951 C950 1.386 . S
C951 C952 1.373 . S
C952 C951 1.373 . S
C952 C953 1.409 . S
C952 H974 0.931 . S
C953 C948 1.356 . S
C953 C952 1.409 . S
C953 H975 0.930 . S
C954 O964 1.270 . S
C954 O965 1.248 . S
C955 O966 1.267 . S
C955 O967 1.278 . S
O956 Pr936 2.562 . S
O956 C938 1.254 . S
O957 Pr936 2.490 . S
O957 C938 1.225 . S
O958 Pr936 2.695 . S
O958 Pr937 2.436 . S
O958 C945 1.270 1_554 S
O959 Pr936 2.512 1_556 S
O959 C945 1.248 . S
O960 Pr937 2.438 . S
O960 C946 1.267 . S
O961 Pr936 2.437 . S
O961 C946 1.278 . S
O962 Pr937 2.562 1_655 S
O962 C947 1.254 . S
O963 Pr937 2.490 1_655 S
O963 C947 1.225 . S
O964 Pr936 2.436 . S
O964 Pr937 2.695 . S
O964 C954 1.270 . S
O965 Pr937 2.512 . S
O965 C954 1.248 . S
O966 Pr936 2.438 . S
O966 C955 1.267 . S
O967 Pr937 2.437 . S
O967 C955 1.278 . S
H968 C940 0.929 . S
H969 C941 0.929 . S
H970 C943 0.931 . S
H971 C944 0.930 . S
H972 C949 0.929 . S
H973 C950 0.929 . S
H974 C952 0.931 . S
H975 C953 0.930 . S
H976 C982 0.930 . S
H977 C986 0.930 . S
H978 C991 0.929 . S
H979 C989 0.929 . S
H980 C984 0.929 . S
H981 C990 0.929 . S
C982 H976 0.930 . S
C982 C983 1.367 . S
C982 C990 1.378 . S
C983 C982 1.367 . S
C983 C991 1.433 . S
C984 H980 0.929 . S
C984 C986 1.378 . S
C984 C988 1.350 . S
C985 C988 1.463 . S
C985 C990 1.350 . S
C985 N993 1.427 . S
C986 H977 0.930 . S
C986 C984 1.378 . S
C986 C987 1.367 1_556 S
C987 C986 1.367 1_554 S
C987 C989 1.433 . S
C988 C984 1.350 . S
C988 C985 1.463 . S
C988 N992 1.427 1_556 S
C989 H979 0.929 . S
C989 C987 1.433 . S
C989 N992 1.384 . S
C990 H981 0.929 . S
C990 C982 1.378 . S
C990 C985 1.350 . S
C991 H978 0.929 . S
C991 C983 1.433 . S
C991 N993 1.384 . S
N992 C988 1.427 1_554 S
N992 C989 1.384 . S
N993 C985 1.427 . S
N993 C991 1.384 . S
H994 C1000 0.930 . S
H995 C1004 0.930 . S
H996 C1009 0.929 . S
H997 C1007 0.929 . S
H998 C1002 0.929 . S
H999 C1008 0.929 . S
C1000 H994 0.930 . S
C1000 C1001 1.367 . S
C1000 C1008 1.378 . S
C1001 C1000 1.367 . S
C1001 C1009 1.433 . S
C1002 H998 0.929 . S
C1002 C1004 1.378 . S
C1002 C1006 1.350 . S
C1003 C1006 1.463 . S
C1003 C1008 1.350 . S
C1003 N1011 1.427 . S
C1004 H995 0.930 . S
C1004 C1002 1.378 . S
C1004 C1005 1.367 . S
C1005 C1004 1.367 . S
C1005 C1007 1.433 . S
C1006 C1002 1.350 . S
C1006 C1003 1.463 . S
C1006 N1010 1.427 . S
C1007 H997 0.929 . S
C1007 C1005 1.433 . S
C1007 N1010 1.384 . S
C1008 H999 0.929 . S
C1008 C1000 1.378 . S
C1008 C1003 1.350 . S
C1009 H996 0.929 . S
C1009 C1001 1.433 . S
C1009 N1011 1.384 . S
N1010 C1006 1.427 . S
N1010 C1007 1.384 . S
N1011 C1003 1.427 . S
N1011 C1009 1.384 . S
H1012 C1018 0.930 . S
H1013 C1022 0.930 . S
H1014 C1027 0.929 . S
H1015 C1025 0.929 1_545 S
H1016 C1020 0.929 . S
H1017 C1026 0.929 . S
C1018 H1012 0.930 . S
C1018 C1019 1.367 . S
C1018 C1026 1.378 . S
C1019 C1018 1.367 . S
C1019 C1027 1.433 . S
C1020 H1016 0.929 . S
C1020 C1022 1.378 . S
C1020 C1024 1.350 . S
C1021 C1024 1.463 . S
C1021 C1026 1.350 . S
C1021 N1029 1.427 . S
C1022 H1013 0.930 . S
C1022 C1020 1.378 . S
C1022 C1023 1.367 1_565 S
C1023 C1022 1.367 1_545 S
C1023 C1025 1.433 1_545 S
C1024 C1020 1.350 . S
C1024 C1021 1.463 . S
C1024 N1028 1.427 . S
C1025 H1015 0.929 1_565 S
C1025 C1023 1.433 1_565 S
C1025 N1028 1.384 . S
C1026 H1017 0.929 . S
C1026 C1018 1.378 . S
C1026 C1021 1.350 . S
C1027 H1014 0.929 . S
C1027 C1019 1.433 . S
C1027 N1029 1.384 . S
N1028 C1024 1.427 . S
N1028 C1025 1.384 . S
N1029 C1021 1.427 . S
N1029 C1027 1.384 . S
H1030 C1036 0.930 . S
H1031 C1040 0.930 . S
H1032 C1045 0.929 . S
H1033 C1043 0.929 . S
H1034 C1038 0.929 . S
H1035 C1044 0.929 . S
C1036 H1030 0.930 . S
C1036 C1037 1.367 . S
C1036 C1044 1.378 . S
C1037 C1036 1.367 . S
C1037 C1045 1.433 . S
C1038 H1034 0.929 . S
C1038 C1040 1.378 . S
C1038 C1042 1.350 . S
C1039 C1042 1.463 . S
C1039 C1044 1.350 . S
C1039 N1047 1.427 . S
C1040 H1031 0.930 . S
C1040 C1038 1.378 . S
C1040 C1041 1.367 . S
C1041 C1040 1.367 . S
C1041 C1043 1.433 . S
C1042 C1038 1.350 . S
C1042 C1039 1.463 . S
C1042 N1046 1.427 . S
C1043 H1033 0.929 . S
C1043 C1041 1.433 . S
C1043 N1046 1.384 . S
C1044 H1035 0.929 . S
C1044 C1036 1.378 . S
C1044 C1039 1.350 . S
C1045 H1032 0.929 . S
C1045 C1037 1.433 . S
C1045 N1047 1.384 . S
N1046 C1042 1.427 . S
N1046 C1043 1.384 . S
N1047 C1039 1.427 . S
N1047 C1045 1.384 . S
H1048 C1054 0.930 . S
H1049 C1058 0.930 . S
H1050 C1063 0.929 . S
H1051 C1061 0.929 . S
H1052 C1056 0.929 . S
H1053 C1062 0.929 . S
C1054 H1048 0.930 . S
C1054 C1055 1.367 . S
C1054 C1062 1.378 . S
C1055 C1054 1.367 . S
C1055 C1063 1.433 . S
C1056 H1052 0.929 . S
C1056 C1058 1.378 . S
C1056 C1060 1.350 . S
C1057 C1060 1.463 . S
C1057 C1062 1.350 . S
C1057 N1065 1.427 . S
C1058 H1049 0.930 . S
C1058 C1056 1.378 . S
C1058 C1059 1.367 1_565 S
C1059 C1058 1.367 1_545 S
C1059 C1061 1.433 . S
C1060 C1056 1.350 . S
C1060 C1057 1.463 . S
C1060 N1064 1.427 . S
C1061 H1051 0.929 . S
C1061 C1059 1.433 . S
C1061 N1064 1.384 1_545 S
C1062 H1053 0.929 . S
C1062 C1054 1.378 . S
C1062 C1057 1.350 . S
C1063 H1050 0.929 . S
C1063 C1055 1.433 . S
C1063 N1065 1.384 . S
N1064 C1060 1.427 . S
N1064 C1061 1.384 1_565 S
N1065 C1057 1.427 . S
N1065 C1063 1.384 . S
H1066 C1072 0.930 . S
H1067 C1076 0.930 . S
H1068 C1081 0.929 . S
H1069 C1079 0.929 . S
H1070 C1074 0.929 . S
H1071 C1080 0.929 . S
C1072 H1066 0.930 . S
C1072 C1073 1.367 . S
C1072 C1080 1.378 . S
C1073 C1072 1.367 . S
C1073 C1081 1.433 . S
C1074 H1070 0.929 . S
C1074 C1076 1.378 . S
C1074 C1078 1.350 . S
C1075 C1078 1.463 . S
C1075 C1080 1.350 . S
C1075 N1083 1.427 . S
C1076 H1067 0.930 . S
C1076 C1074 1.378 . S
C1076 C1077 1.367 . S
C1077 C1076 1.367 . S
C1077 C1079 1.433 . S
C1078 C1074 1.350 . S
C1078 C1075 1.463 . S
C1078 N1082 1.427 . S
C1079 H1069 0.929 . S
C1079 C1077 1.433 . S
C1079 N1082 1.384 . S
C1080 H1071 0.929 . S
C1080 C1072 1.378 . S
C1080 C1075 1.350 . S
C1081 H1068 0.929 . S
C1081 C1073 1.433 . S
C1081 N1083 1.384 . S
N1082 C1078 1.427 . S
N1082 C1079 1.384 . S
N1083 C1075 1.427 . S
N1083 C1081 1.384 . S
H1084 C1090 0.930 . S
H1085 C1094 0.930 . S
H1086 C1099 0.929 . S
H1087 C1097 0.929 . S
H1088 C1092 0.929 . S
H1089 C1098 0.929 . S
C1090 H1084 0.930 . S
C1090 C1091 1.367 . S
C1090 C1098 1.378 . S
C1091 C1090 1.367 . S
C1091 C1099 1.433 . S
C1092 H1088 0.929 . S
C1092 C1094 1.378 . S
C1092 C1096 1.350 . S
C1093 C1096 1.463 . S
C1093 C1098 1.350 . S
C1093 N1101 1.427 . S
C1094 H1085 0.930 . S
C1094 C1092 1.378 . S
C1094 C1095 1.367 . S
C1095 C1094 1.367 . S
C1095 C1097 1.433 . S
C1096 C1092 1.350 . S
C1096 C1093 1.463 . S
C1096 N1100 1.427 . S
C1097 H1087 0.929 . S
C1097 C1095 1.433 . S
C1097 N1100 1.384 . S
C1098 H1089 0.929 . S
C1098 C1090 1.378 . S
C1098 C1093 1.350 . S
C1099 H1086 0.929 . S
C1099 C1091 1.433 . S
C1099 N1101 1.384 . S
N1100 C1096 1.427 . S
N1100 C1097 1.384 . S
N1101 C1093 1.427 . S
N1101 C1099 1.384 . S
H1102 C1108 0.930 . S
H1103 C1112 0.930 . S
H1104 C1117 0.929 . S
H1105 C1115 0.929 . S
H1106 C1110 0.929 . S
H1107 C1116 0.929 . S
C1108 H1102 0.930 . S
C1108 C1109 1.367 . S
C1108 C1116 1.378 . S
C1109 C1108 1.367 . S
C1109 C1117 1.433 . S
C1110 H1106 0.929 . S
C1110 C1112 1.378 . S
C1110 C1114 1.350 . S
C1111 C1114 1.463 . S
C1111 C1116 1.350 . S
C1111 N1119 1.427 . S
C1112 H1103 0.930 . S
C1112 C1110 1.378 . S
C1112 C1113 1.367 . S
C1113 C1112 1.367 . S
C1113 C1115 1.433 . S
C1114 C1110 1.350 . S
C1114 C1111 1.463 . S
C1114 N1118 1.427 . S
C1115 H1105 0.929 . S
C1115 C1113 1.433 . S
C1115 N1118 1.384 . S
C1116 H1107 0.929 . S
C1116 C1108 1.378 . S
C1116 C1111 1.350 . S
C1117 H1104 0.929 . S
C1117 C1109 1.433 . S
C1117 N1119 1.384 . S
N1118 C1114 1.427 . S
N1118 C1115 1.384 . S
N1119 C1111 1.427 . S
N1119 C1117 1.384 . S
H1120 C1126 0.930 . S
H1121 C1130 0.930 . S
H1122 C1135 0.929 . S
H1123 C1133 0.929 . S
H1124 C1128 0.929 . S
H1125 C1134 0.929 . S
C1126 H1120 0.930 . S
C1126 C1127 1.367 . S
C1126 C1134 1.378 . S
C1127 C1126 1.367 . S
C1127 C1135 1.433 . S
C1128 H1124 0.929 . S
C1128 C1130 1.378 . S
C1128 C1132 1.350 . S
C1129 C1132 1.463 . S
C1129 C1134 1.350 . S
C1129 N1137 1.427 . S
C1130 H1121 0.930 . S
C1130 C1128 1.378 . S
C1130 C1131 1.367 1_655 S
C1131 C1130 1.367 1_455 S
C1131 C1133 1.433 . S
C1132 C1128 1.350 . S
C1132 C1129 1.463 . S
C1132 N1136 1.427 1_655 S
C1133 H1123 0.929 . S
C1133 C1131 1.433 . S
C1133 N1136 1.384 . S
C1134 H1125 0.929 . S
C1134 C1126 1.378 . S
C1134 C1129 1.350 . S
C1135 H1122 0.929 . S
C1135 C1127 1.433 . S
C1135 N1137 1.384 . S
N1136 C1132 1.427 1_455 S
N1136 C1133 1.384 . S
N1137 C1129 1.427 . S
N1137 C1135 1.384 . S
H1138 C1144 0.930 . S
H1139 C1148 0.930 . S
H1140 C1153 0.929 . S
H1141 C1151 0.929 . S
H1142 C1146 0.929 . S
H1143 C1152 0.929 . S
C1144 H1138 0.930 . S
C1144 C1145 1.367 . S
C1144 C1152 1.378 . S
C1145 C1144 1.367 . S
C1145 C1153 1.433 . S
C1146 H1142 0.929 . S
C1146 C1148 1.378 . S
C1146 C1150 1.350 . S
C1147 C1150 1.463 . S
C1147 C1152 1.350 . S
C1147 N1155 1.427 . S
C1148 H1139 0.930 . S
C1148 C1146 1.378 . S
C1148 C1149 1.367 . S
C1149 C1148 1.367 . S
C1149 C1151 1.433 . S
C1150 C1146 1.350 . S
C1150 C1147 1.463 . S
C1150 N1154 1.427 . S
C1151 H1141 0.929 . S
C1151 C1149 1.433 . S
C1151 N1154 1.384 . S
C1152 H1143 0.929 . S
C1152 C1144 1.378 . S
C1152 C1147 1.350 . S
C1153 H1140 0.929 . S
C1153 C1145 1.433 . S
C1153 N1155 1.384 . S
N1154 C1150 1.427 . S
N1154 C1151 1.384 . S
N1155 C1147 1.427 . S
N1155 C1153 1.384 . S
H1156 C1162 0.930 . S
H1157 C1166 0.930 . S
H1158 C1171 0.929 . S
H1159 C1169 0.929 . S
H1160 C1164 0.929 . S
H1161 C1170 0.929 . S
C1162 H1156 0.930 . S
C1162 C1163 1.369 . S
C1162 C1170 1.378 . S
C1163 C1162 1.369 . S
C1163 C1171 1.427 1_565 S
C1164 H1160 0.929 . S
C1164 C1166 1.378 . S
C1164 C1168 1.350 . S
C1165 C1168 1.463 . S
C1165 C1170 1.350 1_545 S
C1165 N1173 1.427 . S
C1166 H1157 0.930 . S
C1166 C1164 1.378 . S
C1166 C1167 1.367 . S
C1167 C1166 1.367 . S
C1167 C1169 1.433 . S
C1168 C1164 1.350 . S
C1168 C1165 1.463 . S
C1168 N1172 1.427 . S
C1169 H1159 0.929 . S
C1169 C1167 1.433 . S
C1169 N1172 1.384 . S
C1170 H1161 0.929 . S
C1170 C1162 1.378 . S
C1170 C1165 1.350 1_565 S
C1171 H1158 0.929 . S
C1171 C1163 1.427 1_545 S
C1171 N1173 1.384 . S
N1172 C1168 1.427 . S
N1172 C1169 1.384 . S
N1173 C1165 1.427 . S
N1173 C1171 1.384 . S
H1174 C1180 0.930 . S
H1175 C1184 0.930 . S
H1176 C1189 0.929 . S
H1177 C1187 0.929 . S
H1178 C1182 0.929 . S
H1179 C1188 0.929 . S
C1180 H1174 0.930 . S
C1180 C1181 1.367 . S
C1180 C1188 1.378 . S
C1181 C1180 1.367 . S
C1181 C1189 1.433 . S
C1182 H1178 0.929 . S
C1182 C1184 1.378 . S
C1182 C1186 1.350 . S
C1183 C1186 1.463 . S
C1183 C1188 1.350 . S
C1183 N1191 1.427 . S
C1184 H1175 0.930 . S
C1184 C1182 1.378 . S
C1184 C1185 1.367 . S
C1185 C1184 1.367 . S
C1185 C1187 1.433 . S
C1186 C1182 1.350 . S
C1186 C1183 1.463 . S
C1186 N1190 1.427 . S
C1187 H1177 0.929 . S
C1187 C1185 1.433 . S
C1187 N1190 1.384 . S
C1188 H1179 0.929 . S
C1188 C1180 1.378 . S
C1188 C1183 1.350 . S
C1189 H1176 0.929 . S
C1189 C1181 1.433 . S
C1189 N1191 1.384 . S
N1190 C1186 1.427 . S
N1190 C1187 1.384 . S
N1191 C1183 1.427 . S
N1191 C1189 1.384 . S
H1192 C1198 0.930 . S
H1193 C1202 0.930 . S
H1194 C1207 0.929 . S
H1195 C1205 0.929 . S
H1196 C1200 0.929 . S
H1197 C1206 0.929 . S
C1198 H1192 0.930 . S
C1198 C1199 1.367 . S
C1198 C1206 1.378 . S
C1199 C1198 1.367 . S
C1199 C1207 1.433 . S
C1200 H1196 0.929 . S
C1200 C1202 1.378 1_655 S
C1200 C1204 1.350 . S
C1201 C1204 1.463 . S
C1201 C1206 1.350 . S
C1201 N1209 1.427 . S
C1202 H1193 0.930 . S
C1202 C1200 1.378 1_455 S
C1202 C1203 1.367 . S
C1203 C1202 1.367 . S
C1203 C1205 1.433 1_455 S
C1204 C1200 1.350 . S
C1204 C1201 1.463 . S
C1204 N1208 1.427 . S
C1205 H1195 0.929 . S
C1205 C1203 1.433 1_655 S
C1205 N1208 1.384 . S
C1206 H1197 0.929 . S
C1206 C1198 1.378 . S
C1206 C1201 1.350 . S
C1207 H1194 0.929 . S
C1207 C1199 1.433 . S
C1207 N1209 1.384 . S
N1208 C1204 1.427 . S
N1208 C1205 1.384 . S
N1209 C1201 1.427 . S
N1209 C1207 1.384 . S
H1210 C1216 0.930 . S
H1211 C1220 0.930 . S
H1212 C1225 0.929 . S
H1213 C1223 0.929 . S
H1214 C1218 0.929 . S
H1215 C1224 0.929 . S
C1216 H1210 0.930 . S
C1216 C1217 1.367 . S
C1216 C1224 1.378 . S
C1217 C1216 1.367 . S
C1217 C1225 1.433 . S
C1218 H1214 0.929 . S
C1218 C1220 1.378 . S
C1218 C1222 1.350 . S
C1219 C1222 1.463 . S
C1219 C1224 1.350 . S
C1219 N1227 1.427 . S
C1220 H1211 0.930 . S
C1220 C1218 1.378 . S
C1220 C1221 1.367 . S
C1221 C1220 1.367 . S
C1221 C1223 1.433 . S
C1222 C1218 1.350 . S
C1222 C1219 1.463 . S
C1222 N1226 1.427 . S
C1223 H1213 0.929 . S
C1223 C1221 1.433 . S
C1223 N1226 1.384 . S
C1224 H1215 0.929 . S
C1224 C1216 1.378 . S
C1224 C1219 1.350 . S
C1225 H1212 0.929 . S
C1225 C1217 1.433 . S
C1225 N1227 1.384 . S
N1226 C1222 1.427 . S
N1226 C1223 1.384 . S
N1227 C1219 1.427 . S
N1227 C1225 1.384 . S
H1228 C1234 0.930 . S
H1229 C1238 0.930 . S
H1230 C1243 0.929 . S
H1231 C1241 0.929 . S
H1232 C1236 0.929 . S
H1233 C1242 0.929 . S
C1234 H1228 0.930 . S
C1234 C1235 1.367 1_565 S
C1234 C1242 1.378 1_565 S
C1235 C1234 1.367 1_545 S
C1235 C1243 1.433 . S
C1236 H1232 0.929 . S
C1236 C1238 1.378 . S
C1236 C1240 1.350 . S
C1237 C1240 1.463 . S
C1237 C1242 1.350 . S
C1237 N1245 1.427 . S
C1238 H1229 0.930 . S
C1238 C1236 1.378 . S
C1238 C1239 1.367 . S
C1239 C1238 1.367 . S
C1239 C1241 1.433 . S
C1240 C1236 1.350 . S
C1240 C1237 1.463 . S
C1240 N1244 1.427 . S
C1241 H1231 0.929 . S
C1241 C1239 1.433 . S
C1241 N1244 1.384 . S
C1242 H1233 0.929 . S
C1242 C1234 1.378 1_545 S
C1242 C1237 1.350 . S
C1243 H1230 0.929 . S
C1243 C1235 1.433 . S
C1243 N1245 1.384 . S
N1244 C1240 1.427 . S
N1244 C1241 1.384 . S
N1245 C1237 1.427 . S
N1245 C1243 1.384 . S
H1246 C1252 0.930 . S
H1247 C1256 0.930 . S
H1248 C1261 0.929 . S
H1249 C1259 0.929 . S
H1250 C1254 0.929 . S
H1251 C1260 0.929 . S
C1252 H1246 0.930 . S
C1252 C1253 1.367 . S
C1252 C1260 1.378 . S
C1253 C1252 1.367 . S
C1253 C1261 1.433 . S
C1254 H1250 0.929 . S
C1254 C1256 1.378 . S
C1254 C1258 1.350 . S
C1255 C1258 1.463 . S
C1255 C1260 1.350 . S
C1255 N1263 1.427 . S
C1256 H1247 0.930 . S
C1256 C1254 1.378 . S
C1256 C1257 1.367 . S
C1257 C1256 1.367 . S
C1257 C1259 1.433 . S
C1258 C1254 1.350 . S
C1258 C1255 1.463 . S
C1258 N1262 1.427 . S
C1259 H1249 0.929 . S
C1259 C1257 1.433 . S
C1259 N1262 1.384 . S
C1260 H1251 0.929 . S
C1260 C1252 1.378 . S
C1260 C1255 1.350 . S
C1261 H1248 0.929 . S
C1261 C1253 1.433 . S
C1261 N1263 1.384 . S
N1262 C1258 1.427 . S
N1262 C1259 1.384 . S
N1263 C1255 1.427 . S
N1263 C1261 1.384 . S
H1264 C1270 0.930 1_545 S
H1265 C1274 0.932 1_565 S
H1266 C1279 0.929 . S
H1267 C1277 0.929 . S
H1268 C1272 0.929 . S
H1269 C1278 0.929 . S
C1270 H1264 0.930 1_565 S
C1270 C1271 1.367 . S
C1270 C1278 1.378 1_565 S
C1271 C1270 1.367 . S
C1271 C1279 1.433 . S
C1272 H1268 0.929 . S
C1272 C1274 1.380 1_565 S
C1272 C1276 1.350 1_565 S
C1273 C1276 1.463 1_565 S
C1273 C1278 1.350 1_565 S
C1273 N1281 1.427 . S
C1274 H1265 0.932 1_545 S
C1274 C1272 1.380 1_545 S
C1274 C1275 1.363 . S
C1275 C1274 1.363 . S
C1275 C1277 1.433 . S
C1276 C1272 1.350 1_545 S
C1276 C1273 1.463 1_545 S
C1276 N1280 1.427 . S
C1277 H1267 0.929 . S
C1277 C1275 1.433 . S
C1277 N1280 1.384 . S
C1278 H1269 0.929 . S
C1278 C1270 1.378 1_545 S
C1278 C1273 1.350 1_545 S
C1279 H1266 0.929 . S
C1279 C1271 1.433 . S
C1279 N1281 1.384 . S
N1280 C1276 1.427 . S
N1280 C1277 1.384 . S
N1281 C1273 1.427 . S
N1281 C1279 1.384 . S
H1282 C1288 0.930 . S
H1283 C1292 0.930 . S
H1284 C1297 0.929 . S
H1285 C1295 0.929 1_556 S
H1286 C1290 0.929 . S
H1287 C1296 0.929 . S
C1288 H1282 0.930 . S
C1288 C1289 1.367 1_556 S
C1288 C1296 1.378 . S
C1289 C1288 1.367 1_554 S
C1289 C1297 1.433 . S
C1290 H1286 0.929 . S
C1290 C1292 1.378 . S
C1290 C1294 1.350 . S
C1291 C1294 1.463 . S
C1291 C1296 1.350 1_554 S
C1291 N1299 1.427 . S
C1292 H1283 0.930 . S
C1292 C1290 1.378 . S
C1292 C1293 1.367 . S
C1293 C1292 1.367 . S
C1293 C1295 1.433 . S
C1294 C1290 1.350 . S
C1294 C1291 1.463 . S
C1294 N1298 1.427 . S
C1295 H1285 0.929 1_554 S
C1295 C1293 1.433 . S
C1295 N1298 1.384 . S
C1296 H1287 0.929 . S
C1296 C1288 1.378 . S
C1296 C1291 1.350 1_556 S
C1297 H1284 0.929 . S
C1297 C1289 1.433 . S
C1297 N1299 1.384 . S
N1298 C1294 1.427 . S
N1298 C1295 1.384 . S
N1299 C1291 1.427 . S
N1299 C1297 1.384 . S
H1300 C1306 0.930 . S
H1301 C1310 0.930 . S
H1302 C1315 0.929 . S
H1303 C1313 0.929 . S
H1304 C1308 0.929 . S
H1305 C1314 0.929 . S
C1306 H1300 0.930 . S
C1306 C1307 1.367 . S
C1306 C1314 1.378 . S
C1307 C1306 1.367 . S
C1307 C1315 1.433 . S
C1308 H1304 0.929 . S
C1308 C1310 1.378 . S
C1308 C1312 1.350 . S
C1309 C1312 1.463 . S
C1309 C1314 1.350 . S
C1309 N1317 1.427 . S
C1310 H1301 0.930 . S
C1310 C1308 1.378 . S
C1310 C1311 1.367 . S
C1311 C1310 1.367 . S
C1311 C1313 1.433 . S
C1312 C1308 1.350 . S
C1312 C1309 1.463 . S
C1312 N1316 1.427 . S
C1313 H1303 0.929 . S
C1313 C1311 1.433 . S
C1313 N1316 1.384 . S
C1314 H1305 0.929 . S
C1314 C1306 1.378 . S
C1314 C1309 1.350 . S
C1315 H1302 0.929 . S
C1315 C1307 1.433 . S
C1315 N1317 1.384 . S
N1316 C1312 1.427 . S
N1316 C1313 1.384 . S
N1317 C1309 1.427 . S
N1317 C1315 1.384 . S
H1318 C1324 0.930 . S
H1319 C1328 0.930 . S
H1320 C1333 0.929 . S
H1321 C1331 0.929 . S
H1322 C1326 0.929 . S
H1323 C1332 0.929 . S
C1324 H1318 0.930 . S
C1324 C1325 1.367 . S
C1324 C1332 1.378 . S
C1325 C1324 1.367 . S
C1325 C1333 1.433 . S
C1326 H1322 0.929 . S
C1326 C1328 1.378 . S
C1326 C1330 1.350 . S
C1327 C1330 1.463 . S
C1327 C1332 1.350 . S
C1327 N1335 1.427 . S
C1328 H1319 0.930 . S
C1328 C1326 1.378 . S
C1328 C1329 1.367 . S
C1329 C1328 1.367 . S
C1329 C1331 1.433 . S
C1330 C1326 1.350 . S
C1330 C1327 1.463 . S
C1330 N1334 1.427 . S
C1331 H1321 0.929 . S
C1331 C1329 1.433 . S
C1331 N1334 1.384 . S
C1332 H1323 0.929 . S
C1332 C1324 1.378 . S
C1332 C1327 1.350 . S
C1333 H1320 0.929 . S
C1333 C1325 1.433 . S
C1333 N1335 1.384 . S
N1334 C1330 1.427 . S
N1334 C1331 1.384 . S
N1335 C1327 1.427 . S
N1335 C1333 1.384 . S
H1336 C1342 0.930 . S
H1337 C1346 0.930 . S
H1338 C1351 0.929 . S
H1339 C1349 0.929 . S
H1340 C1344 0.929 . S
H1341 C1350 0.929 . S
C1342 H1336 0.930 . S
C1342 C1343 1.367 . S
C1342 C1350 1.378 . S
C1343 C1342 1.367 . S
C1343 C1351 1.433 . S
C1344 H1340 0.929 . S
C1344 C1346 1.378 . S
C1344 C1348 1.350 . S
C1345 C1348 1.463 . S
C1345 C1350 1.350 . S
C1345 N1353 1.427 . S
C1346 H1337 0.930 . S
C1346 C1344 1.378 . S
C1346 C1347 1.367 . S
C1347 C1346 1.367 . S
C1347 C1349 1.433 . S
C1348 C1344 1.350 . S
C1348 C1345 1.463 . S
C1348 N1352 1.427 . S
C1349 H1339 0.929 . S
C1349 C1347 1.433 . S
C1349 N1352 1.384 . S
C1350 H1341 0.929 . S
C1350 C1342 1.378 . S
C1350 C1345 1.350 . S
C1351 H1338 0.929 . S
C1351 C1343 1.433 . S
C1351 N1353 1.384 . S
N1352 C1348 1.427 . S
N1352 C1349 1.384 . S
N1353 C1345 1.427 . S
N1353 C1351 1.384 . S
H1354 C1360 0.930 . S
H1355 C1364 0.930 . S
H1356 C1369 0.929 . S
H1357 C1367 0.929 . S
H1358 C1362 0.929 . S
H1359 C1368 0.929 . S
C1360 H1354 0.930 . S
C1360 C1361 1.367 . S
C1360 C1368 1.378 . S
C1361 C1360 1.367 . S
C1361 C1369 1.433 . S
C1362 H1358 0.929 . S
C1362 C1364 1.378 . S
C1362 C1366 1.350 . S
C1363 C1366 1.463 . S
C1363 C1368 1.350 . S
C1363 N1371 1.427 . S
C1364 H1355 0.930 . S
C1364 C1362 1.378 . S
C1364 C1365 1.367 . S
C1365 C1364 1.367 . S
C1365 C1367 1.433 . S
C1366 C1362 1.350 . S
C1366 C1363 1.463 . S
C1366 N1370 1.427 . S
C1367 H1357 0.929 . S
C1367 C1365 1.433 . S
C1367 N1370 1.384 . S
C1368 H1359 0.929 . S
C1368 C1360 1.378 . S
C1368 C1363 1.350 . S
C1369 H1356 0.929 . S
C1369 C1361 1.433 . S
C1369 N1371 1.384 . S
N1370 C1366 1.427 . S
N1370 C1367 1.384 . S
N1371 C1363 1.427 . S
N1371 C1369 1.384 . S
H1372 C1378 0.930 . S
H1373 C1382 0.930 . S
H1374 C1387 0.929 . S
H1375 C1385 0.929 . S
H1376 C1380 0.929 . S
H1377 C1386 0.929 . S
C1378 H1372 0.930 . S
C1378 C1379 1.367 . S
C1378 C1386 1.378 . S
C1379 C1378 1.367 . S
C1379 C1387 1.433 . S
C1380 H1376 0.929 . S
C1380 C1382 1.378 . S
C1380 C1384 1.350 . S
C1381 C1384 1.463 . S
C1381 C1386 1.350 . S
C1381 N1389 1.427 . S
C1382 H1373 0.930 . S
C1382 C1380 1.378 . S
C1382 C1383 1.367 . S
C1383 C1382 1.367 . S
C1383 C1385 1.433 . S
C1384 C1380 1.350 . S
C1384 C1381 1.463 . S
C1384 N1388 1.427 . S
C1385 H1375 0.929 . S
C1385 C1383 1.433 . S
C1385 N1388 1.384 . S
C1386 H1377 0.929 . S
C1386 C1378 1.378 . S
C1386 C1381 1.350 . S
C1387 H1374 0.929 . S
C1387 C1379 1.433 . S
C1387 N1389 1.384 . S
N1388 C1384 1.427 . S
N1388 C1385 1.384 . S
N1389 C1381 1.427 . S
N1389 C1387 1.384 . S
H1390 C1396 0.930 . S
H1391 C1400 0.930 . S
H1392 C1405 0.929 . S
H1393 C1403 0.929 . S
H1394 C1398 0.929 . S
H1395 C1404 0.929 . S
C1396 H1390 0.930 . S
C1396 C1397 1.367 . S
C1396 C1404 1.378 . S
C1397 C1396 1.367 . S
C1397 C1405 1.433 . S
C1398 H1394 0.929 . S
C1398 C1400 1.378 . S
C1398 C1402 1.350 . S
C1399 C1402 1.463 . S
C1399 C1404 1.350 . S
C1399 N1407 1.427 . S
C1400 H1391 0.930 . S
C1400 C1398 1.378 . S
C1400 C1401 1.367 . S
C1401 C1400 1.367 . S
C1401 C1403 1.433 . S
C1402 C1398 1.350 . S
C1402 C1399 1.463 . S
C1402 N1406 1.427 . S
C1403 H1393 0.929 . S
C1403 C1401 1.433 . S
C1403 N1406 1.384 . S
C1404 H1395 0.929 . S
C1404 C1396 1.378 . S
C1404 C1399 1.350 . S
C1405 H1392 0.929 . S
C1405 C1397 1.433 . S
C1405 N1407 1.384 . S
N1406 C1402 1.427 . S
N1406 C1403 1.384 . S
N1407 C1399 1.427 . S
N1407 C1405 1.384 . S
H1408 C1414 0.930 . S
H1409 C1418 0.930 . S
H1410 C1423 0.929 . S
H1411 C1421 0.929 . S
H1412 C1416 0.929 . S
H1413 C1422 0.929 . S
C1414 H1408 0.930 . S
C1414 C1415 1.367 . S
C1414 C1422 1.378 . S
C1415 C1414 1.367 . S
C1415 C1423 1.433 . S
C1416 H1412 0.929 . S
C1416 C1418 1.378 . S
C1416 C1420 1.350 . S
C1417 C1420 1.463 . S
C1417 C1422 1.350 . S
C1417 N1425 1.427 . S
C1418 H1409 0.930 . S
C1418 C1416 1.378 . S
C1418 C1419 1.367 . S
C1419 C1418 1.367 . S
C1419 C1421 1.433 1_565 S
C1420 C1416 1.350 . S
C1420 C1417 1.463 . S
C1420 N1424 1.427 . S
C1421 H1411 0.929 . S
C1421 C1419 1.433 1_545 S
C1421 N1424 1.384 1_545 S
C1422 H1413 0.929 . S
C1422 C1414 1.378 . S
C1422 C1417 1.350 . S
C1423 H1410 0.929 . S
C1423 C1415 1.433 . S
C1423 N1425 1.384 . S
N1424 C1420 1.427 . S
N1424 C1421 1.384 1_565 S
N1425 C1417 1.427 . S
N1425 C1423 1.384 . S
H1426 C1432 0.930 . S
H1427 C1436 0.930 . S
H1428 C1441 0.929 . S
H1429 C1439 0.929 . S
H1430 C1434 0.929 . S
H1431 C1440 0.929 . S
C1432 H1426 0.930 . S
C1432 C1433 1.367 . S
C1432 C1440 1.378 . S
C1433 C1432 1.367 . S
C1433 C1441 1.433 . S
C1434 H1430 0.929 . S
C1434 C1436 1.378 . S
C1434 C1438 1.350 . S
C1435 C1438 1.463 . S
C1435 C1440 1.350 . S
C1435 N1443 1.427 . S
C1436 H1427 0.930 . S
C1436 C1434 1.378 . S
C1436 C1437 1.367 . S
C1437 C1436 1.367 . S
C1437 C1439 1.433 . S
C1438 C1434 1.350 . S
C1438 C1435 1.463 . S
C1438 N1442 1.427 . S
C1439 H1429 0.929 . S
C1439 C1437 1.433 . S
C1439 N1442 1.384 . S
C1440 H1431 0.929 . S
C1440 C1432 1.378 . S
C1440 C1435 1.350 . S
C1441 H1428 0.929 . S
C1441 C1433 1.433 . S
C1441 N1443 1.384 . S
N1442 C1438 1.427 . S
N1442 C1439 1.384 . S
N1443 C1435 1.427 . S
N1443 C1441 1.384 . S
H1444 C1450 0.930 . S
H1445 C1454 0.930 . S
H1446 C1459 0.929 . S
H1447 C1457 0.929 . S
H1448 C1452 0.929 . S
H1449 C1458 0.929 . S
C1450 H1444 0.930 . S
C1450 C1451 1.367 . S
C1450 C1458 1.378 . S
C1451 C1450 1.367 . S
C1451 C1459 1.433 . S
C1452 H1448 0.929 . S
C1452 C1454 1.378 . S
C1452 C1456 1.350 . S
C1453 C1456 1.463 . S
C1453 C1458 1.350 . S
C1453 N1461 1.427 . S
C1454 H1445 0.930 . S
C1454 C1452 1.378 . S
C1454 C1455 1.367 . S
C1455 C1454 1.367 . S
C1455 C1457 1.433 . S
C1456 C1452 1.350 . S
C1456 C1453 1.463 . S
C1456 N1460 1.427 . S
C1457 H1447 0.929 . S
C1457 C1455 1.433 . S
C1457 N1460 1.384 . S
C1458 H1449 0.929 . S
C1458 C1450 1.378 . S
C1458 C1453 1.350 . S
C1459 H1446 0.929 . S
C1459 C1451 1.433 . S
C1459 N1461 1.384 . S
N1460 C1456 1.427 . S
N1460 C1457 1.384 . S
N1461 C1453 1.427 . S
N1461 C1459 1.384 . S
H1462 C1468 0.930 . S
H1463 C1472 0.930 . S
H1464 C1477 0.929 . S
H1465 C1475 0.929 . S
H1466 C1470 0.929 . S
H1467 C1476 0.929 . S
C1468 H1462 0.930 . S
C1468 C1469 1.367 . S
C1468 C1476 1.378 . S
C1469 C1468 1.367 . S
C1469 C1477 1.433 . S
C1470 H1466 0.929 . S
C1470 C1472 1.378 . S
C1470 C1474 1.350 . S
C1471 C1474 1.463 . S
C1471 C1476 1.350 . S
C1471 N1479 1.427 . S
C1472 H1463 0.930 . S
C1472 C1470 1.378 . S
C1472 C1473 1.367 . S
C1473 C1472 1.367 . S
C1473 C1475 1.433 . S
C1474 C1470 1.350 . S
C1474 C1471 1.463 . S
C1474 N1478 1.427 . S
C1475 H1465 0.929 . S
C1475 C1473 1.433 . S
C1475 N1478 1.384 . S
C1476 H1467 0.929 . S
C1476 C1468 1.378 . S
C1476 C1471 1.350 . S
C1477 H1464 0.929 . S
C1477 C1469 1.433 . S
C1477 N1479 1.384 . S
N1478 C1474 1.427 . S
N1478 C1475 1.384 . S
N1479 C1471 1.427 . S
N1479 C1477 1.384 . S
H1480 C1486 0.930 . S
H1481 C1490 0.930 . S
H1482 C1495 0.912 1_655 S
H1483 C1493 0.929 . S
H1484 C1488 0.929 . S
H1485 C1494 0.929 . S
C1486 H1480 0.930 . S
C1486 C1487 1.367 . S
C1486 C1494 1.378 . S
C1487 C1486 1.367 . S
C1487 C1495 1.445 . S
C1488 H1484 0.929 . S
C1488 C1490 1.378 . S
C1488 C1492 1.350 . S
C1489 C1492 1.463 . S
C1489 C1494 1.350 . S
C1489 N1497 1.427 . S
C1490 H1481 0.930 . S
C1490 C1488 1.378 . S
C1490 C1491 1.367 . S
C1491 C1490 1.367 . S
C1491 C1493 1.433 . S
C1492 C1488 1.350 . S
C1492 C1489 1.463 . S
C1492 N1496 1.427 . S
C1493 H1483 0.929 . S
C1493 C1491 1.433 . S
C1493 N1496 1.384 . S
C1494 H1485 0.929 . S
C1494 C1486 1.378 . S
C1494 C1489 1.350 . S
C1495 H1482 0.912 1_455 S
C1495 C1487 1.445 . S
C1495 N1497 1.390 . S
N1496 C1492 1.427 . S
N1496 C1493 1.384 . S
N1497 C1489 1.427 . S
N1497 C1495 1.390 . S
H1498 C1504 0.930 . S
H1499 C1508 0.930 . S
H1500 C1513 0.929 . S
H1501 C1511 0.929 . S
H1502 C1506 0.929 . S
H1503 C1512 0.929 . S
C1504 H1498 0.930 . S
C1504 C1505 1.367 . S
C1504 C1512 1.378 . S
C1505 C1504 1.367 . S
C1505 C1513 1.433 . S
C1506 H1502 0.929 . S
C1506 C1508 1.378 . S
C1506 C1510 1.350 . S
C1507 C1510 1.463 . S
C1507 C1512 1.350 . S
C1507 N1515 1.427 . S
C1508 H1499 0.930 . S
C1508 C1506 1.378 . S
C1508 C1509 1.367 . S
C1509 C1508 1.367 . S
C1509 C1511 1.433 . S
C1510 C1506 1.350 . S
C1510 C1507 1.463 . S
C1510 N1514 1.427 . S
C1511 H1501 0.929 . S
C1511 C1509 1.433 . S
C1511 N1514 1.384 . S
C1512 H1503 0.929 . S
C1512 C1504 1.378 . S
C1512 C1507 1.350 . S
C1513 H1500 0.929 . S
C1513 C1505 1.433 . S
C1513 N1515 1.384 . S
N1514 C1510 1.427 . S
N1514 C1511 1.384 . S
N1515 C1507 1.427 . S
N1515 C1513 1.384 . S
H1516 C1522 0.930 . S
H1517 C1526 0.930 1_545 S
H1518 C1531 0.929 . S
H1519 C1529 0.929 . S
H1520 C1524 0.929 . S
H1521 C1530 0.929 . S
C1522 H1516 0.930 . S
C1522 C1523 1.367 . S
C1522 C1530 1.378 . S
C1523 C1522 1.367 . S
C1523 C1531 1.433 . S
C1524 H1520 0.929 . S
C1524 C1526 1.378 . S
C1524 C1528 1.350 . S
C1525 C1528 1.463 . S
C1525 C1530 1.350 . S
C1525 N1533 1.427 . S
C1526 H1517 0.930 1_565 S
C1526 C1524 1.378 . S
C1526 C1527 1.367 1_556 S
C1527 C1526 1.367 1_554 S
C1527 C1529 1.433 . S
C1528 C1524 1.350 . S
C1528 C1525 1.463 . S
C1528 N1532 1.427 . S
C1529 H1519 0.929 . S
C1529 C1527 1.433 . S
C1529 N1532 1.384 1_554 S
C1530 H1521 0.929 . S
C1530 C1522 1.378 . S
C1530 C1525 1.350 . S
C1531 H1518 0.929 . S
C1531 C1523 1.433 . S
C1531 N1533 1.384 . S
N1532 C1528 1.427 . S
N1532 C1529 1.384 1_556 S
N1533 C1525 1.427 . S
N1533 C1531 1.384 . S
H1534 C1540 0.930 . S
H1535 C1544 0.930 . S
H1536 C1549 0.929 . S
H1537 C1547 0.929 . S
H1538 C1542 0.929 . S
H1539 C1548 0.929 . S
C1540 H1534 0.930 . S
C1540 C1541 1.367 . S
C1540 C1548 1.378 1_455 S
C1541 C1540 1.367 . S
C1541 C1549 1.433 . S
C1542 H1538 0.929 . S
C1542 C1544 1.378 . S
C1542 C1546 1.350 . S
C1543 C1546 1.463 . S
C1543 C1548 1.350 . S
C1543 N1551 1.427 1_655 S
C1544 H1535 0.930 . S
C1544 C1542 1.378 . S
C1544 C1545 1.367 . S
C1545 C1544 1.367 . S
C1545 C1547 1.433 . S
C1546 C1542 1.350 . S
C1546 C1543 1.463 . S
C1546 N1550 1.427 . S
C1547 H1537 0.929 . S
C1547 C1545 1.433 . S
C1547 N1550 1.384 . S
C1548 H1539 0.929 . S
C1548 C1540 1.378 1_655 S
C1548 C1543 1.350 . S
C1549 H1536 0.929 . S
C1549 C1541 1.433 . S
C1549 N1551 1.384 . S
N1550 C1546 1.427 . S
N1550 C1547 1.384 . S
N1551 C1543 1.427 1_455 S
N1551 C1549 1.384 . S
H1552 C1558 0.930 . S
H1553 C1562 0.930 . S
H1554 C1567 0.929 . S
H1555 C1565 0.929 . S
H1556 C1560 0.929 . S
H1557 C1566 0.929 . S
C1558 H1552 0.930 . S
C1558 C1559 1.367 . S
C1558 C1566 1.378 . S
C1559 C1558 1.367 . S
C1559 C1567 1.433 . S
C1560 H1556 0.929 . S
C1560 C1562 1.378 . S
C1560 C1564 1.350 . S
C1561 C1564 1.463 . S
C1561 C1566 1.350 . S
C1561 N1569 1.427 . S
C1562 H1553 0.930 . S
C1562 C1560 1.378 . S
C1562 C1563 1.367 . S
C1563 C1562 1.367 . S
C1563 C1565 1.433 . S
C1564 C1560 1.350 . S
C1564 C1561 1.463 . S
C1564 N1568 1.427 . S
C1565 H1555 0.929 . S
C1565 C1563 1.433 . S
C1565 N1568 1.384 . S
C1566 H1557 0.929 . S
C1566 C1558 1.378 . S
C1566 C1561 1.350 . S
C1567 H1554 0.929 . S
C1567 C1559 1.433 . S
C1567 N1569 1.384 . S
N1568 C1564 1.427 . S
N1568 C1565 1.384 . S
N1569 C1561 1.427 . S
N1569 C1567 1.384 . S
H1570 C1576 0.930 . S
H1571 C1580 0.930 . S
H1572 C1585 0.929 . S
H1573 C1583 0.929 . S
H1574 C1578 0.929 . S
H1575 C1584 0.929 . S
C1576 H1570 0.930 . S
C1576 C1577 1.367 . S
C1576 C1584 1.378 . S
C1577 C1576 1.367 . S
C1577 C1585 1.433 . S
C1578 H1574 0.929 . S
C1578 C1580 1.378 . S
C1578 C1582 1.350 . S
C1579 C1582 1.463 . S
C1579 C1584 1.350 . S
C1579 N1587 1.427 . S
C1580 H1571 0.930 . S
C1580 C1578 1.378 . S
C1580 C1581 1.367 . S
C1581 C1580 1.367 . S
C1581 C1583 1.433 . S
C1582 C1578 1.350 . S
C1582 C1579 1.463 . S
C1582 N1586 1.427 . S
C1583 H1573 0.929 . S
C1583 C1581 1.433 . S
C1583 N1586 1.384 . S
C1584 H1575 0.929 . S
C1584 C1576 1.378 . S
C1584 C1579 1.350 . S
C1585 H1572 0.929 . S
C1585 C1577 1.433 . S
C1585 N1587 1.384 . S
N1586 C1582 1.427 . S
N1586 C1583 1.384 . S
N1587 C1579 1.427 . S
N1587 C1585 1.384 . S
H1588 C1594 0.930 . S
H1589 C1598 0.930 . S
H1590 C1603 0.929 . S
H1591 C1601 0.929 . S
H1592 C1596 0.929 . S
H1593 C1602 0.929 . S
C1594 H1588 0.930 . S
C1594 C1595 1.367 . S
C1594 C1602 1.378 . S
C1595 C1594 1.367 . S
C1595 C1603 1.433 . S
C1596 H1592 0.929 . S
C1596 C1598 1.378 . S
C1596 C1600 1.350 . S
C1597 C1600 1.463 . S
C1597 C1602 1.350 . S
C1597 N1605 1.427 . S
C1598 H1589 0.930 . S
C1598 C1596 1.378 . S
C1598 C1599 1.367 . S
C1599 C1598 1.367 . S
C1599 C1601 1.433 . S
C1600 C1596 1.350 . S
C1600 C1597 1.463 . S
C1600 N1604 1.427 . S
C1601 H1591 0.929 . S
C1601 C1599 1.433 . S
C1601 N1604 1.384 . S
C1602 H1593 0.929 . S
C1602 C1594 1.378 . S
C1602 C1597 1.350 . S
C1603 H1590 0.929 . S
C1603 C1595 1.433 . S
C1603 N1605 1.384 . S
N1604 C1600 1.427 . S
N1604 C1601 1.384 . S
N1605 C1597 1.427 . S
N1605 C1603 1.384 . S
H1606 C1612 0.930 . S
H1607 C1616 0.930 . S
H1608 C1621 0.929 . S
H1609 C1619 0.929 . S
H1610 C1614 0.929 . S
H1611 C1620 0.929 . S
C1612 H1606 0.930 . S
C1612 C1613 1.367 . S
C1612 C1620 1.378 . S
C1613 C1612 1.367 . S
C1613 C1621 1.433 . S
C1614 H1610 0.929 . S
C1614 C1616 1.378 . S
C1614 C1618 1.350 . S
C1615 C1618 1.463 . S
C1615 C1620 1.350 . S
C1615 N1623 1.427 . S
C1616 H1607 0.930 . S
C1616 C1614 1.378 . S
C1616 C1617 1.367 . S
C1617 C1616 1.367 . S
C1617 C1619 1.433 . S
C1618 C1614 1.350 . S
C1618 C1615 1.463 . S
C1618 N1622 1.427 . S
C1619 H1609 0.929 . S
C1619 C1617 1.433 . S
C1619 N1622 1.384 . S
C1620 H1611 0.929 . S
C1620 C1612 1.378 . S
C1620 C1615 1.350 . S
C1621 H1608 0.929 . S
C1621 C1613 1.433 . S
C1621 N1623 1.384 . S
N1622 C1618 1.427 . S
N1622 C1619 1.384 . S
N1623 C1615 1.427 . S
N1623 C1621 1.384 . S
H1624 C1630 0.930 . S
H1625 C1634 0.930 . S
H1626 C1639 0.929 . S
H1627 C1637 0.929 . S
H1628 C1632 0.929 . S
H1629 C1638 0.929 . S
C1630 H1624 0.930 . S
C1630 C1631 1.367 . S
C1630 C1638 1.378 . S
C1631 C1630 1.367 . S
C1631 C1639 1.433 . S
C1632 H1628 0.929 . S
C1632 C1634 1.378 . S
C1632 C1636 1.350 . S
C1633 C1636 1.463 . S
C1633 C1638 1.350 . S
C1633 N1641 1.427 . S
C1634 H1625 0.930 . S
C1634 C1632 1.378 . S
C1634 C1635 1.367 . S
C1635 C1634 1.367 . S
C1635 C1637 1.433 . S
C1636 C1632 1.350 . S
C1636 C1633 1.463 . S
C1636 N1640 1.427 . S
C1637 H1627 0.929 . S
C1637 C1635 1.433 . S
C1637 N1640 1.384 . S
C1638 H1629 0.929 . S
C1638 C1630 1.378 . S
C1638 C1633 1.350 . S
C1639 H1626 0.929 . S
C1639 C1631 1.433 . S
C1639 N1641 1.384 . S
N1640 C1636 1.427 . S
N1640 C1637 1.384 . S
N1641 C1633 1.427 . S
N1641 C1639 1.384 . S
H1642 C1648 0.930 . S
H1643 C1652 0.930 . S
H1644 C1657 0.929 . S
H1645 C1655 0.929 . S
H1646 C1650 0.929 . S
H1647 C1656 0.929 . S
C1648 H1642 0.930 . S
C1648 C1649 1.367 . S
C1648 C1656 1.378 . S
C1649 C1648 1.367 . S
C1649 C1657 1.433 . S
C1650 H1646 0.929 . S
C1650 C1652 1.378 . S
C1650 C1654 1.350 . S
C1651 C1654 1.463 . S
C1651 C1656 1.350 . S
C1651 N1659 1.427 . S
C1652 H1643 0.930 . S
C1652 C1650 1.378 . S
C1652 C1653 1.367 . S
C1653 C1652 1.367 . S
C1653 C1655 1.433 . S
C1654 C1650 1.350 . S
C1654 C1651 1.463 . S
C1654 N1658 1.427 . S
C1655 H1645 0.929 . S
C1655 C1653 1.433 . S
C1655 N1658 1.384 . S
C1656 H1647 0.929 . S
C1656 C1648 1.378 . S
C1656 C1651 1.350 . S
C1657 H1644 0.929 . S
C1657 C1649 1.433 . S
C1657 N1659 1.384 . S
N1658 C1654 1.427 . S
N1658 C1655 1.384 . S
N1659 C1651 1.427 . S
N1659 C1657 1.384 . S
H1660 C1666 0.930 . S
H1661 C1670 0.930 . S
H1662 C1675 0.929 . S
H1663 C1673 0.929 . S
H1664 C1668 0.929 . S
H1665 C1674 0.929 . S
C1666 H1660 0.930 . S
C1666 C1667 1.367 . S
C1666 C1674 1.378 . S
C1667 C1666 1.367 . S
C1667 C1675 1.433 . S
C1668 H1664 0.929 . S
C1668 C1670 1.378 . S
C1668 C1672 1.350 . S
C1669 C1672 1.463 . S
C1669 C1674 1.350 . S
C1669 N1677 1.427 . S
C1670 H1661 0.930 . S
C1670 C1668 1.378 . S
C1670 C1671 1.367 . S
C1671 C1670 1.367 . S
C1671 C1673 1.433 . S
C1672 C1668 1.350 . S
C1672 C1669 1.463 . S
C1672 N1676 1.427 . S
C1673 H1663 0.929 . S
C1673 C1671 1.433 . S
C1673 N1676 1.384 . S
C1674 H1665 0.929 . S
C1674 C1666 1.378 . S
C1674 C1669 1.350 . S
C1675 H1662 0.929 . S
C1675 C1667 1.433 . S
C1675 N1677 1.384 . S
N1676 C1672 1.427 . S
N1676 C1673 1.384 . S
N1677 C1669 1.427 . S
N1677 C1675 1.384 . S
H1678 C1684 0.930 . S
H1679 C1688 0.930 . S
H1680 C1693 0.929 . S
H1681 C1691 0.929 . S
H1682 C1686 0.929 . S
H1683 C1692 0.929 . S
C1684 H1678 0.930 . S
C1684 C1685 1.367 . S
C1684 C1692 1.378 . S
C1685 C1684 1.367 . S
C1685 C1693 1.433 . S
C1686 H1682 0.929 . S
C1686 C1688 1.378 . S
C1686 C1690 1.350 . S
C1687 C1690 1.463 . S
C1687 C1692 1.350 . S
C1687 N1695 1.427 . S
C1688 H1679 0.930 . S
C1688 C1686 1.378 . S
C1688 C1689 1.367 . S
C1689 C1688 1.367 . S
C1689 C1691 1.433 . S
C1690 C1686 1.350 . S
C1690 C1687 1.463 . S
C1690 N1694 1.427 . S
C1691 H1681 0.929 . S
C1691 C1689 1.433 . S
C1691 N1694 1.384 . S
C1692 H1683 0.929 . S
C1692 C1684 1.378 . S
C1692 C1687 1.350 . S
C1693 H1680 0.929 . S
C1693 C1685 1.433 . S
C1693 N1695 1.384 . S
N1694 C1690 1.427 . S
N1694 C1691 1.384 . S
N1695 C1687 1.427 . S
N1695 C1693 1.384 . S
H1696 C1702 0.930 . S
H1697 C1706 0.930 . S
H1698 C1711 0.929 . S
H1699 C1709 0.898 1_554 S
H1700 C1704 0.929 . S
H1701 C1710 0.929 . S
C1702 H1696 0.930 . S
C1702 C1703 1.363 1_554 S
C1702 C1710 1.378 . S
C1703 C1702 1.363 1_556 S
C1703 C1711 1.438 . S
C1704 H1700 0.929 . S
C1704 C1706 1.378 . S
C1704 C1708 1.350 . S
C1705 C1708 1.463 . S
C1705 C1710 1.350 1_556 S
C1705 N1713 1.427 . S
C1706 H1697 0.930 . S
C1706 C1704 1.378 . S
C1706 C1707 1.367 . S
C1707 C1706 1.367 . S
C1707 C1709 1.433 . S
C1708 C1704 1.350 . S
C1708 C1705 1.463 . S
C1708 N1712 1.427 . S
C1709 H1699 0.898 1_556 S
C1709 C1707 1.433 . S
C1709 N1712 1.384 . S
C1710 H1701 0.929 . S
C1710 C1702 1.378 . S
C1710 C1705 1.350 1_554 S
C1711 H1698 0.929 . S
C1711 C1703 1.438 . S
C1711 N1713 1.384 . S
N1712 C1708 1.427 . S
N1712 C1709 1.384 . S
N1713 C1705 1.427 . S
N1713 C1711 1.384 . S
H1714 C1720 0.930 . S
H1715 C1724 0.930 . S
H1716 C1729 0.929 . S
H1717 C1727 0.929 1_556 S
H1718 C1722 0.929 . S
H1719 C1728 0.929 . S
C1720 H1714 0.930 . S
C1720 C1721 1.367 . S
C1720 C1728 1.378 . S
C1721 C1720 1.367 . S
C1721 C1729 1.433 . S
C1722 H1718 0.929 . S
C1722 C1724 1.378 . S
C1722 C1726 1.350 . S
C1723 C1726 1.463 . S
C1723 C1728 1.350 . S
C1723 N1731 1.427 . S
C1724 H1715 0.930 . S
C1724 C1722 1.378 . S
C1724 C1725 1.367 . S
C1725 C1724 1.367 . S
C1725 C1727 1.433 . S
C1726 C1722 1.350 . S
C1726 C1723 1.463 . S
C1726 N1730 1.427 . S
C1727 H1717 0.929 1_554 S
C1727 C1725 1.433 . S
C1727 N1730 1.384 . S
C1728 H1719 0.929 . S
C1728 C1720 1.378 . S
C1728 C1723 1.350 . S
C1729 H1716 0.929 . S
C1729 C1721 1.433 . S
C1729 N1731 1.384 . S
N1730 C1726 1.427 . S
N1730 C1727 1.384 . S
N1731 C1723 1.427 . S
N1731 C1729 1.384 . S
H1732 C1738 0.930 . S
H1733 C1742 0.930 . S
H1734 C1747 0.929 . S
H1735 C1745 0.929 . S
H1736 C1740 0.929 . S
H1737 C1746 0.929 . S
C1738 H1732 0.930 . S
C1738 C1739 1.367 . S
C1738 C1746 1.378 . S
C1739 C1738 1.367 . S
C1739 C1747 1.433 . S
C1740 H1736 0.929 . S
C1740 C1742 1.378 . S
C1740 C1744 1.350 . S
C1741 C1744 1.463 . S
C1741 C1746 1.350 . S
C1741 N1749 1.427 . S
C1742 H1733 0.930 . S
C1742 C1740 1.378 . S
C1742 C1743 1.367 . S
C1743 C1742 1.367 . S
C1743 C1745 1.433 . S
C1744 C1740 1.350 . S
C1744 C1741 1.463 . S
C1744 N1748 1.427 . S
C1745 H1735 0.929 . S
C1745 C1743 1.433 . S
C1745 N1748 1.384 . S
C1746 H1737 0.929 . S
C1746 C1738 1.378 . S
C1746 C1741 1.350 . S
C1747 H1734 0.929 . S
C1747 C1739 1.433 . S
C1747 N1749 1.384 . S
N1748 C1744 1.427 . S
N1748 C1745 1.384 . S
N1749 C1741 1.427 . S
N1749 C1747 1.384 . S
H1750 C1756 0.930 . S
H1751 C1760 0.930 . S
H1752 C1765 0.929 . S
H1753 C1763 0.929 . S
H1754 C1758 0.929 . S
H1755 C1764 0.929 . S
C1756 H1750 0.930 . S
C1756 C1757 1.367 . S
C1756 C1764 1.378 . S
C1757 C1756 1.367 . S
C1757 C1765 1.433 . S
C1758 H1754 0.929 . S
C1758 C1760 1.378 . S
C1758 C1762 1.350 . S
C1759 C1762 1.463 . S
C1759 C1764 1.350 . S
C1759 N1767 1.427 . S
C1760 H1751 0.930 . S
C1760 C1758 1.378 . S
C1760 C1761 1.367 . S
C1761 C1760 1.367 . S
C1761 C1763 1.433 . S
C1762 C1758 1.350 . S
C1762 C1759 1.463 . S
C1762 N1766 1.427 . S
C1763 H1753 0.929 . S
C1763 C1761 1.433 . S
C1763 N1766 1.384 . S
C1764 H1755 0.929 . S
C1764 C1756 1.378 . S
C1764 C1759 1.350 . S
C1765 H1752 0.929 . S
C1765 C1757 1.433 . S
C1765 N1767 1.384 . S
N1766 C1762 1.427 . S
N1766 C1763 1.384 . S
N1767 C1759 1.427 . S
N1767 C1765 1.384 . S
H1768 C1774 0.930 . S
H1769 C1778 0.930 . S
H1770 C1783 0.929 . S
H1771 C1781 0.929 . S
H1772 C1776 0.929 . S
H1773 C1782 0.929 . S
C1774 H1768 0.930 . S
C1774 C1775 1.367 . S
C1774 C1782 1.378 . S
C1775 C1774 1.367 . S
C1775 C1783 1.433 . S
C1776 H1772 0.929 . S
C1776 C1778 1.378 . S
C1776 C1780 1.350 . S
C1777 C1780 1.463 . S
C1777 C1782 1.350 . S
C1777 N1785 1.427 . S
C1778 H1769 0.930 . S
C1778 C1776 1.378 . S
C1778 C1779 1.367 . S
C1779 C1778 1.367 . S
C1779 C1781 1.433 . S
C1780 C1776 1.350 . S
C1780 C1777 1.463 . S
C1780 N1784 1.427 . S
C1781 H1771 0.929 . S
C1781 C1779 1.433 . S
C1781 N1784 1.384 . S
C1782 H1773 0.929 . S
C1782 C1774 1.378 . S
C1782 C1777 1.350 . S
C1783 H1770 0.929 . S
C1783 C1775 1.433 . S
C1783 N1785 1.384 . S
N1784 C1780 1.427 . S
N1784 C1781 1.384 . S
N1785 C1777 1.427 . S
N1785 C1783 1.384 . S
H1786 C1792 0.930 . S
H1787 C1796 0.930 . S
H1788 C1801 0.929 . S
H1789 C1799 0.929 . S
H1790 C1794 0.929 . S
H1791 C1800 0.929 . S
C1792 H1786 0.930 . S
C1792 C1793 1.367 . S
C1792 C1800 1.378 . S
C1793 C1792 1.367 . S
C1793 C1801 1.433 . S
C1794 H1790 0.929 . S
C1794 C1796 1.378 . S
C1794 C1798 1.350 1_545 S
C1795 C1798 1.463 . S
C1795 C1800 1.350 . S
C1795 N1803 1.427 . S
C1796 H1787 0.930 . S
C1796 C1794 1.378 . S
C1796 C1797 1.367 . S
C1797 C1796 1.367 . S
C1797 C1799 1.433 1_545 S
C1798 C1794 1.350 1_565 S
C1798 C1795 1.463 . S
C1798 N1802 1.427 . S
C1799 H1789 0.929 . S
C1799 C1797 1.433 1_565 S
C1799 N1802 1.384 . S
C1800 H1791 0.929 . S
C1800 C1792 1.378 . S
C1800 C1795 1.350 . S
C1801 H1788 0.929 . S
C1801 C1793 1.433 . S
C1801 N1803 1.384 . S
N1802 C1798 1.427 . S
N1802 C1799 1.384 . S
N1803 C1795 1.427 . S
N1803 C1801 1.384 . S
H1804 C1810 0.930 . S
H1805 C1814 0.930 . S
H1806 C1819 0.929 . S
H1807 C1817 0.929 . S
H1808 C1812 0.929 . S
H1809 C1818 0.929 . S
C1810 H1804 0.930 . S
C1810 C1811 1.367 . S
C1810 C1818 1.378 . S
C1811 C1810 1.367 . S
C1811 C1819 1.433 . S
C1812 H1808 0.929 . S
C1812 C1814 1.378 . S
C1812 C1816 1.350 . S
C1813 C1816 1.463 . S
C1813 C1818 1.350 . S
C1813 N1821 1.427 . S
C1814 H1805 0.930 . S
C1814 C1812 1.378 . S
C1814 C1815 1.367 . S
C1815 C1814 1.367 . S
C1815 C1817 1.433 . S
C1816 C1812 1.350 . S
C1816 C1813 1.463 . S
C1816 N1820 1.427 . S
C1817 H1807 0.929 . S
C1817 C1815 1.433 . S
C1817 N1820 1.384 . S
C1818 H1809 0.929 . S
C1818 C1810 1.378 . S
C1818 C1813 1.350 . S
C1819 H1806 0.929 . S
C1819 C1811 1.433 . S
C1819 N1821 1.384 . S
N1820 C1816 1.427 . S
N1820 C1817 1.384 . S
N1821 C1813 1.427 . S
N1821 C1819 1.384 . S
H1822 C1828 0.930 . S
H1823 C1832 0.930 . S
H1824 C1837 0.929 . S
H1825 C1835 0.929 . S
H1826 C1830 0.929 . S
H1827 C1836 0.929 . S
C1828 H1822 0.930 . S
C1828 C1829 1.367 . S
C1828 C1836 1.378 . S
C1829 C1828 1.367 . S
C1829 C1837 1.433 . S
C1830 H1826 0.929 . S
C1830 C1832 1.378 . S
C1830 C1834 1.350 . S
C1831 C1834 1.463 . S
C1831 C1836 1.350 . S
C1831 N1839 1.427 . S
C1832 H1823 0.930 . S
C1832 C1830 1.378 . S
C1832 C1833 1.367 . S
C1833 C1832 1.367 . S
C1833 C1835 1.433 . S
C1834 C1830 1.350 . S
C1834 C1831 1.463 . S
C1834 N1838 1.427 . S
C1835 H1825 0.929 . S
C1835 C1833 1.433 . S
C1835 N1838 1.384 . S
C1836 H1827 0.929 . S
C1836 C1828 1.378 . S
C1836 C1831 1.350 . S
C1837 H1824 0.929 . S
C1837 C1829 1.433 . S
C1837 N1839 1.384 . S
N1838 C1834 1.427 . S
N1838 C1835 1.384 . S
N1839 C1831 1.427 . S
N1839 C1837 1.384 . S
H1840 C1846 0.930 . S
H1841 C1850 0.930 . S
H1842 C1855 0.929 . S
H1843 C1853 0.929 . S
H1844 C1848 0.929 . S
H1845 C1854 0.929 . S
C1846 H1840 0.930 . S
C1846 C1847 1.367 . S
C1846 C1854 1.378 . S
C1847 C1846 1.367 . S
C1847 C1855 1.433 . S
C1848 H1844 0.929 . S
C1848 C1850 1.378 . S
C1848 C1852 1.350 . S
C1849 C1852 1.463 . S
C1849 C1854 1.350 . S
C1849 N1857 1.427 . S
C1850 H1841 0.930 . S
C1850 C1848 1.378 . S
C1850 C1851 1.367 . S
C1851 C1850 1.367 . S
C1851 C1853 1.433 . S
C1852 C1848 1.350 . S
C1852 C1849 1.463 . S
C1852 N1856 1.427 . S
C1853 H1843 0.929 . S
C1853 C1851 1.433 . S
C1853 N1856 1.384 . S
C1854 H1845 0.929 . S
C1854 C1846 1.378 . S
C1854 C1849 1.350 . S
C1855 H1842 0.929 . S
C1855 C1847 1.433 . S
C1855 N1857 1.384 . S
N1856 C1852 1.427 . S
N1856 C1853 1.384 . S
N1857 C1849 1.427 . S
N1857 C1855 1.384 . S
H1858 C1864 0.930 . S
H1859 C1868 0.930 . S
H1860 C1873 0.929 . S
H1861 C1871 0.929 . S
H1862 C1866 0.929 . S
H1863 C1872 0.929 . S
C1864 H1858 0.930 . S
C1864 C1865 1.367 . S
C1864 C1872 1.378 . S
C1865 C1864 1.367 . S
C1865 C1873 1.433 . S
C1866 H1862 0.929 . S
C1866 C1868 1.378 . S
C1866 C1870 1.350 . S
C1867 C1870 1.463 . S
C1867 C1872 1.350 . S
C1867 N1875 1.427 . S
C1868 H1859 0.930 . S
C1868 C1866 1.378 . S
C1868 C1869 1.367 . S
C1869 C1868 1.367 . S
C1869 C1871 1.433 . S
C1870 C1866 1.350 . S
C1870 C1867 1.463 . S
C1870 N1874 1.427 . S
C1871 H1861 0.929 . S
C1871 C1869 1.433 . S
C1871 N1874 1.384 . S
C1872 H1863 0.929 . S
C1872 C1864 1.378 . S
C1872 C1867 1.350 . S
C1873 H1860 0.929 . S
C1873 C1865 1.433 . S
C1873 N1875 1.384 . S
N1874 C1870 1.427 . S
N1874 C1871 1.384 . S
N1875 C1867 1.427 . S
N1875 C1873 1.384 . S
H1876 C1882 0.930 . S
H1877 C1886 0.930 . S
H1878 C1891 0.929 . S
H1879 C1889 0.929 . S
H1880 C1884 0.929 . S
H1881 C1890 0.929 . S
C1882 H1876 0.930 . S
C1882 C1883 1.367 . S
C1882 C1890 1.378 . S
C1883 C1882 1.367 . S
C1883 C1891 1.433 . S
C1884 H1880 0.929 . S
C1884 C1886 1.378 . S
C1884 C1888 1.350 1_554 S
C1885 C1888 1.463 . S
C1885 C1890 1.350 . S
C1885 N1893 1.427 . S
C1886 H1877 0.930 . S
C1886 C1884 1.378 . S
C1886 C1887 1.367 . S
C1887 C1886 1.367 . S
C1887 C1889 1.433 1_554 S
C1888 C1884 1.350 1_556 S
C1888 C1885 1.463 . S
C1888 N1892 1.427 . S
C1889 H1879 0.929 . S
C1889 C1887 1.433 1_556 S
C1889 N1892 1.384 . S
C1890 H1881 0.929 . S
C1890 C1882 1.378 . S
C1890 C1885 1.350 . S
C1891 H1878 0.929 . S
C1891 C1883 1.433 . S
C1891 N1893 1.384 . S
N1892 C1888 1.427 . S
N1892 C1889 1.384 . S
N1893 C1885 1.427 . S
N1893 C1891 1.384 . S
H1894 C1900 0.930 . S
H1895 C1904 0.930 . S
H1896 C1909 0.929 . S
H1897 C1907 0.929 . S
H1898 C1902 0.929 . S
H1899 C1908 0.929 . S
C1900 H1894 0.930 . S
C1900 C1901 1.367 . S
C1900 C1908 1.378 1_455 S
C1901 C1900 1.367 . S
C1901 C1909 1.433 . S
C1902 H1898 0.929 . S
C1902 C1904 1.378 . S
C1902 C1906 1.350 . S
C1903 C1906 1.463 . S
C1903 C1908 1.350 . S
C1903 N1911 1.427 . S
C1904 H1895 0.930 . S
C1904 C1902 1.378 . S
C1904 C1905 1.367 . S
C1905 C1904 1.367 . S
C1905 C1907 1.433 . S
C1906 C1902 1.350 . S
C1906 C1903 1.463 . S
C1906 N1910 1.427 . S
C1907 H1897 0.929 . S
C1907 C1905 1.433 . S
C1907 N1910 1.384 . S
C1908 H1899 0.929 . S
C1908 C1900 1.378 1_655 S
C1908 C1903 1.350 . S
C1909 H1896 0.929 . S
C1909 C1901 1.433 . S
C1909 N1911 1.384 1_455 S
N1910 C1906 1.427 . S
N1910 C1907 1.384 . S
N1911 C1903 1.427 . S
N1911 C1909 1.384 1_655 S
H1912 C1918 0.930 . S
H1913 C1922 0.930 . S
H1914 C1927 0.929 . S
H1915 C1925 0.929 . S
H1916 C1920 0.929 . S
H1917 C1926 0.929 . S
C1918 H1912 0.930 . S
C1918 C1919 1.367 . S
C1918 C1926 1.378 . S
C1919 C1918 1.367 . S
C1919 C1927 1.433 . S
C1920 H1916 0.929 . S
C1920 C1922 1.378 . S
C1920 C1924 1.350 . S
C1921 C1924 1.463 . S
C1921 C1926 1.350 . S
C1921 N1929 1.427 . S
C1922 H1913 0.930 . S
C1922 C1920 1.378 . S
C1922 C1923 1.367 . S
C1923 C1922 1.367 . S
C1923 C1925 1.433 . S
C1924 C1920 1.350 . S
C1924 C1921 1.463 . S
C1924 N1928 1.427 . S
C1925 H1915 0.929 . S
C1925 C1923 1.433 . S
C1925 N1928 1.384 . S
C1926 H1917 0.929 . S
C1926 C1918 1.378 . S
C1926 C1921 1.350 . S
C1927 H1914 0.929 . S
C1927 C1919 1.433 . S
C1927 N1929 1.384 . S
N1928 C1924 1.427 . S
N1928 C1925 1.384 . S
N1929 C1921 1.427 . S
N1929 C1927 1.384 . S
H1930 C1936 0.930 . S
H1931 C1940 0.930 . S
H1932 C1945 0.929 . S
H1933 C1943 0.929 . S
H1934 C1938 0.929 . S
H1935 C1944 0.929 . S
C1936 H1930 0.930 . S
C1936 C1937 1.367 . S
C1936 C1944 1.378 . S
C1937 C1936 1.367 . S
C1937 C1945 1.433 . S
C1938 H1934 0.929 . S
C1938 C1940 1.378 . S
C1938 C1942 1.350 . S
C1939 C1942 1.463 . S
C1939 C1944 1.350 . S
C1939 N1947 1.427 . S
C1940 H1931 0.930 . S
C1940 C1938 1.378 . S
C1940 C1941 1.367 . S
C1941 C1940 1.367 . S
C1941 C1943 1.433 . S
C1942 C1938 1.350 . S
C1942 C1939 1.463 . S
C1942 N1946 1.427 . S
C1943 H1933 0.929 . S
C1943 C1941 1.433 . S
C1943 N1946 1.384 . S
C1944 H1935 0.929 . S
C1944 C1936 1.378 . S
C1944 C1939 1.350 . S
C1945 H1932 0.929 . S
C1945 C1937 1.433 . S
C1945 N1947 1.384 . S
N1946 C1942 1.427 . S
N1946 C1943 1.384 . S
N1947 C1939 1.427 . S
N1947 C1945 1.384 . S
H1948 C1954 0.930 . S
H1949 C1958 0.930 . S
H1950 C1963 0.929 . S
H1951 C1961 0.929 . S
H1952 C1956 0.929 . S
H1953 C1962 0.929 . S
C1954 H1948 0.930 . S
C1954 C1955 1.367 . S
C1954 C1962 1.378 . S
C1955 C1954 1.367 . S
C1955 C1963 1.433 . S
C1956 H1952 0.929 . S
C1956 C1958 1.378 . S
C1956 C1960 1.350 . S
C1957 C1960 1.463 . S
C1957 C1962 1.350 . S
C1957 N1965 1.427 . S
C1958 H1949 0.930 . S
C1958 C1956 1.378 . S
C1958 C1959 1.367 . S
C1959 C1958 1.367 . S
C1959 C1961 1.433 . S
C1960 C1956 1.350 . S
C1960 C1957 1.463 . S
C1960 N1964 1.427 . S
C1961 H1951 0.929 . S
C1961 C1959 1.433 . S
C1961 N1964 1.384 . S
C1962 H1953 0.929 . S
C1962 C1954 1.378 . S
C1962 C1957 1.350 . S
C1963 H1950 0.929 . S
C1963 C1955 1.433 . S
C1963 N1965 1.384 . S
N1964 C1960 1.427 . S
N1964 C1961 1.384 . S
N1965 C1957 1.427 . S
N1965 C1963 1.384 . S
H1966 C1972 0.930 . S
H1967 C1976 0.930 . S
H1968 C1981 0.929 . S
H1969 C1979 0.929 . S
H1970 C1974 0.929 . S
H1971 C1980 0.929 . S
C1972 H1966 0.930 . S
C1972 C1973 1.367 . S
C1972 C1980 1.378 . S
C1973 C1972 1.367 . S
C1973 C1981 1.433 . S
C1974 H1970 0.929 . S
C1974 C1976 1.378 . S
C1974 C1978 1.350 . S
C1975 C1978 1.463 . S
C1975 C1980 1.350 . S
C1975 N1983 1.427 . S
C1976 H1967 0.930 . S
C1976 C1974 1.378 . S
C1976 C1977 1.367 . S
C1977 C1976 1.367 . S
C1977 C1979 1.433 . S
C1978 C1974 1.350 . S
C1978 C1975 1.463 . S
C1978 N1982 1.427 . S
C1979 H1969 0.929 . S
C1979 C1977 1.433 . S
C1979 N1982 1.384 . S
C1980 H1971 0.929 . S
C1980 C1972 1.378 . S
C1980 C1975 1.350 . S
C1981 H1968 0.929 . S
C1981 C1973 1.433 . S
C1981 N1983 1.384 . S
N1982 C1978 1.427 . S
N1982 C1979 1.384 . S
N1983 C1975 1.427 . S
N1983 C1981 1.384 . S
H1984 C1990 0.930 . S
H1985 C1994 0.930 . S
H1986 C1999 0.929 . S
H1987 C1997 0.929 . S
H1988 C1992 0.929 . S
H1989 C1998 0.929 . S
C1990 H1984 0.930 . S
C1990 C1991 1.367 . S
C1990 C1998 1.378 . S
C1991 C1990 1.367 . S
C1991 C1999 1.433 . S
C1992 H1988 0.929 . S
C1992 C1994 1.378 . S
C1992 C1996 1.350 . S
C1993 C1996 1.463 . S
C1993 C1998 1.350 . S
C1993 N2001 1.427 . S
C1994 H1985 0.930 . S
C1994 C1992 1.378 . S
C1994 C1995 1.367 . S
C1995 C1994 1.367 . S
C1995 C1997 1.433 . S
C1996 C1992 1.350 . S
C1996 C1993 1.463 . S
C1996 N2000 1.427 . S
C1997 H1987 0.929 . S
C1997 C1995 1.433 . S
C1997 N2000 1.384 . S
C1998 H1989 0.929 . S
C1998 C1990 1.378 . S
C1998 C1993 1.350 . S
C1999 H1986 0.929 . S
C1999 C1991 1.433 . S
C1999 N2001 1.384 . S
N2000 C1996 1.427 . S
N2000 C1997 1.384 . S
N2001 C1993 1.427 . S
N2001 C1999 1.384 . S
H2002 C2008 0.930 . S
H2003 C2012 0.930 . S
H2004 C2017 0.929 . S
H2005 C2015 0.929 . S
H2006 C2010 0.929 . S
H2007 C2016 0.929 . S
C2008 H2002 0.930 . S
C2008 C2009 1.367 . S
C2008 C2016 1.378 . S
C2009 C2008 1.367 . S
C2009 C2017 1.433 . S
C2010 H2006 0.929 . S
C2010 C2012 1.378 . S
C2010 C2014 1.350 . S
C2011 C2014 1.463 . S
C2011 C2016 1.350 . S
C2011 N2019 1.427 . S
C2012 H2003 0.930 . S
C2012 C2010 1.378 . S
C2012 C2013 1.367 . S
C2013 C2012 1.367 . S
C2013 C2015 1.433 . S
C2014 C2010 1.350 . S
C2014 C2011 1.463 . S
C2014 N2018 1.427 . S
C2015 H2005 0.929 . S
C2015 C2013 1.433 . S
C2015 N2018 1.384 . S
C2016 H2007 0.929 . S
C2016 C2008 1.378 . S
C2016 C2011 1.350 . S
C2017 H2004 0.929 . S
C2017 C2009 1.433 . S
C2017 N2019 1.384 . S
N2018 C2014 1.427 . S
N2018 C2015 1.384 . S
N2019 C2011 1.427 . S
N2019 C2017 1.384 . S
H2020 C2026 0.930 . S
H2021 C2030 0.930 . S
H2022 C2035 0.929 . S
H2023 C2033 0.929 . S
H2024 C2028 0.929 . S
H2025 C2034 0.929 . S
C2026 H2020 0.930 . S
C2026 C2027 1.367 . S
C2026 C2034 1.378 . S
C2027 C2026 1.367 . S
C2027 C2035 1.433 . S
C2028 H2024 0.929 . S
C2028 C2030 1.378 . S
C2028 C2032 1.350 . S
C2029 C2032 1.463 . S
C2029 C2034 1.350 . S
C2029 N2037 1.427 . S
C2030 H2021 0.930 . S
C2030 C2028 1.378 . S
C2030 C2031 1.367 . S
C2031 C2030 1.367 . S
C2031 C2033 1.433 . S
C2032 C2028 1.350 . S
C2032 C2029 1.463 . S
C2032 N2036 1.427 . S
C2033 H2023 0.929 . S
C2033 C2031 1.433 . S
C2033 N2036 1.384 . S
C2034 H2025 0.929 . S
C2034 C2026 1.378 . S
C2034 C2029 1.350 . S
C2035 H2022 0.929 . S
C2035 C2027 1.433 . S
C2035 N2037 1.384 . S
N2036 C2032 1.427 . S
N2036 C2033 1.384 . S
N2037 C2029 1.427 . S
N2037 C2035 1.384 . S
H2038 C2044 0.930 . S
H2039 C2048 0.930 . S
H2040 C2053 0.929 . S
H2041 C2051 0.929 . S
H2042 C2046 0.929 . S
H2043 C2052 0.929 . S
C2044 H2038 0.930 . S
C2044 C2045 1.367 . S
C2044 C2052 1.378 . S
C2045 C2044 1.367 . S
C2045 C2053 1.433 . S
C2046 H2042 0.929 . S
C2046 C2048 1.378 . S
C2046 C2050 1.350 . S
C2047 C2050 1.463 . S
C2047 C2052 1.350 . S
C2047 N2055 1.427 . S
C2048 H2039 0.930 . S
C2048 C2046 1.378 . S
C2048 C2049 1.367 . S
C2049 C2048 1.367 . S
C2049 C2051 1.433 . S
C2050 C2046 1.350 . S
C2050 C2047 1.463 . S
C2050 N2054 1.427 . S
C2051 H2041 0.929 . S
C2051 C2049 1.433 . S
C2051 N2054 1.384 . S
C2052 H2043 0.929 . S
C2052 C2044 1.378 . S
C2052 C2047 1.350 . S
C2053 H2040 0.929 . S
C2053 C2045 1.433 . S
C2053 N2055 1.384 . S
N2054 C2050 1.427 . S
N2054 C2051 1.384 . S
N2055 C2047 1.427 . S
N2055 C2053 1.384 . S
H2056 C2062 0.930 . S
H2057 C2066 0.930 . S
H2058 C2071 0.929 . S
H2059 C2069 0.929 . S
H2060 C2064 0.929 . S
H2061 C2070 0.929 . S
C2062 H2056 0.930 . S
C2062 C2063 1.367 . S
C2062 C2070 1.378 . S
C2063 C2062 1.367 . S
C2063 C2071 1.433 . S
C2064 H2060 0.929 . S
C2064 C2066 1.378 . S
C2064 C2068 1.350 . S
C2065 C2068 1.463 . S
C2065 C2070 1.350 . S
C2065 N2073 1.427 . S
C2066 H2057 0.930 . S
C2066 C2064 1.378 . S
C2066 C2067 1.367 . S
C2067 C2066 1.367 . S
C2067 C2069 1.433 . S
C2068 C2064 1.350 . S
C2068 C2065 1.463 . S
C2068 N2072 1.427 . S
C2069 H2059 0.929 . S
C2069 C2067 1.433 . S
C2069 N2072 1.384 . S
C2070 H2061 0.929 . S
C2070 C2062 1.378 . S
C2070 C2065 1.350 . S
C2071 H2058 0.929 . S
C2071 C2063 1.433 . S
C2071 N2073 1.384 . S
N2072 C2068 1.427 . S
N2072 C2069 1.384 . S
N2073 C2065 1.427 . S
N2073 C2071 1.384 . S
H2074 C2080 0.930 . S
H2075 C2084 0.930 . S
H2076 C2089 0.929 . S
H2077 C2087 0.929 . S
H2078 C2082 0.929 . S
H2079 C2088 0.929 . S
C2080 H2074 0.930 . S
C2080 C2081 1.367 . S
C2080 C2088 1.378 . S
C2081 C2080 1.367 . S
C2081 C2089 1.433 . S
C2082 H2078 0.929 . S
C2082 C2084 1.378 . S
C2082 C2086 1.350 . S
C2083 C2086 1.463 . S
C2083 C2088 1.350 . S
C2083 N2091 1.427 . S
C2084 H2075 0.930 . S
C2084 C2082 1.378 . S
C2084 C2085 1.367 . S
C2085 C2084 1.367 . S
C2085 C2087 1.433 . S
C2086 C2082 1.350 . S
C2086 C2083 1.463 . S
C2086 N2090 1.427 . S
C2087 H2077 0.929 . S
C2087 C2085 1.433 . S
C2087 N2090 1.384 . S
C2088 H2079 0.929 . S
C2088 C2080 1.378 . S
C2088 C2083 1.350 . S
C2089 H2076 0.929 . S
C2089 C2081 1.433 . S
C2089 N2091 1.384 . S
N2090 C2086 1.427 . S
N2090 C2087 1.384 . S
N2091 C2083 1.427 . S
N2091 C2089 1.384 . S
H2092 C2098 0.930 . S
H2093 C2102 0.930 . S
H2094 C2107 0.929 . S
H2095 C2105 0.929 . S
H2096 C2100 0.929 . S
H2097 C2106 0.929 . S
C2098 H2092 0.930 . S
C2098 C2099 1.367 . S
C2098 C2106 1.378 . S
C2099 C2098 1.367 . S
C2099 C2107 1.433 . S
C2100 H2096 0.929 . S
C2100 C2102 1.378 . S
C2100 C2104 1.350 . S
C2101 C2104 1.463 . S
C2101 C2106 1.350 . S
C2101 N2109 1.427 . S
C2102 H2093 0.930 . S
C2102 C2100 1.378 . S
C2102 C2103 1.367 . S
C2103 C2102 1.367 . S
C2103 C2105 1.433 . S
C2104 C2100 1.350 . S
C2104 C2101 1.463 . S
C2104 N2108 1.427 . S
C2105 H2095 0.929 . S
C2105 C2103 1.433 . S
C2105 N2108 1.384 . S
C2106 H2097 0.929 . S
C2106 C2098 1.378 . S
C2106 C2101 1.350 . S
C2107 H2094 0.929 . S
C2107 C2099 1.433 . S
C2107 N2109 1.384 . S
N2108 C2104 1.427 . S
N2108 C2105 1.384 . S
N2109 C2101 1.427 . S
N2109 C2107 1.384 . S
H2110 C2116 0.930 . S
H2111 C2120 0.930 . S
H2112 C2125 0.929 . S
H2113 C2123 0.929 . S
H2114 C2118 0.929 . S
H2115 C2124 0.929 . S
C2116 H2110 0.930 . S
C2116 C2117 1.367 . S
C2116 C2124 1.378 . S
C2117 C2116 1.367 . S
C2117 C2125 1.433 . S
C2118 H2114 0.929 . S
C2118 C2120 1.378 . S
C2118 C2122 1.350 . S
C2119 C2122 1.463 . S
C2119 C2124 1.350 . S
C2119 N2127 1.427 . S
C2120 H2111 0.930 . S
C2120 C2118 1.378 . S
C2120 C2121 1.367 . S
C2121 C2120 1.367 . S
C2121 C2123 1.433 . S
C2122 C2118 1.350 . S
C2122 C2119 1.463 . S
C2122 N2126 1.427 . S
C2123 H2113 0.929 . S
C2123 C2121 1.433 . S
C2123 N2126 1.384 . S
C2124 H2115 0.929 . S
C2124 C2116 1.378 . S
C2124 C2119 1.350 . S
C2125 H2112 0.929 . S
C2125 C2117 1.433 . S
C2125 N2127 1.384 . S
N2126 C2122 1.427 . S
N2126 C2123 1.384 . S
N2127 C2119 1.427 . S
N2127 C2125 1.384 . S
H2128 C2134 0.930 . S
H2129 C2138 0.930 . S
H2130 C2143 0.929 . S
H2131 C2141 0.929 . S
H2132 C2136 0.929 . S
H2133 C2142 0.929 . S
C2134 H2128 0.930 . S
C2134 C2135 1.367 . S
C2134 C2142 1.378 . S
C2135 C2134 1.367 . S
C2135 C2143 1.433 . S
C2136 H2132 0.929 . S
C2136 C2138 1.378 . S
C2136 C2140 1.350 . S
C2137 C2140 1.463 . S
C2137 C2142 1.350 . S
C2137 N2145 1.427 . S
C2138 H2129 0.930 . S
C2138 C2136 1.378 . S
C2138 C2139 1.367 . S
C2139 C2138 1.367 . S
C2139 C2141 1.433 . S
C2140 C2136 1.350 . S
C2140 C2137 1.463 . S
C2140 N2144 1.427 . S
C2141 H2131 0.929 . S
C2141 C2139 1.433 . S
C2141 N2144 1.384 . S
C2142 H2133 0.929 . S
C2142 C2134 1.378 . S
C2142 C2137 1.350 . S
C2143 H2130 0.929 . S
C2143 C2135 1.433 . S
C2143 N2145 1.384 . S
N2144 C2140 1.427 . S
N2144 C2141 1.384 . S
N2145 C2137 1.427 . S
N2145 C2143 1.384 . S
H2146 C2152 0.930 . S
H2147 C2156 0.930 . S
H2148 C2161 0.929 . S
H2149 C2159 0.929 . S
H2150 C2154 0.929 . S
H2151 C2160 0.929 . S
C2152 H2146 0.930 . S
C2152 C2153 1.367 . S
C2152 C2160 1.378 . S
C2153 C2152 1.367 . S
C2153 C2161 1.433 . S
C2154 H2150 0.929 . S
C2154 C2156 1.378 . S
C2154 C2158 1.350 . S
C2155 C2158 1.463 . S
C2155 C2160 1.350 . S
C2155 N2163 1.427 . S
C2156 H2147 0.930 . S
C2156 C2154 1.378 . S
C2156 C2157 1.367 . S
C2157 C2156 1.367 . S
C2157 C2159 1.433 . S
C2158 C2154 1.350 . S
C2158 C2155 1.463 . S
C2158 N2162 1.427 . S
C2159 H2149 0.929 . S
C2159 C2157 1.433 . S
C2159 N2162 1.384 . S
C2160 H2151 0.929 . S
C2160 C2152 1.378 . S
C2160 C2155 1.350 . S
C2161 H2148 0.929 . S
C2161 C2153 1.433 . S
C2161 N2163 1.384 . S
N2162 C2158 1.427 . S
N2162 C2159 1.384 . S
N2163 C2155 1.427 . S
N2163 C2161 1.384 . S
H2164 C2170 0.930 . S
H2165 C2174 0.930 . S
H2166 C2179 0.929 . S
H2167 C2177 0.929 . S
H2168 C2172 0.929 . S
H2169 C2178 0.929 . S
C2170 H2164 0.930 . S
C2170 C2171 1.367 . S
C2170 C2178 1.378 . S
C2171 C2170 1.367 . S
C2171 C2179 1.433 . S
C2172 H2168 0.929 . S
C2172 C2174 1.378 . S
C2172 C2176 1.361 . S
C2173 C2176 1.444 1_545 S
C2173 C2178 1.350 . S
C2173 N2181 1.427 . S
C2174 H2165 0.930 . S
C2174 C2172 1.378 . S
C2174 C2175 1.367 . S
C2175 C2174 1.367 . S
C2175 C2177 1.433 . S
C2176 C2172 1.361 . S
C2176 C2173 1.444 1_565 S
C2176 N2180 1.433 1_565 S
C2177 H2167 0.929 . S
C2177 C2175 1.433 . S
C2177 N2180 1.387 1_565 S
C2178 H2169 0.929 . S
C2178 C2170 1.378 . S
C2178 C2173 1.350 . S
C2179 H2166 0.929 . S
C2179 C2171 1.433 . S
C2179 N2181 1.384 . S
N2180 C2176 1.433 1_545 S
N2180 C2177 1.387 1_545 S
N2181 C2173 1.427 . S
N2181 C2179 1.384 . S
H2182 C2188 0.930 . S
H2183 C2192 0.930 . S
H2184 C2197 0.929 . S
H2185 C2195 0.929 . S
H2186 C2190 0.929 . S
H2187 C2196 0.930 . S
C2188 H2182 0.930 . S
C2188 C2189 1.367 . S
C2188 C2196 1.370 1_565 S
C2189 C2188 1.367 . S
C2189 C2197 1.433 . S
C2190 H2186 0.929 . S
C2190 C2192 1.378 . S
C2190 C2194 1.350 . S
C2191 C2194 1.463 . S
C2191 C2196 1.357 . S
C2191 N2199 1.427 1_545 S
C2192 H2183 0.930 . S
C2192 C2190 1.378 . S
C2192 C2193 1.367 . S
C2193 C2192 1.367 . S
C2193 C2195 1.433 . S
C2194 C2190 1.350 . S
C2194 C2191 1.463 . S
C2194 N2198 1.427 . S
C2195 H2185 0.929 . S
C2195 C2193 1.433 . S
C2195 N2198 1.384 . S
C2196 H2187 0.930 . S
C2196 C2188 1.370 1_545 S
C2196 C2191 1.357 . S
C2197 H2184 0.929 . S
C2197 C2189 1.433 . S
C2197 N2199 1.391 . S
N2198 C2194 1.427 . S
N2198 C2195 1.384 . S
N2199 C2191 1.427 1_565 S
N2199 C2197 1.391 . S
H2200 C2206 0.930 . S
H2201 C2210 0.930 . S
H2202 C2215 0.929 . S
H2203 C2213 0.929 . S
H2204 C2208 0.929 . S
H2205 C2214 0.929 . S
C2206 H2200 0.930 . S
C2206 C2207 1.367 . S
C2206 C2214 1.378 . S
C2207 C2206 1.367 . S
C2207 C2215 1.433 . S
C2208 H2204 0.929 . S
C2208 C2210 1.378 . S
C2208 C2212 1.350 . S
C2209 C2212 1.463 . S
C2209 C2214 1.350 . S
C2209 N2217 1.427 . S
C2210 H2201 0.930 . S
C2210 C2208 1.378 . S
C2210 C2211 1.367 . S
C2211 C2210 1.367 . S
C2211 C2213 1.433 . S
C2212 C2208 1.350 . S
C2212 C2209 1.463 . S
C2212 N2216 1.427 . S
C2213 H2203 0.929 . S
C2213 C2211 1.433 . S
C2213 N2216 1.384 . S
C2214 H2205 0.929 . S
C2214 C2206 1.378 . S
C2214 C2209 1.350 . S
C2215 H2202 0.929 . S
C2215 C2207 1.433 . S
C2215 N2217 1.384 . S
N2216 C2212 1.427 . S
N2216 C2213 1.384 . S
N2217 C2209 1.427 . S
N2217 C2215 1.384 . S
H2218 C2224 0.930 . S
H2219 C2228 0.930 . S
H2220 C2233 0.929 . S
H2221 C2231 0.929 . S
H2222 C2226 0.929 . S
H2223 C2232 0.929 . S
C2224 H2218 0.930 . S
C2224 C2225 1.367 . S
C2224 C2232 1.378 . S
C2225 C2224 1.367 . S
C2225 C2233 1.433 . S
C2226 H2222 0.929 . S
C2226 C2228 1.378 . S
C2226 C2230 1.350 . S
C2227 C2230 1.463 . S
C2227 C2232 1.350 . S
C2227 N2235 1.427 . S
C2228 H2219 0.930 . S
C2228 C2226 1.378 . S
C2228 C2229 1.367 . S
C2229 C2228 1.367 . S
C2229 C2231 1.433 . S
C2230 C2226 1.350 . S
C2230 C2227 1.463 . S
C2230 N2234 1.427 . S
C2231 H2221 0.929 . S
C2231 C2229 1.433 . S
C2231 N2234 1.384 . S
C2232 H2223 0.929 . S
C2232 C2224 1.378 . S
C2232 C2227 1.350 . S
C2233 H2220 0.929 . S
C2233 C2225 1.433 . S
C2233 N2235 1.384 . S
N2234 C2230 1.427 . S
N2234 C2231 1.384 . S
N2235 C2227 1.427 . S
N2235 C2233 1.384 . S
H2236 C2242 0.930 . S
H2237 C2246 0.930 . S
H2238 C2251 0.929 . S
H2239 C2249 0.929 . S
H2240 C2244 0.929 . S
H2241 C2250 0.929 . S
C2242 H2236 0.930 . S
C2242 C2243 1.367 . S
C2242 C2250 1.378 . S
C2243 C2242 1.367 . S
C2243 C2251 1.433 . S
C2244 H2240 0.929 . S
C2244 C2246 1.378 . S
C2244 C2248 1.350 . S
C2245 C2248 1.463 . S
C2245 C2250 1.350 . S
C2245 N2253 1.427 . S
C2246 H2237 0.930 . S
C2246 C2244 1.378 . S
C2246 C2247 1.367 . S
C2247 C2246 1.367 . S
C2247 C2249 1.433 . S
C2248 C2244 1.350 . S
C2248 C2245 1.463 . S
C2248 N2252 1.427 . S
C2249 H2239 0.929 . S
C2249 C2247 1.433 . S
C2249 N2252 1.384 . S
C2250 H2241 0.929 . S
C2250 C2242 1.378 . S
C2250 C2245 1.350 . S
C2251 H2238 0.929 . S
C2251 C2243 1.433 . S
C2251 N2253 1.384 . S
N2252 C2248 1.427 . S
N2252 C2249 1.384 . S
N2253 C2245 1.427 . S
N2253 C2251 1.384 . S
H2254 C2260 0.930 . S
H2255 C2264 0.930 . S
H2256 C2269 0.929 . S
H2257 C2267 0.929 1_565 S
H2258 C2262 0.929 . S
H2259 C2268 0.929 . S
C2260 H2254 0.930 . S
C2260 C2261 1.367 . S
C2260 C2268 1.378 . S
C2261 C2260 1.367 . S
C2261 C2269 1.433 . S
C2262 H2258 0.929 . S
C2262 C2264 1.378 1_545 S
C2262 C2266 1.350 . S
C2263 C2266 1.463 . S
C2263 C2268 1.350 . S
C2263 N2271 1.427 . S
C2264 H2255 0.930 . S
C2264 C2262 1.378 1_565 S
C2264 C2265 1.367 . S
C2265 C2264 1.367 . S
C2265 C2267 1.433 1_565 S
C2266 C2262 1.350 . S
C2266 C2263 1.463 . S
C2266 N2270 1.427 . S
C2267 H2257 0.929 1_545 S
C2267 C2265 1.433 1_545 S
C2267 N2270 1.384 . S
C2268 H2259 0.929 . S
C2268 C2260 1.378 . S
C2268 C2263 1.350 . S
C2269 H2256 0.929 . S
C2269 C2261 1.433 . S
C2269 N2271 1.384 . S
N2270 C2266 1.427 . S
N2270 C2267 1.384 . S
N2271 C2263 1.427 . S
N2271 C2269 1.384 . S
H2272 C2278 0.930 . S
H2273 C2282 0.930 . S
H2274 C2287 0.929 . S
H2275 C2285 0.929 . S
H2276 C2280 0.929 . S
H2277 C2286 0.929 . S
C2278 H2272 0.930 . S
C2278 C2279 1.367 . S
C2278 C2286 1.378 . S
C2279 C2278 1.367 . S
C2279 C2287 1.433 . S
C2280 H2276 0.929 . S
C2280 C2282 1.378 . S
C2280 C2284 1.350 . S
C2281 C2284 1.463 . S
C2281 C2286 1.350 . S
C2281 N2289 1.427 . S
C2282 H2273 0.930 . S
C2282 C2280 1.378 . S
C2282 C2283 1.367 . S
C2283 C2282 1.367 . S
C2283 C2285 1.433 . S
C2284 C2280 1.350 . S
C2284 C2281 1.463 . S
C2284 N2288 1.427 . S
C2285 H2275 0.929 . S
C2285 C2283 1.433 . S
C2285 N2288 1.384 . S
C2286 H2277 0.929 . S
C2286 C2278 1.378 . S
C2286 C2281 1.350 . S
C2287 H2274 0.929 . S
C2287 C2279 1.433 . S
C2287 N2289 1.384 . S
N2288 C2284 1.427 . S
N2288 C2285 1.384 . S
N2289 C2281 1.427 . S
N2289 C2287 1.384 . S
H2290 C2296 0.930 . S
H2291 C2300 0.930 . S
H2292 C2305 0.929 . S
H2293 C2303 0.929 . S
H2294 C2298 0.929 . S
H2295 C2304 0.929 . S
C2296 H2290 0.930 . S
C2296 C2297 1.367 . S
C2296 C2304 1.378 . S
C2297 C2296 1.367 . S
C2297 C2305 1.433 . S
C2298 H2294 0.929 . S
C2298 C2300 1.378 . S
C2298 C2302 1.350 . S
C2299 C2302 1.463 . S
C2299 C2304 1.350 . S
C2299 N2307 1.427 . S
C2300 H2291 0.930 . S
C2300 C2298 1.378 . S
C2300 C2301 1.367 . S
C2301 C2300 1.367 . S
C2301 C2303 1.433 . S
C2302 C2298 1.350 . S
C2302 C2299 1.463 . S
C2302 N2306 1.427 . S
C2303 H2293 0.929 . S
C2303 C2301 1.433 . S
C2303 N2306 1.384 . S
C2304 H2295 0.929 . S
C2304 C2296 1.378 . S
C2304 C2299 1.350 . S
C2305 H2292 0.929 . S
C2305 C2297 1.433 . S
C2305 N2307 1.384 . S
N2306 C2302 1.427 . S
N2306 C2303 1.384 . S
N2307 C2299 1.427 . S
N2307 C2305 1.384 . S
H2308 C2314 0.930 . S
H2309 C2318 0.930 . S
H2310 C2323 0.929 . S
H2311 C2321 0.929 . S
H2312 C2316 0.929 . S
H2313 C2322 0.929 . S
C2314 H2308 0.930 . S
C2314 C2315 1.367 . S
C2314 C2322 1.378 . S
C2315 C2314 1.367 . S
C2315 C2323 1.433 . S
C2316 H2312 0.929 . S
C2316 C2318 1.378 . S
C2316 C2320 1.350 . S
C2317 C2320 1.463 . S
C2317 C2322 1.350 . S
C2317 N2325 1.427 . S
C2318 H2309 0.930 . S
C2318 C2316 1.378 . S
C2318 C2319 1.367 . S
C2319 C2318 1.367 . S
C2319 C2321 1.433 . S
C2320 C2316 1.350 . S
C2320 C2317 1.463 . S
C2320 N2324 1.427 . S
C2321 H2311 0.929 . S
C2321 C2319 1.433 . S
C2321 N2324 1.384 . S
C2322 H2313 0.929 . S
C2322 C2314 1.378 . S
C2322 C2317 1.350 . S
C2323 H2310 0.929 . S
C2323 C2315 1.433 . S
C2323 N2325 1.384 . S
N2324 C2320 1.427 . S
N2324 C2321 1.384 . S
N2325 C2317 1.427 . S
N2325 C2323 1.384 . S
H2326 C2332 0.930 . S
H2327 C2336 0.930 . S
H2328 C2341 0.929 . S
H2329 C2339 0.929 . S
H2330 C2334 0.929 . S
H2331 C2340 0.929 . S
C2332 H2326 0.930 . S
C2332 C2333 1.367 . S
C2332 C2340 1.378 . S
C2333 C2332 1.367 . S
C2333 C2341 1.433 . S
C2334 H2330 0.929 . S
C2334 C2336 1.378 . S
C2334 C2338 1.350 . S
C2335 C2338 1.463 . S
C2335 C2340 1.350 . S
C2335 N2343 1.427 . S
C2336 H2327 0.930 . S
C2336 C2334 1.378 . S
C2336 C2337 1.367 . S
C2337 C2336 1.367 . S
C2337 C2339 1.433 . S
C2338 C2334 1.350 . S
C2338 C2335 1.463 . S
C2338 N2342 1.427 . S
C2339 H2329 0.929 . S
C2339 C2337 1.433 . S
C2339 N2342 1.384 . S
C2340 H2331 0.929 . S
C2340 C2332 1.378 . S
C2340 C2335 1.350 . S
C2341 H2328 0.929 . S
C2341 C2333 1.433 . S
C2341 N2343 1.384 . S
N2342 C2338 1.427 . S
N2342 C2339 1.384 . S
N2343 C2335 1.427 . S
N2343 C2341 1.384 . S
H2344 C2350 0.930 . S
H2345 C2354 0.930 . S
H2346 C2359 0.929 . S
H2347 C2357 0.929 . S
H2348 C2352 0.929 . S
H2349 C2358 0.929 . S
C2350 H2344 0.930 . S
C2350 C2351 1.367 . S
C2350 C2358 1.378 . S
C2351 C2350 1.367 . S
C2351 C2359 1.433 . S
C2352 H2348 0.929 . S
C2352 C2354 1.378 . S
C2352 C2356 1.350 . S
C2353 C2356 1.463 . S
C2353 C2358 1.350 . S
C2353 N2361 1.427 . S
C2354 H2345 0.930 . S
C2354 C2352 1.378 . S
C2354 C2355 1.367 . S
C2355 C2354 1.367 . S
C2355 C2357 1.433 1_556 S
C2356 C2352 1.350 . S
C2356 C2353 1.463 . S
C2356 N2360 1.427 . S
C2357 H2347 0.929 . S
C2357 C2355 1.433 1_554 S
C2357 N2360 1.384 1_554 S
C2358 H2349 0.929 . S
C2358 C2350 1.378 . S
C2358 C2353 1.350 . S
C2359 H2346 0.929 . S
C2359 C2351 1.433 . S
C2359 N2361 1.384 . S
N2360 C2356 1.427 . S
N2360 C2357 1.384 1_556 S
N2361 C2353 1.427 . S
N2361 C2359 1.384 . S
H2362 C2368 0.930 . S
H2363 C2372 0.930 . S
H2364 C2377 0.929 . S
H2365 C2375 0.929 . S
H2366 C2370 0.929 . S
H2367 C2376 0.929 . S
C2368 H2362 0.930 . S
C2368 C2369 1.367 . S
C2368 C2376 1.378 . S
C2369 C2368 1.367 . S
C2369 C2377 1.433 . S
C2370 H2366 0.929 . S
C2370 C2372 1.378 . S
C2370 C2374 1.350 . S
C2371 C2374 1.463 . S
C2371 C2376 1.350 . S
C2371 N2379 1.427 . S
C2372 H2363 0.930 . S
C2372 C2370 1.378 . S
C2372 C2373 1.367 . S
C2373 C2372 1.367 . S
C2373 C2375 1.433 . S
C2374 C2370 1.350 . S
C2374 C2371 1.463 . S
C2374 N2378 1.427 . S
C2375 H2365 0.929 . S
C2375 C2373 1.433 . S
C2375 N2378 1.384 . S
C2376 H2367 0.929 . S
C2376 C2368 1.378 . S
C2376 C2371 1.350 . S
C2377 H2364 0.929 . S
C2377 C2369 1.433 . S
C2377 N2379 1.384 . S
N2378 C2374 1.427 . S
N2378 C2375 1.384 . S
N2379 C2371 1.427 . S
N2379 C2377 1.384 . S
H2380 C2386 0.930 . S
H2381 C2390 0.930 . S
H2382 C2395 0.929 . S
H2383 C2393 0.929 . S
H2384 C2388 0.929 . S
H2385 C2394 0.929 . S
C2386 H2380 0.930 . S
C2386 C2387 1.367 . S
C2386 C2394 1.378 . S
C2387 C2386 1.367 . S
C2387 C2395 1.433 . S
C2388 H2384 0.929 . S
C2388 C2390 1.378 . S
C2388 C2392 1.350 . S
C2389 C2392 1.463 . S
C2389 C2394 1.350 . S
C2389 N2397 1.427 . S
C2390 H2381 0.930 . S
C2390 C2388 1.378 . S
C2390 C2391 1.367 . S
C2391 C2390 1.367 . S
C2391 C2393 1.433 . S
C2392 C2388 1.350 . S
C2392 C2389 1.463 . S
C2392 N2396 1.427 . S
C2393 H2383 0.929 . S
C2393 C2391 1.433 . S
C2393 N2396 1.384 . S
C2394 H2385 0.929 . S
C2394 C2386 1.378 . S
C2394 C2389 1.350 . S
C2395 H2382 0.929 . S
C2395 C2387 1.433 . S
C2395 N2397 1.384 . S
N2396 C2392 1.427 . S
N2396 C2393 1.384 . S
N2397 C2389 1.427 . S
N2397 C2395 1.384 . S
H2398 C2404 0.930 . S
H2399 C2408 0.930 . S
H2400 C2413 0.929 . S
H2401 C2411 0.929 . S
H2402 C2406 0.929 . S
H2403 C2412 0.929 . S
C2404 H2398 0.930 . S
C2404 C2405 1.367 . S
C2404 C2412 1.378 . S
C2405 C2404 1.367 . S
C2405 C2413 1.433 . S
C2406 H2402 0.929 . S
C2406 C2408 1.378 . S
C2406 C2410 1.350 . S
C2407 C2410 1.463 . S
C2407 C2412 1.350 . S
C2407 N2415 1.427 . S
C2408 H2399 0.930 . S
C2408 C2406 1.378 . S
C2408 C2409 1.367 . S
C2409 C2408 1.367 . S
C2409 C2411 1.433 . S
C2410 C2406 1.350 . S
C2410 C2407 1.463 . S
C2410 N2414 1.427 . S
C2411 H2401 0.929 . S
C2411 C2409 1.433 . S
C2411 N2414 1.384 . S
C2412 H2403 0.929 . S
C2412 C2404 1.378 . S
C2412 C2407 1.350 . S
C2413 H2400 0.929 . S
C2413 C2405 1.433 . S
C2413 N2415 1.384 . S
N2414 C2410 1.427 . S
N2414 C2411 1.384 . S
N2415 C2407 1.427 . S
N2415 C2413 1.384 . S
H2416 C2422 0.930 . S
H2417 C2426 0.930 . S
H2418 C2431 0.929 . S
H2419 C2429 0.929 . S
H2420 C2424 0.929 . S
H2421 C2430 0.929 . S
C2422 H2416 0.930 . S
C2422 C2423 1.367 . S
C2422 C2430 1.378 . S
C2423 C2422 1.367 . S
C2423 C2431 1.433 . S
C2424 H2420 0.929 . S
C2424 C2426 1.378 . S
C2424 C2428 1.350 . S
C2425 C2428 1.463 . S
C2425 C2430 1.350 . S
C2425 N2433 1.427 . S
C2426 H2417 0.930 . S
C2426 C2424 1.378 . S
C2426 C2427 1.367 . S
C2427 C2426 1.367 . S
C2427 C2429 1.433 . S
C2428 C2424 1.350 . S
C2428 C2425 1.463 . S
C2428 N2432 1.427 . S
C2429 H2419 0.929 . S
C2429 C2427 1.433 . S
C2429 N2432 1.384 . S
C2430 H2421 0.929 . S
C2430 C2422 1.378 . S
C2430 C2425 1.350 . S
C2431 H2418 0.929 . S
C2431 C2423 1.433 . S
C2431 N2433 1.384 . S
N2432 C2428 1.427 . S
N2432 C2429 1.384 . S
N2433 C2425 1.427 . S
N2433 C2431 1.384 . S
H2434 C2440 0.930 . S
H2435 C2444 0.930 . S
H2436 C2449 0.929 . S
H2437 C2447 0.929 . S
H2438 C2442 0.929 . S
H2439 C2448 0.929 . S
C2440 H2434 0.930 . S
C2440 C2441 1.367 . S
C2440 C2448 1.378 . S
C2441 C2440 1.367 . S
C2441 C2449 1.433 . S
C2442 H2438 0.929 . S
C2442 C2444 1.378 . S
C2442 C2446 1.350 . S
C2443 C2446 1.463 . S
C2443 C2448 1.350 . S
C2443 N2451 1.427 . S
C2444 H2435 0.930 . S
C2444 C2442 1.378 . S
C2444 C2445 1.367 . S
C2445 C2444 1.367 . S
C2445 C2447 1.433 . S
C2446 C2442 1.350 . S
C2446 C2443 1.463 . S
C2446 N2450 1.427 . S
C2447 H2437 0.929 . S
C2447 C2445 1.433 . S
C2447 N2450 1.384 . S
C2448 H2439 0.929 . S
C2448 C2440 1.378 . S
C2448 C2443 1.350 . S
C2449 H2436 0.929 . S
C2449 C2441 1.433 . S
C2449 N2451 1.384 . S
N2450 C2446 1.427 . S
N2450 C2447 1.384 . S
N2451 C2443 1.427 . S
N2451 C2449 1.384 . S
H2452 C2458 0.930 . S
H2453 C2462 0.930 . S
H2454 C2467 0.929 . S
H2455 C2465 0.929 . S
H2456 C2460 0.929 1_655 S
H2457 C2466 0.929 . S
C2458 H2452 0.930 . S
C2458 C2459 1.367 1_455 S
C2458 C2466 1.378 . S
C2459 C2458 1.367 1_655 S
C2459 C2467 1.433 . S
C2460 H2456 0.929 1_455 S
C2460 C2462 1.378 . S
C2460 C2464 1.350 . S
C2461 C2464 1.463 . S
C2461 C2466 1.350 . S
C2461 N2469 1.427 1_455 S
C2462 H2453 0.930 . S
C2462 C2460 1.378 . S
C2462 C2463 1.367 . S
C2463 C2462 1.367 . S
C2463 C2465 1.433 . S
C2464 C2460 1.350 . S
C2464 C2461 1.463 . S
C2464 N2468 1.427 . S
C2465 H2455 0.929 . S
C2465 C2463 1.433 . S
C2465 N2468 1.384 . S
C2466 H2457 0.929 . S
C2466 C2458 1.378 . S
C2466 C2461 1.350 . S
C2467 H2454 0.929 . S
C2467 C2459 1.433 . S
C2467 N2469 1.384 . S
N2468 C2464 1.427 . S
N2468 C2465 1.384 . S
N2469 C2461 1.427 1_655 S
N2469 C2467 1.384 . S
H2470 C2476 0.930 . S
H2471 C2480 0.930 . S
H2472 C2485 0.929 . S
H2473 C2483 0.929 . S
H2474 C2478 0.929 . S
H2475 C2484 0.929 . S
C2476 H2470 0.930 . S
C2476 C2477 1.367 . S
C2476 C2484 1.378 . S
C2477 C2476 1.367 . S
C2477 C2485 1.433 . S
C2478 H2474 0.929 . S
C2478 C2480 1.378 . S
C2478 C2482 1.350 . S
C2479 C2482 1.463 . S
C2479 C2484 1.350 . S
C2479 N2487 1.427 . S
C2480 H2471 0.930 . S
C2480 C2478 1.378 . S
C2480 C2481 1.367 . S
C2481 C2480 1.367 . S
C2481 C2483 1.433 . S
C2482 C2478 1.350 . S
C2482 C2479 1.463 . S
C2482 N2486 1.427 . S
C2483 H2473 0.929 . S
C2483 C2481 1.433 . S
C2483 N2486 1.384 . S
C2484 H2475 0.929 . S
C2484 C2476 1.378 . S
C2484 C2479 1.350 . S
C2485 H2472 0.929 . S
C2485 C2477 1.433 . S
C2485 N2487 1.384 . S
N2486 C2482 1.427 . S
N2486 C2483 1.384 . S
N2487 C2479 1.427 . S
N2487 C2485 1.384 . S
H2488 C2494 0.930 . S
H2489 C2498 0.930 . S
H2490 C2503 0.929 . S
H2491 C2501 0.929 . S
H2492 C2496 0.929 . S
H2493 C2502 0.929 . S
C2494 H2488 0.930 . S
C2494 C2495 1.367 . S
C2494 C2502 1.378 . S
C2495 C2494 1.367 . S
C2495 C2503 1.433 . S
C2496 H2492 0.929 . S
C2496 C2498 1.378 . S
C2496 C2500 1.350 . S
C2497 C2500 1.463 . S
C2497 C2502 1.350 . S
C2497 N2505 1.427 . S
C2498 H2489 0.930 . S
C2498 C2496 1.378 . S
C2498 C2499 1.367 . S
C2499 C2498 1.367 . S
C2499 C2501 1.433 . S
C2500 C2496 1.350 . S
C2500 C2497 1.463 . S
C2500 N2504 1.427 . S
C2501 H2491 0.929 . S
C2501 C2499 1.433 . S
C2501 N2504 1.384 . S
C2502 H2493 0.929 . S
C2502 C2494 1.378 . S
C2502 C2497 1.350 . S
C2503 H2490 0.929 . S
C2503 C2495 1.433 . S
C2503 N2505 1.384 . S
N2504 C2500 1.427 . S
N2504 C2501 1.384 . S
N2505 C2497 1.427 . S
N2505 C2503 1.384 . S
H2506 C2512 0.930 . S
H2507 C2516 0.930 . S
H2508 C2521 0.929 . S
H2509 C2519 0.929 . S
H2510 C2514 0.929 . S
H2511 C2520 0.929 . S
C2512 H2506 0.930 . S
C2512 C2513 1.367 . S
C2512 C2520 1.378 . S
C2513 C2512 1.367 . S
C2513 C2521 1.433 . S
C2514 H2510 0.929 . S
C2514 C2516 1.378 . S
C2514 C2518 1.350 . S
C2515 C2518 1.463 . S
C2515 C2520 1.350 . S
C2515 N2523 1.427 . S
C2516 H2507 0.930 . S
C2516 C2514 1.378 . S
C2516 C2517 1.367 . S
C2517 C2516 1.367 . S
C2517 C2519 1.433 . S
C2518 C2514 1.350 . S
C2518 C2515 1.463 . S
C2518 N2522 1.427 . S
C2519 H2509 0.929 . S
C2519 C2517 1.433 . S
C2519 N2522 1.384 . S
C2520 H2511 0.929 . S
C2520 C2512 1.378 . S
C2520 C2515 1.350 . S
C2521 H2508 0.929 . S
C2521 C2513 1.433 . S
C2521 N2523 1.384 . S
N2522 C2518 1.427 . S
N2522 C2519 1.384 . S
N2523 C2515 1.427 . S
N2523 C2521 1.384 . S
H2524 C2530 0.930 . S
H2525 C2534 0.919 1_455 S
H2526 C2539 0.929 . S
H2527 C2537 0.929 . S
H2528 C2532 0.929 . S
H2529 C2538 0.929 . S
C2530 H2524 0.930 . S
C2530 C2531 1.367 . S
C2530 C2538 1.378 . S
C2531 C2530 1.367 . S
C2531 C2539 1.433 . S
C2532 H2528 0.929 . S
C2532 C2534 1.395 . S
C2532 C2536 1.350 . S
C2533 C2536 1.463 . S
C2533 C2538 1.350 . S
C2533 N2541 1.427 . S
C2534 H2525 0.919 1_655 S
C2534 C2532 1.395 . S
C2534 C2535 1.362 . S
C2535 C2534 1.362 . S
C2535 C2537 1.433 . S
C2536 C2532 1.350 . S
C2536 C2533 1.463 . S
C2536 N2540 1.427 . S
C2537 H2527 0.929 . S
C2537 C2535 1.433 . S
C2537 N2540 1.384 . S
C2538 H2529 0.929 . S
C2538 C2530 1.378 . S
C2538 C2533 1.350 . S
C2539 H2526 0.929 . S
C2539 C2531 1.433 . S
C2539 N2541 1.384 . S
N2540 C2536 1.427 . S
N2540 C2537 1.384 . S
N2541 C2533 1.427 . S
N2541 C2539 1.384 . S
H2542 C2548 0.930 . S
H2543 C2552 0.930 . S
H2544 C2557 0.929 . S
H2545 C2555 0.929 . S
H2546 C2550 0.929 . S
H2547 C2556 0.929 . S
C2548 H2542 0.930 . S
C2548 C2549 1.367 . S
C2548 C2556 1.378 . S
C2549 C2548 1.367 . S
C2549 C2557 1.433 . S
C2550 H2546 0.929 . S
C2550 C2552 1.378 . S
C2550 C2554 1.350 . S
C2551 C2554 1.463 . S
C2551 C2556 1.350 . S
C2551 N2559 1.427 . S
C2552 H2543 0.930 . S
C2552 C2550 1.378 . S
C2552 C2553 1.367 . S
C2553 C2552 1.367 . S
C2553 C2555 1.433 . S
C2554 C2550 1.350 . S
C2554 C2551 1.463 . S
C2554 N2558 1.427 . S
C2555 H2545 0.929 . S
C2555 C2553 1.433 . S
C2555 N2558 1.384 . S
C2556 H2547 0.929 . S
C2556 C2548 1.378 . S
C2556 C2551 1.350 . S
C2557 H2544 0.929 . S
C2557 C2549 1.433 . S
C2557 N2559 1.384 . S
N2558 C2554 1.427 . S
N2558 C2555 1.384 . S
N2559 C2551 1.427 . S
N2559 C2557 1.384 . S
H2560 C2566 0.930 . S
H2561 C2570 0.930 . S
H2562 C2575 0.929 . S
H2563 C2573 0.929 . S
H2564 C2568 0.929 . S
H2565 C2574 0.929 . S
C2566 H2560 0.930 . S
C2566 C2567 1.367 . S
C2566 C2574 1.378 . S
C2567 C2566 1.367 . S
C2567 C2575 1.433 . S
C2568 H2564 0.929 . S
C2568 C2570 1.378 . S
C2568 C2572 1.350 . S
C2569 C2572 1.463 . S
C2569 C2574 1.350 . S
C2569 N2577 1.427 . S
C2570 H2561 0.930 . S
C2570 C2568 1.378 . S
C2570 C2571 1.367 . S
C2571 C2570 1.367 . S
C2571 C2573 1.433 . S
C2572 C2568 1.350 . S
C2572 C2569 1.463 . S
C2572 N2576 1.427 . S
C2573 H2563 0.929 . S
C2573 C2571 1.433 . S
C2573 N2576 1.384 . S
C2574 H2565 0.929 . S
C2574 C2566 1.378 . S
C2574 C2569 1.350 . S
C2575 H2562 0.929 . S
C2575 C2567 1.433 . S
C2575 N2577 1.384 . S
N2576 C2572 1.427 . S
N2576 C2573 1.384 . S
N2577 C2569 1.427 . S
N2577 C2575 1.384 . S
H2578 C2584 0.930 . S
H2579 C2588 0.930 . S
H2580 C2593 0.929 . S
H2581 C2591 0.929 . S
H2582 C2586 0.929 . S
H2583 C2592 0.929 1_545 S
C2584 H2578 0.930 . S
C2584 C2585 1.367 . S
C2584 C2592 1.378 . S
C2585 C2584 1.367 . S
C2585 C2593 1.433 . S
C2586 H2582 0.929 . S
C2586 C2588 1.378 . S
C2586 C2590 1.350 . S
C2587 C2590 1.463 1_565 S
C2587 C2592 1.350 . S
C2587 N2595 1.427 . S
C2588 H2579 0.930 . S
C2588 C2586 1.378 . S
C2588 C2589 1.367 . S
C2589 C2588 1.367 . S
C2589 C2591 1.433 . S
C2590 C2586 1.350 . S
C2590 C2587 1.463 1_545 S
C2590 N2594 1.427 . S
C2591 H2581 0.929 . S
C2591 C2589 1.433 . S
C2591 N2594 1.384 . S
C2592 H2583 0.929 1_565 S
C2592 C2584 1.378 . S
C2592 C2587 1.350 . S
C2593 H2580 0.929 . S
C2593 C2585 1.433 . S
C2593 N2595 1.384 . S
N2594 C2590 1.427 . S
N2594 C2591 1.384 . S
N2595 C2587 1.427 . S
N2595 C2593 1.384 . S
H2596 C2602 0.930 . S
H2597 C2606 0.930 . S
H2598 C2611 0.929 . S
H2599 C2609 0.929 . S
H2600 C2604 0.929 . S
H2601 C2610 0.929 . S
C2602 H2596 0.930 . S
C2602 C2603 1.367 . S
C2602 C2610 1.378 . S
C2603 C2602 1.367 . S
C2603 C2611 1.433 . S
C2604 H2600 0.929 . S
C2604 C2606 1.378 . S
C2604 C2608 1.350 . S
C2605 C2608 1.463 . S
C2605 C2610 1.350 . S
C2605 N2613 1.427 . S
C2606 H2597 0.930 . S
C2606 C2604 1.378 . S
C2606 C2607 1.367 . S
C2607 C2606 1.367 . S
C2607 C2609 1.433 . S
C2608 C2604 1.350 . S
C2608 C2605 1.463 . S
C2608 N2612 1.427 . S
C2609 H2599 0.929 . S
C2609 C2607 1.433 . S
C2609 N2612 1.384 . S
C2610 H2601 0.929 . S
C2610 C2602 1.378 . S
C2610 C2605 1.350 . S
C2611 H2598 0.929 . S
C2611 C2603 1.433 . S
C2611 N2613 1.384 . S
N2612 C2608 1.427 . S
N2612 C2609 1.384 . S
N2613 C2605 1.427 . S
N2613 C2611 1.384 . S
H2614 C2620 0.930 . S
H2615 C2624 0.930 . S
H2616 C2629 0.929 . S
H2617 C2627 0.929 . S
H2618 C2622 0.929 . S
H2619 C2628 0.929 . S
C2620 H2614 0.930 . S
C2620 C2621 1.367 . S
C2620 C2628 1.378 . S
C2621 C2620 1.367 . S
C2621 C2629 1.433 1_556 S
C2622 H2618 0.929 . S
C2622 C2624 1.378 . S
C2622 C2626 1.350 . S
C2623 C2626 1.463 . S
C2623 C2628 1.350 1_554 S
C2623 N2631 1.427 . S
C2624 H2615 0.930 . S
C2624 C2622 1.378 . S
C2624 C2625 1.367 . S
C2625 C2624 1.367 . S
C2625 C2627 1.433 . S
C2626 C2622 1.350 . S
C2626 C2623 1.463 . S
C2626 N2630 1.427 . S
C2627 H2617 0.929 . S
C2627 C2625 1.433 . S
C2627 N2630 1.384 . S
C2628 H2619 0.929 . S
C2628 C2620 1.378 . S
C2628 C2623 1.350 1_556 S
C2629 H2616 0.929 . S
C2629 C2621 1.433 1_554 S
C2629 N2631 1.384 . S
N2630 C2626 1.427 . S
N2630 C2627 1.384 . S
N2631 C2623 1.427 . S
N2631 C2629 1.384 . S
H2632 C2638 0.930 . S
H2633 C2642 0.930 . S
H2634 C2647 0.929 . S
H2635 C2645 0.929 . S
H2636 C2640 0.929 . S
H2637 C2646 0.929 . S
C2638 H2632 0.930 . S
C2638 C2639 1.367 . S
C2638 C2646 1.378 . S
C2639 C2638 1.367 . S
C2639 C2647 1.433 . S
C2640 H2636 0.929 . S
C2640 C2642 1.378 . S
C2640 C2644 1.350 . S
C2641 C2644 1.463 . S
C2641 C2646 1.350 . S
C2641 N2649 1.427 . S
C2642 H2633 0.930 . S
C2642 C2640 1.378 . S
C2642 C2643 1.367 . S
C2643 C2642 1.367 . S
C2643 C2645 1.433 . S
C2644 C2640 1.350 . S
C2644 C2641 1.463 . S
C2644 N2648 1.427 . S
C2645 H2635 0.929 . S
C2645 C2643 1.433 . S
C2645 N2648 1.384 . S
C2646 H2637 0.929 . S
C2646 C2638 1.378 . S
C2646 C2641 1.350 . S
C2647 H2634 0.929 . S
C2647 C2639 1.433 . S
C2647 N2649 1.384 . S
N2648 C2644 1.427 . S
N2648 C2645 1.384 . S
N2649 C2641 1.427 . S
N2649 C2647 1.384 . S
H2650 C2656 0.930 . S
H2651 C2660 0.930 . S
H2652 C2665 0.929 . S
H2653 C2663 0.929 . S
H2654 C2658 0.940 . S
H2655 C2664 0.929 . S
C2656 H2650 0.930 . S
C2656 C2657 1.367 . S
C2656 C2664 1.378 . S
C2657 C2656 1.367 . S
C2657 C2665 1.433 . S
C2658 H2654 0.940 . S
C2658 C2660 1.378 1_554 S
C2658 C2662 1.350 . S
C2659 C2662 1.463 . S
C2659 C2664 1.350 . S
C2659 N2667 1.427 . S
C2660 H2651 0.930 . S
C2660 C2658 1.378 1_556 S
C2660 C2661 1.367 . S
C2661 C2660 1.367 . S
C2661 C2663 1.433 1_556 S
C2662 C2658 1.350 . S
C2662 C2659 1.463 . S
C2662 N2666 1.427 . S
C2663 H2653 0.929 . S
C2663 C2661 1.433 1_554 S
C2663 N2666 1.384 . S
C2664 H2655 0.929 . S
C2664 C2656 1.378 . S
C2664 C2659 1.350 . S
C2665 H2652 0.929 . S
C2665 C2657 1.433 . S
C2665 N2667 1.384 . S
N2666 C2662 1.427 . S
N2666 C2663 1.384 . S
N2667 C2659 1.427 . S
N2667 C2665 1.384 . S
H2668 C2674 0.930 . S
H2669 C2678 0.930 . S
H2670 C2683 0.929 . S
H2671 C2681 0.929 . S
H2672 C2676 0.929 . S
H2673 C2682 0.929 . S
C2674 H2668 0.930 . S
C2674 C2675 1.367 . S
C2674 C2682 1.378 . S
C2675 C2674 1.367 . S
C2675 C2683 1.433 . S
C2676 H2672 0.929 . S
C2676 C2678 1.378 . S
C2676 C2680 1.350 . S
C2677 C2680 1.463 . S
C2677 C2682 1.350 . S
C2677 N2685 1.427 . S
C2678 H2669 0.930 . S
C2678 C2676 1.378 . S
C2678 C2679 1.367 . S
C2679 C2678 1.367 . S
C2679 C2681 1.433 . S
C2680 C2676 1.350 . S
C2680 C2677 1.463 . S
C2680 N2684 1.427 . S
C2681 H2671 0.929 . S
C2681 C2679 1.433 . S
C2681 N2684 1.384 . S
C2682 H2673 0.929 . S
C2682 C2674 1.378 . S
C2682 C2677 1.350 . S
C2683 H2670 0.929 . S
C2683 C2675 1.433 . S
C2683 N2685 1.384 . S
N2684 C2680 1.427 . S
N2684 C2681 1.384 . S
N2685 C2677 1.427 . S
N2685 C2683 1.384 . S
H2686 C2692 0.930 . S
H2687 C2696 0.930 . S
H2688 C2701 0.929 . S
H2689 C2699 0.929 . S
H2690 C2694 0.929 . S
H2691 C2700 0.929 . S
C2692 H2686 0.930 . S
C2692 C2693 1.367 . S
C2692 C2700 1.378 . S
C2693 C2692 1.367 . S
C2693 C2701 1.433 . S
C2694 H2690 0.929 . S
C2694 C2696 1.378 . S
C2694 C2698 1.350 . S
C2695 C2698 1.463 . S
C2695 C2700 1.350 . S
C2695 N2703 1.427 . S
C2696 H2687 0.930 . S
C2696 C2694 1.378 . S
C2696 C2697 1.367 . S
C2697 C2696 1.367 . S
C2697 C2699 1.433 . S
C2698 C2694 1.350 . S
C2698 C2695 1.463 . S
C2698 N2702 1.427 . S
C2699 H2689 0.929 . S
C2699 C2697 1.433 . S
C2699 N2702 1.384 . S
C2700 H2691 0.929 . S
C2700 C2692 1.378 . S
C2700 C2695 1.350 . S
C2701 H2688 0.929 . S
C2701 C2693 1.433 . S
C2701 N2703 1.384 . S
N2702 C2698 1.427 . S
N2702 C2699 1.384 . S
N2703 C2695 1.427 . S
N2703 C2701 1.384 . S
C983 C109 2.116 . S
C987 C346 2.052 . S
C1001 C65 1.804 . S
C1005 C385 1.752 . S
C1019 C75 1.436 . S
C1023 C426 1.425 . S
C1041 C471 1.435 . S
C1037 C84 1.453 . S
C1055 C25 2.053 . S
C1059 C515 2.021 . S
C1077 C546 1.355 . S
C1073 C28 1.380 . S
C1095 C594 2.010 . S
C1091 C47 2.014 . S
C1109 C9 1.778 . S
C1113 C622 1.714 . S
C1131 C354 1.607 . S
C1127 C233 1.582 . S
C1145 C249 1.427 . S
C1149 C395 1.386 . S
C1167 C434 1.487 . S
C1163 C275 1.475 . S
C1185 C466 1.468 . S
C1181 C173 1.482 . S
C1199 C224 0.265 . S
C1203 C502 0.283 . S
C1221 C554 2.213 . S
C1217 C243 2.231 . S
C1239 C591 1.033 . S
C1235 C266 1.026 . S
C1257 C625 1.894 . S
C1253 C179 1.897 . S
C1275 C351 1.893 . S
C1271 C163 1.951 . S
C1289 C289 1.971 . S
C1293 C665 1.927 . S
C1311 C711 1.232 . S
C1307 C333 1.230 . S
C1329 C746 1.458 1_655 S
C1325 C308 1.487 . S
C1343 C123 1.945 . S
C1347 C635 1.933 . S
C1361 C126 1.411 . S
C1365 C431 1.398 . S
C1379 C327 1.320 . S
C1383 C794 1.359 . S
C1401 C822 0.496 . S
C1397 C299 0.487 . S
C1419 C355 2.076 1_565 S
C1415 C67 2.141 . S
C1437 C834 1.788 . S
C1433 C98 1.802 . S
C1451 C89 1.468 . S
C1455 C435 1.452 . S
C1469 C79 1.505 . S
C1473 C782 1.474 . S
C1491 C506 2.079 . S
C1487 C11 2.093 . S
C1505 C51 1.411 . S
C1509 C715 1.361 . S
C1527 C585 2.046 1_565 S
C1523 C33 2.053 . S
C1545 C871 1.684 . S
C1541 C14 1.734 . S
C1563 C345 1.568 . S
C1559 C140 1.534 . S
C1581 C826 1.409 . S
C1577 C319 1.461 . S
C1595 C112 1.449 . S
C1599 C425 1.511 . S
C1613 C285 1.512 . S
C1617 C795 1.504 . S
C1631 C149 0.271 . S
C1635 C511 0.303 . S
C1653 C705 2.256 . S
C1649 C313 2.275 . S
C1667 C121 1.083 . S
C1671 C582 1.054 . S
C1685 C291 1.926 . S
C1689 C874 1.915 . S
C1703 C182 1.941 1_556 S
C1707 C342 1.872 . S
C1721 C168 1.965 . S
C1725 C674 1.940 . S
C1739 C263 1.251 . S
C1743 C542 1.232 . S
C1757 C247 1.577 . S
C1761 C755 1.506 . S
C1779 C866 1.909 . S
C1775 C277 1.944 . S
C1793 C219 1.461 . S
C1797 C422 1.422 . S
C1815 C465 1.402 . S
C1811 C257 1.367 . S
C1833 C391 0.495 . S
C1829 C201 0.487 . S
C1847 C81 2.117 . S
C1851 C906 2.053 . S
C1869 C825 1.762 . S
C1865 C93 1.807 . S
C1883 C103 1.436 . S
C1887 C946 1.425 . S
C1901 C56 1.455 . S
C1905 C791 1.434 . S
C1919 C53 2.048 . S
C1923 C675 2.028 . S
C1941 C706 1.345 . S
C1937 C0 1.377 . S
C1959 C754 2.007 . S
C1955 C19 2.016 . S
C1977 C862 1.715 . S
C1973 C37 1.783 . S
C1995 C914 1.608 . S
C1991 C261 1.589 . S
C2009 C193 1.428 . S
C2013 C835 1.384 . S
C2031 C954 1.478 . S
C2027 C205 1.463 . S
C2049 C786 1.466 . S
C2045 C215 1.483 . S
C2067 C662 0.268 . S
C2063 C252 0.232 . S
C2081 C187 2.231 . S
C2085 C714 2.212 . S
C2103 C751 1.007 . S
C2099 C196 0.998 . S
C2117 C221 1.895 . S
C2121 C865 1.897 . S
C2139 C911 1.897 . S
C2135 C317 1.953 . S
C2153 C135 1.971 . S
C2157 C505 1.922 . S
C2175 C551 1.240 . S
C2171 C151 1.238 . S
C2193 C586 1.466 . S
C2189 C154 1.498 . S
C2211 C875 1.923 . S
C2207 C305 1.940 . S
C2225 C280 1.413 . S
C2229 C951 1.403 . S
C2247 C474 1.362 . S
C2243 C145 1.330 . S
C2265 C382 0.507 . S
C2261 C117 0.492 . S
C2279 C95 2.141 . S
C2283 C915 2.077 . S
C2301 C394 1.788 . S
C2297 C70 1.803 . S
C2315 C61 1.468 . S
C2319 C955 1.455 . S
C2333 C107 1.501 . S
C2337 C462 1.468 . S
C2351 C39 2.093 . S
C2355 C666 2.077 1_556 S
C2373 C555 1.355 . S
C2369 C23 1.412 . S
C2387 C5 2.053 . S
C2391 C745 2.047 . S
C2405 C42 1.737 . S
C2409 C631 1.688 . S
C2427 C905 1.569 . S
C2423 C322 1.537 . S
C2441 C165 1.456 . S
C2445 C386 1.419 . S
C2463 C945 1.515 . S
C2459 C294 1.447 . S
C2477 C131 1.511 . S
C2481 C475 1.507 . S
C2495 C331 0.258 . S
C2499 C671 0.294 . S
C2517 C545 2.258 . S
C2513 C159 2.275 1_556 S
C2531 C303 1.061 . S
C2535 C742 1.025 1_655 S
C2553 C634 1.914 . S
C2549 C137 1.926 . S
C2571 C902 1.867 . S
C2567 C238 1.940 . S
C2589 C514 1.941 1_655 S
C2585 C210 1.964 . S
C2603 C235 1.267 . S
C2607 C702 1.252 . S
C2625 C595 1.520 . S
C2621 C191 1.576 . S
C2639 C207 1.945 . S
C2643 C626 1.919 . S
C2657 C177 1.462 . S
C2661 C942 1.428 . S
C2679 C785 1.406 . S
C2675 C229 1.370 . S
C2697 C831 0.509 . S
C2693 C271 0.493 . S
