# Generated by pormake.
# Topology scu, (8,4)-cn, num edge types: 1
# Building blocks:
#     Node 0, Type 0, BuildingBlock: VETTIZ_charged_sbu_0, # of connection points: 8
#     Node 1, Type 1, BuildingBlock: MUDLON_clean_sbu_0, # of connection points: 4
#     Node 2, Type 1, BuildingBlock: MUDLON_clean_sbu_0, # of connection points: 4
#     Edge 3, Type (0, 1), BuildingBlock: MIFKUJ_clean_linker_0, # of connection points: 2
#     Edge 4, Type (0, 1), BuildingBlock: MIFKUJ_clean_linker_0, # of connection points: 2
#     Edge 5, Type (0, 1), BuildingBlock: MIFKUJ_clean_linker_0, # of connection points: 2
#     Edge 6, Type (0, 1), BuildingBlock: MIFKUJ_clean_linker_0, # of connection points: 2
#     Edge 7, Type (0, 1), BuildingBlock: MIFKUJ_clean_linker_0, # of connection points: 2
#     Edge 8, Type (0, 1), BuildingBlock: MIFKUJ_clean_linker_0, # of connection points: 2
#     Edge 9, Type (0, 1), BuildingBlock: MIFKUJ_clean_linker_0, # of connection points: 2
#     Edge 10, Type (0, 1), BuildingBlock: MIFKUJ_clean_linker_0, # of connection points: 2
# Relax obj value: 0.036
# Max RMSD: 0.093
# Mean RMSD: 0.083
data_MOF--net-scu--node1-VETTIZ_charged_sbu_0--node2-MUDLON_clean_sbu_0--edge1-MIFKUJ_clean_linker_0
_symmetry_space_group_name_H-M    P1
_symmetry_Int_Tables_number       1
_symmetry_cell_setting            triclinic
loop_
_symmetry_equiv_pos_as_xyz
'x, y, z'
_cell_length_a     32.226068
_cell_length_b     31.551359
_cell_length_c     25.846781
_cell_angle_alpha  89.735032
_cell_angle_beta   90.187352
_cell_angle_gamma 90.44635
loop_
_atom_site_label
_atom_site_type_symbol
_atom_site_fract_x
_atom_site_fract_y
_atom_site_fract_z
_atom_type_partial_charge
Fe0 Fe 0.99711 0.01411 0.07517 0.0
O1 O 0.95685 0.0166 0.01597 0.0
Fe2 Fe 0.08099 0.96208 0.0181 0.0
Fe3 Fe 0.91484 0.0611 1.00743 0.0
O4 O 0.03883 1.00667 0.01867 0.0
O5 O 0.03898 1.00663 0.01326 0.0
O6 O 0.95706 0.01683 0.01038 0.0
Fe7 Fe 0.99894 1.01048 0.95434 0.0
C8 C 0.90654 0.02375 0.11621 0.0
O9 O 0.00651 0.07911 0.0733 0.0
O10 O 0.94167 0.1012 0.06045 0.0
O11 O 0.04944 1.00468 0.90299 0.0
O12 O 0.10588 0.99543 0.95706 0.0
O13 O 0.10434 0.9983 0.07803 0.0
O14 O 0.04661 1.01065 0.12893 0.0
O15 O 0.94341 0.09536 0.94831 0.0
O16 O 0.00898 0.07469 0.95068 0.0
C17 C 0.08666 1.00913 0.12114 0.0
O18 O 0.98882 0.9464 0.95497 0.0
O19 O 0.05361 0.92348 0.96248 0.0
O20 O 0.9464 0.02245 0.12578 0.0
O21 O 0.89012 0.02998 0.07074 0.0
C22 C 0.97853 0.10735 0.0767 0.0
C23 C 0.98163 0.10151 0.93788 0.0
C24 C 0.91009 1.01113 0.90761 0.0
O25 O 0.89186 0.02257 0.95 0.0
O26 O 0.95006 0.01342 0.89966 0.0
C27 C 0.08925 1.00421 0.91248 0.0
O28 O 0.0527 0.92628 0.0745 0.0
O29 O 0.98768 0.94929 0.08286 0.0
C30 C 0.01607 0.91824 0.94796 0.0
C31 C 0.01552 0.92126 0.08982 0.0
Mg32 Mg 0.99998 0.51373 0.51809 0.0
C33 C 1.00133 0.44291 0.44933 0.0
O34 O 0.03742 0.4456 0.47292 0.0
C35 C 0.98788 0.5673 0.60401 0.0
O36 O 0.02572 0.55211 0.60487 0.0
C37 C 0.05629 0.45264 0.59261 0.0
O38 O 0.09184 0.46636 0.574 0.0
O39 O 0.02239 0.46786 0.5757 0.0
O40 O 0.97401 0.47065 0.45975 0.0
O41 O 0.03663 0.56166 0.47628 0.0
C42 C 0.04043 0.56048 0.42724 0.0
O43 O 0.03127 0.52523 0.40284 0.0
O44 O 0.96364 0.5556 0.56755 0.0
Mg45 Mg 0.503 0.0192 0.519 0.0
C46 C 0.42714 0.97562 0.4733 0.0
O47 O 0.42049 0.96655 0.52221 0.0
C48 C 0.55972 0.98931 0.60099 0.0
O49 O 0.54586 0.02504 0.61996 0.0
C50 C 0.44675 0.02874 0.60972 0.0
O51 O 0.46236 0.99104 0.61852 0.0
O52 O 0.46051 0.05048 0.57182 0.0
O53 O 0.46124 0.9933 0.46051 0.0
O54 O 0.5491 0.05925 0.48118 0.0
C55 C 0.55431 0.05444 0.43283 0.0
O56 O 0.52688 0.03207 0.40673 0.0
O57 O 0.54437 0.97553 0.55882 0.0
H58 H 0.04146 0.12435 0.14605 0.0
H59 H 0.04629 0.18501 0.20478 0.0
H60 H 0.93797 0.2398 0.13338 0.0
H61 H 0.93336 0.18 0.07423 0.0
H62 H 0.99247 0.30114 0.15972 0.0
H63 H 0.92741 0.18172 0.24273 0.0
H64 H 0.92182 0.10731 0.27118 0.0
H65 H 0.03282 0.12151 0.3619 0.0
H66 H 0.03931 0.19609 0.33359 0.0
H67 H 0.94026 0.43573 0.3742 0.0
H68 H 0.93507 0.38101 0.30674 0.0
H69 H 0.04377 0.32002 0.36906 0.0
H70 H 0.0488 0.37352 0.43601 0.0
H71 H 0.9856 0.2627 0.34588 0.0
H72 H 0.0491 0.38437 0.26225 0.0
H73 H 0.05187 0.45913 0.23404 0.0
H74 H 0.94069 0.44101 0.14458 0.0
H75 H 0.93695 0.36624 0.17286 0.0
C76 C 0.0193 0.1498 0.14202 0.0
C77 C 0.98673 0.14702 0.10584 0.0
C78 C 0.02189 0.18433 0.17587 0.0
C79 C 0.99196 0.21659 0.17418 0.0
C80 C 0.96126 0.21527 0.13568 0.0
C81 C 0.95861 0.18087 0.10199 0.0
C82 C 0.99043 0.24976 0.2149 0.0
C83 C 0.99063 0.29275 0.2004 0.0
C84 C 0.98798 0.23895 0.26803 0.0
C85 C 0.98404 0.19432 0.28567 0.0
C86 C 0.95077 0.16889 0.26851 0.0
C87 C 0.94744 0.12667 0.28462 0.0
C88 C 0.97706 0.10956 0.31814 0.0
C89 C 0.00998 0.13475 0.33583 0.0
C90 C 0.01346 0.17703 0.31984 0.0
C91 C 0.96271 0.41038 0.37366 0.0
C92 C 0.99503 0.40914 0.4103 0.0
C93 C 0.95992 0.37931 0.33496 0.0
C94 C 0.98934 0.3466 0.33251 0.0
C95 C 0.02076 0.34486 0.37002 0.0
C96 C 0.02364 0.37572 0.40825 0.0
C97 C 0.98841 0.31417 0.29089 0.0
C98 C 0.98751 0.27118 0.30523 0.0
C99 C 0.98997 0.32509 0.23771 0.0
C100 C 0.99251 0.36985 0.2201 0.0
C101 C 0.02509 0.39641 0.23684 0.0
C102 C 0.02686 0.43877 0.2208 0.0
C103 C 0.99641 0.45484 0.18765 0.0
C104 C 0.96421 0.42853 0.17032 0.0
C105 C 0.96227 0.38616 0.18631 0.0
H106 H 0.99783 0.48764 0.17528 0.0
H107 H 0.97443 0.07683 0.33053 0.0
H108 H 0.92208 0.03485 0.22061 0.0
H109 H 0.87002 0.0461 0.28861 0.0
H110 H 0.77217 0.02265 0.17808 0.0
H111 H 0.82309 1.01065 0.11092 0.0
H112 H 0.76722 0.10209 0.23 0.0
H113 H 0.79061 0.95177 0.26582 0.0
H114 H 0.8346 0.89146 0.29112 0.0
H115 H 0.86358 0.95229 0.4352 0.0
H116 H 0.82019 0.01329 0.41037 0.0
H117 H 0.57163 0.05839 0.33007 0.0
H118 H 0.63981 0.06195 0.28981 0.0
H119 H 0.69724 0.0757 0.43986 0.0
H120 H 0.62867 0.07187 0.4807 0.0
H121 H 0.73427 0.01393 0.38405 0.0
H122 H 0.70125 0.1577 0.35639 0.0
H123 H 0.65873 0.21941 0.33252 0.0
H124 H 0.6507 0.17498 0.17602 0.0
H125 H 0.69267 0.11264 0.19907 0.0
C126 C 0.8895 0.03115 0.21115 0.0
C127 C 0.87684 0.02255 0.16002 0.0
C128 C 0.85984 0.03782 0.24995 0.0
C129 C 0.81731 0.03603 0.23796 0.0
C130 C 0.80484 0.02486 0.18789 0.0
C131 C 0.83415 0.01793 0.14951 0.0
C132 C 0.78507 0.04804 0.2758 0.0
C133 C 0.75995 0.08288 0.26375 0.0
C134 C 0.77687 0.02409 0.321 0.0
C135 C 0.80264 0.98731 0.33595 0.0
C136 C 0.80669 0.95247 0.30267 0.0
C137 C 0.83144 0.91812 0.31697 0.0
C138 C 0.852 0.91811 0.36465 0.0
C139 C 0.84772 0.95239 0.39822 0.0
C140 C 0.82305 0.98684 0.38407 0.0
C141 C 0.59863 0.06311 0.35451 0.0
C142 C 0.59469 0.06491 0.40855 0.0
C143 C 0.63767 0.06522 0.33142 0.0
C144 C 0.6737 0.06926 0.36178 0.0
C145 C 0.66986 0.07264 0.4157 0.0
C146 C 0.63062 0.07083 0.4389 0.0
C147 C 0.71505 0.06681 0.33672 0.0
C148 C 0.74201 0.03392 0.35115 0.0
C149 C 0.72528 0.09284 0.29385 0.0
C150 C 0.70001 0.13034 0.27958 0.0
C151 C 0.69019 0.16091 0.31696 0.0
C152 C 0.66621 0.19605 0.30355 0.0
C153 C 0.65199 0.2011 0.2528 0.0
C154 C 0.66177 0.17104 0.21532 0.0
C155 C 0.68572 0.13583 0.22852 0.0
H156 H 0.63343 0.22832 0.2425 0.0
H157 H 0.87115 0.8915 0.37565 0.0
H158 H 0.96776 0.91309 0.17724 0.0
H159 H 0.96646 0.85212 0.23706 0.0
H160 H 0.04368 0.782 0.13232 0.0
H161 H 0.04533 0.84256 0.07311 0.0
H162 H 0.98174 0.73173 0.17743 0.0
H163 H 0.08795 0.83386 0.23026 0.0
H164 H 0.11232 0.90448 0.2578 0.0
H165 H 0.0296 0.89993 0.38771 0.0
H166 H 0.00455 0.82927 0.36063 0.0
H167 H 0.06813 0.57048 0.32826 0.0
H168 H 0.06107 0.63305 0.2729 0.0
H169 H 0.00899 0.70218 0.40059 0.0
H170 H 0.01826 0.64038 0.45677 0.0
H171 H 0.05088 0.75466 0.34694 0.0
H172 H 0.94751 0.65225 0.30158 0.0
H173 H 0.92043 0.58192 0.27656 0.0
H174 H 0.99049 0.58762 0.13565 0.0
H175 H 0.0184 0.65781 0.16012 0.0
C176 C 0.98344 0.88421 0.16646 0.0
C177 C 0.00667 0.88253 0.12059 0.0
C178 C 0.98303 0.84956 0.20082 0.0
C179 C 0.00544 0.81264 0.18946 0.0
C180 C 0.02626 0.81008 0.14202 0.0
C181 C 0.02717 0.84474 0.10821 0.0
C182 C 0.01001 0.77767 0.22796 0.0
C183 C 0.99699 0.73664 0.21442 0.0
C184 C 0.02893 0.78421 0.27682 0.0
C185 C 0.04409 0.82655 0.29314 0.0
C186 C 0.07476 0.84807 0.26449 0.0
C187 C 0.08873 0.88809 0.28006 0.0
C188 C 0.07239 0.90681 0.3244 0.0
C189 C 0.04216 0.88544 0.35334 0.0
C190 C 0.02812 0.84539 0.33793 0.0
C191 C 0.05609 0.59935 0.34481 0.0
C192 C 0.04369 0.6004 0.39686 0.0
C193 C 0.0515 0.63501 0.31294 0.0
C194 C 0.03305 0.67211 0.33187 0.0
C195 C 0.02293 0.67398 0.3847 0.0
C196 C 0.02843 0.63859 0.41694 0.0
C197 C 0.0231 0.70823 0.29631 0.0
C198 C 0.03514 0.74955 0.31032 0.0
C199 C 1.00254 0.70204 0.24821 0.0
C200 C 0.98529 0.66015 0.23289 0.0
C201 C 0.95728 0.63842 0.26536 0.0
C202 C 0.94178 0.59859 0.25128 0.0
C203 C 0.9538 0.58028 0.2046 0.0
C204 C 0.98123 0.60184 0.17181 0.0
C205 C 0.99685 0.64168 0.18573 0.0
H206 H 0.94179 0.54942 0.1938 0.0
H207 H 0.08318 0.93778 0.33651 0.0
H208 H 0.07765 0.98362 0.22201 0.0
H209 H 0.13309 0.98007 0.28723 0.0
H210 H 0.2159 0.0464 0.18351 0.0
H211 H 0.16123 0.04907 0.11815 0.0
H212 H 0.24978 0.9764 0.21299 0.0
H213 H 0.177 0.0878 0.30163 0.0
H214 H 0.11761 0.12153 0.34454 0.0
H215 H 0.11323 0.02056 0.4564 0.0
H216 H 0.17208 0.98582 0.41365 0.0
H217 H 0.42391 1.0094 0.3757 0.0
H218 H 0.36325 0.01507 0.31949 0.0
H219 H 0.29074 0.94271 0.42916 0.0
H220 H 0.35112 0.93798 0.4865 0.0
H221 H 0.24979 1.01193 0.39951 0.0
H222 H 0.3206 0.90018 0.31287 0.0
H223 H 0.37986 0.86486 0.27167 0.0
H224 H 0.38685 0.96401 0.15762 0.0
H225 H 0.32796 1.00024 0.19854 0.0
C226 C 0.10729 0.99863 0.21391 0.0
C227 C 0.1153 0.01641 0.16498 0.0
C228 C 0.139 0.99644 0.25112 0.0
C229 C 0.17886 1.01254 0.24016 0.0
C230 C 0.18564 0.03326 0.19272 0.0
C231 C 0.1543 0.03498 0.15548 0.0
C232 C 0.21472 1.00403 0.27508 0.0
C233 C 0.24989 0.98479 0.25365 0.0
C234 C 0.21438 0.01316 0.32867 0.0
C235 C 0.17869 0.03394 0.35402 0.0
C236 C 0.16309 0.07254 0.33503 0.0
C237 C 0.12956 0.09189 0.3594 0.0
C238 C 0.1116 0.07314 0.4031 0.0
C239 C 0.12711 0.035 0.4225 0.0
C240 C 0.16055 0.01547 0.39821 0.0
C241 C 0.39527 0.99408 0.38759 0.0
C242 C 0.39238 0.97328 0.4357 0.0
C243 C 0.36054 0.99736 0.35534 0.0
C244 C 0.32235 0.97931 0.37005 0.0
C245 C 0.31975 0.95723 0.41722 0.0
C246 C 0.35439 0.95428 0.44976 0.0
C247 C 0.28486 0.98504 0.33712 0.0
C248 C 0.24945 1.00348 0.35891 0.0
C249 C 0.28473 0.97492 0.28389 0.0
C250 C 0.32007 0.9531 0.25905 0.0
C251 C 0.33496 0.91461 0.27923 0.0
C252 C 0.36845 0.8944 0.25588 0.0
C253 C 0.38717 0.91223 0.21213 0.0
C254 C 0.37235 0.95026 0.19154 0.0
C255 C 0.33888 0.97062 0.21476 0.0
H256 H 0.4131 0.89653 0.19412 0.0
H257 H 0.08577 0.08823 0.42207 0.0
H258 H 0.05682 0.84264 0.94306 0.0
H259 H 0.04186 0.78304 0.88574 0.0
H260 H 0.93581 0.8491 0.82394 0.0
H261 H 0.9497 0.90816 0.88258 0.0
H262 H 0.91796 0.76799 0.82907 0.0
H263 H 0.02963 0.8488 0.75957 0.0
H264 H 0.09688 0.88662 0.75966 0.0
H265 H 0.15978 0.77022 0.79358 0.0
H266 H 0.09281 0.7318 0.79451 0.0
H267 H 0.92974 0.63137 0.59747 0.0
H268 H 0.92364 0.69199 0.65692 0.0
H269 H 0.01639 0.63673 0.75656 0.0
H270 H 0.02245 0.57688 0.6983 0.0
H271 H 0.03592 0.71881 0.72284 0.0
H272 H 0.91861 0.63999 0.7945 0.0
H273 H 0.84963 0.60583 0.78968 0.0
H274 H 0.79557 0.72383 0.74227 0.0
H275 H 0.86438 0.75856 0.7461 0.0
C276 C 0.03008 0.8443 0.91766 0.0
C277 C 0.00475 0.88033 0.91707 0.0
C278 C 0.02161 0.81028 0.8847 0.0
C279 C 0.98827 0.81195 0.84947 0.0
C280 C 0.96182 0.84707 0.85048 0.0
C281 C 0.96987 0.88087 0.88405 0.0
C282 C 0.98244 0.77796 0.81017 0.0
C283 C 0.94363 0.75761 0.80536 0.0
C284 C 0.01568 0.7646 0.77861 0.0
C285 C 0.05614 0.78747 0.77749 0.0
C286 C 0.05778 0.8313 0.76735 0.0
C287 C 0.09585 0.85285 0.7672 0.0
C288 C 0.13257 0.83085 0.77671 0.0
C289 C 0.1313 0.78723 0.78625 0.0
C290 C 0.09329 0.76554 0.78655 0.0
C291 C 0.94792 0.63177 0.63277 0.0
C292 C 0.97688 0.59962 0.64295 0.0
C293 C 0.94455 0.66641 0.66657 0.0
C294 C 0.96996 0.66905 0.71087 0.0
C295 C 0.99682 0.6356 0.7224 0.0
C296 C 1.00018 0.60134 0.68899 0.0
C297 C 0.97203 0.70778 0.74331 0.0
C298 C 0.0102 0.72937 0.74637 0.0
C299 C 0.93799 0.72269 0.77223 0.0
C300 C 0.89672 0.70173 0.76995 0.0
C301 C 0.89209 0.65855 0.78253 0.0
C302 C 0.853 0.63911 0.7801 0.0
C303 C 0.81826 0.6626 0.7655 0.0
C304 C 0.82252 0.70563 0.75346 0.0
C305 C 0.86155 0.72521 0.75578 0.0
H306 H 0.78803 0.64749 0.76366 0.0
H307 H 0.16201 0.84759 0.7766 0.0
H308 H 0.16597 0.97179 0.90178 0.0
H309 H 0.21936 0.9926 0.84046 0.0
H310 H 0.13428 0.07838 0.76581 0.0
H311 H 0.07973 0.05734 0.82797 0.0
H312 H 0.18945 0.02877 0.69649 0.0
H313 H 0.19808 0.12431 0.83768 0.0
H314 H 0.19694 0.14476 0.9296 0.0
H315 H 0.30416 0.06828 0.95906 0.0
H316 H 0.30556 0.04679 0.86749 0.0
H317 H 0.38663 0.08488 0.57907 0.0
H318 H 0.31966 0.09731 0.62146 0.0
H319 H 0.35514 0.01339 0.74591 0.0
H320 H 0.42153 1.00079 0.70395 0.0
H321 H 0.31677 0.08532 0.78089 0.0
H322 H 0.29712 0.97878 0.6457 0.0
H323 H 0.29538 0.95319 0.5557 0.0
H324 H 0.20769 0.04971 0.51532 0.0
H325 H 0.20935 0.07627 0.60507 0.0
C326 C 0.1583 0.99487 0.87215 0.0
C327 C 0.11881 0.01339 0.87015 0.0
C328 C 0.1889 1.00669 0.83707 0.0
C329 C 0.18101 0.03759 0.7993 0.0
C330 C 0.14095 0.05462 0.79498 0.0
C331 C 0.1099 0.04254 0.83032 0.0
C332 C 0.21608 0.0528 0.76704 0.0
C333 C 0.21693 0.04243 0.71438 0.0
C334 C 0.25194 0.07037 0.79063 0.0
C335 C 0.25187 0.0839 0.84563 0.0
C336 C 0.22132 0.1117 0.86378 0.0
C337 C 0.22063 0.12348 0.91585 0.0
C338 C 0.25046 0.10782 0.95015 0.0
C339 C 0.28111 0.08043 0.93242 0.0
C340 C 0.28191 0.06851 0.8804 0.0
C341 C 0.38039 0.06981 0.616 0.0
C342 C 0.40929 0.04182 0.63825 0.0
C343 C 0.34204 0.07669 0.63992 0.0
C344 C 0.3323 0.05599 0.6866 0.0
C345 C 0.36199 0.02971 0.70991 0.0
C346 C 0.39993 0.02248 0.68586 0.0
C347 C 0.2908 0.05954 0.71085 0.0
C348 C 0.28885 0.07336 0.76227 0.0
C349 C 0.25402 0.04529 0.68596 0.0
C350 C 0.25386 0.02992 0.63186 0.0
C351 C 0.2779 0.9949 0.61748 0.0
C352 C 0.27685 0.98017 0.56656 0.0
C353 C 0.25158 0.99994 0.5298 0.0
C354 C 0.22735 0.03455 0.54383 0.0
C355 C 0.22835 0.04945 0.5947 0.0
H356 H 0.25052 0.98828 0.49056 0.0
H357 H 0.24984 0.11693 0.99046 0.0
H358 H 0.93108 0.1593 0.89029 0.0
H359 H 0.95121 0.21745 0.83273 0.0
H360 H 0.08019 0.18654 0.85448 0.0
H361 H 0.0604 0.12796 0.91209 0.0
H362 H 0.06569 0.27405 0.85717 0.0
H363 H 0.03524 0.15639 0.74986 0.0
H364 H 0.99516 0.09611 0.71499 0.0
H365 H 0.89937 0.1807 0.66442 0.0
H366 H 0.93801 0.24133 0.70087 0.0
H367 H 0.12082 0.40883 0.63838 0.0
H368 H 0.11553 0.34832 0.6984 0.0
H369 H 0.98206 0.35607 0.69275 0.0
H370 H 0.98691 0.41583 0.6334 0.0
H371 H 0.00843 0.27548 0.6788 0.0
H372 H 0.03628 0.39143 0.79675 0.0
H373 H 0.07733 0.45131 0.83121 0.0
H374 H 0.18056 0.36871 0.85798 0.0
H375 H 0.14025 0.30842 0.82302 0.0
C376 C 0.96378 0.16495 0.88327 0.0
C377 C 0.99406 0.13875 0.90581 0.0
C378 C 0.97523 0.19818 0.85015 0.0
C379 C 0.01719 0.20612 0.8389 0.0
C380 C 0.04764 0.18098 0.86258 0.0
C381 C 0.0362 0.14743 0.89543 0.0
C382 C 0.02885 0.23996 0.80126 0.0
C383 C 0.05372 0.27406 0.8179 0.0
C384 C 0.01313 0.24004 0.75003 0.0
C385 C 0.98938 0.20346 0.72873 0.0
C386 C 0.00531 0.16212 0.73207 0.0
C387 C 0.98282 0.12784 0.71203 0.0
C388 C 0.9446 0.13451 0.68781 0.0
C389 C 0.92881 0.1755 0.68357 0.0
C390 C 0.95096 0.20984 0.70404 0.0
C391 C 0.09039 0.39776 0.65019 0.0
C392 C 0.05434 0.41726 0.63087 0.0
C393 C 0.08741 0.36322 0.68456 0.0
C394 C 0.04835 0.34761 0.7001 0.0
C395 C 0.01251 0.36734 0.68117 0.0
C396 C 0.01543 0.40173 0.64724 0.0
C397 C 0.04402 0.31028 0.73521 0.0
C398 C 0.02066 0.27532 0.71795 0.0
C399 C 0.06127 0.30936 0.78566 0.0
C400 C 0.08545 0.34555 0.80669 0.0
C401 C 0.06786 0.38612 0.80955 0.0
C402 C 0.09096 0.42012 0.82927 0.0
C403 C 0.13158 0.41385 0.84661 0.0
C404 C 0.14913 0.37354 0.84442 0.0
C405 C 0.12617 0.33945 0.82469 0.0
H406 H 0.14941 0.44021 0.86187 0.0
H407 H 0.92733 0.10794 0.67212 0.0
H408 H 0.92288 1.01218 0.80206 0.0
H409 H 0.87236 0.99244 0.73458 0.0
H410 H 0.78497 0.95441 0.8524 0.0
H411 H 0.83478 0.9736 0.91921 0.0
H412 H 0.78055 0.90114 0.77248 0.0
H413 H 0.78176 0.05197 0.80118 0.0
H414 H 0.81266 0.12361 0.80507 0.0
H415 H 0.84409 0.11668 0.64402 0.0
H416 H 0.81397 0.04456 0.63945 0.0
H417 H 0.57904 0.98021 0.70246 0.0
H418 H 0.6477 0.96577 0.73926 0.0
H419 H 0.69677 0.94833 0.58596 0.0
H420 H 0.62751 0.96105 0.54894 0.0
H421 H 0.73051 0.02034 0.66379 0.0
H422 H 0.71026 0.87126 0.63744 0.0
H423 H 0.67196 0.80341 0.64182 0.0
H424 H 0.6688 0.81126 0.80756 0.0
H425 H 0.7065 0.87954 0.80415 0.0
C426 C 0.89314 0.99894 0.81337 0.0
C427 C 0.88256 0.99511 0.86594 0.0
C428 C 0.86431 0.98775 0.77486 0.0
C429 C 0.82472 0.97226 0.78847 0.0
C430 C 0.81525 0.96619 0.84087 0.0
C431 C 0.8437 0.97762 0.8791 0.0
C432 C 0.79135 0.96599 0.74937 0.0
C433 C 0.76984 0.92707 0.74831 0.0
C434 C 0.77753 0.99968 0.71746 0.0
C435 C 0.79624 0.04267 0.72017 0.0
C436 C 0.79571 0.06553 0.76675 0.0
C437 C 0.813 0.10623 0.76907 0.0
C438 C 0.83044 0.12462 0.72487 0.0
C439 C 0.83067 0.10232 0.67827 0.0
C440 C 0.81356 0.06151 0.6758 0.0
C441 C 0.60415 0.97176 0.67679 0.0
C442 C 0.59802 0.97132 0.62301 0.0
C443 C 0.64329 0.96362 0.69777 0.0
C444 C 0.67714 0.95594 0.66527 0.0
C445 C 0.67085 0.9538 0.6116 0.0
C446 C 0.63132 0.96079 0.5906 0.0
C447 C 0.71945 0.95582 0.68769 0.0
C448 C 0.74228 0.99383 0.68619 0.0
C449 C 0.73382 0.92167 0.71817 0.0
C450 C 0.71093 0.88073 0.72047 0.0
C451 C 0.70101 0.85877 0.6748 0.0
C452 C 0.6795 0.82016 0.67712 0.0
C453 C 0.66788 0.80307 0.72493 0.0
C454 C 0.6778 0.82454 0.77054 0.0
C455 C 0.69929 0.86318 0.76843 0.0
H456 H 0.65126 0.77316 0.72665 0.0
H457 H 0.84355 0.15625 0.72676 0.0
loop_
_geom_bond_atom_site_label_1
_geom_bond_atom_site_label_2
_geom_bond_distance
_geom_bond_site_symmetry_2
_ccdc_geom_bond_type
Fe0 O1 1.906 . S
Fe0 O4 1.695 1_645 S
Fe0 O9 2.098 1_655 S
Fe0 O14 1.924 1_655 S
Fe0 O20 2.092 1_545 S
Fe0 O29 1.916 1_545 S
O1 Fe0 1.906 . S
O1 Fe3 1.715 . S
Fe2 O4 1.886 . S
Fe2 O5 1.715 1_554 S
Fe2 O12 1.935 1_554 S
Fe2 O13 2.077 . S
Fe2 O19 1.935 1_554 S
Fe2 O28 2.077 . S
Fe3 O1 1.715 . S
Fe3 O6 1.886 1_554 S
Fe3 O10 1.935 . S
Fe3 O15 2.077 1_554 S
Fe3 O21 1.935 . S
Fe3 O25 2.077 1_554 S
O4 Fe0 1.695 1_465 S
O4 Fe2 1.886 . S
O5 Fe2 1.715 1_556 S
O5 Fe7 1.906 . S
O6 Fe3 1.886 1_556 S
O6 Fe7 1.695 1_645 S
Fe7 O5 1.906 . S
Fe7 O6 1.695 1_465 S
Fe7 O11 2.098 1_565 S
Fe7 O16 1.924 1_565 S
Fe7 O18 2.092 1_455 S
Fe7 O26 1.916 1_455 S
C8 O20 1.381 1_545 S
C8 O21 1.421 . S
O9 Fe0 2.098 1_455 S
O9 C22 1.381 1_455 S
O10 Fe3 1.935 . S
O10 C22 1.421 . S
O11 Fe7 2.098 1_545 S
O11 C27 1.381 1_545 S
O12 Fe2 1.935 1_556 S
O12 C27 1.421 . S
O13 Fe2 2.077 . S
O13 C17 1.381 . S
O14 Fe0 1.924 1_455 S
O14 C17 1.421 1_545 S
O15 Fe3 2.077 1_556 S
O15 C23 1.381 . S
O16 Fe7 1.924 1_545 S
O16 C23 1.421 1_455 S
C17 O13 1.381 . S
C17 O14 1.421 1_565 S
O18 Fe7 2.092 1_655 S
O18 C30 1.381 1_655 S
O19 Fe2 1.935 1_556 S
O19 C30 1.421 . S
O20 Fe0 2.092 1_565 S
O20 C8 1.381 1_565 S
O21 Fe3 1.935 . S
O21 C8 1.421 . S
C22 O9 1.381 1_655 S
C22 O10 1.421 . S
C23 O15 1.381 . S
C23 O16 1.421 1_655 S
C24 O25 1.381 . S
C24 O26 1.421 1_545 S
O25 Fe3 2.077 1_556 S
O25 C24 1.381 . S
O26 Fe7 1.916 1_655 S
O26 C24 1.421 1_565 S
C27 O11 1.381 1_565 S
C27 O12 1.421 . S
O28 Fe2 2.077 . S
O28 C31 1.381 . S
O29 Fe0 1.916 1_565 S
O29 C31 1.421 1_655 S
C30 O18 1.381 1_455 S
C30 O19 1.421 . S
C31 O28 1.381 . S
C31 O29 1.421 1_455 S
Mg32 O39 2.141 . S
Mg32 O40 2.048 . S
Mg32 O41 2.048 . S
Mg32 O44 2.141 . S
C33 O34 1.313 . S
C33 O40 1.195 1_455 S
O34 C33 1.313 . S
C35 O36 1.245 . S
C35 O44 1.289 1_455 S
O36 C35 1.245 . S
C37 O38 1.245 . S
C37 O39 1.289 1_455 S
O38 C37 1.245 . S
O39 Mg32 2.141 . S
O39 C37 1.289 1_655 S
O40 Mg32 2.048 . S
O40 C33 1.195 1_655 S
O41 Mg32 2.048 . S
O41 C42 1.195 1_655 S
C42 O41 1.195 1_455 S
C42 O43 1.313 . S
O43 C42 1.313 . S
O44 Mg32 2.141 . S
O44 C35 1.289 1_655 S
Mg45 O52 2.141 . S
Mg45 O53 2.048 . S
Mg45 O54 2.048 . S
Mg45 O57 2.141 . S
C46 O47 1.313 . S
C46 O53 1.195 1_565 S
O47 C46 1.313 . S
C48 O49 1.245 . S
C48 O57 1.289 1_565 S
O49 C48 1.245 . S
C50 O51 1.245 . S
C50 O52 1.289 1_565 S
O51 C50 1.245 . S
O52 Mg45 2.141 . S
O52 C50 1.289 1_545 S
O53 Mg45 2.048 . S
O53 C46 1.195 1_545 S
O54 Mg45 2.048 . S
O54 C55 1.195 1_545 S
C55 O54 1.195 1_565 S
C55 O56 1.313 . S
O56 C55 1.313 . S
O57 Mg45 2.141 . S
O57 C48 1.289 1_545 S
H58 C76 0.951 . S
H59 C78 0.951 . S
H60 C80 0.950 . S
H61 C81 0.950 . S
H62 C83 0.950 . S
H63 C86 0.950 . S
H64 C87 0.950 . S
H65 C89 0.950 . S
H66 C90 0.950 . S
H67 C91 0.951 . S
H68 C93 0.951 . S
H69 C95 0.950 . S
H70 C96 0.950 . S
H71 C98 0.950 . S
H72 C101 0.950 . S
H73 C102 0.950 . S
H74 C104 0.950 . S
H75 C105 0.950 . S
C76 H58 0.951 . S
C76 C77 1.369 . S
C76 C78 1.388 . S
C77 C76 1.369 . S
C77 C81 1.381 1_455 S
C78 H59 0.951 . S
C78 C76 1.388 . S
C78 C79 1.366 1_455 S
C79 C78 1.366 1_655 S
C79 C80 1.414 . S
C79 C82 1.499 . S
C80 H60 0.950 . S
C80 C79 1.414 . S
C80 C81 1.374 . S
C81 H61 0.950 . S
C81 C77 1.381 1_655 S
C81 C80 1.374 . S
C82 C79 1.499 . S
C82 C83 1.373 . S
C82 C84 1.389 1_655 S
C83 H62 0.950 . S
C83 C82 1.373 . S
C83 C99 1.377 . S
C84 C82 1.389 1_455 S
C84 C85 1.524 . S
C84 C98 1.377 . S
C85 C84 1.524 . S
C85 C86 1.399 1_455 S
C85 C90 1.361 . S
C86 H63 0.950 . S
C86 C85 1.399 1_655 S
C86 C87 1.334 . S
C87 H64 0.950 . S
C87 C86 1.334 . S
C87 C88 1.287 . S
C88 C87 1.287 . S
C88 C89 1.524 1_655 S
C88 H107 0.913 . S
C89 H65 0.950 . S
C89 C88 1.524 1_455 S
C89 C90 1.415 . S
C90 H66 0.950 . S
C90 C85 1.361 . S
C90 C89 1.415 . S
C91 H67 0.951 . S
C91 C92 1.366 1_655 S
C91 C93 1.388 . S
C92 C91 1.366 1_455 S
C92 C96 1.384 . S
C93 H68 0.951 . S
C93 C91 1.388 . S
C93 C94 1.366 1_655 S
C94 C93 1.366 1_455 S
C94 C95 1.414 . S
C94 C97 1.499 . S
C95 H69 0.950 . S
C95 C94 1.414 . S
C95 C96 1.374 . S
C96 H70 0.950 . S
C96 C92 1.384 . S
C96 C95 1.374 . S
C97 C94 1.499 . S
C97 C98 1.373 . S
C97 C99 1.389 1_455 S
C98 H71 0.950 . S
C98 C84 1.377 . S
C98 C97 1.373 . S
C99 C83 1.377 . S
C99 C97 1.389 1_655 S
C99 C100 1.524 1_655 S
C100 C99 1.524 1_455 S
C100 C101 1.402 . S
C100 C105 1.358 1_455 S
C101 H72 0.950 . S
C101 C100 1.402 . S
C101 C102 1.334 . S
C102 H73 0.950 . S
C102 C101 1.334 . S
C102 C103 1.287 . S
C103 C102 1.287 . S
C103 C104 1.524 1_455 S
C103 H106 0.999 . S
C104 H74 0.950 . S
C104 C103 1.524 1_655 S
C104 C105 1.415 . S
C105 H75 0.950 . S
C105 C100 1.358 1_655 S
C105 C104 1.415 . S
H106 C103 0.999 . S
H107 C88 0.913 . S
H108 C126 0.951 . S
H109 C128 0.951 . S
H110 C130 0.950 . S
H111 C131 0.950 . S
H112 C133 0.950 . S
H113 C136 0.950 . S
H114 C137 0.950 . S
H115 C139 0.950 . S
H116 C140 0.950 . S
H117 C141 0.951 . S
H118 C143 0.951 . S
H119 C145 0.950 . S
H120 C146 0.950 . S
H121 C148 0.950 . S
H122 C151 0.950 . S
H123 C152 0.950 . S
H124 C154 0.950 . S
H125 C155 0.950 . S
C126 H108 0.951 . S
C126 C127 1.366 1_565 S
C126 C128 1.388 . S
C127 C126 1.366 1_545 S
C127 C131 1.384 . S
C128 H109 0.951 . S
C128 C126 1.388 . S
C128 C129 1.366 . S
C129 C128 1.366 . S
C129 C130 1.414 1_565 S
C129 C132 1.499 . S
C130 H110 0.950 . S
C130 C129 1.414 1_545 S
C130 C131 1.374 . S
C131 H111 0.950 . S
C131 C127 1.384 . S
C131 C130 1.374 . S
C132 C129 1.499 . S
C132 C133 1.373 1_565 S
C132 C134 1.389 . S
C133 H112 0.950 . S
C133 C132 1.373 1_545 S
C133 C149 1.377 . S
C134 C132 1.389 . S
C134 C135 1.524 . S
C134 C148 1.377 . S
C135 C134 1.524 . S
C135 C136 1.397 . S
C135 C140 1.363 . S
C136 H113 0.950 . S
C136 C135 1.397 . S
C136 C137 1.334 . S
C137 H114 0.950 . S
C137 C136 1.334 . S
C137 C138 1.287 . S
C138 C137 1.287 . S
C138 C139 1.524 . S
C138 H157 0.913 . S
C139 H115 0.950 . S
C139 C138 1.524 . S
C139 C140 1.415 . S
C140 H116 0.950 . S
C140 C135 1.363 . S
C140 C139 1.415 . S
C141 H117 0.951 . S
C141 C142 1.365 . S
C141 C143 1.388 . S
C142 C141 1.365 . S
C142 C146 1.385 1_545 S
C143 H118 0.951 . S
C143 C141 1.388 . S
C143 C144 1.366 . S
C144 C143 1.366 . S
C144 C145 1.414 1_545 S
C144 C147 1.499 . S
C145 H119 0.950 . S
C145 C144 1.414 1_565 S
C145 C146 1.374 . S
C146 H120 0.950 . S
C146 C142 1.385 1_565 S
C146 C145 1.374 . S
C147 C144 1.499 . S
C147 C148 1.373 1_545 S
C147 C149 1.389 . S
C148 H121 0.950 . S
C148 C134 1.377 . S
C148 C147 1.373 1_565 S
C149 C133 1.377 . S
C149 C147 1.389 . S
C149 C150 1.524 . S
C150 C149 1.524 . S
C150 C151 1.397 . S
C150 C155 1.363 . S
C151 H122 0.950 . S
C151 C150 1.397 . S
C151 C152 1.334 . S
C152 H123 0.950 . S
C152 C151 1.334 . S
C152 C153 1.287 . S
C153 C152 1.287 . S
C153 C154 1.524 . S
C153 H156 0.999 . S
C154 H124 0.950 . S
C154 C153 1.524 . S
C154 C155 1.415 . S
C155 H125 0.950 . S
C155 C150 1.363 . S
C155 C154 1.415 . S
H156 C153 0.999 . S
H157 C138 0.913 . S
H158 C176 0.951 . S
H159 C178 0.951 . S
H160 C180 0.950 . S
H161 C181 0.950 . S
H162 C183 0.950 . S
H163 C186 0.950 . S
H164 C187 0.950 . S
H165 C189 0.950 . S
H166 C190 0.950 . S
H167 C191 0.951 . S
H168 C193 0.951 . S
H169 C195 0.950 . S
H170 C196 0.950 . S
H171 C198 0.950 . S
H172 C201 0.950 . S
H173 C202 0.950 . S
H174 C204 0.950 . S
H175 C205 0.950 . S
C176 H158 0.951 . S
C176 C177 1.365 . S
C176 C178 1.388 . S
C177 C176 1.365 . S
C177 C181 1.385 1_655 S
C178 H159 0.951 . S
C178 C176 1.388 . S
C178 C179 1.366 1_655 S
C179 C178 1.366 1_455 S
C179 C180 1.414 . S
C179 C182 1.499 . S
C180 H160 0.950 . S
C180 C179 1.414 . S
C180 C181 1.374 . S
C181 H161 0.950 . S
C181 C177 1.385 1_455 S
C181 C180 1.374 . S
C182 C179 1.499 . S
C182 C183 1.373 1_455 S
C182 C184 1.389 . S
C183 H162 0.950 . S
C183 C182 1.373 1_655 S
C183 C199 1.377 . S
C184 C182 1.389 . S
C184 C185 1.524 . S
C184 C198 1.377 . S
C185 C184 1.524 . S
C185 C186 1.397 . S
C185 C190 1.363 1_455 S
C186 H163 0.950 . S
C186 C185 1.397 . S
C186 C187 1.334 . S
C187 H164 0.950 . S
C187 C186 1.334 . S
C187 C188 1.287 . S
C188 C187 1.287 . S
C188 C189 1.524 1_455 S
C188 H207 0.913 . S
C189 H165 0.950 . S
C189 C188 1.524 1_655 S
C189 C190 1.415 . S
C190 H166 0.950 . S
C190 C185 1.363 1_655 S
C190 C189 1.415 . S
C191 H167 0.951 . S
C191 C192 1.366 . S
C191 C193 1.388 . S
C192 C191 1.366 . S
C192 C196 1.384 1_455 S
C193 H168 0.951 . S
C193 C191 1.388 . S
C193 C194 1.366 1_455 S
C194 C193 1.366 1_655 S
C194 C195 1.414 . S
C194 C197 1.499 . S
C195 H169 0.950 . S
C195 C194 1.414 . S
C195 C196 1.374 . S
C196 H170 0.950 . S
C196 C192 1.384 1_655 S
C196 C195 1.374 . S
C197 C194 1.499 . S
C197 C198 1.373 1_655 S
C197 C199 1.389 . S
C198 H171 0.950 . S
C198 C184 1.377 . S
C198 C197 1.373 1_455 S
C199 C183 1.377 . S
C199 C197 1.389 . S
C199 C200 1.524 . S
C200 C199 1.524 . S
C200 C201 1.397 . S
C200 C205 1.363 1_655 S
C201 H172 0.950 . S
C201 C200 1.397 . S
C201 C202 1.334 . S
C202 H173 0.950 . S
C202 C201 1.334 . S
C202 C203 1.287 . S
C203 C202 1.287 . S
C203 C204 1.524 1_655 S
C203 H206 0.999 . S
C204 H174 0.950 . S
C204 C203 1.524 1_455 S
C204 C205 1.415 . S
C205 H175 0.950 . S
C205 C200 1.363 1_455 S
C205 C204 1.415 . S
H206 C203 0.999 . S
H207 C188 0.913 . S
H208 C226 0.951 . S
H209 C228 0.951 . S
H210 C230 0.950 . S
H211 C231 0.950 . S
H212 C233 0.950 . S
H213 C236 0.950 . S
H214 C237 0.950 . S
H215 C239 0.950 . S
H216 C240 0.950 . S
H217 C241 0.951 . S
H218 C243 0.951 . S
H219 C245 0.950 . S
H220 C246 0.950 . S
H221 C248 0.950 . S
H222 C251 0.950 . S
H223 C252 0.950 . S
H224 C254 0.950 . S
H225 C255 0.950 . S
C226 H208 0.951 . S
C226 C227 1.363 1_565 S
C226 C228 1.388 . S
C227 C226 1.363 1_545 S
C227 C231 1.387 . S
C228 H209 0.951 . S
C228 C226 1.388 . S
C228 C229 1.366 1_565 S
C229 C228 1.366 1_545 S
C229 C230 1.414 . S
C229 C232 1.499 . S
C230 H210 0.950 . S
C230 C229 1.414 . S
C230 C231 1.374 . S
C231 H211 0.950 . S
C231 C227 1.387 . S
C231 C230 1.374 . S
C232 C229 1.499 . S
C232 C233 1.373 . S
C232 C234 1.389 1_545 S
C233 H212 0.950 . S
C233 C232 1.373 . S
C233 C249 1.377 . S
C234 C232 1.389 1_565 S
C234 C235 1.524 . S
C234 C248 1.377 . S
C235 C234 1.524 . S
C235 C236 1.397 1_565 S
C235 C240 1.363 . S
C236 H213 0.950 . S
C236 C235 1.397 1_545 S
C236 C237 1.334 . S
C237 H214 0.950 . S
C237 C236 1.334 . S
C237 C238 1.271 1_545 S
C238 C237 1.271 1_565 S
C238 C239 1.542 . S
C238 H257 0.913 . S
C239 H215 0.950 . S
C239 C238 1.542 . S
C239 C240 1.415 . S
C240 H216 0.950 . S
C240 C235 1.363 . S
C240 C239 1.415 . S
C241 H217 0.951 . S
C241 C242 1.366 . S
C241 C243 1.388 . S
C242 C241 1.366 . S
C242 C246 1.384 1_545 S
C243 H218 0.951 . S
C243 C241 1.388 . S
C243 C244 1.366 1_545 S
C244 C243 1.366 1_565 S
C244 C245 1.414 . S
C244 C247 1.499 . S
C245 H219 0.950 . S
C245 C244 1.414 . S
C245 C246 1.374 . S
C246 H220 0.950 . S
C246 C242 1.384 1_565 S
C246 C245 1.374 . S
C247 C244 1.499 . S
C247 C248 1.373 . S
C247 C249 1.389 1_565 S
C248 H221 0.950 . S
C248 C234 1.377 . S
C248 C247 1.373 . S
C249 C233 1.377 . S
C249 C247 1.389 1_545 S
C249 C250 1.524 . S
C250 C249 1.524 . S
C250 C251 1.397 1_545 S
C250 C255 1.363 . S
C251 H222 0.950 . S
C251 C250 1.397 1_565 S
C251 C252 1.334 . S
C252 H223 0.950 . S
C252 C251 1.334 . S
C252 C253 1.287 1_565 S
C253 C252 1.287 1_545 S
C253 C254 1.524 . S
C253 H256 0.999 . S
C254 H224 0.950 . S
C254 C253 1.524 . S
C254 C255 1.415 . S
C255 H225 0.950 . S
C255 C250 1.363 . S
C255 C254 1.415 . S
H256 C253 0.999 . S
H257 C238 0.913 . S
H258 C276 0.951 . S
H259 C278 0.951 . S
H260 C280 0.950 . S
H261 C281 0.950 . S
H262 C283 0.950 . S
H263 C286 0.950 . S
H264 C287 0.950 . S
H265 C289 0.950 . S
H266 C290 0.950 . S
H267 C291 0.951 . S
H268 C293 0.951 . S
H269 C295 0.950 . S
H270 C296 0.950 . S
H271 C298 0.950 . S
H272 C301 0.950 . S
H273 C302 0.950 . S
H274 C304 0.950 . S
H275 C305 0.950 . S
C276 H258 0.951 . S
C276 C277 1.366 1_455 S
C276 C278 1.388 . S
C277 C276 1.366 1_655 S
C277 C281 1.385 . S
C278 H259 0.951 . S
C278 C276 1.388 . S
C278 C279 1.366 . S
C279 C278 1.366 . S
C279 C280 1.414 1_455 S
C279 C282 1.499 . S
C280 H260 0.950 . S
C280 C279 1.414 1_655 S
C280 C281 1.374 . S
C281 H261 0.950 . S
C281 C277 1.385 . S
C281 C280 1.374 . S
C282 C279 1.499 . S
C282 C283 1.373 1_455 S
C282 C284 1.389 . S
C283 H262 0.950 . S
C283 C282 1.373 1_655 S
C283 C299 1.377 . S
C284 C282 1.389 . S
C284 C285 1.524 . S
C284 C298 1.377 . S
C285 C284 1.524 . S
C285 C286 1.397 . S
C285 C290 1.363 . S
C286 H263 0.950 . S
C286 C285 1.397 . S
C286 C287 1.334 . S
C287 H264 0.950 . S
C287 C286 1.334 . S
C287 C288 1.287 . S
C288 C287 1.287 . S
C288 C289 1.524 . S
C288 H307 0.913 . S
C289 H265 0.950 . S
C289 C288 1.524 . S
C289 C290 1.415 . S
C290 H266 0.950 . S
C290 C285 1.363 . S
C290 C289 1.415 . S
C291 H267 0.951 . S
C291 C292 1.365 1_655 S
C291 C293 1.388 . S
C292 C291 1.365 1_455 S
C292 C296 1.385 . S
C293 H268 0.951 . S
C293 C291 1.388 . S
C293 C294 1.366 . S
C294 C293 1.366 . S
C294 C295 1.414 1_655 S
C294 C297 1.499 . S
C295 H269 0.950 . S
C295 C294 1.414 1_455 S
C295 C296 1.374 . S
C296 H270 0.950 . S
C296 C292 1.385 . S
C296 C295 1.374 . S
C297 C294 1.499 . S
C297 C298 1.373 1_655 S
C297 C299 1.389 . S
C298 H271 0.950 . S
C298 C284 1.377 . S
C298 C297 1.373 1_455 S
C299 C283 1.377 . S
C299 C297 1.389 . S
C299 C300 1.524 . S
C300 C299 1.524 . S
C300 C301 1.397 . S
C300 C305 1.363 . S
C301 H272 0.950 . S
C301 C300 1.397 . S
C301 C302 1.334 . S
C302 H273 0.950 . S
C302 C301 1.334 . S
C302 C303 1.287 . S
C303 C302 1.287 . S
C303 C304 1.524 . S
C303 H306 0.999 . S
C304 H274 0.950 . S
C304 C303 1.524 . S
C304 C305 1.415 . S
C305 H275 0.950 . S
C305 C300 1.363 . S
C305 C304 1.415 . S
H306 C303 0.999 . S
H307 C288 0.913 . S
H308 C326 0.951 . S
H309 C328 0.951 . S
H310 C330 0.950 . S
H311 C331 0.950 . S
H312 C333 0.950 . S
H313 C336 0.950 . S
H314 C337 0.950 . S
H315 C339 0.950 . S
H316 C340 0.950 . S
H317 C341 0.951 . S
H318 C343 0.951 . S
H319 C345 0.950 . S
H320 C346 0.950 . S
H321 C348 0.950 . S
H322 C351 0.950 . S
H323 C352 0.950 . S
H324 C354 0.950 . S
H325 C355 0.950 . S
C326 H308 0.951 . S
C326 C327 1.363 1_565 S
C326 C328 1.388 . S
C327 C326 1.363 1_545 S
C327 C331 1.387 . S
C328 H309 0.951 . S
C328 C326 1.388 . S
C328 C329 1.366 1_565 S
C329 C328 1.366 1_545 S
C329 C330 1.414 . S
C329 C332 1.499 . S
C330 H310 0.950 . S
C330 C329 1.414 . S
C330 C331 1.374 . S
C331 H311 0.950 . S
C331 C327 1.387 . S
C331 C330 1.374 . S
C332 C329 1.499 . S
C332 C333 1.373 . S
C332 C334 1.388 1_545 S
C333 H312 0.950 . S
C333 C332 1.373 . S
C333 C349 1.379 . S
C334 C332 1.388 1_565 S
C334 C335 1.524 1_565 S
C334 C348 1.378 . S
C335 C334 1.524 1_545 S
C335 C336 1.397 . S
C335 C340 1.363 1_545 S
C336 H313 0.950 . S
C336 C335 1.397 . S
C336 C337 1.334 . S
C337 H314 0.950 . S
C337 C336 1.334 . S
C337 C338 1.287 . S
C338 C337 1.287 . S
C338 C339 1.524 1_545 S
C338 H357 0.913 . S
C339 H315 0.950 . S
C339 C338 1.524 1_565 S
C339 C340 1.415 . S
C340 H316 0.950 . S
C340 C335 1.363 1_565 S
C340 C339 1.415 . S
C341 H317 0.951 . S
C341 C342 1.366 . S
C341 C343 1.388 . S
C342 C341 1.366 . S
C342 C346 1.384 1_545 S
C343 H318 0.951 . S
C343 C341 1.388 . S
C343 C344 1.366 1_545 S
C344 C343 1.366 1_565 S
C344 C345 1.414 . S
C344 C347 1.499 . S
C345 H319 0.950 . S
C345 C344 1.414 . S
C345 C346 1.374 . S
C346 H320 0.950 . S
C346 C342 1.384 1_565 S
C346 C345 1.374 . S
C347 C344 1.499 . S
C347 C348 1.373 . S
C347 C349 1.387 1_565 S
C348 H321 0.950 . S
C348 C334 1.378 . S
C348 C347 1.373 . S
C349 C333 1.379 . S
C349 C347 1.387 1_545 S
C349 C350 1.524 1_545 S
C350 C349 1.524 1_565 S
C350 C351 1.397 . S
C350 C355 1.363 1_565 S
C351 H322 0.950 . S
C351 C350 1.397 . S
C351 C352 1.334 . S
C352 H323 0.950 . S
C352 C351 1.334 . S
C352 C353 1.287 . S
C353 C352 1.287 . S
C353 C354 1.524 1_565 S
C353 H356 0.999 . S
C354 H324 0.950 . S
C354 C353 1.524 1_545 S
C354 C355 1.415 . S
C355 H325 0.950 . S
C355 C350 1.363 1_545 S
C355 C354 1.415 . S
H356 C353 0.999 . S
H357 C338 0.913 . S
H358 C376 0.951 . S
H359 C378 0.951 . S
H360 C380 0.950 . S
H361 C381 0.950 . S
H362 C383 0.950 . S
H363 C386 0.950 . S
H364 C387 0.950 . S
H365 C389 0.950 . S
H366 C390 0.950 . S
H367 C391 0.951 . S
H368 C393 0.951 . S
H369 C395 0.950 . S
H370 C396 0.950 . S
H371 C398 0.950 . S
H372 C401 0.950 . S
H373 C402 0.950 . S
H374 C404 0.950 . S
H375 C405 0.950 . S
C376 H358 0.951 . S
C376 C377 1.361 1_655 S
C376 C378 1.388 . S
C377 C376 1.361 1_455 S
C377 C381 1.389 . S
C378 H359 0.951 . S
C378 C376 1.388 . S
C378 C379 1.368 . S
C379 C378 1.368 . S
C379 C380 1.411 1_655 S
C379 C382 1.499 1_655 S
C380 H360 0.950 . S
C380 C379 1.411 1_455 S
C380 C381 1.374 . S
C381 H361 0.950 . S
C381 C377 1.389 . S
C381 C380 1.374 . S
C382 C379 1.499 1_455 S
C382 C383 1.392 . S
C382 C384 1.370 1_455 S
C383 H362 0.950 . S
C383 C382 1.392 . S
C383 C399 1.377 . S
C384 C382 1.370 1_655 S
C384 C385 1.524 . S
C384 C398 1.377 . S
C385 C384 1.524 . S
C385 C386 1.397 . S
C385 C390 1.363 . S
C386 H363 0.950 . S
C386 C385 1.397 . S
C386 C387 1.334 . S
C387 H364 0.950 . S
C387 C386 1.334 . S
C387 C388 1.287 . S
C388 C387 1.287 . S
C388 C389 1.524 . S
C388 H407 0.913 . S
C389 H365 0.950 . S
C389 C388 1.524 . S
C389 C390 1.415 . S
C390 H366 0.950 . S
C390 C385 1.363 . S
C390 C389 1.415 . S
C391 H367 0.951 . S
C391 C392 1.365 . S
C391 C393 1.388 . S
C392 C391 1.365 . S
C392 C396 1.385 1_455 S
C393 H368 0.951 . S
C393 C391 1.388 . S
C393 C394 1.378 . S
C394 C393 1.378 . S
C394 C395 1.401 1_455 S
C394 C397 1.499 1_455 S
C395 H369 0.950 . S
C395 C394 1.401 1_655 S
C395 C396 1.374 . S
C396 H370 0.950 . S
C396 C392 1.385 1_655 S
C396 C395 1.374 . S
C397 C394 1.499 1_655 S
C397 C398 1.384 . S
C397 C399 1.378 1_655 S
C398 H371 0.950 . S
C398 C384 1.377 . S
C398 C397 1.384 . S
C399 C383 1.377 . S
C399 C397 1.378 1_455 S
C399 C400 1.524 . S
C400 C399 1.524 . S
C400 C401 1.397 . S
C400 C405 1.363 . S
C401 H372 0.950 . S
C401 C400 1.397 . S
C401 C402 1.334 . S
C402 H373 0.950 . S
C402 C401 1.334 . S
C402 C403 1.287 . S
C403 C402 1.287 . S
C403 C404 1.524 . S
C403 H406 0.999 . S
C404 H374 0.950 . S
C404 C403 1.524 . S
C404 C405 1.415 . S
C405 H375 0.950 . S
C405 C400 1.363 . S
C405 C404 1.415 . S
H406 C403 0.999 . S
H407 C388 0.913 . S
H408 C426 0.951 . S
H409 C428 0.951 . S
H410 C430 0.950 . S
H411 C431 0.950 . S
H412 C433 0.950 . S
H413 C436 0.950 . S
H414 C437 0.950 . S
H415 C439 0.950 . S
H416 C440 0.950 . S
H417 C441 0.951 . S
H418 C443 0.951 . S
H419 C445 0.950 . S
H420 C446 0.950 . S
H421 C448 0.950 . S
H422 C451 0.950 . S
H423 C452 0.950 . S
H424 C454 0.950 . S
H425 C455 0.950 . S
C426 H408 0.951 . S
C426 C427 1.366 1_545 S
C426 C428 1.388 . S
C427 C426 1.366 1_565 S
C427 C431 1.385 . S
C428 H409 0.951 . S
C428 C426 1.388 . S
C428 C429 1.366 . S
C429 C428 1.366 . S
C429 C430 1.414 1_545 S
C429 C432 1.499 . S
C430 H410 0.950 . S
C430 C429 1.414 1_565 S
C430 C431 1.374 . S
C431 H411 0.950 . S
C431 C427 1.385 . S
C431 C430 1.374 . S
C432 C429 1.499 . S
C432 C433 1.373 1_545 S
C432 C434 1.389 . S
C433 H412 0.950 . S
C433 C432 1.373 1_565 S
C433 C449 1.377 . S
C434 C432 1.389 . S
C434 C435 1.524 . S
C434 C448 1.377 . S
C435 C434 1.524 . S
C435 C436 1.397 . S
C435 C440 1.363 . S
C436 H413 0.950 . S
C436 C435 1.397 . S
C436 C437 1.334 . S
C437 H414 0.950 . S
C437 C436 1.334 . S
C437 C438 1.287 . S
C438 C437 1.287 . S
C438 C439 1.524 . S
C438 H457 0.913 . S
C439 H415 0.950 . S
C439 C438 1.524 . S
C439 C440 1.415 . S
C440 H416 0.950 . S
C440 C435 1.363 . S
C440 C439 1.415 . S
C441 H417 0.951 . S
C441 C442 1.365 1_565 S
C441 C443 1.388 . S
C442 C441 1.365 1_545 S
C442 C446 1.385 . S
C443 H418 0.951 . S
C443 C441 1.388 . S
C443 C444 1.366 . S
C444 C443 1.366 . S
C444 C445 1.414 1_565 S
C444 C447 1.499 . S
C445 H419 0.950 . S
C445 C444 1.414 1_545 S
C445 C446 1.374 . S
C446 H420 0.950 . S
C446 C442 1.385 . S
C446 C445 1.374 . S
C447 C444 1.499 . S
C447 C448 1.373 1_565 S
C447 C449 1.389 . S
C448 H421 0.950 . S
C448 C434 1.377 . S
C448 C447 1.373 1_545 S
C449 C433 1.377 . S
C449 C447 1.389 . S
C449 C450 1.524 . S
C450 C449 1.524 . S
C450 C451 1.397 . S
C450 C455 1.363 . S
C451 H422 0.950 . S
C451 C450 1.397 . S
C451 C452 1.334 . S
C452 H423 0.950 . S
C452 C451 1.334 . S
C452 C453 1.287 . S
C453 C452 1.287 . S
C453 C454 1.524 . S
C453 H456 0.999 . S
C454 H424 0.950 . S
C454 C453 1.524 . S
C454 C455 1.415 . S
C455 H425 0.950 . S
C455 C450 1.363 . S
C455 C454 1.415 . S
H456 C453 0.999 . S
H457 C438 0.913 . S
C77 C22 1.405 1_455 S
C92 C33 1.451 . S
C127 C8 1.405 . S
C142 C55 1.453 1_545 S
C177 C31 1.403 1_655 S
C192 C42 1.453 . S
C227 C17 1.402 1_545 S
C242 C46 1.451 1_545 S
C277 C30 1.328 1_655 S
C292 C35 1.368 . S
C327 C27 1.326 1_545 S
C342 C50 1.366 1_545 S
C392 C37 1.367 . S
C377 C23 1.322 1_455 S
C427 C24 1.324 1_565 S
C442 C48 1.368 1_545 S
