# Generated by pormake.
# Topology pyr, (3,6)-cn, num edge types: 1
# Building blocks:
#     Node 0, Type 0, BuildingBlock: WUSLED_clean_sbu_0, # of connection points: 3
#     Node 1, Type 0, BuildingBlock: WUSLED_clean_sbu_0, # of connection points: 3
#     Node 2, Type 0, BuildingBlock: WUSLED_clean_sbu_0, # of connection points: 3
#     Node 3, Type 0, BuildingBlock: WUSLED_clean_sbu_0, # of connection points: 3
#     Node 4, Type 0, BuildingBlock: WUSLED_clean_sbu_0, # of connection points: 3
#     Node 5, Type 0, BuildingBlock: WUSLED_clean_sbu_0, # of connection points: 3
#     Node 6, Type 0, BuildingBlock: WUSLED_clean_sbu_0, # of connection points: 3
#     Node 7, Type 0, BuildingBlock: WUSLED_clean_sbu_0, # of connection points: 3
#     Node 8, Type 1, BuildingBlock: PAMTOO_clean_sbu_0, # of connection points: 6
#     Node 9, Type 1, BuildingBlock: PAMTOO_clean_sbu_0, # of connection points: 6
#     Node 10, Type 1, BuildingBlock: PAMTOO_clean_sbu_0, # of connection points: 6
#     Node 11, Type 1, BuildingBlock: PAMTOO_clean_sbu_0, # of connection points: 6
#     Edge 12, Type (0, 1), BuildingBlock: EZIPEK_clean_linker_0, # of connection points: 2
#     Edge 13, Type (0, 1), BuildingBlock: EZIPEK_clean_linker_0, # of connection points: 2
#     Edge 14, Type (0, 1), BuildingBlock: EZIPEK_clean_linker_0, # of connection points: 2
#     Edge 15, Type (0, 1), BuildingBlock: EZIPEK_clean_linker_0, # of connection points: 2
#     Edge 16, Type (0, 1), BuildingBlock: EZIPEK_clean_linker_0, # of connection points: 2
#     Edge 17, Type (0, 1), BuildingBlock: EZIPEK_clean_linker_0, # of connection points: 2
#     Edge 18, Type (0, 1), BuildingBlock: EZIPEK_clean_linker_0, # of connection points: 2
#     Edge 19, Type (0, 1), BuildingBlock: EZIPEK_clean_linker_0, # of connection points: 2
#     Edge 20, Type (0, 1), BuildingBlock: EZIPEK_clean_linker_0, # of connection points: 2
#     Edge 21, Type (0, 1), BuildingBlock: EZIPEK_clean_linker_0, # of connection points: 2
#     Edge 22, Type (0, 1), BuildingBlock: EZIPEK_clean_linker_0, # of connection points: 2
#     Edge 23, Type (0, 1), BuildingBlock: EZIPEK_clean_linker_0, # of connection points: 2
#     Edge 24, Type (0, 1), BuildingBlock: EZIPEK_clean_linker_0, # of connection points: 2
#     Edge 25, Type (0, 1), BuildingBlock: EZIPEK_clean_linker_0, # of connection points: 2
#     Edge 26, Type (0, 1), BuildingBlock: EZIPEK_clean_linker_0, # of connection points: 2
#     Edge 27, Type (0, 1), BuildingBlock: EZIPEK_clean_linker_0, # of connection points: 2
#     Edge 28, Type (0, 1), BuildingBlock: EZIPEK_clean_linker_0, # of connection points: 2
#     Edge 29, Type (0, 1), BuildingBlock: EZIPEK_clean_linker_0, # of connection points: 2
#     Edge 30, Type (0, 1), BuildingBlock: EZIPEK_clean_linker_0, # of connection points: 2
#     Edge 31, Type (0, 1), BuildingBlock: EZIPEK_clean_linker_0, # of connection points: 2
#     Edge 32, Type (0, 1), BuildingBlock: EZIPEK_clean_linker_0, # of connection points: 2
#     Edge 33, Type (0, 1), BuildingBlock: EZIPEK_clean_linker_0, # of connection points: 2
#     Edge 34, Type (0, 1), BuildingBlock: EZIPEK_clean_linker_0, # of connection points: 2
#     Edge 35, Type (0, 1), BuildingBlock: EZIPEK_clean_linker_0, # of connection points: 2
# Relax obj value: 0.108
# Max RMSD: 0.168
# Mean RMSD: 0.068
data_MOF--net-pyr--node1-WUSLED_clean_sbu_0--node2-PAMTOO_clean_sbu_0--edge1-EZIPEK_clean_linker_0
_symmetry_space_group_name_H-M    P1
_symmetry_Int_Tables_number       1
_symmetry_cell_setting            triclinic
loop_
_symmetry_equiv_pos_as_xyz
'x, y, z'
_cell_length_a     37.965675
_cell_length_b     40.648373
_cell_length_c     40.686641
_cell_angle_alpha  89.891731
_cell_angle_beta   90.300086
_cell_angle_gamma 103.37315
loop_
_atom_site_label
_atom_site_type_symbol
_atom_site_fract_x
_atom_site_fract_y
_atom_site_fract_z
_atom_type_partial_charge
C0 C 0.32389 0.34535 0.16795 0.0
C1 C 0.29432 0.33992 0.18959 0.0
C2 C 0.26759 0.37907 0.15848 0.0
C3 C 0.26631 0.35651 0.18479 0.0
C4 C 0.29819 0.38619 0.13809 0.0
C5 C 0.32618 0.36932 0.14275 0.0
U6 U 0.35824 0.28195 0.21711 0.0
O7 O 0.36133 0.2299 0.20636 0.0
O8 O 0.4103 0.26687 0.22268 0.0
C9 C 0.39592 0.23549 0.21374 0.0
C10 C 0.3499 0.32344 0.17 0.0
C11 C 0.4173 0.21716 0.19382 0.0
C12 C 0.45988 0.21276 0.1505 0.0
C13 C 0.44154 0.23248 0.16926 0.0
C14 C 0.4304 0.16291 0.18127 0.0
C15 C 0.45382 0.17771 0.15615 0.0
C16 C 0.41237 0.18245 0.19992 0.0
C17 C 0.31049 0.25946 0.29865 0.0
C18 C 0.29531 0.20235 0.3205 0.0
C19 C 0.27739 0.24786 0.34964 0.0
C20 C 0.29435 0.27084 0.3259 0.0
C21 C 0.27644 0.21336 0.3462 0.0
C22 C 0.31241 0.22537 0.29681 0.0
C23 C 0.31932 0.28167 0.27003 0.0
O24 O 0.37548 0.33157 0.19251 0.0
O25 O 0.33449 0.29098 0.16964 0.0
O26 O 0.30627 0.26747 0.24223 0.0
O27 O 0.3528 0.29961 0.26777 0.0
H28 H 0.29203 0.32159 0.20926 0.0
H29 H 0.24283 0.35055 0.20063 0.0
H30 H 0.2995 0.40346 0.11759 0.0
H31 H 0.34876 0.37392 0.12587 0.0
H32 H 0.47795 0.22453 0.13114 0.0
H33 H 0.4458 0.25929 0.16431 0.0
H34 H 0.42541 0.13597 0.18593 0.0
H35 H 0.39395 0.17024 0.21889 0.0
H36 H 0.29466 0.17572 0.31759 0.0
H37 H 0.26292 0.25658 0.36947 0.0
H38 H 0.29269 0.29703 0.32764 0.0
H39 H 0.32484 0.21619 0.27587 0.0
C40 C 0.11965 0.82169 0.66151 0.0
C41 C 0.10444 0.83789 0.68649 0.0
C42 C 0.0896 0.87725 0.64651 0.0
C43 C 0.08917 0.86533 0.67897 0.0
C44 C 0.10439 0.86072 0.62166 0.0
C45 C 0.11924 0.8332 0.62908 0.0
U46 U 0.17797 0.78784 0.72127 0.0
O47 O 0.18847 0.73752 0.73183 0.0
O48 O 0.23269 0.77969 0.71606 0.0
C49 C 0.22316 0.74786 0.72505 0.0
C50 C 0.14016 0.79594 0.66925 0.0
C51 C 0.24176 0.72488 0.70806 0.0
C52 C 0.24824 0.68626 0.66406 0.0
C53 C 0.22734 0.70543 0.68054 0.0
C54 C 0.29735 0.70556 0.70284 0.0
C55 C 0.28376 0.68697 0.67476 0.0
C56 C 0.27652 0.72422 0.71935 0.0
C57 C 0.20177 0.83566 0.80012 0.0
C58 C 0.25017 0.82299 0.83359 0.0
C59 C 0.23498 0.87763 0.83781 0.0
C60 C 0.20751 0.86765 0.8146 0.0
C61 C 0.25698 0.85569 0.84684 0.0
C62 C 0.22286 0.81311 0.81001 0.0
C63 C 0.1786 0.82866 0.77096 0.0
O64 O 0.17523 0.80824 0.67162 0.0
O65 O 0.12717 0.77407 0.69264 0.0
O66 O 0.15628 0.79865 0.76924 0.0
O67 O 0.19628 0.83781 0.74362 0.0
H68 H 0.10503 0.82979 0.71183 0.0
H69 H 0.07745 0.87749 0.69839 0.0
H70 H 0.10462 0.86933 0.59642 0.0
H71 H 0.13127 0.82141 0.60958 0.0
H72 H 0.23732 0.67191 0.64243 0.0
H73 H 0.20053 0.70566 0.67147 0.0
H74 H 0.32455 0.70627 0.71154 0.0
H75 H 0.28804 0.739 0.74059 0.0
H76 H 0.26681 0.80574 0.84057 0.0
H77 H 0.23981 0.90288 0.84807 0.0
H78 H 0.19187 0.88549 0.80682 0.0
H79 H 0.2192 0.78852 0.79853 0.0
C80 C 0.61849 0.41398 0.78015 0.0
C81 C 0.63788 0.44727 0.77333 0.0
C82 C 0.60039 0.45004 0.72404 0.0
C83 C 0.629 0.46502 0.74554 0.0
C84 C 0.58106 0.41694 0.73119 0.0
C85 C 0.59001 0.39928 0.75865 0.0
U86 U 0.65883 0.37517 0.8618 0.0
O87 O 0.62058 0.3445 0.898 0.0
O88 O 0.65383 0.3201 0.8662 0.0
C89 C 0.62846 0.31608 0.88871 0.0
C90 C 0.62615 0.39341 0.80909 0.0
C91 C 0.61939 0.28418 0.90891 0.0
C92 C 0.57296 0.23937 0.93461 0.0
C93 C 0.58324 0.27083 0.91843 0.0
C94 C 0.63483 0.23373 0.93281 0.0
C95 C 0.59853 0.22022 0.94187 0.0
C96 C 0.6451 0.26519 0.91643 0.0
C97 C 0.75112 0.42456 0.90797 0.0
C98 C 0.79087 0.41346 0.95235 0.0
C99 C 0.80694 0.46573 0.92269 0.0
C100 C 0.77502 0.45619 0.9039 0.0
C101 C 0.81797 0.44334 0.94526 0.0
C102 C 0.7587 0.40375 0.93334 0.0
C103 C 0.71922 0.41512 0.88507 0.0
O104 O 0.65158 0.37636 0.80752 0.0
O105 O 0.61983 0.40197 0.83924 0.0
O106 O 0.68672 0.41621 0.89533 0.0
O107 O 0.71868 0.39151 0.86289 0.0
H108 H 0.65987 0.45949 0.78935 0.0
H109 H 0.64448 0.49047 0.74079 0.0
H110 H 0.55903 0.40457 0.71527 0.0
H111 H 0.57445 0.37377 0.76311 0.0
H112 H 0.54483 0.22975 0.94113 0.0
H113 H 0.56261 0.28445 0.91266 0.0
H114 H 0.65519 0.21966 0.93804 0.0
H115 H 0.67307 0.27443 0.90926 0.0
H116 H 0.79308 0.3973 0.97279 0.0
H117 H 0.82318 0.49103 0.9189 0.0
H118 H 0.76915 0.47376 0.88575 0.0
H119 H 0.73972 0.38005 0.93863 0.0
C120 C 0.78731 0.6481 0.40853 0.0
C121 C 0.79022 0.6543 0.44263 0.0
C122 C 0.72635 0.62527 0.45073 0.0
C123 C 0.76003 0.64311 0.46346 0.0
C124 C 0.72357 0.61936 0.4167 0.0
C125 C 0.75353 0.63059 0.39599 0.0
U126 U 0.88056 0.68937 0.35877 0.0
O127 O 0.91296 0.65548 0.33725 0.0
O128 O 0.88377 0.68336 0.30444 0.0
C129 C 0.90459 0.66172 0.30682 0.0
C130 C 0.81902 0.65613 0.38556 0.0
C131 C 0.91832 0.64588 0.27719 0.0
C132 C 0.93907 0.59885 0.25139 0.0
C133 C 0.92747 0.61417 0.27931 0.0
C134 C 0.93348 0.64662 0.21827 0.0
C135 C 0.94227 0.6148 0.22036 0.0
C136 C 0.92152 0.66178 0.24611 0.0
C137 C 0.92406 0.77896 0.40426 0.0
C138 C 0.96846 0.82342 0.43316 0.0
C139 C 0.9064 0.82802 0.42887 0.0
C140 C 0.89749 0.7971 0.4113 0.0
C141 C 0.94216 0.84193 0.43964 0.0
C142 C 0.95954 0.79253 0.41582 0.0
C143 C 0.91746 0.74887 0.38141 0.0
O144 O 0.82044 0.67843 0.36185 0.0
O145 O 0.85113 0.65315 0.39557 0.0
O146 O 0.92294 0.71973 0.39169 0.0
O147 O 0.89159 0.74529 0.35917 0.0
H148 H 0.81585 0.66736 0.45323 0.0
H149 H 0.76304 0.64808 0.48958 0.0
H150 H 0.69819 0.60559 0.40614 0.0
H151 H 0.75046 0.62485 0.36999 0.0
H152 H 0.94559 0.57441 0.25404 0.0
H153 H 0.92518 0.60089 0.30259 0.0
H154 H 0.9358 0.6598 0.19494 0.0
H155 H 0.9149 0.68615 0.24328 0.0
H156 H 0.99621 0.83325 0.44099 0.0
H157 H 0.88544 0.84151 0.43345 0.0
H158 H 0.87 0.78784 0.40256 0.0
H159 H 0.98089 0.77971 0.41046 0.0
C160 C 0.71064 0.70996 0.91407 0.0
C161 C 0.72788 0.7003 0.88636 0.0
C162 C 0.77022 0.68001 0.92172 0.0
C163 C 0.75728 0.68516 0.89016 0.0
C164 C 0.75217 0.68852 0.94934 0.0
C165 C 0.7226 0.70336 0.94553 0.0
U166 U 0.67776 0.77346 0.86322 0.0
O167 O 0.62502 0.78702 0.85562 0.0
O168 O 0.6721 0.8245 0.87454 0.0
C169 C 0.63749 0.81785 0.86699 0.0
C170 C 0.68443 0.73149 0.91044 0.0
C171 C 0.61454 0.83186 0.88962 0.0
C172 C 0.60656 0.85611 0.9429 0.0
C173 C 0.62236 0.83509 0.92344 0.0
C174 C 0.57268 0.86851 0.89564 0.0
C175 C 0.58267 0.87388 0.92877 0.0
C176 C 0.58859 0.84767 0.87618 0.0
C177 C 0.7345 0.79638 0.7846 0.0
C178 C 0.73116 0.84089 0.74548 0.0
C179 C 0.7868 0.82179 0.75204 0.0
C180 C 0.77029 0.79826 0.77524 0.0
C181 C 0.76771 0.84368 0.73746 0.0
C182 C 0.71464 0.81747 0.76937 0.0
C183 C 0.72118 0.77524 0.8131 0.0
O184 O 0.69943 0.76398 0.91156 0.0
O185 O 0.66021 0.7234 0.88673 0.0
O186 O 0.68742 0.7576 0.81279 0.0
O187 O 0.73137 0.7899 0.84136 0.0
H188 H 0.71959 0.70575 0.8618 0.0
H189 H 0.77095 0.67886 0.86857 0.0
H190 H 0.76181 0.68476 0.97385 0.0
H191 H 0.71007 0.71107 0.96717 0.0
H192 H 0.61444 0.85996 0.96848 0.0
H193 H 0.64232 0.82312 0.93432 0.0
H194 H 0.5543 0.88208 0.88441 0.0
H195 H 0.58236 0.84567 0.85013 0.0
H196 H 0.71609 0.85764 0.73432 0.0
H197 H 0.815 0.82364 0.74612 0.0
H198 H 0.78607 0.78244 0.78701 0.0
H199 H 0.68705 0.81659 0.77668 0.0
C200 C 0.80426 0.26603 0.28589 0.0
C201 C 0.82091 0.24025 0.2759 0.0
C202 C 0.77089 0.21929 0.23839 0.0
C203 C 0.80442 0.21709 0.25186 0.0
C204 C 0.75537 0.24603 0.2473 0.0
C205 C 0.77202 0.26931 0.27086 0.0
U206 U 0.85991 0.28487 0.36511 0.0
O207 O 0.87883 0.33369 0.39061 0.0
O208 O 0.83921 0.29261 0.41408 0.0
C209 C 0.85464 0.32505 0.41405 0.0
C210 C 0.81633 0.2862 0.31524 0.0
C211 C 0.82874 0.3468 0.41775 0.0
C212 C 0.7758 0.36463 0.39694 0.0
C213 C 0.80446 0.34889 0.39202 0.0
C214 C 0.79621 0.37783 0.45293 0.0
C215 C 0.77099 0.37851 0.42767 0.0
C216 C 0.82489 0.362 0.44801 0.0
C217 C 0.92261 0.22332 0.38527 0.0
C218 C 0.94868 0.21297 0.43793 0.0
C219 C 0.9484 0.17442 0.39247 0.0
C220 C 0.93203 0.19454 0.37249 0.0
C221 C 0.95589 0.18291 0.42553 0.0
C222 C 0.93173 0.23298 0.41792 0.0
C223 C 0.89922 0.23949 0.36506 0.0
O224 O 0.8061 0.27008 0.34277 0.0
O225 O 0.85001 0.30397 0.31591 0.0
O226 O 0.91191 0.27098 0.3556 0.0
O227 O 0.86511 0.23304 0.37394 0.0
H228 H 0.84562 0.23718 0.28767 0.0
H229 H 0.81673 0.19659 0.24499 0.0
H230 H 0.72965 0.2481 0.23688 0.0
H231 H 0.75874 0.28888 0.27859 0.0
H232 H 0.75648 0.36468 0.37725 0.0
H233 H 0.80674 0.33703 0.36856 0.0
H234 H 0.79279 0.38831 0.47684 0.0
H235 H 0.84313 0.36041 0.46821 0.0
H236 H 0.95429 0.21984 0.46346 0.0
H237 H 0.95383 0.1514 0.38252 0.0
H238 H 0.92504 0.18664 0.3474 0.0
H239 H 0.92439 0.25501 0.42822 0.0
C240 C 0.28403 0.64683 0.18267 0.0
C241 C 0.27855 0.66729 0.15606 0.0
C242 C 0.22297 0.62584 0.13979 0.0
C243 C 0.24836 0.65687 0.13482 0.0
C244 C 0.22864 0.60567 0.16653 0.0
C245 C 0.25865 0.61599 0.18754 0.0
U246 U 0.37656 0.68981 0.2333 0.0
O247 O 0.37996 0.68343 0.28764 0.0
O248 O 0.40959 0.65635 0.25473 0.0
C249 C 0.40129 0.66227 0.28514 0.0
C250 C 0.31561 0.65576 0.20582 0.0
C251 C 0.41541 0.64627 0.31453 0.0
C252 C 0.43483 0.59838 0.34018 0.0
C253 C 0.42265 0.61381 0.3125 0.0
C254 C 0.43378 0.64764 0.37276 0.0
C255 C 0.44058 0.61503 0.37079 0.0
C256 C 0.42117 0.6629 0.34518 0.0
C257 C 0.42182 0.78021 0.18995 0.0
C258 C 0.46335 0.83457 0.17719 0.0
C259 C 0.40873 0.81613 0.14504 0.0
C260 C 0.39921 0.78618 0.16413 0.0
C261 C 0.44098 0.84077 0.15138 0.0
C262 C 0.45391 0.80485 0.19609 0.0
C263 C 0.41349 0.74943 0.2116 0.0
O264 O 0.34786 0.65302 0.19635 0.0
O265 O 0.3166 0.67857 0.22889 0.0
O266 O 0.38728 0.74583 0.23324 0.0
O267 O 0.41847 0.72041 0.20068 0.0
H268 H 0.29759 0.69116 0.15163 0.0
H269 H 0.24483 0.67299 0.11444 0.0
H270 H 0.2098 0.5817 0.17108 0.0
H271 H 0.26214 0.59961 0.20775 0.0
H272 H 0.43978 0.57332 0.33769 0.0
H273 H 0.41839 0.60004 0.2895 0.0
H274 H 0.43811 0.66132 0.3958 0.0
H275 H 0.41612 0.68791 0.34781 0.0
H276 H 0.48831 0.85284 0.18273 0.0
H277 H 0.39095 0.82005 0.12526 0.0
H278 H 0.3743 0.7678 0.15874 0.0
H279 H 0.4719 0.80111 0.2158 0.0
C280 C 0.12013 0.28652 0.68377 0.0
C281 C 0.14495 0.2746 0.66406 0.0
C282 C 0.0984 0.2238 0.64864 0.0
C283 C 0.13418 0.24367 0.64667 0.0
C284 C 0.0737 0.23597 0.66817 0.0
C285 C 0.0844 0.26675 0.68542 0.0
U286 U 0.16298 0.37783 0.72914 0.0
O287 O 0.12443 0.40633 0.75008 0.0
O288 O 0.15674 0.38216 0.78315 0.0
C289 C 0.13149 0.39938 0.78064 0.0
C290 C 0.13027 0.31834 0.70398 0.0
C291 C 0.12213 0.41922 0.80955 0.0
C292 C 0.07556 0.4298 0.84758 0.0
C293 C 0.08568 0.41384 0.81947 0.0
C294 C 0.13801 0.45793 0.85677 0.0
C295 C 0.10147 0.45202 0.86693 0.0
C296 C 0.14821 0.44168 0.82863 0.0
C297 C 0.25557 0.42414 0.68153 0.0
C298 C 0.31087 0.46527 0.66495 0.0
C299 C 0.29338 0.41202 0.63628 0.0
C300 C 0.26251 0.40231 0.65674 0.0
C301 C 0.31809 0.44368 0.6402 0.0
C302 C 0.28019 0.45569 0.68515 0.0
C303 C 0.2239 0.41561 0.70467 0.0
O304 O 0.15594 0.32214 0.72643 0.0
O305 O 0.12383 0.34708 0.69369 0.0
O306 O 0.19145 0.41731 0.69443 0.0
O307 O 0.22302 0.39248 0.72749 0.0
H308 H 0.17265 0.28909 0.66221 0.0
H309 H 0.15386 0.23517 0.63172 0.0
H310 H 0.04603 0.22145 0.67029 0.0
H311 H 0.06463 0.27499 0.7005 0.0
H312 H 0.04728 0.42445 0.85446 0.0
H313 H 0.06481 0.39659 0.8057 0.0
H314 H 0.1588 0.47481 0.87094 0.0
H315 H 0.17652 0.44646 0.822 0.0
H316 H 0.32915 0.48973 0.66873 0.0
H317 H 0.2981 0.39473 0.61749 0.0
H318 H 0.24423 0.37783 0.65325 0.0
H319 H 0.27577 0.47311 0.70396 0.0
Dy320 Dy 0.05524 0.03673 0.52422 0.0
Dy321 Dy 0.98047 0.02877 0.5643 0.0
C322 C 0.04765 0.09321 0.57865 0.0
O323 O 0.06379 1.00781 0.56943 0.0
O324 O 1.00457 0.98767 0.58481 0.0
O325 O 0.11342 0.05127 0.52055 0.0
O326 O 0.08088 0.02932 0.47857 0.0
O327 O 0.96704 0.99108 0.52189 0.0
O328 O 0.02401 0.98386 0.51239 0.0
O329 O 0.98452 0.07431 0.53291 0.0
O330 O 0.01878 0.05941 0.49228 0.0
O331 O 0.92215 1.02107 0.56431 0.0
O332 O 0.95266 0.03073 0.60988 0.0
C333 C 0.03893 0.98682 0.58641 0.0
O334 O 0.06263 0.08694 0.55085 0.0
O335 O 0.01978 0.07103 0.59082 0.0
C336 C 0.13345 0.07084 0.46747 0.0
C337 C 0.17535 0.11952 0.42614 0.0
C338 C 0.16304 0.12932 0.45618 0.0
C339 C 0.14202 0.10508 0.47676 0.0
C340 C 0.14451 0.06144 0.43677 0.0
C341 C 0.16532 0.08567 0.41615 0.0
C342 C 0.11292 0.04451 0.48917 0.0
C343 C 0.98873 0.97354 0.50873 0.0
C344 C 0.99748 0.07811 0.50309 0.0
C345 C 0.89509 0.9955 0.61314 0.0
C346 C 0.85803 0.94294 0.65453 0.0
C347 C 0.87153 0.93585 0.62357 0.0
C348 C 0.89079 0.9618 0.60371 0.0
C349 C 0.87716 1.00313 0.64091 0.0
C350 C 0.85796 0.9772 0.66077 0.0
C351 C 0.92067 1.02265 0.59632 0.0
H352 H 0.17051 0.15549 0.46399 0.0
H353 H 0.13308 0.113 0.50007 0.0
H354 H 0.13759 0.03523 0.42901 0.0
H355 H 0.17453 0.07793 0.39287 0.0
H356 H 0.86759 0.91073 0.61375 0.0
H357 H 0.90274 0.95551 0.58125 0.0
H358 H 0.87883 0.02919 0.64779 0.0
H359 H 0.84361 0.98452 0.68136 0.0
Dy360 Dy 0.48262 1.02346 1.02206 0.0
Dy361 Dy 0.55843 0.03246 0.06225 0.0
C362 C 0.49091 0.96824 0.07742 0.0
O363 O 0.47459 0.0506 0.06805 0.0
O364 O 0.53411 0.07456 0.07893 0.0
O365 O 0.42438 1.01082 1.01863 0.0
O366 O 0.45688 0.03052 0.9761 0.0
O367 O 0.57195 0.07059 1.0208 0.0
O368 O 0.51452 0.07606 1.00951 0.0
O369 O 0.55913 0.98938 1.0289 0.0
O370 O 0.51465 0.99481 0.99212 0.0
O371 O 0.61688 0.04273 0.06537 0.0
O372 O 0.58392 0.03111 0.10922 0.0
C373 C 0.49967 0.07395 0.0822 0.0
O374 O 0.47431 0.9745 0.05044 0.0
O375 O 0.51999 0.98972 0.0885 0.0
C376 C 0.40501 0.98795 0.96671 0.0
C377 C 0.36614 0.93495 0.92798 0.0
C378 C 0.38431 0.92779 0.95621 0.0
C379 C 0.40383 0.95424 0.97547 0.0
C380 C 0.38824 0.99499 0.93766 0.0
C381 C 0.36889 0.96858 0.91835 0.0
C382 C 0.42483 1.01596 0.98692 0.0
C383 C 0.54978 0.08749 1.00739 0.0
C384 C 0.54079 0.98078 1.0017 0.0
C385 C 0.63939 0.06982 0.11477 0.0
C386 C 0.68173 0.12141 0.15286 0.0
C387 C 0.64685 0.12349 0.14303 0.0
C388 C 0.62583 0.09788 0.12378 0.0
C389 C 0.67435 0.06804 0.12426 0.0
C390 C 0.69549 0.09379 0.14318 0.0
C391 C 0.61647 0.04131 0.09742 0.0
H392 H 0.38231 0.90189 0.96385 0.0
H393 H 0.41741 0.94837 0.99745 0.0
H394 H 0.38964 1.02088 0.93024 0.0
H395 H 0.35498 0.97433 0.89652 0.0
H396 H 0.63588 0.14463 0.15058 0.0
H397 H 0.59876 0.09953 0.11662 0.0
H398 H 0.68498 0.04642 0.11763 0.0
H399 H 0.72229 0.09186 0.15092 0.0
Dy400 Dy 0.52668 0.49849 0.52675 0.0
Dy401 Dy 0.52039 0.56747 0.56644 0.0
C402 C 0.554 0.51137 0.60379 0.0
O403 O 0.47 0.4819 0.54718 0.0
O404 O 0.4684 0.52936 0.57767 0.0
O405 O 0.53951 0.44941 0.52862 0.0
O406 O 0.5316 0.47129 0.4817 0.0
O407 O 0.50197 0.57521 0.51444 0.0
O408 O 0.49501 0.52278 0.49056 0.0
O409 O 0.5778 0.583 0.5479 0.0
O410 O 0.57731 0.53778 0.5139 0.0
O411 O 0.51397 0.61901 0.56667 0.0
O412 O 0.51152 0.59126 0.61219 0.0
C413 C 0.45382 0.49818 0.56829 0.0
O414 O 0.54224 0.49028 0.57947 0.0
O415 O 0.55338 0.54356 0.60157 0.0
C416 C 0.57794 0.44092 0.48504 0.0
C417 C 0.64222 0.42486 0.46234 0.0
C418 C 0.6402 0.43648 0.49457 0.0
C419 C 0.60843 0.44457 0.50581 0.0
C420 C 0.58047 0.43024 0.45249 0.0
C421 C 0.61238 0.42242 0.44117 0.0
C422 C 0.54344 0.44781 0.49696 0.0
C423 C 0.49196 0.55446 0.48943 0.0
C424 C 0.59296 0.56815 0.52488 0.0
C425 C 0.47054 0.62606 0.60594 0.0
C426 C 0.40355 0.6393 0.62381 0.0
C427 C 0.40619 0.62045 0.59544 0.0
C428 C 0.43944 0.61374 0.58663 0.0
C429 C 0.46773 0.64459 0.63445 0.0
C430 C 0.43446 0.65118 0.64333 0.0
C431 C 0.50534 0.61792 0.59769 0.0
H432 H 0.66299 0.43864 0.51121 0.0
H433 H 0.6076 0.45318 0.5309 0.0
H434 H 0.55753 0.42746 0.43594 0.0
H435 H 0.61348 0.41353 0.4162 0.0
H436 H 0.38258 0.61111 0.58012 0.0
H437 H 0.44086 0.59886 0.56481 0.0
H438 H 0.49124 0.65383 0.64992 0.0
H439 H 0.43284 0.66574 0.66531 0.0
Dy440 Dy 1.01681 0.56816 1.02336 0.0
Dy441 Dy 0.0257 0.50071 0.06182 0.0
C442 C 0.99188 0.55621 0.09987 0.0
O443 O 0.07589 0.58184 1.03898 0.0
O444 O 0.07356 0.54091 0.07845 0.0
O445 O 1.00726 0.61859 1.02279 0.0
O446 O 1.01263 0.59359 0.9771 0.0
O447 O 0.06089 0.50303 1.01665 0.0
O448 O 0.03072 0.5332 0.98426 0.0
O449 O 0.9757 0.48366 1.02956 0.0
O450 O 0.96067 0.53461 1.02437 0.0
O451 O 0.0319 0.44911 0.06159 0.0
O452 O 0.03159 0.47526 0.10763 0.0
C453 C 0.09027 0.56936 0.06444 0.0
O454 O 1.0054 0.578 0.07657 0.0
O455 O 0.99075 0.52371 0.09599 0.0
C456 C 0.96769 0.62562 0.97904 0.0
C457 C 0.90209 0.63893 0.95573 0.0
C458 C 0.91094 0.6422 0.98925 0.0
C459 C 0.94338 0.63559 1.00084 0.0
C460 C 0.95847 0.62204 0.94547 0.0
C461 C 0.92587 0.62845 0.93394 0.0
C462 C 1.00219 0.61845 0.99112 0.0
C463 C 0.05234 0.5122 0.98713 0.0
C464 C 0.95284 0.50175 1.01975 0.0
C465 C 0.07289 0.44039 0.10312 0.0
C466 C 0.1382 0.4247 0.12361 0.0
C467 C 0.13609 0.44033 0.09312 0.0
C468 C 0.10375 0.44829 0.083 0.0
C469 C 0.07528 0.42531 0.13387 0.0
C470 C 0.10771 0.41754 0.14407 0.0
C471 C 0.03874 0.44915 0.09301 0.0
H472 H 0.89286 0.65021 1.00641 0.0
H473 H 0.9494 0.63845 1.02686 0.0
H474 H 0.97655 0.61435 0.9281 0.0
H475 H 0.91946 0.62585 0.90797 0.0
H476 H 0.15935 0.44595 0.07701 0.0
H477 H 0.10283 0.46046 0.0594 0.0
H478 H 0.05199 0.41943 0.14993 0.0
H479 H 0.10886 0.40536 0.16763 0.0
C480 C 0.26342 0.17537 0.39543 0.0
C481 C 0.25107 0.18851 0.36643 0.0
C482 C 0.18858 0.15903 0.37831 0.0
C483 C 0.2012 0.14411 0.40612 0.0
N484 N 0.25049 0.13386 0.43926 0.0
N485 N 0.20356 0.18873 0.32678 0.0
C486 C 0.23863 0.15112 0.41421 0.0
C487 C 0.21409 0.17913 0.35683 0.0
N488 N 0.29864 0.18662 0.40527 0.0
N489 N 0.15219 0.15472 0.373 0.0
H490 H 0.22134 0.20384 0.31041 0.0
H491 H 0.17785 0.17952 0.31684 0.0
H492 H 0.13273 0.13989 0.3882 0.0
H493 H 0.14124 0.16796 0.35524 0.0
H494 H 0.30844 0.18098 0.42803 0.0
H495 H 0.31775 0.20354 0.39144 0.0
H496 H 0.27768 0.13498 0.44407 0.0
H497 H 0.23308 0.1164 0.45404 0.0
C498 C 0.27867 0.87451 0.90291 0.0
C499 C 0.2872 0.86793 0.87014 0.0
C500 C 0.35077 0.89572 0.88016 0.0
C501 C 0.34053 0.90777 0.91043 0.0
N502 N 0.29461 0.9104 0.95056 0.0
N503 N 0.33107 0.87257 0.82654 0.0
C504 C 0.30456 0.89721 0.9221 0.0
C505 C 0.32336 0.878 0.85858 0.0
N506 N 0.24568 0.85905 0.9155 0.0
N507 N 0.38659 0.90148 0.87214 0.0
H508 H 0.31181 0.85953 0.81 0.0
H509 H 0.35602 0.88274 0.81574 0.0
H510 H 0.40706 0.91466 0.88759 0.0
H511 H 0.39614 0.89069 0.85183 0.0
H512 H 0.23897 0.86044 0.94016 0.0
H513 H 0.22626 0.84206 0.90186 0.0
H514 H 0.26781 0.90702 0.958 0.0
H515 H 0.31287 0.92669 0.96578 0.0
C516 C 0.56684 0.49033 0.69577 0.0
C517 C 0.59078 0.46813 0.6936 0.0
C518 C 0.59455 0.47834 0.63342 0.0
C519 C 0.56775 0.49775 0.63508 0.0
N520 N 0.52386 0.51709 0.66804 0.0
N521 N 0.6242 0.43794 0.65941 0.0
C522 C 0.55294 0.50264 0.6664 0.0
C523 C 0.60364 0.4613 0.6621 0.0
N524 N 0.55727 0.49972 0.72606 0.0
N525 N 0.61264 0.47737 0.60462 0.0
H526 H 0.63303 0.42631 0.67973 0.0
H527 H 0.63047 0.42838 0.63702 0.0
H528 H 0.60761 0.49009 0.5835 0.0
H529 H 0.63498 0.46675 0.60241 0.0
H530 H 0.54343 0.51874 0.72964 0.0
H531 H 0.5657 0.49034 0.74788 0.0
H532 H 0.50929 0.51813 0.68946 0.0
H533 H 0.51191 0.52522 0.64738 0.0
C534 C 0.93125 0.57228 0.1726 0.0
C535 C 0.95527 0.59856 0.19025 0.0
C536 C 1.00346 0.59581 0.14986 0.0
C537 C 0.97945 0.56946 0.13203 0.0
N538 N 0.9215 0.52975 0.12923 0.0
N539 N 1.01559 0.63231 0.19822 0.0
C540 C 0.94375 0.55674 0.14443 0.0
C541 C 0.9917 0.60957 0.17936 0.0
N542 N 0.89577 0.56319 0.18195 0.0
N543 N 0.03806 0.60735 0.13882 0.0
H544 H 1.00803 0.64287 0.21964 0.0
H545 H 0.04332 0.63937 0.19414 0.0
H546 H 0.04944 0.59476 0.12095 0.0
H547 H 0.05552 0.62953 0.14686 0.0
H548 H 0.87551 0.54712 0.16852 0.0
H549 H 0.88584 0.57352 0.20238 0.0
H550 H 0.89741 0.51599 0.13926 0.0
H551 H 0.92784 0.51976 0.10708 0.0
C552 C 0.49624 0.13956 0.14821 0.0
C553 C 0.46969 0.15527 0.13489 0.0
C554 C 0.46683 0.12112 0.08499 0.0
C555 C 0.48925 0.1019 0.10037 0.0
N556 N 0.52121 0.08989 0.14881 0.0
N557 N 0.42629 0.15852 0.09216 0.0
C558 C 0.50317 0.1105 0.1325 0.0
C559 C 0.4542 0.14554 0.10361 0.0
N560 N 0.51495 0.15264 0.1758 0.0
N561 N 0.45861 0.11711 0.05228 0.0
H562 H 0.41658 0.17699 0.10458 0.0
H563 H 0.41091 0.14913 0.07151 0.0
H564 H 0.46724 0.09978 1.03741 0.0
H565 H 0.44607 0.13324 1.03909 0.0
H566 H 0.53713 0.1444 0.18491 0.0
H567 H 0.51048 0.17403 0.1877 0.0
H568 H 0.52883 0.09312 0.17343 0.0
H569 H 0.52546 0.06753 0.13883 0.0
C570 C 0.09089 0.93989 0.64392 0.0
C571 C 0.07298 0.90579 0.6373 0.0
C572 C 0.03309 0.92478 0.59811 0.0
C573 C 0.04959 0.9591 0.60543 0.0
N574 N 0.08895 0.99916 0.64073 0.0
N575 N 0.0203 0.86658 0.61628 0.0
C576 C 0.07691 0.96664 0.6301 0.0
C577 C 0.04168 0.89861 0.61727 0.0
N578 N 0.12199 0.94674 0.66223 0.0
N579 N 1.0116 0.91679 0.57103 0.0
H580 H 0.02582 0.84682 0.63031 0.0
H581 H 0.99526 0.86062 0.60435 0.0
H582 H 1.00709 0.93503 0.55481 0.0
H583 H 1.00208 0.89213 0.56256 0.0
H584 H 0.13847 0.97092 0.66488 0.0
H585 H 0.13257 0.92788 0.67319 0.0
H586 H 0.10618 1.00587 0.66084 0.0
H587 H 0.07907 1.01911 0.63122 0.0
C588 C 0.8841 0.47931 0.94794 0.0
C589 C 0.85613 0.45345 0.96181 0.0
C590 C 0.8946 0.45575 1.01163 0.0
C591 C 0.91923 0.48533 1.00004 0.0
N592 N 0.93652 0.52545 0.95553 0.0
N593 N 0.85525 0.4035 0.99414 0.0
C594 C 0.91353 0.49726 0.96785 0.0
C595 C 0.86635 0.43763 0.99055 0.0
N596 N 0.88606 0.48271 0.91454 0.0
N597 N 0.89765 0.4448 0.04301 0.0
H598 H 0.84501 0.38813 0.97417 0.0
H599 H 0.86355 0.39032 1.0136 0.0
H600 H 0.91735 0.45742 0.05945 0.0
H601 H 0.87835 0.4251 0.05342 0.0
H602 H 0.9075 0.49863 0.90239 0.0
H603 H 0.86905 0.46579 0.89886 0.0
H604 H 0.93031 0.53812 0.93476 0.0
H605 H 0.96097 0.53711 0.96655 0.0
C606 C 0.68702 0.57877 0.48536 0.0
C607 C 0.69391 0.61226 0.47271 0.0
C608 C 0.63604 0.61901 0.49695 0.0
C609 C 0.62939 0.58541 0.51005 0.0
N610 N 0.65362 0.53721 0.52356 0.0
N611 N 0.67718 0.66561 0.46864 0.0
C612 C 0.65638 0.56646 0.50608 0.0
C613 C 0.66912 0.63283 0.47947 0.0
N614 N 0.70941 0.55825 0.47686 0.0
N615 N 0.61018 0.63731 0.49998 0.0
H616 H 0.70032 0.67597 0.45504 0.0
H617 H 0.66234 0.68336 0.47418 0.0
H618 H 0.58573 0.62854 0.512 0.0
H619 H 0.61161 0.6608 0.48929 0.0
H620 H 0.70356 0.53237 0.48152 0.0
H621 H 0.73284 0.56662 0.46303 0.0
H622 H 0.6737 0.52359 0.52433 0.0
H623 H 0.63291 0.52838 0.54031 0.0
C624 C 0.2304 0.42311 0.16121 0.0
C625 C 0.23472 0.39135 0.14965 0.0
C626 C 0.1747 0.3806 0.12348 0.0
C627 C 0.17147 0.41336 0.13295 0.0
N628 N 0.1971 0.46744 0.15771 0.0
N629 N 0.21348 0.34138 0.11666 0.0
C630 C 0.1996 0.43511 0.15098 0.0
C631 C 0.20751 0.37051 0.12994 0.0
N632 N 0.25532 0.4413 0.1826 0.0
N633 N 0.14597 0.35882 0.10892 0.0
H634 H 0.23667 0.33252 0.12146 0.0
H635 H 0.19679 0.3271 0.09898 0.0
H636 H 0.12192 0.36559 0.10267 0.0
H637 H 0.14479 0.33328 0.10509 0.0
H638 H 0.25204 0.46288 0.19476 0.0
H639 H 0.27847 0.43348 0.18997 0.0
H640 H 0.21814 0.48582 0.16769 0.0
H641 H 0.17453 0.47667 0.1513 0.0
C642 C 0.56833 0.15718 0.94032 0.0
C643 C 0.58709 0.18588 0.95847 0.0
C644 C 0.58521 0.14935 1.00767 0.0
C645 C 0.56434 0.12103 0.9901 0.0
N646 N 0.53357 0.0988 0.94008 0.0
N647 N 0.6089 0.21036 1.01059 0.0
C648 C 0.55512 0.12532 0.95657 0.0
C649 C 0.59451 0.18213 0.99242 0.0
N650 N 0.56433 0.16007 0.90709 0.0
N651 N 0.59607 0.1451 1.03917 0.0
H652 H 0.61616 0.23454 1.00039 0.0
H653 H 0.6111 0.21045 1.03609 0.0
H654 H 0.58781 0.12261 0.05222 0.0
H655 H 0.61507 0.16322 0.0519 0.0
H656 H 0.55459 0.13968 0.89153 0.0
H657 H 0.57336 0.18278 0.89443 0.0
H658 H 0.5214 0.10119 0.9175 0.0
H659 H 0.52639 0.07436 0.94962 0.0
C660 C 0.97263 0.90513 0.44003 0.0
C661 C 0.95245 0.87615 0.45688 0.0
C662 C 0.95078 0.91219 0.5058 0.0
C663 C 0.97379 0.94059 0.49006 0.0
N664 N 1.00806 0.96326 0.4421 0.0
N665 N 0.9271 0.85118 0.50761 0.0
C666 C 0.98517 0.93666 0.45718 0.0
C667 C 0.94259 0.87957 0.49017 0.0
N668 N 0.97867 0.90287 0.4071 0.0
N669 N 0.93686 0.91611 0.53602 0.0
H670 H 0.9207 0.82708 0.49721 0.0
H671 H 0.92337 0.85095 0.53295 0.0
H672 H 0.94455 0.93825 0.54962 0.0
H673 H 0.91635 0.898 0.54698 0.0
H674 H 0.98964 0.92353 0.39226 0.0
H675 H 0.97003 0.8805 0.39382 0.0
H676 H 0.02172 0.96107 0.42039 0.0
H677 H 1.01466 0.98756 0.45199 0.0
C678 C 0.31571 0.63966 0.66866 0.0
C679 C 0.30839 0.6701 0.65627 0.0
C680 C 0.36057 0.67766 0.61934 0.0
C681 C 0.36879 0.64798 0.63262 0.0
N682 N 0.35182 0.59743 0.66533 0.0
N683 N 0.31844 0.71431 0.61553 0.0
C684 C 0.34541 0.62782 0.65579 0.0
C685 C 0.32901 0.68774 0.63003 0.0
N686 N 0.29471 0.62279 0.69338 0.0
N687 N 0.38403 0.69712 0.59771 0.0
H688 H 0.29616 0.72305 0.62339 0.0
H689 H 0.32986 0.72618 0.59416 0.0
H690 H 0.40681 0.69007 0.58854 0.0
H691 H 0.38228 0.72113 0.59009 0.0
H692 H 0.30026 0.60238 0.70615 0.0
H693 H 0.27164 0.6299 0.70183 0.0
H694 H 0.33472 0.58011 0.68034 0.0
H695 H 0.37357 0.5884 0.65654 0.0
C696 C 0.80122 0.85974 0.68548 0.0
C697 C 0.78798 0.87017 0.71522 0.0
C698 C 0.83259 0.92411 0.71137 0.0
C699 C 0.84123 0.91559 0.67904 0.0
N700 N 0.85585 0.86655 0.65459 0.0
N701 N 0.79007 0.91345 0.75631 0.0
C702 C 0.83169 0.88089 0.67053 0.0
C703 C 0.80327 0.90279 0.7281 0.0
N704 N 0.78545 0.82915 0.67197 0.0
N705 N 0.85589 0.94939 0.72786 0.0
H706 H 0.76922 0.89833 0.76983 0.0
H707 H 0.79786 0.93832 0.76467 0.0
H708 H 0.88067 0.96178 0.71779 0.0
H709 H 0.85309 0.95477 0.75261 0.0
H710 H 0.79309 0.82168 0.64907 0.0
H711 H 0.76277 0.81298 0.68227 0.0
H712 H 0.85125 0.84062 0.65023 0.0
H713 H 0.8827 0.87969 0.65137 0.0
C714 C 0.73015 0.16207 0.22937 0.0
C715 C 0.75039 0.19298 0.21606 0.0
C716 C 0.72346 0.17809 0.1617 0.0
C717 C 0.7036 0.14708 0.1749 0.0
N718 N 0.68208 0.11168 0.22155 0.0
N719 N 0.77164 0.22836 0.1694 0.0
C720 C 0.70548 0.13951 0.20881 0.0
C721 C 0.74838 0.20051 0.18217 0.0
N722 N 0.73509 0.15409 0.2615 0.0
N723 N 0.71753 0.18652 0.12992 0.0
H724 H 0.79069 0.24496 0.18372 0.0
H725 H 0.77435 0.23365 0.14439 0.0
H726 H 0.70023 0.17031 0.1139 0.0
H727 H 0.72759 0.21042 0.11995 0.0
H728 H 0.72476 0.13035 0.2717 0.0
H729 H 0.7516 0.17057 0.27781 0.0
H730 H 0.67906 0.10641 0.24654 0.0
H731 H 0.66322 0.09489 0.20724 0.0
C732 C 0.49083 0.6087 0.41084 0.0
C733 C 0.45399 0.59853 0.40061 0.0
C734 C 0.44311 0.55615 0.44583 0.0
C735 C 0.47907 0.56845 0.4579 0.0
N736 N 0.53739 0.60678 0.45169 0.0
N737 N 0.39403 0.56478 0.4104 0.0
C738 C 0.50286 0.59493 0.44032 0.0
C739 C 0.42997 0.57266 0.41858 0.0
N740 N 0.51481 0.63055 0.39144 0.0
N741 N 0.42142 0.52844 0.4603 0.0
H742 H 0.38352 0.57595 0.39068 0.0
H743 H 0.37411 0.54914 0.42443 0.0
H744 H 0.42922 0.51672 0.481 0.0
H745 H 0.39669 0.51552 0.45056 0.0
H746 H 0.5427 0.63646 0.39505 0.0
H747 H 0.50708 0.64111 0.36996 0.0
H748 H 0.55468 0.62894 0.44343 0.0
H749 H 0.54857 0.59486 0.47041 0.0
C750 C 0.09079 0.50317 0.89963 0.0
C751 C 0.09013 0.46799 0.8981 0.0
C752 C 0.06145 0.46141 0.95325 0.0
C753 C 0.06572 0.49711 0.95639 0.0
N754 N 0.09068 0.55236 0.93365 0.0
N755 N 0.08072 0.4149 0.92693 0.0
C756 C 0.08203 0.51805 0.92977 0.0
C757 C 0.07721 0.44758 0.92599 0.0
N758 N 0.09859 0.52237 0.87187 0.0
N759 N 0.04034 0.44026 0.97522 0.0
H760 H 0.09213 0.40389 0.9078 0.0
H761 H 0.07559 0.39982 0.9479 0.0
H762 H 0.02661 0.44892 0.99424 0.0
H763 H 0.03309 0.4141 0.97238 0.0
H764 H 0.09546 0.5471 0.87013 0.0
H765 H 0.10514 0.51259 0.84963 0.0
H766 H 0.10584 0.5689 0.91666 0.0
H767 H 0.08586 0.56418 0.95533 0.0
C768 C 0.59328 0.93479 0.94536 0.0
C769 C 0.57164 0.90126 0.94736 0.0
C770 C 0.52729 0.92092 0.9811 0.0
C771 C 0.5502 0.95399 0.98117 0.0
N772 N 0.60549 0.99278 0.96505 0.0
N773 N 0.52078 0.86111 0.96993 0.0
C774 C 0.58337 0.96101 0.96374 0.0
C775 C 0.53935 0.89397 0.96599 0.0
N776 N 0.62295 0.94158 0.92534 0.0
N777 N 0.49375 0.91539 0.99505 0.0
H778 H 0.52842 0.84088 0.95853 0.0
H779 H 0.49944 0.85351 0.98628 0.0
H780 H 0.48412 0.9343 1.00665 0.0
H781 H 0.47423 0.89283 0.99295 0.0
H782 H 0.63768 0.96583 0.91975 0.0
H783 H 0.63199 0.9229 0.91259 0.0
H784 H 0.63188 0.9989 0.95627 0.0
H785 H 0.59799 1.01313 0.97635 0.0
C786 C 1.00429 0.15504 0.44676 0.0
C787 C 0.96781 0.15811 0.44735 0.0
C788 C 0.95066 0.106 0.47969 0.0
C789 C 0.98759 0.10444 0.48179 0.0
N790 N 0.05062 0.13046 0.47125 0.0
N791 N 0.90727 0.13993 0.46887 0.0
C792 C 1.01477 0.12964 0.4662 0.0
C793 C 0.94139 0.13476 0.4654 0.0
N794 N 0.02885 0.1763 0.42741 0.0
N795 N 0.92415 0.07897 0.48955 0.0
H796 H 0.89866 0.15977 0.45761 0.0
H797 H 0.88836 0.12615 0.48515 0.0
H798 H 0.92961 0.05651 0.49826 0.0
H799 H 0.89665 0.07723 0.48567 0.0
H800 H 0.05462 0.17278 0.42251 0.0
H801 H 0.0227 0.19654 0.4146 0.0
H802 H 0.07157 0.15025 0.46355 0.0
H803 H 0.05978 0.11297 0.4857 0.0
C804 C 0.18837 0.58458 0.09724 0.0
C805 C 0.19067 0.61381 0.1171 0.0
C806 C 0.13123 0.61878 0.09486 0.0
C807 C 0.12671 0.58704 0.07864 0.0
N808 N 0.15099 0.53889 0.0654 0.0
N809 N 0.16141 0.65592 0.13832 0.0
C810 C 0.15537 0.56977 0.08016 0.0
C811 C 0.16146 0.63036 0.11656 0.0
N812 N 0.21827 0.57154 0.09381 0.0
N813 N 0.1066 0.63802 0.08975 0.0
H814 H 0.18256 0.66487 0.15481 0.0
H815 H 0.13905 0.6662 0.14213 0.0
H816 H 0.08366 0.63026 0.07505 0.0
H817 H 0.11042 0.66287 0.09793 0.0
H818 H 0.21982 0.55243 0.07727 0.0
H819 H 0.2429 0.58194 0.1054 0.0
H820 H 0.16821 0.52271 0.06942 0.0
H821 H 0.12904 0.52869 0.05013 0.0
C822 C 0.3834 0.44258 0.62588 0.0
C823 C 0.35174 0.45463 0.61891 0.0
C824 C 0.38608 0.49268 0.57622 0.0
C825 C 0.41785 0.481 0.5836 0.0
N826 N 0.44604 0.44232 0.61286 0.0
N827 N 0.32282 0.49168 0.58815 0.0
C828 C 0.41613 0.45503 0.60755 0.0
C829 C 0.3531 0.4797 0.59405 0.0
N830 N 0.38274 0.42061 0.65152 0.0
N831 N 0.38736 0.51557 0.55129 0.0
H832 H 0.29797 0.48149 0.59922 0.0
H833 H 0.32202 0.51219 0.57312 0.0
H834 H 0.41082 0.52538 0.53795 0.0
H835 H 0.36519 0.52381 0.54237 0.0
H836 H 0.4054 0.41345 0.66081 0.0
H837 H 0.35949 0.41071 0.6651 0.0
H838 H 0.4462 0.42112 0.62713 0.0
H839 H 0.47079 0.45189 0.60142 0.0
C840 C 0.8022 0.63425 0.93691 0.0
C841 C 0.8042 0.66794 0.92621 0.0
C842 C 0.87065 0.68086 0.93045 0.0
C843 C 0.86849 0.64803 0.94349 0.0
N844 N 0.83402 0.59191 0.95579 0.0
N845 N 0.8393 0.724 0.91383 0.0
C846 C 0.83468 0.62421 0.94572 0.0
C847 C 0.83822 0.69128 0.92275 0.0
N848 N 0.76903 0.61223 0.939 0.0
N849 N 0.90389 0.70199 0.9253 0.0
H850 H 0.81632 0.73257 0.90753 0.0
H851 H 0.86254 0.74343 0.91423 0.0
H852 H 0.92815 0.69601 0.93222 0.0
H853 H 0.90799 0.72468 0.91245 0.0
H854 H 0.76452 0.5878 0.94828 0.0
H855 H 0.74516 0.61851 0.93129 0.0
H856 H 0.81088 0.57248 0.95727 0.0
H857 H 0.85739 0.58389 0.96199 0.0
C858 C 0.48157 0.87666 0.10866 0.0
C859 C 0.45215 0.87285 0.13098 0.0
C860 C 0.44577 0.93035 0.1157 0.0
C861 C 0.47715 0.9352 0.0956 0.0
N862 N 0.52753 0.91404 0.07606 0.0
N863 N 0.40927 0.898 0.15907 0.0
C864 C 0.49577 0.90862 0.09305 0.0
C865 C 0.43494 0.90021 0.13523 0.0
N866 N 0.49524 0.84922 0.10147 0.0
N867 N 0.42616 0.95462 0.11609 0.0
H868 H 0.40055 0.87651 0.17358 0.0
H869 H 0.39855 0.91822 0.16625 0.0
H870 H 0.43405 0.97745 0.10341 0.0
H871 H 0.4009 0.9513 0.12711 0.0
H872 H 0.51384 0.84895 0.08283 0.0
H873 H 0.48559 0.82556 0.11223 0.0
H874 H 0.54482 0.89756 0.07647 0.0
H875 H 0.53804 0.93629 0.06325 0.0
C876 C 0.0835 0.15911 0.64722 0.0
C877 C 0.08646 0.19036 0.63033 0.0
C878 C 0.0625 0.15823 0.57995 0.0
C879 C 0.06157 0.12688 0.59633 0.0
N880 N 0.07596 0.09805 0.64456 0.0
N881 N 0.07964 0.22005 0.58042 0.0
C882 C 0.07314 0.12757 0.62978 0.0
C883 C 0.07645 0.18992 0.59651 0.0
N884 N 0.09004 0.15954 0.68031 0.0
N885 N 0.04829 0.15762 0.54897 0.0
H886 H 0.08786 0.24341 0.5921 0.0
H887 H 0.07568 0.22248 0.55533 0.0
H888 H 0.03592 0.13528 0.53716 0.0
H889 H 0.04623 0.17882 0.53548 0.0
H890 H 0.08386 0.13813 0.69517 0.0
H891 H 0.09963 0.1818 0.69353 0.0
H892 H 0.0878 0.09675 0.6675 0.0
H893 H 0.06917 0.07474 0.63271 0.0
C894 C 0.73802 0.42554 0.43253 0.0
C895 C 0.73748 0.39052 0.4345 0.0
C896 C 0.67391 0.37794 0.45224 0.0
C897 C 0.6748 0.41308 0.45158 0.0
N898 N 0.70511 0.47018 0.43782 0.0
N899 N 0.70665 0.33335 0.44786 0.0
C900 C 0.70624 0.4369 0.44084 0.0
C901 C 0.70573 0.36667 0.44446 0.0
N902 N 0.76926 0.44779 0.42329 0.0
N903 N 0.6423 0.35532 0.45988 0.0
H904 H 0.72905 0.32391 0.44166 0.0
H905 H 0.68615 0.315 0.45843 0.0
H906 H 0.61905 0.36256 0.46757 0.0
H907 H 0.63807 0.32929 0.45706 0.0
H908 H 0.77309 0.47393 0.42342 0.0
H909 H 0.79239 0.44003 0.41605 0.0
H910 H 0.72592 0.48905 0.42845 0.0
H911 H 0.68222 0.47907 0.44355 0.0
loop_
_geom_bond_atom_site_label_1
_geom_bond_atom_site_label_2
_geom_bond_distance
_geom_bond_site_symmetry_2
_ccdc_geom_bond_type
C0 C1 1.264 . S
C0 C5 1.479 . S
C0 C10 1.465 . S
C1 C0 1.264 . S
C1 C3 1.339 . S
C1 H28 0.931 . S
C2 C3 1.395 . S
C2 C4 1.320 . S
C3 C1 1.339 . S
C3 C2 1.395 . S
C3 H29 0.929 . S
C4 C2 1.320 . S
C4 C5 1.405 . S
C4 H30 0.930 . S
C5 C0 1.479 . S
C5 C4 1.405 . S
C5 H31 0.931 . S
U6 O7 2.454 . S
U6 O8 2.458 . S
U6 C9 2.984 . S
U6 C10 2.847 . S
U6 C23 2.882 . S
U6 O24 2.441 . S
U6 O25 2.420 . S
U6 O26 2.455 . S
U6 O27 2.449 . S
O7 U6 2.454 . S
O7 C9 1.353 . S
O8 U6 2.458 . S
O8 C9 1.286 . S
C9 U6 2.984 . S
C9 O7 1.353 . S
C9 O8 1.286 . S
C9 C11 1.363 . S
C10 C0 1.465 . S
C10 U6 2.847 . S
C10 O24 1.249 . S
C10 O25 1.202 . S
C11 C9 1.363 . S
C11 C13 1.408 . S
C11 C16 1.342 . S
C12 C13 1.310 . S
C12 C15 1.461 . S
C12 H32 0.932 . S
C13 C11 1.408 . S
C13 C12 1.310 . S
C13 H33 0.930 . S
C14 C15 1.474 . S
C14 C16 1.285 . S
C14 H34 0.929 . S
C15 C12 1.461 . S
C15 C14 1.474 . S
C16 C11 1.342 . S
C16 C14 1.285 . S
C16 H35 0.930 . S
C17 C20 1.424 . S
C17 C22 1.245 . S
C17 C23 1.428 . S
C18 C21 1.260 . S
C18 C22 1.477 . S
C18 H36 0.932 . S
C19 C20 1.384 . S
C19 C21 1.479 . S
C19 H37 0.929 . S
C20 C17 1.424 . S
C20 C19 1.384 . S
C20 H38 0.928 . S
C21 C18 1.260 . S
C21 C19 1.479 . S
C22 C17 1.245 . S
C22 C18 1.477 . S
C22 H39 0.932 . S
C23 U6 2.882 . S
C23 C17 1.428 . S
C23 O26 1.301 . S
C23 O27 1.282 . S
O24 U6 2.441 . S
O24 C10 1.249 . S
O25 U6 2.420 . S
O25 C10 1.202 . S
O26 U6 2.455 . S
O26 C23 1.301 . S
O27 U6 2.449 . S
O27 C23 1.282 . S
H28 C1 0.931 . S
H29 C3 0.929 . S
H30 C4 0.930 . S
H31 C5 0.931 . S
H32 C12 0.932 . S
H33 C13 0.930 . S
H34 C14 0.929 . S
H35 C16 0.930 . S
H36 C18 0.932 . S
H37 C19 0.929 . S
H38 C20 0.928 . S
H39 C22 0.932 . S
C40 C41 1.264 . S
C40 C45 1.479 . S
C40 C50 1.465 . S
C41 C40 1.264 . S
C41 C43 1.339 . S
C41 H68 0.931 . S
C42 C43 1.395 . S
C42 C44 1.320 . S
C43 C41 1.339 . S
C43 C42 1.395 . S
C43 H69 0.929 . S
C44 C42 1.320 . S
C44 C45 1.405 . S
C44 H70 0.930 . S
C45 C40 1.479 . S
C45 C44 1.405 . S
C45 H71 0.931 . S
U46 O47 2.454 . S
U46 O48 2.458 . S
U46 C49 2.984 . S
U46 C50 2.847 . S
U46 C63 2.882 . S
U46 O64 2.441 . S
U46 O65 2.420 . S
U46 O66 2.455 . S
U46 O67 2.449 . S
O47 U46 2.454 . S
O47 C49 1.353 . S
O48 U46 2.458 . S
O48 C49 1.286 . S
C49 U46 2.984 . S
C49 O47 1.353 . S
C49 O48 1.286 . S
C49 C51 1.363 . S
C50 C40 1.465 . S
C50 U46 2.847 . S
C50 O64 1.249 . S
C50 O65 1.202 . S
C51 C49 1.363 . S
C51 C53 1.408 . S
C51 C56 1.342 . S
C52 C53 1.310 . S
C52 C55 1.461 . S
C52 H72 0.932 . S
C53 C51 1.408 . S
C53 C52 1.310 . S
C53 H73 0.930 . S
C54 C55 1.474 . S
C54 C56 1.285 . S
C54 H74 0.929 . S
C55 C52 1.461 . S
C55 C54 1.474 . S
C56 C51 1.342 . S
C56 C54 1.285 . S
C56 H75 0.930 . S
C57 C60 1.424 . S
C57 C62 1.245 . S
C57 C63 1.428 . S
C58 C61 1.260 . S
C58 C62 1.477 . S
C58 H76 0.932 . S
C59 C60 1.384 . S
C59 C61 1.479 . S
C59 H77 0.929 . S
C60 C57 1.424 . S
C60 C59 1.384 . S
C60 H78 0.928 . S
C61 C58 1.260 . S
C61 C59 1.479 . S
C62 C57 1.245 . S
C62 C58 1.477 . S
C62 H79 0.932 . S
C63 U46 2.882 . S
C63 C57 1.428 . S
C63 O66 1.301 . S
C63 O67 1.282 . S
O64 U46 2.441 . S
O64 C50 1.249 . S
O65 U46 2.420 . S
O65 C50 1.202 . S
O66 U46 2.455 . S
O66 C63 1.301 . S
O67 U46 2.449 . S
O67 C63 1.282 . S
H68 C41 0.931 . S
H69 C43 0.929 . S
H70 C44 0.930 . S
H71 C45 0.931 . S
H72 C52 0.932 . S
H73 C53 0.930 . S
H74 C54 0.929 . S
H75 C56 0.930 . S
H76 C58 0.932 . S
H77 C59 0.929 . S
H78 C60 0.928 . S
H79 C62 0.932 . S
C80 C81 1.264 . S
C80 C85 1.479 . S
C80 C90 1.465 . S
C81 C80 1.264 . S
C81 C83 1.339 . S
C81 H108 0.931 . S
C82 C83 1.395 . S
C82 C84 1.320 . S
C83 C81 1.339 . S
C83 C82 1.395 . S
C83 H109 0.929 . S
C84 C82 1.320 . S
C84 C85 1.405 . S
C84 H110 0.930 . S
C85 C80 1.479 . S
C85 C84 1.405 . S
C85 H111 0.931 . S
U86 O87 2.454 . S
U86 O88 2.458 . S
U86 C89 2.984 . S
U86 C90 2.847 . S
U86 C103 2.882 . S
U86 O104 2.441 . S
U86 O105 2.420 . S
U86 O106 2.455 . S
U86 O107 2.449 . S
O87 U86 2.454 . S
O87 C89 1.353 . S
O88 U86 2.458 . S
O88 C89 1.286 . S
C89 U86 2.984 . S
C89 O87 1.353 . S
C89 O88 1.286 . S
C89 C91 1.363 . S
C90 C80 1.465 . S
C90 U86 2.847 . S
C90 O104 1.249 . S
C90 O105 1.202 . S
C91 C89 1.363 . S
C91 C93 1.408 . S
C91 C96 1.342 . S
C92 C93 1.310 . S
C92 C95 1.461 . S
C92 H112 0.932 . S
C93 C91 1.408 . S
C93 C92 1.310 . S
C93 H113 0.930 . S
C94 C95 1.474 . S
C94 C96 1.285 . S
C94 H114 0.929 . S
C95 C92 1.461 . S
C95 C94 1.474 . S
C96 C91 1.342 . S
C96 C94 1.285 . S
C96 H115 0.930 . S
C97 C100 1.424 . S
C97 C102 1.245 . S
C97 C103 1.428 . S
C98 C101 1.260 . S
C98 C102 1.477 . S
C98 H116 0.932 . S
C99 C100 1.384 . S
C99 C101 1.479 . S
C99 H117 0.929 . S
C100 C97 1.424 . S
C100 C99 1.384 . S
C100 H118 0.928 . S
C101 C98 1.260 . S
C101 C99 1.479 . S
C102 C97 1.245 . S
C102 C98 1.477 . S
C102 H119 0.932 . S
C103 U86 2.882 . S
C103 C97 1.428 . S
C103 O106 1.301 . S
C103 O107 1.282 . S
O104 U86 2.441 . S
O104 C90 1.249 . S
O105 U86 2.420 . S
O105 C90 1.202 . S
O106 U86 2.455 . S
O106 C103 1.301 . S
O107 U86 2.449 . S
O107 C103 1.282 . S
H108 C81 0.931 . S
H109 C83 0.929 . S
H110 C84 0.930 . S
H111 C85 0.931 . S
H112 C92 0.932 . S
H113 C93 0.930 . S
H114 C94 0.929 . S
H115 C96 0.930 . S
H116 C98 0.932 . S
H117 C99 0.929 . S
H118 C100 0.928 . S
H119 C102 0.932 . S
C120 C121 1.264 . S
C120 C125 1.479 . S
C120 C130 1.465 . S
C121 C120 1.264 . S
C121 C123 1.339 . S
C121 H148 0.931 . S
C122 C123 1.395 . S
C122 C124 1.320 . S
C123 C121 1.339 . S
C123 C122 1.395 . S
C123 H149 0.929 . S
C124 C122 1.320 . S
C124 C125 1.405 . S
C124 H150 0.930 . S
C125 C120 1.479 . S
C125 C124 1.405 . S
C125 H151 0.931 . S
U126 O127 2.454 . S
U126 O128 2.458 . S
U126 C129 2.984 . S
U126 C130 2.847 . S
U126 C143 2.882 . S
U126 O144 2.441 . S
U126 O145 2.420 . S
U126 O146 2.455 . S
U126 O147 2.449 . S
O127 U126 2.454 . S
O127 C129 1.353 . S
O128 U126 2.458 . S
O128 C129 1.286 . S
C129 U126 2.984 . S
C129 O127 1.353 . S
C129 O128 1.286 . S
C129 C131 1.363 . S
C130 C120 1.465 . S
C130 U126 2.847 . S
C130 O144 1.249 . S
C130 O145 1.202 . S
C131 C129 1.363 . S
C131 C133 1.408 . S
C131 C136 1.342 . S
C132 C133 1.310 . S
C132 C135 1.461 . S
C132 H152 0.932 . S
C133 C131 1.408 . S
C133 C132 1.310 . S
C133 H153 0.930 . S
C134 C135 1.474 . S
C134 C136 1.285 . S
C134 H154 0.929 . S
C135 C132 1.461 . S
C135 C134 1.474 . S
C136 C131 1.342 . S
C136 C134 1.285 . S
C136 H155 0.930 . S
C137 C140 1.424 . S
C137 C142 1.245 . S
C137 C143 1.428 . S
C138 C141 1.260 . S
C138 C142 1.477 . S
C138 H156 0.932 . S
C139 C140 1.384 . S
C139 C141 1.479 . S
C139 H157 0.929 . S
C140 C137 1.424 . S
C140 C139 1.384 . S
C140 H158 0.928 . S
C141 C138 1.260 . S
C141 C139 1.479 . S
C142 C137 1.245 . S
C142 C138 1.477 . S
C142 H159 0.932 . S
C143 U126 2.882 . S
C143 C137 1.428 . S
C143 O146 1.301 . S
C143 O147 1.282 . S
O144 U126 2.441 . S
O144 C130 1.249 . S
O145 U126 2.420 . S
O145 C130 1.202 . S
O146 U126 2.455 . S
O146 C143 1.301 . S
O147 U126 2.449 . S
O147 C143 1.282 . S
H148 C121 0.931 . S
H149 C123 0.929 . S
H150 C124 0.930 . S
H151 C125 0.931 . S
H152 C132 0.932 . S
H153 C133 0.930 . S
H154 C134 0.929 . S
H155 C136 0.930 . S
H156 C138 0.932 . S
H157 C139 0.929 . S
H158 C140 0.928 . S
H159 C142 0.932 . S
C160 C161 1.264 . S
C160 C165 1.479 . S
C160 C170 1.465 . S
C161 C160 1.264 . S
C161 C163 1.339 . S
C161 H188 0.931 . S
C162 C163 1.395 . S
C162 C164 1.320 . S
C163 C161 1.339 . S
C163 C162 1.395 . S
C163 H189 0.929 . S
C164 C162 1.320 . S
C164 C165 1.405 . S
C164 H190 0.930 . S
C165 C160 1.479 . S
C165 C164 1.405 . S
C165 H191 0.931 . S
U166 O167 2.454 . S
U166 O168 2.458 . S
U166 C169 2.984 . S
U166 C170 2.847 . S
U166 C183 2.882 . S
U166 O184 2.441 . S
U166 O185 2.420 . S
U166 O186 2.455 . S
U166 O187 2.449 . S
O167 U166 2.454 . S
O167 C169 1.353 . S
O168 U166 2.458 . S
O168 C169 1.286 . S
C169 U166 2.984 . S
C169 O167 1.353 . S
C169 O168 1.286 . S
C169 C171 1.363 . S
C170 C160 1.465 . S
C170 U166 2.847 . S
C170 O184 1.249 . S
C170 O185 1.202 . S
C171 C169 1.363 . S
C171 C173 1.408 . S
C171 C176 1.342 . S
C172 C173 1.310 . S
C172 C175 1.461 . S
C172 H192 0.932 . S
C173 C171 1.408 . S
C173 C172 1.310 . S
C173 H193 0.930 . S
C174 C175 1.474 . S
C174 C176 1.285 . S
C174 H194 0.929 . S
C175 C172 1.461 . S
C175 C174 1.474 . S
C176 C171 1.342 . S
C176 C174 1.285 . S
C176 H195 0.930 . S
C177 C180 1.424 . S
C177 C182 1.245 . S
C177 C183 1.428 . S
C178 C181 1.260 . S
C178 C182 1.477 . S
C178 H196 0.932 . S
C179 C180 1.384 . S
C179 C181 1.479 . S
C179 H197 0.929 . S
C180 C177 1.424 . S
C180 C179 1.384 . S
C180 H198 0.928 . S
C181 C178 1.260 . S
C181 C179 1.479 . S
C182 C177 1.245 . S
C182 C178 1.477 . S
C182 H199 0.932 . S
C183 U166 2.882 . S
C183 C177 1.428 . S
C183 O186 1.301 . S
C183 O187 1.282 . S
O184 U166 2.441 . S
O184 C170 1.249 . S
O185 U166 2.420 . S
O185 C170 1.202 . S
O186 U166 2.455 . S
O186 C183 1.301 . S
O187 U166 2.449 . S
O187 C183 1.282 . S
H188 C161 0.931 . S
H189 C163 0.929 . S
H190 C164 0.930 . S
H191 C165 0.931 . S
H192 C172 0.932 . S
H193 C173 0.930 . S
H194 C174 0.929 . S
H195 C176 0.930 . S
H196 C178 0.932 . S
H197 C179 0.929 . S
H198 C180 0.928 . S
H199 C182 0.932 . S
C200 C201 1.264 . S
C200 C205 1.479 . S
C200 C210 1.465 . S
C201 C200 1.264 . S
C201 C203 1.339 . S
C201 H228 0.931 . S
C202 C203 1.395 . S
C202 C204 1.320 . S
C203 C201 1.339 . S
C203 C202 1.395 . S
C203 H229 0.929 . S
C204 C202 1.320 . S
C204 C205 1.405 . S
C204 H230 0.930 . S
C205 C200 1.479 . S
C205 C204 1.405 . S
C205 H231 0.931 . S
U206 O207 2.454 . S
U206 O208 2.458 . S
U206 C209 2.984 . S
U206 C210 2.847 . S
U206 C223 2.882 . S
U206 O224 2.441 . S
U206 O225 2.420 . S
U206 O226 2.455 . S
U206 O227 2.449 . S
O207 U206 2.454 . S
O207 C209 1.353 . S
O208 U206 2.458 . S
O208 C209 1.286 . S
C209 U206 2.984 . S
C209 O207 1.353 . S
C209 O208 1.286 . S
C209 C211 1.363 . S
C210 C200 1.465 . S
C210 U206 2.847 . S
C210 O224 1.249 . S
C210 O225 1.202 . S
C211 C209 1.363 . S
C211 C213 1.408 . S
C211 C216 1.342 . S
C212 C213 1.310 . S
C212 C215 1.461 . S
C212 H232 0.932 . S
C213 C211 1.408 . S
C213 C212 1.310 . S
C213 H233 0.930 . S
C214 C215 1.474 . S
C214 C216 1.285 . S
C214 H234 0.929 . S
C215 C212 1.461 . S
C215 C214 1.474 . S
C216 C211 1.342 . S
C216 C214 1.285 . S
C216 H235 0.930 . S
C217 C220 1.424 . S
C217 C222 1.245 . S
C217 C223 1.428 . S
C218 C221 1.260 . S
C218 C222 1.477 . S
C218 H236 0.932 . S
C219 C220 1.384 . S
C219 C221 1.479 . S
C219 H237 0.929 . S
C220 C217 1.424 . S
C220 C219 1.384 . S
C220 H238 0.928 . S
C221 C218 1.260 . S
C221 C219 1.479 . S
C222 C217 1.245 . S
C222 C218 1.477 . S
C222 H239 0.932 . S
C223 U206 2.882 . S
C223 C217 1.428 . S
C223 O226 1.301 . S
C223 O227 1.282 . S
O224 U206 2.441 . S
O224 C210 1.249 . S
O225 U206 2.420 . S
O225 C210 1.202 . S
O226 U206 2.455 . S
O226 C223 1.301 . S
O227 U206 2.449 . S
O227 C223 1.282 . S
H228 C201 0.931 . S
H229 C203 0.929 . S
H230 C204 0.930 . S
H231 C205 0.931 . S
H232 C212 0.932 . S
H233 C213 0.930 . S
H234 C214 0.929 . S
H235 C216 0.930 . S
H236 C218 0.932 . S
H237 C219 0.929 . S
H238 C220 0.928 . S
H239 C222 0.932 . S
C240 C241 1.264 . S
C240 C245 1.479 . S
C240 C250 1.465 . S
C241 C240 1.264 . S
C241 C243 1.339 . S
C241 H268 0.931 . S
C242 C243 1.395 . S
C242 C244 1.320 . S
C243 C241 1.339 . S
C243 C242 1.395 . S
C243 H269 0.929 . S
C244 C242 1.320 . S
C244 C245 1.405 . S
C244 H270 0.930 . S
C245 C240 1.479 . S
C245 C244 1.405 . S
C245 H271 0.931 . S
U246 O247 2.454 . S
U246 O248 2.458 . S
U246 C249 2.984 . S
U246 C250 2.847 . S
U246 C263 2.882 . S
U246 O264 2.441 . S
U246 O265 2.420 . S
U246 O266 2.455 . S
U246 O267 2.449 . S
O247 U246 2.454 . S
O247 C249 1.353 . S
O248 U246 2.458 . S
O248 C249 1.286 . S
C249 U246 2.984 . S
C249 O247 1.353 . S
C249 O248 1.286 . S
C249 C251 1.363 . S
C250 C240 1.465 . S
C250 U246 2.847 . S
C250 O264 1.249 . S
C250 O265 1.202 . S
C251 C249 1.363 . S
C251 C253 1.408 . S
C251 C256 1.342 . S
C252 C253 1.310 . S
C252 C255 1.461 . S
C252 H272 0.932 . S
C253 C251 1.408 . S
C253 C252 1.310 . S
C253 H273 0.930 . S
C254 C255 1.474 . S
C254 C256 1.285 . S
C254 H274 0.929 . S
C255 C252 1.461 . S
C255 C254 1.474 . S
C256 C251 1.342 . S
C256 C254 1.285 . S
C256 H275 0.930 . S
C257 C260 1.424 . S
C257 C262 1.245 . S
C257 C263 1.428 . S
C258 C261 1.260 . S
C258 C262 1.477 . S
C258 H276 0.932 . S
C259 C260 1.384 . S
C259 C261 1.479 . S
C259 H277 0.929 . S
C260 C257 1.424 . S
C260 C259 1.384 . S
C260 H278 0.928 . S
C261 C258 1.260 . S
C261 C259 1.479 . S
C262 C257 1.245 . S
C262 C258 1.477 . S
C262 H279 0.932 . S
C263 U246 2.882 . S
C263 C257 1.428 . S
C263 O266 1.301 . S
C263 O267 1.282 . S
O264 U246 2.441 . S
O264 C250 1.249 . S
O265 U246 2.420 . S
O265 C250 1.202 . S
O266 U246 2.455 . S
O266 C263 1.301 . S
O267 U246 2.449 . S
O267 C263 1.282 . S
H268 C241 0.931 . S
H269 C243 0.929 . S
H270 C244 0.930 . S
H271 C245 0.931 . S
H272 C252 0.932 . S
H273 C253 0.930 . S
H274 C254 0.929 . S
H275 C256 0.930 . S
H276 C258 0.932 . S
H277 C259 0.929 . S
H278 C260 0.928 . S
H279 C262 0.932 . S
C280 C281 1.264 . S
C280 C285 1.479 . S
C280 C290 1.465 . S
C281 C280 1.264 . S
C281 C283 1.339 . S
C281 H308 0.931 . S
C282 C283 1.395 . S
C282 C284 1.320 . S
C283 C281 1.339 . S
C283 C282 1.395 . S
C283 H309 0.929 . S
C284 C282 1.320 . S
C284 C285 1.405 . S
C284 H310 0.930 . S
C285 C280 1.479 . S
C285 C284 1.405 . S
C285 H311 0.931 . S
U286 O287 2.454 . S
U286 O288 2.458 . S
U286 C289 2.984 . S
U286 C290 2.847 . S
U286 C303 2.882 . S
U286 O304 2.441 . S
U286 O305 2.420 . S
U286 O306 2.455 . S
U286 O307 2.449 . S
O287 U286 2.454 . S
O287 C289 1.353 . S
O288 U286 2.458 . S
O288 C289 1.286 . S
C289 U286 2.984 . S
C289 O287 1.353 . S
C289 O288 1.286 . S
C289 C291 1.363 . S
C290 C280 1.465 . S
C290 U286 2.847 . S
C290 O304 1.249 . S
C290 O305 1.202 . S
C291 C289 1.363 . S
C291 C293 1.408 . S
C291 C296 1.342 . S
C292 C293 1.310 . S
C292 C295 1.461 . S
C292 H312 0.932 . S
C293 C291 1.408 . S
C293 C292 1.310 . S
C293 H313 0.930 . S
C294 C295 1.474 . S
C294 C296 1.285 . S
C294 H314 0.929 . S
C295 C292 1.461 . S
C295 C294 1.474 . S
C296 C291 1.342 . S
C296 C294 1.285 . S
C296 H315 0.930 . S
C297 C300 1.424 . S
C297 C302 1.245 . S
C297 C303 1.428 . S
C298 C301 1.260 . S
C298 C302 1.477 . S
C298 H316 0.932 . S
C299 C300 1.384 . S
C299 C301 1.479 . S
C299 H317 0.929 . S
C300 C297 1.424 . S
C300 C299 1.384 . S
C300 H318 0.928 . S
C301 C298 1.260 . S
C301 C299 1.479 . S
C302 C297 1.245 . S
C302 C298 1.477 . S
C302 H319 0.932 . S
C303 U286 2.882 . S
C303 C297 1.428 . S
C303 O306 1.301 . S
C303 O307 1.282 . S
O304 U286 2.441 . S
O304 C290 1.249 . S
O305 U286 2.420 . S
O305 C290 1.202 . S
O306 U286 2.455 . S
O306 C303 1.301 . S
O307 U286 2.449 . S
O307 C303 1.282 . S
H308 C281 0.931 . S
H309 C283 0.929 . S
H310 C284 0.930 . S
H311 C285 0.931 . S
H312 C292 0.932 . S
H313 C293 0.930 . S
H314 C294 0.929 . S
H315 C296 0.930 . S
H316 C298 0.932 . S
H317 C299 0.929 . S
H318 C300 0.928 . S
H319 C302 0.932 . S
Dy320 O323 2.307 1_545 S
Dy320 O325 2.395 . S
Dy320 O326 2.379 . S
Dy320 O328 2.339 1_545 S
Dy320 O330 2.307 . S
Dy320 O334 2.275 . S
Dy320 C342 2.738 . S
Dy321 O324 2.282 1_645 S
Dy321 O327 2.260 1_545 S
Dy321 O329 2.325 . S
Dy321 O331 2.373 1_545 S
Dy321 O332 2.376 1_545 S
Dy321 O335 2.359 . S
Dy321 C351 2.724 1_545 S
C322 O334 1.254 . S
C322 O335 1.257 1_455 S
O323 Dy320 2.307 1_565 S
O323 C333 1.266 . S
O324 Dy321 2.282 1_465 S
O324 C333 1.236 . S
O325 Dy320 2.395 . S
O325 C342 1.255 . S
O326 Dy320 2.379 . S
O326 C342 1.249 . S
O327 Dy321 2.260 1_565 S
O327 C343 1.254 . S
O328 Dy320 2.339 1_565 S
O328 C343 1.257 1_455 S
O329 Dy321 2.325 . S
O329 C344 1.266 . S
O330 Dy320 2.307 . S
O330 C344 1.226 1_455 S
O331 Dy321 2.373 1_565 S
O331 C351 1.255 . S
O332 Dy321 2.376 1_565 S
O332 C351 1.249 . S
C333 O323 1.266 . S
C333 O324 1.236 . S
O334 Dy320 2.275 . S
O334 C322 1.254 . S
O335 Dy321 2.359 . S
O335 C322 1.257 1_655 S
C336 C339 1.344 . S
C336 C340 1.328 . S
C336 C342 1.516 . S
C337 C338 1.304 . S
C337 C341 1.323 . S
C338 C337 1.304 . S
C338 C339 1.371 . S
C338 H352 0.930 . S
C339 C336 1.344 . S
C339 C338 1.371 . S
C339 H353 0.931 . S
C340 C336 1.328 . S
C340 C341 1.433 . S
C340 H354 0.931 . S
C341 C337 1.323 . S
C341 C340 1.433 . S
C341 H355 0.933 . S
C342 Dy320 2.738 . S
C342 O325 1.255 . S
C342 O326 1.249 . S
C342 C336 1.516 . S
C343 O327 1.254 . S
C343 O328 1.257 1_655 S
C344 O329 1.266 . S
C344 O330 1.226 1_655 S
C345 C348 1.344 . S
C345 C349 1.328 . S
C345 C351 1.516 . S
C346 C347 1.304 . S
C346 C350 1.323 . S
C347 C346 1.304 . S
C347 C348 1.371 . S
C347 H356 0.930 . S
C348 C345 1.344 . S
C348 C347 1.371 . S
C348 H357 0.931 . S
C349 C345 1.328 . S
C349 C350 1.433 . S
C349 H358 0.931 . S
C350 C346 1.323 . S
C350 C349 1.433 . S
C350 H359 0.933 . S
C351 Dy321 2.724 1_565 S
C351 O331 1.255 . S
C351 O332 1.249 . S
C351 C345 1.516 . S
H352 C338 0.930 . S
H353 C339 0.931 . S
H354 C340 0.931 . S
H355 C341 0.933 . S
H356 C347 0.930 . S
H357 C348 0.931 . S
H358 C349 0.931 . S
H359 C350 0.933 . S
Dy360 O363 2.307 1_566 S
Dy360 O365 2.395 . S
Dy360 O366 2.379 . S
Dy360 O368 2.339 1_565 S
Dy360 O370 2.298 . S
Dy360 O374 2.275 1_556 S
Dy360 C382 2.738 . S
Dy361 O364 2.298 . S
Dy361 O367 2.275 1_554 S
Dy361 O369 2.307 1_544 S
Dy361 O371 2.395 . S
Dy361 O372 2.379 . S
Dy361 O375 2.339 1_545 S
Dy361 C391 2.738 . S
C362 O374 1.254 . S
C362 O375 1.257 . S
O363 Dy360 2.307 1_544 S
O363 C373 1.266 . S
O364 Dy361 2.298 . S
O364 C373 1.236 . S
O365 Dy360 2.395 . S
O365 C382 1.255 . S
O366 Dy360 2.379 . S
O366 C382 1.249 . S
O367 Dy361 2.275 1_556 S
O367 C383 1.254 . S
O368 Dy360 2.339 1_545 S
O368 C383 1.257 . S
O369 Dy361 2.307 1_566 S
O369 C384 1.266 . S
O370 Dy360 2.298 . S
O370 C384 1.236 . S
O371 Dy361 2.395 . S
O371 C391 1.255 . S
O372 Dy361 2.379 . S
O372 C391 1.249 . S
C373 O363 1.266 . S
C373 O364 1.236 . S
O374 Dy360 2.275 1_554 S
O374 C362 1.254 . S
O375 Dy361 2.339 1_565 S
O375 C362 1.257 . S
C376 C379 1.344 . S
C376 C380 1.328 . S
C376 C382 1.516 . S
C377 C378 1.304 . S
C377 C381 1.323 . S
C378 C377 1.304 . S
C378 C379 1.371 . S
C378 H392 0.930 . S
C379 C376 1.344 . S
C379 C378 1.371 . S
C379 H393 0.931 . S
C380 C376 1.328 . S
C380 C381 1.433 . S
C380 H394 0.931 . S
C381 C377 1.323 . S
C381 C380 1.433 . S
C381 H395 0.933 . S
C382 Dy360 2.738 . S
C382 O365 1.255 . S
C382 O366 1.249 . S
C382 C376 1.516 . S
C383 O367 1.254 . S
C383 O368 1.257 . S
C384 O369 1.266 . S
C384 O370 1.236 . S
C385 C388 1.344 . S
C385 C389 1.328 . S
C385 C391 1.516 . S
C386 C387 1.304 . S
C386 C390 1.323 . S
C387 C386 1.304 . S
C387 C388 1.371 . S
C387 H396 0.930 . S
C388 C385 1.344 . S
C388 C387 1.371 . S
C388 H397 0.931 . S
C389 C385 1.328 . S
C389 C390 1.433 . S
C389 H398 0.931 . S
C390 C386 1.323 . S
C390 C389 1.433 . S
C390 H399 0.933 . S
C391 Dy361 2.738 . S
C391 O371 1.255 . S
C391 O372 1.249 . S
C391 C385 1.516 . S
H392 C378 0.930 . S
H393 C379 0.931 . S
H394 C380 0.931 . S
H395 C381 0.933 . S
H396 C387 0.930 . S
H397 C388 0.931 . S
H398 C389 0.931 . S
H399 C390 0.933 . S
Dy400 O403 2.307 . S
Dy400 O405 2.395 . S
Dy400 O406 2.379 . S
Dy400 O408 2.339 . S
Dy400 O410 2.298 . S
Dy400 O414 2.275 . S
Dy400 C422 2.738 . S
Dy401 O404 2.298 . S
Dy401 O407 2.275 . S
Dy401 O409 2.307 . S
Dy401 O411 2.395 . S
Dy401 O412 2.379 . S
Dy401 O415 2.339 . S
Dy401 C431 2.738 . S
C402 O414 1.254 . S
C402 O415 1.257 . S
O403 Dy400 2.307 . S
O403 C413 1.266 . S
O404 Dy401 2.298 . S
O404 C413 1.236 . S
O405 Dy400 2.395 . S
O405 C422 1.255 . S
O406 Dy400 2.379 . S
O406 C422 1.249 . S
O407 Dy401 2.275 . S
O407 C423 1.254 . S
O408 Dy400 2.339 . S
O408 C423 1.257 . S
O409 Dy401 2.307 . S
O409 C424 1.266 . S
O410 Dy400 2.298 . S
O410 C424 1.236 . S
O411 Dy401 2.395 . S
O411 C431 1.255 . S
O412 Dy401 2.379 . S
O412 C431 1.249 . S
C413 O403 1.266 . S
C413 O404 1.236 . S
O414 Dy400 2.275 . S
O414 C402 1.254 . S
O415 Dy401 2.339 . S
O415 C402 1.257 . S
C416 C419 1.344 . S
C416 C420 1.328 . S
C416 C422 1.516 . S
C417 C418 1.304 . S
C417 C421 1.323 . S
C418 C417 1.304 . S
C418 C419 1.371 . S
C418 H432 0.930 . S
C419 C416 1.344 . S
C419 C418 1.371 . S
C419 H433 0.931 . S
C420 C416 1.328 . S
C420 C421 1.433 . S
C420 H434 0.931 . S
C421 C417 1.323 . S
C421 C420 1.433 . S
C421 H435 0.933 . S
C422 Dy400 2.738 . S
C422 O405 1.255 . S
C422 O406 1.249 . S
C422 C416 1.516 . S
C423 O407 1.254 . S
C423 O408 1.257 . S
C424 O409 1.266 . S
C424 O410 1.236 . S
C425 C428 1.344 . S
C425 C429 1.328 . S
C425 C431 1.516 . S
C426 C427 1.304 . S
C426 C430 1.323 . S
C427 C426 1.304 . S
C427 C428 1.371 . S
C427 H436 0.930 . S
C428 C425 1.344 . S
C428 C427 1.371 . S
C428 H437 0.931 . S
C429 C425 1.328 . S
C429 C430 1.433 . S
C429 H438 0.931 . S
C430 C426 1.323 . S
C430 C429 1.433 . S
C430 H439 0.933 . S
C431 Dy401 2.738 . S
C431 O411 1.255 . S
C431 O412 1.249 . S
C431 C425 1.516 . S
H432 C418 0.930 . S
H433 C419 0.931 . S
H434 C420 0.931 . S
H435 C421 0.933 . S
H436 C427 0.930 . S
H437 C428 0.931 . S
H438 C429 0.931 . S
H439 C430 0.933 . S
Dy440 O443 2.307 1_556 S
Dy440 O445 2.395 1_455 S
Dy440 O446 2.379 1_455 S
Dy440 O448 2.339 . S
Dy440 O450 2.298 1_455 S
Dy440 O454 2.275 1_456 S
Dy440 C462 2.738 1_455 S
Dy441 O444 2.298 . S
Dy441 O447 2.275 1_554 S
Dy441 O449 2.307 1_455 S
Dy441 O451 2.395 . S
Dy441 O452 2.379 . S
Dy441 O455 2.339 1_455 S
Dy441 C471 2.738 . S
C442 O454 1.254 . S
C442 O455 1.257 . S
O443 Dy440 2.307 1_554 S
O443 C453 1.266 . S
O444 Dy441 2.298 . S
O444 C453 1.236 . S
O445 Dy440 2.395 1_655 S
O445 C462 1.255 . S
O446 Dy440 2.379 1_655 S
O446 C462 1.249 . S
O447 Dy441 2.275 1_556 S
O447 C463 1.254 . S
O448 Dy440 2.339 . S
O448 C463 1.257 . S
O449 Dy441 2.307 1_655 S
O449 C464 1.266 1_554 S
O450 Dy440 2.298 1_655 S
O450 C464 1.236 . S
O451 Dy441 2.395 . S
O451 C471 1.255 . S
O452 Dy441 2.379 . S
O452 C471 1.249 . S
C453 O443 1.266 . S
C453 O444 1.236 . S
O454 Dy440 2.275 1_654 S
O454 C442 1.254 . S
O455 Dy441 2.339 1_655 S
O455 C442 1.257 . S
C456 C459 1.344 . S
C456 C460 1.328 . S
C456 C462 1.516 . S
C457 C458 1.304 . S
C457 C461 1.323 . S
C458 C457 1.304 . S
C458 C459 1.371 . S
C458 H472 0.930 . S
C459 C456 1.344 . S
C459 C458 1.371 . S
C459 H473 0.931 . S
C460 C456 1.328 . S
C460 C461 1.433 . S
C460 H474 0.931 . S
C461 C457 1.323 . S
C461 C460 1.433 . S
C461 H475 0.933 . S
C462 Dy440 2.738 1_655 S
C462 O445 1.255 . S
C462 O446 1.249 . S
C462 C456 1.516 . S
C463 O447 1.254 . S
C463 O448 1.257 . S
C464 O449 1.266 1_556 S
C464 O450 1.236 . S
C465 C468 1.344 . S
C465 C469 1.328 . S
C465 C471 1.516 . S
C466 C467 1.304 . S
C466 C470 1.323 . S
C467 C466 1.304 . S
C467 C468 1.371 . S
C467 H476 0.930 . S
C468 C465 1.344 . S
C468 C467 1.371 . S
C468 H477 0.931 . S
C469 C465 1.328 . S
C469 C470 1.433 . S
C469 H478 0.931 . S
C470 C466 1.323 . S
C470 C469 1.433 . S
C470 H479 0.933 . S
C471 Dy441 2.738 . S
C471 O451 1.255 . S
C471 O452 1.249 . S
C471 C465 1.516 . S
H472 C458 0.930 . S
H473 C459 0.931 . S
H474 C460 0.931 . S
H475 C461 0.933 . S
H476 C467 0.930 . S
H477 C468 0.931 . S
H478 C469 0.931 . S
H479 C470 0.933 . S
C480 C481 1.363 . S
C480 C486 1.379 . S
C480 N488 1.356 . S
C481 C480 1.363 . S
C481 C487 1.363 . S
C482 C483 1.363 . S
C482 C487 1.379 . S
C482 N489 1.356 . S
C483 C482 1.363 . S
C483 C486 1.363 . S
N484 C486 1.356 . S
N484 H496 0.984 . S
N484 H497 0.985 . S
N485 C487 1.356 . S
N485 H490 0.984 . S
N485 H491 0.985 . S
C486 C480 1.379 . S
C486 C483 1.363 . S
C486 N484 1.356 . S
C487 C481 1.363 . S
C487 C482 1.379 . S
C487 N485 1.356 . S
N488 C480 1.356 . S
N488 H494 0.984 . S
N488 H495 0.984 . S
N489 C482 1.356 . S
N489 H492 0.984 . S
N489 H493 0.985 . S
H490 N485 0.984 . S
H491 N485 0.985 . S
H492 N489 0.984 . S
H493 N489 0.985 . S
H494 N488 0.984 . S
H495 N488 0.984 . S
H496 N484 0.984 . S
H497 N484 0.985 . S
C498 C499 1.363 . S
C498 C504 1.379 . S
C498 N506 1.356 . S
C499 C498 1.363 . S
C499 C505 1.363 . S
C500 C501 1.363 . S
C500 C505 1.379 . S
C500 N507 1.356 . S
C501 C500 1.363 . S
C501 C504 1.363 . S
N502 C504 1.356 . S
N502 H514 0.984 . S
N502 H515 0.985 . S
N503 C505 1.356 . S
N503 H508 0.984 . S
N503 H509 0.985 . S
C504 C498 1.379 . S
C504 C501 1.363 . S
C504 N502 1.356 . S
C505 C499 1.363 . S
C505 C500 1.379 . S
C505 N503 1.356 . S
N506 C498 1.356 . S
N506 H512 0.984 . S
N506 H513 0.984 . S
N507 C500 1.356 . S
N507 H510 0.984 . S
N507 H511 0.985 . S
H508 N503 0.984 . S
H509 N503 0.985 . S
H510 N507 0.984 . S
H511 N507 0.985 . S
H512 N506 0.984 . S
H513 N506 0.984 . S
H514 N502 0.984 . S
H515 N502 0.985 . S
C516 C517 1.363 . S
C516 C522 1.379 . S
C516 N524 1.356 . S
C517 C516 1.363 . S
C517 C523 1.363 . S
C518 C519 1.363 . S
C518 C523 1.379 . S
C518 N525 1.356 . S
C519 C518 1.363 . S
C519 C522 1.363 . S
N520 C522 1.356 . S
N520 H532 0.984 . S
N520 H533 0.985 . S
N521 C523 1.356 . S
N521 H526 0.984 . S
N521 H527 0.985 . S
C522 C516 1.379 . S
C522 C519 1.363 . S
C522 N520 1.356 . S
C523 C517 1.363 . S
C523 C518 1.379 . S
C523 N521 1.356 . S
N524 C516 1.356 . S
N524 H530 0.984 . S
N524 H531 0.984 . S
N525 C518 1.356 . S
N525 H528 0.984 . S
N525 H529 0.985 . S
H526 N521 0.984 . S
H527 N521 0.985 . S
H528 N525 0.984 . S
H529 N525 0.985 . S
H530 N524 0.984 . S
H531 N524 0.984 . S
H532 N520 0.984 . S
H533 N520 0.985 . S
C534 C535 1.363 . S
C534 C540 1.379 . S
C534 N542 1.356 . S
C535 C534 1.363 . S
C535 C541 1.363 . S
C536 C537 1.363 . S
C536 C541 1.379 . S
C536 N543 1.338 1_655 S
C537 C536 1.363 . S
C537 C540 1.363 . S
N538 C540 1.356 . S
N538 H550 0.984 . S
N538 H551 0.985 . S
N539 C541 1.356 . S
N539 H544 0.984 . S
N539 H545 0.985 1_655 S
C540 C534 1.379 . S
C540 C537 1.363 . S
C540 N538 1.356 . S
C541 C535 1.363 . S
C541 C536 1.379 . S
C541 N539 1.356 . S
N542 C534 1.356 . S
N542 H548 0.984 . S
N542 H549 0.984 . S
N543 C536 1.338 1_455 S
N543 H546 0.990 1_455 S
N543 H547 1.001 . S
H544 N539 0.984 . S
H545 N539 0.985 1_455 S
H546 N543 0.990 1_655 S
H547 N543 1.001 . S
H548 N542 0.984 . S
H549 N542 0.984 . S
H550 N538 0.984 . S
H551 N538 0.985 . S
C552 C553 1.363 . S
C552 C558 1.379 . S
C552 N560 1.356 . S
C553 C552 1.363 . S
C553 C559 1.363 . S
C554 C555 1.363 . S
C554 C559 1.379 . S
C554 N561 1.356 . S
C555 C554 1.363 . S
C555 C558 1.363 . S
N556 C558 1.356 . S
N556 H568 0.984 . S
N556 H569 0.985 . S
N557 C559 1.356 . S
N557 H562 0.984 . S
N557 H563 0.985 . S
C558 C552 1.379 . S
C558 C555 1.363 . S
C558 N556 1.356 . S
C559 C553 1.363 . S
C559 C554 1.379 . S
C559 N557 1.356 . S
N560 C552 1.356 . S
N560 H566 0.984 . S
N560 H567 0.984 . S
N561 C554 1.356 . S
N561 H564 0.984 . S
N561 H565 0.985 . S
H562 N557 0.984 . S
H563 N557 0.985 . S
H564 N561 0.984 . S
H565 N561 0.985 . S
H566 N560 0.984 . S
H567 N560 0.984 . S
H568 N556 0.984 . S
H569 N556 0.985 . S
C570 C571 1.363 . S
C570 C576 1.379 . S
C570 N578 1.356 . S
C571 C570 1.363 . S
C571 C577 1.363 . S
C572 C573 1.363 . S
C572 C577 1.379 . S
C572 N579 1.356 . S
C573 C572 1.363 . S
C573 C576 1.363 . S
N574 C576 1.356 . S
N574 H586 0.984 . S
N574 H587 0.985 . S
N575 C577 1.356 1_655 S
N575 H580 0.984 . S
N575 H581 0.985 . S
C576 C570 1.379 . S
C576 C573 1.363 . S
C576 N574 1.356 . S
C577 C571 1.363 . S
C577 C572 1.379 . S
C577 N575 1.356 1_455 S
N578 C570 1.356 . S
N578 H584 0.984 . S
N578 H585 0.984 . S
N579 C572 1.356 . S
N579 H582 0.984 . S
N579 H583 0.985 1_455 S
H580 N575 0.984 . S
H581 N575 0.985 . S
H582 N579 0.984 . S
H583 N579 0.985 1_655 S
H584 N578 0.984 . S
H585 N578 0.984 . S
H586 N574 0.984 . S
H587 N574 0.985 . S
C588 C589 1.363 . S
C588 C594 1.379 . S
C588 N596 1.356 . S
C589 C588 1.363 . S
C589 C595 1.363 . S
C590 C591 1.363 . S
C590 C595 1.379 . S
C590 N597 1.356 . S
C591 C590 1.363 . S
C591 C594 1.363 . S
N592 C594 1.356 . S
N592 H604 0.984 . S
N592 H605 0.985 . S
N593 C595 1.356 . S
N593 H598 0.984 . S
N593 H599 0.985 . S
C594 C588 1.379 . S
C594 C591 1.363 . S
C594 N592 1.356 . S
C595 C589 1.363 . S
C595 C590 1.379 . S
C595 N593 1.356 . S
N596 C588 1.356 . S
N596 H602 0.984 . S
N596 H603 0.984 . S
N597 C590 1.356 . S
N597 H600 0.984 1_556 S
N597 H601 0.985 1_556 S
H598 N593 0.984 . S
H599 N593 0.985 . S
H600 N597 0.984 1_554 S
H601 N597 0.985 1_554 S
H602 N596 0.984 . S
H603 N596 0.984 . S
H604 N592 0.984 . S
H605 N592 0.985 . S
C606 C607 1.363 . S
C606 C612 1.379 . S
C606 N614 1.356 . S
C607 C606 1.363 . S
C607 C613 1.363 . S
C608 C609 1.363 . S
C608 C613 1.379 . S
C608 N615 1.356 . S
C609 C608 1.363 . S
C609 C612 1.363 . S
N610 C612 1.356 . S
N610 H622 0.984 . S
N610 H623 0.985 . S
N611 C613 1.356 . S
N611 H616 0.984 . S
N611 H617 0.985 . S
C612 C606 1.379 . S
C612 C609 1.363 . S
C612 N610 1.356 . S
C613 C607 1.363 . S
C613 C608 1.379 . S
C613 N611 1.356 . S
N614 C606 1.356 . S
N614 H620 0.984 . S
N614 H621 0.984 . S
N615 C608 1.356 . S
N615 H618 0.984 . S
N615 H619 0.985 . S
H616 N611 0.984 . S
H617 N611 0.985 . S
H618 N615 0.984 . S
H619 N615 0.985 . S
H620 N614 0.984 . S
H621 N614 0.984 . S
H622 N610 0.984 . S
H623 N610 0.985 . S
C624 C625 1.363 . S
C624 C630 1.379 . S
C624 N632 1.356 . S
C625 C624 1.363 . S
C625 C631 1.363 . S
C626 C627 1.363 . S
C626 C631 1.379 . S
C626 N633 1.356 . S
C627 C626 1.363 . S
C627 C630 1.363 . S
N628 C630 1.356 . S
N628 H640 0.984 . S
N628 H641 0.985 . S
N629 C631 1.356 . S
N629 H634 0.984 . S
N629 H635 0.985 . S
C630 C624 1.379 . S
C630 C627 1.363 . S
C630 N628 1.356 . S
C631 C625 1.363 . S
C631 C626 1.379 . S
C631 N629 1.356 . S
N632 C624 1.356 . S
N632 H638 0.984 . S
N632 H639 0.984 . S
N633 C626 1.356 . S
N633 H636 0.984 . S
N633 H637 0.985 . S
H634 N629 0.984 . S
H635 N629 0.985 . S
H636 N633 0.984 . S
H637 N633 0.985 . S
H638 N632 0.984 . S
H639 N632 0.984 . S
H640 N628 0.984 . S
H641 N628 0.985 . S
C642 C643 1.363 . S
C642 C648 1.379 . S
C642 N650 1.356 . S
C643 C642 1.363 . S
C643 C649 1.363 . S
C644 C645 1.363 . S
C644 C649 1.379 . S
C644 N651 1.356 . S
C645 C644 1.363 . S
C645 C648 1.363 . S
N646 C648 1.356 . S
N646 H658 0.984 . S
N646 H659 0.985 . S
N647 C649 1.356 . S
N647 H652 0.984 . S
N647 H653 0.985 . S
C648 C642 1.379 . S
C648 C645 1.363 . S
C648 N646 1.356 . S
C649 C643 1.363 . S
C649 C644 1.379 . S
C649 N647 1.356 . S
N650 C642 1.356 . S
N650 H656 0.984 . S
N650 H657 0.984 . S
N651 C644 1.356 . S
N651 H654 0.984 . S
N651 H655 0.999 . S
H652 N647 0.984 . S
H653 N647 0.985 . S
H654 N651 0.984 . S
H655 N651 0.999 . S
H656 N650 0.984 . S
H657 N650 0.984 . S
H658 N646 0.984 . S
H659 N646 0.985 . S
C660 C661 1.363 . S
C660 C666 1.379 . S
C660 N668 1.356 . S
C661 C660 1.363 . S
C661 C667 1.363 . S
C662 C663 1.363 . S
C662 C667 1.379 . S
C662 N669 1.356 . S
C663 C662 1.363 . S
C663 C666 1.363 . S
N664 C666 1.356 1_455 S
N664 H676 0.984 . S
N664 H677 0.985 . S
N665 C667 1.356 . S
N665 H670 0.984 . S
N665 H671 0.985 . S
C666 C660 1.379 . S
C666 C663 1.363 . S
C666 N664 1.356 1_655 S
C667 C661 1.363 . S
C667 C662 1.379 . S
C667 N665 1.356 . S
N668 C660 1.356 . S
N668 H674 0.984 1_655 S
N668 H675 0.984 . S
N669 C662 1.356 . S
N669 H672 0.984 . S
N669 H673 0.985 . S
H670 N665 0.984 . S
H671 N665 0.985 . S
H672 N669 0.984 . S
H673 N669 0.985 . S
H674 N668 0.984 1_455 S
H675 N668 0.984 . S
H676 N664 0.984 . S
H677 N664 0.985 . S
C678 C679 1.363 . S
C678 C684 1.379 . S
C678 N686 1.356 . S
C679 C678 1.363 . S
C679 C685 1.363 . S
C680 C681 1.363 . S
C680 C685 1.379 . S
C680 N687 1.356 . S
C681 C680 1.363 . S
C681 C684 1.363 . S
N682 C684 1.356 . S
N682 H694 0.984 . S
N682 H695 0.985 . S
N683 C685 1.356 . S
N683 H688 0.984 . S
N683 H689 0.985 . S
C684 C678 1.379 . S
C684 C681 1.363 . S
C684 N682 1.356 . S
C685 C679 1.363 . S
C685 C680 1.379 . S
C685 N683 1.356 . S
N686 C678 1.356 . S
N686 H692 0.984 . S
N686 H693 0.984 . S
N687 C680 1.356 . S
N687 H690 0.984 . S
N687 H691 0.985 . S
H688 N683 0.984 . S
H689 N683 0.985 . S
H690 N687 0.984 . S
H691 N687 0.985 . S
H692 N686 0.984 . S
H693 N686 0.984 . S
H694 N682 0.984 . S
H695 N682 0.985 . S
C696 C697 1.363 . S
C696 C702 1.379 . S
C696 N704 1.356 . S
C697 C696 1.363 . S
C697 C703 1.363 . S
C698 C699 1.363 . S
C698 C703 1.379 . S
C698 N705 1.356 . S
C699 C698 1.363 . S
C699 C702 1.363 . S
N700 C702 1.356 . S
N700 H712 0.984 . S
N700 H713 0.985 . S
N701 C703 1.356 . S
N701 H706 0.984 . S
N701 H707 0.985 . S
C702 C696 1.379 . S
C702 C699 1.363 . S
C702 N700 1.356 . S
C703 C697 1.363 . S
C703 C698 1.379 . S
C703 N701 1.356 . S
N704 C696 1.356 . S
N704 H710 0.984 . S
N704 H711 0.984 . S
N705 C698 1.356 . S
N705 H708 0.984 . S
N705 H709 0.985 . S
H706 N701 0.984 . S
H707 N701 0.985 . S
H708 N705 0.984 . S
H709 N705 0.985 . S
H710 N704 0.984 . S
H711 N704 0.984 . S
H712 N700 0.984 . S
H713 N700 0.985 . S
C714 C715 1.363 . S
C714 C720 1.379 . S
C714 N722 1.356 . S
C715 C714 1.363 . S
C715 C721 1.363 . S
C716 C717 1.363 . S
C716 C721 1.379 . S
C716 N723 1.356 . S
C717 C716 1.363 . S
C717 C720 1.363 . S
N718 C720 1.356 . S
N718 H730 0.984 . S
N718 H731 0.985 . S
N719 C721 1.356 . S
N719 H724 0.984 . S
N719 H725 0.985 . S
C720 C714 1.379 . S
C720 C717 1.363 . S
C720 N718 1.356 . S
C721 C715 1.363 . S
C721 C716 1.379 . S
C721 N719 1.356 . S
N722 C714 1.356 . S
N722 H728 0.984 . S
N722 H729 0.984 . S
N723 C716 1.356 . S
N723 H726 0.984 . S
N723 H727 0.985 . S
H724 N719 0.984 . S
H725 N719 0.985 . S
H726 N723 0.984 . S
H727 N723 0.985 . S
H728 N722 0.984 . S
H729 N722 0.984 . S
H730 N718 0.984 . S
H731 N718 0.985 . S
C732 C733 1.363 . S
C732 C738 1.379 . S
C732 N740 1.356 . S
C733 C732 1.363 . S
C733 C739 1.363 . S
C734 C735 1.363 . S
C734 C739 1.379 . S
C734 N741 1.356 . S
C735 C734 1.363 . S
C735 C738 1.363 . S
N736 C738 1.356 . S
N736 H748 0.984 . S
N736 H749 0.985 . S
N737 C739 1.356 . S
N737 H742 0.984 . S
N737 H743 0.985 . S
C738 C732 1.379 . S
C738 C735 1.363 . S
C738 N736 1.356 . S
C739 C733 1.363 . S
C739 C734 1.379 . S
C739 N737 1.356 . S
N740 C732 1.356 . S
N740 H746 0.984 . S
N740 H747 0.984 . S
N741 C734 1.356 . S
N741 H744 0.984 . S
N741 H745 0.985 . S
H742 N737 0.984 . S
H743 N737 0.985 . S
H744 N741 0.984 . S
H745 N741 0.985 . S
H746 N740 0.984 . S
H747 N740 0.984 . S
H748 N736 0.984 . S
H749 N736 0.985 . S
C750 C751 1.363 . S
C750 C756 1.379 . S
C750 N758 1.356 . S
C751 C750 1.363 . S
C751 C757 1.363 . S
C752 C753 1.363 . S
C752 C757 1.379 . S
C752 N759 1.356 . S
C753 C752 1.363 . S
C753 C756 1.363 . S
N754 C756 1.356 . S
N754 H766 0.984 . S
N754 H767 0.985 . S
N755 C757 1.356 . S
N755 H760 0.984 . S
N755 H761 0.985 . S
C756 C750 1.379 . S
C756 C753 1.363 . S
C756 N754 1.356 . S
C757 C751 1.363 . S
C757 C752 1.379 . S
C757 N755 1.356 . S
N758 C750 1.356 . S
N758 H764 0.984 . S
N758 H765 0.984 . S
N759 C752 1.356 . S
N759 H762 0.984 . S
N759 H763 0.985 . S
H760 N755 0.984 . S
H761 N755 0.985 . S
H762 N759 0.984 . S
H763 N759 0.985 . S
H764 N758 0.984 . S
H765 N758 0.984 . S
H766 N754 0.984 . S
H767 N754 0.985 . S
C768 C769 1.363 . S
C768 C774 1.379 . S
C768 N776 1.356 . S
C769 C768 1.363 . S
C769 C775 1.363 . S
C770 C771 1.363 . S
C770 C775 1.379 . S
C770 N777 1.356 . S
C771 C770 1.363 . S
C771 C774 1.363 . S
N772 C774 1.356 . S
N772 H784 0.984 . S
N772 H785 0.985 . S
N773 C775 1.356 . S
N773 H778 0.984 . S
N773 H779 0.985 . S
C774 C768 1.379 . S
C774 C771 1.363 . S
C774 N772 1.356 . S
C775 C769 1.363 . S
C775 C770 1.379 . S
C775 N773 1.356 . S
N776 C768 1.356 . S
N776 H782 0.984 . S
N776 H783 0.984 . S
N777 C770 1.356 . S
N777 H780 0.984 . S
N777 H781 0.985 . S
H778 N773 0.984 . S
H779 N773 0.985 . S
H780 N777 0.984 . S
H781 N777 0.985 . S
H782 N776 0.984 . S
H783 N776 0.984 . S
H784 N772 0.984 . S
H785 N772 0.985 . S
C786 C787 1.363 1_455 S
C786 C792 1.379 . S
C786 N794 1.356 . S
C787 C786 1.363 1_655 S
C787 C793 1.363 . S
C788 C789 1.363 . S
C788 C793 1.379 . S
C788 N795 1.356 . S
C789 C788 1.363 . S
C789 C792 1.363 1_655 S
N790 C792 1.356 . S
N790 H802 0.984 . S
N790 H803 0.985 . S
N791 C793 1.356 . S
N791 H796 0.984 . S
N791 H797 0.985 . S
C792 C786 1.379 . S
C792 C789 1.363 1_455 S
C792 N790 1.356 . S
C793 C787 1.363 . S
C793 C788 1.379 . S
C793 N791 1.356 . S
N794 C786 1.356 . S
N794 H800 0.984 . S
N794 H801 0.984 . S
N795 C788 1.356 . S
N795 H798 0.984 . S
N795 H799 0.985 . S
H796 N791 0.984 . S
H797 N791 0.985 . S
H798 N795 0.984 . S
H799 N795 0.985 . S
H800 N794 0.984 . S
H801 N794 0.984 . S
H802 N790 0.984 . S
H803 N790 0.985 . S
C804 C805 1.363 . S
C804 C810 1.379 . S
C804 N812 1.356 . S
C805 C804 1.363 . S
C805 C811 1.363 . S
C806 C807 1.363 . S
C806 C811 1.379 . S
C806 N813 1.356 . S
C807 C806 1.363 . S
C807 C810 1.363 . S
N808 C810 1.356 . S
N808 H820 0.984 . S
N808 H821 0.985 . S
N809 C811 1.356 . S
N809 H814 0.984 . S
N809 H815 0.985 . S
C810 C804 1.379 . S
C810 C807 1.363 . S
C810 N808 1.356 . S
C811 C805 1.363 . S
C811 C806 1.379 . S
C811 N809 1.356 . S
N812 C804 1.356 . S
N812 H818 0.984 . S
N812 H819 0.984 . S
N813 C806 1.356 . S
N813 H816 0.984 . S
N813 H817 0.985 . S
H814 N809 0.984 . S
H815 N809 0.985 . S
H816 N813 0.984 . S
H817 N813 0.985 . S
H818 N812 0.984 . S
H819 N812 0.984 . S
H820 N808 0.984 . S
H821 N808 0.985 . S
C822 C823 1.363 . S
C822 C828 1.379 . S
C822 N830 1.356 . S
C823 C822 1.363 . S
C823 C829 1.363 . S
C824 C825 1.363 . S
C824 C829 1.379 . S
C824 N831 1.356 . S
C825 C824 1.363 . S
C825 C828 1.363 . S
N826 C828 1.356 . S
N826 H838 0.984 . S
N826 H839 0.985 . S
N827 C829 1.356 . S
N827 H832 0.984 . S
N827 H833 0.985 . S
C828 C822 1.379 . S
C828 C825 1.363 . S
C828 N826 1.356 . S
C829 C823 1.363 . S
C829 C824 1.379 . S
C829 N827 1.356 . S
N830 C822 1.356 . S
N830 H836 0.984 . S
N830 H837 0.984 . S
N831 C824 1.356 . S
N831 H834 0.984 . S
N831 H835 0.985 . S
H832 N827 0.984 . S
H833 N827 0.985 . S
H834 N831 0.984 . S
H835 N831 0.985 . S
H836 N830 0.984 . S
H837 N830 0.984 . S
H838 N826 0.984 . S
H839 N826 0.985 . S
C840 C841 1.363 . S
C840 C846 1.379 . S
C840 N848 1.356 . S
C841 C840 1.363 . S
C841 C847 1.363 . S
C842 C843 1.363 . S
C842 C847 1.379 . S
C842 N849 1.356 . S
C843 C842 1.363 . S
C843 C846 1.363 . S
N844 C846 1.356 . S
N844 H856 0.984 . S
N844 H857 0.985 . S
N845 C847 1.356 . S
N845 H850 0.984 . S
N845 H851 0.985 . S
C846 C840 1.379 . S
C846 C843 1.363 . S
C846 N844 1.356 . S
C847 C841 1.363 . S
C847 C842 1.379 . S
C847 N845 1.356 . S
N848 C840 1.356 . S
N848 H854 0.984 . S
N848 H855 0.984 . S
N849 C842 1.356 . S
N849 H852 0.984 . S
N849 H853 0.985 . S
H850 N845 0.984 . S
H851 N845 0.985 . S
H852 N849 0.984 . S
H853 N849 0.985 . S
H854 N848 0.984 . S
H855 N848 0.984 . S
H856 N844 0.984 . S
H857 N844 0.985 . S
C858 C859 1.363 . S
C858 C864 1.379 . S
C858 N866 1.356 . S
C859 C858 1.363 . S
C859 C865 1.363 . S
C860 C861 1.363 . S
C860 C865 1.379 . S
C860 N867 1.356 . S
C861 C860 1.363 . S
C861 C864 1.363 . S
N862 C864 1.356 . S
N862 H874 0.984 . S
N862 H875 0.985 . S
N863 C865 1.356 . S
N863 H868 0.984 . S
N863 H869 0.985 . S
C864 C858 1.379 . S
C864 C861 1.363 . S
C864 N862 1.356 . S
C865 C859 1.363 . S
C865 C860 1.379 . S
C865 N863 1.356 . S
N866 C858 1.356 . S
N866 H872 0.984 . S
N866 H873 0.984 . S
N867 C860 1.356 . S
N867 H870 0.984 . S
N867 H871 0.985 . S
H868 N863 0.984 . S
H869 N863 0.985 . S
H870 N867 0.984 . S
H871 N867 0.985 . S
H872 N866 0.984 . S
H873 N866 0.984 . S
H874 N862 0.984 . S
H875 N862 0.985 . S
C876 C877 1.363 . S
C876 C882 1.379 . S
C876 N884 1.356 . S
C877 C876 1.363 . S
C877 C883 1.363 . S
C878 C879 1.363 . S
C878 C883 1.379 . S
C878 N885 1.356 . S
C879 C878 1.363 . S
C879 C882 1.363 . S
N880 C882 1.356 . S
N880 H892 0.984 . S
N880 H893 0.985 . S
N881 C883 1.356 . S
N881 H886 0.984 . S
N881 H887 0.985 . S
C882 C876 1.379 . S
C882 C879 1.363 . S
C882 N880 1.356 . S
C883 C877 1.363 . S
C883 C878 1.379 . S
C883 N881 1.356 . S
N884 C876 1.356 . S
N884 H890 0.984 . S
N884 H891 0.984 . S
N885 C878 1.356 . S
N885 H888 0.984 . S
N885 H889 0.985 . S
H886 N881 0.984 . S
H887 N881 0.985 . S
H888 N885 0.984 . S
H889 N885 0.985 . S
H890 N884 0.984 . S
H891 N884 0.984 . S
H892 N880 0.984 . S
H893 N880 0.985 . S
C894 C895 1.363 . S
C894 C900 1.379 . S
C894 N902 1.356 . S
C895 C894 1.363 . S
C895 C901 1.363 . S
C896 C897 1.363 . S
C896 C901 1.379 . S
C896 N903 1.356 . S
C897 C896 1.363 . S
C897 C900 1.363 . S
N898 C900 1.356 . S
N898 H910 0.984 . S
N898 H911 0.985 . S
N899 C901 1.356 . S
N899 H904 0.984 . S
N899 H905 0.985 . S
C900 C894 1.379 . S
C900 C897 1.363 . S
C900 N898 1.356 . S
C901 C895 1.363 . S
C901 C896 1.379 . S
C901 N899 1.356 . S
N902 C894 1.356 . S
N902 H908 0.984 . S
N902 H909 0.984 . S
N903 C896 1.356 . S
N903 H906 0.984 . S
N903 H907 0.985 . S
H904 N899 0.984 . S
H905 N899 0.985 . S
H906 N903 0.984 . S
H907 N903 0.985 . S
H908 N902 0.984 . S
H909 N902 0.984 . S
H910 N898 0.984 . S
H911 N898 0.985 . S
C481 C21 1.328 . S
C483 C337 1.510 . S
C499 C61 1.509 . S
C501 C377 1.514 . S
C519 C402 2.356 . S
C517 C82 2.422 . S
C535 C135 2.496 . S
C537 C442 2.430 . S
C555 C373 2.133 . S
C553 C15 1.957 . S
C573 C333 2.119 . S
C571 C42 2.050 . S
C591 C464 1.777 . S
C589 C101 1.796 . S
C609 C424 1.728 . S
C607 C122 1.766 . S
C625 C2 1.603 . S
C627 C466 1.730 . S
C645 C383 2.123 . S
C643 C95 2.176 . S
C661 C141 2.272 . S
C663 C343 2.225 . S
C679 C55 1.698 . S
C681 C426 1.758 . S
C699 C346 1.516 . S
C697 C181 1.505 . S
C715 C202 1.464 . S
C717 C386 1.502 . S
C733 C255 2.437 . S
C735 C423 2.372 . S
C751 C295 2.466 . S
C753 C463 2.400 . S
C769 C175 1.951 . S
C771 C384 2.110 . S
C789 C344 2.110 . S
C787 C221 2.032 . S
C807 C453 1.704 . S
C805 C242 1.746 . S
C825 C413 1.784 . S
C823 C301 1.792 . S
C841 C162 1.771 . S
C843 C457 1.734 . S
C861 C362 2.172 . S
C859 C261 2.194 . S
C879 C322 2.190 . S
C877 C282 2.254 . S
C895 C215 1.682 . S
C897 C417 1.752 . S
