# Generated by pormake.
# Topology bcu-b, (8,8)-cn, num edge types: 1
# Building blocks:
#     Node 0, Type 0, BuildingBlock: TAGTUT_clean_sbu_3, # of connection points: 8
#     Node 1, Type 1, BuildingBlock: TAGTUT_clean_sbu_3, # of connection points: 8
#     Edge 2, Type (0, 1), BuildingBlock: FUNLAD_clean_linker_1, # of connection points: 2
#     Edge 3, Type (0, 1), BuildingBlock: FUNLAD_clean_linker_1, # of connection points: 2
#     Edge 4, Type (0, 1), BuildingBlock: FUNLAD_clean_linker_1, # of connection points: 2
#     Edge 5, Type (0, 1), BuildingBlock: FUNLAD_clean_linker_1, # of connection points: 2
#     Edge 6, Type (0, 1), BuildingBlock: FUNLAD_clean_linker_1, # of connection points: 2
#     Edge 7, Type (0, 1), BuildingBlock: FUNLAD_clean_linker_1, # of connection points: 2
#     Edge 8, Type (0, 1), BuildingBlock: FUNLAD_clean_linker_1, # of connection points: 2
#     Edge 9, Type (0, 1), BuildingBlock: FUNLAD_clean_linker_1, # of connection points: 2
# Relax obj value: 0.012
# Max RMSD: 0.063
# Mean RMSD: 0.063
data_MOF--net-bcu-b--node1-TAGTUT_clean_sbu_3--node2-TAGTUT_clean_sbu_3--edge1-FUNLAD_clean_linker_1
_symmetry_space_group_name_H-M    P1
_symmetry_Int_Tables_number       1
_symmetry_cell_setting            triclinic
loop_
_symmetry_equiv_pos_as_xyz
'x, y, z'
_cell_length_a     20.130502
_cell_length_b     20.3207
_cell_length_c     21.752054
_cell_angle_alpha  91.747713
_cell_angle_beta   88.958356
_cell_angle_gamma 107.17275
loop_
_atom_site_label
_atom_site_type_symbol
_atom_site_fract_x
_atom_site_fract_y
_atom_site_fract_z
_atom_type_partial_charge
C0 C 0.09233 0.0763 0.09611 0.0
C1 C 0.16281 0.85161 0.05387 0.0
C2 C 0.10495 0.86735 0.86777 0.0
Mg3 Mg 0.97709 0.13481 0.0289 0.0
Mg4 Mg 0.83577 0.02399 0.97539 0.0
O5 O 0.93313 0.05446 0.97239 0.0
Mg6 Mg 0.98715 0.98964 -0.00821 0.0
O7 O 0.04736 0.93081 0.01284 0.0
Mg8 Mg 0.14084 0.98889 0.98374 0.0
Mg9 Mg 0.0235 0.83841 0.987 0.0
C10 C 0.86831 0.90362 0.89586 0.0
O11 O 0.89864 0.91425 0.04573 0.0
O12 O 0.91795 0.19471 0.96988 0.0
O13 O 0.91628 0.81231 0.01769 0.0
O14 O 0.88591 0.10935 0.09951 0.0
O15 O 0.82271 0.11349 0.93434 0.0
O16 O 0.79596 0.02264 0.06744 0.0
O17 O 0.08013 0.05576 0.93695 0.0
O18 O 0.06703 0.15889 0.96116 0.0
C19 C 0.09989 0.12149 0.93337 0.0
C20 C 0.86192 0.17579 0.93777 0.0
O21 O 0.93362 0.92244 0.90875 0.0
O22 O 0.18674 0.91448 0.03695 0.0
O23 O 0.82404 0.93048 0.92122 0.0
O24 O 0.14207 0.92223 0.89505 0.0
O25 O 0.1017 0.81329 0.04009 0.0
O26 O 0.0489 0.82986 0.89168 0.0
O27 O 0.03086 0.06134 0.07437 0.0
O28 O 0.13914 0.05285 0.07132 0.0
C29 C 0.82518 0.06791 0.10804 0.0
C30 C 0.87922 0.8479 0.0426 0.0
C31 C 0.65717 0.60156 0.53725 0.0
C32 C 0.69574 0.36798 0.56845 0.0
C33 C 0.56728 0.29906 0.40512 0.0
Mg34 Mg 0.53092 0.64676 0.48493 0.0
Mg35 Mg 0.36888 0.54639 0.47338 0.0
O36 O 0.46323 0.55564 0.46162 0.0
Mg37 Mg 0.51399 0.49161 0.49121 0.0
O38 O 0.57356 0.43504 0.51864 0.0
Mg39 Mg 0.65269 0.46145 0.45805 0.0
Mg40 Mg 0.53995 0.34171 0.53586 0.0
C41 C 0.36383 0.39143 0.4382 0.0
O42 O 0.4469 0.4593 0.57902 0.0
O43 O 0.46773 0.69786 0.42351 0.0
O44 O 0.45224 0.35049 0.59005 0.0
O45 O 0.46435 0.66301 0.56992 0.0
O46 O 0.36215 0.62212 0.40777 0.0
O47 O 0.3577 0.5883 0.56327 0.0
O48 O 0.58304 0.51393 0.40477 0.0
O49 O 0.5916 0.62612 0.40143 0.0
C50 C 0.60571 0.57249 0.37949 0.0
C51 C 0.40798 0.67992 0.39771 0.0
O52 O 0.42993 0.40279 0.44343 0.0
O53 O 0.71324 0.41105 0.52459 0.0
O54 O 0.33185 0.43614 0.45201 0.0
O55 O 0.61332 0.35793 0.4025 0.0
O56 O 0.63212 0.33598 0.58099 0.0
O57 O 0.5266 0.28252 0.4513 0.0
O58 O 0.59059 0.58546 0.53816 0.0
O59 O 0.68961 0.56251 0.51181 0.0
C60 C 0.4024 0.63778 0.59092 0.0
C61 C 0.42716 0.40023 0.60454 0.0
H62 H 0.10879 0.17407 0.14862 0.0
C63 C 0.11216 0.1218 0.15046 0.0
H64 H 0.14625 0.04892 0.19679 0.0
H65 H 0.41284 0.24505 0.31806 0.0
H66 H 0.45567 0.16095 0.26154 0.0
H67 H 0.37839 0.07338 0.19343 0.0
H68 H 0.25816 0.06866 0.18176 0.0
C69 C 0.1447 0.10196 0.19676 0.0
C70 C 0.1897 0.15226 0.24106 0.0
C71 C 0.26092 0.15514 0.24587 0.0
C72 C 0.30619 0.20698 0.2836 0.0
C73 C 0.37652 0.20767 0.289 0.0
C74 C 0.40185 0.15963 0.25695 0.0
C75 C 0.35831 0.11025 0.21869 0.0
C76 C 0.28888 0.10796 0.21276 0.0
H77 H 0.27802 0.2947 0.43461 0.0
C78 C 0.32254 0.32658 0.40955 0.0
H79 H 0.37413 0.34808 0.32421 0.0
H80 H 0.05356 0.15008 0.25558 0.0
H81 H 0.01162 0.23783 0.30723 0.0
H82 H 0.09333 0.33892 0.35823 0.0
H83 H 0.21645 0.35123 0.36013 0.0
C84 C 0.33059 0.31461 0.34938 0.0
C85 C 0.28101 0.25723 0.31465 0.0
C86 C 0.20977 0.25421 0.30995 0.0
C87 C 0.16349 0.19944 0.27581 0.0
C88 C 0.09155 0.19334 0.2772 0.0
C89 C 0.0667 0.24296 0.30717 0.0
C90 C 0.11263 0.2996 0.3362 0.0
C91 C 0.18333 0.30556 0.33756 0.0
H92 H 0.81294 0.11884 0.19624 0.0
C93 C 0.78483 0.08192 0.16154 0.0
H94 H 0.68609 0.02978 0.12541 0.0
H95 H 0.65263 0.17869 0.40255 0.0
H96 H 0.70003 0.09378 0.44576 0.0
H97 H 0.73509 0.00942 0.3787 0.0
H98 H 0.72388 0.01038 0.26764 0.0
C99 C 0.71484 0.06325 0.16194 0.0
C100 C 0.67737 0.10081 0.20311 0.0
C101 C 0.68129 0.09771 0.26788 0.0
C102 C 0.65893 0.14497 0.30656 0.0
C103 C 0.66727 0.14319 0.37094 0.0
C104 C 0.69455 0.09471 0.3964 0.0
C105 C 0.71445 0.04731 0.35865 0.0
C106 C 0.70812 0.04863 0.29507 0.0
H107 H 0.52766 0.19559 0.36085 0.0
C108 C 0.56737 0.24509 0.35807 0.0
H109 H 0.66157 0.30108 0.31574 0.0
H110 H 0.65295 0.11434 0.08093 0.0
H111 H 0.59706 0.19307 0.03848 0.0
H112 H 0.5546 0.27199 0.10613 0.0
H113 H 0.56847 0.27292 0.21694 0.0
C114 C 0.62092 0.25224 0.31851 0.0
C115 C 0.63062 0.19378 0.28027 0.0
C116 C 0.62035 0.19222 0.21602 0.0
C117 C 0.64387 0.14584 0.17724 0.0
C118 C 0.63539 0.14763 0.11285 0.0
C119 C 0.60339 0.1927 0.08778 0.0
C120 C 0.57958 0.23722 0.12584 0.0
C121 C 0.58806 0.2374 0.18925 0.0
H122 H 0.79757 0.8362 0.11339 0.0
C123 C 0.81563 0.81002 0.07517 0.0
H124 H 0.80568 0.71579 0.0271 0.0
H125 H 0.76885 0.57928 0.28784 0.0
H126 H 0.87148 0.55417 0.24675 0.0
H127 H 0.91801 0.59389 0.14428 0.0
H128 H 0.86241 0.65939 0.08273 0.0
C129 C 0.78772 0.74179 0.06545 0.0
C130 C 0.74719 0.69946 0.11519 0.0
C131 C 0.77839 0.65779 0.1488 0.0
C132 C 0.75082 0.63367 0.20724 0.0
C133 C 0.78613 0.59712 0.24236 0.0
C134 C 0.8455 0.58267 0.21946 0.0
C135 C 0.87176 0.60511 0.16184 0.0
C136 C 0.8392 0.64273 0.12694 0.0
H137 H 0.63986 0.53097 0.29324 0.0
C138 C 0.64176 0.57771 0.31971 0.0
H139 H 0.67066 0.68633 0.32197 0.0
H140 H 0.66696 0.763 0.0543 0.0
H141 H 0.55897 0.78164 0.09187 0.0
H142 H 0.51004 0.7391 0.19301 0.0
H143 H 0.56767 0.6767 0.25658 0.0
C144 C 0.67035 0.63987 0.29565 0.0
C145 C 0.69099 0.64957 0.2303 0.0
C146 C 0.65522 0.68397 0.19315 0.0
C147 C 0.68348 0.70897 0.13534 0.0
C148 C 0.64776 0.74409 0.0992 0.0
C149 C 0.58575 0.7547 0.12003 0.0
C150 C 0.55808 0.73058 0.1769 0.0
C151 C 0.59199 0.69533 0.21313 0.0
H152 H 0.18243 0.76834 0.10577 0.0
C153 C 0.20426 0.82219 0.09409 0.0
H154 H 0.28437 0.9144 0.11266 0.0
H155 H 0.31171 0.80879 0.38115 0.0
H156 H 0.27756 0.91204 0.40298 0.0
H157 H 0.25139 0.97895 0.31875 0.0
H158 H 0.25851 0.9425 0.21233 0.0
C159 C 0.26331 0.85972 0.12123 0.0
C160 C 0.29426 0.82889 0.17043 0.0
C161 C 0.29181 0.85211 0.23235 0.0
C162 C 0.30786 0.81405 0.2809 0.0
C163 C 0.30158 0.83643 0.34244 0.0
C164 C 0.28171 0.89551 0.35565 0.0
C165 C 0.26686 0.93311 0.30825 0.0
C166 C 0.27124 0.91163 0.24729 0.0
H167 H 0.43252 0.77666 0.34653 0.0
C168 C 0.39386 0.72701 0.3527 0.0
H169 H 0.29971 0.65827 0.32055 0.0
H170 H 0.31953 0.7803 0.05657 0.0
H171 H 0.36042 0.68082 0.03416 0.0
H172 H 0.3863 0.61349 0.11814 0.0
H173 H 0.37196 0.64534 0.22492 0.0
C174 C 0.33713 0.70903 0.31717 0.0
C175 C 0.32757 0.75367 0.26715 0.0
C176 C 0.33519 0.73365 0.20504 0.0
C177 C 0.31928 0.77177 0.15662 0.0
C178 C 0.3291 0.75184 0.095 0.0
C179 C 0.35297 0.69522 0.08154 0.0
C180 C 0.36756 0.65732 0.12882 0.0
C181 C 0.35885 0.67602 0.18992 0.0
H182 H 0.09866 0.79593 0.78809 0.0
C183 C 0.13339 0.83893 0.81354 0.0
H184 H 0.23799 0.89361 0.83212 0.0
H185 H 0.34528 0.63883 0.76273 0.0
H186 H 0.35592 0.64491 0.87381 0.0
H187 H 0.31045 0.72567 0.93631 0.0
H188 H 0.2539 0.80057 0.88831 0.0
C189 C 0.20244 0.85436 0.80362 0.0
C190 C 0.23252 0.80825 0.76489 0.0
C191 C 0.26682 0.76565 0.79367 0.0
C192 C 0.2936 0.71939 0.7576 0.0
C193 C 0.32525 0.6758 0.78776 0.0
C194 C 0.33141 0.67852 0.85155 0.0
C195 C 0.30579 0.72396 0.88675 0.0
C196 C 0.2736 0.76689 0.85848 0.0
H197 H 0.41798 0.71565 0.66689 0.0
C198 C 0.37924 0.67443 0.64302 0.0
H199 H 0.27214 0.62786 0.62777 0.0
H200 H 0.17487 0.88647 0.69517 0.0
H201 H 0.16601 0.88197 0.5839 0.0
H202 H 0.21266 0.80222 0.52118 0.0
H203 H 0.26828 0.72644 0.56922 0.0
C204 C 0.31124 0.66597 0.65429 0.0
C205 C 0.28682 0.71642 0.69276 0.0
C206 C 0.25381 0.76008 0.66394 0.0
C207 C 0.22676 0.80607 0.70003 0.0
C208 C 0.19531 0.84988 0.66996 0.0
C209 C 0.19018 0.84806 0.60611 0.0
C210 C 0.21643 0.80315 0.57081 0.0
C211 C 0.24802 0.75969 0.59906 0.0
H212 H 0.17886 0.12367 0.86095 0.0
C213 C 0.15777 0.15537 0.89222 0.0
H214 H 0.1584 0.25643 0.91968 0.0
H215 H 0.43798 0.29478 0.73751 0.0
H216 H 0.48476 0.24339 0.81916 0.0
H217 H 0.41427 0.19997 0.91149 0.0
H218 H 0.29652 0.2076 0.92249 0.0
C219 C 0.18003 0.22452 0.88915 0.0
C220 C 0.22619 0.25896 0.83862 0.0
C221 C 0.29501 0.25484 0.83357 0.0
C222 C 0.33559 0.28031 0.78073 0.0
C223 C 0.40438 0.27547 0.77644 0.0
C224 C 0.43206 0.24644 0.82313 0.0
C225 C 0.39238 0.22197 0.87508 0.0
C226 C 0.3247 0.22619 0.8806 0.0
H227 H 0.36654 0.43309 0.67927 0.0
C228 C 0.37619 0.389 0.65538 0.0
H229 H 0.35613 0.28092 0.65087 0.0
H230 H 0.09952 0.28471 0.83941 0.0
H231 H 0.05576 0.34269 0.76091 0.0
H232 H 0.12461 0.38296 0.6672 0.0
H233 H 0.23893 0.36799 0.65257 0.0
C234 C 0.34573 0.32477 0.6746 0.0
C235 C 0.30721 0.31008 0.73349 0.0
C236 C 0.24022 0.31873 0.74059 0.0
C237 C 0.19985 0.29384 0.79385 0.0
C238 C 0.13271 0.30262 0.79997 0.0
C239 C 0.10662 0.33539 0.75502 0.0
C240 C 0.14555 0.35839 0.70238 0.0
C241 C 0.21135 0.34979 0.69474 0.0
H242 H 0.78719 0.21374 0.88915 0.0
C243 C 0.84229 0.22481 0.89892 0.0
H244 H 0.94391 0.27791 0.86945 0.0
H245 H 0.81875 0.26653 0.60078 0.0
H246 H 0.90457 0.20525 0.58605 0.0
H247 H 0.97257 0.18622 0.6734 0.0
H248 H 0.95495 0.22827 0.77596 0.0
C249 C 0.88858 0.2707 0.86442 0.0
C250 C 0.86309 0.29912 0.81013 0.0
C251 C 0.87574 0.27627 0.74995 0.0
C252 C 0.83677 0.2877 0.6994 0.0
C253 C 0.84772 0.26079 0.64054 0.0
C254 C 0.89664 0.22509 0.63147 0.0
C255 C 0.93485 0.21427 0.68065 0.0
C256 C 0.92425 0.23883 0.73935 0.0
H257 H 0.80431 0.38908 0.60057 0.0
C258 C 0.75054 0.36002 0.60967 0.0
H259 H 0.68019 0.29591 0.67134 0.0
H260 H 0.83826 0.36259 0.91656 0.0
H261 H 0.75296 0.42502 0.93217 0.0
H262 H 0.68156 0.44072 0.84621 0.0
H263 H 0.69707 0.39712 0.7433 0.0
C264 C 0.73429 0.32239 0.66072 0.0
C265 C 0.78559 0.32235 0.7093 0.0
C266 C 0.77709 0.34987 0.76871 0.0
C267 C 0.81669 0.33917 0.81884 0.0
C268 C 0.80781 0.36772 0.87747 0.0
C269 C 0.75949 0.40398 0.88691 0.0
C270 C 0.71951 0.41309 0.83837 0.0
C271 C 0.7285 0.3872 0.77971 0.0
H272 H 0.78494 0.82381 0.85145 0.0
C273 C 0.8405 0.85011 0.84897 0.0
H274 H 0.93046 0.87063 0.79244 0.0
H275 H 0.67399 0.59273 0.69266 0.0
H276 H 0.70793 0.53368 0.77568 0.0
H277 H 0.80217 0.59488 0.84636 0.0
H278 H 0.86295 0.71654 0.83354 0.0
C279 C 0.8764 0.84079 0.79879 0.0
C280 C 0.83657 0.7997 0.74685 0.0
C281 C 0.8028 0.72864 0.75414 0.0
C282 C 0.74923 0.69325 0.71325 0.0
C283 C 0.71535 0.62242 0.72224 0.0
C284 C 0.73438 0.58773 0.76989 0.0
C285 C 0.78732 0.62227 0.80962 0.0
C286 C 0.82137 0.69199 0.80204 0.0
H287 H 0.75496 0.68071 0.55707 0.0
C288 C 0.69982 0.66388 0.56883 0.0
H289 H 0.62441 0.66902 0.6357 0.0
H290 H 0.89743 0.9339 0.71598 0.0
H291 H 0.86747 0.99213 0.62948 0.0
H292 H 0.77485 0.93025 0.55777 0.0
H293 H 0.7112 0.80984 0.57247 0.0
C294 C 0.67791 0.68953 0.61989 0.0
C295 C 0.73096 0.7287 0.66421 0.0
C296 C 0.76789 0.79858 0.65445 0.0
C297 C 0.82112 0.83417 0.6958 0.0
C298 C 0.8564 0.90447 0.68597 0.0
C299 C 0.83983 0.93842 0.63644 0.0
C300 C 0.78772 0.90355 0.59602 0.0
C301 C 0.75182 0.83446 0.60479 0.0
loop_
_geom_bond_atom_site_label_1
_geom_bond_atom_site_label_2
_geom_bond_distance
_geom_bond_site_symmetry_2
_ccdc_geom_bond_type
C0 O27 1.312 . S
C0 O28 1.208 . S
C1 O22 1.331 . S
C1 O25 1.244 . S
C2 O24 1.264 . S
C2 O26 1.273 . S
Mg3 O5 1.936 . S
Mg3 O12 2.081 . S
Mg3 O14 2.023 1_556 S
Mg3 O18 2.031 1_655 S
Mg3 O27 2.291 1_656 S
Mg4 O5 1.963 . S
Mg4 O15 1.942 . S
Mg4 O16 1.955 1_556 S
Mg4 O23 1.986 1_545 S
O5 Mg3 1.936 . S
O5 Mg4 1.963 . S
O5 Mg6 1.915 1_546 S
Mg6 O5 1.915 1_564 S
Mg6 O7 1.915 1_655 S
Mg6 O11 2.013 . S
Mg6 O17 2.114 1_664 S
Mg6 O21 2.013 1_554 S
Mg6 O27 2.114 1_665 S
O7 Mg6 1.915 1_455 S
O7 Mg8 1.936 . S
O7 Mg9 1.963 . S
Mg8 O7 1.936 . S
Mg8 O17 2.291 1_564 S
Mg8 O22 2.081 . S
Mg8 O24 2.023 1_554 S
Mg8 O28 2.031 1_565 S
Mg9 O7 1.963 . S
Mg9 O13 1.986 1_455 S
Mg9 O25 1.942 . S
Mg9 O26 1.955 1_554 S
C10 O21 1.191 . S
C10 O23 1.307 . S
O11 Mg6 2.013 . S
O11 C30 1.191 . S
O12 Mg3 2.081 . S
O12 C20 1.331 . S
O13 Mg9 1.986 1_655 S
O13 C30 1.307 . S
O14 Mg3 2.023 1_554 S
O14 C29 1.264 . S
O15 Mg4 1.942 . S
O15 C20 1.244 . S
O16 Mg4 1.955 1_554 S
O16 C29 1.273 . S
O17 Mg6 2.114 1_446 S
O17 Mg8 2.291 1_546 S
O17 C19 1.312 . S
O18 Mg3 2.031 1_455 S
O18 C19 1.208 . S
C19 O17 1.312 . S
C19 O18 1.208 . S
C20 O12 1.331 . S
C20 O15 1.244 . S
O21 Mg6 2.013 1_556 S
O21 C10 1.191 . S
O22 C1 1.331 . S
O22 Mg8 2.081 . S
O23 Mg4 1.986 1_565 S
O23 C10 1.307 . S
O24 C2 1.264 . S
O24 Mg8 2.023 1_556 S
O25 C1 1.244 . S
O25 Mg9 1.942 . S
O26 C2 1.273 . S
O26 Mg9 1.955 1_556 S
O27 C0 1.312 . S
O27 Mg3 2.291 1_454 S
O27 Mg6 2.114 1_445 S
O28 C0 1.208 . S
O28 Mg8 2.031 1_545 S
C29 O14 1.264 . S
C29 O16 1.273 . S
C30 O11 1.191 . S
C30 O13 1.307 . S
C31 O58 1.312 . S
C31 O59 1.208 . S
C32 O53 1.331 . S
C32 O56 1.244 . S
C33 O55 1.264 . S
C33 O57 1.273 . S
Mg34 O36 1.936 . S
Mg34 O43 2.081 . S
Mg34 O45 2.023 . S
Mg34 O49 2.031 . S
Mg34 O58 2.291 . S
Mg35 O36 1.963 . S
Mg35 O46 1.942 . S
Mg35 O47 1.955 . S
Mg35 O54 1.986 . S
O36 Mg34 1.936 . S
O36 Mg35 1.963 . S
O36 Mg37 1.915 . S
Mg37 O36 1.915 . S
Mg37 O38 1.915 . S
Mg37 O42 2.013 . S
Mg37 O48 2.114 . S
Mg37 O52 2.013 . S
Mg37 O58 2.114 . S
O38 Mg37 1.915 . S
O38 Mg39 1.936 . S
O38 Mg40 1.963 . S
Mg39 O38 1.936 . S
Mg39 O48 2.291 . S
Mg39 O53 2.081 . S
Mg39 O55 2.023 . S
Mg39 O59 2.031 . S
Mg40 O38 1.963 . S
Mg40 O44 1.986 . S
Mg40 O56 1.942 . S
Mg40 O57 1.955 . S
C41 O52 1.191 . S
C41 O54 1.307 . S
O42 Mg37 2.013 . S
O42 C61 1.191 . S
O43 Mg34 2.081 . S
O43 C51 1.331 . S
O44 Mg40 1.986 . S
O44 C61 1.307 . S
O45 Mg34 2.023 . S
O45 C60 1.264 . S
O46 Mg35 1.942 . S
O46 C51 1.244 . S
O47 Mg35 1.955 . S
O47 C60 1.273 . S
O48 Mg37 2.114 . S
O48 Mg39 2.291 . S
O48 C50 1.312 . S
O49 Mg34 2.031 . S
O49 C50 1.208 . S
C50 O48 1.312 . S
C50 O49 1.208 . S
C51 O43 1.331 . S
C51 O46 1.244 . S
O52 Mg37 2.013 . S
O52 C41 1.191 . S
O53 C32 1.331 . S
O53 Mg39 2.081 . S
O54 Mg35 1.986 . S
O54 C41 1.307 . S
O55 C33 1.264 . S
O55 Mg39 2.023 . S
O56 C32 1.244 . S
O56 Mg40 1.942 . S
O57 C33 1.273 . S
O57 Mg40 1.955 . S
O58 C31 1.312 . S
O58 Mg34 2.291 . S
O58 Mg37 2.114 . S
O59 C31 1.208 . S
O59 Mg39 2.031 . S
C60 O45 1.264 . S
C60 O47 1.273 . S
C61 O42 1.191 . S
C61 O44 1.307 . S
H62 C63 0.951 . S
C63 H62 0.951 . S
C63 C69 1.265 . S
H64 C69 0.950 . S
H65 C73 0.949 . S
H66 C74 0.950 . S
H67 C75 0.951 . S
H68 C76 0.951 . S
C69 C63 1.265 . S
C69 H64 0.950 . S
C69 C70 1.478 . S
C70 C69 1.478 . S
C70 C71 1.397 . S
C70 C87 1.394 . S
C71 C70 1.397 . S
C71 C72 1.438 . S
C71 C76 1.429 . S
C72 C71 1.438 . S
C72 C73 1.428 . S
C72 C85 1.394 . S
C73 H65 0.949 . S
C73 C72 1.428 . S
C73 C74 1.345 . S
C74 H66 0.950 . S
C74 C73 1.345 . S
C74 C75 1.424 . S
C75 H67 0.951 . S
C75 C74 1.424 . S
C75 C76 1.347 . S
C76 H68 0.951 . S
C76 C71 1.429 . S
C76 C75 1.347 . S
H77 C78 0.951 . S
C78 H77 0.951 . S
C78 C84 1.265 . S
H79 C84 0.950 . S
H80 C88 0.949 . S
H81 C89 0.950 . S
H82 C90 0.951 . S
H83 C91 0.951 . S
C84 C78 1.265 . S
C84 H79 0.950 . S
C84 C85 1.478 . S
C85 C72 1.394 . S
C85 C84 1.478 . S
C85 C86 1.397 . S
C86 C85 1.397 . S
C86 C87 1.438 . S
C86 C91 1.429 . S
C87 C70 1.394 . S
C87 C86 1.438 . S
C87 C88 1.428 . S
C88 H80 0.949 . S
C88 C87 1.428 . S
C88 C89 1.345 . S
C89 H81 0.950 . S
C89 C88 1.345 . S
C89 C90 1.424 . S
C90 H82 0.951 . S
C90 C89 1.424 . S
C90 C91 1.347 . S
C91 H83 0.951 . S
C91 C86 1.429 . S
C91 C90 1.347 . S
H92 C93 0.951 . S
C93 H92 0.951 . S
C93 C99 1.265 . S
H94 C99 0.950 . S
H95 C103 0.949 . S
H96 C104 0.950 . S
H97 C105 0.951 . S
H98 C106 0.951 . S
C99 C93 1.265 . S
C99 H94 0.950 . S
C99 C100 1.478 . S
C100 C99 1.478 . S
C100 C101 1.397 . S
C100 C117 1.394 . S
C101 C100 1.397 . S
C101 C102 1.438 . S
C101 C106 1.429 . S
C102 C101 1.438 . S
C102 C103 1.428 . S
C102 C115 1.394 . S
C103 H95 0.949 . S
C103 C102 1.428 . S
C103 C104 1.345 . S
C104 H96 0.950 . S
C104 C103 1.345 . S
C104 C105 1.424 . S
C105 H97 0.951 . S
C105 C104 1.424 . S
C105 C106 1.347 . S
C106 H98 0.951 . S
C106 C101 1.429 . S
C106 C105 1.347 . S
H107 C108 0.951 . S
C108 H107 0.951 . S
C108 C114 1.265 . S
H109 C114 0.950 . S
H110 C118 0.949 . S
H111 C119 0.950 . S
H112 C120 0.951 . S
H113 C121 0.951 . S
C114 C108 1.265 . S
C114 H109 0.950 . S
C114 C115 1.478 . S
C115 C102 1.394 . S
C115 C114 1.478 . S
C115 C116 1.397 . S
C116 C115 1.397 . S
C116 C117 1.438 . S
C116 C121 1.429 . S
C117 C100 1.394 . S
C117 C116 1.438 . S
C117 C118 1.428 . S
C118 H110 0.949 . S
C118 C117 1.428 . S
C118 C119 1.345 . S
C119 H111 0.950 . S
C119 C118 1.345 . S
C119 C120 1.424 . S
C120 H112 0.951 . S
C120 C119 1.424 . S
C120 C121 1.347 . S
C121 H113 0.951 . S
C121 C116 1.429 . S
C121 C120 1.347 . S
H122 C123 0.951 . S
C123 H122 0.951 . S
C123 C129 1.265 . S
H124 C129 0.950 . S
H125 C133 0.949 . S
H126 C134 0.950 . S
H127 C135 0.951 . S
H128 C136 0.951 . S
C129 C123 1.265 . S
C129 H124 0.950 . S
C129 C130 1.478 . S
C130 C129 1.478 . S
C130 C131 1.397 . S
C130 C147 1.394 . S
C131 C130 1.397 . S
C131 C132 1.438 . S
C131 C136 1.429 . S
C132 C131 1.438 . S
C132 C133 1.428 . S
C132 C145 1.394 . S
C133 H125 0.949 . S
C133 C132 1.428 . S
C133 C134 1.345 . S
C134 H126 0.950 . S
C134 C133 1.345 . S
C134 C135 1.424 . S
C135 H127 0.951 . S
C135 C134 1.424 . S
C135 C136 1.347 . S
C136 H128 0.951 . S
C136 C131 1.429 . S
C136 C135 1.347 . S
H137 C138 0.951 . S
C138 H137 0.951 . S
C138 C144 1.265 . S
H139 C144 0.950 . S
H140 C148 0.949 . S
H141 C149 0.950 . S
H142 C150 0.951 . S
H143 C151 0.951 . S
C144 C138 1.265 . S
C144 H139 0.950 . S
C144 C145 1.478 . S
C145 C132 1.394 . S
C145 C144 1.478 . S
C145 C146 1.397 . S
C146 C145 1.397 . S
C146 C147 1.438 . S
C146 C151 1.429 . S
C147 C130 1.394 . S
C147 C146 1.438 . S
C147 C148 1.428 . S
C148 H140 0.949 . S
C148 C147 1.428 . S
C148 C149 1.345 . S
C149 H141 0.950 . S
C149 C148 1.345 . S
C149 C150 1.424 . S
C150 H142 0.951 . S
C150 C149 1.424 . S
C150 C151 1.347 . S
C151 H143 0.951 . S
C151 C146 1.429 . S
C151 C150 1.347 . S
H152 C153 0.951 . S
C153 H152 0.951 . S
C153 C159 1.265 . S
H154 C159 0.950 . S
H155 C163 0.949 . S
H156 C164 0.950 . S
H157 C165 0.951 . S
H158 C166 0.951 . S
C159 C153 1.265 . S
C159 H154 0.950 . S
C159 C160 1.478 . S
C160 C159 1.478 . S
C160 C161 1.397 . S
C160 C177 1.394 . S
C161 C160 1.397 . S
C161 C162 1.438 . S
C161 C166 1.429 . S
C162 C161 1.438 . S
C162 C163 1.428 . S
C162 C175 1.394 . S
C163 H155 0.949 . S
C163 C162 1.428 . S
C163 C164 1.345 . S
C164 H156 0.950 . S
C164 C163 1.345 . S
C164 C165 1.424 . S
C165 H157 0.951 . S
C165 C164 1.424 . S
C165 C166 1.347 . S
C166 H158 0.951 . S
C166 C161 1.429 . S
C166 C165 1.347 . S
H167 C168 0.951 . S
C168 H167 0.951 . S
C168 C174 1.265 . S
H169 C174 0.950 . S
H170 C178 0.949 . S
H171 C179 0.950 . S
H172 C180 0.951 . S
H173 C181 0.951 . S
C174 C168 1.265 . S
C174 H169 0.950 . S
C174 C175 1.478 . S
C175 C162 1.394 . S
C175 C174 1.478 . S
C175 C176 1.397 . S
C176 C175 1.397 . S
C176 C177 1.438 . S
C176 C181 1.429 . S
C177 C160 1.394 . S
C177 C176 1.438 . S
C177 C178 1.428 . S
C178 H170 0.949 . S
C178 C177 1.428 . S
C178 C179 1.345 . S
C179 H171 0.950 . S
C179 C178 1.345 . S
C179 C180 1.424 . S
C180 H172 0.951 . S
C180 C179 1.424 . S
C180 C181 1.347 . S
C181 H173 0.951 . S
C181 C176 1.429 . S
C181 C180 1.347 . S
H182 C183 0.951 . S
C183 H182 0.951 . S
C183 C189 1.265 . S
H184 C189 0.950 . S
H185 C193 0.949 . S
H186 C194 0.950 . S
H187 C195 0.951 . S
H188 C196 0.951 . S
C189 C183 1.265 . S
C189 H184 0.950 . S
C189 C190 1.478 . S
C190 C189 1.478 . S
C190 C191 1.397 . S
C190 C207 1.394 . S
C191 C190 1.397 . S
C191 C192 1.438 . S
C191 C196 1.429 . S
C192 C191 1.438 . S
C192 C193 1.428 . S
C192 C205 1.394 . S
C193 H185 0.949 . S
C193 C192 1.428 . S
C193 C194 1.345 . S
C194 H186 0.950 . S
C194 C193 1.345 . S
C194 C195 1.424 . S
C195 H187 0.951 . S
C195 C194 1.424 . S
C195 C196 1.347 . S
C196 H188 0.951 . S
C196 C191 1.429 . S
C196 C195 1.347 . S
H197 C198 0.951 . S
C198 H197 0.951 . S
C198 C204 1.265 . S
H199 C204 0.950 . S
H200 C208 0.949 . S
H201 C209 0.950 . S
H202 C210 0.951 . S
H203 C211 0.951 . S
C204 C198 1.265 . S
C204 H199 0.950 . S
C204 C205 1.478 . S
C205 C192 1.394 . S
C205 C204 1.478 . S
C205 C206 1.397 . S
C206 C205 1.397 . S
C206 C207 1.438 . S
C206 C211 1.429 . S
C207 C190 1.394 . S
C207 C206 1.438 . S
C207 C208 1.428 . S
C208 H200 0.949 . S
C208 C207 1.428 . S
C208 C209 1.345 . S
C209 H201 0.950 . S
C209 C208 1.345 . S
C209 C210 1.424 . S
C210 H202 0.951 . S
C210 C209 1.424 . S
C210 C211 1.347 . S
C211 H203 0.951 . S
C211 C206 1.429 . S
C211 C210 1.347 . S
H212 C213 0.951 . S
C213 H212 0.951 . S
C213 C219 1.265 . S
H214 C219 0.950 . S
H215 C223 0.949 . S
H216 C224 0.950 . S
H217 C225 0.951 . S
H218 C226 0.951 . S
C219 C213 1.265 . S
C219 H214 0.950 . S
C219 C220 1.478 . S
C220 C219 1.478 . S
C220 C221 1.397 . S
C220 C237 1.394 . S
C221 C220 1.397 . S
C221 C222 1.438 . S
C221 C226 1.429 . S
C222 C221 1.438 . S
C222 C223 1.428 . S
C222 C235 1.394 . S
C223 H215 0.949 . S
C223 C222 1.428 . S
C223 C224 1.345 . S
C224 H216 0.950 . S
C224 C223 1.345 . S
C224 C225 1.424 . S
C225 H217 0.951 . S
C225 C224 1.424 . S
C225 C226 1.347 . S
C226 H218 0.951 . S
C226 C221 1.429 . S
C226 C225 1.347 . S
H227 C228 0.951 . S
C228 H227 0.951 . S
C228 C234 1.265 . S
H229 C234 0.950 . S
H230 C238 0.949 . S
H231 C239 0.950 . S
H232 C240 0.951 . S
H233 C241 0.951 . S
C234 C228 1.265 . S
C234 H229 0.950 . S
C234 C235 1.478 . S
C235 C222 1.394 . S
C235 C234 1.478 . S
C235 C236 1.397 . S
C236 C235 1.397 . S
C236 C237 1.438 . S
C236 C241 1.429 . S
C237 C220 1.394 . S
C237 C236 1.438 . S
C237 C238 1.428 . S
C238 H230 0.949 . S
C238 C237 1.428 . S
C238 C239 1.345 . S
C239 H231 0.950 . S
C239 C238 1.345 . S
C239 C240 1.424 . S
C240 H232 0.951 . S
C240 C239 1.424 . S
C240 C241 1.347 . S
C241 H233 0.951 . S
C241 C236 1.429 . S
C241 C240 1.347 . S
H242 C243 0.951 . S
C243 H242 0.951 . S
C243 C249 1.265 . S
H244 C249 0.950 . S
H245 C253 0.949 . S
H246 C254 0.950 . S
H247 C255 0.951 . S
H248 C256 0.951 . S
C249 C243 1.265 . S
C249 H244 0.950 . S
C249 C250 1.478 . S
C250 C249 1.478 . S
C250 C251 1.397 . S
C250 C267 1.394 . S
C251 C250 1.397 . S
C251 C252 1.438 . S
C251 C256 1.429 . S
C252 C251 1.438 . S
C252 C253 1.428 . S
C252 C265 1.394 . S
C253 H245 0.949 . S
C253 C252 1.428 . S
C253 C254 1.345 . S
C254 H246 0.950 . S
C254 C253 1.345 . S
C254 C255 1.424 . S
C255 H247 0.951 . S
C255 C254 1.424 . S
C255 C256 1.347 . S
C256 H248 0.951 . S
C256 C251 1.429 . S
C256 C255 1.347 . S
H257 C258 0.951 . S
C258 H257 0.951 . S
C258 C264 1.265 . S
H259 C264 0.950 . S
H260 C268 0.949 . S
H261 C269 0.950 . S
H262 C270 0.951 . S
H263 C271 0.951 . S
C264 C258 1.265 . S
C264 H259 0.950 . S
C264 C265 1.478 . S
C265 C252 1.394 . S
C265 C264 1.478 . S
C265 C266 1.397 . S
C266 C265 1.397 . S
C266 C267 1.438 . S
C266 C271 1.429 . S
C267 C250 1.394 . S
C267 C266 1.438 . S
C267 C268 1.428 . S
C268 H260 0.949 . S
C268 C267 1.428 . S
C268 C269 1.345 . S
C269 H261 0.950 . S
C269 C268 1.345 . S
C269 C270 1.424 . S
C270 H262 0.951 . S
C270 C269 1.424 . S
C270 C271 1.347 . S
C271 H263 0.951 . S
C271 C266 1.429 . S
C271 C270 1.347 . S
H272 C273 0.951 . S
C273 H272 0.951 . S
C273 C279 1.265 . S
H274 C279 0.950 . S
H275 C283 0.949 . S
H276 C284 0.950 . S
H277 C285 0.951 . S
H278 C286 0.951 . S
C279 C273 1.265 . S
C279 H274 0.950 . S
C279 C280 1.478 . S
C280 C279 1.478 . S
C280 C281 1.397 . S
C280 C297 1.394 . S
C281 C280 1.397 . S
C281 C282 1.438 . S
C281 C286 1.429 . S
C282 C281 1.438 . S
C282 C283 1.428 . S
C282 C295 1.394 . S
C283 H275 0.949 . S
C283 C282 1.428 . S
C283 C284 1.345 . S
C284 H276 0.950 . S
C284 C283 1.345 . S
C284 C285 1.424 . S
C285 H277 0.951 . S
C285 C284 1.424 . S
C285 C286 1.347 . S
C286 H278 0.951 . S
C286 C281 1.429 . S
C286 C285 1.347 . S
H287 C288 0.951 . S
C288 H287 0.951 . S
C288 C294 1.265 . S
H289 C294 0.950 . S
H290 C298 0.949 . S
H291 C299 0.950 . S
H292 C300 0.951 . S
H293 C301 0.951 . S
C294 C288 1.265 . S
C294 H289 0.950 . S
C294 C295 1.478 . S
C295 C282 1.394 . S
C295 C294 1.478 . S
C295 C296 1.397 . S
C296 C295 1.397 . S
C296 C297 1.438 . S
C296 C301 1.429 . S
C297 C280 1.394 . S
C297 C296 1.438 . S
C297 C298 1.428 . S
C298 H290 0.949 . S
C298 C297 1.428 . S
C298 C299 1.345 . S
C299 H291 0.950 . S
C299 C298 1.345 . S
C299 C300 1.424 . S
C300 H292 0.951 . S
C300 C299 1.424 . S
C300 C301 1.347 . S
C301 H293 0.951 . S
C301 C296 1.429 . S
C301 C300 1.347 . S
C63 C0 1.195 . S
C78 C41 1.223 . S
C93 C29 1.736 . S
C108 C33 1.737 . S
C123 C30 1.246 . S
C138 C50 1.242 . S
C153 C1 1.576 . S
C168 C51 1.594 . S
C183 C2 1.730 . S
C198 C60 1.724 . S
C228 C61 1.184 . S
C213 C19 1.162 . S
C243 C20 1.539 . S
C258 C32 1.560 . S
C288 C31 1.155 . S
C273 C10 1.184 . S
